
#######################################################################
#
#                 Cambridge Crystallographic Data Centre
#                                CCDC 
#
#######################################################################
#
# If this CIF has been generated from an entry in the Cambridge 
# Structural Database, then it will include bibliographic, chemical, 
# crystal, experimental, refinement or atomic coordinate data resulting 
# from the CCDC's data processing and validation procedures.
#
#######################################################################

data_EKUGOG
_symmetry_cell_setting           monoclinic
_symmetry_space_group_name_H-M   'P 21/c'
_symmetry_Int_Tables_number      14
_space_group_name_Hall           '-P 2ybc'
loop_
_symmetry_equiv_pos_site_id
_symmetry_equiv_pos_as_xyz
1 x,y,z
2 x,1/2-y,1/2+z
3 -x,-y,-z
4 -x,1/2+y,1/2-z
_cell_length_a                   35.352(7)
_cell_length_b                   9.2297(18)
_cell_length_c                   14.880(3)
_cell_angle_alpha                90.00
_cell_angle_beta                 90.88(3)
_cell_angle_gamma                90.00
_cell_volume                     4854.6
loop_
_atom_site_label
_atom_site_type_symbol
_atom_site_fract_x
_atom_site_fract_y
_atom_site_fract_z
C1 C 0.20612(11) -1.0956(4) -0.0925(2)
H1 H 0.1831 -1.0613 -0.0717
C2 C 0.21290(12) -1.2441(4) -0.0906(3)
H2 H 0.1945 -1.3071 -0.0694
C3 C 0.24619(12) -1.2964(4) -0.1195(3)
H3 H 0.2508 -1.3956 -0.1180
C4 C 0.27400(10) -1.2009(3) -0.1521(2)
C5 C 0.30978(11) -1.2444(4) -0.1849(3)
H4 H 0.3165 -1.3418 -0.1826
C6 C 0.33402(11) -1.1482(4) -0.2190(3)
H5 H 0.3572 -1.1802 -0.2402
C7 C 0.32499(10) -0.9960(4) -0.2236(2)
C8 C 0.34887(12) -0.8935(4) -0.2615(2)
H6 H 0.3719 -0.9210 -0.2857
C9 C 0.33779(12) -0.7523(4) -0.2625(3)
H7 H 0.3532 -0.6822 -0.2879
C10 C 0.30348(12) -0.7126(4) -0.2256(2)
H8 H 0.2968 -0.6152 -0.2259
C11 C 0.29053(10) -0.9494(4) -0.1892(2)
C12 C 0.26462(10) -1.0531(4) -0.1535(2)
C25 C 0.07843(13) 0.2512(4) -0.1133(2)
H17 H 0.1046 0.2586 -0.1182
C26 C 0.05710(19) 0.3762(5) -0.0944(3)
H18 H 0.0692 0.4656 -0.0903
C27 C 0.0201(2) 0.3683(5) -0.0824(3)
H19 H 0.0066 0.4515 -0.0679
C28 C 0.00090(13) 0.2354(4) -0.0914(2)
C29 C -0.03893(15) 0.2168(6) -0.0783(3)
H20 H -0.0538 0.2958 -0.0627
C30 C -0.05461(14) 0.0869(6) -0.0883(3)
H21 H -0.0802 0.0762 -0.0765
C31 C -0.03376(12) -0.0364(5) -0.1165(2)
C32 C -0.04970(12) -0.1747(6) -0.1335(3)
H22 H -0.0753 -0.1904 -0.1240
C33 C -0.02768(13) -0.2841(5) -0.1634(3)
H23 H -0.0379 -0.3756 -0.1737
C34 C 0.01041(12) -0.2573(4) -0.1787(2)
H24 H 0.0253 -0.3328 -0.1998
C35 C 0.00496(10) -0.0203(4) -0.1323(2)
C36 C 0.02377(11) 0.1169(3) -0.1155(2)
C49 C 0.10930(10) -0.2115(4) -0.0978(2)
C51 C 0.19689(12) -0.6531(4) -0.0688(3)
C53 C 0.11273(9) -0.4862(3) 0.1336(2)
N1 N 0.23133(8) -1.0002(3) -0.12292(19)
N2 N 0.27951(9) -0.8084(3) -0.18960(19)
N5 N 0.02661(8) -0.1295(3) -0.16456(17)
N6 N 0.06180(9) 0.1214(3) -0.12439(19)
N9 N 0.12031(10) -0.3076(4) -0.0551(2)
N10 N 0.10080(9) -0.4735(3) 0.2053(2)
N11 N 0.17445(10) -0.5847(3) -0.0332(2)
Cu1 Cu 0.084720(13) -0.07339(4) -0.17281(3)
Cu2 Cu 0.135570(13) -0.47006(5) 0.02167(3)
Cu3 Cu 0.231550(15) -0.77595(5) -0.12077(3)
N10A N 0.10080(9) -0.0265(3) -0.2947(2)
Cu1A Cu 0.084720(13) -0.42661(4) 0.32719(3)
C13 C 0.42764(12) 0.1988(4) 0.0833(2)
H9 H 0.4014 0.2041 0.0795
C14 C 0.44858(15) 0.3243(4) 0.0671(3)
H10 H 0.4364 0.4112 0.0537
C15 C 0.48660(15) 0.3173(4) 0.0712(3)
H11 H 0.5007 0.4005 0.0607
C16 C 0.50531(11) 0.1876(4) 0.0909(2)
C17 C 0.54515(12) 0.1690(4) 0.0956(2)
H12 H 0.5608 0.2482 0.0853
C18 C 0.56091(11) 0.0393(5) 0.1146(2)
H13 H 0.5871 0.0299 0.1137
C19 C 0.53828(10) -0.0847(4) 0.1364(2)
C20 C 0.55315(11) -0.2205(4) 0.1588(2)
H14 H 0.5792 -0.2357 0.1600
C21 C 0.52905(11) -0.3300(4) 0.1788(2)
H15 H 0.5384 -0.4214 0.1929
C22 C 0.49024(11) -0.3049(4) 0.1781(2)
H16 H 0.4742 -0.3807 0.1931
C23 C 0.49912(10) -0.0693(3) 0.1345(2)
C24 C 0.48168(10) 0.0678(3) 0.1089(2)
C37 C 0.19608(12) -0.7710(4) 0.1575(3)
H25 H 0.2012 -0.6744 0.1447
C38 C 0.16263(13) -0.8019(4) 0.1997(3)
H26 H 0.1465 -0.7277 0.2168
C39 C 0.15369(11) -0.9418(4) 0.2159(3)
H27 H 0.1313 -0.9646 0.2446
C40 C 0.17812(10) -1.0521(4) 0.1894(2)
C41 C 0.17003(11) -1.2024(4) 0.2007(2)
H28 H 0.1472 -1.2308 0.2254
C42 C 0.19529(10) -1.3034(4) 0.1757(2)
H29 H 0.1893 -1.4008 0.1827
C43 C 0.23111(10) -1.2654(3) 0.1387(2)
C44 C 0.25828(12) -1.3659(4) 0.1132(2)
H30 H 0.2535 -1.4645 0.1195
C45 C 0.29161(11) -1.3207(4) 0.0793(3)
H31 H 0.3101 -1.3873 0.0633
C46 C 0.29779(11) -1.1721(4) 0.0688(3)
H32 H 0.3207 -1.1416 0.0455
C47 C 0.23963(10) -1.1181(3) 0.1256(2)
C48 C 0.21241(10) -1.0099(3) 0.1503(2)
C50 C 0.38562(9) -0.4760(3) -0.1661(2)
C52 C 0.39479(10) -0.2694(4) 0.0778(2)
C54 C 0.30671(11) -0.7235(4) 0.0205(2)
N3 N 0.47512(8) -0.1777(3) 0.15705(16)
N4 N 0.44357(8) 0.0717(3) 0.10411(17)
N7 N 0.27235(9) -1.0723(3) 0.09045(19)
N8 N 0.22176(9) -0.8695(3) 0.13356(18)
N12 N 0.39746(9) -0.4400(3) -0.2341(2)
N13 N 0.38402(9) -0.3690(3) 0.0379(2)
N14 N 0.32929(10) -0.6487(3) -0.0077(2)
Cu4 Cu 0.417280(12) -0.12365(4) 0.14999(3)
Cu5 Cu 0.365660(12) -0.51177(4) -0.05159(3)
Cu6 Cu 0.271350(15) -0.84761(5) 0.06986(3)
N12A N 0.39746(9) -0.0600(3) 0.2659(2)
Cu4A Cu 0.417280(12) -0.37635(4) -0.35001(3)
loop_
_geom_bond_atom_site_label_1
_geom_bond_atom_site_label_2
_geom_bond_site_symmetry_1
_geom_bond_site_symmetry_2
C1 H1 1_555 1_555
C2 C1 1_555 1_555
H2 C2 1_555 1_555
C3 C2 1_555 1_555
H3 C3 1_555 1_555
C4 C3 1_555 1_555
C5 C4 1_555 1_555
H4 C5 1_555 1_555
C6 C5 1_555 1_555
H5 C6 1_555 1_555
C7 C6 1_555 1_555
C8 C7 1_555 1_555
H6 C8 1_555 1_555
C9 C8 1_555 1_555
H7 C9 1_555 1_555
C10 C9 1_555 1_555
H8 C10 1_555 1_555
C11 C7 1_555 1_555
C12 C4 1_555 1_555
C13 H9 1_555 1_555
C14 C13 1_555 1_555
H10 C14 1_555 1_555
C15 C14 1_555 1_555
H11 C15 1_555 1_555
C16 C15 1_555 1_555
C17 C16 1_555 1_555
H12 C17 1_555 1_555
C18 C17 1_555 1_555
H13 C18 1_555 1_555
C19 C18 1_555 1_555
C20 C19 1_555 1_555
H14 C20 1_555 1_555
C21 C20 1_555 1_555
H15 C21 1_555 1_555
C22 C21 1_555 1_555
H16 C22 1_555 1_555
C23 C19 1_555 1_555
C24 C16 1_555 1_555
C25 H17 1_555 1_555
C26 C25 1_555 1_555
H18 C26 1_555 1_555
C27 C26 1_555 1_555
H19 C27 1_555 1_555
C28 C27 1_555 1_555
C29 C28 1_555 1_555
H20 C29 1_555 1_555
C30 C29 1_555 1_555
H21 C30 1_555 1_555
C31 C30 1_555 1_555
C32 C31 1_555 1_555
H22 C32 1_555 1_555
C33 C32 1_555 1_555
H23 C33 1_555 1_555
C34 C33 1_555 1_555
H24 C34 1_555 1_555
C35 C31 1_555 1_555
C36 C28 1_555 1_555
C37 H25 1_555 1_555
C38 C37 1_555 1_555
H26 C38 1_555 1_555
C39 C38 1_555 1_555
H27 C39 1_555 1_555
C40 C39 1_555 1_555
C41 C40 1_555 1_555
H28 C41 1_555 1_555
C42 C41 1_555 1_555
H29 C42 1_555 1_555
C43 C42 1_555 1_555
C44 C43 1_555 1_555
H30 C44 1_555 1_555
C45 C44 1_555 1_555
H31 C45 1_555 1_555
C46 C45 1_555 1_555
H32 C46 1_555 1_555
C47 C43 1_555 1_555
C48 C40 1_555 1_555
C49 N9 1_555 1_555
C50 N12 1_555 1_555
C51 N11 1_555 1_555
C52 N13 1_555 1_555
C53 N10 1_555 1_555
C54 N14 1_555 1_555
N1 C1 1_555 1_555
N2 C10 1_555 1_555
N3 C22 1_555 1_555
N4 C13 1_555 1_555
N5 C34 1_555 1_555
N6 C25 1_555 1_555
N7 C46 1_555 1_555
N8 C37 1_555 1_555
N9 Cu2 1_555 1_555
N10 Cu1A 1_555 1_555
N11 Cu2 1_555 1_555
N12 Cu4A 1_555 1_555
N13 Cu5 1_555 1_555
N14 Cu5 1_555 1_555
Cu1 C49 1_555 1_555
Cu2 C53 1_555 1_555
Cu3 C51 1_555 1_555
Cu4 C52 1_555 1_555
Cu5 C50 1_555 1_555
Cu6 C54 1_555 1_555
N12A Cu4 1_555 1_555
N10A Cu1 1_555 1_555
C11 N2 1_555 1_555
C11 C12 1_555 1_555
C12 N1 1_555 1_555
C23 N3 1_555 1_555
C23 C24 1_555 1_555
C24 N4 1_555 1_555
C35 N5 1_555 1_555
C35 C36 1_555 1_555
C36 N6 1_555 1_555
C47 N7 1_555 1_555
C47 C48 1_555 1_555
C48 N8 1_555 1_555
N1 Cu3 1_555 1_555
N2 Cu3 1_555 1_555
N3 Cu4 1_555 1_555
N4 Cu4 1_555 1_555
N5 Cu1 1_555 1_555
N6 Cu1 1_555 1_555
N7 Cu6 1_555 1_555
N8 Cu6 1_555 1_555

#END
