
#######################################################################
#
#                 Cambridge Crystallographic Data Centre
#                                CCDC 
#
#######################################################################
#
# If this CIF has been generated from an entry in the Cambridge 
# Structural Database, then it will include bibliographic, chemical, 
# crystal, experimental, refinement or atomic coordinate data resulting 
# from the CCDC's data processing and validation procedures.
#
#######################################################################

data_EKUHAT
_symmetry_cell_setting           monoclinic
_symmetry_space_group_name_H-M   'C c'
_symmetry_Int_Tables_number      9
_space_group_name_Hall           'C -2yc'
loop_
_symmetry_equiv_pos_site_id
_symmetry_equiv_pos_as_xyz
1 x,y,z
2 x,-y,1/2+z
3 1/2+x,1/2+y,z
4 1/2+x,1/2-y,1/2+z
_cell_length_a                   11.7922(2)
_cell_length_b                   20.24460(10)
_cell_length_c                   14.4066(3)
_cell_angle_alpha                90
_cell_angle_beta                 98.4420(10)
_cell_angle_gamma                90
_cell_volume                     3402
loop_
_atom_site_label
_atom_site_type_symbol
_atom_site_fract_x
_atom_site_fract_y
_atom_site_fract_z
Ag1 Ag 0.01951(6) 0.72709(3) -0.25199(5)
Ag2 Ag 0.50007(6) 0.49213(4) 0.50003(5)
N1 N 0.1091(7) 0.7126(4) -0.3664(5)
N2 N 0.1266(5) 0.6924(3) -0.5139(4)
N3 N -0.0677(6) 0.7234(4) -0.1342(5)
N4 N -0.0926(5) 0.6964(3) 0.0071(4)
N5 N 0.3349(5) 0.5458(4) 0.2291(4)
N6 N 0.4205(5) 0.5338(4) 0.3744(5)
N7 N -0.3346(5) 0.5704(4) -0.7338(4)
N8 N -0.4195(5) 0.5531(4) -0.8758(5)
C1 C 0.0548(7) 0.7139(4) -0.4567(5)
H1 H -0.0204 0.7275 -0.4755
C2 C 0.2151(7) 0.6879(4) -0.3712(7)
H2 H 0.2714 0.6806 -0.3198
C3 C 0.2268(7) 0.6757(4) -0.4601(6)
H3 H 0.2916 0.6587 -0.4815
C4 C 0.0924(7) 0.6796(4) -0.6140(6)
H4 H 0.1598 0.6779 -0.6452
H5 H 0.0435 0.7151 -0.6418
C5 C 0.0294(6) 0.6156(4) -0.6269(5)
C6 C -0.0894(6) 0.6157(4) -0.6307(5)
H6 H -0.1287 0.6555 -0.6313
C7 C -0.1493(6) 0.5563(4) -0.6335(5)
C8 C -0.0901(8) 0.4980(4) -0.6317(5)
H7 H -0.1302 0.4584 -0.6323
C9 C 0.0280(9) 0.4963(3) -0.6291(6)
C10 C 0.0858(7) 0.5565(5) -0.6262(6)
H8 H 0.1650 0.5564 -0.6239
C11 C -0.2785(6) 0.5562(5) -0.6380(6)
H9 H -0.3034 0.5134 -0.6184
H10 H -0.3007 0.5892 -0.5953
C12 C -0.3822(7) 0.5238(5) -0.7955(6)
H11 H -0.3875 0.4789 -0.7831
C13 C -0.3937(7) 0.6189(4) -0.8644(6)
H12 H -0.4099 0.6511 -0.9105
C14 C -0.3411(7) 0.6299(5) -0.7761(6)
H13 H -0.3150 0.6701 -0.7500
C15 C 0.0966(10) 0.4317(5) -0.6297(7)
H14 H 0.1110 0.4226 -0.6923
H15 H 0.0535 0.3960 -0.6082
H16 H 0.1683 0.4361 -0.5888
C16 C -0.0195(7) 0.7221(4) -0.0461(6)
H17 H 0.0542 0.7367 -0.0239
C17 C -0.1750(7) 0.6978(4) -0.1357(6)
H18 H -0.2292 0.6933 -0.1891
C18 C -0.1907(6) 0.6800(4) -0.0494(6)
H19 H -0.2556 0.6605 -0.0317
C19 C -0.0630(7) 0.6808(4) 0.1089(6)
H20 H -0.1311 0.6839 0.1392
H21 H -0.0070 0.7123 0.1385
C20 C -0.0145(6) 0.6117(4) 0.1194(5)
C21 C -0.0824(8) 0.5570(4) 0.1219(6)
H22 H -0.1606 0.5636 0.1211
C22 C -0.0423(7) 0.4929(4) 0.1254(6)
C23 C 0.0745(8) 0.4857(5) 0.1287(6)
H23 H 0.1053 0.4433 0.1313
C24 C 0.1468(6) 0.5384(4) 0.1284(5)
C25 C 0.1020(6) 0.6024(4) 0.1234(5)
H24 H 0.1506 0.6385 0.1227
C26 C 0.2755(6) 0.5303(5) 0.1361(6)
H25 H 0.2927 0.4851 0.1208
H26 H 0.3038 0.5589 0.0906
C27 C 0.3707(8) 0.5021(4) 0.2968(6)
H27 H 0.3624 0.4565 0.2911
C28 C 0.4139(7) 0.5991(5) 0.3545(7)
H28 H 0.4413 0.6328 0.3956
C29 C 0.3611(6) 0.6077(5) 0.2653(6)
H29 H 0.3455 0.6478 0.2344
C30 C -0.1175(9) 0.4339(5) 0.1275(8)
H30 H -0.1963 0.4477 0.1193
H31 H -0.0991 0.4118 0.1868
H32 H -0.1056 0.4043 0.0778
N8A N 0.5805(5) 0.4469(4) 0.6242(5)
Ag2A Ag -0.49993(6) 0.50787(4) -0.99997(5)
O1 O 0.4677(7) 0.6050(5) 0.6316(7)
O2 O 0.5901(9) 0.6420(6) 0.5508(7)
O3 O 0.6073(9) 0.6650(6) 0.6916(7)
N9 N 0.5527(8) 0.6365(4) 0.6239(8)
O4 O 0.7412(10) 0.7557(6) 0.4118(9)
O5 O 0.8372(11) 0.8145(10) 0.3371(7)
O6 O 0.8498(9) 0.8306(6) 0.4773(7)
N10 N 0.8085(9) 0.8032(8) 0.4084(8)
O7 O 0.7925(6) 0.7483(4) 0.6370(5)
H33 H 0.746(9) 0.706(4) 0.625(9)
H34 H 0.792(11) 0.771(6) 0.575(7)
O8 O 1.0591(7) 0.8765(5) 0.3766(7)
H36 H 1.03(2) 0.852(11) 0.313(12)
H35? H 0.993(14) 0.844(12) 0.347(18)
loop_
_geom_bond_atom_site_label_1
_geom_bond_atom_site_label_2
_geom_bond_site_symmetry_1
_geom_bond_site_symmetry_2
Ag1 N1 1_555 1_555
Ag2 N6 1_555 1_555
N1 C1 1_555 1_555
N2 C1 1_555 1_555
N3 Ag1 1_555 1_555
N4 C16 1_555 1_555
N5 C26 1_555 1_555
N6 C27 1_555 1_555
N7 C11 1_555 1_555
N8 C12 1_555 1_555
C1 H1 1_555 1_555
C2 N1 1_555 1_555
H2 C2 1_555 1_555
C3 N2 1_555 1_555
H3 C3 1_555 1_555
C4 N2 1_555 1_555
H4 C4 1_555 1_555
H5 C4 1_555 1_555
C5 C4 1_555 1_555
C6 C5 1_555 1_555
H6 C6 1_555 1_555
C7 C6 1_555 1_555
C8 C7 1_555 1_555
H7 C8 1_555 1_555
C9 C8 1_555 1_555
C10 C5 1_555 1_555
H8 C10 1_555 1_555
C11 C7 1_555 1_555
H9 C11 1_555 1_555
H10 C11 1_555 1_555
C12 N7 1_555 1_555
H11 C12 1_555 1_555
C13 N8 1_555 1_555
H12 C13 1_555 1_555
C14 N7 1_555 1_555
H13 C14 1_555 1_555
C15 C9 1_555 1_555
H14 C15 1_555 1_555
H15 C15 1_555 1_555
H16 C15 1_555 1_555
C16 N3 1_555 1_555
H17 C16 1_555 1_555
C17 N3 1_555 1_555
H18 C17 1_555 1_555
C18 N4 1_555 1_555
H19 C18 1_555 1_555
C19 N4 1_555 1_555
H20 C19 1_555 1_555
H21 C19 1_555 1_555
C20 C19 1_555 1_555
C21 C20 1_555 1_555
H22 C21 1_555 1_555
C22 C21 1_555 1_555
C23 C22 1_555 1_555
H23 C23 1_555 1_555
C24 C23 1_555 1_555
C25 C20 1_555 1_555
H24 C25 1_555 1_555
C26 C24 1_555 1_555
H25 C26 1_555 1_555
H26 C26 1_555 1_555
C27 N5 1_555 1_555
H27 C27 1_555 1_555
C28 N6 1_555 1_555
H28 C28 1_555 1_555
C29 N5 1_555 1_555
H29 C29 1_555 1_555
C30 C22 1_555 1_555
H30 C30 1_555 1_555
H31 C30 1_555 1_555
H32 C30 1_555 1_555
O1 N9 1_555 1_555
O2 N9 1_555 1_555
O3 N9 1_555 1_555
O4 N10 1_555 1_555
O5 N10 1_555 1_555
O6 N10 1_555 1_555
O7 H33 1_555 1_555
H34 O7 1_555 1_555
O8 H36 1_555 1_555
N8A Ag2 1_555 1_555
Ag2A N8 1_555 1_555
C2 C3 1_555 1_555
C9 C10 1_555 1_555
C13 C14 1_555 1_555
C17 C18 1_555 1_555
C24 C25 1_555 1_555
C28 C29 1_555 1_555

#END
