
#######################################################################
#
#                 Cambridge Crystallographic Data Centre
#                                CCDC 
#
#######################################################################
#
# If this CIF has been generated from an entry in the Cambridge 
# Structural Database, then it will include bibliographic, chemical, 
# crystal, experimental, refinement or atomic coordinate data resulting 
# from the CCDC's data processing and validation procedures.
#
#######################################################################

data_EKUJEZ
_symmetry_cell_setting           orthorhombic
_symmetry_space_group_name_H-M   'P 21 21 21'
_symmetry_Int_Tables_number      19
_space_group_name_Hall           'P 2ac 2ab'
loop_
_symmetry_equiv_pos_site_id
_symmetry_equiv_pos_as_xyz
1 x,y,z
2 1/2-x,-y,1/2+z
3 -x,1/2+y,1/2-z
4 1/2+x,1/2-y,-z
_cell_length_a                   7.537(3)
_cell_length_b                   11.426(5)
_cell_length_c                   15.309(6)
_cell_angle_alpha                90
_cell_angle_beta                 90
_cell_angle_gamma                90
_cell_volume                     1318.38
loop_
_atom_site_label
_atom_site_type_symbol
_atom_site_fract_x
_atom_site_fract_y
_atom_site_fract_z
Ca1 Ca 1.12148(11) 0.51463(7) 0.15500(4)
C1 C 0.9261(5) 0.7063(4) 0.2988(2)
H1 H 0.9404 0.6982 0.3621
C2 C 0.7900(5) 0.6195(4) 0.2635(3)
H2 H 0.6866 0.6172 0.3023
C3 C 0.7377(5) 0.6740(4) 0.1761(2)
H3 H 0.6141 0.6561 0.1613
C4 C 0.7641(5) 0.8061(3) 0.1914(3)
H4 H 0.8415 0.8376 0.1456
C5 C 0.5996(6) 0.8800(3) 0.1974(3)
H5 H 0.5440 0.8862 0.1404
H6 H 0.5155 0.8444 0.2373
O1 O 1.0885(4) 0.6868(2) 0.25470(17)
H7 H 1.1830 0.7380 0.2628
O2 O 0.8593(4) 0.5047(2) 0.25295(17)
H8 H 0.8140 0.4372 0.2785
O3 O 0.8559(4) 0.6333(2) 0.11008(17)
H9 H 0.8352 0.6503 0.0516
O4 O 0.8541(4) 0.8169(2) 0.27668(16)
O5 O 0.6499(4) 0.9953(3) 0.22863(18)
H10 H 0.5968 1.0617 0.2052
O6 O 1.3543(5) 0.4227(3) 0.0729(2)
H11 H 1.4220 0.3631 0.0898
H12 H 1.4116 0.4642 0.0352
O7 O 1.2628(5) 0.6644(3) 0.0701(2)
H13 H 1.2272 0.7331 0.0588
H14 H 1.3586 0.6540 0.0414
O8 O 0.9569(5) 0.4000(3) 0.05481(19)
H15 H 0.8472 0.3963 0.0410
H16 H 1.0140 0.3564 0.0195
O4B O 1.1459(4) 0.3169(2) 0.22332(16)
O5B O 1.3501(4) 0.4953(3) 0.27137(18)
Ca1B Ca 0.87852(11) 1.01463(7) 0.34500(4)
H10B H 1.4032 0.5617 0.2948
Cl1 Cl 0.11857(17) 0.92589(9) 0.04938(6)
Cl2 Cl 0.87807(16) 0.78114(10) 0.61045(7)
loop_
_geom_bond_atom_site_label_1
_geom_bond_atom_site_label_2
_geom_bond_site_symmetry_1
_geom_bond_site_symmetry_2
Ca1 O1 1_555 1_555
C1 H1 1_555 1_555
C2 C1 1_555 1_555
H2 C2 1_555 1_555
C3 C2 1_555 1_555
H3 C3 1_555 1_555
C4 C3 1_555 1_555
H4 C4 1_555 1_555
C5 C4 1_555 1_555
H5 C5 1_555 1_555
H6 C5 1_555 1_555
O1 C1 1_555 1_555
H7 O1 1_555 1_555
O2 Ca1 1_555 1_555
H8 O2 1_555 1_555
O3 Ca1 1_555 1_555
H9 O3 1_555 1_555
O4 C1 1_555 1_555
O5 C5 1_555 1_555
H10 O5 1_555 1_555
O6 Ca1 1_555 1_555
H11 O6 1_555 1_555
H12 O6 1_555 1_555
O7 Ca1 1_555 1_555
H13 O7 1_555 1_555
H14 O7 1_555 1_555
O8 Ca1 1_555 1_555
H15 O8 1_555 1_555
H16 O8 1_555 1_555
O4B Ca1 1_555 1_555
O5B Ca1 1_555 1_555
Ca1B O4 1_555 1_555
H10B O5B 1_555 1_555
C2 O2 1_555 1_555
C3 O3 1_555 1_555
C4 O4 1_555 1_555
O5 Ca1B 1_555 1_555

#END
