
#######################################################################
#
#                 Cambridge Crystallographic Data Centre
#                                CCDC 
#
#######################################################################
#
# If this CIF has been generated from an entry in the Cambridge 
# Structural Database, then it will include bibliographic, chemical, 
# crystal, experimental, refinement or atomic coordinate data resulting 
# from the CCDC's data processing and validation procedures.
#
#######################################################################

data_EKUJOJ
_symmetry_cell_setting           triclinic
_symmetry_space_group_name_H-M   'P -1'
_symmetry_Int_Tables_number      2
_space_group_name_Hall           '-P 1'
loop_
_symmetry_equiv_pos_site_id
_symmetry_equiv_pos_as_xyz
1 x,y,z
2 -x,-y,-z
_cell_length_a                   5.9295(12)
_cell_length_b                   8.9490(18)
_cell_length_c                   10.386(2)
_cell_angle_alpha                88.93(3)
_cell_angle_beta                 80.34(3)
_cell_angle_gamma                78.39(3)
_cell_volume                     532.118
loop_
_atom_site_label
_atom_site_type_symbol
_atom_site_fract_x
_atom_site_fract_y
_atom_site_fract_z
Ca1 Ca 0.71625(11) 0.65552(8) 0.96826(6)
O1 O 0.4237(4) 0.7970(3) 0.8490(2)
O2 O 0.6416(4) 0.4138(3) 0.8935(3)
O3 O 1.1228(4) 0.4953(3) 0.8641(2)
N1 N 0.8430(4) 0.6742(3) 0.7254(2)
O4 O 1.4180(4) 0.4661(3) 0.6959(2)
O5 O 0.9850(5) 0.8175(3) 0.9808(3)
O6 O 0.3126(5) 0.8957(4) 0.6655(3)
C1 C 1.0562(5) 0.6130(4) 0.6654(3)
N2 N 0.9869(5) 0.7276(4) 0.4635(3)
C2 C 1.1302(6) 0.6417(4) 0.5345(3)
C3 C 0.6986(5) 0.7593(4) 0.6554(3)
C4 C 0.7706(6) 0.7854(5) 0.5242(3)
C5 C 0.4573(5) 0.8236(4) 0.7275(3)
O7 O 0.5293(5) 0.8718(3) 1.1126(3)
H1 H 0.3942 0.8650 1.1409
C6 C 1.2135(5) 0.5167(4) 0.7481(3)
H3 H 0.981(8) 0.862(6) 1.051(5)
H4 H 0.698(8) 0.847(5) 0.473(4)
H5 H 0.764(14) 0.356(9) 0.876(7)
H6 H 1.115(9) 0.804(5) 0.934(5)
H7 H 1.301(9) 0.612(6) 0.492(5)
H9 H 0.621(9) 0.436(6) 0.831(5)
H10 H 0.52(2) 0.949(14) 1.141(11)
O2A O 0.3584(4) 0.5862(3) 1.1065(3)
O3A O 0.8772(4) 0.5047(3) 1.1359(2)
Ca1A Ca 0.28375(11) 0.34448(8) 1.03174(6)
Ca1A_2 Ca 1.28375(11) 0.34448(8) 1.03174(6)
O8 O 0.9267(5) 0.1053(4) 0.7661(3)
H2 H 0.946(7) 0.159(5) 0.714(4)
H8 H 1.119(13) 0.043(8) 0.739(6)
loop_
_geom_bond_atom_site_label_1
_geom_bond_atom_site_label_2
_geom_bond_site_symmetry_1
_geom_bond_site_symmetry_2
Ca1 O1 1_555 1_555
O1 C5 1_555 1_555
O2 Ca1 1_555 1_555
O3 Ca1 1_555 1_555
N1 Ca1 1_555 1_555
O4 C6 1_555 1_555
O5 Ca1 1_555 1_555
O6 C5 1_555 1_555
C1 N1 1_555 1_555
N2 C2 1_555 1_555
C2 C1 1_555 1_555
C3 N1 1_555 1_555
C4 N2 1_555 1_555
C5 C3 1_555 1_555
O7 Ca1 1_555 1_555
H1 O7 1_555 1_555
O8 H2 1_555 1_555
C6 O3 1_555 1_555
H3 O5 1_555 1_555
H4 C4 1_555 1_555
H5 O2 1_555 1_555
H6 O5 1_555 1_555
H7 C2 1_555 1_555
H8 O8 1_555 1_555
H9 O2 1_555 1_555
H10 O7 1_555 1_555
O2A Ca1 1_555 1_555
O3A Ca1 1_555 1_555
Ca1A O2 1_555 1_555
Ca1A_2 O3 1_555 1_555
C1 C6 1_555 1_555
C3 C4 1_555 1_555
O2A Ca1A 1_555 1_555
O3A Ca1A_2 1_555 1_555

#END
