
#######################################################################
#
#                 Cambridge Crystallographic Data Centre
#                                CCDC 
#
#######################################################################
#
# If this CIF has been generated from an entry in the Cambridge 
# Structural Database, then it will include bibliographic, chemical, 
# crystal, experimental, refinement or atomic coordinate data resulting 
# from the CCDC's data processing and validation procedures.
#
#######################################################################

data_EKUNON
_symmetry_cell_setting           triclinic
_symmetry_space_group_name_H-M   'P -1'
_symmetry_Int_Tables_number      2
_space_group_name_Hall           '-P 1'
loop_
_symmetry_equiv_pos_site_id
_symmetry_equiv_pos_as_xyz
1 x,y,z
2 -x,-y,-z
_cell_length_a                   6.9975(2)
_cell_length_b                   7.0573(2)
_cell_length_c                   10.0967(3)
_cell_angle_alpha                83.326(2)
_cell_angle_beta                 86.2540(10)
_cell_angle_gamma                69.2320(10)
_cell_volume                     462.897
loop_
_atom_site_label
_atom_site_type_symbol
_atom_site_fract_x
_atom_site_fract_y
_atom_site_fract_z
Cd1 Cd 0.26739(4) 0.26309(4) 0.04217(3)
O1 O 0.2480(4) 0.5346(4) 0.1704(3)
O2 O 0.3981(4) 0.4140(4) -0.1456(3)
O3 O 0.0822(4) 0.6110(4) -0.1062(3)
O4 O 0.3778(4) 0.8815(5) -0.0609(3)
O5 O 0.1245(4) 1.1630(4) -0.1187(3)
O6 O 0.2800(4) 1.0772(4) -0.7487(3)
O7 O 0.2249(5) 1.3176(4) -0.6097(3)
C1 C 0.2584(5) 0.7187(5) -0.2912(4)
C2 C 0.2403(5) 0.9193(5) -0.2756(4)
C3 C 0.2353(5) 1.0536(5) -0.3882(4)
H1 H 0.2189 1.1881 -0.3787
C4 C 0.2547(5) 0.9893(5) -0.5152(4)
C5 C 0.2759(6) 0.7897(6) -0.5304(4)
H2 H 0.2899 0.7462 -0.6151
C6 C 0.2760(6) 0.6556(6) -0.4182(4)
H3 H 0.2880 0.5224 -0.4281
C7 C 0.2453(5) 0.5728(5) -0.1724(4)
C8 C 0.2460(5) 0.9903(5) -0.1422(4)
C9 C 0.2550(5) 1.1319(6) -0.6359(4)
H4 H 0.355(8) 0.570(7) 0.159(5)
H5 H 0.161(8) 0.627(8) 0.148(5)
H6 H 0.231(7) 1.387(8) -0.680(5)
O3A O -0.0822(4) 0.3890(4) 0.1062(3)
O4A O 0.6222(4) 0.1185(5) 0.0609(3)
O5_2 O 0.1245(4) 0.1630(4) -0.1187(3)
O6_2 O 0.2800(4) 0.0772(4) 0.2513(3)
Cd1A Cd -0.26739(4) 0.73691(4) -0.04217(3)
Cd1A_2 Cd 0.73261(4) 0.73691(4) -0.04217(3)
Cd1_2 Cd 0.26739(4) 1.26309(4) 0.04217(3)
Cd1_3 Cd 0.26739(4) 1.26309(4) -0.95783(3)
loop_
_geom_bond_atom_site_label_1
_geom_bond_atom_site_label_2
_geom_bond_site_symmetry_1
_geom_bond_site_symmetry_2
Cd1 O1 1_555 1_555
O1 H4 1_555 1_555
O2 Cd1 1_555 1_555
O3 Cd1 1_555 1_555
O4 C8 1_555 1_555
O5 C8 1_555 1_555
O6 C9 1_555 1_555
O7 C9 1_555 1_555
C1 C2 1_555 1_555
C2 C3 1_555 1_555
C3 H1 1_555 1_555
C4 C3 1_555 1_555
C5 C4 1_555 1_555
H2 C5 1_555 1_555
C6 C1 1_555 1_555
H3 C6 1_555 1_555
C7 O2 1_555 1_555
C8 C2 1_555 1_555
C9 C4 1_555 1_555
H5 O1 1_555 1_555
H6 O7 1_555 1_555
O3A Cd1 1_555 1_555
O4A Cd1 1_555 1_555
O5_2 Cd1 1_555 1_555
O6_2 Cd1 1_555 1_555
Cd1A O3 1_555 1_555
Cd1A_2 O4 1_555 1_555
Cd1_2 O5 1_555 1_555
Cd1_3 O6 1_555 1_555
O3 C7 1_555 1_555
C1 C7 1_555 1_555
C5 C6 1_555 1_555
O3A Cd1A 1_555 1_555

#END
