
#######################################################################
#
#                 Cambridge Crystallographic Data Centre
#                                CCDC 
#
#######################################################################
#
# If this CIF has been generated from an entry in the Cambridge 
# Structural Database, then it will include bibliographic, chemical, 
# crystal, experimental, refinement or atomic coordinate data resulting 
# from the CCDC's data processing and validation procedures.
#
#######################################################################

data_EKUQAD
_symmetry_cell_setting           triclinic
_symmetry_space_group_name_H-M   'P -1'
_symmetry_Int_Tables_number      2
_space_group_name_Hall           '-P 1'
loop_
_symmetry_equiv_pos_site_id
_symmetry_equiv_pos_as_xyz
1 x,y,z
2 -x,-y,-z
_cell_length_a                   9.4126(19)
_cell_length_b                   9.941(2)
_cell_length_c                   12.019(2)
_cell_angle_alpha                66.53(3)
_cell_angle_beta                 76.86(3)
_cell_angle_gamma                86.97(3)
_cell_volume                     1003.68
loop_
_atom_site_label
_atom_site_type_symbol
_atom_site_fract_x
_atom_site_fract_y
_atom_site_fract_z
Pb1 Pb 0.0000 0.0000 1.0000
Pb2 Pb 0.02010(4) 0.34416(4) 0.68342(4)
I1 I -0.16773(9) 0.05359(9) 0.77276(9)
I2 I 0.27143(9) 0.12826(10) 0.77061(9)
I3 I -0.05409(10) 0.33031(9) 0.95331(9)
I4 I 0.20929(11) 0.41508(13) 0.40422(9)
N1 N 0.3555(8) 0.8461(9) 0.5845(8)
H1 H 0.3872 0.8188 0.6563
O1 O 0.1783(9) 0.5912(10) 0.6448(10)
C1 C 0.4021(11) 0.7330(12) 0.5291(13)
H2 H 0.3723 0.7613 0.4510
H3 H 0.5075 0.7271 0.5129
C2 C 0.3321(14) 0.5872(14) 0.6192(16)
H4 H 0.3624 0.5140 0.5851
H5 H 0.3648 0.5585 0.6962
C3 C 0.1318(14) 0.6937(17) 0.6998(15)
H6 H 0.1633 0.6636 0.7773
H7 H 0.0260 0.6938 0.7188
C4 C 0.1916(10) 0.8444(13) 0.6162(14)
H8 H 0.1593 0.9110 0.6570
H9 H 0.1556 0.8774 0.5405
C5 C 0.4189(10) 0.9942(11) 0.4997(11)
H10 H 0.3657 1.0669 0.5257
H11 H 0.4095 1.0142 0.4159
Pb2A Pb -0.02010(4) -0.34416(4) 1.31658(4)
Pb2A_2 Pb -0.02010(4) 0.65584(4) 0.31658(4)
Pb2A_3 Pb 0.97990(4) 1.65584(4) 0.31658(4)
I1A I 0.16773(9) -0.05359(9) 1.22724(9)
I2A I -0.27143(9) -0.12826(10) 1.22939(9)
I3A I 0.05409(10) -0.33031(9) 1.04669(9)
I4A I -0.20929(11) 0.58492(13) 0.59578(9)
I4A_2 I -0.20929(11) -0.41508(13) 1.59578(9)
I4_2 I 0.20929(11) -0.58492(13) 1.40422(9)
N1A N 0.6445(8) 1.1539(9) 0.4155(8)
H1A H 0.6128 1.1812 0.3437
O1A O 0.8217(9) 1.4088(10) 0.3552(10)
O1A_2 O -0.1783(9) -0.5912(10) 1.3552(10)
C1A C 0.5979(11) 1.2670(12) 0.4709(13)
H2A H 0.6277 1.2387 0.5490
H3A H 0.4925 1.2729 0.4871
C2A C 0.6679(14) 1.4128(14) 0.3808(16)
H4A H 0.6376 1.4860 0.4149
H5A H 0.6352 1.4415 0.3038
C3A C 0.8682(14) 1.3063(17) 0.3002(15)
H6A H 0.8367 1.3364 0.2227
H7A H 0.9740 1.3062 0.2812
C4A C 0.8084(10) 1.1556(13) 0.3838(14)
H8A H 0.8407 1.0890 0.3430
H9A H 0.8444 1.1226 0.4595
C5A C 0.5811(10) 1.0058(11) 0.5003(11)
H10A H 0.6343 0.9331 0.4743
H11A H 0.5905 0.9858 0.5841
N2 N 0.5398(11) 0.7128(11) 0.9544(10)
O2 O 0.4758(12) 0.7518(12) 0.7767(10)
C6 C 0.4582(14) 0.7658(15) 0.8727(16)
H12 H 0.3792 0.8193 0.8916
C7 C 0.498(3) 0.746(4) 1.063(2)
H13 H 0.4110 0.8007 1.0594
H14 H 0.5754 0.8040 1.0651
H15 H 0.4810 0.6568 1.1361
C8 C 0.6656(18) 0.634(2) 0.939(2)
H16 H 0.6789 0.6209 0.8623
H17 H 0.6547 0.5391 1.0072
H18 H 0.7490 0.6865 0.9374
loop_
_geom_bond_atom_site_label_1
_geom_bond_atom_site_label_2
_geom_bond_site_symmetry_1
_geom_bond_site_symmetry_2
Pb1 I1 1_555 1_555
Pb2 I1 1_555 1_555
I2 Pb1 1_555 1_555
I3 Pb1 1_555 1_555
I4 Pb2 1_555 1_555
N1 H1 1_555 1_555
N2 C6 1_555 1_555
O1 Pb2 1_555 1_555
O2 C6 1_555 1_555
C1 N1 1_555 1_555
H2 C1 1_555 1_555
H3 C1 1_555 1_555
C2 O1 1_555 1_555
H4 C2 1_555 1_555
H5 C2 1_555 1_555
C3 O1 1_555 1_555
H6 C3 1_555 1_555
H7 C3 1_555 1_555
C4 N1 1_555 1_555
H8 C4 1_555 1_555
H9 C4 1_555 1_555
C5 N1 1_555 1_555
H10 C5 1_555 1_555
H11 C5 1_555 1_555
C6 H12 1_555 1_555
C7 N2 1_555 1_555
H13 C7 1_555 1_555
H14 C7 1_555 1_555
H15 C7 1_555 1_555
C8 N2 1_555 1_555
H16 C8 1_555 1_555
H17 C8 1_555 1_555
H18 C8 1_555 1_555
Pb2A I1A 1_555 1_555
Pb2A_2 I4 1_555 1_555
Pb2A_3 O1A 1_555 1_555
I1A Pb1 1_555 1_555
I2A Pb1 1_555 1_555
I3A Pb1 1_555 1_555
I4A Pb2 1_555 1_555
I4A_2 Pb2A 1_555 1_555
I4_2 Pb2A 1_555 1_555
N1A H1A 1_555 1_555
O1A C2A 1_555 1_555
O1A_2 Pb2A 1_555 1_555
C1A N1A 1_555 1_555
H2A C1A 1_555 1_555
H3A C1A 1_555 1_555
C2A C1A 1_555 1_555
H4A C2A 1_555 1_555
H5A C2A 1_555 1_555
C3A O1A 1_555 1_555
H6A C3A 1_555 1_555
H7A C3A 1_555 1_555
C4A N1A 1_555 1_555
H8A C4A 1_555 1_555
H9A C4A 1_555 1_555
C5A C5 1_555 1_555
H10A C5A 1_555 1_555
H11A C5A 1_555 1_555
Pb2 I2 1_555 1_555
Pb2 I3 1_555 1_555
C1 C2 1_555 1_555
C3 C4 1_555 1_555
Pb2A I2A 1_555 1_555
Pb2A I3A 1_555 1_555
Pb2A_2 I4A 1_555 1_555
N1A C5A 1_555 1_555
C3A C4A 1_555 1_555

#END
