
#######################################################################
#
#                 Cambridge Crystallographic Data Centre
#                                CCDC 
#
#######################################################################
#
# If this CIF has been generated from an entry in the Cambridge 
# Structural Database, then it will include bibliographic, chemical, 
# crystal, experimental, refinement or atomic coordinate data resulting 
# from the CCDC's data processing and validation procedures.
#
#######################################################################

data_ELACID
_symmetry_cell_setting           triclinic
_symmetry_space_group_name_H-M   'P -1'
_symmetry_Int_Tables_number      2
_space_group_name_Hall           '-P 1'
loop_
_symmetry_equiv_pos_site_id
_symmetry_equiv_pos_as_xyz
1 x,y,z
2 -x,-y,-z
_cell_length_a                   5.3992(19)
_cell_length_b                   10.540(4)
_cell_length_c                   11.078(4)
_cell_angle_alpha                70.637(6)
_cell_angle_beta                 84.931(6)
_cell_angle_gamma                87.349(7)
_cell_volume                     592.341
loop_
_atom_site_label
_atom_site_type_symbol
_atom_site_fract_x
_atom_site_fract_y
_atom_site_fract_z
Ag1 Ag 0.70387(7) 0.59795(3) 0.51636(3)
S1 S 0.5840(2) 0.40640(10) 0.73286(10)
N1 N 0.4109(6) 0.2216(3) 0.6555(3)
C1 C 0.3786(7) 0.0946(4) 0.6592(4)
C2 C 0.5114(8) -0.0098(4) 0.7405(4)
H1 H 0.4891 -0.0980 0.7439
C3 C 0.6765(8) 0.0175(4) 0.8161(4)
N2 N 0.7049(6) 0.1442(3) 0.8144(3)
C4 C 0.5702(7) 0.2388(4) 0.7343(4)
C5 C 0.8123(8) 0.3963(4) 0.8463(4)
H2 H 0.8819 0.4846 0.8276
H3 H 0.9466 0.3359 0.8349
C6 C 0.7070(8) 0.3471(4) 0.9852(4)
H4 H 0.6625 0.2536 1.0076
H5 H 0.8362 0.3512 1.0393
C7 C 0.4791(8) 0.4263(4) 1.0154(4)
H6 H 0.4267 0.3881 1.1060
H7 H 0.3445 0.4153 0.9675
C8 C 0.2017(8) 0.0710(5) 0.5745(4)
H8 H 0.2699 0.1042 0.4870
H9 H 0.1731 -0.0236 0.5982
H10 H 0.0472 0.1172 0.5833
C9 C 0.8319(8) -0.0899(4) 0.9029(5)
H11 H 0.7599 -0.1123 0.9897
H12 H 0.8379 -0.1684 0.8770
H13 H 0.9973 -0.0578 0.8978
N3 N 1.1608(7) 0.6837(3) 0.6335(3)
O1 O 1.3734(6) 0.7159(3) 0.6459(3)
O2 O 1.1348(6) 0.6208(3) 0.5556(3)
O3 O 0.9772(6) 0.7116(3) 0.6943(3)
C7A C 0.5209(8) 0.5737(4) 0.9846(4)
C6A C 0.2930(8) 0.6529(4) 1.0148(4)
C5A C 0.1877(8) 0.6037(4) 1.1537(4)
S1A S 0.4160(2) 0.59360(10) 1.26714(10)
C4A C 0.4298(7) 0.7612(4) 1.2657(4)
N1A N 0.5891(6) 0.7784(3) 1.3445(3)
C1A C 0.6214(7) 0.9054(4) 1.3408(4)
C2A C 0.4886(8) 1.0098(4) 1.2595(4)
H1A H 0.5109 1.0980 1.2561
C3A C 0.3235(8) 0.9825(4) 1.1839(4)
N2A N 0.2951(6) 0.8558(3) 1.1856(3)
C9A C 0.1681(8) 1.0899(4) 1.0971(5)
H11A H 0.2401 1.1123 1.0103
H12A H 0.1621 1.1684 1.1230
H13A H 0.0027 1.0578 1.1022
C8A C 0.7983(8) 0.9290(5) 1.4255(4)
H8A H 0.7301 0.8958 1.5130
H9A H 0.8269 1.0236 1.4018
H10A H 0.9528 0.8828 1.4167
H2A H 0.1181 0.5154 1.1724
H3A H 0.0534 0.6641 1.1651
H4A H 0.3375 0.7464 0.9924
H5A H 0.1638 0.6488 0.9607
H6A H 0.5733 0.6119 0.8940
H7A H 0.6555 0.5847 1.0325
Ag1A Ag 0.29613(7) 0.40205(3) 1.48364(3)
N3A N -0.1608(7) 0.3163(3) 1.3665(3)
O1A O -0.3734(6) 0.2841(3) 1.3541(3)
O2A O -0.1348(6) 0.3792(3) 1.4444(3)
O3A O 0.0228(6) 0.2884(3) 1.3057(3)
Ag1A_2 Ag 0.29613(7) 0.40205(3) 0.48364(3)
N1A_2 N 0.5891(6) 0.7784(3) 0.3445(3)
Ag1_2 Ag 0.70387(7) 0.59795(3) 1.51636(3)
N1_2 N 0.4109(6) 0.2216(3) 1.6555(3)
loop_
_geom_bond_atom_site_label_1
_geom_bond_atom_site_label_2
_geom_bond_site_symmetry_1
_geom_bond_site_symmetry_2
Ag1 S1 1_555 1_555
S1 C4 1_555 1_555
N1 C1 1_555 1_555
C1 C2 1_555 1_555
C2 H1 1_555 1_555
C3 C2 1_555 1_555
N2 C3 1_555 1_555
C4 N1 1_555 1_555
C5 S1 1_555 1_555
H2 C5 1_555 1_555
H3 C5 1_555 1_555
C6 C5 1_555 1_555
H4 C6 1_555 1_555
H5 C6 1_555 1_555
C7 C6 1_555 1_555
H6 C7 1_555 1_555
H7 C7 1_555 1_555
C8 C1 1_555 1_555
H8 C8 1_555 1_555
H9 C8 1_555 1_555
H10 C8 1_555 1_555
C9 C3 1_555 1_555
H11 C9 1_555 1_555
H12 C9 1_555 1_555
H13 C9 1_555 1_555
N3 O1 1_555 1_555
O2 Ag1 1_555 1_555
O3 N3 1_555 1_555
C7A C7 1_555 1_555
C6A C7A 1_555 1_555
C5A C6A 1_555 1_555
S1A C5A 1_555 1_555
C4A S1A 1_555 1_555
N1A C4A 1_555 1_555
C1A N1A 1_555 1_555
C2A C1A 1_555 1_555
H1A C2A 1_555 1_555
C3A C2A 1_555 1_555
N2A C4A 1_555 1_555
C9A C3A 1_555 1_555
H11A C9A 1_555 1_555
H12A C9A 1_555 1_555
H13A C9A 1_555 1_555
C8A C1A 1_555 1_555
H8A C8A 1_555 1_555
H9A C8A 1_555 1_555
H10A C8A 1_555 1_555
H2A C5A 1_555 1_555
H3A C5A 1_555 1_555
H4A C6A 1_555 1_555
H5A C6A 1_555 1_555
H6A C7A 1_555 1_555
H7A C7A 1_555 1_555
Ag1A S1A 1_555 1_555
N3A O1A 1_555 1_555
O2A Ag1A 1_555 1_555
O3A N3A 1_555 1_555
Ag1A_2 Ag1 1_555 1_555
N1A_2 Ag1 1_555 1_555
Ag1_2 N1A 1_555 1_555
N1_2 Ag1A 1_555 1_555
N1 Ag1A_2 1_555 1_555
N2 C4 1_555 1_555
N3 O2 1_555 1_555
C3A N2A 1_555 1_555
Ag1A Ag1_2 1_555 1_555
N3A O2A 1_555 1_555

#END
