
#######################################################################
#
#                 Cambridge Crystallographic Data Centre
#                                CCDC 
#
#######################################################################
#
# If this CIF has been generated from an entry in the Cambridge 
# Structural Database, then it will include bibliographic, chemical, 
# crystal, experimental, refinement or atomic coordinate data resulting 
# from the CCDC's data processing and validation procedures.
#
#######################################################################

data_ELADAW01
_symmetry_cell_setting           monoclinic
_symmetry_space_group_name_H-M   'P 21/c'
_symmetry_Int_Tables_number      14
_space_group_name_Hall           '-P 2ybc'
loop_
_symmetry_equiv_pos_site_id
_symmetry_equiv_pos_as_xyz
1 x,y,z
2 -x,1/2+y,1/2-z
3 -x,-y,-z
4 x,1/2-y,1/2+z
_cell_length_a                   13.732(3)
_cell_length_b                   17.188(3)
_cell_length_c                   14.127(3)
_cell_angle_alpha                90
_cell_angle_beta                 104.57(3)
_cell_angle_gamma                90
_cell_volume                     3227.11
loop_
_atom_site_label
_atom_site_type_symbol
_atom_site_fract_x
_atom_site_fract_y
_atom_site_fract_z
Cu1 Cu 0.40877(2) 0.194529(16) 0.88513(2)
Cu2 Cu 1.05085(2) 0.307224(16) 0.58803(2)
O1 O 0.25738(16) 0.22774(12) 0.79725(17)
O2 O 0.49033(13) 0.22298(10) 0.79227(13)
O3 O 0.60334(14) 0.17325(10) 0.91934(13)
O4 O 0.43486(14) 0.29488(9) 0.95190(14)
O5 O 0.30404(15) 0.36687(11) 0.87148(15)
O6 O 0.98570(13) 0.26548(10) 0.68814(12)
O7 O 0.87223(14) 0.32179(10) 0.56812(13)
O8 O 1.02487(15) 0.21205(10) 0.51254(13)
O9 O 1.15876(15) 0.16267(10) 0.61854(14)
N1 N 0.38277(16) 0.13927(11) 1.00193(15)
N2 N 0.39021(16) 0.08613(11) 0.83226(16)
N3 N 1.09284(16) 0.36834(11) 0.48596(15)
N4 N 1.09368(15) 0.40423(11) 0.66450(15)
C1 C 0.5461(2) 0.42805(15) 1.02078(19)
C2 C 0.4010(2) 0.50453(14) 0.9460(2)
C3 C 0.4473(2) 0.43150(13) 0.96610(17)
C4 C 0.3892(2) 0.35920(14) 0.92644(18)
C5 C 0.3823(2) 0.17219(16) 1.0877(2)
C6 C 0.3783(2) 0.12865(18) 1.1689(2)
C7 C 0.3739(2) 0.04879(17) 1.1615(2)
C8 C 0.3733(2) 0.01368(16) 1.0727(2)
C9 C 0.37823(18) 0.06057(14) 0.99407(19)
C10 C 0.37653(19) 0.03101(14) 0.89562(19)
C11 C 0.3627(2) -0.04685(15) 0.8682(2)
C12 C 0.3600(2) -0.06626(16) 0.7727(2)
C13 C 0.3730(2) -0.00996(16) 0.7078(2)
C14 C 0.3872(2) 0.06621(16) 0.7400(2)
C15 C 0.5806(2) 0.20467(13) 0.83764(18)
C16 C 0.66161(19) 0.22373(13) 0.78677(18)
C17 C 0.6405(2) 0.23454(14) 0.68587(18)
C18 C 0.7152(2) 0.25389(14) 0.64064(19)
C19 C 0.81405(19) 0.26290(13) 0.69631(18)
C20 C 0.8360(2) 0.25255(14) 0.79741(18)
C21 C 0.7605(2) 0.23231(14) 0.84218(19)
C22 C 0.89521(19) 0.28515(13) 0.64701(18)
C23 C 1.0959(2) 0.41616(15) 0.75895(19)
C24 C 1.1207(2) 0.48760(16) 0.8042(2)
C25 C 1.1448(2) 0.54778(15) 0.7501(2)
C26 C 1.1434(2) 0.53661(15) 0.6527(2)
C27 C 1.11799(19) 0.46367(13) 0.61202(18)
C28 C 1.11381(18) 0.44436(14) 0.50935(19)
C29 C 1.1301(2) 0.49704(15) 0.4410(2)
C30 C 1.1224(2) 0.47211(16) 0.3459(2)
C31 C 1.1028(2) 0.39496(17) 0.3230(2)
C32 C 1.0878(2) 0.34454(15) 0.39403(19)
C33 C 1.0792(2) 0.15545(14) 0.55484(18)
C34 C 1.0387(2) 0.07493(14) 0.52491(18)
C35 C 0.9440(2) 0.06470(14) 0.45995(19)
C36 C 1.0938(2) 0.00944(15) 0.56460(19)
H1 H 0.234(3) 0.2178(19) 0.738(2)
H2 H 0.256(2) 0.276(2) 0.807(2)
H3 H 0.580(2) 0.3782(18) 1.034(2)
H4 H 0.331(2) 0.5052(14) 0.9094(19)
H5 H 0.390(2) 0.2265(16) 1.089(2)
H6 H 0.376(2) 0.1552(17) 1.222(2)
H7 H 0.371(2) 0.0198(16) 1.216(2)
H8 H 0.373(2) -0.0415(18) 1.067(2)
H9 H 0.355(3) -0.0835(19) 0.908(2)
H10 H 0.347(3) -0.118(2) 0.759(3)
H11 H 0.371(3) -0.0220(18) 0.647(3)
H12 H 0.400(2) 0.1054(15) 0.697(2)
H13 H 0.573(2) 0.2288(14) 0.6508(19)
H14 H 0.696(2) 0.2652(16) 0.573(2)
H15 H 0.898(2) 0.2582(16) 0.834(2)
H16 H 0.778(2) 0.2268(15) 0.912(2)
H17 H 1.075(2) 0.3721(18) 0.792(2)
H18 H 1.121(2) 0.4926(16) 0.869(2)
H19 H 1.162(2) 0.5927(16) 0.782(2)
H20 H 1.162(2) 0.5817(16) 0.616(2)
H21 H 1.151(3) 0.548(2) 0.460(2)
H22 H 1.140(2) 0.5079(16) 0.302(2)
H23 H 1.099(2) 0.3771(17) 0.263(2)
H24 H 1.076(2) 0.2919(16) 0.383(2)
H25 H 0.902(2) 0.1081(15) 0.4318(19)
H26 H 1.158(2) 0.0168(17) 0.607(2)
Cu1B Cu 0.59123(2) 0.805471(16) 1.11487(2)
Cu2B Cu -0.05085(2) 0.692776(16) 1.41197(2)
Cu2B_2 Cu 0.94915(2) -0.307224(16) 0.41197(2)
O1B O 0.74262(16) 0.77226(12) 1.20275(17)
O2B O 0.50967(13) 0.77702(10) 1.20773(13)
O3B O 0.39666(14) 0.82675(10) 1.08066(13)
O4B O 0.56514(14) 0.70512(9) 1.04810(14)
O5B O 0.69596(15) 0.63313(11) 1.12852(15)
O6B O 0.01430(13) 0.73452(10) 1.31186(12)
O7B O 0.12777(14) 0.67821(10) 1.43188(13)
O8B O 0.97513(15) -0.21205(10) 0.48746(13)
O8B_2 O -0.02487(15) 0.78795(10) 1.48746(13)
O9B O 0.84124(15) -0.16267(10) 0.38146(14)
N1B N 0.61723(16) 0.86073(11) 0.99807(15)
N2B N 0.60979(16) 0.91387(11) 1.16774(16)
N3B N -0.09284(16) 0.63166(11) 1.51404(15)
N4B N -0.09368(15) 0.59577(11) 1.33550(15)
C1B C 0.4539(2) 0.57195(15) 0.97922(19)
C2B C 0.5990(2) 0.49547(14) 1.0540(2)
C3B C 0.5527(2) 0.56850(13) 1.03390(17)
C4B C 0.6108(2) 0.64080(14) 1.07356(18)
C5B C 0.6177(2) 0.82781(16) 0.9123(2)
C6B C 0.6217(2) 0.87135(18) 0.8311(2)
C7B C 0.6261(2) 0.95121(17) 0.8385(2)
C8B C 0.6267(2) 0.98632(16) 0.9273(2)
C9B C 0.62177(18) 0.93943(14) 1.00593(19)
C10B C 0.62347(19) 0.96899(14) 1.10438(19)
C11B C 0.6373(2) 1.04685(15) 1.1318(2)
C12B C 0.6400(2) 1.06626(16) 1.2273(2)
C13B C 0.6270(2) 1.00996(16) 1.2922(2)
C14B C 0.6128(2) 0.93379(16) 1.2600(2)
C15B C 0.4194(2) 0.79533(13) 1.16236(18)
C16B C 0.33839(19) 0.77627(13) 1.21323(18)
C17B C 0.3595(2) 0.76546(14) 1.31413(18)
C18B C 0.2848(2) 0.74611(14) 1.35936(19)
C19B C 0.18595(19) 0.73710(13) 1.30369(18)
C20B C 0.1640(2) 0.74745(14) 1.20259(18)
C21B C 0.2395(2) 0.76769(14) 1.15782(19)
C22B C 0.10479(19) 0.71485(13) 1.35299(18)
C23B C -0.0959(2) 0.58384(15) 1.24105(19)
C24B C -0.1207(2) 0.51240(16) 1.1958(2)
C25B C -0.1448(2) 0.45222(15) 1.2499(2)
C26B C -0.1434(2) 0.46339(15) 1.3473(2)
C27B C -0.11799(19) 0.53633(13) 1.38798(18)
C28B C -0.11381(18) 0.55564(14) 1.49065(19)
C29B C -0.1301(2) 0.50296(15) 1.5590(2)
C30B C -0.1224(2) 0.52789(16) 1.6541(2)
C31B C -0.1028(2) 0.60504(17) 1.6770(2)
C32B C -0.0878(2) 0.65546(15) 1.60597(19)
C33B C 0.9208(2) -0.15545(14) 0.44516(18)
C34B C 0.9613(2) -0.07493(14) 0.47509(18)
C35B C 1.0560(2) -0.06470(14) 0.54005(19)
C36B C 0.9062(2) -0.00944(15) 0.43540(19)
H1B H 0.766(3) 0.7822(19) 1.262(2)
H2B H 0.744(2) 0.724(2) 1.193(2)
H3B H 0.420(2) 0.6218(18) 0.966(2)
H4B H 0.669(2) 0.4948(14) 1.0906(19)
H5B H 0.610(2) 0.7735(16) 0.911(2)
H6B H 0.624(2) 0.8448(17) 0.778(2)
H7B H 0.629(2) 0.9802(16) 0.784(2)
H8B H 0.627(2) 1.0415(18) 0.933(2)
H9B H 0.645(3) 1.0835(19) 1.092(2)
H10B H 0.653(3) 1.118(2) 1.241(3)
H11B H 0.629(3) 1.0220(18) 1.353(3)
H12B H 0.600(2) 0.8946(15) 1.303(2)
H13B H 0.427(2) 0.7712(14) 1.3492(19)
H14B H 0.304(2) 0.7348(16) 1.427(2)
H15B H 0.102(2) 0.7418(16) 1.166(2)
H16B H 0.222(2) 0.7732(15) 1.088(2)
H17B H -0.075(2) 0.6279(18) 1.208(2)
H18B H -0.121(2) 0.5074(16) 1.131(2)
H19B H -0.162(2) 0.4073(16) 1.218(2)
H20B H -0.162(2) 0.4183(16) 1.384(2)
H21B H -0.151(3) 0.452(2) 1.540(2)
H22B H -0.140(2) 0.4921(16) 1.698(2)
H23B H -0.099(2) 0.6229(17) 1.737(2)
H24B H -0.076(2) 0.7081(16) 1.617(2)
H25B H 1.098(2) -0.1081(15) 0.5682(19)
H26B H 0.842(2) -0.0168(17) 0.393(2)
loop_
_geom_bond_atom_site_label_1
_geom_bond_atom_site_label_2
_geom_bond_site_symmetry_1
_geom_bond_site_symmetry_2
Cu1 O1 1_555 1_555
Cu2 O6 1_555 1_555
O1 H1 1_555 1_555
O2 Cu1 1_555 1_555
O3 C15 1_555 1_555
O4 Cu1 1_555 1_555
O5 C4 1_555 1_555
O6 C22 1_555 1_555
O7 Cu2 1_555 1_555
O8 Cu2 1_555 1_555
O9 C33 1_555 1_555
N1 Cu1 1_555 1_555
N2 Cu1 1_555 1_555
N3 Cu2 1_555 1_555
N4 Cu2 1_555 1_555
C1 C3 1_555 1_555
C2 C3 1_555 1_555
C3 C4 1_555 1_555
C4 O4 1_555 1_555
C5 N1 1_555 1_555
C6 C5 1_555 1_555
C7 C6 1_555 1_555
C8 C7 1_555 1_555
C9 N1 1_555 1_555
C10 N2 1_555 1_555
C11 C10 1_555 1_555
C12 C11 1_555 1_555
C13 C12 1_555 1_555
C14 N2 1_555 1_555
C15 O2 1_555 1_555
C16 C15 1_555 1_555
C17 C16 1_555 1_555
C18 C17 1_555 1_555
C19 C18 1_555 1_555
C20 C19 1_555 1_555
C21 C16 1_555 1_555
C22 O7 1_555 1_555
C23 N4 1_555 1_555
C24 C23 1_555 1_555
C25 C24 1_555 1_555
C26 C25 1_555 1_555
C27 N4 1_555 1_555
C28 N3 1_555 1_555
C29 C28 1_555 1_555
C30 C29 1_555 1_555
C31 C30 1_555 1_555
C32 N3 1_555 1_555
C33 O8 1_555 1_555
C34 C33 1_555 1_555
C35 C34 1_555 1_555
C36 C34 1_555 1_555
H2 O1 1_555 1_555
H3 C1 1_555 1_555
H4 C2 1_555 1_555
H5 C5 1_555 1_555
H6 C6 1_555 1_555
H7 C7 1_555 1_555
H8 C8 1_555 1_555
H9 C11 1_555 1_555
H10 C12 1_555 1_555
H11 C13 1_555 1_555
H12 C14 1_555 1_555
H13 C17 1_555 1_555
H14 C18 1_555 1_555
H15 C20 1_555 1_555
H16 C21 1_555 1_555
H17 C23 1_555 1_555
H18 C24 1_555 1_555
H19 C25 1_555 1_555
H20 C26 1_555 1_555
H21 C29 1_555 1_555
H22 C30 1_555 1_555
H23 C31 1_555 1_555
H24 C32 1_555 1_555
H25 C35 1_555 1_555
H26 C36 1_555 1_555
Cu1B O1B 1_555 1_555
Cu2B O6B 1_555 1_555
Cu2B_2 O8B 1_555 1_555
O1B H1B 1_555 1_555
O2B Cu1B 1_555 1_555
O3B C15B 1_555 1_555
O4B Cu1B 1_555 1_555
O5B C4B 1_555 1_555
O6B C22B 1_555 1_555
O7B Cu2B 1_555 1_555
O8B C33B 1_555 1_555
O8B_2 Cu2B 1_555 1_555
O9B C33B 1_555 1_555
N1B Cu1B 1_555 1_555
N2B Cu1B 1_555 1_555
N3B Cu2B 1_555 1_555
N4B Cu2B 1_555 1_555
C1B C2 1_555 1_555
C2B C1 1_555 1_555
C3B C1B 1_555 1_555
C4B O4B 1_555 1_555
C5B N1B 1_555 1_555
C6B C5B 1_555 1_555
C7B C6B 1_555 1_555
C8B C7B 1_555 1_555
C9B N1B 1_555 1_555
C10B N2B 1_555 1_555
C11B C10B 1_555 1_555
C12B C11B 1_555 1_555
C13B C12B 1_555 1_555
C14B N2B 1_555 1_555
C15B O2B 1_555 1_555
C16B C15B 1_555 1_555
C17B C16B 1_555 1_555
C18B C17B 1_555 1_555
C19B C18B 1_555 1_555
C20B C19B 1_555 1_555
C21B C16B 1_555 1_555
C22B O7B 1_555 1_555
C23B N4B 1_555 1_555
C24B C23B 1_555 1_555
C25B C24B 1_555 1_555
C26B C25B 1_555 1_555
C27B N4B 1_555 1_555
C28B N3B 1_555 1_555
C29B C28B 1_555 1_555
C30B C29B 1_555 1_555
C31B C30B 1_555 1_555
C32B N3B 1_555 1_555
C33B C34B 1_555 1_555
C34B C35B 1_555 1_555
C35B C36 1_555 1_555
C36B C35 1_555 1_555
H2B O1B 1_555 1_555
H3B C1B 1_555 1_555
H4B C2B 1_555 1_555
H5B C5B 1_555 1_555
H6B C6B 1_555 1_555
H7B C7B 1_555 1_555
H8B C8B 1_555 1_555
H9B C11B 1_555 1_555
H10B C12B 1_555 1_555
H11B C13B 1_555 1_555
H12B C14B 1_555 1_555
H13B C17B 1_555 1_555
H14B C18B 1_555 1_555
H15B C20B 1_555 1_555
H16B C21B 1_555 1_555
H17B C23B 1_555 1_555
H18B C24B 1_555 1_555
H19B C25B 1_555 1_555
H20B C26B 1_555 1_555
H21B C29B 1_555 1_555
H22B C30B 1_555 1_555
H23B C31B 1_555 1_555
H24B C32B 1_555 1_555
H25B C35B 1_555 1_555
H26B C36B 1_555 1_555
C8 C9 1_555 1_555
C9 C10 1_555 1_555
C13 C14 1_555 1_555
C19 C22 1_555 1_555
C20 C21 1_555 1_555
C26 C27 1_555 1_555
C27 C28 1_555 1_555
C31 C32 1_555 1_555
C2B C3B 1_555 1_555
C3B C4B 1_555 1_555
C8B C9B 1_555 1_555
C9B C10B 1_555 1_555
C13B C14B 1_555 1_555
C19B C22B 1_555 1_555
C20B C21B 1_555 1_555
C26B C27B 1_555 1_555
C27B C28B 1_555 1_555
C31B C32B 1_555 1_555
C34B C36B 1_555 1_555

#END
