
#######################################################################
#
#                 Cambridge Crystallographic Data Centre
#                                CCDC 
#
#######################################################################
#
# If this CIF has been generated from an entry in the Cambridge 
# Structural Database, then it will include bibliographic, chemical, 
# crystal, experimental, refinement or atomic coordinate data resulting 
# from the CCDC's data processing and validation procedures.
#
#######################################################################

data_ELADAW
_symmetry_cell_setting           monoclinic
_symmetry_space_group_name_H-M   'P 21/c'
_symmetry_Int_Tables_number      14
_space_group_name_Hall           '-P 2ybc'
loop_
_symmetry_equiv_pos_site_id
_symmetry_equiv_pos_as_xyz
1 x,y,z
2 x,1/2-y,1/2+z
3 -x,-y,-z
4 -x,1/2+y,1/2-z
_cell_length_a                   13.8877(3)
_cell_length_b                   17.1832(2)
_cell_length_c                   14.21170(10)
_cell_angle_alpha                90.00
_cell_angle_beta                 104.6670(10)
_cell_angle_gamma                90.00
_cell_volume                     3280.9
loop_
_atom_site_label
_atom_site_type_symbol
_atom_site_fract_x
_atom_site_fract_y
_atom_site_fract_z
Cu1 Cu -0.08750(4) 0.19546(3) 0.88405(4)
Cu2 Cu 0.55050(4) 0.30695(3) 0.59244(4)
O1 O 0.4837(2) 0.26768(17) 0.6911(2)
N1 N -0.1151(3) 0.13886(19) 0.9983(3)
O2 O -0.0059(2) 0.22466(17) 0.7934(2)
O3 O 0.1054(2) 0.17429(18) 0.9189(2)
O4 O 0.3722(2) 0.32376(17) 0.5719(2)
N2 N -0.1087(3) 0.08797(19) 0.8286(3)
N3 N 0.5945(2) 0.40448(18) 0.6670(2)
N4 N 0.5927(3) 0.36663(19) 0.4902(3)
C1 C 0.1425(3) 0.2372(2) 0.6881(3)
H1 H 0.0775 0.2320 0.6506
C2 C 0.3355(3) 0.2534(2) 0.7990(3)
H2 H 0.4005 0.2589 0.8367
C3 C 0.0831(3) 0.2059(2) 0.8381(3)
C4 C 0.3144(3) 0.2652(2) 0.6986(3)
C5 C -0.1232(3) 0.0325(2) 0.8908(3)
C6 C 0.2608(3) 0.2334(2) 0.8430(3)
H3 H 0.2762 0.2254 0.9099
C7 C 0.5880(3) 0.3421(3) 0.3987(3)
H4 H 0.5748 0.2899 0.3836
C8 C 0.6185(3) 0.4627(2) 0.6138(3)
C9 C 0.3938(3) 0.2875(2) 0.6496(3)
C10 C -0.1143(4) 0.1709(3) 1.0848(3)
H5 H -0.1104 0.2247 1.0913
C11 C 0.1638(3) 0.2254(2) 0.7888(3)
C12 C -0.1213(3) 0.0610(2) 0.9893(3)
C13 C 0.5966(3) 0.4169(3) 0.7605(3)
H6 H 0.5804 0.3765 0.7971
C14 C 0.6136(3) 0.4423(2) 0.5115(3)
C15 C -0.1260(3) 0.0134(3) 1.0668(4)
H7 H -0.1301 -0.0404 1.0594
C16 C 0.6224(4) 0.4888(3) 0.8039(3)
H8 H 0.6233 0.4965 0.8689
C17 C 0.2171(3) 0.2565(2) 0.6439(3)
H9 H 0.2019 0.2637 0.5769
C18 C 0.6020(4) 0.3914(3) 0.3274(3)
H10 H 0.5978 0.3729 0.2650
C19 C 0.6293(3) 0.4940(3) 0.4426(3)
H11 H 0.6445 0.5458 0.4589
C20 C -0.1390(4) -0.0444(3) 0.8613(4)
H12 H -0.1476 -0.0827 0.9047
C21 C -0.1192(4) 0.1262(3) 1.1642(4)
H13 H -0.1190 0.1496 1.2232
C22 C -0.1108(4) 0.0691(3) 0.7372(3)
H14 H -0.1006 0.1077 0.6949
C23 C 0.6443(3) 0.5360(3) 0.6534(4)
H15 H 0.6600 0.5759 0.6156
C24 C 0.6464(4) 0.5485(3) 0.7499(4)
H16 H 0.6640 0.5970 0.7780
C25 C 0.6221(3) 0.4680(3) 0.3494(4)
H17 H 0.6308 0.5024 0.3017
C26 C -0.1244(4) 0.0474(3) 1.1547(4)
H18 H -0.1268 0.0165 1.2078
C27 C -0.1276(4) -0.0060(3) 0.7037(4)
H19 H -0.1294 -0.0181 0.6395
C28 C -0.1417(4) -0.0629(3) 0.7665(4)
H20 H -0.1532 -0.1140 0.7450
O5 O -0.0633(2) 0.29541(16) 0.9512(2)
O6 O 0.5239(3) 0.21149(17) 0.5181(2)
O7 O -0.1909(3) 0.3664(2) 0.8684(3)
C29 C -0.0516(3) 0.4319(2) 0.9659(3)
C30 C 0.5372(3) 0.0747(2) 0.5263(3)
C31 C 0.0446(4) 0.4288(2) 1.0231(3)
H21 H 0.0754 0.3807 1.0390
C32 C -0.0960(3) 0.5037(2) 0.9428(3)
H22 H -0.1609 0.5066 0.9041
O8 O 0.6556(3) 0.1612(2) 0.6212(3)
O9 O -0.2397(3) 0.2297(2) 0.7929(3)
C33 C 0.4451(3) 0.0649(2) 0.4624(3)
H23 H 0.4074 0.1083 0.4368
C34 C 0.5919(3) 0.0090(2) 0.5639(3)
H24 H 0.6540 0.0147 0.6072
C35 C 0.5771(4) 0.1546(3) 0.5576(3)
C36 C -0.1082(4) 0.3588(2) 0.9248(3)
C32B C 0.0960(3) 0.4963(2) 1.0572(3)
C29B C 0.0516(3) 0.5681(2) 1.0341(3)
C31B C -0.0446(4) 0.5712(2) 0.9769(3)
H21B H -0.0754 0.6193 0.9610
C36B C 0.1082(4) 0.6412(2) 1.0752(3)
O5B O 0.0633(2) 0.70459(16) 1.0488(2)
O7B O 0.1909(3) 0.6336(2) 1.1316(3)
H22B H 0.1609 0.4934 1.0959
C34B C 0.4081(3) -0.0090(2) 0.4361(3)
C30B C 0.4628(3) -0.0747(2) 0.4737(3)
C33B C 0.5549(3) -0.0649(2) 0.5376(3)
H23B H 0.5926 -0.1083 0.5632
C35B C 0.4229(4) -0.1546(3) 0.4424(3)
O6B O 0.4761(3) -0.21149(17) 0.4819(2)
O8B O 0.3444(3) -0.1612(2) 0.3788(3)
H24B H 0.3460 -0.0147 0.3928
Cu1B Cu 0.08750(4) 0.80454(3) 1.11595(4)
N1B N 0.1151(3) 0.86114(19) 1.0017(3)
N2B N 0.1087(3) 0.91203(19) 1.1714(3)
C5B C 0.1232(3) 0.9675(2) 1.1092(3)
C10B C 0.1143(4) 0.8291(3) 0.9152(3)
H5B H 0.1104 0.7753 0.9087
C12B C 0.1213(3) 0.9390(2) 1.0107(3)
C15B C 0.1260(3) 0.9866(3) 0.9332(4)
H7B H 0.1301 1.0404 0.9406
C20B C 0.1390(4) 1.0444(3) 1.1387(4)
H12B H 0.1476 1.0827 1.0953
C21B C 0.1192(4) 0.8738(3) 0.8358(4)
H13B H 0.1190 0.8504 0.7768
C22B C 0.1108(4) 0.9309(3) 1.2628(3)
H14B H 0.1006 0.8923 1.3051
C26B C 0.1244(4) 0.9526(3) 0.8453(4)
H18B H 0.1268 0.9835 0.7922
C27B C 0.1276(4) 1.0060(3) 1.2963(4)
H19B H 0.1294 1.0181 1.3605
C28B C 0.1417(4) 1.0629(3) 1.2335(4)
H20B H 0.1532 1.1140 1.2550
O1B O -0.4837(2) 0.73232(17) 1.3089(2)
O2B O 0.0059(2) 0.77534(17) 1.2066(2)
O3B O -0.1054(2) 0.82571(18) 1.0811(2)
O4B O -0.3722(2) 0.67624(17) 1.4281(2)
C1B C -0.1425(3) 0.7628(2) 1.3119(3)
H1B H -0.0775 0.7680 1.3494
C2B C -0.3355(3) 0.7466(2) 1.2010(3)
H2B H -0.4005 0.7411 1.1633
C3B C -0.0831(3) 0.7941(2) 1.1619(3)
C4B C -0.3144(3) 0.7348(2) 1.3014(3)
C6B C -0.2608(3) 0.7666(2) 1.1570(3)
H3B H -0.2762 0.7746 1.0901
C9B C -0.3938(3) 0.7125(2) 1.3504(3)
C11B C -0.1638(3) 0.7746(2) 1.2112(3)
C17B C -0.2171(3) 0.7435(2) 1.3561(3)
H9B H -0.2019 0.7363 1.4231
O9B O 0.2397(3) 0.7703(2) 1.2071(3)
Cu2B Cu -0.55050(4) 0.69305(3) 1.40756(4)
N3B N -0.5945(2) 0.59552(18) 1.3330(2)
N4B N -0.5927(3) 0.63337(19) 1.5098(3)
C7B C -0.5880(3) 0.6579(3) 1.6013(3)
H4B H -0.5748 0.7101 1.6164
C8B C -0.6185(3) 0.5373(2) 1.3862(3)
C13B C -0.5966(3) 0.5831(3) 1.2395(3)
H6B H -0.5804 0.6235 1.2029
C14B C -0.6136(3) 0.5577(2) 1.4885(3)
C16B C -0.6224(4) 0.5112(3) 1.1961(3)
H8B H -0.6233 0.5035 1.1311
C18B C -0.6020(4) 0.6086(3) 1.6726(3)
H10B H -0.5978 0.6271 1.7350
C19B C -0.6293(3) 0.5060(3) 1.5574(3)
H11B H -0.6445 0.4542 1.5411
C23B C -0.6443(3) 0.4640(3) 1.3466(4)
H15B H -0.6600 0.4241 1.3844
C24B C -0.6464(4) 0.4515(3) 1.2501(4)
H16B H -0.6640 0.4030 1.2220
C25B C -0.6221(3) 0.5320(3) 1.6506(4)
H17B H -0.6308 0.4976 1.6983
Cu2B_2 Cu 0.44950(4) -0.30695(3) 0.40756(4)
O6B_2 O -0.5239(3) 0.78851(17) 1.4819(2)
loop_
_geom_bond_atom_site_label_1
_geom_bond_atom_site_label_2
_geom_bond_site_symmetry_1
_geom_bond_site_symmetry_2
Cu1 N1 1_555 1_555
Cu2 O1 1_555 1_555
O1 C9 1_555 1_555
N1 C10 1_555 1_555
O2 Cu1 1_555 1_555
O3 C3 1_555 1_555
O4 Cu2 1_555 1_555
N2 Cu1 1_555 1_555
N3 Cu2 1_555 1_555
N4 Cu2 1_555 1_555
C1 H1 1_555 1_555
C2 H2 1_555 1_555
C3 O2 1_555 1_555
C4 C2 1_555 1_555
C5 N2 1_555 1_555
C6 C2 1_555 1_555
H3 C6 1_555 1_555
C7 N4 1_555 1_555
H4 C7 1_555 1_555
C8 N3 1_555 1_555
C9 O4 1_555 1_555
C10 H5 1_555 1_555
C11 C1 1_555 1_555
C12 N1 1_555 1_555
C13 N3 1_555 1_555
H6 C13 1_555 1_555
C14 N4 1_555 1_555
C15 C12 1_555 1_555
H7 C15 1_555 1_555
C16 C13 1_555 1_555
H8 C16 1_555 1_555
C17 C1 1_555 1_555
H9 C17 1_555 1_555
C18 C7 1_555 1_555
H10 C18 1_555 1_555
C19 C14 1_555 1_555
H11 C19 1_555 1_555
C20 C5 1_555 1_555
H12 C20 1_555 1_555
C21 C10 1_555 1_555
H13 C21 1_555 1_555
C22 N2 1_555 1_555
H14 C22 1_555 1_555
C23 C8 1_555 1_555
H15 C23 1_555 1_555
C24 C16 1_555 1_555
H16 C24 1_555 1_555
C25 C18 1_555 1_555
H17 C25 1_555 1_555
C26 C15 1_555 1_555
H18 C26 1_555 1_555
C27 C22 1_555 1_555
H19 C27 1_555 1_555
C28 C20 1_555 1_555
H20 C28 1_555 1_555
O5 Cu1 1_555 1_555
O6 Cu2 1_555 1_555
O7 C36 1_555 1_555
C29 C31 1_555 1_555
C30 C33 1_555 1_555
C31 H21 1_555 1_555
C32 C29 1_555 1_555
H22 C32 1_555 1_555
O8 C35 1_555 1_555
O9 Cu1 1_555 1_555
C33 H23 1_555 1_555
C34 C30 1_555 1_555
H24 C34 1_555 1_555
C35 O6 1_555 1_555
C36 O5 1_555 1_555
C32B C31 1_555 1_555
C29B C32B 1_555 1_555
C31B C32 1_555 1_555
H21B C31B 1_555 1_555
C36B C29B 1_555 1_555
O5B C36B 1_555 1_555
O7B C36B 1_555 1_555
H22B C32B 1_555 1_555
C34B C33 1_555 1_555
C30B C34B 1_555 1_555
C33B C34 1_555 1_555
H23B C33B 1_555 1_555
C35B C30B 1_555 1_555
O6B C35B 1_555 1_555
O8B C35B 1_555 1_555
H24B C34B 1_555 1_555
Cu1B O5B 1_555 1_555
N1B Cu1B 1_555 1_555
N2B Cu1B 1_555 1_555
C5B N2B 1_555 1_555
C10B N1B 1_555 1_555
H5B C10B 1_555 1_555
C12B N1B 1_555 1_555
C15B C12B 1_555 1_555
H7B C15B 1_555 1_555
C20B C5B 1_555 1_555
H12B C20B 1_555 1_555
C21B C10B 1_555 1_555
H13B C21B 1_555 1_555
C22B N2B 1_555 1_555
H14B C22B 1_555 1_555
C26B C15B 1_555 1_555
H18B C26B 1_555 1_555
C27B C22B 1_555 1_555
H19B C27B 1_555 1_555
C28B C20B 1_555 1_555
H20B C28B 1_555 1_555
O1B C9B 1_555 1_555
O2B Cu1B 1_555 1_555
O3B C3B 1_555 1_555
O4B C9B 1_555 1_555
C1B H1B 1_555 1_555
C2B H2B 1_555 1_555
C3B O2B 1_555 1_555
C4B C2B 1_555 1_555
C6B C2B 1_555 1_555
H3B C6B 1_555 1_555
C9B C4B 1_555 1_555
C11B C1B 1_555 1_555
C17B C1B 1_555 1_555
H9B C17B 1_555 1_555
O9B Cu1B 1_555 1_555
Cu2B O1B 1_555 1_555
N3B Cu2B 1_555 1_555
N4B Cu2B 1_555 1_555
C7B N4B 1_555 1_555
H4B C7B 1_555 1_555
C8B N3B 1_555 1_555
C13B N3B 1_555 1_555
H6B C13B 1_555 1_555
C14B N4B 1_555 1_555
C16B C13B 1_555 1_555
H8B C16B 1_555 1_555
C18B C7B 1_555 1_555
H10B C18B 1_555 1_555
C19B C14B 1_555 1_555
H11B C19B 1_555 1_555
C23B C8B 1_555 1_555
H15B C23B 1_555 1_555
C24B C16B 1_555 1_555
H16B C24B 1_555 1_555
C25B C18B 1_555 1_555
H17B C25B 1_555 1_555
Cu2B_2 O6B 1_555 1_555
O6B_2 Cu2B 1_555 1_555
C3 C11 1_555 1_555
C4 C9 1_555 1_555
C4 C17 1_555 1_555
C5 C12 1_555 1_555
C6 C11 1_555 1_555
C8 C14 1_555 1_555
C19 C25 1_555 1_555
C21 C26 1_555 1_555
C23 C24 1_555 1_555
C27 C28 1_555 1_555
C29 C36 1_555 1_555
C30 C35 1_555 1_555
C29B C31B 1_555 1_555
C30B C33B 1_555 1_555
C5B C12B 1_555 1_555
C21B C26B 1_555 1_555
C27B C28B 1_555 1_555
O4B Cu2B 1_555 1_555
C3B C11B 1_555 1_555
C4B C17B 1_555 1_555
C6B C11B 1_555 1_555
C8B C14B 1_555 1_555
C19B C25B 1_555 1_555
C23B C24B 1_555 1_555

#END
