
#######################################################################
#
#                 Cambridge Crystallographic Data Centre
#                                CCDC 
#
#######################################################################
#
# If this CIF has been generated from an entry in the Cambridge 
# Structural Database, then it will include bibliographic, chemical, 
# crystal, experimental, refinement or atomic coordinate data resulting 
# from the CCDC's data processing and validation procedures.
#
#######################################################################

data_ELAGEE
_symmetry_cell_setting           trigonal
_symmetry_space_group_name_H-M   'P 32 2 1'
_symmetry_Int_Tables_number      154
_space_group_name_Hall           'P 32 2"'
loop_
_symmetry_equiv_pos_site_id
_symmetry_equiv_pos_as_xyz
1 x,y,z
2 -y,x-y,2/3+z
3 -x+y,-x,1/3+z
4 y,x,-z
5 x-y,-y,1/3-z
6 -x,-x+y,2/3-z
_cell_length_a                   11.8001(8)
_cell_length_b                   11.8001(8)
_cell_length_c                   12.7024(10)
_cell_angle_alpha                90
_cell_angle_beta                 90
_cell_angle_gamma                120
_cell_volume                     1531.75
loop_
_atom_site_label
_atom_site_type_symbol
_atom_site_fract_x
_atom_site_fract_y
_atom_site_fract_z
Cd1 Cd 0.532768(15) 0.0000 0.1667
C1 C 0.9677(2) 0.0000 0.1667
N1 N 0.7296(2) 0.0000 0.1667
C2 C 0.8505(2) -0.1113(2) 0.13733(16)
H1 H 0.8502 -0.1885 0.1158
C3 C 1.0933(2) 0.0000 0.1667
N2 N 1.3319(2) 0.0000 0.1667
C4 C 0.7346(2) -0.1075(2) 0.13994(16)
H2 H 0.6553 -0.1846 0.1220
O1 O 0.64730(17) 0.20957(15) 0.09915(13)
H3 H 0.6434 0.2621 0.1416
O2 O 0.56529(16) 0.09307(18) 0.32698(12)
H4 H 0.6441 0.1246 0.3443
C5 C 1.1106(2) -0.0893(2) 0.10646(17)
C6 C 1.2303(2) -0.0852(2) 0.10840(16)
H5 H 1.244(3) -0.141(3) 0.064(2)
H6 H 1.046(3) -0.147(3) 0.064(2)
H7 H 0.646(3) 0.227(3) 0.042(3)
H8 H 0.511(4) 0.054(3) 0.370(3)
Cd1_2 Cd 1.532768(15) 0.0000 0.1667
C2D C 0.9618(3) 0.1113(2) 0.19600(16)
H1D H 1.0387 0.1885 0.2175
N2_2 N 0.3319(2) 0.0000 0.1667
C4D C 0.8421(3) 0.1075(2) 0.19339(16)
H2D H 0.8399 0.1846 0.2113
O1D O 0.43773(23) -0.20957(15) 0.23418(13)
H3D H 0.3813 -0.2621 0.1917
O2D O 0.47222(24) -0.09307(18) 0.00635(12)
H4D H 0.5195 -0.1246 -0.0110
C5D C 1.1999(3) 0.0893(2) 0.22687(17)
C6D C 1.3155(3) 0.0852(2) 0.22493(16)
H5D H 1.385(4) 0.141(3) 0.269(2)
H6D H 1.193(4) 0.147(3) 0.269(2)
H7D H 0.419(4) -0.227(3) 0.291(3)
H8D H 0.457(5) -0.054(3) -0.037(3)
S1 S 1.18257(5) 0.45634(5) 0.12903(4)
O3 O 1.24876(18) 0.59838(17) 0.11118(14)
O4 O 1.21070(16) 0.42306(18) 0.23261(12)
O5 O 1.04266(16) 0.39241(16) 0.10875(13)
C7 C 1.2460(2) 0.3913(2) 0.03398(18)
H9 H 1.2001 0.2949 0.0416
H10 H 1.2267 0.4112 -0.0373
C8 C 1.3928(2) 0.4446(3) 0.0434(2)
H11 H 1.4120 0.4199 0.1128
H12 H 1.4389 0.5413 0.0397
S1C S 1.45634(5) 0.18257(5) -0.12903(4)
O3C O 1.59838(17) 0.24876(18) -0.11118(14)
O4C O 1.42306(18) 0.21070(16) -0.23261(12)
O5C O 1.39241(16) 0.04266(16) -0.10875(13)
C7C C 1.3913(2) 0.2460(2) -0.03398(18)
H9C H 1.2949 0.2001 -0.0416
H10C H 1.4112 0.2267 0.0373
C8C C 1.4446(3) 0.3928(2) -0.0434(2)
H11C H 1.4199 0.4120 -0.1128
H12C H 1.5413 0.4389 -0.0397
loop_
_geom_bond_atom_site_label_1
_geom_bond_atom_site_label_2
_geom_bond_site_symmetry_1
_geom_bond_site_symmetry_2
Cd1 N1 1_555 1_555
C1 C2 1_555 1_555
N1 C4 1_555 1_555
C2 H1 1_555 1_555
C3 C1 1_555 1_555
N2 C6 1_555 1_555
C4 C2 1_555 1_555
H2 C4 1_555 1_555
O1 Cd1 1_555 1_555
H3 O1 1_555 1_555
O2 Cd1 1_555 1_555
H4 O2 1_555 1_555
C5 C3 1_555 1_555
C6 C5 1_555 1_555
H5 C6 1_555 1_555
H6 C5 1_555 1_555
H7 O1 1_555 1_555
H8 O2 1_555 1_555
S1 O3 1_555 1_555
O4 S1 1_555 1_555
O5 S1 1_555 1_555
C7 S1 1_555 1_555
H9 C7 1_555 1_555
H10 C7 1_555 1_555
C8 C7 1_555 1_555
H11 C8 1_555 1_555
H12 C8 1_555 1_555
Cd1_2 N2 1_555 1_555
C2D C1 1_555 1_555
H1D C2D 1_555 1_555
N2_2 Cd1 1_555 1_555
C4D N1 1_555 1_555
H2D C4D 1_555 1_555
O1D Cd1 1_555 1_555
H3D O1D 1_555 1_555
O2D Cd1 1_555 1_555
H4D O2D 1_555 1_555
C5D C3 1_555 1_555
C6D N2 1_555 1_555
H5D C6D 1_555 1_555
H6D C5D 1_555 1_555
H7D O1D 1_555 1_555
H8D O2D 1_555 1_555
S1C O3C 1_555 1_555
O4C S1C 1_555 1_555
O5C S1C 1_555 1_555
C7C S1C 1_555 1_555
H9C C7C 1_555 1_555
H10C C7C 1_555 1_555
C8C C8 1_555 1_555
H11C C8C 1_555 1_555
H12C C8C 1_555 1_555
C2D C4D 1_555 1_555
C5D C6D 1_555 1_555
C7C C8C 1_555 1_555

#END
