
#######################################################################
#
#                 Cambridge Crystallographic Data Centre
#                                CCDC 
#
#######################################################################
#
# If this CIF has been generated from an entry in the Cambridge 
# Structural Database, then it will include bibliographic, chemical, 
# crystal, experimental, refinement or atomic coordinate data resulting 
# from the CCDC's data processing and validation procedures.
#
#######################################################################

data_ELAGAA
_symmetry_cell_setting           trigonal
_symmetry_space_group_name_H-M   'P 32 2 1'
_symmetry_Int_Tables_number      154
_space_group_name_Hall           'P 32 2"'
loop_
_symmetry_equiv_pos_site_id
_symmetry_equiv_pos_as_xyz
1 x,y,z
2 -y,x-y,2/3+z
3 -x+y,-x,1/3+z
4 y,x,-z
5 x-y,-y,1/3-z
6 -x,-x+y,2/3-z
_cell_length_a                   11.7810(10)
_cell_length_b                   11.7810(10)
_cell_length_c                   12.6868(15)
_cell_angle_alpha                90
_cell_angle_beta                 90
_cell_angle_gamma                120
_cell_volume                     1524.92
loop_
_atom_site_label
_atom_site_type_symbol
_atom_site_fract_x
_atom_site_fract_y
_atom_site_fract_z
Cd1 Cd 0.552075(19) 0.0000 0.1667
C1 C 0.1127(3) 0.0000 0.1667
N1 N 0.3510(3) 0.0000 0.1667
O1 O 0.66062(19) 0.20861(17) 0.09550(14)
H1 H 0.6545 0.2611 0.1367
C2 C 0.1164(3) -0.1158(3) 0.1536(2)
H2 H 0.0375 -0.1971 0.1453
C3 C 0.2371(3) -0.1104(3) 0.1529(2)
H3 H 0.2384 -0.1895 0.1422
N2 N -0.2507(2) 0.0000 0.1667
O2 O 0.4797(2) -0.0980(2) 0.00822(15)
H4 H 0.5346 -0.1159 -0.0176
C4 C -0.1411(3) 0.1012(3) 0.1280(2)
H5 H -0.1452 0.1741 0.1006
C5 C -0.0223(3) 0.1047(3) 0.1262(2)
H6 H 0.0528 0.1783 0.0973
C6 C -0.0132(3) 0.0000 0.1667
H7 H 0.458(4) -0.043(5) -0.025(3)
H8 H 0.642(4) 0.221(4) 0.031(3)
Cd1_2 Cd -0.447925(19) 0.0000 0.1667
O1D O 0.45201(25) -0.20861(17) 0.23783(14)
H1D H 0.3934 -0.2611 0.1966
C2D C 0.2322(4) 0.1158(3) 0.1797(2)
H2D H 0.2346 0.1971 0.1880
C3D C 0.3475(4) 0.1104(3) 0.1804(2)
H3D H 0.4279 0.1895 0.1911
N2_2 N 0.7493(2) 0.0000 0.1667
O2D O 0.5777(3) 0.0980(2) 0.32511(15)
H4D H 0.6505 0.1159 0.3509
C4D C -0.2423(4) -0.1012(3) 0.2053(2)
H5D H -0.3193 -0.1741 0.2327
C5D C -0.1270(4) -0.1047(3) 0.2071(2)
H6D H -0.1255 -0.1783 0.2360
H7D H 0.501(6) 0.043(5) 0.358(3)
H8D H 0.421(6) -0.221(4) 0.302(3)
S1 S 0.68126(7) 0.52177(7) 0.17508(5)
C7 C 0.5987(4) 0.5987(4) 0.0000
C8 C 0.5675(3) 0.4807(3) 0.0694(2)
H9 H 0.5687 0.4118 0.0255
H10 H 0.4781 0.4446 0.0987
O3 O 0.6502(2) 0.39530(19) 0.22271(15)
O4 O 0.8128(2) 0.5903(2) 0.12991(16)
O5 O 0.65763(19) 0.60267(18) 0.24759(14)
H11 H 0.619(3) 0.673(3) 0.044(2)
S1C S 0.52177(7) 0.68126(7) -0.17508(5)
C8C C 0.4807(3) 0.5675(3) -0.0694(2)
H9C H 0.4118 0.5687 -0.0255
H10C H 0.4446 0.4781 -0.0987
O3C O 0.39530(19) 0.6502(2) -0.22271(15)
O4C O 0.5903(2) 0.8128(2) -0.12991(16)
O5C O 0.60267(18) 0.65763(19) -0.24759(14)
H11C H 0.673(3) 0.619(3) -0.044(2)
loop_
_geom_bond_atom_site_label_1
_geom_bond_atom_site_label_2
_geom_bond_site_symmetry_1
_geom_bond_site_symmetry_2
Cd1 N1 1_555 1_555
C1 C2 1_555 1_555
N1 C3 1_555 1_555
O1 Cd1 1_555 1_555
H1 O1 1_555 1_555
C2 H2 1_555 1_555
C3 C2 1_555 1_555
H3 C3 1_555 1_555
N2 C4 1_555 1_555
O2 Cd1 1_555 1_555
H4 O2 1_555 1_555
C4 H5 1_555 1_555
C5 C4 1_555 1_555
H6 C5 1_555 1_555
C6 C1 1_555 1_555
H7 O2 1_555 1_555
H8 O1 1_555 1_555
S1 C8 1_555 1_555
C7 C8 1_555 1_555
C8 H9 1_555 1_555
H10 C8 1_555 1_555
O3 S1 1_555 1_555
O4 S1 1_555 1_555
O5 S1 1_555 1_555
H11 C7 1_555 1_555
Cd1_2 N2 1_555 1_555
O1D Cd1 1_555 1_555
H1D O1D 1_555 1_555
C2D C1 1_555 1_555
H2D C2D 1_555 1_555
C3D N1 1_555 1_555
H3D C3D 1_555 1_555
N2_2 Cd1 1_555 1_555
O2D Cd1 1_555 1_555
H4D O2D 1_555 1_555
C4D N2 1_555 1_555
H5D C4D 1_555 1_555
C5D C6 1_555 1_555
H6D C5D 1_555 1_555
H7D O2D 1_555 1_555
H8D O1D 1_555 1_555
S1C C8C 1_555 1_555
C8C C7 1_555 1_555
H9C C8C 1_555 1_555
H10C C8C 1_555 1_555
O3C S1C 1_555 1_555
O4C S1C 1_555 1_555
O5C S1C 1_555 1_555
H11C C7 1_555 1_555
C5 C6 1_555 1_555
C2D C3D 1_555 1_555
C4D C5D 1_555 1_555

#END
