
#######################################################################
#
#                 Cambridge Crystallographic Data Centre
#                                CCDC 
#
#######################################################################
#
# If this CIF has been generated from an entry in the Cambridge 
# Structural Database, then it will include bibliographic, chemical, 
# crystal, experimental, refinement or atomic coordinate data resulting 
# from the CCDC's data processing and validation procedures.
#
#######################################################################

data_ELAGOO
_symmetry_cell_setting           monoclinic
_symmetry_space_group_name_H-M   'C 2/c'
_symmetry_Int_Tables_number      15
_space_group_name_Hall           '-C 2yn'
loop_
_symmetry_equiv_pos_site_id
_symmetry_equiv_pos_as_xyz
1 x,y,z
2 -x,y,1/2-z
3 1/2+x,1/2+y,z
4 1/2-x,1/2+y,1/2-z
5 -x,-y,-z
6 x,-y,1/2+z
7 1/2-x,1/2-y,-z
8 1/2+x,1/2-y,1/2+z
_cell_length_a                   29.219(6)
_cell_length_b                   10.655(2)
_cell_length_c                   6.2540(13)
_cell_angle_alpha                90
_cell_angle_beta                 96.92(3)
_cell_angle_gamma                90
_cell_volume                     1932.86
loop_
_atom_site_label
_atom_site_type_symbol
_atom_site_fract_x
_atom_site_fract_y
_atom_site_fract_z
Co1 Co 0.35465(3) 0.56858(8) 0.24187(15)
Na1 Na 0.24325(8) 0.5769(2) 0.1830(4)
O1 O 0.30757(14) 0.7082(4) 0.1729(7)
N1 N 0.39392(18) 0.7334(5) 0.3437(8)
N2 N 0.30760(19) 0.4374(5) 0.0771(9)
N3 N 0.38942(18) 0.5473(5) -0.0294(9)
N4 N 0.30741(19) 0.3300(5) 0.1358(9)
C1 C 0.4380(2) 0.7454(7) 0.4237(12)
H1 H 0.4556 0.6739 0.4579
C2 C 0.3696(2) 0.8399(6) 0.2989(11)
N5 N 0.4350(2) 0.9680(6) 0.4129(10)
C3 C 0.3906(3) 0.9563(6) 0.3341(11)
H2 H 0.3733 1.0284 0.3017
C4 C 0.4581(2) 0.8628(7) 0.4570(12)
H3 H 0.4890 0.8676 0.5126
N6 N 0.4247(2) 0.5999(7) -0.0536(11)
N7 N 0.4588(3) 0.6482(10) -0.0691(14)
N8 N 0.3072(2) 0.2255(6) 0.1795(10)
C5 C 0.3194(2) 0.8209(6) 0.2030(10)
O2 O 0.29527(15) 0.9156(4) 0.1651(7)
Co1E Co 0.35465(3) 0.43142(8) -0.25813(15)
Na1C Na 0.25675(8) 0.0769(2) 0.3170(4)
Na1C_2 Na 0.25675(8) 1.0769(2) 0.3170(4)
Na1F Na 0.25675(8) 0.9231(2) -0.1830(4)
N3E N 0.38942(18) 0.4527(5) 0.4706(9)
N8C N 0.1928(2) 0.7255(6) 0.3205(10)
O2C O 0.20473(15) 0.4156(4) 0.3349(7)
O2F O 0.20473(15) 0.5844(4) -0.1651(7)
loop_
_geom_bond_atom_site_label_1
_geom_bond_atom_site_label_2
_geom_bond_site_symmetry_1
_geom_bond_site_symmetry_2
Co1 O1 1_555 1_555
Na1 O1 1_555 1_555
O1 C5 1_555 1_555
N1 Co1 1_555 1_555
N2 Co1 1_555 1_555
N3 Co1 1_555 1_555
N4 N2 1_555 1_555
C1 N1 1_555 1_555
H1 C1 1_555 1_555
C2 N1 1_555 1_555
N5 C3 1_555 1_555
C3 C2 1_555 1_555
H2 C3 1_555 1_555
C4 C1 1_555 1_555
H3 C4 1_555 1_555
N6 N3 1_555 1_555
N7 N6 1_555 1_555
N8 N4 1_555 1_555
C5 C2 1_555 1_555
O2 C5 1_555 1_555
Co1E N3 1_555 1_555
Na1C N8 1_555 1_555
Na1C_2 O2 1_555 1_555
Na1F O2 1_555 1_555
N3E Co1 1_555 1_555
N8C Na1 1_555 1_555
O2C Na1 1_555 1_555
O2F Na1 1_555 1_555
Na1 N2 1_555 1_555
N5 C4 1_555 1_555

#END
