
#######################################################################
#
#                 Cambridge Crystallographic Data Centre
#                                CCDC 
#
#######################################################################
#
# If this CIF has been generated from an entry in the Cambridge 
# Structural Database, then it will include bibliographic, chemical, 
# crystal, experimental, refinement or atomic coordinate data resulting 
# from the CCDC's data processing and validation procedures.
#
#######################################################################

data_ELAJUX
_symmetry_cell_setting           monoclinic
_symmetry_space_group_name_H-M   'P c'
_symmetry_Int_Tables_number      7
_space_group_name_Hall           'P -2yc'
loop_
_symmetry_equiv_pos_site_id
_symmetry_equiv_pos_as_xyz
1 x,y,z
2 x,-y,1/2+z
_cell_length_a                   9.0893(18)
_cell_length_b                   8.5626(17)
_cell_length_c                   11.564(2)
_cell_angle_alpha                90
_cell_angle_beta                 111.525(3)
_cell_angle_gamma                90
_cell_volume                     837.235
loop_
_atom_site_label
_atom_site_type_symbol
_atom_site_fract_x
_atom_site_fract_y
_atom_site_fract_z
Bi1 Bi -0.00300(4) 0.90605(4) 0.74980(4)
C1 C 0.1756(15) 0.7359(14) 0.7472(12)
C2 C 0.3327(16) 0.7656(18) 0.8247(15)
C3 C 0.445(2) 0.658(2) 0.8138(19)
H1 H 0.5504 0.6693 0.8646
C4 C 0.404(2) 0.541(2) 0.733(2)
H2 H 0.4816 0.4740 0.7289
C5 C 0.242(2) 0.515(2) 0.6528(19)
H3 H 0.2146 0.4338 0.5951
C6 C 0.1315(19) 0.6146(14) 0.6655(15)
C7 C 0.3698(18) 0.8946(17) 0.9095(16)
H4 H 0.4796 0.9241 0.9302
H5 H 0.3561 0.8636 0.9855
C8 C 0.323(2) 1.136(3) 0.7699(17)
H6 H 0.2432 1.2127 0.7294
H7 H 0.3418 1.0727 0.7084
H8 H 0.4188 1.1880 0.8196
C9 C 0.260(2) 1.147(2) 0.9482(16)
H9 H 0.2215 1.0974 1.0059
H10 H 0.1908 1.2318 0.9077
H11 H 0.3644 1.1875 0.9921
C10 C -0.043(2) 0.6093(17) 0.5811(16)
H12 H -0.0595 0.6738 0.5084
H13 H -0.0719 0.5030 0.5534
C11 C -0.155(2) 0.555(2) 0.7399(19)
H14 H -0.1904 0.6087 0.7975
H15 H -0.0527 0.5095 0.7839
H16 H -0.2285 0.4740 0.6991
C12 C -0.300(2) 0.706(3) 0.561(2)
H17 H -0.2923 0.7860 0.5054
H18 H -0.3625 0.7428 0.6065
H19 H -0.3491 0.6150 0.5138
N1 N 0.2654(15) 1.0323(16) 0.8537(11)
N2 N -0.1425(14) 0.6656(15) 0.6471(11)
O1 O -0.0243(13) 0.9651(12) 0.5479(9)
O2 O 0.0236(12) 1.1873(11) 0.4473(9)
O3 O -0.1166(17) 1.2133(14) 0.5897(11)
O4 O -0.2385(16) 1.0924(14) 0.3872(12)
S1 S -0.0932(5) 1.1177(4) 0.4940(3)
Bi1A Bi -0.00300(4) 1.09395(4) 0.24980(4)
O2A O 0.0236(12) 0.8127(11) 0.9473(9)
loop_
_geom_bond_atom_site_label_1
_geom_bond_atom_site_label_2
_geom_bond_site_symmetry_1
_geom_bond_site_symmetry_2
Bi1 C1 1_555 1_555
C1 C2 1_555 1_555
C2 C3 1_555 1_555
C3 H1 1_555 1_555
C4 C3 1_555 1_555
H2 C4 1_555 1_555
C5 C4 1_555 1_555
H3 C5 1_555 1_555
C6 C1 1_555 1_555
C7 C2 1_555 1_555
H4 C7 1_555 1_555
H5 C7 1_555 1_555
C8 H6 1_555 1_555
H7 C8 1_555 1_555
H8 C8 1_555 1_555
C9 H9 1_555 1_555
H10 C9 1_555 1_555
H11 C9 1_555 1_555
C10 C6 1_555 1_555
H12 C10 1_555 1_555
H13 C10 1_555 1_555
C11 H14 1_555 1_555
H15 C11 1_555 1_555
H16 C11 1_555 1_555
C12 H17 1_555 1_555
H18 C12 1_555 1_555
H19 C12 1_555 1_555
N1 Bi1 1_555 1_555
N2 Bi1 1_555 1_555
O1 Bi1 1_555 1_555
O2 S1 1_555 1_555
O3 S1 1_555 1_555
O4 S1 1_555 1_555
S1 O1 1_555 1_555
Bi1A O2 1_555 1_555
O2A Bi1 1_555 1_555
C5 C6 1_555 1_555
C7 N1 1_555 1_555
C8 N1 1_555 1_555
C9 N1 1_555 1_555
C10 N2 1_555 1_555
C11 N2 1_555 1_555
C12 N2 1_555 1_555

#END
