
#######################################################################
#
#                 Cambridge Crystallographic Data Centre
#                                CCDC 
#
#######################################################################
#
# If this CIF has been generated from an entry in the Cambridge 
# Structural Database, then it will include bibliographic, chemical, 
# crystal, experimental, refinement or atomic coordinate data resulting 
# from the CCDC's data processing and validation procedures.
#
#######################################################################

data_ELAKEI
_symmetry_cell_setting           monoclinic
_symmetry_space_group_name_H-M   'P 21/c'
_symmetry_Int_Tables_number      14
_space_group_name_Hall           '-P 2ybc'
loop_
_symmetry_equiv_pos_site_id
_symmetry_equiv_pos_as_xyz
1 x,y,z
2 -x,1/2+y,1/2-z
3 -x,-y,-z
4 x,1/2-y,1/2+z
_cell_length_a                   8.8147(16)
_cell_length_b                   17.108(4)
_cell_length_c                   21.837(5)
_cell_angle_alpha                90
_cell_angle_beta                 101.410(18)
_cell_angle_gamma                90
_cell_volume                     3227.98
loop_
_atom_site_label
_atom_site_type_symbol
_atom_site_fract_x
_atom_site_fract_y
_atom_site_fract_z
Bi1 Bi 0.39955(4) 0.16786(2) 0.15968(2)
Bi2 Bi 0.26557(4) -0.06386(2) 0.31359(2)
C1 C 0.3846(12) 0.0610(7) 0.0994(6)
C2 C 0.2595(12) 0.0522(7) 0.0488(6)
C3 C 0.2590(14) -0.0123(7) 0.0113(6)
H1 H 0.1793 -0.0184 -0.0247
C4 C 0.3754(15) -0.0693(7) 0.0257(7)
H2 H 0.3744 -0.1138 -0.0005
C5 C 0.4905(13) -0.0604(7) 0.0776(6)
H3 H 0.5680 -0.0995 0.0874
C6 C 0.4962(12) 0.0052(6) 0.1166(6)
C7 C 0.6113(12) 0.0126(6) 0.1751(6)
H4 H 0.7049 -0.0175 0.1712
H5 H 0.5685 -0.0107 0.2096
C8 C 0.7168(13) 0.1008(8) 0.2589(7)
H6 H 0.7988 0.0620 0.2716
H7 H 0.6331 0.0915 0.2816
H8 H 0.7590 0.1534 0.2684
C9 C 0.7709(12) 0.1191(7) 0.1567(7)
H9 H 0.8690 0.0925 0.1729
H10 H 0.7856 0.1758 0.1613
H11 H 0.7363 0.1062 0.1124
C10 C 0.1269(13) 0.1113(7) 0.0394(6)
H12 H 0.0729 0.1102 -0.0048
H13 H 0.0517 0.0956 0.0653
C11 C 0.0529(13) 0.2379(8) 0.0671(7)
H14 H -0.0277 0.2394 0.0291
H15 H 0.0888 0.2911 0.0784
H16 H 0.0106 0.2149 0.1012
C12 C 0.2430(14) 0.2248(7) 0.0041(6)
H17 H 0.1580 0.2371 -0.0308
H18 H 0.3124 0.1867 -0.0096
H19 H 0.3007 0.2726 0.0181
C13 C 0.2156(11) 0.0848(6) 0.2258(5)
C14 C 0.0248(10) -0.0997(6) 0.3177(5)
C15 C -0.0407(14) -0.0665(7) 0.3637(6)
C16 C -0.1990(13) -0.0776(7) 0.3611(7)
H20 H -0.2494 -0.0539 0.3909
C17 C -0.2822(12) -0.1250(8) 0.3129(7)
H21 H -0.3891 -0.1341 0.3114
C18 C -0.2158(13) -0.1571(7) 0.2697(7)
H22 H -0.2758 -0.1878 0.2376
C19 C -0.0556(11) -0.1461(6) 0.2711(6)
C20 C 0.0278(15) -0.1844(7) 0.2256(7)
H23 H 0.0823 -0.2315 0.2451
H24 H -0.0485 -0.2014 0.1884
C21 C 0.2535(17) -0.1755(9) 0.1782(8)
H25 H 0.1977 -0.2100 0.1456
H26 H 0.3182 -0.2069 0.2108
H27 H 0.3192 -0.1397 0.1599
C22 C 0.0600(16) -0.0771(8) 0.1576(6)
H28 H 0.1313 -0.0366 0.1487
H29 H -0.0260 -0.0526 0.1728
H30 H 0.0196 -0.1065 0.1194
C23 C 0.0589(14) -0.0264(8) 0.4188(7)
H31 H -0.0066 0.0083 0.4390
H32 H 0.1055 -0.0662 0.4498
C24 C 0.3160(16) 0.0306(8) 0.4533(7)
H33 H 0.4040 0.0537 0.4386
H34 H 0.3458 -0.0204 0.4723
H35 H 0.2848 0.0653 0.4844
C25 C 0.1241(15) 0.0979(7) 0.3785(7)
H36 H 0.1085 0.1289 0.4145
H37 H 0.0252 0.0920 0.3492
H38 H 0.1982 0.1246 0.3577
C26 C 0.6140(12) 0.3000(7) 0.1195(7)
N1 N 0.6559(10) 0.0940(6) 0.1911(5)
N2 N 0.1796(9) 0.1916(5) 0.0561(5)
N3 N 0.1426(11) -0.1305(6) 0.2054(5)
N4 N 0.1844(11) 0.0206(5) 0.3997(5)
O1 O 0.5456(8) 0.2414(4) 0.0896(4)
O2 O 0.1541(8) 0.1303(5) 0.1825(4)
O3 O 0.3638(8) 0.0789(5) 0.2412(4)
O4 O 0.1310(8) 0.0429(5) 0.2541(4)
O5 O 0.6533(8) 0.3003(5) 0.1789(4)
O6 O 0.6446(9) 0.3634(5) 0.0897(4)
Bi2A Bi 0.73443(4) 0.43614(2) 0.18641(2)
O5A O 0.3467(8) -0.1997(5) 0.3211(4)
O6A O 0.3554(9) -0.1366(5) 0.4103(4)
C27 C 0.6250(15) 0.2091(9) 0.4499(8)
H39 H 0.5866 0.1907 0.4871
H40 H 0.6802 0.2591 0.4610
Cl1 Cl 0.7549(5) 0.1400(3) 0.4305(2)
Cl2 Cl 0.4682(4) 0.2251(2) 0.3889(2)
loop_
_geom_bond_atom_site_label_1
_geom_bond_atom_site_label_2
_geom_bond_site_symmetry_1
_geom_bond_site_symmetry_2
Bi1 C1 1_555 1_555
Bi2 C14 1_555 1_555
C1 C2 1_555 1_555
C2 C3 1_555 1_555
C3 H1 1_555 1_555
C4 C3 1_555 1_555
H2 C4 1_555 1_555
C5 C4 1_555 1_555
H3 C5 1_555 1_555
C6 C1 1_555 1_555
C7 C6 1_555 1_555
H4 C7 1_555 1_555
H5 C7 1_555 1_555
C8 H6 1_555 1_555
H7 C8 1_555 1_555
H8 C8 1_555 1_555
C9 H9 1_555 1_555
H10 C9 1_555 1_555
H11 C9 1_555 1_555
C10 C2 1_555 1_555
H12 C10 1_555 1_555
H13 C10 1_555 1_555
C11 H14 1_555 1_555
H15 C11 1_555 1_555
H16 C11 1_555 1_555
C12 H17 1_555 1_555
H18 C12 1_555 1_555
H19 C12 1_555 1_555
C13 O2 1_555 1_555
C14 C15 1_555 1_555
C15 C16 1_555 1_555
C16 H20 1_555 1_555
C17 C16 1_555 1_555
H21 C17 1_555 1_555
C18 C17 1_555 1_555
H22 C18 1_555 1_555
C19 C14 1_555 1_555
C20 C19 1_555 1_555
H23 C20 1_555 1_555
H24 C20 1_555 1_555
C21 H25 1_555 1_555
H26 C21 1_555 1_555
H27 C21 1_555 1_555
C22 H28 1_555 1_555
H29 C22 1_555 1_555
H30 C22 1_555 1_555
C23 C15 1_555 1_555
H31 C23 1_555 1_555
H32 C23 1_555 1_555
C24 H33 1_555 1_555
H34 C24 1_555 1_555
H35 C24 1_555 1_555
C25 H36 1_555 1_555
H37 C25 1_555 1_555
H38 C25 1_555 1_555
C26 O1 1_555 1_555
C27 H39 1_555 1_555
H40 C27 1_555 1_555
Cl1 C27 1_555 1_555
Cl2 C27 1_555 1_555
N1 Bi1 1_555 1_555
N2 Bi1 1_555 1_555
N3 Bi2 1_555 1_555
N4 Bi2 1_555 1_555
O1 Bi1 1_555 1_555
O2 Bi1 1_555 1_555
O3 Bi1 1_555 1_555
O4 Bi2 1_555 1_555
O5 C26 1_555 1_555
O6 C26 1_555 1_555
Bi2A O5 1_555 1_555
O5A Bi2 1_555 1_555
O6A Bi2 1_555 1_555
C5 C6 1_555 1_555
C7 N1 1_555 1_555
C8 N1 1_555 1_555
C9 N1 1_555 1_555
C10 N2 1_555 1_555
C11 N2 1_555 1_555
C12 N2 1_555 1_555
C13 O3 1_555 1_555
C13 O4 1_555 1_555
C18 C19 1_555 1_555
C20 N3 1_555 1_555
C21 N3 1_555 1_555
C22 N3 1_555 1_555
C23 N4 1_555 1_555
C24 N4 1_555 1_555
C25 N4 1_555 1_555
O6 Bi2A 1_555 1_555

#END
