
#######################################################################
#
#                 Cambridge Crystallographic Data Centre
#                                CCDC 
#
#######################################################################
#
# If this CIF has been generated from an entry in the Cambridge 
# Structural Database, then it will include bibliographic, chemical, 
# crystal, experimental, refinement or atomic coordinate data resulting 
# from the CCDC's data processing and validation procedures.
#
#######################################################################

data_ELAXOF
_symmetry_cell_setting           monoclinic
_symmetry_space_group_name_H-M   'C 2/c'
_symmetry_Int_Tables_number      15
_space_group_name_Hall           '-C 2yn'
loop_
_symmetry_equiv_pos_site_id
_symmetry_equiv_pos_as_xyz
1 x,y,z
2 -x,y,1/2-z
3 1/2+x,1/2+y,z
4 1/2-x,1/2+y,1/2-z
5 -x,-y,-z
6 x,-y,1/2+z
7 1/2-x,1/2-y,-z
8 1/2+x,1/2-y,1/2+z
_cell_length_a                   28.060(6)
_cell_length_b                   8.1384(16)
_cell_length_c                   16.229(3)
_cell_angle_alpha                90
_cell_angle_beta                 119.90(3)
_cell_angle_gamma                90
_cell_volume                     3212.82
loop_
_atom_site_label
_atom_site_type_symbol
_atom_site_fract_x
_atom_site_fract_y
_atom_site_fract_z
Co1 Co 0.361222(16) 0.37558(5) -0.05383(3)
Co2 Co 0.368474(18) 0.32024(5) 0.16563(3)
O1 O 0.42704(9) 0.2627(3) -0.06171(16)
O2 O 0.48972(11) 0.2455(4) 0.09163(19)
C1 C 0.47137(12) 0.2093(4) 0.0057(2)
C2 C 0.50442(12) 0.0857(3) -0.0163(2)
H1 H 0.4902 0.0837 -0.0850
C3 C 0.56565(12) 0.1292(4) 0.0347(2)
H2 H 0.5795 0.1324 0.1026
H3 H 0.5854 0.0436 0.0225
C4 C 0.57709(12) 0.2931(4) 0.0034(2)
O3 O 0.55745(14) 0.3191(4) -0.08265(19)
O4 O 0.60820(10) 0.3931(3) 0.06758(16)
O5 O 0.32368(11) 0.1299(3) 0.07695(18)
O6 O 0.33035(11) 0.1447(3) -0.05477(18)
C5 C 0.31761(12) 0.0723(4) 0.0006(2)
C6 C 0.29540(13) -0.1021(4) -0.0269(2)
H4 H 0.3262 -0.1765 -0.0077
H5 H 0.2730 -0.1080 -0.0955
C7 C 0.26102(12) -0.1618(3) 0.0169(2)
H6 H 0.2843 -0.1626 0.0863
C8 C 0.21265(12) -0.0459(3) -0.0098(2)
O7 O 0.18515(11) -0.0071(3) -0.09587(17)
O8 O 0.20340(9) -0.0022(3) 0.05505(16)
O9 O 0.41068(9) 0.3910(3) 0.09642(16)
H7 H 0.4355 0.3441 0.1045
H8 H 0.4207 0.4765 0.1015
O10 O 0.31686(11) 0.3649(3) -0.20684(17)
H9 H 0.3206 0.2950 -0.1650
H10 H 0.2854 0.4078 -0.2337
O11 O 0.41746(15) 0.4984(5) 0.2786(2)
H11 H 0.3900 0.5120 0.2294
H12 H 0.4353 0.4764 0.2591
O12 O 0.33126(13) 0.2772(3) 0.24599(19)
H13 H 0.3145 0.1837 0.2376
H14 H 0.3478 0.3047 0.3055
O13 O 0.43044(13) 0.1466(3) 0.2368(2)
H15 H 0.4530 0.1703 0.2905
H16 H 0.4213 0.0504 0.2232
Co1D Co 0.638778(16) -0.37558(5) 0.05383(3)
Co1_2 Co 0.361222(16) -0.62442(5) -0.05383(3)
Co1D_2 Co 0.638778(16) 0.62442(5) 0.05383(3)
Co1F Co 0.138778(16) -0.87558(5) 0.05383(3)
Co1F_2 Co 0.138778(16) 0.12442(5) 0.05383(3)
Co2D Co 0.631526(18) -0.32024(5) -0.16563(3)
Co2_2 Co 0.368474(18) -0.67976(5) 0.16563(3)
Co2F Co 0.131526(18) -0.82024(5) -0.16563(3)
Co2F_2 Co 0.131526(18) 0.17976(5) -0.16563(3)
O1D O 0.57296(9) -0.2627(3) 0.06171(16)
O2D O 0.51028(11) -0.2455(4) -0.09163(19)
C1D C 0.52863(12) -0.2093(4) -0.0057(2)
C2D C 0.49558(12) -0.0857(3) 0.0163(2)
H1D H 0.5098 -0.0837 0.0850
C3D C 0.43435(12) -0.1292(4) -0.0347(2)
H2D H 0.4205 -0.1324 -0.1026
H3D H 0.4146 -0.0436 -0.0225
C4D C 0.42291(12) -0.2931(4) -0.0034(2)
O3D O 0.44255(14) -0.3191(4) 0.08265(19)
O4D O 0.39180(10) -0.3931(3) -0.06758(16)
O4_2 O 0.60820(10) -0.6069(3) 0.06758(16)
O4D_2 O 0.39180(10) 0.6069(3) -0.06758(16)
O5F O 0.17632(11) -0.6299(3) -0.07695(18)
O5D O 0.67632(11) -0.1299(3) -0.07695(18)
O6F O 0.16965(11) -0.6447(3) 0.05477(18)
O6D O 0.66965(11) -0.1447(3) 0.05477(18)
C5F C 0.18239(12) -0.5723(4) -0.0006(2)
C6F C 0.20460(13) -0.3979(4) 0.0269(2)
H4F H 0.1738 -0.3235 0.0077
H5F H 0.2270 -0.3920 0.0955
C7F C 0.23898(12) -0.3382(3) -0.0169(2)
H6F H 0.2157 -0.3374 -0.0863
C8F C 0.28735(12) -0.4541(3) 0.0098(2)
O7F O 0.31485(11) -0.4929(3) 0.09587(17)
O7B O 0.68515(11) -0.5071(3) -0.09587(17)
O7F_2 O 0.31485(11) 0.5071(3) 0.09587(17)
O8F O 0.29660(9) -0.4978(3) -0.05505(16)
O8B O 0.70340(9) -0.5022(3) 0.05505(16)
O8F_2 O 0.29660(9) 0.5022(3) -0.05505(16)
O9D O 0.58932(9) -0.3910(3) -0.09642(16)
H7D H 0.5645 -0.3441 -0.1045
H8D H 0.5793 -0.4765 -0.1015
O10D O 0.68314(11) -0.3649(3) 0.20684(17)
H9D H 0.6794 -0.2950 0.1650
H10D H 0.7146 -0.4078 0.2337
O11D O 0.58254(15) -0.4984(5) -0.2786(2)
H11D H 0.6100 -0.5120 -0.2294
H12D H 0.5647 -0.4764 -0.2591
O12D O 0.66874(13) -0.2772(3) -0.24599(19)
H13D H 0.6855 -0.1837 -0.2376
H14D H 0.6522 -0.3047 -0.3055
O13D O 0.56956(13) -0.1466(3) -0.2368(2)
H15D H 0.5470 -0.1703 -0.2905
H16D H 0.5787 -0.0504 -0.2232
O14 O 0.28364(16) -0.0122(5) 0.2533(3)
H17 H 0.2891 -0.0570 0.3028
H18 H 0.2623 -0.0510 0.1973
O15 O 0.3944(4) 0.8316(9) 0.2426(6)
H19 H 0.4062 0.8599 0.2945
H20 H 0.4006 0.7327 0.2514
O16 O 0.5381(3) 0.1986(9) -0.2477(5)
H21 H 0.5475 0.2809 -0.2557
H22 H 0.5531 0.2168 -0.1880
loop_
_geom_bond_atom_site_label_1
_geom_bond_atom_site_label_2
_geom_bond_site_symmetry_1
_geom_bond_site_symmetry_2
Co1 O1 1_555 1_555
Co2 O5 1_555 1_555
O1 C1 1_555 1_555
O2 C1 1_555 1_555
C1 C2 1_555 1_555
C2 H1 1_555 1_555
C3 C2 1_555 1_555
H2 C3 1_555 1_555
H3 C3 1_555 1_555
C4 C3 1_555 1_555
O3 C4 1_555 1_555
O4 C4 1_555 1_555
O5 C5 1_555 1_555
O6 Co1 1_555 1_555
C5 O6 1_555 1_555
C6 C5 1_555 1_555
H4 C6 1_555 1_555
H5 C6 1_555 1_555
C7 C6 1_555 1_555
H6 C7 1_555 1_555
C8 C7 1_555 1_555
O7 C8 1_555 1_555
O8 C8 1_555 1_555
O9 Co1 1_555 1_555
H7 O9 1_555 1_555
H8 O9 1_555 1_555
O10 Co1 1_555 1_555
H9 O10 1_555 1_555
H10 O10 1_555 1_555
O11 Co2 1_555 1_555
H11 O11 1_555 1_555
H12 O11 1_555 1_555
O12 Co2 1_555 1_555
H13 O12 1_555 1_555
H14 O12 1_555 1_555
O13 Co2 1_555 1_555
H15 O13 1_555 1_555
H16 O13 1_555 1_555
O14 H17 1_555 1_555
H18 O14 1_555 1_555
O15 H19 1_555 1_555
H20 O15 1_555 1_555
O16 H21 1_555 1_555
H22 O16 1_555 1_555
Co1D O1D 1_555 1_555
Co1_2 O4D 1_555 1_555
Co1D_2 O4 1_555 1_555
Co1F O6F 1_555 1_555
Co1F_2 O8 1_555 1_555
Co2D O5D 1_555 1_555
Co2_2 O7F 1_555 1_555
Co2F O5F 1_555 1_555
Co2F_2 O7 1_555 1_555
O1D C1D 1_555 1_555
O2D C1D 1_555 1_555
C1D C2D 1_555 1_555
C2D C2 1_555 1_555
H1D C2D 1_555 1_555
C3D C2D 1_555 1_555
H2D C3D 1_555 1_555
H3D C3D 1_555 1_555
C4D C3D 1_555 1_555
O3D C4D 1_555 1_555
O4D C4D 1_555 1_555
O4_2 Co1D 1_555 1_555
O4D_2 Co1 1_555 1_555
O5F C5F 1_555 1_555
O6F C5F 1_555 1_555
O6D Co1D 1_555 1_555
C5F C6F 1_555 1_555
C6F H4F 1_555 1_555
H5F C6F 1_555 1_555
C7F C7 1_555 1_555
H6F C7F 1_555 1_555
C8F C7F 1_555 1_555
O7F C8F 1_555 1_555
O7B Co2D 1_555 1_555
O7F_2 Co2 1_555 1_555
O8F Co1_2 1_555 1_555
O8B Co1D 1_555 1_555
O8F_2 Co1 1_555 1_555
O9D Co1D 1_555 1_555
H7D O9D 1_555 1_555
H8D O9D 1_555 1_555
O10D Co1D 1_555 1_555
H9D O10D 1_555 1_555
H10D O10D 1_555 1_555
O11D Co2D 1_555 1_555
H11D O11D 1_555 1_555
H12D O11D 1_555 1_555
O12D Co2D 1_555 1_555
H13D O12D 1_555 1_555
H14D O12D 1_555 1_555
O13D Co2D 1_555 1_555
H15D O13D 1_555 1_555
H16D O13D 1_555 1_555
Co2 O9 1_555 1_555
Co2D O9D 1_555 1_555
C6F C7F 1_555 1_555
C8F O8F 1_555 1_555

#END
