
#######################################################################
#
#                 Cambridge Crystallographic Data Centre
#                                CCDC 
#
#######################################################################
#
# If this CIF has been generated from an entry in the Cambridge 
# Structural Database, then it will include bibliographic, chemical, 
# crystal, experimental, refinement or atomic coordinate data resulting 
# from the CCDC's data processing and validation procedures.
#
#######################################################################

data_ELAYUM
_symmetry_cell_setting           triclinic
_symmetry_space_group_name_H-M   'P -1'
_symmetry_Int_Tables_number      2
_space_group_name_Hall           '-P 1'
loop_
_symmetry_equiv_pos_site_id
_symmetry_equiv_pos_as_xyz
1 x,y,z
2 -x,-y,-z
_cell_length_a                   8.1370(7)
_cell_length_b                   13.4714(12)
_cell_length_c                   15.5541(14)
_cell_angle_alpha                71.3210(10)
_cell_angle_beta                 82.4700(10)
_cell_angle_gamma                73.3800(10)
_cell_volume                     1546.25
loop_
_atom_site_label
_atom_site_type_symbol
_atom_site_fract_x
_atom_site_fract_y
_atom_site_fract_z
Cu1 Cu 0.80070(6) -0.24652(3) 0.44297(3)
Cu2 Cu 0.37776(6) -0.16388(3) 0.16735(3)
S1 S 0.35418(12) 0.40712(7) 0.14365(6)
O1 O 0.3490(4) 0.4082(2) 0.05162(17)
O2 O 0.4667(3) 0.4598(2) 0.1664(2)
O3 O 0.4729(4) -0.10130(19) 0.24022(18)
O4 O 0.3591(4) 0.0211(2) 0.11864(19)
O5 O 0.7529(3) -0.09962(19) 0.35746(17)
O6 O 0.5001(4) -0.1076(2) 0.43001(18)
O7 O 0.7549(4) -0.3746(2) 0.5390(2)
O8 O -0.2045(4) 0.6953(2) 0.34429(17)
O9 O 0.0373(3) 0.5834(2) 0.40357(18)
O10 O -0.4136(3) 0.7226(2) 0.16697(17)
O11 O -0.4614(4) 0.6066(2) 0.3002(2)
O12 O 0.1525(4) -0.1435(3) 0.2408(2)
N1 N 0.8991(4) -0.2047(2) 0.5324(2)
N2 N 1.2893(4) -0.1816(2) 1.0638(2)
C1 C 0.4083(4) 0.2706(3) 0.2122(2)
C2 C 0.5211(4) 0.0553(3) 0.3127(2)
C3 C 0.5921(5) -0.0605(3) 0.3703(2)
C4 C 0.1145(5) 0.5120(3) 0.2484(2)
H1 H 0.2063 0.5075 0.2806
C5 C 0.9020(5) -0.0848(3) 0.6163(3)
H2 H 0.8623 -0.0156 0.6229
C6 C -0.0727(5) 0.6169(3) 0.3456(2)
C7 C -0.3688(5) 0.6377(3) 0.2337(3)
C8 C 1.1808(5) -0.2047(3) 0.9092(2)
C9 C 0.5316(5) 0.1376(3) 0.3458(2)
H3 H 0.5769 0.1198 0.4022
C10 C 1.3028(5) -0.2798(3) 1.0554(3)
H4 H 1.3500 -0.3411 1.1021
C11 C 1.0604(5) -0.1436(3) 0.7566(3)
H5 H 1.0371 -0.0718 0.7563
C12 C 0.1426(5) 0.4657(3) 0.1778(2)
C13 C 0.4488(5) 0.0825(3) 0.2287(2)
C14 C 1.0143(5) -0.2814(3) 0.5893(3)
H6 H 1.0555 -0.3492 0.5798
C15 C 0.4762(5) 0.2442(3) 0.2965(2)
H7 H 0.4839 0.2986 0.3192
C16 C 1.2216(5) -0.0946(3) 0.9948(3)
H8 H 1.2108 -0.0259 0.9995
C17 C 0.0072(5) 0.4705(3) 0.1296(2)
H9 H 0.0265 0.4376 0.0837
C18 C 0.4263(5) -0.0034(3) 0.1925(2)
C19 C 0.8481(5) -0.1070(3) 0.5461(3)
H10 H 0.7723 -0.0515 0.5062
C20 C -0.0515(5) 0.5651(3) 0.2706(2)
C21 C -0.1874(4) 0.5732(3) 0.2205(2)
C22 C 1.1329(5) -0.2202(3) 0.8288(3)
H11 H 1.1554 -0.2915 0.8278
C23 C 1.0145(5) -0.1644(3) 0.6770(2)
C24 C 1.0744(5) -0.2646(3) 0.6608(3)
H12 H 1.1547 -0.3201 0.6981
C25 C 0.3925(4) 0.1904(3) 0.1787(2)
H13 H 0.3443 0.2089 0.1229
C26 C -0.1571(5) 0.5250(3) 0.1509(3)
H14 H -0.2484 0.5295 0.1184
C27 C 1.1681(5) -0.1025(3) 0.9181(3)
H15 H 1.1232 -0.0400 0.8719
C28 C 1.2502(5) -0.2931(3) 0.9811(3)
H16 H 1.2610 -0.3628 0.9787
H21 H 0.823(5) -0.434(3) 0.544(4)
H22 H 0.657(3) -0.381(4) 0.550(4)
H27 H 0.178(7) -0.185(4) 0.292(2)
H28 H 0.088(6) -0.165(4) 0.219(3)
Cu1_2 Cu -0.19930(6) 0.75348(3) 0.44297(3)
Cu2_2 Cu -0.62224(6) 0.83612(3) 0.16735(3)
Cu2_3 Cu 1.37776(6) -0.16388(3) 1.16735(3)
O8_2 O 0.7955(4) -0.3047(2) 0.34429(17)
O9_2 O 1.0373(3) -0.4166(2) 0.40357(18)
O10_2 O 0.5864(3) -0.2774(2) 0.16697(17)
N2_2 N 0.2893(4) -0.1816(2) 0.0638(2)
O13 O 0.8106(4) 0.7957(3) 0.0190(2)
H25 H 0.761(6) 0.847(3) -0.023(3)
H26 H 0.739(5) 0.766(4) 0.053(3)
O14 O 0.1166(4) 0.1552(3) 0.8294(2)
H23 H 0.122(7) 0.171(5) 0.876(2)
H24 H 0.194(6) 0.169(5) 0.793(3)
O15 O 0.6799(5) 0.2617(3) 0.5936(2)
H17 H 0.6311 0.2193 0.5869
H18 H 0.6183 0.2993 0.6237
O16 O 0.4470(5) 0.5978(3) 0.5792(3)
H19 H 0.452(8) 0.541(3) 0.622(2)
H20 H 0.435(8) 0.577(4) 0.533(2)
loop_
_geom_bond_atom_site_label_1
_geom_bond_atom_site_label_2
_geom_bond_site_symmetry_1
_geom_bond_site_symmetry_2
Cu1 O5 1_555 1_555
Cu2 O3 1_555 1_555
S1 O1 1_555 1_555
O2 S1 1_555 1_555
O3 C18 1_555 1_555
O4 Cu2 1_555 1_555
O5 C3 1_555 1_555
O6 Cu1 1_555 1_555
O7 Cu1 1_555 1_555
O8 C6 1_555 1_555
O9 C6 1_555 1_555
O10 C7 1_555 1_555
O11 C7 1_555 1_555
O12 Cu2 1_555 1_555
N1 Cu1 1_555 1_555
N2 C10 1_555 1_555
C1 S1 1_555 1_555
C2 C3 1_555 1_555
C3 O6 1_555 1_555
C4 H1 1_555 1_555
C5 H2 1_555 1_555
C6 C20 1_555 1_555
C7 C21 1_555 1_555
C8 C22 1_555 1_555
C9 C2 1_555 1_555
H3 C9 1_555 1_555
C10 H4 1_555 1_555
C11 H5 1_555 1_555
C12 S1 1_555 1_555
C13 C2 1_555 1_555
C14 N1 1_555 1_555
H6 C14 1_555 1_555
C15 C1 1_555 1_555
H7 C15 1_555 1_555
C16 N2 1_555 1_555
H8 C16 1_555 1_555
C17 C12 1_555 1_555
H9 C17 1_555 1_555
C18 O4 1_555 1_555
C19 N1 1_555 1_555
H10 C19 1_555 1_555
C20 C4 1_555 1_555
C21 C20 1_555 1_555
C22 C11 1_555 1_555
H11 C22 1_555 1_555
C23 C5 1_555 1_555
C24 C14 1_555 1_555
H12 C24 1_555 1_555
C25 C1 1_555 1_555
H13 C25 1_555 1_555
C26 C17 1_555 1_555
H14 C26 1_555 1_555
C27 C8 1_555 1_555
H15 C27 1_555 1_555
C28 C8 1_555 1_555
H16 C28 1_555 1_555
O13 H25 1_555 1_555
O14 H23 1_555 1_555
O15 H17 1_555 1_555
H18 O15 1_555 1_555
O16 H19 1_555 1_555
H20 O16 1_555 1_555
H21 O7 1_555 1_555
H22 O7 1_555 1_555
H24 O14 1_555 1_555
H26 O13 1_555 1_555
H27 O12 1_555 1_555
H28 O12 1_555 1_555
Cu1_2 O8 1_555 1_555
Cu2_2 O10 1_555 1_555
Cu2_3 N2 1_555 1_555
O8_2 Cu1 1_555 1_555
O9_2 Cu1 1_555 1_555
O10_2 Cu2 1_555 1_555
N2_2 Cu2 1_555 1_555
O9 Cu1_2 1_555 1_555
C4 C12 1_555 1_555
C5 C19 1_555 1_555
C9 C15 1_555 1_555
C10 C28 1_555 1_555
C11 C23 1_555 1_555
C13 C18 1_555 1_555
C13 C25 1_555 1_555
C16 C27 1_555 1_555
C21 C26 1_555 1_555
C23 C24 1_555 1_555

#END
