
#######################################################################
#
#                 Cambridge Crystallographic Data Centre
#                                CCDC 
#
#######################################################################
#
# If this CIF has been generated from an entry in the Cambridge 
# Structural Database, then it will include bibliographic, chemical, 
# crystal, experimental, refinement or atomic coordinate data resulting 
# from the CCDC's data processing and validation procedures.
#
#######################################################################

data_ELAZAT
_symmetry_cell_setting           monoclinic
_symmetry_space_group_name_H-M   'C 2/c'
_symmetry_Int_Tables_number      15
_space_group_name_Hall           '-C 2yn'
loop_
_symmetry_equiv_pos_site_id
_symmetry_equiv_pos_as_xyz
1 x,y,z
2 -x,y,1/2-z
3 1/2+x,1/2+y,z
4 1/2-x,1/2+y,1/2-z
5 -x,-y,-z
6 x,-y,1/2+z
7 1/2-x,1/2-y,-z
8 1/2+x,1/2-y,1/2+z
_cell_length_a                   10.4736(10)
_cell_length_b                   9.3446(9)
_cell_length_c                   26.918(3)
_cell_angle_alpha                90
_cell_angle_beta                 97.0130(10)
_cell_angle_gamma                90
_cell_volume                     2614.8
loop_
_atom_site_label
_atom_site_type_symbol
_atom_site_fract_x
_atom_site_fract_y
_atom_site_fract_z
Cu1 Cu 0.7500 0.7500 1.0000
Cu2 Cu 1.04286(4) 0.74988(4) 1.045220(14)
C1 C 0.9922(3) 0.6942(4) 0.93751(12)
C2 C 1.0494(3) 0.6667(4) 0.88928(12)
C3 C 1.1570(3) 0.5801(4) 0.88835(12)
C4 C 1.2062(3) 0.5570(4) 0.84307(13)
H1 H 1.2749 0.4945 0.8419
C5 C 1.1540(4) 0.6260(4) 0.80006(13)
H2 H 1.1881 0.6117 0.7701
C6 C 1.0501(4) 0.7168(4) 0.80195(12)
C7 C 0.9948(4) 0.7356(4) 0.84574(13)
H3 H 0.9225 0.7932 0.8461
C8 C 1.2247(3) 0.5099(4) 0.93506(12)
C9 C 0.9285(4) 0.8044(4) 1.13852(13)
H4 H 0.8687 0.8544 1.1167
C10 C 0.9151(4) 0.8043(5) 1.18900(13)
H5 H 0.8462 0.8517 1.2004
C11 C 1.0039(4) 0.7338(4) 1.22245(13)
C12 C 1.1012(4) 0.6608(4) 1.20317(13)
H6 H 1.1621 0.6103 1.2243
C13 C 1.1075(4) 0.6633(4) 1.15211(13)
H7 H 1.1729 0.6123 1.1397
O1 O 0.8762(2) 0.6722(3) 0.93795(9)
O2 O 1.0729(3) 0.7390(3) 0.97366(9)
O3 O 1.1620(2) 0.4195(3) 0.95687(9)
O4 O 1.3384(2) 0.5440(3) 0.94785(10)
O5 O 0.8894(2) 0.9078(3) 0.76206(9)
O6 O 0.6108(2) 0.6383(3) 0.96867(8)
O7 O 1.2019(3) 0.6241(3) 1.05645(9)
N1 N 1.0241(3) 0.7354(3) 1.11977(11)
S1 S 1.0000 0.82860(13) 0.7500
H8 H 0.605(4) 0.566(4) 0.9885(15)
H9 H 1.267(3) 0.654(4) 1.0446(18)
H10 H 1.192(4) 0.536(2) 1.0495(18)
Cu1B Cu 1.2500 0.2500 1.0000
Cu1A Cu 1.2500 0.7500 0.5000
Cu1C Cu 0.7500 0.2500 0.5000
Cu2A Cu 0.95714(4) 0.74988(4) 0.454780(14)
Cu2F Cu 1.45714(4) 0.75012(4) 0.954780(14)
Cu2F_2 Cu 0.45714(4) 0.75012(4) 0.954780(14)
Cu2G Cu 0.54286(4) 0.75012(4) 0.545220(14)
Cu2A_2 Cu 0.95714(4) 0.74988(4) 1.454780(14)
C1A C 1.0078(3) 0.6942(4) 0.56249(12)
C2A C 0.9506(3) 0.6667(4) 0.61072(12)
C3A C 0.8430(3) 0.5801(4) 0.61165(12)
C4A C 0.7938(3) 0.5570(4) 0.65693(13)
H1A H 0.7251 0.4945 0.6581
C5A C 0.8460(4) 0.6260(4) 0.69994(13)
H2A H 0.8119 0.6117 0.7299
C6A C 0.9499(4) 0.7168(4) 0.69805(12)
C7A C 1.0052(4) 0.7356(4) 0.65426(13)
H3A H 1.0775 0.7932 0.6539
C8A C 0.7753(3) 0.5099(4) 0.56494(12)
C9A C 1.0715(4) 0.8044(4) 1.36148(13)
H4A H 1.1313 0.8544 1.3833
C10A C 1.0849(4) 0.8043(5) 1.31100(13)
H5A H 1.1538 0.8517 1.2996
C11A C 0.9961(4) 0.7338(4) 1.27755(13)
C12A C 0.8988(4) 0.6608(4) 1.29683(13)
H6A H 0.8379 0.6103 1.2757
C13A C 0.8925(4) 0.6633(4) 1.34789(13)
H7A H 0.8271 0.6123 1.3603
O1A O 1.1238(2) 0.6722(3) 0.56205(9)
O1F O 0.6238(2) 0.8278(3) 1.06205(9)
O2A O 0.9271(3) 0.7390(3) 0.52634(9)
O3A O 0.8380(2) 0.4195(3) 0.54313(9)
O3B O 0.6620(2) 0.9195(3) 0.95687(9)
O3D O 0.8380(2) 0.5805(3) 1.04313(9)
O4A O 0.6616(2) 0.5440(3) 0.55215(10)
O4F O 1.1616(2) 0.9560(3) 1.05215(10)
O4G O 0.8384(2) 0.9560(3) 0.44785(10)
O5A O 1.1106(2) 0.9078(3) 0.73794(9)
O6F O 0.8892(2) 0.8617(3) 1.03133(8)
O6G O 1.1108(2) 0.8617(3) 0.46867(8)
O7A O 0.7981(3) 0.6241(3) 0.44355(9)
N1A N 0.9759(3) 0.7354(3) 1.38023(11)
N1A_2 N 0.9759(3) 0.7354(3) 0.38023(11)
H8F H 0.895(4) 0.934(4) 1.0115(15)
H8G H 1.105(4) 0.934(4) 0.4885(15)
H9A H 0.733(3) 0.654(4) 0.4554(18)
H10A H 0.808(4) 0.536(2) 0.4505(18)
loop_
_geom_bond_atom_site_label_1
_geom_bond_atom_site_label_2
_geom_bond_site_symmetry_1
_geom_bond_site_symmetry_2
Cu1 O1 1_555 1_555
Cu2 O2 1_555 1_555
C1 C2 1_555 1_555
C2 C3 1_555 1_555
C3 C4 1_555 1_555
C4 H1 1_555 1_555
C5 C4 1_555 1_555
H2 C5 1_555 1_555
C6 C5 1_555 1_555
C7 C2 1_555 1_555
H3 C7 1_555 1_555
C8 C3 1_555 1_555
C9 H4 1_555 1_555
C10 C9 1_555 1_555
H5 C10 1_555 1_555
C11 C10 1_555 1_555
C12 C11 1_555 1_555
H6 C12 1_555 1_555
C13 C12 1_555 1_555
H7 C13 1_555 1_555
O1 C1 1_555 1_555
O2 C1 1_555 1_555
O3 C8 1_555 1_555
O4 C8 1_555 1_555
O5 S1 1_555 1_555
O6 Cu1 1_555 1_555
O7 Cu2 1_555 1_555
N1 Cu2 1_555 1_555
S1 C6 1_555 1_555
H8 O6 1_555 1_555
H9 O7 1_555 1_555
H10 O7 1_555 1_555
Cu1B O3 1_555 1_555
Cu1A O1A 1_555 1_555
Cu1C O3A 1_555 1_555
Cu2A O2A 1_555 1_555
Cu2F O4 1_555 1_555
Cu2F_2 O6 1_555 1_555
Cu2G O4A 1_555 1_555
Cu2A_2 N1A 1_555 1_555
C1A C2A 1_555 1_555
C2A C3A 1_555 1_555
C3A C4A 1_555 1_555
C4A H1A 1_555 1_555
C5A C4A 1_555 1_555
H2A C5A 1_555 1_555
C6A S1 1_555 1_555
C7A C2A 1_555 1_555
H3A C7A 1_555 1_555
C8A C3A 1_555 1_555
C9A H4A 1_555 1_555
C10A C9A 1_555 1_555
H5A C10A 1_555 1_555
C11A C11 1_555 1_555
C12A C11A 1_555 1_555
H6A C12A 1_555 1_555
C13A C12A 1_555 1_555
H7A C13A 1_555 1_555
O1A C1A 1_555 1_555
O1F Cu1 1_555 1_555
O2A C1A 1_555 1_555
O3A C8A 1_555 1_555
O3B Cu1 1_555 1_555
O3D Cu1 1_555 1_555
O4A C8A 1_555 1_555
O4F Cu2 1_555 1_555
O4G Cu2A 1_555 1_555
O5A S1 1_555 1_555
O6F Cu1 1_555 1_555
O6G Cu1A 1_555 1_555
O7A Cu2A 1_555 1_555
N1A C9A 1_555 1_555
N1A_2 Cu2A 1_555 1_555
H8F O6F 1_555 1_555
H8G O6G 1_555 1_555
H9A O7A 1_555 1_555
H10A O7A 1_555 1_555
Cu2 O6F 1_555 1_555
C6 C7 1_555 1_555
C9 N1 1_555 1_555
C13 N1 1_555 1_555
Cu2A O6G 1_555 1_555
C5A C6A 1_555 1_555
C6A C7A 1_555 1_555
C10A C11A 1_555 1_555
C13A N1A 1_555 1_555

#END
