
#######################################################################
#
#                 Cambridge Crystallographic Data Centre
#                                CCDC 
#
#######################################################################
#
# If this CIF has been generated from an entry in the Cambridge 
# Structural Database, then it will include bibliographic, chemical, 
# crystal, experimental, refinement or atomic coordinate data resulting 
# from the CCDC's data processing and validation procedures.
#
#######################################################################

data_ELAZEX
_symmetry_cell_setting           monoclinic
_symmetry_space_group_name_H-M   'P 21/n'
_symmetry_Int_Tables_number      14
_space_group_name_Hall           '-P 2yn'
loop_
_symmetry_equiv_pos_site_id
_symmetry_equiv_pos_as_xyz
1 x,y,z
2 1/2-x,1/2+y,1/2-z
3 -x,-y,-z
4 1/2+x,1/2-y,1/2+z
_cell_length_a                   7.6233(6)
_cell_length_b                   29.191(2)
_cell_length_c                   13.0266(9)
_cell_angle_alpha                90
_cell_angle_beta                 102.9980(10)
_cell_angle_gamma                90
_cell_volume                     2824.56
loop_
_atom_site_label
_atom_site_type_symbol
_atom_site_fract_x
_atom_site_fract_y
_atom_site_fract_z
Cd1 Cd 1.11330(3) 0.990130(9) 1.81982(2)
Cd2 Cd 0.5000 1.0000 1.0000
Cd3 Cd 1.44748(3) 0.894960(8) 1.81057(2)
C1 C 0.8428(5) 0.83584(12) 1.4153(3)
C2 C 0.9634(5) 0.85661(12) 1.4972(3)
H1 H 1.0859 0.8507 1.5072
C3 C 0.9019(5) 0.88633(12) 1.5647(3)
C4 C 0.7168(6) 0.89539(12) 1.5473(3)
C5 C 0.5996(5) 0.87418(14) 1.4647(3)
H2 H 0.4770 0.8803 1.4533
C6 C 0.6602(5) 0.84414(13) 1.3987(3)
H3 H 0.5797 0.8297 1.3441
C7 C 1.0382(5) 0.90885(13) 1.6524(3)
C8 C 0.6367(7) 0.92844(17) 1.6151(4)
C9 C 1.0038(5) 0.83785(11) 1.2428(3)
C10 C 0.8833(5) 0.86120(11) 1.1653(3)
H4 H 0.7603 0.8564 1.1571
C11 C 0.9451(5) 0.89181(11) 1.0994(3)
C12 C 1.1310(5) 0.89845(11) 1.1121(3)
C13 C 1.2494(5) 0.87494(12) 1.1920(3)
H5 H 1.3727 0.8798 1.2018
C14 C 1.1871(5) 0.84457(12) 1.2570(3)
H6 H 1.2674 0.8289 1.3096
C15 C 0.8035(4) 0.91649(11) 1.0188(3)
C16 C 1.2078(5) 0.92897(12) 1.0397(3)
C17 C 1.4525(5) 0.81653(13) 1.9885(3)
H7 H 1.5752 0.8218 1.9967
C18 C 1.3991(5) 0.78313(14) 2.0501(3)
H8 H 1.4849 0.7668 2.0984
C19 C 1.2182(5) 0.77391(12) 2.0402(3)
C20 C 1.1004(6) 0.79934(14) 1.9657(3)
H9 H 0.9772 0.7941 1.9547
C21 C 1.1637(6) 0.83243(14) 1.9072(3)
H10 H 1.0806 0.8491 1.8581
C22 C 1.1542(5) 0.73901(12) 2.1069(3)
C23 C 1.2708(6) 0.71526(14) 2.1861(3)
H11 H 1.3934 0.7216 2.2005
C24 C 1.2064(6) 0.68253(14) 2.2430(3)
H12 H 1.2888 0.6669 2.2946
C25 C 0.9179(5) 0.69493(13) 2.1546(3)
H13 H 0.7955 0.6888 2.1443
C26 C 0.9729(5) 0.72781(13) 2.0919(3)
H14 H 0.8883 0.7424 2.0396
H15 H 1.2364 1.0442 1.6996
H16 H 1.0393 1.0449 1.6547
H17 H 0.7672 0.9697 1.7881
H18 H 0.7644 1.0119 1.8558
N1 N 1.3389(4) 0.84171(10) 1.9179(2)
N2 N 1.0323(4) 0.67167(10) 2.2291(2)
O1 O 1.1721(5) 0.88632(11) 1.6931(3)
O2 O 1.0032(4) 0.94921(11) 1.6729(3)
O3 O 0.6557(4) 0.92081(10) 1.7091(2)
O4 O 0.5595(11) 0.9619(2) 1.5673(4)
O5 O 0.7766(3) 0.95894(8) 1.03658(19)
O6 O 0.7144(3) 0.89359(8) 0.9453(2)
O7 O 1.1026(4) 0.94038(9) 0.9556(2)
O8 O 1.3701(4) 0.94014(9) 1.0690(2)
O9 O 0.7701(4) 0.77536(9) 1.2664(2)
O10 O 1.0759(4) 0.77445(9) 1.3853(2)
O11 O 0.4003(3) 0.96836(9) 0.8414(2)
O12 O 0.8189(4) 0.99230(9) 1.8245(2)
O13 O 1.1288(5) 1.04936(10) 1.7068(2)
S1 S 0.92302(13) 0.79953(3) 1.32723(7)
H19 H 0.430(6) 0.9811(15) 0.806(3)
Cd1B Cd 0.88670(3) 1.009870(9) 0.18018(2)
Cd1B_2 Cd 0.88670(3) 1.009870(9) 1.18018(2)
Cd1_2 Cd 1.11330(3) 0.990130(9) 0.81982(2)
Cd1_3 Cd 0.11330(3) 0.990130(9) 0.81982(2)
Cd2_2 Cd 1.5000 1.0000 1.0000
Cd3B Cd 0.55252(3) 1.105040(8) 0.18943(2)
Cd3C Cd 0.94748(3) 0.605040(8) 2.31057(2)
Cd3_2 Cd 0.44748(3) 0.894960(8) 1.81057(2)
Cd3_3 Cd 0.44748(3) 0.894960(8) 0.81057(2)
Cd3B_2 Cd 1.55252(3) 1.105040(8) 0.18943(2)
Cd3B_3 Cd 1.55252(3) 1.105040(8) 1.18943(2)
Cd3B_4 Cd 0.55252(3) 1.105040(8) 1.18943(2)
Cd3C_2 Cd 1.94748(3) 0.605040(8) 1.31057(2)
C1B C 1.1572(5) 1.16416(12) 0.5847(3)
C2B C 1.0366(5) 1.14339(12) 0.5028(3)
H1B H 0.9141 1.1493 0.4928
C3B C 1.0981(5) 1.11367(12) 0.4353(3)
C4B C 1.2832(6) 1.10461(12) 0.4527(3)
C5B C 1.4004(5) 1.12582(14) 0.5353(3)
H2B H 1.5230 1.1197 0.5467
C6B C 1.3398(5) 1.15586(13) 0.6013(3)
H3B H 1.4203 1.1703 0.6559
C7B C 0.9618(5) 1.09115(13) 0.3476(3)
C8B C 1.3633(7) 1.07156(17) 0.3849(4)
C9B C 0.9962(5) 1.16215(11) 0.7572(3)
C10B C 1.1167(5) 1.13880(11) 0.8347(3)
H4B H 1.2397 1.1436 0.8429
C11B C 1.0549(5) 1.10819(11) 0.9006(3)
C12B C 0.8690(5) 1.10155(11) 0.8879(3)
C13B C 0.7506(5) 1.12506(12) 0.8080(3)
H5B H 0.6273 1.1202 0.7982
C14B C 0.8129(5) 1.15543(12) 0.7430(3)
H6B H 0.7326 1.1711 0.6904
C15B C 1.1965(4) 1.08351(11) 0.9812(3)
C16B C 0.7922(5) 1.07103(12) 0.9603(3)
C17C C 1.9525(5) 0.68347(13) 1.4885(3)
H7C H 2.0752 0.6782 1.4967
C18C C 1.8991(5) 0.71687(14) 1.5501(3)
H8C H 1.9849 0.7332 1.5984
C19C C 1.7182(5) 0.72609(12) 1.5402(3)
C20C C 1.6004(6) 0.70066(14) 1.4657(3)
H9C H 1.4772 0.7059 1.4547
C21C C 1.6637(6) 0.66757(14) 1.4072(3)
H10C H 1.5806 0.6509 1.3581
C22C C 1.6542(5) 0.76099(12) 1.6069(3)
C23C C 1.7708(6) 0.78474(14) 1.6861(3)
H11C H 1.8934 0.7784 1.7005
C24C C 1.7064(6) 0.81747(14) 1.7430(3)
H12C H 1.7888 0.8331 1.7946
C25C C 1.4179(5) 0.80507(13) 1.6546(3)
H13C H 1.2955 0.8112 1.6443
C26C C 1.4729(5) 0.77219(13) 1.5919(3)
H14C H 1.3883 0.7576 1.5396
H15B H 0.7636 0.9558 0.3004
H16B H 0.9607 0.9551 0.3453
H17B H 1.2328 1.0303 0.2119
H18B H 1.2356 0.9881 0.1442
N1C N 1.8389(4) 0.65829(10) 1.4179(2)
N1B N 0.6611(4) 1.15829(10) 0.0821(2)
N2C N 1.5323(4) 0.82833(10) 1.7291(2)
N2A N 0.4677(4) 1.17167(10) 0.2709(2)
O1B O 0.8279(5) 1.11368(11) 0.3069(3)
O2B O 0.9968(4) 1.05079(11) 0.3271(3)
O3B O 1.3443(4) 1.07919(10) 0.2909(2)
O3_2 O 1.6557(4) 0.92081(10) 1.7091(2)
O3B_2 O 0.3443(4) 1.07919(10) 0.2909(2)
O4B O 1.4405(11) 1.0381(2) 0.4327(4)
O5B O 1.2234(3) 1.04106(8) 0.96342(19)
O5B_2 O 1.2234(3) 1.04106(8) 1.96342(19)
O5B_3 O 0.2234(3) 1.04106(8) 0.96342(19)
O5_2 O 0.7766(3) 0.95894(8) 0.03658(19)
O6B O 1.2856(3) 1.10641(8) 1.0547(2)
O6_2 O 1.7144(3) 0.89359(8) 1.9453(2)
O6B_2 O 0.2856(3) 1.10641(8) 0.0547(2)
O7B O 0.8974(4) 1.05962(9) 1.0444(2)
O7_2 O 1.1026(4) 0.94038(9) 1.9556(2)
O7B_2 O 0.8974(4) 1.05962(9) 0.0444(2)
O8B O 0.6299(4) 1.05986(9) 0.9310(2)
O8_2 O 0.3701(4) 0.94014(9) 1.0690(2)
O9B O 1.2299(4) 1.22464(9) 0.7336(2)
O10B O 0.9241(4) 1.22555(9) 0.6147(2)
O11B O 0.5997(3) 1.03164(9) 1.1586(2)
O11_2 O 1.4003(3) 0.96836(9) 1.8414(2)
O11B_2 O 0.5997(3) 1.03164(9) 0.1586(2)
O12B O 1.1811(4) 1.00770(9) 0.1755(2)
O13B O 0.8712(5) 0.95064(10) 0.2932(2)
S1B S 1.07698(13) 1.20047(3) 0.67277(7)
H19B H 0.570(6) 1.0189(15) 1.194(3)
H19_2 H 1.430(6) 0.9811(15) 1.806(3)
H19B_2 H 0.570(6) 1.0189(15) 0.194(3)
O14 O 0.4754(5) 0.03301(13) 0.6851(3)
O15 O 0.8414(7) 0.03585(19) 0.5421(4)
loop_
_geom_bond_atom_site_label_1
_geom_bond_atom_site_label_2
_geom_bond_site_symmetry_1
_geom_bond_site_symmetry_2
Cd1 O2 1_555 1_555
Cd2 O5 1_555 1_555
Cd3 N1 1_555 1_555
C1 C2 1_555 1_555
C2 H1 1_555 1_555
C3 C2 1_555 1_555
C4 C3 1_555 1_555
C5 C4 1_555 1_555
H2 C5 1_555 1_555
C6 C1 1_555 1_555
H3 C6 1_555 1_555
C7 C3 1_555 1_555
C8 C4 1_555 1_555
C9 C10 1_555 1_555
C10 H4 1_555 1_555
C11 C10 1_555 1_555
C12 C11 1_555 1_555
C13 C12 1_555 1_555
H5 C13 1_555 1_555
C14 C9 1_555 1_555
H6 C14 1_555 1_555
C15 C11 1_555 1_555
C16 C12 1_555 1_555
C17 H7 1_555 1_555
C18 C17 1_555 1_555
H8 C18 1_555 1_555
C19 C18 1_555 1_555
C20 C19 1_555 1_555
H9 C20 1_555 1_555
C21 C20 1_555 1_555
H10 C21 1_555 1_555
C22 C19 1_555 1_555
C23 C22 1_555 1_555
H11 C23 1_555 1_555
C24 C23 1_555 1_555
H12 C24 1_555 1_555
C25 H13 1_555 1_555
C26 C22 1_555 1_555
H14 C26 1_555 1_555
H15 O13 1_555 1_555
H16 O13 1_555 1_555
H17 O12 1_555 1_555
H18 O12 1_555 1_555
N1 C17 1_555 1_555
N2 C24 1_555 1_555
O1 Cd3 1_555 1_555
O2 C7 1_555 1_555
O3 C8 1_555 1_555
O4 C8 1_555 1_555
O5 C15 1_555 1_555
O6 C15 1_555 1_555
O7 C16 1_555 1_555
O8 C16 1_555 1_555
O9 S1 1_555 1_555
O10 S1 1_555 1_555
O11 Cd2 1_555 1_555
O12 Cd1 1_555 1_555
O13 Cd1 1_555 1_555
S1 C1 1_555 1_555
H19 O11 1_555 1_555
Cd1B O2B 1_555 1_555
Cd1B_2 O5 1_555 1_555
Cd1_2 O7 1_555 1_555
Cd1_3 O11 1_555 1_555
Cd2_2 O8 1_555 1_555
Cd3B N1B 1_555 1_555
Cd3C N2 1_555 1_555
Cd3_2 O3 1_555 1_555
Cd3_3 O6 1_555 1_555
Cd3B_2 O3B 1_555 1_555
Cd3B_3 O6B 1_555 1_555
Cd3B_4 O11B 1_555 1_555
Cd3C_2 N1C 1_555 1_555
C1B C2B 1_555 1_555
C2B H1B 1_555 1_555
C3B C2B 1_555 1_555
C4B C3B 1_555 1_555
C5B C4B 1_555 1_555
H2B C5B 1_555 1_555
C6B C1B 1_555 1_555
H3B C6B 1_555 1_555
C7B C3B 1_555 1_555
C8B C4B 1_555 1_555
C9B C10B 1_555 1_555
C10B H4B 1_555 1_555
C11B C10B 1_555 1_555
C12B C11B 1_555 1_555
C13B C12B 1_555 1_555
H5B C13B 1_555 1_555
C14B C9B 1_555 1_555
H6B C14B 1_555 1_555
C15B C11B 1_555 1_555
C16B C12B 1_555 1_555
C17C H7C 1_555 1_555
C18C C17C 1_555 1_555
H8C C18C 1_555 1_555
C19C C18C 1_555 1_555
C20C C19C 1_555 1_555
H9C C20C 1_555 1_555
C21C C20C 1_555 1_555
H10C C21C 1_555 1_555
C22C C19C 1_555 1_555
C23C C22C 1_555 1_555
H11C C23C 1_555 1_555
C24C C23C 1_555 1_555
H12C C24C 1_555 1_555
C25C H13C 1_555 1_555
C26C C22C 1_555 1_555
H14C C26C 1_555 1_555
H15B O13B 1_555 1_555
H16B O13B 1_555 1_555
H17B O12B 1_555 1_555
H18B O12B 1_555 1_555
N1C C17C 1_555 1_555
N2C Cd3 1_555 1_555
N2A Cd3B 1_555 1_555
O1B Cd3B 1_555 1_555
O2B C7B 1_555 1_555
O3B C8B 1_555 1_555
O3_2 Cd3 1_555 1_555
O3B_2 Cd3B 1_555 1_555
O4B C8B 1_555 1_555
O5B Cd1_2 1_555 1_555
O5B_2 Cd1 1_555 1_555
O5B_3 Cd2 1_555 1_555
O5_2 Cd1B 1_555 1_555
O6B C15B 1_555 1_555
O6_2 Cd3 1_555 1_555
O6B_2 Cd3B 1_555 1_555
O7B Cd1B_2 1_555 1_555
O7_2 Cd1 1_555 1_555
O7B_2 Cd1B 1_555 1_555
O8B Cd2 1_555 1_555
O8_2 Cd2 1_555 1_555
O9B S1B 1_555 1_555
O10B S1B 1_555 1_555
O11B Cd2 1_555 1_555
O11_2 Cd1 1_555 1_555
O11B_2 Cd1B 1_555 1_555
O12B Cd1B 1_555 1_555
O13B Cd1B 1_555 1_555
S1B C1B 1_555 1_555
H19B O11B 1_555 1_555
H19_2 O11_2 1_555 1_555
H19B_2 O11B_2 1_555 1_555
Cd3 O11_2 1_555 1_555
C5 C6 1_555 1_555
C7 O1 1_555 1_555
C9 S1 1_555 1_555
C13 C14 1_555 1_555
C21 N1 1_555 1_555
C25 C26 1_555 1_555
C25 N2 1_555 1_555
O11 Cd3_3 1_555 1_555
Cd1B_2 O11B 1_555 1_555
Cd1_3 O5B_3 1_555 1_555
Cd2_2 O5B 1_555 1_555
Cd3B O11B_2 1_555 1_555
C5B C6B 1_555 1_555
C7B O1B 1_555 1_555
C9B S1B 1_555 1_555
C13B C14B 1_555 1_555
C15B O5B 1_555 1_555
C16B O7B 1_555 1_555
C16B O8B 1_555 1_555
C21C N1C 1_555 1_555
C24C N2C 1_555 1_555
C25C C26C 1_555 1_555
C25C N2C 1_555 1_555

#END
