
#######################################################################
#
#                 Cambridge Crystallographic Data Centre
#                                CCDC 
#
#######################################################################
#
# If this CIF has been generated from an entry in the Cambridge 
# Structural Database, then it will include bibliographic, chemical, 
# crystal, experimental, refinement or atomic coordinate data resulting 
# from the CCDC's data processing and validation procedures.
#
#######################################################################

data_ELEDUV
_symmetry_cell_setting           orthorhombic
_symmetry_space_group_name_H-M   'P n a 21'
_symmetry_Int_Tables_number      33
_space_group_name_Hall           'P 2c -2n'
loop_
_symmetry_equiv_pos_site_id
_symmetry_equiv_pos_as_xyz
1 x,y,z
2 -x,-y,1/2+z
3 1/2-x,1/2+y,1/2+z
4 1/2+x,1/2-y,z
_cell_length_a                   18.766
_cell_length_b                   19.365
_cell_length_c                   19.286
_cell_angle_alpha                90
_cell_angle_beta                 90
_cell_angle_gamma                90
_cell_volume                     7008.6
loop_
_atom_site_label
_atom_site_type_symbol
_atom_site_fract_x
_atom_site_fract_y
_atom_site_fract_z
Cu1 Cu -0.22136(7) 0.50133(7) -0.01135(8)
N1 N -0.2970(5) 0.5735(5) 0.0026(5)
N2 N 0.2073(5) 0.0724(5) 0.0160(6)
N3 N -0.1589(5) 0.4254(5) -0.0482(6)
N4 N -0.6594(5) 0.9278(4) -0.0588(6)
N5 N -0.4726(6) 0.7578(5) 0.0902(6)
N6 N -0.5258(6) 0.8053(5) 0.0708(6)
N7 N 0.0563(5) 0.2819(5) 0.0911(6)
N8 N 0.0033(6) 0.3268(5) 0.0707(6)
C1 C -0.3726(6) 0.6357(7) 0.0800(7)
H3 H -0.3879 0.6457 0.1259
C2 C -0.3209(6) 0.5860(6) 0.0685(6)
H4 H -0.3020 0.5606 0.1063
C3 C -0.3250(6) 0.6083(6) -0.0499(7)
H5 H -0.3079 0.5995 -0.0954
C4 C -0.3772(7) 0.6563(6) -0.0412(7)
H6 H -0.3966 0.6798 -0.0801
C5 C -0.4016(6) 0.6705(6) 0.0246(7)
C6 C -0.4556(6) 0.7242(6) 0.0352(7)
C7 C -0.5345(6) 0.7966(6) 0.0056(7)
C8 C -0.5792(6) 0.8329(6) -0.0436(6)
C9 C -0.5885(6) 0.8135(7) -0.1124(8)
H7 H -0.5650 0.7739 -0.1303
C10 C -0.6325(7) 0.8527(8) -0.1543(8)
H8 H -0.6400 0.8403 -0.2014
C11 C -0.6659(7) 0.9112(7) -0.1258(8)
H9 H -0.6940 0.9398 -0.1551
C12 C -0.6162(6) 0.8907(6) -0.0198(7)
H10 H -0.6099 0.9042 0.0272
C13 C 0.1012(7) 0.1337(6) -0.0171(7)
H11 H 0.0606 0.1368 -0.0464
C14 C 0.1503(7) 0.0773(7) -0.0236(7)
H12 H 0.1415 0.0427 -0.0574
C15 C 0.2183(7) 0.1194(6) 0.0642(7)
H13 H 0.2587 0.1149 0.0936
C16 C 0.1726(7) 0.1759(6) 0.0736(8)
H14 H 0.1820 0.2092 0.1086
C17 C 0.1138(6) 0.1822(6) 0.0313(7)
C18 C 0.0658(6) 0.2414(6) 0.0390(8)
C19 C -0.0155(7) 0.3102(6) 0.0093(8)
C20 C -0.0699(6) 0.3392(7) -0.0336(7)
C21 C -0.0871(7) 0.3125(7) -0.0976(8)
H15 H -0.0634 0.2723 -0.1141
C22 C -0.1387(8) 0.3438(7) -0.1383(8)
H16 H -0.1496 0.3272 -0.1834
C23 C -0.1737(7) 0.3999(7) -0.1107(7)
H17 H -0.2099 0.4214 -0.1374
C24 C -0.1070(6) 0.3979(6) -0.0105(8)
H18 H -0.0946 0.4183 0.0326
O41 O -0.4921(4) 0.7453(4) -0.0213(4)
O42 O 0.0233(4) 0.2554(4) -0.0149(4)
O44 O -0.1784(5) 0.5107(4) 0.0957(5)
Cu1C Cu -0.72136(7) 0.99867(7) -0.01135(8)
Cu1C_2 Cu 0.27864(7) -0.00133(7) -0.01135(8)
N2C N -0.2927(5) 0.4276(5) 0.0160(6)
N4C N -0.1594(5) 0.5722(4) -0.0588(6)
Si1 Si -0.23832(18) -0.01262(17) -0.02928(18)
W1 W -0.27480(3) -0.08005(3) 0.13648(3)
W2 W -0.41746(3) -0.01063(3) 0.02708(3)
W3 W -0.37836(3) 0.04969(3) -0.13290(3)
W4 W -0.19345(4) 0.04771(3) -0.19594(3)
W5 W -0.06185(3) -0.01745(3) -0.09466(3)
W6 W -0.10399(3) -0.08191(3) 0.07870(3)
W7 W -0.22547(3) -0.19064(2) 0.00817(3)
W8 W -0.36915(3) -0.12222(3) -0.10022(3)
W9 W -0.18545(3) -0.12419(3) -0.16536(3)
W10 W -0.28389(3) 0.10539(3) 0.10331(3)
W11 W -0.24712(3) 0.16784(3) -0.05708(3)
W12 W -0.11403(3) 0.10374(3) 0.04261(3)
O1 O -0.2183(5) -0.0715(4) 0.0274(5)
O2 O -0.3207(5) -0.0209(4) -0.0523(5)
O3 O -0.1878(5) -0.0229(5) -0.0984(5)
O4 O -0.2265(5) 0.0640(4) 0.0017(5)
O5 O -0.3618(5) -0.0664(4) 0.0875(5)
O6 O -0.4421(6) 0.0430(5) -0.0538(6)
O7 O -0.2956(5) 0.0378(5) -0.1864(5)
O8 O -0.0944(6) 0.0376(6) -0.1729(6)
O9 O -0.0690(5) -0.0703(5) -0.0135(5)
O10 O -0.1738(5) -0.0866(5) 0.1515(5)
O11 O -0.2678(5) -0.1723(5) 0.0975(5)
O12 O -0.4324(5) -0.0922(5) -0.0276(5)
O13 O -0.4036(5) -0.0444(4) -0.1546(5)
O14 O -0.1932(6) -0.0461(5) -0.2280(6)
O15 O -0.0883(5) -0.0980(5) -0.1486(6)
O16 O -0.1357(5) -0.1732(5) 0.0509(6)
O17 O -0.2656(5) 0.0163(5) 0.1393(5)
O18 O -0.3671(5) 0.0660(5) 0.0631(5)
O19 O -0.3312(5) 0.1240(5) -0.0890(5)
O20 O -0.2024(5) 0.1219(5) -0.1344(6)
O21 O -0.0750(5) 0.0618(5) -0.0394(4)
O22 O -0.1055(5) 0.0156(5) 0.0838(5)
O23 O -0.3155(5) -0.1718(5) -0.0351(5)
O24 O -0.2870(5) -0.1229(5) -0.1563(5)
O25 O -0.1848(5) -0.1727(5) -0.0803(5)
O26 O -0.2892(6) 0.1751(5) 0.0324(5)
O27 O -0.1539(6) 0.1750(5) -0.0146(5)
O28 O -0.1846(5) 0.1261(5) 0.1109(5)
O29 O -0.3037(6) -0.1014(5) 0.2170(5)
O30 O -0.4963(5) -0.0071(5) 0.0694(6)
O31 O -0.4336(6) 0.0921(6) -0.1900(6)
O32 O -0.1849(7) 0.0880(5) -0.2736(5)
O33 O 0.0269(5) -0.0152(5) -0.1103(5)
O34 O -0.0297(5) -0.1027(5) 0.1227(5)
O35 O -0.4193(5) -0.1846(5) -0.1364(5)
O36 O -0.1717(6) -0.1896(6) -0.2235(6)
O37 O -0.2254(5) -0.2782(5) 0.0133(6)
O38 O -0.3149(5) 0.1498(5) 0.1723(5)
O39 O -0.2579(6) 0.2498(5) -0.0856(6)
O40 O -0.0447(6) 0.1477(6) 0.0755(5)
N9 N 0.0025(7) 0.1956(7) -0.2338(8)
H1 H -0.0421 0.2032 -0.2456
N10 N 0.0412(8) -0.2592(7) -0.2767(7)
H2 H 0.0250 -0.3014 -0.2831
N11 N 0.1822(6) 0.0217(7) -0.1945(6)
N12 N 0.1794(7) -0.0493(9) -0.2078(7)
C25 C 0.0249(9) 0.1310(8) -0.2311(8)
H19 H -0.0078 0.0944 -0.2392
C26 C 0.0448(10) 0.2511(9) -0.2192(10)
H20 H 0.0273 0.2972 -0.2204
C27 C 0.1155(10) 0.2357(10) -0.2025(9)
H21 H 0.1466 0.2722 -0.1893
C28 C 0.1405(11) 0.1714(10) -0.2044(10)
H22 H 0.1899 0.1630 -0.1973
C29 C 0.0942(9) 0.1161(9) -0.2167(8)
C30 C 0.1213(9) 0.0472(9) -0.2189(8)
C31 C 0.1220(7) -0.0638(9) -0.2368(8)
C32 C 0.0942(9) -0.1288(8) -0.2529(7)
C33 C 0.0205(8) -0.1406(8) -0.2635(9)
H23 H -0.0116 -0.1027 -0.2627
C34 C -0.0056(10) -0.2068(9) -0.2751(8)
H24 H -0.0551 -0.2147 -0.2817
C35 C 0.1106(8) -0.2500(7) -0.2692(8)
H25 H 0.1414 -0.2888 -0.2720
C36 C 0.1389(10) -0.1863(9) -0.2575(8)
H26 H 0.1889 -0.1810 -0.2525
O43 O 0.0791(5) -0.0042(5) -0.2456(5)
O45 O -0.1541(6) 0.4173(6) 0.1970(6)
O46 O 0.0083(6) -0.3990(6) -0.2981(6)
O47 O -0.1253(7) 0.6251(6) 0.1646(7)
O48 O -0.0635(9) -0.5044(9) -0.2312(9)
O49 O -0.2427(8) -0.2748(7) 0.2005(7)
O50 O -0.1168(8) 0.2448(8) -0.2775(9)
O51 O -0.5381(16) 0.1096(15) -0.2917(15)
loop_
_geom_bond_atom_site_label_1
_geom_bond_atom_site_label_2
_geom_bond_site_symmetry_1
_geom_bond_site_symmetry_2
Cu1 N1 1_555 1_555
Si1 O1 1_555 1_555
W1 O1 1_555 1_555
W2 O2 1_555 1_555
W3 O2 1_555 1_555
W4 O3 1_555 1_555
W5 O3 1_555 1_555
W6 O1 1_555 1_555
W7 O1 1_555 1_555
W8 O2 1_555 1_555
W9 O3 1_555 1_555
W10 O4 1_555 1_555
W11 O4 1_555 1_555
W12 O4 1_555 1_555
N1 C2 1_555 1_555
N2 C14 1_555 1_555
N3 Cu1 1_555 1_555
N4 C11 1_555 1_555
N5 N6 1_555 1_555
N6 C7 1_555 1_555
N7 N8 1_555 1_555
N8 C19 1_555 1_555
N9 H1 1_555 1_555
N10 H2 1_555 1_555
N11 N12 1_555 1_555
N12 C31 1_555 1_555
C1 H3 1_555 1_555
C2 C1 1_555 1_555
H4 C2 1_555 1_555
C3 N1 1_555 1_555
H5 C3 1_555 1_555
C4 C3 1_555 1_555
H6 C4 1_555 1_555
C5 C1 1_555 1_555
C6 N5 1_555 1_555
C7 C8 1_555 1_555
C8 C9 1_555 1_555
C9 H7 1_555 1_555
C10 C9 1_555 1_555
H8 C10 1_555 1_555
C11 C10 1_555 1_555
H9 C11 1_555 1_555
C12 N4 1_555 1_555
H10 C12 1_555 1_555
C13 H11 1_555 1_555
C14 C13 1_555 1_555
H12 C14 1_555 1_555
C15 N2 1_555 1_555
H13 C15 1_555 1_555
C16 C15 1_555 1_555
H14 C16 1_555 1_555
C17 C13 1_555 1_555
C18 N7 1_555 1_555
C19 C20 1_555 1_555
C20 C21 1_555 1_555
C21 H15 1_555 1_555
C22 C21 1_555 1_555
H16 C22 1_555 1_555
C23 N3 1_555 1_555
H17 C23 1_555 1_555
C24 N3 1_555 1_555
H18 C24 1_555 1_555
C25 N9 1_555 1_555
H19 C25 1_555 1_555
C26 N9 1_555 1_555
H20 C26 1_555 1_555
C27 C26 1_555 1_555
H21 C27 1_555 1_555
C28 C27 1_555 1_555
H22 C28 1_555 1_555
C29 C25 1_555 1_555
C30 N11 1_555 1_555
C31 C32 1_555 1_555
C32 C33 1_555 1_555
C33 H23 1_555 1_555
C34 N10 1_555 1_555
H24 C34 1_555 1_555
C35 N10 1_555 1_555
H25 C35 1_555 1_555
C36 C32 1_555 1_555
H26 C36 1_555 1_555
O2 Si1 1_555 1_555
O3 Si1 1_555 1_555
O4 Si1 1_555 1_555
O5 W1 1_555 1_555
O6 W2 1_555 1_555
O7 W3 1_555 1_555
O8 W4 1_555 1_555
O9 W5 1_555 1_555
O10 W1 1_555 1_555
O11 W1 1_555 1_555
O12 W2 1_555 1_555
O13 W3 1_555 1_555
O14 W4 1_555 1_555
O15 W5 1_555 1_555
O16 W6 1_555 1_555
O17 W1 1_555 1_555
O18 W2 1_555 1_555
O19 W3 1_555 1_555
O20 W4 1_555 1_555
O21 W5 1_555 1_555
O22 W6 1_555 1_555
O23 W7 1_555 1_555
O24 W8 1_555 1_555
O25 W7 1_555 1_555
O26 W10 1_555 1_555
O27 W11 1_555 1_555
O28 W10 1_555 1_555
O29 W1 1_555 1_555
O30 W2 1_555 1_555
O31 W3 1_555 1_555
O32 W4 1_555 1_555
O33 W5 1_555 1_555
O34 W6 1_555 1_555
O35 W8 1_555 1_555
O36 W9 1_555 1_555
O37 W7 1_555 1_555
O38 W10 1_555 1_555
O39 W11 1_555 1_555
O40 W12 1_555 1_555
O41 C6 1_555 1_555
O42 C18 1_555 1_555
O43 C30 1_555 1_555
O44 Cu1 1_555 1_555
Cu1C N4 1_555 1_555
Cu1C_2 N2 1_555 1_555
N2C Cu1 1_555 1_555
N4C Cu1 1_555 1_555
W2 O5 1_555 1_555
W3 O6 1_555 1_555
W4 O7 1_555 1_555
W5 O8 1_555 1_555
W6 O9 1_555 1_555
W6 O10 1_555 1_555
W7 O11 1_555 1_555
W7 O16 1_555 1_555
W8 O12 1_555 1_555
W8 O13 1_555 1_555
W8 O23 1_555 1_555
W9 O14 1_555 1_555
W9 O15 1_555 1_555
W9 O24 1_555 1_555
W9 O25 1_555 1_555
W10 O17 1_555 1_555
W10 O18 1_555 1_555
W11 O19 1_555 1_555
W11 O20 1_555 1_555
W11 O26 1_555 1_555
W12 O21 1_555 1_555
W12 O22 1_555 1_555
W12 O27 1_555 1_555
W12 O28 1_555 1_555
C4 C5 1_555 1_555
C5 C6 1_555 1_555
C7 O41 1_555 1_555
C8 C12 1_555 1_555
C16 C17 1_555 1_555
C17 C18 1_555 1_555
C19 O42 1_555 1_555
C20 C24 1_555 1_555
C22 C23 1_555 1_555
C28 C29 1_555 1_555
C29 C30 1_555 1_555
C31 O43 1_555 1_555
C33 C34 1_555 1_555
C35 C36 1_555 1_555

#END
