
#######################################################################
#
#                 Cambridge Crystallographic Data Centre
#                                CCDC 
#
#######################################################################
#
# If this CIF has been generated from an entry in the Cambridge 
# Structural Database, then it will include bibliographic, chemical, 
# crystal, experimental, refinement or atomic coordinate data resulting 
# from the CCDC's data processing and validation procedures.
#
#######################################################################

data_ELEFOR
_symmetry_cell_setting           monoclinic
_symmetry_space_group_name_H-M   'P 2/c'
_symmetry_Int_Tables_number      13
_space_group_name_Hall           '-P 2yc'
loop_
_symmetry_equiv_pos_site_id
_symmetry_equiv_pos_as_xyz
1 x,y,z
2 -x,y,1/2-z
3 -x,-y,-z
4 x,-y,1/2+z
_cell_length_a                   15.6251(6)
_cell_length_b                   10.8492(4)
_cell_length_c                   14.7939(6)
_cell_angle_alpha                90
_cell_angle_beta                 112.5430(10)
_cell_angle_gamma                90
_cell_volume                     2316.24
loop_
_atom_site_label
_atom_site_type_symbol
_atom_site_fract_x
_atom_site_fract_y
_atom_site_fract_z
Cu1 Cu 0.51477(9) -0.18499(6) 0.63106(6)
C1 C 0.4405(4) 0.0511(5) 0.6093(5)
H1 H 0.3861 0.0069 0.5968
C2 C 0.4355(3) 0.1789(4) 0.6071(4)
H2 H 0.3792 0.2185 0.5940
C3 C 0.5149(3) 0.2465(4) 0.6244(3)
C4 C 0.5956(3) 0.1805(5) 0.6438(4)
H3 H 0.6512 0.2216 0.6562
C5 C 0.5935(4) 0.0539(5) 0.6447(5)
H4 H 0.6488 0.0118 0.6576
C6 C 0.5132(3) 0.3826(4) 0.6259(3)
C7 C 0.4341(4) 0.4495(4) 0.5751(4)
H5 H 0.3793 0.4087 0.5387
C8 C 0.4361(4) 0.5764(5) 0.5781(5)
H6 H 0.3819 0.6193 0.5430
C9 C 0.5899(4) 0.4508(5) 0.6787(4)
H7 H 0.6446 0.4106 0.7162
C10 C 0.5874(5) 0.5782(5) 0.6773(5)
H8 H 0.6415 0.6214 0.7120
N1 N 0.5181(4) -0.0114(4) 0.6283(3)
N2 N 0.5121(4) 0.6401(4) 0.6290(3)
Cu1_2 Cu 0.51477(9) -1.18499(6) 0.63106(6)
Cu1_3 Cu 0.51477(9) 0.81501(6) 0.63106(6)
C1_2 C 0.4405(4) -0.9489(5) 0.6093(5)
H1_2 H 0.3861 -0.9931 0.5968
C2_2 C 0.4355(3) -0.8211(4) 0.6071(4)
H2_2 H 0.3792 -0.7815 0.5940
C3_2 C 0.5149(3) -0.7535(4) 0.6244(3)
C4_2 C 0.5956(3) -0.8195(5) 0.6438(4)
H3_2 H 0.6512 -0.7784 0.6562
C5_2 C 0.5935(4) -0.9461(5) 0.6447(5)
H4_2 H 0.6488 -0.9882 0.6576
C6_2 C 0.5132(3) -0.6174(4) 0.6259(3)
C7_2 C 0.4341(4) -0.5505(4) 0.5751(4)
H5_2 H 0.3793 -0.5913 0.5387
C8_2 C 0.4361(4) -0.4236(5) 0.5781(5)
H6_2 H 0.3819 -0.3807 0.5430
C9_2 C 0.5899(4) -0.5492(5) 0.6787(4)
H7_2 H 0.6446 -0.5894 0.7162
C10_2 C 0.5874(5) -0.4218(5) 0.6773(5)
H8_2 H 0.6415 -0.3786 0.7120
N1_2 N 0.5181(4) -1.0114(4) 0.6283(3)
N2_2 N 0.5121(4) -0.3599(4) 0.6290(3)
N2_3 N 0.5121(4) -1.3599(4) 0.6290(3)
Cu2 Cu 1.0000 0.5000 0.5000
C11 C 1.1732(3) 0.3948(4) 0.6247(4)
H9 H 1.2185 0.3303 0.6323
H10 H 1.1737 0.4146 0.6889
C12 C 1.1973(3) 0.5075(4) 0.5798(4)
H11 H 1.2533 0.5453 0.6259
H12 H 1.2078 0.4849 0.5215
N3 N 1.1190(2) 0.5947(3) 0.5546(3)
H13 H 1.1218 0.6494 0.5101
H14 H 1.1221 0.6364 0.6084
N4 N 1.0809(3) 0.3524(3) 0.5604(3)
H15 H 1.0555 0.3078 0.5949
H16 H 1.0854 0.3041 0.5129
C11B C 0.8268(3) 0.6052(4) 0.3753(4)
H9B H 0.7815 0.6697 0.3677
H10B H 0.8263 0.5854 0.3111
C12B C 0.8027(3) 0.4925(4) 0.4202(4)
H11B H 0.7467 0.4547 0.3741
H12B H 0.7922 0.5151 0.4785
N3B N 0.8810(2) 0.4053(3) 0.4454(3)
H13B H 0.8782 0.3506 0.4899
H14B H 0.8779 0.3636 0.3916
N4B N 0.9191(3) 0.6476(3) 0.4396(3)
H15B H 0.9445 0.6922 0.4051
H16B H 0.9146 0.6959 0.4871
Mo1 Mo 1.0000 0.62649(4) 0.7500
Mo2 Mo 1.19213(2) 0.80713(3) 0.83605(2)
Mo3 Mo 1.12486(3) 1.10516(3) 0.82611(3)
P1 P 1.01027(7) 0.89639(9) 0.62769(7)
O1 O 1.08838(18) 0.9281(2) 0.72574(19)
O2 O 1.0540(2) 0.8498(3) 0.5554(2)
O3 O 0.9523(2) 1.0108(2) 0.58668(19)
O4 O 0.95036(18) 0.7904(2) 0.63931(18)
O5 O 0.9679(2) 0.5296(3) 0.6519(2)
O6 O 0.88318(18) 0.6789(2) 0.74984(19)
O7 O 1.2399(2) 0.7244(3) 0.9406(2)
O8 O 1.2763(2) 0.8121(3) 0.7890(2)
O9 O 1.20527(19) 0.9702(3) 0.8909(2)
O10 O 1.1772(2) 1.1580(3) 0.7517(2)
O11 O 1.1567(2) 1.2118(3) 0.9183(2)
O12 O 1.0000 1.1482(4) 0.7500
Mo2A Mo 0.80787(2) 0.80713(3) 0.66395(2)
Mo3A Mo 0.87514(3) 1.10516(3) 0.67389(3)
P1A P 0.98973(7) 0.89639(9) 0.87231(7)
O1A O 0.91162(18) 0.9281(2) 0.77426(19)
O2A O 0.9460(2) 0.8498(3) 0.9446(2)
O3A O 1.0477(2) 1.0108(2) 0.91332(19)
O4A O 1.04964(18) 0.7904(2) 0.86069(18)
O5A O 1.0321(2) 0.5296(3) 0.8481(2)
O6A O 1.11682(18) 0.6789(2) 0.75016(19)
O7A O 0.7601(2) 0.7244(3) 0.5594(2)
O8A O 0.7237(2) 0.8121(3) 0.7110(2)
O9A O 0.79473(19) 0.9702(3) 0.6091(2)
O10A O 0.8228(2) 1.1580(3) 0.7483(2)
O11A O 0.8433(2) 1.2118(3) 0.5817(2)
O13 O 0.7626(3) 0.0588(6) 0.8952(3)
O14 O 0.6834(3) 0.7979(4) 0.8913(3)
O15 O 0.7625(5) 0.4365(7) 0.6248(5)
loop_
_geom_bond_atom_site_label_1
_geom_bond_atom_site_label_2
_geom_bond_site_symmetry_1
_geom_bond_site_symmetry_2
Cu1 N1 1_555 1_555
Cu2 N3 1_555 1_555
Mo1 O4 1_555 1_555
Mo2 O1 1_555 1_555
Mo3 O1 1_555 1_555
P1 O1 1_555 1_555
O2 P1 1_555 1_555
O3 P1 1_555 1_555
O4 P1 1_555 1_555
O5 Mo1 1_555 1_555
O6 Mo1 1_555 1_555
O7 Mo2 1_555 1_555
O8 Mo2 1_555 1_555
O9 Mo2 1_555 1_555
O10 Mo3 1_555 1_555
O11 Mo3 1_555 1_555
O12 Mo3 1_555 1_555
C1 H1 1_555 1_555
C2 C1 1_555 1_555
H2 C2 1_555 1_555
C3 C2 1_555 1_555
C4 C3 1_555 1_555
H3 C4 1_555 1_555
C5 C4 1_555 1_555
H4 C5 1_555 1_555
C6 C3 1_555 1_555
C7 C6 1_555 1_555
H5 C7 1_555 1_555
C8 C7 1_555 1_555
H6 C8 1_555 1_555
C9 C6 1_555 1_555
H7 C9 1_555 1_555
C10 C9 1_555 1_555
H8 C10 1_555 1_555
C11 H9 1_555 1_555
H10 C11 1_555 1_555
C12 C11 1_555 1_555
H11 C12 1_555 1_555
H12 C12 1_555 1_555
N1 C1 1_555 1_555
N2 C8 1_555 1_555
N3 C12 1_555 1_555
H13 N3 1_555 1_555
H14 N3 1_555 1_555
N4 Cu2 1_555 1_555
H15 N4 1_555 1_555
H16 N4 1_555 1_555
Cu1_2 N1_2 1_555 1_555
Cu1_3 N2 1_555 1_555
Mo2A O4 1_555 1_555
Mo3A O3 1_555 1_555
P1A O1A 1_555 1_555
O1A Mo2A 1_555 1_555
O2A P1A 1_555 1_555
O3A Mo3 1_555 1_555
O4A Mo1 1_555 1_555
O5A Mo1 1_555 1_555
O6A Mo1 1_555 1_555
O7A Mo2A 1_555 1_555
O8A Mo2A 1_555 1_555
O9A Mo2A 1_555 1_555
O10A Mo3A 1_555 1_555
O11A Mo3A 1_555 1_555
C1_2 H1_2 1_555 1_555
C2_2 C1_2 1_555 1_555
H2_2 C2_2 1_555 1_555
C3_2 C2_2 1_555 1_555
C4_2 C3_2 1_555 1_555
H3_2 C4_2 1_555 1_555
C5_2 C4_2 1_555 1_555
H4_2 C5_2 1_555 1_555
C6_2 C3_2 1_555 1_555
C7_2 C6_2 1_555 1_555
H5_2 C7_2 1_555 1_555
C8_2 C7_2 1_555 1_555
H6_2 C8_2 1_555 1_555
C9_2 C6_2 1_555 1_555
H7_2 C9_2 1_555 1_555
C10_2 C9_2 1_555 1_555
H8_2 C10_2 1_555 1_555
C11B H9B 1_555 1_555
H10B C11B 1_555 1_555
C12B C11B 1_555 1_555
H11B C12B 1_555 1_555
H12B C12B 1_555 1_555
N1_2 C1_2 1_555 1_555
N2_2 Cu1 1_555 1_555
N2_3 Cu1_2 1_555 1_555
N3B Cu2 1_555 1_555
H13B N3B 1_555 1_555
H14B N3B 1_555 1_555
N4B Cu2 1_555 1_555
H15B N4B 1_555 1_555
H16B N4B 1_555 1_555
Mo2 O4A 1_555 1_555
Mo2 O6A 1_555 1_555
Mo3 O9 1_555 1_555
O6 Mo2A 1_555 1_555
O12 Mo3A 1_555 1_555
C5 N1 1_555 1_555
C10 N2 1_555 1_555
C11 N4 1_555 1_555
Mo3A O1A 1_555 1_555
Mo3A O9A 1_555 1_555
P1A O3A 1_555 1_555
P1A O4A 1_555 1_555
C5_2 N1_2 1_555 1_555
C8_2 N2_2 1_555 1_555
C10_2 N2_2 1_555 1_555
C11B N4B 1_555 1_555
C12B N3B 1_555 1_555

#END
