
#######################################################################
#
#                 Cambridge Crystallographic Data Centre
#                                CCDC 
#
#######################################################################
#
# If this CIF has been generated from an entry in the Cambridge 
# Structural Database, then it will include bibliographic, chemical, 
# crystal, experimental, refinement or atomic coordinate data resulting 
# from the CCDC's data processing and validation procedures.
#
#######################################################################

data_ELEFAD
_symmetry_cell_setting           monoclinic
_symmetry_space_group_name_H-M   'C 2/c'
_symmetry_Int_Tables_number      15
_space_group_name_Hall           '-C 2yn'
loop_
_symmetry_equiv_pos_site_id
_symmetry_equiv_pos_as_xyz
1 x,y,z
2 -x,y,1/2-z
3 1/2+x,1/2+y,z
4 1/2-x,1/2+y,1/2-z
5 -x,-y,-z
6 x,-y,1/2+z
7 1/2-x,1/2-y,-z
8 1/2+x,1/2-y,1/2+z
_cell_length_a                   26.529
_cell_length_b                   20.292
_cell_length_c                   14.004
_cell_angle_alpha                90
_cell_angle_beta                 114.81
_cell_angle_gamma                90
_cell_volume                     6842.93
loop_
_atom_site_label
_atom_site_type_symbol
_atom_site_fract_x
_atom_site_fract_y
_atom_site_fract_z
Si1 Si 0.7500 0.2500 0.0000
W1 W 0.83553(4) 0.12513(5) 0.16957(7)
W2 W 0.80438(4) 0.12340(5) -0.10210(8)
W3 W 0.69979(5) 0.08873(4) -0.01594(8)
W4 W 0.85322(4) 0.28577(5) -0.08998(9)
W5 W 0.71667(4) 0.24546(5) -0.27046(7)
W6 W 0.61360(4) 0.21192(5) -0.18155(7)
O1 O 0.7701(10) 0.1721(13) 0.020(2)
O3 O 0.7042(12) 0.2659(14) -0.110(2)
O5 O 0.8059(10) 0.2947(13) 0.026(2)
O6 O 0.7277(13) 0.2688(16) 0.091(2)
O7 O 0.7667(9) 0.0837(12) 0.1088(17)
O8 O 0.8097(9) 0.1694(10) 0.2586(17)
O9 O 0.8852(8) 0.1953(10) 0.1913(17)
O10 O 0.8442(10) 0.1083(13) 0.0435(19)
O11 O 0.8523(9) 0.1923(10) -0.0958(18)
O12 O 0.8997(13) 0.2817(14) 0.061(2)
O13 O 0.6532(10) 0.2091(12) -0.269(2)
O14 O 0.7898(9) 0.2865(11) -0.215(2)
O15 O 0.6710(12) 0.1306(13) 0.070(2)
O16 O 0.7419(10) 0.0837(13) -0.0942(18)
O17 O 0.7527(10) 0.1624(11) -0.232(2)
O18 O 0.6454(12) 0.1273(13) -0.1335(19)
O19 O 0.8773(9) 0.0670(11) 0.2473(18)
O20 O 0.8293(9) 0.0625(10) -0.1508(16)
O21 O 0.6752(8) 0.0115(8) -0.0272(13)
O22 O 0.9021(7) 0.3004(9) -0.1333(14)
O23 O 0.7029(10) 0.2425(10) -0.3968(16)
O24 O 0.5504(8) 0.1927(10) -0.2688(17)
W1F W 0.66447(4) 0.37487(5) -0.16957(7)
W2F W 0.69562(4) 0.37660(5) 0.10210(8)
W3F W 0.80021(5) 0.41127(4) 0.01594(8)
W4F W 0.64678(4) 0.21423(5) 0.08998(9)
W5F W 0.78333(4) 0.25454(5) 0.27046(7)
W6F W 0.88640(4) 0.28808(5) 0.18155(7)
O1F O 0.7299(10) 0.3279(13) -0.020(2)
O3F O 0.7958(12) 0.2341(14) 0.110(2)
O5F O 0.6941(10) 0.2053(13) -0.026(2)
O6F O 0.7723(13) 0.2312(16) -0.091(2)
O7F O 0.7333(9) 0.4163(12) -0.1088(17)
O8F O 0.6903(9) 0.3306(10) -0.2586(17)
O9F O 0.6148(8) 0.3047(10) -0.1913(17)
O10F O 0.6558(10) 0.3917(13) -0.0435(19)
O11F O 0.6477(9) 0.3077(10) 0.0958(18)
O12F O 0.6003(13) 0.2183(14) -0.061(2)
O13F O 0.8468(10) 0.2909(12) 0.269(2)
O14F O 0.7102(9) 0.2135(11) 0.215(2)
O15F O 0.8290(12) 0.3694(13) -0.070(2)
O16F O 0.7581(10) 0.4163(13) 0.0942(18)
O17F O 0.7473(10) 0.3376(11) 0.232(2)
O18F O 0.8546(12) 0.3727(13) 0.1335(19)
O19F O 0.6227(9) 0.4330(11) -0.2473(18)
O20F O 0.6707(9) 0.4375(10) 0.1508(16)
O21F O 0.8248(8) 0.4885(8) 0.0272(13)
O22F O 0.5979(7) 0.1996(9) 0.1333(14)
O23F O 0.7971(10) 0.2575(10) 0.3968(16)
O24F O 0.9496(8) 0.3073(10) 0.2688(17)
O2 O 0.5927(17) 0.176(2) 0.431(3)
O4 O 0.5030(17) 0.142(2) -0.011(3)
Cu1 Cu 1.0000 0.15902(18) 0.7500
N1 N 1.0812(7) 0.1453(9) 0.8489(11)
N2 N 1.0207(7) 0.1510(9) 0.6274(12)
N3 N 1.3978(13) -0.0724(15) 1.418(2)
H1 H 1.4147 -0.1010 1.4690
N4 N 1.2923(9) 0.1421(11) 1.0704(17)
N5 N 1.3356(7) 0.1155(12) 1.1512(19)
N6 N 1.0067(9) 0.0256(9) 0.3057(14)
C1 C 1.1760(10) 0.1726(12) 0.9127(18)
H2 H 1.2037 0.1998 0.9065
C2 C 1.1227(9) 0.1797(12) 0.8457(18)
H3 H 1.1141 0.2118 0.7918
C3 C 1.0962(10) 0.0972(11) 0.9263(17)
H4 H 1.0677 0.0700 0.9290
C4 C 1.1474(10) 0.0867(11) 0.9962(16)
H5 H 1.1546 0.0537 1.0485
C5 C 1.1912(10) 0.1237(12) 0.994(2)
C6 C 1.2461(10) 0.1156(11) 1.0607(16)
C7 C 1.3144(8) 0.0714(11) 1.1959(19)
C8 C 1.3439(11) 0.0240(15) 1.2749(19)
C9 C 1.3139(12) -0.0189(14) 1.3080(18)
H6 H 1.2748 -0.0153 1.2836
C10 C 1.3429(16) -0.0658(14) 1.376(2)
H7 H 1.3225 -0.0971 1.3959
C11 C 1.429(2) -0.031(2) 1.378(4)
H8 H 1.4665 -0.0388 1.3917
C12 C 1.4008(14) 0.0195(17) 1.321(3)
H9 H 1.4214 0.0552 1.3115
C13 C 0.9990(11) 0.1743(13) 0.448(2)
H10 H 0.9848 0.2049 0.3912
C14 C 1.0005(10) 0.1900(11) 0.5443(18)
H11 H 0.9861 0.2316 0.5518
C15 C 1.0446(8) 0.0939(11) 0.6179(13)
H12 H 1.0630 0.0678 0.6792
C16 C 1.0438(11) 0.0709(13) 0.5225(18)
H13 H 1.0593 0.0295 0.5177
C17 C 1.0187(11) 0.1129(12) 0.4339(18)
C18 C 1.0106(9) 0.0894(12) 0.3309(17)
O25 O 1.2574(5) 0.0701(7) 1.1442(12)
O26 O 1.0000 0.1309(10) 0.2500
O27 O 1.0000 0.2679(12) 0.7500
Cu1_2 Cu 1.0000 0.15902(18) -0.2500
N1A N 0.9188(7) 0.1453(9) 0.6511(11)
N2A N 0.9793(7) 0.1510(9) -0.1274(12)
N2A_2 N 0.9793(7) 0.1510(9) 0.8726(12)
N3A N 0.6022(13) -0.0724(15) 0.082(2)
H1A H 0.5853 -0.1010 0.0310
N4A N 0.7077(9) 0.1421(11) 0.4296(17)
N5A N 0.6644(7) 0.1155(12) 0.3488(19)
N6A N 0.9933(9) 0.0256(9) 0.1943(14)
C1A C 0.8240(10) 0.1726(12) 0.5873(18)
H2A H 0.7963 0.1998 0.5935
C2A C 0.8773(9) 0.1797(12) 0.6543(18)
H3A H 0.8859 0.2118 0.7082
C3A C 0.9038(10) 0.0972(11) 0.5737(17)
H4A H 0.9323 0.0700 0.5710
C4A C 0.8526(10) 0.0867(11) 0.5038(16)
H5A H 0.8454 0.0537 0.4515
C5A C 0.8088(10) 0.1237(12) 0.506(2)
C6A C 0.7539(10) 0.1156(11) 0.4393(16)
C7A C 0.6856(8) 0.0714(11) 0.3041(19)
C8A C 0.6561(11) 0.0240(15) 0.2251(19)
C9A C 0.6861(12) -0.0189(14) 0.1920(18)
H6A H 0.7252 -0.0153 0.2164
C10A C 0.6571(16) -0.0658(14) 0.124(2)
H7A H 0.6775 -0.0971 0.1041
C11A C 0.571(2) -0.031(2) 0.122(4)
H8A H 0.5335 -0.0388 0.1083
C12A C 0.5992(14) 0.0195(17) 0.179(3)
H9A H 0.5786 0.0552 0.1885
C13A C 1.0010(11) 0.1743(13) 0.052(2)
H10A H 1.0152 0.2049 0.1088
C14A C 0.9995(10) 0.1900(11) -0.0443(18)
H11A H 1.0139 0.2316 -0.0518
C15A C 0.9554(8) 0.0939(11) -0.1179(13)
H12A H 0.9370 0.0678 -0.1792
C16A C 0.9562(11) 0.0709(13) -0.0225(18)
H13A H 0.9407 0.0295 -0.0177
C17A C 0.9813(11) 0.1129(12) 0.0661(18)
C18A C 0.9894(9) 0.0894(12) 0.1691(17)
O25A O 0.7426(5) 0.0701(7) 0.3558(12)
loop_
_geom_bond_atom_site_label_1
_geom_bond_atom_site_label_2
_geom_bond_site_symmetry_1
_geom_bond_site_symmetry_2
Cu1 N1 1_555 1_555
Si1 O1 1_555 1_555
W1 O1 1_555 1_555
W2 O1 1_555 1_555
W3 O1 1_555 1_555
W4 O5 1_555 1_555
W5 O3 1_555 1_555
W6 O3 1_555 1_555
N1 C2 1_555 1_555
N2 Cu1 1_555 1_555
N3 H1 1_555 1_555
N4 N5 1_555 1_555
N5 C7 1_555 1_555
N6 C18 1_555 1_555
C1 H2 1_555 1_555
C2 C1 1_555 1_555
H3 C2 1_555 1_555
C3 N1 1_555 1_555
H4 C3 1_555 1_555
C4 C3 1_555 1_555
H5 C4 1_555 1_555
C5 C1 1_555 1_555
C6 N4 1_555 1_555
C7 C8 1_555 1_555
C8 C9 1_555 1_555
C9 H6 1_555 1_555
C10 N3 1_555 1_555
H7 C10 1_555 1_555
C11 N3 1_555 1_555
H8 C11 1_555 1_555
C12 C8 1_555 1_555
H9 C12 1_555 1_555
C13 H10 1_555 1_555
C14 N2 1_555 1_555
H11 C14 1_555 1_555
C15 N2 1_555 1_555
H12 C15 1_555 1_555
C16 C15 1_555 1_555
H13 C16 1_555 1_555
C17 C13 1_555 1_555
C18 C17 1_555 1_555
O1 O3F 1_555 1_555
O3 Si1 1_555 1_555
O5 Si1 1_555 1_555
O6 Si1 1_555 1_555
O7 W1 1_555 1_555
O8 W1 1_555 1_555
O9 W1 1_555 1_555
O10 W1 1_555 1_555
O11 W2 1_555 1_555
O12 W4 1_555 1_555
O13 W5 1_555 1_555
O14 W4 1_555 1_555
O15 W3 1_555 1_555
O16 W2 1_555 1_555
O17 W2 1_555 1_555
O18 W3 1_555 1_555
O19 W1 1_555 1_555
O20 W2 1_555 1_555
O21 W3 1_555 1_555
O22 W4 1_555 1_555
O23 W5 1_555 1_555
O24 W6 1_555 1_555
O25 C6 1_555 1_555
O26 C18 1_555 1_555
O27 Cu1 1_555 1_555
Cu1_2 N2A 1_555 1_555
W1F O3 1_555 1_555
W2F O6 1_555 1_555
W3F O5 1_555 1_555
W4F O6 1_555 1_555
W5F O6 1_555 1_555
W6F O5 1_555 1_555
N1A Cu1 1_555 1_555
N2A C14A 1_555 1_555
N2A_2 Cu1 1_555 1_555
N3A H1A 1_555 1_555
N4A N5A 1_555 1_555
N5A C7A 1_555 1_555
N6A N6 1_555 1_555
C1A H2A 1_555 1_555
C2A N1A 1_555 1_555
H3A C2A 1_555 1_555
C3A N1A 1_555 1_555
H4A C3A 1_555 1_555
C4A C3A 1_555 1_555
H5A C4A 1_555 1_555
C5A C1A 1_555 1_555
C6A N4A 1_555 1_555
C7A C8A 1_555 1_555
C8A C9A 1_555 1_555
C9A H6A 1_555 1_555
C10A N3A 1_555 1_555
H7A C10A 1_555 1_555
C11A N3A 1_555 1_555
H8A C11A 1_555 1_555
C12A C8A 1_555 1_555
H9A C12A 1_555 1_555
C13A H10A 1_555 1_555
C14A C13A 1_555 1_555
H11A C14A 1_555 1_555
C15A N2A 1_555 1_555
H12A C15A 1_555 1_555
C16A C15A 1_555 1_555
H13A C16A 1_555 1_555
C17A C13A 1_555 1_555
C18A O26 1_555 1_555
O1F Si1 1_555 1_555
O3F Si1 1_555 1_555
O5F Si1 1_555 1_555
O6F Si1 1_555 1_555
O7F W1F 1_555 1_555
O8F W5 1_555 1_555
O9F W6 1_555 1_555
O10F W1F 1_555 1_555
O11F W2F 1_555 1_555
O12F W6 1_555 1_555
O13F W5F 1_555 1_555
O14F W4F 1_555 1_555
O15F W4 1_555 1_555
O16F W2F 1_555 1_555
O17F W2F 1_555 1_555
O18F W3F 1_555 1_555
O19F W1F 1_555 1_555
O20F W2F 1_555 1_555
O21F W3F 1_555 1_555
O22F W4F 1_555 1_555
O23F W5F 1_555 1_555
O24F W6F 1_555 1_555
O25A C6A 1_555 1_555
W1 O3F 1_555 1_555
W2 O10 1_555 1_555
W2 O6F 1_555 1_555
W3 O7 1_555 1_555
W3 O16 1_555 1_555
W3 O5F 1_555 1_555
W4 O11 1_555 1_555
W4 O6F 1_555 1_555
W5 O14 1_555 1_555
W5 O17 1_555 1_555
W5 O6F 1_555 1_555
W6 O13 1_555 1_555
W6 O18 1_555 1_555
W6 O5F 1_555 1_555
C4 C5 1_555 1_555
C5 C6 1_555 1_555
C7 O25 1_555 1_555
C9 C10 1_555 1_555
C11 C12 1_555 1_555
C13 C14 1_555 1_555
C16 C17 1_555 1_555
O3 O1F 1_555 1_555
O3 O5F 1_555 1_555
O5 O3F 1_555 1_555
O8 W5F 1_555 1_555
O9 W6F 1_555 1_555
O12 W6F 1_555 1_555
O15 W4F 1_555 1_555
W1F O1F 1_555 1_555
W1F O8F 1_555 1_555
W1F O9F 1_555 1_555
W2F O1F 1_555 1_555
W2F O10F 1_555 1_555
W3F O1F 1_555 1_555
W3F O7F 1_555 1_555
W3F O15F 1_555 1_555
W3F O16F 1_555 1_555
W4F O5F 1_555 1_555
W4F O11F 1_555 1_555
W4F O12F 1_555 1_555
W5F O3F 1_555 1_555
W5F O14F 1_555 1_555
W5F O17F 1_555 1_555
W6F O3F 1_555 1_555
W6F O13F 1_555 1_555
W6F O18F 1_555 1_555
N6A C18A 1_555 1_555
C1A C2A 1_555 1_555
C4A C5A 1_555 1_555
C5A C6A 1_555 1_555
C7A O25A 1_555 1_555
C9A C10A 1_555 1_555
C11A C12A 1_555 1_555
C16A C17A 1_555 1_555
C17A C18A 1_555 1_555

#END
