
#######################################################################
#
#                 Cambridge Crystallographic Data Centre
#                                CCDC 
#
#######################################################################
#
# If this CIF has been generated from an entry in the Cambridge 
# Structural Database, then it will include bibliographic, chemical, 
# crystal, experimental, refinement or atomic coordinate data resulting 
# from the CCDC's data processing and validation procedures.
#
#######################################################################

data_ELELAJ
_symmetry_cell_setting           monoclinic
_symmetry_space_group_name_H-M   'C 2/m'
_symmetry_Int_Tables_number      12
_space_group_name_Hall           '-C 2y'
loop_
_symmetry_equiv_pos_site_id
_symmetry_equiv_pos_as_xyz
1 x,y,z
2 -x,y,-z
3 1/2+x,1/2+y,z
4 1/2-x,1/2+y,-z
5 -x,-y,-z
6 x,-y,z
7 1/2-x,1/2-y,-z
8 1/2+x,1/2-y,z
_cell_length_a                   13.2950(10)
_cell_length_b                   20.1880(10)
_cell_length_c                   9.6130(10)
_cell_angle_alpha                90
_cell_angle_beta                 120.191(6)
_cell_angle_gamma                90
_cell_volume                     2230.14
loop_
_atom_site_label
_atom_site_type_symbol
_atom_site_fract_x
_atom_site_fract_y
_atom_site_fract_z
Mo1 Mo 0.74719(6) 0.0000 0.43499(9)
Mo2 Mo 0.55633(5) -0.11277(2) 0.37461(7)
Mo3 Mo 0.36607(6) 0.0000 0.30983(8)
Cu1 Cu 0.5000 -0.27339(6) 0.5000
Cu2 Cu 0.5000 -0.19598(6) 0.0000
O1 O 0.7136(3) -0.09120(19) 0.4583(5)
O3 O 0.5656(4) -0.1965(2) 0.4111(5)
O4 O 0.5529(4) 0.0000 0.4066(6)
O5 O 0.5947(3) -0.09331(18) 0.6345(5)
O6 O 0.8944(5) 0.0000 0.5218(8)
O7 O 0.5050(4) -0.1066(2) 0.1747(5)
O8 O 0.3226(5) 0.0000 0.1120(7)
O9 O 0.7634(5) 0.0000 0.6857(7)
O10 O 0.6984(5) 0.0000 0.2338(7)
N1 N 0.3535(4) -0.2991(3) 0.3113(7)
N2 N 0.1658(4) -0.3042(3) 0.1185(6)
N3 N 0.3340(4) -0.3532(3) 0.2223(6)
C1 C 0.5023(8) -0.3788(5) 0.1933(12)
H1 H 0.5290 -0.3344 0.2338
H2 H 0.5701 -0.4073 0.2372
C2 C 0.2511(6) -0.2706(4) 0.2466(8)
H3 H 0.2379 -0.2311 0.2846
C3 C 0.4246(6) -0.4019(4) 0.2536(9)
H4 H 0.3885 -0.4434 0.2016
H5 H 0.4708 -0.4100 0.3685
C4 C 0.2241(5) -0.3575(3) 0.1125(8)
H6 H 0.1909 -0.3924 0.0404
C5 C 0.4491(10) -0.3778(6) 0.0198(13)
H7 H 0.4014 -0.3384 -0.0241
H8 H 0.4001 -0.4164 -0.0268
Mo1A Mo 0.25281(6) 0.0000 0.56501(9)
Mo2E Mo 0.55633(5) 0.11277(2) 0.37461(7)
Mo2A Mo 0.44367(5) -0.11277(2) 0.62539(7)
Mo2D Mo 0.44367(5) 0.11277(2) 0.62539(7)
Mo2A_2 Mo 0.44367(5) -0.11277(2) -0.37461(7)
Mo2D_2 Mo 0.44367(5) 0.11277(2) -0.37461(7)
Mo3A Mo 0.63393(6) 0.0000 0.69017(8)
Cu1D Cu 0.5000 0.27339(6) 0.5000
Cu1_2 Cu 0.5000 -0.27339(6) -0.5000
Cu1_3 Cu 0.5000 -0.27339(6) 1.5000
Cu2D Cu 0.5000 0.19598(6) 0.0000
Cu2F Cu 0.0000 -0.30402(6) 0.0000
Cu2F_2 Cu 1.0000 -0.30402(6) 0.0000
Cu2F_3 Cu 1.0000 -0.30402(6) 1.0000
Cu2F_4 Cu 0.0000 -0.30402(6) 1.0000
O1E O 0.7136(3) 0.09120(19) 0.4583(5)
O1A O 0.2864(3) -0.09120(19) 0.5417(5)
O1D O 0.2864(3) 0.09120(19) 0.5417(5)
O3E O 0.5656(4) 0.1965(2) 0.4111(5)
O3A O 0.4344(4) -0.1965(2) 0.5889(5)
O3D O 0.4344(4) 0.1965(2) 0.5889(5)
O4A O 0.4471(4) 0.0000 0.5934(6)
O5A O 0.4053(3) -0.09331(18) 0.3655(5)
O5D O 0.4053(3) 0.09331(18) 0.3655(5)
O5E O 0.5947(3) 0.09331(18) 0.6345(5)
O6A O 0.1056(5) 0.0000 0.4782(8)
O7E O 0.5050(4) 0.1066(2) 0.1747(5)
O7A O 0.4950(4) -0.1066(2) -0.1747(5)
O7D O 0.4950(4) 0.1066(2) -0.1747(5)
O7A_2 O 0.4950(4) -0.1066(2) 0.8253(5)
O7D_2 O 0.4950(4) 0.1066(2) 0.8253(5)
O8A O 0.6774(5) 0.0000 0.8880(7)
O9A O 0.2366(5) 0.0000 0.3143(7)
O10A O 0.3016(5) 0.0000 0.7662(7)
N1A N 0.6465(4) -0.2991(3) -0.3113(7)
N1A_2 N 0.6465(4) -0.2991(3) 0.6887(7)
N1_2 N 0.3535(4) -0.2991(3) 1.3113(7)
N1E N 0.3535(4) 0.2991(3) 0.3113(7)
N1D N 0.6465(4) 0.2991(3) 0.6887(7)
N2A N 0.8342(4) -0.3042(3) -0.1185(6)
N2A_2 N 0.8342(4) -0.3042(3) 0.8815(6)
N2_2 N 0.1658(4) -0.3042(3) 1.1185(6)
N2F N 0.3342(4) -0.1958(3) -0.1185(6)
N2G N 0.6658(4) -0.1958(3) 0.1185(6)
N2C N 0.3342(4) 0.1958(3) -0.1185(6)
N2B N 0.6658(4) 0.1958(3) 0.1185(6)
N3A N 0.6660(4) -0.3532(3) -0.2223(6)
N3A_2 N 0.6660(4) -0.3532(3) 0.7777(6)
N3_2 N 0.3340(4) -0.3532(3) 1.2223(6)
C1A C 0.4977(8) -0.3788(5) -0.1933(12)
C1A_2 C 0.4977(8) -0.3788(5) 0.8067(12)
C1_2 C 0.5023(8) -0.3788(5) 1.1933(12)
H1A H 0.4710 -0.3344 -0.2338
H1A_2 H 0.4710 -0.3344 0.7662
H1_2 H 0.5290 -0.3344 1.2338
H2A H 0.4299 -0.4073 -0.2372
H2A_2 H 0.4299 -0.4073 0.7628
H2_2 H 0.5701 -0.4073 1.2372
C2A C 0.7489(6) -0.2706(4) -0.2466(8)
C2A_2 C 0.7489(6) -0.2706(4) 0.7534(8)
C2_2 C 0.2511(6) -0.2706(4) 1.2466(8)
H3A H 0.7621 -0.2311 -0.2846
H3A_2 H 0.7621 -0.2311 0.7154
H3_2 H 0.2379 -0.2311 1.2846
C3A C 0.5754(6) -0.4019(4) -0.2536(9)
C3A_2 C 0.5754(6) -0.4019(4) 0.7464(9)
C3_2 C 0.4246(6) -0.4019(4) 1.2536(9)
H4A H 0.6115 -0.4434 -0.2016
H4A_2 H 0.6115 -0.4434 0.7984
H4_2 H 0.3885 -0.4434 1.2016
H5A H 0.5292 -0.4100 -0.3685
H5A_2 H 0.5292 -0.4100 0.6315
H5_2 H 0.4708 -0.4100 1.3685
C4A C 0.7759(5) -0.3575(3) -0.1125(8)
C4A_2 C 0.7759(5) -0.3575(3) 0.8875(8)
C4_2 C 0.2241(5) -0.3575(3) 1.1125(8)
H6A H 0.8091 -0.3924 -0.0404
H6A_2 H 0.8091 -0.3924 0.9596
H6_2 H 0.1909 -0.3924 1.0404
C5A C 0.5509(10) -0.3778(6) -0.0198(13)
C5A_2 C 0.5509(10) -0.3778(6) 0.9802(13)
C5_2 C 0.4491(10) -0.3778(6) 1.0198(13)
H7A H 0.5986 -0.3384 0.0241
H7A_2 H 0.5986 -0.3384 1.0241
H7_2 H 0.4014 -0.3384 0.9759
H8A H 0.5999 -0.4164 0.0268
H8A_2 H 0.5999 -0.4164 1.0268
H8_2 H 0.4001 -0.4164 0.9732
O2 O 0.5000 0.0000 0.0000
loop_
_geom_bond_atom_site_label_1
_geom_bond_atom_site_label_2
_geom_bond_site_symmetry_1
_geom_bond_site_symmetry_2
Mo1 O1 1_555 1_555
Mo2 O1 1_555 1_555
Mo3 O4 1_555 1_555
Cu1 O3 1_555 1_555
Cu2 O7 1_555 1_555
O3 Mo2 1_555 1_555
O4 Mo1 1_555 1_555
O5 Mo2 1_555 1_555
O6 Mo1 1_555 1_555
O7 Mo2 1_555 1_555
O8 Mo3 1_555 1_555
O9 Mo1 1_555 1_555
O10 Mo1 1_555 1_555
N1 Cu1 1_555 1_555
N2 C2 1_555 1_555
N3 N1 1_555 1_555
C1 H1 1_555 1_555
H2 C1 1_555 1_555
C2 N1 1_555 1_555
H3 C2 1_555 1_555
C3 N3 1_555 1_555
H4 C3 1_555 1_555
H5 C3 1_555 1_555
C4 N2 1_555 1_555
H6 C4 1_555 1_555
C5 C1 1_555 1_555
H7 C5 1_555 1_555
H8 C5 1_555 1_555
Mo1A O1A 1_555 1_555
Mo2E O4 1_555 1_555
Mo2A O5 1_555 1_555
Mo2D O1D 1_555 1_555
Mo2A_2 O7A 1_555 1_555
Mo2D_2 O7D 1_555 1_555
Mo3A O4 1_555 1_555
Cu1D O3E 1_555 1_555
Cu1_2 N1A 1_555 1_555
Cu1_3 N1_2 1_555 1_555
Cu2D O7E 1_555 1_555
Cu2F N2 1_555 1_555
Cu2F_2 N2A 1_555 1_555
Cu2F_3 N2A_2 1_555 1_555
Cu2F_4 N2_2 1_555 1_555
O1E Mo1 1_555 1_555
O1A Mo2A 1_555 1_555
O1D Mo1A 1_555 1_555
O3E Mo2E 1_555 1_555
O3A Cu1 1_555 1_555
O3D Mo2D 1_555 1_555
O4A Mo3 1_555 1_555
O5A Mo2 1_555 1_555
O5D Mo3 1_555 1_555
O5E Mo2E 1_555 1_555
O6A Mo1A 1_555 1_555
O7E Mo2E 1_555 1_555
O7A Cu2 1_555 1_555
O7D Cu2D 1_555 1_555
O7A_2 Mo2A 1_555 1_555
O7D_2 Mo2D 1_555 1_555
O8A Mo3A 1_555 1_555
O9A Mo3 1_555 1_555
O10A Mo1A 1_555 1_555
N1A N3A 1_555 1_555
N1A_2 Cu1 1_555 1_555
N1_2 N3_2 1_555 1_555
N1E Cu1D 1_555 1_555
N1D Cu1D 1_555 1_555
N2A C2A 1_555 1_555
N2A_2 C2A_2 1_555 1_555
N2_2 C2_2 1_555 1_555
N2F Cu2 1_555 1_555
N2G Cu2 1_555 1_555
N2C Cu2D 1_555 1_555
N2B Cu2D 1_555 1_555
N3A C3A 1_555 1_555
N3A_2 N1A_2 1_555 1_555
N3_2 C3_2 1_555 1_555
C1A H1A 1_555 1_555
C1A_2 H1A_2 1_555 1_555
C1_2 H1_2 1_555 1_555
H2A C1A 1_555 1_555
H2A_2 C1A_2 1_555 1_555
H2_2 C1_2 1_555 1_555
C2A N1A 1_555 1_555
C2A_2 N1A_2 1_555 1_555
C2_2 N1_2 1_555 1_555
H3A C2A 1_555 1_555
H3A_2 C2A_2 1_555 1_555
H3_2 C2_2 1_555 1_555
C3A C1A 1_555 1_555
C3A_2 N3A_2 1_555 1_555
C3_2 C1_2 1_555 1_555
H4A C3A 1_555 1_555
H4A_2 C3A_2 1_555 1_555
H4_2 C3_2 1_555 1_555
H5A C3A 1_555 1_555
H5A_2 C3A_2 1_555 1_555
H5_2 C3_2 1_555 1_555
C4A N2A 1_555 1_555
C4A_2 N2A_2 1_555 1_555
C4_2 N2_2 1_555 1_555
H6A C4A 1_555 1_555
H6A_2 C4A_2 1_555 1_555
H6_2 C4_2 1_555 1_555
C5A C5 1_555 1_555
C5A_2 C1A_2 1_555 1_555
C5_2 C1_2 1_555 1_555
H7A C5A 1_555 1_555
H7A_2 C5A_2 1_555 1_555
H7_2 C5_2 1_555 1_555
H8A C5A 1_555 1_555
H8A_2 C5A_2 1_555 1_555
H8_2 C5_2 1_555 1_555
Mo2 O4 1_555 1_555
Mo3 O5A 1_555 1_555
O5 Mo3A 1_555 1_555
O9 Mo3A 1_555 1_555
N3 C4 1_555 1_555
C1 C3 1_555 1_555
Mo1A O4A 1_555 1_555
Mo1A O9A 1_555 1_555
Mo2E O1E 1_555 1_555
Mo2E O5D 1_555 1_555
Mo2A O3A 1_555 1_555
Mo2A O4A 1_555 1_555
Mo2A O5A 1_555 1_555
Mo2D O4A 1_555 1_555
Mo2D O5D 1_555 1_555
Mo2D O5E 1_555 1_555
Mo3A O4A 1_555 1_555
Mo3A O5E 1_555 1_555
Cu1D O3D 1_555 1_555
N3A C4A 1_555 1_555
N3A_2 C4A_2 1_555 1_555
N3_2 C4_2 1_555 1_555
C1A C5A 1_555 1_555
C1A_2 C3A_2 1_555 1_555
C5A_2 C5_2 1_555 1_555

#END
