
#######################################################################
#
#                 Cambridge Crystallographic Data Centre
#                                CCDC 
#
#######################################################################
#
# If this CIF has been generated from an entry in the Cambridge 
# Structural Database, then it will include bibliographic, chemical, 
# crystal, experimental, refinement or atomic coordinate data resulting 
# from the CCDC's data processing and validation procedures.
#
#######################################################################

data_ELENEP
_symmetry_cell_setting           triclinic
_symmetry_space_group_name_H-M   'P 1'
_symmetry_Int_Tables_number      1
_space_group_name_Hall           'P 1'
loop_
_symmetry_equiv_pos_site_id
_symmetry_equiv_pos_as_xyz
1 x,y,z
_cell_length_a                   5.2572(2)
_cell_length_b                   8.8411(4)
_cell_length_c                   12.6839(7)
_cell_angle_alpha                83.184(8)
_cell_angle_beta                 79.708(10)
_cell_angle_gamma                83.425(10)
_cell_volume                     573.323
loop_
_atom_site_label
_atom_site_type_symbol
_atom_site_fract_x
_atom_site_fract_y
_atom_site_fract_z
Cu1 Cu 0.65134(5) 0.43196(3) 0.64047(3)
O1 O -0.1068(3) 0.5107(2) 0.74869(15)
N1 N 0.4840(5) 0.2523(3) 0.7259(2)
C1 C 0.2114(7) 0.2980(4) 0.9000(2)
H1 H 0.2504 0.1921 0.9296
H2 H 0.0386 0.3374 0.9346
H3 H 0.3414 0.3611 0.9137
Cu2 Cu 0.84539(5) 0.95491(3) 0.42618(3)
O2 O 0.7069(4) 0.6199(2) 0.53274(16)
N2 N 0.3231(4) 0.5415(2) 0.68172(17)
C2 C 0.2174(5) 0.3035(3) 0.7814(2)
H4 H 0.0946 0.2317 0.7687
H5 H 0.578(6) 0.209(4) 0.773(2)
H6 H 0.470(6) 0.202(3) 0.6730(18)
O3 O 0.5467(4) 0.8617(2) 0.50810(16)
N3 N 0.4896(5) 0.6484(3) 0.9185(2)
C3 C 0.1325(6) 0.4631(3) 0.7331(2)
H7 H 0.463(6) 0.600(3) 0.9835(13)
H8 H 0.632(4) 0.641(4) 0.873(2)
O4 O 0.0724(4) 0.7412(2) 0.93318(16)
N4 N 1.0226(5) 0.7892(3) 0.3331(2)
C4 C 0.2750(5) 0.6927(3) 0.6244(2)
H9 H 0.1401 0.6870 0.5789
H10 H 1.070(6) 0.714(3) 0.379(2)
H11 H 0.929(5) 0.786(4) 0.2843(19)
O5 O 1.5812(3) 1.0103(2) 0.28882(15)
N5 N 1.1577(4) 1.0479(2) 0.37441(18)
C5 C 0.5296(5) 0.7264(3) 0.5492(2)
H12 H 0.762(4) 1.522(4) 0.161(3)
H13 H 0.975(5) 1.605(3) 0.0724(16)
O6 O 0.7720(4) 1.1299(2) 0.51861(16)
N6 N 0.9146(6) 1.5465(3) 0.1295(2)
C6 C 0.1799(5) 0.8203(3) 0.6974(2)
H14 H 0.1632 0.9190 0.6521
H15 H 0.0053 0.8015 0.7378
O7 O 0.9575(3) 1.3236(2) 0.56141(15)
C7 C 0.3589(6) 0.8331(3) 0.7769(2)
H16 H 0.5399 0.8029 0.7437
H17 H 0.3486 0.9413 0.7916
O8 O 1.3375(4) 1.4831(3) 0.13672(17)
C8 C 0.2956(6) 0.7358(3) 0.8821(2)
C9 C 1.2610(8) 0.8753(4) 0.1525(3)
H20 H 1.2355 0.7835 0.1207
H21 H 1.4228 0.9157 0.1152
H22 H 1.1148 0.9529 0.1449
C10 C 1.2762(6) 0.8347(3) 0.2710(2)
H23 H 1.4132 0.7477 0.2786
C11 C 1.3512(6) 0.9741(4) 0.3154(2)
C12 C 1.1972(5) 1.1813(3) 0.4243(2)
H26 H 1.3509 1.1563 0.4618
C13 C 0.9552(5) 1.2131(3) 0.5080(2)
C14 C 1.2434(5) 1.3219(3) 0.3424(2)
H27 H 1.2520 1.4113 0.3813
H28 H 1.4128 1.3032 0.2950
C15 C 1.0322(6) 1.3588(4) 0.2736(3)
H29 H 0.8735 1.4042 0.3176
H30 H 0.9906 1.2625 0.2507
C16 C 1.1075(7) 1.4685(3) 0.1742(3)
Cu1_2 Cu -0.34866(5) 0.43196(3) 0.64047(3)
Cu1_3 Cu 0.65134(5) 1.43196(3) 0.64047(3)
O1_2 O 0.8932(3) 0.5107(2) 0.74869(15)
Cu2_2 Cu 1.84539(5) 0.95491(3) 0.42618(3)
O5_2 O 0.5812(3) 1.0103(2) 0.28882(15)
O7_2 O 0.9575(3) 0.3236(2) 0.56141(15)
H18 H -0.338(8) 1.132(4) 1.1525(19)
H19 H -0.445(9) 1.257(6) 1.089(5)
O9 O -0.3118(6) 1.1887(3) 1.0912(2)
O10 O -0.2461(6) 1.0365(3) 0.8949(2)
H24 H -0.190(8) 0.9429(18) 0.909(3)
H25 H -0.284(8) 1.079(4) 0.9539(19)
loop_
_geom_bond_atom_site_label_1
_geom_bond_atom_site_label_2
_geom_bond_site_symmetry_1
_geom_bond_site_symmetry_2
Cu1 N1 1_555 1_555
O1 C3 1_555 1_555
N1 C2 1_555 1_555
C1 H1 1_555 1_555
H2 C1 1_555 1_555
H3 C1 1_555 1_555
Cu2 O3 1_555 1_555
O2 Cu1 1_555 1_555
N2 Cu1 1_555 1_555
C2 C1 1_555 1_555
H4 C2 1_555 1_555
H5 N1 1_555 1_555
H6 N1 1_555 1_555
O3 C5 1_555 1_555
N3 H7 1_555 1_555
C3 N2 1_555 1_555
H8 N3 1_555 1_555
O4 C8 1_555 1_555
N4 Cu2 1_555 1_555
C4 N2 1_555 1_555
H9 C4 1_555 1_555
H10 N4 1_555 1_555
H11 N4 1_555 1_555
O5 C11 1_555 1_555
N5 Cu2 1_555 1_555
C5 O2 1_555 1_555
H12 N6 1_555 1_555
H13 N6 1_555 1_555
O6 Cu2 1_555 1_555
N6 C16 1_555 1_555
C6 C4 1_555 1_555
H14 C6 1_555 1_555
H15 C6 1_555 1_555
O7 C13 1_555 1_555
C7 C6 1_555 1_555
H16 C7 1_555 1_555
H17 C7 1_555 1_555
O8 C16 1_555 1_555
C8 N3 1_555 1_555
H18 O9 1_555 1_555
H19 O9 1_555 1_555
C9 H20 1_555 1_555
H21 C9 1_555 1_555
H22 C9 1_555 1_555
O10 H24 1_555 1_555
C10 N4 1_555 1_555
H23 C10 1_555 1_555
H25 O10 1_555 1_555
C11 N5 1_555 1_555
C12 N5 1_555 1_555
H26 C12 1_555 1_555
C13 O6 1_555 1_555
C14 C12 1_555 1_555
H27 C14 1_555 1_555
H28 C14 1_555 1_555
C15 C14 1_555 1_555
H29 C15 1_555 1_555
H30 C15 1_555 1_555
C16 C15 1_555 1_555
Cu1_2 O1 1_555 1_555
Cu1_3 O7 1_555 1_555
O1_2 Cu1 1_555 1_555
Cu2_2 O5 1_555 1_555
O5_2 Cu2 1_555 1_555
O7_2 Cu1 1_555 1_555
C2 C3 1_555 1_555
C4 C5 1_555 1_555
C7 C8 1_555 1_555
C9 C10 1_555 1_555
C10 C11 1_555 1_555
C12 C13 1_555 1_555

#END
