
#######################################################################
#
#                 Cambridge Crystallographic Data Centre
#                                CCDC 
#
#######################################################################
#
# If this CIF has been generated from an entry in the Cambridge 
# Structural Database, then it will include bibliographic, chemical, 
# crystal, experimental, refinement or atomic coordinate data resulting 
# from the CCDC's data processing and validation procedures.
#
#######################################################################

data_ELEPUH
_symmetry_cell_setting           monoclinic
_symmetry_space_group_name_H-M   'P 21/n'
_symmetry_Int_Tables_number      14
_space_group_name_Hall           '-P 2yn'
loop_
_symmetry_equiv_pos_site_id
_symmetry_equiv_pos_as_xyz
1 x,y,z
2 1/2-x,1/2+y,1/2-z
3 -x,-y,-z
4 1/2+x,1/2-y,1/2+z
_cell_length_a                   11.0397(6)
_cell_length_b                   16.6723(10)
_cell_length_c                   26.2215(15)
_cell_angle_alpha                90
_cell_angle_beta                 94.7800(10)
_cell_angle_gamma                90
_cell_volume                     4809.47
loop_
_atom_site_label
_atom_site_type_symbol
_atom_site_fract_x
_atom_site_fract_y
_atom_site_fract_z
Zn1 Zn 0.11976(4) 0.07700(3) 0.061209(17)
Zn2 Zn 0.10778(5) -0.52162(3) 0.242374(19)
O1 O 0.0642(6) -0.5468(3) 0.36344(16)
O3 O 0.0112(6) -0.9655(2) 0.38069(17)
O5 O 0.2863(5) 0.1427(2) -0.21816(16)
O7 O 0.2244(4) -0.4047(2) 0.02337(14)
O8 O -0.0438(4) -0.6688(2) 0.52249(13)
O9 O 0.0902(5) -0.9152(2) 0.31648(16)
O10 O 0.1887(4) 0.0673(2) -0.04579(14)
O11 O 0.0803(3) -0.04431(19) 0.14674(12)
O12 O 0.2555(3) 0.2646(2) -0.24736(12)
O13 O 0.0976(4) 0.4378(2) -0.05073(14)
O14 O 0.2067(4) -0.2946(2) -0.01926(12)
O15 O -0.0235(3) -0.8003(2) 0.53316(12)
O16 O 0.1873(4) 0.4743(2) -0.11686(14)
O17 O 0.0631(4) -0.31034(19) 0.23787(12)
O18 O 0.0983(4) -0.4374(2) 0.29854(14)
H3 H 0.071(5) -0.392(2) 0.285(2)
H4 H 0.036(4) -0.457(3) 0.312(2)
O19 O 0.1372(3) 0.1609(2) 0.00814(12)
O20 O 0.3051(4) -0.5248(2) 0.25803(15)
H5 H 0.366(3) -0.506(3) 0.244(2)
H6 H 0.255(4) -0.487(2) 0.261(2)
O21 O 0.1017(4) -0.42065(18) 0.19346(12)
O22 O 0.1002(3) -0.61939(18) 0.29513(12)
O23 O -0.0828(3) -0.53682(19) 0.22937(12)
H7 H -0.117(4) -0.4940(17) 0.2378(19)
H8 H -0.106(5) -0.574(2) 0.2481(17)
O24 O -0.0676(3) 0.07210(18) 0.03586(12)
H9 H -0.071(5) 0.081(3) 0.0047(8)
H10 H -0.103(4) 0.033(2) 0.0461(17)
O25 O 0.1241(3) -0.04288(18) 0.06545(11)
O26 O 0.3097(3) 0.07464(19) 0.07791(13)
H11 H 0.353(4) 0.100(3) 0.0585(17)
H12 H 0.343(4) 0.033(2) 0.0907(18)
N1 N 0.0460(5) -0.9083(3) 0.35772(16)
N2 N 0.2012(4) -0.3333(2) 0.02030(14)
N3 N -0.5155(3) 0.2744(2) 0.13140(13)
H13 H -0.527(4) 0.289(3) 0.0952(18)
N4 N -0.2566(3) 0.2950(2) 0.15681(14)
H14 H -0.255(4) 0.284(3) 0.1854(19)
N5 N 0.0799(3) 0.1478(2) 0.12136(12)
N6 N -0.8548(3) 0.4140(2) 0.17590(13)
N7 N 0.1536(4) 0.4229(2) -0.08804(14)
C1 C -0.6405(4) 0.2508(2) 0.14395(17)
H15 H -0.6370 0.2330 0.1801
H16 H -0.6686 0.2049 0.1222
C2 C 0.0087(4) -0.8220(3) 0.43016(17)
H17 H -0.0072 -0.8684 0.4496
C3 C 0.0785(5) -0.6122(3) 0.34092(18)
C4 C 0.1137(4) -0.2960(2) 0.15207(15)
C5 C -0.8650(4) 0.4025(3) 0.08422(17)
H18 H -0.8995 0.4201 0.0517
C6 C 0.0032(4) -0.7462(3) 0.45112(16)
C7 C 0.1636(4) 0.2815(3) -0.06225(16)
H19 H 0.1401 0.2964 -0.0295
C8 C 0.1219(4) -0.1691(2) 0.10758(16)
C9 C -0.3062(4) 0.2246(2) 0.12671(16)
H20 H -0.2519 0.1778 0.1335
H21 H -0.3090 0.2370 0.0897
C10 C 0.1665(4) -0.2914(2) 0.06585(15)
C11 C 0.1848(4) 0.2024(3) -0.07400(16)
C12 C -0.7311(4) 0.3182(2) 0.13613(16)
C13 C 0.1700(4) 0.1378(3) -0.03442(18)
C14 C -0.0247(4) -0.7368(3) 0.50658(17)
C15 C 0.2601(4) 0.2131(3) -0.21218(18)
C16 C -0.3408(4) 0.3646(2) 0.14906(18)
H22 H -0.3439 0.3821 0.1129
H23 H -0.3093 0.4099 0.1707
C17 C -0.7788(4) 0.3422(3) 0.08790(16)
H24 H -0.7527 0.3176 0.0580
C18 C 0.0616(4) -0.7625(3) 0.35015(16)
H25 H 0.0828 -0.7690 0.3160
C19 C 0.1466(4) -0.3358(2) 0.10866(15)
H26 H 0.1552 -0.3925 0.1085
C20 C 0.0536(4) -0.6865(3) 0.37131(16)
C21 C 0.0138(4) 0.2396(3) 0.20279(16)
H27 H -0.0088 0.2708 0.2308
C22 C -0.4676(4) 0.3438(3) 0.16241(17)
H28 H -0.4660 0.3305 0.1992
H29 H -0.5218 0.3906 0.1557
C23 C 0.1323(4) 0.1360(2) 0.16843(16)
H30 H 0.1931 0.0958 0.1736
C24 C 0.1011(4) -0.2133(2) 0.15138(15)
H31 H 0.0781 -0.1863 0.1810
C25 C 0.0912(4) -0.3459(3) 0.19903(16)
C26 C -0.0406(4) 0.2529(2) 0.15373(16)
C27 C -0.4319(4) 0.2042(2) 0.14084(16)
H32 H -0.4636 0.1578 0.1203
H33 H -0.4284 0.1889 0.1774
C28 C -0.0046(4) 0.2058(2) 0.11411(15)
H34 H -0.0410 0.2148 0.0805
C29 C -0.9005(4) 0.4372(3) 0.12905(17)
H35 H -0.9593 0.4790 0.1264
C30 C -0.1319(4) 0.3187(2) 0.14278(16)
H36 H -0.1360 0.3322 0.1059
H37 H -0.1049 0.3672 0.1623
C31 C 0.2297(4) 0.2394(3) -0.15935(15)
C32 C 0.0238(4) -0.6789(3) 0.42185(16)
H38 H 0.0175 -0.6270 0.4364
C33 C 0.1070(4) -0.0796(3) 0.10781(17)
C34 C 0.2185(4) 0.1817(3) -0.12197(17)
H39 H 0.2341 0.1270 -0.1294
C35 C 0.2095(4) 0.3192(3) -0.14825(16)
H40 H 0.2172 0.3597 -0.1733
C36 C 0.0383(4) -0.8283(3) 0.37969(17)
C37 C 0.1014(4) 0.1805(3) 0.21025(16)
H41 H 0.1397 0.1705 0.2434
C38 C -0.7705(4) 0.3556(2) 0.17883(16)
H42 H -0.7366 0.3393 0.2117
C39 C 0.1775(4) 0.3385(3) -0.09968(16)
C40 C 0.1557(4) -0.2082(2) 0.06421(15)
H43 H 0.1710 -0.1791 0.0343
Zn2_2 Zn -0.89222(5) 0.47838(3) 0.242374(19)
N6_2 N 0.1452(3) -0.5860(2) 0.17590(13)
O2 O 0.2481(7) 0.4272(3) -0.2546(3)
H1 H 0.282(9) 0.440(5) -0.281(2)
H2 H 0.233(9) 0.3772(19) -0.257(3)
O4 O -0.103(3) -0.0214(17) 0.2048(19)
O6 O -0.1492(8) -0.4734(4) 0.3983(7)
O27? O -0.1471(10) 0.0464(5) 0.1598(4)
O28? O -0.037(3) -0.0367(15) 0.2449(10)
loop_
_geom_bond_atom_site_label_1
_geom_bond_atom_site_label_2
_geom_bond_site_symmetry_1
_geom_bond_site_symmetry_2
Zn1 O19 1_555 1_555
Zn2 O18 1_555 1_555
O1 C3 1_555 1_555
O2 H1 1_555 1_555
H2 O2 1_555 1_555
O3 N1 1_555 1_555
O5 C15 1_555 1_555
O7 N2 1_555 1_555
O8 C14 1_555 1_555
O9 N1 1_555 1_555
O10 C13 1_555 1_555
O11 C33 1_555 1_555
O12 C15 1_555 1_555
O13 N7 1_555 1_555
O14 N2 1_555 1_555
O15 C14 1_555 1_555
O16 N7 1_555 1_555
O17 C25 1_555 1_555
O18 H3 1_555 1_555
H4 O18 1_555 1_555
O19 C13 1_555 1_555
O20 Zn2 1_555 1_555
H5 O20 1_555 1_555
H6 O20 1_555 1_555
O21 Zn2 1_555 1_555
O22 Zn2 1_555 1_555
O23 Zn2 1_555 1_555
H7 O23 1_555 1_555
H8 O23 1_555 1_555
O24 Zn1 1_555 1_555
H9 O24 1_555 1_555
H10 O24 1_555 1_555
O25 Zn1 1_555 1_555
O26 Zn1 1_555 1_555
H11 O26 1_555 1_555
H12 O26 1_555 1_555
N1 C36 1_555 1_555
N2 C10 1_555 1_555
N3 H13 1_555 1_555
N4 H14 1_555 1_555
N5 Zn1 1_555 1_555
N6 C29 1_555 1_555
N7 C39 1_555 1_555
C1 N3 1_555 1_555
H15 C1 1_555 1_555
H16 C1 1_555 1_555
C2 H17 1_555 1_555
C3 O22 1_555 1_555
C4 C19 1_555 1_555
C5 H18 1_555 1_555
C6 C2 1_555 1_555
C7 H19 1_555 1_555
C8 C24 1_555 1_555
C9 N4 1_555 1_555
H20 C9 1_555 1_555
H21 C9 1_555 1_555
C10 C19 1_555 1_555
C11 C7 1_555 1_555
C12 C1 1_555 1_555
C13 C11 1_555 1_555
C14 C6 1_555 1_555
C15 C31 1_555 1_555
C16 N4 1_555 1_555
H22 C16 1_555 1_555
H23 C16 1_555 1_555
C17 C5 1_555 1_555
H24 C17 1_555 1_555
C18 H25 1_555 1_555
C19 H26 1_555 1_555
C20 C3 1_555 1_555
C21 H27 1_555 1_555
C22 N3 1_555 1_555
H28 C22 1_555 1_555
H29 C22 1_555 1_555
C23 N5 1_555 1_555
H30 C23 1_555 1_555
C24 C4 1_555 1_555
H31 C24 1_555 1_555
C25 O21 1_555 1_555
C26 C21 1_555 1_555
C27 N3 1_555 1_555
H32 C27 1_555 1_555
H33 C27 1_555 1_555
C28 N5 1_555 1_555
H34 C28 1_555 1_555
C29 C5 1_555 1_555
H35 C29 1_555 1_555
C30 N4 1_555 1_555
H36 C30 1_555 1_555
H37 C30 1_555 1_555
C31 C34 1_555 1_555
C32 C6 1_555 1_555
H38 C32 1_555 1_555
C33 O25 1_555 1_555
C34 C11 1_555 1_555
H39 C34 1_555 1_555
C35 C31 1_555 1_555
H40 C35 1_555 1_555
C36 C2 1_555 1_555
C37 C21 1_555 1_555
H41 C37 1_555 1_555
C38 N6 1_555 1_555
H42 C38 1_555 1_555
C39 C7 1_555 1_555
C40 C8 1_555 1_555
H43 C40 1_555 1_555
Zn2_2 N6 1_555 1_555
N6_2 Zn2 1_555 1_555
C4 C25 1_555 1_555
C8 C33 1_555 1_555
C9 C27 1_555 1_555
C10 C40 1_555 1_555
C12 C17 1_555 1_555
C12 C38 1_555 1_555
C16 C22 1_555 1_555
C18 C20 1_555 1_555
C18 C36 1_555 1_555
C20 C32 1_555 1_555
C23 C37 1_555 1_555
C26 C28 1_555 1_555
C26 C30 1_555 1_555
C35 C39 1_555 1_555

#END
