
#######################################################################
#
#                 Cambridge Crystallographic Data Centre
#                                CCDC 
#
#######################################################################
#
# If this CIF has been generated from an entry in the Cambridge 
# Structural Database, then it will include bibliographic, chemical, 
# crystal, experimental, refinement or atomic coordinate data resulting 
# from the CCDC's data processing and validation procedures.
#
#######################################################################

data_ELEQAO
_symmetry_cell_setting           monoclinic
_symmetry_space_group_name_H-M   'P 21/c'
_symmetry_Int_Tables_number      14
_space_group_name_Hall           '-P 2ybc'
loop_
_symmetry_equiv_pos_site_id
_symmetry_equiv_pos_as_xyz
1 x,y,z
2 -x,1/2+y,1/2-z
3 -x,-y,-z
4 x,1/2-y,1/2+z
_cell_length_a                   11.4402(19)
_cell_length_b                   25.094(4)
_cell_length_c                   10.2107(16)
_cell_angle_alpha                90
_cell_angle_beta                 101.754(2)
_cell_angle_gamma                90
_cell_volume                     2869.83
loop_
_atom_site_label
_atom_site_type_symbol
_atom_site_fract_x
_atom_site_fract_y
_atom_site_fract_z
Zn1 Zn 0.01584(4) 0.589919(19) 0.05867(4)
O1 O 0.0538(3) 0.60853(11) -0.6830(3)
O3 O -0.0820(3) 0.56060(12) -0.8194(3)
O5 O 0.0668(3) 0.60664(15) -0.1998(3)
O7 O -0.0627(3) 0.55925(12) -0.1143(3)
N1 N 0.9951(3) 0.83004(14) 0.5325(3)
N2 N 0.7454(3) 0.69771(15) 0.2917(3)
N3 N 0.5361(3) 0.63642(16) 0.3025(4)
H5 H 0.475(4) 0.6622(19) 0.274(5)
N4 N 0.1892(3) 0.56544(13) 0.0940(3)
C1 C -0.0330(4) 0.57754(16) -0.7025(4)
C2 C -0.0851(4) 0.55836(16) -0.5873(4)
C3 C -0.1814(4) 0.52337(17) -0.6064(4)
H6 H -0.2140 0.5102 -0.6934
C4 C -0.2303(4) 0.50763(17) -0.4983(4)
H7 H -0.2974 0.4845 -0.5118
C5 C -0.1806(4) 0.52584(17) -0.3705(4)
H8 H -0.2147 0.5157 -0.2969
C6 C -0.0812(4) 0.55881(16) -0.3504(4)
C7 C -0.0349(4) 0.57532(16) -0.4593(4)
H9 H 0.0321 0.5985 -0.4457
C8 C -0.0204(4) 0.57687(18) -0.2128(4)
C9 C 0.2179(4) 0.52498(17) 0.0191(4)
H10 H 0.1589 0.5120 -0.0531
C10 C 0.2746(4) 0.58428(16) 0.1935(4)
H11 H 0.2555 0.6131 0.2457
C11 C 0.3285(4) 0.50208(19) 0.0433(5)
H12 H 0.3457 0.4732 -0.0099
C12 C 0.4771(4) 0.58657(19) 0.3394(5)
H13 H 0.5391 0.5596 0.3724
H14 H 0.4354 0.5948 0.4130
C13 C 0.3888(4) 0.56372(17) 0.2234(4)
C14 C 0.4154(4) 0.52179(19) 0.1467(5)
H15 H 0.4930 0.5065 0.1649
C15 C 0.6114(4) 0.6606(2) 0.4242(4)
H16 H 0.6728 0.6347 0.4666
H17 H 0.5610 0.6694 0.4894
C16 C 0.6088(4) 0.62642(19) 0.1983(4)
H18 H 0.5562 0.6135 0.1153
H19 H 0.6689 0.5985 0.2303
C17 C 0.6710(4) 0.71036(19) 0.3877(5)
H20 H 0.6096 0.7368 0.3485
H21 H 0.7208 0.7261 0.4692
C18 C 0.6712(5) 0.6768(2) 0.1689(5)
H22 H 0.7216 0.6691 0.1030
H23 H 0.6111 0.7038 0.1297
C19 C 0.8130(4) 0.74459(19) 0.2640(4)
H24 H 0.7574 0.7747 0.2365
H25 H 0.8534 0.7366 0.1893
C20 C 0.9046(4) 0.76028(17) 0.3857(4)
C21 C 0.9822(4) 0.72409(18) 0.4598(5)
H26 H 0.9799 0.6877 0.4336
C22 C 1.0632(4) 0.74071(19) 0.5716(5)
H27 H 1.1152 0.7160 0.6248
C23 C 1.0668(4) 0.79419(18) 0.6044(5)
H28 H 1.1224 0.8058 0.6812
C24 C 0.9143(4) 0.81267(17) 0.4266(4)
H29 H 0.8609 0.8379 0.3772
Zn1_2 Zn 0.01584(4) 0.589919(19) -0.94133(4)
Zn1C Zn 1.01584(4) 0.910081(19) 0.55867(4)
O3_2 O -0.0820(3) 0.56060(12) 0.1806(3)
N1C N -0.0049(3) 0.66996(14) 0.0325(3)
Cl1 Cl 0.46829(15) 0.37815(6) 0.23363(14)
O9 O 0.3453(5) 0.3726(3) 0.1742(10)
O10 O 0.4962(17) 0.3270(6) 0.2868(18)
O11 O 0.4539(13) 0.4153(6) 0.3259(14)
O12 O 0.5262(5) 0.3950(2) 0.1304(5)
O2 O 0.2589(4) 0.6479(2) 0.4841(5)
H1 H 0.192(3) 0.6327(14) 0.439(3)
H2 H 0.2932 0.6760 0.4567
O4 O 0.3708(4) 0.7087(2) 0.1915(7)
O6 O 0.3472(8) 0.7492(4) 0.4487(13)
O8 O 0.2610(6) 0.8322(3) 0.3469(13)
H3 H 0.2260 0.8608 0.3095
H4 H 0.2906 0.8031 0.3810
O13? O 0.542(2) 0.3313(11) 0.289(3)
O14? O 0.5183(18) 0.4182(9) 0.338(2)
loop_
_geom_bond_atom_site_label_1
_geom_bond_atom_site_label_2
_geom_bond_site_symmetry_1
_geom_bond_site_symmetry_2
Zn1 O7 1_555 1_555
Cl1 O9 1_555 1_555
O1 C1 1_555 1_555
O2 H1 1_555 1_555
H2 O2 1_555 1_555
O3 C1 1_555 1_555
O5 C8 1_555 1_555
O7 C8 1_555 1_555
O8 H3 1_555 1_555
H4 O8 1_555 1_555
O10 Cl1 1_555 1_555
O11 Cl1 1_555 1_555
O12 Cl1 1_555 1_555
N1 C23 1_555 1_555
N2 C17 1_555 1_555
N3 H5 1_555 1_555
N4 Zn1 1_555 1_555
C1 C2 1_555 1_555
C2 C3 1_555 1_555
C3 H6 1_555 1_555
C4 C3 1_555 1_555
H7 C4 1_555 1_555
C5 C4 1_555 1_555
H8 C5 1_555 1_555
C6 C5 1_555 1_555
C7 C2 1_555 1_555
H9 C7 1_555 1_555
C8 C6 1_555 1_555
C9 N4 1_555 1_555
H10 C9 1_555 1_555
C10 N4 1_555 1_555
H11 C10 1_555 1_555
C11 C9 1_555 1_555
H12 C11 1_555 1_555
C12 N3 1_555 1_555
H13 C12 1_555 1_555
H14 C12 1_555 1_555
C13 C10 1_555 1_555
C14 C11 1_555 1_555
H15 C14 1_555 1_555
C15 N3 1_555 1_555
H16 C15 1_555 1_555
H17 C15 1_555 1_555
C16 N3 1_555 1_555
H18 C16 1_555 1_555
H19 C16 1_555 1_555
C17 C15 1_555 1_555
H20 C17 1_555 1_555
H21 C17 1_555 1_555
C18 N2 1_555 1_555
H22 C18 1_555 1_555
H23 C18 1_555 1_555
C19 N2 1_555 1_555
H24 C19 1_555 1_555
H25 C19 1_555 1_555
C20 C19 1_555 1_555
C21 C20 1_555 1_555
H26 C21 1_555 1_555
C22 C21 1_555 1_555
H27 C22 1_555 1_555
C23 C22 1_555 1_555
H28 C23 1_555 1_555
C24 N1 1_555 1_555
H29 C24 1_555 1_555
Zn1_2 O3 1_555 1_555
Zn1C N1 1_555 1_555
O3_2 Zn1 1_555 1_555
N1C Zn1 1_555 1_555
C6 C7 1_555 1_555
C12 C13 1_555 1_555
C13 C14 1_555 1_555
C16 C18 1_555 1_555
C20 C24 1_555 1_555

#END
