
#######################################################################
#
#                 Cambridge Crystallographic Data Centre
#                                CCDC 
#
#######################################################################
#
# If this CIF has been generated from an entry in the Cambridge 
# Structural Database, then it will include bibliographic, chemical, 
# crystal, experimental, refinement or atomic coordinate data resulting 
# from the CCDC's data processing and validation procedures.
#
#######################################################################

data_ELERIX01
_symmetry_cell_setting           monoclinic
_symmetry_space_group_name_H-M   'P 21/m'
_symmetry_Int_Tables_number      11
_space_group_name_Hall           '-P 2yb'
loop_
_symmetry_equiv_pos_site_id
_symmetry_equiv_pos_as_xyz
1 x,y,z
2 -x,1/2+y,-z
3 -x,-y,-z
4 x,1/2-y,z
_cell_length_a                   7.1209(7)
_cell_length_b                   24.9833(15)
_cell_length_c                   18.3023(16)
_cell_angle_alpha                90
_cell_angle_beta                 99.606(7)
_cell_angle_gamma                90
_cell_volume                     3210.39
loop_
_atom_site_label
_atom_site_type_symbol
_atom_site_fract_x
_atom_site_fract_y
_atom_site_fract_z
La1 La 0.72232(9) 0.59894(2) 0.51644(3)
Cu1 Cu 0.1220(2) 0.49242(6) 0.95588(8)
Cu2 Cu 0.6735(2) 0.41992(6) 0.93914(8)
Cu3 Cu 0.7521(2) 0.31702(10) 1.05369(9)
Cu4 Cu 0.7318(3) 0.2500 0.93469(12)
I1 I 0.5000 0.5000 1.0000
I2 I 1.00938(10) 0.41083(3) 1.02950(4)
I3 I 0.48300(10) 0.32979(3) 0.94315(4)
I4 I 1.02562(15) 0.2500 1.05863(6)
O1 O 0.8352(14) 0.6152(4) 0.3926(5)
O2 O 0.8000(13) 0.5300(3) 0.4192(4)
O3 O 0.7094(12) 0.5166(3) 0.5834(4)
O4 O 0.5813(11) 0.4358(3) 0.5512(4)
O5 O 0.2676(12) 0.3639(4) 1.3490(5)
O6 O 0.5607(13) 0.3693(5) 1.4125(4)
O7 O 1.0241(19) 0.2500 0.5844(6)
O8 O 1.3071(19) 0.2500 0.6578(7)
O9 O 1.0665(12) 0.5715(4) 0.5587(5)
H1 H 1.1168 0.5406 0.5637
H2 H 1.1160 0.6025 0.5582
O10 O 0.953(2) 0.6809(5) 0.5350(6)
H3 H 0.9982 0.6900 0.4967
H4 H 0.9908 0.6911 0.5793
O11 O 0.5618(17) 0.6823(4) 0.4507(7)
H5 H 0.6273 0.6962 0.4208
H6 H 0.4665 0.7030 0.4489
N1 N 0.8723(13) 0.5272(4) 0.1501(5)
N2 N 0.6534(13) 0.4367(4) 0.8298(5)
N3 N 0.6644(14) 0.3337(4) 1.1510(5)
N4 N 0.8544(16) 0.2500 0.8412(7)
C1 C 0.8902(15) 0.5775(5) 0.1745(6)
H9 H 0.9124 0.6043 0.1417
C2 C 0.8772(17) 0.5916(5) 0.2462(6)
H10 H 0.8894 0.6273 0.2608
C3 C 0.8459(14) 0.5526(4) 0.2965(5)
C4 C 0.8256(17) 0.5003(5) 0.2718(6)
H11 H 0.8023 0.4729 0.3035
C5 C 0.8408(16) 0.4897(5) 0.1985(6)
H12 H 0.8282 0.4544 0.1822
C6 C 0.8289(16) 0.5666(5) 0.3752(6)
C7 C 0.6762(16) 0.4865(4) 0.8047(6)
H13 H 0.6917 0.5142 0.8392
C8 C 0.6781(16) 0.4992(4) 0.7329(6)
H14 H 0.6992 0.5343 0.7197
C9 C 0.6486(13) 0.4596(4) 0.6791(5)
C10 C 0.6214(16) 0.4075(4) 0.7028(6)
H15 H 0.6010 0.3794 0.6690
C11 C 0.6254(16) 0.3985(4) 0.7782(6)
H16 H 0.6074 0.3637 0.7936
C12 C 0.6454(15) 0.4714(4) 0.5984(6)
C13 C 0.4803(18) 0.3441(6) 1.1515(7)
H17 H 0.3980 0.3448 1.1063
C14 C 0.4063(18) 0.3536(6) 1.2141(6)
H18 H 0.2779 0.3619 1.2108
C15 C 0.5211(16) 0.3508(4) 1.2822(6)
C16 C 0.712(2) 0.3416(6) 1.2812(7)
H19 H 0.7975 0.3412 1.3255
C17 C 0.776(2) 0.3329(7) 1.2157(7)
H20 H 0.9052 0.3261 1.2172
C18 C 0.4467(18) 0.3622(5) 1.3530(6)
C19 C 0.751(3) 0.2500 0.7742(10)
H21 H 0.6186 0.2500 0.7697
C20 C 0.833(2) 0.2500 0.7096(10)
H22 H 0.7550 0.2500 0.6633
C21 C 1.030(2) 0.2500 0.7146(9)
C22 C 1.137(3) 0.2500 0.7853(10)
H23 H 1.2693 0.2500 0.7921
C23 C 1.042(2) 0.2500 0.8454(10)
H24 H 1.1153 0.2500 0.8924
C24 C 1.130(2) 0.2500 0.6460(9)
La1C La 0.72232(9) -0.09894(2) 0.51644(3)
La1B La 0.27768(9) 0.40106(2) 0.48356(3)
La1B_2 La 0.27768(9) 0.40106(2) 1.48356(3)
La1A La 0.27768(9) 0.09894(2) 0.48356(3)
La1A_2 La 0.27768(9) 0.09894(2) 1.48356(3)
Cu1B Cu 0.8780(2) 0.50758(6) 1.04412(8)
Cu1_2 Cu 1.1220(2) 0.49242(6) 0.95588(8)
Cu1B_2 Cu 0.8780(2) 0.50758(6) 0.04412(8)
Cu1A Cu 0.8780(2) -0.00758(6) 1.04412(8)
Cu1C Cu 1.1220(2) 0.00758(6) 0.95588(8)
Cu2C Cu 0.6735(2) 0.08008(6) 0.93914(8)
Cu2B Cu 0.3265(2) 0.58008(6) 1.06086(8)
Cu3C Cu 0.7521(2) 0.18298(10) 1.05369(9)
I1A I 0.5000 0.0000 1.0000
I2C I 1.00938(10) 0.08917(3) 1.02950(4)
I2B I -0.00938(10) 0.58917(3) 0.97050(4)
I2_2 I 0.00938(10) 0.41083(3) 1.02950(4)
I2B_2 I 0.99062(10) 0.58917(3) 0.97050(4)
I3C I 0.48300(10) 0.17021(3) 0.94315(4)
O1B O 0.1648(14) 0.3848(4) 0.6074(5)
O1C O 0.8352(14) -0.1152(4) 0.3926(5)
O2B O 0.2000(13) 0.4700(3) 0.5808(4)
O2C O 0.8000(13) -0.0300(3) 0.4192(4)
O3C O 0.7094(12) -0.0166(3) 0.5834(4)
O4C O 0.5813(11) 0.0642(3) 0.5512(4)
O4B O 0.4187(11) 0.5642(3) 0.4488(4)
O4A O 0.4187(11) -0.0642(3) 0.4488(4)
O5C O 0.2676(12) 0.1361(4) 1.3490(5)
O5B O 0.7324(12) 0.6361(4) 0.6510(5)
O5A O 0.7324(12) -0.1361(4) 0.6510(5)
O6C O 0.5607(13) 0.1307(5) 1.4125(4)
O6B O 0.4393(13) 0.6307(5) 0.5875(4)
O6A O 0.4393(13) -0.1307(5) 0.5875(4)
O9C O 1.0665(12) -0.0715(4) 0.5587(5)
H1C H 1.1168 -0.0406 0.5637
H2C H 1.1160 -0.1025 0.5582
O10C O 0.953(2) -0.1809(5) 0.5350(6)
H3C H 0.9982 -0.1900 0.4967
H4C H 0.9908 -0.1911 0.5793
O11C O 0.5618(17) -0.1823(4) 0.4507(7)
H5C H 0.6273 -0.1962 0.4208
H6C H 0.4665 -0.2030 0.4489
N1B N 0.1277(13) 0.4728(4) 0.8499(5)
N1_2 N 0.8723(13) 0.5272(4) 1.1501(5)
N2C N 0.6534(13) 0.0633(4) 0.8298(5)
N3C N 0.6644(14) 0.1663(4) 1.1510(5)
C1B C 0.1098(15) 0.4225(5) 0.8255(6)
H9B H 0.0876 0.3957 0.8583
C2B C 0.1228(17) 0.4084(5) 0.7538(6)
H10B H 0.1106 0.3727 0.7392
C3B C 0.1541(14) 0.4474(4) 0.7035(5)
C4B C 0.1744(17) 0.4997(5) 0.7282(6)
H11B H 0.1977 0.5271 0.6965
C5B C 0.1592(16) 0.5103(5) 0.8015(6)
H12B H 0.1718 0.5456 0.8178
C6B C 0.1711(16) 0.4334(5) 0.6248(6)
C7C C 0.6762(16) 0.0135(4) 0.8047(6)
H13C H 0.6917 -0.0142 0.8392
C8C C 0.6781(16) 0.0008(4) 0.7329(6)
H14C H 0.6992 -0.0343 0.7197
C9C C 0.6486(13) 0.0404(4) 0.6791(5)
C10C C 0.6214(16) 0.0925(4) 0.7028(6)
H15C H 0.6010 0.1206 0.6690
C11C C 0.6254(16) 0.1015(4) 0.7782(6)
H16C H 0.6074 0.1363 0.7936
C12C C 0.6454(15) 0.0286(4) 0.5984(6)
C13C C 0.4803(18) 0.1559(6) 1.1515(7)
H17C H 0.3980 0.1552 1.1063
C14C C 0.4063(18) 0.1464(6) 1.2141(6)
H18C H 0.2779 0.1381 1.2108
C15C C 0.5211(16) 0.1492(4) 1.2822(6)
C16C C 0.712(2) 0.1584(6) 1.2812(7)
H19C H 0.7975 0.1588 1.3255
C17C C 0.776(2) 0.1671(7) 1.2157(7)
H20C H 0.9052 0.1739 1.2172
C18C C 0.4467(18) 0.1378(5) 1.3530(6)
O12 O 0.122(3) 0.2500 0.3380(10)
H7 H 0.1065 0.2830 0.3276
H7C H 0.1065 0.2170 0.3276
O13 O 0.660(4) 0.2500 0.480(2)
H8 H 0.6984 0.2745 0.5110
H8C H 0.6984 0.2255 0.5110
loop_
_geom_bond_atom_site_label_1
_geom_bond_atom_site_label_2
_geom_bond_site_symmetry_1
_geom_bond_site_symmetry_2
La1 O1 1_555 1_555
Cu1 I1 1_555 1_555
Cu2 I1 1_555 1_555
Cu3 I2 1_555 1_555
Cu4 I3 1_555 1_555
I1 Cu1B 1_555 1_555
I2 Cu2 1_555 1_555
I3 Cu2 1_555 1_555
I4 Cu3 1_555 1_555
O1 C6 1_555 1_555
O2 La1 1_555 1_555
O3 La1 1_555 1_555
O4 C12 1_555 1_555
O5 C18 1_555 1_555
O6 C18 1_555 1_555
O7 C24 1_555 1_555
O8 C24 1_555 1_555
O9 La1 1_555 1_555
H1 O9 1_555 1_555
H2 O9 1_555 1_555
O10 La1 1_555 1_555
H3 O10 1_555 1_555
H4 O10 1_555 1_555
O11 La1 1_555 1_555
H5 O11 1_555 1_555
H6 O11 1_555 1_555
O12 H7 1_555 1_555
O13 H8 1_555 1_555
N1 C1 1_555 1_555
N2 Cu2 1_555 1_555
N3 Cu3 1_555 1_555
N4 Cu4 1_555 1_555
C1 H9 1_555 1_555
C2 C1 1_555 1_555
H10 C2 1_555 1_555
C3 C2 1_555 1_555
C4 C3 1_555 1_555
H11 C4 1_555 1_555
C5 N1 1_555 1_555
H12 C5 1_555 1_555
C6 O2 1_555 1_555
C7 N2 1_555 1_555
H13 C7 1_555 1_555
C8 C7 1_555 1_555
H14 C8 1_555 1_555
C9 C8 1_555 1_555
C10 C9 1_555 1_555
H15 C10 1_555 1_555
C11 N2 1_555 1_555
H16 C11 1_555 1_555
C12 O3 1_555 1_555
C13 N3 1_555 1_555
H17 C13 1_555 1_555
C14 C13 1_555 1_555
H18 C14 1_555 1_555
C15 C14 1_555 1_555
C16 C15 1_555 1_555
H19 C16 1_555 1_555
C17 N3 1_555 1_555
H20 C17 1_555 1_555
C18 C15 1_555 1_555
C19 N4 1_555 1_555
H21 C19 1_555 1_555
C20 C19 1_555 1_555
H22 C20 1_555 1_555
C21 C20 1_555 1_555
C22 C21 1_555 1_555
H23 C22 1_555 1_555
C23 N4 1_555 1_555
H24 C23 1_555 1_555
C24 C21 1_555 1_555
La1C O1C 1_555 1_555
La1B O4 1_555 1_555
La1B_2 O5 1_555 1_555
La1A O4C 1_555 1_555
La1A_2 O5C 1_555 1_555
Cu1B I2 1_555 1_555
Cu1_2 I2 1_555 1_555
Cu1B_2 N1 1_555 1_555
Cu1A I1A 1_555 1_555
Cu1C I2C 1_555 1_555
Cu2C I1A 1_555 1_555
Cu2B I1 1_555 1_555
Cu3C I4 1_555 1_555
I2C Cu1A 1_555 1_555
I2B Cu1 1_555 1_555
I2_2 Cu1 1_555 1_555
I2B_2 Cu1B 1_555 1_555
I3C Cu4 1_555 1_555
O1B La1B 1_555 1_555
O2B La1B 1_555 1_555
O2C La1C 1_555 1_555
O3C La1C 1_555 1_555
O4C C12C 1_555 1_555
O4B La1 1_555 1_555
O4A La1C 1_555 1_555
O5C C18C 1_555 1_555
O5B La1 1_555 1_555
O5A La1C 1_555 1_555
O6C La1A_2 1_555 1_555
O6B La1 1_555 1_555
O6A La1C 1_555 1_555
O9C La1C 1_555 1_555
H1C O9C 1_555 1_555
H2C O9C 1_555 1_555
O10C La1C 1_555 1_555
H3C O10C 1_555 1_555
H4C O10C 1_555 1_555
O11C La1C 1_555 1_555
H5C O11C 1_555 1_555
H6C O11C 1_555 1_555
H7C O12 1_555 1_555
H8C O13 1_555 1_555
N1B Cu1 1_555 1_555
N1_2 Cu1B 1_555 1_555
N2C Cu2C 1_555 1_555
N3C Cu3C 1_555 1_555
C1B N1B 1_555 1_555
H9B C1B 1_555 1_555
C2B C1B 1_555 1_555
H10B C2B 1_555 1_555
C3B C2B 1_555 1_555
C4B C3B 1_555 1_555
H11B C4B 1_555 1_555
C5B N1B 1_555 1_555
H12B C5B 1_555 1_555
C6B O1B 1_555 1_555
C7C N2C 1_555 1_555
H13C C7C 1_555 1_555
C8C C7C 1_555 1_555
H14C C8C 1_555 1_555
C9C C8C 1_555 1_555
C10C C9C 1_555 1_555
H15C C10C 1_555 1_555
C11C N2C 1_555 1_555
H16C C11C 1_555 1_555
C12C O3C 1_555 1_555
C13C N3C 1_555 1_555
H17C C13C 1_555 1_555
C14C C13C 1_555 1_555
H18C C14C 1_555 1_555
C15C C14C 1_555 1_555
C16C C15C 1_555 1_555
H19C C16C 1_555 1_555
C17C N3C 1_555 1_555
H20C C17C 1_555 1_555
C18C O6C 1_555 1_555
Cu3 I3 1_555 1_555
Cu4 I4 1_555 1_555
O6 La1B_2 1_555 1_555
C3 C6 1_555 1_555
C4 C5 1_555 1_555
C9 C12 1_555 1_555
C10 C11 1_555 1_555
C16 C17 1_555 1_555
C22 C23 1_555 1_555
Cu1_2 I2B_2 1_555 1_555
Cu2C I2C 1_555 1_555
Cu2C I3C 1_555 1_555
Cu2B I2B 1_555 1_555
Cu3C I2C 1_555 1_555
Cu3C I3C 1_555 1_555
O2B C6B 1_555 1_555
C3B C6B 1_555 1_555
C4B C5B 1_555 1_555
C9C C12C 1_555 1_555
C10C C11C 1_555 1_555
C15C C18C 1_555 1_555
C16C C17C 1_555 1_555

#END
