
#######################################################################
#
#                 Cambridge Crystallographic Data Centre
#                                CCDC 
#
#######################################################################
#
# If this CIF has been generated from an entry in the Cambridge 
# Structural Database, then it will include bibliographic, chemical, 
# crystal, experimental, refinement or atomic coordinate data resulting 
# from the CCDC's data processing and validation procedures.
#
#######################################################################

data_ELERET
_symmetry_cell_setting           monoclinic
_symmetry_space_group_name_H-M   'P 21/c'
_symmetry_Int_Tables_number      14
_space_group_name_Hall           '-P 2ybc'
loop_
_symmetry_equiv_pos_site_id
_symmetry_equiv_pos_as_xyz
1 x,y,z
2 -x,1/2+y,1/2-z
3 -x,-y,-z
4 x,1/2-y,1/2+z
_cell_length_a                   17.126(6)
_cell_length_b                   18.361(6)
_cell_length_c                   16.888(6)
_cell_angle_alpha                90
_cell_angle_beta                 102.575(4)
_cell_angle_gamma                90
_cell_volume                     5183.05
loop_
_atom_site_label
_atom_site_type_symbol
_atom_site_fract_x
_atom_site_fract_y
_atom_site_fract_z
Gd1 Gd 0.507003(17) 0.68325(2) -0.069475(18)
Gd2 Gd 0.526579(17) 0.666219(19) -0.326712(18)
I1 I 0.96625(3) 1.07593(4) 0.08200(3)
I2 I 1.00938(3) 0.48197(4) 0.16770(3)
I3 I 0.00459(3) 0.78385(4) -0.28436(3)
Cu1 Cu 1.00836(5) 0.92269(8) 0.08380(7)
Cu2 Cu 0.95493(6) 0.55474(10) 0.27696(8)
Cu3 Cu 0.08551(6) 0.90883(9) -0.25847(8)
Cu4 Cu 1.01465(5) 0.67313(9) 0.07165(7)
O1 O 0.4906(2) 0.5481(3) -0.0871(3)
H1 H 0.4575 0.5335 -0.0622
H2 H 0.5430 0.5151 -0.0742
O2 O 0.4252(3) 0.7676(3) -0.3147(3)
O3 O 0.5152(2) 0.7491(3) -0.1999(2)
O4 O 0.4240(3) 0.8766(3) 0.0535(3)
O5 O 0.4515(3) 0.7937(3) -0.0327(3)
O6 O 0.6225(2) 0.7717(3) -0.0211(3)
O7 O 0.6097(2) 0.8525(3) 0.0775(3)
O8 O 0.4234(2) 0.6106(3) -0.2724(2)
O9 O 0.3796(2) 0.6622(3) -0.1691(3)
O10 O 0.6632(2) 0.6584(3) -0.2355(3)
O11 O 0.6147(2) 0.6335(3) -0.1257(3)
O12 O 0.5843(3) 0.7180(3) 0.1546(3)
O13 O 0.5796(3) 0.6341(3) 0.0576(3)
O14 O 0.3748(3) 0.5361(3) 0.0102(4)
O15 O 0.4003(3) 0.6562(3) 0.0005(3)
N1 N 0.4510(3) 1.0191(3) -0.1890(4)
N2 N 0.1971(3) 0.8961(4) -0.1940(4)
N3 N 0.8977(3) 0.8819(4) 0.0679(4)
N4 N 0.1230(3) 0.5903(4) -0.3598(4)
N5 N 0.9073(3) 0.6707(4) -0.0030(4)
N6 N 0.8383(3) 0.5775(4) 0.2446(4)
N7 N 0.1217(3) 0.6528(5) 0.0512(4)
C1 C 0.3960(5) 0.9864(4) -0.2470(4)
H3 H 0.3535 1.0143 -0.2748
C2 C 0.3987(4) 0.9125(4) -0.2683(4)
H4 H 0.3603 0.8932 -0.3107
C3 C 0.4592(4) 0.8692(4) -0.2254(4)
C4 C 0.5149(4) 0.9017(4) -0.1615(4)
H5 H 0.5558 0.8740 -0.1304
C5 C 0.5085(4) 0.9738(4) -0.1456(5)
H6 H 0.5455 0.9937 -0.1025
C6 C 0.4651(4) 0.7910(4) -0.2489(4)
C7 C 0.2358(5) 0.9479(5) -0.1444(6)
H7 H 0.2163 0.9953 -0.1506
C8 C 0.3045(4) 0.9339(5) -0.0836(5)
H8 H 0.3280 0.9706 -0.0484
C9 C 0.3360(3) 0.8650(4) -0.0772(4)
C10 C 0.2981(4) 0.8121(5) -0.1300(5)
H9 H 0.3179 0.7648 -0.1272
C11 C 0.2286(5) 0.8314(6) -0.1885(5)
H10 H 0.2041 0.7959 -0.2248
C12 C 0.4099(3) 0.8436(4) -0.0133(4)
C13 C 0.8625(4) 0.8734(5) 0.1306(5)
H11 H 0.8931 0.8804 0.1827
C14 C 0.7809(4) 0.8541(5) 0.1214(4)
H12 H 0.7580 0.8504 0.1664
C15 C 0.7356(3) 0.8410(4) 0.0436(4)
C16 C 0.7731(4) 0.8473(6) -0.0208(4)
H13 H 0.7453 0.8373 -0.0734
C17 C 0.8526(4) 0.8688(7) -0.0060(5)
H14 H 0.8761 0.8744 -0.0504
C18 C 0.6481(3) 0.8192(4) 0.0310(4)
C19 C 0.1845(4) 0.5712(6) -0.3940(5)
H15 H 0.1730 0.5493 -0.4448
C20 C 0.2642(4) 0.5830(5) -0.3567(4)
H16 H 0.3046 0.5695 -0.3826
C21 C 0.2831(3) 0.6151(4) -0.2798(4)
C22 C 0.2192(4) 0.6344(5) -0.2450(4)
H17 H 0.2288 0.6562 -0.1941
C23 C 0.1417(4) 0.6209(4) -0.2864(4)
H18 H 0.1002 0.6339 -0.2618
C24 C 0.3692(3) 0.6304(4) -0.2366(4)
C25 C 0.8421(4) 0.6541(6) 0.0274(5)
H19 H 0.8486 0.6474 0.0831
C26 C 0.7657(4) 0.6467(5) -0.0222(4)
H20 H 0.7225 0.6353 0.0007
C27 C 0.7543(3) 0.6562(4) -0.1053(4)
C28 C 0.8219(4) 0.6733(5) -0.1357(4)
H21 H 0.8171 0.6808 -0.1910
C29 C 0.8952(4) 0.6790(5) -0.0834(5)
H22 H 0.9393 0.6893 -0.1053
C30 C 0.6715(3) 0.6489(4) -0.1598(4)
C31 C 0.7901(4) 0.5390(5) 0.1848(5)
H23 H 0.8083 0.4950 0.1683
C32 C 0.7143(4) 0.5634(4) 0.1476(4)
H24 H 0.6824 0.5361 0.1066
C33 C 0.6863(3) 0.6288(4) 0.1718(4)
C34 C 0.7331(5) 0.6660(5) 0.2374(4)
H25 H 0.7142 0.7075 0.2586
C35 C 0.8095(4) 0.6385(6) 0.2698(5)
H26 H 0.8422 0.6644 0.3115
C36 C 0.6093(4) 0.6628(4) 0.1251(4)
C37 C 0.1792(5) 0.7052(6) 0.0570(6)
H27 H 0.1667 0.7524 0.0700
C38 C 0.2545(4) 0.6920(5) 0.0446(5)
H28 H 0.2915 0.7296 0.0479
C39 C 0.2748(4) 0.6209(4) 0.0268(4)
C40 C 0.2183(5) 0.5665(6) 0.0244(5)
H29 H 0.2307 0.5183 0.0154
C41 C 0.1432(5) 0.5852(7) 0.0356(6)
H30 H 0.1053 0.5484 0.0321
C42 C 0.3580(4) 0.6023(4) 0.0113(4)
Gd2C Gd 0.526579(17) 0.833781(19) 0.173288(18)
Gd2A Gd 0.473421(17) 1.166219(19) -0.173288(18)
I1A I 1.03375(3) 0.57593(4) 0.41800(3)
I2C I 0.00938(3) 1.01803(4) -0.33230(3)
I3C I 1.00459(3) 0.71615(4) 0.21564(3)
Cu1C Cu 0.00836(5) 0.57731(8) -0.41620(7)
Cu2A Cu 1.04507(6) 1.05474(10) 0.22304(8)
Cu3C Cu 1.08551(6) 0.59117(9) 0.24153(8)
Cu4C Cu 0.01465(5) 0.82687(9) -0.42835(7)
Cu4_2 Cu 0.01465(5) 0.67313(9) 0.07165(7)
O4C O 0.4240(3) 0.6234(3) -0.4465(3)
O7C O 0.6097(2) 0.6475(3) -0.4225(3)
O12C O 0.5843(3) 0.7820(3) -0.3454(3)
N1A N 0.5490(3) 0.5191(3) -0.3110(4)
N4C N 1.1230(3) 0.9097(4) 0.1402(4)
N7_2 N 1.1217(3) 0.6528(5) 0.0512(4)
loop_
_geom_bond_atom_site_label_1
_geom_bond_atom_site_label_2
_geom_bond_site_symmetry_1
_geom_bond_site_symmetry_2
Gd1 O1 1_555 1_555
Gd2 O2 1_555 1_555
I1 Cu1 1_555 1_555
I2 Cu2 1_555 1_555
I3 Cu3 1_555 1_555
Cu1 N3 1_555 1_555
Cu2 N6 1_555 1_555
Cu3 N2 1_555 1_555
Cu4 N5 1_555 1_555
O1 H1 1_555 1_555
H2 O1 1_555 1_555
O2 C6 1_555 1_555
O3 Gd1 1_555 1_555
O4 C12 1_555 1_555
O5 Gd1 1_555 1_555
O6 Gd1 1_555 1_555
O7 C18 1_555 1_555
O8 Gd2 1_555 1_555
O9 Gd1 1_555 1_555
O10 Gd2 1_555 1_555
O11 Gd1 1_555 1_555
O12 C36 1_555 1_555
O13 Gd1 1_555 1_555
O14 C42 1_555 1_555
O15 Gd1 1_555 1_555
N1 C1 1_555 1_555
N2 C7 1_555 1_555
N3 C13 1_555 1_555
N4 C19 1_555 1_555
N5 C25 1_555 1_555
N6 C31 1_555 1_555
N7 C37 1_555 1_555
C1 H3 1_555 1_555
C2 C1 1_555 1_555
H4 C2 1_555 1_555
C3 C2 1_555 1_555
C4 C3 1_555 1_555
H5 C4 1_555 1_555
C5 N1 1_555 1_555
H6 C5 1_555 1_555
C6 O3 1_555 1_555
C7 H7 1_555 1_555
C8 C7 1_555 1_555
H8 C8 1_555 1_555
C9 C8 1_555 1_555
C10 C9 1_555 1_555
H9 C10 1_555 1_555
C11 N2 1_555 1_555
H10 C11 1_555 1_555
C12 O5 1_555 1_555
C13 H11 1_555 1_555
C14 C13 1_555 1_555
H12 C14 1_555 1_555
C15 C14 1_555 1_555
C16 C15 1_555 1_555
H13 C16 1_555 1_555
C17 N3 1_555 1_555
H14 C17 1_555 1_555
C18 O6 1_555 1_555
C19 H15 1_555 1_555
C20 C19 1_555 1_555
H16 C20 1_555 1_555
C21 C20 1_555 1_555
C22 C21 1_555 1_555
H17 C22 1_555 1_555
C23 N4 1_555 1_555
H18 C23 1_555 1_555
C24 O8 1_555 1_555
C25 H19 1_555 1_555
C26 C25 1_555 1_555
H20 C26 1_555 1_555
C27 C26 1_555 1_555
C28 C27 1_555 1_555
H21 C28 1_555 1_555
C29 N5 1_555 1_555
H22 C29 1_555 1_555
C30 O10 1_555 1_555
C31 H23 1_555 1_555
C32 C31 1_555 1_555
H24 C32 1_555 1_555
C33 C32 1_555 1_555
C34 C33 1_555 1_555
H25 C34 1_555 1_555
C35 N6 1_555 1_555
H26 C35 1_555 1_555
C36 O13 1_555 1_555
C37 H27 1_555 1_555
C38 C37 1_555 1_555
H28 C38 1_555 1_555
C39 C38 1_555 1_555
C40 C39 1_555 1_555
H29 C40 1_555 1_555
C41 N7 1_555 1_555
H30 C41 1_555 1_555
C42 O15 1_555 1_555
Gd2C O4 1_555 1_555
Gd2A N1 1_555 1_555
I1A Cu2 1_555 1_555
I2C Cu3 1_555 1_555
I3C Cu4 1_555 1_555
Cu1C N4 1_555 1_555
Cu2A I1 1_555 1_555
Cu3C I2 1_555 1_555
Cu4C I3 1_555 1_555
Cu4_2 N7 1_555 1_555
O4C Gd2 1_555 1_555
O7C Gd2 1_555 1_555
O12C Gd2 1_555 1_555
N1A Gd2 1_555 1_555
N4C Cu1 1_555 1_555
N7_2 Cu4 1_555 1_555
Gd2 O3 1_555 1_555
O7 Gd2C 1_555 1_555
O9 C24 1_555 1_555
O11 C30 1_555 1_555
O12 Gd2C 1_555 1_555
C3 C6 1_555 1_555
C4 C5 1_555 1_555
C9 C12 1_555 1_555
C10 C11 1_555 1_555
C15 C18 1_555 1_555
C16 C17 1_555 1_555
C21 C24 1_555 1_555
C22 C23 1_555 1_555
C27 C30 1_555 1_555
C28 C29 1_555 1_555
C33 C36 1_555 1_555
C34 C35 1_555 1_555
C39 C42 1_555 1_555
C40 C41 1_555 1_555
I3C Cu3C 1_555 1_555

#END
