
#######################################################################
#
#                 Cambridge Crystallographic Data Centre
#                                CCDC 
#
#######################################################################
#
# If this CIF has been generated from an entry in the Cambridge 
# Structural Database, then it will include bibliographic, chemical, 
# crystal, experimental, refinement or atomic coordinate data resulting 
# from the CCDC's data processing and validation procedures.
#
#######################################################################

data_ELERAP
_symmetry_cell_setting           monoclinic
_symmetry_space_group_name_H-M   'P 21/c'
_symmetry_Int_Tables_number      14
_space_group_name_Hall           '-P 2ybc'
loop_
_symmetry_equiv_pos_site_id
_symmetry_equiv_pos_as_xyz
1 x,y,z
2 -x,1/2+y,1/2-z
3 -x,-y,-z
4 x,1/2-y,1/2+z
_cell_length_a                   16.9964(16)
_cell_length_b                   18.1919(17)
_cell_length_c                   16.7670(16)
_cell_angle_alpha                90
_cell_angle_beta                 102.6380(10)
_cell_angle_gamma                90
_cell_volume                     5058.7
loop_
_atom_site_label
_atom_site_type_symbol
_atom_site_fract_x
_atom_site_fract_y
_atom_site_fract_z
Nd1 Nd 0.507072(14) 0.683319(14) -0.069467(14)
Nd2 Nd 0.526615(14) 0.666455(13) -0.326406(14)
I1 I 0.96651(2) 1.07582(3) 0.08205(2)
I2 I 1.00971(2) 0.48159(3) 0.16784(3)
I3 I 0.00491(2) 0.78437(2) -0.28443(3)
Cu1 Cu 1.00833(4) 0.92260(5) 0.08439(5)
Cu2 Cu 0.95477(5) 0.55461(7) 0.27660(6)
Cu3 Cu 0.08589(5) 0.90977(6) -0.25779(6)
Cu4 Cu 1.01472(4) 0.67339(7) 0.07131(6)
O1 O 0.4910(2) 0.54793(19) -0.0867(2)
H1 H 0.4577 0.5332 -0.0617
H2 H 0.5435 0.5149 -0.0738
O2 O 0.4257(2) 0.76793(19) -0.3147(2)
O3 O 0.51510(19) 0.74940(18) -0.19920(19)
O4 O 0.4242(2) 0.8756(2) 0.0541(2)
O5 O 0.4515(2) 0.7932(2) -0.0319(3)
O6 O 0.62252(19) 0.7720(2) -0.0212(2)
O7 O 0.6089(2) 0.8521(2) 0.0767(2)
O8 O 0.42338(18) 0.61054(18) -0.2719(2)
O9 O 0.37964(19) 0.6618(2) -0.1690(2)
O10 O 0.6633(2) 0.6583(2) -0.2352(2)
O11 O 0.61467(18) 0.63371(19) -0.1257(2)
O12 O 0.5828(2) 0.7172(2) 0.1544(2)
O13 O 0.5799(2) 0.6339(2) 0.0572(2)
O14 O 0.3749(2) 0.5360(2) 0.0101(3)
O15 O 0.4004(2) 0.6557(2) 0.0009(2)
N1 N 0.4511(3) 1.0195(2) -0.1889(3)
N2 N 0.1976(3) 0.8977(3) -0.1942(3)
N3 N 0.8978(2) 0.8817(3) 0.0688(3)
N4 N 0.1225(2) 0.5907(3) -0.3597(3)
N5 N 0.9072(2) 0.6709(3) -0.0032(3)
N6 N 0.8386(3) 0.5770(3) 0.2444(3)
N7 N 0.1220(3) 0.6526(4) 0.0520(3)
C1 C 0.3964(3) 0.9872(3) -0.2476(3)
H3 H 0.3541 1.0158 -0.2762
C2 C 0.3987(3) 0.9136(3) -0.2685(3)
H4 H 0.3600 0.8942 -0.3113
C3 C 0.4589(3) 0.8698(3) -0.2249(3)
C4 C 0.5144(3) 0.9015(3) -0.1619(3)
H5 H 0.5555 0.8734 -0.1305
C5 C 0.5084(3) 0.9756(3) -0.1459(4)
H6 H 0.5461 0.9961 -0.1030
C6 C 0.4646(3) 0.7907(3) -0.2479(3)
C7 C 0.2356(4) 0.9478(4) -0.1433(4)
H7 H 0.2147 0.9952 -0.1480
C8 C 0.3047(3) 0.9349(3) -0.0829(4)
H8 H 0.3290 0.9724 -0.0485
C9 C 0.3359(3) 0.8648(3) -0.0760(3)
C10 C 0.2978(3) 0.8125(3) -0.1302(4)
H9 H 0.3183 0.7650 -0.1282
C11 C 0.2285(4) 0.8309(4) -0.1878(4)
H10 H 0.2030 0.7946 -0.2233
C12 C 0.4096(3) 0.8435(3) -0.0129(3)
C13 C 0.8619(3) 0.8722(3) 0.1302(3)
H11 H 0.8927 0.8780 0.1830
C14 C 0.7812(3) 0.8540(3) 0.1212(3)
H12 H 0.7583 0.8505 0.1666
C15 C 0.7357(3) 0.8412(3) 0.0439(3)
C16 C 0.7733(3) 0.8481(5) -0.0201(4)
H13 H 0.7450 0.8384 -0.0731
C17 C 0.8523(3) 0.8691(5) -0.0063(4)
H14 H 0.8758 0.8750 -0.0510
C18 C 0.6479(3) 0.8198(3) 0.0319(3)
C19 C 0.1843(3) 0.5708(4) -0.3928(4)
H15 H 0.1727 0.5474 -0.4434
C20 C 0.2639(3) 0.5831(4) -0.3559(3)
H16 H 0.3046 0.5695 -0.3821
C21 C 0.2829(3) 0.6158(3) -0.2796(3)
C22 C 0.2193(3) 0.6348(3) -0.2447(3)
H17 H 0.2293 0.6561 -0.1930
C23 C 0.1411(3) 0.6223(3) -0.2860(3)
H18 H 0.0994 0.6364 -0.2615
C24 C 0.3687(3) 0.6305(3) -0.2372(3)
C25 C 0.8418(3) 0.6548(4) 0.0262(3)
H19 H 0.8484 0.6478 0.0822
C26 C 0.7656(3) 0.6481(4) -0.0221(3)
H20 H 0.7220 0.6377 0.0012
C27 C 0.7544(3) 0.6571(3) -0.1056(3)
C28 C 0.8215(3) 0.6741(3) -0.1366(3)
H21 H 0.8165 0.6815 -0.1923
C29 C 0.8952(3) 0.6798(4) -0.0839(3)
H22 H 0.9397 0.6905 -0.1057
C30 C 0.6712(3) 0.6500(3) -0.1597(3)
C31 C 0.7905(3) 0.5397(3) 0.1841(4)
H23 H 0.8093 0.4959 0.1665
C32 C 0.7145(3) 0.5632(3) 0.1471(3)
H24 H 0.6826 0.5355 0.1058
C33 C 0.6857(3) 0.6286(3) 0.1719(3)
C34 C 0.7341(3) 0.6661(3) 0.2364(3)
H25 H 0.7159 0.7090 0.2567
C35 C 0.8096(4) 0.6388(4) 0.2696(3)
H26 H 0.8422 0.6649 0.3120
C36 C 0.6089(3) 0.6622(3) 0.1242(3)
C37 C 0.1777(4) 0.7054(4) 0.0557(5)
H27 H 0.1642 0.7534 0.0664
C38 C 0.2547(3) 0.6915(4) 0.0441(4)
H28 H 0.2920 0.7294 0.0477
C39 C 0.2750(3) 0.6211(3) 0.0273(3)
C40 C 0.2183(4) 0.5671(4) 0.0248(4)
H29 H 0.2306 0.5184 0.0159
C41 C 0.1426(4) 0.5857(5) 0.0357(4)
H30 H 0.1040 0.5488 0.0311
C42 C 0.3580(3) 0.6022(3) 0.0118(3)
Nd2C Nd 0.526615(14) 0.833545(13) 0.173594(14)
Nd2A Nd 0.473385(14) 1.166455(13) -0.173594(14)
I1A I 1.03349(2) 0.57582(3) 0.41795(2)
I2C I 0.00971(2) 1.01841(3) -0.33216(3)
I3C I 1.00491(2) 0.71563(2) 0.21557(3)
Cu1C Cu 0.00833(4) 0.57740(5) -0.41561(5)
Cu2A Cu 1.04523(5) 1.05461(7) 0.22340(6)
Cu3C Cu 1.08589(5) 0.59023(6) 0.24221(6)
Cu4C Cu 0.01472(4) 0.82661(7) -0.42869(6)
Cu4_2 Cu 0.01472(4) 0.67339(7) 0.07131(6)
O4C O 0.4242(2) 0.6244(2) -0.4459(2)
O7C O 0.6089(2) 0.6479(2) -0.4233(2)
O12C O 0.5828(2) 0.7828(2) -0.3456(2)
N1A N 0.5489(3) 0.5195(2) -0.3111(3)
N4C N 1.1225(2) 0.9093(3) 0.1403(3)
N7_2 N 1.1220(3) 0.6526(4) 0.0520(3)
loop_
_geom_bond_atom_site_label_1
_geom_bond_atom_site_label_2
_geom_bond_site_symmetry_1
_geom_bond_site_symmetry_2
Nd1 O1 1_555 1_555
Nd2 O2 1_555 1_555
I1 Cu1 1_555 1_555
I2 Cu2 1_555 1_555
I3 Cu3 1_555 1_555
Cu1 N3 1_555 1_555
Cu2 N6 1_555 1_555
Cu3 N2 1_555 1_555
Cu4 N5 1_555 1_555
O1 H1 1_555 1_555
H2 O1 1_555 1_555
O2 C6 1_555 1_555
O3 Nd1 1_555 1_555
O4 C12 1_555 1_555
O5 Nd1 1_555 1_555
O6 Nd1 1_555 1_555
O7 C18 1_555 1_555
O8 Nd2 1_555 1_555
O9 Nd1 1_555 1_555
O10 Nd2 1_555 1_555
O11 Nd1 1_555 1_555
O12 C36 1_555 1_555
O13 Nd1 1_555 1_555
O14 C42 1_555 1_555
O15 Nd1 1_555 1_555
N1 C1 1_555 1_555
N2 C7 1_555 1_555
N3 C13 1_555 1_555
N4 C19 1_555 1_555
N5 C25 1_555 1_555
N6 C31 1_555 1_555
N7 C37 1_555 1_555
C1 H3 1_555 1_555
C2 C1 1_555 1_555
H4 C2 1_555 1_555
C3 C2 1_555 1_555
C4 C3 1_555 1_555
H5 C4 1_555 1_555
C5 N1 1_555 1_555
H6 C5 1_555 1_555
C6 O3 1_555 1_555
C7 H7 1_555 1_555
C8 C7 1_555 1_555
H8 C8 1_555 1_555
C9 C8 1_555 1_555
C10 C9 1_555 1_555
H9 C10 1_555 1_555
C11 N2 1_555 1_555
H10 C11 1_555 1_555
C12 O5 1_555 1_555
C13 H11 1_555 1_555
C14 C13 1_555 1_555
H12 C14 1_555 1_555
C15 C14 1_555 1_555
C16 C15 1_555 1_555
H13 C16 1_555 1_555
C17 N3 1_555 1_555
H14 C17 1_555 1_555
C18 O6 1_555 1_555
C19 H15 1_555 1_555
C20 C19 1_555 1_555
H16 C20 1_555 1_555
C21 C20 1_555 1_555
C22 C21 1_555 1_555
H17 C22 1_555 1_555
C23 N4 1_555 1_555
H18 C23 1_555 1_555
C24 O8 1_555 1_555
C25 H19 1_555 1_555
C26 C25 1_555 1_555
H20 C26 1_555 1_555
C27 C26 1_555 1_555
C28 C27 1_555 1_555
H21 C28 1_555 1_555
C29 N5 1_555 1_555
H22 C29 1_555 1_555
C30 O10 1_555 1_555
C31 H23 1_555 1_555
C32 C31 1_555 1_555
H24 C32 1_555 1_555
C33 C32 1_555 1_555
C34 C33 1_555 1_555
H25 C34 1_555 1_555
C35 N6 1_555 1_555
H26 C35 1_555 1_555
C36 O13 1_555 1_555
C37 H27 1_555 1_555
C38 C37 1_555 1_555
H28 C38 1_555 1_555
C39 C38 1_555 1_555
C40 C39 1_555 1_555
H29 C40 1_555 1_555
C41 N7 1_555 1_555
H30 C41 1_555 1_555
C42 O15 1_555 1_555
Nd2C O4 1_555 1_555
Nd2A N1 1_555 1_555
I1A Cu2 1_555 1_555
I2C Cu3 1_555 1_555
I3C Cu4 1_555 1_555
Cu1C N4 1_555 1_555
Cu2A I1 1_555 1_555
Cu3C I2 1_555 1_555
Cu4C I3 1_555 1_555
Cu4_2 N7 1_555 1_555
O4C Nd2 1_555 1_555
O7C Nd2 1_555 1_555
O12C Nd2 1_555 1_555
N1A Nd2 1_555 1_555
N4C Cu1 1_555 1_555
N7_2 Cu4 1_555 1_555
Nd2 O3 1_555 1_555
O7 Nd2C 1_555 1_555
O9 C24 1_555 1_555
O11 C30 1_555 1_555
O12 Nd2C 1_555 1_555
C3 C6 1_555 1_555
C4 C5 1_555 1_555
C9 C12 1_555 1_555
C10 C11 1_555 1_555
C15 C18 1_555 1_555
C16 C17 1_555 1_555
C21 C24 1_555 1_555
C22 C23 1_555 1_555
C27 C30 1_555 1_555
C28 C29 1_555 1_555
C33 C36 1_555 1_555
C34 C35 1_555 1_555
C39 C42 1_555 1_555
C40 C41 1_555 1_555
I3C Cu3C 1_555 1_555

#END
