
#######################################################################
#
#                 Cambridge Crystallographic Data Centre
#                                CCDC 
#
#######################################################################
#
# If this CIF has been generated from an entry in the Cambridge 
# Structural Database, then it will include bibliographic, chemical, 
# crystal, experimental, refinement or atomic coordinate data resulting 
# from the CCDC's data processing and validation procedures.
#
#######################################################################

data_ELESUK
_symmetry_cell_setting           triclinic
_symmetry_space_group_name_H-M   'P -1'
_symmetry_Int_Tables_number      2
_space_group_name_Hall           '-P 1'
loop_
_symmetry_equiv_pos_site_id
_symmetry_equiv_pos_as_xyz
1 x,y,z
2 -x,-y,-z
_cell_length_a                   8.7963(4)
_cell_length_b                   9.5610(5)
_cell_length_c                   18.1292(9)
_cell_angle_alpha                81.785(1)
_cell_angle_beta                 78.592(1)
_cell_angle_gamma                84.431(1)
_cell_volume                     1475.51
loop_
_atom_site_label
_atom_site_type_symbol
_atom_site_fract_x
_atom_site_fract_y
_atom_site_fract_z
Zn1 Zn 0.78393(2) 0.777113(19) 0.011945(11)
Zn2 Zn 1.69825(2) 0.724885(19) -0.510267(10)
O1 O 0.62232(15) 0.62175(13) 0.14169(7)
O2 O 0.70741(14) 0.58937(13) 0.02060(7)
O3 O 0.81188(15) 0.06867(13) -0.01009(7)
O4 O 0.63250(14) -0.07561(13) 0.04995(7)
O5 O -0.12472(16) -0.12533(14) 0.37318(8)
O6 O -0.22587(14) -0.09062(12) 0.49215(7)
O7 O -0.30932(15) 0.42225(13) 0.52855(7)
O8 O -0.14894(14) 0.57329(12) 0.45658(7)
N1 N 0.28055(16) 0.19631(15) 0.23989(8)
N2 N 0.22540(16) 0.29269(15) 0.28010(8)
C1 C 0.57642(18) 0.40588(17) 0.10223(9)
C2 C 0.64624(18) 0.30028(17) 0.05821(9)
H1 H 0.7272 0.3223 0.0161
C3 C 0.59809(18) 0.16302(17) 0.07560(9)
C4 C 0.47431(18) 0.13258(17) 0.13533(9)
H2 H 0.4387 0.0399 0.1465
C5 C 0.40316(18) 0.23852(17) 0.17852(9)
C6 C 0.45553(18) 0.37495(17) 0.16258(9)
H3 H 0.4085 0.4463 0.1930
C7 C 0.63807(18) 0.55017(17) 0.08848(10)
C8 C 0.68696(19) 0.04606(17) 0.03444(9)
C9 C -0.07786(18) 0.08771(17) 0.41460(9)
C10 C -0.14774(18) 0.19384(17) 0.45842(9)
H4 H -0.2301 0.1728 0.5000
C11 C -0.09698(18) 0.33034(17) 0.44133(9)
C12 C 0.03107(18) 0.35757(17) 0.38349(9)
H5 H 0.0699 0.4491 0.3732
C13 C 0.10206(18) 0.25107(17) 0.34080(9)
C14 C 0.04633(18) 0.11627(17) 0.35540(9)
H6 H 0.0929 0.0446 0.3251
C15 C -0.14475(18) -0.05356(17) 0.42644(9)
C16 C -0.19119(18) 0.44838(17) 0.47974(9)
N3 N 0.92571(16) 0.77968(15) -0.09301(8)
N4 N 1.53754(16) 0.72530(15) -0.41058(8)
C17 C 0.9755(2) 0.65391(18) -0.11765(10)
H7 H 0.9276 0.5715 -0.0914
C18 C 1.0932(2) 0.63951(18) -0.17950(10)
H8 H 1.1251 0.5486 -0.1948
C19 C 1.16563(19) 0.75905(17) -0.21960(9)
C20 C 1.1102(2) 0.88899(19) -0.19530(10)
H9 H 1.1527 0.9737 -0.2218
C21 C 0.9926(2) 0.89456(19) -0.13230(10)
H10 H 0.9576 0.9843 -0.1161
C22 C 1.4592(2) 0.61299(18) -0.37636(10)
H11 H 1.4872 0.5247 -0.3955
C23 C 1.3393(2) 0.61986(18) -0.31437(10)
H12 H 1.2867 0.5376 -0.2920
C24 C 1.29596(18) 0.74751(17) -0.28484(9)
C25 C 1.37984(19) 0.86424(18) -0.31975(9)
H13 H 1.3560 0.9532 -0.3010
C26 C 1.49773(19) 0.84912(18) -0.38178(10)
H14 H 1.5530 0.9294 -0.4051
O9 O 0.96725(16) 0.75145(15) 0.06441(8)
H15 H 0.959(3) 0.742(3) 0.1058(15)
H16 H 1.036(4) 0.805(3) 0.0462(17)
O10 O 1.54070(16) 0.75229(15) -0.57950(8)
H17 H 1.574(3) 0.755(3) -0.6209(16)
H18 H 1.467(3) 0.709(3) -0.5655(16)
Zn1_2 Zn 0.78393(2) -0.222887(19) 0.011945(11)
Zn2_2 Zn -0.30175(2) -0.275115(19) 0.489733(10)
Zn2_3 Zn -0.30175(2) 0.724885(19) 0.489733(10)
O4_2 O 0.63250(14) 0.92439(13) 0.04995(7)
O6_2 O 1.77413(14) 0.90938(12) -0.50785(7)
O8_2 O 1.85106(14) 0.57329(12) -0.54342(7)
O11 O 0.94603(16) 0.70207(16) 0.21475(8)
C27 C 1.0287(2) 0.69939(19) 0.26326(11)
H19 H 0.9812 0.6794 0.3151
N5 N 1.17817(19) 0.72239(18) 0.24772(10)
C28 C 1.2594(3) 0.7524(3) 0.16972(13)
H20 H 1.2250 0.6914 0.1381
H21 H 1.3717 0.7342 0.1677
H22 H 1.2364 0.8519 0.1508
C29 C 1.2625(3) 0.7253(3) 0.30877(15)
H23 H 1.1909 0.7123 0.3576
H24 H 1.3081 0.8168 0.3027
H25 H 1.3454 0.6489 0.3071
O12 O 0.63906(19) 0.76924(18) 0.26840(8)
H26 H 0.736(3) 0.757(2) 0.2592(13)
H27 H 0.608(4) 0.746(3) 0.2311(19)
loop_
_geom_bond_atom_site_label_1
_geom_bond_atom_site_label_2
_geom_bond_site_symmetry_1
_geom_bond_site_symmetry_2
Zn1 O2 1_555 1_555
Zn2 N4 1_555 1_555
O1 C7 1_555 1_555
O2 C7 1_555 1_555
O3 C8 1_555 1_555
O4 C8 1_555 1_555
O5 C15 1_555 1_555
O6 C15 1_555 1_555
O7 C16 1_555 1_555
O8 C16 1_555 1_555
N1 N2 1_555 1_555
N2 C13 1_555 1_555
C1 C2 1_555 1_555
C2 H1 1_555 1_555
C3 C2 1_555 1_555
C4 C3 1_555 1_555
H2 C4 1_555 1_555
C5 N1 1_555 1_555
C6 C1 1_555 1_555
H3 C6 1_555 1_555
C7 C1 1_555 1_555
C8 C3 1_555 1_555
C9 C10 1_555 1_555
C10 H4 1_555 1_555
C11 C10 1_555 1_555
C12 C11 1_555 1_555
H5 C12 1_555 1_555
C13 C12 1_555 1_555
C14 C9 1_555 1_555
H6 C14 1_555 1_555
C15 C9 1_555 1_555
C16 C11 1_555 1_555
N3 Zn1 1_555 1_555
N4 C22 1_555 1_555
C17 N3 1_555 1_555
H7 C17 1_555 1_555
C18 C17 1_555 1_555
H8 C18 1_555 1_555
C19 C18 1_555 1_555
C20 C19 1_555 1_555
H9 C20 1_555 1_555
C21 N3 1_555 1_555
H10 C21 1_555 1_555
C22 H11 1_555 1_555
C23 C22 1_555 1_555
H12 C23 1_555 1_555
C24 C19 1_555 1_555
C25 C24 1_555 1_555
H13 C25 1_555 1_555
C26 N4 1_555 1_555
H14 C26 1_555 1_555
O9 Zn1 1_555 1_555
H15 O9 1_555 1_555
H16 O9 1_555 1_555
O10 Zn2 1_555 1_555
H17 O10 1_555 1_555
H18 O10 1_555 1_555
O11 C27 1_555 1_555
C27 H19 1_555 1_555
N5 C27 1_555 1_555
C28 N5 1_555 1_555
H20 C28 1_555 1_555
H21 C28 1_555 1_555
H22 C28 1_555 1_555
C29 N5 1_555 1_555
H23 C29 1_555 1_555
H24 C29 1_555 1_555
H25 C29 1_555 1_555
O12 H26 1_555 1_555
H27 O12 1_555 1_555
Zn1_2 O4 1_555 1_555
Zn2_2 O6 1_555 1_555
Zn2_3 O8 1_555 1_555
O4_2 Zn1 1_555 1_555
O6_2 Zn2 1_555 1_555
O8_2 Zn2 1_555 1_555
C4 C5 1_555 1_555
C5 C6 1_555 1_555
C13 C14 1_555 1_555
C20 C21 1_555 1_555
C23 C24 1_555 1_555
C25 C26 1_555 1_555

#END
