
#######################################################################
#
#                 Cambridge Crystallographic Data Centre
#                                CCDC 
#
#######################################################################
#
# If this CIF has been generated from an entry in the Cambridge 
# Structural Database, then it will include bibliographic, chemical, 
# crystal, experimental, refinement or atomic coordinate data resulting 
# from the CCDC's data processing and validation procedures.
#
#######################################################################

data_ELESAP
_symmetry_cell_setting           monoclinic
_symmetry_space_group_name_H-M   'P 21/c'
_symmetry_Int_Tables_number      14
_space_group_name_Hall           '-P 2ybc'
loop_
_symmetry_equiv_pos_site_id
_symmetry_equiv_pos_as_xyz
1 x,y,z
2 x,1/2-y,1/2+z
3 -x,-y,-z
4 -x,1/2+y,1/2-z
_cell_length_a                   9.3021(2)
_cell_length_b                   9.6489(2)
_cell_length_c                   15.0447(4)
_cell_angle_alpha                90.0000(8)
_cell_angle_beta                 92.2887(8)
_cell_angle_gamma                90.0000(15)
_cell_volume                     1349.26
loop_
_atom_site_label
_atom_site_type_symbol
_atom_site_fract_x
_atom_site_fract_y
_atom_site_fract_z
Cu1 Cu 0.12613(3) 0.05964(3) -0.045111(19)
O1 O 0.01922(19) -0.10891(18) -0.03597(13)
O2 O 0.0344(2) 0.1219(2) -0.19272(15)
H1 H -0.048(2) 0.107(4) -0.188(3)
N1 N 0.2547(3) -0.0559(2) -0.12038(16)
H2 H 0.332(4) -0.041(3) -0.110(2)
N2 N 0.2464(2) 0.2288(2) -0.03103(13)
C1 C 0.0737(3) -0.2268(3) -0.0761(2)
H3 H 0.0196 -0.2460 -0.1312
H4 H 0.0651 -0.3061 -0.0370
C2 C 0.2296(3) -0.2023(3) -0.0948(2)
H5 H 0.2889 -0.2246 -0.0423
H6 H 0.2576 -0.2629 -0.1426
C3 C 0.2326(4) -0.0247(4) -0.2159(2)
H7 H 0.2656 -0.1029 -0.2502
H8 H 0.2908 0.0549 -0.2305
C4 C 0.0791(4) 0.0047(4) -0.2425(2)
H9 H 0.0700 0.0243 -0.3057
H10 H 0.0195 -0.0749 -0.2300
C5 C 0.2827(3) 0.3094(3) -0.09847(17)
H11 H 0.2399 0.2931 -0.1544
C6 C 0.3810(3) 0.4160(3) -0.08900(18)
H12 H 0.4040 0.4688 -0.1381
C7 C 0.4455(2) 0.4445(2) -0.00644(15)
C8 C 0.4032(3) 0.3626(3) 0.06391(17)
H13 H 0.4415 0.3787 0.1210
C9 C 0.3047(3) 0.2578(3) 0.04928(17)
H14 H 0.2776 0.2049 0.0975
C7B C 0.5545(2) 0.5555(2) 0.00644(15)
C6B C 0.6190(3) 0.5840(3) 0.08900(18)
C5B C 0.7173(3) 0.6906(3) 0.09847(17)
N2B N 0.7536(2) 0.7712(2) 0.03103(13)
C9B C 0.6953(3) 0.7422(3) -0.04928(17)
C8B C 0.5968(3) 0.6374(3) -0.06391(17)
H13B H 0.5585 0.6213 -0.1210
H14B H 0.7224 0.7951 -0.0975
H11B H 0.7601 0.7069 0.1544
H12B H 0.5960 0.5312 0.1381
O1B O -0.01922(19) 0.10891(18) 0.03597(13)
O2B O -0.0344(2) -0.1219(2) 0.19272(15)
H1B H 0.048(2) -0.107(4) 0.188(3)
N1B N -0.2547(3) 0.0559(2) 0.12038(16)
H2B H -0.332(4) 0.041(3) 0.110(2)
C1B C -0.0737(3) 0.2268(3) 0.0761(2)
H3B H -0.0196 0.2460 0.1312
H4B H -0.0651 0.3061 0.0370
C2B C -0.2296(3) 0.2023(3) 0.0948(2)
H5B H -0.2889 0.2246 0.0423
H6B H -0.2576 0.2629 0.1426
C3B C -0.2326(4) 0.0247(4) 0.2159(2)
H7B H -0.2656 0.1029 0.2502
H8B H -0.2908 -0.0549 0.2305
C4B C -0.0791(4) -0.0047(4) 0.2425(2)
H9B H -0.0700 -0.0243 0.3057
H10B H -0.0195 0.0749 0.2300
Cu1B Cu -0.12613(3) -0.05964(3) 0.045111(19)
Cu1B_2 Cu 0.87387(3) 0.94036(3) 0.045111(19)
N2B_2 N -0.2464(2) -0.2288(2) 0.03103(13)
Cl1 Cl -0.35869(8) 0.11232(10) -0.16126(5)
O3 O -0.2661(3) 0.2219(4) -0.13176(19)
O4 O -0.2698(4) 0.0080(4) -0.2005(2)
O5 O -0.4590(3) 0.1626(4) -0.22718(17)
O6 O -0.4300(3) 0.0569(3) -0.08674(17)
loop_
_geom_bond_atom_site_label_1
_geom_bond_atom_site_label_2
_geom_bond_site_symmetry_1
_geom_bond_site_symmetry_2
Cu1 O1 1_555 1_555
O1 C1 1_555 1_555
O2 Cu1 1_555 1_555
H1 O2 1_555 1_555
N1 Cu1 1_555 1_555
H2 N1 1_555 1_555
N2 Cu1 1_555 1_555
C1 H3 1_555 1_555
H4 C1 1_555 1_555
C2 N1 1_555 1_555
H5 C2 1_555 1_555
H6 C2 1_555 1_555
C3 N1 1_555 1_555
H7 C3 1_555 1_555
H8 C3 1_555 1_555
C4 O2 1_555 1_555
H9 C4 1_555 1_555
H10 C4 1_555 1_555
C5 N2 1_555 1_555
H11 C5 1_555 1_555
C6 C5 1_555 1_555
H12 C6 1_555 1_555
C7 C6 1_555 1_555
C8 C7 1_555 1_555
H13 C8 1_555 1_555
C9 N2 1_555 1_555
H14 C9 1_555 1_555
Cl1 O3 1_555 1_555
O4 Cl1 1_555 1_555
O5 Cl1 1_555 1_555
O6 Cl1 1_555 1_555
C7B C7 1_555 1_555
C6B C7B 1_555 1_555
C5B C6B 1_555 1_555
N2B C5B 1_555 1_555
C9B N2B 1_555 1_555
C8B C7B 1_555 1_555
H13B C8B 1_555 1_555
H14B C9B 1_555 1_555
H11B C5B 1_555 1_555
H12B C6B 1_555 1_555
O1B Cu1 1_555 1_555
O2B H1B 1_555 1_555
N1B H2B 1_555 1_555
C1B O1B 1_555 1_555
H3B C1B 1_555 1_555
H4B C1B 1_555 1_555
C2B N1B 1_555 1_555
H5B C2B 1_555 1_555
H6B C2B 1_555 1_555
C3B N1B 1_555 1_555
H7B C3B 1_555 1_555
H8B C3B 1_555 1_555
C4B O2B 1_555 1_555
H9B C4B 1_555 1_555
H10B C4B 1_555 1_555
Cu1B O1 1_555 1_555
Cu1B_2 N2B 1_555 1_555
N2B_2 Cu1B 1_555 1_555
C1 C2 1_555 1_555
C3 C4 1_555 1_555
C8 C9 1_555 1_555
C9B C8B 1_555 1_555
O1B Cu1B 1_555 1_555
O2B Cu1B 1_555 1_555
N1B Cu1B 1_555 1_555
C1B C2B 1_555 1_555
C3B C4B 1_555 1_555

#END
