
#######################################################################
#
#                 Cambridge Crystallographic Data Centre
#                                CCDC 
#
#######################################################################
#
# If this CIF has been generated from an entry in the Cambridge 
# Structural Database, then it will include bibliographic, chemical, 
# crystal, experimental, refinement or atomic coordinate data resulting 
# from the CCDC's data processing and validation procedures.
#
#######################################################################

data_ELESET
_symmetry_cell_setting           triclinic
_symmetry_space_group_name_H-M   'P -1'
_symmetry_Int_Tables_number      2
_space_group_name_Hall           '-P 1'
loop_
_symmetry_equiv_pos_site_id
_symmetry_equiv_pos_as_xyz
1 x,y,z
2 -x,-y,-z
_cell_length_a                   13.3596(7)
_cell_length_b                   14.1151(7)
_cell_length_c                   14.9091(8)
_cell_angle_alpha                112.633(4)
_cell_angle_beta                 97.054(3)
_cell_angle_gamma                108.391(2)
_cell_volume                     2364.73
loop_
_atom_site_label
_atom_site_type_symbol
_atom_site_fract_x
_atom_site_fract_y
_atom_site_fract_z
Cu1 Cu -0.06433(9) 0.04293(8) 0.07356(7)
Cu2 Cu 0.57092(9) 0.96874(8) 0.43100(8)
O1 O 0.0506(5) -0.0152(5) 0.0627(4)
O2 O 0.4428(5) 1.0045(5) 0.4357(4)
N1 N -0.0738(6) 0.0409(6) 0.2056(5)
H1 H -0.0945 0.0974 0.2415
H2 H -0.1289 -0.0255 0.1924
N2 N 0.5842(6) 0.9855(6) 0.3057(5)
H3 H 0.6281 1.0590 0.3251
H4 H 0.6211 0.9432 0.2743
N3 N 0.0500(6) 0.2282(6) 0.1471(6)
N4 N 0.4735(6) 0.7713(6) 0.3567(6)
N5 N -0.2221(6) 0.0311(6) 0.0422(5)
N6 N 0.7244(7) 0.9760(6) 0.4589(5)
C1 C 0.1129(8) -0.0293(8) 0.1364(7)
H5 H 0.1831 0.0371 0.1718
H6 H 0.1305 -0.0951 0.1021
C2 C 0.0563(9) -0.0452(8) 0.2128(7)
H7 H 0.1051 -0.0537 0.2622
H8 H -0.0110 -0.1149 0.1784
C3 C 0.0251(9) 0.0533(9) 0.2699(7)
H9 H 0.0120 0.0536 0.3339
H10 H 0.0856 0.1250 0.2864
C4 C 0.3639(8) 0.9839(8) 0.3498(7)
H11 H 0.3168 1.0249 0.3728
H12 H 0.3164 0.9031 0.3137
C5 C 0.4181(8) 1.0204(8) 0.2754(7)
H13 H 0.3599 1.0117 0.2212
H14 H 0.4676 1.1006 0.3123
C6 C 0.4822(8) 0.9550(9) 0.2282(7)
H15 H 0.5020 0.9709 0.1721
H16 H 0.4367 0.8740 0.1998
C7 C 0.0597(7) 0.3079(7) 0.2294(7)
H17 H 0.0045 0.2918 0.2623
C8 C 0.1414(8) 0.4175(7) 0.2791(6)
H18 H 0.1403 0.4706 0.3416
C9 C 0.2226(7) 0.4452(7) 0.2342(6)
C10 C 0.2130(7) 0.3567(7) 0.1411(7)
H19 H 0.2664 0.3684 0.1056
C11 C 0.1277(7) 0.2552(7) 0.1025(6)
H20 H 0.1232 0.1994 0.0390
C12 C 0.4519(7) 0.7026(7) 0.2669(7)
H21 H 0.4932 0.7265 0.2265
C13 C 0.3732(8) 0.5948(8) 0.2208(7)
H22 H 0.3601 0.5479 0.1511
C14 C 0.3147(7) 0.5570(7) 0.2776(6)
C15 C 0.3392(8) 0.6341(7) 0.3808(6)
H23 H 0.3007 0.6133 0.4243
C16 C 0.4193(8) 0.7386(7) 0.4162(6)
H24 H 0.4370 0.7898 0.4854
C17 C -0.2509(8) 0.1110(7) 0.1015(6)
H25 H -0.1949 0.1771 0.1545
C18 C -0.3581(7) 0.1018(7) 0.0894(6)
H26 H -0.3750 0.1594 0.1352
C19 C -0.4420(7) 0.0074(7) 0.0094(6)
C20 C -0.4081(7) -0.0742(7) -0.0508(6)
H27 H -0.4614 -0.1415 -0.1049
C21 C -0.3007(7) -0.0589(7) -0.0330(6)
H28 H -0.2812 -0.1155 -0.0766
C22 C 0.7510(8) 0.8927(8) 0.4556(7)
H29 H 0.6929 0.8250 0.4420
C23 C 0.8566(8) 0.8956(8) 0.4702(7)
H30 H 0.8695 0.8315 0.4651
C24 C 0.9438(7) 0.9956(7) 0.4928(7)
C25 C 0.9150(8) 1.0840(8) 0.4969(7)
H31 H 0.9700 1.1537 0.5106
C26 C 0.8074(8) 1.0692(7) 0.4810(7)
H32 H 0.7910 1.1316 0.4864
C19A C -0.5580(7) -0.0074(7) -0.0094(6)
C18A C -0.6419(7) -0.1018(7) -0.0894(6)
C17A C -0.7491(8) -0.1110(7) -0.1015(6)
N5A N -0.7779(6) -0.0311(6) -0.0422(5)
C21A C -0.6993(7) 0.0589(7) 0.0330(6)
C20A C -0.5919(7) 0.0742(7) 0.0508(6)
H27A H -0.5386 0.1415 0.1049
H28A H -0.7188 0.1155 0.0766
H25A H -0.8051 -0.1771 -0.1545
H26A H -0.6250 -0.1594 -0.1352
C24A C 1.0562(7) 1.0044(7) 0.5072(7)
C23A C 1.1434(8) 1.1044(8) 0.5298(7)
C22A C 1.2490(8) 1.1073(8) 0.5444(7)
N6A N 1.2756(7) 1.0240(6) 0.5411(5)
C26A C 1.1926(8) 0.9308(7) 0.5190(7)
C25A C 1.0850(8) 0.9160(8) 0.5031(7)
H31A H 1.0300 0.8463 0.4894
H32A H 1.2090 0.8684 0.5136
H29A H 1.3071 1.1750 0.5580
H30A H 1.1305 1.1685 0.5349
O1A O -0.0506(5) 0.0152(5) -0.0627(4)
N1A N 0.0738(6) -0.0409(6) -0.2056(5)
H1A H 0.0945 -0.0974 -0.2415
H2A H 0.1289 0.0255 -0.1924
C1A C -0.1129(8) 0.0293(8) -0.1364(7)
H5A H -0.1831 -0.0371 -0.1718
H6A H -0.1305 0.0951 -0.1021
C2A C -0.0563(9) 0.0452(8) -0.2128(7)
H7A H -0.1051 0.0537 -0.2622
H8A H 0.0110 0.1149 -0.1784
C3A C -0.0251(9) -0.0533(9) -0.2699(7)
H9A H -0.0120 -0.0536 -0.3339
H10A H -0.0856 -0.1250 -0.2864
Cu1A Cu 0.06433(9) -0.04293(8) -0.07356(7)
O2A O 0.5572(5) 0.9955(5) 0.5643(4)
N2A N 0.4158(6) 1.0145(6) 0.6943(5)
H3A H 0.3719 0.9410 0.6749
H4A H 0.3789 1.0568 0.7257
C4A C 0.6361(8) 1.0161(8) 0.6502(7)
H11A H 0.6832 0.9751 0.6272
H12A H 0.6836 1.0969 0.6863
C5A C 0.5819(8) 0.9796(8) 0.7246(7)
H13A H 0.6401 0.9883 0.7788
H14A H 0.5324 0.8994 0.6877
C6A C 0.5178(8) 1.0450(9) 0.7718(7)
H15A H 0.4980 1.0291 0.8279
H16A H 0.5633 1.1260 0.8002
N3A N -0.0500(6) -0.2282(6) -0.1471(6)
N4A N -0.4735(6) -0.7713(6) -0.3567(6)
C7A C -0.0597(7) -0.3079(7) -0.2294(7)
H17A H -0.0045 -0.2918 -0.2623
C8A C -0.1414(8) -0.4175(7) -0.2791(6)
H18A H -0.1403 -0.4706 -0.3416
C9A C -0.2226(7) -0.4452(7) -0.2342(6)
C10A C -0.2130(7) -0.3567(7) -0.1411(7)
H19A H -0.2664 -0.3684 -0.1056
C11A C -0.1277(7) -0.2552(7) -0.1025(6)
H20A H -0.1232 -0.1994 -0.0390
C12A C -0.4519(7) -0.7026(7) -0.2669(7)
H21A H -0.4932 -0.7265 -0.2265
C13A C -0.3732(8) -0.5948(8) -0.2208(7)
H22A H -0.3601 -0.5479 -0.1511
C14A C -0.3147(7) -0.5570(7) -0.2776(6)
C15A C -0.3392(8) -0.6341(7) -0.3808(6)
H23A H -0.3007 -0.6133 -0.4243
C16A C -0.4193(8) -0.7386(7) -0.4162(6)
H24A H -0.4370 -0.7898 -0.4854
Cu2A Cu 0.42908(9) 1.03126(8) 0.56900(8)
Cu1A_2 Cu -0.93567(9) -0.04293(8) -0.07356(7)
Cu2A_2 Cu 1.42908(9) 1.03126(8) 0.56900(8)
N5A_2 N 0.2221(6) -0.0311(6) -0.0422(5)
Cu2A_3 Cu -0.57092(9) -0.96874(8) -0.43100(8)
N4A_2 N 0.5265(6) 1.2287(6) 0.6433(6)
N6A_2 N 0.2756(7) 1.0240(6) 0.5411(5)
N7 N 0.0525(7) 0.3426(7) -0.2782(6)
N8 N -0.2326(7) 0.3535(6) 0.0980(6)
C27 C 0.0988(9) 0.3435(7) -0.1933(8)
H33 H 0.1712 0.3455 -0.1831
C28 C 0.0456(9) 0.3417(8) -0.1186(8)
H34 H 0.0824 0.3415 -0.0600
C29 C -0.0587(8) 0.3402(7) -0.1277(7)
C30 C -0.1048(8) 0.3396(7) -0.2170(7)
H35 H -0.1762 0.3399 -0.2289
C31 C -0.0494(9) 0.3386(9) -0.2868(8)
H36 H -0.0863 0.3347 -0.3476
C32 C -0.2834(10) 0.3149(8) -0.0028(8)
H37 H -0.3610 0.2909 -0.0228
C33 C -0.2310(9) 0.3089(8) -0.0741(7)
H38 H -0.2718 0.2831 -0.1417
C34 C -0.1180(8) 0.3396(7) -0.0514(7)
C35 C -0.0642(9) 0.3795(7) 0.0510(7)
H39 H 0.0132 0.4027 0.0725
C36 C -0.1257(9) 0.3847(7) 0.1212(6)
H40 H -0.0874 0.4128 0.1900
Cl1 Cl -0.1754(2) 0.30576(19) 0.39690(16)
O3 O -0.1175(7) 0.3897(7) 0.4990(6)
O4 O -0.2865(6) 0.2463(7) 0.3919(6)
O5 O -0.1714(7) 0.3525(6) 0.3277(5)
O6 O -0.1192(8) 0.2308(7) 0.3708(6)
Cl2 Cl 0.3706(2) 0.29994(18) 0.36381(16)
O7 O 0.3690(6) 0.4097(5) 0.3982(5)
O8 O 0.2972(7) 0.2337(6) 0.3969(6)
O9 O 0.4790(7) 0.3140(7) 0.4053(7)
O10 O 0.3425(8) 0.2481(6) 0.2569(5)
Cl3 Cl 0.6713(2) 0.7623(2) 0.11722(18)
O11 O 0.6406(9) 0.6436(8) 0.0856(9)
O12 O 0.7176(9) 0.8224(11) 0.2232(6)
O13 O 0.5750(7) 0.7789(7) 0.0898(6)
O14 O 0.7482(6) 0.7941(7) 0.0678(6)
O15 O -0.3955(6) 0.3407(5) 0.1981(5)
C37 C -0.4389(9) 0.4141(9) 0.1797(7)
H41 H -0.5175 0.3890 0.1778
H42 H -0.4336 0.4102 0.1128
C38 C -0.3805(9) 0.5301(8) 0.2574(7)
H43 H -0.4088 0.5780 0.2371
H44 H -0.3017 0.5540 0.2599
C39 C -0.3902(9) 0.5497(8) 0.3597(8)
H45 H -0.4689 0.5219 0.3572
H46 H -0.3569 0.6311 0.4049
N9 N -0.3353(7) 0.4933(7) 0.4029(6)
O16 O 0.1160(6) 0.3632(6) -0.4447(5)
loop_
_geom_bond_atom_site_label_1
_geom_bond_atom_site_label_2
_geom_bond_site_symmetry_1
_geom_bond_site_symmetry_2
Cu1 O1 1_555 1_555
Cu2 O2 1_555 1_555
O1 C1 1_555 1_555
O2 C4 1_555 1_555
N1 Cu1 1_555 1_555
H1 N1 1_555 1_555
H2 N1 1_555 1_555
N2 Cu2 1_555 1_555
H3 N2 1_555 1_555
H4 N2 1_555 1_555
N3 Cu1 1_555 1_555
N4 Cu2 1_555 1_555
N5 Cu1 1_555 1_555
N6 Cu2 1_555 1_555
N7 C27 1_555 1_555
N8 C32 1_555 1_555
C1 H5 1_555 1_555
H6 C1 1_555 1_555
C2 C1 1_555 1_555
H7 C2 1_555 1_555
H8 C2 1_555 1_555
C3 N1 1_555 1_555
H9 C3 1_555 1_555
H10 C3 1_555 1_555
C4 H11 1_555 1_555
H12 C4 1_555 1_555
C5 C4 1_555 1_555
H13 C5 1_555 1_555
H14 C5 1_555 1_555
C6 N2 1_555 1_555
H15 C6 1_555 1_555
H16 C6 1_555 1_555
C7 N3 1_555 1_555
H17 C7 1_555 1_555
C8 C7 1_555 1_555
H18 C8 1_555 1_555
C9 C8 1_555 1_555
C10 C9 1_555 1_555
H19 C10 1_555 1_555
C11 N3 1_555 1_555
H20 C11 1_555 1_555
C12 N4 1_555 1_555
H21 C12 1_555 1_555
C13 C12 1_555 1_555
H22 C13 1_555 1_555
C14 C9 1_555 1_555
C15 C14 1_555 1_555
H23 C15 1_555 1_555
C16 N4 1_555 1_555
H24 C16 1_555 1_555
C17 N5 1_555 1_555
H25 C17 1_555 1_555
C18 C17 1_555 1_555
H26 C18 1_555 1_555
C19 C18 1_555 1_555
C20 C19 1_555 1_555
H27 C20 1_555 1_555
C21 N5 1_555 1_555
H28 C21 1_555 1_555
C22 N6 1_555 1_555
H29 C22 1_555 1_555
C23 C22 1_555 1_555
H30 C23 1_555 1_555
C24 C23 1_555 1_555
C25 C24 1_555 1_555
H31 C25 1_555 1_555
C26 N6 1_555 1_555
H32 C26 1_555 1_555
C27 H33 1_555 1_555
C28 C27 1_555 1_555
H34 C28 1_555 1_555
C29 C28 1_555 1_555
C30 C29 1_555 1_555
H35 C30 1_555 1_555
C31 N7 1_555 1_555
H36 C31 1_555 1_555
C32 H37 1_555 1_555
C33 C32 1_555 1_555
H38 C33 1_555 1_555
C34 C29 1_555 1_555
C35 C34 1_555 1_555
H39 C35 1_555 1_555
C36 N8 1_555 1_555
H40 C36 1_555 1_555
Cl1 O3 1_555 1_555
O4 Cl1 1_555 1_555
O5 Cl1 1_555 1_555
O6 Cl1 1_555 1_555
Cl2 O7 1_555 1_555
O8 Cl2 1_555 1_555
O9 Cl2 1_555 1_555
O10 Cl2 1_555 1_555
Cl3 O11 1_555 1_555
O12 Cl3 1_555 1_555
O13 Cl3 1_555 1_555
O14 Cl3 1_555 1_555
O15 C37 1_555 1_555
C37 H41 1_555 1_555
H42 C37 1_555 1_555
C38 C37 1_555 1_555
H43 C38 1_555 1_555
H44 C38 1_555 1_555
C39 C38 1_555 1_555
H45 C39 1_555 1_555
H46 C39 1_555 1_555
N9 C39 1_555 1_555
C19A C19 1_555 1_555
C18A C19A 1_555 1_555
C17A C18A 1_555 1_555
N5A C17A 1_555 1_555
C21A N5A 1_555 1_555
C20A C19A 1_555 1_555
H27A C20A 1_555 1_555
H28A C21A 1_555 1_555
H25A C17A 1_555 1_555
H26A C18A 1_555 1_555
C24A C24 1_555 1_555
C23A C24A 1_555 1_555
C22A C23A 1_555 1_555
N6A C22A 1_555 1_555
C26A N6A 1_555 1_555
C25A C24A 1_555 1_555
H31A C25A 1_555 1_555
H32A C26A 1_555 1_555
H29A C22A 1_555 1_555
H30A C23A 1_555 1_555
O1A Cu1 1_555 1_555
N1A H1A 1_555 1_555
H2A N1A 1_555 1_555
C1A O1A 1_555 1_555
H5A C1A 1_555 1_555
H6A C1A 1_555 1_555
C2A C1A 1_555 1_555
H7A C2A 1_555 1_555
H8A C2A 1_555 1_555
C3A N1A 1_555 1_555
H9A C3A 1_555 1_555
H10A C3A 1_555 1_555
Cu1A O1 1_555 1_555
O2A Cu2 1_555 1_555
N2A H3A 1_555 1_555
H4A N2A 1_555 1_555
C4A O2A 1_555 1_555
H11A C4A 1_555 1_555
H12A C4A 1_555 1_555
C5A C4A 1_555 1_555
H13A C5A 1_555 1_555
H14A C5A 1_555 1_555
C6A N2A 1_555 1_555
H15A C6A 1_555 1_555
H16A C6A 1_555 1_555
N3A Cu1A 1_555 1_555
N4A C12A 1_555 1_555
C7A N3A 1_555 1_555
H17A C7A 1_555 1_555
C8A C7A 1_555 1_555
H18A C8A 1_555 1_555
C9A C8A 1_555 1_555
C10A C9A 1_555 1_555
H19A C10A 1_555 1_555
C11A N3A 1_555 1_555
H20A C11A 1_555 1_555
C12A H21A 1_555 1_555
C13A C12A 1_555 1_555
H22A C13A 1_555 1_555
C14A C9A 1_555 1_555
C15A C14A 1_555 1_555
H23A C15A 1_555 1_555
C16A N4A 1_555 1_555
H24A C16A 1_555 1_555
Cu2A O2 1_555 1_555
Cu1A_2 N5A 1_555 1_555
Cu2A_2 N6A 1_555 1_555
N5A_2 Cu1A 1_555 1_555
Cu2A_3 N4A 1_555 1_555
N4A_2 Cu2A 1_555 1_555
N6A_2 Cu2A 1_555 1_555
C2 C3 1_555 1_555
C5 C6 1_555 1_555
C10 C11 1_555 1_555
C13 C14 1_555 1_555
C15 C16 1_555 1_555
C20 C21 1_555 1_555
C25 C26 1_555 1_555
C30 C31 1_555 1_555
C33 C34 1_555 1_555
C35 C36 1_555 1_555
C21A C20A 1_555 1_555
C26A C25A 1_555 1_555
O1A Cu1A 1_555 1_555
N1A Cu1A 1_555 1_555
C2A C3A 1_555 1_555
O2A Cu2A 1_555 1_555
N2A Cu2A 1_555 1_555
C5A C6A 1_555 1_555
C10A C11A 1_555 1_555
C13A C14A 1_555 1_555
C15A C16A 1_555 1_555

#END
