
#######################################################################
#
#                 Cambridge Crystallographic Data Centre
#                                CCDC 
#
#######################################################################
#
# If this CIF has been generated from an entry in the Cambridge 
# Structural Database, then it will include bibliographic, chemical, 
# crystal, experimental, refinement or atomic coordinate data resulting 
# from the CCDC's data processing and validation procedures.
#
#######################################################################

data_ELESOE
_symmetry_cell_setting           orthorhombic
_symmetry_space_group_name_H-M   'C m c a'
_symmetry_Int_Tables_number      64
_space_group_name_Hall           '-C 2ac 2'
loop_
_symmetry_equiv_pos_site_id
_symmetry_equiv_pos_as_xyz
1 x,y,z
2 -x,1/2-y,1/2+z
3 -x,1/2+y,1/2-z
4 x,-y,-z
5 1/2+x,1/2+y,z
6 1/2-x,-y,1/2+z
7 1/2-x,y,1/2-z
8 1/2+x,1/2-y,-z
9 -x,-y,-z
10 x,1/2+y,1/2-z
11 x,1/2-y,1/2+z
12 -x,y,z
13 1/2-x,1/2-y,-z
14 1/2+x,y,1/2-z
15 1/2+x,-y,1/2+z
16 1/2-x,1/2+y,z
_cell_length_a                   9.6383(7)
_cell_length_b                   15.6599(13)
_cell_length_c                   8.4943(6)
_cell_angle_alpha                90
_cell_angle_beta                 90
_cell_angle_gamma                90
_cell_volume                     1282.09
loop_
_atom_site_label
_atom_site_type_symbol
_atom_site_fract_x
_atom_site_fract_y
_atom_site_fract_z
Zn1 Zn 0.5000 0.5000 0.0000
N1 N 0.66632(11) 0.43187(7) 0.14654(14)
C1 C 0.7500 0.47056(12) 0.2500
H1 H 0.7500 0.5312 0.2500
C2 C 0.67161(14) 0.34576(9) 0.14370(17)
H2 H 0.6198 0.3159 0.0661
C3 C 0.7500 0.29976(13) 0.2500
H3 H 0.7500 0.2391 0.2500
S1 S 0.5000 0.64450(4) 0.47199(7)
N2 N 0.5000 0.59893(11) 0.1550(2)
C4 C 0.5000 0.61800(11) 0.2877(2)
Zn1E Zn 0.0000 0.5000 0.5000
Zn1E_2 Zn 1.0000 0.5000 0.5000
N1F N 0.83368(11) 0.43187(7) 0.35346(14)
N1K N 0.33368(11) 0.43187(7) 0.14654(14)
N1M N 0.16632(11) 0.43187(7) 0.35346(14)
N1C N 0.66632(11) 0.56813(7) -0.14654(14)
N1H N 0.33368(11) 0.56813(7) -0.14654(14)
C1K C 0.2500 0.47056(12) 0.2500
H1K H 0.2500 0.5312 0.2500
C2F C 0.82839(14) 0.34576(9) 0.35630(17)
C2K C 0.32839(14) 0.34576(9) 0.14370(17)
C2M C 0.17161(14) 0.34576(9) 0.35630(17)
H2F H 0.8802 0.3159 0.4339
H2K H 0.3802 0.3159 0.0661
H2M H 0.1198 0.3159 0.4339
C3K C 0.2500 0.29976(13) 0.2500
H3K H 0.2500 0.2391 0.2500
S1C S 0.5000 0.35550(4) -0.47199(7)
N2C N 0.5000 0.40107(11) -0.1550(2)
C4C C 0.5000 0.38200(11) -0.2877(2)
loop_
_geom_bond_atom_site_label_1
_geom_bond_atom_site_label_2
_geom_bond_site_symmetry_1
_geom_bond_site_symmetry_2
Zn1 N1 1_555 1_555
N1 C1 1_555 1_555
C1 H1 1_555 1_555
C2 N1 1_555 1_555
H2 C2 1_555 1_555
C3 C2 1_555 1_555
H3 C3 1_555 1_555
S1 C4 1_555 1_555
N2 Zn1 1_555 1_555
C4 N2 1_555 1_555
Zn1E N1M 1_555 1_555
Zn1E_2 N1F 1_555 1_555
N1F C1 1_555 1_555
N1K Zn1 1_555 1_555
N1M C1K 1_555 1_555
N1C Zn1 1_555 1_555
N1H Zn1 1_555 1_555
C1K N1K 1_555 1_555
H1K C1K 1_555 1_555
C2F C3 1_555 1_555
C2K N1K 1_555 1_555
C2M N1M 1_555 1_555
H2F C2F 1_555 1_555
H2K C2K 1_555 1_555
H2M C2M 1_555 1_555
C3K C2K 1_555 1_555
H3K C3K 1_555 1_555
S1C C4C 1_555 1_555
N2C Zn1 1_555 1_555
C4C N2C 1_555 1_555
N1F C2F 1_555 1_555
C2M C3K 1_555 1_555

#END
