
#######################################################################
#
#                 Cambridge Crystallographic Data Centre
#                                CCDC 
#
#######################################################################
#
# If this CIF has been generated from an entry in the Cambridge 
# Structural Database, then it will include bibliographic, chemical, 
# crystal, experimental, refinement or atomic coordinate data resulting 
# from the CCDC's data processing and validation procedures.
#
#######################################################################

data_ELEVAS
_symmetry_cell_setting           orthorhombic
_symmetry_space_group_name_H-M   'P 21 21 21'
_symmetry_Int_Tables_number      19
_space_group_name_Hall           'P 2ac 2ab'
loop_
_symmetry_equiv_pos_site_id
_symmetry_equiv_pos_as_xyz
1 x,y,z
2 1/2-x,-y,1/2+z
3 -x,1/2+y,1/2-z
4 1/2+x,1/2-y,-z
_cell_length_a                   9.3390(19)
_cell_length_b                   11.623(2)
_cell_length_c                   16.809(3)
_cell_angle_alpha                90
_cell_angle_beta                 90
_cell_angle_gamma                90
_cell_volume                     1824.57
loop_
_atom_site_label
_atom_site_type_symbol
_atom_site_fract_x
_atom_site_fract_y
_atom_site_fract_z
Cd1 Cd -0.50365(3) 0.490190(19) 0.320610(15)
N1 N -0.3656(4) 0.0764(3) 0.2783(2)
N2 N -0.6540(4) 0.9103(3) 0.2750(2)
C1 C -0.3493(5) 0.2106(3) 0.3859(2)
C2 C -0.2235(5) 0.0811(4) 0.2718(3)
C3 C -0.4252(5) 0.1394(4) 0.3360(3)
C4 C -0.6006(5) 0.8416(4) 0.3321(3)
C5 C -0.8875(5) 0.8599(4) 0.3183(3)
C6 C -0.1397(5) 0.1469(4) 0.3195(3)
C7 C -0.6185(5) 0.7022(4) 0.4454(3)
C8 C -0.4246(6) 0.2820(4) 0.4477(3)
C9 C -0.6843(5) 0.7779(3) 0.3826(3)
C10 C -0.8321(6) 0.7881(4) 0.3756(3)
C11 C -0.7949(5) 0.9180(4) 0.2690(3)
O1 O -0.3314(4) 0.6397(3) 0.3372(3)
N3 N -0.3999(4) 0.4070(3) 0.4324(2)
N4 N -0.6372(5) 0.5775(3) 0.4265(2)
C12 C -0.4477(5) 0.4795(5) 0.4999(3)
C13 C -0.6032(5) 0.5062(5) 0.4953(3)
C14 C -0.2023(5) 0.2123(4) 0.3773(3)
O2 O -0.8035(4) 0.2033(4) 0.3147(3)
N5 N -0.7527(4) 0.3028(3) 0.3246(3)
O4 O -0.6519(4) 0.3296(3) 0.2914(2)
O6 O -0.8152(6) 0.3607(4) 0.3742(3)
H1 H -0.509(5) 0.840(3) 0.338(2)
H2 H -0.521(4) 0.133(3) 0.3454(19)
H3 H -0.149(4) 0.252(3) 0.407(2)
H4 H -0.505(5) 0.721(3) 0.453(2)
H5 H -0.046(4) 0.146(3) 0.315(2)
H6 H -0.314(4) 0.420(3) 0.435(2)
H7 H -0.988(5) 0.871(3) 0.316(2)
H8 H -0.529(4) 0.265(4) 0.451(2)
H9 H -0.627(4) 0.538(3) 0.542(2)
H10 H -0.380(4) 0.264(3) 0.499(3)
H11 H -0.400(5) 0.557(4) 0.492(3)
H12 H -0.437(4) 0.447(3) 0.539(3)
H13 H -0.720(4) 0.569(3) 0.421(2)
H14 H -0.196(4) 0.053(4) 0.237(3)
H15 H -0.305(5) 0.671(4) 0.305(3)
H16 H -0.672(4) 0.724(3) 0.499(2)
H17 H -0.830(4) 0.958(3) 0.237(3)
H18 H -0.894(4) 0.738(4) 0.409(3)
H19 H -0.224(8) 0.638(7) 0.371(5)
H20 H -0.663(5) 0.443(5) 0.495(3)
N2B N -0.3460(4) 0.4103(3) 0.2250(2)
N1B N -0.6344(4) 0.5764(3) 0.2217(2)
Cd1B Cd -0.49635(3) -0.009810(19) 0.179390(15)
Cd1B_2 Cd -0.49635(3) 0.990190(19) 0.179390(15)
N6 N -0.0386(4) 0.5273(4) 0.4648(3)
O3 O 0.0695(4) 0.5599(4) 0.4981(2)
O5 O -0.1099(4) 0.4469(4) 0.4937(3)
O7 O -0.0771(5) 0.5723(4) 0.4024(3)
loop_
_geom_bond_atom_site_label_1
_geom_bond_atom_site_label_2
_geom_bond_site_symmetry_1
_geom_bond_site_symmetry_2
Cd1 O1 1_555 1_555
N1 C2 1_555 1_555
N2 C4 1_555 1_555
C1 C3 1_555 1_555
C2 C6 1_555 1_555
C3 N1 1_555 1_555
C4 C9 1_555 1_555
C5 C10 1_555 1_555
C6 C14 1_555 1_555
C7 C9 1_555 1_555
C8 C1 1_555 1_555
C9 C10 1_555 1_555
C10 H18 1_555 1_555
C11 N2 1_555 1_555
O1 H15 1_555 1_555
N3 Cd1 1_555 1_555
N4 Cd1 1_555 1_555
C12 N3 1_555 1_555
C13 N4 1_555 1_555
C14 C1 1_555 1_555
O2 N5 1_555 1_555
N5 O4 1_555 1_555
N6 O3 1_555 1_555
O4 Cd1 1_555 1_555
O5 N6 1_555 1_555
O6 N5 1_555 1_555
O7 N6 1_555 1_555
H1 C4 1_555 1_555
H2 C3 1_555 1_555
H3 C14 1_555 1_555
H4 C7 1_555 1_555
H5 C6 1_555 1_555
H6 N3 1_555 1_555
H7 C5 1_555 1_555
H8 C8 1_555 1_555
H9 C13 1_555 1_555
H10 C8 1_555 1_555
H11 C12 1_555 1_555
H12 C12 1_555 1_555
H13 N4 1_555 1_555
H14 C2 1_555 1_555
H16 C7 1_555 1_555
H17 C11 1_555 1_555
H19 O1 1_555 1_555
H20 C13 1_555 1_555
N2B Cd1 1_555 1_555
N1B Cd1 1_555 1_555
Cd1B N1 1_555 1_555
Cd1B_2 N2 1_555 1_555
C5 C11 1_555 1_555
C7 N4 1_555 1_555
C8 N3 1_555 1_555
C12 C13 1_555 1_555

#END
