
#######################################################################
#
#                 Cambridge Crystallographic Data Centre
#                                CCDC 
#
#######################################################################
#
# If this CIF has been generated from an entry in the Cambridge 
# Structural Database, then it will include bibliographic, chemical, 
# crystal, experimental, refinement or atomic coordinate data resulting 
# from the CCDC's data processing and validation procedures.
#
#######################################################################

data_ELEVUN
_symmetry_cell_setting           monoclinic
_symmetry_space_group_name_H-M   'C 2/c'
_symmetry_Int_Tables_number      15
_space_group_name_Hall           '-C 2yn'
loop_
_symmetry_equiv_pos_site_id
_symmetry_equiv_pos_as_xyz
1 x,y,z
2 -x,y,1/2-z
3 1/2+x,1/2+y,z
4 1/2-x,1/2+y,1/2-z
5 -x,-y,-z
6 x,-y,1/2+z
7 1/2-x,1/2-y,-z
8 1/2+x,1/2-y,1/2+z
_cell_length_a                   34.471(5)
_cell_length_b                   10.9255(15)
_cell_length_c                   22.395(3)
_cell_angle_alpha                90
_cell_angle_beta                 120.743(2)
_cell_angle_gamma                90
_cell_volume                     7248.97
loop_
_atom_site_label
_atom_site_type_symbol
_atom_site_fract_x
_atom_site_fract_y
_atom_site_fract_z
Zn1 Zn 0.22615(2) 1.12093(6) 0.38589(4)
Zn2 Zn 0.28110(2) 1.35082(6) 0.47704(4)
Zn3 Zn 0.28180(2) 1.73141(6) 0.33808(4)
N1 N 0.16296(16) 1.0418(4) 0.3308(2)
N2 N 0.0000 0.9157(6) 0.2500
N3 N 0.0000 0.2719(7) 0.2500
N4 N 0.66581(16) 1.3777(4) 0.6463(3)
N5 N 0.51088(18) 1.5256(5) 0.5949(3)
N6 N 0.34795(16) 1.4187(4) 0.5228(3)
N7 N 0.5041(2) 2.1691(6) 0.5834(4)
O1 O 0.20844(14) 1.2838(4) 0.4321(2)
O2 O 0.14681(17) 1.3961(5) 0.3897(3)
O3 O 0.26002(13) 1.4584(4) 0.5244(2)
O4 O 0.25788(14) 1.4936(4) 0.3965(2)
O5 O 0.24960(16) 1.6942(4) 0.3859(3)
O6 O 0.21996(13) 1.2241(4) 0.2981(2)
O7 O 0.26740(14) 1.2401(4) 0.2584(2)
O8 O 0.28604(12) 1.2085(3) 0.42948(19)
O9 O 0.25732(14) 0.9820(4) 0.3532(2)
O10 O 0.31783(15) 0.8814(4) 0.3733(3)
C1 C 0.1869(2) 1.3830(6) 0.4276(4)
C2 C 0.2146(2) 1.4891(6) 0.4769(4)
H1 H 0.2005 1.5113 0.5038
C3 C 0.2136(2) 1.5995(6) 0.4368(4)
H2 H 0.2230 1.6697 0.4677
H3 H 0.1826 1.6136 0.4002
C4 C 0.2428(2) 1.5929(6) 0.4043(3)
C5 C 0.2586(2) 1.2261(5) 0.3067(3)
C6 C 0.29912(19) 1.2117(5) 0.3798(3)
H4 H 0.3192 1.2819 0.3897
C7 C 0.3252(2) 1.0953(5) 0.3858(3)
H5 H 0.3366 1.1008 0.3542
H6 H 0.3509 1.0892 0.4326
C8 C 0.2968(2) 0.9799(5) 0.3693(3)
C9 C 0.1604(2) 0.9180(5) 0.3298(3)
H7 H 0.1868 0.8734 0.3449
C10 C 0.1211(2) 0.8558(5) 0.3075(3)
H8 H 0.1213 0.7706 0.3079
C11 C 0.08119(18) 0.9176(5) 0.2845(3)
C12 C 0.0832(2) 1.0449(5) 0.2814(3)
H9 H 0.0570 1.0915 0.2632
C13 C 0.1243(2) 1.1005(6) 0.3056(4)
H10 H 0.1249 1.1855 0.3040
C14 C 0.03888(19) 0.8521(5) 0.2662(3)
C15 C 0.03847(17) 0.7268(5) 0.2654(3)
H11 H 0.0643 0.6835 0.2752
C16 C 0.0000 0.6663(7) 0.2500
C17 C 0.0000 0.5293(7) 0.2500
C18 C 0.0384(2) 0.4635(6) 0.2931(4)
H12 H 0.0653 0.5031 0.3233
C19 C 0.0359(3) 0.3360(6) 0.2905(4)
H13 H 0.0621 0.2931 0.3203
C20 C 0.6701(2) 1.4922(5) 0.6694(3)
H14 H 0.6989 1.5262 0.6937
C21 C 0.63426(19) 1.5624(5) 0.6591(3)
H15 H 0.6391 1.6425 0.6754
C22 C 0.59051(19) 1.5145(5) 0.6244(3)
C23 C 0.5867(2) 1.3939(5) 0.6019(3)
H16 H 0.5584 1.3567 0.5785
C24 C 0.6239(2) 1.3300(5) 0.6140(3)
H17 H 0.6203 1.2491 0.5992
C25 C 0.55059(19) 1.5859(5) 0.6107(3)
C26 C 0.55047(19) 1.7124(5) 0.6096(3)
H18 H 0.5765 1.7550 0.6197
C27 C 0.5118(2) 1.7747(5) 0.5936(3)
C28 C 0.47367(18) 1.7147(5) 0.5780(3)
H19 H 0.4475 1.7584 0.5660
C29 C 0.47326(19) 1.5920(5) 0.5797(3)
C30 C 0.3839(2) 1.3523(5) 0.5364(3)
H20 H 0.3807 1.2677 0.5320
C31 C 0.4255(2) 1.4019(5) 0.5567(4)
H21 H 0.4498 1.3515 0.5666
C32 C 0.43076(19) 1.5293(5) 0.5623(3)
C33 C 0.3932(2) 1.5966(6) 0.5495(3)
H22 H 0.3951 1.6814 0.5541
C34 C 0.3532(2) 1.5394(5) 0.5302(3)
H23 H 0.3286 1.5870 0.5220
C35 C 0.5414(3) 2.1113(6) 0.6274(5)
H24 H 0.5665 2.1584 0.6568
C36 C 0.5461(3) 1.9830(7) 0.6333(4)
H25 H 0.5734 1.9471 0.6654
C37 C 0.5096(2) 1.9130(6) 0.5908(4)
C38 C 0.4702(2) 1.9716(6) 0.5445(4)
H26 H 0.4445 1.9262 0.5153
C39 C 0.4688(3) 2.0984(8) 0.5414(5)
H27 H 0.4420 2.1361 0.5086
Zn1A Zn -0.22615(2) 1.12093(6) 0.11411(4)
Zn1F Zn 0.27385(2) 1.37907(6) 0.61411(4)
Zn1C Zn 0.27385(2) 1.62093(6) 0.11411(4)
Zn2F Zn 0.21890(2) 1.14918(6) 0.52296(4)
Zn2D Zn 0.71890(2) 1.64918(6) 0.52296(4)
Zn2C Zn 0.21890(2) 1.85082(6) 0.02296(4)
Zn3F Zn 0.21820(2) 0.76859(6) 0.66192(4)
Zn3D Zn 0.71820(2) 1.26859(6) 0.66192(4)
Zn3C Zn 0.21820(2) 1.23141(6) 0.16192(4)
Zn3_2 Zn 0.28180(2) 0.73141(6) 0.33808(4)
N1A N -0.16296(16) 1.0418(4) 0.1692(2)
N4D N 0.33419(16) 1.6223(4) 0.3537(3)
N4B N 0.16581(16) 0.8777(4) 0.6463(3)
N5D N 0.48912(18) 1.4744(5) 0.4051(3)
N6D N 0.65205(16) 1.5813(4) 0.4772(3)
N6F N 0.15205(16) 1.0813(4) 0.4772(3)
N7D N 0.4959(2) 0.8309(6) 0.4166(4)
O1F O 0.29156(14) 1.2162(4) 0.5679(2)
O1A O -0.20844(14) 1.2838(4) 0.0679(2)
O2F O 0.35319(17) 1.1039(5) 0.6103(3)
O3F O 0.23998(13) 1.0416(4) 0.4756(2)
O3G O -0.23998(13) 1.0416(4) 0.0244(2)
O4F O 0.24212(14) 1.0064(4) 0.6035(2)
O5F O 0.25040(16) 0.8058(4) 0.6141(3)
O6C O 0.28004(13) 1.7241(4) 0.2019(2)
O6A O -0.21996(13) 1.2241(4) 0.2019(2)
O7C O 0.23260(14) 1.7401(4) 0.2416(2)
O7E O 0.26740(14) 0.7599(4) 0.7584(2)
O8C O 0.21396(12) 1.7085(3) 0.07052(19)
O8A O -0.28604(12) 1.2085(3) 0.07052(19)
O8F O 0.21396(12) 1.2915(3) 0.57052(19)
O9C O 0.24268(14) 1.4820(4) 0.1468(2)
O9A O -0.25732(14) 0.9820(4) 0.1468(2)
O10C O 0.18217(15) 1.3814(4) 0.1267(3)
O10_2 O 0.31783(15) 1.8814(4) 0.3733(3)
O10F O 0.18217(15) 0.6186(4) 0.6267(3)
C1F C 0.3131(2) 1.1170(6) 0.5724(4)
C2F C 0.2854(2) 1.0109(6) 0.5231(4)
H1F H 0.2995 0.9887 0.4962
C3F C 0.2864(2) 0.9005(6) 0.5632(4)
H2F H 0.2770 0.8303 0.5323
H3F H 0.3174 0.8864 0.5998
C4F C 0.2572(2) 0.9071(6) 0.5957(3)
C5C C 0.2414(2) 1.7261(5) 0.1933(3)
C6C C 0.20088(19) 1.7117(5) 0.1202(3)
H4C H 0.1808 1.7819 0.1103
C7C C 0.1748(2) 1.5953(5) 0.1142(3)
H5C H 0.1634 1.6008 0.1458
H6C H 0.1491 1.5892 0.0674
C8C C 0.2032(2) 1.4799(5) 0.1307(3)
C9A C -0.1604(2) 0.9180(5) 0.1702(3)
H7A H -0.1868 0.8734 0.1551
C10A C -0.1211(2) 0.8558(5) 0.1925(3)
H8A H -0.1213 0.7706 0.1921
C11A C -0.08119(18) 0.9176(5) 0.2155(3)
C12A C -0.0832(2) 1.0449(5) 0.2186(3)
H9A H -0.0570 1.0915 0.2368
C13A C -0.1243(2) 1.1005(6) 0.1944(4)
H10A H -0.1249 1.1855 0.1960
C14A C -0.03888(19) 0.8521(5) 0.2338(3)
C15A C -0.03847(17) 0.7268(5) 0.2346(3)
H11A H -0.0643 0.6835 0.2248
C18A C -0.0384(2) 0.4635(6) 0.2069(4)
H12A H -0.0653 0.5031 0.1767
C19A C -0.0359(3) 0.3360(6) 0.2095(4)
H13A H -0.0621 0.2931 0.1797
C20D C 0.3299(2) 1.5078(5) 0.3306(3)
H14D H 0.3011 1.4738 0.3063
C21D C 0.36574(19) 1.4376(5) 0.3409(3)
H15D H 0.3609 1.3575 0.3246
C22D C 0.40949(19) 1.4855(5) 0.3756(3)
C23D C 0.4133(2) 1.6061(5) 0.3981(3)
H16D H 0.4416 1.6433 0.4215
C24D C 0.3761(2) 1.6700(5) 0.3860(3)
H17D H 0.3797 1.7509 0.4008
C25D C 0.44941(19) 1.4141(5) 0.3893(3)
C26D C 0.44953(19) 1.2876(5) 0.3904(3)
H18D H 0.4235 1.2450 0.3803
C27D C 0.4882(2) 1.2253(5) 0.4064(3)
C28D C 0.52633(18) 1.2853(5) 0.4220(3)
H19D H 0.5525 1.2416 0.4340
C29D C 0.52674(19) 1.4080(5) 0.4203(3)
C30D C 0.6161(2) 1.6477(5) 0.4636(3)
H20D H 0.6193 1.7323 0.4680
C31D C 0.5745(2) 1.5981(5) 0.4433(4)
H21D H 0.5502 1.6485 0.4334
C32D C 0.56924(19) 1.4707(5) 0.4377(3)
C33D C 0.6068(2) 1.4034(6) 0.4505(3)
H22D H 0.6049 1.3186 0.4459
C34D C 0.6468(2) 1.4606(5) 0.4698(3)
H23D H 0.6714 1.4130 0.4780
C35D C 0.4586(3) 0.8887(6) 0.3726(5)
H24D H 0.4335 0.8416 0.3432
C36D C 0.4539(3) 1.0170(7) 0.3667(4)
H25D H 0.4266 1.0529 0.3346
C37D C 0.4904(2) 1.0870(6) 0.4092(4)
C38D C 0.5298(2) 1.0284(6) 0.4555(4)
H26D H 0.5555 1.0738 0.4847
C39D C 0.5312(3) 0.9016(8) 0.4586(5)
H27D H 0.5580 0.8639 0.4914
O11 O 0.3501(2) 0.1424(6) 0.2583(4)
H28 H 0.349(3) 0.068(3) 0.245(4)
H31 H 0.3238(13) 0.159(8) 0.251(4)
O12 O 0.1460(3) 0.3975(8) 0.2576(5)
H29 H 0.153(3) 0.395(9) 0.3006(17)
H30 H 0.160(3) 0.335(5) 0.256(4)
O13 O 0.1186(5) 0.5980(16) 0.4575(10)
loop_
_geom_bond_atom_site_label_1
_geom_bond_atom_site_label_2
_geom_bond_site_symmetry_1
_geom_bond_site_symmetry_2
Zn1 N1 1_555 1_555
Zn2 N6 1_555 1_555
Zn3 O5 1_555 1_555
N1 C9 1_555 1_555
N2 C14 1_555 1_555
N3 C19 1_555 1_555
N4 C20 1_555 1_555
N5 C25 1_555 1_555
N6 C30 1_555 1_555
N7 C35 1_555 1_555
O1 Zn1 1_555 1_555
O2 C1 1_555 1_555
O3 Zn2 1_555 1_555
O4 Zn2 1_555 1_555
O5 C4 1_555 1_555
O6 Zn1 1_555 1_555
O7 C5 1_555 1_555
O8 Zn1 1_555 1_555
O9 Zn1 1_555 1_555
O10 C8 1_555 1_555
C1 O1 1_555 1_555
C2 O3 1_555 1_555
H1 C2 1_555 1_555
C3 C2 1_555 1_555
H2 C3 1_555 1_555
H3 C3 1_555 1_555
C4 O4 1_555 1_555
C5 O6 1_555 1_555
C6 O8 1_555 1_555
H4 C6 1_555 1_555
C7 C6 1_555 1_555
H5 C7 1_555 1_555
H6 C7 1_555 1_555
C8 O9 1_555 1_555
C9 H7 1_555 1_555
C10 C9 1_555 1_555
H8 C10 1_555 1_555
C11 C10 1_555 1_555
C12 C11 1_555 1_555
H9 C12 1_555 1_555
C13 N1 1_555 1_555
H10 C13 1_555 1_555
C14 C11 1_555 1_555
C15 C14 1_555 1_555
H11 C15 1_555 1_555
C16 C15 1_555 1_555
C17 C16 1_555 1_555
C18 C17 1_555 1_555
H12 C18 1_555 1_555
C19 C18 1_555 1_555
H13 C19 1_555 1_555
C20 H14 1_555 1_555
C21 C20 1_555 1_555
H15 C21 1_555 1_555
C22 C21 1_555 1_555
C23 C22 1_555 1_555
H16 C23 1_555 1_555
C24 N4 1_555 1_555
H17 C24 1_555 1_555
C25 C22 1_555 1_555
C26 C25 1_555 1_555
H18 C26 1_555 1_555
C27 C26 1_555 1_555
C28 C27 1_555 1_555
H19 C28 1_555 1_555
C29 N5 1_555 1_555
C30 H20 1_555 1_555
C31 C30 1_555 1_555
H21 C31 1_555 1_555
C32 C29 1_555 1_555
C33 C32 1_555 1_555
H22 C33 1_555 1_555
C34 N6 1_555 1_555
H23 C34 1_555 1_555
C35 H24 1_555 1_555
C36 C35 1_555 1_555
H25 C36 1_555 1_555
C37 C27 1_555 1_555
C38 C37 1_555 1_555
H26 C38 1_555 1_555
C39 N7 1_555 1_555
H27 C39 1_555 1_555
O11 H28 1_555 1_555
O12 H29 1_555 1_555
H30 O12 1_555 1_555
H31 O11 1_555 1_555
Zn1A N1A 1_555 1_555
Zn1F O3 1_555 1_555
Zn1C O6C 1_555 1_555
Zn2F O1 1_555 1_555
Zn2D N6D 1_555 1_555
Zn2C O8C 1_555 1_555
Zn3F N4B 1_555 1_555
Zn3D N4 1_555 1_555
Zn3C O7 1_555 1_555
Zn3_2 O10 1_555 1_555
N1A C9A 1_555 1_555
N4D Zn3 1_555 1_555
N5D C25D 1_555 1_555
N6D C30D 1_555 1_555
N6F Zn2F 1_555 1_555
N7D C35D 1_555 1_555
O1F Zn2 1_555 1_555
O1A Zn1A 1_555 1_555
O2F C1F 1_555 1_555
O3F Zn1 1_555 1_555
O3G Zn1A 1_555 1_555
O4F Zn2F 1_555 1_555
O5F Zn3F 1_555 1_555
O6C C5C 1_555 1_555
O6A Zn1A 1_555 1_555
O7C Zn3 1_555 1_555
O7E Zn3F 1_555 1_555
O8C Zn1C 1_555 1_555
O8A Zn1A 1_555 1_555
O8F Zn1F 1_555 1_555
O9C Zn1C 1_555 1_555
O9A Zn1A 1_555 1_555
O10C Zn3C 1_555 1_555
O10_2 Zn3 1_555 1_555
O10F Zn3F 1_555 1_555
C1F O1F 1_555 1_555
C2F O3F 1_555 1_555
H1F C2F 1_555 1_555
C3F C2F 1_555 1_555
H2F C3F 1_555 1_555
H3F C3F 1_555 1_555
C4F O4F 1_555 1_555
C5C O7C 1_555 1_555
C6C O8C 1_555 1_555
H4C C6C 1_555 1_555
C7C C6C 1_555 1_555
H5C C7C 1_555 1_555
H6C C7C 1_555 1_555
C8C O9C 1_555 1_555
C9A H7A 1_555 1_555
C10A C9A 1_555 1_555
H8A C10A 1_555 1_555
C11A C10A 1_555 1_555
C12A C11A 1_555 1_555
H9A C12A 1_555 1_555
C13A N1A 1_555 1_555
H10A C13A 1_555 1_555
C14A N2 1_555 1_555
C15A C16 1_555 1_555
H11A C15A 1_555 1_555
C18A C17 1_555 1_555
H12A C18A 1_555 1_555
C19A N3 1_555 1_555
H13A C19A 1_555 1_555
C20D N4D 1_555 1_555
H14D C20D 1_555 1_555
C21D C20D 1_555 1_555
H15D C21D 1_555 1_555
C22D C21D 1_555 1_555
C23D C22D 1_555 1_555
H16D C23D 1_555 1_555
C24D N4D 1_555 1_555
H17D C24D 1_555 1_555
C25D C22D 1_555 1_555
C26D C25D 1_555 1_555
H18D C26D 1_555 1_555
C27D C26D 1_555 1_555
C28D C27D 1_555 1_555
H19D C28D 1_555 1_555
C29D N5D 1_555 1_555
C30D H20D 1_555 1_555
C31D C30D 1_555 1_555
H21D C31D 1_555 1_555
C32D C29D 1_555 1_555
C33D C32D 1_555 1_555
H22D C33D 1_555 1_555
C34D N6D 1_555 1_555
H23D C34D 1_555 1_555
C35D H24D 1_555 1_555
C36D C35D 1_555 1_555
H25D C36D 1_555 1_555
C37D C27D 1_555 1_555
C38D C37D 1_555 1_555
H26D C38D 1_555 1_555
C39D N7D 1_555 1_555
H27D C39D 1_555 1_555
Zn2 O1 1_555 1_555
Zn2 O8 1_555 1_555
C1 C2 1_555 1_555
C3 C4 1_555 1_555
C5 C6 1_555 1_555
C7 C8 1_555 1_555
C12 C13 1_555 1_555
C23 C24 1_555 1_555
C28 C29 1_555 1_555
C31 C32 1_555 1_555
C33 C34 1_555 1_555
C36 C37 1_555 1_555
C38 C39 1_555 1_555
Zn1F O1F 1_555 1_555
Zn2F O1F 1_555 1_555
Zn2F O3F 1_555 1_555
Zn2F O8F 1_555 1_555
O5F C4F 1_555 1_555
O10C C8C 1_555 1_555
C1F C2F 1_555 1_555
C3F C4F 1_555 1_555
C5C C6C 1_555 1_555
C7C C8C 1_555 1_555
C11A C14A 1_555 1_555
C12A C13A 1_555 1_555
C14A C15A 1_555 1_555
C18A C19A 1_555 1_555
C23D C24D 1_555 1_555
C28D C29D 1_555 1_555
C31D C32D 1_555 1_555
C33D C34D 1_555 1_555
C36D C37D 1_555 1_555
C38D C39D 1_555 1_555

#END
