
#######################################################################
#
#                 Cambridge Crystallographic Data Centre
#                                CCDC 
#
#######################################################################
#
# If this CIF has been generated from an entry in the Cambridge 
# Structural Database, then it will include bibliographic, chemical, 
# crystal, experimental, refinement or atomic coordinate data resulting 
# from the CCDC's data processing and validation procedures.
#
#######################################################################

data_ELEWEY
_symmetry_cell_setting           triclinic
_symmetry_space_group_name_H-M   'P -1'
_symmetry_Int_Tables_number      2
_space_group_name_Hall           '-P 1'
loop_
_symmetry_equiv_pos_site_id
_symmetry_equiv_pos_as_xyz
1 x,y,z
2 -x,-y,-z
_cell_length_a                   9.276(2)
_cell_length_b                   13.028(3)
_cell_length_c                   24.274(5)
_cell_angle_alpha                104.440(3)
_cell_angle_beta                 92.037(3)
_cell_angle_gamma                107.727(3)
_cell_volume                     2686.07
loop_
_atom_site_label
_atom_site_type_symbol
_atom_site_fract_x
_atom_site_fract_y
_atom_site_fract_z
Hg1 Hg 0.66201(10) 0.31753(8) 0.17232(4)
Hg2 Hg 1.10635(10) 0.57238(7) 0.31065(5)
Hg3 Hg 1.23816(10) 0.88468(7) 0.37766(5)
Hg4 Hg 1.04290(10) 1.18903(8) 0.36777(4)
Hg5 Hg 1.35279(13) 1.35327(10) 0.51493(5)
I1 I 0.8153(2) 0.46012(14) 0.11880(8)
I2 I 0.52370(17) 0.11587(12) 0.18294(7)
I3 I 0.86944(16) 0.38728(12) 0.29466(7)
I4 I 1.0926(2) 0.75371(14) 0.27017(7)
I5 I 1.26762(17) 0.70581(12) 0.42027(6)
I6 I 1.16211(16) 1.05134(11) 0.44620(6)
I7 I 1.12109(19) 1.09845(14) 0.27001(7)
I8 I 1.07496(17) 1.37775(12) 0.44823(7)
I9 I 1.53975(18) 1.36763(12) 0.43636(7)
I10 I 1.22701(18) 1.30391(13) 0.60325(7)
N1 N 0.4894(17) 0.4169(13) 0.2219(7)
N2 N 0.2919(16) 0.5030(12) 0.2670(7)
N3 N 0.7814(15) 1.0807(13) 0.3696(6)
N4 N 0.4992(15) 0.9730(11) 0.3707(6)
C1 C 0.541(2) 0.5335(16) 0.2273(10)
H1 H 0.5532 0.5461 0.1897
H2 H 0.6399 0.5679 0.2505
C2 C 0.423(2) 0.5886(16) 0.2562(10)
H3 H 0.4720 0.6438 0.2920
H4 H 0.3893 0.6265 0.2312
C3 C 0.340(2) 0.3605(16) 0.1846(9)
H5 H 0.3032 0.2814 0.1827
H6 H 0.3508 0.3679 0.1461
C4 C 0.227(2) 0.4183(19) 0.2117(9)
H7 H 0.1953 0.4542 0.1852
H8 H 0.1375 0.3619 0.2175
C5 C 0.469(2) 0.3966(18) 0.2789(8)
H9 H 0.5650 0.4316 0.3038
H10 H 0.4370 0.3167 0.2751
C6 C 0.347(2) 0.4462(16) 0.3055(8)
H11 H 0.2616 0.3866 0.3115
H12 H 0.3901 0.4996 0.3424
C7 C 0.681(2) 1.117(2) 0.3358(9)
H13 H 0.7021 1.1029 0.2963
H14 H 0.7010 1.1974 0.3508
C8 C 0.513(2) 1.055(2) 0.3384(11)
H15 H 0.4630 1.1078 0.3564
H16 H 0.4616 1.0168 0.2999
C9 C 0.748(2) 0.9586(17) 0.3420(11)
H17 H 0.8106 0.9292 0.3624
H18 H 0.7707 0.9470 0.3027
C10 C 0.578(2) 0.8976(18) 0.3434(10)
H19 H 0.5295 0.8596 0.3045
H20 H 0.5693 0.8413 0.3639
C11 C 0.747(2) 1.0984(19) 0.4287(8)
H21 H 0.7608 1.1771 0.4456
H22 H 0.8156 1.0768 0.4511
C12 C 0.5780(19) 1.027(2) 0.4299(10)
H23 H 0.5769 0.9692 0.4491
H24 H 0.5248 1.0740 0.4513
Hg1A Hg 2.33799(10) 2.68247(8) 0.82768(4)
Hg2A Hg 1.89365(10) 2.42762(7) 0.68935(5)
Hg2_2 Hg 0.10635(10) 0.57238(7) 0.31065(5)
Hg2A_2 Hg 2.89365(10) 2.42762(7) 0.68935(5)
Hg3A Hg 1.76184(10) 2.11532(7) 0.62234(5)
Hg3_2 Hg 0.23816(10) 0.88468(7) 0.37766(5)
Hg3A_2 Hg 2.76184(10) 2.11532(7) 0.62234(5)
Hg4A Hg 1.95710(10) 1.81097(8) 0.63223(4)
Hg5A Hg 1.64721(13) 1.64673(10) 0.48507(5)
I1A I 2.1847(2) 2.53988(14) 0.88120(8)
I2A I 2.47630(17) 2.88413(12) 0.81706(7)
I3A I 2.13056(16) 2.61272(12) 0.70534(7)
I4A I 1.9074(2) 2.24629(14) 0.72983(7)
I5A I 1.73238(17) 2.29419(12) 0.57973(6)
I6A I 1.83789(16) 1.94866(11) 0.55380(6)
I7A I 1.87891(19) 1.90155(14) 0.72999(7)
I8A I 1.92504(17) 1.62225(12) 0.55177(7)
I9A I 1.46025(18) 1.63237(12) 0.56364(7)
I10A I 1.77299(18) 1.69609(13) 0.39675(7)
N1A N 2.5106(17) 2.5831(13) 0.7781(7)
N2A N 2.7081(16) 2.4970(12) 0.7330(7)
N2_2 N 1.2919(16) 0.5030(12) 0.2670(7)
N2A_2 N 1.7081(16) 2.4970(12) 0.7330(7)
N3A N 2.2186(15) 1.9193(13) 0.6304(6)
N4A N 2.5008(15) 2.0270(11) 0.6293(6)
N4_2 N 1.4992(15) 0.9730(11) 0.3707(6)
N4A_2 N 1.5008(15) 2.0270(11) 0.6293(6)
C1A C 2.459(2) 2.4665(16) 0.7727(10)
H1A H 2.4468 2.4539 0.8103
H2A H 2.3601 2.4321 0.7495
C2A C 2.577(2) 2.4114(16) 0.7438(10)
H3A H 2.5280 2.3562 0.7080
H4A H 2.6107 2.3735 0.7688
C3A C 2.660(2) 2.6395(16) 0.8154(9)
H5A H 2.6968 2.7186 0.8173
H6A H 2.6492 2.6321 0.8539
C4A C 2.773(2) 2.5817(19) 0.7883(9)
H7A H 2.8047 2.5458 0.8148
H8A H 2.8625 2.6381 0.7825
C5A C 2.531(2) 2.6034(18) 0.7211(8)
H9A H 2.4350 2.5684 0.6962
H10A H 2.5630 2.6833 0.7249
C6A C 2.653(2) 2.5538(16) 0.6945(8)
H11A H 2.7384 2.6134 0.6885
H12A H 2.6099 2.5004 0.6576
C7A C 2.319(2) 1.883(2) 0.6642(9)
H13A H 2.2979 1.8971 0.7037
H14A H 2.2990 1.8026 0.6492
C8A C 2.487(2) 1.945(2) 0.6616(11)
H15A H 2.5370 1.8922 0.6436
H16A H 2.5384 1.9832 0.7001
C9A C 2.252(2) 2.0414(17) 0.6580(11)
H17A H 2.1894 2.0708 0.6376
H18A H 2.2293 2.0530 0.6973
C10A C 2.422(2) 2.1024(18) 0.6566(10)
H19A H 2.4705 2.1404 0.6955
H20A H 2.4307 2.1587 0.6361
C11A C 2.253(2) 1.9016(19) 0.5713(8)
H21A H 2.2392 1.8229 0.5544
H22A H 2.1844 1.9232 0.5489
C12A C 2.4220(19) 1.973(2) 0.5701(10)
H23A H 2.4231 2.0308 0.5509
H24A H 2.4752 1.9260 0.5487
Hg6 Hg 1.41672(10) 0.68192(8) 0.02814(4)
Hg7 Hg 0.83051(10) 0.95422(8) 0.12166(4)
I11 I 1.61056(16) 0.83101(13) -0.01246(7)
I12 I 1.31422(18) 0.49704(12) 0.05858(7)
I13 I 0.94878(17) 1.15710(12) 0.11132(7)
I14 I 0.65080(17) 0.80754(13) 0.16796(7)
N5 N 1.2228(19) 0.7697(14) 0.0573(7)
N6 N 1.0174(18) 0.8624(13) 0.0889(7)
C13 C 1.258(3) 0.8758(18) 0.0431(10)
H25 H 1.2591 0.8636 0.0020
H26 H 1.3578 0.9251 0.0620
C14 C 1.131(3) 0.9315(19) 0.0637(12)
H27 H 1.1796 1.0034 0.0916
H28 H 1.0833 0.9447 0.0312
C15 C 1.067(2) 0.6966(18) 0.0285(9)
H29 H 1.0414 0.6259 0.0383
H30 H 1.0668 0.6810 -0.0127
C16 C 0.947(2) 0.7548(18) 0.0475(10)
H31 H 0.8983 0.7651 0.0143
H32 H 0.8698 0.7074 0.0643
C17 C 1.211(2) 0.7902(19) 0.1196(9)
H33 H 1.3100 0.8363 0.1408
H34 H 1.1826 0.7194 0.1293
C18 C 1.092(2) 0.849(2) 0.1374(10)
H35 H 1.0178 0.8055 0.1567
H36 H 1.1426 0.9222 0.1640
Hg7_2 Hg 1.83051(10) 0.95422(8) 0.12166(4)
I11_2 I 0.61056(16) 0.83101(13) -0.01246(7)
loop_
_geom_bond_atom_site_label_1
_geom_bond_atom_site_label_2
_geom_bond_site_symmetry_1
_geom_bond_site_symmetry_2
Hg1 I1 1_555 1_555
Hg2 I3 1_555 1_555
Hg3 I4 1_555 1_555
Hg4 I6 1_555 1_555
Hg5 I8 1_555 1_555
Hg6 I11 1_555 1_555
Hg7 I13 1_555 1_555
I2 Hg1 1_555 1_555
I3 Hg1 1_555 1_555
I4 Hg2 1_555 1_555
I5 Hg2 1_555 1_555
I6 Hg3 1_555 1_555
I7 Hg4 1_555 1_555
I8 Hg4 1_555 1_555
I9 Hg5 1_555 1_555
I10 Hg5 1_555 1_555
I11 Hg7_2 1_555 1_555
I12 Hg6 1_555 1_555
I14 Hg7 1_555 1_555
N1 Hg1 1_555 1_555
N2 C2 1_555 1_555
N3 Hg4 1_555 1_555
N4 C8 1_555 1_555
N5 Hg6 1_555 1_555
N6 Hg7 1_555 1_555
C1 N1 1_555 1_555
H1 C1 1_555 1_555
H2 C1 1_555 1_555
C2 C1 1_555 1_555
H3 C2 1_555 1_555
H4 C2 1_555 1_555
C3 N1 1_555 1_555
H5 C3 1_555 1_555
H6 C3 1_555 1_555
C4 N2 1_555 1_555
H7 C4 1_555 1_555
H8 C4 1_555 1_555
C5 N1 1_555 1_555
H9 C5 1_555 1_555
H10 C5 1_555 1_555
C6 N2 1_555 1_555
H11 C6 1_555 1_555
H12 C6 1_555 1_555
C7 N3 1_555 1_555
H13 C7 1_555 1_555
H14 C7 1_555 1_555
C8 C7 1_555 1_555
H15 C8 1_555 1_555
H16 C8 1_555 1_555
C9 N3 1_555 1_555
H17 C9 1_555 1_555
H18 C9 1_555 1_555
C10 N4 1_555 1_555
H19 C10 1_555 1_555
H20 C10 1_555 1_555
C11 N3 1_555 1_555
H21 C11 1_555 1_555
H22 C11 1_555 1_555
C12 N4 1_555 1_555
H23 C12 1_555 1_555
H24 C12 1_555 1_555
C13 N5 1_555 1_555
H25 C13 1_555 1_555
H26 C13 1_555 1_555
C14 N6 1_555 1_555
H27 C14 1_555 1_555
H28 C14 1_555 1_555
C15 N5 1_555 1_555
H29 C15 1_555 1_555
H30 C15 1_555 1_555
C16 N6 1_555 1_555
H31 C16 1_555 1_555
H32 C16 1_555 1_555
C17 N5 1_555 1_555
H33 C17 1_555 1_555
H34 C17 1_555 1_555
C18 N6 1_555 1_555
H35 C18 1_555 1_555
H36 C18 1_555 1_555
Hg1A I1A 1_555 1_555
Hg2A I3A 1_555 1_555
Hg2_2 N2 1_555 1_555
Hg2A_2 N2A 1_555 1_555
Hg3A I4A 1_555 1_555
Hg3_2 N4 1_555 1_555
Hg3A_2 N4A 1_555 1_555
Hg4A I6A 1_555 1_555
Hg5A I9 1_555 1_555
I2A Hg1A 1_555 1_555
I3A Hg1A 1_555 1_555
I4A Hg2A 1_555 1_555
I5A Hg2A 1_555 1_555
I6A Hg3A 1_555 1_555
I7A Hg4A 1_555 1_555
I8A Hg4A 1_555 1_555
I9A Hg5 1_555 1_555
I10A Hg5A 1_555 1_555
I11_2 Hg7 1_555 1_555
N1A Hg1A 1_555 1_555
N2A C2A 1_555 1_555
N2_2 Hg2 1_555 1_555
N2A_2 Hg2A 1_555 1_555
N3A Hg4A 1_555 1_555
N4A C8A 1_555 1_555
N4_2 Hg3 1_555 1_555
N4A_2 Hg3A 1_555 1_555
C1A N1A 1_555 1_555
H1A C1A 1_555 1_555
H2A C1A 1_555 1_555
C2A C1A 1_555 1_555
H3A C2A 1_555 1_555
H4A C2A 1_555 1_555
C3A N1A 1_555 1_555
H5A C3A 1_555 1_555
H6A C3A 1_555 1_555
C4A N2A 1_555 1_555
H7A C4A 1_555 1_555
H8A C4A 1_555 1_555
C5A N1A 1_555 1_555
H9A C5A 1_555 1_555
H10A C5A 1_555 1_555
C6A N2A 1_555 1_555
H11A C6A 1_555 1_555
H12A C6A 1_555 1_555
C7A N3A 1_555 1_555
H13A C7A 1_555 1_555
H14A C7A 1_555 1_555
C8A C7A 1_555 1_555
H15A C8A 1_555 1_555
H16A C8A 1_555 1_555
C9A N3A 1_555 1_555
H17A C9A 1_555 1_555
H18A C9A 1_555 1_555
C10A N4A 1_555 1_555
H19A C10A 1_555 1_555
H20A C10A 1_555 1_555
C11A N3A 1_555 1_555
H21A C11A 1_555 1_555
H22A C11A 1_555 1_555
C12A N4A 1_555 1_555
H23A C12A 1_555 1_555
H24A C12A 1_555 1_555
Hg3 I5 1_555 1_555
C3 C4 1_555 1_555
C5 C6 1_555 1_555
C9 C10 1_555 1_555
C11 C12 1_555 1_555
C13 C14 1_555 1_555
C15 C16 1_555 1_555
C17 C18 1_555 1_555
Hg3A I5A 1_555 1_555
Hg5A I8A 1_555 1_555
Hg5A I9A 1_555 1_555
C3A C4A 1_555 1_555
C5A C6A 1_555 1_555
C9A C10A 1_555 1_555
C11A C12A 1_555 1_555

#END
