
#######################################################################
#
#                 Cambridge Crystallographic Data Centre
#                                CCDC 
#
#######################################################################
#
# If this CIF has been generated from an entry in the Cambridge 
# Structural Database, then it will include bibliographic, chemical, 
# crystal, experimental, refinement or atomic coordinate data resulting 
# from the CCDC's data processing and validation procedures.
#
#######################################################################

data_ELIGAI
_symmetry_cell_setting           monoclinic
_symmetry_space_group_name_H-M   'P 21/c'
_symmetry_Int_Tables_number      14
_space_group_name_Hall           '-P 2ybc'
loop_
_symmetry_equiv_pos_site_id
_symmetry_equiv_pos_as_xyz
1 x,y,z
2 -x,1/2+y,1/2-z
3 -x,-y,-z
4 x,1/2-y,1/2+z
_cell_length_a                   8.9750(9)
_cell_length_b                   17.6523(17)
_cell_length_c                   12.6855(12)
_cell_angle_alpha                90
_cell_angle_beta                 99.6480(10)
_cell_angle_gamma                90
_cell_volume                     1981.33
loop_
_atom_site_label
_atom_site_type_symbol
_atom_site_fract_x
_atom_site_fract_y
_atom_site_fract_z
Cd1 Cd 0.72233(3) 0.040950(15) 0.861080(19)
O1 O 0.6248(3) -0.05862(13) 0.94464(19)
O2 O 0.9347(3) -0.02650(14) 0.86728(17)
O3 O 0.4703(3) -0.08822(13) 1.05693(17)
O4 O 1.1230(3) -0.07440(15) 0.98317(19)
N1 N 0.5456(3) 0.02153(15) 0.7086(2)
N2 N 0.7107(3) 0.15031(16) 0.7621(2)
N3 N 0.2759(3) 0.16053(16) 0.3986(2)
N4 N 0.4120(3) 0.26683(16) 0.4412(2)
C1 C 0.4615(4) -0.0403(2) 0.6870(3)
H1 H 0.4836 -0.0825 0.7308
C2 C 0.3422(4) -0.0450(2) 0.6020(3)
H2 H 0.2844 -0.0888 0.5903
C3 C 0.3115(4) 0.01595(19) 0.5358(3)
H3 H 0.2326 0.0138 0.4782
C4 C 0.3989(4) 0.08187(18) 0.5549(2)
C5 C 0.3783(3) 0.14891(18) 0.4915(2)
C6 C 0.4624(4) 0.21243(18) 0.5180(2)
C7 C 0.5787(4) 0.21782(18) 0.6099(2)
C8 C 0.6674(4) 0.2818(2) 0.6415(3)
H4 H 0.6541 0.3258 0.6007
C9 C 0.7729(4) 0.2793(2) 0.7317(3)
H5 H 0.8318 0.3216 0.7538
C10 C 0.7913(4) 0.2128(2) 0.7903(3)
H6 H 0.8633 0.2116 0.8522
C11 C 0.5148(3) 0.08295(18) 0.6442(2)
C12 C 0.6041(3) 0.15121(18) 0.6726(2)
C13 C 0.2995(4) 0.2316(2) 0.3717(2)
C14 C 0.2138(4) 0.2699(2) 0.2777(3)
C15 C 0.1815(4) 0.3470(2) 0.2806(3)
H7 H 0.2161 0.3754 0.3415
C16 C 0.0970(4) 0.3809(2) 0.1913(4)
H8 H 0.0749 0.4323 0.1926
C17 C 0.0457(5) 0.3394(3) 0.1013(4)
H9 H -0.0105 0.3628 0.0419
C18 C 0.0773(5) 0.2635(3) 0.0987(3)
H10 H 0.0420 0.2354 0.0377
C19 C 0.1611(4) 0.2289(2) 0.1860(3)
H11 H 0.1825 0.1774 0.1835
C20 C 0.5274(4) -0.04210(18) 1.0003(3)
C21 C 1.0164(4) -0.02915(19) 0.9576(3)
Cd1B Cd 0.27767(3) -0.040950(15) 1.138920(19)
Cd1B_2 Cd 1.27767(3) -0.040950(15) 1.138920(19)
O1B O 0.3752(3) 0.05862(13) 1.05536(19)
O2B O 1.0653(3) 0.02650(14) 1.13272(17)
O2B_2 O 0.0653(3) 0.02650(14) 1.13272(17)
O3B O 0.5297(3) 0.08822(13) 0.94307(17)
O4B O 0.8770(3) 0.07440(15) 1.01683(19)
O4_2 O 0.1230(3) -0.07440(15) 0.98317(19)
N1B N 0.4544(3) -0.02153(15) 1.2914(2)
N2B N 0.2893(3) -0.15031(16) 1.2379(2)
N3B N 0.7241(3) -0.16053(16) 1.6014(2)
N4B N 0.5880(3) -0.26683(16) 1.5588(2)
C1B C 0.5385(4) 0.0403(2) 1.3130(3)
H1B H 0.5164 0.0825 1.2692
C2B C 0.6578(4) 0.0450(2) 1.3980(3)
H2B H 0.7156 0.0888 1.4097
C3B C 0.6885(4) -0.01595(19) 1.4642(3)
H3B H 0.7674 -0.0138 1.5218
C4B C 0.6011(4) -0.08187(18) 1.4451(2)
C5B C 0.6217(3) -0.14891(18) 1.5085(2)
C6B C 0.5376(4) -0.21243(18) 1.4820(2)
C7B C 0.4213(4) -0.21782(18) 1.3901(2)
C8B C 0.3326(4) -0.2818(2) 1.3585(3)
H4B H 0.3459 -0.3258 1.3993
C9B C 0.2271(4) -0.2793(2) 1.2683(3)
H5B H 0.1682 -0.3216 1.2462
C10B C 0.2087(4) -0.2128(2) 1.2097(3)
H6B H 0.1367 -0.2116 1.1478
C11B C 0.4852(3) -0.08295(18) 1.3558(2)
C12B C 0.3959(3) -0.15121(18) 1.3274(2)
C13B C 0.7005(4) -0.2316(2) 1.6283(2)
C14B C 0.7862(4) -0.2699(2) 1.7223(3)
C15B C 0.8185(4) -0.3470(2) 1.7194(3)
H7B H 0.7839 -0.3754 1.6585
C16B C 0.9030(4) -0.3809(2) 1.8087(4)
H8B H 0.9251 -0.4323 1.8074
C17B C 0.9543(5) -0.3394(3) 1.8987(4)
H9B H 1.0105 -0.3628 1.9581
C18B C 0.9227(5) -0.2635(3) 1.9013(3)
H10B H 0.9580 -0.2354 1.9623
C19B C 0.8389(4) -0.2289(2) 1.8140(3)
H11B H 0.8175 -0.1774 1.8165
C20B C 0.4726(4) 0.04210(18) 0.9997(3)
C21B C 0.9836(4) 0.02915(19) 1.0424(3)
O5 O 0.9984(3) -0.07712(15) 0.66471(19)
H12 H 0.9118 -0.0975 0.6481
H13 H 1.0029 -0.0758 0.7321
loop_
_geom_bond_atom_site_label_1
_geom_bond_atom_site_label_2
_geom_bond_site_symmetry_1
_geom_bond_site_symmetry_2
Cd1 O1 1_555 1_555
O1 C20 1_555 1_555
O2 Cd1 1_555 1_555
O3 C20 1_555 1_555
O4 C21 1_555 1_555
N1 Cd1 1_555 1_555
N2 Cd1 1_555 1_555
N3 C5 1_555 1_555
N4 C6 1_555 1_555
C1 N1 1_555 1_555
H1 C1 1_555 1_555
C2 C1 1_555 1_555
H2 C2 1_555 1_555
C3 C2 1_555 1_555
H3 C3 1_555 1_555
C4 C3 1_555 1_555
C5 C4 1_555 1_555
C6 C5 1_555 1_555
C7 C6 1_555 1_555
C8 C7 1_555 1_555
H4 C8 1_555 1_555
C9 C8 1_555 1_555
H5 C9 1_555 1_555
C10 N2 1_555 1_555
H6 C10 1_555 1_555
C11 N1 1_555 1_555
C12 N2 1_555 1_555
C13 N3 1_555 1_555
C14 C13 1_555 1_555
C15 C14 1_555 1_555
H7 C15 1_555 1_555
C16 C15 1_555 1_555
H8 C16 1_555 1_555
C17 C16 1_555 1_555
H9 C17 1_555 1_555
C18 C17 1_555 1_555
H10 C18 1_555 1_555
C19 C14 1_555 1_555
H11 C19 1_555 1_555
C20 C20B 1_555 1_555
C21 O2 1_555 1_555
O5 H12 1_555 1_555
H13 O5 1_555 1_555
Cd1B O3 1_555 1_555
Cd1B_2 O4 1_555 1_555
O1B Cd1B 1_555 1_555
O2B Cd1B_2 1_555 1_555
O2B_2 Cd1B 1_555 1_555
O3B Cd1 1_555 1_555
O4B Cd1 1_555 1_555
O4_2 Cd1B 1_555 1_555
N1B Cd1B 1_555 1_555
N2B Cd1B 1_555 1_555
N3B C5B 1_555 1_555
N4B C6B 1_555 1_555
C1B N1B 1_555 1_555
H1B C1B 1_555 1_555
C2B C1B 1_555 1_555
H2B C2B 1_555 1_555
C3B C2B 1_555 1_555
H3B C3B 1_555 1_555
C4B C3B 1_555 1_555
C5B C4B 1_555 1_555
C6B C5B 1_555 1_555
C7B C6B 1_555 1_555
C8B C7B 1_555 1_555
H4B C8B 1_555 1_555
C9B C8B 1_555 1_555
H5B C9B 1_555 1_555
C10B N2B 1_555 1_555
H6B C10B 1_555 1_555
C11B N1B 1_555 1_555
C12B N2B 1_555 1_555
C13B N3B 1_555 1_555
C14B C13B 1_555 1_555
C15B C14B 1_555 1_555
H7B C15B 1_555 1_555
C16B C15B 1_555 1_555
H8B C16B 1_555 1_555
C17B C16B 1_555 1_555
H9B C17B 1_555 1_555
C18B C17B 1_555 1_555
H10B C18B 1_555 1_555
C19B C14B 1_555 1_555
H11B C19B 1_555 1_555
C20B O1B 1_555 1_555
C21B C21 1_555 1_555
N4 C13 1_555 1_555
C4 C11 1_555 1_555
C7 C12 1_555 1_555
C9 C10 1_555 1_555
C11 C12 1_555 1_555
C18 C19 1_555 1_555
O2B C21B 1_555 1_555
O3B C20B 1_555 1_555
O4B C21B 1_555 1_555
N4B C13B 1_555 1_555
C4B C11B 1_555 1_555
C7B C12B 1_555 1_555
C9B C10B 1_555 1_555
C11B C12B 1_555 1_555
C18B C19B 1_555 1_555

#END
