
#######################################################################
#
#                 Cambridge Crystallographic Data Centre
#                                CCDC 
#
#######################################################################
#
# If this CIF has been generated from an entry in the Cambridge 
# Structural Database, then it will include bibliographic, chemical, 
# crystal, experimental, refinement or atomic coordinate data resulting 
# from the CCDC's data processing and validation procedures.
#
#######################################################################

data_ELIGEM
_symmetry_cell_setting           triclinic
_symmetry_space_group_name_H-M   'P -1'
_symmetry_Int_Tables_number      2
_space_group_name_Hall           '-P 1'
loop_
_symmetry_equiv_pos_site_id
_symmetry_equiv_pos_as_xyz
1 x,y,z
2 -x,-y,-z
_cell_length_a                   9.4948(15)
_cell_length_b                   10.7833(17)
_cell_length_c                   13.591(2)
_cell_angle_alpha                93.820(2)
_cell_angle_beta                 102.414(2)
_cell_angle_gamma                104.722(2)
_cell_volume                     1303.49
loop_
_atom_site_label
_atom_site_type_symbol
_atom_site_fract_x
_atom_site_fract_y
_atom_site_fract_z
Cd1 Cd 0.57339(4) 0.65739(4) 0.18025(3)
O1 O 0.8110(5) 0.7075(5) 0.1172(4)
O3 O 0.6777(4) 0.5072(4) 0.1073(3)
O5 O 0.7078(3) 0.8694(3) 0.2660(3)
O7 O 0.7441(3) 0.7028(3) 0.3454(2)
O9 O 0.4741(5) 0.7074(5) 0.0284(3)
H7 H 0.5112 0.7888 0.0418
H8 H 0.4319 0.6551 -0.0257
N1 N 0.4026(4) 0.4725(4) 0.2074(3)
N2 N 0.3711(4) 0.7146(4) 0.2351(3)
N3 N -0.0642(4) 0.3184(4) 0.3199(3)
N4 N -0.0866(4) 0.5171(4) 0.3505(3)
H9 H -0.1132 0.5925 0.3703
C1 C 0.4160(6) 0.3528(6) 0.1928(4)
H10 H 0.5004 0.3424 0.1727
C2 C 0.3132(6) 0.2444(5) 0.2057(5)
H11 H 0.3256 0.1628 0.1918
C3 C 0.1922(6) 0.2584(5) 0.2394(4)
H12 H 0.1223 0.1860 0.2503
C4 C 0.1731(5) 0.3808(5) 0.2577(4)
C5 C 0.0503(5) 0.4054(5) 0.2945(4)
C6 C 0.0399(5) 0.5294(5) 0.3118(4)
C7 C 0.1437(5) 0.6407(5) 0.2918(4)
C8 C 0.1362(6) 0.7687(5) 0.3050(4)
H13 H 0.0591 0.7877 0.3299
C9 C 0.2415(6) 0.8643(6) 0.2813(5)
H14 H 0.2358 0.9492 0.2876
C10 C 0.3588(6) 0.8341(6) 0.2474(5)
H15 H 0.4319 0.9009 0.2328
C11 C 0.2798(5) 0.4869(5) 0.2404(3)
C12 C 0.2653(5) 0.6168(5) 0.2559(3)
C13 C -0.1437(5) 0.3894(5) 0.3531(4)
C14 C -0.2728(5) 0.3339(5) 0.3954(4)
C15 C -0.3285(6) 0.2019(6) 0.3858(4)
H16 H -0.2876 0.1499 0.3496
C16 C -0.4445(6) 0.1447(6) 0.4289(5)
H17 H -0.4812 0.0551 0.4214
C17 C -0.5047(6) 0.2208(7) 0.4826(5)
H18 H -0.5834 0.1831 0.5111
C18 C -0.4494(6) 0.3512(6) 0.4943(5)
H19 H -0.4887 0.4024 0.5325
C19 C -0.3343(6) 0.4097(5) 0.4497(4)
H20 H -0.2992 0.4993 0.4565
C20 C 0.9019(6) 0.4180(7) 0.0413(4)
H21 H 0.8348 0.3607 0.0691
C21 C 0.8989(5) 0.5436(6) 0.0445(4)
C22 C 0.9974(6) 0.6275(6) 0.0022(4)
H22 H 0.9970 0.7137 0.0027
C23 C 0.9320(5) 0.8775(5) 0.5181(4)
H23 H 0.8866 0.7951 0.5310
C24 C 0.8914(5) 0.9143(5) 0.4229(4)
C25 C 0.9601(5) 1.0367(5) 0.4061(4)
H24 H 0.9334 1.0624 0.3423
C26 C 0.7900(6) 0.5903(7) 0.0925(4)
C27 C 0.7725(5) 0.8227(5) 0.3388(4)
Cd1A Cd 1.42661(4) 0.34261(4) -0.18025(3)
Cd1A_2 Cd 1.42661(4) 1.34261(4) 0.81975(3)
O1A O 1.1890(5) 0.2925(5) -0.1172(4)
O3A O 1.3223(4) 0.4928(4) -0.1073(3)
O5A O 1.2922(3) 1.1306(3) 0.7340(3)
O5A_2 O 1.2922(3) 0.1306(3) -0.2660(3)
O7A O 1.2559(3) 1.2972(3) 0.6546(2)
O7A_2 O 1.2559(3) 0.2972(3) -0.3454(2)
O9A O 1.5259(5) 0.2926(5) -0.0284(3)
H7A H 1.4888 0.2112 -0.0418
H8A H 1.5681 0.3449 0.0257
N1A N 1.5974(4) 0.5275(4) -0.2074(3)
N2A N 1.6289(4) 0.2854(4) -0.2351(3)
N3A N 2.0642(4) 0.6816(4) -0.3199(3)
N4A N 2.0866(4) 0.4829(4) -0.3505(3)
H9A H 2.1132 0.4075 -0.3703
C1A C 1.5840(6) 0.6472(6) -0.1928(4)
H10A H 1.4996 0.6576 -0.1727
C2A C 1.6868(6) 0.7556(5) -0.2057(5)
H11A H 1.6744 0.8372 -0.1918
C3A C 1.8078(6) 0.7416(5) -0.2394(4)
H12A H 1.8777 0.8140 -0.2503
C4A C 1.8269(5) 0.6192(5) -0.2577(4)
C5A C 1.9497(5) 0.5946(5) -0.2945(4)
C6A C 1.9601(5) 0.4706(5) -0.3118(4)
C7A C 1.8563(5) 0.3593(5) -0.2918(4)
C8A C 1.8638(6) 0.2313(5) -0.3050(4)
H13A H 1.9409 0.2123 -0.3299
C9A C 1.7585(6) 0.1357(6) -0.2813(5)
H14A H 1.7642 0.0508 -0.2876
C10A C 1.6412(6) 0.1659(6) -0.2474(5)
H15A H 1.5681 0.0991 -0.2328
C11A C 1.7202(5) 0.5131(5) -0.2404(3)
C12A C 1.7347(5) 0.3832(5) -0.2559(3)
C13A C 2.1437(5) 0.6106(5) -0.3531(4)
C14A C 2.2728(5) 0.6661(5) -0.3954(4)
C15A C 2.3285(6) 0.7981(6) -0.3858(4)
H16A H 2.2876 0.8501 -0.3496
C16A C 2.4445(6) 0.8553(6) -0.4289(5)
H17A H 2.4812 0.9449 -0.4214
C17A C 2.5047(6) 0.7792(7) -0.4826(5)
H18A H 2.5834 0.8169 -0.5111
C18A C 2.4494(6) 0.6488(6) -0.4943(5)
H19A H 2.4887 0.5976 -0.5325
C19A C 2.3343(6) 0.5903(5) -0.4497(4)
H20A H 2.2992 0.5007 -0.4565
C20A C 1.0981(6) 0.5820(7) -0.0413(4)
H21A H 1.1652 0.6393 -0.0691
C21A C 1.1011(5) 0.4564(6) -0.0445(4)
C22A C 1.0026(6) 0.3725(6) -0.0022(4)
H22A H 1.0030 0.2863 -0.0027
C23A C 1.0680(5) 1.1225(5) 0.4819(4)
H23A H 1.1134 1.2049 0.4690
C24A C 1.1086(5) 1.0857(5) 0.5771(4)
C25A C 1.0399(5) 0.9633(5) 0.5939(4)
H24A H 1.0666 0.9376 0.6577
C26A C 1.2100(6) 0.4097(7) -0.0925(4)
C27A C 1.2275(5) 1.1773(5) 0.6612(4)
O2 O 0.7751(8) 1.0857(6) 0.1587(5)
H1 H 0.6938 1.1063 0.1564
H2 H 0.8122 1.1520 0.2031
O4 O 0.9757(11) 0.9546(7) 0.0930(7)
H3 H 0.9073 0.9864 0.1059
H4 H 1.0560 0.9352 0.1184
O6 O 0.268(2) 0.932(2) 0.0281(14)
H5 H 0.3135 0.8749 0.0420
O8 O 0.499(3) 0.906(2) -0.0631(15)
H6 H 0.5879 0.9317 -0.0705
loop_
_geom_bond_atom_site_label_1
_geom_bond_atom_site_label_2
_geom_bond_site_symmetry_1
_geom_bond_site_symmetry_2
Cd1 O1 1_555 1_555
O1 C26 1_555 1_555
O2 H1 1_555 1_555
H2 O2 1_555 1_555
O3 Cd1 1_555 1_555
O4 H3 1_555 1_555
H4 O4 1_555 1_555
O5 Cd1 1_555 1_555
O6 H5 1_555 1_555
O7 Cd1 1_555 1_555
O8 H6 1_555 1_555
O9 Cd1 1_555 1_555
H7 O9 1_555 1_555
H8 O9 1_555 1_555
N1 Cd1 1_555 1_555
N2 Cd1 1_555 1_555
N3 C5 1_555 1_555
N4 H9 1_555 1_555
C1 N1 1_555 1_555
H10 C1 1_555 1_555
C2 C1 1_555 1_555
H11 C2 1_555 1_555
C3 C2 1_555 1_555
H12 C3 1_555 1_555
C4 C3 1_555 1_555
C5 C4 1_555 1_555
C6 N4 1_555 1_555
C7 C6 1_555 1_555
C8 C7 1_555 1_555
H13 C8 1_555 1_555
C9 C8 1_555 1_555
H14 C9 1_555 1_555
C10 N2 1_555 1_555
H15 C10 1_555 1_555
C11 N1 1_555 1_555
C12 N2 1_555 1_555
C13 N3 1_555 1_555
C14 C13 1_555 1_555
C15 C14 1_555 1_555
H16 C15 1_555 1_555
C16 C15 1_555 1_555
H17 C16 1_555 1_555
C17 C16 1_555 1_555
H18 C17 1_555 1_555
C18 C17 1_555 1_555
H19 C18 1_555 1_555
C19 C14 1_555 1_555
H20 C19 1_555 1_555
C20 H21 1_555 1_555
C21 C20 1_555 1_555
C22 C21 1_555 1_555
H22 C22 1_555 1_555
C23 H23 1_555 1_555
C24 C23 1_555 1_555
C25 C24 1_555 1_555
H24 C25 1_555 1_555
C26 O3 1_555 1_555
C27 O5 1_555 1_555
Cd1A O1A 1_555 1_555
Cd1A_2 O5A 1_555 1_555
O1A C26A 1_555 1_555
O3A Cd1A 1_555 1_555
O5A C27A 1_555 1_555
O5A_2 Cd1A 1_555 1_555
O7A Cd1A_2 1_555 1_555
O7A_2 Cd1A 1_555 1_555
O9A Cd1A 1_555 1_555
H7A O9A 1_555 1_555
H8A O9A 1_555 1_555
N1A Cd1A 1_555 1_555
N2A Cd1A 1_555 1_555
N3A C5A 1_555 1_555
N4A H9A 1_555 1_555
C1A N1A 1_555 1_555
H10A C1A 1_555 1_555
C2A C1A 1_555 1_555
H11A C2A 1_555 1_555
C3A C2A 1_555 1_555
H12A C3A 1_555 1_555
C4A C3A 1_555 1_555
C5A C4A 1_555 1_555
C6A N4A 1_555 1_555
C7A C6A 1_555 1_555
C8A C7A 1_555 1_555
H13A C8A 1_555 1_555
C9A C8A 1_555 1_555
H14A C9A 1_555 1_555
C10A N2A 1_555 1_555
H15A C10A 1_555 1_555
C11A N1A 1_555 1_555
C12A N2A 1_555 1_555
C13A N3A 1_555 1_555
C14A C13A 1_555 1_555
C15A C14A 1_555 1_555
H16A C15A 1_555 1_555
C16A C15A 1_555 1_555
H17A C16A 1_555 1_555
C17A C16A 1_555 1_555
H18A C17A 1_555 1_555
C18A C17A 1_555 1_555
H19A C18A 1_555 1_555
C19A C14A 1_555 1_555
H20A C19A 1_555 1_555
C20A C22 1_555 1_555
H21A C20A 1_555 1_555
C21A C20A 1_555 1_555
C22A C20 1_555 1_555
H22A C22A 1_555 1_555
C23A C25 1_555 1_555
H23A C23A 1_555 1_555
C24A C23A 1_555 1_555
C25A C23 1_555 1_555
H24A C25A 1_555 1_555
C26A O3A 1_555 1_555
C27A O7A 1_555 1_555
O7 C27 1_555 1_555
N4 C13 1_555 1_555
C4 C11 1_555 1_555
C5 C6 1_555 1_555
C7 C12 1_555 1_555
C9 C10 1_555 1_555
C11 C12 1_555 1_555
C18 C19 1_555 1_555
C21 C26 1_555 1_555
C24 C27 1_555 1_555
N4A C13A 1_555 1_555
C4A C11A 1_555 1_555
C5A C6A 1_555 1_555
C7A C12A 1_555 1_555
C9A C10A 1_555 1_555
C11A C12A 1_555 1_555
C18A C19A 1_555 1_555
C21A C22A 1_555 1_555
C21A C26A 1_555 1_555
C24A C25A 1_555 1_555
C24A C27A 1_555 1_555

#END
