
#######################################################################
#
#                 Cambridge Crystallographic Data Centre
#                                CCDC 
#
#######################################################################
#
# If this CIF has been generated from an entry in the Cambridge 
# Structural Database, then it will include bibliographic, chemical, 
# crystal, experimental, refinement or atomic coordinate data resulting 
# from the CCDC's data processing and validation procedures.
#
#######################################################################

data_ELIGUC
_symmetry_cell_setting           triclinic
_symmetry_space_group_name_H-M   'P -1'
_symmetry_Int_Tables_number      2
_space_group_name_Hall           '-P 1'
loop_
_symmetry_equiv_pos_site_id
_symmetry_equiv_pos_as_xyz
1 x,y,z
2 -x,-y,-z
_cell_length_a                   9.002(5)
_cell_length_b                   11.139(5)
_cell_length_c                   12.831(5)
_cell_angle_alpha                69.824(5)
_cell_angle_beta                 83.066(5)
_cell_angle_gamma                85.805(5)
_cell_volume                     1198.14
loop_
_atom_site_label
_atom_site_type_symbol
_atom_site_fract_x
_atom_site_fract_y
_atom_site_fract_z
Cd1 Cd 0.57427(4) 0.31704(3) 0.02870(3)
O1 O 0.7066(5) 0.4087(4) -0.1501(3)
O2 O 0.6561(4) 0.5538(3) -0.0689(3)
O3 O 0.7565(6) 0.1588(6) 0.0378(4)
O4 O 0.8894(4) 0.6067(4) -0.5609(3)
O5 O 1.0662(5) 0.7378(4) -0.5995(3)
O6 O 1.0174(4) 0.9041(3) -0.1771(3)
O7 O 1.1476(5) 0.9606(4) -0.3449(3)
N1 N 0.4785(4) 0.1629(3) 0.2043(3)
N2 N 0.6553(4) 0.3623(3) 0.1787(3)
N3 N 0.4205(4) 0.2501(4) 0.9239(3)
N4 N 0.3554(4) 0.1461(4) 0.5947(3)
N5 N 0.5107(4) 0.3021(3) 0.5757(3)
N6 N 0.9664(5) 0.6759(4) -0.5357(3)
C1 C 0.7206(6) 0.5178(5) -0.1473(4)
C2 C 0.8215(5) 0.6078(4) -0.2376(4)
C3 C 0.8919(5) 0.7033(4) -0.2163(4)
H1 H 0.8766 0.7087 -0.1451
C4 C 0.9841(5) 0.7906(4) -0.2978(4)
C5 C 1.0071(5) 0.7801(4) -0.4034(4)
H2 H 1.0678 0.8369 -0.4599
C6 C 0.9393(5) 0.6848(4) -0.4233(4)
C7 C 0.8460(5) 0.5975(4) -0.3432(4)
H3 H 0.8015 0.5344 -0.3597
C8 C 1.0561(5) 0.8938(4) -0.2714(4)
C9 C 0.4014(5) 0.0597(4) 0.2189(4)
H4 H 0.4000 0.0323 0.1583
C10 C 0.3234(5) -0.0089(4) 0.3190(4)
H5 H 0.2715 -0.0804 0.3248
C11 C 0.3231(5) 0.0295(4) 0.4099(4)
H6 H 0.2693 -0.0139 0.4775
C12 C 0.4057(5) 0.1356(4) 0.3980(3)
C13 C 0.4209(5) 0.1840(4) 0.4864(3)
C14 C 0.5135(5) 0.2812(4) 0.4757(4)
C15 C 0.5986(5) 0.3434(4) 0.3723(4)
C16 C 0.6992(5) 0.4405(4) 0.3567(4)
H7 H 0.7123 0.4688 0.4152
C17 C 0.7768(5) 0.4922(4) 0.2550(4)
H8 H 0.8471 0.5537 0.2439
C18 C 0.7504(5) 0.4524(4) 0.1672(4)
H9 H 0.8020 0.4908 0.0974
C19 C 0.5810(5) 0.3057(4) 0.2805(4)
C20 C 0.4843(5) 0.1994(4) 0.2936(4)
C21 C 0.4138(5) 0.2203(4) 0.6444(4)
C22 C 0.2852(5) 0.2050(4) 0.9722(4)
H10 H 0.2544 0.2059 1.0438
C23 C 0.1906(6) 0.1577(5) 0.9206(4)
H11 H 0.0995 0.1247 0.9580
C24 C 0.2313(5) 0.1593(4) 0.8136(4)
H12 H 0.1687 0.1279 0.7771
C25 C 0.3690(5) 0.2094(4) 0.7608(4)
C26 C 0.4595(5) 0.2532(4) 0.8192(3)
H13 H 0.5515 0.2862 0.7839
H14 H 0.297(5) 0.088(4) 0.623(4)
H17 H 0.815(6) 0.223(5) 0.030(5)
H18 H 0.805(8) 0.137(7) -0.019(6)
Cd1A Cd 0.42573(4) 0.68296(3) -0.02870(3)
Cd1_2 Cd 0.57427(4) 0.31704(3) 1.02870(3)
O2A O 0.3439(4) 0.4462(3) 0.0689(3)
N3_2 N 0.4205(4) 0.2501(4) -0.0761(3)
O8 O 0.1503(5) 0.8796(5) 0.1567(4)
H15 H 0.120(7) 0.827(6) 0.209(5)
H16 H 0.098(6) 0.942(4) 0.167(5)
loop_
_geom_bond_atom_site_label_1
_geom_bond_atom_site_label_2
_geom_bond_site_symmetry_1
_geom_bond_site_symmetry_2
Cd1 O1 1_555 1_555
O1 C1 1_555 1_555
O2 Cd1 1_555 1_555
O3 Cd1 1_555 1_555
O4 N6 1_555 1_555
O5 N6 1_555 1_555
O6 C8 1_555 1_555
O7 C8 1_555 1_555
N1 Cd1 1_555 1_555
N2 Cd1 1_555 1_555
N3 C22 1_555 1_555
N4 C13 1_555 1_555
N5 C14 1_555 1_555
N6 C6 1_555 1_555
C1 O2 1_555 1_555
C2 C1 1_555 1_555
C3 C2 1_555 1_555
H1 C3 1_555 1_555
C4 C3 1_555 1_555
C5 C4 1_555 1_555
H2 C5 1_555 1_555
C6 C5 1_555 1_555
C7 C2 1_555 1_555
H3 C7 1_555 1_555
C8 C4 1_555 1_555
C9 N1 1_555 1_555
H4 C9 1_555 1_555
C10 C9 1_555 1_555
H5 C10 1_555 1_555
C11 C10 1_555 1_555
H6 C11 1_555 1_555
C12 C11 1_555 1_555
C13 C12 1_555 1_555
C14 C13 1_555 1_555
C15 C14 1_555 1_555
C16 C15 1_555 1_555
H7 C16 1_555 1_555
C17 C16 1_555 1_555
H8 C17 1_555 1_555
C18 N2 1_555 1_555
H9 C18 1_555 1_555
C19 N2 1_555 1_555
C20 N1 1_555 1_555
C21 N4 1_555 1_555
C22 H10 1_555 1_555
C23 C22 1_555 1_555
H11 C23 1_555 1_555
C24 C23 1_555 1_555
H12 C24 1_555 1_555
C25 C21 1_555 1_555
C26 N3 1_555 1_555
H13 C26 1_555 1_555
O8 H15 1_555 1_555
H14 N4 1_555 1_555
H16 O8 1_555 1_555
H17 O3 1_555 1_555
H18 O3 1_555 1_555
Cd1A O2 1_555 1_555
Cd1_2 N3 1_555 1_555
O2A Cd1 1_555 1_555
N3_2 Cd1 1_555 1_555
N5 C21 1_555 1_555
C6 C7 1_555 1_555
C12 C20 1_555 1_555
C15 C19 1_555 1_555
C17 C18 1_555 1_555
C19 C20 1_555 1_555
C24 C25 1_555 1_555
C25 C26 1_555 1_555
Cd1A O2A 1_555 1_555

#END
