
#######################################################################
#
#                 Cambridge Crystallographic Data Centre
#                                CCDC 
#
#######################################################################
#
# If this CIF has been generated from an entry in the Cambridge 
# Structural Database, then it will include bibliographic, chemical, 
# crystal, experimental, refinement or atomic coordinate data resulting 
# from the CCDC's data processing and validation procedures.
#
#######################################################################

data_ELILUH
_symmetry_cell_setting           triclinic
_symmetry_space_group_name_H-M   'P -1'
_symmetry_Int_Tables_number      2
_space_group_name_Hall           '-P 1'
loop_
_symmetry_equiv_pos_site_id
_symmetry_equiv_pos_as_xyz
1 x,y,z
2 -x,-y,-z
_cell_length_a                   6.6750(9)
_cell_length_b                   10.7148(11)
_cell_length_c                   11.0134(14)
_cell_angle_alpha                107.595(9)
_cell_angle_beta                 90.994(9)
_cell_angle_gamma                95.784(8)
_cell_volume                     746.069
loop_
_atom_site_label
_atom_site_type_symbol
_atom_site_fract_x
_atom_site_fract_y
_atom_site_fract_z
Mn1 Mn 0.70574(4) 0.75921(2) 0.69617(2)
P1 P 1.19654(6) 0.69283(4) 0.65817(4)
P2 P 0.67323(7) 0.58367(4) 0.87916(5)
F1 F 0.66251(17) 0.59080(10) 0.59044(11)
O1 O 1.02140(19) 0.77156(13) 0.68974(13)
O2 O 1.39505(19) 0.77311(13) 0.70711(13)
O3 O 1.1868(3) 0.63042(15) 0.51011(14)
O4 O 1.1680(2) 0.57372(13) 0.71657(14)
O5 O 0.4588(2) 0.52027(14) 0.84921(13)
O6 O 0.7193(2) 0.71418(12) 0.85250(12)
O7 O 0.7334(2) 0.61238(16) 1.02289(15)
O8 O 0.8135(3) 0.48215(15) 0.80142(18)
H1 H 1.236(4) 0.568(3) 0.488(3)
H2 H 1.274(4) 0.558(3) 0.755(3)
H3 H 0.677(4) 0.571(3) 1.056(3)
H4 H 0.906(5) 0.509(3) 0.779(3)
N1 N 0.7107(2) 0.83862(14) 0.54854(15)
N2 N 0.7447(2) 0.95484(14) 0.79283(14)
C1 C 0.7432(2) 0.97184(17) 0.58210(17)
C2 C 0.7610(2) 1.03780(16) 0.72059(18)
C3 C 0.7404(3) 0.9627(2) 0.3623(2)
C4 C 0.7906(3) 1.17331(18) 0.7774(2)
C5 C 0.7064(3) 0.8265(2) 0.3294(2)
C6 C 0.7589(3) 1.03660(18) 0.4903(2)
C7 C 0.6919(3) 0.76730(19) 0.42552(19)
C8 C 0.7565(3) 1.00369(19) 0.91986(19)
C9 C 0.8047(4) 1.2237(2) 0.9089(2)
C10 C 0.7864(4) 1.1384(2) 0.9813(2)
H5 H 0.746(3) 1.004(2) 0.298(2)
H6 H 0.670(4) 0.676(3) 0.411(2)
H7 H 0.747(4) 0.940(2) 0.961(2)
H8 H 0.783(4) 1.130(3) 0.513(2)
H9 H 0.822(4) 1.313(3) 0.948(2)
H10 H 0.801(3) 1.224(2) 0.722(2)
H11 H 0.790(5) 1.171(3) 1.074(3)
H12 H 0.698(4) 0.777(3) 0.247(3)
Mn1_2 Mn 1.70574(4) 0.75921(2) 0.69617(2)
O2_2 O 0.39505(19) 0.77311(13) 0.70711(13)
loop_
_geom_bond_atom_site_label_1
_geom_bond_atom_site_label_2
_geom_bond_site_symmetry_1
_geom_bond_site_symmetry_2
Mn1 F1 1_555 1_555
P1 O1 1_555 1_555
P2 O5 1_555 1_555
O1 Mn1 1_555 1_555
O2 P1 1_555 1_555
O3 P1 1_555 1_555
O4 P1 1_555 1_555
O6 Mn1 1_555 1_555
O7 P2 1_555 1_555
O8 P2 1_555 1_555
H1 O3 1_555 1_555
H2 O4 1_555 1_555
H3 O7 1_555 1_555
H4 O8 1_555 1_555
N1 Mn1 1_555 1_555
N2 Mn1 1_555 1_555
C1 N1 1_555 1_555
C2 N2 1_555 1_555
C3 C5 1_555 1_555
C4 C2 1_555 1_555
C5 C7 1_555 1_555
C6 C1 1_555 1_555
C7 N1 1_555 1_555
C8 N2 1_555 1_555
C9 C4 1_555 1_555
C10 C8 1_555 1_555
H5 C3 1_555 1_555
H6 C7 1_555 1_555
H7 C8 1_555 1_555
H8 C6 1_555 1_555
H9 C9 1_555 1_555
H10 C4 1_555 1_555
H11 C10 1_555 1_555
H12 C5 1_555 1_555
Mn1_2 O2 1_555 1_555
O2_2 Mn1 1_555 1_555
P2 O6 1_555 1_555
C1 C2 1_555 1_555
C3 C6 1_555 1_555
C9 C10 1_555 1_555

#END
