
#######################################################################
#
#                 Cambridge Crystallographic Data Centre
#                                CCDC 
#
#######################################################################
#
# If this CIF has been generated from an entry in the Cambridge 
# Structural Database, then it will include bibliographic, chemical, 
# crystal, experimental, refinement or atomic coordinate data resulting 
# from the CCDC's data processing and validation procedures.
#
#######################################################################

data_ELIMUI
_symmetry_cell_setting           triclinic
_symmetry_space_group_name_H-M   'P -1'
_symmetry_Int_Tables_number      2
_space_group_name_Hall           '-P 1'
loop_
_symmetry_equiv_pos_site_id
_symmetry_equiv_pos_as_xyz
1 x,y,z
2 -x,-y,-z
_cell_length_a                   5.637(2)
_cell_length_b                   7.954(3)
_cell_length_c                   10.957(4)
_cell_angle_alpha                108.677(6)
_cell_angle_beta                 98.338(6)
_cell_angle_gamma                95.594(6)
_cell_volume                     455.025
loop_
_atom_site_label
_atom_site_type_symbol
_atom_site_fract_x
_atom_site_fract_y
_atom_site_fract_z
Ni1 Ni 1.0000 0.5000 0.5000
O1 O 0.7749(3) 0.6312(2) 0.40528(16)
O2 O 1.0500(4) 0.7906(4) 0.3445(3)
O3 O 0.6867(3) 0.3539(2) 0.51625(17)
H1 H 0.7562 0.2967 0.5610
H2 H 0.5691 0.3917 0.5521
N1 N 0.9897(4) 0.2991(3) 0.31841(19)
C1 C 0.8384(5) 0.7324(4) 0.3444(3)
C2 C 0.6373(5) 0.7805(4) 0.2580(3)
H3 H 0.4971 0.7954 0.3001
H4 H 0.6931 0.8936 0.2477
C3 C 0.5652(5) 0.6360(4) 0.1247(3)
C4 C 0.3438(5) 0.5213(4) 0.0876(3)
H5 H 0.2369 0.5342 0.1460
C5 C 0.2810(5) 0.3893(4) -0.0342(3)
H6 H 0.1319 0.3153 -0.0563
C6 C 1.1647(5) 0.1985(4) 0.2955(3)
H7 H 1.2871 0.2089 0.3654
C7 C 1.1737(5) 0.0798(4) 0.1736(3)
H8 H 1.2997 0.0123 0.1631
C8 C 0.9957(4) 0.0607(3) 0.0667(2)
C9 C 0.8103(5) 0.1613(3) 0.0923(2)
H9 H 0.6835 0.1516 0.0247
C10 C 0.8125(5) 0.2752(3) 0.2167(2)
H10 H 0.6836 0.3391 0.2309
Ni1_2 Ni 0.0000 0.5000 -0.5000
Ni1_3 Ni 1.0000 -0.5000 -0.5000
O1A O 0.2251(3) 0.3688(2) -0.40528(16)
O1A_2 O 1.2251(3) 0.3688(2) 0.59472(16)
O2A O -0.0500(4) 0.2094(4) -0.3445(3)
O3A O 1.3133(3) 0.6461(2) 0.48375(17)
H1A H 1.2438 0.7033 0.4390
H2A H 1.4309 0.6083 0.4479
N1A N 1.0103(4) -0.2991(3) -0.31841(19)
N1A_2 N 1.0103(4) 0.7009(3) 0.68159(19)
C1A C 0.1616(5) 0.2676(4) -0.3444(3)
C2A C 0.3627(5) 0.2195(4) -0.2580(3)
H3A H 0.5029 0.2046 -0.3001
H4A H 0.3069 0.1064 -0.2477
C3A C 0.4348(5) 0.3640(4) -0.1247(3)
C4A C 0.6562(5) 0.4787(4) -0.0876(3)
H5A H 0.7631 0.4658 -0.1460
C5A C 0.7190(5) 0.6107(4) 0.0342(3)
H6A H 0.8681 0.6847 0.0563
C6A C 0.8353(5) -0.1985(4) -0.2955(3)
H7A H 0.7129 -0.2089 -0.3654
C7A C 0.8263(5) -0.0798(4) -0.1736(3)
H8A H 0.7003 -0.0123 -0.1631
C8A C 1.0043(4) -0.0607(3) -0.0667(2)
C9A C 1.1897(5) -0.1613(3) -0.0923(2)
H9A H 1.3165 -0.1516 -0.0247
C10A C 1.1875(5) -0.2752(3) -0.2167(2)
H10A H 1.3164 -0.3391 -0.2309
loop_
_geom_bond_atom_site_label_1
_geom_bond_atom_site_label_2
_geom_bond_site_symmetry_1
_geom_bond_site_symmetry_2
Ni1 O1 1_555 1_555
O1 C1 1_555 1_555
O2 C1 1_555 1_555
O3 Ni1 1_555 1_555
H1 O3 1_555 1_555
H2 O3 1_555 1_555
N1 Ni1 1_555 1_555
C1 C2 1_555 1_555
C2 H3 1_555 1_555
H4 C2 1_555 1_555
C3 C2 1_555 1_555
C4 C3 1_555 1_555
H5 C4 1_555 1_555
C5 C4 1_555 1_555
H6 C5 1_555 1_555
C6 N1 1_555 1_555
H7 C6 1_555 1_555
C7 C6 1_555 1_555
H8 C7 1_555 1_555
C8 C7 1_555 1_555
C9 C8 1_555 1_555
H9 C9 1_555 1_555
C10 N1 1_555 1_555
H10 C10 1_555 1_555
Ni1_2 O1A 1_555 1_555
Ni1_3 N1A 1_555 1_555
O1A C1A 1_555 1_555
O1A_2 Ni1 1_555 1_555
O2A C1A 1_555 1_555
O3A Ni1 1_555 1_555
H1A O3A 1_555 1_555
H2A O3A 1_555 1_555
N1A C6A 1_555 1_555
N1A_2 Ni1 1_555 1_555
C1A C2A 1_555 1_555
C2A H3A 1_555 1_555
H4A C2A 1_555 1_555
C3A C5 1_555 1_555
C4A C3A 1_555 1_555
H5A C4A 1_555 1_555
C5A C3 1_555 1_555
H6A C5A 1_555 1_555
C6A H7A 1_555 1_555
C7A C6A 1_555 1_555
H8A C7A 1_555 1_555
C8A C8 1_555 1_555
C9A C8A 1_555 1_555
H9A C9A 1_555 1_555
C10A N1A 1_555 1_555
H10A C10A 1_555 1_555
C9 C10 1_555 1_555
C2A C3A 1_555 1_555
C4A C5A 1_555 1_555
C7A C8A 1_555 1_555
C9A C10A 1_555 1_555

#END
