
#######################################################################
#
#                 Cambridge Crystallographic Data Centre
#                                CCDC 
#
#######################################################################
#
# If this CIF has been generated from an entry in the Cambridge 
# Structural Database, then it will include bibliographic, chemical, 
# crystal, experimental, refinement or atomic coordinate data resulting 
# from the CCDC's data processing and validation procedures.
#
#######################################################################

data_ELINET
_symmetry_cell_setting           triclinic
_symmetry_space_group_name_H-M   'P -1'
_symmetry_Int_Tables_number      2
_space_group_name_Hall           '-P 1'
loop_
_symmetry_equiv_pos_site_id
_symmetry_equiv_pos_as_xyz
1 x,y,z
2 -x,-y,-z
_cell_length_a                   8.0423(11)
_cell_length_b                   10.9842(15)
_cell_length_c                   11.3965(16)
_cell_angle_alpha                103.426(2)
_cell_angle_beta                 102.578(2)
_cell_angle_gamma                105.194(2)
_cell_volume                     902.413
loop_
_atom_site_label
_atom_site_type_symbol
_atom_site_fract_x
_atom_site_fract_y
_atom_site_fract_z
Ni1 Ni 0.5000 0.5000 1.0000
O4 O 0.4490(3) 0.42420(16) 0.68697(15)
O5 O 0.44914(19) 0.58130(13) 0.85030(12)
C9 C 0.4321(3) 0.5333(2) 0.73463(19)
C10 C 0.3823(3) 0.6108(2) 0.6458(2)
H11 H 0.4087 0.7022 0.6946
H12 H 0.4554 0.6099 0.5884
C11 C 0.1842(3) 0.5529(2) 0.56999(19)
C12 C 0.1302(3) 0.5211(2) 0.4393(2)
H13 H 0.2171 0.5348 0.3972
C13 C 0.0502(3) 0.5307(2) 0.6295(2)
H14 H 0.0828 0.5510 0.7170
O6 O 0.46333(19) 0.66439(14) 1.11711(13)
H15 H 0.4949 0.6525 1.1884
H16 H 0.5214 0.7420 1.1214
N3 N 0.2272(2) 0.40351(17) 0.95348(16)
C14 C 0.1100(3) 0.3331(2) 0.8352(2)
H17 H 0.1417 0.3213 0.7606
C15 C 0.1268(3) 0.3951(2) 1.0302(2)
H18 H 0.1702 0.4344 1.1173
N4 N -0.0444(3) 0.3234(2) 0.9677(2)
H19 H -0.1314 0.3055 1.0003
C16 C -0.0569(3) 0.2837(3) 0.8432(2)
H20 H -0.1603 0.2325 0.7767
Ni1_2 Ni -0.5000 0.5000 0.0000
O4A O -0.4490(3) 0.57580(16) 0.31303(15)
O5A O -0.44914(19) 0.41870(13) 0.14970(12)
O5A_2 O 0.55086(19) 0.41870(13) 1.14970(12)
C9A C -0.4321(3) 0.4667(2) 0.26537(19)
C10A C -0.3823(3) 0.3892(2) 0.3542(2)
H11A H -0.4087 0.2978 0.3054
H12A H -0.4554 0.3901 0.4116
C11A C -0.1842(3) 0.4471(2) 0.43001(19)
C12A C -0.1302(3) 0.4789(2) 0.5607(2)
H13A H -0.2171 0.4652 0.6028
C13A C -0.0502(3) 0.4693(2) 0.3705(2)
H14A H -0.0828 0.4490 0.2830
O6A O 0.53667(19) 0.33561(14) 0.88289(13)
H15A H 0.5051 0.3475 0.8116
H16A H 0.4786 0.2580 0.8786
N3A N 0.7728(2) 0.59649(17) 1.04652(16)
C14A C 0.8900(3) 0.6669(2) 1.1648(2)
H17A H 0.8583 0.6787 1.2394
C15A C 0.8732(3) 0.6049(2) 0.9698(2)
H18A H 0.8298 0.5656 0.8827
N4A N 1.0444(3) 0.6766(2) 1.0323(2)
H19A H 1.1314 0.6945 0.9997
C16A C 1.0569(3) 0.7163(3) 1.1568(2)
H20A H 1.1603 0.7675 1.2233
O1 O 0.3840(2) 0.05801(14) 0.84773(13)
O2 O 0.1907(2) -0.13947(15) 0.72424(14)
C1 C 0.2706(3) -0.0191(2) 0.74438(18)
C2 C 0.2371(3) 0.0369(2) 0.63452(19)
H1 H 0.1148 -0.0090 0.5794
H2 H 0.2521 0.1303 0.6660
C3 C 0.3704(3) 0.0189(2) 0.56181(18)
C4 C 0.3621(3) -0.1075(2) 0.49601(19)
H3 H 0.2692 -0.1808 0.4925
C5 C 0.5103(3) 0.1259(2) 0.56424(19)
H4 H 0.5185 0.2114 0.6071
O3 O 0.32180(19) -0.20388(13) 0.92290(13)
H5 H 0.2677 -0.1972 0.8529
H6 H 0.3777 -0.2586 0.9087
N1 N 0.3250(2) 0.05216(17) 1.09259(16)
C6 C 0.2132(4) 0.1215(3) 1.0619(3)
H7 H 0.1910 0.1437 0.9875
C7 C 0.1395(4) 0.1530(3) 1.1553(3)
H8 H 0.0583 0.1997 1.1570
N2 N 0.2065(3) 0.1037(2) 1.24562(19)
H9 H 0.1823 0.1095 1.3162
C8 C 0.3166(3) 0.0446(2) 1.2054(2)
H10 H 0.3804 0.0027 1.2512
Ni2 Ni 0.5000 0.0000 1.0000
O1A O 0.6160(2) -0.05801(14) 0.15227(13)
O1A_2 O 0.6160(2) -0.05801(14) 1.15227(13)
O2A O 0.8093(2) 0.13947(15) 0.27576(14)
C1A C 0.7294(3) 0.0191(2) 0.25562(18)
C2A C 0.7629(3) -0.0369(2) 0.36548(19)
H1A H 0.8852 0.0090 0.4206
H2A H 0.7479 -0.1303 0.3340
C3A C 0.6296(3) -0.0189(2) 0.43819(18)
C4A C 0.6379(3) 0.1075(2) 0.50399(19)
H3A H 0.7308 0.1808 0.5075
C5A C 0.4897(3) -0.1259(2) 0.43576(19)
H4A H 0.4815 -0.2114 0.3929
O3A O 0.67820(19) 0.20388(13) 1.07710(13)
H5A H 0.7323 0.1972 1.1471
H6A H 0.6223 0.2586 1.0913
N1A N 0.6750(2) -0.05216(17) 0.90741(16)
C6A C 0.7868(4) -0.1215(3) 0.9381(3)
H7A H 0.8090 -0.1437 1.0125
C7A C 0.8605(4) -0.1530(3) 0.8447(3)
H8A H 0.9417 -0.1997 0.8430
N2A N 0.7935(3) -0.1037(2) 0.75438(19)
H9A H 0.8177 -0.1095 0.6838
C8A C 0.6834(3) -0.0446(2) 0.7946(2)
H10A H 0.6196 -0.0027 0.7488
Ni2_2 Ni 0.5000 0.0000 0.0000
O7 O 0.1447(3) 0.22454(19) 0.47503(17)
H21 H 0.2269 0.2985 0.5181
H22 H 0.0548 0.2379 0.4310
loop_
_geom_bond_atom_site_label_1
_geom_bond_atom_site_label_2
_geom_bond_site_symmetry_1
_geom_bond_site_symmetry_2
Ni1 O5 1_555 1_555
O1 C1 1_555 1_555
O2 C1 1_555 1_555
C1 C2 1_555 1_555
C2 H1 1_555 1_555
H2 C2 1_555 1_555
C3 C2 1_555 1_555
C4 C3 1_555 1_555
H3 C4 1_555 1_555
C5 C3 1_555 1_555
H4 C5 1_555 1_555
O3 H5 1_555 1_555
H6 O3 1_555 1_555
N1 C6 1_555 1_555
C6 H7 1_555 1_555
C7 C6 1_555 1_555
H8 C7 1_555 1_555
N2 C7 1_555 1_555
H9 N2 1_555 1_555
C8 N1 1_555 1_555
H10 C8 1_555 1_555
Ni2 O1 1_555 1_555
O4 C9 1_555 1_555
O5 C9 1_555 1_555
C9 C10 1_555 1_555
C10 H11 1_555 1_555
H12 C10 1_555 1_555
C11 C10 1_555 1_555
C12 C11 1_555 1_555
H13 C12 1_555 1_555
C13 C11 1_555 1_555
H14 C13 1_555 1_555
O6 Ni1 1_555 1_555
H15 O6 1_555 1_555
H16 O6 1_555 1_555
N3 Ni1 1_555 1_555
C14 N3 1_555 1_555
H17 C14 1_555 1_555
C15 N3 1_555 1_555
H18 C15 1_555 1_555
N4 C15 1_555 1_555
H19 N4 1_555 1_555
C16 C14 1_555 1_555
H20 C16 1_555 1_555
O7 H21 1_555 1_555
H22 O7 1_555 1_555
Ni1_2 O5A 1_555 1_555
O1A C1A 1_555 1_555
O1A_2 Ni2 1_555 1_555
O2A C1A 1_555 1_555
C1A C2A 1_555 1_555
C2A H1A 1_555 1_555
H2A C2A 1_555 1_555
C3A C2A 1_555 1_555
C4A C5 1_555 1_555
H3A C4A 1_555 1_555
C5A C4 1_555 1_555
H4A C5A 1_555 1_555
O3A Ni2 1_555 1_555
H5A O3A 1_555 1_555
H6A O3A 1_555 1_555
N1A Ni2 1_555 1_555
C6A N1A 1_555 1_555
H7A C6A 1_555 1_555
C7A C6A 1_555 1_555
H8A C7A 1_555 1_555
N2A C7A 1_555 1_555
H9A N2A 1_555 1_555
C8A N1A 1_555 1_555
H10A C8A 1_555 1_555
Ni2_2 O1A 1_555 1_555
O4A C9A 1_555 1_555
O5A C9A 1_555 1_555
O5A_2 Ni1 1_555 1_555
C9A C10A 1_555 1_555
C10A H11A 1_555 1_555
H12A C10A 1_555 1_555
C11A C10A 1_555 1_555
C12A C13 1_555 1_555
H13A C12A 1_555 1_555
C13A C12 1_555 1_555
H14A C13A 1_555 1_555
O6A Ni1 1_555 1_555
H15A O6A 1_555 1_555
H16A O6A 1_555 1_555
N3A Ni1 1_555 1_555
C14A N3A 1_555 1_555
H17A C14A 1_555 1_555
C15A N3A 1_555 1_555
H18A C15A 1_555 1_555
N4A C15A 1_555 1_555
H19A N4A 1_555 1_555
C16A C14A 1_555 1_555
H20A C16A 1_555 1_555
O3 Ni2 1_555 1_555
N1 Ni2 1_555 1_555
N2 C8 1_555 1_555
N4 C16 1_555 1_555
C3A C4A 1_555 1_555
C3A C5A 1_555 1_555
N2A C8A 1_555 1_555
C11A C12A 1_555 1_555
C11A C13A 1_555 1_555
N4A C16A 1_555 1_555

#END
