
#######################################################################
#
#                 Cambridge Crystallographic Data Centre
#                                CCDC 
#
#######################################################################
#
# If this CIF has been generated from an entry in the Cambridge 
# Structural Database, then it will include bibliographic, chemical, 
# crystal, experimental, refinement or atomic coordinate data resulting 
# from the CCDC's data processing and validation procedures.
#
#######################################################################

data_ELINIX
_symmetry_cell_setting           triclinic
_symmetry_space_group_name_H-M   'P -1'
_symmetry_Int_Tables_number      2
_space_group_name_Hall           '-P 1'
loop_
_symmetry_equiv_pos_site_id
_symmetry_equiv_pos_as_xyz
1 x,y,z
2 -x,-y,-z
_cell_length_a                   7.068(2)
_cell_length_b                   7.539(2)
_cell_length_c                   9.220(3)
_cell_angle_alpha                99.508(4)
_cell_angle_beta                 103.004(5)
_cell_angle_gamma                100.944(3)
_cell_volume                     458.755
loop_
_atom_site_label
_atom_site_type_symbol
_atom_site_fract_x
_atom_site_fract_y
_atom_site_fract_z
Cu1 Cu 0.0000 0.0000 0.0000
O1 O 0.1576(3) 0.0527(3) 0.2132(2)
O2 O -0.1078(3) 0.1340(3) 0.2652(3)
C1 C 0.0641(4) 0.1165(4) 0.3055(3)
C2 C 0.1826(5) 0.1772(4) 0.4720(3)
H1 H 0.0954 0.2073 0.5350
H2 H 0.2378 0.0772 0.5039
C3 C 0.3501(4) 0.3451(4) 0.4919(3)
C4 C 0.3144(4) 0.5198(4) 0.5084(3)
H3 H 0.1886 0.5352 0.5142
C5 C 0.5378(5) 0.3281(4) 0.4835(3)
H4 H 0.5654 0.2115 0.4722
N1 N 0.1289(3) 0.2514(3) -0.0164(3)
C6 C 0.2689(4) 0.3791(4) 0.0908(3)
H5 H 0.3312 0.3609 0.1855
N2 N 0.3075(4) 0.5361(3) 0.0441(3)
H6 H 0.3928 0.6362 0.0960
C7 C 0.1902(5) 0.5126(4) -0.0991(4)
H7 H 0.1860 0.5999 -0.1594
C8 C 0.0805(5) 0.3362(4) -0.1362(3)
H8 H -0.0134 0.2806 -0.2287
Cu1_2 Cu 1.0000 1.0000 1.0000
O1A O 0.8424(3) 0.9473(3) 0.7868(2)
O1A_2 O -0.1576(3) -0.0527(3) -0.2132(2)
O2A O 1.1078(3) 0.8660(3) 0.7348(3)
O2A_2 O 0.1078(3) -0.1340(3) -0.2652(3)
C1A C 0.9359(4) 0.8835(4) 0.6945(3)
C2A C 0.8174(5) 0.8228(4) 0.5280(3)
H1A H 0.9046 0.7927 0.4650
H2A H 0.7622 0.9228 0.4961
C3A C 0.6499(4) 0.6549(4) 0.5081(3)
C4A C 0.6856(4) 0.4802(4) 0.4916(3)
H3A H 0.8114 0.4648 0.4858
C5A C 0.4622(5) 0.6719(4) 0.5165(3)
H4A H 0.4346 0.7885 0.5278
N1A N -0.1289(3) -0.2514(3) 0.0164(3)
C6A C -0.2689(4) -0.3791(4) -0.0908(3)
H5A H -0.3312 -0.3609 -0.1855
N2A N -0.3075(4) -0.5361(3) -0.0441(3)
H6A H -0.3928 -0.6362 -0.0960
C7A C -0.1902(5) -0.5126(4) 0.0991(4)
H7A H -0.1860 -0.5999 0.1594
C8A C -0.0805(5) -0.3362(4) 0.1362(3)
H8A H 0.0134 -0.2806 0.2287
O3 O 0.5000(4) 0.8996(3) 0.1935(3)
H9 H 0.4160 0.9625 0.2103
H10 H 0.6125 0.9710 0.2017
loop_
_geom_bond_atom_site_label_1
_geom_bond_atom_site_label_2
_geom_bond_site_symmetry_1
_geom_bond_site_symmetry_2
Cu1 O1 1_555 1_555
O1 C1 1_555 1_555
O2 Cu1 1_555 1_555
C1 O2 1_555 1_555
C2 C1 1_555 1_555
H1 C2 1_555 1_555
H2 C2 1_555 1_555
C3 C2 1_555 1_555
C4 C3 1_555 1_555
H3 C4 1_555 1_555
C5 C3 1_555 1_555
H4 C5 1_555 1_555
N1 Cu1 1_555 1_555
C6 N1 1_555 1_555
H5 C6 1_555 1_555
N2 C6 1_555 1_555
H6 N2 1_555 1_555
C7 N2 1_555 1_555
H7 C7 1_555 1_555
C8 N1 1_555 1_555
H8 C8 1_555 1_555
O3 H9 1_555 1_555
H10 O3 1_555 1_555
Cu1_2 O1A 1_555 1_555
O1A C1A 1_555 1_555
O1A_2 Cu1 1_555 1_555
O2A Cu1_2 1_555 1_555
O2A_2 Cu1 1_555 1_555
C1A O2A 1_555 1_555
C2A C1A 1_555 1_555
H1A C2A 1_555 1_555
H2A C2A 1_555 1_555
C3A C2A 1_555 1_555
C4A C5 1_555 1_555
H3A C4A 1_555 1_555
C5A C4 1_555 1_555
H4A C5A 1_555 1_555
N1A Cu1 1_555 1_555
C6A N1A 1_555 1_555
H5A C6A 1_555 1_555
N2A C6A 1_555 1_555
H6A N2A 1_555 1_555
C7A N2A 1_555 1_555
H7A C7A 1_555 1_555
C8A N1A 1_555 1_555
H8A C8A 1_555 1_555
C7 C8 1_555 1_555
C3A C4A 1_555 1_555
C3A C5A 1_555 1_555
C7A C8A 1_555 1_555

#END
