
#######################################################################
#
#                 Cambridge Crystallographic Data Centre
#                                CCDC 
#
#######################################################################
#
# If this CIF has been generated from an entry in the Cambridge 
# Structural Database, then it will include bibliographic, chemical, 
# crystal, experimental, refinement or atomic coordinate data resulting 
# from the CCDC's data processing and validation procedures.
#
#######################################################################

data_ELIWOM
_symmetry_cell_setting           triclinic
_symmetry_space_group_name_H-M   'P -1'
_symmetry_Int_Tables_number      2
_space_group_name_Hall           '-P 1'
loop_
_symmetry_equiv_pos_site_id
_symmetry_equiv_pos_as_xyz
1 x,y,z
2 -x,-y,-z
_cell_length_a                   9.9946(14)
_cell_length_b                   10.9526(18)
_cell_length_c                   29.179(4)
_cell_angle_alpha                94.707(8)
_cell_angle_beta                 92.716(7)
_cell_angle_gamma                94.383(8)
_cell_volume                     3169.42
loop_
_atom_site_label
_atom_site_type_symbol
_atom_site_fract_x
_atom_site_fract_y
_atom_site_fract_z
O4 O 0.6180(3) 0.8093(3) 0.26976(9)
O5 O 0.3596(3) 0.9222(3) 0.03520(9)
O6 O 0.1733(3) 0.2413(3) 0.78194(9)
O7 O 0.6711(3) 0.4195(3) 0.53314(9)
O8 O 0.4501(3) 0.1899(3) 0.03545(10)
O9 O 0.8411(3) 0.5470(3) 0.26386(10)
O10 O 0.4466(3) 0.3234(3) 0.46926(10)
O11 O 0.9489(4) 0.0913(3) 0.75107(10)
O12 O 0.1200(3) 0.5828(4) 0.24029(10)
O13 O 0.0594(4) 0.2363(4) 0.24353(12)
O14 O 0.8414(4) 0.0818(4) 0.27592(13)
O15 O 0.8328(5) 0.3424(4) 0.20354(14)
O1 O 0.0704(3) 0.1562(3) 0.49499(9)
O2 O 0.6115(3) 0.5918(2) 0.30938(9)
O3 O 0.6106(3) 0.1706(3) 0.24143(10)
O16 O -0.4290(3) 0.4056(3) 0.38711(8)
O17 O -0.3535(2) 0.3506(2) 0.31935(8)
O18 O 0.1661(3) 0.4057(3) 0.31933(8)
O19 O 0.2754(2) 0.3754(2) 0.38420(8)
O20 O 0.2942(4) -0.1264(3) 0.49665(10)
O21 O 0.3799(3) 0.2267(2) 0.30872(8)
O22 O 0.3323(3) 0.0681(2) 0.25683(8)
O23 O 0.3360(3) -0.3535(2) 0.30463(8)
O24 O 0.3862(3) -0.3759(2) 0.37728(8)
O25 O 0.0600(3) 0.3489(3) 0.00784(9)
O26 O 0.2821(2) 0.1173(2) 0.11520(8)
O27 O 0.1794(2) 0.0528(3) 0.17497(8)
O28 O -0.3332(2) 0.0177(2) 0.16820(8)
O29 O -0.4245(2) 0.1431(2) 0.12298(8)
O30 O 0.3085(4) 0.6280(3) 0.00501(9)
O31 O 0.4296(3) 0.8574(2) 0.20061(8)
O32 O 0.4069(3) 0.8908(2) 0.12772(8)
O33 O 0.4128(4) 0.4360(2) 0.24461(8)
O34 O 0.3865(4) 0.2793(2) 0.19266(9)
Sm1 Sm 0.417350(16) 0.439609(14) 0.323120(5)
Sm2 Sm 0.430239(16) 0.076265(14) 0.183243(5)
N1 N -0.0652(3) 0.3134(3) 0.50204(10)
H1 H -0.1069 0.3618 0.5212
N2 N -0.0178(4) 0.1715(4) 0.66184(11)
N3 N 0.3475(3) 0.0465(3) 0.46213(9)
H2 H 0.3679 0.1262 0.4674
N4 N 0.3299(4) 0.1581(5) 0.63355(13)
H3 H 0.334(6) 0.185(5) 0.660(2)
N5 N -0.0941(3) 0.1848(3) -0.00199(10)
H4 H -0.1482 0.1380 -0.0220
N6 N -0.0844(3) 0.3534(3) -0.15531(11)
H5 H -0.099(5) 0.373(4) -0.1791(16)
N7 N 0.3628(3) 0.4611(3) 0.04049(9)
H6 H 0.3782 0.3832 0.0355
N8 N 0.2629(3) 0.3191(3) -0.13015(11)
C1 C -0.0699(4) 0.3323(3) 0.45458(12)
C2 C -0.1930(4) 0.3450(3) 0.43245(12)
H7 H -0.2721 0.3439 0.4493
C3 C -0.2010(3) 0.3595(3) 0.38534(12)
C4 C -0.0856(3) 0.3651(3) 0.36081(11)
H8 H -0.0910 0.3733 0.3286
C5 C 0.0382(3) 0.3587(3) 0.38392(12)
C6 C 0.0458(3) 0.3402(3) 0.43059(11)
H9 H 0.1305 0.3330 0.4459
C7 C 0.0023(4) 0.2220(3) 0.51839(12)
C8 C -0.0165(4) 0.2838(4) 0.64729(13)
H10 H -0.0177 0.3521 0.6695
C9 C -0.0136(4) 0.3053(4) 0.60122(13)
H11 H -0.0143 0.3865 0.5921
C10 C -0.0096(3) 0.2062(4) 0.56860(12)
C11 C -0.0094(4) 0.0898(4) 0.58330(13)
H12 H -0.0059 0.0200 0.5619
C12 C -0.0145(4) 0.0775(4) 0.63020(14)
H13 H -0.0157 -0.0029 0.6403
C13 C -0.3360(3) 0.3714(3) 0.36219(12)
C14 C 0.1675(3) 0.3797(3) 0.36087(12)
C15 C 0.3463(3) -0.0046(3) 0.41564(11)
C16 C 0.3470(3) 0.0756(3) 0.38106(11)
H14 H 0.3479 0.1616 0.3888
C17 C 0.3464(3) 0.0294(3) 0.33510(11)
C18 C 0.3430(3) -0.0956(3) 0.32346(11)
H15 H 0.3386 -0.1269 0.2920
C19 C 0.3461(3) -0.1749(3) 0.35789(11)
C20 C 0.3478(3) -0.1302(3) 0.40398(11)
H16 H 0.3500 -0.1854 0.4274
C21 C 0.3203(4) -0.0163(3) 0.49864(12)
C22 C 0.3356(4) 0.2314(5) 0.59947(16)
H17 H 0.3419 0.3181 0.6061
C23 C 0.3323(4) 0.1804(4) 0.55398(14)
H18 H 0.3354 0.2317 0.5293
C24 C 0.3244(4) 0.0542(4) 0.54556(12)
C25 C 0.3174(4) -0.0164(5) 0.58271(13)
H19 H 0.3107 -0.1035 0.5776
C26 C 0.3198(5) 0.0374(6) 0.62665(14)
H20 H 0.3142 -0.0117 0.6520
C27 C 0.3532(3) 0.1153(3) 0.29749(11)
C28 C 0.3540(3) -0.3094(3) 0.34567(11)
C29 C -0.0839(3) 0.1550(3) 0.04442(11)
C30 C 0.0392(3) 0.1422(3) 0.06667(12)
H21 H 0.1201 0.1569 0.0515
C31 C 0.0431(3) 0.1075(3) 0.11163(12)
C32 C -0.0750(3) 0.0849(3) 0.13389(11)
H22 H -0.0718 0.0586 0.1641
C33 C -0.1976(3) 0.1008(3) 0.11172(11)
C34 C -0.2008(4) 0.1366(3) 0.06699(12)
H23 H -0.2845 0.1485 0.0519
C35 C -0.0233(4) 0.2826(3) -0.01628(12)
C36 C -0.0573(4) 0.4467(4) -0.12328(13)
H24 H -0.0510 0.5286 -0.1319
C37 C -0.0382(4) 0.4254(4) -0.07756(13)
H25 H -0.0177 0.4917 -0.0546
C38 C -0.0497(3) 0.3057(3) -0.06597(12)
C39 C -0.0795(4) 0.2111(4) -0.10003(12)
H26 H -0.0891 0.1284 -0.0924
C40 C -0.0952(4) 0.2375(4) -0.14526(13)
H27 H -0.1136 0.1730 -0.1690
C41 C 0.1769(3) 0.0924(3) 0.13509(12)
C42 C -0.3252(4) 0.0854(3) 0.13587(12)
C43 C 0.3774(3) 0.5130(3) 0.08679(11)
C44 C 0.3909(3) 0.6391(3) 0.09881(11)
H28 H 0.3889 0.6951 0.0756
C45 C 0.4075(3) 0.6827(3) 0.14538(11)
C46 C 0.4098(3) 0.6022(3) 0.17945(11)
H29 H 0.4209 0.6324 0.2110
C47 C 0.3957(3) 0.4772(3) 0.16712(11)
C48 C 0.3791(4) 0.4319(3) 0.12096(11)
H30 H 0.3688 0.3457 0.1129
C49 C 0.3272(4) 0.5201(3) 0.00316(11)
C50 C 0.2738(4) 0.4407(4) -0.12416(13)
H31 H 0.2651 0.4853 -0.1506
C51 C 0.2969(4) 0.5066(4) -0.08158(12)
H32 H 0.3027 0.5939 -0.0792
C52 C 0.3116(3) 0.4440(3) -0.04250(11)
C53 C 0.3051(4) 0.3168(3) -0.04840(12)
H33 H 0.3173 0.2699 -0.0228
C54 C 0.2804(4) 0.2593(4) -0.09243(13)
H34 H 0.2755 0.1720 -0.0960
C55 C 0.4163(3) 0.8174(3) 0.15858(11)
C56 C 0.3989(4) 0.3901(3) 0.20404(11)
O16_2 O 0.5710(3) 0.4056(3) 0.38711(8)
O17_2 O 0.6465(2) 0.3506(2) 0.31935(8)
O23_2 O 0.3360(3) 0.6465(2) 0.30463(8)
O24_2 O 0.3862(3) 0.6241(2) 0.37728(8)
O28_2 O 0.6668(2) 0.0177(2) 0.16820(8)
O29_2 O 0.5755(2) 0.1431(2) 0.12298(8)
O31_2 O 0.4296(3) -0.1426(2) 0.20061(8)
O32_2 O 0.4069(3) -0.1092(2) 0.12772(8)
Sm1_2 Sm -0.582650(16) 0.439609(14) 0.323120(5)
Sm1_3 Sm 0.417350(16) -0.560391(14) 0.323120(5)
Sm2_2 Sm -0.569761(16) 0.076265(14) 0.183243(5)
Sm2_3 Sm 0.430239(16) 1.076265(14) 0.183243(5)
loop_
_geom_bond_atom_site_label_1
_geom_bond_atom_site_label_2
_geom_bond_site_symmetry_1
_geom_bond_site_symmetry_2
O1 C7 1_555 1_555
O2 Sm1 1_555 1_555
O3 Sm2 1_555 1_555
O16 C13 1_555 1_555
O17 C13 1_555 1_555
O18 Sm1 1_555 1_555
O19 Sm1 1_555 1_555
O20 C21 1_555 1_555
O21 Sm1 1_555 1_555
O22 Sm2 1_555 1_555
O23 C28 1_555 1_555
O24 C28 1_555 1_555
O25 C35 1_555 1_555
O26 Sm2 1_555 1_555
O27 Sm2 1_555 1_555
O28 C42 1_555 1_555
O29 C42 1_555 1_555
O30 C49 1_555 1_555
O31 C55 1_555 1_555
O32 C55 1_555 1_555
O33 Sm1 1_555 1_555
O34 Sm2 1_555 1_555
Sm1 O16_2 1_555 1_555
Sm2 O28_2 1_555 1_555
N1 H1 1_555 1_555
N2 C8 1_555 1_555
N3 H2 1_555 1_555
N4 H3 1_555 1_555
N5 H4 1_555 1_555
N6 H5 1_555 1_555
N7 H6 1_555 1_555
N8 C50 1_555 1_555
C1 N1 1_555 1_555
C2 C1 1_555 1_555
H7 C2 1_555 1_555
C3 C2 1_555 1_555
C4 C3 1_555 1_555
H8 C4 1_555 1_555
C5 C4 1_555 1_555
C6 C1 1_555 1_555
H9 C6 1_555 1_555
C7 N1 1_555 1_555
C8 H10 1_555 1_555
C9 C8 1_555 1_555
H11 C9 1_555 1_555
C10 C7 1_555 1_555
C11 C10 1_555 1_555
H12 C11 1_555 1_555
C12 N2 1_555 1_555
H13 C12 1_555 1_555
C13 C3 1_555 1_555
C14 O18 1_555 1_555
C15 N3 1_555 1_555
C16 C15 1_555 1_555
H14 C16 1_555 1_555
C17 C16 1_555 1_555
C18 C17 1_555 1_555
H15 C18 1_555 1_555
C19 C18 1_555 1_555
C20 C15 1_555 1_555
H16 C20 1_555 1_555
C21 N3 1_555 1_555
C22 N4 1_555 1_555
H17 C22 1_555 1_555
C23 C22 1_555 1_555
H18 C23 1_555 1_555
C24 C21 1_555 1_555
C25 C24 1_555 1_555
H19 C25 1_555 1_555
C26 N4 1_555 1_555
H20 C26 1_555 1_555
C27 O21 1_555 1_555
C28 C19 1_555 1_555
C29 N5 1_555 1_555
C30 C29 1_555 1_555
H21 C30 1_555 1_555
C31 C30 1_555 1_555
C32 C31 1_555 1_555
H22 C32 1_555 1_555
C33 C32 1_555 1_555
C34 C29 1_555 1_555
H23 C34 1_555 1_555
C35 N5 1_555 1_555
C36 N6 1_555 1_555
H24 C36 1_555 1_555
C37 C36 1_555 1_555
H25 C37 1_555 1_555
C38 C35 1_555 1_555
C39 C38 1_555 1_555
H26 C39 1_555 1_555
C40 N6 1_555 1_555
H27 C40 1_555 1_555
C41 O26 1_555 1_555
C42 C33 1_555 1_555
C43 N7 1_555 1_555
C44 C43 1_555 1_555
H28 C44 1_555 1_555
C45 C44 1_555 1_555
C46 C45 1_555 1_555
H29 C46 1_555 1_555
C47 C46 1_555 1_555
C48 C43 1_555 1_555
H30 C48 1_555 1_555
C49 N7 1_555 1_555
C50 H31 1_555 1_555
C51 C50 1_555 1_555
H32 C51 1_555 1_555
C52 C49 1_555 1_555
C53 C52 1_555 1_555
H33 C53 1_555 1_555
C54 N8 1_555 1_555
H34 C54 1_555 1_555
C55 C45 1_555 1_555
C56 O33 1_555 1_555
O17_2 Sm1 1_555 1_555
O23_2 Sm1 1_555 1_555
O24_2 Sm1 1_555 1_555
O29_2 Sm2 1_555 1_555
O31_2 Sm2 1_555 1_555
O32_2 Sm2 1_555 1_555
Sm1_2 O16 1_555 1_555
Sm1_3 O23 1_555 1_555
Sm2_2 O28 1_555 1_555
Sm2_3 O31 1_555 1_555
O17 Sm1_2 1_555 1_555
O19 C14 1_555 1_555
O22 C27 1_555 1_555
O24 Sm1_3 1_555 1_555
O27 C41 1_555 1_555
O29 Sm2_2 1_555 1_555
O32 Sm2_3 1_555 1_555
O34 C56 1_555 1_555
C5 C6 1_555 1_555
C5 C14 1_555 1_555
C9 C10 1_555 1_555
C11 C12 1_555 1_555
C17 C27 1_555 1_555
C19 C20 1_555 1_555
C23 C24 1_555 1_555
C25 C26 1_555 1_555
C31 C41 1_555 1_555
C33 C34 1_555 1_555
C37 C38 1_555 1_555
C39 C40 1_555 1_555
C47 C48 1_555 1_555
C47 C56 1_555 1_555
C51 C52 1_555 1_555
C53 C54 1_555 1_555

#END
