
#######################################################################
#
#                 Cambridge Crystallographic Data Centre
#                                CCDC 
#
#######################################################################
#
# If this CIF has been generated from an entry in the Cambridge 
# Structural Database, then it will include bibliographic, chemical, 
# crystal, experimental, refinement or atomic coordinate data resulting 
# from the CCDC's data processing and validation procedures.
#
#######################################################################

data_ELIWUS
_symmetry_cell_setting           triclinic
_symmetry_space_group_name_H-M   'P -1'
_symmetry_Int_Tables_number      2
_space_group_name_Hall           '-P 1'
loop_
_symmetry_equiv_pos_site_id
_symmetry_equiv_pos_as_xyz
1 x,y,z
2 -x,-y,-z
_cell_length_a                   10.9510(12)
_cell_length_b                   14.8406(16)
_cell_length_c                   26.180(3)
_cell_angle_alpha                79.201(2)
_cell_angle_beta                 82.2570(10)
_cell_angle_gamma                74.659(2)
_cell_volume                     4014.17
loop_
_atom_site_label
_atom_site_type_symbol
_atom_site_fract_x
_atom_site_fract_y
_atom_site_fract_z
Tb1 Tb 0.61441(5) 0.10108(4) 0.54311(2)
Tb2 Tb 0.58223(5) 0.57278(4) 0.22333(2)
Tb3 Tb 0.66202(6) 0.63465(4) -0.14714(3)
C1 C 0.4804(11) 0.5041(8) 0.3855(4)
C2 C 0.5202(10) 0.4117(8) 0.4120(4)
H1 H 0.5799 0.3672 0.3950
C3 C 0.4744(11) 0.3850(8) 0.4616(4)
C4 C 0.3859(10) 0.4480(8) 0.4886(4)
H2 H 0.3557 0.4291 0.5228
C5 C 0.3432(11) 0.5391(8) 0.4641(4)
C6 C 0.3905(10) 0.5684(8) 0.4139(4)
H3 H 0.3629 0.6312 0.3985
C7 C 0.5229(11) 0.5328(8) 0.3321(5)
C8 C 0.5214(11) 0.2871(8) 0.4893(5)
C9 C 0.1455(12) 0.5835(9) 0.5190(5)
C10 C 0.0499(12) 0.6658(9) 0.5365(5)
C11 C -0.0777(12) 0.6630(9) 0.5388(5)
H4 H -0.0993 0.6124 0.5291
C12 C -0.1713(13) 0.7373(9) 0.5559(5)
H5 H -0.2561 0.7356 0.5577
C13 C -0.0252(13) 0.8118(9) 0.5692(5)
H6 H -0.0065 0.8608 0.5818
C14 C 0.0728(12) 0.7443(8) 0.5511(5)
H7 H 0.1556 0.7511 0.5485
C15 C 0.9686(11) 0.1436(8) 0.5750(5)
C16 C 1.0823(10) 0.0861(8) 0.5593(4)
H8 H 1.0839 0.0334 0.5446
C17 C 1.1978(11) 0.1075(8) 0.5658(5)
C18 C 1.1926(11) 0.1895(7) 0.5852(4)
H9 H 1.2673 0.2064 0.5877
C19 C 1.0761(11) 0.2463(8) 0.6007(5)
C20 C 0.9624(11) 0.2238(8) 0.5965(4)
H10 H 0.8846 0.2613 0.6077
C21 C 0.8478(11) 0.1259(8) 0.5633(5)
C22 C 1.3190(11) 0.0507(8) 0.5449(5)
C23 C 0.9750(12) 0.4026(8) 0.6267(5)
C24 C 0.9912(12) 0.4861(8) 0.6479(5)
C25 C 1.1059(12) 0.5056(8) 0.6516(5)
H11 H 1.1820 0.4656 0.6407
C26 C 1.1058(12) 0.5843(8) 0.6713(5)
H12 H 1.1825 0.5972 0.6750
C27 C 0.8815(12) 0.6276(8) 0.6831(5)
H13 H 0.8066 0.6678 0.6948
C28 C 0.8818(12) 0.5475(8) 0.6619(5)
H14 H 0.8046 0.5363 0.6574
C29 C 0.1558(11) 0.6093(8) 0.2294(5)
C30 C 0.0446(11) 0.5862(8) 0.2226(5)
H15 H 0.0488 0.5307 0.2101
C31 C -0.0730(11) 0.6462(8) 0.2347(5)
C32 C -0.0807(12) 0.7318(8) 0.2505(5)
H16 H -0.1592 0.7719 0.2586
C33 C 0.0326(12) 0.7563(8) 0.2541(5)
C34 C 0.1493(11) 0.6949(8) 0.2439(5)
H17 H 0.2237 0.7118 0.2469
C35 C 0.2829(12) 0.5429(9) 0.2192(5)
C36 C -0.1924(12) 0.6203(9) 0.2301(5)
C37 C -0.0630(14) 0.9140(9) 0.2787(6)
C38 C -0.0380(14) 1.0054(10) 0.2883(6)
C39 C 0.0773(15) 1.0130(10) 0.2966(6)
H18 H 0.1465 0.9606 0.2982
C40 C 0.0912(16) 1.1023(10) 0.3028(6)
H19 H 0.1706 1.1074 0.3090
C41 C -0.1158(15) 1.1692(10) 0.2911(6)
H20 H -0.1838 1.2224 0.2882
C42 C -0.1336(15) 1.0843(10) 0.2858(6)
H21 H -0.2141 1.0806 0.2802
C43 C 0.4913(13) 0.7585(9) 0.0792(5)
C44 C 0.5269(12) 0.7177(9) 0.0350(5)
H22 H 0.5727 0.6550 0.0363
C45 C 0.4914(13) 0.7745(9) -0.0121(5)
C46 C 0.4202(12) 0.8677(9) -0.0146(5)
H23 H 0.3979 0.9052 -0.0462
C47 C 0.3837(13) 0.9023(9) 0.0329(5)
C48 C 0.4181(13) 0.8524(9) 0.0798(5)
H24 H 0.3951 0.8782 0.1104
C49 C 0.5257(13) 0.6968(9) 0.1284(5)
C50 C 0.5353(13) 0.7350(10) -0.0623(5)
C51 C 0.2027(14) 1.0343(10) 0.0071(6)
C52 C 0.1297(15) 1.1320(10) 0.0150(6)
C53 C 0.1859(15) 1.1983(10) 0.0216(5)
H25 H 0.2732 1.1846 0.0237
C54 C 0.1102(16) 1.2873(10) 0.0252(6)
H26 H 0.1494 1.3344 0.0279
C55 C -0.0730(16) 1.2405(10) 0.0214(6)
H27 H -0.1611 1.2529 0.0229
C56 C 0.0004(15) 1.1514(10) 0.0155(6)
H28 H -0.0381 1.1044 0.0119
C57 C 0.7685(12) 0.2967(9) 0.1702(5)
C58 C 0.8819(11) 0.3186(8) 0.1744(5)
H29 H 0.8784 0.3767 0.1837
C59 C 0.9975(12) 0.2595(9) 0.1656(5)
C60 C 1.0066(12) 0.1713(9) 0.1525(5)
H30 H 1.0861 0.1314 0.1459
C61 C 0.8972(12) 0.1424(9) 0.1492(5)
C62 C 0.7797(12) 0.2084(8) 0.1574(5)
H31 H 0.7056 0.1915 0.1539
C63 C 0.6453(12) 0.3597(9) 0.1784(5)
C64 C 1.1169(12) 0.2904(9) 0.1664(5)
C65 C 0.9956(15) -0.0217(10) 0.1378(6)
C66 C 0.9728(14) -0.1131(10) 0.1266(5)
C67 C 1.0736(15) -0.1848(10) 0.1172(5)
H32 H 1.1552 -0.1770 0.1169
C68 C 1.0591(15) -0.2680(10) 0.1081(5)
H33 H 1.1297 -0.3178 0.1036
C69 C 0.8394(15) -0.2094(10) 0.1164(5)
H34 H 0.7582 -0.2181 0.1169
C70 C 0.8534(14) -0.1245(10) 0.1269(5)
H35 H 0.7825 -0.0764 0.1340
N1 N 0.2462(9) 0.6066(6) 0.4890(3)
H36 H 0.2524 0.6641 0.4846
N2 N -0.1435(12) 0.8109(7) 0.5698(4)
N3 N 1.0744(9) 0.3309(6) 0.6197(4)
H37 H 1.1460 0.3359 0.6274
N4 N 0.9962(10) 0.6427(7) 0.6854(4)
H38 H 0.9991 0.6929 0.6966
N5 N 0.0335(10) 0.8441(7) 0.2686(4)
H39 H 0.1074 0.8523 0.2709
N6 N -0.0028(13) 1.1776(7) 0.3002(5)
N7 N 0.3076(12) 0.9953(8) 0.0337(5)
H40 H 0.3291 1.0297 0.0523
N8 N -0.0169(13) 1.3104(8) 0.0251(5)
N9 N 0.9000(10) 0.0529(7) 0.1389(4)
H41 H 0.8285 0.0457 0.1324
N10 N 0.9396(14) -0.2782(8) 0.1057(4)
O1 O 0.4831(8) 0.6161(6) 0.3085(3)
O2 O 0.5962(8) 0.4730(6) 0.3065(3)
O3 O 0.5971(8) 0.2242(5) 0.4660(3)
O4 O 0.4855(8) 0.2634(5) 0.5359(3)
O5 O 0.1304(8) 0.5049(6) 0.5325(4)
O6 O 0.7512(8) 0.1956(6) 0.5608(3)
O7 O 0.8411(7) 0.0475(6) 0.5562(4)
O8 O 1.3193(8) -0.0222(6) 0.5272(3)
O9 O 1.4167(7) 0.0785(6) 0.5456(3)
O10 O 0.8696(9) 0.4010(6) 0.6194(4)
O11 O 0.3798(8) 0.5694(6) 0.2224(4)
O12 O 0.2862(7) 0.4628(6) 0.2097(3)
O13 O -0.1903(8) 0.5508(6) 0.2096(3)
O14 O -0.2964(8) 0.6682(6) 0.2489(3)
O15 O -0.1749(10) 0.9131(7) 0.2777(5)
O16 O 0.5013(9) 0.7307(6) 0.1727(3)
O17 O 0.5795(9) 0.6092(6) 0.1311(3)
O18 O 0.5923(10) 0.6496(7) -0.0594(4)
O19 O 0.5151(9) 0.7865(7) -0.1057(3)
O20 O 0.1750(10) 0.9906(7) -0.0236(4)
O21 O 0.6374(8) 0.4288(6) 0.2006(4)
O22 O 0.5503(10) 0.3428(7) 0.1656(4)
O23 O 1.1168(8) 0.3577(6) 0.1874(4)
O24 O 1.2218(9) 0.2477(6) 0.1433(4)
O25 O 1.1069(11) -0.0206(7) 0.1432(5)
O26 O 0.6414(8) -0.0562(5) 0.5885(3)
O27 O 0.5506(9) 0.1201(6) 0.6325(3)
O28 O 0.8210(9) 0.5369(6) -0.0903(3)
O29 O 0.5989(10) 0.4869(7) -0.1037(4)
O30 O 0.6185(10) 0.7527(6) -0.2256(4)
O8A O 0.6807(8) 0.0222(6) 0.4728(3)
O9_2 O 0.4167(7) 0.0785(6) 0.5456(3)
O13_2 O 0.8097(8) 0.5508(6) 0.2096(3)
O14_2 O 0.7036(8) 0.6682(6) 0.2489(3)
O12A O 0.7138(7) 0.5372(6) -0.2097(3)
O23A O 0.8832(8) 0.6423(6) -0.1874(4)
O22A O 0.4497(10) 0.6572(7) -0.1656(4)
O24A O 0.7782(9) 0.7523(6) -0.1433(4)
Tb1A Tb 1.38559(5) -0.10108(4) 0.45689(2)
Tb1_2 Tb 1.61441(5) 0.10108(4) 0.54311(2)
Tb3A Tb 0.33798(6) 0.36535(4) 0.14714(3)
Tb2_2 Tb -0.41777(5) 0.57278(4) 0.22333(2)
Tb3A_2 Tb 1.33798(6) 0.36535(4) 0.14714(3)
loop_
_geom_bond_atom_site_label_1
_geom_bond_atom_site_label_2
_geom_bond_site_symmetry_1
_geom_bond_site_symmetry_2
Tb1 O3 1_555 1_555
Tb2 O1 1_555 1_555
Tb3 O18 1_555 1_555
C1 C2 1_555 1_555
C2 H1 1_555 1_555
C3 C2 1_555 1_555
C4 C3 1_555 1_555
H2 C4 1_555 1_555
C5 C4 1_555 1_555
C6 C1 1_555 1_555
H3 C6 1_555 1_555
C7 C1 1_555 1_555
C8 C3 1_555 1_555
C9 C10 1_555 1_555
C10 C11 1_555 1_555
C11 H4 1_555 1_555
C12 C11 1_555 1_555
H5 C12 1_555 1_555
C13 H6 1_555 1_555
C14 C10 1_555 1_555
H7 C14 1_555 1_555
C15 C16 1_555 1_555
C16 H8 1_555 1_555
C17 C16 1_555 1_555
C18 C17 1_555 1_555
H9 C18 1_555 1_555
C19 C18 1_555 1_555
C20 C15 1_555 1_555
H10 C20 1_555 1_555
C21 C15 1_555 1_555
C22 C17 1_555 1_555
C23 C24 1_555 1_555
C24 C25 1_555 1_555
C25 H11 1_555 1_555
C26 C25 1_555 1_555
H12 C26 1_555 1_555
C27 H13 1_555 1_555
C28 C24 1_555 1_555
H14 C28 1_555 1_555
C29 C30 1_555 1_555
C30 H15 1_555 1_555
C31 C30 1_555 1_555
C32 C31 1_555 1_555
H16 C32 1_555 1_555
C33 C32 1_555 1_555
C34 C29 1_555 1_555
H17 C34 1_555 1_555
C35 C29 1_555 1_555
C36 C31 1_555 1_555
C37 C38 1_555 1_555
C38 C39 1_555 1_555
C39 H18 1_555 1_555
C40 C39 1_555 1_555
H19 C40 1_555 1_555
C41 H20 1_555 1_555
C42 C38 1_555 1_555
H21 C42 1_555 1_555
C43 C44 1_555 1_555
C44 H22 1_555 1_555
C45 C44 1_555 1_555
C46 C45 1_555 1_555
H23 C46 1_555 1_555
C47 C46 1_555 1_555
C48 C43 1_555 1_555
H24 C48 1_555 1_555
C49 C43 1_555 1_555
C50 C45 1_555 1_555
C51 C52 1_555 1_555
C52 C53 1_555 1_555
C53 H25 1_555 1_555
C54 C53 1_555 1_555
H26 C54 1_555 1_555
C55 H27 1_555 1_555
C56 C52 1_555 1_555
H28 C56 1_555 1_555
C57 C58 1_555 1_555
C58 H29 1_555 1_555
C59 C58 1_555 1_555
C60 C59 1_555 1_555
H30 C60 1_555 1_555
C61 C60 1_555 1_555
C62 C57 1_555 1_555
H31 C62 1_555 1_555
C63 C57 1_555 1_555
C64 C59 1_555 1_555
C65 C66 1_555 1_555
C66 C67 1_555 1_555
C67 H32 1_555 1_555
C68 C67 1_555 1_555
H33 C68 1_555 1_555
C69 H34 1_555 1_555
C70 C66 1_555 1_555
H35 C70 1_555 1_555
N1 C5 1_555 1_555
H36 N1 1_555 1_555
N2 C12 1_555 1_555
N3 C19 1_555 1_555
H37 N3 1_555 1_555
N4 C26 1_555 1_555
H38 N4 1_555 1_555
N5 C33 1_555 1_555
H39 N5 1_555 1_555
N6 C40 1_555 1_555
N7 C47 1_555 1_555
H40 N7 1_555 1_555
N8 C54 1_555 1_555
N9 C61 1_555 1_555
H41 N9 1_555 1_555
N10 C68 1_555 1_555
O1 C7 1_555 1_555
O2 Tb2 1_555 1_555
O3 C8 1_555 1_555
O4 Tb1 1_555 1_555
O5 C9 1_555 1_555
O6 Tb1 1_555 1_555
O7 Tb1 1_555 1_555
O8 C22 1_555 1_555
O9 C22 1_555 1_555
O10 C23 1_555 1_555
O11 Tb2 1_555 1_555
O12 C35 1_555 1_555
O13 C36 1_555 1_555
O14 C36 1_555 1_555
O15 C37 1_555 1_555
O16 Tb2 1_555 1_555
O17 Tb2 1_555 1_555
O18 C50 1_555 1_555
O19 Tb3 1_555 1_555
O20 C51 1_555 1_555
O21 Tb2 1_555 1_555
O22 C63 1_555 1_555
O23 C64 1_555 1_555
O24 C64 1_555 1_555
O25 C65 1_555 1_555
O26 Tb1 1_555 1_555
O27 Tb1 1_555 1_555
O28 Tb3 1_555 1_555
O29 Tb3 1_555 1_555
O30 Tb3 1_555 1_555
O8A Tb1 1_555 1_555
O9_2 Tb1 1_555 1_555
O13_2 Tb2 1_555 1_555
O14_2 Tb2 1_555 1_555
O12A Tb3 1_555 1_555
O23A Tb3 1_555 1_555
O22A Tb3 1_555 1_555
O24A Tb3 1_555 1_555
Tb1A O8 1_555 1_555
Tb1_2 O9 1_555 1_555
Tb3A O12 1_555 1_555
Tb2_2 O13 1_555 1_555
Tb3A_2 O23 1_555 1_555
C5 C6 1_555 1_555
C7 O2 1_555 1_555
C8 O4 1_555 1_555
C9 N1 1_555 1_555
C13 N2 1_555 1_555
C13 C14 1_555 1_555
C19 C20 1_555 1_555
C21 O6 1_555 1_555
C21 O7 1_555 1_555
C23 N3 1_555 1_555
C27 N4 1_555 1_555
C27 C28 1_555 1_555
C33 C34 1_555 1_555
C35 O11 1_555 1_555
C37 N5 1_555 1_555
C41 N6 1_555 1_555
C41 C42 1_555 1_555
C47 C48 1_555 1_555
C49 O16 1_555 1_555
C49 O17 1_555 1_555
C50 O19 1_555 1_555
C51 N7 1_555 1_555
C55 N8 1_555 1_555
C55 C56 1_555 1_555
C61 C62 1_555 1_555
C63 O21 1_555 1_555
C65 N9 1_555 1_555
C69 N10 1_555 1_555
C69 C70 1_555 1_555
O14 Tb2_2 1_555 1_555
O22 Tb3A 1_555 1_555
O24 Tb3A_2 1_555 1_555

#END
