
#######################################################################
#
#                 Cambridge Crystallographic Data Centre
#                                CCDC 
#
#######################################################################
#
# If this CIF has been generated from an entry in the Cambridge 
# Structural Database, then it will include bibliographic, chemical, 
# crystal, experimental, refinement or atomic coordinate data resulting 
# from the CCDC's data processing and validation procedures.
#
#######################################################################

data_ELIWIG
_symmetry_cell_setting           triclinic
_symmetry_space_group_name_H-M   'P -1'
_symmetry_Int_Tables_number      2
_space_group_name_Hall           '-P 1'
loop_
_symmetry_equiv_pos_site_id
_symmetry_equiv_pos_as_xyz
1 x,y,z
2 -x,-y,-z
_cell_length_a                   9.6617(8)
_cell_length_b                   10.6352(9)
_cell_length_c                   15.9038(13)
_cell_angle_alpha                81.684(2)
_cell_angle_beta                 78.6570(10)
_cell_angle_gamma                64.3500(10)
_cell_volume                     1441.09
loop_
_atom_site_label
_atom_site_type_symbol
_atom_site_fract_x
_atom_site_fract_y
_atom_site_fract_z
La1 La 0.271584(19) 0.539660(18) -0.003779(12)
C1 C 0.1062(4) 0.2892(4) 0.0576(2)
C2 C 0.2359(4) 0.1485(4) 0.0725(2)
C3 C 0.3607(4) 0.1396(4) 0.1062(2)
H1 H 0.3649 0.2206 0.1186
C4 C 0.4802(4) 0.0105(4) 0.1218(3)
C5 C 0.4793(4) -0.1101(4) 0.1003(3)
H2 H 0.5599 -0.1965 0.1107
C6 C 0.3566(4) -0.1009(4) 0.0630(2)
C7 C 0.2325(4) 0.0285(4) 0.0509(2)
H3 H 0.1481 0.0339 0.0285
C8 C 0.6558(5) -0.0573(5) 0.2283(3)
C9 C 0.7754(5) -0.0243(5) 0.2578(3)
C10 C 0.8519(5) 0.0499(5) 0.2058(3)
H4 H 0.8384 0.0760 0.1486
C11 C 0.9496(6) 0.0838(6) 0.2428(3)
H5 H 0.9994 0.1355 0.2091
C12 C 0.9043(5) -0.0269(5) 0.3711(3)
H6 H 0.9228 -0.0546 0.4276
C13 C 0.8035(5) -0.0642(5) 0.3407(3)
H7 H 0.7554 -0.1158 0.3762
C14 C 0.3606(4) -0.2263(4) 0.0286(3)
C15 C 0.4899(4) 0.3996(4) 0.1775(2)
C16 C 0.4673(4) 0.3376(4) 0.2681(2)
C17 C 0.5608(5) 0.3293(4) 0.3263(3)
H8 H 0.6333 0.3675 0.3112
C18 C 0.5457(5) 0.2639(4) 0.4072(3)
C19 C 0.4489(5) 0.1948(5) 0.4267(3)
H9 H 0.4466 0.1429 0.4789
C20 C 0.3554(5) 0.2034(4) 0.3681(3)
C21 C 0.3598(5) 0.2798(4) 0.2903(3)
H10 H 0.2912 0.2923 0.2530
C22 C 0.6746(5) 0.3553(5) 0.4850(3)
C23 C 0.7327(5) 0.3400(5) 0.5684(3)
C24 C 0.8360(6) 0.3971(6) 0.5714(3)
H11 H 0.8718 0.4404 0.5225
C25 C 0.8845(7) 0.3881(6) 0.6488(4)
H12 H 0.9563 0.4240 0.6502
C26 C 0.7363(7) 0.2784(6) 0.7174(3)
H13 H 0.7018 0.2373 0.7678
C27 C 0.6810(6) 0.2800(6) 0.6431(3)
H14 H 0.6108 0.2415 0.6437
C28 C 0.2569(6) 0.1234(5) 0.3875(3)
N1 N 0.6075(4) 0.0102(4) 0.1551(2)
H15 H 0.6564 0.0571 0.1257
N2 N 0.9753(4) 0.0464(5) 0.3233(3)
N3 N 0.6296(4) 0.2578(4) 0.4726(2)
H16 H 0.6537 0.1845 0.5076
N4 N 0.8356(5) 0.3322(5) 0.7205(3)
O1 O 0.1283(3) 0.3960(3) 0.06333(19)
O2 O -0.0155(3) 0.2913(3) 0.0420(2)
O3 O 0.2575(4) -0.2090(3) -0.0144(3)
O4 O 0.4668(3) -0.3443(3) 0.0414(2)
O5 O 0.6037(5) -0.1350(5) 0.2708(3)
O6 O 0.3843(3) 0.4300(3) 0.13337(18)
O7 O 0.6149(3) 0.4112(3) 0.15197(18)
O8 O 0.2785(5) 0.0273(4) 0.4412(2)
O9 O 0.1487(5) 0.1680(5) 0.3401(3)
H17 H 0.1046 0.1132 0.3432
O10 O 0.6663(5) 0.4560(4) 0.4346(2)
O11 O 0.2009(3) 0.4287(3) -0.1150(2)
H18 H 0.1914 0.4753 -0.1633
H19 H 0.1218 0.4114 -0.0962
O12 O 0.0830(4) 0.6693(4) 0.1255(2)
H20 H 0.0744 0.7476 0.0998
H21 H 0.1296 0.6789 0.1625
La1A La -0.271584(19) 0.460340(18) 0.003779(12)
La1_2 La 0.271584(19) -0.460340(18) -0.003779(12)
La1A_2 La 0.728416(19) -0.539660(18) 0.003779(12)
La1A_3 La 0.728416(19) 0.460340(18) 0.003779(12)
O2A O 0.0155(3) 0.7087(3) -0.0420(2)
O3_2 O 0.2575(4) 0.7910(3) -0.0144(3)
O4A O 0.5332(3) 0.3443(3) -0.0414(2)
O4_2 O 0.4668(3) 0.6557(3) 0.0414(2)
O7A O 0.3851(3) 0.5888(3) -0.15197(18)
O13 O 0.2110(8) 0.4265(7) 0.7105(4)
H22 H 0.2706 0.3398 0.7137
H23 H 0.2537 0.4708 0.6742
loop_
_geom_bond_atom_site_label_1
_geom_bond_atom_site_label_2
_geom_bond_site_symmetry_1
_geom_bond_site_symmetry_2
La1 O1 1_555 1_555
C1 C2 1_555 1_555
C2 C3 1_555 1_555
C3 H1 1_555 1_555
C4 C3 1_555 1_555
C5 C4 1_555 1_555
H2 C5 1_555 1_555
C6 C5 1_555 1_555
C7 C2 1_555 1_555
H3 C7 1_555 1_555
C8 C9 1_555 1_555
C9 C10 1_555 1_555
C10 H4 1_555 1_555
C11 C10 1_555 1_555
H5 C11 1_555 1_555
C12 H6 1_555 1_555
C13 C9 1_555 1_555
H7 C13 1_555 1_555
C14 C6 1_555 1_555
C15 C16 1_555 1_555
C16 C17 1_555 1_555
C17 H8 1_555 1_555
C18 C17 1_555 1_555
C19 C18 1_555 1_555
H9 C19 1_555 1_555
C20 C19 1_555 1_555
C21 C16 1_555 1_555
H10 C21 1_555 1_555
C22 C23 1_555 1_555
C23 C24 1_555 1_555
C24 H11 1_555 1_555
C25 C24 1_555 1_555
H12 C25 1_555 1_555
C26 H13 1_555 1_555
C27 C23 1_555 1_555
H14 C27 1_555 1_555
C28 C20 1_555 1_555
N1 C4 1_555 1_555
H15 N1 1_555 1_555
N2 C11 1_555 1_555
N3 C18 1_555 1_555
H16 N3 1_555 1_555
N4 C25 1_555 1_555
O1 C1 1_555 1_555
O2 C1 1_555 1_555
O3 C14 1_555 1_555
O4 C14 1_555 1_555
O5 C8 1_555 1_555
O6 La1 1_555 1_555
O7 C15 1_555 1_555
O8 C28 1_555 1_555
O9 C28 1_555 1_555
H17 O9 1_555 1_555
O10 C22 1_555 1_555
O11 La1 1_555 1_555
H18 O11 1_555 1_555
H19 O11 1_555 1_555
O12 La1 1_555 1_555
H20 O12 1_555 1_555
H21 O12 1_555 1_555
O13 H22 1_555 1_555
H23 O13 1_555 1_555
La1A O2 1_555 1_555
La1_2 O3 1_555 1_555
La1A_2 O4 1_555 1_555
La1A_3 O7 1_555 1_555
O2A La1 1_555 1_555
O3_2 La1 1_555 1_555
O4A La1 1_555 1_555
O4_2 La1 1_555 1_555
O7A La1 1_555 1_555
C6 C7 1_555 1_555
C8 N1 1_555 1_555
C12 C13 1_555 1_555
C12 N2 1_555 1_555
C15 O6 1_555 1_555
C20 C21 1_555 1_555
C22 N3 1_555 1_555
C26 C27 1_555 1_555
C26 N4 1_555 1_555
O4 La1_2 1_555 1_555
La1A_3 O4A 1_555 1_555
La1A_3 O4_2 1_555 1_555

#END
