
#######################################################################
#
#                 Cambridge Crystallographic Data Centre
#                                CCDC 
#
#######################################################################
#
# If this CIF has been generated from an entry in the Cambridge 
# Structural Database, then it will include bibliographic, chemical, 
# crystal, experimental, refinement or atomic coordinate data resulting 
# from the CCDC's data processing and validation procedures.
#
#######################################################################

data_ELIYII
_symmetry_cell_setting           triclinic
_symmetry_space_group_name_H-M   'P -1'
_symmetry_Int_Tables_number      2
_space_group_name_Hall           '-P 1'
loop_
_symmetry_equiv_pos_site_id
_symmetry_equiv_pos_as_xyz
1 x,y,z
2 -x,-y,-z
_cell_length_a                   11.7595(16)
_cell_length_b                   12.994(2)
_cell_length_c                   13.930(2)
_cell_angle_alpha                89.367(6)
_cell_angle_beta                 74.859(6)
_cell_angle_gamma                75.365(6)
_cell_volume                     1984.55
loop_
_atom_site_label
_atom_site_type_symbol
_atom_site_fract_x
_atom_site_fract_y
_atom_site_fract_z
Er1 Er 0.749021(17) 0.747188(14) 0.243743(14)
C1 C 1.4112(7) 0.5392(6) 0.1384(6)
H1 H 1.4633 0.5815 0.1415
C2 C 1.4478(7) 0.4413(6) 0.1233(6)
H2 H 1.5270 0.3996 0.1154
C3 C 1.3375(7) 0.4036(6) 0.1202(6)
H3 H 1.3317 0.3348 0.1093
C4 C 1.2510(7) 0.4944(6) 0.1372(6)
C5 C 1.1186(5) 0.5193(5) 0.1505(4)
H4 H 1.0879 0.5945 0.1420
H5 H 1.1016 0.4791 0.1001
C6 C 0.9594(4) 0.5535(3) 0.3119(3)
C7 C 0.9057(4) 0.5108(3) 0.4082(3)
C8 C 0.8283(4) 0.5841(4) 0.4841(4)
H6 H 0.8147 0.6564 0.4734
C9 C 0.7715(5) 0.5523(5) 0.5742(4)
H7 H 0.7223 0.6028 0.6247
C10 C 0.7877(5) 0.4453(5) 0.5896(4)
H8 H 0.7470 0.4238 0.6498
C11 C 0.8633(5) 0.3702(4) 0.5170(4)
H9 H 0.8735 0.2981 0.5281
C12 C 0.9245(5) 0.4019(4) 0.4269(4)
C13 C 1.0428(5) 0.2194(4) 0.3694(4)
H10 H 0.9826 0.1852 0.3583
H11 H 1.0490 0.2085 0.4371
C14 C 1.1623(5) 0.1743(3) 0.2976(4)
C15 C 1.2658(6) 0.1379(4) 0.3342(5)
H12 H 1.2570 0.1439 0.4024
C16 C 1.3788(7) 0.0941(5) 0.2715(7)
H13 H 1.4455 0.0695 0.2974
C17 C 1.3938(6) 0.0866(5) 0.1714(6)
H14 H 1.4708 0.0573 0.1289
C18 C 1.2946(6) 0.1225(4) 0.1326(5)
H15 H 1.3060 0.1175 0.0640
C19 C 1.1777(5) 0.1661(3) 0.1944(4)
C20 C 1.0742(5) 0.2003(4) 0.1480(4)
H16 H 1.0176 0.2654 0.1817
H17 H 1.1040 0.2128 0.0782
C21 C 0.9236(5) 0.1182(4) 0.1146(4)
C22 C 0.8745(5) 0.2071(4) 0.0682(4)
H18 H 0.9048 0.2669 0.0657
C23 C 0.7813(5) 0.2070(4) 0.0258(5)
H19 H 0.7489 0.2669 -0.0051
C24 C 0.7355(5) 0.1196(5) 0.0288(5)
H20 H 0.6728 0.1196 -0.0003
C25 C 0.7838(5) 0.0312(4) 0.0756(4)
H21 H 0.7529 -0.0282 0.0770
C26 C 0.8761(4) 0.0284(3) 0.1201(3)
C27 C 0.9221(4) -0.0724(3) 0.1685(3)
C28 C 1.0627(5) -0.1728(4) 0.2596(5)
H22 H 0.9977 -0.1979 0.3033
H23 H 1.1097 -0.2291 0.2090
C29 C 1.1407(6) -0.1490(5) 0.3166(5)
C30 C 1.2604(6) -0.1707(5) 0.3031(5)
H24 H 1.3197 -0.2086 0.2485
C31 C 1.2817(6) -0.1256(4) 0.3869(5)
H25 H 1.3572 -0.1281 0.3975
C32 C 1.1761(5) -0.0803(4) 0.4458(5)
H26 H 1.1639 -0.0443 0.5064
C33 C 0.5363(6) 0.5573(5) 0.3715(5)
H27 H 0.5480 0.5698 0.3020
H28 H 0.4566 0.5466 0.3987
H29 H 0.5969 0.4950 0.3794
C34 C 0.5482(6) 0.6503(5) 0.4245(5)
C35 C 0.4777(6) 0.7610(5) 0.5741(5)
H30 H 0.4651 0.8257 0.5387
H31 H 0.5558 0.7483 0.5894
C36 C 0.3777(6) 0.7700(5) 0.6668(5)
H32 H 0.3039 0.7687 0.6500
H33 H 0.3658 0.8357 0.7034
H34 H 0.3988 0.7113 0.7069
N1 N 1.0562(4) 0.4930(4) 0.2495(3)
N2 N 1.0094(4) -0.0775(3) 0.2114(3)
N3 N 0.8259(6) 0.5530(4) 0.1240(4)
N4 N 0.5705(4) 0.7925(3) 0.1325(3)
N5 N 0.6763(5) 0.9202(4) 0.3877(4)
O1 O 1.2954(5) 0.5789(4) 0.1497(4)
O2 O 0.9126(3) 0.6468(2) 0.2921(2)
O3 O 1.0078(4) 0.3324(3) 0.3540(3)
O4 O 1.0156(4) 0.1146(3) 0.1583(3)
O5 O 0.8734(3) -0.1483(2) 0.1700(3)
O6 O 1.0846(4) -0.0927(3) 0.4066(3)
O7 O 0.7638(4) 0.5585(3) 0.2124(3)
O8 O 0.8660(7) 0.4697(4) 0.0738(4)
O9 O 0.8520(5) 0.6389(3) 0.0911(3)
O10 O 0.5632(4) 0.7332(3) 0.2050(3)
O11 O 0.4992(4) 0.8065(4) 0.0820(3)
O12 O 0.6577(4) 0.8346(3) 0.1154(3)
O13 O 0.6222(4) 0.9157(3) 0.3206(3)
O14 O 0.6405(6) 0.9914(4) 0.4509(5)
O15 O 0.7676(3) 0.8435(3) 0.3846(3)
O16 O 0.6184(4) 0.7032(3) 0.3899(3)
O17 O 0.4739(4) 0.6711(3) 0.5146(3)
H35 H 1.080(5) 0.437(4) 0.263(4)
Er1_2 Er 0.749021(17) -0.252812(14) 0.243743(14)
O5_2 O 0.8734(3) 0.8517(2) 0.1700(3)
loop_
_geom_bond_atom_site_label_1
_geom_bond_atom_site_label_2
_geom_bond_site_symmetry_1
_geom_bond_site_symmetry_2
Er1 O2 1_555 1_555
C1 H1 1_555 1_555
C2 C1 1_555 1_555
H2 C2 1_555 1_555
C3 C2 1_555 1_555
H3 C3 1_555 1_555
C4 C3 1_555 1_555
C5 C4 1_555 1_555
H4 C5 1_555 1_555
H5 C5 1_555 1_555
C6 C7 1_555 1_555
C7 C8 1_555 1_555
C8 H6 1_555 1_555
C9 C8 1_555 1_555
H7 C9 1_555 1_555
C10 C9 1_555 1_555
H8 C10 1_555 1_555
C11 C10 1_555 1_555
H9 C11 1_555 1_555
C12 C7 1_555 1_555
C13 H10 1_555 1_555
H11 C13 1_555 1_555
C14 C13 1_555 1_555
C15 C14 1_555 1_555
H12 C15 1_555 1_555
C16 C15 1_555 1_555
H13 C16 1_555 1_555
C17 C16 1_555 1_555
H14 C17 1_555 1_555
C18 C17 1_555 1_555
H15 C18 1_555 1_555
C19 C14 1_555 1_555
C20 C19 1_555 1_555
H16 C20 1_555 1_555
H17 C20 1_555 1_555
C21 C22 1_555 1_555
C22 H18 1_555 1_555
C23 C22 1_555 1_555
H19 C23 1_555 1_555
C24 C23 1_555 1_555
H20 C24 1_555 1_555
C25 C24 1_555 1_555
H21 C25 1_555 1_555
C26 C21 1_555 1_555
C27 C26 1_555 1_555
C28 H22 1_555 1_555
H23 C28 1_555 1_555
C29 C28 1_555 1_555
C30 C29 1_555 1_555
H24 C30 1_555 1_555
C31 C30 1_555 1_555
H25 C31 1_555 1_555
C32 C31 1_555 1_555
H26 C32 1_555 1_555
C33 H27 1_555 1_555
H28 C33 1_555 1_555
H29 C33 1_555 1_555
C34 C33 1_555 1_555
C35 H30 1_555 1_555
H31 C35 1_555 1_555
C36 C35 1_555 1_555
H32 C36 1_555 1_555
H33 C36 1_555 1_555
H34 C36 1_555 1_555
N1 C5 1_555 1_555
N2 C27 1_555 1_555
N3 O7 1_555 1_555
N4 O10 1_555 1_555
N5 O13 1_555 1_555
O1 C1 1_555 1_555
O2 C6 1_555 1_555
O3 C12 1_555 1_555
O4 C20 1_555 1_555
O5 C27 1_555 1_555
O6 C29 1_555 1_555
O7 Er1 1_555 1_555
O8 N3 1_555 1_555
O9 Er1 1_555 1_555
O10 Er1 1_555 1_555
O11 N4 1_555 1_555
O12 Er1 1_555 1_555
O13 Er1 1_555 1_555
O14 N5 1_555 1_555
O15 Er1 1_555 1_555
O16 Er1 1_555 1_555
O17 C34 1_555 1_555
H35 N1 1_555 1_555
Er1_2 O5 1_555 1_555
O5_2 Er1 1_555 1_555
C4 O1 1_555 1_555
C6 N1 1_555 1_555
C11 C12 1_555 1_555
C13 O3 1_555 1_555
C18 C19 1_555 1_555
C21 O4 1_555 1_555
C25 C26 1_555 1_555
C28 N2 1_555 1_555
C32 O6 1_555 1_555
C34 O16 1_555 1_555
C35 O17 1_555 1_555
N3 O9 1_555 1_555
N4 O12 1_555 1_555
N5 O15 1_555 1_555

#END
