
#######################################################################
#
#                 Cambridge Crystallographic Data Centre
#                                CCDC 
#
#######################################################################
#
# If this CIF has been generated from an entry in the Cambridge 
# Structural Database, then it will include bibliographic, chemical, 
# crystal, experimental, refinement or atomic coordinate data resulting 
# from the CCDC's data processing and validation procedures.
#
#######################################################################

data_ELIYOO
_symmetry_cell_setting           orthorhombic
_symmetry_space_group_name_H-M   'P b c a'
_symmetry_Int_Tables_number      61
_space_group_name_Hall           '-P 2ac 2ab'
loop_
_symmetry_equiv_pos_site_id
_symmetry_equiv_pos_as_xyz
1 x,y,z
2 1/2-x,-y,1/2+z
3 -x,1/2+y,1/2-z
4 1/2+x,1/2-y,-z
5 -x,-y,-z
6 1/2+x,y,1/2-z
7 x,1/2-y,1/2+z
8 1/2-x,1/2+y,z
_cell_length_a                   17.818(4)
_cell_length_b                   17.818
_cell_length_c                   23.674(6)
_cell_angle_alpha                90
_cell_angle_beta                 90
_cell_angle_gamma                90
_cell_volume                     7516.05
loop_
_atom_site_label
_atom_site_type_symbol
_atom_site_fract_x
_atom_site_fract_y
_atom_site_fract_z
C1 C 0.03393(19) 0.12323(18) 0.37573(15)
H1 H 0.0203 0.1011 0.3417
C2 C 0.0737(2) 0.18702(19) 0.47698(14)
H2 H 0.0867 0.2085 0.5114
C3 C 0.1624(2) 0.31603(18) 0.47831(12)
H3 H 0.1914 0.2810 0.5008
H4 H 0.1177 0.3296 0.4993
C4 C 0.09819(18) 0.21952(17) 0.42716(12)
C5 C 0.07703(18) 0.18808(17) 0.37509(13)
C6 C 0.20797(19) 0.38463(18) 0.46582(12)
C7 C 0.2103(2) 0.5176(2) 0.45153(14)
H5 H 0.1851 0.5633 0.4494
C8 C 0.1711(2) 0.4529(2) 0.46248(13)
H6 H 0.1194 0.4549 0.4677
C9 C 0.0304(2) 0.1232(2) 0.47592(15)
H7 H 0.0143 0.1018 0.5097
C10 C 0.0108(2) 0.0908(2) 0.42560(16)
H8 H -0.0179 0.0473 0.4251
C11 C 0.28613(19) 0.38236(18) 0.45800(11)
C12 C 0.3289(2) 0.31097(18) 0.46292(12)
H9 H 0.3011 0.2700 0.4458
H10 H 0.3771 0.3153 0.4442
C13 C 0.38065(17) 0.23768(16) 0.54035(12)
C14 C 0.4094(2) 0.18513(17) 0.50326(13)
H11 H 0.4014 0.1902 0.4646
C15 C 0.39388(17) 0.23136(16) 0.59869(12)
C16 C 0.43583(18) 0.17027(18) 0.61752(13)
H12 H 0.4455 0.1653 0.6559
C17 C 0.44983(19) 0.12522(19) 0.52390(14)
H13 H 0.4684 0.0895 0.4989
C18 C 0.1751(2) 0.29843(18) 0.25862(13)
H14 H 0.1320 0.3091 0.2349
H15 H 0.2048 0.2601 0.2401
C19 C 0.09563(18) 0.22035(18) 0.31886(13)
C20 C 0.22124(19) 0.36818(19) 0.26484(13)
C21 C 0.4633(2) 0.11723(19) 0.58085(14)
H16 H 0.4906 0.0765 0.5943
C22 C 0.2871(2) 0.5152(2) 0.44366(14)
H17 H 0.3134 0.5592 0.4361
C23 C 0.3245(2) 0.44831(19) 0.44697(13)
H18 H 0.3762 0.4471 0.4418
C24 C 0.36602(18) 0.28443(16) 0.64273(12)
C25 C 0.2852(2) 0.3798(2) 0.23324(16)
H19 H 0.3027 0.3428 0.2089
C26 C 0.3227(2) 0.4469(3) 0.2383(2)
H20 H 0.3652 0.4563 0.2167
C27 C 0.2972(3) 0.4992(3) 0.27504(19)
H21 H 0.3223 0.5445 0.2797
C28 C 0.29131(19) 0.46237(19) 0.64489(12)
C29 C 0.2430(2) 0.4988(2) 0.60811(14)
H22 H 0.1992 0.4754 0.5959
C30 C 0.2604(3) 0.5693(2) 0.59006(16)
H23 H 0.2288 0.5947 0.5654
C31 C 0.2332(3) 0.4837(2) 0.30531(16)
H24 H 0.2158 0.5197 0.3305
C32 C 0.27515(19) 0.38508(17) 0.66614(13)
H25 H 0.2946 0.3796 0.7042
H26 H 0.2213 0.3770 0.6673
C33 C 0.3709(2) 0.5628(2) 0.64507(17)
H27 H 0.4149 0.5855 0.6575
C34 C 0.3256(3) 0.6021(2) 0.60888(17)
H28 H 0.3387 0.6502 0.5972
N1 N 0.32019(17) 0.33212(15) 0.84490(11)
N2 N 0.44080(18) 0.14607(19) 0.81027(14)
N3 N 0.56928(19) 0.3238(2) 0.86217(12)
N4 N 0.30989(15) 0.32958(15) 0.62920(10)
H29 H 0.2923 0.3259 0.5955
N5 N 0.14934(16) 0.27021(15) 0.31322(10)
H30 H 0.1705 0.2872 0.3433
N6 N 0.19461(18) 0.41969(17) 0.30053(11)
N7 N 0.35521(17) 0.49403(16) 0.66335(12)
O1 O 0.31519(13) 0.31588(13) 0.79344(9)
O2 O 0.38622(14) 0.34677(14) 0.86307(9)
O3 O 0.47629(14) 0.16809(14) 0.76611(10)
O4 O 0.39922(16) 0.19455(15) 0.83302(12)
O5 O 0.44725(16) 0.08312(16) 0.82837(13)
O6 O 0.54479(15) 0.37798(16) 0.83343(11)
O7 O 0.26545(14) 0.33458(14) 0.87585(10)
O8 O 0.61947(18) 0.3313(2) 0.89721(12)
O9 O 0.53997(16) 0.26057(18) 0.85258(11)
O10 O 0.39421(13) 0.28353(12) 0.69100(8)
O11 O 0.06097(14) 0.19773(13) 0.27591(9)
O12 O 0.33905(14) 0.29780(11) 0.52286(8)
O13 O 0.14203(13) 0.28231(12) 0.42550(8)
O15 O 0.43824(14) 0.42634(13) 0.74870(10)
Tb1 Tb 0.452630(9) 0.303491(9) 0.777969(5)
H31 H 0.412(2) 0.443(2) 0.7221(13)
H32 H 0.452(2) 0.4645(16) 0.7688(13)
O11C O 0.56097(14) 0.30227(13) 0.72409(9)
Tb1C Tb -0.047370(9) 0.196509(9) 0.222031(5)
O14 O 0.0381(2) 0.44784(16) 0.30444(14)
H33 H 0.0837(15) 0.434(3) 0.311(2)
H34 H 0.020(3) 0.420(3) 0.2781(16)
loop_
_geom_bond_atom_site_label_1
_geom_bond_atom_site_label_2
_geom_bond_site_symmetry_1
_geom_bond_site_symmetry_2
C1 H1 1_555 1_555
C2 H2 1_555 1_555
C3 H3 1_555 1_555
H4 C3 1_555 1_555
C4 C2 1_555 1_555
C5 C1 1_555 1_555
C6 C3 1_555 1_555
C7 H5 1_555 1_555
C8 C6 1_555 1_555
H6 C8 1_555 1_555
C9 C2 1_555 1_555
H7 C9 1_555 1_555
C10 C1 1_555 1_555
H8 C10 1_555 1_555
C11 C6 1_555 1_555
C12 C11 1_555 1_555
H9 C12 1_555 1_555
H10 C12 1_555 1_555
C13 C14 1_555 1_555
C14 H11 1_555 1_555
C15 C13 1_555 1_555
C16 C15 1_555 1_555
H12 C16 1_555 1_555
C17 C14 1_555 1_555
H13 C17 1_555 1_555
C18 H14 1_555 1_555
H15 C18 1_555 1_555
C19 C5 1_555 1_555
C20 C18 1_555 1_555
C21 C16 1_555 1_555
H16 C21 1_555 1_555
C22 C7 1_555 1_555
H17 C22 1_555 1_555
C23 C11 1_555 1_555
H18 C23 1_555 1_555
C24 C15 1_555 1_555
C25 C20 1_555 1_555
H19 C25 1_555 1_555
C26 C25 1_555 1_555
H20 C26 1_555 1_555
C27 C26 1_555 1_555
H21 C27 1_555 1_555
C28 C29 1_555 1_555
C29 H22 1_555 1_555
C30 C29 1_555 1_555
H23 C30 1_555 1_555
C31 C27 1_555 1_555
H24 C31 1_555 1_555
C32 C28 1_555 1_555
H25 C32 1_555 1_555
H26 C32 1_555 1_555
C33 H27 1_555 1_555
C34 C30 1_555 1_555
H28 C34 1_555 1_555
N1 O1 1_555 1_555
N2 O3 1_555 1_555
N3 O6 1_555 1_555
N4 C24 1_555 1_555
H29 N4 1_555 1_555
N5 C18 1_555 1_555
H30 N5 1_555 1_555
N6 C20 1_555 1_555
N7 C28 1_555 1_555
O1 Tb1 1_555 1_555
O2 N1 1_555 1_555
O3 Tb1 1_555 1_555
O4 N2 1_555 1_555
O5 N2 1_555 1_555
O6 Tb1 1_555 1_555
O7 N1 1_555 1_555
O8 N3 1_555 1_555
O9 N3 1_555 1_555
O10 C24 1_555 1_555
O11 C19 1_555 1_555
O12 C12 1_555 1_555
O13 C3 1_555 1_555
O14 H33 1_555 1_555
O15 Tb1 1_555 1_555
Tb1 O2 1_555 1_555
H31 O15 1_555 1_555
H32 O15 1_555 1_555
H34 O14 1_555 1_555
O11C Tb1 1_555 1_555
Tb1C O11 1_555 1_555
C4 C5 1_555 1_555
C4 O13 1_555 1_555
C7 C8 1_555 1_555
C9 C10 1_555 1_555
C13 O12 1_555 1_555
C17 C21 1_555 1_555
C19 N5 1_555 1_555
C22 C23 1_555 1_555
C31 N6 1_555 1_555
C32 N4 1_555 1_555
C33 C34 1_555 1_555
C33 N7 1_555 1_555
O4 Tb1 1_555 1_555
O9 Tb1 1_555 1_555
O10 Tb1 1_555 1_555

#END
