
#######################################################################
#
#                 Cambridge Crystallographic Data Centre
#                                CCDC 
#
#######################################################################
#
# If this CIF has been generated from an entry in the Cambridge 
# Structural Database, then it will include bibliographic, chemical, 
# crystal, experimental, refinement or atomic coordinate data resulting 
# from the CCDC's data processing and validation procedures.
#
#######################################################################

data_ELOCUD
_symmetry_cell_setting           tetragonal
_symmetry_space_group_name_H-M   'P 4/n n c'
_symmetry_Int_Tables_number      126
_space_group_name_Hall           '-P 4a 2bc'
loop_
_symmetry_equiv_pos_site_id
_symmetry_equiv_pos_as_xyz
1 x,y,z
2 1/2-y,x,z
3 y,1/2-x,z
4 y,x,1/2-z
5 1/2+x,1/2+y,-z
6 1/2+x,-y,1/2+z
7 -x,1/2+y,1/2+z
8 1/2+y,1/2+x,1/2+z
9 -x,-y,-z
10 1/2+y,-x,-z
11 -y,1/2+x,-z
12 -y,-x,1/2+z
13 1/2-x,1/2-y,z
14 1/2-x,y,1/2-z
15 x,1/2-y,1/2-z
16 1/2-y,1/2-x,1/2-z
_cell_length_a                   13.6036(5)
_cell_length_b                   13.6036(5)
_cell_length_c                   20.5614(7)
_cell_angle_alpha                90
_cell_angle_beta                 90
_cell_angle_gamma                90
_cell_volume                     3805.05
loop_
_atom_site_label
_atom_site_type_symbol
_atom_site_fract_x
_atom_site_fract_y
_atom_site_fract_z
Cu1 Cu 0.63818(12) 1.2500 0.7500
Cu2 Cu 0.7500 1.07983(10) 0.7500
Cu3 Cu 0.53547(11) 0.96453(11) 0.2500
O1 O 0.6243(4) 1.2226(4) 0.6620(2)
O2 O 0.6984(4) 1.0771(4) 0.6654(2)
N1 N 0.5612(5) 0.9893(5) 0.3389(2)
C1 C 0.5313(5) 1.0704(5) 0.3678(3)
H1 H 0.4927 1.1144 0.3445
C2 C 0.5552(5) 1.0928(5) 0.4317(3)
H2 H 0.5341 1.1515 0.4501
C3 C 0.6103(4) 1.0278(4) 0.4678(2)
C4 C 0.6381(5) 0.9430(5) 0.4382(3)
H3 H 0.6742 0.8964 0.4611
C5 C 0.6127(6) 0.9254(6) 0.3735(3)
H4 H 0.6326 0.8670 0.3541
C6 C 0.6378(4) 1.0475(4) 0.5358(2)
H5 H 0.6663 0.9959 0.5586
C7 C 0.6264(5) 1.1303(5) 0.5674(3)
H6 H 0.6000 1.1836 0.5452
C8 C 0.6531(5) 1.1438(5) 0.6369(3)
O3 O 0.7500 0.9039(11) 0.7500
H7 H 0.7189 0.8879 0.7833
H7M H 0.7811 0.8879 0.7167
O1N O 0.6243(4) 1.2774(4) 0.8380(2)
O2N O 0.6984(4) 1.4229(4) 0.8346(2)
N1N N 0.5612(5) 1.5107(5) 1.1611(2)
C1N C 0.5313(5) 1.4296(5) 1.1322(3)
H1N H 0.4927 1.3856 1.1555
C2N C 0.5552(5) 1.4072(5) 1.0683(3)
H2N H 0.5341 1.3485 1.0499
C3N C 0.6103(4) 1.4722(4) 1.0322(2)
C4N C 0.6381(5) 1.5570(5) 1.0618(3)
H3N H 0.6742 1.6036 1.0389
C5N C 0.6127(6) 1.5746(6) 1.1265(3)
H4N H 0.6326 1.6330 1.1459
C6N C 0.6378(4) 1.4525(4) 0.9642(2)
H5N H 0.6663 1.5041 0.9414
C7N C 0.6264(5) 1.3697(5) 0.9326(3)
H6N H 0.6000 1.3164 0.9548
C8N C 0.6531(5) 1.3562(5) 0.8631(3)
Cu1L Cu 0.86182(12) 1.2500 0.7500
Cu2N Cu 0.7500 1.42017(10) 0.7500
Cu3N Cu 0.53547(11) 1.53547(11) 1.2500
O1M O 0.8757(4) 1.2226(4) 0.8380(2)
O2M O 0.8016(4) 1.0771(4) 0.8346(2)
N1M N 0.9388(5) 0.9893(5) 1.1611(2)
C1M C 0.9687(5) 1.0704(5) 1.1322(3)
H1M H 1.0073 1.1144 1.1555
C2M C 0.9448(5) 1.0928(5) 1.0683(3)
H2M H 0.9659 1.1515 1.0499
C3M C 0.8897(4) 1.0278(4) 1.0322(2)
C4M C 0.8619(5) 0.9430(5) 1.0618(3)
H3M H 0.8258 0.8964 1.0389
C5M C 0.8873(6) 0.9254(6) 1.1265(3)
H4M H 0.8674 0.8670 1.1459
C6M C 0.8622(4) 1.0475(4) 0.9642(2)
H5M H 0.8337 0.9959 0.9414
C7M C 0.8736(5) 1.1303(5) 0.9326(3)
H6M H 0.9000 1.1836 0.9548
C8M C 0.8469(5) 1.1438(5) 0.8631(3)
O1O O 0.2774(4) 0.8757(4) -0.1620(2)
O2O O 0.4229(4) 0.8016(4) -0.1654(2)
N1O N 0.5107(5) 0.9388(5) 0.1611(2)
C1O C 0.4296(5) 0.9687(5) 0.1322(3)
H1O H 0.3856 1.0073 0.1555
C2O C 0.4072(5) 0.9448(5) 0.0683(3)
H2O H 0.3485 0.9659 0.0499
C3O C 0.4722(4) 0.8897(4) 0.0322(2)
C4O C 0.5570(5) 0.8619(5) 0.0618(3)
H3O H 0.6036 0.8258 0.0389
C5O C 0.5746(6) 0.8873(6) 0.1265(3)
H4O H 0.6330 0.8674 0.1459
C6O C 0.4525(4) 0.8622(4) -0.0358(2)
H5O H 0.5041 0.8337 -0.0586
C7O C 0.3697(5) 0.8736(5) -0.0674(3)
H6O H 0.3164 0.9000 -0.0452
C8O C 0.3562(5) 0.8469(5) -0.1369(3)
O1L O 0.8757(4) 1.2774(4) 0.6620(2)
O2L O 0.8016(4) 1.4229(4) 0.6654(2)
N1L N 0.9388(5) 1.5107(5) 0.3389(2)
C1L C 0.9687(5) 1.4296(5) 0.3678(3)
H1L H 1.0073 1.3856 0.3445
C2L C 0.9448(5) 1.4072(5) 0.4317(3)
H2L H 0.9659 1.3485 0.4501
C3L C 0.8897(4) 1.4722(4) 0.4678(2)
C4L C 0.8619(5) 1.5570(5) 0.4382(3)
H3L H 0.8258 1.6036 0.4611
C5L C 0.8873(6) 1.5746(6) 0.3735(3)
H4L H 0.8674 1.6330 0.3541
C6L C 0.8622(4) 1.4525(4) 0.5358(2)
H5L H 0.8337 1.5041 0.5586
C7L C 0.8736(5) 1.3697(5) 0.5674(3)
H6L H 0.9000 1.3164 0.5452
C8L C 0.8469(5) 1.3562(5) 0.6369(3)
O3N O 0.7500 1.5961(11) 0.7500
H7N H 0.7189 1.6121 0.7167
H7L H 0.7811 1.6121 0.7833
O1A O 0.2774(4) 1.6243(4) 1.6620(2)
O2A O 0.4229(4) 1.6984(4) 1.6654(2)
N1A N 0.5107(5) 1.5612(5) 1.3389(2)
C1A C 0.4296(5) 1.5313(5) 1.3678(3)
H1A H 0.3856 1.4927 1.3445
C2A C 0.4072(5) 1.5552(5) 1.4317(3)
H2A H 0.3485 1.5341 1.4501
C3A C 0.4722(4) 1.6103(4) 1.4678(2)
C4A C 0.5570(5) 1.6381(5) 1.4382(3)
H3A H 0.6036 1.6742 1.4611
C5A C 0.5746(6) 1.6127(6) 1.3735(3)
H4A H 0.6330 1.6326 1.3541
C6A C 0.4525(4) 1.6378(4) 1.5358(2)
H5A H 0.5041 1.6663 1.5586
C7A C 0.3697(5) 1.6264(5) 1.5674(3)
H6A H 0.3164 1.6000 1.5452
C8A C 0.3562(5) 1.6531(5) 1.6369(3)
Cu1O Cu 0.2500 0.86182(12) -0.2500
Cu1A Cu 0.2500 1.63818(12) 1.7500
Cu2O Cu 0.42017(10) 0.7500 -0.2500
Cu2A Cu 0.42017(10) 1.7500 1.7500
Cu3M Cu 0.96453(11) 0.96453(11) 1.2500
Cu3L Cu 0.96453(11) 1.53547(11) 0.2500
O1B O 0.2226(4) 0.8757(4) -0.3380(2)
O2B O 0.0771(4) 0.8016(4) -0.3346(2)
N1B N -0.0107(5) 0.9388(5) -0.6611(2)
C1B C 0.0704(5) 0.9687(5) -0.6322(3)
H1B H 0.1144 1.0073 -0.6555
C2B C 0.0928(5) 0.9448(5) -0.5683(3)
H2B H 0.1515 0.9659 -0.5499
C3B C 0.0278(4) 0.8897(4) -0.5322(2)
C4B C -0.0570(5) 0.8619(5) -0.5618(3)
H3B H -0.1036 0.8258 -0.5389
C5B C -0.0746(6) 0.8873(6) -0.6265(3)
H4B H -0.1330 0.8674 -0.6459
C6B C 0.0475(4) 0.8622(4) -0.4642(2)
H5B H -0.0041 0.8337 -0.4414
C7B C 0.1303(5) 0.8736(5) -0.4326(3)
H6B H 0.1836 0.9000 -0.4548
C8B C 0.1438(5) 0.8469(5) -0.3631(3)
O1C O 0.2226(4) 1.6243(4) 1.8380(2)
O2C O 0.0771(4) 1.6984(4) 1.8346(2)
N1C N -0.0107(5) 1.5612(5) 2.1611(2)
C1C C 0.0704(5) 1.5313(5) 2.1322(3)
H1C H 0.1144 1.4927 2.1555
C2C C 0.0928(5) 1.5552(5) 2.0683(3)
H2C H 0.1515 1.5341 2.0499
C3C C 0.0278(4) 1.6103(4) 2.0322(2)
C4C C -0.0570(5) 1.6381(5) 2.0618(3)
H3C H -0.1036 1.6742 2.0389
C5C C -0.0746(6) 1.6127(6) 2.1265(3)
H4C H -0.1330 1.6326 2.1459
C6C C 0.0475(4) 1.6378(4) 1.9642(2)
H5C H -0.0041 1.6663 1.9414
C7C C 0.1303(5) 1.6264(5) 1.9326(3)
H6C H 0.1836 1.6000 1.9548
C8C C 0.1438(5) 1.6531(5) 1.8631(3)
O3O O 0.5961(11) 0.7500 -0.2500
H7O H 0.6121 0.7811 -0.2833
H7A H 0.6121 0.7189 -0.2167
O3A O 0.5961(11) 1.7500 1.7500
H7A_2 H 0.6121 1.7189 1.7833
H7O_2 H 0.6121 1.7811 1.7167
Cu1A_2 Cu 0.2500 0.63818(12) -0.2500
Cu2B Cu 0.07983(10) 0.7500 -0.2500
Cu1B Cu 0.2500 1.86182(12) 1.7500
Cu2B_2 Cu 0.07983(10) 1.7500 1.7500
O2A_2 O 0.4229(4) 0.6984(4) -0.3346(2)
O2O_2 O 0.4229(4) 1.8016(4) 1.8346(2)
N1B_2 N 0.9893(5) 0.9388(5) 1.3389(2)
N1C_2 N 0.9893(5) 1.5612(5) 0.1611(2)
Cu3B Cu -0.03547(11) 0.96453(11) -0.7500
Cu3C Cu -0.03547(11) 1.53547(11) 2.2500
B1 B 0.2500 0.2500 0.7500
F2 F 0.2500 0.1293(8) 0.7500
F2A F 0.3707(8) 0.2500 0.7500
F2B F 0.1293(8) 0.2500 0.7500
F2L F 0.2500 0.3707(8) 0.7500
B2 B 0.7500 0.7500 0.5946(7)
F3 F 0.8474(13) 0.720(2) 0.5868(10)
F3A F 0.780(2) 0.8474(13) 0.5868(10)
F3B F 0.720(2) 0.6526(13) 0.5868(10)
F3L F 0.6526(13) 0.780(2) 0.5868(10)
F1? F 0.2500 0.2500 0.6766(7)
F4? F 0.7500 0.7500 0.5291(18)
F5? F 0.795(9) 0.681(7) 0.623(3)
loop_
_geom_bond_atom_site_label_1
_geom_bond_atom_site_label_2
_geom_bond_site_symmetry_1
_geom_bond_site_symmetry_2
Cu1 Cu2 1_555 1_555
Cu2 O2 1_555 1_555
Cu3 N1 1_555 1_555
O1 Cu1 1_555 1_555
O2 C8 1_555 1_555
N1 C1 1_555 1_555
C1 H1 1_555 1_555
C2 C1 1_555 1_555
H2 C2 1_555 1_555
C3 C2 1_555 1_555
C4 C3 1_555 1_555
H3 C4 1_555 1_555
C5 N1 1_555 1_555
H4 C5 1_555 1_555
C6 C3 1_555 1_555
H5 C6 1_555 1_555
C7 C6 1_555 1_555
H6 C7 1_555 1_555
C8 O1 1_555 1_555
O3 Cu2 1_555 1_555
H7 O3 1_555 1_555
B1 F2 1_555 1_555
B2 F3 1_555 1_555
H7M O3 1_555 1_555
F2A B1 1_555 1_555
F2B B1 1_555 1_555
F2L B1 1_555 1_555
F3A B2 1_555 1_555
F3B B2 1_555 1_555
F3L B2 1_555 1_555
O1N Cu1 1_555 1_555
O2N C8N 1_555 1_555
N1N C1N 1_555 1_555
C1N H1N 1_555 1_555
C2N C1N 1_555 1_555
H2N C2N 1_555 1_555
C3N C2N 1_555 1_555
C4N C3N 1_555 1_555
H3N C4N 1_555 1_555
C5N N1N 1_555 1_555
H4N C5N 1_555 1_555
C6N C3N 1_555 1_555
H5N C6N 1_555 1_555
C7N C6N 1_555 1_555
H6N C7N 1_555 1_555
C8N O1N 1_555 1_555
Cu1L Cu1 1_555 1_555
Cu2N Cu1 1_555 1_555
Cu3N N1N 1_555 1_555
O1M Cu1L 1_555 1_555
O2M Cu2 1_555 1_555
N1M C1M 1_555 1_555
C1M H1M 1_555 1_555
C2M C1M 1_555 1_555
H2M C2M 1_555 1_555
C3M C2M 1_555 1_555
C4M C3M 1_555 1_555
H3M C4M 1_555 1_555
C5M N1M 1_555 1_555
H4M C5M 1_555 1_555
C6M C3M 1_555 1_555
H5M C6M 1_555 1_555
C7M C6M 1_555 1_555
H6M C7M 1_555 1_555
C8M O1M 1_555 1_555
O1O C8O 1_555 1_555
O2O C8O 1_555 1_555
N1O Cu3 1_555 1_555
C1O N1O 1_555 1_555
H1O C1O 1_555 1_555
C2O C1O 1_555 1_555
H2O C2O 1_555 1_555
C3O C2O 1_555 1_555
C4O C3O 1_555 1_555
H3O C4O 1_555 1_555
C5O N1O 1_555 1_555
H4O C5O 1_555 1_555
C6O C3O 1_555 1_555
H5O C6O 1_555 1_555
C7O C6O 1_555 1_555
H6O C7O 1_555 1_555
C8O C7O 1_555 1_555
O1L Cu1L 1_555 1_555
O2L Cu2N 1_555 1_555
N1L C1L 1_555 1_555
C1L H1L 1_555 1_555
C2L C1L 1_555 1_555
H2L C2L 1_555 1_555
C3L C2L 1_555 1_555
C4L C3L 1_555 1_555
H3L C4L 1_555 1_555
C5L N1L 1_555 1_555
H4L C5L 1_555 1_555
C6L C3L 1_555 1_555
H5L C6L 1_555 1_555
C7L C6L 1_555 1_555
H6L C7L 1_555 1_555
C8L O1L 1_555 1_555
O3N Cu2N 1_555 1_555
H7N O3N 1_555 1_555
H7L O3N 1_555 1_555
O1A C8A 1_555 1_555
O2A C8A 1_555 1_555
N1A Cu3N 1_555 1_555
C1A N1A 1_555 1_555
H1A C1A 1_555 1_555
C2A C1A 1_555 1_555
H2A C2A 1_555 1_555
C3A C2A 1_555 1_555
C4A C3A 1_555 1_555
H3A C4A 1_555 1_555
C5A N1A 1_555 1_555
H4A C5A 1_555 1_555
C6A C3A 1_555 1_555
H5A C6A 1_555 1_555
C7A C6A 1_555 1_555
H6A C7A 1_555 1_555
C8A C7A 1_555 1_555
Cu1O O1O 1_555 1_555
Cu1A O1A 1_555 1_555
Cu2O O2O 1_555 1_555
Cu2A O2A 1_555 1_555
Cu3M N1M 1_555 1_555
Cu3L N1L 1_555 1_555
O1B Cu1O 1_555 1_555
O2B C8B 1_555 1_555
N1B C1B 1_555 1_555
C1B H1B 1_555 1_555
C2B C1B 1_555 1_555
H2B C2B 1_555 1_555
C3B C2B 1_555 1_555
C4B C3B 1_555 1_555
H3B C4B 1_555 1_555
C5B N1B 1_555 1_555
H4B C5B 1_555 1_555
C6B C3B 1_555 1_555
H5B C6B 1_555 1_555
C7B C6B 1_555 1_555
H6B C7B 1_555 1_555
C8B O1B 1_555 1_555
O1C Cu1A 1_555 1_555
O2C C8C 1_555 1_555
N1C C1C 1_555 1_555
C1C H1C 1_555 1_555
C2C C1C 1_555 1_555
H2C C2C 1_555 1_555
C3C C2C 1_555 1_555
C4C C3C 1_555 1_555
H3C C4C 1_555 1_555
C5C N1C 1_555 1_555
H4C C5C 1_555 1_555
C6C C3C 1_555 1_555
H5C C6C 1_555 1_555
C7C C6C 1_555 1_555
H6C C7C 1_555 1_555
C8C O1C 1_555 1_555
O3O Cu2O 1_555 1_555
H7O O3O 1_555 1_555
H7A O3O 1_555 1_555
O3A Cu2A 1_555 1_555
H7A_2 O3A 1_555 1_555
H7O_2 O3A 1_555 1_555
Cu1A_2 Cu1O 1_555 1_555
Cu2B Cu1O 1_555 1_555
Cu1B Cu1A 1_555 1_555
Cu2B_2 Cu1A 1_555 1_555
O2A_2 Cu2O 1_555 1_555
O2O_2 Cu2A 1_555 1_555
N1B_2 Cu3M 1_555 1_555
N1C_2 Cu3L 1_555 1_555
Cu3B N1B 1_555 1_555
Cu3C N1C 1_555 1_555
Cu2 Cu1L 1_555 1_555
C4 C5 1_555 1_555
C7 C8 1_555 1_555
O2N Cu2N 1_555 1_555
C4N C5N 1_555 1_555
C7N C8N 1_555 1_555
Cu1L Cu2N 1_555 1_555
O2M C8M 1_555 1_555
C4M C5M 1_555 1_555
C7M C8M 1_555 1_555
C4O C5O 1_555 1_555
O2L C8L 1_555 1_555
C4L C5L 1_555 1_555
C7L C8L 1_555 1_555
C4A C5A 1_555 1_555
Cu1O Cu2O 1_555 1_555
Cu1A Cu2A 1_555 1_555
Cu2O Cu1A_2 1_555 1_555
Cu2A Cu1B 1_555 1_555
O2B Cu2B 1_555 1_555
C4B C5B 1_555 1_555
C7B C8B 1_555 1_555
O2C Cu2B_2 1_555 1_555
C4C C5C 1_555 1_555
C7C C8C 1_555 1_555
Cu1A_2 Cu2B 1_555 1_555
Cu1B Cu2B_2 1_555 1_555

#END
