
#######################################################################
#
#                 Cambridge Crystallographic Data Centre
#                                CCDC 
#
#######################################################################
#
# If this CIF has been generated from an entry in the Cambridge 
# Structural Database, then it will include bibliographic, chemical, 
# crystal, experimental, refinement or atomic coordinate data resulting 
# from the CCDC's data processing and validation procedures.
#
#######################################################################

data_ELOFEQ
_symmetry_cell_setting           monoclinic
_symmetry_space_group_name_H-M   'C 2/c'
_symmetry_Int_Tables_number      15
_space_group_name_Hall           '-C 2yn'
loop_
_symmetry_equiv_pos_site_id
_symmetry_equiv_pos_as_xyz
1 x,y,z
2 1/2+x,1/2+y,z
3 x,-y,1/2+z
4 1/2+x,1/2-y,1/2+z
5 -x,-y,-z
6 1/2-x,1/2-y,-z
7 -x,y,1/2-z
8 1/2-x,1/2+y,1/2-z
_cell_length_a                   12.8561(5)
_cell_length_b                   10.6094(5)
_cell_length_c                   9.1925(4)
_cell_angle_alpha                90
_cell_angle_beta                 92.930(3)
_cell_angle_gamma                90
_cell_volume                     1252.18
loop_
_atom_site_label
_atom_site_type_symbol
_atom_site_fract_x
_atom_site_fract_y
_atom_site_fract_z
Ca1 Ca 0.0000 0.23029(6) 0.2500
O1 O 0.03263(13) 0.33327(15) 0.01662(17)
O2 O -0.12613(11) 0.39484(15) 0.17449(16)
O3 O -0.0779(2) 0.0924(2) 0.0655(3)
O4 O 0.15784(15) 0.1365(2) 0.1537(2)
C1 C -0.02739(17) 0.4411(2) -0.0301(2)
H1 H -0.0307 0.4448 -0.1368
C2 C -0.13600(17) 0.4247(2) 0.0218(2)
H2 H -0.1758 0.5017 0.0065
H3 H -0.1716 0.3571 -0.0315
H4 H 0.058(3) 0.301(3) -0.055(3)
H5 H -0.1837(19) 0.384(5) 0.205(3)
H6 H -0.084(4) 0.016(3) 0.113(4)
H7 H -0.077(4) 0.086(4) -0.034(2)
H8 H 0.224(2) 0.169(4) 0.191(4)
H9 H 0.165(3) 0.135(4) 0.051(2)
C1D C 0.02739(17) 0.5589(2) 0.0301(2)
O1D O -0.03263(13) 0.66673(15) -0.01662(17)
H4D H -0.058(3) 0.699(3) 0.055(3)
H1D H 0.0307 0.5552 0.1368
C2D C 0.13600(17) 0.5753(2) -0.0218(2)
O2D O 0.12613(11) 0.60516(15) -0.17449(16)
H5D H 0.1837(19) 0.616(5) -0.205(3)
H2D H 0.1758 0.4983 -0.0065
H3D H 0.1716 0.6429 0.0315
O3F O 0.0779(2) 0.0924(2) 0.4345(3)
H6F H 0.084(4) 0.016(3) 0.387(4)
H7F H 0.077(4) 0.086(4) 0.534(2)
O4F O -0.15784(15) 0.1365(2) 0.3463(2)
H8F H -0.224(2) 0.169(4) 0.309(4)
H9F H -0.165(3) 0.135(4) 0.449(2)
O1F O -0.03263(13) 0.33327(15) 0.48338(17)
O2F O 0.12613(11) 0.39484(15) 0.32551(16)
Ca1B Ca 0.0000 0.76971(6) -0.2500
H4F H -0.058(3) 0.301(3) 0.555(3)
H5F H 0.1837(19) 0.384(5) 0.295(3)
Cl1 Cl -0.34733(5) 0.32460(6) 0.28277(7)
loop_
_geom_bond_atom_site_label_1
_geom_bond_atom_site_label_2
_geom_bond_site_symmetry_1
_geom_bond_site_symmetry_2
Ca1 O1 1_555 1_555
O1 C1 1_555 1_555
O2 Ca1 1_555 1_555
O3 Ca1 1_555 1_555
O4 Ca1 1_555 1_555
C1 H1 1_555 1_555
C2 O2 1_555 1_555
H2 C2 1_555 1_555
H3 C2 1_555 1_555
H4 O1 1_555 1_555
H5 O2 1_555 1_555
H6 O3 1_555 1_555
H7 O3 1_555 1_555
H8 O4 1_555 1_555
H9 O4 1_555 1_555
C1D C1 1_555 1_555
O1D C1D 1_555 1_555
H4D O1D 1_555 1_555
H1D C1D 1_555 1_555
C2D C1D 1_555 1_555
O2D C2D 1_555 1_555
H5D O2D 1_555 1_555
H2D C2D 1_555 1_555
H3D C2D 1_555 1_555
O3F Ca1 1_555 1_555
H6F O3F 1_555 1_555
H7F O3F 1_555 1_555
O4F Ca1 1_555 1_555
H8F O4F 1_555 1_555
H9F O4F 1_555 1_555
O1F Ca1 1_555 1_555
O2F Ca1 1_555 1_555
Ca1B O1D 1_555 1_555
H4F O1F 1_555 1_555
H5F O2F 1_555 1_555
C1 C2 1_555 1_555
O2D Ca1B 1_555 1_555

#END
