
#######################################################################
#
#                 Cambridge Crystallographic Data Centre
#                                CCDC 
#
#######################################################################
#
# If this CIF has been generated from an entry in the Cambridge 
# Structural Database, then it will include bibliographic, chemical, 
# crystal, experimental, refinement or atomic coordinate data resulting 
# from the CCDC's data processing and validation procedures.
#
#######################################################################

data_ELOFUG
_symmetry_cell_setting           triclinic
_symmetry_space_group_name_H-M   'P -1'
_symmetry_Int_Tables_number      2
_space_group_name_Hall           '-P 1'
loop_
_symmetry_equiv_pos_site_id
_symmetry_equiv_pos_as_xyz
1 x,y,z
2 -x,-y,-z
_cell_length_a                   7.5099(3)
_cell_length_b                   10.1860(3)
_cell_length_c                   10.4213(3)
_cell_angle_alpha                85.3935(14)
_cell_angle_beta                 84.2916(14)
_cell_angle_gamma                78.6868(14)
_cell_volume                     776.308
loop_
_atom_site_label
_atom_site_type_symbol
_atom_site_fract_x
_atom_site_fract_y
_atom_site_fract_z
Pr1 Pr 0.24029(4) 0.74520(3) 0.75482(3)
Cl1 Cl 0.55437(18) 0.66894(14) 0.90790(13)
O1 O 0.0732(5) 0.8228(3) 0.9646(3)
O2 O 0.2900(5) 0.9634(4) 0.8372(3)
O3 O 0.4376(5) 0.5366(4) 0.6696(3)
O4 O 0.2122(5) 0.6845(3) 0.5275(3)
O5 O 0.4485(5) 0.8461(4) 0.6012(4)
O6 O 0.0475(5) 0.9376(4) 0.6477(4)
O7 O -0.0772(5) 0.6958(4) 0.7322(4)
O8 O 0.1781(5) 0.5465(3) 0.9040(4)
C1 C 0.0824(7) 0.9472(5) 1.0205(5)
H1 H 0.0745 0.9336 1.1149
C2 C 0.2647(7) 0.9818(5) 0.9727(5)
H2 H 0.2664 1.0740 0.9886
H3 H 0.3611 0.9236 1.0167
C3 C 0.4233(7) 0.4829(5) 0.5487(4)
H4 H 0.4356 0.3852 0.5609
C4 C 0.2361(7) 0.5429(5) 0.5111(5)
H5 H 0.2251 0.5271 0.4219
H6 H 0.1451 0.5042 0.5658
H7 H 0.042(10) 0.771(3) 1.022(3)
H8 H 0.383(6) 0.988(7) 0.806(3)
H9 H 0.496(9) 0.478(4) 0.716(3)
H10 H 0.117(6) 0.722(3) 0.497(6)
H11 H 0.526(8) 0.904(6) 0.618(6)
H12 H 0.422(9) 0.866(6) 0.513(3)
H13 H -0.078(3) 0.966(6) 0.673(7)
H14 H 0.092(8) 1.015(4) 0.615(6)
H15 H -0.132(8) 0.747(6) 0.659(4)
H16 H -0.179(6) 0.691(7) 0.794(4)
H17 H 0.093(7) 0.499(6) 0.882(6)
H18 H 0.252(7) 0.495(5) 0.963(5)
C1A C -0.0824(7) 1.0528(5) 0.9795(5)
O1A O -0.0732(5) 1.1772(3) 1.0354(3)
H7A H -0.042(10) 1.229(3) 0.978(3)
H1A H -0.0745 1.0664 0.8851
C2A C -0.2647(7) 1.0182(5) 1.0273(5)
O2A O -0.2900(5) 1.0366(4) 1.1628(3)
H8A H -0.383(6) 1.012(7) 1.194(3)
H2A H -0.2664 0.9260 1.0114
H3A H -0.3611 1.0764 0.9833
C3A C 0.5767(7) 0.5171(5) 0.4513(4)
O3A O 0.5624(5) 0.4634(4) 0.3304(3)
H9A H 0.504(9) 0.522(4) 0.284(3)
H4A H 0.5644 0.6148 0.4391
C4A C 0.7639(7) 0.4571(5) 0.4889(5)
O4A O 0.7878(5) 0.3155(3) 0.4725(3)
H10A H 0.883(6) 0.278(3) 0.503(6)
H5A H 0.7749 0.4729 0.5781
H6A H 0.8549 0.4958 0.4342
Pr1A Pr -0.24029(4) 1.25480(3) 1.24518(3)
Cl1A Cl -0.55437(18) 1.33106(14) 1.09210(13)
O5A O -0.4485(5) 1.1539(4) 1.3988(4)
H11A H -0.526(8) 1.096(6) 1.382(6)
H12A H -0.422(9) 1.134(6) 1.487(3)
O6A O -0.0475(5) 1.0624(4) 1.3523(4)
H13A H 0.078(3) 1.034(6) 1.327(7)
H14A H -0.092(8) 0.985(4) 1.385(6)
O7A O 0.0772(5) 1.3042(4) 1.2678(4)
H15A H 0.132(8) 1.253(6) 1.341(4)
H16A H 0.179(6) 1.309(7) 1.206(4)
O8A O -0.1781(5) 1.4535(3) 1.0960(4)
H17A H -0.093(7) 1.501(6) 1.118(6)
H18A H -0.252(7) 1.505(5) 1.037(5)
Pr1A_2 Pr 0.75971(4) 0.25480(3) 0.24518(3)
O3A_2 O -0.4376(5) 1.4634(4) 1.3304(3)
O4A_2 O -0.2122(5) 1.3155(3) 1.4725(3)
H9A_2 H -0.496(9) 1.522(4) 1.284(3)
H10A_2 H -0.117(6) 1.278(3) 1.503(6)
Cl2 Cl 0.63129(19) 1.06567(15) 0.69901(13)
Cl3 Cl -0.15729(18) 0.78529(13) 0.42975(14)
O9 O -0.0144(6) 0.6572(4) 1.1691(4)
H19 H 0.107(5) 0.617(7) 1.189(7)
H20 H -0.064(8) 0.717(6) 1.233(5)
O10 O 0.6415(6) 0.3401(4) 0.8057(4)
H21 H 0.588(9) 0.331(6) 0.892(3)
H22 H 0.645(11) 0.255(4) 0.771(5)
loop_
_geom_bond_atom_site_label_1
_geom_bond_atom_site_label_2
_geom_bond_site_symmetry_1
_geom_bond_site_symmetry_2
Pr1 Cl1 1_555 1_555
O1 Pr1 1_555 1_555
O2 Pr1 1_555 1_555
O3 Pr1 1_555 1_555
O4 Pr1 1_555 1_555
O5 Pr1 1_555 1_555
O6 Pr1 1_555 1_555
O7 Pr1 1_555 1_555
O8 Pr1 1_555 1_555
O9 H19 1_555 1_555
O10 H21 1_555 1_555
C1 O1 1_555 1_555
H1 C1 1_555 1_555
C2 O2 1_555 1_555
H2 C2 1_555 1_555
H3 C2 1_555 1_555
C3 O3 1_555 1_555
H4 C3 1_555 1_555
C4 O4 1_555 1_555
H5 C4 1_555 1_555
H6 C4 1_555 1_555
H7 O1 1_555 1_555
H8 O2 1_555 1_555
H9 O3 1_555 1_555
H10 O4 1_555 1_555
H11 O5 1_555 1_555
H12 O5 1_555 1_555
H13 O6 1_555 1_555
H14 O6 1_555 1_555
H15 O7 1_555 1_555
H16 O7 1_555 1_555
H17 O8 1_555 1_555
H18 O8 1_555 1_555
H20 O9 1_555 1_555
H22 O10 1_555 1_555
C1A C1 1_555 1_555
O1A C1A 1_555 1_555
H7A O1A 1_555 1_555
H1A C1A 1_555 1_555
C2A C1A 1_555 1_555
O2A C2A 1_555 1_555
H8A O2A 1_555 1_555
H2A C2A 1_555 1_555
H3A C2A 1_555 1_555
C3A C3 1_555 1_555
O3A C3A 1_555 1_555
H9A O3A 1_555 1_555
H4A C3A 1_555 1_555
C4A C3A 1_555 1_555
O4A C4A 1_555 1_555
H10A O4A 1_555 1_555
H5A C4A 1_555 1_555
H6A C4A 1_555 1_555
Pr1A O1A 1_555 1_555
Cl1A Pr1A 1_555 1_555
O5A Pr1A 1_555 1_555
H11A O5A 1_555 1_555
H12A O5A 1_555 1_555
O6A Pr1A 1_555 1_555
H13A O6A 1_555 1_555
H14A O6A 1_555 1_555
O7A Pr1A 1_555 1_555
H15A O7A 1_555 1_555
H16A O7A 1_555 1_555
O8A Pr1A 1_555 1_555
H17A O8A 1_555 1_555
H18A O8A 1_555 1_555
Pr1A_2 O3A 1_555 1_555
O3A_2 Pr1A 1_555 1_555
O4A_2 Pr1A 1_555 1_555
H9A_2 O3A_2 1_555 1_555
H10A_2 O4A_2 1_555 1_555
C1 C2 1_555 1_555
C3 C4 1_555 1_555
O2A Pr1A 1_555 1_555
O4A Pr1A_2 1_555 1_555

#END
