
#######################################################################
#
#                 Cambridge Crystallographic Data Centre
#                                CCDC 
#
#######################################################################
#
# If this CIF has been generated from an entry in the Cambridge 
# Structural Database, then it will include bibliographic, chemical, 
# crystal, experimental, refinement or atomic coordinate data resulting 
# from the CCDC's data processing and validation procedures.
#
#######################################################################

data_ELOFOA
_symmetry_cell_setting           monoclinic
_symmetry_space_group_name_H-M   'C 2/c'
_symmetry_Int_Tables_number      15
_space_group_name_Hall           '-C 2yn'
loop_
_symmetry_equiv_pos_site_id
_symmetry_equiv_pos_as_xyz
1 x,y,z
2 1/2+x,1/2+y,z
3 x,-y,1/2+z
4 1/2+x,1/2-y,1/2+z
5 -x,-y,-z
6 1/2-x,1/2-y,-z
7 -x,y,1/2-z
8 1/2-x,1/2+y,1/2-z
_cell_length_a                   12.602(3)
_cell_length_b                   8.0889(16)
_cell_length_c                   10.521(2)
_cell_angle_alpha                90
_cell_angle_beta                 99.49(3)
_cell_angle_gamma                90
_cell_volume                     1057.79
loop_
_atom_site_label
_atom_site_type_symbol
_atom_site_fract_x
_atom_site_fract_y
_atom_site_fract_z
Ca1 Ca 0.0000 0.18535(5) 0.7500
N1 N -0.14598(11) -0.09763(16) 0.69874(13)
O1 O -0.12975(10) 0.38290(16) 0.65028(11)
O2 O 0.03362(10) 0.28616(13) 0.54690(11)
O3 O -0.15977(10) 0.00146(16) 0.78648(13)
O4 O -0.08024(10) -0.05553(14) 0.62521(11)
O5 O -0.19361(14) -0.22938(18) 0.68279(16)
C1 C -0.13983(13) 0.4090(2) 0.51242(16)
H1 H -0.1784 0.5110 0.4882
H2 H -0.1794 0.3185 0.4662
C2 C -0.02838(12) 0.41811(16) 0.47944(13)
H3 H -0.0320 0.4030 0.3864
H4 H -0.182(2) 0.409(3) 0.674(2)
H5 H 0.0554(18) 0.224(3) 0.500(2)
C2D C 0.02838(12) 0.58189(16) 0.52056(13)
O2D O -0.03362(10) 0.71384(13) 0.45310(11)
H5D H -0.0554(18) 0.776(3) 0.500(2)
C1D C 0.13983(13) 0.5910(2) 0.48758(16)
O1D O 0.12975(10) 0.61710(16) 0.34972(11)
H4D H 0.182(2) 0.591(3) 0.326(2)
H1D H 0.1784 0.4890 0.5118
H2D H 0.1794 0.6815 0.5338
H3D H 0.0320 0.5970 0.6136
N1F N 0.14598(11) -0.09763(16) 0.80126(13)
O3F O 0.15977(10) 0.00146(16) 0.71352(13)
O4F O 0.08024(10) -0.05553(14) 0.87479(11)
O5F O 0.19361(14) -0.22938(18) 0.81721(16)
O1F O 0.12975(10) 0.38290(16) 0.84972(11)
O2F O -0.03362(10) 0.28616(13) 0.95310(11)
Ca1B Ca 0.0000 0.81465(5) 0.2500
H4F H 0.182(2) 0.409(3) 0.826(2)
H5F H -0.0554(18) 0.224(3) 1.000(2)
loop_
_geom_bond_atom_site_label_1
_geom_bond_atom_site_label_2
_geom_bond_site_symmetry_1
_geom_bond_site_symmetry_2
Ca1 O1 1_555 1_555
N1 O3 1_555 1_555
O1 C1 1_555 1_555
O2 Ca1 1_555 1_555
O3 Ca1 1_555 1_555
O4 Ca1 1_555 1_555
O5 N1 1_555 1_555
C1 H1 1_555 1_555
H2 C1 1_555 1_555
C2 O2 1_555 1_555
H3 C2 1_555 1_555
H4 O1 1_555 1_555
H5 O2 1_555 1_555
C2D C2 1_555 1_555
O2D C2D 1_555 1_555
H5D O2D 1_555 1_555
C1D C2D 1_555 1_555
O1D C1D 1_555 1_555
H4D O1D 1_555 1_555
H1D C1D 1_555 1_555
H2D C1D 1_555 1_555
H3D C2D 1_555 1_555
N1F O3F 1_555 1_555
O3F Ca1 1_555 1_555
O4F Ca1 1_555 1_555
O5F N1F 1_555 1_555
O1F Ca1 1_555 1_555
O2F Ca1 1_555 1_555
Ca1B O2D 1_555 1_555
H4F O1F 1_555 1_555
H5F O2F 1_555 1_555
N1 O4 1_555 1_555
C1 C2 1_555 1_555
O1D Ca1B 1_555 1_555
N1F O4F 1_555 1_555

#END
