
#######################################################################
#
#                 Cambridge Crystallographic Data Centre
#                                CCDC 
#
#######################################################################
#
# If this CIF has been generated from an entry in the Cambridge 
# Structural Database, then it will include bibliographic, chemical, 
# crystal, experimental, refinement or atomic coordinate data resulting 
# from the CCDC's data processing and validation procedures.
#
#######################################################################

data_ELOFIU
_symmetry_cell_setting           orthorhombic
_symmetry_space_group_name_H-M   'F d d d'
_symmetry_Int_Tables_number      70
_space_group_name_Hall           '-F 2uv 2vw'
loop_
_symmetry_equiv_pos_site_id
_symmetry_equiv_pos_as_xyz
1 x,y,z
2 x,1/2+y,1/2+z
3 x,1/4-y,1/4-z
4 1/2+x,y,1/2+z
5 1/4-x,y,1/4-z
6 1/2+x,1/2+y,z
7 1/4-x,1/4-y,z
8 1/4+x,1/4+y,-z
9 1/4+x,-y,1/4+z
10 -x,1/4+y,1/4+z
11 1/4+x,3/4+y,1/2-z
12 1/4+x,1/2-y,3/4+z
13 3/4+x,1/4+y,1/2-z
14 1/2-x,1/4+y,3/4+z
15 3/4+x,1/2-y,1/4+z
16 1/2-x,3/4+y,1/4+z
17 -x,-y,-z
18 -x,1/2-y,1/2-z
19 -x,3/4+y,3/4+z
20 1/2-x,-y,1/2-z
21 3/4+x,-y,3/4+z
22 1/2-x,1/2-y,-z
23 3/4+x,3/4+y,-z
24 3/4-x,3/4-y,z
25 3/4-x,y,3/4-z
26 x,3/4-y,3/4-z
27 3/4-x,1/4-y,1/2+z
28 3/4-x,1/2+y,1/4-z
29 1/4-x,3/4-y,1/2+z
30 1/2+x,3/4-y,1/4-z
31 1/4-x,1/2+y,3/4-z
32 1/2+x,1/4-y,3/4-z
_cell_length_a                   11.6282(3)
_cell_length_b                   15.3443(4)
_cell_length_c                   22.2933(7)
_cell_angle_alpha                90
_cell_angle_beta                 90
_cell_angle_gamma                90
_cell_volume                     3977.72
loop_
_atom_site_label
_atom_site_type_symbol
_atom_site_fract_x
_atom_site_fract_y
_atom_site_fract_z
Ca1 Ca 0.1250 0.1250 0.1250
O1 O 0.0449(2) -0.00678(14) 0.07866(10)
O2 O -0.0245(2) 0.14985(15) 0.05168(11)
C1 C -0.0342(3) -0.0007(2) 0.02930(13)
H1 H -0.0855 -0.0513 0.0296
C2 C -0.1035(3) 0.0809(2) 0.03987(16)
H2 H -0.1494 0.0944 0.0048
H3 H -0.1547 0.0729 0.0738
H4 H 0.054(4) -0.0588(15) 0.0870(18)
H5 H -0.054(3) 0.1962(10) 0.046(2)
C1P C 0.0342(3) 0.0007(2) -0.02930(13)
O1P O -0.0449(2) 0.00678(14) -0.07866(10)
H4P H -0.054(4) 0.0588(15) -0.0870(18)
H1P H 0.0855 0.0513 -0.0296
C2P C 0.1035(3) -0.0809(2) -0.03987(16)
O2P O 0.0245(2) -0.14985(15) -0.05168(11)
H5P H 0.054(3) -0.1962(10) -0.046(2)
H2P H 0.1494 -0.0944 -0.0048
H3P H 0.1547 -0.0729 -0.0738
O1B O 0.0449(2) 0.25678(14) 0.17134(10)
O2B O -0.0245(2) 0.10015(15) 0.19832(11)
C1B C -0.0342(3) 0.2507(2) 0.22070(13)
H1B H -0.0855 0.3013 0.2204
C2B C -0.1035(3) 0.1691(2) 0.21013(16)
H2B H -0.1494 0.1556 0.2452
H3B H -0.1547 0.1771 0.1762
H4B H 0.054(4) 0.3088(15) 0.1630(18)
H5B H -0.054(3) 0.0538(10) 0.204(2)
C1I C 0.0342(3) 0.2493(2) 0.27930(13)
O1I O -0.0449(2) 0.24322(14) 0.32866(10)
H4I H -0.054(4) 0.1912(15) 0.3370(18)
H1I H 0.0855 0.1987 0.2796
C2I C 0.1035(3) 0.3309(2) 0.28987(16)
O2I O 0.0245(2) 0.39985(15) 0.30168(11)
H5I H 0.054(3) 0.4462(10) 0.296(2)
H2I H 0.1494 0.3444 0.2548
H3I H 0.1547 0.3229 0.3238
O1D O 0.2051(2) -0.00678(14) 0.17134(10)
O1F O 0.2051(2) 0.25678(14) 0.07866(10)
O2D O 0.2745(2) 0.14985(15) 0.19832(11)
O2F O 0.2745(2) 0.10015(15) 0.05168(11)
Ca1P Ca -0.1250 -0.1250 -0.1250
Ca1I Ca -0.1250 0.3750 0.3750
H4D H 0.196(4) -0.0588(15) 0.1630(18)
H4F H 0.196(4) 0.3088(15) 0.0870(18)
H5D H 0.304(3) 0.1962(10) 0.204(2)
H5F H 0.304(3) 0.0538(10) 0.046(2)
Cl1 Cl 0.1250 -0.18629(13) 0.1250
O3 O -0.1650(6) 0.2899(4) 0.0351(5)
H6 H -0.148(6) 0.289(4) -0.0076(11)
H7 H -0.117(4) 0.333(3) 0.0510(18)
loop_
_geom_bond_atom_site_label_1
_geom_bond_atom_site_label_2
_geom_bond_site_symmetry_1
_geom_bond_site_symmetry_2
Ca1 O1 1_555 1_555
O1 C1 1_555 1_555
O2 Ca1 1_555 1_555
O3 H6 1_555 1_555
C1 H1 1_555 1_555
C2 O2 1_555 1_555
H2 C2 1_555 1_555
H3 C2 1_555 1_555
H4 O1 1_555 1_555
H5 O2 1_555 1_555
H7 O3 1_555 1_555
C1P C1 1_555 1_555
O1P C1P 1_555 1_555
H4P O1P 1_555 1_555
H1P C1P 1_555 1_555
C2P C1P 1_555 1_555
O2P C2P 1_555 1_555
H5P O2P 1_555 1_555
H2P C2P 1_555 1_555
H3P C2P 1_555 1_555
O1B Ca1 1_555 1_555
O2B Ca1 1_555 1_555
C1B O1B 1_555 1_555
H1B C1B 1_555 1_555
C2B O2B 1_555 1_555
H2B C2B 1_555 1_555
H3B C2B 1_555 1_555
H4B O1B 1_555 1_555
H5B O2B 1_555 1_555
C1I C1B 1_555 1_555
O1I C1I 1_555 1_555
H4I O1I 1_555 1_555
H1I C1I 1_555 1_555
C2I C1I 1_555 1_555
O2I C2I 1_555 1_555
H5I O2I 1_555 1_555
H2I C2I 1_555 1_555
H3I C2I 1_555 1_555
O1D Ca1 1_555 1_555
O1F Ca1 1_555 1_555
O2D Ca1 1_555 1_555
O2F Ca1 1_555 1_555
Ca1P O1P 1_555 1_555
Ca1I O1I 1_555 1_555
H4D O1D 1_555 1_555
H4F O1F 1_555 1_555
H5D O2D 1_555 1_555
H5F O2F 1_555 1_555
C1 C2 1_555 1_555
O2P Ca1P 1_555 1_555
C1B C2B 1_555 1_555
O2I Ca1I 1_555 1_555

#END
