
#######################################################################
#
#                 Cambridge Crystallographic Data Centre
#                                CCDC 
#
#######################################################################
#
# If this CIF has been generated from an entry in the Cambridge 
# Structural Database, then it will include bibliographic, chemical, 
# crystal, experimental, refinement or atomic coordinate data resulting 
# from the CCDC's data processing and validation procedures.
#
#######################################################################

data_ELOFAM
_symmetry_cell_setting           monoclinic
_symmetry_space_group_name_H-M   'P 21/c'
_symmetry_Int_Tables_number      14
_space_group_name_Hall           '-P 2ybc'
loop_
_symmetry_equiv_pos_site_id
_symmetry_equiv_pos_as_xyz
1 x,y,z
2 x,1/2-y,1/2+z
3 -x,-y,-z
4 -x,1/2+y,1/2-z
_cell_length_a                   6.1950(2)
_cell_length_b                   5.9745(2)
_cell_length_c                   21.3602(10)
_cell_angle_alpha                90
_cell_angle_beta                 92.4364(14)
_cell_angle_gamma                90
_cell_volume                     789.87
loop_
_atom_site_label
_atom_site_type_symbol
_atom_site_fract_x
_atom_site_fract_y
_atom_site_fract_z
Ca1 Ca 0.05396(8) 0.80960(8) 0.34871(2)
Cl1 Cl 0.19776(10) 1.07706(9) 0.24173(3)
Cl2 Cl 0.35666(10) 1.05351(10) 0.41435(3)
O1 O 0.0873(3) 0.4922(3) 0.41870(8)
O2 O -0.2116(3) 0.7816(3) 0.42706(9)
O3 O -0.2040(3) 1.1064(3) 0.33567(10)
O4 O 0.3283(3) 0.5664(3) 0.31164(10)
C1 C -0.0528(4) 0.4535(4) 0.46986(12)
H1 H -0.0765 0.2923 0.4746
C2 C -0.2633(4) 0.5655(4) 0.45127(14)
H2 H -0.3418 0.4779 0.4196
H3 H -0.3524 0.5804 0.4873
H4 H 0.166(4) 0.384(4) 0.4158(14)
H5 H -0.314(4) 0.861(3) 0.4281(17)
H6 H -0.186(5) 1.235(4) 0.3127(14)
H7 H -0.345(3) 1.105(5) 0.3488(15)
H8 H 0.465(3) 0.601(4) 0.2975(15)
H9 H 0.282(4) 0.439(4) 0.2925(15)
C1B C 0.0528(4) 0.5465(4) 0.53014(12)
O1B O -0.0873(3) 0.5078(3) 0.58130(8)
H4B H -0.166(4) 0.616(4) 0.5842(14)
H1B H 0.0765 0.7077 0.5254
C2B C 0.2633(4) 0.4345(4) 0.54873(14)
O2B O 0.2116(3) 0.2184(3) 0.57294(9)
H5B H 0.314(4) 0.139(3) 0.5719(17)
H2B H 0.3418 0.5221 0.5804
H3B H 0.3524 0.4196 0.5127
Cl1C Cl -0.19776(10) 0.57706(9) 0.25827(3)
Ca1C Ca -0.05396(8) 0.30960(8) 0.15129(2)
Cl2C Cl -0.35666(10) 0.55351(10) 0.08565(3)
O3C O 0.2040(3) 0.6064(3) 0.16433(10)
H6C H 0.186(5) 0.735(4) 0.1873(14)
H7C H 0.345(3) 0.605(5) 0.1512(15)
O4C O -0.3283(3) 0.0664(3) 0.18836(10)
H8C H -0.465(3) 0.101(4) 0.2025(15)
H9C H -0.282(4) -0.061(4) 0.2075(15)
Ca1C_2 Ca -0.05396(8) 1.30960(8) 0.15129(2)
Ca1B Ca -0.05396(8) 0.19040(8) 0.65129(2)
Cl1_2 Cl 0.19776(10) 0.07706(9) 0.24173(3)
O1C O -0.0873(3) -0.0078(3) 0.08130(8)
O2C O 0.2116(3) 0.2816(3) 0.07294(9)
H4C H -0.166(4) -0.116(4) 0.0842(14)
H5C H 0.314(4) 0.361(3) 0.0719(17)
loop_
_geom_bond_atom_site_label_1
_geom_bond_atom_site_label_2
_geom_bond_site_symmetry_1
_geom_bond_site_symmetry_2
Ca1 Cl1 1_555 1_555
Cl1 Ca1C_2 1_555 1_555
Cl2 Ca1 1_555 1_555
O1 Ca1 1_555 1_555
O2 Ca1 1_555 1_555
O3 Ca1 1_555 1_555
O4 Ca1 1_555 1_555
C1 O1 1_555 1_555
H1 C1 1_555 1_555
C2 O2 1_555 1_555
H2 C2 1_555 1_555
H3 C2 1_555 1_555
H4 O1 1_555 1_555
H5 O2 1_555 1_555
H6 O3 1_555 1_555
H7 O3 1_555 1_555
H8 O4 1_555 1_555
H9 O4 1_555 1_555
C1B C1 1_555 1_555
O1B C1B 1_555 1_555
H4B O1B 1_555 1_555
H1B C1B 1_555 1_555
C2B C1B 1_555 1_555
O2B C2B 1_555 1_555
H5B O2B 1_555 1_555
H2B C2B 1_555 1_555
H3B C2B 1_555 1_555
Cl1C Ca1 1_555 1_555
Ca1C Cl1C 1_555 1_555
Cl2C Ca1C 1_555 1_555
O3C Ca1C 1_555 1_555
H6C O3C 1_555 1_555
H7C O3C 1_555 1_555
O4C Ca1C 1_555 1_555
H8C O4C 1_555 1_555
H9C O4C 1_555 1_555
Ca1B O1B 1_555 1_555
Cl1_2 Ca1C 1_555 1_555
O1C Ca1C 1_555 1_555
O2C Ca1C 1_555 1_555
H4C O1C 1_555 1_555
H5C O2C 1_555 1_555
C1 C2 1_555 1_555
O2B Ca1B 1_555 1_555

#END
