
#######################################################################
#
#                 Cambridge Crystallographic Data Centre
#                                CCDC 
#
#######################################################################
#
# If this CIF has been generated from an entry in the Cambridge 
# Structural Database, then it will include bibliographic, chemical, 
# crystal, experimental, refinement or atomic coordinate data resulting 
# from the CCDC's data processing and validation procedures.
#
#######################################################################

data_ELOGAN
_symmetry_cell_setting           triclinic
_symmetry_space_group_name_H-M   'P -1'
_symmetry_Int_Tables_number      2
_space_group_name_Hall           '-P 1'
loop_
_symmetry_equiv_pos_site_id
_symmetry_equiv_pos_as_xyz
1 x,y,z
2 -x,-y,-z
_cell_length_a                   7.5056(3)
_cell_length_b                   10.1631(4)
_cell_length_c                   10.3943(4)
_cell_angle_alpha                85.399(2)
_cell_angle_beta                 84.2317(17)
_cell_angle_gamma                78.6292(15)
_cell_volume                     771.896
loop_
_atom_site_label
_atom_site_type_symbol
_atom_site_fract_x
_atom_site_fract_y
_atom_site_fract_z
Nd1 Nd 0.24071(4) 0.74536(3) 0.75482(3)
Cl1 Cl 0.5530(2) 0.66943(15) 0.90741(14)
O1 O 0.0741(5) 0.8230(4) 0.9639(4)
O2 O 0.2911(5) 0.9617(4) 0.8367(4)
O3 O 0.4365(6) 0.5371(4) 0.6708(4)
O4 O 0.2113(5) 0.6851(4) 0.5284(4)
O5 O 0.4470(6) 0.8458(4) 0.6006(4)
O6 O 0.0491(6) 0.9377(4) 0.6474(4)
O7 O -0.0752(6) 0.6955(5) 0.7346(4)
O8 O 0.1791(6) 0.5472(4) 0.9038(4)
C1 C 0.0807(8) 0.9470(5) 1.0209(5)
H1 H 0.0718 0.9332 1.1155
C2 C 0.2644(8) 0.9807(6) 0.9729(5)
H2 H 0.2667 1.0731 0.9887
H3 H 0.3603 0.9222 1.0176
C3 C 0.4229(8) 0.4818(5) 0.5485(5)
H4 H 0.4358 0.3838 0.5604
C4 C 0.2351(8) 0.5431(5) 0.5113(6)
H5 H 0.2237 0.5277 0.4219
H6 H 0.1441 0.5042 0.5662
H7 H 0.036(11) 0.772(4) 1.022(3)
H8 H 0.380(7) 0.992(7) 0.805(3)
H9 H 0.543(4) 0.514(7) 0.688(5)
H10 H 0.130(8) 0.725(3) 0.485(6)
H11 H 0.518(9) 0.901(7) 0.632(6)
H12 H 0.473(10) 0.847(7) 0.509(2)
H13 H -0.081(3) 0.967(6) 0.650(7)
H14 H 0.098(8) 1.013(5) 0.610(7)
H15 H -0.096(9) 0.723(8) 0.647(3)
H16 H -0.191(5) 0.705(8) 0.782(5)
H17 H 0.109(8) 0.487(5) 0.881(7)
H18 H 0.269(7) 0.497(6) 0.955(6)
C1A C -0.0807(8) 1.0530(5) 0.9791(5)
O1A O -0.0741(5) 1.1770(4) 1.0361(4)
H7A H -0.036(11) 1.228(4) 0.978(3)
H1A H -0.0718 1.0668 0.8845
C2A C -0.2644(8) 1.0193(6) 1.0271(5)
O2A O -0.2911(5) 1.0383(4) 1.1633(4)
H8A H -0.380(7) 1.008(7) 1.195(3)
H2A H -0.2667 0.9269 1.0113
H3A H -0.3603 1.0778 0.9824
C3A C 0.5771(8) 0.5182(5) 0.4515(5)
O3A O 0.5635(6) 0.4629(4) 0.3292(4)
H9A H 0.457(4) 0.486(7) 0.312(5)
H4A H 0.5642 0.6162 0.4396
C4A C 0.7649(8) 0.4569(5) 0.4887(6)
O4A O 0.7887(5) 0.3149(4) 0.4716(4)
H10A H 0.870(8) 0.275(3) 0.515(6)
H5A H 0.7763 0.4723 0.5781
H6A H 0.8559 0.4958 0.4338
Nd1A Nd -0.24071(4) 1.25464(3) 1.24518(3)
Cl1A Cl -0.5530(2) 1.33057(15) 1.09259(14)
O5A O -0.4470(6) 1.1542(4) 1.3994(4)
H11A H -0.518(9) 1.099(7) 1.368(6)
H12A H -0.473(10) 1.153(7) 1.491(2)
O6A O -0.0491(6) 1.0623(4) 1.3526(4)
H13A H 0.081(3) 1.033(6) 1.350(7)
H14A H -0.098(8) 0.987(5) 1.390(7)
O7A O 0.0752(6) 1.3045(5) 1.2654(4)
H15A H 0.096(9) 1.277(8) 1.353(3)
H16A H 0.191(5) 1.295(8) 1.218(5)
O8A O -0.1791(6) 1.4528(4) 1.0962(4)
H17A H -0.109(8) 1.513(5) 1.119(7)
H18A H -0.269(7) 1.503(6) 1.045(6)
Nd1A_2 Nd 0.75929(4) 0.25464(3) 0.24518(3)
O3A_2 O -0.4365(6) 1.4629(4) 1.3292(4)
O4A_2 O -0.2113(5) 1.3149(4) 1.4716(4)
H9A_2 H -0.543(4) 1.486(7) 1.312(5)
H10A_2 H -0.130(8) 1.275(3) 1.515(6)
Cl2 Cl 0.6322(2) 1.06526(15) 0.69876(15)
Cl3 Cl -0.1576(2) 0.78531(14) 0.43037(15)
O9 O -0.0150(7) 0.6566(5) 1.1683(4)
H19 H 0.108(5) 0.636(11) 1.189(9)
H20 H -0.084(11) 0.701(10) 1.240(7)
O10 O 0.6430(7) 0.3393(4) 0.8056(4)
H21 H 0.580(13) 0.329(10) 0.890(4)
H22 H 0.608(14) 0.273(8) 0.757(7)
loop_
_geom_bond_atom_site_label_1
_geom_bond_atom_site_label_2
_geom_bond_site_symmetry_1
_geom_bond_site_symmetry_2
Nd1 Cl1 1_555 1_555
O1 Nd1 1_555 1_555
O2 Nd1 1_555 1_555
O3 Nd1 1_555 1_555
O4 Nd1 1_555 1_555
O5 Nd1 1_555 1_555
O6 Nd1 1_555 1_555
O7 Nd1 1_555 1_555
O8 Nd1 1_555 1_555
O9 H19 1_555 1_555
O10 H21 1_555 1_555
C1 O1 1_555 1_555
H1 C1 1_555 1_555
C2 O2 1_555 1_555
H2 C2 1_555 1_555
H3 C2 1_555 1_555
C3 O3 1_555 1_555
H4 C3 1_555 1_555
C4 O4 1_555 1_555
H5 C4 1_555 1_555
H6 C4 1_555 1_555
H7 O1 1_555 1_555
H8 O2 1_555 1_555
H9 O3 1_555 1_555
H10 O4 1_555 1_555
H11 O5 1_555 1_555
H12 O5 1_555 1_555
H13 O6 1_555 1_555
H14 O6 1_555 1_555
H15 O7 1_555 1_555
H16 O7 1_555 1_555
H17 O8 1_555 1_555
H18 O8 1_555 1_555
H20 O9 1_555 1_555
H22 O10 1_555 1_555
C1A C1 1_555 1_555
O1A C1A 1_555 1_555
H7A O1A 1_555 1_555
H1A C1A 1_555 1_555
C2A C1A 1_555 1_555
O2A C2A 1_555 1_555
H8A O2A 1_555 1_555
H2A C2A 1_555 1_555
H3A C2A 1_555 1_555
C3A C3 1_555 1_555
O3A C3A 1_555 1_555
H9A O3A 1_555 1_555
H4A C3A 1_555 1_555
C4A C3A 1_555 1_555
O4A C4A 1_555 1_555
H10A O4A 1_555 1_555
H5A C4A 1_555 1_555
H6A C4A 1_555 1_555
Nd1A O1A 1_555 1_555
Cl1A Nd1A 1_555 1_555
O5A Nd1A 1_555 1_555
H11A O5A 1_555 1_555
H12A O5A 1_555 1_555
O6A Nd1A 1_555 1_555
H13A O6A 1_555 1_555
H14A O6A 1_555 1_555
O7A Nd1A 1_555 1_555
H15A O7A 1_555 1_555
H16A O7A 1_555 1_555
O8A Nd1A 1_555 1_555
H17A O8A 1_555 1_555
H18A O8A 1_555 1_555
Nd1A_2 O3A 1_555 1_555
O3A_2 Nd1A 1_555 1_555
O4A_2 Nd1A 1_555 1_555
H9A_2 O3A_2 1_555 1_555
H10A_2 O4A_2 1_555 1_555
C1 C2 1_555 1_555
C3 C4 1_555 1_555
O2A Nd1A 1_555 1_555
O4A Nd1A_2 1_555 1_555

#END
