
#######################################################################
#
#                 Cambridge Crystallographic Data Centre
#                                CCDC 
#
#######################################################################
#
# If this CIF has been generated from an entry in the Cambridge 
# Structural Database, then it will include bibliographic, chemical, 
# crystal, experimental, refinement or atomic coordinate data resulting 
# from the CCDC's data processing and validation procedures.
#
#######################################################################

data_ELOHIW
_symmetry_cell_setting           monoclinic
_symmetry_space_group_name_H-M   'P 21/n'
_symmetry_Int_Tables_number      14
_space_group_name_Hall           '-P 2yn'
loop_
_symmetry_equiv_pos_site_id
_symmetry_equiv_pos_as_xyz
1 x,y,z
2 1/2+x,1/2-y,1/2+z
3 -x,-y,-z
4 1/2-x,1/2+y,1/2-z
_cell_length_a                   13.462(3)
_cell_length_b                   10.275(2)
_cell_length_c                   19.579(4)
_cell_angle_alpha                90
_cell_angle_beta                 105.21(3)
_cell_angle_gamma                90
_cell_volume                     2613.34
loop_
_atom_site_label
_atom_site_type_symbol
_atom_site_fract_x
_atom_site_fract_y
_atom_site_fract_z
Cu1 Cu 0.49966(2) 0.85329(3) 0.040598(16)
Cu2 Cu 0.62599(3) 0.43636(3) 0.166002(18)
C1 C 0.4800(2) 0.5238(3) 0.24073(15)
C2 C 0.5242(3) 0.6565(3) 0.23251(16)
C3 C 0.5333(2) 0.6840(3) 0.15854(14)
O1 O 0.52187(18) 0.4250(2) 0.22087(11)
O2 O 0.55689(17) 0.5966(2) 0.12115(11)
O3 O 0.4077(2) 0.5154(3) 0.26873(16)
O4 O 0.51557(15) 0.8004(2) 0.13801(10)
C4 C 0.54331(19) 1.1726(3) 0.10279(13)
C5 C 0.5741(2) 1.1323(3) 0.17949(15)
C6 C 0.6854(2) 1.1717(3) 0.21535(14)
O5 O 0.53998(16) 1.28895(19) 0.08492(10)
O6 O 0.70893(16) 1.2918(2) 0.21569(11)
O7 O 0.52340(14) 1.08089(19) 0.05672(10)
O8 O 0.7467(2) 1.0846(2) 0.24163(14)
N1 N 0.34271(17) 0.8604(2) 0.03290(13)
N2 N -0.34738(16) 0.8325(2) 0.05028(12)
N3 N 0.7298(2) 0.4594(2) 0.10875(13)
C7 C 0.2706(2) 0.8465(3) -0.02884(16)
C8 C 0.1665(2) 0.8427(3) -0.03352(17)
C9 C 0.1314(2) 0.8520(3) 0.02669(16)
C10 C 0.2059(2) 0.8716(4) 0.09010(17)
C11 C 0.3088(2) 0.8758(4) 0.09111(17)
C12 C -0.2799(2) 0.8458(3) 0.11399(15)
C13 C -0.1751(2) 0.8447(3) 0.12281(16)
C14 C -0.1342(2) 0.8333(3) 0.06455(15)
C15 C -0.2048(2) 0.8179(3) -0.00128(16)
C16 C -0.3088(2) 0.8176(3) -0.00614(15)
C17 C 0.0211(2) 0.8416(3) 0.02043(18)
C18 C -0.0231(2) 0.8411(3) 0.07373(18)
C19 C 0.7010(3) 0.4791(4) 0.03934(18)
C20 C 0.7699(3) 0.4925(4) -0.00154(19)
C21 C 0.8759(3) 0.4874(3) 0.03121(19)
C22 C 0.9051(3) 0.4676(4) 0.1036(2)
C23 C 0.8308(3) 0.4534(3) 0.14035(19)
C24 C 0.9502(3) 0.5013(4) -0.0117(2)
H1 H 0.604(3) 0.665(4) 0.2652(19)
H2 H 0.494(3) 0.716(4) 0.248(2)
H3 H 0.531(3) 1.168(4) 0.2043(19)
H4 H 0.566(3) 1.044(3) 0.1844(17)
H5 H 0.292(3) 0.841(4) -0.072(2)
H6 H 0.124(3) 0.824(4) -0.078(2)
H7 H 0.193(3) 0.892(4) 0.1341(18)
H8 H 0.357(3) 0.879(3) 0.1315(17)
H9 H -0.306(3) 0.856(3) 0.1548(16)
H10 H -0.126(3) 0.856(3) 0.1725(17)
H11 H -0.184(3) 0.807(4) -0.043(2)
H12 H -0.350(3) 0.803(4) -0.053(2)
H13 H -0.023(4) 0.826(5) -0.026(2)
H14 H 0.011(5) 0.872(5) 0.126(3)
H15 H 0.632(4) 0.472(4) 0.019(2)
H16 H 0.746(4) 0.518(5) -0.049(2)
H17 H 0.970(5) 0.452(5) 0.135(3)
H18 H 0.853(3) 0.443(4) 0.182(2)
H19 H 0.923(3) 0.513(4) -0.053(2)
C24B C 1.0498(3) 0.4987(4) 0.0117(2)
C21B C 1.1241(3) 0.5126(3) -0.03121(19)
C20B C 1.2301(3) 0.5075(4) 0.00154(19)
C19B C 1.2990(3) 0.5209(4) -0.03934(18)
N3B N 1.2702(2) 0.5406(2) -0.10875(13)
C23B C 1.1692(3) 0.5466(3) -0.14035(19)
C22B C 1.0949(3) 0.5324(4) -0.1036(2)
H17B H 1.030(5) 0.548(5) -0.135(3)
H18B H 1.147(3) 0.557(4) -0.182(2)
H15B H 1.368(4) 0.528(4) -0.019(2)
H16B H 1.254(4) 0.482(5) 0.049(2)
H19B H 1.077(3) 0.487(4) 0.053(2)
C4B C 0.45669(19) 0.8274(3) -0.10279(13)
C5B C 0.4259(2) 0.8677(3) -0.17949(15)
C6B C 0.3146(2) 0.8283(3) -0.21535(14)
O5B O 0.46002(16) 0.71105(19) -0.08492(10)
O6B O 0.29107(16) 0.7082(2) -0.21569(11)
O7B O 0.47660(14) 0.91911(19) -0.05672(10)
O8B O 0.2533(2) 0.9154(2) -0.24163(14)
H3B H 0.469(3) 0.832(4) -0.2043(19)
H4B H 0.434(3) 0.956(3) -0.1844(17)
N1_2 N 1.34271(17) 0.8604(2) 0.03290(13)
N2_2 N 0.65262(16) 0.8325(2) 0.05028(12)
C7_2 C 1.2706(2) 0.8465(3) -0.02884(16)
C8_2 C 1.1665(2) 0.8427(3) -0.03352(17)
C9_2 C 1.1314(2) 0.8520(3) 0.02669(16)
C10_2 C 1.2059(2) 0.8716(4) 0.09010(17)
C11_2 C 1.3088(2) 0.8758(4) 0.09111(17)
C12_2 C 0.7201(2) 0.8458(3) 0.11399(15)
C13_2 C 0.8249(2) 0.8447(3) 0.12281(16)
C14_2 C 0.8658(2) 0.8333(3) 0.06455(15)
C15_2 C 0.7952(2) 0.8179(3) -0.00128(16)
C16_2 C 0.6912(2) 0.8176(3) -0.00614(15)
C17_2 C 1.0211(2) 0.8416(3) 0.02043(18)
C18_2 C 0.9769(2) 0.8411(3) 0.07373(18)
H5_2 H 1.292(3) 0.841(4) -0.072(2)
H6_2 H 1.124(3) 0.824(4) -0.078(2)
H7_2 H 1.193(3) 0.892(4) 0.1341(18)
H8_2 H 1.357(3) 0.879(3) 0.1315(17)
H9_2 H 0.694(3) 0.856(3) 0.1548(16)
H10_2 H 0.874(3) 0.856(3) 0.1725(17)
H11_2 H 0.816(3) 0.807(4) -0.043(2)
H12_2 H 0.650(3) 0.803(4) -0.053(2)
H13_2 H 0.977(4) 0.826(5) -0.026(2)
H14_2 H 1.011(5) 0.872(5) 0.126(3)
Cu1B Cu 0.50034(2) 1.14671(3) -0.040598(16)
Cu2_2 Cu 0.62599(3) 1.43636(3) 0.166002(18)
C1B C 0.5200(2) 1.4762(3) -0.24073(15)
C2B C 0.4758(3) 1.3435(3) -0.23251(16)
C3B C 0.4667(2) 1.3160(3) -0.15854(14)
O1B O 0.47813(18) 1.5750(2) -0.22087(11)
O2B O 0.44311(17) 1.4034(2) -0.12115(11)
O3B O 0.5923(2) 1.4846(3) -0.26873(16)
O4B O 0.48443(15) 1.1996(2) -0.13801(10)
H1B H 0.396(3) 1.335(4) -0.2652(19)
H2B H 0.506(3) 1.284(4) -0.248(2)
O5_2 O 0.53998(16) 0.28895(19) 0.08492(10)
O6_2 O 0.70893(16) 0.2918(2) 0.21569(11)
Cu1_2 Cu -0.50034(2) 0.85329(3) 0.040598(16)
Cu2B Cu 1.37401(3) 0.56364(3) -0.166002(18)
Cu2B_2 Cu 0.37401(3) 0.56364(3) -0.166002(18)
Cu1_3 Cu 1.49966(2) 0.85329(3) 0.040598(16)
N1B N 0.65729(17) 1.1396(2) -0.03290(13)
N2B N 0.34738(16) 1.1675(2) -0.05028(12)
O1_2 O 0.52187(18) 1.4250(2) 0.22087(11)
O2_2 O 0.55689(17) 1.5966(2) 0.12115(11)
N3_2 N 0.7298(2) 1.4594(2) 0.10875(13)
Cu2B_3 Cu 0.37401(3) 1.56364(3) -0.166002(18)
O9 O 0.3582(3) 0.7327(4) 0.34288(17)
O10 O 0.1807(4) 0.4831(5) 0.2166(3)
O11 O 0.3583(4) 0.2151(5) 0.2216(4)
loop_
_geom_bond_atom_site_label_1
_geom_bond_atom_site_label_2
_geom_bond_site_symmetry_1
_geom_bond_site_symmetry_2
Cu1 O4 1_555 1_555
Cu2 O1 1_555 1_555
C1 C2 1_555 1_555
C2 C3 1_555 1_555
C3 O2 1_555 1_555
O1 C1 1_555 1_555
O2 Cu2 1_555 1_555
O3 C1 1_555 1_555
O4 C3 1_555 1_555
C4 C5 1_555 1_555
C5 C6 1_555 1_555
C6 O6 1_555 1_555
O5 C4 1_555 1_555
O6 Cu2_2 1_555 1_555
O7 Cu1 1_555 1_555
O8 C6 1_555 1_555
N1 Cu1 1_555 1_555
N2 C12 1_555 1_555
N3 Cu2 1_555 1_555
C7 N1 1_555 1_555
C8 C7 1_555 1_555
C9 C8 1_555 1_555
C10 C9 1_555 1_555
C11 N1 1_555 1_555
C12 C13 1_555 1_555
C13 C14 1_555 1_555
C14 C15 1_555 1_555
C15 C16 1_555 1_555
C16 N2 1_555 1_555
C17 C9 1_555 1_555
C18 C14 1_555 1_555
C19 N3 1_555 1_555
C20 C19 1_555 1_555
C21 C20 1_555 1_555
C22 C21 1_555 1_555
C23 N3 1_555 1_555
C24 C21 1_555 1_555
H1 C2 1_555 1_555
H2 C2 1_555 1_555
H3 C5 1_555 1_555
H4 C5 1_555 1_555
H5 C7 1_555 1_555
H6 C8 1_555 1_555
H7 C10 1_555 1_555
H8 C11 1_555 1_555
H9 C12 1_555 1_555
H10 C13 1_555 1_555
H11 C15 1_555 1_555
H12 C16 1_555 1_555
H13 C17 1_555 1_555
H14 C18 1_555 1_555
H15 C19 1_555 1_555
H16 C20 1_555 1_555
H17 C22 1_555 1_555
H18 C23 1_555 1_555
H19 C24 1_555 1_555
C24B C24 1_555 1_555
C21B C24B 1_555 1_555
C20B C21B 1_555 1_555
C19B C20B 1_555 1_555
N3B C19B 1_555 1_555
C23B N3B 1_555 1_555
C22B C21B 1_555 1_555
H17B C22B 1_555 1_555
H18B C23B 1_555 1_555
H15B C19B 1_555 1_555
H16B C20B 1_555 1_555
H19B C24B 1_555 1_555
C4B C5B 1_555 1_555
C5B C6B 1_555 1_555
C6B O6B 1_555 1_555
O5B C4B 1_555 1_555
O6B Cu2B_2 1_555 1_555
O7B Cu1 1_555 1_555
O8B C6B 1_555 1_555
H3B C5B 1_555 1_555
H4B C5B 1_555 1_555
N1_2 C7_2 1_555 1_555
N2_2 Cu1 1_555 1_555
C7_2 C8_2 1_555 1_555
C8_2 C9_2 1_555 1_555
C9_2 C10_2 1_555 1_555
C10_2 C11_2 1_555 1_555
C11_2 N1_2 1_555 1_555
C12_2 N2_2 1_555 1_555
C13_2 C12_2 1_555 1_555
C14_2 C13_2 1_555 1_555
C15_2 C14_2 1_555 1_555
C16_2 N2_2 1_555 1_555
C17_2 C9_2 1_555 1_555
C18_2 C14_2 1_555 1_555
H5_2 C7_2 1_555 1_555
H6_2 C8_2 1_555 1_555
H7_2 C10_2 1_555 1_555
H8_2 C11_2 1_555 1_555
H9_2 C12_2 1_555 1_555
H10_2 C13_2 1_555 1_555
H11_2 C15_2 1_555 1_555
H12_2 C16_2 1_555 1_555
H13_2 C17_2 1_555 1_555
H14_2 C18_2 1_555 1_555
Cu1B O7 1_555 1_555
Cu2_2 O5 1_555 1_555
C1B C2B 1_555 1_555
C2B C3B 1_555 1_555
C3B O2B 1_555 1_555
O1B C1B 1_555 1_555
O2B Cu2B_3 1_555 1_555
O3B C1B 1_555 1_555
O4B Cu1B 1_555 1_555
H1B C2B 1_555 1_555
H2B C2B 1_555 1_555
O5_2 Cu2 1_555 1_555
O6_2 Cu2 1_555 1_555
Cu1_2 N2 1_555 1_555
Cu2B N3B 1_555 1_555
Cu2B_2 O5B 1_555 1_555
Cu1_3 N1_2 1_555 1_555
N1B Cu1B 1_555 1_555
N2B Cu1B 1_555 1_555
O1_2 Cu2_2 1_555 1_555
O2_2 Cu2_2 1_555 1_555
N3_2 Cu2_2 1_555 1_555
Cu2B_3 O1B 1_555 1_555
C4 O7 1_555 1_555
C10 C11 1_555 1_555
C17 C18 1_555 1_555
C22 C23 1_555 1_555
C23B C22B 1_555 1_555
C4B O7B 1_555 1_555
O7B Cu1B 1_555 1_555
C15_2 C16_2 1_555 1_555
C17_2 C18_2 1_555 1_555
C3B O4B 1_555 1_555

#END
