
#######################################################################
#
#                 Cambridge Crystallographic Data Centre
#                                CCDC 
#
#######################################################################
#
# If this CIF has been generated from an entry in the Cambridge 
# Structural Database, then it will include bibliographic, chemical, 
# crystal, experimental, refinement or atomic coordinate data resulting 
# from the CCDC's data processing and validation procedures.
#
#######################################################################

data_ELOKIZ
_symmetry_cell_setting           monoclinic
_symmetry_space_group_name_H-M   'P 21/c'
_symmetry_Int_Tables_number      14
_space_group_name_Hall           '-P 2ybc'
loop_
_symmetry_equiv_pos_site_id
_symmetry_equiv_pos_as_xyz
1 x,y,z
2 x,1/2-y,1/2+z
3 -x,-y,-z
4 -x,1/2+y,1/2-z
_cell_length_a                   5.7681(2)
_cell_length_b                   21.1759(8)
_cell_length_c                   11.4656(5)
_cell_angle_alpha                90
_cell_angle_beta                 96.7636(13)
_cell_angle_gamma                90
_cell_volume                     1390.72
loop_
_atom_site_label
_atom_site_type_symbol
_atom_site_fract_x
_atom_site_fract_y
_atom_site_fract_z
Rb1 Rb 0.76404(6) 0.04671(2) 0.06469(3)
O1 O 0.2802(4) 0.03762(12) 0.1171(2)
C1 C 0.3467(6) 0.06119(18) 0.2213(3)
C2 C 0.5117(6) 0.03055(18) 0.3057(3)
C3 C 0.5799(7) 0.0584(2) 0.4150(4)
C4 C 0.4888(7) 0.1148(2) 0.4484(4)
C5 C 0.3250(7) 0.1450(2) 0.3689(4)
C6 C 0.2557(6) 0.12051(19) 0.2578(3)
C7 C 0.6065(6) -0.03341(19) 0.2841(3)
C8 C 0.4630(6) -0.08102(19) 0.2300(3)
C9 C 0.5444(7) -0.1428(2) 0.2240(4)
C10 C 0.7704(7) -0.1580(2) 0.2726(4)
C11 C 0.9147(7) -0.1111(2) 0.3231(4)
C12 C 0.8355(7) -0.0503(2) 0.3282(4)
C13 C 0.0826(6) 0.15712(18) 0.1779(3)
C14 C -0.1223(6) 0.17910(19) 0.2197(4)
C15 C -0.2839(7) 0.2148(2) 0.1481(4)
C16 C -0.2481(7) 0.2285(2) 0.0353(4)
C17 C -0.0470(7) 0.2061(2) -0.0084(4)
C18 C 0.1168(6) 0.17072(19) 0.0622(3)
H1 H 0.6935 0.0376 0.4683
H2 H 0.5366 0.1325 0.5235
H3 H 0.2582 0.1835 0.3912
H4 H 0.3085 -0.0711 0.1970
H5 H 0.4457 -0.1746 0.1868
H6 H 0.8246 -0.2003 0.2709
H7 H 1.0702 -0.1210 0.3546
H8 H 0.9385 -0.0187 0.3626
H9 H -0.1507 0.1694 0.2977
H10 H -0.4205 0.2298 0.1780
H11 H -0.3588 0.2531 -0.0132
H12 H -0.0222 0.2152 -0.0871
H13 H 0.2525 0.1557 0.0315
O1_2 O 1.2802(4) 0.03762(12) 0.1171(2)
O1B O 0.7198(4) -0.03762(12) -0.1171(2)
Rb1_2 Rb -0.23596(6) 0.04671(2) 0.06469(3)
Rb1B Rb 0.23596(6) -0.04671(2) -0.06469(3)
loop_
_geom_bond_atom_site_label_1
_geom_bond_atom_site_label_2
_geom_bond_site_symmetry_1
_geom_bond_site_symmetry_2
Rb1 O1 1_555 1_555
O1 C1 1_555 1_555
C1 C2 1_555 1_555
C2 C3 1_555 1_555
C3 C4 1_555 1_555
C4 C5 1_555 1_555
C5 C6 1_555 1_555
C6 C1 1_555 1_555
C7 C2 1_555 1_555
C8 C7 1_555 1_555
C9 C8 1_555 1_555
C10 C9 1_555 1_555
C11 C10 1_555 1_555
C12 C7 1_555 1_555
C13 C6 1_555 1_555
C14 C13 1_555 1_555
C15 C14 1_555 1_555
C16 C15 1_555 1_555
C17 C16 1_555 1_555
C18 C13 1_555 1_555
H1 C3 1_555 1_555
H2 C4 1_555 1_555
H3 C5 1_555 1_555
H4 C8 1_555 1_555
H5 C9 1_555 1_555
H6 C10 1_555 1_555
H7 C11 1_555 1_555
H8 C12 1_555 1_555
H9 C14 1_555 1_555
H10 C15 1_555 1_555
H11 C16 1_555 1_555
H12 C17 1_555 1_555
H13 C18 1_555 1_555
O1_2 Rb1 1_555 1_555
O1B Rb1 1_555 1_555
Rb1_2 O1 1_555 1_555
Rb1B O1 1_555 1_555
C11 C12 1_555 1_555
C17 C18 1_555 1_555
O1B Rb1B 1_555 1_555

#END
