
#######################################################################
#
#                 Cambridge Crystallographic Data Centre
#                                CCDC 
#
#######################################################################
#
# If this CIF has been generated from an entry in the Cambridge 
# Structural Database, then it will include bibliographic, chemical, 
# crystal, experimental, refinement or atomic coordinate data resulting 
# from the CCDC's data processing and validation procedures.
#
#######################################################################

data_ELORED
_symmetry_cell_setting           triclinic
_symmetry_space_group_name_H-M   'P -1'
_symmetry_Int_Tables_number      2
_space_group_name_Hall           '-P 1'
loop_
_symmetry_equiv_pos_site_id
_symmetry_equiv_pos_as_xyz
1 x,y,z
2 -x,-y,-z
_cell_length_a                   8.968(9)
_cell_length_b                   11.101(10)
_cell_length_c                   12.888(12)
_cell_angle_alpha                93.496(15)
_cell_angle_beta                 106.649(15)
_cell_angle_gamma                103.337(13)
_cell_volume                     1184.94
loop_
_atom_site_label
_atom_site_type_symbol
_atom_site_fract_x
_atom_site_fract_y
_atom_site_fract_z
Eu1 Eu 0.07662(4) 0.85066(3) 0.16332(3)
N1 N 0.2304(8) 0.9670(5) 0.3594(5)
N2 N 0.3422(9) 1.0277(5) 0.1875(5)
N3 N -0.2492(9) 0.8463(6) 0.1672(7)
O1 O -0.1396(9) 0.8604(6) 0.2549(6)
O2 O -0.2272(7) 0.8098(5) 0.0799(5)
O3 O -0.3794(9) 0.8728(7) 0.1644(6)
O4 O 0.0506(8) 0.8396(5) -0.0198(5)
O5 O -0.0189(7) 0.9525(4) -0.1535(5)
O6 O 0.2982(8) 0.7585(6) 0.1574(7)
H1 H 0.2786 0.6978 0.1243
H2 H 0.3536 0.7956 0.1269
O7 O 0.0308(7) 0.3854(4) -0.1157(4)
O8 O -0.0749(8) 0.3070(4) -0.2906(5)
C1 C 0.1761(11) 0.9382(7) 0.4431(7)
H4 H 0.0921 0.8669 0.4323
C2 C 0.2388(11) 1.0098(7) 0.5466(7)
H5 H 0.1944 0.9877 0.6019
C3 C 0.3656(12) 1.1121(8) 0.5652(8)
H6 H 0.4097 1.1594 0.6340
C4 C 0.4312(10) 1.1469(7) 0.4788(7)
C5 C 0.5645(13) 1.2517(8) 0.4920(8)
H7 H 0.6127 1.3010 0.5597
C6 C 0.6215(11) 1.2808(8) 0.4095(8)
H8 H 0.7082 1.3501 0.4202
C7 C 0.5502(10) 1.2057(7) 0.3039(8)
C8 C 0.6069(11) 1.2313(7) 0.2125(8)
H9 H 0.6959 1.2978 0.2203
C9 C 0.5312(11) 1.1589(8) 0.1146(8)
H10 H 0.5662 1.1761 0.0545
C10 C 0.3986(11) 1.0574(7) 0.1051(7)
H11 H 0.3477 1.0084 0.0374
C11 C 0.3567(10) 1.0698(6) 0.3768(7)
C12 C 0.4175(9) 1.1008(6) 0.2865(6)
C13 C 0.0091(9) 0.8545(6) -0.1189(7)
C14 C -0.0122(9) 0.7452(6) -0.2035(6)
C15 C 0.0026(9) 0.6290(6) -0.1705(6)
H12 H 0.0274 0.6192 -0.0969
C16 C -0.0198(9) 0.5292(6) -0.2481(6)
C17 C -0.0508(11) 0.5441(7) -0.3577(7)
H13 H -0.0625 0.4770 -0.4089
C18 C -0.0646(12) 0.6592(7) -0.3918(7)
H14 H -0.0867 0.6692 -0.4653
C19 C -0.0443(11) 0.7594(7) -0.3127(7)
H15 H -0.0526 0.8366 -0.3343
C20 C -0.0201(10) 0.3989(6) -0.2172(7)
Eu1A Eu -0.07662(4) 1.14934(3) -0.16332(3)
Eu1A_2 Eu -0.07662(4) 0.14934(3) -0.16332(3)
O5A O 0.0189(7) 1.0475(4) 0.1535(5)
O7A O -0.0308(7) 0.6146(4) 0.1157(4)
O8A O 0.0749(8) 0.6930(4) 0.2906(5)
O9 O 0.2880(9) 0.5323(6) 0.0579(7)
H3 H 0.2100 0.4877 0.0053
C21 C 0.519(2) 0.5361(14) 0.2094(16)
H16 H 0.5823 0.4831 0.2453
H17 H 0.4743 0.5717 0.2595
H18 H 0.5854 0.6017 0.1851
C22 C 0.3866(16) 0.4617(10) 0.1144(11)
H19 H 0.4322 0.4246 0.0648
H20 H 0.3214 0.3942 0.1394
loop_
_geom_bond_atom_site_label_1
_geom_bond_atom_site_label_2
_geom_bond_site_symmetry_1
_geom_bond_site_symmetry_2
Eu1 N1 1_555 1_555
N1 C1 1_555 1_555
N2 Eu1 1_555 1_555
N3 O1 1_555 1_555
O1 Eu1 1_555 1_555
O2 Eu1 1_555 1_555
O3 N3 1_555 1_555
O4 Eu1 1_555 1_555
O5 C13 1_555 1_555
O6 Eu1 1_555 1_555
H1 O6 1_555 1_555
H2 O6 1_555 1_555
O7 C20 1_555 1_555
O8 C20 1_555 1_555
O9 H3 1_555 1_555
C1 H4 1_555 1_555
C2 C1 1_555 1_555
H5 C2 1_555 1_555
C3 C2 1_555 1_555
H6 C3 1_555 1_555
C4 C3 1_555 1_555
C5 C4 1_555 1_555
H7 C5 1_555 1_555
C6 C5 1_555 1_555
H8 C6 1_555 1_555
C7 C6 1_555 1_555
C8 C7 1_555 1_555
H9 C8 1_555 1_555
C9 C8 1_555 1_555
H10 C9 1_555 1_555
C10 N2 1_555 1_555
H11 C10 1_555 1_555
C11 N1 1_555 1_555
C12 N2 1_555 1_555
C13 O4 1_555 1_555
C14 C13 1_555 1_555
C15 C14 1_555 1_555
H12 C15 1_555 1_555
C16 C15 1_555 1_555
C17 C16 1_555 1_555
H13 C17 1_555 1_555
C18 C17 1_555 1_555
H14 C18 1_555 1_555
C19 C14 1_555 1_555
H15 C19 1_555 1_555
C20 C16 1_555 1_555
C21 H16 1_555 1_555
H17 C21 1_555 1_555
H18 C21 1_555 1_555
C22 O9 1_555 1_555
H19 C22 1_555 1_555
H20 C22 1_555 1_555
Eu1A O5 1_555 1_555
Eu1A_2 O7 1_555 1_555
O5A Eu1 1_555 1_555
O7A Eu1 1_555 1_555
O8A Eu1 1_555 1_555
N3 O2 1_555 1_555
O8 Eu1A_2 1_555 1_555
C4 C11 1_555 1_555
C7 C12 1_555 1_555
C9 C10 1_555 1_555
C11 C12 1_555 1_555
C18 C19 1_555 1_555
C21 C22 1_555 1_555

#END
