
#######################################################################
#
#                 Cambridge Crystallographic Data Centre
#                                CCDC 
#
#######################################################################
#
# If this CIF has been generated from an entry in the Cambridge 
# Structural Database, then it will include bibliographic, chemical, 
# crystal, experimental, refinement or atomic coordinate data resulting 
# from the CCDC's data processing and validation procedures.
#
#######################################################################

data_ELOYOT
_symmetry_cell_setting           orthorhombic
_symmetry_space_group_name_H-M   'P b c a'
_symmetry_Int_Tables_number      61
_space_group_name_Hall           '-P 2ac 2ab'
loop_
_symmetry_equiv_pos_site_id
_symmetry_equiv_pos_as_xyz
1 x,y,z
2 1/2-x,1/2+y,z
3 x,1/2-y,1/2+z
4 1/2+x,y,1/2-z
5 -x,-y,-z
6 1/2+x,1/2-y,-z
7 -x,1/2+y,1/2-z
8 1/2-x,-y,1/2+z
_cell_length_a                   16.3979(13)
_cell_length_b                   7.1133(5)
_cell_length_c                   27.455(2)
_cell_angle_alpha                90
_cell_angle_beta                 90
_cell_angle_gamma                90
_cell_volume                     3202.44
loop_
_atom_site_label
_atom_site_type_symbol
_atom_site_fract_x
_atom_site_fract_y
_atom_site_fract_z
Cu1 Cu 0.46919(2) 0.03380(5) 0.334942(13)
O1 O 0.48232(13) -0.2060(3) 0.30143(8)
O2 O 0.56258(14) -0.3354(3) 0.24486(9)
O3 O 0.47861(12) 0.2753(3) 0.36898(8)
O4 O 0.57184(14) 0.4958(3) 0.38393(9)
O5 O 0.76046(13) 0.1051(3) 0.32007(9)
O6 O 0.77155(14) -0.0161(4) 0.39501(9)
O7 O 0.19928(17) -0.1952(4) 0.48890(10)
N1 N 0.58905(15) 0.0682(3) 0.32184(9)
N2 N 0.35008(15) 0.0125(3) 0.35070(9)
N3 N 0.46961(15) -0.1260(4) 0.42586(10)
C1 C 0.54588(18) -0.2094(4) 0.27393(11)
C2 C 0.60277(18) -0.0388(4) 0.27617(10)
H1 H 0.6590 -0.0805 0.2747
H2 H 0.5927 0.0421 0.2484
C3 C 0.54630(17) 0.3580(4) 0.36026(11)
C4 C 0.59642(17) 0.2767(4) 0.31845(11)
H3 H 0.5756 0.3209 0.2874
H4 H 0.6530 0.3146 0.3214
C5 C 0.73015(18) 0.0359(4) 0.35609(11)
C6 C 0.63910(18) -0.0050(4) 0.36203(11)
H5 H 0.6313 -0.1398 0.3643
H6 H 0.6204 0.0503 0.3923
C7 C 0.28652(19) 0.0636(4) 0.32175(12)
H7 H 0.2973 0.1071 0.2905
C8 C 0.2060(2) 0.0531(5) 0.33727(12)
H8 H 0.1643 0.0922 0.3166
C9 C 0.18678(19) -0.0158(5) 0.38362(13)
H9 H 0.1331 -0.0265 0.3942
C10 C 0.25160(18) -0.0672(4) 0.41293(11)
C11 C 0.33105(18) -0.0485(4) 0.39502(11)
C12 C 0.5104(2) -0.2029(5) 0.46394(12)
H10 H 0.5668 -0.2122 0.4619
C13 C 0.4719(2) -0.2692(5) 0.50624(13)
H11 H 0.5031 -0.3198 0.5313
C14 C 0.3877(2) -0.2600(5) 0.51097(12)
H12 H 0.3611 -0.3049 0.5385
C15 C 0.3454(2) -0.1802(4) 0.47246(12)
C16 C 0.38933(19) -0.1174(4) 0.43213(10)
C17 C 0.2561(2) -0.1528(5) 0.46297(12)
H13 H 0.8212(12) 0.006(13) 0.394(3)
O2F O 0.43742(14) 0.1646(3) 0.25514(9)
Cu1F Cu 0.53081(2) -0.46620(5) 0.165058(13)
loop_
_geom_bond_atom_site_label_1
_geom_bond_atom_site_label_2
_geom_bond_site_symmetry_1
_geom_bond_site_symmetry_2
Cu1 O1 1_555 1_555
O1 C1 1_555 1_555
O2 C1 1_555 1_555
O3 Cu1 1_555 1_555
O4 C3 1_555 1_555
O5 C5 1_555 1_555
O6 C5 1_555 1_555
O7 C17 1_555 1_555
N1 Cu1 1_555 1_555
N2 Cu1 1_555 1_555
N3 C12 1_555 1_555
C1 C2 1_555 1_555
C2 N1 1_555 1_555
H1 C2 1_555 1_555
H2 C2 1_555 1_555
C3 O3 1_555 1_555
C4 N1 1_555 1_555
H3 C4 1_555 1_555
H4 C4 1_555 1_555
C5 C6 1_555 1_555
C6 N1 1_555 1_555
H5 C6 1_555 1_555
H6 C6 1_555 1_555
C7 N2 1_555 1_555
H7 C7 1_555 1_555
C8 C7 1_555 1_555
H8 C8 1_555 1_555
C9 C8 1_555 1_555
H9 C9 1_555 1_555
C10 C9 1_555 1_555
C11 N2 1_555 1_555
C12 H10 1_555 1_555
C13 C12 1_555 1_555
H11 C13 1_555 1_555
C14 C13 1_555 1_555
H12 C14 1_555 1_555
C15 C14 1_555 1_555
C16 N3 1_555 1_555
C17 C10 1_555 1_555
H13 O6 1_555 1_555
O2F Cu1 1_555 1_555
Cu1F O2 1_555 1_555
C3 C4 1_555 1_555
C10 C11 1_555 1_555
C11 C16 1_555 1_555
C15 C17 1_555 1_555
C15 C16 1_555 1_555

#END
