
#######################################################################
#
#                 Cambridge Crystallographic Data Centre
#                                CCDC 
#
#######################################################################
#
# If this CIF has been generated from an entry in the Cambridge 
# Structural Database, then it will include bibliographic, chemical, 
# crystal, experimental, refinement or atomic coordinate data resulting 
# from the CCDC's data processing and validation procedures.
#
#######################################################################

data_ELOYAF
_symmetry_cell_setting           triclinic
_symmetry_space_group_name_H-M   'P -1'
_symmetry_Int_Tables_number      2
_space_group_name_Hall           '-P 1'
loop_
_symmetry_equiv_pos_site_id
_symmetry_equiv_pos_as_xyz
1 x,y,z
2 -x,-y,-z
_cell_length_a                   6.768(4)
_cell_length_b                   8.578(3)
_cell_length_c                   16.037(6)
_cell_angle_alpha                79.67(3)
_cell_angle_beta                 83.34(4)
_cell_angle_gamma                71.23(4)
_cell_volume                     865.54
loop_
_atom_site_label
_atom_site_type_symbol
_atom_site_fract_x
_atom_site_fract_y
_atom_site_fract_z
Cu1 Cu -0.24466(10) -0.47695(7) 0.45986(4)
Ca1 Ca 0.0000 0.0000 0.0000
C1 C -0.2954(8) -0.3494(5) 0.1188(3)
C2 C -0.1836(7) -0.4612(5) 0.1948(3)
O1 O -0.0347(5) -0.1661(4) 0.1531(2)
O2 O -0.4715(5) -0.2498(4) 0.1335(2)
C3 C -0.3239(7) -0.0949(5) 0.2541(3)
O3 O -0.2901(5) 0.0614(4) 0.1176(2)
C4 C -0.2076(8) -0.0672(6) 0.1692(3)
O4 O -0.1644(5) 0.3011(4) -0.0136(2)
H1 H -0.2594(74) 0.3252(70) 0.0246(29)
H2 H -0.0708(61) 0.3505(36) -0.0100(23)
N1 N -0.1389(6) -0.5384(4) 0.3440(2)
N2 N -0.3833(6) -0.2613(4) 0.3839(2)
O5 O -0.2078(5) -0.3700(4) 0.0462(2)
C5 C -0.2043(7) -0.4193(5) 0.2762(3)
N3 N -0.4337(7) -0.4116(5) 0.5594(2)
C6 C -0.3062(7) -0.2517(5) 0.3028(3)
N4 N -0.0340(7) -0.6637(5) 0.5198(3)
N5 N -0.0645(12) -0.8789(9) 0.6224(6)
N6 N -0.0524(8) -0.7739(7) 0.5688(4)
O6 O 0.2610(6) 0.0538(4) 0.0646(2)
H3 H 0.3648(71) -0.0262(58) 0.0825(37)
H4 H 0.2987(76) 0.1440(54) 0.0392(31)
C7 C -0.4412(7) 0.0470(6) 0.2887(3)
H5 H -0.4587(7) 0.1551(6) 0.2557(3)
C8 C -0.5312(7) 0.0313(6) 0.3697(3)
H6 H -0.6163(7) 0.1287(6) 0.3929(3)
C9 C -0.4978(7) -0.1236(6) 0.4171(3)
H7 H -0.5567(7) -0.1343(6) 0.4745(3)
C10 C -0.0448(8) -0.6967(6) 0.3323(3)
H8 H -0.0031(8) -0.7793(6) 0.3812(3)
C11 C -0.0030(8) -0.7446(6) 0.2535(3)
H9 H 0.0708(8) -0.8582(6) 0.2468(3)
C12 C -0.0746(7) -0.6258(6) 0.1852(3)
H10 H -0.0461(7) -0.6562(6) 0.1292(3)
N7 N -0.3847(6) -0.4503(5) 0.6318(3)
N8 N -0.3484(8) -0.4799(6) 0.7024(3)
Na1 Na 0.2689(3) -0.3778(2) 0.16100(11)
O7 O 0.4459(6) -0.6221(4) 0.0933(2)
H11 H 0.3761(93) -0.6141(81) 0.0491(30)
H12 H 0.4913(99) -0.7204(46) 0.1198(37)
C1A C 0.2954(8) 0.3494(5) -0.1188(3)
C2A C 0.1836(7) 0.4612(5) -0.1948(3)
O1A O 0.0347(5) 0.1661(4) -0.1531(2)
O2A O 0.4715(5) 0.2498(4) -0.1335(2)
C3A C 0.3239(7) 0.0949(5) -0.2541(3)
O3A O 0.2901(5) -0.0614(4) -0.1176(2)
C4A C 0.2076(8) 0.0672(6) -0.1692(3)
N1A N 0.1389(6) 0.5384(4) -0.3440(2)
N2A N 0.3833(6) 0.2613(4) -0.3839(2)
O5A O 0.2078(5) 0.3700(4) -0.0462(2)
C5A C 0.2043(7) 0.4193(5) -0.2762(3)
C6A C 0.3062(7) 0.2517(5) -0.3028(3)
C7A C 0.4412(7) -0.0470(6) -0.2887(3)
H5A H 0.4587(7) -0.1551(6) -0.2557(3)
C8A C 0.5312(7) -0.0313(6) -0.3697(3)
H6A H 0.6163(7) -0.1287(6) -0.3929(3)
C9A C 0.4978(7) 0.1236(6) -0.4171(3)
H7A H 0.5567(7) 0.1343(6) -0.4745(3)
C10A C 0.0448(8) 0.6967(6) -0.3323(3)
H8A H 0.0031(8) 0.7793(6) -0.3812(3)
C11A C 0.0030(8) 0.7446(6) -0.2535(3)
H9A H -0.0708(8) 0.8582(6) -0.2468(3)
C12A C 0.0746(7) 0.6258(6) -0.1852(3)
H10A H 0.0461(7) 0.6562(6) -0.1292(3)
O4A O 0.1644(5) -0.3011(4) 0.0136(2)
H1A H 0.2594(74) -0.3252(70) -0.0246(29)
H2A H 0.0708(61) -0.3505(36) 0.0100(23)
O6A O -0.2610(6) -0.0538(4) -0.0646(2)
H3A H -0.3648(71) 0.0262(58) -0.0825(37)
H4A H -0.2987(76) -0.1440(54) -0.0392(31)
Cu1A Cu 0.24466(10) 0.47695(7) -0.45986(4)
Na1A Na -0.2689(3) 0.3778(2) -0.16100(11)
N4A N 0.0340(7) -0.3363(5) 0.4802(3)
N5A N 0.0645(12) -0.1211(9) 0.3776(6)
N6A N 0.0524(8) -0.2261(7) 0.4312(4)
N3A N 0.4337(7) -0.5884(5) 0.4406(2)
N7A N 0.3847(6) -0.5497(5) 0.3682(3)
N8A N 0.3484(8) -0.5201(6) 0.2976(3)
O7A O -0.4459(6) 0.6221(4) -0.0933(2)
H11A H -0.3761(93) 0.6141(81) -0.0491(30)
H12A H -0.4913(99) 0.7204(46) -0.1198(37)
Na1_2 Na -0.7311(3) -0.3778(2) 0.16100(11)
Cu1A_2 Cu 0.24466(10) -0.52305(7) 0.54014(4)
Na1A_2 Na -0.2689(3) -0.6222(2) 0.83900(11)
O2_2 O 0.5285(5) -0.2498(4) 0.1335(2)
Na1A_3 Na 0.7311(3) 0.3778(2) -0.16100(11)
N3A_2 N 0.4337(7) 0.4116(5) -0.5594(2)
N4_2 N -0.0340(7) 0.3363(5) -0.4802(3)
N4A_2 N 0.0340(7) 0.6637(5) -0.5198(3)
O2A_2 O -0.5285(5) 0.2498(4) -0.1335(2)
N8_2 N -0.3484(8) 0.5201(6) -0.2976(3)
loop_
_geom_bond_atom_site_label_1
_geom_bond_atom_site_label_2
_geom_bond_site_symmetry_1
_geom_bond_site_symmetry_2
Cu1 N1 1_555 1_555
Ca1 O1 1_555 1_555
C1 C2 1_555 1_555
C2 C5 1_555 1_555
O1 C4 1_555 1_555
O2 C1 1_555 1_555
C3 C4 1_555 1_555
O3 Ca1 1_555 1_555
C4 O3 1_555 1_555
O4 Ca1 1_555 1_555
H1 O4 1_555 1_555
H2 O4 1_555 1_555
N1 C5 1_555 1_555
N2 Cu1 1_555 1_555
O5 C1 1_555 1_555
C5 C6 1_555 1_555
N3 Cu1 1_555 1_555
C6 C3 1_555 1_555
N4 Cu1 1_555 1_555
N5 N6 1_555 1_555
N6 N4 1_555 1_555
O6 Ca1 1_555 1_555
H3 O6 1_555 1_555
H4 O6 1_555 1_555
C7 C3 1_555 1_555
H5 C7 1_555 1_555
C8 C7 1_555 1_555
H6 C8 1_555 1_555
C9 N2 1_555 1_555
H7 C9 1_555 1_555
C10 N1 1_555 1_555
H8 C10 1_555 1_555
C11 C10 1_555 1_555
H9 C11 1_555 1_555
C12 C2 1_555 1_555
H10 C12 1_555 1_555
N7 N3 1_555 1_555
N8 N7 1_555 1_555
Na1 O1 1_555 1_555
O7 Na1 1_555 1_555
H11 O7 1_555 1_555
H12 O7 1_555 1_555
C1A C2A 1_555 1_555
C2A C5A 1_555 1_555
O1A Ca1 1_555 1_555
O2A C1A 1_555 1_555
C3A C4A 1_555 1_555
O3A Ca1 1_555 1_555
C4A O1A 1_555 1_555
N1A C5A 1_555 1_555
N2A C6A 1_555 1_555
O5A C1A 1_555 1_555
C5A C6A 1_555 1_555
C6A C3A 1_555 1_555
C7A C3A 1_555 1_555
H5A C7A 1_555 1_555
C8A C7A 1_555 1_555
H6A C8A 1_555 1_555
C9A N2A 1_555 1_555
H7A C9A 1_555 1_555
C10A N1A 1_555 1_555
H8A C10A 1_555 1_555
C11A C10A 1_555 1_555
H9A C11A 1_555 1_555
C12A C2A 1_555 1_555
H10A C12A 1_555 1_555
O4A Ca1 1_555 1_555
H1A O4A 1_555 1_555
H2A O4A 1_555 1_555
O6A Ca1 1_555 1_555
H3A O6A 1_555 1_555
H4A O6A 1_555 1_555
Cu1A N1A 1_555 1_555
Na1A O4 1_555 1_555
N4A Cu1 1_555 1_555
N5A N6A 1_555 1_555
N6A N4A 1_555 1_555
N3A N7A 1_555 1_555
N7A N8A 1_555 1_555
N8A Na1 1_555 1_555
O7A Na1A 1_555 1_555
H11A O7A 1_555 1_555
H12A O7A 1_555 1_555
Na1_2 O2 1_555 1_555
Cu1A_2 N4 1_555 1_555
Na1A_2 N8 1_555 1_555
O2_2 Na1 1_555 1_555
Na1A_3 O2A 1_555 1_555
N3A_2 Cu1A 1_555 1_555
N4_2 Cu1A 1_555 1_555
N4A_2 Cu1A 1_555 1_555
O2A_2 Na1A 1_555 1_555
N8_2 Na1A 1_555 1_555
N2 C6 1_555 1_555
C8 C9 1_555 1_555
C11 C12 1_555 1_555
Na1 O4A 1_555 1_555
O1A Na1A 1_555 1_555
O3A C4A 1_555 1_555
N2A Cu1A 1_555 1_555
C8A C9A 1_555 1_555
C11A C12A 1_555 1_555
N4A Cu1A_2 1_555 1_555
N3A Cu1A_2 1_555 1_555

#END
