
#######################################################################
#
#                 Cambridge Crystallographic Data Centre
#                                CCDC 
#
#######################################################################
#
# If this CIF has been generated from an entry in the Cambridge 
# Structural Database, then it will include bibliographic, chemical, 
# crystal, experimental, refinement or atomic coordinate data resulting 
# from the CCDC's data processing and validation procedures.
#
#######################################################################

data_ELOZUA
_symmetry_cell_setting           monoclinic
_symmetry_space_group_name_H-M   'P 2/c'
_symmetry_Int_Tables_number      13
_space_group_name_Hall           '-P 2yc'
loop_
_symmetry_equiv_pos_site_id
_symmetry_equiv_pos_as_xyz
1 x,y,z
2 x,-y,1/2+z
3 -x,-y,-z
4 -x,y,1/2-z
_cell_length_a                   8.3261(7)
_cell_length_b                   10.3192(14)
_cell_length_c                   18.5739(12)
_cell_angle_alpha                90
_cell_angle_beta                 99.819(3)
_cell_angle_gamma                90
_cell_volume                     1572.47
loop_
_atom_site_label
_atom_site_type_symbol
_atom_site_fract_x
_atom_site_fract_y
_atom_site_fract_z
Fe1 Fe 0.13552(4) 0.32158(3) 0.172657(15)
O1 O 0.14393(18) 0.41213(17) 0.07014(8)
O2 O 0.34489(18) 0.27907(17) 0.10824(8)
O3 O 0.09247(18) 0.60582(18) -0.17462(8)
O4 O 0.25982(18) 0.55170(16) -0.25041(7)
N1 N 0.2271(2) 0.14942(19) 0.23510(9)
N2 N 0.0022(2) 0.15941(19) 0.11412(9)
C1 C 0.3429(3) 0.1465(3) 0.29421(12)
H1 H 0.3854 0.2242 0.3146
C2 C 0.4020(3) 0.0296(3) 0.32640(13)
H2 H 0.4815 0.0305 0.3681
C3 C 0.3444(3) -0.0843(3) 0.29734(15)
H3 H 0.3843 -0.1619 0.3188
C4 C 0.2235(3) -0.0852(3) 0.23415(14)
C5 C 0.1691(3) 0.0356(2) 0.20502(12)
C6 C 0.0458(3) 0.0405(2) 0.14086(12)
C7 C -0.0231(3) -0.0738(3) 0.10898(14)
C8 C -0.1481(3) -0.0607(3) 0.04826(14)
H4 H -0.1989 -0.1340 0.0257
C9 C -0.1946(3) 0.0594(3) 0.02246(14)
H5 H -0.2784 0.0690 -0.0172
C10 C -0.1154(3) 0.1675(3) 0.05613(12)
H6 H -0.1461 0.2490 0.0373
C11 C 0.1546(4) -0.2002(3) 0.19819(17)
H7 H 0.1919 -0.2807 0.2163
C12 C 0.0370(4) -0.1944(3) 0.13873(17)
H8 H -0.0055 -0.2709 0.1168
C13 C 0.2729(3) 0.3545(2) 0.06142(11)
C14 C 0.3379(3) 0.3756(2) -0.00891(11)
C15 C 0.2501(2) 0.4475(2) -0.06481(10)
H9 H 0.1501 0.4827 -0.0592
C16 C 0.3099(2) 0.4679(2) -0.12981(10)
C17 C 0.4627(3) 0.4178(2) -0.13590(11)
H10 H 0.5059 0.4330 -0.1781
C18 C 0.5496(3) 0.3467(2) -0.08058(11)
H11 H 0.6507 0.3130 -0.0857
C19 C 0.4879(2) 0.3240(2) -0.01649(11)
H12 H 0.5469 0.2747 0.0209
C20 C 0.2131(2) 0.5467(2) -0.18877(11)
O3B O -0.09247(18) 0.39418(18) 0.17462(8)
O4A O 0.25982(18) 0.44830(16) 0.24959(7)
Fe1B Fe -0.13552(4) 0.67842(3) -0.172657(15)
Fe1A Fe 0.13552(4) 0.67842(3) -0.327343(15)
loop_
_geom_bond_atom_site_label_1
_geom_bond_atom_site_label_2
_geom_bond_site_symmetry_1
_geom_bond_site_symmetry_2
Fe1 O1 1_555 1_555
O1 C13 1_555 1_555
O2 Fe1 1_555 1_555
O3 C20 1_555 1_555
O4 C20 1_555 1_555
N1 Fe1 1_555 1_555
N2 Fe1 1_555 1_555
C1 N1 1_555 1_555
H1 C1 1_555 1_555
C2 C1 1_555 1_555
H2 C2 1_555 1_555
C3 C2 1_555 1_555
H3 C3 1_555 1_555
C4 C3 1_555 1_555
C5 N1 1_555 1_555
C6 N2 1_555 1_555
C7 C6 1_555 1_555
C8 C7 1_555 1_555
H4 C8 1_555 1_555
C9 C8 1_555 1_555
H5 C9 1_555 1_555
C10 N2 1_555 1_555
H6 C10 1_555 1_555
C11 C4 1_555 1_555
H7 C11 1_555 1_555
C12 C7 1_555 1_555
H8 C12 1_555 1_555
C13 O2 1_555 1_555
C14 C13 1_555 1_555
C15 C14 1_555 1_555
H9 C15 1_555 1_555
C16 C15 1_555 1_555
C17 C16 1_555 1_555
H10 C17 1_555 1_555
C18 C17 1_555 1_555
H11 C18 1_555 1_555
C19 C14 1_555 1_555
H12 C19 1_555 1_555
C20 C16 1_555 1_555
O3B Fe1 1_555 1_555
O4A Fe1 1_555 1_555
Fe1B O3 1_555 1_555
Fe1A O4 1_555 1_555
C4 C5 1_555 1_555
C5 C6 1_555 1_555
C9 C10 1_555 1_555
C11 C12 1_555 1_555
C18 C19 1_555 1_555

#END
