
#######################################################################
#
#                 Cambridge Crystallographic Data Centre
#                                CCDC 
#
#######################################################################
#
# If this CIF has been generated from an entry in the Cambridge 
# Structural Database, then it will include bibliographic, chemical, 
# crystal, experimental, refinement or atomic coordinate data resulting 
# from the CCDC's data processing and validation procedures.
#
#######################################################################

data_ELUBES
_symmetry_cell_setting           monoclinic
_symmetry_space_group_name_H-M   'P 21/c'
_symmetry_Int_Tables_number      14
_space_group_name_Hall           '-P 2ybc'
loop_
_symmetry_equiv_pos_site_id
_symmetry_equiv_pos_as_xyz
1 x,y,z
2 x,1/2-y,1/2+z
3 -x,-y,-z
4 -x,1/2+y,1/2-z
_cell_length_a                   3.9138(5)
_cell_length_b                   12.1460(15)
_cell_length_c                   15.0571(19)
_cell_angle_alpha                90
_cell_angle_beta                 94.467(2)
_cell_angle_gamma                90
_cell_volume                     713.595
loop_
_atom_site_label
_atom_site_type_symbol
_atom_site_fract_x
_atom_site_fract_y
_atom_site_fract_z
Cd1 Cd 0.5000 0.00000 0.00000
S1 S 0.0673(2) 0.10498(7) 0.09399(5)
N1 N 0.3486(6) -0.0873(2) 0.13101(16)
C1 C 0.1751(7) -0.0046(3) 0.1664(2)
N2 N 0.0837(7) -0.0008(2) 0.24979(18)
C2 C 0.1760(9) -0.0893(3) 0.3014(2)
C3 C 0.4238(8) -0.1767(3) 0.1814(2)
C4 C 0.3371(9) -0.1787(3) 0.2683(2)
H1 H 0.3873 -0.2399 0.304
C5 C 0.5849(10) -0.2717(3) 0.1374(3)
H2 H 0.6228 -0.2525 0.0771
H3 H 0.4355 -0.3344 0.1375
H4 H 0.8 -0.2893 0.1693
C6 C 0.0897(11) -0.0816(4) 0.3966(2)
H5 H -0.0227 -0.0128 0.406
H6 H 0.2964 -0.0859 0.4352
H7 H -0.0596 -0.1412 0.4096
S1_2 S 1.0673(2) 0.10498(7) 0.09399(5)
N1_2 N 1.3486(6) -0.0873(2) 0.13101(16)
C1_2 C 1.1751(7) -0.0046(3) 0.1664(2)
N2_2 N 1.0837(7) -0.0008(2) 0.24979(18)
C2_2 C 1.1760(9) -0.0893(3) 0.3014(2)
C3_2 C 1.4238(8) -0.1767(3) 0.1814(2)
C4_2 C 1.3371(9) -0.1787(3) 0.2683(2)
H1_2 H 1.3873 -0.2399 0.304
C5_2 C 1.5849(10) -0.2717(3) 0.1374(3)
H2_2 H 1.6228 -0.2525 0.0771
H3_2 H 1.4355 -0.3344 0.1375
H4_2 H 1.8 -0.2893 0.1693
C6_2 C 1.0897(11) -0.0816(4) 0.3966(2)
H5_2 H 0.9773 -0.0128 0.406
H6_2 H 1.2964 -0.0859 0.4352
H7_2 H 0.9404 -0.1412 0.4096
S1B S -0.0673(2) -0.10498(7) -0.09399(5)
S1B_2 S 0.9327(2) -0.10498(7) -0.09399(5)
N1B N 0.6514(6) 0.0873(2) -0.13101(16)
Cd1_2 Cd -0.5000 0.00000 0.00000
Cd1_3 Cd 1.5000 0.00000 0.00000
loop_
_geom_bond_atom_site_label_1
_geom_bond_atom_site_label_2
_geom_bond_site_symmetry_1
_geom_bond_site_symmetry_2
Cd1 S1 1_555 1_555
S1 C1 1_555 1_555
N1 Cd1 1_555 1_555
C1 N1 1_555 1_555
N2 C1 1_555 1_555
C2 N2 1_555 1_555
C3 N1 1_555 1_555
C4 C2 1_555 1_555
H1 C4 1_555 1_555
C5 C3 1_555 1_555
H2 C5 1_555 1_555
H3 C5 1_555 1_555
H4 C5 1_555 1_555
C6 C2 1_555 1_555
H5 C6 1_555 1_555
H6 C6 1_555 1_555
H7 C6 1_555 1_555
S1_2 Cd1 1_555 1_555
N1_2 C1_2 1_555 1_555
C1_2 S1_2 1_555 1_555
N2_2 C1_2 1_555 1_555
C2_2 N2_2 1_555 1_555
C3_2 N1_2 1_555 1_555
C4_2 C2_2 1_555 1_555
H1_2 C4_2 1_555 1_555
C5_2 C3_2 1_555 1_555
H2_2 C5_2 1_555 1_555
H3_2 C5_2 1_555 1_555
H4_2 C5_2 1_555 1_555
C6_2 C2_2 1_555 1_555
H5_2 C6_2 1_555 1_555
H6_2 C6_2 1_555 1_555
H7_2 C6_2 1_555 1_555
S1B Cd1 1_555 1_555
S1B_2 Cd1 1_555 1_555
N1B Cd1 1_555 1_555
Cd1_2 S1 1_555 1_555
Cd1_3 S1_2 1_555 1_555
C3 C4 1_555 1_555
N1_2 Cd1_3 1_555 1_555
C3_2 C4_2 1_555 1_555
S1B Cd1_2 1_555 1_555
S1B_2 Cd1_3 1_555 1_555

#END
