
#######################################################################
#
#                 Cambridge Crystallographic Data Centre
#                                CCDC 
#
#######################################################################
#
# If this CIF has been generated from an entry in the Cambridge 
# Structural Database, then it will include bibliographic, chemical, 
# crystal, experimental, refinement or atomic coordinate data resulting 
# from the CCDC's data processing and validation procedures.
#
#######################################################################

data_ELUCUJ01
_symmetry_cell_setting           monoclinic
_symmetry_space_group_name_H-M   'P 21/n'
_symmetry_Int_Tables_number      14
_space_group_name_Hall           '-P 2yn'
loop_
_symmetry_equiv_pos_site_id
_symmetry_equiv_pos_as_xyz
1 x,y,z
2 1/2+x,1/2-y,1/2+z
3 -x,-y,-z
4 1/2-x,1/2+y,1/2-z
_cell_length_a                   12.5862(12)
_cell_length_b                   9.0517(8)
_cell_length_c                   18.111(2)
_cell_angle_alpha                90
_cell_angle_beta                 94.5020(10)
_cell_angle_gamma                90
_cell_volume                     2056.96
loop_
_atom_site_label
_atom_site_type_symbol
_atom_site_fract_x
_atom_site_fract_y
_atom_site_fract_z
Sn1 Sn 0.42316(3) 0.03098(4) 0.24899(2)
O1 O 0.5822(3) -0.0132(4) 0.2134(2)
O2 O 0.7098(4) -0.1737(5) 0.1894(3)
O3 O 0.2889(3) 0.2160(4) 0.2415(2)
O4 O 0.2280(3) 0.4318(4) 0.1959(2)
N1 N 0.4887(4) -0.2118(5) 0.2956(3)
N2 N 0.4794(3) 0.2619(5) 0.1894(2)
C1 C 0.4458(5) -0.3045(7) 0.3415(3)
H1 H 0.3806(5) -0.2800(7) 0.3591(3)
C2 C 0.4931(5) -0.4347(7) 0.3642(4)
H2 H 0.4603(5) -0.4961(7) 0.3967(4)
C3 C 0.5888(5) -0.4746(7) 0.3390(4)
H3 H 0.6217(5) -0.5632(7) 0.3533(4)
C4 C 0.6350(5) -0.3787(6) 0.2915(4)
H4 H 0.7002(5) -0.4010(6) 0.2734(4)
C5 C 0.5828(4) -0.2494(6) 0.2714(3)
C6 C 0.6312(5) -0.1400(7) 0.2205(4)
C7 C 0.5755(5) 0.2881(7) 0.1654(3)
H5 H 0.6278(5) 0.2159(7) 0.1727(3)
C8 C 0.6002(5) 0.4163(7) 0.1309(4)
H6 H 0.6680(5) 0.4305(7) 0.1151(4)
C9 C 0.5233(5) 0.5247(7) 0.1198(4)
H7 H 0.5381(5) 0.6126(7) 0.0961(4)
C10 C 0.4237(5) 0.4995(6) 0.1448(4)
H8 H 0.3703(5) 0.5703(6) 0.1383(4)
C11 C 0.4052(4) 0.3674(6) 0.1795(3)
C12 C 0.2991(4) 0.3360(7) 0.2082(3)
C13 C 0.4680(4) 0.1186(6) 0.3550(3)
H9 H 0.4535(4) 0.2238(6) 0.3535(3)
H10 H 0.4221(4) 0.0752(6) 0.3897(3)
C14 C 0.5819(4) 0.0973(7) 0.3858(3)
H11 H 0.6288(4) 0.1416(7) 0.3519(3)
H12 H 0.5973(4) -0.0077(7) 0.3881(3)
C15 C 0.6069(5) 0.1641(7) 0.4628(3)
H13 H 0.5906(5) 0.2688(7) 0.4607(3)
H14 H 0.5610(5) 0.1186(7) 0.4969(3)
C16 C 0.7207(5) 0.1445(9) 0.4922(4)
H15 H 0.7312(5) 0.1886(9) 0.5404(4)
H16 H 0.7667(5) 0.1914(9) 0.4594(4)
H17 H 0.7372(5) 0.0411(9) 0.4956(4)
C17 C 0.3513(6) -0.0572(8) 0.1496(4)
H18 H 0.3603(6) -0.1635(8) 0.1529(4)
H19 H 0.2755(6) -0.0384(8) 0.1501(4)
C18 C 0.3803(9) -0.0152(11) 0.0782(5)
H20 H 0.4557(9) -0.0360(11) 0.0767(5)
H21 H 0.3721(9) 0.0911(11) 0.0744(5)
C19 C 0.3241(13) -0.0815(15) 0.0089(6)
H22 H 0.2987(13) 0.0021(15) -0.0210(6)
H23 H 0.3799(13) -0.1269(15) -0.0174(6)
C20 C 0.2482(10) -0.1735(18) 0.0048(6)
H24 H 0.2285(10) -0.1960(18) -0.0463(6)
H25 H 0.1881(10) -0.1319(18) 0.0269(6)
H26 H 0.2703(10) -0.2624(18) 0.0305(6)
O4C O 0.2720(3) -0.0682(4) 0.3041(2)
Sn1C Sn 0.07684(3) 0.53098(4) 0.25101(2)
loop_
_geom_bond_atom_site_label_1
_geom_bond_atom_site_label_2
_geom_bond_site_symmetry_1
_geom_bond_site_symmetry_2
Sn1 O1 1_555 1_555
O1 C6 1_555 1_555
O2 C6 1_555 1_555
O3 Sn1 1_555 1_555
O4 C12 1_555 1_555
N1 Sn1 1_555 1_555
N2 Sn1 1_555 1_555
C1 N1 1_555 1_555
H1 C1 1_555 1_555
C2 C1 1_555 1_555
H2 C2 1_555 1_555
C3 C2 1_555 1_555
H3 C3 1_555 1_555
C4 C3 1_555 1_555
H4 C4 1_555 1_555
C5 N1 1_555 1_555
C6 C5 1_555 1_555
C7 N2 1_555 1_555
H5 C7 1_555 1_555
C8 C7 1_555 1_555
H6 C8 1_555 1_555
C9 C8 1_555 1_555
H7 C9 1_555 1_555
C10 C9 1_555 1_555
H8 C10 1_555 1_555
C11 N2 1_555 1_555
C12 O3 1_555 1_555
C13 Sn1 1_555 1_555
H9 C13 1_555 1_555
H10 C13 1_555 1_555
C14 C13 1_555 1_555
H11 C14 1_555 1_555
H12 C14 1_555 1_555
C15 C14 1_555 1_555
H13 C15 1_555 1_555
H14 C15 1_555 1_555
C16 C15 1_555 1_555
H15 C16 1_555 1_555
H16 C16 1_555 1_555
H17 C16 1_555 1_555
C17 Sn1 1_555 1_555
H18 C17 1_555 1_555
H19 C17 1_555 1_555
C18 C17 1_555 1_555
H20 C18 1_555 1_555
H21 C18 1_555 1_555
C19 C18 1_555 1_555
H22 C19 1_555 1_555
H23 C19 1_555 1_555
C20 C19 1_555 1_555
H24 C20 1_555 1_555
H25 C20 1_555 1_555
H26 C20 1_555 1_555
O4C Sn1 1_555 1_555
Sn1C O4 1_555 1_555
C4 C5 1_555 1_555
C10 C11 1_555 1_555
C11 C12 1_555 1_555

#END
