
#######################################################################
#
#                 Cambridge Crystallographic Data Centre
#                                CCDC 
#
#######################################################################
#
# If this CIF has been generated from an entry in the Cambridge 
# Structural Database, then it will include bibliographic, chemical, 
# crystal, experimental, refinement or atomic coordinate data resulting 
# from the CCDC's data processing and validation procedures.
#
#######################################################################

data_ELUCUJ
_symmetry_cell_setting           monoclinic
_symmetry_space_group_name_H-M   'P 21/n'
_symmetry_Int_Tables_number      14
_space_group_name_Hall           '-P 2yn'
loop_
_symmetry_equiv_pos_site_id
_symmetry_equiv_pos_as_xyz
1 x,y,z
2 1/2+x,1/2-y,1/2+z
3 -x,-y,-z
4 1/2-x,1/2+y,1/2-z
_cell_length_a                   12.486(4)
_cell_length_b                   9.035(3)
_cell_length_c                   17.752(7)
_cell_angle_alpha                90
_cell_angle_beta                 95.86(3)
_cell_angle_gamma                90
_cell_volume                     1992.16
loop_
_atom_site_label
_atom_site_type_symbol
_atom_site_fract_x
_atom_site_fract_y
_atom_site_fract_z
Sn1 Sn 0.077198(14) 0.04145(2) 0.250825(10)
O1 O 0.21103(15) 0.2301(2) 0.25617(11)
O2 O 0.27286(14) 0.4461(2) 0.30468(10)
O3 O -0.08106(15) -0.0068(2) 0.28813(12)
O4 O -0.21022(17) -0.1672(2) 0.31014(14)
N1 N 0.02055(17) 0.2731(2) 0.31013(13)
N2 N 0.01161(18) -0.2025(3) 0.20327(13)
C1 C 0.2012(2) 0.3503(3) 0.29034(15)
C2 C 0.0940(2) 0.3815(3) 0.31940(14)
C3 C 0.0746(2) 0.5150(3) 0.35334(16)
H1 H 0.1290 0.5887 0.3593
C4 C -0.0249(2) 0.5404(3) 0.37861(17)
H2 H -0.0401 0.6310 0.4025
C5 C -0.1014(2) 0.4301(3) 0.36801(17)
H3 H -0.1711 0.4450 0.3838
C6 C -0.0768(2) 0.2980(3) 0.33449(17)
H4 H -0.1300 0.2225 0.3284
C7 C -0.1305(2) -0.1319(3) 0.27977(16)
C8 C -0.0835(2) -0.2413(3) 0.22767(15)
C9 C -0.1360(2) -0.3717(3) 0.20598(16)
H5 H -0.2029 -0.3956 0.2241
C10 C -0.0896(2) -0.4665(3) 0.15748(17)
H6 H -0.1239 -0.5569 0.1420
C11 C 0.0080(2) -0.4272(3) 0.13187(17)
H7 H 0.0416 -0.4897 0.0983
C12 C 0.0551(2) -0.2944(3) 0.15651(16)
H8 H 0.1219 -0.2678 0.1391
C13 C 0.0276(2) 0.1279(3) 0.14192(14)
H9 H 0.0428 0.2355 0.1428
H10 H 0.0727 0.0824 0.1055
C14 C -0.0900(2) 0.1061(3) 0.11180(15)
H11 H -0.1064 -0.0011 0.1095
H12 H -0.1365 0.1523 0.1472
C15 C -0.1160(2) 0.1737(3) 0.03312(15)
H13 H -0.0964 0.2799 0.0351
H14 H -0.0717 0.1243 -0.0027
C16 C -0.2338(3) 0.1586(4) 0.00392(18)
H15 H -0.2463 0.2037 -0.0464
H16 H -0.2780 0.2089 0.0386
H17 H -0.2533 0.0536 0.0007
C17 C 0.1601(2) -0.0400(4) 0.35245(15)
H18 H 0.1712 -0.1474 0.3456
H19 H 0.2322 0.0066 0.3581
C18 C 0.1119(3) -0.0197(4) 0.42650(17)
H20 H 0.0466 -0.0818 0.4261
H21 H 0.0898 0.0849 0.4310
C19 C 0.1901(3) -0.0608(5) 0.49581(19)
H22 H 0.2513 0.0093 0.4991
H23 H 0.1526 -0.0472 0.5418
C20 C 0.2336(4) -0.2142(5) 0.4961(2)
H24 H 0.2820 -0.2301 0.5424
H25 H 0.2735 -0.2282 0.4518
H26 H 0.1740 -0.2851 0.4942
O2C O 0.22714(14) -0.0539(2) 0.19532(10)
Sn1C Sn 0.422802(14) 0.54145(2) 0.249175(10)
loop_
_geom_bond_atom_site_label_1
_geom_bond_atom_site_label_2
_geom_bond_site_symmetry_1
_geom_bond_site_symmetry_2
Sn1 O1 1_555 1_555
O1 C1 1_555 1_555
O2 C1 1_555 1_555
O3 Sn1 1_555 1_555
O4 C7 1_555 1_555
N1 Sn1 1_555 1_555
N2 Sn1 1_555 1_555
C1 C2 1_555 1_555
C2 N1 1_555 1_555
C3 C2 1_555 1_555
H1 C3 1_555 1_555
C4 C3 1_555 1_555
H2 C4 1_555 1_555
C5 C4 1_555 1_555
H3 C5 1_555 1_555
C6 N1 1_555 1_555
H4 C6 1_555 1_555
C7 O3 1_555 1_555
C8 N2 1_555 1_555
C9 C8 1_555 1_555
H5 C9 1_555 1_555
C10 C9 1_555 1_555
H6 C10 1_555 1_555
C11 C10 1_555 1_555
H7 C11 1_555 1_555
C12 N2 1_555 1_555
H8 C12 1_555 1_555
C13 Sn1 1_555 1_555
H9 C13 1_555 1_555
H10 C13 1_555 1_555
C14 C13 1_555 1_555
H11 C14 1_555 1_555
H12 C14 1_555 1_555
C15 C14 1_555 1_555
H13 C15 1_555 1_555
H14 C15 1_555 1_555
C16 C15 1_555 1_555
H15 C16 1_555 1_555
H16 C16 1_555 1_555
H17 C16 1_555 1_555
C17 Sn1 1_555 1_555
H18 C17 1_555 1_555
H19 C17 1_555 1_555
C18 C17 1_555 1_555
H20 C18 1_555 1_555
H21 C18 1_555 1_555
C19 C18 1_555 1_555
H22 C19 1_555 1_555
H23 C19 1_555 1_555
C20 C19 1_555 1_555
H24 C20 1_555 1_555
H25 C20 1_555 1_555
H26 C20 1_555 1_555
O2C Sn1 1_555 1_555
Sn1C O2 1_555 1_555
C5 C6 1_555 1_555
C7 C8 1_555 1_555
C11 C12 1_555 1_555

#END
