
#######################################################################
#
#                 Cambridge Crystallographic Data Centre
#                                CCDC 
#
#######################################################################
#
# If this CIF has been generated from an entry in the Cambridge 
# Structural Database, then it will include bibliographic, chemical, 
# crystal, experimental, refinement or atomic coordinate data resulting 
# from the CCDC's data processing and validation procedures.
#
#######################################################################

data_ELUGUO
_symmetry_cell_setting           monoclinic
_symmetry_space_group_name_H-M   'C c'
_symmetry_Int_Tables_number      9
_space_group_name_Hall           'C -2yc'
loop_
_symmetry_equiv_pos_site_id
_symmetry_equiv_pos_as_xyz
1 x,y,z
2 x,-y,1/2+z
3 1/2+x,1/2+y,z
4 1/2+x,1/2-y,1/2+z
_cell_length_a                   15.4178(16)
_cell_length_b                   17.493(2)
_cell_length_c                   7.6747(10)
_cell_angle_alpha                90
_cell_angle_beta                 103.885(10)
_cell_angle_gamma                90
_cell_volume                     2009.41
loop_
_atom_site_label
_atom_site_type_symbol
_atom_site_fract_x
_atom_site_fract_y
_atom_site_fract_z
Cu1 Cu 0.43273(3) 0.12169(2) 0.79667(6)
F1 F 0.49674(19) 0.38953(13) 0.5951(3)
F2 F 0.37419(16) 0.35626(14) 0.6592(4)
F3 F 0.4372(2) 0.38726(18) 1.0026(4)
O1 O 0.73047(16) 0.27543(14) 0.7555(4)
O2 O 0.65730(18) 0.37610(18) 0.8203(4)
N1 N 0.5606(2) 0.11812(18) 0.8222(5)
O3 O 0.4362(2) 0.23262(11) 0.7910(5)
C1 C 0.5859(2) 0.2547(2) 0.7835(5)
O4 O 0.41648(15) 0.02755(15) 0.6628(3)
C2 C 0.4643(3) 0.3595(2) 0.7270(6)
C3 C 0.6915(3) -0.0924(2) 0.9643(6)
H1 H 0.7205 -0.1389 0.9939
O5 O 0.45478(16) -0.08571(15) 0.5812(3)
F4 F 0.4460(3) 0.48230(14) 0.8261(5)
C4 C 0.1261(3) 0.1291(3) 0.8077(6)
H2 H 0.0671 0.1296 0.8172
C5 C 0.5631(2) -0.0224(2) 0.8017(5)
C6 C 0.6047(2) 0.0460(2) 0.8690(5)
C7 C 0.6588(3) 0.3093(2) 0.7860(5)
N2 N 0.3005(2) 0.12712(19) 0.7797(5)
C8 C 0.8121(3) 0.3207(3) 0.7779(6)
H3 H 0.8245 0.3475 0.8918
H4 H 0.8056 0.3581 0.6823
C9 C 0.7314(2) -0.0259(2) 1.0328(5)
H5 H 0.7877 -0.0268 1.1109
C10 C 0.2605(3) 0.0637(3) 0.8155(7)
H6 H 0.2924 0.0181 0.8302
C11 C 0.1741(3) 0.0631(3) 0.8315(7)
H7 H 0.1484 0.0179 0.8584
C12 C 0.2531(3) 0.1910(3) 0.7585(7)
H8 H 0.2800 0.2362 0.7348
C13 C 0.4811(3) 0.4136(3) 0.8850(6)
H9 H 0.5452 0.4179 0.9402
C14 C 0.6081(3) -0.0899(2) 0.8513(5)
H10 H 0.5808 -0.1356 0.8063
C15 C 0.4979(3) 0.2766(2) 0.7723(5)
C16 C 0.6106(3) 0.1766(3) 0.8099(6)
H11 H 0.6707 0.1659 0.8196
C17 C 0.4723(2) -0.0268(2) 0.6719(5)
C18 C 0.6886(2) 0.0419(2) 0.9868(5)
H12 H 0.7163 0.0868 1.0356
C19 C 0.8849(3) 0.2673(3) 0.7723(8)
H13 H 0.9398 0.2952 0.7860
H14 H 0.8717 0.2410 0.6593
H15 H 0.8909 0.2309 0.8680
C20 C 0.1654(3) 0.1929(3) 0.7704(6)
H16 H 0.1336 0.2386 0.7525
Cu1A Cu 0.43273(3) -0.12169(2) 0.29667(6)
O5A O 0.45478(16) 0.08571(15) 1.0812(3)
loop_
_geom_bond_atom_site_label_1
_geom_bond_atom_site_label_2
_geom_bond_site_symmetry_1
_geom_bond_site_symmetry_2
Cu1 N1 1_555 1_555
F1 C2 1_555 1_555
F2 C2 1_555 1_555
F3 C13 1_555 1_555
O1 C7 1_555 1_555
O2 C7 1_555 1_555
N1 C6 1_555 1_555
O3 Cu1 1_555 1_555
C1 C7 1_555 1_555
O4 Cu1 1_555 1_555
C2 C13 1_555 1_555
C3 H1 1_555 1_555
O5 C17 1_555 1_555
F4 C13 1_555 1_555
C4 H2 1_555 1_555
C5 C6 1_555 1_555
C6 C18 1_555 1_555
N2 Cu1 1_555 1_555
C8 O1 1_555 1_555
H3 C8 1_555 1_555
H4 C8 1_555 1_555
C9 C3 1_555 1_555
H5 C9 1_555 1_555
C10 N2 1_555 1_555
H6 C10 1_555 1_555
C11 C4 1_555 1_555
H7 C11 1_555 1_555
C12 N2 1_555 1_555
H8 C12 1_555 1_555
C13 H9 1_555 1_555
C14 C3 1_555 1_555
H10 C14 1_555 1_555
C15 O3 1_555 1_555
C16 N1 1_555 1_555
H11 C16 1_555 1_555
C17 O4 1_555 1_555
C18 C9 1_555 1_555
H12 C18 1_555 1_555
C19 C8 1_555 1_555
H13 C19 1_555 1_555
H14 C19 1_555 1_555
H15 C19 1_555 1_555
C20 C4 1_555 1_555
H16 C20 1_555 1_555
Cu1A O5 1_555 1_555
O5A Cu1 1_555 1_555
C1 C15 1_555 1_555
C1 C16 1_555 1_555
C2 C15 1_555 1_555
C5 C14 1_555 1_555
C5 C17 1_555 1_555
C10 C11 1_555 1_555
C12 C20 1_555 1_555

#END
