
#######################################################################
#
#                 Cambridge Crystallographic Data Centre
#                                CCDC 
#
#######################################################################
#
# If this CIF has been generated from an entry in the Cambridge 
# Structural Database, then it will include bibliographic, chemical, 
# crystal, experimental, refinement or atomic coordinate data resulting 
# from the CCDC's data processing and validation procedures.
#
#######################################################################

data_ELUKAY
_symmetry_cell_setting           monoclinic
_symmetry_space_group_name_H-M   'P 21/n'
_symmetry_Int_Tables_number      14
_space_group_name_Hall           '-P 2yn'
loop_
_symmetry_equiv_pos_site_id
_symmetry_equiv_pos_as_xyz
1 x,y,z
2 1/2-x,1/2+y,1/2-z
3 -x,-y,-z
4 1/2+x,1/2-y,1/2+z
_cell_length_a                   11.821(1)
_cell_length_b                   4.906(1)
_cell_length_c                   15.782(1)
_cell_angle_alpha                90
_cell_angle_beta                 94.34(1)
_cell_angle_gamma                90
_cell_volume                     912.634
loop_
_atom_site_label
_atom_site_type_symbol
_atom_site_fract_x
_atom_site_fract_y
_atom_site_fract_z
Ag1 Ag 0.71867(2) 0.44030(7) 0.850871(15)
S1 S 0.91573(6) -0.01993(16) 0.83749(5)
O1 O 0.8746(2) 0.1588(6) 0.90237(15)
O2 O 0.8256(2) -0.1934(6) 0.79756(15)
O3 O 0.9725(2) 0.1279(6) 0.77355(18)
N1 N 0.5882(2) 0.4497(5) 0.95036(15)
C1 C 0.6006(2) 0.6300(6) 1.01474(17)
C2 C 0.4898(3) 0.3167(6) 0.93521(16)
C3 C 0.7120(3) 0.7682(9) 1.0301(2)
H1 H 0.7094 0.8913 1.0772
H2 H 0.7286 0.8683 0.9803
H3 H 0.7701 0.6344 1.0428
C4 C 0.4822(3) 0.1104(7) 0.8649(2)
H4 H 0.4080 0.0300 0.8605
H5 H 0.5381 -0.0290 0.8769
H6 H 0.4958 0.1982 0.8123
C5 C 1.0149(3) -0.2405(8) 0.8904(2)
H7 H 1.0757 -0.1355 0.9178
H8 H 1.0446 -0.3627 0.8501
H9 H 0.9784 -0.3436 0.9323
Ag1_2 Ag 0.71867(2) 1.44030(7) 0.850871(15)
Ag1_3 Ag 0.71867(2) -0.55970(7) 0.850871(15)
Ag1A Ag 0.78133(2) -0.05970(7) 0.649129(15)
Ag1B Ag 0.28133(2) 0.55970(7) 1.149129(15)
Ag1A_2 Ag 0.78133(2) 0.94030(7) 0.649129(15)
S1_2 S 0.91573(6) 0.98007(16) 0.83749(5)
O1_2 O 0.8746(2) 1.1588(6) 0.90237(15)
O2_2 O 0.8256(2) 0.8066(6) 0.79756(15)
O2A O 0.6744(2) 0.3066(6) 0.70244(15)
O2_3 O 0.8256(2) 1.8066(6) 0.79756(15)
O2A_2 O 0.6744(2) 1.3066(6) 0.70244(15)
O3_2 O 0.9725(2) 1.1279(6) 0.77355(18)
N1B N 0.4118(2) 0.5503(5) 1.04964(15)
N1_2 N 0.5882(2) 1.4497(5) 0.95036(15)
C1B C 0.3994(2) 0.3700(6) 0.98526(17)
C2B C 0.5102(3) 0.6833(6) 1.06479(16)
C3B C 0.2880(3) 0.2318(9) 0.9699(2)
H1B H 0.2906 0.1087 0.9228
H2B H 0.2714 0.1317 1.0197
H3B H 0.2299 0.3656 0.9572
C4B C 0.5178(3) 0.8896(7) 1.1351(2)
H4B H 0.5920 0.9700 1.1395
H5B H 0.4619 1.0290 1.1231
H6B H 0.5042 0.8018 1.1877
C5_2 C 1.0149(3) 0.7595(8) 0.8904(2)
H7_2 H 1.0757 0.8645 0.9178
H8_2 H 1.0446 0.6373 0.8501
H9_2 H 0.9784 0.6564 0.9323
O4 O 1.1996(3) 0.1197(6) 0.7313(3)
H10 H 1.1273 0.1431 0.7408
H11 H 1.2386 0.2743 0.7480
loop_
_geom_bond_atom_site_label_1
_geom_bond_atom_site_label_2
_geom_bond_site_symmetry_1
_geom_bond_site_symmetry_2
Ag1 O1 1_555 1_555
S1 O1 1_555 1_555
O2 S1 1_555 1_555
O3 S1 1_555 1_555
N1 Ag1 1_555 1_555
C1 N1 1_555 1_555
C2 N1 1_555 1_555
C3 C1 1_555 1_555
H1 C3 1_555 1_555
H2 C3 1_555 1_555
H3 C3 1_555 1_555
C4 C2 1_555 1_555
H4 C4 1_555 1_555
H5 C4 1_555 1_555
H6 C4 1_555 1_555
C5 S1 1_555 1_555
H7 C5 1_555 1_555
H8 C5 1_555 1_555
H9 C5 1_555 1_555
O4 H10 1_555 1_555
H11 O4 1_555 1_555
Ag1_2 O1_2 1_555 1_555
Ag1_3 O2 1_555 1_555
Ag1A O2 1_555 1_555
Ag1B N1B 1_555 1_555
Ag1A_2 O2_2 1_555 1_555
S1_2 O1_2 1_555 1_555
O2_2 Ag1 1_555 1_555
O2A Ag1 1_555 1_555
O2_3 Ag1_2 1_555 1_555
O2A_2 Ag1_2 1_555 1_555
O3_2 S1_2 1_555 1_555
N1B C1B 1_555 1_555
N1_2 Ag1_2 1_555 1_555
C1B C2 1_555 1_555
C2B C1 1_555 1_555
C3B C1B 1_555 1_555
H1B C3B 1_555 1_555
H2B C3B 1_555 1_555
H3B C3B 1_555 1_555
C4B C2B 1_555 1_555
H4B C4B 1_555 1_555
H5B C4B 1_555 1_555
H6B C4B 1_555 1_555
C5_2 S1_2 1_555 1_555
H7_2 C5_2 1_555 1_555
H8_2 C5_2 1_555 1_555
H9_2 C5_2 1_555 1_555
Ag1A O2A 1_555 1_555
Ag1A_2 O2A_2 1_555 1_555
S1_2 O2_2 1_555 1_555
N1B C2B 1_555 1_555

#END
