
#######################################################################
#
#                 Cambridge Crystallographic Data Centre
#                                CCDC 
#
#######################################################################
#
# If this CIF has been generated from an entry in the Cambridge 
# Structural Database, then it will include bibliographic, chemical, 
# crystal, experimental, refinement or atomic coordinate data resulting 
# from the CCDC's data processing and validation procedures.
#
#######################################################################

data_ELUQAE
_symmetry_cell_setting           monoclinic
_symmetry_space_group_name_H-M   'P 21/n'
_symmetry_Int_Tables_number      14
_space_group_name_Hall           '-P 2yn'
loop_
_symmetry_equiv_pos_site_id
_symmetry_equiv_pos_as_xyz
1 x,y,z
2 1/2-x,1/2+y,1/2-z
3 -x,-y,-z
4 1/2+x,1/2-y,1/2+z
_cell_length_a                   18.379(3)
_cell_length_b                   18.199(3)
_cell_length_c                   22.994(4)
_cell_angle_alpha                90
_cell_angle_beta                 112.896(3)
_cell_angle_gamma                90
_cell_volume                     7085.06
loop_
_atom_site_label
_atom_site_type_symbol
_atom_site_fract_x
_atom_site_fract_y
_atom_site_fract_z
Cs1 Cs 0.28138(3) 0.07201(2) 0.31691(2)
O1 O 0.1805(4) -0.0737(4) 0.3201(3)
C1 C 0.1235(5) -0.1172(4) 0.2783(3)
C2 C 0.0441(5) -0.1057(5) 0.2669(4)
C3 C -0.0110(5) -0.1534(5) 0.2250(4)
H1 H -0.0655 -0.1472 0.2165
C4 C 0.0123(5) -0.2094(5) 0.1955(4)
H2 H -0.0263 -0.2424 0.1688
C5 C 0.0902(5) -0.2185(5) 0.2041(4)
H3 H 0.1051 -0.2550 0.1814
C6 C 0.1461(5) -0.1732(5) 0.2465(4)
N1 N 0.2335(7) -0.1633(5) 0.2641(4)
H4 H 0.2593 -0.1255 0.2865
C7 C 0.2674(8) -0.2117(5) 0.2452(5)
O2 O 0.2421(4) -0.2685(3) 0.2162(3)
O3 O 0.3739(5) -0.0871(3) 0.3405(3)
C8 C 0.4039(5) -0.1268(4) 0.3039(3)
C9 C 0.3589(5) -0.1815(5) 0.2633(4)
C10 C 0.3928(6) -0.2197(6) 0.2280(4)
H5 H 0.3634 -0.2573 0.2002
C11 C 0.4685(6) -0.2041(5) 0.2324(5)
H6 H 0.4901 -0.2315 0.2077
C12 C 0.5127(5) -0.1502(5) 0.2717(4)
H7 H 0.5643 -0.1393 0.2740
C13 C 0.4803(6) -0.1114(4) 0.3082(4)
N2 N 0.5081(6) -0.0445(6) 0.3483(5)
H8 H 0.4751 -0.0158 0.3570
C14 C 0.5796(6) -0.0313(7) 0.3685(5)
O4 O 0.6353(3) -0.0678(3) 0.3648(3)
O5 O 0.4595(3) 0.0780(5) 0.3916(3)
C15 C 0.5361(5) 0.0931(5) 0.4133(3)
C16 C 0.5920(5) 0.0473(4) 0.4057(4)
C17 C 0.6714(5) 0.0671(4) 0.4306(4)
H9 H 0.7094 0.0349 0.4259
C18 C 0.6952(4) 0.1322(5) 0.4615(4)
H10 H 0.7497 0.1446 0.4780
C19 C 0.6424(5) 0.1800(5) 0.4695(4)
H11 H 0.6594 0.2256 0.4906
C20 C 0.5640(5) 0.1603(6) 0.4460(4)
N3 N 0.4905(6) 0.1958(6) 0.4473(4)
H12 H 0.4447 0.1732 0.4309
C21 C 0.4955(8) 0.2571(7) 0.4718(5)
O6 O 0.5566(4) 0.2950(4) 0.5004(3)
O7 O 0.3328(5) 0.1702(3) 0.4383(3)
C22 C 0.3373(5) 0.2452(4) 0.4500(3)
C23 C 0.4062(5) 0.2835(5) 0.4625(4)
C24 C 0.4067(5) 0.3585(5) 0.4714(5)
H13 H 0.4536 0.3856 0.4787
C25 C 0.3401(5) 0.3948(5) 0.4699(4)
H14 H 0.3417 0.4464 0.4764
C26 C 0.2723(5) 0.3570(4) 0.4593(5)
H15 H 0.2267 0.3821 0.4587
C27 C 0.2699(6) 0.2818(5) 0.4492(5)
N4 N 0.2031(7) 0.2263(6) 0.4268(4)
H16 H 0.2069 0.1845 0.4088
C28 C 0.1424(9) 0.2437(6) 0.4355(5)
O8 O 0.1323(4) 0.2961(4) 0.4663(3)
O9 O 0.1510(4) 0.0964(5) 0.3623(3)
C29 C 0.0844(5) 0.1158(6) 0.3686(4)
C30 C 0.0780(5) 0.1793(5) 0.3998(4)
C31 C 0.0079(6) 0.1971(5) 0.4048(4)
H17 H 0.0048 0.2405 0.4268
C32 C -0.0579(6) 0.1533(6) 0.3784(5)
H18 H -0.1060 0.1670 0.3818
C33 C -0.0541(5) 0.0899(6) 0.3472(4)
H19 H -0.0993 0.0595 0.3290
C34 C 0.0165(6) 0.0710(5) 0.3428(5)
N5 N 0.0421(6) 0.0071(7) 0.3136(4)
H20 H 0.0888 0.0076 0.3113
C35 C -0.0019(7) -0.0455(8) 0.2930(5)
O10 O -0.0718(4) -0.0520(4) 0.2882(3)
C36 C 0.2022(7) -0.0970(6) 0.3845(4)
H21 H 0.1545 -0.1028 0.3934
H22 H 0.2367 -0.0601 0.4130
H23 H 0.2301 -0.1441 0.3910
C37 C 0.4005(7) -0.1130(5) 0.4048(4)
H24 H 0.3889 -0.1655 0.4048
H25 H 0.3731 -0.0859 0.4270
H26 H 0.4576 -0.1051 0.4260
C38 C 0.3471(6) 0.1238(5) 0.4923(4)
H27 H 0.3960 0.1393 0.5268
H28 H 0.3523 0.0727 0.4810
H29 H 0.3029 0.1279 0.5058
O11 O 0.1262(5) 0.0334(5) 0.2066(4)
C55 C 0.1035(8) -0.0044(7) 0.1486(5)
H66 H 0.1504 -0.0265 0.1444
H67 H 0.0663 -0.0444 0.1470
C56 C 0.0676(11) 0.0445(8) 0.0996(6)
H68 H 0.0166 0.0246 0.0697
H69 H 0.1020 0.0543 0.0763
C57 C 0.0547(17) 0.1142(10) 0.1307(7)
H70 H 0.0835 0.1559 0.1219
H71 H -0.0022 0.1266 0.1145
C58 C 0.0820(9) 0.1008(7) 0.1921(5)
H72 H 0.0373 0.0972 0.2058
H73 H 0.1163 0.1419 0.2154
O14 O 0.3610(10) 0.0299(7) 0.2286(7)
C67 C 0.3253(13) -0.0019(11) 0.1674(7)
H90 H 0.3082 -0.0531 0.1694
H91 H 0.2797 0.0274 0.1395
C68 C 0.3853(14) 0.0010(11) 0.1489(11)
H92 H 0.3676 -0.0079 0.1029
H93 H 0.4270 -0.0349 0.1721
C69 C 0.414(2) 0.0801(16) 0.1661(15)
H94 H 0.4712 0.0837 0.1776
H95 H 0.3864 0.1135 0.1301
C70 C 0.3952(16) 0.0972(12) 0.2153(11)
H96 H 0.3566 0.1380 0.2046
H97 H 0.4430 0.1118 0.2522
Cs1A Cs 0.21862(3) -0.42799(2) 0.18309(2)
O2A O 0.2579(4) 0.2315(3) 0.2838(3)
N6 N 0.6808(3) 0.3205(3) 0.1315(3)
C39 C 0.6702(5) 0.3655(4) 0.0731(4)
H30 H 0.6343 0.3383 0.0356
H31 H 0.7220 0.3693 0.0695
C40 C 0.6375(5) 0.4426(4) 0.0711(4)
H32 H 0.6768 0.4737 0.1036
H33 H 0.5891 0.4408 0.0802
C41 C 0.6184(5) 0.4754(4) 0.0060(4)
H34 H 0.6661 0.4726 -0.0041
H35 H 0.5766 0.4456 -0.0257
C42 C 0.5916(5) 0.5534(4) 0.0006(4)
H36 H 0.5470 0.5573 0.0137
H37 H 0.5750 0.5697 -0.0433
H38 H 0.6351 0.5844 0.0278
C43 C 0.7337(5) 0.3629(5) 0.1899(4)
H39 H 0.7803 0.3809 0.1827
H40 H 0.7042 0.4065 0.1947
C44 C 0.7624(7) 0.3203(5) 0.2512(4)
H41 H 0.7171 0.2952 0.2558
H42 H 0.8004 0.2822 0.2503
C45 C 0.8015(10) 0.3702(7) 0.3067(5)
H43 H 0.8474 0.3942 0.3022
H44 H 0.7638 0.4091 0.3064
C46 C 0.8288(14) 0.3313(9) 0.3682(6)
H45 H 0.8445 0.2811 0.3630
H46 H 0.7859 0.3298 0.3834
H47 H 0.8742 0.3574 0.3989
C47 C 0.6027(4) 0.3075(5) 0.1376(4)
H48 H 0.6115 0.2720 0.1723
H49 H 0.5854 0.3543 0.1500
C48 C 0.5362(4) 0.2788(5) 0.0792(4)
H50 H 0.5531 0.2334 0.0643
H51 H 0.5222 0.3159 0.0450
C49 C 0.4647(5) 0.2628(6) 0.0953(5)
H52 H 0.4791 0.2249 0.1287
H53 H 0.4501 0.3080 0.1121
C50 C 0.3942(6) 0.2365(6) 0.0389(7)
H54 H 0.3804 0.2734 0.0052
H55 H 0.3493 0.2291 0.0512
H56 H 0.4072 0.1901 0.0237
C51 C 0.7164(5) 0.2470(4) 0.1257(4)
H57 H 0.7218 0.2169 0.1630
H58 H 0.6787 0.2214 0.0880
C52 C 0.7957(5) 0.2494(5) 0.1203(5)
H59 H 0.8315 0.2823 0.1534
H60 H 0.7891 0.2700 0.0787
C53 C 0.8329(6) 0.1728(5) 0.1276(5)
H61 H 0.7932 0.1384 0.0992
H62 H 0.8775 0.1749 0.1137
C54 C 0.8621(7) 0.1431(6) 0.1925(5)
H63 H 0.9020 0.1764 0.2210
H64 H 0.8855 0.0946 0.1934
H65 H 0.8180 0.1388 0.2062
O12 O 0.1160(5) 0.3527(5) -0.2870(4)
C59 C 0.1485(9) 0.4235(7) -0.2913(7)
H74 H 0.1713 0.4225 -0.3239
H75 H 0.1066 0.4614 -0.3032
C60 C 0.2080(7) 0.4402(6) -0.2317(6)
H76 H 0.1906 0.4796 -0.2103
H77 H 0.2574 0.4557 -0.2358
C61 C 0.2192(7) 0.3679(7) -0.1960(6)
H78 H 0.2564 0.3352 -0.2052
H79 H 0.2385 0.3761 -0.1499
C62 C 0.1420(8) 0.3393(8) -0.2202(6)
H80 H 0.1080 0.3652 -0.2024
H81 H 0.1420 0.2861 -0.2112
O13 O 0.2578(9) 1.0531(9) -0.0110(9)
C63 C 0.2291(13) 1.0192(10) -0.0725(11)
H82 H 0.2577 1.0392 -0.0977
H83 H 0.2381 0.9655 -0.0682
C64 C 0.1507(13) 1.0333(11) -0.1019(9)
H84 H 0.1188 0.9921 -0.0964
H85 H 0.1359 1.0421 -0.1476
C65 C 0.1397(15) 1.1016(15) -0.0693(10)
H86 H 0.1314 1.1446 -0.0976
H87 H 0.0928 1.0962 -0.0586
C66 C 0.2032(10) 1.1118(10) -0.0174(10)
H88 H 0.1885 1.1128 0.0197
H89 H 0.2281 1.1594 -0.0196
O16 O -0.2064(12) 0.7837(10) -0.1154(9)
C71 C -0.490(2) -0.0471(15) -0.0413(14)
H98 H -0.4397 -0.0670 -0.0110
H99 H -0.5027 -0.0717 -0.0824
C72 C -0.554(2) -0.0638(17) -0.0180(16)
H100 H -0.6040 -0.0375 -0.0430
H101 H -0.5652 -0.1172 -0.0190
C73 C -0.482(3) 0.0352(17) -0.0489(15)
H102 H -0.4473 0.0452 -0.0718
H103 H -0.5341 0.0582 -0.0722
C71B C -0.510(2) 0.0471(15) 0.0413(14)
H98B H -0.5603 0.0670 0.0110
H99B H -0.4973 0.0717 0.0824
C72B C -0.446(2) 0.0638(17) 0.0180(16)
H100B H -0.3960 0.0375 0.0430
H101B H -0.4348 0.1172 0.0190
C73B C -0.518(3) -0.0352(17) 0.0489(15)
H102B H -0.5527 -0.0452 0.0718
H103B H -0.4659 -0.0582 0.0722
O15? O 0.3093(12) 0.0779(15) 0.1892(9)
loop_
_geom_bond_atom_site_label_1
_geom_bond_atom_site_label_2
_geom_bond_site_symmetry_1
_geom_bond_site_symmetry_2
Cs1 O1 1_555 1_555
O1 C1 1_555 1_555
C1 C2 1_555 1_555
C2 C3 1_555 1_555
C3 H1 1_555 1_555
C4 C3 1_555 1_555
H2 C4 1_555 1_555
C5 C4 1_555 1_555
H3 C5 1_555 1_555
C6 C1 1_555 1_555
N1 C6 1_555 1_555
H4 N1 1_555 1_555
C7 N1 1_555 1_555
O2 C7 1_555 1_555
O3 Cs1 1_555 1_555
C8 O3 1_555 1_555
C9 C7 1_555 1_555
C10 C9 1_555 1_555
H5 C10 1_555 1_555
C11 C10 1_555 1_555
H6 C11 1_555 1_555
C12 C11 1_555 1_555
H7 C12 1_555 1_555
C13 C8 1_555 1_555
N2 C13 1_555 1_555
H8 N2 1_555 1_555
C14 N2 1_555 1_555
O4 C14 1_555 1_555
O5 Cs1 1_555 1_555
C15 O5 1_555 1_555
C16 C14 1_555 1_555
C17 C16 1_555 1_555
H9 C17 1_555 1_555
C18 C17 1_555 1_555
H10 C18 1_555 1_555
C19 C18 1_555 1_555
H11 C19 1_555 1_555
C20 C15 1_555 1_555
N3 C20 1_555 1_555
H12 N3 1_555 1_555
C21 N3 1_555 1_555
O6 C21 1_555 1_555
O7 Cs1 1_555 1_555
C22 O7 1_555 1_555
C23 C21 1_555 1_555
C24 C23 1_555 1_555
H13 C24 1_555 1_555
C25 C24 1_555 1_555
H14 C25 1_555 1_555
C26 C25 1_555 1_555
H15 C26 1_555 1_555
C27 C22 1_555 1_555
N4 C27 1_555 1_555
H16 N4 1_555 1_555
C28 N4 1_555 1_555
O8 C28 1_555 1_555
O9 Cs1 1_555 1_555
C29 O9 1_555 1_555
C30 C28 1_555 1_555
C31 C30 1_555 1_555
H17 C31 1_555 1_555
C32 C31 1_555 1_555
H18 C32 1_555 1_555
C33 C32 1_555 1_555
H19 C33 1_555 1_555
C34 C29 1_555 1_555
N5 C34 1_555 1_555
H20 N5 1_555 1_555
C35 C2 1_555 1_555
O10 C35 1_555 1_555
C36 O1 1_555 1_555
H21 C36 1_555 1_555
H22 C36 1_555 1_555
H23 C36 1_555 1_555
C37 O3 1_555 1_555
H24 C37 1_555 1_555
H25 C37 1_555 1_555
H26 C37 1_555 1_555
C38 O7 1_555 1_555
H27 C38 1_555 1_555
H28 C38 1_555 1_555
H29 C38 1_555 1_555
N6 C39 1_555 1_555
C39 H30 1_555 1_555
H31 C39 1_555 1_555
C40 C39 1_555 1_555
H32 C40 1_555 1_555
H33 C40 1_555 1_555
C41 C40 1_555 1_555
H34 C41 1_555 1_555
H35 C41 1_555 1_555
C42 C41 1_555 1_555
H36 C42 1_555 1_555
H37 C42 1_555 1_555
H38 C42 1_555 1_555
C43 N6 1_555 1_555
H39 C43 1_555 1_555
H40 C43 1_555 1_555
C44 C43 1_555 1_555
H41 C44 1_555 1_555
H42 C44 1_555 1_555
C45 C44 1_555 1_555
H43 C45 1_555 1_555
H44 C45 1_555 1_555
C46 C45 1_555 1_555
H45 C46 1_555 1_555
H46 C46 1_555 1_555
H47 C46 1_555 1_555
C47 N6 1_555 1_555
H48 C47 1_555 1_555
H49 C47 1_555 1_555
C48 C47 1_555 1_555
H50 C48 1_555 1_555
H51 C48 1_555 1_555
C49 C48 1_555 1_555
H52 C49 1_555 1_555
H53 C49 1_555 1_555
C50 C49 1_555 1_555
H54 C50 1_555 1_555
H55 C50 1_555 1_555
H56 C50 1_555 1_555
C51 N6 1_555 1_555
H57 C51 1_555 1_555
H58 C51 1_555 1_555
C52 C51 1_555 1_555
H59 C52 1_555 1_555
H60 C52 1_555 1_555
C53 C52 1_555 1_555
H61 C53 1_555 1_555
H62 C53 1_555 1_555
C54 C53 1_555 1_555
H63 C54 1_555 1_555
H64 C54 1_555 1_555
H65 C54 1_555 1_555
O11 Cs1 1_555 1_555
C55 O11 1_555 1_555
H66 C55 1_555 1_555
H67 C55 1_555 1_555
C56 C55 1_555 1_555
H68 C56 1_555 1_555
H69 C56 1_555 1_555
C57 C56 1_555 1_555
H70 C57 1_555 1_555
H71 C57 1_555 1_555
C58 O11 1_555 1_555
H72 C58 1_555 1_555
H73 C58 1_555 1_555
O12 C59 1_555 1_555
C59 H74 1_555 1_555
H75 C59 1_555 1_555
C60 C59 1_555 1_555
H76 C60 1_555 1_555
H77 C60 1_555 1_555
C61 C60 1_555 1_555
H78 C61 1_555 1_555
H79 C61 1_555 1_555
C62 O12 1_555 1_555
H80 C62 1_555 1_555
H81 C62 1_555 1_555
O13 C63 1_555 1_555
C63 H82 1_555 1_555
H83 C63 1_555 1_555
C64 C63 1_555 1_555
H84 C64 1_555 1_555
H85 C64 1_555 1_555
C65 C64 1_555 1_555
H86 C65 1_555 1_555
H87 C65 1_555 1_555
C66 O13 1_555 1_555
H88 C66 1_555 1_555
H89 C66 1_555 1_555
O14 Cs1 1_555 1_555
C67 O14 1_555 1_555
H90 C67 1_555 1_555
H91 C67 1_555 1_555
C68 C67 1_555 1_555
H92 C68 1_555 1_555
H93 C68 1_555 1_555
C69 C68 1_555 1_555
H94 C69 1_555 1_555
H95 C69 1_555 1_555
C70 O14 1_555 1_555
H96 C70 1_555 1_555
H97 C70 1_555 1_555
C71 H98 1_555 1_555
H99 C71 1_555 1_555
C72 C71 1_555 1_555
H100 C72 1_555 1_555
H101 C72 1_555 1_555
C73 C71 1_555 1_555
H102 C73 1_555 1_555
H103 C73 1_555 1_555
Cs1A O2 1_555 1_555
O2A Cs1 1_555 1_555
C71B H98B 1_555 1_555
H99B C71B 1_555 1_555
C72B C73 1_555 1_555
H100B C72B 1_555 1_555
H101B C72B 1_555 1_555
C73B C72 1_555 1_555
H102B C73B 1_555 1_555
H103B C73B 1_555 1_555
C5 C6 1_555 1_555
C8 C9 1_555 1_555
C12 C13 1_555 1_555
C15 C16 1_555 1_555
C19 C20 1_555 1_555
C22 C23 1_555 1_555
C26 C27 1_555 1_555
C29 C30 1_555 1_555
C33 C34 1_555 1_555
N5 C35 1_555 1_555
C57 C58 1_555 1_555
C61 C62 1_555 1_555
C65 C66 1_555 1_555
C69 C70 1_555 1_555
C71B C72B 1_555 1_555
C71B C73B 1_555 1_555

#END
