
#######################################################################
#
#                 Cambridge Crystallographic Data Centre
#                                CCDC 
#
#######################################################################
#
# If this CIF has been generated from an entry in the Cambridge 
# Structural Database, then it will include bibliographic, chemical, 
# crystal, experimental, refinement or atomic coordinate data resulting 
# from the CCDC's data processing and validation procedures.
#
#######################################################################

data_ELUTUB
_symmetry_cell_setting           monoclinic
_symmetry_space_group_name_H-M   'P 21/c'
_symmetry_Int_Tables_number      14
_space_group_name_Hall           '-P 2ybc'
loop_
_symmetry_equiv_pos_site_id
_symmetry_equiv_pos_as_xyz
1 x,y,z
2 -x,1/2+y,1/2-z
3 -x,-y,-z
4 x,1/2-y,1/2+z
_cell_length_a                   7.0080(8)
_cell_length_b                   16.0288(19)
_cell_length_c                   7.0080(8)
_cell_angle_alpha                90
_cell_angle_beta                 101.56
_cell_angle_gamma                90
_cell_volume                     771.239
loop_
_atom_site_label
_atom_site_type_symbol
_atom_site_fract_x
_atom_site_fract_y
_atom_site_fract_z
Pb1 Pb 0.25961(5) 0.58608(2) 0.50748(4)
O1 O 0.1634(9) 0.7315(4) 0.5453(9)
O2 O 0.2132(8) 0.8561(3) 0.6796(8)
O3 O 0.5542(9) 0.9375(4) 0.8800(9)
O4 O 0.8628(10) 0.9049(4) 0.8894(13)
N1 N 0.5084(8) 0.6705(4) 0.7456(8)
N2 N 0.7783(10) 0.7355(4) 0.8832(10)
H1 H 0.8976 0.7434 0.9396
C1 C 0.4687(11) 0.7545(4) 0.7461(11)
C2 C 0.6368(11) 0.7968(5) 0.8303(10)
C3 C 0.6937(12) 0.6614(5) 0.8299(11)
C4 C 0.2709(12) 0.7840(5) 0.6548(11)
C5 C 0.6909(12) 0.8866(5) 0.8668(11)
C6 C 0.8004(16) 0.5796(6) 0.8748(14)
H2 H 0.7083 0.5359 0.8814
H3 H 0.8901 0.5838 0.9974
H4 H 0.8708 0.5671 0.7740
Pb1C Pb 0.25961(5) 0.91392(2) 1.00748(4)
Pb1A Pb 0.74039(5) 1.08608(2) 0.99252(4)
Pb1C_2 Pb 1.25961(5) 0.91392(2) 1.00748(4)
O2C O 0.2132(8) 0.6439(3) 0.1796(8)
O3A O 0.4458(9) 0.4375(4) 0.6200(9)
O3C O 0.5542(9) 0.5625(4) 0.3800(9)
O4C O -0.1372(10) 0.5951(4) 0.3894(13)
loop_
_geom_bond_atom_site_label_1
_geom_bond_atom_site_label_2
_geom_bond_site_symmetry_1
_geom_bond_site_symmetry_2
Pb1 O1 1_555 1_555
O1 C4 1_555 1_555
O2 C4 1_555 1_555
O3 C5 1_555 1_555
O4 C5 1_555 1_555
N1 Pb1 1_555 1_555
N2 H1 1_555 1_555
C1 N1 1_555 1_555
C2 N2 1_555 1_555
C3 N1 1_555 1_555
C4 C1 1_555 1_555
C5 C2 1_555 1_555
C6 C3 1_555 1_555
H2 C6 1_555 1_555
H3 C6 1_555 1_555
H4 C6 1_555 1_555
Pb1C O2 1_555 1_555
Pb1A O3 1_555 1_555
Pb1C_2 O4 1_555 1_555
O2C Pb1 1_555 1_555
O3A Pb1 1_555 1_555
O3C Pb1 1_555 1_555
O4C Pb1 1_555 1_555
O3 Pb1C 1_555 1_555
N2 C3 1_555 1_555
C1 C2 1_555 1_555

#END
