
#######################################################################
#
#                 Cambridge Crystallographic Data Centre
#                                CCDC 
#
#######################################################################
#
# If this CIF has been generated from an entry in the Cambridge 
# Structural Database, then it will include bibliographic, chemical, 
# crystal, experimental, refinement or atomic coordinate data resulting 
# from the CCDC's data processing and validation procedures.
#
#######################################################################

data_ELUVEM
_symmetry_cell_setting           monoclinic
_symmetry_space_group_name_H-M   'P 21'
_symmetry_Int_Tables_number      4
_space_group_name_Hall           'P 2yb'
loop_
_symmetry_equiv_pos_site_id
_symmetry_equiv_pos_as_xyz
1 x,y,z
2 -x,1/2+y,-z
_cell_length_a                   5.249(1)
_cell_length_b                   14.133(3)
_cell_length_c                   5.275(1)
_cell_angle_alpha                90
_cell_angle_beta                 105.55(2)
_cell_angle_gamma                90
_cell_volume                     376.998
loop_
_atom_site_label
_atom_site_type_symbol
_atom_site_fract_x
_atom_site_fract_y
_atom_site_fract_z
Cr1 Cr 0.5351(1) 0.4046(1) 0.4301(1)
P1 P 0.1263(1) 0.3521(1) -0.1776(1)
Cl1 Cl 0.4526(2) 0.5904(1) 0.5260(2)
O1 O 0.2812(4) 0.4001(2) 0.0731(3)
O2 O -0.1600(4) 0.3884(2) -0.2438(4)
O3 O 0.2457(4) 0.3646(2) -0.4086(4)
N1 N -0.0663(7) 0.0992(2) 0.1026(7)
C1 C 0.1133(7) 0.2265(2) -0.1211(6)
C2 C -0.0498(7) 0.2033(2) 0.0689(7)
O4 O 0.8077(4) 0.4447(2) 0.2383(4)
H1 H 0.0363 0.1954 -0.2856
H2 H 0.2902 0.2037 -0.0487
H3 H -0.2249 0.2283 0.0012
H4 H 0.0313 0.2315 0.2367
H5 H -0.1698 0.0852 0.2235
H6 H 0.1086 0.0731 0.1713
H7 H -0.1477 0.0698 -0.0641
O2_2 O 0.8400(4) 0.3884(2) 0.7562(4)
Cr1_2 Cr -0.4649(1) 0.4046(1) -0.5699(1)
O3_2 O 0.2457(4) 0.3646(2) 0.5914(4)
Cr1_3 Cr 0.5351(1) 0.4046(1) -0.5699(1)
loop_
_geom_bond_atom_site_label_1
_geom_bond_atom_site_label_2
_geom_bond_site_symmetry_1
_geom_bond_site_symmetry_2
Cr1 Cl1 1_555 1_555
P1 O1 1_555 1_555
O1 Cr1 1_555 1_555
O2 P1 1_555 1_555
O3 P1 1_555 1_555
N1 C2 1_555 1_555
C1 P1 1_555 1_555
C2 C1 1_555 1_555
O4 Cr1 1_555 1_555
H1 C1 1_555 1_555
H2 C1 1_555 1_555
H3 C2 1_555 1_555
H4 C2 1_555 1_555
H5 N1 1_555 1_555
H6 N1 1_555 1_555
H7 N1 1_555 1_555
O2_2 Cr1 1_555 1_555
Cr1_2 O2 1_555 1_555
O3_2 Cr1 1_555 1_555
Cr1_3 O3 1_555 1_555

#END
