
#######################################################################
#
#                 Cambridge Crystallographic Data Centre
#                                CCDC 
#
#######################################################################
#
# If this CIF has been generated from an entry in the Cambridge 
# Structural Database, then it will include bibliographic, chemical, 
# crystal, experimental, refinement or atomic coordinate data resulting 
# from the CCDC's data processing and validation procedures.
#
#######################################################################

data_ELUVEN
_symmetry_cell_setting           monoclinic
_symmetry_space_group_name_H-M   'P 21/n'
_symmetry_Int_Tables_number      14
_space_group_name_Hall           '-P 2yn'
loop_
_symmetry_equiv_pos_site_id
_symmetry_equiv_pos_as_xyz
1 x,y,z
2 1/2-x,1/2+y,1/2-z
3 -x,-y,-z
4 1/2+x,1/2-y,1/2+z
_cell_length_a                   8.5931(8)
_cell_length_b                   15.4054(15)
_cell_length_c                   10.8359(11)
_cell_angle_alpha                90
_cell_angle_beta                 92.566(2)
_cell_angle_gamma                90
_cell_volume                     1433.02
loop_
_atom_site_label
_atom_site_type_symbol
_atom_site_fract_x
_atom_site_fract_y
_atom_site_fract_z
Ba1 Ba 0.252170(18) 1.051380(12) 0.499559(15)
C1 C 0.2456(4) 0.6646(2) 0.3107(3)
C2 C 0.1335(4) 1.2916(2) 0.7999(3)
C3 C 0.0930(4) 1.1514(2) 0.8193(3)
C4 C 0.2227(4) 0.8286(2) 0.3698(3)
C5 C 0.3699(4) 0.8788(2) 0.2312(3)
C6 C 0.3032(4) 1.2760(2) 0.6110(3)
C7 C 0.1062(4) 0.8329(2) 0.4669(3)
C8 C 0.2745(4) 0.7580(2) 0.3057(3)
C9 C 0.1283(4) 1.3851(2) 0.8308(3)
C10 C 0.2082(4) 1.2458(2) 0.7114(3)
C11 C 0.0377(5) 1.0686(2) 0.8715(4)
H1 H 0.0155 1.0280 0.8057
H2 H -0.0551 1.0789 0.9153
H3 H 0.1170 1.0451 0.9271
C12 C 0.4541(5) 0.9358(2) 0.1470(4)
H4 H 0.4338 0.9954 0.1665
H5 H 0.4192 0.9243 0.0632
H6 H 0.5639 0.9248 0.1566
N1 N 0.0610(3) 1.23014(17) 0.8681(2)
N2 N 0.1813(3) 1.15866(17) 0.7235(3)
N3 N 0.2835(3) 0.90344(18) 0.3234(3)
N4 N 0.3673(3) 0.79140(17) 0.2176(3)
O1 O 0.0437(3) 1.41125(15) 0.9127(2)
O2 O 0.2177(3) 1.43538(15) 0.7729(2)
O3 O 0.3407(4) 1.35682(16) 0.6065(3)
O4 O 0.3464(3) 1.22382(16) 0.5332(2)
O5 O 0.0604(3) 0.90640(15) 0.4992(2)
O6 O 0.0575(3) 0.76240(15) 0.5114(2)
O7 O 0.1648(4) 0.63625(16) 0.4005(3)
H7 H 0.1291 0.6775 0.4378
O8 O 0.2960(3) 0.61651(16) 0.2324(2)
Ba1A Ba 0.247830(18) 1.551380(12) 1.000441(15)
Ba1C Ba -0.247830(18) 1.448620(12) 0.999559(15)
Ba1B Ba -0.252170(18) 0.948620(12) 0.500441(15)
Ba1A_2 Ba 0.247830(18) 0.551380(12) 0.000441(15)
O1A O 0.4563(3) 0.91125(15) 0.5873(2)
O1C O 0.5437(3) 1.08875(15) 0.4127(2)
O2A O 0.2823(3) 0.93538(15) 0.7271(2)
O5B O -0.0604(3) 1.09360(15) 0.5008(2)
O8A O 0.2040(3) 1.11651(16) 0.2676(2)
loop_
_geom_bond_atom_site_label_1
_geom_bond_atom_site_label_2
_geom_bond_site_symmetry_1
_geom_bond_site_symmetry_2
Ba1 N2 1_555 1_555
C1 C8 1_555 1_555
C2 C9 1_555 1_555
C3 C11 1_555 1_555
C4 C7 1_555 1_555
C5 C12 1_555 1_555
C6 C10 1_555 1_555
C7 O5 1_555 1_555
C8 C4 1_555 1_555
C9 O1 1_555 1_555
C10 C2 1_555 1_555
C11 H1 1_555 1_555
H2 C11 1_555 1_555
H3 C11 1_555 1_555
C12 H4 1_555 1_555
H5 C12 1_555 1_555
H6 C12 1_555 1_555
N1 C2 1_555 1_555
N2 C3 1_555 1_555
N3 Ba1 1_555 1_555
N4 C5 1_555 1_555
O1 Ba1A 1_555 1_555
O2 C9 1_555 1_555
O3 C6 1_555 1_555
O4 Ba1 1_555 1_555
O5 Ba1 1_555 1_555
O6 C7 1_555 1_555
O7 C1 1_555 1_555
H7 O7 1_555 1_555
O8 C1 1_555 1_555
Ba1A O2 1_555 1_555
Ba1C O1 1_555 1_555
Ba1B O5 1_555 1_555
Ba1A_2 O8 1_555 1_555
O1A Ba1 1_555 1_555
O1C Ba1 1_555 1_555
O2A Ba1 1_555 1_555
O5B Ba1 1_555 1_555
O8A Ba1 1_555 1_555
C3 N1 1_555 1_555
C4 N3 1_555 1_555
C5 N3 1_555 1_555
C6 O4 1_555 1_555
C8 N4 1_555 1_555
C10 N2 1_555 1_555
Ba1B O5B 1_555 1_555

#END
