
#######################################################################
#
#                 Cambridge Crystallographic Data Centre
#                                CCDC 
#
#######################################################################
#
# If this CIF has been generated from an entry in the Cambridge 
# Structural Database, then it will include bibliographic, chemical, 
# crystal, experimental, refinement or atomic coordinate data resulting 
# from the CCDC's data processing and validation procedures.
#
#######################################################################

data_EMADEB
_symmetry_cell_setting           orthorhombic
_symmetry_space_group_name_H-M   'P n n a'
_symmetry_Int_Tables_number      52
_space_group_name_Hall           '-P 2a 2bc'
loop_
_symmetry_equiv_pos_site_id
_symmetry_equiv_pos_as_xyz
1 x,y,z
2 1/2+x,y,-z
3 1/2+x,1/2-y,1/2+z
4 -x,1/2+y,1/2+z
5 -x,-y,-z
6 1/2-x,-y,z
7 1/2-x,1/2+y,1/2-z
8 x,1/2-y,1/2-z
_cell_length_a                   10.5471(17)
_cell_length_b                   14.201(2)
_cell_length_c                   19.667(3)
_cell_angle_alpha                90
_cell_angle_beta                 90
_cell_angle_gamma                90
_cell_volume                     2945.71
loop_
_atom_site_label
_atom_site_type_symbol
_atom_site_fract_x
_atom_site_fract_y
_atom_site_fract_z
O4 O 0.7500 0.5000 -0.095(3)
O5 O 1.685(3) 0.570(4) -0.2601(17)
O6 O 0.892(7) 0.536(6) 0.008(3)
C11 C 0.994(8) 0.551(2) 0.056(2)
Cu1 Cu 0.77396(15) 0.2500 0.2500
S1 S 0.7918(4) 0.5002(5) 0.1881(2)
S2 S 1.2172(2) 0.2213(3) 0.01629(14)
S3 S 1.3329(2) 0.1103(2) 0.03643(14)
O1 O 0.7728(8) 0.4175(5) 0.2183(4)
O2 O 0.7500 0.5000 0.1199(6)
O3 O 0.930(2) 0.5126(11) 0.2057(11)
N1 N 0.9089(8) 0.2301(6) 0.1773(4)
N2 N 1.6388(7) 0.2113(5) 0.1813(3)
C1 C 1.0043(9) 0.1684(8) 0.1836(4)
H1 H 1.0046 0.1291 0.2214
H2 H 1.1691 0.1148 0.1436
H3 H 1.3841 0.2908 0.1059
H4 H 1.5468 0.3349 0.1785
H5 H 1.7024 0.0805 0.1674
H6 H 1.5428 0.0302 0.0935
H7 H 0.9980 0.3232 0.0329
H8 H 0.8408 0.3343 0.1169
C2 C 1.1017(8) 0.1596(8) 0.1375(5)
C3 C 1.0992(9) 0.2179(8) 0.0813(4)
C4 C 1.4491(9) 0.1551(7) 0.0932(4)
C5 C 1.4508(9) 0.2443(6) 0.1192(5)
C6 C 1.5470(10) 0.2691(7) 0.1622(5)
C7 C 1.6361(10) 0.1242(7) 0.1547(5)
C8 C 1.5432(10) 0.0936(6) 0.1113(5)
C9 C 1.0025(10) 0.2820(8) 0.0731(5)
C10 C 0.9098(9) 0.2852(8) 0.1226(5)
S1E S 0.7082(4) 0.4998(5) 0.1881(2)
O1E O 0.7272(8) 0.5825(5) 0.2183(4)
O3E O 0.570(2) 0.4874(11) 0.2057(11)
S2G S 1.2172(2) 0.2787(3) 0.48371(14)
S3G S 1.3329(2) 0.3897(2) 0.46357(14)
N1G N 0.9089(8) 0.2699(6) 0.3227(4)
N2G N 1.6388(7) 0.2887(5) 0.3187(3)
C1G C 1.0043(9) 0.3316(8) 0.3164(4)
H1G H 1.0046 0.3709 0.2786
H2G H 1.1691 0.3852 0.3564
H3G H 1.3841 0.2092 0.3941
H4G H 1.5468 0.1651 0.3215
H5G H 1.7024 0.4195 0.3326
H6G H 1.5428 0.4698 0.4065
H7G H 0.9980 0.1768 0.4671
H8G H 0.8408 0.1657 0.3831
C2G C 1.1017(8) 0.3404(8) 0.3625(5)
C3G C 1.0992(9) 0.2821(8) 0.4187(4)
C4G C 1.4491(9) 0.3449(7) 0.4068(4)
C5G C 1.4508(9) 0.2557(6) 0.3808(5)
C6G C 1.5470(10) 0.2309(7) 0.3378(5)
C7G C 1.6361(10) 0.3758(7) 0.3453(5)
C8G C 1.5432(10) 0.4064(6) 0.3887(5)
C9G C 1.0025(10) 0.2180(8) 0.4269(5)
C10G C 0.9098(9) 0.2148(8) 0.3774(5)
O1G O 0.7728(8) 0.0825(5) 0.2817(4)
N2_2 N 0.6388(7) 0.2113(5) 0.1813(3)
N2G_2 N 0.6388(7) 0.2887(5) 0.3187(3)
Cu1_2 Cu 1.77396(15) 0.2500 0.2500
Cu1E Cu 0.72604(15) 0.7500 0.2500
loop_
_geom_bond_atom_site_label_1
_geom_bond_atom_site_label_2
_geom_bond_site_symmetry_1
_geom_bond_site_symmetry_2
Cu1 O1 1_555 1_555
S1 O1 1_555 1_555
S2 S3 1_555 1_555
S3 C4 1_555 1_555
O1 S1E 1_555 1_555
O2 S1 1_555 1_555
O3 S1 1_555 1_555
O6 C11 1_555 1_555
N1 Cu1 1_555 1_555
N2 C6 1_555 1_555
C1 N1 1_555 1_555
H1 C1 1_555 1_555
H2 C2 1_555 1_555
H3 C5 1_555 1_555
H4 C6 1_555 1_555
H5 C7 1_555 1_555
H6 C8 1_555 1_555
H7 C9 1_555 1_555
H8 C10 1_555 1_555
C2 C1 1_555 1_555
C3 S2 1_555 1_555
C4 C5 1_555 1_555
C5 C6 1_555 1_555
C7 N2 1_555 1_555
C8 C4 1_555 1_555
C9 C3 1_555 1_555
C10 N1 1_555 1_555
S1E S1 1_555 1_555
O1E S1 1_555 1_555
O3E S1E 1_555 1_555
S2G S3G 1_555 1_555
S3G C4G 1_555 1_555
N1G Cu1 1_555 1_555
N2G C6G 1_555 1_555
C1G N1G 1_555 1_555
H1G C1G 1_555 1_555
H2G C2G 1_555 1_555
H3G C5G 1_555 1_555
H4G C6G 1_555 1_555
H5G C7G 1_555 1_555
H6G C8G 1_555 1_555
H7G C9G 1_555 1_555
H8G C10G 1_555 1_555
C2G C1G 1_555 1_555
C3G S2G 1_555 1_555
C4G C5G 1_555 1_555
C5G C6G 1_555 1_555
C7G N2G 1_555 1_555
C8G C4G 1_555 1_555
C9G C3G 1_555 1_555
C10G N1G 1_555 1_555
O1G Cu1 1_555 1_555
N2_2 Cu1 1_555 1_555
N2G_2 Cu1 1_555 1_555
Cu1_2 N2 1_555 1_555
Cu1E O1E 1_555 1_555
O2 S1E 1_555 1_555
C2 C3 1_555 1_555
C7 C8 1_555 1_555
C9 C10 1_555 1_555
S1E O1E 1_555 1_555
N2G Cu1_2 1_555 1_555
C2G C3G 1_555 1_555
C7G C8G 1_555 1_555
C9G C10G 1_555 1_555

#END
