
#######################################################################
#
#                 Cambridge Crystallographic Data Centre
#                                CCDC 
#
#######################################################################
#
# If this CIF has been generated from an entry in the Cambridge 
# Structural Database, then it will include bibliographic, chemical, 
# crystal, experimental, refinement or atomic coordinate data resulting 
# from the CCDC's data processing and validation procedures.
#
#######################################################################

data_EMADUR
_symmetry_cell_setting           monoclinic
_symmetry_space_group_name_H-M   'P 21/n'
_symmetry_Int_Tables_number      14
_space_group_name_Hall           '-P 2yn'
loop_
_symmetry_equiv_pos_site_id
_symmetry_equiv_pos_as_xyz
1 x,y,z
2 1/2+x,1/2-y,1/2+z
3 -x,-y,-z
4 1/2-x,1/2+y,1/2-z
_cell_length_a                   14.378(6)
_cell_length_b                   20.933(9)
_cell_length_c                   15.457(6)
_cell_angle_alpha                90
_cell_angle_beta                 95.757(7)
_cell_angle_gamma                90
_cell_volume                     4628.7
loop_
_atom_site_label
_atom_site_type_symbol
_atom_site_fract_x
_atom_site_fract_y
_atom_site_fract_z
Eu1 Eu 0.368294(16) 1.016401(11) 0.944079(16)
Eu2 Eu 0.100734(16) 0.969670(11) 0.829751(15)
N1 N -0.0039(3) 1.0615(2) 0.7513(2)
N2 N 0.0077(3) 0.9411(2) 0.6832(3)
O1 O 0.1031(2) 0.92696(16) 1.0030(2)
O2 O 0.23537(19) 0.94224(14) 0.94564(19)
O3 O 0.46933(19) 0.93964(14) 1.01329(19)
O4 O 0.5811(2) 0.86919(14) 1.0429(2)
O5 O 0.3775(2) 0.94000(15) 0.8148(2)
O6 O 0.4428(2) 1.03435(15) 0.8130(2)
O7 O 0.23555(19) 1.04530(14) 0.83848(19)
O8 O 0.1804(2) 1.02952(17) 0.7036(2)
O9 O -0.0555(2) 1.14117(15) 1.1535(2)
O10 O 0.05211(19) 1.06962(15) 1.1335(2)
O11 O 0.2510(2) 1.07272(15) 1.0245(2)
O12 O 0.3822(2) 1.04125(17) 1.0962(2)
O13 O 0.2097(2) 0.89227(16) 0.7696(2)
O14 O 0.0765(2) 1.05138(15) 0.93738(19)
C1 C 0.1897(3) 0.9270(2) 1.0094(3)
C2 C 0.2447(3) 0.9112(2) 1.0943(3)
C3 C 0.2224(3) 0.9437(3) 1.1676(3)
H1 H 0.1705 0.9704 1.1641
C4 C 0.2764(3) 0.9367(3) 1.2448(3)
H2 H 0.2613 0.9590 1.2935
C5 C 0.3530(4) 0.8968(3) 1.2509(3)
H3 H 0.3903 0.8925 1.3033
C6 C 0.3737(3) 0.8632(3) 1.1783(3)
H4 H 0.4249 0.8358 1.1829
C7 C 0.3210(3) 0.8691(2) 1.0991(3)
C8 C 0.3422(3) 0.8286(2) 1.0246(3)
C9 C 0.2780(3) 0.7837(2) 0.9902(3)
H5 H 0.2197 0.7813 1.0114
C10 C 0.2986(4) 0.7424(3) 0.9254(4)
H6 H 0.2544 0.7126 0.9034
C11 C 0.3840(4) 0.7449(3) 0.8930(4)
H7 H 0.3977 0.7171 0.8491
C12 C 0.4495(3) 0.7891(2) 0.9262(3)
H8 H 0.5077 0.7907 0.9049
C13 C 0.4292(3) 0.8309(2) 0.9909(3)
C14 C 0.4981(3) 0.8819(2) 1.0186(3)
C15 C 0.4088(3) 0.9868(2) 0.7739(3)
C16 C 0.3975(3) 0.9857(2) 0.6761(3)
C17 C 0.4099(3) 0.9291(3) 0.6320(3)
H9 H 0.4224 0.8917 0.6636
C18 C 0.4042(4) 0.9267(3) 0.5430(4)
H10 H 0.4142 0.8886 0.5145
C19 C 0.3832(4) 0.9820(3) 0.4965(4)
H11 H 0.3795 0.9811 0.4361
C20 C 0.3678(3) 1.0383(3) 0.5381(3)
H12 H 0.3527 1.0748 0.5053
C21 C 0.3745(3) 1.0419(2) 0.6286(3)
C22 C 0.3596(3) 1.1037(2) 0.6713(3)
C23 C 0.4152(3) 1.1559(3) 0.6547(3)
H13 H 0.4563 1.1523 0.6122
C24 C 0.4113(4) 1.2120(3) 0.6988(4)
H14 H 0.4495 1.2459 0.6861
C25 C 0.3513(4) 1.2187(3) 0.7620(4)
H15 H 0.3495 1.2568 0.7928
C26 C 0.2933(3) 1.1682(2) 0.7796(3)
H16 H 0.2526 1.1724 0.8224
C27 C 0.2960(3) 1.1115(2) 0.7332(3)
C28 C 0.2334(3) 1.0590(2) 0.7572(3)
C29 C 0.0211(3) 1.1256(2) 1.1249(3)
C30 C 0.0701(3) 1.1740(2) 1.0734(3)
C31 C 0.0173(4) 1.2064(2) 1.0060(4)
H17 H -0.0474 1.2016 0.9989
C32 C 0.0605(4) 1.2452(3) 0.9502(4)
H18 H 0.0252 1.2670 0.9059
C33 C 0.1566(4) 1.2514(3) 0.9607(4)
H19 H 0.1863 1.2765 0.9221
C34 C 0.2087(4) 1.2208(3) 1.0276(4)
H20 H 0.2734 1.2254 1.0338
C35 C 0.1664(3) 1.1831(2) 1.0860(3)
C36 C 0.2217(3) 1.1602(2) 1.1668(3)
C37 C 0.2092(4) 1.1924(3) 1.2438(4)
H21 H 0.1638 1.2240 1.2437
C38 C 0.2631(5) 1.1782(4) 1.3200(4)
H22 H 0.2521 1.1990 1.3711
C39 C 0.3327(4) 1.1336(3) 1.3212(4)
H23 H 0.3706 1.1255 1.3723
C40 C 0.3465(4) 1.1009(3) 1.2468(3)
H24 H 0.3936 1.0704 1.2479
C41 C 0.2910(3) 1.1128(2) 1.1696(3)
C42 C 0.3082(3) 1.0735(2) 1.0923(3)
C43 C -0.0101(4) 1.1198(3) 0.7833(4)
H25 H 0.0212 1.1285 0.8377
C44 C -0.0612(4) 1.1689(3) 0.7399(4)
H26 H -0.0646 1.2091 0.7650
C45 C -0.1055(4) 1.1565(3) 0.6607(4)
H27 H -0.1400 1.1887 0.6309
C46 C -0.1007(4) 1.0973(3) 0.6232(4)
C47 C -0.1465(4) 1.0811(4) 0.5391(4)
H28 H -0.1798 1.1124 0.5067
C48 C -0.1428(4) 1.0233(4) 0.5069(4)
H29 H -0.1736 1.0150 0.4523
C49 C -0.0925(4) 0.9724(3) 0.5532(3)
C50 C -0.0894(4) 0.9105(4) 0.5221(4)
H30 H -0.1210 0.8998 0.4686
C51 C -0.0400(4) 0.8656(3) 0.5702(4)
H31 H -0.0382 0.8237 0.5504
C52 C 0.0083(4) 0.8827(3) 0.6500(4)
H32 H 0.0428 0.8513 0.6814
C53 C -0.0434(3) 0.9865(3) 0.6356(3)
C54 C -0.0481(3) 1.0492(3) 0.6705(3)
O3B O 0.53067(19) 1.06036(14) 0.98671(19)
O4B O 0.4189(2) 1.13081(14) 0.9571(2)
O9B O 0.0555(2) 0.85883(15) 0.8465(2)
O10B O -0.05211(19) 0.93038(15) 0.8665(2)
Eu1B Eu 0.631706(16) 0.983599(11) 1.055921(16)
Eu2B Eu -0.100734(16) 1.030330(11) 1.170249(15)
loop_
_geom_bond_atom_site_label_1
_geom_bond_atom_site_label_2
_geom_bond_site_symmetry_1
_geom_bond_site_symmetry_2
Eu1 O2 1_555 1_555
Eu2 N1 1_555 1_555
N1 C43 1_555 1_555
N2 Eu2 1_555 1_555
O1 Eu2 1_555 1_555
O2 Eu2 1_555 1_555
O3 Eu1 1_555 1_555
O4 C14 1_555 1_555
O5 Eu1 1_555 1_555
O6 Eu1 1_555 1_555
O7 Eu1 1_555 1_555
O8 Eu2 1_555 1_555
O9 C29 1_555 1_555
O10 C29 1_555 1_555
O11 Eu1 1_555 1_555
O12 Eu1 1_555 1_555
O13 Eu2 1_555 1_555
O14 Eu2 1_555 1_555
C1 O1 1_555 1_555
C2 C1 1_555 1_555
C3 C2 1_555 1_555
H1 C3 1_555 1_555
C4 C3 1_555 1_555
H2 C4 1_555 1_555
C5 C4 1_555 1_555
H3 C5 1_555 1_555
C6 C5 1_555 1_555
H4 C6 1_555 1_555
C7 C2 1_555 1_555
C8 C7 1_555 1_555
C9 C8 1_555 1_555
H5 C9 1_555 1_555
C10 C9 1_555 1_555
H6 C10 1_555 1_555
C11 C10 1_555 1_555
H7 C11 1_555 1_555
C12 C11 1_555 1_555
H8 C12 1_555 1_555
C13 C8 1_555 1_555
C14 O3 1_555 1_555
C15 O5 1_555 1_555
C16 C15 1_555 1_555
C17 C16 1_555 1_555
H9 C17 1_555 1_555
C18 C17 1_555 1_555
H10 C18 1_555 1_555
C19 C18 1_555 1_555
H11 C19 1_555 1_555
C20 C19 1_555 1_555
H12 C20 1_555 1_555
C21 C16 1_555 1_555
C22 C21 1_555 1_555
C23 C22 1_555 1_555
H13 C23 1_555 1_555
C24 C23 1_555 1_555
H14 C24 1_555 1_555
C25 C24 1_555 1_555
H15 C25 1_555 1_555
C26 C25 1_555 1_555
H16 C26 1_555 1_555
C27 C22 1_555 1_555
C28 O7 1_555 1_555
C29 C30 1_555 1_555
C30 C31 1_555 1_555
C31 H17 1_555 1_555
C32 C31 1_555 1_555
H18 C32 1_555 1_555
C33 C32 1_555 1_555
H19 C33 1_555 1_555
C34 C33 1_555 1_555
H20 C34 1_555 1_555
C35 C30 1_555 1_555
C36 C35 1_555 1_555
C37 C36 1_555 1_555
H21 C37 1_555 1_555
C38 C37 1_555 1_555
H22 C38 1_555 1_555
C39 C38 1_555 1_555
H23 C39 1_555 1_555
C40 C39 1_555 1_555
H24 C40 1_555 1_555
C41 C36 1_555 1_555
C42 O11 1_555 1_555
C43 H25 1_555 1_555
C44 C43 1_555 1_555
H26 C44 1_555 1_555
C45 C44 1_555 1_555
H27 C45 1_555 1_555
C46 C45 1_555 1_555
C47 C46 1_555 1_555
H28 C47 1_555 1_555
C48 C47 1_555 1_555
H29 C48 1_555 1_555
C49 C48 1_555 1_555
C50 C49 1_555 1_555
H30 C50 1_555 1_555
C51 C50 1_555 1_555
H31 C51 1_555 1_555
C52 N2 1_555 1_555
H32 C52 1_555 1_555
C53 N2 1_555 1_555
C54 N1 1_555 1_555
O3B Eu1 1_555 1_555
O4B Eu1 1_555 1_555
O9B Eu2 1_555 1_555
O10B Eu2 1_555 1_555
Eu1B O3 1_555 1_555
Eu2B O9 1_555 1_555
Eu2 O7 1_555 1_555
O2 C1 1_555 1_555
O4 Eu1B 1_555 1_555
O6 C15 1_555 1_555
O8 C28 1_555 1_555
O10 Eu2B 1_555 1_555
O12 C42 1_555 1_555
C6 C7 1_555 1_555
C12 C13 1_555 1_555
C13 C14 1_555 1_555
C20 C21 1_555 1_555
C26 C27 1_555 1_555
C27 C28 1_555 1_555
C34 C35 1_555 1_555
C40 C41 1_555 1_555
C41 C42 1_555 1_555
C46 C54 1_555 1_555
C49 C53 1_555 1_555
C51 C52 1_555 1_555
C53 C54 1_555 1_555
O3B Eu1B 1_555 1_555

#END
