
#######################################################################
#
#                 Cambridge Crystallographic Data Centre
#                                CCDC 
#
#######################################################################
#
# If this CIF has been generated from an entry in the Cambridge 
# Structural Database, then it will include bibliographic, chemical, 
# crystal, experimental, refinement or atomic coordinate data resulting 
# from the CCDC's data processing and validation procedures.
#
#######################################################################

data_EMADUS
_symmetry_cell_setting           monoclinic
_symmetry_space_group_name_H-M   'P 21/c'
_symmetry_Int_Tables_number      14
_space_group_name_Hall           '-P 2ybc'
loop_
_symmetry_equiv_pos_site_id
_symmetry_equiv_pos_as_xyz
1 x,y,z
2 -x,1/2+y,1/2-z
3 -x,-y,-z
4 x,1/2-y,1/2+z
_cell_length_a                   17.3463(8)
_cell_length_b                   11.8598(5)
_cell_length_c                   19.2250(9)
_cell_angle_alpha                90
_cell_angle_beta                 99.584(3)
_cell_angle_gamma                90
_cell_volume                     3899.83
loop_
_atom_site_label
_atom_site_type_symbol
_atom_site_fract_x
_atom_site_fract_y
_atom_site_fract_z
Ag1 Ag 0.276941(13) 0.773504(17) 0.015902(12)
N1 N 0.20005(13) 0.95002(18) -0.10467(12)
N2 N 0.26817(13) 0.92142(18) -0.06266(13)
C1 C 0.32373(17) 0.9825(2) -0.08655(16)
C2 C 0.28996(17) 1.0504(2) -0.14276(16)
H1 H 0.3164 1.1013 -0.1689
C3 C 0.21099(17) 1.0293(2) -0.15291(15)
C4 C 0.40743(17) 0.9719(3) -0.05360(17)
H2 H 0.4129 0.9123 -0.0178
H3 H 0.4256 1.0436 -0.0314
H4 H 0.4388 0.9529 -0.0899
C5 C 0.14441(18) 1.0763(3) -0.20362(16)
H5 H 0.1162 1.0148 -0.2308
H6 H 0.1644 1.1288 -0.2358
H7 H 0.1088 1.1164 -0.1776
C6 C 0.12623(16) 0.9089(2) -0.08886(15)
H8 H 0.1340 0.8325 -0.0680
H9 H 0.0883 0.9027 -0.1333
C7 C 0.09264(16) 0.9856(2) -0.03801(15)
C8 C 0.13449(17) 1.0754(2) -0.00666(15)
H10 H 0.1857 1.0891 -0.0160
C9 C 0.10252(17) 1.1478(2) 0.03933(16)
H11 H 0.1324 1.2096 0.0606
C10 C 0.01610(16) 0.9636(2) -0.02333(14)
C11 C 0.02895(17) 1.1296(2) 0.05349(15)
H12 H 0.0077 1.1798 0.0838
N3 N 0.23980(13) 0.51061(18) -0.03859(13)
N4 N 0.27799(13) 0.60982(18) -0.04566(13)
C12 C 0.31785(16) 0.5924(2) -0.09850(15)
C13 C 0.30457(17) 0.4836(2) -0.12541(17)
H13 H 0.3259 0.4507 -0.1631
C14 C 0.25444(17) 0.4335(2) -0.08647(17)
C15 C 0.36915(19) 0.6817(3) -0.12011(17)
H14 H 0.3430 0.7549 -0.1201
H15 H 0.3798 0.6654 -0.1676
H16 H 0.4185 0.6837 -0.0869
C16 C 0.2197(2) 0.3183(3) -0.0894(2)
H17 H 0.2385 0.2786 -0.0451
H18 H 0.2351 0.2763 -0.1287
H19 H 0.1625 0.3242 -0.0961
C17 C 0.18537(16) 0.5000(2) 0.01080(16)
H20 H 0.1998 0.5550 0.0495
H21 H 0.1902 0.4235 0.0317
C18 C 0.10084(16) 0.5198(2) -0.02306(16)
C19 C 0.08233(17) 0.5653(2) -0.08901(16)
H22 H 0.1230 0.5857 -0.1141
C20 C 0.03982(16) 0.4910(2) 0.01607(15)
C21 C 0.00406(17) 0.5823(2) -0.12024(16)
H23 H -0.0076 0.6135 -0.1663
C22 C 0.05563(17) 0.4455(2) 0.08507(15)
H24 H 0.1083 0.4342 0.1072
N5 N 0.41455(13) 0.72314(18) 0.14887(12)
N6 N 0.36981(14) 0.80595(18) 0.11217(13)
C23 C 0.38639(17) 0.8997(2) 0.15051(16)
C24 C 0.44158(18) 0.8766(2) 0.21040(16)
H25 H 0.4632 0.9288 0.2458
C25 C 0.45854(17) 0.7633(2) 0.20811(15)
C26 C 0.3477(2) 1.0085(2) 0.12727(17)
H26 H 0.3845 1.0568 0.1075
H27 H 0.3314 1.0463 0.1678
H28 H 0.3018 0.9940 0.0912
C27 C 0.51146(19) 0.6899(3) 0.25782(18)
H29 H 0.4813 0.6279 0.2737
H30 H 0.5355 0.7344 0.2987
H31 H 0.5524 0.6590 0.2338
C28 C 0.41632(17) 0.6123(2) 0.11727(16)
H32 H 0.3630 0.5927 0.0932
H33 H 0.4320 0.5561 0.1550
C29 C 0.47219(16) 0.6053(2) 0.06454(15)
C30 C 0.51874(17) 0.6947(2) 0.05309(16)
H34 H 0.5174 0.7619 0.0797
C31 C 0.56852(17) 0.6877(2) 0.00227(17)
H35 H 0.6001 0.7506 -0.0052
C32 C 0.57187(16) 0.5918(2) -0.03629(16)
H36 H 0.6055 0.5886 -0.0705
C33 C 0.47460(16) 0.5033(2) 0.02561(15)
N7 N 0.15990(16) 0.7707(2) 0.07204(14)
C34 C 0.10274(18) 0.7628(2) 0.09301(16)
C35 C 0.02936(19) 0.7531(3) 0.12025(18)
H37 H -0.0043 0.8175 0.1040
H38 H 0.0402 0.7523 0.1719
H39 H 0.0029 0.6830 0.1031
Ag1B Ag -0.276941(13) 1.226496(17) -0.015902(12)
Ag1B_2 Ag -0.276941(13) 0.226496(17) -0.015902(12)
Ag1B_3 Ag 0.723059(13) 0.226496(17) -0.015902(12)
N1B N -0.20005(13) 1.04998(18) 0.10467(12)
N2B N -0.26817(13) 1.07858(18) 0.06266(13)
C1B C -0.32373(17) 1.0175(2) 0.08655(16)
C2B C -0.28996(17) 0.9496(2) 0.14276(16)
H1B H -0.3164 0.8987 0.1689
C3B C -0.21099(17) 0.9707(2) 0.15291(15)
C4B C -0.40743(17) 1.0281(3) 0.05360(17)
H2B H -0.4129 1.0877 0.0178
H3B H -0.4256 0.9564 0.0314
H4B H -0.4388 1.0471 0.0899
C5B C -0.14441(18) 0.9237(3) 0.20362(16)
H5B H -0.1162 0.9852 0.2308
H6B H -0.1644 0.8712 0.2358
H7B H -0.1088 0.8836 0.1776
C6B C -0.12623(16) 1.0911(2) 0.08886(15)
H8B H -0.1340 1.1675 0.0680
H9B H -0.0883 1.0973 0.1333
C7B C -0.09264(16) 1.0144(2) 0.03801(15)
C8B C -0.13449(17) 0.9246(2) 0.00666(15)
H10B H -0.1857 0.9109 0.0160
C9B C -0.10252(17) 0.8522(2) -0.03933(16)
H11B H -0.1324 0.7904 -0.0606
C10B C -0.01610(16) 1.0364(2) 0.02333(14)
C11B C -0.02895(17) 0.8704(2) -0.05349(15)
H12B H -0.0077 0.8202 -0.0838
N3B N -0.23980(13) 0.48939(18) 0.03859(13)
N4B N -0.27799(13) 0.39018(18) 0.04566(13)
N4B_2 N -0.27799(13) 1.39018(18) 0.04566(13)
C12B C -0.31785(16) 0.4076(2) 0.09850(15)
C13B C -0.30457(17) 0.5164(2) 0.12541(17)
H13B H -0.3259 0.5493 0.1631
C14B C -0.25444(17) 0.5665(2) 0.08647(17)
C15B C -0.36915(19) 0.3183(3) 0.12011(17)
H14B H -0.3430 0.2451 0.1201
H15B H -0.3798 0.3346 0.1676
H16B H -0.4185 0.3163 0.0869
C16B C -0.2197(2) 0.6817(3) 0.0894(2)
H17B H -0.2385 0.7214 0.0451
H18B H -0.2351 0.7237 0.1287
H19B H -0.1625 0.6758 0.0961
C17B C -0.18537(16) 0.5000(2) -0.01080(16)
H20B H -0.1998 0.4450 -0.0495
H21B H -0.1902 0.5765 -0.0317
C18B C -0.10084(16) 0.4802(2) 0.02306(16)
C19B C -0.08233(17) 0.4347(2) 0.08901(16)
H22B H -0.1230 0.4143 0.1141
C20B C -0.03982(16) 0.5090(2) -0.01607(15)
C21B C -0.00406(17) 0.4177(2) 0.12024(16)
H23B H 0.0076 0.3865 0.1663
C22B C -0.05563(17) 0.5545(2) -0.08507(15)
H24B H -0.1083 0.5658 -0.1072
N5B N 0.58545(13) 0.27686(18) -0.14887(12)
N6B N 0.63019(14) 0.19405(18) -0.11217(13)
N6B_2 N -0.36981(14) 1.19405(18) -0.11217(13)
C23B C 0.61361(17) 0.1003(2) -0.15051(16)
C24B C 0.55842(18) 0.1234(2) -0.21040(16)
H25B H 0.5368 0.0712 -0.2458
C25B C 0.54146(17) 0.2367(2) -0.20811(15)
C26B C 0.6523(2) -0.0085(2) -0.12727(17)
H26B H 0.6155 -0.0568 -0.1075
H27B H 0.6686 -0.0463 -0.1678
H28B H 0.6982 0.0060 -0.0912
C27B C 0.48854(19) 0.3101(3) -0.25782(18)
H29B H 0.5187 0.3721 -0.2737
H30B H 0.4645 0.2656 -0.2987
H31B H 0.4476 0.3410 -0.2338
C28B C 0.58368(17) 0.3877(2) -0.11727(16)
H32B H 0.6370 0.4073 -0.0932
H33B H 0.5680 0.4439 -0.1550
C29B C 0.52781(16) 0.3947(2) -0.06454(15)
C30B C 0.48126(17) 0.3053(2) -0.05309(16)
H34B H 0.4826 0.2381 -0.0797
C31B C 0.43148(17) 0.3123(2) -0.00227(17)
H35B H 0.3999 0.2494 0.0052
C32B C 0.42813(16) 0.4082(2) 0.03629(16)
H36B H 0.3945 0.4114 0.0705
C33B C 0.52540(16) 0.4967(2) -0.02561(15)
N7B N -0.15990(16) 1.2293(2) -0.07204(14)
C34B C -0.10274(18) 1.2372(2) -0.09301(16)
C35B C -0.02936(19) 1.2469(3) -0.12025(18)
H37B H 0.0043 1.1825 -0.1040
H38B H -0.0402 1.2477 -0.1719
H39B H -0.0029 1.3170 -0.1031
N8 N 0.1592(2) 0.7688(3) 0.28142(16)
C36 C 0.2035(2) 0.7197(3) 0.25667(18)
C37 C 0.2600(2) 0.6580(3) 0.2238(2)
H40 H 0.2353 0.5903 0.2008
H41 H 0.3043 0.6361 0.2598
H42 H 0.2786 0.7060 0.1885
N9 N 0.9683(2) 0.6133(3) 0.2579(2)
C38 C 0.9106(2) 0.5806(3) 0.2704(2)
C39 C 0.8381(2) 0.5385(3) 0.2871(2)
H43 H 0.8168 0.4813 0.2524
H44 H 0.8007 0.6007 0.2860
H45 H 0.8473 0.5048 0.3343
B1 B 0.7038(2) 0.8212(3) 0.3256(2)
F1 F 0.70593(11) 0.74496(15) 0.27155(10)
F2 F 0.6342(3) 0.8832(5) 0.3095(4)
F3 F 0.7076(5) 0.7738(5) 0.3923(2)
F4 F 0.7610(4) 0.9077(6) 0.3332(3)
F5? F 0.6417(5) 0.8948(8) 0.3020(5)
F6? F 0.6655(9) 0.9243(8) 0.3118(7)
F7? F 0.6932(7) 0.7614(7) 0.3854(4)
F8? F 0.6763(9) 0.7658(11) 0.3802(5)
F9? F 0.7766(5) 0.8777(12) 0.3349(4)
F10? F 0.7859(2) 0.8348(14) 0.3440(6)
loop_
_geom_bond_atom_site_label_1
_geom_bond_atom_site_label_2
_geom_bond_site_symmetry_1
_geom_bond_site_symmetry_2
Ag1 N2 1_555 1_555
N1 N2 1_555 1_555
N2 C1 1_555 1_555
C1 C2 1_555 1_555
C2 H1 1_555 1_555
C3 N1 1_555 1_555
C4 C1 1_555 1_555
H2 C4 1_555 1_555
H3 C4 1_555 1_555
H4 C4 1_555 1_555
C5 C3 1_555 1_555
H5 C5 1_555 1_555
H6 C5 1_555 1_555
H7 C5 1_555 1_555
C6 N1 1_555 1_555
H8 C6 1_555 1_555
H9 C6 1_555 1_555
C7 C6 1_555 1_555
C8 C7 1_555 1_555
H10 C8 1_555 1_555
C9 C8 1_555 1_555
H11 C9 1_555 1_555
C10 C7 1_555 1_555
C11 C9 1_555 1_555
H12 C11 1_555 1_555
N3 N4 1_555 1_555
N4 Ag1 1_555 1_555
C12 N4 1_555 1_555
C13 C12 1_555 1_555
H13 C13 1_555 1_555
C14 N3 1_555 1_555
C15 C12 1_555 1_555
H14 C15 1_555 1_555
H15 C15 1_555 1_555
H16 C15 1_555 1_555
C16 C14 1_555 1_555
H17 C16 1_555 1_555
H18 C16 1_555 1_555
H19 C16 1_555 1_555
C17 N3 1_555 1_555
H20 C17 1_555 1_555
H21 C17 1_555 1_555
C18 C17 1_555 1_555
C19 C18 1_555 1_555
H22 C19 1_555 1_555
C20 C18 1_555 1_555
C21 C19 1_555 1_555
H23 C21 1_555 1_555
C22 C20 1_555 1_555
H24 C22 1_555 1_555
N5 N6 1_555 1_555
N6 Ag1 1_555 1_555
C23 N6 1_555 1_555
C24 C23 1_555 1_555
H25 C24 1_555 1_555
C25 N5 1_555 1_555
C26 C23 1_555 1_555
H26 C26 1_555 1_555
H27 C26 1_555 1_555
H28 C26 1_555 1_555
C27 C25 1_555 1_555
H29 C27 1_555 1_555
H30 C27 1_555 1_555
H31 C27 1_555 1_555
C28 N5 1_555 1_555
H32 C28 1_555 1_555
H33 C28 1_555 1_555
C29 C28 1_555 1_555
C30 C29 1_555 1_555
H34 C30 1_555 1_555
C31 C30 1_555 1_555
H35 C31 1_555 1_555
C32 C31 1_555 1_555
H36 C32 1_555 1_555
C33 C29 1_555 1_555
N7 Ag1 1_555 1_555
C34 N7 1_555 1_555
C35 C34 1_555 1_555
H37 C35 1_555 1_555
H38 C35 1_555 1_555
H39 C35 1_555 1_555
N8 C36 1_555 1_555
C36 C37 1_555 1_555
C37 H40 1_555 1_555
H41 C37 1_555 1_555
H42 C37 1_555 1_555
N9 C38 1_555 1_555
C38 C39 1_555 1_555
C39 H43 1_555 1_555
H44 C39 1_555 1_555
H45 C39 1_555 1_555
B1 F1 1_555 1_555
F2 B1 1_555 1_555
F3 B1 1_555 1_555
F4 B1 1_555 1_555
Ag1B N2B 1_555 1_555
Ag1B_2 N4B 1_555 1_555
Ag1B_3 N6B 1_555 1_555
N1B N2B 1_555 1_555
N2B C1B 1_555 1_555
C1B C2B 1_555 1_555
C2B H1B 1_555 1_555
C3B N1B 1_555 1_555
C4B C1B 1_555 1_555
H2B C4B 1_555 1_555
H3B C4B 1_555 1_555
H4B C4B 1_555 1_555
C5B C3B 1_555 1_555
H5B C5B 1_555 1_555
H6B C5B 1_555 1_555
H7B C5B 1_555 1_555
C6B N1B 1_555 1_555
H8B C6B 1_555 1_555
H9B C6B 1_555 1_555
C7B C6B 1_555 1_555
C8B C7B 1_555 1_555
H10B C8B 1_555 1_555
C9B C8B 1_555 1_555
H11B C9B 1_555 1_555
C10B C10 1_555 1_555
C11B C10 1_555 1_555
H12B C11B 1_555 1_555
N3B N4B 1_555 1_555
N4B C12B 1_555 1_555
N4B_2 Ag1B 1_555 1_555
C12B C13B 1_555 1_555
C13B H13B 1_555 1_555
C14B N3B 1_555 1_555
C15B C12B 1_555 1_555
H14B C15B 1_555 1_555
H15B C15B 1_555 1_555
H16B C15B 1_555 1_555
C16B C14B 1_555 1_555
H17B C16B 1_555 1_555
H18B C16B 1_555 1_555
H19B C16B 1_555 1_555
C17B N3B 1_555 1_555
H20B C17B 1_555 1_555
H21B C17B 1_555 1_555
C18B C17B 1_555 1_555
C19B C18B 1_555 1_555
H22B C19B 1_555 1_555
C20B C20 1_555 1_555
C21B C22 1_555 1_555
H23B C21B 1_555 1_555
C22B C21 1_555 1_555
H24B C22B 1_555 1_555
N5B N6B 1_555 1_555
N6B C23B 1_555 1_555
N6B_2 Ag1B 1_555 1_555
C23B C24B 1_555 1_555
C24B H25B 1_555 1_555
C25B N5B 1_555 1_555
C26B C23B 1_555 1_555
H26B C26B 1_555 1_555
H27B C26B 1_555 1_555
H28B C26B 1_555 1_555
C27B C25B 1_555 1_555
H29B C27B 1_555 1_555
H30B C27B 1_555 1_555
H31B C27B 1_555 1_555
C28B N5B 1_555 1_555
H32B C28B 1_555 1_555
H33B C28B 1_555 1_555
C29B C28B 1_555 1_555
C30B C29B 1_555 1_555
H34B C30B 1_555 1_555
C31B C30B 1_555 1_555
H35B C31B 1_555 1_555
C32B C33 1_555 1_555
H36B C32B 1_555 1_555
C33B C32 1_555 1_555
N7B Ag1B 1_555 1_555
C34B N7B 1_555 1_555
C35B C34B 1_555 1_555
H37B C35B 1_555 1_555
H38B C35B 1_555 1_555
H39B C35B 1_555 1_555
C2 C3 1_555 1_555
C11 C10B 1_555 1_555
C13 C14 1_555 1_555
C24 C25 1_555 1_555
C33 C33B 1_555 1_555
C2B C3B 1_555 1_555
C7B C10B 1_555 1_555
C9B C11B 1_555 1_555
C13B C14B 1_555 1_555
C18B C20B 1_555 1_555
C19B C21B 1_555 1_555
C20B C22B 1_555 1_555
C24B C25B 1_555 1_555
C29B C33B 1_555 1_555
C31B C32B 1_555 1_555

#END
