
#######################################################################
#
#                 Cambridge Crystallographic Data Centre
#                                CCDC 
#
#######################################################################
#
# If this CIF has been generated from an entry in the Cambridge 
# Structural Database, then it will include bibliographic, chemical, 
# crystal, experimental, refinement or atomic coordinate data resulting 
# from the CCDC's data processing and validation procedures.
#
#######################################################################

data_EMADEC
_symmetry_cell_setting           monoclinic
_symmetry_space_group_name_H-M   'C 2/c'
_symmetry_Int_Tables_number      15
_space_group_name_Hall           '-C 2yn'
loop_
_symmetry_equiv_pos_site_id
_symmetry_equiv_pos_as_xyz
1 x,y,z
2 -x,y,1/2-z
3 1/2+x,1/2+y,z
4 1/2-x,1/2+y,1/2-z
5 -x,-y,-z
6 x,-y,1/2+z
7 1/2-x,1/2-y,-z
8 1/2+x,1/2-y,1/2+z
_cell_length_a                   23.0936(9)
_cell_length_b                   7.9450(3)
_cell_length_c                   15.8799(7)
_cell_angle_alpha                90
_cell_angle_beta                 132.487(3)
_cell_angle_gamma                90
_cell_volume                     2148.59
loop_
_atom_site_label
_atom_site_type_symbol
_atom_site_fract_x
_atom_site_fract_y
_atom_site_fract_z
Ag1 Ag 1.0000 0.34831(3) 0.2500
N1 N 0.95073(9) 0.1929(2) 0.03103(13)
N2 N 1.01205(9) 0.2704(2) 0.13072(12)
C1 C 1.06006(10) 0.3219(2) 0.11660(15)
C2 C 1.02879(10) 0.2782(2) 0.00693(15)
H1 H 1.0513 0.3000 -0.0245
C3 C 0.95859(10) 0.1972(2) -0.04583(15)
C4 C 1.13555(11) 0.4065(3) 0.21290(16)
H2 H 1.1312 0.4569 0.2648
H3 H 1.1469 0.4947 0.1826
H4 H 1.1781 0.3235 0.2545
C5 C 0.89793(12) 0.1260(3) -0.16335(16)
H5 H 0.8970 0.0031 -0.1588
H6 H 0.9108 0.1563 -0.2090
H7 H 0.8463 0.1717 -0.1994
C6 C 0.88939(11) 0.1164(2) 0.02184(16)
H8 H 0.9140 0.0532 0.0928
H9 H 0.8598 0.0350 -0.0422
C7 C 0.77777(9) 0.1908(2) 0.01124(14)
C8 C 0.83257(10) 0.2443(2) 0.00227(14)
C9 C 0.83199(10) 0.4082(2) -0.02519(15)
H10 H 0.8692 0.4439 -0.0295
C10 C 0.77719(10) 0.5248(2) -0.04718(15)
H11 H 0.7779 0.6377 -0.0662
C11 C 0.77694(10) 0.0226(2) 0.04142(15)
H12 H 0.8141 -0.0568 0.0576
N3 N 1.0000 0.7296(3) 0.2500
O1 O 1.06302(9) 0.6506(2) 0.32071(14)
O2 O 1.0000 0.8861(3) 0.2500
Ag1F Ag 0.5000 0.15169(3) -0.2500
N1F N 0.54927(9) 0.3071(2) -0.03103(13)
N2F N 0.48795(9) 0.2296(2) -0.13072(12)
N2A N 0.98795(9) 0.2704(2) 0.36928(12)
C1F C 0.43994(10) 0.1781(2) -0.11660(15)
C2F C 0.47121(10) 0.2218(2) -0.00693(15)
H1F H 0.4487 0.2000 0.0245
C3F C 0.54141(10) 0.3028(2) 0.04583(15)
C4F C 0.36445(11) 0.0935(3) -0.21290(16)
H2F H 0.3688 0.0431 -0.2648
H3F H 0.3531 0.0053 -0.1826
H4F H 0.3219 0.1765 -0.2545
C5F C 0.60207(12) 0.3740(3) 0.16335(16)
H5F H 0.6030 0.4969 0.1588
H6F H 0.5892 0.3437 0.2090
H7F H 0.6537 0.3283 0.1994
C6F C 0.61061(11) 0.3836(2) -0.02184(16)
H8F H 0.5860 0.4468 -0.0928
H9F H 0.6402 0.4650 0.0422
C7F C 0.72223(9) 0.3092(2) -0.01124(14)
C8F C 0.66743(10) 0.2557(2) -0.00227(14)
C9F C 0.66801(10) 0.0918(2) 0.02519(15)
H10F H 0.6308 0.0561 0.0295
C10F C 0.72281(10) -0.0248(2) 0.04718(15)
H11F H 0.7221 -0.1377 0.0662
C11F C 0.72306(10) 0.4774(2) -0.04142(15)
H12F H 0.6859 0.5568 -0.0576
O1A O 0.93698(9) 0.6506(2) 0.17929(14)
loop_
_geom_bond_atom_site_label_1
_geom_bond_atom_site_label_2
_geom_bond_site_symmetry_1
_geom_bond_site_symmetry_2
Ag1 N2 1_555 1_555
N1 N2 1_555 1_555
N2 C1 1_555 1_555
C1 C2 1_555 1_555
C2 H1 1_555 1_555
C3 N1 1_555 1_555
C4 C1 1_555 1_555
H2 C4 1_555 1_555
H3 C4 1_555 1_555
H4 C4 1_555 1_555
C5 C3 1_555 1_555
H5 C5 1_555 1_555
H6 C5 1_555 1_555
H7 C5 1_555 1_555
C6 N1 1_555 1_555
H8 C6 1_555 1_555
H9 C6 1_555 1_555
C7 C8 1_555 1_555
C8 C6 1_555 1_555
C9 C8 1_555 1_555
H10 C9 1_555 1_555
C10 C9 1_555 1_555
H11 C10 1_555 1_555
C11 C7 1_555 1_555
H12 C11 1_555 1_555
N3 O1 1_555 1_555
O1 Ag1 1_555 1_555
O2 N3 1_555 1_555
Ag1F N2F 1_555 1_555
N1F N2F 1_555 1_555
N2F C1F 1_555 1_555
N2A Ag1 1_555 1_555
C1F C2F 1_555 1_555
C2F H1F 1_555 1_555
C3F N1F 1_555 1_555
C4F C1F 1_555 1_555
H2F C4F 1_555 1_555
H3F C4F 1_555 1_555
H4F C4F 1_555 1_555
C5F C3F 1_555 1_555
H5F C5F 1_555 1_555
H6F C5F 1_555 1_555
H7F C5F 1_555 1_555
C6F N1F 1_555 1_555
H8F C6F 1_555 1_555
H9F C6F 1_555 1_555
C7F C7 1_555 1_555
C8F C6F 1_555 1_555
C9F C8F 1_555 1_555
H10F C9F 1_555 1_555
C10F C11 1_555 1_555
H11F C10F 1_555 1_555
C11F C10 1_555 1_555
H12F C11F 1_555 1_555
O1A Ag1 1_555 1_555
C2 C3 1_555 1_555
N3 O1A 1_555 1_555
C2F C3F 1_555 1_555
C7F C8F 1_555 1_555
C7F C11F 1_555 1_555
C9F C10F 1_555 1_555

#END
