
#######################################################################
#
#                 Cambridge Crystallographic Data Centre
#                                CCDC 
#
#######################################################################
#
# If this CIF has been generated from an entry in the Cambridge 
# Structural Database, then it will include bibliographic, chemical, 
# crystal, experimental, refinement or atomic coordinate data resulting 
# from the CCDC's data processing and validation procedures.
#
#######################################################################

data_EMADOL
_symmetry_cell_setting           triclinic
_symmetry_space_group_name_H-M   'P -1'
_symmetry_Int_Tables_number      2
_space_group_name_Hall           '-P 1'
loop_
_symmetry_equiv_pos_site_id
_symmetry_equiv_pos_as_xyz
1 x,y,z
2 -x,-y,-z
_cell_length_a                   12.390(3)
_cell_length_b                   15.419(3)
_cell_length_c                   15.951(3)
_cell_angle_alpha                117.53(3)
_cell_angle_beta                 95.18(3)
_cell_angle_gamma                107.28(3)
_cell_volume                     2485.34
loop_
_atom_site_label
_atom_site_type_symbol
_atom_site_fract_x
_atom_site_fract_y
_atom_site_fract_z
La1 La 0.60329(4) 0.50323(4) -0.10774(3)
La2 La 0.52361(4) 0.55556(4) 0.40302(3)
N1 N 0.7745(6) 0.4898(5) 0.0058(5)
N2 N 0.6774(5) 0.3381(5) -0.1922(5)
O1 O 0.4982(4) 0.6023(4) 0.0232(4)
O2 O 0.6933(5) 0.6856(4) 0.0658(4)
O3 O 0.6439(5) 0.7006(5) 0.3817(4)
O4 O 0.5715(4) 0.6594(4) 0.2289(4)
O5 O 0.4643(4) 0.5340(4) -0.2216(4)
O6 O 0.6136(5) 0.6823(5) -0.1086(4)
O7 O 0.5458(5) 0.6386(4) -0.3274(4)
O8 O 0.6050(6) 0.7136(5) -0.4159(4)
O9 O 0.7215(5) 0.5234(5) -0.5862(4)
O10 O 0.6236(4) 0.5058(4) -0.4821(4)
O11 O 0.6668(4) 0.4901(4) -0.2835(4)
O12 O 0.7962(4) 0.5743(4) -0.1379(4)
O13 O 0.4470(7) 0.7186(7) 0.4676(6)
H1 H 0.4076 0.7192 0.5087
H2 H 0.4065 0.7166 0.4203
C1 C 0.9532(7) 0.4817(8) 0.1206(7)
H3 H 1.0141 0.4803 0.1580
C2 C 0.9098(8) 0.5597(8) 0.1635(7)
H4 H 0.9384 0.6099 0.2302
C3 C 0.8205(7) 0.5611(8) 0.1032(6)
H5 H 0.7916 0.6142 0.1320
C4 C 0.8154(6) 0.4096(7) -0.0370(6)
C5 C 0.9048(7) 0.4022(7) 0.0181(7)
C6 C 0.9459(8) 0.3162(9) -0.0314(8)
H6 H 1.0047 0.3114 0.0047
C7 C 0.9002(8) 0.2431(8) -0.1289(8)
H7 H 0.9284 0.1896 -0.1582
C8 C 0.8090(7) 0.2478(7) -0.1870(7)
C9 C 0.7652(7) 0.3313(7) -0.1414(6)
C10 C 0.6308(8) 0.2626(8) -0.2878(7)
H8 H 0.5692 0.2655 -0.3230
C11 C 0.6693(9) 0.1790(8) -0.3385(7)
H9 H 0.6360 0.1308 -0.4053
C12 C 0.7549(8) 0.1710(8) -0.2880(7)
H10 H 0.7788 0.1149 -0.3193
C13 C 0.5926(7) 0.6867(6) 0.0737(5)
C14 C 0.5795(7) 0.7907(6) 0.1430(6)
C15 C 0.4831(7) 0.8066(7) 0.1094(6)
H11 H 0.4318 0.7567 0.0475
C16 C 0.4643(9) 0.9000(8) 0.1711(8)
H12 H 0.4008 0.9113 0.1487
C17 C 0.5394(9) 0.9741(8) 0.2638(7)
H13 H 0.5265 1.0348 0.3039
C18 C 0.6342(9) 0.9566(7) 0.2961(7)
H14 H 0.6833 1.0059 0.3590
C19 C 0.6590(7) 0.8671(6) 0.2377(6)
C20 C 0.7675(7) 0.8592(6) 0.2790(6)
C21 C 0.7646(7) 0.7927(7) 0.3184(6)
C22 C 0.8715(7) 0.8052(8) 0.3715(7)
H15 H 0.8700 0.7637 0.3994
C23 C 0.9797(8) 0.8787(9) 0.3833(7)
H16 H 1.0491 0.8848 0.4175
C24 C 0.9817(8) 0.9415(9) 0.3437(7)
H17 H 1.0532 0.9893 0.3502
C25 C 0.8783(8) 0.9346(7) 0.2940(7)
H18 H 0.8816 0.9799 0.2702
C26 C 0.6529(6) 0.7129(6) 0.3091(6)
C27 C 0.5130(7) 0.6370(7) -0.1672(6)
C28 C 0.4416(6) 0.6995(6) -0.1682(5)
C29 C 0.3207(7) 0.6568(7) -0.1747(6)
H19 H 0.2880 0.5893 -0.1840
C30 C 0.2493(7) 0.7146(8) -0.1674(6)
H20 H 0.1705 0.6860 -0.1707
C31 C 0.2967(8) 0.8127(8) -0.1554(6)
H21 H 0.2497 0.8512 -0.1499
C32 C 0.4151(7) 0.8566(7) -0.1510(6)
H22 H 0.4455 0.9239 -0.1426
C33 C 0.4891(7) 0.8003(6) -0.1592(5)
C34 C 0.6146(7) 0.8550(6) -0.1576(6)
C35 C 0.6618(7) 0.8226(6) -0.2402(6)
C36 C 0.7728(8) 0.8882(7) -0.2339(7)
H23 H 0.8024 0.8679 -0.2885
C37 C 0.8394(8) 0.9837(8) -0.1466(8)
H24 H 0.9142 1.0244 -0.1428
C38 C 0.7943(8) 1.0180(8) -0.0656(7)
H25 H 0.8373 1.0824 -0.0083
C39 C 0.6830(8) 0.9539(7) -0.0717(7)
H26 H 0.6529 0.9771 -0.0176
C40 C 0.5986(7) 0.7175(7) -0.3356(6)
C41 C 0.7025(6) 0.4911(7) -0.5278(6)
C42 C 0.7648(6) 0.4287(7) -0.5111(6)
C43 C 0.7389(7) 0.3236(7) -0.5851(6)
H27 H 0.6918 0.2976 -0.6469
C44 C 0.7816(8) 0.2579(8) -0.5686(7)
H28 H 0.7620 0.1882 -0.6182
C45 C 0.8543(9) 0.2978(9) -0.4766(8)
H29 H 0.8837 0.2547 -0.4641
C46 C 0.8833(7) 0.4046(8) -0.4020(7)
H30 H 0.9320 0.4311 -0.3407
C47 C 0.8399(7) 0.4709(7) -0.4192(6)
C48 C 0.8814(6) 0.5870(7) -0.3425(6)
C49 C 0.8552(6) 0.6268(6) -0.2512(5)
C50 C 0.9081(7) 0.7365(7) -0.1798(6)
H31 H 0.8930 0.7628 -0.1186
C51 C 0.9838(7) 0.8047(7) -0.2036(7)
H32 H 1.0193 0.8767 -0.1574
C52 C 1.0061(7) 0.7670(8) -0.2936(7)
H33 H 1.0544 0.8133 -0.3090
C53 C 0.9559(7) 0.6577(8) -0.3626(7)
H34 H 0.9730 0.6323 -0.4230
C54 C 0.7676(6) 0.5579(6) -0.2238(5)
O1A O 0.5018(4) 0.3977(4) -0.0232(4)
O4A O 0.4285(4) 0.3406(4) -0.2289(4)
O5A O 0.5357(4) 0.4660(4) 0.2216(4)
O7A O 0.4542(5) 0.3614(4) 0.3274(4)
O8_2 O 0.6050(6) 0.7136(5) 0.5841(4)
O9_2 O 0.7215(5) 0.5234(5) 0.4138(4)
O10_2 O 0.6236(4) 0.5058(4) 0.5179(4)
O10A O 0.3764(4) 0.4942(4) 0.4821(4)
O11A O 0.3332(4) 0.5099(4) 0.2835(4)
La1A La 0.39671(4) 0.49677(4) 0.10774(3)
La2A La 0.47639(4) 0.44444(4) -0.40302(3)
La2_2 La 0.52361(4) 0.55556(4) -0.59698(3)
O14 O 0.8429(7) 0.8717(7) 0.0556(6)
H35 H 0.8718 0.9265 0.1090
H36 H 0.7859 0.8592 0.0149
O15 O 0.6818(11) 0.9056(8) 0.5639(8)
H37 H 0.7271 0.8784 0.5881
H38 H 0.6364 0.8519 0.5003
loop_
_geom_bond_atom_site_label_1
_geom_bond_atom_site_label_2
_geom_bond_site_symmetry_1
_geom_bond_site_symmetry_2
La1 N1 1_555 1_555
La2 O3 1_555 1_555
N1 C3 1_555 1_555
N2 La1 1_555 1_555
O1 La1 1_555 1_555
O2 La1 1_555 1_555
O3 C26 1_555 1_555
O4 C26 1_555 1_555
O5 La1 1_555 1_555
O6 La1 1_555 1_555
O7 C40 1_555 1_555
O8 C40 1_555 1_555
O9 C41 1_555 1_555
O10 C41 1_555 1_555
O11 La1 1_555 1_555
O12 La1 1_555 1_555
O13 La2 1_555 1_555
H1 O13 1_555 1_555
H2 O13 1_555 1_555
C1 H3 1_555 1_555
C2 C1 1_555 1_555
H4 C2 1_555 1_555
C3 C2 1_555 1_555
H5 C3 1_555 1_555
C4 N1 1_555 1_555
C5 C1 1_555 1_555
C6 C5 1_555 1_555
H6 C6 1_555 1_555
C7 C6 1_555 1_555
H7 C7 1_555 1_555
C8 C7 1_555 1_555
C9 N2 1_555 1_555
C10 N2 1_555 1_555
H8 C10 1_555 1_555
C11 C10 1_555 1_555
H9 C11 1_555 1_555
C12 C8 1_555 1_555
H10 C12 1_555 1_555
C13 O1 1_555 1_555
C14 C13 1_555 1_555
C15 C14 1_555 1_555
H11 C15 1_555 1_555
C16 C15 1_555 1_555
H12 C16 1_555 1_555
C17 C16 1_555 1_555
H13 C17 1_555 1_555
C18 C17 1_555 1_555
H14 C18 1_555 1_555
C19 C14 1_555 1_555
C20 C19 1_555 1_555
C21 C20 1_555 1_555
C22 C21 1_555 1_555
H15 C22 1_555 1_555
C23 C22 1_555 1_555
H16 C23 1_555 1_555
C24 C23 1_555 1_555
H17 C24 1_555 1_555
C25 C20 1_555 1_555
H18 C25 1_555 1_555
C26 C21 1_555 1_555
C27 O5 1_555 1_555
C28 C27 1_555 1_555
C29 C28 1_555 1_555
H19 C29 1_555 1_555
C30 C29 1_555 1_555
H20 C30 1_555 1_555
C31 C30 1_555 1_555
H21 C31 1_555 1_555
C32 C31 1_555 1_555
H22 C32 1_555 1_555
C33 C28 1_555 1_555
C34 C33 1_555 1_555
C35 C34 1_555 1_555
C36 C35 1_555 1_555
H23 C36 1_555 1_555
C37 C36 1_555 1_555
H24 C37 1_555 1_555
C38 C37 1_555 1_555
H25 C38 1_555 1_555
C39 C34 1_555 1_555
H26 C39 1_555 1_555
C40 C35 1_555 1_555
C41 C42 1_555 1_555
C42 C43 1_555 1_555
C43 H27 1_555 1_555
C44 C43 1_555 1_555
H28 C44 1_555 1_555
C45 C44 1_555 1_555
H29 C45 1_555 1_555
C46 C45 1_555 1_555
H30 C46 1_555 1_555
C47 C42 1_555 1_555
C48 C47 1_555 1_555
C49 C48 1_555 1_555
C50 C49 1_555 1_555
H31 C50 1_555 1_555
C51 C50 1_555 1_555
H32 C51 1_555 1_555
C52 C51 1_555 1_555
H33 C52 1_555 1_555
C53 C48 1_555 1_555
H34 C53 1_555 1_555
C54 O11 1_555 1_555
O14 H35 1_555 1_555
H36 O14 1_555 1_555
O15 H37 1_555 1_555
H38 O15 1_555 1_555
O1A La1 1_555 1_555
O4A La1 1_555 1_555
O5A La2 1_555 1_555
O7A La2 1_555 1_555
O8_2 La2 1_555 1_555
O9_2 La2 1_555 1_555
O10_2 La2 1_555 1_555
O10A La2 1_555 1_555
O11A La2 1_555 1_555
La1A O1 1_555 1_555
La2A O5 1_555 1_555
La2_2 O8 1_555 1_555
O2 C13 1_555 1_555
O4 La1A 1_555 1_555
O6 C27 1_555 1_555
O7 La2A 1_555 1_555
O9 La2_2 1_555 1_555
O10 La2_2 1_555 1_555
O10 La2A 1_555 1_555
O11 La2A 1_555 1_555
O12 C54 1_555 1_555
C4 C5 1_555 1_555
C4 C9 1_555 1_555
C8 C9 1_555 1_555
C11 C12 1_555 1_555
C18 C19 1_555 1_555
C24 C25 1_555 1_555
C32 C33 1_555 1_555
C38 C39 1_555 1_555
C46 C47 1_555 1_555
C49 C54 1_555 1_555
C52 C53 1_555 1_555
O1A La1A 1_555 1_555
O5A La1A 1_555 1_555
O11A La1A 1_555 1_555

#END
