
#######################################################################
#
#                 Cambridge Crystallographic Data Centre
#                                CCDC 
#
#######################################################################
#
# If this CIF has been generated from an entry in the Cambridge 
# Structural Database, then it will include bibliographic, chemical, 
# crystal, experimental, refinement or atomic coordinate data resulting 
# from the CCDC's data processing and validation procedures.
#
#######################################################################

data_EMADIG
_symmetry_cell_setting           triclinic
_symmetry_space_group_name_H-M   'P -1'
_symmetry_Int_Tables_number      2
_space_group_name_Hall           '-P 1'
loop_
_symmetry_equiv_pos_site_id
_symmetry_equiv_pos_as_xyz
1 x,y,z
2 -x,-y,-z
_cell_length_a                   8.8647(12)
_cell_length_b                   14.487(2)
_cell_length_c                   14.955(2)
_cell_angle_alpha                92.109(9)
_cell_angle_beta                 104.197(8)
_cell_angle_gamma                99.937(8)
_cell_volume                     1827.67
loop_
_atom_site_label
_atom_site_type_symbol
_atom_site_fract_x
_atom_site_fract_y
_atom_site_fract_z
S1 S 0.19389(11) 0.27184(7) 0.77293(7)
F1 F 0.1887(3) 0.1998(2) 0.60891(18)
F2 F 0.4206(3) 0.25090(19) 0.69487(18)
F3 F 0.2850(3) 0.12175(17) 0.7217(2)
O1 O 0.0408(3) 0.2130(2) 0.7644(2)
O2 O 0.1870(3) 0.35993(17) 0.73436(18)
O3 O 0.3078(3) 0.2754(2) 0.86054(18)
C36 C 0.2763(5) 0.2092(3) 0.6963(3)
N8 N 0.8294(9) 0.0404(5) 0.5063(5)
C37 C 0.9284(6) 0.0141(4) 0.5068(4)
N8A N 1.1706(9) -0.0404(5) 0.4937(5)
C37A C 1.0716(6) -0.0141(4) 0.4932(4)
Ag1 Ag 1.09840(3) 1.249723(19) 1.261503(19)
N1 N 1.2421(3) 1.05653(19) 1.29306(18)
N2 N 1.2537(3) 1.14769(19) 1.32319(19)
C1 C 1.3844(4) 1.1678(2) 1.3932(2)
C2 C 1.4545(4) 1.0891(3) 1.4075(2)
H1 H 1.5483 1.0848 1.4530
C3 C 1.3621(4) 1.0187(2) 1.3434(2)
C4 C 1.4330(4) 1.2636(3) 1.4433(3)
H2 H 1.3405 1.2940 1.4353
H3 H 1.4773 1.2583 1.5093
H4 H 1.5132 1.3015 1.4180
C5 C 1.3763(5) 0.9195(3) 1.3282(3)
H5 H 1.4090 0.9108 1.2709
H6 H 1.4556 0.9033 1.3804
H7 H 1.2737 0.8787 1.3232
C6 C 1.1078(4) 1.0107(2) 1.2187(2)
H8 H 1.0972 0.9418 1.2213
H9 H 1.0102 1.0284 1.2294
C7 C 1.1195(4) 1.0350(2) 1.1227(2)
C8 C 1.2394(4) 1.1015(2) 1.1086(2)
H10 H 1.3217 1.1312 1.1602
C9 C 0.9981(4) 0.9878(2) 1.0453(2)
C10 C 1.2427(4) 1.1268(2) 1.0192(2)
H11 H 1.3255 1.1743 1.0110
C11 C 0.8721(4) 0.9165(2) 1.0557(2)
H12 H 0.8684 0.8990 1.1158
N3 N 0.8439(3) 1.21272(18) 1.06186(18)
N4 N 0.8686(3) 1.1989(2) 1.15352(19)
C12 C 0.7411(4) 1.1364(2) 1.1595(2)
C13 C 0.6372(4) 1.1121(2) 1.0732(2)
H13 H 0.5387 1.0694 1.0591
C14 C 0.7039(4) 1.1614(2) 1.0127(2)
C15 C 0.7223(5) 1.1043(3) 1.2502(3)
H14 H 0.6574 1.1422 1.2744
H15 H 0.6704 1.0380 1.2420
H16 H 0.8267 1.1116 1.2940
C16 C 0.6453(5) 1.1651(3) 0.9114(3)
H17 H 0.7303 1.1591 0.8816
H18 H 0.5553 1.1135 0.8870
H19 H 0.6114 1.2253 0.8987
C17 C 0.9554(4) 1.2822(2) 1.0308(2)
H20 H 1.0628 1.2850 1.0716
H21 H 0.9574 1.2614 0.9674
C18 C 0.9166(4) 1.3795(2) 1.0306(2)
C19 C 1.0175(4) 1.4539(2) 0.9996(2)
C20 C 0.7906(4) 1.3991(2) 1.0594(2)
H22 H 0.7237 1.3501 1.0794
C21 C 0.7571(4) 1.4901(2) 1.0601(2)
H23 H 0.6685 1.5018 1.0807
C22 C 1.1493(4) 1.4377(2) 0.9685(2)
H24 H 1.1732 1.3763 0.9674
N5 N 1.1651(3) 1.47414(19) 1.25197(19)
N6 N 1.2244(3) 1.39515(19) 1.24229(19)
C23 C 1.3554(4) 1.4233(2) 1.2140(2)
C24 C 1.3802(4) 1.5203(2) 1.2070(2)
H25 H 1.4650 1.5573 1.1885
C25 C 1.2581(4) 1.5515(2) 1.2320(2)
C26 C 1.4507(4) 1.3546(3) 1.1919(3)
H26 H 1.4234 1.3393 1.1248
H27 H 1.5637 1.3822 1.2137
H28 H 1.4279 1.2972 1.2227
C27 C 1.2194(4) 1.6464(2) 1.2390(3)
H29 H 1.2312 1.6663 1.3040
H30 H 1.2915 1.6909 1.2137
H31 H 1.1100 1.6448 1.2037
C28 C 1.0340(4) 1.4719(2) 1.2947(2)
H32 H 0.9742 1.5214 1.2709
H33 H 0.9614 1.4104 1.2769
C29 C 1.0883(4) 1.4869(2) 1.3992(2)
C30 C 0.9751(4) 1.4940(2) 1.4508(2)
C31 C 1.2446(4) 1.4917(2) 1.4450(2)
H34 H 1.3203 1.4876 1.4105
C32 C 1.2936(4) 1.5026(2) 1.5415(2)
H35 H 1.4019 1.5051 1.5719
C33 C 0.8119(4) 1.4903(2) 1.4073(2)
H36 H 0.7763 1.4827 1.3417
N7 N 1.0003(4) 1.2617(2) 1.4010(2)
C34 C 0.9454(4) 1.2670(2) 1.4622(3)
C35 C 0.8740(4) 1.2747(3) 1.5383(3)
H37 H 0.8179 1.2126 1.5470
H38 H 0.9567 1.2989 1.5948
H39 H 0.7990 1.3178 1.5248
Ag1A Ag 0.90160(3) 0.750277(19) 0.738497(19)
Ag1A_2 Ag 0.90160(3) 1.750277(19) 0.738497(19)
Ag1A_3 Ag 0.90160(3) 1.750277(19) 1.738497(19)
N1A N 0.7579(3) 0.94347(19) 0.70694(18)
N2A N 0.7463(3) 0.85231(19) 0.67681(19)
C1A C 0.6156(4) 0.8322(2) 0.6068(2)
C2A C 0.5455(4) 0.9109(3) 0.5925(2)
H1A H 0.4517 0.9152 0.5470
C3A C 0.6379(4) 0.9813(2) 0.6566(2)
C4A C 0.5670(4) 0.7364(3) 0.5567(3)
H2A H 0.6595 0.7060 0.5647
H3A H 0.5227 0.7417 0.4907
H4A H 0.4868 0.6985 0.5820
C5A C 0.6237(5) 1.0805(3) 0.6718(3)
H5A H 0.5910 1.0892 0.7291
H6A H 0.5444 1.0967 0.6196
H7A H 0.7263 1.1213 0.6768
C6A C 0.8922(4) 0.9893(2) 0.7813(2)
H8A H 0.9028 1.0582 0.7787
H9A H 0.9898 0.9716 0.7706
C7A C 0.8805(4) 0.9650(2) 0.8773(2)
C8A C 0.7606(4) 0.8985(2) 0.8914(2)
H10A H 0.6783 0.8688 0.8398
C9A C 1.0019(4) 1.0122(2) 0.9547(2)
C10A C 0.7573(4) 0.8732(2) 0.9808(2)
H11A H 0.6745 0.8257 0.9890
C11A C 1.1279(4) 1.0835(2) 0.9443(2)
H12A H 1.1316 1.1010 0.8842
N3A N 1.1561(3) 1.78728(18) 0.93814(18)
N4A N 1.1314(3) 1.8011(2) 0.84648(19)
N4A_2 N 1.1314(3) 0.8011(2) 0.84648(19)
C12A C 1.2589(4) 1.8636(2) 0.8405(2)
C13A C 1.3628(4) 1.8879(2) 0.9268(2)
H13A H 1.4613 1.9306 0.9409
C14A C 1.2961(4) 1.8386(2) 0.9873(2)
C15A C 1.2777(5) 1.8957(3) 0.7498(3)
H14A H 1.3426 1.8578 0.7256
H15A H 1.3296 1.9620 0.7580
H16A H 1.1733 1.8884 0.7060
C16A C 1.3547(5) 1.8349(3) 1.0886(3)
H17A H 1.2697 1.8409 1.1184
H18A H 1.4447 1.8865 1.1130
H19A H 1.3886 1.7747 1.1013
C17A C 1.0446(4) 1.7178(2) 0.9692(2)
H20A H 0.9372 1.7150 0.9284
H21A H 1.0426 1.7386 1.0326
C18A C 1.0834(4) 1.6205(2) 0.9694(2)
C19A C 0.9825(4) 1.5461(2) 1.0004(2)
C20A C 1.2094(4) 1.6009(2) 0.9406(2)
H22A H 1.2763 1.6499 0.9206
C21A C 1.2429(4) 1.5099(2) 0.9399(2)
H23A H 1.3315 1.4982 0.9193
C22A C 0.8507(4) 1.5623(2) 1.0315(2)
H24A H 0.8268 1.6237 1.0326
N5A N 0.8349(3) 1.52586(19) 1.74803(19)
N6A N 0.7756(3) 1.60485(19) 1.75771(19)
N6A_2 N 0.7756(3) 0.60485(19) 0.75771(19)
C23A C 0.6446(4) 1.5767(2) 1.7860(2)
C24A C 0.6198(4) 1.4797(2) 1.7930(2)
H25A H 0.5350 1.4427 1.8115
C25A C 0.7419(4) 1.4485(2) 1.7680(2)
C26A C 0.5493(4) 1.6454(3) 1.8081(3)
H26A H 0.5766 1.6607 1.8752
H27A H 0.4363 1.6178 1.7863
H28A H 0.5721 1.7028 1.7773
C27A C 0.7806(4) 1.3536(2) 1.7610(3)
H29A H 0.7688 1.3337 1.6960
H30A H 0.7085 1.3091 1.7863
H31A H 0.8900 1.3552 1.7963
C28A C 0.9660(4) 1.5281(2) 1.7053(2)
H32A H 1.0258 1.4786 1.7291
H33A H 1.0386 1.5896 1.7231
C29A C 0.9117(4) 1.5131(2) 1.6008(2)
C30A C 1.0249(4) 1.5060(2) 1.5492(2)
C31A C 0.7554(4) 1.5083(2) 1.5550(2)
H34A H 0.6797 1.5124 1.5895
C32A C 0.7064(4) 1.4974(2) 1.4585(2)
H35A H 0.5981 1.4949 1.4281
C33A C 1.1881(4) 1.5097(2) 1.5927(2)
H36A H 1.2237 1.5173 1.6583
N7A N 0.9997(4) 0.7383(2) 0.5990(2)
C34A C 1.0546(4) 0.7330(2) 0.5378(3)
C35A C 1.1260(4) 0.7253(3) 0.4617(3)
H37A H 1.1821 0.7874 0.4530
H38A H 1.0433 0.7011 0.4052
H39A H 1.2010 0.6822 0.4752
loop_
_geom_bond_atom_site_label_1
_geom_bond_atom_site_label_2
_geom_bond_site_symmetry_1
_geom_bond_site_symmetry_2
Ag1 N2 1_555 1_555
N1 N2 1_555 1_555
N2 C1 1_555 1_555
C1 C2 1_555 1_555
C2 H1 1_555 1_555
C3 N1 1_555 1_555
C4 C1 1_555 1_555
H2 C4 1_555 1_555
H3 C4 1_555 1_555
H4 C4 1_555 1_555
C5 C3 1_555 1_555
H5 C5 1_555 1_555
H6 C5 1_555 1_555
H7 C5 1_555 1_555
C6 N1 1_555 1_555
H8 C6 1_555 1_555
H9 C6 1_555 1_555
C7 C6 1_555 1_555
C8 C7 1_555 1_555
H10 C8 1_555 1_555
C9 C7 1_555 1_555
C10 C8 1_555 1_555
H11 C10 1_555 1_555
C11 C9 1_555 1_555
H12 C11 1_555 1_555
N3 N4 1_555 1_555
N4 Ag1 1_555 1_555
C12 N4 1_555 1_555
C13 C12 1_555 1_555
H13 C13 1_555 1_555
C14 N3 1_555 1_555
C15 C12 1_555 1_555
H14 C15 1_555 1_555
H15 C15 1_555 1_555
H16 C15 1_555 1_555
C16 C14 1_555 1_555
H17 C16 1_555 1_555
H18 C16 1_555 1_555
H19 C16 1_555 1_555
C17 N3 1_555 1_555
H20 C17 1_555 1_555
H21 C17 1_555 1_555
C18 C17 1_555 1_555
C19 C18 1_555 1_555
C20 C18 1_555 1_555
H22 C20 1_555 1_555
C21 C20 1_555 1_555
H23 C21 1_555 1_555
C22 C19 1_555 1_555
H24 C22 1_555 1_555
N5 N6 1_555 1_555
N6 Ag1 1_555 1_555
C23 N6 1_555 1_555
C24 C23 1_555 1_555
H25 C24 1_555 1_555
C25 N5 1_555 1_555
C26 C23 1_555 1_555
H26 C26 1_555 1_555
H27 C26 1_555 1_555
H28 C26 1_555 1_555
C27 C25 1_555 1_555
H29 C27 1_555 1_555
H30 C27 1_555 1_555
H31 C27 1_555 1_555
C28 N5 1_555 1_555
H32 C28 1_555 1_555
H33 C28 1_555 1_555
C29 C28 1_555 1_555
C30 C29 1_555 1_555
C31 C29 1_555 1_555
H34 C31 1_555 1_555
C32 C31 1_555 1_555
H35 C32 1_555 1_555
C33 C30 1_555 1_555
H36 C33 1_555 1_555
N7 Ag1 1_555 1_555
C34 N7 1_555 1_555
C35 C34 1_555 1_555
H37 C35 1_555 1_555
H38 C35 1_555 1_555
H39 C35 1_555 1_555
S1 O1 1_555 1_555
F1 C36 1_555 1_555
F2 C36 1_555 1_555
F3 C36 1_555 1_555
O2 S1 1_555 1_555
O3 S1 1_555 1_555
C36 S1 1_555 1_555
N8 C37 1_555 1_555
C37 C37A 1_555 1_555
Ag1A N2A 1_555 1_555
Ag1A_2 N4A 1_555 1_555
Ag1A_3 N6A 1_555 1_555
N1A N2A 1_555 1_555
N2A C1A 1_555 1_555
C1A C2A 1_555 1_555
C2A H1A 1_555 1_555
C3A N1A 1_555 1_555
C4A C1A 1_555 1_555
H2A C4A 1_555 1_555
H3A C4A 1_555 1_555
H4A C4A 1_555 1_555
C5A C3A 1_555 1_555
H5A C5A 1_555 1_555
H6A C5A 1_555 1_555
H7A C5A 1_555 1_555
C6A N1A 1_555 1_555
H8A C6A 1_555 1_555
H9A C6A 1_555 1_555
C7A C6A 1_555 1_555
C8A C7A 1_555 1_555
H10A C8A 1_555 1_555
C9A C9 1_555 1_555
C10A C11 1_555 1_555
H11A C10A 1_555 1_555
C11A C10 1_555 1_555
H12A C11A 1_555 1_555
N3A N4A 1_555 1_555
N4A C12A 1_555 1_555
N4A_2 Ag1A 1_555 1_555
C12A C13A 1_555 1_555
C13A H13A 1_555 1_555
C14A N3A 1_555 1_555
C15A C12A 1_555 1_555
H14A C15A 1_555 1_555
H15A C15A 1_555 1_555
H16A C15A 1_555 1_555
C16A C14A 1_555 1_555
H17A C16A 1_555 1_555
H18A C16A 1_555 1_555
H19A C16A 1_555 1_555
C17A N3A 1_555 1_555
H20A C17A 1_555 1_555
H21A C17A 1_555 1_555
C18A C17A 1_555 1_555
C19A C19 1_555 1_555
C20A C18A 1_555 1_555
H22A C20A 1_555 1_555
C21A C22 1_555 1_555
H23A C21A 1_555 1_555
C22A C21 1_555 1_555
H24A C22A 1_555 1_555
N5A N6A 1_555 1_555
N6A C23A 1_555 1_555
N6A_2 Ag1A 1_555 1_555
C23A C24A 1_555 1_555
C24A H25A 1_555 1_555
C25A N5A 1_555 1_555
C26A C23A 1_555 1_555
H26A C26A 1_555 1_555
H27A C26A 1_555 1_555
H28A C26A 1_555 1_555
C27A C25A 1_555 1_555
H29A C27A 1_555 1_555
H30A C27A 1_555 1_555
H31A C27A 1_555 1_555
C28A N5A 1_555 1_555
H32A C28A 1_555 1_555
H33A C28A 1_555 1_555
C29A C28A 1_555 1_555
C30A C30 1_555 1_555
C31A C29A 1_555 1_555
H34A C31A 1_555 1_555
C32A C33 1_555 1_555
H35A C32A 1_555 1_555
C33A C32 1_555 1_555
H36A C33A 1_555 1_555
N7A Ag1A 1_555 1_555
C34A N7A 1_555 1_555
C35A C34A 1_555 1_555
H37A C35A 1_555 1_555
H38A C35A 1_555 1_555
H39A C35A 1_555 1_555
N8A C37A 1_555 1_555
C2 C3 1_555 1_555
C13 C14 1_555 1_555
C24 C25 1_555 1_555
C2A C3A 1_555 1_555
C7A C9A 1_555 1_555
C8A C10A 1_555 1_555
C9A C11A 1_555 1_555
C13A C14A 1_555 1_555
C18A C19A 1_555 1_555
C19A C22A 1_555 1_555
C20A C21A 1_555 1_555
C24A C25A 1_555 1_555
C29A C30A 1_555 1_555
C30A C33A 1_555 1_555
C31A C32A 1_555 1_555

#END
