
#######################################################################
#
#                 Cambridge Crystallographic Data Centre
#                                CCDC 
#
#######################################################################
#
# If this CIF has been generated from an entry in the Cambridge 
# Structural Database, then it will include bibliographic, chemical, 
# crystal, experimental, refinement or atomic coordinate data resulting 
# from the CCDC's data processing and validation procedures.
#
#######################################################################

data_EMADOM
_symmetry_cell_setting           monoclinic
_symmetry_space_group_name_H-M   'P 21/c'
_symmetry_Int_Tables_number      14
_space_group_name_Hall           '-P 2ybc'
loop_
_symmetry_equiv_pos_site_id
_symmetry_equiv_pos_as_xyz
1 x,y,z
2 -x,1/2+y,1/2-z
3 -x,-y,-z
4 x,1/2-y,1/2+z
_cell_length_a                   16.899(10)
_cell_length_b                   11.673(6)
_cell_length_c                   18.918(11)
_cell_angle_alpha                90
_cell_angle_beta                 98.356(12)
_cell_angle_gamma                90
_cell_volume                     3692.19
loop_
_atom_site_label
_atom_site_type_symbol
_atom_site_fract_x
_atom_site_fract_y
_atom_site_fract_z
Ag1 Ag 0.779169(11) 0.278380(17) 0.513271(10)
N1 N 0.70352(11) 0.45280(17) 0.39006(10)
N2 N 0.77173(11) 0.42614(17) 0.43346(10)
C1 C 0.82843(14) 0.4867(2) 0.40859(13)
C2 C 0.79648(14) 0.5525(2) 0.35073(13)
H1 H 0.8246 0.6031 0.3239
C3 C 0.71625(14) 0.5301(2) 0.33997(12)
C4 C 0.91309(14) 0.4782(2) 0.44324(14)
H2 H 0.9182 0.4159 0.4783
H3 H 0.9293 0.5505 0.4673
H4 H 0.9475 0.4624 0.4069
C5 C 0.65091(14) 0.5749(2) 0.28718(13)
H5 H 0.6141 0.6198 0.3117
H6 H 0.6219 0.5108 0.2619
H7 H 0.6732 0.6237 0.2528
C6 C 0.62788(13) 0.4121(2) 0.40656(12)
H8 H 0.6350 0.3341 0.4271
H9 H 0.5895 0.4070 0.3619
C7 C 0.59366(13) 0.4888(2) 0.45850(12)
C8 C 0.63437(14) 0.5807(2) 0.48839(13)
H10 H 0.6863 0.5964 0.4773
C9 C 0.51661(13) 0.4634(2) 0.47621(12)
C10 C 0.60144(14) 0.6531(2) 0.53528(13)
H11 H 0.6310 0.7174 0.5554
C11 C 0.47241(14) 0.3680(2) 0.44785(12)
H12 H 0.4945 0.3176 0.4165
N3 N 0.74172(11) 0.01760(17) 0.45228(11)
N4 N 0.78380(11) 0.11589(17) 0.44954(10)
C12 C 0.82596(14) 0.1010(2) 0.39607(13)
C13 C 0.81007(14) -0.0051(2) 0.36475(14)
H13 H 0.8323 -0.0360 0.3256
C14 C 0.75616(14) -0.0564(2) 0.40136(14)
C15 C 0.88211(15) 0.1901(2) 0.37811(14)
H14 H 0.8551 0.2646 0.3743
H15 H 0.8998 0.1713 0.3324
H16 H 0.9285 0.1934 0.4157
C16 C 0.71794(17) -0.1704(2) 0.39315(17)
H17 H 0.7312 -0.2138 0.4376
H18 H 0.7375 -0.2118 0.3541
H19 H 0.6598 -0.1612 0.3823
C17 C 0.68727(13) 0.0027(2) 0.50366(13)
H20 H 0.7021 0.0569 0.5437
H21 H 0.6933 -0.0759 0.5233
C18 C 0.60080(14) 0.0219(2) 0.47293(13)
C19 C 0.54074(13) -0.0085(2) 0.51448(13)
C20 C 0.55870(14) -0.0547(2) 0.58353(13)
H22 H 0.6130 -0.0656 0.6037
C21 C 0.49993(14) -0.0840(2) 0.62190(13)
H23 H 0.5134 -0.1157 0.6683
C22 C 0.58042(14) 0.0677(2) 0.40664(13)
H24 H 0.6212 0.0888 0.3794
N5 N 0.91925(11) 0.24048(17) 0.64609(10)
N6 N 0.87273(12) 0.32091(18) 0.60867(10)
C23 C 0.89000(14) 0.4182(2) 0.64342(13)
C24 C 0.94782(15) 0.3995(2) 0.70213(13)
H25 H 0.9706 0.4554 0.7356
C25 C 0.96569(14) 0.2864(2) 0.70270(12)
C26 C 0.84993(16) 0.5266(2) 0.61787(14)
H26 H 0.8881 0.5761 0.5980
H27 H 0.8305 0.5656 0.6579
H28 H 0.8047 0.5096 0.5808
C27 C 1.02141(16) 0.2176(2) 0.75272(15)
H29 H 0.9914 0.1595 0.7752
H30 H 1.0497 0.2677 0.7896
H31 H 1.0602 0.1799 0.7266
C28 C 0.91941(14) 0.1257(2) 0.61856(13)
H32 H 0.8646 0.1056 0.5959
H33 H 0.9348 0.0720 0.6587
C29 C 0.97626(14) 0.1109(2) 0.56438(13)
C30 C 1.02851(14) 0.1949(2) 0.55217(13)
H34 H 1.0301 0.2644 0.5784
C31 C 1.07993(14) 0.1797(2) 0.50132(13)
H35 H 1.1160 0.2392 0.4935
C32 C 1.07910(14) 0.0821(2) 0.46332(13)
H36 H 1.1144 0.0733 0.4290
C33 C 0.97390(14) 0.0069(2) 0.52568(13)
N7 N 0.66007(13) 0.27097(19) 0.56993(11)
C34 C 0.60202(15) 0.2617(2) 0.59197(13)
C35 C 0.52758(15) 0.2508(2) 0.62092(15)
H37 H 0.5391 0.2352 0.6723
H38 H 0.4962 0.1876 0.5970
H39 H 0.4971 0.3223 0.6130
Ag1B Ag 0.220831(11) 0.721620(17) 0.486729(10)
Ag1B_2 Ag 0.220831(11) -0.278380(17) 0.486729(10)
Ag1B_3 Ag 1.220831(11) -0.278380(17) 0.486729(10)
N1B N 0.29648(11) 0.54720(17) 0.60994(10)
N2B N 0.22827(11) 0.57386(17) 0.56654(10)
C1B C 0.17157(14) 0.5133(2) 0.59141(13)
C2B C 0.20352(14) 0.4475(2) 0.64927(13)
H1B H 0.1754 0.3969 0.6761
C3B C 0.28375(14) 0.4699(2) 0.66003(12)
C4B C 0.08691(14) 0.5218(2) 0.55676(14)
H2B H 0.0818 0.5841 0.5217
H3B H 0.0707 0.4495 0.5327
H4B H 0.0525 0.5376 0.5931
C5B C 0.34909(14) 0.4251(2) 0.71282(13)
H5B H 0.3859 0.3802 0.6883
H6B H 0.3781 0.4892 0.7381
H7B H 0.3268 0.3763 0.7472
C6B C 0.37212(13) 0.5879(2) 0.59344(12)
H8B H 0.3650 0.6659 0.5729
H9B H 0.4105 0.5930 0.6381
C7B C 0.40634(13) 0.5112(2) 0.54150(12)
C8B C 0.36563(14) 0.4193(2) 0.51161(13)
H10B H 0.3137 0.4036 0.5227
C9B C 0.48339(13) 0.5366(2) 0.52379(12)
C10B C 0.39856(14) 0.3469(2) 0.46472(13)
H11B H 0.3690 0.2826 0.4446
C11B C 0.52759(14) 0.6320(2) 0.55215(12)
H12B H 0.5055 0.6824 0.5835
N3B N 0.25828(11) -0.01760(17) 0.54772(11)
N4B N 0.21620(11) -0.11589(17) 0.55046(10)
N4B_2 N 0.21620(11) 0.88411(17) 0.55046(10)
C12B C 0.17404(14) -0.1010(2) 0.60393(13)
C13B C 0.18993(14) 0.0051(2) 0.63525(14)
H13B H 0.1677 0.0360 0.6744
C14B C 0.24384(14) 0.0564(2) 0.59864(14)
C15B C 0.11789(15) -0.1901(2) 0.62189(14)
H14B H 0.1449 -0.2646 0.6257
H15B H 0.1002 -0.1713 0.6676
H16B H 0.0715 -0.1934 0.5843
C16B C 0.28206(17) 0.1704(2) 0.60685(17)
H17B H 0.2688 0.2138 0.5624
H18B H 0.2625 0.2118 0.6459
H19B H 0.3402 0.1612 0.6177
C17B C 0.31273(13) -0.0027(2) 0.49634(13)
H20B H 0.2979 -0.0569 0.4563
H21B H 0.3067 0.0759 0.4767
C18B C 0.39920(14) -0.0219(2) 0.52707(13)
C19B C 0.45926(13) 0.0085(2) 0.48552(13)
C20B C 0.44130(14) 0.0547(2) 0.41647(13)
H22B H 0.3870 0.0656 0.3963
C21B C 0.50007(14) 0.0840(2) 0.37810(13)
H23B H 0.4866 0.1157 0.3317
C22B C 0.41958(14) -0.0677(2) 0.59336(13)
H24B H 0.3788 -0.0888 0.6206
N5B N 1.08075(11) -0.24048(17) 0.35391(10)
N6B N 1.12727(12) -0.32091(18) 0.39133(10)
N6B_2 N 0.12727(12) 0.67909(18) 0.39133(10)
C23B C 1.11000(14) -0.4182(2) 0.35658(13)
C24B C 1.05218(15) -0.3995(2) 0.29787(13)
H25B H 1.0294 -0.4554 0.2644
C25B C 1.03431(14) -0.2864(2) 0.29730(12)
C26B C 1.15007(16) -0.5266(2) 0.38213(14)
H26B H 1.1119 -0.5761 0.4020
H27B H 1.1695 -0.5656 0.3421
H28B H 1.1953 -0.5096 0.4192
C27B C 0.97859(16) -0.2176(2) 0.24728(15)
H29B H 1.0086 -0.1595 0.2248
H30B H 0.9503 -0.2677 0.2104
H31B H 0.9398 -0.1799 0.2734
C28B C 1.08059(14) -0.1257(2) 0.38144(13)
H32B H 1.1354 -0.1056 0.4041
H33B H 1.0652 -0.0720 0.3413
C29B C 1.02374(14) -0.1109(2) 0.43562(13)
C30B C 0.97149(14) -0.1949(2) 0.44783(13)
H34B H 0.9699 -0.2644 0.4216
C31B C 0.92007(14) -0.1797(2) 0.49868(13)
H35B H 0.8840 -0.2392 0.5065
C32B C 0.92090(14) -0.0821(2) 0.53668(13)
H36B H 0.8856 -0.0733 0.5710
C33B C 1.02610(14) -0.0069(2) 0.47432(13)
N7B N 0.33993(13) 0.72903(19) 0.43007(11)
C34B C 0.39798(15) 0.7383(2) 0.40803(13)
C35B C 0.47242(15) 0.7492(2) 0.37908(15)
H37B H 0.4609 0.7648 0.3277
H38B H 0.5038 0.8124 0.4030
H39B H 0.5029 0.6777 0.3870
N8 N 0.65327(17) 0.2298(2) 0.27891(13)
C36 C 0.70187(17) 0.2747(3) 0.25474(14)
C37 C 0.76314(17) 0.3314(3) 0.22163(16)
H40 H 0.7837 0.2786 0.1884
H41 H 0.8069 0.3550 0.2585
H42 H 0.7403 0.3991 0.1955
N9 N 0.46805(17) 0.4018(3) 0.25997(15)
C38 C 0.40978(18) 0.4296(3) 0.27659(15)
C39 C 0.33518(17) 0.4652(3) 0.29794(17)
H43 H 0.3025 0.3976 0.3041
H44 H 0.3065 0.5149 0.2611
H45 H 0.3458 0.5072 0.3432
O1 O 0.7981(3) 0.9233(3) 0.6657(2)
O2 O 0.7789(3) 0.7567(3) 0.7107(2)
O3 O 0.7689(2) 0.7776(3) 0.59747(19)
N10 N 0.7814(3) 0.8204(4) 0.6580(3)
N11? N 0.7947(6) 0.8199(7) 0.6755(5)
O4? O 0.8324(6) 0.9086(6) 0.6830(4)
O5? O 0.7966(5) 0.7558(6) 0.7245(4)
O6? O 0.7537(7) 0.7950(10) 0.6153(7)
loop_
_geom_bond_atom_site_label_1
_geom_bond_atom_site_label_2
_geom_bond_site_symmetry_1
_geom_bond_site_symmetry_2
Ag1 N2 1_555 1_555
N1 N2 1_555 1_555
N2 C1 1_555 1_555
C1 C2 1_555 1_555
C2 H1 1_555 1_555
C3 N1 1_555 1_555
C4 C1 1_555 1_555
H2 C4 1_555 1_555
H3 C4 1_555 1_555
H4 C4 1_555 1_555
C5 C3 1_555 1_555
H5 C5 1_555 1_555
H6 C5 1_555 1_555
H7 C5 1_555 1_555
C6 N1 1_555 1_555
H8 C6 1_555 1_555
H9 C6 1_555 1_555
C7 C6 1_555 1_555
C8 C7 1_555 1_555
H10 C8 1_555 1_555
C9 C7 1_555 1_555
C10 C8 1_555 1_555
H11 C10 1_555 1_555
C11 C9 1_555 1_555
H12 C11 1_555 1_555
N3 N4 1_555 1_555
N4 Ag1 1_555 1_555
C12 N4 1_555 1_555
C13 C12 1_555 1_555
H13 C13 1_555 1_555
C14 N3 1_555 1_555
C15 C12 1_555 1_555
H14 C15 1_555 1_555
H15 C15 1_555 1_555
H16 C15 1_555 1_555
C16 C14 1_555 1_555
H17 C16 1_555 1_555
H18 C16 1_555 1_555
H19 C16 1_555 1_555
C17 N3 1_555 1_555
H20 C17 1_555 1_555
H21 C17 1_555 1_555
C18 C17 1_555 1_555
C19 C18 1_555 1_555
C20 C19 1_555 1_555
H22 C20 1_555 1_555
C21 C20 1_555 1_555
H23 C21 1_555 1_555
C22 C18 1_555 1_555
H24 C22 1_555 1_555
N5 N6 1_555 1_555
N6 Ag1 1_555 1_555
C23 N6 1_555 1_555
C24 C23 1_555 1_555
H25 C24 1_555 1_555
C25 N5 1_555 1_555
C26 C23 1_555 1_555
H26 C26 1_555 1_555
H27 C26 1_555 1_555
H28 C26 1_555 1_555
C27 C25 1_555 1_555
H29 C27 1_555 1_555
H30 C27 1_555 1_555
H31 C27 1_555 1_555
C28 N5 1_555 1_555
H32 C28 1_555 1_555
H33 C28 1_555 1_555
C29 C28 1_555 1_555
C30 C29 1_555 1_555
H34 C30 1_555 1_555
C31 C30 1_555 1_555
H35 C31 1_555 1_555
C32 C31 1_555 1_555
H36 C32 1_555 1_555
C33 C29 1_555 1_555
N7 Ag1 1_555 1_555
C34 N7 1_555 1_555
C35 C34 1_555 1_555
H37 C35 1_555 1_555
H38 C35 1_555 1_555
H39 C35 1_555 1_555
N8 C36 1_555 1_555
C36 C37 1_555 1_555
C37 H40 1_555 1_555
H41 C37 1_555 1_555
H42 C37 1_555 1_555
N9 C38 1_555 1_555
C38 C39 1_555 1_555
C39 H43 1_555 1_555
H44 C39 1_555 1_555
H45 C39 1_555 1_555
O1 N10 1_555 1_555
O2 N10 1_555 1_555
O3 N10 1_555 1_555
Ag1B N2B 1_555 1_555
Ag1B_2 N4B 1_555 1_555
Ag1B_3 N6B 1_555 1_555
N1B N2B 1_555 1_555
N2B C1B 1_555 1_555
C1B C2B 1_555 1_555
C2B H1B 1_555 1_555
C3B N1B 1_555 1_555
C4B C1B 1_555 1_555
H2B C4B 1_555 1_555
H3B C4B 1_555 1_555
H4B C4B 1_555 1_555
C5B C3B 1_555 1_555
H5B C5B 1_555 1_555
H6B C5B 1_555 1_555
H7B C5B 1_555 1_555
C6B N1B 1_555 1_555
H8B C6B 1_555 1_555
H9B C6B 1_555 1_555
C7B C6B 1_555 1_555
C8B C7B 1_555 1_555
H10B C8B 1_555 1_555
C9B C9 1_555 1_555
C10B C11 1_555 1_555
H11B C10B 1_555 1_555
C11B C10 1_555 1_555
H12B C11B 1_555 1_555
N3B N4B 1_555 1_555
N4B C12B 1_555 1_555
N4B_2 Ag1B 1_555 1_555
C12B C13B 1_555 1_555
C13B H13B 1_555 1_555
C14B N3B 1_555 1_555
C15B C12B 1_555 1_555
H14B C15B 1_555 1_555
H15B C15B 1_555 1_555
H16B C15B 1_555 1_555
C16B C14B 1_555 1_555
H17B C16B 1_555 1_555
H18B C16B 1_555 1_555
H19B C16B 1_555 1_555
C17B N3B 1_555 1_555
H20B C17B 1_555 1_555
H21B C17B 1_555 1_555
C18B C17B 1_555 1_555
C19B C19 1_555 1_555
C20B C19B 1_555 1_555
H22B C20B 1_555 1_555
C21B C22 1_555 1_555
H23B C21B 1_555 1_555
C22B C21 1_555 1_555
H24B C22B 1_555 1_555
N5B N6B 1_555 1_555
N6B C23B 1_555 1_555
N6B_2 Ag1B 1_555 1_555
C23B C24B 1_555 1_555
C24B H25B 1_555 1_555
C25B N5B 1_555 1_555
C26B C23B 1_555 1_555
H26B C26B 1_555 1_555
H27B C26B 1_555 1_555
H28B C26B 1_555 1_555
C27B C25B 1_555 1_555
H29B C27B 1_555 1_555
H30B C27B 1_555 1_555
H31B C27B 1_555 1_555
C28B N5B 1_555 1_555
H32B C28B 1_555 1_555
H33B C28B 1_555 1_555
C29B C28B 1_555 1_555
C30B C29B 1_555 1_555
H34B C30B 1_555 1_555
C31B C30B 1_555 1_555
H35B C31B 1_555 1_555
C32B C33 1_555 1_555
H36B C32B 1_555 1_555
C33B C32 1_555 1_555
N7B Ag1B 1_555 1_555
C34B N7B 1_555 1_555
C35B C34B 1_555 1_555
H37B C35B 1_555 1_555
H38B C35B 1_555 1_555
H39B C35B 1_555 1_555
C2 C3 1_555 1_555
C13 C14 1_555 1_555
C24 C25 1_555 1_555
C33 C33B 1_555 1_555
C2B C3B 1_555 1_555
C7B C9B 1_555 1_555
C8B C10B 1_555 1_555
C9B C11B 1_555 1_555
C13B C14B 1_555 1_555
C18B C19B 1_555 1_555
C18B C22B 1_555 1_555
C20B C21B 1_555 1_555
C24B C25B 1_555 1_555
C29B C33B 1_555 1_555
C31B C32B 1_555 1_555

#END
