
#######################################################################
#
#                 Cambridge Crystallographic Data Centre
#                                CCDC 
#
#######################################################################
#
# If this CIF has been generated from an entry in the Cambridge 
# Structural Database, then it will include bibliographic, chemical, 
# crystal, experimental, refinement or atomic coordinate data resulting 
# from the CCDC's data processing and validation procedures.
#
#######################################################################

data_EMADAX
_symmetry_cell_setting           monoclinic
_symmetry_space_group_name_H-M   'P 21/c'
_symmetry_Int_Tables_number      14
_space_group_name_Hall           '-P 2ybc'
loop_
_symmetry_equiv_pos_site_id
_symmetry_equiv_pos_as_xyz
1 x,y,z
2 x,1/2-y,1/2+z
3 -x,-y,-z
4 -x,1/2+y,1/2-z
_cell_length_a                   7.6146(3)
_cell_length_b                   18.2606(8)
_cell_length_c                   9.3203(2)
_cell_angle_alpha                90
_cell_angle_beta                 100.26
_cell_angle_gamma                90
_cell_volume                     1275.24
loop_
_atom_site_label
_atom_site_type_symbol
_atom_site_fract_x
_atom_site_fract_y
_atom_site_fract_z
Cd1 Cd 0.0000 0.5000 0.0000
Cl1 Cl 0.2387(2) 0.46378(10) -0.15029(17)
S1 S 0.5502(3) 0.37667(11) 0.63299(19)
S2 S 0.7994(2) 0.36392(10) 0.5899(2)
N1 N 0.1963(7) 0.4586(3) 0.2179(5)
N2 N 0.8939(7) 0.1246(3) 0.4893(6)
C1 C 0.3653(9) 0.4416(4) 0.2170(7)
H1 H 0.4088 0.4482 0.1307
H2 H 0.6020 0.4025 0.3317
H3 H 0.1959 0.4208 0.5627
H4 H 0.0109 0.4633 0.3489
H5 H 1.0761 0.2855 0.5218
H6 H 1.1255 0.1648 0.4600
H7 H 0.6370 0.1096 0.5164
H8 H 0.5703 0.2302 0.5591
C2 C 0.4804(9) 0.4149(4) 0.3366(7)
C3 C 0.4197(9) 0.4070(3) 0.4659(7)
C4 C 0.2442(8) 0.4259(3) 0.4714(6)
C5 C 0.1367(8) 0.4509(4) 0.3446(7)
C6 C 0.8197(9) 0.2702(3) 0.5455(7)
C7 C 0.9826(10) 0.2498(4) 0.5147(12)
C8 C 1.0111(11) 0.1776(4) 0.4863(11)
C9 C 0.7352(10) 0.1460(4) 0.5148(8)
C10 C 0.6928(9) 0.2172(4) 0.5424(8)
Cl1B Cl -0.2387(2) 0.53622(10) 0.15029(17)
S1B S -0.5502(3) 0.62333(11) -0.63299(19)
S2B S -0.7994(2) 0.63608(10) -0.5899(2)
N1B N -0.1963(7) 0.5414(3) -0.2179(5)
N2B N -0.8939(7) 0.8754(3) -0.4893(6)
C1B C -0.3653(9) 0.5584(4) -0.2170(7)
H1B H -0.4088 0.5518 -0.1307
H2B H -0.6020 0.5975 -0.3317
H3B H -0.1959 0.5792 -0.5627
H4B H -0.0109 0.5367 -0.3489
H5B H -1.0761 0.7145 -0.5218
H6B H -1.1255 0.8352 -0.4600
H7B H -0.6370 0.8904 -0.5164
H8B H -0.5703 0.7698 -0.5591
C2B C -0.4804(9) 0.5851(4) -0.3366(7)
C3B C -0.4197(9) 0.5930(3) -0.4659(7)
C4B C -0.2442(8) 0.5741(3) -0.4714(6)
C5B C -0.1367(8) 0.5491(4) -0.3446(7)
C6B C -0.8197(9) 0.7298(3) -0.5455(7)
C7B C -0.9826(10) 0.7502(4) -0.5147(12)
C8B C -1.0111(11) 0.8224(4) -0.4863(11)
C9B C -0.7352(10) 0.8540(4) -0.5148(8)
C10B C -0.6928(9) 0.7828(4) -0.5424(8)
N2A N -0.1061(7) 0.3754(3) -0.0107(6)
N2C N 0.1061(7) 0.6246(3) 0.0107(6)
Cd1A Cd 1.0000 0.0000 0.5000
Cd1A_2 Cd -1.0000 1.0000 -0.5000
loop_
_geom_bond_atom_site_label_1
_geom_bond_atom_site_label_2
_geom_bond_site_symmetry_1
_geom_bond_site_symmetry_2
Cd1 Cl1 1_555 1_555
S1 S2 1_555 1_555
S2 C6 1_555 1_555
N1 Cd1 1_555 1_555
N2 C8 1_555 1_555
C1 N1 1_555 1_555
H1 C1 1_555 1_555
H2 C2 1_555 1_555
H3 C4 1_555 1_555
H4 C5 1_555 1_555
H5 C7 1_555 1_555
H6 C8 1_555 1_555
H7 C9 1_555 1_555
H8 C10 1_555 1_555
C2 C1 1_555 1_555
C3 S1 1_555 1_555
C4 C3 1_555 1_555
C5 N1 1_555 1_555
C6 C7 1_555 1_555
C7 C8 1_555 1_555
C9 N2 1_555 1_555
C10 C6 1_555 1_555
Cl1B Cd1 1_555 1_555
S1B S2B 1_555 1_555
S2B C6B 1_555 1_555
N1B Cd1 1_555 1_555
N2B C8B 1_555 1_555
C1B N1B 1_555 1_555
H1B C1B 1_555 1_555
H2B C2B 1_555 1_555
H3B C4B 1_555 1_555
H4B C5B 1_555 1_555
H5B C7B 1_555 1_555
H6B C8B 1_555 1_555
H7B C9B 1_555 1_555
H8B C10B 1_555 1_555
C2B C1B 1_555 1_555
C3B S1B 1_555 1_555
C4B C3B 1_555 1_555
C5B N1B 1_555 1_555
C6B C7B 1_555 1_555
C7B C8B 1_555 1_555
C9B N2B 1_555 1_555
C10B C6B 1_555 1_555
N2A Cd1 1_555 1_555
N2C Cd1 1_555 1_555
Cd1A N2 1_555 1_555
Cd1A_2 N2B 1_555 1_555
C2 C3 1_555 1_555
C4 C5 1_555 1_555
C9 C10 1_555 1_555
C2B C3B 1_555 1_555
C4B C5B 1_555 1_555
C9B C10B 1_555 1_555

#END
