
#######################################################################
#
#                 Cambridge Crystallographic Data Centre
#                                CCDC 
#
#######################################################################
#
# If this CIF has been generated from an entry in the Cambridge 
# Structural Database, then it will include bibliographic, chemical, 
# crystal, experimental, refinement or atomic coordinate data resulting 
# from the CCDC's data processing and validation procedures.
#
#######################################################################

data_EMAFAA
_symmetry_cell_setting           tetragonal
_symmetry_space_group_name_H-M   'P 41 21 2'
_symmetry_Int_Tables_number      92
_space_group_name_Hall           'P 4abw 2nw'
loop_
_symmetry_equiv_pos_site_id
_symmetry_equiv_pos_as_xyz
1 x,y,z
2 -x,-y,1/2+z
3 1/2-y,1/2+x,1/4+z
4 y,x,-z
5 1/2+y,1/2-x,3/4+z
6 1/2-x,1/2+y,1/4-z
7 -y,-x,1/2-z
8 1/2+x,1/2-y,3/4-z
_cell_length_a                   20.379(3)
_cell_length_b                   20.379(3)
_cell_length_c                   16.588(2)
_cell_angle_alpha                90
_cell_angle_beta                 90
_cell_angle_gamma                90
_cell_volume                     6889.06
loop_
_atom_site_label
_atom_site_type_symbol
_atom_site_fract_x
_atom_site_fract_y
_atom_site_fract_z
Ag1 Ag 0.985926(15) 0.232561(15) 0.093633(19)
N1 N 0.83519(16) 0.20203(16) 0.0409(2)
N2 N 0.89716(17) 0.17777(16) 0.0520(2)
C1 C 0.8946(2) 0.11502(19) 0.0267(3)
C2 C 0.8310(2) 0.1007(2) 0.0002(3)
H1 H 0.8161 0.0600 -0.0209
C3 C 0.7945(2) 0.15656(19) 0.0103(2)
C4 C 0.9540(2) 0.0732(2) 0.0285(3)
H2 H 0.9670 0.0622 -0.0267
H3 H 0.9446 0.0328 0.0584
H4 H 0.9898 0.0969 0.0552
C5 C 0.7243(2) 0.1701(2) -0.0060(3)
H5 H 0.7014 0.1781 0.0450
H6 H 0.7046 0.1322 -0.0331
H7 H 0.7205 0.2088 -0.0406
C6 C 0.8210(2) 0.26830(19) 0.0670(2)
H8 H 0.8428 0.2759 0.1195
H9 H 0.7731 0.2724 0.0756
C7 C 0.84276(18) 0.32152(18) 0.0085(2)
C8 C 0.84917(19) 0.3085(2) -0.0712(2)
H10 H 0.8417 0.2652 -0.0903
C9 C 0.8668(2) 0.35843(18) -0.1263(2)
H11 H 0.8697 0.3485 -0.1821
C10 C 0.87972(17) 0.42103(19) -0.1003(3)
C11 C 0.87602(17) 0.43589(19) -0.0168(2)
C12 C 0.85434(17) 0.38624(18) 0.0383(2)
C13 C 0.89136(19) 0.49913(18) 0.0150(3)
H12 H 0.9071 0.5323 -0.0202
C14 C 0.88388(17) 0.5128(2) 0.0950(3)
H13 H 0.8951 0.5551 0.1147
C15 C 0.85980(18) 0.46538(19) 0.1482(3)
H14 H 0.8527 0.4759 0.2033
C16 C 0.84656(19) 0.4032(2) 0.1201(2)
H15 H 0.8317 0.3708 0.1569
N3 N 1.03987(16) 0.20180(16) 0.27107(19)
N4 N 1.05569(16) 0.20812(16) 0.1920(2)
C17 C 1.1170(2) 0.1865(2) 0.1849(3)
C18 C 1.1406(2) 0.1658(2) 0.2590(3)
H16 H 1.1828 0.1480 0.2700
C19 C 1.0908(2) 0.1761(2) 0.3133(3)
C20 C 1.1497(2) 0.1859(2) 0.1042(3)
H17 H 1.1367 0.1464 0.0746
H18 H 1.1975 0.1861 0.1114
H19 H 1.1365 0.2249 0.0736
C21 C 1.0861(2) 0.1638(3) 0.4018(3)
H20 H 1.0816 0.2056 0.4302
H21 H 1.1260 0.1414 0.4202
H22 H 1.0479 0.1361 0.4130
C22 C 0.97537(19) 0.21959(19) 0.2972(2)
H23 H 0.9636 0.2625 0.2734
H24 H 0.9754 0.2246 0.3566
C23 C 0.92409(19) 0.16946(19) 0.2737(2)
C24 C 0.94148(19) 0.10609(19) 0.2614(2)
H25 H 0.9860 0.0933 0.2679
C25 C 0.85671(19) 0.18921(19) 0.2640(2)
C26 C 0.7714(2) 0.2724(2) 0.2668(2)
H26 H 0.7573 0.3156 0.2800
C27 C 0.8350(2) 0.25432(19) 0.2814(2)
H27 H 0.8649 0.2853 0.3032
N5 N 0.87022(16) 0.46602(17) -0.2398(2)
N6 N 0.80567(17) 0.48147(17) -0.2512(2)
C28 C 0.7938(2) 0.4689(2) -0.3279(3)
C29 C 0.8496(2) 0.4442(3) -0.3652(3)
H28 H 0.8536 0.4308 -0.4199
C30 C 0.8975(2) 0.4430(3) -0.3081(3)
C31 C 0.7272(3) 0.4838(3) -0.3638(3)
H29 H 0.6928 0.4711 -0.3256
H30 H 0.7218 0.4592 -0.4141
H31 H 0.7239 0.5309 -0.3750
C32 C 0.9691(3) 0.4222(3) -0.3112(3)
H32 H 0.9963 0.4557 -0.2851
H33 H 0.9827 0.4172 -0.3676
H34 H 0.9744 0.3803 -0.2831
C33 C 0.89870(19) 0.4742(2) -0.1602(3)
H35 H 0.8849 0.5172 -0.1384
H36 H 0.9471 0.4749 -0.1654
Ag1B Ag 1.267439(15) 0.485926(15) 0.343633(19)
Ag1D Ag 0.732561(15) 0.514074(15) -0.156367(19)
Ag1F Ag 0.767439(15) 0.014074(15) 0.406367(19)
N1B N 1.29797(16) 0.33519(16) 0.2909(2)
N2B N 1.32223(16) 0.39716(17) 0.3020(2)
C1B C 1.38498(19) 0.3946(2) 0.2767(3)
C2B C 1.3993(2) 0.3310(2) 0.2502(3)
H1B H 1.4400 0.3161 0.2291
C3B C 1.34344(19) 0.2945(2) 0.2603(2)
C4B C 1.4268(2) 0.4540(2) 0.2785(3)
H2B H 1.4378 0.4670 0.2233
H3B H 1.4672 0.4446 0.3084
H4B H 1.4031 0.4898 0.3052
C5B C 1.3299(2) 0.2243(2) 0.2440(3)
H5B H 1.3219 0.2014 0.2950
H6B H 1.3678 0.2046 0.2169
H7B H 1.2912 0.2205 0.2094
C6B C 1.23170(19) 0.3210(2) 0.3170(2)
H8B H 1.2241 0.3428 0.3695
H9B H 1.2276 0.2731 0.3256
C7B C 1.17848(18) 0.34276(18) 0.2585(2)
C8B C 1.1915(2) 0.34917(19) 0.1788(2)
H10B H 1.2348 0.3417 0.1597
C9B C 1.14157(18) 0.3668(2) 0.1237(2)
H11B H 1.1515 0.3697 0.0679
C10B C 1.07897(19) 0.37972(17) 0.1497(3)
C11B C 1.06411(19) 0.37602(17) 0.2332(2)
C12B C 1.11376(18) 0.35434(17) 0.2883(2)
C13B C 1.00087(18) 0.39136(19) 0.2650(3)
H12B H 0.9677 0.4071 0.2298
C14B C 0.9872(2) 0.38388(17) 0.3450(3)
H13B H 0.9449 0.3951 0.3647
C15B C 1.03462(19) 0.35980(18) 0.3982(3)
H14B H 1.0241 0.3527 0.4533
C16B C 1.0968(2) 0.34656(19) 0.3701(2)
H15B H 1.1292 0.3317 0.4069
N3F N 0.79820(16) -0.03987(16) 0.22893(19)
N4F N 0.79188(16) -0.05569(16) 0.3080(2)
N4B N 1.29188(16) 0.55569(16) 0.4420(2)
C17F C 0.8135(2) -0.1170(2) 0.3151(3)
C18F C 0.8342(2) -0.1406(2) 0.2410(3)
H16F H 0.8520 -0.1828 0.2300
C19F C 0.8239(2) -0.0908(2) 0.1867(3)
C20F C 0.8141(2) -0.1497(2) 0.3958(3)
H17F H 0.8536 -0.1367 0.4254
H18F H 0.8139 -0.1975 0.3886
H19F H 0.7751 -0.1365 0.4264
C21F C 0.8362(3) -0.0861(2) 0.0982(3)
H20F H 0.7944 -0.0816 0.0698
H21F H 0.8586 -0.1260 0.0798
H22F H 0.8639 -0.0479 0.0870
C22F C 0.78041(19) 0.02463(19) 0.2028(2)
H23F H 0.7375 0.0364 0.2266
H24F H 0.7754 0.0246 0.1434
C23F C 0.83054(19) 0.07591(19) 0.2263(2)
C24F C 0.89391(19) 0.05852(19) 0.2386(2)
H25F H 0.9067 0.0140 0.2321
C25F C 0.81079(19) 0.14329(19) 0.2360(2)
C26F C 0.7276(2) 0.2286(2) 0.2332(2)
H26F H 0.6844 0.2427 0.2200
C27F C 0.74568(19) 0.1650(2) 0.2186(2)
H27F H 0.7147 0.1351 0.1968
N5B N 1.03398(17) 0.37022(16) 0.0102(2)
N6B N 1.01853(17) 0.30567(17) -0.0012(2)
N6A N 1.19433(17) 0.51853(17) 0.2488(2)
C28B C 1.0311(2) 0.2938(2) -0.0779(3)
C29B C 1.0558(3) 0.3496(2) -0.1152(3)
H28B H 1.0692 0.3536 -0.1699
C30B C 1.0570(3) 0.3975(2) -0.0581(3)
C31B C 1.0162(3) 0.2272(3) -0.1138(3)
H29B H 1.0289 0.1928 -0.0756
H30B H 1.0408 0.2218 -0.1641
H31B H 0.9691 0.2239 -0.1250
C32B C 1.0778(3) 0.4691(3) -0.0612(3)
H32B H 1.0443 0.4963 -0.0351
H33B H 1.0828 0.4827 -0.1176
H34B H 1.1197 0.4744 -0.0331
C33B C 1.0258(2) 0.39870(19) 0.0898(3)
H35B H 0.9828 0.3849 0.1116
H36B H 1.0251 0.4471 0.0846
F1 F 0.77829(17) 0.44500(19) 0.44709(17)
F2 F 0.72030(13) 0.42554(18) 0.3338(2)
F3 F 0.83047(12) 0.40996(13) 0.3350(2)
F4 F 0.78871(16) 0.51179(14) 0.3383(2)
B1 B 0.7787(2) 0.4487(3) 0.3642(3)
C36 C 1.0120(14) 0.0950(13) 0.7672(12)
C38 C 0.9997(14) 0.1192(14) 0.6849(12)
H40 H 1.0330 0.1014 0.6482
H41 H 1.0019 0.1672 0.6845
H42 H 0.9561 0.1051 0.6672
N8 N 1.0187(11) 0.0744(10) 0.8282(12)
N7? N 0.9723(9) 0.0445(7) 0.8124(10)
C34? C 0.9711(11) 0.0804(9) 0.7626(11)
C35? C 0.9702(10) 0.1306(9) 0.6986(11)
H37? H 0.9344 0.1617 0.7089
H38? H 0.9633 0.1094 0.6463
H39? H 1.0121 0.1541 0.6982
C37? C 0.8286(6) 0.2038(8) 0.7377(11)
C39? C 0.8974(6) 0.2166(9) 0.7157(11)
H43? H 0.8991 0.2503 0.6737
H44? H 0.9175 0.1761 0.6955
H45? H 0.9215 0.2318 0.7633
N9? N 0.7781(6) 0.1958(6) 0.7599(10)
loop_
_geom_bond_atom_site_label_1
_geom_bond_atom_site_label_2
_geom_bond_site_symmetry_1
_geom_bond_site_symmetry_2
Ag1 N2 1_555 1_555
N1 N2 1_555 1_555
N2 C1 1_555 1_555
C1 C2 1_555 1_555
C2 H1 1_555 1_555
C3 N1 1_555 1_555
C4 C1 1_555 1_555
H2 C4 1_555 1_555
H3 C4 1_555 1_555
H4 C4 1_555 1_555
C5 C3 1_555 1_555
H5 C5 1_555 1_555
H6 C5 1_555 1_555
H7 C5 1_555 1_555
C6 N1 1_555 1_555
H8 C6 1_555 1_555
H9 C6 1_555 1_555
C7 C6 1_555 1_555
C8 C7 1_555 1_555
H10 C8 1_555 1_555
C9 C8 1_555 1_555
H11 C9 1_555 1_555
C10 C9 1_555 1_555
C11 C10 1_555 1_555
C12 C7 1_555 1_555
C13 C11 1_555 1_555
H12 C13 1_555 1_555
C14 C13 1_555 1_555
H13 C14 1_555 1_555
C15 C14 1_555 1_555
H14 C15 1_555 1_555
C16 C12 1_555 1_555
H15 C16 1_555 1_555
N3 N4 1_555 1_555
N4 Ag1 1_555 1_555
C17 N4 1_555 1_555
C18 C17 1_555 1_555
H16 C18 1_555 1_555
C19 N3 1_555 1_555
C20 C17 1_555 1_555
H17 C20 1_555 1_555
H18 C20 1_555 1_555
H19 C20 1_555 1_555
C21 C19 1_555 1_555
H20 C21 1_555 1_555
H21 C21 1_555 1_555
H22 C21 1_555 1_555
C22 N3 1_555 1_555
H23 C22 1_555 1_555
H24 C22 1_555 1_555
C23 C22 1_555 1_555
C24 C23 1_555 1_555
H25 C24 1_555 1_555
C25 C23 1_555 1_555
C26 H26 1_555 1_555
C27 C25 1_555 1_555
H27 C27 1_555 1_555
N5 N6 1_555 1_555
N6 C28 1_555 1_555
C28 C29 1_555 1_555
C29 H28 1_555 1_555
C30 N5 1_555 1_555
C31 C28 1_555 1_555
H29 C31 1_555 1_555
H30 C31 1_555 1_555
H31 C31 1_555 1_555
C32 C30 1_555 1_555
H32 C32 1_555 1_555
H33 C32 1_555 1_555
H34 C32 1_555 1_555
C33 C10 1_555 1_555
H35 C33 1_555 1_555
H36 C33 1_555 1_555
F1 B1 1_555 1_555
F2 B1 1_555 1_555
F3 B1 1_555 1_555
F4 B1 1_555 1_555
C36 C38 1_555 1_555
C38 H40 1_555 1_555
H41 C38 1_555 1_555
H42 C38 1_555 1_555
N8 C36 1_555 1_555
Ag1B N2B 1_555 1_555
Ag1D N6 1_555 1_555
Ag1F N4F 1_555 1_555
N1B N2B 1_555 1_555
N2B C1B 1_555 1_555
C1B C2B 1_555 1_555
C2B H1B 1_555 1_555
C3B N1B 1_555 1_555
C4B C1B 1_555 1_555
H2B C4B 1_555 1_555
H3B C4B 1_555 1_555
H4B C4B 1_555 1_555
C5B C3B 1_555 1_555
H5B C5B 1_555 1_555
H6B C5B 1_555 1_555
H7B C5B 1_555 1_555
C6B N1B 1_555 1_555
H8B C6B 1_555 1_555
H9B C6B 1_555 1_555
C7B C6B 1_555 1_555
C8B C7B 1_555 1_555
H10B C8B 1_555 1_555
C9B C8B 1_555 1_555
H11B C9B 1_555 1_555
C10B C9B 1_555 1_555
C11B C10B 1_555 1_555
C12B C7B 1_555 1_555
C13B C11B 1_555 1_555
H12B C13B 1_555 1_555
C14B C13B 1_555 1_555
H13B C14B 1_555 1_555
C15B C14B 1_555 1_555
H14B C15B 1_555 1_555
C16B C12B 1_555 1_555
H15B C16B 1_555 1_555
N3F N4F 1_555 1_555
N4F C17F 1_555 1_555
N4B Ag1B 1_555 1_555
C17F C18F 1_555 1_555
C18F H16F 1_555 1_555
C19F N3F 1_555 1_555
C20F C17F 1_555 1_555
H17F C20F 1_555 1_555
H18F C20F 1_555 1_555
H19F C20F 1_555 1_555
C21F C19F 1_555 1_555
H20F C21F 1_555 1_555
H21F C21F 1_555 1_555
H22F C21F 1_555 1_555
C22F N3F 1_555 1_555
H23F C22F 1_555 1_555
H24F C22F 1_555 1_555
C23F C22F 1_555 1_555
C24F C24 1_555 1_555
H25F C24F 1_555 1_555
C25F C25 1_555 1_555
C26F C26 1_555 1_555
H26F C26F 1_555 1_555
C27F C25F 1_555 1_555
H27F C27F 1_555 1_555
N5B N6B 1_555 1_555
N6B Ag1 1_555 1_555
N6A Ag1B 1_555 1_555
C28B N6B 1_555 1_555
C29B C28B 1_555 1_555
H28B C29B 1_555 1_555
C30B N5B 1_555 1_555
C31B C28B 1_555 1_555
H29B C31B 1_555 1_555
H30B C31B 1_555 1_555
H31B C31B 1_555 1_555
C32B C30B 1_555 1_555
H32B C32B 1_555 1_555
H33B C32B 1_555 1_555
H34B C32B 1_555 1_555
C33B C10B 1_555 1_555
H35B C33B 1_555 1_555
H36B C33B 1_555 1_555
C2 C3 1_555 1_555
C11 C12 1_555 1_555
C15 C16 1_555 1_555
C18 C19 1_555 1_555
C26 C27 1_555 1_555
N5 C33 1_555 1_555
C29 C30 1_555 1_555
C2B C3B 1_555 1_555
C11B C12B 1_555 1_555
C15B C16B 1_555 1_555
C18F C19F 1_555 1_555
C23F C24F 1_555 1_555
C23F C25F 1_555 1_555
C26F C27F 1_555 1_555
N5B C33B 1_555 1_555
C29B C30B 1_555 1_555

#END
