
#######################################################################
#
#                 Cambridge Crystallographic Data Centre
#                                CCDC 
#
#######################################################################
#
# If this CIF has been generated from an entry in the Cambridge 
# Structural Database, then it will include bibliographic, chemical, 
# crystal, experimental, refinement or atomic coordinate data resulting 
# from the CCDC's data processing and validation procedures.
#
#######################################################################

data_EMAFII
_symmetry_cell_setting           cubic
_symmetry_space_group_name_H-M   'P 41 3 2'
_symmetry_Int_Tables_number      213
_space_group_name_Hall           'P 4bd 2ab 3'
loop_
_symmetry_equiv_pos_site_id
_symmetry_equiv_pos_as_xyz
1 x,y,z
2 1/2-x,-y,1/2+z
3 -x,1/2+y,1/2-z
4 1/2+x,1/2-y,-z
5 z,x,y
6 1/2+z,1/2-x,-y
7 1/2-z,-x,1/2+y
8 -z,1/2+x,1/2-y
9 y,z,x
10 -y,1/2+z,1/2-x
11 1/2+y,1/2-z,-x
12 1/2-y,-z,1/2+x
13 3/4+y,1/4+x,1/4-z
14 3/4-y,3/4-x,3/4-z
15 1/4+y,1/4-x,3/4+z
16 1/4-y,3/4+x,1/4+z
17 3/4+x,1/4+z,1/4-y
18 1/4-x,3/4+z,1/4+y
19 3/4-x,3/4-z,3/4-y
20 1/4+x,1/4-z,3/4+y
21 3/4+z,1/4+y,1/4-x
22 1/4+z,1/4-y,3/4+x
23 1/4-z,3/4+y,1/4+x
24 3/4-z,3/4-y,3/4-x
_cell_length_a                   19.8931(6)
_cell_length_b                   19.8931(6)
_cell_length_c                   19.8931(6)
_cell_angle_alpha                90
_cell_angle_beta                 90
_cell_angle_gamma                90
_cell_volume                     7872.4
loop_
_atom_site_label
_atom_site_type_symbol
_atom_site_fract_x
_atom_site_fract_y
_atom_site_fract_z
Ag1 Ag 1.00297(3) 0.00297(3) 0.00297(3)
N1 N 0.9567(3) -0.0403(3) 0.1536(3)
N2 N 0.9669(3) -0.0598(3) 0.0895(3)
C1 C 0.9435(4) -0.1226(4) 0.0862(5)
C2 C 0.9173(4) -0.1407(4) 0.1504(5)
H1 H 0.8972 -0.1824 0.1621
C3 C 0.9262(4) -0.0881(3) 0.1909(4)
C4 C 0.9466(7) -0.1625(5) 0.0223(6)
H2 H 0.9021 -0.1812 0.0124
H3 H 0.9790 -0.1993 0.0274
H4 H 0.9607 -0.1332 -0.0147
C5 C 0.9079(5) -0.0782(5) 0.2630(5)
H5 H 0.9485 -0.0679 0.2890
H6 H 0.8872 -0.1193 0.2805
H7 H 0.8760 -0.0408 0.2669
C6 C 0.9744(3) 0.0279(3) 0.1719(4)
H8 H 1.0189 0.0388 0.1526
H9 H 0.9783 0.0307 0.2215
C7 C 0.9238(3) 0.0800(3) 0.1482(3)
C8 C 0.8600(3) 0.0616(3) 0.1364(4)
H10 H 0.8468 0.0162 0.1432
C9 C 0.9450(3) 0.1476(3) 0.1378(3)
C10 C 1.0311(3) 0.2349(3) 0.1395(3)
H11 H 1.0755 0.2491 0.1499
C11 C 1.0119(3) 0.1699(3) 0.1525(3)
H12 H 1.0434 0.1393 0.1714
Ag1L Ag 0.75297(3) 0.25297(3) 0.24703(3)
Ag1O Ag 1.24703(3) -0.24703(3) 0.25297(3)
Ag1N Ag 1.25297(3) 0.24703(3) -0.24703(3)
N1L N 0.7097(3) 0.2067(3) 0.0964(3)
N1D N 1.1536(3) -0.0433(3) -0.0403(3)
N1V N 1.0964(3) -0.2903(3) 0.2067(3)
N1H N 0.9597(3) 0.1536(3) -0.0433(3)
N1S N 1.2067(3) 0.0964(3) -0.2903(3)
N2L N 0.6902(3) 0.2169(3) 0.1605(3)
N2D N 1.0895(3) -0.0331(3) -0.0598(3)
N2V N 1.1605(3) -0.3098(3) 0.2169(3)
N2H N 0.9402(3) 0.0895(3) -0.0331(3)
N2S N 1.2169(3) 0.1605(3) -0.3098(3)
N2P N 0.7169(3) 0.3395(3) 0.3098(3)
N2T N 0.8395(3) 0.1902(3) 0.2831(3)
C1L C 0.6274(4) 0.1935(4) 0.1638(5)
C1D C 1.0862(5) -0.0565(4) -0.1226(4)
C1V C 1.1638(5) -0.3726(4) 0.1935(4)
C1H C 0.8774(4) 0.0862(5) -0.0565(4)
C1S C 1.1935(4) 0.1638(5) -0.3726(4)
C2L C 0.6093(4) 0.1673(4) 0.0996(5)
C2D C 1.1504(5) -0.0827(4) -0.1407(4)
C2V C 1.0996(5) -0.3907(4) 0.1673(4)
C2H C 0.8593(4) 0.1504(5) -0.0827(4)
C2S C 1.1673(4) 0.0996(5) -0.3907(4)
H1L H 0.5676 0.1472 0.0879
H1D H 1.1621 -0.1028 -0.1824
H1V H 1.0879 -0.4324 0.1472
H1H H 0.8176 0.1621 -0.1028
H1S H 1.1472 0.0879 -0.4324
C3L C 0.6619(3) 0.1762(4) 0.0591(4)
C3D C 1.1909(4) -0.0738(4) -0.0881(3)
C3V C 1.0591(4) -0.3381(3) 0.1762(4)
C3H C 0.9119(3) 0.1909(4) -0.0738(4)
C3S C 1.1762(4) 0.0591(4) -0.3381(3)
C4L C 0.5875(5) 0.1966(7) 0.2277(6)
C4D C 1.0223(6) -0.0534(7) -0.1625(5)
C4V C 1.2277(6) -0.4125(5) 0.1966(7)
C4H C 0.8375(5) 0.0223(6) -0.0534(7)
C4S C 1.1966(7) 0.2277(6) -0.4125(5)
H2L H 0.5688 0.1521 0.2376
H2D H 1.0124 -0.0979 -0.1812
H2V H 1.2376 -0.4312 0.1521
H2H H 0.8188 0.0124 -0.0979
H2S H 1.1521 0.2376 -0.4312
H3L H 0.5507 0.2290 0.2226
H3D H 1.0274 -0.0210 -0.1993
H3V H 1.2226 -0.4493 0.2290
H3H H 0.8007 0.0274 -0.0210
H3S H 1.2290 0.2226 -0.4493
H4L H 0.6168 0.2107 0.2647
H4D H 0.9853 -0.0393 -0.1332
H4V H 1.2647 -0.3832 0.2107
H4H H 0.8668 -0.0147 -0.0393
H4S H 1.2107 0.2647 -0.3832
C5L C 0.6718(5) 0.1579(5) -0.0130(5)
C5D C 1.2630(5) -0.0921(5) -0.0782(5)
C5V C 0.9870(5) -0.3282(5) 0.1579(5)
C5H C 0.9218(5) 0.2630(5) -0.0921(5)
C5S C 1.1579(5) -0.0130(5) -0.3282(5)
H5L H 0.6821 0.1985 -0.0390
H5D H 1.2890 -0.0515 -0.0679
H5V H 0.9610 -0.3179 0.1985
H5H H 0.9321 0.2890 -0.0515
H5S H 1.1985 -0.0390 -0.3179
H6L H 0.6307 0.1372 -0.0305
H6D H 1.2805 -0.1128 -0.1193
H6V H 0.9695 -0.3693 0.1372
H6H H 0.8807 0.2805 -0.1128
H6S H 1.1372 -0.0305 -0.3693
H7L H 0.7092 0.1260 -0.0169
H7D H 1.2669 -0.1240 -0.0408
H7V H 0.9831 -0.2908 0.1260
H7H H 0.9592 0.2669 -0.1240
H7S H 1.1260 -0.0169 -0.2908
C6L C 0.7779(3) 0.2244(3) 0.0781(4)
C6D C 1.1719(4) -0.0256(3) 0.0279(3)
C6V C 1.0781(4) -0.2221(3) 0.2244(3)
C6H C 1.0279(3) 0.1719(4) -0.0256(3)
C6S C 1.2244(3) 0.0781(4) -0.2221(3)
H8L H 0.7888 0.2689 0.0974
H8D H 1.1526 0.0189 0.0388
H8V H 1.0974 -0.2112 0.2689
H8H H 1.0388 0.1526 0.0189
H8S H 1.2689 0.0974 -0.2112
H9L H 0.7807 0.2283 0.0285
H9D H 1.2215 -0.0217 0.0307
H9V H 1.0285 -0.2193 0.2283
H9H H 1.0307 0.2215 -0.0217
H9S H 1.2283 0.0285 -0.2193
C7L C 0.8300(3) 0.1738(3) 0.1018(3)
C7D C 1.1482(3) -0.0762(3) 0.0800(3)
C7V C 1.1018(3) -0.1700(3) 0.1738(3)
C7H C 1.0800(3) 0.1482(3) -0.0762(3)
C7S C 1.1738(3) 0.1018(3) -0.1700(3)
C8L C 0.8116(3) 0.1100(3) 0.1136(4)
C8D C 1.1364(4) -0.1400(3) 0.0616(3)
C8V C 1.1136(4) -0.1884(3) 0.1100(3)
C8H C 1.0616(3) 0.1364(4) -0.1400(3)
C8S C 1.1100(3) 0.1136(4) -0.1884(3)
H10L H 0.7662 0.0968 0.1068
H10D H 1.1432 -0.1532 0.0162
H10V H 1.1068 -0.2338 0.0968
H10H H 1.0162 0.1432 -0.1532
H10S H 1.0968 0.1068 -0.2338
C9L C 0.8976(3) 0.1950(3) 0.1122(3)
C9D C 1.1378(3) -0.0550(3) 0.1476(3)
C9V C 1.1122(3) -0.1024(3) 0.1950(3)
C9H C 1.1476(3) 0.1378(3) -0.0550(3)
C9S C 1.1950(3) 0.1122(3) -0.1024(3)
C10L C 0.9849(3) 0.2811(3) 0.1105(3)
C10D C 1.1395(3) 0.0311(3) 0.2349(3)
C10V C 1.1105(3) -0.0151(3) 0.2811(3)
C10H C 1.2349(3) 0.1395(3) 0.0311(3)
C10S C 1.2811(3) 0.1105(3) -0.0151(3)
H11L H 0.9991 0.3255 0.1001
H11D H 1.1499 0.0755 0.2491
H11V H 1.1001 -0.0009 0.3255
H11H H 1.2491 0.1499 0.0755
H11S H 1.3255 0.1001 -0.0009
C11L C 0.9199(3) 0.2619(3) 0.0975(3)
C11D C 1.1525(3) 0.0119(3) 0.1699(3)
C11V C 1.0975(3) -0.0801(3) 0.2619(3)
C11H C 1.1699(3) 0.1525(3) 0.0119(3)
C11S C 1.2619(3) 0.0975(3) -0.0801(3)
H12L H 0.8893 0.2934 0.0786
H12D H 1.1714 0.0434 0.1393
H12V H 1.0786 -0.1107 0.2934
H12H H 1.1393 0.1714 0.0434
H12S H 1.2934 0.0786 -0.1107
P1 P 0.47397(11) 0.02603(11) 0.97397(11)
F4 F 0.4557(16) 0.0781(12) 1.0327(8)
F6 F 0.5220(16) 0.0867(9) 0.986(2)
F4E F 0.5327(8) 0.0443(16) 0.9219(12)
F4K F 0.4219(12) -0.0327(8) 0.9557(16)
F6E F 0.486(2) -0.0220(16) 0.9133(9)
F6K F 0.4133(9) 0.014(2) 1.0220(16)
F1? F 0.5174(4) -0.0174(4) 1.0174(4)
F2? F 0.4276(2) 0.0724(2) 0.9276(2)
F3? F 0.4899(16) 0.0943(6) 1.0120(13)
F5? F 0.5367(8) 0.0710(13) 0.9615(16)
loop_
_geom_bond_atom_site_label_1
_geom_bond_atom_site_label_2
_geom_bond_site_symmetry_1
_geom_bond_site_symmetry_2
Ag1 N2 1_555 1_555
N1 N2 1_555 1_555
N2 C1 1_555 1_555
C1 C2 1_555 1_555
C2 H1 1_555 1_555
C3 N1 1_555 1_555
C4 C1 1_555 1_555
H2 C4 1_555 1_555
H3 C4 1_555 1_555
H4 C4 1_555 1_555
C5 C3 1_555 1_555
H5 C5 1_555 1_555
H6 C5 1_555 1_555
H7 C5 1_555 1_555
C6 N1 1_555 1_555
H8 C6 1_555 1_555
H9 C6 1_555 1_555
C7 C6 1_555 1_555
C8 C7 1_555 1_555
H10 C8 1_555 1_555
C9 C7 1_555 1_555
C10 H11 1_555 1_555
C11 C9 1_555 1_555
H12 C11 1_555 1_555
P1 F4 1_555 1_555
F6 P1 1_555 1_555
Ag1L N2L 1_555 1_555
Ag1O N2V 1_555 1_555
Ag1N N2S 1_555 1_555
N1L N2L 1_555 1_555
N1D N2D 1_555 1_555
N1V N2V 1_555 1_555
N1H N2H 1_555 1_555
N1S N2S 1_555 1_555
N2L C1L 1_555 1_555
N2D Ag1 1_555 1_555
N2V C1V 1_555 1_555
N2H Ag1 1_555 1_555
N2S C1S 1_555 1_555
N2P Ag1L 1_555 1_555
N2T Ag1L 1_555 1_555
C1L C2L 1_555 1_555
C1D N2D 1_555 1_555
C1V C2V 1_555 1_555
C1H N2H 1_555 1_555
C1S C2S 1_555 1_555
C2L H1L 1_555 1_555
C2D C1D 1_555 1_555
C2V H1V 1_555 1_555
C2H C1H 1_555 1_555
C2S H1S 1_555 1_555
H1D C2D 1_555 1_555
H1H C2H 1_555 1_555
C3L N1L 1_555 1_555
C3D N1D 1_555 1_555
C3V N1V 1_555 1_555
C3H N1H 1_555 1_555
C3S N1S 1_555 1_555
C4L C1L 1_555 1_555
C4D C1D 1_555 1_555
C4V C1V 1_555 1_555
C4H C1H 1_555 1_555
C4S C1S 1_555 1_555
H2L C4L 1_555 1_555
H2D C4D 1_555 1_555
H2V C4V 1_555 1_555
H2H C4H 1_555 1_555
H2S C4S 1_555 1_555
H3L C4L 1_555 1_555
H3D C4D 1_555 1_555
H3V C4V 1_555 1_555
H3H C4H 1_555 1_555
H3S C4S 1_555 1_555
H4L C4L 1_555 1_555
H4D C4D 1_555 1_555
H4V C4V 1_555 1_555
H4H C4H 1_555 1_555
H4S C4S 1_555 1_555
C5L C3L 1_555 1_555
C5D C3D 1_555 1_555
C5V C3V 1_555 1_555
C5H C3H 1_555 1_555
C5S C3S 1_555 1_555
H5L C5L 1_555 1_555
H5D C5D 1_555 1_555
H5V C5V 1_555 1_555
H5H C5H 1_555 1_555
H5S C5S 1_555 1_555
H6L C5L 1_555 1_555
H6D C5D 1_555 1_555
H6V C5V 1_555 1_555
H6H C5H 1_555 1_555
H6S C5S 1_555 1_555
H7L C5L 1_555 1_555
H7D C5D 1_555 1_555
H7V C5V 1_555 1_555
H7H C5H 1_555 1_555
H7S C5S 1_555 1_555
C6L N1L 1_555 1_555
C6D N1D 1_555 1_555
C6V N1V 1_555 1_555
C6H N1H 1_555 1_555
C6S N1S 1_555 1_555
H8L C6L 1_555 1_555
H8D C6D 1_555 1_555
H8V C6V 1_555 1_555
H8H C6H 1_555 1_555
H8S C6S 1_555 1_555
H9L C6L 1_555 1_555
H9D C6D 1_555 1_555
H9V C6V 1_555 1_555
H9H C6H 1_555 1_555
H9S C6S 1_555 1_555
C7L C6L 1_555 1_555
C7D C6D 1_555 1_555
C7V C6V 1_555 1_555
C7H C6H 1_555 1_555
C7S C6S 1_555 1_555
C8L C8 1_555 1_555
C8D C7D 1_555 1_555
C8V C7V 1_555 1_555
C8H C7H 1_555 1_555
C8S C7S 1_555 1_555
H10L C8L 1_555 1_555
H10D C8D 1_555 1_555
H10V C8V 1_555 1_555
H10H C8H 1_555 1_555
H10S C8S 1_555 1_555
C9L C9 1_555 1_555
C9D C7D 1_555 1_555
C9V C7V 1_555 1_555
C9H C7H 1_555 1_555
C9S C7S 1_555 1_555
C10L C10 1_555 1_555
C10D C10V 1_555 1_555
C10V H11V 1_555 1_555
C10H C10S 1_555 1_555
C10S H11S 1_555 1_555
H11L C10L 1_555 1_555
H11D C10D 1_555 1_555
H11H C10H 1_555 1_555
C11L C9L 1_555 1_555
C11D C9D 1_555 1_555
C11V C9V 1_555 1_555
C11H C9H 1_555 1_555
C11S C9S 1_555 1_555
H12L C11L 1_555 1_555
H12D C11D 1_555 1_555
H12V C11V 1_555 1_555
H12H C11H 1_555 1_555
H12S C11S 1_555 1_555
F4E P1 1_555 1_555
F4K P1 1_555 1_555
F6E P1 1_555 1_555
F6K P1 1_555 1_555
C2 C3 1_555 1_555
C10 C11 1_555 1_555
C2L C3L 1_555 1_555
C2D C3D 1_555 1_555
C2V C3V 1_555 1_555
C2H C3H 1_555 1_555
C2S C3S 1_555 1_555
C7L C8L 1_555 1_555
C7L C9L 1_555 1_555
C8D C8V 1_555 1_555
C8H C8S 1_555 1_555
C9D C9V 1_555 1_555
C9H C9S 1_555 1_555
C10L C11L 1_555 1_555
C10D C11D 1_555 1_555
C10V C11V 1_555 1_555
C10H C11H 1_555 1_555
C10S C11S 1_555 1_555

#END
