
#######################################################################
#
#                 Cambridge Crystallographic Data Centre
#                                CCDC 
#
#######################################################################
#
# If this CIF has been generated from an entry in the Cambridge 
# Structural Database, then it will include bibliographic, chemical, 
# crystal, experimental, refinement or atomic coordinate data resulting 
# from the CCDC's data processing and validation procedures.
#
#######################################################################

data_EMAFAZ
_symmetry_cell_setting           monoclinic
_symmetry_space_group_name_H-M   'C 2/c'
_symmetry_Int_Tables_number      15
_space_group_name_Hall           '-C 2yn'
loop_
_symmetry_equiv_pos_site_id
_symmetry_equiv_pos_as_xyz
1 x,y,z
2 1/2+x,1/2+y,z
3 x,-y,1/2+z
4 1/2+x,1/2-y,1/2+z
5 -x,-y,-z
6 1/2-x,1/2-y,-z
7 -x,y,1/2-z
8 1/2-x,1/2+y,1/2-z
_cell_length_a                   24.480(8)
_cell_length_b                   12.104(4)
_cell_length_c                   22.940(7)
_cell_angle_alpha                90
_cell_angle_beta                 115.571(5)
_cell_angle_gamma                90
_cell_volume                     6131.47
loop_
_atom_site_label
_atom_site_type_symbol
_atom_site_fract_x
_atom_site_fract_y
_atom_site_fract_z
Tb1 Tb 0.035935(9) 0.326268(16) 0.399821(9)
N1 N 0.12075(17) 0.1949(3) 0.46555(18)
N2 N 0.01658(17) 0.2108(3) 0.48192(17)
O1 O 0.12413(16) 0.4568(3) 0.44340(16)
O2 O 0.07611(16) 0.4182(3) 0.50268(15)
O3 O 0.05609(14) 0.6001(2) 0.60496(14)
O4 O 0.00966(16) 0.4990(2) 0.64840(16)
O5 O -0.04679(15) 0.2695(3) 0.28920(14)
O6 O 0.01162(15) 0.1420(2) 0.35214(15)
O7 O 0.08654(16) 0.3404(3) 0.33067(16)
C1 C 0.1705(2) 0.1841(4) 0.4567(3)
H1 H 0.1744 0.2265 0.4249
C2 C 0.2174(2) 0.1114(5) 0.4931(3)
H2 H 0.2514 0.1050 0.4850
C3 C 0.2127(3) 0.0513(5) 0.5396(3)
H3 H 0.2443 0.0049 0.5651
C4 C 0.1611(2) 0.0575(4) 0.5504(3)
C5 C 0.1520(3) -0.0070(4) 0.5984(3)
H4 H 0.1821 -0.0556 0.6243
C6 C 0.1014(3) 0.0016(4) 0.6064(3)
H5 H 0.0968 -0.0415 0.6376
C7 C 0.0539(2) 0.0756(4) 0.5681(2)
C8 C 0.0003(3) 0.0884(4) 0.5760(2)
H6 H -0.0054 0.0472 0.6071
C9 C -0.0427(3) 0.1600(4) 0.5385(3)
H7 H -0.0781 0.1694 0.5437
C10 C -0.0329(2) 0.2204(4) 0.4913(2)
H8 H -0.0627 0.2695 0.4655
C11 C 0.1145(2) 0.1308(4) 0.5113(2)
C12 C 0.0603(2) 0.1398(3) 0.5205(2)
C13 C 0.1161(2) 0.4701(4) 0.4942(2)
C14 C 0.1561(2) 0.5515(4) 0.5451(2)
C15 C 0.1798(2) 0.6411(4) 0.5253(3)
H9 H 0.1731 0.6472 0.4824
C16 C 0.2132(2) 0.7211(4) 0.5697(3)
H10 H 0.2294 0.7807 0.5568
C17 C 0.2223(2) 0.7112(4) 0.6331(3)
H11 H 0.2439 0.7654 0.6629
C18 C 0.1997(2) 0.6228(4) 0.6526(3)
H12 H 0.2068 0.6170 0.6957
C19 C 0.16648(19) 0.5412(4) 0.6092(2)
C20 C 0.0533(2) 0.5139(4) 0.6334(2)
C21 C 0.1008(2) 0.4261(4) 0.6500(2)
C22 C 0.0947(3) 0.3283(4) 0.6801(2)
H13 H 0.0626 0.3212 0.6912
C23 C 0.1355(3) 0.2435(4) 0.6933(2)
H14 H 0.1302 0.1785 0.7119
C24 C 0.1844(3) 0.2548(4) 0.6789(3)
H15 H 0.2126 0.1980 0.6887
C25 C 0.1916(3) 0.3501(4) 0.6500(3)
H16 H 0.2242 0.3564 0.6395
C26 C 0.1502(2) 0.4377(4) 0.6362(2)
C27 C -0.03124(19) 0.1692(4) 0.2997(2)
C28 C -0.0645(2) 0.0832(3) 0.2502(2)
C29 C -0.1272(2) 0.0845(4) 0.2199(2)
H17 H -0.1479 0.1429 0.2277
C30 C -0.1596(2) 0.0008(4) 0.1784(3)
H18 H -0.2017 0.0026 0.1588
C31 C -0.1291(3) -0.0854(5) 0.1661(3)
H19 H -0.1507 -0.1421 0.1384
C32 C -0.0669(2) -0.0873(4) 0.1950(2)
H20 H -0.0468 -0.1458 0.1865
C33 C -0.0337(2) -0.0042(3) 0.2362(2)
C33F C 0.0337(2) -0.0042(3) 0.2638(2)
C28F C 0.0645(2) 0.0832(3) 0.2498(2)
C27F C 0.03124(19) 0.1692(4) 0.2003(2)
O5F O 0.04679(15) 0.2695(3) 0.21080(14)
O6F O -0.01162(15) 0.1420(2) 0.14786(15)
C29F C 0.1272(2) 0.0845(4) 0.2801(2)
H17F H 0.1479 0.1429 0.2723
C30F C 0.1596(2) 0.0008(4) 0.3216(3)
H18F H 0.2017 0.0026 0.3412
C31F C 0.1291(3) -0.0854(5) 0.3339(3)
H19F H 0.1507 -0.1421 0.3616
C32F C 0.0669(2) -0.0873(4) 0.3050(2)
H20F H 0.0468 -0.1458 0.3135
O1D O -0.12413(16) 0.5432(3) 0.55660(16)
O2D O -0.07611(16) 0.5818(3) 0.49732(15)
O3D O -0.05609(14) 0.3999(2) 0.39504(14)
O4D O -0.00966(16) 0.5010(2) 0.35160(16)
C13D C -0.1161(2) 0.5299(4) 0.5058(2)
C14D C -0.1561(2) 0.4485(4) 0.4549(2)
C15D C -0.1798(2) 0.3589(4) 0.4747(3)
H9D H -0.1731 0.3528 0.5176
C16D C -0.2132(2) 0.2789(4) 0.4303(3)
H10D H -0.2294 0.2193 0.4432
C17D C -0.2223(2) 0.2888(4) 0.3669(3)
H11D H -0.2439 0.2346 0.3371
C18D C -0.1997(2) 0.3772(4) 0.3474(3)
H12D H -0.2068 0.3830 0.3043
C19D C -0.16648(19) 0.4588(4) 0.3908(2)
C20D C -0.0533(2) 0.4861(4) 0.3666(2)
C21D C -0.1008(2) 0.5739(4) 0.3500(2)
C22D C -0.0947(3) 0.6717(4) 0.3199(2)
H13D H -0.0626 0.6788 0.3088
C23D C -0.1355(3) 0.7565(4) 0.3067(2)
H14D H -0.1302 0.8215 0.2881
C24D C -0.1844(3) 0.7452(4) 0.3211(3)
H15D H -0.2126 0.8020 0.3113
C25D C -0.1916(3) 0.6499(4) 0.3500(3)
H16D H -0.2242 0.6436 0.3605
C26D C -0.1502(2) 0.5623(4) 0.3638(2)
Tb1D Tb -0.035935(9) 0.673732(16) 0.600179(9)
N1D N -0.12075(17) 0.8051(3) 0.53445(18)
N2D N -0.01658(17) 0.7892(3) 0.51808(17)
C1D C -0.1705(2) 0.8159(4) 0.5433(3)
H1D H -0.1744 0.7735 0.5751
C2D C -0.2174(2) 0.8886(5) 0.5069(3)
H2D H -0.2514 0.8950 0.5150
C3D C -0.2127(3) 0.9487(5) 0.4604(3)
H3D H -0.2443 0.9951 0.4349
C4D C -0.1611(2) 0.9425(4) 0.4496(3)
C5D C -0.1520(3) 1.0070(4) 0.4016(3)
H4D H -0.1821 1.0556 0.3757
C6D C -0.1014(3) 0.9984(4) 0.3936(3)
H5D H -0.0968 1.0415 0.3624
C7D C -0.0539(2) 0.9244(4) 0.4319(2)
C8D C -0.0003(3) 0.9116(4) 0.4240(2)
H6D H 0.0054 0.9528 0.3929
C9D C 0.0427(3) 0.8400(4) 0.4615(3)
H7D H 0.0781 0.8306 0.4563
C10D C 0.0329(2) 0.7796(4) 0.5087(2)
H8D H 0.0627 0.7305 0.5345
C11D C -0.1145(2) 0.8692(4) 0.4887(2)
C12D C -0.0603(2) 0.8602(3) 0.4795(2)
O7D O -0.08654(16) 0.6596(3) 0.66933(16)
Tb1F Tb -0.035935(9) 0.326268(16) 0.100179(9)
O5D O 0.04679(15) 0.7305(3) 0.71080(14)
O6D O -0.01162(15) 0.8580(2) 0.64786(15)
O8 O 0.0000 0.6070(5) 0.2500
O9 O 0.1344(5) 0.5867(11) 0.3488(4)
loop_
_geom_bond_atom_site_label_1
_geom_bond_atom_site_label_2
_geom_bond_site_symmetry_1
_geom_bond_site_symmetry_2
Tb1 N1 1_555 1_555
N1 C1 1_555 1_555
N2 Tb1 1_555 1_555
O1 Tb1 1_555 1_555
O2 Tb1 1_555 1_555
O3 C20 1_555 1_555
O4 C20 1_555 1_555
O5 Tb1 1_555 1_555
O6 Tb1 1_555 1_555
O7 Tb1 1_555 1_555
C1 H1 1_555 1_555
C2 C1 1_555 1_555
H2 C2 1_555 1_555
C3 C2 1_555 1_555
H3 C3 1_555 1_555
C4 C3 1_555 1_555
C5 C4 1_555 1_555
H4 C5 1_555 1_555
C6 C5 1_555 1_555
H5 C6 1_555 1_555
C7 C6 1_555 1_555
C8 C7 1_555 1_555
H6 C8 1_555 1_555
C9 C8 1_555 1_555
H7 C9 1_555 1_555
C10 N2 1_555 1_555
H8 C10 1_555 1_555
C11 N1 1_555 1_555
C12 N2 1_555 1_555
C13 O1 1_555 1_555
C14 C13 1_555 1_555
C15 C14 1_555 1_555
H9 C15 1_555 1_555
C16 C15 1_555 1_555
H10 C16 1_555 1_555
C17 C16 1_555 1_555
H11 C17 1_555 1_555
C18 C17 1_555 1_555
H12 C18 1_555 1_555
C19 C14 1_555 1_555
C20 C21 1_555 1_555
C21 C22 1_555 1_555
C22 H13 1_555 1_555
C23 C22 1_555 1_555
H14 C23 1_555 1_555
C24 C23 1_555 1_555
H15 C24 1_555 1_555
C25 C24 1_555 1_555
H16 C25 1_555 1_555
C26 C19 1_555 1_555
C27 O5 1_555 1_555
C28 C27 1_555 1_555
C29 C28 1_555 1_555
H17 C29 1_555 1_555
C30 C29 1_555 1_555
H18 C30 1_555 1_555
C31 C30 1_555 1_555
H19 C31 1_555 1_555
C32 C31 1_555 1_555
H20 C32 1_555 1_555
C33 C28 1_555 1_555
C33F C33 1_555 1_555
C28F C33F 1_555 1_555
C27F C28F 1_555 1_555
O5F C27F 1_555 1_555
O6F C27F 1_555 1_555
C29F C28F 1_555 1_555
H17F C29F 1_555 1_555
C30F C29F 1_555 1_555
H18F C30F 1_555 1_555
C31F C30F 1_555 1_555
H19F C31F 1_555 1_555
C32F C33F 1_555 1_555
H20F C32F 1_555 1_555
O1D C13D 1_555 1_555
O2D C13D 1_555 1_555
O3D Tb1 1_555 1_555
O4D Tb1 1_555 1_555
C13D C14D 1_555 1_555
C14D C15D 1_555 1_555
C15D H9D 1_555 1_555
C16D C15D 1_555 1_555
H10D C16D 1_555 1_555
C17D C16D 1_555 1_555
H11D C17D 1_555 1_555
C18D C17D 1_555 1_555
H12D C18D 1_555 1_555
C19D C14D 1_555 1_555
C20D O3D 1_555 1_555
C21D C20D 1_555 1_555
C22D C21D 1_555 1_555
H13D C22D 1_555 1_555
C23D C22D 1_555 1_555
H14D C23D 1_555 1_555
C24D C23D 1_555 1_555
H15D C24D 1_555 1_555
C25D C24D 1_555 1_555
H16D C25D 1_555 1_555
C26D C19D 1_555 1_555
Tb1D O3 1_555 1_555
N1D Tb1D 1_555 1_555
N2D Tb1D 1_555 1_555
C1D N1D 1_555 1_555
H1D C1D 1_555 1_555
C2D C1D 1_555 1_555
H2D C2D 1_555 1_555
C3D C2D 1_555 1_555
H3D C3D 1_555 1_555
C4D C3D 1_555 1_555
C5D C4D 1_555 1_555
H4D C5D 1_555 1_555
C6D C5D 1_555 1_555
H5D C6D 1_555 1_555
C7D C6D 1_555 1_555
C8D C7D 1_555 1_555
H6D C8D 1_555 1_555
C9D C8D 1_555 1_555
H7D C9D 1_555 1_555
C10D N2D 1_555 1_555
H8D C10D 1_555 1_555
C11D N1D 1_555 1_555
C12D N2D 1_555 1_555
O7D Tb1D 1_555 1_555
Tb1F O5F 1_555 1_555
O5D Tb1D 1_555 1_555
O6D Tb1D 1_555 1_555
O2 C13 1_555 1_555
O4 Tb1D 1_555 1_555
O6 C27 1_555 1_555
C4 C11 1_555 1_555
C7 C12 1_555 1_555
C9 C10 1_555 1_555
C11 C12 1_555 1_555
C18 C19 1_555 1_555
C21 C26 1_555 1_555
C25 C26 1_555 1_555
C32 C33 1_555 1_555
O6F Tb1F 1_555 1_555
C31F C32F 1_555 1_555
O1D Tb1D 1_555 1_555
O2D Tb1D 1_555 1_555
O4D C20D 1_555 1_555
C18D C19D 1_555 1_555
C21D C26D 1_555 1_555
C25D C26D 1_555 1_555
C4D C11D 1_555 1_555
C7D C12D 1_555 1_555
C9D C10D 1_555 1_555
C11D C12D 1_555 1_555

#END
