
#######################################################################
#
#                 Cambridge Crystallographic Data Centre
#                                CCDC 
#
#######################################################################
#
# If this CIF has been generated from an entry in the Cambridge 
# Structural Database, then it will include bibliographic, chemical, 
# crystal, experimental, refinement or atomic coordinate data resulting 
# from the CCDC's data processing and validation procedures.
#
#######################################################################

data_EMAFUU
_symmetry_cell_setting           tetragonal
_symmetry_space_group_name_H-M   'I 4/m'
_symmetry_Int_Tables_number      87
_space_group_name_Hall           '-I 4'
loop_
_symmetry_equiv_pos_site_id
_symmetry_equiv_pos_as_xyz
1 x,y,z
2 -x,-y,z
3 -y,x,z
4 y,-x,z
5 1/2+x,1/2+y,1/2+z
6 1/2-x,1/2-y,1/2+z
7 1/2-y,1/2+x,1/2+z
8 1/2+y,1/2-x,1/2+z
9 -x,-y,-z
10 x,y,-z
11 y,-x,-z
12 -y,x,-z
13 1/2-x,1/2-y,1/2-z
14 1/2+x,1/2+y,1/2-z
15 1/2+y,1/2-x,1/2-z
16 1/2-y,1/2+x,1/2-z
_cell_length_a                   12.159(4)
_cell_length_b                   12.159(4)
_cell_length_c                   20.852(6)
_cell_angle_alpha                90
_cell_angle_beta                 90
_cell_angle_gamma                90
_cell_volume                     3082.79
loop_
_atom_site_label
_atom_site_type_symbol
_atom_site_fract_x
_atom_site_fract_y
_atom_site_fract_z
Ni1 Ni 0.5000 0.0000 0.0000
Mo1 Mo 0.18885(14) 0.03615(17) 0.0000
Mo2 Mo 0.0000 0.0000 -0.10967(10)
C1 C 0.6023(11) 0.1234(12) 0.1104(6)
H1 H 0.6627 0.0768 0.1069
C2 C 0.4550(15) 0.2017(17) 0.0891(9)
H2 H 0.3905 0.2205 0.0678
C3 C 0.4937(15) 0.2546(17) 0.1399(10)
H3 H 0.4625 0.3140 0.1613
C4 C 0.6726(10) 0.2247(11) 0.2037(6)
C5 C 0.7817(10) 0.2018(14) 0.1944(7)
H4 H 0.8029 0.1683 0.1563
C6 C 0.6400(11) 0.2742(14) 0.2617(7)
H5 H 0.5664 0.2900 0.2696
N1 N 0.5203(8) 0.1178(9) 0.0724(5)
N2 N 0.5954(8) 0.1988(10) 0.1542(5)
O1 O 0.3313(10) 0.0316(10) 0.0000
O2 O 0.1559(14) 0.1778(11) 0.0000
O3 O 0.0000 0.0000 0.0000
O4 O 0.1566(7) 0.0118(7) -0.0917(5)
O5 O 0.0000 0.0000 -0.1892(7)
Ni1D Ni 1.0000 0.5000 0.5000
Ni1D_2 Ni 0.0000 -0.5000 0.5000
Ni1B Ni 0.0000 -0.5000 0.0000
Ni1F Ni 0.5000 -1.0000 0.5000
Ni1F_2 Ni -0.5000 0.0000 0.5000
Ni1B_2 Ni 0.0000 0.5000 0.0000
Ni1_2 Ni -0.5000 0.0000 0.0000
Mo1C Mo 0.03615(17) -0.18885(14) 0.0000
Mo1B Mo -0.03615(17) 0.18885(14) 0.0000
Mo1A Mo -0.18885(14) -0.03615(17) 0.0000
Mo2H Mo 0.0000 0.0000 0.10967(10)
C1L C 0.8977(11) 0.3766(12) 0.3896(6)
C1A C 0.3977(11) -0.1234(12) 0.1104(6)
C1M C 0.1023(11) -0.3766(12) 0.3896(6)
C1C C 0.1234(12) -0.6023(11) 0.1104(6)
C1O C 0.3766(12) -0.8977(11) 0.3896(6)
C1B C -0.1234(12) -0.3977(11) 0.1104(6)
C1N C -0.3766(12) -0.1023(11) 0.3896(6)
H1L H 0.8373 0.4232 0.3931
H1A H 0.3373 -0.0768 0.1069
H1M H 0.1627 -0.4232 0.3931
H1C H 0.0768 -0.6627 0.1069
H1O H 0.4232 -0.8373 0.3931
H1B H -0.0768 -0.3373 0.1069
H1N H -0.4232 -0.1627 0.3931
C2L C 1.0450(15) 0.2983(17) 0.4109(9)
C2A C 0.5450(15) -0.2017(17) 0.0891(9)
C2M C -0.0450(15) -0.2983(17) 0.4109(9)
C2C C 0.2017(17) -0.4550(15) 0.0891(9)
C2O C 0.2983(17) -1.0450(15) 0.4109(9)
C2B C -0.2017(17) -0.5450(15) 0.0891(9)
C2N C -0.2983(17) 0.0450(15) 0.4109(9)
H2L H 1.1095 0.2795 0.4322
H2A H 0.6095 -0.2205 0.0678
H2M H -0.1095 -0.2795 0.4322
H2C H 0.2205 -0.3905 0.0678
H2O H 0.2795 -1.1095 0.4322
H2B H -0.2205 -0.6095 0.0678
H2N H -0.2795 0.1095 0.4322
C3L C 1.0063(15) 0.2454(17) 0.3601(10)
C3A C 0.5063(15) -0.2546(17) 0.1399(10)
C3M C -0.0063(15) -0.2454(17) 0.3601(10)
C3C C 0.2546(17) -0.4937(15) 0.1399(10)
C3O C 0.2454(17) -1.0063(15) 0.3601(10)
C3B C -0.2546(17) -0.5063(15) 0.1399(10)
C3N C -0.2454(17) 0.0063(15) 0.3601(10)
H3L H 1.0375 0.1860 0.3387
H3A H 0.5375 -0.3140 0.1613
H3M H -0.0375 -0.1860 0.3387
H3C H 0.3140 -0.4625 0.1613
H3O H 0.1860 -1.0375 0.3387
H3B H -0.3140 -0.5375 0.1613
H3N H -0.1860 0.0375 0.3387
C4L C 0.8274(10) 0.2753(11) 0.2963(6)
C4A C 0.3274(10) -0.2247(11) 0.2037(6)
C4M C 0.1726(10) -0.2753(11) 0.2963(6)
C4C C 0.2247(11) -0.6726(10) 0.2037(6)
C4O C 0.2753(11) -0.8274(10) 0.2963(6)
C4B C -0.2247(11) -0.3274(10) 0.2037(6)
C4N C -0.2753(11) -0.1726(10) 0.2963(6)
C5L C 0.7183(10) 0.2982(14) 0.3056(7)
C5A C 0.2183(10) -0.2018(14) 0.1944(7)
C5M C 0.2817(10) -0.2982(14) 0.3056(7)
C5C C 0.2018(14) -0.7817(10) 0.1944(7)
C5O C 0.2982(14) -0.7183(10) 0.3056(7)
C5B C -0.2018(14) -0.2183(10) 0.1944(7)
C5N C -0.2982(14) -0.2817(10) 0.3056(7)
H4L H 0.6971 0.3317 0.3437
H4A H 0.1971 -0.1683 0.1563
H4M H 0.3029 -0.3317 0.3437
H4C H 0.1683 -0.8029 0.1563
H4O H 0.3317 -0.6971 0.3437
H4B H -0.1683 -0.1971 0.1563
H4N H -0.3317 -0.3029 0.3437
C6L C 0.8600(11) 0.2258(14) 0.2383(7)
C6A C 0.3600(11) -0.2742(14) 0.2617(7)
C6M C 0.1400(11) -0.2258(14) 0.2383(7)
C6C C 0.2742(14) -0.6400(11) 0.2617(7)
C6O C 0.2258(14) -0.8600(11) 0.2383(7)
C6B C -0.2742(14) -0.3600(11) 0.2617(7)
C6N C -0.2258(14) -0.1400(11) 0.2383(7)
H5L H 0.9336 0.2100 0.2304
H5A H 0.4336 -0.2900 0.2696
H5M H 0.0664 -0.2100 0.2304
H5C H 0.2900 -0.5664 0.2696
H5O H 0.2100 -0.9336 0.2304
H5B H -0.2900 -0.4336 0.2696
H5N H -0.2100 -0.0664 0.2304
N1L N 0.9797(8) 0.3822(9) 0.4276(5)
N1A N 0.4797(8) -0.1178(9) 0.0724(5)
N1M N 0.0203(8) -0.3822(9) 0.4276(5)
N1H N 0.4797(8) -0.1178(9) -0.0724(5)
N1I N 0.5203(8) 0.1178(9) -0.0724(5)
N1C N 0.1178(9) -0.5203(8) 0.0724(5)
N1O N 0.3822(9) -0.9797(8) 0.4276(5)
N1B N -0.1178(9) -0.4797(8) 0.0724(5)
N1N N -0.3822(9) -0.0203(8) 0.4276(5)
N1K N -0.1178(9) -0.4797(8) -0.0724(5)
N1J N 0.1178(9) -0.5203(8) -0.0724(5)
N2L N 0.9046(8) 0.3012(10) 0.3458(5)
N2A N 0.4046(8) -0.1988(10) 0.1542(5)
N2M N 0.0954(8) -0.3012(10) 0.3458(5)
N2C N 0.1988(10) -0.5954(8) 0.1542(5)
N2O N 0.3012(10) -0.9046(8) 0.3458(5)
N2B N -0.1988(10) -0.4046(8) 0.1542(5)
N2N N -0.3012(10) -0.0954(8) 0.3458(5)
O1A O 0.6687(10) -0.0316(10) 0.0000
O1C O 0.0316(10) -0.3313(10) 0.0000
O1B O -0.0316(10) -0.6687(10) 0.0000
O1B_2 O -0.0316(10) 0.3313(10) 0.0000
O1A_2 O -0.3313(10) -0.0316(10) 0.0000
O2C O 0.1778(11) -0.1559(14) 0.0000
O2A O -0.1559(14) -0.1778(11) 0.0000
O2B O -0.1778(11) 0.1559(14) 0.0000
O4I O 0.1566(7) 0.0118(7) 0.0917(5)
O4A O -0.1566(7) -0.0118(7) -0.0917(5)
O4B O -0.0118(7) 0.1566(7) -0.0917(5)
O4C O 0.0118(7) -0.1566(7) -0.0917(5)
O4J O 0.0118(7) -0.1566(7) 0.0917(5)
O4K O -0.0118(7) 0.1566(7) 0.0917(5)
O4H O -0.1566(7) -0.0118(7) 0.0917(5)
O5H O 0.0000 0.0000 0.1892(7)
loop_
_geom_bond_atom_site_label_1
_geom_bond_atom_site_label_2
_geom_bond_site_symmetry_1
_geom_bond_site_symmetry_2
Ni1 N1 1_555 1_555
Mo1 O1 1_555 1_555
Mo2 O3 1_555 1_555
C1 H1 1_555 1_555
C2 H2 1_555 1_555
C3 C2 1_555 1_555
H3 C3 1_555 1_555
C4 C5 1_555 1_555
C5 H4 1_555 1_555
C6 C4 1_555 1_555
H5 C6 1_555 1_555
N1 C1 1_555 1_555
N2 C1 1_555 1_555
O1 Ni1 1_555 1_555
O2 Mo1 1_555 1_555
O3 Mo1 1_555 1_555
O4 Mo1 1_555 1_555
O5 Mo2 1_555 1_555
Ni1D N1L 1_555 1_555
Ni1D_2 N1M 1_555 1_555
Ni1B N1C 1_555 1_555
Ni1F N1O 1_555 1_555
Ni1F_2 N1N 1_555 1_555
Ni1B_2 O1B_2 1_555 1_555
Ni1_2 O1A_2 1_555 1_555
Mo1C O3 1_555 1_555
Mo1B O2 1_555 1_555
Mo1A O3 1_555 1_555
Mo2H O3 1_555 1_555
C1L H1L 1_555 1_555
C1A H1A 1_555 1_555
C1M H1M 1_555 1_555
C1C H1C 1_555 1_555
C1O H1O 1_555 1_555
C1B H1B 1_555 1_555
C1N H1N 1_555 1_555
C2L H2L 1_555 1_555
C2A H2A 1_555 1_555
C2M H2M 1_555 1_555
C2C H2C 1_555 1_555
C2O H2O 1_555 1_555
C2B H2B 1_555 1_555
C2N H2N 1_555 1_555
C3L C2L 1_555 1_555
C3A C2A 1_555 1_555
C3M C2M 1_555 1_555
C3C C2C 1_555 1_555
C3O C2O 1_555 1_555
C3B C2B 1_555 1_555
C3N C2N 1_555 1_555
H3L C3L 1_555 1_555
H3A C3A 1_555 1_555
H3M C3M 1_555 1_555
H3C C3C 1_555 1_555
H3O C3O 1_555 1_555
H3B C3B 1_555 1_555
H3N C3N 1_555 1_555
C4L C5L 1_555 1_555
C4A C5A 1_555 1_555
C4M C5M 1_555 1_555
C4C C5C 1_555 1_555
C4O C5O 1_555 1_555
C4B C5B 1_555 1_555
C4N C5N 1_555 1_555
C5L C6 1_555 1_555
C5A H4A 1_555 1_555
C5M H4M 1_555 1_555
C5C H4C 1_555 1_555
C5O H4O 1_555 1_555
C5B H4B 1_555 1_555
C5N H4N 1_555 1_555
H4L C5L 1_555 1_555
C6L C5 1_555 1_555
C6A C4A 1_555 1_555
C6M C4M 1_555 1_555
C6C C4C 1_555 1_555
C6O C4O 1_555 1_555
C6B C4B 1_555 1_555
C6N C4N 1_555 1_555
H5L C6L 1_555 1_555
H5A C6A 1_555 1_555
H5M C6M 1_555 1_555
H5C C6C 1_555 1_555
H5O C6O 1_555 1_555
H5B C6B 1_555 1_555
H5N C6N 1_555 1_555
N1L C1L 1_555 1_555
N1A Ni1 1_555 1_555
N1M C1M 1_555 1_555
N1H Ni1 1_555 1_555
N1I Ni1 1_555 1_555
N1C C1C 1_555 1_555
N1O C1O 1_555 1_555
N1B Ni1B 1_555 1_555
N1N C1N 1_555 1_555
N1K Ni1B 1_555 1_555
N1J Ni1B 1_555 1_555
N2L C1L 1_555 1_555
N2A C1A 1_555 1_555
N2M C1M 1_555 1_555
N2C C1C 1_555 1_555
N2O C1O 1_555 1_555
N2B C1B 1_555 1_555
N2N C1N 1_555 1_555
O1A Ni1 1_555 1_555
O1C Ni1B 1_555 1_555
O1B Ni1B 1_555 1_555
O1B_2 Mo1B 1_555 1_555
O1A_2 Mo1A 1_555 1_555
O2C Mo1 1_555 1_555
O2A Mo1C 1_555 1_555
O2B Mo1B 1_555 1_555
O4I Mo1 1_555 1_555
O4A Mo2 1_555 1_555
O4B Mo2 1_555 1_555
O4C Mo2 1_555 1_555
O4J Mo1C 1_555 1_555
O4K Mo1B 1_555 1_555
O4H Mo1A 1_555 1_555
O5H Mo2H 1_555 1_555
Mo2 O4 1_555 1_555
C2 N1 1_555 1_555
C3 N2 1_555 1_555
C4 N2 1_555 1_555
O3 Mo1B 1_555 1_555
Mo1C O1C 1_555 1_555
Mo1C O2C 1_555 1_555
Mo1C O4C 1_555 1_555
Mo1B O4B 1_555 1_555
Mo1A O2A 1_555 1_555
Mo1A O2B 1_555 1_555
Mo1A O4A 1_555 1_555
Mo2H O4I 1_555 1_555
Mo2H O4J 1_555 1_555
Mo2H O4K 1_555 1_555
Mo2H O4H 1_555 1_555
C1A N1A 1_555 1_555
C1B N1B 1_555 1_555
C2L N1L 1_555 1_555
C2A N1A 1_555 1_555
C2M N1M 1_555 1_555
C2C N1C 1_555 1_555
C2O N1O 1_555 1_555
C2B N1B 1_555 1_555
C2N N1N 1_555 1_555
C3L N2L 1_555 1_555
C3A N2A 1_555 1_555
C3M N2M 1_555 1_555
C3C N2C 1_555 1_555
C3O N2O 1_555 1_555
C3B N2B 1_555 1_555
C3N N2N 1_555 1_555
C4L C6L 1_555 1_555
C4L N2L 1_555 1_555
C4A N2A 1_555 1_555
C4M N2M 1_555 1_555
C4C N2C 1_555 1_555
C4O N2O 1_555 1_555
C4B N2B 1_555 1_555
C4N N2N 1_555 1_555
C5A C6M 1_555 1_555
C5M C6A 1_555 1_555
C5C C6O 1_555 1_555
C5O C6C 1_555 1_555
C5B C6N 1_555 1_555
C5N C6B 1_555 1_555

#END
