
#######################################################################
#
#                 Cambridge Crystallographic Data Centre
#                                CCDC 
#
#######################################################################
#
# If this CIF has been generated from an entry in the Cambridge 
# Structural Database, then it will include bibliographic, chemical, 
# crystal, experimental, refinement or atomic coordinate data resulting 
# from the CCDC's data processing and validation procedures.
#
#######################################################################

data_EMAFOO
_symmetry_cell_setting           monoclinic
_symmetry_space_group_name_H-M   'P 21/n'
_symmetry_Int_Tables_number      14
_space_group_name_Hall           '-P 2yn'
loop_
_symmetry_equiv_pos_site_id
_symmetry_equiv_pos_as_xyz
1 x,y,z
2 1/2-x,1/2+y,1/2-z
3 -x,-y,-z
4 1/2+x,1/2-y,1/2+z
_cell_length_a                   10.0339(8)
_cell_length_b                   12.3064(9)
_cell_length_c                   17.8158(14)
_cell_angle_alpha                90
_cell_angle_beta                 103.880(3)
_cell_angle_gamma                90
_cell_volume                     2135.68
loop_
_atom_site_label
_atom_site_type_symbol
_atom_site_fract_x
_atom_site_fract_y
_atom_site_fract_z
Ag1 Ag 0.945351(16) 0.837241(12) 0.082612(8)
N1 N 0.93918(17) 1.04396(13) 0.18712(9)
N2 N 1.00557(17) 0.98759(13) 0.14156(9)
C1 C 1.1294(2) 1.03326(15) 0.15133(11)
C2 C 1.1419(2) 1.11933(16) 0.20352(11)
H1 H 1.2196 1.1649 0.2207
C3 C 1.0190(2) 1.12518(16) 0.22526(11)
C4 C 1.2322(2) 0.98936(17) 0.11062(12)
H2 H 1.2394 0.9104 0.1177
H3 H 1.3219 1.0228 0.1322
H4 H 1.2027 1.0061 0.0553
C5 C 0.9728(2) 1.20211(19) 0.27879(13)
H5 H 0.8850 1.2347 0.2523
H6 H 1.0416 1.2594 0.2945
H7 H 0.9615 1.1626 0.3246
C6 C 0.8033(2) 1.00876(17) 0.19264(11)
H8 H 0.7748 1.0520 0.2330
H9 H 0.8078 0.9316 0.2087
C7 C 0.6197(2) 0.93510(17) 0.08507(11)
H10 H 0.6375 0.8654 0.1081
C8 C 0.6973(2) 1.02097(17) 0.11746(11)
C9 C 0.5113(2) 0.94764(16) 0.01669(11)
C10 C 0.6735(2) 1.12532(17) 0.08226(12)
H11 H 0.7290 1.1851 0.1044
C11 C 0.4287(2) 0.85989(17) -0.01686(12)
H12 H 0.4439 0.7899 0.0060
N3 N 0.85431(17) 0.69244(13) -0.06809(9)
N4 N 0.95116(17) 0.71405(13) -0.00152(9)
C12 C 1.0625(2) 0.65703(16) -0.00674(12)
C13 C 1.0362(2) 0.59866(17) -0.07597(12)
H13 H 1.0979 0.5521 -0.0936
C14 C 0.9028(2) 0.62243(16) -0.11358(12)
C15 C 1.1905(2) 0.66192(18) 0.05646(14)
H14 H 1.2438 0.7262 0.0494
H15 H 1.2453 0.5964 0.0549
H16 H 1.1663 0.6663 0.1065
C16 C 0.8161(2) 0.58152(18) -0.18810(12)
H17 H 0.7407 0.5377 -0.1780
H18 H 0.8722 0.5367 -0.2141
H19 H 0.7784 0.6432 -0.2212
C17 C 0.7143(2) 0.73141(15) -0.07864(11)
H20 H 0.6794 0.7553 -0.1329
H21 H 0.7138 0.7951 -0.0448
C18 C 0.64756(19) 0.59583(15) 0.01064(11)
H22 H 0.7273 0.6165 0.0486
C19 C 0.6194(2) 0.64502(15) -0.06010(11)
C20 C 0.4997(2) 0.61581(17) -0.11687(11)
H23 H 0.4801 0.6500 -0.1661
C21 C 0.56010(19) 0.51462(15) 0.02841(11)
C22 C 0.4124(2) 0.53850(16) -0.10099(11)
H24 H 0.3321 0.5202 -0.1393
O1 O 0.83645(17) 0.70735(17) 0.17452(9)
O2 O 1.05370(15) 0.73457(13) 0.21654(9)
O3 O 0.9615(2) 0.59557(18) 0.25571(15)
N5 N 0.95033(19) 0.67746(14) 0.21566(10)
Ag1B Ag 0.054649(16) 1.162759(12) -0.082612(8)
Ag1B_2 Ag 0.054649(16) 0.162759(12) -0.082612(8)
N1B N 0.06082(17) 0.95604(13) -0.18712(9)
N2B N -0.00557(17) 1.01241(13) -0.14156(9)
C1B C -0.1294(2) 0.96674(15) -0.15133(11)
C2B C -0.1419(2) 0.88067(16) -0.20352(11)
H1B H -0.2196 0.8351 -0.2207
C3B C -0.0190(2) 0.87482(16) -0.22526(11)
C4B C -0.2322(2) 1.01064(17) -0.11062(12)
H2B H -0.2394 1.0896 -0.1177
H3B H -0.3219 0.9772 -0.1322
H4B H -0.2027 0.9939 -0.0553
C5B C 0.0272(2) 0.79789(19) -0.27879(13)
H5B H 0.1150 0.7653 -0.2523
H6B H -0.0416 0.7406 -0.2945
H7B H 0.0385 0.8374 -0.3246
C6B C 0.1967(2) 0.99124(17) -0.19264(11)
H8B H 0.2252 0.9480 -0.2330
H9B H 0.1922 1.0684 -0.2087
C7B C 0.3803(2) 1.06490(17) -0.08507(11)
H10B H 0.3625 1.1346 -0.1081
C8B C 0.3027(2) 0.97903(17) -0.11746(11)
C9B C 0.4887(2) 1.05236(16) -0.01669(11)
C10B C 0.3265(2) 0.87468(17) -0.08226(12)
H11B H 0.2710 0.8149 -0.1044
C11B C 0.5713(2) 1.14011(17) 0.01686(12)
H12B H 0.5561 1.2101 -0.0060
N3B N 0.14569(17) 0.30756(13) 0.06809(9)
N4B N 0.04884(17) 0.28595(13) 0.00152(9)
N4B_2 N 0.04884(17) 1.28595(13) 0.00152(9)
C12B C -0.0625(2) 0.34297(16) 0.00674(12)
C13B C -0.0362(2) 0.40134(17) 0.07597(12)
H13B H -0.0979 0.4479 0.0936
C14B C 0.0972(2) 0.37757(16) 0.11358(12)
C15B C -0.1905(2) 0.33808(18) -0.05646(14)
H14B H -0.2438 0.2738 -0.0494
H15B H -0.2453 0.4036 -0.0549
H16B H -0.1663 0.3337 -0.1065
C16B C 0.1839(2) 0.41848(18) 0.18810(12)
H17B H 0.2593 0.4623 0.1780
H18B H 0.1278 0.4633 0.2141
H19B H 0.2216 0.3568 0.2212
C17B C 0.2857(2) 0.26859(15) 0.07864(11)
H20B H 0.3206 0.2447 0.1329
H21B H 0.2862 0.2049 0.0448
C18B C 0.35244(19) 0.40417(15) -0.01064(11)
H22B H 0.2727 0.3835 -0.0486
C19B C 0.3806(2) 0.35498(15) 0.06010(11)
C20B C 0.5003(2) 0.38419(17) 0.11687(11)
H23B H 0.5199 0.3500 0.1661
C21B C 0.43990(19) 0.48538(15) -0.02841(11)
C22B C 0.5876(2) 0.46150(16) 0.10099(11)
H24B H 0.6679 0.4798 0.1393
O1B O 0.16355(17) 1.29265(17) -0.17452(9)
O2B O -0.05370(15) 1.26543(13) -0.21654(9)
O3B O 0.0385(2) 1.40443(18) -0.25571(15)
N5B N 0.04967(19) 1.32254(14) -0.21566(10)
loop_
_geom_bond_atom_site_label_1
_geom_bond_atom_site_label_2
_geom_bond_site_symmetry_1
_geom_bond_site_symmetry_2
Ag1 N2 1_555 1_555
N1 N2 1_555 1_555
N2 C1 1_555 1_555
C1 C2 1_555 1_555
C2 H1 1_555 1_555
C3 N1 1_555 1_555
C4 C1 1_555 1_555
H2 C4 1_555 1_555
H3 C4 1_555 1_555
H4 C4 1_555 1_555
C5 C3 1_555 1_555
H5 C5 1_555 1_555
H6 C5 1_555 1_555
H7 C5 1_555 1_555
C6 N1 1_555 1_555
H8 C6 1_555 1_555
H9 C6 1_555 1_555
C7 H10 1_555 1_555
C8 C6 1_555 1_555
C9 C7 1_555 1_555
C10 C8 1_555 1_555
H11 C10 1_555 1_555
C11 C9 1_555 1_555
H12 C11 1_555 1_555
N3 N4 1_555 1_555
N4 Ag1 1_555 1_555
C12 N4 1_555 1_555
C13 C12 1_555 1_555
H13 C13 1_555 1_555
C14 N3 1_555 1_555
C15 C12 1_555 1_555
H14 C15 1_555 1_555
H15 C15 1_555 1_555
H16 C15 1_555 1_555
C16 C14 1_555 1_555
H17 C16 1_555 1_555
H18 C16 1_555 1_555
H19 C16 1_555 1_555
C17 N3 1_555 1_555
H20 C17 1_555 1_555
H21 C17 1_555 1_555
C18 H22 1_555 1_555
C19 C17 1_555 1_555
C20 C19 1_555 1_555
H23 C20 1_555 1_555
C21 C18 1_555 1_555
C22 C20 1_555 1_555
H24 C22 1_555 1_555
O1 Ag1 1_555 1_555
O2 Ag1 1_555 1_555
O3 N5 1_555 1_555
N5 O1 1_555 1_555
Ag1B N2B 1_555 1_555
Ag1B_2 N4B 1_555 1_555
N1B N2B 1_555 1_555
N2B C1B 1_555 1_555
C1B C2B 1_555 1_555
C2B H1B 1_555 1_555
C3B N1B 1_555 1_555
C4B C1B 1_555 1_555
H2B C4B 1_555 1_555
H3B C4B 1_555 1_555
H4B C4B 1_555 1_555
C5B C3B 1_555 1_555
H5B C5B 1_555 1_555
H6B C5B 1_555 1_555
H7B C5B 1_555 1_555
C6B N1B 1_555 1_555
H8B C6B 1_555 1_555
H9B C6B 1_555 1_555
C7B H10B 1_555 1_555
C8B C6B 1_555 1_555
C9B C9 1_555 1_555
C10B C11 1_555 1_555
H11B C10B 1_555 1_555
C11B C10 1_555 1_555
H12B C11B 1_555 1_555
N3B N4B 1_555 1_555
N4B C12B 1_555 1_555
N4B_2 Ag1B 1_555 1_555
C12B C13B 1_555 1_555
C13B H13B 1_555 1_555
C14B N3B 1_555 1_555
C15B C12B 1_555 1_555
H14B C15B 1_555 1_555
H15B C15B 1_555 1_555
H16B C15B 1_555 1_555
C16B C14B 1_555 1_555
H17B C16B 1_555 1_555
H18B C16B 1_555 1_555
H19B C16B 1_555 1_555
C17B N3B 1_555 1_555
H20B C17B 1_555 1_555
H21B C17B 1_555 1_555
C18B H22B 1_555 1_555
C19B C17B 1_555 1_555
C20B C19B 1_555 1_555
H23B C20B 1_555 1_555
C21B C21 1_555 1_555
C22B C21 1_555 1_555
H24B C22B 1_555 1_555
O1B Ag1B 1_555 1_555
O2B Ag1B 1_555 1_555
O3B N5B 1_555 1_555
N5B O1B 1_555 1_555
C2 C3 1_555 1_555
C7 C8 1_555 1_555
C13 C14 1_555 1_555
C18 C19 1_555 1_555
C22 C21B 1_555 1_555
O2 N5 1_555 1_555
C2B C3B 1_555 1_555
C7B C8B 1_555 1_555
C7B C9B 1_555 1_555
C8B C10B 1_555 1_555
C9B C11B 1_555 1_555
C13B C14B 1_555 1_555
C18B C19B 1_555 1_555
C18B C21B 1_555 1_555
C20B C22B 1_555 1_555
O2B N5B 1_555 1_555

#END
