
#######################################################################
#
#                 Cambridge Crystallographic Data Centre
#                                CCDC 
#
#######################################################################
#
# If this CIF has been generated from an entry in the Cambridge 
# Structural Database, then it will include bibliographic, chemical, 
# crystal, experimental, refinement or atomic coordinate data resulting 
# from the CCDC's data processing and validation procedures.
#
#######################################################################

data_EMAHOQ
_symmetry_cell_setting           monoclinic
_symmetry_space_group_name_H-M   'P 21/c'
_symmetry_Int_Tables_number      14
_space_group_name_Hall           '-P 2ybc'
loop_
_symmetry_equiv_pos_site_id
_symmetry_equiv_pos_as_xyz
1 x,y,z
2 -x,1/2+y,1/2-z
3 -x,-y,-z
4 x,1/2-y,1/2+z
_cell_length_a                   8.5909(8)
_cell_length_b                   27.272(2)
_cell_length_c                   10.5706(9)
_cell_angle_alpha                90
_cell_angle_beta                 105.897(5)
_cell_angle_gamma                90
_cell_volume                     2381.88
loop_
_atom_site_label
_atom_site_type_symbol
_atom_site_fract_x
_atom_site_fract_y
_atom_site_fract_z
Mn1 Mn 0.80905(4) 0.037293(11) 0.32663(3)
O1 O 0.7338(2) 0.11380(5) 0.32384(16)
O2 O 0.8326(2) 0.09336(5) 0.15895(16)
O3 O 0.21467(18) 0.50090(5) 0.00315(15)
O4 O 0.0497(2) 0.44234(7) -0.0983(2)
O5 O 0.6310(3) 0.32767(8) 0.2995(2)
O6 O 0.4431(4) 0.27313(10) 0.2786(4)
O7 O 1.0062(3) 0.22863(8) -0.0705(3)
O8 O 0.9730(2) 0.30314(7) -0.0234(2)
N1 N 0.5497(2) 0.01927(7) 0.21339(18)
N2 N 0.8120(2) -0.03509(6) 0.22656(19)
N3 N 0.9462(3) 0.25947(8) -0.0153(2)
N4 N 0.5652(4) 0.28885(10) 0.2573(3)
N5 N 0.7118(2) 0.32395(6) 0.0527(2)
H1 H 0.7931 0.3367 0.0283
C1 C 0.7757(3) 0.12399(7) 0.2211(2)
C2 C 0.7561(3) 0.17596(8) 0.1741(2)
C3 C 0.6564(3) 0.20811(9) 0.2179(3)
H2 H 0.5937 0.1963 0.2729
C4 C 0.6474(3) 0.25672(9) 0.1827(3)
C5 C 0.7317(3) 0.27728(8) 0.0979(2)
C6 C 0.8383(3) 0.24355(8) 0.0614(2)
C7 C 0.8473(3) 0.19466(8) 0.0971(2)
H3 H 0.9181 0.1735 0.0677
C8 C 0.5747(3) 0.35475(7) 0.0401(2)
C9 C 0.4184(3) 0.33822(8) -0.0100(3)
H4 H 0.3978 0.3044 -0.0291
C10 C 0.2907(3) 0.37145(8) -0.0326(3)
H5 H 0.1828 0.3602 -0.0683
C11 C 0.3195(2) 0.42087(7) -0.0035(2)
C12 C 0.4769(2) 0.43630(7) 0.0488(2)
H6 H 0.4979 0.4699 0.0708
C13 C 0.6044(3) 0.40372(7) 0.0697(2)
H7 H 0.7123 0.4150 0.1045
C14 C 0.1837(3) 0.45737(7) -0.0342(2)
C15 C 0.4223(3) 0.04803(10) 0.2089(3)
H8 H 0.4408 0.0795 0.2485
C16 C 0.2643(3) 0.03386(12) 0.1490(3)
H9 H 0.1756 0.0548 0.1483
C17 C 0.2408(3) -0.01155(13) 0.0905(3)
H10 H 0.1343 -0.0221 0.0467
C18 C 0.3694(3) -0.04170(11) 0.0950(3)
H11 H 0.3529 -0.0732 0.0553
C19 C 0.5237(3) -0.02561(9) 0.1579(2)
C20 C 0.6692(3) -0.05632(8) 0.1696(2)
C21 C 0.6607(4) -0.10465(10) 0.1267(3)
H12 H 0.5589 -0.1195 0.0875
C22 C 0.8015(4) -0.13063(11) 0.1417(4)
H13 H 0.7973 -0.1637 0.1129
C23 C 0.9469(4) -0.10912(11) 0.1976(4)
H14 H 1.0451 -0.1266 0.2073
C24 C 0.9476(3) -0.06139(10) 0.2397(3)
H15 H 1.0488 -0.0463 0.2800
Mn1A Mn 0.19095(4) 0.537293(11) 0.17337(3)
Mn1C Mn -0.19095(4) 0.462707(11) -0.17337(3)
O3A O 0.78533(18) 0.00090(5) 0.49685(15)
O4C O 1.0497(2) 0.05766(7) 0.4017(2)
loop_
_geom_bond_atom_site_label_1
_geom_bond_atom_site_label_2
_geom_bond_site_symmetry_1
_geom_bond_site_symmetry_2
Mn1 O1 1_555 1_555
O1 C1 1_555 1_555
O2 Mn1 1_555 1_555
O3 C14 1_555 1_555
O4 C14 1_555 1_555
O5 N4 1_555 1_555
O6 N4 1_555 1_555
O7 N3 1_555 1_555
O8 N3 1_555 1_555
N1 Mn1 1_555 1_555
N2 Mn1 1_555 1_555
N3 C6 1_555 1_555
N4 C4 1_555 1_555
N5 H1 1_555 1_555
C1 O2 1_555 1_555
C2 C1 1_555 1_555
C3 C2 1_555 1_555
H2 C3 1_555 1_555
C4 C3 1_555 1_555
C5 N5 1_555 1_555
C6 C5 1_555 1_555
C7 C2 1_555 1_555
H3 C7 1_555 1_555
C8 N5 1_555 1_555
C9 C8 1_555 1_555
H4 C9 1_555 1_555
C10 C9 1_555 1_555
H5 C10 1_555 1_555
C11 C10 1_555 1_555
C12 C11 1_555 1_555
H6 C12 1_555 1_555
C13 C8 1_555 1_555
H7 C13 1_555 1_555
C14 C11 1_555 1_555
C15 N1 1_555 1_555
H8 C15 1_555 1_555
C16 C15 1_555 1_555
H9 C16 1_555 1_555
C17 C16 1_555 1_555
H10 C17 1_555 1_555
C18 C17 1_555 1_555
H11 C18 1_555 1_555
C19 N1 1_555 1_555
C20 N2 1_555 1_555
C21 C20 1_555 1_555
H12 C21 1_555 1_555
C22 C21 1_555 1_555
H13 C22 1_555 1_555
C23 C22 1_555 1_555
H14 C23 1_555 1_555
C24 N2 1_555 1_555
H15 C24 1_555 1_555
Mn1A O3 1_555 1_555
Mn1C O4 1_555 1_555
O3A Mn1 1_555 1_555
O4C Mn1 1_555 1_555
C4 C5 1_555 1_555
C6 C7 1_555 1_555
C12 C13 1_555 1_555
C18 C19 1_555 1_555
C19 C20 1_555 1_555
C23 C24 1_555 1_555

#END
