
#######################################################################
#
#                 Cambridge Crystallographic Data Centre
#                                CCDC 
#
#######################################################################
#
# If this CIF has been generated from an entry in the Cambridge 
# Structural Database, then it will include bibliographic, chemical, 
# crystal, experimental, refinement or atomic coordinate data resulting 
# from the CCDC's data processing and validation procedures.
#
#######################################################################

data_EMAJIL
_symmetry_cell_setting           triclinic
_symmetry_space_group_name_H-M   'P -1'
_symmetry_Int_Tables_number      2
_space_group_name_Hall           '-P 1'
loop_
_symmetry_equiv_pos_site_id
_symmetry_equiv_pos_as_xyz
1 x,y,z
2 -x,-y,-z
_cell_length_a                   8.725(3)
_cell_length_b                   9.170(3)
_cell_length_c                   9.901(3)
_cell_angle_alpha                98.101(4)
_cell_angle_beta                 97.068(4)
_cell_angle_gamma                102.403(4)
_cell_volume                     756.263
loop_
_atom_site_label
_atom_site_type_symbol
_atom_site_fract_x
_atom_site_fract_y
_atom_site_fract_z
In1 In 0.27996(4) 0.19088(4) 0.91709(3)
O1 O -0.0021(5) 0.3860(4) 0.6524(4)
O2 O 0.1140(5) 0.1783(4) 0.4953(3)
O3 O 0.1193(4) 0.3279(4) 0.8421(4)
O4 O 0.2289(4) 0.1245(4) 0.6881(3)
O5 O 0.4538(4) 0.3879(4) 0.8386(4)
O6 O 0.6115(4) 0.6207(4) 0.9080(3)
O7 O 0.3737(4) 0.0736(4) 1.0968(4)
O8 O 0.5229(4) -0.0891(4) 1.1426(3)
O9 O 0.0962(4) 0.1879(4) 1.0657(4)
O10 O -0.1183(4) 0.0436(4) 1.1222(3)
C1 C 0.0794(6) 0.3129(5) 0.7115(5)
C2 C 0.1455(6) 0.1947(6) 0.6235(5)
C3 C 0.5200(6) 0.5027(5) 0.9276(5)
C4 C 0.4693(6) -0.0044(5) 1.0688(5)
C5 C -0.0053(6) 0.0663(5) 1.0542(5)
C3A C 0.4800(6) 0.4973(5) 1.0724(5)
O5A O 0.5462(4) 0.6121(4) 1.1614(4)
O6A O 0.3885(4) 0.3793(4) 1.0920(3)
C4A C 0.5307(6) 0.0044(5) 0.9312(5)
O7A O 0.6263(4) -0.0736(4) 0.9032(4)
O8A O 0.4771(4) 0.0891(4) 0.8574(3)
C5A C 0.0053(6) -0.0663(5) 0.9458(5)
O9A O -0.0962(4) -0.1879(4) 0.9343(4)
O10A O 0.1183(4) -0.0436(4) 0.8778(3)
In1A In 0.72004(4) 0.80912(4) 1.08291(3)
O1A O 1.0021(5) 0.6140(4) 1.3476(4)
O2A O 0.8860(5) 0.8217(4) 1.5047(3)
O3A O 0.8807(4) 0.6721(4) 1.1579(4)
O4A O 0.7711(4) 0.8755(4) 1.3119(3)
C1A C 0.9206(6) 0.6871(5) 1.2885(5)
C2A C 0.8545(6) 0.8053(6) 1.3765(5)
In1A_2 In 0.72004(4) -0.19088(4) 1.08291(3)
In1A_3 In -0.27996(4) -0.19088(4) 1.08291(3)
O7A_2 O 0.6263(4) 0.9264(4) 0.9032(4)
O8_2 O 0.5229(4) 0.9109(4) 1.1426(3)
O9A_2 O 0.9038(4) 0.8121(4) 0.9343(4)
O10_2 O 0.8817(4) 1.0436(4) 1.1222(3)
O11 O 0.8138(8) 0.3625(7) 0.0103(8)
H17 H 0.847(13) 0.450(4) 0.046(11)
H18 H 0.901(7) 0.350(16) 0.009(15)
O12 O 0.2739(7) 0.4026(6) 0.3511(6)
H13 H 0.234(7) 0.334(7) 0.385(6)
H14 H 0.295(11) 0.363(10) 0.279(10)
O13 O 0.2016(6) -0.0348(6) 0.3041(6)
H15 H 0.192(7) 0.034(6) 0.359(6)
H16 H 0.250(10) 0.012(9) 0.256(8)
C6 C 0.4461(7) 0.7684(7) 0.4647(6)
H1 H 0.5287 0.8558 0.4589
H2 H 0.4966 0.6875 0.4841
C7 C 0.3587(8) 0.8083(7) 0.5799(6)
H3 H 0.2894 0.8717 0.5509
H4 H 0.4349 0.8672 0.6586
C8 C 0.2600(7) 0.6719(7) 0.6247(6)
H5 H 0.2351 0.5864 0.5493
H6 H 0.3216 0.6453 0.7020
N1 N 0.3375(6) 0.7190(5) 0.3301(5)
H7 H 0.2616 0.6387 0.3353
H8 H 0.3923 0.6945 0.2638
H9 H 0.2935 0.7942 0.3108
N2 N 0.1110(6) 0.7009(5) 0.6656(5)
H10 H 0.1334 0.7757 0.7380
H11 H 0.0544 0.6174 0.6880
H12 H 0.0550 0.7271 0.5955
loop_
_geom_bond_atom_site_label_1
_geom_bond_atom_site_label_2
_geom_bond_site_symmetry_1
_geom_bond_site_symmetry_2
In1 O3 1_555 1_555
O1 C1 1_555 1_555
O2 C2 1_555 1_555
O3 C1 1_555 1_555
O4 In1 1_555 1_555
O5 In1 1_555 1_555
O6 C3 1_555 1_555
O7 In1 1_555 1_555
O8 C4 1_555 1_555
O9 In1 1_555 1_555
O10 C5 1_555 1_555
O11 H17 1_555 1_555
O12 H13 1_555 1_555
O13 H15 1_555 1_555
C1 C2 1_555 1_555
C2 O4 1_555 1_555
C3 O5 1_555 1_555
C4 O7 1_555 1_555
C5 O9 1_555 1_555
C6 H1 1_555 1_555
H2 C6 1_555 1_555
C7 C6 1_555 1_555
H3 C7 1_555 1_555
H4 C7 1_555 1_555
C8 C7 1_555 1_555
H5 C8 1_555 1_555
H6 C8 1_555 1_555
N1 C6 1_555 1_555
H7 N1 1_555 1_555
H8 N1 1_555 1_555
H9 N1 1_555 1_555
N2 C8 1_555 1_555
H10 N2 1_555 1_555
H11 N2 1_555 1_555
H12 N2 1_555 1_555
H14 O12 1_555 1_555
H16 O13 1_555 1_555
H18 O11 1_555 1_555
C3A C3 1_555 1_555
O5A C3A 1_555 1_555
O6A In1 1_555 1_555
C4A C4 1_555 1_555
O7A C4A 1_555 1_555
O8A In1 1_555 1_555
C5A C5 1_555 1_555
O9A C5A 1_555 1_555
O10A In1 1_555 1_555
In1A O6 1_555 1_555
O1A C1A 1_555 1_555
O2A C2A 1_555 1_555
O3A In1A 1_555 1_555
O4A In1A 1_555 1_555
C1A O3A 1_555 1_555
C2A O4A 1_555 1_555
In1A_2 O8 1_555 1_555
In1A_3 O10 1_555 1_555
O7A_2 In1A 1_555 1_555
O8_2 In1A 1_555 1_555
O9A_2 In1A 1_555 1_555
O10_2 In1A 1_555 1_555
C3A O6A 1_555 1_555
O5A In1A 1_555 1_555
C4A O8A 1_555 1_555
O7A In1A_2 1_555 1_555
C5A O10A 1_555 1_555
O9A In1A_3 1_555 1_555
C1A C2A 1_555 1_555

#END
