
#######################################################################
#
#                 Cambridge Crystallographic Data Centre
#                                CCDC 
#
#######################################################################
#
# If this CIF has been generated from an entry in the Cambridge 
# Structural Database, then it will include bibliographic, chemical, 
# crystal, experimental, refinement or atomic coordinate data resulting 
# from the CCDC's data processing and validation procedures.
#
#######################################################################

data_EMAJAE
_symmetry_cell_setting           orthorhombic
_symmetry_space_group_name_H-M   'P c a 21'
_symmetry_Int_Tables_number      29
_space_group_name_Hall           'P 2c -2ac'
loop_
_symmetry_equiv_pos_site_id
_symmetry_equiv_pos_as_xyz
1 x,y,z
2 -x,-y,1/2+z
3 1/2-x,y,1/2+z
4 1/2+x,-y,z
_cell_length_a                   24.820(2)
_cell_length_b                   13.4888(9)
_cell_length_c                   7.3141(5)
_cell_angle_alpha                90
_cell_angle_beta                 90
_cell_angle_gamma                90
_cell_volume                     2448.7
loop_
_atom_site_label
_atom_site_type_symbol
_atom_site_fract_x
_atom_site_fract_y
_atom_site_fract_z
Mn1 Mn 0.695457(16) 0.91871(3) 0.73789(9)
O1 O 0.68461(9) 0.84981(17) 1.0128(4)
O2 O 0.75779(10) 0.79481(16) 1.1614(4)
O3 O 0.75951(13) 0.4779(2) 1.4537(5)
O4 O 0.68425(15) 0.4406(3) 1.5837(5)
O5 O 0.52335(11) 0.6481(2) 1.0448(6)
O6 O 0.51876(11) 0.5139(2) 1.1956(7)
O7 O 0.68442(9) -0.01897(16) 1.4613(4)
O8 O 0.75369(10) 0.03711(16) 1.2981(4)
N1 N 0.60622(13) 0.4242(2) 1.3038(5)
N2 N 0.71058(15) 0.4811(2) 1.4645(5)
N3 N 0.54482(12) 0.5833(2) 1.1331(5)
N4 N 0.62280(11) 1.0131(2) 0.8179(4)
N5 N 0.61922(11) 0.8290(2) 0.6789(4)
C1 C 0.68053(13) 0.6954(2) 1.1678(5)
C2 C 0.70678(13) 0.6263(2) 1.2737(5)
H1 H 0.7430 0.6379 1.3096
C3 C 0.68137(14) 0.5403(2) 1.3286(5)
C4 C 0.62886(12) 0.5146(2) 1.2717(5)
C5 C 0.60182(12) 0.5913(2) 1.1780(5)
C6 C 0.62691(12) 0.6790(2) 1.1245(5)
H2 H 0.6072 0.7276 1.0583
C7 C 0.70960(13) 0.7885(2) 1.1081(5)
C8 C 0.63278(13) 0.3311(2) 1.3162(5)
C9 C 0.68194(13) 0.3128(2) 1.2300(6)
H3 H 0.6986 0.3631 1.1589
C10 C 0.70618(13) 0.2213(2) 1.2486(6)
H4 H 0.7404 0.2097 1.1944
C11 C 0.68094(13) 0.1455(2) 1.3463(5)
C12 C 0.63057(13) 0.1637(2) 1.4212(5)
H5 H 0.6121 0.1117 1.4825
C13 C 0.60683(13) 0.2557(2) 1.4082(6)
H6 H 0.5726 0.2672 1.4627
C14 C 0.70796(13) 0.0467(2) 1.3719(5)
C15 C 0.62704(16) 1.1075(3) 0.8694(6)
H7 H 0.6611 1.1311 0.9095
C16 C 0.5838(2) 1.1727(3) 0.8670(7)
H8 H 0.5879 1.2393 0.9070
C17 C 0.53504(18) 1.1384(3) 0.8050(7)
H9 H 0.5050 1.1818 0.7984
C18 C 0.52984(14) 1.0412(3) 0.7528(7)
H10 H 0.4962 1.0167 0.7107
C19 C 0.57435(13) 0.9791(3) 0.7621(5)
C20 C 0.57179(13) 0.8732(2) 0.7116(5)
C21 C 0.52333(15) 0.8215(3) 0.6987(6)
H11 H 0.4900 0.8538 0.7215
C22 C 0.52474(18) 0.7231(4) 0.6524(7)
H12 H 0.4922 0.6865 0.6422
C23 C 0.57308(19) 0.6774(3) 0.6209(6)
H13 H 0.5747 0.6091 0.5903
C24 C 0.61887(17) 0.7330(3) 0.6348(6)
H14 H 0.6524 0.7015 0.6117
H15 H 0.5718(15) 0.426(2) 1.305(5)
Mn1B Mn 0.804543(16) 0.91871(3) 1.23789(9)
Mn1_2 Mn 0.695457(16) -0.08129(3) 1.73789(9)
Mn1B_2 Mn 0.804543(16) -0.08129(3) 1.23789(9)
O2B O 0.74221(10) 0.79481(16) 0.6614(4)
O7_2 O 0.68442(9) 0.98103(16) 0.4613(4)
O8B O 0.74631(10) 1.03711(16) 0.7981(4)
O9 O 0.9080(5) 0.4315(8) 1.3586(19)
O10 O 0.59468(10) 0.9189(2) 0.2362(6)
loop_
_geom_bond_atom_site_label_1
_geom_bond_atom_site_label_2
_geom_bond_site_symmetry_1
_geom_bond_site_symmetry_2
Mn1 O1 1_555 1_555
O1 C7 1_555 1_555
O2 C7 1_555 1_555
O3 N2 1_555 1_555
O4 N2 1_555 1_555
O5 N3 1_555 1_555
O6 N3 1_555 1_555
O7 C14 1_555 1_555
O8 C14 1_555 1_555
N1 C4 1_555 1_555
N2 C3 1_555 1_555
N3 C5 1_555 1_555
N4 Mn1 1_555 1_555
N5 Mn1 1_555 1_555
C1 C2 1_555 1_555
C2 H1 1_555 1_555
C3 C2 1_555 1_555
C4 C3 1_555 1_555
C5 C4 1_555 1_555
C6 C1 1_555 1_555
H2 C6 1_555 1_555
C7 C1 1_555 1_555
C8 N1 1_555 1_555
C9 C8 1_555 1_555
H3 C9 1_555 1_555
C10 C9 1_555 1_555
H4 C10 1_555 1_555
C11 C10 1_555 1_555
C12 C11 1_555 1_555
H5 C12 1_555 1_555
C13 C8 1_555 1_555
H6 C13 1_555 1_555
C14 C11 1_555 1_555
C15 N4 1_555 1_555
H7 C15 1_555 1_555
C16 C15 1_555 1_555
H8 C16 1_555 1_555
C17 C16 1_555 1_555
H9 C17 1_555 1_555
C18 C17 1_555 1_555
H10 C18 1_555 1_555
C19 N4 1_555 1_555
C20 N5 1_555 1_555
C21 C20 1_555 1_555
H11 C21 1_555 1_555
C22 C21 1_555 1_555
H12 C22 1_555 1_555
C23 C22 1_555 1_555
H13 C23 1_555 1_555
C24 N5 1_555 1_555
H14 C24 1_555 1_555
H15 N1 1_555 1_555
Mn1B O2 1_555 1_555
Mn1_2 O7 1_555 1_555
Mn1B_2 O8 1_555 1_555
O2B Mn1 1_555 1_555
O7_2 Mn1 1_555 1_555
O8B Mn1 1_555 1_555
C5 C6 1_555 1_555
C12 C13 1_555 1_555
C18 C19 1_555 1_555
C19 C20 1_555 1_555
C23 C24 1_555 1_555

#END
