
#######################################################################
#
#                 Cambridge Crystallographic Data Centre
#                                CCDC 
#
#######################################################################
#
# If this CIF has been generated from an entry in the Cambridge 
# Structural Database, then it will include bibliographic, chemical, 
# crystal, experimental, refinement or atomic coordinate data resulting 
# from the CCDC's data processing and validation procedures.
#
#######################################################################

data_EMAJEI
_symmetry_cell_setting           monoclinic
_symmetry_space_group_name_H-M   'P 21/c'
_symmetry_Int_Tables_number      14
_space_group_name_Hall           '-P 2ybc'
loop_
_symmetry_equiv_pos_site_id
_symmetry_equiv_pos_as_xyz
1 x,y,z
2 -x,1/2+y,1/2-z
3 -x,-y,-z
4 x,1/2-y,1/2+z
_cell_length_a                   33.857(13)
_cell_length_b                   9.373(3)
_cell_length_c                   29.727(11)
_cell_angle_alpha                90
_cell_angle_beta                 112.200(7)
_cell_angle_gamma                90
_cell_volume                     8734.31
loop_
_atom_site_label
_atom_site_type_symbol
_atom_site_fract_x
_atom_site_fract_y
_atom_site_fract_z
Mn1 Mn 0.395539(16) 0.37296(5) 0.454527(16)
Mn2 Mn 0.5000 0.5000 0.5000
Mn3 Mn 0.250239(19) 0.88868(7) 0.003152(19)
Mn4 Mn 0.0000 1.5000 -0.5000
Mn5 Mn 0.104070(16) 1.63335(5) -0.454220(16)
O1 O 0.38794(8) 0.4052(3) 0.53093(8)
O2 O 0.45106(7) 0.4074(3) 0.52587(7)
O3 O 0.40489(8) 0.1412(3) 0.88587(9)
O4 O 0.47126(9) 0.1473(3) 0.94055(8)
O5 O 0.19461(10) 1.0172(4) -0.00065(11)
O6 O 0.43847(10) 0.0008(3) 0.70198(9)
O7 O 0.58499(10) 0.2169(5) 0.88984(10)
O8 O 0.58256(8) 0.1842(3) 0.81802(9)
O9 O 0.31393(11) 0.9332(4) -0.00044(11)
O10 O 0.45436(8) 0.6544(3) 0.45678(9)
O11 O 0.27699(10) 0.9958(4) 0.07436(9)
O12 O 0.23394(10) 1.1744(3) 0.07780(10)
O13 O 0.36966(13) 0.7928(4) 0.24192(13)
O14 O 0.41447(10) 0.9697(4) 0.26574(10)
O15 O 0.32386(10) 1.3982(3) 0.28805(10)
O16 O 0.26239(11) 1.4138(4) 0.23084(13)
O17 O 0.22863(9) 0.9337(3) -0.07421(9)
O18 O 0.27311(10) 0.7755(4) -0.08558(10)
O19 O 0.04830(7) 1.3594(3) -0.45276(8)
O20 O 0.11674(8) 1.4211(3) -0.43337(9)
O21 O 0.17118(10) 0.5898(3) -0.29768(10)
O22 O 0.23538(11) 0.5677(4) -0.24591(13)
O23 O 0.09051(10) 1.0313(4) -0.26208(10)
O24 O 0.13928(13) 1.1946(4) -0.23555(13)
O25 O -0.04868(7) 1.4017(3) -0.47586(7)
O26 O -0.10949(8) 1.4247(4) -0.46721(9)
O27 O -0.02108(9) 1.1563(3) -0.05721(8)
O28 O -0.08863(8) 1.1531(3) -0.10972(8)
O29 O 0.08805(12) 1.2600(6) -0.11198(11)
O30 O 0.08662(9) 1.2031(4) -0.18090(9)
O31 O -0.05865(11) 1.0167(3) -0.29715(9)
O32 O -0.11278(10) 1.1022(5) -0.28460(11)
O33 O 0.38619(8) 0.5903(3) 0.43862(9)
O34 O 0.38376(10) 0.0892(4) 0.71236(10)
N1 N 0.50721(10) 0.1993(4) 0.74515(9)
H1 H 0.5347(14) 0.196(5) 0.7553(15)
N2 N 0.56503(10) 0.1967(4) 0.84687(10)
N3 N 0.42226(10) 0.0681(4) 0.72544(10)
N4 N 0.40003(10) 0.1407(3) 0.47534(10)
N5 N 0.33087(9) 0.2815(3) 0.41689(10)
N6 N 0.35891(10) 1.1381(3) 0.30271(10)
H2 H 0.3582(11) 1.217(4) 0.3136(13)
N7 N 0.29687(11) 1.3556(3) 0.24990(12)
N8 N 0.37828(13) 0.9193(4) 0.24622(12)
N9 N 0.28389(10) 0.6855(4) 0.04126(11)
N10 N 0.20656(11) 0.6882(4) -0.02705(12)
N11 N 0.12783(12) 1.0707(4) -0.24219(11)
N12 N 0.20086(11) 0.6275(4) -0.26070(11)
N13 N 0.14066(9) 0.8580(3) -0.30568(10)
H3 H 0.1330 0.7756 -0.3206
N14 N 0.09839(11) 1.8641(3) -0.47680(10)
N15 N 0.16818(9) 1.7308(3) -0.41773(10)
N16 N 0.01110(10) 1.2110(4) -0.25448(10)
H4 H 0.0402(12) 1.209(4) -0.2429(12)
N17 N -0.07419(11) 1.0826(4) -0.27277(10)
N18 N 0.06876(11) 1.2239(4) -0.15328(10)
C1 C 0.42742(10) 0.3950(3) 0.55045(11)
C2 C 0.44805(11) 0.3531(3) 0.60244(10)
C3 C 0.42626(11) 0.3595(4) 0.63390(12)
H5 H 0.3980 0.3958 0.6224
C4 C 0.44523(12) 0.3137(4) 0.68181(12)
H6 H 0.4308 0.3245 0.7035
C5 C 0.50777(11) 0.2488(4) 0.66686(12)
H7 H 0.5358 0.2105 0.6780
C6 C 0.48557(11) 0.2517(4) 0.69771(10)
C7 C 0.48954(11) 0.3010(4) 0.62020(11)
H8 H 0.5055 0.3014 0.5999
C8 C 0.49246(11) 0.1675(4) 0.78064(11)
C9 C 0.45041(11) 0.1243(4) 0.77288(10)
C10 C 0.43448(11) 0.1167(4) 0.80910(11)
H9 H 0.4053 0.0938 0.8012
C11 C 0.46086(11) 0.1423(4) 0.85713(11)
C12 C 0.50354(11) 0.1676(4) 0.86735(11)
H10 H 0.5226 0.1773 0.9002
C13 C 0.51886(11) 0.1790(4) 0.83064(11)
C14 C 0.43487(18) -0.0569(5) 0.52448(15)
H11 H 0.4605 -0.0994 0.5460
C15 C 0.43513(14) 0.0771(4) 0.50603(14)
H12 H 0.4615 0.1268 0.5155
C16 C 0.44462(12) 0.1420(3) 0.89718(11)
C17 C 0.3968(2) -0.1282(5) 0.51124(15)
H13 H 0.3958 -0.2200 0.5243
C18 C 0.35975(17) -0.0663(4) 0.47878(15)
H14 H 0.3332 -0.1151 0.4688
C19 C 0.36265(13) 0.0695(4) 0.46132(12)
C20 C 0.32541(12) 0.1425(4) 0.42469(13)
C21 C 0.28724(14) 0.0713(5) 0.39839(17)
H15 H 0.2833 -0.0255 0.4051
C22 C 0.25599(15) 0.1437(6) 0.3631(2)
H16 H 0.2299 0.0970 0.3449
C23 C 0.26166(14) 0.2842(6) 0.35324(18)
H17 H 0.2403 0.3344 0.3278
C24 C 0.29949(13) 0.3497(5) 0.38157(15)
H18 H 0.3034 0.4473 0.3757
C25 C 0.41456(11) 0.6694(4) 0.43415(11)
C26 C 0.40013(11) 0.7914(4) 0.39877(11)
C27 C 0.42771(11) 0.9013(4) 0.40018(11)
H19 H 0.4561 0.8995 0.4235
C28 C 0.41436(11) 1.0138(4) 0.36796(11)
H20 H 0.4336 1.0889 0.3691
C29 C 0.37294(11) 1.0171(4) 0.33397(11)
C30 C 0.34516(11) 0.9077(4) 0.33206(12)
H21 H 0.3169 0.9097 0.3085
C31 C 0.35827(11) 0.7951(4) 0.36431(12)
H22 H 0.3389 0.7204 0.3631
C32 C 0.33721(11) 1.1312(4) 0.25337(11)
C33 C 0.30637(11) 1.2323(4) 0.22620(12)
C34 C 0.28327(12) 1.2192(4) 0.17668(13)
H23 H 0.2619 1.2878 0.1606
C35 C 0.29062(12) 1.1094(4) 0.15044(12)
C36 C 0.32151(13) 1.0092(4) 0.17510(12)
H24 H 0.3274 0.9321 0.1578
C37 C 0.34370(12) 1.0215(4) 0.22465(12)
C38 C 0.26508(14) 1.0937(5) 0.09628(13)
C39 C 0.32092(14) 0.6885(6) 0.07975(15)
H25 H 0.3329 0.7789 0.0919
C40 C 0.34252(17) 0.5686(7) 0.1026(2)
H26 H 0.3687 0.5758 0.1298
C41 C 0.3254(2) 0.4401(8) 0.0853(3)
H27 H 0.3393 0.3553 0.1009
C42 C 0.28795(19) 0.4317(6) 0.0453(2)
H28 H 0.2763 0.3416 0.0323
C43 C 0.26743(14) 0.5572(5) 0.02417(16)
C44 C 0.22567(14) 0.5596(5) -0.01799(16)
C45 C 0.20823(18) 0.4391(6) -0.0454(2)
H29 H 0.2225 0.3498 -0.0380
C46 C 0.1695(2) 0.4527(8) -0.0838(2)
H30 H 0.1574 0.3732 -0.1042
C47 C 0.14854(18) 0.5824(8) -0.09247(18)
H31 H 0.1211 0.5926 -0.1175
C48 C 0.16873(15) 0.6965(6) -0.06364(15)
H32 H 0.1548 0.7865 -0.0703
C49 C 0.24119(13) 0.8545(4) -0.10018(13)
C50 C 0.21452(12) 0.8551(4) -0.15427(12)
C51 C 0.21974(12) 0.7498(4) -0.18384(12)
H33 H 0.2407 0.6779 -0.1704
C52 C 0.19468(11) 0.7478(4) -0.23311(12)
C53 C 0.16417(10) 0.8551(4) -0.25668(11)
C54 C 0.16065(11) 0.9586(4) -0.22417(12)
C55 C 0.18396(12) 0.9590(4) -0.17514(12)
H34 H 0.1791 1.0311 -0.1553
C56 C 0.12758(11) 0.9837(4) -0.33435(11)
C57 C 0.08602(11) 0.9908(4) -0.36861(11)
H35 H 0.0664 0.9160 -0.3711
C58 C 0.07372(11) 1.1070(4) -0.39883(11)
H36 H 0.0455 1.1110 -0.4225
C59 C 0.10160(10) 1.2191(4) -0.39571(10)
C60 C 0.14285(11) 1.2110(4) -0.36038(12)
H37 H 0.1623 1.2869 -0.3573
C61 C 0.15578(11) 1.0944(4) -0.32987(12)
H38 H 0.1839 1.0903 -0.3059
C62 C 0.08778(11) 1.3426(4) -0.42982(11)
C63 C -0.07034(11) 1.4040(4) -0.44904(11)
C64 C -0.04885(10) 1.3633(3) -0.39679(11)
C65 C -0.00829(11) 1.3054(4) -0.38057(11)
H39 H 0.0068 1.3015 -0.4018
C66 C 0.01052(11) 1.2529(4) -0.33359(11)
H40 H 0.0379 1.2098 -0.3232
C67 C -0.01074(11) 1.2631(4) -0.30157(11)
C68 C -0.05003(11) 1.3315(4) -0.31664(11)
H41 H -0.0635 1.3468 -0.2943
C69 C -0.06958(11) 1.3773(4) -0.36435(12)
H42 H -0.0973 1.4185 -0.3750
C70 C -0.00348(11) 1.1846(4) -0.21842(11)
C71 C 0.02306(11) 1.1999(4) -0.16885(11)
C72 C 0.00836(11) 1.1886(4) -0.13152(11)
H43 H 0.0277 1.2013 -0.0989
C73 C -0.03384(11) 1.1592(4) -0.14091(11)
C74 C -0.06066(12) 1.1310(4) -0.18848(11)
H44 H -0.0896 1.1056 -0.1956
C75 C -0.04548(12) 1.1396(4) -0.22549(11)
C76 C -0.04925(12) 1.1540(4) -0.09980(11)
C77 C 0.06231(15) 1.9259(5) -0.50664(14)
H45 H 0.0366 1.8720 -0.5168
C78 C 0.0607(2) 2.0640(5) -0.52327(15)
H46 H 0.0343 2.1046 -0.5439
C79 C 0.0972(2) 2.1410(5) -0.50983(16)
H47 H 0.0968 2.2351 -0.5218
C80 C 0.13514(17) 2.0819(4) -0.47850(16)
H48 H 0.1609 2.1349 -0.4685
C81 C 0.13460(13) 1.9420(4) -0.46192(13)
C82 C 0.17257(12) 1.8702(4) -0.42625(13)
C83 C 0.21026(15) 1.9434(5) -0.40056(17)
H49 H 0.2131 2.0411 -0.4072
C84 C 0.24299(15) 1.8730(6) -0.3658(2)
H50 H 0.2690 1.9211 -0.3484
C85 C 0.23804(14) 1.7332(6) -0.35618(19)
H51 H 0.2600 1.6839 -0.3312
C86 C 0.20019(13) 1.6640(5) -0.38370(15)
H52 H 0.1972 1.5657 -0.3779
Mn1B Mn 0.604461(16) 0.62704(5) 0.545473(16)
Mn1C Mn 0.395539(16) 0.12704(5) 0.954527(16)
Mn1A Mn 0.604461(16) 0.87296(5) 0.045473(16)
Mn2A Mn 0.5000 0.0000 1.0000
Mn2A_2 Mn 0.5000 1.0000 0.0000
Mn3B Mn 0.749761(19) 0.11132(7) 0.996848(19)
Mn4A Mn 0.0000 1.0000 0.0000
Mn4_2 Mn 1.0000 -0.5000 1.5000
Mn4A_2 Mn 0.0000 2.0000 -1.0000
Mn5B Mn 0.895930(16) -0.63335(5) 1.454220(16)
Mn5B_2 Mn -0.104070(16) 1.36665(5) -0.545780(16)
Mn5A Mn -0.104070(16) 1.13335(5) -0.045780(16)
Mn5C Mn 0.104070(16) 1.86665(5) -0.954220(16)
O1B O 0.61206(8) 0.5948(3) 0.46907(8)
O2B O 0.54894(7) 0.5926(3) 0.47413(7)
O3B O 0.59511(8) 0.8588(3) 0.11413(9)
O3C O 0.40489(8) 0.3588(3) 0.38587(9)
O3A O 0.59511(8) 0.6412(3) 0.61413(9)
O4B O 0.52874(9) 0.8527(3) 0.05945(8)
O4A O 0.52874(9) 0.6473(3) 0.55945(8)
O4C O 0.47126(9) 0.3527(3) 0.44055(8)
O5B O 0.80539(10) -0.0172(4) 1.00065(11)
O6B O 0.56153(10) 0.9992(3) 0.29802(9)
O7B O 0.41501(10) 0.7831(5) 0.11016(10)
O8B O 0.41744(8) 0.8158(3) 0.18198(9)
O9B O 0.68607(11) 0.0668(4) 1.00044(11)
O10B O 0.54564(8) 0.3456(3) 0.54322(9)
O11B O 0.72301(10) 0.0042(4) 0.92564(9)
O12B O 0.76606(10) -0.1744(3) 0.92220(10)
O13B O 0.63034(13) 0.2072(4) 0.75808(13)
O14B O 0.58553(10) 0.0303(4) 0.73426(10)
O15B O 0.67614(10) -0.3982(3) 0.71195(10)
O16B O 0.73761(11) -0.4138(4) 0.76916(13)
O17B O 0.77137(9) 0.0663(3) 1.07421(9)
O18B O 0.72689(10) 0.2245(4) 1.08558(10)
O19B O 0.95170(7) -0.3594(3) 1.45276(8)
O19B_2 O -0.04830(7) 1.6406(3) -0.54724(8)
O20B O 0.88326(8) -0.4211(3) 1.43337(9)
O21B O 0.82882(10) 0.4102(3) 1.29768(10)
O22B O 0.76462(11) 0.4323(4) 1.24591(13)
O23B O 0.90949(10) -0.0313(4) 1.26208(10)
O24B O 0.86072(13) -0.1946(4) 1.23555(13)
O25B O 0.04868(7) 1.5983(3) -0.52414(7)
O25_2 O 0.95132(7) -0.5983(3) 1.52414(7)
O26B O 0.10949(8) 1.5753(4) -0.53279(9)
O26_2 O 0.89051(8) -0.5753(4) 1.53279(9)
O27B O 0.02108(9) 1.8437(3) -0.94279(8)
O27A O 0.02108(9) 1.6563(3) -0.44279(8)
O27C O -0.02108(9) 1.3437(3) -0.55721(8)
O28B O 0.08863(8) 1.8469(3) -0.89028(8)
O28A O 0.08863(8) 1.6531(3) -0.39028(8)
O28C O 0.91137(8) -0.6531(3) 1.39028(8)
O29B O -0.08805(12) 1.7400(6) -0.88802(11)
O30B O -0.08662(9) 1.7969(4) -0.81910(9)
O31B O 0.05865(11) 1.9833(3) -0.70285(9)
O32B O 0.11278(10) 1.8978(5) -0.71540(11)
O33B O 0.61381(8) 0.4097(3) 0.56138(9)
O34B O 0.61624(10) 0.9108(4) 0.28764(10)
N1B N 0.49279(10) 0.8007(4) 0.25485(9)
H1B H 0.4653(14) 0.804(5) 0.2447(15)
N2B N 0.43497(10) 0.8033(4) 0.15313(10)
N3B N 0.57774(10) 0.9319(4) 0.27456(10)
N4B N 0.59997(10) 0.8593(3) 0.52466(10)
N5B N 0.66913(9) 0.7185(3) 0.58311(10)
N6B N 0.64109(10) -0.1381(3) 0.69729(10)
H2B H 0.6418(11) -0.217(4) 0.6864(13)
N7B N 0.70313(11) -0.3556(3) 0.75010(12)
N8B N 0.62172(13) 0.0807(4) 0.75378(12)
N9B N 0.71611(10) 0.3145(4) 0.95874(11)
N10B N 0.79344(11) 0.3118(4) 1.02705(12)
N11B N 0.87217(12) -0.0707(4) 1.24219(11)
N12B N 0.79914(11) 0.3725(4) 1.26070(11)
N13B N 0.85934(9) 0.1420(3) 1.30568(10)
H3B H 0.8670 0.2244 1.3206
N14B N 0.90161(11) -0.8641(3) 1.47680(10)
N15B N 0.83182(9) -0.7308(3) 1.41773(10)
N16B N -0.01110(10) 1.7890(4) -0.74552(10)
H4B H -0.0402(12) 1.791(4) -0.7571(12)
N17B N 0.07419(11) 1.9174(4) -0.72723(10)
N18B N -0.06876(11) 1.7761(4) -0.84672(10)
C1B C 0.57258(10) 0.6050(3) 0.44955(11)
C2B C 0.55195(11) 0.6469(3) 0.39756(10)
C3B C 0.57374(11) 0.6405(4) 0.36610(12)
H5B H 0.6020 0.6042 0.3776
C4B C 0.55477(12) 0.6863(4) 0.31819(12)
H6B H 0.5692 0.6755 0.2965
C5B C 0.49223(11) 0.7512(4) 0.33314(12)
H7B H 0.4642 0.7895 0.3220
C6B C 0.51443(11) 0.7483(4) 0.30229(10)
C7B C 0.51046(11) 0.6990(4) 0.37980(11)
H8B H 0.4945 0.6986 0.4001
C8B C 0.50754(11) 0.8325(4) 0.21936(11)
C9B C 0.54959(11) 0.8757(4) 0.22712(10)
C10B C 0.56552(11) 0.8833(4) 0.19090(11)
H9B H 0.5947 0.9062 0.1988
C11B C 0.53914(11) 0.8577(4) 0.14287(11)
C12B C 0.49646(11) 0.8324(4) 0.13265(11)
H10B H 0.4774 0.8227 0.0998
C13B C 0.48114(11) 0.8210(4) 0.16936(11)
C14B C 0.56513(18) 1.0569(5) 0.47552(15)
H11B H 0.5395 1.0994 0.4540
C15B C 0.56487(14) 0.9229(4) 0.49397(14)
H12B H 0.5385 0.8732 0.4845
C16B C 0.55538(12) 0.8580(3) 0.10282(11)
C17B C 0.6032(2) 1.1282(5) 0.48876(15)
H13B H 0.6042 1.2200 0.4757
C18B C 0.64025(17) 1.0663(4) 0.52122(15)
H14B H 0.6668 1.1151 0.5312
C19B C 0.63735(13) 0.9305(4) 0.53868(12)
C20B C 0.67459(12) 0.8575(4) 0.57531(13)
C21B C 0.71276(14) 0.9287(5) 0.60161(17)
H15B H 0.7167 1.0255 0.5949
C22B C 0.74401(15) 0.8563(6) 0.6369(2)
H16B H 0.7701 0.9030 0.6551
C23B C 0.73834(14) 0.7158(6) 0.64676(18)
H17B H 0.7597 0.6656 0.6722
C24B C 0.70051(13) 0.6503(5) 0.61843(15)
H18B H 0.6966 0.5527 0.6243
C25B C 0.58544(11) 0.3306(4) 0.56585(11)
C26B C 0.59987(11) 0.2086(4) 0.60123(11)
C27B C 0.57229(11) 0.0987(4) 0.59982(11)
H19B H 0.5439 0.1005 0.5765
C28B C 0.58564(11) -0.0138(4) 0.63204(11)
H20B H 0.5664 -0.0889 0.6309
C29B C 0.62706(11) -0.0171(4) 0.66603(11)
C30B C 0.65484(11) 0.0923(4) 0.66794(12)
H21B H 0.6831 0.0903 0.6915
C31B C 0.64173(11) 0.2049(4) 0.63569(12)
H22B H 0.6611 0.2796 0.6369
C32B C 0.66279(11) -0.1312(4) 0.74663(11)
C33B C 0.69363(11) -0.2323(4) 0.77380(12)
C34B C 0.71673(12) -0.2192(4) 0.82332(13)
H23B H 0.7381 -0.2878 0.8394
C35B C 0.70938(12) -0.1094(4) 0.84956(12)
C36B C 0.67849(13) -0.0092(4) 0.82490(12)
H24B H 0.6726 0.0679 0.8422
C37B C 0.65630(12) -0.0215(4) 0.77535(12)
C38B C 0.73492(14) -0.0937(5) 0.90372(13)
C39B C 0.67908(14) 0.3115(6) 0.92025(15)
H25B H 0.6671 0.2211 0.9081
C40B C 0.65748(17) 0.4314(7) 0.8974(2)
H26B H 0.6313 0.4242 0.8702
C41B C 0.6746(2) 0.5599(8) 0.9147(3)
H27B H 0.6607 0.6447 0.8991
C42B C 0.71205(19) 0.5683(6) 0.9547(2)
H28B H 0.7237 0.6584 0.9677
C43B C 0.73257(14) 0.4428(5) 0.97583(16)
C44B C 0.77433(14) 0.4404(5) 1.01799(16)
C45B C 0.79177(18) 0.5609(6) 1.0454(2)
H29B H 0.7775 0.6502 1.0380
C46B C 0.8305(2) 0.5473(8) 1.0838(2)
H30B H 0.8426 0.6268 1.1042
C47B C 0.85146(18) 0.4176(8) 1.09247(18)
H31B H 0.8789 0.4074 1.1175
C48B C 0.83127(15) 0.3035(6) 1.06364(15)
H32B H 0.8452 0.2135 1.0703
C49B C 0.75881(13) 0.1455(4) 1.10018(13)
C50B C 0.78548(12) 0.1449(4) 1.15427(12)
C51B C 0.78026(12) 0.2502(4) 1.18384(12)
H33B H 0.7593 0.3221 1.1704
C52B C 0.80532(11) 0.2522(4) 1.23311(12)
C53B C 0.83583(10) 0.1449(4) 1.25668(11)
C54B C 0.83935(11) 0.0414(4) 1.22417(12)
C55B C 0.81604(12) 0.0410(4) 1.17514(12)
H34B H 0.8209 -0.0311 1.1553
C56B C 0.87242(11) 0.0163(4) 1.33435(11)
C57B C 0.91398(11) 0.0092(4) 1.36861(11)
H35B H 0.9336 0.0840 1.3711
C58B C 0.92628(11) -0.1070(4) 1.39883(11)
H36B H 0.9545 -0.1110 1.4225
C59B C 0.89840(10) -0.2191(4) 1.39571(10)
C60B C 0.85715(11) -0.2110(4) 1.36038(12)
H37B H 0.8377 -0.2869 1.3573
C61B C 0.84422(11) -0.0944(4) 1.32987(12)
H38B H 0.8161 -0.0903 1.3059
C62B C 0.91222(11) -0.3426(4) 1.42982(11)
C63B C 0.07034(11) 1.5960(4) -0.55096(11)
C64B C 0.04885(10) 1.6367(3) -0.60321(11)
C65B C 0.00829(11) 1.6946(4) -0.61943(11)
H39B H -0.0068 1.6985 -0.5982
C66B C -0.01052(11) 1.7471(4) -0.66641(11)
H40B H -0.0379 1.7902 -0.6768
C67B C 0.01074(11) 1.7369(4) -0.69843(11)
C68B C 0.05003(11) 1.6685(4) -0.68336(11)
H41B H 0.0635 1.6532 -0.7057
C69B C 0.06958(11) 1.6227(4) -0.63565(12)
H42B H 0.0973 1.5815 -0.6250
C70B C 0.00348(11) 1.8154(4) -0.78158(11)
C71B C -0.02306(11) 1.8001(4) -0.83115(11)
C72B C -0.00836(11) 1.8114(4) -0.86848(11)
H43B H -0.0277 1.7987 -0.9011
C73B C 0.03384(11) 1.8408(4) -0.85909(11)
C74B C 0.06066(12) 1.8690(4) -0.81152(11)
H44B H 0.0896 1.8944 -0.8044
C75B C 0.04548(12) 1.8604(4) -0.77451(11)
C76B C 0.04925(12) 1.8460(4) -0.90020(11)
C77B C 0.93769(15) -0.9259(5) 1.50664(14)
H45B H 0.9634 -0.8720 1.5168
C78B C 0.9393(2) -1.0640(5) 1.52327(15)
H46B H 0.9657 -1.1046 1.5439
C79B C 0.9028(2) -1.1410(5) 1.50983(16)
H47B H 0.9032 -1.2351 1.5218
C80B C 0.86486(17) -1.0819(4) 1.47850(16)
H48B H 0.8391 -1.1349 1.4685
C81B C 0.86540(13) -0.9420(4) 1.46192(13)
C82B C 0.82743(12) -0.8702(4) 1.42625(13)
C83B C 0.78974(15) -0.9434(5) 1.40056(17)
H49B H 0.7869 -1.0411 1.4072
C84B C 0.75701(15) -0.8730(6) 1.3658(2)
H50B H 0.7310 -0.9211 1.3484
C85B C 0.76196(14) -0.7332(6) 1.35618(19)
H51B H 0.7400 -0.6839 1.3312
C86B C 0.79981(13) -0.6640(5) 1.38370(15)
H52B H 0.8028 -0.5657 1.3779
loop_
_geom_bond_atom_site_label_1
_geom_bond_atom_site_label_2
_geom_bond_site_symmetry_1
_geom_bond_site_symmetry_2
Mn1 O1 1_555 1_555
Mn2 O2 1_555 1_555
Mn3 O5 1_555 1_555
Mn4 O19 1_555 1_555
Mn5 O20 1_555 1_555
O1 C1 1_555 1_555
O2 Mn1 1_555 1_555
O3 C16 1_555 1_555
O4 C16 1_555 1_555
O6 N3 1_555 1_555
O7 N2 1_555 1_555
O8 N2 1_555 1_555
O9 Mn3 1_555 1_555
O10 Mn2 1_555 1_555
O11 Mn3 1_555 1_555
O12 C38 1_555 1_555
O13 N8 1_555 1_555
O14 N8 1_555 1_555
O15 N7 1_555 1_555
O16 N7 1_555 1_555
O17 Mn3 1_555 1_555
O18 C49 1_555 1_555
O19 C62 1_555 1_555
O20 C62 1_555 1_555
O21 N12 1_555 1_555
O22 N12 1_555 1_555
O23 N11 1_555 1_555
O24 N11 1_555 1_555
O25 Mn4 1_555 1_555
O26 C63 1_555 1_555
O27 C76 1_555 1_555
O28 C76 1_555 1_555
O29 N18 1_555 1_555
O30 N18 1_555 1_555
O31 N17 1_555 1_555
O32 N17 1_555 1_555
O33 Mn1 1_555 1_555
O34 N3 1_555 1_555
N1 H1 1_555 1_555
N2 C13 1_555 1_555
N3 C9 1_555 1_555
N4 Mn1 1_555 1_555
N5 Mn1 1_555 1_555
N6 H2 1_555 1_555
N7 C33 1_555 1_555
N8 C37 1_555 1_555
N9 Mn3 1_555 1_555
N10 Mn3 1_555 1_555
N11 C54 1_555 1_555
N12 C52 1_555 1_555
N13 H3 1_555 1_555
N14 Mn5 1_555 1_555
N15 Mn5 1_555 1_555
N16 H4 1_555 1_555
N17 C75 1_555 1_555
N18 C71 1_555 1_555
C1 O2 1_555 1_555
C2 C1 1_555 1_555
C3 C2 1_555 1_555
H5 C3 1_555 1_555
C4 C3 1_555 1_555
H6 C4 1_555 1_555
C5 H7 1_555 1_555
C6 N1 1_555 1_555
C7 C2 1_555 1_555
H8 C7 1_555 1_555
C8 N1 1_555 1_555
C9 C8 1_555 1_555
C10 C9 1_555 1_555
H9 C10 1_555 1_555
C11 C10 1_555 1_555
C12 C11 1_555 1_555
H10 C12 1_555 1_555
C13 C8 1_555 1_555
C14 H11 1_555 1_555
C15 N4 1_555 1_555
H12 C15 1_555 1_555
C16 C11 1_555 1_555
C17 C14 1_555 1_555
H13 C17 1_555 1_555
C18 C17 1_555 1_555
H14 C18 1_555 1_555
C19 N4 1_555 1_555
C20 N5 1_555 1_555
C21 C20 1_555 1_555
H15 C21 1_555 1_555
C22 C21 1_555 1_555
H16 C22 1_555 1_555
C23 C22 1_555 1_555
H17 C23 1_555 1_555
C24 N5 1_555 1_555
H18 C24 1_555 1_555
C25 O10 1_555 1_555
C26 C25 1_555 1_555
C27 C26 1_555 1_555
H19 C27 1_555 1_555
C28 C27 1_555 1_555
H20 C28 1_555 1_555
C29 N6 1_555 1_555
C30 C29 1_555 1_555
H21 C30 1_555 1_555
C31 C26 1_555 1_555
H22 C31 1_555 1_555
C32 N6 1_555 1_555
C33 C32 1_555 1_555
C34 C33 1_555 1_555
H23 C34 1_555 1_555
C35 C34 1_555 1_555
C36 C35 1_555 1_555
H24 C36 1_555 1_555
C37 C32 1_555 1_555
C38 O11 1_555 1_555
C39 N9 1_555 1_555
H25 C39 1_555 1_555
C40 C39 1_555 1_555
H26 C40 1_555 1_555
C41 C40 1_555 1_555
H27 C41 1_555 1_555
C42 C41 1_555 1_555
H28 C42 1_555 1_555
C43 N9 1_555 1_555
C44 N10 1_555 1_555
C45 C44 1_555 1_555
H29 C45 1_555 1_555
C46 C45 1_555 1_555
H30 C46 1_555 1_555
C47 C46 1_555 1_555
H31 C47 1_555 1_555
C48 N10 1_555 1_555
H32 C48 1_555 1_555
C49 O17 1_555 1_555
C50 C49 1_555 1_555
C51 C50 1_555 1_555
H33 C51 1_555 1_555
C52 C51 1_555 1_555
C53 N13 1_555 1_555
C54 C53 1_555 1_555
C55 C50 1_555 1_555
H34 C55 1_555 1_555
C56 N13 1_555 1_555
C57 C56 1_555 1_555
H35 C57 1_555 1_555
C58 C57 1_555 1_555
H36 C58 1_555 1_555
C59 C58 1_555 1_555
C60 C59 1_555 1_555
H37 C60 1_555 1_555
C61 C56 1_555 1_555
H38 C61 1_555 1_555
C62 C59 1_555 1_555
C63 O25 1_555 1_555
C64 C63 1_555 1_555
C65 C64 1_555 1_555
H39 C65 1_555 1_555
C66 C65 1_555 1_555
H40 C66 1_555 1_555
C67 N16 1_555 1_555
C68 C67 1_555 1_555
H41 C68 1_555 1_555
C69 C64 1_555 1_555
H42 C69 1_555 1_555
C70 N16 1_555 1_555
C71 C70 1_555 1_555
C72 C71 1_555 1_555
H43 C72 1_555 1_555
C73 C72 1_555 1_555
C74 C73 1_555 1_555
H44 C74 1_555 1_555
C75 C70 1_555 1_555
C76 C73 1_555 1_555
C77 N14 1_555 1_555
H45 C77 1_555 1_555
C78 C77 1_555 1_555
H46 C78 1_555 1_555
C79 C78 1_555 1_555
H47 C79 1_555 1_555
C80 C79 1_555 1_555
H48 C80 1_555 1_555
C81 N14 1_555 1_555
C82 N15 1_555 1_555
C83 C82 1_555 1_555
H49 C83 1_555 1_555
C84 C83 1_555 1_555
H50 C84 1_555 1_555
C85 C84 1_555 1_555
H51 C85 1_555 1_555
C86 N15 1_555 1_555
H52 C86 1_555 1_555
Mn1B O1B 1_555 1_555
Mn1C O3 1_555 1_555
Mn1A O3B 1_555 1_555
Mn2A O4 1_555 1_555
Mn2A_2 O4B 1_555 1_555
Mn3B O5B 1_555 1_555
Mn4A O27 1_555 1_555
Mn4_2 O19B 1_555 1_555
Mn4A_2 O27B 1_555 1_555
Mn5B O20B 1_555 1_555
Mn5B_2 O25 1_555 1_555
Mn5A O28 1_555 1_555
Mn5C O28B 1_555 1_555
O1B C1B 1_555 1_555
O2B Mn2 1_555 1_555
O3B C16B 1_555 1_555
O3C Mn1 1_555 1_555
O3A Mn1B 1_555 1_555
O4B C16B 1_555 1_555
O4A Mn2 1_555 1_555
O4C Mn2 1_555 1_555
O6B N3B 1_555 1_555
O7B N2B 1_555 1_555
O8B N2B 1_555 1_555
O9B Mn3B 1_555 1_555
O10B Mn2 1_555 1_555
O11B Mn3B 1_555 1_555
O12B C38B 1_555 1_555
O13B N8B 1_555 1_555
O14B N8B 1_555 1_555
O15B N7B 1_555 1_555
O16B N7B 1_555 1_555
O17B Mn3B 1_555 1_555
O18B C49B 1_555 1_555
O19B C62B 1_555 1_555
O19B_2 Mn4 1_555 1_555
O20B C62B 1_555 1_555
O21B N12B 1_555 1_555
O22B N12B 1_555 1_555
O23B N11B 1_555 1_555
O24B N11B 1_555 1_555
O25B Mn4 1_555 1_555
O25_2 Mn4_2 1_555 1_555
O26B Mn5 1_555 1_555
O26_2 Mn5B 1_555 1_555
O27B C76B 1_555 1_555
O27A Mn4 1_555 1_555
O27C Mn4 1_555 1_555
O28B C76B 1_555 1_555
O28A Mn5 1_555 1_555
O28C Mn5B 1_555 1_555
O29B N18B 1_555 1_555
O30B N18B 1_555 1_555
O31B N17B 1_555 1_555
O32B N17B 1_555 1_555
O33B Mn1B 1_555 1_555
O34B N3B 1_555 1_555
N1B H1B 1_555 1_555
N2B C13B 1_555 1_555
N3B C9B 1_555 1_555
N4B Mn1B 1_555 1_555
N5B Mn1B 1_555 1_555
N6B H2B 1_555 1_555
N7B C33B 1_555 1_555
N8B C37B 1_555 1_555
N9B Mn3B 1_555 1_555
N10B Mn3B 1_555 1_555
N11B C54B 1_555 1_555
N12B C52B 1_555 1_555
N13B H3B 1_555 1_555
N14B Mn5B 1_555 1_555
N15B Mn5B 1_555 1_555
N16B H4B 1_555 1_555
N17B C75B 1_555 1_555
N18B C71B 1_555 1_555
C1B O2B 1_555 1_555
C2B C1B 1_555 1_555
C3B C2B 1_555 1_555
H5B C3B 1_555 1_555
C4B C3B 1_555 1_555
H6B C4B 1_555 1_555
C5B H7B 1_555 1_555
C6B N1B 1_555 1_555
C7B C2B 1_555 1_555
H8B C7B 1_555 1_555
C8B N1B 1_555 1_555
C9B C8B 1_555 1_555
C10B C9B 1_555 1_555
H9B C10B 1_555 1_555
C11B C10B 1_555 1_555
C12B C11B 1_555 1_555
H10B C12B 1_555 1_555
C13B C8B 1_555 1_555
C14B H11B 1_555 1_555
C15B N4B 1_555 1_555
H12B C15B 1_555 1_555
C16B C11B 1_555 1_555
C17B C14B 1_555 1_555
H13B C17B 1_555 1_555
C18B C17B 1_555 1_555
H14B C18B 1_555 1_555
C19B N4B 1_555 1_555
C20B N5B 1_555 1_555
C21B C20B 1_555 1_555
H15B C21B 1_555 1_555
C22B C21B 1_555 1_555
H16B C22B 1_555 1_555
C23B C22B 1_555 1_555
H17B C23B 1_555 1_555
C24B N5B 1_555 1_555
H18B C24B 1_555 1_555
C25B O10B 1_555 1_555
C26B C25B 1_555 1_555
C27B C26B 1_555 1_555
H19B C27B 1_555 1_555
C28B C27B 1_555 1_555
H20B C28B 1_555 1_555
C29B N6B 1_555 1_555
C30B C29B 1_555 1_555
H21B C30B 1_555 1_555
C31B C26B 1_555 1_555
H22B C31B 1_555 1_555
C32B N6B 1_555 1_555
C33B C32B 1_555 1_555
C34B C33B 1_555 1_555
H23B C34B 1_555 1_555
C35B C34B 1_555 1_555
C36B C35B 1_555 1_555
H24B C36B 1_555 1_555
C37B C32B 1_555 1_555
C38B O11B 1_555 1_555
C39B N9B 1_555 1_555
H25B C39B 1_555 1_555
C40B C39B 1_555 1_555
H26B C40B 1_555 1_555
C41B C40B 1_555 1_555
H27B C41B 1_555 1_555
C42B C41B 1_555 1_555
H28B C42B 1_555 1_555
C43B N9B 1_555 1_555
C44B N10B 1_555 1_555
C45B C44B 1_555 1_555
H29B C45B 1_555 1_555
C46B C45B 1_555 1_555
H30B C46B 1_555 1_555
C47B C46B 1_555 1_555
H31B C47B 1_555 1_555
C48B N10B 1_555 1_555
H32B C48B 1_555 1_555
C49B O17B 1_555 1_555
C50B C49B 1_555 1_555
C51B C50B 1_555 1_555
H33B C51B 1_555 1_555
C52B C51B 1_555 1_555
C53B N13B 1_555 1_555
C54B C53B 1_555 1_555
C55B C50B 1_555 1_555
H34B C55B 1_555 1_555
C56B N13B 1_555 1_555
C57B C56B 1_555 1_555
H35B C57B 1_555 1_555
C58B C57B 1_555 1_555
H36B C58B 1_555 1_555
C59B C58B 1_555 1_555
C60B C59B 1_555 1_555
H37B C60B 1_555 1_555
C61B C56B 1_555 1_555
H38B C61B 1_555 1_555
C62B C59B 1_555 1_555
C63B O25B 1_555 1_555
C64B C63B 1_555 1_555
C65B C64B 1_555 1_555
H39B C65B 1_555 1_555
C66B C65B 1_555 1_555
H40B C66B 1_555 1_555
C67B N16B 1_555 1_555
C68B C67B 1_555 1_555
H41B C68B 1_555 1_555
C69B C64B 1_555 1_555
H42B C69B 1_555 1_555
C70B N16B 1_555 1_555
C71B C70B 1_555 1_555
C72B C71B 1_555 1_555
H43B C72B 1_555 1_555
C73B C72B 1_555 1_555
C74B C73B 1_555 1_555
H44B C74B 1_555 1_555
C75B C70B 1_555 1_555
C76B C73B 1_555 1_555
C77B N14B 1_555 1_555
H45B C77B 1_555 1_555
C78B C77B 1_555 1_555
H46B C78B 1_555 1_555
C79B C78B 1_555 1_555
H47B C79B 1_555 1_555
C80B C79B 1_555 1_555
H48B C80B 1_555 1_555
C81B N14B 1_555 1_555
C82B N15B 1_555 1_555
C83B C82B 1_555 1_555
H49B C83B 1_555 1_555
C84B C83B 1_555 1_555
H50B C84B 1_555 1_555
C85B C84B 1_555 1_555
H51B C85B 1_555 1_555
C86B N15B 1_555 1_555
H52B C86B 1_555 1_555
Mn5 O25B 1_555 1_555
O26 Mn5B_2 1_555 1_555
O33 C25 1_555 1_555
C4 C6 1_555 1_555
C5 C6 1_555 1_555
C5 C7 1_555 1_555
C12 C13 1_555 1_555
C14 C15 1_555 1_555
C18 C19 1_555 1_555
C19 C20 1_555 1_555
C23 C24 1_555 1_555
C28 C29 1_555 1_555
C30 C31 1_555 1_555
C35 C38 1_555 1_555
C36 C37 1_555 1_555
C42 C43 1_555 1_555
C43 C44 1_555 1_555
C47 C48 1_555 1_555
C52 C53 1_555 1_555
C54 C55 1_555 1_555
C60 C61 1_555 1_555
C66 C67 1_555 1_555
C68 C69 1_555 1_555
C74 C75 1_555 1_555
C80 C81 1_555 1_555
C81 C82 1_555 1_555
C85 C86 1_555 1_555
Mn1B O2B 1_555 1_555
Mn5B O25_2 1_555 1_555
O26B C63B 1_555 1_555
O33B C25B 1_555 1_555
C4B C6B 1_555 1_555
C5B C6B 1_555 1_555
C5B C7B 1_555 1_555
C12B C13B 1_555 1_555
C14B C15B 1_555 1_555
C18B C19B 1_555 1_555
C19B C20B 1_555 1_555
C23B C24B 1_555 1_555
C28B C29B 1_555 1_555
C30B C31B 1_555 1_555
C35B C38B 1_555 1_555
C36B C37B 1_555 1_555
C42B C43B 1_555 1_555
C43B C44B 1_555 1_555
C47B C48B 1_555 1_555
C52B C53B 1_555 1_555
C54B C55B 1_555 1_555
C60B C61B 1_555 1_555
C66B C67B 1_555 1_555
C68B C69B 1_555 1_555
C74B C75B 1_555 1_555
C80B C81B 1_555 1_555
C81B C82B 1_555 1_555
C85B C86B 1_555 1_555

#END
