
#######################################################################
#
#                 Cambridge Crystallographic Data Centre
#                                CCDC 
#
#######################################################################
#
# If this CIF has been generated from an entry in the Cambridge 
# Structural Database, then it will include bibliographic, chemical, 
# crystal, experimental, refinement or atomic coordinate data resulting 
# from the CCDC's data processing and validation procedures.
#
#######################################################################

data_EMARIT
_symmetry_cell_setting           triclinic
_symmetry_space_group_name_H-M   'P -1'
_symmetry_Int_Tables_number      2
_space_group_name_Hall           '-P 1'
loop_
_symmetry_equiv_pos_site_id
_symmetry_equiv_pos_as_xyz
1 x,y,z
2 -x,-y,-z
_cell_length_a                   7.1670(3)
_cell_length_b                   7.7540(5)
_cell_length_c                   9.8622(6)
_cell_angle_alpha                79.314(3)
_cell_angle_beta                 87.748(3)
_cell_angle_gamma                71.287(2)
_cell_volume                     509.977
loop_
_atom_site_label
_atom_site_type_symbol
_atom_site_fract_x
_atom_site_fract_y
_atom_site_fract_z
Co1 Co 0.0000 1.0000 0.0000
C1 C 0.0775(8) 0.6280(7) 0.1955(6)
H1 H 0.1204 0.5831 0.1148
C2 C 0.0703(8) 0.5028(8) 0.3127(5)
H2 H 0.1079 0.3771 0.3099
C3 C 0.0065(7) 0.5649(7) 0.4355(5)
C4 C -0.0438(9) 0.7548(8) 0.4308(6)
H3 H -0.0846 0.8038 0.5102
C5 C -0.0332(8) 0.8698(7) 0.3091(5)
H4 H -0.0694 0.9963 0.3087
N1 N 0.0265(6) 0.8100(6) 0.1911(4)
O3 O 0.2657(5) 0.8383(5) -0.0606(4)
H7 H 0.3782 0.8101 -0.0035
H8 H 0.3013 0.7640 -0.1475
O4 O 0.1565(5) 1.1474(5) 0.0891(4)
H9 H 0.2295 1.1864 0.0300
H10 H 0.2359 1.0666 0.1661
C3A C -0.0065(7) 0.4351(7) 0.5645(5)
C2A C -0.0703(8) 0.4972(8) 0.6873(5)
C1A C -0.0775(8) 0.3720(7) 0.8045(6)
H1A H -0.1204 0.4169 0.8852
N1A N -0.0265(6) 0.1900(6) 0.8089(4)
C5A C 0.0332(8) 0.1302(7) 0.6909(5)
C4A C 0.0438(9) 0.2452(8) 0.5692(6)
H3A H 0.0846 0.1962 0.4898
H4A H 0.0694 0.0037 0.6913
H2A H -0.1079 0.6229 0.6901
O3A O -0.2657(5) 1.1617(5) 0.0606(4)
H7A H -0.3782 1.1899 0.0035
H8A H -0.3013 1.2360 0.1475
O4A O -0.1565(5) 0.8526(5) -0.0891(4)
H9A H -0.2295 0.8136 -0.0300
H10A H -0.2359 0.9334 -0.1661
N1A_2 N -0.0265(6) 1.1900(6) -0.1911(4)
Co1_2 Co 0.0000 0.0000 1.0000
C6 C 0.4028(8) 0.6408(7) -0.3529(6)
C7 C 0.4762(8) 0.4778(7) -0.4250(5)
H5 H 0.3772 0.4160 -0.4180
H6 H 0.5938 0.3912 -0.3764
O1 O 0.3485(7) 0.6073(6) -0.2302(4)
O2 O 0.3997(7) 0.7985(5) -0.4136(4)
C7A C 0.5238(8) 0.5222(7) -0.5750(5)
C6A C 0.5972(8) 0.3592(7) -0.6471(6)
O1A O 0.6515(7) 0.3927(6) -0.7698(4)
O2A O 0.6003(7) 0.2015(5) -0.5864(4)
H5A H 0.6228 0.5840 -0.5820
H6A H 0.4062 0.6088 -0.6236
O5 O 0.5753(7) 1.0193(6) -0.3145(4)
H11 H 0.4742 0.9851 -0.3631
H12 H 0.6700 0.9077 -0.2679
O6 O 0.4062(6) 0.2513(5) -0.1087(4)
H13 H 0.4607 0.1835 -0.1751
H14 H 0.4012 0.3598 -0.1445
loop_
_geom_bond_atom_site_label_1
_geom_bond_atom_site_label_2
_geom_bond_site_symmetry_1
_geom_bond_site_symmetry_2
Co1 N1 1_555 1_555
C1 H1 1_555 1_555
C2 C1 1_555 1_555
H2 C2 1_555 1_555
C3 C2 1_555 1_555
C4 C3 1_555 1_555
H3 C4 1_555 1_555
C5 C4 1_555 1_555
H4 C5 1_555 1_555
C6 C7 1_555 1_555
C7 H5 1_555 1_555
H6 C7 1_555 1_555
N1 C1 1_555 1_555
O1 C6 1_555 1_555
O2 C6 1_555 1_555
O3 Co1 1_555 1_555
H7 O3 1_555 1_555
H8 O3 1_555 1_555
O4 Co1 1_555 1_555
H9 O4 1_555 1_555
H10 O4 1_555 1_555
O5 H11 1_555 1_555
H12 O5 1_555 1_555
O6 H13 1_555 1_555
H14 O6 1_555 1_555
C3A C3 1_555 1_555
C2A C3A 1_555 1_555
C1A C2A 1_555 1_555
H1A C1A 1_555 1_555
N1A C1A 1_555 1_555
C5A N1A 1_555 1_555
C4A C3A 1_555 1_555
H3A C4A 1_555 1_555
H4A C5A 1_555 1_555
H2A C2A 1_555 1_555
C7A C7 1_555 1_555
C6A C7A 1_555 1_555
O1A C6A 1_555 1_555
O2A C6A 1_555 1_555
H5A C7A 1_555 1_555
H6A C7A 1_555 1_555
O3A Co1 1_555 1_555
H7A O3A 1_555 1_555
H8A O3A 1_555 1_555
O4A Co1 1_555 1_555
H9A O4A 1_555 1_555
H10A O4A 1_555 1_555
N1A_2 Co1 1_555 1_555
Co1_2 N1A 1_555 1_555
C5 N1 1_555 1_555
C5A C4A 1_555 1_555

#END
