
#######################################################################
#
#                 Cambridge Crystallographic Data Centre
#                                CCDC 
#
#######################################################################
#
# If this CIF has been generated from an entry in the Cambridge 
# Structural Database, then it will include bibliographic, chemical, 
# crystal, experimental, refinement or atomic coordinate data resulting 
# from the CCDC's data processing and validation procedures.
#
#######################################################################

data_EMARIT01
_symmetry_cell_setting           triclinic
_symmetry_space_group_name_H-M   'P -1'
_symmetry_Int_Tables_number      2
_space_group_name_Hall           '-P 1'
loop_
_symmetry_equiv_pos_site_id
_symmetry_equiv_pos_as_xyz
1 x,y,z
2 -x,-y,-z
_cell_length_a                   7.7530(16)
_cell_length_b                   9.877(2)
_cell_length_c                   7.1772(14)
_cell_angle_alpha                92.41(3)
_cell_angle_beta                 108.69(3)
_cell_angle_gamma                79.28(3)
_cell_volume                     511.444
loop_
_atom_site_label
_atom_site_type_symbol
_atom_site_fract_x
_atom_site_fract_y
_atom_site_fract_z
Co1 Co 1.0000 0.0000 1.0000
N1 N 1.1896(2) -0.19152(17) 1.0262(2)
O1 O 0.8528(2) -0.08846(19) 1.1576(3)
O2 O 1.1611(2) 0.06031(18) 1.2648(2)
C1 C 1.3733(3) -0.1956(2) 1.0783(3)
H1 H 1.4185 -0.1152 1.1225
C2 C 1.4972(3) -0.3125(2) 1.0694(3)
H2 H 1.6229 -0.3096 1.1054
C3 C 1.4352(3) -0.43561(19) 1.0064(3)
C4 C 1.2456(3) -0.4307(2) 0.9550(3)
H3 H 1.1967 -0.5099 0.9129
C5 C 1.1299(3) -0.3090(2) 0.9661(3)
H4 H 1.0034 -0.3087 0.9298
H9 H 0.815(4) -0.029(3) 1.221(5)
H11 H 1.230(4) 0.116(3) 1.282(5)
H12 H 1.193(4) 0.013(3) 1.361(4)
H14 H 0.913(4) -0.155(3) 1.222(4)
C3A C 1.5648(3) -0.56439(19) 0.9936(3)
C2A C 1.5028(3) -0.6875(2) 0.9306(3)
C1A C 1.6267(3) -0.8044(2) 0.9217(3)
N1A N 1.8104(2) -0.80848(17) 0.9738(2)
C5A C 1.8701(3) -0.6910(2) 1.0339(3)
C4A C 1.7544(3) -0.5693(2) 1.0450(3)
H3A H 1.8033 -0.4901 1.0871
H4A H 1.9966 -0.6913 1.0702
H1A H 1.5815 -0.8848 0.8775
H2A H 1.3771 -0.6904 0.8946
O1A O 1.1472(2) 0.08846(19) 0.8424(3)
H9A H 1.185(4) 0.029(3) 0.779(5)
H14A H 1.087(4) 0.155(3) 0.778(4)
O2A O 0.8389(2) -0.06031(18) 0.7352(2)
H11A H 0.770(4) -0.116(3) 0.718(5)
H12A H 0.807(4) -0.013(3) 0.639(4)
N1A_2 N 0.8104(2) 0.19152(17) 0.9738(2)
Co1_2 Co 2.0000 -1.0000 1.0000
O3 O 1.3927(2) 0.23089(16) 1.3474(3)
O4 O 1.2021(2) 0.41354(16) 1.4000(3)
C6 C 1.3582(3) 0.3528(2) 1.4020(3)
C7 C 1.5231(3) 0.4253(2) 1.4756(3)
H5 H 1.606(3) 0.374(2) 1.588(3)
H6 H 1.586(3) 0.416(2) 1.376(3)
C7A C 1.4769(3) 0.5747(2) 1.5244(3)
C6A C 1.6418(3) 0.6472(2) 1.5980(3)
O3A O 1.6073(2) 0.76911(16) 1.6526(3)
O4A O 1.7979(2) 0.58646(16) 1.6000(3)
H5A H 1.394(3) 0.626(2) 1.412(3)
H6A H 1.414(3) 0.584(2) 1.624(3)
O5 O 1.0179(3) -0.31240(19) 1.4242(3)
H8 H 1.079(4) -0.385(4) 1.408(5)
H10 H 0.946(5) -0.330(3) 1.485(5)
O6 O 0.7489(3) 0.10816(17) 1.4063(3)
H7 H 0.652(4) 0.140(3) 1.387(4)
H13 H 0.819(4) 0.175(3) 1.441(5)
loop_
_geom_bond_atom_site_label_1
_geom_bond_atom_site_label_2
_geom_bond_site_symmetry_1
_geom_bond_site_symmetry_2
Co1 N1 1_555 1_555
N1 C1 1_555 1_555
O1 Co1 1_555 1_555
O2 Co1 1_555 1_555
O3 C6 1_555 1_555
O4 C6 1_555 1_555
O5 H8 1_555 1_555
O6 H7 1_555 1_555
C1 H1 1_555 1_555
C2 C1 1_555 1_555
H2 C2 1_555 1_555
C3 C2 1_555 1_555
C4 C3 1_555 1_555
H3 C4 1_555 1_555
C5 N1 1_555 1_555
H4 C5 1_555 1_555
C6 C7 1_555 1_555
C7 H5 1_555 1_555
H6 C7 1_555 1_555
H9 O1 1_555 1_555
H10 O5 1_555 1_555
H11 O2 1_555 1_555
H12 O2 1_555 1_555
H13 O6 1_555 1_555
H14 O1 1_555 1_555
C3A C3 1_555 1_555
C2A C3A 1_555 1_555
C1A C2A 1_555 1_555
N1A C1A 1_555 1_555
C5A N1A 1_555 1_555
C4A C3A 1_555 1_555
H3A C4A 1_555 1_555
H4A C5A 1_555 1_555
H1A C1A 1_555 1_555
H2A C2A 1_555 1_555
C7A C7 1_555 1_555
C6A C7A 1_555 1_555
O3A C6A 1_555 1_555
O4A C6A 1_555 1_555
H5A C7A 1_555 1_555
H6A C7A 1_555 1_555
O1A Co1 1_555 1_555
H9A O1A 1_555 1_555
H14A O1A 1_555 1_555
O2A Co1 1_555 1_555
H11A O2A 1_555 1_555
H12A O2A 1_555 1_555
N1A_2 Co1 1_555 1_555
Co1_2 N1A 1_555 1_555
C4 C5 1_555 1_555
C5A C4A 1_555 1_555

#END
