
#######################################################################
#
#                 Cambridge Crystallographic Data Centre
#                                CCDC 
#
#######################################################################
#
# If this CIF has been generated from an entry in the Cambridge 
# Structural Database, then it will include bibliographic, chemical, 
# crystal, experimental, refinement or atomic coordinate data resulting 
# from the CCDC's data processing and validation procedures.
#
#######################################################################

data_EMASIU
_symmetry_cell_setting           monoclinic
_symmetry_space_group_name_H-M   'C 2/c'
_symmetry_Int_Tables_number      15
_space_group_name_Hall           '-C 2yn'
loop_
_symmetry_equiv_pos_site_id
_symmetry_equiv_pos_as_xyz
1 x,y,z
2 1/2+x,1/2+y,z
3 x,-y,1/2+z
4 1/2+x,1/2-y,1/2+z
5 -x,-y,-z
6 1/2-x,1/2-y,-z
7 -x,y,1/2-z
8 1/2-x,1/2+y,1/2-z
_cell_length_a                   20.979(9)
_cell_length_b                   8.716(3)
_cell_length_c                   19.239(9)
_cell_angle_alpha                90
_cell_angle_beta                 114.79(3)
_cell_angle_gamma                90
_cell_volume                     3193.74
loop_
_atom_site_label
_atom_site_type_symbol
_atom_site_fract_x
_atom_site_fract_y
_atom_site_fract_z
Cd1 Cd 0.2500 0.2500 0.5000
Cd2 Cd 0.0000 0.03875(6) 0.2500
S1 S 0.16737(7) 0.0454(2) 0.52927(7)
C1 C 0.1042(3) 0.0334(6) 0.4417(3)
N1 N 0.0593(2) 0.0245(6) 0.3813(3)
S2 S 0.08198(7) 0.2487(2) 0.22382(8)
C2 C 0.1465(3) 0.2359(7) 0.3097(3)
N2 N 0.1925(2) 0.2270(5) 0.3700(2)
N3 N 0.1694(2) 0.4459(5) 0.4964(2)
C3 C 0.1027(3) 0.4523(7) 0.4437(3)
H1 H 0.0885(3) 0.3835(7) 0.4031(3)
C4 C 0.0541(3) 0.5553(7) 0.4467(3)
H2 H 0.0082(3) 0.5562(7) 0.4092(3)
C5 C 0.0755(3) 0.6566(6) 0.5070(3)
C6 C 0.1434(3) 0.6534(7) 0.5630(3)
H3 H 0.1583(3) 0.7200(7) 0.6046(3)
C7 C 0.1884(3) 0.5468(6) 0.5544(3)
H4 H 0.2346(3) 0.5447(6) 0.5911(3)
Cl1 Cl 0.01614(7) 0.7863(2) 0.51494(8)
N4 N 0.0777(2) -0.1573(5) 0.2467(2)
C8 C 0.0954(3) -0.1703(6) 0.1881(3)
H5 H 0.0728(3) -0.1080(6) 0.1456(3)
C9 C 0.1455(3) -0.2718(7) 0.1875(3)
H6 H 0.1560(3) -0.2794(7) 0.1453(3)
C10 C 0.1794(3) -0.3614(6) 0.2512(3)
C11 C 0.1619(3) -0.3517(7) 0.3130(3)
H7 H 0.1839(3) -0.4129(7) 0.3562(3)
C12 C 0.1104(3) -0.2476(6) 0.3081(3)
H8 H 0.0979(3) -0.2397(6) 0.3490(3)
Cl2 Cl 0.24532(7) -0.4866(2) 0.25699(8)
S1E S 0.33263(7) 0.4546(2) 0.47073(7)
C1E C 0.3958(3) 0.4666(6) 0.5583(3)
N1E N 0.4407(2) 0.4755(6) 0.6187(3)
S2E S 0.41802(7) 0.2513(2) 0.77618(8)
C2E C 0.3535(3) 0.2641(7) 0.6903(3)
N2E N 0.3075(2) 0.2730(5) 0.6300(2)
N3E N 0.3306(2) 0.0541(5) 0.5036(2)
C3E C 0.3973(3) 0.0477(7) 0.5563(3)
H1E H 0.4115(3) 0.1165(7) 0.5969(3)
C4E C 0.4459(3) -0.0553(7) 0.5533(3)
H2E H 0.4918(3) -0.0562(7) 0.5908(3)
C5E C 0.4245(3) -0.1566(6) 0.4930(3)
C6E C 0.3566(3) -0.1534(7) 0.4370(3)
H3E H 0.3417(3) -0.2200(7) 0.3954(3)
C7E C 0.3116(3) -0.0468(6) 0.4456(3)
H4E H 0.2654(3) -0.0447(6) 0.4089(3)
Cl1E Cl 0.48386(7) -0.2863(2) 0.48506(8)
N4F N -0.0777(2) -0.1573(5) 0.2533(2)
C8F C -0.0954(3) -0.1703(6) 0.3119(3)
H5F H -0.0728(3) -0.1080(6) 0.3544(3)
C9F C -0.1455(3) -0.2718(7) 0.3125(3)
H6F H -0.1560(3) -0.2794(7) 0.3547(3)
C10F C -0.1794(3) -0.3614(6) 0.2488(3)
C11F C -0.1619(3) -0.3517(7) 0.1870(3)
H7F H -0.1839(3) -0.4129(7) 0.1438(3)
C12F C -0.1104(3) -0.2476(6) 0.1919(3)
H8F H -0.0979(3) -0.2397(6) 0.1510(3)
Cl2F Cl -0.24532(7) -0.4866(2) 0.24301(8)
N1F N -0.0593(2) 0.0245(6) 0.1187(3)
S2F S -0.08198(7) 0.2487(2) 0.27618(8)
Cd2C Cd 0.5000 0.46125(6) 0.7500
loop_
_geom_bond_atom_site_label_1
_geom_bond_atom_site_label_2
_geom_bond_site_symmetry_1
_geom_bond_site_symmetry_2
Cd1 S1 1_555 1_555
Cd2 N1 1_555 1_555
S1 C1 1_555 1_555
C1 N1 1_555 1_555
S2 Cd2 1_555 1_555
C2 S2 1_555 1_555
N2 Cd1 1_555 1_555
N3 Cd1 1_555 1_555
C3 N3 1_555 1_555
H1 C3 1_555 1_555
C4 C3 1_555 1_555
H2 C4 1_555 1_555
C5 C4 1_555 1_555
C6 C5 1_555 1_555
H3 C6 1_555 1_555
C7 N3 1_555 1_555
H4 C7 1_555 1_555
Cl1 C5 1_555 1_555
N4 Cd2 1_555 1_555
C8 N4 1_555 1_555
H5 C8 1_555 1_555
C9 C8 1_555 1_555
H6 C9 1_555 1_555
C10 C9 1_555 1_555
C11 C10 1_555 1_555
H7 C11 1_555 1_555
C12 N4 1_555 1_555
H8 C12 1_555 1_555
Cl2 C10 1_555 1_555
S1E Cd1 1_555 1_555
C1E S1E 1_555 1_555
N1E C1E 1_555 1_555
S2E C2E 1_555 1_555
C2E N2E 1_555 1_555
N2E Cd1 1_555 1_555
N3E Cd1 1_555 1_555
C3E N3E 1_555 1_555
H1E C3E 1_555 1_555
C4E C3E 1_555 1_555
H2E C4E 1_555 1_555
C5E C4E 1_555 1_555
C6E C5E 1_555 1_555
H3E C6E 1_555 1_555
C7E N3E 1_555 1_555
H4E C7E 1_555 1_555
Cl1E C5E 1_555 1_555
N4F Cd2 1_555 1_555
C8F N4F 1_555 1_555
H5F C8F 1_555 1_555
C9F C8F 1_555 1_555
H6F C9F 1_555 1_555
C10F C9F 1_555 1_555
C11F C10F 1_555 1_555
H7F C11F 1_555 1_555
C12F N4F 1_555 1_555
H8F C12F 1_555 1_555
Cl2F C10F 1_555 1_555
N1F Cd2 1_555 1_555
S2F Cd2 1_555 1_555
Cd2C N1E 1_555 1_555
C2 N2 1_555 1_555
C6 C7 1_555 1_555
C11 C12 1_555 1_555
S2E Cd2C 1_555 1_555
C6E C7E 1_555 1_555
C11F C12F 1_555 1_555

#END
