
#######################################################################
#
#                 Cambridge Crystallographic Data Centre
#                                CCDC 
#
#######################################################################
#
# If this CIF has been generated from an entry in the Cambridge 
# Structural Database, then it will include bibliographic, chemical, 
# crystal, experimental, refinement or atomic coordinate data resulting 
# from the CCDC's data processing and validation procedures.
#
#######################################################################

data_EMATIV
_symmetry_cell_setting           orthorhombic
_symmetry_space_group_name_H-M   'P b c a'
_symmetry_Int_Tables_number      61
_space_group_name_Hall           '-P 2ac 2ab'
loop_
_symmetry_equiv_pos_site_id
_symmetry_equiv_pos_as_xyz
1 x,y,z
2 1/2-x,1/2+y,z
3 x,1/2-y,1/2+z
4 1/2+x,y,1/2-z
5 -x,-y,-z
6 1/2+x,1/2-y,-z
7 -x,1/2+y,1/2-z
8 1/2-x,-y,1/2+z
_cell_length_a                   8.956(1)
_cell_length_b                   23.136(1)
_cell_length_c                   31.150(2)
_cell_angle_alpha                90
_cell_angle_beta                 90
_cell_angle_gamma                90
_cell_volume                     6454.47
loop_
_atom_site_label
_atom_site_type_symbol
_atom_site_fract_x
_atom_site_fract_y
_atom_site_fract_z
Ag1 Ag 0.14070(9) 0.19650(4) 0.36695(3)
P1 P 0.0683(3) 0.1045(1) 0.39907(9)
P2 P -0.4572(3) 0.2852(1) 0.16391(10)
O1 O -0.2701(8) 0.0084(4) 0.3150(3)
O2 O -0.6889(9) 0.1645(4) 0.2207(3)
O3 O 0.3355(10) 0.2280(4) 0.4178(3)
O4 O 0.4191(9) 0.1839(4) 0.3598(3)
N1 N -0.441(1) 0.0781(4) 0.3287(3)
N2 N -0.471(1) 0.1382(5) 0.2487(3)
C1 C 0.232(1) 0.0615(5) 0.4113(3)
C2 C 0.269(1) 0.0099(5) 0.3918(4)
C3 C 0.400(1) -0.0188(6) 0.4022(4)
C4 C 0.492(1) 0.0030(6) 0.4320(4)
C5 C 0.464(1) 0.0535(6) 0.4515(4)
C6 C 0.332(1) 0.0839(6) 0.4405(4)
C7 C -0.0215(10) 0.1110(5) 0.4508(3)
C8 C -0.078(1) 0.0637(5) 0.4717(4)
C9 C -0.151(1) 0.0688(6) 0.5105(4)
C10 C -0.165(1) 0.1214(7) 0.5276(4)
C11 C -0.113(1) 0.1690(7) 0.5098(5)
C12 C -0.036(1) 0.1627(6) 0.4700(4)
C13 C -0.056(1) 0.0563(5) 0.3699(3)
C14 C -0.208(1) 0.0839(5) 0.3648(4)
C15 C -0.311(1) 0.0520(6) 0.3336(4)
C16 C -0.550(1) 0.0596(5) 0.2963(4)
C17 C -0.504(1) 0.0763(6) 0.2514(4)
C18 C -0.567(2) 0.1775(7) 0.2360(4)
C19 C -0.527(1) 0.2401(6) 0.2438(4)
C20 C -0.587(1) 0.2788(5) 0.2089(4)
C21 C -0.318(1) 0.3376(5) 0.1813(3)
C22 C -0.186(1) 0.3386(6) 0.1594(4)
C23 C -0.075(2) 0.3801(7) 0.1710(5)
C24 C -0.097(1) 0.4179(6) 0.2019(5)
C25 C -0.225(2) 0.4174(6) 0.2248(5)
C26 C -0.343(1) 0.3770(6) 0.2140(4)
C27 C -0.563(1) 0.3235(5) 0.1237(3)
C28 C -0.535(1) 0.3109(7) 0.0812(5)
C29 C -0.620(2) 0.3365(7) 0.0484(5)
C30 C -0.729(2) 0.3733(7) 0.0600(5)
C31 C -0.747(1) 0.3915(6) 0.0985(5)
C32 C -0.665(1) 0.3655(6) 0.1332(4)
C33 C 0.436(2) 0.2081(8) 0.3945(5)
C34 C 0.597(2) 0.2177(8) 0.4094(6)
H1 H 0.2034 -0.0063 0.3710
H2 H 0.4249 -0.0539 0.3881
H3 H 0.5789 -0.0180 0.4396
H4 H 0.5310 0.0687 0.4723
H5 H 0.3120 0.1203 0.4535
H6 H -0.0675 0.0265 0.4591
H7 H -0.1903 0.0357 0.5246
H8 H -0.2159 0.1247 0.5543
H9 H -0.1257 0.2057 0.5229
H10 H 0.0052 0.1959 0.4567
H11 H -0.1678 0.3120 0.1367
H12 H 0.0170 0.3805 0.1559
H13 H -0.0215 0.4457 0.2082
H14 H -0.2373 0.4436 0.2481
H15 H -0.4359 0.3775 0.2290
H16 H -0.4578 0.2845 0.0741
H17 H -0.6006 0.3282 0.0191
H18 H -0.7957 0.3866 0.0385
H19 H -0.8143 0.4222 0.1042
H20 H -0.6818 0.3772 0.1621
H21 H -0.0149 0.0486 0.3424
H22 H -0.0658 0.0211 0.3854
H23 H -0.2545 0.0849 0.3921
H24 H -0.1940 0.1222 0.3546
H25 H -0.5594 0.0187 0.2977
H26 H -0.6431 0.0770 0.3026
H27 H -0.5827 0.0673 0.2321
H28 H -0.4171 0.0551 0.2436
H29 H -0.5681 0.2519 0.2706
H30 H -0.4215 0.2437 0.2447
H31 H -0.6044 0.3161 0.2205
H32 H -0.6785 0.2631 0.1987
H33 H 0.6449 0.1814 0.4130
H34 H 0.6492 0.2398 0.3886
H35 H 0.5965 0.2378 0.4360
H36 H -0.4619 0.1069 0.3451
H37 H -0.3833 0.1495 0.2558
P2C P 0.0428(3) 0.2852(1) 0.33609(10)
Ag1C Ag -0.35930(9) 0.19650(4) 0.13305(3)
loop_
_geom_bond_atom_site_label_1
_geom_bond_atom_site_label_2
_geom_bond_site_symmetry_1
_geom_bond_site_symmetry_2
Ag1 P1 1_555 1_555
P1 C1 1_555 1_555
P2 C20 1_555 1_555
O1 C15 1_555 1_555
O2 C18 1_555 1_555
O3 Ag1 1_555 1_555
O4 Ag1 1_555 1_555
N1 C15 1_555 1_555
N2 C17 1_555 1_555
C1 C2 1_555 1_555
C2 C3 1_555 1_555
C3 C4 1_555 1_555
C4 C5 1_555 1_555
C5 C6 1_555 1_555
C6 C1 1_555 1_555
C7 P1 1_555 1_555
C8 C7 1_555 1_555
C9 C8 1_555 1_555
C10 C9 1_555 1_555
C11 C10 1_555 1_555
C12 C7 1_555 1_555
C13 P1 1_555 1_555
C14 C13 1_555 1_555
C15 C14 1_555 1_555
C16 N1 1_555 1_555
C17 C16 1_555 1_555
C18 N2 1_555 1_555
C19 C18 1_555 1_555
C20 C19 1_555 1_555
C21 P2 1_555 1_555
C22 C21 1_555 1_555
C23 C22 1_555 1_555
C24 C23 1_555 1_555
C25 C24 1_555 1_555
C26 C21 1_555 1_555
C27 P2 1_555 1_555
C28 C27 1_555 1_555
C29 C28 1_555 1_555
C30 C29 1_555 1_555
C31 C30 1_555 1_555
C32 C27 1_555 1_555
C33 O3 1_555 1_555
C34 C33 1_555 1_555
H1 C2 1_555 1_555
H2 C3 1_555 1_555
H3 C4 1_555 1_555
H4 C5 1_555 1_555
H5 C6 1_555 1_555
H6 C8 1_555 1_555
H7 C9 1_555 1_555
H8 C10 1_555 1_555
H9 C11 1_555 1_555
H10 C12 1_555 1_555
H11 C22 1_555 1_555
H12 C23 1_555 1_555
H13 C24 1_555 1_555
H14 C25 1_555 1_555
H15 C26 1_555 1_555
H16 C28 1_555 1_555
H17 C29 1_555 1_555
H18 C30 1_555 1_555
H19 C31 1_555 1_555
H20 C32 1_555 1_555
H21 C13 1_555 1_555
H22 C13 1_555 1_555
H23 C14 1_555 1_555
H24 C14 1_555 1_555
H25 C16 1_555 1_555
H26 C16 1_555 1_555
H27 C17 1_555 1_555
H28 C17 1_555 1_555
H29 C19 1_555 1_555
H30 C19 1_555 1_555
H31 C20 1_555 1_555
H32 C20 1_555 1_555
H33 C34 1_555 1_555
H34 C34 1_555 1_555
H35 C34 1_555 1_555
H36 N1 1_555 1_555
H37 N2 1_555 1_555
P2C Ag1 1_555 1_555
Ag1C P2 1_555 1_555
O4 C33 1_555 1_555
C11 C12 1_555 1_555
C25 C26 1_555 1_555
C31 C32 1_555 1_555

#END
