
#######################################################################
#
#                 Cambridge Crystallographic Data Centre
#                                CCDC 
#
#######################################################################
#
# If this CIF has been generated from an entry in the Cambridge 
# Structural Database, then it will include bibliographic, chemical, 
# crystal, experimental, refinement or atomic coordinate data resulting 
# from the CCDC's data processing and validation procedures.
#
#######################################################################

data_EMAVAP01
_symmetry_cell_setting           monoclinic
_symmetry_space_group_name_H-M   'P 21/c'
_symmetry_Int_Tables_number      14
_space_group_name_Hall           '-P 2ybc'
loop_
_symmetry_equiv_pos_site_id
_symmetry_equiv_pos_as_xyz
1 x,y,z
2 x,1/2-y,1/2+z
3 -x,-y,-z
4 -x,1/2+y,1/2-z
_cell_length_a                   9.741(2)
_cell_length_b                   7.4423(16)
_cell_length_c                   10.271(2)
_cell_angle_alpha                90
_cell_angle_beta                 100.038(4)
_cell_angle_gamma                90
_cell_volume                     733.203
loop_
_atom_site_label
_atom_site_type_symbol
_atom_site_fract_x
_atom_site_fract_y
_atom_site_fract_z
Zn1 Zn 0.37334(12) 0.43403(17) 0.13929(12)
P1 P 0.3380(3) 0.3804(4) -0.1744(3)
H1 H 0.232(11) 0.506(13) -0.1793(6)
O1 O 0.3784(8) 0.3272(10) -0.0314(7)
O2 O 0.4538(7) 0.4734(11) -0.2305(7)
O3 O 0.2758(7) 0.2223(10) -0.2575(7)
N1 N 0.2396(9) 0.6475(12) 0.0970(9)
C1 C 0.2758(11) 0.7941(15) 0.0367(11)
H2 H 0.3664 0.8030 0.0201
C2 C 0.1851(10) 0.9318(16) -0.0019(10)
H3 H 0.2150 1.0315 -0.0438
C3 C 0.0503(10) 0.9245(14) 0.0206(10)
C4 C 0.0161(13) 0.7759(17) 0.0883(15)
H4 H -0.0725 0.7676 0.1099
C5 C 0.1095(13) 0.6407(17) 0.1243(15)
H5 H 0.0827 0.5413 0.1688
C3B C -0.0503(10) 1.0755(14) -0.0206(10)
C2B C -0.1851(10) 1.0682(16) 0.0019(10)
C1B C -0.2758(11) 1.2059(15) -0.0367(11)
N1B N -0.2396(9) 1.3525(12) -0.0970(9)
C5B C -0.1095(13) 1.3593(17) -0.1243(15)
C4B C -0.0161(13) 1.2241(17) -0.0883(15)
H4B H 0.0725 1.2324 -0.1099
H5B H -0.0827 1.4587 -0.1688
H2B H -0.3664 1.1970 -0.0201
H3B H -0.2150 0.9685 0.0438
P1B P 0.6620(3) 0.6196(4) 0.1744(3)
H1B H 0.768(11) 0.494(13) 0.1793(6)
O1B O 0.6216(8) 0.6728(10) 0.0314(7)
O2B O 0.5462(7) 0.5266(11) 0.2305(7)
O3B O 0.7242(7) 0.7777(10) 0.2575(7)
Zn1B Zn 0.62666(12) 0.56597(17) -0.13929(12)
O3A O 0.2758(7) 0.2777(10) 0.2425(7)
Zn1A Zn 0.37334(12) 0.06597(17) -0.36071(12)
Zn1B_2 Zn -0.37334(12) 1.56597(17) -0.13929(12)
Zn1C Zn 0.62666(12) 0.93403(17) 0.36071(12)
O3C O 0.7242(7) 0.7223(10) -0.2425(7)
N1B_2 N 0.7604(9) 0.3525(12) -0.0970(9)
loop_
_geom_bond_atom_site_label_1
_geom_bond_atom_site_label_2
_geom_bond_site_symmetry_1
_geom_bond_site_symmetry_2
Zn1 O1 1_555 1_555
P1 H1 1_555 1_555
O1 P1 1_555 1_555
O2 P1 1_555 1_555
O3 P1 1_555 1_555
N1 Zn1 1_555 1_555
C1 N1 1_555 1_555
H2 C1 1_555 1_555
C2 C1 1_555 1_555
H3 C2 1_555 1_555
C3 C2 1_555 1_555
C4 C3 1_555 1_555
H4 C4 1_555 1_555
C5 N1 1_555 1_555
H5 C5 1_555 1_555
C3B C3 1_555 1_555
C2B C3B 1_555 1_555
C1B C2B 1_555 1_555
N1B C1B 1_555 1_555
C5B N1B 1_555 1_555
C4B C3B 1_555 1_555
H4B C4B 1_555 1_555
H5B C5B 1_555 1_555
H2B C1B 1_555 1_555
H3B C2B 1_555 1_555
P1B H1B 1_555 1_555
O1B P1B 1_555 1_555
O2B Zn1 1_555 1_555
O3B P1B 1_555 1_555
Zn1B O2 1_555 1_555
O3A Zn1 1_555 1_555
Zn1A O3 1_555 1_555
Zn1B_2 N1B 1_555 1_555
Zn1C O3B 1_555 1_555
O3C Zn1B 1_555 1_555
N1B_2 Zn1B 1_555 1_555
C4 C5 1_555 1_555
C5B C4B 1_555 1_555
P1B O2B 1_555 1_555
O1B Zn1B 1_555 1_555

#END
