
#######################################################################
#
#                 Cambridge Crystallographic Data Centre
#                                CCDC 
#
#######################################################################
#
# If this CIF has been generated from an entry in the Cambridge 
# Structural Database, then it will include bibliographic, chemical, 
# crystal, experimental, refinement or atomic coordinate data resulting 
# from the CCDC's data processing and validation procedures.
#
#######################################################################

data_EMAVAP
_symmetry_cell_setting           monoclinic
_symmetry_space_group_name_H-M   'P 21/c'
_symmetry_Int_Tables_number      14
_space_group_name_Hall           '-P 2ybc'
loop_
_symmetry_equiv_pos_site_id
_symmetry_equiv_pos_as_xyz
1 x,y,z
2 x,1/2-y,1/2+z
3 -x,-y,-z
4 -x,1/2+y,1/2-z
_cell_length_a                   9.758(2)
_cell_length_b                   7.449(3)
_cell_length_c                   10.277(2)
_cell_angle_alpha                90
_cell_angle_beta                 100.02(2)
_cell_angle_gamma                90
_cell_volume                     735.614
loop_
_atom_site_label
_atom_site_type_symbol
_atom_site_fract_x
_atom_site_fract_y
_atom_site_fract_z
Zn1 Zn 0.37336(8) 0.06613(9) 0.63916(7)
P1 P 0.33769(18) 0.3807(2) 0.82532(15)
O1 O 0.2760(4) 0.2231(5) 0.7408(4)
O2 O 0.4537(5) 0.4716(6) 0.7724(4)
O3 O 0.3791(5) 0.3293(5) 0.9690(4)
N1 N 0.2402(5) -0.1461(7) 0.5975(5)
C1 C 0.1047(5) -0.1408(9) 0.6225(8)
H1 H 0.0764 -0.0415 0.6659
C2 C 0.0138(8) -0.2735(9) 0.5864(9)
H2 H -0.0756 -0.2640 0.6056
C3 C 0.0492(5) -0.4253(8) 0.5208(6)
C4 C 0.1854(5) -0.4326(8) 0.4981(6)
H3 H 0.2163 -0.5323 0.4571
C5 C 0.2735(7) -0.2927(8) 0.5364(6)
H4 H 0.3635 -0.3005 0.5184
H5 H 0.228(5) 0.485(6) 0.811(5)
C3B C -0.0492(5) -0.5747(8) 0.4792(6)
C2B C -0.0138(8) -0.7265(9) 0.4136(9)
C1B C -0.1047(5) -0.8592(9) 0.3775(8)
N1B N -0.2402(5) -0.8539(7) 0.4025(5)
C5B C -0.2735(7) -0.7073(8) 0.4636(6)
C4B C -0.1854(5) -0.5674(8) 0.5019(6)
H3B H -0.2163 -0.4677 0.5429
H4B H -0.3635 -0.6995 0.4816
H1B H -0.0764 -0.9585 0.3341
H2B H 0.0756 -0.7360 0.3944
P1C P 0.66231(18) -0.1193(2) 0.67468(15)
O1C O 0.7240(4) -0.2769(5) 0.7592(4)
O2C O 0.5463(5) -0.0284(6) 0.7276(4)
O3C O 0.6209(5) -0.1707(5) 0.5310(4)
H5C H 0.772(5) -0.015(6) 0.689(5)
Zn1C Zn 0.62664(8) -0.43387(9) 0.86084(7)
O3A O 0.3791(5) 0.1707(5) 0.4690(4)
Zn1C_2 Zn 0.62664(8) 0.56613(9) 0.86084(7)
Zn1A Zn 0.37336(8) 0.43387(9) 1.13916(7)
Zn1B Zn -0.37336(8) -1.06613(9) 0.36084(7)
Zn1B_2 Zn 0.62664(8) -0.06613(9) 0.36084(7)
O2_2 O 0.4537(5) -0.5284(6) 0.7724(4)
O3B O 0.6209(5) -0.3293(5) 1.0310(4)
N1C N 0.7598(5) -0.6461(7) 0.9025(5)
loop_
_geom_bond_atom_site_label_1
_geom_bond_atom_site_label_2
_geom_bond_site_symmetry_1
_geom_bond_site_symmetry_2
Zn1 O1 1_555 1_555
P1 O1 1_555 1_555
O2 P1 1_555 1_555
O3 P1 1_555 1_555
N1 Zn1 1_555 1_555
C1 N1 1_555 1_555
H1 C1 1_555 1_555
C2 C1 1_555 1_555
H2 C2 1_555 1_555
C3 C2 1_555 1_555
C4 C3 1_555 1_555
H3 C4 1_555 1_555
C5 N1 1_555 1_555
H4 C5 1_555 1_555
H5 P1 1_555 1_555
C3B C3 1_555 1_555
C2B C3B 1_555 1_555
C1B C2B 1_555 1_555
N1B C1B 1_555 1_555
C5B N1B 1_555 1_555
C4B C3B 1_555 1_555
H3B C4B 1_555 1_555
H4B C5B 1_555 1_555
H1B C1B 1_555 1_555
H2B C2B 1_555 1_555
P1C O1C 1_555 1_555
O1C Zn1C 1_555 1_555
O2C Zn1 1_555 1_555
O3C P1C 1_555 1_555
H5C P1C 1_555 1_555
Zn1C O2_2 1_555 1_555
O3A Zn1 1_555 1_555
Zn1C_2 O2 1_555 1_555
Zn1A O3 1_555 1_555
Zn1B N1B 1_555 1_555
Zn1B_2 O3C 1_555 1_555
O3B Zn1C 1_555 1_555
N1C Zn1C 1_555 1_555
C4 C5 1_555 1_555
C5B C4B 1_555 1_555
P1C O2C 1_555 1_555

#END
