
#######################################################################
#
#                 Cambridge Crystallographic Data Centre
#                                CCDC 
#
#######################################################################
#
# If this CIF has been generated from an entry in the Cambridge 
# Structural Database, then it will include bibliographic, chemical, 
# crystal, experimental, refinement or atomic coordinate data resulting 
# from the CCDC's data processing and validation procedures.
#
#######################################################################

data_EMAWIY
_symmetry_cell_setting           triclinic
_symmetry_space_group_name_H-M   'P -1'
_symmetry_Int_Tables_number      2
_space_group_name_Hall           '-P 1'
loop_
_symmetry_equiv_pos_site_id
_symmetry_equiv_pos_as_xyz
1 x,y,z
2 -x,-y,-z
_cell_length_a                   9.3053(17)
_cell_length_b                   10.1542(19)
_cell_length_c                   12.885(2)
_cell_angle_alpha                69.735(3)
_cell_angle_beta                 75.696(3)
_cell_angle_gamma                67.129(3)
_cell_volume                     1043.38
loop_
_atom_site_label
_atom_site_type_symbol
_atom_site_fract_x
_atom_site_fract_y
_atom_site_fract_z
Cu1 Cu 0.53959(3) 0.56425(3) 0.595484(19)
N1 N 0.6508(2) 0.6929(2) 0.47258(14)
C1 C 0.7966(3) 0.6288(3) 0.42572(19)
H1 H 0.8417 0.5245 0.4491
C2 C 0.8826(3) 0.7086(3) 0.34551(19)
H2 H 0.9834 0.6593 0.3139
C3 C 0.8194(3) 0.8627(3) 0.31144(17)
C4 C 0.6691(3) 0.9304(3) 0.35914(18)
H3 H 0.6226 1.0346 0.3380
C5 C 0.5887(3) 0.8423(3) 0.43801(18)
H4 H 0.4862 0.8888 0.4689
O1 O 1.0191(2) 0.8867(2) 0.15933(16)
C6 C 0.9177(3) 0.9480(3) 0.22480(18)
N2 N 0.8886(3) 1.0854(3) 0.22547(19)
H5 H 0.939(4) 1.142(4) 0.180(3)
H6 H 0.828(4) 1.117(3) 0.280(3)
N3 N 0.4278(2) 0.4443(2) 0.72652(14)
C7 C 0.2955(3) 0.5099(3) 0.78559(19)
H7 H 0.2549 0.6145 0.7657
C8 C 0.2160(3) 0.4314(3) 0.87415(19)
H8 H 0.1238 0.4819 0.9139
C9 C 0.2737(3) 0.2764(3) 0.90416(17)
C10 C 0.4119(3) 0.2078(3) 0.84446(18)
H9 H 0.4550 0.1034 0.8628
C11 C 0.4856(3) 0.2946(3) 0.75766(18)
H10 H 0.5804 0.2470 0.7186
O2 O 0.0691(2) 0.2607(2) 1.05578(16)
C12 C 0.1815(3) 0.1924(3) 0.99837(19)
N4 N 0.2266(3) 0.0472(3) 1.0150(2)
H11 H 0.174(4) 0.001(4) 1.057(3)
H12 H 0.285(4) 0.006(4) 0.968(3)
O3 O 0.36829(18) 0.62515(17) 0.50434(12)
C13 C 0.2576(3) 0.7443(3) 0.51719(18)
O4 O 0.2604(2) 0.8116(2) 0.57972(14)
C14 C 0.1226(4) 0.8016(4) 0.4520(3)
H13 H 0.0471 0.8917 0.4689
H14 H 0.0724 0.7270 0.4719
H15 H 0.1609 0.8235 0.3728
O5 O 0.7143(2) 0.49748(19) 0.68134(13)
C15 C 0.6838(3) 0.5854(3) 0.7405(2)
O6 O 0.5613(2) 0.6946(2) 0.73859(16)
C16 C 0.8054(4) 0.5503(5) 0.8137(3)
H16 H 0.7704 0.6239 0.8546
H17 H 0.9046 0.5524 0.7676
H18 H 0.8192 0.4522 0.8659
O3A O 0.63171(18) 0.37485(17) 0.49566(12)
Cu1A Cu 0.46041(3) 0.43575(3) 0.404516(19)
O7 O 0.4459(3) 0.8205(2) 0.91321(17)
H19 H 0.4935 0.7936 0.8565
C17 C 0.3804(5) 0.7118(3) 0.9880(3)
H20 H 0.3353 0.6773 0.9464
H21 H 0.2990 0.7553 1.0417
H22 H 0.4623 0.6285 1.0268
C18 C 0.797(2) 0.877(2) 0.6425(15)
H23 H 0.8235 0.7698 0.6721
H24 H 0.8926 0.9013 0.6100
H25 H 0.7284 0.9136 0.5857
O8 O 0.7282(16) 0.9369(15) 0.7200(11)
H26 H 0.6402 0.9964 0.7046
loop_
_geom_bond_atom_site_label_1
_geom_bond_atom_site_label_2
_geom_bond_site_symmetry_1
_geom_bond_site_symmetry_2
Cu1 N1 1_555 1_555
N1 C1 1_555 1_555
C1 H1 1_555 1_555
C2 C1 1_555 1_555
H2 C2 1_555 1_555
C3 C2 1_555 1_555
C4 C3 1_555 1_555
H3 C4 1_555 1_555
C5 N1 1_555 1_555
H4 C5 1_555 1_555
O1 C6 1_555 1_555
C6 C3 1_555 1_555
N2 C6 1_555 1_555
H5 N2 1_555 1_555
H6 N2 1_555 1_555
N3 Cu1 1_555 1_555
C7 N3 1_555 1_555
H7 C7 1_555 1_555
C8 C7 1_555 1_555
H8 C8 1_555 1_555
C9 C8 1_555 1_555
C10 C9 1_555 1_555
H9 C10 1_555 1_555
C11 N3 1_555 1_555
H10 C11 1_555 1_555
O2 C12 1_555 1_555
C12 C9 1_555 1_555
N4 C12 1_555 1_555
H11 N4 1_555 1_555
H12 N4 1_555 1_555
O3 Cu1 1_555 1_555
C13 O3 1_555 1_555
O4 C13 1_555 1_555
C14 C13 1_555 1_555
H13 C14 1_555 1_555
H14 C14 1_555 1_555
H15 C14 1_555 1_555
O5 Cu1 1_555 1_555
C15 O5 1_555 1_555
O6 C15 1_555 1_555
C16 C15 1_555 1_555
H16 C16 1_555 1_555
H17 C16 1_555 1_555
H18 C16 1_555 1_555
O7 H19 1_555 1_555
C17 O7 1_555 1_555
H20 C17 1_555 1_555
H21 C17 1_555 1_555
H22 C17 1_555 1_555
C18 H23 1_555 1_555
H24 C18 1_555 1_555
H25 C18 1_555 1_555
O8 C18 1_555 1_555
H26 O8 1_555 1_555
O3A Cu1 1_555 1_555
Cu1A O3 1_555 1_555
C4 C5 1_555 1_555
C10 C11 1_555 1_555
O3A Cu1A 1_555 1_555

#END
