
#######################################################################
#
#                 Cambridge Crystallographic Data Centre
#                                CCDC 
#
#######################################################################
#
# If this CIF has been generated from an entry in the Cambridge 
# Structural Database, then it will include bibliographic, chemical, 
# crystal, experimental, refinement or atomic coordinate data resulting 
# from the CCDC's data processing and validation procedures.
#
#######################################################################

data_EMAYAT
_symmetry_cell_setting           triclinic
_symmetry_space_group_name_H-M   'P -1'
_symmetry_Int_Tables_number      2
_space_group_name_Hall           '-P 1'
loop_
_symmetry_equiv_pos_site_id
_symmetry_equiv_pos_as_xyz
1 x,y,z
2 -x,-y,-z
_cell_length_a                   9.3376(5)
_cell_length_b                   11.2636(5)
_cell_length_c                   16.7560(8)
_cell_angle_alpha                98.701(4)
_cell_angle_beta                 94.538(4)
_cell_angle_gamma                112.325(4)
_cell_volume                     1593.38
loop_
_atom_site_label
_atom_site_type_symbol
_atom_site_fract_x
_atom_site_fract_y
_atom_site_fract_z
Co1 Co 0.27672(3) 0.02690(3) 0.862517(17)
Co2 Co 0.28831(3) -0.65891(2) 0.511980(16)
O1 O 0.3043(2) -0.49639(13) 0.60321(9)
O2 O 0.24022(16) -0.68929(12) 0.63501(8)
O3 O 0.71300(16) 0.57403(13) 0.58785(8)
O4 O 0.51751(15) 0.37675(13) 0.54641(8)
O5 O 0.35103(17) 0.14688(13) 0.77882(8)
O6 O 0.52984(18) 0.15638(15) 0.87521(9)
O7 O 0.3025(2) -0.13130(14) 0.79417(9)
O8 O 0.27832(19) -0.13385(14) 0.92172(9)
N1 N 0.04189(19) -0.74573(15) 0.47449(10)
N2 N 0.24515(19) -0.85144(15) 0.45181(10)
N3 N 0.0301(2) -0.04074(16) 0.83260(10)
N4 N 0.2232(2) 0.14686(16) 0.95079(10)
C1 C -0.0525(3) -0.6822(2) 0.48515(15)
H1 H -0.0137 -0.6009 0.5202
C2 C -0.2038(3) -0.7317(3) 0.44670(18)
H2 H -0.2663 -0.6846 0.4547
C3 C -0.2610(3) -0.8523(3) 0.39617(15)
H3 H -0.3625 -0.8871 0.3681
C4 C -0.1685(3) -0.9215(3) 0.38709(13)
H4 H -0.2075 -1.0049 0.3546
C5 C -0.0163(2) -0.86528(19) 0.42698(11)
C6 C 0.0968(2) -0.92791(18) 0.41824(11)
C7 C 0.0552(3) -1.0559(2) 0.37814(13)
H5 H -0.0481 -1.1073 0.3549
C8 C 0.1680(4) -1.1062(2) 0.37299(16)
H6 H 0.1419 -1.192 0.3464
C9 C 0.3192(3) -1.0284(2) 0.40740(16)
H7 H 0.3976 -1.0602 0.4045
C10 C 0.3530(3) -0.9024(2) 0.44636(14)
H8 H 0.4558 -0.85 0.4701
C11 C -0.0630(3) -0.1404(2) 0.77278(13)
H9 H -0.0189 -0.1908 0.743
C12 C -0.2198(3) -0.1713(3) 0.75344(16)
H10 H -0.2806 -0.2417 0.7118
C13 C -0.2850(3) -0.0978(3) 0.79592(19)
H11 H -0.3909 -0.116 0.783
C14 C -0.1927(3) 0.0046(2) 0.85875(17)
H12 H -0.2358 0.0554 0.8889
C15 C -0.0353(3) 0.0303(2) 0.87612(13)
C16 C 0.0737(3) 0.1339(2) 0.94413(13)
C17 C 0.0263(4) 0.2112(2) 0.99908(16)
H13 H -0.0774 0.2023 0.9937
C18 C 0.1357(5) 0.3019(3) 1.06216(18)
H14 H 0.106 0.354 1.1001
C19 C 0.2863(4) 0.3142(3) 1.06827(16)
H15 H 0.3611 0.3752 1.1102
C20 C 0.3275(3) 0.2355(2) 1.01178(14)
H16 H 0.4311 0.2442 1.0162
C21 C 0.4928(2) 0.19059(19) 0.81182(12)
C22 C 0.6153(2) 0.28716(18) 0.77449(12)
C23 C 0.7692(2) 0.3429(2) 0.81112(12)
H17 H 0.7988 0.3182 0.8582
C24 C 0.8800(2) 0.4356(2) 0.77803(13)
H18 H 0.9843 0.4717 0.8023
C25 C 0.8366(2) 0.47485(19) 0.70908(12)
H19 H 0.9108 0.5398 0.6884
C26 C 0.6822(2) 0.41724(18) 0.67068(11)
C27 C 0.5729(2) 0.32200(17) 0.70334(11)
H20 H 0.4699 0.2811 0.6771
C28 C 0.6324(2) 0.45925(19) 0.59590(11)
C29 C 0.2732(2) -0.5689(2) 0.65502(12)
C30 C 0.2789(2) -0.50859(18) 0.74195(12)
C31 C 0.2702(3) -0.5784(2) 0.80428(13)
H21 H 0.2635 -0.6639 0.7928
C32 C 0.2716(3) -0.5206(2) 0.88337(13)
H22 H 0.2682 -0.5668 0.9252
C33 C 0.2782(2) -0.3939(2) 0.90079(13)
H23 H 0.2756 -0.3565 0.9538
C34 C 0.2884(2) -0.32355(19) 0.83934(12)
C35 C 0.2891(2) -0.38164(18) 0.76034(12)
H24 H 0.2966 -0.3341 0.7189
C36 C 0.2904(2) -0.1881(2) 0.85356(13)
Co2A Co 0.71169(3) 0.65891(2) 0.488020(16)
Co2_2 Co 0.28831(3) 0.34109(2) 0.511980(16)
O3A O 0.28700(16) -0.57403(13) 0.41215(8)
O4_2 O 0.51751(15) -0.62325(13) 0.54641(8)
loop_
_geom_bond_atom_site_label_1
_geom_bond_atom_site_label_2
_geom_bond_site_symmetry_1
_geom_bond_site_symmetry_2
Co1 O5 1_555 1_555
Co2 O1 1_555 1_555
O1 C29 1_555 1_555
O2 Co2 1_555 1_555
O3 C28 1_555 1_555
O4 C28 1_555 1_555
O5 C21 1_555 1_555
O6 Co1 1_555 1_555
O7 Co1 1_555 1_555
O8 Co1 1_555 1_555
N1 Co2 1_555 1_555
N2 Co2 1_555 1_555
N3 Co1 1_555 1_555
N4 Co1 1_555 1_555
C1 N1 1_555 1_555
H1 C1 1_555 1_555
C2 C1 1_555 1_555
H2 C2 1_555 1_555
C3 C2 1_555 1_555
H3 C3 1_555 1_555
C4 C3 1_555 1_555
H4 C4 1_555 1_555
C5 N1 1_555 1_555
C6 N2 1_555 1_555
C7 C6 1_555 1_555
H5 C7 1_555 1_555
C8 C7 1_555 1_555
H6 C8 1_555 1_555
C9 C8 1_555 1_555
H7 C9 1_555 1_555
C10 N2 1_555 1_555
H8 C10 1_555 1_555
C11 N3 1_555 1_555
H9 C11 1_555 1_555
C12 C11 1_555 1_555
H10 C12 1_555 1_555
C13 C12 1_555 1_555
H11 C13 1_555 1_555
C14 C13 1_555 1_555
H12 C14 1_555 1_555
C15 N3 1_555 1_555
C16 N4 1_555 1_555
C17 C16 1_555 1_555
H13 C17 1_555 1_555
C18 C17 1_555 1_555
H14 C18 1_555 1_555
C19 C18 1_555 1_555
H15 C19 1_555 1_555
C20 N4 1_555 1_555
H16 C20 1_555 1_555
C21 O6 1_555 1_555
C22 C21 1_555 1_555
C23 C22 1_555 1_555
H17 C23 1_555 1_555
C24 C23 1_555 1_555
H18 C24 1_555 1_555
C25 C24 1_555 1_555
H19 C25 1_555 1_555
C26 C25 1_555 1_555
C27 C22 1_555 1_555
H20 C27 1_555 1_555
C28 C26 1_555 1_555
C29 O2 1_555 1_555
C30 C29 1_555 1_555
C31 C30 1_555 1_555
H21 C31 1_555 1_555
C32 C31 1_555 1_555
H22 C32 1_555 1_555
C33 C32 1_555 1_555
H23 C33 1_555 1_555
C34 C33 1_555 1_555
C35 C30 1_555 1_555
H24 C35 1_555 1_555
C36 O7 1_555 1_555
Co2A O3 1_555 1_555
Co2_2 O4 1_555 1_555
O3A Co2 1_555 1_555
O4_2 Co2 1_555 1_555
O8 C36 1_555 1_555
C4 C5 1_555 1_555
C5 C6 1_555 1_555
C9 C10 1_555 1_555
C14 C15 1_555 1_555
C15 C16 1_555 1_555
C19 C20 1_555 1_555
C26 C27 1_555 1_555
C34 C35 1_555 1_555
C34 C36 1_555 1_555

#END
