
#######################################################################
#
#                 Cambridge Crystallographic Data Centre
#                                CCDC 
#
#######################################################################
#
# If this CIF has been generated from an entry in the Cambridge 
# Structural Database, then it will include bibliographic, chemical, 
# crystal, experimental, refinement or atomic coordinate data resulting 
# from the CCDC's data processing and validation procedures.
#
#######################################################################

data_EMAZAT
_symmetry_cell_setting           monoclinic
_symmetry_space_group_name_H-M   'C 2/c'
_symmetry_Int_Tables_number      15
_space_group_name_Hall           '-C 2yn'
loop_
_symmetry_equiv_pos_site_id
_symmetry_equiv_pos_as_xyz
1 x,y,z
2 1/2+x,1/2+y,z
3 -x,y,1/2-z
4 1/2-x,1/2+y,1/2-z
5 -x,-y,-z
6 1/2-x,1/2-y,-z
7 x,-y,1/2+z
8 1/2+x,1/2-y,1/2+z
_cell_length_a                   10.804(3)
_cell_length_b                   9.887(3)
_cell_length_c                   14.460(5)
_cell_angle_alpha                90
_cell_angle_beta                 94.03(2)
_cell_angle_gamma                90
_cell_volume                     1540.79
loop_
_atom_site_label
_atom_site_type_symbol
_atom_site_fract_x
_atom_site_fract_y
_atom_site_fract_z
Ag1 Ag 0.09640(3) 0.56220(3) 0.39051(2)
N1 N 0.2400(3) 0.3853(4) 0.4125(3)
C1 C 0.3472(4) 0.3968(4) 0.4644(3)
H1 H 0.3581 0.4709 0.5060
C2 C 0.4429(4) 0.3038(4) 0.4592(3)
H2 H 0.5167 0.3142 0.4983
N2 N 0.4326(3) 0.1997(3) 0.4001(3)
C3 C 0.3253(4) 0.1859(4) 0.3471(3)
H3 H 0.3149 0.1125 0.3050
C4 C 0.2296(4) 0.2798(4) 0.3542(3)
C5 C 0.1092(3) 0.2655(4) 0.2985(3)
C6 C 0.0572(4) 0.1394(4) 0.2748(3)
H4 H 0.0986 0.0575 0.2919
N3 N 0.0548(3) 0.3830(3) 0.2748(2)
N4 N 0.2768(3) 0.8173(3) 0.3952(3)
O1 O 0.3575(3) 0.8987(4) 0.4265(2)
O2 O 0.1786(3) 0.8584(4) 0.3535(3)
O3 O 0.2952(3) 0.6913(3) 0.4043(3)
C6B C -0.0572(4) 0.1394(4) 0.2252(3)
C5B C -0.1092(3) 0.2655(4) 0.2015(3)
C4B C -0.2296(4) 0.2798(4) 0.1458(3)
N1B N -0.2400(3) 0.3853(4) 0.0875(3)
C1B C -0.3472(4) 0.3968(4) 0.0356(3)
H1B H -0.3581 0.4709 -0.0060
C2B C -0.4429(4) 0.3038(4) 0.0408(3)
H2B H -0.5167 0.3142 0.0017
N2B N -0.4326(3) 0.1997(3) 0.0999(3)
C3B C -0.3253(4) 0.1859(4) 0.1529(3)
H3B H -0.3149 0.1125 0.1950
N3B N -0.0548(3) 0.3830(3) 0.2252(2)
H4B H -0.0986 0.0575 0.2081
Ag1B Ag -0.09640(3) 0.56220(3) 0.10949(2)
N4B N -0.2768(3) 0.8173(3) 0.1048(3)
O1B O -0.3575(3) 0.8987(4) 0.0735(2)
O2B O -0.1786(3) 0.8584(4) 0.1465(3)
O3B O -0.2952(3) 0.6913(3) 0.0957(3)
N2A N -0.0674(3) 0.6997(3) 0.4001(3)
Ag1A Ag 0.59640(3) 0.06220(3) 0.39051(2)
Ag1C Ag -0.59640(3) 0.06220(3) 0.10949(2)
N2C N 0.0674(3) 0.6997(3) 0.0999(3)
loop_
_geom_bond_atom_site_label_1
_geom_bond_atom_site_label_2
_geom_bond_site_symmetry_1
_geom_bond_site_symmetry_2
Ag1 N1 1_555 1_555
N1 C1 1_555 1_555
C1 H1 1_555 1_555
C2 C1 1_555 1_555
H2 C2 1_555 1_555
N2 C2 1_555 1_555
C3 N2 1_555 1_555
H3 C3 1_555 1_555
C4 N1 1_555 1_555
C5 C4 1_555 1_555
C6 C5 1_555 1_555
H4 C6 1_555 1_555
N3 Ag1 1_555 1_555
N4 O1 1_555 1_555
O2 N4 1_555 1_555
O3 Ag1 1_555 1_555
C6B C6 1_555 1_555
C5B C6B 1_555 1_555
C4B C5B 1_555 1_555
N1B C4B 1_555 1_555
C1B N1B 1_555 1_555
H1B C1B 1_555 1_555
C2B C1B 1_555 1_555
H2B C2B 1_555 1_555
N2B C2B 1_555 1_555
C3B C4B 1_555 1_555
H3B C3B 1_555 1_555
N3B N3 1_555 1_555
H4B C6B 1_555 1_555
Ag1B N1B 1_555 1_555
N4B O1B 1_555 1_555
O2B N4B 1_555 1_555
O3B Ag1B 1_555 1_555
N2A Ag1 1_555 1_555
Ag1A N2 1_555 1_555
Ag1C N2B 1_555 1_555
N2C Ag1B 1_555 1_555
C3 C4 1_555 1_555
C5 N3 1_555 1_555
N4 O3 1_555 1_555
C5B N3B 1_555 1_555
N2B C3B 1_555 1_555
N3B Ag1B 1_555 1_555
N4B O3B 1_555 1_555

#END
