
#######################################################################
#
#                 Cambridge Crystallographic Data Centre
#                                CCDC 
#
#######################################################################
#
# If this CIF has been generated from an entry in the Cambridge 
# Structural Database, then it will include bibliographic, chemical, 
# crystal, experimental, refinement or atomic coordinate data resulting 
# from the CCDC's data processing and validation procedures.
#
#######################################################################

data_EMECII
_symmetry_cell_setting           triclinic
_symmetry_space_group_name_H-M   'P -1'
_symmetry_Int_Tables_number      2
_space_group_name_Hall           '-P 1'
loop_
_symmetry_equiv_pos_site_id
_symmetry_equiv_pos_as_xyz
1 x,y,z
2 -x,-y,-z
_cell_length_a                   9.582(2)
_cell_length_b                   10.373(2)
_cell_length_c                   11.073(3)
_cell_angle_alpha                70.27(2)
_cell_angle_beta                 66.11(2)
_cell_angle_gamma                62.93(1)
_cell_volume                     880.033
loop_
_atom_site_label
_atom_site_type_symbol
_atom_site_fract_x
_atom_site_fract_y
_atom_site_fract_z
Rh1 Rh 0.62309(8) 0.50665(7) 0.49724(7)
O1 O 0.4846(6) 0.7021(6) 0.5606(6)
O2 O 0.2525(6) 0.6886(6) 0.5657(5)
O3 O 0.5866(6) 0.3987(6) 0.6909(5)
O4 O 0.3558(6) 0.3821(5) 0.6968(5)
N1 N 0.8550(6) 0.5104(6) 0.4930(6)
C1 C 0.2308(8) 0.9021(8) 0.6167(7)
C2 C 0.3080(9) 0.9806(8) 0.6310(8)
C3 C 0.2169(10) 1.1183(8) 0.6671(8)
C4 C 0.047(1) 1.1770(8) 0.6920(8)
C5 C -0.0319(9) 1.1016(8) 0.6768(8)
C6 C 0.0605(9) 0.9639(8) 0.6396(8)
C7 C 0.3302(9) 0.7538(7) 0.5783(7)
C8 C 0.4422(9) 0.2807(9) 0.8930(8)
C9 C 0.538(1) 0.274(1) 0.9636(9)
C10 C 0.518(1) 0.203(1) 1.0975(10)
C11 C 0.400(1) 0.139(1) 1.1605(10)
C12 C 0.305(1) 0.142(1) 1.0914(9)
C13 C 0.3244(10) 0.2153(9) 0.9572(8)
C14 C 0.4619(8) 0.3620(7) 0.7479(7)
C15 C 0.8560(8) 0.5679(7) 0.5840(7)
C16 C 0.9985(8) 0.4406(8) 0.4111(7)
H1 H 0.4234 0.9394 0.6159
H2 H 0.2701 1.1720 0.6747
H3 H -0.0153 1.2698 0.7194
H4 H -0.1473 1.1434 0.6918
H5 H 0.0075 0.9117 0.6295
H6 H 0.6181 0.3180 0.9196
H7 H 0.5837 0.1991 1.1451
H8 H 0.3841 0.0921 1.2523
H9 H 0.2278 0.0950 1.1350
H10 H 0.2577 0.2205 0.9102
H11 H 0.7554 0.6147 0.6464
H12 H 0.9968 0.3993 0.3475
C16A C 1.0015(8) 0.5594(8) 0.5889(7)
N1A N 1.1450(6) 0.4896(6) 0.5070(6)
C15A C 1.1440(8) 0.4321(7) 0.4160(7)
H11A H 1.2446 0.3853 0.3536
H12A H 1.0032 0.6007 0.6525
O1A O 0.5154(6) 0.2979(6) 0.4394(6)
O2A O 0.7475(6) 0.3114(6) 0.4343(5)
C1A C 0.7692(8) 0.0979(8) 0.3833(7)
C2A C 0.6920(9) 0.0194(8) 0.3690(8)
C3A C 0.7831(10) -0.1183(8) 0.3329(8)
C4A C 0.953(1) -0.1770(8) 0.3080(8)
C5A C 1.0319(9) -0.1016(8) 0.3232(8)
C6A C 0.9395(9) 0.0361(8) 0.3604(8)
C7A C 0.6698(9) 0.2462(7) 0.4217(7)
H1A H 0.5766 0.0606 0.3841
H2A H 0.7299 -0.1720 0.3253
H3A H 1.0153 -0.2698 0.2806
H4A H 1.1473 -0.1434 0.3082
H5A H 0.9925 0.0883 0.3705
O3A O 0.4134(6) 0.6013(6) 0.3091(5)
O4A O 0.6442(6) 0.6179(5) 0.3032(5)
C8A C 0.5578(9) 0.7193(9) 0.1070(8)
C9A C 0.462(1) 0.726(1) 0.0364(9)
C10A C 0.482(1) 0.797(1) -0.0975(10)
C11A C 0.600(1) 0.861(1) -0.1605(10)
C12A C 0.695(1) 0.858(1) -0.0914(9)
C13A C 0.6756(10) 0.7847(9) 0.0428(8)
C14A C 0.5381(8) 0.6380(7) 0.2521(7)
H6A H 0.3819 0.6820 0.0804
H7A H 0.4163 0.8009 -0.1451
H8A H 0.6159 0.9079 -0.2523
H9A H 0.7722 0.9050 -0.1350
H10A H 0.7423 0.7795 0.0898
Rh1A Rh 0.37691(8) 0.49335(7) 0.50276(7)
Rh1A_2 Rh 1.37691(8) 0.49335(7) 0.50276(7)
N1A_2 N 0.1450(6) 0.4896(6) 0.5070(6)
O6 O 1.160(2) 0.551(1) 1.091(1)
N4 N 1.134(1) 0.581(1) 0.988(1)
N5 N 1.103(2) 0.609(1) 0.890(1)
O5? O 1.020(1) 0.891(1) 0.979(1)
N2? N 1.0000 1.0000 1.0000
N3? N 1.0197 0.8909 0.9793
loop_
_geom_bond_atom_site_label_1
_geom_bond_atom_site_label_2
_geom_bond_site_symmetry_1
_geom_bond_site_symmetry_2
Rh1 O1 1_555 1_555
O1 C7 1_555 1_555
O2 C7 1_555 1_555
O3 Rh1 1_555 1_555
O4 C14 1_555 1_555
O6 N4 1_555 1_555
N1 Rh1 1_555 1_555
N4 N5 1_555 1_555
C1 C2 1_555 1_555
C2 C3 1_555 1_555
C3 C4 1_555 1_555
C4 C5 1_555 1_555
C5 C6 1_555 1_555
C6 C1 1_555 1_555
C7 C1 1_555 1_555
C8 C9 1_555 1_555
C9 C10 1_555 1_555
C10 C11 1_555 1_555
C11 C12 1_555 1_555
C12 C13 1_555 1_555
C13 C8 1_555 1_555
C14 O3 1_555 1_555
C15 N1 1_555 1_555
C16 N1 1_555 1_555
H1 C2 1_555 1_555
H2 C3 1_555 1_555
H3 C4 1_555 1_555
H4 C5 1_555 1_555
H5 C6 1_555 1_555
H6 C9 1_555 1_555
H7 C10 1_555 1_555
H8 C11 1_555 1_555
H9 C12 1_555 1_555
H10 C13 1_555 1_555
H11 C15 1_555 1_555
H12 C16 1_555 1_555
C16A C15 1_555 1_555
N1A C16A 1_555 1_555
C15A C16 1_555 1_555
H11A C15A 1_555 1_555
H12A C16A 1_555 1_555
O1A C7A 1_555 1_555
O2A Rh1 1_555 1_555
C1A C2A 1_555 1_555
C2A C3A 1_555 1_555
C3A C4A 1_555 1_555
C4A C5A 1_555 1_555
C5A C6A 1_555 1_555
C6A C1A 1_555 1_555
C7A O2A 1_555 1_555
H1A C2A 1_555 1_555
H2A C3A 1_555 1_555
H3A C4A 1_555 1_555
H4A C5A 1_555 1_555
H5A C6A 1_555 1_555
O3A C14A 1_555 1_555
O4A Rh1 1_555 1_555
C8A C9A 1_555 1_555
C9A C10A 1_555 1_555
C10A C11A 1_555 1_555
C11A C12A 1_555 1_555
C12A C13A 1_555 1_555
C13A C8A 1_555 1_555
C14A O4A 1_555 1_555
H6A C9A 1_555 1_555
H7A C10A 1_555 1_555
H8A C11A 1_555 1_555
H9A C12A 1_555 1_555
H10A C13A 1_555 1_555
Rh1A Rh1 1_555 1_555
Rh1A_2 N1A 1_555 1_555
N1A_2 Rh1A 1_555 1_555
O2 Rh1A 1_555 1_555
O4 Rh1A 1_555 1_555
C8 C14 1_555 1_555
N1A C15A 1_555 1_555
O1A Rh1A 1_555 1_555
C1A C7A 1_555 1_555
O3A Rh1A 1_555 1_555
C8A C14A 1_555 1_555

#END
