
#######################################################################
#
#                 Cambridge Crystallographic Data Centre
#                                CCDC 
#
#######################################################################
#
# If this CIF has been generated from an entry in the Cambridge 
# Structural Database, then it will include bibliographic, chemical, 
# crystal, experimental, refinement or atomic coordinate data resulting 
# from the CCDC's data processing and validation procedures.
#
#######################################################################

data_EMECOO
_symmetry_cell_setting           monoclinic
_symmetry_space_group_name_H-M   'P 21/c'
_symmetry_Int_Tables_number      14
_space_group_name_Hall           '-P 2ybc'
loop_
_symmetry_equiv_pos_site_id
_symmetry_equiv_pos_as_xyz
1 x,y,z
2 x,1/2-y,1/2+z
3 -x,-y,-z
4 -x,1/2+y,1/2-z
_cell_length_a                   7.7478(10)
_cell_length_b                   8.8143(12)
_cell_length_c                   6.6138(9)
_cell_angle_alpha                90
_cell_angle_beta                 102.238(4)
_cell_angle_gamma                90
_cell_volume                     441.402
loop_
_atom_site_label
_atom_site_type_symbol
_atom_site_fract_x
_atom_site_fract_y
_atom_site_fract_z
Ag1 Ag 0.50657(11) 0.16156(9) 0.02983(13)
O1 O 0.6605(10) 0.1422(8) -0.2102(13)
O2 O 0.6510(11) -0.1085(9) -0.2631(13)
C1 C 0.8265(14) -0.0639(17) -0.5966(17)
H1 H 0.8364 -0.1675 -0.5460
H2 H 0.7107 -0.0517 -0.6858
C2 C 0.7072(13) 0.0213(11) -0.2883(14)
C3 C 0.8452(15) 0.0441(15) -0.4157(17)
H3 H 0.8308 0.1472 -0.4720
C4 C 1.0294(13) 0.0339(15) -0.2773(16)
H4 H 1.0403 0.1079 -0.1667
H5 H 1.0464 -0.0662 -0.2153
C4B C 0.9706(13) -0.0339(15) -0.7227(16)
C3B C 1.1548(15) -0.0441(15) -0.5843(17)
C1B C 1.1735(14) 0.0639(17) -0.4034(17)
H1B H 1.1636 0.1675 -0.4540
H2B H 1.2893 0.0517 -0.3142
C2B C 1.2928(13) -0.0213(11) -0.7117(14)
O1B O 1.3395(10) -0.1422(8) -0.7898(13)
O2B O 1.3490(11) 0.1085(9) -0.7369(13)
H3B H 1.1692 -0.1472 -0.5280
H4B H 0.9597 -0.1079 -0.8333
H5B H 0.9536 0.0662 -0.7847
Ag1B Ag 1.49343(11) -0.16156(9) -1.02983(13)
Ag1B_2 Ag 0.49343(11) -0.16156(9) -0.02983(13)
O1A O 0.6605(10) 0.3578(8) 0.2898(13)
O2B_2 O 0.3490(11) 0.1085(9) 0.2631(13)
Ag1A Ag 0.50657(11) 0.33844(9) -0.47017(13)
Ag1C Ag 1.49343(11) -0.33844(9) -0.52983(13)
Ag1_2 Ag 1.50657(11) 0.16156(9) -0.97017(13)
O1C O 1.3395(10) -0.3578(8) -1.2898(13)
O2_2 O 1.6510(11) -0.1085(9) -1.2631(13)
loop_
_geom_bond_atom_site_label_1
_geom_bond_atom_site_label_2
_geom_bond_site_symmetry_1
_geom_bond_site_symmetry_2
Ag1 O1 1_555 1_555
O1 C2 1_555 1_555
O2 C2 1_555 1_555
C1 H1 1_555 1_555
H2 C1 1_555 1_555
C2 C3 1_555 1_555
C3 C1 1_555 1_555
H3 C3 1_555 1_555
C4 C3 1_555 1_555
H4 C4 1_555 1_555
H5 C4 1_555 1_555
C4B C1 1_555 1_555
C3B C4B 1_555 1_555
C1B C4 1_555 1_555
H1B C1B 1_555 1_555
H2B C1B 1_555 1_555
C2B C3B 1_555 1_555
O1B C2B 1_555 1_555
O2B C2B 1_555 1_555
H3B C3B 1_555 1_555
H4B C4B 1_555 1_555
H5B C4B 1_555 1_555
Ag1B O1B 1_555 1_555
Ag1B_2 Ag1 1_555 1_555
O1A Ag1 1_555 1_555
O2B_2 Ag1 1_555 1_555
Ag1A O1 1_555 1_555
Ag1C O1B 1_555 1_555
Ag1_2 O2B 1_555 1_555
O1C Ag1B 1_555 1_555
O2_2 Ag1B 1_555 1_555
O2 Ag1B_2 1_555 1_555
C3B C1B 1_555 1_555
Ag1B Ag1_2 1_555 1_555

#END
