
#######################################################################
#
#                 Cambridge Crystallographic Data Centre
#                                CCDC 
#
#######################################################################
#
# If this CIF has been generated from an entry in the Cambridge 
# Structural Database, then it will include bibliographic, chemical, 
# crystal, experimental, refinement or atomic coordinate data resulting 
# from the CCDC's data processing and validation procedures.
#
#######################################################################

data_EMECUV
_symmetry_cell_setting           orthorhombic
_symmetry_space_group_name_H-M   'P 21 21 21'
_symmetry_Int_Tables_number      19
_space_group_name_Hall           'P 2ac 2ab'
loop_
_symmetry_equiv_pos_site_id
_symmetry_equiv_pos_as_xyz
1 x,y,z
2 1/2-x,-y,1/2+z
3 -x,1/2+y,1/2-z
4 1/2+x,1/2-y,-z
_cell_length_a                   14.0354(19)
_cell_length_b                   14.1131(19)
_cell_length_c                   22.598(3)
_cell_angle_alpha                90
_cell_angle_beta                 90
_cell_angle_gamma                90
_cell_volume                     4476.28
loop_
_atom_site_label
_atom_site_type_symbol
_atom_site_fract_x
_atom_site_fract_y
_atom_site_fract_z
Zn1 Zn 0.755308(15) 0.498546(19) 0.245693(9)
O1 O 0.84360(11) 0.57331(12) 0.29506(7)
O2 O 0.92245(13) 0.63722(14) 0.21930(7)
O3 O 0.68771(11) 0.42806(13) 0.31104(7)
O4 O 0.63054(14) 0.37255(16) 0.22686(8)
O5 O 0.31677(12) 0.07859(13) 0.30920(7)
O6 O 0.37169(14) 0.13983(16) 0.22477(8)
O7 O 1.14986(12) 0.89802(13) 0.27374(7)
O8 O 1.19646(12) 0.91360(13) 0.36716(7)
O9 O 1.03926(15) 0.64456(16) 0.47428(7)
H1 H 1.0117 0.5918 0.4764
O10 O 0.51661(13) 0.24077(14) 0.46736(7)
H2 H 0.4697 0.2115 0.4814
C1 C 0.90990(17) 0.62177(18) 0.27269(11)
C2 C 0.97648(16) 0.66674(18) 0.31741(10)
C3 C 0.97763(17) 0.63265(19) 0.37543(11)
H3 H 0.9390 0.5801 0.3862
C4 C 1.03618(19) 0.6765(2) 0.41768(10)
C5 C 1.09061(18) 0.7534(2) 0.40193(10)
H4 H 1.1289 0.7839 0.4309
C6 C 1.09027(17) 0.78708(19) 0.34419(10)
C7 C 1.03411(17) 0.74325(18) 0.30173(10)
H5 H 1.0349 0.7653 0.2620
C8 C 0.63199(18) 0.37469(18) 0.28212(11)
C9 C 0.56827(16) 0.30838(18) 0.31556(10)
C10 C 0.57210(16) 0.30345(18) 0.37652(10)
H6 H 0.6170 0.3408 0.3976
C11 C 0.50973(16) 0.24328(18) 0.40747(10)
C12 C 0.37232(17) 0.13313(19) 0.27941(11)
C13 C 0.44112(16) 0.19407(18) 0.31451(10)
C14 C 0.50155(15) 0.25365(18) 0.28455(11)
H7 H 0.4981 0.2578 0.2426
C15 C 0.44516(16) 0.18821(18) 0.37623(10)
H8 H 0.4036 0.1465 0.3968
C16 C 1.15045(16) 0.87201(18) 0.32847(10)
Zn1B Zn 0.244692(15) -0.001454(19) 0.254307(9)
Zn1B_2 Zn 1.244692(15) 0.998546(19) 0.254307(9)
O5B O 0.68323(12) 0.57859(13) 0.19080(7)
O7B O 0.85014(12) 0.39802(13) 0.22626(7)
S1 S 0.35475(4) 0.05698(4) 0.51616(2)
O11 O 0.36101(12) 0.16116(12) 0.51284(7)
O12 O 0.29099(12) 0.01973(14) 0.47017(7)
O13 O 0.45035(11) 0.01667(13) 0.50760(7)
O14 O 0.31795(12) 0.03114(13) 0.57543(7)
N1 N 0.87985(16) 0.34025(18) 0.34341(9)
H9 H 0.8453 0.3821 0.3661
H10 H 0.8683 0.3543 0.3043
C17 C 0.9838(2) 0.3540(3) 0.35592(13)
H17 H 0.9980 0.3326 0.3962
H18 H 0.9999 0.4213 0.3522
H19 H 1.0215 0.3172 0.3276
C18 C 0.8465(3) 0.2437(2) 0.35559(13)
H20 H 0.8859 0.1983 0.3337
H21 H 0.7799 0.2374 0.3431
H22 H 0.8515 0.2308 0.3981
N2 N 0.39810(15) -0.09444(17) 0.39154(9)
H11 H 0.3734 -0.0537 0.4194
H12 H 0.3646 -0.0859 0.3570
C19 C 0.49940(18) -0.0703(2) 0.38117(11)
H23 H 0.5353 -0.0780 0.4181
H24 H 0.5042 -0.0045 0.3677
H25 H 0.5258 -0.1126 0.3509
C20 C 0.3848(2) -0.1926(2) 0.41201(13)
H26 H 0.4122 -0.2364 0.3829
H27 H 0.3167 -0.2057 0.4165
H28 H 0.4169 -0.2011 0.4502
N3 N 0.15602(15) 0.11045(17) 0.39430(8)
H13 H 0.2052 0.0683 0.3997
H14 H 0.1395 0.1091 0.3549
C21 C 0.1896(2) 0.2062(2) 0.40929(13)
H29 H 0.1352 0.2496 0.4109
H30 H 0.2346 0.2279 0.3790
H31 H 0.2214 0.2049 0.4479
C22 C 0.0736(2) 0.0794(3) 0.42996(13)
H32 H 0.0782 0.1065 0.4698
H33 H 0.0733 0.0101 0.4326
H34 H 0.0145 0.1009 0.4111
N4 N 0.69078(17) 0.6062(2) 0.39233(9)
H15 H 0.7338 0.5572 0.3939
H16 H 0.6811 0.6209 0.3531
C23 C 0.5996(3) 0.5743(3) 0.41836(17)
H35 H 0.6088 0.5602 0.4604
H36 H 0.5777 0.5171 0.3978
H37 H 0.5517 0.6245 0.4140
C24 C 0.7306(3) 0.6865(3) 0.4213(2)
H38 H 0.6890 0.7415 0.4154
H39 H 0.7937 0.7000 0.4047
H40 H 0.7366 0.6734 0.4637
loop_
_geom_bond_atom_site_label_1
_geom_bond_atom_site_label_2
_geom_bond_site_symmetry_1
_geom_bond_site_symmetry_2
Zn1 O1 1_555 1_555
O1 C1 1_555 1_555
O2 C1 1_555 1_555
O3 Zn1 1_555 1_555
O4 Zn1 1_555 1_555
O5 C12 1_555 1_555
O6 C12 1_555 1_555
O7 C16 1_555 1_555
O8 C16 1_555 1_555
O9 H1 1_555 1_555
O10 H2 1_555 1_555
S1 O11 1_555 1_555
O12 S1 1_555 1_555
O13 S1 1_555 1_555
O14 S1 1_555 1_555
C1 C2 1_555 1_555
C2 C3 1_555 1_555
C3 H3 1_555 1_555
C4 O9 1_555 1_555
C5 C4 1_555 1_555
H4 C5 1_555 1_555
C6 C5 1_555 1_555
C7 C2 1_555 1_555
H5 C7 1_555 1_555
C8 O3 1_555 1_555
C9 C8 1_555 1_555
C10 C9 1_555 1_555
H6 C10 1_555 1_555
C11 O10 1_555 1_555
C12 C13 1_555 1_555
C13 C14 1_555 1_555
C14 C9 1_555 1_555
H7 C14 1_555 1_555
C15 C11 1_555 1_555
H8 C15 1_555 1_555
C16 C6 1_555 1_555
N1 H9 1_555 1_555
H10 N1 1_555 1_555
N2 H11 1_555 1_555
H12 N2 1_555 1_555
N3 H13 1_555 1_555
H14 N3 1_555 1_555
N4 H15 1_555 1_555
H16 N4 1_555 1_555
C17 N1 1_555 1_555
H17 C17 1_555 1_555
H18 C17 1_555 1_555
H19 C17 1_555 1_555
C18 N1 1_555 1_555
H20 C18 1_555 1_555
H21 C18 1_555 1_555
H22 C18 1_555 1_555
C19 N2 1_555 1_555
H23 C19 1_555 1_555
H24 C19 1_555 1_555
H25 C19 1_555 1_555
C20 N2 1_555 1_555
H26 C20 1_555 1_555
H27 C20 1_555 1_555
H28 C20 1_555 1_555
C21 N3 1_555 1_555
H29 C21 1_555 1_555
H30 C21 1_555 1_555
H31 C21 1_555 1_555
C22 N3 1_555 1_555
H32 C22 1_555 1_555
H33 C22 1_555 1_555
H34 C22 1_555 1_555
C23 N4 1_555 1_555
H35 C23 1_555 1_555
H36 C23 1_555 1_555
H37 C23 1_555 1_555
C24 N4 1_555 1_555
H38 C24 1_555 1_555
H39 C24 1_555 1_555
H40 C24 1_555 1_555
Zn1B O5 1_555 1_555
Zn1B_2 O7 1_555 1_555
O5B Zn1 1_555 1_555
O7B Zn1 1_555 1_555
O4 C8 1_555 1_555
C3 C4 1_555 1_555
C6 C7 1_555 1_555
C10 C11 1_555 1_555
C13 C15 1_555 1_555

#END
