
#######################################################################
#
#                 Cambridge Crystallographic Data Centre
#                                CCDC 
#
#######################################################################
#
# If this CIF has been generated from an entry in the Cambridge 
# Structural Database, then it will include bibliographic, chemical, 
# crystal, experimental, refinement or atomic coordinate data resulting 
# from the CCDC's data processing and validation procedures.
#
#######################################################################

data_EMECOP
_symmetry_cell_setting           monoclinic
_symmetry_space_group_name_H-M   'P 21/c'
_symmetry_Int_Tables_number      14
_space_group_name_Hall           '-P 2ybc'
loop_
_symmetry_equiv_pos_site_id
_symmetry_equiv_pos_as_xyz
1 x,y,z
2 -x,1/2+y,1/2-z
3 -x,-y,-z
4 x,1/2-y,1/2+z
_cell_length_a                   8.6542(9)
_cell_length_b                   14.2188(15)
_cell_length_c                   11.4292(12)
_cell_angle_alpha                90
_cell_angle_beta                 107.6770(10)
_cell_angle_gamma                90
_cell_volume                     1339.98
loop_
_atom_site_label
_atom_site_type_symbol
_atom_site_fract_x
_atom_site_fract_y
_atom_site_fract_z
Ag1 Ag 1.12345(2) 0.200117(14) 0.381055(17)
S1 S 0.73402(7) 0.16410(5) 0.34573(6)
S2 S 0.49277(8) 0.17723(4) 0.32171(7)
S3 S 1.18067(8) 0.36432(5) 0.32498(6)
N1 N 0.9082(2) 0.13996(14) 0.20203(17)
N2 N 0.2726(2) 0.06244(14) 0.34572(17)
N3 N 1.1318(3) 0.33358(18) 0.0737(2)
C1 C 0.9422(3) 0.12033(18) 0.0975(2)
H1 H 1.0501 0.1207 0.0986
C2 C 0.8244(4) 0.0996(2) -0.0115(2)
H2 H 0.8522 0.0862 -0.0821
C3 C 0.6651(4) 0.0992(2) -0.0130(2)
H3 H 0.5834 0.0859 -0.0854
C4 C 0.6265(3) 0.11860(19) 0.0929(2)
H4 H 0.5194 0.1185 0.0937
C5 C 0.7526(3) 0.13823(15) 0.1979(2)
C6 C 0.4242(3) 0.06084(16) 0.33828(19)
C7 C 0.5120(3) -0.02096(17) 0.3423(2)
H5 H 0.6170 -0.0192 0.3367
C8 C 0.4397(3) -0.10521(18) 0.3548(2)
H6 H 0.4964 -0.1614 0.3594
C9 C 0.2825(3) -0.10548(18) 0.3604(2)
H7 H 0.2306 -0.1617 0.3667
C10 C 0.2040(3) -0.02014(18) 0.3565(2)
H8 H 0.0988 -0.0202 0.3615
C11 C 1.1517(3) 0.34452(17) 0.1774(2)
Ag1_2 Ag 0.12345(2) 0.200117(14) 0.381055(17)
Ag1C Ag 1.12345(2) 0.299883(14) -0.118945(17)
N2_2 N 1.2726(2) 0.06244(14) 0.34572(17)
N3C N 1.1318(3) 0.16642(18) 0.5737(2)
loop_
_geom_bond_atom_site_label_1
_geom_bond_atom_site_label_2
_geom_bond_site_symmetry_1
_geom_bond_site_symmetry_2
Ag1 S3 1_555 1_555
S1 S2 1_555 1_555
S2 C6 1_555 1_555
S3 C11 1_555 1_555
N1 Ag1 1_555 1_555
N2 C6 1_555 1_555
N3 C11 1_555 1_555
C1 N1 1_555 1_555
H1 C1 1_555 1_555
C2 C1 1_555 1_555
H2 C2 1_555 1_555
C3 C2 1_555 1_555
H3 C3 1_555 1_555
C4 C3 1_555 1_555
H4 C4 1_555 1_555
C5 S1 1_555 1_555
C6 C7 1_555 1_555
C7 H5 1_555 1_555
C8 C7 1_555 1_555
H6 C8 1_555 1_555
C9 C8 1_555 1_555
H7 C9 1_555 1_555
C10 N2 1_555 1_555
H8 C10 1_555 1_555
Ag1_2 N2 1_555 1_555
Ag1C N3 1_555 1_555
N2_2 Ag1 1_555 1_555
N3C Ag1 1_555 1_555
N1 C5 1_555 1_555
C4 C5 1_555 1_555
C9 C10 1_555 1_555

#END
