
#######################################################################
#
#                 Cambridge Crystallographic Data Centre
#                                CCDC 
#
#######################################################################
#
# If this CIF has been generated from an entry in the Cambridge 
# Structural Database, then it will include bibliographic, chemical, 
# crystal, experimental, refinement or atomic coordinate data resulting 
# from the CCDC's data processing and validation procedures.
#
#######################################################################

data_EMECII01
_symmetry_cell_setting           triclinic
_symmetry_space_group_name_H-M   'P -1'
_symmetry_Int_Tables_number      2
_space_group_name_Hall           '-P 1'
loop_
_symmetry_equiv_pos_site_id
_symmetry_equiv_pos_as_xyz
1 x,y,z
2 -x,-y,-z
_cell_length_a                   9.589(2)
_cell_length_b                   10.444(2)
_cell_length_c                   11.092(2)
_cell_angle_alpha                70.44(2)
_cell_angle_beta                 66.29(2)
_cell_angle_gamma                62.90(2)
_cell_volume                     889.609
loop_
_atom_site_label
_atom_site_type_symbol
_atom_site_fract_x
_atom_site_fract_y
_atom_site_fract_z
Rh1 Rh 0.62305(5) 0.50612(4) 0.49748(4)
O1 O 0.4842(4) 0.7016(4) 0.5601(3)
O2 O 0.2518(4) 0.6903(4) 0.5639(3)
O3 O 0.5870(4) 0.3987(4) 0.6914(3)
O4 O 0.3560(4) 0.3842(4) 0.6962(3)
N1 N 0.8544(4) 0.5088(4) 0.4957(4)
C1 C 0.2322(5) 0.9002(5) 0.6156(4)
C2 C 0.3109(6) 0.9785(5) 0.6279(5)
C3 C 0.2209(7) 1.1139(6) 0.6645(5)
C4 C 0.0518(7) 1.1745(6) 0.6889(5)
C5 C -0.0272(6) 1.0982(6) 0.6754(5)
C6 C 0.0626(6) 0.9622(5) 0.6396(5)
C7 C 0.3293(5) 0.7535(5) 0.5775(4)
C8 C 0.4411(6) 0.2827(6) 0.8920(5)
C9 C 0.5359(8) 0.2771(8) 0.9625(6)
C10 C 0.513(1) 0.2078(9) 1.0967(7)
C11 C 0.398(1) 0.1423(9) 1.1592(7)
C12 C 0.3048(9) 0.1457(8) 1.0896(6)
C13 C 0.3263(7) 0.2167(7) 0.9548(5)
C14 C 0.4624(5) 0.3612(5) 0.7492(5)
C15 C 0.8561(5) 0.5662(5) 0.5850(4)
C16 C 0.9968(5) 0.4422(5) 0.4110(5)
H1 H 0.4266 0.9380 0.6109
H2 H 0.2747 1.1660 0.6731
H3 H -0.0099 1.2676 0.7146
H4 H -0.1427 1.1399 0.6909
H5 H 0.0083 0.9104 0.6311
H6 H 0.6163 0.3203 0.9194
H7 H 0.5759 0.2056 1.1454
H8 H 0.3831 0.0948 1.2505
H9 H 0.2265 0.1002 1.1325
H10 H 0.2622 0.2195 0.9066
H11 H 0.7558 0.6134 0.6468
H12 H 0.9968 0.3993 0.3475
C16A C 1.0032(5) 0.5578(5) 0.5890(5)
N1A N 1.1456(4) 0.4912(4) 0.5043(4)
C15A C 1.1439(5) 0.4338(5) 0.4150(4)
H11A H 1.2442 0.3866 0.3532
H12A H 1.0032 0.6007 0.6525
O1A O 0.5158(4) 0.2984(4) 0.4399(3)
O2A O 0.7482(4) 0.3097(4) 0.4361(3)
C1A C 0.7678(5) 0.0998(5) 0.3844(4)
C2A C 0.6891(6) 0.0215(5) 0.3721(5)
C3A C 0.7791(7) -0.1139(6) 0.3355(5)
C4A C 0.9482(7) -0.1745(6) 0.3111(5)
C5A C 1.0272(6) -0.0982(6) 0.3246(5)
C6A C 0.9374(6) 0.0378(5) 0.3604(5)
C7A C 0.6707(5) 0.2465(5) 0.4225(4)
H1A H 0.5734 0.0620 0.3891
H2A H 0.7253 -0.1660 0.3269
H3A H 1.0099 -0.2676 0.2854
H4A H 1.1427 -0.1399 0.3091
H5A H 0.9917 0.0896 0.3689
O3A O 0.4130(4) 0.6013(4) 0.3086(3)
O4A O 0.6440(4) 0.6158(4) 0.3038(3)
C8A C 0.5589(6) 0.7173(6) 0.1080(5)
C9A C 0.4641(8) 0.7229(8) 0.0375(6)
C10A C 0.487(1) 0.7922(9) -0.0967(7)
C11A C 0.602(1) 0.8577(9) -0.1592(7)
C12A C 0.6952(9) 0.8543(8) -0.0896(6)
C13A C 0.6737(7) 0.7833(7) 0.0452(5)
C14A C 0.5376(5) 0.6388(5) 0.2508(5)
H6A H 0.3837 0.6797 0.0806
H7A H 0.4241 0.7944 -0.1454
H8A H 0.6169 0.9052 -0.2505
H9A H 0.7735 0.8998 -0.1325
H10A H 0.7378 0.7805 0.0934
Rh1A Rh 0.37695(5) 0.49388(4) 0.50252(4)
Rh1A_2 Rh 1.37695(5) 0.49388(4) 0.50252(4)
N1A_2 N 0.1456(4) 0.4912(4) 0.5043(4)
O6 O 1.144(2) 0.552(1) 1.0906(9)
N4 N 1.139(1) 0.5874(9) 0.9834(9)
N5 N 1.131(2) 0.616(1) 0.8854(9)
O5? O 1.008(1) 0.8968(10) 0.9842(9)
N2? N 1.0000 1.0000 1.0000
N3? N 1.0079 0.8968 0.9842
loop_
_geom_bond_atom_site_label_1
_geom_bond_atom_site_label_2
_geom_bond_site_symmetry_1
_geom_bond_site_symmetry_2
Rh1 O1 1_555 1_555
O1 C7 1_555 1_555
O2 C7 1_555 1_555
O3 Rh1 1_555 1_555
O4 C14 1_555 1_555
O6 N4 1_555 1_555
N1 Rh1 1_555 1_555
N4 N5 1_555 1_555
C1 C2 1_555 1_555
C2 C3 1_555 1_555
C3 C4 1_555 1_555
C4 C5 1_555 1_555
C5 C6 1_555 1_555
C6 C1 1_555 1_555
C7 C1 1_555 1_555
C8 C9 1_555 1_555
C9 C10 1_555 1_555
C10 C11 1_555 1_555
C11 C12 1_555 1_555
C12 C13 1_555 1_555
C13 C8 1_555 1_555
C14 O3 1_555 1_555
C15 N1 1_555 1_555
C16 N1 1_555 1_555
H1 C2 1_555 1_555
H2 C3 1_555 1_555
H3 C4 1_555 1_555
H4 C5 1_555 1_555
H5 C6 1_555 1_555
H6 C9 1_555 1_555
H7 C10 1_555 1_555
H8 C11 1_555 1_555
H9 C12 1_555 1_555
H10 C13 1_555 1_555
H11 C15 1_555 1_555
H12 C16 1_555 1_555
C16A C15 1_555 1_555
N1A C16A 1_555 1_555
C15A C16 1_555 1_555
H11A C15A 1_555 1_555
H12A C16A 1_555 1_555
O1A C7A 1_555 1_555
O2A Rh1 1_555 1_555
C1A C2A 1_555 1_555
C2A C3A 1_555 1_555
C3A C4A 1_555 1_555
C4A C5A 1_555 1_555
C5A C6A 1_555 1_555
C6A C1A 1_555 1_555
C7A O2A 1_555 1_555
H1A C2A 1_555 1_555
H2A C3A 1_555 1_555
H3A C4A 1_555 1_555
H4A C5A 1_555 1_555
H5A C6A 1_555 1_555
O3A C14A 1_555 1_555
O4A Rh1 1_555 1_555
C8A C9A 1_555 1_555
C9A C10A 1_555 1_555
C10A C11A 1_555 1_555
C11A C12A 1_555 1_555
C12A C13A 1_555 1_555
C13A C8A 1_555 1_555
C14A O4A 1_555 1_555
H6A C9A 1_555 1_555
H7A C10A 1_555 1_555
H8A C11A 1_555 1_555
H9A C12A 1_555 1_555
H10A C13A 1_555 1_555
Rh1A Rh1 1_555 1_555
Rh1A_2 N1A 1_555 1_555
N1A_2 Rh1A 1_555 1_555
O2 Rh1A 1_555 1_555
O4 Rh1A 1_555 1_555
C8 C14 1_555 1_555
N1A C15A 1_555 1_555
O1A Rh1A 1_555 1_555
C1A C7A 1_555 1_555
O3A Rh1A 1_555 1_555
C8A C14A 1_555 1_555

#END
