
#######################################################################
#
#                 Cambridge Crystallographic Data Centre
#                                CCDC 
#
#######################################################################
#
# If this CIF has been generated from an entry in the Cambridge 
# Structural Database, then it will include bibliographic, chemical, 
# crystal, experimental, refinement or atomic coordinate data resulting 
# from the CCDC's data processing and validation procedures.
#
#######################################################################

data_EMEDIJ
_symmetry_cell_setting           triclinic
_symmetry_space_group_name_H-M   'P -1'
_symmetry_Int_Tables_number      2
_space_group_name_Hall           '-P 1'
loop_
_symmetry_equiv_pos_site_id
_symmetry_equiv_pos_as_xyz
1 x,y,z
2 -x,-y,-z
_cell_length_a                   8.17400(10)
_cell_length_b                   12.57020(10)
_cell_length_c                   13.7270(2)
_cell_angle_alpha                67.1980(10)
_cell_angle_beta                 79.2740(10)
_cell_angle_gamma                87.7640(10)
_cell_volume                     1276.64
loop_
_atom_site_label
_atom_site_type_symbol
_atom_site_fract_x
_atom_site_fract_y
_atom_site_fract_z
Cu1 Cu 0.36668(4) 0.65891(3) 0.02381(3)
Cu2 Cu 0.16290(4) 0.53072(3) -0.11095(3)
Cu3 Cu 0.23822(6) 0.15881(3) 0.32761(3)
S1 S 0.26037(8) 0.39120(5) 0.11101(5)
O1 O 0.3586(3) 0.49118(18) 0.10420(19)
O2 O 0.1253(2) 0.43390(17) 0.04601(16)
O3 O 0.1803(3) 0.3277(2) 0.22260(17)
O4 O 0.3672(3) 0.31697(18) 0.06906(18)
O5 O 0.2193(3) 0.6153(2) -0.26423(17)
O6 O 0.2586(10) 0.7760(4) -0.4056(4)
C1 C 0.2502(8) 0.7226(4) -0.3082(4)
C2 C 0.2987(9) 0.7767(10) -0.2279(12)
H1 H 0.3840 0.7289 -0.1934
H2 H 0.3516 0.8518 -0.2728
C3 C 0.2034(10) 0.7894(11) -0.1613(7)
H3 H 0.0883 0.7956 -0.1732
O7 O 0.2572(3) 0.6514(2) -0.0856(2)
C4 C 0.2516(6) 0.8673(4) -0.1088(3)
O8 O 0.3262(3) 0.82184(19) -0.0303(2)
O9 O 0.2085(6) 0.9654(3) -0.1401(4)
N1 N -0.2014(4) -0.0366(2) -0.2827(2)
C5 C -0.1349(5) 0.0645(3) -0.3585(3)
H4 H -0.1234 0.0754 -0.4304
C6 C -0.0830(5) 0.1528(3) -0.3337(3)
H5 H -0.0378 0.2215 -0.3884
C7 C -0.0987(4) 0.1384(3) -0.2267(2)
C8 C -0.1740(4) 0.0355(3) -0.1484(3)
H6 H -0.1911 0.0238 -0.0760
C9 C -0.2229(5) -0.0491(3) -0.1793(3)
H7 H -0.2727 -0.1174 -0.1264
N2 N 0.0764(3) 0.4017(2) -0.1424(2)
C10 C 0.0017(4) 0.4287(3) -0.2282(2)
H8 H -0.0120 0.5061 -0.2688
C11 C -0.0555(4) 0.3459(3) -0.2583(3)
H9 H -0.1047 0.3679 -0.3188
C12 C -0.0389(4) 0.2296(3) -0.1976(2)
C13 C 0.0375(4) 0.2024(3) -0.1085(3)
H10 H 0.0515 0.1256 -0.0659
C14 C 0.0922(4) 0.2897(3) -0.0840(2)
H11 H 0.1423 0.2700 -0.0240
N3 N 0.7114(4) 0.8004(2) 0.5590(2)
C15 C 0.7279(5) 0.6933(3) 0.5591(3)
H12 H 0.7680 0.6365 0.6155
C16 C 0.6874(5) 0.6644(3) 0.4786(3)
H13 H 0.7024 0.5898 0.4809
C17 C 0.6243(4) 0.7470(3) 0.3943(2)
C18 C 0.6091(5) 0.8576(3) 0.3943(3)
H14 H 0.5687 0.9160 0.3391
C19 C 0.6542(5) 0.8808(3) 0.4765(3)
H15 H 0.6444 0.9556 0.4744
N4 N 0.4625(3) 0.6782(2) 0.1438(2)
C20 C 0.4853(4) 0.5916(3) 0.2346(3)
H16 H 0.4629 0.5163 0.2429
C21 C 0.5411(5) 0.6095(3) 0.3169(3)
H17 H 0.5557 0.5468 0.3785
C22 C 0.5750(4) 0.7210(3) 0.3068(2)
C23 C 0.5585(5) 0.8099(3) 0.2106(3)
H18 H 0.5852 0.8856 0.1989
C24 C 0.5025(4) 0.7859(3) 0.1320(3)
H19 H 0.4920 0.8469 0.0682
N1A N 0.2014(4) 0.0366(2) 0.2827(2)
N3A N 0.2886(4) 0.1996(2) 0.4410(2)
Cu3A Cu -0.23822(6) -0.15881(3) -0.32761(3)
Cu3A_2 Cu 0.76178(6) 0.84119(3) 0.67239(3)
O10 O 0.7860(7) 0.3958(4) 0.4843(3)
H20 H 0.790(5) 0.346(4) 0.467(4)
H21 H 0.887(16) 0.442(11) 0.466(11)
loop_
_geom_bond_atom_site_label_1
_geom_bond_atom_site_label_2
_geom_bond_site_symmetry_1
_geom_bond_site_symmetry_2
Cu1 O1 1_555 1_555
Cu2 O2 1_555 1_555
Cu3 O3 1_555 1_555
S1 O1 1_555 1_555
O2 S1 1_555 1_555
O3 S1 1_555 1_555
O4 S1 1_555 1_555
O5 Cu2 1_555 1_555
O6 C1 1_555 1_555
C1 O5 1_555 1_555
C2 C1 1_555 1_555
H1 C2 1_555 1_555
H2 C2 1_555 1_555
C3 C2 1_555 1_555
H3 C3 1_555 1_555
O7 Cu1 1_555 1_555
C4 C3 1_555 1_555
O8 Cu1 1_555 1_555
O9 C4 1_555 1_555
N1 C5 1_555 1_555
C5 H4 1_555 1_555
C6 C5 1_555 1_555
H5 C6 1_555 1_555
C7 C6 1_555 1_555
C8 C7 1_555 1_555
H6 C8 1_555 1_555
C9 N1 1_555 1_555
H7 C9 1_555 1_555
N2 Cu2 1_555 1_555
C10 N2 1_555 1_555
H8 C10 1_555 1_555
C11 C10 1_555 1_555
H9 C11 1_555 1_555
C12 C7 1_555 1_555
C13 C12 1_555 1_555
H10 C13 1_555 1_555
C14 N2 1_555 1_555
H11 C14 1_555 1_555
N3 C15 1_555 1_555
C15 H12 1_555 1_555
C16 C15 1_555 1_555
H13 C16 1_555 1_555
C17 C16 1_555 1_555
C18 C17 1_555 1_555
H14 C18 1_555 1_555
C19 N3 1_555 1_555
H15 C19 1_555 1_555
N4 Cu1 1_555 1_555
C20 N4 1_555 1_555
H16 C20 1_555 1_555
C21 C20 1_555 1_555
H17 C21 1_555 1_555
C22 C17 1_555 1_555
C23 C22 1_555 1_555
H18 C23 1_555 1_555
C24 N4 1_555 1_555
H19 C24 1_555 1_555
O10 H20 1_555 1_555
H21 O10 1_555 1_555
N1A Cu3 1_555 1_555
N3A Cu3 1_555 1_555
Cu3A N1 1_555 1_555
Cu3A_2 N3 1_555 1_555
Cu2 O7 1_555 1_555
C3 O7 1_555 1_555
C4 O8 1_555 1_555
C8 C9 1_555 1_555
C11 C12 1_555 1_555
C13 C14 1_555 1_555
C18 C19 1_555 1_555
C21 C22 1_555 1_555
C23 C24 1_555 1_555

#END
