
#######################################################################
#
#                 Cambridge Crystallographic Data Centre
#                                CCDC 
#
#######################################################################
#
# If this CIF has been generated from an entry in the Cambridge 
# Structural Database, then it will include bibliographic, chemical, 
# crystal, experimental, refinement or atomic coordinate data resulting 
# from the CCDC's data processing and validation procedures.
#
#######################################################################

data_EMEDUV
_symmetry_cell_setting           monoclinic
_symmetry_space_group_name_H-M   'C 2/c'
_symmetry_Int_Tables_number      15
_space_group_name_Hall           '-C 2yn'
loop_
_symmetry_equiv_pos_site_id
_symmetry_equiv_pos_as_xyz
1 x,y,z
2 1/2+x,1/2+y,z
3 -x,y,1/2-z
4 1/2-x,1/2+y,1/2-z
5 -x,-y,-z
6 1/2-x,1/2-y,-z
7 x,-y,1/2+z
8 1/2+x,1/2-y,1/2+z
_cell_length_a                   20.243(9)
_cell_length_b                   11.576(5)
_cell_length_c                   9.834(4)
_cell_angle_alpha                90
_cell_angle_beta                 115.601(6)
_cell_angle_gamma                90
_cell_volume                     2078.19
loop_
_atom_site_label
_atom_site_type_symbol
_atom_site_fract_x
_atom_site_fract_y
_atom_site_fract_z
Dy1 Dy 1.0000 0.01315(3) 0.7500
O1 O 0.9197(3) -0.0261(5) 0.8475(8)
O2 O 0.8950(3) -0.0777(4) 1.0375(6)
O3 O 0.9689(3) 0.2019(4) 0.8180(6)
O4 O 0.9488(3) -0.1545(5) 0.5990(8)
N1 N 0.6775(5) -0.2205(11) 0.5907(12)
N2 N 1.0000 0.6175(17) 0.7500
C1 C 0.8796(3) -0.0709(6) 0.9016(8)
C2 C 0.8085(3) -0.1231(7) 0.7911(8)
C3 C 0.7761(5) -0.0898(12) 0.6409(10)
H1 H 0.7987 -0.0356 0.6051
C4 C 0.7102(6) -0.1381(13) 0.5457(14)
H2 H 0.6874 -0.1126 0.4463
C5 C 0.7066(6) -0.2468(13) 0.7329(14)
H3 H 0.6819 -0.2984 0.7671
C6 C 0.7719(5) -0.2021(9) 0.8352(11)
H4 H 0.7913 -0.2260 0.9352
C7 C 1.0000 0.2534(7) 0.7500
C8 C 1.0000 0.3837(9) 0.7500
C9 C 0.9588(7) 0.4433(8) 0.8077(14)
H5 H 0.9305 0.4039 0.8461
C10 C 0.9602(10) 0.5642(12) 0.8074(19)
H6 H 0.9335 0.6063 0.8471
H7 H 0.907(5) -0.125(4) 0.529(12)
H8 H 0.943(4) -0.2310(14) 0.582(11)
Dy1F Dy 1.0000 -0.01315(3) 1.2500
Dy1F_2 Dy 1.0000 -0.01315(3) 0.2500
O1B O 1.0803(3) -0.0261(5) 0.6525(8)
O2B O 1.1050(3) -0.0777(4) 0.4625(6)
O2F O 0.8950(3) 0.0777(4) 0.5375(6)
O2D O 1.1050(3) 0.0777(4) 0.9625(6)
O3B O 1.0311(3) 0.2019(4) 0.6820(6)
O4B O 1.0512(3) -0.1545(5) 0.9010(8)
N1B N 1.3225(5) -0.2205(11) 0.9093(12)
C1B C 1.1204(3) -0.0709(6) 0.5984(8)
C2B C 1.1915(3) -0.1231(7) 0.7089(8)
C3B C 1.2239(5) -0.0898(12) 0.8591(10)
H1B H 1.2013 -0.0356 0.8949
C4B C 1.2898(6) -0.1381(13) 0.9543(14)
H2B H 1.3126 -0.1126 1.0537
C5B C 1.2934(6) -0.2468(13) 0.7671(14)
H3B H 1.3181 -0.2984 0.7329
C6B C 1.2281(5) -0.2021(9) 0.6648(11)
H4B H 1.2087 -0.2260 0.5648
C9B C 1.0412(7) 0.4433(8) 0.6923(14)
H5B H 1.0695 0.4039 0.6539
C10B C 1.0398(10) 0.5642(12) 0.6926(19)
H6B H 1.0665 0.6063 0.6529
H7B H 1.093(5) -0.125(4) 0.971(12)
H8B H 1.057(4) -0.2310(14) 0.918(11)
loop_
_geom_bond_atom_site_label_1
_geom_bond_atom_site_label_2
_geom_bond_site_symmetry_1
_geom_bond_site_symmetry_2
Dy1 O1 1_555 1_555
O1 C1 1_555 1_555
O2 C1 1_555 1_555
O3 Dy1 1_555 1_555
O4 Dy1 1_555 1_555
N1 C4 1_555 1_555
N2 C10 1_555 1_555
C1 C2 1_555 1_555
C2 C3 1_555 1_555
C3 H1 1_555 1_555
C4 C3 1_555 1_555
H2 C4 1_555 1_555
C5 N1 1_555 1_555
H3 C5 1_555 1_555
C6 C2 1_555 1_555
H4 C6 1_555 1_555
C7 O3 1_555 1_555
C8 C7 1_555 1_555
C9 C8 1_555 1_555
H5 C9 1_555 1_555
C10 C9 1_555 1_555
H6 C10 1_555 1_555
H7 O4 1_555 1_555
H8 O4 1_555 1_555
Dy1F O2 1_555 1_555
Dy1F_2 O2B 1_555 1_555
O1B Dy1 1_555 1_555
O2B C1B 1_555 1_555
O2F Dy1 1_555 1_555
O2D Dy1 1_555 1_555
O3B Dy1 1_555 1_555
O4B Dy1 1_555 1_555
N1B C4B 1_555 1_555
C1B O1B 1_555 1_555
C2B C1B 1_555 1_555
C3B C2B 1_555 1_555
H1B C3B 1_555 1_555
C4B C3B 1_555 1_555
H2B C4B 1_555 1_555
C5B N1B 1_555 1_555
H3B C5B 1_555 1_555
C6B C2B 1_555 1_555
H4B C6B 1_555 1_555
C9B C8 1_555 1_555
H5B C9B 1_555 1_555
C10B N2 1_555 1_555
H6B C10B 1_555 1_555
H7B O4B 1_555 1_555
H8B O4B 1_555 1_555
C5 C6 1_555 1_555
C7 O3B 1_555 1_555
C5B C6B 1_555 1_555
C9B C10B 1_555 1_555

#END
