
#######################################################################
#
#                 Cambridge Crystallographic Data Centre
#                                CCDC 
#
#######################################################################
#
# If this CIF has been generated from an entry in the Cambridge 
# Structural Database, then it will include bibliographic, chemical, 
# crystal, experimental, refinement or atomic coordinate data resulting 
# from the CCDC's data processing and validation procedures.
#
#######################################################################

data_EMEDUV01
_symmetry_cell_setting           monoclinic
_symmetry_space_group_name_H-M   'C 2/c'
_symmetry_Int_Tables_number      15
_space_group_name_Hall           '-C 2yn'
loop_
_symmetry_equiv_pos_site_id
_symmetry_equiv_pos_as_xyz
1 x,y,z
2 1/2+x,1/2+y,z
3 -x,y,1/2-z
4 1/2-x,1/2+y,1/2-z
5 -x,-y,-z
6 1/2-x,1/2-y,-z
7 x,-y,1/2+z
8 1/2+x,1/2-y,1/2+z
_cell_length_a                   15.7890(3)
_cell_length_b                   14.1356(6)
_cell_length_c                   9.5152(3)
_cell_angle_alpha                90
_cell_angle_beta                 97.899(2)
_cell_angle_gamma                90
_cell_volume                     2103.52
loop_
_atom_site_label
_atom_site_type_symbol
_atom_site_fract_x
_atom_site_fract_y
_atom_site_fract_z
Dy1 Dy 0.0000 -0.02014(4) 0.2500
N1 N 0.3676(5) -0.1968(6) 0.7259(8)
N2 N 0.0000 0.4818(13) 0.2500
O1 O 0.1311(3) -0.0577(4) 0.3845(5)
O2 O 0.0909(3) -0.0269(4) 0.5914(5)
O3 O -0.0499(3) 0.1366(4) 0.1571(5)
O4 O 0.0319(4) -0.1601(4) 0.1271(6)
H1 H 0.059(5) -0.150(5) 0.067(9)
H2 H 0.064(7) -0.200(8) 0.166(12)
C1 C 0.3080(7) -0.1634(9) 0.7963(10)
H3 H 0.3149 -0.1723 0.8940
C2 C 0.2363(6) -0.1162(8) 0.7347(9)
H4 H 0.1963 -0.0942 0.7900
C3 C 0.2243(5) -0.1019(5) 0.5895(8)
C4 C 0.1428(4) -0.0577(5) 0.5168(7)
C5 C 0.2871(5) -0.1345(6) 0.5140(9)
H5 H 0.2827 -0.1255 0.4164
C6 C 0.3577(6) -0.1814(6) 0.5879(10)
H6 H 0.4000 -0.2029 0.5367
C7 C -0.0685(11) 0.4321(9) 0.1847(19)
H7 H -0.1164 0.4644 0.1415
C8 C -0.0675(8) 0.3347(8) 0.1820(14)
H8 H -0.1136 0.3022 0.1330
C9 C 0.0000 0.2853(8) 0.2500
C10 C 0.0000 0.1811(7) 0.2500
Dy1D Dy 0.0000 0.02014(4) 0.7500
Dy1D_2 Dy 0.0000 0.02014(4) -0.2500
N1B N -0.3676(5) -0.1968(6) -0.2259(8)
O1B O -0.1311(3) -0.0577(4) 0.1155(5)
O2B O -0.0909(3) -0.0269(4) -0.0914(5)
O2F O 0.0909(3) 0.0269(4) 0.0914(5)
O2D O -0.0909(3) 0.0269(4) 0.4086(5)
O3B O 0.0499(3) 0.1366(4) 0.3429(5)
O4B O -0.0319(4) -0.1601(4) 0.3729(6)
H1B H -0.059(5) -0.150(5) 0.433(9)
H2B H -0.064(7) -0.200(8) 0.334(12)
C1B C -0.3080(7) -0.1634(9) -0.2963(10)
H3B H -0.3149 -0.1723 -0.3940
C2B C -0.2363(6) -0.1162(8) -0.2347(9)
H4B H -0.1963 -0.0942 -0.2900
C3B C -0.2243(5) -0.1019(5) -0.0895(8)
C4B C -0.1428(4) -0.0577(5) -0.0168(7)
C5B C -0.2871(5) -0.1345(6) -0.0140(9)
H5B H -0.2827 -0.1255 0.0836
C6B C -0.3577(6) -0.1814(6) -0.0879(10)
H6B H -0.4000 -0.2029 -0.0367
C7B C 0.0685(11) 0.4321(9) 0.3153(19)
H7B H 0.1164 0.4644 0.3585
C8B C 0.0675(8) 0.3347(8) 0.3180(14)
H8B H 0.1136 0.3022 0.3670
loop_
_geom_bond_atom_site_label_1
_geom_bond_atom_site_label_2
_geom_bond_site_symmetry_1
_geom_bond_site_symmetry_2
Dy1 O1 1_555 1_555
N1 C1 1_555 1_555
N2 C7 1_555 1_555
O1 C4 1_555 1_555
O2 C4 1_555 1_555
O3 Dy1 1_555 1_555
O4 Dy1 1_555 1_555
H1 O4 1_555 1_555
H2 O4 1_555 1_555
C1 H3 1_555 1_555
C2 C1 1_555 1_555
H4 C2 1_555 1_555
C3 C2 1_555 1_555
C4 C3 1_555 1_555
C5 C3 1_555 1_555
H5 C5 1_555 1_555
C6 N1 1_555 1_555
H6 C6 1_555 1_555
C7 H7 1_555 1_555
C8 C7 1_555 1_555
H8 C8 1_555 1_555
C9 C8 1_555 1_555
C10 O3 1_555 1_555
Dy1D O2 1_555 1_555
Dy1D_2 O2B 1_555 1_555
N1B C1B 1_555 1_555
O1B Dy1 1_555 1_555
O2B C4B 1_555 1_555
O2F Dy1 1_555 1_555
O2D Dy1 1_555 1_555
O3B Dy1 1_555 1_555
O4B Dy1 1_555 1_555
H1B O4B 1_555 1_555
H2B O4B 1_555 1_555
C1B H3B 1_555 1_555
C2B C1B 1_555 1_555
H4B C2B 1_555 1_555
C3B C2B 1_555 1_555
C4B O1B 1_555 1_555
C5B C3B 1_555 1_555
H5B C5B 1_555 1_555
C6B N1B 1_555 1_555
H6B C6B 1_555 1_555
C7B N2 1_555 1_555
H7B C7B 1_555 1_555
C8B C9 1_555 1_555
H8B C8B 1_555 1_555
C5 C6 1_555 1_555
C9 C10 1_555 1_555
C10 O3B 1_555 1_555
C3B C4B 1_555 1_555
C5B C6B 1_555 1_555
C7B C8B 1_555 1_555

#END
