
#######################################################################
#
#                 Cambridge Crystallographic Data Centre
#                                CCDC 
#
#######################################################################
#
# If this CIF has been generated from an entry in the Cambridge 
# Structural Database, then it will include bibliographic, chemical, 
# crystal, experimental, refinement or atomic coordinate data resulting 
# from the CCDC's data processing and validation procedures.
#
#######################################################################

data_EMEFAD
_symmetry_cell_setting           rhombohedral
_symmetry_space_group_name_H-M   'R 3'
_symmetry_Int_Tables_number      146
_space_group_name_Hall           'P 3*'
loop_
_symmetry_equiv_pos_site_id
_symmetry_equiv_pos_as_xyz
1 x,y,z
2 z,x,y
3 y,z,x
_cell_length_a                   11.597(2)
_cell_length_b                   11.597(2)
_cell_length_c                   11.597(2)
_cell_angle_alpha                118.3794(3)
_cell_angle_beta                 118.3794(3)
_cell_angle_gamma                118.3794(3)
_cell_volume                     511.344
loop_
_atom_site_label
_atom_site_type_symbol
_atom_site_fract_x
_atom_site_fract_y
_atom_site_fract_z
Co1 Co 0.1206(2) 0.1201(3) 0.2997(3)
P1 P 0.6643(3) 0.6643(3) 0.6643(3)
O1 O 0.1037(8) 0.2991(8) 0.4144(8)
O2 O 0.1464(9) 0.4490(8) 0.3382(9)
O3 O 0.3126(11) 0.3126(11) 0.3126(11)
O4 O 0.7088(7) 0.7163(7) 0.8409(7)
N1 N 0.2778(9) 0.9196(9) 0.9160(9)
C1 C 0.1446(11) 0.4372(11) 0.4399(11)
C2 C 0.1980(11) 0.6115(11) 0.6139(11)
C3 C 0.0771(12) 0.5194(12) 0.6218(12)
H1 H -0.0286 0.3557 0.5300
C4 C 0.1150(12) 0.6737(12) 0.7684(12)
H2 H 0.0241 0.6037 0.7638
C5 C 0.4012(11) 1.0122(11) 0.9146(12)
H3 H 0.5192 1.1860 1.0212
C6 C 0.3628(11) 0.8629(11) 0.7626(11)
H4 H 0.4461 0.9303 0.7606
O4A O 0.8409(7) 0.7088(7) 0.7163(7)
O4B O 0.7163(7) 0.8409(7) 0.7088(7)
O1A O 0.4144(8) 0.1037(8) 0.2991(8)
O2A O 0.3382(9) 0.1464(9) 0.4490(8)
N1A N 0.9160(9) 0.2778(9) 0.9196(9)
C1A C 0.4399(11) 0.1446(11) 0.4372(11)
C2A C 0.6139(11) 0.1980(11) 0.6115(11)
C3A C 0.6218(12) 0.0771(12) 0.5194(12)
H1A H 0.5300 -0.0286 0.3557
C4A C 0.7684(12) 0.1150(12) 0.6737(12)
H2A H 0.7638 0.0241 0.6037
C5A C 0.9146(12) 0.4012(11) 1.0122(11)
H3A H 1.0212 0.5192 1.1860
C6A C 0.7626(11) 0.3628(11) 0.8629(11)
H4A H 0.7606 0.4461 0.9303
O1B O -0.7009(8) -0.5856(8) 0.1037(8)
O2B O -0.5510(8) -0.6618(9) 0.1464(9)
N1B N -0.0804(9) -0.0840(9) 0.2778(9)
C1B C -0.5628(11) -0.5601(11) 0.1446(11)
C2B C -0.3885(11) -0.3861(11) 0.1980(11)
C3B C -0.4806(12) -0.3782(12) 0.0771(12)
H1B H -0.6443 -0.4700 -0.0286
C4B C -0.3263(12) -0.2316(12) 0.1150(12)
H2B H -0.3963 -0.2362 0.0241
C5B C 0.0122(11) -0.0854(12) 0.4012(11)
H3B H 0.1860 0.0212 0.5192
C6B C -0.1371(11) -0.2374(11) 0.3628(11)
H4B H -0.0697 -0.2394 0.4461
Co1A Co 0.2997(3) 0.1206(2) 0.1201(3)
Co1B Co -0.8799(3) -0.7003(3) 0.1206(2)
O4_2 O -0.2912(7) -0.2837(7) -0.1591(7)
Co1B_2 Co 0.1201(3) 0.2997(3) 0.1206(2)
Co1_2 Co 1.1206(2) 1.1201(3) 1.2997(3)
Co1A_2 Co 0.2997(3) 1.1206(2) 1.1201(3)
Co1A_3 Co 1.2997(3) 1.1206(2) 1.1201(3)
Co1B_3 Co 1.1201(3) 1.2997(3) 1.1206(2)
Co1B_4 Co 1.1201(3) 0.2997(3) 1.1206(2)
Co1A_4 Co -0.7003(3) -0.8794(2) 0.1201(3)
O2B_2 O 0.4490(8) 0.3382(9) 0.1464(9)
O4A_2 O -0.1591(7) -0.2912(7) -0.2837(7)
N1_2 N 0.2778(9) -0.0804(9) -0.0840(9)
O2_2 O -0.8536(9) -0.5510(8) 0.3382(9)
O3_2 O -0.6874(11) -0.6874(11) 0.3126(11)
O4B_2 O -1.2837(7) -1.1591(7) -0.2912(7)
N1A_2 N -1.0840(9) -0.7222(9) -0.0804(9)
loop_
_geom_bond_atom_site_label_1
_geom_bond_atom_site_label_2
_geom_bond_site_symmetry_1
_geom_bond_site_symmetry_2
Co1 O1 1_555 1_555
P1 O3 1_555 1_555
O1 C1 1_555 1_555
O2 C1 1_555 1_555
O3 Co1 1_555 1_555
O4 P1 1_555 1_555
N1 C4 1_555 1_555
C1 C2 1_555 1_555
C2 C3 1_555 1_555
C3 H1 1_555 1_555
C4 C3 1_555 1_555
H2 C4 1_555 1_555
C5 N1 1_555 1_555
H3 C5 1_555 1_555
C6 C2 1_555 1_555
H4 C6 1_555 1_555
O4A P1 1_555 1_555
O4B P1 1_555 1_555
O1A C1A 1_555 1_555
O2A Co1 1_555 1_555
N1A C4A 1_555 1_555
C1A O2A 1_555 1_555
C2A C1A 1_555 1_555
C3A C2A 1_555 1_555
H1A C3A 1_555 1_555
C4A C3A 1_555 1_555
H2A C4A 1_555 1_555
C5A N1A 1_555 1_555
H3A C5A 1_555 1_555
C6A C2A 1_555 1_555
H4A C6A 1_555 1_555
O1B C1B 1_555 1_555
O2B C1B 1_555 1_555
N1B Co1 1_555 1_555
C1B C2B 1_555 1_555
C2B C3B 1_555 1_555
C3B H1B 1_555 1_555
C4B N1B 1_555 1_555
H2B C4B 1_555 1_555
C5B N1B 1_555 1_555
H3B C5B 1_555 1_555
C6B C2B 1_555 1_555
H4B C6B 1_555 1_555
Co1A O3 1_555 1_555
Co1B O1B 1_555 1_555
O4_2 Co1 1_555 1_555
Co1B_2 O2 1_555 1_555
Co1_2 O4 1_555 1_555
Co1A_2 N1 1_555 1_555
Co1A_3 O4A 1_555 1_555
Co1B_3 O4B 1_555 1_555
Co1B_4 N1A 1_555 1_555
Co1A_4 O2B 1_555 1_555
O2B_2 Co1A 1_555 1_555
O4A_2 Co1A 1_555 1_555
N1_2 Co1A 1_555 1_555
O2_2 Co1B 1_555 1_555
O3_2 Co1B 1_555 1_555
O4B_2 Co1B 1_555 1_555
N1A_2 Co1B 1_555 1_555
O3 Co1B_2 1_555 1_555
C5 C6 1_555 1_555
O1A Co1A 1_555 1_555
C5A C6A 1_555 1_555
C3B C4B 1_555 1_555
C5B C6B 1_555 1_555
Co1A_4 O3_2 1_555 1_555

#END
