
#######################################################################
#
#                 Cambridge Crystallographic Data Centre
#                                CCDC 
#
#######################################################################
#
# If this CIF has been generated from an entry in the Cambridge 
# Structural Database, then it will include bibliographic, chemical, 
# crystal, experimental, refinement or atomic coordinate data resulting 
# from the CCDC's data processing and validation procedures.
#
#######################################################################

data_EMEJIQ
_symmetry_cell_setting           monoclinic
_symmetry_space_group_name_H-M   'P 21/c'
_symmetry_Int_Tables_number      14
_space_group_name_Hall           '-P 2ybc'
loop_
_symmetry_equiv_pos_site_id
_symmetry_equiv_pos_as_xyz
1 x,y,z
2 -x,1/2+y,1/2-z
3 -x,-y,-z
4 x,1/2-y,1/2+z
_cell_length_a                   16.067(3)
_cell_length_b                   17.478(4)
_cell_length_c                   14.840(3)
_cell_angle_alpha                90
_cell_angle_beta                 101.36(3)
_cell_angle_gamma                90
_cell_volume                     4085.71
loop_
_atom_site_label
_atom_site_type_symbol
_atom_site_fract_x
_atom_site_fract_y
_atom_site_fract_z
Ag1 Ag 0.644434(17) 0.236430(16) 0.15819(2)
Ag2 Ag 0.667360(16) 0.185290(16) -0.16501(2)
Ag3 Ag 0.731930(16) 0.369826(18) 0.09787(2)
O1 O 0.57522(18) 0.11203(16) 0.0843(2)
O2 O 0.6238(2) 0.04271(19) -0.0134(3)
O3 O 0.65996(19) 0.16078(16) 0.0049(2)
O4 O 0.6832(2) 0.30986(17) -0.0694(2)
O5 O 0.5926(2) 0.3533(2) -0.1815(2)
O6 O 0.6548(3) 0.4268(2) -0.0726(3)
N1 N 0.53113(17) 0.36008(16) 0.3016(2)
N2 N 0.56586(17) 0.48579(15) 0.2657(2)
N3 N 0.62125(16) 0.42035(16) 0.14732(19)
N4 N 0.54307(17) 0.31064(17) 0.0932(2)
N5 N 0.85300(16) 0.30083(16) 0.11457(19)
N6 N 0.91320(16) 0.36416(15) 0.25077(19)
N7 N 0.80266(15) 0.29830(15) 0.30871(18)
N8 N 0.75934(17) 0.18311(16) 0.2336(2)
N9 N 0.6184(2) 0.10440(19) 0.0241(2)
N10 N 0.6423(2) 0.36374(19) -0.1087(2)
C1 C 0.5062(2) 0.43249(19) 0.2870(2)
C2 C 0.4261(2) 0.4586(2) 0.2935(3)
H3 H 0.4110 0.5096 0.2817
C3 C 0.3695(2) 0.4068(3) 0.3178(3)
H4 H 0.3160 0.4226 0.3254
C4 C 0.3935(3) 0.3315(3) 0.3306(3)
H5 H 0.3558 0.2953 0.3451
C5 C 0.4735(2) 0.3104(2) 0.3218(3)
H6 H 0.4888 0.2592 0.3302
C6 C 0.5784(2) 0.56007(19) 0.3137(3)
H7 H 0.5874 0.5535 0.3799
H8 H 0.5304 0.5938 0.2939
C7 C 0.6565(2) 0.58972(19) 0.2849(3)
C8 C 0.6984(3) 0.6585(2) 0.3058(3)
H9 H 0.6809 0.6934 0.3456
C9 C 0.7669(3) 0.6737(2) 0.2659(3)
H10 H 0.7955 0.7199 0.2788
C10 C 0.7944(2) 0.6224(3) 0.2073(3)
H11 H 0.8413 0.6342 0.1819
C11 C 0.7526(2) 0.5536(2) 0.1860(3)
H12 H 0.7705 0.5188 0.1464
C12 C 0.6828(2) 0.53809(19) 0.2259(2)
C13 C 0.62228(19) 0.47463(18) 0.2091(2)
C14 C 0.5435(2) 0.38656(19) 0.1067(2)
C15 C 0.4719(2) 0.4314(2) 0.0742(3)
H13 H 0.4732 0.4839 0.0847
C16 C 0.4001(2) 0.3971(2) 0.0269(3)
H14 H 0.3519 0.4262 0.0048
C17 C 0.3992(2) 0.3198(3) 0.0121(3)
H15 H 0.3508 0.2957 -0.0202
C18 C 0.4719(2) 0.2785(2) 0.0461(3)
H16 H 0.4713 0.2260 0.0360
C19 C 0.92337(19) 0.31782(19) 0.1757(2)
C20 C 1.0034(2) 0.2931(2) 0.1682(3)
H17 H 1.0511 0.3074 0.2112
C21 C 1.0105(2) 0.2468(2) 0.0951(3)
H18 H 1.0637 0.2311 0.0863
C22 C 0.9385(2) 0.2242(2) 0.0354(3)
H19 H 0.9419 0.1900 -0.0118
C23 C 0.8615(2) 0.2524(2) 0.0460(2)
H20 H 0.8130 0.2377 0.0042
C24 C 0.9658(2) 0.43335(19) 0.2740(2)
H21 H 0.9639 0.4658 0.2206
H22 H 1.0244 0.4202 0.2994
C25 C 0.9245(2) 0.47094(19) 0.3440(2)
C26 C 0.9452(2) 0.5381(2) 0.3924(3)
H23 H 0.9906 0.5680 0.3829
C27 C 0.8966(3) 0.5596(2) 0.4555(3)
H24 H 0.9095 0.6047 0.4884
C28 C 0.8294(3) 0.5156(2) 0.4706(3)
H25 H 0.7972 0.5320 0.5126
C29 C 0.8094(2) 0.4473(2) 0.4241(2)
H26 H 0.7653 0.4167 0.4356
C30 C 0.8571(2) 0.42592(18) 0.3597(2)
C31 C 0.85267(19) 0.35654(18) 0.3042(2)
C32 C 0.8229(2) 0.22468(19) 0.2817(2)
C33 C 0.9044(2) 0.1936(2) 0.3094(2)
H27 H 0.9481 0.2227 0.3432
C34 C 0.9188(2) 0.1196(2) 0.2857(3)
H28 H 0.9728 0.0985 0.3024
C35 C 0.8528(2) 0.0764(2) 0.2371(3)
H29 H 0.8613 0.0259 0.2211
C36 C 0.7750(2) 0.1101(2) 0.2133(3)
H30 H 0.7303 0.0810 0.1814
Ag2C Ag 0.667360(16) 0.314710(16) 0.33499(2)
N1C N 0.53113(17) 0.13992(16) -0.1984(2)
N7C N 0.80266(15) 0.20170(15) -0.19129(18)
O7 O 0.8309(2) 0.6459(2) 0.6583(3)
O8 O 0.7795(2) 0.7179(3) 0.5450(3)
O9 O 0.9113(2) 0.7219(2) 0.6033(2)
N11 N 0.8402(2) 0.6960(2) 0.6024(2)
O10 O 0.8369(5) 0.8717(3) 0.4845(4)
H1 H 0.8500 0.8270 0.4970
C37 C 0.7929(5) 0.8765(4) 0.3929(5)
H31 H 0.7722 0.9276 0.3803
H32 H 0.7460 0.8414 0.3835
H33 H 0.8305 0.8636 0.3524
O11 O 0.8840(5) 0.4910(4) 0.0613(3)
H2 H 0.8728 0.5358 0.0474
C38 C 0.8991(5) 0.4525(4) -0.0134(5)
H34 H 0.9284 0.4853 -0.0486
H35 H 0.8461 0.4366 -0.0507
H36 H 0.9333 0.4083 0.0063
loop_
_geom_bond_atom_site_label_1
_geom_bond_atom_site_label_2
_geom_bond_site_symmetry_1
_geom_bond_site_symmetry_2
Ag1 O1 1_555 1_555
Ag2 O3 1_555 1_555
Ag3 O4 1_555 1_555
O1 N9 1_555 1_555
O2 N9 1_555 1_555
O3 Ag1 1_555 1_555
O4 Ag2 1_555 1_555
O5 N10 1_555 1_555
O6 Ag3 1_555 1_555
O7 N11 1_555 1_555
O8 N11 1_555 1_555
O9 N11 1_555 1_555
O10 H1 1_555 1_555
O11 H2 1_555 1_555
N1 C1 1_555 1_555
N2 C1 1_555 1_555
N3 Ag3 1_555 1_555
N4 Ag1 1_555 1_555
N5 Ag3 1_555 1_555
N6 C19 1_555 1_555
N7 C31 1_555 1_555
N8 Ag1 1_555 1_555
N9 O3 1_555 1_555
N10 O4 1_555 1_555
C1 C2 1_555 1_555
C2 H3 1_555 1_555
C3 C2 1_555 1_555
H4 C3 1_555 1_555
C4 C3 1_555 1_555
H5 C4 1_555 1_555
C5 N1 1_555 1_555
H6 C5 1_555 1_555
C6 N2 1_555 1_555
H7 C6 1_555 1_555
H8 C6 1_555 1_555
C7 C6 1_555 1_555
C8 C7 1_555 1_555
H9 C8 1_555 1_555
C9 C8 1_555 1_555
H10 C9 1_555 1_555
C10 C9 1_555 1_555
H11 C10 1_555 1_555
C11 C10 1_555 1_555
H12 C11 1_555 1_555
C12 C7 1_555 1_555
C13 N2 1_555 1_555
C14 N3 1_555 1_555
C15 C14 1_555 1_555
H13 C15 1_555 1_555
C16 C15 1_555 1_555
H14 C16 1_555 1_555
C17 C16 1_555 1_555
H15 C17 1_555 1_555
C18 N4 1_555 1_555
H16 C18 1_555 1_555
C19 N5 1_555 1_555
C20 C19 1_555 1_555
H17 C20 1_555 1_555
C21 C20 1_555 1_555
H18 C21 1_555 1_555
C22 C21 1_555 1_555
H19 C22 1_555 1_555
C23 N5 1_555 1_555
H20 C23 1_555 1_555
C24 N6 1_555 1_555
H21 C24 1_555 1_555
H22 C24 1_555 1_555
C25 C24 1_555 1_555
C26 C25 1_555 1_555
H23 C26 1_555 1_555
C27 C26 1_555 1_555
H24 C27 1_555 1_555
C28 C27 1_555 1_555
H25 C28 1_555 1_555
C29 C28 1_555 1_555
H26 C29 1_555 1_555
C30 C25 1_555 1_555
C31 N6 1_555 1_555
C32 N7 1_555 1_555
C33 C32 1_555 1_555
H27 C33 1_555 1_555
C34 C33 1_555 1_555
H28 C34 1_555 1_555
C35 C34 1_555 1_555
H29 C35 1_555 1_555
C36 N8 1_555 1_555
H30 C36 1_555 1_555
C37 O10 1_555 1_555
H31 C37 1_555 1_555
H32 C37 1_555 1_555
H33 C37 1_555 1_555
C38 O11 1_555 1_555
H34 C38 1_555 1_555
H35 C38 1_555 1_555
H36 C38 1_555 1_555
Ag2C N1 1_555 1_555
N1C Ag2 1_555 1_555
N7C Ag2 1_555 1_555
O6 N10 1_555 1_555
N3 C13 1_555 1_555
N4 C14 1_555 1_555
N7 Ag2C 1_555 1_555
N8 C32 1_555 1_555
C4 C5 1_555 1_555
C11 C12 1_555 1_555
C12 C13 1_555 1_555
C17 C18 1_555 1_555
C22 C23 1_555 1_555
C29 C30 1_555 1_555
C30 C31 1_555 1_555
C35 C36 1_555 1_555

#END
