
#######################################################################
#
#                 Cambridge Crystallographic Data Centre
#                                CCDC 
#
#######################################################################
#
# If this CIF has been generated from an entry in the Cambridge 
# Structural Database, then it will include bibliographic, chemical, 
# crystal, experimental, refinement or atomic coordinate data resulting 
# from the CCDC's data processing and validation procedures.
#
#######################################################################

data_EMELOX
_symmetry_cell_setting           monoclinic
_symmetry_space_group_name_H-M   'P 21/n'
_symmetry_Int_Tables_number      14
_space_group_name_Hall           '-P 2yn'
loop_
_symmetry_equiv_pos_site_id
_symmetry_equiv_pos_as_xyz
1 x,y,z
2 1/2+x,1/2-y,1/2+z
3 -x,-y,-z
4 1/2-x,1/2+y,1/2-z
_cell_length_a                   10.4337(8)
_cell_length_b                   14.8032(8)
_cell_length_c                   11.1093(8)
_cell_angle_alpha                90
_cell_angle_beta                 96.708(9)
_cell_angle_gamma                90
_cell_volume                     1704.11
loop_
_atom_site_label
_atom_site_type_symbol
_atom_site_fract_x
_atom_site_fract_y
_atom_site_fract_z
Cu1 Cu 0.47733(8) 0.42424(6) 0.41350(8)
Cu2 Cu 0.37694(8) 0.28965(6) 0.54349(7)
I1 I 0.23618(4) 0.35547(3) 0.35258(4)
I2 I 0.45378(4) 0.59814(3) 0.34659(4)
N1 N 0.6057(5) 0.3591(4) 0.3095(5)
C1 C 0.7311(6) 0.3789(4) 0.3134(5)
C2 C 0.8066(6) 0.3339(4) 0.2371(6)
H1 H 0.8932 0.3498 0.2400
N2 N 0.7609(5) 0.2690(4) 0.1599(5)
C3 C 0.6361(6) 0.2493(5) 0.1586(6)
H2 H 0.6003 0.2044 0.1067
C4 C 0.5581(6) 0.2937(5) 0.2321(6)
H3 H 0.4713 0.2783 0.2280
C5 C 0.7910(7) 0.4477(5) 0.3999(6)
H4 H 0.7235 0.4814 0.4330
H5 H 0.8403 0.4898 0.3567
C6 C 0.8782(7) 0.4060(7) 0.5018(8)
H6 H 0.9122 0.4524 0.5568
H7 H 0.9480 0.3754 0.4697
H8 H 0.8302 0.3635 0.5440
N3 N 0.5843(10) 0.0367(6) 0.3641(8)
C7 C 0.6523(11) 0.0926(8) 0.4436(11)
C8 C 0.5936(8) 0.1625(6) 0.4989(7)
H9 H 0.6435 0.1993 0.5538
N4 N 0.4678(6) 0.1787(4) 0.4759(5)
C9 C 0.4004(9) 0.1232(5) 0.3979(7)
H10 H 0.3119 0.1314 0.3797
C10 C 0.4611(12) 0.0537(6) 0.3439(8)
H11 H 0.4108 0.0167 0.2896
C11 C 0.7942(18) 0.0631(14) 0.481(3)
H12 H 0.8109 0.0538 0.5680
H13 H 0.8144 0.0081 0.4398
C12 C 0.856(2) 0.1281(13) 0.4485(19)
H14 H 0.9469 0.1170 0.4687
H15 H 0.8325 0.1818 0.4890
H16 H 0.8376 0.1360 0.3625
I2B I 0.54622(4) 0.40186(3) 0.65341(4)
N2A N 0.2609(5) 0.2310(4) 0.6599(5)
Cu1B Cu 0.52267(8) 0.57576(6) 0.58650(8)
Cu2B Cu 0.62306(8) 0.71035(6) 0.45651(7)
Cu2A Cu 0.87694(8) 0.21035(6) 0.04349(7)
loop_
_geom_bond_atom_site_label_1
_geom_bond_atom_site_label_2
_geom_bond_site_symmetry_1
_geom_bond_site_symmetry_2
Cu1 I1 1_555 1_555
Cu2 I1 1_555 1_555
I2 Cu1 1_555 1_555
N1 Cu1 1_555 1_555
C1 N1 1_555 1_555
C2 C1 1_555 1_555
H1 C2 1_555 1_555
N2 C2 1_555 1_555
C3 N2 1_555 1_555
H2 C3 1_555 1_555
C4 N1 1_555 1_555
H3 C4 1_555 1_555
C5 C1 1_555 1_555
H4 C5 1_555 1_555
H5 C5 1_555 1_555
C6 C5 1_555 1_555
H6 C6 1_555 1_555
H7 C6 1_555 1_555
H8 C6 1_555 1_555
N3 C7 1_555 1_555
C7 C8 1_555 1_555
C8 H9 1_555 1_555
N4 Cu2 1_555 1_555
C9 N4 1_555 1_555
H10 C9 1_555 1_555
C10 N3 1_555 1_555
H11 C10 1_555 1_555
C11 C7 1_555 1_555
H12 C11 1_555 1_555
H13 C11 1_555 1_555
C12 C11 1_555 1_555
H14 C12 1_555 1_555
H15 C12 1_555 1_555
H16 C12 1_555 1_555
I2B Cu1 1_555 1_555
N2A Cu2 1_555 1_555
Cu1B I2 1_555 1_555
Cu2B I2 1_555 1_555
Cu2A N2 1_555 1_555
Cu2 I2B 1_555 1_555
C3 C4 1_555 1_555
C8 N4 1_555 1_555
C9 C10 1_555 1_555
I2B Cu1B 1_555 1_555

#END
