
#######################################################################
#
#                 Cambridge Crystallographic Data Centre
#                                CCDC 
#
#######################################################################
#
# If this CIF has been generated from an entry in the Cambridge 
# Structural Database, then it will include bibliographic, chemical, 
# crystal, experimental, refinement or atomic coordinate data resulting 
# from the CCDC's data processing and validation procedures.
#
#######################################################################

data_EMEPOB
_symmetry_cell_setting           triclinic
_symmetry_space_group_name_H-M   'P -1'
_symmetry_Int_Tables_number      2
_space_group_name_Hall           '-P 1'
loop_
_symmetry_equiv_pos_site_id
_symmetry_equiv_pos_as_xyz
1 x,y,z
2 -x,-y,-z
_cell_length_a                   10.3752(10)
_cell_length_b                   10.6684(11)
_cell_length_c                   11.7583(12)
_cell_angle_alpha                83.179(2)
_cell_angle_beta                 86.228(2)
_cell_angle_gamma                71.187(2)
_cell_volume                     1222.71
loop_
_atom_site_label
_atom_site_type_symbol
_atom_site_fract_x
_atom_site_fract_y
_atom_site_fract_z
Cu1 Cu 0.5000 0.0000 0.5000
Cu2 Cu 0.76889(3) -0.22245(3) 0.69781(3)
O1 O 0.0267(2) -0.3416(2) 0.92208(17)
H1 H -0.0538 -0.3042 0.9375
O2 O -0.0030(2) -0.1677(2) 0.7896(2)
O3 O 0.40067(18) -0.11313(18) 0.57242(16)
O4 O 0.60477(18) -0.26171(19) 0.60149(16)
O5 O 0.7792(2) -0.2489(2) -0.01187(18)
O6 O 0.6549(2) -0.2251(2) -0.16520(16)
O7 O 0.52876(19) -0.0879(2) 0.35414(15)
O8 O 0.31093(19) 0.03048(18) 0.33742(16)
N1 N 0.8867(2) -0.4133(2) 0.7226(2)
N2 N 0.9025(2) -0.2201(2) 0.56556(19)
C1 C 0.0690(3) -0.2697(3) 0.8387(2)
C2 C 0.2160(3) -0.3293(3) 0.8064(2)
C3 C 0.2938(3) -0.4530(3) 0.8551(3)
H2 H 0.2541 -0.5022 0.9083
C4 C 0.4303(3) -0.5037(3) 0.8250(3)
H3 H 0.4823 -0.5870 0.8577
C5 C 0.4895(3) -0.4303(3) 0.7462(2)
H4 H 0.5817 -0.4640 0.7267
C6 C 0.4124(3) -0.3069(3) 0.6962(2)
C7 C 0.2753(2) -0.2575(3) 0.7259(2)
H5 H 0.2227 -0.1753 0.6916
C8 C 0.4789(3) -0.2233(3) 0.6174(2)
C9 C 0.6705(3) -0.2213(3) -0.0597(2)
C10 C 0.5405(3) -0.1782(2) 0.0116(2)
C11 C 0.4172(3) -0.1690(3) -0.0340(3)
H6 H 0.4154 -0.1936 -0.1070
C12 C 0.2971(3) -0.1232(4) 0.0291(3)
H7 H 0.2148 -0.1181 -0.0012
C13 C 0.2990(3) -0.0848(3) 0.1374(3)
H8 H 0.2179 -0.0519 0.1788
C14 C 0.4219(3) -0.0955(2) 0.1839(2)
C15 C 0.5416(3) -0.1437(2) 0.1213(2)
H9 H 0.6242 -0.1532 0.1533
C16 C 0.4217(3) -0.0481(2) 0.2988(2)
C17 C 0.8730(4) -0.5099(3) 0.7990(3)
H10 H 0.7956 -0.4932 0.8469
C18 C 0.9702(4) -0.6357(3) 0.8105(3)
H11 H 0.9556 -0.7021 0.8634
C19 C 1.0861(4) -0.6614(3) 0.7445(3)
H12 H 1.1519 -0.7449 0.7532
C20 C 1.1063(3) -0.5606(3) 0.6623(3)
C21 C 1.2248(3) -0.5746(4) 0.5900(3)
H13 H 1.2957 -0.6548 0.5955
C22 C 1.2358(3) -0.4737(4) 0.5142(3)
H14 H 1.3152 -0.4850 0.4694
C23 C 1.1281(3) -0.3489(3) 0.5005(3)
C24 C 1.1294(3) -0.2398(4) 0.4211(3)
H15 H 1.2059 -0.2441 0.3738
C25 C 1.0006(3) -0.4388(3) 0.6541(2)
C26 C 1.0106(3) -0.3331(3) 0.5706(2)
C27 C 0.9058(3) -0.1209(3) 0.4872(2)
H16 H 0.8308 -0.0441 0.4809
C28 C 1.0193(3) -0.1285(3) 0.4135(3)
H17 H 1.0190 -0.0572 0.3595
O1A O 0.9733(2) 0.3416(2) 0.07792(17)
H1A H 1.0538 0.3042 0.0625
O2A O 1.0030(2) 0.1677(2) 0.2104(2)
O3A O 0.59933(18) 0.11313(18) 0.42758(16)
O4A O 0.39523(18) 0.26171(19) 0.39851(16)
C1A C 0.9310(3) 0.2697(3) 0.1613(2)
C2A C 0.7840(3) 0.3293(3) 0.1936(2)
C3A C 0.7062(3) 0.4530(3) 0.1449(3)
H2A H 0.7459 0.5022 0.0917
C4A C 0.5697(3) 0.5037(3) 0.1750(3)
H3A H 0.5177 0.5870 0.1423
C5A C 0.5105(3) 0.4303(3) 0.2538(2)
H4A H 0.4183 0.4640 0.2733
C6A C 0.5876(3) 0.3069(3) 0.3038(2)
C7A C 0.7247(2) 0.2575(3) 0.2741(2)
H5A H 0.7773 0.1753 0.3084
C8A C 0.5211(3) 0.2233(3) 0.3826(2)
O5A O 0.2208(2) 0.2489(2) 1.01187(18)
O6A O 0.3451(2) 0.2251(2) 1.16520(16)
O7A O 0.47124(19) 0.0879(2) 0.64586(15)
O8A O 0.68907(19) -0.03048(18) 0.66258(16)
C9A C 0.3295(3) 0.2213(3) 1.0597(2)
C10A C 0.4595(3) 0.1782(2) 0.9884(2)
C11A C 0.5828(3) 0.1690(3) 1.0340(3)
H6A H 0.5846 0.1936 1.1070
C12A C 0.7029(3) 0.1232(4) 0.9709(3)
H7A H 0.7852 0.1181 1.0012
C13A C 0.7010(3) 0.0848(3) 0.8626(3)
H8A H 0.7821 0.0519 0.8212
C14A C 0.5781(3) 0.0955(2) 0.8161(2)
C15A C 0.4584(3) 0.1437(2) 0.8787(2)
H9A H 0.3758 0.1532 0.8467
C16A C 0.5783(3) 0.0481(2) 0.7012(2)
Cu2A Cu 0.23111(3) 0.22245(3) 0.30219(3)
N1A N 0.1133(2) 0.4133(2) 0.2774(2)
N2A N 0.0975(2) 0.2201(2) 0.43444(19)
C17A C 0.1270(4) 0.5099(3) 0.2010(3)
H10A H 0.2044 0.4932 0.1531
C18A C 0.0298(4) 0.6357(3) 0.1895(3)
H11A H 0.0444 0.7021 0.1366
C19A C -0.0861(4) 0.6614(3) 0.2555(3)
H12A H -0.1519 0.7449 0.2468
C20A C -0.1063(3) 0.5606(3) 0.3377(3)
C21A C -0.2248(3) 0.5746(4) 0.4100(3)
H13A H -0.2957 0.6548 0.4045
C22A C -0.2358(3) 0.4737(4) 0.4858(3)
H14A H -0.3152 0.4850 0.5306
C23A C -0.1281(3) 0.3489(3) 0.4995(3)
C24A C -0.1294(3) 0.2398(4) 0.5789(3)
H15A H -0.2059 0.2441 0.6262
C25A C -0.0006(3) 0.4388(3) 0.3459(2)
C26A C -0.0106(3) 0.3331(3) 0.4294(2)
C27A C 0.0942(3) 0.1209(3) 0.5128(2)
H16A H 0.1692 0.0441 0.5191
C28A C -0.0193(3) 0.1285(3) 0.5865(3)
H17A H -0.0190 0.0572 0.6405
O6_2 O 0.6549(2) -0.2251(2) 0.83480(16)
Cu2_2 Cu 0.76889(3) -0.22245(3) -0.30219(3)
Cu2A_2 Cu 0.23111(3) 0.22245(3) 1.30219(3)
O6A_2 O 0.3451(2) 0.2251(2) 0.16520(16)
loop_
_geom_bond_atom_site_label_1
_geom_bond_atom_site_label_2
_geom_bond_site_symmetry_1
_geom_bond_site_symmetry_2
Cu1 O3 1_555 1_555
Cu2 O4 1_555 1_555
O1 H1 1_555 1_555
O2 C1 1_555 1_555
O3 C8 1_555 1_555
O4 C8 1_555 1_555
O5 C9 1_555 1_555
O6 C9 1_555 1_555
O7 Cu1 1_555 1_555
O8 C16 1_555 1_555
N1 Cu2 1_555 1_555
N2 Cu2 1_555 1_555
C1 O1 1_555 1_555
C2 C1 1_555 1_555
C3 C2 1_555 1_555
H2 C3 1_555 1_555
C4 C3 1_555 1_555
H3 C4 1_555 1_555
C5 C4 1_555 1_555
H4 C5 1_555 1_555
C6 C5 1_555 1_555
C7 C2 1_555 1_555
H5 C7 1_555 1_555
C8 C6 1_555 1_555
C9 C10 1_555 1_555
C10 C11 1_555 1_555
C11 H6 1_555 1_555
C12 C11 1_555 1_555
H7 C12 1_555 1_555
C13 C12 1_555 1_555
H8 C13 1_555 1_555
C14 C13 1_555 1_555
C15 C10 1_555 1_555
H9 C15 1_555 1_555
C16 O7 1_555 1_555
C17 N1 1_555 1_555
H10 C17 1_555 1_555
C18 C17 1_555 1_555
H11 C18 1_555 1_555
C19 C18 1_555 1_555
H12 C19 1_555 1_555
C20 C19 1_555 1_555
C21 C20 1_555 1_555
H13 C21 1_555 1_555
C22 C21 1_555 1_555
H14 C22 1_555 1_555
C23 C22 1_555 1_555
C24 C23 1_555 1_555
H15 C24 1_555 1_555
C25 N1 1_555 1_555
C26 N2 1_555 1_555
C27 N2 1_555 1_555
H16 C27 1_555 1_555
C28 C24 1_555 1_555
H17 C28 1_555 1_555
O1A H1A 1_555 1_555
O2A C1A 1_555 1_555
O3A Cu1 1_555 1_555
O4A C8A 1_555 1_555
C1A O1A 1_555 1_555
C2A C1A 1_555 1_555
C3A C2A 1_555 1_555
H2A C3A 1_555 1_555
C4A C3A 1_555 1_555
H3A C4A 1_555 1_555
C5A C4A 1_555 1_555
H4A C5A 1_555 1_555
C6A C5A 1_555 1_555
C7A C2A 1_555 1_555
H5A C7A 1_555 1_555
C8A O3A 1_555 1_555
O5A C9A 1_555 1_555
O6A C9A 1_555 1_555
O7A Cu1 1_555 1_555
O8A Cu2 1_555 1_555
C9A C10A 1_555 1_555
C10A C11A 1_555 1_555
C11A H6A 1_555 1_555
C12A C11A 1_555 1_555
H7A C12A 1_555 1_555
C13A C12A 1_555 1_555
H8A C13A 1_555 1_555
C14A C13A 1_555 1_555
C15A C10A 1_555 1_555
H9A C15A 1_555 1_555
C16A O7A 1_555 1_555
Cu2A O8 1_555 1_555
N1A Cu2A 1_555 1_555
N2A Cu2A 1_555 1_555
C17A N1A 1_555 1_555
H10A C17A 1_555 1_555
C18A C17A 1_555 1_555
H11A C18A 1_555 1_555
C19A C18A 1_555 1_555
H12A C19A 1_555 1_555
C20A C19A 1_555 1_555
C21A C20A 1_555 1_555
H13A C21A 1_555 1_555
C22A C21A 1_555 1_555
H14A C22A 1_555 1_555
C23A C22A 1_555 1_555
C24A C23A 1_555 1_555
H15A C24A 1_555 1_555
C25A N1A 1_555 1_555
C26A N2A 1_555 1_555
C27A N2A 1_555 1_555
H16A C27A 1_555 1_555
C28A C24A 1_555 1_555
H17A C28A 1_555 1_555
O6_2 Cu2 1_555 1_555
Cu2_2 O6 1_555 1_555
Cu2A_2 O6A 1_555 1_555
O6A_2 Cu2A 1_555 1_555
C6 C7 1_555 1_555
C14 C15 1_555 1_555
C14 C16 1_555 1_555
C20 C25 1_555 1_555
C23 C26 1_555 1_555
C25 C26 1_555 1_555
C27 C28 1_555 1_555
O4A Cu2A 1_555 1_555
C6A C7A 1_555 1_555
C6A C8A 1_555 1_555
O8A C16A 1_555 1_555
C14A C15A 1_555 1_555
C14A C16A 1_555 1_555
C20A C25A 1_555 1_555
C23A C26A 1_555 1_555
C25A C26A 1_555 1_555
C27A C28A 1_555 1_555

#END
