
#######################################################################
#
#                 Cambridge Crystallographic Data Centre
#                                CCDC 
#
#######################################################################
#
# If this CIF has been generated from an entry in the Cambridge 
# Structural Database, then it will include bibliographic, chemical, 
# crystal, experimental, refinement or atomic coordinate data resulting 
# from the CCDC's data processing and validation procedures.
#
#######################################################################

data_EMEPOB01
_symmetry_cell_setting           triclinic
_symmetry_space_group_name_H-M   'P -1'
_symmetry_Int_Tables_number      2
_space_group_name_Hall           '-P 1'
loop_
_symmetry_equiv_pos_site_id
_symmetry_equiv_pos_as_xyz
1 x,y,z
2 -x,-y,-z
_cell_length_a                   10.3830(10)
_cell_length_b                   10.6590(10)
_cell_length_c                   11.7540(10)
_cell_angle_alpha                83.1470(10)
_cell_angle_beta                 86.1910(10)
_cell_angle_gamma                71.1340(10)
_cell_volume                     1221.63
loop_
_atom_site_label
_atom_site_type_symbol
_atom_site_fract_x
_atom_site_fract_y
_atom_site_fract_z
Cu1 Cu 0.5000 0.0000 0.5000
Cu2 Cu 0.76902(2) -0.22278(2) 0.697826(19)
C1 C 0.57791(19) 0.04808(18) 0.70129(16)
C2 C 0.57869(19) 0.09529(18) 0.81581(16)
C3 C 0.7018(2) 0.0843(2) 0.86308(19)
H1 H 0.7831 0.0514 0.8219
C4 C 0.7030(2) 0.1222(3) 0.9707(2)
H2 H 0.7852 0.1171 1.0012
C5 C 0.5830(2) 0.1680(2) 1.03389(18)
H3 H 0.5850 0.1920 1.1071
C6 C 0.46010(18) 0.17821(17) 0.98864(16)
C7 C 0.45796(18) 0.14417(17) 0.87873(16)
H4 H 0.3752 0.1541 0.8468
C8 C 0.3300(2) 0.22144(19) 1.06009(16)
C9 C 0.47836(18) -0.22297(18) 0.61761(15)
C10 C 0.41202(18) -0.30677(18) 0.69616(16)
C11 C 0.4890(2) -0.4306(2) 0.74662(19)
H5 H 0.5811 -0.4645 0.7271
C12 C 0.4301(2) -0.5038(2) 0.8255(2)
H6 H 0.4824 -0.5871 0.8582
C13 C 0.2936(2) -0.4538(2) 0.8561(2)
H7 H 0.2541 -0.5030 0.9096
C14 C 0.21559(19) -0.32961(19) 0.80667(16)
C15 C 0.27491(18) -0.25778(19) 0.72611(16)
H8 H 0.2221 -0.1757 0.6917
C16 C 0.0685(2) -0.2698(2) 0.83842(17)
C17 C 0.9058(2) -0.1207(2) 0.48733(18)
H9 H 0.8308 -0.0438 0.4813
C18 C 1.0192(2) -0.1282(3) 0.4132(2)
H10 H 1.0188 -0.0570 0.3590
C19 C 1.1296(2) -0.2400(3) 0.4213(2)
H11 H 1.2060 -0.2444 0.3739
C20 C 1.1287(2) -0.3489(2) 0.5008(2)
C21 C 1.2363(2) -0.4740(3) 0.5150(2)
H12 H 1.3160 -0.4853 0.4705
C22 C 1.2253(2) -0.5748(3) 0.5903(2)
H13 H 1.2964 -0.6550 0.5957
C23 C 1.1066(2) -0.5616(2) 0.6627(2)
C24 C 1.0861(3) -0.6618(2) 0.7445(2)
H14 H 1.1520 -0.7454 0.7528
C25 C 0.9713(3) -0.6371(2) 0.8110(2)
H15 H 0.9574 -0.7037 0.8643
C26 C 0.8730(3) -0.5104(2) 0.7994(2)
H16 H 0.7956 -0.4937 0.8471
C27 C 1.00094(19) -0.4393(2) 0.65414(18)
C28 C 1.01068(19) -0.3337(2) 0.57116(17)
N1 N 0.90243(16) -0.22039(16) 0.56575(14)
N2 N 0.88699(17) -0.41398(17) 0.72270(14)
O1 O 0.68897(14) -0.03047(14) 0.66264(12)
O2 O 0.47142(14) 0.08815(14) 0.64570(11)
O3 O 0.34517(15) 0.22533(15) 1.16551(12)
O4 O 0.22068(15) 0.25058(19) 1.01149(13)
O5 O 0.60479(13) -0.26213(14) 0.60173(12)
O6 O 0.40038(13) -0.11313(13) 0.57278(12)
O7 O 0.02655(15) -0.34182(18) 0.92198(14)
H17 H -0.0540 -0.3045 0.9375
O8 O -0.00380(15) -0.16831(17) 0.78902(15)
Cu2A Cu 0.23098(2) 0.22278(2) 0.302174(19)
Cu2A_2 Cu 0.23098(2) 0.22278(2) 1.302174(19)
Cu2_2 Cu 0.76902(2) -0.22278(2) -0.302174(19)
C1A C 0.42209(19) -0.04808(18) 0.29871(16)
C2A C 0.42131(19) -0.09529(18) 0.18419(16)
C3A C 0.2982(2) -0.0843(2) 0.13692(19)
H1A H 0.2169 -0.0514 0.1781
C4A C 0.2970(2) -0.1222(3) 0.0293(2)
H2A H 0.2148 -0.1171 -0.0012
C5A C 0.4170(2) -0.1680(2) -0.03389(18)
H3A H 0.4150 -0.1920 -0.1071
C6A C 0.53990(18) -0.17821(17) 0.01136(16)
C7A C 0.54204(18) -0.14417(17) 0.12127(16)
H4A H 0.6248 -0.1541 0.1532
C8A C 0.6700(2) -0.22144(19) -0.06009(16)
C9A C 0.52164(18) 0.22297(18) 0.38239(15)
C10A C 0.58798(18) 0.30677(18) 0.30384(16)
C11A C 0.5110(2) 0.4306(2) 0.25338(19)
H5A H 0.4189 0.4645 0.2729
C12A C 0.5699(2) 0.5038(2) 0.1745(2)
H6A H 0.5176 0.5871 0.1418
C13A C 0.7064(2) 0.4538(2) 0.1439(2)
H7A H 0.7459 0.5030 0.0904
C14A C 0.78441(19) 0.32961(19) 0.19333(16)
C15A C 0.72509(18) 0.25778(19) 0.27389(16)
H8A H 0.7779 0.1757 0.3083
C16A C 0.9315(2) 0.2698(2) 0.16158(17)
C17A C 0.0942(2) 0.1207(2) 0.51267(18)
H9A H 0.1692 0.0438 0.5187
C18A C -0.0192(2) 0.1282(3) 0.5868(2)
H10A H -0.0188 0.0570 0.6410
C19A C -0.1296(2) 0.2400(3) 0.5787(2)
H11A H -0.2060 0.2444 0.6261
C20A C -0.1287(2) 0.3489(2) 0.4992(2)
C21A C -0.2363(2) 0.4740(3) 0.4850(2)
H12A H -0.3160 0.4853 0.5295
C22A C -0.2253(2) 0.5748(3) 0.4097(2)
H13A H -0.2964 0.6550 0.4043
C23A C -0.1066(2) 0.5616(2) 0.3373(2)
C24A C -0.0861(3) 0.6618(2) 0.2555(2)
H14A H -0.1520 0.7454 0.2472
C25A C 0.0287(3) 0.6371(2) 0.1890(2)
H15A H 0.0426 0.7037 0.1357
C26A C 0.1270(3) 0.5104(2) 0.2006(2)
H16A H 0.2044 0.4937 0.1529
C27A C -0.00094(19) 0.4393(2) 0.34586(18)
C28A C -0.01068(19) 0.3337(2) 0.42884(17)
N1A N 0.09757(16) 0.22039(16) 0.43425(14)
N2A N 0.11301(17) 0.41398(17) 0.27730(14)
O1A O 0.31103(14) 0.03047(14) 0.33736(12)
O2A O 0.52858(14) -0.08815(14) 0.35430(11)
O3A O 0.65483(15) -0.22533(15) -0.16551(12)
O3A_2 O 0.65483(15) -0.22533(15) 0.83449(12)
O3_2 O 0.34517(15) 0.22533(15) 0.16551(12)
O4A O 0.77932(15) -0.25058(19) -0.01149(13)
O5A O 0.39521(13) 0.26213(14) 0.39827(12)
O6A O 0.59962(13) 0.11313(13) 0.42722(12)
O7A O 0.97345(15) 0.34182(18) 0.07802(14)
H17A H 1.0540 0.3045 0.0625
O8A O 1.00380(15) 0.16831(17) 0.21098(15)
loop_
_geom_bond_atom_site_label_1
_geom_bond_atom_site_label_2
_geom_bond_site_symmetry_1
_geom_bond_site_symmetry_2
Cu1 O2 1_555 1_555
Cu2 N1 1_555 1_555
C1 C2 1_555 1_555
C2 C3 1_555 1_555
C3 H1 1_555 1_555
C4 C3 1_555 1_555
H2 C4 1_555 1_555
C5 C4 1_555 1_555
H3 C5 1_555 1_555
C6 C5 1_555 1_555
C7 C2 1_555 1_555
H4 C7 1_555 1_555
C8 C6 1_555 1_555
C9 C10 1_555 1_555
C10 C11 1_555 1_555
C11 H5 1_555 1_555
C12 C11 1_555 1_555
H6 C12 1_555 1_555
C13 C12 1_555 1_555
H7 C13 1_555 1_555
C14 C13 1_555 1_555
C15 C10 1_555 1_555
H8 C15 1_555 1_555
C16 C14 1_555 1_555
C17 H9 1_555 1_555
C18 C17 1_555 1_555
H10 C18 1_555 1_555
C19 C18 1_555 1_555
H11 C19 1_555 1_555
C20 C19 1_555 1_555
C21 C20 1_555 1_555
H12 C21 1_555 1_555
C22 C21 1_555 1_555
H13 C22 1_555 1_555
C23 C22 1_555 1_555
C24 C23 1_555 1_555
H14 C24 1_555 1_555
C25 C24 1_555 1_555
H15 C25 1_555 1_555
C26 C25 1_555 1_555
H16 C26 1_555 1_555
C27 C23 1_555 1_555
C28 C20 1_555 1_555
N1 C17 1_555 1_555
N2 Cu2 1_555 1_555
O1 Cu2 1_555 1_555
O2 C1 1_555 1_555
O3 C8 1_555 1_555
O4 C8 1_555 1_555
O5 Cu2 1_555 1_555
O6 Cu1 1_555 1_555
O7 C16 1_555 1_555
H17 O7 1_555 1_555
O8 C16 1_555 1_555
Cu2A N1A 1_555 1_555
Cu2A_2 O3 1_555 1_555
Cu2_2 O3A 1_555 1_555
C1A C2A 1_555 1_555
C2A C3A 1_555 1_555
C3A H1A 1_555 1_555
C4A C3A 1_555 1_555
H2A C4A 1_555 1_555
C5A C4A 1_555 1_555
H3A C5A 1_555 1_555
C6A C5A 1_555 1_555
C7A C2A 1_555 1_555
H4A C7A 1_555 1_555
C8A C6A 1_555 1_555
C9A C10A 1_555 1_555
C10A C11A 1_555 1_555
C11A H5A 1_555 1_555
C12A C11A 1_555 1_555
H6A C12A 1_555 1_555
C13A C12A 1_555 1_555
H7A C13A 1_555 1_555
C14A C13A 1_555 1_555
C15A C10A 1_555 1_555
H8A C15A 1_555 1_555
C16A C14A 1_555 1_555
C17A H9A 1_555 1_555
C18A C17A 1_555 1_555
H10A C18A 1_555 1_555
C19A C18A 1_555 1_555
H11A C19A 1_555 1_555
C20A C19A 1_555 1_555
C21A C20A 1_555 1_555
H12A C21A 1_555 1_555
C22A C21A 1_555 1_555
H13A C22A 1_555 1_555
C23A C22A 1_555 1_555
C24A C23A 1_555 1_555
H14A C24A 1_555 1_555
C25A C24A 1_555 1_555
H15A C25A 1_555 1_555
C26A C25A 1_555 1_555
H16A C26A 1_555 1_555
C27A C23A 1_555 1_555
C28A C20A 1_555 1_555
N1A C17A 1_555 1_555
N2A Cu2A 1_555 1_555
O1A Cu2A 1_555 1_555
O2A Cu1 1_555 1_555
O3A C8A 1_555 1_555
O3A_2 Cu2 1_555 1_555
O3_2 Cu2A 1_555 1_555
O4A C8A 1_555 1_555
O5A Cu2A 1_555 1_555
O6A Cu1 1_555 1_555
O7A C16A 1_555 1_555
H17A O7A 1_555 1_555
O8A C16A 1_555 1_555
C1 O1 1_555 1_555
C6 C7 1_555 1_555
C9 O5 1_555 1_555
C9 O6 1_555 1_555
C14 C15 1_555 1_555
C26 N2 1_555 1_555
C27 C28 1_555 1_555
C27 N2 1_555 1_555
C28 N1 1_555 1_555
C1A O1A 1_555 1_555
C1A O2A 1_555 1_555
C6A C7A 1_555 1_555
C9A O5A 1_555 1_555
C9A O6A 1_555 1_555
C14A C15A 1_555 1_555
C26A N2A 1_555 1_555
C27A C28A 1_555 1_555
C27A N2A 1_555 1_555
C28A N1A 1_555 1_555

#END
