
#######################################################################
#
#                 Cambridge Crystallographic Data Centre
#                                CCDC 
#
#######################################################################
#
# If this CIF has been generated from an entry in the Cambridge 
# Structural Database, then it will include bibliographic, chemical, 
# crystal, experimental, refinement or atomic coordinate data resulting 
# from the CCDC's data processing and validation procedures.
#
#######################################################################

data_EMEPIV02
_symmetry_cell_setting           triclinic
_symmetry_space_group_name_H-M   'P -1'
_symmetry_Int_Tables_number      2
_space_group_name_Hall           '-P 1'
loop_
_symmetry_equiv_pos_site_id
_symmetry_equiv_pos_as_xyz
1 x,y,z
2 -x,-y,-z
_cell_length_a                   10.3314(4)
_cell_length_b                   10.8350(3)
_cell_length_c                   11.5826(4)
_cell_angle_alpha                83.104(2)
_cell_angle_beta                 84.609(2)
_cell_angle_gamma                66.125(2)
_cell_volume                     1175.57
loop_
_atom_site_label
_atom_site_type_symbol
_atom_site_fract_x
_atom_site_fract_y
_atom_site_fract_z
Cu1 Cu 0.0000 0.0000 0.0000
Cu2 Cu 0.29923(4) -0.23398(3) 0.19056(3)
O1 O -0.0323(2) 0.0859(2) 0.15042(16)
O2 O 0.1973(2) -0.03831(18) 0.15698(16)
O3 O -0.1721(2) 0.23480(19) 0.67538(16)
O4 O -0.2953(2) 0.2673(2) 0.51775(18)
O5 O 0.0770(2) 0.12383(19) -0.07756(17)
O6 O -0.1411(2) 0.2857(2) -0.08737(17)
O7 O 0.4865(2) 0.1865(2) -0.2848(2)
O8 O 0.4422(2) 0.3571(2) -0.42434(18)
H1 H 0.5278 0.3193 -0.4389
N1 N 0.4338(2) -0.4282(2) 0.2112(2)
N2 N 0.4353(2) -0.2339(2) 0.0554(2)
C1 C 0.0810(3) 0.0881(3) 0.3189(2)
C2 C -0.0452(3) 0.1465(3) 0.3838(2)
H2 H -0.1306 0.1636 0.3516
C3 C -0.0459(3) 0.1797(3) 0.4959(2)
C4 C 0.0818(3) 0.1575(3) 0.5417(3)
H3 H 0.0826 0.1800 0.6166
C5 C 0.2077(3) 0.1023(3) 0.4771(3)
H4 H 0.2926 0.0898 0.5078
C6 C 0.2082(3) 0.0654(3) 0.3664(3)
H5 H 0.2935 0.0255 0.3241
C7 C 0.0815(3) 0.0423(3) 0.2018(2)
C8 C -0.1830(3) 0.2320(3) 0.5673(2)
C9 C 0.0511(3) 0.3260(3) -0.1903(2)
C10 C 0.1950(3) 0.2757(3) -0.2215(2)
H6 H 0.2551 0.1924 -0.1871
C11 C 0.2501(3) 0.3486(3) -0.3034(2)
C12 C 0.1611(3) 0.4751(3) -0.3521(3)
H7 H 0.1976 0.5250 -0.4061
C13 C 0.0181(4) 0.5264(3) -0.3200(3)
H8 H -0.0415 0.6112 -0.3521
C14 C -0.0365(3) 0.4525(3) -0.2405(3)
H9 H -0.1330 0.4875 -0.2202
C15 C -0.0112(3) 0.2411(3) -0.1117(2)
C16 C 0.4041(3) 0.2881(3) -0.3363(2)
C17 C 0.4205(3) -0.5227(3) 0.2906(3)
H10 H 0.3445 -0.4978 0.3452
C18 C 0.5158(4) -0.6561(3) 0.2944(3)
H11 H 0.5028 -0.7206 0.3494
C19 C 0.6297(4) -0.6923(3) 0.2161(3)
H12 H 0.6950 -0.7819 0.2176
C20 C 0.6474(3) -0.5954(3) 0.1348(3)
H13 H 0.7245 -0.6182 0.0813
C21 C 0.5467(3) -0.4628(3) 0.1350(2)
C22 C 0.5520(3) -0.3495(3) 0.0513(2)
C23 C 0.6671(4) -0.3596(3) -0.0245(3)
H14 H 0.7474 -0.4402 -0.0253
C24 C 0.6602(4) -0.2477(4) -0.0990(3)
H15 H 0.7367 -0.2518 -0.1500
C25 C 0.5394(4) -0.1302(4) -0.0971(3)
H16 H 0.5329 -0.0546 -0.1475
C26 C 0.4285(3) -0.1260(3) -0.0199(3)
H17 H 0.3466 -0.0468 -0.0194
Cu2A Cu -0.29923(4) 0.23398(3) -0.19056(3)
Cu2A_2 Cu -0.29923(4) 0.23398(3) 0.80944(3)
Cu2_2 Cu 0.29923(4) -0.23398(3) -0.80944(3)
O1A O 0.0323(2) -0.0859(2) -0.15042(16)
O2A O -0.1973(2) 0.03831(18) -0.15698(16)
O3A O 0.1721(2) -0.23480(19) -0.67538(16)
O3A_2 O 0.1721(2) -0.23480(19) 0.32462(16)
O3_2 O -0.1721(2) 0.23480(19) -0.32462(16)
O4A O 0.2953(2) -0.2673(2) -0.51775(18)
O5A O -0.0770(2) -0.12383(19) 0.07756(17)
O6A O 0.1411(2) -0.2857(2) 0.08737(17)
O7A O -0.4865(2) -0.1865(2) 0.2848(2)
O8A O -0.4422(2) -0.3571(2) 0.42434(18)
H1A H -0.5278 -0.3193 0.4389
N1A N -0.4338(2) 0.4282(2) -0.2112(2)
N2A N -0.4353(2) 0.2339(2) -0.0554(2)
C1A C -0.0810(3) -0.0881(3) -0.3189(2)
C2A C 0.0452(3) -0.1465(3) -0.3838(2)
H2A H 0.1306 -0.1636 -0.3516
C3A C 0.0459(3) -0.1797(3) -0.4959(2)
C4A C -0.0818(3) -0.1575(3) -0.5417(3)
H3A H -0.0826 -0.1800 -0.6166
C5A C -0.2077(3) -0.1023(3) -0.4771(3)
H4A H -0.2926 -0.0898 -0.5078
C6A C -0.2082(3) -0.0654(3) -0.3664(3)
H5A H -0.2935 -0.0255 -0.3241
C7A C -0.0815(3) -0.0423(3) -0.2018(2)
C8A C 0.1830(3) -0.2320(3) -0.5673(2)
C9A C -0.0511(3) -0.3260(3) 0.1903(2)
C10A C -0.1950(3) -0.2757(3) 0.2215(2)
H6A H -0.2551 -0.1924 0.1871
C11A C -0.2501(3) -0.3486(3) 0.3034(2)
C12A C -0.1611(3) -0.4751(3) 0.3521(3)
H7A H -0.1976 -0.5250 0.4061
C13A C -0.0181(4) -0.5264(3) 0.3200(3)
H8A H 0.0415 -0.6112 0.3521
C14A C 0.0365(3) -0.4525(3) 0.2405(3)
H9A H 0.1330 -0.4875 0.2202
C15A C 0.0112(3) -0.2411(3) 0.1117(2)
C16A C -0.4041(3) -0.2881(3) 0.3363(2)
C17A C -0.4205(3) 0.5227(3) -0.2906(3)
H10A H -0.3445 0.4978 -0.3452
C18A C -0.5158(4) 0.6561(3) -0.2944(3)
H11A H -0.5028 0.7206 -0.3494
C19A C -0.6297(4) 0.6923(3) -0.2161(3)
H12A H -0.6950 0.7819 -0.2176
C20A C -0.6474(3) 0.5954(3) -0.1348(3)
H13A H -0.7245 0.6182 -0.0813
C21A C -0.5467(3) 0.4628(3) -0.1350(2)
C22A C -0.5520(3) 0.3495(3) -0.0513(2)
C23A C -0.6671(4) 0.3596(3) 0.0245(3)
H14A H -0.7474 0.4402 0.0253
C24A C -0.6602(4) 0.2477(4) 0.0990(3)
H15A H -0.7367 0.2518 0.1500
C25A C -0.5394(4) 0.1302(4) 0.0971(3)
H16A H -0.5329 0.0546 0.1475
C26A C -0.4285(3) 0.1260(3) 0.0199(3)
H17A H -0.3466 0.0468 0.0194
loop_
_geom_bond_atom_site_label_1
_geom_bond_atom_site_label_2
_geom_bond_site_symmetry_1
_geom_bond_site_symmetry_2
Cu1 O1 1_555 1_555
Cu2 O2 1_555 1_555
O1 C7 1_555 1_555
O2 C7 1_555 1_555
O3 C8 1_555 1_555
O4 C8 1_555 1_555
O5 Cu1 1_555 1_555
O6 C15 1_555 1_555
O7 C16 1_555 1_555
O8 H1 1_555 1_555
N1 Cu2 1_555 1_555
N2 Cu2 1_555 1_555
C1 C2 1_555 1_555
C2 H2 1_555 1_555
C3 C2 1_555 1_555
C4 C3 1_555 1_555
H3 C4 1_555 1_555
C5 C4 1_555 1_555
H4 C5 1_555 1_555
C6 C1 1_555 1_555
H5 C6 1_555 1_555
C7 C1 1_555 1_555
C8 C3 1_555 1_555
C9 C10 1_555 1_555
C10 H6 1_555 1_555
C11 C10 1_555 1_555
C12 C11 1_555 1_555
H7 C12 1_555 1_555
C13 C12 1_555 1_555
H8 C13 1_555 1_555
C14 C9 1_555 1_555
H9 C14 1_555 1_555
C15 O5 1_555 1_555
C16 O8 1_555 1_555
C17 N1 1_555 1_555
H10 C17 1_555 1_555
C18 C17 1_555 1_555
H11 C18 1_555 1_555
C19 C18 1_555 1_555
H12 C19 1_555 1_555
C20 C19 1_555 1_555
H13 C20 1_555 1_555
C21 N1 1_555 1_555
C22 N2 1_555 1_555
C23 C22 1_555 1_555
H14 C23 1_555 1_555
C24 C23 1_555 1_555
H15 C24 1_555 1_555
C25 C24 1_555 1_555
H16 C25 1_555 1_555
C26 N2 1_555 1_555
H17 C26 1_555 1_555
Cu2A O6 1_555 1_555
Cu2A_2 O3 1_555 1_555
Cu2_2 O3A 1_555 1_555
O1A Cu1 1_555 1_555
O2A Cu2A 1_555 1_555
O3A C8A 1_555 1_555
O3A_2 Cu2 1_555 1_555
O3_2 Cu2A 1_555 1_555
O4A C8A 1_555 1_555
O5A Cu1 1_555 1_555
O6A Cu2 1_555 1_555
O7A C16A 1_555 1_555
O8A H1A 1_555 1_555
N1A Cu2A 1_555 1_555
N2A Cu2A 1_555 1_555
C1A C2A 1_555 1_555
C2A H2A 1_555 1_555
C3A C2A 1_555 1_555
C4A C3A 1_555 1_555
H3A C4A 1_555 1_555
C5A C4A 1_555 1_555
H4A C5A 1_555 1_555
C6A C1A 1_555 1_555
H5A C6A 1_555 1_555
C7A O1A 1_555 1_555
C8A C3A 1_555 1_555
C9A C10A 1_555 1_555
C10A H6A 1_555 1_555
C11A C10A 1_555 1_555
C12A C11A 1_555 1_555
H7A C12A 1_555 1_555
C13A C12A 1_555 1_555
H8A C13A 1_555 1_555
C14A C9A 1_555 1_555
H9A C14A 1_555 1_555
C15A O5A 1_555 1_555
C16A O8A 1_555 1_555
C17A N1A 1_555 1_555
H10A C17A 1_555 1_555
C18A C17A 1_555 1_555
H11A C18A 1_555 1_555
C19A C18A 1_555 1_555
H12A C19A 1_555 1_555
C20A C19A 1_555 1_555
H13A C20A 1_555 1_555
C21A N1A 1_555 1_555
C22A N2A 1_555 1_555
C23A C22A 1_555 1_555
H14A C23A 1_555 1_555
C24A C23A 1_555 1_555
H15A C24A 1_555 1_555
C25A C24A 1_555 1_555
H16A C25A 1_555 1_555
C26A N2A 1_555 1_555
H17A C26A 1_555 1_555
C5 C6 1_555 1_555
C9 C15 1_555 1_555
C11 C16 1_555 1_555
C13 C14 1_555 1_555
C20 C21 1_555 1_555
C21 C22 1_555 1_555
C25 C26 1_555 1_555
O2A C7A 1_555 1_555
O6A C15A 1_555 1_555
C1A C7A 1_555 1_555
C5A C6A 1_555 1_555
C9A C15A 1_555 1_555
C11A C16A 1_555 1_555
C13A C14A 1_555 1_555
C20A C21A 1_555 1_555
C21A C22A 1_555 1_555
C25A C26A 1_555 1_555

#END
