
#######################################################################
#
#                 Cambridge Crystallographic Data Centre
#                                CCDC 
#
#######################################################################
#
# If this CIF has been generated from an entry in the Cambridge 
# Structural Database, then it will include bibliographic, chemical, 
# crystal, experimental, refinement or atomic coordinate data resulting 
# from the CCDC's data processing and validation procedures.
#
#######################################################################

data_EMETUL
_symmetry_cell_setting           orthorhombic
_symmetry_space_group_name_H-M   'P b c a'
_symmetry_Int_Tables_number      61
_space_group_name_Hall           '-P 2ac 2ab'
loop_
_symmetry_equiv_pos_site_id
_symmetry_equiv_pos_as_xyz
1 x,y,z
2 1/2+x,y,1/2-z
3 x,1/2-y,1/2+z
4 1/2-x,1/2+y,z
5 -x,-y,-z
6 1/2-x,-y,1/2+z
7 -x,1/2+y,1/2-z
8 1/2+x,1/2-y,-z
_cell_length_a                   16.103(3)
_cell_length_b                   17.323(4)
_cell_length_c                   29.738(6)
_cell_angle_alpha                90
_cell_angle_beta                 90
_cell_angle_gamma                90
_cell_volume                     8295.48
loop_
_atom_site_label
_atom_site_type_symbol
_atom_site_fract_x
_atom_site_fract_y
_atom_site_fract_z
Co1 Co 0.15785(4) -0.00176(4) 0.62574(2)
Co2 Co 0.34327(4) 0.10596(4) 0.61265(2)
Co3 Co -0.08168(4) -0.07084(4) 0.64577(2)
Cl1 Cl 0.19432(8) 0.12957(7) 0.62877(4)
Cl2 Cl 0.31177(8) -0.02604(7) 0.61039(5)
Cl3 Cl 0.01017(7) 0.03191(7) 0.63651(4)
Cl4 Cl -0.20555(8) -0.01909(8) 0.62529(4)
Cl5 Cl -0.05330(8) -0.17230(7) 0.59918(4)
Cl6 Cl -0.06976(9) -0.10728(7) 0.71825(4)
N1 N 0.1432(2) -0.1215(2) 0.62229(13)
N2 N 0.1420(2) -0.2746(2) 0.61580(13)
C1 C 0.1413(3) -0.1625(3) 0.66023(15)
C2 C 0.1619(3) -0.1164(3) 0.70064(16)
C3 C 0.1578(3) -0.2328(3) 0.57878(16)
N3 N 0.1680(3) -0.0396(2) 0.69221(14)
N4 N 0.1751(3) -0.3563(3) 0.54477(15)
N5 N 0.1144(3) -0.3741(2) 0.67917(14)
N6 N 0.1339(2) -0.0231(2) 0.55719(13)
C4 C 0.1438(3) -0.1528(3) 0.58133(16)
C5 C 0.1039(3) -0.1181(3) 0.50144(17)
H1 H 0.0973 -0.1698 0.4938
C6 C 0.1284(3) -0.0970(3) 0.54468(16)
C7 C 0.1263(3) -0.2427(3) 0.65612(16)
C8 C 0.0966(3) -0.2995(3) 0.68950(16)
C9 C 0.1807(4) -0.1474(3) 0.74216(17)
H2 H 0.1773 -0.2003 0.7471
C10 C 0.0897(3) -0.0608(3) 0.47008(18)
H3 H 0.0758 -0.0736 0.4407
C11 C 0.1894(3) -0.2790(3) 0.54028(17)
C12 C 0.2048(4) -0.0979(3) 0.77628(19)
H4 H 0.2178 -0.1175 0.8045
C13 C 0.0887(3) -0.4289(3) 0.70778(19)
H5 H 0.1011 -0.4801 0.7012
C14 C 0.0962(3) 0.0156(3) 0.48266(18)
H6 H 0.0867 0.0550 0.4621
C15 C 0.0492(3) -0.2795(3) 0.72673(16)
H7 H 0.0353 -0.2283 0.7322
C16 C 0.1171(3) 0.0320(3) 0.52668(17)
H8 H 0.1198 0.0834 0.5356
C17 C 0.0232(3) -0.3376(3) 0.75556(18)
H9 H -0.0084 -0.3258 0.7808
C18 C 0.1991(4) -0.4022(3) 0.51083(19)
H10 H 0.1889 -0.4549 0.5131
C19 C 0.0446(4) -0.4130(3) 0.74647(18)
H11 H 0.0297 -0.4524 0.7661
C20 C 0.2098(4) -0.0195(3) 0.7685(2)
H12 H 0.2250 0.0143 0.7913
C21 C 0.2384(4) -0.3748(4) 0.4726(2)
H13 H 0.2508 -0.4078 0.4488
C22 C 0.2586(4) -0.2975(4) 0.4705(2)
H14 H 0.2887 -0.2784 0.4462
C23 C 0.2338(3) -0.2481(4) 0.50478(19)
H15 H 0.2468 -0.1958 0.5039
C24 C 0.1914(4) 0.0075(3) 0.72570(19)
H16 H 0.1955 0.0601 0.7200
O1 O 0.4724(2) 0.0817(2) 0.59512(15)
C25 C 0.5170(5) 0.1217(4) 0.5610(3)
H17 H 0.5277 0.1746 0.5701
H18 H 0.4857 0.1223 0.5331
C27 C 0.5196(4) 0.0196(5) 0.6130(3)
H21 H 0.4849 -0.0247 0.6196
H22 H 0.5494 0.0348 0.6399
C29 C 0.5758(5) 0.0041(6) 0.5761(3)
H25 H 0.5490 -0.0293 0.5542
H26 H 0.6251 -0.0219 0.5871
C30 C 0.5988(5) 0.0777(5) 0.5548(3)
H27 H 0.6128 0.0712 0.5233
H28 H 0.6445 0.1027 0.5703
N2C N 0.3580(2) 0.2254(2) 0.61580(13)
N4C N 0.3249(3) 0.1437(3) 0.54477(15)
N5C N 0.3856(3) 0.1259(2) 0.67917(14)
Co2C Co 0.15673(4) -0.39404(4) 0.61265(2)
O2 O 0.2686(3) 0.3226(3) 0.27605(18)
C26 C 0.2410(5) 0.3026(5) 0.3494(3)
H19 H 0.2454 0.3378 0.3746
H20 H 0.2435 0.2500 0.3606
C28 C 0.3000(6) 0.3150(4) 0.3205(2)
H23 H 0.3392 0.2726 0.3215
H24 H 0.3294 0.3618 0.3287
C31 C 0.1612(7) 0.3161(6) 0.3238(4)
H29 H 0.1426 0.3690 0.3274
H30 H 0.1178 0.2817 0.3343
C36 C 0.1845(4) 0.2979(4) 0.2704(5)
H39 H 0.1797 0.2437 0.2626
H40 H 0.1536 0.3295 0.2493
C32 C 0.0512(4) 0.2615(5) 0.5384(3)
H31 H 0.0607 0.2070 0.5327
H32 H 0.0789 0.2937 0.5164
C33 C -0.0686(5) 0.2805(5) 0.5935(3)
H33 H -0.1015 0.3258 0.6005
H34 H -0.1025 0.2350 0.5985
O3 O -0.0412(5) 0.2832(5) 0.5474(4)
C34 C 0.0635(9) 0.2846(8) 0.5839(6)
H35 H 0.0797 0.3385 0.5829
H36 H 0.1115 0.2562 0.5946
C35 C -0.0006(12) 0.2781(11) 0.6197(4)
H37 H 0.0036 0.2298 0.6361
H38 H 0.0015 0.3211 0.6406
loop_
_geom_bond_atom_site_label_1
_geom_bond_atom_site_label_2
_geom_bond_site_symmetry_1
_geom_bond_site_symmetry_2
Co1 Cl1 1_555 1_555
Co2 Cl1 1_555 1_555
Co3 Cl3 1_555 1_555
Cl2 Co1 1_555 1_555
Cl3 Co1 1_555 1_555
Cl4 Co3 1_555 1_555
Cl5 Co3 1_555 1_555
Cl6 Co3 1_555 1_555
N1 Co1 1_555 1_555
N2 C3 1_555 1_555
C1 N1 1_555 1_555
C2 C1 1_555 1_555
C3 C4 1_555 1_555
N3 Co1 1_555 1_555
N4 C11 1_555 1_555
N5 C8 1_555 1_555
N6 Co1 1_555 1_555
C4 N1 1_555 1_555
C5 H1 1_555 1_555
C6 N6 1_555 1_555
C7 N2 1_555 1_555
C8 C7 1_555 1_555
C9 C2 1_555 1_555
H2 C9 1_555 1_555
C10 C5 1_555 1_555
H3 C10 1_555 1_555
C11 C3 1_555 1_555
C12 C9 1_555 1_555
H4 C12 1_555 1_555
C13 N5 1_555 1_555
H5 C13 1_555 1_555
C14 C10 1_555 1_555
H6 C14 1_555 1_555
C15 C8 1_555 1_555
H7 C15 1_555 1_555
C16 N6 1_555 1_555
H8 C16 1_555 1_555
C17 C15 1_555 1_555
H9 C17 1_555 1_555
C18 N4 1_555 1_555
H10 C18 1_555 1_555
C19 C13 1_555 1_555
H11 C19 1_555 1_555
C20 C12 1_555 1_555
H12 C20 1_555 1_555
C21 C18 1_555 1_555
H13 C21 1_555 1_555
C22 C21 1_555 1_555
H14 C22 1_555 1_555
C23 C11 1_555 1_555
H15 C23 1_555 1_555
C24 N3 1_555 1_555
H16 C24 1_555 1_555
O1 Co2 1_555 1_555
O2 C28 1_555 1_555
C25 O1 1_555 1_555
H17 C25 1_555 1_555
H18 C25 1_555 1_555
C26 H19 1_555 1_555
H20 C26 1_555 1_555
C27 O1 1_555 1_555
H21 C27 1_555 1_555
H22 C27 1_555 1_555
C28 C26 1_555 1_555
H23 C28 1_555 1_555
H24 C28 1_555 1_555
C29 C27 1_555 1_555
H25 C29 1_555 1_555
H26 C29 1_555 1_555
C30 C25 1_555 1_555
H27 C30 1_555 1_555
H28 C30 1_555 1_555
C31 C26 1_555 1_555
H29 C31 1_555 1_555
H30 C31 1_555 1_555
C32 H31 1_555 1_555
H32 C32 1_555 1_555
C33 H33 1_555 1_555
H34 C33 1_555 1_555
O3 C32 1_555 1_555
C34 C32 1_555 1_555
H35 C34 1_555 1_555
H36 C34 1_555 1_555
C35 C33 1_555 1_555
H37 C35 1_555 1_555
H38 C35 1_555 1_555
C36 O2 1_555 1_555
H39 C36 1_555 1_555
H40 C36 1_555 1_555
N2C Co2 1_555 1_555
N4C Co2 1_555 1_555
N5C Co2 1_555 1_555
Co2C N2 1_555 1_555
Co2 Cl2 1_555 1_555
C1 C7 1_555 1_555
C2 N3 1_555 1_555
N4 Co2C 1_555 1_555
N5 Co2C 1_555 1_555
C4 C6 1_555 1_555
C5 C6 1_555 1_555
C14 C16 1_555 1_555
C17 C19 1_555 1_555
C20 C24 1_555 1_555
C22 C23 1_555 1_555
C29 C30 1_555 1_555
C31 C36 1_555 1_555
C33 O3 1_555 1_555
C34 C35 1_555 1_555

#END
