
#######################################################################
#
#                 Cambridge Crystallographic Data Centre
#                                CCDC 
#
#######################################################################
#
# If this CIF has been generated from an entry in the Cambridge 
# Structural Database, then it will include bibliographic, chemical, 
# crystal, experimental, refinement or atomic coordinate data resulting 
# from the CCDC's data processing and validation procedures.
#
#######################################################################

data_EMEVOI
_symmetry_cell_setting           orthorhombic
_symmetry_space_group_name_H-M   'P 21 21 21'
_symmetry_Int_Tables_number      19
_space_group_name_Hall           'P 2ac 2ab'
loop_
_symmetry_equiv_pos_site_id
_symmetry_equiv_pos_as_xyz
1 x,y,z
2 1/2-x,-y,1/2+z
3 -x,1/2+y,1/2-z
4 1/2+x,1/2-y,-z
_cell_length_a                   10.393(4)
_cell_length_b                   12.565(5)
_cell_length_c                   18.527(7)
_cell_angle_alpha                90
_cell_angle_beta                 90
_cell_angle_gamma                90
_cell_volume                     2419.4
loop_
_atom_site_label
_atom_site_type_symbol
_atom_site_fract_x
_atom_site_fract_y
_atom_site_fract_z
Pd1 Pd 1.00035(4) 0.99853(3) 0.993993(16)
Cu1 Cu 0.50083(6) 0.99683(4) 0.99974(2)
N1 N 0.7143(4) 0.9227(3) 0.9772(2)
N2 N 1.1321(4) 0.8176(4) 0.9037(3)
N3 N 1.2821(4) 1.0776(3) 1.0205(3)
N4 N 0.8676(4) 1.1788(3) 1.0836(3)
N5 N 0.4711(3) 0.8938(3) 1.0838(2)
H1 H 0.5355 0.8425 1.0808
N6 N 0.5837(4) 1.0926(3) 1.0762(2)
H2 H 0.6645 1.1108 1.0585
N7 N 0.4359(4) 0.8972(3) 0.9189(2)
H3 H 0.3470 0.8928 0.9237
N8 N 0.5076(4) 1.1104(3) 0.92097(18)
H4 H 0.4603 1.1676 0.9387
C1 C 0.8222(5) 0.9451(3) 0.9802(3)
C2 C 1.0807(5) 0.8823(4) 0.9352(3)
C3 C 1.1773(5) 1.0539(4) 1.0106(3)
C4 C 0.9212(5) 1.1139(4) 1.0520(3)
C5 C 0.4931(5) 0.9522(3) 1.1522(2)
H5 H 0.4154 0.9967 1.1624
C6 C 0.5161(6) 0.8791(4) 1.2167(2)
H6 H 0.5888 0.8307 1.2059
H7 H 0.4386 0.8349 1.2250
C7 C 0.5464(6) 0.9427(4) 1.2854(3)
H8 H 0.4713 0.9869 1.2986
H9 H 0.5641 0.8931 1.3257
C8 C 0.6624(5) 1.0134(5) 1.2730(3)
H10 H 0.7384 0.9688 1.2619
H11 H 0.6810 1.0544 1.3174
C9 C 0.6372(5) 1.0901(4) 1.2104(3)
H12 H 0.7141 1.1350 1.2021
H13 H 0.5640 1.1373 1.2223
C10 C 0.6064(5) 1.0256(4) 1.1418(3)
H14 H 0.6829 0.9798 1.1315
C11 C 0.4618(4) 0.9513(4) 0.8490(3)
H15 H 0.5552 0.9425 0.8375
C12 C 0.3844(6) 0.9053(5) 0.7869(3)
H16 H 0.2918 0.9074 0.7993
H17 H 0.4089 0.8299 0.7798
C13 C 0.4059(6) 0.9660(5) 0.7168(3)
H18 H 0.4967 0.9583 0.7014
H19 H 0.3503 0.9362 0.6784
C14 C 0.3747(6) 1.0829(5) 0.7276(3)
H20 H 0.2823 1.0907 0.7396
H21 H 0.3913 1.1222 0.6823
C15 C 0.4556(5) 1.1302(4) 0.7879(2)
H22 H 0.5477 1.1268 0.7746
H23 H 0.4323 1.2060 0.7947
C16 C 0.4343(5) 1.0704(4) 0.8577(3)
H24 H 0.3409 1.0774 0.8699
C17 C 0.3468(5) 0.8353(4) 1.0845(3)
H25 H 0.3489 0.7806 1.1222
H26 H 0.3329 0.8015 1.0375
H27 H 0.2765 0.8852 1.0944
C18 C 0.5154(6) 1.1950(4) 1.0911(3)
H28 H 0.4324 1.1801 1.1141
H29 H 0.5010 1.2331 1.0457
H30 H 0.5679 1.2390 1.1234
C19 C 0.4856(6) 0.7867(4) 0.9187(3)
H31 H 0.4353 0.7436 0.8847
H32 H 0.4782 0.7565 0.9673
H33 H 0.5761 0.7869 0.9039
C20 C 0.6374(5) 1.1536(4) 0.9047(3)
H34 H 0.6897 1.0984 0.8816
H35 H 0.6789 1.1764 0.9496
H36 H 0.6293 1.2147 0.8720
Cu1_2 Cu 1.50083(6) 0.99683(4) 0.99974(2)
N3_2 N 0.2821(4) 1.0776(3) 1.0205(3)
loop_
_geom_bond_atom_site_label_1
_geom_bond_atom_site_label_2
_geom_bond_site_symmetry_1
_geom_bond_site_symmetry_2
Pd1 C1 1_555 1_555
Cu1 N1 1_555 1_555
N1 C1 1_555 1_555
N2 C2 1_555 1_555
N3 C3 1_555 1_555
N4 C4 1_555 1_555
N5 Cu1 1_555 1_555
H1 N5 1_555 1_555
N6 Cu1 1_555 1_555
H2 N6 1_555 1_555
N7 Cu1 1_555 1_555
H3 N7 1_555 1_555
N8 Cu1 1_555 1_555
H4 N8 1_555 1_555
C2 Pd1 1_555 1_555
C3 Pd1 1_555 1_555
C4 Pd1 1_555 1_555
C5 N5 1_555 1_555
H5 C5 1_555 1_555
C6 C5 1_555 1_555
H6 C6 1_555 1_555
H7 C6 1_555 1_555
C7 C6 1_555 1_555
H8 C7 1_555 1_555
H9 C7 1_555 1_555
C8 C7 1_555 1_555
H10 C8 1_555 1_555
H11 C8 1_555 1_555
C9 C8 1_555 1_555
H12 C9 1_555 1_555
H13 C9 1_555 1_555
C10 N6 1_555 1_555
H14 C10 1_555 1_555
C11 N7 1_555 1_555
H15 C11 1_555 1_555
C12 C11 1_555 1_555
H16 C12 1_555 1_555
H17 C12 1_555 1_555
C13 C12 1_555 1_555
H18 C13 1_555 1_555
H19 C13 1_555 1_555
C14 C13 1_555 1_555
H20 C14 1_555 1_555
H21 C14 1_555 1_555
C15 C14 1_555 1_555
H22 C15 1_555 1_555
H23 C15 1_555 1_555
C16 N8 1_555 1_555
H24 C16 1_555 1_555
C17 N5 1_555 1_555
H25 C17 1_555 1_555
H26 C17 1_555 1_555
H27 C17 1_555 1_555
C18 N6 1_555 1_555
H28 C18 1_555 1_555
H29 C18 1_555 1_555
H30 C18 1_555 1_555
C19 N7 1_555 1_555
H31 C19 1_555 1_555
H32 C19 1_555 1_555
H33 C19 1_555 1_555
C20 N8 1_555 1_555
H34 C20 1_555 1_555
H35 C20 1_555 1_555
H36 C20 1_555 1_555
Cu1_2 N3 1_555 1_555
N3_2 Cu1 1_555 1_555
C5 C10 1_555 1_555
C9 C10 1_555 1_555
C11 C16 1_555 1_555
C15 C16 1_555 1_555

#END
