
#######################################################################
#
#                 Cambridge Crystallographic Data Centre
#                                CCDC 
#
#######################################################################
#
# If this CIF has been generated from an entry in the Cambridge 
# Structural Database, then it will include bibliographic, chemical, 
# crystal, experimental, refinement or atomic coordinate data resulting 
# from the CCDC's data processing and validation procedures.
#
#######################################################################

data_EMEYOK02
_symmetry_cell_setting           monoclinic
_symmetry_space_group_name_H-M   'P 21/c'
_symmetry_Int_Tables_number      14
_space_group_name_Hall           '-P 2ybc'
loop_
_symmetry_equiv_pos_site_id
_symmetry_equiv_pos_as_xyz
1 x,y,z
2 -x,1/2+y,1/2-z
3 -x,-y,-z
4 x,1/2-y,1/2+z
_cell_length_a                   9.761(1)
_cell_length_b                   8.193(1)
_cell_length_c                   10.214(1)
_cell_angle_alpha                90
_cell_angle_beta                 99.66(1)
_cell_angle_gamma                90
_cell_volume                     805.251
loop_
_atom_site_label
_atom_site_type_symbol
_atom_site_fract_x
_atom_site_fract_y
_atom_site_fract_z
Bi1 Bi 0.31453(3) 0.40767(3) 0.57273(2)
O1 O 0.1041(5) 0.4362(6) 0.6482(5)
O2 O 0.3132(5) 0.7110(6) 0.5724(5)
O3 O 0.3141(5) 0.1915(6) 0.7365(4)
O4 O 0.4404(5) 0.0144(6) 0.8695(4)
O5 O 0.6289(5) 0.0030(6) 0.7046(4)
O6 O 0.5005(5) 0.1796(6) 0.5699(4)
O8 O 0.1829(5) 0.1477(7) 0.4577(5)
O9 O -0.1200(5) 0.4992(7) 0.6086(5)
C1 C 0.4159(6) 0.1008(8) 0.7667(6)
C2 C 0.5242(6) 0.0946(8) 0.6719(6)
C3 C -0.0056(7) 0.4814(8) 0.5732(6)
Bi1B Bi -0.31453(3) 0.59233(3) 0.42727(2)
Bi1A Bi 0.68547(3) -0.09233(3) 0.92727(2)
Bi1C Bi 0.31453(3) 0.09233(3) 1.07273(2)
Bi1A_2 Bi 0.68547(3) 0.90767(3) 0.92727(2)
Bi1B_2 Bi 0.68547(3) 0.59233(3) 0.42727(2)
O1B O -0.1041(5) 0.5638(6) 0.3518(5)
O2B O -0.3132(5) 0.2890(6) 0.4276(5)
O3A O 0.6859(5) 0.6915(6) 0.7635(4)
O3B O -0.3141(5) 0.8085(6) 0.2635(4)
O4A O 0.5596(5) 0.5144(6) 0.6305(4)
O4C O 0.4404(5) 0.4856(6) 0.3695(4)
O4A_2 O -0.4404(5) 0.5144(6) 0.6305(4)
O4C_2 O -0.5596(5) 0.4856(6) 0.3695(4)
O5A O 0.3711(5) 0.5030(6) 0.7954(4)
O5C O -0.3711(5) 0.4970(6) 0.2046(4)
O6A O 0.4995(5) 0.6796(6) 0.9301(4)
O6B O -0.5005(5) 0.8204(6) 0.4301(4)
O8B O -0.1829(5) 0.8523(7) 0.5423(5)
O9B O 0.1200(5) 0.5008(7) 0.3914(5)
C1A C 0.5841(6) 0.6008(8) 0.7333(6)
C2A C 0.4758(6) 0.5946(8) 0.8281(6)
C3B C 0.0056(7) 0.5186(8) 0.4268(6)
O7 O 0.1101(5) 0.8995(6) 0.6296(5)
loop_
_geom_bond_atom_site_label_1
_geom_bond_atom_site_label_2
_geom_bond_site_symmetry_1
_geom_bond_site_symmetry_2
Bi1 O1 1_555 1_555
O1 C3 1_555 1_555
O2 Bi1 1_555 1_555
O3 Bi1 1_555 1_555
O4 C1 1_555 1_555
O5 C2 1_555 1_555
O6 Bi1 1_555 1_555
O8 Bi1 1_555 1_555
O9 C3 1_555 1_555
C1 O3 1_555 1_555
C2 O6 1_555 1_555
C3 C3B 1_555 1_555
Bi1B O9 1_555 1_555
Bi1A O4 1_555 1_555
Bi1C O4 1_555 1_555
Bi1A_2 O3A 1_555 1_555
Bi1B_2 O4A 1_555 1_555
O1B Bi1B 1_555 1_555
O2B Bi1B 1_555 1_555
O3A C1A 1_555 1_555
O3B Bi1B 1_555 1_555
O4A Bi1 1_555 1_555
O4C Bi1 1_555 1_555
O4A_2 Bi1B 1_555 1_555
O4C_2 Bi1B 1_555 1_555
O5A Bi1 1_555 1_555
O5C Bi1B 1_555 1_555
O6A Bi1A_2 1_555 1_555
O6B Bi1B 1_555 1_555
O8B Bi1B 1_555 1_555
O9B Bi1 1_555 1_555
C1A O4A 1_555 1_555
C2A O5A 1_555 1_555
C3B O1B 1_555 1_555
O5 Bi1A 1_555 1_555
C1 C2 1_555 1_555
Bi1B_2 O4C 1_555 1_555
O6A C2A 1_555 1_555
O9B C3B 1_555 1_555
C1A C2A 1_555 1_555

#END
