
#######################################################################
#
#                 Cambridge Crystallographic Data Centre
#                                CCDC 
#
#######################################################################
#
# If this CIF has been generated from an entry in the Cambridge 
# Structural Database, then it will include bibliographic, chemical, 
# crystal, experimental, refinement or atomic coordinate data resulting 
# from the CCDC's data processing and validation procedures.
#
#######################################################################

data_EMEYEB
_symmetry_cell_setting           monoclinic
_symmetry_space_group_name_H-M   'P 21/c'
_symmetry_Int_Tables_number      14
_space_group_name_Hall           '-P 2ybc'
loop_
_symmetry_equiv_pos_site_id
_symmetry_equiv_pos_as_xyz
1 x,y,z
2 -x,1/2+y,1/2-z
3 -x,-y,-z
4 x,1/2-y,1/2+z
_cell_length_a                   12.7702(16)
_cell_length_b                   8.2854(10)
_cell_length_c                   11.1489(14)
_cell_angle_alpha                90
_cell_angle_beta                 95.420(10)
_cell_angle_gamma                90
_cell_volume                     1174.35
loop_
_atom_site_label
_atom_site_type_symbol
_atom_site_fract_x
_atom_site_fract_y
_atom_site_fract_z
Zn1 Zn 0.03824(3) 0.09534(4) 0.39175(3)
Zn2 Zn -0.05466(3) 0.29088(5) 0.63113(3)
As1 As -0.13112(3) 0.41846(4) 0.35127(3)
S1 S -0.28455(7) 0.36419(13) 0.08019(8)
C1 C -0.2764(3) 0.4823(4) 0.3131(3)
C2 C -0.3311(3) 0.4796(4) 0.1972(3)
C3 C -0.4298(3) 0.5495(5) 0.1768(4)
H1 H -0.4648 0.5485 0.0998
C4 C -0.4767(3) 0.6210(6) 0.2709(4)
H2 H -0.5424 0.6697 0.2568
C5 C -0.4252(3) 0.6194(6) 0.3856(4)
H3 H -0.4574 0.6645 0.4491
C6 C -0.3252(3) 0.5506(5) 0.4074(3)
H4 H -0.2913 0.5506 0.4849
O1 O -0.1099(2) 0.4365(3) 0.5012(2)
O2 O -0.09406(19) 0.2323(3) 0.30711(19)
O3 O -0.05503(19) 0.5562(3) 0.2884(2)
O4 O -0.1703(2) 0.3994(3) 0.0858(2)
O5 O -0.3009(3) 0.1973(4) 0.1139(3)
O6 O -0.3395(3) 0.4145(5) -0.0310(3)
O7 O 0.03723(19) 0.1177(3) 0.57621(19)
H5 H 0.1084 0.1219 0.6175
O8 O 0.1462(2) 0.2766(3) 0.3960(2)
H6 H 0.1527 0.3088 0.3247
H7 H 0.1255 0.3545 0.4375
Zn1A Zn -0.03824(3) 0.59534(4) 0.10825(3)
Zn1B Zn -0.03824(3) -0.09534(4) 0.60825(3)
Zn2C Zn -0.05466(3) 0.20912(5) 0.13113(3)
Zn2B Zn 0.05466(3) 0.70912(5) 0.36887(3)
O2C O -0.09406(19) 0.2677(3) 0.80711(19)
O3A O 0.05503(19) 0.0562(3) 0.2116(2)
O3B O 0.05503(19) 0.4438(3) 0.7116(2)
O4A O 0.1703(2) -0.1006(3) 0.4142(2)
O4C O -0.1703(2) 0.1006(3) 0.5858(2)
O7B O -0.03723(19) -0.1177(3) 0.42379(19)
H5B H -0.1084 -0.1219 0.3825
O9 O 0.2378(3) 0.0795(4) 0.7109(3)
H8 H 0.2522 -0.0188 0.7267
H9 H 0.2902 0.1322 0.6900
loop_
_geom_bond_atom_site_label_1
_geom_bond_atom_site_label_2
_geom_bond_site_symmetry_1
_geom_bond_site_symmetry_2
Zn1 O2 1_555 1_555
Zn2 O1 1_555 1_555
As1 C1 1_555 1_555
S1 C2 1_555 1_555
C1 C2 1_555 1_555
C2 C3 1_555 1_555
C3 H1 1_555 1_555
C4 C3 1_555 1_555
H2 C4 1_555 1_555
C5 C4 1_555 1_555
H3 C5 1_555 1_555
C6 C1 1_555 1_555
H4 C6 1_555 1_555
O1 As1 1_555 1_555
O2 As1 1_555 1_555
O3 As1 1_555 1_555
O4 S1 1_555 1_555
O5 S1 1_555 1_555
O6 S1 1_555 1_555
O7 Zn1 1_555 1_555
H5 O7 1_555 1_555
O8 Zn1 1_555 1_555
H6 O8 1_555 1_555
H7 O8 1_555 1_555
O9 H8 1_555 1_555
H9 O9 1_555 1_555
Zn1A O3 1_555 1_555
Zn1B O7 1_555 1_555
Zn2C O2 1_555 1_555
Zn2B O3 1_555 1_555
O2C Zn2 1_555 1_555
O3A Zn1 1_555 1_555
O3B Zn2 1_555 1_555
O4A Zn1 1_555 1_555
O4C Zn2 1_555 1_555
O7B Zn1 1_555 1_555
H5B O7B 1_555 1_555
Zn2 O7 1_555 1_555
C5 C6 1_555 1_555
O4 Zn1A 1_555 1_555
O4 Zn2C 1_555 1_555
Zn1B O4C 1_555 1_555
Zn1B O7B 1_555 1_555
Zn2C O3A 1_555 1_555

#END
