
#######################################################################
#
#                 Cambridge Crystallographic Data Centre
#                                CCDC 
#
#######################################################################
#
# If this CIF has been generated from an entry in the Cambridge 
# Structural Database, then it will include bibliographic, chemical, 
# crystal, experimental, refinement or atomic coordinate data resulting 
# from the CCDC's data processing and validation procedures.
#
#######################################################################

data_EMEZAY
_symmetry_cell_setting           orthorhombic
_symmetry_space_group_name_H-M   'P n a 21'
_symmetry_Int_Tables_number      33
_space_group_name_Hall           'P 2c -2n'
loop_
_symmetry_equiv_pos_site_id
_symmetry_equiv_pos_as_xyz
1 x,y,z
2 -x,-y,1/2+z
3 1/2-x,1/2+y,1/2+z
4 1/2+x,1/2-y,z
_cell_length_a                   17.880(3)
_cell_length_b                   10.4331(17)
_cell_length_c                   21.170(3)
_cell_angle_alpha                90
_cell_angle_beta                 90
_cell_angle_gamma                90
_cell_volume                     3949.13
loop_
_atom_site_label
_atom_site_type_symbol
_atom_site_fract_x
_atom_site_fract_y
_atom_site_fract_z
Zn1 Zn -0.47638(2) 0.31638(4) -0.453995(19)
Zn2 Zn -0.63992(2) 0.79166(3) -0.477407(18)
As1 As -0.632692(17) 0.48327(3) -0.490512(15)
As2 As -0.532622(18) 0.03903(3) -0.509628(15)
S1 S -0.56089(5) 0.42950(9) -0.34227(4)
S2 S -0.61287(5) -0.12607(10) -0.63675(4)
N1 N -0.40823(17) 0.3751(3) -0.52992(14)
N2 N -0.37440(17) 0.3499(3) -0.40880(14)
N3 N -0.66605(16) 0.7833(3) -0.37887(13)
N4 N -0.75726(15) 0.7929(3) -0.47676(15)
C1 C -0.68987(19) 0.4642(3) -0.41399(16)
C2 C -0.6589(2) 0.4465(3) -0.35389(16)
C3 C -0.7058(2) 0.4397(4) -0.30144(19)
H1 H -0.6856 0.4273 -0.2614
C4 C -0.7828(2) 0.4512(4) -0.3090(2)
H2 H -0.8139 0.4482 -0.2739
C5 C -0.8128(2) 0.4671(4) -0.3679(2)
H3 H -0.8644 0.4736 -0.3726
C6 C -0.7669(2) 0.4735(3) -0.4208(2)
H4 H -0.7878 0.4840 -0.4607
C7 C -0.48202(19) -0.0290(3) -0.58262(16)
C8 C -0.5145(2) -0.1044(4) -0.62986(17)
C9 C -0.4706(2) -0.1532(4) -0.67877(19)
H5 H -0.4920 -0.2034 -0.7103
C10 C -0.3940(3) -0.1257(5) -0.6799(2)
H6 H -0.3641 -0.1613 -0.7112
C11 C -0.3626(2) -0.0470(5) -0.6354(2)
H7 H -0.3123 -0.0251 -0.6383
C12 C -0.4055(2) -0.0001(4) -0.58633(19)
H8 H -0.3834 0.0511 -0.5555
C13 C -0.4313(2) 0.3942(4) -0.58934(18)
H9 H -0.4822 0.3922 -0.5982
C14 C -0.3812(3) 0.4168(5) -0.6381(2)
H10 H -0.3980 0.4320 -0.6790
C15 C -0.3057(2) 0.4162(5) -0.62437(19)
H11 H -0.2709 0.4294 -0.6564
C16 C -0.2821(2) 0.3961(4) -0.56387(19)
H12 H -0.2313 0.3941 -0.5545
C17 C -0.33505(19) 0.3786(3) -0.51604(17)
C18 C -0.3158(2) 0.3686(3) -0.44762(18)
C19 C -0.2444(2) 0.3820(4) -0.4246(2)
H13 H -0.2044 0.3916 -0.4523
C20 C -0.2321(2) 0.3813(4) -0.3606(2)
H14 H -0.1840 0.3912 -0.3446
C21 C -0.2922(2) 0.3658(4) -0.3201(2)
H15 H -0.2854 0.3667 -0.2766
C22 C -0.3624(2) 0.3489(4) -0.34572(18)
H16 H -0.4028 0.3365 -0.3187
C23 C -0.6162(2) 0.7831(4) -0.33188(19)
H17 H -0.5658 0.7745 -0.3419
C24 C -0.6360(3) 0.7950(4) -0.26908(19)
H18 H -0.5998 0.7956 -0.2375
C25 C -0.7105(3) 0.8059(4) -0.2544(2)
H19 H -0.7256 0.8152 -0.2126
C26 C -0.7634(3) 0.8027(4) -0.3030(2)
H20 H -0.8142 0.8069 -0.2938
C27 C -0.7392(2) 0.7931(3) -0.36458(17)
C28 C -0.7903(2) 0.7957(3) -0.42012(18)
C29 C -0.8675(2) 0.8019(4) -0.4137(2)
H21 H -0.8894 0.8042 -0.3738
C30 C -0.9112(2) 0.8046(4) -0.4674(2)
H22 H -0.9629 0.8110 -0.4642
C31 C -0.8774(2) 0.7979(4) -0.5257(2)
H23 H -0.9061 0.7969 -0.5624
C32 C -0.8005(2) 0.7925(4) -0.5292(2)
H24 H -0.7777 0.7884 -0.5686
O1 O -0.56886(12) 0.3678(2) -0.50059(10)
O2 O -0.70132(15) 0.4540(3) -0.54506(13)
H25 H -0.6860 0.4726 -0.5804
O3 O -0.59679(13) 0.6281(2) -0.50173(12)
O4 O -0.52604(15) 0.5272(3) -0.38109(14)
O5 O -0.54028(15) 0.3025(2) -0.36662(13)
O6 O -0.54784(17) 0.4418(3) -0.27541(12)
O7 O -0.47181(12) 0.1298(2) -0.47062(12)
O8 O -0.56582(14) -0.0718(2) -0.46071(11)
O9 O -0.60464(13) 0.1344(2) -0.53600(13)
H26 H -0.5964 0.2091 -0.5262
O10 O -0.62468(19) -0.2417(3) -0.67205(16)
O11 O -0.63903(15) -0.0135(3) -0.66926(12)
O12 O -0.64217(14) -0.1309(2) -0.57231(11)
Zn2_2 Zn -0.63992(2) -0.20834(3) -0.477407(18)
O8_2 O -0.56582(14) 0.9282(2) -0.46071(11)
O12_2 O -0.64217(14) 0.8691(2) -0.57231(11)
O13 O -0.6652(2) 0.5054(3) -0.66044(15)
H27 H -0.6277 0.4602 -0.6710
H28 H -0.6542 0.5844 -0.6635
O14 O -0.5245(2) 0.0322(3) -0.33501(15)
H29 H -0.5066 0.0431 -0.3718
H30 H -0.5529 0.0948 -0.3258
O15 O -0.5524(3) 0.1325(3) -0.7552(2)
H31 H -0.5387 0.0852 -0.7858
H32 H -0.5786 0.0888 -0.7296
O16 O -0.5590(2) 0.3826(4) -0.7283(2)
H33 H -0.5700 0.3036 -0.7313
H34 H -0.5568 0.4154 -0.7650
loop_
_geom_bond_atom_site_label_1
_geom_bond_atom_site_label_2
_geom_bond_site_symmetry_1
_geom_bond_site_symmetry_2
Zn1 N1 1_555 1_555
Zn2 N3 1_555 1_555
As1 C1 1_555 1_555
As2 C7 1_555 1_555
S1 C2 1_555 1_555
S2 C8 1_555 1_555
N1 C13 1_555 1_555
N2 Zn1 1_555 1_555
N3 C23 1_555 1_555
N4 Zn2 1_555 1_555
C1 C2 1_555 1_555
C2 C3 1_555 1_555
C3 H1 1_555 1_555
C4 C3 1_555 1_555
H2 C4 1_555 1_555
C5 C4 1_555 1_555
H3 C5 1_555 1_555
C6 C1 1_555 1_555
H4 C6 1_555 1_555
C7 C8 1_555 1_555
C8 C9 1_555 1_555
C9 H5 1_555 1_555
C10 C9 1_555 1_555
H6 C10 1_555 1_555
C11 C10 1_555 1_555
H7 C11 1_555 1_555
C12 C7 1_555 1_555
H8 C12 1_555 1_555
C13 H9 1_555 1_555
C14 C13 1_555 1_555
H10 C14 1_555 1_555
C15 C14 1_555 1_555
H11 C15 1_555 1_555
C16 C15 1_555 1_555
H12 C16 1_555 1_555
C17 N1 1_555 1_555
C18 N2 1_555 1_555
C19 C18 1_555 1_555
H13 C19 1_555 1_555
C20 C19 1_555 1_555
H14 C20 1_555 1_555
C21 C20 1_555 1_555
H15 C21 1_555 1_555
C22 N2 1_555 1_555
H16 C22 1_555 1_555
C23 H17 1_555 1_555
C24 C23 1_555 1_555
H18 C24 1_555 1_555
C25 C24 1_555 1_555
H19 C25 1_555 1_555
C26 C25 1_555 1_555
H20 C26 1_555 1_555
C27 N3 1_555 1_555
C28 N4 1_555 1_555
C29 C28 1_555 1_555
H21 C29 1_555 1_555
C30 C29 1_555 1_555
H22 C30 1_555 1_555
C31 C30 1_555 1_555
H23 C31 1_555 1_555
C32 N4 1_555 1_555
H24 C32 1_555 1_555
O1 Zn1 1_555 1_555
O2 As1 1_555 1_555
H25 O2 1_555 1_555
O3 Zn2 1_555 1_555
O4 S1 1_555 1_555
O5 Zn1 1_555 1_555
O6 S1 1_555 1_555
O7 Zn1 1_555 1_555
O8 As2 1_555 1_555
O9 As2 1_555 1_555
H26 O9 1_555 1_555
O10 S2 1_555 1_555
O11 S2 1_555 1_555
O12 S2 1_555 1_555
O13 H27 1_555 1_555
H28 O13 1_555 1_555
O14 H29 1_555 1_555
H30 O14 1_555 1_555
O15 H31 1_555 1_555
H32 O15 1_555 1_555
O16 H33 1_555 1_555
H34 O16 1_555 1_555
Zn2_2 O8 1_555 1_555
O8_2 Zn2 1_555 1_555
O12_2 Zn2 1_555 1_555
As1 O1 1_555 1_555
As1 O3 1_555 1_555
As2 O7 1_555 1_555
S1 O5 1_555 1_555
C5 C6 1_555 1_555
C11 C12 1_555 1_555
C16 C17 1_555 1_555
C17 C18 1_555 1_555
C21 C22 1_555 1_555
C26 C27 1_555 1_555
C27 C28 1_555 1_555
C31 C32 1_555 1_555
O12 Zn2_2 1_555 1_555

#END
