
#######################################################################
#
#                 Cambridge Crystallographic Data Centre
#                                CCDC 
#
#######################################################################
#
# If this CIF has been generated from an entry in the Cambridge 
# Structural Database, then it will include bibliographic, chemical, 
# crystal, experimental, refinement or atomic coordinate data resulting 
# from the CCDC's data processing and validation procedures.
#
#######################################################################

data_EMEZOM
_symmetry_cell_setting           monoclinic
_symmetry_space_group_name_H-M   'P 21/c'
_symmetry_Int_Tables_number      14
_space_group_name_Hall           '-P 2ybc'
loop_
_symmetry_equiv_pos_site_id
_symmetry_equiv_pos_as_xyz
1 x,y,z
2 -x,1/2+y,1/2-z
3 -x,-y,-z
4 x,1/2-y,1/2+z
_cell_length_a                   12.648(6)
_cell_length_b                   8.181(4)
_cell_length_c                   37.325(17)
_cell_angle_alpha                90
_cell_angle_beta                 94.225(7)
_cell_angle_gamma                90
_cell_volume                     3851.64
loop_
_atom_site_label
_atom_site_type_symbol
_atom_site_fract_x
_atom_site_fract_y
_atom_site_fract_z
Zn1 Zn 0.87784(5) 0.63335(9) 0.04466(2)
As1 As 1.00604(5) 0.71420(8) -0.030801(18)
S2 S 0.74139(13) 0.8196(2) -0.01939(5)
N1 N 0.9554(4) 0.7683(6) 0.08724(14)
N2 N 0.7623(4) 0.6255(6) 0.08438(15)
C1 C 1.0916(6) 0.9304(9) 0.1176(2)
H1 H 1.1578 0.9793 0.1170
C2 C 1.0377(6) 0.9465(9) 0.1470(2)
H2 H 1.0659 1.0064 0.1666
C3 C 0.9367(6) 0.8706(8) 0.1479(2)
C4 C 0.8714(7) 0.8813(9) 0.1777(2)
H3 H 0.8952 0.9390 0.1982
C5 C 0.7758(6) 0.8078(9) 0.1761(2)
H4 H 0.7350 0.8172 0.1957
C6 C 0.7335(6) 0.7154(8) 0.1454(2)
C7 C 0.6353(6) 0.6329(9) 0.1426(2)
H5 H 0.5923 0.6341 0.1618
C8 C 0.6035(5) 0.5518(8) 0.1120(2)
H6 H 0.5394 0.4957 0.1102
C9 C 0.6679(5) 0.5530(9) 0.0830(2)
H7 H 0.6435 0.5008 0.0619
C10 C 0.7941(5) 0.7048(7) 0.11513(18)
C11 C 0.8981(5) 0.7825(8) 0.11680(17)
C12 C 1.0494(5) 0.8407(8) 0.08750(19)
H8 H 1.0885 0.8320 0.0674
C13 C 0.9047(5) 0.6109(8) -0.09721(19)
H9 H 0.9739 0.5811 -0.1010
C14 C 0.8823(5) 0.6806(8) -0.06439(17)
C15 C 0.8250(6) 0.5859(9) -0.1240(2)
H10 H 0.8408 0.5348 -0.1453
C16 C 0.7233(6) 0.6351(9) -0.1199(2)
H11 H 0.6708 0.6213 -0.1384
C17 C 0.6995(5) 0.7060(9) -0.0876(2)
H12 H 0.6303 0.7385 -0.0845
C18 C 0.7782(5) 0.7291(8) -0.05971(17)
O1 O 1.1053(3) 0.6066(5) -0.04619(12)
O2 O 1.0393(3) 0.9157(5) -0.03911(12)
H25 H 1.0824 0.9480 -0.0232
O3 O 0.9929(3) 0.6899(5) 0.01255(12)
O4 O 0.7555(3) 0.6893(6) 0.00771(13)
O5 O 0.6309(3) 0.8665(6) -0.02517(14)
O6 O 0.8131(4) 0.9554(6) -0.01222(14)
Zn1B Zn 1.12216(5) 0.36665(9) -0.04466(2)
O1B O 0.8947(3) 0.3934(5) 0.04619(12)
Zn2 Zn 0.48479(5) 0.11629(9) 0.19275(2)
As2 As 0.41372(4) 0.47691(7) 0.227880(18)
S1 S 0.26623(11) 0.11835(19) 0.22943(5)
N3 N 0.4638(4) -0.0117(6) 0.14438(14)
N4 N 0.6315(4) 0.1762(6) 0.16774(15)
C19 C 0.2603(4) 0.4623(7) 0.22355(16)
C20 C 0.2066(5) 0.6109(8) 0.22119(18)
H13 H 0.2442 0.7083 0.2202
C21 C 0.0961(5) 0.6130(9) 0.2203(2)
H14 H 0.0609 0.7129 0.2193
C22 C 0.0384(5) 0.4716(9) 0.22085(18)
H15 H -0.0353 0.4753 0.2202
C23 C 0.0918(4) 0.3209(8) 0.22244(19)
H16 H 0.0529 0.2244 0.2226
C24 C 0.2023(4) 0.3134(7) 0.22385(16)
C25 C 0.8001(5) 0.2966(8) 0.1595(2)
H17 H 0.8579 0.3556 0.1693
C26 C 0.7996(5) 0.2409(9) 0.1250(2)
H18 H 0.8560 0.2638 0.1111
C27 C 0.7124(5) 0.1479(8) 0.1106(2)
C28 C 0.7016(6) 0.0821(10) 0.0750(2)
H19 H 0.7553 0.1007 0.0598
C29 C 0.6166(6) -0.0057(10) 0.0628(2)
H20 H 0.6110 -0.0415 0.0391
C30 C 0.5339(5) -0.0452(8) 0.08609(19)
C31 C 0.4460(6) -0.1474(9) 0.0752(2)
H21 H 0.4388 -0.1916 0.0522
C32 C 0.3729(6) -0.1785(9) 0.0994(2)
H22 H 0.3152 -0.2453 0.0927
C33 C 0.3829(5) -0.1120(8) 0.13392(19)
H23 H 0.3326 -0.1374 0.1500
C34 C 0.5403(5) 0.0157(8) 0.12095(18)
C35 C 0.6299(5) 0.1168(7) 0.13339(18)
C36 C 0.7136(5) 0.2653(8) 0.1803(2)
H24 H 0.7142 0.3083 0.2034
O7 O 0.3476(3) 0.1410(5) 0.25881(12)
O8 O 0.3125(3) 0.0863(5) 0.19513(12)
O9 O 0.1831(3) 0.0031(5) 0.23591(14)
O10 O 0.4579(3) 0.4610(5) 0.27115(11)
O11 O 0.4726(3) 0.3516(5) 0.20013(13)
O12 O 0.4267(3) 0.6738(5) 0.21142(13)
H26 H 0.4879 0.7053 0.2158
Zn2A Zn 0.51521(5) 0.61629(9) 0.30725(2)
O10A O 0.5421(3) -0.0390(5) 0.22885(11)
O13 O 0.2720(8) 0.6898(11) 0.0210(3)
H27 H 0.2186 0.7431 0.0122
H28 H 0.2541 0.5911 0.0244
O14 O 0.4617(7) 0.6387(10) -0.0122(2)
H29 H 0.5122 0.7036 -0.0160
H30 H 0.4028 0.6866 -0.0172
loop_
_geom_bond_atom_site_label_1
_geom_bond_atom_site_label_2
_geom_bond_site_symmetry_1
_geom_bond_site_symmetry_2
Zn1 N1 1_555 1_555
Zn2 N3 1_555 1_555
As1 C14 1_555 1_555
As2 C19 1_555 1_555
S1 C24 1_555 1_555
S2 C18 1_555 1_555
N1 C11 1_555 1_555
N2 Zn1 1_555 1_555
N3 C33 1_555 1_555
N4 Zn2 1_555 1_555
C1 H1 1_555 1_555
C2 C1 1_555 1_555
H2 C2 1_555 1_555
C3 C2 1_555 1_555
C4 C3 1_555 1_555
H3 C4 1_555 1_555
C5 C4 1_555 1_555
H4 C5 1_555 1_555
C6 C5 1_555 1_555
C7 C6 1_555 1_555
H5 C7 1_555 1_555
C8 C7 1_555 1_555
H6 C8 1_555 1_555
C9 N2 1_555 1_555
H7 C9 1_555 1_555
C10 N2 1_555 1_555
C11 C3 1_555 1_555
C12 N1 1_555 1_555
H8 C12 1_555 1_555
C13 H9 1_555 1_555
C14 C13 1_555 1_555
C15 C13 1_555 1_555
H10 C15 1_555 1_555
C16 C15 1_555 1_555
H11 C16 1_555 1_555
C17 C16 1_555 1_555
H12 C17 1_555 1_555
C18 C14 1_555 1_555
C19 C20 1_555 1_555
C20 H13 1_555 1_555
C21 C20 1_555 1_555
H14 C21 1_555 1_555
C22 C21 1_555 1_555
H15 C22 1_555 1_555
C23 C22 1_555 1_555
H16 C23 1_555 1_555
C24 C19 1_555 1_555
C25 H17 1_555 1_555
C26 C25 1_555 1_555
H18 C26 1_555 1_555
C27 C26 1_555 1_555
C28 C27 1_555 1_555
H19 C28 1_555 1_555
C29 C28 1_555 1_555
H20 C29 1_555 1_555
C30 C29 1_555 1_555
C31 C30 1_555 1_555
H21 C31 1_555 1_555
C32 C31 1_555 1_555
H22 C32 1_555 1_555
C33 C32 1_555 1_555
H23 C33 1_555 1_555
C34 N3 1_555 1_555
C35 N4 1_555 1_555
C36 N4 1_555 1_555
H24 C36 1_555 1_555
O1 As1 1_555 1_555
O2 As1 1_555 1_555
H25 O2 1_555 1_555
O3 Zn1 1_555 1_555
O4 Zn1 1_555 1_555
O5 S2 1_555 1_555
O6 S2 1_555 1_555
O7 S1 1_555 1_555
O8 Zn2 1_555 1_555
O9 S1 1_555 1_555
O10 As2 1_555 1_555
O11 Zn2 1_555 1_555
O12 As2 1_555 1_555
H26 O12 1_555 1_555
O13 H27 1_555 1_555
H28 O13 1_555 1_555
O14 H29 1_555 1_555
H30 O14 1_555 1_555
Zn1B O1 1_555 1_555
Zn2A O10 1_555 1_555
O1B Zn1 1_555 1_555
O10A Zn2 1_555 1_555
As1 O3 1_555 1_555
As2 O11 1_555 1_555
S1 O8 1_555 1_555
S2 O4 1_555 1_555
C1 C12 1_555 1_555
C6 C10 1_555 1_555
C8 C9 1_555 1_555
C10 C11 1_555 1_555
C17 C18 1_555 1_555
C23 C24 1_555 1_555
C25 C36 1_555 1_555
C27 C35 1_555 1_555
C30 C34 1_555 1_555
C34 C35 1_555 1_555

#END
