
#######################################################################
#
#                 Cambridge Crystallographic Data Centre
#                                CCDC 
#
#######################################################################
#
# If this CIF has been generated from an entry in the Cambridge 
# Structural Database, then it will include bibliographic, chemical, 
# crystal, experimental, refinement or atomic coordinate data resulting 
# from the CCDC's data processing and validation procedures.
#
#######################################################################

data_EMICOT
_symmetry_cell_setting           triclinic
_symmetry_space_group_name_H-M   'P -1'
_symmetry_Int_Tables_number      2
_space_group_name_Hall           '-P 1'
loop_
_symmetry_equiv_pos_site_id
_symmetry_equiv_pos_as_xyz
1 x,y,z
2 -x,-y,-z
_cell_length_a                   7.5092(16)
_cell_length_b                   10.629(2)
_cell_length_c                   13.198(3)
_cell_angle_alpha                93.501(4)
_cell_angle_beta                 98.322(3)
_cell_angle_gamma                108.989(4)
_cell_volume                     978.981
loop_
_atom_site_label
_atom_site_type_symbol
_atom_site_fract_x
_atom_site_fract_y
_atom_site_fract_z
C1 C -0.0411(4) 0.1393(3) 0.1820(2)
C2 C -0.0955(4) 0.1523(3) 0.0789(2)
H1 H -0.1873 0.0811 0.0359
C3 C -0.0120(4) 0.2719(3) 0.0409(2)
C4 C 0.1181(4) 0.3818(3) 0.1036(2)
H2 H 0.1688 0.4630 0.0778
C5 C 0.1709(4) 0.3673(3) 0.2061(2)
C6 C 0.0931(4) 0.2472(3) 0.2448(2)
H3 H 0.1313 0.2391 0.3136
C7 C -0.1208(4) 0.0057(3) 0.2227(2)
C8 C -0.2301(5) 0.2298(3) -0.1309(2)
H4 H -0.3488 0.1990 -0.1106
C9 C -0.1956(5) 0.2355(3) -0.2282(2)
H5 H -0.2889 0.2099 -0.2872
C10 C 0.0775(5) 0.3094(3) -0.1287(2)
H6 H 0.2085 0.3439 -0.1046
C11 C 0.3148(5) 0.5065(3) 0.3758(2)
H7 H 0.2262 0.4616 0.4153
C12 C 0.4745(5) 0.6132(3) 0.4088(2)
H8 H 0.5151 0.6548 0.4762
C13 C 0.4654(4) 0.5679(3) 0.2469(2)
H9 H 0.4950 0.5701 0.1809
C14 C 0.2673(5) -0.2486(3) 0.6123(2)
C15 C 0.4183(5) -0.1376(3) 0.6629(2)
H10 H 0.4617 -0.0617 0.6296
C16 C 0.5041(5) -0.1397(3) 0.7624(2)
H11 H 0.6048 -0.0651 0.7957
C17 C 0.4407(4) -0.2527(3) 0.8127(2)
C18 C 0.2979(5) -0.3660(3) 0.7596(2)
H12 H 0.2594 -0.4437 0.7915
C19 C 0.2127(5) -0.3643(3) 0.6601(2)
H13 H 0.1183 -0.4411 0.6249
C20 C 0.1496(5) -0.2378(3) 0.5126(2)
C21 C 0.5150(5) -0.2546(3) 0.9232(2)
Cd1 Cd -0.12367(3) -0.21198(2) 0.358950(15)
H14 H 0.658(7) -0.137(5) 1.027(4)
N1 N -0.0015(4) 0.2847(3) -0.2271(2)
N2 N -0.0553(4) 0.2787(2) -0.06812(19)
N3 N 0.5692(4) 0.6514(2) 0.32717(19)
N4 N 0.3089(3) 0.4777(2) 0.27291(18)
O1 O -0.2440(3) -0.0903(2) 0.16586(17)
O2 O -0.0535(3) -0.0021(2) 0.31477(16)
O3 O 0.2089(4) -0.1378(2) 0.46541(17)
O4 O -0.0108(3) -0.3272(2) 0.48337(18)
O5 O 0.6301(5) -0.1360(3) 0.9673(2)
O6 O 0.4735(4) -0.3521(2) 0.96867(19)
O7 O -0.2099(3) -0.1191(2) 0.50599(17)
Cd1A Cd 0.12367(3) 0.21198(2) -0.358950(15)
Cd1_2 Cd 0.87633(3) 0.78802(2) 0.358950(15)
N1A N 0.0015(4) -0.2847(3) 0.2271(2)
N3_2 N -0.4308(4) -0.3486(2) 0.32717(19)
loop_
_geom_bond_atom_site_label_1
_geom_bond_atom_site_label_2
_geom_bond_site_symmetry_1
_geom_bond_site_symmetry_2
C1 C2 1_555 1_555
C2 H1 1_555 1_555
C3 C2 1_555 1_555
C4 C3 1_555 1_555
H2 C4 1_555 1_555
C5 C4 1_555 1_555
C6 C1 1_555 1_555
H3 C6 1_555 1_555
C7 C1 1_555 1_555
C8 H4 1_555 1_555
C9 C8 1_555 1_555
H5 C9 1_555 1_555
C10 H6 1_555 1_555
C11 H7 1_555 1_555
C12 C11 1_555 1_555
H8 C12 1_555 1_555
C13 H9 1_555 1_555
C14 C15 1_555 1_555
C15 H10 1_555 1_555
C16 C15 1_555 1_555
H11 C16 1_555 1_555
C17 C16 1_555 1_555
C18 C17 1_555 1_555
H12 C18 1_555 1_555
C19 C14 1_555 1_555
H13 C19 1_555 1_555
C20 C14 1_555 1_555
C21 C17 1_555 1_555
Cd1 O2 1_555 1_555
H14 O5 1_555 1_555
N1 C9 1_555 1_555
N2 C3 1_555 1_555
N3 C12 1_555 1_555
N4 C5 1_555 1_555
O1 C7 1_555 1_555
O2 C7 1_555 1_555
O3 C20 1_555 1_555
O4 C20 1_555 1_555
O5 C21 1_555 1_555
O6 C21 1_555 1_555
O7 Cd1 1_555 1_555
Cd1A N1 1_555 1_555
Cd1_2 N3 1_555 1_555
N1A Cd1 1_555 1_555
N3_2 Cd1 1_555 1_555
C5 C6 1_555 1_555
C8 N2 1_555 1_555
C10 N1 1_555 1_555
C10 N2 1_555 1_555
C11 N4 1_555 1_555
C13 N3 1_555 1_555
C13 N4 1_555 1_555
C18 C19 1_555 1_555
Cd1 O3 1_555 1_555
Cd1 O4 1_555 1_555

#END
