
#######################################################################
#
#                 Cambridge Crystallographic Data Centre
#                                CCDC 
#
#######################################################################
#
# If this CIF has been generated from an entry in the Cambridge 
# Structural Database, then it will include bibliographic, chemical, 
# crystal, experimental, refinement or atomic coordinate data resulting 
# from the CCDC's data processing and validation procedures.
#
#######################################################################

data_EMIDEJ
_symmetry_cell_setting           monoclinic
_symmetry_space_group_name_H-M   'C 2/c'
_symmetry_Int_Tables_number      15
_space_group_name_Hall           '-C 2yn'
loop_
_symmetry_equiv_pos_site_id
_symmetry_equiv_pos_as_xyz
1 x,y,z
2 1/2+x,1/2+y,z
3 -x,y,1/2-z
4 1/2-x,1/2+y,1/2-z
5 -x,-y,-z
6 1/2-x,1/2-y,-z
7 x,-y,1/2+z
8 1/2+x,1/2-y,1/2+z
_cell_length_a                   15.6289(8)
_cell_length_b                   21.2640(11)
_cell_length_c                   17.1852(9)
_cell_angle_alpha                90
_cell_angle_beta                 112.134(2)
_cell_angle_gamma                90
_cell_volume                     5290.32
loop_
_atom_site_label
_atom_site_type_symbol
_atom_site_fract_x
_atom_site_fract_y
_atom_site_fract_z
O2 O -0.63010(12) 0.31325(8) -0.01361(10)
H3 H -0.5769(8) 0.3056(12) 0.0178(12)
H4 H -0.6430(15) 0.2912(11) -0.0556(10)
O3 O 0.81026(12) 0.66462(8) 0.25007(18)
H5 H 0.797(2) 0.6273(4) 0.244(2)
H6 H 0.7630(13) 0.6854(12) 0.230(2)
O4 O -0.48254(9) 0.15049(6) 0.04840(8)
H7 H -0.4629(14) 0.1856(5) 0.0651(13)
H8 H -0.4625(14) 0.1394(9) 0.0130(11)
Ca1 Ca 1.07805(2) 0.457930(16) 0.18124(2)
O5 O 0.99985(9) 0.55510(6) 0.15074(9)
H9 H 0.9438(4) 0.5500(10) 0.1297(12)
H10 H 1.0140(12) 0.5817(8) 0.1233(12)
O6 O 1.12621(9) 0.48871(7) 0.06916(8)
H11 H 1.1028(12) 0.5119(9) 0.0287(10)
H12 H 1.1808(5) 0.4842(11) 0.0773(13)
Ca2 Ca 0.26313(2) 0.350822(16) 0.14830(2)
O7 O 0.16860(9) 0.33877(7) 0.00341(8)
H13 H 0.1127(5) 0.3397(10) -0.0085(13)
H14 H 0.1816(12) 0.3655(8) -0.0246(12)
Ca3 Ca 0.5000 0.29311(2) 0.2500
O8 O 0.5268(2) 0.18294(12) 0.2545(3)
H15 H 0.5726(10) 0.1776(6) 0.2431(17)
O9 O 0.34963(11) 0.26034(8) 0.12884(12)
H16 H 0.336(2) 0.2240(5) 0.1343(15)
H17 H 0.349(2) 0.2652(12) 0.0814(8)
C1 C 0.79855(12) 0.37312(8) 0.07094(11)
C2 C 0.74974(11) 0.35537(8) 0.12087(11)
H18 H 0.7715 0.3680 0.1781
C3 C 0.66921(11) 0.31929(8) 0.08768(11)
C4 C 0.63848(12) 0.30049(8) 0.00366(11)
H19 H 0.5843 0.2756 -0.0194
C5 C 0.68657(12) 0.31792(9) -0.04639(11)
H20 H 0.6652 0.3048 -0.1034
C6 C 0.76580(12) 0.35444(9) -0.01336(11)
H21 H 0.7979 0.3668 -0.0481
C7 C 0.88615(11) 0.41116(8) 0.10758(10)
O10 O 0.93401(8) 0.42079(6) 0.06309(7)
O11 O 0.91196(8) 0.43137(6) 0.18196(7)
C8 C 0.61443(11) 0.30216(8) 0.14082(11)
O12 O 0.64388(8) 0.31834(6) 0.21711(7)
O13 O 0.53901(8) 0.27332(6) 0.10720(8)
C9 C 0.46903(12) 0.47596(8) 0.11969(10)
C10 C 0.56102(11) 0.46398(8) 0.17083(10)
H22 H 0.5761 0.4273 0.2048
C11 C 0.63094(11) 0.50527(8) 0.17253(10)
C12 C 0.60808(12) 0.55805(8) 0.12027(11)
H23 H 0.6553 0.5860 0.1198
C13 C 0.51661(12) 0.56986(8) 0.06888(11)
H24 H 0.5017 0.6057 0.0332
C14 C 0.44682(12) 0.52953(8) 0.06953(11)
H25 H 0.3842 0.5385 0.0359
C15 C 0.39582(11) 0.43069(8) 0.12058(10)
O14 O 0.31161(8) 0.44388(6) 0.08099(8)
O15 O 0.42038(8) 0.38049(6) 0.16321(8)
C16 C 0.72924(11) 0.49231(8) 0.23008(10)
O16 O 0.74746(8) 0.44345(6) 0.27512(7)
O17 O 0.79235(8) 0.53032(6) 0.23120(7)
C17 C 1.05483(11) 0.25618(8) 0.21605(10)
C18 C 1.05440(12) 0.19063(8) 0.21597(11)
H26 H 1.0916 0.1684 0.1925
C19 C 1.0000 0.15749(12) 0.2500
H27 H 1.0000 0.1128 0.2500
C20 C 1.0000 0.28929(11) 0.2500
H28 H 1.0000 0.3340 0.2500
C21 C 1.11630(11) 0.29059(8) 0.18050(10)
O18 O 1.10972(8) 0.34960(6) 0.17077(8)
O19 O 1.17496(8) 0.25890(6) 0.16277(8)
O8B O 0.4732(2) 0.18294(12) 0.2455(3)
H15B H 0.4274(10) 0.1776(6) 0.2569(17)
C18B C 0.94560(12) 0.19063(8) 0.28403(11)
C17B C 0.94517(11) 0.25618(8) 0.28395(10)
C21B C 0.88370(11) 0.29059(8) 0.31950(10)
O18B O 0.89028(8) 0.34960(6) 0.32923(8)
O19B O 0.82504(8) 0.25890(6) 0.33723(8)
H26B H 0.9084 0.1684 0.3075
O9B O 0.65037(11) 0.26034(8) 0.37116(12)
H16B H 0.664(2) 0.2240(5) 0.3657(15)
H17B H 0.651(2) 0.2652(12) 0.4186(8)
C1B C 0.20145(12) 0.37312(8) 0.42906(11)
C2B C 0.25026(11) 0.35537(8) 0.37913(11)
H18B H 0.2285 0.3680 0.3219
C3B C 0.33079(11) 0.31929(8) 0.41232(11)
C4B C 0.36152(12) 0.30049(8) 0.49634(11)
H19B H 0.4157 0.2756 0.5194
C5B C 0.31343(12) 0.31792(9) 0.54639(11)
H20B H 0.3348 0.3048 0.6034
C6B C 0.23420(12) 0.35444(9) 0.51336(11)
H21B H 0.2021 0.3668 0.5481
C7B C 0.11385(11) 0.41116(8) 0.39242(10)
O10B O 0.06599(8) 0.42079(6) 0.43691(7)
O11B O 0.08804(8) 0.43137(6) 0.31804(7)
C8B C 0.38557(11) 0.30216(8) 0.35918(11)
O12B O 0.35612(8) 0.31834(6) 0.28289(7)
O13B O 0.46099(8) 0.27332(6) 0.39280(8)
C9B C 0.53097(12) 0.47596(8) 0.38031(10)
C10B C 0.43898(11) 0.46398(8) 0.32917(10)
H22B H 0.4239 0.4273 0.2952
C11B C 0.36906(11) 0.50527(8) 0.32747(10)
C12B C 0.39192(12) 0.55805(8) 0.37973(11)
H23B H 0.3447 0.5860 0.3802
C13B C 0.48339(12) 0.56986(8) 0.43112(11)
H24B H 0.4983 0.6057 0.4668
C14B C 0.55318(12) 0.52953(8) 0.43047(11)
H25B H 0.6158 0.5385 0.4641
C15B C 0.60418(11) 0.43069(8) 0.37942(10)
O14B O 0.68839(8) 0.44388(6) 0.41901(8)
O15B O 0.57962(8) 0.38049(6) 0.33679(8)
C16B C 0.27076(11) 0.49231(8) 0.26992(10)
O16B O 0.25254(8) 0.44345(6) 0.22488(7)
O17B O 0.20765(8) 0.53032(6) 0.26880(7)
Ca1B Ca -0.07805(2) 0.457930(16) 0.31876(2)
Ca2B Ca 0.73687(2) 0.350822(16) 0.35170(2)
O5B O 0.00015(9) 0.55510(6) 0.34926(9)
H9B H 0.0562(4) 0.5500(10) 0.3703(12)
H10B H -0.0140(12) 0.5817(8) 0.3767(12)
O6B O -0.12621(9) 0.48871(7) 0.43084(8)
H11B H -0.1028(12) 0.5119(9) 0.4713(10)
H12B H -0.1808(5) 0.4842(11) 0.4227(13)
O7B O 0.83140(9) 0.33877(7) 0.49659(8)
H13B H 0.8873(5) 0.3397(10) 0.5085(13)
H14B H 0.8184(12) 0.3655(8) 0.5246(12)
Ca1B_2 Ca 0.92195(2) 0.457930(16) 0.31876(2)
Ca2_2 Ca 1.26313(2) 0.350822(16) 0.14830(2)
O11B_2 O 1.08804(8) 0.43137(6) 0.31804(7)
O16B_2 O 1.25254(8) 0.44345(6) 0.22488(7)
O17B_2 O 1.20765(8) 0.53032(6) 0.26880(7)
Ca1_2 Ca 0.07805(2) 0.457930(16) 0.18124(2)
O18_2 O 0.10972(8) 0.34960(6) 0.17077(8)
O19_2 O 0.17496(8) 0.25890(6) 0.16277(8)
Ca2B_2 Ca -0.26313(2) 0.350822(16) 0.35170(2)
O11_2 O -0.08804(8) 0.43137(6) 0.18196(7)
O16_2 O -0.25254(8) 0.44345(6) 0.27512(7)
O17_2 O -0.20765(8) 0.53032(6) 0.23120(7)
O18B_2 O -0.10972(8) 0.34960(6) 0.32923(8)
O1 O 0.80877(9) 0.55494(7) 0.08166(8)
H1 H 0.7611(9) 0.5487(12) 0.0410(7)
H2 H 0.7998(14) 0.5464(12) 0.1244(7)
H29? H 0.5000 0.1493(3) 0.2500
loop_
_geom_bond_atom_site_label_1
_geom_bond_atom_site_label_2
_geom_bond_site_symmetry_1
_geom_bond_site_symmetry_2
O1 H1 1_555 1_555
H2 O1 1_555 1_555
O2 H3 1_555 1_555
H4 O2 1_555 1_555
O3 H5 1_555 1_555
H6 O3 1_555 1_555
O4 H7 1_555 1_555
H8 O4 1_555 1_555
Ca1 O5 1_555 1_555
O5 H9 1_555 1_555
H10 O5 1_555 1_555
O6 Ca1 1_555 1_555
H11 O6 1_555 1_555
H12 O6 1_555 1_555
Ca2 O7 1_555 1_555
O7 H13 1_555 1_555
H14 O7 1_555 1_555
Ca3 O8 1_555 1_555
O8 H15 1_555 1_555
O9 Ca2 1_555 1_555
H16 O9 1_555 1_555
H17 O9 1_555 1_555
C1 C2 1_555 1_555
C2 H18 1_555 1_555
C3 C2 1_555 1_555
C4 C3 1_555 1_555
H19 C4 1_555 1_555
C5 C4 1_555 1_555
H20 C5 1_555 1_555
C6 C1 1_555 1_555
H21 C6 1_555 1_555
C7 C1 1_555 1_555
O10 Ca1 1_555 1_555
O11 Ca1 1_555 1_555
C8 C3 1_555 1_555
O12 Ca3 1_555 1_555
O13 Ca3 1_555 1_555
C9 C10 1_555 1_555
C10 H22 1_555 1_555
C11 C10 1_555 1_555
C12 C11 1_555 1_555
H23 C12 1_555 1_555
C13 C12 1_555 1_555
H24 C13 1_555 1_555
C14 C9 1_555 1_555
H25 C14 1_555 1_555
C15 C9 1_555 1_555
O14 Ca2 1_555 1_555
O15 Ca2 1_555 1_555
C16 C11 1_555 1_555
O16 C16 1_555 1_555
O17 C16 1_555 1_555
C17 C18 1_555 1_555
C18 H26 1_555 1_555
C19 C18 1_555 1_555
H27 C19 1_555 1_555
C20 C17 1_555 1_555
H28 C20 1_555 1_555
C21 C17 1_555 1_555
O18 Ca1 1_555 1_555
O19 C21 1_555 1_555
O8B Ca3 1_555 1_555
H15B O8B 1_555 1_555
C18B C19 1_555 1_555
C17B C20 1_555 1_555
C21B C17B 1_555 1_555
O18B C21B 1_555 1_555
O19B C21B 1_555 1_555
H26B C18B 1_555 1_555
O9B Ca3 1_555 1_555
H16B O9B 1_555 1_555
H17B O9B 1_555 1_555
C1B C2B 1_555 1_555
C2B H18B 1_555 1_555
C3B C2B 1_555 1_555
C4B C3B 1_555 1_555
H19B C4B 1_555 1_555
C5B C4B 1_555 1_555
H20B C5B 1_555 1_555
C6B C1B 1_555 1_555
H21B C6B 1_555 1_555
C7B C1B 1_555 1_555
O10B C7B 1_555 1_555
O11B C7B 1_555 1_555
C8B C3B 1_555 1_555
O12B Ca2 1_555 1_555
O13B Ca3 1_555 1_555
C9B C10B 1_555 1_555
C10B H22B 1_555 1_555
C11B C10B 1_555 1_555
C12B C11B 1_555 1_555
H23B C12B 1_555 1_555
C13B C12B 1_555 1_555
H24B C13B 1_555 1_555
C14B C9B 1_555 1_555
H25B C14B 1_555 1_555
C15B C9B 1_555 1_555
O14B C15B 1_555 1_555
O15B Ca3 1_555 1_555
C16B C11B 1_555 1_555
O16B Ca2 1_555 1_555
O17B C16B 1_555 1_555
Ca1B O10B 1_555 1_555
Ca2B O12 1_555 1_555
O5B Ca1B 1_555 1_555
H9B O5B 1_555 1_555
H10B O5B 1_555 1_555
O6B Ca1B 1_555 1_555
H11B O6B 1_555 1_555
H12B O6B 1_555 1_555
O7B Ca2B 1_555 1_555
H13B O7B 1_555 1_555
H14B O7B 1_555 1_555
Ca1B_2 O11 1_555 1_555
Ca2_2 O18 1_555 1_555
O11B_2 Ca1 1_555 1_555
O16B_2 Ca1 1_555 1_555
O17B_2 Ca1 1_555 1_555
Ca1_2 O11B 1_555 1_555
O18_2 Ca2 1_555 1_555
O19_2 Ca2 1_555 1_555
Ca2B_2 O16_2 1_555 1_555
O11_2 Ca1B 1_555 1_555
O16_2 Ca1B 1_555 1_555
O17_2 Ca1B 1_555 1_555
O18B_2 Ca1B 1_555 1_555
Ca3 O9 1_555 1_555
Ca3 O15 1_555 1_555
Ca3 O12B 1_555 1_555
O8 O8B 1_555 1_555
C5 C6 1_555 1_555
C7 O10 1_555 1_555
C7 O11 1_555 1_555
C8 O12 1_555 1_555
C8 O13 1_555 1_555
C13 C14 1_555 1_555
C15 O14 1_555 1_555
C15 O15 1_555 1_555
O16 Ca2B 1_555 1_555
O16 Ca1B_2 1_555 1_555
O17 Ca1B_2 1_555 1_555
C21 O18 1_555 1_555
O19 Ca2_2 1_555 1_555
C18B C17B 1_555 1_555
O18B Ca2B 1_555 1_555
O18B Ca1B_2 1_555 1_555
O19B Ca2B 1_555 1_555
O9B Ca2B 1_555 1_555
C5B C6B 1_555 1_555
O11B Ca1B 1_555 1_555
C8B O12B 1_555 1_555
C8B O13B 1_555 1_555
C13B C14B 1_555 1_555
C15B O15B 1_555 1_555
O14B Ca2B 1_555 1_555
O15B Ca2B 1_555 1_555
C16B O16B 1_555 1_555
O16B Ca1_2 1_555 1_555
O17B Ca1_2 1_555 1_555
Ca1B_2 O11B_2 1_555 1_555
Ca2_2 O16B_2 1_555 1_555
Ca1_2 O18_2 1_555 1_555
Ca1_2 O11_2 1_555 1_555
Ca2B_2 O18B_2 1_555 1_555

#END
