
#######################################################################
#
#                 Cambridge Crystallographic Data Centre
#                                CCDC 
#
#######################################################################
#
# If this CIF has been generated from an entry in the Cambridge 
# Structural Database, then it will include bibliographic, chemical, 
# crystal, experimental, refinement or atomic coordinate data resulting 
# from the CCDC's data processing and validation procedures.
#
#######################################################################

data_EMIDEK
_symmetry_cell_setting           triclinic
_symmetry_space_group_name_H-M   'P -1'
_symmetry_Int_Tables_number      2
_space_group_name_Hall           '-P 1'
loop_
_symmetry_equiv_pos_site_id
_symmetry_equiv_pos_as_xyz
1 x,y,z
2 -x,-y,-z
_cell_length_a                   8.254(3)
_cell_length_b                   9.984(5)
_cell_length_c                   13.965(5)
_cell_angle_alpha                78.013(13)
_cell_angle_beta                 87.68(4)
_cell_angle_gamma                69.43(2)
_cell_volume                     1053.3
loop_
_atom_site_label
_atom_site_type_symbol
_atom_site_fract_x
_atom_site_fract_y
_atom_site_fract_z
C1 C 0.2172(4) 0.8690(4) 0.2958(2)
C2 C 0.2649(5) 0.7378(4) 0.3639(2)
H1 H 0.3110 0.7315 0.4250
C3 C 0.2437(4) 0.6153(4) 0.3409(2)
C4 C 0.1743(4) 0.6235(4) 0.2521(2)
H2 H 0.1617 0.5416 0.2363
C5 C 0.1224(4) 0.7573(4) 0.1850(2)
C6 C 0.1427(4) 0.8803(4) 0.2053(2)
H3 H 0.1076 0.9683 0.1598
C7 C 0.2540(4) 0.9968(4) 0.3200(2)
C8 C 0.2775(6) 0.4663(4) 0.5128(3)
H4 H 0.2367 0.5414 0.5471
C9 C 0.3342(6) 0.3219(4) 0.5510(3)
H5 H 0.3399 0.2803 0.6174
C10 C 0.3550(5) 0.3445(4) 0.3960(3)
H6 H 0.3768 0.3227 0.3341
C11 C 0.0885(5) 0.6520(4) 0.0431(3)
H7 H 0.1843 0.5660 0.0558
C12 C -0.0330(5) 0.6928(4) -0.0286(2)
H8 H -0.0348 0.6386 -0.0750
C13 C -0.1055(4) 0.8664(4) 0.0514(2)
H9 H -0.1641 0.9531 0.0722
C14 C -0.6375(4) 0.3673(4) -0.1645(3)
C15 C -0.7845(5) 0.4275(4) -0.2267(2)
H10 H -0.8318 0.3660 -0.2476
C16 C -0.8610(5) 0.5774(4) -0.2579(3)
H11 H -0.9619 0.6164 -0.2971
C17 C -0.7870(5) 0.6692(4) -0.2305(3)
H12 H -0.8370 0.7699 -0.2524
C18 C -0.6382(4) 0.6111(3) -0.1706(2)
C19 C -0.5658(4) 0.4608(3) -0.1352(2)
H13 H -0.4699 0.4227 -0.0921
C20 C -0.5561(5) 0.2063(4) -0.1335(3)
C21 C -0.5514(5) 0.7107(4) -0.1467(3)
Cd1 Cd 0.5000 0.0000 0.5000
Cd2 Cd -0.41144(3) 0.90243(2) -0.105520(17)
N1 N 0.3824(4) 0.2456(3) 0.4775(2)
N2 N 0.2916(4) 0.4812(3) 0.4124(2)
N3 N -0.1551(4) 0.8273(3) -0.0233(2)
N4 N 0.0428(4) 0.7631(3) 0.09407(19)
O1 O 0.2595(4) 1.0994(3) 0.25264(18)
O2 O 0.2767(4) 0.9888(3) 0.41025(18)
O3 O -0.4659(4) 0.1480(3) -0.0541(2)
O4 O -0.5807(4) 0.1305(3) -0.1897(2)
O5 O -0.4005(3) 0.6592(3) -0.1116(2)
O6 O -0.6353(4) 0.8477(3) -0.1656(2)
O7 O 0.3158(5) -0.0121(4) 0.6347(2)
C1A C 0.7828(4) -0.8690(4) 0.7042(2)
C2A C 0.7351(5) -0.7378(4) 0.6361(2)
H1A H 0.6890 -0.7315 0.5750
C3A C 0.7563(4) -0.6153(4) 0.6591(2)
C4A C 0.8257(4) -0.6235(4) 0.7479(2)
H2A H 0.8383 -0.5416 0.7637
C5A C 0.8776(4) -0.7573(4) 0.8150(2)
C6A C 0.8573(4) -0.8803(4) 0.7947(2)
H3A H 0.8924 -0.9683 0.8402
C7A C 0.7460(4) -0.9968(4) 0.6800(2)
C8A C 0.7225(6) -0.4663(4) 0.4872(3)
H4A H 0.7633 -0.5414 0.4529
C9A C 0.6658(6) -0.3219(4) 0.4490(3)
H5A H 0.6601 -0.2803 0.3826
C10A C 0.6450(5) -0.3445(4) 0.6040(3)
H6A H 0.6232 -0.3227 0.6659
C11A C 0.9115(5) -0.6520(4) 0.9569(3)
H7A H 0.8157 -0.5660 0.9442
C12A C 1.0330(5) -0.6928(4) 1.0286(2)
H8A H 1.0348 -0.6386 1.0750
C13A C 1.1055(4) -0.8664(4) 0.9486(2)
H9A H 1.1641 -0.9531 0.9278
C14A C -0.3625(4) 0.6327(4) 0.1645(3)
C15A C -0.2155(5) 0.5725(4) 0.2267(2)
H10A H -0.1682 0.6340 0.2476
C16A C -0.1390(5) 0.4226(4) 0.2579(3)
H11A H -0.0381 0.3836 0.2971
C17A C -0.2130(5) 0.3308(4) 0.2305(3)
H12A H -0.1630 0.2301 0.2524
C18A C -0.3618(4) 0.3889(3) 0.1706(2)
C19A C -0.4342(4) 0.5392(3) 0.1352(2)
H13A H -0.5301 0.5773 0.0921
C20A C -0.4439(5) 0.7937(4) 0.1335(3)
C21A C -0.4486(5) 0.2893(4) 0.1467(3)
Cd1_2 Cd 0.5000 1.0000 0.5000
Cd1_3 Cd 0.5000 -1.0000 0.5000
Cd2A Cd 1.41144(3) -0.90243(2) 1.105520(17)
Cd2A_2 Cd 0.41144(3) 1.09757(2) 0.105520(17)
Cd2A_3 Cd -0.58856(3) 0.09757(2) 0.105520(17)
Cd2_2 Cd -0.41144(3) -0.09757(2) -0.105520(17)
Cd2_3 Cd 0.58856(3) -1.09757(2) 0.894480(17)
Cd2A_4 Cd -0.58856(3) 1.09757(2) 0.105520(17)
N1A N 0.6176(4) -0.2456(3) 0.5225(2)
N2A N 0.7084(4) -0.4812(3) 0.5876(2)
N3A N 1.1551(4) -0.8273(3) 1.0233(2)
N4A N 0.9572(4) -0.7631(3) 0.90593(19)
O1A O 0.7405(4) -1.0994(3) 0.74736(18)
O1A_2 O -0.2595(4) 0.9006(3) -0.25264(18)
O1_2 O 1.2595(4) -0.9006(3) 1.25264(18)
O2A O 0.7233(4) -0.9888(3) 0.58975(18)
O2_2 O 0.2767(4) -0.0112(3) 0.41025(18)
O2A_2 O 0.7233(4) 0.0112(3) 0.58975(18)
O3A O -0.5341(4) 0.8520(3) 0.0541(2)
O3_2 O -0.4659(4) 1.1480(3) -0.0541(2)
O3_3 O 1.5341(4) -0.8520(3) 0.9459(2)
O3A_2 O 1.4659(4) -1.1480(3) 1.0541(2)
O4A O -0.4193(4) 0.8695(3) 0.1897(2)
O4_2 O -0.5807(4) 1.1305(3) -0.1897(2)
O4A_2 O 1.5807(4) -1.1305(3) 1.1897(2)
O5A O -0.5995(3) 0.3408(3) 0.1116(2)
O5A_2 O 1.4005(3) -0.6592(3) 1.1116(2)
O6A O -0.3647(4) 0.1523(3) 0.1656(2)
O6A_2 O 1.6353(4) -0.8477(3) 1.1656(2)
O7A O 0.6842(5) 0.0121(4) 0.3653(2)
O8 O 0.9342(15) 0.1312(14) 0.4598(8)
loop_
_geom_bond_atom_site_label_1
_geom_bond_atom_site_label_2
_geom_bond_site_symmetry_1
_geom_bond_site_symmetry_2
C1 C2 1_555 1_555
C2 H1 1_555 1_555
C3 C2 1_555 1_555
C4 C3 1_555 1_555
H2 C4 1_555 1_555
C5 C4 1_555 1_555
C6 C1 1_555 1_555
H3 C6 1_555 1_555
C7 C1 1_555 1_555
C8 H4 1_555 1_555
C9 C8 1_555 1_555
H5 C9 1_555 1_555
C10 H6 1_555 1_555
C11 H7 1_555 1_555
C12 C11 1_555 1_555
H8 C12 1_555 1_555
C13 H9 1_555 1_555
C14 C15 1_555 1_555
C15 H10 1_555 1_555
C16 C15 1_555 1_555
H11 C16 1_555 1_555
C17 C16 1_555 1_555
H12 C17 1_555 1_555
C18 C17 1_555 1_555
C19 C14 1_555 1_555
H13 C19 1_555 1_555
C20 C14 1_555 1_555
C21 C18 1_555 1_555
Cd1 N1 1_555 1_555
Cd2 N3 1_555 1_555
N1 C9 1_555 1_555
N2 C3 1_555 1_555
N3 C12 1_555 1_555
N4 C5 1_555 1_555
O1 C7 1_555 1_555
O2 C7 1_555 1_555
O3 C20 1_555 1_555
O4 C20 1_555 1_555
O5 C21 1_555 1_555
O6 C21 1_555 1_555
O7 Cd1 1_555 1_555
C1A C2A 1_555 1_555
C2A H1A 1_555 1_555
C3A C2A 1_555 1_555
C4A C3A 1_555 1_555
H2A C4A 1_555 1_555
C5A C4A 1_555 1_555
C6A C1A 1_555 1_555
H3A C6A 1_555 1_555
C7A C1A 1_555 1_555
C8A H4A 1_555 1_555
C9A C8A 1_555 1_555
H5A C9A 1_555 1_555
C10A H6A 1_555 1_555
C11A H7A 1_555 1_555
C12A C11A 1_555 1_555
H8A C12A 1_555 1_555
C13A H9A 1_555 1_555
C14A C15A 1_555 1_555
C15A H10A 1_555 1_555
C16A C15A 1_555 1_555
H11A C16A 1_555 1_555
C17A C16A 1_555 1_555
H12A C17A 1_555 1_555
C18A C17A 1_555 1_555
C19A C14A 1_555 1_555
H13A C19A 1_555 1_555
C20A C14A 1_555 1_555
C21A C18A 1_555 1_555
Cd1_2 O2 1_555 1_555
Cd1_3 O2A 1_555 1_555
Cd2A N3A 1_555 1_555
Cd2A_2 O1 1_555 1_555
Cd2A_3 O3 1_555 1_555
Cd2_2 O3 1_555 1_555
Cd2_3 O1A 1_555 1_555
Cd2A_4 O3A 1_555 1_555
N1A Cd1 1_555 1_555
N2A C3A 1_555 1_555
N3A C12A 1_555 1_555
N4A C5A 1_555 1_555
O1A C7A 1_555 1_555
O1A_2 Cd2 1_555 1_555
O1_2 Cd2A 1_555 1_555
O2A C7A 1_555 1_555
O2_2 Cd1 1_555 1_555
O2A_2 Cd1 1_555 1_555
O3A Cd2 1_555 1_555
O3_2 Cd2 1_555 1_555
O3_3 Cd2A 1_555 1_555
O3A_2 Cd2A 1_555 1_555
O4A C20A 1_555 1_555
O4_2 Cd2 1_555 1_555
O4A_2 Cd2A 1_555 1_555
O5A C21A 1_555 1_555
O5A_2 Cd2A 1_555 1_555
O6A C21A 1_555 1_555
O6A_2 Cd2A 1_555 1_555
O7A Cd1 1_555 1_555
C5 C6 1_555 1_555
C8 N2 1_555 1_555
C10 N1 1_555 1_555
C10 N2 1_555 1_555
C11 N4 1_555 1_555
C13 N3 1_555 1_555
C13 N4 1_555 1_555
C18 C19 1_555 1_555
Cd2 O5 1_555 1_555
Cd2 O6 1_555 1_555
O4 Cd2_2 1_555 1_555
C5A C6A 1_555 1_555
C8A N2A 1_555 1_555
C9A N1A 1_555 1_555
C10A N1A 1_555 1_555
C10A N2A 1_555 1_555
C11A N4A 1_555 1_555
C13A N3A 1_555 1_555
C13A N4A 1_555 1_555
C18A C19A 1_555 1_555
C20A O3A 1_555 1_555
Cd2A_3 O5A 1_555 1_555
Cd2A_3 O6A 1_555 1_555
Cd2A_4 O3_2 1_555 1_555
Cd2A_4 O4A 1_555 1_555

#END
