
#######################################################################
#
#                 Cambridge Crystallographic Data Centre
#                                CCDC 
#
#######################################################################
#
# If this CIF has been generated from an entry in the Cambridge 
# Structural Database, then it will include bibliographic, chemical, 
# crystal, experimental, refinement or atomic coordinate data resulting 
# from the CCDC's data processing and validation procedures.
#
#######################################################################

data_EMIDAG
_symmetry_cell_setting           monoclinic
_symmetry_space_group_name_H-M   'P 21/n'
_symmetry_Int_Tables_number      14
_space_group_name_Hall           '-P 2yn'
loop_
_symmetry_equiv_pos_site_id
_symmetry_equiv_pos_as_xyz
1 x,y,z
2 1/2-x,1/2+y,1/2-z
3 -x,-y,-z
4 1/2+x,1/2-y,1/2+z
_cell_length_a                   6.059(4)
_cell_length_b                   17.373(12)
_cell_length_c                   14.478(10)
_cell_angle_alpha                90
_cell_angle_beta                 90.0000(10)
_cell_angle_gamma                90
_cell_volume                     1524
loop_
_atom_site_label
_atom_site_type_symbol
_atom_site_fract_x
_atom_site_fract_y
_atom_site_fract_z
C1 C 0.0150(4) 0.02322(15) 0.35587(18)
C2 C -0.1794(4) 0.05058(16) 0.31763(18)
H1 H -0.2477 0.0244 0.2694
C3 C -0.2708(4) 0.11842(16) 0.35316(18)
C4 C -0.1750(5) 0.15720(15) 0.4256(2)
H2 H -0.2406 0.2011 0.4501
C5 C 0.0214(4) 0.12937(16) 0.46139(17)
C6 C 0.1166(4) 0.06249(16) 0.42727(18)
H3 H 0.2478 0.0442 0.4523
C7 C 0.1317(4) -0.04666(17) 0.31557(19)
C8 C -0.5954(4) 0.11524(18) 0.24643(18)
H4 H -0.5802 0.0658 0.2226
C9 C -0.7508(5) 0.16782(17) 0.2239(2)
H5 H -0.8615 0.1602 0.1804
C10 C -0.5466(5) 0.22193(17) 0.32572(19)
H6 H -0.4860 0.2577 0.3662
C11 C 0.1007(5) 0.24664(18) 0.5571(2)
H7 H 0.0038 0.2814 0.5299
C12 C 0.2381(5) 0.26049(18) 0.6273(2)
H8 H 0.2528 0.3074 0.6575
C13 C 0.2851(5) 0.14249(17) 0.5905(2)
H9 H 0.3357 0.0920 0.5891
C14 C 0.8440(5) -0.04335(17) 0.05037(18)
C15 C 0.8208(5) 0.03574(18) 0.0410(2)
H10 H 0.7019 0.0606 0.0685
C16 C 1.0261(6) -0.07821(18) 0.0093(2)
H11 H 1.0458 -0.1310 0.0157
C17 C 0.6806(5) -0.08901(17) 0.10812(18)
Cd1 Cd 0.40463(3) -0.154000(11) 0.239300(12)
N1 N -0.7218(4) 0.23443(13) 0.27463(16)
N2 N -0.4649(4) 0.14994(12) 0.31182(16)
N3 N 0.3545(4) 0.19480(14) 0.64810(16)
N4 N 0.1303(4) 0.17126(14) 0.53309(15)
O1 O 0.3124(4) -0.06518(14) 0.35313(14)
O2 O 0.0555(3) -0.08063(14) 0.24842(14)
O3 O 0.5475(3) -0.05291(13) 0.15971(14)
O4 O 0.6815(4) -0.16133(11) 0.10428(15)
C1B C 1.9850(4) -0.02322(15) -0.35587(18)
C2B C 2.1794(4) -0.05058(16) -0.31763(18)
H1B H 2.2477 -0.0244 -0.2694
C3B C 2.2708(4) -0.11842(16) -0.35316(18)
C4B C 2.1750(5) -0.15720(15) -0.4256(2)
H2B H 2.2406 -0.2011 -0.4501
C5B C 1.9786(4) -0.12937(16) -0.46139(17)
C6B C 1.8834(4) -0.06249(16) -0.42727(18)
H3B H 1.7522 -0.0442 -0.4523
C7B C 1.8683(4) 0.04666(17) -0.31557(19)
C8B C 2.5954(4) -0.11524(18) -0.24643(18)
H4B H 2.5802 -0.0658 -0.2226
C9B C 2.7508(5) -0.16782(17) -0.2239(2)
H5B H 2.8615 -0.1602 -0.1804
C10B C 2.5466(5) -0.22193(17) -0.32572(19)
H6B H 2.4860 -0.2577 -0.3662
C11B C 1.8993(5) -0.24664(18) -0.5571(2)
H7B H 1.9962 -0.2814 -0.5299
C12B C 1.7619(5) -0.26049(18) -0.6273(2)
H8B H 1.7472 -0.3074 -0.6575
C13B C 1.7149(5) -0.14249(17) -0.5905(2)
H9B H 1.6643 -0.0920 -0.5891
C14B C 1.1560(5) 0.04335(17) -0.05037(18)
C15B C 1.1792(5) -0.03574(18) -0.0410(2)
H10B H 1.2981 -0.0606 -0.0685
C16B C 0.9739(6) 0.07821(18) -0.0093(2)
H11B H 0.9542 0.1310 -0.0157
C17B C 1.3194(5) 0.08901(17) -0.10812(18)
Cd1A Cd -0.90463(3) 0.346000(11) 0.260700(12)
Cd1B Cd 1.59537(3) 0.154000(11) -0.239300(12)
Cd1B_2 Cd 0.59537(3) 0.154000(11) 0.760700(12)
Cd1_2 Cd 1.40463(3) -0.154000(11) -0.760700(12)
Cd1C Cd 2.90463(3) -0.346000(11) -0.260700(12)
N1A N 0.2218(4) -0.26557(13) 0.22537(16)
N1C N 1.7782(4) 0.26557(13) -0.22537(16)
N1B N 2.7218(4) -0.23443(13) -0.27463(16)
N2B N 2.4649(4) -0.14994(12) -0.31182(16)
N3B N 0.6455(4) -0.19480(14) 0.35190(16)
N3_2 N 1.3545(4) 0.19480(14) -0.35190(16)
N3B_2 N 1.6455(4) -0.19480(14) -0.64810(16)
N4B N 1.8697(4) -0.17126(14) -0.53309(15)
O1B O 1.6876(4) 0.06518(14) -0.35313(14)
O2B O 1.9445(3) 0.08063(14) -0.24842(14)
O3B O 1.4525(3) 0.05291(13) -0.15971(14)
O4B O 1.3185(4) 0.16133(11) -0.10428(15)
loop_
_geom_bond_atom_site_label_1
_geom_bond_atom_site_label_2
_geom_bond_site_symmetry_1
_geom_bond_site_symmetry_2
C1 C2 1_555 1_555
C2 H1 1_555 1_555
C3 C2 1_555 1_555
C4 C3 1_555 1_555
H2 C4 1_555 1_555
C5 C4 1_555 1_555
C6 C1 1_555 1_555
H3 C6 1_555 1_555
C7 C1 1_555 1_555
C8 H4 1_555 1_555
C9 C8 1_555 1_555
H5 C9 1_555 1_555
C10 H6 1_555 1_555
C11 H7 1_555 1_555
C12 C11 1_555 1_555
H8 C12 1_555 1_555
C13 H9 1_555 1_555
C14 C15 1_555 1_555
C15 H10 1_555 1_555
C16 C14 1_555 1_555
H11 C16 1_555 1_555
C17 C14 1_555 1_555
Cd1 O1 1_555 1_555
N1 C9 1_555 1_555
N2 C3 1_555 1_555
N3 C12 1_555 1_555
N4 C5 1_555 1_555
O1 C7 1_555 1_555
O2 C7 1_555 1_555
O3 C17 1_555 1_555
O4 C17 1_555 1_555
C1B C2B 1_555 1_555
C2B H1B 1_555 1_555
C3B C2B 1_555 1_555
C4B C3B 1_555 1_555
H2B C4B 1_555 1_555
C5B C4B 1_555 1_555
C6B C1B 1_555 1_555
H3B C6B 1_555 1_555
C7B C1B 1_555 1_555
C8B H4B 1_555 1_555
C9B C8B 1_555 1_555
H5B C9B 1_555 1_555
C10B H6B 1_555 1_555
C11B H7B 1_555 1_555
C12B C11B 1_555 1_555
H8B C12B 1_555 1_555
C13B H9B 1_555 1_555
C14B C15B 1_555 1_555
C15B C16 1_555 1_555
H10B C15B 1_555 1_555
C16B C15 1_555 1_555
H11B C16B 1_555 1_555
C17B C14B 1_555 1_555
Cd1A N1 1_555 1_555
Cd1B N1C 1_555 1_555
Cd1B_2 N3 1_555 1_555
Cd1_2 N3B_2 1_555 1_555
Cd1C N1B 1_555 1_555
N1A Cd1 1_555 1_555
N1B C9B 1_555 1_555
N2B C3B 1_555 1_555
N3B Cd1 1_555 1_555
N3_2 Cd1B 1_555 1_555
N3B_2 C12B 1_555 1_555
N4B C5B 1_555 1_555
O1B C7B 1_555 1_555
O2B C7B 1_555 1_555
O3B C17B 1_555 1_555
O4B C17B 1_555 1_555
C5 C6 1_555 1_555
C8 N2 1_555 1_555
C10 N1 1_555 1_555
C10 N2 1_555 1_555
C11 N4 1_555 1_555
C13 N3 1_555 1_555
C13 N4 1_555 1_555
Cd1 O2 1_555 1_555
Cd1 O3 1_555 1_555
Cd1 O4 1_555 1_555
C5B C6B 1_555 1_555
C8B N2B 1_555 1_555
C10B N1B 1_555 1_555
C10B N2B 1_555 1_555
C11B N4B 1_555 1_555
C13B N3B_2 1_555 1_555
C13B N4B 1_555 1_555
C14B C16B 1_555 1_555
Cd1B O1B 1_555 1_555
Cd1B O2B 1_555 1_555
Cd1B O3B 1_555 1_555
Cd1B O4B 1_555 1_555

#END
