
#######################################################################
#
#                 Cambridge Crystallographic Data Centre
#                                CCDC 
#
#######################################################################
#
# If this CIF has been generated from an entry in the Cambridge 
# Structural Database, then it will include bibliographic, chemical, 
# crystal, experimental, refinement or atomic coordinate data resulting 
# from the CCDC's data processing and validation procedures.
#
#######################################################################

data_EMIFOW
_symmetry_cell_setting           orthorhombic
_symmetry_space_group_name_H-M   'P b c a'
_symmetry_Int_Tables_number      61
_space_group_name_Hall           '-P 2ac 2ab'
loop_
_symmetry_equiv_pos_site_id
_symmetry_equiv_pos_as_xyz
1 x,y,z
2 1/2-x,-y,1/2+z
3 -x,1/2+y,1/2-z
4 1/2+x,1/2-y,-z
5 -x,-y,-z
6 1/2+x,y,1/2-z
7 x,1/2-y,1/2+z
8 1/2-x,1/2+y,z
_cell_length_a                   22.5121(6)
_cell_length_b                   22.6610(6)
_cell_length_c                   33.3409(10)
_cell_angle_alpha                90
_cell_angle_beta                 90
_cell_angle_gamma                90
_cell_volume                     17008.8
loop_
_atom_site_label
_atom_site_type_symbol
_atom_site_fract_x
_atom_site_fract_y
_atom_site_fract_z
In1 In -0.08639(5) 0.30102(5) 0.25550(4)
In2 In -0.17794(5) 0.23196(5) 0.33533(3)
In3 In -0.01599(5) 0.31012(5) 0.35687(4)
In4 In -0.02379(5) 0.15883(5) 0.29199(3)
In5 In -0.24730(5) 0.15495(6) 0.42251(4)
In6 In -0.10794(5) 0.23307(5) 0.44854(3)
In7 In 0.04184(5) 0.30150(6) 0.46103(4)
In8 In -0.11473(5) 0.07841(5) 0.38281(3)
In9 In 0.04437(5) 0.15772(5) 0.40710(4)
In10 In 0.03172(6) 0.02362(6) 0.34507(4)
S1 S -0.18898(19) 0.2887(2) 0.27467(14)
S2 S -0.0232(2) 0.3646(2) 0.29535(14)
S3 S -0.0358(2) 0.2137(2) 0.23043(13)
S4 S -0.27447(18) 0.2097(2) 0.36252(14)
S5 S -0.11752(18) 0.29033(19) 0.38451(13)
S6 S 0.0418(2) 0.3674(2) 0.40371(15)
S7 S -0.12550(18) 0.13698(18) 0.31970(12)
S8 S 0.03558(18) 0.21470(19) 0.34316(13)
S9 S 0.0305(2) 0.0695(2) 0.27939(14)
S10 S -0.2050(2) 0.2144(2) 0.47541(14)
S11 S -0.0512(2) 0.2898(2) 0.49613(14)
S12 S -0.2102(2) 0.0565(2) 0.41134(14)
S13 S -0.05716(19) 0.13689(19) 0.43366(13)
S14 S 0.1027(2) 0.2141(2) 0.45404(15)
S15 S -0.0645(2) -0.0130(2) 0.36723(14)
S16 S 0.0955(2) 0.0660(2) 0.39586(15)
N1 N -0.4061(6) 0.1525(6) 0.4937(5)
N2 N -0.3317(6) 0.1379(7) 0.4512(4)
N3 N -0.0979(7) 0.3617(6) 0.2052(4)
N4 N -0.0787(6) 0.4423(6) 0.1703(4)
C1 C -0.3710(12) 0.0921(12) 0.4490(8)
H1 H -0.3671 0.0593 0.4314
C2 C -0.1467(9) 0.3758(9) 0.1848(6)
H2 H -0.1830 0.3543 0.1849
C3 C -0.4171(12) 0.0997(12) 0.4759(8)
H3 H -0.4494 0.0738 0.4809
C4 C -0.3563(7) 0.1727(8) 0.4771(6)
H4 H -0.3400 0.2100 0.4838
C5 C -0.1358(9) 0.4257(10) 0.1639(7)
H5 H -0.1636 0.4459 0.1475
C6 C -0.0593(8) 0.4035(9) 0.1964(5)
H6 H -0.0208 0.4054 0.2080
In7C In -0.45816(5) 0.19850(6) 0.53897(4)
In10B In -0.03172(6) 0.52362(6) 0.15493(4)
N1C N 0.0939(6) 0.3475(6) 0.5063(5)
N4B N 0.0787(6) -0.0577(6) 0.3297(4)
N5 N -0.1432(15) 0.8879(15) 0.2267(11)
N6 N -0.1180(19) 0.951(2) 0.2718(13)
C7 C -0.183(3) 0.844(3) 0.2111(16)
C8 C -0.1476(17) 0.7921(18) 0.2208(12)
C9 C -0.1377(16) 0.7702(16) 0.2645(12)
C10 C -0.1145(18) 0.813(2) 0.2924(13)
C11 C -0.149(2) 0.858(2) 0.3055(15)
C12 C -0.133(2) 0.899(3) 0.2708(18)
C13 C -0.1124(17) 1.0017(19) 0.2496(14)
C14 C -0.104(2) 0.994(3) 0.2088(19)
C15 C -0.1456(17) 0.9283(18) 0.1885(12)
N7 N -0.408(2) 0.186(3) 0.9293(17)
N8 N -0.3797(18) 0.0867(17) 0.9674(11)
C16 C -0.439(2) 0.232(2) 0.9089(15)
C17 C -0.4859(17) 0.1992(16) 0.8838(11)
C18 C -0.5456(18) 0.1720(18) 0.9070(12)
C19 C -0.5303(18) 0.1235(19) 0.9395(13)
C20 C -0.4779(15) 0.1287(13) 0.9654(9)
C21 C -0.4176(16) 0.1391(17) 0.9544(11)
C22 C -0.308(4) 0.093(3) 0.974(2)
C23 C -0.293(2) 0.138(2) 0.9286(16)
C24 C -0.3413(19) 0.1845(18) 0.9128(12)
N9? N -0.261(4) 0.166(4) 0.142(3)
N10? N -0.1913(18) 0.1523(18) 0.2033(13)
N11? N -0.8833(16) 0.0445(16) 0.1773(10)
N12? N -0.967(3) 0.037(3) 0.116(2)
C25? C -0.247(3) 0.160(3) 0.075(2)
C26? C -0.266(3) -0.073(3) 0.054(2)
C27? C -0.260(3) 0.219(3) 0.100(2)
C28? C -0.171(3) 0.196(3) 0.080(2)
C29? C -0.145(2) 0.207(2) 0.1328(18)
C30? C -0.202(2) 0.182(2) 0.1678(17)
C31? C -0.254(3) 0.133(3) 0.2259(16)
C32? C -0.302(3) 0.105(3) 0.196(3)
C33? C -0.300(2) 0.130(2) 0.1620(18)
C34? C -0.828(4) -0.010(4) 0.205(2)
C35? C -0.816(3) 0.067(3) 0.1932(18)
C36? C -0.788(4) -0.030(4) 0.186(3)
C37? C -0.819(3) -0.054(3) 0.133(2)
C38? C -0.897(4) -0.019(4) 0.146(2)
C39? C -0.952(4) 0.029(4) 0.158(3)
C40? C -0.984(2) 0.101(2) 0.1466(14)
C41? C -0.929(2) 0.140(2) 0.1522(16)
C42? C -0.8971(19) 0.113(2) 0.1847(14)
loop_
_geom_bond_atom_site_label_1
_geom_bond_atom_site_label_2
_geom_bond_site_symmetry_1
_geom_bond_site_symmetry_2
In1 S1 1_555 1_555
In2 S1 1_555 1_555
In3 S2 1_555 1_555
In4 S3 1_555 1_555
In5 S4 1_555 1_555
In6 S5 1_555 1_555
In7 S6 1_555 1_555
In8 S7 1_555 1_555
In9 S8 1_555 1_555
In10 S9 1_555 1_555
S2 In1 1_555 1_555
S3 In1 1_555 1_555
S4 In2 1_555 1_555
S5 In2 1_555 1_555
S6 In3 1_555 1_555
S7 In2 1_555 1_555
S8 In3 1_555 1_555
S9 In4 1_555 1_555
S10 In5 1_555 1_555
S11 In6 1_555 1_555
S12 In5 1_555 1_555
S13 In6 1_555 1_555
S14 In7 1_555 1_555
S15 In8 1_555 1_555
S16 In9 1_555 1_555
N1 C3 1_555 1_555
N2 In5 1_555 1_555
N3 In1 1_555 1_555
N4 C5 1_555 1_555
N5 C7 1_555 1_555
N6 C12 1_555 1_555
N7 C16 1_555 1_555
N8 C21 1_555 1_555
C1 N2 1_555 1_555
H1 C1 1_555 1_555
C2 N3 1_555 1_555
H2 C2 1_555 1_555
C3 C1 1_555 1_555
H3 C3 1_555 1_555
C4 N1 1_555 1_555
H4 C4 1_555 1_555
C5 C2 1_555 1_555
H5 C5 1_555 1_555
C6 N3 1_555 1_555
H6 C6 1_555 1_555
C7 C8 1_555 1_555
C8 C9 1_555 1_555
C9 C10 1_555 1_555
C10 C11 1_555 1_555
C11 C12 1_555 1_555
C12 N5 1_555 1_555
C13 N6 1_555 1_555
C14 C13 1_555 1_555
C15 N5 1_555 1_555
C16 C17 1_555 1_555
C17 C18 1_555 1_555
C18 C19 1_555 1_555
C19 C20 1_555 1_555
C20 C21 1_555 1_555
C21 N7 1_555 1_555
C22 N8 1_555 1_555
C23 C22 1_555 1_555
C24 N7 1_555 1_555
In7C N1 1_555 1_555
In10B N4 1_555 1_555
N1C In7 1_555 1_555
N4B In10 1_555 1_555
In3 S5 1_555 1_555
In4 S7 1_555 1_555
In4 S8 1_555 1_555
In6 S10 1_555 1_555
In7 S11 1_555 1_555
In8 S12 1_555 1_555
In8 S13 1_555 1_555
In9 S13 1_555 1_555
In9 S14 1_555 1_555
In10 S15 1_555 1_555
In10 S16 1_555 1_555
N2 C4 1_555 1_555
N4 C6 1_555 1_555
C14 C15 1_555 1_555
C23 C24 1_555 1_555

#END
