
#######################################################################
#
#                 Cambridge Crystallographic Data Centre
#                                CCDC 
#
#######################################################################
#
# If this CIF has been generated from an entry in the Cambridge 
# Structural Database, then it will include bibliographic, chemical, 
# crystal, experimental, refinement or atomic coordinate data resulting 
# from the CCDC's data processing and validation procedures.
#
#######################################################################

data_EMIHIS
_symmetry_cell_setting           orthorhombic
_symmetry_space_group_name_H-M   'P b c a'
_symmetry_Int_Tables_number      61
_space_group_name_Hall           '-P 2ac 2ab'
loop_
_symmetry_equiv_pos_site_id
_symmetry_equiv_pos_as_xyz
1 x,y,z
2 1/2-x,-y,1/2+z
3 1/2+x,1/2-y,-z
4 -x,1/2+y,1/2-z
5 -x,-y,-z
6 1/2+x,y,1/2-z
7 1/2-x,1/2+y,z
8 x,1/2-y,1/2+z
_cell_length_a                   25.7722(10)
_cell_length_b                   25.6993(11)
_cell_length_c                   48.340(2)
_cell_angle_alpha                90
_cell_angle_beta                 90
_cell_angle_gamma                90
_cell_volume                     32016.9
loop_
_atom_site_label
_atom_site_type_symbol
_atom_site_fract_x
_atom_site_fract_y
_atom_site_fract_z
Cd1 Cd 0.91493(19) 0.2825(2) 0.10626(11)
Cd2 Cd 0.9181(3) 0.1578(3) 0.15548(16)
Cd3 Cd 1.03875(19) 0.2563(2) 0.15429(10)
Cd4 Cd 1.0103(2) 0.1640(2) 0.08883(13)
S1 S 1.2276(7) 0.3556(9) -0.0791(5)
S2 S 1.3261(8) 0.4789(9) -0.0641(5)
S3 S 1.3232(9) 0.3484(8) -0.0120(4)
S4 S 0.7520(7) 0.2341(8) 0.1435(4)
S5 S 0.8497(7) 0.1153(7) 0.1285(4)
S6 S 0.8463(7) 0.2446(7) 0.0771(3)
S7 S 0.9470(8) -0.0028(7) 0.1122(4)
S8 S 0.9448(7) 0.1203(7) 0.0604(3)
S9 S 0.9402(7) 0.2507(8) 0.0118(3)
S10 S 0.7748(8) 0.3226(8) 0.2074(4)
S11 S 0.8742(7) 0.2058(8) 0.1923(4)
S12 S 0.8725(6) 0.3354(6) 0.1418(3)
S13 S 0.9710(6) 0.0886(7) 0.1775(3)
S14 S 0.9708(6) 0.2151(6) 0.1265(3)
S15 S 0.9666(6) 0.3438(7) 0.0773(3)
S16 S 1.0666(9) -0.0260(8) 0.1600(4)
S17 S 1.0676(7) 0.0975(7) 0.1084(3)
S18 S 1.0640(6) 0.2195(7) 0.0581(3)
S19 S 1.0551(8) 0.3496(8) 0.0112(4)
S20 S 0.9055(8) 0.2949(9) 0.2578(4)
S21 S 0.9000(8) 0.4236(8) 0.2067(4)
S22 S 1.0020(8) 0.1846(8) 0.2411(4)
S23 S 0.9999(6) 0.3073(7) 0.1921(4)
S24 S 0.9972(7) 0.4308(8) 0.1437(4)
S25 S 1.0995(8) 0.0687(9) 0.2248(4)
S26 S 1.0969(6) 0.1911(7) 0.1756(3)
S27 S 1.0948(6) 0.3122(7) 0.1256(3)
S28 S 1.0896(7) 0.4390(8) 0.0797(4)
S29 S 1.1934(7) 0.0719(8) 0.1550(4)
S30 S 1.1883(7) 0.1955(8) 0.1077(4)
S31 S 1.1822(8) 0.3164(8) 0.0573(4)
In1 In 1.2814(2) 0.4045(2) -0.04592(13)
In2 In 0.7958(2) 0.1841(2) 0.10745(11)
In3 In 0.8927(2) 0.0648(2) 0.09075(11)
In4 In 0.8904(2) 0.1918(2) 0.04053(11)
In5 In 0.8201(2) 0.2732(2) 0.17117(11)
In6 In 1.0122(2) 0.0416(2) 0.13899(11)
In7 In 1.00620(19) 0.2891(2) 0.03969(10)
In8 In 0.8512(2) 0.3562(2) 0.23086(12)
In9 In 0.9448(2) 0.2479(2) 0.22006(10)
In10 In 0.94251(19) 0.3740(2) 0.17059(10)
In11 In 1.04042(19) 0.1340(2) 0.20409(10)
In12 In 1.03614(18) 0.3818(2) 0.10688(10)
In13 In 1.1308(2) 0.0274(2) 0.18340(12)
In14 In 1.13505(19) 0.1396(2) 0.13592(11)
In15 In 1.13053(19) 0.2601(2) 0.08680(10)
In16 In 1.1187(2) 0.3807(2) 0.04422(11)
N1 N 1.225(2) 0.434(3) -0.0160(13)
N2 N 1.172(2) 0.430(3) 0.0157(11)
N3 N 1.183(2) -0.093(3) 0.2391(11)
N4 N 1.172(3) -0.033(3) 0.2053(13)
C1 C 1.207(3) 0.408(3) 0.0037(17)
H1 H 1.2186 0.3743 0.0086
C2 C 1.202(3) 0.479(3) -0.0142(15)
C3 C 1.199(3) 0.530(3) -0.0294(14)
H2 H 1.2218 0.5361 -0.0446
C4 C 1.163(3) 0.569(3) -0.0211(17)
C5 C 1.127(5) 0.549(5) 0.003(3)
C6 C 1.124(4) 0.508(4) 0.013(2)
H3 H 1.0972 0.5001 0.0253
C7 C 1.156(4) 0.477(4) 0.005(2)
C8 C 1.170(4) 0.621(3) -0.0355(19)
H4 H 1.2065 0.6294 -0.0372
H5 H 1.1523 0.6484 -0.0247
H6 H 1.1539 0.6194 -0.0540
C9 C 1.091(4) 0.600(4) 0.006(2)
H7 H 1.0579 0.5947 -0.0034
H8 H 1.1086 0.6306 -0.0018
H9 H 1.0840 0.6071 0.0259
C10 C 1.159(3) -0.055(3) 0.2249(18)
H10 H 1.1264 -0.0441 0.2321
C11 C 1.221(3) -0.091(3) 0.2235(17)
C12 C 1.265(3) -0.127(3) 0.2254(17)
H11 H 1.2679 -0.1520 0.2399
C13 C 1.312(3) -0.123(3) 0.2011(18)
C14 C 1.322(6) -0.068(5) 0.187(3)
C15 C 1.261(5) -0.043(4) 0.184(2)
H12 H 1.2548 -0.0207 0.1685
C16 C 1.218(4) -0.054(3) 0.2027(18)
C17 C 1.365(4) -0.157(4) 0.200(2)
H13 H 1.3945 -0.1334 0.1963
H14 H 1.3626 -0.1824 0.1850
H15 H 1.3703 -0.1745 0.2176
C18 C 1.365(4) -0.076(4) 0.172(2)
H16 H 1.3785 -0.0426 0.1650
H17 H 1.3563 -0.0981 0.1557
H18 H 1.3917 -0.0935 0.1828
S1B S 0.7276(7) 0.1444(9) 0.0791(5)
S2B S 0.8261(8) 0.0211(9) 0.0641(5)
S3B S 0.8232(9) 0.1516(8) 0.0120(4)
In2B In 1.2958(2) 0.3159(2) -0.10745(11)
In3B In 1.3927(2) 0.4352(2) -0.09075(11)
In4B In 1.3904(2) 0.3082(2) -0.04053(11)
In8C In 1.1488(2) -0.1438(2) 0.26914(12)
N3C N 0.817(2) 0.407(3) 0.2609(11)
loop_
_geom_bond_atom_site_label_1
_geom_bond_atom_site_label_2
_geom_bond_site_symmetry_1
_geom_bond_site_symmetry_2
Cd1 S6 1_555 1_555
Cd2 S5 1_555 1_555
Cd3 S14 1_555 1_555
Cd4 S8 1_555 1_555
S1 In1 1_555 1_555
S2 In1 1_555 1_555
S3 In1 1_555 1_555
S4 In2 1_555 1_555
S5 In2 1_555 1_555
S6 In2 1_555 1_555
S7 In3 1_555 1_555
S8 In3 1_555 1_555
S9 In4 1_555 1_555
S10 In5 1_555 1_555
S11 Cd2 1_555 1_555
S12 Cd1 1_555 1_555
S13 Cd2 1_555 1_555
S14 Cd1 1_555 1_555
S15 Cd1 1_555 1_555
S16 In6 1_555 1_555
S17 Cd4 1_555 1_555
S18 Cd4 1_555 1_555
S19 In7 1_555 1_555
S20 In8 1_555 1_555
S21 In8 1_555 1_555
S22 In9 1_555 1_555
S23 Cd3 1_555 1_555
S24 In10 1_555 1_555
S25 In11 1_555 1_555
S26 Cd3 1_555 1_555
S27 Cd3 1_555 1_555
S28 In12 1_555 1_555
S29 In13 1_555 1_555
S30 In14 1_555 1_555
S31 In15 1_555 1_555
In1 N1 1_555 1_555
In2 S1B 1_555 1_555
In3 S5 1_555 1_555
In4 S6 1_555 1_555
In5 S4 1_555 1_555
In6 S7 1_555 1_555
In7 S9 1_555 1_555
In8 S10 1_555 1_555
In9 S11 1_555 1_555
In10 S12 1_555 1_555
In11 S13 1_555 1_555
In12 S15 1_555 1_555
In13 S16 1_555 1_555
In14 S17 1_555 1_555
In15 S18 1_555 1_555
In16 S19 1_555 1_555
N1 C1 1_555 1_555
N2 In16 1_555 1_555
N3 C10 1_555 1_555
N4 In13 1_555 1_555
C1 N2 1_555 1_555
H1 C1 1_555 1_555
C2 N1 1_555 1_555
C3 C2 1_555 1_555
H2 C3 1_555 1_555
C4 C3 1_555 1_555
C5 C4 1_555 1_555
C6 C5 1_555 1_555
H3 C6 1_555 1_555
C7 N2 1_555 1_555
C8 C4 1_555 1_555
H4 C8 1_555 1_555
H5 C8 1_555 1_555
H6 C8 1_555 1_555
C9 C5 1_555 1_555
H7 C9 1_555 1_555
H8 C9 1_555 1_555
H9 C9 1_555 1_555
C10 N4 1_555 1_555
H10 C10 1_555 1_555
C11 N3 1_555 1_555
C12 C11 1_555 1_555
H11 C12 1_555 1_555
C13 C12 1_555 1_555
C14 C13 1_555 1_555
C15 C14 1_555 1_555
H12 C15 1_555 1_555
C16 N4 1_555 1_555
C17 C13 1_555 1_555
H13 C17 1_555 1_555
H14 C17 1_555 1_555
H15 C17 1_555 1_555
C18 C14 1_555 1_555
H16 C18 1_555 1_555
H17 C18 1_555 1_555
H18 C18 1_555 1_555
S2B In3 1_555 1_555
S3B In4 1_555 1_555
In2B S1 1_555 1_555
In3B S2 1_555 1_555
In4B S3 1_555 1_555
In8C N3 1_555 1_555
N3C In8 1_555 1_555
Cd2 S14 1_555 1_555
Cd4 S14 1_555 1_555
S8 In4 1_555 1_555
S11 In5 1_555 1_555
S12 In5 1_555 1_555
S13 In6 1_555 1_555
S15 In7 1_555 1_555
S17 In6 1_555 1_555
S18 In7 1_555 1_555
S20 In9 1_555 1_555
S21 In10 1_555 1_555
S22 In11 1_555 1_555
S23 In9 1_555 1_555
S23 In10 1_555 1_555
S24 In12 1_555 1_555
S25 In13 1_555 1_555
S26 In11 1_555 1_555
S26 In14 1_555 1_555
S27 In12 1_555 1_555
S27 In15 1_555 1_555
S28 In16 1_555 1_555
S29 In14 1_555 1_555
S30 In15 1_555 1_555
S31 In16 1_555 1_555
C2 C7 1_555 1_555
C6 C7 1_555 1_555
C11 C16 1_555 1_555
C15 C16 1_555 1_555

#END
