
#######################################################################
#
#                 Cambridge Crystallographic Data Centre
#                                CCDC 
#
#######################################################################
#
# If this CIF has been generated from an entry in the Cambridge 
# Structural Database, then it will include bibliographic, chemical, 
# crystal, experimental, refinement or atomic coordinate data resulting 
# from the CCDC's data processing and validation procedures.
#
#######################################################################

data_EMIHAK
_symmetry_cell_setting           orthorhombic
_symmetry_space_group_name_H-M   'P b c a'
_symmetry_Int_Tables_number      61
_space_group_name_Hall           '-P 2ac 2ab'
loop_
_symmetry_equiv_pos_site_id
_symmetry_equiv_pos_as_xyz
1 x,y,z
2 1/2-x,-y,1/2+z
3 -x,1/2+y,1/2-z
4 1/2+x,1/2-y,-z
5 -x,-y,-z
6 1/2+x,y,1/2-z
7 x,1/2-y,1/2+z
8 1/2-x,1/2+y,z
_cell_length_a                   22.5220(3)
_cell_length_b                   22.4835(4)
_cell_length_c                   34.4841(5)
_cell_angle_alpha                90
_cell_angle_beta                 90
_cell_angle_gamma                90
_cell_volume                     17461.8
loop_
_atom_site_label
_atom_site_type_symbol
_atom_site_fract_x
_atom_site_fract_y
_atom_site_fract_z
N5 N 0.7335(16) 0.9420(17) 0.1871(12)
C19 C 0.742(3) 1.008(3) 0.1722(17)
C20 C 0.709(3) 1.059(3) 0.199(2)
C21 C 0.6999(19) 1.039(2) 0.2422(13)
C22 C 0.7115(12) 0.9746(13) 0.2521(9)
C23 C 0.6995(17) 0.9584(17) 0.2928(11)
C24 C 0.748(2) 0.940(2) 0.3179(14)
C25 C 0.757(2) 0.871(3) 0.3126(16)
C26 C 0.785(2) 0.8640(19) 0.2698(14)
C27 C 0.733(2) 0.869(2) 0.2446(14)
C28 C 0.7238(16) 0.9269(18) 0.2276(12)
N6 N 0.8660(13) 0.0790(13) 0.3048(8)
C29 C 0.9039(17) 0.0162(18) 0.2979(11)
C30 C 0.8896(15) 0.0015(16) 0.2498(10)
C31 C 0.9013(10) 0.0443(12) 0.2241(7)
C32 C 0.8970(13) 0.1003(14) 0.2346(9)
C33 C 0.9138(15) 0.1452(15) 0.2041(10)
C34 C 0.8637(16) 0.1780(16) 0.1949(10)
C35 C 0.8532(16) 0.2325(17) 0.2212(11)
C36 C 0.8353(16) 0.2096(16) 0.2597(11)
C37 C 0.888(2) 0.178(2) 0.2796(12)
C38 C 0.8820(10) 0.1165(11) 0.2704(7)
In1 In 0.45382(5) 0.47877(5) 0.15901(3)
In2 In 0.59711(5) 0.42688(5) 0.11528(3)
In3 In 0.51672(4) 0.34259(5) 0.20648(3)
In4 In 0.43519(5) 0.34232(5) 0.09974(3)
In5 In 0.72788(5) 0.35454(6) 0.06955(3)
In6 In 0.66824(4) 0.27368(5) 0.15702(3)
In7 In 0.58662(5) 0.27439(5) 0.05099(3)
In8 In 0.58858(5) 0.19972(5) 0.23675(3)
In9 In 0.50810(5) 0.18972(5) 0.14220(3)
In10 In 0.43832(5) 0.20020(5) 0.04408(3)
S1 S 0.5469(2) 0.51708(19) 0.13303(14)
S2 S 0.4650(2) 0.4331(2) 0.22247(12)
S3 S 0.38390(18) 0.4328(2) 0.11552(13)
S4 S 0.6901(2) 0.4519(2) 0.08455(15)
S5 S 0.61467(16) 0.36772(17) 0.17547(11)
S6 S 0.53398(17) 0.36780(19) 0.06965(11)
S7 S 0.5362(2) 0.2842(2) 0.26369(12)
S8 S 0.45448(16) 0.28389(18) 0.16005(11)
S9 S 0.37750(19) 0.2882(2) 0.05268(13)
S10 S 0.76114(18) 0.3021(2) 0.12747(14)
S11 S 0.6799(2) 0.2970(3) 0.01988(13)
S12 S 0.68880(18) 0.2168(2) 0.21448(13)
S13 S 0.60569(17) 0.21487(18) 0.11123(11)
S14 S 0.5292(2) 0.2141(2) 0.00773(13)
S15 S 0.5299(2) 0.13059(19) 0.19855(12)
S16 S 0.4412(2) 0.1368(2) 0.10046(12)
N1 N 0.4095(5) 0.5613(6) 0.1760(4)
N2 N 0.3958(6) 0.6426(6) 0.2131(4)
N3 N 0.8110(5) 0.3692(6) 0.0390(4)
N4 N 0.8868(5) 0.3487(6) -0.0009(4)
C1 C 0.4255(7) 0.5921(7) 0.2066(4)
H1 H 0.4566 0.5792 0.2233
C2 C 0.3642(7) 0.5958(7) 0.1602(4)
C3 C 0.3267(8) 0.5858(8) 0.1271(5)
H2 H 0.3309 0.5511 0.1116
C4 C 0.2856(8) 0.6269(9) 0.1187(5)
C5 C 0.2754(8) 0.6768(8) 0.1427(6)
C6 C 0.3123(8) 0.6851(7) 0.1746(5)
H3 H 0.3071 0.7192 0.1905
C7 C 0.3567(7) 0.6444(7) 0.1835(4)
C8 C 0.2448(11) 0.6194(11) 0.0828(6)
H4 H 0.2686 0.6063 0.0606
H5 H 0.2258 0.6575 0.0768
H6 H 0.2142 0.5896 0.0884
C9 C 0.2285(11) 0.7216(10) 0.1321(8)
H7 H 0.2378 0.7388 0.1067
H8 H 0.2275 0.7532 0.1516
H9 H 0.1897 0.7019 0.1310
C10 C 0.8311(7) 0.3375(7) 0.0098(4)
H10 H 0.8074 0.3084 -0.0029
C11 C 0.8589(8) 0.4035(9) 0.0484(5)
C12 C 0.8635(11) 0.4503(12) 0.0754(8)
H11 H 0.8300 0.4629 0.0899
C13 C 0.9177(14) 0.4772(18) 0.0801(12)
C14 C 0.9656(11) 0.4609(14) 0.0563(9)
C15 C 0.9594(9) 0.4170(9) 0.0289(7)
H12 H 0.9920 0.4057 0.0131
C16 C 0.9064(7) 0.3906(8) 0.0249(5)
C17 C 1.0283(12) 0.483(3) 0.070(2)
H13 H 1.0379 0.5208 0.0579
H14 H 1.0584 0.4532 0.0637
H15 H 1.0276 0.4884 0.0987
C18 C 0.927(2) 0.530(3) 0.1092(17)
H16 H 0.9668 0.5276 0.1202
H17 H 0.8974 0.5268 0.1301
H18 H 0.9218 0.5676 0.0956
In8B In 0.41142(5) 0.69972(5) 0.26325(3)
In10C In 0.93832(5) 0.29980(5) -0.04408(3)
N2B N 0.6042(6) 0.1426(6) 0.2869(4)
N4C N 0.3868(5) 0.1513(6) 0.0009(4)
loop_
_geom_bond_atom_site_label_1
_geom_bond_atom_site_label_2
_geom_bond_site_symmetry_1
_geom_bond_site_symmetry_2
In1 S1 1_555 1_555
In2 S1 1_555 1_555
In3 S2 1_555 1_555
In4 S3 1_555 1_555
In5 S4 1_555 1_555
In6 S5 1_555 1_555
In7 S6 1_555 1_555
In8 S7 1_555 1_555
In9 S8 1_555 1_555
In10 S9 1_555 1_555
S2 In1 1_555 1_555
S3 In1 1_555 1_555
S4 In2 1_555 1_555
S5 In2 1_555 1_555
S6 In2 1_555 1_555
S7 In3 1_555 1_555
S8 In3 1_555 1_555
S9 In4 1_555 1_555
S10 In5 1_555 1_555
S11 In5 1_555 1_555
S12 In6 1_555 1_555
S13 In6 1_555 1_555
S14 In7 1_555 1_555
S15 In8 1_555 1_555
S16 In9 1_555 1_555
N1 In1 1_555 1_555
N2 C1 1_555 1_555
N3 In5 1_555 1_555
N4 C10 1_555 1_555
N5 C19 1_555 1_555
N6 C29 1_555 1_555
C1 N1 1_555 1_555
H1 C1 1_555 1_555
C2 N1 1_555 1_555
C3 C2 1_555 1_555
H2 C3 1_555 1_555
C4 C3 1_555 1_555
C5 C4 1_555 1_555
C6 C5 1_555 1_555
H3 C6 1_555 1_555
C7 N2 1_555 1_555
C8 C4 1_555 1_555
H4 C8 1_555 1_555
H5 C8 1_555 1_555
H6 C8 1_555 1_555
C9 C5 1_555 1_555
H7 C9 1_555 1_555
H8 C9 1_555 1_555
H9 C9 1_555 1_555
C10 N3 1_555 1_555
H10 C10 1_555 1_555
C11 N3 1_555 1_555
C12 C11 1_555 1_555
H11 C12 1_555 1_555
C13 C12 1_555 1_555
C14 C13 1_555 1_555
C15 C14 1_555 1_555
H12 C15 1_555 1_555
C16 N4 1_555 1_555
C17 C14 1_555 1_555
H13 C17 1_555 1_555
H14 C17 1_555 1_555
H15 C17 1_555 1_555
C18 C13 1_555 1_555
H16 C18 1_555 1_555
H17 C18 1_555 1_555
H18 C18 1_555 1_555
C19 C20 1_555 1_555
C20 C21 1_555 1_555
C21 C22 1_555 1_555
C22 C23 1_555 1_555
C23 C24 1_555 1_555
C24 C25 1_555 1_555
C25 C26 1_555 1_555
C26 C27 1_555 1_555
C27 C28 1_555 1_555
C28 N5 1_555 1_555
C29 C30 1_555 1_555
C30 C31 1_555 1_555
C31 C32 1_555 1_555
C32 C33 1_555 1_555
C33 C34 1_555 1_555
C34 C35 1_555 1_555
C35 C36 1_555 1_555
C36 C37 1_555 1_555
C37 C38 1_555 1_555
C38 N6 1_555 1_555
In8B N2 1_555 1_555
In10C N4 1_555 1_555
N2B In8 1_555 1_555
N4C In10 1_555 1_555
In3 S5 1_555 1_555
In4 S6 1_555 1_555
In4 S8 1_555 1_555
In6 S10 1_555 1_555
In7 S11 1_555 1_555
In7 S13 1_555 1_555
In8 S12 1_555 1_555
In9 S13 1_555 1_555
In9 S15 1_555 1_555
In10 S14 1_555 1_555
In10 S16 1_555 1_555
C2 C7 1_555 1_555
C6 C7 1_555 1_555
C11 C16 1_555 1_555
C15 C16 1_555 1_555
C22 C28 1_555 1_555
C32 C38 1_555 1_555

#END
