
#######################################################################
#
#                 Cambridge Crystallographic Data Centre
#                                CCDC 
#
#######################################################################
#
# If this CIF has been generated from an entry in the Cambridge 
# Structural Database, then it will include bibliographic, chemical, 
# crystal, experimental, refinement or atomic coordinate data resulting 
# from the CCDC's data processing and validation procedures.
#
#######################################################################

data_EMIKOB
_symmetry_cell_setting           triclinic
_symmetry_space_group_name_H-M   'P -1'
_symmetry_Int_Tables_number      2
_space_group_name_Hall           '-P 1'
loop_
_symmetry_equiv_pos_site_id
_symmetry_equiv_pos_as_xyz
1 x,y,z
2 -x,-y,-z
_cell_length_a                   7.167(5)
_cell_length_b                   7.774(5)
_cell_length_c                   14.374(5)
_cell_angle_alpha                99.150(5)
_cell_angle_beta                 90.572(5)
_cell_angle_gamma                103.139(5)
_cell_volume                     769.089
loop_
_atom_site_label
_atom_site_type_symbol
_atom_site_fract_x
_atom_site_fract_y
_atom_site_fract_z
C1 C 0.4477(13) -0.1399(10) 0.1016(6)
O1 O 0.8249(4) 0.0897(4) 0.34314(19)
I1 I 0.02016(4) -0.78289(4) 0.10191(2)
Cu1 Cu 0.60760(6) 0.12199(6) 0.26783(3)
S1 S 0.22873(12) -0.13856(11) 0.37415(6)
C2 C 0.5737(5) -0.3011(5) 0.4351(3)
C3 C 0.5181(6) -0.4174(5) 0.0361(3)
O2 O 0.4041(4) -0.0012(3) 0.3733(2)
C4 C 0.3599(5) -0.6751(4) 0.2377(2)
O3 O 0.0737(4) -0.1197(4) 0.3133(2)
C5 C 0.7509(5) -0.5316(5) 0.4093(3)
O4 O 0.4101(4) -0.8172(3) 0.19707(19)
O5 O 0.1738(4) -0.1549(4) 0.4698(2)
C6 C 0.4782(5) -0.5622(4) 0.3153(2)
C7 C 0.1628(5) -0.4545(5) 0.2535(3)
C8 C 0.6504(7) -0.3848(6) 0.1086(3)
C9 C 0.4429(5) -0.3990(4) 0.3598(2)
N1 N 0.5807(5) -0.1056(4) 0.1715(2)
C10 C 0.2808(5) -0.3455(5) 0.3256(2)
C11 C 0.7263(5) -0.3672(5) 0.4582(3)
N2 N 0.6303(4) -0.6271(4) 0.3405(2)
C12 C 0.2009(5) -0.6182(5) 0.2110(3)
C13 C 0.6767(7) -0.2290(6) 0.1745(3)
C14 C 0.4318(17) -0.2787(12) 0.0266(7)
H1 H 0.851(6) -0.573(6) 0.424(3)
H2 H 0.552(6) -0.201(6) 0.462(3)
H3 H 0.067(7) -0.409(7) 0.238(3)
H4 H 0.819(8) -0.311(7) 0.499(4)
H5 H 0.730(10) -0.472(9) 0.119(5)
H6 H 0.758(12) -0.200(12) 0.225(6)
H7 H 0.413(11) -0.044(10) 0.082(5)
H8 H 0.367(6) -0.323(6) 0.061(3)
C1A C 0.5523(13) -0.8601(10) -0.1016(6)
O1A O 0.1751(4) -1.0897(4) -0.34314(19)
I1A I 0.97984(4) -0.21711(4) -0.10191(2)
Cu1A Cu 0.39240(6) -1.12199(6) -0.26783(3)
Cu1_2 Cu 0.60760(6) -0.87801(6) 0.26783(3)
Cu1A_2 Cu 0.39240(6) -0.12199(6) -0.26783(3)
S1A S 0.77127(12) -0.86144(11) -0.37415(6)
C2A C 0.4263(5) -0.6989(5) -0.4351(3)
C3A C 0.4819(6) -0.5826(5) -0.0361(3)
O2A O 0.5959(4) -0.9988(3) -0.3733(2)
C4A C 0.6401(5) -0.3249(4) -0.2377(2)
O3A O 0.9263(4) -0.8803(4) -0.3133(2)
C5A C 0.2491(5) -0.4684(5) -0.4093(3)
O4A O 0.5899(4) -1.1828(3) -0.19707(19)
O4_2 O 0.4101(4) 0.1828(3) 0.19707(19)
O4A_2 O 0.5899(4) -0.1828(3) -0.19707(19)
O5A O 0.8262(4) -0.8451(4) -0.4698(2)
C6A C 0.5218(5) -0.4378(4) -0.3153(2)
C7A C 0.8372(5) -0.5455(5) -0.2535(3)
C8A C 0.3496(7) -0.6152(6) -0.1086(3)
C9A C 0.5571(5) -0.6010(4) -0.3598(2)
N1A N 0.4193(5) -0.8944(4) -0.1715(2)
C10A C 0.7192(5) -0.6545(5) -0.3256(2)
C11A C 0.2737(5) -0.6328(5) -0.4582(3)
N2A N 0.3697(4) -1.3729(4) -0.3405(2)
N2_2 N 0.6303(4) 0.3729(4) 0.3405(2)
N2A_2 N 0.3697(4) -0.3729(4) -0.3405(2)
C12A C 0.7991(5) -0.3818(5) -0.2110(3)
C13A C 0.3233(7) -0.7710(6) -0.1745(3)
C14A C 0.5682(17) -0.7213(12) -0.0266(7)
H1A H 0.149(6) -0.427(6) -0.424(3)
H2A H 0.448(6) -0.799(6) -0.462(3)
H3A H 0.933(7) -0.591(7) -0.238(3)
H4A H 0.181(8) -0.689(7) -0.499(4)
H5A H 0.270(10) -0.528(9) -0.119(5)
H6A H 0.242(12) -0.800(12) -0.225(6)
H7A H 0.587(11) -0.956(10) -0.082(5)
H8A H 0.633(6) -0.677(6) -0.061(3)
loop_
_geom_bond_atom_site_label_1
_geom_bond_atom_site_label_2
_geom_bond_site_symmetry_1
_geom_bond_site_symmetry_2
C1 N1 1_555 1_555
O1 Cu1 1_555 1_555
I1 C12 1_555 1_555
Cu1 O2 1_555 1_555
S1 O2 1_555 1_555
C2 C9 1_555 1_555
C3 C8 1_555 1_555
C4 O4 1_555 1_555
O3 S1 1_555 1_555
C5 C11 1_555 1_555
O4 Cu1_2 1_555 1_555
O5 S1 1_555 1_555
C6 C4 1_555 1_555
C7 C10 1_555 1_555
C8 C13 1_555 1_555
C9 C6 1_555 1_555
N1 Cu1 1_555 1_555
C10 S1 1_555 1_555
C11 C2 1_555 1_555
N2 C5 1_555 1_555
C12 C4 1_555 1_555
C13 N1 1_555 1_555
C14 C1 1_555 1_555
H1 C5 1_555 1_555
H2 C2 1_555 1_555
H3 C7 1_555 1_555
H4 C11 1_555 1_555
H5 C8 1_555 1_555
H6 C13 1_555 1_555
H7 C1 1_555 1_555
H8 C14 1_555 1_555
C1A N1A 1_555 1_555
O1A Cu1A 1_555 1_555
I1A C12A 1_555 1_555
Cu1A O2A 1_555 1_555
Cu1_2 N2 1_555 1_555
Cu1A_2 O4A_2 1_555 1_555
S1A O2A 1_555 1_555
C2A C9A 1_555 1_555
C3A C3 1_555 1_555
C4A O4A_2 1_555 1_555
O3A S1A 1_555 1_555
C5A C11A 1_555 1_555
O4A Cu1A 1_555 1_555
O4_2 Cu1 1_555 1_555
O5A S1A 1_555 1_555
C6A C4A 1_555 1_555
C7A C10A 1_555 1_555
C8A C3A 1_555 1_555
C9A C6A 1_555 1_555
N1A Cu1A 1_555 1_555
C10A S1A 1_555 1_555
C11A C2A 1_555 1_555
N2A Cu1A 1_555 1_555
N2_2 Cu1 1_555 1_555
N2A_2 Cu1A_2 1_555 1_555
C12A C4A 1_555 1_555
C13A C8A 1_555 1_555
C14A C1A 1_555 1_555
H1A C5A 1_555 1_555
H2A C2A 1_555 1_555
H3A C7A 1_555 1_555
H4A C11A 1_555 1_555
H5A C8A 1_555 1_555
H6A C13A 1_555 1_555
H7A C1A 1_555 1_555
H8A C14A 1_555 1_555
C3 C14 1_555 1_555
C6 N2 1_555 1_555
C7 C12 1_555 1_555
C9 C10 1_555 1_555
C3A C14A 1_555 1_555
C5A N2A_2 1_555 1_555
C6A N2A_2 1_555 1_555
C7A C12A 1_555 1_555
C9A C10A 1_555 1_555
N1A C13A 1_555 1_555

#END
