
#######################################################################
#
#                 Cambridge Crystallographic Data Centre
#                                CCDC 
#
#######################################################################
#
# If this CIF has been generated from an entry in the Cambridge 
# Structural Database, then it will include bibliographic, chemical, 
# crystal, experimental, refinement or atomic coordinate data resulting 
# from the CCDC's data processing and validation procedures.
#
#######################################################################

data_EMIKIV
_symmetry_cell_setting           monoclinic
_symmetry_space_group_name_H-M   'P 21/n'
_symmetry_Int_Tables_number      14
_space_group_name_Hall           '-P 2yn'
loop_
_symmetry_equiv_pos_site_id
_symmetry_equiv_pos_as_xyz
1 x,y,z
2 1/2-x,1/2+y,1/2-z
3 -x,-y,-z
4 1/2+x,1/2-y,1/2+z
_cell_length_a                   10.6768(11)
_cell_length_b                   14.4535(15)
_cell_length_c                   11.1118(12)
_cell_angle_alpha                90
_cell_angle_beta                 109.909(12)
_cell_angle_gamma                90
_cell_volume                     1612.26
loop_
_atom_site_label
_atom_site_type_symbol
_atom_site_fract_x
_atom_site_fract_y
_atom_site_fract_z
N1 N 0.4549(4) -0.0895(3) -0.7036(4)
O1 O 0.5642(4) 0.0483(3) -0.7909(3)
O2 O 0.5546(4) 0.1040(3) -0.0291(4)
C1 C 0.3062(5) 0.1130(4) -0.5963(5)
C2 C 0.4490(5) 0.1616(4) -0.7129(5)
O3 O 0.0687(4) 0.1312(3) -0.5833(4)
Ni1 Ni 0.40407(6) 0.08934(5) -0.20515(6)
S1 S 0.20604(13) 0.14753(10) -0.50504(12)
O4 O 0.3825(4) 0.2333(3) -0.2051(4)
O5 O 0.2464(4) 0.0907(3) -0.3882(3)
N2 N 0.2552(4) 0.0587(3) -0.1277(4)
C3 C 0.4205(5) -0.0017(4) -0.6829(5)
C4 C 0.3307(5) 0.0175(4) -0.6159(4)
C5 C 0.4040(6) -0.1587(4) -0.6592(6)
C6 C 0.2782(6) -0.0596(4) -0.5717(5)
C7 C 0.3625(5) 0.1829(4) -0.6453(5)
C8 C 0.3147(6) -0.1471(4) -0.5926(6)
C9 C 0.4821(5) 0.0715(4) -0.7329(4)
C10 C 0.0550(5) 0.0124(4) -0.0256(5)
C11 C 0.0576(6) -0.0267(4) -0.1401(5)
C12 C 0.1588(6) -0.0024(4) -0.1864(5)
C13 C 0.2514(6) 0.0968(4) -0.0186(5)
C14 C 0.1542(6) 0.0748(4) 0.0343(6)
O6 O 0.2355(4) 0.2458(3) -0.4761(4)
I1 I 0.53246(4) 0.26941(3) -0.78302(4)
H1 H 0.306(5) 0.141(4) 0.018(5)
H2 H 0.284(5) -0.205(4) -0.569(5)
H3 H 0.155(6) -0.032(5) -0.264(6)
H4 H 0.361(7) 0.246(5) -0.634(6)
H5 H 0.438(8) -0.202(5) -0.660(7)
H6 H -0.003(6) -0.077(4) -0.182(6)
H7 H 0.206(6) -0.046(5) -0.535(6)
H8 H 0.175(6) 0.097(4) 0.117(6)
N1B N 0.5451(4) 0.0895(3) -0.2964(4)
N1_2 N -0.5451(4) -0.0895(3) 0.2964(4)
N1B_2 N -0.4549(4) 0.0895(3) 0.7036(4)
O1B O 0.4358(4) -0.0483(3) -0.2091(3)
O1_2 O -0.4358(4) 0.0483(3) 0.2091(3)
O1B_2 O -0.5642(4) -0.0483(3) 0.7909(3)
O2B O -0.5546(4) -0.1040(3) 0.0291(4)
C1B C -0.3062(5) -0.1130(4) 0.5963(5)
C2B C -0.4490(5) -0.1616(4) 0.7129(5)
O3B O -0.0687(4) -0.1312(3) 0.5833(4)
Ni1B Ni 0.59593(6) -0.08934(5) -0.79485(6)
Ni1B_2 Ni -0.40407(6) -0.08934(5) 0.20515(6)
Ni1_2 Ni -0.59593(6) 0.08934(5) 0.79485(6)
S1B S -0.20604(13) -0.14753(10) 0.50504(12)
O4B O -0.3825(4) -0.2333(3) 0.2051(4)
O5B O -0.2464(4) -0.0907(3) 0.3882(3)
N2B N -0.2552(4) -0.0587(3) 0.1277(4)
C3B C -0.4205(5) 0.0017(4) 0.6829(5)
C4B C -0.3307(5) -0.0175(4) 0.6159(4)
C5B C -0.4040(6) 0.1587(4) 0.6592(6)
C6B C -0.2782(6) 0.0596(4) 0.5717(5)
C7B C -0.3625(5) -0.1829(4) 0.6453(5)
C8B C -0.3147(6) 0.1471(4) 0.5926(6)
C9B C -0.4821(5) -0.0715(4) 0.7329(4)
C10B C -0.0550(5) -0.0124(4) 0.0256(5)
C11B C -0.0576(6) 0.0267(4) 0.1401(5)
C12B C -0.1588(6) 0.0024(4) 0.1864(5)
C13B C -0.2514(6) -0.0968(4) 0.0186(5)
C14B C -0.1542(6) -0.0748(4) -0.0343(6)
O6B O -0.2355(4) -0.2458(3) 0.4761(4)
I1B I -0.53246(4) -0.26941(3) 0.78302(4)
H1B H -0.306(5) -0.141(4) -0.018(5)
H2B H -0.284(5) 0.205(4) 0.569(5)
H3B H -0.155(6) 0.032(5) 0.264(6)
H4B H -0.361(7) -0.246(5) 0.634(6)
H5B H -0.438(8) 0.202(5) 0.660(7)
H6B H 0.003(6) 0.077(4) 0.182(6)
H7B H -0.206(6) 0.046(5) 0.535(6)
H8B H -0.175(6) -0.097(4) -0.117(6)
loop_
_geom_bond_atom_site_label_1
_geom_bond_atom_site_label_2
_geom_bond_site_symmetry_1
_geom_bond_site_symmetry_2
N1 C3 1_555 1_555
O1 C9 1_555 1_555
O2 Ni1 1_555 1_555
C1 S1 1_555 1_555
C2 C7 1_555 1_555
O3 S1 1_555 1_555
Ni1 O4 1_555 1_555
S1 O5 1_555 1_555
O5 Ni1 1_555 1_555
N2 Ni1 1_555 1_555
C3 C4 1_555 1_555
C4 C1 1_555 1_555
C5 N1 1_555 1_555
C6 C4 1_555 1_555
C7 C1 1_555 1_555
C8 C5 1_555 1_555
C9 C2 1_555 1_555
C10 C11 1_555 1_555
C11 C12 1_555 1_555
C12 N2 1_555 1_555
C13 N2 1_555 1_555
C14 C10 1_555 1_555
O6 S1 1_555 1_555
I1 C2 1_555 1_555
H1 C13 1_555 1_555
H2 C8 1_555 1_555
H3 C12 1_555 1_555
H4 C7 1_555 1_555
H5 C5 1_555 1_555
H6 C11 1_555 1_555
H7 C6 1_555 1_555
H8 C14 1_555 1_555
N1B Ni1 1_555 1_555
N1_2 Ni1B_2 1_555 1_555
N1B_2 Ni1_2 1_555 1_555
O1B Ni1 1_555 1_555
O1_2 Ni1B_2 1_555 1_555
O1B_2 Ni1_2 1_555 1_555
O2B Ni1B_2 1_555 1_555
C1B S1B 1_555 1_555
C2B C7B 1_555 1_555
O3B S1B 1_555 1_555
Ni1B N1 1_555 1_555
Ni1B_2 O4B 1_555 1_555
S1B O5B 1_555 1_555
O5B Ni1B_2 1_555 1_555
N2B Ni1B_2 1_555 1_555
C3B N1B_2 1_555 1_555
C4B C1B 1_555 1_555
C5B N1B_2 1_555 1_555
C6B C4B 1_555 1_555
C7B C1B 1_555 1_555
C8B C5B 1_555 1_555
C9B O1B_2 1_555 1_555
C10B C10 1_555 1_555
C11B C10B 1_555 1_555
C12B N2B 1_555 1_555
C13B N2B 1_555 1_555
C14B C10B 1_555 1_555
O6B S1B 1_555 1_555
I1B C2B 1_555 1_555
H1B C13B 1_555 1_555
H2B C8B 1_555 1_555
H3B C12B 1_555 1_555
H4B C7B 1_555 1_555
H5B C5B 1_555 1_555
H6B C11B 1_555 1_555
H7B C6B 1_555 1_555
H8B C14B 1_555 1_555
O1 Ni1B 1_555 1_555
C3 C9 1_555 1_555
C6 C8 1_555 1_555
C13 C14 1_555 1_555
C2B C9B 1_555 1_555
C3B C4B 1_555 1_555
C3B C9B 1_555 1_555
C6B C8B 1_555 1_555
C11B C12B 1_555 1_555
C13B C14B 1_555 1_555

#END
