
#######################################################################
#
#                 Cambridge Crystallographic Data Centre
#                                CCDC 
#
#######################################################################
#
# If this CIF has been generated from an entry in the Cambridge 
# Structural Database, then it will include bibliographic, chemical, 
# crystal, experimental, refinement or atomic coordinate data resulting 
# from the CCDC's data processing and validation procedures.
#
#######################################################################

data_EMINAQ
_symmetry_cell_setting           monoclinic
_symmetry_space_group_name_H-M   'P 21/n'
_symmetry_Int_Tables_number      14
_space_group_name_Hall           '-P 2yn'
loop_
_symmetry_equiv_pos_site_id
_symmetry_equiv_pos_as_xyz
1 x,y,z
2 1/2-x,1/2+y,1/2-z
3 -x,-y,-z
4 1/2+x,1/2-y,1/2+z
_cell_length_a                   11.2556(10)
_cell_length_b                   8.3429(7)
_cell_length_c                   18.5625(16)
_cell_angle_alpha                90
_cell_angle_beta                 93.7020(10)
_cell_angle_gamma                90
_cell_volume                     1739.46
loop_
_atom_site_label
_atom_site_type_symbol
_atom_site_fract_x
_atom_site_fract_y
_atom_site_fract_z
Cd1 Cd 0.256252(18) 0.53785(3) 0.024999(12)
S1 S 0.41925(7) 0.62633(11) 0.13103(4)
S2 S 0.09924(7) 0.71902(11) 0.09970(5)
N1 N 0.2210(2) 0.2996(3) 0.08792(14)
N2 N 0.1124(3) 0.1258(4) 0.14596(16)
N3 N 0.2928(2) 0.7794(3) -0.03395(14)
N4 N 0.2961(3) 1.0454(4) -0.03581(16)
N5 N 0.6126(2) 0.6086(4) 0.04296(15)
N6 N -0.1072(2) 0.5447(3) 0.05778(15)
C1 C 0.1126(3) 0.2474(4) 0.09776(18)
H1 H 0.0440 0.2894 0.0742
C2 C 0.2293(3) 0.0956(4) 0.16988(17)
C3 C 0.2791(4) -0.0141(4) 0.2194(2)
H2 H 0.2328 -0.0850 0.2442
C4 C 0.4025(4) -0.0111(4) 0.2296(2)
H3 H 0.4399 -0.0813 0.2627
C5 C 0.4722(3) 0.0940(5) 0.1916(2)
H4 H 0.5546 0.0906 0.1995
C6 C 0.4218(3) 0.2029(4) 0.14247(18)
H5 H 0.4686 0.2721 0.1171
C7 C 0.2967(3) 0.2050(4) 0.13247(16)
C8 C 0.3235(3) 0.9111(4) 0.00139(18)
H6 H 0.3606 0.9111 0.0476
C9 C 0.2426(3) 1.0009(4) -0.10201(18)
C10 C 0.1958(3) 1.0885(4) -0.16051(19)
H7 H 0.1955 1.2000 -0.1603
C11 C 0.1493(3) 1.0017(5) -0.2195(2)
H8 H 0.1169 1.0561 -0.2598
C12 C 0.1502(3) 0.8332(4) -0.21959(18)
H9 H 0.1199 0.7788 -0.2605
C13 C 0.1951(3) 0.7457(4) -0.16022(17)
H10 H 0.1942 0.6342 -0.1601
C14 C 0.2418(3) 0.8331(4) -0.10070(17)
C15 C 0.5327(3) 0.6142(4) 0.07904(17)
C16 C -0.0218(3) 0.6174(4) 0.07479(16)
H11 H 0.311(4) 1.129(5) -0.023(2)
H12 H 0.054(4) 0.081(5) 0.159(2)
Cd1B Cd 0.743748(18) 0.46215(3) -0.024999(12)
Cd1B_2 Cd -0.256252(18) 0.46215(3) -0.024999(12)
N5B N 0.3874(2) 0.3914(4) -0.04296(15)
N6B N 0.1072(2) 0.4553(3) -0.05778(15)
loop_
_geom_bond_atom_site_label_1
_geom_bond_atom_site_label_2
_geom_bond_site_symmetry_1
_geom_bond_site_symmetry_2
Cd1 S1 1_555 1_555
S1 C15 1_555 1_555
S2 Cd1 1_555 1_555
N1 Cd1 1_555 1_555
N2 C1 1_555 1_555
N3 Cd1 1_555 1_555
N4 C8 1_555 1_555
N5 C15 1_555 1_555
N6 C16 1_555 1_555
C1 N1 1_555 1_555
H1 C1 1_555 1_555
C2 N2 1_555 1_555
C3 C2 1_555 1_555
H2 C3 1_555 1_555
C4 C3 1_555 1_555
H3 C4 1_555 1_555
C5 C4 1_555 1_555
H4 C5 1_555 1_555
C6 C5 1_555 1_555
H5 C6 1_555 1_555
C7 N1 1_555 1_555
C8 N3 1_555 1_555
H6 C8 1_555 1_555
C9 N4 1_555 1_555
C10 C9 1_555 1_555
H7 C10 1_555 1_555
C11 C10 1_555 1_555
H8 C11 1_555 1_555
C12 C11 1_555 1_555
H9 C12 1_555 1_555
C13 C12 1_555 1_555
H10 C13 1_555 1_555
C14 N3 1_555 1_555
C16 S2 1_555 1_555
H11 N4 1_555 1_555
H12 N2 1_555 1_555
Cd1B N5 1_555 1_555
Cd1B_2 N6 1_555 1_555
N5B Cd1 1_555 1_555
N6B Cd1 1_555 1_555
C2 C7 1_555 1_555
C6 C7 1_555 1_555
C9 C14 1_555 1_555
C13 C14 1_555 1_555

#END
