
#######################################################################
#
#                 Cambridge Crystallographic Data Centre
#                                CCDC 
#
#######################################################################
#
# If this CIF has been generated from an entry in the Cambridge 
# Structural Database, then it will include bibliographic, chemical, 
# crystal, experimental, refinement or atomic coordinate data resulting 
# from the CCDC's data processing and validation procedures.
#
#######################################################################

data_EMINEU
_symmetry_cell_setting           monoclinic
_symmetry_space_group_name_H-M   'C 2/c'
_symmetry_Int_Tables_number      15
_space_group_name_Hall           '-C 2yn'
loop_
_symmetry_equiv_pos_site_id
_symmetry_equiv_pos_as_xyz
1 x,y,z
2 -x,y,1/2-z
3 1/2+x,1/2+y,z
4 1/2-x,1/2+y,1/2-z
5 -x,-y,-z
6 x,-y,1/2+z
7 1/2-x,1/2-y,-z
8 1/2+x,1/2-y,1/2+z
_cell_length_a                   16.427(3)
_cell_length_b                   7.6957(14)
_cell_length_c                   14.896(3)
_cell_angle_alpha                90
_cell_angle_beta                 117.497(3)
_cell_angle_gamma                90
_cell_volume                     1670.39
loop_
_atom_site_label
_atom_site_type_symbol
_atom_site_fract_x
_atom_site_fract_y
_atom_site_fract_z
Cd1 Cd 0.2500 0.2500 0.0000
N1 N 0.3275(3) 0.0978(6) 0.1539(3)
N2 N 0.3954(3) 0.0442(7) 0.3336(3)
N3 N 0.3200(3) -0.0649(5) 0.4293(3)
N4 N 0.3699(2) 0.4369(4) 0.0501(3)
N5 N 0.5095(2) 0.5418(5) 0.1295(3)
C1 C 0.3542(3) 0.0702(6) 0.2371(3)
C2 C 0.3675(3) 0.6134(6) 0.0388(4)
H1 H 0.3146 0.6788 0.0028
C3 C 0.4526(3) 0.6776(7) 0.0872(4)
H2 H 0.4693 0.7939 0.0910
C4 C 0.3502(3) -0.0134(5) 0.3808(3)
C5 C 0.4575(3) 0.3995(6) 0.1054(3)
H3 H 0.4802 0.2877 0.1252
C6 C 0.6098(3) 0.5478(8) 0.1905(4)
H4 H 0.6325 0.4331 0.2141
H5 H 0.6255 0.6234 0.2475
H6 H 0.6368 0.5909 0.1499
Cd1C Cd 0.2500 -0.2500 0.5000
Cd1C_2 Cd 0.2500 0.7500 0.5000
N1C N 0.1725(3) 0.5978(6) 0.3461(3)
N1F N 0.1725(3) 0.4022(6) -0.1539(3)
N2C N 0.1046(3) 0.5442(7) 0.1664(3)
N3C N 0.1800(3) 0.4351(5) 0.0707(3)
N3E N 0.3200(3) 0.0649(5) -0.0707(3)
N4F N 0.1301(2) 0.0631(4) -0.0501(3)
N5F N -0.0095(2) -0.0418(5) -0.1295(3)
C1C C 0.1458(3) 0.5702(6) 0.2629(3)
C2F C 0.1325(3) -0.1134(6) -0.0388(4)
H1F H 0.1854 -0.1788 -0.0028
C3F C 0.0474(3) -0.1776(7) -0.0872(4)
H2F H 0.0307 -0.2939 -0.0910
C4C C 0.1498(3) 0.4866(5) 0.1192(3)
C5F C 0.0425(3) 0.1005(6) -0.1054(3)
H3F H 0.0198 0.2123 -0.1252
C6F C -0.1098(3) -0.0478(8) -0.1905(4)
H4F H -0.1325 0.0669 -0.2141
H5F H -0.1255 -0.1234 -0.2475
H6F H -0.1368 -0.0909 -0.1499
loop_
_geom_bond_atom_site_label_1
_geom_bond_atom_site_label_2
_geom_bond_site_symmetry_1
_geom_bond_site_symmetry_2
Cd1 N1 1_555 1_555
N1 C1 1_555 1_555
N2 C1 1_555 1_555
N3 C4 1_555 1_555
N4 Cd1 1_555 1_555
N5 C3 1_555 1_555
C2 N4 1_555 1_555
H1 C2 1_555 1_555
C3 C2 1_555 1_555
H2 C3 1_555 1_555
C4 N2 1_555 1_555
C5 N4 1_555 1_555
H3 C5 1_555 1_555
C6 N5 1_555 1_555
H4 C6 1_555 1_555
H5 C6 1_555 1_555
H6 C6 1_555 1_555
Cd1C N3 1_555 1_555
Cd1C_2 N1C 1_555 1_555
N1C C1C 1_555 1_555
N1F Cd1 1_555 1_555
N2C C1C 1_555 1_555
N3C Cd1 1_555 1_555
N3E Cd1 1_555 1_555
N4F Cd1 1_555 1_555
N5F C3F 1_555 1_555
C2F N4F 1_555 1_555
H1F C2F 1_555 1_555
C3F C2F 1_555 1_555
H2F C3F 1_555 1_555
C4C N2C 1_555 1_555
C5F N4F 1_555 1_555
H3F C5F 1_555 1_555
C6F N5F 1_555 1_555
H4F C6F 1_555 1_555
H5F C6F 1_555 1_555
H6F C6F 1_555 1_555
N5 C5 1_555 1_555
N3C C4C 1_555 1_555
N5F C5F 1_555 1_555

#END
