
#######################################################################
#
#                 Cambridge Crystallographic Data Centre
#                                CCDC 
#
#######################################################################
#
# If this CIF has been generated from an entry in the Cambridge 
# Structural Database, then it will include bibliographic, chemical, 
# crystal, experimental, refinement or atomic coordinate data resulting 
# from the CCDC's data processing and validation procedures.
#
#######################################################################

data_EMIQOG
_symmetry_cell_setting           monoclinic
_symmetry_space_group_name_H-M   'C 2/c'
_symmetry_Int_Tables_number      15
_space_group_name_Hall           '-C 2yn'
loop_
_symmetry_equiv_pos_site_id
_symmetry_equiv_pos_as_xyz
1 x,y,z
2 1/2+x,1/2+y,z
3 x,-y,1/2+z
4 1/2+x,1/2-y,1/2+z
5 -x,-y,-z
6 1/2-x,1/2-y,-z
7 -x,y,1/2-z
8 1/2-x,1/2+y,1/2-z
_cell_length_a                   12.9517(3)
_cell_length_b                   7.7020(2)
_cell_length_c                   26.5416(7)
_cell_angle_alpha                90
_cell_angle_beta                 97.2770(12)
_cell_angle_gamma                90
_cell_volume                     2626.3
loop_
_atom_site_label
_atom_site_type_symbol
_atom_site_fract_x
_atom_site_fract_y
_atom_site_fract_z
Sr1 Sr 0.5000 0.74133(6) 0.2500
N1 N 0.7172(2) 0.9302(4) 0.03949(10)
C1 C 0.8036(2) 0.9896(4) 0.06703(12)
N2 N 0.8157(2) 0.9587(4) 0.11657(10)
C2 C 0.7416(3) 0.8527(4) 0.14050(13)
C3 C 0.6429(3) 0.9434(4) 0.15274(12)
O1 O 0.58106(19) 0.8578(3) 0.17423(9)
N3 N 0.6280(2) 1.1078(4) 0.13875(10)
C4 C 0.5397(3) 1.2102(4) 0.14926(13)
C5 C 0.5654(3) 1.3464(4) 0.19121(12)
O2 O 0.64266(19) 1.3184(4) 0.22429(9)
O3 O 0.50455(18) 1.4727(3) 0.18991(8)
N4 N 0.8794(2) 1.0838(4) 0.04732(10)
C6 C 0.9709(3) 1.1498(5) 0.08075(12)
C7 C 0.8731(3) 1.1185(4) -0.00456(12)
O4 O 0.94393(19) 1.1953(3) -0.02177(9)
C8 C 0.7783(3) 1.0571(4) -0.03537(12)
N5 N 0.7717(2) 1.1014(4) -0.08459(10)
O5 O 0.69042(19) 1.0500(3) -0.11401(9)
C9 C 0.7028(3) 0.9645(4) -0.01033(12)
N6 N 0.6155(2) 0.9101(4) -0.03714(11)
O6 O 0.6184(2) 1.0023(4) 0.28105(10)
O7 O 0.6785(2) 0.6241(4) 0.27728(10)
H1 H 0.8698 1.0032 0.1356
H2 H 0.7782 0.8048 0.1725
H3 H 0.7207 0.7533 0.1178
H4 H 0.6747 1.1574 0.1221
H5 H 0.4856 1.1312 0.1593
H6 H 0.5103 1.2701 0.1177
H7 H 1.0182 1.0533 0.0911
H8 H 0.9480 1.2035 0.1109
H9 H 1.0072 1.2363 0.0624
H10 H 0.5690 0.8534 -0.0221
H11 H 0.6040 0.9309 -0.0700
H12 H 0.6318 1.1048 0.2646
H13 H 0.6662 0.9894 0.3101
H14 H 0.6787 0.5280 0.2561
H15 H 0.7379 0.6903 0.2752
N1F N 0.2828(2) 0.9302(4) 0.46051(10)
C1F C 0.1964(2) 0.9896(4) 0.43297(12)
N2F N 0.1843(2) 0.9587(4) 0.38343(10)
C2F C 0.2584(3) 0.8527(4) 0.35950(13)
C3F C 0.3571(3) 0.9434(4) 0.34726(12)
O1F O 0.41894(19) 0.8578(3) 0.32577(9)
N3F N 0.3720(2) 1.1078(4) 0.36125(10)
C4F C 0.4603(3) 1.2102(4) 0.35074(13)
C5F C 0.4346(3) 1.3464(4) 0.30879(12)
O2F O 0.35734(19) 1.3184(4) 0.27571(9)
O3F O 0.49545(18) 1.4727(3) 0.31009(8)
N4F N 0.1206(2) 1.0838(4) 0.45268(10)
C6F C 0.0291(3) 1.1498(5) 0.41925(12)
C7F C 0.1269(3) 1.1185(4) 0.50456(12)
O4F O 0.05607(19) 1.1953(3) 0.52177(9)
C8F C 0.2217(3) 1.0571(4) 0.53537(12)
N5F N 0.2283(2) 1.1014(4) 0.58459(10)
O5F O 0.30958(19) 1.0500(3) 0.61401(9)
C9F C 0.2972(3) 0.9645(4) 0.51033(12)
N6F N 0.3845(2) 0.9101(4) 0.53714(11)
H1F H 0.1302 1.0032 0.3644
H2F H 0.2218 0.8048 0.3275
H3F H 0.2793 0.7533 0.3822
H4F H 0.3253 1.1574 0.3779
H5F H 0.5144 1.1312 0.3407
H6F H 0.4897 1.2701 0.3823
H7F H -0.0182 1.0533 0.4089
H8F H 0.0520 1.2035 0.3891
H9F H -0.0072 1.2363 0.4376
H10F H 0.4310 0.8534 0.5221
H11F H 0.3960 0.9309 0.5700
O6F O 0.3816(2) 1.0023(4) 0.21895(10)
H12F H 0.3682 1.1048 0.2354
H13F H 0.3338 0.9894 0.1899
O7F O 0.3215(2) 0.6241(4) 0.22272(10)
H14F H 0.3213 0.5280 0.2439
H15F H 0.2621 0.6903 0.2248
O3_2 O 0.50455(18) 0.4727(3) 0.18991(8)
O3F_2 O 0.49545(18) 0.4727(3) 0.31009(8)
Sr1_2 Sr 0.5000 1.74133(6) 0.2500
loop_
_geom_bond_atom_site_label_1
_geom_bond_atom_site_label_2
_geom_bond_site_symmetry_1
_geom_bond_site_symmetry_2
Sr1 O1 1_555 1_555
N1 C1 1_555 1_555
C1 N2 1_555 1_555
N2 C2 1_555 1_555
C2 C3 1_555 1_555
C3 O1 1_555 1_555
N3 C3 1_555 1_555
C4 N3 1_555 1_555
C5 C4 1_555 1_555
O2 C5 1_555 1_555
O3 C5 1_555 1_555
N4 C1 1_555 1_555
C6 N4 1_555 1_555
C7 N4 1_555 1_555
O4 C7 1_555 1_555
C8 C7 1_555 1_555
N5 C8 1_555 1_555
O5 N5 1_555 1_555
C9 N1 1_555 1_555
N6 C9 1_555 1_555
O6 Sr1 1_555 1_555
O7 Sr1 1_555 1_555
H1 N2 1_555 1_555
H2 C2 1_555 1_555
H3 C2 1_555 1_555
H4 N3 1_555 1_555
H5 C4 1_555 1_555
H6 C4 1_555 1_555
H7 C6 1_555 1_555
H8 C6 1_555 1_555
H9 C6 1_555 1_555
H10 N6 1_555 1_555
H11 N6 1_555 1_555
H12 O6 1_555 1_555
H13 O6 1_555 1_555
H14 O7 1_555 1_555
H15 O7 1_555 1_555
N1F C1F 1_555 1_555
C1F N2F 1_555 1_555
N2F C2F 1_555 1_555
C2F C3F 1_555 1_555
C3F O1F 1_555 1_555
O1F Sr1 1_555 1_555
N3F C3F 1_555 1_555
C4F N3F 1_555 1_555
C5F C4F 1_555 1_555
O2F C5F 1_555 1_555
O3F C5F 1_555 1_555
N4F C1F 1_555 1_555
C6F N4F 1_555 1_555
C7F N4F 1_555 1_555
O4F C7F 1_555 1_555
C8F C7F 1_555 1_555
N5F C8F 1_555 1_555
O5F N5F 1_555 1_555
C9F N1F 1_555 1_555
N6F C9F 1_555 1_555
H1F N2F 1_555 1_555
H2F C2F 1_555 1_555
H3F C2F 1_555 1_555
H4F N3F 1_555 1_555
H5F C4F 1_555 1_555
H6F C4F 1_555 1_555
H7F C6F 1_555 1_555
H8F C6F 1_555 1_555
H9F C6F 1_555 1_555
H10F N6F 1_555 1_555
H11F N6F 1_555 1_555
O6F Sr1 1_555 1_555
H12F O6F 1_555 1_555
H13F O6F 1_555 1_555
O7F Sr1 1_555 1_555
H14F O7F 1_555 1_555
H15F O7F 1_555 1_555
O3_2 Sr1 1_555 1_555
O3F_2 Sr1 1_555 1_555
Sr1_2 O3 1_555 1_555
C8 C9 1_555 1_555
O3F Sr1_2 1_555 1_555
C8F C9F 1_555 1_555

#END
