
#######################################################################
#
#                 Cambridge Crystallographic Data Centre
#                                CCDC 
#
#######################################################################
#
# If this CIF has been generated from an entry in the Cambridge 
# Structural Database, then it will include bibliographic, chemical, 
# crystal, experimental, refinement or atomic coordinate data resulting 
# from the CCDC's data processing and validation procedures.
#
#######################################################################

data_EMIRAT
_symmetry_cell_setting           monoclinic
_symmetry_space_group_name_H-M   'P 21'
_symmetry_Int_Tables_number      4
_space_group_name_Hall           'P 2yb'
loop_
_symmetry_equiv_pos_site_id
_symmetry_equiv_pos_as_xyz
1 x,y,z
2 -x,1/2+y,-z
_cell_length_a                   7.5557(3)
_cell_length_b                   13.9726(6)
_cell_length_c                   29.4179(12)
_cell_angle_alpha                90
_cell_angle_beta                 91.803(2)
_cell_angle_gamma                90
_cell_volume                     3104.19
loop_
_atom_site_label
_atom_site_type_symbol
_atom_site_fract_x
_atom_site_fract_y
_atom_site_fract_z
Ca1 Ca 0.26363(5) 0.88390(3) 0.653031(13)
N1 N -0.1461(2) 1.21782(12) 0.55044(6)
C1 C -0.2791(2) 1.20094(14) 0.57804(7)
N2 N -0.2415(2) 1.17440(13) 0.62066(6)
C2 C -0.0589(3) 1.15611(15) 0.63785(7)
C3 C -0.0577(3) 1.06226(15) 0.66547(7)
C4 C 0.0256(5) 1.2376(3) 0.66582(12)
C5 C 0.0238(8) 1.3316(5) 0.6396(2)
C6 C -0.0656(5) 1.2483(3) 0.71088(11)
O1 O 0.0895(2) 1.02203(11) 0.67081(5)
O2 O -0.2018(2) 1.03584(12) 0.68134(6)
N3 N -0.4563(2) 1.21158(13) 0.56520(6)
C10 C -0.5961(3) 1.19186(16) 0.59783(8)
C11 C -0.5073(3) 1.24162(15) 0.52156(7)
O3 O -0.66550(19) 1.25574(12) 0.51112(5)
C12 C -0.3638(2) 1.25345(15) 0.48993(7)
N4 N -0.4174(2) 1.27885(13) 0.44739(6)
O4 O -0.29608(19) 1.28768(11) 0.41827(5)
C13 C -0.1837(2) 1.24100(14) 0.50701(7)
N5 N -0.0475(2) 1.25478(13) 0.48041(6)
N6 N 0.6536(2) 0.55117(12) 0.55712(6)
N7 N 0.7563(2) 0.59354(13) 0.62831(6)
C14 C 0.7897(3) 0.56806(14) 0.58550(7)
C15 C 0.5766(2) 0.61530(14) 0.64328(7)
C16 C 0.5859(3) 0.70665(14) 0.67298(6)
C17 C 0.4956(3) 0.53136(15) 0.66992(7)
C18 C 0.4783(3) 0.44063(16) 0.64099(8)
C19 C 0.5982(3) 0.50783(17) 0.71403(8)
O5 O 0.44489(19) 0.75123(11) 0.67765(5)
O6 O 0.73560(19) 0.72704(11) 0.69154(5)
N8 N 0.9658(2) 0.56010(12) 0.57432(6)
C20 C 1.1076(3) 0.58315(16) 0.60790(8)
C21 C 1.0125(3) 0.53036(15) 0.53056(7)
O7 O 1.17004(19) 0.51910(12) 0.52193(6)
C22 C 0.8660(2) 0.51559(15) 0.49834(7)
N9 N 0.9141(2) 0.48840(13) 0.45655(6)
O8 O 0.7915(2) 0.47627(12) 0.42620(5)
C23 C 0.6865(2) 0.52693(14) 0.51398(7)
N10 N 0.5480(2) 0.51160(13) 0.48640(6)
O17 O 0.1356(2) 0.81358(13) 0.71722(5)
O18 O 0.4045(2) 0.98115(12) 0.71621(5)
O19 O 0.53083(19) 0.95519(12) 0.62691(5)
O20 O -0.02268(19) 0.81439(11) 0.62902(5)
H1 H -0.3290 1.1674 0.6394
H2 H 0.0159 1.1456 0.6109
H3 H 0.1520 1.2202 0.6726
H4 H 0.0975 1.3254 0.6129
H5 H 0.0707 1.3829 0.6592
H6 H -0.0980 1.3470 0.6297
H7 H -0.0089 1.2998 0.7286
H8 H -0.0558 1.1881 0.7279
H10 H -0.1454 1.2463 0.6926
H17 H -0.5902 1.1245 0.6071
H18 H -0.7122 1.2050 0.5834
H19 H -0.5787 1.2329 0.6246
H20 H 0.0614 1.2486 0.4915
H21 H -0.0660 1.2701 0.4516
H22 H 0.8453 0.5974 0.6483
H23 H 0.4991 0.6285 0.6158
H24 H 0.3735 0.5509 0.6782
H25 H 0.5964 0.4172 0.6339
H26 H 0.4118 0.4552 0.6127
H27 H 0.4154 0.3914 0.6579
H28 H 0.5383 0.4560 0.7299
H29 H 0.6037 0.5647 0.7335
H30 H 0.7186 0.4877 0.7070
H31 H 1.0945 0.6495 0.6180
H32 H 1.2229 0.5752 0.5940
H33 H 1.0999 0.5401 0.6341
H34 H 0.4402 0.5174 0.4966
H35 H 0.5635 0.4956 0.4579
H71 H 0.2121 0.7958 0.7373
H72 H 0.0501 0.8406 0.7303
H73 H 0.3097 1.0117 0.7213
H74 H 0.4455 0.9585 0.7412
H75 H 0.5950 0.9357 0.6056
H76 H 0.5971 0.9682 0.6500
H77 H -0.0852 0.7931 0.6503
H78 H -0.0895 0.8426 0.6095
O4A O 0.29608(19) 0.78768(11) 0.58173(5)
O8A O 0.2085(2) 0.97627(12) 0.57380(5)
Ca1A Ca -0.26363(5) 1.38390(3) 0.346969(13)
Ca1A_2 Ca 0.73637(5) 0.38390(3) 0.346969(13)
Ca2 Ca 0.78157(5) 0.86695(3) 0.820057(12)
N11 N 0.7190(2) 1.22780(13) 0.95151(6)
C24 C 0.8649(3) 1.21763(15) 0.92771(7)
N12 N 0.8498(2) 1.19927(13) 0.88329(6)
C25 C 0.6784(3) 1.19319(15) 0.85847(7)
C26 C 0.6297(3) 1.08855(15) 0.84779(7)
C27 C 0.6916(4) 1.2510(2) 0.81299(10)
C28 C 0.6972(4) 1.3575(2) 0.82467(15)
C29 C 0.5386(4) 1.2272(2) 0.77956(10)
O9 O 0.74986(19) 1.03343(11) 0.83569(5)
O10 O 0.46720(19) 1.06669(11) 0.85089(5)
N13 N 1.0354(2) 1.22739(14) 0.94638(6)
C33 C 1.1919(3) 1.2184(2) 0.91774(8)
C34 C 1.0645(3) 1.24323(15) 0.99284(7)
O11 O 1.21688(19) 1.24885(13) 1.00899(5)
C35 C 0.9070(2) 1.25140(15) 1.01965(7)
N14 N 0.9398(2) 1.26735(13) 1.06417(6)
O12 O 0.80618(19) 1.27491(11) 1.09026(5)
C36 C 0.7353(3) 1.24353(16) 0.99640(7)
N15 N 0.5903(2) 1.25141(16) 1.02009(6)
N16 N 1.1027(2) 0.53570(13) 0.92233(6)
C37 C 0.9573(3) 0.55970(14) 0.89859(7)
N17 N 0.9723(2) 0.58970(13) 0.85558(6)
C38 C 1.1463(2) 0.60741(14) 0.83639(7)
C39 C 1.1431(2) 0.70584(14) 0.81311(6)
C40 C 1.1983(3) 0.52945(16) 0.80203(8)
C41 C 1.0787(4) 0.53032(19) 0.75909(8)
C42 C 1.2027(3) 0.43049(17) 0.82423(10)
O13 O 0.99987(18) 0.75030(11) 0.80987(5)
O14 O 1.28779(17) 0.73306(11) 0.79682(5)
N18 N 0.7868(2) 0.55310(13) 0.91490(6)
C43 C 0.6305(3) 0.58025(17) 0.88629(7)
C44 C 0.7595(3) 0.52354(15) 0.95983(7)
O15 O 0.60858(19) 0.51259(13) 0.97294(5)
C45 C 0.9191(2) 0.50926(15) 0.98794(7)
N19 N 0.8889(2) 0.49749(14) 1.03247(6)
O16 O 1.0243(2) 0.49013(13) 1.05954(5)
C46 C 1.0891(2) 0.51441(15) 0.96673(7)
N20 N 1.2379(2) 0.49987(14) 0.99072(6)
O21 O 0.70706(19) 0.82060(11) 0.89450(5)
O22 O 0.46995(18) 0.90155(11) 0.80506(5)
O23 O 1.05569(18) 0.92594(11) 0.85617(5)
O24 O 0.80439(18) 0.89036(10) 0.74071(4)
O25 O 0.64609(18) 0.71165(11) 0.79250(5)
H36 H 0.9470 1.1904 0.8681
H37 H 0.5846 1.2222 0.8773
H38 H 0.8052 1.2335 0.7985
H39 H 0.7363 1.3938 0.7983
H40 H 0.7802 1.3680 0.8505
H41 H 0.5788 1.3790 0.8327
H42 H 0.5502 1.1610 0.7691
H43 H 0.5418 1.2706 0.7534
H44 H 0.4259 1.2349 0.7947
H52 H 1.2102 1.1509 0.9101
H53 H 1.2967 1.2429 0.9344
H54 H 1.1725 1.2554 0.8897
H55 H 0.4855 1.2463 1.0064
H56 H 0.5985 1.2617 1.0496
H57 H 0.8760 0.5990 0.8385
H58 H 1.2373 0.6087 0.8618
H59 H 1.3212 0.5441 0.7925
H60 H 0.9570 0.5150 0.7671
H61 H 1.1208 0.4826 0.7375
H62 H 1.0816 0.5939 0.7451
H63 H 1.0826 0.4121 0.8324
H64 H 1.2794 0.4323 0.8517
H65 H 1.2489 0.3836 0.8028
H66 H 0.6269 0.6500 0.8829
H67 H 0.5226 0.5584 0.9008
H68 H 0.6384 0.5504 0.8563
H69 H 1.3406 0.5043 0.9775
H70 H 1.2342 0.4858 1.0198
H79 H 0.6338 0.8571 0.9073
H80 H 0.7917 0.8082 0.9133
H81 H 0.4454 0.9506 0.8207
H82 H 0.3914 0.8591 0.8090
H83 H 1.0204 0.9606 0.8779
H84 H 1.1246 0.8830 0.8670
H85 H 0.7610 0.8440 0.7253
H86 H 0.7974 0.9414 0.7250
H87 H 0.5207 0.7107 0.7938
H88 H 0.6869 0.7184 0.7625
O26 O -0.75757(18) 1.39181(12) 0.43758(5)
H89 H -0.6983 1.3517 0.4560
H90 H -0.8063 1.4363 0.4548
O27 O 0.4993(2) 0.95912(12) 0.93242(5)
H91 H 0.4597 0.9909 0.9079
H92 H 0.4167 0.9689 0.9528
O28 O 1.1144(2) 1.12407(13) 0.81881(6)
O29 O 0.503(2) 1.1815(14) 0.6986(6)
C7? C -0.0370(14) 1.2422(6) 0.6740(3)
C8? C -0.011(2) 1.3392(16) 0.6477(7)
C9? C 0.1275(11) 1.2282(6) 0.7058(3)
C30? C 0.643(3) 1.2612(13) 0.8275(7)
C31? C 0.774(3) 1.2525(14) 0.7895(6)
C32? C 0.648(4) 1.3622(14) 0.8473(8)
H9? H -0.1908 1.2637 0.7052
H11? H -0.0051 1.3263 0.6150
H12? H 0.0994 1.3698 0.6585
H13? H -0.1108 1.3820 0.6532
H14? H 0.2255 1.2034 0.6882
H15? H 0.0999 1.1825 0.7298
H16? H 0.1616 1.2897 0.7194
H45? H 0.5215 1.2495 0.8142
H46? H 0.7627 1.1893 0.7752
H47? H 0.8950 1.2605 0.8020
H48? H 0.7495 1.3022 0.7666
H49? H 0.6416 1.4090 0.8225
H50? H 0.7591 1.3712 0.8650
H51? H 0.5477 1.3712 0.8671
H93? H 1.0524 1.0702 0.8208
H94? H 1.2288 1.1094 0.8219
loop_
_geom_bond_atom_site_label_1
_geom_bond_atom_site_label_2
_geom_bond_site_symmetry_1
_geom_bond_site_symmetry_2
Ca1 O1 1_555 1_555
N1 C1 1_555 1_555
C1 N2 1_555 1_555
N2 C2 1_555 1_555
C2 C3 1_555 1_555
C3 O1 1_555 1_555
C4 C2 1_555 1_555
C5 C4 1_555 1_555
C6 C4 1_555 1_555
O2 C3 1_555 1_555
N3 C1 1_555 1_555
C10 N3 1_555 1_555
C11 N3 1_555 1_555
O3 C11 1_555 1_555
C12 C11 1_555 1_555
N4 C12 1_555 1_555
O4 N4 1_555 1_555
C13 N1 1_555 1_555
N5 C13 1_555 1_555
N6 C14 1_555 1_555
N7 C14 1_555 1_555
C14 N8 1_555 1_555
C15 N7 1_555 1_555
C16 C15 1_555 1_555
C17 C15 1_555 1_555
C18 C17 1_555 1_555
C19 C17 1_555 1_555
O5 Ca1 1_555 1_555
O6 C16 1_555 1_555
N8 C20 1_555 1_555
C20 H31 1_555 1_555
C21 N8 1_555 1_555
O7 C21 1_555 1_555
C22 C21 1_555 1_555
N9 C22 1_555 1_555
O8 N9 1_555 1_555
C23 N6 1_555 1_555
N10 C23 1_555 1_555
Ca2 O9 1_555 1_555
N11 C24 1_555 1_555
C24 N12 1_555 1_555
N12 C25 1_555 1_555
C25 C26 1_555 1_555
C26 O9 1_555 1_555
C27 C25 1_555 1_555
C28 C27 1_555 1_555
C29 C27 1_555 1_555
O10 C26 1_555 1_555
N13 C24 1_555 1_555
C33 N13 1_555 1_555
C34 N13 1_555 1_555
O11 C34 1_555 1_555
C35 C34 1_555 1_555
N14 C35 1_555 1_555
O12 N14 1_555 1_555
C36 N11 1_555 1_555
N15 C36 1_555 1_555
N16 C37 1_555 1_555
C37 N17 1_555 1_555
N17 C38 1_555 1_555
C38 C39 1_555 1_555
C39 O13 1_555 1_555
C40 C38 1_555 1_555
C41 C40 1_555 1_555
C42 C40 1_555 1_555
O13 Ca2 1_555 1_555
O14 C39 1_555 1_555
N18 C37 1_555 1_555
C43 N18 1_555 1_555
C44 N18 1_555 1_555
O15 C44 1_555 1_555
C45 C44 1_555 1_555
N19 C45 1_555 1_555
O16 N19 1_555 1_555
C46 N16 1_555 1_555
N20 C46 1_555 1_555
O17 Ca1 1_555 1_555
O18 Ca1 1_555 1_555
O19 Ca1 1_555 1_555
O20 Ca1 1_555 1_555
O21 Ca2 1_555 1_555
O22 Ca2 1_555 1_555
O23 Ca2 1_555 1_555
O24 Ca2 1_555 1_555
O25 Ca2 1_555 1_555
O26 H89 1_555 1_555
O27 H91 1_555 1_555
H1 N2 1_555 1_555
H2 C2 1_555 1_555
H3 C4 1_555 1_555
H4 C5 1_555 1_555
H5 C5 1_555 1_555
H6 C5 1_555 1_555
H7 C6 1_555 1_555
H8 C6 1_555 1_555
H10 C6 1_555 1_555
H17 C10 1_555 1_555
H18 C10 1_555 1_555
H19 C10 1_555 1_555
H20 N5 1_555 1_555
H21 N5 1_555 1_555
H22 N7 1_555 1_555
H23 C15 1_555 1_555
H24 C17 1_555 1_555
H25 C18 1_555 1_555
H26 C18 1_555 1_555
H27 C18 1_555 1_555
H28 C19 1_555 1_555
H29 C19 1_555 1_555
H30 C19 1_555 1_555
H32 C20 1_555 1_555
H33 C20 1_555 1_555
H34 N10 1_555 1_555
H35 N10 1_555 1_555
H36 N12 1_555 1_555
H37 C25 1_555 1_555
H38 C27 1_555 1_555
H39 C28 1_555 1_555
H40 C28 1_555 1_555
H41 C28 1_555 1_555
H42 C29 1_555 1_555
H43 C29 1_555 1_555
H44 C29 1_555 1_555
H52 C33 1_555 1_555
H53 C33 1_555 1_555
H54 C33 1_555 1_555
H55 N15 1_555 1_555
H56 N15 1_555 1_555
H57 N17 1_555 1_555
H58 C38 1_555 1_555
H59 C40 1_555 1_555
H60 C41 1_555 1_555
H61 C41 1_555 1_555
H62 C41 1_555 1_555
H63 C42 1_555 1_555
H64 C42 1_555 1_555
H65 C42 1_555 1_555
H66 C43 1_555 1_555
H67 C43 1_555 1_555
H68 C43 1_555 1_555
H69 N20 1_555 1_555
H70 N20 1_555 1_555
H71 O17 1_555 1_555
H72 O17 1_555 1_555
H73 O18 1_555 1_555
H74 O18 1_555 1_555
H75 O19 1_555 1_555
H76 O19 1_555 1_555
H77 O20 1_555 1_555
H78 O20 1_555 1_555
H79 O21 1_555 1_555
H80 O21 1_555 1_555
H81 O22 1_555 1_555
H82 O22 1_555 1_555
H83 O23 1_555 1_555
H84 O23 1_555 1_555
H85 O24 1_555 1_555
H86 O24 1_555 1_555
H87 O25 1_555 1_555
H88 O25 1_555 1_555
H90 O26 1_555 1_555
H92 O27 1_555 1_555
O4A Ca1 1_555 1_555
O8A Ca1 1_555 1_555
Ca1A O4 1_555 1_555
Ca1A_2 O8 1_555 1_555
C12 C13 1_555 1_555
C16 O5 1_555 1_555
C22 C23 1_555 1_555
C35 C36 1_555 1_555
C45 C46 1_555 1_555

#END
