
#######################################################################
#
#                 Cambridge Crystallographic Data Centre
#                                CCDC 
#
#######################################################################
#
# If this CIF has been generated from an entry in the Cambridge 
# Structural Database, then it will include bibliographic, chemical, 
# crystal, experimental, refinement or atomic coordinate data resulting 
# from the CCDC's data processing and validation procedures.
#
#######################################################################

data_EMITOK
_symmetry_cell_setting           monoclinic
_symmetry_space_group_name_H-M   'C 2/c'
_symmetry_Int_Tables_number      15
_space_group_name_Hall           '-C 2yn'
loop_
_symmetry_equiv_pos_site_id
_symmetry_equiv_pos_as_xyz
1 x,y,z
2 -x,y,1/2-z
3 1/2+x,1/2+y,z
4 1/2-x,1/2+y,1/2-z
5 -x,-y,-z
6 x,-y,1/2+z
7 1/2-x,1/2-y,-z
8 1/2+x,1/2-y,1/2+z
_cell_length_a                   18.5317(8)
_cell_length_b                   16.6605(6)
_cell_length_c                   22.9353(7)
_cell_angle_alpha                90
_cell_angle_beta                 94.289(3)
_cell_angle_gamma                90
_cell_volume                     7061.38
loop_
_atom_site_label
_atom_site_type_symbol
_atom_site_fract_x
_atom_site_fract_y
_atom_site_fract_z
Cd1 Cd 0.06417(2) -0.06896(2) 0.050220(13)
S1 S 0.26393(7) -0.33277(7) 0.29067(5)
O1 O 0.4508(2) -0.4333(2) 0.47361(14)
O2 O 0.5003(2) -0.3219(2) 0.50824(16)
O3 O 0.16234(19) -0.0406(2) 0.12289(14)
O4 O 0.1290(2) -0.1670(2) 0.10907(15)
O5 O 0.2947(2) -0.3892(2) 0.25204(15)
O6 O 0.1982(2) -0.3547(3) 0.31498(16)
N1 N -0.0137(2) -0.0514(3) 0.12276(18)
C1 C 0.3011(3) -0.1818(3) 0.28871(19)
C2 C 0.3294(3) -0.2996(3) 0.34543(18)
C3 C 0.4153(3) -0.3096(3) 0.42801(19)
C4 C 0.2136(3) -0.2172(3) 0.20823(18)
H1 H 0.1844 -0.2554 0.1886
C5 C 0.2567(3) -0.2368(3) 0.25759(18)
C6 C 0.3642(3) -0.3461(3) 0.38857(18)
H2 H 0.3540 -0.4006 0.3914
N2 N 0.1416(3) -0.0779(4) -0.0222(2)
C7 C 0.2154(3) -0.1382(3) 0.18859(19)
C8 C 0.3429(3) -0.2182(3) 0.33910(18)
C9 C 0.1660(3) -0.1126(3) 0.1362(2)
C10 C 0.4274(3) -0.2278(3) 0.4224(2)
H3 H 0.4607 -0.2029 0.4489
C11 C 0.3924(3) -0.1824(3) 0.3796(2)
H4 H 0.4017 -0.1276 0.3776
C12 C 0.2595(3) -0.0826(3) 0.2188(2)
H5 H 0.2603 -0.0300 0.2053
C13 C 0.3027(3) -0.1033(3) 0.2687(2)
H6 H 0.3320 -0.0652 0.2883
C14 C -0.0498(4) -0.1134(5) 0.1420(3)
H7 H -0.0453 -0.1629 0.1240
C15 C -0.0660(5) 0.0295(5) 0.1942(3)
H8 H -0.0719 0.0798 0.2108
C16 C -0.0227(4) 0.0191(4) 0.1486(3)
H9 H 0.0016 0.0635 0.1351
C17 C -0.0947(5) -0.1075(5) 0.1887(4)
H10 H -0.1200 -0.1516 0.2014
C18 C -0.0994(5) -0.0351(6) 0.2139(4)
H11 H -0.1267 -0.0298 0.2461
C19 C 0.1724(4) -0.0164(5) -0.0452(3)
H12 H 0.1606 0.0349 -0.0331
C20 C 0.2224(5) -0.0245(6) -0.0872(4)
H13 H 0.2430 0.0210 -0.1026
C21 C 0.2409(6) -0.0965(7) -0.1054(4)
H14 H 0.2740 -0.1024 -0.1336
C22 C 0.2102(5) -0.1610(6) -0.0819(4)
H15 H 0.2240 -0.2122 -0.0929
C23 C 0.1570(5) -0.1523(6) -0.0408(4)
H16 H 0.1335 -0.1970 -0.0269
C24 C 0.4577(3) -0.3580(3) 0.47300(19)
Cd1C Cd 0.43583(2) -0.56896(2) 0.449780(13)
Cd1G Cd 0.56417(2) -0.43104(2) 0.550220(13)
O1G O -0.0492(2) -0.0667(2) -0.02639(14)
O1C O 0.0492(2) 0.0667(2) 0.02639(14)
O2G O 0.0003(2) -0.1781(2) 0.00824(16)
loop_
_geom_bond_atom_site_label_1
_geom_bond_atom_site_label_2
_geom_bond_site_symmetry_1
_geom_bond_site_symmetry_2
Cd1 O3 1_555 1_555
S1 O5 1_555 1_555
O1 C24 1_555 1_555
O2 C24 1_555 1_555
O3 C9 1_555 1_555
O4 Cd1 1_555 1_555
O6 S1 1_555 1_555
N1 Cd1 1_555 1_555
C1 C5 1_555 1_555
C2 S1 1_555 1_555
C3 C6 1_555 1_555
C4 H1 1_555 1_555
C5 S1 1_555 1_555
C6 C2 1_555 1_555
H2 C6 1_555 1_555
N2 Cd1 1_555 1_555
C7 C4 1_555 1_555
C8 C1 1_555 1_555
C9 O4 1_555 1_555
C10 C3 1_555 1_555
H3 C10 1_555 1_555
C11 C8 1_555 1_555
H4 C11 1_555 1_555
C12 C7 1_555 1_555
H5 C12 1_555 1_555
C13 C1 1_555 1_555
H6 C13 1_555 1_555
C14 N1 1_555 1_555
H7 C14 1_555 1_555
C15 H8 1_555 1_555
C16 N1 1_555 1_555
H9 C16 1_555 1_555
C17 C14 1_555 1_555
H10 C17 1_555 1_555
C18 C15 1_555 1_555
H11 C18 1_555 1_555
C19 N2 1_555 1_555
H12 C19 1_555 1_555
C20 C19 1_555 1_555
H13 C20 1_555 1_555
C21 C20 1_555 1_555
H14 C21 1_555 1_555
C22 C21 1_555 1_555
H15 C22 1_555 1_555
C23 N2 1_555 1_555
H16 C23 1_555 1_555
C24 C3 1_555 1_555
Cd1C O1 1_555 1_555
Cd1G O1 1_555 1_555
O1G Cd1 1_555 1_555
O1C Cd1 1_555 1_555
O2G Cd1 1_555 1_555
O2 Cd1G 1_555 1_555
C2 C8 1_555 1_555
C4 C5 1_555 1_555
C7 C9 1_555 1_555
C10 C11 1_555 1_555
C12 C13 1_555 1_555
C15 C16 1_555 1_555
C17 C18 1_555 1_555
C22 C23 1_555 1_555

#END
