
#######################################################################
#
#                 Cambridge Crystallographic Data Centre
#                                CCDC 
#
#######################################################################
#
# If this CIF has been generated from an entry in the Cambridge 
# Structural Database, then it will include bibliographic, chemical, 
# crystal, experimental, refinement or atomic coordinate data resulting 
# from the CCDC's data processing and validation procedures.
#
#######################################################################

data_EMIVEC
_symmetry_cell_setting           triclinic
_symmetry_space_group_name_H-M   'P -1'
_symmetry_Int_Tables_number      2
_space_group_name_Hall           '-P 1'
loop_
_symmetry_equiv_pos_site_id
_symmetry_equiv_pos_as_xyz
1 x,y,z
2 -x,-y,-z
_cell_length_a                   7.2086(4)
_cell_length_b                   12.3243(7)
_cell_length_c                   13.8591(9)
_cell_angle_alpha                110.122(5)
_cell_angle_beta                 97.975(5)
_cell_angle_gamma                92.728(4)
_cell_volume                     1138.89
loop_
_atom_site_label
_atom_site_type_symbol
_atom_site_fract_x
_atom_site_fract_y
_atom_site_fract_z
Co1 Co 0.35104(5) 0.16346(3) 0.01927(3)
S1 S 0.21502(10) -0.22248(6) -0.53941(5)
O1 O 0.0526(3) -0.28408(16) -0.52623(15)
O2 O 0.3613(3) -0.29077(16) -0.58184(15)
O3 O 0.5543(3) 0.08599(17) -0.06579(15)
O4 O -0.1875(3) -0.21394(17) -0.89776(15)
O5 O -0.1298(3) -0.04082(17) -0.90279(15)
O6 O 0.5682(3) -0.10584(18) -0.13853(15)
N1 N 0.1802(3) 0.26478(19) 0.11987(17)
C1 C 0.6486(5) 0.5591(3) 0.1419(3)
H1 H 0.6982 0.6363 0.1637
C2 C 0.1524(4) -0.1317(2) -0.6105(2)
C3 C 0.2127(3) -0.0152(2) -0.5501(2)
N2 N 0.5023(3) 0.3293(2) 0.07662(18)
C4 C 0.3026(3) 0.0006(2) -0.4430(2)
C5 C 0.4490(3) 0.0980(2) -0.2657(2)
H2 H 0.4964 0.1667 -0.2112
C6 C 0.4557(3) -0.0062(2) -0.2486(2)
C7 C 0.3121(3) -0.1041(2) -0.4251(2)
C8 C 0.3878(4) -0.1100(2) -0.3302(2)
H3 H 0.3934 -0.1811 -0.3209
C9 C 0.2483(4) 0.3761(3) 0.1736(2)
C10 C 0.3737(3) 0.1030(2) -0.3617(2)
H4 H 0.3710 0.1739 -0.3714
C11 C -0.1035(4) -0.1140(3) -0.8597(2)
C12 C 0.0211(4) -0.0812(2) -0.7547(2)
C13 C 0.0850(4) 0.0340(2) -0.6969(2)
H5 H 0.0641 0.0900 -0.7271
C14 C 0.4227(4) 0.4139(3) 0.1431(2)
C15 C 0.5324(4) -0.0075(3) -0.1415(2)
C16 C 0.1795(3) 0.0679(2) -0.5953(2)
H6 H 0.2203 0.1457 -0.5578
C17 C 0.0572(4) -0.1658(2) -0.7111(2)
H7 H 0.0178 -0.2437 -0.7491
C18 C 0.0212(4) 0.2240(3) 0.1402(2)
H8 H -0.0269 0.1473 0.1024
C19 C 0.4971(5) 0.5299(3) 0.1779(3)
H9 H 0.4423 0.5867 0.2256
C20 C 0.1593(5) 0.4474(3) 0.2502(3)
H10 H 0.2083 0.5242 0.2867
C21 C 0.6544(4) 0.3587(3) 0.0422(3)
H11 H 0.7113 0.3008 -0.0032
C22 C -0.0747(5) 0.2911(3) 0.2152(3)
H12 H -0.1861 0.2604 0.2271
C23 C -0.0032(5) 0.4034(3) 0.2717(3)
H13 H -0.0634 0.4496 0.3240
C24 C 0.7297(5) 0.4737(4) 0.0726(3)
H14 H 0.8335 0.4926 0.0463
Co1A Co -0.35104(5) -0.16346(3) -1.01927(3)
Co1A_2 Co 0.64896(5) -0.16346(3) -0.01927(3)
O4A O 0.1875(3) 0.21394(17) -0.10224(15)
O5A O 0.1298(3) 0.04082(17) -0.09721(15)
O6A O 0.4318(3) 0.10584(18) 0.13853(15)
loop_
_geom_bond_atom_site_label_1
_geom_bond_atom_site_label_2
_geom_bond_site_symmetry_1
_geom_bond_site_symmetry_2
Co1 O3 1_555 1_555
S1 O1 1_555 1_555
O2 S1 1_555 1_555
O3 C15 1_555 1_555
O4 C11 1_555 1_555
O5 C11 1_555 1_555
O6 C15 1_555 1_555
N1 Co1 1_555 1_555
C1 H1 1_555 1_555
C2 S1 1_555 1_555
C3 C2 1_555 1_555
N2 Co1 1_555 1_555
C4 C3 1_555 1_555
C5 H2 1_555 1_555
C6 C5 1_555 1_555
C7 S1 1_555 1_555
C8 C6 1_555 1_555
H3 C8 1_555 1_555
C9 N1 1_555 1_555
C10 C4 1_555 1_555
H4 C10 1_555 1_555
C11 C12 1_555 1_555
C12 C13 1_555 1_555
C13 H5 1_555 1_555
C14 N2 1_555 1_555
C15 C6 1_555 1_555
C16 C3 1_555 1_555
H6 C16 1_555 1_555
C17 C2 1_555 1_555
H7 C17 1_555 1_555
C18 N1 1_555 1_555
H8 C18 1_555 1_555
C19 C1 1_555 1_555
H9 C19 1_555 1_555
C20 C9 1_555 1_555
H10 C20 1_555 1_555
C21 N2 1_555 1_555
H11 C21 1_555 1_555
C22 C18 1_555 1_555
H12 C22 1_555 1_555
C23 C20 1_555 1_555
H13 C23 1_555 1_555
C24 C1 1_555 1_555
H14 C24 1_555 1_555
Co1A O4 1_555 1_555
Co1A_2 O6 1_555 1_555
O4A Co1 1_555 1_555
O5A Co1 1_555 1_555
O6A Co1 1_555 1_555
O5 Co1A 1_555 1_555
C4 C7 1_555 1_555
C5 C10 1_555 1_555
C7 C8 1_555 1_555
C9 C14 1_555 1_555
C12 C17 1_555 1_555
C13 C16 1_555 1_555
C14 C19 1_555 1_555
C21 C24 1_555 1_555
C22 C23 1_555 1_555

#END
