
#######################################################################
#
#                 Cambridge Crystallographic Data Centre
#                                CCDC 
#
#######################################################################
#
# If this CIF has been generated from an entry in the Cambridge 
# Structural Database, then it will include bibliographic, chemical, 
# crystal, experimental, refinement or atomic coordinate data resulting 
# from the CCDC's data processing and validation procedures.
#
#######################################################################

data_EMIVAY
_symmetry_cell_setting           orthorhombic
_symmetry_space_group_name_H-M   'P b c m'
_symmetry_Int_Tables_number      57
_space_group_name_Hall           '-P 2c 2b'
loop_
_symmetry_equiv_pos_site_id
_symmetry_equiv_pos_as_xyz
1 x,y,z
2 -x,-y,1/2+z
3 x,1/2-y,-z
4 -x,1/2+y,1/2-z
5 -x,-y,-z
6 x,y,1/2-z
7 -x,1/2+y,z
8 x,1/2-y,1/2+z
_cell_length_a                   10.1389(7)
_cell_length_b                   22.0518(12)
_cell_length_c                   14.1837(9)
_cell_angle_alpha                90
_cell_angle_beta                 90
_cell_angle_gamma                90
_cell_volume                     3171.21
loop_
_atom_site_label
_atom_site_type_symbol
_atom_site_fract_x
_atom_site_fract_y
_atom_site_fract_z
Zn1 Zn 0.49383(6) 0.52546(3) 0.2500
S1 S 0.92709(15) 0.84080(6) 0.2500
O1 O 1.5515(5) 0.8870(2) 0.2500
O2 O 0.8868(3) 0.86919(13) 0.1643(2)
O3 O 0.6373(4) 0.58325(17) 0.2500
O4 O 1.3898(4) 0.95593(17) 0.2500
O5 O 0.5276(4) 0.6698(2) 0.2500
C1 C 1.1277(6) 0.7670(2) 0.2500
C2 C 1.3566(6) 0.7933(3) 0.2500
H1 H 1.4446 0.7815 0.2500
N1 N 0.3876(3) 0.52747(15) 0.1335(3)
C3 C 1.4348(7) 0.9018(3) 0.2500
N2 N 0.2598(4) 0.49863(19) 0.0160(3)
C4 C 1.0979(5) 0.8291(2) 0.2500
C5 C 0.7615(5) 0.6724(2) 0.2500
C6 C 1.1945(6) 0.8727(2) 0.2500
H2 H 1.1729 0.9137 0.2500
C7 C 1.0017(6) 0.6656(3) 0.2500
H3 H 1.0779 0.6422 0.2500
C8 C 1.0086(6) 0.7287(2) 0.2500
C9 C 1.2586(6) 0.7491(3) 0.2500
H4 H 1.2807 0.7082 0.2500
C10 C 0.3096(4) 0.48507(18) 0.1011(3)
H5 H 0.2908 0.4494 0.1335
C11 C 0.8783(6) 0.6388(3) 0.2500
H6 H 0.8729 0.5967 0.2500
C12 C 0.1658(5) 0.4636(3) -0.0385(4)
H7 H 0.1535 0.4243 -0.0088
H8 H 0.2009 0.4568 -0.1012
C13 C 0.7688(6) 0.7360(2) 0.2500
H9 H 0.6928 0.7596 0.2500
C14 C 0.0336(4) 0.4952(2) -0.0462(3)
H10 H 0.0466 0.5343 -0.0761
H11 H -0.0236 0.4714 -0.0866
C15 C 0.6298(6) 0.6406(2) 0.2500
C16 C 1.3261(6) 0.8540(2) 0.2500
C17 C 0.8910(6) 0.7621(2) 0.2500
C18 C 0.3887(6) 0.5723(3) 0.0666(4)
H12 H 0.4346 0.6087 0.0702
C19 C 0.3119(6) 0.5542(3) -0.0053(4)
H13 H 0.2966 0.5759 -0.0604
Zn1A Zn -0.49383(6) 0.47454(3) -0.2500
Zn1C Zn 1.50617(6) 1.02546(3) 0.2500
O2E O 0.8868(3) 0.86919(13) 0.3357(2)
O4C O 0.6102(4) 0.45593(17) 0.2500
N1D N -0.3876(3) 0.47253(15) -0.1335(3)
N1E N 0.3876(3) 0.52747(15) 0.3665(3)
N2D N -0.2598(4) 0.50137(19) -0.0160(3)
C10D C -0.3096(4) 0.51493(18) -0.1011(3)
H5D H -0.2908 0.5506 -0.1335
C12D C -0.1658(5) 0.5364(3) 0.0385(4)
H7D H -0.1535 0.5757 0.0088
H8D H -0.2009 0.5432 0.1012
C14D C -0.0336(4) 0.5048(2) 0.0462(3)
H10D H -0.0466 0.4657 0.0761
H11D H 0.0236 0.5286 0.0866
C18D C -0.3887(6) 0.4277(3) -0.0666(4)
H12D H -0.4346 0.3913 -0.0702
C19D C -0.3119(6) 0.4458(3) 0.0053(4)
H13D H -0.2966 0.4241 0.0604
loop_
_geom_bond_atom_site_label_1
_geom_bond_atom_site_label_2
_geom_bond_site_symmetry_1
_geom_bond_site_symmetry_2
Zn1 O3 1_555 1_555
S1 O2 1_555 1_555
O1 C3 1_555 1_555
O3 C15 1_555 1_555
O4 C3 1_555 1_555
O5 C15 1_555 1_555
C1 C4 1_555 1_555
C2 H1 1_555 1_555
N1 Zn1 1_555 1_555
C3 C16 1_555 1_555
N2 C10 1_555 1_555
C4 S1 1_555 1_555
C5 C11 1_555 1_555
C6 C4 1_555 1_555
H2 C6 1_555 1_555
C7 H3 1_555 1_555
C8 C1 1_555 1_555
C9 C1 1_555 1_555
H4 C9 1_555 1_555
C10 N1 1_555 1_555
H5 C10 1_555 1_555
C11 C7 1_555 1_555
H6 C11 1_555 1_555
C12 N2 1_555 1_555
H7 C12 1_555 1_555
H8 C12 1_555 1_555
C13 C5 1_555 1_555
H9 C13 1_555 1_555
C14 C12 1_555 1_555
H10 C14 1_555 1_555
H11 C14 1_555 1_555
C15 C5 1_555 1_555
C16 C2 1_555 1_555
C17 S1 1_555 1_555
C18 N1 1_555 1_555
H12 C18 1_555 1_555
C19 N2 1_555 1_555
H13 C19 1_555 1_555
Zn1A N1D 1_555 1_555
Zn1C O4 1_555 1_555
O2E S1 1_555 1_555
O4C Zn1 1_555 1_555
N1D C10D 1_555 1_555
N1E Zn1 1_555 1_555
N2D C10D 1_555 1_555
C10D H5D 1_555 1_555
C12D N2D 1_555 1_555
H7D C12D 1_555 1_555
H8D C12D 1_555 1_555
C14D C14 1_555 1_555
H10D C14D 1_555 1_555
H11D C14D 1_555 1_555
C18D N1D 1_555 1_555
H12D C18D 1_555 1_555
C19D N2D 1_555 1_555
H13D C19D 1_555 1_555
C2 C9 1_555 1_555
C6 C16 1_555 1_555
C7 C8 1_555 1_555
C8 C17 1_555 1_555
C13 C17 1_555 1_555
C18 C19 1_555 1_555
C12D C14D 1_555 1_555
C18D C19D 1_555 1_555

#END
