
#######################################################################
#
#                 Cambridge Crystallographic Data Centre
#                                CCDC 
#
#######################################################################
#
# If this CIF has been generated from an entry in the Cambridge 
# Structural Database, then it will include bibliographic, chemical, 
# crystal, experimental, refinement or atomic coordinate data resulting 
# from the CCDC's data processing and validation procedures.
#
#######################################################################

data_EMIYIJ
_symmetry_cell_setting           orthorhombic
_symmetry_space_group_name_H-M   'P b c n'
_symmetry_Int_Tables_number      60
_space_group_name_Hall           '-P 2n 2ab'
loop_
_symmetry_equiv_pos_site_id
_symmetry_equiv_pos_as_xyz
1 x,y,z
2 1/2-x,1/2-y,1/2+z
3 -x,y,1/2-z
4 1/2+x,1/2-y,-z
5 -x,-y,-z
6 1/2+x,1/2+y,1/2-z
7 x,-y,1/2+z
8 1/2-x,1/2+y,z
_cell_length_a                   13.3271(8)
_cell_length_b                   10.2322(6)
_cell_length_c                   8.0646(5)
_cell_angle_alpha                90
_cell_angle_beta                 90
_cell_angle_gamma                90
_cell_volume                     1099.73
loop_
_atom_site_label
_atom_site_type_symbol
_atom_site_fract_x
_atom_site_fract_y
_atom_site_fract_z
Cd1 Cd 0.5000 0.414738(14) 0.2500
S1 S 0.64747(3) 0.47795(4) -0.11438(5)
C1 C 0.60808(10) 0.31982(13) -0.07808(17)
C2 C 0.58799(14) 0.11011(16) -0.0968(2)
H1 H 0.5904 0.0249 -0.1368
C3 C 0.68258(15) 0.21445(19) -0.3334(2)
H2 H 0.6852 0.1271 -0.3765
H3 H 0.7496 0.2459 -0.3156
H4 H 0.6489 0.2702 -0.4113
N1 N 0.54590(12) 0.14383(13) 0.04226(19)
N2 N 0.55877(10) 0.27828(12) 0.05436(16)
N3 N 0.62788(10) 0.21469(12) -0.17622(16)
Cd1D Cd 0.5000 0.585262(14) -0.2500
Cd1D_2 Cd 0.5000 0.585262(14) 0.7500
S1B S 0.35253(3) 0.47795(4) 0.61438(5)
S1D S 0.35253(3) 0.52205(4) 0.11438(5)
S1F S 0.64747(3) 0.52205(4) 0.38562(5)
C1B C 0.39192(10) 0.31982(13) 0.57808(17)
C2B C 0.41201(14) 0.11011(16) 0.5968(2)
H1B H 0.4096 0.0249 0.6368
C3B C 0.31742(15) 0.21445(19) 0.8334(2)
H2B H 0.3148 0.1271 0.8765
H3B H 0.2504 0.2459 0.8156
H4B H 0.3511 0.2702 0.9113
N1B N 0.45410(12) 0.14383(13) 0.45774(19)
N2B N 0.44123(10) 0.27828(12) 0.44564(16)
N3B N 0.37212(10) 0.21469(12) 0.67622(16)
loop_
_geom_bond_atom_site_label_1
_geom_bond_atom_site_label_2
_geom_bond_site_symmetry_1
_geom_bond_site_symmetry_2
Cd1 N2 1_555 1_555
S1 C1 1_555 1_555
C1 N2 1_555 1_555
C2 H1 1_555 1_555
C3 H2 1_555 1_555
H3 C3 1_555 1_555
H4 C3 1_555 1_555
N1 C2 1_555 1_555
N2 N1 1_555 1_555
N3 C1 1_555 1_555
Cd1D S1 1_555 1_555
Cd1D_2 S1B 1_555 1_555
S1B C1B 1_555 1_555
S1D Cd1 1_555 1_555
S1F Cd1 1_555 1_555
C1B N2B 1_555 1_555
C2B H1B 1_555 1_555
C3B H2B 1_555 1_555
H3B C3B 1_555 1_555
H4B C3B 1_555 1_555
N1B C2B 1_555 1_555
N2B Cd1 1_555 1_555
N3B C1B 1_555 1_555
C2 N3 1_555 1_555
C3 N3 1_555 1_555
C2B N3B 1_555 1_555
C3B N3B 1_555 1_555
N1B N2B 1_555 1_555

#END
