
#######################################################################
#
#                 Cambridge Crystallographic Data Centre
#                                CCDC 
#
#######################################################################
#
# If this CIF has been generated from an entry in the Cambridge 
# Structural Database, then it will include bibliographic, chemical, 
# crystal, experimental, refinement or atomic coordinate data resulting 
# from the CCDC's data processing and validation procedures.
#
#######################################################################

data_EMIYAB
_symmetry_cell_setting           monoclinic
_symmetry_space_group_name_H-M   'P 21/c'
_symmetry_Int_Tables_number      14
_space_group_name_Hall           '-P 2ybc'
loop_
_symmetry_equiv_pos_site_id
_symmetry_equiv_pos_as_xyz
1 x,y,z
2 -x,1/2+y,1/2-z
3 -x,-y,-z
4 x,1/2-y,1/2+z
_cell_length_a                   10.9052(6)
_cell_length_b                   17.6030(10)
_cell_length_c                   7.8921(4)
_cell_angle_alpha                90
_cell_angle_beta                 92.640(2)
_cell_angle_gamma                90
_cell_volume                     1513.39
loop_
_atom_site_label
_atom_site_type_symbol
_atom_site_fract_x
_atom_site_fract_y
_atom_site_fract_z
Cu1 Cu 0.71301(7) 0.37561(4) -0.03453(9)
Mo1 Mo 0.80160(5) 0.17520(3) 0.06520(6)
C1 C -0.1471(6) 0.0106(3) -0.3311(8)
H1 H -0.2205 -0.0163 -0.3405
C2 C -0.0474(6) -0.0215(3) -0.2415(8)
H2 H -0.0537 -0.0691 -0.1911
C3 C 0.0618(6) 0.0188(3) -0.2288(8)
H3 H 0.1295 -0.0008 -0.1677
C4 C 0.0688(6) 0.0887(3) -0.3083(7)
C5 C -0.0341(6) 0.1176(3) -0.3951(7)
H4 H -0.0292 0.1646 -0.4481
C6 C 0.1855(6) 0.1285(3) -0.3070(7)
C7 C 0.3259(6) 0.2176(4) -0.3000(7)
C8 C 0.3852(5) 0.2918(3) -0.2899(7)
C9 C 0.3395(6) 0.3558(4) -0.3724(8)
H5 H 0.2649 0.3534 -0.4341
C10 C 0.4032(6) 0.4224(3) -0.3638(8)
H6 H 0.3744 0.4650 -0.4229
C11 C 0.5113(6) 0.4256(4) -0.2657(8)
H7 H 0.5530 0.4716 -0.2559
C12 C 0.4970(6) 0.2988(3) -0.1981(7)
H8 H 0.5304 0.2561 -0.1443
N1 N -0.1407(4) 0.0794(3) -0.4047(6)
N2 N 0.2920(5) 0.0951(3) -0.3252(7)
N3 N 0.2027(5) 0.2054(3) -0.2898(6)
N4 N 0.3805(5) 0.1516(3) -0.3231(7)
N5 N 0.5582(5) 0.3647(3) -0.1842(6)
O1 O 0.7185(4) 0.2595(2) 0.0549(6)
O2 O 0.7237(4) 0.1056(3) -0.0550(5)
O3 O 0.8166(4) 0.1429(2) 0.2796(5)
O4 O 0.9501(4) 0.1898(3) -0.0076(6)
O5 O 0.6096(5) 0.4104(3) 0.1474(6)
N6 N 0.1174(5) 0.2605(3) -0.2379(7)
H9 H 0.1421 0.3054 -0.2099
H10 H 0.0409 0.2491 -0.2343
H11 H 0.559(6) 0.385(3) 0.180(8)
H12 H 0.644(7) 0.403(4) 0.250(9)
Cu1C Cu -0.28699(7) 0.12439(4) -0.53453(9)
Cu1C_2 Cu 0.71301(7) 0.12439(4) 0.46547(9)
N1C N 0.8593(4) 0.4206(3) 0.0953(6)
O3C O 0.8166(4) 0.3571(2) -0.2204(5)
loop_
_geom_bond_atom_site_label_1
_geom_bond_atom_site_label_2
_geom_bond_site_symmetry_1
_geom_bond_site_symmetry_2
Cu1 N5 1_555 1_555
Mo1 O1 1_555 1_555
C1 H1 1_555 1_555
C2 C1 1_555 1_555
H2 C2 1_555 1_555
C3 C2 1_555 1_555
H3 C3 1_555 1_555
C4 C3 1_555 1_555
C5 C4 1_555 1_555
H4 C5 1_555 1_555
C6 C4 1_555 1_555
C7 C8 1_555 1_555
C8 C9 1_555 1_555
C9 H5 1_555 1_555
C10 C9 1_555 1_555
H6 C10 1_555 1_555
C11 C10 1_555 1_555
H7 C11 1_555 1_555
C12 C8 1_555 1_555
H8 C12 1_555 1_555
N1 C1 1_555 1_555
N2 C6 1_555 1_555
N3 C6 1_555 1_555
N4 C7 1_555 1_555
N5 C11 1_555 1_555
O1 Cu1 1_555 1_555
O2 Mo1 1_555 1_555
O3 Mo1 1_555 1_555
O4 Mo1 1_555 1_555
O5 Cu1 1_555 1_555
N6 N3 1_555 1_555
H9 N6 1_555 1_555
H10 N6 1_555 1_555
H11 O5 1_555 1_555
H12 O5 1_555 1_555
Cu1C N1 1_555 1_555
Cu1C_2 O3 1_555 1_555
N1C Cu1 1_555 1_555
O3C Cu1 1_555 1_555
C5 N1 1_555 1_555
C7 N3 1_555 1_555
C12 N5 1_555 1_555
N2 N4 1_555 1_555

#END
