
#######################################################################
#
#                 Cambridge Crystallographic Data Centre
#                                CCDC 
#
#######################################################################
#
# If this CIF has been generated from an entry in the Cambridge 
# Structural Database, then it will include bibliographic, chemical, 
# crystal, experimental, refinement or atomic coordinate data resulting 
# from the CCDC's data processing and validation procedures.
#
#######################################################################

data_EMIYEF
_symmetry_cell_setting           triclinic
_symmetry_space_group_name_H-M   'P -1'
_symmetry_Int_Tables_number      2
_space_group_name_Hall           '-P 1'
loop_
_symmetry_equiv_pos_site_id
_symmetry_equiv_pos_as_xyz
1 x,y,z
2 -x,-y,-z
_cell_length_a                   9.5193(8)
_cell_length_b                   10.9534(9)
_cell_length_c                   11.4935(9)
_cell_angle_alpha                91.7860(10)
_cell_angle_beta                 113.8000(10)
_cell_angle_gamma                105.4690(10)
_cell_volume                     1043.61
loop_
_atom_site_label
_atom_site_type_symbol
_atom_site_fract_x
_atom_site_fract_y
_atom_site_fract_z
Co1 Co 1.0000 0.5000 0.5000
Mo1 Mo 1.58111(4) 0.37889(3) 1.25017(3)
Mo2 Mo 1.48849(4) 0.35266(3) 0.93653(3)
Mo3 Mo 1.47606(4) 0.07135(3) 1.13998(3)
C1 C 1.0885(5) 0.2847(4) 0.9430(4)
C2 C 0.9799(5) 0.2668(4) 0.8056(4)
C3 C 1.0199(5) 0.3583(4) 0.7352(4)
H1 H 1.1102 0.4294 0.7780
C4 C 0.8077(6) 0.2458(4) 0.5480(4)
H2 H 0.7494 0.2368 0.4593
C5 C 0.7591(7) 0.1507(5) 0.6129(5)
H3 H 0.6686 0.0804 0.5679
C6 C 0.8444(6) 0.1601(5) 0.7432(5)
H4 H 0.8129 0.0977 0.7883
C7 C 1.1764(5) 0.2992(4) 1.1523(4)
C8 C 1.1823(5) 0.2982(4) 1.2826(4)
C9 C 1.1074(5) 0.3717(4) 1.3229(4)
H5 H 1.0503 0.4176 1.2650
C10 C 1.1958(5) 0.3135(4) 1.5224(4)
H6 H 1.2014 0.3188 1.6052
C11 C 1.2735(6) 0.2372(4) 1.4902(4)
H7 H 1.3289 0.1919 1.5499
C12 C 1.2676(5) 0.2294(4) 1.3684(4)
H8 H 1.3194 0.1794 1.3443
N1 N 1.2456(4) 0.3179(3) 0.9930(3)
N2 N 1.3005(4) 0.3260(3) 1.1245(3)
N3 N 1.0402(4) 0.2725(3) 1.0414(3)
N4 N 0.8832(4) 0.2374(4) 1.0345(4)
H9 H 0.8694 0.2318 1.1038
H10 H 0.8013 0.2215 0.9610
N5 N 0.9348(4) 0.3497(3) 0.6080(3)
N6 N 1.1135(4) 0.3795(3) 1.4411(3)
O1 O 1.5347(4) 0.4590(3) 1.3507(3)
O2 O 1.5702(3) 0.4897(2) 1.1145(2)
O3 O 1.5236(3) 0.2103(2) 1.2791(2)
O4 O 0.7919(3) 0.4200(3) 0.3306(2)
O5 O 1.3474(4) 0.2458(3) 0.8030(3)
O6 O 1.6635(4) 0.3860(3) 0.9182(3)
O7 O 1.5332(3) 0.2559(2) 1.0717(2)
O8 O 1.2706(4) 0.0403(3) 1.0702(3)
O9 O 1.5000 0.0000 1.0000
O10 O 1.7560(4) 0.1428(3) 1.2274(3)
H11 H 1.7849 0.1917 1.1832
H12 H 1.8041 0.0894 1.2626
O11 O 1.5029(4) -0.0397(3) 1.2396(3)
Co1_2 Co 1.0000 0.5000 1.5000
Co1_3 Co 1.0000 0.5000 -0.5000
Mo1A Mo 0.41889(4) 0.62111(3) -0.25017(3)
Mo1_2 Mo 0.58111(4) 0.37889(3) 0.25017(3)
Mo1A_2 Mo 1.41889(4) 0.62111(3) 0.74983(3)
Mo2A Mo 0.51151(4) 0.64734(3) 0.06347(3)
Mo2A_2 Mo 1.51151(4) 0.64734(3) 1.06347(3)
Mo2_2 Mo 0.48849(4) 0.35266(3) -0.06347(3)
Mo3A Mo 0.52394(4) 0.92865(3) -0.13998(3)
Mo3A_2 Mo 1.52394(4) -0.07135(3) 0.86002(3)
C1A C 0.9115(5) 0.7153(4) 0.0570(4)
C2A C 1.0201(5) 0.7332(4) 0.1944(4)
C3A C 0.9801(5) 0.6417(4) 0.2648(4)
H1A H 0.8898 0.5706 0.2220
C4A C 1.1923(6) 0.7542(4) 0.4520(4)
H2A H 1.2506 0.7632 0.5407
C5A C 1.2409(7) 0.8493(5) 0.3871(5)
H3A H 1.3314 0.9196 0.4321
C6A C 1.1556(6) 0.8399(5) 0.2568(5)
H4A H 1.1871 0.9023 0.2117
C7A C 0.8236(5) 0.7008(4) -0.1523(4)
C8A C 0.8177(5) 0.7018(4) -0.2826(4)
C9A C 0.8926(5) 0.6283(4) -0.3229(4)
H5A H 0.9497 0.5824 -0.2650
C10A C 0.8042(5) 0.6865(4) -0.5224(4)
H6A H 0.7986 0.6812 -0.6052
C11A C 0.7265(6) 0.7628(4) -0.4902(4)
H7A H 0.6711 0.8081 -0.5499
C12A C 0.7324(5) 0.7706(4) -0.3684(4)
H8A H 0.6806 0.8206 -0.3443
N1A N 0.7544(4) 0.6821(3) 0.0070(3)
N2A N 0.6995(4) 0.6740(3) -0.1245(3)
N3A N 0.9598(4) 0.7275(3) -0.0414(3)
N4A N 1.1168(4) 0.7626(4) -0.0345(4)
H9A H 1.1306 0.7682 -0.1038
H10A H 1.1987 0.7785 0.0390
N5A N 1.0652(4) 0.6503(3) 0.3920(3)
N6A N 0.8865(4) 0.6205(3) -0.4411(3)
N6_2 N 1.1135(4) 0.3795(3) 0.4411(3)
N6A_2 N 0.8865(4) 0.6205(3) 0.5589(3)
O1A O 0.4653(4) 0.5410(3) -0.3507(3)
O2A O 0.4298(3) 0.5103(2) -0.1145(2)
O2A_2 O 1.4298(3) 0.5103(2) 0.8855(2)
O2_2 O 0.5702(3) 0.4897(2) 0.1145(2)
O3A O 0.4764(3) 0.7897(2) -0.2791(2)
O4A O 1.2081(3) 0.5800(3) 0.6694(2)
O4_2 O 1.7919(3) 0.4200(3) 1.3306(2)
O4A_2 O 0.2081(3) 0.5800(3) -0.3306(2)
O5A O 0.6526(4) 0.7542(3) 0.1970(3)
O6A O 0.3365(4) 0.6140(3) 0.0818(3)
O7A O 0.4668(3) 0.7441(2) -0.0717(2)
O8A O 0.7294(4) 0.9597(3) -0.0702(3)
O9_2 O 0.5000 1.0000 0.0000
O10A O 0.2440(4) 0.8572(3) -0.2274(3)
H11A H 0.2151 0.8083 -0.1832
H12A H 0.1959 0.9106 -0.2626
O11A O 0.4971(4) 1.0397(3) -0.2396(3)
O12 O 0.0898(6) 0.0224(5) 0.6516(6)
H13 H 0.1274 0.1020 0.6819
H14 H 0.0497 0.0037 0.5701
loop_
_geom_bond_atom_site_label_1
_geom_bond_atom_site_label_2
_geom_bond_site_symmetry_1
_geom_bond_site_symmetry_2
Co1 N5 1_555 1_555
Mo1 N2 1_555 1_555
Mo2 O2 1_555 1_555
Mo3 O3 1_555 1_555
C1 C2 1_555 1_555
C2 C3 1_555 1_555
C3 H1 1_555 1_555
C4 H2 1_555 1_555
C5 C4 1_555 1_555
H3 C5 1_555 1_555
C6 C2 1_555 1_555
H4 C6 1_555 1_555
C7 C8 1_555 1_555
C8 C9 1_555 1_555
C9 H5 1_555 1_555
C10 H6 1_555 1_555
C11 C10 1_555 1_555
H7 C11 1_555 1_555
C12 C8 1_555 1_555
H8 C12 1_555 1_555
N1 C1 1_555 1_555
N2 C7 1_555 1_555
N3 C1 1_555 1_555
N4 N3 1_555 1_555
H9 N4 1_555 1_555
H10 N4 1_555 1_555
N5 C3 1_555 1_555
N6 C9 1_555 1_555
O1 Mo1 1_555 1_555
O2 Mo1 1_555 1_555
O3 Mo1 1_555 1_555
O4 Co1 1_555 1_555
O5 Mo2 1_555 1_555
O6 Mo2 1_555 1_555
O7 Mo1 1_555 1_555
O8 Mo3 1_555 1_555
O9 Mo3 1_555 1_555
O10 Mo3 1_555 1_555
H11 O10 1_555 1_555
H12 O10 1_555 1_555
O11 Mo3 1_555 1_555
O12 H13 1_555 1_555
H14 O12 1_555 1_555
Co1_2 N6 1_555 1_555
Co1_3 N6A 1_555 1_555
Mo1A N2A 1_555 1_555
Mo1_2 O4 1_555 1_555
Mo1A_2 O2A_2 1_555 1_555
Mo2A O2A 1_555 1_555
Mo2A_2 O2 1_555 1_555
Mo2_2 O2A 1_555 1_555
Mo3A O3A 1_555 1_555
Mo3A_2 O9 1_555 1_555
C1A C2A 1_555 1_555
C2A C3A 1_555 1_555
C3A H1A 1_555 1_555
C4A H2A 1_555 1_555
C5A C4A 1_555 1_555
H3A C5A 1_555 1_555
C6A C2A 1_555 1_555
H4A C6A 1_555 1_555
C7A C8A 1_555 1_555
C8A C9A 1_555 1_555
C9A H5A 1_555 1_555
C10A H6A 1_555 1_555
C11A C10A 1_555 1_555
H7A C11A 1_555 1_555
C12A C8A 1_555 1_555
H8A C12A 1_555 1_555
N1A C1A 1_555 1_555
N2A C7A 1_555 1_555
N3A C1A 1_555 1_555
N4A N3A 1_555 1_555
H9A N4A 1_555 1_555
H10A N4A 1_555 1_555
N5A Co1 1_555 1_555
N6A C9A 1_555 1_555
N6_2 Co1 1_555 1_555
N6A_2 Co1 1_555 1_555
O1A Mo1A 1_555 1_555
O2A Mo1A 1_555 1_555
O2A_2 Mo2 1_555 1_555
O2_2 Mo1_2 1_555 1_555
O3A Mo1A 1_555 1_555
O4A Co1 1_555 1_555
O4_2 Mo1 1_555 1_555
O4A_2 Mo1A 1_555 1_555
O5A Mo2A 1_555 1_555
O6A Mo2A 1_555 1_555
O7A Mo1A 1_555 1_555
O8A Mo3A 1_555 1_555
O9_2 Mo3A 1_555 1_555
O10A Mo3A 1_555 1_555
H11A O10A 1_555 1_555
H12A O10A 1_555 1_555
O11A Mo3A 1_555 1_555
Mo2 O7 1_555 1_555
Mo3 O7 1_555 1_555
C4 N5 1_555 1_555
C5 C6 1_555 1_555
C7 N3 1_555 1_555
C10 N6 1_555 1_555
C11 C12 1_555 1_555
N1 N2 1_555 1_555
Mo1A_2 O4A 1_555 1_555
Mo2A O2_2 1_555 1_555
Mo2A O7A 1_555 1_555
Mo2A_2 O2A_2 1_555 1_555
Mo2_2 O2_2 1_555 1_555
Mo3A O7A 1_555 1_555
C3A N5A 1_555 1_555
C4A N5A 1_555 1_555
C5A C6A 1_555 1_555
C7A N3A 1_555 1_555
C10A N6A 1_555 1_555
C11A C12A 1_555 1_555
N1A N2A 1_555 1_555

#END
