
#######################################################################
#
#                 Cambridge Crystallographic Data Centre
#                                CCDC 
#
#######################################################################
#
# If this CIF has been generated from an entry in the Cambridge 
# Structural Database, then it will include bibliographic, chemical, 
# crystal, experimental, refinement or atomic coordinate data resulting 
# from the CCDC's data processing and validation procedures.
#
#######################################################################

data_EMIZEG
_symmetry_cell_setting           orthorhombic
_symmetry_space_group_name_H-M   'P b c n'
_symmetry_Int_Tables_number      60
_space_group_name_Hall           '-P 2n 2ab'
loop_
_symmetry_equiv_pos_site_id
_symmetry_equiv_pos_as_xyz
1 x,y,z
2 1/2-x,1/2-y,1/2+z
3 -x,y,1/2-z
4 1/2+x,1/2-y,-z
5 -x,-y,-z
6 1/2+x,1/2+y,1/2-z
7 x,-y,1/2+z
8 1/2-x,1/2+y,z
_cell_length_a                   10.813(2)
_cell_length_b                   7.6106(16)
_cell_length_c                   17.770(4)
_cell_angle_alpha                90
_cell_angle_beta                 90
_cell_angle_gamma                90
_cell_volume                     1462.35
loop_
_atom_site_label
_atom_site_type_symbol
_atom_site_fract_x
_atom_site_fract_y
_atom_site_fract_z
Cd1 Cd 0.178551(16) 0.17230(2) 0.670668(10)
S1 S -0.05098(6) 0.18389(8) 0.63715(4)
N1 N -0.15154(18) -0.0436(3) 0.73800(11)
N2 N -0.08622(18) -0.1758(3) 0.63650(12)
C1 C -0.0972(2) -0.0175(3) 0.67206(13)
C2 C -0.1346(3) -0.2955(3) 0.68362(15)
H1 H -0.1388 -0.4153 0.6736
C3 C -0.0396(3) -0.2070(4) 0.55993(15)
H2 H -0.0417 -0.3306 0.5492
H3 H 0.0439 -0.1652 0.5562
H4 H -0.0906 -0.1456 0.5244
N3 N -0.17482(17) -0.2221(3) 0.74524(12)
Cl1 Cl 0.29574(7) -0.04261(8) 0.58955(4)
Cd1B Cd -0.178551(16) 0.17230(2) 0.829332(10)
Cd1E Cd -0.321449(16) -0.32770(2) 0.829332(10)
Cd1G Cd 0.321449(16) -0.32770(2) 0.670668(10)
N1B N 0.15154(18) -0.0436(3) 0.76200(11)
N3E N 0.32518(17) 0.2779(3) 0.75476(12)
Cl1G Cl 0.20426(7) 0.45739(8) 0.58955(4)
loop_
_geom_bond_atom_site_label_1
_geom_bond_atom_site_label_2
_geom_bond_site_symmetry_1
_geom_bond_site_symmetry_2
Cd1 S1 1_555 1_555
S1 C1 1_555 1_555
N1 C1 1_555 1_555
N2 C1 1_555 1_555
C2 N2 1_555 1_555
H1 C2 1_555 1_555
C3 N2 1_555 1_555
H2 C3 1_555 1_555
H3 C3 1_555 1_555
H4 C3 1_555 1_555
N3 N1 1_555 1_555
Cl1 Cd1 1_555 1_555
Cd1B N1 1_555 1_555
Cd1E N3 1_555 1_555
Cd1G Cl1 1_555 1_555
N1B Cd1 1_555 1_555
N3E Cd1 1_555 1_555
Cl1G Cd1 1_555 1_555
C2 N3 1_555 1_555

#END
