
#######################################################################
#
#                 Cambridge Crystallographic Data Centre
#                                CCDC 
#
#######################################################################
#
# If this CIF has been generated from an entry in the Cambridge 
# Structural Database, then it will include bibliographic, chemical, 
# crystal, experimental, refinement or atomic coordinate data resulting 
# from the CCDC's data processing and validation procedures.
#
#######################################################################

data_EMIZIK
_symmetry_cell_setting           triclinic
_symmetry_space_group_name_H-M   'P -1'
_symmetry_Int_Tables_number      2
_space_group_name_Hall           '-P 1'
loop_
_symmetry_equiv_pos_site_id
_symmetry_equiv_pos_as_xyz
1 x,y,z
2 -x,-y,-z
_cell_length_a                   6.8059(4)
_cell_length_b                   9.6914(5)
_cell_length_c                   9.7577(5)
_cell_angle_alpha                90.5700(10)
_cell_angle_beta                 109.6640(10)
_cell_angle_gamma                94.7980(10)
_cell_volume                     603.45
loop_
_atom_site_label
_atom_site_type_symbol
_atom_site_fract_x
_atom_site_fract_y
_atom_site_fract_z
Cd1 Cd 0.0000 0.0000 0.5000
Cd2 Cd -0.49649(2) -0.179760(15) 0.504840(16)
S1 S -0.29952(10) -0.25015(8) 0.75766(7)
S2 S 0.44710(9) 0.32829(7) 0.70117(7)
O1 O 0.3453(2) -0.00579(15) 0.56895(16)
H1 H 0.366(5) -0.002(3) 0.6638(13)
N1 N 0.2350(3) -0.0288(3) 0.8363(2)
N2 N 0.0345(3) -0.0744(2) 0.7407(2)
N3 N 0.0723(3) -0.1580(2) 0.9547(2)
N4 N -0.1614(3) 0.29879(19) 0.5696(2)
N5 N 0.0249(3) 0.24217(19) 0.5806(2)
N6 N 0.0982(3) 0.44961(18) 0.6869(2)
C1 C -0.0600(3) -0.1535(2) 0.8142(2)
C2 C 0.2508(4) -0.0811(3) 0.9612(3)
H2 H 0.3694 -0.0676 1.0442
C3 C 0.0331(5) -0.2345(4) 1.0717(3)
H3 H -0.1063 -0.2801 1.0373
H4 H 0.0476 -0.1715 1.1518
H5 H 0.1324 -0.3023 1.1034
C4 C 0.1806(3) 0.3354(2) 0.6519(2)
C5 C -0.1119(3) 0.4219(2) 0.6333(3)
H6 H -0.2078 0.4820 0.6406
C6 C 0.2147(4) 0.5738(3) 0.7716(3)
H7 H 0.1181 0.6374 0.7800
H8 H 0.3042 0.6171 0.7235
H9 H 0.2982 0.5485 0.8670
Cd2A Cd 0.49649(2) 0.179760(15) 0.495160(16)
Cd2_2 Cd 0.50351(2) -0.179760(15) 0.504840(16)
Cd2A_2 Cd -0.50351(2) 0.179760(15) 0.495160(16)
S1A S 0.29952(10) 0.25015(8) 0.24234(7)
S2A S -0.44710(9) -0.32829(7) 0.29883(7)
O1A O -0.3453(2) 0.00579(15) 0.43105(16)
O1_2 O -0.6547(2) -0.00579(15) 0.56895(16)
O1A_2 O 0.6547(2) 0.00579(15) 0.43105(16)
H1A H -0.366(5) 0.002(3) 0.3362(13)
H1_2 H -0.634(5) -0.002(3) 0.6638(13)
H1A_2 H 0.634(5) 0.002(3) 0.3362(13)
N1A N -0.2350(3) 0.0288(3) 0.1637(2)
N2A N -0.0345(3) 0.0744(2) 0.2593(2)
N3A N -0.0723(3) 0.1580(2) 0.0453(2)
N4A N 0.1614(3) -0.29879(19) 0.4304(2)
N4A_2 N -0.8386(3) -0.29879(19) 0.4304(2)
N4_2 N 0.8386(3) 0.29879(19) 0.5696(2)
N5A N -0.0249(3) -0.24217(19) 0.4194(2)
N6A N -0.0982(3) -0.44961(18) 0.3131(2)
C1A C 0.0600(3) 0.1535(2) 0.1858(2)
C2A C -0.2508(4) 0.0811(3) 0.0388(3)
H2A H -0.3694 0.0676 -0.0442
C3A C -0.0331(5) 0.2345(4) -0.0717(3)
H3A H 0.1063 0.2801 -0.0373
H4A H -0.0476 0.1715 -0.1518
H5A H -0.1324 0.3023 -0.1034
C4A C -0.1806(3) -0.3354(2) 0.3481(2)
C5A C 0.1119(3) -0.4219(2) 0.3667(3)
H6A H 0.2078 -0.4820 0.3594
C6A C -0.2147(4) -0.5738(3) 0.2284(3)
H7A H -0.1181 -0.6374 0.2200
H8A H -0.3042 -0.6171 0.2765
H9A H -0.2982 -0.5485 0.1330
loop_
_geom_bond_atom_site_label_1
_geom_bond_atom_site_label_2
_geom_bond_site_symmetry_1
_geom_bond_site_symmetry_2
Cd1 O1 1_555 1_555
Cd2 S1 1_555 1_555
S1 C1 1_555 1_555
S2 C4 1_555 1_555
O1 H1 1_555 1_555
N1 N2 1_555 1_555
N2 Cd1 1_555 1_555
N3 C1 1_555 1_555
N4 N5 1_555 1_555
N5 Cd1 1_555 1_555
N6 C4 1_555 1_555
C1 N2 1_555 1_555
C2 N1 1_555 1_555
H2 C2 1_555 1_555
C3 N3 1_555 1_555
H3 C3 1_555 1_555
H4 C3 1_555 1_555
H5 C3 1_555 1_555
C4 N5 1_555 1_555
C5 N4 1_555 1_555
H6 C5 1_555 1_555
C6 N6 1_555 1_555
H7 C6 1_555 1_555
H8 C6 1_555 1_555
H9 C6 1_555 1_555
Cd2A S2 1_555 1_555
Cd2_2 O1 1_555 1_555
Cd2A_2 N4 1_555 1_555
S1A Cd2A 1_555 1_555
S2A Cd2 1_555 1_555
O1A Cd1 1_555 1_555
O1_2 Cd2 1_555 1_555
O1A_2 Cd2A 1_555 1_555
H1A O1A 1_555 1_555
H1_2 O1_2 1_555 1_555
H1A_2 O1A_2 1_555 1_555
N1A N2A 1_555 1_555
N2A Cd1 1_555 1_555
N3A C1A 1_555 1_555
N4A Cd2_2 1_555 1_555
N4A_2 Cd2 1_555 1_555
N4_2 Cd2A 1_555 1_555
N5A Cd1 1_555 1_555
N6A C4A 1_555 1_555
C1A S1A 1_555 1_555
C2A N1A 1_555 1_555
H2A C2A 1_555 1_555
C3A N3A 1_555 1_555
H3A C3A 1_555 1_555
H4A C3A 1_555 1_555
H5A C3A 1_555 1_555
C4A S2A 1_555 1_555
C5A N4A 1_555 1_555
H6A C5A 1_555 1_555
C6A N6A 1_555 1_555
H7A C6A 1_555 1_555
H8A C6A 1_555 1_555
H9A C6A 1_555 1_555
Cd2 O1A 1_555 1_555
O1 Cd2A 1_555 1_555
N3 C2 1_555 1_555
N6 C5 1_555 1_555
Cd2_2 O1A_2 1_555 1_555
Cd2A_2 O1A 1_555 1_555
Cd2A_2 O1_2 1_555 1_555
N2A C1A 1_555 1_555
N3A C2A 1_555 1_555
N4A N5A 1_555 1_555
N5A C4A 1_555 1_555
N6A C5A 1_555 1_555

#END
