
#######################################################################
#
#                 Cambridge Crystallographic Data Centre
#                                CCDC 
#
#######################################################################
#
# If this CIF has been generated from an entry in the Cambridge 
# Structural Database, then it will include bibliographic, chemical, 
# crystal, experimental, refinement or atomic coordinate data resulting 
# from the CCDC's data processing and validation procedures.
#
#######################################################################

data_EMIZAC
_symmetry_cell_setting           orthorhombic
_symmetry_space_group_name_H-M   'P b c n'
_symmetry_Int_Tables_number      60
_space_group_name_Hall           '-P 2n 2ab'
loop_
_symmetry_equiv_pos_site_id
_symmetry_equiv_pos_as_xyz
1 x,y,z
2 1/2-x,1/2-y,1/2+z
3 -x,y,1/2-z
4 1/2+x,1/2-y,-z
5 -x,-y,-z
6 1/2+x,1/2+y,1/2-z
7 x,-y,1/2+z
8 1/2-x,1/2+y,z
_cell_length_a                   10.8254(5)
_cell_length_b                   7.8337(3)
_cell_length_c                   17.8083(8)
_cell_angle_alpha                90
_cell_angle_beta                 90
_cell_angle_gamma                90
_cell_volume                     1510.2
loop_
_atom_site_label
_atom_site_type_symbol
_atom_site_fract_x
_atom_site_fract_y
_atom_site_fract_z
Cd1 Cd 0.177604(19) 0.18079(2) 0.671498(11)
Br1 Br 0.30419(3) -0.02868(4) 0.584126(17)
S1 S -0.05243(7) 0.18772(9) 0.63890(4)
N1 N -0.1540(2) -0.0343(3) 0.73905(12)
N2 N -0.0884(2) -0.1612(3) 0.63748(12)
C1 C -0.0993(3) -0.0081(3) 0.67325(13)
C2 C -0.1370(3) -0.2782(4) 0.68395(16)
H1 H -0.1409 -0.3945 0.6737
C3 C -0.0428(3) -0.1904(4) 0.56115(16)
H2 H -0.0445 -0.3104 0.5503
H3 H 0.0405 -0.1490 0.5571
H4 H -0.0944 -0.1308 0.5260
N3 N -0.1781(2) -0.2073(3) 0.74539(13)
Cd1G Cd 0.322396(19) -0.31921(2) 0.671498(11)
Cd1B Cd -0.177604(19) 0.18079(2) 0.828502(11)
Cd1E Cd -0.322396(19) -0.31921(2) 0.828502(11)
Br1G Br 0.19581(3) 0.47132(4) 0.584126(17)
N1B N 0.1540(2) -0.0343(3) 0.76095(12)
N3E N 0.3219(2) 0.2927(3) 0.75461(13)
loop_
_geom_bond_atom_site_label_1
_geom_bond_atom_site_label_2
_geom_bond_site_symmetry_1
_geom_bond_site_symmetry_2
Cd1 Br1 1_555 1_555
Br1 Cd1G 1_555 1_555
S1 Cd1 1_555 1_555
N1 C1 1_555 1_555
N2 C1 1_555 1_555
C1 S1 1_555 1_555
C2 N2 1_555 1_555
H1 C2 1_555 1_555
C3 N2 1_555 1_555
H2 C3 1_555 1_555
H3 C3 1_555 1_555
H4 C3 1_555 1_555
N3 N1 1_555 1_555
Cd1B N1 1_555 1_555
Cd1E N3 1_555 1_555
Br1G Cd1 1_555 1_555
N1B Cd1 1_555 1_555
N3E Cd1 1_555 1_555
C2 N3 1_555 1_555

#END
