
#######################################################################
#
#                 Cambridge Crystallographic Data Centre
#                                CCDC 
#
#######################################################################
#
# If this CIF has been generated from an entry in the Cambridge 
# Structural Database, then it will include bibliographic, chemical, 
# crystal, experimental, refinement or atomic coordinate data resulting 
# from the CCDC's data processing and validation procedures.
#
#######################################################################

data_EMODEP
_symmetry_cell_setting           triclinic
_symmetry_space_group_name_H-M   'P -1'
_symmetry_Int_Tables_number      2
_space_group_name_Hall           '-P 1'
loop_
_symmetry_equiv_pos_site_id
_symmetry_equiv_pos_as_xyz
1 x,y,z
2 -x,-y,-z
_cell_length_a                   9.1157(5)
_cell_length_b                   9.3593(6)
_cell_length_c                   13.3810(8)
_cell_angle_alpha                96.404(2)
_cell_angle_beta                 97.138(2)
_cell_angle_gamma                116.682(2)
_cell_volume                     993.956
loop_
_atom_site_label
_atom_site_type_symbol
_atom_site_fract_x
_atom_site_fract_y
_atom_site_fract_z
Zn1 Zn 0.28761 0.54191 0.2382(1)
Zn2 Zn -0.0451(1) 0.8996(1) 0.2461(1)
O1 O 0.0866(3) 0.5531(3) 0.1496(2)
O2 O 0.1441(4) 0.3864(3) 0.3286(2)
O3 O 0.5190(3) 0.5906(3) 0.3205(2)
O4 O 0.2366(4) 0.3201(3) 0.1528(2)
O5 O 0.4494(3) 0.6890(4) 0.1481(2)
O6 O 0.2973(3) 0.7469(3) 0.3242(2)
O7 O 0.1607(3) 0.8939(4) 0.3279(2)
O8 O 0.7214(4) 0.8535(4) 0.1602(2)
O9 O -0.0544(4) 0.6945(4) 0.1557(2)
O10 O 0.0038(4) 0.1221(3) 0.3288(2)
O11 O 0.7906(3) 0.7526(4) 0.3312(2)
O12 O 0.0943(4) 0.0545(3) 0.1532(2)
C1 C 0.0605(5) 0.6660(5) 0.1896(3)
C2 C 0.1842(5) 0.7795(5) 0.2902(3)
C3 C 0.6396(5) 0.6920(5) 0.2901(3)
C4 C 0.6008(5) 0.7515(5) 0.1902(3)
C5 C 0.1455(5) 0.2027(5) 0.1894(3)
C6 C 0.0928(5) 0.2395(5) 0.2915(3)
O8_2 O -0.2786(4) 0.8535(4) 0.1602(2)
O10_2 O 0.0038(4) 1.1221(3) 0.3288(2)
O11_2 O -0.2094(3) 0.7526(4) 0.3312(2)
O12_2 O 0.0943(4) 1.0545(3) 0.1532(2)
Zn2_2 Zn 0.9549(1) 0.8996(1) 0.2461(1)
Zn2_3 Zn -0.0451(1) -0.1004(1) 0.2461(1)
O13 O 1.2440(5) 0.9730(4) 0.0023(3)
O14 O 0.8789(4) 0.5665(4) 0.4550(3)
N1 N 0.2493(5) 0.6816(4) -0.0377(3)
C7 C 0.3652(6) 0.6985(6) -0.1082(3)
C8 C 0.3077(6) 0.7271(6) -0.2108(3)
C9 C 0.4405(6) 0.7570(6) -0.2753(3)
N2 N 0.3804(4) 0.7413(4) -0.3862(3)
C10 C 0.5088(6) 0.7408(6) -0.4465(4)
C11 C 0.3317(7) 0.8685(6) -0.4091(4)
loop_
_geom_bond_atom_site_label_1
_geom_bond_atom_site_label_2
_geom_bond_site_symmetry_1
_geom_bond_site_symmetry_2
Zn1 O1 1_555 1_555
Zn2 O7 1_555 1_555
O1 C1 1_555 1_555
O2 Zn1 1_555 1_555
O3 Zn1 1_555 1_555
O4 Zn1 1_555 1_555
O5 Zn1 1_555 1_555
O6 Zn1 1_555 1_555
O7 C2 1_555 1_555
O8 C4 1_555 1_555
O9 Zn2 1_555 1_555
O10 C6 1_555 1_555
O11 C3 1_555 1_555
O12 C5 1_555 1_555
C1 O9 1_555 1_555
C2 O6 1_555 1_555
C3 O3 1_555 1_555
C4 O5 1_555 1_555
C5 O4 1_555 1_555
C6 O2 1_555 1_555
N1 C7 1_555 1_555
C7 C8 1_555 1_555
C8 C9 1_555 1_555
C9 N2 1_555 1_555
N2 C10 1_555 1_555
C11 N2 1_555 1_555
O8_2 Zn2 1_555 1_555
O10_2 Zn2 1_555 1_555
O11_2 Zn2 1_555 1_555
O12_2 Zn2 1_555 1_555
Zn2_2 O8 1_555 1_555
Zn2_3 O10 1_555 1_555
O11 Zn2_2 1_555 1_555
O12 Zn2_3 1_555 1_555
C1 C2 1_555 1_555
C3 C4 1_555 1_555
C5 C6 1_555 1_555

#END
