
#######################################################################
#
#                 Cambridge Crystallographic Data Centre
#                                CCDC 
#
#######################################################################
#
# If this CIF has been generated from an entry in the Cambridge 
# Structural Database, then it will include bibliographic, chemical, 
# crystal, experimental, refinement or atomic coordinate data resulting 
# from the CCDC's data processing and validation procedures.
#
#######################################################################

data_EMOKAT
_symmetry_cell_setting           monoclinic
_symmetry_space_group_name_H-M   'P 21/c'
_symmetry_Int_Tables_number      14
_space_group_name_Hall           '-P 2ybc'
loop_
_symmetry_equiv_pos_site_id
_symmetry_equiv_pos_as_xyz
1 x,y,z
2 -x,1/2+y,1/2-z
3 -x,-y,-z
4 x,1/2-y,1/2+z
_cell_length_a                   7.5933(6)
_cell_length_b                   14.1680(14)
_cell_length_c                   13.8212(11)
_cell_angle_alpha                90
_cell_angle_beta                 98.191(7)
_cell_angle_gamma                90
_cell_volume                     1471.74
loop_
_atom_site_label
_atom_site_type_symbol
_atom_site_fract_x
_atom_site_fract_y
_atom_site_fract_z
C1 C 0.0445(3) 0.04640(13) 0.05591(15)
C2 C 0.0755(3) -0.05334(13) 0.03609(15)
C3 C 0.4773(3) 0.05009(13) 0.44503(15)
C4 C 0.3879(3) -0.03598(14) 0.47011(15)
C5 C 0.6647(3) 0.09142(19) 0.2175(2)
H1 H 0.7599 0.1121 0.1838
H2 H 0.6516 0.0242 0.2111
H3 H 0.6912 0.1077 0.2854
C6 C 0.4634(4) 0.1110(2) 0.07109(19)
H4 H 0.3574 0.1417 0.0403
H5 H 0.4485 0.0438 0.0659
H6 H 0.5624 0.1298 0.0394
C7 C 0.5201(3) 0.24087(16) 0.1853(2)
H7 H 0.5881 0.2641 0.1360
H8 H 0.5864 0.2548 0.2490
C8 C 0.3433(3) 0.29038(16) 0.17498(19)
H9 H 0.3621 0.3579 0.1824
H10 H 0.2790 0.2789 0.1103
C9 C 0.0505(3) 0.28658(16) 0.22126(19)
H11 H -0.0204 0.2647 0.2690
H12 H 0.0053 0.2605 0.1585
H13 H 0.0455 0.3542 0.2179
C10 C 0.3004(4) 0.29848(17) 0.34595(19)
H14 H 0.4227 0.2815 0.3657
H15 H 0.2297 0.2755 0.3932
H16 H 0.2902 0.3659 0.3415
N1 N 0.4972(2) 0.13797(12) 0.17451(13)
N2 N 0.2369(2) 0.25619(11) 0.24966(14)
O1 O 0.09622(19) 0.10431(10) 0.12216(10)
O2 O 0.45214(19) 0.11125(10) 0.37930(10)
O3 O 0.1674(2) -0.11769(10) 0.08014(11)
O4 O 0.2513(2) -0.07968(10) 0.43196(11)
O5 O 0.3227(2) -0.03814(10) 0.24319(14)
O6 O 0.0700(2) 0.07407(14) 0.32912(13)
Ni1 Ni 0.27667(3) 0.106680(16) 0.249247(18)
H17 H 0.269(4) -0.065(2) 0.193(2)
H18 H 0.291(3) -0.0615(18) 0.288(2)
H19 H 0.100(4) 0.030(2) 0.366(2)
H20 H 0.039(4) 0.106(2) 0.362(3)
C1B C -0.0445(3) -0.04640(13) -0.05591(15)
C2B C -0.0755(3) 0.05334(13) -0.03609(15)
C3B C 0.5227(3) -0.05009(13) 0.55497(15)
C4B C 0.6121(3) 0.03598(14) 0.52989(15)
C5B C -0.6647(3) -0.09142(19) -0.2175(2)
H1B H -0.7599 -0.1121 -0.1838
H2B H -0.6516 -0.0242 -0.2111
H3B H -0.6912 -0.1077 -0.2854
C6B C -0.4634(4) -0.1110(2) -0.07109(19)
H4B H -0.3574 -0.1417 -0.0403
H5B H -0.4485 -0.0438 -0.0659
H6B H -0.5624 -0.1298 -0.0394
C7B C -0.5201(3) -0.24087(16) -0.1853(2)
H7B H -0.5881 -0.2641 -0.1360
H8B H -0.5864 -0.2548 -0.2490
C8B C -0.3433(3) -0.29038(16) -0.17498(19)
H9B H -0.3621 -0.3579 -0.1824
H10B H -0.2790 -0.2789 -0.1103
C9B C -0.0505(3) -0.28658(16) -0.22126(19)
H11B H 0.0204 -0.2647 -0.2690
H12B H -0.0053 -0.2605 -0.1585
H13B H -0.0455 -0.3542 -0.2179
C10B C -0.3004(4) -0.29848(17) -0.34595(19)
H14B H -0.4227 -0.2815 -0.3657
H15B H -0.2297 -0.2755 -0.3932
H16B H -0.2902 -0.3659 -0.3415
N1B N -0.4972(2) -0.13797(12) -0.17451(13)
N2B N -0.2369(2) -0.25619(11) -0.24966(14)
O1B O -0.09622(19) -0.10431(10) -0.12216(10)
O2B O 0.54786(19) -0.11125(10) 0.62070(10)
O2B_2 O -0.45214(19) -0.11125(10) -0.37930(10)
O3B O -0.1674(2) 0.11769(10) -0.08014(11)
O4B O 0.7487(2) 0.07968(10) 0.56804(11)
O5B O -0.3227(2) 0.03814(10) -0.24319(14)
O6B O -0.0700(2) -0.07407(14) -0.32912(13)
Ni1B Ni -0.27667(3) -0.106680(16) -0.249247(18)
Ni1B_2 Ni 0.72333(3) -0.106680(16) 0.750753(18)
H17B H -0.269(4) 0.065(2) -0.193(2)
H18B H -0.291(3) 0.0615(18) -0.288(2)
H19B H -0.100(4) -0.030(2) -0.366(2)
H20B H -0.039(4) -0.106(2) -0.362(3)
O7 O -0.0659(3) 0.19346(15) 0.45212(17)
H21 H -0.095(4) 0.243(2) 0.448(3)
H22 H -0.121(4) 0.166(2) 0.485(3)
loop_
_geom_bond_atom_site_label_1
_geom_bond_atom_site_label_2
_geom_bond_site_symmetry_1
_geom_bond_site_symmetry_2
C1 C2 1_555 1_555
C2 O3 1_555 1_555
C3 C4 1_555 1_555
C4 O4 1_555 1_555
C5 H1 1_555 1_555
H2 C5 1_555 1_555
H3 C5 1_555 1_555
C6 H4 1_555 1_555
H5 C6 1_555 1_555
H6 C6 1_555 1_555
C7 H7 1_555 1_555
H8 C7 1_555 1_555
C8 C7 1_555 1_555
H9 C8 1_555 1_555
H10 C8 1_555 1_555
C9 H11 1_555 1_555
H12 C9 1_555 1_555
H13 C9 1_555 1_555
C10 H14 1_555 1_555
H15 C10 1_555 1_555
H16 C10 1_555 1_555
N1 C5 1_555 1_555
N2 C8 1_555 1_555
O1 C1 1_555 1_555
O2 C3 1_555 1_555
O5 Ni1 1_555 1_555
O6 Ni1 1_555 1_555
O7 H21 1_555 1_555
Ni1 N1 1_555 1_555
H17 O5 1_555 1_555
H18 O5 1_555 1_555
H19 O6 1_555 1_555
H20 O6 1_555 1_555
H22 O7 1_555 1_555
C1B C2 1_555 1_555
C2B C1 1_555 1_555
C3B C4 1_555 1_555
C4B C3 1_555 1_555
C5B H1B 1_555 1_555
H2B C5B 1_555 1_555
H3B C5B 1_555 1_555
C6B H4B 1_555 1_555
H5B C6B 1_555 1_555
H6B C6B 1_555 1_555
C7B H7B 1_555 1_555
H8B C7B 1_555 1_555
C8B C7B 1_555 1_555
H9B C8B 1_555 1_555
H10B C8B 1_555 1_555
C9B H11B 1_555 1_555
H12B C9B 1_555 1_555
H13B C9B 1_555 1_555
C10B H14B 1_555 1_555
H15B C10B 1_555 1_555
H16B C10B 1_555 1_555
N1B C5B 1_555 1_555
N2B C8B 1_555 1_555
O1B C1B 1_555 1_555
O2B C3B 1_555 1_555
O2B_2 Ni1B 1_555 1_555
O3B C2B 1_555 1_555
O4B C4B 1_555 1_555
O5B Ni1B 1_555 1_555
O6B Ni1B 1_555 1_555
Ni1B N1B 1_555 1_555
Ni1B_2 O2B 1_555 1_555
H17B O5B 1_555 1_555
H18B O5B 1_555 1_555
H19B O6B 1_555 1_555
H20B O6B 1_555 1_555
C6 N1 1_555 1_555
C7 N1 1_555 1_555
C9 N2 1_555 1_555
C10 N2 1_555 1_555
N2 Ni1 1_555 1_555
O1 Ni1 1_555 1_555
O2 Ni1 1_555 1_555
C1B C2B 1_555 1_555
C3B C4B 1_555 1_555
C6B N1B 1_555 1_555
C7B N1B 1_555 1_555
C9B N2B 1_555 1_555
C10B N2B 1_555 1_555
N2B Ni1B 1_555 1_555
O1B Ni1B 1_555 1_555

#END
