
#######################################################################
#
#                 Cambridge Crystallographic Data Centre
#                                CCDC 
#
#######################################################################
#
# If this CIF has been generated from an entry in the Cambridge 
# Structural Database, then it will include bibliographic, chemical, 
# crystal, experimental, refinement or atomic coordinate data resulting 
# from the CCDC's data processing and validation procedures.
#
#######################################################################

data_EMOLEY
_symmetry_cell_setting           monoclinic
_symmetry_space_group_name_H-M   'C 2/c'
_symmetry_Int_Tables_number      15
_space_group_name_Hall           '-C 2yn'
loop_
_symmetry_equiv_pos_site_id
_symmetry_equiv_pos_as_xyz
1 x,y,z
2 -x,y,1/2-z
3 1/2+x,1/2+y,z
4 1/2-x,1/2+y,1/2-z
5 -x,-y,-z
6 x,-y,1/2+z
7 1/2-x,1/2-y,-z
8 1/2+x,1/2-y,1/2+z
_cell_length_a                   23.144(2)
_cell_length_b                   10.6601(7)
_cell_length_c                   13.4363(9)
_cell_angle_alpha                90
_cell_angle_beta                 93.123(1)
_cell_angle_gamma                90
_cell_volume                     3310.05
loop_
_atom_site_label
_atom_site_type_symbol
_atom_site_fract_x
_atom_site_fract_y
_atom_site_fract_z
Cu1 Cu 0.657043(16) 0.71099(3) 0.09216(3)
O1 O 0.80052(9) 0.64242(18) -0.04093(15)
O2 O 0.72140(9) 0.61112(19) 0.04393(16)
N1 N 0.60805(11) 0.5589(2) 0.10980(18)
N2 N 0.58248(11) 0.8006(2) 0.10925(18)
N3 N 0.69495(11) 0.7297(2) 0.24808(18)
C1 C 0.62314(15) 0.4383(3) 0.1160(2)
H1 H 0.6620 0.4170 0.1127
C2 C 0.58297(17) 0.3434(3) 0.1274(3)
H2 H 0.5951 0.2604 0.1329
C3 C 0.52592(17) 0.3720(3) 0.1304(2)
H3 H 0.4988 0.3085 0.1367
C4 C 0.50796(14) 0.4976(3) 0.1241(2)
C5 C 0.44965(15) 0.5390(4) 0.1285(2)
H4 H 0.4203 0.4801 0.1328
C6 C 0.43622(15) 0.6629(4) 0.1265(2)
H5 H 0.3977 0.6871 0.1286
C7 C 0.47998(14) 0.7574(3) 0.1213(2)
C8 C 0.47039(16) 0.8878(4) 0.1238(2)
H6 H 0.4329 0.9184 0.1276
C9 C 0.51543(17) 0.9690(4) 0.1207(3)
H7 H 0.5091 1.0551 0.1240
C10 C 0.57110(16) 0.9223(3) 0.1124(2)
H8 H 0.6016 0.9788 0.1090
C11 C 0.53727(13) 0.7192(3) 0.1143(2)
C12 C 0.55134(13) 0.5884(3) 0.1154(2)
C13 C 0.69255(14) 0.8360(3) 0.3000(2)
H9 H 0.6761 0.9061 0.2684
C14 C 0.71296(15) 0.8479(3) 0.3977(2)
H10 H 0.7096 0.9242 0.4305
C15 C 0.73854(13) 0.7460(3) 0.4474(2)
C16 C 0.74170(18) 0.6363(3) 0.3923(2)
H11 H 0.7589 0.5651 0.4210
C17 C 0.71932(18) 0.6328(3) 0.2952(2)
H12 H 0.7215 0.5575 0.2606
C18 C 0.75642(13) 0.6794(2) 0.0009(2)
Cu1F Cu 0.842957(16) 0.78901(3) -0.09216(3)
Cu1F_2 Cu 0.842957(16) 0.78901(3) 0.90784(3)
O1F O 0.69948(9) 0.85758(18) 0.04093(15)
O2F O 0.77860(9) 0.88888(19) -0.04393(16)
N1F N 0.89195(11) 0.9411(2) -0.10980(18)
N2F N 0.91752(11) 0.6994(2) -0.10925(18)
N3F N 0.80505(11) 0.7703(2) 0.75192(18)
N3F_2 N 0.80505(11) 0.7703(2) -0.24808(18)
C1F C 0.87686(15) 1.0617(3) -0.1160(2)
H1F H 0.8380 1.0830 -0.1127
C2F C 0.91703(17) 1.1566(3) -0.1274(3)
H2F H 0.9049 1.2396 -0.1329
C3F C 0.97408(17) 1.1280(3) -0.1304(2)
H3F H 1.0012 1.1915 -0.1367
C4F C 0.99204(14) 1.0024(3) -0.1241(2)
C5F C 1.05035(15) 0.9610(4) -0.1285(2)
H4F H 1.0797 1.0199 -0.1328
C6F C 1.06378(15) 0.8371(4) -0.1265(2)
H5F H 1.1023 0.8129 -0.1286
C7F C 1.02002(14) 0.7426(3) -0.1213(2)
C8F C 1.02961(16) 0.6122(4) -0.1238(2)
H6F H 1.0671 0.5816 -0.1276
C9F C 0.98457(17) 0.5310(4) -0.1207(3)
H7F H 0.9909 0.4449 -0.1240
C10F C 0.92890(16) 0.5777(3) -0.1124(2)
H8F H 0.8984 0.5212 -0.1090
C11F C 0.96273(13) 0.7808(3) -0.1143(2)
C12F C 0.94866(13) 0.9116(3) -0.1154(2)
C13F C 0.80745(14) 0.6640(3) 0.7000(2)
H9F H 0.8239 0.5939 0.7316
C14F C 0.78704(15) 0.6521(3) 0.6023(2)
H10F H 0.7904 0.5758 0.5695
C15F C 0.76146(13) 0.7540(3) 0.5526(2)
C16F C 0.75830(18) 0.8637(3) 0.6077(2)
H11F H 0.7411 0.9349 0.5790
C17F C 0.78068(18) 0.8672(3) 0.7048(2)
H12F H 0.7785 0.9425 0.7394
C18F C 0.74358(13) 0.8206(2) -0.0009(2)
N4 N 0.62797(16) 0.2020(3) 0.3346(2)
O3 O 0.6687(4) 0.2712(13) 0.3218(7)
O4 O 0.5958(5) 0.2294(15) 0.3978(6)
O5 O 0.6195(9) 0.1112(11) 0.2832(11)
O6? O 0.6414(13) 0.2971(10) 0.3767(18)
O7? O 0.5800(6) 0.1666(16) 0.352(2)
O8? O 0.6509(10) 0.136(2) 0.2805(16)
loop_
_geom_bond_atom_site_label_1
_geom_bond_atom_site_label_2
_geom_bond_site_symmetry_1
_geom_bond_site_symmetry_2
Cu1 O2 1_555 1_555
O1 C18 1_555 1_555
O2 C18 1_555 1_555
N1 Cu1 1_555 1_555
N2 Cu1 1_555 1_555
N3 Cu1 1_555 1_555
C1 N1 1_555 1_555
H1 C1 1_555 1_555
C2 C1 1_555 1_555
H2 C2 1_555 1_555
C3 C2 1_555 1_555
H3 C3 1_555 1_555
C4 C3 1_555 1_555
C5 C4 1_555 1_555
H4 C5 1_555 1_555
C6 C5 1_555 1_555
H5 C6 1_555 1_555
C7 C6 1_555 1_555
C8 C7 1_555 1_555
H6 C8 1_555 1_555
C9 C8 1_555 1_555
H7 C9 1_555 1_555
C10 N2 1_555 1_555
H8 C10 1_555 1_555
C11 N2 1_555 1_555
C12 N1 1_555 1_555
C13 N3 1_555 1_555
H9 C13 1_555 1_555
C14 C13 1_555 1_555
H10 C14 1_555 1_555
C15 C14 1_555 1_555
C16 C15 1_555 1_555
H11 C16 1_555 1_555
C17 N3 1_555 1_555
H12 C17 1_555 1_555
C18 C18F 1_555 1_555
N4 O3 1_555 1_555
O4 N4 1_555 1_555
O5 N4 1_555 1_555
Cu1F O1 1_555 1_555
Cu1F_2 N3F 1_555 1_555
O1F Cu1 1_555 1_555
O2F Cu1F 1_555 1_555
N1F Cu1F 1_555 1_555
N2F Cu1F 1_555 1_555
N3F C13F 1_555 1_555
N3F_2 Cu1F 1_555 1_555
C1F N1F 1_555 1_555
H1F C1F 1_555 1_555
C2F C1F 1_555 1_555
H2F C2F 1_555 1_555
C3F C2F 1_555 1_555
H3F C3F 1_555 1_555
C4F C3F 1_555 1_555
C5F C4F 1_555 1_555
H4F C5F 1_555 1_555
C6F C5F 1_555 1_555
H5F C6F 1_555 1_555
C7F C6F 1_555 1_555
C8F C7F 1_555 1_555
H6F C8F 1_555 1_555
C9F C8F 1_555 1_555
H7F C9F 1_555 1_555
C10F N2F 1_555 1_555
H8F C10F 1_555 1_555
C11F N2F 1_555 1_555
C12F N1F 1_555 1_555
C13F H9F 1_555 1_555
C14F C13F 1_555 1_555
H10F C14F 1_555 1_555
C15F C15 1_555 1_555
C16F C15F 1_555 1_555
H11F C16F 1_555 1_555
C17F N3F 1_555 1_555
H12F C17F 1_555 1_555
C18F O1F 1_555 1_555
C4 C12 1_555 1_555
C7 C11 1_555 1_555
C9 C10 1_555 1_555
C11 C12 1_555 1_555
C16 C17 1_555 1_555
O2F C18F 1_555 1_555
C4F C12F 1_555 1_555
C7F C11F 1_555 1_555
C9F C10F 1_555 1_555
C11F C12F 1_555 1_555
C14F C15F 1_555 1_555
C16F C17F 1_555 1_555

#END
