
#######################################################################
#
#                 Cambridge Crystallographic Data Centre
#                                CCDC 
#
#######################################################################
#
# If this CIF has been generated from an entry in the Cambridge 
# Structural Database, then it will include bibliographic, chemical, 
# crystal, experimental, refinement or atomic coordinate data resulting 
# from the CCDC's data processing and validation procedures.
#
#######################################################################

data_EMOLAU
_symmetry_cell_setting           monoclinic
_symmetry_space_group_name_H-M   'P 21/n'
_symmetry_Int_Tables_number      14
_space_group_name_Hall           '-P 2yn'
loop_
_symmetry_equiv_pos_site_id
_symmetry_equiv_pos_as_xyz
1 x,y,z
2 1/2-x,1/2+y,1/2-z
3 -x,-y,-z
4 1/2+x,1/2-y,1/2+z
_cell_length_a                   12.8001(4)
_cell_length_b                   16.6933(6)
_cell_length_c                   21.2088(6)
_cell_angle_alpha                90
_cell_angle_beta                 93.093(2)
_cell_angle_gamma                90
_cell_volume                     4525.21
loop_
_atom_site_label
_atom_site_type_symbol
_atom_site_fract_x
_atom_site_fract_y
_atom_site_fract_z
Ce1 Ce 0.980712(14) 0.430782(10) 0.764850(7)
N1 N 1.1606(2) 0.52308(17) 0.76078(11)
C1 C 1.1936(3) 0.5602(2) 0.81439(15)
C2 C 1.2931(3) 0.5905(3) 0.8235(2)
H1 H 1.3139 0.615 0.8616
C3 C 1.3618(4) 0.5843(3) 0.7760(2)
H2 H 1.43 0.6032 0.7819
C4 C 1.3277(4) 0.5497(3) 0.7198(2)
H3 H 1.3712 0.5469 0.6862
C5 C 1.2287(3) 0.5194(2) 0.71458(16)
H4 H 1.2068 0.4948 0.6768
C6 C 1.1120(3) 0.56954(19) 0.86317(15)
O1 O 1.02497(19) 0.53758(15) 0.85213(10)
O2 O 1.1380(2) 0.61078(18) 0.91128(12)
N2 N 1.1599(2) 0.34191(17) 0.74647(12)
C7 C 1.2239(3) 0.3278(2) 0.79714(15)
C8 C 1.3202(3) 0.2928(3) 0.7930(2)
H5 H 1.3626 0.2832 0.8292
C9 C 1.3539(4) 0.2718(3) 0.7341(2)
H6 H 1.419 0.2481 0.7301
C10 C 1.2891(3) 0.2867(3) 0.68225(19)
H7 H 1.3095 0.274 0.6421
C11 C 1.1940(3) 0.3206(2) 0.69021(16)
H8 H 1.1501 0.3295 0.6545
C12 C 1.1828(3) 0.3540(2) 0.85922(15)
O3 O 1.0903(2) 0.37895(15) 0.85814(9)
O4 O 1.2418(2) 0.34949(18) 0.90751(12)
N3 N 0.8976(2) 0.29030(16) 0.81001(11)
C13 C 0.8956(3) 0.22567(19) 0.77181(15)
C14 C 0.8738(3) 0.1495(2) 0.79207(19)
H9 H 0.8739 0.1064 0.7643
C15 C 0.8518(3) 0.1385(3) 0.8549(2)
H10 H 0.8377 0.0877 0.8702
C16 C 0.8511(3) 0.2041(3) 0.89416(18)
H11 H 0.8349 0.1987 0.9362
C17 C 0.8751(3) 0.2784(2) 0.86962(15)
H12 H 0.8754 0.3225 0.8965
C18 C 0.9167(3) 0.2424(2) 0.70360(15)
O5 O 0.94829(19) 0.31129(14) 0.69039(10)
O6 O 0.9012(3) 0.18733(16) 0.66511(12)
N4 N 0.7792(2) 0.42659(15) 0.71501(12)
C19 C 0.7030(3) 0.43619(18) 0.75485(16)
C20 C 0.5972(3) 0.4301(2) 0.73648(18)
H13 H 0.5461 0.4367 0.7656
C21 C 0.5702(3) 0.4140(2) 0.67396(19)
H14 H 0.5003 0.4099 0.66
C22 C 0.6478(3) 0.4040(2) 0.63261(18)
H15 H 0.6311 0.3927 0.5903
C23 C 0.7512(3) 0.4110(2) 0.65443(16)
H16 H 0.8033 0.4047 0.6259
C24 C 0.7381(3) 0.4541(2) 0.82243(15)
O7 O 0.83462(18) 0.46292(14) 0.83525(9)
O8 O 0.6695(3) 0.4599(3) 0.86083(16)
N5 N 0.9204(2) 0.58029(15) 0.72587(12)
C25 C 0.9368(3) 0.5991(2) 0.66547(14)
C26 C 0.9224(3) 0.6753(2) 0.64142(17)
H17 H 0.9352 0.6866 0.5996
C27 C 0.8884(3) 0.7345(2) 0.68097(18)
H18 H 0.8783 0.7865 0.6661
C28 C 0.8698(3) 0.7161(2) 0.74178(18)
H19 H 0.847 0.7553 0.769
C29 C 0.8854(3) 0.6388(2) 0.76245(16)
H20 H 0.8708 0.6265 0.8038
C30 C 0.9744(2) 0.5311(2) 0.62534(13)
O9 O 1.00363(18) 0.46736(13) 0.65385(9)
O10 O 0.97576(19) 0.54133(15) 0.56772(10)
C31 C 1.3164(3) 0.4938(2) 0.54644(14)
N6 N 1.2207(2) 0.52533(19) 0.54460(15)
C32 C 1.2130(3) 0.6045(3) 0.5462(2)
H21 H 1.1463 0.6267 0.5454
C33 C 1.2965(4) 0.6554(3) 0.5491(2)
H22 H 1.2867 0.7106 0.5499
C34 C 1.3945(4) 0.6236(3) 0.55092(18)
H23 H 1.453 0.6567 0.5523
C35 C 1.4054(3) 0.5413(2) 0.55070(16)
H24 H 1.4715 0.5181 0.5534
C36 C 1.3233(3) 0.4030(2) 0.54388(15)
O11 O 1.2403(2) 0.36456(15) 0.53575(12)
O12 O 1.4138(2) 0.37422(18) 0.54972(14)
H25 H 1.423(8) 0.3195(15) 0.553(5)
Na1 Na 1.07704(11) 0.42842(8) 0.53429(6)
O13 O 0.9776(3) 0.3198(2) 0.55935(13)
H26 H 0.968(4) 0.307(3) 0.6001(11)
H27 H 1.002(4) 0.2724(18) 0.549(2)
Na2 Na 0.90272(12) 0.52317(10) 0.93491(6)
O14 O 0.7942(4) 0.6564(3) 0.9236(2)
H28 H 0.823(5) 0.703(2) 0.911(3)
H29 H 0.723(2) 0.642(4) 0.911(3)
O15 O 0.7482(4) 0.4893(4) 0.9894(2)
H30 H 0.737(7) 0.5461(18) 0.999(4)
H31 H 0.791(5) 0.448(3) 1.004(3)
O16 O 1.0119(3) 0.4130(2) 0.97293(12)
H32 H 0.992(4) 0.372(3) 0.986(2)
H33 H 1.037(4) 0.402(3) 0.936(2)
O10B O 1.02424(19) 0.45867(15) 0.43228(10)
Na1B Na 0.92296(11) 0.57158(8) 0.46571(6)
Na2B Na 1.09728(12) 0.47683(10) 1.06509(6)
O16B O 0.9881(3) 0.5870(2) 1.02707(12)
H32B H 1.008(4) 0.628(3) 1.014(2)
H33B H 0.963(4) 0.598(3) 1.064(2)
loop_
_geom_bond_atom_site_label_1
_geom_bond_atom_site_label_2
_geom_bond_site_symmetry_1
_geom_bond_site_symmetry_2
Ce1 N1 1_555 1_555
N1 C1 1_555 1_555
C1 C2 1_555 1_555
C2 H1 1_555 1_555
C3 C2 1_555 1_555
H2 C3 1_555 1_555
C4 C3 1_555 1_555
H3 C4 1_555 1_555
C5 N1 1_555 1_555
H4 C5 1_555 1_555
C6 C1 1_555 1_555
O1 Ce1 1_555 1_555
O2 C6 1_555 1_555
N2 Ce1 1_555 1_555
C7 N2 1_555 1_555
C8 C7 1_555 1_555
H5 C8 1_555 1_555
C9 C8 1_555 1_555
H6 C9 1_555 1_555
C10 C9 1_555 1_555
H7 C10 1_555 1_555
C11 N2 1_555 1_555
H8 C11 1_555 1_555
C12 C7 1_555 1_555
O3 Ce1 1_555 1_555
O4 C12 1_555 1_555
N3 Ce1 1_555 1_555
C13 N3 1_555 1_555
C14 C13 1_555 1_555
H9 C14 1_555 1_555
C15 C14 1_555 1_555
H10 C15 1_555 1_555
C16 C15 1_555 1_555
H11 C16 1_555 1_555
C17 N3 1_555 1_555
H12 C17 1_555 1_555
C18 C13 1_555 1_555
O5 Ce1 1_555 1_555
O6 C18 1_555 1_555
N4 Ce1 1_555 1_555
C19 N4 1_555 1_555
C20 C19 1_555 1_555
H13 C20 1_555 1_555
C21 C20 1_555 1_555
H14 C21 1_555 1_555
C22 C21 1_555 1_555
H15 C22 1_555 1_555
C23 N4 1_555 1_555
H16 C23 1_555 1_555
C24 C19 1_555 1_555
O7 Ce1 1_555 1_555
O8 C24 1_555 1_555
N5 Ce1 1_555 1_555
C25 N5 1_555 1_555
C26 C25 1_555 1_555
H17 C26 1_555 1_555
C27 C26 1_555 1_555
H18 C27 1_555 1_555
C28 C27 1_555 1_555
H19 C28 1_555 1_555
C29 N5 1_555 1_555
H20 C29 1_555 1_555
C30 C25 1_555 1_555
O9 Ce1 1_555 1_555
O10 C30 1_555 1_555
C31 N6 1_555 1_555
N6 C32 1_555 1_555
C32 H21 1_555 1_555
C33 C32 1_555 1_555
H22 C33 1_555 1_555
C34 C33 1_555 1_555
H23 C34 1_555 1_555
C35 C31 1_555 1_555
H24 C35 1_555 1_555
C36 C31 1_555 1_555
O11 C36 1_555 1_555
O12 C36 1_555 1_555
H25 O12 1_555 1_555
Na1 O9 1_555 1_555
O13 Na1 1_555 1_555
H26 O13 1_555 1_555
H27 O13 1_555 1_555
Na2 O1 1_555 1_555
O14 Na2 1_555 1_555
H28 O14 1_555 1_555
H29 O14 1_555 1_555
O15 Na2 1_555 1_555
H30 O15 1_555 1_555
H31 O15 1_555 1_555
O16 Na2 1_555 1_555
H32 O16 1_555 1_555
H33 O16 1_555 1_555
O10B Na1 1_555 1_555
Na1B O10 1_555 1_555
Na2B O16 1_555 1_555
O16B Na2 1_555 1_555
H32B O16B 1_555 1_555
H33B O16B 1_555 1_555
C4 C5 1_555 1_555
C6 O1 1_555 1_555
C10 C11 1_555 1_555
C12 O3 1_555 1_555
C16 C17 1_555 1_555
C18 O5 1_555 1_555
C22 C23 1_555 1_555
C24 O7 1_555 1_555
O7 Na2 1_555 1_555
C28 C29 1_555 1_555
C30 O9 1_555 1_555
O10 Na1 1_555 1_555
N6 Na1 1_555 1_555
C34 C35 1_555 1_555
O11 Na1 1_555 1_555
O10B Na1B 1_555 1_555
Na2B O16B 1_555 1_555

#END
