
#######################################################################
#
#                 Cambridge Crystallographic Data Centre
#                                CCDC 
#
#######################################################################
#
# If this CIF has been generated from an entry in the Cambridge 
# Structural Database, then it will include bibliographic, chemical, 
# crystal, experimental, refinement or atomic coordinate data resulting 
# from the CCDC's data processing and validation procedures.
#
#######################################################################

data_EMOSOP
_symmetry_cell_setting           orthorhombic
_symmetry_space_group_name_H-M   'P 21 21 21'
_symmetry_Int_Tables_number      19
_space_group_name_Hall           'P 2ac 2ab'
loop_
_symmetry_equiv_pos_site_id
_symmetry_equiv_pos_as_xyz
1 x,y,z
2 1/2-x,-y,1/2+z
3 -x,1/2+y,1/2-z
4 1/2+x,1/2-y,-z
_cell_length_a                   9.56670(10)
_cell_length_b                   16.4081(2)
_cell_length_c                   16.4469(2)
_cell_angle_alpha                90
_cell_angle_beta                 90
_cell_angle_gamma                90
_cell_volume                     2581.69
loop_
_atom_site_label
_atom_site_type_symbol
_atom_site_fract_x
_atom_site_fract_y
_atom_site_fract_z
Cd1 Cd -0.02557(3) -0.429643(17) -0.120793(17)
Cd2 Cd 0.31557(3) -0.749880(19) 0.148950(15)
O1 O 0.8662(3) -0.61153(19) -0.1237(2)
O2 O 0.7899(3) -0.4969(2) -0.0669(2)
O3 O 0.5393(3) -0.69733(18) 0.14215(17)
O4 O 0.4449(3) -0.7191(2) 0.02219(19)
O5 O -0.1569(3) -0.31636(19) -0.07911(19)
O6 O -0.1190(3) -0.18460(19) -0.0493(2)
O7 O 0.0997(3) -0.32983(19) -0.19453(17)
O8 O 0.1871(4) -0.20777(19) -0.22331(18)
O9 O -0.1464(3) -0.4175(2) -0.24152(17)
H1 H -0.1696 -0.4556 -0.2656
H2 H -0.1200 -0.3840 -0.2735
N1 N 0.6059(4) -0.6794(2) -0.1170(2)
H9 H 0.5253 -0.7023 -0.0937
N2 N 0.1695(4) -0.5097(2) -0.1524(2)
N3 N 0.0875(4) -0.3653(2) -0.0084(2)
H10 H 0.1827 -0.3691 -0.0006
N4 N 0.2044(4) -0.6243(2) 0.1356(2)
C1 C 0.7762(4) -0.5717(3) -0.0851(2)
C2 C 0.6425(4) -0.6152(3) -0.0572(2)
H11 H 0.5659 -0.5758 -0.0530
C3 C 0.6695(5) -0.6543(3) 0.0267(2)
H12 H 0.7415 -0.6955 0.0208
H13 H 0.7052 -0.6127 0.0631
C4 C 0.5439(5) -0.6927(3) 0.0649(3)
C5 C 0.5492(5) -0.6452(3) -0.1945(2)
H14 H 0.5308 -0.6895 -0.2319
H15 H 0.6193 -0.6102 -0.2190
C6 C 0.2936(5) -0.4722(3) -0.1566(3)
H16 H 0.2963 -0.4160 -0.1493
C7 C 0.4185(5) -0.5126(3) -0.1712(3)
H17 H 0.5023 -0.4840 -0.1736
C8 C 0.4165(4) -0.5968(3) -0.1823(3)
C9 C 0.2878(5) -0.6344(3) -0.1804(3)
H18 H 0.2819 -0.6904 -0.1887
C10 C 0.1683(5) -0.5905(3) -0.1664(3)
H19 H 0.0830 -0.6177 -0.1665
C11 C -0.0824(4) -0.2578(3) -0.0533(2)
C12 C 0.0660(5) -0.2773(3) -0.0237(2)
H20 H 0.0799 -0.2487 0.0280
C13 C 0.1729(4) -0.2434(3) -0.0845(2)
H21 H 0.1760 -0.1847 -0.0782
H22 H 0.2643 -0.2644 -0.0699
C14 C 0.1477(4) -0.2622(3) -0.1729(2)
C15 C 0.0337(5) -0.3900(3) 0.0723(2)
H23 H -0.0676 -0.3924 0.0706
H24 H 0.0602 -0.3496 0.1125
C16 C 0.0683(6) -0.6144(3) 0.1194(4)
H25 H 0.0104 -0.6599 0.1213
C17 C 0.0096(6) -0.5406(3) 0.1000(4)
H26 H -0.0856 -0.5373 0.0891
C18 C 0.0908(5) -0.4717(3) 0.0967(2)
C19 C 0.2316(5) -0.4801(3) 0.1168(3)
H27 H 0.2904 -0.4350 0.1176
C20 C 0.2823(5) -0.5572(3) 0.1358(3)
H28 H 0.3763 -0.5621 0.1495
Cd1_2 Cd 0.97443(3) -0.429643(17) -0.120793(17)
Cd2A Cd 0.18443(3) -0.250120(19) -0.351050(15)
Cd2C Cd 0.81557(3) -0.750120(19) -0.148950(15)
O1C O 0.3662(3) -0.88847(19) 0.1237(2)
O2_2 O -0.2101(3) -0.4969(2) -0.0669(2)
O8A O 0.3129(4) -0.79223(19) 0.27669(18)
N1C N 0.1059(4) -0.8206(2) 0.1170(2)
H9C H 0.0253 -0.7977 0.0937
O10 O -0.1901(4) -0.5478(2) -0.3317(2)
H3 H -0.1248 -0.5478 -0.3766
H4 H -0.1930 -0.6089 -0.3265
O11 O -0.4486(4) -0.4465(2) 0.0241(2)
H5 H -0.5116 -0.4020 0.0259
H6 H -0.4044 -0.4337 -0.0185
O12 O -0.3865(4) -0.3131(3) -0.1904(3)
H7 H -0.3334 -0.3557 -0.2243
H8 H -0.3111 -0.3037 -0.1490
loop_
_geom_bond_atom_site_label_1
_geom_bond_atom_site_label_2
_geom_bond_site_symmetry_1
_geom_bond_site_symmetry_2
Cd1 O5 1_555 1_555
Cd2 O3 1_555 1_555
O1 C1 1_555 1_555
O2 C1 1_555 1_555
O3 C4 1_555 1_555
O4 Cd2 1_555 1_555
O5 C11 1_555 1_555
O6 C11 1_555 1_555
O7 Cd1 1_555 1_555
O8 C14 1_555 1_555
O9 Cd1 1_555 1_555
H1 O9 1_555 1_555
H2 O9 1_555 1_555
O10 H3 1_555 1_555
H4 O10 1_555 1_555
O11 H5 1_555 1_555
H6 O11 1_555 1_555
O12 H7 1_555 1_555
H8 O12 1_555 1_555
N1 H9 1_555 1_555
N2 Cd1 1_555 1_555
N3 Cd1 1_555 1_555
H10 N3 1_555 1_555
N4 Cd2 1_555 1_555
C1 C2 1_555 1_555
C2 N1 1_555 1_555
H11 C2 1_555 1_555
C3 C2 1_555 1_555
H12 C3 1_555 1_555
H13 C3 1_555 1_555
C4 O4 1_555 1_555
C5 N1 1_555 1_555
H14 C5 1_555 1_555
H15 C5 1_555 1_555
C6 N2 1_555 1_555
H16 C6 1_555 1_555
C7 C6 1_555 1_555
H17 C7 1_555 1_555
C8 C5 1_555 1_555
C9 C8 1_555 1_555
H18 C9 1_555 1_555
C10 N2 1_555 1_555
H19 C10 1_555 1_555
C11 C12 1_555 1_555
C12 N3 1_555 1_555
H20 C12 1_555 1_555
C13 C12 1_555 1_555
H21 C13 1_555 1_555
H22 C13 1_555 1_555
C14 O7 1_555 1_555
C15 N3 1_555 1_555
H23 C15 1_555 1_555
H24 C15 1_555 1_555
C16 N4 1_555 1_555
H25 C16 1_555 1_555
C17 C16 1_555 1_555
H26 C17 1_555 1_555
C18 C15 1_555 1_555
C19 C18 1_555 1_555
H27 C19 1_555 1_555
C20 N4 1_555 1_555
H28 C20 1_555 1_555
Cd1_2 O2 1_555 1_555
Cd2A O8 1_555 1_555
Cd2C O1 1_555 1_555
O1C Cd2 1_555 1_555
O2_2 Cd1 1_555 1_555
O8A Cd2 1_555 1_555
N1C Cd2 1_555 1_555
H9C N1C 1_555 1_555
N1 Cd2C 1_555 1_555
C3 C4 1_555 1_555
C7 C8 1_555 1_555
C9 C10 1_555 1_555
C13 C14 1_555 1_555
C17 C18 1_555 1_555
C19 C20 1_555 1_555

#END
