
#######################################################################
#
#                 Cambridge Crystallographic Data Centre
#                                CCDC 
#
#######################################################################
#
# If this CIF has been generated from an entry in the Cambridge 
# Structural Database, then it will include bibliographic, chemical, 
# crystal, experimental, refinement or atomic coordinate data resulting 
# from the CCDC's data processing and validation procedures.
#
#######################################################################

data_EMOSUV
_symmetry_cell_setting           tetragonal
_symmetry_space_group_name_H-M   'P 43'
_symmetry_Int_Tables_number      78
_space_group_name_Hall           'P 4cw'
loop_
_symmetry_equiv_pos_site_id
_symmetry_equiv_pos_as_xyz
1 x,y,z
2 -x,-y,1/2+z
3 -y,x,3/4+z
4 y,-x,1/4+z
_cell_length_a                   9.3702(6)
_cell_length_b                   9.3702(6)
_cell_length_c                   14.7404(13)
_cell_angle_alpha                90
_cell_angle_beta                 90
_cell_angle_gamma                90
_cell_volume                     1294.22
loop_
_atom_site_label
_atom_site_type_symbol
_atom_site_fract_x
_atom_site_fract_y
_atom_site_fract_z
Co1 Co 0.60008(3) 0.07362(4) 0.00625(2)
O1 O 0.5434(2) -0.0397(2) -0.10950(12)
O2 O 0.4413(3) 0.0246(3) -0.23953(16)
O3 O 0.6322(2) 0.2591(2) -0.07186(14)
O4 O 0.5855(3) 0.4540(3) -0.15149(18)
O5 O 0.5785(2) -0.1207(2) 0.08544(14)
H1 H 0.6107 -0.2135 0.0833
H2 H 0.5575 -0.0974 0.1434
O6 O 0.6033(2) 0.1815(2) 0.12863(12)
H3 H 0.5238 0.2228 0.1495
H4 H 0.5895 0.1178 0.1684
N1 N 0.3733(2) 0.1188(2) -0.00728(15)
H7 H 0.3585 0.1885 0.0235
N2 N -0.1760(2) 0.0500(2) 0.00368(15)
C1 C 0.4562(3) 0.0333(3) -0.15590(18)
C2 C 0.3592(3) 0.1413(3) -0.10556(17)
H8 H 0.2600 0.1219 -0.1227
C3 C 0.3945(3) 0.2933(3) -0.1327(2)
H9 H 0.3322 0.3573 -0.0994
H10 H 0.3734 0.3048 -0.1967
C4 C 0.5480(3) 0.3387(3) -0.1163(2)
C5 C 0.2794(3) 0.0041(3) 0.02680(17)
H11 H 0.2963 -0.0068 0.0913
H12 H 0.3070 -0.0845 -0.0023
C6 C -0.1101(3) -0.0742(3) -0.01387(17)
H13 H -0.1656 -0.1534 -0.0281
C7 C 0.0358(3) -0.0893(3) -0.01167(17)
H14 H 0.0772 -0.1766 -0.0262
C8 C 0.1212(3) 0.0256(3) 0.01225(18)
C9 C 0.0538(3) 0.1552(3) 0.02735(17)
H15 H 0.1072 0.2360 0.0414
C10 C -0.0935(3) 0.1636(3) 0.02133(17)
H16 H -0.1370 0.2518 0.0299
Co1_2 Co -0.39992(3) 0.07362(4) 0.00625(2)
N2_2 N 0.8240(2) 0.0500(2) 0.00368(15)
O7 O 0.6806(3) -0.3954(4) 0.0925(3)
H5 H 0.7183 -0.4541 0.1345
H6 H 0.6001 -0.4397 0.0658
loop_
_geom_bond_atom_site_label_1
_geom_bond_atom_site_label_2
_geom_bond_site_symmetry_1
_geom_bond_site_symmetry_2
Co1 O1 1_555 1_555
O1 C1 1_555 1_555
O2 C1 1_555 1_555
O3 Co1 1_555 1_555
O4 C4 1_555 1_555
O5 Co1 1_555 1_555
H1 O5 1_555 1_555
H2 O5 1_555 1_555
O6 Co1 1_555 1_555
H3 O6 1_555 1_555
H4 O6 1_555 1_555
O7 H5 1_555 1_555
H6 O7 1_555 1_555
N1 Co1 1_555 1_555
H7 N1 1_555 1_555
N2 C6 1_555 1_555
C1 C2 1_555 1_555
C2 N1 1_555 1_555
H8 C2 1_555 1_555
C3 C2 1_555 1_555
H9 C3 1_555 1_555
H10 C3 1_555 1_555
C4 O3 1_555 1_555
C5 N1 1_555 1_555
H11 C5 1_555 1_555
H12 C5 1_555 1_555
C6 H13 1_555 1_555
C7 C6 1_555 1_555
H14 C7 1_555 1_555
C8 C5 1_555 1_555
C9 C8 1_555 1_555
H15 C9 1_555 1_555
C10 N2 1_555 1_555
H16 C10 1_555 1_555
Co1_2 N2 1_555 1_555
N2_2 Co1 1_555 1_555
C3 C4 1_555 1_555
C7 C8 1_555 1_555
C9 C10 1_555 1_555

#END
