
#######################################################################
#
#                 Cambridge Crystallographic Data Centre
#                                CCDC 
#
#######################################################################
#
# If this CIF has been generated from an entry in the Cambridge 
# Structural Database, then it will include bibliographic, chemical, 
# crystal, experimental, refinement or atomic coordinate data resulting 
# from the CCDC's data processing and validation procedures.
#
#######################################################################

data_EMOTAC
_symmetry_cell_setting           monoclinic
_symmetry_space_group_name_H-M   'P 21'
_symmetry_Int_Tables_number      4
_space_group_name_Hall           'P 2yb'
loop_
_symmetry_equiv_pos_site_id
_symmetry_equiv_pos_as_xyz
1 x,y,z
2 -x,1/2+y,-z
_cell_length_a                   6.0278(3)
_cell_length_b                   12.0022(6)
_cell_length_c                   9.2687(4)
_cell_angle_alpha                90
_cell_angle_beta                 97.549(4)
_cell_angle_gamma                90
_cell_volume                     664.75
loop_
_atom_site_label
_atom_site_type_symbol
_atom_site_fract_x
_atom_site_fract_y
_atom_site_fract_z
Ni1 Ni 0.96772(12) 0.10334(6) 0.52375(7)
O1 O 0.6452(6) 0.0470(3) 0.4705(4)
O2 O 0.4270(6) -0.0297(4) 0.2826(5)
O3 O 1.0860(6) -0.0560(3) 0.5515(4)
O4 O 1.1393(6) -0.2319(3) 0.5060(4)
O5 O 1.2970(5) 0.1592(3) 0.5495(4)
H1 H 1.3189 0.2235 0.5180
H2 H 1.4257 0.1080 0.5368
N1 N 0.9771(6) 0.0766(3) 0.3015(4)
H5 H 1.1168 0.0522 0.2902
N2 N 0.9411(6) 0.1114(4) -0.2548(4)
C1 C 0.6089(9) 0.0018(5) 0.3438(5)
C2 C 0.8197(9) -0.0179(4) 0.2687(5)
H6 H 0.7741 -0.0202 0.1633
C3 C 0.9315(8) -0.1284(4) 0.3152(5)
H7 H 1.0356 -0.1459 0.2471
H8 H 0.8167 -0.1855 0.3044
C4 C 1.0582(7) -0.1384(4) 0.4690(4)
C5 C 0.9236(9) 0.1716(4) 0.2024(5)
H9 H 1.0294 0.2311 0.2308
H10 H 0.7758 0.1989 0.2147
C6 C 0.7679(9) 0.1623(5) -0.2064(5)
H11 H 0.6494 0.1860 -0.2739
C7 C 0.7572(9) 0.1811(5) -0.0615(6)
H12 H 0.6339 0.2176 -0.0331
C8 C 0.9280(9) 0.1464(5) 0.0421(5)
C9 C 1.1049(9) 0.0915(6) -0.0082(5)
H13 H 1.2240 0.0658 0.0573
C10 C 1.1044(10) 0.0753(5) -0.1538(6)
H14 H 1.2239 0.0370 -0.1846
Ni1_2 Ni 0.96772(12) 0.10334(6) -0.47625(7)
Ni1A Ni 1.03228(12) -0.39666(6) 0.47625(7)
O4A O 0.8607(6) 0.2681(3) 0.4940(4)
N2_2 N 0.9411(6) 0.1114(4) 0.7452(4)
O6 O 0.5869(8) 0.8259(4) 0.6337(6)
H3 H 0.5992 0.9103 0.6187
H4 H 0.4241 0.8175 0.5977
loop_
_geom_bond_atom_site_label_1
_geom_bond_atom_site_label_2
_geom_bond_site_symmetry_1
_geom_bond_site_symmetry_2
Ni1 O1 1_555 1_555
O1 C1 1_555 1_555
O2 C1 1_555 1_555
O3 Ni1 1_555 1_555
O4 C4 1_555 1_555
O5 Ni1 1_555 1_555
H1 O5 1_555 1_555
H2 O5 1_555 1_555
O6 H3 1_555 1_555
H4 O6 1_555 1_555
N1 Ni1 1_555 1_555
H5 N1 1_555 1_555
N2 C6 1_555 1_555
C1 C2 1_555 1_555
C2 N1 1_555 1_555
H6 C2 1_555 1_555
C3 C2 1_555 1_555
H7 C3 1_555 1_555
H8 C3 1_555 1_555
C4 O3 1_555 1_555
C5 N1 1_555 1_555
H9 C5 1_555 1_555
H10 C5 1_555 1_555
C6 H11 1_555 1_555
C7 C6 1_555 1_555
H12 C7 1_555 1_555
C8 C5 1_555 1_555
C9 C8 1_555 1_555
H13 C9 1_555 1_555
C10 N2 1_555 1_555
H14 C10 1_555 1_555
Ni1_2 N2 1_555 1_555
Ni1A O4 1_555 1_555
O4A Ni1 1_555 1_555
N2_2 Ni1 1_555 1_555
C3 C4 1_555 1_555
C7 C8 1_555 1_555
C9 C10 1_555 1_555

#END
