
#######################################################################
#
#                 Cambridge Crystallographic Data Centre
#                                CCDC 
#
#######################################################################
#
# If this CIF has been generated from an entry in the Cambridge 
# Structural Database, then it will include bibliographic, chemical, 
# crystal, experimental, refinement or atomic coordinate data resulting 
# from the CCDC's data processing and validation procedures.
#
#######################################################################

data_EMOTOQ
_symmetry_cell_setting           triclinic
_symmetry_space_group_name_H-M   'P 1'
_symmetry_Int_Tables_number      1
_space_group_name_Hall           'P 1'
loop_
_symmetry_equiv_pos_site_id
_symmetry_equiv_pos_as_xyz
1 x,y,z
_cell_length_a                   6.18800(10)
_cell_length_b                   7.2073(2)
_cell_length_c                   8.7257(3)
_cell_angle_alpha                102.0420(10)
_cell_angle_beta                 104.1240(10)
_cell_angle_gamma                113.8390(10)
_cell_volume                     323.824
loop_
_atom_site_label
_atom_site_type_symbol
_atom_site_fract_x
_atom_site_fract_y
_atom_site_fract_z
Zn1 Zn -0.4247 -0.1356 -0.3302
O1 O 0.0582(4) 0.4886(3) 0.3706(2)
O2 O 0.4759(3) 0.6886(3) 0.4362(2)
O3 O -0.0276(4) 0.0034(3) -0.2712(2)
O4 O 0.3253(3) 0.3177(3) -0.1718(2)
O5 O -0.7941(4) -0.2393(3) -0.3263(2)
H1 H -0.8821 -0.1550 -0.3213
H2 H -0.8563 -0.3299 -0.4346
O6 O -0.3751(4) -0.2899(3) -0.1712(3)
H3 H -0.5058 -0.4075 -0.1675
H4 H -0.2348 -0.2334 -0.0831
N1 N -0.3189(4) 0.1952(3) -0.2833(2)
H5 H -0.4368 0.2182 -0.2464
N2 N -0.9691(5) -0.1162(4) -0.8903(3)
C1 C 0.2486(5) 0.5530(4) 0.3330(3)
C2 C 0.2250(5) 0.4745(4) 0.1514(3)
H6 H 0.3102 0.3878 0.1426
H7 H 0.3130 0.5992 0.1218
C3 C -0.0480(5) 0.3407(4) 0.0233(3)
H8 H -0.1478 0.4087 0.0496
H9 H -0.1231 0.1974 0.0307
C4 C -0.0546(4) 0.3215(4) -0.1568(3)
H10 H 0.0229 0.4669 -0.1628
C5 C 0.0955(5) 0.2083(4) -0.2030(3)
C6 C -0.3157(5) 0.2632(4) -0.4334(3)
H11 H -0.1714 0.2645 -0.4593
H12 H -0.2886 0.4103 -0.4034
C7 C -0.9944(6) -0.0817(5) -0.7426(4)
H13 H -1.1577 -0.1419 -0.7409
C8 C -0.7930(5) 0.0381(4) -0.5906(3)
H14 H -0.8210 0.0594 -0.4899
C9 C -0.5507(5) 0.1253(4) -0.5906(3)
C10 C -0.5214(6) 0.0909(4) -0.7448(3)
H15 H -0.3603 0.1479 -0.7502
C11 C -0.7347(6) -0.0289(5) -0.8900(3)
H16 H -0.7132 -0.0496 -0.9929
Zn1_2 Zn 0.5753 0.8644 0.6698
O2_2 O -0.5241(3) -0.3114(3) -0.5638(2)
loop_
_geom_bond_atom_site_label_1
_geom_bond_atom_site_label_2
_geom_bond_site_symmetry_1
_geom_bond_site_symmetry_2
Zn1 O3 1_555 1_555
O1 C1 1_555 1_555
O2 C1 1_555 1_555
O3 C5 1_555 1_555
O4 C5 1_555 1_555
O5 Zn1 1_555 1_555
H1 O5 1_555 1_555
H2 O5 1_555 1_555
O6 Zn1 1_555 1_555
H3 O6 1_555 1_555
H4 O6 1_555 1_555
N1 Zn1 1_555 1_555
H5 N1 1_555 1_555
N2 C7 1_555 1_555
C1 C2 1_555 1_555
C2 H6 1_555 1_555
H7 C2 1_555 1_555
C3 C2 1_555 1_555
H8 C3 1_555 1_555
H9 C3 1_555 1_555
C4 N1 1_555 1_555
H10 C4 1_555 1_555
C5 C4 1_555 1_555
C6 N1 1_555 1_555
H11 C6 1_555 1_555
H12 C6 1_555 1_555
C7 H13 1_555 1_555
C8 C7 1_555 1_555
H14 C8 1_555 1_555
C9 C6 1_555 1_555
C10 C9 1_555 1_555
H15 C10 1_555 1_555
C11 N2 1_555 1_555
H16 C11 1_555 1_555
Zn1_2 O2 1_555 1_555
O2_2 Zn1 1_555 1_555
C3 C4 1_555 1_555
C8 C9 1_555 1_555
C10 C11 1_555 1_555

#END
