
#######################################################################
#
#                 Cambridge Crystallographic Data Centre
#                                CCDC 
#
#######################################################################
#
# If this CIF has been generated from an entry in the Cambridge 
# Structural Database, then it will include bibliographic, chemical, 
# crystal, experimental, refinement or atomic coordinate data resulting 
# from the CCDC's data processing and validation procedures.
#
#######################################################################

data_EMOTEG
_symmetry_cell_setting           tetragonal
_symmetry_space_group_name_H-M   'P 43'
_symmetry_Int_Tables_number      78
_space_group_name_Hall           'P 4cw'
loop_
_symmetry_equiv_pos_site_id
_symmetry_equiv_pos_as_xyz
1 x,y,z
2 -x,-y,1/2+z
3 -y,x,3/4+z
4 y,-x,1/4+z
_cell_length_a                   9.3479(2)
_cell_length_b                   9.3479(2)
_cell_length_c                   14.7797(3)
_cell_angle_alpha                90
_cell_angle_beta                 90
_cell_angle_gamma                90
_cell_volume                     1291.5
loop_
_atom_site_label
_atom_site_type_symbol
_atom_site_fract_x
_atom_site_fract_y
_atom_site_fract_z
Zn1 Zn 0.60212(4) 0.06857(4) 0.00675(3)
O1 O 0.5449(3) -0.0440(3) -0.11137(16)
O2 O 0.4452(3) 0.0252(3) -0.2410(2)
O3 O 0.6338(3) 0.2581(3) -0.07479(16)
O4 O 0.5887(3) 0.4520(3) -0.15454(19)
O5 O 0.5786(3) -0.1233(3) 0.08630(18)
H1 H 0.6107 -0.2135 0.0833
H2 H 0.5575 -0.0974 0.1434
O6 O 0.6059(3) 0.1821(3) 0.12793(15)
H3 H 0.5238 0.2228 0.1495
H4 H 0.5895 0.1178 0.1684
N1 N 0.3757(3) 0.1154(3) -0.00880(18)
H5 H 0.3585 0.1885 0.0235
N2 N -0.1760(3) 0.0491(3) 0.0020(2)
C1 C 0.4604(4) 0.0314(4) -0.1575(3)
C2 C 0.3616(4) 0.1386(4) -0.1062(2)
H6 H 0.2623 0.1190 -0.1235
C3 C 0.3970(4) 0.2927(4) -0.1332(2)
H7 H 0.3742 0.3050 -0.1967
H8 H 0.3355 0.3566 -0.0991
C4 C 0.5504(4) 0.3377(4) -0.1184(3)
C5 C 0.2805(3) 0.0031(4) 0.0253(2)
H9 H 0.2969 -0.0067 0.0898
H10 H 0.3081 -0.0865 -0.0028
C6 C -0.1099(4) -0.0755(4) -0.0152(2)
H11 H -0.1654 -0.1551 -0.0292
C7 C 0.0369(4) -0.0907(4) -0.0130(2)
H12 H 0.0786 -0.1781 -0.0274
C8 C 0.1212(3) 0.0238(4) 0.0105(3)
C9 C 0.0541(4) 0.1536(4) 0.0251(2)
H13 H 0.1079 0.2345 0.0386
C10 C -0.0936(3) 0.1625(4) 0.0197(2)
H14 H -0.1370 0.2508 0.0286
Zn1_2 Zn -0.39788(4) 0.06857(4) 0.00675(3)
N2_2 N 0.8240(3) 0.0491(3) 0.0020(2)
O7 O 0.6772(3) -0.3975(3) 0.0913(3)
H15 H 0.7183 -0.4541 0.1345
H16 H 0.6001 -0.4397 0.0658
loop_
_geom_bond_atom_site_label_1
_geom_bond_atom_site_label_2
_geom_bond_site_symmetry_1
_geom_bond_site_symmetry_2
Zn1 O1 1_555 1_555
O1 C1 1_555 1_555
O2 C1 1_555 1_555
O3 Zn1 1_555 1_555
O4 C4 1_555 1_555
O5 Zn1 1_555 1_555
H1 O5 1_555 1_555
H2 O5 1_555 1_555
O6 Zn1 1_555 1_555
H3 O6 1_555 1_555
H4 O6 1_555 1_555
N1 Zn1 1_555 1_555
H5 N1 1_555 1_555
N2 C6 1_555 1_555
C1 C2 1_555 1_555
C2 N1 1_555 1_555
H6 C2 1_555 1_555
C3 C2 1_555 1_555
H7 C3 1_555 1_555
H8 C3 1_555 1_555
C4 O3 1_555 1_555
C5 N1 1_555 1_555
H9 C5 1_555 1_555
H10 C5 1_555 1_555
C6 H11 1_555 1_555
C7 C6 1_555 1_555
H12 C7 1_555 1_555
C8 C5 1_555 1_555
C9 C8 1_555 1_555
H13 C9 1_555 1_555
C10 N2 1_555 1_555
H14 C10 1_555 1_555
O7 H15 1_555 1_555
H16 O7 1_555 1_555
Zn1_2 N2 1_555 1_555
N2_2 Zn1 1_555 1_555
C3 C4 1_555 1_555
C7 C8 1_555 1_555
C9 C10 1_555 1_555

#END
