
#######################################################################
#
#                 Cambridge Crystallographic Data Centre
#                                CCDC 
#
#######################################################################
#
# If this CIF has been generated from an entry in the Cambridge 
# Structural Database, then it will include bibliographic, chemical, 
# crystal, experimental, refinement or atomic coordinate data resulting 
# from the CCDC's data processing and validation procedures.
#
#######################################################################

data_EMOTIK
_symmetry_cell_setting           orthorhombic
_symmetry_space_group_name_H-M   'P 21 21 21'
_symmetry_Int_Tables_number      19
_space_group_name_Hall           'P 2ac 2ab'
loop_
_symmetry_equiv_pos_site_id
_symmetry_equiv_pos_as_xyz
1 x,y,z
2 1/2-x,-y,1/2+z
3 -x,1/2+y,1/2-z
4 1/2+x,1/2-y,-z
_cell_length_a                   8.4907(6)
_cell_length_b                   9.3897(8)
_cell_length_c                   16.0819(10)
_cell_angle_alpha                90
_cell_angle_beta                 90
_cell_angle_gamma                90
_cell_volume                     1282.13
loop_
_atom_site_label
_atom_site_type_symbol
_atom_site_fract_x
_atom_site_fract_y
_atom_site_fract_z
Cd1 Cd -1.04396(4) -0.57780(4) -0.22271(2)
O1 O -0.2701(4) -0.6100(4) -0.3036(2)
O2 O -0.2550(4) -0.7406(4) -0.1909(2)
O3 O -0.9291(4) -0.8038(3) -0.25325(17)
O4 O -0.7960(4) -0.9123(4) -0.3520(2)
N1 N -0.8655(4) -0.5486(4) -0.3342(2)
H3 H -0.8119 -0.4660 -0.3255
N2 N -0.6310(5) -0.4509(5) -0.6132(2)
C1 C -0.3294(6) -0.6969(5) -0.2524(3)
C2 C -0.4940(5) -0.7484(5) -0.2698(4)
H4 H -0.5274 -0.8102 -0.2248
H5 H -0.4934 -0.8043 -0.3205
C3 C -0.6117(5) -0.6282(5) -0.2789(4)
H6 H -0.5580 -0.5454 -0.3012
H7 H -0.6514 -0.6031 -0.2243
C4 C -0.7507(6) -0.6645(5) -0.3352(3)
H8 H -0.7109 -0.6737 -0.3922
C5 C -0.8311(5) -0.8032(5) -0.3122(3)
C6 C -0.9528(6) -0.5334(5) -0.4130(2)
H9 H -1.0293 -0.4573 -0.4073
H10 H -1.0100 -0.6209 -0.4239
C7 C -0.6846(7) -0.3457(6) -0.5656(3)
H11 H -0.6500 -0.2536 -0.5764
C8 C -0.7886(8) -0.3667(6) -0.5013(3)
H12 H -0.8197 -0.2907 -0.4681
C9 C -0.8464(6) -0.5012(6) -0.4866(3)
C10 C -0.7963(6) -0.6089(5) -0.5391(3)
H13 H -0.8353 -0.7009 -0.5332
C11 C -0.6887(5) -0.5780(7) -0.5998(3)
H14 H -0.6544 -0.6521 -0.6337
Cd1_2 Cd -0.04396(4) -0.57780(4) -0.22271(2)
Cd1B Cd -0.95604(4) -1.07780(4) -0.27729(2)
Cd1A Cd -0.45604(4) -0.42220(4) -0.72271(2)
O1_2 O -1.2701(4) -0.6100(4) -0.3036(2)
O2_2 O -1.2550(4) -0.7406(4) -0.1909(2)
O3B O -1.0709(4) -0.3038(3) -0.24675(17)
O4B O -1.2040(4) -0.4123(4) -0.1480(2)
N2A N -0.8690(5) -0.5491(5) -0.1132(2)
O5 O 0.6251(9) -0.5017(7) -0.4628(4)
H1 H 0.6355 -0.5555 -0.4194
H2 H 0.6922 -0.5056 -0.5008
loop_
_geom_bond_atom_site_label_1
_geom_bond_atom_site_label_2
_geom_bond_site_symmetry_1
_geom_bond_site_symmetry_2
Cd1 O3 1_555 1_555
O1 C1 1_555 1_555
O2 C1 1_555 1_555
O3 C5 1_555 1_555
O4 C5 1_555 1_555
O5 H1 1_555 1_555
H2 O5 1_555 1_555
N1 Cd1 1_555 1_555
H3 N1 1_555 1_555
N2 C7 1_555 1_555
C1 C2 1_555 1_555
C2 H4 1_555 1_555
H5 C2 1_555 1_555
C3 C2 1_555 1_555
H6 C3 1_555 1_555
H7 C3 1_555 1_555
C4 N1 1_555 1_555
H8 C4 1_555 1_555
C5 C4 1_555 1_555
C6 N1 1_555 1_555
H9 C6 1_555 1_555
H10 C6 1_555 1_555
C7 H11 1_555 1_555
C8 C7 1_555 1_555
H12 C8 1_555 1_555
C9 C6 1_555 1_555
C10 C9 1_555 1_555
H13 C10 1_555 1_555
C11 N2 1_555 1_555
H14 C11 1_555 1_555
Cd1_2 O1 1_555 1_555
Cd1B O3 1_555 1_555
Cd1A N2 1_555 1_555
O1_2 Cd1 1_555 1_555
O2_2 Cd1 1_555 1_555
O3B Cd1 1_555 1_555
O4B Cd1 1_555 1_555
N2A Cd1 1_555 1_555
O2 Cd1_2 1_555 1_555
O4 Cd1B 1_555 1_555
C3 C4 1_555 1_555
C8 C9 1_555 1_555
C10 C11 1_555 1_555

#END
