
#######################################################################
#
#                 Cambridge Crystallographic Data Centre
#                                CCDC 
#
#######################################################################
#
# If this CIF has been generated from an entry in the Cambridge 
# Structural Database, then it will include bibliographic, chemical, 
# crystal, experimental, refinement or atomic coordinate data resulting 
# from the CCDC's data processing and validation procedures.
#
#######################################################################

data_EMOVIM
_symmetry_cell_setting           triclinic
_symmetry_space_group_name_H-M   'P -1'
_symmetry_Int_Tables_number      2
_space_group_name_Hall           '-P 1'
loop_
_symmetry_equiv_pos_site_id
_symmetry_equiv_pos_as_xyz
1 x,y,z
2 -x,-y,-z
_cell_length_a                   9.906(2)
_cell_length_b                   11.060(2)
_cell_length_c                   11.520(2)
_cell_angle_alpha                69.44(3)
_cell_angle_beta                 70.84(3)
_cell_angle_gamma                87.16(3)
_cell_volume                     1113.2
loop_
_atom_site_label
_atom_site_type_symbol
_atom_site_fract_x
_atom_site_fract_y
_atom_site_fract_z
Ag1 Ag 0.44994(4) 0.64015(3) 0.42821(3)
Ag2 Ag 0.51122(4) 0.16168(3) -0.10790(3)
C1 C 0.3210(5) 0.3066(4) 0.0696(4)
H1 H 0.2467 0.2802 0.0465
C2 C 0.2881(5) 0.3811(4) 0.1482(4)
H2 H 0.1927 0.4044 0.1781
C3 C 0.3941(5) 0.4220(4) 0.1837(4)
C4 C 0.5308(5) 0.3843(4) 0.1371(4)
H3 H 0.6067 0.4098 0.1590
C5 C 0.5566(5) 0.3094(4) 0.0587(4)
H4 H 0.6514 0.2852 0.0279
C6 C 0.3626(5) 0.5029(4) 0.2696(4)
C7 C 0.6739(5) 0.0097(4) -0.2909(4)
H5 H 0.7566 0.0383 -0.2804
C8 C 0.6897(5) -0.0697(4) -0.3623(4)
H6 H 0.7818 -0.0953 -0.4001
C9 C 0.5706(5) -0.1122(4) -0.3792(4)
C10 C 0.4393(5) -0.0706(4) -0.3240(4)
H7 H 0.3554 -0.0967 -0.3345
C11 C 0.4315(5) 0.0098(4) -0.2531(4)
H8 H 0.3406 0.0380 -0.2163
C12 C 0.5796(5) -0.2012(4) -0.4555(4)
C13 C 0.0819(4) 0.7398(4) 0.5358(4)
C14 C 0.0775(4) 0.7529(4) 0.6641(4)
C15 C 0.0524(5) 0.8739(4) 0.6779(4)
H9 H 0.0345 0.9436 0.6091
C16 C 0.0532(5) 0.8934(4) 0.7894(4)
H10 H 0.0370 0.9763 0.7966
C17 C 0.0774(5) 0.7927(4) 0.8906(4)
H11 H 0.0774 0.8057 0.9678
C18 C 0.1018(5) 0.6717(4) 0.8788(4)
H12 H 0.1184 0.6024 0.9486
C19 C 0.1023(4) 0.6507(4) 0.7660(4)
C20 C 0.1178(5) 0.5138(4) 0.7678(4)
N1 N 0.4550(4) 0.2693(3) 0.0238(3)
N2 N 0.5434(4) 0.0493(3) -0.2338(3)
N3 N 0.2296(4) 0.5338(4) 0.3124(4)
H13 H 0.2080 0.5800 0.3637
H14 H 0.1625 0.5081 0.2897
N4 N 0.7086(4) -0.2287(4) -0.5172(4)
H15 H 0.7179 -0.2790 -0.5637
H16 H 0.7850 -0.1968 -0.5119
O2 O 0.4639(4) 0.5397(3) 0.3018(4)
O4 O 0.4670(4) -0.2474(3) -0.4625(4)
O6 O 0.0136(3) 0.4588(3) 0.7613(3)
O7 O 0.2275(4) 0.4604(3) 0.7865(4)
O8 O 0.1713(4) 0.6697(3) 0.4928(3)
O9 O -0.0034(3) 0.8031(3) 0.4806(3)
Ag1_2 Ag 0.44994(4) -0.35985(3) -0.57179(3)
O4_2 O 0.4670(4) 0.7526(3) 0.5375(4)
O1 O -0.0124(3) 0.2164(3) 0.7552(3)
H17 H -0.0108 0.2940 0.7529
H18 H 0.0036 0.2041 0.6832
O3 O 0.7527(4) 0.0629(3) -0.0510(3)
H19 H 0.7486 -0.0118 0.0063
H20 H 0.8346 0.1038 -0.0926
O5 O 0.2170(4) 0.1945(3) 0.8590(3)
H21 H 0.2341 0.2761 0.8313
H22 H 0.1369 0.1802 0.8522
loop_
_geom_bond_atom_site_label_1
_geom_bond_atom_site_label_2
_geom_bond_site_symmetry_1
_geom_bond_site_symmetry_2
Ag1 O2 1_555 1_555
Ag2 N1 1_555 1_555
C1 H1 1_555 1_555
C2 C1 1_555 1_555
H2 C2 1_555 1_555
C3 C2 1_555 1_555
C4 C3 1_555 1_555
H3 C4 1_555 1_555
C5 C4 1_555 1_555
H4 C5 1_555 1_555
C6 C3 1_555 1_555
C7 H5 1_555 1_555
C8 C7 1_555 1_555
H6 C8 1_555 1_555
C9 C8 1_555 1_555
C10 C9 1_555 1_555
H7 C10 1_555 1_555
C11 C10 1_555 1_555
H8 C11 1_555 1_555
C12 C9 1_555 1_555
C13 C14 1_555 1_555
C14 C15 1_555 1_555
C15 H9 1_555 1_555
C16 C15 1_555 1_555
H10 C16 1_555 1_555
C17 C16 1_555 1_555
H11 C17 1_555 1_555
C18 C17 1_555 1_555
H12 C18 1_555 1_555
C19 C14 1_555 1_555
C20 C19 1_555 1_555
N1 C1 1_555 1_555
N2 Ag2 1_555 1_555
N3 C6 1_555 1_555
H13 N3 1_555 1_555
H14 N3 1_555 1_555
N4 C12 1_555 1_555
H15 N4 1_555 1_555
H16 N4 1_555 1_555
O1 H17 1_555 1_555
H18 O1 1_555 1_555
O2 C6 1_555 1_555
O3 H19 1_555 1_555
H20 O3 1_555 1_555
O4 C12 1_555 1_555
O5 H21 1_555 1_555
H22 O5 1_555 1_555
O6 C20 1_555 1_555
O7 C20 1_555 1_555
O8 Ag1 1_555 1_555
O9 C13 1_555 1_555
Ag1_2 O4 1_555 1_555
O4_2 Ag1 1_555 1_555
C5 N1 1_555 1_555
C7 N2 1_555 1_555
C11 N2 1_555 1_555
C13 O8 1_555 1_555
C18 C19 1_555 1_555

#END
