
#######################################################################
#
#                 Cambridge Crystallographic Data Centre
#                                CCDC 
#
#######################################################################
#
# If this CIF has been generated from an entry in the Cambridge 
# Structural Database, then it will include bibliographic, chemical, 
# crystal, experimental, refinement or atomic coordinate data resulting 
# from the CCDC's data processing and validation procedures.
#
#######################################################################

data_EMOVUY
_symmetry_cell_setting           monoclinic
_symmetry_space_group_name_H-M   'C 2/c'
_symmetry_Int_Tables_number      15
_space_group_name_Hall           '-C 2yn'
loop_
_symmetry_equiv_pos_site_id
_symmetry_equiv_pos_as_xyz
1 x,y,z
2 -x,y,1/2-z
3 1/2+x,1/2+y,z
4 1/2-x,1/2+y,1/2-z
5 -x,-y,-z
6 x,-y,1/2+z
7 1/2-x,1/2-y,-z
8 1/2+x,1/2-y,1/2+z
_cell_length_a                   18.1301(19)
_cell_length_b                   8.2353(7)
_cell_length_c                   24.658(2)
_cell_angle_alpha                90
_cell_angle_beta                 101.996(2)
_cell_angle_gamma                90
_cell_volume                     3601.21
loop_
_atom_site_label
_atom_site_type_symbol
_atom_site_fract_x
_atom_site_fract_y
_atom_site_fract_z
Cd1 Cd 0.01026(2) 1.00293(5) 0.419096(19)
Cd2 Cd 0.0000 0.99803(8) 0.2500
Br1 Br -0.01986(4) 1.21306(8) 0.32443(3)
Br2 Br -0.03680(4) 0.76110(9) 0.35843(3)
Br3 Br -0.05685(4) 1.18637(8) 0.47844(3)
N1 N 0.2443(2) 1.0794(5) 0.42204(19)
N2 N 0.1821(3) 0.9910(5) 0.4205(2)
N3 N 0.1290(2) 1.0896(6) 0.42716(19)
N4 N 0.2329(2) 0.9180(5) 0.31657(19)
N5 N 0.1679(3) 0.9975(5) 0.3018(2)
N6 N 0.1140(2) 0.8904(6) 0.28515(18)
C1 C 0.1566(3) 1.2467(7) 0.4332(2)
C2 C 0.2310(3) 1.2401(6) 0.4301(2)
C3 C 0.2775(3) 1.3757(7) 0.4370(2)
H1 H 0.3286 1.3687 0.4365
C4 C 0.2435(4) 1.5210(7) 0.4444(2)
H2 H 0.2722 1.6156 0.4488
C5 C 0.1657(4) 1.5299(8) 0.4455(3)
H3 H 0.1443 1.6304 0.4498
C6 C 0.1219(4) 1.3947(7) 0.4406(3)
H4 H 0.0710 1.4002 0.4420
C7 C 0.1452(3) 0.7375(6) 0.2907(2)
C8 C 0.2223(3) 0.7553(6) 0.3099(2)
C9 C 0.2715(3) 0.6241(7) 0.3171(2)
H5 H 0.3232 0.6384 0.3289
C10 C 0.2411(4) 0.4750(7) 0.3063(2)
H6 H 0.2724 0.3845 0.3103
C11 C 0.1621(4) 0.4547(8) 0.2888(3)
H7 H 0.1427 0.3501 0.2833
C12 C 0.1135(4) 0.5821(7) 0.2799(3)
H8 H 0.0620 0.5673 0.2673
C13 C 0.3091(3) 1.0039(7) 0.4065(3)
H9 H 0.3142 0.8934 0.4203
H10 H 0.3544 1.0630 0.4233
C14 C 0.3003(3) 1.0029(7) 0.3428(2)
H11 H 0.2982 1.1138 0.3293
H12 H 0.3439 0.9507 0.3332
Cd1A Cd -0.01026(2) 1.00293(5) 0.080904(19)
Cd1D Cd -0.01026(2) 0.99707(5) 0.580904(19)
Br1A Br 0.01986(4) 1.21306(8) 0.17557(3)
Br2A Br 0.03680(4) 0.76110(9) 0.14157(3)
Br3D Br 0.05685(4) 0.81363(8) 0.52156(3)
Br3A Br 0.05685(4) 1.18637(8) 0.02156(3)
Br3E Br -0.05685(4) 0.81363(8) -0.02156(3)
N1A N -0.2443(2) 1.0794(5) 0.07796(19)
N2A N -0.1821(3) 0.9910(5) 0.0795(2)
N3A N -0.1290(2) 1.0896(6) 0.07284(19)
N4A N -0.2329(2) 0.9180(5) 0.18343(19)
N5A N -0.1679(3) 0.9975(5) 0.1982(2)
N6A N -0.1140(2) 0.8904(6) 0.21485(18)
C1A C -0.1566(3) 1.2467(7) 0.0668(2)
C2A C -0.2310(3) 1.2401(6) 0.0699(2)
C3A C -0.2775(3) 1.3757(7) 0.0630(2)
H1A H -0.3286 1.3687 0.0635
C4A C -0.2435(4) 1.5210(7) 0.0556(2)
H2A H -0.2722 1.6156 0.0512
C5A C -0.1657(4) 1.5299(8) 0.0545(3)
H3A H -0.1443 1.6304 0.0502
C6A C -0.1219(4) 1.3947(7) 0.0594(3)
H4A H -0.0710 1.4002 0.0580
C7A C -0.1452(3) 0.7375(6) 0.2093(2)
C8A C -0.2223(3) 0.7553(6) 0.1901(2)
C9A C -0.2715(3) 0.6241(7) 0.1829(2)
H5A H -0.3232 0.6384 0.1711
C10A C -0.2411(4) 0.4750(7) 0.1937(2)
H6A H -0.2724 0.3845 0.1897
C11A C -0.1621(4) 0.4547(8) 0.2112(3)
H7A H -0.1427 0.3501 0.2167
C12A C -0.1135(4) 0.5821(7) 0.2201(3)
H8A H -0.0620 0.5673 0.2327
C13A C -0.3091(3) 1.0039(7) 0.0935(3)
H9A H -0.3142 0.8934 0.0797
H10A H -0.3544 1.0630 0.0767
C14A C -0.3003(3) 1.0029(7) 0.1572(2)
H11A H -0.2982 1.1138 0.1707
H12A H -0.3439 0.9507 0.1668
loop_
_geom_bond_atom_site_label_1
_geom_bond_atom_site_label_2
_geom_bond_site_symmetry_1
_geom_bond_site_symmetry_2
Cd1 Br1 1_555 1_555
Cd2 Br1 1_555 1_555
Br2 Cd1 1_555 1_555
Br3 Cd1 1_555 1_555
N1 N2 1_555 1_555
N2 N3 1_555 1_555
N3 Cd1 1_555 1_555
N4 N5 1_555 1_555
N5 N6 1_555 1_555
N6 Cd2 1_555 1_555
C1 N3 1_555 1_555
C2 N1 1_555 1_555
C3 C2 1_555 1_555
H1 C3 1_555 1_555
C4 C3 1_555 1_555
H2 C4 1_555 1_555
C5 C4 1_555 1_555
H3 C5 1_555 1_555
C6 C1 1_555 1_555
H4 C6 1_555 1_555
C7 N6 1_555 1_555
C8 N4 1_555 1_555
C9 C8 1_555 1_555
H5 C9 1_555 1_555
C10 C9 1_555 1_555
H6 C10 1_555 1_555
C11 C10 1_555 1_555
H7 C11 1_555 1_555
C12 C7 1_555 1_555
H8 C12 1_555 1_555
C13 N1 1_555 1_555
H9 C13 1_555 1_555
H10 C13 1_555 1_555
C14 N4 1_555 1_555
H11 C14 1_555 1_555
H12 C14 1_555 1_555
Cd1A Br1A 1_555 1_555
Cd1D Br3 1_555 1_555
Br1A Cd2 1_555 1_555
Br2A Cd2 1_555 1_555
Br3D Cd1 1_555 1_555
Br3A Cd1A 1_555 1_555
Br3E Cd1A 1_555 1_555
N1A N2A 1_555 1_555
N2A N3A 1_555 1_555
N3A Cd1A 1_555 1_555
N4A N5A 1_555 1_555
N5A N6A 1_555 1_555
N6A Cd2 1_555 1_555
C1A N3A 1_555 1_555
C2A N1A 1_555 1_555
C3A C2A 1_555 1_555
H1A C3A 1_555 1_555
C4A C3A 1_555 1_555
H2A C4A 1_555 1_555
C5A C4A 1_555 1_555
H3A C5A 1_555 1_555
C6A C1A 1_555 1_555
H4A C6A 1_555 1_555
C7A N6A 1_555 1_555
C8A N4A 1_555 1_555
C9A C8A 1_555 1_555
H5A C9A 1_555 1_555
C10A C9A 1_555 1_555
H6A C10A 1_555 1_555
C11A C10A 1_555 1_555
H7A C11A 1_555 1_555
C12A C7A 1_555 1_555
H8A C12A 1_555 1_555
C13A N1A 1_555 1_555
H9A C13A 1_555 1_555
H10A C13A 1_555 1_555
C14A N4A 1_555 1_555
H11A C14A 1_555 1_555
H12A C14A 1_555 1_555
Cd2 Br2 1_555 1_555
C1 C2 1_555 1_555
C5 C6 1_555 1_555
C7 C8 1_555 1_555
C11 C12 1_555 1_555
C13 C14 1_555 1_555
Cd1A Br2A 1_555 1_555
Cd1D Br3D 1_555 1_555
C1A C2A 1_555 1_555
C5A C6A 1_555 1_555
C7A C8A 1_555 1_555
C11A C12A 1_555 1_555
C13A C14A 1_555 1_555

#END
