
#######################################################################
#
#                 Cambridge Crystallographic Data Centre
#                                CCDC 
#
#######################################################################
#
# If this CIF has been generated from an entry in the Cambridge 
# Structural Database, then it will include bibliographic, chemical, 
# crystal, experimental, refinement or atomic coordinate data resulting 
# from the CCDC's data processing and validation procedures.
#
#######################################################################

data_EMOWAF
_symmetry_cell_setting           monoclinic
_symmetry_space_group_name_H-M   'C 2/c'
_symmetry_Int_Tables_number      15
_space_group_name_Hall           '-C 2yn'
loop_
_symmetry_equiv_pos_site_id
_symmetry_equiv_pos_as_xyz
1 x,y,z
2 -x,y,1/2-z
3 1/2+x,1/2+y,z
4 1/2-x,1/2+y,1/2-z
5 -x,-y,-z
6 x,-y,1/2+z
7 1/2-x,1/2-y,-z
8 1/2+x,1/2-y,1/2+z
_cell_length_a                   25.887(2)
_cell_length_b                   6.7510(10)
_cell_length_c                   25.753(2)
_cell_angle_alpha                90
_cell_angle_beta                 104.269(2)
_cell_angle_gamma                90
_cell_volume                     4361.83
loop_
_atom_site_label
_atom_site_type_symbol
_atom_site_fract_x
_atom_site_fract_y
_atom_site_fract_z
Cd1 Cd 0.62870(3) 0.75345(13) 0.87821(3)
Cd2 Cd 0.68696(3) 0.25102(12) 0.93589(3)
Cd3 Cd 0.7500 0.7500 1.0000
Cl1 Cl 0.65590(10) 0.5880(4) 0.97604(10)
Cl2 Cl 0.66405(12) 0.4224(4) 0.84526(11)
Cl3 Cl 0.71562(10) 1.0866(4) 1.03428(10)
Cl4 Cl 0.59656(11) 1.0832(5) 0.91492(12)
Cl5 Cl 0.77325(10) 0.5842(4) 1.09561(10)
N1 N 0.4705(4) 0.5042(18) 0.8303(5)
N2 N 0.5202(4) 0.5489(16) 0.8278(4)
N3 N 0.5416(4) 0.6447(15) 0.8695(4)
N4 N 0.4189(5) 0.0168(18) 0.7794(4)
N5 N 0.4225(4) -0.0386(18) 0.7295(5)
N6 N 0.3814(4) -0.1370(17) 0.7091(4)
C1 C 0.4398(6) 0.368(2) 0.7939(6)
H1 H 0.4440 0.3949 0.7581
H2 H 0.4024 0.3844 0.7933
C2 C 0.4566(6) 0.155(2) 0.8092(6)
H3 H 0.4913 0.1303 0.8025
H4 H 0.4597 0.1362 0.8472
C3 C 0.5090(5) 0.6647(19) 0.9034(6)
C4 C 0.4617(6) 0.567(2) 0.8782(6)
C5 C 0.4167(7) 0.560(3) 0.8986(8)
H5 H 0.3849 0.4999 0.8808
C6 C 0.4242(8) 0.651(3) 0.9487(9)
H6 H 0.3963 0.6471 0.9656
C7 C 0.4713(6) 0.747(2) 0.9747(6)
H7 H 0.4733 0.8085 1.0075
C8 C 0.5135(5) 0.754(2) 0.9537(5)
H8 H 0.5449 0.8154 0.9718
C9 C 0.3478(5) -0.1489(19) 0.7428(5)
C10 C 0.3715(6) -0.047(2) 0.7885(5)
C11 C 0.3486(7) -0.025(3) 0.8326(6)
H9 H 0.3647 0.0480 0.8629
C12 C 0.3016(7) -0.118(3) 0.8270(6)
H10 H 0.2852 -0.1122 0.8553
C13 C 0.2757(5) -0.224(2) 0.7804(5)
H11 H 0.2427 -0.2812 0.7785
C14 C 0.2983(5) -0.242(2) 0.7381(5)
H12 H 0.2818 -0.3134 0.7076
Cd1F Cd 0.87130(3) 0.74655(13) 1.12179(3)
Cd1A Cd 0.37130(3) -0.24655(13) 0.62179(3)
Cd1A_2 Cd 0.37130(3) 1.75345(13) 0.62179(3)
Cd1_2 Cd 0.62870(3) -0.24655(13) 0.87821(3)
Cd2F Cd 0.81304(3) 1.24898(12) 1.06411(3)
Cd2_2 Cd 0.68696(3) 1.25102(12) 0.93589(3)
Cd2F_2 Cd 0.81304(3) 0.24898(12) 1.06411(3)
Cl1F Cl 0.84410(10) 0.9120(4) 1.02396(10)
Cl2F Cl 0.83595(12) 1.0776(4) 1.15474(11)
Cl3F Cl 0.78438(10) 0.4134(4) 0.96572(10)
Cl3_2 Cl 0.71562(10) 0.0866(4) 1.03428(10)
Cl3F_2 Cl 0.78438(10) 1.4134(4) 0.96572(10)
Cl4_2 Cl 0.59656(11) 0.0832(5) 0.91492(12)
Cl4F Cl 0.90344(11) 0.4168(5) 1.08508(12)
Cl4F_2 Cl 0.90344(11) 1.4168(5) 1.08508(12)
Cl5F Cl 0.72675(10) 0.9158(4) 0.90439(10)
Cl5F_2 Cl 0.72675(10) -0.0842(4) 0.90439(10)
Cl5_2 Cl 0.77325(10) 1.5842(4) 1.09561(10)
N1A N 0.5295(4) 1.5042(18) 0.6697(5)
N2A N 0.4798(4) 1.5489(16) 0.6722(4)
N3A N 0.4584(4) 1.6447(15) 0.6305(4)
N3F N 0.9584(4) 0.8553(15) 1.1305(4)
N4A N 0.5811(5) 1.0168(18) 0.7206(4)
N5A N 0.5775(4) 0.9614(18) 0.7705(5)
N6A N 0.6186(4) 0.8630(17) 0.7909(4)
N6G N 0.8814(4) 0.6370(17) 1.2091(4)
C1A C 0.5602(6) 1.368(2) 0.7061(6)
H1A H 0.5560 1.3949 0.7419
H2A H 0.5976 1.3844 0.7067
C2A C 0.5434(6) 1.155(2) 0.6908(6)
H3A H 0.5087 1.1303 0.6975
H4A H 0.5403 1.1362 0.6528
C3A C 0.4910(5) 1.6647(19) 0.5966(6)
C4A C 0.5383(6) 1.567(2) 0.6218(6)
C5A C 0.5833(7) 1.560(3) 0.6014(8)
H5A H 0.6151 1.4999 0.6192
C6A C 0.5758(8) 1.651(3) 0.5513(9)
H6A H 0.6037 1.6471 0.5344
C7A C 0.5287(6) 1.747(2) 0.5253(6)
H7A H 0.5267 1.8085 0.4925
C8A C 0.4865(5) 1.754(2) 0.5463(5)
H8A H 0.4551 1.8154 0.5282
C9A C 0.6522(5) 0.8511(19) 0.7572(5)
C10A C 0.6285(6) 0.953(2) 0.7115(5)
C11A C 0.6514(7) 0.975(3) 0.6674(6)
H9A H 0.6353 1.0480 0.6371
C12A C 0.6984(7) 0.882(3) 0.6730(6)
H10A H 0.7148 0.8878 0.6447
C13A C 0.7243(5) 0.776(2) 0.7196(5)
H11A H 0.7573 0.7188 0.7215
C14A C 0.7017(5) 0.758(2) 0.7619(5)
H12A H 0.7182 0.6866 0.7924
loop_
_geom_bond_atom_site_label_1
_geom_bond_atom_site_label_2
_geom_bond_site_symmetry_1
_geom_bond_site_symmetry_2
Cd1 Cl1 1_555 1_555
Cd2 Cl1 1_555 1_555
Cd3 Cl1 1_555 1_555
Cl2 Cd1 1_555 1_555
Cl3 Cd3 1_555 1_555
Cl4 Cd1 1_555 1_555
Cl5 Cd3 1_555 1_555
N1 N2 1_555 1_555
N2 N3 1_555 1_555
N3 Cd1 1_555 1_555
N4 N5 1_555 1_555
N5 N6 1_555 1_555
N6 C9 1_555 1_555
C1 N1 1_555 1_555
H1 C1 1_555 1_555
H2 C1 1_555 1_555
C2 N4 1_555 1_555
H3 C2 1_555 1_555
H4 C2 1_555 1_555
C3 N3 1_555 1_555
C4 N1 1_555 1_555
C5 C4 1_555 1_555
H5 C5 1_555 1_555
C6 C5 1_555 1_555
H6 C6 1_555 1_555
C7 C6 1_555 1_555
H7 C7 1_555 1_555
C8 C3 1_555 1_555
H8 C8 1_555 1_555
C9 C10 1_555 1_555
C10 N4 1_555 1_555
C11 C10 1_555 1_555
H9 C11 1_555 1_555
C12 C11 1_555 1_555
H10 C12 1_555 1_555
C13 C12 1_555 1_555
H11 C13 1_555 1_555
C14 C9 1_555 1_555
H12 C14 1_555 1_555
Cd1F Cl5 1_555 1_555
Cd1A N6 1_555 1_555
Cd1A_2 N3A 1_555 1_555
Cd1_2 Cl4_2 1_555 1_555
Cd2F Cl3 1_555 1_555
Cd2_2 Cl3 1_555 1_555
Cd2F_2 Cl5 1_555 1_555
Cl1F Cd3 1_555 1_555
Cl2F Cd1F 1_555 1_555
Cl3F Cd2 1_555 1_555
Cl3_2 Cd2 1_555 1_555
Cl3F_2 Cd2F 1_555 1_555
Cl4_2 Cd2 1_555 1_555
Cl4F Cd1F 1_555 1_555
Cl4F_2 Cd2F 1_555 1_555
Cl5F Cd1 1_555 1_555
Cl5F_2 Cd2 1_555 1_555
Cl5_2 Cd2F 1_555 1_555
N1A N2A 1_555 1_555
N2A N3A 1_555 1_555
N3A C3A 1_555 1_555
N3F Cd1F 1_555 1_555
N4A N5A 1_555 1_555
N5A N6A 1_555 1_555
N6A Cd1 1_555 1_555
N6G Cd1F 1_555 1_555
C1A N1A 1_555 1_555
H1A C1A 1_555 1_555
H2A C1A 1_555 1_555
C2A N4A 1_555 1_555
H3A C2A 1_555 1_555
H4A C2A 1_555 1_555
C3A C4A 1_555 1_555
C4A N1A 1_555 1_555
C5A C4A 1_555 1_555
H5A C5A 1_555 1_555
C6A C5A 1_555 1_555
H6A C6A 1_555 1_555
C7A C6A 1_555 1_555
H7A C7A 1_555 1_555
C8A C3A 1_555 1_555
H8A C8A 1_555 1_555
C9A N6A 1_555 1_555
C10A N4A 1_555 1_555
C11A C10A 1_555 1_555
H9A C11A 1_555 1_555
C12A C11A 1_555 1_555
H10A C12A 1_555 1_555
C13A C12A 1_555 1_555
H11A C13A 1_555 1_555
C14A C9A 1_555 1_555
H12A C14A 1_555 1_555
Cd2 Cl2 1_555 1_555
Cd3 Cl3F 1_555 1_555
Cd3 Cl5F 1_555 1_555
Cl4 Cd2_2 1_555 1_555
C1 C2 1_555 1_555
C3 C4 1_555 1_555
C7 C8 1_555 1_555
C13 C14 1_555 1_555
Cd1F Cl1F 1_555 1_555
Cd1_2 Cl5F_2 1_555 1_555
Cd2F Cl1F 1_555 1_555
Cd2F Cl2F 1_555 1_555
Cd2_2 Cl3F_2 1_555 1_555
Cd2_2 Cl5F 1_555 1_555
Cd2F_2 Cl3F 1_555 1_555
Cd2F_2 Cl3_2 1_555 1_555
Cd2F_2 Cl4F 1_555 1_555
C1A C2A 1_555 1_555
C7A C8A 1_555 1_555
C9A C10A 1_555 1_555
C13A C14A 1_555 1_555

#END
