
#######################################################################
#
#                 Cambridge Crystallographic Data Centre
#                                CCDC 
#
#######################################################################
#
# If this CIF has been generated from an entry in the Cambridge 
# Structural Database, then it will include bibliographic, chemical, 
# crystal, experimental, refinement or atomic coordinate data resulting 
# from the CCDC's data processing and validation procedures.
#
#######################################################################

data_EMOWOT
_symmetry_cell_setting           monoclinic
_symmetry_space_group_name_H-M   'P 21/n'
_symmetry_Int_Tables_number      14
_space_group_name_Hall           '-P 2yn'
loop_
_symmetry_equiv_pos_site_id
_symmetry_equiv_pos_as_xyz
1 x,y,z
2 1/2-x,1/2+y,1/2-z
3 -x,-y,-z
4 1/2+x,1/2-y,1/2+z
_cell_length_a                   10.2326(11)
_cell_length_b                   12.4020(17)
_cell_length_c                   16.713(2)
_cell_angle_alpha                90
_cell_angle_beta                 91.9780(10)
_cell_angle_gamma                90
_cell_volume                     2119.69
loop_
_atom_site_label
_atom_site_type_symbol
_atom_site_fract_x
_atom_site_fract_y
_atom_site_fract_z
Cd1 Cd 0.54408(2) 0.63696(2) 1.555074(15)
Br1 Br 0.55506(4) 0.40261(3) 1.58522(2)
Br2 Br 0.41848(4) 0.67649(3) 1.67960(2)
N1 N 0.6590(3) 0.9631(2) 1.46553(17)
N2 N 0.5984(3) 0.8674(2) 1.45938(18)
N3 N 0.5995(3) 0.8241(2) 1.53106(19)
N4 N 1.0453(3) 1.3806(2) 1.37965(17)
N5 N 1.1738(3) 1.3830(2) 1.36811(18)
N6 N 1.2349(3) 1.3737(2) 1.43771(18)
C1 C 0.6631(3) 0.8929(3) 1.5842(2)
C2 C 0.7017(4) 0.9820(3) 1.5419(2)
C3 C 0.7712(4) 1.0671(3) 1.5787(3)
H1 H 0.7985 1.1269 1.5501
C4 C 0.7964(5) 1.0568(4) 1.6594(3)
H2 H 0.8405 1.1120 1.6865
C5 C 0.7584(5) 0.9666(4) 1.7021(3)
H3 H 0.7790 0.9632 1.7567
C6 C 0.6924(4) 0.8836(3) 1.6671(2)
H4 H 0.6676 0.8234 1.6962
C7 C 1.1445(3) 1.3630(3) 1.4957(2)
C8 C 1.0204(3) 1.3681(3) 1.4587(2)
C9 C 0.9064(4) 1.3613(3) 1.5014(2)
H5 H 0.8240 1.3656 1.4764
C10 C 0.9230(4) 1.3477(3) 1.5823(3)
H6 H 0.8495 1.3421 1.6132
C11 C 1.0478(4) 1.3420(3) 1.6205(2)
H7 H 1.0540 1.3323 1.6757
C12 C 1.1593(4) 1.3501(3) 1.5791(2)
H8 H 1.2414 1.3473 1.6046
C13 C 0.6837(4) 1.0251(3) 1.3938(2)
H9 H 0.6817 1.1013 1.4066
H10 H 0.6146 1.0111 1.3540
C14 C 0.8136(4) 0.9983(3) 1.3588(2)
H11 H 0.8085 0.9272 1.3348
H12 H 0.8800 0.9961 1.4016
C15 C 0.8545(4) 1.0793(3) 1.2958(2)
H13 H 0.9224 1.0476 1.2642
H14 H 0.7802 1.0948 1.2601
C16 C 0.9042(4) 1.1827(3) 1.3324(2)
H15 H 0.9804 1.1668 1.3664
H16 H 0.8375 1.2118 1.3661
C17 C 0.9409(4) 1.2687(3) 1.2723(2)
H17 H 1.0230 1.2490 1.2490
H18 H 0.8745 1.2711 1.2295
C18 C 0.9545(4) 1.3798(3) 1.3093(2)
H19 H 0.8692 1.4045 1.3251
H20 H 0.9857 1.4296 1.2695
Cd1B Cd 0.45592(2) 0.36304(2) 1.444926(15)
Cd1_2 Cd -0.45592(2) -0.36304(2) 1.555074(15)
Cd1B_2 Cd 1.45592(2) 1.36304(2) 1.444926(15)
Br1B Br 0.44494(4) 0.59739(3) 1.41478(2)
Br2B Br 0.58152(4) 0.32351(3) 1.32040(2)
N1B N 0.3410(3) 0.0369(2) 1.53447(17)
N2B N 0.4016(3) 0.1326(2) 1.54062(18)
N3B N 0.4005(3) 0.1759(2) 1.46894(19)
N4B N -0.0453(3) -0.3806(2) 1.62035(17)
N5B N -0.1738(3) -0.3830(2) 1.63189(18)
N6B N -0.2349(3) -0.3737(2) 1.56229(18)
N6_2 N 0.2349(3) 0.3737(2) 1.43771(18)
N6B_2 N 0.7651(3) 0.6263(2) 1.56229(18)
C1B C 0.3369(3) 0.1071(3) 1.4158(2)
C2B C 0.2983(4) 0.0180(3) 1.4581(2)
C3B C 0.2288(4) -0.0671(3) 1.4213(3)
H1B H 0.2015 -0.1269 1.4499
C4B C 0.2036(5) -0.0568(4) 1.3406(3)
H2B H 0.1595 -0.1120 1.3135
C5B C 0.2416(5) 0.0334(4) 1.2979(3)
H3B H 0.2210 0.0368 1.2433
C6B C 0.3076(4) 0.1164(3) 1.3329(2)
H4B H 0.3324 0.1766 1.3038
C7B C -0.1445(3) -0.3630(3) 1.5043(2)
C8B C -0.0204(3) -0.3681(3) 1.5413(2)
C9B C 0.0936(4) -0.3613(3) 1.4986(2)
H5B H 0.1760 -0.3656 1.5236
C10B C 0.0770(4) -0.3477(3) 1.4177(3)
H6B H 0.1505 -0.3421 1.3868
C11B C -0.0478(4) -0.3420(3) 1.3795(2)
H7B H -0.0540 -0.3323 1.3243
C12B C -0.1593(4) -0.3501(3) 1.4209(2)
H8B H -0.2414 -0.3473 1.3954
C13B C 0.3163(4) -0.0251(3) 1.6062(2)
H9B H 0.3183 -0.1013 1.5934
H10B H 0.3854 -0.0111 1.6460
C14B C 0.1864(4) 0.0017(3) 1.6412(2)
H11B H 0.1915 0.0728 1.6652
H12B H 0.1200 0.0039 1.5984
C15B C 0.1455(4) -0.0793(3) 1.7042(2)
H13B H 0.0776 -0.0476 1.7358
H14B H 0.2198 -0.0948 1.7399
C16B C 0.0958(4) -0.1827(3) 1.6676(2)
H15B H 0.0196 -0.1668 1.6336
H16B H 0.1625 -0.2118 1.6339
C17B C 0.0591(4) -0.2687(3) 1.7277(2)
H17B H -0.0230 -0.2490 1.7510
H18B H 0.1255 -0.2711 1.7705
C18B C 0.0455(4) -0.3798(3) 1.6907(2)
H19B H 0.1308 -0.4045 1.6749
H20B H 0.0143 -0.4296 1.7305
loop_
_geom_bond_atom_site_label_1
_geom_bond_atom_site_label_2
_geom_bond_site_symmetry_1
_geom_bond_site_symmetry_2
Cd1 Br1 1_555 1_555
Br1 Cd1B 1_555 1_555
Br2 Cd1 1_555 1_555
N1 N2 1_555 1_555
N2 N3 1_555 1_555
N3 Cd1 1_555 1_555
N4 N5 1_555 1_555
N5 N6 1_555 1_555
N6 C7 1_555 1_555
C1 N3 1_555 1_555
C2 N1 1_555 1_555
C3 C2 1_555 1_555
H1 C3 1_555 1_555
C4 C3 1_555 1_555
H2 C4 1_555 1_555
C5 C4 1_555 1_555
H3 C5 1_555 1_555
C6 C1 1_555 1_555
H4 C6 1_555 1_555
C7 C8 1_555 1_555
C8 N4 1_555 1_555
C9 C8 1_555 1_555
H5 C9 1_555 1_555
C10 C9 1_555 1_555
H6 C10 1_555 1_555
C11 C10 1_555 1_555
H7 C11 1_555 1_555
C12 C7 1_555 1_555
H8 C12 1_555 1_555
C13 N1 1_555 1_555
H9 C13 1_555 1_555
H10 C13 1_555 1_555
C14 C13 1_555 1_555
H11 C14 1_555 1_555
H12 C14 1_555 1_555
C15 C14 1_555 1_555
H13 C15 1_555 1_555
H14 C15 1_555 1_555
C16 C15 1_555 1_555
H15 C16 1_555 1_555
H16 C16 1_555 1_555
C17 C16 1_555 1_555
H17 C17 1_555 1_555
H18 C17 1_555 1_555
C18 N4 1_555 1_555
H19 C18 1_555 1_555
H20 C18 1_555 1_555
Cd1B Br1B 1_555 1_555
Cd1_2 N6B 1_555 1_555
Cd1B_2 N6 1_555 1_555
Br1B Cd1 1_555 1_555
Br2B Cd1B 1_555 1_555
N1B N2B 1_555 1_555
N2B N3B 1_555 1_555
N3B Cd1B 1_555 1_555
N4B N5B 1_555 1_555
N5B N6B 1_555 1_555
N6B C7B 1_555 1_555
N6_2 Cd1B 1_555 1_555
N6B_2 Cd1 1_555 1_555
C1B N3B 1_555 1_555
C2B N1B 1_555 1_555
C3B C2B 1_555 1_555
H1B C3B 1_555 1_555
C4B C3B 1_555 1_555
H2B C4B 1_555 1_555
C5B C4B 1_555 1_555
H3B C5B 1_555 1_555
C6B C1B 1_555 1_555
H4B C6B 1_555 1_555
C7B C8B 1_555 1_555
C8B N4B 1_555 1_555
C9B C8B 1_555 1_555
H5B C9B 1_555 1_555
C10B C9B 1_555 1_555
H6B C10B 1_555 1_555
C11B C10B 1_555 1_555
H7B C11B 1_555 1_555
C12B C7B 1_555 1_555
H8B C12B 1_555 1_555
C13B N1B 1_555 1_555
H9B C13B 1_555 1_555
H10B C13B 1_555 1_555
C14B C13B 1_555 1_555
H11B C14B 1_555 1_555
H12B C14B 1_555 1_555
C15B C14B 1_555 1_555
H13B C15B 1_555 1_555
H14B C15B 1_555 1_555
C16B C15B 1_555 1_555
H15B C16B 1_555 1_555
H16B C16B 1_555 1_555
C17B C16B 1_555 1_555
H17B C17B 1_555 1_555
H18B C17B 1_555 1_555
C18B N4B 1_555 1_555
H19B C18B 1_555 1_555
H20B C18B 1_555 1_555
C1 C2 1_555 1_555
C5 C6 1_555 1_555
C11 C12 1_555 1_555
C17 C18 1_555 1_555
C1B C2B 1_555 1_555
C5B C6B 1_555 1_555
C11B C12B 1_555 1_555
C17B C18B 1_555 1_555

#END
