
#######################################################################
#
#                 Cambridge Crystallographic Data Centre
#                                CCDC 
#
#######################################################################
#
# If this CIF has been generated from an entry in the Cambridge 
# Structural Database, then it will include bibliographic, chemical, 
# crystal, experimental, refinement or atomic coordinate data resulting 
# from the CCDC's data processing and validation procedures.
#
#######################################################################

data_EMOWIN
_symmetry_cell_setting           monoclinic
_symmetry_space_group_name_H-M   'P 21/c'
_symmetry_Int_Tables_number      14
_space_group_name_Hall           '-P 2ybc'
loop_
_symmetry_equiv_pos_site_id
_symmetry_equiv_pos_as_xyz
1 x,y,z
2 -x,1/2+y,1/2-z
3 -x,-y,-z
4 x,1/2-y,1/2+z
_cell_length_a                   10.5203(9)
_cell_length_b                   23.232(3)
_cell_length_c                   8.5244(7)
_cell_angle_alpha                90
_cell_angle_beta                 111.5780(10)
_cell_angle_gamma                90
_cell_volume                     1937.42
loop_
_atom_site_label
_atom_site_type_symbol
_atom_site_fract_x
_atom_site_fract_y
_atom_site_fract_z
Cd1 Cd 0.53836(3) 0.564874(14) 0.66819(4)
Br1 Br 0.52946(6) 0.55773(2) 0.35771(6)
Br2 Br 0.77426(5) 0.55560(2) 0.89380(7)
N1 N 0.2026(4) 0.58447(16) 0.8405(5)
N2 N 0.3346(4) 0.58134(17) 0.8604(5)
N3 N 0.3405(4) 0.57386(16) 0.7108(5)
N4 N 0.4503(4) 0.74503(16) 1.1507(5)
N5 N 0.4242(4) 0.80126(17) 1.1645(5)
N6 N 0.5239(4) 0.83116(17) 1.1459(5)
C1 C 0.2108(5) 0.57227(19) 0.5917(6)
C2 C 0.1205(5) 0.57943(19) 0.6748(6)
C3 C -0.0214(5) 0.5788(2) 0.5903(7)
H1 H -0.0815 0.5822 0.6470
C4 C -0.0658(6) 0.5728(3) 0.4190(7)
H2 H -0.1593 0.5730 0.3565
C5 C 0.0261(6) 0.5662(3) 0.3340(7)
H3 H -0.0085 0.5624 0.2172
C6 C 0.1633(5) 0.5654(2) 0.4183(6)
H4 H 0.2232 0.5603 0.3618
C7 C 0.6153(5) 0.7938(2) 1.1193(6)
C8 C 0.5680(5) 0.7380(2) 1.1214(6)
C9 C 0.6389(6) 0.6899(2) 1.0971(8)
H5 H 0.6070 0.6526 1.0971
C10 C 0.7581(7) 0.7014(3) 1.0731(8)
H6 H 0.8101 0.6708 1.0594
C11 C 0.8042(7) 0.7577(3) 1.0685(9)
H7 H 0.8843 0.7633 1.0482
C12 C 0.7371(6) 0.8040(3) 1.0922(8)
H8 H 0.7698 0.8411 1.0909
C13 C 0.1651(5) 0.5954(2) 0.9874(6)
H9 H 0.2431 0.5875 1.0897
H10 H 0.0918 0.5695 0.9843
C14 C 0.1189(5) 0.6576(2) 0.9907(7)
H11 H 0.0369 0.6641 0.8920
H12 H 0.0952 0.6628 1.0894
C15 C 0.2243(5) 0.7027(2) 0.9937(7)
H13 H 0.1822 0.7404 0.9799
H14 H 0.2523 0.6962 0.8987
C16 C 0.3496(5) 0.7023(2) 1.1540(7)
H15 H 0.3909 0.6644 1.1698
H16 H 0.3225 0.7100 1.2491
Cd1B Cd 0.46164(3) 0.435126(14) 0.33181(4)
Cd1A Cd 0.46164(3) 0.064874(14) -0.16819(4)
Cd1C Cd 0.53836(3) 0.935126(14) 1.16819(4)
Br1B Br 0.47054(6) 0.44227(2) 0.64229(6)
Br2B Br 0.22574(5) 0.44440(2) 0.10620(7)
N1B N 0.7974(4) 0.41553(16) 0.1595(5)
N2B N 0.6654(4) 0.41866(17) 0.1396(5)
N3B N 0.6595(4) 0.42614(16) 0.2892(5)
N4B N 0.5497(4) 0.25497(16) -0.1507(5)
N5B N 0.5758(4) 0.19874(17) -0.1645(5)
N6B N 0.4761(4) 0.16884(17) -0.1459(5)
N6A N 0.4761(4) 0.33116(17) 0.3541(5)
N6C N 0.5239(4) 0.66884(17) 0.6459(5)
C1B C 0.7892(5) 0.42773(19) 0.4083(6)
C2B C 0.8795(5) 0.42057(19) 0.3252(6)
C3B C 1.0214(5) 0.4212(2) 0.4097(7)
H1B H 1.0815 0.4178 0.3530
C4B C 1.0658(6) 0.4272(3) 0.5810(7)
H2B H 1.1593 0.4270 0.6435
C5B C 0.9739(6) 0.4338(3) 0.6660(7)
H3B H 1.0085 0.4376 0.7828
C6B C 0.8367(5) 0.4346(2) 0.5817(6)
H4B H 0.7768 0.4397 0.6382
C7B C 0.3847(5) 0.2062(2) -0.1193(6)
C8B C 0.4320(5) 0.2620(2) -0.1214(6)
C9B C 0.3611(6) 0.3101(2) -0.0971(8)
H5B H 0.3930 0.3474 -0.0971
C10B C 0.2419(7) 0.2986(3) -0.0731(8)
H6B H 0.1899 0.3292 -0.0594
C11B C 0.1958(7) 0.2423(3) -0.0685(9)
H7B H 0.1157 0.2367 -0.0482
C12B C 0.2629(6) 0.1960(3) -0.0922(8)
H8B H 0.2302 0.1589 -0.0909
C13B C 0.8349(5) 0.4046(2) 0.0126(6)
H9B H 0.7569 0.4125 -0.0897
H10B H 0.9082 0.4305 0.0157
C14B C 0.8811(5) 0.3424(2) 0.0093(7)
H11B H 0.9631 0.3359 0.1080
H12B H 0.9048 0.3372 -0.0894
C15B C 0.7757(5) 0.2973(2) 0.0063(7)
H13B H 0.8178 0.2596 0.0201
H14B H 0.7477 0.3038 0.1013
C16B C 0.6504(5) 0.2977(2) -0.1540(7)
H15B H 0.6091 0.3356 -0.1698
H16B H 0.6775 0.2900 -0.2491
loop_
_geom_bond_atom_site_label_1
_geom_bond_atom_site_label_2
_geom_bond_site_symmetry_1
_geom_bond_site_symmetry_2
Cd1 Br1 1_555 1_555
Br1 Cd1B 1_555 1_555
Br2 Cd1 1_555 1_555
N1 N2 1_555 1_555
N2 N3 1_555 1_555
N3 Cd1 1_555 1_555
N4 N5 1_555 1_555
N5 N6 1_555 1_555
N6 C7 1_555 1_555
C1 N3 1_555 1_555
C2 N1 1_555 1_555
C3 C2 1_555 1_555
H1 C3 1_555 1_555
C4 C3 1_555 1_555
H2 C4 1_555 1_555
C5 C4 1_555 1_555
H3 C5 1_555 1_555
C6 C1 1_555 1_555
H4 C6 1_555 1_555
C7 C8 1_555 1_555
C8 N4 1_555 1_555
C9 C8 1_555 1_555
H5 C9 1_555 1_555
C10 C9 1_555 1_555
H6 C10 1_555 1_555
C11 C10 1_555 1_555
H7 C11 1_555 1_555
C12 C7 1_555 1_555
H8 C12 1_555 1_555
C13 N1 1_555 1_555
H9 C13 1_555 1_555
H10 C13 1_555 1_555
C14 C13 1_555 1_555
H11 C14 1_555 1_555
H12 C14 1_555 1_555
C15 C14 1_555 1_555
H13 C15 1_555 1_555
H14 C15 1_555 1_555
C16 N4 1_555 1_555
H15 C16 1_555 1_555
H16 C16 1_555 1_555
Cd1B Br1B 1_555 1_555
Cd1A N6B 1_555 1_555
Cd1C N6 1_555 1_555
Br1B Cd1 1_555 1_555
Br2B Cd1B 1_555 1_555
N1B N2B 1_555 1_555
N2B N3B 1_555 1_555
N3B Cd1B 1_555 1_555
N4B N5B 1_555 1_555
N5B N6B 1_555 1_555
N6B C7B 1_555 1_555
N6A Cd1B 1_555 1_555
N6C Cd1 1_555 1_555
C1B N3B 1_555 1_555
C2B N1B 1_555 1_555
C3B C2B 1_555 1_555
H1B C3B 1_555 1_555
C4B C3B 1_555 1_555
H2B C4B 1_555 1_555
C5B C4B 1_555 1_555
H3B C5B 1_555 1_555
C6B C1B 1_555 1_555
H4B C6B 1_555 1_555
C7B C8B 1_555 1_555
C8B N4B 1_555 1_555
C9B C8B 1_555 1_555
H5B C9B 1_555 1_555
C10B C9B 1_555 1_555
H6B C10B 1_555 1_555
C11B C10B 1_555 1_555
H7B C11B 1_555 1_555
C12B C7B 1_555 1_555
H8B C12B 1_555 1_555
C13B N1B 1_555 1_555
H9B C13B 1_555 1_555
H10B C13B 1_555 1_555
C14B C13B 1_555 1_555
H11B C14B 1_555 1_555
H12B C14B 1_555 1_555
C15B C14B 1_555 1_555
H13B C15B 1_555 1_555
H14B C15B 1_555 1_555
C16B N4B 1_555 1_555
H15B C16B 1_555 1_555
H16B C16B 1_555 1_555
C1 C2 1_555 1_555
C5 C6 1_555 1_555
C11 C12 1_555 1_555
C15 C16 1_555 1_555
C1B C2B 1_555 1_555
C5B C6B 1_555 1_555
C11B C12B 1_555 1_555
C15B C16B 1_555 1_555

#END
