
#######################################################################
#
#                 Cambridge Crystallographic Data Centre
#                                CCDC 
#
#######################################################################
#
# If this CIF has been generated from an entry in the Cambridge 
# Structural Database, then it will include bibliographic, chemical, 
# crystal, experimental, refinement or atomic coordinate data resulting 
# from the CCDC's data processing and validation procedures.
#
#######################################################################

data_EMOXEK
_symmetry_cell_setting           orthorhombic
_symmetry_space_group_name_H-M   'P b c n'
_symmetry_Int_Tables_number      60
_space_group_name_Hall           '-P 2n 2ab'
loop_
_symmetry_equiv_pos_site_id
_symmetry_equiv_pos_as_xyz
1 x,y,z
2 1/2-x,1/2-y,1/2+z
3 -x,y,1/2-z
4 1/2+x,1/2-y,-z
5 -x,-y,-z
6 1/2+x,1/2+y,1/2-z
7 x,-y,1/2+z
8 1/2-x,1/2+y,z
_cell_length_a                   15.764(3)
_cell_length_b                   9.1079(15)
_cell_length_c                   9.7436(15)
_cell_angle_alpha                90
_cell_angle_beta                 90
_cell_angle_gamma                90
_cell_volume                     1398.96
loop_
_atom_site_label
_atom_site_type_symbol
_atom_site_fract_x
_atom_site_fract_y
_atom_site_fract_z
C1 C 0.07822(17) -0.2984(3) -0.1174(3)
C2 C 0.16313(17) -0.3111(4) -0.0833(3)
H1 H 0.1842 -0.2645 -0.0018
C3 C 0.21804(18) -0.3915(4) -0.1656(3)
C4 C 0.18637(19) -0.4599(4) -0.2815(3)
H2 H 0.2240 -0.5135 -0.3406
C5 C 0.1016(2) -0.4507(4) -0.3129(3)
H3 H 0.0796 -0.5011 -0.3918
C6 C 0.04645(17) -0.3709(3) -0.2329(3)
C7 C 0.02306(17) -0.2021(3) -0.0312(3)
C8 C 0.30874(19) -0.4059(4) -0.1291(3)
Mn1 Mn 0.0000 -0.04838(7) 0.2500
O1 O 0.36241(12) -0.4537(3) -0.2064(2)
O2 O 0.32439(14) -0.3648(3) -0.0030(2)
O3 O 0.02990(13) -0.2089(3) 0.0965(2)
O4 O -0.02789(12) -0.1172(2) -0.0948(2)
H4 H 0.385(3) -0.381(5) 0.021(4)
C1B C -0.07822(17) -0.2984(3) -0.3826(3)
C2B C -0.16313(17) -0.3111(4) -0.4167(3)
H1B H -0.1842 -0.2645 -0.4982
C3B C -0.21804(18) -0.3915(4) -0.3344(3)
C4B C -0.18637(19) -0.4599(4) -0.2185(3)
H2B H -0.2240 -0.5135 -0.1594
C5B C -0.1016(2) -0.4507(4) -0.1871(3)
H3B H -0.0796 -0.5011 -0.1082
C6B C -0.04645(17) -0.3709(3) -0.2671(3)
C7B C -0.02306(17) -0.2021(3) -0.4688(3)
C8B C -0.30874(19) -0.4059(4) -0.3709(3)
Mn1_2 Mn 0.0000 -0.04838(7) -0.7500
Mn1D Mn 0.0000 0.04838(7) -0.2500
Mn1A Mn -0.5000 -0.45162(7) -0.2500
Mn1A_2 Mn 0.5000 -0.45162(7) -0.2500
O1B O -0.36241(12) -0.4537(3) -0.2936(2)
O1A O 0.13759(12) -0.0463(3) 0.2936(2)
O1C O -0.13759(12) -0.0463(3) 0.2064(2)
O2B O -0.32439(14) -0.3648(3) -0.4970(2)
O3B O -0.02990(13) -0.2089(3) -0.5965(2)
O3B_2 O -0.02990(13) -0.2089(3) 0.4035(2)
O4B O 0.02789(12) -0.1172(2) -0.4052(2)
O4D O 0.02789(12) 0.1172(2) 0.0948(2)
O4F O -0.02789(12) 0.1172(2) 0.4052(2)
H4B H -0.385(3) -0.381(5) -0.521(4)
loop_
_geom_bond_atom_site_label_1
_geom_bond_atom_site_label_2
_geom_bond_site_symmetry_1
_geom_bond_site_symmetry_2
C1 C2 1_555 1_555
C2 H1 1_555 1_555
C3 C2 1_555 1_555
C4 C3 1_555 1_555
H2 C4 1_555 1_555
C5 C4 1_555 1_555
H3 C5 1_555 1_555
C6 C1 1_555 1_555
C7 C1 1_555 1_555
C8 C3 1_555 1_555
Mn1 O3 1_555 1_555
O1 C8 1_555 1_555
O2 C8 1_555 1_555
O3 C7 1_555 1_555
O4 C7 1_555 1_555
H4 O2 1_555 1_555
C1B C2B 1_555 1_555
C2B H1B 1_555 1_555
C3B C2B 1_555 1_555
C4B C3B 1_555 1_555
H2B C4B 1_555 1_555
C5B C4B 1_555 1_555
H3B C5B 1_555 1_555
C6B C6 1_555 1_555
C7B C1B 1_555 1_555
C8B C3B 1_555 1_555
Mn1_2 O3B 1_555 1_555
Mn1D O4 1_555 1_555
Mn1A O1B 1_555 1_555
Mn1A_2 O1 1_555 1_555
O1B C8B 1_555 1_555
O1A Mn1 1_555 1_555
O1C Mn1 1_555 1_555
O2B C8B 1_555 1_555
O3B C7B 1_555 1_555
O3B_2 Mn1 1_555 1_555
O4B C7B 1_555 1_555
O4D Mn1 1_555 1_555
O4F Mn1 1_555 1_555
H4B O2B 1_555 1_555
C5 C6 1_555 1_555
C1B C6B 1_555 1_555
C5B C6B 1_555 1_555
Mn1D O4B 1_555 1_555

#END
