
#######################################################################
#
#                 Cambridge Crystallographic Data Centre
#                                CCDC 
#
#######################################################################
#
# If this CIF has been generated from an entry in the Cambridge 
# Structural Database, then it will include bibliographic, chemical, 
# crystal, experimental, refinement or atomic coordinate data resulting 
# from the CCDC's data processing and validation procedures.
#
#######################################################################

data_EMOXIO
_symmetry_cell_setting           monoclinic
_symmetry_space_group_name_H-M   'P 2/n'
_symmetry_Int_Tables_number      13
_space_group_name_Hall           '-P 2yac'
loop_
_symmetry_equiv_pos_site_id
_symmetry_equiv_pos_as_xyz
1 x,y,z
2 1/2-x,y,1/2-z
3 -x,-y,-z
4 1/2+x,-y,1/2+z
_cell_length_a                   10.642(2)
_cell_length_b                   10.768(2)
_cell_length_c                   14.943(3)
_cell_angle_alpha                90
_cell_angle_beta                 91.763(2)
_cell_angle_gamma                90
_cell_volume                     1711.55
loop_
_atom_site_label
_atom_site_type_symbol
_atom_site_fract_x
_atom_site_fract_y
_atom_site_fract_z
C1 C 0.6177(4) 0.8446(4) 0.6728(3)
H1 H 0.6885 0.7974 0.6877
C2 C 0.5854(4) 0.9402(4) 0.7296(3)
H2 H 0.6336 0.9555 0.7814
C3 C 0.4840(4) 1.0108(4) 0.7097(3)
H3 H 0.4629 1.0766 0.7466
C4 C 0.4498(3) 0.8855(3) 0.5789(2)
C5 C 0.4108(4) 0.9843(3) 0.6327(3)
C6 C 0.2989(4) 1.0503(4) 0.6092(3)
H4 H 0.2755 1.1182 0.6433
C7 C 0.2263(4) 1.0156(4) 0.5381(3)
H5 H 0.1534 1.0601 0.5239
C8 C 0.2588(3) 0.9124(4) 0.4842(2)
C9 C 0.3729(3) 0.8498(3) 0.5014(2)
C10 C 0.3349(3) 0.7120(4) 0.3868(3)
H6 H 0.3605 0.6453 0.3522
C11 C 0.2182(4) 0.7654(4) 0.3679(3)
H7 H 0.1659 0.7327 0.3227
C12 C 0.1808(4) 0.8648(4) 0.4153(3)
H8 H 0.1033 0.9015 0.4022
C13 C 0.8291(3) 0.6263(3) 0.5843(2)
C14 C 1.0610(3) 0.6681(3) 0.5960(2)
H9 H 1.0555 0.7047 0.5397
C15 C 0.9552(3) 0.6183(3) 0.6329(2)
C16 C 0.9659(3) 0.5616(3) 0.7160(2)
H10 H 0.8950 0.5279 0.7414
C17 C 1.0810(3) 0.5544(3) 0.7616(2)
C18 C 1.1880(3) 0.6075(3) 0.7250(2)
C19 C 1.1750(3) 0.6642(3) 0.6422(2)
H11 H 1.2449 0.7005 0.6171
C20 C 1.0923(3) 0.4811(4) 0.8467(2)
Cd1 Cd 0.59716(2) 0.64933(2) 0.505925(16)
N1 N 0.4113(3) 0.7527(3) 0.45243(19)
N2 N 0.5530(3) 0.8170(3) 0.5985(2)
O2 O 0.7369(2) 0.5720(2) 0.61713(16)
O3 O 0.8183(2) 0.6889(2) 0.51390(16)
O4 O 1.0557(2) 0.5266(2) 0.91899(14)
O5 O 1.1350(2) 0.3737(2) 0.84285(16)
C1A C 1.8823(4) 0.8446(4) 0.8272(3)
H1A H 1.8115 0.7974 0.8123
C2A C 1.9146(4) 0.9402(4) 0.7704(3)
H2A H 1.8664 0.9555 0.7186
C3A C 2.0160(4) 1.0108(4) 0.7903(3)
H3A H 2.0371 1.0766 0.7534
C4A C 2.0502(3) 0.8855(3) 0.9211(2)
C5A C 2.0892(4) 0.9843(3) 0.8673(3)
C6A C 2.2011(4) 1.0503(4) 0.8908(3)
H4A H 2.2245 1.1182 0.8567
C7A C 2.2737(4) 1.0156(4) 0.9619(3)
H5A H 2.3466 1.0601 0.9761
C8A C 2.2412(3) 0.9124(4) 1.0158(2)
C9A C 2.1271(3) 0.8498(3) 0.9986(2)
C10A C 2.1651(3) 0.7120(4) 1.1132(3)
H6A H 2.1395 0.6453 1.1478
C11A C 2.2818(4) 0.7654(4) 1.1321(3)
H7A H 2.3341 0.7327 1.1773
C12A C 2.3192(4) 0.8648(4) 1.0847(3)
H8A H 2.3967 0.9015 1.0978
C13A C 1.6709(3) 0.6263(3) 0.9157(2)
C14A C 1.4390(3) 0.6681(3) 0.9040(2)
H9A H 1.4445 0.7047 0.9603
C15A C 1.5448(3) 0.6183(3) 0.8671(2)
C16A C 1.5341(3) 0.5616(3) 0.7840(2)
H10A H 1.6050 0.5279 0.7586
C17A C 1.4190(3) 0.5544(3) 0.7384(2)
C18A C 1.3120(3) 0.6075(3) 0.7750(2)
C19A C 1.3250(3) 0.6642(3) 0.8578(2)
H11A H 1.2551 0.7005 0.8829
C20A C 1.4077(3) 0.4811(4) 0.6533(2)
Cd1A Cd 1.90284(2) 0.64933(2) 0.994075(16)
Cd1A_2 Cd 0.90284(2) 0.64933(2) 0.994075(16)
Cd1C Cd 1.09716(2) 0.35067(2) 1.005925(16)
Cd1_2 Cd 1.59716(2) 0.64933(2) 0.505925(16)
Cd1B Cd 1.40284(2) 0.35067(2) 0.494075(16)
N1A N 2.0887(3) 0.7527(3) 1.04757(19)
N2A N 1.9470(3) 0.8170(3) 0.9015(2)
O2A O 1.7631(2) 0.5720(2) 0.88287(16)
O3A O 1.6817(2) 0.6889(2) 0.98610(16)
O4A O 1.4443(2) 0.5266(2) 0.58101(14)
O4A_2 O 0.4443(2) 0.5266(2) 0.58101(14)
O4C O 0.5557(2) 0.4734(2) 0.41899(14)
O4_2 O 2.0557(2) 0.5266(2) 0.91899(14)
O4B O 1.9443(2) 0.4734(2) 1.08101(14)
O5A O 1.3650(2) 0.3737(2) 0.65715(16)
O5C O 0.6350(2) 0.6263(2) 0.34285(16)
O5B O 1.8650(2) 0.6263(2) 1.15715(16)
O1 O 0.9145(2) 0.7404(2) 0.33347(18)
H12 H 0.8736 0.7549 0.3803
H13 H 0.9094 0.6636 0.3207
loop_
_geom_bond_atom_site_label_1
_geom_bond_atom_site_label_2
_geom_bond_site_symmetry_1
_geom_bond_site_symmetry_2
C1 H1 1_555 1_555
C2 C1 1_555 1_555
H2 C2 1_555 1_555
C3 C2 1_555 1_555
H3 C3 1_555 1_555
C4 C5 1_555 1_555
C5 C3 1_555 1_555
C6 C5 1_555 1_555
H4 C6 1_555 1_555
C7 C6 1_555 1_555
H5 C7 1_555 1_555
C8 C7 1_555 1_555
C9 C4 1_555 1_555
C10 H6 1_555 1_555
C11 C10 1_555 1_555
H7 C11 1_555 1_555
C12 C8 1_555 1_555
H8 C12 1_555 1_555
C13 C15 1_555 1_555
C14 H9 1_555 1_555
C15 C14 1_555 1_555
C16 C15 1_555 1_555
H10 C16 1_555 1_555
C17 C16 1_555 1_555
C18 C17 1_555 1_555
C19 C14 1_555 1_555
H11 C19 1_555 1_555
C20 C17 1_555 1_555
Cd1 N1 1_555 1_555
N1 C9 1_555 1_555
N2 C1 1_555 1_555
O1 H12 1_555 1_555
H13 O1 1_555 1_555
O2 C13 1_555 1_555
O3 C13 1_555 1_555
O4 C20 1_555 1_555
O5 C20 1_555 1_555
C1A H1A 1_555 1_555
C2A C1A 1_555 1_555
H2A C2A 1_555 1_555
C3A C2A 1_555 1_555
H3A C3A 1_555 1_555
C4A C5A 1_555 1_555
C5A C3A 1_555 1_555
C6A C5A 1_555 1_555
H4A C6A 1_555 1_555
C7A C6A 1_555 1_555
H5A C7A 1_555 1_555
C8A C7A 1_555 1_555
C9A C4A 1_555 1_555
C10A H6A 1_555 1_555
C11A C10A 1_555 1_555
H7A C11A 1_555 1_555
C12A C8A 1_555 1_555
H8A C12A 1_555 1_555
C13A C15A 1_555 1_555
C14A H9A 1_555 1_555
C15A C14A 1_555 1_555
C16A C15A 1_555 1_555
H10A C16A 1_555 1_555
C17A C16A 1_555 1_555
C18A C18 1_555 1_555
C19A C14A 1_555 1_555
H11A C19A 1_555 1_555
C20A C17A 1_555 1_555
Cd1A N1A 1_555 1_555
Cd1A_2 O4 1_555 1_555
Cd1C O4 1_555 1_555
Cd1_2 O4A 1_555 1_555
Cd1B O4A 1_555 1_555
N1A C9A 1_555 1_555
N2A C1A 1_555 1_555
O2A C13A 1_555 1_555
O3A C13A 1_555 1_555
O4A C20A 1_555 1_555
O4A_2 Cd1 1_555 1_555
O4C Cd1 1_555 1_555
O4_2 Cd1A 1_555 1_555
O4B Cd1A 1_555 1_555
O5A C20A 1_555 1_555
O5C Cd1 1_555 1_555
O5B Cd1A 1_555 1_555
C4 N2 1_555 1_555
C8 C9 1_555 1_555
C10 N1 1_555 1_555
C11 C12 1_555 1_555
C18 C19 1_555 1_555
Cd1 N2 1_555 1_555
Cd1 O2 1_555 1_555
Cd1 O3 1_555 1_555
O5 Cd1C 1_555 1_555
C4A N2A 1_555 1_555
C8A C9A 1_555 1_555
C10A N1A 1_555 1_555
C11A C12A 1_555 1_555
C17A C18A 1_555 1_555
C18A C19A 1_555 1_555
Cd1A N2A 1_555 1_555
Cd1A O2A 1_555 1_555
Cd1A O3A 1_555 1_555
Cd1B O5A 1_555 1_555

#END
