
#######################################################################
#
#                 Cambridge Crystallographic Data Centre
#                                CCDC 
#
#######################################################################
#
# If this CIF has been generated from an entry in the Cambridge 
# Structural Database, then it will include bibliographic, chemical, 
# crystal, experimental, refinement or atomic coordinate data resulting 
# from the CCDC's data processing and validation procedures.
#
#######################################################################

data_EMUFAT
_symmetry_cell_setting           triclinic
_symmetry_space_group_name_H-M   'P -1'
_symmetry_Int_Tables_number      2
_space_group_name_Hall           '-P 1'
loop_
_symmetry_equiv_pos_site_id
_symmetry_equiv_pos_as_xyz
1 x,y,z
2 -x,-y,-z
_cell_length_a                   10.577(2)
_cell_length_b                   12.689(2)
_cell_length_c                   15.896(3)
_cell_angle_alpha                93.860(10)
_cell_angle_beta                 109.260(10)
_cell_angle_gamma                111.580(10)
_cell_volume                     1829.1
loop_
_atom_site_label
_atom_site_type_symbol
_atom_site_fract_x
_atom_site_fract_y
_atom_site_fract_z
Mn1 Mn 0.97276(4) 0.85512(3) 0.70045(3)
N1 N 0.8370(2) 0.65371(19) 0.65664(15)
N2 N 0.8262(2) 0.81052(19) 0.55049(14)
C1 C 0.8370(4) 0.5768(3) 0.7090(2)
H1 H 0.8916 0.6040 0.7714
C2 C 0.7594(4) 0.4570(3) 0.6756(3)
H2 H 0.7612 0.4062 0.7151
C3 C 0.6812(3) 0.4158(3) 0.5843(3)
H3 H 0.6315 0.3363 0.5606
C4 C 0.6760(3) 0.4941(2) 0.5260(2)
C5 C 0.5924(3) 0.4578(3) 0.4295(2)
H4 H 0.5416 0.3790 0.4030
C6 C 0.5864(3) 0.5358(3) 0.3767(2)
H5 H 0.5309 0.5102 0.3144
C7 C 0.6643(3) 0.6578(3) 0.41525(18)
C8 C 0.6608(3) 0.7432(3) 0.3637(2)
H6 H 0.6046 0.7216 0.3014
C9 C 0.7396(4) 0.8572(3) 0.4050(2)
H7 H 0.7388 0.9141 0.3711
C10 C 0.8215(3) 0.8879(3) 0.49822(19)
H8 H 0.8756 0.9663 0.5256
C11 C 0.7495(3) 0.6967(2) 0.50964(17)
C12 C 0.7546(3) 0.6128(2) 0.56611(18)
N3 N 0.8353(2) 0.8416(2) 0.79049(16)
N4 N 1.1117(2) 0.8524(2) 0.84520(15)
C13 C 0.7001(3) 0.8361(3) 0.7642(2)
H9 H 0.6512 0.8341 0.7032
C14 C 0.6267(4) 0.8332(4) 0.8238(3)
H10 H 0.5315 0.8288 0.8024
C15 C 0.6968(4) 0.8367(4) 0.9128(3)
H11 H 0.6493 0.8341 0.9531
C16 C 0.8406(4) 0.8443(3) 0.9445(2)
C17 C 0.9252(5) 0.8545(4) 1.0382(2)
H12 H 0.8834 0.8559 1.0811
C18 C 1.0629(5) 0.8619(3) 1.0658(2)
H13 H 1.1149 0.8685 1.1273
C19 C 1.1306(4) 0.8597(3) 1.0019(2)
C20 C 1.2738(4) 0.8661(3) 1.0269(2)
H14 H 1.3285 0.8703 1.0873
C21 C 1.3322(4) 0.8662(3) 0.9626(2)
H15 H 1.4269 0.8701 0.9785
C22 C 1.2487(3) 0.8605(3) 0.8728(2)
H16 H 1.2908 0.8624 0.8297
C23 C 1.0527(3) 0.8524(2) 0.90905(18)
C24 C 0.9053(3) 0.8455(2) 0.88002(18)
O1 O 1.1577(2) 0.87177(17) 0.66847(14)
O2 O 1.3551(3) 0.8776(2) 0.6482(2)
C25 C 1.2246(3) 0.8249(2) 0.63820(18)
C26 C 1.1487(3) 0.6972(2) 0.59515(19)
H17 H 1.1868 0.6811 0.5504
H18 H 1.0441 0.6754 0.5639
C27 C 1.1732(3) 0.6258(2) 0.6677(2)
H19 H 1.2776 0.6447 0.6959
H20 H 1.1422 0.6472 0.7148
C28 C 1.0904(3) 0.4959(2) 0.6297(2)
H21 H 1.1238 0.4744 0.5840
H22 H 0.9864 0.4776 0.5996
C29 C 1.1096(3) 0.4237(2) 0.7015(2)
H23 H 1.2133 0.4406 0.7303
H24 H 1.0790 0.4471 0.7481
C30 C 1.0239(3) 0.2940(2) 0.6648(2)
H25 H 1.0553 0.2696 0.6190
H26 H 0.9200 0.2764 0.6356
C31 C 1.0458(4) 0.2265(3) 0.7396(2)
H27 H 1.1501 0.2461 0.7693
H28 H 1.0137 0.2513 0.7849
C32 C 0.9647(3) 0.0960(2) 0.70743(18)
O3 O 1.0427(2) 0.03771(17) 0.72624(14)
O4 O 0.8294(2) 0.05070(19) 0.66556(17)
O1_2 O 1.1577(2) 1.87177(17) 0.66847(14)
O2_2 O 1.3551(3) 1.8776(2) 0.6482(2)
C25_2 C 1.2246(3) 1.8249(2) 0.63820(18)
C26_2 C 1.1487(3) 1.6972(2) 0.59515(19)
H17_2 H 1.1868 1.6811 0.5504
H18_2 H 1.0441 1.6754 0.5639
C27_2 C 1.1732(3) 1.6258(2) 0.6677(2)
H19_2 H 1.2776 1.6447 0.6959
H20_2 H 1.1422 1.6472 0.7148
C28_2 C 1.0904(3) 1.4959(2) 0.6297(2)
H21_2 H 1.1238 1.4744 0.5840
H22_2 H 0.9864 1.4776 0.5996
C29_2 C 1.1096(3) 1.4237(2) 0.7015(2)
H23_2 H 1.2133 1.4406 0.7303
H24_2 H 1.0790 1.4471 0.7481
C30_2 C 1.0239(3) 1.2940(2) 0.6648(2)
H25_2 H 1.0553 1.2696 0.6190
H26_2 H 0.9200 1.2764 0.6356
C31_2 C 1.0458(4) 1.2265(3) 0.7396(2)
H27_2 H 1.1501 1.2461 0.7693
H28_2 H 1.0137 1.2513 0.7849
C32_2 C 0.9647(3) 1.0960(2) 0.70743(18)
O3_2 O 1.0427(2) 1.03771(17) 0.72624(14)
O4_2 O 0.8294(2) 1.05070(19) 0.66556(17)
Mn1_2 Mn 0.97276(4) 1.85512(3) 0.70045(3)
N1_2 N 0.8370(2) 1.65371(19) 0.65664(15)
N2_2 N 0.8262(2) 1.81052(19) 0.55049(14)
C1_2 C 0.8370(4) 1.5768(3) 0.7090(2)
H1_2 H 0.8916 1.6040 0.7714
C2_2 C 0.7594(4) 1.4570(3) 0.6756(3)
H2_2 H 0.7612 1.4062 0.7151
C3_2 C 0.6812(3) 1.4158(3) 0.5843(3)
H3_2 H 0.6315 1.3363 0.5606
C4_2 C 0.6760(3) 1.4941(2) 0.5260(2)
C5_2 C 0.5924(3) 1.4578(3) 0.4295(2)
H4_2 H 0.5416 1.3790 0.4030
C6_2 C 0.5864(3) 1.5358(3) 0.3767(2)
H5_2 H 0.5309 1.5102 0.3144
C7_2 C 0.6643(3) 1.6578(3) 0.41525(18)
C8_2 C 0.6608(3) 1.7432(3) 0.3637(2)
H6_2 H 0.6046 1.7216 0.3014
C9_2 C 0.7396(4) 1.8572(3) 0.4050(2)
H7_2 H 0.7388 1.9141 0.3711
C10_2 C 0.8215(3) 1.8879(3) 0.49822(19)
H8_2 H 0.8756 1.9663 0.5256
C11_2 C 0.7495(3) 1.6967(2) 0.50964(17)
C12_2 C 0.7546(3) 1.6128(2) 0.56611(18)
N3_2 N 0.8353(2) 1.8416(2) 0.79049(16)
N4_2 N 1.1117(2) 1.8524(2) 0.84520(15)
C13_2 C 0.7001(3) 1.8361(3) 0.7642(2)
H9_2 H 0.6512 1.8341 0.7032
C14_2 C 0.6267(4) 1.8332(4) 0.8238(3)
H10_2 H 0.5315 1.8288 0.8024
C15_2 C 0.6968(4) 1.8367(4) 0.9128(3)
H11_2 H 0.6493 1.8341 0.9531
C16_2 C 0.8406(4) 1.8443(3) 0.9445(2)
C17_2 C 0.9252(5) 1.8545(4) 1.0382(2)
H12_2 H 0.8834 1.8559 1.0811
C18_2 C 1.0629(5) 1.8619(3) 1.0658(2)
H13_2 H 1.1149 1.8685 1.1273
C19_2 C 1.1306(4) 1.8597(3) 1.0019(2)
C20_2 C 1.2738(4) 1.8661(3) 1.0269(2)
H14_2 H 1.3285 1.8703 1.0873
C21_2 C 1.3322(4) 1.8662(3) 0.9626(2)
H15_2 H 1.4269 1.8701 0.9785
C22_2 C 1.2487(3) 1.8605(3) 0.8728(2)
H16_2 H 1.2908 1.8624 0.8297
C23_2 C 1.0527(3) 1.8524(2) 0.90905(18)
C24_2 C 0.9053(3) 1.8455(2) 0.88002(18)
Mn1_3 Mn 0.97276(4) -0.14488(3) 0.70045(3)
O3_3 O 1.0427(2) 2.03771(17) 0.72624(14)
O5 O 0.5614(7) 0.4177(5) 0.8490(3)
O6 O 0.5193(4) 0.3356(3) 0.9560(2)
C33 C 0.5905(5) 0.4204(5) 0.9274(3)
C34 C 0.7087(6) 0.5223(5) 0.9997(4)
H29 H 0.7142 0.5923 0.9771
H30 H 0.6816 0.5257 1.0521
C35 C 0.8516(7) 0.5211(8) 1.0290(6)
H31 H 0.9179 0.5988 1.0647
H32 H 0.8504 0.4711 1.0725
C36 C 0.9239(6) 0.4944(6) 0.9830(5)
H33 H 0.9169 0.5379 0.9350
H34 H 0.8642 0.4135 0.9527
H35 H 0.446(9) 0.264(8) 0.898(6)
C36A C 1.0761(6) 0.5056(6) 1.0170(5)
C35A C 1.1484(7) 0.4789(8) 0.9710(6)
C34A C 1.2913(6) 0.4777(5) 1.0003(4)
C33A C 1.4095(5) 0.5796(5) 1.0726(3)
O5A O 1.4386(7) 0.5823(5) 1.1510(3)
O6A O 1.4807(4) 0.6644(3) 1.0440(2)
H35A H 1.554(9) 0.736(8) 1.102(6)
H29A H 1.2858 0.4077 1.0229
H30A H 1.3184 0.4743 0.9479
H31A H 1.0821 0.4012 0.9353
H32A H 1.1496 0.5289 0.9275
H33A H 1.0831 0.4621 1.0650
H34A H 1.1358 0.5865 1.0473
O7 O 0.6488(4) 0.1692(3) 0.6478(3)
H36 H 0.694(5) 0.128(4) 0.654(3)
H37 H 0.607(9) 0.142(7) 0.589(6)
O8 O 0.5182(4) 0.8666(3) 0.5440(2)
H38 H 0.464(7) 0.870(5) 0.577(4)
H39 H 0.594(6) 0.925(5) 0.561(4)
O9 O 0.3426(4) 0.1381(3) 0.8446(2)
H40 H 0.385(4) 0.119(3) 0.813(3)
H41 H 0.259(5) 0.112(4) 0.810(3)
O10 O 0.5092(3) 0.0861(3) 0.76453(17)
H42 H 0.456(4) 0.025(3) 0.732(3)
H43 H 0.557(5) 0.127(4) 0.738(3)
loop_
_geom_bond_atom_site_label_1
_geom_bond_atom_site_label_2
_geom_bond_site_symmetry_1
_geom_bond_site_symmetry_2
Mn1 N1 1_555 1_555
N1 C1 1_555 1_555
N2 Mn1 1_555 1_555
C1 H1 1_555 1_555
C2 C1 1_555 1_555
H2 C2 1_555 1_555
C3 C2 1_555 1_555
H3 C3 1_555 1_555
C4 C3 1_555 1_555
C5 C4 1_555 1_555
H4 C5 1_555 1_555
C6 C5 1_555 1_555
H5 C6 1_555 1_555
C7 C6 1_555 1_555
C8 C7 1_555 1_555
H6 C8 1_555 1_555
C9 C8 1_555 1_555
H7 C9 1_555 1_555
C10 N2 1_555 1_555
H8 C10 1_555 1_555
C11 N2 1_555 1_555
C12 N1 1_555 1_555
N3 Mn1 1_555 1_555
N4 Mn1 1_555 1_555
C13 N3 1_555 1_555
H9 C13 1_555 1_555
C14 C13 1_555 1_555
H10 C14 1_555 1_555
C15 C14 1_555 1_555
H11 C15 1_555 1_555
C16 C15 1_555 1_555
C17 C16 1_555 1_555
H12 C17 1_555 1_555
C18 C17 1_555 1_555
H13 C18 1_555 1_555
C19 C18 1_555 1_555
C20 C19 1_555 1_555
H14 C20 1_555 1_555
C21 C20 1_555 1_555
H15 C21 1_555 1_555
C22 N4 1_555 1_555
H16 C22 1_555 1_555
C23 N4 1_555 1_555
C24 N3 1_555 1_555
O1 Mn1 1_555 1_555
O2 C25 1_555 1_555
C25 O1 1_555 1_555
C26 C25 1_555 1_555
H17 C26 1_555 1_555
H18 C26 1_555 1_555
C27 C26 1_555 1_555
H19 C27 1_555 1_555
H20 C27 1_555 1_555
C28 C27 1_555 1_555
H21 C28 1_555 1_555
H22 C28 1_555 1_555
C29 C28 1_555 1_555
H23 C29 1_555 1_555
H24 C29 1_555 1_555
C30 C29 1_555 1_555
H25 C30 1_555 1_555
H26 C30 1_555 1_555
C31 C30 1_555 1_555
H27 C31 1_555 1_555
H28 C31 1_555 1_555
C32 C31 1_555 1_555
O3 C32 1_555 1_555
O4 C32 1_555 1_555
O5 C33 1_555 1_555
O6 C33 1_555 1_555
C33 C34 1_555 1_555
C34 H29 1_555 1_555
H30 C34 1_555 1_555
C35 C34 1_555 1_555
H31 C35 1_555 1_555
H32 C35 1_555 1_555
C36 C35 1_555 1_555
H33 C36 1_555 1_555
H34 C36 1_555 1_555
O7 H36 1_555 1_555
O8 H38 1_555 1_555
O9 H40 1_555 1_555
O10 H42 1_555 1_555
H35 O6 1_555 1_555
H37 O7 1_555 1_555
H39 O8 1_555 1_555
H41 O9 1_555 1_555
H43 O10 1_555 1_555
C36A C36 1_555 1_555
C35A C36A 1_555 1_555
C34A C35A 1_555 1_555
C33A C34A 1_555 1_555
O5A C33A 1_555 1_555
O6A C33A 1_555 1_555
H35A O6A 1_555 1_555
H29A C34A 1_555 1_555
H30A C34A 1_555 1_555
H31A C35A 1_555 1_555
H32A C35A 1_555 1_555
H33A C36A 1_555 1_555
H34A C36A 1_555 1_555
O1_2 C25_2 1_555 1_555
O2_2 C25_2 1_555 1_555
C25_2 C26_2 1_555 1_555
C26_2 H17_2 1_555 1_555
H18_2 C26_2 1_555 1_555
C27_2 C26_2 1_555 1_555
H19_2 C27_2 1_555 1_555
H20_2 C27_2 1_555 1_555
C28_2 C27_2 1_555 1_555
H21_2 C28_2 1_555 1_555
H22_2 C28_2 1_555 1_555
C29_2 C28_2 1_555 1_555
H23_2 C29_2 1_555 1_555
H24_2 C29_2 1_555 1_555
C30_2 C29_2 1_555 1_555
H25_2 C30_2 1_555 1_555
H26_2 C30_2 1_555 1_555
C31_2 C30_2 1_555 1_555
H27_2 C31_2 1_555 1_555
H28_2 C31_2 1_555 1_555
C32_2 C31_2 1_555 1_555
O3_2 Mn1 1_555 1_555
O4_2 C32_2 1_555 1_555
Mn1_2 O1_2 1_555 1_555
N1_2 Mn1_2 1_555 1_555
N2_2 Mn1_2 1_555 1_555
C1_2 N1_2 1_555 1_555
H1_2 C1_2 1_555 1_555
C2_2 C1_2 1_555 1_555
H2_2 C2_2 1_555 1_555
C3_2 C2_2 1_555 1_555
H3_2 C3_2 1_555 1_555
C4_2 C3_2 1_555 1_555
C5_2 C4_2 1_555 1_555
H4_2 C5_2 1_555 1_555
C6_2 C5_2 1_555 1_555
H5_2 C6_2 1_555 1_555
C7_2 C6_2 1_555 1_555
C8_2 C7_2 1_555 1_555
H6_2 C8_2 1_555 1_555
C9_2 C8_2 1_555 1_555
H7_2 C9_2 1_555 1_555
C10_2 N2_2 1_555 1_555
H8_2 C10_2 1_555 1_555
C11_2 N2_2 1_555 1_555
C12_2 N1_2 1_555 1_555
N3_2 Mn1_2 1_555 1_555
N4_2 Mn1_2 1_555 1_555
C13_2 N3_2 1_555 1_555
H9_2 C13_2 1_555 1_555
C14_2 C13_2 1_555 1_555
H10_2 C14_2 1_555 1_555
C15_2 C14_2 1_555 1_555
H11_2 C15_2 1_555 1_555
C16_2 C15_2 1_555 1_555
C17_2 C16_2 1_555 1_555
H12_2 C17_2 1_555 1_555
C18_2 C17_2 1_555 1_555
H13_2 C18_2 1_555 1_555
C19_2 C18_2 1_555 1_555
C20_2 C19_2 1_555 1_555
H14_2 C20_2 1_555 1_555
C21_2 C20_2 1_555 1_555
H15_2 C21_2 1_555 1_555
C22_2 N4_2 1_555 1_555
H16_2 C22_2 1_555 1_555
C23_2 N4_2 1_555 1_555
C24_2 N3_2 1_555 1_555
Mn1_3 O3 1_555 1_555
O3_3 Mn1_2 1_555 1_555
C4 C12 1_555 1_555
C7 C11 1_555 1_555
C9 C10 1_555 1_555
C11 C12 1_555 1_555
C16 C24 1_555 1_555
C19 C23 1_555 1_555
C21 C22 1_555 1_555
C23 C24 1_555 1_555
C32_2 O3_2 1_555 1_555
C4_2 C12_2 1_555 1_555
C7_2 C11_2 1_555 1_555
C9_2 C10_2 1_555 1_555
C11_2 C12_2 1_555 1_555
C16_2 C24_2 1_555 1_555
C19_2 C23_2 1_555 1_555
C21_2 C22_2 1_555 1_555
C23_2 C24_2 1_555 1_555

#END
