
#######################################################################
#
#                 Cambridge Crystallographic Data Centre
#                                CCDC 
#
#######################################################################
#
# If this CIF has been generated from an entry in the Cambridge 
# Structural Database, then it will include bibliographic, chemical, 
# crystal, experimental, refinement or atomic coordinate data resulting 
# from the CCDC's data processing and validation procedures.
#
#######################################################################

data_EMUGUO
_symmetry_cell_setting           monoclinic
_symmetry_space_group_name_H-M   'P 21/c'
_symmetry_Int_Tables_number      14
_space_group_name_Hall           '-P 2ybc'
loop_
_symmetry_equiv_pos_site_id
_symmetry_equiv_pos_as_xyz
1 x,y,z
2 x,1/2-y,1/2+z
3 -x,-y,-z
4 -x,1/2+y,1/2-z
_cell_length_a                   11.2478(7)
_cell_length_b                   19.5134(13)
_cell_length_c                   21.0626(14)
_cell_angle_alpha                90
_cell_angle_beta                 93.6080(10)
_cell_angle_gamma                90
_cell_volume                     4613.72
loop_
_atom_site_label
_atom_site_type_symbol
_atom_site_fract_x
_atom_site_fract_y
_atom_site_fract_z
Mo1 Mo 0.35262(5) 0.23985(3) 0.03060(3)
Mo2 Mo 0.34725(5) 0.07775(3) 0.09367(3)
Mo3 Mo 0.11701(5) 0.26306(4) 0.25187(3)
Mo4 Mo 0.18941(5) 0.34516(3) 0.11834(3)
Mo5 Mo 0.23957(5) 0.10595(4) 0.25438(3)
Cu1 Cu 0.10279(7) 0.26845(4) -0.07077(4)
Cu2 Cu 0.56146(7) 0.17946(5) 0.30721(4)
P1 P 0.40695(15) 0.23872(10) 0.19082(8)
P2 P 0.11043(15) 0.17540(10) 0.11059(8)
O1 O 0.1554(4) 0.1087(2) 0.0863(2)
O2 O 0.1668(4) 0.2362(2) 0.0786(2)
O3 O 0.1371(4) 0.1776(3) 0.1835(2)
O4 O 0.2958(4) 0.2833(2) 0.1995(2)
O5 O 0.4247(4) 0.1852(3) 0.2430(2)
O6 O 0.3984(4) 0.2011(2) 0.1261(2)
O7 O 0.2623(4) 0.2563(2) -0.0397(2)
O8 O 0.3452(4) 0.1428(2) 0.0248(2)
O9 O 0.2986(4) 0.0043(2) 0.0581(2)
O10 O 0.3098(4) 0.0720(2) 0.1810(2)
O11 O 0.1146(5) 0.0576(3) 0.2578(3)
O12 O 0.2041(4) 0.1895(3) 0.2960(2)
O13 O -0.0240(5) 0.2431(3) 0.2693(2)
O14 O 0.0778(4) 0.3148(3) 0.1751(2)
O15 O 0.0953(4) 0.3711(3) 0.0561(2)
O16 O 0.3321(4) 0.3233(2) 0.0745(2)
O17 O 0.4913(4) 0.2554(2) 0.0075(2)
O18 O 0.4964(4) 0.0644(2) 0.1037(2)
O19 O 0.3337(5) 0.0704(3) 0.3126(2)
O20 O 0.1577(5) 0.3266(3) 0.3048(2)
O21 O 0.2393(5) 0.4202(3) 0.1513(2)
O22 O 0.5015(6) 0.1235(4) 0.3913(3)
N1 N -0.4606(5) 0.2316(3) -0.1519(2)
N2 N -0.2736(5) 0.3030(3) -0.1574(2)
N3 N -0.3567(5) 0.4033(3) -0.2239(3)
N4 N 0.1095(5) 0.3695(3) -0.0828(2)
N5 N -0.0602(5) 0.2843(3) -0.1038(2)
N6 N 0.0428(5) 0.1724(3) -0.0703(3)
C1 C -0.5672(6) 0.2017(4) -0.1460(3)
H1 H -0.6361 0.2225 -0.1661
C2 C -0.5805(6) 0.1422(4) -0.1119(3)
H2 H -0.6568 0.1218 -0.1096
C3 C -0.4809(6) 0.1124(4) -0.0810(3)
H3 H -0.4881 0.0716 -0.0570
C4 C -0.3701(6) 0.1434(4) -0.0858(3)
H4 H -0.3013 0.1248 -0.0636
C5 C -0.3610(6) 0.2018(4) -0.1233(3)
C6 C -0.2519(6) 0.2423(4) -0.1300(3)
C7 C -0.1959(6) 0.3544(3) -0.1619(3)
C8 C -0.2384(6) 0.4084(4) -0.2066(3)
C9 C -0.1678(6) 0.4574(3) -0.2318(3)
H5 H -0.0843 0.4579 -0.2214
C10 C -0.2200(6) 0.5066(4) -0.2728(3)
H6 H -0.1731 0.5415 -0.2902
C11 C -0.3410(6) 0.5035(4) -0.2878(3)
H7 H -0.3792 0.5373 -0.3143
C12 C -0.4058(6) 0.4505(4) -0.2636(3)
H8 H -0.4885 0.4474 -0.2756
C13 C 0.1078(6) 0.1165(4) -0.0559(3)
H9 H 0.1850 0.1219 -0.0356
C14 C 0.0668(6) 0.0516(4) -0.0694(3)
H10 H 0.1135 0.0129 -0.0564
C15 C -0.0431(6) 0.0425(4) -0.1022(3)
H11 H -0.0715 -0.0019 -0.1136
C16 C -0.1101(6) 0.1006(4) -0.1176(3)
H12 H -0.1847 0.0962 -0.1411
C17 C -0.0697(6) 0.1635(3) -0.0996(3)
C18 C -0.1321(6) 0.2289(4) -0.1106(3)
C19 C -0.0875(5) 0.3476(3) -0.1242(3)
C20 C 0.0045(6) 0.3982(4) -0.1035(3)
C21 C -0.0122(6) 0.4681(4) -0.1017(3)
H13 H -0.0877 0.4876 -0.1137
C22 C 0.0851(6) 0.5102(4) -0.0818(3)
H14 H 0.0767 0.5587 -0.0807
C23 C 0.1931(6) 0.4798(4) -0.0639(3)
H15 H 0.2609 0.5070 -0.0519
C24 C 0.2007(6) 0.4096(4) -0.0637(3)
H16 H 0.2738 0.3887 -0.0493
C25 C -0.0459(6) 0.1788(4) 0.0950(3)
C26 C -0.1038(6) 0.2316(4) 0.0598(3)
H17 H -0.0598 0.2702 0.0468
C27 C -0.2261(7) 0.2273(4) 0.0442(4)
H18 H -0.2649 0.2627 0.0198
C28 C -0.2908(6) 0.1720(4) 0.0637(4)
H19 H -0.3740 0.1695 0.0530
C29 C -0.2344(6) 0.1200(4) 0.0992(4)
H20 H -0.2787 0.0818 0.1125
C30 C -0.1139(6) 0.1242(4) 0.1148(3)
H21 H -0.0762 0.0889 0.1398
C31 C 0.5334(6) 0.2965(4) 0.1956(3)
C32 C 0.6469(7) 0.2697(4) 0.1887(3)
H22 H 0.6573 0.2226 0.1793
C33 C 0.7465(7) 0.3142(5) 0.1962(4)
H23 H 0.8244 0.2968 0.1919
C34 C 0.7305(8) 0.3820(5) 0.2096(4)
H24 H 0.7972 0.4119 0.2141
C35 C 0.6177(8) 0.4070(5) 0.2165(5)
H25 H 0.6073 0.4539 0.2268
C36 C 0.5185(7) 0.3645(4) 0.2087(4)
H26 H 0.4409 0.3826 0.2125
N1A N 0.5394(5) 0.2684(3) 0.3481(2)
N2A N 0.7264(5) 0.1970(3) 0.3426(2)
N3A N 0.6433(5) 0.0967(3) 0.2761(3)
Cu2A Cu -0.43854(7) 0.32054(5) -0.19279(4)
O23 O 0.6333(10) 1.0095(6) 0.4212(4)
O24 O 0.5233(12) 0.4109(5) 0.0360(6)
loop_
_geom_bond_atom_site_label_1
_geom_bond_atom_site_label_2
_geom_bond_site_symmetry_1
_geom_bond_site_symmetry_2
Mo1 O2 1_555 1_555
Mo2 O1 1_555 1_555
Mo3 O3 1_555 1_555
Mo4 O2 1_555 1_555
Mo5 O3 1_555 1_555
Cu1 O7 1_555 1_555
Cu2 O5 1_555 1_555
P1 O4 1_555 1_555
P2 O1 1_555 1_555
O2 P2 1_555 1_555
O3 P2 1_555 1_555
O4 Mo3 1_555 1_555
O5 P1 1_555 1_555
O6 Mo1 1_555 1_555
O7 Mo1 1_555 1_555
O8 Mo1 1_555 1_555
O9 Mo2 1_555 1_555
O10 Mo2 1_555 1_555
O11 Mo5 1_555 1_555
O12 Mo3 1_555 1_555
O13 Mo3 1_555 1_555
O14 Mo3 1_555 1_555
O15 Mo4 1_555 1_555
O16 Mo1 1_555 1_555
O17 Mo1 1_555 1_555
O18 Mo2 1_555 1_555
O19 Mo5 1_555 1_555
O20 Mo3 1_555 1_555
O21 Mo4 1_555 1_555
O22 Cu2 1_555 1_555
N1 C1 1_555 1_555
N2 C6 1_555 1_555
N3 C8 1_555 1_555
N4 Cu1 1_555 1_555
N5 Cu1 1_555 1_555
N6 Cu1 1_555 1_555
C1 H1 1_555 1_555
C2 C1 1_555 1_555
H2 C2 1_555 1_555
C3 C2 1_555 1_555
H3 C3 1_555 1_555
C4 C3 1_555 1_555
H4 C4 1_555 1_555
C5 N1 1_555 1_555
C6 C5 1_555 1_555
C7 N2 1_555 1_555
C8 C7 1_555 1_555
C9 C8 1_555 1_555
H5 C9 1_555 1_555
C10 C9 1_555 1_555
H6 C10 1_555 1_555
C11 C10 1_555 1_555
H7 C11 1_555 1_555
C12 N3 1_555 1_555
H8 C12 1_555 1_555
C13 N6 1_555 1_555
H9 C13 1_555 1_555
C14 C13 1_555 1_555
H10 C14 1_555 1_555
C15 C14 1_555 1_555
H11 C15 1_555 1_555
C16 C15 1_555 1_555
H12 C16 1_555 1_555
C17 N6 1_555 1_555
C18 N5 1_555 1_555
C19 N5 1_555 1_555
C20 N4 1_555 1_555
C21 C20 1_555 1_555
H13 C21 1_555 1_555
C22 C21 1_555 1_555
H14 C22 1_555 1_555
C23 C22 1_555 1_555
H15 C23 1_555 1_555
C24 N4 1_555 1_555
H16 C24 1_555 1_555
C25 P2 1_555 1_555
C26 C25 1_555 1_555
H17 C26 1_555 1_555
C27 C26 1_555 1_555
H18 C27 1_555 1_555
C28 C27 1_555 1_555
H19 C28 1_555 1_555
C29 C28 1_555 1_555
H20 C29 1_555 1_555
C30 C25 1_555 1_555
H21 C30 1_555 1_555
C31 P1 1_555 1_555
C32 C31 1_555 1_555
H22 C32 1_555 1_555
C33 C32 1_555 1_555
H23 C33 1_555 1_555
C34 C33 1_555 1_555
H24 C34 1_555 1_555
C35 C34 1_555 1_555
H25 C35 1_555 1_555
C36 C31 1_555 1_555
H26 C36 1_555 1_555
N1A Cu2 1_555 1_555
N2A Cu2 1_555 1_555
N3A Cu2 1_555 1_555
Cu2A N1 1_555 1_555
Mo2 O8 1_555 1_555
Mo4 O4 1_555 1_555
Mo4 O16 1_555 1_555
Mo4 O14 1_555 1_555
Mo5 O10 1_555 1_555
Mo5 O12 1_555 1_555
P1 O6 1_555 1_555
N2 Cu2A 1_555 1_555
N3 Cu2A 1_555 1_555
C4 C5 1_555 1_555
C6 C18 1_555 1_555
C7 C19 1_555 1_555
C11 C12 1_555 1_555
C16 C17 1_555 1_555
C17 C18 1_555 1_555
C19 C20 1_555 1_555
C23 C24 1_555 1_555
C29 C30 1_555 1_555
C35 C36 1_555 1_555

#END
