
#######################################################################
#
#                 Cambridge Crystallographic Data Centre
#                                CCDC 
#
#######################################################################
#
# If this CIF has been generated from an entry in the Cambridge 
# Structural Database, then it will include bibliographic, chemical, 
# crystal, experimental, refinement or atomic coordinate data resulting 
# from the CCDC's data processing and validation procedures.
#
#######################################################################

data_EMUHEA
_symmetry_cell_setting           monoclinic
_symmetry_space_group_name_H-M   'P 21/c'
_symmetry_Int_Tables_number      14
_space_group_name_Hall           '-P 2ybc'
loop_
_symmetry_equiv_pos_site_id
_symmetry_equiv_pos_as_xyz
1 x,y,z
2 -x,1/2+y,1/2-z
3 -x,-y,-z
4 x,1/2-y,1/2+z
_cell_length_a                   9.7373(16)
_cell_length_b                   13.465(2)
_cell_length_c                   21.676(4)
_cell_angle_alpha                90
_cell_angle_beta                 98.445(3)
_cell_angle_gamma                90
_cell_volume                     2811.18
loop_
_atom_site_label
_atom_site_type_symbol
_atom_site_fract_x
_atom_site_fract_y
_atom_site_fract_z
K1 K 0.43452(7) 0.43369(4) 0.42682(3)
K2 K 0.82156(6) 0.36339(5) 0.51421(3)
O1 O 0.45267(19) 0.62957(13) 0.45814(8)
C1 C 0.4273(3) 0.71121(19) 0.42485(12)
C2 C 0.3964(3) 0.70775(19) 0.35842(12)
C3 C 0.3666(3) 0.7941(2) 0.32432(13)
H1 H 0.3476 0.7902 0.2801
C4 C 0.3637(3) 0.8858(2) 0.35288(14)
H2 H 0.3426 0.9442 0.3287
C5 C 0.3922(3) 0.8909(2) 0.41752(13)
H3 H 0.3898 0.9536 0.4375
C6 C 0.4241(3) 0.80641(19) 0.45357(12)
C7 C 0.3983(3) 0.6097(2) 0.32597(11)
C8 C 0.2756(3) 0.5622(2) 0.30113(13)
H4 H 0.1891 0.5927 0.3044
C9 C 0.2779(3) 0.4707(2) 0.27156(15)
H5 H 0.1931 0.4395 0.2548
C10 C 0.4030(3) 0.4249(2) 0.26644(13)
H6 H 0.4044 0.3621 0.2466
C11 C 0.5262(3) 0.4715(2) 0.29058(12)
H7 H 0.6124 0.4407 0.2870
C12 C 0.5241(3) 0.5629(2) 0.31990(12)
H8 H 0.6092 0.5942 0.3361
C13 C 0.4637(3) 0.81631(19) 0.52247(12)
C14 C 0.5972(3) 0.7909(2) 0.55054(13)
H9 H 0.6613 0.7651 0.5256
C15 C 0.6382(3) 0.8024(2) 0.61398(13)
H10 H 0.7293 0.7839 0.6322
C16 C 0.5462(3) 0.8410(2) 0.65099(14)
H11 H 0.5737 0.8489 0.6946
C17 C 0.4149(3) 0.8678(3) 0.62383(15)
H12 H 0.3518 0.8951 0.6488
C18 C 0.3737(3) 0.8550(2) 0.56024(15)
H13 H 0.2822 0.8732 0.5423
O2 O 1.06150(19) 0.42770(14) 0.57357(8)
C19 C 1.0753(3) 0.4312(2) 0.63455(12)
C20 C 1.0690(3) 0.5217(2) 0.66844(12)
C21 C 1.0876(3) 0.5190(2) 0.73416(12)
H14 H 1.0839 0.5794 0.7566
C22 C 1.1112(3) 0.4314(2) 0.76684(13)
H15 H 1.1247 0.4318 0.8111
C23 C 1.1151(3) 0.3425(2) 0.73467(13)
H16 H 1.1298 0.2820 0.7572
C24 C 1.0979(3) 0.3412(2) 0.66977(12)
C25 C 1.1017(3) 0.24481(19) 0.63568(12)
C26 C 1.2252(3) 0.2079(2) 0.61989(14)
H17 H 1.3084 0.2448 0.6306
C27 C 1.2291(3) 0.1185(2) 0.58896(14)
H18 H 1.3146 0.0942 0.5789
C28 C 1.1084(3) 0.0643(2) 0.57268(14)
H19 H 1.1108 0.0033 0.5508
C29 C 0.9844(3) 0.0991(2) 0.58836(14)
H20 H 0.9017 0.0615 0.5778
C30 C 0.9808(3) 0.1888(2) 0.61953(14)
H21 H 0.8953 0.2125 0.6300
C31 C 1.0425(3) 0.6188(2) 0.63664(12)
C32 C 1.0961(3) 0.7075(2) 0.66445(13)
H22 H 1.1531 0.7050 0.7039
C33 C 1.0679(3) 0.7985(2) 0.63574(14)
H23 H 1.1038 0.8574 0.6562
C34 C 0.9884(3) 0.8048(2) 0.57784(14)
H24 H 0.9704 0.8674 0.5581
C35 C 0.9348(3) 0.7183(2) 0.54879(13)
H25 H 0.8802 0.7216 0.5087
C36 C 0.9604(3) 0.6272(2) 0.57787(12)
H26 H 0.9216 0.5689 0.5576
O3 O 0.7038(2) 0.53392(16) 0.46856(10)
H27 H 0.642(4) 0.576(3) 0.4594(18)
H28 H 0.775(4) 0.552(3) 0.4556(16)
K1B K 0.56548(7) 0.56631(4) 0.57318(3)
K2B K 0.17844(6) 0.63661(5) 0.48579(3)
O1B O 0.54733(19) 0.37043(13) 0.54186(8)
O3B O 0.2962(2) 0.46608(16) 0.53144(10)
H27B H 0.358(4) 0.424(3) 0.5406(18)
H28B H 0.225(4) 0.448(3) 0.5444(16)
loop_
_geom_bond_atom_site_label_1
_geom_bond_atom_site_label_2
_geom_bond_site_symmetry_1
_geom_bond_site_symmetry_2
K1 O1 1_555 1_555
K2 O2 1_555 1_555
O1 C1 1_555 1_555
C1 C2 1_555 1_555
C2 C3 1_555 1_555
C3 H1 1_555 1_555
C4 C3 1_555 1_555
H2 C4 1_555 1_555
C5 C4 1_555 1_555
H3 C5 1_555 1_555
C6 C1 1_555 1_555
C7 C2 1_555 1_555
C8 C7 1_555 1_555
H4 C8 1_555 1_555
C9 C8 1_555 1_555
H5 C9 1_555 1_555
C10 C9 1_555 1_555
H6 C10 1_555 1_555
C11 C10 1_555 1_555
H7 C11 1_555 1_555
C12 C7 1_555 1_555
H8 C12 1_555 1_555
C13 C6 1_555 1_555
C14 C13 1_555 1_555
H9 C14 1_555 1_555
C15 C14 1_555 1_555
H10 C15 1_555 1_555
C16 C15 1_555 1_555
H11 C16 1_555 1_555
C17 C16 1_555 1_555
H12 C17 1_555 1_555
C18 C13 1_555 1_555
H13 C18 1_555 1_555
O2 C19 1_555 1_555
C19 C20 1_555 1_555
C20 C21 1_555 1_555
C21 H14 1_555 1_555
C22 C21 1_555 1_555
H15 C22 1_555 1_555
C23 C22 1_555 1_555
H16 C23 1_555 1_555
C24 C19 1_555 1_555
C25 C24 1_555 1_555
C26 C25 1_555 1_555
H17 C26 1_555 1_555
C27 C26 1_555 1_555
H18 C27 1_555 1_555
C28 C27 1_555 1_555
H19 C28 1_555 1_555
C29 C28 1_555 1_555
H20 C29 1_555 1_555
C30 C25 1_555 1_555
H21 C30 1_555 1_555
C31 C20 1_555 1_555
C32 C31 1_555 1_555
H22 C32 1_555 1_555
C33 C32 1_555 1_555
H23 C33 1_555 1_555
C34 C33 1_555 1_555
H24 C34 1_555 1_555
C35 C34 1_555 1_555
H25 C35 1_555 1_555
C36 C31 1_555 1_555
H26 C36 1_555 1_555
O3 K1 1_555 1_555
H27 O3 1_555 1_555
H28 O3 1_555 1_555
K1B O1 1_555 1_555
K2B O1 1_555 1_555
O1B K1 1_555 1_555
O3B K1 1_555 1_555
H27B O3B 1_555 1_555
H28B O3B 1_555 1_555
K2 O3 1_555 1_555
K2 O1B 1_555 1_555
C5 C6 1_555 1_555
C11 C12 1_555 1_555
C17 C18 1_555 1_555
C23 C24 1_555 1_555
C29 C30 1_555 1_555
C35 C36 1_555 1_555
O3 K1B 1_555 1_555
K1B O1B 1_555 1_555
K1B O3B 1_555 1_555
K2B O3B 1_555 1_555

#END
