
#######################################################################
#
#                 Cambridge Crystallographic Data Centre
#                                CCDC 
#
#######################################################################
#
# If this CIF has been generated from an entry in the Cambridge 
# Structural Database, then it will include bibliographic, chemical, 
# crystal, experimental, refinement or atomic coordinate data resulting 
# from the CCDC's data processing and validation procedures.
#
#######################################################################

data_EMUHAW
_symmetry_cell_setting           monoclinic
_symmetry_space_group_name_H-M   'P 21/c'
_symmetry_Int_Tables_number      14
_space_group_name_Hall           '-P 2ybc'
loop_
_symmetry_equiv_pos_site_id
_symmetry_equiv_pos_as_xyz
1 x,y,z
2 -x,1/2+y,1/2-z
3 -x,-y,-z
4 x,1/2-y,1/2+z
_cell_length_a                   5.5909(7)
_cell_length_b                   20.699(2)
_cell_length_c                   11.6642(14)
_cell_angle_alpha                90
_cell_angle_beta                 96.761(2)
_cell_angle_gamma                90
_cell_volume                     1340.46
loop_
_atom_site_label
_atom_site_type_symbol
_atom_site_fract_x
_atom_site_fract_y
_atom_site_fract_z
K1 K 0.23130(9) 0.53500(3) 0.92547(5)
O1 O -0.2821(3) 0.53246(7) 0.88873(14)
C1 C -0.3321(4) 0.55823(11) 0.78608(19)
C2 C -0.2207(4) 0.61714(11) 0.75523(19)
C3 C -0.2747(4) 0.64340(11) 0.6453(2)
H1 H -0.1948 0.6818 0.6263
C4 C -0.4415(5) 0.61541(12) 0.5625(2)
H2 H -0.4777 0.6344 0.4884
C5 C -0.5533(4) 0.55923(11) 0.5912(2)
H3 H -0.6692 0.5399 0.5355
C6 C -0.5026(4) 0.52976(10) 0.6986(2)
C7 C -0.0437(4) 0.65237(10) 0.8370(2)
C8 C 0.1667(4) 0.67710(11) 0.7993(2)
H4 H 0.1999 0.6685 0.7228
C9 C 0.3276(4) 0.71389(12) 0.8718(2)
H5 H 0.4696 0.7302 0.8447
C10 C 0.2816(5) 0.72691(12) 0.9839(2)
H6 H 0.3890 0.7532 1.0329
C11 C 0.0779(5) 0.70133(11) 1.0237(2)
H7 H 0.0487 0.7092 1.1011
C12 C -0.0844(4) 0.66429(11) 0.9518(2)
H8 H -0.2232 0.6470 0.9803
C13 C -0.6211(4) 0.46620(11) 0.71440(19)
C14 C -0.8574(4) 0.45527(12) 0.6628(2)
H9 H -0.9495 0.4905 0.6291
C15 C -0.9589(4) 0.39424(13) 0.6600(2)
H10 H -1.1176 0.3877 0.6229
C16 C -0.8293(5) 0.34247(12) 0.7113(2)
H11 H -0.8963 0.3002 0.7073
C17 C -0.6017(5) 0.35310(12) 0.7681(2)
H12 H -0.5151 0.3182 0.8062
C18 C -0.4980(4) 0.41415(11) 0.7702(2)
H13 H -0.3415 0.4206 0.8100
K1_2 K -0.76870(9) 0.53500(3) 0.92547(5)
K1B K -0.23130(9) 0.46500(3) 1.07453(5)
O1_2 O 0.7179(3) 0.53246(7) 0.88873(14)
O1B O 0.2821(3) 0.46754(7) 1.11127(14)
loop_
_geom_bond_atom_site_label_1
_geom_bond_atom_site_label_2
_geom_bond_site_symmetry_1
_geom_bond_site_symmetry_2
K1 O1 1_555 1_555
O1 C1 1_555 1_555
C1 C2 1_555 1_555
C2 C3 1_555 1_555
C3 H1 1_555 1_555
C4 C3 1_555 1_555
H2 C4 1_555 1_555
C5 C4 1_555 1_555
H3 C5 1_555 1_555
C6 C1 1_555 1_555
C7 C2 1_555 1_555
C8 C7 1_555 1_555
H4 C8 1_555 1_555
C9 C8 1_555 1_555
H5 C9 1_555 1_555
C10 C9 1_555 1_555
H6 C10 1_555 1_555
C11 C10 1_555 1_555
H7 C11 1_555 1_555
C12 C7 1_555 1_555
H8 C12 1_555 1_555
C13 C6 1_555 1_555
C14 C13 1_555 1_555
H9 C14 1_555 1_555
C15 C14 1_555 1_555
H10 C15 1_555 1_555
C16 C15 1_555 1_555
H11 C16 1_555 1_555
C17 C16 1_555 1_555
H12 C17 1_555 1_555
C18 C13 1_555 1_555
H13 C18 1_555 1_555
K1_2 O1 1_555 1_555
K1B O1 1_555 1_555
O1_2 K1 1_555 1_555
O1B K1 1_555 1_555
C5 C6 1_555 1_555
C11 C12 1_555 1_555
C17 C18 1_555 1_555
K1B O1B 1_555 1_555

#END
