
#######################################################################
#
#                 Cambridge Crystallographic Data Centre
#                                CCDC 
#
#######################################################################
#
# If this CIF has been generated from an entry in the Cambridge 
# Structural Database, then it will include bibliographic, chemical, 
# crystal, experimental, refinement or atomic coordinate data resulting 
# from the CCDC's data processing and validation procedures.
#
#######################################################################

data_EMUHUP
_symmetry_cell_setting           monoclinic
_symmetry_space_group_name_H-M   'C 2/c'
_symmetry_Int_Tables_number      15
_space_group_name_Hall           '-C 2yn'
loop_
_symmetry_equiv_pos_site_id
_symmetry_equiv_pos_as_xyz
1 x,y,z
2 1/2+x,1/2+y,z
3 x,-y,1/2+z
4 1/2+x,1/2-y,1/2+z
5 -x,-y,-z
6 1/2-x,1/2-y,-z
7 -x,y,1/2-z
8 1/2-x,1/2+y,1/2-z
_cell_length_a                   12.5773(10)
_cell_length_b                   18.3360(14)
_cell_length_c                   36.476(3)
_cell_angle_alpha                90
_cell_angle_beta                 91.929(2)
_cell_angle_gamma                90
_cell_volume                     8407.23
loop_
_atom_site_label
_atom_site_type_symbol
_atom_site_fract_x
_atom_site_fract_y
_atom_site_fract_z
Mo1 Mo 0.87302(3) 0.42201(2) 0.094715(12)
Mo2 Mo 0.62703(4) 0.36108(3) 0.112783(13)
Mo3 Mo 0.91101(4) 0.14697(2) 0.160064(13)
Mo4 Mo 1.04915(4) 0.26415(3) 0.109289(13)
Mo5 Mo 0.65074(4) 0.19766(2) 0.155763(13)
Cu1 Cu 0.89495(5) 0.60709(4) 0.117041(18)
Cu2 Cu 0.84751(6) -0.04375(4) 0.14158(2)
P1 P 0.80329(11) 0.23343(7) 0.08107(4)
P2 P 0.85013(11) 0.32526(7) 0.17016(4)
O1 O 0.9287(3) 0.50604(19) 0.10854(10)
O2 O 0.8820(3) 0.0565(2) 0.14728(11)
O3 O 0.8872(3) 0.3970(2) 0.15464(10)
O4 O 0.9199(3) 0.2632(2) 0.15465(10)
O5 O 0.7309(3) 0.31129(19) 0.16183(9)
O6 O 0.7831(3) 0.18465(19) 0.11456(10)
O7 O 0.9185(3) 0.2291(2) 0.07054(10)
O8 O 0.7746(3) 0.31473(19) 0.08875(10)
O9 O 0.7303(3) 0.4385(2) 0.10988(10)
O10 O 0.5909(3) 0.2592(2) 0.11807(10)
O11 O 0.7781(3) 0.1693(2) 0.18263(10)
O12 O 1.0222(3) 0.1655(2) 0.12651(11)
O13 O 0.9892(3) 0.3585(2) 0.09465(11)
O14 O 0.5583(3) 0.3730(2) 0.07206(11)
O15 O 0.5482(3) 0.4006(2) 0.14459(11)
O16 O 0.5735(3) 0.2196(2) 0.19182(11)
O17 O 0.5982(3) 0.1156(2) 0.14080(11)
O18 O 0.9839(3) 0.1383(2) 0.19957(11)
O19 O 1.1368(3) 0.2479(2) 0.07563(12)
O20 O 1.1294(3) 0.2966(2) 0.14411(11)
O21 O 0.8533(3) 0.4360(2) 0.04892(10)
O22 O 0.7114(3) 0.5857(2) 0.10570(14)
O23 O 0.6645(4) -0.0311(2) 0.14454(15)
N1 N 0.9199(4) 0.6430(2) 0.06701(12)
N2 N 0.8636(3) 0.7107(2) 0.12368(12)
N3 N 0.8754(4) 0.6073(3) 0.17094(13)
N4 N 0.8566(4) 0.9248(2) 0.19374(13)
N5 N 0.8400(3) 0.8507(2) 0.13469(13)
N6 N 0.8407(4) 0.9543(3) 0.08685(14)
C1 C 0.9556(4) 0.6025(3) 0.03960(16)
H1 H 0.9641 0.5515 0.0434
C2 C 0.9808(5) 0.6311(3) 0.00596(16)
H2 H 1.0033 0.6005 -0.0133
C3 C 0.9725(5) 0.7053(3) 0.00114(16)
H3 H 0.9907 0.7268 -0.0215
C4 C 0.9370(4) 0.7487(3) 0.02955(15)
H4 H 0.9333 0.8002 0.0268
C5 C 0.9075(4) 0.7161(3) 0.06162(15)
C6 C 0.8681(4) 0.7541(3) 0.09416(15)
C7 C 0.8467(4) 0.7334(3) 0.15813(15)
C8 C 0.8480(4) 0.8084(3) 0.16471(15)
C9 C 0.8348(4) 0.6706(3) 0.18378(15)
C10 C 0.7822(5) 0.6729(3) 0.21621(17)
H5 H 0.7428 0.7149 0.2227
C11 C 0.7876(6) 0.6127(3) 0.23931(18)
H6 H 0.7554 0.6138 0.2625
C12 C 0.8404(6) 0.5515(3) 0.22806(17)
H7 H 0.8498 0.5112 0.2442
C13 C 0.8797(5) 0.5486(3) 0.19324(16)
H8 H 0.9103 0.5045 0.1848
C14 C 0.8312(6) 1.0124(4) 0.06470(19)
H9 H 0.8452 1.0595 0.0746
C15 C 0.8021(7) 1.0063(4) 0.0282(2)
H10 H 0.8018 1.0477 0.0126
C16 C 0.7732(6) 0.9384(3) 0.01489(19)
H11 H 0.7484 0.9332 -0.0098
C17 C 0.7806(5) 0.8776(3) 0.03760(17)
H12 H 0.7592 0.8308 0.0290
C18 C 0.8199(4) 0.8875(3) 0.07299(16)
C19 C 0.8411(4) 0.8278(3) 0.09976(15)
C20 C 0.8597(4) 0.8513(3) 0.19917(15)
C21 C 0.8796(4) 0.8237(3) 0.23438(15)
H13 H 0.8909 0.7729 0.2379
C22 C 0.8827(4) 0.8703(3) 0.26416(16)
H14 H 0.8897 0.8513 0.2884
C23 C 0.8757(5) 0.9448(3) 0.25851(16)
H15 H 0.8782 0.9779 0.2786
C24 C 0.8649(4) 0.9696(3) 0.22282(16)
H16 H 0.8632 1.0208 0.2186
C25 C 0.7164(4) 0.1990(3) 0.04500(14)
H17 H 0.7066 0.1460 0.0490
H18 H 0.6460 0.2224 0.0472
C26 C 0.7525(5) 0.2102(3) 0.00581(14)
H19 H 0.8265 0.1924 0.0040
H20 H 0.7068 0.1809 -0.0112
C27 C 0.8736(4) 0.3245(3) 0.21852(14)
H21 H 0.8363 0.3664 0.2294
H22 H 0.8434 0.2793 0.2287
C28 C 0.9916(4) 0.3286(3) 0.22933(14)
H23 H 1.0291 0.2864 0.2188
H24 H 1.0223 0.3737 0.2191
C26E C 0.7475(5) 0.2898(3) -0.00581(14)
C25E C 0.7836(4) 0.3010(3) -0.04500(14)
P1E P 0.69671(11) 0.26657(7) -0.08107(4)
O6E O 0.7169(3) 0.31535(19) -0.11456(10)
O7E O 0.5815(3) 0.2709(2) -0.07054(10)
O8E O 0.7254(3) 0.18527(19) -0.08875(10)
H17E H 0.7934 0.3540 -0.0490
H18E H 0.8540 0.2776 -0.0472
H19E H 0.6735 0.3076 -0.0040
H20E H 0.7932 0.3191 0.0112
C28F C 1.0084(4) 0.3286(3) 0.27067(14)
C27F C 1.1264(4) 0.3245(3) 0.28148(14)
P2F P 1.14987(11) 0.32526(7) 0.32984(4)
O3F O 1.1128(3) 0.3970(2) 0.34536(10)
O4F O 1.0801(3) 0.2632(2) 0.34535(10)
O5F O 1.2691(3) 0.31129(19) 0.33817(9)
H21F H 1.1637 0.3664 0.2706
H22F H 1.1566 0.2793 0.2713
H23F H 0.9709 0.2864 0.2812
H24F H 0.9777 0.3737 0.2809
Mo1F Mo 1.12698(3) 0.42201(2) 0.405285(12)
Mo2F Mo 1.37297(4) 0.36108(3) 0.387217(13)
Mo3F Mo 1.08899(4) 0.14697(2) 0.339936(13)
Mo4F Mo 0.95085(4) 0.26415(3) 0.390711(13)
Mo5F Mo 1.34926(4) 0.19766(2) 0.344237(13)
O1F O 1.0713(3) 0.50604(19) 0.39146(10)
O9F O 1.2697(3) 0.4385(2) 0.39012(10)
O13F O 1.0108(3) 0.3585(2) 0.40535(11)
O21F O 1.1467(3) 0.4360(2) 0.45108(10)
O10F O 1.4091(3) 0.2592(2) 0.38193(10)
O14F O 1.4417(3) 0.3730(2) 0.42794(11)
O15F O 1.4518(3) 0.4006(2) 0.35541(11)
O2F O 1.1180(3) 0.0565(2) 0.35272(11)
O11F O 1.2219(3) 0.1693(2) 0.31737(10)
O12F O 0.9778(3) 0.1655(2) 0.37349(11)
O18F O 1.0161(3) 0.1383(2) 0.30043(11)
O19F O 0.8632(3) 0.2479(2) 0.42437(12)
O20F O 0.8706(3) 0.2966(2) 0.35589(11)
O16F O 1.4265(3) 0.2196(2) 0.30818(11)
O17F O 1.4018(3) 0.1156(2) 0.35920(11)
Cu1F Cu 1.10505(5) 0.60709(4) 0.382959(18)
Cu2F Cu 1.15249(6) -0.04375(4) 0.35842(2)
N1_2 N 0.9199(4) -0.3570(2) 0.06701(12)
N2_2 N 0.8636(3) -0.2893(2) 0.12368(12)
N3_2 N 0.8754(4) -0.3927(3) 0.17094(13)
N4_2 N 0.8566(4) -0.0752(2) 0.19374(13)
N5_2 N 0.8400(3) -0.1493(2) 0.13469(13)
N6_2 N 0.8407(4) -0.0457(3) 0.08685(14)
C1_2 C 0.9556(4) -0.3975(3) 0.03960(16)
H1_2 H 0.9641 -0.4485 0.0434
C2_2 C 0.9808(5) -0.3689(3) 0.00596(16)
H2_2 H 1.0033 -0.3995 -0.0133
C3_2 C 0.9725(5) -0.2947(3) 0.00114(16)
H3_2 H 0.9907 -0.2732 -0.0215
C4_2 C 0.9370(4) -0.2513(3) 0.02955(15)
H4_2 H 0.9333 -0.1998 0.0268
C5_2 C 0.9075(4) -0.2839(3) 0.06162(15)
C6_2 C 0.8681(4) -0.2459(3) 0.09416(15)
C7_2 C 0.8467(4) -0.2666(3) 0.15813(15)
C8_2 C 0.8480(4) -0.1916(3) 0.16471(15)
C9_2 C 0.8348(4) -0.3294(3) 0.18378(15)
C10_2 C 0.7822(5) -0.3271(3) 0.21621(17)
H5_2 H 0.7428 -0.2851 0.2227
C11_2 C 0.7876(6) -0.3873(3) 0.23931(18)
H6_2 H 0.7554 -0.3862 0.2625
C12_2 C 0.8404(6) -0.4485(3) 0.22806(17)
H7_2 H 0.8498 -0.4888 0.2442
C13_2 C 0.8797(5) -0.4514(3) 0.19324(16)
H8_2 H 0.9103 -0.4955 0.1848
C14_2 C 0.8312(6) 0.0124(4) 0.06470(19)
H9_2 H 0.8452 0.0595 0.0746
C15_2 C 0.8021(7) 0.0063(4) 0.0282(2)
H10_2 H 0.8018 0.0477 0.0126
C16_2 C 0.7732(6) -0.0616(3) 0.01489(19)
H11_2 H 0.7484 -0.0668 -0.0098
C17_2 C 0.7806(5) -0.1224(3) 0.03760(17)
H12_2 H 0.7592 -0.1692 0.0290
C18_2 C 0.8199(4) -0.1125(3) 0.07299(16)
C19_2 C 0.8411(4) -0.1722(3) 0.09976(15)
C20_2 C 0.8597(4) -0.1487(3) 0.19917(15)
C21_2 C 0.8796(4) -0.1763(3) 0.23438(15)
H13_2 H 0.8909 -0.2271 0.2379
C22_2 C 0.8827(4) -0.1297(3) 0.26416(16)
H14_2 H 0.8897 -0.1487 0.2884
C23_2 C 0.8757(5) -0.0552(3) 0.25851(16)
H15_2 H 0.8782 -0.0221 0.2786
C24_2 C 0.8649(4) -0.0304(3) 0.22282(16)
H16_2 H 0.8632 0.0208 0.2186
O22F O 1.2886(3) 0.5857(2) 0.39430(14)
O23F O 1.3355(4) -0.0311(2) 0.35546(15)
Cu2_2 Cu 0.84751(6) 0.95625(4) 0.14158(2)
Mo3E Mo 0.58899(4) 0.35303(2) -0.160064(13)
Mo5E Mo 0.84926(4) 0.30234(2) -0.155763(13)
Mo4E Mo 0.45085(4) 0.23585(3) -0.109289(13)
Mo1E Mo 0.62698(3) 0.07799(2) -0.094715(12)
Mo2E Mo 0.87297(4) 0.13892(3) -0.112783(13)
O8F O 1.2254(3) 0.31473(19) 0.41125(10)
O6F O 1.2169(3) 0.18465(19) 0.38544(10)
O7F O 1.0815(3) 0.2291(2) 0.42946(10)
N1F N 1.0801(4) 0.6430(2) 0.43299(12)
N2F N 1.1364(3) 0.7107(2) 0.37632(12)
N3F N 1.1246(4) 0.6073(3) 0.32906(13)
N4F N 1.1434(4) -0.0752(2) 0.30626(13)
N5F N 1.1600(3) -0.1493(2) 0.36531(13)
N6F N 1.1593(4) -0.0457(3) 0.41315(14)
Cu1_2 Cu 0.89495(5) -0.39291(4) 0.117041(18)
O24 O 0.0494(14) 0.1141(8) 0.0374(5)
loop_
_geom_bond_atom_site_label_1
_geom_bond_atom_site_label_2
_geom_bond_site_symmetry_1
_geom_bond_site_symmetry_2
Mo1 O1 1_555 1_555
Mo2 O5 1_555 1_555
Mo3 O2 1_555 1_555
Mo4 O4 1_555 1_555
Mo5 O5 1_555 1_555
Cu1 O1 1_555 1_555
Cu2 O2 1_555 1_555
P1 O6 1_555 1_555
P2 O3 1_555 1_555
O3 Mo1 1_555 1_555
O4 Mo3 1_555 1_555
O5 P2 1_555 1_555
O6 Mo3 1_555 1_555
O7 Mo4 1_555 1_555
O8 Mo1 1_555 1_555
O9 Mo1 1_555 1_555
O10 Mo2 1_555 1_555
O11 Mo3 1_555 1_555
O12 Mo3 1_555 1_555
O13 Mo1 1_555 1_555
O14 Mo2 1_555 1_555
O15 Mo2 1_555 1_555
O16 Mo5 1_555 1_555
O17 Mo5 1_555 1_555
O18 Mo3 1_555 1_555
O19 Mo4 1_555 1_555
O20 Mo4 1_555 1_555
O21 Mo1 1_555 1_555
O22 Cu1 1_555 1_555
O23 Cu2 1_555 1_555
N1 Cu1 1_555 1_555
N2 Cu1 1_555 1_555
N3 Cu1 1_555 1_555
N4 C20 1_555 1_555
N5 C8 1_555 1_555
N6 C14 1_555 1_555
C1 N1 1_555 1_555
H1 C1 1_555 1_555
C2 C1 1_555 1_555
H2 C2 1_555 1_555
C3 C2 1_555 1_555
H3 C3 1_555 1_555
C4 C3 1_555 1_555
H4 C4 1_555 1_555
C5 N1 1_555 1_555
C6 N2 1_555 1_555
C7 N2 1_555 1_555
C8 C7 1_555 1_555
C9 N3 1_555 1_555
C10 C9 1_555 1_555
H5 C10 1_555 1_555
C11 C10 1_555 1_555
H6 C11 1_555 1_555
C12 C11 1_555 1_555
H7 C12 1_555 1_555
C13 N3 1_555 1_555
H8 C13 1_555 1_555
C14 H9 1_555 1_555
C15 C14 1_555 1_555
H10 C15 1_555 1_555
C16 C15 1_555 1_555
H11 C16 1_555 1_555
C17 C16 1_555 1_555
H12 C17 1_555 1_555
C18 N6 1_555 1_555
C19 N5 1_555 1_555
C20 C8 1_555 1_555
C21 C20 1_555 1_555
H13 C21 1_555 1_555
C22 C21 1_555 1_555
H14 C22 1_555 1_555
C23 C22 1_555 1_555
H15 C23 1_555 1_555
C24 N4 1_555 1_555
H16 C24 1_555 1_555
C25 P1 1_555 1_555
H17 C25 1_555 1_555
H18 C25 1_555 1_555
C26 C25 1_555 1_555
H19 C26 1_555 1_555
H20 C26 1_555 1_555
C27 P2 1_555 1_555
H21 C27 1_555 1_555
H22 C27 1_555 1_555
C28 C27 1_555 1_555
H23 C28 1_555 1_555
H24 C28 1_555 1_555
C26E C26 1_555 1_555
C25E C26E 1_555 1_555
P1E C25E 1_555 1_555
O6E P1E 1_555 1_555
O7E P1E 1_555 1_555
O8E P1E 1_555 1_555
H17E C25E 1_555 1_555
H18E C25E 1_555 1_555
H19E C26E 1_555 1_555
H20E C26E 1_555 1_555
C28F C28 1_555 1_555
C27F C28F 1_555 1_555
P2F C27F 1_555 1_555
O3F P2F 1_555 1_555
O4F P2F 1_555 1_555
O5F P2F 1_555 1_555
H21F C27F 1_555 1_555
H22F C27F 1_555 1_555
H23F C28F 1_555 1_555
H24F C28F 1_555 1_555
Mo1F O3F 1_555 1_555
Mo2F O5F 1_555 1_555
Mo3F O4F 1_555 1_555
Mo4F O4F 1_555 1_555
Mo5F O5F 1_555 1_555
O1F Mo1F 1_555 1_555
O9F Mo1F 1_555 1_555
O13F Mo1F 1_555 1_555
O21F Mo1F 1_555 1_555
O10F Mo2F 1_555 1_555
O14F Mo2F 1_555 1_555
O15F Mo2F 1_555 1_555
O2F Mo3F 1_555 1_555
O11F Mo3F 1_555 1_555
O12F Mo3F 1_555 1_555
O18F Mo3F 1_555 1_555
O19F Mo4F 1_555 1_555
O20F Mo4F 1_555 1_555
O16F Mo5F 1_555 1_555
O17F Mo5F 1_555 1_555
Cu1F O1F 1_555 1_555
Cu2F O2F 1_555 1_555
N1_2 C1_2 1_555 1_555
N2_2 C6_2 1_555 1_555
N3_2 C9_2 1_555 1_555
N4_2 Cu2 1_555 1_555
N5_2 Cu2 1_555 1_555
N6_2 Cu2 1_555 1_555
C1_2 H1_2 1_555 1_555
C2_2 C1_2 1_555 1_555
H2_2 C2_2 1_555 1_555
C3_2 C2_2 1_555 1_555
H3_2 C3_2 1_555 1_555
C4_2 C3_2 1_555 1_555
H4_2 C4_2 1_555 1_555
C5_2 N1_2 1_555 1_555
C6_2 C5_2 1_555 1_555
C7_2 N2_2 1_555 1_555
C8_2 N5_2 1_555 1_555
C9_2 C7_2 1_555 1_555
C10_2 C9_2 1_555 1_555
H5_2 C10_2 1_555 1_555
C11_2 C10_2 1_555 1_555
H6_2 C11_2 1_555 1_555
C12_2 C11_2 1_555 1_555
H7_2 C12_2 1_555 1_555
C13_2 N3_2 1_555 1_555
H8_2 C13_2 1_555 1_555
C14_2 N6_2 1_555 1_555
H9_2 C14_2 1_555 1_555
C15_2 C14_2 1_555 1_555
H10_2 C15_2 1_555 1_555
C16_2 C15_2 1_555 1_555
H11_2 C16_2 1_555 1_555
C17_2 C16_2 1_555 1_555
H12_2 C17_2 1_555 1_555
C18_2 N6_2 1_555 1_555
C19_2 N5_2 1_555 1_555
C20_2 N4_2 1_555 1_555
C21_2 C20_2 1_555 1_555
H13_2 C21_2 1_555 1_555
C22_2 C21_2 1_555 1_555
H14_2 C22_2 1_555 1_555
C23_2 C22_2 1_555 1_555
H15_2 C23_2 1_555 1_555
C24_2 N4_2 1_555 1_555
H16_2 C24_2 1_555 1_555
O22F Cu1F 1_555 1_555
O23F Cu2F 1_555 1_555
Cu2_2 N4 1_555 1_555
Mo3E O6E 1_555 1_555
Mo5E O6E 1_555 1_555
Mo4E O7E 1_555 1_555
Mo1E O8E 1_555 1_555
Mo2E O8E 1_555 1_555
O8F Mo1F 1_555 1_555
O6F Mo3F 1_555 1_555
O7F Mo4F 1_555 1_555
N1F Cu1F 1_555 1_555
N2F Cu1F 1_555 1_555
N3F Cu1F 1_555 1_555
N4F Cu2F 1_555 1_555
N5F Cu2F 1_555 1_555
N6F Cu2F 1_555 1_555
Cu1_2 N1_2 1_555 1_555
Mo2 O8 1_555 1_555
Mo2 O9 1_555 1_555
Mo4 O13 1_555 1_555
Mo4 O12 1_555 1_555
Mo5 O6 1_555 1_555
Mo5 O10 1_555 1_555
Mo5 O11 1_555 1_555
P1 O7 1_555 1_555
P1 O8 1_555 1_555
P2 O4 1_555 1_555
N5 Cu2_2 1_555 1_555
N6 Cu2_2 1_555 1_555
C4 C5 1_555 1_555
C5 C6 1_555 1_555
C6 C19 1_555 1_555
C7 C9 1_555 1_555
C12 C13 1_555 1_555
C17 C18 1_555 1_555
C18 C19 1_555 1_555
C23 C24 1_555 1_555
Mo2F O9F 1_555 1_555
Mo2F O8F 1_555 1_555
Mo4F O12F 1_555 1_555
Mo4F O13F 1_555 1_555
Mo5F O10F 1_555 1_555
Mo5F O11F 1_555 1_555
Mo5F O6F 1_555 1_555
N2_2 Cu1_2 1_555 1_555
N3_2 Cu1_2 1_555 1_555
C4_2 C5_2 1_555 1_555
C6_2 C19_2 1_555 1_555
C7_2 C8_2 1_555 1_555
C8_2 C20_2 1_555 1_555
C12_2 C13_2 1_555 1_555
C17_2 C18_2 1_555 1_555
C18_2 C19_2 1_555 1_555
C23_2 C24_2 1_555 1_555

#END
