
#######################################################################
#
#                 Cambridge Crystallographic Data Centre
#                                CCDC 
#
#######################################################################
#
# If this CIF has been generated from an entry in the Cambridge 
# Structural Database, then it will include bibliographic, chemical, 
# crystal, experimental, refinement or atomic coordinate data resulting 
# from the CCDC's data processing and validation procedures.
#
#######################################################################

data_EMUJUR
_symmetry_cell_setting           monoclinic
_symmetry_space_group_name_H-M   'P 21/c'
_symmetry_Int_Tables_number      14
_space_group_name_Hall           '-P 2ybc'
loop_
_symmetry_equiv_pos_site_id
_symmetry_equiv_pos_as_xyz
1 x,y,z
2 x,1/2-y,1/2+z
3 -x,-y,-z
4 -x,1/2+y,1/2-z
_cell_length_a                   12.997(5)
_cell_length_b                   17.812(5)
_cell_length_c                   20.836(5)
_cell_angle_alpha                90
_cell_angle_beta                 92.163(5)
_cell_angle_gamma                90
_cell_volume                     4820.15
loop_
_atom_site_label
_atom_site_type_symbol
_atom_site_fract_x
_atom_site_fract_y
_atom_site_fract_z
Nb1 Nb 0.29018(4) 0.37334(3) 0.75169(2)
Mn1 Mn 0.50115(7) 0.12398(5) 0.68570(4)
Mn2 Mn 0.13510(10) 0.18109(7) 0.93262(6)
C1 C 0.3459(5) 0.2654(3) 0.7100(3)
C2 C 0.2574(4) 0.2853(3) 0.8265(3)
N1 N 0.0038(5) 0.1794(5) 0.8567(4)
N2 N 0.4923(4) 0.0876(3) 0.7917(2)
H1 H 0.5331 0.0451 0.7975
N3 N 0.3764(4) 0.2096(3) 0.6909(3)
N4 N 0.1310(4) 0.0696(3) 0.8811(3)
N5 N 0.0936(5) 0.4378(4) 0.8394(4)
N6 N 0.1938(9) 0.5070(7) 0.6518(5)
N7 N 0.5783(5) 0.1967(3) 0.6109(3)
N8 N 0.4451(5) 0.0896(3) 0.5853(3)
N9 N 0.6007(4) 0.2113(3) 0.7422(3)
H2 H 0.5600 0.2533 0.7488
O1 O 0.0172(6) 0.1347(4) 1.0041(3)
N10 N 0.4755(5) 0.4198(3) 0.6470(3)
N11 N 0.2375(4) 0.2398(3) 0.8638(3)
N12 N 0.5205(5) 0.3426(3) 0.8291(3)
N13 N 0.3756(4) 0.0334(3) 0.6901(3)
C3 C 0.3406(5) 0.4841(3) 0.7943(3)
C4 C 0.6305(6) 0.1801(4) 0.8053(4)
H3 H 0.6590 0.2202 0.8337
H4 H 0.6839 0.1410 0.8008
C5 C 0.3380(6) 0.0023(4) 0.6397(4)
C6 C 0.2236(7) 0.4606(5) 0.6858(4)
C7 C 0.5572(7) 0.1861(6) 0.5516(4)
C8 C 0.4418(5) 0.3524(3) 0.8044(3)
N14 N 0.2581(6) 0.1001(5) 0.9730(3)
C9 C 0.6857(5) 0.2340(4) 0.7022(4)
H5 H 0.7354 0.1922 0.6991
H6 H 0.7222 0.2775 0.7221
C10 C 0.3865(5) 0.0665(4) 0.8032(3)
H7 H 0.3418 0.1114 0.7998
H8 H 0.3822 0.0459 0.8472
C11 C 0.1596(5) 0.4169(4) 0.8084(3)
C12 C 0.6434(6) 0.2554(4) 0.6349(4)
H9 H 0.6039 0.3028 0.6370
H10 H 0.7010 0.2631 0.6058
C13 C -0.0005(6) 0.1296(7) 0.8153(4)
C14 C 0.1895(5) 0.0126(4) 0.9030(4)
C15 C 0.0624(6) 0.0585(5) 0.8339(4)
C16 C -0.0448(14) 0.2940(7) 0.9113(11)
H11 H -0.0712 0.3457 0.9050
H12 H -0.0861 0.2692 0.9441
C17 C 0.3288(9) -0.0271(7) 0.9827(6)
H13 H 0.3730 -0.0071 1.0178
H14 H 0.3717 -0.0464 0.9487
H15 H 0.2862 -0.0678 0.9989
C18 C 0.4821(8) 0.1250(5) 0.5350(4)
C19 C 0.5352(6) 0.1465(4) 0.8335(3)
H16 H 0.5531 0.1252 0.8764
H17 H 0.4831 0.1863 0.8389
C20 C -0.0651(9) 0.1244(8) 0.7559(6)
H18 H -0.1021 0.1718 0.7488
H19 H -0.1148 0.0835 0.7598
H20 H -0.0215 0.1146 0.7195
C21 C 0.3390(10) 0.0125(7) 0.5189(5)
H21 H 0.2895 -0.0267 0.5148
C22 C 0.2615(6) 0.0335(6) 0.9564(4)
C23 C 0.3493(6) 0.0080(4) 0.7547(4)
H22 H 0.3826 -0.0409 0.7644
H23 H 0.2738 0.0016 0.7568
C24 C 0.1788(8) -0.0585(5) 0.8773(6)
H24 H 0.2201 -0.0986 0.8939
N15 N 0.2076(11) 0.2371(7) 1.0233(4)
H25 H 0.1748 0.2192 1.0591
C25 C 0.1101(10) -0.0713(6) 0.8288(7)
H26 H 0.1021 -0.1200 0.8108
N16 N 0.0561(10) 0.2965(5) 0.9318(7)
H27 H 0.0895 0.3249 0.9015
C26 C 0.3744(13) 0.0460(10) 0.4679(6)
H28 H 0.3485 0.0314 0.4266
C27 C 0.2625(7) -0.0597(5) 0.6368(6)
H29 H 0.2462 -0.0747 0.6805
H30 H 0.2918 -0.1025 0.6143
H31 H 0.1996 -0.0429 0.6136
C28 C 0.0523(8) -0.0131(7) 0.8059(5)
H32 H 0.0046 -0.0207 0.7709
C29 C 0.5998(11) 0.2331(8) 0.4980(5)
H33 H 0.6470 0.2710 0.5164
H34 H 0.5430 0.2581 0.4743
H35 H 0.6369 0.2007 0.4688
C30 C 0.3755(7) 0.0357(5) 0.5780(4)
C31 C -0.0554(9) 0.2516(7) 0.8493(8)
H36 H -0.0278 0.2818 0.8140
H37 H -0.1289 0.2408 0.8389
C32 C 0.4492(11) 0.1027(9) 0.4729(5)
H38 H 0.4765 0.1251 0.4358
C33 C 0.1922(18) 0.3175(10) 1.0189(9)
H39 H 0.2396 0.3393 0.9878
H40 H 0.2068 0.3411 1.0613
C34 C 0.0863(16) 0.3320(7) 0.9979(8)
H41 H 0.0755 0.3869 0.9953
H42 H 0.0401 0.3120 1.0306
C35 C 0.3135(14) 0.2163(12) 1.0282(7)
H43 H 0.3452 0.2360 1.0687
H44 H 0.3505 0.2380 0.9919
C36 C 0.3221(11) 0.1312(10) 1.0270(5)
H45 H 0.3949 0.1165 1.0222
H46 H 0.2990 0.1103 1.0681
N17 N 0.3663(5) 0.5413(3) 0.8158(3)
C37 C 0.4123(5) 0.4054(3) 0.6815(3)
C38 C 0.1539(6) 0.3155(4) 0.7041(4)
N18 N 0.0841(6) 0.2855(4) 0.6798(4)
H55 H 0.0156 0.1137 1.0448
H56 H -0.0209 0.1002 0.9803
N17C N 0.6337(5) 0.0413(3) 0.6842(3)
Mn1C Mn 0.49885(7) 0.62398(5) 0.81430(4)
O2 O 0.9095(4) 0.2307(3) 0.0951(3)
H47 H 0.9671 0.2349 0.1260
H50 H 0.9015 0.2803 0.0990
O3 O 0.0896(7) 0.5186(5) 0.5425(4)
H48 H 0.1237 0.5231 0.5851
H51 H 0.0479 0.4848 0.5295
O4 O 0.8188(5) 0.1213(3) 0.5816(3)
H49 H 0.8683 0.0827 0.5690
H52 H 0.7979 0.0885 0.6117
O5 O -0.0196(8) 0.5369(5) 0.9078(5)
H57 H -0.0936 0.5300 0.9132
H58 H 0.0089 0.5117 0.8699
O6 O -0.1553(6) 0.6242(4) 0.8238(5)
H53 H -0.2282 0.6341 0.8246
H54 H -0.1524 0.6752 0.8116
loop_
_geom_bond_atom_site_label_1
_geom_bond_atom_site_label_2
_geom_bond_site_symmetry_1
_geom_bond_site_symmetry_2
Nb1 C1 1_555 1_555
Mn1 N2 1_555 1_555
Mn2 N1 1_555 1_555
C1 N3 1_555 1_555
C2 Nb1 1_555 1_555
N1 C13 1_555 1_555
N2 H1 1_555 1_555
N3 Mn1 1_555 1_555
N4 Mn2 1_555 1_555
N5 C11 1_555 1_555
N6 C6 1_555 1_555
N7 Mn1 1_555 1_555
N8 Mn1 1_555 1_555
N9 Mn1 1_555 1_555
H2 N9 1_555 1_555
O1 Mn2 1_555 1_555
N10 C37 1_555 1_555
N11 Mn2 1_555 1_555
N12 C8 1_555 1_555
N13 Mn1 1_555 1_555
C3 Nb1 1_555 1_555
C4 N9 1_555 1_555
H3 C4 1_555 1_555
H4 C4 1_555 1_555
C5 N13 1_555 1_555
C6 Nb1 1_555 1_555
C7 N7 1_555 1_555
C8 Nb1 1_555 1_555
N14 Mn2 1_555 1_555
C9 N9 1_555 1_555
H5 C9 1_555 1_555
H6 C9 1_555 1_555
C10 N2 1_555 1_555
H7 C10 1_555 1_555
H8 C10 1_555 1_555
C11 Nb1 1_555 1_555
C12 N7 1_555 1_555
H9 C12 1_555 1_555
H10 C12 1_555 1_555
C13 C15 1_555 1_555
C14 N4 1_555 1_555
C15 N4 1_555 1_555
C16 H11 1_555 1_555
H12 C16 1_555 1_555
C17 H13 1_555 1_555
H14 C17 1_555 1_555
H15 C17 1_555 1_555
C18 N8 1_555 1_555
C19 N2 1_555 1_555
H16 C19 1_555 1_555
H17 C19 1_555 1_555
C20 C13 1_555 1_555
H18 C20 1_555 1_555
H19 C20 1_555 1_555
H20 C20 1_555 1_555
C21 H21 1_555 1_555
C22 N14 1_555 1_555
C23 N13 1_555 1_555
H22 C23 1_555 1_555
H23 C23 1_555 1_555
C24 C14 1_555 1_555
H24 C24 1_555 1_555
N15 Mn2 1_555 1_555
H25 N15 1_555 1_555
C25 C24 1_555 1_555
H26 C25 1_555 1_555
N16 Mn2 1_555 1_555
H27 N16 1_555 1_555
C26 C21 1_555 1_555
H28 C26 1_555 1_555
C27 C5 1_555 1_555
H29 C27 1_555 1_555
H30 C27 1_555 1_555
H31 C27 1_555 1_555
C28 C15 1_555 1_555
H32 C28 1_555 1_555
C29 C7 1_555 1_555
H33 C29 1_555 1_555
H34 C29 1_555 1_555
H35 C29 1_555 1_555
C30 N8 1_555 1_555
C31 N1 1_555 1_555
H36 C31 1_555 1_555
H37 C31 1_555 1_555
C32 C18 1_555 1_555
H38 C32 1_555 1_555
C33 N15 1_555 1_555
H39 C33 1_555 1_555
H40 C33 1_555 1_555
C34 N16 1_555 1_555
H41 C34 1_555 1_555
H42 C34 1_555 1_555
C35 N15 1_555 1_555
H43 C35 1_555 1_555
H44 C35 1_555 1_555
C36 N14 1_555 1_555
H45 C36 1_555 1_555
H46 C36 1_555 1_555
O2 H47 1_555 1_555
N17 C3 1_555 1_555
O3 H48 1_555 1_555
C37 Nb1 1_555 1_555
O4 H49 1_555 1_555
C38 Nb1 1_555 1_555
N18 C38 1_555 1_555
O5 H57 1_555 1_555
O6 H53 1_555 1_555
H50 O2 1_555 1_555
H51 O3 1_555 1_555
H52 O4 1_555 1_555
H54 O6 1_555 1_555
H55 O1 1_555 1_555
H56 O1 1_555 1_555
H58 O5 1_555 1_555
N17C Mn1 1_555 1_555
Mn1C N17 1_555 1_555
C2 N11 1_555 1_555
C4 C19 1_555 1_555
C5 C30 1_555 1_555
C7 C18 1_555 1_555
C9 C12 1_555 1_555
C10 C23 1_555 1_555
C14 C22 1_555 1_555
C16 N16 1_555 1_555
C16 C31 1_555 1_555
C17 C22 1_555 1_555
C21 C30 1_555 1_555
C25 C28 1_555 1_555
C26 C32 1_555 1_555
C33 C34 1_555 1_555
C35 C36 1_555 1_555

#END
