
#######################################################################
#
#                 Cambridge Crystallographic Data Centre
#                                CCDC 
#
#######################################################################
#
# If this CIF has been generated from an entry in the Cambridge 
# Structural Database, then it will include bibliographic, chemical, 
# crystal, experimental, refinement or atomic coordinate data resulting 
# from the CCDC's data processing and validation procedures.
#
#######################################################################

data_EMURUA
_symmetry_cell_setting           monoclinic
_symmetry_space_group_name_H-M   'P 21/c'
_symmetry_Int_Tables_number      14
_space_group_name_Hall           '-P 2ybc'
loop_
_symmetry_equiv_pos_site_id
_symmetry_equiv_pos_as_xyz
1 x,y,z
2 -x,1/2+y,1/2-z
3 -x,-y,-z
4 x,1/2-y,1/2+z
_cell_length_a                   12.1516(5)
_cell_length_b                   8.0418(3)
_cell_length_c                   18.4027(8)
_cell_angle_alpha                90
_cell_angle_beta                 98.5030(10)
_cell_angle_gamma                90
_cell_volume                     1778.56
loop_
_atom_site_label
_atom_site_type_symbol
_atom_site_fract_x
_atom_site_fract_y
_atom_site_fract_z
Zn1 Zn 1.0000 0.0000 0.0000
Zn2 Zn 0.5000 -0.5000 0.0000
O1 O 1.07003(14) 0.2370(2) 0.01319(12)
O2 O 1.17658(14) 0.6034(2) 0.01995(12)
O3 O 0.57681(14) -0.7401(2) 0.01053(12)
O4 O 0.33562(15) -0.8994(2) 0.02723(14)
O5 O 1.15584(15) -0.0778(3) 0.05316(12)
H1 H 1.174(3) -0.180(5) 0.0477(19)
H2 H 1.206(3) -0.018(4) 0.045(2)
O6 O 0.36453(16) -0.5755(3) 0.04889(12)
H3 H 0.346(3) -0.680(4) 0.0426(17)
H4 H 0.309(3) -0.527(4) 0.0391(17)
N1 N 0.9401(2) 0.0060(3) 0.10827(14)
N2 N 0.58283(19) -0.4335(3) 0.10742(14)
C1 C 1.03111(19) 0.3802(3) 0.00570(14)
C2 C 1.07977(19) 0.5465(3) 0.00903(14)
C3 C 0.5339(2) -0.8815(3) 0.00479(15)
C4 C 0.4258(2) -0.9551(3) 0.01233(16)
C5 C 0.9891(3) -0.0887(4) 0.16351(19)
H5 H 1.0558 -0.1405 0.1582
C6 C 0.9464(3) -0.1137(5) 0.22762(19)
H6 H 0.9845 -0.1801 0.2644
C7 C 0.8469(3) -0.0406(4) 0.23769(17)
C8 C 0.7979(3) 0.0598(4) 0.18190(19)
H7 H 0.7318 0.1146 0.1864
C9 C 0.8461(3) 0.0800(4) 0.11906(18)
H8 H 0.8109 0.1492 0.0823
C10 C 0.7924(3) -0.0765(5) 0.30457(18)
H9 H 0.7243 -0.0123 0.3016
H10 H 0.8416 -0.0411 0.3482
C11 C 0.7650(3) -0.2612(5) 0.31203(17)
H11 H 0.8336 -0.3237 0.3236
H12 H 0.7225 -0.2756 0.3523
C12 C 0.5341(3) -0.3409(4) 0.1541(2)
H13 H 0.4599 -0.3110 0.1408
C13 C 0.5887(3) -0.2880(5) 0.2209(2)
H14 H 0.5511 -0.2246 0.2516
C14 C 0.6993(3) -0.3285(4) 0.24258(17)
C15 C 0.7475(3) -0.4277(5) 0.19492(19)
H15 H 0.8209 -0.4621 0.2075
C16 C 0.6882(3) -0.4762(4) 0.12907(19)
H16 H 0.7236 -0.5422 0.0980
Zn1_2 Zn 1.0000 1.0000 0.0000
Zn2_2 Zn 0.5000 -1.5000 0.0000
Zn2_3 Zn 1.5000 0.5000 0.0000
O1B O 0.92997(14) 0.7630(2) -0.01319(12)
O1B_2 O 0.92997(14) -0.2370(2) -0.01319(12)
O2B O 0.82342(14) 0.3966(2) -0.01995(12)
O3B O 0.42319(14) -1.2599(2) -0.01053(12)
O3B_2 O 0.42319(14) -0.2599(2) -0.01053(12)
O4B O 0.66438(15) -1.1006(2) -0.02723(14)
O5B O 0.84416(15) 0.0778(3) -0.05316(12)
H1B H 0.826(3) 0.180(5) -0.0477(19)
H2B H 0.794(3) 0.018(4) -0.045(2)
O6B O 0.63547(16) -0.4245(3) -0.04889(12)
H3B H 0.654(3) -0.320(4) -0.0426(17)
H4B H 0.691(3) -0.473(4) -0.0391(17)
N1B N 1.0599(2) -0.0060(3) -0.10827(14)
N2B N 1.41717(19) 0.4335(3) -0.10742(14)
N2B_2 N 0.41717(19) -0.5665(3) -0.10742(14)
C1B C 0.96889(19) 0.6198(3) -0.00570(14)
C2B C 0.92023(19) 0.4535(3) -0.00903(14)
C3B C 0.4661(2) -1.1185(3) -0.00479(15)
C4B C 0.5742(2) -1.0449(3) -0.01233(16)
C5B C 1.0109(3) 0.0887(4) -0.16351(19)
H5B H 0.9442 0.1405 -0.1582
C6B C 1.0536(3) 0.1137(5) -0.22762(19)
H6B H 1.0155 0.1801 -0.2644
C7B C 1.1531(3) 0.0406(4) -0.23769(17)
C8B C 1.2021(3) -0.0598(4) -0.18190(19)
H7B H 1.2682 -0.1146 -0.1864
C9B C 1.1539(3) -0.0800(4) -0.11906(18)
H8B H 1.1891 -0.1492 -0.0823
C10B C 1.2076(3) 0.0765(5) -0.30457(18)
H9B H 1.2757 0.0123 -0.3016
H10B H 1.1584 0.0411 -0.3482
C11B C 1.2350(3) 0.2612(5) -0.31203(17)
H11B H 1.1664 0.3237 -0.3236
H12B H 1.2775 0.2756 -0.3523
C12B C 1.4659(3) 0.3409(4) -0.1541(2)
H13B H 1.5401 0.3110 -0.1408
C13B C 1.4113(3) 0.2880(5) -0.2209(2)
H14B H 1.4489 0.2246 -0.2516
C14B C 1.3007(3) 0.3285(4) -0.24258(17)
C15B C 1.2525(3) 0.4277(5) -0.19492(19)
H15B H 1.1791 0.4621 -0.2075
C16B C 1.3118(3) 0.4762(4) -0.12907(19)
H16B H 1.2764 0.5422 -0.0980
loop_
_geom_bond_atom_site_label_1
_geom_bond_atom_site_label_2
_geom_bond_site_symmetry_1
_geom_bond_site_symmetry_2
Zn1 O1 1_555 1_555
Zn2 O3 1_555 1_555
O1 C1 1_555 1_555
O2 C2 1_555 1_555
O3 C3 1_555 1_555
O4 C4 1_555 1_555
O5 Zn1 1_555 1_555
H1 O5 1_555 1_555
H2 O5 1_555 1_555
O6 Zn2 1_555 1_555
H3 O6 1_555 1_555
H4 O6 1_555 1_555
N1 Zn1 1_555 1_555
N2 Zn2 1_555 1_555
C1 C2 1_555 1_555
C2 C1B 1_555 1_555
C3 C4 1_555 1_555
C4 C3B 1_555 1_555
C5 N1 1_555 1_555
H5 C5 1_555 1_555
C6 C5 1_555 1_555
H6 C6 1_555 1_555
C7 C6 1_555 1_555
C8 C7 1_555 1_555
H7 C8 1_555 1_555
C9 N1 1_555 1_555
H8 C9 1_555 1_555
C10 C7 1_555 1_555
H9 C10 1_555 1_555
H10 C10 1_555 1_555
C11 C10 1_555 1_555
H11 C11 1_555 1_555
H12 C11 1_555 1_555
C12 N2 1_555 1_555
H13 C12 1_555 1_555
C13 C12 1_555 1_555
H14 C13 1_555 1_555
C14 C11 1_555 1_555
C15 C14 1_555 1_555
H15 C15 1_555 1_555
C16 N2 1_555 1_555
H16 C16 1_555 1_555
Zn1_2 O1B 1_555 1_555
Zn2_2 O3B 1_555 1_555
Zn2_3 N2B 1_555 1_555
O1B C1B 1_555 1_555
O1B_2 Zn1 1_555 1_555
O2B C2B 1_555 1_555
O3B C3B 1_555 1_555
O3B_2 Zn2 1_555 1_555
O4B C4B 1_555 1_555
O5B Zn1 1_555 1_555
H1B O5B 1_555 1_555
H2B O5B 1_555 1_555
O6B Zn2 1_555 1_555
H3B O6B 1_555 1_555
H4B O6B 1_555 1_555
N1B Zn1 1_555 1_555
N2B C12B 1_555 1_555
N2B_2 Zn2 1_555 1_555
C1B C2B 1_555 1_555
C2B C1 1_555 1_555
C3B C4B 1_555 1_555
C4B C3 1_555 1_555
C5B N1B 1_555 1_555
H5B C5B 1_555 1_555
C6B C5B 1_555 1_555
H6B C6B 1_555 1_555
C7B C6B 1_555 1_555
C8B C7B 1_555 1_555
H7B C8B 1_555 1_555
C9B N1B 1_555 1_555
H8B C9B 1_555 1_555
C10B C7B 1_555 1_555
H9B C10B 1_555 1_555
H10B C10B 1_555 1_555
C11B C10B 1_555 1_555
H11B C11B 1_555 1_555
H12B C11B 1_555 1_555
C12B H13B 1_555 1_555
C13B C12B 1_555 1_555
H14B C13B 1_555 1_555
C14B C11B 1_555 1_555
C15B C14B 1_555 1_555
H15B C15B 1_555 1_555
C16B N2B 1_555 1_555
H16B C16B 1_555 1_555
C8 C9 1_555 1_555
C13 C14 1_555 1_555
C15 C16 1_555 1_555
C8B C9B 1_555 1_555
C13B C14B 1_555 1_555
C15B C16B 1_555 1_555

#END
