
#######################################################################
#
#                 Cambridge Crystallographic Data Centre
#                                CCDC 
#
#######################################################################
#
# If this CIF has been generated from an entry in the Cambridge 
# Structural Database, then it will include bibliographic, chemical, 
# crystal, experimental, refinement or atomic coordinate data resulting 
# from the CCDC's data processing and validation procedures.
#
#######################################################################

data_EMUSIO
_symmetry_cell_setting           triclinic
_symmetry_space_group_name_H-M   'P -1'
_symmetry_Int_Tables_number      2
_space_group_name_Hall           '-P 1'
loop_
_symmetry_equiv_pos_site_id
_symmetry_equiv_pos_as_xyz
1 x,y,z
2 -x,-y,-z
_cell_length_a                   7.2233(6)
_cell_length_b                   8.0983(7)
_cell_length_c                   9.3433(8)
_cell_angle_alpha                95.932(2)
_cell_angle_beta                 102.381(1)
_cell_angle_gamma                116.170(1)
_cell_volume                     466.745
loop_
_atom_site_label
_atom_site_type_symbol
_atom_site_fract_x
_atom_site_fract_y
_atom_site_fract_z
Zn1 Zn 0.59483(7) 0.81818(6) 0.67710(5)
O1 O 0.8634(5) 0.8392(4) 0.8500(3)
O2 O 0.6553(5) 0.5724(4) 0.6865(3)
O3 O 1.4041(4) 0.7060(4) 0.8085(3)
O4 O 1.0935(5) 0.6607(5) 0.6589(3)
O5 O 0.3433(5) 0.7091(5) 0.4801(3)
O6 O 0.6009(7) 1.0685(5) 0.7349(4)
N1 N 0.8292(6) 0.9333(5) 0.5597(4)
C1 C 0.8069(6) 0.6698(5) 0.8043(4)
C2 C 0.9093(6) 0.5797(5) 0.9006(4)
C3 C 0.8153(7) 0.5047(6) 1.0088(4)
C4 C 1.0965(6) 0.5757(5) 0.8921(4)
C5 C 1.2041(7) 0.6542(6) 0.7760(4)
C6 C 0.8306(7) 0.8314(6) 0.4398(5)
C7 C 0.9990(7) 1.1019(7) 0.6191(5)
H1 H 0.697(7) 0.519(6) 1.014(5)
H2 H 0.242(8) 0.681(7) 0.516(5)
H3 H 0.710(8) 0.712(6) 0.393(5)
H4 H 1.00(1) 1.162(8) 0.699(7)
H5 H 0.62(1) 1.134(9) 0.691(7)
H6 H 0.50(1) 1.06(1) 0.77(1)
H7 H 0.316(9) 0.617(8) 0.436(7)
C4A C 0.9035(6) 0.4243(5) 1.1079(4)
C2A C 1.0907(6) 0.4203(5) 1.0994(4)
C1A C 1.1931(6) 0.3302(5) 1.1957(4)
O1A O 1.1366(5) 0.1608(4) 1.1500(3)
O2A O 1.3447(5) 0.4276(4) 1.3135(3)
C3A C 1.1847(7) 0.4953(6) 0.9912(4)
H1A H 1.303(7) 0.481(6) 0.986(5)
C5A C 0.7959(7) 0.3458(6) 1.2240(4)
O3A O 0.5959(4) 0.2940(4) 1.1915(3)
O4A O 0.9065(5) 0.3393(5) 1.3411(3)
C7A C 1.0010(7) 0.8981(7) 0.3809(5)
N1A N 1.1708(6) 1.0667(5) 0.4403(4)
C6A C 1.1694(7) 1.1686(6) 0.5602(5)
H3A H 1.290(8) 1.288(6) 0.607(5)
H4A H 1.00(1) 0.838(8) 0.301(7)
Zn1A Zn 1.40517(7) 0.18182(6) 1.32290(5)
O5A O 1.6567(5) 0.2909(5) 1.5199(3)
H2A H 1.758(8) 0.319(7) 1.484(5)
H7A H 1.684(9) 0.383(8) 1.564(7)
O6A O 1.3991(7) -0.0685(5) 1.2651(4)
H5A H 1.38(1) -0.134(9) 1.309(7)
H6A H 1.50(1) -0.06(1) 1.23(1)
O3_2 O 0.4041(4) 0.7060(4) 0.8085(3)
Zn1_2 Zn 1.59483(7) 0.81818(6) 0.67710(5)
Zn1A_2 Zn 0.40517(7) 0.18182(6) 1.32290(5)
Zn1A_3 Zn 1.40517(7) 1.18182(6) 0.32290(5)
O3A_2 O 1.5959(4) 0.2940(4) 1.1915(3)
N1A_2 N 1.1708(6) 0.0667(5) 1.4403(4)
O7 O 0.3391(8) 1.0973(7) 0.8932(5)
H8 H 0.42(2) 1.14(1) 0.97(1)
H9 H 0.23(1) 1.04(1) 0.894(8)
loop_
_geom_bond_atom_site_label_1
_geom_bond_atom_site_label_2
_geom_bond_site_symmetry_1
_geom_bond_site_symmetry_2
Zn1 O1 1_555 1_555
O1 C1 1_555 1_555
O2 Zn1 1_555 1_555
O3 C5 1_555 1_555
O4 C5 1_555 1_555
O5 Zn1 1_555 1_555
O6 Zn1 1_555 1_555
O7 H8 1_555 1_555
N1 Zn1 1_555 1_555
C1 O2 1_555 1_555
C2 C1 1_555 1_555
C3 C2 1_555 1_555
C4 C2 1_555 1_555
C5 C4 1_555 1_555
C6 N1 1_555 1_555
C7 N1 1_555 1_555
H1 C3 1_555 1_555
H2 O5 1_555 1_555
H3 C6 1_555 1_555
H4 C7 1_555 1_555
H5 O6 1_555 1_555
H6 O6 1_555 1_555
H7 O5 1_555 1_555
H9 O7 1_555 1_555
C4A C3 1_555 1_555
C2A C4A 1_555 1_555
C1A C2A 1_555 1_555
O1A C1A 1_555 1_555
O2A C1A 1_555 1_555
C3A C4 1_555 1_555
H1A C3A 1_555 1_555
C5A C4A 1_555 1_555
O3A C5A 1_555 1_555
O4A C5A 1_555 1_555
C7A C6 1_555 1_555
N1A C7A 1_555 1_555
C6A C7 1_555 1_555
H3A C6A 1_555 1_555
H4A C7A 1_555 1_555
Zn1A O1A 1_555 1_555
O5A Zn1A 1_555 1_555
H2A O5A 1_555 1_555
H7A O5A 1_555 1_555
O6A Zn1A 1_555 1_555
H5A O6A 1_555 1_555
H6A O6A 1_555 1_555
O3_2 Zn1 1_555 1_555
Zn1_2 O3 1_555 1_555
Zn1A_2 O3A 1_555 1_555
Zn1A_3 N1A 1_555 1_555
O3A_2 Zn1A 1_555 1_555
N1A_2 Zn1A 1_555 1_555
C2A C3A 1_555 1_555
O2A Zn1A 1_555 1_555
N1A C6A 1_555 1_555

#END
