
#######################################################################
#
#                 Cambridge Crystallographic Data Centre
#                                CCDC 
#
#######################################################################
#
# If this CIF has been generated from an entry in the Cambridge 
# Structural Database, then it will include bibliographic, chemical, 
# crystal, experimental, refinement or atomic coordinate data resulting 
# from the CCDC's data processing and validation procedures.
#
#######################################################################

data_EMUSAH
_symmetry_cell_setting           triclinic
_symmetry_space_group_name_H-M   'P -1'
_symmetry_Int_Tables_number      2
_space_group_name_Hall           '-P 1'
loop_
_symmetry_equiv_pos_site_id
_symmetry_equiv_pos_as_xyz
1 x,y,z
2 -x,-y,-z
_cell_length_a                   8.0228(3)
_cell_length_b                   8.1119(3)
_cell_length_c                   19.1586(8)
_cell_angle_alpha                78.6019(14)
_cell_angle_beta                 87.3341(13)
_cell_angle_gamma                88.6256(14)
_cell_volume                     1220.79
loop_
_atom_site_label
_atom_site_type_symbol
_atom_site_fract_x
_atom_site_fract_y
_atom_site_fract_z
Zn1 Zn 0.0000 0.5000 0.5000
Zn2 Zn -0.5000 1.0000 0.5000
O1 O -0.1074(3) 0.7375(3) 0.50922(14)
O2 O -0.2644(3) 1.1076(3) 0.51170(12)
O3 O -0.1098(4) 0.3990(3) 0.59943(14)
H1 H -0.1184 0.2980 0.6054
H2 H -0.1088 0.4642 0.6261
O4 O -0.4351(3) 0.7534(3) 0.56207(14)
H3 H -0.3448 0.7334 0.5473
H4 H -0.4289 0.7387 0.6011
O5 O -0.2153(3) 0.4478(3) 0.45407(14)
H5 H -0.1980 0.4388 0.4068
H6 H -0.2540 0.3582 0.4709
N1 N -0.5905(4) 1.0832(4) 0.59157(15)
N2 N -0.8974(5) 1.2627(5) 1.03905(18)
H11 H -0.9140 1.3006 1.0777
C1 C -0.0472(4) 0.8807(4) 0.50388(17)
C2 C -0.1193(4) 1.0474(4) 0.50559(17)
C3 C -0.5411(5) 1.2251(5) 0.6098(2)
H12 H -0.4656 1.2932 0.5795
C4 C -0.5983(4) 1.2743(5) 0.67224(19)
H13 H -0.5612 1.3737 0.6831
C5 C -0.7102(4) 1.1759(4) 0.71812(18)
C6 C -0.7665(5) 1.0334(5) 0.69707(19)
H14 H -0.8480 0.9674 0.7246
C7 C -0.7012(5) 0.9904(5) 0.6353(2)
H15 H -0.7362 0.8913 0.6236
C8 C -0.7725(5) 1.2229(4) 0.78684(19)
H16 H -0.8722 1.2925 0.7776
H17 H -0.6888 1.2912 0.8019
C9 C -0.8134(6) 1.0780(5) 0.8483(2)
H18 H -0.9115 1.0209 0.8379
H19 H -0.7211 0.9977 0.8537
C10 C -1.0167(6) 1.2795(6) 0.9932(2)
H20 H -1.1178 1.3303 1.0032
C11 C -0.9927(5) 1.2224(6) 0.9307(2)
H21 H -1.0757 1.2385 0.8976
C12 C -0.8455(5) 1.1411(5) 0.91689(19)
C13 C -0.7243(5) 1.1262(6) 0.9665(2)
H22 H -0.6231 1.0733 0.9585
C14 C -0.7521(6) 1.1889(6) 1.0273(2)
H23 H -0.6694 1.1797 1.0604
Zn1_2 Zn 0.0000 1.5000 0.5000
Zn2_2 Zn 0.5000 1.0000 0.5000
O1A O 0.1074(3) 1.2625(3) 0.49078(14)
O1A_2 O 0.1074(3) 0.2625(3) 0.49078(14)
O2A O 0.2644(3) 0.8924(3) 0.48830(12)
O2A_2 O -0.7356(3) 0.8924(3) 0.48830(12)
O3A O 0.1098(4) 0.6010(3) 0.40057(14)
H1A H 0.1184 0.7020 0.3946
H2A H 0.1088 0.5358 0.3739
O4A O -0.5649(3) 1.2466(3) 0.43793(14)
H3A H -0.6552 1.2666 0.4527
H4A H -0.5711 1.2613 0.3989
O5A O 0.2153(3) 0.5522(3) 0.54593(14)
H5A H 0.1980 0.5612 0.5932
H6A H 0.2540 0.6418 0.5291
N1A N -0.4095(4) 0.9168(4) 0.40843(15)
N2A N -0.1026(5) 0.7373(5) -0.03905(18)
H11A H -0.0860 0.6994 -0.0777
C1A C 0.0472(4) 1.1193(4) 0.49612(17)
C2A C 0.1193(4) 0.9526(4) 0.49441(17)
C3A C -0.4589(5) 0.7749(5) 0.3902(2)
H12A H -0.5344 0.7068 0.4205
C4A C -0.4017(4) 0.7257(5) 0.32776(19)
H13A H -0.4388 0.6263 0.3169
C5A C -0.2898(4) 0.8241(4) 0.28188(18)
C6A C -0.2335(5) 0.9666(5) 0.30293(19)
H14A H -0.1520 1.0326 0.2754
C7A C -0.2988(5) 1.0096(5) 0.3647(2)
H15A H -0.2638 1.1087 0.3764
C8A C -0.2275(5) 0.7771(4) 0.21316(19)
H16A H -0.1278 0.7075 0.2224
H17A H -0.3112 0.7088 0.1981
C9A C -0.1866(6) 0.9220(5) 0.1517(2)
H18A H -0.0885 0.9791 0.1621
H19A H -0.2789 1.0023 0.1463
C10A C 0.0167(6) 0.7205(6) 0.0068(2)
H20A H 0.1178 0.6697 -0.0032
C11A C -0.0073(5) 0.7776(6) 0.0693(2)
H21A H 0.0757 0.7615 0.1024
C12A C -0.1545(5) 0.8589(5) 0.08311(19)
C13A C -0.2757(5) 0.8738(6) 0.0335(2)
H22A H -0.3769 0.9267 0.0415
C14A C -0.2479(6) 0.8111(6) -0.0273(2)
H23A H -0.3306 0.8203 -0.0604
Zn3 Zn -0.29215(5) -0.36121(5) 0.78176(2)
O6 O -0.3598(3) -0.1349(3) 0.81482(13)
O7 O -0.1711(4) 0.0879(3) 0.67514(14)
O8 O -0.2113(3) 0.4166(3) 0.74618(13)
O9 O -0.3903(4) 0.1904(3) 0.88673(14)
O10 O -0.0570(3) -0.3496(4) 0.83122(13)
O11 O 0.3036(3) -0.3728(4) 0.89649(14)
O12 O 0.4758(3) -0.3722(3) 0.73663(13)
O13 O 0.1118(3) -0.3696(3) 0.67528(13)
O14 O -0.2012(3) -0.2422(3) 0.68232(13)
H7 H -0.1952 -0.1405 0.6774
H8 H -0.1203 -0.2718 0.6752
O15 O -0.3759(3) -0.4780(3) 0.88298(13)
H9 H -0.4608 -0.4531 0.8903
H10 H -0.3781 -0.5875 0.8860
C15 C -0.3161(4) 0.0145(4) 0.79580(18)
C16 C -0.2311(4) 0.1166(4) 0.73316(19)
C17 C -0.2501(4) 0.2640(4) 0.76561(18)
C18 C -0.3331(4) 0.1625(4) 0.82881(19)
C19 C 0.0900(4) -0.3599(4) 0.80519(18)
C20 C 0.2545(4) -0.3682(4) 0.83560(18)
C21 C 0.3323(4) -0.3696(4) 0.76426(18)
C22 C 0.1659(4) -0.3674(4) 0.73526(19)
Zn3_2 Zn -0.29215(5) -1.36121(5) 0.78176(2)
Zn3_3 Zn -0.29215(5) 0.63879(5) 0.78176(2)
Zn3_4 Zn 0.70785(5) -0.36121(5) 0.78176(2)
Zn3_5 Zn -1.29215(5) -0.36121(5) 0.78176(2)
O6_2 O -0.3598(3) -1.1349(3) 0.81482(13)
O7_2 O -0.1711(4) -0.9121(3) 0.67514(14)
O8_2 O -0.2113(3) -0.5834(3) 0.74618(13)
O8_3 O -0.2113(3) -1.5834(3) 0.74618(13)
O9_2 O -0.3903(4) -0.8096(3) 0.88673(14)
O10_2 O -1.0570(3) -0.3496(4) 0.83122(13)
O10_3 O -0.0570(3) -1.3496(4) 0.83122(13)
O11_2 O -0.6964(3) -0.3728(4) 0.89649(14)
O12_2 O -0.5242(3) -0.3722(3) 0.73663(13)
O12_3 O -0.5242(3) -1.3722(3) 0.73663(13)
O13_2 O -0.8882(3) -0.3696(3) 0.67528(13)
O14_2 O -0.2012(3) -1.2422(3) 0.68232(13)
H7_2 H -0.1952 -1.1405 0.6774
H8_2 H -0.1203 -1.2718 0.6752
O15_2 O -0.3759(3) -1.4780(3) 0.88298(13)
H9_2 H -0.4608 -1.4531 0.8903
H10_2 H -0.3781 -1.5875 0.8860
C15_2 C -0.3161(4) -0.9855(4) 0.79580(18)
C16_2 C -0.2311(4) -0.8834(4) 0.73316(19)
C17_2 C -0.2501(4) -0.7360(4) 0.76561(18)
C18_2 C -0.3331(4) -0.8375(4) 0.82881(19)
C19_2 C -0.9100(4) -0.3599(4) 0.80519(18)
C20_2 C -0.7455(4) -0.3682(4) 0.83560(18)
C21_2 C -0.6677(4) -0.3696(4) 0.76426(18)
C22_2 C -0.8341(4) -0.3674(4) 0.73526(19)
loop_
_geom_bond_atom_site_label_1
_geom_bond_atom_site_label_2
_geom_bond_site_symmetry_1
_geom_bond_site_symmetry_2
Zn1 O1 1_555 1_555
Zn2 O2 1_555 1_555
Zn3 O6 1_555 1_555
O1 C1 1_555 1_555
O2 C2 1_555 1_555
O3 Zn1 1_555 1_555
H1 O3 1_555 1_555
H2 O3 1_555 1_555
O4 Zn2 1_555 1_555
H3 O4 1_555 1_555
H4 O4 1_555 1_555
O5 Zn1 1_555 1_555
H5 O5 1_555 1_555
H6 O5 1_555 1_555
O6 C15 1_555 1_555
O7 C16 1_555 1_555
O8 C17 1_555 1_555
O9 C18 1_555 1_555
O10 Zn3 1_555 1_555
O11 C20 1_555 1_555
O12 C21 1_555 1_555
O13 C22 1_555 1_555
O14 Zn3 1_555 1_555
H7 O14 1_555 1_555
H8 O14 1_555 1_555
O15 Zn3 1_555 1_555
H9 O15 1_555 1_555
H10 O15 1_555 1_555
N1 Zn2 1_555 1_555
N2 H11 1_555 1_555
C1 C2 1_555 1_555
C2 C1A 1_555 1_555
C3 N1 1_555 1_555
H12 C3 1_555 1_555
C4 C3 1_555 1_555
H13 C4 1_555 1_555
C5 C4 1_555 1_555
C6 C5 1_555 1_555
H14 C6 1_555 1_555
C7 N1 1_555 1_555
H15 C7 1_555 1_555
C8 C5 1_555 1_555
H16 C8 1_555 1_555
H17 C8 1_555 1_555
C9 C8 1_555 1_555
H18 C9 1_555 1_555
H19 C9 1_555 1_555
C10 N2 1_555 1_555
H20 C10 1_555 1_555
C11 C10 1_555 1_555
H21 C11 1_555 1_555
C12 C9 1_555 1_555
C13 C12 1_555 1_555
H22 C13 1_555 1_555
C14 N2 1_555 1_555
H23 C14 1_555 1_555
C15 C16 1_555 1_555
C16 C17 1_555 1_555
C17 C18 1_555 1_555
C18 C15 1_555 1_555
C19 O10 1_555 1_555
C20 C19 1_555 1_555
C21 C20 1_555 1_555
C22 C19 1_555 1_555
Zn1_2 O1A 1_555 1_555
Zn2_2 O2A 1_555 1_555
Zn3_2 O6_2 1_555 1_555
Zn3_3 O8 1_555 1_555
Zn3_4 O12 1_555 1_555
Zn3_5 O10_2 1_555 1_555
O1A C1A 1_555 1_555
O1A_2 Zn1 1_555 1_555
O2A C2A 1_555 1_555
O2A_2 Zn2 1_555 1_555
O3A Zn1 1_555 1_555
H1A O3A 1_555 1_555
H2A O3A 1_555 1_555
O4A Zn2 1_555 1_555
H3A O4A 1_555 1_555
H4A O4A 1_555 1_555
O5A Zn1 1_555 1_555
H5A O5A 1_555 1_555
H6A O5A 1_555 1_555
O6_2 C15_2 1_555 1_555
O7_2 C16_2 1_555 1_555
O8_2 Zn3 1_555 1_555
O8_3 Zn3_2 1_555 1_555
O9_2 C18_2 1_555 1_555
O10_2 C19_2 1_555 1_555
O10_3 Zn3_2 1_555 1_555
O11_2 C20_2 1_555 1_555
O12_2 Zn3 1_555 1_555
O12_3 Zn3_2 1_555 1_555
O13_2 C22_2 1_555 1_555
O14_2 Zn3_2 1_555 1_555
H7_2 O14_2 1_555 1_555
H8_2 O14_2 1_555 1_555
O15_2 Zn3_2 1_555 1_555
H9_2 O15_2 1_555 1_555
H10_2 O15_2 1_555 1_555
N1A Zn2 1_555 1_555
N2A H11A 1_555 1_555
C1A C2A 1_555 1_555
C2A C1 1_555 1_555
C3A N1A 1_555 1_555
H12A C3A 1_555 1_555
C4A C3A 1_555 1_555
H13A C4A 1_555 1_555
C5A C4A 1_555 1_555
C6A C5A 1_555 1_555
H14A C6A 1_555 1_555
C7A N1A 1_555 1_555
H15A C7A 1_555 1_555
C8A C5A 1_555 1_555
H16A C8A 1_555 1_555
H17A C8A 1_555 1_555
C9A C8A 1_555 1_555
H18A C9A 1_555 1_555
H19A C9A 1_555 1_555
C10A N2A 1_555 1_555
H20A C10A 1_555 1_555
C11A C10A 1_555 1_555
H21A C11A 1_555 1_555
C12A C9A 1_555 1_555
C13A C12A 1_555 1_555
H22A C13A 1_555 1_555
C14A N2A 1_555 1_555
H23A C14A 1_555 1_555
C15_2 C16_2 1_555 1_555
C16_2 C17_2 1_555 1_555
C17_2 O8_2 1_555 1_555
C18_2 C15_2 1_555 1_555
C19_2 C20_2 1_555 1_555
C20_2 C21_2 1_555 1_555
C21_2 O12_2 1_555 1_555
C22_2 C19_2 1_555 1_555
C6 C7 1_555 1_555
C11 C12 1_555 1_555
C13 C14 1_555 1_555
C21 C22 1_555 1_555
C6A C7A 1_555 1_555
C11A C12A 1_555 1_555
C13A C14A 1_555 1_555
C17_2 C18_2 1_555 1_555
C21_2 C22_2 1_555 1_555

#END
