
#######################################################################
#
#                 Cambridge Crystallographic Data Centre
#                                CCDC 
#
#######################################################################
#
# If this CIF has been generated from an entry in the Cambridge 
# Structural Database, then it will include bibliographic, chemical, 
# crystal, experimental, refinement or atomic coordinate data resulting 
# from the CCDC's data processing and validation procedures.
#
#######################################################################

data_EMUTEM
_symmetry_cell_setting           monoclinic
_symmetry_space_group_name_H-M   'P 21/c'
_symmetry_Int_Tables_number      14
_space_group_name_Hall           '-P 2ybc'
loop_
_symmetry_equiv_pos_site_id
_symmetry_equiv_pos_as_xyz
1 x,y,z
2 -x,1/2+y,1/2-z
3 -x,-y,-z
4 x,1/2-y,1/2+z
_cell_length_a                   25.9317(14)
_cell_length_b                   9.0340(5)
_cell_length_c                   19.4396(10)
_cell_angle_alpha                90
_cell_angle_beta                 100.535(2)
_cell_angle_gamma                90
_cell_volume                     4477.29
loop_
_atom_site_label
_atom_site_type_symbol
_atom_site_fract_x
_atom_site_fract_y
_atom_site_fract_z
S1 S -0.123340(10) 0.72407(3) -0.314580(14)
S2 S -0.129790(11) 0.24440(3) -0.224950(16)
Na1 Na -0.033910(19) 0.54266(6) -0.17876(3)
Na2 Na 0.0000 0.0000 0.0000
Na3 Na 0.0000 0.5000 0.0000
F1 F -0.35361(4) 1.00402(14) 0.03748(5)
F2 F -0.28658(6) 0.86183(16) 0.06348(5)
F3 F -0.27659(5) 1.08895(16) 0.03832(6)
F4 F -0.46324(5) 0.3874(2) -0.42846(6)
F5 F -0.51497(5) 0.27527(15) -0.37110(8)
F6 F -0.50858(4) 0.50889(13) -0.36704(6)
O1 O -0.12555(4) 0.84897(11) -0.36287(5)
O2 O -0.07631(3) 0.72271(10) -0.25975(5)
O3 O 0.03086(4) 0.72351(12) -0.14172(6)
O4 O -0.07088(4) 0.60986(11) -0.07728(5)
O5 O 0.02269(3) 0.49266(10) -0.26325(5)
O6 O -0.02351(4) 0.61452(11) 0.10013(5)
O7 O -0.05315(5) 0.25595(14) -0.01909(7)
O8 O 0.02870(4) 0.05517(12) -0.10365(5)
O9 O 0.08086(4) 0.08322(11) 0.06909(5)
O10 O -0.10536(3) 0.38973(10) -0.22142(5)
O11 O -0.11394(4) 0.15608(13) -0.16195(6)
N1 N -0.13193(4) 0.57908(12) -0.35713(5)
N2 N -0.27023(4) 0.88801(13) -0.07796(5)
N3 N -0.28806(4) 0.86208(12) -0.14700(5)
N4 N -0.12138(4) 0.17110(14) -0.29429(7)
N5 N -0.38864(4) 0.34890(14) -0.31500(6)
N6 N -0.36028(4) 0.35190(13) -0.24890(6)
C1 C -0.17493(4) 0.75714(13) -0.26736(6)
C2 C -0.17416(5) 0.68598(14) -0.20364(6)
C3 C -0.21245(5) 0.71824(15) -0.16428(6)
C4 C -0.25061(4) 0.82263(14) -0.18944(6)
C5 C -0.25188(5) 0.89310(15) -0.25302(6)
C6 C -0.21406(5) 0.85854(15) -0.29277(6)
C7 C -0.31264(5) 0.93137(16) -0.05393(7)
C8 C -0.35768(5) 0.93435(17) -0.10586(7)
C9 C -0.34080(5) 0.88868(15) -0.16587(6)
C10 C -0.30721(6) 0.9706(2) 0.02126(7)
C11 C -0.37093(5) 0.86766(15) -0.23688(6)
C12 C -0.40684(5) 0.97558(16) -0.26624(7)
C13 C -0.43484(5) 0.95822(18) -0.33400(8)
C14 C -0.42793(5) 0.83515(19) -0.37385(7)
C15 C -0.39292(6) 0.72600(18) -0.34368(7)
C16 C -0.36477(5) 0.74160(16) -0.27613(7)
C17 C -0.45621(7) 0.8189(3) -0.44858(9)
C18 C -0.19830(5) 0.27672(14) -0.22939(6)
C19 C -0.22449(5) 0.22150(15) -0.17856(7)
C20 C -0.27837(5) 0.24463(15) -0.18442(7)
C21 C -0.30492(4) 0.32644(14) -0.24031(6)
C22 C -0.27874(5) 0.38384(16) -0.29061(7)
C23 C -0.22539(5) 0.35786(16) -0.28552(7)
C24 C -0.43742(5) 0.37461(18) -0.30630(7)
C25 C -0.44160(5) 0.39379(19) -0.23616(8)
C26 C -0.39088(5) 0.38040(16) -0.19989(7)
C27 C -0.48072(6) 0.3849(2) -0.36835(9)
C28 C -0.37114(5) 0.39945(16) -0.12466(7)
C29 C -0.32778(5) 0.48857(17) -0.09970(7)
C30 C -0.31005(6) 0.50392(18) -0.02850(7)
C31 C -0.33545(6) 0.43236(17) 0.01941(7)
C32 C -0.37950(6) 0.34706(19) -0.00560(8)
C33 C -0.39721(5) 0.33046(18) -0.07712(8)
C34 C -0.31507(7) 0.4461(2) 0.09675(8)
H1 H -0.1277 0.5037 -0.3315
H2 H -0.1475 0.6165 -0.1870
H3 H -0.2106 0.6702 -0.1207
H4 H 0.0544 0.7181 -0.1603
H5 H 0.0318 0.8110 -0.1313
H6 H -0.0737 0.6996 -0.0762
H7 H -0.0959 0.5827 -0.0630
H8 H -0.2776 0.9635 -0.2686
H9 H 0.0346 0.4092 -0.2603
H10 H 0.0477 0.5469 -0.2513
H11 H -0.2134 0.9023 -0.3360
H12 H -0.0528 0.6055 0.1086
H13 H -0.0192 0.7042 0.0978
H14 H -0.0329 0.2583 0.0161
H15 H -0.0775 0.2601 0.0046
H16 H -0.3917 0.9577 -0.1004
H17 H 0.0100 0.0479 -0.1428
H18 H 0.0593 0.0628 -0.1090
H19 H 0.1061 0.0714 0.0499
H20 H 0.0899 0.0322 0.1039
H21 H -0.4112 1.0615 -0.2401
H22 H -0.4586 1.0305 -0.3524
H23 H -0.3875 0.6409 -0.3681
H24 H -0.3411 0.6674 -0.2569
H25 H -0.4347 0.8434 -0.4804
H26 H -0.4687 0.7223 -0.4570
H27 H -0.4862 0.8817 -0.4564
H28 H -0.1334 0.0839 -0.2975
H29 H -0.2068 0.1648 -0.1411
H30 H -0.2964 0.2052 -0.1505
H31 H -0.2984 0.4386 -0.3270
H32 H -0.2076 0.3949 -0.3208
H33 H -0.4712 0.4149 -0.2178
H34 H -0.3096 0.5392 -0.1329
H35 H -0.2811 0.5646 -0.0136
H36 H -0.3973 0.2979 0.0257
H37 H -0.4258 0.2695 -0.0933
H38 H -0.3355 0.3957 0.1239
H39 H -0.2814 0.4044 0.1072
H40 H -0.3121 0.5474 0.1115
S1B S 0.123340(10) 0.27593(3) 0.314580(14)
S2B S 0.129790(11) 0.75560(3) 0.224950(16)
Na1B Na 0.033910(19) 0.45734(6) 0.17876(3)
Na3_2 Na 0.0000 -0.5000 0.0000
F1B F 0.35361(4) -0.00402(14) -0.03748(5)
F2B F 0.28658(6) 0.13817(16) -0.06348(5)
F3B F 0.27659(5) -0.08895(16) -0.03832(6)
F4B F 0.46324(5) 0.6126(2) 0.42846(6)
F5B F 0.51497(5) 0.72473(15) 0.37110(8)
F6B F 0.50858(4) 0.49111(13) 0.36704(6)
O1B O 0.12555(4) 0.15103(11) 0.36287(5)
O2B O 0.07631(3) 0.27729(10) 0.25975(5)
O3B O -0.03086(4) 0.27649(12) 0.14172(6)
O4B O 0.07088(4) 0.39014(11) 0.07728(5)
O5B O -0.02269(3) 0.50734(10) 0.26325(5)
O6B O 0.02351(4) 0.38548(11) -0.10013(5)
O7B O 0.05315(5) -0.25595(14) 0.01909(7)
O7B_2 O 0.05315(5) 0.74405(14) 0.01909(7)
O8B O -0.02870(4) -0.05517(12) 0.10365(5)
O9B O -0.08086(4) -0.08322(11) -0.06909(5)
O10B O 0.10536(3) 0.61027(10) 0.22142(5)
O11B O 0.11394(4) 0.84392(13) 0.16195(6)
N1B N 0.13193(4) 0.42092(12) 0.35713(5)
N2B N 0.27023(4) 0.11199(13) 0.07796(5)
N3B N 0.28806(4) 0.13792(12) 0.14700(5)
N4B N 0.12138(4) 0.82890(14) 0.29429(7)
N5B N 0.38864(4) 0.65110(14) 0.31500(6)
N6B N 0.36028(4) 0.64810(13) 0.24890(6)
C1B C 0.17493(4) 0.24286(13) 0.26736(6)
C2B C 0.17416(5) 0.31402(14) 0.20364(6)
C3B C 0.21245(5) 0.28176(15) 0.16428(6)
C4B C 0.25061(4) 0.17737(14) 0.18944(6)
C5B C 0.25188(5) 0.10690(15) 0.25302(6)
C6B C 0.21406(5) 0.14146(15) 0.29277(6)
C7B C 0.31264(5) 0.06863(16) 0.05393(7)
C8B C 0.35768(5) 0.06565(17) 0.10586(7)
C9B C 0.34080(5) 0.11132(15) 0.16587(6)
C10B C 0.30721(6) 0.0294(2) -0.02126(7)
C11B C 0.37093(5) 0.13234(15) 0.23688(6)
C12B C 0.40684(5) 0.02442(16) 0.26624(7)
C13B C 0.43484(5) 0.04178(18) 0.33400(8)
C14B C 0.42793(5) 0.16485(19) 0.37385(7)
C15B C 0.39292(6) 0.27400(18) 0.34368(7)
C16B C 0.36477(5) 0.25840(16) 0.27613(7)
C17B C 0.45621(7) 0.1811(3) 0.44858(9)
C18B C 0.19830(5) 0.72328(14) 0.22939(6)
C19B C 0.22449(5) 0.77850(15) 0.17856(7)
C20B C 0.27837(5) 0.75537(15) 0.18442(7)
C21B C 0.30492(4) 0.67356(14) 0.24031(6)
C22B C 0.27874(5) 0.61616(16) 0.29061(7)
C23B C 0.22539(5) 0.64214(16) 0.28552(7)
C24B C 0.43742(5) 0.62539(18) 0.30630(7)
C25B C 0.44160(5) 0.60621(19) 0.23616(8)
C26B C 0.39088(5) 0.61960(16) 0.19989(7)
C27B C 0.48072(6) 0.6151(2) 0.36835(9)
C28B C 0.37114(5) 0.60055(16) 0.12466(7)
C29B C 0.32778(5) 0.51143(17) 0.09970(7)
C30B C 0.31005(6) 0.49608(18) 0.02850(7)
C31B C 0.33545(6) 0.56764(17) -0.01941(7)
C32B C 0.37950(6) 0.65294(19) 0.00560(8)
C33B C 0.39721(5) 0.66954(18) 0.07712(8)
C34B C 0.31507(7) 0.5539(2) -0.09675(8)
H1B H 0.1277 0.4963 0.3315
H2B H 0.1475 0.3835 0.1870
H3B H 0.2106 0.3298 0.1207
H4B H -0.0544 0.2819 0.1603
H5B H -0.0318 0.1890 0.1313
H6B H 0.0737 0.3004 0.0762
H7B H 0.0959 0.4173 0.0630
H8B H 0.2776 0.0365 0.2686
H9B H -0.0346 0.5908 0.2603
H10B H -0.0477 0.4531 0.2513
H11B H 0.2134 0.0977 0.3360
H12B H 0.0528 0.3945 -0.1086
H13B H 0.0192 0.2958 -0.0978
H14B H 0.0329 -0.2583 -0.0161
H14B_2 H 0.0329 0.7417 -0.0161
H15B H 0.0775 -0.2601 -0.0046
H15B_2 H 0.0775 0.7399 -0.0046
H16B H 0.3917 0.0423 0.1004
H17B H -0.0100 -0.0479 0.1428
H18B H -0.0593 -0.0628 0.1090
H19B H -0.1061 -0.0714 -0.0499
H20B H -0.0899 -0.0322 -0.1039
H21B H 0.4112 -0.0615 0.2401
H22B H 0.4586 -0.0305 0.3524
H23B H 0.3875 0.3591 0.3681
H24B H 0.3411 0.3326 0.2569
H25B H 0.4347 0.1566 0.4804
H26B H 0.4687 0.2777 0.4570
H27B H 0.4862 0.1183 0.4564
H28B H 0.1334 0.9161 0.2975
H29B H 0.2068 0.8352 0.1411
H30B H 0.2964 0.7948 0.1505
H31B H 0.2984 0.5614 0.3270
H32B H 0.2076 0.6051 0.3208
H33B H 0.4712 0.5851 0.2178
H34B H 0.3096 0.4608 0.1329
H35B H 0.2811 0.4354 0.0136
H36B H 0.3973 0.7021 -0.0257
H37B H 0.4258 0.7305 0.0933
H38B H 0.3355 0.6043 -0.1239
H39B H 0.2814 0.5956 -0.1072
H40B H 0.3121 0.4526 -0.1115
O12 O 0.15793(5) 0.44933(13) 0.00995(6)
H41 H 0.1599 0.5358 -0.0022
H42 H 0.1520 0.3998 -0.0246
O13 O 0.16390(4) 0.03678(13) -0.00038(5)
H43 H 0.1929 0.0625 0.0167
H44 H 0.1617 0.0589 -0.0402
O14 O 0.14857(6) -0.26278(15) -0.04751(7)
H45 H 0.1527 -0.2682 -0.0912
H46 H 0.1610 -0.1751 -0.0333
loop_
_geom_bond_atom_site_label_1
_geom_bond_atom_site_label_2
_geom_bond_site_symmetry_1
_geom_bond_site_symmetry_2
S1 O1 1_555 1_555
S2 O10 1_555 1_555
Na1 O2 1_555 1_555
Na2 O7 1_555 1_555
Na3 O4 1_555 1_555
F1 C10 1_555 1_555
F2 C10 1_555 1_555
F3 C10 1_555 1_555
F4 C27 1_555 1_555
F5 C27 1_555 1_555
F6 C27 1_555 1_555
O2 S1 1_555 1_555
O3 Na1 1_555 1_555
O4 Na1 1_555 1_555
O5 Na1 1_555 1_555
O6 Na3 1_555 1_555
O7 Na3 1_555 1_555
O8 Na2 1_555 1_555
O9 Na2 1_555 1_555
O10 Na1 1_555 1_555
O11 S2 1_555 1_555
N1 S1 1_555 1_555
N2 N3 1_555 1_555
N3 C4 1_555 1_555
N4 S2 1_555 1_555
N5 N6 1_555 1_555
N6 C21 1_555 1_555
C1 S1 1_555 1_555
C2 C1 1_555 1_555
C3 C2 1_555 1_555
C4 C3 1_555 1_555
C5 C4 1_555 1_555
C6 C1 1_555 1_555
C7 N2 1_555 1_555
C8 C7 1_555 1_555
C9 N3 1_555 1_555
C10 C7 1_555 1_555
C11 C9 1_555 1_555
C12 C11 1_555 1_555
C13 C12 1_555 1_555
C14 C13 1_555 1_555
C15 C14 1_555 1_555
C16 C11 1_555 1_555
C17 C14 1_555 1_555
C18 S2 1_555 1_555
C19 C18 1_555 1_555
C20 C19 1_555 1_555
C21 C20 1_555 1_555
C22 C21 1_555 1_555
C23 C18 1_555 1_555
C24 N5 1_555 1_555
C25 C24 1_555 1_555
C26 N6 1_555 1_555
C27 C24 1_555 1_555
C28 C26 1_555 1_555
C29 C28 1_555 1_555
C30 C29 1_555 1_555
C31 C30 1_555 1_555
C32 C31 1_555 1_555
C33 C28 1_555 1_555
C34 C31 1_555 1_555
H1 N1 1_555 1_555
H2 C2 1_555 1_555
H3 C3 1_555 1_555
H4 O3 1_555 1_555
H5 O3 1_555 1_555
H6 O4 1_555 1_555
H7 O4 1_555 1_555
H8 C5 1_555 1_555
H9 O5 1_555 1_555
H10 O5 1_555 1_555
H11 C6 1_555 1_555
H12 O6 1_555 1_555
H13 O6 1_555 1_555
H14 O7 1_555 1_555
H15 O7 1_555 1_555
H16 C8 1_555 1_555
H17 O8 1_555 1_555
H18 O8 1_555 1_555
H19 O9 1_555 1_555
H20 O9 1_555 1_555
H21 C12 1_555 1_555
H22 C13 1_555 1_555
H23 C15 1_555 1_555
H24 C16 1_555 1_555
H25 C17 1_555 1_555
H26 C17 1_555 1_555
H27 C17 1_555 1_555
H28 N4 1_555 1_555
H29 C19 1_555 1_555
H30 C20 1_555 1_555
H31 C22 1_555 1_555
H32 C23 1_555 1_555
H33 C25 1_555 1_555
H34 C29 1_555 1_555
H35 C30 1_555 1_555
H36 C32 1_555 1_555
H37 C33 1_555 1_555
H38 C34 1_555 1_555
H39 C34 1_555 1_555
H40 C34 1_555 1_555
O12 H41 1_555 1_555
H42 O12 1_555 1_555
O13 H43 1_555 1_555
H44 O13 1_555 1_555
O14 H45 1_555 1_555
H46 O14 1_555 1_555
S1B O1B 1_555 1_555
S2B O10B 1_555 1_555
Na1B O6 1_555 1_555
Na3_2 O7B 1_555 1_555
F1B C10B 1_555 1_555
F2B C10B 1_555 1_555
F3B C10B 1_555 1_555
F4B C27B 1_555 1_555
F5B C27B 1_555 1_555
F6B C27B 1_555 1_555
O2B S1B 1_555 1_555
O3B Na1B 1_555 1_555
O4B Na3 1_555 1_555
O5B Na1B 1_555 1_555
O6B Na1 1_555 1_555
O7B Na2 1_555 1_555
O7B_2 Na3 1_555 1_555
O8B Na2 1_555 1_555
O9B Na2 1_555 1_555
O10B Na1B 1_555 1_555
O11B S2B 1_555 1_555
N1B S1B 1_555 1_555
N2B N3B 1_555 1_555
N3B C4B 1_555 1_555
N4B S2B 1_555 1_555
N5B N6B 1_555 1_555
N6B C21B 1_555 1_555
C1B S1B 1_555 1_555
C2B C1B 1_555 1_555
C3B C2B 1_555 1_555
C4B C3B 1_555 1_555
C5B C4B 1_555 1_555
C6B C1B 1_555 1_555
C7B N2B 1_555 1_555
C8B C7B 1_555 1_555
C9B N3B 1_555 1_555
C10B C7B 1_555 1_555
C11B C9B 1_555 1_555
C12B C11B 1_555 1_555
C13B C12B 1_555 1_555
C14B C13B 1_555 1_555
C15B C14B 1_555 1_555
C16B C11B 1_555 1_555
C17B C14B 1_555 1_555
C18B S2B 1_555 1_555
C19B C18B 1_555 1_555
C20B C19B 1_555 1_555
C21B C20B 1_555 1_555
C22B C21B 1_555 1_555
C23B C18B 1_555 1_555
C24B N5B 1_555 1_555
C25B C24B 1_555 1_555
C26B N6B 1_555 1_555
C27B C24B 1_555 1_555
C28B C26B 1_555 1_555
C29B C28B 1_555 1_555
C30B C29B 1_555 1_555
C31B C30B 1_555 1_555
C32B C31B 1_555 1_555
C33B C28B 1_555 1_555
C34B C31B 1_555 1_555
H1B N1B 1_555 1_555
H2B C2B 1_555 1_555
H3B C3B 1_555 1_555
H4B O3B 1_555 1_555
H5B O3B 1_555 1_555
H6B O4B 1_555 1_555
H7B O4B 1_555 1_555
H8B C5B 1_555 1_555
H9B O5B 1_555 1_555
H10B O5B 1_555 1_555
H11B C6B 1_555 1_555
H12B O6B 1_555 1_555
H13B O6B 1_555 1_555
H14B O7B 1_555 1_555
H14B_2 O7B_2 1_555 1_555
H15B O7B 1_555 1_555
H15B_2 O7B_2 1_555 1_555
H16B C8B 1_555 1_555
H17B O8B 1_555 1_555
H18B O8B 1_555 1_555
H19B O9B 1_555 1_555
H20B O9B 1_555 1_555
H21B C12B 1_555 1_555
H22B C13B 1_555 1_555
H23B C15B 1_555 1_555
H24B C16B 1_555 1_555
H25B C17B 1_555 1_555
H26B C17B 1_555 1_555
H27B C17B 1_555 1_555
H28B N4B 1_555 1_555
H29B C19B 1_555 1_555
H30B C20B 1_555 1_555
H31B C22B 1_555 1_555
H32B C23B 1_555 1_555
H33B C25B 1_555 1_555
H34B C29B 1_555 1_555
H35B C30B 1_555 1_555
H36B C32B 1_555 1_555
H37B C33B 1_555 1_555
H38B C34B 1_555 1_555
H39B C34B 1_555 1_555
H40B C34B 1_555 1_555
Na3 O6B 1_555 1_555
C5 C6 1_555 1_555
C8 C9 1_555 1_555
C15 C16 1_555 1_555
C22 C23 1_555 1_555
C25 C26 1_555 1_555
C32 C33 1_555 1_555
Na1B O2B 1_555 1_555
Na1B O4B 1_555 1_555
C5B C6B 1_555 1_555
C8B C9B 1_555 1_555
C15B C16B 1_555 1_555
C22B C23B 1_555 1_555
C25B C26B 1_555 1_555
C32B C33B 1_555 1_555

#END
