
#######################################################################
#
#                 Cambridge Crystallographic Data Centre
#                                CCDC 
#
#######################################################################
#
# If this CIF has been generated from an entry in the Cambridge 
# Structural Database, then it will include bibliographic, chemical, 
# crystal, experimental, refinement or atomic coordinate data resulting 
# from the CCDC's data processing and validation procedures.
#
#######################################################################

data_EMUVUE
_symmetry_cell_setting           orthorhombic
_symmetry_space_group_name_H-M   'P c c n'
_symmetry_Int_Tables_number      56
_space_group_name_Hall           '-P 2ab 2ac'
loop_
_symmetry_equiv_pos_site_id
_symmetry_equiv_pos_as_xyz
1 x,y,z
2 1/2-x,1/2-y,z
3 -x,1/2+y,1/2-z
4 1/2+x,-y,1/2-z
5 -x,-y,-z
6 1/2+x,1/2+y,-z
7 x,1/2-y,1/2+z
8 1/2-x,y,1/2+z
_cell_length_a                   11.300(6)
_cell_length_b                   19.440(11)
_cell_length_c                   21.466(13)
_cell_angle_alpha                90
_cell_angle_beta                 90
_cell_angle_gamma                90
_cell_volume                     4715.48
loop_
_atom_site_label
_atom_site_type_symbol
_atom_site_fract_x
_atom_site_fract_y
_atom_site_fract_z
Ca1 Ca -0.52969(8) 0.48222(5) 0.17399(4)
Ca2 Ca -0.78220(8) 0.35018(4) 0.17412(5)
Ca3 Ca 0.0000 0.0000 0.0000
C1 C -0.3915(4) 0.2051(2) -0.0043(2)
C2 C -0.3814(4) 0.1830(2) 0.0986(2)
C3 C -0.3491(3) 0.0987(2) 0.0293(2)
C4 C -0.4337(4) 0.3217(2) -0.0389(2)
H1 H -0.4148 0.3493 -0.0752
H2 H -0.3839 0.3375 -0.0050
C5 C -0.5613(4) 0.3346(2) -0.0216(2)
C6 C -0.4043(5) 0.2255(3) -0.1148(2)
H3 H -0.3357 0.1961 -0.1202
H4 H -0.3951 0.2644 -0.1428
C7 C -0.5123(6) 0.1858(3) -0.1347(3)
C8 C -0.4147(4) 0.2787(2) 0.1687(2)
H5 H -0.3682 0.3054 0.1394
H6 H -0.3874 0.2904 0.2102
C9 C -0.5419(4) 0.3010(2) 0.1630(2)
C10 C -0.3571(4) 0.1619(2) 0.2102(2)
H7 H -0.3263 0.1913 0.2430
H8 H -0.2927 0.1325 0.1967
C11 C -0.4511(4) 0.1166(2) 0.2387(2)
C12 C -0.3448(4) 0.0026(2) -0.0448(2)
H9 H -0.4044 0.0308 -0.0650
H10 H -0.3782 -0.0431 -0.0400
C13 C -0.2392(4) -0.0029(2) -0.0887(2)
C14 C -0.3075(4) -0.0158(2) 0.0699(2)
H11 H -0.3120 -0.0628 0.0549
H12 H -0.3723 -0.0091 0.0989
C15 C -0.1918(4) -0.0071(2) 0.1051(2)
N1 N -0.4031(3) 0.22930(18) 0.05380(18)
N2 N -0.3673(3) 0.13940(18) -0.02012(18)
N3 N -0.3512(3) 0.11697(18) 0.08986(17)
N4 N -0.4039(3) 0.25081(19) -0.05228(18)
N5 N -0.3247(3) 0.03054(18) 0.01697(17)
N6 N -0.3897(3) 0.20573(18) 0.15793(17)
O1 O -0.6356(3) 0.28567(18) -0.0253(2)
O2 O -0.7970(7) 0.3183(3) 0.2926(4)
H13 H -0.8356 0.3526 0.3065
H14 H -0.7755 0.2872 0.3181
O3 O -0.5901(3) 0.39266(18) -0.00340(18)
O4 O -0.6612(4) 0.4338(4) 0.2560(2)
H15 H -0.6030 0.4062 0.2546
H16 H -0.7097 0.4187 0.2830
O5 O -0.5044(5) 0.1490(3) -0.1808(3)
O6 O -0.3909(4) 0.4534(3) 0.2550(2)
H17 H -0.4302 0.4296 0.2811
H18 H -0.3295 0.4306 0.2453
O7 O -0.6098(4) 0.1907(2) -0.1033(2)
H19 H -0.6109 0.2244 -0.0781
O8 O -0.8127(4) 0.33361(19) 0.06373(18)
H20 H -0.8558 0.3090 0.0401
H21 H -0.7617 0.3537 0.0410
O9 O -0.5616(3) 0.36406(16) 0.15768(18)
O10 O -0.6250(3) 0.25826(17) 0.1670(2)
O11 O -0.4224(4) 0.0904(2) 0.2897(2)
O12 O -0.5446(3) 0.1059(2) 0.2109(2)
O13 O -0.1395(3) 0.02298(16) -0.07480(15)
O14 O -0.2554(3) -0.03334(15) -0.13920(16)
O15 O -0.1117(3) 0.03141(16) 0.08455(15)
O16 O -0.1781(4) -0.0407(2) 0.1542(2)
Ca1A Ca 0.02969(8) 0.01778(5) 0.17399(4)
Ca1B Ca -0.47031(8) -0.01778(5) 0.32601(4)
Ca1E Ca -0.02969(8) -0.01778(5) -0.17399(4)
Ca1C Ca -0.02969(8) 0.51778(5) 0.32601(4)
Ca1D Ca -0.47031(8) 0.51778(5) -0.17399(4)
Ca2A Ca 0.28220(8) 0.14982(4) 0.17412(5)
Ca2A_2 Ca -0.71780(8) 0.14982(4) 0.17412(5)
Ca2E Ca -0.28220(8) -0.14982(4) -0.17412(5)
Ca2_2 Ca 0.21780(8) 0.35018(4) 0.17412(5)
Ca2D Ca -0.21780(8) 0.64982(4) -0.17412(5)
Ca3A Ca -0.5000 0.5000 0.0000
C1A C -0.1085(4) 0.2949(2) -0.0043(2)
C2A C -0.1186(4) 0.3170(2) 0.0986(2)
C3A C -0.1509(3) 0.4013(2) 0.0293(2)
C4A C -0.0663(4) 0.1783(2) -0.0389(2)
H1A H -0.0852 0.1507 -0.0752
H2A H -0.1161 0.1625 -0.0050
C5A C 0.0613(4) 0.1654(2) -0.0216(2)
C6A C -0.0957(5) 0.2745(3) -0.1148(2)
H3A H -0.1643 0.3039 -0.1202
H4A H -0.1049 0.2356 -0.1428
C7A C 0.0123(6) 0.3142(3) -0.1347(3)
C8A C -0.0853(4) 0.2213(2) 0.1687(2)
H5A H -0.1318 0.1946 0.1394
H6A H -0.1126 0.2096 0.2102
C9A C 0.0419(4) 0.1990(2) 0.1630(2)
C10A C -0.1429(4) 0.3381(2) 0.2102(2)
H7A H -0.1737 0.3087 0.2430
H8A H -0.2073 0.3675 0.1967
C11A C -0.0489(4) 0.3834(2) 0.2387(2)
C12A C -0.1552(4) 0.4974(2) -0.0448(2)
H9A H -0.0956 0.4692 -0.0650
H10A H -0.1218 0.5431 -0.0400
C13A C -0.2608(4) 0.5029(2) -0.0887(2)
C14A C -0.1925(4) 0.5158(2) 0.0699(2)
H11A H -0.1880 0.5628 0.0549
H12A H -0.1277 0.5091 0.0989
C15A C -0.3082(4) 0.5071(2) 0.1051(2)
N1A N -0.0969(3) 0.27070(18) 0.05380(18)
N2A N -0.1327(3) 0.36060(18) -0.02012(18)
N3A N -0.1488(3) 0.38303(18) 0.08986(17)
N4A N -0.0961(3) 0.24919(19) -0.05228(18)
N5A N -0.1753(3) 0.46946(18) 0.01697(17)
N6A N -0.1103(3) 0.29427(18) 0.15793(17)
O1A O 0.1356(3) 0.21433(18) -0.0253(2)
O2A O 0.2970(7) 0.1817(3) 0.2926(4)
H13A H 0.3356 0.1474 0.3065
H14A H 0.2755 0.2128 0.3181
O3A O 0.0901(3) 0.10734(18) -0.00340(18)
O3E O -0.0901(3) -0.10734(18) 0.00340(18)
O4A O 0.1612(4) 0.0662(4) 0.2560(2)
H15A H 0.1030 0.0938 0.2546
H16A H 0.2097 0.0813 0.2830
O5A O 0.0044(5) 0.3510(3) -0.1808(3)
O6A O -0.1091(4) 0.0466(3) 0.2550(2)
H17A H -0.0698 0.0704 0.2811
H18A H -0.1705 0.0694 0.2453
O7A O 0.1098(4) 0.3093(2) -0.1033(2)
H19A H 0.1109 0.2756 -0.0781
O8A O 0.3127(4) 0.16639(19) 0.06373(18)
H20A H 0.3558 0.1910 0.0401
H21A H 0.2617 0.1463 0.0410
O9A O 0.0616(3) 0.13594(16) 0.15768(18)
O10A O 0.1250(3) 0.24174(17) 0.1670(2)
O10A_2 O -0.8750(3) 0.24174(17) 0.1670(2)
O10_2 O 0.3750(3) 0.25826(17) 0.1670(2)
O11A O -0.0776(4) 0.4096(2) 0.2897(2)
O11B O -0.5776(4) 0.5904(2) 0.2103(2)
O11C O 0.0776(4) -0.0904(2) 0.2103(2)
O12A O 0.0446(3) 0.3941(2) 0.2109(2)
O12A_2 O -0.9554(3) 0.3941(2) 0.2109(2)
O12_2 O 0.4554(3) 0.1059(2) 0.2109(2)
O13A O -0.3605(3) 0.47702(16) -0.07480(15)
O13E O -0.6395(3) 0.52298(16) 0.07480(15)
O13D O 0.1395(3) -0.02298(16) 0.07480(15)
O14A O -0.2446(3) 0.53334(15) -0.13920(16)
O14E O -0.7554(3) 0.46666(15) 0.13920(16)
O14D O 0.2554(3) 0.03334(15) 0.13920(16)
O15A O -0.3883(3) 0.46859(16) 0.08455(15)
O15D O 0.1117(3) -0.03141(16) -0.08455(15)
O16A O -0.3219(4) 0.5407(2) 0.1542(2)
loop_
_geom_bond_atom_site_label_1
_geom_bond_atom_site_label_2
_geom_bond_site_symmetry_1
_geom_bond_site_symmetry_2
Ca1 O4 1_555 1_555
Ca2 O2 1_555 1_555
Ca3 O13 1_555 1_555
C1 N1 1_555 1_555
C2 N1 1_555 1_555
C3 N2 1_555 1_555
C4 H1 1_555 1_555
H2 C4 1_555 1_555
C5 C4 1_555 1_555
C6 H3 1_555 1_555
H4 C6 1_555 1_555
C7 C6 1_555 1_555
C8 H5 1_555 1_555
H6 C8 1_555 1_555
C9 C8 1_555 1_555
C10 H7 1_555 1_555
H8 C10 1_555 1_555
C11 C10 1_555 1_555
C12 H9 1_555 1_555
H10 C12 1_555 1_555
C13 C12 1_555 1_555
C14 H11 1_555 1_555
H12 C14 1_555 1_555
C15 C14 1_555 1_555
N2 C1 1_555 1_555
N3 C2 1_555 1_555
N4 C1 1_555 1_555
N5 C3 1_555 1_555
N6 C2 1_555 1_555
O1 C5 1_555 1_555
O2 H13 1_555 1_555
H14 O2 1_555 1_555
O3 C5 1_555 1_555
O4 Ca2 1_555 1_555
H15 O4 1_555 1_555
H16 O4 1_555 1_555
O5 C7 1_555 1_555
O6 Ca1 1_555 1_555
H17 O6 1_555 1_555
H18 O6 1_555 1_555
O7 C7 1_555 1_555
H19 O7 1_555 1_555
O8 Ca2 1_555 1_555
H20 O8 1_555 1_555
H21 O8 1_555 1_555
O9 Ca1 1_555 1_555
O10 Ca2 1_555 1_555
O11 C11 1_555 1_555
O12 C11 1_555 1_555
O13 C13 1_555 1_555
O14 C13 1_555 1_555
O15 Ca3 1_555 1_555
O16 C15 1_555 1_555
Ca1A O15 1_555 1_555
Ca1B O11 1_555 1_555
Ca1E O13 1_555 1_555
Ca1C O11A 1_555 1_555
Ca1D O13A 1_555 1_555
Ca2A O2A 1_555 1_555
Ca2A_2 O10 1_555 1_555
Ca2E O14 1_555 1_555
Ca2_2 O10A 1_555 1_555
Ca2D O14A 1_555 1_555
Ca3A O3 1_555 1_555
C1A N1A 1_555 1_555
C2A N1A 1_555 1_555
C3A N2A 1_555 1_555
C4A H1A 1_555 1_555
H2A C4A 1_555 1_555
C5A C4A 1_555 1_555
C6A H3A 1_555 1_555
H4A C6A 1_555 1_555
C7A C6A 1_555 1_555
C8A H5A 1_555 1_555
H6A C8A 1_555 1_555
C9A C8A 1_555 1_555
C10A H7A 1_555 1_555
H8A C10A 1_555 1_555
C11A C10A 1_555 1_555
C12A H9A 1_555 1_555
H10A C12A 1_555 1_555
C13A C12A 1_555 1_555
C14A H11A 1_555 1_555
H12A C14A 1_555 1_555
C15A C14A 1_555 1_555
N2A C1A 1_555 1_555
N3A C2A 1_555 1_555
N4A C1A 1_555 1_555
N5A C3A 1_555 1_555
N6A C2A 1_555 1_555
O1A C5A 1_555 1_555
O2A H13A 1_555 1_555
H14A O2A 1_555 1_555
O3A Ca3 1_555 1_555
O3E Ca3 1_555 1_555
O4A Ca1A 1_555 1_555
H15A O4A 1_555 1_555
H16A O4A 1_555 1_555
O5A C7A 1_555 1_555
O6A Ca1A 1_555 1_555
H17A O6A 1_555 1_555
H18A O6A 1_555 1_555
O7A C7A 1_555 1_555
H19A O7A 1_555 1_555
O8A Ca2A 1_555 1_555
H20A O8A 1_555 1_555
H21A O8A 1_555 1_555
O9A Ca1A 1_555 1_555
O10A Ca2A 1_555 1_555
O10A_2 Ca2 1_555 1_555
O10_2 Ca2A 1_555 1_555
O11A C11A 1_555 1_555
O11B Ca1 1_555 1_555
O11C Ca1A 1_555 1_555
O12A Ca2_2 1_555 1_555
O12A_2 Ca2 1_555 1_555
O12_2 Ca2A 1_555 1_555
O13A Ca3A 1_555 1_555
O13E Ca1 1_555 1_555
O13D Ca3 1_555 1_555
O14A Ca1D 1_555 1_555
O14E Ca1 1_555 1_555
O14D Ca1A 1_555 1_555
O15A Ca1 1_555 1_555
O15D Ca3 1_555 1_555
O16A Ca1 1_555 1_555
Ca2 O9 1_555 1_555
Ca2 O14E 1_555 1_555
C3 N3 1_555 1_555
C4 N4 1_555 1_555
C6 N4 1_555 1_555
C8 N6 1_555 1_555
C9 O9 1_555 1_555
C9 O10 1_555 1_555
C10 N6 1_555 1_555
C12 N5 1_555 1_555
C14 N5 1_555 1_555
C15 O15 1_555 1_555
O12 Ca2A_2 1_555 1_555
O14 Ca1E 1_555 1_555
O16 Ca1A 1_555 1_555
Ca1A O13D 1_555 1_555
Ca1E O15D 1_555 1_555
Ca2A O4A 1_555 1_555
Ca2A O9A 1_555 1_555
Ca2A O14D 1_555 1_555
Ca2A_2 O10A_2 1_555 1_555
Ca2_2 O10_2 1_555 1_555
Ca3A O13E 1_555 1_555
Ca3A O15A 1_555 1_555
C3A N3A 1_555 1_555
C4A N4A 1_555 1_555
C5A O3A 1_555 1_555
C6A N4A 1_555 1_555
C8A N6A 1_555 1_555
C9A O9A 1_555 1_555
C9A O10A 1_555 1_555
C10A N6A 1_555 1_555
C11A O12A 1_555 1_555
C12A N5A 1_555 1_555
C13A O13A 1_555 1_555
C13A O14A 1_555 1_555
C14A N5A 1_555 1_555
C15A O15A 1_555 1_555
C15A O16A 1_555 1_555

#END
