
#######################################################################
#
#                 Cambridge Crystallographic Data Centre
#                                CCDC 
#
#######################################################################
#
# If this CIF has been generated from an entry in the Cambridge 
# Structural Database, then it will include bibliographic, chemical, 
# crystal, experimental, refinement or atomic coordinate data resulting 
# from the CCDC's data processing and validation procedures.
#
#######################################################################

data_EMUVUD
_symmetry_cell_setting           triclinic
_symmetry_space_group_name_H-M   'P -1'
_symmetry_Int_Tables_number      2
_space_group_name_Hall           '-P 1'
loop_
_symmetry_equiv_pos_site_id
_symmetry_equiv_pos_as_xyz
1 x,y,z
2 -x,-y,-z
_cell_length_a                   11.692(3)
_cell_length_b                   11.853(4)
_cell_length_c                   12.381(5)
_cell_angle_alpha                61.419(5)
_cell_angle_beta                 80.757(8)
_cell_angle_gamma                89.003(5)
_cell_volume                     1483.67
loop_
_atom_site_label
_atom_site_type_symbol
_atom_site_fract_x
_atom_site_fract_y
_atom_site_fract_z
Pt1 Pt 0.5000 1.0000 0.5000
K1 K 0.06614(19) 0.8633(2) 0.9521(2)
S1 S 0.4320(3) 0.7862(4) 0.6436(4)
S2 S 0.5254(4) 0.9403(5) 0.3414(4)
S3 S 0.3051(3) 1.0420(5) 0.4810(5)
N1 N 0.2480(10) 0.7980(11) 0.8223(11)
N2 N 0.3232(13) 0.8315(16) 0.3388(13)
N3 N 0.2867(16) 1.3089(14) 0.4060(19)
O1 O -0.0446(6) 0.6284(7) 1.0364(8)
O2 O 0.1182(6) 0.6385(7) 1.1500(7)
O3 O 0.2374(5) 0.8754(7) 1.0767(6)
O4 O 0.1476(6) 1.1164(6) 0.8991(7)
O5 O 0.0611(7) 1.0640(6) 0.7226(7)
O6 O -0.0771(6) 0.8339(7) 0.8082(7)
C1 C -0.0633(11) 0.5476(9) 1.1640(11)
C2 C -0.1696(9) 0.4784(13) 1.2317(16)
C3 C -0.1675(15) 0.4020(14) 1.3559(14)
C4 C -0.0830(14) 0.4036(12) 1.4176(12)
C5 C 0.0113(11) 0.4771(11) 1.3585(10)
C6 C 0.0277(10) 0.5528(10) 1.2264(10)
C7 C 0.2132(9) 0.6508(11) 1.2128(11)
C8 C 0.2964(9) 0.7616(12) 1.1161(11)
C9 C 0.3141(9) 0.9902(13) 0.9961(16)
C10 C 0.2354(10) 1.1066(11) 0.9667(12)
C11 C 0.1824(10) 1.1906(9) 0.7672(10)
C12 C 0.0736(14) 1.1907(11) 0.7116(11)
C13 C -0.0292(10) 1.0603(10) 0.6580(10)
C14 C -0.0371(9) 0.9262(12) 0.6704(10)
C15 C -0.0840(10) 0.7075(13) 0.8244(14)
C16 C -0.1294(10) 0.6216(11) 0.9675(12)
C17 C 0.3199(14) 0.7890(13) 0.7507(15)
C18 C 0.4047(12) 0.8836(13) 0.3415(12)
C19 C 0.2997(14) 1.213(2) 0.4318(17)
S1A S 0.5680(3) 1.2138(4) 0.3564(4)
N1A N 0.7520(10) 1.2020(11) 0.1777(11)
C17A C 0.6801(14) 1.2110(13) 0.2493(15)
S2A S 0.4746(4) 1.0597(5) 0.6586(4)
N2A N 0.6768(13) 1.1685(16) 0.6612(13)
C18A C 0.5953(12) 1.1164(13) 0.6585(12)
S3A S 0.6949(3) 0.9580(5) 0.5190(5)
N3A N 0.7133(16) 0.6911(14) 0.5940(19)
C19A C 0.7003(14) 0.787(2) 0.5682(17)
K1A K 0.93386(19) 1.1367(2) 0.0479(2)
O1A O 0.0446(6) 1.3716(7) 0.9636(8)
O2A O -0.1182(6) 1.3615(7) 0.8500(7)
O3A O -0.2374(5) 1.1246(7) 0.9233(6)
O4A O -0.1476(6) 0.8836(6) 1.1009(7)
O5A O -0.0611(7) 0.9360(6) 1.2774(7)
O6A O 0.0771(6) 1.1661(7) 1.1918(7)
C1A C 0.0633(11) 1.4524(9) 0.8360(11)
C2A C 0.1696(9) 1.5216(13) 0.7683(16)
C3A C 0.1675(15) 1.5980(14) 0.6441(14)
C4A C 0.0830(14) 1.5964(12) 0.5824(12)
C5A C -0.0113(11) 1.5229(11) 0.6415(10)
C6A C -0.0277(10) 1.4472(10) 0.7736(10)
C7A C -0.2132(9) 1.3492(11) 0.7872(11)
C8A C -0.2964(9) 1.2384(12) 0.8839(11)
C9A C -0.3141(9) 1.0098(13) 1.0039(16)
C10A C -0.2354(10) 0.8934(11) 1.0333(12)
C11A C -0.1824(10) 0.8094(9) 1.2328(10)
C12A C -0.0736(14) 0.8093(11) 1.2884(11)
C13A C 0.0292(10) 0.9397(10) 1.3420(10)
C14A C 0.0371(9) 1.0738(12) 1.3296(10)
C15A C 0.0840(10) 1.2925(13) 1.1756(14)
C16A C 0.1294(10) 1.3784(11) 1.0325(12)
K1A_2 K -0.06614(19) 1.1367(2) 1.0479(2)
O1A_2 O 1.0446(6) 1.3716(7) -0.0364(8)
O2A_2 O 0.8818(6) 1.3615(7) -0.1500(7)
O3A_2 O 0.7626(5) 1.1246(7) -0.0767(6)
O4_2 O 1.1476(6) 1.1164(6) -0.1009(7)
O4A_2 O 0.8524(6) 0.8836(6) 0.1009(7)
O5A_2 O 0.9389(7) 0.9360(6) 0.2774(7)
O6A_2 O 1.0771(6) 1.1661(7) 0.1918(7)
O7 O 0.5634(6) 0.6882(11) 0.9519(12)
H1 H 0.611(12) 0.685(14) 0.890(7)
H2 H 0.578(11) 0.625(9) 1.024(5)
O8 O 0.5360(5) 0.5852(7) 0.3012(6)
H3 H 0.59(2) 0.65(2) 0.26(2)
H4 H 0.533(7) 0.538(8) 0.263(8)
loop_
_geom_bond_atom_site_label_1
_geom_bond_atom_site_label_2
_geom_bond_site_symmetry_1
_geom_bond_site_symmetry_2
Pt1 S1 1_555 1_555
K1 N1 1_555 1_555
S1 C17 1_555 1_555
S2 Pt1 1_555 1_555
S3 Pt1 1_555 1_555
N1 C17 1_555 1_555
N2 C18 1_555 1_555
N3 C19 1_555 1_555
O1 K1 1_555 1_555
O2 K1 1_555 1_555
O3 K1 1_555 1_555
O4 K1 1_555 1_555
O5 K1 1_555 1_555
O6 K1 1_555 1_555
O7 H1 1_555 1_555
O8 H3 1_555 1_555
C1 O1 1_555 1_555
C2 C1 1_555 1_555
C3 C2 1_555 1_555
C4 C3 1_555 1_555
C5 C4 1_555 1_555
C6 O2 1_555 1_555
C7 O2 1_555 1_555
C8 O3 1_555 1_555
C9 O3 1_555 1_555
C10 O4 1_555 1_555
C11 O4 1_555 1_555
C12 O5 1_555 1_555
C13 O5 1_555 1_555
C14 O6 1_555 1_555
C15 O6 1_555 1_555
C16 O1 1_555 1_555
C18 S2 1_555 1_555
C19 S3 1_555 1_555
H2 O7 1_555 1_555
H4 O8 1_555 1_555
S1A Pt1 1_555 1_555
N1A C17A 1_555 1_555
C17A S1A 1_555 1_555
S2A Pt1 1_555 1_555
N2A C18A 1_555 1_555
C18A S2A 1_555 1_555
S3A Pt1 1_555 1_555
N3A C19A 1_555 1_555
C19A S3A 1_555 1_555
K1A N1A 1_555 1_555
O1A C1A 1_555 1_555
O2A C6A 1_555 1_555
O3A C8A 1_555 1_555
O4A K1 1_555 1_555
O5A C12A 1_555 1_555
O6A C14A 1_555 1_555
C1A C2A 1_555 1_555
C2A C3A 1_555 1_555
C3A C4A 1_555 1_555
C4A C5A 1_555 1_555
C5A C6A 1_555 1_555
C6A C1A 1_555 1_555
C7A O2A 1_555 1_555
C8A C7A 1_555 1_555
C9A O3A 1_555 1_555
C10A O4A 1_555 1_555
C11A O4A 1_555 1_555
C12A C11A 1_555 1_555
C13A O5A 1_555 1_555
C14A C13A 1_555 1_555
C15A O6A 1_555 1_555
C16A O1A 1_555 1_555
K1A_2 O4 1_555 1_555
O1A_2 K1A 1_555 1_555
O2A_2 K1A 1_555 1_555
O3A_2 K1A 1_555 1_555
O4_2 K1A 1_555 1_555
O4A_2 K1A 1_555 1_555
O5A_2 K1A 1_555 1_555
O6A_2 K1A 1_555 1_555
C1 C6 1_555 1_555
C5 C6 1_555 1_555
C7 C8 1_555 1_555
C9 C10 1_555 1_555
C11 C12 1_555 1_555
C13 C14 1_555 1_555
C15 C16 1_555 1_555
O1A K1A_2 1_555 1_555
O2A K1A_2 1_555 1_555
O3A K1A_2 1_555 1_555
O4A K1A_2 1_555 1_555
O5A K1A_2 1_555 1_555
O6A K1A_2 1_555 1_555
C9A C10A 1_555 1_555
C15A C16A 1_555 1_555

#END
