
#######################################################################
#
#                 Cambridge Crystallographic Data Centre
#                                CCDC 
#
#######################################################################
#
# If this CIF has been generated from an entry in the Cambridge 
# Structural Database, then it will include bibliographic, chemical, 
# crystal, experimental, refinement or atomic coordinate data resulting 
# from the CCDC's data processing and validation procedures.
#
#######################################################################

data_EMUVOX
_symmetry_cell_setting           rhombohedral
_symmetry_space_group_name_H-M   'R -3'
_symmetry_Int_Tables_number      148
_space_group_name_Hall           '-R 3'
loop_
_symmetry_equiv_pos_site_id
_symmetry_equiv_pos_as_xyz
1 x,y,z
2 -y,x-y,z
3 -x+y,-x,z
4 2/3+x,1/3+y,1/3+z
5 2/3-y,1/3+x-y,1/3+z
6 2/3-x+y,1/3-x,1/3+z
7 1/3+x,2/3+y,2/3+z
8 2/3+y,1/3-x+y,1/3-z
9 2/3+x-y,1/3+x,1/3-z
10 -x,-y,-z
11 y,-x+y,-z
12 x-y,x,-z
13 1/3-x,2/3-y,2/3-z
14 1/3+y,2/3-x+y,2/3-z
15 1/3+x-y,2/3+x,2/3-z
16 2/3-x,1/3-y,1/3-z
17 1/3-y,2/3+x-y,2/3+z
18 1/3-x+y,2/3-x,2/3+z
_cell_length_a                   19.933(3)
_cell_length_b                   19.933(3)
_cell_length_c                   29.760(6)
_cell_angle_alpha                90
_cell_angle_beta                 90
_cell_angle_gamma                120.00
_cell_volume                     10240.2
loop_
_atom_site_label
_atom_site_type_symbol
_atom_site_fract_x
_atom_site_fract_y
_atom_site_fract_z
Pt1 Pt 1.0000 0.0000 0.5000
Na1 Na 0.8821(2) 0.1985(2) 0.60257(13)
S1 S 1.06799(13) 0.11115(13) 0.54704(8)
N1 N 0.9627(5) 0.1630(5) 0.5606(3)
O1 O 0.9969(4) 0.3453(4) 0.5913(2)
O2 O 0.8770(4) 0.2911(4) 0.5429(2)
O3 O 0.7756(4) 0.1348(4) 0.5369(2)
O4 O 0.7973(4) 0.0498(3) 0.6020(2)
O5 O 0.8757(4) 0.1132(4) 0.6848(2)
O6 O 1.0070(3) 0.2514(4) 0.6554(2)
C1 C 0.9813(6) 0.3999(6) 0.5774(4)
C2 C 1.0228(7) 0.4783(6) 0.5860(4)
C3 C 1.0007(8) 0.5289(7) 0.5683(5)
C4 C 0.9327(11) 0.4989(8) 0.5452(5)
C5 C 0.8889(7) 0.4179(8) 0.5347(4)
C6 C 0.9125(6) 0.3704(5) 0.5511(4)
C7 C 0.8154(7) 0.2606(7) 0.5117(4)
C8 C 0.7997(7) 0.1842(8) 0.4985(4)
C9 C 0.7605(7) 0.0576(8) 0.5267(4)
C10 C 0.7331(7) 0.0147(7) 0.5694(5)
C11 C 0.7806(7) 0.0071(6) 0.6428(4)
C12 C 0.8532(7) 0.0349(6) 0.6692(4)
C13 C 0.9471(6) 0.1441(6) 0.7066(3)
C14 C 1.0145(7) 0.1907(6) 0.6746(3)
C15 C 1.0749(6) 0.3060(7) 0.6333(4)
C16 C 1.0678(6) 0.3752(6) 0.6198(4)
C17 C 1.0033(5) 0.1411(5) 0.5537(3)
S1A S 0.88885(13) -0.04316(18) 0.54704(8)
N1A N 0.8370(5) -0.2003(7) 0.5606(3)
C17A C 0.8589(5) -0.1378(7) 0.5537(3)
S1B S 1.04316(18) -0.06799(13) 0.54704(8)
N1B N 1.2003(7) 0.0373(5) 0.5606(3)
C17B C 1.1378(7) -0.0033(5) 0.5537(3)
S1I S 0.93201(13) -0.11115(13) 0.45296(8)
N1I N 1.0373(5) -0.1630(5) 0.4394(3)
C17I C 0.9967(5) -0.1411(5) 0.4463(3)
S1J S 1.11115(13) 0.04316(18) 0.45296(8)
N1J N 1.1630(5) 0.2003(7) 0.4394(3)
C17J C 1.1411(5) 0.1378(7) 0.4463(3)
S1K S 0.95684(18) 0.06799(13) 0.45296(8)
N1K N 0.7997(7) -0.0373(5) 0.4394(3)
C17K C 0.8622(7) 0.0033(5) 0.4463(3)
Na1A Na 0.8015(2) -0.3164(3) 0.60257(13)
Na1B Na 1.3164(3) 0.1179(2) 0.60257(13)
Na1I Na 1.1179(2) -0.1985(2) 0.39743(13)
Na1J Na 1.1985(2) 0.3164(3) 0.39743(13)
Na1K Na 0.6836(3) -0.1179(2) 0.39743(13)
O1O O 0.6698(4) -0.0120(4) 0.7420(2)
O2O O 0.7897(4) 0.0422(4) 0.7904(2)
O3O O 0.8911(4) 0.1985(4) 0.7964(2)
O4O O 0.8694(4) 0.2835(3) 0.7313(2)
O5O O 0.7910(4) 0.2201(4) 0.6485(2)
O6O O 0.6597(3) 0.0819(4) 0.6779(2)
C1O C 0.6854(6) -0.0666(6) 0.7559(4)
C2O C 0.6439(7) -0.1450(6) 0.7473(4)
C3O C 0.6660(8) -0.1956(7) 0.7650(5)
C4O C 0.7340(11) -0.1656(8) 0.7881(5)
C5O C 0.7778(7) -0.0846(8) 0.7986(4)
C6O C 0.7542(6) -0.0371(5) 0.7822(4)
C7O C 0.8513(7) 0.0727(7) 0.8216(4)
C8O C 0.8670(7) 0.1491(8) 0.8348(4)
C9O C 0.9062(7) 0.2757(8) 0.8066(4)
C10O C 0.9336(7) 0.3186(7) 0.7639(5)
C11O C 0.8861(7) 0.3262(6) 0.6905(4)
C12O C 0.8135(7) 0.2984(6) 0.6641(4)
C13O C 0.7196(6) 0.1892(6) 0.6267(3)
C14O C 0.6522(7) 0.1426(6) 0.6587(3)
C15O C 0.5918(6) 0.0273(7) 0.7000(4)
C16O C 0.5989(6) -0.0419(6) 0.7135(4)
O1A O 0.6547(4) -0.3484(6) 0.5913(2)
O2A O 0.7089(4) -0.4141(6) 0.5429(2)
O3A O 0.8652(4) -0.3592(6) 0.5369(2)
O4A O 0.9502(3) -0.2525(5) 0.6020(2)
O5A O 0.8868(4) -0.2375(6) 0.6848(2)
O6A O 0.7486(4) -0.2444(5) 0.6554(2)
C1A C 0.6001(6) -0.4186(8) 0.5774(4)
C2A C 0.5217(6) -0.4555(9) 0.5860(4)
C3A C 0.4711(7) -0.5282(11) 0.5683(5)
C4A C 0.5011(8) -0.5662(14) 0.5452(5)
C5A C 0.5821(8) -0.5290(11) 0.5347(4)
C6A C 0.6296(5) -0.4579(8) 0.5511(4)
C7A C 0.7394(7) -0.4452(10) 0.5117(4)
C8A C 0.8158(8) -0.3845(11) 0.4985(4)
C9A C 0.9424(8) -0.2971(11) 0.5267(4)
C10A C 0.9853(7) -0.2816(10) 0.5694(5)
C11A C 0.9929(6) -0.2265(9) 0.6428(4)
C12A C 0.9651(6) -0.1817(9) 0.6692(4)
C13A C 0.8559(6) -0.1970(8) 0.7066(3)
C14A C 0.8093(6) -0.1762(9) 0.6746(3)
C15A C 0.6940(7) -0.2311(9) 0.6333(4)
C16A C 0.6248(6) -0.3074(8) 0.6198(4)
O1G O 1.0120(4) -0.3183(6) 0.7420(2)
O2G O 0.9578(4) -0.2526(6) 0.7904(2)
O3G O 0.8015(4) -0.3075(6) 0.7964(2)
O4G O 0.7165(3) -0.4142(5) 0.7313(2)
O5G O 0.7799(4) -0.4292(6) 0.6485(2)
O6G O 0.9181(4) -0.4223(5) 0.6779(2)
C1G C 1.0666(6) -0.2481(8) 0.7559(4)
C2G C 1.1450(6) -0.2112(9) 0.7473(4)
C3G C 1.1956(7) -0.1385(11) 0.7650(5)
C4G C 1.1656(8) -0.1005(14) 0.7881(5)
C5G C 1.0846(8) -0.1377(11) 0.7986(4)
C6G C 1.0371(5) -0.2088(8) 0.7822(4)
C7G C 0.9273(7) -0.2215(10) 0.8216(4)
C8G C 0.8509(8) -0.2822(11) 0.8348(4)
C9G C 0.7243(8) -0.3696(11) 0.8066(4)
C10G C 0.6814(7) -0.3851(10) 0.7639(5)
C11G C 0.6738(6) -0.4402(9) 0.6905(4)
C12G C 0.7016(6) -0.4850(9) 0.6641(4)
C13G C 0.8108(6) -0.4697(8) 0.6267(3)
C14G C 0.8574(6) -0.4905(9) 0.6587(3)
C15G C 0.9727(7) -0.4356(9) 0.7000(4)
C16G C 1.0419(6) -0.3593(8) 0.7135(4)
O1B O 1.3484(6) 0.0031(4) 0.5913(2)
O2B O 1.4141(6) 0.1230(4) 0.5429(2)
O3B O 1.3592(6) 0.2244(4) 0.5369(2)
O4B O 1.2525(5) 0.2027(4) 0.6020(2)
O5B O 1.2375(6) 0.1243(4) 0.6848(2)
O6B O 1.2444(5) -0.0070(3) 0.6554(2)
C1B C 1.4186(8) 0.0187(6) 0.5774(4)
C2B C 1.4555(9) -0.0228(7) 0.5860(4)
C3B C 1.5282(11) -0.0007(8) 0.5683(5)
C4B C 1.5662(14) 0.0673(11) 0.5452(5)
C5B C 1.5290(11) 0.1111(7) 0.5347(4)
C6B C 1.4579(8) 0.0875(6) 0.5511(4)
C7B C 1.4452(10) 0.1846(7) 0.5117(4)
C8B C 1.3845(11) 0.2003(7) 0.4985(4)
C9B C 1.2971(11) 0.2395(7) 0.5267(4)
C10B C 1.2816(10) 0.2669(7) 0.5694(5)
C11B C 1.2265(9) 0.2194(7) 0.6428(4)
C12B C 1.1817(9) 0.1468(7) 0.6692(4)
C13B C 1.1970(8) 0.0529(6) 0.7066(3)
C14B C 1.1762(9) -0.0145(7) 0.6746(3)
C15B C 1.2311(9) -0.0749(6) 0.6333(4)
C16B C 1.3074(8) -0.0678(6) 0.6198(4)
O1H O 1.3183(6) 0.3302(4) 0.7420(2)
O2H O 1.2526(6) 0.2103(4) 0.7904(2)
O3H O 1.3075(6) 0.1089(4) 0.7964(2)
O4H O 1.4142(5) 0.1306(4) 0.7313(2)
O5H O 1.4292(6) 0.2090(4) 0.6485(2)
O6H O 1.4223(5) 0.3403(3) 0.6779(2)
C1H C 1.2481(8) 0.3146(6) 0.7559(4)
C2H C 1.2112(9) 0.3561(7) 0.7473(4)
C3H C 1.1385(11) 0.3340(8) 0.7650(5)
C4H C 1.1005(14) 0.2660(11) 0.7881(5)
C5H C 1.1377(11) 0.2222(7) 0.7986(4)
C6H C 1.2088(8) 0.2458(6) 0.7822(4)
C7H C 1.2215(10) 0.1487(7) 0.8216(4)
C8H C 1.2822(11) 0.1330(7) 0.8348(4)
C9H C 1.3696(11) 0.0938(7) 0.8066(4)
C10H C 1.3851(10) 0.0664(7) 0.7639(5)
C11H C 1.4402(9) 0.1139(7) 0.6905(4)
C12H C 1.4850(9) 0.1865(7) 0.6641(4)
C13H C 1.4697(8) 0.2804(6) 0.6267(3)
C14H C 1.4905(9) 0.3478(7) 0.6587(3)
C15H C 1.4356(9) 0.4082(6) 0.7000(4)
C16H C 1.3593(8) 0.4011(6) 0.7135(4)
Na1O Na 0.7846(2) 0.1348(2) 0.73076(13)
O1I O 1.0031(4) -0.3453(4) 0.4087(2)
O2I O 1.1230(4) -0.2911(4) 0.4571(2)
O3I O 1.2244(4) -0.1348(4) 0.4631(2)
O4I O 1.2027(4) -0.0498(3) 0.3980(2)
O5F O 1.2090(4) -0.2201(4) 0.3515(2)
O5I O 1.1243(4) -0.1132(4) 0.3152(2)
O6I O 0.9930(3) -0.2514(4) 0.3446(2)
O1J O 1.3453(4) 0.3484(6) 0.4087(2)
O2J O 1.2911(4) 0.4141(6) 0.4571(2)
O3J O 1.1348(4) 0.3592(6) 0.4631(2)
O4J O 1.0498(3) 0.2525(5) 0.3980(2)
O5J O 1.1132(4) 0.2375(6) 0.3152(2)
O5P O 1.2201(4) 0.4292(6) 0.3515(2)
O6J O 1.2514(4) 0.2444(5) 0.3446(2)
O1K O 0.6516(6) -0.0031(4) 0.4087(2)
O2K O 0.5859(6) -0.1230(4) 0.4571(2)
O3K O 0.6408(6) -0.2244(4) 0.4631(2)
O4K O 0.7475(5) -0.2027(4) 0.3980(2)
O5K O 0.7625(6) -0.1243(4) 0.3152(2)
O5Q O 0.5708(6) -0.2090(4) 0.3515(2)
O6K O 0.7556(5) 0.0070(3) 0.3446(2)
Na1G Na 0.8652(2) -0.3503(3) 0.73076(13)
Na1H Na 1.3503(3) 0.2154(2) 0.73076(13)
Pt2 Pt 0.3333 0.6667 0.6667
S2 S 0.2844(3) 0.7141(5) 0.71462(18)
N2 N 0.3951(9) 0.8861(9) 0.7189(5)
C18 C 0.3496(11) 0.8177(10) 0.7154(7)
S2A S 0.2859(5) 0.5703(6) 0.71462(18)
N2A N 0.1139(9) 0.5090(13) 0.7189(5)
C18A C 0.1823(10) 0.5319(15) 0.7154(7)
S2B S 0.4297(6) 0.7156(3) 0.71462(18)
N2B N 0.4910(13) 0.6049(9) 0.7189(5)
C18B C 0.4681(15) 0.6504(11) 0.7154(7)
S2G S 0.3808(5) 0.7630(6) 0.61871(18)
N2G N 0.5528(9) 0.8243(13) 0.6144(5)
C18G C 0.4844(10) 0.8014(15) 0.6179(7)
S2H S 0.2370(6) 0.6177(3) 0.61871(18)
N2H N 0.1757(13) 0.7284(9) 0.6144(5)
C18H C 0.1986(15) 0.6829(11) 0.6179(7)
S2O S 0.3823(3) 0.6192(5) 0.61871(18)
N2O N 0.2716(9) 0.4472(9) 0.6144(5)
C18O C 0.3171(11) 0.5156(10) 0.6179(7)
S3 S 0.6667 0.3333 0.6039(11)
N3 N 0.6667 0.3333 0.5029(5)
C19 C 0.6667 0.3333 0.5438(8)
loop_
_geom_bond_atom_site_label_1
_geom_bond_atom_site_label_2
_geom_bond_site_symmetry_1
_geom_bond_site_symmetry_2
Pt1 S1 1_555 1_555
Pt2 S2 1_555 1_555
Na1 N1 1_555 1_555
S1 C17 1_555 1_555
S2 C18 1_555 1_555
S3 C19 1_555 1_555
N1 C17 1_555 1_555
N2 C18 1_555 1_555
N3 C19 1_555 1_555
O1 Na1 1_555 1_555
O2 Na1 1_555 1_555
O3 Na1 1_555 1_555
O4 Na1 1_555 1_555
O5 Na1 1_555 1_555
O6 Na1 1_555 1_555
C1 O1 1_555 1_555
C2 C1 1_555 1_555
C3 C2 1_555 1_555
C4 C3 1_555 1_555
C5 C4 1_555 1_555
C6 O2 1_555 1_555
C7 O2 1_555 1_555
C8 O3 1_555 1_555
C9 O3 1_555 1_555
C10 O4 1_555 1_555
C11 O4 1_555 1_555
C12 O5 1_555 1_555
C13 O5 1_555 1_555
C14 O6 1_555 1_555
C15 O6 1_555 1_555
C16 O1 1_555 1_555
S1A Pt1 1_555 1_555
N1A C17A 1_555 1_555
C17A S1A 1_555 1_555
S1B Pt1 1_555 1_555
N1B C17B 1_555 1_555
C17B S1B 1_555 1_555
S1I Pt1 1_555 1_555
N1I C17I 1_555 1_555
C17I S1I 1_555 1_555
S1J Pt1 1_555 1_555
N1J C17J 1_555 1_555
C17J S1J 1_555 1_555
S1K Pt1 1_555 1_555
N1K C17K 1_555 1_555
C17K S1K 1_555 1_555
Na1A N1A 1_555 1_555
Na1B N1B 1_555 1_555
Na1I N1I 1_555 1_555
Na1J N1J 1_555 1_555
Na1K N1K 1_555 1_555
O1O C1O 1_555 1_555
O2O C6O 1_555 1_555
O3O C8O 1_555 1_555
O4O C10O 1_555 1_555
O5O Na1 1_555 1_555
O6O C14O 1_555 1_555
C1O C2O 1_555 1_555
C2O C3O 1_555 1_555
C3O C4O 1_555 1_555
C4O C5O 1_555 1_555
C5O C6O 1_555 1_555
C6O C1O 1_555 1_555
C7O O2O 1_555 1_555
C8O C7O 1_555 1_555
C9O O3O 1_555 1_555
C10O C9O 1_555 1_555
C11O O4O 1_555 1_555
C12O O5O 1_555 1_555
C13O O5O 1_555 1_555
C14O C13O 1_555 1_555
C15O O6O 1_555 1_555
C16O O1O 1_555 1_555
O1A Na1A 1_555 1_555
O2A Na1A 1_555 1_555
O3A Na1A 1_555 1_555
O4A Na1A 1_555 1_555
O5A Na1A 1_555 1_555
O6A Na1A 1_555 1_555
C1A O1A 1_555 1_555
C2A C1A 1_555 1_555
C3A C2A 1_555 1_555
C4A C3A 1_555 1_555
C5A C4A 1_555 1_555
C6A O2A 1_555 1_555
C7A O2A 1_555 1_555
C8A O3A 1_555 1_555
C9A O3A 1_555 1_555
C10A O4A 1_555 1_555
C11A O4A 1_555 1_555
C12A O5A 1_555 1_555
C13A O5A 1_555 1_555
C14A O6A 1_555 1_555
C15A O6A 1_555 1_555
C16A O1A 1_555 1_555
O1G C1G 1_555 1_555
O2G C6G 1_555 1_555
O3G C8G 1_555 1_555
O4G C10G 1_555 1_555
O5G Na1A 1_555 1_555
O6G C14G 1_555 1_555
C1G C2G 1_555 1_555
C2G C3G 1_555 1_555
C3G C4G 1_555 1_555
C4G C5G 1_555 1_555
C5G C6G 1_555 1_555
C6G C1G 1_555 1_555
C7G O2G 1_555 1_555
C8G C7G 1_555 1_555
C9G O3G 1_555 1_555
C10G C9G 1_555 1_555
C11G O4G 1_555 1_555
C12G O5G 1_555 1_555
C13G O5G 1_555 1_555
C14G C13G 1_555 1_555
C15G O6G 1_555 1_555
C16G O1G 1_555 1_555
O1B Na1B 1_555 1_555
O2B Na1B 1_555 1_555
O3B Na1B 1_555 1_555
O4B Na1B 1_555 1_555
O5B Na1B 1_555 1_555
O6B Na1B 1_555 1_555
C1B O1B 1_555 1_555
C2B C1B 1_555 1_555
C3B C2B 1_555 1_555
C4B C3B 1_555 1_555
C5B C4B 1_555 1_555
C6B O2B 1_555 1_555
C7B O2B 1_555 1_555
C8B O3B 1_555 1_555
C9B O3B 1_555 1_555
C10B O4B 1_555 1_555
C11B O4B 1_555 1_555
C12B O5B 1_555 1_555
C13B O5B 1_555 1_555
C14B O6B 1_555 1_555
C15B O6B 1_555 1_555
C16B O1B 1_555 1_555
O1H C1H 1_555 1_555
O2H C6H 1_555 1_555
O3H C8H 1_555 1_555
O4H C10H 1_555 1_555
O5H Na1B 1_555 1_555
O6H C14H 1_555 1_555
C1H C2H 1_555 1_555
C2H C3H 1_555 1_555
C3H C4H 1_555 1_555
C4H C5H 1_555 1_555
C5H C6H 1_555 1_555
C6H C1H 1_555 1_555
C7H O2H 1_555 1_555
C8H C7H 1_555 1_555
C9H O3H 1_555 1_555
C10H C9H 1_555 1_555
C11H O4H 1_555 1_555
C12H O5H 1_555 1_555
C13H O5H 1_555 1_555
C14H C13H 1_555 1_555
C15H O6H 1_555 1_555
C16H O1H 1_555 1_555
S2A Pt2 1_555 1_555
N2A C18A 1_555 1_555
C18A S2A 1_555 1_555
S2B Pt2 1_555 1_555
N2B C18B 1_555 1_555
C18B S2B 1_555 1_555
S2G Pt2 1_555 1_555
N2G C18G 1_555 1_555
C18G S2G 1_555 1_555
S2H Pt2 1_555 1_555
N2H C18H 1_555 1_555
C18H S2H 1_555 1_555
S2O Pt2 1_555 1_555
N2O C18O 1_555 1_555
C18O S2O 1_555 1_555
Na1O O5 1_555 1_555
O1I Na1I 1_555 1_555
O2I Na1I 1_555 1_555
O3I Na1I 1_555 1_555
O4I Na1I 1_555 1_555
O5F Na1I 1_555 1_555
O5I Na1I 1_555 1_555
O6I Na1I 1_555 1_555
O1J Na1J 1_555 1_555
O2J Na1J 1_555 1_555
O3J Na1J 1_555 1_555
O4J Na1J 1_555 1_555
O5J Na1J 1_555 1_555
O5P Na1J 1_555 1_555
O6J Na1J 1_555 1_555
O1K Na1K 1_555 1_555
O2K Na1K 1_555 1_555
O3K Na1K 1_555 1_555
O4K Na1K 1_555 1_555
O5K Na1K 1_555 1_555
O5Q Na1K 1_555 1_555
O6K Na1K 1_555 1_555
Na1G O5A 1_555 1_555
Na1H O5B 1_555 1_555
C1 C6 1_555 1_555
C5 C6 1_555 1_555
C7 C8 1_555 1_555
C9 C10 1_555 1_555
C11 C12 1_555 1_555
C13 C14 1_555 1_555
C15 C16 1_555 1_555
O1O Na1O 1_555 1_555
O2O Na1O 1_555 1_555
O3O Na1O 1_555 1_555
O4O Na1O 1_555 1_555
O5O Na1O 1_555 1_555
O6O Na1O 1_555 1_555
C11O C12O 1_555 1_555
C15O C16O 1_555 1_555
C1A C6A 1_555 1_555
C5A C6A 1_555 1_555
C7A C8A 1_555 1_555
C9A C10A 1_555 1_555
C11A C12A 1_555 1_555
C13A C14A 1_555 1_555
C15A C16A 1_555 1_555
O1G Na1G 1_555 1_555
O2G Na1G 1_555 1_555
O3G Na1G 1_555 1_555
O4G Na1G 1_555 1_555
O5G Na1G 1_555 1_555
O6G Na1G 1_555 1_555
C11G C12G 1_555 1_555
C15G C16G 1_555 1_555
C1B C6B 1_555 1_555
C5B C6B 1_555 1_555
C7B C8B 1_555 1_555
C9B C10B 1_555 1_555
C11B C12B 1_555 1_555
C13B C14B 1_555 1_555
C15B C16B 1_555 1_555
O1H Na1H 1_555 1_555
O2H Na1H 1_555 1_555
O3H Na1H 1_555 1_555
O4H Na1H 1_555 1_555
O5H Na1H 1_555 1_555
O6H Na1H 1_555 1_555
C11H C12H 1_555 1_555
C15H C16H 1_555 1_555

#END
