
#######################################################################
#
#                 Cambridge Crystallographic Data Centre
#                                CCDC 
#
#######################################################################
#
# If this CIF has been generated from an entry in the Cambridge 
# Structural Database, then it will include bibliographic, chemical, 
# crystal, experimental, refinement or atomic coordinate data resulting 
# from the CCDC's data processing and validation procedures.
#
#######################################################################

data_EMUWAK
_symmetry_cell_setting           triclinic
_symmetry_space_group_name_H-M   'P -1'
_symmetry_Int_Tables_number      2
_space_group_name_Hall           '-P 1'
loop_
_symmetry_equiv_pos_site_id
_symmetry_equiv_pos_as_xyz
1 x,y,z
2 -x,-y,-z
_cell_length_a                   8.502(2)
_cell_length_b                   12.178(4)
_cell_length_c                   15.118(4)
_cell_angle_alpha                86.454(5)
_cell_angle_beta                 77.734(5)
_cell_angle_gamma                85.364(5)
_cell_volume                     1522.94
loop_
_atom_site_label
_atom_site_type_symbol
_atom_site_fract_x
_atom_site_fract_y
_atom_site_fract_z
Ni1 Ni 0.56193(12) 0.59029(8) 0.73248(6)
K1 K 1.0000 0.5000 0.5000
K2 K 1.0000 0.0000 1.0000
O1 O 1.0479(8) 0.4987(6) 0.6765(4)
O2 O 1.0198(7) 0.7006(5) 0.5819(5)
O3 O 0.8968(7) 0.6983(5) 0.4207(5)
O4 O 1.1194(8) 0.0575(4) 0.8170(3)
O5 O 0.8475(8) -0.0682(4) 0.8727(4)
O6 O 0.6914(6) -0.0844(5) 1.0541(4)
S1 S 0.7620(3) 0.28799(17) 0.89614(14)
S2 S 0.7671(3) 0.48100(19) 0.99320(14)
S3 S 0.8981(3) 0.2673(2) 1.06098(16)
S4 S 0.6150(3) 0.62588(17) 0.85997(14)
S5 S 0.6146(3) 0.41597(17) 0.75294(14)
S6 S 0.3850(3) 0.89624(16) 0.56271(13)
S7 S 0.4619(3) 0.71462(17) 0.44576(13)
S8 S 0.3368(3) 0.92931(18) 0.37483(14)
S9 S 0.5630(3) 0.56271(16) 0.59289(13)
S10 S 0.4746(3) 0.76029(16) 0.72101(12)
C1 C 1.1288(13) 0.3975(10) 0.7059(7)
C2 C 1.1029(13) 0.5919(11) 0.7034(6)
C3 C 1.0008(14) 0.6933(10) 0.6775(7)
C4 C 0.9153(14) 0.7883(8) 0.5551(8)
C5 C 0.9514(12) 0.7946(8) 0.4531(7)
C6 C 1.0591(13) 0.3005(9) 0.6759(6)
C7 C 1.2908(12) 0.0647(8) 0.7927(6)
C8 C 1.0672(13) -0.0195(7) 0.7588(5)
C9 C 0.8892(13) -0.0156(7) 0.7847(6)
C10 C 0.6755(12) -0.0804(8) 0.9024(7)
C11 C 0.6493(12) -0.1500(9) 0.9877(7)
C12 C 1.3312(11) 0.1434(8) 0.8560(6)
C13 C 0.8108(10) 0.3428(6) 0.9886(5)
C14 C 0.6863(9) 0.5006(6) 0.8957(5)
C15 C 0.6827(9) 0.4107(6) 0.8508(5)
C16 C 0.3945(9) 0.8505(6) 0.4559(5)
C17 C 0.4935(9) 0.6877(6) 0.5551(5)
C18 C 0.4541(9) 0.7726(6) 0.6101(5)
O3A O 1.1032(7) 0.3017(5) 0.5793(5)
C5A C 1.0486(12) 0.2054(8) 0.5469(7)
C4A C 1.0847(14) 0.2117(8) 0.4449(8)
O2A O 0.9802(7) 0.2994(5) 0.4181(5)
C3A C 0.9992(14) 0.3067(10) 0.3225(7)
C2A C 0.8971(13) 0.4081(11) 0.2966(6)
O1A O 0.9521(8) 0.5013(6) 0.3235(4)
C1A C 0.8712(13) 0.6025(10) 0.2941(7)
C6A C 0.9409(13) 0.6995(9) 0.3241(6)
O6A O 1.3086(6) 0.0844(5) 0.9459(4)
C11A C 1.3507(12) 0.1500(9) 1.0123(7)
C10A C 1.3245(12) 0.0804(8) 1.0976(7)
O5A O 1.1525(8) 0.0682(4) 1.1273(4)
C9A C 1.1108(13) 0.0156(7) 1.2153(6)
C8A C 0.9328(13) 0.0195(7) 1.2412(5)
O4A O 0.8806(8) -0.0575(4) 1.1830(3)
C7A C 0.7092(12) -0.0647(8) 1.2073(6)
C12A C 0.6688(11) -0.1434(8) 1.1440(6)
S6A S 1.6150(3) 0.10376(16) 0.43729(13)
S7A S 1.5381(3) 0.28538(17) 0.55424(13)
S8A S 1.6632(3) 0.07069(18) 0.62517(14)
S9A S 1.4370(3) 0.43729(16) 0.40711(13)
S10A S 1.5254(3) 0.23971(16) 0.27899(12)
C16A C 1.6055(9) 0.1495(6) 0.5441(5)
C17A C 1.5065(9) 0.3123(6) 0.4449(5)
C18A C 1.5459(9) 0.2274(6) 0.3899(5)
Ni1A Ni 1.43807(12) 0.40971(8) 0.26752(6)
S1A S 1.2380(3) 0.71201(17) 0.10386(14)
S2A S 1.2329(3) 0.51900(19) 0.00680(14)
S3A S 1.1019(3) 0.7327(2) -0.06098(16)
S4A S 1.3850(3) 0.37412(17) 0.14003(14)
S5A S 1.3854(3) 0.58403(17) 0.24706(14)
C13A C 1.1892(10) 0.6572(6) 0.0114(5)
C14A C 1.3137(9) 0.4994(6) 0.1043(5)
C15A C 1.3173(9) 0.5893(6) 0.1492(5)
S3A_2 S 1.1019(3) -0.2673(2) 0.93902(16)
K2_2 K 1.0000 1.0000 0.0000
loop_
_geom_bond_atom_site_label_1
_geom_bond_atom_site_label_2
_geom_bond_site_symmetry_1
_geom_bond_site_symmetry_2
Ni1 S4 1_555 1_555
K1 O1 1_555 1_555
K2 O4 1_555 1_555
O1 C1 1_555 1_555
O2 K1 1_555 1_555
O3 K1 1_555 1_555
O4 C7 1_555 1_555
O5 K2 1_555 1_555
O6 K2 1_555 1_555
S1 C13 1_555 1_555
S2 C13 1_555 1_555
S3 K2 1_555 1_555
S4 C14 1_555 1_555
S5 Ni1 1_555 1_555
S6 C16 1_555 1_555
S7 C16 1_555 1_555
S8 C16 1_555 1_555
S9 Ni1 1_555 1_555
S10 Ni1 1_555 1_555
C1 C6 1_555 1_555
C2 O1 1_555 1_555
C3 O2 1_555 1_555
C4 O2 1_555 1_555
C5 O3 1_555 1_555
C6 O3A 1_555 1_555
C7 C12 1_555 1_555
C8 O4 1_555 1_555
C9 O5 1_555 1_555
C10 O5 1_555 1_555
C11 O6 1_555 1_555
C12 O6A 1_555 1_555
C13 S3 1_555 1_555
C14 S2 1_555 1_555
C15 S1 1_555 1_555
C17 S7 1_555 1_555
C18 S6 1_555 1_555
O3A K1 1_555 1_555
C5A O3A 1_555 1_555
C4A C5A 1_555 1_555
O2A K1 1_555 1_555
C3A O2A 1_555 1_555
C2A C3A 1_555 1_555
O1A K1 1_555 1_555
C1A O1A 1_555 1_555
C6A O3 1_555 1_555
O6A K2 1_555 1_555
C11A O6A 1_555 1_555
C10A C11A 1_555 1_555
O5A K2 1_555 1_555
C9A O5A 1_555 1_555
C8A C9A 1_555 1_555
O4A K2 1_555 1_555
C7A O4A 1_555 1_555
C12A O6 1_555 1_555
S6A C16A 1_555 1_555
S7A C16A 1_555 1_555
S8A C16A 1_555 1_555
S9A K1 1_555 1_555
S10A C18A 1_555 1_555
C17A S7A 1_555 1_555
C18A S6A 1_555 1_555
Ni1A S9A 1_555 1_555
S1A C13A 1_555 1_555
S2A C13A 1_555 1_555
S3A C13A 1_555 1_555
S4A Ni1A 1_555 1_555
S5A Ni1A 1_555 1_555
C14A S2A 1_555 1_555
C15A S1A 1_555 1_555
S3A_2 K2 1_555 1_555
K2_2 S3A 1_555 1_555
K1 S9 1_555 1_555
S5 C15 1_555 1_555
S9 C17 1_555 1_555
S10 C18 1_555 1_555
C2 C3 1_555 1_555
C4 C5 1_555 1_555
C8 C9 1_555 1_555
C10 C11 1_555 1_555
C14 C15 1_555 1_555
C17 C18 1_555 1_555
C4A O2A 1_555 1_555
C2A O1A 1_555 1_555
C1A C6A 1_555 1_555
C10A O5A 1_555 1_555
C8A O4A 1_555 1_555
C7A C12A 1_555 1_555
S9A C17A 1_555 1_555
S10A Ni1A 1_555 1_555
C17A C18A 1_555 1_555
S4A C14A 1_555 1_555
S5A C15A 1_555 1_555
C14A C15A 1_555 1_555

#END
