
#######################################################################
#
#                 Cambridge Crystallographic Data Centre
#                                CCDC 
#
#######################################################################
#
# If this CIF has been generated from an entry in the Cambridge 
# Structural Database, then it will include bibliographic, chemical, 
# crystal, experimental, refinement or atomic coordinate data resulting 
# from the CCDC's data processing and validation procedures.
#
#######################################################################

data_EMUWAL
_symmetry_cell_setting           orthorhombic
_symmetry_space_group_name_H-M   'P b c a'
_symmetry_Int_Tables_number      61
_space_group_name_Hall           '-P 2ac 2ab'
loop_
_symmetry_equiv_pos_site_id
_symmetry_equiv_pos_as_xyz
1 x,y,z
2 1/2-x,-y,1/2+z
3 -x,1/2+y,1/2-z
4 1/2+x,1/2-y,-z
5 -x,-y,-z
6 1/2+x,y,1/2-z
7 x,1/2-y,1/2+z
8 1/2-x,1/2+y,z
_cell_length_a                   9.993(5)
_cell_length_b                   20.997(10)
_cell_length_c                   22.177(11)
_cell_angle_alpha                90
_cell_angle_beta                 90
_cell_angle_gamma                90
_cell_volume                     4653.25
loop_
_atom_site_label
_atom_site_type_symbol
_atom_site_fract_x
_atom_site_fract_y
_atom_site_fract_z
Cd1 Cd 0.05300(7) 0.06236(3) 0.39032(3)
Cd2 Cd 0.24417(7) 0.32181(3) 0.37062(3)
Cd3 Cd -0.33321(7) 0.08599(3) 0.27423(3)
N1 N -0.3700(7) 0.3102(3) 0.3644(3)
N2 N -0.5521(7) 0.3127(3) 0.2976(3)
O1 O -0.2018(7) 0.0837(3) 0.3586(3)
C1 C -0.4207(9) 0.1868(4) 0.3852(4)
O2 O -0.1420(7) 0.0519(3) 0.4485(3)
N3 N -0.5028(8) 0.2167(3) 0.3452(3)
N4 N -0.1978(8) 0.3028(3) 0.4337(3)
N5 N -0.3182(7) 0.2126(3) 0.4153(3)
N6 N -0.4511(7) 0.1231(3) 0.3964(3)
C2 C -0.2272(10) 0.0734(4) 0.4136(4)
C3 C -0.4674(9) 0.2780(4) 0.3375(3)
C4 C -0.2989(8) 0.2746(4) 0.4033(3)
O3 O -0.6683(7) 0.4174(3) 0.3515(3)
C5 C -0.1698(9) 0.3706(4) 0.4285(4)
H1 H -0.1695 0.3894 0.4685
H2 H -0.2410 0.3907 0.4056
C6 C -0.6077(8) 0.2768(4) 0.2465(4)
H3 H -0.5352 0.2540 0.2270
H4 H -0.6434 0.3069 0.2175
C7 C -0.5024(10) 0.3772(4) 0.2821(4)
H5 H -0.5287 0.3876 0.2411
H6 H -0.4054 0.3776 0.2840
C8 C -0.5586(10) 0.4275(4) 0.3255(4)
C9 C -0.0350(11) 0.3848(4) 0.3976(4)
C10 C -0.3653(9) 0.0878(4) 0.4380(4)
H7 H -0.4090 0.0480 0.4481
H8 H -0.3561 0.1122 0.4749
C11 C -0.1094(10) 0.2622(4) 0.4693(4)
H9 H -0.0327 0.2872 0.4818
H10 H -0.0767 0.2282 0.4436
O4 O 0.0319(9) 0.3398(4) 0.3785(4)
O5 O -0.4919(7) 0.4783(3) 0.3302(3)
O6 O -0.7958(7) 0.2424(3) 0.3039(3)
O7 O -0.5520(7) 0.0736(4) 0.2844(3)
C12 C -0.6311(10) 0.0801(4) 0.3267(4)
C13 C -0.7159(8) 0.2297(4) 0.2621(3)
C14 C -0.5903(9) 0.1025(4) 0.3889(4)
H11 H -0.6481 0.1377 0.4000
H12 H -0.6072 0.0682 0.4171
C15 C -0.1727(10) 0.2328(4) 0.5249(4)
O8 O -0.0172(15) 0.4411(5) 0.3860(8)
O9 O -0.2655(7) 0.2595(3) 0.5526(3)
O10 O -0.1196(7) 0.1817(3) 0.5435(3)
O11 O -0.7273(6) 0.1819(3) 0.2280(3)
O12 O -0.7563(6) 0.0712(3) 0.3212(3)
O13 O 0.2009(8) 0.0013(3) 0.4439(3)
O14 O 0.0916(7) 0.1324(3) 0.4689(3)
O15 O -0.2813(10) -0.0212(3) 0.2874(4)
O16 O 0.0296(9) 0.1463(4) 0.3244(5)
Cd1G Cd -0.55300(7) 0.56236(3) 0.39032(3)
Cd1_2 Cd -0.94700(7) 0.06236(3) 0.39032(3)
Cd2_2 Cd -0.75583(7) 0.32181(3) 0.37062(3)
Cd2C Cd -0.25583(7) 0.17819(3) 0.62938(3)
Cd3E Cd -0.83321(7) 0.08599(3) 0.22577(3)
N2_2 N 0.4479(7) 0.3127(3) 0.2976(3)
O3_2 O 0.3317(7) 0.4174(3) 0.3515(3)
O5G O -0.0081(7) -0.0217(3) 0.3302(3)
O6_2 O 0.2042(7) 0.2424(3) 0.3039(3)
O9C O 0.2345(7) 0.2405(3) 0.4474(3)
O10C O 0.3804(7) 0.3183(3) 0.4565(3)
O11E O -0.2273(6) 0.1819(3) 0.2720(3)
O12_2 O 0.2437(6) 0.0712(3) 0.3212(3)
O12E O -0.2563(6) 0.0712(3) 0.1788(3)
loop_
_geom_bond_atom_site_label_1
_geom_bond_atom_site_label_2
_geom_bond_site_symmetry_1
_geom_bond_site_symmetry_2
Cd1 O2 1_555 1_555
Cd2 O4 1_555 1_555
Cd3 O1 1_555 1_555
N1 C3 1_555 1_555
N2 C3 1_555 1_555
O1 C2 1_555 1_555
C1 N3 1_555 1_555
O2 C2 1_555 1_555
N3 C3 1_555 1_555
N4 C4 1_555 1_555
N5 C1 1_555 1_555
N6 C1 1_555 1_555
C2 C10 1_555 1_555
C4 N1 1_555 1_555
O3 C8 1_555 1_555
C5 N4 1_555 1_555
H1 C5 1_555 1_555
H2 C5 1_555 1_555
C6 N2 1_555 1_555
H3 C6 1_555 1_555
H4 C6 1_555 1_555
C7 N2 1_555 1_555
H5 C7 1_555 1_555
H6 C7 1_555 1_555
C8 C7 1_555 1_555
C9 C5 1_555 1_555
C10 N6 1_555 1_555
H7 C10 1_555 1_555
H8 C10 1_555 1_555
C11 N4 1_555 1_555
H9 C11 1_555 1_555
H10 C11 1_555 1_555
O4 C9 1_555 1_555
O5 C8 1_555 1_555
O6 C13 1_555 1_555
O7 Cd3 1_555 1_555
C12 O7 1_555 1_555
C13 C6 1_555 1_555
C14 N6 1_555 1_555
H11 C14 1_555 1_555
H12 C14 1_555 1_555
C15 C11 1_555 1_555
O8 C9 1_555 1_555
O9 C15 1_555 1_555
O10 C15 1_555 1_555
O11 C13 1_555 1_555
O12 C12 1_555 1_555
O13 Cd1 1_555 1_555
O14 Cd1 1_555 1_555
O15 Cd3 1_555 1_555
O16 Cd1 1_555 1_555
Cd1G O5 1_555 1_555
Cd1_2 O12 1_555 1_555
Cd2_2 N2 1_555 1_555
Cd2C O9 1_555 1_555
Cd3E O11 1_555 1_555
N2_2 Cd2 1_555 1_555
O3_2 Cd2 1_555 1_555
O5G Cd1 1_555 1_555
O6_2 Cd2 1_555 1_555
O9C Cd2 1_555 1_555
O10C Cd2 1_555 1_555
O11E Cd3 1_555 1_555
O12_2 Cd1 1_555 1_555
O12E Cd3 1_555 1_555
N5 C4 1_555 1_555
O3 Cd2_2 1_555 1_555
O6 Cd2_2 1_555 1_555
C12 C14 1_555 1_555
O10 Cd2C 1_555 1_555
O12 Cd3E 1_555 1_555

#END
