
#######################################################################
#
#                 Cambridge Crystallographic Data Centre
#                                CCDC 
#
#######################################################################
#
# If this CIF has been generated from an entry in the Cambridge 
# Structural Database, then it will include bibliographic, chemical, 
# crystal, experimental, refinement or atomic coordinate data resulting 
# from the CCDC's data processing and validation procedures.
#
#######################################################################

data_EMUWIT
_symmetry_cell_setting           monoclinic
_symmetry_space_group_name_H-M   'C c'
_symmetry_Int_Tables_number      9
_space_group_name_Hall           'C -2yc'
loop_
_symmetry_equiv_pos_site_id
_symmetry_equiv_pos_as_xyz
1 x,y,z
2 x,-y,1/2+z
3 1/2+x,1/2+y,z
4 1/2+x,1/2-y,1/2+z
_cell_length_a                   20.063(8)
_cell_length_b                   12.640(5)
_cell_length_c                   21.168(8)
_cell_angle_alpha                90
_cell_angle_beta                 90.742(7)
_cell_angle_gamma                90
_cell_volume                     5367.68
loop_
_atom_site_label
_atom_site_type_symbol
_atom_site_fract_x
_atom_site_fract_y
_atom_site_fract_z
Cu1 Cu 0.11116(9) 0.40102(14) 0.05328(9)
Cu2 Cu 0.34029(8) -0.16880(12) 0.18315(7)
Cu3 Cu 0.30974(8) -0.31218(12) -0.02288(7)
Cu4 Cu 0.04544(9) 0.61370(14) 0.12455(8)
Na1 Na -0.0630(5) 0.6510(7) -0.1979(4)
C1 C 0.2238(7) 0.2582(9) 0.0836(6)
C2 C 0.1827(6) 0.1136(8) 0.1269(6)
C3 C 0.2050(7) 0.1162(10) 0.0231(6)
C4 C 0.2434(8) 0.4155(10) 0.1475(7)
H1 H 0.2841 0.4569 0.1496
H2 H 0.2463 0.3623 0.1805
C5 C 0.1850(10) 0.4886(13) 0.1623(7)
C6 C 0.2757(8) 0.4108(10) 0.0339(7)
H3 H 0.2944 0.3552 0.0080
H4 H 0.3123 0.4539 0.0496
C7 C 0.2295(8) 0.4803(12) -0.0078(7)
C8 C 0.1556(8) 0.1113(12) 0.2409(7)
H5 H 0.1306 0.0663 0.2692
H6 H 0.1312 0.1772 0.2363
C9 C 0.2236(9) 0.1352(13) 0.2716(7)
C10 C 0.1450(7) -0.0511(8) 0.1707(7)
H7 H 0.1129 -0.0587 0.1363
H8 H 0.1247 -0.0788 0.2086
C11 C 0.2040(7) -0.1150(10) 0.1564(6)
C12 C 0.2294(9) 0.1145(10) -0.0888(7)
H9 H 0.2670 0.0750 -0.1048
H10 H 0.2449 0.1848 -0.0776
C13 C 0.1772(7) 0.1230(11) -0.1394(6)
C14 C 0.1873(7) -0.0468(10) -0.0349(6)
H11 H 0.1688 -0.0624 -0.0764
H12 H 0.1528 -0.0604 -0.0043
C15 C 0.2433(7) -0.1192(10) -0.0224(6)
C16 C -0.0677(7) 0.7614(9) 0.0892(7)
C17 C -0.0508(6) 0.9073(8) 0.1465(6)
C18 C -0.0271(7) 0.9082(9) 0.0435(5)
C19 C -0.1137(7) 0.6038(10) 0.1381(7)
H13 H -0.1505 0.5629 0.1208
H14 H -0.1327 0.6588 0.1642
C20 C -0.0723(8) 0.5302(10) 0.1816(6)
C21 C -0.0843(8) 0.6006(10) 0.0259(7)
H15 H -0.0847 0.6531 -0.0075
H16 H -0.1261 0.5622 0.0234
C22 C -0.0289(7) 0.5256(12) 0.0149(6)
C23 C -0.0773(7) 0.9083(11) 0.2588(5)
H17 H -0.1019 0.8453 0.2467
H18 H -0.1085 0.9562 0.2784
C24 C -0.0283(9) 0.8782(13) 0.3059(6)
C25 C -0.0358(8) 1.0712(9) 0.2068(6)
H19 H 0.0023 1.0846 0.1802
H20 H -0.0226 1.0867 0.2501
C26 C -0.0929(7) 1.1463(10) 0.1871(6)
C27 C 0.0015(9) 0.9027(11) -0.0678(7)
H21 H 0.0291 0.9458 -0.0950
H22 H 0.0255 0.8373 -0.0598
C28 C -0.0591(10) 0.8776(11) -0.1018(8)
C29 C 0.0111(7) 1.0718(10) -0.0018(6)
H23 H 0.0302 1.0955 -0.0412
H24 H 0.0440 1.0822 0.0316
C30 C -0.0535(7) 1.1380(10) 0.0127(6)
N1 N 0.2039(7) 0.2110(8) 0.1370(6)
N2 N 0.2228(6) 0.2154(7) 0.0262(5)
N3 N 0.1816(6) 0.0578(8) 0.0738(5)
N4 N 0.2414(7) 0.3623(9) 0.0880(7)
N5 N 0.2042(7) 0.0619(9) -0.0324(5)
N6 N 0.1588(6) 0.0604(8) 0.1799(5)
N7 N -0.0716(7) 0.8067(8) 0.1458(5)
N8 N -0.0484(5) 0.8047(8) 0.0361(5)
N9 N -0.0279(7) 0.9609(9) 0.0974(6)
N10 N -0.0805(7) 0.6545(8) 0.0862(5)
N11 N -0.0540(6) 0.9576(9) 0.2020(5)
N12 N -0.0063(6) 0.9594(8) -0.0064(5)
O1 O 0.1923(6) 0.5498(11) 0.2067(6)
O3 O 0.1334(6) 0.4824(9) 0.1275(6)
O5 O 0.1686(7) 0.4830(9) -0.0009(6)
O7 O 0.2586(5) 0.5342(8) -0.0500(5)
O9 O 0.2256(9) 0.2021(13) 0.3132(7)
O11 O 0.2737(6) 0.0749(9) 0.2592(6)
O12 O 0.2618(5) -0.0804(7) 0.1752(4)
O13 O 0.1985(6) -0.1993(8) 0.1246(5)
O14 O 0.1145(6) 0.1136(10) -0.1238(5)
O15 O 0.1925(6) 0.1397(11) -0.1940(5)
O16 O 0.2974(6) -0.0852(8) -0.0013(5)
O17 O 0.2342(5) -0.2197(7) -0.0339(5)
O18 O -0.1006(6) 0.4714(8) 0.2194(5)
O19 O -0.0087(6) 0.5293(9) 0.1777(5)
O20 O 0.0258(6) 0.5273(8) 0.0499(6)
O21 O -0.0315(7) 0.4610(10) -0.0298(6)
O22 O 0.0311(5) 0.9060(9) 0.2941(5)
O23 O -0.0441(6) 0.8262(10) 0.3517(5)
O24 O -0.1428(6) 1.1103(8) 0.1615(5)
O25 O -0.0803(6) 1.2428(7) 0.1986(5)
O26 O -0.0629(8) 0.8076(10) -0.1413(6)
O27 O -0.1134(6) 0.9357(9) -0.0907(5)
O28 O -0.0465(5) 1.2209(7) 0.0434(5)
O29 O -0.1068(5) 1.1046(7) -0.0130(4)
O30 O 0.0640(6) 0.2972(9) 0.1042(6)
O31 O 0.0747(8) 0.3283(9) -0.0226(6)
O32 O 0.3706(5) -0.1413(7) 0.0966(5)
O33 O 0.3128(6) -0.2038(9) 0.2720(5)
O34 O 0.3365(7) -0.2765(10) -0.1095(5)
O35 O 0.2815(6) -0.3360(7) 0.0655(5)
O36 O 0.0894(7) 0.7225(9) 0.0751(5)
O37 O 0.0843(6) 0.6828(9) 0.2011(5)
O38 O -0.1117(13) 0.4974(17) -0.1404(8)
O40 O 0.0307(17) 0.586(3) -0.1493(18)
Cu2C Cu -0.15971(8) 0.66880(12) -0.31685(7)
Cu2B Cu -0.15971(8) 0.33120(12) 0.18315(7)
Cu2B_2 Cu -0.15971(8) 1.33120(12) 0.18315(7)
Cu3_2 Cu 0.30974(8) 0.68782(12) -0.02288(7)
Cu3B Cu -0.19026(8) 1.18782(12) -0.02288(7)
Na1C Na 0.4370(5) -0.1510(7) 0.3021(4)
Na1A Na -0.0630(5) 0.3490(7) 0.3021(4)
Na1A_2 Na -0.0630(5) 1.3490(7) 0.3021(4)
O7_2 O 0.2586(5) -0.4658(8) -0.0500(5)
O18B O 0.3994(6) -0.0286(8) 0.2194(5)
O18A O -0.1006(6) 0.5286(8) -0.2806(5)
O25B O 0.4197(6) -0.2572(7) 0.1986(5)
O25A O -0.0803(6) 0.7572(7) -0.3014(5)
O29B O 0.3932(5) -0.3954(7) -0.0130(4)
O33C O -0.1872(6) 0.7038(9) -0.2280(5)
O2 O 0.1137(7) 0.6709(11) -0.0472(6)
O4 O 0.0232(12) 0.6398(15) 0.3153(8)
O6 O 0.1472(12) 0.3662(17) -0.1306(9)
O8 O -0.2145(9) 0.0920(12) 0.3034(8)
O10 O 0.1697(18) 0.591(2) -0.1735(16)
O39 O 0.0504(12) 0.6472(18) -0.2716(12)
loop_
_geom_bond_atom_site_label_1
_geom_bond_atom_site_label_2
_geom_bond_site_symmetry_1
_geom_bond_site_symmetry_2
Cu1 O3 1_555 1_555
Cu2 O12 1_555 1_555
Cu3 O17 1_555 1_555
Cu4 O3 1_555 1_555
Na1 O26 1_555 1_555
C1 N1 1_555 1_555
C2 N1 1_555 1_555
C3 N2 1_555 1_555
C4 H1 1_555 1_555
H2 C4 1_555 1_555
C5 C4 1_555 1_555
C6 H3 1_555 1_555
H4 C6 1_555 1_555
C7 C6 1_555 1_555
C8 H5 1_555 1_555
H6 C8 1_555 1_555
C9 C8 1_555 1_555
C10 H7 1_555 1_555
H8 C10 1_555 1_555
C11 C10 1_555 1_555
C12 H9 1_555 1_555
H10 C12 1_555 1_555
C13 C12 1_555 1_555
C14 H11 1_555 1_555
H12 C14 1_555 1_555
C15 C14 1_555 1_555
C16 N7 1_555 1_555
C17 N7 1_555 1_555
C18 N8 1_555 1_555
C19 H13 1_555 1_555
H14 C19 1_555 1_555
C20 C19 1_555 1_555
C21 H15 1_555 1_555
H16 C21 1_555 1_555
C22 C21 1_555 1_555
C23 H17 1_555 1_555
H18 C23 1_555 1_555
C24 C23 1_555 1_555
C25 H19 1_555 1_555
H20 C25 1_555 1_555
C26 C25 1_555 1_555
C27 H21 1_555 1_555
H22 C27 1_555 1_555
C28 C27 1_555 1_555
C29 H23 1_555 1_555
H24 C29 1_555 1_555
C30 C29 1_555 1_555
N2 C1 1_555 1_555
N3 C2 1_555 1_555
N4 C1 1_555 1_555
N5 C3 1_555 1_555
N6 C2 1_555 1_555
N8 C16 1_555 1_555
N9 C17 1_555 1_555
N10 C16 1_555 1_555
N11 C17 1_555 1_555
N12 C18 1_555 1_555
O1 C5 1_555 1_555
O3 C5 1_555 1_555
O5 Cu1 1_555 1_555
O7 C7 1_555 1_555
O9 C9 1_555 1_555
O11 C9 1_555 1_555
O12 C11 1_555 1_555
O13 C11 1_555 1_555
O14 C13 1_555 1_555
O15 C13 1_555 1_555
O16 C15 1_555 1_555
O17 C15 1_555 1_555
O18 C20 1_555 1_555
O19 Cu4 1_555 1_555
O20 Cu1 1_555 1_555
O21 C22 1_555 1_555
O22 C24 1_555 1_555
O23 C24 1_555 1_555
O24 C26 1_555 1_555
O25 C26 1_555 1_555
O26 C28 1_555 1_555
O27 C28 1_555 1_555
O28 C30 1_555 1_555
O29 C30 1_555 1_555
O30 Cu1 1_555 1_555
O31 Cu1 1_555 1_555
O32 Cu2 1_555 1_555
O33 Cu2 1_555 1_555
O34 Cu3 1_555 1_555
O35 Cu3 1_555 1_555
O36 Cu4 1_555 1_555
O37 Cu4 1_555 1_555
O38 Na1 1_555 1_555
O40 Na1 1_555 1_555
Cu2C O18A 1_555 1_555
Cu2B O18 1_555 1_555
Cu2B_2 O25 1_555 1_555
Cu3_2 O7 1_555 1_555
Cu3B O29 1_555 1_555
Na1C O33 1_555 1_555
Na1A O18 1_555 1_555
Na1A_2 O25 1_555 1_555
O7_2 Cu3 1_555 1_555
O18B Cu2 1_555 1_555
O18A Na1 1_555 1_555
O25B Cu2 1_555 1_555
O25A Na1 1_555 1_555
O29B Cu3 1_555 1_555
O33C Na1 1_555 1_555
Cu4 O20 1_555 1_555
C3 N3 1_555 1_555
C4 N4 1_555 1_555
C6 N4 1_555 1_555
C7 O5 1_555 1_555
C8 N6 1_555 1_555
C10 N6 1_555 1_555
C12 N5 1_555 1_555
C14 N5 1_555 1_555
C18 N9 1_555 1_555
C19 N10 1_555 1_555
C20 O19 1_555 1_555
C21 N10 1_555 1_555
C22 O20 1_555 1_555
C23 N11 1_555 1_555
C25 N11 1_555 1_555
C27 N12 1_555 1_555
C29 N12 1_555 1_555
Cu2C O25A 1_555 1_555
Cu2C O33C 1_555 1_555
Na1C O18B 1_555 1_555
Na1C O25B 1_555 1_555

#END
