
#######################################################################
#
#                 Cambridge Crystallographic Data Centre
#                                CCDC 
#
#######################################################################
#
# If this CIF has been generated from an entry in the Cambridge 
# Structural Database, then it will include bibliographic, chemical, 
# crystal, experimental, refinement or atomic coordinate data resulting 
# from the CCDC's data processing and validation procedures.
#
#######################################################################

data_ENAFOP
_symmetry_cell_setting           triclinic
_symmetry_space_group_name_H-M   'P -1'
_symmetry_Int_Tables_number      2
_space_group_name_Hall           '-P 1'
loop_
_symmetry_equiv_pos_site_id
_symmetry_equiv_pos_as_xyz
1 x,y,z
2 -x,-y,-z
_cell_length_a                   18.5386(2)
_cell_length_b                   18.6236(7)
_cell_length_c                   27.2733(6)
_cell_angle_alpha                92.986(2)
_cell_angle_beta                 107.8713(7)
_cell_angle_gamma                107.624(3)
_cell_volume                     8431.42
loop_
_atom_site_label
_atom_site_type_symbol
_atom_site_fract_x
_atom_site_fract_y
_atom_site_fract_z
Gd3 Gd 0.87630(2) 0.21949(2) 0.893691(13)
O17 O 0.8693(3) 0.1309(3) 0.8252(2)
C41 C 0.8210(5) 0.0633(5) 0.8104(3)
O18 O 0.8190(4) 0.0198(4) 0.7726(2)
C42 C 0.7686(5) 0.0331(5) 0.8406(3)
H33 H 0.7169 -0.0029 0.8164
H34 H 0.7938 0.0038 0.8656
N7 N 0.7515(4) 0.0905(4) 0.8696(2)
C43 C 0.7394(5) 0.0675(5) 0.9183(3)
H35 H 0.7752 0.0385 0.9337
H36 H 0.6831 0.0340 0.9106
C44 C 0.7578(4) 0.1383(5) 0.9570(3)
O19 O 0.7953(3) 0.2029(3) 0.94793(19)
O20 O 0.7378(3) 0.1301(3) 0.99684(19)
C45 C 0.6796(4) 0.1037(5) 0.8370(3)
H37 H 0.6631 0.1364 0.8582
H38 H 0.6350 0.0544 0.8233
C46 C 0.6957(5) 0.1419(5) 0.7924(3)
C47 C 0.6516(5) 0.1082(5) 0.7402(3)
H39 H 0.6092 0.0607 0.7323
C48 C 0.6697(5) 0.1437(5) 0.7009(3)
C49 C 0.7314(6) 0.2125(6) 0.7166(3)
H40 H 0.7461 0.2390 0.6904
C50 C 0.7735(7) 0.2456(6) 0.7681(4)
N8 N 0.7548(4) 0.2068(4) 0.8065(2)
C51 C 0.8259(6) 0.3224(6) 0.7877(4)
H41 H 0.7982 0.3518 0.8018
H42 H 0.8404 0.3467 0.7591
N9 N 0.9030(4) 0.3231(4) 0.8314(3)
C52 C 0.9367(7) 0.3971(6) 0.8637(4)
H43 H 0.9328 0.4373 0.8417
H44 H 0.9941 0.4073 0.8839
C53 C 0.8879(6) 0.3973(6) 0.9019(3)
O21 O 0.8558(3) 0.3370(3) 0.91403(19)
O22 O 0.8959(5) 0.4628(4) 0.9224(2)
O23 O 1.0061(3) 0.2605(4) 0.8859(2)
O24 O 1.0891(6) 0.3031(6) 0.8411(5)
C54 C 1.0221(6) 0.2893(6) 0.8480(5)
C55 C 0.9536(6) 0.3062(6) 0.8048(4)
H45 H 0.9764 0.3503 0.7890
H46 H 0.9226 0.2613 0.7770
C56 C 0.6276(6) 0.1107(6) 0.6460(3)
C57 C 0.5925(6) 0.0786(6) 0.6035(3)
C58 C 0.5443(6) 0.0384(6) 0.5511(3)
C59 C 0.4992(8) -0.0341(8) 0.5409(4)
H47 H 0.4966 -0.0607 0.5694
C60 C 0.5446(9) 0.0736(8) 0.5091(5)
H48 H 0.5754 0.1261 0.5140
Gd4 Gd 1.11139(2) 0.24585(2) 1.120515(14)
O25 O 1.1155(4) 0.3407(4) 1.1834(2)
C61 C 1.1594(6) 0.4142(5) 1.1904(3)
O26 O 1.1623(5) 0.4634(4) 1.2241(3)
C62 C 1.2086(6) 0.4380(6) 1.1547(4)
H49 H 1.1789 0.4601 1.1263
H50 H 1.2601 0.4783 1.1749
N10 N 1.2255(4) 0.3763(4) 1.1320(3)
C63 C 1.2303(6) 0.3835(7) 1.0771(4)
H51 H 1.1937 0.4100 1.0585
H52 H 1.2858 0.4134 1.0795
C64 C 1.2062(6) 0.3046(8) 1.0481(4)
O27 O 1.2074(8) 0.3042(7) 1.0020(4)
O28 O 1.1876(4) 0.2497(5) 1.0663(3)
C65 C 1.3050(5) 0.3752(6) 1.1675(4)
H53 H 1.3436 0.4279 1.1794
H54 H 1.3273 0.3456 1.1486
C66 C 1.2927(5) 0.3394(5) 1.2134(3)
C67 C 1.3391(6) 0.3802(6) 1.2631(4)
H55 H 1.3775 0.4297 1.2687
C68 C 1.3252(5) 0.3425(6) 1.3049(4)
C69 C 1.2676(6) 0.2736(7) 1.2965(4)
H56 H 1.2561 0.2515 1.3250
C70 C 1.2241(5) 0.2344(5) 1.2442(3)
N11 N 1.2380(4) 0.2702(4) 1.2033(2)
C71 C 1.1660(7) 0.1611(7) 1.2309(4)
H57 H 1.1586 0.1431 1.2631
H58 H 1.1860 0.1256 1.2148
N12 N 1.0867(5) 0.1586(4) 1.1939(3)
C72 C 1.0412(5) 0.1930(6) 1.2199(4)
H59 H 1.0143 0.1556 1.2387
H60 H 1.0789 0.2387 1.2456
C73 C 0.9807(5) 0.2143(6) 1.1796(3)
O29 O 0.9810(3) 0.2099(4) 1.1309(2)
O30 O 0.9285(4) 0.2341(4) 1.1937(3)
O31 O 1.1062(5) 0.1135(4) 1.1042(3)
O32 O 1.0435(7) -0.0065(5) 1.1056(5)
C74 C 1.0634(8) 0.0603(7) 1.1268(5)
C75 C 1.0393(7) 0.0823(6) 1.1695(5)
H61 H 0.9818 0.0779 1.1561
H62 H 1.0457 0.0474 1.1955
C76 C 1.3690(8) 0.3843(9) 1.3564(4)
C77 C 1.4067(8) 0.4189(9) 1.4003(4)
C78 C 1.4543(8) 0.4630(10) 1.4515(5)
C79 C 1.5302(15) 0.4819(17) 1.4659(9)
H63 H 1.5532 0.4699 1.4413
C80 C 1.4170(16) 0.4801(17) 1.4835(9)
H64 H 1.3603 0.4678 1.4731
C82 C 1.0098(4) 0.2671(5) 1.0241(3)
O37 O 1.0531(3) 0.3214(3) 1.0634(2)
O38 O 0.9671(3) 0.2820(3) 0.98214(18)
O39 O 1.0135(4) 0.1988(4) 1.0301(2)
O43 O 0.9247(3) 0.1246(3) 0.9371(2)
H72 H 0.9540 0.1437 0.9681
H73 H 0.9340 0.0877 0.9238
Gd3A Gd 0.12370(2) -0.21949(2) 0.106309(13)
O17A O 0.1307(3) -0.1309(3) 0.1748(2)
C41A C 0.1790(5) -0.0633(5) 0.1896(3)
O18A O 0.1810(4) -0.0198(4) 0.2274(2)
C42A C 0.2314(5) -0.0331(5) 0.1594(3)
H33A H 0.2831 0.0029 0.1836
H34A H 0.2062 -0.0038 0.1344
N7A N 0.2485(4) -0.0905(4) 0.1304(2)
C43A C 0.2606(5) -0.0675(5) 0.0817(3)
H35A H 0.2248 -0.0385 0.0663
H36A H 0.3169 -0.0340 0.0894
C44A C 0.2422(4) -0.1383(5) 0.0430(3)
O19A O 0.2047(3) -0.2029(3) 0.05207(19)
O20A O 0.2622(3) -0.1301(3) 0.00316(19)
C45A C 0.3204(4) -0.1037(5) 0.1630(3)
H37A H 0.3369 -0.1364 0.1418
H38A H 0.3650 -0.0544 0.1767
C46A C 0.3043(5) -0.1419(5) 0.2076(3)
C47A C 0.3484(5) -0.1082(5) 0.2598(3)
H39A H 0.3908 -0.0607 0.2677
C48A C 0.3303(5) -0.1437(5) 0.2991(3)
C49A C 0.2686(6) -0.2125(6) 0.2834(3)
H40A H 0.2539 -0.2390 0.3096
C50A C 0.2265(7) -0.2456(6) 0.2319(4)
N8A N 0.2452(4) -0.2068(4) 0.1935(2)
C51A C 0.1741(6) -0.3224(6) 0.2123(4)
H41A H 0.2018 -0.3518 0.1982
H42A H 0.1596 -0.3467 0.2409
N9A N 0.0970(4) -0.3231(4) 0.1686(3)
C52A C 0.0633(7) -0.3971(6) 0.1363(4)
H43A H 0.0672 -0.4373 0.1583
H44A H 0.0059 -0.4073 0.1161
C53A C 0.1121(6) -0.3973(6) 0.0981(3)
O21A O 0.1442(3) -0.3370(3) 0.08597(19)
O22A O 0.1041(5) -0.4628(4) 0.0776(2)
O23A O -0.0061(3) -0.2605(4) 0.1141(2)
O24A O -0.0891(6) -0.3031(6) 0.1589(5)
C54A C -0.0221(6) -0.2893(6) 0.1520(5)
C55A C 0.0464(6) -0.3062(6) 0.1952(4)
H45A H 0.0236 -0.3503 0.2110
H46A H 0.0774 -0.2613 0.2230
C56A C 0.3724(6) -0.1107(6) 0.3540(3)
C57A C 0.4075(6) -0.0786(6) 0.3965(3)
C58A C 0.4557(6) -0.0384(6) 0.4489(3)
C59A C 0.5008(8) 0.0341(8) 0.4591(4)
H47A H 0.5034 0.0607 0.4306
C60A C 0.4554(9) -0.0736(8) 0.4909(5)
H48A H 0.4246 -0.1261 0.4860
Gd4A Gd -0.11139(2) -0.24585(2) -0.120515(14)
Gd4A_2 Gd 1.88861(2) 0.75415(2) 1.879485(14)
O25A O 1.8845(4) 0.6593(4) 1.8166(2)
O25A_2 O -0.1155(4) -0.3407(4) -0.1834(2)
C61A C 1.8406(6) 0.5858(5) 1.8096(3)
O26A O 1.8377(5) 0.5366(4) 1.7759(3)
C62A C 1.7914(6) 0.5620(6) 1.8453(4)
H49A H 1.8211 0.5399 1.8737
H50A H 1.7399 0.5217 1.8251
N10A N 1.7745(4) 0.6237(4) 1.8680(3)
N10A_2 N -0.2255(4) -0.3763(4) -0.1320(3)
C63A C 1.7697(6) 0.6165(7) 1.9229(4)
H51A H 1.8063 0.5900 1.9415
H52A H 1.7142 0.5866 1.9205
C64A C 1.7938(6) 0.6954(8) 1.9519(4)
O27A O 1.7926(8) 0.6958(7) 1.9980(4)
O28A O 1.8124(4) 0.7503(5) 1.9337(3)
O28A_2 O -0.1876(4) -0.2497(5) -0.0663(3)
C65A C 1.6950(5) 0.6248(6) 1.8325(4)
H53A H 1.6564 0.5721 1.8206
H54A H 1.6727 0.6544 1.8514
C66A C 1.7073(5) 0.6606(5) 1.7866(3)
C67A C 1.6609(6) 0.6198(6) 1.7369(4)
H55A H 1.6225 0.5703 1.7313
C68A C 1.6748(5) 0.6575(6) 1.6951(4)
C69A C 1.7324(6) 0.7264(7) 1.7035(4)
H56A H 1.7439 0.7485 1.6750
C70A C 1.7759(5) 0.7656(5) 1.7558(3)
N11A N 1.7620(4) 0.7298(4) 1.7967(2)
N11A_2 N -0.2380(4) -0.2702(4) -0.2033(2)
C71A C 1.8340(7) 0.8389(7) 1.7691(4)
H57A H 1.8414 0.8569 1.7369
H58A H 1.8140 0.8744 1.7852
N12A N 1.9133(5) 0.8414(4) 1.8061(3)
N12A_2 N -0.0867(5) -0.1586(4) -0.1939(3)
C72A C 1.9588(5) 0.8070(6) 1.7801(4)
H59A H 1.9857 0.8444 1.7613
H60A H 1.9211 0.7613 1.7544
C73A C 2.0193(5) 0.7857(6) 1.8204(3)
O29A O 2.0190(3) 0.7901(4) 1.8691(2)
O29A_2 O 0.0190(3) -0.2099(4) -0.1309(2)
O30A O 2.0715(4) 0.7659(4) 1.8063(3)
O31A O 1.8938(5) 0.8865(4) 1.8958(3)
O31A_2 O -0.1062(5) -0.1135(4) -0.1042(3)
O32A O 1.9565(7) 1.0065(5) 1.8944(5)
C74A C 1.9366(8) 0.9397(7) 1.8732(5)
C75A C 1.9607(7) 0.9177(6) 1.8305(5)
H61A H 2.0182 0.9221 1.8439
H62A H 1.9543 0.9526 1.8045
C76A C 1.6310(8) 0.6157(9) 1.6436(4)
C77A C 1.5933(8) 0.5811(9) 1.5997(4)
C78A C 1.5457(8) 0.5370(10) 1.5485(5)
C79A C 1.4698(15) 0.5181(17) 1.5341(9)
H63A H 1.4468 0.5301 1.5587
C80A C 1.5830(16) 0.5199(17) 1.5165(9)
H64A H 1.6397 0.5322 1.5269
C82A C -0.0098(4) -0.2671(5) -0.0241(3)
O37A O -0.0531(3) -0.3214(3) -0.0634(2)
O38A O 0.0329(3) -0.2820(3) 0.01786(18)
O39A O -0.0135(4) -0.1988(4) -0.0301(2)
O43A O 0.0753(3) -0.1246(3) 0.0629(2)
H72A H 0.0460 -0.1437 0.0319
H73A H 0.0660 -0.0877 0.0762
Na1 Na 0.63792(16) 0.17586(16) 0.00540(10)
Na2 Na 0.86473(17) 0.32655(16) 1.00293(10)
Na3 Na 0.82509(19) 0.2823(3) 0.14436(12)
Na4 Na 0.8182(4) 0.5019(4) 1.0516(3)
Na5 Na 0.7411(5) 0.0226(5) 1.0473(3)
Na6 Na 0.8297(5) 0.7845(5) 1.1457(4)
Na7 Na 0.6684(4) 0.5813(4) 1.0577(3)
Na8 Na 0.9763(6) 0.3093(7) 1.2922(4)
O40 O 0.8623(3) 0.2510(3) 0.07081(19)
H67 H 0.8253 0.2148 0.0491
H68 H 0.8997 0.2377 0.0899
O41 O 0.7111(3) 0.2804(3) 0.07361(19)
H69 H 0.6939 0.3028 0.0926
H70 H 0.7256 0.3076 0.0523
O42 O 0.6031(4) 0.1195(4) 0.0734(2)
H71 H 0.5637 0.1300 0.0767
O44 O 0.9697(3) 0.4153(3) 1.0710(2)
H74 H 1.0014 0.4450 1.0587
O45 O 0.9259(6) 0.5562(4) 1.0158(3)
H75 H 0.9171 0.5284 0.9878
O46 O 0.9142(5) 0.4045(5) 0.1560(3)
H76 H 0.8888 0.4355 0.1515
H77 H 0.9304 0.4078 0.1304
O47 O 0.6671(6) 0.4550(7) 1.0560(5)
O48 O 0.7480(5) 0.1654(6) 0.1559(4)
H78 H 0.7037 0.1496 0.1313
O49 O 0.6011(6) -0.0481(5) 1.0121(4)
H79 H 0.5798 -0.0309 0.9856
O50 O 1.0348(6) 0.4439(5) 1.2545(4)
H80 H 1.0751 0.4435 1.2466
H81 H 0.9990 0.4321 1.2249
O51 O 0.7932(6) 0.6093(6) 1.0661(5)
H82 H 0.8281 0.6349 1.0937
H83 H 0.7916 0.6374 1.0432
O52 O 0.6931(7) 0.7183(7) 1.0627(5)
H84 H 0.6739 0.7454 1.0768
O53 O 0.7379(8) 0.6976(8) 1.1820(6)
O54 O 0.7721(8) -0.0806(8) 1.0626(6)
H85 H 0.7667 -0.0955 1.0902
H86 H 0.7498 -0.1184 1.0386
O55 O 0.8228(7) 0.4945(7) 1.1403(5)
O56 O 0.8889(5) 0.0676(5) 1.0487(4)
H87 H 0.9240 0.1044 1.0435
O57 O 0.8380(6) 0.3291(6) 1.2950(4)
H88 H 0.8128 0.3375 1.2658
O58 O 0.8266(9) 0.0673(9) 1.1425(6)
H89 H 0.8117 0.0998 1.1554
O59 O 0.6134(9) 0.5821(9) 0.9748(7)
O60 O 1.0479(11) 0.2646(11) 1.3796(8)
O61 O 0.9411(16) 0.8825(16) 1.1839(12)
H90 H 0.9652 0.8747 1.2136
Gd1 Gd 0.51076(2) 0.23482(2) 0.898612(12)
O1 O 0.6488(3) 0.2773(3) 0.95356(18)
C1 C 0.6974(4) 0.3459(5) 0.9628(3)
O2 O 0.7598(3) 0.3717(3) 1.00192(18)
C2 C 0.6762(5) 0.3987(5) 0.9260(3)
H1 H 0.7244 0.4291 0.9185
H2 H 0.6562 0.4343 0.9419
N1 N 0.6113(4) 0.3517(4) 0.8757(2)
C3 C 0.5703(4) 0.4002(5) 0.8464(3)
H3 H 0.5987 0.4236 0.8228
H4 H 0.5709 0.4417 0.8709
C4 C 0.4808(4) 0.3508(5) 0.8136(3)
O3 O 0.4478(3) 0.2921(3) 0.82940(19)
O4 O 0.4481(3) 0.3767(3) 0.7746(2)
C5 C 0.6535(5) 0.3215(5) 0.8450(3)
H5 H 0.6893 0.2970 0.8672
H6 H 0.6866 0.3637 0.8323
C6 C 0.5896(5) 0.2638(5) 0.7993(3)
C7 C 0.5814(5) 0.2697(6) 0.7473(3)
H7 H 0.6176 0.3112 0.7387
C8 C 0.5198(7) 0.2143(6) 0.7079(3)
C9 C 0.4719(7) 0.1561(6) 0.7227(3)
H8 H 0.4294 0.1173 0.6967
C10 C 0.4827(8) 0.1512(6) 0.7740(4)
N2 N 0.5421(5) 0.2057(4) 0.8135(2)
C11 C 0.4503(7) 0.0839(7) 0.7949(4)
H9 H 0.4928 0.0615 0.8097
H10 H 0.4062 0.0455 0.7665
N3 N 0.4188(4) 0.1035(4) 0.8368(3)
C12 C 0.4158(5) 0.0453(5) 0.8686(4)
H11 H 0.3930 -0.0057 0.8468
H12 H 0.3820 0.0480 0.8901
C13 C 0.5069(5) 0.0602(6) 0.9052(3)
O5 O 0.5530(3) 0.1263(3) 0.91776(18)
O6 O 0.5243(5) 0.0047(4) 0.9243(3)
O7 O 0.3701(4) 0.1912(6) 0.8894(4)
O8 O 0.2449(4) 0.1310(6) 0.8460(4)
C14 C 0.3181(6) 0.1476(8) 0.8555(6)
C15 C 0.3394(5) 0.1126(7) 0.8129(5)
H13 H 0.2980 0.0623 0.7961
H14 H 0.3416 0.1460 0.7860
C16 C 0.5114(7) 0.2217(7) 0.6554(3)
C17 C 0.5097(7) 0.2314(7) 0.6113(4)
C18 C 0.5077(8) 0.2430(7) 0.5592(4)
C19 C 0.4338(8) 0.2145(9) 0.5172(4)
H15 H 0.3843 0.1891 0.5221
C20 C 0.4389(8) 0.2265(9) 0.4681(4)
H16 H 0.3920 0.2036 0.4383
C21 C 0.5048(8) 0.2675(9) 0.4608(4)
C22 C 0.5817(8) 0.2908(9) 0.5030(4)
H17 H 0.6313 0.3118 0.4971
C23 C 0.5785(8) 0.2805(9) 0.5532(4)
H18 H 0.6262 0.2999 0.5828
C24 C 0.5072(8) 0.2803(7) 0.4101(4)
C25 C 0.5021(7) 0.2893(7) 0.3652(4)
C26 C 0.4973(6) 0.3027(6) 0.3130(3)
C27 C 0.5430(7) 0.3661(6) 0.3028(3)
H19 H 0.5835 0.4031 0.3308
C28 C 0.5324(7) 0.3792(6) 0.2510(3)
N4 N 0.4794(4) 0.3230(4) 0.2108(3)
C29 C 0.4353(5) 0.2594(5) 0.2212(3)
C30 C 0.4390(6) 0.2449(6) 0.2718(3)
H20 H 0.4048 0.1995 0.2780
C31 C 0.3760(5) 0.2017(5) 0.1749(3)
H21 H 0.3488 0.1552 0.1871
H22 H 0.3344 0.2227 0.1555
N5 N 0.4162(5) 0.1810(5) 0.1393(3)
C32 C 0.3536(6) 0.1509(6) 0.0867(3)
H23 H 0.3011 0.1235 0.0904
H24 H 0.3683 0.1145 0.0673
C33 C 0.3463(8) 0.2197(8) 0.0554(5)
O9 O 0.3839(5) 0.2857(6) 0.0751(3)
O10 O 0.2988(6) 0.2000(7) 0.0096(3)
C34 C 0.4618(6) 0.1339(5) 0.1608(4)
H25 H 0.4630 0.1005 0.1319
H26 H 0.4341 0.1007 0.1814
C35 C 0.5475(6) 0.1776(6) 0.1955(3)
O11 O 0.5779(3) 0.2433(3) 0.1884(2)
O12 O 0.5816(5) 0.1422(5) 0.2265(3)
C36 C 0.5779(7) 0.4468(5) 0.2370(4)
H27 H 0.6202 0.4792 0.2691
H28 H 0.5419 0.4758 0.2219
N6 N 0.6167(6) 0.4312(5) 0.1987(3)
C37 C 0.6878(6) 0.4093(5) 0.2231(4)
H29 H 0.6766 0.3743 0.2480
H30 H 0.7338 0.4554 0.2428
C38 C 0.7094(6) 0.3708(6) 0.1828(3)
O13 O 0.6553(4) 0.3532(3) 0.1353(2)
O14 O 0.7732(4) 0.3566(4) 0.1960(2)
C39 C 0.6420(10) 0.4980(8) 0.1748(5)
H31 H 0.6858 0.4954 0.1620
H32 H 0.6629 0.5446 0.2011
C40 C 0.5733(10) 0.5015(8) 0.1309(5)
O15 O 0.5856(8) 0.5638(5) 0.1127(4)
O16 O 0.5063(7) 0.4363(6) 0.1112(3)
Gd2 Gd 0.51597(3) 0.31107(3) 1.126270(14)
C81 C 0.5124(5) 0.2459(5) 1.0282(3)
O33 O 0.5102(3) 0.2127(3) 0.98472(18)
O34 O 0.5137(3) 0.2113(3) 1.06722(17)
O35 O 0.5162(3) 0.3168(3) 1.03520(18)
O36 O 0.5075(3) 0.3494(3) 0.9415(2)
H65 H 0.5101 0.3447 0.9724
H66 H 0.4822 0.3771 0.9257
Gd1_2 Gd 0.51076(2) 0.23482(2) 1.898612(12)
Gd1_3 Gd 0.51076(2) 0.23482(2) -0.101388(12)
O1_2 O 0.6488(3) 0.2773(3) 1.95356(18)
C1_2 C 0.6974(4) 0.3459(5) 1.9628(3)
O2_2 O 0.7598(3) 0.3717(3) 2.00192(18)
C2_2 C 0.6762(5) 0.3987(5) 1.9260(3)
H1_2 H 0.7244 0.4291 1.9185
H2_2 H 0.6562 0.4343 1.9419
N1_2 N 0.6113(4) 0.3517(4) 1.8757(2)
C3_2 C 0.5703(4) 0.4002(5) 1.8464(3)
H3_2 H 0.5987 0.4236 1.8228
H4_2 H 0.5709 0.4417 1.8709
C4_2 C 0.4808(4) 0.3508(5) 1.8136(3)
O3_2 O 0.4478(3) 0.2921(3) 1.82940(19)
O4_2 O 0.4481(3) 0.3767(3) 1.7746(2)
C5_2 C 0.6535(5) 0.3215(5) 1.8450(3)
H5_2 H 0.6893 0.2970 1.8672
H6_2 H 0.6866 0.3637 1.8323
C6_2 C 0.5896(5) 0.2638(5) 1.7993(3)
C7_2 C 0.5814(5) 0.2697(6) 1.7473(3)
H7_2 H 0.6176 0.3112 1.7387
C8_2 C 0.5198(7) 0.2143(6) 1.7079(3)
C9_2 C 0.4719(7) 0.1561(6) 1.7227(3)
H8_2 H 0.4294 0.1173 1.6967
C10_2 C 0.4827(8) 0.1512(6) 1.7740(4)
N2_2 N 0.5421(5) 0.2057(4) 1.8135(2)
C11_2 C 0.4503(7) 0.0839(7) 1.7949(4)
H9_2 H 0.4928 0.0615 1.8097
H10_2 H 0.4062 0.0455 1.7665
N3_2 N 0.4188(4) 0.1035(4) 1.8368(3)
C12_2 C 0.4158(5) 0.0453(5) 1.8686(4)
H11_2 H 0.3930 -0.0057 1.8468
H12_2 H 0.3820 0.0480 1.8901
C13_2 C 0.5069(5) 0.0602(6) 1.9052(3)
O5_2 O 0.5530(3) 0.1263(3) 1.91776(18)
O6_2 O 0.5243(5) 0.0047(4) 1.9243(3)
O7_2 O 0.3701(4) 0.1912(6) 1.8894(4)
O8_2 O 0.2449(4) 0.1310(6) 1.8460(4)
C14_2 C 0.3181(6) 0.1476(8) 1.8555(6)
C15_2 C 0.3394(5) 0.1126(7) 1.8129(5)
H13_2 H 0.2980 0.0623 1.7961
H14_2 H 0.3416 0.1460 1.7860
C16_2 C 0.5114(7) 0.2217(7) 1.6554(3)
C17_2 C 0.5097(7) 0.2314(7) 1.6113(4)
C18_2 C 0.5077(8) 0.2430(7) 1.5592(4)
C19_2 C 0.4338(8) 0.2145(9) 1.5172(4)
H15_2 H 0.3843 0.1891 1.5221
C20_2 C 0.4389(8) 0.2265(9) 1.4681(4)
H16_2 H 0.3920 0.2036 1.4383
C21_2 C 0.5048(8) 0.2675(9) 1.4608(4)
C22_2 C 0.5817(8) 0.2908(9) 1.5030(4)
H17_2 H 0.6313 0.3118 1.4971
C23_2 C 0.5785(8) 0.2805(9) 1.5532(4)
H18_2 H 0.6262 0.2999 1.5828
C24_2 C 0.5072(8) 0.2803(7) 1.4101(4)
C25_2 C 0.5021(7) 0.2893(7) 1.3652(4)
C26_2 C 0.4973(6) 0.3027(6) 1.3130(3)
C27_2 C 0.5430(7) 0.3661(6) 1.3028(3)
H19_2 H 0.5835 0.4031 1.3308
C28_2 C 0.5324(7) 0.3792(6) 1.2510(3)
N4_2 N 0.4794(4) 0.3230(4) 1.2108(3)
C29_2 C 0.4353(5) 0.2594(5) 1.2212(3)
C30_2 C 0.4390(6) 0.2449(6) 1.2718(3)
H20_2 H 0.4048 0.1995 1.2780
C31_2 C 0.3760(5) 0.2017(5) 1.1749(3)
H21_2 H 0.3488 0.1552 1.1871
H22_2 H 0.3344 0.2227 1.1555
N5_2 N 0.4162(5) 0.1810(5) 1.1393(3)
C32_2 C 0.3536(6) 0.1509(6) 1.0867(3)
H23_2 H 0.3011 0.1235 1.0904
H24_2 H 0.3683 0.1145 1.0673
C33_2 C 0.3463(8) 0.2197(8) 1.0554(5)
O9_2 O 0.3839(5) 0.2857(6) 1.0751(3)
O10_2 O 0.2988(6) 0.2000(7) 1.0096(3)
C34_2 C 0.4618(6) 0.1339(5) 1.1608(4)
H25_2 H 0.4630 0.1005 1.1319
H26_2 H 0.4341 0.1007 1.1814
C35_2 C 0.5475(6) 0.1776(6) 1.1955(3)
O11_2 O 0.5779(3) 0.2433(3) 1.1884(2)
O12_2 O 0.5816(5) 0.1422(5) 1.2265(3)
C36_2 C 0.5779(7) 0.4468(5) 1.2370(4)
H27_2 H 0.6202 0.4792 1.2691
H28_2 H 0.5419 0.4758 1.2219
N6_2 N 0.6167(6) 0.4312(5) 1.1987(3)
C37_2 C 0.6878(6) 0.4093(5) 1.2231(4)
H29_2 H 0.6766 0.3743 1.2480
H30_2 H 0.7338 0.4554 1.2428
C38_2 C 0.7094(6) 0.3708(6) 1.1828(3)
O13_2 O 0.6553(4) 0.3532(3) 1.1353(2)
O14_2 O 0.7732(4) 0.3566(4) 1.1960(2)
C39_2 C 0.6420(10) 0.4980(8) 1.1748(5)
H31_2 H 0.6858 0.4954 1.1620
H32_2 H 0.6629 0.5446 1.2011
C40_2 C 0.5733(10) 0.5015(8) 1.1309(5)
O15_2 O 0.5856(8) 0.5638(5) 1.1127(4)
O16_2 O 0.5063(7) 0.4363(6) 1.1112(3)
Gd2_2 Gd 0.51597(3) 0.31107(3) 0.126270(14)
C81_2 C 0.5124(5) 0.2459(5) 0.0282(3)
O33_2 O 0.5102(3) 0.2127(3) -0.01528(18)
O33_3 O 0.5102(3) 0.2127(3) 1.98472(18)
O34_2 O 0.5137(3) 0.2113(3) 0.06722(17)
O35_2 O 0.5162(3) 0.3168(3) 0.03520(18)
O36_2 O 0.5075(3) 0.3494(3) 1.9415(2)
H65_2 H 0.5101 0.3447 1.9724
H66_2 H 0.4822 0.3771 1.9257
C83? C 1.492(2) 0.4592(19) 1.551(2)
C84? C 1.435(3) 0.424(3) 1.4959(14)
C85? C 0.3222(19) 0.185(2) 0.0567(13)
C86? C 0.598(2) 0.480(2) 0.1529(16)
C87? C 0.525(2) 0.4718(16) 0.1138(13)
H91? H 1.4928 0.4366 1.5813
H92? H 1.3899 0.3789 1.4894
H93? H 0.6183 0.5332 0.1706
H94? H 0.6351 0.4767 0.1337
Na9? Na 0.8912(9) 0.9435(9) 1.0531(6)
O62? O 0.3694(15) 0.2457(15) 0.0765(10)
O63? O 0.2622(16) 0.1527(16) 0.0194(11)
O64? O 0.5332(15) 0.5322(13) 0.0973(10)
O65? O 0.4593(15) 0.4001(15) 0.0953(10)
loop_
_geom_bond_atom_site_label_1
_geom_bond_atom_site_label_2
_geom_bond_site_symmetry_1
_geom_bond_site_symmetry_2
Gd1 O1 1_555 1_555
O1 C1 1_555 1_555
C1 O2 1_555 1_555
C2 C1 1_555 1_555
H1 C2 1_555 1_555
H2 C2 1_555 1_555
N1 Gd1 1_555 1_555
C3 N1 1_555 1_555
H3 C3 1_555 1_555
H4 C3 1_555 1_555
C4 C3 1_555 1_555
O3 Gd1 1_555 1_555
O4 C4 1_555 1_555
C5 N1 1_555 1_555
H5 C5 1_555 1_555
H6 C5 1_555 1_555
C6 C5 1_555 1_555
C7 C6 1_555 1_555
H7 C7 1_555 1_555
C8 C7 1_555 1_555
C9 C8 1_555 1_555
H8 C9 1_555 1_555
C10 C9 1_555 1_555
N2 Gd1 1_555 1_555
C11 C10 1_555 1_555
H9 C11 1_555 1_555
H10 C11 1_555 1_555
N3 Gd1 1_555 1_555
C12 N3 1_555 1_555
H11 C12 1_555 1_555
H12 C12 1_555 1_555
C13 C12 1_555 1_555
O5 Gd1 1_555 1_555
O6 C13 1_555 1_555
O7 Gd1 1_555 1_555
O8 C14 1_555 1_555
C14 O7 1_555 1_555
C15 N3 1_555 1_555
H13 C15 1_555 1_555
H14 C15 1_555 1_555
C16 C8 1_555 1_555
C17 C16 1_555 1_555
C18 C17 1_555 1_555
C19 C18 1_555 1_555
H15 C19 1_555 1_555
C20 C19 1_555 1_555
H16 C20 1_555 1_555
C21 C20 1_555 1_555
C22 C21 1_555 1_555
H17 C22 1_555 1_555
C23 C18 1_555 1_555
H18 C23 1_555 1_555
C24 C21 1_555 1_555
C25 C24 1_555 1_555
C26 C25 1_555 1_555
C27 C26 1_555 1_555
H19 C27 1_555 1_555
C28 C27 1_555 1_555
N4 C28 1_555 1_555
C29 N4 1_555 1_555
C30 C26 1_555 1_555
H20 C30 1_555 1_555
C31 C29 1_555 1_555
H21 C31 1_555 1_555
H22 C31 1_555 1_555
N5 C31 1_555 1_555
C32 N5 1_555 1_555
H23 C32 1_555 1_555
H24 C32 1_555 1_555
C33 C32 1_555 1_555
O9 C33 1_555 1_555
O10 C33 1_555 1_555
C34 N5 1_555 1_555
H25 C34 1_555 1_555
H26 C34 1_555 1_555
C35 C34 1_555 1_555
O11 C35 1_555 1_555
O12 C35 1_555 1_555
C36 C28 1_555 1_555
H27 C36 1_555 1_555
H28 C36 1_555 1_555
N6 C36 1_555 1_555
C37 N6 1_555 1_555
H29 C37 1_555 1_555
H30 C37 1_555 1_555
C38 C37 1_555 1_555
O13 C38 1_555 1_555
O14 C38 1_555 1_555
C39 N6 1_555 1_555
H31 C39 1_555 1_555
H32 C39 1_555 1_555
C40 C39 1_555 1_555
O15 C40 1_555 1_555
O16 C40 1_555 1_555
Gd2 O34 1_555 1_555
Gd3 O17 1_555 1_555
O17 C41 1_555 1_555
C41 O18 1_555 1_555
C42 C41 1_555 1_555
H33 C42 1_555 1_555
H34 C42 1_555 1_555
N7 Gd3 1_555 1_555
C43 N7 1_555 1_555
H35 C43 1_555 1_555
H36 C43 1_555 1_555
C44 C43 1_555 1_555
O19 Gd3 1_555 1_555
O20 C44 1_555 1_555
C45 N7 1_555 1_555
H37 C45 1_555 1_555
H38 C45 1_555 1_555
C46 C45 1_555 1_555
C47 C46 1_555 1_555
H39 C47 1_555 1_555
C48 C47 1_555 1_555
C49 C48 1_555 1_555
H40 C49 1_555 1_555
C50 C49 1_555 1_555
N8 Gd3 1_555 1_555
C51 C50 1_555 1_555
H41 C51 1_555 1_555
H42 C51 1_555 1_555
N9 Gd3 1_555 1_555
C52 N9 1_555 1_555
H43 C52 1_555 1_555
H44 C52 1_555 1_555
C53 C52 1_555 1_555
O21 Gd3 1_555 1_555
O22 C53 1_555 1_555
O23 Gd3 1_555 1_555
O24 C54 1_555 1_555
C54 O23 1_555 1_555
C55 N9 1_555 1_555
H45 C55 1_555 1_555
H46 C55 1_555 1_555
C56 C48 1_555 1_555
C57 C56 1_555 1_555
C58 C57 1_555 1_555
C59 C58 1_555 1_555
H47 C59 1_555 1_555
C60 C58 1_555 1_555
H48 C60 1_555 1_555
Gd4 O25 1_555 1_555
O25 C61 1_555 1_555
C61 O26 1_555 1_555
C62 C61 1_555 1_555
H49 C62 1_555 1_555
H50 C62 1_555 1_555
N10 Gd4 1_555 1_555
C63 N10 1_555 1_555
H51 C63 1_555 1_555
H52 C63 1_555 1_555
C64 C63 1_555 1_555
O27 C64 1_555 1_555
O28 Gd4 1_555 1_555
C65 N10 1_555 1_555
H53 C65 1_555 1_555
H54 C65 1_555 1_555
C66 C65 1_555 1_555
C67 C66 1_555 1_555
H55 C67 1_555 1_555
C68 C67 1_555 1_555
C69 C68 1_555 1_555
H56 C69 1_555 1_555
C70 C69 1_555 1_555
N11 Gd4 1_555 1_555
C71 C70 1_555 1_555
H57 C71 1_555 1_555
H58 C71 1_555 1_555
N12 Gd4 1_555 1_555
C72 N12 1_555 1_555
H59 C72 1_555 1_555
H60 C72 1_555 1_555
C73 C72 1_555 1_555
O29 Gd4 1_555 1_555
O30 C73 1_555 1_555
O31 Gd4 1_555 1_555
O32 C74 1_555 1_555
C74 O31 1_555 1_555
C75 N12 1_555 1_555
H61 C75 1_555 1_555
H62 C75 1_555 1_555
C76 C68 1_555 1_555
C77 C76 1_555 1_555
C78 C77 1_555 1_555
C79 C78 1_555 1_555
H63 C79 1_555 1_555
C80 C78 1_555 1_555
H64 C80 1_555 1_555
C81 O33 1_555 1_555
O33 Gd1 1_555 1_555
O34 C81 1_555 1_555
O35 Gd2 1_555 1_555
O36 Gd1 1_555 1_555
H65 O36 1_555 1_555
H66 O36 1_555 1_555
C82 O37 1_555 1_555
O37 Gd4 1_555 1_555
O38 Gd3 1_555 1_555
O39 Gd4 1_555 1_555
O40 H67 1_555 1_555
H68 O40 1_555 1_555
O41 H69 1_555 1_555
H70 O41 1_555 1_555
O42 H71 1_555 1_555
O43 Gd3 1_555 1_555
H72 O43 1_555 1_555
H73 O43 1_555 1_555
O44 H74 1_555 1_555
O45 H75 1_555 1_555
O46 H76 1_555 1_555
H77 O46 1_555 1_555
O48 H78 1_555 1_555
O49 H79 1_555 1_555
O50 H80 1_555 1_555
H81 O50 1_555 1_555
O51 H82 1_555 1_555
H83 O51 1_555 1_555
O52 H84 1_555 1_555
O54 H85 1_555 1_555
H86 O54 1_555 1_555
O56 H87 1_555 1_555
O57 H88 1_555 1_555
O58 H89 1_555 1_555
O61 H90 1_555 1_555
Gd1_2 O1_2 1_555 1_555
Gd1_3 O33_2 1_555 1_555
O1_2 C1_2 1_555 1_555
C1_2 O2_2 1_555 1_555
C2_2 C1_2 1_555 1_555
H1_2 C2_2 1_555 1_555
H2_2 C2_2 1_555 1_555
N1_2 Gd1_2 1_555 1_555
C3_2 N1_2 1_555 1_555
H3_2 C3_2 1_555 1_555
H4_2 C3_2 1_555 1_555
C4_2 C3_2 1_555 1_555
O3_2 Gd1_2 1_555 1_555
O4_2 C4_2 1_555 1_555
C5_2 N1_2 1_555 1_555
H5_2 C5_2 1_555 1_555
H6_2 C5_2 1_555 1_555
C6_2 C5_2 1_555 1_555
C7_2 C6_2 1_555 1_555
H7_2 C7_2 1_555 1_555
C8_2 C7_2 1_555 1_555
C9_2 C8_2 1_555 1_555
H8_2 C9_2 1_555 1_555
C10_2 C9_2 1_555 1_555
N2_2 Gd1_2 1_555 1_555
C11_2 C10_2 1_555 1_555
H9_2 C11_2 1_555 1_555
H10_2 C11_2 1_555 1_555
N3_2 Gd1_2 1_555 1_555
C12_2 N3_2 1_555 1_555
H11_2 C12_2 1_555 1_555
H12_2 C12_2 1_555 1_555
C13_2 C12_2 1_555 1_555
O5_2 Gd1_2 1_555 1_555
O6_2 C13_2 1_555 1_555
O7_2 Gd1_2 1_555 1_555
O8_2 C14_2 1_555 1_555
C14_2 O7_2 1_555 1_555
C15_2 N3_2 1_555 1_555
H13_2 C15_2 1_555 1_555
H14_2 C15_2 1_555 1_555
C16_2 C8_2 1_555 1_555
C17_2 C16_2 1_555 1_555
C18_2 C17_2 1_555 1_555
C19_2 C18_2 1_555 1_555
H15_2 C19_2 1_555 1_555
C20_2 C19_2 1_555 1_555
H16_2 C20_2 1_555 1_555
C21_2 C20_2 1_555 1_555
C22_2 C21_2 1_555 1_555
H17_2 C22_2 1_555 1_555
C23_2 C18_2 1_555 1_555
H18_2 C23_2 1_555 1_555
C24_2 C21_2 1_555 1_555
C25_2 C24_2 1_555 1_555
C26_2 C25_2 1_555 1_555
C27_2 C26_2 1_555 1_555
H19_2 C27_2 1_555 1_555
C28_2 C27_2 1_555 1_555
N4_2 Gd2 1_555 1_555
C29_2 N4_2 1_555 1_555
C30_2 C26_2 1_555 1_555
H20_2 C30_2 1_555 1_555
C31_2 C29_2 1_555 1_555
H21_2 C31_2 1_555 1_555
H22_2 C31_2 1_555 1_555
N5_2 Gd2 1_555 1_555
C32_2 N5_2 1_555 1_555
H23_2 C32_2 1_555 1_555
H24_2 C32_2 1_555 1_555
C33_2 C32_2 1_555 1_555
O9_2 Gd2 1_555 1_555
O10_2 C33_2 1_555 1_555
C34_2 N5_2 1_555 1_555
H25_2 C34_2 1_555 1_555
H26_2 C34_2 1_555 1_555
C35_2 C34_2 1_555 1_555
O11_2 Gd2 1_555 1_555
O12_2 C35_2 1_555 1_555
C36_2 C28_2 1_555 1_555
H27_2 C36_2 1_555 1_555
H28_2 C36_2 1_555 1_555
N6_2 Gd2 1_555 1_555
C37_2 N6_2 1_555 1_555
H29_2 C37_2 1_555 1_555
H30_2 C37_2 1_555 1_555
C38_2 C37_2 1_555 1_555
O13_2 Gd2 1_555 1_555
O14_2 C38_2 1_555 1_555
C39_2 N6_2 1_555 1_555
H31_2 C39_2 1_555 1_555
H32_2 C39_2 1_555 1_555
C40_2 C39_2 1_555 1_555
O15_2 C40_2 1_555 1_555
O16_2 Gd2 1_555 1_555
Gd2_2 N4 1_555 1_555
Gd3A O17A 1_555 1_555
O17A C41A 1_555 1_555
C41A O18A 1_555 1_555
C42A C41A 1_555 1_555
H33A C42A 1_555 1_555
H34A C42A 1_555 1_555
N7A Gd3A 1_555 1_555
C43A N7A 1_555 1_555
H35A C43A 1_555 1_555
H36A C43A 1_555 1_555
C44A C43A 1_555 1_555
O19A Gd3A 1_555 1_555
O20A C44A 1_555 1_555
C45A N7A 1_555 1_555
H37A C45A 1_555 1_555
H38A C45A 1_555 1_555
C46A C45A 1_555 1_555
C47A C46A 1_555 1_555
H39A C47A 1_555 1_555
C48A C47A 1_555 1_555
C49A C48A 1_555 1_555
H40A C49A 1_555 1_555
C50A C49A 1_555 1_555
N8A Gd3A 1_555 1_555
C51A C50A 1_555 1_555
H41A C51A 1_555 1_555
H42A C51A 1_555 1_555
N9A Gd3A 1_555 1_555
C52A N9A 1_555 1_555
H43A C52A 1_555 1_555
H44A C52A 1_555 1_555
C53A C52A 1_555 1_555
O21A Gd3A 1_555 1_555
O22A C53A 1_555 1_555
O23A Gd3A 1_555 1_555
O24A C54A 1_555 1_555
C54A O23A 1_555 1_555
C55A N9A 1_555 1_555
H45A C55A 1_555 1_555
H46A C55A 1_555 1_555
C56A C48A 1_555 1_555
C57A C56A 1_555 1_555
C58A C57A 1_555 1_555
C59A C60 1_555 1_555
H47A C59A 1_555 1_555
C60A C59 1_555 1_555
H48A C60A 1_555 1_555
Gd4A O25A_2 1_555 1_555
Gd4A_2 O25A 1_555 1_555
O25A C61A 1_555 1_555
C61A O26A 1_555 1_555
C62A C61A 1_555 1_555
H49A C62A 1_555 1_555
H50A C62A 1_555 1_555
N10A Gd4A_2 1_555 1_555
N10A_2 Gd4A 1_555 1_555
C63A N10A 1_555 1_555
H51A C63A 1_555 1_555
H52A C63A 1_555 1_555
C64A C63A 1_555 1_555
O27A C64A 1_555 1_555
O28A Gd4A_2 1_555 1_555
O28A_2 Gd4A 1_555 1_555
C65A N10A 1_555 1_555
H53A C65A 1_555 1_555
H54A C65A 1_555 1_555
C66A C65A 1_555 1_555
C67A C66A 1_555 1_555
H55A C67A 1_555 1_555
C68A C67A 1_555 1_555
C69A C68A 1_555 1_555
H56A C69A 1_555 1_555
C70A C69A 1_555 1_555
N11A Gd4A_2 1_555 1_555
N11A_2 Gd4A 1_555 1_555
C71A C70A 1_555 1_555
H57A C71A 1_555 1_555
H58A C71A 1_555 1_555
N12A Gd4A_2 1_555 1_555
N12A_2 Gd4A 1_555 1_555
C72A N12A 1_555 1_555
H59A C72A 1_555 1_555
H60A C72A 1_555 1_555
C73A C72A 1_555 1_555
O29A Gd4A_2 1_555 1_555
O29A_2 Gd4A 1_555 1_555
O30A C73A 1_555 1_555
O31A Gd4A_2 1_555 1_555
O31A_2 Gd4A 1_555 1_555
O32A C74A 1_555 1_555
C74A O31A 1_555 1_555
C75A N12A 1_555 1_555
H61A C75A 1_555 1_555
H62A C75A 1_555 1_555
C76A C68A 1_555 1_555
C77A C76A 1_555 1_555
C78A C77A 1_555 1_555
C79A C80 1_555 1_555
H63A C79A 1_555 1_555
C80A C79 1_555 1_555
H64A C80A 1_555 1_555
C81_2 O33_2 1_555 1_555
O33_3 Gd1_2 1_555 1_555
O34_2 Gd2_2 1_555 1_555
O35_2 Gd2_2 1_555 1_555
O36_2 Gd1_2 1_555 1_555
H65_2 O36_2 1_555 1_555
H66_2 O36_2 1_555 1_555
C82A O37A 1_555 1_555
O37A Gd4A 1_555 1_555
O38A Gd3A 1_555 1_555
O39A Gd4A 1_555 1_555
O43A Gd3A 1_555 1_555
H72A O43A 1_555 1_555
H73A O43A 1_555 1_555
C2 N1 1_555 1_555
C4 O3 1_555 1_555
C6 N2 1_555 1_555
C10 N2 1_555 1_555
C11 N3 1_555 1_555
C13 O5 1_555 1_555
C14 C15 1_555 1_555
C22 C23 1_555 1_555
C29 C30 1_555 1_555
N5 Gd2_2 1_555 1_555
O9 Gd2_2 1_555 1_555
O11 Gd2_2 1_555 1_555
N6 Gd2_2 1_555 1_555
O13 Gd2_2 1_555 1_555
O16 Gd2_2 1_555 1_555
C42 N7 1_555 1_555
C44 O19 1_555 1_555
C46 N8 1_555 1_555
C50 N8 1_555 1_555
C51 N9 1_555 1_555
C53 O21 1_555 1_555
C54 C55 1_555 1_555
C62 N10 1_555 1_555
C64 O28 1_555 1_555
C66 N11 1_555 1_555
C70 N11 1_555 1_555
C71 N12 1_555 1_555
C73 O29 1_555 1_555
C74 C75 1_555 1_555
C81 O35 1_555 1_555
C82 O38 1_555 1_555
C82 O39 1_555 1_555
C2_2 N1_2 1_555 1_555
C4_2 O3_2 1_555 1_555
C6_2 N2_2 1_555 1_555
C10_2 N2_2 1_555 1_555
C11_2 N3_2 1_555 1_555
C13_2 O5_2 1_555 1_555
C14_2 C15_2 1_555 1_555
C22_2 C23_2 1_555 1_555
C28_2 N4_2 1_555 1_555
C29_2 C30_2 1_555 1_555
C31_2 N5_2 1_555 1_555
C33_2 O9_2 1_555 1_555
C35_2 O11_2 1_555 1_555
C36_2 N6_2 1_555 1_555
C38_2 O13_2 1_555 1_555
C40_2 O16_2 1_555 1_555
C42A N7A 1_555 1_555
C44A O19A 1_555 1_555
C46A N8A 1_555 1_555
C50A N8A 1_555 1_555
C51A N9A 1_555 1_555
C53A O21A 1_555 1_555
C54A C55A 1_555 1_555
C58A C59A 1_555 1_555
C58A C60A 1_555 1_555
C62A N10A 1_555 1_555
C64A O28A 1_555 1_555
C66A N11A 1_555 1_555
C70A N11A 1_555 1_555
C71A N12A 1_555 1_555
C73A O29A 1_555 1_555
C74A C75A 1_555 1_555
C78A C79A 1_555 1_555
C78A C80A 1_555 1_555
C81_2 O34_2 1_555 1_555
C81_2 O35_2 1_555 1_555
C82A O38A 1_555 1_555
C82A O39A 1_555 1_555

#END
