
#######################################################################
#
#                 Cambridge Crystallographic Data Centre
#                                CCDC 
#
#######################################################################
#
# If this CIF has been generated from an entry in the Cambridge 
# Structural Database, then it will include bibliographic, chemical, 
# crystal, experimental, refinement or atomic coordinate data resulting 
# from the CCDC's data processing and validation procedures.
#
#######################################################################

data_ENAFAB
_symmetry_cell_setting           cubic
_symmetry_space_group_name_H-M   'P m -3 n'
_symmetry_Int_Tables_number      223
_space_group_name_Hall           '-P 4n 2 3'
loop_
_symmetry_equiv_pos_site_id
_symmetry_equiv_pos_as_xyz
1 x,y,z
2 -x,-y,z
3 -x,y,-z
4 x,-y,-z
5 z,x,y
6 z,-x,-y
7 -z,-x,y
8 -z,x,-y
9 y,z,x
10 -y,z,-x
11 y,-z,-x
12 -y,-z,x
13 1/2+y,1/2+x,1/2-z
14 1/2-y,1/2-x,1/2-z
15 1/2+y,1/2-x,1/2+z
16 1/2-y,1/2+x,1/2+z
17 1/2+x,1/2+z,1/2-y
18 1/2-x,1/2+z,1/2+y
19 1/2-x,1/2-z,1/2-y
20 1/2+x,1/2-z,1/2+y
21 1/2+z,1/2+y,1/2-x
22 1/2+z,1/2-y,1/2+x
23 1/2-z,1/2+y,1/2+x
24 1/2-z,1/2-y,1/2-x
25 -x,-y,-z
26 x,y,-z
27 x,-y,z
28 -x,y,z
29 -z,-x,-y
30 -z,x,y
31 z,x,-y
32 z,-x,y
33 -y,-z,-x
34 y,-z,x
35 -y,z,x
36 y,z,-x
37 1/2-y,1/2-x,1/2+z
38 1/2+y,1/2+x,1/2+z
39 1/2-y,1/2+x,1/2-z
40 1/2+y,1/2-x,1/2-z
41 1/2-x,1/2-z,1/2+y
42 1/2+x,1/2-z,1/2-y
43 1/2+x,1/2+z,1/2+y
44 1/2-x,1/2+z,1/2-y
45 1/2-z,1/2-y,1/2+x
46 1/2-z,1/2+y,1/2-x
47 1/2+z,1/2-y,1/2-x
48 1/2+z,1/2+y,1/2+x
_cell_length_a                   29.557(3)
_cell_length_b                   29.557(3)
_cell_length_c                   29.557(3)
_cell_angle_alpha                90
_cell_angle_beta                 90
_cell_angle_gamma                90
_cell_volume                     25821.5
loop_
_atom_site_label
_atom_site_type_symbol
_atom_site_fract_x
_atom_site_fract_y
_atom_site_fract_z
W1 W 0.30973(3) 0.16109(3) 0.16581(3)
W2 W 0.26416(3) 0.11919(3) 0.25981(3)
W3 W 0.15499(4) 0.10729(4) 0.19980(4)
P1 P 0.21076(17) 0.21076(17) 0.21076(17)
O1 O 0.1331(5) 0.0561(6) 0.2052(6)
O2 O 0.2545(4) 0.1844(4) 0.2209(4)
O3 O 0.2199(5) 0.1417(5) 0.2997(5)
O4 O 0.3088(5) 0.1511(5) 0.2905(6)
O5 O 0.2564(5) 0.1428(5) 0.1345(5)
O6 O 0.2745(5) 0.0674(5) 0.2846(5)
O7 O 0.1030(5) 0.1390(6) 0.1779(5)
O8 O 0.3034(5) 0.1140(5) 0.2082(5)
O9 O 0.3502(6) 0.1406(6) 0.1311(5)
O10 O 0.2142(5) 0.0987(5) 0.2225(6)
O11 O 0.1800(5) 0.1800(5) 0.1800(5)
Ni1 Ni 0.2759 0.00000(13) 0.28957(13)
O12 O 0.2167 0.0000(10) 0.2496(10)
O13 O 0.3140 0.0000(13) 0.2297(11)
N1 N 0.3348 0.0000(8) 0.3299(9)
C1 C 0.3548(10) 0.0383(9) 0.3404(10)
H1 H 0.3424 0.0658 0.3292
C2 C 0.3928(9) 0.0403(10) 0.3670(11)
H2 H 0.4050 0.0687 0.3759
C3 C 0.4131 0.0000(12) 0.3808(13)
C4 C 0.4565 0.0000(12) 0.4104(13)
H3 H 0.4565 0.0271 0.4301
C5 C 0.5000 0.0000 0.3810(19)
H4 H 0.5000 0.0271 0.3613
N2 N 0.2349 0.0000(10) 0.3432(9)
C6 C 0.2198(8) 0.0391(11) 0.3646(10)
H5 H 0.2314 0.0672 0.3542
C7 C 0.1888(9) 0.0400(13) 0.4003(12)
H6 H 0.1784 0.0683 0.4114
C8 C 0.1728 0.0000(14) 0.4199(13)
C9 C 0.1386 0.0000(12) 0.4578(11)
H7 H 0.1192 -0.0273 0.4566
C10 C 0.1680 0.000(2) 0.5000
H8 H 0.1872 -0.0271 0.5000
O2H O 0.1844(4) 0.2209(4) 0.2545(4)
O2D O 0.2209(4) 0.2545(4) 0.1844(4)
C2Z C 0.3928(9) -0.0403(10) 0.3670(11)
C1Z C 0.3548(10) -0.0383(9) 0.3404(10)
H1Z H 0.3424 -0.0658 0.3292
H2Z H 0.4050 -0.0687 0.3759
C4A C 0.5435 0.0000(12) 0.4104(13)
C3A C 0.5869 0.0000(12) 0.3808(13)
C2A C 0.6072(9) -0.0403(10) 0.3670(11)
C1A C 0.6452(10) -0.0383(9) 0.3404(10)
N1A N 0.6652 0.0000(8) 0.3299(9)
C1AA C 0.6452(10) 0.0383(9) 0.3404(10)
H1AA H 0.6576 0.0658 0.3292
C2AA C 0.6072(9) 0.0403(10) 0.3670(11)
H2AA H 0.5950 0.0687 0.3759
H1A H 0.6576 -0.0658 0.3292
H2A H 0.5950 -0.0687 0.3759
H3A H 0.5435 -0.0271 0.4301
H3AA H 0.5435 0.0271 0.4301
H4A H 0.5000 -0.0271 0.3613
H3Z H 0.4565 -0.0271 0.4301
C7Z C 0.1888(9) -0.0400(13) 0.4003(12)
C6Z C 0.2198(8) -0.0391(11) 0.3646(10)
H5Z H 0.2314 -0.0672 0.3542
H6Z H 0.1784 -0.0683 0.4114
C9C C 0.1386 0.0000(12) 0.5422(11)
C8C C 0.1728 0.0000(14) 0.5801(13)
C7C C 0.1888(9) -0.0400(13) 0.5997(12)
C6C C 0.2198(8) -0.0391(11) 0.6354(10)
N2C N 0.2349 0.0000(10) 0.6568(9)
C6Y C 0.2198(8) 0.0391(11) 0.6354(10)
H5Y H 0.2314 0.0672 0.6458
C7Y C 0.1888(9) 0.0400(13) 0.5997(12)
H6Y H 0.1784 0.0683 0.5886
H5C H 0.2314 -0.0672 0.6458
H6C H 0.1784 -0.0683 0.5886
H7C H 0.1192 0.0273 0.5434
H7Y H 0.1192 -0.0273 0.5434
H8C H 0.1872 0.0271 0.5000
H7Z H 0.1192 0.0273 0.4566
O6Z O 0.2745(5) -0.0674(5) 0.2846(5)
Ni1A Ni 0.7241 0.00000(13) 0.28957(13)
Ni1C Ni 0.2759 0.00000(13) 0.71043(13)
W2Z W 0.26416(3) -0.11919(3) 0.25981(3)
O6A O 0.7255(5) -0.0674(5) 0.2846(5)
O12A O 0.7833 0.0000(10) 0.2496(10)
O13A O 0.6860 0.0000(13) 0.2297(11)
N2A N 0.7651 0.0000(10) 0.3432(9)
C6A C 0.7802(8) -0.0391(11) 0.3646(10)
H5A H 0.7686 -0.0672 0.3542
C7A C 0.8112(9) -0.0400(13) 0.4003(12)
H6A H 0.8216 -0.0683 0.4114
C8A C 0.8272 0.0000(14) 0.4199(13)
C9A C 0.8614 0.0000(12) 0.4578(11)
H7A H 0.8808 0.0273 0.4566
C10A C 0.8320 0.000(2) 0.5000
H8A H 0.8128 0.0271 0.5000
C7AA C 0.8112(9) 0.0400(13) 0.4003(12)
C6AA C 0.7802(8) 0.0391(11) 0.3646(10)
H5AA H 0.7686 0.0672 0.3542
H6AA H 0.8216 0.0683 0.4114
C9B C 0.8614 0.0000(12) 0.5422(11)
C8B C 0.8272 0.0000(14) 0.5801(13)
C7B C 0.8112(9) 0.0400(13) 0.5997(12)
C6B C 0.7802(8) 0.0391(11) 0.6354(10)
N2B N 0.7651 0.0000(10) 0.6568(9)
C6X C 0.7802(8) -0.0391(11) 0.6354(10)
H5X H 0.7686 -0.0672 0.6458
C7X C 0.8112(9) -0.0400(13) 0.5997(12)
H6X H 0.8216 -0.0683 0.5886
H5B H 0.7686 0.0672 0.6458
H6B H 0.8216 0.0683 0.5886
H7B H 0.8808 -0.0273 0.5434
H7X H 0.8808 0.0273 0.5434
H8B H 0.8128 -0.0271 0.5000
H7AA H 0.8808 -0.0273 0.4566
O6AA O 0.7255(5) 0.0674(5) 0.2846(5)
O6C O 0.2745(5) -0.0674(5) 0.7154(5)
O12C O 0.2167 0.0000(10) 0.7504(10)
O13C O 0.3140 0.0000(13) 0.7703(11)
N1C N 0.3348 0.0000(8) 0.6701(9)
C1C C 0.3548(10) -0.0383(9) 0.6596(10)
H1C H 0.3424 -0.0658 0.6708
C2C C 0.3928(9) -0.0403(10) 0.6330(11)
H2C H 0.4050 -0.0687 0.6241
C3C C 0.4131 0.0000(12) 0.6192(13)
C4C C 0.4565 0.0000(12) 0.5896(13)
H3C H 0.4565 -0.0271 0.5699
C5C C 0.5000 0.0000 0.6190(19)
H4C H 0.5000 -0.0271 0.6387
C2Y C 0.3928(9) 0.0403(10) 0.6330(11)
C1Y C 0.3548(10) 0.0383(9) 0.6596(10)
H1Y H 0.3424 0.0658 0.6708
H2Y H 0.4050 0.0687 0.6241
C4B C 0.5435 0.0000(12) 0.5896(13)
C3B C 0.5869 0.0000(12) 0.6192(13)
C2B C 0.6072(9) 0.0403(10) 0.6330(11)
C1B C 0.6452(10) 0.0383(9) 0.6596(10)
N1B N 0.6652 0.0000(8) 0.6701(9)
C1X C 0.6452(10) -0.0383(9) 0.6596(10)
H1X H 0.6576 -0.0658 0.6708
C2X C 0.6072(9) -0.0403(10) 0.6330(11)
H2X H 0.5950 -0.0687 0.6241
H1B H 0.6576 0.0658 0.6708
H2B H 0.5950 0.0687 0.6241
H3B H 0.5435 0.0271 0.5699
H3X H 0.5435 -0.0271 0.5699
H4B H 0.5000 0.0271 0.6387
H3Y H 0.4565 0.0271 0.5699
O6Y O 0.2745(5) 0.0674(5) 0.7154(5)
P1Z P 0.21076(17) -0.21076(17) 0.21076(17)
O2Z O 0.2545(4) -0.1844(4) 0.2209(4)
O11Z O 0.1800(5) -0.1800(5) 0.1800(5)
O2GA O 0.1844(4) -0.2209(4) 0.2545(4)
O2EA O 0.2209(4) -0.2545(4) 0.1844(4)
O3Z O 0.2199(5) -0.1417(5) 0.2997(5)
O4Z O 0.3088(5) -0.1511(5) 0.2905(6)
O10Z O 0.2142(5) -0.0987(5) 0.2225(6)
O8Z O 0.3034(5) -0.1140(5) 0.2082(5)
Ni1B Ni 0.7241 0.00000(13) 0.71043(13)
W1H W 0.16109(3) 0.16581(3) 0.30973(3)
W1D W 0.16581(3) 0.30973(3) 0.16109(3)
W1Z W 0.30973(3) -0.16109(3) 0.16581(3)
W1GA W 0.16109(3) -0.16581(3) 0.30973(3)
W1EA W 0.16581(3) -0.30973(3) 0.16109(3)
W1M W 0.33891(3) 0.19027(3) 0.33419(3)
W1LA W 0.33891(3) -0.19027(3) 0.33419(3)
W2H W 0.11919(3) 0.25981(3) 0.26416(3)
W2D W 0.25981(3) 0.26416(3) 0.11919(3)
W2GA W 0.11919(3) -0.25981(3) 0.26416(3)
W2EA W 0.25981(3) -0.26416(3) 0.11919(3)
W2A W 0.73584(3) -0.11919(3) 0.25981(3)
W2AA W 0.73584(3) 0.11919(3) 0.25981(3)
W2C W 0.26416(3) -0.11919(3) 0.74019(3)
W2Y W 0.26416(3) 0.11919(3) 0.74019(3)
W3Z W 0.15499(4) -0.10729(4) 0.19980(4)
W3D W 0.19980(4) 0.15499(4) 0.10729(4)
W3EA W 0.19980(4) -0.15499(4) 0.10729(4)
W3H W 0.10729(4) 0.19980(4) 0.15499(4)
W3GA W 0.10729(4) -0.19980(4) 0.15499(4)
O3D O 0.2997(5) 0.2199(5) 0.1417(5)
O4M O 0.3489(5) 0.1912(5) 0.2095(6)
O5H O 0.1428(5) 0.1345(5) 0.2564(5)
O7D O 0.1779(5) 0.1030(5) 0.1390(6)
O6B O 0.7255(5) 0.0674(5) 0.7154(5)
O12B O 0.7833 0.0000(10) 0.7504(10)
O13B O 0.6860 0.0000(13) 0.7703(11)
O6X O 0.7255(5) -0.0674(5) 0.7154(5)
O8H O 0.1140(5) 0.2082(5) 0.3034(5)
O9H O 0.1406(6) 0.1311(5) 0.3502(6)
O4R O 0.1912(5) 0.2095(6) 0.3489(5)
O5D O 0.1345(5) 0.2564(5) 0.1428(5)
O8D O 0.2082(5) 0.3034(5) 0.1140(5)
O9D O 0.1311(5) 0.3502(6) 0.1406(6)
O3H O 0.1417(5) 0.2997(5) 0.2199(5)
O4W O 0.2095(6) 0.3489(5) 0.1912(5)
O5Z O 0.2564(5) -0.1428(5) 0.1345(5)
O9Z O 0.3502(6) -0.1406(6) 0.1311(5)
O3EA O 0.2997(5) -0.2199(5) 0.1417(5)
O4LA O 0.3489(5) -0.1912(5) 0.2095(6)
O5GA O 0.1428(5) -0.1345(5) 0.2564(5)
O8GA O 0.1140(5) -0.2082(5) 0.3034(5)
O9GA O 0.1406(6) -0.1311(5) 0.3502(6)
O4QA O 0.1912(5) -0.2095(6) 0.3489(5)
O5EA O 0.1345(5) -0.2564(5) 0.1428(5)
O8EA O 0.2082(5) -0.3034(5) 0.1140(5)
O9EA O 0.1311(5) -0.3502(6) 0.1406(6)
O3GA O 0.1417(5) -0.2997(5) 0.2199(5)
O4SA O 0.2095(6) -0.3489(5) 0.1912(5)
P1M P 0.28924(17) 0.28924(17) 0.28924(17)
O2M O 0.3156(4) 0.2455(4) 0.2791(4)
O11M O 0.3200(5) 0.3200(5) 0.3200(5)
O2W O 0.2791(4) 0.3156(4) 0.2455(4)
O2R O 0.2455(4) 0.2791(4) 0.3156(4)
O5M O 0.3572(5) 0.2436(5) 0.3655(5)
O8M O 0.3860(5) 0.1966(5) 0.2918(5)
O9M O 0.3594(6) 0.1498(6) 0.3689(5)
O3R O 0.2801(5) 0.2003(5) 0.3583(5)
P1LA P 0.28924(17) -0.28924(17) 0.28924(17)
O2LA O 0.3156(4) -0.2455(4) 0.2791(4)
O11LA O 0.3200(5) -0.3200(5) 0.3200(5)
O2SA O 0.2791(4) -0.3156(4) 0.2455(4)
O2QA O 0.2455(4) -0.2791(4) 0.3156(4)
O5LA O 0.3572(5) -0.2436(5) 0.3655(5)
O8LA O 0.3860(5) -0.1966(5) 0.2918(5)
O9LA O 0.3594(6) -0.1498(6) 0.3689(5)
O3QA O 0.2801(5) -0.2003(5) 0.3583(5)
O4H O 0.1511(5) 0.2905(6) 0.3088(5)
O6H O 0.0674(5) 0.2846(5) 0.2745(5)
O10H O 0.0987(5) 0.2225(6) 0.2142(5)
O4D O 0.2905(6) 0.3088(5) 0.1511(5)
O6D O 0.2846(5) 0.2745(5) 0.0674(5)
O10D O 0.2225(6) 0.2142(5) 0.0987(5)
O4GA O 0.1511(5) -0.2905(6) 0.3088(5)
O6GA O 0.0674(5) -0.2846(5) 0.2745(5)
O10GA O 0.0987(5) -0.2225(6) 0.2142(5)
O4EA O 0.2905(6) -0.3088(5) 0.1511(5)
O6EA O 0.2846(5) -0.2745(5) 0.0674(5)
O10EA O 0.2225(6) -0.2142(5) 0.0987(5)
P1A P 0.78924(17) -0.21076(17) 0.21076(17)
O2A O 0.7455(4) -0.1844(4) 0.2209(4)
O11A O 0.8200(5) -0.1800(5) 0.1800(5)
O2K O 0.8156(4) -0.2209(4) 0.2545(4)
O2F O 0.7791(4) -0.2545(4) 0.1844(4)
O3A O 0.7801(5) -0.1417(5) 0.2997(5)
O4A O 0.6912(5) -0.1511(5) 0.2905(6)
O10A O 0.7858(5) -0.0987(5) 0.2225(6)
O8A O 0.6966(5) -0.1140(5) 0.2082(5)
P1AA P 0.78924(17) 0.21076(17) 0.21076(17)
O2AA O 0.7455(4) 0.1844(4) 0.2209(4)
O11AA O 0.8200(5) 0.1800(5) 0.1800(5)
O2HA O 0.8156(4) 0.2209(4) 0.2545(4)
O2CA O 0.7791(4) 0.2545(4) 0.1844(4)
O3AA O 0.7801(5) 0.1417(5) 0.2997(5)
O4AA O 0.6912(5) 0.1511(5) 0.2905(6)
O10AA O 0.7858(5) 0.0987(5) 0.2225(6)
O8AA O 0.6966(5) 0.1140(5) 0.2082(5)
P1C P 0.21076(17) -0.21076(17) 0.78924(17)
O2C O 0.2545(4) -0.1844(4) 0.7791(4)
O11C O 0.1800(5) -0.1800(5) 0.8200(5)
O2J O 0.1844(4) -0.2209(4) 0.7455(4)
O2E O 0.2209(4) -0.2545(4) 0.8156(4)
O3C O 0.2199(5) -0.1417(5) 0.7003(5)
O4C O 0.3088(5) -0.1511(5) 0.7095(6)
O10C O 0.2142(5) -0.0987(5) 0.7775(6)
O8C O 0.3034(5) -0.1140(5) 0.7918(5)
P1Y P 0.21076(17) 0.21076(17) 0.78924(17)
O2Y O 0.2545(4) 0.1844(4) 0.7791(4)
O11Y O 0.1800(5) 0.1800(5) 0.8200(5)
O2IA O 0.1844(4) 0.2209(4) 0.7455(4)
O2DA O 0.2209(4) 0.2545(4) 0.8156(4)
O3Y O 0.2199(5) 0.1417(5) 0.7003(5)
O4Y O 0.3088(5) 0.1511(5) 0.7095(6)
O10Y O 0.2142(5) 0.0987(5) 0.7775(6)
O8Y O 0.3034(5) 0.1140(5) 0.7918(5)
O1Z O 0.1331(5) -0.0561(6) 0.2052(6)
O7Z O 0.1030(5) -0.1390(6) 0.1779(5)
O7EA O 0.1779(5) -0.1030(5) 0.1390(6)
O1D O 0.2052(6) 0.1331(5) 0.0561(6)
O7H O 0.1390(6) 0.1779(5) 0.1030(5)
O1EA O 0.2052(6) -0.1331(5) 0.0561(6)
O7GA O 0.1390(6) -0.1779(5) 0.1030(5)
O1H O 0.0561(6) 0.2052(6) 0.1331(5)
O1GA O 0.0561(6) -0.2052(6) 0.1331(5)
Ni1H Ni 0.00000(13) 0.28957(13) 0.2759
Ni1D Ni 0.28957(13) 0.2759 0.00000(13)
Ni1GA Ni 0.00000(13) -0.28957(13) 0.2759
Ni1EA Ni 0.28957(13) -0.2759 0.00000(13)
W1W W 0.33419(3) 0.33891(3) 0.19027(3)
W1R W 0.19027(3) 0.33419(3) 0.33891(3)
W1SA W 0.33419(3) -0.33891(3) 0.19027(3)
W1QA W 0.19027(3) -0.33419(3) 0.33891(3)
W1A W 0.69027(3) -0.16109(3) 0.16581(3)
W1K W 0.83891(3) -0.16581(3) 0.30973(3)
W1F W 0.83419(3) -0.30973(3) 0.16109(3)
W1AA W 0.69027(3) 0.16109(3) 0.16581(3)
W1HA W 0.83891(3) 0.16581(3) 0.30973(3)
W1CA W 0.83419(3) 0.30973(3) 0.16109(3)
W1C W 0.30973(3) -0.16109(3) 0.83419(3)
W1J W 0.16109(3) -0.16581(3) 0.69027(3)
W1E W 0.16581(3) -0.30973(3) 0.83891(3)
W1Y W 0.30973(3) 0.16109(3) 0.83419(3)
W1IA W 0.16109(3) 0.16581(3) 0.69027(3)
W1DA W 0.16581(3) 0.30973(3) 0.83891(3)
W2M W 0.38081(3) 0.23584(3) 0.24019(3)
W2W W 0.24019(3) 0.38081(3) 0.23584(3)
W2R W 0.23584(3) 0.24019(3) 0.38081(3)
W2LA W 0.38081(3) -0.23584(3) 0.24019(3)
W2SA W 0.24019(3) -0.38081(3) 0.23584(3)
W2QA W 0.23584(3) -0.24019(3) 0.38081(3)
W2K W 0.88081(3) -0.25981(3) 0.26416(3)
W2F W 0.74019(3) -0.26416(3) 0.11919(3)
W2HA W 0.88081(3) 0.25981(3) 0.26416(3)
W2CA W 0.74019(3) 0.26416(3) 0.11919(3)
W2J W 0.11919(3) -0.25981(3) 0.73584(3)
W2E W 0.25981(3) -0.26416(3) 0.88081(3)
W2IA W 0.11919(3) 0.25981(3) 0.73584(3)
W2DA W 0.25981(3) 0.26416(3) 0.88081(3)
W3M W 0.39271(4) 0.34501(4) 0.30020(4)
W3LA W 0.39271(4) -0.34501(4) 0.30020(4)
W3A W 0.84501(4) -0.10729(4) 0.19980(4)
W3AA W 0.84501(4) 0.10729(4) 0.19980(4)
W3C W 0.15499(4) -0.10729(4) 0.80020(4)
W3Y W 0.15499(4) 0.10729(4) 0.80020(4)
W3R W 0.34501(4) 0.30020(4) 0.39271(4)
W3QA W 0.34501(4) -0.30020(4) 0.39271(4)
W3F W 0.80020(4) -0.15499(4) 0.10729(4)
W3CA W 0.80020(4) 0.15499(4) 0.10729(4)
W3E W 0.19980(4) -0.15499(4) 0.89271(4)
W3DA W 0.19980(4) 0.15499(4) 0.89271(4)
W3W W 0.30020(4) 0.39271(4) 0.34501(4)
W3SA W 0.30020(4) -0.39271(4) 0.34501(4)
W3K W 0.89271(4) -0.19980(4) 0.15499(4)
W3HA W 0.89271(4) 0.19980(4) 0.15499(4)
W3J W 0.10729(4) -0.19980(4) 0.84501(4)
W3IA W 0.10729(4) 0.19980(4) 0.84501(4)
O12H O 0.0000(10) 0.2496(10) 0.2167
O13H O 0.0000(13) 0.2297(11) 0.3140
N1H N 0.0000(8) 0.3299(9) 0.3348
C1H C 0.0383(9) 0.3404(10) 0.3548(10)
H1H H 0.0658 0.3292 0.3424
C2H C 0.0403(10) 0.3670(11) 0.3928(9)
H2H H 0.0687 0.3759 0.4050
C3H C 0.0000(12) 0.3808(13) 0.4131
C4H C 0.0000(12) 0.4104(13) 0.4565
H3H H 0.0271 0.4301 0.4565
C5H C 0.0000 0.3810(19) 0.5000
H4H H 0.0271 0.3613 0.5000
C2HA C -0.0403(10) 0.3670(11) 0.3928(9)
C1HA C -0.0383(9) 0.3404(10) 0.3548(10)
H1HA H -0.0658 0.3292 0.3424
H2HA H -0.0687 0.3759 0.4050
C4I C 0.0000(12) 0.4104(13) 0.5435
C3I C 0.0000(12) 0.3808(13) 0.5869
C2I C -0.0403(10) 0.3670(11) 0.6072(9)
C1I C -0.0383(9) 0.3404(10) 0.6452(10)
N1I N 0.0000(8) 0.3299(9) 0.6652
C1IA C 0.0383(9) 0.3404(10) 0.6452(10)
H1IA H 0.0658 0.3292 0.6576
C2IA C 0.0403(10) 0.3670(11) 0.6072(9)
H2IA H 0.0687 0.3759 0.5950
H1I H -0.0658 0.3292 0.6576
H2I H -0.0687 0.3759 0.5950
H3I H -0.0271 0.4301 0.5435
H3IA H 0.0271 0.4301 0.5435
H4I H -0.0271 0.3613 0.5000
H3HA H -0.0271 0.4301 0.4565
N2H N 0.0000(10) 0.3432(9) 0.2349
C6H C 0.0391(11) 0.3646(10) 0.2198(8)
H5H H 0.0672 0.3542 0.2314
C7H C 0.0400(13) 0.4003(12) 0.1888(9)
H6H H 0.0683 0.4114 0.1784
C8H C 0.0000(14) 0.4199(13) 0.1728
C9H C 0.0000(12) 0.4578(11) 0.1386
H7H H -0.0273 0.4566 0.1192
C10H C 0.000(2) 0.5000 0.1680
H8H H -0.0271 0.5000 0.1872
C7HA C -0.0400(13) 0.4003(12) 0.1888(9)
C6HA C -0.0391(11) 0.3646(10) 0.2198(8)
H5HA H -0.0672 0.3542 0.2314
H6HA H -0.0683 0.4114 0.1784
C9K C 0.0000(12) 0.5422(11) 0.1386
C8K C 0.0000(14) 0.5801(13) 0.1728
C7K C -0.0400(13) 0.5997(12) 0.1888(9)
C6K C -0.0391(11) 0.6354(10) 0.2198(8)
N2K N 0.0000(10) 0.6568(9) 0.2349
C6GA C 0.0391(11) 0.6354(10) 0.2198(8)
H5GA H 0.0672 0.6458 0.2314
C7GA C 0.0400(13) 0.5997(12) 0.1888(9)
H6GA H 0.0683 0.5886 0.1784
H5K H -0.0672 0.6458 0.2314
H6K H -0.0683 0.5886 0.1784
H7K H 0.0273 0.5434 0.1192
H7GA H -0.0273 0.5434 0.1192
H8K H 0.0271 0.5000 0.1872
H7HA H 0.0273 0.4566 0.1192
O6HA O -0.0674(5) 0.2846(5) 0.2745(5)
O12D O 0.2496(10) 0.2167 0.0000(10)
O13D O 0.2297(11) 0.3140 0.0000(13)
N1D N 0.3299(9) 0.3348 0.0000(8)
C1D C 0.3404(10) 0.3548(10) 0.0383(9)
H1D H 0.3292 0.3424 0.0658
C2D C 0.3670(11) 0.3928(9) 0.0403(10)
H2D H 0.3759 0.4050 0.0687
C3D C 0.3808(13) 0.4131 0.0000(12)
C4D C 0.4104(13) 0.4565 0.0000(12)
H3D H 0.4301 0.4565 0.0271
C5D C 0.3810(19) 0.5000 0.0000
H4D H 0.3613 0.5000 0.0271
C2DA C 0.3670(11) 0.3928(9) -0.0403(10)
C1DA C 0.3404(10) 0.3548(10) -0.0383(9)
H1DA H 0.3292 0.3424 -0.0658
H2DA H 0.3759 0.4050 -0.0687
C4E C 0.4104(13) 0.5435 0.0000(12)
C3E C 0.3808(13) 0.5869 0.0000(12)
C2E C 0.3670(11) 0.6072(9) -0.0403(10)
C1E C 0.3404(10) 0.6452(10) -0.0383(9)
N1E N 0.3299(9) 0.6652 0.0000(8)
C1EA C 0.3404(10) 0.6452(10) 0.0383(9)
H1EA H 0.3292 0.6576 0.0658
C2EA C 0.3670(11) 0.6072(9) 0.0403(10)
H2EA H 0.3759 0.5950 0.0687
H1E H 0.3292 0.6576 -0.0658
H2E H 0.3759 0.5950 -0.0687
H3E H 0.4301 0.5435 -0.0271
H3EA H 0.4301 0.5435 0.0271
H4E H 0.3613 0.5000 -0.0271
H3DA H 0.4301 0.4565 -0.0271
N2D N 0.3432(9) 0.2349 0.0000(10)
C6D C 0.3646(10) 0.2198(8) 0.0391(11)
H5D H 0.3542 0.2314 0.0672
C7D C 0.4003(12) 0.1888(9) 0.0400(13)
H6D H 0.4114 0.1784 0.0683
C8D C 0.4199(13) 0.1728 0.0000(14)
C9D C 0.4578(11) 0.1386 0.0000(12)
H7D H 0.4566 0.1192 -0.0273
C10D C 0.5000 0.1680 0.000(2)
H8D H 0.5000 0.1872 -0.0271
C7DA C 0.4003(12) 0.1888(9) -0.0400(13)
C6DA C 0.3646(10) 0.2198(8) -0.0391(11)
H5DA H 0.3542 0.2314 -0.0672
H6DA H 0.4114 0.1784 -0.0683
C9G C 0.5422(11) 0.1386 0.0000(12)
C8G C 0.5801(13) 0.1728 0.0000(14)
C7G C 0.5997(12) 0.1888(9) -0.0400(13)
C6G C 0.6354(10) 0.2198(8) -0.0391(11)
N2G N 0.6568(9) 0.2349 0.0000(10)
C6CA C 0.6354(10) 0.2198(8) 0.0391(11)
H5CA H 0.6458 0.2314 0.0672
C7CA C 0.5997(12) 0.1888(9) 0.0400(13)
H6CA H 0.5886 0.1784 0.0683
H5G H 0.6458 0.2314 -0.0672
H6G H 0.5886 0.1784 -0.0683
H7G H 0.5434 0.1192 0.0273
H7CA H 0.5434 0.1192 -0.0273
H8G H 0.5000 0.1872 0.0271
H7DA H 0.4566 0.1192 0.0273
O6DA O 0.2846(5) 0.2745(5) -0.0674(5)
O12GA O 0.0000(10) -0.2496(10) 0.2167
O13GA O 0.0000(13) -0.2297(11) 0.3140
N1GA N 0.0000(8) -0.3299(9) 0.3348
C1GA C 0.0383(9) -0.3404(10) 0.3548(10)
H1GA H 0.0658 -0.3292 0.3424
C2GA C 0.0403(10) -0.3670(11) 0.3928(9)
H2GA H 0.0687 -0.3759 0.4050
C3GA C 0.0000(12) -0.3808(13) 0.4131
C4GA C 0.0000(12) -0.4104(13) 0.4565
H3GA H 0.0271 -0.4301 0.4565
C5GA C 0.0000 -0.3810(19) 0.5000
H4GA H 0.0271 -0.3613 0.5000
C2K C -0.0403(10) -0.3670(11) 0.3928(9)
C1K C -0.0383(9) -0.3404(10) 0.3548(10)
H1K H -0.0658 -0.3292 0.3424
H2K H -0.0687 -0.3759 0.4050
C4FA C 0.0000(12) -0.4104(13) 0.5435
C3FA C 0.0000(12) -0.3808(13) 0.5869
C2FA C -0.0403(10) -0.3670(11) 0.6072(9)
C1FA C -0.0383(9) -0.3404(10) 0.6452(10)
N1FA N 0.0000(8) -0.3299(9) 0.6652
C1J C 0.0383(9) -0.3404(10) 0.6452(10)
H1J H 0.0658 -0.3292 0.6576
C2J C 0.0403(10) -0.3670(11) 0.6072(9)
H2J H 0.0687 -0.3759 0.5950
H1FA H -0.0658 -0.3292 0.6576
H2FA H -0.0687 -0.3759 0.5950
H3FA H -0.0271 -0.4301 0.5435
H3J H 0.0271 -0.4301 0.5435
H4FA H -0.0271 -0.3613 0.5000
H3K H -0.0271 -0.4301 0.4565
N2GA N 0.0000(10) -0.3432(9) 0.2349
C6GA_2 C 0.0391(11) -0.3646(10) 0.2198(8)
H5GA_2 H 0.0672 -0.3542 0.2314
C7GA_2 C 0.0400(13) -0.4003(12) 0.1888(9)
H6GA_2 H 0.0683 -0.4114 0.1784
C8GA C 0.0000(14) -0.4199(13) 0.1728
C9GA C 0.0000(12) -0.4578(11) 0.1386
H7GA_2 H -0.0273 -0.4566 0.1192
C10GA C 0.000(2) -0.5000 0.1680
H8GA H -0.0271 -0.5000 0.1872
C7K_2 C -0.0400(13) -0.4003(12) 0.1888(9)
C6K_2 C -0.0391(11) -0.3646(10) 0.2198(8)
H5K_2 H -0.0672 -0.3542 0.2314
H6K_2 H -0.0683 -0.4114 0.1784
C9HA C 0.0000(12) -0.5422(11) 0.1386
C8HA C 0.0000(14) -0.5801(13) 0.1728
C7HA_2 C -0.0400(13) -0.5997(12) 0.1888(9)
C6HA_2 C -0.0391(11) -0.6354(10) 0.2198(8)
N2HA N 0.0000(10) -0.6568(9) 0.2349
C6H_2 C 0.0391(11) -0.6354(10) 0.2198(8)
H5H_2 H 0.0672 -0.6458 0.2314
C7H_2 C 0.0400(13) -0.5997(12) 0.1888(9)
H6H_2 H 0.0683 -0.5886 0.1784
H5HA_2 H -0.0672 -0.6458 0.2314
H6HA_2 H -0.0683 -0.5886 0.1784
H7HA_2 H 0.0273 -0.5434 0.1192
H7H_2 H -0.0273 -0.5434 0.1192
H8HA H 0.0271 -0.5000 0.1872
H7K_2 H 0.0273 -0.4566 0.1192
O6K O -0.0674(5) -0.2846(5) 0.2745(5)
O12EA O 0.2496(10) -0.2167 0.0000(10)
O13EA O 0.2297(11) -0.3140 0.0000(13)
N1EA N 0.3299(9) -0.3348 0.0000(8)
C1EA_2 C 0.3404(10) -0.3548(10) 0.0383(9)
H1EA_2 H 0.3292 -0.3424 0.0658
C2EA_2 C 0.3670(11) -0.3928(9) 0.0403(10)
H2EA_2 H 0.3759 -0.4050 0.0687
C3EA C 0.3808(13) -0.4131 0.0000(12)
C4EA C 0.4104(13) -0.4565 0.0000(12)
H3EA_2 H 0.4301 -0.4565 0.0271
C5EA C 0.3810(19) -0.5000 0.0000
H4EA H 0.3613 -0.5000 0.0271
C2E_2 C 0.3670(11) -0.3928(9) -0.0403(10)
C1E_2 C 0.3404(10) -0.3548(10) -0.0383(9)
H1E_2 H 0.3292 -0.3424 -0.0658
H2E_2 H 0.3759 -0.4050 -0.0687
C4DA C 0.4104(13) -0.5435 0.0000(12)
C3DA C 0.3808(13) -0.5869 0.0000(12)
C2DA_2 C 0.3670(11) -0.6072(9) -0.0403(10)
C1DA_2 C 0.3404(10) -0.6452(10) -0.0383(9)
N1DA N 0.3299(9) -0.6652 0.0000(8)
C1D_2 C 0.3404(10) -0.6452(10) 0.0383(9)
H1D_2 H 0.3292 -0.6576 0.0658
C2D_2 C 0.3670(11) -0.6072(9) 0.0403(10)
H2D_2 H 0.3759 -0.5950 0.0687
H1DA_2 H 0.3292 -0.6576 -0.0658
H2DA_2 H 0.3759 -0.5950 -0.0687
H3DA_2 H 0.4301 -0.5435 -0.0271
H3D_2 H 0.4301 -0.5435 0.0271
H4DA H 0.3613 -0.5000 -0.0271
H3E_2 H 0.4301 -0.4565 -0.0271
N2EA N 0.3432(9) -0.2349 0.0000(10)
C6EA C 0.3646(10) -0.2198(8) 0.0391(11)
H5EA H 0.3542 -0.2314 0.0672
C7EA C 0.4003(12) -0.1888(9) 0.0400(13)
H6EA H 0.4114 -0.1784 0.0683
C8EA C 0.4199(13) -0.1728 0.0000(14)
C9EA C 0.4578(11) -0.1386 0.0000(12)
H7EA H 0.4566 -0.1192 -0.0273
C10EA C 0.5000 -0.1680 0.000(2)
H8EA H 0.5000 -0.1872 -0.0271
C7E C 0.4003(12) -0.1888(9) -0.0400(13)
C6E C 0.3646(10) -0.2198(8) -0.0391(11)
H5E H 0.3542 -0.2314 -0.0672
H6E H 0.4114 -0.1784 -0.0683
C9BA C 0.5422(11) -0.1386 0.0000(12)
C8BA C 0.5801(13) -0.1728 0.0000(14)
C7BA C 0.5997(12) -0.1888(9) -0.0400(13)
C6BA C 0.6354(10) -0.2198(8) -0.0391(11)
N2BA N 0.6568(9) -0.2349 0.0000(10)
C6F C 0.6354(10) -0.2198(8) 0.0391(11)
H5F H 0.6458 -0.2314 0.0672
C7F C 0.5997(12) -0.1888(9) 0.0400(13)
H6F H 0.5886 -0.1784 0.0683
H5BA H 0.6458 -0.2314 -0.0672
H6BA H 0.5886 -0.1784 -0.0683
H7BA H 0.5434 -0.1192 0.0273
H7F H 0.5434 -0.1192 -0.0273
H8BA H 0.5000 -0.1872 0.0271
H7E H 0.4566 -0.1192 0.0273
O6E O 0.2846(5) -0.2745(5) -0.0674(5)
O5W O 0.3655(5) 0.3572(5) 0.2436(5)
O8W O 0.2918(5) 0.3860(5) 0.1966(5)
O9W O 0.3689(5) 0.3594(6) 0.1498(6)
O3M O 0.3583(5) 0.2801(5) 0.2003(5)
O5R O 0.2436(5) 0.3655(5) 0.3572(5)
O8R O 0.1966(5) 0.2918(5) 0.3860(5)
O9R O 0.1498(6) 0.3689(5) 0.3594(6)
O3W O 0.2003(5) 0.3583(5) 0.2801(5)
O5SA O 0.3655(5) -0.3572(5) 0.2436(5)
O8SA O 0.2918(5) -0.3860(5) 0.1966(5)
O9SA O 0.3689(5) -0.3594(6) 0.1498(6)
O3LA O 0.3583(5) -0.2801(5) 0.2003(5)
O5QA O 0.2436(5) -0.3655(5) 0.3572(5)
O8QA O 0.1966(5) -0.2918(5) 0.3860(5)
O9QA O 0.1498(6) -0.3689(5) 0.3594(6)
O3SA O 0.2003(5) -0.3583(5) 0.2801(5)
O5A O 0.7436(5) -0.1428(5) 0.1345(5)
O9A O 0.6498(6) -0.1406(6) 0.1311(5)
O3F O 0.7003(5) -0.2199(5) 0.1417(5)
O4L O 0.6511(5) -0.1912(5) 0.2095(6)
O5K O 0.8572(5) -0.1345(5) 0.2564(5)
O8K O 0.8860(5) -0.2082(5) 0.3034(5)
O9K O 0.8594(6) -0.1311(5) 0.3502(6)
O4P O 0.8088(5) -0.2095(6) 0.3489(5)
O5F O 0.8655(5) -0.2564(5) 0.1428(5)
O8F O 0.7918(5) -0.3034(5) 0.1140(5)
O9F O 0.8689(5) -0.3502(6) 0.1406(6)
O3K O 0.8583(5) -0.2997(5) 0.2199(5)
O4T O 0.7905(6) -0.3489(5) 0.1912(5)
O5AA O 0.7436(5) 0.1428(5) 0.1345(5)
O9AA O 0.6498(6) 0.1406(6) 0.1311(5)
O3CA O 0.7003(5) 0.2199(5) 0.1417(5)
O4MA O 0.6511(5) 0.1912(5) 0.2095(6)
O5HA O 0.8572(5) 0.1345(5) 0.2564(5)
O8HA O 0.8860(5) 0.2082(5) 0.3034(5)
O9HA O 0.8594(6) 0.1311(5) 0.3502(6)
O4OA O 0.8088(5) 0.2095(6) 0.3489(5)
O5CA O 0.8655(5) 0.2564(5) 0.1428(5)
O8CA O 0.7918(5) 0.3034(5) 0.1140(5)
O9CA O 0.8689(5) 0.3502(6) 0.1406(6)
O3HA O 0.8583(5) 0.2997(5) 0.2199(5)
O4TA O 0.7905(6) 0.3489(5) 0.1912(5)
O5C O 0.2564(5) -0.1428(5) 0.8655(5)
O9C O 0.3502(6) -0.1406(6) 0.8689(5)
O3E O 0.2997(5) -0.2199(5) 0.8583(5)
O4O O 0.3489(5) -0.1912(5) 0.7905(6)
O5J O 0.1428(5) -0.1345(5) 0.7436(5)
O8J O 0.1140(5) -0.2082(5) 0.6966(5)
O9J O 0.1406(6) -0.1311(5) 0.6498(6)
O4Q O 0.1912(5) -0.2095(6) 0.6511(5)
O5E O 0.1345(5) -0.2564(5) 0.8572(5)
O8E O 0.2082(5) -0.3034(5) 0.8860(5)
O9E O 0.1311(5) -0.3502(6) 0.8594(6)
O3J O 0.1417(5) -0.2997(5) 0.7801(5)
O5Y O 0.2564(5) 0.1428(5) 0.8655(5)
O9Y O 0.3502(6) 0.1406(6) 0.8689(5)
O3DA O 0.2997(5) 0.2199(5) 0.8583(5)
O5IA O 0.1428(5) 0.1345(5) 0.7436(5)
O8IA O 0.1140(5) 0.2082(5) 0.6966(5)
O9IA O 0.1406(6) 0.1311(5) 0.6498(6)
O5DA O 0.1345(5) 0.2564(5) 0.8572(5)
O8DA O 0.2082(5) 0.3034(5) 0.8860(5)
O9DA O 0.1311(5) 0.3502(6) 0.8594(6)
O3IA O 0.1417(5) 0.2997(5) 0.7801(5)
O6M O 0.4326(5) 0.2255(5) 0.2154(5)
O10M O 0.4013(5) 0.2858(5) 0.2775(6)
O6W O 0.2154(5) 0.4326(5) 0.2255(5)
O10W O 0.2775(6) 0.4013(5) 0.2858(5)
O6R O 0.2255(5) 0.2154(5) 0.4326(5)
O10R O 0.2858(5) 0.2775(6) 0.4013(5)
O6LA O 0.4326(5) -0.2255(5) 0.2154(5)
O10LA O 0.4013(5) -0.2858(5) 0.2775(6)
O6SA O 0.2154(5) -0.4326(5) 0.2255(5)
O10SA O 0.2775(6) -0.4013(5) 0.2858(5)
O6QA O 0.2255(5) -0.2154(5) 0.4326(5)
O10QA O 0.2858(5) -0.2775(6) 0.4013(5)
O6K_2 O 0.9326(5) -0.2846(5) 0.2745(5)
O10K O 0.9013(5) -0.2225(6) 0.2142(5)
O6F O 0.7154(5) -0.2745(5) 0.0674(5)
O10F O 0.7775(6) -0.2142(5) 0.0987(5)
O10HA O 0.9013(5) 0.2225(6) 0.2142(5)
O10CA O 0.7775(6) 0.2142(5) 0.0987(5)
O10J O 0.0987(5) -0.2225(6) 0.7858(5)
O10E O 0.2225(6) -0.2142(5) 0.9013(5)
O10IA O 0.0987(5) 0.2225(6) 0.7858(5)
O10DA O 0.2225(6) 0.2142(5) 0.9013(5)
O1M O 0.4439(6) 0.3669(5) 0.2948(6)
O7M O 0.3610(6) 0.3970(5) 0.3221(5)
O7R O 0.3970(5) 0.3221(5) 0.3610(6)
O1LA O 0.4439(6) -0.3669(5) 0.2948(6)
O7LA O 0.3610(6) -0.3970(5) 0.3221(5)
O7QA O 0.3970(5) -0.3221(5) 0.3610(6)
O1A O 0.8669(5) -0.0561(6) 0.2052(6)
O7A O 0.8970(5) -0.1390(6) 0.1779(5)
O7F O 0.8221(5) -0.1030(5) 0.1390(6)
O1AA O 0.8669(5) 0.0561(6) 0.2052(6)
O7AA O 0.8970(5) 0.1390(6) 0.1779(5)
O7CA O 0.8221(5) 0.1030(5) 0.1390(6)
O1C O 0.1331(5) -0.0561(6) 0.7948(6)
O7C O 0.1030(5) -0.1390(6) 0.8221(5)
O7E O 0.1779(5) -0.1030(5) 0.8610(6)
O1Y O 0.1331(5) 0.0561(6) 0.7948(6)
O7Y O 0.1030(5) 0.1390(6) 0.8221(5)
O7DA O 0.1779(5) 0.1030(5) 0.8610(6)
O1R O 0.3669(5) 0.2948(6) 0.4439(6)
O7W O 0.3221(5) 0.3610(6) 0.3970(5)
O1QA O 0.3669(5) -0.2948(6) 0.4439(6)
O7SA O 0.3221(5) -0.3610(6) 0.3970(5)
O1F O 0.7948(6) -0.1331(5) 0.0561(6)
O7K O 0.8610(6) -0.1779(5) 0.1030(5)
O1CA O 0.7948(6) 0.1331(5) 0.0561(6)
O7HA O 0.8610(6) 0.1779(5) 0.1030(5)
O1E O 0.2052(6) -0.1331(5) 0.9439(6)
O7J O 0.1390(6) -0.1779(5) 0.8970(5)
O1DA O 0.2052(6) 0.1331(5) 0.9439(6)
O7IA O 0.1390(6) 0.1779(5) 0.8970(5)
O1W O 0.2948(6) 0.4439(6) 0.3669(5)
O1SA O 0.2948(6) -0.4439(6) 0.3669(5)
O1K O 0.9439(6) -0.2052(6) 0.1331(5)
O1HA O 0.9439(6) 0.2052(6) 0.1331(5)
O1J O 0.0561(6) -0.2052(6) 0.8669(5)
O1IA O 0.0561(6) 0.2052(6) 0.8669(5)
Ni1M Ni 0.50000(13) 0.2241 0.21043(13)
Ni1W Ni 0.21043(13) 0.50000(13) 0.2241
Ni1R Ni 0.2241 0.21043(13) 0.50000(13)
Ni1LA Ni 0.50000(13) -0.2241 0.21043(13)
O12M O 0.5000(10) 0.2833 0.2504(10)
O13M O 0.5000(13) 0.1860 0.2703(11)
O12W O 0.2504(10) 0.5000(10) 0.2833
O13W O 0.2703(11) 0.5000(13) 0.1860
O12R O 0.2833 0.2504(10) 0.5000(10)
O13R O 0.1860 0.2703(11) 0.5000(13)
O12LA O 0.5000(10) -0.2833 0.2504(10)
O13LA O 0.5000(13) -0.1860 0.2703(11)
W2B W 0.73584(3) 0.11919(3) 0.74019(3)
W2X W 0.73584(3) -0.11919(3) 0.74019(3)
W1L W 0.66109(3) -0.19027(3) 0.33419(3)
W1MA W 0.66109(3) 0.19027(3) 0.33419(3)
W1O W 0.33891(3) -0.19027(3) 0.66581(3)
W1JA W 0.33891(3) 0.19027(3) 0.66581(3)
O4V O 0.2095(6) -0.3489(5) 0.8088(5)
O4JA O 0.3489(5) 0.1912(5) 0.7905(6)
O4NA O 0.1912(5) 0.2095(6) 0.6511(5)
O4RA O 0.2095(6) 0.3489(5) 0.8088(5)
O4K O 0.8489(5) -0.2905(6) 0.3088(5)
O4F O 0.7095(6) -0.3088(5) 0.1511(5)
O4HA O 0.8489(5) 0.2905(6) 0.3088(5)
O6HA_2 O 0.9326(5) 0.2846(5) 0.2745(5)
O4CA O 0.7095(6) 0.3088(5) 0.1511(5)
O6CA O 0.7154(5) 0.2745(5) 0.0674(5)
O4J O 0.1511(5) -0.2905(6) 0.6912(5)
O6J O 0.0674(5) -0.2846(5) 0.7255(5)
O4E O 0.2905(6) -0.3088(5) 0.8489(5)
O6E_2 O 0.2846(5) -0.2745(5) 0.9326(5)
O4IA O 0.1511(5) 0.2905(6) 0.6912(5)
O6IA O 0.0674(5) 0.2846(5) 0.7255(5)
O4DA O 0.2905(6) 0.3088(5) 0.8489(5)
O6DA_2 O 0.2846(5) 0.2745(5) 0.9326(5)
Ni1I Ni 0.00000(13) 0.28957(13) 0.7241
Ni1K Ni 0.00000(13) 0.71043(13) 0.2759
W2HA_2 W -0.11919(3) 0.25981(3) 0.26416(3)
Ni1E Ni 0.28957(13) 0.7241 0.00000(13)
Ni1G Ni 0.71043(13) 0.2759 0.00000(13)
W2DA_2 W 0.25981(3) 0.26416(3) -0.11919(3)
Ni1FA Ni 0.00000(13) -0.28957(13) 0.7241
Ni1HA Ni 0.00000(13) -0.71043(13) 0.2759
W2K_2 W -0.11919(3) -0.25981(3) 0.26416(3)
Ni1DA Ni 0.28957(13) -0.7241 0.00000(13)
Ni1BA Ni 0.71043(13) -0.2759 0.00000(13)
W2E_2 W 0.25981(3) -0.26416(3) -0.11919(3)
W2L W 0.61919(3) -0.23584(3) 0.24019(3)
W2P W 0.76416(3) -0.24019(3) 0.38081(3)
W2T W 0.75981(3) -0.38081(3) 0.23584(3)
W2MA W 0.61919(3) 0.23584(3) 0.24019(3)
W2OA W 0.76416(3) 0.24019(3) 0.38081(3)
W2TA W 0.75981(3) 0.38081(3) 0.23584(3)
W2O W 0.38081(3) -0.23584(3) 0.75981(3)
W2Q W 0.23584(3) -0.24019(3) 0.61919(3)
Ni1SA Ni 0.21043(13) -0.50000(13) 0.2241
Ni1QA Ni 0.2241 -0.21043(13) 0.50000(13)
Ni1K_2 Ni 1.00000(13) -0.28957(13) 0.2759
N1M N 0.5000(8) 0.1652 0.1701(9)
N2M N 0.5000(10) 0.2651 0.1568(9)
O6MA O 0.5674(5) 0.2255(5) 0.2154(5)
N1W N 0.1701(9) 0.5000(8) 0.1652
N2W N 0.1568(9) 0.5000(10) 0.2651
O6SA_2 O 0.2154(5) 0.5674(5) 0.2255(5)
N1R N 0.1652 0.1701(9) 0.5000(8)
N2R N 0.2651 0.1568(9) 0.5000(10)
O6NA O 0.2255(5) 0.2154(5) 0.5674(5)
N1LA N 0.5000(8) -0.1652 0.1701(9)
N2LA N 0.5000(10) -0.2651 0.1568(9)
O6L O 0.5674(5) -0.2255(5) 0.2154(5)
loop_
_geom_bond_atom_site_label_1
_geom_bond_atom_site_label_2
_geom_bond_site_symmetry_1
_geom_bond_site_symmetry_2
W1 O2 1_555 1_555
W2 O2 1_555 1_555
W3 O1 1_555 1_555
P1 O2 1_555 1_555
O3 W2 1_555 1_555
O4 W2 1_555 1_555
O5 W1 1_555 1_555
O6 W2 1_555 1_555
O7 W3 1_555 1_555
O8 W1 1_555 1_555
O9 W1 1_555 1_555
O10 W2 1_555 1_555
O11 W3 1_555 1_555
Ni1 O6 1_555 1_555
O12 Ni1 1_555 1_555
O13 Ni1 1_555 1_555
N1 Ni1 1_555 1_555
C1 N1 1_555 1_555
H1 C1 1_555 1_555
C2 C1 1_555 1_555
H2 C2 1_555 1_555
C3 C2 1_555 1_555
C4 C3 1_555 1_555
H3 C4 1_555 1_555
C5 C4 1_555 1_555
H4 C5 1_555 1_555
N2 Ni1 1_555 1_555
C6 N2 1_555 1_555
H5 C6 1_555 1_555
C7 C6 1_555 1_555
H6 C7 1_555 1_555
C8 C7 1_555 1_555
C9 C8 1_555 1_555
H7 C9 1_555 1_555
C10 C9 1_555 1_555
H8 C10 1_555 1_555
O2H P1 1_555 1_555
O2D P1 1_555 1_555
C2Z C3 1_555 1_555
C1Z N1 1_555 1_555
H1Z C1Z 1_555 1_555
H2Z C2Z 1_555 1_555
C4A C5 1_555 1_555
C3A C4A 1_555 1_555
C2A C3A 1_555 1_555
C1A C2A 1_555 1_555
N1A C1A 1_555 1_555
C1AA N1A 1_555 1_555
H1AA C1AA 1_555 1_555
C2AA C3A 1_555 1_555
H2AA C2AA 1_555 1_555
H1A C1A 1_555 1_555
H2A C2A 1_555 1_555
H3A C4A 1_555 1_555
H3AA C4A 1_555 1_555
H4A C5 1_555 1_555
H3Z C4 1_555 1_555
C7Z C8 1_555 1_555
C6Z N2 1_555 1_555
H5Z C6Z 1_555 1_555
H6Z C7Z 1_555 1_555
C9C C10 1_555 1_555
C8C C9C 1_555 1_555
C7C C8C 1_555 1_555
C6C C7C 1_555 1_555
N2C C6C 1_555 1_555
C6Y N2C 1_555 1_555
H5Y C6Y 1_555 1_555
C7Y C8C 1_555 1_555
H6Y C7Y 1_555 1_555
H5C C6C 1_555 1_555
H6C C7C 1_555 1_555
H7C C9C 1_555 1_555
H7Y C9C 1_555 1_555
H8C C10 1_555 1_555
H7Z C9 1_555 1_555
O6Z Ni1 1_555 1_555
Ni1A N1A 1_555 1_555
Ni1C N2C 1_555 1_555
W2Z O6Z 1_555 1_555
O6A Ni1A 1_555 1_555
O12A Ni1A 1_555 1_555
O13A Ni1A 1_555 1_555
N2A Ni1A 1_555 1_555
C6A N2A 1_555 1_555
H5A C6A 1_555 1_555
C7A C6A 1_555 1_555
H6A C7A 1_555 1_555
C8A C7A 1_555 1_555
C9A C8A 1_555 1_555
H7A C9A 1_555 1_555
C10A C9A 1_555 1_555
H8A C10A 1_555 1_555
C7AA C8A 1_555 1_555
C6AA N2A 1_555 1_555
H5AA C6AA 1_555 1_555
H6AA C7AA 1_555 1_555
C9B C10A 1_555 1_555
C8B C9B 1_555 1_555
C7B C8B 1_555 1_555
C6B C7B 1_555 1_555
N2B C6B 1_555 1_555
C6X N2B 1_555 1_555
H5X C6X 1_555 1_555
C7X C8B 1_555 1_555
H6X C7X 1_555 1_555
H5B C6B 1_555 1_555
H6B C7B 1_555 1_555
H7B C9B 1_555 1_555
H7X C9B 1_555 1_555
H8B C10A 1_555 1_555
H7AA C9A 1_555 1_555
O6AA Ni1A 1_555 1_555
O6C Ni1C 1_555 1_555
O12C Ni1C 1_555 1_555
O13C Ni1C 1_555 1_555
N1C Ni1C 1_555 1_555
C1C N1C 1_555 1_555
H1C C1C 1_555 1_555
C2C C1C 1_555 1_555
H2C C2C 1_555 1_555
C3C C2C 1_555 1_555
C4C C3C 1_555 1_555
H3C C4C 1_555 1_555
C5C C4C 1_555 1_555
H4C C5C 1_555 1_555
C2Y C3C 1_555 1_555
C1Y N1C 1_555 1_555
H1Y C1Y 1_555 1_555
H2Y C2Y 1_555 1_555
C4B C5C 1_555 1_555
C3B C4B 1_555 1_555
C2B C3B 1_555 1_555
C1B C2B 1_555 1_555
N1B C1B 1_555 1_555
C1X N1B 1_555 1_555
H1X C1X 1_555 1_555
C2X C3B 1_555 1_555
H2X C2X 1_555 1_555
H1B C1B 1_555 1_555
H2B C2B 1_555 1_555
H3B C4B 1_555 1_555
H3X C4B 1_555 1_555
H4B C5C 1_555 1_555
H3Y C4C 1_555 1_555
O6Y Ni1C 1_555 1_555
P1Z O2Z 1_555 1_555
O2Z W2Z 1_555 1_555
O11Z P1Z 1_555 1_555
O2GA P1Z 1_555 1_555
O2EA P1Z 1_555 1_555
O3Z W2Z 1_555 1_555
O4Z W2Z 1_555 1_555
O10Z W2Z 1_555 1_555
O8Z W2Z 1_555 1_555
Ni1B N2B 1_555 1_555
W1H O3 1_555 1_555
W1D O2D 1_555 1_555
W1Z O2Z 1_555 1_555
W1GA O2GA 1_555 1_555
W1EA O2EA 1_555 1_555
W1M O4 1_555 1_555
W1LA O4Z 1_555 1_555
W2H O2H 1_555 1_555
W2D O2D 1_555 1_555
W2GA O2GA 1_555 1_555
W2EA O2EA 1_555 1_555
W2A O6A 1_555 1_555
W2AA O6AA 1_555 1_555
W2C O6C 1_555 1_555
W2Y O6Y 1_555 1_555
W3Z O11Z 1_555 1_555
W3D O5 1_555 1_555
W3EA O11Z 1_555 1_555
W3H O7 1_555 1_555
W3GA O11Z 1_555 1_555
O3D W1 1_555 1_555
O4M W1 1_555 1_555
O5H W3 1_555 1_555
O7D W3 1_555 1_555
O6B Ni1B 1_555 1_555
O12B Ni1B 1_555 1_555
O13B Ni1B 1_555 1_555
O6X Ni1B 1_555 1_555
O8H W1H 1_555 1_555
O9H W1H 1_555 1_555
O4R W1H 1_555 1_555
O5D W1D 1_555 1_555
O8D W1D 1_555 1_555
O9D W1D 1_555 1_555
O3H W1D 1_555 1_555
O4W W1D 1_555 1_555
O5Z W1Z 1_555 1_555
O9Z W1Z 1_555 1_555
O3EA W1Z 1_555 1_555
O4LA W1Z 1_555 1_555
O5GA W1GA 1_555 1_555
O8GA W1GA 1_555 1_555
O9GA W1GA 1_555 1_555
O4QA W1GA 1_555 1_555
O5EA W1EA 1_555 1_555
O8EA W1EA 1_555 1_555
O9EA W1EA 1_555 1_555
O3GA W1EA 1_555 1_555
O4SA W1EA 1_555 1_555
P1M O2M 1_555 1_555
O2M W1M 1_555 1_555
O11M P1M 1_555 1_555
O2W P1M 1_555 1_555
O2R P1M 1_555 1_555
O5M W1M 1_555 1_555
O8M W1M 1_555 1_555
O9M W1M 1_555 1_555
O3R W1M 1_555 1_555
P1LA O2LA 1_555 1_555
O2LA W1LA 1_555 1_555
O11LA P1LA 1_555 1_555
O2SA P1LA 1_555 1_555
O2QA P1LA 1_555 1_555
O5LA W1LA 1_555 1_555
O8LA W1LA 1_555 1_555
O9LA W1LA 1_555 1_555
O3QA W1LA 1_555 1_555
O4H W2H 1_555 1_555
O6H W2H 1_555 1_555
O10H W2H 1_555 1_555
O4D W2D 1_555 1_555
O6D W2D 1_555 1_555
O10D W2D 1_555 1_555
O4GA W2GA 1_555 1_555
O6GA W2GA 1_555 1_555
O10GA W2GA 1_555 1_555
O4EA W2EA 1_555 1_555
O6EA W2EA 1_555 1_555
O10EA W2EA 1_555 1_555
P1A O2A 1_555 1_555
O2A W2A 1_555 1_555
O11A P1A 1_555 1_555
O2K P1A 1_555 1_555
O2F P1A 1_555 1_555
O3A W2A 1_555 1_555
O4A W2A 1_555 1_555
O10A W2A 1_555 1_555
O8A W2A 1_555 1_555
P1AA O2AA 1_555 1_555
O2AA W2AA 1_555 1_555
O11AA P1AA 1_555 1_555
O2HA P1AA 1_555 1_555
O2CA P1AA 1_555 1_555
O3AA W2AA 1_555 1_555
O4AA W2AA 1_555 1_555
O10AA W2AA 1_555 1_555
O8AA W2AA 1_555 1_555
P1C O2C 1_555 1_555
O2C W2C 1_555 1_555
O11C P1C 1_555 1_555
O2J P1C 1_555 1_555
O2E P1C 1_555 1_555
O3C W2C 1_555 1_555
O4C W2C 1_555 1_555
O10C W2C 1_555 1_555
O8C W2C 1_555 1_555
P1Y O2Y 1_555 1_555
O2Y W2Y 1_555 1_555
O11Y P1Y 1_555 1_555
O2IA P1Y 1_555 1_555
O2DA P1Y 1_555 1_555
O3Y W2Y 1_555 1_555
O4Y W2Y 1_555 1_555
O10Y W2Y 1_555 1_555
O8Y W2Y 1_555 1_555
O1Z W3Z 1_555 1_555
O7Z W3Z 1_555 1_555
O7EA W3Z 1_555 1_555
O1D W3D 1_555 1_555
O7H W3D 1_555 1_555
O1EA W3EA 1_555 1_555
O7GA W3EA 1_555 1_555
O1H W3H 1_555 1_555
O1GA W3GA 1_555 1_555
Ni1H O6H 1_555 1_555
Ni1D O6D 1_555 1_555
Ni1GA O6GA 1_555 1_555
Ni1EA O6EA 1_555 1_555
W1W O2W 1_555 1_555
W1R O2R 1_555 1_555
W1SA O2SA 1_555 1_555
W1QA O2QA 1_555 1_555
W1A O2A 1_555 1_555
W1K O2K 1_555 1_555
W1F O2F 1_555 1_555
W1AA O2AA 1_555 1_555
W1HA O2HA 1_555 1_555
W1CA O2CA 1_555 1_555
W1C O2C 1_555 1_555
W1J O2J 1_555 1_555
W1E O2E 1_555 1_555
W1Y O2Y 1_555 1_555
W1IA O2IA 1_555 1_555
W1DA O2DA 1_555 1_555
W2M O4M 1_555 1_555
W2W O4W 1_555 1_555
W2R O4R 1_555 1_555
W2LA O4LA 1_555 1_555
W2SA O4SA 1_555 1_555
W2QA O4QA 1_555 1_555
W2K O2K 1_555 1_555
W2F O2F 1_555 1_555
W2HA O2HA 1_555 1_555
W2CA O2CA 1_555 1_555
W2J O2J 1_555 1_555
W2E O2E 1_555 1_555
W2IA O2IA 1_555 1_555
W2DA O2DA 1_555 1_555
W3M O11M 1_555 1_555
W3LA O11LA 1_555 1_555
W3A O11A 1_555 1_555
W3AA O11AA 1_555 1_555
W3C O11C 1_555 1_555
W3Y O11Y 1_555 1_555
W3R O11M 1_555 1_555
W3QA O11LA 1_555 1_555
W3F O11A 1_555 1_555
W3CA O11AA 1_555 1_555
W3E O11C 1_555 1_555
W3DA O11Y 1_555 1_555
W3W O11M 1_555 1_555
W3SA O11LA 1_555 1_555
W3K O11A 1_555 1_555
W3HA O11AA 1_555 1_555
W3J O11C 1_555 1_555
W3IA O11Y 1_555 1_555
O12H Ni1H 1_555 1_555
O13H Ni1H 1_555 1_555
N1H Ni1H 1_555 1_555
C1H N1H 1_555 1_555
H1H C1H 1_555 1_555
C2H C1H 1_555 1_555
H2H C2H 1_555 1_555
C3H C2H 1_555 1_555
C4H C3H 1_555 1_555
H3H C4H 1_555 1_555
C5H C4H 1_555 1_555
H4H C5H 1_555 1_555
C2HA C3H 1_555 1_555
C1HA N1H 1_555 1_555
H1HA C1HA 1_555 1_555
H2HA C2HA 1_555 1_555
C4I C5H 1_555 1_555
C3I C4I 1_555 1_555
C2I C3I 1_555 1_555
C1I C2I 1_555 1_555
N1I C1I 1_555 1_555
C1IA N1I 1_555 1_555
H1IA C1IA 1_555 1_555
C2IA C3I 1_555 1_555
H2IA C2IA 1_555 1_555
H1I C1I 1_555 1_555
H2I C2I 1_555 1_555
H3I C4I 1_555 1_555
H3IA C4I 1_555 1_555
H4I C5H 1_555 1_555
H3HA C4H 1_555 1_555
N2H Ni1H 1_555 1_555
C6H N2H 1_555 1_555
H5H C6H 1_555 1_555
C7H C6H 1_555 1_555
H6H C7H 1_555 1_555
C8H C7H 1_555 1_555
C9H C8H 1_555 1_555
H7H C9H 1_555 1_555
C10H C9H 1_555 1_555
H8H C10H 1_555 1_555
C7HA C8H 1_555 1_555
C6HA N2H 1_555 1_555
H5HA C6HA 1_555 1_555
H6HA C7HA 1_555 1_555
C9K C10H 1_555 1_555
C8K C9K 1_555 1_555
C7K C8K 1_555 1_555
C6K C7K 1_555 1_555
N2K C6K 1_555 1_555
C6GA N2K 1_555 1_555
H5GA C6GA 1_555 1_555
C7GA C8K 1_555 1_555
H6GA C7GA 1_555 1_555
H5K C6K 1_555 1_555
H6K C7K 1_555 1_555
H7K C9K 1_555 1_555
H7GA C9K 1_555 1_555
H8K C10H 1_555 1_555
H7HA C9H 1_555 1_555
O6HA Ni1H 1_555 1_555
O12D Ni1D 1_555 1_555
O13D Ni1D 1_555 1_555
N1D Ni1D 1_555 1_555
C1D N1D 1_555 1_555
H1D C1D 1_555 1_555
C2D C1D 1_555 1_555
H2D C2D 1_555 1_555
C3D C2D 1_555 1_555
C4D C3D 1_555 1_555
H3D C4D 1_555 1_555
C5D C4D 1_555 1_555
H4D C5D 1_555 1_555
C2DA C3D 1_555 1_555
C1DA N1D 1_555 1_555
H1DA C1DA 1_555 1_555
H2DA C2DA 1_555 1_555
C4E C5D 1_555 1_555
C3E C4E 1_555 1_555
C2E C3E 1_555 1_555
C1E C2E 1_555 1_555
N1E C1E 1_555 1_555
C1EA N1E 1_555 1_555
H1EA C1EA 1_555 1_555
C2EA C3E 1_555 1_555
H2EA C2EA 1_555 1_555
H1E C1E 1_555 1_555
H2E C2E 1_555 1_555
H3E C4E 1_555 1_555
H3EA C4E 1_555 1_555
H4E C5D 1_555 1_555
H3DA C4D 1_555 1_555
N2D Ni1D 1_555 1_555
C6D N2D 1_555 1_555
H5D C6D 1_555 1_555
C7D C6D 1_555 1_555
H6D C7D 1_555 1_555
C8D C7D 1_555 1_555
C9D C8D 1_555 1_555
H7D C9D 1_555 1_555
C10D C9D 1_555 1_555
H8D C10D 1_555 1_555
C7DA C8D 1_555 1_555
C6DA N2D 1_555 1_555
H5DA C6DA 1_555 1_555
H6DA C7DA 1_555 1_555
C9G C10D 1_555 1_555
C8G C9G 1_555 1_555
C7G C8G 1_555 1_555
C6G C7G 1_555 1_555
N2G C6G 1_555 1_555
C6CA N2G 1_555 1_555
H5CA C6CA 1_555 1_555
C7CA C8G 1_555 1_555
H6CA C7CA 1_555 1_555
H5G C6G 1_555 1_555
H6G C7G 1_555 1_555
H7G C9G 1_555 1_555
H7CA C9G 1_555 1_555
H8G C10D 1_555 1_555
H7DA C9D 1_555 1_555
O6DA Ni1D 1_555 1_555
O12GA Ni1GA 1_555 1_555
O13GA Ni1GA 1_555 1_555
N1GA Ni1GA 1_555 1_555
C1GA N1GA 1_555 1_555
H1GA C1GA 1_555 1_555
C2GA C1GA 1_555 1_555
H2GA C2GA 1_555 1_555
C3GA C2GA 1_555 1_555
C4GA C3GA 1_555 1_555
H3GA C4GA 1_555 1_555
C5GA C4GA 1_555 1_555
H4GA C5GA 1_555 1_555
C2K C3GA 1_555 1_555
C1K N1GA 1_555 1_555
H1K C1K 1_555 1_555
H2K C2K 1_555 1_555
C4FA C5GA 1_555 1_555
C3FA C4FA 1_555 1_555
C2FA C3FA 1_555 1_555
C1FA C2FA 1_555 1_555
N1FA C1FA 1_555 1_555
C1J N1FA 1_555 1_555
H1J C1J 1_555 1_555
C2J C3FA 1_555 1_555
H2J C2J 1_555 1_555
H1FA C1FA 1_555 1_555
H2FA C2FA 1_555 1_555
H3FA C4FA 1_555 1_555
H3J C4FA 1_555 1_555
H4FA C5GA 1_555 1_555
H3K C4GA 1_555 1_555
N2GA Ni1GA 1_555 1_555
C6GA_2 N2GA 1_555 1_555
H5GA_2 C6GA_2 1_555 1_555
C7GA_2 C6GA_2 1_555 1_555
H6GA_2 C7GA_2 1_555 1_555
C8GA C7GA_2 1_555 1_555
C9GA C8GA 1_555 1_555
H7GA_2 C9GA 1_555 1_555
C10GA C9GA 1_555 1_555
H8GA C10GA 1_555 1_555
C7K_2 C8GA 1_555 1_555
C6K_2 N2GA 1_555 1_555
H5K_2 C6K_2 1_555 1_555
H6K_2 C7K_2 1_555 1_555
C9HA C10GA 1_555 1_555
C8HA C9HA 1_555 1_555
C7HA_2 C8HA 1_555 1_555
C6HA_2 C7HA_2 1_555 1_555
N2HA C6HA_2 1_555 1_555
C6H_2 N2HA 1_555 1_555
H5H_2 C6H_2 1_555 1_555
C7H_2 C8HA 1_555 1_555
H6H_2 C7H_2 1_555 1_555
H5HA_2 C6HA_2 1_555 1_555
H6HA_2 C7HA_2 1_555 1_555
H7HA_2 C9HA 1_555 1_555
H7H_2 C9HA 1_555 1_555
H8HA C10GA 1_555 1_555
H7K_2 C9GA 1_555 1_555
O6K Ni1GA 1_555 1_555
O12EA Ni1EA 1_555 1_555
O13EA Ni1EA 1_555 1_555
N1EA Ni1EA 1_555 1_555
C1EA_2 N1EA 1_555 1_555
H1EA_2 C1EA_2 1_555 1_555
C2EA_2 C1EA_2 1_555 1_555
H2EA_2 C2EA_2 1_555 1_555
C3EA C2EA_2 1_555 1_555
C4EA C3EA 1_555 1_555
H3EA_2 C4EA 1_555 1_555
C5EA C4EA 1_555 1_555
H4EA C5EA 1_555 1_555
C2E_2 C3EA 1_555 1_555
C1E_2 N1EA 1_555 1_555
H1E_2 C1E_2 1_555 1_555
H2E_2 C2E_2 1_555 1_555
C4DA C5EA 1_555 1_555
C3DA C4DA 1_555 1_555
C2DA_2 C3DA 1_555 1_555
C1DA_2 C2DA_2 1_555 1_555
N1DA C1DA_2 1_555 1_555
C1D_2 N1DA 1_555 1_555
H1D_2 C1D_2 1_555 1_555
C2D_2 C3DA 1_555 1_555
H2D_2 C2D_2 1_555 1_555
H1DA_2 C1DA_2 1_555 1_555
H2DA_2 C2DA_2 1_555 1_555
H3DA_2 C4DA 1_555 1_555
H3D_2 C4DA 1_555 1_555
H4DA C5EA 1_555 1_555
H3E_2 C4EA 1_555 1_555
N2EA Ni1EA 1_555 1_555
C6EA N2EA 1_555 1_555
H5EA C6EA 1_555 1_555
C7EA C6EA 1_555 1_555
H6EA C7EA 1_555 1_555
C8EA C7EA 1_555 1_555
C9EA C8EA 1_555 1_555
H7EA C9EA 1_555 1_555
C10EA C9EA 1_555 1_555
H8EA C10EA 1_555 1_555
C7E C8EA 1_555 1_555
C6E N2EA 1_555 1_555
H5E C6E 1_555 1_555
H6E C7E 1_555 1_555
C9BA C10EA 1_555 1_555
C8BA C9BA 1_555 1_555
C7BA C8BA 1_555 1_555
C6BA C7BA 1_555 1_555
N2BA C6BA 1_555 1_555
C6F N2BA 1_555 1_555
H5F C6F 1_555 1_555
C7F C8BA 1_555 1_555
H6F C7F 1_555 1_555
H5BA C6BA 1_555 1_555
H6BA C7BA 1_555 1_555
H7BA C9BA 1_555 1_555
H7F C9BA 1_555 1_555
H8BA C10EA 1_555 1_555
H7E C9EA 1_555 1_555
O6E Ni1EA 1_555 1_555
O5W W1W 1_555 1_555
O8W W1W 1_555 1_555
O9W W1W 1_555 1_555
O3M W1W 1_555 1_555
O5R W1R 1_555 1_555
O8R W1R 1_555 1_555
O9R W1R 1_555 1_555
O3W W1R 1_555 1_555
O5SA W1SA 1_555 1_555
O8SA W1SA 1_555 1_555
O9SA W1SA 1_555 1_555
O3LA W1SA 1_555 1_555
O5QA W1QA 1_555 1_555
O8QA W1QA 1_555 1_555
O9QA W1QA 1_555 1_555
O3SA W1QA 1_555 1_555
O5A W1A 1_555 1_555
O9A W1A 1_555 1_555
O3F W1A 1_555 1_555
O4L W1A 1_555 1_555
O5K W1K 1_555 1_555
O8K W1K 1_555 1_555
O9K W1K 1_555 1_555
O4P W1K 1_555 1_555
O5F W1F 1_555 1_555
O8F W1F 1_555 1_555
O9F W1F 1_555 1_555
O3K W1F 1_555 1_555
O4T W1F 1_555 1_555
O5AA W1AA 1_555 1_555
O9AA W1AA 1_555 1_555
O3CA W1AA 1_555 1_555
O4MA W1AA 1_555 1_555
O5HA W1HA 1_555 1_555
O8HA W1HA 1_555 1_555
O9HA W1HA 1_555 1_555
O4OA W1HA 1_555 1_555
O5CA W1CA 1_555 1_555
O8CA W1CA 1_555 1_555
O9CA W1CA 1_555 1_555
O3HA W1CA 1_555 1_555
O4TA W1CA 1_555 1_555
O5C W1C 1_555 1_555
O9C W1C 1_555 1_555
O3E W1C 1_555 1_555
O4O W1C 1_555 1_555
O5J W1J 1_555 1_555
O8J W1J 1_555 1_555
O9J W1J 1_555 1_555
O4Q W1J 1_555 1_555
O5E W1E 1_555 1_555
O8E W1E 1_555 1_555
O9E W1E 1_555 1_555
O3J W1E 1_555 1_555
O5Y W1Y 1_555 1_555
O9Y W1Y 1_555 1_555
O3DA W1Y 1_555 1_555
O5IA W1IA 1_555 1_555
O8IA W1IA 1_555 1_555
O9IA W1IA 1_555 1_555
O5DA W1DA 1_555 1_555
O8DA W1DA 1_555 1_555
O9DA W1DA 1_555 1_555
O3IA W1DA 1_555 1_555
O6M W2M 1_555 1_555
O10M W2M 1_555 1_555
O6W W2W 1_555 1_555
O10W W2W 1_555 1_555
O6R W2R 1_555 1_555
O10R W2R 1_555 1_555
O6LA W2LA 1_555 1_555
O10LA W2LA 1_555 1_555
O6SA W2SA 1_555 1_555
O10SA W2SA 1_555 1_555
O6QA W2QA 1_555 1_555
O10QA W2QA 1_555 1_555
O6K_2 W2K 1_555 1_555
O10K W2K 1_555 1_555
O6F W2F 1_555 1_555
O10F W2F 1_555 1_555
O10HA W2HA 1_555 1_555
O10CA W2CA 1_555 1_555
O10J W2J 1_555 1_555
O10E W2E 1_555 1_555
O10IA W2IA 1_555 1_555
O10DA W2DA 1_555 1_555
O1M W3M 1_555 1_555
O7M W3M 1_555 1_555
O7R W3M 1_555 1_555
O1LA W3LA 1_555 1_555
O7LA W3LA 1_555 1_555
O7QA W3LA 1_555 1_555
O1A W3A 1_555 1_555
O7A W3A 1_555 1_555
O7F W3A 1_555 1_555
O1AA W3AA 1_555 1_555
O7AA W3AA 1_555 1_555
O7CA W3AA 1_555 1_555
O1C W3C 1_555 1_555
O7C W3C 1_555 1_555
O7E W3C 1_555 1_555
O1Y W3Y 1_555 1_555
O7Y W3Y 1_555 1_555
O7DA W3Y 1_555 1_555
O1R W3R 1_555 1_555
O7W W3R 1_555 1_555
O1QA W3QA 1_555 1_555
O7SA W3QA 1_555 1_555
O1F W3F 1_555 1_555
O7K W3F 1_555 1_555
O1CA W3CA 1_555 1_555
O7HA W3CA 1_555 1_555
O1E W3E 1_555 1_555
O7J W3E 1_555 1_555
O1DA W3DA 1_555 1_555
O7IA W3DA 1_555 1_555
O1W W3W 1_555 1_555
O1SA W3SA 1_555 1_555
O1K W3K 1_555 1_555
O1HA W3HA 1_555 1_555
O1J W3J 1_555 1_555
O1IA W3IA 1_555 1_555
Ni1M O6M 1_555 1_555
Ni1W O6W 1_555 1_555
Ni1R O6R 1_555 1_555
Ni1LA O6LA 1_555 1_555
O12M Ni1M 1_555 1_555
O13M Ni1M 1_555 1_555
O12W Ni1W 1_555 1_555
O13W Ni1W 1_555 1_555
O12R Ni1R 1_555 1_555
O13R Ni1R 1_555 1_555
O12LA Ni1LA 1_555 1_555
O13LA Ni1LA 1_555 1_555
W2B O6B 1_555 1_555
W2X O6X 1_555 1_555
W1L O4A 1_555 1_555
W1MA O4AA 1_555 1_555
W1O O4C 1_555 1_555
W1JA O4Y 1_555 1_555
O4V W1E 1_555 1_555
O4JA W1Y 1_555 1_555
O4NA W1IA 1_555 1_555
O4RA W1DA 1_555 1_555
O4K W2K 1_555 1_555
O4F W2F 1_555 1_555
O4HA W2HA 1_555 1_555
O6HA_2 W2HA 1_555 1_555
O4CA W2CA 1_555 1_555
O6CA W2CA 1_555 1_555
O4J W2J 1_555 1_555
O6J W2J 1_555 1_555
O4E W2E 1_555 1_555
O6E_2 W2E 1_555 1_555
O4IA W2IA 1_555 1_555
O6IA W2IA 1_555 1_555
O4DA W2DA 1_555 1_555
O6DA_2 W2DA 1_555 1_555
Ni1I N1I 1_555 1_555
Ni1K N2K 1_555 1_555
W2HA_2 O6HA 1_555 1_555
Ni1E N1E 1_555 1_555
Ni1G N2G 1_555 1_555
W2DA_2 O6DA 1_555 1_555
Ni1FA N1FA 1_555 1_555
Ni1HA N2HA 1_555 1_555
W2K_2 O6K 1_555 1_555
Ni1DA N1DA 1_555 1_555
Ni1BA N2BA 1_555 1_555
W2E_2 O6E 1_555 1_555
W2L O4L 1_555 1_555
W2P O4P 1_555 1_555
W2T O4T 1_555 1_555
W2MA O4MA 1_555 1_555
W2OA O4OA 1_555 1_555
W2TA O4TA 1_555 1_555
W2O O4O 1_555 1_555
W2Q O4Q 1_555 1_555
Ni1SA O6SA 1_555 1_555
Ni1QA O6QA 1_555 1_555
Ni1K_2 O6K_2 1_555 1_555
N1M Ni1M 1_555 1_555
N2M Ni1M 1_555 1_555
O6MA Ni1M 1_555 1_555
N1W Ni1W 1_555 1_555
N2W Ni1W 1_555 1_555
O6SA_2 Ni1W 1_555 1_555
N1R Ni1R 1_555 1_555
N2R Ni1R 1_555 1_555
O6NA Ni1R 1_555 1_555
N1LA Ni1LA 1_555 1_555
N2LA Ni1LA 1_555 1_555
O6L Ni1LA 1_555 1_555
W2 O8 1_555 1_555
W3 O10 1_555 1_555
P1 O11 1_555 1_555
O11 W3D 1_555 1_555
O11 W3H 1_555 1_555
O2H W1H 1_555 1_555
C2Z C1Z 1_555 1_555
C1AA C2AA 1_555 1_555
C7Z C6Z 1_555 1_555
C6Y C7Y 1_555 1_555
C7AA C6AA 1_555 1_555
C6X C7X 1_555 1_555
C2Y C1Y 1_555 1_555
N1B Ni1B 1_555 1_555
C1X C2X 1_555 1_555
O3Z W1GA 1_555 1_555
O10Z W3Z 1_555 1_555
O8Z W1Z 1_555 1_555
W1H O5H 1_555 1_555
W2H O3H 1_555 1_555
W2H O8H 1_555 1_555
W2D O3D 1_555 1_555
W2D O8D 1_555 1_555
W2GA O3GA 1_555 1_555
W2GA O8GA 1_555 1_555
W2EA O3EA 1_555 1_555
W2EA O8EA 1_555 1_555
W3Z O5GA 1_555 1_555
W3D O7D 1_555 1_555
W3D O10D 1_555 1_555
W3EA O7EA 1_555 1_555
W3EA O5Z 1_555 1_555
W3EA O10EA 1_555 1_555
W3H O7H 1_555 1_555
W3H O5D 1_555 1_555
W3H O10H 1_555 1_555
W3GA O5EA 1_555 1_555
W3GA O7GA 1_555 1_555
W3GA O7Z 1_555 1_555
W3GA O10GA 1_555 1_555
O2M W2M 1_555 1_555
O2W W2W 1_555 1_555
O2R W2R 1_555 1_555
O5M W3R 1_555 1_555
O8M W2M 1_555 1_555
O3R W2R 1_555 1_555
O2LA W2LA 1_555 1_555
O2SA W2SA 1_555 1_555
O2QA W2QA 1_555 1_555
O5LA W3QA 1_555 1_555
O8LA W2LA 1_555 1_555
O3QA W2QA 1_555 1_555
O4H W1R 1_555 1_555
O4D W1W 1_555 1_555
O4GA W1QA 1_555 1_555
O4EA W1SA 1_555 1_555
O3A W1K 1_555 1_555
O10A W3A 1_555 1_555
O8A W1A 1_555 1_555
O3AA W1HA 1_555 1_555
O10AA W3AA 1_555 1_555
O8AA W1AA 1_555 1_555
O3C W1J 1_555 1_555
O10C W3C 1_555 1_555
O8C W1C 1_555 1_555
O3Y W1IA 1_555 1_555
O10Y W3Y 1_555 1_555
O8Y W1Y 1_555 1_555
W2M O3M 1_555 1_555
W2W O3W 1_555 1_555
W2W O8W 1_555 1_555
W2R O8R 1_555 1_555
W2LA O3LA 1_555 1_555
W2SA O3SA 1_555 1_555
W2SA O8SA 1_555 1_555
W2QA O8QA 1_555 1_555
W2K O3K 1_555 1_555
W2K O8K 1_555 1_555
W2F O3F 1_555 1_555
W2F O8F 1_555 1_555
W2HA O3HA 1_555 1_555
W2HA O8HA 1_555 1_555
W2CA O3CA 1_555 1_555
W2CA O8CA 1_555 1_555
W2J O3J 1_555 1_555
W2J O8J 1_555 1_555
W2E O3E 1_555 1_555
W2E O8E 1_555 1_555
W2IA O3IA 1_555 1_555
W2IA O8IA 1_555 1_555
W2DA O3DA 1_555 1_555
W2DA O8DA 1_555 1_555
W3M O5W 1_555 1_555
W3M O10M 1_555 1_555
W3LA O5SA 1_555 1_555
W3LA O10LA 1_555 1_555
W3A O5K 1_555 1_555
W3AA O5HA 1_555 1_555
W3C O5J 1_555 1_555
W3Y O5IA 1_555 1_555
W3R O7R 1_555 1_555
W3R O10R 1_555 1_555
W3QA O7QA 1_555 1_555
W3QA O10QA 1_555 1_555
W3F O7F 1_555 1_555
W3F O5A 1_555 1_555
W3F O10F 1_555 1_555
W3CA O7CA 1_555 1_555
W3CA O5AA 1_555 1_555
W3CA O10CA 1_555 1_555
W3E O7E 1_555 1_555
W3E O5C 1_555 1_555
W3E O10E 1_555 1_555
W3DA O7DA 1_555 1_555
W3DA O5Y 1_555 1_555
W3DA O10DA 1_555 1_555
W3W O7W 1_555 1_555
W3W O5R 1_555 1_555
W3W O7M 1_555 1_555
W3W O10W 1_555 1_555
W3SA O7SA 1_555 1_555
W3SA O5QA 1_555 1_555
W3SA O7LA 1_555 1_555
W3SA O10SA 1_555 1_555
W3K O5F 1_555 1_555
W3K O7K 1_555 1_555
W3K O7A 1_555 1_555
W3K O10K 1_555 1_555
W3HA O5CA 1_555 1_555
W3HA O7HA 1_555 1_555
W3HA O7AA 1_555 1_555
W3HA O10HA 1_555 1_555
W3J O5E 1_555 1_555
W3J O7J 1_555 1_555
W3J O7C 1_555 1_555
W3J O10J 1_555 1_555
W3IA O5DA 1_555 1_555
W3IA O7IA 1_555 1_555
W3IA O7Y 1_555 1_555
W3IA O10IA 1_555 1_555
C2HA C1HA 1_555 1_555
C1IA C2IA 1_555 1_555
C7HA C6HA 1_555 1_555
C6GA C7GA 1_555 1_555
C2DA C1DA 1_555 1_555
C1EA C2EA 1_555 1_555
C7DA C6DA 1_555 1_555
C6CA C7CA 1_555 1_555
C2K C1K 1_555 1_555
C1J C2J 1_555 1_555
C7K_2 C6K_2 1_555 1_555
C6H_2 C7H_2 1_555 1_555
C2E_2 C1E_2 1_555 1_555
C1D_2 C2D_2 1_555 1_555
C7E C6E 1_555 1_555
C6F C7F 1_555 1_555
O6F Ni1BA 1_555 1_555
O6CA Ni1G 1_555 1_555
O6J Ni1FA 1_555 1_555
O6IA Ni1I 1_555 1_555
W2L O6L 1_555 1_555
W2MA O6MA 1_555 1_555

#END
