
#######################################################################
#
#                 Cambridge Crystallographic Data Centre
#                                CCDC 
#
#######################################################################
#
# If this CIF has been generated from an entry in the Cambridge 
# Structural Database, then it will include bibliographic, chemical, 
# crystal, experimental, refinement or atomic coordinate data resulting 
# from the CCDC's data processing and validation procedures.
#
#######################################################################

data_ENANIR
_symmetry_cell_setting           monoclinic
_symmetry_space_group_name_H-M   'P 21/c'
_symmetry_Int_Tables_number      14
_space_group_name_Hall           '-P 2ybc'
loop_
_symmetry_equiv_pos_site_id
_symmetry_equiv_pos_as_xyz
1 x,y,z
2 -x,1/2+y,1/2-z
3 -x,-y,-z
4 x,1/2-y,1/2+z
_cell_length_a                   12.736(4)
_cell_length_b                   10.319(3)
_cell_length_c                   23.340(5)
_cell_angle_alpha                90
_cell_angle_beta                 114.836(12)
_cell_angle_gamma                90
_cell_volume                     2783.71
loop_
_atom_site_label
_atom_site_type_symbol
_atom_site_fract_x
_atom_site_fract_y
_atom_site_fract_z
Cd1 Cd 0.41420(2) 0.36821(2) 0.535402(11)
O1 O 0.3553(2) 0.5509(3) 0.47494(15)
O2 O 0.3976(2) 0.7032(3) 0.42205(12)
O3 O 0.3329(2) 0.2116(3) 0.58298(13)
O4 O 0.2077(2) 0.3458(3) 0.51530(14)
O5 O 0.0162(3) -0.1190(4) 0.67211(18)
O6 O 0.1971(3) -0.0802(4) 0.70428(15)
O7 O -0.2621(3) 0.1100(4) 0.49421(18)
O8 O -0.2056(3) 0.2104(4) 0.43221(18)
O9 O 0.0990(3) 0.9058(3) 0.24231(16)
O10 O -0.0801(3) 0.8791(3) 0.22179(17)
O11 O -0.0628(3) 0.4537(5) 0.4088(2)
O12 O -0.1901(3) 0.5730(4) 0.33981(17)
N1 N 0.3758(2) 0.2440(3) 0.44990(14)
N2 N 0.4697(2) -0.0024(3) 0.11904(13)
N3 N 0.3951(2) 0.0922(3) 0.38897(14)
N4 N 0.4474(3) -0.1352(3) 0.18643(14)
N5 N -0.1876(3) 0.1538(3) 0.48075(18)
N6 N 0.0965(3) -0.0649(4) 0.66725(16)
N7 N -0.0906(3) 0.5401(4) 0.37149(19)
N8 N 0.0220(3) 0.8557(3) 0.25234(16)
C1 C 0.4475(3) 0.1680(4) 0.43900(18)
H1 H 0.5269 0.1672 0.4637
C2 C 0.2694(3) 0.2138(4) 0.40348(19)
H2 H 0.2001 0.2522 0.3986
C3 C 0.2795(3) 0.1215(4) 0.3663(2)
H3 H 0.2198 0.0842 0.3316
C4 C 0.4495(3) -0.0170(4) 0.37112(18)
H4 H 0.4383 -0.0951 0.3910
H5 H 0.5321 -0.0012 0.3876
C5 C 0.4032(3) -0.0401(4) 0.30055(17)
H6 H 0.4366 0.0226 0.2821
H7 H 0.3199 -0.0287 0.2813
C6 C 0.4331(4) -0.1772(4) 0.28728(18)
H8 H 0.5165 -0.1875 0.3073
H9 H 0.4004 -0.2388 0.3067
C7 C 0.3907(4) -0.2101(4) 0.21861(18)
H10 H 0.4036 -0.3016 0.2146
H11 H 0.3080 -0.1946 0.1979
C8 C 0.5630(4) -0.1272(4) 0.2021(2)
H12 H 0.6217 -0.1704 0.2351
C9 C 0.5763(3) -0.0448(5) 0.1608(2)
H13 H 0.6466 -0.0206 0.1607
C10 C 0.3964(3) -0.0593(4) 0.13622(18)
H14 H 0.3167 -0.0480 0.1156
C11 C 0.2325(3) 0.2516(4) 0.55164(18)
C12 C 0.1352(3) 0.1806(4) 0.55967(16)
C13 C 0.0210(3) 0.2018(4) 0.51812(17)
H15 H 0.0027 0.2608 0.4852
C14 C -0.0651(3) 0.1344(3) 0.52624(17)
C15 C -0.0440(3) 0.0460(4) 0.57388(17)
H16 H -0.1036 0.0012 0.5783
C16 C 0.0708(3) 0.0273(3) 0.61493(16)
C17 C 0.1600(3) 0.0915(4) 0.60821(17)
H17 H 0.2363 0.0751 0.6360
C18 C 0.3285(3) 0.6341(4) 0.43398(17)
C19 C 0.2008(3) 0.6553(3) 0.39215(16)
C20 C 0.1693(3) 0.7425(3) 0.34261(16)
H18 H 0.2256 0.7876 0.3352
C21 C 0.0538(3) 0.7621(3) 0.30430(16)
C22 C -0.0323(3) 0.6971(4) 0.31325(17)
H19 H -0.1100 0.7109 0.2872
C23 C 0.0022(3) 0.6114(4) 0.36226(18)
C24 C 0.1161(3) 0.5868(4) 0.40229(17)
H20 H 0.1355 0.5268 0.4348
Cd1B Cd 0.58580(2) 0.63179(2) 0.464598(11)
Cd1C Cd 0.41420(2) 0.13179(2) 0.035402(11)
O2B O 0.6024(2) 0.2968(3) 0.57795(12)
N2C N 0.4697(2) 0.5024(3) 0.61904(13)
loop_
_geom_bond_atom_site_label_1
_geom_bond_atom_site_label_2
_geom_bond_site_symmetry_1
_geom_bond_site_symmetry_2
Cd1 O1 1_555 1_555
O1 C18 1_555 1_555
O2 C18 1_555 1_555
O3 Cd1 1_555 1_555
O4 Cd1 1_555 1_555
O5 N6 1_555 1_555
O6 N6 1_555 1_555
O7 N5 1_555 1_555
O8 N5 1_555 1_555
O9 N8 1_555 1_555
O10 N8 1_555 1_555
O11 N7 1_555 1_555
O12 N7 1_555 1_555
N1 Cd1 1_555 1_555
N2 C9 1_555 1_555
N3 C1 1_555 1_555
N4 C7 1_555 1_555
N5 C14 1_555 1_555
N6 C16 1_555 1_555
N7 C23 1_555 1_555
N8 C21 1_555 1_555
C1 N1 1_555 1_555
H1 C1 1_555 1_555
C2 N1 1_555 1_555
H2 C2 1_555 1_555
C3 N3 1_555 1_555
H3 C3 1_555 1_555
C4 N3 1_555 1_555
H4 C4 1_555 1_555
H5 C4 1_555 1_555
C5 C4 1_555 1_555
H6 C5 1_555 1_555
H7 C5 1_555 1_555
C6 C5 1_555 1_555
H8 C6 1_555 1_555
H9 C6 1_555 1_555
C7 C6 1_555 1_555
H10 C7 1_555 1_555
H11 C7 1_555 1_555
C8 N4 1_555 1_555
H12 C8 1_555 1_555
C9 C8 1_555 1_555
H13 C9 1_555 1_555
C10 N2 1_555 1_555
H14 C10 1_555 1_555
C11 O3 1_555 1_555
C12 C11 1_555 1_555
C13 C12 1_555 1_555
H15 C13 1_555 1_555
C14 C13 1_555 1_555
C15 C14 1_555 1_555
H16 C15 1_555 1_555
C16 C15 1_555 1_555
C17 C12 1_555 1_555
H17 C17 1_555 1_555
C18 C19 1_555 1_555
C19 C20 1_555 1_555
C20 H18 1_555 1_555
C21 C20 1_555 1_555
C22 C21 1_555 1_555
H19 C22 1_555 1_555
C23 C22 1_555 1_555
C24 C19 1_555 1_555
H20 C24 1_555 1_555
Cd1B O2 1_555 1_555
Cd1C N2 1_555 1_555
O2B Cd1 1_555 1_555
N2C Cd1 1_555 1_555
O4 C11 1_555 1_555
N4 C10 1_555 1_555
C2 C3 1_555 1_555
C16 C17 1_555 1_555
C23 C24 1_555 1_555

#END
