
#######################################################################
#
#                 Cambridge Crystallographic Data Centre
#                                CCDC 
#
#######################################################################
#
# If this CIF has been generated from an entry in the Cambridge 
# Structural Database, then it will include bibliographic, chemical, 
# crystal, experimental, refinement or atomic coordinate data resulting 
# from the CCDC's data processing and validation procedures.
#
#######################################################################

data_ENANEN
_symmetry_cell_setting           triclinic
_symmetry_space_group_name_H-M   'P -1'
_symmetry_Int_Tables_number      2
_space_group_name_Hall           '-P 1'
loop_
_symmetry_equiv_pos_site_id
_symmetry_equiv_pos_as_xyz
1 x,y,z
2 -x,-y,-z
_cell_length_a                   7.6543(15)
_cell_length_b                   9.5637(19)
_cell_length_c                   10.889(2)
_cell_angle_alpha                84.24(3)
_cell_angle_beta                 71.41(3)
_cell_angle_gamma                67.87(3)
_cell_volume                     699.687
loop_
_atom_site_label
_atom_site_type_symbol
_atom_site_fract_x
_atom_site_fract_y
_atom_site_fract_z
Co1 Co 0.58882(7) 0.84729(6) 0.69313(5)
O1 O 0.8683(4) 0.6847(3) 0.6484(3)
O2 O 1.0509(5) 0.8046(4) 0.5132(4)
C1 C 1.0317(6) 0.6931(5) 0.5765(4)
C2 C 1.2136(5) 0.5532(5) 0.5706(4)
H1 H 1.2146 0.4768 0.5177
H2 H 1.2029 0.5144 0.6574
C3 C 1.4110(5) 0.5762(4) 0.5161(4)
H3 H 1.4108 0.6332 0.4361
C4 C 1.4420(5) 0.6651(4) 0.6109(4)
O3 O 1.4391(5) 0.6186(4) 0.7208(3)
O4 O 1.4734(4) 0.7874(3) 0.5721(3)
N1 N 0.5273(5) 0.8072(4) 0.8920(3)
N2 N 0.3208(5) 1.0436(4) 0.7790(3)
C5 C 0.6248(7) 0.6850(5) 0.9448(4)
H4 H 0.7377 0.6134 0.8918
C6 C 0.5643(8) 0.6584(6) 1.0790(5)
H5 H 0.6338 0.5696 1.1131
C7 C 0.4020(7) 0.7654(6) 1.1579(4)
H6 H 0.3618 0.7505 1.2467
C8 C 0.2960(7) 0.8973(5) 1.1053(4)
C9 C 0.1216(7) 1.0139(6) 1.1806(4)
H7 H 0.0762 1.0052 1.2700
C10 C 0.0233(7) 1.1354(6) 1.1230(4)
H8 H -0.0891 1.2096 1.1738
C11 C 0.0860(6) 1.1539(5) 0.9868(4)
C12 C -0.0142(7) 1.2748(5) 0.9209(5)
H9 H -0.1274 1.3521 0.9672
C13 C 0.0536(7) 1.2801(5) 0.7882(5)
H10 H -0.0117 1.3608 0.7440
C14 C 0.2239(6) 1.1607(5) 0.7206(4)
H11 H 0.2703 1.1646 0.6308
C15 C 0.2550(6) 1.0400(4) 0.9091(4)
C16 C 0.3625(6) 0.9126(4) 0.9706(3)
O5 O 0.6932(4) 0.9974(3) 0.5822(3)
H12 H 0.8126 0.9636 0.5482
H13 H 0.6434 1.0676 0.5403
Co1A Co 2.41118(7) 0.15271(6) 0.30687(5)
Co1_2 Co 1.58882(7) 0.84729(6) 0.69313(5)
Co1A_2 Co 1.41118(7) 0.15271(6) 0.30687(5)
O1A O 2.1317(4) 0.3153(3) 0.3516(3)
O2A O 1.9491(5) 0.1954(4) 0.4868(4)
C1A C 1.9683(6) 0.3069(5) 0.4235(4)
C2A C 1.7864(5) 0.4468(5) 0.4294(4)
H1A H 1.7854 0.5232 0.4823
H2A H 1.7971 0.4856 0.3426
C3A C 1.5890(5) 0.4238(4) 0.4839(4)
H3A H 1.5892 0.3668 0.5639
C4A C 1.5580(5) 0.3349(4) 0.3891(4)
O3A O 1.5609(5) 0.3814(4) 0.2792(3)
O4A O 1.5266(4) 0.2126(3) 0.4279(3)
O4_2 O 0.4734(4) 0.7874(3) 0.5721(3)
O4A_2 O 2.5266(4) 0.2126(3) 0.4279(3)
N1A N 2.4727(5) 0.1928(4) 0.1080(3)
N2A N 2.6792(5) -0.0436(4) 0.2210(3)
C5A C 2.3752(7) 0.3150(5) 0.0552(4)
H4A H 2.2623 0.3866 0.1082
C6A C 2.4357(8) 0.3416(6) -0.0790(5)
H5A H 2.3662 0.4304 -0.1131
C7A C 2.5980(7) 0.2346(6) -0.1579(4)
H6A H 2.6382 0.2495 -0.2467
C8A C 2.7040(7) 0.1027(5) -0.1053(4)
C9A C 2.8784(7) -0.0139(6) -0.1806(4)
H7A H 2.9238 -0.0052 -0.2700
C10A C 2.9767(7) -0.1354(6) -0.1230(4)
H8A H 3.0891 -0.2096 -0.1738
C11A C 2.9140(6) -0.1539(5) 0.0132(4)
C12A C 3.0142(7) -0.2748(5) 0.0791(5)
H9A H 3.1274 -0.3521 0.0328
C13A C 2.9464(7) -0.2801(5) 0.2118(5)
H10A H 3.0117 -0.3608 0.2560
C14A C 2.7761(6) -0.1607(5) 0.2794(4)
H11A H 2.7297 -0.1646 0.3692
C15A C 2.7450(6) -0.0400(4) 0.0909(4)
C16A C 2.6375(6) 0.0874(4) 0.0294(3)
O5A O 2.3068(4) 0.0026(3) 0.4178(3)
H12A H 2.1874 0.0364 0.4518
H13A H 2.3566 -0.0676 0.4597
loop_
_geom_bond_atom_site_label_1
_geom_bond_atom_site_label_2
_geom_bond_site_symmetry_1
_geom_bond_site_symmetry_2
Co1 O1 1_555 1_555
O1 C1 1_555 1_555
O2 C1 1_555 1_555
C1 C2 1_555 1_555
C2 H1 1_555 1_555
H2 C2 1_555 1_555
C3 C2 1_555 1_555
H3 C3 1_555 1_555
C4 C3 1_555 1_555
O3 C4 1_555 1_555
O4 C4 1_555 1_555
N1 Co1 1_555 1_555
N2 Co1 1_555 1_555
C5 N1 1_555 1_555
H4 C5 1_555 1_555
C6 C5 1_555 1_555
H5 C6 1_555 1_555
C7 C6 1_555 1_555
H6 C7 1_555 1_555
C8 C7 1_555 1_555
C9 C8 1_555 1_555
H7 C9 1_555 1_555
C10 C9 1_555 1_555
H8 C10 1_555 1_555
C11 C10 1_555 1_555
C12 C11 1_555 1_555
H9 C12 1_555 1_555
C13 C12 1_555 1_555
H10 C13 1_555 1_555
C14 N2 1_555 1_555
H11 C14 1_555 1_555
C15 N2 1_555 1_555
C16 N1 1_555 1_555
O5 Co1 1_555 1_555
H12 O5 1_555 1_555
H13 O5 1_555 1_555
Co1A O1A 1_555 1_555
Co1_2 O4 1_555 1_555
Co1A_2 O4A 1_555 1_555
O1A C1A 1_555 1_555
O2A C1A 1_555 1_555
C1A C2A 1_555 1_555
C2A H1A 1_555 1_555
H2A C2A 1_555 1_555
C3A C3 1_555 1_555
H3A C3A 1_555 1_555
C4A C3A 1_555 1_555
O3A C4A 1_555 1_555
O4A C4A 1_555 1_555
O4_2 Co1 1_555 1_555
O4A_2 Co1A 1_555 1_555
N1A Co1A 1_555 1_555
N2A Co1A 1_555 1_555
C5A N1A 1_555 1_555
H4A C5A 1_555 1_555
C6A C5A 1_555 1_555
H5A C6A 1_555 1_555
C7A C6A 1_555 1_555
H6A C7A 1_555 1_555
C8A C7A 1_555 1_555
C9A C8A 1_555 1_555
H7A C9A 1_555 1_555
C10A C9A 1_555 1_555
H8A C10A 1_555 1_555
C11A C10A 1_555 1_555
C12A C11A 1_555 1_555
H9A C12A 1_555 1_555
C13A C12A 1_555 1_555
H10A C13A 1_555 1_555
C14A N2A 1_555 1_555
H11A C14A 1_555 1_555
C15A N2A 1_555 1_555
C16A N1A 1_555 1_555
O5A Co1A 1_555 1_555
H12A O5A 1_555 1_555
H13A O5A 1_555 1_555
C8 C16 1_555 1_555
C11 C15 1_555 1_555
C13 C14 1_555 1_555
C15 C16 1_555 1_555
C2A C3A 1_555 1_555
C8A C16A 1_555 1_555
C11A C15A 1_555 1_555
C13A C14A 1_555 1_555
C15A C16A 1_555 1_555

#END
