
#######################################################################
#
#                 Cambridge Crystallographic Data Centre
#                                CCDC 
#
#######################################################################
#
# If this CIF has been generated from an entry in the Cambridge 
# Structural Database, then it will include bibliographic, chemical, 
# crystal, experimental, refinement or atomic coordinate data resulting 
# from the CCDC's data processing and validation procedures.
#
#######################################################################

data_ENANUD
_symmetry_cell_setting           triclinic
_symmetry_space_group_name_H-M   'P -1'
_symmetry_Int_Tables_number      2
_space_group_name_Hall           '-P 1'
loop_
_symmetry_equiv_pos_site_id
_symmetry_equiv_pos_as_xyz
1 x,y,z
2 -x,-y,-z
_cell_length_a                   9.3670(6)
_cell_length_b                   12.2846(8)
_cell_length_c                   14.0589(9)
_cell_angle_alpha                75.799(1)
_cell_angle_beta                 84.896(1)
_cell_angle_gamma                87.815(1)
_cell_volume                     1561.88
loop_
_atom_site_label
_atom_site_type_symbol
_atom_site_fract_x
_atom_site_fract_y
_atom_site_fract_z
Cd1 Cd 0.984571(16) 0.997029(13) 0.696026(11)
Cl1 Cl 0.79801(8) 1.13845(6) 0.64268(5)
C1 C 0.8356(3) 1.0289(2) 0.89478(19)
H1 H 0.8027 1.0969 0.8572
C2 C 0.9515(2) 0.8726(2) 0.93871(16)
C3 C 1.0399(3) 0.7781(2) 0.9454(2)
H2 H 1.0989 0.7686 0.8911
C4 C 1.0386(3) 0.6983(3) 1.0343(2)
C5 C 0.9483(4) 0.7146(4) 1.1165(2)
C6 C 0.8595(3) 0.8071(4) 1.1094(2)
H3 H 0.7994 0.8165 1.1632
C7 C 0.8616(3) 0.8862(3) 1.01981(18)
C8 C 1.1366(5) 0.5961(4) 1.0417(3)
H4 H 1.1891 0.5999 0.9792
H5 H 1.0803 0.5294 1.0600
H6 H 1.2025 0.5943 1.0906
C9 C 0.9477(6) 0.6278(5) 1.2145(3)
H7 H 0.8811 0.6512 1.2619
H8 H 1.0420 0.6209 1.2373
H9 H 0.9196 0.5566 1.2062
C10 C 0.6784(3) 1.0361(3) 1.0471(2)
H10 H 0.6733 1.1165 1.0193
H11 H 0.7053 1.0238 1.1140
C11 C 0.5309(3) 0.9866(3) 1.0491(2)
H12 H 0.5379 0.9056 1.0730
H13 H 0.4655 1.0146 1.0954
C12 C 0.9777(2) 0.79347(18) 0.59563(16)
H14 H 1.0525 0.8263 0.5511
C13 C 0.8202(2) 0.75841(18) 0.72041(16)
C14 C 0.7303(3) 0.7568(2) 0.80448(16)
H15 H 0.7420 0.8082 0.8419
C15 C 0.6231(3) 0.6785(2) 0.83241(17)
C16 C 0.6039(3) 0.6011(2) 0.77491(18)
C17 C 0.6938(2) 0.60131(18) 0.69147(17)
H16 H 0.6821 0.5503 0.6538
C18 C 0.8022(2) 0.67981(17) 0.66542(15)
C19 C 0.5275(4) 0.6774(3) 0.9247(2)
H17 H 0.5560 0.7352 0.9539
H18 H 0.5358 0.6056 0.9704
H19 H 0.4299 0.6905 0.9086
C20 C 0.4809(4) 0.5195(3) 0.8022(2)
H20 H 0.4836 0.4736 0.7557
H21 H 0.3916 0.5606 0.8010
H22 H 0.4896 0.4727 0.8670
C21 C 0.9291(3) 0.64663(18) 0.50666(16)
H23 H 0.9996 0.6871 0.4572
H24 H 0.8404 0.6471 0.4758
C22 C 0.9807(2) 0.52643(18) 0.54271(15)
H25 H 1.0639 0.5249 0.5795
H26 H 0.9059 0.4834 0.5866
C23 C 1.3572(2) 1.13639(18) 0.53119(16)
C24 C 1.4219(2) 1.2210(2) 0.55948(18)
H27 H 1.3890 1.2411 0.6173
C25 C 1.5363(3) 1.2751(2) 0.5007(2)
C26 C 1.5918(3) 1.2469(2) 0.4166(2)
H28 H 1.6703 1.2837 0.3787
C27 C 1.5259(2) 1.1614(2) 0.39067(17)
C28 C 1.4084(2) 1.10601(19) 0.44535(17)
H29 H 1.3648 1.0497 0.4251
C29 C 1.2290(2) 1.0790(2) 0.59328(17)
N1 N 0.9327(2) 0.96458(17) 0.86053(14)
N2 N 0.7889(2) 0.9864(2) 0.98927(16)
N3 N 0.9319(2) 0.82892(15) 0.67429(14)
N4 N 0.90495(19) 0.70473(14) 0.58639(13)
N5 N 1.6004(3) 1.3686(2) 0.5299(3)
N6 N 1.5824(3) 1.1289(2) 0.29994(17)
O1 O 1.17162(19) 1.00318(16) 0.56701(14)
O2 O 1.18468(19) 1.11177(17) 0.66824(13)
O3 O 1.6918(3) 1.4222(3) 0.4731(3)
O4 O 1.5574(3) 1.3890(3) 0.6060(3)
O5 O 1.5272(3) 1.0518(2) 0.27859(16)
O6 O 1.6842(3) 1.1823(2) 0.25198(18)
Cd1A Cd 0.015429(16) 1.002971(13) 1.303974(11)
Cd1A_2 Cd 1.015429(16) 0.002971(13) 0.303974(11)
Cl1A Cl 0.20199(8) 0.86155(6) 1.35732(5)
C1A C 0.1644(3) 0.9711(2) 1.10522(19)
H1A H 0.1973 0.9031 1.1428
C2A C 0.0485(2) 1.1274(2) 1.06129(16)
C3A C -0.0399(3) 1.2219(2) 1.0546(2)
H2A H -0.0989 1.2314 1.1089
C4A C -0.0386(3) 1.3017(3) 0.9657(2)
C5A C 0.0517(4) 1.2854(4) 0.8835(2)
C6A C 0.1405(3) 1.1929(4) 0.8906(2)
H3A H 0.2006 1.1835 0.8368
C7A C 0.1384(3) 1.1138(3) 0.98019(18)
C8A C -0.1366(5) 1.4039(4) 0.9583(3)
H4A H -0.1891 1.4001 1.0208
H5A H -0.0803 1.4706 0.9400
H6A H -0.2025 1.4057 0.9094
C9A C 0.0523(6) 1.3722(5) 0.7855(3)
H7A H 0.1189 1.3488 0.7381
H8A H -0.0420 1.3791 0.7627
H9A H 0.0804 1.4434 0.7938
C10A C 0.3216(3) 0.9639(3) 0.9529(2)
H10A H 0.3267 0.8835 0.9807
H11A H 0.2947 0.9762 0.8860
C11A C 0.4691(3) 1.0134(3) 0.9509(2)
H12A H 0.4621 1.0944 0.9270
H13A H 0.5345 0.9854 0.9046
C12A C 1.0223(2) 0.20653(18) 0.40437(16)
H14A H 0.9475 0.1737 0.4489
C13A C 1.1798(2) 0.24159(18) 0.27959(16)
C14A C 1.2697(3) 0.2432(2) 0.19552(16)
H15A H 1.2580 0.1918 0.1581
C15A C 1.3769(3) 0.3215(2) 0.16759(17)
C16A C 1.3961(3) 0.3989(2) 0.22509(18)
C17A C 1.3062(2) 0.39869(18) 0.30853(17)
H16A H 1.3179 0.4497 0.3462
C18A C 1.1978(2) 0.32019(17) 0.33458(15)
C19A C 1.4725(4) 0.3226(3) 0.0753(2)
H17A H 1.4440 0.2648 0.0461
H18A H 1.4642 0.3944 0.0296
H19A H 1.5701 0.3095 0.0914
C20A C 1.5191(4) 0.4805(3) 0.1978(2)
H20A H 1.5164 0.5264 0.2443
H21A H 1.6084 0.4394 0.1990
H22A H 1.5104 0.5273 0.1330
C21A C 1.0709(3) 0.35337(18) 0.49334(16)
H23A H 1.0004 0.3129 0.5428
H24A H 1.1596 0.3529 0.5242
C22A C 1.0193(2) 0.47357(18) 0.45729(15)
H25A H 0.9361 0.4751 0.4205
H26A H 1.0941 0.5166 0.4134
C23A C -0.3572(2) 0.86361(18) 1.46881(16)
C24A C -0.4219(2) 0.7790(2) 1.44052(18)
H27A H -0.3890 0.7589 1.3827
C25A C -0.5363(3) 0.7249(2) 1.4993(2)
C26A C -0.5918(3) 0.7531(2) 1.5834(2)
H28A H -0.6703 0.7163 1.6213
C27A C -0.5259(2) 0.8386(2) 1.60933(17)
C28A C -0.4084(2) 0.89399(19) 1.55465(17)
H29A H -0.3648 0.9503 1.5749
C29A C -0.2290(2) 0.9210(2) 1.40672(17)
N1A N 0.0673(2) 1.03542(17) 1.13947(14)
N2A N 0.2111(2) 1.0136(2) 1.01073(16)
N3A N 1.0681(2) 0.17108(15) 0.32571(14)
N3A_2 N 0.0681(2) 1.17108(15) 1.32571(14)
N4A N 1.09505(19) 0.29527(14) 0.41361(13)
N5A N -0.6004(3) 0.6314(2) 1.4701(3)
N6A N -0.5824(3) 0.8711(2) 1.70006(17)
O1A O -0.17162(19) 0.99682(16) 1.43299(14)
O2A O -0.18468(19) 0.88823(17) 1.33176(13)
O3A O -0.6918(3) 0.5778(3) 1.5269(3)
O4A O -0.5574(3) 0.6110(3) 1.3940(3)
O5A O -0.5272(3) 0.9482(2) 1.72141(16)
O6A O -0.6842(3) 0.8177(2) 1.74802(18)
O7 O 0.6502(18) 1.2598(14) 0.8045(13)
loop_
_geom_bond_atom_site_label_1
_geom_bond_atom_site_label_2
_geom_bond_site_symmetry_1
_geom_bond_site_symmetry_2
Cd1 Cl1 1_555 1_555
C1 H1 1_555 1_555
C2 C3 1_555 1_555
C3 H2 1_555 1_555
C4 C3 1_555 1_555
C5 C4 1_555 1_555
C6 C5 1_555 1_555
H3 C6 1_555 1_555
C7 C2 1_555 1_555
C8 C4 1_555 1_555
H4 C8 1_555 1_555
H5 C8 1_555 1_555
H6 C8 1_555 1_555
C9 C5 1_555 1_555
H7 C9 1_555 1_555
H8 C9 1_555 1_555
H9 C9 1_555 1_555
C10 H10 1_555 1_555
H11 C10 1_555 1_555
C11 C10 1_555 1_555
H12 C11 1_555 1_555
H13 C11 1_555 1_555
C12 H14 1_555 1_555
C13 C14 1_555 1_555
C14 H15 1_555 1_555
C15 C14 1_555 1_555
C16 C15 1_555 1_555
C17 C16 1_555 1_555
H16 C17 1_555 1_555
C18 C13 1_555 1_555
C19 C15 1_555 1_555
H17 C19 1_555 1_555
H18 C19 1_555 1_555
H19 C19 1_555 1_555
C20 C16 1_555 1_555
H20 C20 1_555 1_555
H21 C20 1_555 1_555
H22 C20 1_555 1_555
C21 H23 1_555 1_555
H24 C21 1_555 1_555
C22 C21 1_555 1_555
H25 C22 1_555 1_555
H26 C22 1_555 1_555
C23 C24 1_555 1_555
C24 H27 1_555 1_555
C25 C24 1_555 1_555
C26 C25 1_555 1_555
H28 C26 1_555 1_555
C27 C26 1_555 1_555
C28 C23 1_555 1_555
H29 C28 1_555 1_555
C29 C23 1_555 1_555
N1 Cd1 1_555 1_555
N2 C1 1_555 1_555
N3 Cd1 1_555 1_555
N4 C12 1_555 1_555
N5 C25 1_555 1_555
N6 C27 1_555 1_555
O1 Cd1 1_555 1_555
O2 Cd1 1_555 1_555
O3 N5 1_555 1_555
O4 N5 1_555 1_555
O5 N6 1_555 1_555
O6 N6 1_555 1_555
Cd1A Cl1A 1_555 1_555
Cd1A_2 N3A 1_555 1_555
C1A H1A 1_555 1_555
C2A C3A 1_555 1_555
C3A H2A 1_555 1_555
C4A C3A 1_555 1_555
C5A C4A 1_555 1_555
C6A C5A 1_555 1_555
H3A C6A 1_555 1_555
C7A C2A 1_555 1_555
C8A C4A 1_555 1_555
H4A C8A 1_555 1_555
H5A C8A 1_555 1_555
H6A C8A 1_555 1_555
C9A C5A 1_555 1_555
H7A C9A 1_555 1_555
H8A C9A 1_555 1_555
H9A C9A 1_555 1_555
C10A H10A 1_555 1_555
H11A C10A 1_555 1_555
C11A C11 1_555 1_555
H12A C11A 1_555 1_555
H13A C11A 1_555 1_555
C12A H14A 1_555 1_555
C13A C14A 1_555 1_555
C14A H15A 1_555 1_555
C15A C14A 1_555 1_555
C16A C15A 1_555 1_555
C17A C16A 1_555 1_555
H16A C17A 1_555 1_555
C18A C13A 1_555 1_555
C19A C15A 1_555 1_555
H17A C19A 1_555 1_555
H18A C19A 1_555 1_555
H19A C19A 1_555 1_555
C20A C16A 1_555 1_555
H20A C20A 1_555 1_555
H21A C20A 1_555 1_555
H22A C20A 1_555 1_555
C21A H23A 1_555 1_555
H24A C21A 1_555 1_555
C22A C22 1_555 1_555
H25A C22A 1_555 1_555
H26A C22A 1_555 1_555
C23A C24A 1_555 1_555
C24A H27A 1_555 1_555
C25A C24A 1_555 1_555
C26A C25A 1_555 1_555
H28A C26A 1_555 1_555
C27A C26A 1_555 1_555
C28A C23A 1_555 1_555
H29A C28A 1_555 1_555
C29A C23A 1_555 1_555
N1A Cd1A 1_555 1_555
N2A C1A 1_555 1_555
N3A C12A 1_555 1_555
N3A_2 Cd1A 1_555 1_555
N4A C12A 1_555 1_555
N5A C25A 1_555 1_555
N6A C27A 1_555 1_555
O1A Cd1A 1_555 1_555
O2A Cd1A 1_555 1_555
O3A N5A 1_555 1_555
O4A N5A 1_555 1_555
O5A N6A 1_555 1_555
O6A N6A 1_555 1_555
C1 N1 1_555 1_555
C2 N1 1_555 1_555
C6 C7 1_555 1_555
C7 N2 1_555 1_555
C10 N2 1_555 1_555
C12 N3 1_555 1_555
C13 N3 1_555 1_555
C17 C18 1_555 1_555
C18 N4 1_555 1_555
C21 N4 1_555 1_555
C27 C28 1_555 1_555
C29 O1 1_555 1_555
C29 O2 1_555 1_555
C1A N1A 1_555 1_555
C2A N1A 1_555 1_555
C6A C7A 1_555 1_555
C7A N2A 1_555 1_555
C10A C11A 1_555 1_555
C10A N2A 1_555 1_555
C13A N3A 1_555 1_555
C17A C18A 1_555 1_555
C18A N4A 1_555 1_555
C21A C22A 1_555 1_555
C21A N4A 1_555 1_555
C27A C28A 1_555 1_555
C29A O1A 1_555 1_555
C29A O2A 1_555 1_555

#END
