
#######################################################################
#
#                 Cambridge Crystallographic Data Centre
#                                CCDC 
#
#######################################################################
#
# If this CIF has been generated from an entry in the Cambridge 
# Structural Database, then it will include bibliographic, chemical, 
# crystal, experimental, refinement or atomic coordinate data resulting 
# from the CCDC's data processing and validation procedures.
#
#######################################################################

data_ENAPIT
_symmetry_cell_setting           triclinic
_symmetry_space_group_name_H-M   'P -1'
_symmetry_Int_Tables_number      2
_space_group_name_Hall           '-P 1'
loop_
_symmetry_equiv_pos_site_id
_symmetry_equiv_pos_as_xyz
1 x,y,z
2 -x,-y,-z
_cell_length_a                   10.0059(8)
_cell_length_b                   10.6514(9)
_cell_length_c                   10.677(10)
_cell_angle_alpha                107.471(10)
_cell_angle_beta                 92.628(10)
_cell_angle_gamma                92.346(10)
_cell_volume                     1082.5
loop_
_atom_site_label
_atom_site_type_symbol
_atom_site_fract_x
_atom_site_fract_y
_atom_site_fract_z
Ba1 Ba 0.03613(4) 0.56529(4) 0.73316(4)
N1 N 0.1569(6) 0.5766(6) 0.4657(6)
C1 C 0.2207(6) 0.6546(6) 0.5454(6)
S1 S 0.30327(18) 0.76147(17) 0.67088(18)
N2 N -0.0737(6) 0.3729(6) 0.8245(6)
C2 C -0.1329(6) 0.3410(6) 0.9015(6)
S2 S -0.22040(18) 0.29253(19) 1.00620(16)
N3 N -0.1562(5) 0.7022(5) 0.9212(6)
C3 C -0.2803(6) 0.6499(6) 0.9167(7)
H1 H -0.2928 0.5586 0.8930
C4 C -0.3915(6) 0.7239(6) 0.9452(6)
H2 H -0.4755 0.6824 0.9430
C5 C -0.3777(5) 0.8604(5) 0.9771(5)
C6 C -0.2479(6) 0.9154(6) 0.9880(6)
H3 H -0.2322 1.0065 1.0144
C7 C -0.1417(6) 0.8337(6) 0.9594(7)
H4 H -0.0557 0.8727 0.9673
C8 C -0.4967(5) 0.9379(5) 0.9978(6)
H5 H -0.5759 0.8947 1.0089
N4 N 0.2551(5) 0.3905(5) 0.7064(5)
C9 C 0.3851(7) 0.4157(7) 0.6951(7)
H6 H 0.4133 0.4995 0.6937
C10 C 0.4799(7) 0.3221(7) 0.6852(7)
H7 H 0.5696 0.3445 0.6789
C11 C 0.4415(6) 0.1965(6) 0.6848(5)
C12 C 0.3059(7) 0.1711(6) 0.6960(6)
H8 H 0.2744 0.0876 0.6957
C13 C 0.2185(7) 0.2697(7) 0.7076(7)
H9 H 0.1286 0.2507 0.7168
C14 C 0.5304(7) 0.0866(7) 0.6713(6)
H10 H 0.4900 0.0060 0.6700
C15 C 0.6587(7) 0.0907(6) 0.6611(6)
H11 H 0.7012 0.1694 0.6591
C16 C 0.7417(6) -0.0236(6) 0.6522(6)
C17 C 0.8793(7) -0.0053(7) 0.6596(8)
H12 H 0.9189 0.0773 0.6671
C18 C 0.9572(7) -0.1078(7) 0.6559(8)
H13 H 1.0497 -0.0915 0.6627
C19 C 0.7762(7) -0.2497(6) 0.6332(6)
H14 H 0.7394 -0.3340 0.6231
C20 C 0.6902(6) -0.1501(6) 0.6371(6)
H15 H 0.5980 -0.1683 0.6295
N5 N 0.9101(5) -0.2302(5) 0.6433(6)
Ba1A Ba -0.03613(4) 0.43471(4) 0.26684(4)
Ba1A_2 Ba -0.03613(4) 0.43471(4) 1.26684(4)
Ba1_2 Ba 1.03613(4) -0.43471(4) 0.73316(4)
Ba1A_3 Ba -1.03613(4) 1.43471(4) 1.26684(4)
Ba1_3 Ba -0.96387(4) 1.56529(4) 0.73316(4)
N1A N -0.1569(6) 0.4234(6) 0.5343(6)
C1A C -0.2207(6) 0.3454(6) 0.4546(6)
S1A S -0.30327(18) 0.23853(17) 0.32912(18)
N2A N 0.0737(6) 0.6271(6) 1.1755(6)
N2A_2 N 0.0737(6) 0.6271(6) 0.1755(6)
C2A C 0.1329(6) 0.6590(6) 1.0985(6)
S2A S 0.22040(18) 0.70747(19) 0.99380(16)
S2_2 S -0.22040(18) 0.29253(19) 0.00620(16)
N3A N -0.8438(5) 1.2978(5) 1.0788(6)
N3A_2 N 0.1562(5) 0.2978(5) 0.0788(6)
C3A C -0.7197(6) 1.3501(6) 1.0833(7)
H1A H -0.7072 1.4414 1.1070
C4A C -0.6085(6) 1.2761(6) 1.0548(6)
H2A H -0.5245 1.3176 1.0570
C5A C -0.6223(5) 1.1396(5) 1.0229(5)
C6A C -0.7521(6) 1.0846(6) 1.0120(6)
H3A H -0.7678 0.9935 0.9856
C7A C -0.8583(6) 1.1663(6) 1.0406(7)
H4A H -0.9443 1.1273 1.0327
C8A C -0.5033(5) 1.0621(5) 1.0022(6)
H5A H -0.4241 1.1053 0.9911
N4_2 N -0.7449(5) 1.3905(5) 0.7064(5)
N4A N -0.2551(5) 0.6095(5) 0.2936(5)
C9_2 C -0.6149(7) 1.4157(7) 0.6951(7)
H6_2 H -0.5867 1.4995 0.6937
C10_2 C -0.5201(7) 1.3221(7) 0.6852(7)
H7_2 H -0.4304 1.3445 0.6789
C11_2 C -0.5585(6) 1.1965(6) 0.6848(5)
C12_2 C -0.6941(7) 1.1711(6) 0.6960(6)
H8_2 H -0.7256 1.0876 0.6957
C13_2 C -0.7815(7) 1.2697(7) 0.7076(7)
H9_2 H -0.8714 1.2507 0.7168
C14_2 C -0.4696(7) 1.0866(7) 0.6713(6)
H10_2 H -0.5100 1.0060 0.6700
C15_2 C -0.3413(7) 1.0907(6) 0.6611(6)
H11_2 H -0.2988 1.1694 0.6591
C16_2 C -0.2583(6) 0.9764(6) 0.6522(6)
C17_2 C -0.1207(7) 0.9947(7) 0.6596(8)
H12_2 H -0.0811 1.0773 0.6671
C18_2 C -0.0428(7) 0.8922(7) 0.6559(8)
H13_2 H 0.0497 0.9085 0.6627
C19_2 C -0.2238(7) 0.7503(6) 0.6332(6)
H14_2 H -0.2606 0.6660 0.6231
C20_2 C -0.3098(6) 0.8499(6) 0.6371(6)
H15_2 H -0.4020 0.8317 0.6295
N5_2 N -0.0899(5) 0.7698(5) 0.6433(6)
N5A N 0.0899(5) 0.2302(5) 0.3567(6)
loop_
_geom_bond_atom_site_label_1
_geom_bond_atom_site_label_2
_geom_bond_site_symmetry_1
_geom_bond_site_symmetry_2
Ba1 N1 1_555 1_555
N1 C1 1_555 1_555
C1 Ba1 1_555 1_555
S1 Ba1 1_555 1_555
N2 Ba1 1_555 1_555
C2 N2 1_555 1_555
S2 C2 1_555 1_555
N3 Ba1 1_555 1_555
C3 N3 1_555 1_555
H1 C3 1_555 1_555
C4 C3 1_555 1_555
H2 C4 1_555 1_555
C5 C4 1_555 1_555
C6 C5 1_555 1_555
H3 C6 1_555 1_555
C7 N3 1_555 1_555
H4 C7 1_555 1_555
C8 C5 1_555 1_555
H5 C8 1_555 1_555
N4 Ba1 1_555 1_555
C9 N4 1_555 1_555
H6 C9 1_555 1_555
C10 C9 1_555 1_555
H7 C10 1_555 1_555
C11 C10 1_555 1_555
C12 C11 1_555 1_555
H8 C12 1_555 1_555
C13 N4 1_555 1_555
H9 C13 1_555 1_555
C14 C11 1_555 1_555
H10 C14 1_555 1_555
C15 C14 1_555 1_555
H11 C15 1_555 1_555
C16 C15 1_555 1_555
C17 C16 1_555 1_555
H12 C17 1_555 1_555
C18 C17 1_555 1_555
H13 C18 1_555 1_555
C19 H14 1_555 1_555
C20 C16 1_555 1_555
H15 C20 1_555 1_555
N5 C18 1_555 1_555
Ba1A N1 1_555 1_555
Ba1A_2 S2 1_555 1_555
Ba1_2 N5 1_555 1_555
Ba1A_3 N3A 1_555 1_555
Ba1_3 N4_2 1_555 1_555
N1A Ba1 1_555 1_555
C1A Ba1A 1_555 1_555
S1A Ba1A 1_555 1_555
N2A Ba1A_2 1_555 1_555
N2A_2 Ba1A 1_555 1_555
C2A N2A 1_555 1_555
S2A Ba1 1_555 1_555
S2_2 Ba1A 1_555 1_555
N3A C3A 1_555 1_555
N3A_2 Ba1A 1_555 1_555
C3A H1A 1_555 1_555
C4A C3A 1_555 1_555
H2A C4A 1_555 1_555
C5A C4A 1_555 1_555
C6A C5A 1_555 1_555
H3A C6A 1_555 1_555
C7A N3A 1_555 1_555
H4A C7A 1_555 1_555
C8A C8 1_555 1_555
H5A C8A 1_555 1_555
N4_2 C9_2 1_555 1_555
N4A Ba1A 1_555 1_555
C9_2 H6_2 1_555 1_555
C10_2 C9_2 1_555 1_555
H7_2 C10_2 1_555 1_555
C11_2 C10_2 1_555 1_555
C12_2 C11_2 1_555 1_555
H8_2 C12_2 1_555 1_555
C13_2 N4_2 1_555 1_555
H9_2 C13_2 1_555 1_555
C14_2 C11_2 1_555 1_555
H10_2 C14_2 1_555 1_555
C15_2 C14_2 1_555 1_555
H11_2 C15_2 1_555 1_555
C16_2 C15_2 1_555 1_555
C17_2 C16_2 1_555 1_555
H12_2 C17_2 1_555 1_555
C18_2 C17_2 1_555 1_555
H13_2 C18_2 1_555 1_555
C19_2 H14_2 1_555 1_555
C20_2 C16_2 1_555 1_555
H15_2 C20_2 1_555 1_555
N5_2 Ba1 1_555 1_555
N5A Ba1A 1_555 1_555
C1 S1 1_555 1_555
C6 C7 1_555 1_555
C12 C13 1_555 1_555
C19 C20 1_555 1_555
C19 N5 1_555 1_555
Ba1A N1A 1_555 1_555
N1A C1A 1_555 1_555
C1A S1A 1_555 1_555
C2A S2A 1_555 1_555
C5A C8A 1_555 1_555
C6A C7A 1_555 1_555
C12_2 C13_2 1_555 1_555
C18_2 N5_2 1_555 1_555
C19_2 C20_2 1_555 1_555
C19_2 N5_2 1_555 1_555

#END
