
#######################################################################
#
#                 Cambridge Crystallographic Data Centre
#                                CCDC 
#
#######################################################################
#
# If this CIF has been generated from an entry in the Cambridge 
# Structural Database, then it will include bibliographic, chemical, 
# crystal, experimental, refinement or atomic coordinate data resulting 
# from the CCDC's data processing and validation procedures.
#
#######################################################################

data_ENAPOZ
_symmetry_cell_setting           monoclinic
_symmetry_space_group_name_H-M   'P 21/n'
_symmetry_Int_Tables_number      14
_space_group_name_Hall           '-P 2yn'
loop_
_symmetry_equiv_pos_site_id
_symmetry_equiv_pos_as_xyz
1 x,y,z
2 1/2-x,1/2+y,1/2-z
3 -x,-y,-z
4 1/2+x,1/2-y,1/2+z
_cell_length_a                   7.3774(4)
_cell_length_b                   18.5786(12)
_cell_length_c                   16.6842(9)
_cell_angle_alpha                90
_cell_angle_beta                 98.491(7)
_cell_angle_gamma                90
_cell_volume                     2261.7
loop_
_atom_site_label
_atom_site_type_symbol
_atom_site_fract_x
_atom_site_fract_y
_atom_site_fract_z
Ba1 Ba 0.25739(2) 0.454962(8) 0.453537(9)
S1 S -0.1079(2) 0.30229(6) 0.63101(10)
C1 C -0.0312(5) 0.37736(17) 0.5977(2)
N1 N 0.0178(4) 0.43131(15) 0.57325(15)
S2 S -0.10248(14) 0.36318(6) 0.35314(7)
C2 C -0.2580(3) 0.40538(10) 0.39468(11)
N2 N -0.3682(3) 0.43597(10) 0.42425(11)
O1 O 0.5335(3) 0.41931(12) 0.58450(11)
H1 H 0.5827 0.3796 0.5845
H2 H 0.4919 0.4085 0.6260
N3 N 0.3405(5) 0.30308(17) 0.4402(2)
C3 C 0.4265(6) 0.26236(19) 0.4139(2)
C4 C 0.5384(7) 0.21042(17) 0.3796(2)
H3 H 0.5030 0.2090 0.3206
H4 H 0.5206 0.1627 0.4023
H5 H 0.6676 0.2242 0.3925
N5 N 0.2602(4) 0.44791(16) 0.28112(15)
N6 N 0.4420(4) 0.40431(18) -0.26263(15)
C7 C 0.1766(5) 0.4972(2) 0.23075(18)
H9 H 0.1079 0.5337 0.2525
C8 C 0.1845(5) 0.49823(19) 0.14840(18)
H10 H 0.1234 0.5349 0.1151
C9 C 0.2824(5) 0.44528(16) 0.11500(17)
C10 C 0.3689(5) 0.39342(18) 0.16717(18)
H11 H 0.4372 0.3559 0.1470
C11 C 0.3544(6) 0.39700(18) 0.24841(18)
H12 H 0.4148 0.3612 0.2833
C12 C 0.2943(5) 0.44735(17) 0.02793(17)
H13 H 0.2339 0.4859 -0.0025
C13 C 0.3819(5) 0.40015(18) -0.01166(17)
H14 H 0.4378 0.3605 0.0184
C14 C 0.4003(4) 0.40358(17) -0.09851(16)
C15 C 0.5032(5) 0.35111(18) -0.13038(18)
H15 H 0.5605 0.3138 -0.0968
C16 C 0.5213(5) 0.3538(2) -0.21180(18)
H16 H 0.5936 0.3181 -0.2327
C17 C 0.3404(5) 0.4533(2) -0.23182(18)
H17 H 0.2808 0.4888 -0.2673
C18 C 0.3164(5) 0.45556(18) -0.15130(18)
H18 H 0.2436 0.4922 -0.1323
Ba1B Ba -0.25739(2) 0.545038(8) 0.546463(9)
Ba1_2 Ba -0.74261(2) 0.454962(8) 0.453537(9)
Ba1B_2 Ba 0.74261(2) 0.545038(8) 0.546463(9)
N1B N -0.0178(4) 0.56869(15) 0.42675(15)
N2B N 0.3682(3) 0.56403(10) 0.57575(11)
N2_2 N 0.6318(3) 0.43597(10) 0.42425(11)
O1B O 0.4665(3) 0.58069(12) 0.41550(11)
H1B H 0.4173 0.6204 0.4155
H2B H 0.5081 0.5915 0.3740
N4 N 0.3538(3) 0.11950(12) 0.53513(16)
C5 C 0.3692(4) 0.16297(12) 0.58190(14)
C6 C 0.3885(3) 0.22048(14) 0.64149(15)
H6 H 0.5017 0.2472 0.6382
H7 H 0.3935 0.1999 0.6959
H8 H 0.2834 0.2531 0.6306
loop_
_geom_bond_atom_site_label_1
_geom_bond_atom_site_label_2
_geom_bond_site_symmetry_1
_geom_bond_site_symmetry_2
Ba1 N1 1_555 1_555
S1 C1 1_555 1_555
C1 N1 1_555 1_555
N1 Ba1B 1_555 1_555
S2 Ba1 1_555 1_555
C2 S2 1_555 1_555
N2 C2 1_555 1_555
O1 Ba1 1_555 1_555
H1 O1 1_555 1_555
H2 O1 1_555 1_555
N3 Ba1 1_555 1_555
C3 N3 1_555 1_555
C4 C3 1_555 1_555
H3 C4 1_555 1_555
H4 C4 1_555 1_555
H5 C4 1_555 1_555
N4 C5 1_555 1_555
C5 C6 1_555 1_555
C6 H6 1_555 1_555
H7 C6 1_555 1_555
H8 C6 1_555 1_555
N5 Ba1 1_555 1_555
N6 C16 1_555 1_555
C7 N5 1_555 1_555
H9 C7 1_555 1_555
C8 C7 1_555 1_555
H10 C8 1_555 1_555
C9 C8 1_555 1_555
C10 C9 1_555 1_555
H11 C10 1_555 1_555
C11 N5 1_555 1_555
H12 C11 1_555 1_555
C12 C9 1_555 1_555
H13 C12 1_555 1_555
C13 C12 1_555 1_555
H14 C13 1_555 1_555
C14 C13 1_555 1_555
C15 C14 1_555 1_555
H15 C15 1_555 1_555
C16 C15 1_555 1_555
H16 C16 1_555 1_555
C17 N6 1_555 1_555
H17 C17 1_555 1_555
C18 C14 1_555 1_555
H18 C18 1_555 1_555
Ba1B N2 1_555 1_555
Ba1_2 N2 1_555 1_555
Ba1B_2 O1 1_555 1_555
N1B Ba1 1_555 1_555
N2B Ba1 1_555 1_555
N2_2 Ba1 1_555 1_555
O1B Ba1 1_555 1_555
H1B O1B 1_555 1_555
H2B O1B 1_555 1_555
C10 C11 1_555 1_555
C17 C18 1_555 1_555
Ba1B N1B 1_555 1_555
Ba1B_2 N2B 1_555 1_555
Ba1B_2 N2_2 1_555 1_555
Ba1B_2 O1B 1_555 1_555

#END
