
#######################################################################
#
#                 Cambridge Crystallographic Data Centre
#                                CCDC 
#
#######################################################################
#
# If this CIF has been generated from an entry in the Cambridge 
# Structural Database, then it will include bibliographic, chemical, 
# crystal, experimental, refinement or atomic coordinate data resulting 
# from the CCDC's data processing and validation procedures.
#
#######################################################################

data_ENAPAL
_symmetry_cell_setting           triclinic
_symmetry_space_group_name_H-M   'P -1'
_symmetry_Int_Tables_number      2
_space_group_name_Hall           '-P 1'
loop_
_symmetry_equiv_pos_site_id
_symmetry_equiv_pos_as_xyz
1 x,y,z
2 -x,-y,-z
_cell_length_a                   9.4625(8)
_cell_length_b                   10.8240(9)
_cell_length_c                   17.1911(13)
_cell_angle_alpha                102.474(9)
_cell_angle_beta                 101.226(9)
_cell_angle_gamma                106.368(9)
_cell_volume                     1586.95
loop_
_atom_site_label
_atom_site_type_symbol
_atom_site_fract_x
_atom_site_fract_y
_atom_site_fract_z
Ba1 Ba 0.306338(11) 0.440898(10) 0.040868(7)
S1 S 0.67944(6) 0.14651(5) 0.00872(4)
C1 C 0.6224(2) 0.2748(2) 0.04018(13)
N1 N 0.5828(2) 0.3654(2) 0.06032(13)
O1 O 0.06996(18) 0.40575(19) -0.10012(11)
H1 H 0.1143 0.3944 -0.1362
H2 H -0.0218 0.3744 -0.1049
O2 O 0.02634(19) 0.36904(19) 0.07280(12)
H3 H -0.0160 0.4256 0.0783
H4 H -0.0486 0.3003 0.0576
O3 O 0.39777(17) 0.35018(14) -0.10803(10)
H5 H 0.3691 0.2683 -0.1166
H6 H 0.3292 0.3497 -0.1457
O4 O 0.2017(2) 0.16681(16) -0.00070(11)
H7 H 0.2039 0.1280 0.0353
H8 H 0.2468 0.1305 -0.0294
O5 O 0.25206(18) 0.67708(16) 0.12174(10)
H9 H 0.2748 0.7354 0.0984
H10 H 0.3090 0.7106 0.1690
N3 N 0.3630(2) 0.4280(2) 0.21093(12)
C3 C 0.2506(3) 0.3779(3) 0.24429(16)
H13 H 0.1497 0.3339 0.2087
C4 C 0.2728(3) 0.3865(3) 0.32665(16)
H14 H 0.1888 0.3473 0.3463
C5 C 0.4166(3) 0.4519(2) 0.38127(15)
C6 C 0.5351(3) 0.5032(3) 0.34705(16)
H15 H 0.6367 0.5486 0.3814
C7 C 0.5026(3) 0.4872(3) 0.26261(16)
H16 H 0.5851 0.5204 0.2403
C8 C 0.4367(3) 0.4642(3) 0.46992(16)
H17 H 0.3511 0.4164 0.4854
Ba1A Ba 0.693662(11) 0.559102(10) -0.040868(7)
Ba1A_2 Ba 0.693662(11) 0.559102(10) 0.959132(7)
S1A S 0.32056(6) 0.85349(5) -0.00872(4)
C1A C 0.3776(2) 0.7252(2) -0.04018(13)
N1A N 0.4172(2) 0.6346(2) -0.06032(13)
O1A O 0.93004(18) 0.59425(19) 0.10012(11)
H1A H 0.8857 0.6056 0.1362
H2A H 1.0218 0.6256 0.1049
O2A O 0.97366(19) 0.63096(19) -0.07280(12)
H3A H 1.0160 0.5744 -0.0783
H4A H 1.0486 0.6997 -0.0576
O3A O 0.60223(17) 0.64982(14) 0.10803(10)
H5A H 0.6309 0.7317 0.1166
H6A H 0.6708 0.6503 0.1457
O4A O 0.7983(2) 0.83319(16) 0.00070(11)
H7A H 0.7961 0.8720 -0.0353
H8A H 0.7532 0.8695 0.0294
O5A O 0.74794(18) 0.32292(16) -0.12174(10)
H9A H 0.7252 0.2646 -0.0984
H10A H 0.6910 0.2894 -0.1690
N3A N 0.6370(2) 0.5720(2) 0.78907(12)
N3A_2 N 0.6370(2) 0.5720(2) -0.21093(12)
C3A C 0.7494(3) 0.6221(3) 0.75571(16)
H13A H 0.8503 0.6661 0.7913
C4A C 0.7272(3) 0.6135(3) 0.67335(16)
H14A H 0.8112 0.6527 0.6537
C5A C 0.5834(3) 0.5481(2) 0.61873(15)
C6A C 0.4649(3) 0.4968(3) 0.65295(16)
H15A H 0.3633 0.4514 0.6186
C7A C 0.4974(3) 0.5128(3) 0.73739(16)
H16A H 0.4149 0.4796 0.7597
C8A C 0.5633(3) 0.5358(3) 0.53008(16)
H17A H 0.6489 0.5836 0.5146
S2 S 0.04556(8) 0.15106(7) -0.41142(4)
C2 C 0.1048(2) 0.2476(2) -0.31626(16)
N2 N 0.1458(3) 0.3164(2) -0.24806(15)
O6 O 0.3441(2) 0.08346(16) -0.12427(11)
H11 H 0.4186 0.0786 -0.0931
H12 H 0.2942 0.0122 -0.1601
N4 N 0.1819(2) -0.1472(2) -0.25256(14)
C9 C 0.1373(3) -0.1397(2) -0.32971(17)
H18 H 0.1390 -0.0548 -0.3369
C10 C 0.0890(3) -0.2483(2) -0.39936(15)
H19 H 0.0596 -0.2372 -0.4528
C11 C 0.0836(2) -0.3744(2) -0.39067(14)
C12 C 0.1295(3) -0.3828(2) -0.31075(15)
H20 H 0.1288 -0.4664 -0.3015
C13 C 0.1765(3) -0.2678(3) -0.24456(16)
H21 H 0.2066 -0.2755 -0.1903
C14 C 0.0308(3) -0.4961(2) -0.46073(15)
H22 H 0.0412 -0.5757 -0.4495
N4A N -0.1819(2) -0.8528(2) -0.74744(14)
C9A C -0.1373(3) -0.8603(2) -0.67029(17)
H18A H -0.1390 -0.9452 -0.6631
C10A C -0.0890(3) -0.7517(2) -0.60064(15)
H19A H -0.0596 -0.7628 -0.5472
C11A C -0.0836(2) -0.6256(2) -0.60933(14)
C12A C -0.1295(3) -0.6172(2) -0.68925(15)
H20A H -0.1288 -0.5336 -0.6985
C13A C -0.1765(3) -0.7322(3) -0.75544(16)
H21A H -0.2066 -0.7245 -0.8097
C14A C -0.0308(3) -0.5039(2) -0.53927(15)
H22A H -0.0412 -0.4243 -0.5505
N5 N 0.7654(3) 0.9394(2) 0.86528(14)
N6 N 0.3793(2) 0.7678(2) 0.29088(13)
C15 C 0.6210(3) 0.8835(3) 0.81927(18)
H23 H 0.5452 0.8479 0.8451
C16 C 0.5742(3) 0.8739(3) 0.73638(17)
H24 H 0.4690 0.8336 0.7068
C17 C 0.6828(3) 0.9239(2) 0.69625(16)
C18 C 0.8337(3) 0.9863(3) 0.74460(18)
H25 H 0.9117 1.0246 0.7208
C19 C 0.8694(3) 0.9921(3) 0.82762(18)
H26 H 0.9729 1.0357 0.8597
C20 C 0.6470(3) 0.9089(2) 0.60704(16)
H27 H 0.7277 0.9498 0.5857
C21 C 0.5102(3) 0.8427(2) 0.55410(17)
H28 H 0.4299 0.8053 0.5767
C22 C 0.4696(3) 0.8209(2) 0.46423(16)
C23 C 0.3186(3) 0.7557(3) 0.41842(18)
H29 H 0.2421 0.7268 0.4454
C24 C 0.2788(3) 0.7327(3) 0.33363(18)
H30 H 0.1738 0.6894 0.3041
C25 C 0.5262(3) 0.8308(3) 0.33505(18)
H31 H 0.6004 0.8569 0.3062
C26 C 0.5754(3) 0.8597(3) 0.42004(17)
H32 H 0.6806 0.9058 0.4483
loop_
_geom_bond_atom_site_label_1
_geom_bond_atom_site_label_2
_geom_bond_site_symmetry_1
_geom_bond_site_symmetry_2
Ba1 N1 1_555 1_555
S1 C1 1_555 1_555
C1 N1 1_555 1_555
N1 Ba1A 1_555 1_555
S2 C2 1_555 1_555
C2 N2 1_555 1_555
O1 Ba1 1_555 1_555
H1 O1 1_555 1_555
H2 O1 1_555 1_555
O2 Ba1 1_555 1_555
H3 O2 1_555 1_555
H4 O2 1_555 1_555
O3 Ba1 1_555 1_555
H5 O3 1_555 1_555
H6 O3 1_555 1_555
O4 Ba1 1_555 1_555
H7 O4 1_555 1_555
H8 O4 1_555 1_555
O5 Ba1 1_555 1_555
H9 O5 1_555 1_555
H10 O5 1_555 1_555
O6 H11 1_555 1_555
H12 O6 1_555 1_555
N3 Ba1 1_555 1_555
C3 N3 1_555 1_555
H13 C3 1_555 1_555
C4 C3 1_555 1_555
H14 C4 1_555 1_555
C5 C4 1_555 1_555
C6 C5 1_555 1_555
H15 C6 1_555 1_555
C7 N3 1_555 1_555
H16 C7 1_555 1_555
C8 C5 1_555 1_555
H17 C8 1_555 1_555
N4 C9 1_555 1_555
C9 H18 1_555 1_555
C10 C9 1_555 1_555
H19 C10 1_555 1_555
C11 C10 1_555 1_555
C12 C11 1_555 1_555
H20 C12 1_555 1_555
C13 N4 1_555 1_555
H21 C13 1_555 1_555
C14 C11 1_555 1_555
H22 C14 1_555 1_555
N5 C15 1_555 1_555
N6 C24 1_555 1_555
C15 H23 1_555 1_555
C16 C15 1_555 1_555
H24 C16 1_555 1_555
C17 C16 1_555 1_555
C18 C17 1_555 1_555
H25 C18 1_555 1_555
C19 N5 1_555 1_555
H26 C19 1_555 1_555
C20 C17 1_555 1_555
H27 C20 1_555 1_555
C21 C20 1_555 1_555
H28 C21 1_555 1_555
C22 C21 1_555 1_555
C23 C22 1_555 1_555
H29 C23 1_555 1_555
C24 C23 1_555 1_555
H30 C24 1_555 1_555
C25 N6 1_555 1_555
H31 C25 1_555 1_555
C26 C22 1_555 1_555
H32 C26 1_555 1_555
Ba1A O3 1_555 1_555
Ba1A_2 N3A 1_555 1_555
S1A C1A 1_555 1_555
C1A N1A 1_555 1_555
N1A Ba1 1_555 1_555
O1A Ba1A 1_555 1_555
H1A O1A 1_555 1_555
H2A O1A 1_555 1_555
O2A Ba1A 1_555 1_555
H3A O2A 1_555 1_555
H4A O2A 1_555 1_555
O3A Ba1 1_555 1_555
H5A O3A 1_555 1_555
H6A O3A 1_555 1_555
O4A Ba1A 1_555 1_555
H7A O4A 1_555 1_555
H8A O4A 1_555 1_555
O5A Ba1A 1_555 1_555
H9A O5A 1_555 1_555
H10A O5A 1_555 1_555
N3A C3A 1_555 1_555
N3A_2 Ba1A 1_555 1_555
C3A H13A 1_555 1_555
C4A C3A 1_555 1_555
H14A C4A 1_555 1_555
C5A C4A 1_555 1_555
C6A C5A 1_555 1_555
H15A C6A 1_555 1_555
C7A N3A 1_555 1_555
H16A C7A 1_555 1_555
C8A C8 1_555 1_555
H17A C8A 1_555 1_555
N4A C9A 1_555 1_555
C9A H18A 1_555 1_555
C10A C9A 1_555 1_555
H19A C10A 1_555 1_555
C11A C10A 1_555 1_555
C12A C11A 1_555 1_555
H20A C12A 1_555 1_555
C13A N4A 1_555 1_555
H21A C13A 1_555 1_555
C14A C14 1_555 1_555
H22A C14A 1_555 1_555
C6 C7 1_555 1_555
C12 C13 1_555 1_555
C18 C19 1_555 1_555
C25 C26 1_555 1_555
Ba1A N1A 1_555 1_555
Ba1A O3A 1_555 1_555
C5A C8A 1_555 1_555
C6A C7A 1_555 1_555
C11A C14A 1_555 1_555
C12A C13A 1_555 1_555

#END
