
#######################################################################
#
#                 Cambridge Crystallographic Data Centre
#                                CCDC 
#
#######################################################################
#
# If this CIF has been generated from an entry in the Cambridge 
# Structural Database, then it will include bibliographic, chemical, 
# crystal, experimental, refinement or atomic coordinate data resulting 
# from the CCDC's data processing and validation procedures.
#
#######################################################################

data_ENATUJ
_symmetry_cell_setting           cubic
_symmetry_space_group_name_H-M   'I -4 3 d'
_symmetry_Int_Tables_number      220
_space_group_name_Hall           'I -4bd 2c 3'
loop_
_symmetry_equiv_pos_site_id
_symmetry_equiv_pos_as_xyz
1 x,y,z
2 1/2-x,-y,1/2+z
3 -x,1/2+y,1/2-z
4 1/2+x,1/2-y,-z
5 z,x,y
6 1/2+z,1/2-x,-y
7 1/2-z,-x,1/2+y
8 -z,1/2+x,1/2-y
9 y,z,x
10 -y,1/2+z,1/2-x
11 1/2+y,1/2-z,-x
12 1/2-y,-z,1/2+x
13 1/4+y,1/4+x,1/4+z
14 1/4-y,3/4-x,3/4+z
15 3/4+y,1/4-x,3/4-z
16 3/4-y,3/4+x,1/4-z
17 1/4+x,1/4+z,1/4+y
18 3/4-x,3/4+z,1/4-y
19 1/4-x,3/4-z,3/4+y
20 3/4+x,1/4-z,3/4-y
21 1/4+z,1/4+y,1/4+x
22 3/4+z,1/4-y,3/4-x
23 3/4-z,3/4+y,1/4-x
24 1/4-z,3/4-y,3/4+x
25 1/2+x,1/2+y,1/2+z
26 -x,1/2-y,z
27 1/2-x,y,-z
28 x,-y,1/2-z
29 1/2+z,1/2+x,1/2+y
30 z,-x,1/2-y
31 -z,1/2-x,y
32 1/2-z,x,-y
33 1/2+y,1/2+z,1/2+x
34 1/2-y,z,-x
35 y,-z,1/2-x
36 -y,1/2-z,x
37 3/4+y,3/4+x,3/4+z
38 3/4-y,1/4-x,1/4+z
39 1/4+y,3/4-x,1/4-z
40 1/4-y,1/4+x,3/4-z
41 3/4+x,3/4+z,3/4+y
42 1/4-x,1/4+z,3/4-y
43 3/4-x,1/4-z,1/4+y
44 1/4+x,3/4-z,1/4-y
45 3/4+z,3/4+y,3/4+x
46 1/4+z,3/4-y,1/4-x
47 1/4-z,1/4+y,3/4-x
48 3/4-z,1/4-y,1/4+x
_cell_length_a                   19.9611(9)
_cell_length_b                   19.9611(9)
_cell_length_c                   19.9611(9)
_cell_angle_alpha                90
_cell_angle_beta                 90
_cell_angle_gamma                90
_cell_volume                     7953.41
loop_
_atom_site_label
_atom_site_type_symbol
_atom_site_fract_x
_atom_site_fract_y
_atom_site_fract_z
Ga1 Ga 0.0000 0.2500 0.8750
O1 O -0.07424(7) 0.22045(6) 0.82988(6)
O2 O -0.06528(8) 0.30906(8) 0.76444(8)
C1 C -0.09339(10) 0.25805(11) 0.77962(10)
C2 C -0.15385(9) 0.23246(9) 0.74350(11)
C3 C -0.17593(9) 0.26677(9) 0.68839(9)
H1 H -0.1532 0.3059 0.6737
Ga1I Ga -0.2500 0.3750 0.5000
Ga1F Ga -0.3750 0.0000 0.7500
Ga1G Ga 0.1250 0.5000 1.2500
Ga1J Ga -0.2500 0.6250 1.0000
Ga1K Ga 0.2500 0.1250 0.5000
Ga1E Ga 0.3750 0.5000 0.7500
Ga1D Ga -0.1250 0.0000 1.2500
Ga1H Ga 0.2500 -0.1250 1.0000
O1I O -0.22045(6) 0.32988(6) 0.57424(7)
O1F O -0.32988(6) 0.07424(7) 0.72045(6)
O1N O -0.02955(6) 0.32424(7) 0.92012(6)
O1T O 0.07988(6) 0.47045(6) 1.17576(7)
O1Q O -0.17576(7) 0.57988(6) 1.02955(6)
O1Y O 0.07424(7) 0.27955(6) 0.82988(6)
O1HA O 0.22045(6) 0.17012(6) 0.57424(7)
O1BA O 0.32988(6) 0.42576(7) 0.72045(6)
O1MA O 0.02955(6) 0.17576(7) 0.92012(6)
O1UA O -0.07988(6) 0.02955(6) 1.17576(7)
O1QA O 0.17576(7) -0.07988(6) 1.02955(6)
O1S O -0.32424(7) 0.42012(6) 0.52955(6)
O1FA O -0.27955(6) 0.32988(6) 0.42576(7)
O1PA O -0.17576(7) 0.42012(6) 0.47045(6)
O1U O -0.42012(6) 0.02955(6) 0.82424(7)
O1EA O -0.32988(6) -0.07424(7) 0.77955(6)
O1RA O -0.42012(6) -0.02955(6) 0.67576(7)
O2I O -0.30906(8) 0.26444(8) 0.56528(8)
O2F O -0.26444(8) 0.06528(8) 0.80906(8)
O2N O 0.05906(8) 0.31528(8) 0.98556(8)
O2T O 0.01444(8) 0.55906(8) 1.18472(8)
O2Q O -0.18472(8) 0.51444(8) 0.94094(8)
O2Y O 0.06528(8) 0.19094(8) 0.76444(8)
O2HA O 0.30906(8) 0.23556(8) 0.56528(8)
O2BA O 0.26444(8) 0.43472(8) 0.80906(8)
O2MA O -0.05906(8) 0.18472(8) 0.98556(8)
O2UA O -0.01444(8) -0.05906(8) 1.18472(8)
O2QA O 0.18472(8) -0.01444(8) 0.94094(8)
C1I C -0.25805(11) 0.27962(10) 0.59339(10)
C1F C -0.27962(10) 0.09339(10) 0.75805(11)
C1N C 0.00805(11) 0.34339(10) 0.97038(10)
C1T C 0.02962(10) 0.50805(11) 1.15661(10)
C1Q C -0.15661(10) 0.52962(10) 0.99195(11)
C1Y C 0.09339(10) 0.24195(11) 0.77962(10)
C1HA C 0.25805(11) 0.22038(10) 0.59339(10)
C1BA C 0.27962(10) 0.40661(10) 0.75805(11)
C1MA C -0.00805(11) 0.15661(10) 0.97038(10)
C1UA C -0.02962(10) -0.00805(11) 1.15661(10)
C1QA C 0.15661(10) -0.02962(10) 0.99195(11)
C2I C -0.23246(9) 0.24350(11) 0.65385(9)
C2F C -0.24350(11) 0.15385(9) 0.73246(9)
C2N C -0.01754(9) 0.40385(9) 1.00650(11)
C2T C -0.00650(11) 0.48246(9) 1.09615(9)
C2Q C -0.09615(9) 0.49350(11) 1.01754(9)
C2Y C 0.15385(9) 0.26754(9) 0.74350(11)
C2HA C 0.23246(9) 0.25650(11) 0.65385(9)
C2BA C 0.24350(11) 0.34615(9) 0.73246(9)
C2MA C 0.01754(9) 0.09615(9) 1.00650(11)
C2UA C 0.00650(11) 0.01754(9) 1.09615(9)
C2QA C 0.09615(9) 0.00650(11) 1.01754(9)
C3I C -0.26677(9) 0.18839(9) 0.67593(9)
C3F C -0.18839(9) 0.17593(9) 0.76677(9)
C3N C 0.01677(9) 0.42593(9) 1.06161(9)
C3T C -0.06161(9) 0.51677(9) 1.07407(9)
C3Q C -0.07407(9) 0.43839(9) 0.98323(9)
C3Y C 0.17593(9) 0.23323(9) 0.68839(9)
C3HA C 0.26677(9) 0.31161(9) 0.67593(9)
C3BA C 0.18839(9) 0.32407(9) 0.76677(9)
C3MA C -0.01677(9) 0.07407(9) 1.06161(9)
C3UA C 0.06161(9) -0.01677(9) 1.07407(9)
C3QA C 0.07407(9) 0.06161(9) 0.98323(9)
H1F H -0.1737 0.1532 0.8059
H1I H -0.3059 0.1737 0.6532
H1N H 0.0559 0.4032 1.0763
H1Q H -0.0968 0.4237 0.9441
H1T H -0.0763 0.5559 1.0968
H1Y H 0.1532 0.1941 0.6737
H1BA H 0.1737 0.3468 0.8059
H1HA H 0.3059 0.3263 0.6532
H1MA H -0.0559 0.0968 1.0763
H1QA H 0.0968 0.0763 0.9441
H1UA H 0.0763 -0.0559 1.0968
loop_
_geom_bond_atom_site_label_1
_geom_bond_atom_site_label_2
_geom_bond_site_symmetry_1
_geom_bond_site_symmetry_2
Ga1 O1 1_555 1_555
O1 C1 1_555 1_555
O2 C1 1_555 1_555
C1 C2 1_555 1_555
C2 C3 1_555 1_555
C3 H1 1_555 1_555
Ga1I O1I 1_555 1_555
Ga1F O1F 1_555 1_555
Ga1G O1T 1_555 1_555
Ga1J O1Q 1_555 1_555
Ga1K O1HA 1_555 1_555
Ga1E O1BA 1_555 1_555
Ga1D O1UA 1_555 1_555
Ga1H O1QA 1_555 1_555
O1I C1I 1_555 1_555
O1F C1F 1_555 1_555
O1N Ga1 1_555 1_555
O1T C1T 1_555 1_555
O1Q C1Q 1_555 1_555
O1Y Ga1 1_555 1_555
O1HA C1HA 1_555 1_555
O1BA C1BA 1_555 1_555
O1MA Ga1 1_555 1_555
O1UA C1UA 1_555 1_555
O1QA C1QA 1_555 1_555
O1S Ga1I 1_555 1_555
O1FA Ga1I 1_555 1_555
O1PA Ga1I 1_555 1_555
O1U Ga1F 1_555 1_555
O1EA Ga1F 1_555 1_555
O1RA Ga1F 1_555 1_555
O2I C1I 1_555 1_555
O2F C1F 1_555 1_555
O2N C1N 1_555 1_555
O2T C1T 1_555 1_555
O2Q C1Q 1_555 1_555
O2Y C1Y 1_555 1_555
O2HA C1HA 1_555 1_555
O2BA C1BA 1_555 1_555
O2MA C1MA 1_555 1_555
O2UA C1UA 1_555 1_555
O2QA C1QA 1_555 1_555
C1I C2I 1_555 1_555
C1F C2F 1_555 1_555
C1N O1N 1_555 1_555
C1T C2T 1_555 1_555
C1Q C2Q 1_555 1_555
C1Y O1Y 1_555 1_555
C1HA C2HA 1_555 1_555
C1BA C2BA 1_555 1_555
C1MA O1MA 1_555 1_555
C1UA C2UA 1_555 1_555
C1QA C2QA 1_555 1_555
C2I C3 1_555 1_555
C2F C3I 1_555 1_555
C2N C1N 1_555 1_555
C2T C3N 1_555 1_555
C2Q C3T 1_555 1_555
C2Y C1Y 1_555 1_555
C2HA C3Y 1_555 1_555
C2BA C3HA 1_555 1_555
C2MA C1MA 1_555 1_555
C2UA C3MA 1_555 1_555
C2QA C3UA 1_555 1_555
C3I C2I 1_555 1_555
C3F C2 1_555 1_555
C3N C2N 1_555 1_555
C3T C2T 1_555 1_555
C3Q C2N 1_555 1_555
C3Y C2Y 1_555 1_555
C3HA C2HA 1_555 1_555
C3BA C2Y 1_555 1_555
C3MA C2MA 1_555 1_555
C3UA C2UA 1_555 1_555
C3QA C2MA 1_555 1_555
H1F C3F 1_555 1_555
H1I C3I 1_555 1_555
H1N C3N 1_555 1_555
H1Q C3Q 1_555 1_555
H1T C3T 1_555 1_555
H1Y C3Y 1_555 1_555
H1BA C3BA 1_555 1_555
H1HA C3HA 1_555 1_555
H1MA C3MA 1_555 1_555
H1QA C3QA 1_555 1_555
H1UA C3UA 1_555 1_555
C2F C3F 1_555 1_555
C2Q C3Q 1_555 1_555
C2BA C3BA 1_555 1_555
C2QA C3QA 1_555 1_555

#END
