
#######################################################################
#
#                 Cambridge Crystallographic Data Centre
#                                CCDC 
#
#######################################################################
#
# If this CIF has been generated from an entry in the Cambridge 
# Structural Database, then it will include bibliographic, chemical, 
# crystal, experimental, refinement or atomic coordinate data resulting 
# from the CCDC's data processing and validation procedures.
#
#######################################################################

data_ENAWAS
_symmetry_cell_setting           triclinic
_symmetry_space_group_name_H-M   'P -1'
_symmetry_Int_Tables_number      2
_space_group_name_Hall           '-P 1'
loop_
_symmetry_equiv_pos_site_id
_symmetry_equiv_pos_as_xyz
1 x,y,z
2 -x,-y,-z
_cell_length_a                   9.0913(6)
_cell_length_b                   9.4529(6)
_cell_length_c                   12.4989(7)
_cell_angle_alpha                90.617(5)
_cell_angle_beta                 100.867(5)
_cell_angle_gamma                112.852(4)
_cell_volume                     967.891
loop_
_atom_site_label
_atom_site_type_symbol
_atom_site_fract_x
_atom_site_fract_y
_atom_site_fract_z
Ni1 Ni 0.38261(5) 0.89325(5) 0.19076(3)
Ni2 Ni 0.13600(5) 0.65895(5) 0.33537(3)
N1 N 0.2541(3) 0.6615(3) 0.1260(2)
N2 N 0.1577(3) 0.5669(3) 0.1869(2)
C1 C 0.2779(5) 0.6018(5) 0.0381(3)
H1 H 0.3436 0.6682 -0.0042
C2 C 0.2098(5) 0.4451(5) 0.0057(3)
H2 H 0.2308 0.4068 -0.0560
C3 C 0.1122(5) 0.3498(5) 0.0663(3)
H3 H 0.0638 0.2438 0.0483
C4 C 0.0872(5) 0.4175(4) 0.1568(3)
H4 H 0.0173 0.3542 0.1983
N3 N 0.3884(3) 0.7229(3) 0.3888(2)
N4 N 0.4863(3) 0.8077(3) 0.3253(2)
C5 C 0.4525(4) 0.6783(4) 0.4797(3)
H5 H 0.3830 0.6190 0.5229
C6 C 0.6189(4) 0.7164(4) 0.5131(3)
H6 H 0.6611 0.6857 0.5781
C7 C 0.7178(4) 0.8000(4) 0.4478(3)
H7 H 0.8301 0.8279 0.4659
C8 C 0.6448(4) 0.8423(4) 0.3527(3)
H8 H 0.7106 0.8977 0.3062
N5 N 0.0867(4) 0.4524(3) 0.4035(2)
C9 C -0.0077(4) 0.3515(4) 0.4373(2)
S1 S -0.14063(10) 0.20763(9) 0.48624(7)
N6 N -0.1087(3) 0.5936(4) 0.2856(2)
C10 C -0.2495(4) 0.5379(4) 0.2632(3)
S2 S -0.44895(12) 0.46041(12) 0.22770(10)
N7 N 0.1930(3) 0.8696(3) 0.2680(2)
C11 C 0.1211(4) 0.9499(4) 0.2694(3)
S3 S 0.02562(14) 1.05970(13) 0.27167(10)
N8 N 0.5639(4) 0.9222(4) 0.1104(2)
C12 C 0.6438(4) 0.9524(4) 0.0463(3)
S4 S 0.75646(11) 0.99223(12) -0.04665(7)
O1 O 0.5185(3) 1.1135(3) 0.2759(2)
H9 H 0.6060 1.1360 0.3189
H10 H 0.5098 1.1929 0.2563
Ni1A Ni 0.61739(5) 1.10675(5) -0.19076(3)
Ni2A Ni -0.13600(5) 0.34105(5) 0.66463(3)
S1A S 0.14063(10) 0.79237(9) 0.51376(7)
S4A S 0.24354(11) 1.00777(12) 0.04665(7)
loop_
_geom_bond_atom_site_label_1
_geom_bond_atom_site_label_2
_geom_bond_site_symmetry_1
_geom_bond_site_symmetry_2
Ni1 N1 1_555 1_555
Ni2 N2 1_555 1_555
N1 N2 1_555 1_555
N2 C4 1_555 1_555
C1 N1 1_555 1_555
H1 C1 1_555 1_555
C2 C1 1_555 1_555
H2 C2 1_555 1_555
C3 C2 1_555 1_555
H3 C3 1_555 1_555
C4 C3 1_555 1_555
H4 C4 1_555 1_555
N3 Ni2 1_555 1_555
N4 Ni1 1_555 1_555
C5 N3 1_555 1_555
H5 C5 1_555 1_555
C6 C5 1_555 1_555
H6 C6 1_555 1_555
C7 C6 1_555 1_555
H7 C7 1_555 1_555
C8 N4 1_555 1_555
H8 C8 1_555 1_555
N5 Ni2 1_555 1_555
C9 N5 1_555 1_555
S1 C9 1_555 1_555
N6 Ni2 1_555 1_555
C10 N6 1_555 1_555
S2 C10 1_555 1_555
N7 Ni1 1_555 1_555
C11 N7 1_555 1_555
S3 C11 1_555 1_555
N8 Ni1 1_555 1_555
C12 N8 1_555 1_555
S4 C12 1_555 1_555
O1 Ni1 1_555 1_555
H9 O1 1_555 1_555
H10 O1 1_555 1_555
Ni1A S4 1_555 1_555
Ni2A S1 1_555 1_555
S1A Ni2 1_555 1_555
S4A Ni1 1_555 1_555
Ni2 N7 1_555 1_555
N3 N4 1_555 1_555
C7 C8 1_555 1_555

#END
