
#######################################################################
#
#                 Cambridge Crystallographic Data Centre
#                                CCDC 
#
#######################################################################
#
# If this CIF has been generated from an entry in the Cambridge 
# Structural Database, then it will include bibliographic, chemical, 
# crystal, experimental, refinement or atomic coordinate data resulting 
# from the CCDC's data processing and validation procedures.
#
#######################################################################

data_ENAYIC
_symmetry_cell_setting           triclinic
_symmetry_space_group_name_H-M   'P -1'
_symmetry_Int_Tables_number      2
_space_group_name_Hall           '-P 1'
loop_
_symmetry_equiv_pos_site_id
_symmetry_equiv_pos_as_xyz
1 x,y,z
2 -x,-y,-z
_cell_length_a                   8.1462(4)
_cell_length_b                   12.5647(6)
_cell_length_c                   23.0020(11)
_cell_angle_alpha                99.207(1)
_cell_angle_beta                 90.245(1)
_cell_angle_gamma                98.283(1)
_cell_volume                     2298.88
loop_
_atom_site_label
_atom_site_type_symbol
_atom_site_fract_x
_atom_site_fract_y
_atom_site_fract_z
Sm1 Sm 0.33092(3) 0.15350(2) 0.297130(12)
Sm2 Sm 0.16158(3) 0.34490(2) 0.203297(12)
Sm3 Sm 0.86271(3) 0.15568(2) 0.288060(12)
Sm4 Sm 0.62665(3) 0.33636(2) 0.207431(12)
O1 O 0.6131(5) 0.2421(3) 0.29077(17)
O2 O 0.3590(4) 0.2224(3) 0.20535(16)
O3 O 0.1297(5) 0.2723(3) 0.29317(16)
O4 O 0.0716(5) 0.0948(3) 0.35559(18)
O5 O -0.1204(5) 0.2522(3) 0.20592(17)
O6 O 0.7039(5) 0.0453(3) 0.34910(18)
O7 O 0.8696(5) 0.2869(3) 0.37536(17)
O8 O 0.9655(5) 0.2180(3) 0.45012(18)
O9 O 0.0620(5) 0.4636(3) 0.14384(18)
O10 O 0.4170(5) 0.4001(3) 0.14179(17)
O11 O -0.2142(5) 0.4362(3) 0.14324(19)
O12 O 0.6146(5) 0.2065(3) 0.12010(17)
O13 O -0.2084(5) 0.4751(3) 0.27336(18)
O14 O 0.0658(5) 0.4840(3) 0.27214(18)
O15 O 0.4314(5) 0.0116(3) 0.23326(18)
O16 O 0.3847(5) 0.2727(3) 0.39114(17)
O17 O 0.7022(5) 0.0186(3) 0.21776(18)
O18 O 0.5130(5) 0.2767(3) 0.04702(18)
O19 O 0.4317(5) 0.0433(3) 0.36131(18)
O20 O 0.1090(5) 0.2279(3) 0.10798(17)
N1 N 0.0767(6) 0.0574(4) 0.2349(2)
N2 N 0.0589(6) -0.0265(4) 0.1996(2)
N3 N 0.0437(7) -0.1058(4) 0.1677(3)
N4 N 0.4190(6) 0.4379(4) 0.2629(2)
N5 N 0.4445(6) 0.5131(4) 0.3037(2)
N6 N 0.4398(7) -0.1607(4) 0.4875(2)
N7 N 0.4673(7) 0.5848(4) 0.3405(3)
N8 N -0.0049(6) 0.7029(4) 0.0347(2)
N9 N 0.7041(6) 0.5358(4) 0.4932(2)
N10 N 0.3647(6) -0.3260(4) 0.1882(2)
N11 N 0.1239(6) 0.8182(4) 0.3301(2)
N12 N 0.7904(6) -0.0341(4) 0.0011(2)
C1 C 0.5698(7) 0.0165(5) 0.3727(3)
C2 C 0.5743(8) -0.0564(5) 0.4186(3)
C3 C 0.7228(8) -0.0825(5) 0.4378(3)
H1 H 0.8226 -0.0567 0.4218
C4 C 0.7202(8) -0.1475(5) 0.4810(3)
H2 H 0.8203 -0.1648 0.4935
C5 C 0.5812(8) -0.1866(5) 0.5058(3)
H3 H 0.5835 -0.2303 0.5347
C6 C 0.4300(8) -0.0955(5) 0.4444(3)
H4 H 0.3283 -0.0786 0.4332
C7 C -0.0783(7) 0.4756(5) 0.1249(3)
C8 C -0.0870(7) 0.5430(5) 0.0772(3)
C9 C 0.0157(7) 0.6421(5) 0.0787(3)
H5 H 0.0962 0.6668 0.1084
C10 C -0.1154(7) 0.6691(5) -0.0098(3)
H6 H -0.1244 0.7110 -0.0392
C11 C -0.2120(7) 0.5741(5) -0.0110(3)
H7 H -0.2884 0.5501 -0.0421
C12 C -0.2045(7) 0.5091(5) 0.0320(3)
H8 H -0.2767 0.4442 0.0304
C13 C 0.8975(7) 0.2868(5) 0.4302(3)
C14 C 0.8392(7) 0.3780(5) 0.4719(3)
C15 C 0.8725(7) 0.3880(5) 0.5320(3)
H9 H 0.9297 0.3387 0.5468
C16 C 0.8184(7) 0.4732(5) 0.5695(3)
H10 H 0.8402 0.4794 0.6097
C17 C 0.7368(7) 0.5467(5) 0.5508(3)
H11 H 0.7039 0.6035 0.5771
C18 C 0.7534(7) 0.4533(5) 0.4524(3)
H12 H 0.7289 0.4488 0.4125
C19 C 0.5561(7) -0.0305(5) 0.2161(3)
C20 C 0.5271(7) -0.1510(5) 0.1928(3)
C21 C 0.3859(7) -0.2145(5) 0.2078(3)
H13 H 0.3061 -0.1830 0.2306
C22 C 0.4726(7) -0.3753(5) 0.1546(3)
H14 H 0.4557 -0.4504 0.1423
C23 C 0.6050(7) -0.3131(5) 0.1395(3)
H15 H 0.6795 -0.3463 0.1148
C24 C 0.6406(7) -0.2010(5) 0.1581(3)
H16 H 0.7378 -0.1611 0.1475
C25 C -0.0639(7) 0.5254(5) 0.2796(3)
C26 C -0.0438(7) 0.6480(5) 0.2965(3)
C27 C -0.1748(7) 0.7043(5) 0.2906(3)
H17 H -0.2783 0.6673 0.2769
C28 C -0.1496(7) 0.8166(5) 0.3054(3)
H18 H -0.2380 0.8541 0.3010
C29 C -0.0049(7) 0.8731(5) 0.3256(3)
H19 H 0.0073 0.9485 0.3363
C30 C 0.1086(7) 0.7061(5) 0.3167(3)
H20 H 0.1990 0.6703 0.3211
C31 C 0.5864(7) 0.2093(5) 0.0657(3)
C32 C 0.6514(7) 0.1227(5) 0.0230(3)
C33 C 0.6238(8) 0.1161(5) -0.0373(3)
H21 H 0.5668 0.1658 -0.0519
C34 C 0.7636(8) -0.0404(5) -0.0579(3)
H22 H 0.8005 -0.0946 -0.0849
C35 C 0.6833(7) 0.0336(5) -0.0754(3)
H23 H 0.6655 0.0303 -0.1156
C36 C 0.7367(8) 0.0462(5) 0.0417(3)
H24 H 0.7579 0.0487 0.0817
Sm3_2 Sm -0.13729(3) 0.15568(2) 0.288060(12)
Sm4_2 Sm -0.37335(3) 0.33636(2) 0.207431(12)
O3_2 O 1.1297(5) 0.2723(3) 0.29317(16)
O4_2 O 1.0716(5) 0.0948(3) 0.35559(18)
O5_2 O 0.8796(5) 0.2522(3) 0.20592(17)
O11_2 O 0.7858(5) 0.4362(3) 0.14324(19)
O13_2 O 0.7916(5) 0.4751(3) 0.27336(18)
N1_2 N 1.0767(6) 0.0574(4) 0.2349(2)
loop_
_geom_bond_atom_site_label_1
_geom_bond_atom_site_label_2
_geom_bond_site_symmetry_1
_geom_bond_site_symmetry_2
Sm1 O1 1_555 1_555
Sm2 O2 1_555 1_555
Sm3 O1 1_555 1_555
Sm4 O1 1_555 1_555
O2 Sm1 1_555 1_555
O3 Sm1 1_555 1_555
O4 Sm1 1_555 1_555
O5 Sm2 1_555 1_555
O6 Sm3 1_555 1_555
O7 Sm3 1_555 1_555
O8 C13 1_555 1_555
O9 Sm2 1_555 1_555
O10 Sm2 1_555 1_555
O11 C7 1_555 1_555
O12 Sm4 1_555 1_555
O13 C25 1_555 1_555
O14 Sm2 1_555 1_555
O15 Sm1 1_555 1_555
O16 Sm1 1_555 1_555
O17 Sm3 1_555 1_555
O18 C31 1_555 1_555
O19 Sm1 1_555 1_555
O20 Sm2 1_555 1_555
N1 Sm1 1_555 1_555
N2 N1 1_555 1_555
N3 N2 1_555 1_555
N4 Sm2 1_555 1_555
N5 N4 1_555 1_555
N6 C5 1_555 1_555
N7 N5 1_555 1_555
N8 C9 1_555 1_555
N9 C17 1_555 1_555
N10 C21 1_555 1_555
N11 C29 1_555 1_555
N12 C34 1_555 1_555
C1 O6 1_555 1_555
C2 C1 1_555 1_555
C3 C2 1_555 1_555
H1 C3 1_555 1_555
C4 C3 1_555 1_555
H2 C4 1_555 1_555
C5 C4 1_555 1_555
H3 C5 1_555 1_555
C6 N6 1_555 1_555
H4 C6 1_555 1_555
C7 O9 1_555 1_555
C8 C7 1_555 1_555
C9 C8 1_555 1_555
H5 C9 1_555 1_555
C10 N8 1_555 1_555
H6 C10 1_555 1_555
C11 C10 1_555 1_555
H7 C11 1_555 1_555
C12 C8 1_555 1_555
H8 C12 1_555 1_555
C13 O7 1_555 1_555
C14 C13 1_555 1_555
C15 C14 1_555 1_555
H9 C15 1_555 1_555
C16 C15 1_555 1_555
H10 C16 1_555 1_555
C17 C16 1_555 1_555
H11 C17 1_555 1_555
C18 N9 1_555 1_555
H12 C18 1_555 1_555
C19 O15 1_555 1_555
C20 C19 1_555 1_555
C21 C20 1_555 1_555
H13 C21 1_555 1_555
C22 N10 1_555 1_555
H14 C22 1_555 1_555
C23 C22 1_555 1_555
H15 C23 1_555 1_555
C24 C20 1_555 1_555
H16 C24 1_555 1_555
C25 O14 1_555 1_555
C26 C25 1_555 1_555
C27 C26 1_555 1_555
H17 C27 1_555 1_555
C28 C27 1_555 1_555
H18 C28 1_555 1_555
C29 C28 1_555 1_555
H19 C29 1_555 1_555
C30 N11 1_555 1_555
H20 C30 1_555 1_555
C31 O12 1_555 1_555
C32 C31 1_555 1_555
C33 C32 1_555 1_555
H21 C33 1_555 1_555
C34 H22 1_555 1_555
C35 C33 1_555 1_555
H23 C35 1_555 1_555
C36 N12 1_555 1_555
H24 C36 1_555 1_555
Sm3_2 O3 1_555 1_555
Sm4_2 O5 1_555 1_555
O3_2 Sm3 1_555 1_555
O4_2 Sm3 1_555 1_555
O5_2 Sm3 1_555 1_555
O11_2 Sm4 1_555 1_555
O13_2 Sm4 1_555 1_555
N1_2 Sm3 1_555 1_555
Sm2 O3 1_555 1_555
Sm4 O2 1_555 1_555
Sm4 O10 1_555 1_555
Sm4 N4 1_555 1_555
Sm4 O5_2 1_555 1_555
O4 Sm3_2 1_555 1_555
O5 Sm3_2 1_555 1_555
O11 Sm4_2 1_555 1_555
O13 Sm4_2 1_555 1_555
O17 C19 1_555 1_555
O19 C1 1_555 1_555
N1 Sm3_2 1_555 1_555
C2 C6 1_555 1_555
C11 C12 1_555 1_555
C14 C18 1_555 1_555
C23 C24 1_555 1_555
C26 C30 1_555 1_555
C32 C36 1_555 1_555
C34 C35 1_555 1_555

#END
