
#######################################################################
#
#                 Cambridge Crystallographic Data Centre
#                                CCDC 
#
#######################################################################
#
# If this CIF has been generated from an entry in the Cambridge 
# Structural Database, then it will include bibliographic, chemical, 
# crystal, experimental, refinement or atomic coordinate data resulting 
# from the CCDC's data processing and validation procedures.
#
#######################################################################

data_ENCNBZ
_symmetry_cell_setting           tetragonal
_symmetry_space_group_name_H-M   'P 4/m'
_symmetry_Int_Tables_number      83
_space_group_name_Hall           '-P 4'
loop_
_symmetry_equiv_pos_site_id
_symmetry_equiv_pos_as_xyz
1 x,y,z
2 -y,x,z
3 -x,-y,z
4 y,-x,z
5 -x,-y,-z
6 y,-x,-z
7 x,y,-z
8 -y,x,-z
_cell_length_a                   7.675(3)
_cell_length_b                   7.675(3)
_cell_length_c                   8.056(10)
_cell_angle_alpha                90
_cell_angle_beta                 90
_cell_angle_gamma                90
_cell_volume                     474.544
loop_
_atom_site_label
_atom_site_type_symbol
_atom_site_fract_x
_atom_site_fract_y
_atom_site_fract_z
C2 C 0.00000 0.00000 0.41450
C2D C 0.00000 0.00000 0.58550
C3 C 0.50000 0.00000 0.31880
C4 C 0.48650 0.15830 0.41290
C4B C 0.51350 -0.15830 0.41290
C4F C 0.48650 0.15830 0.58710
C4D C 0.51350 -0.15830 0.58710
C3D C 0.50000 0.00000 0.68120
Cd1 Cd 0.00000 0.00000 0.00000
C1 C 0.33060 0.32630 0.00000
Ni1 Ni 0.50000 0.50000 0.00000
N1 N 0.22090 0.22000 0.00000
N1D N -0.22090 -0.22000 0.00000
N1A N -0.22000 0.22090 0.00000
N1E N 0.22000 -0.22090 0.00000
C1D C 0.66940 0.67370 0.00000
C1A C 0.67370 0.33060 0.00000
C1E C 0.32630 0.66940 0.00000
C1D_2 C -0.33060 -0.32630 0.00000
C1A_2 C -0.32630 0.33060 0.00000
C1E_2 C 0.32630 -0.33060 0.00000
N1D_2 N 0.77910 0.78000 0.00000
N1A_2 N 0.78000 0.22090 0.00000
N1E_2 N 0.22000 0.77910 0.00000
loop_
_geom_bond_atom_site_label_1
_geom_bond_atom_site_label_2
_geom_bond_site_symmetry_1
_geom_bond_site_symmetry_2
Cd1 N1 1_555 1_555
C1 Ni1 1_555 1_555
C2 C2D 1_555 1_555
C3 C4 1_555 1_555
C4 C4F 1_555 1_555
Ni1 C1D 1_555 1_555
N1 C1 1_555 1_555
N1D Cd1 1_555 1_555
N1A Cd1 1_555 1_555
N1E Cd1 1_555 1_555
C1D N1D_2 1_555 1_555
C1A Ni1 1_555 1_555
C1E Ni1 1_555 1_555
C1D_2 N1D 1_555 1_555
C1A_2 N1A 1_555 1_555
C1E_2 N1E 1_555 1_555
N1A_2 C1A 1_555 1_555
N1E_2 C1E 1_555 1_555
C4B C3 1_555 1_555
C4F C3D 1_555 1_555
C4D C4B 1_555 1_555
C3D C4D 1_555 1_555

#END
