
#######################################################################
#
#                 Cambridge Crystallographic Data Centre
#                                CCDC 
#
#######################################################################
#
# If this CIF has been generated from an entry in the Cambridge 
# Structural Database, then it will include bibliographic, chemical, 
# crystal, experimental, refinement or atomic coordinate data resulting 
# from the CCDC's data processing and validation procedures.
#
#######################################################################

data_ENCTMN
_symmetry_cell_setting           triclinic
_symmetry_space_group_name_H-M   'P -1'
_symmetry_Int_Tables_number      2
_space_group_name_Hall           '-P 1'
loop_
_symmetry_equiv_pos_site_id
_symmetry_equiv_pos_as_xyz
1 x,y,z
2 -x,-y,-z
_cell_length_a                   9.332(8)
_cell_length_b                   7.193(10)
_cell_length_c                   11.159(8)
_cell_angle_alpha                113.9(1)
_cell_angle_beta                 96.8(1)
_cell_angle_gamma                105.7(1)
_cell_volume                     636.76
loop_
_atom_site_label
_atom_site_type_symbol
_atom_site_fract_x
_atom_site_fract_y
_atom_site_fract_z
C1 C 0.33980 -0.98780 0.12840
C2 C 0.18770 -0.16470 0.44930
C3 C 0.11060 -0.14390 0.56330
C4 C 0.00070 -0.30450 0.14730
C5 C -0.05410 -0.45120 0.19690
C6 C -0.21110 -0.53710 0.18210
C7 C -0.30760 -0.46510 0.12230
C8 C -0.24410 -0.31230 0.07860
C9 C 0.05610 -0.53190 0.25410
C10 C 0.28550 -0.47180 0.41080
C11 C 0.42530 -0.42440 0.35790
H1 H 0.11460 -0.25050 0.15410
H2 H 0.15000 -0.09740 0.39700
H3 H 0.30870 -0.07370 0.48740
H4 H -0.00300 -0.23940 0.50850
H5 H 0.11820 0.01650 0.63730
H6 H 0.16080 -0.20440 0.62260
H7 H -0.24880 -0.65910 0.20190
H8 H -0.41800 -0.52070 0.11700
H9 H -0.31210 -0.26160 0.03680
H10 H 0.23730 -0.63700 0.36690
H11 H 0.31550 -0.38660 0.51960
H12 H 0.39180 -0.49580 0.25180
H13 H 0.50340 -0.48070 0.39140
H14 H 0.48030 -0.25960 0.39420
Mn1 Mn 0.00000 -1.00000 0.00000
N1 N 0.23240 -0.98150 0.07050
N2 N -0.09390 -0.23820 0.08740
N3 N 0.16950 -0.39350 0.36460
O1 O 0.03620 -0.72790 0.19640
S1 S 0.48880 -1.00220 0.21090
N1A N -0.23240 -1.01850 -0.07050
N2A N 0.09390 -0.76180 -0.08740
O1A O -0.03620 -1.27210 -0.19640
C1A C -0.33980 -1.01220 -0.12840
Mn1_2 Mn 0.00000 -2.00000 0.00000
S1A S -0.48880 -0.99780 -0.21090
Mn1_3 Mn 0.00000 0.00000 0.00000
C9A C -0.05610 -1.46810 -0.25410
C5A C 0.05410 -1.54880 -0.19690
N3A N -0.16950 -1.60650 -0.36460
C4A C -0.00070 -1.69550 -0.14730
C6A C 0.21110 -1.46290 -0.18210
C2A C -0.18770 -1.83530 -0.44930
C10A C -0.28550 -1.52820 -0.41080
N2_2 N -0.09390 -1.23820 0.08740
H1A H -0.11460 -1.74950 -0.15410
N2A_2 N 0.09390 -1.76180 -0.08740
C7A C 0.30760 -1.53490 -0.12230
H7A H 0.24880 -1.34090 -0.20190
C3A C -0.11060 -1.85610 -0.56330
H2A H -0.15000 -1.90260 -0.39700
H3A H -0.30870 -1.92630 -0.48740
C11A C -0.42530 -1.57560 -0.35790
H10A H -0.23730 -1.36300 -0.36690
H11A H -0.31550 -1.61340 -0.51960
C8A C 0.24410 -1.68770 -0.07860
H8A H 0.41800 -1.47930 -0.11700
H4A H 0.00300 -1.76060 -0.50850
H5A H -0.11820 -2.01650 -0.63730
H6A H -0.16080 -1.79560 -0.62260
H12A H -0.39180 -1.50420 -0.25180
H13A H -0.50340 -1.51930 -0.39140
H14A H -0.48030 -1.74040 -0.39420
H9A H 0.31210 -1.73840 -0.03680
loop_
_geom_bond_atom_site_label_1
_geom_bond_atom_site_label_2
_geom_bond_site_symmetry_1
_geom_bond_site_symmetry_2
C1 N1 1_555 1_555
C2 C3 1_555 1_555
C3 H4 1_555 1_555
C4 C5 1_555 1_555
C5 C6 1_555 1_555
C6 C7 1_555 1_555
C7 C8 1_555 1_555
C8 H9 1_555 1_555
C9 C5 1_555 1_555
C10 C11 1_555 1_555
C11 H12 1_555 1_555
H1 C4 1_555 1_555
H2 C2 1_555 1_555
H3 C2 1_555 1_555
H5 C3 1_555 1_555
H6 C3 1_555 1_555
H7 C6 1_555 1_555
H8 C7 1_555 1_555
H10 C10 1_555 1_555
H11 C10 1_555 1_555
H13 C11 1_555 1_555
H14 C11 1_555 1_555
Mn1 N1 1_555 1_555
N2 C4 1_555 1_555
N3 C2 1_555 1_555
O1 C9 1_555 1_555
S1 C1 1_555 1_555
N1A Mn1 1_555 1_555
N2A Mn1 1_555 1_555
O1A Mn1 1_555 1_555
C1A N1A 1_555 1_555
Mn1_2 N2A_2 1_555 1_555
S1A C1A 1_555 1_555
Mn1_3 N2 1_555 1_555
C9A O1A 1_555 1_555
C5A C9A 1_555 1_555
N3A C9A 1_555 1_555
C4A C5A 1_555 1_555
C6A C5A 1_555 1_555
C2A N3A 1_555 1_555
C10A N3A 1_555 1_555
N2_2 Mn1 1_555 1_555
H1A C4A 1_555 1_555
N2A_2 C4A 1_555 1_555
C7A C6A 1_555 1_555
H7A C6A 1_555 1_555
C3A C2A 1_555 1_555
H2A C2A 1_555 1_555
H3A C2A 1_555 1_555
C11A C10A 1_555 1_555
H10A C10A 1_555 1_555
H11A C10A 1_555 1_555
C8A N2A_2 1_555 1_555
H8A C7A 1_555 1_555
H4A C3A 1_555 1_555
H5A C3A 1_555 1_555
H6A C3A 1_555 1_555
H12A C11A 1_555 1_555
H13A C11A 1_555 1_555
H14A C11A 1_555 1_555
H9A C8A 1_555 1_555
C8 N2 1_555 1_555
C9 N3 1_555 1_555
C10 N3 1_555 1_555
Mn1 O1 1_555 1_555
C7A C8A 1_555 1_555

#END
