
#######################################################################
#
#                 Cambridge Crystallographic Data Centre
#                                CCDC 
#
#######################################################################
#
# If this CIF has been generated from an entry in the Cambridge 
# Structural Database, then it will include bibliographic, chemical, 
# crystal, experimental, refinement or atomic coordinate data resulting 
# from the CCDC's data processing and validation procedures.
#
#######################################################################

data_ENEBOO
_symmetry_cell_setting           orthorhombic
_symmetry_space_group_name_H-M   'P b c a'
_symmetry_Int_Tables_number      61
_space_group_name_Hall           '-P 2ac 2ab'
loop_
_symmetry_equiv_pos_site_id
_symmetry_equiv_pos_as_xyz
1 x,y,z
2 1/2+x,y,1/2-z
3 x,1/2-y,1/2+z
4 1/2-x,1/2+y,z
5 -x,-y,-z
6 1/2-x,-y,1/2+z
7 -x,1/2+y,1/2-z
8 1/2+x,1/2-y,-z
_cell_length_a                   8.7633(6)
_cell_length_b                   7.8939(6)
_cell_length_c                   38.657(3)
_cell_angle_alpha                90
_cell_angle_beta                 90
_cell_angle_gamma                90
_cell_volume                     2674.16
loop_
_atom_site_label
_atom_site_type_symbol
_atom_site_fract_x
_atom_site_fract_y
_atom_site_fract_z
B1 B 1.6251(2) 1.1450(2) 0.55968(5)
C1 C 1.4699(2) 1.0538(2) 0.54902(4)
C2 C 1.60924(18) 1.2423(2) 0.59647(4)
H1 H 1.7081 1.3011 0.6013
C3 C 1.4801(2) 1.4797(2) 0.62284(5)
H2 H 1.4507 1.4132 0.6435
H3 H 1.5800 1.5338 0.6274
C4 C 1.3625(2) 1.6121(3) 0.61574(6)
H4 H 1.2645 1.5576 0.6107
H5 H 1.3518 1.6856 0.6360
H6 H 1.3941 1.6801 0.5958
C5 C 1.57693(19) 1.1280(2) 0.62544(4)
C6 C 1.55267(19) 1.0329(2) 0.64900(4)
C7 C 1.51971(19) 0.9186(2) 0.67688(4)
C8 C 1.6198(2) 0.7881(2) 0.68537(5)
H7 H 1.7131 0.7763 0.6731
C9 C 1.5842(2) 0.6756(3) 0.71155(5)
H8 H 1.6526 0.5860 0.7170
C10 C 1.4498(2) 0.6926(3) 0.72987(5)
H9 H 1.4260 0.6156 0.7480
C11 C 1.3503(2) 0.8219(3) 0.72175(5)
H10 H 1.2578 0.8337 0.7343
C12 C 1.3838(2) 0.9342(2) 0.69552(5)
H11 H 1.3143 1.0226 0.6901
N1 N 1.35820(18) 0.9911(2) 0.54036(4)
Na1 Na 1.09372(8) 0.92111(9) 0.538099(18)
O1 O 0.95698(16) 1.16353(17) 0.51999(3)
O2 O 1.49147(13) 1.37021(14) 0.59329(3)
H12 H 1.716(2) 1.049(2) 0.5606(4)
H13 H 1.652(2) 1.240(2) 0.5379(4)
H14 H 0.875(3) 1.175(3) 0.5296(6)
H15 H 1.003(3) 1.256(3) 0.5228(6)
O1D O 1.04302(16) 0.83647(17) 0.48001(3)
O2C O 1.00853(13) 0.87021(14) 0.59329(3)
Na1D Na 0.90628(8) 1.07889(9) 0.461901(18)
Na1C Na 1.40628(8) 1.42111(9) 0.538099(18)
H14D H 1.125(3) 0.825(3) 0.4704(6)
H15D H 0.997(3) 0.744(3) 0.4772(6)
loop_
_geom_bond_atom_site_label_1
_geom_bond_atom_site_label_2
_geom_bond_site_symmetry_1
_geom_bond_site_symmetry_2
B1 C1 1_555 1_555
C1 N1 1_555 1_555
C2 B1 1_555 1_555
H1 C2 1_555 1_555
C3 H2 1_555 1_555
H3 C3 1_555 1_555
C4 C3 1_555 1_555
H4 C4 1_555 1_555
H5 C4 1_555 1_555
H6 C4 1_555 1_555
C5 C2 1_555 1_555
C6 C5 1_555 1_555
C7 C6 1_555 1_555
C8 C7 1_555 1_555
H7 C8 1_555 1_555
C9 C8 1_555 1_555
H8 C9 1_555 1_555
C10 C9 1_555 1_555
H9 C10 1_555 1_555
C11 C10 1_555 1_555
H10 C11 1_555 1_555
C12 C7 1_555 1_555
H11 C12 1_555 1_555
N1 Na1 1_555 1_555
Na1 O1 1_555 1_555
O1 H14 1_555 1_555
O2 C2 1_555 1_555
H12 B1 1_555 1_555
H13 B1 1_555 1_555
H15 O1 1_555 1_555
O1D Na1 1_555 1_555
O2C Na1 1_555 1_555
Na1D O1 1_555 1_555
Na1C O2 1_555 1_555
H14D O1D 1_555 1_555
H15D O1D 1_555 1_555
C3 O2 1_555 1_555
C11 C12 1_555 1_555
O1D Na1D 1_555 1_555

#END
