
#######################################################################
#
#                 Cambridge Crystallographic Data Centre
#                                CCDC 
#
#######################################################################
#
# If this CIF has been generated from an entry in the Cambridge 
# Structural Database, then it will include bibliographic, chemical, 
# crystal, experimental, refinement or atomic coordinate data resulting 
# from the CCDC's data processing and validation procedures.
#
#######################################################################

data_ENEDOR01
_symmetry_cell_setting           monoclinic
_symmetry_space_group_name_H-M   'P 21/c'
_symmetry_Int_Tables_number      14
_space_group_name_Hall           '-P 2ybc'
loop_
_symmetry_equiv_pos_site_id
_symmetry_equiv_pos_as_xyz
1 x,y,z
2 -x,1/2+y,1/2-z
3 -x,-y,-z
4 x,1/2-y,1/2+z
_cell_length_a                   7.4973(3)
_cell_length_b                   17.2113(8)
_cell_length_c                   8.5729(4)
_cell_angle_alpha                90
_cell_angle_beta                 110.9440(10)
_cell_angle_gamma                90
_cell_volume                     1033.14
loop_
_atom_site_label
_atom_site_type_symbol
_atom_site_fract_x
_atom_site_fract_y
_atom_site_fract_z
Pr1 Pr 0.67062(2) 0.411229(9) 0.246956(19)
O1 O 0.7802(3) 0.29953(12) 0.4515(3)
O2 O 0.7246(3) 0.20161(13) 0.5958(3)
O3 O 0.4207(3) 0.08074(12) 0.4746(3)
O4 O 0.2390(3) 0.05914(13) 0.2118(3)
O5 O 0.7143(3) 0.44975(13) 0.5439(3)
O6 O 0.6015(3) 0.51385(13) 0.7152(3)
O7 O 0.8445(3) 0.45024(14) 0.0506(3)
H1 H 0.7745 0.4831 -0.0400
H2 H 0.8631 0.4120 -0.0143
O8 O 1.0248(3) 0.41360(13) 0.3852(3)
H3 H 1.0704 0.4453 0.3385
H4 H 1.0978 0.4113 0.5057
N1 N 0.4136(4) 0.31172(15) 0.2556(3)
N2 N 0.1895(4) 0.22318(15) 0.1651(3)
H5 H 0.0834 0.2016 0.1058
C1 C 0.2403(4) 0.29647(19) 0.1505(4)
H6 H 0.1628 0.3323 0.0753
C2 C 0.3314(4) 0.10379(17) 0.3289(4)
C3 C 0.3355(4) 0.18822(18) 0.2908(4)
C4 C 0.4744(4) 0.24513(17) 0.3468(4)
C5 C 0.6724(4) 0.24738(16) 0.4742(4)
C6 C 0.5907(4) 0.48939(17) 0.5755(4)
Pr1C Pr 0.67062(2) 0.088771(9) 0.746956(19)
Pr1A Pr 0.32938(2) -0.088771(9) 0.253044(19)
Pr1B Pr 0.32938(2) 0.588771(9) 0.753044(19)
Pr1A_2 Pr 0.32938(2) 0.911229(9) 0.253044(19)
Pr1C_2 Pr 0.67062(2) 1.088771(9) 0.746956(19)
O1B O 0.2198(3) 0.70047(12) 0.5485(3)
O2C O 0.7246(3) 0.29839(13) 0.0958(3)
O2A O 0.2754(3) 0.70161(13) 0.9042(3)
O2B O 0.2754(3) 0.79839(13) 0.4042(3)
O3C O 0.4207(3) 0.41926(12) -0.0254(3)
O3A O 0.5793(3) 0.58074(12) 1.0254(3)
O3B O 0.5793(3) 0.91926(12) 0.5254(3)
O4A O 0.7610(3) 0.55914(13) 0.2882(3)
O4C O 0.2390(3) 0.44086(13) 0.7118(3)
O4B O 0.7610(3) 0.94086(13) 0.7882(3)
O5B O 0.2857(3) 0.55025(13) 0.4561(3)
O6B O 0.3985(3) 0.48615(13) 0.2848(3)
O7B O 0.1555(3) 0.54976(14) 0.9494(3)
H1B H 0.2255 0.5169 1.0400
H2B H 0.1369 0.5880 1.0143
O8B O -0.0248(3) 0.58640(13) 0.6148(3)
H3B H -0.0704 0.5547 0.6615
H4B H -0.0978 0.5887 0.4943
N1B N 0.5864(4) 0.68828(15) 0.7444(3)
N2B N 0.8105(4) 0.77682(15) 0.8349(3)
H5B H 0.9166 0.7984 0.8942
C1B C 0.7597(4) 0.70353(19) 0.8495(4)
H6B H 0.8372 0.6677 0.9247
C2B C 0.6686(4) 0.89621(17) 0.6711(4)
C3B C 0.6645(4) 0.81178(18) 0.7092(4)
C4B C 0.5256(4) 0.75487(17) 0.6532(4)
C5B C 0.3276(4) 0.75262(16) 0.5258(4)
C6B C 0.4093(4) 0.51061(17) 0.4245(4)
O9 O 0.9015(4) 0.35193(15) -0.1829(3)
H7 H 0.8499 0.3806 -0.2842
H8 H 0.8852 0.3097 -0.2590
loop_
_geom_bond_atom_site_label_1
_geom_bond_atom_site_label_2
_geom_bond_site_symmetry_1
_geom_bond_site_symmetry_2
Pr1 O1 1_555 1_555
O1 C5 1_555 1_555
O2 C5 1_555 1_555
O3 C2 1_555 1_555
O4 C2 1_555 1_555
O5 Pr1 1_555 1_555
O6 C6 1_555 1_555
O7 Pr1 1_555 1_555
H1 O7 1_555 1_555
H2 O7 1_555 1_555
O8 Pr1 1_555 1_555
H3 O8 1_555 1_555
H4 O8 1_555 1_555
N1 Pr1 1_555 1_555
N2 H5 1_555 1_555
C1 N1 1_555 1_555
H6 C1 1_555 1_555
C2 C3 1_555 1_555
C3 N2 1_555 1_555
C4 N1 1_555 1_555
C5 C4 1_555 1_555
C6 O5 1_555 1_555
O9 H7 1_555 1_555
H8 O9 1_555 1_555
Pr1C O2 1_555 1_555
Pr1A O4 1_555 1_555
Pr1B O6 1_555 1_555
Pr1A_2 O2B 1_555 1_555
Pr1C_2 O4B 1_555 1_555
O1B Pr1B 1_555 1_555
O2C Pr1 1_555 1_555
O2A Pr1B 1_555 1_555
O2B C5B 1_555 1_555
O3C Pr1 1_555 1_555
O3A Pr1B 1_555 1_555
O3B Pr1A_2 1_555 1_555
O4A Pr1 1_555 1_555
O4C Pr1B 1_555 1_555
O4B C2B 1_555 1_555
O5B Pr1B 1_555 1_555
O6B Pr1 1_555 1_555
O7B Pr1B 1_555 1_555
H1B O7B 1_555 1_555
H2B O7B 1_555 1_555
O8B Pr1B 1_555 1_555
H3B O8B 1_555 1_555
H4B O8B 1_555 1_555
N1B Pr1B 1_555 1_555
N2B H5B 1_555 1_555
C1B N1B 1_555 1_555
H6B C1B 1_555 1_555
C2B O3B 1_555 1_555
C3B N2B 1_555 1_555
C4B N1B 1_555 1_555
C5B O1B 1_555 1_555
C6B C6 1_555 1_555
O3 Pr1C 1_555 1_555
N2 C1 1_555 1_555
C3 C4 1_555 1_555
O5B C6B 1_555 1_555
O6B C6B 1_555 1_555
N2B C1B 1_555 1_555
C2B C3B 1_555 1_555
C3B C4B 1_555 1_555
C4B C5B 1_555 1_555

#END
