
#######################################################################
#
#                 Cambridge Crystallographic Data Centre
#                                CCDC 
#
#######################################################################
#
# If this CIF has been generated from an entry in the Cambridge 
# Structural Database, then it will include bibliographic, chemical, 
# crystal, experimental, refinement or atomic coordinate data resulting 
# from the CCDC's data processing and validation procedures.
#
#######################################################################

data_ENEDOR03
_symmetry_cell_setting           monoclinic
_symmetry_space_group_name_H-M   'P 21/c'
_symmetry_Int_Tables_number      14
_space_group_name_Hall           '-P 2ybc'
loop_
_symmetry_equiv_pos_site_id
_symmetry_equiv_pos_as_xyz
1 x,y,z
2 -x,1/2+y,1/2-z
3 -x,-y,-z
4 x,1/2-y,1/2+z
_cell_length_a                   7.5071(15)
_cell_length_b                   17.255(4)
_cell_length_c                   8.5855(17)
_cell_angle_alpha                90
_cell_angle_beta                 110.927(2)
_cell_angle_gamma                90
_cell_volume                     1038.76
loop_
_atom_site_label
_atom_site_type_symbol
_atom_site_fract_x
_atom_site_fract_y
_atom_site_fract_z
Pr1 Pr 0.17051(2) 0.588822(10) 0.74678(2)
O1 O 0.1022(4) 0.48589(15) 1.2154(3)
O2 O -0.0788(4) 0.58054(14) 0.4737(3)
O3 O 0.2140(3) 0.55006(15) 1.0435(3)
O4 O -0.2611(4) 0.55913(15) 0.2114(3)
O5 O 0.3434(4) 0.54968(16) 0.5498(4)
O6 O 0.2244(4) 0.70150(15) 0.5953(3)
O7 O 0.2797(3) 0.79954(14) 0.4513(3)
O8 O 0.5246(4) 0.58634(15) 0.8848(4)
H1 H 0.5802 0.5611 0.8228
H2 H 0.5606 0.5626 0.9842
N1 N -0.3119(4) 0.72237(18) 0.1636(4)
N2 N -0.0874(4) 0.81149(17) 0.2554(4)
C1 C -0.1635(5) 0.6882(2) 0.2905(4)
C2 C 0.0909(5) 0.51052(19) 1.0752(4)
C3 C -0.2601(5) 0.7965(2) 0.1505(5)
H3 H -0.3374 0.8324 0.0761
C4 C 0.1726(5) 0.74761(18) 0.4740(4)
C5 C -0.1680(5) 0.6039(2) 0.3291(4)
C6 C -0.0251(5) 0.74482(19) 0.3471(4)
H4 H 0.275(5) 0.5191(19) 0.486(4)
H5 H 0.408(5) 0.5850(17) 0.553(3)
O1B O -0.1022(4) 0.51411(15) 0.7846(3)
O3B O -0.2140(3) 0.44994(15) 0.9565(3)
C2B C -0.0909(5) 0.48948(19) 0.9248(4)
Pr1B Pr -0.17051(2) 0.411178(10) 0.25322(2)
O2B O 0.0788(4) 0.41946(14) 0.5263(3)
O4B O 0.2611(4) 0.44087(15) 0.7886(3)
O5B O -0.3434(4) 0.45032(16) 0.4502(4)
O6B O -0.2244(4) 0.29850(15) 0.4047(3)
O7B O -0.2797(3) 0.20046(14) 0.5487(3)
O8B O -0.5246(4) 0.41366(15) 0.1152(4)
H1B H -0.5802 0.4389 0.1772
H2B H -0.5606 0.4374 0.0158
N1B N 0.3119(4) 0.27763(18) 0.8364(4)
N2B N 0.0874(4) 0.18851(17) 0.7446(4)
C1B C 0.1635(5) 0.3118(2) 0.7095(4)
C3B C 0.2601(5) 0.2035(2) 0.8495(5)
H3B H 0.3374 0.1676 0.9239
C4B C -0.1726(5) 0.25239(18) 0.5260(4)
C5B C 0.1680(5) 0.3961(2) 0.6709(4)
C6B C 0.0251(5) 0.25518(19) 0.6529(4)
H4B H -0.275(5) 0.4809(19) 0.514(4)
H5B H -0.408(5) 0.4150(17) 0.447(3)
Pr1A Pr -0.17051(2) 0.088822(10) 0.75322(2)
Pr1B_2 Pr -0.17051(2) 0.411178(10) 1.25322(2)
Pr1C Pr 0.17051(2) 0.911178(10) 0.24678(2)
O1_2 O 0.1022(4) 0.48589(15) 0.2154(3)
O3B_2 O -0.2140(3) 0.44994(15) -0.0435(3)
O7A O -0.2797(3) 0.29954(14) 0.0487(3)
O7C O 0.2797(3) 0.70046(14) 0.9513(3)
N2A N 0.0874(4) 0.31149(17) 0.2446(4)
N2C N -0.0874(4) 0.68851(17) 0.7554(4)
O9 O 0.5981(5) 0.35180(19) 0.6831(4)
H6 H 0.6341 0.3060 0.7160
H7 H 0.6405 0.3830 0.7648
loop_
_geom_bond_atom_site_label_1
_geom_bond_atom_site_label_2
_geom_bond_site_symmetry_1
_geom_bond_site_symmetry_2
Pr1 O2 1_555 1_555
O1 C2 1_555 1_555
O2 C5 1_555 1_555
O3 Pr1 1_555 1_555
O4 C5 1_555 1_555
O5 Pr1 1_555 1_555
O6 Pr1 1_555 1_555
O7 C4 1_555 1_555
O8 Pr1 1_555 1_555
H1 O8 1_555 1_555
H2 O8 1_555 1_555
N1 C1 1_555 1_555
N2 C3 1_555 1_555
C1 C5 1_555 1_555
C2 O3 1_555 1_555
C3 N1 1_555 1_555
H3 C3 1_555 1_555
C4 O6 1_555 1_555
C6 N2 1_555 1_555
H4 O5 1_555 1_555
H5 O5 1_555 1_555
O9 H6 1_555 1_555
H7 O9 1_555 1_555
O1B Pr1 1_555 1_555
O3B C2B 1_555 1_555
C2B C2 1_555 1_555
Pr1B O4 1_555 1_555
O2B Pr1B 1_555 1_555
O4B Pr1 1_555 1_555
O5B Pr1B 1_555 1_555
O6B Pr1B 1_555 1_555
O7B C4B 1_555 1_555
O8B Pr1B 1_555 1_555
H1B O8B 1_555 1_555
H2B O8B 1_555 1_555
N1B C1B 1_555 1_555
N2B C3B 1_555 1_555
C1B C5B 1_555 1_555
C3B N1B 1_555 1_555
H3B C3B 1_555 1_555
C4B O6B 1_555 1_555
C5B O2B 1_555 1_555
C6B N2B 1_555 1_555
H4B O5B 1_555 1_555
H5B O5B 1_555 1_555
Pr1A O7B 1_555 1_555
Pr1B_2 O1 1_555 1_555
Pr1C O7 1_555 1_555
O1_2 Pr1B 1_555 1_555
O3B_2 Pr1B 1_555 1_555
O7A Pr1B 1_555 1_555
O7C Pr1 1_555 1_555
N2A Pr1B 1_555 1_555
N2C Pr1 1_555 1_555
N2 Pr1C 1_555 1_555
C1 C6 1_555 1_555
C4 C6 1_555 1_555
O1B C2B 1_555 1_555
O3B Pr1B_2 1_555 1_555
O4B C5B 1_555 1_555
N2B Pr1A 1_555 1_555
C1B C6B 1_555 1_555
C4B C6B 1_555 1_555

#END
