
#######################################################################
#
#                 Cambridge Crystallographic Data Centre
#                                CCDC 
#
#######################################################################
#
# If this CIF has been generated from an entry in the Cambridge 
# Structural Database, then it will include bibliographic, chemical, 
# crystal, experimental, refinement or atomic coordinate data resulting 
# from the CCDC's data processing and validation procedures.
#
#######################################################################

data_ENEDOR02
_symmetry_cell_setting           monoclinic
_symmetry_space_group_name_H-M   'P 21/c'
_symmetry_Int_Tables_number      14
_space_group_name_Hall           '-P 2ybc'
loop_
_symmetry_equiv_pos_site_id
_symmetry_equiv_pos_as_xyz
1 x,y,z
2 -x,1/2+y,1/2-z
3 -x,-y,-z
4 x,1/2-y,1/2+z
_cell_length_a                   7.4871(15)
_cell_length_b                   17.173(3)
_cell_length_c                   8.5527(17)
_cell_angle_alpha                90
_cell_angle_beta                 111.01(3)
_cell_angle_gamma                90
_cell_volume                     1026.56
loop_
_atom_site_label
_atom_site_type_symbol
_atom_site_fract_x
_atom_site_fract_y
_atom_site_fract_z
Pr1 Pr 0.17065(4) 0.411214(15) 0.24685(3)
C1 C -0.2608(8) 0.2963(3) 0.1504(7)
H1 H -0.3388 0.3322 0.0753
C2 C -0.0247(7) 0.2451(3) 0.3471(6)
C3 C -0.1641(7) 0.1881(3) 0.2909(7)
C4 C 0.1725(7) 0.2471(3) 0.4739(6)
C5 C -0.1689(7) 0.1039(3) 0.3288(6)
C6 C 0.0902(7) 0.4897(3) 0.5746(6)
N1 N -0.3118(6) 0.2231(3) 0.1646(6)
H2 H -0.4182 0.2015 0.1053
N2 N -0.0868(7) 0.3118(3) 0.2555(6)
O1 O 0.2610(6) 0.9408(2) 0.7885(5)
O2 O 0.0792(6) 0.9193(2) 0.5251(5)
O3 O 0.2249(6) 0.2016(2) 0.5960(5)
O4 O 0.2805(5) 0.2995(2) 0.4518(5)
O5 O 0.2148(6) 0.4497(2) 0.5438(5)
O6 O 0.3440(6) 0.4500(3) 0.0500(5)
H3 H 0.3854 0.3993 0.0026
H4 H 0.3113 0.4901 -0.0090
O7 O -0.1020(6) 0.4863(2) 0.2838(5)
O8 O 0.5251(6) 0.4133(2) 0.3850(5)
H5 H 0.5812 0.4181 0.4674
H6 H 0.5492 0.4486 0.3391
Pr1C Pr 0.17065(4) 0.088786(15) 0.74685(3)
Pr1B Pr -0.17065(4) 0.588786(15) 0.75315(3)
Pr1A Pr -0.17065(4) 0.911214(15) 0.25315(3)
Pr1C_2 Pr 0.17065(4) 1.088786(15) 0.74685(3)
Pr1A_2 Pr -0.17065(4) -0.088786(15) 0.25315(3)
C1B C 0.2608(8) 0.7037(3) 0.8496(7)
H1B H 0.3388 0.6678 0.9247
C2B C 0.0247(7) 0.7549(3) 0.6529(6)
C3B C 0.1641(7) 0.8119(3) 0.7091(7)
C4B C -0.1725(7) 0.7529(3) 0.5261(6)
C5B C 0.1689(7) 0.8961(3) 0.6712(6)
C6B C -0.0902(7) 0.5103(3) 0.4254(6)
N1B N 0.3118(6) 0.7769(3) 0.8354(6)
H2B H 0.4182 0.7985 0.8947
N2B N 0.0868(7) 0.6882(3) 0.7445(6)
O1C O 0.2610(6) 0.5592(2) 0.2885(5)
O1A O -0.2610(6) 0.4408(2) 0.7115(5)
O1B O -0.2610(6) 0.0592(2) 0.2115(5)
O2A O -0.0792(6) 0.4193(2) -0.0251(5)
O2C O 0.0792(6) 0.5807(2) 1.0251(5)
O2B O -0.0792(6) 0.0807(2) 0.4749(5)
O3C O 0.2249(6) 0.2984(2) 0.0960(5)
O3A O -0.2249(6) 0.7016(2) 0.9040(5)
O3B O -0.2249(6) 0.7984(2) 0.4040(5)
O4B O -0.2805(5) 0.7005(2) 0.5482(5)
O5B O -0.2148(6) 0.5503(2) 0.4562(5)
O6B O -0.3440(6) 0.5500(3) 0.9500(5)
H3B H -0.3854 0.6007 0.9974
H4B H -0.3113 0.5099 1.0090
O7B O 0.1020(6) 0.5137(2) 0.7162(5)
O8B O -0.5251(6) 0.5867(2) 0.6150(5)
H5B H -0.5812 0.5819 0.5326
H6B H -0.5492 0.5514 0.6609
O9 O 0.4029(7) 0.3520(3) -0.1826(5)
H7 H 0.3347 0.3701 -0.2519
H8 H 0.3411 0.3034 -0.1988
loop_
_geom_bond_atom_site_label_1
_geom_bond_atom_site_label_2
_geom_bond_site_symmetry_1
_geom_bond_site_symmetry_2
Pr1 N2 1_555 1_555
C1 H1 1_555 1_555
C2 C3 1_555 1_555
C3 C5 1_555 1_555
C4 C2 1_555 1_555
C5 O1B 1_555 1_555
C6 O5 1_555 1_555
N1 C1 1_555 1_555
H2 N1 1_555 1_555
N2 C1 1_555 1_555
O1 Pr1C_2 1_555 1_555
O2 Pr1A 1_555 1_555
O3 C4 1_555 1_555
O4 Pr1 1_555 1_555
O5 Pr1 1_555 1_555
O6 Pr1 1_555 1_555
H3 O6 1_555 1_555
H4 O6 1_555 1_555
O7 Pr1 1_555 1_555
O8 Pr1 1_555 1_555
H5 O8 1_555 1_555
H6 O8 1_555 1_555
O9 H7 1_555 1_555
H8 O9 1_555 1_555
Pr1C O3 1_555 1_555
Pr1B N2B 1_555 1_555
Pr1A O3B 1_555 1_555
Pr1A_2 O1B 1_555 1_555
C1B H1B 1_555 1_555
C2B C3B 1_555 1_555
C3B C5B 1_555 1_555
C4B C2B 1_555 1_555
C5B O1 1_555 1_555
C6B C6 1_555 1_555
N1B C1B 1_555 1_555
H2B N1B 1_555 1_555
N2B C1B 1_555 1_555
O1C Pr1 1_555 1_555
O1A Pr1B 1_555 1_555
O2A Pr1 1_555 1_555
O2C Pr1B 1_555 1_555
O2B C5 1_555 1_555
O3C Pr1 1_555 1_555
O3A Pr1B 1_555 1_555
O3B C4B 1_555 1_555
O4B Pr1B 1_555 1_555
O5B Pr1B 1_555 1_555
O6B Pr1B 1_555 1_555
H3B O6B 1_555 1_555
H4B O6B 1_555 1_555
O7B C6 1_555 1_555
O8B Pr1B 1_555 1_555
H5B O8B 1_555 1_555
H6B O8B 1_555 1_555
C2 N2 1_555 1_555
C3 N1 1_555 1_555
C4 O4 1_555 1_555
O2 C5B 1_555 1_555
O7 C6B 1_555 1_555
Pr1C O2B 1_555 1_555
Pr1B O7B 1_555 1_555
C2B N2B 1_555 1_555
C3B N1B 1_555 1_555
C4B O4B 1_555 1_555
C6B O5B 1_555 1_555

#END
