
#######################################################################
#
#                 Cambridge Crystallographic Data Centre
#                                CCDC 
#
#######################################################################
#
# If this CIF has been generated from an entry in the Cambridge 
# Structural Database, then it will include bibliographic, chemical, 
# crystal, experimental, refinement or atomic coordinate data resulting 
# from the CCDC's data processing and validation procedures.
#
#######################################################################

data_ENEDOR
_symmetry_cell_setting           monoclinic
_symmetry_space_group_name_H-M   'P 21/c'
_symmetry_Int_Tables_number      14
_space_group_name_Hall           '-P 2ybc'
loop_
_symmetry_equiv_pos_site_id
_symmetry_equiv_pos_as_xyz
1 x,y,z
2 -x,1/2+y,1/2-z
3 -x,-y,-z
4 x,1/2-y,1/2+z
_cell_length_a                   7.4853(13)
_cell_length_b                   17.211(3)
_cell_length_c                   8.5448(15)
_cell_angle_alpha                90
_cell_angle_beta                 110.838(3)
_cell_angle_gamma                90
_cell_volume                     1028.82
loop_
_atom_site_label
_atom_site_type_symbol
_atom_site_fract_x
_atom_site_fract_y
_atom_site_fract_z
Pr1 Pr 0.17070(4) 0.588850(15) 0.24682(3)
O1 O 0.2800(5) 0.70060(19) 0.4514(4)
N1 N -0.3106(6) 0.7766(2) 0.1647(5)
H1 H -0.4164 0.7981 0.1043
N2 N -0.0870(6) 0.6884(2) 0.2558(5)
C1 C -0.0267(7) 0.7559(3) 0.3460(6)
C2 C 0.1730(7) 0.7531(3) 0.4739(6)
C3 C -0.2598(8) 0.7029(3) 0.1526(7)
H2 H -0.3381 0.6665 0.0795
O2 O 0.2247(5) 0.7985(2) 0.5953(4)
O3 O -0.1021(5) 0.5141(2) 0.2839(4)
C4 C -0.1684(7) 0.8961(3) 0.3284(6)
C5 C -0.1640(7) 0.8118(3) 0.2906(6)
C6 C -0.0917(7) 0.4892(3) 0.4233(6)
O4 O -0.0790(6) 0.9189(2) 0.4737(5)
O5 O 0.5252(5) 0.5863(2) 0.3861(5)
H3 H 0.5566 0.5556 0.3216
H4 H 0.5885 0.5740 0.4880
O6 O -0.2133(5) 0.4494(2) 0.4572(4)
O7 O 0.3441(5) 0.5497(2) 0.0504(4)
H5 H 0.2866 0.5117 -0.0117
H6 H 0.3557 0.5866 -0.0130
O8 O -0.2609(5) 0.9408(2) 0.2111(4)
Pr1C Pr 0.17070(4) 0.911150(15) -0.25318(3)
Pr1C_2 Pr 0.17070(4) 0.911150(15) 0.74682(3)
Pr1B Pr -0.17070(4) 0.411150(15) 0.75318(3)
Pr1A Pr -0.17070(4) 1.088850(15) 0.25318(3)
Pr1B_2 Pr -0.17070(4) 0.411150(15) -0.24682(3)
O1C O 0.2800(5) 0.79940(19) -0.0486(4)
N1C N -0.3106(6) 0.7234(2) -0.3353(5)
H1C H -0.4164 0.7019 -0.3957
N2C N -0.0870(6) 0.8116(2) -0.2442(5)
C1C C -0.0267(7) 0.7441(3) -0.1540(6)
C2C C 0.1730(7) 0.7469(3) -0.0261(6)
C3C C -0.2598(8) 0.7971(3) -0.3474(7)
H2C H -0.3381 0.8335 -0.4205
O2C O 0.2247(5) 0.7015(2) 0.0953(4)
O2_2 O 0.2247(5) 0.7985(2) -0.4047(4)
O3B O 0.1021(5) 0.4859(2) 0.7161(4)
O3C O -0.1021(5) 0.9859(2) -0.2161(4)
C4C C -0.1684(7) 0.6039(3) -0.1716(6)
C5C C -0.1640(7) 0.6882(3) -0.2094(6)
C6B C 0.0917(7) 0.5108(3) 0.5767(6)
O4C O -0.0790(6) 0.5811(2) -0.0263(5)
O4_2 O -0.0790(6) 0.9189(2) -0.5263(5)
O5C O 0.5252(5) 0.9137(2) -0.1139(5)
H3C H 0.5566 0.9444 -0.1784
H4C H 0.5885 0.9260 -0.0120
O6B O 0.2133(5) 0.5506(2) 0.5428(4)
O6A O 0.2133(5) 0.9494(2) 0.0428(4)
O7C O 0.3441(5) 0.9503(2) -0.4496(4)
H5C H 0.2866 0.9883 -0.5117
H6C H 0.3557 0.9134 -0.5130
O8C O -0.2609(5) 0.5592(2) -0.2889(4)
O8A O 0.2609(5) 0.4408(2) 0.2889(4)
O8B O 0.2609(5) 1.0592(2) -0.2111(4)
O9 O 0.4031(6) 0.6474(2) 0.8178(5)
H7 H 0.3418 0.6185 0.7346
H8 H 0.3761 0.6950 0.7906
loop_
_geom_bond_atom_site_label_1
_geom_bond_atom_site_label_2
_geom_bond_site_symmetry_1
_geom_bond_site_symmetry_2
Pr1 O1 1_555 1_555
O1 C2 1_555 1_555
N1 H1 1_555 1_555
N2 Pr1 1_555 1_555
C1 N2 1_555 1_555
C2 C1 1_555 1_555
C3 N1 1_555 1_555
H2 C3 1_555 1_555
O2 C2 1_555 1_555
O3 Pr1 1_555 1_555
C4 C5 1_555 1_555
C5 N1 1_555 1_555
C6 O3 1_555 1_555
O4 C4 1_555 1_555
O5 Pr1 1_555 1_555
H3 O5 1_555 1_555
H4 O5 1_555 1_555
O6 C6 1_555 1_555
O7 Pr1 1_555 1_555
H5 O7 1_555 1_555
H6 O7 1_555 1_555
O8 C4 1_555 1_555
O9 H7 1_555 1_555
H8 O9 1_555 1_555
Pr1C O1C 1_555 1_555
Pr1C_2 O2 1_555 1_555
Pr1B O6 1_555 1_555
Pr1A O8 1_555 1_555
Pr1B_2 O8C 1_555 1_555
O1C C2C 1_555 1_555
N1C H1C 1_555 1_555
N2C Pr1C 1_555 1_555
C1C N2C 1_555 1_555
C2C C1C 1_555 1_555
C3C N1C 1_555 1_555
H2C C3C 1_555 1_555
O2C Pr1 1_555 1_555
O2_2 Pr1C 1_555 1_555
O3B Pr1B 1_555 1_555
O3C Pr1C 1_555 1_555
C4C C5C 1_555 1_555
C5C N1C 1_555 1_555
C6B C6 1_555 1_555
O4C Pr1 1_555 1_555
O4_2 Pr1C 1_555 1_555
O5C Pr1C 1_555 1_555
H3C O5C 1_555 1_555
H4C O5C 1_555 1_555
O6B Pr1 1_555 1_555
O6A Pr1C 1_555 1_555
O7C Pr1C 1_555 1_555
H5C O7C 1_555 1_555
H6C O7C 1_555 1_555
O8C C4C 1_555 1_555
O8A Pr1 1_555 1_555
O8B Pr1C 1_555 1_555
N2 C3 1_555 1_555
C1 C5 1_555 1_555
O4 Pr1C_2 1_555 1_555
N2C C3C 1_555 1_555
C1C C5C 1_555 1_555
C2C O2C 1_555 1_555
O3B C6B 1_555 1_555
C4C O4C 1_555 1_555
C6B O6B 1_555 1_555

#END
