
#######################################################################
#
#                 Cambridge Crystallographic Data Centre
#                                CCDC 
#
#######################################################################
#
# If this CIF has been generated from an entry in the Cambridge 
# Structural Database, then it will include bibliographic, chemical, 
# crystal, experimental, refinement or atomic coordinate data resulting 
# from the CCDC's data processing and validation procedures.
#
#######################################################################

data_ENEFEJ
_symmetry_cell_setting           monoclinic
_symmetry_space_group_name_H-M   'C 2/c'
_symmetry_Int_Tables_number      15
_space_group_name_Hall           '-C 2yn'
loop_
_symmetry_equiv_pos_site_id
_symmetry_equiv_pos_as_xyz
1 x,y,z
2 -x,y,1/2-z
3 1/2+x,1/2+y,z
4 1/2-x,1/2+y,1/2-z
5 -x,-y,-z
6 x,-y,1/2+z
7 1/2-x,1/2-y,-z
8 1/2+x,1/2-y,1/2+z
_cell_length_a                   21.816(7)
_cell_length_b                   6.786(2)
_cell_length_c                   13.297(4)
_cell_angle_alpha                90
_cell_angle_beta                 106.049(5)
_cell_angle_gamma                90
_cell_volume                     1891.81
loop_
_atom_site_label
_atom_site_type_symbol
_atom_site_fract_x
_atom_site_fract_y
_atom_site_fract_z
Nd1 Nd 0.352982(12) 0.07748(4) 0.883964(18)
O1 O 0.32755(19) -0.0507(5) 0.7065(3)
N1 N 0.3891(2) 0.2938(6) 0.7441(3)
C1 C 0.3639(3) 0.2322(8) 0.6423(4)
C2 C 0.3336(3) 0.0336(8) 0.6257(4)
C3 C 0.4107(3) 0.4730(9) 0.7383(4)
H1 H 0.4311 0.5516 0.7972
N2 N 0.4002(2) 0.5305(7) 0.6381(3)
H2 H 0.4114 0.6446 0.6169
C4 C 0.3693(3) 0.3813(8) 0.5746(4)
O2 O 0.3415(2) 0.5868(5) 0.4273(3)
O3 O 0.3163(2) -0.0432(6) 0.5367(3)
O4 O 0.3279(2) 0.2666(6) 0.4005(3)
O5 O 0.4513(2) -0.1062(6) 0.8874(3)
O6 O 0.2389(2) 0.1116(6) 0.8078(3)
C5 C 0.3448(3) 0.4127(7) 0.4600(4)
H3 H 0.219(2) 0.211(6) 0.824(4)
C6 C 0.5012(3) -0.0771(8) 0.9574(4)
H4 H 0.223(3) 0.086(8) 0.7426(15)
O7 O 0.5549(2) -0.1536(7) 0.9657(3)
Nd1E Nd 0.352982(12) 0.92252(4) 1.383964(18)
Nd1E_2 Nd 0.352982(12) 0.92252(4) 0.383964(18)
Nd1E_3 Nd 0.352982(12) -0.07748(4) 0.383964(18)
Nd1D Nd 0.647018(12) -0.07748(4) 1.116036(18)
Nd1_2 Nd 0.352982(12) 1.07748(4) 0.883964(18)
O1E O 0.32755(19) 1.0507(5) 1.2065(3)
N1E N 0.3891(2) 0.7062(6) 1.2441(3)
C1E C 0.3639(3) 0.7678(8) 1.1423(4)
C2E C 0.3336(3) 0.9664(8) 1.1257(4)
C3E C 0.4107(3) 0.5270(9) 1.2383(4)
H1E H 0.4311 0.4484 1.2972
N2E N 0.4002(2) 0.4695(7) 1.1381(3)
H2E H 0.4114 0.3554 1.1169
C4E C 0.3693(3) 0.6187(8) 1.0746(4)
O2E O 0.3415(2) 0.4132(5) 0.9273(3)
O2_2 O 0.3415(2) 0.5868(5) 1.4273(3)
O3E O 0.3163(2) 1.0432(6) 1.0367(3)
O3E_2 O 0.3163(2) 0.0432(6) 1.0367(3)
O3_2 O 0.3163(2) 0.9568(6) 1.5367(3)
O4E O 0.3279(2) 0.7334(6) 0.9005(3)
O4E_2 O 0.3279(2) -0.2666(6) 0.9005(3)
O4_2 O 0.3279(2) 1.2666(6) 1.4005(3)
O5D O 0.5487(2) 0.1062(6) 1.1126(3)
O5E O 0.4513(2) 1.1062(6) 1.3874(3)
O6E O 0.2389(2) 0.8884(6) 1.3078(3)
C5E C 0.3448(3) 0.5873(7) 0.9600(4)
H3E H 0.219(2) 0.789(6) 1.324(4)
C6D C 0.4988(3) 0.0771(8) 1.0426(4)
H4E H 0.223(3) 0.914(8) 1.2426(15)
O7D O 0.4451(2) 0.1536(7) 1.0343(3)
O7A O 0.4451(2) 0.8464(7) 1.5343(3)
loop_
_geom_bond_atom_site_label_1
_geom_bond_atom_site_label_2
_geom_bond_site_symmetry_1
_geom_bond_site_symmetry_2
Nd1 O1 1_555 1_555
O1 C2 1_555 1_555
N1 Nd1 1_555 1_555
C1 N1 1_555 1_555
C2 C1 1_555 1_555
C3 N1 1_555 1_555
H1 C3 1_555 1_555
N2 C3 1_555 1_555
H2 N2 1_555 1_555
C4 C1 1_555 1_555
O2 C5 1_555 1_555
O3 C2 1_555 1_555
O4 C5 1_555 1_555
O5 Nd1 1_555 1_555
O6 Nd1 1_555 1_555
C5 C4 1_555 1_555
H3 O6 1_555 1_555
C6 O5 1_555 1_555
H4 O6 1_555 1_555
O7 C6 1_555 1_555
Nd1E O1E 1_555 1_555
Nd1E_2 O2 1_555 1_555
Nd1E_3 O3 1_555 1_555
Nd1D O7 1_555 1_555
Nd1_2 O3E 1_555 1_555
O1E C2E 1_555 1_555
N1E Nd1E 1_555 1_555
C1E N1E 1_555 1_555
C2E C1E 1_555 1_555
C3E N1E 1_555 1_555
H1E C3E 1_555 1_555
N2E C3E 1_555 1_555
H2E N2E 1_555 1_555
C4E C1E 1_555 1_555
O2E Nd1 1_555 1_555
O2_2 Nd1E 1_555 1_555
O3E C2E 1_555 1_555
O3E_2 Nd1 1_555 1_555
O3_2 Nd1E 1_555 1_555
O4E Nd1_2 1_555 1_555
O4E_2 Nd1 1_555 1_555
O4_2 Nd1E 1_555 1_555
O5D Nd1D 1_555 1_555
O5E Nd1E 1_555 1_555
O6E Nd1E 1_555 1_555
C5E C4E 1_555 1_555
H3E O6E 1_555 1_555
C6D C6 1_555 1_555
H4E O6E 1_555 1_555
O7D Nd1 1_555 1_555
O7A Nd1E 1_555 1_555
N2 C4 1_555 1_555
O4 Nd1E_3 1_555 1_555
N2E C4E 1_555 1_555
O2E C5E 1_555 1_555
O4E C5E 1_555 1_555
O5D C6D 1_555 1_555
C6D O7D 1_555 1_555

#END
