
#######################################################################
#
#                 Cambridge Crystallographic Data Centre
#                                CCDC 
#
#######################################################################
#
# If this CIF has been generated from an entry in the Cambridge 
# Structural Database, then it will include bibliographic, chemical, 
# crystal, experimental, refinement or atomic coordinate data resulting 
# from the CCDC's data processing and validation procedures.
#
#######################################################################

data_ENEFIN
_symmetry_cell_setting           monoclinic
_symmetry_space_group_name_H-M   'C 2/c'
_symmetry_Int_Tables_number      15
_space_group_name_Hall           '-C 2yn'
loop_
_symmetry_equiv_pos_site_id
_symmetry_equiv_pos_as_xyz
1 x,y,z
2 -x,y,1/2-z
3 1/2+x,1/2+y,z
4 1/2-x,1/2+y,1/2-z
5 -x,-y,-z
6 x,-y,1/2+z
7 1/2-x,1/2-y,-z
8 1/2+x,1/2-y,1/2+z
_cell_length_a                   22.010(5)
_cell_length_b                   6.7934(16)
_cell_length_c                   13.362(3)
_cell_angle_alpha                90
_cell_angle_beta                 106.028(4)
_cell_angle_gamma                90
_cell_volume                     1920.26
loop_
_atom_site_label
_atom_site_type_symbol
_atom_site_fract_x
_atom_site_fract_y
_atom_site_fract_z
Pr1 Pr 0.353502(12) 0.07935(4) 0.883716(19)
O1 O 0.32793(19) -0.0480(5) 0.7057(3)
N1 N 0.3888(2) 0.2941(6) 0.7428(3)
C1 C 0.3646(2) 0.2321(7) 0.6414(3)
C2 C 0.3349(3) 0.0346(7) 0.6252(4)
C3 C 0.4106(3) 0.4738(8) 0.7363(4)
H1 H 0.4305 0.5512 0.7934
N2 N 0.4001(2) 0.5298(6) 0.6365(3)
H2 H 0.4107 0.6410 0.6155
C4 C 0.3698(3) 0.3794(7) 0.5737(4)
O2 O 0.3427(2) 0.5833(5) 0.4273(3)
O3 O 0.3180(2) -0.0432(5) 0.5378(3)
O4 O 0.3283(2) 0.2655(6) 0.4010(3)
O5 O 0.45179(19) -0.1057(6) 0.8878(3)
O6 O 0.23922(19) 0.1150(6) 0.8074(3)
C5 C 0.3458(3) 0.4098(8) 0.4599(4)
H3 H 0.223(2) 0.209(6) 0.834(3)
C6 C 0.5012(3) -0.0764(8) 0.9566(4)
H4 H 0.217(2) 0.100(8) 0.7441(17)
O7 O 0.55374(19) -0.1567(7) 0.9671(3)
Pr1E Pr 0.353502(12) 0.92065(4) 1.383716(19)
Pr1E_2 Pr 0.353502(12) 0.92065(4) 0.383716(19)
Pr1E_3 Pr 0.353502(12) -0.07935(4) 0.383716(19)
Pr1D Pr 0.646498(12) -0.07935(4) 1.116284(19)
Pr1_2 Pr 0.353502(12) 1.07935(4) 0.883716(19)
O1E O 0.32793(19) 1.0480(5) 1.2057(3)
N1E N 0.3888(2) 0.7059(6) 1.2428(3)
C1E C 0.3646(2) 0.7679(7) 1.1414(3)
C2E C 0.3349(3) 0.9654(7) 1.1252(4)
C3E C 0.4106(3) 0.5262(8) 1.2363(4)
H1E H 0.4305 0.4488 1.2934
N2E N 0.4001(2) 0.4702(6) 1.1365(3)
H2E H 0.4107 0.3590 1.1155
C4E C 0.3698(3) 0.6206(7) 1.0737(4)
O2E O 0.3427(2) 0.4167(5) 0.9273(3)
O2_2 O 0.3427(2) 0.5833(5) 1.4273(3)
O3E O 0.3180(2) 1.0432(5) 1.0378(3)
O3E_2 O 0.3180(2) 0.0432(5) 1.0378(3)
O3_2 O 0.3180(2) 0.9568(5) 1.5378(3)
O4E O 0.3283(2) 0.7345(6) 0.9010(3)
O4E_2 O 0.3283(2) -0.2655(6) 0.9010(3)
O4_2 O 0.3283(2) 1.2655(6) 1.4010(3)
O5D O 0.54821(19) 0.1057(6) 1.1122(3)
O5E O 0.45179(19) 1.1057(6) 1.3878(3)
O6E O 0.23922(19) 0.8850(6) 1.3074(3)
C5E C 0.3458(3) 0.5902(8) 0.9599(4)
H3E H 0.223(2) 0.791(6) 1.334(3)
C6D C 0.4988(3) 0.0764(8) 1.0434(4)
H4E H 0.217(2) 0.900(8) 1.2441(17)
O7D O 0.44626(19) 0.1567(7) 1.0329(3)
O7A O 0.44626(19) 0.8433(7) 1.5329(3)
loop_
_geom_bond_atom_site_label_1
_geom_bond_atom_site_label_2
_geom_bond_site_symmetry_1
_geom_bond_site_symmetry_2
Pr1 O1 1_555 1_555
O1 C2 1_555 1_555
N1 Pr1 1_555 1_555
C1 N1 1_555 1_555
C2 C1 1_555 1_555
C3 N1 1_555 1_555
H1 C3 1_555 1_555
N2 C3 1_555 1_555
H2 N2 1_555 1_555
C4 C1 1_555 1_555
O2 C5 1_555 1_555
O3 C2 1_555 1_555
O4 C5 1_555 1_555
O5 Pr1 1_555 1_555
O6 Pr1 1_555 1_555
C5 C4 1_555 1_555
H3 O6 1_555 1_555
C6 O5 1_555 1_555
H4 O6 1_555 1_555
O7 C6 1_555 1_555
Pr1E O1E 1_555 1_555
Pr1E_2 O2 1_555 1_555
Pr1E_3 O3 1_555 1_555
Pr1D O7 1_555 1_555
Pr1_2 O3E 1_555 1_555
O1E C2E 1_555 1_555
N1E Pr1E 1_555 1_555
C1E N1E 1_555 1_555
C2E C1E 1_555 1_555
C3E N1E 1_555 1_555
H1E C3E 1_555 1_555
N2E C3E 1_555 1_555
H2E N2E 1_555 1_555
C4E C1E 1_555 1_555
O2E Pr1 1_555 1_555
O2_2 Pr1E 1_555 1_555
O3E C2E 1_555 1_555
O3E_2 Pr1 1_555 1_555
O3_2 Pr1E 1_555 1_555
O4E Pr1_2 1_555 1_555
O4E_2 Pr1 1_555 1_555
O4_2 Pr1E 1_555 1_555
O5D Pr1D 1_555 1_555
O5E Pr1E 1_555 1_555
O6E Pr1E 1_555 1_555
C5E C4E 1_555 1_555
H3E O6E 1_555 1_555
C6D C6 1_555 1_555
H4E O6E 1_555 1_555
O7D Pr1 1_555 1_555
O7A Pr1E 1_555 1_555
N2 C4 1_555 1_555
O4 Pr1E_3 1_555 1_555
N2E C4E 1_555 1_555
O2E C5E 1_555 1_555
O4E C5E 1_555 1_555
O5D C6D 1_555 1_555
C6D O7D 1_555 1_555

#END
