
#######################################################################
#
#                 Cambridge Crystallographic Data Centre
#                                CCDC 
#
#######################################################################
#
# If this CIF has been generated from an entry in the Cambridge 
# Structural Database, then it will include bibliographic, chemical, 
# crystal, experimental, refinement or atomic coordinate data resulting 
# from the CCDC's data processing and validation procedures.
#
#######################################################################

data_ENEFAF
_symmetry_cell_setting           monoclinic
_symmetry_space_group_name_H-M   'C 2/c'
_symmetry_Int_Tables_number      15
_space_group_name_Hall           '-C 2yn'
loop_
_symmetry_equiv_pos_site_id
_symmetry_equiv_pos_as_xyz
1 x,y,z
2 -x,y,1/2-z
3 1/2+x,1/2+y,z
4 1/2-x,1/2+y,1/2-z
5 -x,-y,-z
6 x,-y,1/2+z
7 1/2-x,1/2-y,-z
8 1/2+x,1/2-y,1/2+z
_cell_length_a                   21.911(12)
_cell_length_b                   6.740(4)
_cell_length_c                   13.188(7)
_cell_angle_alpha                90
_cell_angle_beta                 106.900(7)
_cell_angle_gamma                90
_cell_volume                     1863.5
loop_
_atom_site_label
_atom_site_type_symbol
_atom_site_fract_x
_atom_site_fract_y
_atom_site_fract_z
Eu1 Eu 0.35404(2) 0.07886(7) 0.88548(4)
O1 O 0.3259(4) -0.0490(11) 0.7088(6)
N1 N 0.3905(4) 0.2915(13) 0.7504(7)
C1 C 0.3657(5) 0.2315(15) 0.6458(8)
C2 C 0.3351(5) 0.0304(16) 0.6263(9)
C3 C 0.4116(6) 0.4755(16) 0.7419(10)
H1 H 0.4314 0.5550 0.7997
N2 N 0.4010(4) 0.5323(13) 0.6411(8)
H2 H 0.4111 0.6451 0.6200
C4 C 0.3714(5) 0.3796(14) 0.5772(7)
O2 O 0.3423(4) 0.5858(10) 0.4265(6)
O3 O 0.3207(4) -0.0509(11) 0.5382(6)
O4 O 0.3297(4) 0.2614(11) 0.4023(5)
O5 O 0.4491(4) -0.1039(12) 0.8831(6)
O6 O 0.2407(4) 0.1104(12) 0.8097(7)
H3 H 0.2211 0.1796 0.8451
H4 H 0.2150 0.0902 0.7476
C5 C 0.3460(5) 0.4090(14) 0.4601(9)
C6 C 0.5007(5) -0.0792(16) 0.9565(10)
O7 O 0.5529(4) -0.1582(14) 0.9639(8)
Eu1E Eu 0.35404(2) 0.92114(7) 1.38548(4)
Eu1E_2 Eu 0.35404(2) 0.92114(7) 0.38548(4)
Eu1E_3 Eu 0.35404(2) -0.07886(7) 0.38548(4)
Eu1D Eu 0.64596(2) -0.07886(7) 1.11452(4)
Eu1_2 Eu 0.35404(2) 1.07886(7) 0.88548(4)
O1E O 0.3259(4) 1.0490(11) 1.2088(6)
N1E N 0.3905(4) 0.7085(13) 1.2504(7)
C1E C 0.3657(5) 0.7685(15) 1.1458(8)
C2E C 0.3351(5) 0.9696(16) 1.1263(9)
C3E C 0.4116(6) 0.5245(16) 1.2419(10)
H1E H 0.4314 0.4450 1.2997
N2E N 0.4010(4) 0.4677(13) 1.1411(8)
H2E H 0.4111 0.3549 1.1200
C4E C 0.3714(5) 0.6204(14) 1.0772(7)
O2E O 0.3423(4) 0.4142(10) 0.9265(6)
O2_2 O 0.3423(4) 0.5858(10) 1.4265(6)
O3E O 0.3207(4) 1.0509(11) 1.0382(6)
O3E_2 O 0.3207(4) 0.0509(11) 1.0382(6)
O3_2 O 0.3207(4) 0.9491(11) 1.5382(6)
O4E O 0.3297(4) 0.7386(11) 0.9023(5)
O4E_2 O 0.3297(4) -0.2614(11) 0.9023(5)
O4_2 O 0.3297(4) 1.2614(11) 1.4023(5)
O5D O 0.5509(4) 0.1039(12) 1.1169(6)
O5E O 0.4491(4) 1.1039(12) 1.3831(6)
O6E O 0.2407(4) 0.8896(12) 1.3097(7)
H3E H 0.2211 0.8204 1.3451
H4E H 0.2150 0.9098 1.2476
C5E C 0.3460(5) 0.5910(14) 0.9601(9)
C6D C 0.4993(5) 0.0792(16) 1.0435(10)
O7D O 0.4471(4) 0.1582(14) 1.0361(8)
O7A O 0.4471(4) 0.8418(14) 1.5361(8)
loop_
_geom_bond_atom_site_label_1
_geom_bond_atom_site_label_2
_geom_bond_site_symmetry_1
_geom_bond_site_symmetry_2
Eu1 O1 1_555 1_555
O1 C2 1_555 1_555
N1 Eu1 1_555 1_555
C1 N1 1_555 1_555
C2 C1 1_555 1_555
C3 N1 1_555 1_555
H1 C3 1_555 1_555
N2 C3 1_555 1_555
H2 N2 1_555 1_555
C4 C1 1_555 1_555
O2 C5 1_555 1_555
O3 C2 1_555 1_555
O4 C5 1_555 1_555
O5 Eu1 1_555 1_555
O6 Eu1 1_555 1_555
H3 O6 1_555 1_555
H4 O6 1_555 1_555
C5 C4 1_555 1_555
C6 O5 1_555 1_555
O7 C6 1_555 1_555
Eu1E O1E 1_555 1_555
Eu1E_2 O2 1_555 1_555
Eu1E_3 O3 1_555 1_555
Eu1D O7 1_555 1_555
Eu1_2 O3E 1_555 1_555
O1E C2E 1_555 1_555
N1E Eu1E 1_555 1_555
C1E N1E 1_555 1_555
C2E C1E 1_555 1_555
C3E N1E 1_555 1_555
H1E C3E 1_555 1_555
N2E C3E 1_555 1_555
H2E N2E 1_555 1_555
C4E C1E 1_555 1_555
O2E Eu1 1_555 1_555
O2_2 Eu1E 1_555 1_555
O3E C2E 1_555 1_555
O3E_2 Eu1 1_555 1_555
O3_2 Eu1E 1_555 1_555
O4E Eu1_2 1_555 1_555
O4E_2 Eu1 1_555 1_555
O4_2 Eu1E 1_555 1_555
O5D Eu1D 1_555 1_555
O5E Eu1E 1_555 1_555
O6E Eu1E 1_555 1_555
H3E O6E 1_555 1_555
H4E O6E 1_555 1_555
C5E C4E 1_555 1_555
C6D C6 1_555 1_555
O7D Eu1 1_555 1_555
O7A Eu1E 1_555 1_555
N2 C4 1_555 1_555
O4 Eu1E_3 1_555 1_555
N2E C4E 1_555 1_555
O2E C5E 1_555 1_555
O4E C5E 1_555 1_555
O5D C6D 1_555 1_555
C6D O7D 1_555 1_555

#END
