
#######################################################################
#
#                 Cambridge Crystallographic Data Centre
#                                CCDC 
#
#######################################################################
#
# If this CIF has been generated from an entry in the Cambridge 
# Structural Database, then it will include bibliographic, chemical, 
# crystal, experimental, refinement or atomic coordinate data resulting 
# from the CCDC's data processing and validation procedures.
#
#######################################################################

data_ENEGUA
_symmetry_cell_setting           rhombohedral
_symmetry_space_group_name_H-M   'R 3 2'
_symmetry_Int_Tables_number      155
_space_group_name_Hall           'R 3 2"'
loop_
_symmetry_equiv_pos_site_id
_symmetry_equiv_pos_as_xyz
1 x,y,z
2 -y,x-y,z
3 -x+y,-x,z
4 y,x,-z
5 x-y,-y,-z
6 -x,-x+y,-z
7 2/3+x,1/3+y,1/3+z
8 2/3-y,1/3+x-y,1/3+z
9 2/3-x+y,1/3-x,1/3+z
10 2/3+y,1/3+x,1/3-z
11 2/3+x-y,1/3-y,1/3-z
12 2/3-x,1/3-x+y,1/3-z
13 1/3+x,2/3+y,2/3+z
14 1/3-y,2/3+x-y,2/3+z
15 1/3-x+y,2/3-x,2/3+z
16 1/3+y,2/3+x,2/3-z
17 1/3+x-y,2/3-y,2/3-z
18 1/3-x,2/3-x+y,2/3-z
_cell_length_a                   20.7749(4)
_cell_length_b                   20.7749(4)
_cell_length_c                   43.184(2)
_cell_angle_alpha                90
_cell_angle_beta                 90
_cell_angle_gamma                120
_cell_volume                     16141
loop_
_atom_site_label
_atom_site_type_symbol
_atom_site_fract_x
_atom_site_fract_y
_atom_site_fract_z
Ni1 Ni -0.61210(6) -0.38766(6) 0.036000(10)
Ni2 Ni -0.05496(7) -0.10983(2) 0.148920(10)
Ni3 Ni -0.6667 -0.3333 -0.014690(15)
Ni4 Ni 0.0000 0.0000 0.199190(15)
Cl1 Cl -0.6667 -0.3333 0.07501(3)
Cl2 Cl 0.0000 0.0000 0.10902(3)
C1 C -0.4527(5) -0.3278(6) 0.0416(2)
H1 H -0.4597 -0.3387 0.0205
C2 C -0.3798(5) -0.2943(6) 0.0533(2)
H2 H -0.3395 -0.2815 0.0403
C3 C -0.3700(5) -0.2807(4) 0.08582(16)
C4 C -0.4325(5) -0.3028(6) 0.1012(2)
H3 H -0.4292 -0.2980 0.1226
C5 C -0.5002(5) -0.3312(6) 0.08866(19)
H4 H -0.5407 -0.3421 0.1013
C6 C -0.2961(5) -0.2437(5) 0.09883(16)
C7 C -0.2342(5) -0.2050(6) 0.0835(2)
H5 H -0.2371 -0.2039 0.0620
C8 C -0.1672(6) -0.1672(6) 0.09633(17)
H6 H -0.1261 -0.1380 0.0839
C9 C -0.2173(5) -0.2113(6) 0.1436(2)
H7 H -0.2114 -0.2160 0.1647
C10 C -0.2888(5) -0.2478(7) 0.13147(19)
H8 H -0.3301 -0.2740 0.1441
O1 O -0.5766(3) -0.4236(4) -0.00149(5)
C11 C -0.5850(6) -0.4124(6) -0.02889(8)
C12 C -0.5857(6) -0.4743(6) -0.0522(2)
H9 H -0.6300 -0.5212 -0.0466
C13 C -0.5316(6) -0.4881(7) -0.05193(18)
H10 H -0.5399 -0.5272 -0.0375
H11 H -0.4840 -0.4441 -0.0478
C14 C -0.5399(8) -0.5143(8) -0.0869(3)
H12 H -0.4962 -0.5157 -0.0939
H13 H -0.5834 -0.5630 -0.0898
N1 N -0.5982(5) -0.4598(4) -0.08274(18)
H14 H -0.6351 -0.4541 -0.0877
C15 C -0.5480(7) -0.4554(7) -0.10361(10)
O2 O -0.0480(3) -0.09586(12) 0.22432(5)
C16 C -0.0799(6) -0.1599(2) 0.21379(8)
C17 C -0.1696(7) -0.3147(5) 0.2711(2)
H15 H -0.2187 -0.3413 0.2803
H16 H -0.1483 -0.3470 0.2702
C18 C -0.0807(7) -0.2185(7) 0.2380(3)
H17 H -0.0357 -0.2202 0.2328
C19 C -0.1354(5) -0.2915(4) 0.23703(17)
H18 H -0.1252 -0.3207 0.2224
H19 H -0.1845 -0.2983 0.2336
N2 N -0.0688(6) -0.1947(5) 0.2684(2)
H20 H -0.0318 -0.1526 0.2740
C20 C -0.1183(8) -0.2415(2) 0.28831(10)
C21 C -0.6670(6) -0.4984(5) 0.0875(2)
H21 H -0.6547 -0.4561 0.0991
C22 C -0.6728(5) -0.5521(5) 0.04173(15)
H22 H -0.6649 -0.5483 0.0204
C23 C -0.7195(4) -0.6287(5) 0.0844(2)
C24 C -0.7555(5) -0.7029(4) 0.1005(2)
C25 C -0.7497(7) -0.7174(6) 0.1291(2)
H23 H -0.7175 -0.6782 0.1417
C26 C -0.7864(6) -0.7841(7) 0.1415(2)
H24 H -0.7807 -0.7879 0.1627
C27 C -0.7042(5) -0.6192(6) 0.0552(2)
H25 H -0.7154 -0.6605 0.0431
C28 C -0.8350(8) -0.8340(5) 0.0987(2)
H26 H -0.8647 -0.8761 0.0869
C29 C -0.8011(6) -0.7654(6) 0.0828(2)
H27 H -0.8088 -0.7623 0.0618
C30 C -0.6999(6) -0.5657(6) 0.1034(2)
H28 H -0.7084 -0.5692 0.1247
N3 N -0.5104(4) -0.3443(4) 0.05817(14)
N4 N -0.1580(4) -0.1705(4) 0.12693(15)
N5 N -0.6521(4) -0.4889(4) 0.05877(17)
N6 N -0.8295(4) -0.8444(4) 0.12673(16)
O3 O -0.6186(4) -0.3811(4) -0.03972(5)
O4 O -0.0902(4) -0.18040(13) 0.18628(5)
O5 O -0.7085(3) -0.41950(13) 0.01528(6)
H29 H -0.721(4) -0.4514(19) 0.0056(8)
O6 O 0.0433(4) -0.0431(3) 0.16901(6)
H30 H 0.069(4) -0.053(4) 0.1736(9)
O7 O -0.5493(7) -0.4460(7) -0.13085(7)
O8 O -0.1106(7) -0.2316(2) 0.31554(9)
Ni1B Ni -0.77556(8) -0.38790(6) 0.036000(10)
Ni1A Ni -0.61234(6) -0.22444(8) 0.036000(10)
Ni2B Ni -0.05487(7) 0.05496(7) 0.148920(10)
Ni2A Ni 0.10983(2) 0.05487(7) 0.148920(10)
Ni2A_2 Ni -0.89017(2) -0.94513(7) 0.148920(10)
Ni2A_3 Ni -0.89017(2) 0.05487(7) 0.148920(10)
Ni2_2 Ni -1.05496(7) -0.10983(2) 0.148920(10)
Ni2B_2 Ni -1.05487(7) -0.94504(7) 0.148920(10)
C1B C -0.8751(8) -0.5473(5) 0.0416(2)
C1A C -0.6722(6) -0.1249(8) 0.0416(2)
H1B H -0.8790 -0.5403 0.0205
H1A H -0.6613 -0.1210 0.0205
C2B C -0.9145(8) -0.6202(5) 0.0533(2)
C2A C -0.7057(6) -0.0855(8) 0.0533(2)
H2B H -0.9420 -0.6605 0.0403
H2A H -0.7185 -0.0580 0.0403
C3B C -0.9107(6) -0.6300(5) 0.08582(16)
C3A C -0.7193(4) -0.0893(6) 0.08582(16)
C4B C -0.8703(8) -0.5675(5) 0.1012(2)
C4A C -0.6972(6) -0.1297(8) 0.1012(2)
H3B H -0.8688 -0.5708 0.1226
H3A H -0.7020 -0.1312 0.1226
C5B C -0.8310(8) -0.4998(5) 0.08866(19)
C5A C -0.6688(6) -0.1690(8) 0.08866(19)
H4B H -0.8014 -0.4593 0.1013
H4A H -0.6579 -0.1986 0.1013
C6B C -0.9476(7) -0.7039(5) 0.09883(16)
C6A C -0.7563(5) -0.0524(7) 0.09883(16)
C7B C -0.9708(8) -0.7658(5) 0.0835(2)
C7A C -0.7950(6) -0.0292(8) 0.0835(2)
H5A H -0.7961 -0.0332 0.0620
H5B H -0.9668 -0.7629 0.0620
C8A C -0.8328(6) 0.0000(8) 0.09633(17)
C8B C -1.0000(8) -0.8328(6) 0.09633(17)
H6A H -0.8620 0.0119 0.0839
H6B H -1.0119 -0.8739 0.0839
C9A C -0.7887(6) -0.0060(8) 0.1436(2)
C9B C -0.9940(8) -0.7827(5) 0.1436(2)
H7A H -0.7840 0.0046 0.1647
H7B H -1.0046 -0.7886 0.1647
C10B C -0.9590(9) -0.7112(5) 0.13147(19)
C10A C -0.7522(7) -0.0410(9) 0.13147(19)
H8A H -0.7260 -0.0561 0.1441
H8B H -0.9439 -0.6699 0.1441
O1B O -0.8470(5) -0.4234(3) -0.00149(5)
O1A O -0.5764(4) -0.1530(5) -0.00149(5)
C11B C -0.8274(8) -0.4150(6) -0.02889(8)
C11A C -0.5876(6) -0.1726(8) -0.02889(8)
C12A C -0.5257(6) -0.1114(8) -0.0522(2)
C12B C -0.8886(8) -0.4143(6) -0.0522(2)
H9B H -0.8912 -0.3700 -0.0466
H9A H -0.4788 -0.1088 -0.0466
C13B C -0.9565(9) -0.4684(6) -0.05193(18)
C13A C -0.5119(7) -0.0435(9) -0.05193(18)
H10B H -0.9873 -0.4601 -0.0375
H10A H -0.4728 -0.0127 -0.0375
H11B H -0.9601 -0.5160 -0.0478
H11A H -0.5559 -0.0399 -0.0478
C14B C -0.9744(11) -0.4601(8) -0.0869(3)
C14A C -0.4857(8) -0.0256(11) -0.0869(3)
H12B H -1.0195 -0.5038 -0.0939
H12A H -0.4843 0.0195 -0.0939
H13B H -0.9796 -0.4166 -0.0898
H13A H -0.4370 -0.0204 -0.0898
N1B N -0.8616(6) -0.4018(5) -0.08274(18)
N1A N -0.5402(4) -0.1384(6) -0.08274(18)
H14B H -0.8190 -0.3649 -0.0877
H14A H -0.5459 -0.1810 -0.0877
C15B C -0.9074(10) -0.4520(7) -0.10361(10)
C15A C -0.5446(7) -0.0926(10) -0.10361(10)
O2A O 0.09586(12) 0.04786(32) 0.22432(5)
O2B O -0.04786(32) 0.0480(3) 0.22432(5)
C16A C 0.1599(2) 0.0800(6) 0.21379(8)
C16B C -0.0800(6) 0.0799(6) 0.21379(8)
C17B C -0.1451(9) 0.1696(7) 0.2711(2)
C17A C 0.3147(5) 0.1451(9) 0.2711(2)
H15B H -0.1226 0.2187 0.2803
H15A H 0.3413 0.1226 0.2803
H16B H -0.1987 0.1483 0.2702
H16A H 0.3470 0.1987 0.2702
C18B C -0.1378(10) 0.0807(7) 0.2380(3)
C18A C 0.2185(7) 0.1378(10) 0.2380(3)
H17B H -0.1845 0.0357 0.2328
H17A H 0.2202 0.1845 0.2328
C19B C -0.1561(6) 0.1354(5) 0.23703(17)
C19A C 0.2915(4) 0.1561(6) 0.23703(17)
H18B H -0.1955 0.1252 0.2224
H18A H 0.3207 0.1955 0.2224
H19B H -0.1138 0.1845 0.2336
H19A H 0.2983 0.1138 0.2336
N2B N -0.1259(8) 0.0688(6) 0.2684(2)
N2A N 0.1947(5) 0.1259(8) 0.2684(2)
H20B H -0.1208 0.0318 0.2740
H20A H 0.1526 0.1208 0.2740
C20B C -0.1232(8) 0.1183(8) 0.28831(10)
C20A C 0.2415(2) 0.1232(8) 0.28831(10)
C21B C -0.8314(8) -0.3330(6) 0.0875(2)
C21A C -0.5016(5) -0.1686(8) 0.0875(2)
H21B H -0.8014 -0.3453 0.0991
H21A H -0.5439 -0.1986 0.0991
C22B C -0.8793(7) -0.3272(5) 0.04173(15)
C22A C -0.4479(5) -0.1207(7) 0.04173(15)
H22B H -0.8834 -0.3351 0.0204
H22A H -0.4517 -0.1166 0.0204
C23B C -0.9092(6) -0.2805(4) 0.0844(2)
C23A C -0.3713(5) -0.0908(6) 0.0844(2)
C24B C -0.9474(6) -0.2445(5) 0.1005(2)
C24A C -0.2971(4) -0.0526(6) 0.1005(2)
C25B C -0.9677(9) -0.2503(7) 0.1291(2)
C25A C -0.2826(6) -0.0323(9) 0.1291(2)
H23B H -0.9607 -0.2825 0.1417
H23A H -0.3218 -0.0393 0.1417
C26B C -0.9977(9) -0.2136(6) 0.1415(2)
C26A C -0.2159(7) -0.0023(9) 0.1415(2)
H24B H -1.0072 -0.2193 0.1627
H24A H -0.2121 0.0072 0.1627
C27B C -0.9150(8) -0.2958(5) 0.0552(2)
C27A C -0.3808(6) -0.0850(8) 0.0552(2)
H25B H -0.9451 -0.2846 0.0431
H25A H -0.3395 -0.0549 0.0431
C28B C -0.9990(9) -0.1650(8) 0.0987(2)
C28A C -0.1660(5) -0.0010(9) 0.0987(2)
H26B H -1.0114 -0.1353 0.0869
H26A H -0.1239 0.0114 0.0869
C29B C -0.9643(8) -0.1989(6) 0.0828(2)
C29A C -0.2346(6) -0.0357(8) 0.0828(2)
H27B H -0.9535 -0.1912 0.0618
H27A H -0.2377 -0.0465 0.0618
C30B C -0.8658(8) -0.3001(6) 0.1034(2)
C30A C -0.4343(6) -0.1342(8) 0.1034(2)
H28B H -0.8608 -0.2916 0.1247
H28A H -0.4308 -0.1392 0.1247
N3B N -0.8339(6) -0.4896(4) 0.05817(14)
N3A N -0.6557(4) -0.1661(6) 0.05817(14)
N4A N -0.8295(4) 0.0125(6) 0.12693(15)
N4B N -1.0125(6) -0.8420(4) 0.12693(15)
N4A_2 N 0.1705(4) 0.0125(6) 0.12693(15)
N4B_2 N -0.0125(6) 0.1580(4) 0.12693(15)
N5B N -0.8368(6) -0.3479(4) 0.05877(17)
N5A N -0.5111(4) -0.1632(6) 0.05877(17)
N6B N -0.0149(6) -0.1705(4) 0.12673(16)
N6B_2 N -1.0149(6) -0.1705(4) 0.12673(16)
N6A N -0.1556(4) 0.0149(6) 0.12673(16)
N6_2 N 0.1705(4) 0.1556(4) 0.12673(16)
O3A O -0.6189(4) -0.2375(6) -0.03972(5)
O3B O -0.7625(6) -0.3814(4) -0.03972(5)
O4B O -0.09020(42) 0.0902(4) 0.18628(5)
O4A O 0.18040(13) 0.09020(42) 0.18628(5)
O5A O -0.58050(13) -0.28900(33) 0.01528(6)
O5B O -0.71100(33) -0.2915(3) 0.01528(6)
H29A H -0.5486(19) -0.2696(44) 0.0056(8)
H29B H -0.7304(44) -0.279(4) 0.0056(8)
O6B O -0.0864(5) -0.0433(4) 0.16901(6)
O6A O 0.0431(3) 0.0864(5) 0.16901(6)
H30B H -0.122(6) -0.069(4) 0.1736(9)
H30A H 0.053(4) 0.122(6) 0.1736(9)
O7B O -0.8967(10) -0.4507(7) -0.13085(7)
O7A O -0.5540(7) -0.1033(10) -0.13085(7)
O8B O -0.1210(7) 0.1106(7) 0.31554(9)
O8A O 0.2316(2) 0.1210(7) 0.31554(9)
O9 O -0.7244(11) -0.2400(11) 0.1714(4)
O10 O -0.2063(18) -0.2063(18) 0.0000
O11 O -1.0000 -0.2271(13) 0.0000
C31? C -0.1306(9) -0.2214(9) 0.2353(4)
H31? H -0.1693 -0.2077 0.2342
C32? C -0.1709(8) -0.2804(8) 0.2367(3)
H32? H -0.1600 -0.3067 0.2209
H33? H -0.2203 -0.2882 0.2328
N7? N -0.1091(6) -0.1924(5) 0.26874(19)
H34? H -0.0923 -0.1466 0.2736
C33? C -0.1214(10) -0.3041(9) 0.2709(4)
H35? H -0.1613 -0.3511 0.2785
H36? H -0.0748 -0.3041 0.2728
C34? C -0.5387(8) -0.4227(8) -0.0520(3)
C35? C -0.4948(8) -0.4454(8) -0.0529(3)
C36? C -0.4997(8) -0.4799(8) -0.0860(2)
H37? H -0.4992 -0.3706 -0.0508
H38? H -0.5069 -0.4828 -0.0370
H39? H -0.4447 -0.4048 -0.0492
H40? H -0.4509 -0.4598 -0.0954
H41? H -0.5232 -0.5336 -0.0850
H42? H -0.5749 -0.3863 -0.0897
N8? N -0.5582(6) -0.4152(6) -0.0844(2)
loop_
_geom_bond_atom_site_label_1
_geom_bond_atom_site_label_2
_geom_bond_site_symmetry_1
_geom_bond_site_symmetry_2
Ni1 Cl1 1_555 1_555
Ni2 Cl2 1_555 1_555
Ni3 O3 1_555 1_555
Ni4 O2 1_555 1_555
Cl1 Ni1B 1_555 1_555
Cl2 Ni2B 1_555 1_555
C1 H1 1_555 1_555
C2 C1 1_555 1_555
H2 C2 1_555 1_555
C3 C2 1_555 1_555
C4 C3 1_555 1_555
H3 C4 1_555 1_555
C5 C4 1_555 1_555
H4 C5 1_555 1_555
C6 C3 1_555 1_555
C7 C6 1_555 1_555
H5 C7 1_555 1_555
C8 C7 1_555 1_555
H6 C8 1_555 1_555
C9 H7 1_555 1_555
C10 C6 1_555 1_555
H8 C10 1_555 1_555
O1 Ni1 1_555 1_555
C11 O1 1_555 1_555
C12 C11 1_555 1_555
H9 C12 1_555 1_555
C13 C12 1_555 1_555
H10 C13 1_555 1_555
H11 C13 1_555 1_555
C14 C13 1_555 1_555
H12 C14 1_555 1_555
H13 C14 1_555 1_555
N1 C12 1_555 1_555
H14 N1 1_555 1_555
C15 C14 1_555 1_555
O2 C16 1_555 1_555
C16 C18 1_555 1_555
C17 H15 1_555 1_555
H16 C17 1_555 1_555
C18 H17 1_555 1_555
C19 C17 1_555 1_555
H18 C19 1_555 1_555
H19 C19 1_555 1_555
N2 C18 1_555 1_555
H20 N2 1_555 1_555
C20 C17 1_555 1_555
C21 H21 1_555 1_555
C22 H22 1_555 1_555
C23 C24 1_555 1_555
C24 C25 1_555 1_555
C25 H23 1_555 1_555
C26 C25 1_555 1_555
H24 C26 1_555 1_555
C27 C22 1_555 1_555
H25 C27 1_555 1_555
C28 H26 1_555 1_555
C29 C24 1_555 1_555
H27 C29 1_555 1_555
C30 C21 1_555 1_555
H28 C30 1_555 1_555
N3 Ni1 1_555 1_555
N4 Ni2 1_555 1_555
N5 Ni1 1_555 1_555
N6 C26 1_555 1_555
O3 C11 1_555 1_555
O4 Ni2 1_555 1_555
O5 Ni1 1_555 1_555
H29 O5 1_555 1_555
O6 Ni2 1_555 1_555
H30 O6 1_555 1_555
O7 C15 1_555 1_555
O8 C20 1_555 1_555
Ni1B O5 1_555 1_555
Ni1A Cl1 1_555 1_555
Ni2B N4B_2 1_555 1_555
Ni2A Cl2 1_555 1_555
Ni2A_2 N6 1_555 1_555
Ni2A_3 N4A 1_555 1_555
Ni2_2 N6B_2 1_555 1_555
Ni2B_2 N4B 1_555 1_555
C1B H1B 1_555 1_555
C1A H1A 1_555 1_555
C2B C1B 1_555 1_555
C2A C1A 1_555 1_555
H2B C2B 1_555 1_555
H2A C2A 1_555 1_555
C3B C2B 1_555 1_555
C3A C2A 1_555 1_555
C4B C3B 1_555 1_555
C4A C3A 1_555 1_555
H3B C4B 1_555 1_555
H3A C4A 1_555 1_555
C5B C4B 1_555 1_555
C5A C4A 1_555 1_555
H4B C5B 1_555 1_555
H4A C5A 1_555 1_555
C6B C3B 1_555 1_555
C6A C3A 1_555 1_555
C7B C6B 1_555 1_555
C7A C6A 1_555 1_555
H5A C7A 1_555 1_555
H5B C7B 1_555 1_555
C8A C7A 1_555 1_555
C8B C7B 1_555 1_555
H6A C8A 1_555 1_555
H6B C8B 1_555 1_555
C9A H7A 1_555 1_555
C9B H7B 1_555 1_555
C10B C6B 1_555 1_555
C10A C6A 1_555 1_555
H8A C10A 1_555 1_555
H8B C10B 1_555 1_555
O1B Ni1B 1_555 1_555
O1A Ni1A 1_555 1_555
C11B O1B 1_555 1_555
C11A O1A 1_555 1_555
C12A C11A 1_555 1_555
C12B C11B 1_555 1_555
H9B C12B 1_555 1_555
H9A C12A 1_555 1_555
C13B C12B 1_555 1_555
C13A C12A 1_555 1_555
H10B C13B 1_555 1_555
H10A C13A 1_555 1_555
H11B C13B 1_555 1_555
H11A C13A 1_555 1_555
C14B C13B 1_555 1_555
C14A C13A 1_555 1_555
H12B C14B 1_555 1_555
H12A C14A 1_555 1_555
H13B C14B 1_555 1_555
H13A C14A 1_555 1_555
N1B C12B 1_555 1_555
N1A C12A 1_555 1_555
H14B N1B 1_555 1_555
H14A N1A 1_555 1_555
C15B C14B 1_555 1_555
C15A C14A 1_555 1_555
O2A Ni4 1_555 1_555
O2B Ni4 1_555 1_555
C16A O2A 1_555 1_555
C16B O2B 1_555 1_555
C17B H15B 1_555 1_555
C17A H15A 1_555 1_555
H16B C17B 1_555 1_555
H16A C17A 1_555 1_555
C18B C16B 1_555 1_555
C18A C16A 1_555 1_555
H17B C18B 1_555 1_555
H17A C18A 1_555 1_555
C19B C17B 1_555 1_555
C19A C17A 1_555 1_555
H18B C19B 1_555 1_555
H18A C19A 1_555 1_555
H19B C19B 1_555 1_555
H19A C19A 1_555 1_555
N2B C18B 1_555 1_555
N2A C18A 1_555 1_555
H20B N2B 1_555 1_555
H20A N2A 1_555 1_555
C20B C17B 1_555 1_555
C20A C17A 1_555 1_555
C21B H21B 1_555 1_555
C21A H21A 1_555 1_555
C22B H22B 1_555 1_555
C22A H22A 1_555 1_555
C23B C24B 1_555 1_555
C23A C24A 1_555 1_555
C24B C25B 1_555 1_555
C24A C25A 1_555 1_555
C25B H23B 1_555 1_555
C25A H23A 1_555 1_555
C26B C25B 1_555 1_555
C26A C25A 1_555 1_555
H24B C26B 1_555 1_555
H24A C26A 1_555 1_555
C27B C22B 1_555 1_555
C27A C22A 1_555 1_555
H25B C27B 1_555 1_555
H25A C27A 1_555 1_555
C28B H26B 1_555 1_555
C28A H26A 1_555 1_555
C29B C24B 1_555 1_555
C29A C24A 1_555 1_555
H27B C29B 1_555 1_555
H27A C29A 1_555 1_555
C30B C21B 1_555 1_555
C30A C21A 1_555 1_555
H28B C30B 1_555 1_555
H28A C30A 1_555 1_555
N3B Ni1B 1_555 1_555
N3A Ni1A 1_555 1_555
N4A C8A 1_555 1_555
N4B C8B 1_555 1_555
N4A_2 Ni2A 1_555 1_555
N5B Ni1B 1_555 1_555
N5A Ni1A 1_555 1_555
N6B Ni2 1_555 1_555
N6B_2 C26B 1_555 1_555
N6A Ni2B 1_555 1_555
N6_2 Ni2A 1_555 1_555
O3A Ni3 1_555 1_555
O3B Ni3 1_555 1_555
O4B Ni2B 1_555 1_555
O4A Ni2A 1_555 1_555
O5A Ni1 1_555 1_555
O5B Ni3 1_555 1_555
H29A O5A 1_555 1_555
H29B O5B 1_555 1_555
O6B Ni2 1_555 1_555
O6A Ni4 1_555 1_555
H30B O6B 1_555 1_555
H30A O6A 1_555 1_555
O7B C15B 1_555 1_555
O7A C15A 1_555 1_555
O8B C20B 1_555 1_555
O8A C20A 1_555 1_555
Ni3 O5 1_555 1_555
Ni3 O5A 1_555 1_555
Ni4 O6 1_555 1_555
Ni4 O6B 1_555 1_555
C1 N3 1_555 1_555
C5 N3 1_555 1_555
C8 N4 1_555 1_555
C9 C10 1_555 1_555
C9 N4 1_555 1_555
N1 C15 1_555 1_555
C16 O4 1_555 1_555
C18 C19 1_555 1_555
N2 C20 1_555 1_555
C21 N5 1_555 1_555
C22 N5 1_555 1_555
C23 C27 1_555 1_555
C23 C30 1_555 1_555
C28 C29 1_555 1_555
C28 N6 1_555 1_555
O6 Ni2A 1_555 1_555
Ni1B O5B 1_555 1_555
Ni1A O5A 1_555 1_555
Ni1A O5B 1_555 1_555
Ni2B O6B 1_555 1_555
Ni2B O6A 1_555 1_555
Ni2A O6A 1_555 1_555
C1B N3B 1_555 1_555
C1A N3A 1_555 1_555
C5B N3B 1_555 1_555
C5A N3A 1_555 1_555
C9A C10A 1_555 1_555
C9A N4A 1_555 1_555
C9B C10B 1_555 1_555
C9B N4B 1_555 1_555
C11B O3B 1_555 1_555
C11A O3A 1_555 1_555
N1B C15B 1_555 1_555
N1A C15A 1_555 1_555
C16A O4A 1_555 1_555
C16B O4B 1_555 1_555
C18B C19B 1_555 1_555
C18A C19A 1_555 1_555
N2B C20B 1_555 1_555
N2A C20A 1_555 1_555
C21B N5B 1_555 1_555
C21A N5A 1_555 1_555
C22B N5B 1_555 1_555
C22A N5A 1_555 1_555
C23B C27B 1_555 1_555
C23B C30B 1_555 1_555
C23A C27A 1_555 1_555
C23A C30A 1_555 1_555
C26A N6A 1_555 1_555
C28B C29B 1_555 1_555
C28B N6B_2 1_555 1_555
C28A C29A 1_555 1_555
C28A N6A 1_555 1_555

#END
