
#######################################################################
#
#                 Cambridge Crystallographic Data Centre
#                                CCDC 
#
#######################################################################
#
# If this CIF has been generated from an entry in the Cambridge 
# Structural Database, then it will include bibliographic, chemical, 
# crystal, experimental, refinement or atomic coordinate data resulting 
# from the CCDC's data processing and validation procedures.
#
#######################################################################

data_ENEHAH01
_symmetry_cell_setting           rhombohedral
_symmetry_space_group_name_H-M   'R 3 2'
_symmetry_Int_Tables_number      155
_space_group_name_Hall           'R 3 2"'
loop_
_symmetry_equiv_pos_site_id
_symmetry_equiv_pos_as_xyz
1 x,y,z
2 -y,x-y,z
3 -x+y,-x,z
4 y,x,-z
5 x-y,-y,-z
6 -x,-x+y,-z
7 2/3+x,1/3+y,1/3+z
8 2/3-y,1/3+x-y,1/3+z
9 2/3-x+y,1/3-x,1/3+z
10 2/3+y,1/3+x,1/3-z
11 2/3+x-y,1/3-y,1/3-z
12 2/3-x,1/3-x+y,1/3-z
13 1/3+x,2/3+y,2/3+z
14 1/3-y,2/3+x-y,2/3+z
15 1/3-x+y,2/3-x,2/3+z
16 1/3+y,2/3+x,2/3-z
17 1/3+x-y,2/3-y,2/3-z
18 1/3-x,2/3-x+y,2/3-z
_cell_length_a                   21.048(11)
_cell_length_b                   21.048(11)
_cell_length_c                   43.16(2)
_cell_angle_alpha                90
_cell_angle_beta                 90
_cell_angle_gamma                120
_cell_volume                     16559
loop_
_atom_site_label
_atom_site_type_symbol
_atom_site_fract_x
_atom_site_fract_y
_atom_site_fract_z
Ni1 Ni -0.27866(11) 0.27870(11) -0.301670(18)
Ni2 Ni -0.55715(12) -0.27866(4) -0.190730(19)
Ni3 Ni -0.3333 0.3333 -0.35243(3)
Ni4 Ni -0.6667 -0.3334 -0.14006(3)
Cl1 Cl -0.3333 0.3333 -0.26138(6)
Cl2 Cl -0.6667 -0.3334 -0.23136(6)
N1 N 0.1766(6) 0.4961(7) -0.2130(3)
N2 N -0.1767(7) 0.3201(7) -0.2794(3)
N3 N -0.4968(7) -0.1776(8) -0.2123(3)
N4 N -0.3197(7) 0.1771(6) -0.2798(3)
N5 N -0.2407(16) 0.2347(17) -0.42144(15)
H1 H -0.2563 0.2648 -0.4248
N6 N -0.4750(16) -0.2328(4) -0.07094(16)
H2 H -0.5207 -0.2638 -0.0678
O1 O -0.6229(5) -0.2468(5) -0.17036(8)
O2 O -0.3758(5) 0.2465(2) -0.32211(9)
O3 O -0.5711(6) -0.2851(2) -0.11472(9)
O4 O -0.4873(6) -0.2443(2) -0.15290(10)
O5 O -0.2417(6) 0.2453(6) -0.33956(10)
O6 O -0.2848(2) 0.2866(6) -0.37741(9)
O7 O -0.2187(13) 0.2211(13) -0.46944(14)
O8 O -0.4393(12) -0.2232(4) -0.02300(16)
C1 C 0.1013(9) 0.4637(11) -0.2566(4)
H3 H 0.0990 0.4646 -0.2781
C2 C 0.0357(8) 0.4232(9) -0.2390(4)
C3 C 0.0461(8) 0.4248(12) -0.2078(4)
H4 H 0.0061 0.4056 -0.1944
C4 C -0.0360(8) 0.3871(8) -0.2537(4)
C5 C -0.0452(7) 0.3788(11) -0.2856(5)
H5 H -0.0043 0.3998 -0.2985
C6 C -0.1630(9) 0.3345(10) -0.2489(4)
H6 H -0.2036 0.3220 -0.2364
C7 C -0.1014(8) 0.3631(9) -0.2352(3)
H7 H -0.0984 0.3685 -0.2137
C8 C -0.4590(11) -0.1196(11) -0.1960(5)
H8 H -0.4606 -0.1243 -0.1746
C9 C -0.4997(12) -0.1692(11) -0.2419(4)
H9 H -0.5239 -0.2103 -0.2545
C10 C -0.4654(13) -0.0960(12) -0.2559(4)
H10 H -0.4737 -0.0908 -0.2767
C11 C -0.4234(9) -0.0380(8) -0.2395(4)
C12 C -0.4153(10) -0.0493(10) -0.2088(4)
H11 H -0.3813 -0.0109 -0.1965
C13 C -0.3325(11) 0.1698(9) -0.2511(4)
H12 H -0.3203 0.2107 -0.2389
C14 C -0.3418(11) 0.1167(9) -0.2945(4)
H13 H -0.3387 0.1209 -0.3160
C15 C -0.3858(9) 0.0376(8) -0.2530(3)
C16 C -0.3668(11) 0.0967(11) -0.2373(4)
H14 H -0.3754 0.0924 -0.2161
C17 C -0.3678(10) 0.0506(10) -0.2838(4)
H15 H -0.3740 0.0128 -0.2968
C18 C -0.5076(9) -0.2538(3) -0.12562(15)
C19 C -0.2551(9) 0.2531(10) -0.36682(15)
C20 C -0.4278(12) -0.2138(4) -0.0500(2)
C21 C -0.2107(11) 0.2181(12) -0.4421(2)
C22 C -0.1894(17) 0.1920(18) -0.3913(3)
H16 H -0.1913 0.1575 -0.3759
H17 H -0.1443 0.2386 -0.3889
C23 C -0.2485(5) 0.1997(5) -0.3901(2)
H18 H -0.2931 0.1514 -0.3895
C24 C -0.4466(6) -0.1983(5) -0.1019(2)
H19 H -0.4403 -0.1490 -0.1031
C25 C -0.3808(16) -0.1964(5) -0.1010(2)
H20 H -0.3473 -0.1660 -0.1172
H21 H -0.3858 -0.2447 -0.1012
C26 C -0.3601(12) -0.1586(6) -0.0679(3)
H22 H -0.3156 -0.1553 -0.0597
H23 H -0.3551 -0.1102 -0.0681
C27 C -0.1986(15) 0.1617(14) -0.4243(3)
H24 H -0.1549 0.1615 -0.4314
H25 H -0.2406 0.1127 -0.4260
C28 C -0.1182(9) 0.3376(11) -0.2990(4)
H26 H -0.1252 0.3236 -0.3197
C29 C 0.1642(9) 0.4992(11) -0.2427(4)
H27 H 0.2045 0.5298 -0.2548
C30 C 0.1161(10) 0.4550(11) -0.1962(5)
H28 H 0.1217 0.4464 -0.1756
Ni1B Ni -0.44264(16) 0.27866(11) -0.301670(18)
Ni1A Ni -0.27870(11) 0.44264(16) -0.301670(18)
Ni2B Ni -0.72151(13) -0.44285(12) -0.190730(19)
Ni2A Ni -0.72134(4) -0.27849(13) -0.190730(19)
Ni2B_2 Ni 0.27849(13) 0.55715(12) -0.190730(19)
Ni2B_3 Ni -0.72151(13) 0.55715(12) -0.190730(19)
Ni2_2 Ni -0.55715(12) 0.72134(4) -0.190730(19)
Ni2A_2 Ni 0.27866(4) 0.72151(13) -0.190730(19)
N1A N -0.4961(7) -0.3195(9) -0.2130(3)
N1B N -0.6805(9) -0.1766(6) -0.2130(3)
N1A_2 N -0.4961(7) 0.6805(9) -0.2130(3)
N1_2 N -0.8234(6) -0.5039(7) -0.2130(3)
N2B N -0.5032(10) 0.1767(7) -0.2794(3)
N2A N -0.3201(7) 0.5032(10) -0.2794(3)
N3B N -0.6808(11) 0.4968(7) -0.2123(3)
N3A N 0.1776(8) 0.6808(11) -0.2123(3)
N3A_2 N -0.8224(8) -0.3192(11) -0.2123(3)
N3B_2 N -0.6808(11) -0.5032(7) -0.2123(3)
N4B N -0.5032(9) 0.3197(7) -0.2798(3)
N4A N -0.1771(6) 0.5032(9) -0.2798(3)
N5B N -0.5246(23) 0.2407(16) -0.42144(15)
N5A N -0.2347(17) 0.5246(23) -0.42144(15)
H1A H -0.2648 0.4789 -0.4248
H1B H -0.4789 0.2563 -0.4248
N6A N -0.7672(4) -0.2422(16) -0.07094(16)
N6B N -0.7578(16) -0.5250(16) -0.07094(16)
H2A H -0.7362 -0.2569 -0.0678
H2B H -0.7431 -0.4793 -0.0678
O1B O -0.6239(7) -0.3771(5) -0.17036(8)
O1A O -0.7532(5) -0.3761(7) -0.17036(8)
O2A O -0.2465(2) 0.3777(5) -0.32211(9)
O2B O -0.3777(5) 0.3758(5) -0.32211(9)
O3A O -0.7149(2) -0.2860(6) -0.11472(9)
O3B O -0.7140(6) -0.4289(6) -0.11472(9)
O4A O -0.7557(2) -0.2430(6) -0.15290(10)
O4B O -0.7570(6) -0.5127(6) -0.15290(10)
O5B O -0.5130(8) 0.2417(6) -0.33956(10)
O5A O -0.2453(6) 0.5130(8) -0.33956(10)
O6A O -0.2866(6) 0.4286(6) -0.37741(9)
O6B O -0.4286(6) 0.2848(2) -0.37741(9)
O7A O -0.2211(13) 0.5602(18) -0.46944(14)
O7B O -0.5602(18) 0.2187(13) -0.46944(14)
O8A O -0.7768(4) -0.2161(13) -0.02300(16)
O8B O -0.7839(13) -0.5607(12) -0.02300(16)
C1B C -0.6376(14) -0.1013(9) -0.2566(4)
C1A C -0.4637(11) 0.6376(14) -0.2566(4)
H3B H -0.6344 -0.0990 -0.2781
H3A H -0.4646 0.6344 -0.2781
C2B C -0.6125(12) -0.0357(8) -0.2390(4)
C2A C -0.4232(9) 0.6125(12) -0.2390(4)
C3B C -0.6213(14) -0.0461(8) -0.2078(4)
C3A C -0.4248(12) 0.6213(14) -0.2078(4)
H4B H -0.6005 -0.0061 -0.1944
H4A H -0.4056 0.6005 -0.1944
C4B C -0.5769(11) 0.0360(8) -0.2537(4)
C4A C -0.3871(8) 0.5769(11) -0.2537(4)
C5B C -0.5760(13) 0.0452(7) -0.2856(5)
C5A C -0.3788(11) 0.5760(13) -0.2856(5)
H5B H -0.5959 0.0043 -0.2985
H5A H -0.3998 0.5959 -0.2985
C6B C -0.5025(13) 0.1630(9) -0.2489(4)
C6A C -0.3345(10) 0.5025(13) -0.2489(4)
H6B H -0.4744 0.2036 -0.2364
H6A H -0.3220 0.4744 -0.2364
C7B C -0.5355(12) 0.1014(8) -0.2352(3)
C7A C -0.3631(9) 0.5355(12) -0.2352(3)
H7B H -0.5331 0.0984 -0.2137
H7A H -0.3685 0.5331 -0.2137
C8B C -0.6606(16) 0.4590(11) -0.1960(5)
C8A C 0.1196(11) 0.6606(16) -0.1960(5)
H8B H -0.6637 0.4606 -0.1746
H8A H 0.1243 0.6637 -0.1746
C9B C -0.6695(16) 0.4997(12) -0.2419(4)
C9A C 0.1692(11) 0.6695(16) -0.2419(4)
H9B H -0.6864 0.5239 -0.2545
H9A H 0.2103 0.6864 -0.2545
C10B C -0.6306(18) 0.4654(13) -0.2559(4)
C10A C 0.0960(12) 0.6306(18) -0.2559(4)
H10B H -0.6171 0.4737 -0.2767
H10A H 0.0908 0.6171 -0.2767
C11B C -0.6146(12) 0.4234(9) -0.2395(4)
C11A C 0.0380(8) 0.6146(12) -0.2395(4)
C12B C -0.6340(14) 0.4153(10) -0.2088(4)
C12A C 0.0493(10) 0.6340(14) -0.2088(4)
H11B H -0.6296 0.3813 -0.1965
H11A H 0.0109 0.6296 -0.1965
C13B C -0.4977(14) 0.3325(11) -0.2511(4)
C13A C -0.1698(9) 0.4977(14) -0.2511(4)
H12B H -0.4690 0.3203 -0.2389
H12A H -0.2107 0.4690 -0.2389
C14B C -0.5415(14) 0.3418(11) -0.2945(4)
C14A C -0.1167(9) 0.5415(14) -0.2945(4)
H13B H -0.5404 0.3387 -0.3160
H13A H -0.1209 0.5404 -0.3160
C15B C -0.5766(12) 0.3858(9) -0.2530(3)
C15A C -0.0376(8) 0.5766(12) -0.2530(3)
C16B C -0.5365(16) 0.3668(11) -0.2373(4)
C16A C -0.0967(11) 0.5365(16) -0.2373(4)
H14B H -0.5322 0.3754 -0.2161
H14A H -0.0924 0.5322 -0.2161
C17B C -0.5816(14) 0.3678(10) -0.2838(4)
C17A C -0.0506(10) 0.5816(14) -0.2838(4)
H15B H -0.6132 0.3740 -0.2968
H15A H -0.0128 0.6132 -0.2968
C18A C -0.7462(3) -0.2538(9) -0.12562(15)
C18B C -0.7462(9) -0.4924(9) -0.12562(15)
C19A C -0.2531(10) 0.4918(13) -0.36682(15)
C19B C -0.4918(13) 0.2551(9) -0.36682(15)
C20A C -0.7862(4) -0.2140(13) -0.0500(2)
C20B C -0.7860(13) -0.5722(12) -0.0500(2)
C21A C -0.2181(12) 0.5712(16) -0.4421(2)
C21B C -0.5712(16) 0.2107(11) -0.4421(2)
C22B C -0.6186(25) 0.1894(17) -0.3913(3)
C22A C -0.1920(18) 0.6186(25) -0.3913(3)
H16A H -0.1575 0.6512 -0.3759
H16B H -0.6512 0.1913 -0.3759
H17A H -0.2386 0.6171 -0.3889
H17B H -0.6171 0.1443 -0.3889
C23B C -0.5518(7) 0.2485(5) -0.3901(2)
C23A C -0.1997(5) 0.5518(7) -0.3901(2)
H18B H -0.5555 0.2931 -0.3895
H18A H -0.1514 0.5555 -0.3895
C24A C -0.8017(5) -0.2483(8) -0.1019(2)
C24B C -0.7517(8) -0.5534(6) -0.1019(2)
H19A H -0.8510 -0.2913 -0.1031
H19B H -0.7087 -0.5597 -0.1031
C25A C -0.8036(5) -0.1844(17) -0.1010(2)
C25B C -0.8156(17) -0.6192(16) -0.1010(2)
H20A H -0.8340 -0.1813 -0.1172
H20B H -0.8187 -0.6527 -0.1172
H21A H -0.7553 -0.1411 -0.1012
H21B H -0.8589 -0.6142 -0.1012
C26A C -0.8414(6) -0.2015(13) -0.0679(3)
C26B C -0.7985(13) -0.6399(12) -0.0679(3)
H22A H -0.8447 -0.1603 -0.0597
H22B H -0.8397 -0.6844 -0.0597
H23A H -0.8898 -0.2449 -0.0681
H23B H -0.7551 -0.6449 -0.0681
C27A C -0.1617(14) 0.6397(21) -0.4243(3)
C27B C -0.6397(21) 0.1986(15) -0.4243(3)
H24A H -0.1615 0.6836 -0.4314
H24B H -0.6836 0.1549 -0.4314
H25A H -0.1127 0.6467 -0.4260
H25B H -0.6467 0.2406 -0.4260
C28B C -0.5442(14) 0.1182(9) -0.2990(4)
C28A C -0.3376(11) 0.5442(14) -0.2990(4)
H26B H -0.5512 0.1252 -0.3197
H26A H -0.3236 0.5512 -0.3197
C29B C -0.6650(14) -0.1642(9) -0.2427(4)
C29A C -0.4992(11) 0.6650(14) -0.2427(4)
H27B H -0.6747 -0.2045 -0.2548
H27A H -0.5298 0.6747 -0.2548
C30B C -0.6611(15) -0.1161(10) -0.1962(5)
C30A C -0.4550(11) 0.6611(15) -0.1962(5)
H28B H -0.6753 -0.1217 -0.1756
H28A H -0.4464 0.6753 -0.1756
O9 O 0.6667 0.3333 -0.1667
O10 O 0.8952(12) 0.4667(13) -0.1605(5)
O11 O 0.3333 0.6667 -0.3333
O12 O 0.1445(17) 0.2256(18) -0.0030(7)
loop_
_geom_bond_atom_site_label_1
_geom_bond_atom_site_label_2
_geom_bond_site_symmetry_1
_geom_bond_site_symmetry_2
Ni1 Cl1 1_555 1_555
Ni2 Cl2 1_555 1_555
Ni3 O2 1_555 1_555
Ni4 O1 1_555 1_555
Cl1 Ni1B 1_555 1_555
Cl2 Ni2B 1_555 1_555
N1 C29 1_555 1_555
N2 Ni1 1_555 1_555
N3 Ni2 1_555 1_555
N4 Ni1 1_555 1_555
N5 H1 1_555 1_555
N6 H2 1_555 1_555
O1 Ni2 1_555 1_555
O2 Ni1 1_555 1_555
O3 Ni4 1_555 1_555
O4 Ni2 1_555 1_555
O5 Ni1 1_555 1_555
O6 Ni3 1_555 1_555
O7 C21 1_555 1_555
O8 C20 1_555 1_555
C1 H3 1_555 1_555
C2 C1 1_555 1_555
C3 C2 1_555 1_555
H4 C3 1_555 1_555
C4 C2 1_555 1_555
C5 C4 1_555 1_555
H5 C5 1_555 1_555
C6 N2 1_555 1_555
H6 C6 1_555 1_555
C7 C4 1_555 1_555
H7 C7 1_555 1_555
C8 N3 1_555 1_555
H8 C8 1_555 1_555
C9 N3 1_555 1_555
H9 C9 1_555 1_555
C10 C9 1_555 1_555
H10 C10 1_555 1_555
C11 C10 1_555 1_555
C12 C8 1_555 1_555
H11 C12 1_555 1_555
C13 N4 1_555 1_555
H12 C13 1_555 1_555
C14 N4 1_555 1_555
H13 C14 1_555 1_555
C15 C11 1_555 1_555
C16 C13 1_555 1_555
H14 C16 1_555 1_555
C17 C14 1_555 1_555
H15 C17 1_555 1_555
C18 O3 1_555 1_555
C19 O5 1_555 1_555
C20 N6 1_555 1_555
C21 N5 1_555 1_555
C22 H16 1_555 1_555
H17 C22 1_555 1_555
C23 N5 1_555 1_555
H18 C23 1_555 1_555
C24 N6 1_555 1_555
H19 C24 1_555 1_555
C25 C24 1_555 1_555
H20 C25 1_555 1_555
H21 C25 1_555 1_555
C26 C20 1_555 1_555
H22 C26 1_555 1_555
H23 C26 1_555 1_555
C27 C21 1_555 1_555
H24 C27 1_555 1_555
H25 C27 1_555 1_555
C28 N2 1_555 1_555
H26 C28 1_555 1_555
C29 C1 1_555 1_555
H27 C29 1_555 1_555
C30 N1 1_555 1_555
H28 C30 1_555 1_555
Ni1B O2 1_555 1_555
Ni1A Cl1 1_555 1_555
Ni2B N1_2 1_555 1_555
Ni2A Cl2 1_555 1_555
Ni2B_2 N1 1_555 1_555
Ni2B_3 N3B 1_555 1_555
Ni2_2 N1A_2 1_555 1_555
Ni2A_2 N3A 1_555 1_555
N1A Ni2 1_555 1_555
N1B Ni2A 1_555 1_555
N1A_2 C29A 1_555 1_555
N2B Ni1B 1_555 1_555
N2A Ni1A 1_555 1_555
N3B C8B 1_555 1_555
N3A C8A 1_555 1_555
N3A_2 Ni2A 1_555 1_555
N3B_2 Ni2B 1_555 1_555
N4B Ni1B 1_555 1_555
N4A Ni1A 1_555 1_555
N5B H1B 1_555 1_555
N5A H1A 1_555 1_555
N6A H2A 1_555 1_555
N6B H2B 1_555 1_555
O1B Ni2 1_555 1_555
O1A Ni4 1_555 1_555
O2A Ni1 1_555 1_555
O2B Ni3 1_555 1_555
O3A Ni4 1_555 1_555
O3B Ni4 1_555 1_555
O4A Ni2A 1_555 1_555
O4B Ni2B 1_555 1_555
O5B Ni1B 1_555 1_555
O5A Ni1A 1_555 1_555
O6A Ni3 1_555 1_555
O6B Ni3 1_555 1_555
O7A C21A 1_555 1_555
O7B C21B 1_555 1_555
O8A C20A 1_555 1_555
O8B C20B 1_555 1_555
C1B H3B 1_555 1_555
C1A H3A 1_555 1_555
C2B C1B 1_555 1_555
C2A C1A 1_555 1_555
C3B C2B 1_555 1_555
C3A C2A 1_555 1_555
H4B C3B 1_555 1_555
H4A C3A 1_555 1_555
C4B C2B 1_555 1_555
C4A C2A 1_555 1_555
C5B C4B 1_555 1_555
C5A C4A 1_555 1_555
H5B C5B 1_555 1_555
H5A C5A 1_555 1_555
C6B N2B 1_555 1_555
C6A N2A 1_555 1_555
H6B C6B 1_555 1_555
H6A C6A 1_555 1_555
C7B C4B 1_555 1_555
C7A C4A 1_555 1_555
H7B C7B 1_555 1_555
H7A C7A 1_555 1_555
C8B H8B 1_555 1_555
C8A H8A 1_555 1_555
C9B N3B 1_555 1_555
C9A N3A 1_555 1_555
H9B C9B 1_555 1_555
H9A C9A 1_555 1_555
C10B C9B 1_555 1_555
C10A C9A 1_555 1_555
H10B C10B 1_555 1_555
H10A C10A 1_555 1_555
C11B C10B 1_555 1_555
C11A C10A 1_555 1_555
C12B C8B 1_555 1_555
C12A C8A 1_555 1_555
H11B C12B 1_555 1_555
H11A C12A 1_555 1_555
C13B N4B 1_555 1_555
C13A N4A 1_555 1_555
H12B C13B 1_555 1_555
H12A C13A 1_555 1_555
C14B N4B 1_555 1_555
C14A N4A 1_555 1_555
H13B C14B 1_555 1_555
H13A C14A 1_555 1_555
C15B C11B 1_555 1_555
C15A C11A 1_555 1_555
C16B C13B 1_555 1_555
C16A C13A 1_555 1_555
H14B C16B 1_555 1_555
H14A C16A 1_555 1_555
C17B C14B 1_555 1_555
C17A C14A 1_555 1_555
H15B C17B 1_555 1_555
H15A C17A 1_555 1_555
C18A O3A 1_555 1_555
C18B O3B 1_555 1_555
C19A O5A 1_555 1_555
C19B O5B 1_555 1_555
C20A N6A 1_555 1_555
C20B N6B 1_555 1_555
C21A N5A 1_555 1_555
C21B N5B 1_555 1_555
C22B H16B 1_555 1_555
C22A H16A 1_555 1_555
H17A C22A 1_555 1_555
H17B C22B 1_555 1_555
C23B N5B 1_555 1_555
C23A N5A 1_555 1_555
H18B C23B 1_555 1_555
H18A C23A 1_555 1_555
C24A N6A 1_555 1_555
C24B N6B 1_555 1_555
H19A C24A 1_555 1_555
H19B C24B 1_555 1_555
C25A C24A 1_555 1_555
C25B C24B 1_555 1_555
H20A C25A 1_555 1_555
H20B C25B 1_555 1_555
H21A C25A 1_555 1_555
H21B C25B 1_555 1_555
C26A C20A 1_555 1_555
C26B C20B 1_555 1_555
H22A C26A 1_555 1_555
H22B C26B 1_555 1_555
H23A C26A 1_555 1_555
H23B C26B 1_555 1_555
C27A C21A 1_555 1_555
C27B C21B 1_555 1_555
H24A C27A 1_555 1_555
H24B C27B 1_555 1_555
H25A C27A 1_555 1_555
H25B C27B 1_555 1_555
C28B N2B 1_555 1_555
C28A N2A 1_555 1_555
H26B C28B 1_555 1_555
H26A C28A 1_555 1_555
C29B N1B 1_555 1_555
C29A C1A 1_555 1_555
H27B C29B 1_555 1_555
H27A C29A 1_555 1_555
C30B N1B 1_555 1_555
C30A N1A_2 1_555 1_555
H28B C30B 1_555 1_555
H28A C30A 1_555 1_555
Ni3 O2A 1_555 1_555
Ni4 O1B 1_555 1_555
O1 Ni2A 1_555 1_555
O4 C18 1_555 1_555
O6 C19 1_555 1_555
C3 C30 1_555 1_555
C5 C28 1_555 1_555
C6 C7 1_555 1_555
C11 C12 1_555 1_555
C15 C16 1_555 1_555
C15 C17 1_555 1_555
C18 C24 1_555 1_555
C19 C23 1_555 1_555
C22 C23 1_555 1_555
C22 C27 1_555 1_555
C25 C26 1_555 1_555
Ni1B O2B 1_555 1_555
Ni1A O2A 1_555 1_555
Ni1A O2B 1_555 1_555
Ni2B O1B 1_555 1_555
Ni2B O1A 1_555 1_555
Ni2A O1A 1_555 1_555
O4A C18A 1_555 1_555
O4B C18B 1_555 1_555
O6A C19A 1_555 1_555
O6B C19B 1_555 1_555
C1B C29B 1_555 1_555
C3B C30B 1_555 1_555
C3A C30A 1_555 1_555
C5B C28B 1_555 1_555
C5A C28A 1_555 1_555
C6B C7B 1_555 1_555
C6A C7A 1_555 1_555
C11B C12B 1_555 1_555
C11A C12A 1_555 1_555
C15B C16B 1_555 1_555
C15B C17B 1_555 1_555
C15A C16A 1_555 1_555
C15A C17A 1_555 1_555
C18A C24A 1_555 1_555
C18B C24B 1_555 1_555
C19A C23A 1_555 1_555
C19B C23B 1_555 1_555
C22B C23B 1_555 1_555
C22B C27B 1_555 1_555
C22A C23A 1_555 1_555
C22A C27A 1_555 1_555
C25A C26A 1_555 1_555
C25B C26B 1_555 1_555

#END
