
#######################################################################
#
#                 Cambridge Crystallographic Data Centre
#                                CCDC 
#
#######################################################################
#
# If this CIF has been generated from an entry in the Cambridge 
# Structural Database, then it will include bibliographic, chemical, 
# crystal, experimental, refinement or atomic coordinate data resulting 
# from the CCDC's data processing and validation procedures.
#
#######################################################################

data_ENEQIY
_symmetry_cell_setting           monoclinic
_symmetry_space_group_name_H-M   'P 21/n'
_symmetry_Int_Tables_number      14
_space_group_name_Hall           '-P 2yn'
loop_
_symmetry_equiv_pos_site_id
_symmetry_equiv_pos_as_xyz
1 x,y,z
2 1/2-x,1/2+y,1/2-z
3 -x,-y,-z
4 1/2+x,1/2-y,1/2+z
_cell_length_a                   13.8096(8)
_cell_length_b                   19.0144(12)
_cell_length_c                   15.8329(10)
_cell_angle_alpha                90
_cell_angle_beta                 91.090(2)
_cell_angle_gamma                90
_cell_volume                     4156.67
loop_
_atom_site_label
_atom_site_type_symbol
_atom_site_fract_x
_atom_site_fract_y
_atom_site_fract_z
S1 S 0.18506(13) 0.02372(10) 0.96887(11)
Cu1 Cu 0.13745(7) 0.44036(4) 0.45058(5)
Cu2 Cu 0.14665(6) 0.60370(4) 0.44820(5)
Cu3 Cu 0.08899(7) 0.52424(4) 0.61995(5)
Cu4 Cu 0.07489(6) 0.02185(4) 0.85107(5)
N1 N 0.1689(4) 0.4835(2) 0.3499(3)
N2 N 0.1692(4) 0.5557(3) 0.3475(3)
N3 N 0.3574(8) 0.5156(5) -0.0195(5)
N4 N 0.1230(4) 0.6557(2) 0.5451(3)
N5 N 0.1033(4) 0.6212(3) 0.6196(4)
N6 N 0.1039(4) 0.9343(3) 0.7781(3)
N7 N 0.0856(4) 0.4264(2) 0.6212(3)
N8 N 0.1070(4) 0.3916(2) 0.5485(3)
N9 N 0.0912(4) 0.1125(2) 0.7829(3)
N10 N 0.0543(4) -0.0063(3) 1.0979(3)
C1 C 0.3109(6) 0.3544(4) 0.3025(6)
H1 H 0.3160 0.3050 0.2910
H2 H 0.3105 0.3619 0.3625
H3 H 0.3651 0.3785 0.2789
C2 C 0.2163(5) 0.3830(3) 0.2626(4)
H4 H 0.2166 0.3743 0.2023
H5 H 0.1621 0.3575 0.2858
C3 C 0.2018(5) 0.4602(3) 0.2773(4)
C4 C 0.2247(5) 0.5177(3) 0.2240(4)
C5 C 0.2012(5) 0.5763(3) 0.2728(4)
C6 C 0.2175(6) 0.6529(3) 0.2560(5)
H6 H 0.2016 0.6628 0.1973
H7 H 0.1743 0.6804 0.2906
C7 C 0.3182(7) 0.6748(4) 0.2741(7)
H8 H 0.3249 0.7241 0.2624
H9 H 0.3612 0.6486 0.2391
H10 H 0.3339 0.6661 0.3324
C8 C 0.2660(5) 0.5161(3) 0.1399(4)
C9 C 0.3442(6) 0.4738(4) 0.1201(5)
H11 H 0.3685 0.4430 0.1608
C10 C 0.3874(8) 0.4756(4) 0.0425(6)
H12 H 0.4407 0.4468 0.0338
C11 C 0.2815(11) 0.5562(6) -0.0047(6)
H13 H 0.2596 0.5859 -0.0476
C12 C 0.2308(8) 0.5568(5) 0.0742(5)
H14 H 0.1755 0.5840 0.0805
C13 C 0.2584(6) 0.7898(5) 0.4882(6)
H15 H 0.2696 0.8223 0.4430
H16 H 0.2928 0.7469 0.4778
H17 H 0.2809 0.8099 0.5406
C14 C 0.1528(5) 0.7747(3) 0.4930(4)
H18 H 0.1305 0.7555 0.4393
H19 H 0.1186 0.8185 0.5020
C15 C 0.1274(4) 0.7244(3) 0.5615(4)
C16 C 0.1134(5) 0.7361(3) 0.6477(4)
C17 C 0.0981(6) 0.6693(3) 0.6810(5)
C18 C 0.0571(8) 0.6479(5) 0.7670(5)
H20 H 0.0255 0.6871 0.7945
H21 H 0.0121 0.6089 0.7616
C19 C 0.1447(7) 0.6276(6) 0.8115(7)
H22 H 0.1293 0.6125 0.8675
H23 H 0.1881 0.6670 0.8147
H24 H 0.1751 0.5897 0.7819
C20 C 0.1116(5) 0.8044(3) 0.6931(4)
C21 C 0.0594(5) 0.8604(3) 0.6628(5)
H25 H 0.0245 0.8560 0.6122
C22 C 0.0578(6) 0.9231(3) 0.7059(5)
H26 H 0.0218 0.9599 0.6826
C23 C 0.1580(5) 0.8811(3) 0.8075(4)
H27 H 0.1947 0.8877 0.8568
C24 C 0.1611(5) 0.8160(3) 0.7668(4)
H28 H 0.1979 0.7798 0.7906
C25 C 0.1356(6) 0.4257(4) 0.8248(5)
H29 H 0.1130 0.4414 0.8786
H30 H 0.1701 0.4632 0.7981
H31 H 0.1779 0.3861 0.8327
C26 C 0.0494(6) 0.4043(4) 0.7691(4)
H32 H 0.0141 0.3675 0.7977
H33 H 0.0064 0.4444 0.7632
C27 C 0.0734(5) 0.3791(3) 0.6839(4)
C28 C 0.0883(5) 0.3111(3) 0.6511(4)
C29 C 0.1072(5) 0.3229(3) 0.5653(4)
C30 C 0.1244(7) 0.2730(4) 0.4878(6)
H34 H 0.0836 0.2316 0.4905
H35 H 0.1113 0.2973 0.4349
C31 C 0.2225(8) 0.2548(5) 0.4956(6)
H36 H 0.2395 0.2240 0.4501
H37 H 0.2339 0.2314 0.5485
H38 H 0.2614 0.2966 0.4934
C32 C 0.0882(5) 0.2436(3) 0.6962(4)
C33 C 0.1119(7) 0.2375(3) 0.7801(5)
H39 H 0.1265 0.2778 0.8111
C34 C 0.1148(7) 0.1722(4) 0.8202(5)
H40 H 0.1346 0.1708 0.8767
C35 C 0.0789(6) 0.1181(3) 0.7026(5)
H41 H 0.0723 0.0768 0.6716
C36 C 0.0748(6) 0.1807(3) 0.6587(4)
H42 H 0.0622 0.1794 0.6008
C37 C 0.1088(5) 0.0057(3) 1.0460(4)
Cu4B Cu -0.07489(6) -0.02185(4) 1.14893(5)
Cu4_2 Cu 0.07489(6) 1.02185(4) 0.85107(5)
N6_2 N 0.1039(4) -0.0657(3) 0.7781(3)
N10B N -0.0543(4) 0.0063(3) 0.9021(3)
N11 N 0.4632(8) 0.2041(6) 0.4655(8)
C38 C 0.4755(8) 0.2578(6) 0.4920(8)
C39 C 0.4893(7) 0.3277(5) 0.5220(7)
H43 H 0.5145 0.3564 0.4776
H44 H 0.5343 0.3274 0.5690
H45 H 0.4285 0.3466 0.5398
loop_
_geom_bond_atom_site_label_1
_geom_bond_atom_site_label_2
_geom_bond_site_symmetry_1
_geom_bond_site_symmetry_2
S1 Cu4 1_555 1_555
Cu1 N1 1_555 1_555
Cu2 N2 1_555 1_555
Cu3 N5 1_555 1_555
Cu4 N9 1_555 1_555
N1 N2 1_555 1_555
N2 C5 1_555 1_555
N3 C10 1_555 1_555
N4 Cu2 1_555 1_555
N5 N4 1_555 1_555
N6 C22 1_555 1_555
N7 Cu3 1_555 1_555
N8 Cu1 1_555 1_555
N9 C34 1_555 1_555
N10 C37 1_555 1_555
N11 C38 1_555 1_555
C1 H1 1_555 1_555
H2 C1 1_555 1_555
H3 C1 1_555 1_555
C2 C1 1_555 1_555
H4 C2 1_555 1_555
H5 C2 1_555 1_555
C3 N1 1_555 1_555
C4 C3 1_555 1_555
C5 C4 1_555 1_555
C6 C5 1_555 1_555
H6 C6 1_555 1_555
H7 C6 1_555 1_555
C7 C6 1_555 1_555
H8 C7 1_555 1_555
H9 C7 1_555 1_555
H10 C7 1_555 1_555
C8 C4 1_555 1_555
C9 C8 1_555 1_555
H11 C9 1_555 1_555
C10 C9 1_555 1_555
H12 C10 1_555 1_555
C11 N3 1_555 1_555
H13 C11 1_555 1_555
C12 C8 1_555 1_555
H14 C12 1_555 1_555
C13 H15 1_555 1_555
H16 C13 1_555 1_555
H17 C13 1_555 1_555
C14 C13 1_555 1_555
H18 C14 1_555 1_555
H19 C14 1_555 1_555
C15 N4 1_555 1_555
C16 C15 1_555 1_555
C17 N5 1_555 1_555
C18 C17 1_555 1_555
H20 C18 1_555 1_555
H21 C18 1_555 1_555
C19 C18 1_555 1_555
H22 C19 1_555 1_555
H23 C19 1_555 1_555
H24 C19 1_555 1_555
C20 C16 1_555 1_555
C21 C20 1_555 1_555
H25 C21 1_555 1_555
C22 C21 1_555 1_555
H26 C22 1_555 1_555
C23 N6 1_555 1_555
H27 C23 1_555 1_555
C24 C20 1_555 1_555
H28 C24 1_555 1_555
C25 H29 1_555 1_555
H30 C25 1_555 1_555
H31 C25 1_555 1_555
C26 C25 1_555 1_555
H32 C26 1_555 1_555
H33 C26 1_555 1_555
C27 N7 1_555 1_555
C28 C27 1_555 1_555
C29 N8 1_555 1_555
C30 C29 1_555 1_555
H34 C30 1_555 1_555
H35 C30 1_555 1_555
C31 C30 1_555 1_555
H36 C31 1_555 1_555
H37 C31 1_555 1_555
H38 C31 1_555 1_555
C32 C28 1_555 1_555
C33 C32 1_555 1_555
H39 C33 1_555 1_555
C34 C33 1_555 1_555
H40 C34 1_555 1_555
C35 N9 1_555 1_555
H41 C35 1_555 1_555
C36 C32 1_555 1_555
H42 C36 1_555 1_555
C37 S1 1_555 1_555
C38 C39 1_555 1_555
C39 H43 1_555 1_555
H44 C39 1_555 1_555
H45 C39 1_555 1_555
Cu4B N10 1_555 1_555
Cu4_2 N6 1_555 1_555
N6_2 Cu4 1_555 1_555
N10B Cu4 1_555 1_555
N7 N8 1_555 1_555
C2 C3 1_555 1_555
C11 C12 1_555 1_555
C14 C15 1_555 1_555
C16 C17 1_555 1_555
C23 C24 1_555 1_555
C26 C27 1_555 1_555
C28 C29 1_555 1_555
C35 C36 1_555 1_555

#END
