
#######################################################################
#
#                 Cambridge Crystallographic Data Centre
#                                CCDC 
#
#######################################################################
#
# If this CIF has been generated from an entry in the Cambridge 
# Structural Database, then it will include bibliographic, chemical, 
# crystal, experimental, refinement or atomic coordinate data resulting 
# from the CCDC's data processing and validation procedures.
#
#######################################################################

data_ENEQOE
_symmetry_cell_setting           monoclinic
_symmetry_space_group_name_H-M   'P 21/n'
_symmetry_Int_Tables_number      14
_space_group_name_Hall           '-P 2yn'
loop_
_symmetry_equiv_pos_site_id
_symmetry_equiv_pos_as_xyz
1 x,y,z
2 1/2-x,1/2+y,1/2-z
3 -x,-y,-z
4 1/2+x,1/2-y,1/2+z
_cell_length_a                   13.0979(13)
_cell_length_b                   22.008(2)
_cell_length_c                   14.7518(14)
_cell_angle_alpha                90
_cell_angle_beta                 102.178(1)
_cell_angle_gamma                90
_cell_volume                     4156.64
loop_
_atom_site_label
_atom_site_type_symbol
_atom_site_fract_x
_atom_site_fract_y
_atom_site_fract_z
I1 I -0.03603(4) 0.87626(2) 0.36511(4)
I2 I -0.15142(5) 0.88267(2) 0.62037(4)
Cu1 Cu -0.32578(7) 0.38284(4) 0.33879(8)
Cu2 Cu -0.53843(7) 0.31161(4) 0.30481(7)
Cu3 Cu -0.55030(7) 0.45227(4) 0.30798(7)
Cu4 Cu -0.10770(8) -0.05978(4) 0.48181(7)
Cu5 Cu -0.18028(7) 0.83556(4) 0.45158(7)
N1 N -0.3188(4) 0.2981(2) 0.3568(4)
N2 N -0.4149(4) 0.2703(2) 0.3490(5)
N3 N -0.1557(4) 0.0244(2) 0.4583(4)
N4 N -0.6694(4) 0.3474(3) 0.2722(4)
N5 N -0.6757(4) 0.4099(3) 0.2782(4)
N6 N -1.1644(5) 0.3547(3) 0.1108(5)
N7 N -0.4263(4) 0.4948(2) 0.3465(4)
N8 N -0.3311(4) 0.4675(2) 0.3496(4)
N9 N -0.1805(5) 0.7436(2) 0.4521(4)
C1 C -0.0989(9) 0.3140(7) 0.4852(10)
H1 H -0.1089 0.2953 0.5414
H2 H -0.1402 0.3503 0.4738
H3 H -0.0265 0.3241 0.4911
C2 C -0.1313(6) 0.2715(4) 0.4072(7)
H4 H -0.0915 0.2343 0.4213
H5 H -0.1129 0.2891 0.3524
C3 C -0.2438(5) 0.2560(3) 0.3848(5)
C4 C -0.2905(5) 0.2003(3) 0.3929(5)
C5 C -0.3978(5) 0.2115(3) 0.3721(6)
C6 C -0.4929(7) 0.1708(4) 0.3749(8)
H6 H -0.4743 0.1408 0.4237
H7 H -0.5496 0.1953 0.3880
C7 C -0.5264(12) 0.1403(7) 0.2849(10)
H8 H -0.5349 0.1699 0.2361
H9 H -0.5917 0.1200 0.2831
H10 H -0.4746 0.1111 0.2769
C8 C -0.2398(5) 0.1410(3) 0.4183(5)
C9 C -0.1707(6) 0.1159(3) 0.3706(5)
H11 H -0.1505 0.1381 0.3237
C10 C -0.1303(5) 0.0578(3) 0.3911(5)
H12 H -0.0843 0.0420 0.3570
C11 C -0.2179(6) 0.0500(3) 0.5087(5)
H13 H -0.2319 0.0284 0.5589
C12 C -0.2618(6) 0.1060(3) 0.4906(5)
H14 H -0.3065 0.1209 0.5266
C13 C -0.7990(12) 0.2414(5) 0.1265(7)
H15 H -0.8574 0.2640 0.0926
H16 H -0.8142 0.1987 0.1208
H17 H -0.7383 0.2500 0.1018
C14 C -0.7791(7) 0.2590(3) 0.2248(6)
H18 H -0.7165 0.2384 0.2574
H19 H -0.8368 0.2450 0.2511
C15 C -0.7656(5) 0.3256(3) 0.2415(5)
C16 C -0.8359(5) 0.3740(3) 0.2267(5)
C17 C -0.7764(5) 0.4255(3) 0.2514(5)
C18 C -0.8081(6) 0.4903(3) 0.2596(6)
H20 H -0.8775 0.4963 0.2219
H21 H -0.7606 0.5165 0.2352
C19 C -0.8081(9) 0.5090(5) 0.3575(8)
H22 H -0.8580 0.4850 0.3809
H23 H -0.8265 0.5512 0.3587
H24 H -0.7397 0.5028 0.3955
C20 C -0.9485(5) 0.3687(3) 0.1881(5)
C21 C -1.0091(6) 0.3236(4) 0.2178(6)
H25 H -0.9789 0.2968 0.2646
C22 C -1.1135(6) 0.3188(4) 0.1775(6)
H26 H -1.1514 0.2881 0.1986
C23 C -1.1083(6) 0.3990(4) 0.0846(6)
H27 H -1.1417 0.4262 0.0398
C24 C -1.0012(6) 0.4070(4) 0.1208(6)
H28 H -0.9656 0.4385 0.0990
C25 C -0.5396(8) 0.5899(5) 0.4648(7)
H29 H -0.5588 0.5485 0.4732
H30 H -0.5995 0.6156 0.4611
H31 H -0.4858 0.6021 0.5164
C26 C -0.4993(6) 0.5953(3) 0.3758(6)
H32 H -0.5560 0.5865 0.3235
H33 H -0.4771 0.6368 0.3693
C27 C -0.4097(5) 0.5534(3) 0.3723(5)
C28 C -0.3033(6) 0.5647(3) 0.3904(5)
C29 C -0.2560(6) 0.5103(3) 0.3733(5)
C30 C -0.1442(6) 0.4960(4) 0.3823(7)
H34 H -0.1024 0.5301 0.4108
H35 H -0.1263 0.4609 0.4222
C31 C -0.1205(10) 0.4835(6) 0.2919(11)
H36 H -0.1696 0.4545 0.2594
H37 H -0.0510 0.4673 0.3002
H38 H -0.1251 0.5204 0.2567
C32 C -0.2543(5) 0.6242(3) 0.4152(5)
C33 C -0.2715(7) 0.6569(3) 0.4911(5)
H39 H -0.3095 0.6397 0.5311
C34 C -0.2324(7) 0.7147(3) 0.5070(6)
H40 H -0.2431 0.7349 0.5597
C35 C -0.1586(6) 0.7123(3) 0.3802(5)
H41 H -0.1191 0.7306 0.3423
C36 C -0.1939(5) 0.6531(3) 0.3614(5)
H42 H -0.1766 0.6324 0.3118
I1_2 I -0.03603(4) -0.12374(2) 0.36511(4)
I2_2 I -0.15142(5) -0.11733(2) 0.62037(4)
Cu4_2 Cu -0.10770(8) 0.94022(4) 0.48181(7)
Cu5A Cu -1.31972(7) 0.33556(4) 0.04842(7)
N6A N -0.3356(5) 0.8547(3) 0.3892(5)
loop_
_geom_bond_atom_site_label_1
_geom_bond_atom_site_label_2
_geom_bond_site_symmetry_1
_geom_bond_site_symmetry_2
I1 Cu5 1_555 1_555
I2 Cu5 1_555 1_555
Cu1 N1 1_555 1_555
Cu2 N2 1_555 1_555
Cu3 N5 1_555 1_555
Cu4 N3 1_555 1_555
Cu5 N9 1_555 1_555
N1 N2 1_555 1_555
N2 C5 1_555 1_555
N3 C10 1_555 1_555
N4 Cu2 1_555 1_555
N5 N4 1_555 1_555
N6 C22 1_555 1_555
N7 Cu3 1_555 1_555
N8 Cu1 1_555 1_555
N9 C34 1_555 1_555
C1 H1 1_555 1_555
H2 C1 1_555 1_555
H3 C1 1_555 1_555
C2 C1 1_555 1_555
H4 C2 1_555 1_555
H5 C2 1_555 1_555
C3 N1 1_555 1_555
C4 C3 1_555 1_555
C5 C4 1_555 1_555
C6 C5 1_555 1_555
H6 C6 1_555 1_555
H7 C6 1_555 1_555
C7 C6 1_555 1_555
H8 C7 1_555 1_555
H9 C7 1_555 1_555
H10 C7 1_555 1_555
C8 C4 1_555 1_555
C9 C8 1_555 1_555
H11 C9 1_555 1_555
C10 C9 1_555 1_555
H12 C10 1_555 1_555
C11 N3 1_555 1_555
H13 C11 1_555 1_555
C12 C8 1_555 1_555
H14 C12 1_555 1_555
C13 H15 1_555 1_555
H16 C13 1_555 1_555
H17 C13 1_555 1_555
C14 C13 1_555 1_555
H18 C14 1_555 1_555
H19 C14 1_555 1_555
C15 N4 1_555 1_555
C16 C15 1_555 1_555
C17 N5 1_555 1_555
C18 C17 1_555 1_555
H20 C18 1_555 1_555
H21 C18 1_555 1_555
C19 C18 1_555 1_555
H22 C19 1_555 1_555
H23 C19 1_555 1_555
H24 C19 1_555 1_555
C20 C16 1_555 1_555
C21 C20 1_555 1_555
H25 C21 1_555 1_555
C22 C21 1_555 1_555
H26 C22 1_555 1_555
C23 N6 1_555 1_555
H27 C23 1_555 1_555
C24 C20 1_555 1_555
H28 C24 1_555 1_555
C25 H29 1_555 1_555
H30 C25 1_555 1_555
H31 C25 1_555 1_555
C26 C25 1_555 1_555
H32 C26 1_555 1_555
H33 C26 1_555 1_555
C27 N7 1_555 1_555
C28 C27 1_555 1_555
C29 N8 1_555 1_555
C30 C29 1_555 1_555
H34 C30 1_555 1_555
H35 C30 1_555 1_555
C31 C30 1_555 1_555
H36 C31 1_555 1_555
H37 C31 1_555 1_555
H38 C31 1_555 1_555
C32 C28 1_555 1_555
C33 C32 1_555 1_555
H39 C33 1_555 1_555
C34 C33 1_555 1_555
H40 C34 1_555 1_555
C35 N9 1_555 1_555
H41 C35 1_555 1_555
C36 C32 1_555 1_555
H42 C36 1_555 1_555
I1_2 Cu4 1_555 1_555
I2_2 Cu4 1_555 1_555
Cu4_2 I1 1_555 1_555
Cu5A N6 1_555 1_555
N6A Cu5 1_555 1_555
I2 Cu4_2 1_555 1_555
N7 N8 1_555 1_555
C2 C3 1_555 1_555
C11 C12 1_555 1_555
C14 C15 1_555 1_555
C16 C17 1_555 1_555
C23 C24 1_555 1_555
C26 C27 1_555 1_555
C28 C29 1_555 1_555
C35 C36 1_555 1_555

#END
