
#######################################################################
#
#                 Cambridge Crystallographic Data Centre
#                                CCDC 
#
#######################################################################
#
# If this CIF has been generated from an entry in the Cambridge 
# Structural Database, then it will include bibliographic, chemical, 
# crystal, experimental, refinement or atomic coordinate data resulting 
# from the CCDC's data processing and validation procedures.
#
#######################################################################

data_ENESIA
_symmetry_cell_setting           monoclinic
_symmetry_space_group_name_H-M   'C 2/m'
_symmetry_Int_Tables_number      12
_space_group_name_Hall           '-C 2y'
loop_
_symmetry_equiv_pos_site_id
_symmetry_equiv_pos_as_xyz
1 x,y,z
2 -x,y,-z
3 1/2+x,1/2+y,z
4 1/2-x,1/2+y,-z
5 -x,-y,-z
6 x,-y,z
7 1/2-x,1/2-y,-z
8 1/2+x,1/2-y,z
_cell_length_a                   7.073(2)
_cell_length_b                   12.245(4)
_cell_length_c                   7.458(3)
_cell_angle_alpha                90
_cell_angle_beta                 118.475(6)
_cell_angle_gamma                90
_cell_volume                     567.788
loop_
_atom_site_label
_atom_site_type_symbol
_atom_site_fract_x
_atom_site_fract_y
_atom_site_fract_z
Fe1 Fe 0.00000 0.00000 0.50000
Cu1 Cu 0.25000 0.25000 0.00000
C1 C 0.2050(3) 0.14311 0.2879(5)
C2 C 0.2369(3) 0.05595 0.1675(5)
N1 N 0.2757(3) 0.09027 0.0158(5)
N2 N 0.2790(3) 0.00000 -0.0876(5)
O1 O 0.2247(7) 0.24102(1) 0.2586(5)
O2 O 0.1681(6) 0.10798(1) 0.4293(8)
Cu1C Cu 0.25000 -0.25000 0.00000
Cu1B Cu -0.25000 -0.25000 1.00000
Cu1A Cu -0.25000 0.25000 1.00000
C1E C 0.2050(3) -0.14311 0.2879(5)
C1A C -0.2050(3) 0.14311 0.7121(5)
C1D C -0.2050(3) -0.14311 0.7121(5)
C2E C 0.2369(3) -0.05595 0.1675(5)
C2A C -0.2369(3) 0.05595 0.8325(5)
C2D C -0.2369(3) -0.05595 0.8325(5)
N1E N 0.2757(3) -0.09027 0.0158(5)
N1A N -0.2757(3) 0.09027 0.9842(5)
N1D N -0.2757(3) -0.09027 0.9842(5)
N1C N 0.2243(3) -0.40973 -0.0158(5)
N1F N 0.2243(3) 0.40973 -0.0158(5)
N2A N -0.2790(3) 0.00000 1.0876(5)
O1E O 0.2247(7) -0.24102(1) 0.2586(5)
O1A O -0.2247(7) 0.24102(1) 0.7414(5)
O1D O -0.2247(7) -0.24102(1) 0.7414(5)
O1C O 0.2753(7) -0.25898(1) -0.2586(5)
O1F O 0.2753(7) 0.25898(1) -0.2586(5)
O2E O 0.1681(6) -0.10798(1) 0.4293(8)
O2A O -0.1681(6) 0.10798(1) 0.5707(8)
O2D O -0.1681(6) -0.10798(1) 0.5707(8)
loop_
_geom_bond_atom_site_label_1
_geom_bond_atom_site_label_2
_geom_bond_site_symmetry_1
_geom_bond_site_symmetry_2
Fe1 O2 1_555 1_555
Cu1 N1 1_555 1_555
C1 C2 1_555 1_555
C2 N1 1_555 1_555
N1 N2 1_555 1_555
N2 N1E 1_555 1_555
O1 Cu1 1_555 1_555
O2 C1 1_555 1_555
Cu1C N1E 1_555 1_555
Cu1B N1D 1_555 1_555
Cu1A N1A 1_555 1_555
C1E C2E 1_555 1_555
C1A C2A 1_555 1_555
C1D C2D 1_555 1_555
C2E C2 1_555 1_555
C2A C2D 1_555 1_555
C2D N1D 1_555 1_555
N1E C2E 1_555 1_555
N1A C2A 1_555 1_555
N1D N2A 1_555 1_555
N1C Cu1C 1_555 1_555
N1F Cu1 1_555 1_555
N2A N1A 1_555 1_555
O1E Cu1C 1_555 1_555
O1A Cu1A 1_555 1_555
O1D Cu1B 1_555 1_555
O1C Cu1C 1_555 1_555
O1F Cu1 1_555 1_555
O2E Fe1 1_555 1_555
O2A Fe1 1_555 1_555
O2D Fe1 1_555 1_555
C1 O1 1_555 1_555
C1E O1E 1_555 1_555
C1E O2E 1_555 1_555
C1A O1A 1_555 1_555
C1A O2A 1_555 1_555
C1D O1D 1_555 1_555
C1D O2D 1_555 1_555

#END
