
#######################################################################
#
#                 Cambridge Crystallographic Data Centre
#                                CCDC 
#
#######################################################################
#
# If this CIF has been generated from an entry in the Cambridge 
# Structural Database, then it will include bibliographic, chemical, 
# crystal, experimental, refinement or atomic coordinate data resulting 
# from the CCDC's data processing and validation procedures.
#
#######################################################################

data_ENETIA
_symmetry_cell_setting           orthorhombic
_symmetry_space_group_name_H-M   'P n a m'
_symmetry_Int_Tables_number      62
_space_group_name_Hall           '-P 2c 2n'
loop_
_symmetry_equiv_pos_site_id
_symmetry_equiv_pos_as_xyz
1 x,y,z
2 -x,-y,1/2+z
3 1/2+x,1/2-y,1/2-z
4 1/2-x,1/2+y,-z
5 -x,-y,-z
6 x,y,1/2-z
7 1/2-x,1/2+y,1/2+z
8 1/2+x,1/2-y,z
_cell_length_a                   9.993(2)
_cell_length_b                   13.285(3)
_cell_length_c                   16.040(3)
_cell_angle_alpha                90
_cell_angle_beta                 90
_cell_angle_gamma                90
_cell_volume                     2129.42
loop_
_atom_site_label
_atom_site_type_symbol
_atom_site_fract_x
_atom_site_fract_y
_atom_site_fract_z
Mn1 Mn 0.9769(1) 0.15782(8) 0.25000
O1 O 0.7833(5) 0.2280(4) 0.25000
O2 O 0.5638(5) 0.2006(4) 0.25000
O3 O 1.1744(5) 0.0884(4) 0.25000
N1 N 0.8422(6) 0.0223(4) 0.25000
N2 N 0.9332(4) 0.1221(4) 0.1083(3)
C1 C 0.9380(6) 0.1833(7) 0.0421(4)
C2 C 0.8792(8) 0.1596(9) -0.0329(5)
C3 C 0.8150(8) 0.0714(10) -0.0392(5)
C4 C 0.8113(7) 0.0048(6) 0.0257(5)
C5 C 0.8711(6) 0.0329(5) 0.0998(4)
C6 C 0.8709(6) -0.0338(4) 0.1738(4)
C7 C 0.7017(7) 0.0587(6) 0.25000
C8 C 0.6842(6) 0.1714(6) 0.25000
C9 C 1.0099(8) 0.2819(7) 0.0534(5)
H1 H 0.88399 0.20348 -0.07791
H2 H 0.77199 0.05514 -0.08878
H3 H 0.76983 -0.05750 0.02016
H4 H 0.80403 -0.08602 0.16646
H5 H 0.95754 -0.06618 0.17892
H6 H 0.6477(62) 0.0355(46) 0.2041(35)
H7 H 1.04422 0.28616 0.10922
H8 H 0.94882 0.33645 0.04376
H9 H 1.08267 0.28607 0.01447
C6E C 0.8709(6) -0.0338(4) 0.3262(4)
C5E C 0.8711(6) 0.0329(5) 0.4002(4)
N2E N 0.9332(4) 0.1221(4) 0.3917(3)
C1E C 0.9380(6) 0.1833(7) 0.4579(4)
C2E C 0.8792(8) 0.1596(9) 0.5329(5)
C3E C 0.8150(8) 0.0714(10) 0.5392(5)
C4E C 0.8113(7) 0.0048(6) 0.4743(5)
H3E H 0.76983 -0.05750 0.47984
H2E H 0.77199 0.05514 0.58878
H1E H 0.88399 0.20348 0.57791
C9E C 1.0099(8) 0.2819(7) 0.4466(5)
H7E H 1.04422 0.28616 0.39078
H8E H 0.94882 0.33645 0.45624
H9E H 1.08267 0.28607 0.48553
H4E H 0.80403 -0.08602 0.33354
H5E H 0.95754 -0.06618 0.32108
H6E H 0.6477(62) 0.0355(46) 0.2959(35)
O2G O 1.0638(5) 0.2994(4) 0.25000
Mn1G Mn 0.4769(1) 0.34218(8) 0.25000
P1 P 1.4122(2) -0.1481(2) 0.25000
F1 F 1.2569(5) -0.1140(5) 0.25000
F2 F 1.3749(5) -0.2241(4) 0.1788(3)
F3 F 1.5615(6) -0.1697(7) 0.25000
F4 F 1.4403(5) -0.0667(4) 0.3179(3)
F2E F 1.3749(5) -0.2241(4) 0.3212(3)
F4E F 1.4403(5) -0.0667(4) 0.1821(3)
loop_
_geom_bond_atom_site_label_1
_geom_bond_atom_site_label_2
_geom_bond_site_symmetry_1
_geom_bond_site_symmetry_2
Mn1 O1 1_555 1_555
O1 C8 1_555 1_555
O2 C8 1_555 1_555
O3 Mn1 1_555 1_555
N1 Mn1 1_555 1_555
N2 Mn1 1_555 1_555
C1 N2 1_555 1_555
C2 C1 1_555 1_555
C3 C2 1_555 1_555
C4 C3 1_555 1_555
C5 N2 1_555 1_555
C6 N1 1_555 1_555
C7 N1 1_555 1_555
C8 C7 1_555 1_555
C9 C1 1_555 1_555
H1 C2 1_555 1_555
H2 C3 1_555 1_555
H3 C4 1_555 1_555
H4 C6 1_555 1_555
H5 C6 1_555 1_555
H6 C7 1_555 1_555
H7 C9 1_555 1_555
H8 C9 1_555 1_555
H9 C9 1_555 1_555
P1 F1 1_555 1_555
F2 P1 1_555 1_555
F3 P1 1_555 1_555
F4 P1 1_555 1_555
C6E N1 1_555 1_555
C5E C6E 1_555 1_555
N2E Mn1 1_555 1_555
C1E N2E 1_555 1_555
C2E C1E 1_555 1_555
C3E C2E 1_555 1_555
C4E C5E 1_555 1_555
H3E C4E 1_555 1_555
H2E C3E 1_555 1_555
H1E C2E 1_555 1_555
C9E C1E 1_555 1_555
H7E C9E 1_555 1_555
H8E C9E 1_555 1_555
H9E C9E 1_555 1_555
H4E C6E 1_555 1_555
H5E C6E 1_555 1_555
H6E C7 1_555 1_555
O2G Mn1 1_555 1_555
Mn1G O2 1_555 1_555
F2E P1 1_555 1_555
F4E P1 1_555 1_555
C4 C5 1_555 1_555
C5 C6 1_555 1_555
C5E N2E 1_555 1_555
C3E C4E 1_555 1_555

#END
