
#######################################################################
#
#                 Cambridge Crystallographic Data Centre
#                                CCDC 
#
#######################################################################
#
# If this CIF has been generated from an entry in the Cambridge 
# Structural Database, then it will include bibliographic, chemical, 
# crystal, experimental, refinement or atomic coordinate data resulting 
# from the CCDC's data processing and validation procedures.
#
#######################################################################

data_ENEVEZ
_symmetry_cell_setting           tetragonal
_symmetry_space_group_name_H-M   'I 4/m'
_symmetry_Int_Tables_number      87
_space_group_name_Hall           '-I 4'
loop_
_symmetry_equiv_pos_site_id
_symmetry_equiv_pos_as_xyz
1 x,y,z
2 -y,x,z
3 -x,-y,z
4 y,-x,z
5 1/2+x,1/2+y,1/2+z
6 1/2-y,1/2+x,1/2+z
7 1/2-x,1/2-y,1/2+z
8 1/2+y,1/2-x,1/2+z
9 -x,-y,-z
10 y,-x,-z
11 x,y,-z
12 -y,x,-z
13 1/2-x,1/2-y,1/2-z
14 1/2+y,1/2-x,1/2-z
15 1/2+x,1/2+y,1/2-z
16 1/2-y,1/2+x,1/2-z
_cell_length_a                   18.9524(8)
_cell_length_b                   18.9524(8)
_cell_length_c                   17.4748(7)
_cell_angle_alpha                90
_cell_angle_beta                 90
_cell_angle_gamma                90
_cell_volume                     6276.83
loop_
_atom_site_label
_atom_site_type_symbol
_atom_site_fract_x
_atom_site_fract_y
_atom_site_fract_z
P1 P 0.0000 0.0000 0.0000
W1 W -0.16677(6) 0.08592(7) 0.0000
W2 W -0.03991(6) 0.12622(5) -0.14367(7)
O1 O -0.0602(14) 0.0303(14) -0.0515(16)
O2 O -0.1802(12) 0.0149(11) -0.0748(12)
O3 O -0.2413(17) 0.1279(16) 0.0000
O4 O -0.1166(12) 0.1368(11) -0.0740(13)
O5 O 0.0456(12) 0.0849(12) -0.1821(14)
O6 O -0.0575(13) 0.1900(13) -0.2107(15)
W1C W 0.08592(7) 0.16677(6) 0.0000
W1A W -0.08592(7) -0.16677(6) 0.0000
W1B W 0.16677(6) -0.08592(7) 0.0000
W2C W 0.12622(5) 0.03991(6) -0.14367(7)
W2A W -0.12622(5) -0.03991(6) -0.14367(7)
W2J W -0.03991(6) 0.12622(5) 0.14367(7)
W2B W 0.03991(6) -0.12622(5) -0.14367(7)
W2K W -0.12622(5) -0.03991(6) 0.14367(7)
W2H W 0.03991(6) -0.12622(5) 0.14367(7)
W2I W 0.12622(5) 0.03991(6) 0.14367(7)
O1C O 0.0303(14) 0.0602(14) -0.0515(16)
O1A O -0.0303(14) -0.0602(14) -0.0515(16)
O1J O -0.0602(14) 0.0303(14) 0.0515(16)
O1B O 0.0602(14) -0.0303(14) -0.0515(16)
O1K O -0.0303(14) -0.0602(14) 0.0515(16)
O1H O 0.0602(14) -0.0303(14) 0.0515(16)
O1I O 0.0303(14) 0.0602(14) 0.0515(16)
O2J O -0.1802(12) 0.0149(11) 0.0748(12)
O2C O 0.0149(11) 0.1802(12) -0.0748(12)
O2I O 0.0149(11) 0.1802(12) 0.0748(12)
O2A O -0.0149(11) -0.1802(12) -0.0748(12)
O2K O -0.0149(11) -0.1802(12) 0.0748(12)
O2B O 0.1802(12) -0.0149(11) -0.0748(12)
O2H O 0.1802(12) -0.0149(11) 0.0748(12)
O3C O 0.1279(16) 0.2413(17) 0.0000
O3A O -0.1279(16) -0.2413(17) 0.0000
O3B O 0.2413(17) -0.1279(16) 0.0000
O4J O -0.1166(12) 0.1368(11) 0.0740(13)
O4C O 0.1368(11) 0.1166(12) -0.0740(13)
O4I O 0.1368(11) 0.1166(12) 0.0740(13)
O4A O -0.1368(11) -0.1166(12) -0.0740(13)
O4K O -0.1368(11) -0.1166(12) 0.0740(13)
O4B O 0.1166(12) -0.1368(11) -0.0740(13)
O4H O 0.1166(12) -0.1368(11) 0.0740(13)
O5A O -0.0849(12) 0.0456(12) -0.1821(14)
O5C O 0.0849(12) -0.0456(12) -0.1821(14)
O5B O -0.0456(12) -0.0849(12) -0.1821(14)
O5J O 0.0456(12) 0.0849(12) 0.1821(14)
O5K O -0.0849(12) 0.0456(12) 0.1821(14)
O5H O -0.0456(12) -0.0849(12) 0.1821(14)
O5I O 0.0849(12) -0.0456(12) 0.1821(14)
O6C O 0.1900(13) 0.0575(13) -0.2107(15)
O6A O -0.1900(13) -0.0575(13) -0.2107(15)
O6J O -0.0575(13) 0.1900(13) 0.2107(15)
O6B O 0.0575(13) -0.1900(13) -0.2107(15)
O6K O -0.1900(13) -0.0575(13) 0.2107(15)
O6H O 0.0575(13) -0.1900(13) 0.2107(15)
O6I O 0.1900(13) 0.0575(13) 0.2107(15)
O9 O 0.221(3) 0.357(3) 0.0000
O10 O 0.109(3) 0.715(3) 0.0000
O11 O 0.226(4) 0.491(4) 0.0000
O12 O 0.0000 0.0000 0.332(6)
Cu1 Cu 0.5000 0.0000 -0.5000
O7 O 0.3964(13) -0.0749(12) -0.5000
O8 O 0.4109(19) 0.1934(19) -0.180(2)
N1 N 0.4567(10) 0.0594(9) -0.4171(11)
C1 C 0.4421(18) 0.1624(18) -0.3444(18)
H1 H 0.4562 0.2101 -0.3369
C2 C 0.4740(17) 0.1241(15) -0.4010(18)
H2 H 0.5105 0.1458 -0.4300
C3 C 0.4108(18) 0.0316(19) -0.371(2)
H3 H 0.4005 -0.0171 -0.3765
C4 C 0.3745(19) 0.0691(18) -0.311(2)
H4 H 0.3389 0.0477 -0.2807
C5 C 0.3945(13) 0.1369(13) -0.3013(14)
C6 C 0.3612(17) 0.1758(17) -0.2335(18)
N2 N 0.299(2) 0.197(2) -0.236(2)
C7 C 0.251(3) 0.197(3) -0.307(3)
H5 H 0.2797 0.1811 -0.3516
H6 H 0.2133 0.1618 -0.2994
C8 C 0.2764(16) 0.2464(16) -0.1760(17)
H7 H 0.3183 0.2572 -0.1442
H8 H 0.2428 0.2207 -0.1428
Cu1D Cu 0.0000 0.5000 0.0000
Cu1D_2 Cu 1.0000 -0.5000 0.0000
O7B O 0.6036(13) 0.0749(12) -0.5000
O8L O 0.0891(19) 0.3066(19) -0.320(2)
O8B O 0.5891(19) -0.1934(19) -0.180(2)
O8N O 0.9109(19) -0.3066(19) -0.320(2)
N1L N 0.0433(10) 0.4406(9) -0.0829(11)
N1B N 0.5433(10) -0.0594(9) -0.4171(11)
N1N N 0.9567(10) -0.4406(9) -0.0829(11)
N1H N 0.5433(10) -0.0594(9) -0.5829(11)
N1J N 0.4567(10) 0.0594(9) -0.5829(11)
C1L C 0.0579(18) 0.3376(18) -0.1556(18)
C1B C 0.5579(18) -0.1624(18) -0.3444(18)
C1N C 0.9421(18) -0.3376(18) -0.1556(18)
H1L H 0.0438 0.2899 -0.1631
H1B H 0.5438 -0.2101 -0.3369
H1N H 0.9562 -0.2899 -0.1631
C2L C 0.0260(17) 0.3759(15) -0.0990(18)
C2B C 0.5260(17) -0.1241(15) -0.4010(18)
C2N C 0.9740(17) -0.3759(15) -0.0990(18)
H2L H -0.0105 0.3542 -0.0700
H2B H 0.4895 -0.1458 -0.4300
H2N H 1.0105 -0.3542 -0.0700
C3L C 0.0892(18) 0.4684(19) -0.129(2)
C3B C 0.5892(18) -0.0316(19) -0.371(2)
C3N C 0.9108(18) -0.4684(19) -0.129(2)
H3L H 0.0995 0.5171 -0.1235
H3B H 0.5995 0.0171 -0.3765
H3N H 0.9005 -0.5171 -0.1235
C4L C 0.1255(19) 0.4309(18) -0.189(2)
C4B C 0.6255(19) -0.0691(18) -0.311(2)
C4N C 0.8745(19) -0.4309(18) -0.189(2)
H4L H 0.1611 0.4523 -0.2193
H4B H 0.6611 -0.0477 -0.2807
H4N H 0.8389 -0.4523 -0.2193
C5L C 0.1055(13) 0.3631(13) -0.1987(14)
C5B C 0.6055(13) -0.1369(13) -0.3013(14)
C5N C 0.8945(13) -0.3631(13) -0.1987(14)
C6L C 0.1388(17) 0.3242(17) -0.2665(18)
C6B C 0.6388(17) -0.1758(17) -0.2335(18)
C6N C 0.8612(17) -0.3242(17) -0.2665(18)
N2L N 0.201(2) 0.303(2) -0.264(2)
N2B N 0.701(2) -0.197(2) -0.236(2)
N2N N 0.799(2) -0.303(2) -0.264(2)
C7L C 0.249(3) 0.303(3) -0.193(3)
C7B C 0.749(3) -0.197(3) -0.307(3)
C7N C 0.751(3) -0.303(3) -0.193(3)
H5L H 0.2203 0.3189 -0.1484
H5B H 0.7203 -0.1811 -0.3516
H5N H 0.7797 -0.3189 -0.1484
H6L H 0.2867 0.3382 -0.2006
H6B H 0.7867 -0.1618 -0.2994
H6N H 0.7133 -0.3382 -0.2006
C8L C 0.2236(16) 0.2536(16) -0.3240(17)
C8B C 0.7236(16) -0.2464(16) -0.1760(17)
C8N C 0.7764(16) -0.2536(16) -0.3240(17)
H7L H 0.1817 0.2428 -0.3558
H7B H 0.6817 -0.2572 -0.1442
H7N H 0.8183 -0.2428 -0.3558
H8L H 0.2572 0.2793 -0.3572
H8B H 0.7572 -0.2207 -0.1428
H8N H 0.7428 -0.2793 -0.3572
C9? C 0.211(4) 0.256(4) 0.180(4)
H9? H 0.1882 0.2136 0.1594
H10? H 0.1999 0.2955 0.1448
N3? N 0.180(4) 0.271(4) 0.250(4)
O13? O 0.0000 0.0000 0.424(8)
O14? O 0.142(3) 0.358(3) 0.334(4)
O15? O -0.001(4) 0.255(4) 0.0000
loop_
_geom_bond_atom_site_label_1
_geom_bond_atom_site_label_2
_geom_bond_site_symmetry_1
_geom_bond_site_symmetry_2
Cu1 O7 1_555 1_555
P1 O1 1_555 1_555
W1 O1 1_555 1_555
W2 O1 1_555 1_555
O1 W2A 1_555 1_555
O2 W1 1_555 1_555
O3 W1 1_555 1_555
O4 W1 1_555 1_555
O5 W2 1_555 1_555
O6 W2 1_555 1_555
O8 C6 1_555 1_555
N1 Cu1 1_555 1_555
C1 H1 1_555 1_555
C2 N1 1_555 1_555
H2 C2 1_555 1_555
C3 N1 1_555 1_555
H3 C3 1_555 1_555
C4 C3 1_555 1_555
H4 C4 1_555 1_555
C5 C1 1_555 1_555
C6 C5 1_555 1_555
N2 C6 1_555 1_555
C7 N2 1_555 1_555
H5 C7 1_555 1_555
H6 C7 1_555 1_555
C8 N2 1_555 1_555
H7 C8 1_555 1_555
H8 C8 1_555 1_555
Cu1D N1L 1_555 1_555
Cu1D_2 N1N 1_555 1_555
W1C O1C 1_555 1_555
W1A O1A 1_555 1_555
W1B O1B 1_555 1_555
W2C O5 1_555 1_555
W2A O2 1_555 1_555
W2J O1J 1_555 1_555
W2B O1A 1_555 1_555
W2K O1J 1_555 1_555
W2H O1K 1_555 1_555
W2I O1H 1_555 1_555
O1C P1 1_555 1_555
O1A P1 1_555 1_555
O1J P1 1_555 1_555
O1B P1 1_555 1_555
O1K P1 1_555 1_555
O1H P1 1_555 1_555
O1I P1 1_555 1_555
O2J W1 1_555 1_555
O2C W2 1_555 1_555
O2I W1C 1_555 1_555
O2A W1A 1_555 1_555
O2K W1A 1_555 1_555
O2B W1B 1_555 1_555
O2H W1B 1_555 1_555
O3C W1C 1_555 1_555
O3A W1A 1_555 1_555
O3B W1B 1_555 1_555
O4J W1 1_555 1_555
O4C W1C 1_555 1_555
O4I W1C 1_555 1_555
O4A W1A 1_555 1_555
O4K W1A 1_555 1_555
O4B W1B 1_555 1_555
O4H W1B 1_555 1_555
O5A W2 1_555 1_555
O5C W2C 1_555 1_555
O5B W2A 1_555 1_555
O5J W2J 1_555 1_555
O5K W2J 1_555 1_555
O5H W2K 1_555 1_555
O5I W2H 1_555 1_555
O6C W2C 1_555 1_555
O6A W2A 1_555 1_555
O6J W2J 1_555 1_555
O6B W2B 1_555 1_555
O6K W2K 1_555 1_555
O6H W2H 1_555 1_555
O6I W2I 1_555 1_555
O7B Cu1 1_555 1_555
O8L C6L 1_555 1_555
O8B C6B 1_555 1_555
O8N C6N 1_555 1_555
N1L C2L 1_555 1_555
N1B Cu1 1_555 1_555
N1N C2N 1_555 1_555
N1H Cu1 1_555 1_555
N1J Cu1 1_555 1_555
C1L H1L 1_555 1_555
C1B H1B 1_555 1_555
C1N H1N 1_555 1_555
C2L C1L 1_555 1_555
C2B N1B 1_555 1_555
C2N C1N 1_555 1_555
H2L C2L 1_555 1_555
H2B C2B 1_555 1_555
H2N C2N 1_555 1_555
C3L N1L 1_555 1_555
C3B N1B 1_555 1_555
C3N N1N 1_555 1_555
H3L C3L 1_555 1_555
H3B C3B 1_555 1_555
H3N C3N 1_555 1_555
C4L C3L 1_555 1_555
C4B C3B 1_555 1_555
C4N C3N 1_555 1_555
H4L C4L 1_555 1_555
H4B C4B 1_555 1_555
H4N C4N 1_555 1_555
C5L C1L 1_555 1_555
C5B C1B 1_555 1_555
C5N C1N 1_555 1_555
C6L C5L 1_555 1_555
C6B C5B 1_555 1_555
C6N C5N 1_555 1_555
N2L C6L 1_555 1_555
N2B C6B 1_555 1_555
N2N C6N 1_555 1_555
C7L C8 1_555 1_555
C7B N2B 1_555 1_555
C7N N2N 1_555 1_555
H5L C7L 1_555 1_555
H5B C7B 1_555 1_555
H5N C7N 1_555 1_555
H6L C7L 1_555 1_555
H6B C7B 1_555 1_555
H6N C7N 1_555 1_555
C8L C7 1_555 1_555
C8B N2B 1_555 1_555
C8N N2N 1_555 1_555
H7L C8L 1_555 1_555
H7B C8B 1_555 1_555
H7N C8N 1_555 1_555
H8L C8L 1_555 1_555
H8B C8B 1_555 1_555
H8N C8N 1_555 1_555
W1 O1J 1_555 1_555
W2 O4 1_555 1_555
W2 O1C 1_555 1_555
O1 O1C 1_555 1_555
O1 O1A 1_555 1_555
O1 O1J 1_555 1_555
C1 C2 1_555 1_555
C4 C5 1_555 1_555
W1C O1I 1_555 1_555
W1C O2C 1_555 1_555
W1A O1K 1_555 1_555
W1B O1H 1_555 1_555
W2C O1C 1_555 1_555
W2C O1B 1_555 1_555
W2C O2B 1_555 1_555
W2C O4C 1_555 1_555
W2A O1A 1_555 1_555
W2A O4A 1_555 1_555
W2A O5A 1_555 1_555
W2J O1I 1_555 1_555
W2J O2I 1_555 1_555
W2J O4J 1_555 1_555
W2B O1B 1_555 1_555
W2B O2A 1_555 1_555
W2B O4B 1_555 1_555
W2B O5C 1_555 1_555
W2B O5B 1_555 1_555
W2K O1K 1_555 1_555
W2K O2J 1_555 1_555
W2K O4K 1_555 1_555
W2K O5K 1_555 1_555
W2H O1H 1_555 1_555
W2H O2K 1_555 1_555
W2H O4H 1_555 1_555
W2H O5H 1_555 1_555
W2I O1I 1_555 1_555
W2I O2H 1_555 1_555
W2I O4I 1_555 1_555
W2I O5J 1_555 1_555
W2I O5I 1_555 1_555
O1C O1B 1_555 1_555
O1C O1I 1_555 1_555
O1A O1B 1_555 1_555
O1A O1K 1_555 1_555
O1J O1K 1_555 1_555
O1J O1I 1_555 1_555
O1B O1H 1_555 1_555
O1K O1H 1_555 1_555
O1H O1I 1_555 1_555
C1B C2B 1_555 1_555
C4L C5L 1_555 1_555
C4B C5B 1_555 1_555
C4N C5N 1_555 1_555
N2L C7L 1_555 1_555
N2L C8L 1_555 1_555
C7B C8N 1_555 1_555
C7N C8B 1_555 1_555

#END
