
#######################################################################
#
#                 Cambridge Crystallographic Data Centre
#                                CCDC 
#
#######################################################################
#
# If this CIF has been generated from an entry in the Cambridge 
# Structural Database, then it will include bibliographic, chemical, 
# crystal, experimental, refinement or atomic coordinate data resulting 
# from the CCDC's data processing and validation procedures.
#
#######################################################################

data_ENEXOL
_symmetry_cell_setting           monoclinic
_symmetry_space_group_name_H-M   'C 2/c'
_symmetry_Int_Tables_number      15
_space_group_name_Hall           '-C 2yn'
loop_
_symmetry_equiv_pos_site_id
_symmetry_equiv_pos_as_xyz
1 x,y,z
2 -x,y,1/2-z
3 1/2+x,1/2+y,z
4 1/2-x,1/2+y,1/2-z
5 -x,-y,-z
6 x,-y,1/2+z
7 1/2-x,1/2-y,-z
8 1/2+x,1/2-y,1/2+z
_cell_length_a                   22.1808(8)
_cell_length_b                   11.7623(5)
_cell_length_c                   15.1987(6)
_cell_angle_alpha                90
_cell_angle_beta                 108.2100(10)
_cell_angle_gamma                90
_cell_volume                     3766.71
loop_
_atom_site_label
_atom_site_type_symbol
_atom_site_fract_x
_atom_site_fract_y
_atom_site_fract_z
C1 C 0.44399(12) -0.0799(2) 0.31426(18)
H1 H 0.4842 -0.0502 0.3223
C2 C 0.41670(13) -0.1679(3) 0.25253(19)
H2 H 0.4350 -0.2060 0.2137
C3 C 0.35788(12) -0.1866(2) 0.26063(18)
H3 H 0.3283 -0.2399 0.2281
C4 C 0.35041(11) -0.1097(2) 0.32761(17)
C5 C 0.29630(11) -0.0928(2) 0.35537(17)
C6 C 0.28991(12) -0.0142(2) 0.41939(18)
C7 C 0.23760(13) 0.0002(3) 0.4543(2)
H4 H 0.2000 -0.0411 0.4368
C8 C 0.25303(15) 0.0853(3) 0.5175(2)
H5 H 0.2283 0.1131 0.5521
C9 C 0.31374(14) 0.1234(3) 0.5205(2)
H6 H 0.3352 0.1825 0.5580
C10 C 0.23943(11) -0.1623(2) 0.30522(17)
C11 C 0.23486(12) -0.2771(2) 0.32010(17)
H7 H 0.2659 -0.3139 0.3672
C12 C 0.18348(12) -0.3368(2) 0.26398(18)
H8 H 0.1806 -0.4139 0.2753
C13 C 0.14158(12) -0.1783(3) 0.18266(19)
H9 H 0.1095 -0.1434 0.1359
C14 C 0.19064(13) -0.1113(2) 0.23608(19)
H10 H 0.1909 -0.0334 0.2258
C15 C 0.59536(13) 0.1904(3) 0.4122(2)
H11 H 0.5999 0.1154 0.3901
H12 H 0.6330 0.2101 0.4615
H13 H 0.5891 0.2440 0.3624
C16 C 0.53930(11) 0.1932(2) 0.44717(18)
C17 C 0.53245(12) 0.2822(2) 0.50620(17)
C18 C 0.48084(12) 0.2904(2) 0.54212(17)
C19 C 0.47914(14) 0.3860(2) 0.6066(2)
H14 H 0.4379 0.3894 0.6146
H15 H 0.4878 0.4565 0.5810
H16 H 0.5106 0.3733 0.6656
C20 C 0.58214(13) 0.3646(2) 0.5356(2)
N1 N 0.40521(9) -0.04417(18) 0.36000(14)
N2 N 0.33693(10) 0.06498(19) 0.46339(14)
N3 N 0.13765(10) -0.2899(2) 0.19433(15)
N4 N 0.62186(12) 0.4310(2) 0.55898(19)
O1 O 0.50015(8) 0.11360(17) 0.42088(13)
O2 O 0.43473(8) 0.22259(16) 0.52225(12)
Cu1 Cu 0.415785(13) 0.09430(3) 0.43448(2)
N3C N 0.36235(10) 0.2101(2) 0.30567(15)
Cu1C Cu 0.084215(13) -0.40570(3) 0.06552(2)
loop_
_geom_bond_atom_site_label_1
_geom_bond_atom_site_label_2
_geom_bond_site_symmetry_1
_geom_bond_site_symmetry_2
C1 H1 1_555 1_555
C2 C1 1_555 1_555
H2 C2 1_555 1_555
C3 C2 1_555 1_555
H3 C3 1_555 1_555
C4 C3 1_555 1_555
C5 C4 1_555 1_555
C6 C5 1_555 1_555
C7 C6 1_555 1_555
H4 C7 1_555 1_555
C8 C7 1_555 1_555
H5 C8 1_555 1_555
C9 C8 1_555 1_555
H6 C9 1_555 1_555
C10 C5 1_555 1_555
C11 C10 1_555 1_555
H7 C11 1_555 1_555
C12 C11 1_555 1_555
H8 C12 1_555 1_555
C13 H9 1_555 1_555
C14 C10 1_555 1_555
H10 C14 1_555 1_555
C15 H11 1_555 1_555
H12 C15 1_555 1_555
H13 C15 1_555 1_555
C16 C15 1_555 1_555
C17 C16 1_555 1_555
C18 C17 1_555 1_555
C19 C18 1_555 1_555
H14 C19 1_555 1_555
H15 C19 1_555 1_555
H16 C19 1_555 1_555
C20 C17 1_555 1_555
N1 C1 1_555 1_555
N2 C6 1_555 1_555
N3 C12 1_555 1_555
N4 C20 1_555 1_555
O1 C16 1_555 1_555
O2 C18 1_555 1_555
Cu1 N1 1_555 1_555
N3C Cu1 1_555 1_555
Cu1C N3 1_555 1_555
C4 N1 1_555 1_555
C9 N2 1_555 1_555
C13 C14 1_555 1_555
C13 N3 1_555 1_555
N2 Cu1 1_555 1_555
O1 Cu1 1_555 1_555
O2 Cu1 1_555 1_555

#END
