
#######################################################################
#
#                 Cambridge Crystallographic Data Centre
#                                CCDC 
#
#######################################################################
#
# If this CIF has been generated from an entry in the Cambridge 
# Structural Database, then it will include bibliographic, chemical, 
# crystal, experimental, refinement or atomic coordinate data resulting 
# from the CCDC's data processing and validation procedures.
#
#######################################################################

data_ENEXIF
_symmetry_cell_setting           monoclinic
_symmetry_space_group_name_H-M   'P 21/c'
_symmetry_Int_Tables_number      14
_space_group_name_Hall           '-P 2ybc'
loop_
_symmetry_equiv_pos_site_id
_symmetry_equiv_pos_as_xyz
1 x,y,z
2 -x,1/2+y,1/2-z
3 -x,-y,-z
4 x,1/2-y,1/2+z
_cell_length_a                   20.4333(10)
_cell_length_b                   8.5181(4)
_cell_length_c                   21.5238(10)
_cell_angle_alpha                90
_cell_angle_beta                 99.825(2)
_cell_angle_gamma                90
_cell_volume                     3691.33
loop_
_atom_site_label
_atom_site_type_symbol
_atom_site_fract_x
_atom_site_fract_y
_atom_site_fract_z
C1 C 0.3094(2) -0.3379(5) 0.3480(2)
H1 H 0.2945 -0.2644 0.3168
C2 C 0.3620(2) -0.3115(6) 0.3974(2)
H2 H 0.3877 -0.2212 0.4046
C3 C 0.3682(2) -0.4452(6) 0.4334(2)
H3 H 0.3991 -0.4625 0.4698
C4 C 0.31883(19) -0.5523(5) 0.40470(17)
C5 C 0.30507(19) -0.7033(5) 0.42413(17)
C6 C 0.2537(2) -0.8003(5) 0.39473(17)
C7 C 0.2426(2) -0.9611(5) 0.40670(19)
H4 H 0.2679 -1.0237 0.4371
C8 C 0.1876(2) -1.0068(5) 0.3651(2)
H5 H 0.1686 -1.1063 0.3614
C9 C 0.1657(2) -0.8735(5) 0.32930(19)
H6 H 0.1283 -0.8718 0.2979
C10 C 0.3474(2) -0.7692(5) 0.48154(17)
C11 C 0.31799(19) -0.8211(4) 0.53108(17)
H7 H 0.2722 -0.8111 0.5272
C12 C 0.4170(2) -0.8989(6) 0.5887(2)
H8 H 0.4410 -0.9436 0.6250
C13 C 0.4507(2) -0.8501(7) 0.5419(2)
H9 H 0.4966 -0.8617 0.5470
C14 C 0.4163(2) -0.7840(6) 0.4876(2)
H10 H 0.4384 -0.7500 0.4557
C15 C 0.1477(3) -0.1458(5) 0.1867(2)
H11 H 0.1544 -0.0696 0.2201
H12 H 0.1084 -0.1197 0.1573
H13 H 0.1853 -0.1458 0.1654
C16 C 0.1398(2) -0.3061(4) 0.21395(17)
C17 C 0.0823(2) -0.3964(5) 0.19201(17)
C18 C 0.0704(2) -0.5464(5) 0.21566(18)
C19 C 0.0090(2) -0.6358(6) 0.1882(2)
H14 H 0.0107 -0.6621 0.1451
H15 H -0.0295 -0.5722 0.1899
H16 H 0.0064 -0.7303 0.2119
C20 C 0.0339(2) -0.3358(5) 0.14177(19)
C21 C 0.1714(2) 0.1683(5) 0.6021(2)
H17 H 0.1816 0.2512 0.6302
C22 C 0.1185(2) 0.1695(5) 0.5509(2)
H18 H 0.0886 0.2509 0.5393
C23 C 0.1198(2) 0.0277(5) 0.5216(2)
H19 H 0.0906 -0.0060 0.4861
C24 C 0.17370(19) -0.0589(4) 0.55525(17)
C25 C 0.19493(19) -0.2089(4) 0.54157(16)
C26 C 0.2529(2) -0.2830(4) 0.57295(17)
C27 C 0.2746(2) -0.4383(5) 0.56310(19)
H20 H 0.2529 -0.5120 0.5350
C28 C 0.3338(3) -0.4581(5) 0.6032(2)
H21 H 0.3603 -0.5475 0.6073
C29 C 0.3466(2) -0.3173(5) 0.6367(2)
H22 H 0.3841 -0.2992 0.6670
C30 C 0.15356(19) -0.2977(4) 0.48970(17)
C31 C 0.0871(2) -0.3305(5) 0.48974(19)
H23 H 0.0664 -0.2929 0.5220
C32 C 0.0519(2) -0.4186(5) 0.4421(2)
H24 H 0.0078 -0.4446 0.4426
C33 C 0.0830(2) -0.4682(5) 0.39312(18)
H25 H 0.0588 -0.5273 0.3608
C34 C 0.18068(19) -0.3528(4) 0.43876(16)
H26 H 0.2252 -0.3319 0.4380
C35 C 0.3113(3) 0.4257(6) 0.7588(2)
H27 H 0.3321 0.4990 0.7343
H28 H 0.3274 0.4429 0.8028
H29 H 0.2641 0.4403 0.7502
C36 C 0.3277(2) 0.2618(5) 0.74163(19)
C37 C 0.3886(2) 0.1930(6) 0.76892(19)
C38 C 0.4068(2) 0.0364(6) 0.75759(19)
C39 C 0.4701(3) -0.0313(8) 0.7943(2)
H30 H 0.4715 -0.0132 0.8385
H31 H 0.5077 0.0184 0.7811
H32 H 0.4716 -0.1421 0.7865
C40 C 0.4322(3) 0.2841(8) 0.8140(3)
N1 N 0.28311(16) -0.4799(4) 0.35040(15)
N2 N 0.20432(17) -0.7510(4) 0.34540(14)
N3 N 0.35080(16) -0.8848(4) 0.58419(15)
N4 N -0.0044(2) -0.2887(5) 0.10116(19)
N5 N 0.20510(16) 0.0332(4) 0.60535(15)
N6 N 0.29820(17) -0.2123(4) 0.61984(15)
N7 N 0.14629(16) -0.4345(4) 0.39058(14)
N8 N 0.4668(3) 0.3580(7) 0.8492(2)
O1 O 0.18655(15) -0.3504(3) 0.25609(13)
O2 O 0.10920(15) -0.6122(3) 0.25943(13)
O3 O 0.28449(15) 0.1922(4) 0.70251(13)
O4 O 0.37345(15) -0.0513(4) 0.71776(13)
Cu1 Cu 0.19419(2) -0.54166(5) 0.30848(2)
Cu2 Cu 0.29332(2) -0.00268(6) 0.65593(2)
N3_2 N 0.35080(16) 0.1152(4) 0.58419(15)
Cu2_2 Cu 0.29332(2) -1.00268(6) 0.65593(2)
loop_
_geom_bond_atom_site_label_1
_geom_bond_atom_site_label_2
_geom_bond_site_symmetry_1
_geom_bond_site_symmetry_2
C1 H1 1_555 1_555
C2 C1 1_555 1_555
H2 C2 1_555 1_555
C3 C2 1_555 1_555
H3 C3 1_555 1_555
C4 C3 1_555 1_555
C5 C4 1_555 1_555
C6 C5 1_555 1_555
C7 C6 1_555 1_555
H4 C7 1_555 1_555
C8 C7 1_555 1_555
H5 C8 1_555 1_555
C9 C8 1_555 1_555
H6 C9 1_555 1_555
C10 C5 1_555 1_555
C11 C10 1_555 1_555
H7 C11 1_555 1_555
C12 H8 1_555 1_555
C13 C12 1_555 1_555
H9 C13 1_555 1_555
C14 C10 1_555 1_555
H10 C14 1_555 1_555
C15 H11 1_555 1_555
H12 C15 1_555 1_555
H13 C15 1_555 1_555
C16 C15 1_555 1_555
C17 C16 1_555 1_555
C18 C17 1_555 1_555
C19 C18 1_555 1_555
H14 C19 1_555 1_555
H15 C19 1_555 1_555
H16 C19 1_555 1_555
C20 C17 1_555 1_555
C21 H17 1_555 1_555
C22 C21 1_555 1_555
H18 C22 1_555 1_555
C23 C22 1_555 1_555
H19 C23 1_555 1_555
C24 C23 1_555 1_555
C25 C24 1_555 1_555
C26 C25 1_555 1_555
C27 C26 1_555 1_555
H20 C27 1_555 1_555
C28 C27 1_555 1_555
H21 C28 1_555 1_555
C29 C28 1_555 1_555
H22 C29 1_555 1_555
C30 C25 1_555 1_555
C31 C30 1_555 1_555
H23 C31 1_555 1_555
C32 C31 1_555 1_555
H24 C32 1_555 1_555
C33 C32 1_555 1_555
H25 C33 1_555 1_555
C34 C30 1_555 1_555
H26 C34 1_555 1_555
C35 H27 1_555 1_555
H28 C35 1_555 1_555
H29 C35 1_555 1_555
C36 C35 1_555 1_555
C37 C36 1_555 1_555
C38 C37 1_555 1_555
C39 C38 1_555 1_555
H30 C39 1_555 1_555
H31 C39 1_555 1_555
H32 C39 1_555 1_555
C40 C37 1_555 1_555
N1 C1 1_555 1_555
N2 C6 1_555 1_555
N3 C11 1_555 1_555
N4 C20 1_555 1_555
N5 C21 1_555 1_555
N6 C26 1_555 1_555
N7 C33 1_555 1_555
N8 C40 1_555 1_555
O1 C16 1_555 1_555
O2 C18 1_555 1_555
O3 C36 1_555 1_555
O4 C38 1_555 1_555
Cu1 N1 1_555 1_555
Cu2 N5 1_555 1_555
N3_2 Cu2 1_555 1_555
Cu2_2 N3 1_555 1_555
C4 N1 1_555 1_555
C9 N2 1_555 1_555
C12 N3 1_555 1_555
C13 C14 1_555 1_555
C24 N5 1_555 1_555
C29 N6 1_555 1_555
C34 N7 1_555 1_555
N2 Cu1 1_555 1_555
N6 Cu2 1_555 1_555
N7 Cu1 1_555 1_555
O1 Cu1 1_555 1_555
O2 Cu1 1_555 1_555
O3 Cu2 1_555 1_555
O4 Cu2 1_555 1_555

#END
