
#######################################################################
#
#                 Cambridge Crystallographic Data Centre
#                                CCDC 
#
#######################################################################
#
# If this CIF has been generated from an entry in the Cambridge 
# Structural Database, then it will include bibliographic, chemical, 
# crystal, experimental, refinement or atomic coordinate data resulting 
# from the CCDC's data processing and validation procedures.
#
#######################################################################

data_ENEZON
_symmetry_cell_setting           triclinic
_symmetry_space_group_name_H-M   'P -1'
_symmetry_Int_Tables_number      2
_space_group_name_Hall           '-P 1'
loop_
_symmetry_equiv_pos_site_id
_symmetry_equiv_pos_as_xyz
1 x,y,z
2 -x,-y,-z
_cell_length_a                   8.0489(16)
_cell_length_b                   8.4254(17)
_cell_length_c                   13.213(5)
_cell_angle_alpha                93.17(3)
_cell_angle_beta                 107.53(3)
_cell_angle_gamma                109.10(3)
_cell_volume                     795.535
loop_
_atom_site_label
_atom_site_type_symbol
_atom_site_fract_x
_atom_site_fract_y
_atom_site_fract_z
Cd1 Cd 1.0000 1.0000 1.0000
Cd2 Cd 0.50390(4) 0.69689(4) 0.89460(2)
Cd3 Cd 1.04500(4) 0.49963(4) 0.64354(2)
C1 C 0.7300(6) 0.5379(6) 0.7571(4)
C2 C 0.5642(7) 0.3878(7) 0.6899(4)
H1 H 0.4580 0.4237 0.6653
H2 H 0.5357 0.3030 0.7350
C3 C 0.5861(7) 0.3058(7) 0.5939(4)
H3 H 0.4742 0.2064 0.5584
H4 H 0.5965 0.3850 0.5437
C4 C 0.7198(7) 0.1052(7) 0.6681(5)
H5 H 0.6157 0.0099 0.6192
H6 H 0.6910 0.1251 0.7328
C5 C 0.8953(7) 0.0634(6) 0.6965(4)
H7 H 0.8695 -0.0470 0.7192
H8 H 0.9294 0.0551 0.6325
C6 C 1.0579(6) 0.1926(6) 0.7841(4)
Cl1 Cl 0.89640(18) 0.66138(17) 0.50365(9)
N1 N 0.9041(5) 0.5827(5) 0.7550(3)
N2 N 1.0086(5) 0.7215(5) 0.8301(3)
N3 N 0.9001(5) 0.7587(5) 0.8754(3)
N4 N 0.7244(5) 0.6467(5) 0.8320(3)
N5 N 1.1595(5) 0.3437(5) 0.7702(3)
N6 N 1.2942(5) 0.4167(5) 0.8664(3)
N7 N 1.2731(5) 0.3136(5) 0.9349(3)
N8 N 1.1234(5) 0.1711(5) 0.8857(3)
N9 N 0.3279(6) 0.7284(5) 0.7277(3)
N10 N 0.3122(6) 0.8617(6) 0.7243(3)
N11 N 0.3034(7) 0.9951(6) 0.7147(4)
N12 N 0.6943(5) 0.9949(5) 0.9248(3)
N13 N 0.6539(5) 1.1104(5) 0.9516(3)
N14 N 0.6164(6) 1.2251(5) 0.9744(3)
O1 O 0.7458(4) 0.2540(4) 0.6186(3)
Cd1_2 Cd 1.0000 0.0000 1.0000
Cd1_3 Cd 1.0000 2.0000 1.0000
Cd2A Cd 1.49610(4) 1.30311(4) 1.10540(2)
Cd2_2 Cd 1.50390(4) 0.69689(4) 0.89460(2)
Cd2A_2 Cd 1.49610(4) 0.30311(4) 1.10540(2)
Cd2A_3 Cd 0.49610(4) 1.30311(4) 1.10540(2)
Cd2_3 Cd 0.50390(4) 1.69689(4) 0.89460(2)
Cd3A Cd 0.95500(4) 1.50037(4) 1.35646(2)
Cd3A_2 Cd 0.95500(4) 0.50037(4) 0.35646(2)
Cd3_2 Cd 0.04500(4) 0.49963(4) 0.64354(2)
C1A C 1.2700(6) 1.4621(6) 1.2429(4)
C2A C 1.4358(7) 1.6122(7) 1.3101(4)
H1A H 1.5420 1.5763 1.3347
H2A H 1.4643 1.6970 1.2650
C3A C 1.4139(7) 1.6942(7) 1.4061(4)
H3A H 1.5258 1.7936 1.4416
H4A H 1.4035 1.6150 1.4563
C4A C 1.2802(7) 1.8948(7) 1.3319(5)
H5A H 1.3843 1.9901 1.3808
H6A H 1.3090 1.8749 1.2672
C5A C 1.1047(7) 1.9366(6) 1.3035(4)
H7A H 1.1305 2.0470 1.2808
H8A H 1.0706 1.9449 1.3675
C6A C 0.9421(6) 1.8074(6) 1.2159(4)
Cl1A Cl 1.10360(18) 0.33862(17) 0.49635(9)
Cl1A_2 Cl 1.10360(18) 1.33862(17) 1.49635(9)
Cl1_2 Cl 0.89640(18) 1.66138(17) 1.50365(9)
N1A N 1.0959(5) 1.4173(5) 1.2450(3)
N2A N 0.9914(5) 1.2785(5) 1.1699(3)
N3A N 1.0999(5) 1.2413(5) 1.1246(3)
N4A N 1.2756(5) 1.3533(5) 1.1680(3)
N5A N 0.8405(5) 1.6563(5) 1.2298(3)
N6A N 0.7058(5) 1.5833(5) 1.1336(3)
N6_2 N 0.2942(5) 0.4167(5) 0.8664(3)
N6A_2 N 1.7058(5) 1.5833(5) 1.1336(3)
N7A N 0.7269(5) 1.6864(5) 1.0651(3)
N7A_2 N 0.7269(5) 0.6864(5) 1.0651(3)
N7_2 N 1.2731(5) 1.3136(5) 0.9349(3)
N8A N 0.8766(5) 1.8289(5) 1.1143(3)
N8_2 N 1.1234(5) 1.1711(5) 0.8857(3)
N8A_2 N 0.8766(5) 0.8289(5) 1.1143(3)
N9_2 N 1.3279(6) 0.7284(5) 0.7277(3)
N9A N 1.6721(6) 1.2716(5) 1.2723(3)
N9A_2 N 0.6721(6) 1.2716(5) 1.2723(3)
N10_2 N 1.3122(6) 0.8617(6) 0.7243(3)
N11_2 N 1.3034(7) 0.9951(6) 0.7147(4)
N12A N 1.3057(5) 1.0051(5) 1.0752(3)
N13A N 1.3461(5) 0.8896(5) 1.0484(3)
N14A N 1.3836(6) 0.7749(5) 1.0256(3)
N14A_2 N 0.3836(6) 0.7749(5) 1.0256(3)
N14_2 N 1.6164(6) 1.2251(5) 0.9744(3)
O1A O 1.2542(4) 1.7460(4) 1.3814(3)
loop_
_geom_bond_atom_site_label_1
_geom_bond_atom_site_label_2
_geom_bond_site_symmetry_1
_geom_bond_site_symmetry_2
Cd1 N3 1_555 1_555
Cd2 N4 1_555 1_555
Cd3 Cl1 1_555 1_555
C1 C2 1_555 1_555
C2 H1 1_555 1_555
H2 C2 1_555 1_555
C3 C2 1_555 1_555
H3 C3 1_555 1_555
H4 C3 1_555 1_555
C4 H5 1_555 1_555
H6 C4 1_555 1_555
C5 C4 1_555 1_555
H7 C5 1_555 1_555
H8 C5 1_555 1_555
C6 C5 1_555 1_555
Cl1 Cd3A_2 1_555 1_555
N1 Cd3 1_555 1_555
N2 N1 1_555 1_555
N3 N2 1_555 1_555
N4 C1 1_555 1_555
N5 Cd3 1_555 1_555
N6 N5 1_555 1_555
N7 N6 1_555 1_555
N8 C6 1_555 1_555
N9 Cd2 1_555 1_555
N10 N9 1_555 1_555
N11 N10 1_555 1_555
N12 Cd1 1_555 1_555
N13 N12 1_555 1_555
N14 N13 1_555 1_555
O1 Cd3 1_555 1_555
Cd1_2 N8 1_555 1_555
Cd1_3 N8A 1_555 1_555
Cd2A N4A 1_555 1_555
Cd2_2 N6 1_555 1_555
Cd2A_2 N7 1_555 1_555
Cd2A_3 N14 1_555 1_555
Cd2_3 N7A 1_555 1_555
Cd3A Cl1A_2 1_555 1_555
Cd3A_2 Cl1A 1_555 1_555
Cd3_2 N9 1_555 1_555
C1A C2A 1_555 1_555
C2A H1A 1_555 1_555
H2A C2A 1_555 1_555
C3A C2A 1_555 1_555
H3A C3A 1_555 1_555
H4A C3A 1_555 1_555
C4A H5A 1_555 1_555
H6A C4A 1_555 1_555
C5A C4A 1_555 1_555
H7A C5A 1_555 1_555
H8A C5A 1_555 1_555
C6A C5A 1_555 1_555
Cl1A Cd3 1_555 1_555
Cl1_2 Cd3A 1_555 1_555
N1A Cd3A 1_555 1_555
N2A N1A 1_555 1_555
N3A Cd1 1_555 1_555
N4A C1A 1_555 1_555
N5A Cd3A 1_555 1_555
N6A Cd2A_3 1_555 1_555
N6_2 Cd2 1_555 1_555
N6A_2 Cd2A 1_555 1_555
N7A N6A 1_555 1_555
N7A_2 Cd2 1_555 1_555
N7_2 Cd2A 1_555 1_555
N8A C6A 1_555 1_555
N8_2 Cd1 1_555 1_555
N8A_2 Cd1 1_555 1_555
N9_2 Cd3 1_555 1_555
N9A Cd2A 1_555 1_555
N9A_2 Cd2A_3 1_555 1_555
N10_2 N9_2 1_555 1_555
N11_2 N10_2 1_555 1_555
N12A Cd1 1_555 1_555
N13A N12A 1_555 1_555
N14A Cd2_2 1_555 1_555
N14A_2 Cd2 1_555 1_555
N14_2 Cd2A 1_555 1_555
O1A Cd3A 1_555 1_555
Cd2 N12 1_555 1_555
C1 N1 1_555 1_555
C3 O1 1_555 1_555
C4 O1 1_555 1_555
C6 N5 1_555 1_555
N3 N4 1_555 1_555
N7 N8 1_555 1_555
Cd2A N12A 1_555 1_555
Cd2_2 N9_2 1_555 1_555
Cd3A N9A_2 1_555 1_555
C1A N1A 1_555 1_555
C3A O1A 1_555 1_555
C4A O1A 1_555 1_555
C6A N5A 1_555 1_555
N2A N3A 1_555 1_555
N3A N4A 1_555 1_555
N5A N6A 1_555 1_555
N7A N8A 1_555 1_555
N7A_2 N8A_2 1_555 1_555
N7_2 N8_2 1_555 1_555
N13A N14A 1_555 1_555

#END
