
#######################################################################
#
#                 Cambridge Crystallographic Data Centre
#                                CCDC 
#
#######################################################################
#
# If this CIF has been generated from an entry in the Cambridge 
# Structural Database, then it will include bibliographic, chemical, 
# crystal, experimental, refinement or atomic coordinate data resulting 
# from the CCDC's data processing and validation procedures.
#
#######################################################################

data_ENEZAZ
_symmetry_cell_setting           triclinic
_symmetry_space_group_name_H-M   'P -1'
_symmetry_Int_Tables_number      2
_space_group_name_Hall           '-P 1'
loop_
_symmetry_equiv_pos_site_id
_symmetry_equiv_pos_as_xyz
1 x,y,z
2 -x,-y,-z
_cell_length_a                   9.9369(3)
_cell_length_b                   14.1115(3)
_cell_length_c                   15.8223(4)
_cell_angle_alpha                73.8980(10)
_cell_angle_beta                 86.2550(10)
_cell_angle_gamma                89.2360(10)
_cell_volume                     2127.06
loop_
_atom_site_label
_atom_site_type_symbol
_atom_site_fract_x
_atom_site_fract_y
_atom_site_fract_z
C1 C 0.5541(4) 0.4230(3) 0.6815(2)
H1 H 0.5860 0.3590 0.7020
C2 C 0.6103(4) 0.4939(3) 0.6067(2)
H2 H 0.6833 0.4852 0.5698
C3 C 0.5365(4) 0.5782(3) 0.5991(2)
H3 H 0.5508 0.6380 0.5563
C4 C 0.4341(3) 0.5573(2) 0.6689(2)
C5 C 0.3401(3) 0.6215(2) 0.6918(2)
C6 C 0.2508(4) 0.5976(2) 0.7664(2)
C7 C 0.1589(4) 0.6606(3) 0.7974(3)
H4 H 0.1434 0.7268 0.7699
C8 C 0.0975(4) 0.6057(3) 0.8754(3)
H5 H 0.0330 0.6274 0.9109
C9 C 0.1510(4) 0.5101(3) 0.8911(2)
H6 H 0.1267 0.4580 0.9401
C10 C 0.3389(3) 0.7259(2) 0.6346(2)
C11 C 0.3111(4) 0.7477(2) 0.5460(2)
H7 H 0.2929 0.6974 0.5209
C12 C 0.3110(4) 0.8455(2) 0.4958(2)
H8 H 0.2920 0.8590 0.4369
C13 C 0.3645(4) 0.9000(3) 0.6132(2)
H9 H 0.3833 0.9517 0.6365
C14 C 0.3662(4) 0.8040(2) 0.6681(2)
H10 H 0.3854 0.7924 0.7269
C15 C 0.0743(4) 0.2797(3) 0.8819(2)
H11 H 0.0423 0.2931 0.8259
C16 C 0.0011(4) 0.2287(3) 0.9597(3)
H12 H -0.0857 0.2031 0.9643
C17 C 0.0817(4) 0.2238(3) 1.0273(2)
H13 H 0.0601 0.1943 1.0869
C18 C 0.2057(4) 0.2727(2) 0.9894(2)
C19 C 0.3163(4) 0.2898(2) 1.0325(2)
C20 C 0.4295(4) 0.3449(2) 0.9924(2)
C21 C 0.5487(4) 0.3630(3) 1.0320(3)
H14 H 0.5642 0.3424 1.0917
C22 C 0.6351(4) 0.4161(3) 0.9658(3)
H15 H 0.7209 0.4383 0.9715
C23 C 0.5687(4) 0.4308(3) 0.8867(3)
H16 H 0.6052 0.4658 0.8314
C24 C 0.3139(4) 0.2437(3) 1.1299(2)
C25 C 0.3065(4) 0.1417(3) 1.1642(2)
H17 H 0.3041 0.1013 1.1268
C26 C 0.3164(4) 0.2996(3) 1.1892(2)
H18 H 0.3217 0.3680 1.1689
C27 C 0.1433(4) 0.3783(3) 0.5841(2)
H19 H 0.0602 0.3418 0.5938
H20 H 0.1935 0.3681 0.5334
H21 H 0.1243 0.4472 0.5743
C28 C 0.2242(3) 0.3434(3) 0.6629(2)
C29 C 0.3099(4) 0.2600(3) 0.6729(2)
C30 C 0.3881(4) 0.2213(3) 0.7466(2)
C31 C 0.4601(5) 0.1248(3) 0.7578(3)
H22 H 0.5033 0.1080 0.8124
H23 H 0.5267 0.1306 0.7098
H24 H 0.3963 0.0742 0.7581
C32 C 0.3154(4) 0.2105(3) 0.6058(3)
N1 N 0.4488(3) 0.4595(2) 0.71897(18)
N2 N 0.2416(3) 0.5038(2) 0.82628(17)
N3 N 0.3368(3) 0.9212(2) 0.52785(19)
N4 N 0.1958(3) 0.30639(19) 0.89886(18)
N5 N 0.4471(3) 0.3883(2) 0.90142(18)
C33 C 0.3027(4) 0.1009(3) 1.2543(2)
H25 H 0.2987 0.0326 1.2762
C34 C 0.3112(4) 0.2535(3) 1.2782(2)
H26 H 0.3122 0.2922 1.3171
N6 N 0.3046(3) 0.1547(2) 1.31162(18)
N7 N 0.3235(4) 0.1717(3) 0.5516(2)
O1 O 0.2090(2) 0.39160(17) 0.71973(15)
O2 O 0.4043(2) 0.26396(17) 0.80571(16)
Co1 Co 0.32548(4) 0.38582(3) 0.81277(3)
Ag1 Ag 0.29619(3) 1.07967(2) 0.456263(17)
N6_2 N 0.3046(3) 1.1547(2) 0.31162(18)
N7_2 N 0.3235(4) 1.1717(3) 0.5516(2)
Ag1_2 Ag 0.29619(3) 0.07967(2) 1.456263(17)
Ag1_3 Ag 0.29619(3) 0.07967(2) 0.456263(17)
B1 B 0.1673(5) 0.7860(4) 0.2851(4)
F1 F 0.2074(4) 0.7512(3) 0.2156(2)
F2 F 0.0278(3) 0.7880(3) 0.2922(2)
F3 F 0.2127(4) 0.8782(3) 0.2770(3)
F4 F 0.2151(4) 0.7233(3) 0.3607(2)
C35 C -0.0040(6) -0.0087(9) 0.4164(5)
H27 H -0.0057 -0.0149 0.3594
C36 C 0.0066(6) 0.0814(7) 0.4298(7)
H28 H 0.0101 0.1374 0.3820
C37 C -0.0120(5) -0.0907(6) 0.4871(8)
H29 H -0.0212 -0.1528 0.4785
C35A C 0.0040(6) 0.0087(9) 0.5836(5)
H27A H 0.0057 0.0149 0.6406
C36A C -0.0066(6) -0.0814(7) 0.5702(7)
H28A H -0.0101 -0.1374 0.6180
C37A C 0.0120(5) 0.0907(6) 0.5129(8)
H29A H 0.0212 0.1528 0.5215
C38 C 0.9348(6) 0.5824(5) 0.6628(4)
C39 C 0.9087(5) 0.4956(4) 0.7333(4)
H30 H 0.8657 0.5131 0.7829
H31 H 0.9922 0.4627 0.7498
H32 H 0.8507 0.4523 0.7148
N8 N 0.9541(8) 0.6525(5) 0.6060(4)
C40 C 0.1485(8) 0.9580(5) 0.8373(4)
C41 C 0.0588(10) 1.0287(5) 0.8638(6)
H33 H 0.1057 1.0614 0.8990
H34 H -0.0186 0.9946 0.8976
H35 H 0.0301 1.0766 0.8123
N9 N 0.2213(10) 0.9030(6) 0.8217(6)
C42 C 0.3374(6) 0.9462(5) 1.0124(4)
C43 C 0.3897(8) 0.8491(5) 1.0232(6)
H36 H 0.3815 0.8302 0.9699
H37 H 0.3399 0.8037 1.0711
H38 H 0.4831 0.8483 1.0357
N10 N 0.2974(9) 1.0227(6) 1.0039(6)
loop_
_geom_bond_atom_site_label_1
_geom_bond_atom_site_label_2
_geom_bond_site_symmetry_1
_geom_bond_site_symmetry_2
C1 H1 1_555 1_555
C2 C1 1_555 1_555
H2 C2 1_555 1_555
C3 C2 1_555 1_555
H3 C3 1_555 1_555
C4 C3 1_555 1_555
C5 C4 1_555 1_555
C6 C5 1_555 1_555
C7 C6 1_555 1_555
H4 C7 1_555 1_555
C8 C7 1_555 1_555
H5 C8 1_555 1_555
C9 C8 1_555 1_555
H6 C9 1_555 1_555
C10 C5 1_555 1_555
C11 C10 1_555 1_555
H7 C11 1_555 1_555
C12 C11 1_555 1_555
H8 C12 1_555 1_555
C13 H9 1_555 1_555
C14 C10 1_555 1_555
H10 C14 1_555 1_555
C15 H11 1_555 1_555
C16 C15 1_555 1_555
H12 C16 1_555 1_555
C17 C16 1_555 1_555
H13 C17 1_555 1_555
C18 C17 1_555 1_555
C19 C18 1_555 1_555
C20 C19 1_555 1_555
C21 C20 1_555 1_555
H14 C21 1_555 1_555
C22 C21 1_555 1_555
H15 C22 1_555 1_555
C23 C22 1_555 1_555
H16 C23 1_555 1_555
C24 C19 1_555 1_555
C25 C24 1_555 1_555
H17 C25 1_555 1_555
C26 C24 1_555 1_555
H18 C26 1_555 1_555
C27 H19 1_555 1_555
H20 C27 1_555 1_555
H21 C27 1_555 1_555
C28 C27 1_555 1_555
C29 C28 1_555 1_555
C30 C29 1_555 1_555
C31 C30 1_555 1_555
H22 C31 1_555 1_555
H23 C31 1_555 1_555
H24 C31 1_555 1_555
C32 C29 1_555 1_555
N1 C1 1_555 1_555
N2 C6 1_555 1_555
N3 C12 1_555 1_555
N4 C15 1_555 1_555
N5 C20 1_555 1_555
C33 C25 1_555 1_555
H25 C33 1_555 1_555
C34 C26 1_555 1_555
H26 C34 1_555 1_555
N6 C33 1_555 1_555
N7 C32 1_555 1_555
O1 C28 1_555 1_555
O2 C30 1_555 1_555
Co1 N1 1_555 1_555
Ag1 N3 1_555 1_555
B1 F1 1_555 1_555
F2 B1 1_555 1_555
F3 B1 1_555 1_555
F4 B1 1_555 1_555
C35 H27 1_555 1_555
C36 C35 1_555 1_555
H28 C36 1_555 1_555
C37 C35 1_555 1_555
H29 C37 1_555 1_555
C38 C39 1_555 1_555
C39 H30 1_555 1_555
H31 C39 1_555 1_555
H32 C39 1_555 1_555
N8 C38 1_555 1_555
C40 C41 1_555 1_555
C41 H33 1_555 1_555
H34 C41 1_555 1_555
H35 C41 1_555 1_555
N9 C40 1_555 1_555
C42 C43 1_555 1_555
C43 H36 1_555 1_555
H37 C43 1_555 1_555
H38 C43 1_555 1_555
N10 C42 1_555 1_555
N6_2 Ag1 1_555 1_555
N7_2 Ag1 1_555 1_555
Ag1_2 N6 1_555 1_555
Ag1_3 N7 1_555 1_555
C35A H27A 1_555 1_555
C36A C37 1_555 1_555
H28A C36A 1_555 1_555
C37A C36 1_555 1_555
H29A C37A 1_555 1_555
C4 N1 1_555 1_555
C9 N2 1_555 1_555
C13 C14 1_555 1_555
C13 N3 1_555 1_555
C18 N4 1_555 1_555
C23 N5 1_555 1_555
N2 Co1 1_555 1_555
N4 Co1 1_555 1_555
N5 Co1 1_555 1_555
C34 N6 1_555 1_555
O1 Co1 1_555 1_555
O2 Co1 1_555 1_555
C35A C36A 1_555 1_555
C35A C37A 1_555 1_555

#END
