
#######################################################################
#
#                 Cambridge Crystallographic Data Centre
#                                CCDC 
#
#######################################################################
#
# If this CIF has been generated from an entry in the Cambridge 
# Structural Database, then it will include bibliographic, chemical, 
# crystal, experimental, refinement or atomic coordinate data resulting 
# from the CCDC's data processing and validation procedures.
#
#######################################################################

data_ENIBEJ
_symmetry_cell_setting           orthorhombic
_symmetry_space_group_name_H-M   'P b c a'
_symmetry_Int_Tables_number      61
_space_group_name_Hall           '-P 2ac 2ab'
loop_
_symmetry_equiv_pos_site_id
_symmetry_equiv_pos_as_xyz
1 x,y,z
2 1/2-x,-y,1/2+z
3 1/2+x,1/2-y,-z
4 -x,1/2+y,1/2-z
5 -x,-y,-z
6 1/2+x,y,1/2-z
7 1/2-x,1/2+y,z
8 x,1/2-y,1/2+z
_cell_length_a                   14.2128(4)
_cell_length_b                   9.8325(2)
_cell_length_c                   16.3309(4)
_cell_angle_alpha                90
_cell_angle_beta                 90
_cell_angle_gamma                90
_cell_volume                     2282.2
loop_
_atom_site_label
_atom_site_type_symbol
_atom_site_fract_x
_atom_site_fract_y
_atom_site_fract_z
Cd1 Cd 0.892643(14) 0.218550(18) 0.632284(10)
Cd2 Cd 1.0000 0.5000 0.5000
C1 C 0.71366(18) 0.4160(2) 0.60353(14)
C2 C 0.64705(19) 0.3300(3) 0.65128(14)
H1 H 0.6473 0.2389 0.6286
H2 H 0.5840 0.3664 0.6450
C3 C 0.66993(18) 0.3218(3) 0.74159(15)
H3 H 0.6701 0.4124 0.7650
H4 H 0.6221 0.2687 0.7694
C4 C 0.7738(2) 0.2331(3) 0.83916(16)
H5 H 0.7532 0.1415 0.8520
H6 H 0.7370 0.2962 0.8716
C5 C 0.8771(2) 0.2486(3) 0.85954(16)
H7 H 0.8983 0.3369 0.8405
H8 H 0.8845 0.2466 0.9186
C6 C 0.93825(18) 0.1420(2) 0.82298(14)
Cl1 Cl 1.03010(5) 0.24297(6) 0.53830(4)
N1 N 0.79834(14) 0.3760(2) 0.57847(12)
N2 N 0.83349(15) 0.4809(2) 0.53419(12)
N3 N 0.77369(15) 0.5801(2) 0.53345(12)
N4 N 0.69687(15) 0.5432(2) 0.57744(12)
N5 N 0.95461(15) 0.1258(2) 0.74304(12)
N6 N 1.01368(15) 0.0187(2) 0.73578(13)
N7 N 1.03138(16) -0.0291(2) 0.80868(12)
N8 N 0.98447(15) 0.0478(2) 0.86476(12)
O1 O 0.75987(14) 0.26009(19) 0.75332(10)
Cd1D Cd 1.107357(14) 0.781450(18) 0.367716(10)
Cd1F Cd 0.607357(14) 0.718550(18) 0.632284(10)
Cd1B Cd 1.392643(14) 0.281450(18) 0.367716(10)
Cd2C Cd 1.0000 0.0000 1.0000
Cd2C_2 Cd 1.0000 1.0000 0.0000
C1D C 1.28634(18) 0.5840(2) 0.39647(14)
C2D C 1.35295(19) 0.6700(3) 0.34872(14)
H1D H 1.3527 0.7611 0.3714
H2D H 1.4160 0.6336 0.3550
C3D C 1.33007(18) 0.6782(3) 0.25841(15)
H3D H 1.3299 0.5876 0.2350
H4D H 1.3779 0.7313 0.2306
C4D C 1.2262(2) 0.7669(3) 0.16084(16)
H5D H 1.2468 0.8585 0.1480
H6D H 1.2630 0.7038 0.1284
C5D C 1.1229(2) 0.7514(3) 0.14046(16)
H7D H 1.1017 0.6631 0.1595
H8D H 1.1155 0.7534 0.0814
C6D C 1.06175(18) 0.8580(2) 0.17702(14)
Cl1D Cl 0.96990(5) 0.75703(6) 0.46170(4)
N1D N 1.20166(14) 0.6240(2) 0.42153(12)
N2D N 1.16651(15) 0.5191(2) 0.46581(12)
N3D N 1.22631(15) 0.4199(2) 0.46655(12)
N4D N 1.30313(15) 0.4568(2) 0.42256(12)
N4F N 0.80313(15) 0.0432(2) 0.57744(12)
N4B N 1.19687(15) 0.9568(2) 0.42256(12)
N5D N 1.04539(15) 0.8742(2) 0.25696(12)
N6D N 0.98632(15) 0.9813(2) 0.26422(13)
N7D N 0.96862(16) 1.0291(2) 0.19132(12)
N8D N 1.01553(15) 0.9522(2) 0.13524(12)
N8C N 1.01553(15) 0.5478(2) 0.63524(12)
N8G N 0.98447(15) 0.4522(2) 0.36476(12)
O1D O 1.24013(14) 0.73991(19) 0.24668(10)
loop_
_geom_bond_atom_site_label_1
_geom_bond_atom_site_label_2
_geom_bond_site_symmetry_1
_geom_bond_site_symmetry_2
Cd1 Cl1 1_555 1_555
Cd2 Cl1 1_555 1_555
C1 C2 1_555 1_555
C2 H1 1_555 1_555
H2 C2 1_555 1_555
C3 C2 1_555 1_555
H3 C3 1_555 1_555
H4 C3 1_555 1_555
C4 H5 1_555 1_555
H6 C4 1_555 1_555
C5 C4 1_555 1_555
H7 C5 1_555 1_555
H8 C5 1_555 1_555
C6 C5 1_555 1_555
N1 Cd1 1_555 1_555
N2 Cd2 1_555 1_555
N3 N2 1_555 1_555
N4 C1 1_555 1_555
N5 Cd1 1_555 1_555
N6 N5 1_555 1_555
N7 N6 1_555 1_555
N8 C6 1_555 1_555
O1 Cd1 1_555 1_555
Cd1D Cl1D 1_555 1_555
Cd1F N4 1_555 1_555
Cd1B N4D 1_555 1_555
Cd2C N8 1_555 1_555
Cd2C_2 N8D 1_555 1_555
C1D C2D 1_555 1_555
C2D H1D 1_555 1_555
H2D C2D 1_555 1_555
C3D C2D 1_555 1_555
H3D C3D 1_555 1_555
H4D C3D 1_555 1_555
C4D H5D 1_555 1_555
H6D C4D 1_555 1_555
C5D C4D 1_555 1_555
H7D C5D 1_555 1_555
H8D C5D 1_555 1_555
C6D C5D 1_555 1_555
Cl1D Cd2 1_555 1_555
N1D Cd1D 1_555 1_555
N2D Cd2 1_555 1_555
N3D N2D 1_555 1_555
N4D C1D 1_555 1_555
N4F Cd1 1_555 1_555
N4B Cd1D 1_555 1_555
N5D Cd1D 1_555 1_555
N6D N5D 1_555 1_555
N7D N6D 1_555 1_555
N8D C6D 1_555 1_555
N8C Cd2 1_555 1_555
N8G Cd2 1_555 1_555
O1D Cd1D 1_555 1_555
C1 N1 1_555 1_555
C3 O1 1_555 1_555
C4 O1 1_555 1_555
C6 N5 1_555 1_555
N1 N2 1_555 1_555
N3 N4 1_555 1_555
N7 N8 1_555 1_555
C1D N1D 1_555 1_555
C3D O1D 1_555 1_555
C4D O1D 1_555 1_555
C6D N5D 1_555 1_555
N1D N2D 1_555 1_555
N3D N4D 1_555 1_555
N7D N8D 1_555 1_555

#END
