
#######################################################################
#
#                 Cambridge Crystallographic Data Centre
#                                CCDC 
#
#######################################################################
#
# If this CIF has been generated from an entry in the Cambridge 
# Structural Database, then it will include bibliographic, chemical, 
# crystal, experimental, refinement or atomic coordinate data resulting 
# from the CCDC's data processing and validation procedures.
#
#######################################################################

data_ENIBIN
_symmetry_cell_setting           orthorhombic
_symmetry_space_group_name_H-M   'P b c a'
_symmetry_Int_Tables_number      61
_space_group_name_Hall           '-P 2ac 2ab'
loop_
_symmetry_equiv_pos_site_id
_symmetry_equiv_pos_as_xyz
1 x,y,z
2 1/2-x,-y,1/2+z
3 1/2+x,1/2-y,-z
4 -x,1/2+y,1/2-z
5 -x,-y,-z
6 1/2+x,y,1/2-z
7 1/2-x,1/2+y,z
8 x,1/2-y,1/2+z
_cell_length_a                   14.3329(9)
_cell_length_b                   9.8015(6)
_cell_length_c                   16.5134(10)
_cell_angle_alpha                90
_cell_angle_beta                 90
_cell_angle_gamma                90
_cell_volume                     2319.87
loop_
_atom_site_label
_atom_site_type_symbol
_atom_site_fract_x
_atom_site_fract_y
_atom_site_fract_z
Cd1 Cd 0.39271(3) 0.21474(4) 0.13460(3)
Cd2 Cd 0.5000 0.5000 0.0000
Br1 Br 0.53682(4) 0.22915(6) 0.03840(3)
C1 C 0.2164(3) 0.4141(5) 0.1081(3)
C2 C 0.1505(3) 0.3293(6) 0.1557(3)
H1 H 0.1505 0.2375 0.1336
H2 H 0.0881 0.3660 0.1493
C3 C 0.1730(4) 0.3219(7) 0.2445(4)
H3 H 0.1730 0.4131 0.2674
H4 H 0.1256 0.2688 0.2722
C4 C 0.2761(4) 0.2351(8) 0.3411(4)
H5 H 0.2557 0.1434 0.3544
H6 H 0.2396 0.2990 0.3728
C5 C 0.3776(4) 0.2509(7) 0.3609(4)
H7 H 0.3988 0.3388 0.3413
H8 H 0.3851 0.2501 0.4193
C6 C 0.4380(3) 0.1415(5) 0.3250(3)
N1 N 0.2991(3) 0.3734(4) 0.0817(2)
N2 N 0.3339(3) 0.4772(5) 0.0375(3)
N3 N 0.2750(3) 0.5772(5) 0.0369(3)
N4 N 0.1995(3) 0.5410(5) 0.0822(3)
N5 N 0.4535(3) 0.1259(5) 0.2455(3)
N6 N 0.5123(3) 0.0175(5) 0.2390(3)
N7 N 0.5293(3) -0.0285(5) 0.3107(3)
N8 N 0.4829(3) 0.0482(5) 0.3657(3)
O1 O 0.2621(3) 0.2605(5) 0.2564(3)
Cd1D Cd 0.60729(3) 0.78526(4) -0.13460(3)
Cd1F Cd 0.10729(3) 0.71474(4) 0.13460(3)
Cd1B Cd 0.89271(3) 0.28526(4) -0.13460(3)
Cd2C Cd 0.5000 0.0000 0.5000
Cd2C_2 Cd 0.5000 1.0000 -0.5000
Br1D Br 0.46318(4) 0.77085(6) -0.03840(3)
C1D C 0.7836(3) 0.5859(5) -0.1081(3)
C2D C 0.8495(3) 0.6707(6) -0.1557(3)
H1D H 0.8495 0.7625 -0.1336
H2D H 0.9119 0.6340 -0.1493
C3D C 0.8270(4) 0.6781(7) -0.2445(4)
H3D H 0.8270 0.5869 -0.2674
H4D H 0.8744 0.7312 -0.2722
C4D C 0.7239(4) 0.7649(8) -0.3411(4)
H5D H 0.7443 0.8566 -0.3544
H6D H 0.7604 0.7010 -0.3728
C5D C 0.6224(4) 0.7491(7) -0.3609(4)
H7D H 0.6012 0.6612 -0.3413
H8D H 0.6149 0.7499 -0.4193
C6D C 0.5620(3) 0.8585(5) -0.3250(3)
N1D N 0.7009(3) 0.6266(4) -0.0817(2)
N2D N 0.6661(3) 0.5228(5) -0.0375(3)
N3D N 0.7250(3) 0.4228(5) -0.0369(3)
N4D N 0.8005(3) 0.4590(5) -0.0822(3)
N4F N 0.3005(3) 0.0410(5) 0.0822(3)
N4B N 0.6995(3) 0.9590(5) -0.0822(3)
N5D N 0.5465(3) 0.8741(5) -0.2455(3)
N6D N 0.4877(3) 0.9825(5) -0.2390(3)
N7D N 0.4707(3) 1.0285(5) -0.3107(3)
N8D N 0.5171(3) 0.9518(5) -0.3657(3)
N8C N 0.5171(3) 0.5482(5) 0.1343(3)
N8G N 0.4829(3) 0.4518(5) -0.1343(3)
O1D O 0.7379(3) 0.7395(5) -0.2564(3)
loop_
_geom_bond_atom_site_label_1
_geom_bond_atom_site_label_2
_geom_bond_site_symmetry_1
_geom_bond_site_symmetry_2
Cd1 Br1 1_555 1_555
Cd2 Br1 1_555 1_555
C1 C2 1_555 1_555
C2 H1 1_555 1_555
H2 C2 1_555 1_555
C3 C2 1_555 1_555
H3 C3 1_555 1_555
H4 C3 1_555 1_555
C4 H5 1_555 1_555
H6 C4 1_555 1_555
C5 C4 1_555 1_555
H7 C5 1_555 1_555
H8 C5 1_555 1_555
C6 C5 1_555 1_555
N1 Cd1 1_555 1_555
N2 Cd2 1_555 1_555
N3 N2 1_555 1_555
N4 C1 1_555 1_555
N5 Cd1 1_555 1_555
N6 N5 1_555 1_555
N7 N6 1_555 1_555
N8 C6 1_555 1_555
O1 Cd1 1_555 1_555
Cd1D Br1D 1_555 1_555
Cd1F N4 1_555 1_555
Cd1B N4D 1_555 1_555
Cd2C N8 1_555 1_555
Cd2C_2 N8D 1_555 1_555
Br1D Cd2 1_555 1_555
C1D C2D 1_555 1_555
C2D H1D 1_555 1_555
H2D C2D 1_555 1_555
C3D C2D 1_555 1_555
H3D C3D 1_555 1_555
H4D C3D 1_555 1_555
C4D H5D 1_555 1_555
H6D C4D 1_555 1_555
C5D C4D 1_555 1_555
H7D C5D 1_555 1_555
H8D C5D 1_555 1_555
C6D C5D 1_555 1_555
N1D Cd1D 1_555 1_555
N2D Cd2 1_555 1_555
N3D N2D 1_555 1_555
N4D C1D 1_555 1_555
N4F Cd1 1_555 1_555
N4B Cd1D 1_555 1_555
N5D Cd1D 1_555 1_555
N6D N5D 1_555 1_555
N7D N6D 1_555 1_555
N8D C6D 1_555 1_555
N8C Cd2 1_555 1_555
N8G Cd2 1_555 1_555
O1D Cd1D 1_555 1_555
C1 N1 1_555 1_555
C3 O1 1_555 1_555
C4 O1 1_555 1_555
C6 N5 1_555 1_555
N1 N2 1_555 1_555
N3 N4 1_555 1_555
N7 N8 1_555 1_555
C1D N1D 1_555 1_555
C3D O1D 1_555 1_555
C4D O1D 1_555 1_555
C6D N5D 1_555 1_555
N1D N2D 1_555 1_555
N3D N4D 1_555 1_555
N7D N8D 1_555 1_555

#END
