
#######################################################################
#
#                 Cambridge Crystallographic Data Centre
#                                CCDC 
#
#######################################################################
#
# If this CIF has been generated from an entry in the Cambridge 
# Structural Database, then it will include bibliographic, chemical, 
# crystal, experimental, refinement or atomic coordinate data resulting 
# from the CCDC's data processing and validation procedures.
#
#######################################################################

data_ENIBOS
_symmetry_cell_setting           orthorhombic
_symmetry_space_group_name_H-M   'P b c a'
_symmetry_Int_Tables_number      61
_space_group_name_Hall           '-P 2ac 2ab'
loop_
_symmetry_equiv_pos_site_id
_symmetry_equiv_pos_as_xyz
1 x,y,z
2 1/2+x,y,1/2-z
3 x,1/2-y,1/2+z
4 1/2-x,1/2+y,z
5 -x,-y,-z
6 1/2-x,-y,1/2+z
7 -x,1/2+y,1/2-z
8 1/2+x,1/2-y,-z
_cell_length_a                   13.2501(11)
_cell_length_b                   11.2014(9)
_cell_length_c                   19.5229(15)
_cell_angle_alpha                90
_cell_angle_beta                 90
_cell_angle_gamma                90
_cell_volume                     2897.58
loop_
_atom_site_label
_atom_site_type_symbol
_atom_site_fract_x
_atom_site_fract_y
_atom_site_fract_z
C1 C -0.0771(3) -0.3662(3) 1.01128(19)
Cu1 Cu 0.24076(3) 0.05464(4) 0.97909(2)
C2 C 0.2247(3) 0.1088(3) 0.88641(18)
N1 N 0.2126(2) 0.1448(3) 0.83136(16)
C3 C 0.2304(3) 0.1446(3) 1.06253(18)
Sn1 Sn 0.21237(2) 0.22535(2) 0.721920(12)
C4 C 0.1340(3) 0.0731(3) 0.68559(19)
H1 H 0.1482 0.0049 0.7155
H2 H 0.1562 0.0547 0.6389
H3 H 0.0613 0.0892 0.6856
C5 C 0.3722(3) 0.2290(3) 0.72826(19)
H4 H 0.3993 0.2778 0.6909
H5 H 0.3985 0.1475 0.7245
H6 H 0.3926 0.2633 0.7723
C6 C 0.1312(3) 0.3759(3) 0.7573(2)
H7 H 0.1786 0.4360 0.7744
H8 H 0.0856 0.3516 0.7943
H9 H 0.0917 0.4097 0.7195
N2 N 0.2199(2) 0.1947(3) 1.11377(16)
N3 N 0.1341(2) -0.0870(2) 0.99093(15)
N4 N -0.1348(2) -0.4412(3) 1.01672(16)
C7 C -0.0040(3) -0.2704(3) 1.00468(18)
C8 C 0.0787(3) -0.0995(3) 1.04761(18)
H10 H 0.0882 -0.0436 1.0836
C9 C 0.0084(3) -0.1888(3) 1.05693(19)
H11 H -0.0301 -0.1940 1.0979
C10 C 0.1219(3) -0.1674(3) 0.94161(19)
H12 H 0.1620 -0.1608 0.9015
C11 C 0.0534(3) -0.2604(3) 0.94600(19)
H13 H 0.0462 -0.3160 0.9096
N4G N 0.3652(2) -0.0588(3) 0.98328(16)
N2B N 0.2199(2) 0.3053(3) 0.61377(16)
Sn1B Sn 0.21237(2) 0.27465(2) 1.221920(12)
Cu1G Cu -0.25924(3) -0.55464(4) 1.02091(2)
loop_
_geom_bond_atom_site_label_1
_geom_bond_atom_site_label_2
_geom_bond_site_symmetry_1
_geom_bond_site_symmetry_2
C1 N4 1_555 1_555
Cu1 C2 1_555 1_555
C2 N1 1_555 1_555
N1 Sn1 1_555 1_555
C3 Cu1 1_555 1_555
Sn1 C4 1_555 1_555
C4 H1 1_555 1_555
H2 C4 1_555 1_555
H3 C4 1_555 1_555
C5 Sn1 1_555 1_555
H4 C5 1_555 1_555
H5 C5 1_555 1_555
H6 C5 1_555 1_555
C6 Sn1 1_555 1_555
H7 C6 1_555 1_555
H8 C6 1_555 1_555
H9 C6 1_555 1_555
N2 C3 1_555 1_555
N3 Cu1 1_555 1_555
N4 Cu1G 1_555 1_555
C7 C1 1_555 1_555
C8 N3 1_555 1_555
H10 C8 1_555 1_555
C9 C7 1_555 1_555
H11 C9 1_555 1_555
C10 N3 1_555 1_555
H12 C10 1_555 1_555
C11 C7 1_555 1_555
H13 C11 1_555 1_555
N4G Cu1 1_555 1_555
N2B Sn1 1_555 1_555
Sn1B N2 1_555 1_555
C8 C9 1_555 1_555
C10 C11 1_555 1_555

#END
