
#######################################################################
#
#                 Cambridge Crystallographic Data Centre
#                                CCDC 
#
#######################################################################
#
# If this CIF has been generated from an entry in the Cambridge 
# Structural Database, then it will include bibliographic, chemical, 
# crystal, experimental, refinement or atomic coordinate data resulting 
# from the CCDC's data processing and validation procedures.
#
#######################################################################

data_ENIBAF
_symmetry_cell_setting           orthorhombic
_symmetry_space_group_name_H-M   'P b c a'
_symmetry_Int_Tables_number      61
_space_group_name_Hall           '-P 2ac 2ab'
loop_
_symmetry_equiv_pos_site_id
_symmetry_equiv_pos_as_xyz
1 x,y,z
2 1/2-x,-y,1/2+z
3 1/2+x,1/2-y,-z
4 -x,1/2+y,1/2-z
5 -x,-y,-z
6 1/2+x,y,1/2-z
7 1/2-x,1/2+y,z
8 x,1/2-y,1/2+z
_cell_length_a                   14.207(2)
_cell_length_b                   9.918(3)
_cell_length_c                   16.545(3)
_cell_angle_alpha                90
_cell_angle_beta                 90
_cell_angle_gamma                90
_cell_volume                     2331.27
loop_
_atom_site_label
_atom_site_type_symbol
_atom_site_fract_x
_atom_site_fract_y
_atom_site_fract_z
Cd1 Cd 0.388532(12) 0.259670(17) 0.145790(10)
Cd2 Cd 0.5000 0.5000 0.0000
C1 C 0.21742(17) 0.4586(2) 0.11678(14)
C2 C 0.15207(17) 0.3736(3) 0.16566(15)
H1 H 0.1521 0.2829 0.1438
H2 H 0.0888 0.4092 0.1602
C3 C 0.17682(18) 0.3667(3) 0.25475(16)
H3 H 0.1753 0.4566 0.2778
H4 H 0.1308 0.3119 0.2829
C4 C 0.2841(2) 0.2820(3) 0.35005(16)
H5 H 0.2576 0.1947 0.3635
H6 H 0.2521 0.3496 0.3822
C5 C 0.38732(19) 0.2828(3) 0.36986(17)
H7 H 0.4134 0.3692 0.3539
H8 H 0.3946 0.2748 0.4280
C6 C 0.44281(17) 0.1737(2) 0.33029(14)
N1 N 0.29680(14) 0.4113(2) 0.08550(12)
N2 N 0.33317(14) 0.51330(19) 0.04109(12)
N3 N 0.27801(14) 0.6179(2) 0.04590(12)
N4 N 0.20416(15) 0.5865(2) 0.09449(12)
N5 N 0.45930(14) 0.1650(2) 0.25100(12)
N6 N 0.51472(14) 0.0551(2) 0.24015(13)
N7 N 0.52981(14) 0.0001(2) 0.31035(12)
N8 N 0.48509(14) 0.0727(2) 0.36853(12)
N9 N 0.50308(15) 0.2841(2) 0.05345(13)
N10 N 0.55679(16) 0.1916(2) 0.04253(13)
N11 N 0.6082(2) 0.1035(3) 0.03372(18)
O1 O 0.26903(12) 0.30945(18) 0.26515(10)
Cd1D Cd 0.611468(12) 0.740330(17) -0.145790(10)
Cd1F Cd 0.111468(12) 0.759670(17) 0.145790(10)
Cd1B Cd 0.888532(12) 0.240330(17) -0.145790(10)
Cd2C Cd 0.5000 0.0000 0.5000
Cd2C_2 Cd 0.5000 1.0000 -0.5000
C1D C 0.78258(17) 0.5414(2) -0.11678(14)
C2D C 0.84793(17) 0.6264(3) -0.16566(15)
H1D H 0.8479 0.7171 -0.1438
H2D H 0.9112 0.5908 -0.1602
C3D C 0.82318(18) 0.6333(3) -0.25475(16)
H3D H 0.8247 0.5434 -0.2778
H4D H 0.8692 0.6881 -0.2829
C4D C 0.7159(2) 0.7180(3) -0.35005(16)
H5D H 0.7424 0.8053 -0.3635
H6D H 0.7479 0.6504 -0.3822
C5D C 0.61268(19) 0.7172(3) -0.36986(17)
H7D H 0.5866 0.6308 -0.3539
H8D H 0.6054 0.7252 -0.4280
C6D C 0.55719(17) 0.8263(2) -0.33029(14)
N1D N 0.70320(14) 0.5887(2) -0.08550(12)
N2D N 0.66683(14) 0.48670(19) -0.04109(12)
N3D N 0.72199(14) 0.3821(2) -0.04590(12)
N4D N 0.79584(15) 0.4135(2) -0.09449(12)
N4F N 0.29584(15) 0.0865(2) 0.09449(12)
N4B N 0.70416(15) 0.9135(2) -0.09449(12)
N5D N 0.54070(14) 0.8350(2) -0.25100(12)
N6D N 0.48528(14) 0.9449(2) -0.24015(13)
N7D N 0.47019(14) 0.9999(2) -0.31035(12)
N8D N 0.51491(14) 0.9273(2) -0.36853(12)
N8C N 0.51491(14) 0.5727(2) 0.13147(12)
N8G N 0.48509(14) 0.4273(2) -0.13147(12)
N9D N 0.49692(15) 0.7159(2) -0.05345(13)
N10D N 0.44321(16) 0.8084(2) -0.04253(13)
N11D N 0.3918(2) 0.8965(3) -0.03372(18)
O1D O 0.73097(12) 0.69055(18) -0.26515(10)
loop_
_geom_bond_atom_site_label_1
_geom_bond_atom_site_label_2
_geom_bond_site_symmetry_1
_geom_bond_site_symmetry_2
Cd1 N1 1_555 1_555
Cd2 N2 1_555 1_555
C1 C2 1_555 1_555
C2 H1 1_555 1_555
H2 C2 1_555 1_555
C3 C2 1_555 1_555
H3 C3 1_555 1_555
H4 C3 1_555 1_555
C4 H5 1_555 1_555
H6 C4 1_555 1_555
C5 C4 1_555 1_555
H7 C5 1_555 1_555
H8 C5 1_555 1_555
C6 C5 1_555 1_555
N1 C1 1_555 1_555
N2 N1 1_555 1_555
N3 N2 1_555 1_555
N4 C1 1_555 1_555
N5 Cd1 1_555 1_555
N6 N5 1_555 1_555
N7 N6 1_555 1_555
N8 C6 1_555 1_555
N9 Cd1 1_555 1_555
N10 N9 1_555 1_555
N11 N10 1_555 1_555
O1 Cd1 1_555 1_555
Cd1D N1D 1_555 1_555
Cd1F N4 1_555 1_555
Cd1B N4D 1_555 1_555
Cd2C N8 1_555 1_555
Cd2C_2 N8D 1_555 1_555
C1D C2D 1_555 1_555
C2D H1D 1_555 1_555
H2D C2D 1_555 1_555
C3D C2D 1_555 1_555
H3D C3D 1_555 1_555
H4D C3D 1_555 1_555
C4D H5D 1_555 1_555
H6D C4D 1_555 1_555
C5D C4D 1_555 1_555
H7D C5D 1_555 1_555
H8D C5D 1_555 1_555
C6D C5D 1_555 1_555
N1D C1D 1_555 1_555
N2D Cd2 1_555 1_555
N3D N2D 1_555 1_555
N4D C1D 1_555 1_555
N4F Cd1 1_555 1_555
N4B Cd1D 1_555 1_555
N5D Cd1D 1_555 1_555
N6D N5D 1_555 1_555
N7D N6D 1_555 1_555
N8D C6D 1_555 1_555
N8C Cd2 1_555 1_555
N8G Cd2 1_555 1_555
N9D Cd2 1_555 1_555
N10D N9D 1_555 1_555
N11D N10D 1_555 1_555
O1D Cd1D 1_555 1_555
Cd2 N9 1_555 1_555
C3 O1 1_555 1_555
C4 O1 1_555 1_555
C6 N5 1_555 1_555
N3 N4 1_555 1_555
N7 N8 1_555 1_555
Cd1D N9D 1_555 1_555
C3D O1D 1_555 1_555
C4D O1D 1_555 1_555
C6D N5D 1_555 1_555
N1D N2D 1_555 1_555
N3D N4D 1_555 1_555
N7D N8D 1_555 1_555

#END
