
#######################################################################
#
#                 Cambridge Crystallographic Data Centre
#                                CCDC 
#
#######################################################################
#
# If this CIF has been generated from an entry in the Cambridge 
# Structural Database, then it will include bibliographic, chemical, 
# crystal, experimental, refinement or atomic coordinate data resulting 
# from the CCDC's data processing and validation procedures.
#
#######################################################################

data_ENIBIM
_symmetry_cell_setting           monoclinic
_symmetry_space_group_name_H-M   'P 21/c'
_symmetry_Int_Tables_number      14
_space_group_name_Hall           '-P 2ybc'
loop_
_symmetry_equiv_pos_site_id
_symmetry_equiv_pos_as_xyz
1 x,y,z
2 x,1/2-y,1/2+z
3 -x,-y,-z
4 -x,1/2+y,1/2-z
_cell_length_a                   6.4709(3)
_cell_length_b                   27.5229(13)
_cell_length_c                   9.6059(4)
_cell_angle_alpha                90
_cell_angle_beta                 101.5450(10)
_cell_angle_gamma                90
_cell_volume                     1676.18
loop_
_atom_site_label
_atom_site_type_symbol
_atom_site_fract_x
_atom_site_fract_y
_atom_site_fract_z
Cu1 Cu 0.38144(3) 0.748551(6) 0.581596(18)
C1 C 0.2971(2) 0.74991(4) 0.38259(17)
N1 N 0.2877(2) 0.75041(4) 0.26133(14)
N2 N 0.61319(19) 0.81003(4) 0.63280(13)
C2 C 0.5398(2) 0.85539(5) 0.63980(15)
H1 H 0.3931 0.8608 0.6072
C3 C 0.6651(2) 0.89464(5) 0.69166(15)
H2 H 0.6042 0.9260 0.6935
C4 C 0.8816(2) 0.88817(5) 0.74143(14)
C5 C 0.9589(2) 0.84108(5) 0.73028(16)
H3 H 1.1053 0.8346 0.7595
C6 C 0.8217(2) 0.80426(5) 0.67672(15)
H4 H 0.8786 0.7727 0.6705
C7 C 1.0146(2) 0.92863(5) 0.80378(14)
H5 H 0.9543 0.9602 0.7944
C8 C 1.2157(2) 0.92455(5) 0.87337(15)
H6 H 1.2737 0.8927 0.8813
C9 C 1.3552(2) 0.96365(5) 0.93828(15)
C10 C 1.2918(2) 1.01230(5) 0.94213(15)
H7 H 1.1500 1.0211 0.9032
C11 C 1.5661(2) 0.95247(5) 0.99790(15)
H8 H 1.6123 0.9197 0.9970
N3 N 0.6160(2) 0.69175(5) 0.63970(13)
C12 C 0.6401(3) 0.66890(5) 0.76542(16)
H9 H 0.5382 0.6746 0.8224
C13 C 0.8041(3) 0.63767(5) 0.81653(16)
H10 H 0.8122 0.6223 0.9060
C14 C 0.9589(2) 0.62860(5) 0.73666(15)
C15 C 0.9358(2) 0.65307(5) 0.60710(15)
H11 H 1.0381 0.6491 0.5496
C16 C 0.7638(2) 0.68315(5) 0.56257(15)
H12 H 0.7496 0.6985 0.4726
C17 C 1.1356(2) 0.59545(5) 0.78207(15)
H13 H 1.2418 0.5945 0.7267
C18 C 1.1598(2) 0.56619(5) 0.89569(15)
H14 H 1.0522 0.5675 0.9499
C19 C 1.3332(2) 0.53255(5) 0.94538(15)
C20 C 1.3287(2) 0.50366(5) 1.06461(15)
H15 H 1.2108 0.5058 1.1094
C21 C 1.5094(2) 0.52790(5) 0.88100(15)
H16 H 1.5170 0.5467 0.7992
C11B C 1.4339(2) 1.04753(5) 1.00210(15)
C9B C 1.6448(2) 1.03635(5) 1.06172(15)
C8B C 1.7843(2) 1.07545(5) 1.12663(15)
C7B C 1.9854(2) 1.07137(5) 1.19622(14)
C4B C 2.1184(2) 1.11183(5) 1.25857(14)
C3B C 2.3349(2) 1.10536(5) 1.30834(15)
C2B C 2.4602(2) 1.14461(5) 1.36020(15)
N2B N 2.38681(19) 1.18997(4) 1.36720(13)
C6B C 2.1783(2) 1.19574(5) 1.32328(15)
C5B C 2.0411(2) 1.15892(5) 1.26972(16)
H3B H 1.8947 1.1654 1.2405
H4B H 2.1214 1.2273 1.3295
H1B H 2.6069 1.1392 1.3928
H2B H 2.3958 1.0740 1.3065
H5B H 2.0457 1.0398 1.2056
H6B H 1.7263 1.1073 1.1187
C10B C 1.7082(2) 0.98770(5) 1.05787(15)
H7B H 1.8500 0.9789 1.0968
H8B H 1.3877 1.0803 1.0030
C21B C 1.4906(2) 0.47210(5) 1.11900(15)
C19B C 1.6668(2) 0.46745(5) 1.05462(15)
C18B C 1.8402(2) 0.43381(5) 1.10431(15)
C17B C 1.8644(2) 0.40455(5) 1.21793(15)
C14B C 2.0411(2) 0.37140(5) 1.26334(15)
C13B C 2.1959(3) 0.36233(5) 1.18347(16)
C12B C 2.3599(3) 0.33110(5) 1.23458(16)
N3B N 2.3840(2) 0.30825(5) 1.36030(13)
C16B C 2.2362(2) 0.31685(5) 1.43743(15)
C15B C 2.0642(2) 0.34693(5) 1.39290(15)
H11B H 1.9619 0.3509 1.4504
H12B H 2.2504 0.3015 1.5274
H9B H 2.4618 0.3254 1.1776
H10B H 2.1878 0.3777 1.0940
H13B H 1.7582 0.4055 1.2733
H14B H 1.9478 0.4325 1.0501
C20B C 1.6713(2) 0.49634(5) 0.93539(15)
H15B H 1.7892 0.4942 0.8906
H16B H 1.4830 0.4533 1.2008
C1A C 0.2971(2) 0.75009(4) 0.88259(17)
N1A N 0.2877(2) 0.74959(4) 0.76133(14)
Cu1A Cu 0.38144(3) 0.751449(6) 1.081596(18)
Cu1A_2 Cu 0.38144(3) 0.751449(6) 0.081596(18)
Cu1B Cu 2.61856(3) 1.251449(6) 1.418404(18)
Cu1B_2 Cu 2.61856(3) 0.251449(6) 1.418404(18)
N1_2 N 0.2877(2) 0.75041(4) 1.26133(14)
N2A N 0.61319(19) 0.68997(4) 1.13280(13)
N3A N 0.6160(2) 0.80825(5) 1.13970(13)
loop_
_geom_bond_atom_site_label_1
_geom_bond_atom_site_label_2
_geom_bond_site_symmetry_1
_geom_bond_site_symmetry_2
Cu1 C1 1_555 1_555
C1 N1 1_555 1_555
N1 Cu1A_2 1_555 1_555
N2 Cu1 1_555 1_555
C2 N2 1_555 1_555
H1 C2 1_555 1_555
C3 C2 1_555 1_555
H2 C3 1_555 1_555
C4 C3 1_555 1_555
C5 C4 1_555 1_555
H3 C5 1_555 1_555
C6 N2 1_555 1_555
H4 C6 1_555 1_555
C7 C4 1_555 1_555
H5 C7 1_555 1_555
C8 C7 1_555 1_555
H6 C8 1_555 1_555
C9 C8 1_555 1_555
C10 C9 1_555 1_555
H7 C10 1_555 1_555
C11 C9 1_555 1_555
H8 C11 1_555 1_555
N3 Cu1 1_555 1_555
C12 N3 1_555 1_555
H9 C12 1_555 1_555
C13 C12 1_555 1_555
H10 C13 1_555 1_555
C14 C13 1_555 1_555
C15 C14 1_555 1_555
H11 C15 1_555 1_555
C16 N3 1_555 1_555
H12 C16 1_555 1_555
C17 C14 1_555 1_555
H13 C17 1_555 1_555
C18 C17 1_555 1_555
H14 C18 1_555 1_555
C19 C18 1_555 1_555
C20 C19 1_555 1_555
H15 C20 1_555 1_555
C21 C19 1_555 1_555
H16 C21 1_555 1_555
C11B C10 1_555 1_555
C9B C11B 1_555 1_555
C8B C9B 1_555 1_555
C7B C8B 1_555 1_555
C4B C7B 1_555 1_555
C3B C4B 1_555 1_555
C2B C3B 1_555 1_555
N2B C2B 1_555 1_555
C6B N2B 1_555 1_555
C5B C4B 1_555 1_555
H3B C5B 1_555 1_555
H4B C6B 1_555 1_555
H1B C2B 1_555 1_555
H2B C3B 1_555 1_555
H5B C7B 1_555 1_555
H6B C8B 1_555 1_555
C10B C11 1_555 1_555
H7B C10B 1_555 1_555
H8B C11B 1_555 1_555
C21B C20 1_555 1_555
C19B C21B 1_555 1_555
C18B C19B 1_555 1_555
C17B C18B 1_555 1_555
C14B C17B 1_555 1_555
C13B C14B 1_555 1_555
C12B C13B 1_555 1_555
N3B C12B 1_555 1_555
C16B N3B 1_555 1_555
C15B C14B 1_555 1_555
H11B C15B 1_555 1_555
H12B C16B 1_555 1_555
H9B C12B 1_555 1_555
H10B C13B 1_555 1_555
H13B C17B 1_555 1_555
H14B C18B 1_555 1_555
C20B C21 1_555 1_555
H15B C20B 1_555 1_555
H16B C21B 1_555 1_555
C1A N1A 1_555 1_555
N1A Cu1 1_555 1_555
Cu1A C1A 1_555 1_555
Cu1B N2B 1_555 1_555
Cu1B_2 N3B 1_555 1_555
N1_2 Cu1A 1_555 1_555
N2A Cu1A 1_555 1_555
N3A Cu1A 1_555 1_555
C5 C6 1_555 1_555
C15 C16 1_555 1_555
C9B C10B 1_555 1_555
C6B C5B 1_555 1_555
C19B C20B 1_555 1_555
C16B C15B 1_555 1_555

#END
