
#######################################################################
#
#                 Cambridge Crystallographic Data Centre
#                                CCDC 
#
#######################################################################
#
# If this CIF has been generated from an entry in the Cambridge 
# Structural Database, then it will include bibliographic, chemical, 
# crystal, experimental, refinement or atomic coordinate data resulting 
# from the CCDC's data processing and validation procedures.
#
#######################################################################

data_ENIBAE
_symmetry_cell_setting           orthorhombic
_symmetry_space_group_name_H-M   'P c a 21'
_symmetry_Int_Tables_number      29
_space_group_name_Hall           'P 2c -2ac'
loop_
_symmetry_equiv_pos_site_id
_symmetry_equiv_pos_as_xyz
1 x,y,z
2 -x,-y,1/2+z
3 1/2+x,-y,z
4 1/2-x,y,1/2+z
_cell_length_a                   14.4166(11)
_cell_length_b                   10.8141(8)
_cell_length_c                   17.8373(13)
_cell_angle_alpha                90
_cell_angle_beta                 90
_cell_angle_gamma                90
_cell_volume                     2780.88
loop_
_atom_site_label
_atom_site_type_symbol
_atom_site_fract_x
_atom_site_fract_y
_atom_site_fract_z
Cu1 Cu 0.16304(2) 0.15758(3) 0.40234(2)
C1 C 0.0928(2) 0.1330(3) 0.31051(17)
N1 N 0.0542(2) 0.0920(3) 0.26050(15)
Sn1 Sn -0.034841(15) 0.034899(18) 0.157561(11)
C2 C 0.0110(3) 0.1971(3) 0.10300(19)
H1 H -0.0315 0.2172 0.0619
H2 H 0.0735 0.1837 0.0829
H3 H 0.0123 0.2657 0.1389
C3 C 0.0447(3) -0.1294(4) 0.1427(2)
H4 H 0.0889 -0.1377 0.1841
H5 H 0.0786 -0.1248 0.0952
H6 H 0.0032 -0.2011 0.1420
C4 C -0.1582(3) 0.0389(3) 0.2211(2)
H7 H -0.1542 0.1047 0.2587
H8 H -0.1666 -0.0409 0.2463
H9 H -0.2110 0.0546 0.1879
C5 C 0.1375(2) 0.0715(3) 0.49409(17)
N2 N 0.1168(2) 0.0216(3) 0.54837(16)
Cu2 Cu 0.07459(2) 0.35075(3) 0.34783(2)
C6 C 0.0985(2) 0.4323(3) 0.25396(18)
N3 N 0.1220(2) 0.4721(3) 0.19691(16)
Sn2 Sn 0.282870(15) 0.450230(18) 0.589980(11)
C7 C 0.2337(3) 0.2818(4) 0.6372(2)
H10 H 0.1683 0.2911 0.6511
H11 H 0.2399 0.2152 0.6003
H12 H 0.2703 0.2616 0.6818
C8 C 0.3974(3) 0.4582(3) 0.5159(2)
H13 H 0.4530 0.4833 0.5437
H14 H 0.4076 0.3765 0.4936
H15 H 0.3848 0.5185 0.4762
C9 C 0.2132(3) 0.6173(4) 0.6166(2)
H16 H 0.1567 0.5986 0.6449
H17 H 0.2540 0.6698 0.6469
H18 H 0.1969 0.6607 0.5702
C10 C 0.1451(2) 0.3761(3) 0.43840(17)
N4 N 0.1843(2) 0.4140(3) 0.48959(16)
C11 C 0.3638(2) 0.1086(3) 0.41570(19)
H19 H 0.3418 0.0470 0.4492
C12 C 0.4577(2) 0.1148(3) 0.4018(2)
H20 H 0.4985 0.0573 0.4250
C13 C 0.49265(19) 0.2044(3) 0.35434(18)
C14 C 0.4291(2) 0.2850(3) 0.32197(19)
H21 H 0.4497 0.3488 0.2893
C15 C 0.3351(2) 0.2714(3) 0.33776(19)
H22 H 0.2925 0.3262 0.3143
C16 C 0.5951(2) 0.2169(3) 0.34107(19)
H23 H 0.6057 0.2687 0.2961
H24 H 0.6219 0.1341 0.3313
C17 C 0.64381(19) 0.2749(3) 0.40789(19)
H25 H 0.6158 0.3566 0.4184
H26 H 0.6344 0.2220 0.4525
C18 C 0.7465(2) 0.2906(3) 0.39426(17)
C19 C 0.8121(2) 0.2288(3) 0.43682(18)
H27 H 0.7931 0.1758 0.4764
C20 C 0.9059(2) 0.2446(3) 0.42135(18)
H28 H 0.9501 0.2018 0.4511
C21 C 0.8729(2) 0.3761(3) 0.32421(17)
H29 H 0.8936 0.4263 0.2838
C22 C 0.7786(2) 0.3663(3) 0.33721(19)
H30 H 0.7360 0.4113 0.3071
N5 N 0.93630(17) 0.3180(2) 0.36612(13)
N6 N 0.30197(16) 0.1854(2) 0.38413(13)
N2A N -0.1168(2) -0.0216(3) 0.04837(16)
Sn1A Sn 0.034841(15) -0.034899(18) 0.657561(11)
N5_2 N -0.06370(17) 0.3180(2) 0.36612(13)
Sn2C Sn 0.217130(15) 0.450230(18) 0.089980(11)
N3C N 0.3780(2) 0.4721(3) 0.69691(16)
Cu2_2 Cu 1.07459(2) 0.35075(3) 0.34783(2)
loop_
_geom_bond_atom_site_label_1
_geom_bond_atom_site_label_2
_geom_bond_site_symmetry_1
_geom_bond_site_symmetry_2
Cu1 C1 1_555 1_555
C1 N1 1_555 1_555
N1 Sn1 1_555 1_555
Sn1 C2 1_555 1_555
C2 H1 1_555 1_555
H2 C2 1_555 1_555
H3 C2 1_555 1_555
C3 Sn1 1_555 1_555
H4 C3 1_555 1_555
H5 C3 1_555 1_555
H6 C3 1_555 1_555
C4 Sn1 1_555 1_555
H7 C4 1_555 1_555
H8 C4 1_555 1_555
H9 C4 1_555 1_555
C5 Cu1 1_555 1_555
N2 C5 1_555 1_555
Cu2 C1 1_555 1_555
C6 Cu2 1_555 1_555
N3 C6 1_555 1_555
Sn2 C7 1_555 1_555
C7 H10 1_555 1_555
H11 C7 1_555 1_555
H12 C7 1_555 1_555
C8 Sn2 1_555 1_555
H13 C8 1_555 1_555
H14 C8 1_555 1_555
H15 C8 1_555 1_555
C9 Sn2 1_555 1_555
H16 C9 1_555 1_555
H17 C9 1_555 1_555
H18 C9 1_555 1_555
C10 Cu1 1_555 1_555
N4 Sn2 1_555 1_555
C11 H19 1_555 1_555
C12 C11 1_555 1_555
H20 C12 1_555 1_555
C13 C12 1_555 1_555
C14 C13 1_555 1_555
H21 C14 1_555 1_555
C15 C14 1_555 1_555
H22 C15 1_555 1_555
C16 C13 1_555 1_555
H23 C16 1_555 1_555
H24 C16 1_555 1_555
C17 C16 1_555 1_555
H25 C17 1_555 1_555
H26 C17 1_555 1_555
C18 C17 1_555 1_555
C19 C18 1_555 1_555
H27 C19 1_555 1_555
C20 C19 1_555 1_555
H28 C20 1_555 1_555
C21 H29 1_555 1_555
C22 C18 1_555 1_555
H30 C22 1_555 1_555
N5 C20 1_555 1_555
N6 Cu1 1_555 1_555
N2A Sn1 1_555 1_555
Sn1A N2 1_555 1_555
N5_2 Cu2 1_555 1_555
Sn2C N3 1_555 1_555
N3C Sn2 1_555 1_555
Cu2_2 N5 1_555 1_555
Cu2 C10 1_555 1_555
C10 N4 1_555 1_555
C11 N6 1_555 1_555
C15 N6 1_555 1_555
C21 N5 1_555 1_555
C21 C22 1_555 1_555

#END
