
#######################################################################
#
#                 Cambridge Crystallographic Data Centre
#                                CCDC 
#
#######################################################################
#
# If this CIF has been generated from an entry in the Cambridge 
# Structural Database, then it will include bibliographic, chemical, 
# crystal, experimental, refinement or atomic coordinate data resulting 
# from the CCDC's data processing and validation procedures.
#
#######################################################################

data_ENIDIP
_symmetry_cell_setting           triclinic
_symmetry_space_group_name_H-M   'P -1'
_symmetry_Int_Tables_number      2
_space_group_name_Hall           '-P 1'
loop_
_symmetry_equiv_pos_site_id
_symmetry_equiv_pos_as_xyz
1 x,y,z
2 -x,-y,-z
_cell_length_a                   12.5796(14)
_cell_length_b                   14.4500(16)
_cell_length_c                   23.372(3)
_cell_angle_alpha                75.346(4)
_cell_angle_beta                 77.537(4)
_cell_angle_gamma                68.735(4)
_cell_volume                     3793.96
loop_
_atom_site_label
_atom_site_type_symbol
_atom_site_fract_x
_atom_site_fract_y
_atom_site_fract_z
O1 O 0.9959(5) 0.9236(4) 1.0504(3)
O2 O 0.7611(6) 0.7920(5) 0.7979(3)
O3 O 0.7139(9) 0.9621(7) 0.8599(4)
O4 O 0.5385(11) 1.4308(13) 0.6943(3)
Ag1 Ag 0.72169(5) 1.45754(4) 0.62306(2)
C41 C 0.6990(6) 1.4735(5) 0.4932(3)
H45 H 0.7399 1.5192 0.4865
C42 C 0.6636(7) 1.4581(6) 0.4454(3)
H46 H 0.6799 1.4933 0.4066
C43 C 0.6035(7) 1.3898(6) 0.4552(3)
H47 H 0.5794 1.3781 0.4231
C44 C 0.5799(5) 1.3393(5) 0.5129(3)
C45 C 0.6177(6) 1.3606(5) 0.5575(3)
H48 H 0.6012 1.3276 0.5969
C46 C 0.5110(6) 1.2696(6) 0.5271(3)
H49 H 0.4833 1.2587 0.5700
H50 H 0.4438 1.3002 0.5056
C47 C 0.5106(8) 1.1057(8) 0.5175(3)
H51 H 0.4908 1.0844 0.5606
H52 H 0.4384 1.1483 0.5020
C48 C 0.5474(14) 1.0262(11) 0.4950(5)
H53 H 0.6149 0.9782 0.5131
H54 H 0.5717 1.0441 0.4520
C49 C 0.9037(6) 1.4796(5) 0.6830(3)
H55 H 0.9538 1.4529 0.6506
C50 C 0.9449(6) 1.5120(6) 0.7196(3)
H56 H 1.0229 1.5073 0.7133
C51 C 0.8716(6) 1.5524(5) 0.7669(3)
H57 H 0.8982 1.5788 0.7917
C52 C 0.7579(5) 1.5536(4) 0.7773(2)
C53 C 0.7221(5) 1.5178(4) 0.7384(2)
H58 H 0.6460 1.5171 0.7453
C54 C 0.6746(6) 1.5943(5) 0.8290(3)
H59 H 0.7061 1.6346 0.8444
H60 H 0.6020 1.6393 0.8147
C55 C 0.5762(5) 1.5526(5) 0.9296(3)
H61 H 0.6177 1.5795 0.9488
H62 H 0.5088 1.6087 0.9163
C56 C 0.5372(8) 1.4782(6) 0.9731(4)
H63 H 0.6039 1.4211 0.9863
H64 H 0.4926 1.4529 0.9549
N26 N 0.6761(5) 1.4246(4) 0.5491(2)
N27 N 0.5817(4) 1.1717(4) 0.5097(2)
H65 H 0.6550 1.1550 0.4966
N28 N 0.7918(4) 1.4840(4) 0.6911(2)
N29 N 0.6517(6) 1.5163(5) 0.8768(3)
H66 H 0.6802 1.4525 0.8746
O4A O 0.4615(11) 0.5692(13) 0.3057(3)
Ag1A Ag 0.27831(5) 0.54246(4) 0.37694(2)
Ag1A_2 Ag 0.27831(5) 1.54246(4) 1.37694(2)
C41A C 0.3010(6) 0.5265(5) 0.5068(3)
H45A H 0.2601 0.4808 0.5135
C42A C 0.3364(7) 0.5419(6) 0.5546(3)
H46A H 0.3201 0.5067 0.5934
C43A C 0.3965(7) 0.6102(6) 0.5448(3)
H47A H 0.4206 0.6219 0.5769
C44A C 0.4201(5) 0.6607(5) 0.4871(3)
C45A C 0.3823(6) 0.6394(5) 0.4425(3)
H48A H 0.3988 0.6724 0.4031
C46A C 0.4890(6) 0.7304(6) 0.4729(3)
H49A H 0.5167 0.7413 0.4300
H50A H 0.5562 0.6998 0.4944
C47A C 0.4894(8) 0.8943(8) 0.4825(3)
H51A H 0.5092 0.9156 0.4394
H52A H 0.5616 0.8517 0.4980
C48A C 0.4526(14) 0.9738(11) 0.5050(5)
H53A H 0.3851 1.0218 0.4869
H54A H 0.4283 0.9559 0.5480
C49A C 0.0963(6) 1.5204(5) 1.3170(3)
H55A H 0.0462 1.5471 1.3494
C50A C 0.0551(6) 1.4880(6) 1.2804(3)
H56A H -0.0229 1.4927 1.2867
C51A C 0.1284(6) 1.4476(5) 1.2331(3)
H57A H 0.1018 1.4212 1.2083
C52A C 0.2421(5) 1.4464(4) 1.2227(2)
C53A C 0.2779(5) 1.4822(4) 1.2616(2)
H58A H 0.3540 1.4829 1.2547
C54A C 0.3254(6) 1.4057(5) 1.1710(3)
H59A H 0.2939 1.3654 1.1556
H60A H 0.3980 1.3607 1.1853
C55A C 0.4238(5) 1.4474(5) 1.0704(3)
H61A H 0.3823 1.4205 1.0512
H62A H 0.4912 1.3913 1.0837
C56A C 0.4628(8) 1.5218(6) 1.0269(4)
H63A H 0.3961 1.5789 1.0137
H64A H 0.5074 1.5471 1.0451
N26A N 0.3239(5) 0.5754(4) 0.4509(2)
N27A N 0.4183(4) 0.8283(4) 0.4903(2)
H65A H 0.3450 0.8450 0.5034
N28A N 0.2082(4) 1.5160(4) 1.3089(2)
N28A_2 N 0.2082(4) 0.5160(4) 0.3089(2)
N29A N 0.3483(6) 1.4837(5) 1.1232(3)
H66A H 0.3198 1.5475 1.1254
O5 O 0.6767(6) 0.9337(4) 0.9727(3)
O6 O 0.7990(9) 0.8679(8) 1.0510(5)
O7 O 0.8583(6) 0.9019(5) 0.9449(4)
N1 N 0.7852(10) 0.9028(8) 0.9897(8)
C1 C 0.6334(5) 0.7241(4) 0.6280(2)
C2 C 0.7514(5) 0.7936(4) 0.6563(2)
H1 H 0.8141 0.7528 0.6807
C3 C 0.6299(4) 0.8216(4) 0.6949(2)
H2 H 0.6356 0.7935 0.7378
C4 C 0.6686(5) 0.9694(5) 0.6453(2)
C5 C 0.4559(5) 0.7643(5) 0.7015(2)
H3 H 0.4466 0.7073 0.6901
H4 H 0.4554 0.7486 0.7449
C6 C 0.4903(5) 0.9914(5) 0.7176(2)
H5 H 0.5004 1.0562 0.7160
H6 H 0.4855 0.9566 0.7594
C7 C 0.2975(5) 0.8629(5) 0.6428(2)
C8 C 0.3159(5) 0.9423(5) 0.7148(2)
H7 H 0.3030 0.9232 0.7589
C9 C 0.2026(5) 1.0042(5) 0.6888(2)
H8 H 0.1346 1.0043 0.7194
C10 C 0.3165(5) 1.1059(5) 0.6713(2)
C11 C 0.1032(5) 0.9680(5) 0.6159(2)
H9 H 0.1082 0.9031 0.6079
H10 H 0.0350 0.9884 0.6453
C12 C 0.1223(5) 1.1896(5) 0.6411(2)
H11 H 0.1347 1.2519 0.6430
H12 H 0.0477 1.1897 0.6647
C13 C 0.1264(5) 1.0156(5) 0.5067(2)
C14 C 0.0415(4) 1.1516(4) 0.5579(2)
C15 C 0.0543(5) 1.1943(4) 0.4878(2)
C16 C 0.1700(5) 1.2467(5) 0.5324(3)
C17 C 0.8703(4) 0.9051(4) 0.5987(2)
H13 H 0.9320 0.8531 0.6196
H14 H 0.8695 0.9711 0.6031
C18 C 0.8303(5) 0.6889(5) 0.5749(3)
H15 H 0.8987 0.6555 0.5953
H16 H 0.8109 0.6360 0.5644
C19 C -0.0809(5) 1.1855(5) 0.5902(2)
H17 H -0.1083 1.2585 0.5863
H18 H -0.0817 1.1541 0.6322
H19 H -0.1307 1.1655 0.5728
C20 C -0.0564(5) 1.2633(5) 0.4650(3)
H20 H -0.0838 1.3243 0.4816
H21 H -0.1136 1.2291 0.4770
H22 H -0.0431 1.2809 0.4218
N2 N 0.7364(4) 0.7379(4) 0.6162(2)
N3 N 0.5678(4) 0.7753(4) 0.67210(18)
N4 N 0.7597(4) 0.8913(3) 0.62789(18)
N5 N 0.5882(4) 0.9311(3) 0.68359(18)
N6 N 0.3595(4) 0.8543(4) 0.68639(18)
N7 N 0.2067(4) 0.9541(3) 0.64182(19)
N8 N 0.3827(4) 1.0102(4) 0.69502(18)
N9 N 0.2110(4) 1.1045(4) 0.6672(2)
N10 N 0.0890(4) 1.0425(3) 0.56152(17)
N11 N 0.8970(4) 0.9000(3) 0.53600(17)
N12 N 0.1179(4) 1.1900(4) 0.5788(2)
N13 N 0.8595(4) 0.7546(4) 0.52013(19)
O8 O 0.6014(4) 0.6756(3) 0.60214(17)
O9 O 0.3179(3) 0.8029(3) 0.61092(16)
O10 O 0.1714(3) 0.9281(3) 0.49794(16)
O11 O 0.6586(3) 1.0605(3) 0.63026(16)
O12 O 0.3496(3) 1.1790(3) 0.65667(17)
O13 O 0.2321(4) 1.2916(4) 0.53740(19)
C1A C 0.3666(5) 1.2759(4) 0.3720(2)
C2A C 0.2486(5) 1.2064(4) 0.3437(2)
H1A H 0.1859 1.2472 0.3193
C3A C 0.3701(4) 1.1784(4) 0.3051(2)
H2A H 0.3644 1.2065 0.2622
C4A C 0.3314(5) 1.0306(5) 0.3547(2)
C5A C 0.5441(5) 1.2357(5) 0.2985(2)
H3A H 0.5534 1.2927 0.3099
H4A H 0.5446 1.2514 0.2551
C6A C 0.5097(5) 1.0086(5) 0.2824(2)
H5A H 0.4996 0.9438 0.2840
H6A H 0.5145 1.0434 0.2406
C7A C 0.7025(5) 1.1371(5) 0.3572(2)
C8A C 0.6841(5) 1.0577(5) 0.2852(2)
H7A H 0.6970 1.0768 0.2411
C9A C 0.7974(5) 0.9958(5) 0.3112(2)
H8A H 0.8654 0.9957 0.2806
C10A C 0.6835(5) 0.8941(5) 0.3287(2)
C11A C 0.8968(5) 1.0320(5) 0.3841(2)
H9A H 0.8918 1.0969 0.3921
H10A H 0.9650 1.0116 0.3547
C12A C 0.8777(5) 0.8104(5) 0.3589(2)
H11A H 0.8653 0.7481 0.3570
H12A H 0.9523 0.8103 0.3353
C13A C 0.8736(5) 0.9844(5) 0.4933(2)
C14A C 0.9585(4) 0.8484(4) 0.4421(2)
C15A C 0.9457(5) 0.8057(4) 0.5122(2)
C16A C 0.8300(5) 0.7533(5) 0.4676(3)
C17A C 0.1297(4) 1.0949(4) 0.4013(2)
H13A H 0.0680 1.1469 0.3804
H14A H 0.1305 1.0289 0.3969
C18A C 0.1697(5) 1.3111(5) 0.4251(3)
H15A H 0.1013 1.3445 0.4047
H16A H 0.1891 1.3640 0.4356
C19A C 1.0809(5) 0.8145(5) 0.4098(2)
H17A H 1.1083 0.7415 0.4137
H18A H 1.0817 0.8459 0.3678
H19A H 1.1307 0.8345 0.4272
C20A C 1.0564(5) 0.7367(5) 0.5350(3)
H20A H 1.0838 0.6757 0.5184
H21A H 1.1136 0.7709 0.5230
H22A H 1.0431 0.7191 0.5782
N2A N 0.2636(4) 1.2621(4) 0.3838(2)
N3A N 0.4322(4) 1.2247(4) 0.32790(18)
N4A N 0.2403(4) 1.1087(3) 0.37211(18)
N5A N 0.4118(4) 1.0689(3) 0.31641(18)
N6A N 0.6405(4) 1.1457(4) 0.31361(18)
N7A N 0.7933(4) 1.0459(3) 0.35818(19)
N8A N 0.6173(4) 0.9898(4) 0.30498(18)
N9A N 0.7890(4) 0.8955(4) 0.3328(2)
N10A N 0.9110(4) 0.9575(3) 0.43848(17)
N11A N 0.1030(4) 1.1000(3) 0.46400(17)
N12A N 0.8821(4) 0.8100(4) 0.4212(2)
N13A N 0.1405(4) 1.2454(4) 0.47987(19)
O8A O 0.3986(4) 1.3244(3) 0.39786(17)
O9A O 0.6821(3) 1.1971(3) 0.38908(16)
O10A O 0.8286(3) 1.0719(3) 0.50206(16)
O11A O 0.3414(3) 0.9395(3) 0.36974(16)
O12A O 0.6504(3) 0.8210(3) 0.34333(17)
O13A O 0.7679(4) 0.7084(4) 0.46260(19)
C21 C 0.1400(4) 1.5095(4) 0.9911(2)
C22 C 0.1244(4) 1.6146(4) 0.8945(2)
C23 C 0.1751(4) 1.4985(4) 0.8896(2)
C24 C 0.3168(5) 1.5759(4) 0.8451(2)
C25 C 0.2042(4) 1.3377(4) 0.9736(2)
H23 H 0.1653 1.3250 1.0144
H24 H 0.1767 1.3078 0.9489
C26 C 0.3710(5) 1.3991(4) 0.8354(2)
H25 H 0.3260 1.3680 0.8217
H26 H 0.4215 1.4214 0.8007
C27 C 0.3742(5) 1.2476(4) 1.0255(2)
C28 C 0.4031(4) 1.2474(4) 0.9222(2)
H27 H 0.3697 1.2111 0.9040
C29 C 0.5139(5) 1.1760(4) 0.9492(2)
H28 H 0.5306 1.1047 0.9465
C30 C 0.5562(5) 1.3032(4) 0.8730(2)
C31 C 0.5560(5) 1.1230(4) 1.0582(2)
H29 H 0.5052 1.1175 1.0962
H30 H 0.5913 1.0554 1.0484
C32 C 0.7223(5) 1.1751(4) 0.9180(2)
H31 H 0.7663 1.1981 0.8806
H32 H 0.7452 1.1012 0.9244
C33 C 0.6437(5) 1.1924(4) 1.1144(2)
C34 C 0.7557(4) 1.1391(4) 1.0269(2)
H33 H 0.7945 1.0664 1.0256
C35 C 0.8234(4) 1.1815(4) 1.0551(2)
H34 H 0.8967 1.1292 1.0656
C36 C 0.8096(5) 1.2693(4) 0.9579(2)
C37 C 0.2206(5) 1.7542(4) 0.8473(2)
H35 H 0.2733 1.7613 0.8102
H36 H 0.1429 1.7978 0.8392
C38 C 0.0695(5) 1.6922(4) 0.9898(2)
H37 H 0.0061 1.7451 0.9707
H38 H 0.0384 1.6699 1.0312
C39 C 0.0146(5) 1.6768(5) 0.8691(2)
H39 H -0.0468 1.6505 0.8907
H40 H 0.0248 1.6735 0.8273
H41 H -0.0053 1.7465 0.8731
C40 C 0.1096(5) 1.4654(5) 0.8552(2)
H42 H 0.1135 1.5013 0.8141
H43 H 0.0297 1.4806 0.8733
H44 H 0.1438 1.3932 0.8562
N14 N 0.1090(4) 1.6081(3) 0.95973(17)
N15 N 0.2221(4) 1.6506(3) 0.86424(17)
N16 N 0.1710(4) 1.4465(3) 0.95163(18)
N17 N 0.2926(4) 1.4871(3) 0.85961(18)
N18 N 0.3259(3) 1.2871(3) 0.97366(17)
N19 N 0.4874(4) 1.1901(3) 1.01159(17)
N20 N 0.4416(4) 1.3233(3) 0.87832(18)
N21 N 0.6010(4) 1.2178(3) 0.91257(18)
N22 N 0.6449(3) 1.1578(3) 1.06522(18)
N23 N 0.2529(4) 1.7896(3) 0.89195(17)
N24 N 0.7506(4) 1.2031(3) 0.96682(17)
N25 N 0.1554(4) 1.7357(3) 0.99057(17)
O14 O 0.1371(3) 1.4851(3) 1.04566(15)
O15 O 0.3253(3) 1.2605(3) 1.07535(15)
O16 O 0.5677(3) 1.2053(3) 1.15682(15)
O17 O 0.4104(3) 1.5850(3) 0.81977(17)
O18 O 0.6129(3) 1.3526(3) 0.83785(18)
O19 O 0.8252(3) 1.3255(3) 0.90973(15)
C21A C 0.8600(4) 1.4905(4) 1.0089(2)
C22A C 0.8756(4) 1.3854(4) 1.1055(2)
C23A C 0.8249(4) 1.5015(4) 1.1104(2)
C24A C 0.6832(5) 1.4241(4) 1.1549(2)
C25A C 0.7958(4) 1.6623(4) 1.0264(2)
H23A H 0.8347 1.6750 0.9856
H24A H 0.8233 1.6922 1.0511
C26A C 0.6290(5) 1.6009(4) 1.1646(2)
H25A H 0.6740 1.6320 1.1783
H26A H 0.5785 1.5786 1.1993
C27A C 0.6258(5) 1.7524(4) 0.9745(2)
C28A C 0.5969(4) 1.7526(4) 1.0778(2)
H27A H 0.6303 1.7889 1.0960
C29A C 0.4861(5) 1.8240(4) 1.0508(2)
H28A H 0.4694 1.8953 1.0535
C30A C 0.4438(5) 1.6968(4) 1.1270(2)
C31A C 0.4440(5) 1.8770(4) 0.9418(2)
H29A H 0.4948 1.8825 0.9038
H30A H 0.4087 1.9446 0.9516
C32A C 0.2777(5) 1.8249(4) 1.0820(2)
H31A H 0.2337 1.8019 1.1194
H32A H 0.2548 1.8988 1.0756
C33A C 0.3563(5) 1.8076(4) 0.8856(2)
C34A C 0.2443(4) 1.8609(4) 0.9731(2)
H33A H 0.2055 1.9336 0.9744
C35A C 0.1766(4) 1.8185(4) 0.9449(2)
H34A H 0.1033 1.8708 0.9344
C36A C 0.1904(5) 1.7307(4) 1.0421(2)
C37A C 0.7794(5) 1.2458(4) 1.1527(2)
H35A H 0.7267 1.2387 1.1898
H36A H 0.8571 1.2022 1.1608
C38A C 0.9305(5) 1.3078(4) 1.0102(2)
H37A H 0.9939 1.2549 1.0293
H38A H 0.9616 1.3301 0.9688
C39A C 0.9854(5) 1.3232(5) 1.1309(2)
H39A H 1.0468 1.3495 1.1093
H40A H 0.9752 1.3265 1.1727
H41A H 1.0053 1.2535 1.1269
C40A C 0.8904(5) 1.5346(5) 1.1448(2)
H42A H 0.8865 1.4987 1.1859
H43A H 0.9703 1.5194 1.1267
H44A H 0.8562 1.6068 1.1438
N14A N 0.8910(4) 1.3919(3) 1.04027(17)
N15A N 0.7779(4) 1.3494(3) 1.13576(17)
N16A N 0.8290(4) 1.5535(3) 1.04837(18)
N17A N 0.7074(4) 1.5129(3) 1.14039(18)
N18A N 0.6741(3) 1.7129(3) 1.02634(17)
N19A N 0.5126(4) 1.8099(3) 0.98841(17)
N20A N 0.5584(4) 1.6767(3) 1.12168(18)
N21A N 0.3990(4) 1.7822(3) 1.08743(18)
N22A N 0.3551(3) 1.8422(3) 0.93478(18)
N23A N 0.7471(4) 1.2104(3) 1.10805(17)
N24A N 0.2494(4) 1.7969(3) 1.03318(17)
N25A N 0.8446(4) 1.2643(3) 1.00943(17)
O14A O 0.8629(3) 1.5149(3) 0.95434(15)
O15A O 0.6747(3) 1.7395(3) 0.92465(15)
O16A O 0.4323(3) 1.7947(3) 0.84318(15)
O17A O 0.5896(3) 1.4150(3) 1.18023(17)
O18A O 0.3871(3) 1.6474(3) 1.16215(18)
O19A O 0.1748(3) 1.6745(3) 1.09027(15)
loop_
_geom_bond_atom_site_label_1
_geom_bond_atom_site_label_2
_geom_bond_site_symmetry_1
_geom_bond_site_symmetry_2
O4 Ag1 1_555 1_555
O5 N1 1_555 1_555
O6 N1 1_555 1_555
O7 N1 1_555 1_555
Ag1 N26 1_555 1_555
C1 N2 1_555 1_555
C2 H1 1_555 1_555
C3 C2 1_555 1_555
H2 C3 1_555 1_555
C4 N4 1_555 1_555
C5 H3 1_555 1_555
H4 C5 1_555 1_555
C6 H5 1_555 1_555
H6 C6 1_555 1_555
C7 N6 1_555 1_555
C8 H7 1_555 1_555
C9 C8 1_555 1_555
H8 C9 1_555 1_555
C10 N8 1_555 1_555
C11 H9 1_555 1_555
H10 C11 1_555 1_555
C12 H11 1_555 1_555
H12 C12 1_555 1_555
C13 N10 1_555 1_555
C14 C15 1_555 1_555
C15 C20 1_555 1_555
C16 N12 1_555 1_555
C17 H13 1_555 1_555
H14 C17 1_555 1_555
C18 H15 1_555 1_555
H16 C18 1_555 1_555
C19 C14 1_555 1_555
H17 C19 1_555 1_555
H18 C19 1_555 1_555
H19 C19 1_555 1_555
C20 H20 1_555 1_555
H21 C20 1_555 1_555
H22 C20 1_555 1_555
C21 N14 1_555 1_555
C22 C23 1_555 1_555
C23 C40 1_555 1_555
C24 N15 1_555 1_555
C25 H23 1_555 1_555
H24 C25 1_555 1_555
C26 H25 1_555 1_555
H26 C26 1_555 1_555
C27 N18 1_555 1_555
C28 H27 1_555 1_555
C29 C28 1_555 1_555
H28 C29 1_555 1_555
C30 N20 1_555 1_555
C31 H29 1_555 1_555
H30 C31 1_555 1_555
C32 H31 1_555 1_555
H32 C32 1_555 1_555
C33 N22 1_555 1_555
C34 H33 1_555 1_555
C35 C34 1_555 1_555
H34 C35 1_555 1_555
C36 N24 1_555 1_555
C37 H35 1_555 1_555
H36 C37 1_555 1_555
C38 H37 1_555 1_555
H38 C38 1_555 1_555
C39 C22 1_555 1_555
H39 C39 1_555 1_555
H40 C39 1_555 1_555
H41 C39 1_555 1_555
C40 H42 1_555 1_555
H43 C40 1_555 1_555
H44 C40 1_555 1_555
C41 H45 1_555 1_555
C42 C41 1_555 1_555
H46 C42 1_555 1_555
C43 C42 1_555 1_555
H47 C43 1_555 1_555
C44 C43 1_555 1_555
C45 C44 1_555 1_555
H48 C45 1_555 1_555
C46 C44 1_555 1_555
H49 C46 1_555 1_555
H50 C46 1_555 1_555
C47 H51 1_555 1_555
H52 C47 1_555 1_555
C48 C47 1_555 1_555
H53 C48 1_555 1_555
H54 C48 1_555 1_555
C49 H55 1_555 1_555
C50 C49 1_555 1_555
H56 C50 1_555 1_555
C51 C50 1_555 1_555
H57 C51 1_555 1_555
C52 C51 1_555 1_555
C53 C52 1_555 1_555
H58 C53 1_555 1_555
C54 C52 1_555 1_555
H59 C54 1_555 1_555
H60 C54 1_555 1_555
C55 H61 1_555 1_555
H62 C55 1_555 1_555
C56 C55 1_555 1_555
H63 C56 1_555 1_555
H64 C56 1_555 1_555
N2 C2 1_555 1_555
N3 C1 1_555 1_555
N4 C2 1_555 1_555
N5 C3 1_555 1_555
N6 C5 1_555 1_555
N7 C7 1_555 1_555
N8 C6 1_555 1_555
N9 C9 1_555 1_555
N10 C11 1_555 1_555
N11 C17 1_555 1_555
N12 C12 1_555 1_555
N13 C18 1_555 1_555
N14 C22 1_555 1_555
N15 C22 1_555 1_555
N16 C21 1_555 1_555
N17 C23 1_555 1_555
N18 C25 1_555 1_555
N19 C27 1_555 1_555
N20 C26 1_555 1_555
N21 C29 1_555 1_555
N22 C31 1_555 1_555
N23 C37 1_555 1_555
N24 C32 1_555 1_555
N25 C38 1_555 1_555
N26 C41 1_555 1_555
N27 C46 1_555 1_555
H65 N27 1_555 1_555
N28 Ag1 1_555 1_555
N29 C54 1_555 1_555
H66 N29 1_555 1_555
O8 C1 1_555 1_555
O9 C7 1_555 1_555
O10 C13 1_555 1_555
O11 C4 1_555 1_555
O12 C10 1_555 1_555
O13 C16 1_555 1_555
O14 C21 1_555 1_555
O15 C27 1_555 1_555
O16 C33 1_555 1_555
O17 C24 1_555 1_555
O18 C30 1_555 1_555
O19 C36 1_555 1_555
O4A Ag1A 1_555 1_555
Ag1A N26A 1_555 1_555
Ag1A_2 N28A 1_555 1_555
C1A N2A 1_555 1_555
C2A H1A 1_555 1_555
C3A C2A 1_555 1_555
H2A C3A 1_555 1_555
C4A N4A 1_555 1_555
C5A H3A 1_555 1_555
H4A C5A 1_555 1_555
C6A H5A 1_555 1_555
H6A C6A 1_555 1_555
C7A N6A 1_555 1_555
C8A H7A 1_555 1_555
C9A C8A 1_555 1_555
H8A C9A 1_555 1_555
C10A N8A 1_555 1_555
C11A H9A 1_555 1_555
H10A C11A 1_555 1_555
C12A H11A 1_555 1_555
H12A C12A 1_555 1_555
C13A N11 1_555 1_555
C14A C15A 1_555 1_555
C15A N11 1_555 1_555
C16A N13 1_555 1_555
C17A H13A 1_555 1_555
H14A C17A 1_555 1_555
C18A H15A 1_555 1_555
H16A C18A 1_555 1_555
C19A C14A 1_555 1_555
H17A C19A 1_555 1_555
H18A C19A 1_555 1_555
H19A C19A 1_555 1_555
C20A C15A 1_555 1_555
H20A C20A 1_555 1_555
H21A C20A 1_555 1_555
H22A C20A 1_555 1_555
C21A N14A 1_555 1_555
C22A C23A 1_555 1_555
C23A C40A 1_555 1_555
C24A N15A 1_555 1_555
C25A H23A 1_555 1_555
H24A C25A 1_555 1_555
C26A H25A 1_555 1_555
H26A C26A 1_555 1_555
C27A N18A 1_555 1_555
C28A H27A 1_555 1_555
C29A C28A 1_555 1_555
H28A C29A 1_555 1_555
C30A N20A 1_555 1_555
C31A H29A 1_555 1_555
H30A C31A 1_555 1_555
C32A H31A 1_555 1_555
H32A C32A 1_555 1_555
C33A N23 1_555 1_555
C34A H33A 1_555 1_555
C35A N23 1_555 1_555
H34A C35A 1_555 1_555
C36A N25 1_555 1_555
C37A H35A 1_555 1_555
H36A C37A 1_555 1_555
C38A H37A 1_555 1_555
H38A C38A 1_555 1_555
C39A C22A 1_555 1_555
H39A C39A 1_555 1_555
H40A C39A 1_555 1_555
H41A C39A 1_555 1_555
C40A H42A 1_555 1_555
H43A C40A 1_555 1_555
H44A C40A 1_555 1_555
C41A H45A 1_555 1_555
C42A C41A 1_555 1_555
H46A C42A 1_555 1_555
C43A C42A 1_555 1_555
H47A C43A 1_555 1_555
C44A C43A 1_555 1_555
C45A C44A 1_555 1_555
H48A C45A 1_555 1_555
C46A C44A 1_555 1_555
H49A C46A 1_555 1_555
H50A C46A 1_555 1_555
C47A H51A 1_555 1_555
H52A C47A 1_555 1_555
C48A C48 1_555 1_555
H53A C48A 1_555 1_555
H54A C48A 1_555 1_555
C49A H55A 1_555 1_555
C50A C49A 1_555 1_555
H56A C50A 1_555 1_555
C51A C50A 1_555 1_555
H57A C51A 1_555 1_555
C52A C51A 1_555 1_555
C53A C52A 1_555 1_555
H58A C53A 1_555 1_555
C54A C52A 1_555 1_555
H59A C54A 1_555 1_555
H60A C54A 1_555 1_555
C55A H61A 1_555 1_555
H62A C55A 1_555 1_555
C56A C56 1_555 1_555
H63A C56A 1_555 1_555
H64A C56A 1_555 1_555
N2A C2A 1_555 1_555
N3A C1A 1_555 1_555
N4A C2A 1_555 1_555
N5A C3A 1_555 1_555
N6A C5A 1_555 1_555
N7A C7A 1_555 1_555
N8A C6A 1_555 1_555
N9A C9A 1_555 1_555
N10A C11A 1_555 1_555
N11A C13 1_555 1_555
N12A C12A 1_555 1_555
N13A C15 1_555 1_555
N14A C22A 1_555 1_555
N15A C22A 1_555 1_555
N16A C21A 1_555 1_555
N17A C23A 1_555 1_555
N18A C25A 1_555 1_555
N19A C27A 1_555 1_555
N20A C26A 1_555 1_555
N21A C29A 1_555 1_555
N22A C31A 1_555 1_555
N23A C33 1_555 1_555
N24A C32A 1_555 1_555
N25A C35 1_555 1_555
N26A C41A 1_555 1_555
N27A C46A 1_555 1_555
H65A N27A 1_555 1_555
N28A C49A 1_555 1_555
N28A_2 Ag1A 1_555 1_555
N29A C54A 1_555 1_555
H66A N29A 1_555 1_555
O8A C1A 1_555 1_555
O9A C7A 1_555 1_555
O10A C13A 1_555 1_555
O11A C4A 1_555 1_555
O12A C10A 1_555 1_555
O13A C16A 1_555 1_555
O14A C21A 1_555 1_555
O15A C27A 1_555 1_555
O16A C33A 1_555 1_555
O17A C24A 1_555 1_555
O18A C30A 1_555 1_555
O19A C36A 1_555 1_555
C3 N3 1_555 1_555
C4 N5 1_555 1_555
C5 N3 1_555 1_555
C6 N5 1_555 1_555
C8 N6 1_555 1_555
C8 N8 1_555 1_555
C9 N7 1_555 1_555
C10 N9 1_555 1_555
C11 N7 1_555 1_555
C12 N9 1_555 1_555
C14 N10 1_555 1_555
C14 N12 1_555 1_555
C15 N11A 1_555 1_555
C16 N13A 1_555 1_555
C17 N4 1_555 1_555
C18 N2 1_555 1_555
C23 N16 1_555 1_555
C24 N17 1_555 1_555
C25 N16 1_555 1_555
C26 N17 1_555 1_555
C28 N18 1_555 1_555
C28 N20 1_555 1_555
C29 N19 1_555 1_555
C30 N21 1_555 1_555
C31 N19 1_555 1_555
C32 N21 1_555 1_555
C34 N22 1_555 1_555
C34 N24 1_555 1_555
C35 N23A 1_555 1_555
C36 N25A 1_555 1_555
C37 N15 1_555 1_555
C38 N14 1_555 1_555
C45 N26 1_555 1_555
C47 N27 1_555 1_555
C49 N28 1_555 1_555
C53 N28 1_555 1_555
C55 N29 1_555 1_555
N13 C15A 1_555 1_555
N25 C35A 1_555 1_555
C3A N3A 1_555 1_555
C4A N5A 1_555 1_555
C5A N3A 1_555 1_555
C6A N5A 1_555 1_555
C8A N6A 1_555 1_555
C8A N8A 1_555 1_555
C9A N7A 1_555 1_555
C10A N9A 1_555 1_555
C11A N7A 1_555 1_555
C12A N9A 1_555 1_555
C13A N10A 1_555 1_555
C14A N10A 1_555 1_555
C14A N12A 1_555 1_555
C16A N12A 1_555 1_555
C17A N4A 1_555 1_555
C17A N11A 1_555 1_555
C18A N2A 1_555 1_555
C18A N13A 1_555 1_555
C23A N16A 1_555 1_555
C24A N17A 1_555 1_555
C25A N16A 1_555 1_555
C26A N17A 1_555 1_555
C28A N18A 1_555 1_555
C28A N20A 1_555 1_555
C29A N19A 1_555 1_555
C30A N21A 1_555 1_555
C31A N19A 1_555 1_555
C32A N21A 1_555 1_555
C33A N22A 1_555 1_555
C34A C35A 1_555 1_555
C34A N22A 1_555 1_555
C34A N24A 1_555 1_555
C36A N24A 1_555 1_555
C37A N15A 1_555 1_555
C37A N23A 1_555 1_555
C38A N14A 1_555 1_555
C38A N25A 1_555 1_555
C45A N26A 1_555 1_555
C47A C48A 1_555 1_555
C47A N27A 1_555 1_555
C53A N28A 1_555 1_555
C55A C56A 1_555 1_555
C55A N29A 1_555 1_555

#END
