
#######################################################################
#
#                 Cambridge Crystallographic Data Centre
#                                CCDC 
#
#######################################################################
#
# If this CIF has been generated from an entry in the Cambridge 
# Structural Database, then it will include bibliographic, chemical, 
# crystal, experimental, refinement or atomic coordinate data resulting 
# from the CCDC's data processing and validation procedures.
#
#######################################################################

data_ENIWOO
_symmetry_cell_setting           triclinic
_symmetry_space_group_name_H-M   'P -1'
_symmetry_Int_Tables_number      2
_space_group_name_Hall           '-P 1'
loop_
_symmetry_equiv_pos_site_id
_symmetry_equiv_pos_as_xyz
1 x,y,z
2 -x,-y,-z
_cell_length_a                   14.538(5)
_cell_length_b                   15.531(5)
_cell_length_c                   16.492(5)
_cell_angle_alpha                89.170(6)
_cell_angle_beta                 84.707(6)
_cell_angle_gamma                73.686(5)
_cell_volume                     3558.3
loop_
_atom_site_label
_atom_site_type_symbol
_atom_site_fract_x
_atom_site_fract_y
_atom_site_fract_z
Cd1 Cd 1.60598(6) 0.66843(5) -0.24861(5)
Cd2 Cd 0.92902(6) 0.81866(5) -0.26283(5)
O1 O 1.6171(10) 0.6961(7) -1.0402(7)
O2 O 1.6039(8) 0.7736(6) -1.1543(7)
O3 O 1.6505(8) 0.6872(6) -0.4554(5)
O4 O 1.6056(7) 0.7751(5) -0.3462(6)
O5 O 2.2093(8) 0.5705(7) -0.6725(8)
O6 O 2.1092(7) 0.5321(6) -0.7487(8)
O7 O 0.8665(8) 0.8082(6) -0.0579(6)
O8 O 0.8956(6) 0.7204(5) -0.1682(5)
O9 O 0.8859(10) 0.8138(7) 0.5339(7)
O10 O 0.9321(7) 0.7223(5) 0.6345(6)
O11 O 0.2399(11) 0.9426(7) 0.2489(13)
O12 O 0.3723(8) 0.9755(6) 0.2599(8)
O13 O 1.0916(9) 0.7735(8) -0.1634(11)
O14 O 1.0940(8) 0.7873(7) -0.2888(9)
O15 O 1.6068(7) 0.5662(5) -0.1437(6)
O16 O 1.6342(6) 0.5594(5) -0.3471(5)
O17 O 0.9079(7) 0.9346(6) -0.3592(6)
O18 O 0.8881(6) 0.9300(6) -0.1663(6)
N1 N 1.6675(8) 0.9810(7) -0.9594(7)
N2 N 1.6357(7) 0.9863(6) -0.5639(6)
N3 N 2.0086(7) 0.8652(6) -0.7435(6)
N4 N 0.8487(8) 0.5173(6) 0.0545(6)
N5 N 0.8382(8) 0.5284(6) 0.4461(6)
N6 N 0.4696(7) 0.6446(6) 0.2651(8)
N7 N 1.4373(8) 0.7016(5) -0.2450(5)
C1 C 1.6656(8) 1.0486(7) -0.7677(7)
C2 C 1.7043(8) 1.0417(7) -0.6897(7)
C3 C 1.8048(8) 1.0148(6) -0.6886(7)
C4 C 1.8675(7) 0.9950(6) -0.7623(6)
C5 C 1.8284(8) 1.0104(7) -0.8364(8)
C6 C 1.7277(8) 1.0386(7) -0.8384(7)
C7 C 1.5589(10) 1.0657(9) -0.7692(9)
H1 H 1.5430 1.0700 -0.8246
H2 H 1.5262 1.1208 -0.7407
H3 H 1.5393 1.0171 -0.7433
C8 C 1.8459(12) 1.0032(10) -0.6069(9)
H4 H 1.7943 1.0186 -0.5642
H5 H 1.8869 1.0416 -0.6034
H6 H 1.8825 0.9418 -0.6011
C9 C 1.8910(11) 0.9966(11) -0.9139(9)
H7 H 1.9572 0.9771 -0.9025
H8 H 1.8795 1.0520 -0.9431
H9 H 1.8769 0.9519 -0.9463
C10 C 1.6411(10) 1.0655(8) -0.6140(9)
H10 H 1.5769 1.0977 -0.6273
H11 H 1.6644 1.1056 -0.5820
C11 C 1.9736(8) 0.9672(8) -0.7566(8)
H12 H 1.9888 0.9986 -0.7116
H13 H 2.0061 0.9827 -0.8063
C12 C 1.6853(12) 1.0599(8) -0.9190(9)
H14 H 1.6249 1.1067 -0.9104
H15 H 1.7287 1.0832 -0.9554
C13 C 1.6676(11) 0.9072(8) -0.9201(9)
H16 H 1.6813 0.9028 -0.8660
C14 C 1.6482(9) 0.8368(8) -0.9560(8)
H17 H 1.6473 0.7854 -0.9266
C15 C 1.6298(9) 0.8429(8) -1.0373(8)
C16 C 1.6252(10) 0.9217(8) -1.0766(8)
H18 H 1.6087 0.9286 -1.1299
C17 C 1.6451(10) 0.9907(8) -1.0369(8)
H19 H 1.6430 1.0442 -1.0638
C18 C 1.6130(10) 0.7636(9) -1.0818(9)
C19 C 1.6261(9) 0.9953(8) -0.4840(7)
H20 H 1.6212 1.0504 -0.4601
C20 C 1.6236(8) 0.9219(8) -0.4357(8)
H21 H 1.6199 0.9277 -0.3793
C21 C 1.6263(8) 0.8415(7) -0.4697(8)
C22 C 1.6324(10) 0.8349(8) -0.5540(8)
H22 H 1.6309 0.7821 -0.5789
C23 C 1.6407(10) 0.9073(9) -0.6006(9)
H23 H 1.6498 0.9020 -0.6571
C24 C 1.6272(9) 0.7603(8) -0.4196(8)
C25 C 2.0568(14) 0.8370(10) -0.6775(11)
H24 H 2.0656 0.8786 -0.6412
C26 C 2.0927(14) 0.7474(10) -0.6641(10)
H25 H 2.1189 0.7270 -0.6157
C27 C 2.0891(9) 0.6873(8) -0.7248(9)
C28 C 2.0316(14) 0.7179(10) -0.7841(13)
H26 H 2.0189 0.6779 -0.8200
C29 C 1.9914(13) 0.8091(10) -0.7914(12)
H27 H 1.9509 0.8300 -0.8322
C30 C 2.1409(11) 0.5851(9) -0.7200(11)
C31 C 0.6750(8) 0.4989(7) 0.1875(8)
C32 C 0.6219(7) 0.5143(7) 0.2613(8)
C33 C 0.6641(9) 0.5052(7) 0.3351(8)
C34 C 0.7660(8) 0.4736(7) 0.3294(7)
C35 C 0.8213(7) 0.4593(6) 0.2535(6)
C36 C 0.7766(9) 0.4680(7) 0.1840(7)
C37 C 0.6242(13) 0.5150(12) 0.1087(10)
H28 H 0.6714 0.5011 0.0625
H29 H 0.5874 0.5768 0.1066
H30 H 0.5821 0.4773 0.1076
C38 C 0.6060(11) 0.5228(11) 0.4173(10)
H31 H 0.6489 0.5119 0.4596
H32 H 0.5653 0.4837 0.4239
H33 H 0.5671 0.5841 0.4205
C39 C 0.9280(9) 0.4348(12) 0.2577(11)
H34 H 0.9598 0.4279 0.2035
H35 H 0.9484 0.3793 0.2862
H36 H 0.9443 0.4813 0.2859
C40 C 0.5143(8) 0.5426(7) 0.2656(10)
H37 H 0.4893 0.5189 0.3148
H38 H 0.4944 0.5163 0.2196
C41 C 0.8150(11) 0.4507(8) 0.4056(8)
H39 H 0.8745 0.4037 0.3931
H40 H 0.7744 0.4267 0.4441
C42 C 0.8310(12) 0.4424(8) 0.1043(9)
H41 H 0.7964 0.4111 0.0734
H42 H 0.8927 0.4005 0.1129
C43 C 0.8469(10) 0.5971(7) 0.0888(7)
H43 H 0.8368 0.6043 0.1451
C44 C 0.8592(9) 0.6643(7) 0.0432(8)
H44 H 0.8594 0.7176 0.0681
C45 C 0.8720(7) 0.6570(7) -0.0411(7)
C46 C 0.8799(8) 0.5736(8) -0.0738(7)
H45 H 0.8940 0.5645 -0.1297
C47 C 0.8676(10) 0.5044(8) -0.0265(8)
H46 H 0.8721 0.4490 -0.0499
C48 C 0.8795(8) 0.7360(8) -0.0930(8)
C49 C 0.8658(8) 0.5175(8) 0.5196(7)
H47 H 0.8693 0.4636 0.5460
C50 C 0.8899(9) 0.5850(9) 0.5584(7)
H48 H 0.9074 0.5763 0.6114
C51 C 0.8887(9) 0.6631(8) 0.5217(7)
C52 C 0.8622(10) 0.6725(8) 0.4441(9)
H49 H 0.8599 0.7255 0.4164
C53 C 0.8385(11) 0.6033(8) 0.4059(9)
H50 H 0.8230 0.6094 0.3523
C54 C 0.9018(10) 0.7407(9) 0.5667(9)
C55 C 0.5189(10) 0.7011(8) 0.2580(11)
H51 H 0.5856 0.6802 0.2566
C56 C 0.4770(9) 0.7912(7) 0.2523(9)
H52 H 0.5153 0.8300 0.2437
C57 C 0.3783(10) 0.8248(8) 0.2593(9)
C58 C 0.3268(12) 0.7653(11) 0.2739(14)
H53 H 0.2600 0.7855 0.2825
C59 C 0.3736(10) 0.6734(9) 0.2761(14)
H54 H 0.3379 0.6324 0.2852
C60 C 0.3290(10) 0.9216(10) 0.2548(11)
C61 C 1.3887(8) 0.7115(8) -0.1714(8)
H55 H 1.4212 0.7017 -0.1247
C62 C 1.2874(10) 0.7372(8) -0.1656(9)
H56 H 1.2522 0.7497 -0.1150
C63 C 1.2404(9) 0.7438(7) -0.2357(8)
C64 C 1.2898(10) 0.7340(8) -0.3051(9)
H57 H 1.2628 0.7438 -0.3546
C65 C 1.3937(8) 0.7056(7) -0.2977(13)
H58 H 1.4306 0.6874 -0.3468
C66 C 1.1447(9) 0.7826(8) -0.2392(11)
O19 O 1.7655(10) 0.6339(7) -0.2496(9)
O20 O 0.7575(6) 0.8532(5) -0.2636(5)
C67 C 1.8412(15) 0.6440(11) -0.2569(11)
C68 C 0.6877(14) 0.8476(16) -0.2490(15)
Cd1_2 Cd 1.60598(6) 0.66843(5) -1.24861(5)
Cd2_2 Cd 0.92902(6) 0.81866(5) 0.73717(5)
O2_2 O 1.6039(8) 0.7736(6) -0.1543(7)
O10_2 O 0.9321(7) 0.7223(5) -0.3655(6)
loop_
_geom_bond_atom_site_label_1
_geom_bond_atom_site_label_2
_geom_bond_site_symmetry_1
_geom_bond_site_symmetry_2
Cd1 O4 1_555 1_555
Cd2 O8 1_555 1_555
O1 C18 1_555 1_555
O2 C18 1_555 1_555
O3 C24 1_555 1_555
O4 C24 1_555 1_555
O5 C30 1_555 1_555
O6 C30 1_555 1_555
O7 C48 1_555 1_555
O8 C48 1_555 1_555
O9 C54 1_555 1_555
O10 C54 1_555 1_555
O11 C60 1_555 1_555
O12 C60 1_555 1_555
O13 C66 1_555 1_555
O14 Cd2 1_555 1_555
O15 Cd1 1_555 1_555
O16 Cd1 1_555 1_555
O17 Cd2 1_555 1_555
O18 Cd2 1_555 1_555
N1 C12 1_555 1_555
N2 C10 1_555 1_555
N3 C11 1_555 1_555
N4 C42 1_555 1_555
N5 C41 1_555 1_555
N6 C40 1_555 1_555
N7 Cd1 1_555 1_555
C1 C2 1_555 1_555
C2 C3 1_555 1_555
C3 C4 1_555 1_555
C4 C5 1_555 1_555
C5 C6 1_555 1_555
C6 C1 1_555 1_555
C7 C1 1_555 1_555
H1 C7 1_555 1_555
H2 C7 1_555 1_555
H3 C7 1_555 1_555
C8 C3 1_555 1_555
H4 C8 1_555 1_555
H5 C8 1_555 1_555
H6 C8 1_555 1_555
C9 C5 1_555 1_555
H7 C9 1_555 1_555
H8 C9 1_555 1_555
H9 C9 1_555 1_555
C10 C2 1_555 1_555
H10 C10 1_555 1_555
H11 C10 1_555 1_555
C11 C4 1_555 1_555
H12 C11 1_555 1_555
H13 C11 1_555 1_555
C12 C6 1_555 1_555
H14 C12 1_555 1_555
H15 C12 1_555 1_555
C13 N1 1_555 1_555
H16 C13 1_555 1_555
C14 C13 1_555 1_555
H17 C14 1_555 1_555
C15 C14 1_555 1_555
C16 C15 1_555 1_555
H18 C16 1_555 1_555
C17 N1 1_555 1_555
H19 C17 1_555 1_555
C18 C15 1_555 1_555
C19 N2 1_555 1_555
H20 C19 1_555 1_555
C20 C19 1_555 1_555
H21 C20 1_555 1_555
C21 C20 1_555 1_555
C22 C21 1_555 1_555
H22 C22 1_555 1_555
C23 N2 1_555 1_555
H23 C23 1_555 1_555
C24 C21 1_555 1_555
C25 N3 1_555 1_555
H24 C25 1_555 1_555
C26 C25 1_555 1_555
H25 C26 1_555 1_555
C27 C26 1_555 1_555
C28 C27 1_555 1_555
H26 C28 1_555 1_555
C29 N3 1_555 1_555
H27 C29 1_555 1_555
C30 C27 1_555 1_555
C31 C32 1_555 1_555
C32 C33 1_555 1_555
C33 C34 1_555 1_555
C34 C35 1_555 1_555
C35 C36 1_555 1_555
C36 C31 1_555 1_555
C37 C31 1_555 1_555
H28 C37 1_555 1_555
H29 C37 1_555 1_555
H30 C37 1_555 1_555
C38 C33 1_555 1_555
H31 C38 1_555 1_555
H32 C38 1_555 1_555
H33 C38 1_555 1_555
C39 C35 1_555 1_555
H34 C39 1_555 1_555
H35 C39 1_555 1_555
H36 C39 1_555 1_555
C40 C32 1_555 1_555
H37 C40 1_555 1_555
H38 C40 1_555 1_555
C41 C34 1_555 1_555
H39 C41 1_555 1_555
H40 C41 1_555 1_555
C42 C36 1_555 1_555
H41 C42 1_555 1_555
H42 C42 1_555 1_555
C43 N4 1_555 1_555
H43 C43 1_555 1_555
C44 C43 1_555 1_555
H44 C44 1_555 1_555
C45 C44 1_555 1_555
C46 C45 1_555 1_555
H45 C46 1_555 1_555
C47 N4 1_555 1_555
H46 C47 1_555 1_555
C48 C45 1_555 1_555
C49 N5 1_555 1_555
H47 C49 1_555 1_555
C50 C49 1_555 1_555
H48 C50 1_555 1_555
C51 C50 1_555 1_555
C52 C51 1_555 1_555
H49 C52 1_555 1_555
C53 N5 1_555 1_555
H50 C53 1_555 1_555
C54 C51 1_555 1_555
C55 N6 1_555 1_555
H51 C55 1_555 1_555
C56 C55 1_555 1_555
H52 C56 1_555 1_555
C57 C56 1_555 1_555
C58 C57 1_555 1_555
H53 C58 1_555 1_555
C59 N6 1_555 1_555
H54 C59 1_555 1_555
C60 C57 1_555 1_555
C61 N7 1_555 1_555
H55 C61 1_555 1_555
C62 C61 1_555 1_555
H56 C62 1_555 1_555
C63 C62 1_555 1_555
C64 C63 1_555 1_555
H57 C64 1_555 1_555
C65 N7 1_555 1_555
H58 C65 1_555 1_555
C66 O14 1_555 1_555
O19 Cd1 1_555 1_555
O20 Cd2 1_555 1_555
C67 O19 1_555 1_555
C68 O20 1_555 1_555
Cd1_2 O2 1_555 1_555
Cd2_2 O10 1_555 1_555
O2_2 Cd1 1_555 1_555
O10_2 Cd2 1_555 1_555
C16 C17 1_555 1_555
C22 C23 1_555 1_555
C28 C29 1_555 1_555
C46 C47 1_555 1_555
C52 C53 1_555 1_555
C58 C59 1_555 1_555
C63 C66 1_555 1_555
C64 C65 1_555 1_555

#END
