
#######################################################################
#
#                 Cambridge Crystallographic Data Centre
#                                CCDC 
#
#######################################################################
#
# If this CIF has been generated from an entry in the Cambridge 
# Structural Database, then it will include bibliographic, chemical, 
# crystal, experimental, refinement or atomic coordinate data resulting 
# from the CCDC's data processing and validation procedures.
#
#######################################################################

data_ENIWEE
_symmetry_cell_setting           monoclinic
_symmetry_space_group_name_H-M   'P 21/c'
_symmetry_Int_Tables_number      14
_space_group_name_Hall           '-P 2ybc'
loop_
_symmetry_equiv_pos_site_id
_symmetry_equiv_pos_as_xyz
1 x,y,z
2 -x,1/2+y,1/2-z
3 -x,-y,-z
4 x,1/2-y,1/2+z
_cell_length_a                   14.6283(13)
_cell_length_b                   15.3950(14)
_cell_length_c                   15.2329(14)
_cell_angle_alpha                90
_cell_angle_beta                 115.038(2)
_cell_angle_gamma                90
_cell_volume                     3108.12
loop_
_atom_site_label
_atom_site_type_symbol
_atom_site_fract_x
_atom_site_fract_y
_atom_site_fract_z
Br1 Br -0.08864(15) 0.20742(16) 0.54224(17)
Zn1 Zn 0.07227(7) 0.24442(6) 0.56544(7)
O1 O 0.8495(5) 0.7429(4) 0.7928(4)
O2 O 0.7089(6) 0.7351(7) 0.8156(5)
O3 O 0.1017(10) 0.4625(6) 0.5735(6)
O4 O 0.0805(5) 0.3446(4) 0.4879(4)
O5 O 0.1629(7) 1.0598(5) 0.5917(6)
O6 O 0.1071(5) 1.1655(4) 0.4829(5)
N1 N 0.5856(5) 0.6850(5) 0.4631(5)
N2 N 0.1330(5) 0.5656(5) 0.2791(5)
N3 N 0.2489(6) 0.9608(5) 0.3247(5)
C1 C 0.4203(6) 0.7013(6) 0.3170(6)
C2 C 0.3395(6) 0.6432(5) 0.2833(6)
C3 C 0.2412(6) 0.6765(5) 0.2447(5)
C4 C 0.2240(6) 0.7662(6) 0.2421(6)
C5 C 0.3070(6) 0.8228(6) 0.2718(6)
C6 C 0.4053(6) 0.7913(6) 0.3092(6)
C7 C 0.4947(7) 0.8520(7) 0.3412(8)
H1 H 0.5559 0.8187 0.3655
H2 H 0.4943 0.8895 0.3914
H3 H 0.4907 0.8863 0.2871
C8 C 0.3563(8) 0.5452(6) 0.2878(8)
H4 H 0.4274 0.5333 0.3146
H5 H 0.3244 0.5213 0.2237
H6 H 0.3279 0.5193 0.3279
C9 C 0.1175(7) 0.8028(7) 0.2067(7)
H7 H 0.1205 0.8650 0.2101
H8 H 0.0866 0.7812 0.2469
H9 H 0.0783 0.7850 0.1409
C10 C 0.2868(8) 0.9197(6) 0.2585(7)
H10 H 0.3489 0.9485 0.2668
H11 H 0.2380 0.9299 0.1923
C11 C 0.1521(6) 0.6147(6) 0.2028(6)
H12 H 0.0921 0.6475 0.1633
H13 H 0.1643 0.5733 0.1609
C12 C 0.5285(6) 0.6658(7) 0.3551(6)
H14 H 0.5267 0.6036 0.3444
H15 H 0.5632 0.6926 0.3200
C13 C 0.7554(8) 0.7338(7) 0.7656(6)
C14 C 0.6956(6) 0.7151(6) 0.6564(6)
C15 C 0.7399(6) 0.7251(6) 0.5936(6)
H16 H 0.8071 0.7419 0.6165
C16 C 0.6831(7) 0.7099(6) 0.4952(6)
H17 H 0.7121 0.7168 0.4518
C17 C 0.5419(7) 0.6739(7) 0.5230(7)
H18 H 0.4751 0.6557 0.4989
C18 C 0.5960(7) 0.6894(8) 0.6218(7)
H19 H 0.5654 0.6825 0.6639
C19 C 0.0974(8) 0.4217(7) 0.5037(7)
C20 C 0.1043(7) 0.4735(6) 0.4189(6)
C21 C 0.1250(8) 0.5620(6) 0.4293(7)
H20 H 0.1285 0.5907 0.4843
C22 C 0.1401(8) 0.6065(6) 0.3604(7)
H21 H 0.1553 0.6655 0.3687
C23 C 0.1067(6) 0.4818(6) 0.2646(6)
H22 H 0.0977 0.4555 0.2066
C24 C 0.0927(6) 0.4338(6) 0.3347(6)
H23 H 0.0755 0.3753 0.3245
C25 C 0.1494(7) 1.0926(6) 0.5151(7)
C26 C 0.1838(7) 1.0460(6) 0.4464(7)
C27 C 0.1529(7) 1.0707(6) 0.3526(7)
H24 H 0.1079 1.1167 0.3286
C28 C 0.1871(7) 1.0289(6) 0.2925(6)
H25 H 0.1671 1.0481 0.2291
C29 C 0.2789(8) 0.9339(6) 0.4161(7)
H26 H 0.3217 0.8863 0.4379
C30 C 0.2481(9) 0.9749(7) 0.4775(7)
H27 H 0.2702 0.9554 0.5409
Zn1_2 Zn 0.07227(7) 1.24442(6) 0.56544(7)
Zn1A Zn 0.92773(7) 0.74442(6) 0.93456(7)
O1A O 0.1505(5) 0.2429(4) 0.7072(4)
O6_2 O 0.1071(5) 0.1655(4) 0.4829(5)
loop_
_geom_bond_atom_site_label_1
_geom_bond_atom_site_label_2
_geom_bond_site_symmetry_1
_geom_bond_site_symmetry_2
Br1 Zn1 1_555 1_555
Zn1 O4 1_555 1_555
O1 C13 1_555 1_555
O2 C13 1_555 1_555
O3 C19 1_555 1_555
O4 C19 1_555 1_555
O5 C25 1_555 1_555
O6 C25 1_555 1_555
N1 C12 1_555 1_555
N2 C11 1_555 1_555
N3 C10 1_555 1_555
C1 C2 1_555 1_555
C2 C3 1_555 1_555
C3 C4 1_555 1_555
C4 C5 1_555 1_555
C5 C6 1_555 1_555
C6 C1 1_555 1_555
C7 C6 1_555 1_555
H1 C7 1_555 1_555
H2 C7 1_555 1_555
H3 C7 1_555 1_555
C8 C2 1_555 1_555
H4 C8 1_555 1_555
H5 C8 1_555 1_555
H6 C8 1_555 1_555
C9 C4 1_555 1_555
H7 C9 1_555 1_555
H8 C9 1_555 1_555
H9 C9 1_555 1_555
C10 C5 1_555 1_555
H10 C10 1_555 1_555
H11 C10 1_555 1_555
C11 C3 1_555 1_555
H12 C11 1_555 1_555
H13 C11 1_555 1_555
C12 C1 1_555 1_555
H14 C12 1_555 1_555
H15 C12 1_555 1_555
C13 C14 1_555 1_555
C14 C15 1_555 1_555
C15 H16 1_555 1_555
C16 N1 1_555 1_555
H17 C16 1_555 1_555
C17 N1 1_555 1_555
H18 C17 1_555 1_555
C18 C14 1_555 1_555
H19 C18 1_555 1_555
C19 C20 1_555 1_555
C20 C21 1_555 1_555
C21 H20 1_555 1_555
C22 N2 1_555 1_555
H21 C22 1_555 1_555
C23 N2 1_555 1_555
H22 C23 1_555 1_555
C24 C20 1_555 1_555
H23 C24 1_555 1_555
C25 C26 1_555 1_555
C26 C27 1_555 1_555
C27 H24 1_555 1_555
C28 N3 1_555 1_555
H25 C28 1_555 1_555
C29 N3 1_555 1_555
H26 C29 1_555 1_555
C30 C26 1_555 1_555
H27 C30 1_555 1_555
Zn1_2 O6 1_555 1_555
Zn1A O1 1_555 1_555
O1A Zn1 1_555 1_555
O6_2 Zn1 1_555 1_555
C15 C16 1_555 1_555
C17 C18 1_555 1_555
C21 C22 1_555 1_555
C23 C24 1_555 1_555
C27 C28 1_555 1_555
C29 C30 1_555 1_555

#END
