
#######################################################################
#
#                 Cambridge Crystallographic Data Centre
#                                CCDC 
#
#######################################################################
#
# If this CIF has been generated from an entry in the Cambridge 
# Structural Database, then it will include bibliographic, chemical, 
# crystal, experimental, refinement or atomic coordinate data resulting 
# from the CCDC's data processing and validation procedures.
#
#######################################################################

data_ENIWII
_symmetry_cell_setting           monoclinic
_symmetry_space_group_name_H-M   'P 21/c'
_symmetry_Int_Tables_number      14
_space_group_name_Hall           '-P 2ybc'
loop_
_symmetry_equiv_pos_site_id
_symmetry_equiv_pos_as_xyz
1 x,y,z
2 -x,1/2+y,1/2-z
3 -x,-y,-z
4 x,1/2-y,1/2+z
_cell_length_a                   31.3519(11)
_cell_length_b                   14.8394(7)
_cell_length_c                   15.1860(4)
_cell_angle_alpha                90
_cell_angle_beta                 118.818(3)
_cell_angle_gamma                90
_cell_volume                     6190.2
loop_
_atom_site_label
_atom_site_type_symbol
_atom_site_fract_x
_atom_site_fract_y
_atom_site_fract_z
Cd2 Cd 0.71186(4) 0.75533(8) 0.95827(7)
Br2 Br 0.79163(7) 0.80839(14) 0.96089(14)
O7 O 0.3370(11) 1.0757(14) 0.5439(13)
O8 O 0.2755(4) 1.1456(8) 0.4346(9)
O9 O 0.3203(7) 0.4472(10) 0.5393(12)
O10 O 0.3055(4) 0.3314(8) 0.4416(8)
O11 O 0.6656(4) 0.7557(8) 0.7946(7)
O12 O 0.6053(4) 0.7886(12) 0.8152(8)
N4 N 0.3227(4) 0.9345(8) 0.2399(8)
N5 N 0.3750(4) 0.5316(7) 0.2918(8)
N6 N 0.5395(4) 0.8151(10) 0.4486(9)
C31 C 0.3733(5) 0.8178(10) 0.2077(10)
C32 C 0.4190(6) 0.8543(9) 0.2524(10)
C33 C 0.4601(5) 0.7953(11) 0.2910(10)
C34 C 0.4528(5) 0.7008(11) 0.2854(10)
C35 C 0.4044(6) 0.6668(10) 0.2371(10)
C36 C 0.3644(5) 0.7263(11) 0.1999(10)
C37 C 0.3294(5) 0.8817(11) 0.1649(11)
H28 H 0.3325 0.9233 0.1192
H29 H 0.3002 0.8464 0.1259
C38 C 0.4272(6) 0.9540(11) 0.2605(13)
H30 H 0.3964 0.9845 0.2330
H31 H 0.4437 0.9712 0.2238
H32 H 0.4467 0.9704 0.3298
C39 C 0.5101(5) 0.8304(11) 0.3376(9)
H33 H 0.5087 0.8947 0.3248
H34 H 0.5269 0.8026 0.3051
C40 C 0.4930(6) 0.6336(12) 0.3180(13)
H35 H 0.4796 0.5738 0.3067
H36 H 0.5153 0.6415 0.3883
H37 H 0.5099 0.6421 0.2801
C41 C 0.3931(6) 0.5677(10) 0.2261(11)
H38 H 0.3690 0.5559 0.1568
H39 H 0.4224 0.5351 0.2393
C42 C 0.3130(5) 0.6911(11) 0.1472(10)
H40 H 0.2906 0.7407 0.1268
H41 H 0.3078 0.6529 0.1921
H42 H 0.3079 0.6572 0.0891
C43 C 0.3027(5) 1.0143(11) 0.2166(9)
H43 H 0.2937 1.0376 0.1532
C44 C 0.2945(5) 1.0652(10) 0.2833(10)
H44 H 0.2796 1.1213 0.2653
C45 C 0.3091(5) 1.0299(10) 0.3764(10)
C46 C 0.3265(7) 0.9399(13) 0.3978(12)
H45 H 0.3315 0.9124 0.4570
C47 C 0.3357(7) 0.8953(11) 0.3332(12)
H46 H 0.3505 0.8389 0.3496
C48 C 0.3041(6) 1.0894(13) 0.4575(11)
C49 C 0.3893(6) 0.5580(11) 0.3845(11)
H47 H 0.4121 0.6041 0.4118
C50 C 0.3716(6) 0.5197(11) 0.4415(11)
H48 H 0.3824 0.5404 0.5067
C51 C 0.3400(5) 0.4552(10) 0.4072(10)
C52 C 0.3233(5) 0.4242(10) 0.3085(11)
H49 H 0.3011 0.3770 0.2829
C53 C 0.3404(5) 0.4650(11) 0.2506(10)
H50 H 0.3286 0.4478 0.1840
C54 C 0.3205(6) 0.4081(12) 0.4686(11)
C55 C 0.5840(6) 0.7820(13) 0.4867(11)
H51 H 0.5956 0.7625 0.4440
C56 C 0.6134(5) 0.7760(11) 0.5897(10)
H52 H 0.6461 0.7608 0.6163
C57 C 0.5936(5) 0.7933(10) 0.6542(9)
C58 C 0.5478(6) 0.8239(14) 0.6153(12)
H53 H 0.5345 0.8379 0.6567
C59 C 0.5198(6) 0.8345(14) 0.5087(11)
H54 H 0.4878 0.8547 0.4804
C60 C 0.6255(6) 0.7805(11) 0.7684(12)
Cd2A Cd 0.28814(4) 1.25533(8) 0.54173(7)
Cd2A_2 Cd 0.28814(4) 0.25533(8) 0.54173(7)
O8A O 0.7245(4) 0.6456(8) 1.0654(9)
O10A O 0.6945(4) 0.8314(8) 1.0584(8)
Cd1 Cd 0.20086(4) 0.74031(7) 0.20009(7)
Br1 Br 0.27968(12) 0.7088(3) 0.3745(2)
O1 O 0.1442(5) -0.1077(10) 0.0949(9)
O2 O 0.2139(5) -0.1495(8) 0.1121(9)
O3 O -0.1006(4) 0.3285(9) -0.1540(8)
O4 O -0.1578(4) 0.2475(9) -0.2739(9)
O5 O 0.2108(4) 0.5279(8) 0.1624(7)
O6 O 0.1941(4) 0.6558(8) 0.0784(7)
N1 N 0.1409(5) 0.0271(8) -0.2062(9)
N2 N -0.0358(4) 0.2861(9) -0.3948(8)
N3 N 0.1724(4) 0.4392(8) -0.1839(8)
C1 C 0.1066(5) 0.1606(10) -0.3217(9)
C2 C 0.1405(5) 0.2286(11) -0.2938(9)
C3 C 0.1255(5) 0.3161(10) -0.3116(9)
C4 C 0.0762(5) 0.3389(10) -0.3629(11)
C5 C 0.0416(6) 0.2733(11) -0.3980(10)
C6 C 0.0557(5) 0.1816(11) -0.3765(10)
C7 C 0.1242(7) 0.0619(11) -0.3105(11)
H1 H 0.0978 0.0245 -0.3584
H2 H 0.1508 0.0581 -0.3259
C8 C 0.1966(5) 0.2024(12) -0.2363(11)
H3 H 0.2160 0.2560 -0.2223
H4 H 0.2037 0.1627 -0.2775
H5 H 0.2041 0.1727 -0.1743
C9 C 0.1637(6) 0.3948(10) -0.2806(10)
H6 H 0.1943 0.3710 -0.2724
H7 H 0.1521 0.4394 -0.3338
C10 C 0.0610(6) 0.4377(11) -0.3824(12)
H8 H 0.0261 0.4418 -0.4180
H9 H 0.0740 0.4645 -0.4220
H10 H 0.0733 0.4690 -0.3195
C11 C -0.0112(5) 0.2925(12) -0.4558(12)
H11 H -0.0159 0.3526 -0.4840
H12 H -0.0261 0.2502 -0.5112
C12 C 0.0198(6) 0.1049(11) -0.4126(11)
H13 H -0.0127 0.1286 -0.4483
H14 H 0.0233 0.0704 -0.3560
H15 H 0.0258 0.0670 -0.4567
C13 C 0.1148(6) 0.0429(12) -0.1604(11)
H16 H 0.0893 0.0840 -0.1878
C14 C 0.1253(6) -0.0019(11) -0.0712(11)
H17 H 0.1047 0.0041 -0.0433
C15 C 0.1652(6) -0.0537(10) -0.0261(12)
C16 C 0.1947(6) -0.0646(11) -0.0703(11)
H18 H 0.2226 -0.0998 -0.0393
C17 C 0.1820(6) -0.0229(10) -0.1604(11)
H19 H 0.2018 -0.0291 -0.1900
C18 C 0.1766(7) -0.1079(11) 0.0671(12)
C19 C -0.0808(6) 0.2412(11) -0.4336(11)
H20 H -0.0944 0.2139 -0.4964
C20 C -0.1045(7) 0.2384(11) -0.3775(12)
H21 H -0.1333 0.2058 -0.4017
C21 C -0.0871(6) 0.2818(10) -0.2870(11)
C22 C -0.0430(7) 0.3224(13) -0.2494(12)
H22 H -0.0294 0.3482 -0.1858
C23 C -0.0181(6) 0.3265(13) -0.3026(12)
H23 H 0.0114 0.3572 -0.2756
C24 C -0.1181(7) 0.2830(11) -0.2320(11)
C25 C 0.1697(5) 0.3926(11) -0.1102(11)
H24 H 0.1606 0.3323 -0.1194
C26 C 0.1803(6) 0.4337(12) -0.0252(11)
H25 H 0.1793 0.4007 0.0258
C27 C 0.1930(5) 0.5248(10) -0.0086(11)
C28 C 0.1953(6) 0.5682(11) -0.0850(11)
H26 H 0.2040 0.6287 -0.0784
C29 C 0.1851(6) 0.5240(10) -0.1695(12)
H27 H 0.1871 0.5551 -0.2205
C30 C 0.2003(5) 0.5719(10) 0.0891(11)
Cd1_2 Cd 0.20086(4) -0.25969(7) 0.20009(7)
Cd1B Cd -0.20086(4) 0.25969(7) -0.20009(7)
O2_2 O 0.2139(5) 0.8505(8) 0.1121(9)
O4B O 0.1578(4) 0.7525(9) 0.2739(9)
loop_
_geom_bond_atom_site_label_1
_geom_bond_atom_site_label_2
_geom_bond_site_symmetry_1
_geom_bond_site_symmetry_2
Cd1 Br1 1_555 1_555
Cd2 Br2 1_555 1_555
O1 C18 1_555 1_555
O2 C18 1_555 1_555
O3 C24 1_555 1_555
O4 C24 1_555 1_555
O5 C30 1_555 1_555
O6 Cd1 1_555 1_555
O7 C48 1_555 1_555
O8 C48 1_555 1_555
O9 C54 1_555 1_555
O10 C54 1_555 1_555
O11 Cd2 1_555 1_555
O12 C60 1_555 1_555
N1 C7 1_555 1_555
N2 C11 1_555 1_555
N3 C9 1_555 1_555
N4 C37 1_555 1_555
N5 C41 1_555 1_555
N6 C39 1_555 1_555
C1 C2 1_555 1_555
C2 C3 1_555 1_555
C3 C4 1_555 1_555
C4 C5 1_555 1_555
C5 C6 1_555 1_555
C6 C1 1_555 1_555
C7 C1 1_555 1_555
H1 C7 1_555 1_555
H2 C7 1_555 1_555
C8 C2 1_555 1_555
H3 C8 1_555 1_555
H4 C8 1_555 1_555
H5 C8 1_555 1_555
C9 C3 1_555 1_555
H6 C9 1_555 1_555
H7 C9 1_555 1_555
C10 C4 1_555 1_555
H8 C10 1_555 1_555
H9 C10 1_555 1_555
H10 C10 1_555 1_555
C11 C5 1_555 1_555
H11 C11 1_555 1_555
H12 C11 1_555 1_555
C12 C6 1_555 1_555
H13 C12 1_555 1_555
H14 C12 1_555 1_555
H15 C12 1_555 1_555
C13 N1 1_555 1_555
H16 C13 1_555 1_555
C14 C13 1_555 1_555
H17 C14 1_555 1_555
C15 C14 1_555 1_555
C16 C15 1_555 1_555
H18 C16 1_555 1_555
C17 N1 1_555 1_555
H19 C17 1_555 1_555
C18 C15 1_555 1_555
C19 N2 1_555 1_555
H20 C19 1_555 1_555
C20 C19 1_555 1_555
H21 C20 1_555 1_555
C21 C20 1_555 1_555
C22 C21 1_555 1_555
H22 C22 1_555 1_555
C23 N2 1_555 1_555
H23 C23 1_555 1_555
C24 C21 1_555 1_555
C25 N3 1_555 1_555
H24 C25 1_555 1_555
C26 C25 1_555 1_555
H25 C26 1_555 1_555
C27 C26 1_555 1_555
C28 C27 1_555 1_555
H26 C28 1_555 1_555
C29 N3 1_555 1_555
H27 C29 1_555 1_555
C30 O6 1_555 1_555
C31 C32 1_555 1_555
C32 C33 1_555 1_555
C33 C34 1_555 1_555
C34 C35 1_555 1_555
C35 C36 1_555 1_555
C36 C31 1_555 1_555
C37 C31 1_555 1_555
H28 C37 1_555 1_555
H29 C37 1_555 1_555
C38 C32 1_555 1_555
H30 C38 1_555 1_555
H31 C38 1_555 1_555
H32 C38 1_555 1_555
C39 C33 1_555 1_555
H33 C39 1_555 1_555
H34 C39 1_555 1_555
C40 C34 1_555 1_555
H35 C40 1_555 1_555
H36 C40 1_555 1_555
H37 C40 1_555 1_555
C41 C35 1_555 1_555
H38 C41 1_555 1_555
H39 C41 1_555 1_555
C42 C36 1_555 1_555
H40 C42 1_555 1_555
H41 C42 1_555 1_555
H42 C42 1_555 1_555
C43 N4 1_555 1_555
H43 C43 1_555 1_555
C44 C43 1_555 1_555
H44 C44 1_555 1_555
C45 C44 1_555 1_555
C46 C45 1_555 1_555
H45 C46 1_555 1_555
C47 N4 1_555 1_555
H46 C47 1_555 1_555
C48 C45 1_555 1_555
C49 N5 1_555 1_555
H47 C49 1_555 1_555
C50 C49 1_555 1_555
H48 C50 1_555 1_555
C51 C50 1_555 1_555
C52 C51 1_555 1_555
H49 C52 1_555 1_555
C53 N5 1_555 1_555
H50 C53 1_555 1_555
C54 C51 1_555 1_555
C55 N6 1_555 1_555
H51 C55 1_555 1_555
C56 C55 1_555 1_555
H52 C56 1_555 1_555
C57 C56 1_555 1_555
C58 C57 1_555 1_555
H53 C58 1_555 1_555
C59 N6 1_555 1_555
H54 C59 1_555 1_555
C60 O11 1_555 1_555
Cd1_2 O2 1_555 1_555
Cd1B O4 1_555 1_555
Cd2A O8 1_555 1_555
Cd2A_2 O10 1_555 1_555
O2_2 Cd1 1_555 1_555
O4B Cd1 1_555 1_555
O8A Cd2 1_555 1_555
O10A Cd2 1_555 1_555
C16 C17 1_555 1_555
C22 C23 1_555 1_555
C27 C30 1_555 1_555
C28 C29 1_555 1_555
C46 C47 1_555 1_555
C52 C53 1_555 1_555
C57 C60 1_555 1_555
C58 C59 1_555 1_555

#END
