
#######################################################################
#
#                 Cambridge Crystallographic Data Centre
#                                CCDC 
#
#######################################################################
#
# If this CIF has been generated from an entry in the Cambridge 
# Structural Database, then it will include bibliographic, chemical, 
# crystal, experimental, refinement or atomic coordinate data resulting 
# from the CCDC's data processing and validation procedures.
#
#######################################################################

data_ENIXOP
_symmetry_cell_setting           tetragonal
_symmetry_space_group_name_H-M   'I 41/a'
_symmetry_Int_Tables_number      88
_space_group_name_Hall           '-I 4ad'
loop_
_symmetry_equiv_pos_site_id
_symmetry_equiv_pos_as_xyz
1 x,y,z
2 -x,1/2-y,z
3 3/4-y,1/4+x,1/4+z
4 1/4+y,1/4-x,1/4+z
5 1/2+x,1/2+y,1/2+z
6 1/2-x,-y,1/2+z
7 1/4-y,3/4+x,3/4+z
8 3/4+y,3/4-x,3/4+z
9 -x,-y,-z
10 x,1/2+y,-z
11 1/4+y,3/4-x,3/4-z
12 3/4-y,3/4+x,3/4-z
13 1/2-x,1/2-y,1/2-z
14 1/2+x,y,1/2-z
15 3/4+y,1/4-x,1/4-z
16 1/4-y,1/4+x,1/4-z
_cell_length_a                   15.4140(4)
_cell_length_b                   15.4140(4)
_cell_length_c                   17.4352(4)
_cell_angle_alpha                90
_cell_angle_beta                 90
_cell_angle_gamma                90
_cell_volume                     4142.45
loop_
_atom_site_label
_atom_site_type_symbol
_atom_site_fract_x
_atom_site_fract_y
_atom_site_fract_z
Cu1 Cu 0.0000 0.2500 0.1250
C1 C 0.0310(3) 0.0552(3) 0.1266(3)
C2 C 0.0994(3) -0.0075(3) 0.1246(3)
H1 H 0.0928 -0.0688 0.1245
C3 C 0.1747(3) 0.0363(3) 0.1230(3)
H2 H 0.2312 0.0118 0.1210
C4 C 0.1539(3) 0.1261(3) 0.1247(3)
C5 C -0.0573(3) 0.0350(3) 0.1277(3)
N1 N 0.0650(3) 0.1380(3) 0.1267(2)
C6 C -0.0820(3) -0.0587(3) 0.1342(3)
C7 C -0.0821(3) -0.0977(3) 0.2056(3)
H3 H -0.0674 -0.0634 0.2490
N2 N -0.1019(3) -0.1821(3) 0.2167(2)
C8 C -0.1249(3) -0.2296(3) 0.1554(3)
H4 H -0.1414 -0.2884 0.1628
C9 C -0.1253(4) -0.1962(4) 0.0822(3)
H5 H -0.1400 -0.2318 0.0397
C10 C -0.1038(3) -0.1091(4) 0.0716(3)
H6 H -0.1041 -0.0846 0.0216
I1 I -0.12204(2) -0.39419(2) 0.322330(18)
Cu2 Cu -0.09371(4) -0.23203(4) 0.32401(3)
C1O C 0.1948(3) 0.2810(3) 0.1234(3)
C1A C -0.0310(3) 0.4448(3) 0.1266(3)
C1N C -0.1948(3) 0.2190(3) 0.1234(3)
C2O C 0.2575(3) 0.3494(3) 0.1254(3)
C2A C -0.0994(3) 0.5075(3) 0.1246(3)
C2N C -0.2575(3) 0.1506(3) 0.1254(3)
H1O H 0.3188 0.3428 0.1255
H1A H -0.0928 0.5688 0.1245
H1N H -0.3188 0.1572 0.1255
C3O C 0.2137(3) 0.4247(3) 0.1270(3)
C3A C -0.1747(3) 0.4637(3) 0.1230(3)
C3N C -0.2137(3) 0.0753(3) 0.1270(3)
H2O H 0.2382 0.4812 0.1290
H2A H -0.2312 0.4882 0.1210
H2N H -0.2382 0.0188 0.1290
C4O C 0.1239(3) 0.4039(3) 0.1253(3)
C4A C -0.1539(3) 0.3739(3) 0.1247(3)
C4N C -0.1239(3) 0.0961(3) 0.1253(3)
C5O C 0.2150(3) 0.1927(3) 0.1223(3)
C5A C 0.0573(3) 0.4650(3) 0.1277(3)
C5N C -0.2150(3) 0.3073(3) 0.1223(3)
N1N N -0.1120(3) 0.1850(3) 0.1233(2)
N1A N -0.0650(3) 0.3620(3) 0.1267(2)
N1O N 0.1120(3) 0.3150(3) 0.1233(2)
C6N C -0.3087(3) 0.3320(3) 0.1158(3)
C6A C 0.0820(3) 0.5587(3) 0.1342(3)
C6O C 0.3087(3) 0.1680(3) 0.1158(3)
C7N C -0.3477(3) 0.3321(3) 0.0444(3)
C7A C 0.0821(3) 0.5977(3) 0.2056(3)
C7O C 0.3477(3) 0.1679(3) 0.0444(3)
H3N H -0.3134 0.3174 0.0010
H3A H 0.0674 0.5634 0.2490
H3O H 0.3134 0.1826 0.0010
N2N N -0.4321(3) 0.3519(3) 0.0333(2)
N2A N 0.1019(3) 0.6821(3) 0.2167(2)
N2O N 0.4321(3) 0.1481(3) 0.0333(2)
C8N C -0.4796(3) 0.3749(3) 0.0946(3)
C8A C 0.1249(3) 0.7296(3) 0.1554(3)
C8O C 0.4796(3) 0.1251(3) 0.0946(3)
H4N H -0.5384 0.3914 0.0872
H4A H 0.1414 0.7884 0.1628
H4O H 0.5384 0.1086 0.0872
C9N C -0.4462(4) 0.3753(4) 0.1678(3)
C9A C 0.1253(4) 0.6962(4) 0.0822(3)
C9O C 0.4462(4) 0.1247(4) 0.1678(3)
H5N H -0.4818 0.3900 0.2103
H5A H 0.1400 0.7318 0.0397
H5O H 0.4818 0.1100 0.2103
C10N C -0.3591(4) 0.3538(3) 0.1784(3)
C10A C 0.1038(3) 0.6091(4) 0.0716(3)
C10O C 0.3591(4) 0.1462(3) 0.1784(3)
H6N H -0.3346 0.3541 0.2284
H6A H 0.1041 0.5846 0.0216
H6O H 0.3346 0.1459 0.2284
I1J I -0.14419(2) -0.12796(2) 0.427670(18)
I1N I -0.64419(2) 0.37204(2) -0.072330(18)
I1E I -0.37796(2) 0.39419(2) -0.177670(18)
I1A I 0.12204(2) 0.89419(2) 0.322330(18)
I1K I 0.14419(2) 0.62796(2) 0.427670(18)
I1O I 0.64419(2) 0.12796(2) -0.072330(18)
I1D I 0.37796(2) 0.10581(2) -0.177670(18)
Cu2N Cu -0.48203(4) 0.34371(4) -0.07401(3)
Cu2A Cu 0.09371(4) 0.73203(4) 0.32401(3)
Cu2O Cu 0.48203(4) 0.15629(4) -0.07401(3)
Cu2K Cu -0.01797(4) -0.34371(4) 0.42599(3)
Cu2J Cu 0.01797(4) -0.15629(4) 0.42599(3)
Cu2D Cu -0.59371(4) 0.26797(4) -0.17599(3)
Cu2E Cu -0.40629(4) 0.23203(4) -0.17599(3)
loop_
_geom_bond_atom_site_label_1
_geom_bond_atom_site_label_2
_geom_bond_site_symmetry_1
_geom_bond_site_symmetry_2
Cu1 N1 1_555 1_555
C1 C2 1_555 1_555
C2 H1 1_555 1_555
C3 C2 1_555 1_555
H2 C3 1_555 1_555
C4 C3 1_555 1_555
C5 C1 1_555 1_555
N1 C1 1_555 1_555
C6 C5 1_555 1_555
C7 C6 1_555 1_555
H3 C7 1_555 1_555
N2 C7 1_555 1_555
C8 N2 1_555 1_555
H4 C8 1_555 1_555
C9 C8 1_555 1_555
H5 C9 1_555 1_555
C10 C6 1_555 1_555
H6 C10 1_555 1_555
I1 Cu2 1_555 1_555
Cu2 N2 1_555 1_555
C1O C2O 1_555 1_555
C1A C2A 1_555 1_555
C1N C2N 1_555 1_555
C2O H1O 1_555 1_555
C2A H1A 1_555 1_555
C2N H1N 1_555 1_555
C3O C2O 1_555 1_555
C3A C2A 1_555 1_555
C3N C2N 1_555 1_555
H2O C3O 1_555 1_555
H2A C3A 1_555 1_555
H2N C3N 1_555 1_555
C4O C3O 1_555 1_555
C4A C3A 1_555 1_555
C4N C5 1_555 1_555
C5O C4 1_555 1_555
C5A C1A 1_555 1_555
C5N C1N 1_555 1_555
N1N Cu1 1_555 1_555
N1A Cu1 1_555 1_555
N1O Cu1 1_555 1_555
C6N C5N 1_555 1_555
C6A C5A 1_555 1_555
C6O C5O 1_555 1_555
C7N C6N 1_555 1_555
C7A C6A 1_555 1_555
C7O C6O 1_555 1_555
H3N C7N 1_555 1_555
H3A C7A 1_555 1_555
H3O C7O 1_555 1_555
N2N C7N 1_555 1_555
N2A C7A 1_555 1_555
N2O C7O 1_555 1_555
C8N N2N 1_555 1_555
C8A N2A 1_555 1_555
C8O N2O 1_555 1_555
H4N C8N 1_555 1_555
H4A C8A 1_555 1_555
H4O C8O 1_555 1_555
C9N C8N 1_555 1_555
C9A C8A 1_555 1_555
C9O C8O 1_555 1_555
H5N C9N 1_555 1_555
H5A C9A 1_555 1_555
H5O C9O 1_555 1_555
C10N C6N 1_555 1_555
C10A C6A 1_555 1_555
C10O C6O 1_555 1_555
H6N C10N 1_555 1_555
H6A C10A 1_555 1_555
H6O C10O 1_555 1_555
I1J Cu2 1_555 1_555
I1N Cu2N 1_555 1_555
I1E Cu2N 1_555 1_555
I1A Cu2A 1_555 1_555
I1K Cu2A 1_555 1_555
I1O Cu2O 1_555 1_555
I1D Cu2O 1_555 1_555
Cu2N N2N 1_555 1_555
Cu2A N2A 1_555 1_555
Cu2O N2O 1_555 1_555
Cu2K I1 1_555 1_555
Cu2J I1J 1_555 1_555
Cu2D I1N 1_555 1_555
Cu2E I1E 1_555 1_555
C4 N1 1_555 1_555
C9 C10 1_555 1_555
C1O C5O 1_555 1_555
C1O N1O 1_555 1_555
C1A N1A 1_555 1_555
C1N N1N 1_555 1_555
C3N C4N 1_555 1_555
C4O C5A 1_555 1_555
C4O N1O 1_555 1_555
C4A C5N 1_555 1_555
C4A N1A 1_555 1_555
C4N N1N 1_555 1_555
C9N C10N 1_555 1_555
C9A C10A 1_555 1_555
C9O C10O 1_555 1_555

#END
