
#######################################################################
#
#                 Cambridge Crystallographic Data Centre
#                                CCDC 
#
#######################################################################
#
# If this CIF has been generated from an entry in the Cambridge 
# Structural Database, then it will include bibliographic, chemical, 
# crystal, experimental, refinement or atomic coordinate data resulting 
# from the CCDC's data processing and validation procedures.
#
#######################################################################

data_ENIXIJ
_symmetry_cell_setting           tetragonal
_symmetry_space_group_name_H-M   'I 41/a'
_symmetry_Int_Tables_number      88
_space_group_name_Hall           '-I 4ad'
loop_
_symmetry_equiv_pos_site_id
_symmetry_equiv_pos_as_xyz
1 x,y,z
2 -x,1/2-y,z
3 3/4-y,1/4+x,1/4+z
4 1/4+y,1/4-x,1/4+z
5 1/2+x,1/2+y,1/2+z
6 1/2-x,-y,1/2+z
7 1/4-y,3/4+x,3/4+z
8 3/4+y,3/4-x,3/4+z
9 -x,-y,-z
10 x,1/2+y,-z
11 1/4+y,3/4-x,3/4-z
12 3/4-y,3/4+x,3/4-z
13 1/2-x,1/2-y,1/2-z
14 1/2+x,y,1/2-z
15 3/4+y,1/4-x,1/4-z
16 1/4-y,1/4+x,1/4-z
_cell_length_a                   14.7793(7)
_cell_length_b                   14.7793(7)
_cell_length_c                   17.2923(6)
_cell_angle_alpha                90
_cell_angle_beta                 90
_cell_angle_gamma                90
_cell_volume                     3777.12
loop_
_atom_site_label
_atom_site_type_symbol
_atom_site_fract_x
_atom_site_fract_y
_atom_site_fract_z
Cu1 Cu 0.0000 0.2500 0.1250
Cu2 Cu 0.11338(5) -0.24353(5) 0.33392(4)
Cl1 Cl 0.10687(10) -0.39415(10) 0.32394(9)
C1 C 0.1359(3) 0.0960(3) 0.1282(3)
C2 C 0.2318(4) 0.0781(4) 0.1306(4)
H1 H 0.2600 0.0205 0.1337
C3 C 0.2734(4) 0.1593(4) 0.1276(4)
H2 H 0.3369 0.1694 0.1283
C4 C 0.2045(3) 0.2275(4) 0.1232(3)
C5 C 0.0694(3) 0.0284(4) 0.1298(3)
N1 N 0.1197(3) 0.1870(3) 0.1243(2)
C6 C 0.0994(3) -0.0681(3) 0.1381(3)
C7 C 0.1226(4) -0.1217(4) 0.0772(4)
H3 H 0.1204 -0.0989 0.0258
C8 C 0.1500(4) -0.2109(5) 0.0912(4)
H4 H 0.1664 -0.2492 0.0493
C9 C 0.1529(4) -0.2422(4) 0.1646(4)
H5 H 0.1727 -0.3024 0.1736
N2 N 0.1287(3) -0.1907(4) 0.2258(3)
C10 C 0.1034(4) -0.1053(4) 0.2120(4)
H6 H 0.0874 -0.0682 0.2548
Cu2N Cu -0.49353(5) 0.13662(5) -0.08392(4)
Cu2A Cu -0.11338(5) 0.74353(5) 0.33392(4)
Cu2O Cu 0.49353(5) 0.36338(5) -0.08392(4)
Cu2J Cu 0.00647(5) -0.36338(5) 0.41608(4)
Cu2K Cu -0.00647(5) -0.13662(5) 0.41608(4)
Cu2E Cu -0.61338(5) 0.24353(5) -0.16608(4)
Cu2D Cu -0.38662(5) 0.25647(5) -0.16608(4)
Cl1K Cl 0.14415(10) -0.14313(10) 0.42606(9)
Cl1N Cl -0.64415(10) 0.14313(10) -0.07394(9)
Cl1D Cl -0.39313(10) 0.10585(10) -0.17606(9)
Cl1A Cl -0.10687(10) 0.89415(10) 0.32394(9)
Cl1J Cl -0.14415(10) 0.64313(10) 0.42606(9)
Cl1O Cl 0.64415(10) 0.35687(10) -0.07394(9)
Cl1E Cl 0.39313(10) 0.39415(10) -0.17606(9)
C1O C 0.1540(3) 0.3859(3) 0.1218(3)
C1A C -0.1359(3) 0.4040(3) 0.1282(3)
C1N C -0.1540(3) 0.1141(3) 0.1218(3)
C2O C 0.1719(4) 0.4818(4) 0.1194(4)
C2A C -0.2318(4) 0.4219(4) 0.1306(4)
C2N C -0.1719(4) 0.0182(4) 0.1194(4)
H1O H 0.2295 0.5100 0.1163
H1A H -0.2600 0.4795 0.1337
H1N H -0.2295 -0.0100 0.1163
C3O C 0.0907(4) 0.5234(4) 0.1224(4)
C3A C -0.2734(4) 0.3407(4) 0.1276(4)
C3N C -0.0907(4) -0.0234(4) 0.1224(4)
H2O H 0.0806 0.5869 0.1217
H2A H -0.3369 0.3306 0.1283
H2N H -0.0806 -0.0869 0.1217
C4O C 0.0225(4) 0.4545(3) 0.1268(3)
C4A C -0.2045(3) 0.2725(4) 0.1232(3)
C4N C -0.0225(4) 0.0455(3) 0.1268(3)
C5O C 0.2216(4) 0.3194(3) 0.1202(3)
C5A C -0.0694(3) 0.4716(4) 0.1298(3)
C5N C -0.2216(4) 0.1806(3) 0.1202(3)
N1N N -0.0630(3) 0.1303(3) 0.1257(2)
N1A N -0.1197(3) 0.3130(3) 0.1243(2)
N1O N 0.0630(3) 0.3697(3) 0.1257(2)
C6N C -0.3181(3) 0.1506(3) 0.1119(3)
C6A C -0.0994(3) 0.5681(3) 0.1381(3)
C6O C 0.3181(3) 0.3494(3) 0.1119(3)
C7N C -0.3717(4) 0.1274(4) 0.1728(4)
C7A C -0.1226(4) 0.6217(4) 0.0772(4)
C7O C 0.3717(4) 0.3726(4) 0.1728(4)
H3N H -0.3489 0.1296 0.2242
H3A H -0.1204 0.5989 0.0258
H3O H 0.3489 0.3704 0.2242
C8N C -0.4609(5) 0.1000(4) 0.1588(4)
C8A C -0.1500(4) 0.7109(5) 0.0912(4)
C8O C 0.4609(5) 0.4000(4) 0.1588(4)
H4N H -0.4992 0.0836 0.2007
H4A H -0.1664 0.7492 0.0493
H4O H 0.4992 0.4164 0.2007
C9N C -0.4922(4) 0.0971(4) 0.0854(4)
C9A C -0.1529(4) 0.7422(4) 0.1646(4)
C9O C 0.4922(4) 0.4029(4) 0.0854(4)
H5N H -0.5524 0.0773 0.0764
H5A H -0.1727 0.8024 0.1736
H5O H 0.5524 0.4227 0.0764
N2N N -0.4407(4) 0.1213(3) 0.0242(3)
N2A N -0.1287(3) 0.6907(4) 0.2258(3)
N2O N 0.4407(4) 0.3787(3) 0.0242(3)
C10N C -0.3553(4) 0.1466(4) 0.0380(4)
C10A C -0.1034(4) 0.6053(4) 0.2120(4)
C10O C 0.3553(4) 0.3534(4) 0.0380(4)
H6N H -0.3182 0.1626 -0.0048
H6A H -0.0874 0.5682 0.2548
H6O H 0.3182 0.3374 -0.0048
loop_
_geom_bond_atom_site_label_1
_geom_bond_atom_site_label_2
_geom_bond_site_symmetry_1
_geom_bond_site_symmetry_2
Cu1 N1 1_555 1_555
Cu2 Cl1 1_555 1_555
Cl1 Cu2J 1_555 1_555
C1 C2 1_555 1_555
C2 H1 1_555 1_555
C3 C2 1_555 1_555
H2 C3 1_555 1_555
C4 C3 1_555 1_555
C5 C1 1_555 1_555
N1 C1 1_555 1_555
C6 C5 1_555 1_555
C7 C6 1_555 1_555
H3 C7 1_555 1_555
C8 C7 1_555 1_555
H4 C8 1_555 1_555
C9 C8 1_555 1_555
H5 C9 1_555 1_555
N2 Cu2 1_555 1_555
C10 C6 1_555 1_555
H6 C10 1_555 1_555
Cu2N Cl1N 1_555 1_555
Cu2A Cl1A 1_555 1_555
Cu2O Cl1O 1_555 1_555
Cu2K Cl1K 1_555 1_555
Cu2E Cl1N 1_555 1_555
Cu2D Cl1D 1_555 1_555
Cl1K Cu2 1_555 1_555
Cl1D Cu2N 1_555 1_555
Cl1J Cu2A 1_555 1_555
Cl1E Cu2O 1_555 1_555
C1O C2O 1_555 1_555
C1A C2A 1_555 1_555
C1N C2N 1_555 1_555
C2O H1O 1_555 1_555
C2A H1A 1_555 1_555
C2N H1N 1_555 1_555
C3O C2O 1_555 1_555
C3A C2A 1_555 1_555
C3N C2N 1_555 1_555
H2O C3O 1_555 1_555
H2A C3A 1_555 1_555
H2N C3N 1_555 1_555
C4O C3O 1_555 1_555
C4A C3A 1_555 1_555
C4N C5 1_555 1_555
C5O C4 1_555 1_555
C5A C1A 1_555 1_555
C5N C1N 1_555 1_555
N1N Cu1 1_555 1_555
N1A Cu1 1_555 1_555
N1O Cu1 1_555 1_555
C6N C5N 1_555 1_555
C6A C5A 1_555 1_555
C6O C5O 1_555 1_555
C7N C6N 1_555 1_555
C7A C6A 1_555 1_555
C7O C6O 1_555 1_555
H3N C7N 1_555 1_555
H3A C7A 1_555 1_555
H3O C7O 1_555 1_555
C8N C7N 1_555 1_555
C8A C7A 1_555 1_555
C8O C7O 1_555 1_555
H4N C8N 1_555 1_555
H4A C8A 1_555 1_555
H4O C8O 1_555 1_555
C9N C8N 1_555 1_555
C9A C8A 1_555 1_555
C9O C8O 1_555 1_555
H5N C9N 1_555 1_555
H5A C9A 1_555 1_555
H5O C9O 1_555 1_555
N2N Cu2N 1_555 1_555
N2A Cu2A 1_555 1_555
N2O Cu2O 1_555 1_555
C10N C6N 1_555 1_555
C10A C6A 1_555 1_555
C10O C6O 1_555 1_555
H6N C10N 1_555 1_555
H6A C10A 1_555 1_555
H6O C10O 1_555 1_555
C4 N1 1_555 1_555
C9 N2 1_555 1_555
N2 C10 1_555 1_555
C1O C5O 1_555 1_555
C1O N1O 1_555 1_555
C1A N1A 1_555 1_555
C1N N1N 1_555 1_555
C3N C4N 1_555 1_555
C4O C5A 1_555 1_555
C4O N1O 1_555 1_555
C4A C5N 1_555 1_555
C4A N1A 1_555 1_555
C4N N1N 1_555 1_555
C9N N2N 1_555 1_555
C9A N2A 1_555 1_555
C9O N2O 1_555 1_555
N2N C10N 1_555 1_555
N2A C10A 1_555 1_555
N2O C10O 1_555 1_555

#END
