
#######################################################################
#
#                 Cambridge Crystallographic Data Centre
#                                CCDC 
#
#######################################################################
#
# If this CIF has been generated from an entry in the Cambridge 
# Structural Database, then it will include bibliographic, chemical, 
# crystal, experimental, refinement or atomic coordinate data resulting 
# from the CCDC's data processing and validation procedures.
#
#######################################################################

data_ENIXUU01
_symmetry_cell_setting           triclinic
_symmetry_space_group_name_H-M   'P -1'
_symmetry_Int_Tables_number      2
_space_group_name_Hall           '-P 1'
loop_
_symmetry_equiv_pos_site_id
_symmetry_equiv_pos_as_xyz
1 x,y,z
2 -x,-y,-z
_cell_length_a                   7.0000(10)
_cell_length_b                   8.949(2)
_cell_length_c                   8.982(2)
_cell_angle_alpha                108.05(3)
_cell_angle_beta                 97.69(3)
_cell_angle_gamma                97.99(3)
_cell_volume                     520.343
loop_
_atom_site_label
_atom_site_type_symbol
_atom_site_fract_x
_atom_site_fract_y
_atom_site_fract_z
Rb1 Rb 0.36833(4) 0.11883(3) -0.33427(2)
Rb2 Rb 0.25523(3) 0.55140(3) -0.36993(3)
Cu1 Cu 0.0000 0.0000 0.0000
Cu2 Cu 0.5000 0.5000 0.0000
C1 C 0.1311(3) 0.3660(2) 0.0004(2)
C2 C 0.2251(3) 0.4665(2) 0.1773(2)
C3 C 0.2628(3) 0.1559(3) 0.2745(2)
C4 C 0.0562(3) 0.1520(3) 0.3179(2)
O1 O -0.0331(2) 0.2808(2) -0.03125(19)
O2 O 0.2361(2) 0.37932(19) -0.10198(17)
O3 O 0.1293(2) 0.4699(2) 0.28201(19)
O4 O 0.4047(2) 0.53626(19) 0.19850(17)
O5 O 0.4100(3) 0.2198(2) 0.3775(2)
O6 O 0.2631(2) 0.0892(2) 0.12515(17)
O7 O 0.0398(3) 0.2196(2) 0.45588(19)
O8 O -0.0872(2) 0.0760(2) 0.20220(18)
O9 O 0.5727(3) 0.2387(3) 0.0175(2)
O10 O 0.2122(3) -0.1353(2) -0.6452(2)
H1 H 0.152(6) -0.171(4) -0.595(4)
H2 H 0.158(5) -0.180(4) -0.739(4)
H3 H 0.502(7) 0.175(5) 0.039(5)
H4 H 0.689(6) 0.219(5) 0.016(4)
C1A C -0.1311(3) -0.3660(2) -0.0004(2)
C2A C -0.2251(3) -0.4665(2) -0.1773(2)
O1A O 0.0331(2) -0.2808(2) 0.03125(19)
O2A O -0.2361(2) -0.37932(19) 0.10198(17)
O3A O -0.1293(2) -0.4699(2) -0.28201(19)
O4A O -0.4047(2) -0.53626(19) -0.19850(17)
C3A C -0.2628(3) -0.1559(3) -0.2745(2)
C4A C -0.0562(3) -0.1520(3) -0.3179(2)
O5A O -0.4100(3) -0.2198(2) -0.3775(2)
O6A O -0.2631(2) -0.0892(2) -0.12515(17)
O7A O -0.0398(3) -0.2196(2) -0.45588(19)
O8A O 0.0872(2) -0.0760(2) -0.20220(18)
Rb1A Rb -0.36833(4) -0.11883(3) 0.33427(2)
Rb2A Rb -0.25523(3) -0.55140(3) 0.36993(3)
O10A O 0.7878(3) 0.1353(2) -0.3548(2)
H1A H 0.848(6) 0.171(4) -0.405(4)
H2A H 0.842(5) 0.180(4) -0.261(4)
O9A O 0.4273(3) 0.7613(3) -0.0175(2)
H3A H 0.498(7) 0.825(5) -0.039(5)
H4A H 0.311(6) 0.781(5) -0.016(4)
Rb1A_2 Rb 0.63167(4) -0.11883(3) -0.66573(2)
O4A_2 O 0.5953(2) 0.46374(19) -0.19850(17)
O5_2 O 0.4100(3) 0.2198(2) -0.6225(2)
O7_2 O 0.0398(3) 0.2196(2) -0.54412(19)
Rb2A_2 Rb -0.25523(3) 0.44860(3) -0.63007(3)
O3_2 O 0.1293(2) 0.4699(2) -0.71799(19)
O3A_2 O -0.1293(2) 0.5301(2) -0.28201(19)
O5A_2 O 0.5900(3) 0.7802(2) -0.3775(2)
O7A_2 O -0.0398(3) 0.7804(2) -0.45588(19)
Rb1A_3 Rb 0.63167(4) 0.88117(3) 0.33427(2)
Rb2A_3 Rb 0.74477(3) 0.44860(3) 0.36993(3)
O2A_2 O 0.7639(2) 0.62068(19) 0.10198(17)
Rb2_2 Rb 0.25523(3) 0.55140(3) 0.63007(3)
Rb2A_4 Rb -0.25523(3) 0.44860(3) 0.36993(3)
Rb1_2 Rb 0.36833(4) 0.11883(3) 0.66573(2)
Cu2_2 Cu -0.5000 -0.5000 0.0000
Rb2_3 Rb 0.25523(3) -0.44860(3) -0.36993(3)
Rb2A_5 Rb -0.25523(3) -0.55140(3) -0.63007(3)
Rb1_3 Rb -0.63167(4) -0.88117(3) -0.33427(2)
Rb2_4 Rb -0.74477(3) -0.44860(3) -0.36993(3)
Rb1A_4 Rb -0.36833(4) -0.11883(3) -0.66573(2)
Rb1_4 Rb -0.63167(4) 0.11883(3) 0.66573(2)
O4_2 O -0.5953(2) -0.46374(19) 0.19850(17)
O5A_3 O -0.4100(3) -0.2198(2) 0.6225(2)
O7A_3 O -0.0398(3) -0.2196(2) 0.54412(19)
O9A_2 O -0.5727(3) -0.2387(3) -0.0175(2)
O10A_2 O -0.2122(3) 0.1353(2) 0.6452(2)
O10_2 O -0.7878(3) -0.1353(2) 0.3548(2)
Rb2_5 Rb 0.25523(3) -0.44860(3) 0.63007(3)
O3_3 O 0.1293(2) -0.5301(2) 0.28201(19)
O3A_3 O -0.1293(2) -0.4699(2) 0.71799(19)
O5_3 O -0.5900(3) -0.7802(2) 0.3775(2)
O7_3 O 0.0398(3) -0.7804(2) 0.45588(19)
O9_2 O -0.4273(3) -0.7613(3) 0.0175(2)
H3A_2 H -0.502(7) -0.175(5) -0.039(5)
H4A_2 H -0.689(6) -0.219(5) -0.016(4)
H1A_2 H -0.152(6) 0.171(4) 0.595(4)
H2A_2 H -0.158(5) 0.180(4) 0.739(4)
H1_2 H -0.848(6) -0.171(4) 0.405(4)
H2_2 H -0.842(5) -0.180(4) 0.261(4)
H3_2 H -0.498(7) -0.825(5) 0.039(5)
H4_2 H -0.311(6) -0.781(5) 0.016(4)
loop_
_geom_bond_atom_site_label_1
_geom_bond_atom_site_label_2
_geom_bond_site_symmetry_1
_geom_bond_site_symmetry_2
Rb1 O2 1_555 1_555
Rb2 O2 1_555 1_555
Cu1 O1 1_555 1_555
Cu2 O2 1_555 1_555
C1 C2 1_555 1_555
C2 O3 1_555 1_555
C3 C4 1_555 1_555
C4 O7 1_555 1_555
O1 C1 1_555 1_555
O2 C1 1_555 1_555
O3 Rb2_2 1_555 1_555
O4 Cu2 1_555 1_555
O5 C3 1_555 1_555
O6 Cu1 1_555 1_555
O7 Rb2_2 1_555 1_555
O8 Cu1 1_555 1_555
O9 Rb1 1_555 1_555
O10 Rb1 1_555 1_555
H1 O10 1_555 1_555
H2 O10 1_555 1_555
H3 O9 1_555 1_555
H4 O9 1_555 1_555
C1A C2A 1_555 1_555
C2A O3A 1_555 1_555
O1A Cu1 1_555 1_555
O2A C1A 1_555 1_555
O3A Rb2_3 1_555 1_555
O4A C2A 1_555 1_555
C3A C4A 1_555 1_555
C4A O7A 1_555 1_555
O5A C3A 1_555 1_555
O6A Cu1 1_555 1_555
O7A Rb2_3 1_555 1_555
O8A Rb1 1_555 1_555
Rb1A O8 1_555 1_555
Rb2A O2A 1_555 1_555
O10A Rb1 1_555 1_555
H1A O10A 1_555 1_555
H2A O10A 1_555 1_555
O9A Rb2 1_555 1_555
H3A O9A 1_555 1_555
H4A O9A 1_555 1_555
Rb1A_2 O10 1_555 1_555
O4A_2 Rb1 1_555 1_555
O5_2 Rb1 1_555 1_555
O7_2 Rb1 1_555 1_555
Rb2A_2 O7_2 1_555 1_555
O3_2 Rb2 1_555 1_555
O3A_2 Rb2 1_555 1_555
O5A_2 Rb2 1_555 1_555
O7A_2 Rb2 1_555 1_555
Rb1A_3 O4 1_555 1_555
Rb2A_3 O4 1_555 1_555
O2A_2 Cu2 1_555 1_555
Rb2A_4 O3 1_555 1_555
Rb1_2 O5 1_555 1_555
Cu2_2 O2A 1_555 1_555
Rb2A_5 O3A 1_555 1_555
Rb1_3 O4A 1_555 1_555
Rb2_4 O4A 1_555 1_555
Rb1A_4 O5A 1_555 1_555
Rb1_4 O10A_2 1_555 1_555
O4_2 Rb1A 1_555 1_555
O5A_3 Rb1A 1_555 1_555
O7A_3 Rb1A 1_555 1_555
O9A_2 Rb1A 1_555 1_555
O10A_2 Rb1A 1_555 1_555
O10_2 Rb1A 1_555 1_555
Rb2_5 O7A_3 1_555 1_555
O3_3 Rb2A 1_555 1_555
O3A_3 Rb2A 1_555 1_555
O5_3 Rb2A 1_555 1_555
O7_3 Rb2A 1_555 1_555
O9_2 Rb2A 1_555 1_555
H3A_2 O9A_2 1_555 1_555
H4A_2 O9A_2 1_555 1_555
H1A_2 O10A_2 1_555 1_555
H2A_2 O10A_2 1_555 1_555
H1_2 O10_2 1_555 1_555
H2_2 O10_2 1_555 1_555
H3_2 O9_2 1_555 1_555
H4_2 O9_2 1_555 1_555
Rb2 O4A_2 1_555 1_555
Rb2 O7_2 1_555 1_555
Cu1 O8A 1_555 1_555
Cu2 O9 1_555 1_555
Cu2 O9A 1_555 1_555
Cu2 O4A_2 1_555 1_555
C2 O4 1_555 1_555
C3 O6 1_555 1_555
C4 O8 1_555 1_555
O5 Rb2A_3 1_555 1_555
O7 Rb1_2 1_555 1_555
O7 Rb2A_4 1_555 1_555
O9 Rb2A_3 1_555 1_555
C1A O1A 1_555 1_555
O2A Rb1A 1_555 1_555
O4A Cu2_2 1_555 1_555
C3A O6A 1_555 1_555
C4A O8A 1_555 1_555
O5A Rb2_4 1_555 1_555
O7A Rb1A_4 1_555 1_555
O7A Rb2A_5 1_555 1_555
Rb2A O4_2 1_555 1_555
Rb2A O7A_3 1_555 1_555
O10A Rb1A_2 1_555 1_555
O9A Rb1A_3 1_555 1_555
Rb2A_2 O3_2 1_555 1_555
Rb2A_2 O3A_2 1_555 1_555
Rb2A_2 O7A_2 1_555 1_555
Rb1A_3 O2A_2 1_555 1_555
Rb2A_3 O2A_2 1_555 1_555
Cu2_2 O4_2 1_555 1_555
Cu2_2 O9_2 1_555 1_555
Cu2_2 O9A_2 1_555 1_555
Rb1_3 O9_2 1_555 1_555
Rb2_4 O9A_2 1_555 1_555
Rb1_4 O10_2 1_555 1_555
Rb2_5 O3_3 1_555 1_555
Rb2_5 O3A_3 1_555 1_555
Rb2_5 O7_3 1_555 1_555

#END
