
#######################################################################
#
#                 Cambridge Crystallographic Data Centre
#                                CCDC 
#
#######################################################################
#
# If this CIF has been generated from an entry in the Cambridge 
# Structural Database, then it will include bibliographic, chemical, 
# crystal, experimental, refinement or atomic coordinate data resulting 
# from the CCDC's data processing and validation procedures.
#
#######################################################################

data_ENIZEH
_symmetry_cell_setting           triclinic
_symmetry_space_group_name_H-M   'P -1'
_symmetry_Int_Tables_number      2
_space_group_name_Hall           '-P 1'
loop_
_symmetry_equiv_pos_site_id
_symmetry_equiv_pos_as_xyz
1 x,y,z
2 -x,-y,-z
_cell_length_a                   7.0045(14)
_cell_length_b                   8.487(2)
_cell_length_c                   10.0570(17)
_cell_angle_alpha                81.10(2)
_cell_angle_beta                 86.17(2)
_cell_angle_gamma                75.25(3)
_cell_volume                     570.962
loop_
_atom_site_label
_atom_site_type_symbol
_atom_site_fract_x
_atom_site_fract_y
_atom_site_fract_z
Sn1 Sn -0.18613(4) 0.83666(3) 0.57935(3)
Sn2 Sn -0.35359(4) 0.61742(3) 0.35282(2)
P1 P 0.12974(15) 0.57545(11) 0.34659(8)
S1 S 0.37173(16) 0.93629(12) -0.21630(9)
O1 O -0.0714(4) 0.6751(3) 0.3977(2)
O2 O 0.1080(4) 0.4085(3) 0.3189(2)
O3 O 0.2896(4) 0.5662(4) 0.4464(3)
O4 O 0.2573(5) 0.9067(5) -0.3219(3)
O5 O 0.5818(5) 0.8540(4) -0.2320(3)
O6 O 0.3416(5) 1.1094(4) -0.2014(3)
O7 O -0.4333(4) 0.7918(3) 0.4878(3)
H1 H -0.5511 0.8396 0.5045
C1 C 0.1890(6) 0.6801(5) 0.1857(3)
C2 C 0.2371(11) 0.5966(6) 0.0754(5)
H2 H 0.2360 0.4862 0.0840
C3 C 0.2867(12) 0.6764(7) -0.0470(5)
H3 H 0.3155 0.6206 -0.1213
C4 C 0.2937(7) 0.8399(5) -0.0595(4)
C5 C 0.2428(8) 0.9260(6) 0.0478(4)
H4 H 0.2452 1.0362 0.0390
C6 C 0.1874(8) 0.8456(5) 0.1700(4)
H5 H 0.1488 0.9039 0.2424
Sn1A Sn 0.18613(4) 0.16334(3) 0.42065(3)
Sn1_2 Sn 0.81387(4) 0.83666(3) -0.42065(3)
Sn2_2 Sn 0.64641(4) 0.61742(3) 0.35282(2)
Sn2A Sn 0.35359(4) 0.38258(3) 0.64718(2)
Sn2A_2 Sn 0.35359(4) 1.38258(3) -0.35282(2)
O2A O -0.1080(4) 0.5915(3) 0.6811(2)
O3_2 O -0.7104(4) 0.5662(4) 0.4464(3)
O3A O -0.2896(4) 0.4338(4) 0.5536(3)
O5_2 O -0.4182(5) 0.8540(4) 0.7680(3)
O6A O -0.3416(5) 0.8906(4) 0.2014(3)
loop_
_geom_bond_atom_site_label_1
_geom_bond_atom_site_label_2
_geom_bond_site_symmetry_1
_geom_bond_site_symmetry_2
Sn1 O1 1_555 1_555
Sn2 O1 1_555 1_555
P1 O1 1_555 1_555
S1 O4 1_555 1_555
O2 P1 1_555 1_555
O3 P1 1_555 1_555
O5 S1 1_555 1_555
O6 S1 1_555 1_555
O7 Sn1 1_555 1_555
H1 O7 1_555 1_555
C1 P1 1_555 1_555
C2 C1 1_555 1_555
H2 C2 1_555 1_555
C3 C2 1_555 1_555
H3 C3 1_555 1_555
C4 S1 1_555 1_555
C5 C4 1_555 1_555
H4 C5 1_555 1_555
C6 C1 1_555 1_555
H5 C6 1_555 1_555
Sn1A O2 1_555 1_555
Sn1_2 O5 1_555 1_555
Sn2_2 O3 1_555 1_555
Sn2A O3 1_555 1_555
Sn2A_2 O6 1_555 1_555
O2A Sn1 1_555 1_555
O3_2 Sn2 1_555 1_555
O3A Sn2 1_555 1_555
O5_2 Sn1 1_555 1_555
O6A Sn2 1_555 1_555
Sn2 O7 1_555 1_555
C3 C4 1_555 1_555
C5 C6 1_555 1_555

#END
