
#######################################################################
#
#                 Cambridge Crystallographic Data Centre
#                                CCDC 
#
#######################################################################
#
# If this CIF has been generated from an entry in the Cambridge 
# Structural Database, then it will include bibliographic, chemical, 
# crystal, experimental, refinement or atomic coordinate data resulting 
# from the CCDC's data processing and validation procedures.
#
#######################################################################

data_ENIZIL
_symmetry_cell_setting           monoclinic
_symmetry_space_group_name_H-M   'P 21/c'
_symmetry_Int_Tables_number      14
_space_group_name_Hall           '-P 2ybc'
loop_
_symmetry_equiv_pos_site_id
_symmetry_equiv_pos_as_xyz
1 x,y,z
2 -x,1/2+y,1/2-z
3 -x,-y,-z
4 x,1/2-y,1/2+z
_cell_length_a                   9.3772(3)
_cell_length_b                   13.1249(3)
_cell_length_c                   15.9198(5)
_cell_angle_alpha                90
_cell_angle_beta                 103.085(3)
_cell_angle_gamma                90
_cell_volume                     1908.45
loop_
_atom_site_label
_atom_site_type_symbol
_atom_site_fract_x
_atom_site_fract_y
_atom_site_fract_z
Pr1 Pr 0.49231(2) 0.625935(13) 0.826748(12)
Pr2 Pr 0.56158(2) 0.427260(13) 0.631200(11)
O1 O 0.4591(3) 0.58817(18) 0.52846(15)
O2 O 0.4678(3) 0.60496(18) 0.66458(15)
C1 C 0.4191(4) 0.6341(2) 0.5888(2)
C2 C 0.3102(5) 0.7188(3) 0.5698(3)
H1 H 0.3589 0.7806 0.5601
H2 H 0.2653 0.7278 0.6178
H3 H 0.2364 0.7024 0.5192
O3 O 0.7428(3) 0.6109(2) 0.81292(19)
O4 O 0.7444(3) 0.4552(3) 0.76029(19)
C3 C 0.8008(4) 0.5250(3) 0.8090(2)
C4 C 0.9486(5) 0.5043(4) 0.8669(3)
H4 H 0.9512 0.4358 0.8884
H5 H 0.9658 0.5512 0.9144
H6 H 1.0230 0.5126 0.8348
O5 O 0.2999(3) 0.76939(18) 0.85145(16)
O6 O 0.2250(3) 0.6465(2) 0.76030(18)
C5 C 0.1970(4) 0.7248(3) 0.7987(2)
C6 C 0.0459(5) 0.7641(4) 0.7828(4)
H7 H 0.0477 0.8347 0.7988
H8 H -0.0084 0.7261 0.8166
H9 H 0.0000 0.7570 0.7228
O7 O 0.5262(3) 0.79961(17) 0.76574(15)
O8 O 0.5712(3) 0.95462(18) 0.73337(17)
C7 C 0.5862(4) 0.8604(2) 0.7233(2)
C8 C 0.6749(5) 0.8219(3) 0.6630(3)
H10 H 0.6257 0.8375 0.6047
H11 H 0.6867 0.7495 0.6695
H12 H 0.7694 0.8540 0.6760
O9 O 0.6016(3) 0.75676(19) 0.93631(15)
O10 O 0.7128(3) 0.90252(19) 0.92930(17)
C9 C 0.7172(4) 0.8091(3) 0.9507(2)
C10 C 0.8593(5) 0.7625(4) 0.9937(3)
H13 H 0.8423 0.7075 1.0299
H14 H 0.9199 0.8130 1.0282
H15 H 0.9075 0.7371 0.9508
O11 O 0.6318(4) 0.5119(3) 0.94066(19)
O12 O 0.6413(4) 0.4291(2) 1.06356(19)
C11 C 0.5808(5) 0.4833(3) 1.0012(3)
O13 O 0.7799(3) 0.5011(3) 0.5920(2)
H16 H 0.764(4) 0.525(4) 0.5414(13)
H17 H 0.8714(14) 0.501(4) 0.612(2)
Pr1A Pr 0.50769(2) 0.125935(13) 0.673252(12)
Pr1A_2 Pr 0.50769(2) 1.125935(13) 0.673252(12)
Pr1B Pr 0.50769(2) 0.374065(13) 1.173252(12)
Pr1B_2 Pr 0.50769(2) 0.374065(13) 0.173252(12)
Pr2B Pr 0.43842(2) 0.572740(13) 0.368800(11)
Pr2A Pr 0.43842(2) 0.927260(13) 0.868800(11)
Pr2A_2 Pr 0.43842(2) -0.072740(13) 0.868800(11)
O1B O 0.5409(3) 0.41183(18) 0.47154(15)
O2B O 0.5322(3) 0.39504(18) 0.33542(15)
O2A O 0.5322(3) 0.10496(18) 0.83542(15)
C1B C 0.5809(4) 0.3659(2) 0.4112(2)
C2B C 0.6898(5) 0.2812(3) 0.4302(3)
H1B H 0.6411 0.2194 0.4399
H2B H 0.7347 0.2722 0.3822
H3B H 0.7636 0.2976 0.4808
O3A O 0.2572(3) 0.1109(2) 0.68708(19)
O4A O 0.2556(3) -0.0448(3) 0.73971(19)
O4B O 0.2556(3) 0.5448(3) 0.23971(19)
C3A C 0.1992(4) 0.0250(3) 0.6910(2)
C4A C 0.0514(5) 0.0043(4) 0.6331(3)
H4A H 0.0488 -0.0642 0.6116
H5A H 0.0342 0.0512 0.5856
H6A H -0.0230 0.0126 0.6652
O5A O 0.7001(3) 0.26939(18) 0.64855(16)
O5C O 0.2999(3) 0.73061(18) 0.35145(16)
O6A O 0.7750(3) 0.1465(2) 0.73970(18)
C5A C 0.8030(4) 0.2248(3) 0.7013(2)
C6A C 0.9541(5) 0.2641(4) 0.7172(4)
H7A H 0.9523 0.3347 0.7012
H8A H 1.0084 0.2261 0.6834
H9A H 1.0000 0.2570 0.7772
O7A O 0.4738(3) 0.29961(17) 0.73426(15)
O7C O 0.5262(3) 0.70039(17) 0.26574(15)
O8A O 0.4288(3) 0.45462(18) 0.76663(17)
O8_2 O 0.5712(3) -0.04538(18) 0.73337(17)
O8C O 0.5712(3) 0.54538(18) 0.23337(17)
C7A C 0.4138(4) 0.3604(2) 0.7767(2)
C8A C 0.3251(5) 0.3219(3) 0.8370(3)
H10A H 0.3743 0.3375 0.8953
H11A H 0.3133 0.2495 0.8305
H12A H 0.2306 0.3540 0.8240
O9A O 0.3984(3) 0.25676(19) 0.56369(15)
O9C O 0.6016(3) 0.74324(19) 0.43631(15)
O10A O 0.2872(3) 0.40252(19) 0.57070(17)
O10C O 0.7128(3) 0.59748(19) 0.42930(17)
C9A C 0.2828(4) 0.3091(3) 0.5493(2)
C10A C 0.1407(5) 0.2625(4) 0.5063(3)
H13A H 0.1577 0.2075 0.4701
H14A H 0.0801 0.3130 0.4718
H15A H 0.0925 0.2371 0.5492
O11B O 0.3682(4) 0.4881(3) 1.05934(19)
O11A O 0.3682(4) 0.0119(3) 0.55934(19)
O12B O 0.3587(4) 0.5709(2) 0.93644(19)
O12C O 0.6413(4) 0.0709(2) 0.56356(19)
C11B C 0.4192(5) 0.5167(3) 0.9988(3)
O13B O 0.2201(3) 0.4989(3) 0.4080(2)
H16B H 0.236(4) 0.475(4) 0.4586(13)
H17B H 0.1286(14) 0.499(4) 0.388(2)
O14 O -0.0704(3) 1.0089(3) 0.8558(3)
H18 H -0.109(5) 1.054(3) 0.820(3)
H19 H -0.139(4) 0.982(4) 0.874(3)
loop_
_geom_bond_atom_site_label_1
_geom_bond_atom_site_label_2
_geom_bond_site_symmetry_1
_geom_bond_site_symmetry_2
Pr1 O2 1_555 1_555
Pr2 O1 1_555 1_555
O1 C1 1_555 1_555
O2 Pr2 1_555 1_555
C1 O2 1_555 1_555
C2 C1 1_555 1_555
H1 C2 1_555 1_555
H2 C2 1_555 1_555
H3 C2 1_555 1_555
O3 Pr1 1_555 1_555
O4 Pr2 1_555 1_555
C3 O3 1_555 1_555
C4 C3 1_555 1_555
H4 C4 1_555 1_555
H5 C4 1_555 1_555
H6 C4 1_555 1_555
O5 Pr1 1_555 1_555
O6 Pr1 1_555 1_555
C5 O5 1_555 1_555
C6 C5 1_555 1_555
H7 C6 1_555 1_555
H8 C6 1_555 1_555
H9 C6 1_555 1_555
O7 Pr1 1_555 1_555
O8 C7 1_555 1_555
C7 O7 1_555 1_555
C8 C7 1_555 1_555
H10 C8 1_555 1_555
H11 C8 1_555 1_555
H12 C8 1_555 1_555
O9 Pr1 1_555 1_555
O10 C9 1_555 1_555
C9 O9 1_555 1_555
C10 C9 1_555 1_555
H13 C10 1_555 1_555
H14 C10 1_555 1_555
H15 C10 1_555 1_555
O11 Pr1 1_555 1_555
O12 C11 1_555 1_555
C11 O11 1_555 1_555
O13 Pr2 1_555 1_555
H16 O13 1_555 1_555
H17 O13 1_555 1_555
O14 H18 1_555 1_555
H19 O14 1_555 1_555
Pr1A O2A 1_555 1_555
Pr1A_2 O8 1_555 1_555
Pr1B O12 1_555 1_555
Pr1B_2 O2B 1_555 1_555
Pr2B O1 1_555 1_555
Pr2A O5 1_555 1_555
Pr2A_2 O2A 1_555 1_555
O1B Pr2 1_555 1_555
O2B Pr2B 1_555 1_555
C1B O1B 1_555 1_555
C2B C1B 1_555 1_555
H1B C2B 1_555 1_555
H2B C2B 1_555 1_555
H3B C2B 1_555 1_555
O3A Pr1A 1_555 1_555
O4A Pr2A_2 1_555 1_555
O4B Pr2B 1_555 1_555
C3A O3A 1_555 1_555
C4A C3A 1_555 1_555
H4A C4A 1_555 1_555
H5A C4A 1_555 1_555
H6A C4A 1_555 1_555
O5A Pr2 1_555 1_555
O5C Pr2B 1_555 1_555
O6A Pr1A 1_555 1_555
C5A O5A 1_555 1_555
C6A C5A 1_555 1_555
H7A C6A 1_555 1_555
H8A C6A 1_555 1_555
H9A C6A 1_555 1_555
O7A Pr2 1_555 1_555
O7C Pr2B 1_555 1_555
O8A Pr1 1_555 1_555
O8_2 Pr1A 1_555 1_555
O8C Pr1B_2 1_555 1_555
C7A O7A 1_555 1_555
C8A C7A 1_555 1_555
H10A C8A 1_555 1_555
H11A C8A 1_555 1_555
H12A C8A 1_555 1_555
O9A Pr2 1_555 1_555
O9C Pr2B 1_555 1_555
O10A Pr2 1_555 1_555
O10C Pr2B 1_555 1_555
C9A O9A 1_555 1_555
C10A C9A 1_555 1_555
H13A C10A 1_555 1_555
H14A C10A 1_555 1_555
H15A C10A 1_555 1_555
O11B Pr1B 1_555 1_555
O11A Pr1A 1_555 1_555
O12B Pr1 1_555 1_555
O12C Pr1A 1_555 1_555
C11B C11 1_555 1_555
O13B Pr2B 1_555 1_555
H16B O13B 1_555 1_555
H17B O13B 1_555 1_555
Pr2 O8A 1_555 1_555
O4 C3 1_555 1_555
O6 C5 1_555 1_555
O7 Pr2A 1_555 1_555
O8 Pr2A 1_555 1_555
O9 Pr2A 1_555 1_555
O10 Pr2A 1_555 1_555
Pr1A O5A 1_555 1_555
Pr1A O7A 1_555 1_555
Pr1A O9A 1_555 1_555
Pr2B O1B 1_555 1_555
Pr2B O8C 1_555 1_555
Pr2A_2 O8_2 1_555 1_555
O2B C1B 1_555 1_555
O4A C3A 1_555 1_555
O6A C5A 1_555 1_555
O8A C7A 1_555 1_555
O10A C9A 1_555 1_555
O11B C11B 1_555 1_555
O12B C11B 1_555 1_555

#END
