
#######################################################################
#
#                 Cambridge Crystallographic Data Centre
#                                CCDC 
#
#######################################################################
#
# If this CIF has been generated from an entry in the Cambridge 
# Structural Database, then it will include bibliographic, chemical, 
# crystal, experimental, refinement or atomic coordinate data resulting 
# from the CCDC's data processing and validation procedures.
#
#######################################################################

data_ENONIF
_symmetry_cell_setting           orthorhombic
_symmetry_space_group_name_H-M   'P c 21 b'
_symmetry_Int_Tables_number      29
_space_group_name_Hall           'P -2bc -2c'
loop_
_symmetry_equiv_pos_site_id
_symmetry_equiv_pos_as_xyz
1 x,y,z
2 -x,1/2+y,-z
3 -x,y,1/2+z
4 x,1/2+y,1/2-z
_cell_length_a                   6.1439(2)
_cell_length_b                   9.6915(3)
_cell_length_c                   27.5599(7)
_cell_angle_alpha                90
_cell_angle_beta                 90
_cell_angle_gamma                90
_cell_volume                     1641.02
loop_
_atom_site_label
_atom_site_type_symbol
_atom_site_fract_x
_atom_site_fract_y
_atom_site_fract_z
V1 V 0.66473(5) 0.79684(3) 0.570500(9)
O1 O 0.4104(2) 0.86373(17) 0.60118(5)
O2 O 0.8802(3) 0.65046(19) 0.56830(5)
O3 O 0.7978(3) 0.93242(18) 0.55461(6)
O4 O 0.5395(2) 0.73463(17) 0.52223(5)
O5 O 0.7562(3) 0.5041(2) 0.48216(6)
H1 H 0.709(4) 0.469(3) 0.4576(7)
H2 H 0.666(4) 0.562(3) 0.4902(11)
O6 O 1.1278(3) 0.7320(2) 0.47574(7)
H3 H 1.055(5) 0.795(2) 0.4645(10)
H4 H 1.202(5) 0.768(3) 0.4969(9)
Li1 Li 1.0530(6) 0.5539(4) 0.49873(14)
N1 N 0.7658(2) 0.76463(17) 0.64465(5)
N2 N 0.9399(3) 0.6728(2) 0.65015(6)
N3 N 1.3753(3) 0.3842(2) 0.56703(6)
H5 H 1.4325 0.3347 0.5445
N4 N 1.2033(3) 0.46678(19) 0.55985(6)
C1 C 0.3833(3) 0.9360(2) 0.64192(7)
C2 C 0.2016(4) 1.0243(3) 0.64415(8)
H6 H 0.1065 1.0290 0.6179
C3 C 0.1630(4) 1.1033(3) 0.68441(10)
H7 H 0.0429 1.1616 0.6852
C4 C 0.3022(5) 1.0972(3) 0.72422(9)
H8 H 0.2787 1.1533 0.7511
C5 C 0.4748(4) 1.0070(3) 0.72330(8)
H9 H 0.5636 1.0002 0.7505
C6 C 0.5218(3) 0.9245(2) 0.68246(6)
C7 C 0.7059(3) 0.8291(2) 0.68385(6)
C8 C 0.8250(4) 0.8053(4) 0.73021(7)
H10 H 0.9367 0.7376 0.7252
H11 H 0.7251 0.7728 0.7544
H12 H 0.8898 0.8902 0.7409
C9 C 0.9873(3) 0.6214(2) 0.60797(6)
C10 C 1.1672(3) 0.5240(2) 0.60341(7)
C11 C 1.3168(4) 0.4774(3) 0.63750(7)
H13 H 1.3257 0.5023 0.6700
C12 C 1.4498(3) 0.3861(2) 0.61279(7)
C13 C 1.6382(4) 0.3010(4) 0.62929(8)
H14 H 1.6712 0.2328 0.6051
H15 H 1.6020 0.2561 0.6593
H16 H 1.7626 0.3594 0.6341
O3A O 1.2022(3) 0.43242(18) 0.44539(6)
Li1A Li 0.9470(6) 1.0539(4) 0.50127(14)
loop_
_geom_bond_atom_site_label_1
_geom_bond_atom_site_label_2
_geom_bond_site_symmetry_1
_geom_bond_site_symmetry_2
V1 O1 1_555 1_555
O1 C1 1_555 1_555
O2 V1 1_555 1_555
O3 V1 1_555 1_555
O4 V1 1_555 1_555
O5 H1 1_555 1_555
H2 O5 1_555 1_555
O6 H3 1_555 1_555
H4 O6 1_555 1_555
Li1 O2 1_555 1_555
N1 V1 1_555 1_555
N2 N1 1_555 1_555
N3 H5 1_555 1_555
N4 Li1 1_555 1_555
C1 C2 1_555 1_555
C2 H6 1_555 1_555
C3 C2 1_555 1_555
H7 C3 1_555 1_555
C4 C3 1_555 1_555
H8 C4 1_555 1_555
C5 C4 1_555 1_555
H9 C5 1_555 1_555
C6 C1 1_555 1_555
C7 N1 1_555 1_555
C8 C7 1_555 1_555
H10 C8 1_555 1_555
H11 C8 1_555 1_555
H12 C8 1_555 1_555
C9 O2 1_555 1_555
C10 N4 1_555 1_555
C11 C10 1_555 1_555
H13 C11 1_555 1_555
C12 N3 1_555 1_555
C13 C12 1_555 1_555
H14 C13 1_555 1_555
H15 C13 1_555 1_555
H16 C13 1_555 1_555
O3A Li1 1_555 1_555
Li1A O3 1_555 1_555
O5 Li1 1_555 1_555
O6 Li1 1_555 1_555
N2 C9 1_555 1_555
N3 N4 1_555 1_555
C5 C6 1_555 1_555
C6 C7 1_555 1_555
C9 C10 1_555 1_555
C11 C12 1_555 1_555

#END
