
#######################################################################
#
#                 Cambridge Crystallographic Data Centre
#                                CCDC 
#
#######################################################################
#
# If this CIF has been generated from an entry in the Cambridge 
# Structural Database, then it will include bibliographic, chemical, 
# crystal, experimental, refinement or atomic coordinate data resulting 
# from the CCDC's data processing and validation procedures.
#
#######################################################################

data_ENOWIO
_symmetry_cell_setting           cubic
_symmetry_space_group_name_H-M   'F m -3'
_symmetry_Int_Tables_number      202
_space_group_name_Hall           '-F 2 2 3'
loop_
_symmetry_equiv_pos_site_id
_symmetry_equiv_pos_as_xyz
1 x,y,z
2 z,x,y
3 y,z,x
4 x,1/2+y,1/2+z
5 z,1/2+x,1/2+y
6 y,1/2+z,1/2+x
7 1/2+x,y,1/2+z
8 1/2+z,x,1/2+y
9 1/2+y,z,1/2+x
10 1/2+x,1/2+y,z
11 1/2+z,1/2+x,y
12 1/2+y,1/2+z,x
13 -x,-y,z
14 -x,y,-z
15 x,-y,-z
16 z,-x,-y
17 -z,-x,y
18 -z,x,-y
19 -y,z,-x
20 y,-z,-x
21 -y,-z,x
22 -x,1/2-y,1/2+z
23 -x,1/2+y,1/2-z
24 x,1/2-y,1/2-z
25 z,1/2-x,1/2-y
26 -z,1/2-x,1/2+y
27 -z,1/2+x,1/2-y
28 -y,1/2+z,1/2-x
29 y,1/2-z,1/2-x
30 -y,1/2-z,1/2+x
31 1/2-x,-y,1/2+z
32 1/2-x,y,1/2-z
33 1/2+x,-y,1/2-z
34 1/2+z,-x,1/2-y
35 1/2-z,-x,1/2+y
36 1/2-z,x,1/2-y
37 1/2-y,z,1/2-x
38 1/2+y,-z,1/2-x
39 1/2-y,-z,1/2+x
40 1/2-x,1/2-y,z
41 1/2-x,1/2+y,-z
42 1/2+x,1/2-y,-z
43 1/2+z,1/2-x,-y
44 1/2-z,1/2-x,y
45 1/2-z,1/2+x,-y
46 1/2-y,1/2+z,-x
47 1/2+y,1/2-z,-x
48 1/2-y,1/2-z,x
49 -x,-y,-z
50 -z,-x,-y
51 -y,-z,-x
52 -x,1/2-y,1/2-z
53 -z,1/2-x,1/2-y
54 -y,1/2-z,1/2-x
55 1/2-x,-y,1/2-z
56 1/2-z,-x,1/2-y
57 1/2-y,-z,1/2-x
58 1/2-x,1/2-y,-z
59 1/2-z,1/2-x,-y
60 1/2-y,1/2-z,-x
61 x,y,-z
62 x,-y,z
63 -x,y,z
64 -z,x,y
65 z,x,-y
66 z,-x,y
67 y,-z,x
68 -y,z,x
69 y,z,-x
70 x,1/2+y,1/2-z
71 x,1/2-y,1/2+z
72 -x,1/2+y,1/2+z
73 -z,1/2+x,1/2+y
74 z,1/2+x,1/2-y
75 z,1/2-x,1/2+y
76 y,1/2-z,1/2+x
77 -y,1/2+z,1/2+x
78 y,1/2+z,1/2-x
79 1/2+x,y,1/2-z
80 1/2+x,-y,1/2+z
81 1/2-x,y,1/2+z
82 1/2-z,x,1/2+y
83 1/2+z,x,1/2-y
84 1/2+z,-x,1/2+y
85 1/2+y,-z,1/2+x
86 1/2-y,z,1/2+x
87 1/2+y,z,1/2-x
88 1/2+x,1/2+y,-z
89 1/2+x,1/2-y,z
90 1/2-x,1/2+y,z
91 1/2-z,1/2+x,y
92 1/2+z,1/2+x,-y
93 1/2+z,1/2-x,y
94 1/2+y,1/2-z,x
95 1/2-y,1/2+z,x
96 1/2+y,1/2+z,-x
_cell_length_a                   24.593(2)
_cell_length_b                   24.593(2)
_cell_length_c                   24.593(2)
_cell_angle_alpha                90
_cell_angle_beta                 90
_cell_angle_gamma                90
_cell_volume                     14874.2
loop_
_atom_site_label
_atom_site_type_symbol
_atom_site_fract_x
_atom_site_fract_y
_atom_site_fract_z
O2 O 0.5000 0.0000 0.0000
O3 O 0.0000 0.0000 0.0000
Cd1 Cd 0.36362(3) 0.13638(3) 0.13638(3)
Cs1 Cs 0.3271(8) 0.3271(8) 0.1729(8)
O4 O 0.3234(5) 0.2213(4) 0.1176(5)
O5 O 0.3044(4) 0.2792(3) 0.0500(4)
N2 N 0.3558(3) 0.1433(3) 0.0458(4)
C3 C 0.3669(6) 0.1156(7) 0.0000
H4 H 0.3813 0.0797 0.0000
C4 C 0.3357(4) 0.1910(4) 0.0287(5)
C5 C 0.3205(6) 0.2320(5) 0.0685(8)
O4JA O 0.2787(4) 0.1176(5) 0.1766(5)
O4QA O 0.3824(5) 0.1766(5) 0.2213(4)
O4BA O 0.2213(4) 0.3824(5) 0.1766(5)
O4IA O 0.3824(5) 0.3234(5) 0.2787(4)
O5BA O 0.2792(3) 0.4500(4) 0.1956(4)
O5IA O 0.4500(4) 0.3044(4) 0.2208(3)
N2JA N 0.3567(3) 0.0458(4) 0.1442(3)
N2QA N 0.4542(4) 0.1442(3) 0.1433(3)
N2HB N 0.3558(3) 0.1433(3) -0.0458(4)
C4HB C 0.3357(4) 0.1910(4) -0.0287(5)
N1 N 0.3098(9) 0.4237(10) 0.0000
C1 C 0.2774(9) 0.4198(11) 0.0471(10)
H1 H 0.2389 0.4210 0.0370
H2 H 0.2858 0.4502 0.0715
H3 H 0.2852 0.3854 0.0657
O1 O 0.3865(11) 0.410(4) 0.0464(13)
C2 C 0.3625(12) 0.4185(18) 0.0000
C1HB C 0.2774(9) 0.4198(11) -0.0471(10)
O1HB O 0.3865(11) 0.410(4) -0.0464(13)
Cs2? Cs 0.2983(2) 0.2983(2) 0.2017(2)
Cs3? Cs 0.3429(7) 0.3429(7) 0.1571(7)
O6? O 0.5000 0.0519(16) 0.0000
H5? H 0.3039 0.2862 0.0000
loop_
_geom_bond_atom_site_label_1
_geom_bond_atom_site_label_2
_geom_bond_site_symmetry_1
_geom_bond_site_symmetry_2
N1 C1 1_555 1_555
C1 H1 1_555 1_555
H2 C1 1_555 1_555
H3 C1 1_555 1_555
O1 C2 1_555 1_555
C2 N1 1_555 1_555
Cd1 O4 1_555 1_555
Cs1 O4 1_555 1_555
O4 C5 1_555 1_555
O5 Cs1 1_555 1_555
N2 Cd1 1_555 1_555
C3 N2 1_555 1_555
H4 C3 1_555 1_555
C4 N2 1_555 1_555
C5 O5 1_555 1_555
C1HB N1 1_555 1_555
O1HB C2 1_555 1_555
O4JA Cd1 1_555 1_555
O4QA Cd1 1_555 1_555
O4BA Cs1 1_555 1_555
O4IA Cs1 1_555 1_555
O5BA Cs1 1_555 1_555
O5IA Cs1 1_555 1_555
N2JA Cd1 1_555 1_555
N2QA Cd1 1_555 1_555
N2HB C3 1_555 1_555
C4HB C4 1_555 1_555
C4 C5 1_555 1_555
N2HB C4HB 1_555 1_555

#END
