
#######################################################################
#
#                 Cambridge Crystallographic Data Centre
#                                CCDC 
#
#######################################################################
#
# If this CIF has been generated from an entry in the Cambridge 
# Structural Database, then it will include bibliographic, chemical, 
# crystal, experimental, refinement or atomic coordinate data resulting 
# from the CCDC's data processing and validation procedures.
#
#######################################################################

data_ENOZUD
_symmetry_cell_setting           trigonal
_symmetry_space_group_name_H-M   'P -3'
_symmetry_Int_Tables_number      147
_space_group_name_Hall           '-P 3'
loop_
_symmetry_equiv_pos_site_id
_symmetry_equiv_pos_as_xyz
1 x,y,z
2 -y,x-y,z
3 -x+y,-x,z
4 -x,-y,-z
5 y,-x+y,-z
6 x-y,x,-z
_cell_length_a                   13.3840(6)
_cell_length_b                   13.3840(6)
_cell_length_c                   9.3264(3)
_cell_angle_alpha                90
_cell_angle_beta                 90
_cell_angle_gamma                120
_cell_volume                     1446.83
loop_
_atom_site_label
_atom_site_type_symbol
_atom_site_fract_x
_atom_site_fract_y
_atom_site_fract_z
Rb1 Rb 1.0000 1.0000 1.0000
Rb2 Rb 1.0000 1.0000 0.5000
F1 F 0.76345(16) 0.90431(18) 0.85975(19)
F2 F 0.75924(14) 0.89172(15) 0.62126(17)
F3 F 0.87357(13) 0.84529(13) 0.74865(17)
F4 F 0.67952(15) 0.72744(15) 0.7514(2)
B1 B 0.7667(3) 0.8402(3) 0.7452(3)
Rb1_2 Rb 1.0000 1.0000 0.0000
F1A F 1.09569(18) 0.85914(24) 0.85975(19)
F1B F 1.14086(24) 1.23655(16) 0.85975(19)
F1C F 1.23655(16) 1.09569(18) 0.14025(19)
F1D F 0.90431(18) 1.14086(24) 0.14025(19)
F1E F 0.85914(24) 0.76345(16) 0.14025(19)
F1C_2 F 1.23655(16) 1.09569(18) 1.14025(19)
F1D_2 F 0.90431(18) 1.14086(24) 1.14025(19)
F1E_2 F 0.85914(24) 0.76345(16) 1.14025(19)
F2A F 1.10828(15) 0.86752(21) 0.62126(17)
F2B F 1.13248(21) 1.24076(14) 0.62126(17)
F2C F 1.24076(14) 1.10828(15) 0.37874(17)
F2D F 0.89172(15) 1.13248(21) 0.37874(17)
F2E F 0.86752(21) 0.75924(14) 0.37874(17)
F3A F 1.15471(13) 1.02828(18) 0.74865(17)
F3B F 0.97172(18) 1.12643(13) 0.74865(17)
F3C F 1.12643(13) 1.15471(13) 0.25135(17)
F3D F 0.84529(13) 0.97172(18) 0.25135(17)
F3E F 1.02828(18) 0.87357(13) 0.25135(17)
F3C_2 F 1.12643(13) 1.15471(13) 1.25135(17)
F3D_2 F 0.84529(13) 0.97172(18) 1.25135(17)
F3E_2 F 1.02828(18) 0.87357(13) 1.25135(17)
F4A F 1.27256(15) 0.95208(21) 0.7514(2)
F4B F 1.04792(21) 1.32048(15) 0.7514(2)
F4C F 1.32048(15) 1.27256(15) 0.2486(2)
F4D F 0.72744(15) 1.04792(21) 0.2486(2)
F4E F 0.95208(21) 0.67952(15) 0.2486(2)
B1A B 1.1598(3) 0.9265(4) 0.7452(3)
B1B B 1.0735(4) 1.2333(3) 0.7452(3)
B1C B 1.2333(3) 1.1598(3) 0.2548(3)
B1D B 0.8402(3) 1.0735(4) 0.2548(3)
B1E B 0.9265(4) 0.7667(3) 0.2548(3)
Fe1 Fe 0.6667 0.3333 0.86316(5)
N1 N 0.6667 0.3333 1.2234(4)
N2 N 0.68374(16) 0.46942(16) 0.96808(18)
N3 N 0.78769(15) 0.45592(15) 0.74623(18)
N4 N 0.89008(18) 0.64002(18) 0.6980(2)
H1 H 0.9186 0.7134 0.7045
C1 C 0.6619(3) 0.4378(3) 1.2300(2)
H2 H 0.7387 0.5013 1.2502
H3 H 0.6127 0.4322 1.3096
C2 C 0.6175(2) 0.4663(2) 1.0952(2)
H4 H 0.5370 0.4088 1.0813
H5 H 0.6225 0.5407 1.1068
C3 C 0.7532(2) 0.5676(2) 0.9116(3)
H6 H 0.7642 0.6371 0.9478
C4 C 0.8121(2) 0.56017(18) 0.7876(2)
C5 C 0.8525(2) 0.4702(2) 0.6258(3)
H7 H 0.8531 0.4114 0.5732
C6 C 0.9156(2) 0.5849(3) 0.5965(3)
H8 H 0.9667 0.6188 0.5205
N2A N 0.53058(16) 0.21432(23) 0.96808(18)
N2B N 0.78568(23) 0.31626(16) 0.96808(18)
N3A N 0.54408(15) 0.33177(21) 0.74623(18)
N3B N 0.66823(21) 0.21231(15) 0.74623(18)
N4A N 0.35998(18) 0.25006(25) 0.6980(2)
N4B N 0.74994(25) 0.10992(18) 0.6980(2)
H1A H 0.2866 0.2052 0.7045
H1B H 0.7948 0.0814 0.7045
C1A C 0.5622(3) 0.2241(4) 1.2300(2)
C1B C 0.7759(4) 0.3381(3) 1.2300(2)
H2A H 0.4987 0.2374 1.2502
H2B H 0.7626 0.2613 1.2502
H3A H 0.5678 0.1805 1.3096
H3B H 0.8195 0.3873 1.3096
C2A C 0.5337(2) 0.1512(3) 1.0952(2)
C2B C 0.8488(3) 0.3825(2) 1.0952(2)
H4A H 0.5912 0.1282 1.0813
H4B H 0.8718 0.4630 1.0813
H5A H 0.4593 0.0818 1.1068
H5B H 0.9182 0.3775 1.1068
C3A C 0.4324(2) 0.1856(3) 0.9116(3)
C3B C 0.8144(3) 0.2468(2) 0.9116(3)
H6A H 0.3629 0.1271 0.9478
H6B H 0.8729 0.2358 0.9478
C4A C 0.43983(18) 0.25193(27) 0.7876(2)
C4B C 0.74807(27) 0.1879(2) 0.7876(2)
C5A C 0.5298(2) 0.3823(3) 0.6258(3)
C5B C 0.6177(3) 0.1475(2) 0.6258(3)
H7A H 0.5886 0.4417 0.5732
H7B H 0.5583 0.1469 0.5732
C6A C 0.4151(3) 0.3307(4) 0.5965(3)
C6B C 0.6693(4) 0.0844(2) 0.5965(3)
H8A H 0.3812 0.3479 0.5205
H8B H 0.6521 0.0333 0.5205
loop_
_geom_bond_atom_site_label_1
_geom_bond_atom_site_label_2
_geom_bond_site_symmetry_1
_geom_bond_site_symmetry_2
Rb1 F1 1_555 1_555
Rb2 F2 1_555 1_555
Fe1 N2 1_555 1_555
F1 B1 1_555 1_555
F2 B1 1_555 1_555
F3 Rb1 1_555 1_555
F4 B1 1_555 1_555
N1 C1 1_555 1_555
N2 C2 1_555 1_555
N3 Fe1 1_555 1_555
N4 H1 1_555 1_555
C1 H2 1_555 1_555
H3 C1 1_555 1_555
C2 C1 1_555 1_555
H4 C2 1_555 1_555
H5 C2 1_555 1_555
C3 N2 1_555 1_555
H6 C3 1_555 1_555
C4 N3 1_555 1_555
C5 N3 1_555 1_555
H7 C5 1_555 1_555
C6 N4 1_555 1_555
H8 C6 1_555 1_555
B1 F3 1_555 1_555
Rb1_2 F1C 1_555 1_555
F1A Rb1 1_555 1_555
F1B Rb1 1_555 1_555
F1C B1C 1_555 1_555
F1D Rb1_2 1_555 1_555
F1E Rb1_2 1_555 1_555
F1C_2 Rb1 1_555 1_555
F1D_2 Rb1 1_555 1_555
F1E_2 Rb1 1_555 1_555
F2A Rb2 1_555 1_555
F2B Rb2 1_555 1_555
F2C Rb2 1_555 1_555
F2D Rb2 1_555 1_555
F2E Rb2 1_555 1_555
F3A Rb1 1_555 1_555
F3B Rb1 1_555 1_555
F3C Rb2 1_555 1_555
F3D Rb2 1_555 1_555
F3E Rb2 1_555 1_555
F3C_2 Rb1 1_555 1_555
F3D_2 Rb1 1_555 1_555
F3E_2 Rb1 1_555 1_555
F4A B1A 1_555 1_555
F4B B1B 1_555 1_555
F4C B1C 1_555 1_555
F4D B1D 1_555 1_555
F4E B1E 1_555 1_555
N2A Fe1 1_555 1_555
N2B Fe1 1_555 1_555
N3A Fe1 1_555 1_555
N3B Fe1 1_555 1_555
N4A H1A 1_555 1_555
N4B H1B 1_555 1_555
C1A N1 1_555 1_555
C1B N1 1_555 1_555
H2A C1A 1_555 1_555
H2B C1B 1_555 1_555
H3A C1A 1_555 1_555
H3B C1B 1_555 1_555
C2A N2A 1_555 1_555
C2B N2B 1_555 1_555
H4A C2A 1_555 1_555
H4B C2B 1_555 1_555
H5A C2A 1_555 1_555
H5B C2B 1_555 1_555
C3A N2A 1_555 1_555
C3B N2B 1_555 1_555
H6A C3A 1_555 1_555
H6B C3B 1_555 1_555
C4A N3A 1_555 1_555
C4B N3B 1_555 1_555
C5A N3A 1_555 1_555
C5B N3B 1_555 1_555
H7A C5A 1_555 1_555
H7B C5B 1_555 1_555
C6A N4A 1_555 1_555
C6B N4B 1_555 1_555
H8A C6A 1_555 1_555
H8B C6B 1_555 1_555
B1A F1A 1_555 1_555
B1B F1B 1_555 1_555
B1C F2C 1_555 1_555
B1D F1D 1_555 1_555
B1E F1E 1_555 1_555
Rb2 F3 1_555 1_555
Rb2 F3A 1_555 1_555
Rb2 F3B 1_555 1_555
N4 C4 1_555 1_555
C3 C4 1_555 1_555
C5 C6 1_555 1_555
Rb1_2 F3C 1_555 1_555
Rb1_2 F3D 1_555 1_555
Rb1_2 F3E 1_555 1_555
F2A B1A 1_555 1_555
F2B B1B 1_555 1_555
F2D B1D 1_555 1_555
F2E B1E 1_555 1_555
F3A B1A 1_555 1_555
F3B B1B 1_555 1_555
F3C B1C 1_555 1_555
F3D B1D 1_555 1_555
F3E B1E 1_555 1_555
N4A C4A 1_555 1_555
N4B C4B 1_555 1_555
C1A C2A 1_555 1_555
C1B C2B 1_555 1_555
C3A C4A 1_555 1_555
C3B C4B 1_555 1_555
C5A C6A 1_555 1_555
C5B C6B 1_555 1_555

#END
