
#######################################################################
#
#                 Cambridge Crystallographic Data Centre
#                                CCDC 
#
#######################################################################
#
# If this CIF has been generated from an entry in the Cambridge 
# Structural Database, then it will include bibliographic, chemical, 
# crystal, experimental, refinement or atomic coordinate data resulting 
# from the CCDC's data processing and validation procedures.
#
#######################################################################

data_ENOZAJ
_symmetry_cell_setting           trigonal
_symmetry_space_group_name_H-M   'P -3'
_symmetry_Int_Tables_number      147
_space_group_name_Hall           '-P 3'
loop_
_symmetry_equiv_pos_site_id
_symmetry_equiv_pos_as_xyz
1 x,y,z
2 -y,x-y,z
3 -x+y,-x,z
4 -x,-y,-z
5 y,-x+y,-z
6 x-y,x,-z
_cell_length_a                   13.1987(2)
_cell_length_b                   13.1987(2)
_cell_length_c                   9.24700(10)
_cell_angle_alpha                90
_cell_angle_beta                 90
_cell_angle_gamma                120
_cell_volume                     1395.06
loop_
_atom_site_label
_atom_site_type_symbol
_atom_site_fract_x
_atom_site_fract_y
_atom_site_fract_z
Fe1 Fe 0.6667 0.3333 0.62794(6)
N1 N 0.6667 0.3333 0.2589(5)
N2 N 0.6844(2) 0.47096(19) 0.5210(2)
N3 N 0.7888(2) 0.4567(2) 0.7467(2)
N4 N 0.8909(3) 0.6440(3) 0.7968(3)
H1 H 0.9198 0.7193 0.7905
C1 C 0.6632(3) 0.4401(3) 0.2562(3)
H2 H 0.6140 0.4368 0.1748
H3 H 0.7425 0.5049 0.2376
C2 C 0.6171(3) 0.4681(3) 0.3938(3)
H4 H 0.6217 0.5441 0.3828
H5 H 0.5348 0.4087 0.4077
C3 C 0.7558(3) 0.5713(2) 0.5779(3)
H6 H 0.7679 0.6426 0.5403
C4 C 0.8149(3) 0.5634(2) 0.7042(3)
C5 C 0.8510(3) 0.4711(3) 0.8700(3)
H7 H 0.8500 0.4104 0.9243
C6 C 0.9145(3) 0.5868(4) 0.9024(4)
H8 H 0.9648 0.6207 0.9819
N2A N 0.52904(19) 0.21344(28) 0.5210(2)
N2B N 0.78656(28) 0.3156(2) 0.5210(2)
N3A N 0.5433(2) 0.3321(3) 0.7467(2)
N3B N 0.6679(3) 0.2112(2) 0.7467(2)
N4A N 0.3560(3) 0.2469(4) 0.7968(3)
N4B N 0.7531(4) 0.1091(3) 0.7968(3)
H1A H 0.2807 0.2005 0.7905
H1B H 0.7995 0.0802 0.7905
C1A C 0.5599(3) 0.2231(4) 0.2562(3)
C1B C 0.7769(4) 0.3368(3) 0.2562(3)
H2A H 0.5632 0.1772 0.1748
H2B H 0.8228 0.3860 0.1748
H3A H 0.4951 0.2376 0.2376
H3B H 0.7624 0.2575 0.2376
C2A C 0.5319(3) 0.1490(4) 0.3938(3)
C2B C 0.8510(4) 0.3829(3) 0.3938(3)
H4A H 0.4559 0.0776 0.3828
H4B H 0.9224 0.3783 0.3828
H5A H 0.5913 0.1261 0.4077
H5B H 0.8739 0.4652 0.4077
C3A C 0.4287(2) 0.1845(4) 0.5779(3)
C3B C 0.8155(4) 0.2442(3) 0.5779(3)
H6A H 0.3574 0.1253 0.5403
H6B H 0.8747 0.2321 0.5403
C4A C 0.4366(2) 0.2515(4) 0.7042(3)
C4B C 0.7485(4) 0.1851(3) 0.7042(3)
C5A C 0.5289(3) 0.3799(4) 0.8700(3)
C5B C 0.6201(4) 0.1490(3) 0.8700(3)
H7A H 0.5896 0.4396 0.9243
H7B H 0.5604 0.1500 0.9243
C6A C 0.4132(4) 0.3277(5) 0.9024(4)
C6B C 0.6723(5) 0.0855(3) 0.9024(4)
H8A H 0.3793 0.3441 0.9819
H8B H 0.6559 0.0352 0.9819
Na1 Na 1.0000 1.0000 1.0000
Na2 Na 1.0000 1.0000 0.5000
F1 F 0.8263(3) 0.8841(4) 0.8824(3)
F2 F 0.7373(3) 0.9018(3) 0.6856(5)
F3 F 0.8726(3) 0.8477(3) 0.6628(4)
F4 F 0.6979(3) 0.7241(2) 0.7602(4)
B1 B 0.78337(16) 0.83922(15) 0.7480(2)
Na1_2 Na 1.0000 1.0000 0.0000
F1A F 1.1159(4) 0.9422(5) 0.8824(3)
F1B F 1.0578(5) 1.1737(3) 0.8824(3)
F1C F 1.1737(3) 1.1159(4) 0.1176(3)
F1D F 0.8841(4) 1.0578(5) 0.1176(3)
F1E F 0.9422(5) 0.8263(3) 0.1176(3)
F1C_2 F 1.1737(3) 1.1159(4) 1.1176(3)
F1D_2 F 0.8841(4) 1.0578(5) 1.1176(3)
F1E_2 F 0.9422(5) 0.8263(3) 1.1176(3)
F2A F 1.0982(3) 0.8355(4) 0.6856(5)
F2B F 1.1645(4) 1.2627(3) 0.6856(5)
F2C F 1.2627(3) 1.0982(3) 0.3144(5)
F2D F 0.9018(3) 1.1645(4) 0.3144(5)
F2E F 0.8355(4) 0.7373(3) 0.3144(5)
F3A F 1.1523(3) 1.0249(4) 0.6628(4)
F3B F 0.9751(4) 1.1274(3) 0.6628(4)
F3C F 1.1274(3) 1.1523(3) 0.3372(4)
F3D F 0.8477(3) 0.9751(4) 0.3372(4)
F3E F 1.0249(4) 0.8726(3) 0.3372(4)
F4A F 1.2759(2) 0.9738(4) 0.7602(4)
F4B F 1.0262(4) 1.3021(3) 0.7602(4)
F4C F 1.3021(3) 1.2759(2) 0.2398(4)
F4D F 0.7241(2) 1.0262(4) 0.2398(4)
F4E F 0.9738(4) 0.6979(3) 0.2398(4)
B1A B 1.16078(15) 0.94415(22) 0.7480(2)
B1B B 1.05585(22) 1.21663(16) 0.7480(2)
B1C B 1.21663(16) 1.16078(15) 0.2520(2)
B1D B 0.83922(15) 1.05585(22) 0.2520(2)
B1E B 0.94415(22) 0.78337(16) 0.2520(2)
F5? F 0.8736(5) 0.8553(9) 0.8367(8)
F6? F 0.8225(7) 0.8646(7) 0.6080(4)
F7? F 0.7422(9) 0.9115(7) 0.7910(10)
F8? F 0.6948(6) 0.7249(3) 0.7565(9)
loop_
_geom_bond_atom_site_label_1
_geom_bond_atom_site_label_2
_geom_bond_site_symmetry_1
_geom_bond_site_symmetry_2
Fe1 N2 1_555 1_555
N1 C1 1_555 1_555
N2 C2 1_555 1_555
N3 Fe1 1_555 1_555
N4 H1 1_555 1_555
C1 H2 1_555 1_555
H3 C1 1_555 1_555
C2 C1 1_555 1_555
H4 C2 1_555 1_555
H5 C2 1_555 1_555
C3 N2 1_555 1_555
H6 C3 1_555 1_555
C4 N3 1_555 1_555
C5 N3 1_555 1_555
H7 C5 1_555 1_555
C6 N4 1_555 1_555
H8 C6 1_555 1_555
Na1 F1 1_555 1_555
Na2 F3 1_555 1_555
F1 B1 1_555 1_555
F2 B1 1_555 1_555
F3 B1 1_555 1_555
F4 B1 1_555 1_555
N2A Fe1 1_555 1_555
N2B Fe1 1_555 1_555
N3A Fe1 1_555 1_555
N3B Fe1 1_555 1_555
N4A H1A 1_555 1_555
N4B H1B 1_555 1_555
C1A N1 1_555 1_555
C1B N1 1_555 1_555
H2A C1A 1_555 1_555
H2B C1B 1_555 1_555
H3A C1A 1_555 1_555
H3B C1B 1_555 1_555
C2A N2A 1_555 1_555
C2B N2B 1_555 1_555
H4A C2A 1_555 1_555
H4B C2B 1_555 1_555
H5A C2A 1_555 1_555
H5B C2B 1_555 1_555
C3A N2A 1_555 1_555
C3B N2B 1_555 1_555
H6A C3A 1_555 1_555
H6B C3B 1_555 1_555
C4A N3A 1_555 1_555
C4B N3B 1_555 1_555
C5A N3A 1_555 1_555
C5B N3B 1_555 1_555
H7A C5A 1_555 1_555
H7B C5B 1_555 1_555
C6A N4A 1_555 1_555
C6B N4B 1_555 1_555
H8A C6A 1_555 1_555
H8B C6B 1_555 1_555
Na1_2 F1C 1_555 1_555
F1A Na1 1_555 1_555
F1B Na1 1_555 1_555
F1C B1C 1_555 1_555
F1D Na1_2 1_555 1_555
F1E Na1_2 1_555 1_555
F1C_2 Na1 1_555 1_555
F1D_2 Na1 1_555 1_555
F1E_2 Na1 1_555 1_555
F2A B1A 1_555 1_555
F2B B1B 1_555 1_555
F2C B1C 1_555 1_555
F2D B1D 1_555 1_555
F2E B1E 1_555 1_555
F3A Na2 1_555 1_555
F3B Na2 1_555 1_555
F3C Na2 1_555 1_555
F3D Na2 1_555 1_555
F3E Na2 1_555 1_555
F4A B1A 1_555 1_555
F4B B1B 1_555 1_555
F4C B1C 1_555 1_555
F4D B1D 1_555 1_555
F4E B1E 1_555 1_555
B1A F1A 1_555 1_555
B1B F1B 1_555 1_555
B1C F3C 1_555 1_555
B1D F1D 1_555 1_555
B1E F1E 1_555 1_555
N4 C4 1_555 1_555
C3 C4 1_555 1_555
C5 C6 1_555 1_555
N4A C4A 1_555 1_555
N4B C4B 1_555 1_555
C1A C2A 1_555 1_555
C1B C2B 1_555 1_555
C3A C4A 1_555 1_555
C3B C4B 1_555 1_555
C5A C6A 1_555 1_555
C5B C6B 1_555 1_555
F3A B1A 1_555 1_555
F3B B1B 1_555 1_555
F3D B1D 1_555 1_555
F3E B1E 1_555 1_555

#END
