
#######################################################################
#
#                 Cambridge Crystallographic Data Centre
#                                CCDC 
#
#######################################################################
#
# If this CIF has been generated from an entry in the Cambridge 
# Structural Database, then it will include bibliographic, chemical, 
# crystal, experimental, refinement or atomic coordinate data resulting 
# from the CCDC's data processing and validation procedures.
#
#######################################################################

data_ENUCUM
_symmetry_cell_setting           triclinic
_symmetry_space_group_name_H-M   'P -1'
_symmetry_Int_Tables_number      2
_space_group_name_Hall           '-P 1'
loop_
_symmetry_equiv_pos_site_id
_symmetry_equiv_pos_as_xyz
1 x,y,z
2 -x,-y,-z
_cell_length_a                   6.4769(10)
_cell_length_b                   7.2236(12)
_cell_length_c                   9.6790(16)
_cell_angle_alpha                85.495(2)
_cell_angle_beta                 77.594(2)
_cell_angle_gamma                81.213(2)
_cell_volume                     436.591
loop_
_atom_site_label
_atom_site_type_symbol
_atom_site_fract_x
_atom_site_fract_y
_atom_site_fract_z
Zn1 Zn -0.06838(6) 0.78478(6) 0.82900(4)
Ni1 Ni 0.5000 1.0000 0.5000
O1 O 0.0484(4) 0.6479(4) 0.6574(3)
O2 O 0.2313(4) 0.8846(4) 0.5941(3)
O3 O 0.2064(4) 0.9490(4) 0.1863(3)
O4 O 0.3694(4) 1.0752(3) 0.3257(3)
O5 O 0.7893(5) 0.8078(5) 0.1303(3)
O6 O 0.7331(5) 0.6457(4) -0.0374(3)
O7 O 0.5948(4) 0.7575(3) 0.3893(2)
H1 H 0.7221 0.6769 0.3856
O8 O 0.1818(4) 0.8038(4) 0.9160(3)
H2 H 0.3065 0.7559 0.8762
H3 H 0.1631 0.8596 0.9928
C1 C 0.1756(5) 0.7347(5) 0.5671(4)
C2 C 0.2551(6) 0.6451(5) 0.4259(4)
H4 H 0.1335 0.6441 0.3825
H5 H 0.3132 0.5156 0.4434
C3 C 0.4250(5) 0.7377(5) 0.3190(3)
C4 C 0.3278(5) 0.9353(5) 0.2733(3)
C5 C 0.5127(6) 0.6166(5) 0.1915(4)
H6 H 0.5642 0.4912 0.2242
H7 H 0.3980 0.6074 0.1434
C6 C 0.6921(6) 0.6941(5) 0.0874(4)
Zn1A Zn 1.06838(6) 1.21522(6) 0.17100(4)
Zn1A_2 Zn 0.06838(6) 1.21522(6) 0.17100(4)
Zn1_2 Zn 0.93162(6) 0.78478(6) -0.17100(4)
Zn1_3 Zn 0.93162(6) 0.78478(6) 0.82900(4)
Zn1A_3 Zn 0.06838(6) 1.21522(6) 1.17100(4)
O1A O 0.9516(4) 1.3521(4) 0.3426(3)
O2A O 0.7687(4) 1.1154(4) 0.4059(3)
O3A O 0.7936(4) 1.0510(4) 0.8137(3)
O3A_2 O -0.2064(4) 1.0510(4) 0.8137(3)
O3_2 O 1.2064(4) 0.9490(4) 0.1863(3)
O4A O 0.6306(4) 0.9248(3) 0.6743(3)
O5A O 0.2107(5) 1.1922(5) 0.8697(3)
O6A O 0.2669(5) 1.3543(4) 1.0374(3)
O6_2 O -0.2669(5) 0.6457(4) 0.9626(3)
O6A_2 O 1.2669(5) 1.3543(4) 0.0374(3)
O7A O 0.4052(4) 1.2425(3) 0.6107(2)
H1A H 0.2779 1.3231 0.6144
O8A O 0.8182(4) 1.1962(4) 0.0840(3)
H2A H 0.6935 1.2441 0.1238
H3A H 0.8369 1.1404 0.0072
C1A C 0.8244(5) 1.2653(5) 0.4329(4)
C2A C 0.7449(6) 1.3549(5) 0.5741(4)
H4A H 0.8665 1.3559 0.6175
H5A H 0.6868 1.4844 0.5566
C3A C 0.5750(5) 1.2623(5) 0.6810(3)
C4A C 0.6722(5) 1.0647(5) 0.7267(3)
C5A C 0.4873(6) 1.3834(5) 0.8085(4)
H6A H 0.4358 1.5088 0.7758
H7A H 0.6020 1.3926 0.8566
C6A C 0.3079(6) 1.3059(5) 0.9126(4)
loop_
_geom_bond_atom_site_label_1
_geom_bond_atom_site_label_2
_geom_bond_site_symmetry_1
_geom_bond_site_symmetry_2
Zn1 O1 1_555 1_555
Ni1 O2 1_555 1_555
O1 C1 1_555 1_555
O2 C1 1_555 1_555
O3 C4 1_555 1_555
O4 Ni1 1_555 1_555
O5 C6 1_555 1_555
O6 C6 1_555 1_555
O7 Ni1 1_555 1_555
H1 O7 1_555 1_555
O8 Zn1 1_555 1_555
H2 O8 1_555 1_555
H3 O8 1_555 1_555
C1 C2 1_555 1_555
C2 H4 1_555 1_555
H5 C2 1_555 1_555
C3 O7 1_555 1_555
C4 O4 1_555 1_555
C5 C3 1_555 1_555
H6 C5 1_555 1_555
H7 C5 1_555 1_555
C6 C5 1_555 1_555
Zn1A O1A 1_555 1_555
Zn1A_2 O3 1_555 1_555
Zn1_2 O6 1_555 1_555
Zn1_3 O3A 1_555 1_555
Zn1A_3 O6A 1_555 1_555
O1A C1A 1_555 1_555
O2A Ni1 1_555 1_555
O3A C4A 1_555 1_555
O3A_2 Zn1 1_555 1_555
O3_2 Zn1A 1_555 1_555
O4A Ni1 1_555 1_555
O5A C6A 1_555 1_555
O6A C6A 1_555 1_555
O6_2 Zn1 1_555 1_555
O6A_2 Zn1A 1_555 1_555
O7A Ni1 1_555 1_555
H1A O7A 1_555 1_555
O8A Zn1A 1_555 1_555
H2A O8A 1_555 1_555
H3A O8A 1_555 1_555
C1A O2A 1_555 1_555
C2A C1A 1_555 1_555
H4A C2A 1_555 1_555
H5A C2A 1_555 1_555
C3A O7A 1_555 1_555
C4A O4A 1_555 1_555
C5A C3A 1_555 1_555
H6A C5A 1_555 1_555
H7A C5A 1_555 1_555
C6A C5A 1_555 1_555
C2 C3 1_555 1_555
C3 C4 1_555 1_555
C2A C3A 1_555 1_555
C3A C4A 1_555 1_555

#END
