
#######################################################################
#
#                 Cambridge Crystallographic Data Centre
#                                CCDC 
#
#######################################################################
#
# If this CIF has been generated from an entry in the Cambridge 
# Structural Database, then it will include bibliographic, chemical, 
# crystal, experimental, refinement or atomic coordinate data resulting 
# from the CCDC's data processing and validation procedures.
#
#######################################################################

data_ENUDAT
_symmetry_cell_setting           monoclinic
_symmetry_space_group_name_H-M   'P 21/c'
_symmetry_Int_Tables_number      14
_space_group_name_Hall           '-P 2ybc'
loop_
_symmetry_equiv_pos_site_id
_symmetry_equiv_pos_as_xyz
1 x,y,z
2 -x,1/2+y,1/2-z
3 -x,-y,-z
4 x,1/2-y,1/2+z
_cell_length_a                   6.0803(6)
_cell_length_b                   15.0120(14)
_cell_length_c                   9.6888(9)
_cell_angle_alpha                90
_cell_angle_beta                 101.6600(10)
_cell_angle_gamma                90
_cell_volume                     866.119
loop_
_atom_site_label
_atom_site_type_symbol
_atom_site_fract_x
_atom_site_fract_y
_atom_site_fract_z
Cd1 Cd 0.11054(6) 0.40268(2) 0.82801(3)
Co1 Co 0.5000 0.5000 0.5000
O1 O 0.3892(5) 0.47735(19) 0.6866(3)
O2 O 0.1916(5) 0.5478(2) 0.8197(3)
O3 O 0.5752(5) 0.62151(19) 0.6141(3)
H1 H 0.6686 0.6615 0.6308
O4 O 0.1967(5) 0.5621(2) 0.4150(3)
O5 O -0.0240(5) 0.6786(2) 0.3595(3)
O6 O 0.6968(6) 0.5860(2) 0.9378(3)
O7 O 0.6826(5) 0.7128(2) 1.0471(3)
O8 O -0.2155(6) 0.4038(2) 0.9001(3)
H2 H -0.3080 0.4461 0.8760
H3 H -0.2471 0.3618 0.9517
C1 C 0.3246(7) 0.5479(3) 0.7368(4)
C2 C 0.3965(7) 0.6386(3) 0.6880(4)
C3 C 0.1944(7) 0.6799(3) 0.5884(4)
H4 H 0.0684 0.6797 0.6359
H5 H 0.2297 0.7417 0.5729
C4 C 0.1192(7) 0.6361(3) 0.4456(4)
C5 C 0.4691(7) 0.7018(3) 0.8126(4)
H6 H 0.5399 0.7533 0.7796
H7 H 0.3353 0.7225 0.8428
C6 C 0.6271(7) 0.6645(3) 0.9387(4)
Cd1B Cd 0.88946(6) 0.59732(2) 0.17199(3)
Cd1B_2 Cd -0.11054(6) 0.59732(2) 0.17199(3)
Cd1B_3 Cd 0.88946(6) 0.59732(2) 1.17199(3)
Cd1_2 Cd 1.11054(6) 0.40268(2) 0.82801(3)
Cd1_3 Cd 0.11054(6) 0.40268(2) -0.17199(3)
O1B O 0.6108(5) 0.52265(19) 0.3134(3)
O2B O 0.8084(5) 0.4522(2) 0.1803(3)
O3B O 0.4248(5) 0.37849(19) 0.3859(3)
H1B H 0.3314 0.3385 0.3692
O4B O 0.8033(5) 0.4379(2) 0.5850(3)
O5B O 1.0240(5) 0.3214(2) 0.6405(3)
O5B_2 O 0.0240(5) 0.3214(2) 0.6405(3)
O5_2 O 0.9760(5) 0.6786(2) 0.3595(3)
O6B O 0.3032(6) 0.4140(2) 0.0622(3)
O6B_2 O 0.3032(6) 0.4140(2) 1.0622(3)
O6_2 O 0.6968(6) 0.5860(2) -0.0622(3)
O7B O 0.3174(5) 0.2872(2) -0.0471(3)
O7B_2 O 0.3174(5) 0.2872(2) 0.9529(3)
O7_2 O 0.6826(5) 0.7128(2) 0.0471(3)
O8B O 1.2155(6) 0.5962(2) 0.0999(3)
H2B H 1.3080 0.5539 0.1240
H3B H 1.2471 0.6382 0.0483
C1B C 0.6754(7) 0.4521(3) 0.2632(4)
C2B C 0.6035(7) 0.3614(3) 0.3120(4)
C3B C 0.8056(7) 0.3201(3) 0.4116(4)
H4B H 0.9316 0.3203 0.3641
H5B H 0.7703 0.2583 0.4271
C4B C 0.8808(7) 0.3639(3) 0.5544(4)
C5B C 0.5309(7) 0.2982(3) 0.1874(4)
H6B H 0.4601 0.2467 0.2204
H7B H 0.6647 0.2775 0.1572
C6B C 0.3729(7) 0.3355(3) 0.0613(4)
loop_
_geom_bond_atom_site_label_1
_geom_bond_atom_site_label_2
_geom_bond_site_symmetry_1
_geom_bond_site_symmetry_2
Cd1 O1 1_555 1_555
Co1 O1 1_555 1_555
O1 C1 1_555 1_555
O2 Cd1 1_555 1_555
O3 Co1 1_555 1_555
H1 O3 1_555 1_555
O4 Co1 1_555 1_555
O5 C4 1_555 1_555
O6 C6 1_555 1_555
O7 C6 1_555 1_555
O8 Cd1 1_555 1_555
H2 O8 1_555 1_555
H3 O8 1_555 1_555
C1 O2 1_555 1_555
C2 O3 1_555 1_555
C3 C2 1_555 1_555
H4 C3 1_555 1_555
H5 C3 1_555 1_555
C4 O4 1_555 1_555
C5 C2 1_555 1_555
H6 C5 1_555 1_555
H7 C5 1_555 1_555
C6 C5 1_555 1_555
Cd1B O1B 1_555 1_555
Cd1B_2 O5 1_555 1_555
Cd1B_3 O6 1_555 1_555
Cd1_2 O5B 1_555 1_555
Cd1_3 O6B 1_555 1_555
O1B Co1 1_555 1_555
O2B Cd1B 1_555 1_555
O3B Co1 1_555 1_555
H1B O3B 1_555 1_555
O4B Co1 1_555 1_555
O5B C4B 1_555 1_555
O5B_2 Cd1 1_555 1_555
O5_2 Cd1B 1_555 1_555
O6B C6B 1_555 1_555
O6B_2 Cd1 1_555 1_555
O6_2 Cd1B 1_555 1_555
O7B Cd1_3 1_555 1_555
O7B_2 Cd1 1_555 1_555
O7_2 Cd1B 1_555 1_555
O8B Cd1B 1_555 1_555
H2B O8B 1_555 1_555
H3B O8B 1_555 1_555
C1B O1B 1_555 1_555
C2B O3B 1_555 1_555
C3B C2B 1_555 1_555
H4B C3B 1_555 1_555
H5B C3B 1_555 1_555
C4B O4B 1_555 1_555
C5B C2B 1_555 1_555
H6B C5B 1_555 1_555
H7B C5B 1_555 1_555
C6B O7B 1_555 1_555
O7 Cd1B_3 1_555 1_555
C1 C2 1_555 1_555
C3 C4 1_555 1_555
O2B C1B 1_555 1_555
C1B C2B 1_555 1_555
C3B C4B 1_555 1_555
C5B C6B 1_555 1_555

#END
