
#######################################################################
#
#                 Cambridge Crystallographic Data Centre
#                                CCDC 
#
#######################################################################
#
# If this CIF has been generated from an entry in the Cambridge 
# Structural Database, then it will include bibliographic, chemical, 
# crystal, experimental, refinement or atomic coordinate data resulting 
# from the CCDC's data processing and validation procedures.
#
#######################################################################

data_ENUDEX
_symmetry_cell_setting           monoclinic
_symmetry_space_group_name_H-M   'P 21/c'
_symmetry_Int_Tables_number      14
_space_group_name_Hall           '-P 2ybc'
loop_
_symmetry_equiv_pos_site_id
_symmetry_equiv_pos_as_xyz
1 x,y,z
2 -x,1/2+y,1/2-z
3 -x,-y,-z
4 x,1/2-y,1/2+z
_cell_length_a                   6.1519(10)
_cell_length_b                   14.589(2)
_cell_length_c                   9.5883(15)
_cell_angle_alpha                90
_cell_angle_beta                 102.728(2)
_cell_angle_gamma                90
_cell_volume                     839.404
loop_
_atom_site_label
_atom_site_type_symbol
_atom_site_fract_x
_atom_site_fract_y
_atom_site_fract_z
Zn1 Zn 0.37864(6) 0.89532(3) 0.16341(4)
Co1 Co 1.0000 1.0000 0.5000
O1 O 0.4629(4) 0.83003(17) 0.3478(2)
O2 O 0.6847(4) 0.94814(18) 0.4145(3)
O3 O 0.9087(4) 1.03157(17) 0.6875(3)
O4 O 0.7008(4) 0.97100(18) 0.8238(3)
O5 O 1.2077(5) 0.9132(2) 0.9255(3)
O6 O 1.1663(4) 0.79485(18) 1.0555(2)
O7 O 1.0501(4) 0.87462(17) 0.6146(3)
O8 O 0.6734(4) 0.90296(17) 0.1010(3)
H1 H 0.7906 0.8803 0.1535
H2 H 0.6794 0.9289 0.0226
C1 C 0.6011(5) 0.8736(2) 0.4418(4)
C2 C 0.6606(5) 0.8300(3) 0.5884(4)
H3 H 0.6777 0.7646 0.5763
H4 H 0.5363 0.8386 0.6342
C3 C 0.8722(5) 0.8660(3) 0.6897(4)
C4 C 0.8278(5) 0.9632(2) 0.7377(3)
C5 C 0.9378(6) 0.8019(2) 0.8180(3)
H5 H 0.8062 0.7886 0.8545
H6 H 0.9899 0.7446 0.7860
C6 C 1.1154(6) 0.8392(3) 0.9380(4)
H7 H 1.075(7) 0.8238(14) 0.586(4)
Zn1B Zn 1.62136(6) 1.10468(3) 0.83659(4)
Zn1B_2 Zn 0.62136(6) 1.10468(3) 0.83659(4)
Zn1_2 Zn 1.37864(6) 0.89532(3) 1.16341(4)
Zn1_3 Zn 1.37864(6) 0.89532(3) 0.16341(4)
Zn1B_3 Zn 0.62136(6) 1.10468(3) -0.16341(4)
O1B O 1.5371(4) 1.16997(17) 0.6522(2)
O2B O 1.3153(4) 1.05186(18) 0.5855(3)
O3B O 1.0913(4) 0.96843(17) 0.3125(3)
O4B O 1.2992(4) 1.02900(18) 0.1762(3)
O4B_2 O 0.2992(4) 1.02900(18) 0.1762(3)
O4_2 O 1.7008(4) 0.97100(18) 0.8238(3)
O5B O 0.7923(5) 1.0868(2) 0.0745(3)
O5_2 O 0.2077(5) 0.9132(2) -0.0745(3)
O5B_2 O 1.7923(5) 1.0868(2) 1.0745(3)
O6B O 0.8337(4) 1.20515(18) -0.0555(2)
O6_2 O 0.1663(4) 0.79485(18) 0.0555(2)
O6B_2 O 1.8337(4) 1.20515(18) 0.9445(2)
O7B O 0.9499(4) 1.12538(17) 0.3854(3)
O8B O 1.3266(4) 1.09704(17) 0.8990(3)
H1B H 1.2094 1.1197 0.8465
H2B H 1.3206 1.0711 0.9774
C1B C 1.3989(5) 1.1264(2) 0.5582(4)
C2B C 1.3394(5) 1.1700(3) 0.4116(4)
H3B H 1.3223 1.2354 0.4237
H4B H 1.4637 1.1614 0.3658
C3B C 1.1278(5) 1.1340(3) 0.3103(4)
C4B C 1.1722(5) 1.0368(2) 0.2623(3)
C5B C 1.0622(6) 1.1981(2) 0.1820(3)
H5B H 1.1938 1.2114 0.1455
H6B H 1.0101 1.2554 0.2140
C6B C 0.8846(6) 1.1608(3) 0.0620(4)
H7B H 0.925(7) 1.1762(14) 0.414(4)
loop_
_geom_bond_atom_site_label_1
_geom_bond_atom_site_label_2
_geom_bond_site_symmetry_1
_geom_bond_site_symmetry_2
Zn1 O1 1_555 1_555
Co1 O2 1_555 1_555
O1 C1 1_555 1_555
O2 C1 1_555 1_555
O3 Co1 1_555 1_555
O4 C4 1_555 1_555
O5 C6 1_555 1_555
O6 C6 1_555 1_555
O7 Co1 1_555 1_555
O8 Zn1 1_555 1_555
H1 O8 1_555 1_555
H2 O8 1_555 1_555
C1 C2 1_555 1_555
C2 H3 1_555 1_555
H4 C2 1_555 1_555
C3 O7 1_555 1_555
C4 O3 1_555 1_555
C5 C3 1_555 1_555
H5 C5 1_555 1_555
H6 C5 1_555 1_555
C6 C5 1_555 1_555
H7 O7 1_555 1_555
Zn1B O1B 1_555 1_555
Zn1B_2 O4 1_555 1_555
Zn1_2 O5 1_555 1_555
Zn1_3 O4B 1_555 1_555
Zn1B_3 O5B 1_555 1_555
O1B C1B 1_555 1_555
O2B Co1 1_555 1_555
O3B Co1 1_555 1_555
O4B C4B 1_555 1_555
O4B_2 Zn1 1_555 1_555
O4_2 Zn1B 1_555 1_555
O5B C6B 1_555 1_555
O5_2 Zn1 1_555 1_555
O5B_2 Zn1B 1_555 1_555
O6B Zn1B_3 1_555 1_555
O6_2 Zn1 1_555 1_555
O6B_2 Zn1B 1_555 1_555
O7B Co1 1_555 1_555
O8B Zn1B 1_555 1_555
H1B O8B 1_555 1_555
H2B O8B 1_555 1_555
C1B O2B 1_555 1_555
C2B C1B 1_555 1_555
H3B C2B 1_555 1_555
H4B C2B 1_555 1_555
C3B O7B 1_555 1_555
C4B O3B 1_555 1_555
C5B C3B 1_555 1_555
H5B C5B 1_555 1_555
H6B C5B 1_555 1_555
C6B O6B 1_555 1_555
H7B O7B 1_555 1_555
O6 Zn1_2 1_555 1_555
C2 C3 1_555 1_555
C3 C4 1_555 1_555
C2B C3B 1_555 1_555
C3B C4B 1_555 1_555
C5B C6B 1_555 1_555

#END
