
#######################################################################
#
#                 Cambridge Crystallographic Data Centre
#                                CCDC 
#
#######################################################################
#
# If this CIF has been generated from an entry in the Cambridge 
# Structural Database, then it will include bibliographic, chemical, 
# crystal, experimental, refinement or atomic coordinate data resulting 
# from the CCDC's data processing and validation procedures.
#
#######################################################################

data_ENUKUU
_symmetry_cell_setting           monoclinic
_symmetry_space_group_name_H-M   'C 2/c'
_symmetry_Int_Tables_number      15
_space_group_name_Hall           '-C 2yn'
loop_
_symmetry_equiv_pos_site_id
_symmetry_equiv_pos_as_xyz
1 x,y,z
2 -x,y,1/2-z
3 1/2+x,1/2+y,z
4 1/2-x,1/2+y,1/2-z
5 -x,-y,-z
6 x,-y,1/2+z
7 1/2-x,1/2-y,-z
8 1/2+x,1/2-y,1/2+z
_cell_length_a                   29.303(13)
_cell_length_b                   11.041(5)
_cell_length_c                   20.924(8)
_cell_angle_alpha                90
_cell_angle_beta                 120.94(4)
_cell_angle_gamma                90
_cell_volume                     5806.36
loop_
_atom_site_label
_atom_site_type_symbol
_atom_site_fract_x
_atom_site_fract_y
_atom_site_fract_z
Cu1 Cu 0.5000 0.66787(5) 0.7500
N1 N 0.86457(18) 0.6775(6) 0.9999(3)
N2 N 0.58155(11) 0.6685(2) 0.80499(16)
N3 N 0.5000 0.4863(3) 0.7500
N4 N 0.5000 -0.1497(3) 0.7500
N5 N 0.5163(2) 0.7020(5) 0.9794(3)
O1 O 0.49904(12) 0.6777(3) 0.86344(16)
C1 C 0.8381(2) 0.5863(7) 1.0055(4)
H1 H 0.8575 0.5221 1.0362
C2 C 0.78248(19) 0.5796(5) 0.9679(3)
H2 H 0.7659 0.5126 0.9742
C3 C 0.75250(16) 0.6730(4) 0.9217(2)
C4 C 0.78018(19) 0.7710(6) 0.9150(3)
H3 H 0.7619 0.8363 0.8843
C5 C 0.8359(2) 0.7688(7) 0.9555(4)
H4 H 0.8539 0.8346 0.9511
C6 C 0.69324(15) 0.6705(3) 0.8807(2)
C7 C 0.66575(15) 0.5939(4) 0.9011(2)
H5 H 0.6843 0.5412 0.9410
C8 C 0.61083(15) 0.5948(3) 0.8627(2)
H6 H 0.5934 0.5418 0.8777
C9 C 0.60774(14) 0.7431(3) 0.7842(2)
H7 H 0.5882 0.7944 0.7438
C10 C 0.66269(15) 0.7467(4) 0.8203(2)
H8 H 0.6793 0.8001 0.8042
C11 C 0.47464(14) 0.4247(3) 0.7778(2)
H9 H 0.4570 0.4674 0.7969
C12 C 0.47394(15) 0.2993(3) 0.7789(2)
H10 H 0.4562 0.2586 0.7987
C13 C 0.5000 0.2355(4) 0.7500
C14 C 0.5000 0.1012(4) 0.7500
C15 C 0.47349(14) 0.0372(3) 0.6838(2)
H11 H 0.4559 0.0778 0.6384
C16 C 0.47351(14) -0.0880(3) 0.68611(19)
H12 H 0.4544 -0.1308 0.6417
C17 C 0.51866(17) 0.6438(4) 0.9272(3)
H13 H 0.5369 0.5705 0.9398
C18 C 0.4921(3) 0.8213(6) 0.9648(3)
H14 H 0.5166 0.8803 0.9660
H15 H 0.4835 0.8406 1.0022
H16 H 0.4602 0.8219 0.9166
C19 C 0.5414(3) 0.6564(6) 1.0556(3)
H17 H 0.5545 0.5759 1.0576
H18 H 0.5158 0.6549 1.0712
H19 H 0.5705 0.7084 1.0881
Cu1_2 Cu 0.5000 -0.33213(5) 0.7500
N1A N 0.13543(18) 0.6775(6) 0.5001(3)
N2A N 0.41845(11) 0.6685(2) 0.69501(16)
N4_2 N 0.5000 0.8503(3) 0.7500
N5A N 0.4837(2) 0.7020(5) 0.5206(3)
O1A O 0.50096(12) 0.6777(3) 0.63656(16)
C1A C 0.1619(2) 0.5863(7) 0.4945(4)
H1A H 0.1425 0.5221 0.4638
C2A C 0.21752(19) 0.5796(5) 0.5321(3)
H2A H 0.2341 0.5126 0.5258
C3A C 0.24750(16) 0.6730(4) 0.5783(2)
C4A C 0.21982(19) 0.7710(6) 0.5850(3)
H3A H 0.2381 0.8363 0.6157
C5A C 0.1641(2) 0.7688(7) 0.5445(4)
H4A H 0.1461 0.8346 0.5489
C6A C 0.30676(15) 0.6705(3) 0.6193(2)
C7A C 0.33425(15) 0.5939(4) 0.5989(2)
H5A H 0.3157 0.5412 0.5590
C8A C 0.38917(15) 0.5948(3) 0.6373(2)
H6A H 0.4066 0.5418 0.6223
C9A C 0.39226(14) 0.7431(3) 0.7158(2)
H7A H 0.4118 0.7944 0.7562
C10A C 0.33731(15) 0.7467(4) 0.6797(2)
H8A H 0.3207 0.8001 0.6958
C11A C 0.52536(14) 0.4247(3) 0.7222(2)
H9A H 0.5430 0.4674 0.7031
C12A C 0.52606(15) 0.2993(3) 0.7211(2)
H10A H 0.5438 0.2586 0.7013
C15A C 0.52651(14) 0.0372(3) 0.8162(2)
H11A H 0.5441 0.0778 0.8616
C16A C 0.52649(14) -0.0880(3) 0.81389(19)
H12A H 0.5456 -0.1308 0.8583
C17A C 0.48134(17) 0.6438(4) 0.5728(3)
H13A H 0.4631 0.5705 0.5602
C18A C 0.5079(3) 0.8213(6) 0.5352(3)
H14A H 0.4834 0.8803 0.5340
H15A H 0.5165 0.8406 0.4978
H16A H 0.5398 0.8219 0.5834
C19A C 0.4586(3) 0.6564(6) 0.4444(3)
H17A H 0.4455 0.5759 0.4424
H18A H 0.4842 0.6549 0.4288
H19A H 0.4295 0.7084 0.4119
N6 N 0.8697(3) -0.0182(7) 0.7913(4)
N7 N 0.6073(3) 0.0600(7) 0.7120(8)
C20 C 0.8581(3) 0.0615(7) 0.8264(4)
H20 H 0.8854 0.1085 0.8630
C21 C 0.8064(2) 0.0797(6) 0.8116(3)
H21 H 0.7996 0.1392 0.8371
C22 C 0.7658(2) 0.0095(5) 0.7593(3)
C23 C 0.7769(3) -0.0777(6) 0.7207(4)
H22 H 0.7504 -0.1272 0.6848
C24 C 0.8305(4) -0.0866(7) 0.7391(5)
H23 H 0.8389 -0.1429 0.7137
C25 C 0.7101(2) 0.0260(5) 0.7426(3)
C26 C 0.7013(3) 0.0701(5) 0.7984(5)
H24 H 0.7295 0.0882 0.8458
C27 C 0.6485(4) 0.0858(7) 0.7801(7)
H25 H 0.6418 0.1149 0.8162
C28 C 0.6162(4) 0.0190(10) 0.6599(7)
H26 H 0.5872 0.0026 0.6128
C29 C 0.6675(2) -0.0006(7) 0.6730(4)
H27 H 0.6727 -0.0307 0.6356
O2 O 0.3609(7) 0.2122(10) 0.4588(9)
O3 O 0.3208(6) 0.3656(17) 0.4836(6)
O4 O 0.3778(15) 0.242(3) 0.5817(16)
O5 O 0.4109(8) 0.376(2) 0.5310(16)
Cl1 Cl 0.36910(7) 0.29320(17) 0.51510(10)
Cl2? Cl 0.36910(7) 0.29320(17) 0.51510(10)
O6? O 0.3183(7) 0.2536(19) 0.4559(10)
O7? O 0.3809(8) 0.4111(15) 0.5046(9)
O8? O 0.4057(10) 0.2009(18) 0.5203(14)
O9? O 0.3694(19) 0.290(4) 0.584(3)
loop_
_geom_bond_atom_site_label_1
_geom_bond_atom_site_label_2
_geom_bond_site_symmetry_1
_geom_bond_site_symmetry_2
Cu1 N2 1_555 1_555
N1 C1 1_555 1_555
N2 C8 1_555 1_555
N3 Cu1 1_555 1_555
N4 C16 1_555 1_555
N5 C17 1_555 1_555
O1 Cu1 1_555 1_555
C1 H1 1_555 1_555
C2 C1 1_555 1_555
H2 C2 1_555 1_555
C3 C2 1_555 1_555
C4 C3 1_555 1_555
H3 C4 1_555 1_555
C5 N1 1_555 1_555
H4 C5 1_555 1_555
C6 C3 1_555 1_555
C7 C6 1_555 1_555
H5 C7 1_555 1_555
C8 C7 1_555 1_555
H6 C8 1_555 1_555
C9 N2 1_555 1_555
H7 C9 1_555 1_555
C10 C6 1_555 1_555
H8 C10 1_555 1_555
C11 N3 1_555 1_555
H9 C11 1_555 1_555
C12 C11 1_555 1_555
H10 C12 1_555 1_555
C13 C12 1_555 1_555
C14 C13 1_555 1_555
C15 C14 1_555 1_555
H11 C15 1_555 1_555
C16 C15 1_555 1_555
H12 C16 1_555 1_555
C17 O1 1_555 1_555
H13 C17 1_555 1_555
C18 N5 1_555 1_555
H14 C18 1_555 1_555
H15 C18 1_555 1_555
H16 C18 1_555 1_555
C19 N5 1_555 1_555
H17 C19 1_555 1_555
H18 C19 1_555 1_555
H19 C19 1_555 1_555
N6 C20 1_555 1_555
N7 C27 1_555 1_555
C20 H20 1_555 1_555
C21 C20 1_555 1_555
H21 C21 1_555 1_555
C22 C21 1_555 1_555
C23 C22 1_555 1_555
H22 C23 1_555 1_555
C24 N6 1_555 1_555
H23 C24 1_555 1_555
C25 C22 1_555 1_555
C26 C25 1_555 1_555
H24 C26 1_555 1_555
C27 C26 1_555 1_555
H25 C27 1_555 1_555
C28 N7 1_555 1_555
H26 C28 1_555 1_555
C29 C25 1_555 1_555
H27 C29 1_555 1_555
O2 Cl1 1_555 1_555
O3 Cl1 1_555 1_555
O4 Cl1 1_555 1_555
O5 Cl1 1_555 1_555
Cu1_2 N4 1_555 1_555
N1A C1A 1_555 1_555
N2A Cu1 1_555 1_555
N4_2 Cu1 1_555 1_555
N5A C17A 1_555 1_555
O1A Cu1 1_555 1_555
C1A H1A 1_555 1_555
C2A C1A 1_555 1_555
H2A C2A 1_555 1_555
C3A C2A 1_555 1_555
C4A C3A 1_555 1_555
H3A C4A 1_555 1_555
C5A N1A 1_555 1_555
H4A C5A 1_555 1_555
C6A C3A 1_555 1_555
C7A C6A 1_555 1_555
H5A C7A 1_555 1_555
C8A N2A 1_555 1_555
H6A C8A 1_555 1_555
C9A N2A 1_555 1_555
H7A C9A 1_555 1_555
C10A C6A 1_555 1_555
H8A C10A 1_555 1_555
C11A N3 1_555 1_555
H9A C11A 1_555 1_555
C12A C13 1_555 1_555
H10A C12A 1_555 1_555
C15A C14 1_555 1_555
H11A C15A 1_555 1_555
C16A N4 1_555 1_555
H12A C16A 1_555 1_555
C17A O1A 1_555 1_555
H13A C17A 1_555 1_555
C18A N5A 1_555 1_555
H14A C18A 1_555 1_555
H15A C18A 1_555 1_555
H16A C18A 1_555 1_555
C19A N5A 1_555 1_555
H17A C19A 1_555 1_555
H18A C19A 1_555 1_555
H19A C19A 1_555 1_555
C4 C5 1_555 1_555
C9 C10 1_555 1_555
C23 C24 1_555 1_555
C28 C29 1_555 1_555
C4A C5A 1_555 1_555
C7A C8A 1_555 1_555
C9A C10A 1_555 1_555
C11A C12A 1_555 1_555
C15A C16A 1_555 1_555

#END
