
#######################################################################
#
#                 Cambridge Crystallographic Data Centre
#                                CCDC 
#
#######################################################################
#
# If this CIF has been generated from an entry in the Cambridge 
# Structural Database, then it will include bibliographic, chemical, 
# crystal, experimental, refinement or atomic coordinate data resulting 
# from the CCDC's data processing and validation procedures.
#
#######################################################################

data_ENULUV02
_symmetry_cell_setting           triclinic
_symmetry_space_group_name_H-M   'P -1'
_symmetry_Int_Tables_number      2
_space_group_name_Hall           '-P 1'
loop_
_symmetry_equiv_pos_site_id
_symmetry_equiv_pos_as_xyz
1 x,y,z
2 -x,-y,-z
_cell_length_a                   11.145(6)
_cell_length_b                   11.597(6)
_cell_length_c                   12.659(11)
_cell_angle_alpha                102.624(10)
_cell_angle_beta                 107.218(11)
_cell_angle_gamma                113.308(8)
_cell_volume                     1326.06
loop_
_atom_site_label
_atom_site_type_symbol
_atom_site_fract_x
_atom_site_fract_y
_atom_site_fract_z
La1 La 0.32018(3) 0.36958(3) 0.82111(2)
La2 La -0.32853(3) -0.05995(3) 0.51971(2)
N1 N 0.1364(4) 0.3483(4) 0.9275(4)
N2 N 0.2988(4) 0.4857(4) 0.6677(4)
N3 N -0.3303(4) -0.0569(4) 0.7320(3)
O1 O -0.1847(3) 0.1934(4) 0.6638(3)
O2 O 0.0474(4) 0.2795(4) 0.6948(3)
O3 O 0.4127(4) 0.4364(4) 1.0483(3)
O4 O 0.4082(4) 0.5142(4) 1.2223(3)
O5 O 0.2744(5) 0.7490(4) 0.8429(4)
O6 O 0.3131(4) 0.5858(4) 0.8803(3)
O7 O 0.3046(4) 0.2529(3) 0.6127(3)
O8 O 0.3725(4) 0.2910(4) 0.4707(3)
O9 O -0.5989(4) 0.0318(4) 0.7077(3)
O10 O -0.5354(4) -0.0520(4) 0.5735(3)
O11 O -0.1136(4) -0.0403(4) 0.6796(3)
O12 O -0.0566(6) -0.1382(6) 0.8055(5)
O13 O -0.5822(4) -0.2491(4) 0.3530(3)
H1 H -0.6638 -0.2548 0.3414
H2 H -0.5947 -0.3110 0.2937
O14 O -0.1160(5) 0.0673(5) 0.4769(4)
H3 H -0.0851 0.1177 0.4407
H4 H -0.0436 0.0849 0.5380
O15 O 0.4850(4) 0.2703(4) 0.8852(3)
H5 H 0.4761 0.2003 0.8372
H6 H 0.5664 0.3080 0.9451
O16 O 0.1780(4) 0.1218(4) 0.7761(4)
H7 H 0.2115 0.0681 0.7656
H8 H 0.0865 0.0748 0.7397
C1 C -0.0507(5) 0.2549(5) 0.7300(4)
C2 C -0.0039(5) 0.3009(5) 0.8633(4)
C3 C -0.0985(6) 0.2927(6) 0.9149(5)
H11 H -0.1955 0.2603 0.8678
C4 C -0.0470(6) 0.3333(7) 1.0371(5)
H12 H -0.1093 0.3260 1.0737
C5 C 0.0985(6) 0.3852(6) 1.1049(5)
H13 H 0.1364 0.4144 1.1879
C6 C 0.1864(5) 0.3925(5) 1.0462(4)
C7 C 0.3464(5) 0.4518(5) 1.1124(4)
C8 C 0.2872(5) 0.6481(5) 0.8135(5)
C9 C 0.2736(6) 0.5913(5) 0.6886(5)
C10 C 0.2410(8) 0.6418(6) 0.6022(6)
H14 H 0.2192 0.7115 0.6168
C11 C 0.2409(9) 0.5884(7) 0.4940(6)
H15 H 0.2177 0.6214 0.4346
C12 C 0.2747(8) 0.4875(7) 0.4733(6)
H16 H 0.2801 0.4538 0.4022
C13 C 0.3010(6) 0.4362(5) 0.5629(5)
C14 C 0.3296(5) 0.3210(5) 0.5464(4)
C15 C -0.5277(5) -0.0170(5) 0.6791(4)
C16 C -0.4241(5) -0.0371(5) 0.7688(4)
C17 C -0.4219(7) -0.0325(7) 0.8788(5)
H17 H -0.4862 -0.0146 0.9026
C18 C -0.3235(7) -0.0549(8) 0.9523(6)
H18 H -0.3204 -0.0535 1.0268
C19 C -0.2281(7) -0.0797(7) 0.9142(5)
H19 H -0.1623 -0.0982 0.9618
C20 C -0.2324(6) -0.0765(6) 0.8048(5)
C21 C -0.1252(6) -0.0864(6) 0.7603(5)
La1A La 0.67982(3) 0.63042(3) 1.17889(2)
La2A La 0.32853(3) 0.05995(3) 0.48029(2)
La2A_2 La -0.67147(3) 0.05995(3) 0.48029(2)
O3A O 0.5873(4) 0.5636(4) 0.9517(3)
O7A O -0.3046(4) -0.2529(3) 0.3873(3)
O8A O -0.3725(4) -0.2910(4) 0.5293(3)
O9A O -0.4011(4) -0.0318(4) 0.2923(3)
O10A O -0.4646(4) 0.0520(4) 0.4265(3)
O17 O 0.1298(6) 0.8568(6) 0.7182(5)
H9 H 0.1757 0.8223 0.7530
H10 H 0.0602 0.8437 0.7377
loop_
_geom_bond_atom_site_label_1
_geom_bond_atom_site_label_2
_geom_bond_site_symmetry_1
_geom_bond_site_symmetry_2
La1 N1 1_555 1_555
La2 N3 1_555 1_555
N1 C2 1_555 1_555
N2 La1 1_555 1_555
N3 C16 1_555 1_555
O1 La2 1_555 1_555
O2 La1 1_555 1_555
O3 La1 1_555 1_555
O4 C7 1_555 1_555
O5 C8 1_555 1_555
O6 La1 1_555 1_555
O7 La1 1_555 1_555
O8 C14 1_555 1_555
O9 C15 1_555 1_555
O10 La2 1_555 1_555
O11 La2 1_555 1_555
O12 C21 1_555 1_555
O13 La2 1_555 1_555
H1 O13 1_555 1_555
H2 O13 1_555 1_555
O14 La2 1_555 1_555
H3 O14 1_555 1_555
H4 O14 1_555 1_555
O15 La1 1_555 1_555
H5 O15 1_555 1_555
H6 O15 1_555 1_555
O16 La1 1_555 1_555
H7 O16 1_555 1_555
H8 O16 1_555 1_555
O17 H9 1_555 1_555
H10 O17 1_555 1_555
C1 O1 1_555 1_555
C2 C1 1_555 1_555
C3 C2 1_555 1_555
H11 C3 1_555 1_555
C4 C3 1_555 1_555
H12 C4 1_555 1_555
C5 C4 1_555 1_555
H13 C5 1_555 1_555
C6 N1 1_555 1_555
C7 O3 1_555 1_555
C8 O6 1_555 1_555
C9 N2 1_555 1_555
C10 C9 1_555 1_555
H14 C10 1_555 1_555
C11 C10 1_555 1_555
H15 C11 1_555 1_555
C12 C11 1_555 1_555
H16 C12 1_555 1_555
C13 N2 1_555 1_555
C14 O7 1_555 1_555
C15 O10 1_555 1_555
C16 C15 1_555 1_555
C17 C16 1_555 1_555
H17 C17 1_555 1_555
C18 C17 1_555 1_555
H18 C18 1_555 1_555
C19 C18 1_555 1_555
H19 C19 1_555 1_555
C20 N3 1_555 1_555
C21 O11 1_555 1_555
La1A O3 1_555 1_555
La2A O7 1_555 1_555
La2A_2 O9 1_555 1_555
O3A La1 1_555 1_555
O7A La2 1_555 1_555
O8A La2 1_555 1_555
O9A La2 1_555 1_555
O10A La2 1_555 1_555
O2 C1 1_555 1_555
O8 La2A 1_555 1_555
O10 La2A_2 1_555 1_555
C5 C6 1_555 1_555
C6 C7 1_555 1_555
C8 C9 1_555 1_555
C12 C13 1_555 1_555
C13 C14 1_555 1_555
C19 C20 1_555 1_555
C20 C21 1_555 1_555
La1A O3A 1_555 1_555
La2A_2 O10A 1_555 1_555

#END
