
#######################################################################
#
#                 Cambridge Crystallographic Data Centre
#                                CCDC 
#
#######################################################################
#
# If this CIF has been generated from an entry in the Cambridge 
# Structural Database, then it will include bibliographic, chemical, 
# crystal, experimental, refinement or atomic coordinate data resulting 
# from the CCDC's data processing and validation procedures.
#
#######################################################################

data_ENULUV01
_symmetry_cell_setting           triclinic
_symmetry_space_group_name_H-M   'P -1'
_symmetry_Int_Tables_number      2
_space_group_name_Hall           '-P 1'
loop_
_symmetry_equiv_pos_site_id
_symmetry_equiv_pos_as_xyz
1 x,y,z
2 -x,-y,-z
_cell_length_a                   10.4133(6)
_cell_length_b                   10.8990(5)
_cell_length_c                   13.0740(6)
_cell_angle_alpha                77.607(4)
_cell_angle_beta                 77.442(4)
_cell_angle_gamma                86.648(4)
_cell_volume                     1414.47
loop_
_atom_site_label
_atom_site_type_symbol
_atom_site_fract_x
_atom_site_fract_y
_atom_site_fract_z
La1 La 0.05346(4) 0.02372(3) 0.15008(3)
La2 La 0.08201(5) -0.30652(4) 0.47704(3)
O1 O 0.1962(6) 0.1692(4) -0.0006(4)
O2 O 0.3862(7) 0.2625(5) -0.0887(5)
O3 O 0.1416(5) -0.1163(4) 0.3093(4)
O4 O 0.3090(6) -0.2265(5) 0.3616(4)
O5 O -0.2059(6) -0.8125(4) 0.4275(4)
O6 O -0.4026(7) -0.8546(6) 0.4058(6)
O7 O -0.1159(6) -0.4507(4) 0.4961(4)
O8 O -0.1522(7) -0.2727(5) 0.3904(4)
O9 O -0.0992(5) 0.0803(4) 0.0153(4)
O10 O -0.1895(6) 0.2118(5) -0.1034(4)
O11 O 0.0854(6) 0.1895(4) 0.2571(4)
O12 O 0.0290(6) 0.3608(4) 0.3259(4)
O13 O -0.1364(6) 0.0116(5) 0.3081(4)
H1 H -0.1601 0.0729 0.3354
H2 H -0.1827 -0.0508 0.3279
O14 O -0.1003(6) -0.1641(5) 0.1752(4)
H3 H -0.1397 -0.1722 0.1296
H4 H -0.1248 -0.2094 0.2348
O15 O -0.0643(7) -0.1198(5) 0.5253(4)
H5 H -0.1225 -0.1242 0.4935
H6 H -0.0732 -0.1485 0.5893
O16 O 0.1214(8) -0.3861(5) 0.3006(4)
H7 H 0.1512 -0.3412 0.2422
H8 H 0.1063 -0.4539 0.2878
N1 N 0.3067(7) 0.0299(5) 0.1485(5)
N2 N -0.2698(7) -0.5743(5) 0.4242(5)
N3 N -0.0655(7) 0.2555(5) 0.1172(5)
C1 C 0.3175(9) 0.1895(7) -0.0119(6)
C2 C 0.3853(9) 0.1125(7) 0.0747(6)
C3 C 0.5158(9) 0.1275(8) 0.0750(8)
H9 H 0.5680 0.1854 0.0218
C4 C 0.5658(10) 0.0531(9) 0.1574(8)
H10 H 0.6529 0.0615 0.1614
C5 C 0.4874(10) -0.0328(8) 0.2331(7)
H11 H 0.5205 -0.0835 0.2885
C6 C 0.3594(8) -0.0432(7) 0.2263(6)
C7 C 0.2639(9) -0.1350(7) 0.3055(6)
C8 C -0.3197(10) -0.7808(8) 0.4123(7)
C9 C -0.3548(9) -0.6419(7) 0.3968(6)
C10 C -0.4585(11) -0.5877(9) 0.3545(8)
H12 H -0.5171 -0.6375 0.3376
C11 C -0.4761(11) -0.4608(9) 0.3371(8)
H13 H -0.5479 -0.4233 0.3105
C12 C -0.3863(10) -0.3894(8) 0.3594(7)
H14 H -0.3930 -0.3022 0.3446
C13 C -0.2854(8) -0.4498(7) 0.4045(6)
C14 C -0.1794(9) -0.3834(6) 0.4315(6)
C15 C -0.1435(8) 0.1897(6) -0.0224(6)
C16 C -0.1332(9) 0.2882(7) 0.0395(6)
C17 C -0.1882(9) 0.4073(7) 0.0168(7)
H15 H -0.2334 0.4292 -0.0386
C18 C -0.1749(11) 0.4936(7) 0.0781(8)
H16 H -0.2133 0.5732 0.0661
C19 C -0.1043(10) 0.4584(7) 0.1560(7)
H17 H -0.0928 0.5147 0.1975
C20 C -0.0499(8) 0.3397(7) 0.1734(5)
C21 C 0.0287(9) 0.2936(7) 0.2576(6)
La1A La -0.05346(4) -0.02372(3) -0.15008(3)
La2A La -0.08201(5) -0.69348(4) 0.52296(3)
La2A_2 La -0.08201(5) 0.30652(4) 0.52296(3)
O5A O 0.2059(6) -0.1875(4) 0.5725(4)
O7A O 0.1159(6) -0.5493(4) 0.5039(4)
O9A O 0.0992(5) -0.0803(4) -0.0153(4)
O12A O -0.0290(6) -0.3608(4) 0.6741(4)
N2A N 0.2698(7) -0.4257(5) 0.5758(5)
O17 O 0.3335(12) 0.0886(10) 0.4882(13)
O18 O -0.426(3) 0.445(3) -0.115(2)
O19? O -0.523(3) 0.494(3) 0.063(3)
loop_
_geom_bond_atom_site_label_1
_geom_bond_atom_site_label_2
_geom_bond_site_symmetry_1
_geom_bond_site_symmetry_2
La1 O1 1_555 1_555
La2 O3 1_555 1_555
O1 C1 1_555 1_555
O2 C1 1_555 1_555
O3 La1 1_555 1_555
O4 La2 1_555 1_555
O5 C8 1_555 1_555
O6 C8 1_555 1_555
O7 La2 1_555 1_555
O8 La2 1_555 1_555
O9 La1 1_555 1_555
O10 C15 1_555 1_555
O11 La1 1_555 1_555
O12 C21 1_555 1_555
O13 La1 1_555 1_555
H1 O13 1_555 1_555
H2 O13 1_555 1_555
O14 La1 1_555 1_555
H3 O14 1_555 1_555
H4 O14 1_555 1_555
O15 La2 1_555 1_555
H5 O15 1_555 1_555
H6 O15 1_555 1_555
O16 La2 1_555 1_555
H7 O16 1_555 1_555
H8 O16 1_555 1_555
N1 La1 1_555 1_555
N2 C9 1_555 1_555
N3 La1 1_555 1_555
C1 C2 1_555 1_555
C2 N1 1_555 1_555
C3 C2 1_555 1_555
H9 C3 1_555 1_555
C4 C3 1_555 1_555
H10 C4 1_555 1_555
C5 C4 1_555 1_555
H11 C5 1_555 1_555
C6 N1 1_555 1_555
C7 O3 1_555 1_555
C8 C9 1_555 1_555
C9 C10 1_555 1_555
C10 H12 1_555 1_555
C11 C10 1_555 1_555
H13 C11 1_555 1_555
C12 C11 1_555 1_555
H14 C12 1_555 1_555
C13 N2 1_555 1_555
C14 O7 1_555 1_555
C15 O9 1_555 1_555
C16 N3 1_555 1_555
C17 C16 1_555 1_555
H15 C17 1_555 1_555
C18 C17 1_555 1_555
H16 C18 1_555 1_555
C19 C18 1_555 1_555
H17 C19 1_555 1_555
C20 N3 1_555 1_555
C21 O11 1_555 1_555
La1A O9 1_555 1_555
La2A O5 1_555 1_555
La2A_2 O12 1_555 1_555
O5A La2 1_555 1_555
O7A La2 1_555 1_555
O9A La1 1_555 1_555
O12A La2 1_555 1_555
N2A La2 1_555 1_555
O4 C7 1_555 1_555
O7 La2A 1_555 1_555
O8 C14 1_555 1_555
N2 La2A 1_555 1_555
C5 C6 1_555 1_555
C6 C7 1_555 1_555
C12 C13 1_555 1_555
C13 C14 1_555 1_555
C15 C16 1_555 1_555
C19 C20 1_555 1_555
C20 C21 1_555 1_555
La1A O9A 1_555 1_555
La2A O7A 1_555 1_555

#END
