
#######################################################################
#
#                 Cambridge Crystallographic Data Centre
#                                CCDC 
#
#######################################################################
#
# If this CIF has been generated from an entry in the Cambridge 
# Structural Database, then it will include bibliographic, chemical, 
# crystal, experimental, refinement or atomic coordinate data resulting 
# from the CCDC's data processing and validation procedures.
#
#######################################################################

data_ENUMAC
_symmetry_cell_setting           orthorhombic
_symmetry_space_group_name_H-M   'P n a 21'
_symmetry_Int_Tables_number      33
_space_group_name_Hall           'P 2c -2n'
loop_
_symmetry_equiv_pos_site_id
_symmetry_equiv_pos_as_xyz
1 x,y,z
2 -x,-y,1/2+z
3 1/2+x,1/2-y,z
4 1/2-x,1/2+y,1/2+z
_cell_length_a                   18.8577(10)
_cell_length_b                   6.5919(10)
_cell_length_c                   18.7770(10)
_cell_angle_alpha                90
_cell_angle_beta                 90
_cell_angle_gamma                90
_cell_volume                     2334.13
loop_
_atom_site_label
_atom_site_type_symbol
_atom_site_fract_x
_atom_site_fract_y
_atom_site_fract_z
La1 La 0.24352(2) 0.13805(7) -0.00003(3)
La2 La 0.47865(2) 0.13739(8) -0.04019(2)
N1 N 0.2657(4) 0.1416(11) 0.1413(4)
N2 N 0.2318(4) 0.1279(11) -0.1448(4)
C1 C 0.3277(5) 0.1782(13) 0.1670(5)
C2 C 0.3380(6) 0.1754(16) 0.2429(5)
H1 H 0.3819 0.2075 0.2624
C3 C 0.2822(5) 0.1248(16) 0.2857(6)
H2 H 0.2883 0.1133 0.3347
C4 C 0.2181(6) 0.0918(17) 0.2561(6)
H3 H 0.1796 0.0670 0.2858
C5 C 0.2073(5) 0.0932(13) 0.1826(5)
C6 C 0.3842(5) 0.2362(15) 0.1168(5)
C7 C 0.1415(5) 0.0425(15) 0.1453(6)
C8 C 0.1708(5) 0.1666(13) -0.1771(5)
C9 C 0.1612(5) 0.1671(16) -0.2489(5)
H4 H 0.1166 0.1904 -0.2683
C10 C 0.2200(5) 0.1318(14) -0.2931(5)
H5 H 0.2155 0.1311 -0.3424
C11 C 0.2855(5) 0.0979(14) -0.2603(5)
H6 H 0.3261 0.0764 -0.2874
C12 C 0.2888(5) 0.0968(14) -0.1855(5)
C13 C 0.3554(5) 0.0553(15) -0.1452(6)
C14 C 0.1090(5) 0.2187(15) -0.1263(5)
O1 O 0.0870(4) 0.0110(14) 0.1817(4)
O2 O 0.1445(3) 0.0421(11) 0.0786(3)
O3 O 0.3717(3) 0.2149(11) 0.0502(3)
O4 O 0.4380(4) 0.3161(14) 0.1429(4)
O5 O 0.4129(3) 0.0263(11) -0.1760(4)
O6 O 0.3495(3) 0.0539(9) -0.0783(3)
O7 O 0.0485(3) 0.2362(11) -0.1491(4)
O8 O 0.1246(3) 0.2282(10) -0.0607(3)
S1 S 0.24135(10) 0.6378(3) -0.00156(16)
O9 O 0.2041(3) 0.5001(9) 0.0494(3)
O10 O 0.2901(3) 0.7721(9) 0.0361(4)
O11 O 0.1917(3) 0.7707(8) -0.0388(4)
O12 O 0.2793(3) 0.5030(8) -0.0525(3)
O13 O 0.4166(3) 0.4442(10) -0.0998(4)
O14 O 0.5099(3) 0.4532(10) 0.0325(4)
O15 O 0.5553(3) 0.0237(11) 0.0625(4)
O16 O 0.4339(3) -0.1951(9) 0.0077(5)
O17 O 0.5562(3) -0.1527(12) -0.0899(4)
La1_2 La 0.24352(2) 1.13805(7) -0.00003(3)
La2B La -0.02135(2) 0.36261(8) -0.04019(2)
O7B O 0.5485(3) 0.2638(11) -0.1491(4)
O8B O 0.6246(3) 0.2718(10) -0.0607(3)
O10_2 O 0.2901(3) -0.2279(9) 0.0361(4)
O11_2 O 0.1917(3) -0.2293(8) -0.0388(4)
O18 O -0.0096(4) -0.1598(14) -0.2039(5)
H7 H -0.0276 -0.0634 -0.1795
H8 H 0.0180 -0.2251 -0.1749
O19 O 0.0099(6) -0.3488(15) 0.1869(5)
H9 H 0.0251 -0.2204 0.1860
H10 H 0.0205 -0.3934 0.1456
loop_
_geom_bond_atom_site_label_1
_geom_bond_atom_site_label_2
_geom_bond_site_symmetry_1
_geom_bond_site_symmetry_2
La1 N1 1_555 1_555
La2 O3 1_555 1_555
N1 C1 1_555 1_555
N2 La1 1_555 1_555
C1 C2 1_555 1_555
C2 H1 1_555 1_555
C3 C2 1_555 1_555
H2 C3 1_555 1_555
C4 C3 1_555 1_555
H3 C4 1_555 1_555
C5 N1 1_555 1_555
C6 C1 1_555 1_555
C7 C5 1_555 1_555
C8 N2 1_555 1_555
C9 C8 1_555 1_555
H4 C9 1_555 1_555
C10 C9 1_555 1_555
H5 C10 1_555 1_555
C11 C10 1_555 1_555
H6 C11 1_555 1_555
C12 N2 1_555 1_555
C13 C12 1_555 1_555
C14 C8 1_555 1_555
O1 C7 1_555 1_555
O2 La1 1_555 1_555
O3 La1 1_555 1_555
O4 C6 1_555 1_555
O5 La2 1_555 1_555
O6 La1 1_555 1_555
O7 C14 1_555 1_555
O8 La1 1_555 1_555
S1 O9 1_555 1_555
O9 La1 1_555 1_555
O10 S1 1_555 1_555
O11 S1 1_555 1_555
O12 La1 1_555 1_555
O13 La2 1_555 1_555
O14 La2 1_555 1_555
O15 La2 1_555 1_555
O16 La2 1_555 1_555
O17 La2 1_555 1_555
O18 H7 1_555 1_555
O19 H9 1_555 1_555
H8 O18 1_555 1_555
H10 O19 1_555 1_555
La1_2 O10 1_555 1_555
La2B O7 1_555 1_555
O7B La2 1_555 1_555
O8B La2 1_555 1_555
O10_2 La1 1_555 1_555
O11_2 La1 1_555 1_555
La2 O6 1_555 1_555
C4 C5 1_555 1_555
C6 O3 1_555 1_555
C7 O2 1_555 1_555
C11 C12 1_555 1_555
C13 O5 1_555 1_555
C13 O6 1_555 1_555
C14 O8 1_555 1_555
O8 La2B 1_555 1_555
S1 O12 1_555 1_555
O11 La1_2 1_555 1_555

#END
