
#######################################################################
#
#                 Cambridge Crystallographic Data Centre
#                                CCDC 
#
#######################################################################
#
# If this CIF has been generated from an entry in the Cambridge 
# Structural Database, then it will include bibliographic, chemical, 
# crystal, experimental, refinement or atomic coordinate data resulting 
# from the CCDC's data processing and validation procedures.
#
#######################################################################

data_ENUQUA
_symmetry_cell_setting           triclinic
_symmetry_space_group_name_H-M   'P -1'
_symmetry_Int_Tables_number      2
_space_group_name_Hall           '-P 1'
loop_
_symmetry_equiv_pos_site_id
_symmetry_equiv_pos_as_xyz
1 x,y,z
2 -x,-y,-z
_cell_length_a                   7.0123(11)
_cell_length_b                   13.123(2)
_cell_length_c                   13.692(2)
_cell_angle_alpha                64.278(2)
_cell_angle_beta                 78.484(2)
_cell_angle_gamma                88.726(2)
_cell_volume                     1109.31
loop_
_atom_site_label
_atom_site_type_symbol
_atom_site_fract_x
_atom_site_fract_y
_atom_site_fract_z
Co1 Co -0.02303(6) 0.89722(4) 0.22609(4)
C1 C 0.3151(5) 0.7713(3) 0.1818(3)
C2 C 0.3402(5) 0.6637(3) 0.1673(3)
C3 C 0.1760(5) 0.5956(3) 0.1916(3)
H1 H 0.0640 0.6024 0.2372
C4 C 0.1724(5) 0.5159(3) 0.1495(3)
H2 H 0.0610 0.4677 0.1712
C5 C 0.3319(5) 0.5076(2) 0.0761(3)
C6 C 0.5094(4) 0.5716(2) 0.0551(3)
C7 C 0.3218(5) 0.4343(3) 0.0199(3)
C8 C 0.1515(5) 0.3704(3) 0.0384(3)
H3 H 0.0426 0.3708 0.0897
C9 C 0.1415(5) 0.3055(3) -0.0189(3)
H4 H 0.0247 0.2651 -0.0062
C10 C 0.2986(5) 0.2996(3) -0.0931(3)
C11 C 0.5173(4) 0.6450(2) 0.1069(3)
C12 C 0.2669(5) 0.2514(3) -0.1710(3)
C13 C 0.2421(5) 0.9401(3) 0.3646(3)
H5 H 0.3034 0.8761 0.3659
C14 C 0.3102(6) 0.9987(3) 0.4163(3)
H6 H 0.4146 0.9737 0.4512
C15 C 0.2224(6) 1.0927(3) 0.4152(3)
H7 H 0.2663 1.1323 0.4496
C16 C 0.0646(6) 1.1296(3) 0.3616(3)
C17 C -0.0404(6) 1.2260(3) 0.3574(3)
H8 H -0.0028 1.2686 0.3907
C18 C -0.1914(6) 1.2560(3) 0.3068(3)
H9 H -0.2579 1.3181 0.3068
C19 C -0.2525(5) 1.1942(3) 0.2525(3)
C20 C -0.4047(6) 1.2235(3) 0.1948(3)
H10 H -0.4727 1.2866 0.1897
C21 C -0.4528(6) 1.1596(3) 0.1462(3)
H11 H -0.5533 1.1787 0.1077
C22 C -0.3495(5) 1.0644(3) 0.1548(3)
H12 H -0.3848 1.0206 0.1222
C23 C -0.1538(5) 1.0988(3) 0.2557(3)
C24 C 0.0069(5) 1.0655(3) 0.3115(3)
N1 N 0.0943(4) 0.9715(2) 0.3136(2)
N2 N -0.2034(4) 1.0346(2) 0.2075(2)
O1 O 0.4216(3) 0.85664(19) 0.1130(2)
O3 O 0.1728(3) 0.77016(18) 0.25718(18)
O5 O 0.1682(3) 1.01185(19) 0.08235(19)
H17 H 0.1735 1.0821 0.0665
H18 H 0.2404 0.9882 0.0399
O7 O -0.2267(4) 0.7946(2) 0.3761(2)
H21 H -0.3272 0.8228 0.3977
H22 H -0.2072 0.7256 0.4140
O8 O 0.3480(4) 0.30557(19) -0.27070(19)
O9 O 0.1481(3) 0.16393(18) -0.13247(18)
Co1A Co 1.02303(6) 0.10278(4) -0.22609(4)
Co1A_2 Co 0.02303(6) 0.10278(4) -0.22609(4)
Co1_2 Co 0.97697(6) 0.89722(4) 0.22609(4)
C1A C 0.6849(5) 0.2287(3) -0.1818(3)
C2A C 0.6598(5) 0.3363(3) -0.1673(3)
C3A C 0.8240(5) 0.4044(3) -0.1916(3)
H1A H 0.9360 0.3976 -0.2372
C4A C 0.8276(5) 0.4841(3) -0.1495(3)
H2A H 0.9390 0.5323 -0.1712
C5A C 0.6681(5) 0.4924(2) -0.0761(3)
C6A C 0.4906(4) 0.4284(2) -0.0551(3)
C7A C 0.6782(5) 0.5657(3) -0.0199(3)
C8A C 0.8485(5) 0.6296(3) -0.0384(3)
H3A H 0.9574 0.6292 -0.0897
C9A C 0.8585(5) 0.6945(3) 0.0189(3)
H4A H 0.9753 0.7349 0.0062
C10A C 0.7014(5) 0.7004(3) 0.0931(3)
C11A C 0.4827(4) 0.3550(2) -0.1069(3)
C12A C 0.7331(5) 0.7486(3) 0.1710(3)
C13A C 0.7579(5) 0.0599(3) -0.3646(3)
H5A H 0.6966 0.1239 -0.3659
C14A C 0.6898(6) 0.0013(3) -0.4163(3)
H6A H 0.5854 0.0263 -0.4512
C15A C 0.7776(6) -0.0927(3) -0.4152(3)
H7A H 0.7337 -0.1323 -0.4496
C16A C 0.9354(6) -0.1296(3) -0.3616(3)
C17A C 1.0404(6) -0.2260(3) -0.3574(3)
H8A H 1.0028 -0.2686 -0.3907
C18A C 1.1914(6) -0.2560(3) -0.3068(3)
H9A H 1.2579 -0.3181 -0.3068
C19A C 1.2525(5) -0.1942(3) -0.2525(3)
C20A C 1.4047(6) -0.2235(3) -0.1948(3)
H10A H 1.4727 -0.2866 -0.1897
C21A C 1.4528(6) -0.1596(3) -0.1462(3)
H11A H 1.5533 -0.1787 -0.1077
C22A C 1.3495(5) -0.0644(3) -0.1548(3)
H12A H 1.3848 -0.0206 -0.1222
C23A C 1.1538(5) -0.0988(3) -0.2557(3)
C24A C 0.9931(5) -0.0655(3) -0.3115(3)
N1A N 0.9057(4) 0.0285(2) -0.3136(2)
N2A N 1.2034(4) -0.0346(2) -0.2075(2)
O1A O 0.5784(3) 0.14336(19) -0.1130(2)
O3A O 0.8272(3) 0.22984(18) -0.25718(18)
O5A O 0.8318(3) -0.01185(19) -0.08235(19)
H17A H 0.8265 -0.0821 -0.0665
H18A H 0.7596 0.0118 -0.0399
O7A O 1.2267(4) 0.2054(2) -0.3761(2)
H21A H 1.3272 0.1772 -0.3977
H22A H 1.2072 0.2744 -0.4140
O8A O 0.6520(4) 0.69443(19) 0.27070(19)
O9A O 0.8519(3) 0.83607(18) 0.13247(18)
O9A_2 O -0.1481(3) 0.83607(18) 0.13247(18)
O9_2 O 1.1481(3) 0.16393(18) -0.13247(18)
O2 O -0.2932(12) 0.6436(5) 0.5886(6)
H13 H -0.3532 0.6385 0.6511
H14 H -0.2397 0.5965 0.5663
O4 O -0.6161(7) 0.5385(3) 0.6061(4)
H15 H -0.5775 0.5103 0.5608
H16 H -0.6365 0.4725 0.6599
O6 O 0.0893(7) 0.6046(3) 0.4801(3)
H19 H 0.1760 0.5632 0.4664
H20 H 0.0944 0.6557 0.4144
loop_
_geom_bond_atom_site_label_1
_geom_bond_atom_site_label_2
_geom_bond_site_symmetry_1
_geom_bond_site_symmetry_2
Co1 N1 1_555 1_555
C1 C2 1_555 1_555
C2 C3 1_555 1_555
C3 H1 1_555 1_555
C4 C3 1_555 1_555
H2 C4 1_555 1_555
C5 C4 1_555 1_555
C6 C5 1_555 1_555
C7 C5 1_555 1_555
C8 C7 1_555 1_555
H3 C8 1_555 1_555
C9 C8 1_555 1_555
H4 C9 1_555 1_555
C10 C9 1_555 1_555
C11 C2 1_555 1_555
C12 C10 1_555 1_555
C13 H5 1_555 1_555
C14 C13 1_555 1_555
H6 C14 1_555 1_555
C15 C14 1_555 1_555
H7 C15 1_555 1_555
C16 C15 1_555 1_555
C17 C16 1_555 1_555
H8 C17 1_555 1_555
C18 C17 1_555 1_555
H9 C18 1_555 1_555
C19 C18 1_555 1_555
C20 C19 1_555 1_555
H10 C20 1_555 1_555
C21 C20 1_555 1_555
H11 C21 1_555 1_555
C22 C21 1_555 1_555
H12 C22 1_555 1_555
C23 C19 1_555 1_555
C24 C16 1_555 1_555
N1 C13 1_555 1_555
N2 Co1 1_555 1_555
O1 C1 1_555 1_555
O2 H13 1_555 1_555
H14 O2 1_555 1_555
O3 Co1 1_555 1_555
O4 H15 1_555 1_555
H16 O4 1_555 1_555
O5 Co1 1_555 1_555
H17 O5 1_555 1_555
H18 O5 1_555 1_555
O6 H19 1_555 1_555
H20 O6 1_555 1_555
O7 Co1 1_555 1_555
H21 O7 1_555 1_555
H22 O7 1_555 1_555
O8 C12 1_555 1_555
O9 C12 1_555 1_555
Co1A N1A 1_555 1_555
Co1A_2 O9 1_555 1_555
Co1_2 O9A 1_555 1_555
C1A C2A 1_555 1_555
C2A C3A 1_555 1_555
C3A H1A 1_555 1_555
C4A C3A 1_555 1_555
H2A C4A 1_555 1_555
C5A C4A 1_555 1_555
C6A C7 1_555 1_555
C7A C6 1_555 1_555
C8A C7A 1_555 1_555
H3A C8A 1_555 1_555
C9A C8A 1_555 1_555
H4A C9A 1_555 1_555
C10A C11 1_555 1_555
C11A C10 1_555 1_555
C12A C10A 1_555 1_555
C13A H5A 1_555 1_555
C14A C13A 1_555 1_555
H6A C14A 1_555 1_555
C15A C14A 1_555 1_555
H7A C15A 1_555 1_555
C16A C15A 1_555 1_555
C17A C16A 1_555 1_555
H8A C17A 1_555 1_555
C18A C17A 1_555 1_555
H9A C18A 1_555 1_555
C19A C18A 1_555 1_555
C20A C19A 1_555 1_555
H10A C20A 1_555 1_555
C21A C20A 1_555 1_555
H11A C21A 1_555 1_555
C22A C21A 1_555 1_555
H12A C22A 1_555 1_555
C23A C19A 1_555 1_555
C24A C16A 1_555 1_555
N1A C13A 1_555 1_555
N2A Co1A 1_555 1_555
O1A C1A 1_555 1_555
O3A Co1A 1_555 1_555
O5A Co1A 1_555 1_555
H17A O5A 1_555 1_555
H18A O5A 1_555 1_555
O7A Co1A 1_555 1_555
H21A O7A 1_555 1_555
H22A O7A 1_555 1_555
O8A C12A 1_555 1_555
O9A C12A 1_555 1_555
O9A_2 Co1 1_555 1_555
O9_2 Co1A 1_555 1_555
C1 O3 1_555 1_555
C6 C11 1_555 1_555
C22 N2 1_555 1_555
C23 C24 1_555 1_555
C23 N2 1_555 1_555
C24 N1 1_555 1_555
C1A O3A 1_555 1_555
C2A C11A 1_555 1_555
C5A C6A 1_555 1_555
C5A C7A 1_555 1_555
C6A C11A 1_555 1_555
C9A C10A 1_555 1_555
C22A N2A 1_555 1_555
C23A C24A 1_555 1_555
C23A N2A 1_555 1_555
C24A N1A 1_555 1_555

#END
