
#######################################################################
#
#                 Cambridge Crystallographic Data Centre
#                                CCDC 
#
#######################################################################
#
# If this CIF has been generated from an entry in the Cambridge 
# Structural Database, then it will include bibliographic, chemical, 
# crystal, experimental, refinement or atomic coordinate data resulting 
# from the CCDC's data processing and validation procedures.
#
#######################################################################

data_ENUQEK
_symmetry_cell_setting           triclinic
_symmetry_space_group_name_H-M   'P -1'
_symmetry_Int_Tables_number      2
_space_group_name_Hall           '-P 1'
loop_
_symmetry_equiv_pos_site_id
_symmetry_equiv_pos_as_xyz
1 x,y,z
2 -x,-y,-z
_cell_length_a                   9.9876(16)
_cell_length_b                   11.3840(19)
_cell_length_c                   11.5623(19)
_cell_angle_alpha                107.714(2)
_cell_angle_beta                 110.507(2)
_cell_angle_gamma                94.519(2)
_cell_volume                     1147.33
loop_
_atom_site_label
_atom_site_type_symbol
_atom_site_fract_x
_atom_site_fract_y
_atom_site_fract_z
Zn1 Zn 0.64581(7) 0.02910(6) 0.71670(5)
C1 C 0.7900(5) 0.1148(4) 0.5894(4)
C2 C 0.8650(5) 0.2067(4) 0.5512(4)
C3 C 1.0048(5) 0.1967(4) 0.5619(4)
H1 H 1.0393 0.1269 0.5769
C4 C 1.0960(5) 0.2882(4) 0.5511(4)
H2 H 1.1895 0.2774 0.5580
C5 C 1.0514(4) 0.3939(4) 0.5305(4)
C6 C 1.1506(5) 0.4944(4) 0.5271(4)
C7 C 1.2973(5) 0.4929(4) 0.5585(5)
H3 H 1.3334 0.4263 0.5806
C8 C 0.9020(5) 0.4022(4) 0.5063(4)
C9 C 0.8069(5) 0.3068(4) 0.5140(4)
C10 C 0.6557(5) 0.3122(4) 0.4756(4)
C11 C 1.3913(5) 0.5885(4) 0.5578(5)
H4 H 1.4896 0.5851 0.5809
C12 C 0.5361(5) 0.2098(4) 0.4531(4)
C13 C 0.6077(7) 0.1892(5) 0.9717(5)
H5 H 0.5648 0.2403 0.9262
C14 C 0.6114(7) 0.2111(6) 1.0973(6)
H6 H 0.5718 0.2762 1.1350
C15 C 0.6721(7) 0.1383(6) 1.1651(5)
H7 H 0.6724 0.1516 1.2487
C16 C 0.7339(5) 0.0436(5) 1.1103(5)
C17 C 0.8052(6) -0.0364(6) 1.1769(6)
H8 H 0.8094 -0.0258 1.2612
C18 C 0.8658(7) -0.1260(6) 1.1202(6)
H9 H 0.9096 -0.1770 1.1654
C19 C 0.8643(6) -0.1446(5) 0.9914(5)
C20 C 0.9296(6) -0.2336(5) 0.9281(6)
H10 H 0.9776 -0.2860 0.9689
C21 C 0.9210(6) -0.2416(6) 0.8053(6)
H11 H 0.9630 -0.3003 0.7617
C22 C 0.8509(6) -0.1635(6) 0.7459(5)
H12 H 0.8477 -0.1706 0.6626
C23 C 0.7941(5) -0.0695(4) 0.9229(4)
C24 C 0.7285(5) 0.0262(4) 0.9834(4)
N1 N 0.6638(4) 0.0973(4) 0.9134(4)
N2 N 0.7876(4) -0.0788(4) 0.8014(4)
O1 O 0.7273(3) 0.1597(3) 0.6686(3)
O3 O 0.7971(4) 0.0028(3) 0.5507(4)
O5 O 0.4398(3) 0.2370(3) 0.4952(3)
O7 O 0.5347(3) 0.0972(3) 0.3807(3)
Zn1A Zn 1.35419(7) 0.97090(6) 0.28330(5)
Zn1A_2 Zn 0.35419(7) -0.02910(6) 0.28330(5)
Zn1_2 Zn 1.64581(7) 1.02910(6) 0.71670(5)
C1A C 1.2100(5) 0.8852(4) 0.4106(4)
C2A C 1.1350(5) 0.7933(4) 0.4488(4)
C3A C 0.9952(5) 0.8033(4) 0.4381(4)
H1A H 0.9607 0.8731 0.4231
C4A C 0.9040(5) 0.7118(4) 0.4489(4)
H2A H 0.8105 0.7226 0.4420
C5A C 0.9486(4) 0.6061(4) 0.4695(4)
C6A C 0.8494(5) 0.5056(4) 0.4729(4)
C7A C 0.7027(5) 0.5071(4) 0.4415(5)
H3A H 0.6666 0.5737 0.4194
C8A C 1.0980(5) 0.5978(4) 0.4937(4)
C9A C 1.1931(5) 0.6932(4) 0.4860(4)
C10A C 1.3443(5) 0.6878(4) 0.5244(4)
C11A C 0.6087(5) 0.4115(4) 0.4422(5)
H4A H 0.5104 0.4149 0.4191
C12A C 1.4639(5) 0.7902(4) 0.5469(4)
C13A C 1.3923(7) 0.8108(5) 0.0283(5)
H5A H 1.4352 0.7597 0.0738
C14A C 1.3886(7) 0.7889(6) -0.0973(6)
H6A H 1.4282 0.7238 -0.1350
C15A C 1.3279(7) 0.8617(6) -0.1651(5)
H7A H 1.3276 0.8484 -0.2487
C16A C 1.2661(5) 0.9564(5) -0.1103(5)
C17A C 1.1948(6) 1.0364(6) -0.1769(6)
H8A H 1.1906 1.0258 -0.2612
C18A C 1.1342(7) 1.1260(6) -0.1202(6)
H9A H 1.0904 1.1770 -0.1654
C19A C 1.1357(6) 1.1446(5) 0.0086(5)
C20A C 1.0704(6) 1.2336(5) 0.0719(6)
H10A H 1.0224 1.2860 0.0311
C21A C 1.0790(6) 1.2416(6) 0.1947(6)
H11A H 1.0370 1.3003 0.2383
C22A C 1.1491(6) 1.1635(6) 0.2541(5)
H12A H 1.1523 1.1706 0.3374
C23A C 1.2059(5) 1.0695(4) 0.0771(4)
C24A C 1.2715(5) 0.9738(4) 0.0166(4)
N1A N 1.3362(4) 0.9027(4) 0.0866(4)
N2A N 1.2124(4) 1.0788(4) 0.1986(4)
O1A O 1.2727(3) 0.8403(3) 0.3314(3)
O3A O 1.2029(4) 0.9972(3) 0.4493(4)
O5A O 1.5602(3) 0.7630(3) 0.5048(3)
O7A O 1.4653(3) 0.9028(3) 0.6193(3)
O7A_2 O 0.4653(3) -0.0972(3) 0.6193(3)
O7_2 O 1.5347(3) 1.0972(3) 0.3807(3)
O2 O 0.4285(5) 0.1604(3) 0.6893(3)
H13 H 0.3575 0.0972 0.6462
H14 H 0.4272 0.2153 0.6531
O4 O 0.8146(5) 0.4141(4) 0.8445(4)
H15 H 0.7887 0.3371 0.7942
H16 H 0.8949 0.4525 0.8512
O6 O 0.3468(5) 0.3886(4) 0.8528(4)
H17 H 0.3330 0.3131 0.8017
H18 H 0.4344 0.4302 0.8896
O8 O 0.0982(5) 0.5098(5) 0.8745(5)
H19 H 0.1631 0.4718 0.8582
H20 H 0.1272 0.5378 0.9581
O9 O 0.4131(5) 0.4481(5) 0.1230(5)
H21 H 0.3999 0.4983 0.1876
H22 H 0.3341 0.4719 0.0910
loop_
_geom_bond_atom_site_label_1
_geom_bond_atom_site_label_2
_geom_bond_site_symmetry_1
_geom_bond_site_symmetry_2
Zn1 N1 1_555 1_555
C1 C2 1_555 1_555
C2 C3 1_555 1_555
C3 H1 1_555 1_555
C4 C3 1_555 1_555
H2 C4 1_555 1_555
C5 C4 1_555 1_555
C6 C5 1_555 1_555
C7 C6 1_555 1_555
H3 C7 1_555 1_555
C8 C5 1_555 1_555
C9 C2 1_555 1_555
C10 C9 1_555 1_555
C11 C7 1_555 1_555
H4 C11 1_555 1_555
C12 C10 1_555 1_555
C13 H5 1_555 1_555
C14 C13 1_555 1_555
H6 C14 1_555 1_555
C15 C14 1_555 1_555
H7 C15 1_555 1_555
C16 C15 1_555 1_555
C17 C16 1_555 1_555
H8 C17 1_555 1_555
C18 C17 1_555 1_555
H9 C18 1_555 1_555
C19 C18 1_555 1_555
C20 C19 1_555 1_555
H10 C20 1_555 1_555
C21 C20 1_555 1_555
H11 C21 1_555 1_555
C22 C21 1_555 1_555
H12 C22 1_555 1_555
C23 C19 1_555 1_555
C24 C16 1_555 1_555
N1 C13 1_555 1_555
N2 Zn1 1_555 1_555
O1 Zn1 1_555 1_555
O2 H13 1_555 1_555
H14 O2 1_555 1_555
O3 C1 1_555 1_555
O4 H15 1_555 1_555
H16 O4 1_555 1_555
O5 C12 1_555 1_555
O6 H17 1_555 1_555
H18 O6 1_555 1_555
O7 C12 1_555 1_555
O8 H19 1_555 1_555
H20 O8 1_555 1_555
O9 H21 1_555 1_555
H22 O9 1_555 1_555
Zn1A N1A 1_555 1_555
Zn1A_2 O7 1_555 1_555
Zn1_2 O7A 1_555 1_555
C1A C2A 1_555 1_555
C2A C3A 1_555 1_555
C3A H1A 1_555 1_555
C4A C3A 1_555 1_555
H2A C4A 1_555 1_555
C5A C4A 1_555 1_555
C6A C8 1_555 1_555
C7A C6A 1_555 1_555
H3A C7A 1_555 1_555
C8A C6 1_555 1_555
C9A C2A 1_555 1_555
C10A C11 1_555 1_555
C11A C10 1_555 1_555
H4A C11A 1_555 1_555
C12A C10A 1_555 1_555
C13A H5A 1_555 1_555
C14A C13A 1_555 1_555
H6A C14A 1_555 1_555
C15A C14A 1_555 1_555
H7A C15A 1_555 1_555
C16A C15A 1_555 1_555
C17A C16A 1_555 1_555
H8A C17A 1_555 1_555
C18A C17A 1_555 1_555
H9A C18A 1_555 1_555
C19A C18A 1_555 1_555
C20A C19A 1_555 1_555
H10A C20A 1_555 1_555
C21A C20A 1_555 1_555
H11A C21A 1_555 1_555
C22A C21A 1_555 1_555
H12A C22A 1_555 1_555
C23A C19A 1_555 1_555
C24A C16A 1_555 1_555
N1A C13A 1_555 1_555
N2A Zn1A 1_555 1_555
O1A Zn1A 1_555 1_555
O3A C1A 1_555 1_555
O5A C12A 1_555 1_555
O7A C12A 1_555 1_555
O7A_2 Zn1 1_555 1_555
O7_2 Zn1A 1_555 1_555
C1 O1 1_555 1_555
C8 C9 1_555 1_555
C22 N2 1_555 1_555
C23 C24 1_555 1_555
C23 N2 1_555 1_555
C24 N1 1_555 1_555
C1A O1A 1_555 1_555
C5A C6A 1_555 1_555
C5A C8A 1_555 1_555
C7A C11A 1_555 1_555
C8A C9A 1_555 1_555
C9A C10A 1_555 1_555
C22A N2A 1_555 1_555
C23A C24A 1_555 1_555
C23A N2A 1_555 1_555
C24A N1A 1_555 1_555

#END
