
#######################################################################
#
#                 Cambridge Crystallographic Data Centre
#                                CCDC 
#
#######################################################################
#
# If this CIF has been generated from an entry in the Cambridge 
# Structural Database, then it will include bibliographic, chemical, 
# crystal, experimental, refinement or atomic coordinate data resulting 
# from the CCDC's data processing and validation procedures.
#
#######################################################################

data_ENUZIX
_symmetry_cell_setting           triclinic
_symmetry_space_group_name_H-M   'P -1'
_symmetry_Int_Tables_number      2
_space_group_name_Hall           '-P 1'
loop_
_symmetry_equiv_pos_site_id
_symmetry_equiv_pos_as_xyz
1 x,y,z
2 -x,-y,-z
_cell_length_a                   9.4196(2)
_cell_length_b                   14.0381(4)
_cell_length_c                   18.0896(4)
_cell_angle_alpha                83.244(2)
_cell_angle_beta                 75.876(2)
_cell_angle_gamma                76.670(2)
_cell_volume                     2252.46
loop_
_atom_site_label
_atom_site_type_symbol
_atom_site_fract_x
_atom_site_fract_y
_atom_site_fract_z
Ru1 Ru 0.40112(5) 0.32637(4) 0.23598(3)
Zn1 Zn 0.76750(9) 0.19197(7) -0.16656(4)
Zn2 Zn 0.33429(10) 0.19993(8) 0.68582(5)
O1 O 0.9423(5) 0.1118(3) -0.2391(2)
O2 O 0.9221(5) 0.2836(3) -0.1817(3)
O3 O 1.1547(5) 0.2885(4) -0.2475(2)
O4 O 1.1707(5) 0.1186(3) -0.3054(3)
O5 O 0.3037(6) 0.2782(5) 0.5551(3)
O6 O 0.4509(5) 0.1426(4) 0.5859(3)
O7 O 0.4444(5) 0.1066(4) -0.2400(2)
O8 O 0.4772(5) 0.2866(4) -0.3029(3)
O9 O 0.8708(7) 0.0943(4) -0.0563(3)
O10 O 0.6731(6) 0.2152(4) -0.0567(2)
O11 O 0.6263(5) 0.1011(4) -0.1788(2)
O12 O 0.6494(5) 0.2842(4) -0.2363(3)
C1 C 0.5872(7) 0.1578(5) 0.3020(4)
N1 N 0.5645(5) 0.2223(4) 0.1774(3)
N2 N 0.3308(6) 0.4123(4) 0.1461(3)
N3 N 0.5482(7) 0.4171(5) 0.2117(4)
C2 C 0.2516(8) 0.1547(6) 0.2428(5)
N4 N 0.2327(7) 0.4211(4) 0.3026(3)
C3 C 0.2160(9) 0.4036(6) 0.1183(4)
H1 H 0.1714 0.3500 0.1358
C4 C 0.6069(7) 0.2197(5) 0.1005(4)
H2 H 0.5542 0.2668 0.0709
N5 N 0.4787(6) 0.2410(4) 0.3232(3)
C5 C 0.4210(7) 0.2519(5) 0.3989(4)
H3 H 0.3470 0.3070 0.4138
C6 C 1.0504(8) 0.1512(5) -0.2601(3)
C7 C 1.0416(8) 0.2498(5) -0.2263(4)
C8 C 0.7631(10) 0.1513(6) -0.0231(4)
C9 C 0.7257(8) 0.1499(5) 0.0635(4)
C10 C 0.8066(9) 0.0815(5) 0.1073(4)
H4 H 0.8892 0.0358 0.0843
C11 C 0.4679(8) 0.1842(6) 0.4552(4)
C12 C 0.6658(10) 0.4135(7) 0.2402(5)
H5 H 0.6869 0.3624 0.2761
C13 C 0.5752(8) 0.1015(6) 0.4332(4)
H6 H 0.6081 0.0548 0.4696
C14 C 0.4011(9) 0.2039(7) 0.5384(4)
C15 C 0.5575(8) 0.2474(6) -0.2569(4)
C16 C 0.5407(8) 0.1423(6) -0.2225(4)
C17 C 0.7632(8) 0.0821(5) 0.1851(4)
H7 H 0.8158 0.0354 0.2150
C18 C 0.6427(7) 0.1509(5) 0.2202(3)
C19 C 0.6333(7) 0.0889(5) 0.3562(4)
H8 H 0.7047 0.0327 0.3410
N6 N 0.2396(6) 0.2463(5) 0.2597(3)
C20 C 0.1072(9) 0.2890(7) 0.3093(5)
C21 C -0.0144(10) 0.2397(8) 0.3358(6)
H9 H -0.1028 0.2687 0.3682
C22 C 0.1021(8) 0.3893(6) 0.3308(4)
C23 C -0.0222(9) 0.4436(7) 0.3766(5)
H10 H -0.1081 0.4189 0.3970
C24 C -0.0135(11) 0.5350(8) 0.3905(5)
H11 H -0.0970 0.5731 0.4205
C25 C 0.1101(11) 0.5740(7) 0.3630(5)
H12 H 0.1131 0.6366 0.3737
C26 C 0.7609(10) 0.4796(9) 0.2213(5)
H13 H 0.8402 0.4741 0.2448
C27 C 0.7319(14) 0.5542(9) 0.1656(7)
H14 H 0.7906 0.6012 0.1518
C28 C 0.6144(13) 0.5577(7) 0.1307(5)
H15 H 0.5977 0.6057 0.0919
C29 C 0.5228(10) 0.4918(6) 0.1526(4)
C30 C 0.3956(9) 0.4884(6) 0.1198(4)
C31 C 0.3462(13) 0.5598(6) 0.0669(5)
H16 H 0.3919 0.6129 0.0499
C32 C 0.2272(14) 0.5484(8) 0.0408(5)
H17 H 0.1903 0.5952 0.0054
C33 C 0.0053(12) 0.1452(7) 0.3107(7)
H18 H -0.0708 0.1102 0.3262
C34 C 0.1405(11) 0.1048(7) 0.2624(6)
H19 H 0.1537 0.0436 0.2437
C35 C 0.1612(10) 0.4700(8) 0.0653(5)
H20 H 0.0813 0.4620 0.0466
C36 C 0.2350(10) 0.5131(6) 0.3169(4)
H21 H 0.3210 0.5375 0.2959
Zn2_2 Zn 1.33429(10) 0.19993(8) -0.31418(5)
Zn2_3 Zn 0.33429(10) 0.19993(8) -0.31418(5)
O3_2 O 0.1547(5) 0.2885(4) 0.7525(2)
O4_2 O 0.1707(5) 0.1186(3) 0.6946(3)
O7_2 O 0.4444(5) 0.1066(4) 0.7600(2)
O8_2 O 0.4772(5) 0.2866(4) 0.6971(3)
loop_
_geom_bond_atom_site_label_1
_geom_bond_atom_site_label_2
_geom_bond_site_symmetry_1
_geom_bond_site_symmetry_2
Ru1 N1 1_555 1_555
Zn1 O1 1_555 1_555
Zn2 O6 1_555 1_555
O1 C6 1_555 1_555
O2 Zn1 1_555 1_555
O3 C7 1_555 1_555
O4 C6 1_555 1_555
O5 C14 1_555 1_555
O6 C14 1_555 1_555
O7 C16 1_555 1_555
O8 C15 1_555 1_555
O9 C8 1_555 1_555
O10 Zn1 1_555 1_555
O11 Zn1 1_555 1_555
O12 Zn1 1_555 1_555
C1 N5 1_555 1_555
N1 C4 1_555 1_555
N2 Ru1 1_555 1_555
N3 Ru1 1_555 1_555
C2 N6 1_555 1_555
N4 Ru1 1_555 1_555
C3 N2 1_555 1_555
H1 C3 1_555 1_555
C4 H2 1_555 1_555
N5 Ru1 1_555 1_555
C5 N5 1_555 1_555
H3 C5 1_555 1_555
C6 C7 1_555 1_555
C7 O2 1_555 1_555
C8 O10 1_555 1_555
C9 C4 1_555 1_555
C10 C9 1_555 1_555
H4 C10 1_555 1_555
C11 C5 1_555 1_555
C12 N3 1_555 1_555
H5 C12 1_555 1_555
C13 C11 1_555 1_555
H6 C13 1_555 1_555
C14 C11 1_555 1_555
C15 O12 1_555 1_555
C16 O11 1_555 1_555
C17 C10 1_555 1_555
H7 C17 1_555 1_555
C18 C1 1_555 1_555
C19 C1 1_555 1_555
H8 C19 1_555 1_555
N6 Ru1 1_555 1_555
C20 N6 1_555 1_555
C21 C20 1_555 1_555
H9 C21 1_555 1_555
C22 N4 1_555 1_555
C23 C22 1_555 1_555
H10 C23 1_555 1_555
C24 C23 1_555 1_555
H11 C24 1_555 1_555
C25 C24 1_555 1_555
H12 C25 1_555 1_555
C26 C12 1_555 1_555
H13 C26 1_555 1_555
C27 C26 1_555 1_555
H14 C27 1_555 1_555
C28 C27 1_555 1_555
H15 C28 1_555 1_555
C29 N3 1_555 1_555
C30 N2 1_555 1_555
C31 C30 1_555 1_555
H16 C31 1_555 1_555
C32 C31 1_555 1_555
H17 C32 1_555 1_555
C33 C21 1_555 1_555
H18 C33 1_555 1_555
C34 C2 1_555 1_555
H19 C34 1_555 1_555
C35 C3 1_555 1_555
H20 C35 1_555 1_555
C36 N4 1_555 1_555
H21 C36 1_555 1_555
Zn2_2 O3 1_555 1_555
Zn2_3 O7 1_555 1_555
O3_2 Zn2 1_555 1_555
O4_2 Zn2 1_555 1_555
O7_2 Zn2 1_555 1_555
O8_2 Zn2 1_555 1_555
O4 Zn2_2 1_555 1_555
O8 Zn2_3 1_555 1_555
N1 C18 1_555 1_555
C8 C9 1_555 1_555
C13 C19 1_555 1_555
C15 C16 1_555 1_555
C17 C18 1_555 1_555
C20 C22 1_555 1_555
C25 C36 1_555 1_555
C28 C29 1_555 1_555
C29 C30 1_555 1_555
C32 C35 1_555 1_555
C33 C34 1_555 1_555

#END
