
#######################################################################
#
#                 Cambridge Crystallographic Data Centre
#                                CCDC 
#
#######################################################################
#
# If this CIF has been generated from an entry in the Cambridge 
# Structural Database, then it will include bibliographic, chemical, 
# crystal, experimental, refinement or atomic coordinate data resulting 
# from the CCDC's data processing and validation procedures.
#
#######################################################################

data_EPAKIQ
_symmetry_cell_setting           monoclinic
_symmetry_space_group_name_H-M   'P 21/c'
_symmetry_Int_Tables_number      14
_space_group_name_Hall           '-P 2ybc'
loop_
_symmetry_equiv_pos_site_id
_symmetry_equiv_pos_as_xyz
1 x,y,z
2 -x,1/2+y,1/2-z
3 -x,-y,-z
4 x,1/2-y,1/2+z
_cell_length_a                   7.225(1)
_cell_length_b                   12.049(1)
_cell_length_c                   15.053(2)
_cell_angle_alpha                90
_cell_angle_beta                 102.050(1)
_cell_angle_gamma                90
_cell_volume                     1281.55
loop_
_atom_site_label
_atom_site_type_symbol
_atom_site_fract_x
_atom_site_fract_y
_atom_site_fract_z
Ag1 Ag 0.22095(4) -0.02235(2) 0.000140(15)
O1 O 0.0742(4) -0.15542(19) 0.44372(15)
O2 O 0.1006(4) -0.32539(18) 0.39043(16)
N1 N 0.1553(4) -0.0856(2) 0.12582(16)
N2 N 0.3367(3) 0.09891(19) -0.08268(16)
N3 N 0.2975(5) -0.0207(2) -0.2059(2)
C1 C 0.1006(4) -0.1913(2) 0.13287(19)
H1 H 0.0758 -0.2351 0.0809
C2 C 0.0795(4) -0.2374(2) 0.21407(19)
H2 H 0.0410 -0.3109 0.2160
C3 C 0.1159(4) -0.1743(2) 0.29260(19)
C4 C 0.1714(5) -0.0652(2) 0.2855(2)
H3 H 0.1962 -0.0198 0.3365
C5 C 0.1897(5) -0.0244(2) 0.2020(2)
H4 H 0.2276 0.0489 0.1984
C6 C 0.0967(4) -0.2225(2) 0.38374(19)
C7 C 0.3409(4) 0.0814(2) -0.17039(19)
C8 C 0.3941(5) 0.1655(3) -0.2249(2)
H5 H 0.3952 0.1522 -0.2856
C9 C 0.4440(5) 0.2666(3) -0.1871(3)
H6 H 0.4809 0.3230 -0.2219
C10 C 0.4396(5) 0.2854(3) -0.0965(3)
H7 H 0.4728 0.3544 -0.0703
C11 C 0.3859(4) 0.2011(3) -0.0462(2)
C12 C 0.3772(6) 0.2168(3) 0.0515(3)
H8 H 0.4520 0.1608 0.0876
H9 H 0.4256 0.2889 0.0714
H10 H 0.2482 0.2109 0.0581
H11 H 0.268(8) -0.030(4) -0.2661(8)
H13 H 0.222(6) -0.064(4) -0.181(3)
Ag1C Ag 0.22095(4) -0.47765(2) 0.500140(15)
O2C O 0.1006(4) -0.17461(18) -0.10957(16)
O3 O 0.2082(6) -0.4879(3) 0.0943(2)
H12 H 0.180(7) -0.445(3) 0.049(2)
H14 H 0.133(6) -0.542(3) 0.087(3)
loop_
_geom_bond_atom_site_label_1
_geom_bond_atom_site_label_2
_geom_bond_site_symmetry_1
_geom_bond_site_symmetry_2
Ag1 N1 1_555 1_555
O1 C6 1_555 1_555
O2 C6 1_555 1_555
O3 H12 1_555 1_555
N1 C1 1_555 1_555
N2 Ag1 1_555 1_555
N3 C7 1_555 1_555
C1 H1 1_555 1_555
C2 C1 1_555 1_555
H2 C2 1_555 1_555
C3 C2 1_555 1_555
C4 C3 1_555 1_555
H3 C4 1_555 1_555
C5 N1 1_555 1_555
H4 C5 1_555 1_555
C6 C3 1_555 1_555
C7 N2 1_555 1_555
C8 C7 1_555 1_555
H5 C8 1_555 1_555
C9 C8 1_555 1_555
H6 C9 1_555 1_555
C10 C9 1_555 1_555
H7 C10 1_555 1_555
C11 N2 1_555 1_555
C12 C11 1_555 1_555
H8 C12 1_555 1_555
H9 C12 1_555 1_555
H10 C12 1_555 1_555
H11 N3 1_555 1_555
H13 N3 1_555 1_555
H14 O3 1_555 1_555
Ag1C O2 1_555 1_555
O2C Ag1 1_555 1_555
C4 C5 1_555 1_555
C10 C11 1_555 1_555

#END
