
#######################################################################
#
#                 Cambridge Crystallographic Data Centre
#                                CCDC 
#
#######################################################################
#
# If this CIF has been generated from an entry in the Cambridge 
# Structural Database, then it will include bibliographic, chemical, 
# crystal, experimental, refinement or atomic coordinate data resulting 
# from the CCDC's data processing and validation procedures.
#
#######################################################################

data_EPAKEM
_symmetry_cell_setting           monoclinic
_symmetry_space_group_name_H-M   'P 21/c'
_symmetry_Int_Tables_number      14
_space_group_name_Hall           '-P 2ybc'
loop_
_symmetry_equiv_pos_site_id
_symmetry_equiv_pos_as_xyz
1 x,y,z
2 -x,1/2+y,1/2-z
3 -x,-y,-z
4 x,1/2-y,1/2+z
_cell_length_a                   8.079(2)
_cell_length_b                   17.150(3)
_cell_length_c                   8.912(2)
_cell_angle_alpha                90
_cell_angle_beta                 98.106(2)
_cell_angle_gamma                90
_cell_volume                     1222.46
loop_
_atom_site_label
_atom_site_type_symbol
_atom_site_fract_x
_atom_site_fract_y
_atom_site_fract_z
Ag1 Ag 0.35455(3) 0.457308(12) 0.12590(2)
O1 O 0.6188(2) 0.43505(10) 0.0452(2)
O2 O 0.5585(2) 0.30974(11) 0.0638(3)
N1 N 0.3220(3) 0.44828(12) 0.3745(3)
N2 N 0.4500(4) 0.32739(15) 0.3805(3)
N3 N 1.1176(3) 0.37951(13) 0.0226(3)
C1 C 0.9600(3) 0.39421(14) 0.0463(3)
H1 H 0.9379 0.4419 0.0890
C2 C 0.8288(3) 0.34274(13) 0.0111(3)
C3 C 0.8616(4) 0.27215(16) -0.0552(4)
H2 H 0.7769 0.2358 -0.0804
C4 C 1.0225(4) 0.25690(18) -0.0828(5)
H3 H 1.0472 0.2104 -0.1285
C5 C 1.1456(3) 0.31146(17) -0.0419(4)
H4 H 1.2537 0.3003 -0.0601
C6 C 0.6544(3) 0.36370(14) 0.0416(3)
C7 C 0.2510(3) 0.50604(16) 0.4471(3)
C8 C 0.2403(4) 0.50274(19) 0.5990(3)
H5 H 0.1920 0.5436 0.6461
C9 C 0.3018(5) 0.4382(2) 0.6816(4)
H6 H 0.2963 0.4355 0.7850
C10 C 0.3707(4) 0.37867(19) 0.6100(3)
H7 H 0.4107 0.3344 0.6635
C11 C 0.3804(3) 0.38522(15) 0.4546(3)
C12 C 0.1854(4) 0.57424(19) 0.3515(4)
H8 H 0.2774 0.6039 0.3242
H9 H 0.1193 0.6067 0.4078
H10 H 0.1176 0.5558 0.2614
H11 H 0.461(5) 0.328(2) 0.2828(15)
H12 H 0.493(5) 0.2851(14) 0.428(3)
Ag1B Ag 0.64545(3) 0.542692(12) -0.12590(2)
Ag1_2 Ag 1.35455(3) 0.457308(12) 0.12590(2)
O1B O 0.3812(2) 0.56495(10) -0.0452(2)
N3_2 N 0.1176(3) 0.37951(13) 0.0226(3)
loop_
_geom_bond_atom_site_label_1
_geom_bond_atom_site_label_2
_geom_bond_site_symmetry_1
_geom_bond_site_symmetry_2
Ag1 O1 1_555 1_555
O1 C6 1_555 1_555
O2 C6 1_555 1_555
N1 Ag1 1_555 1_555
N2 C11 1_555 1_555
N3 C1 1_555 1_555
C1 H1 1_555 1_555
C2 C1 1_555 1_555
C3 C2 1_555 1_555
H2 C3 1_555 1_555
C4 C3 1_555 1_555
H3 C4 1_555 1_555
C5 N3 1_555 1_555
H4 C5 1_555 1_555
C6 C2 1_555 1_555
C7 N1 1_555 1_555
C8 C7 1_555 1_555
H5 C8 1_555 1_555
C9 C8 1_555 1_555
H6 C9 1_555 1_555
C10 C9 1_555 1_555
H7 C10 1_555 1_555
C11 N1 1_555 1_555
C12 C7 1_555 1_555
H8 C12 1_555 1_555
H9 C12 1_555 1_555
H10 C12 1_555 1_555
H11 N2 1_555 1_555
H12 N2 1_555 1_555
Ag1B O1 1_555 1_555
Ag1_2 N3 1_555 1_555
O1B Ag1 1_555 1_555
N3_2 Ag1 1_555 1_555
C4 C5 1_555 1_555
C10 C11 1_555 1_555
Ag1B O1B 1_555 1_555

#END
