
#######################################################################
#
#                 Cambridge Crystallographic Data Centre
#                                CCDC 
#
#######################################################################
#
# If this CIF has been generated from an entry in the Cambridge 
# Structural Database, then it will include bibliographic, chemical, 
# crystal, experimental, refinement or atomic coordinate data resulting 
# from the CCDC's data processing and validation procedures.
#
#######################################################################

data_EPELIV
_symmetry_cell_setting           triclinic
_symmetry_space_group_name_H-M   'P -1'
_symmetry_Int_Tables_number      2
_space_group_name_Hall           '-P 1'
loop_
_symmetry_equiv_pos_site_id
_symmetry_equiv_pos_as_xyz
1 x,y,z
2 -x,-y,-z
_cell_length_a                   10.0655(7)
_cell_length_b                   11.3297(8)
_cell_length_c                   12.4775(9)
_cell_angle_alpha                94.6540(10)
_cell_angle_beta                 102.7290(10)
_cell_angle_gamma                114.1390(10)
_cell_volume                     1242.92
loop_
_atom_site_label
_atom_site_type_symbol
_atom_site_fract_x
_atom_site_fract_y
_atom_site_fract_z
Ni1 Ni 0.29012(3) 0.13340(2) 0.651077(19)
O1 O 0.22652(15) 0.10346(13) 0.47699(11)
O2 O 0.45146(17) 0.24051(18) 0.45856(13)
O3 O 0.33756(19) -0.04028(16) 0.30556(13)
O4 O 0.2857(2) -0.06885(18) 0.11918(14)
H1 H 0.3110 -0.1316 0.1241
O5 O -0.34943(19) 0.26588(17) -0.06532(15)
O6 O -0.3755(2) 0.44214(19) -0.02004(17)
O7 O -0.24231(19) 0.65355(16) 0.09885(14)
H2 H -0.2939 0.5763 0.0595
O8 O -0.01511(19) 0.78032(16) 0.20718(16)
O9 O 0.52064(15) 0.21093(14) 0.66306(12)
H3 H 0.5096 0.2197 0.5951
H4 H 0.5597 0.1573 0.6711
O10 O 0.34584(17) 0.17214(14) 0.82527(12)
H5 H 0.310(2) 0.2212(19) 0.8506(19)
H6 H 0.4412(4) 0.211(2) 0.8547(19)
O11 O 0.06669(16) 0.06266(15) 0.65005(13)
H7 H -0.0213 0.0077 0.6105
H8 H 0.0415 0.0986 0.6994
N1 N 0.29983(19) 0.32391(16) 0.65043(14)
N2 N 0.28036(19) 0.94367(16) 0.65030(15)
C1 C 0.1862(2) 0.3373(2) 0.58192(18)
H9 H 0.1069 0.2624 0.5344
C2 C 0.1812(2) 0.4571(2) 0.57839(19)
H10 H 0.1009 0.4616 0.5281
C3 C 0.2958(2) 0.5706(2) 0.64976(18)
C4 C 0.4134(2) 0.5566(2) 0.72098(19)
H11 H 0.4928 0.6296 0.7706
C5 C 0.4122(2) 0.4341(2) 0.71808(18)
H12 H 0.4933 0.4276 0.7654
C6 C 0.2893(2) 0.6991(2) 0.65023(18)
C7 C 0.2424(3) 0.7374(2) 0.55150(19)
H13 H 0.2115 0.6809 0.4832
C8 C 0.2417(3) 0.8585(2) 0.55460(19)
H14 H 0.2129 0.8829 0.4871
C9 C 0.3226(3) 0.9054(2) 0.74584(19)
H15 H 0.3473 0.9614 0.8133
C10 C 0.3311(3) 0.7873(2) 0.74903(19)
H16 H 0.3649 0.7668 0.8173
C11 C 0.2401(2) 0.1694(2) 0.30238(17)
C12 C 0.2321(2) 0.0882(2) 0.20788(17)
C13 C 0.1652(3) 0.1016(2) 0.10251(18)
H17 H 0.1612 0.0492 0.0393
C14 C 0.1045(3) 0.1910(2) 0.08942(18)
H18 H 0.0567 0.1956 0.0181
C15 C 0.1148(2) 0.2739(2) 0.18239(17)
C16 C 0.1837(2) 0.2621(2) 0.28811(17)
H19 H 0.1921 0.3178 0.3509
C17 C 0.0558(2) 0.3739(2) 0.16965(17)
C18 C -0.0813(2) 0.3437(2) 0.09221(17)
H20 H -0.1337 0.2601 0.0472
C19 C -0.1446(2) 0.4325(2) 0.07853(16)
C20 C -0.0633(2) 0.5603(2) 0.14593(17)
C21 C 0.0768(3) 0.5908(2) 0.22047(19)
H21 H 0.1330 0.6755 0.2631
C22 C 0.1355(3) 0.5006(2) 0.23358(19)
H22 H 0.2286 0.5245 0.2853
C23 C 0.3140(2) 0.16882(19) 0.42132(17)
C24 C 0.2905(2) -0.0129(2) 0.21852(18)
C25 C -0.2981(2) 0.3767(2) -0.00777(18)
C26 C -0.1084(2) 0.6728(2) 0.15152(18)
Ni1_2 Ni 0.29012(3) 1.13340(2) 0.651077(19)
N2_2 N 0.28036(19) -0.05633(16) 0.65030(15)
loop_
_geom_bond_atom_site_label_1
_geom_bond_atom_site_label_2
_geom_bond_site_symmetry_1
_geom_bond_site_symmetry_2
Ni1 O1 1_555 1_555
O1 C23 1_555 1_555
O2 C23 1_555 1_555
O3 C24 1_555 1_555
O4 H1 1_555 1_555
O5 C25 1_555 1_555
O6 C25 1_555 1_555
O7 H2 1_555 1_555
O8 C26 1_555 1_555
O9 Ni1 1_555 1_555
H3 O9 1_555 1_555
H4 O9 1_555 1_555
O10 Ni1 1_555 1_555
H5 O10 1_555 1_555
H6 O10 1_555 1_555
O11 Ni1 1_555 1_555
H7 O11 1_555 1_555
H8 O11 1_555 1_555
N1 Ni1 1_555 1_555
N2 C8 1_555 1_555
C1 N1 1_555 1_555
H9 C1 1_555 1_555
C2 C1 1_555 1_555
H10 C2 1_555 1_555
C3 C2 1_555 1_555
C4 C3 1_555 1_555
H11 C4 1_555 1_555
C5 N1 1_555 1_555
H12 C5 1_555 1_555
C6 C3 1_555 1_555
C7 C6 1_555 1_555
H13 C7 1_555 1_555
C8 C7 1_555 1_555
H14 C8 1_555 1_555
C9 N2 1_555 1_555
H15 C9 1_555 1_555
C10 C6 1_555 1_555
H16 C10 1_555 1_555
C11 C12 1_555 1_555
C12 C13 1_555 1_555
C13 H17 1_555 1_555
C14 C13 1_555 1_555
H18 C14 1_555 1_555
C15 C14 1_555 1_555
C16 C11 1_555 1_555
H19 C16 1_555 1_555
C17 C15 1_555 1_555
C18 C17 1_555 1_555
H20 C18 1_555 1_555
C19 C18 1_555 1_555
C20 C19 1_555 1_555
C21 C20 1_555 1_555
H21 C21 1_555 1_555
C22 C17 1_555 1_555
H22 C22 1_555 1_555
C23 C11 1_555 1_555
C24 O4 1_555 1_555
C25 C19 1_555 1_555
C26 O7 1_555 1_555
Ni1_2 N2 1_555 1_555
N2_2 Ni1 1_555 1_555
C4 C5 1_555 1_555
C9 C10 1_555 1_555
C12 C24 1_555 1_555
C15 C16 1_555 1_555
C20 C26 1_555 1_555
C21 C22 1_555 1_555

#END
