
#######################################################################
#
#                 Cambridge Crystallographic Data Centre
#                                CCDC 
#
#######################################################################
#
# If this CIF has been generated from an entry in the Cambridge 
# Structural Database, then it will include bibliographic, chemical, 
# crystal, experimental, refinement or atomic coordinate data resulting 
# from the CCDC's data processing and validation procedures.
#
#######################################################################

data_EPELOB
_symmetry_cell_setting           monoclinic
_symmetry_space_group_name_H-M   'P 21/n'
_symmetry_Int_Tables_number      14
_space_group_name_Hall           '-P 2yn'
loop_
_symmetry_equiv_pos_site_id
_symmetry_equiv_pos_as_xyz
1 x,y,z
2 1/2-x,1/2+y,1/2-z
3 -x,-y,-z
4 1/2+x,1/2-y,1/2+z
_cell_length_a                   15.019(4)
_cell_length_b                   10.491(3)
_cell_length_c                   19.638(5)
_cell_angle_alpha                90
_cell_angle_beta                 102.341(5)
_cell_angle_gamma                90
_cell_volume                     3022.75
loop_
_atom_site_label
_atom_site_type_symbol
_atom_site_fract_x
_atom_site_fract_y
_atom_site_fract_z
Mn1 Mn 0.62801(3) 0.30837(4) 0.87048(2)
N1 N 0.53930(19) 0.1372(2) 0.82764(13)
N2 N 0.53603(19) 0.2566(2) 0.94682(13)
N3 N 0.71622(18) 0.2674(2) 0.79357(13)
N4 N 0.74065(18) 0.1694(2) 0.92114(13)
O1 O 0.68886(16) 0.4425(2) 0.94992(10)
O2 O 0.80047(19) 0.4675(2) 0.89762(11)
O3 O 0.94146(19) 0.5767(2) 0.91024(12)
H1 H 0.874(3) 0.531(4) 0.8992(18)
O4 O 1.02500(17) 0.7090(2) 0.98048(11)
O5 O 0.52190(17) 0.6218(2) 1.33893(11)
O6 O 0.61285(17) 0.7838(2) 1.37979(11)
H2 H 0.5847 0.7826 1.4113
O7 O 0.44969(15) 0.55065(19) 1.18636(10)
O8 O 0.54580(16) 0.4005(2) 1.23207(12)
C1 C 0.5451(2) 0.0757(3) 0.76934(17)
H3 H 0.5817 0.1107 0.7415
C2 C 0.5007(3) -0.0353(3) 0.74798(19)
H4 H 0.5067 -0.0744 0.7067
C3 C 0.4475(3) -0.0875(3) 0.7886(2)
H5 H 0.4182 -0.1649 0.7764
C4 C 0.4377(3) -0.0244(3) 0.84796(18)
H6 H 0.4001 -0.0574 0.8756
C5 C 0.4840(2) 0.0882(3) 0.86603(16)
C6 C 0.4772(2) 0.1608(3) 0.92938(16)
C7 C 0.4130(3) 0.1335(3) 0.96824(18)
H7 H 0.3718 0.0672 0.9553
C8 C 0.4109(3) 0.2052(4) 1.02575(19)
H8 H 0.3684 0.1868 1.0525
C9 C 0.4701(3) 0.3030(4) 1.04461(17)
H9 H 0.4690 0.3526 1.0837
C10 C 0.5317(2) 0.3255(3) 1.00328(17)
H10 H 0.5726 0.3925 1.0153
C11 C 0.7003(2) 0.3176(3) 0.73015(16)
H11 H 0.6497 0.3700 0.7162
C12 C 0.7564(3) 0.2947(3) 0.68409(18)
H12 H 0.7437 0.3305 0.6397
C13 C 0.8305(3) 0.2189(3) 0.70486(19)
H13 H 0.8691 0.2024 0.6747
C14 C 0.8482(2) 0.1672(3) 0.76995(18)
H14 H 0.8992 0.1159 0.7848
C15 C 0.7890(2) 0.1921(3) 0.81392(16)
C16 C 0.8021(2) 0.1354(3) 0.88435(16)
C17 C 0.8708(2) 0.0498(3) 0.90987(17)
H15 H 0.9128 0.0276 0.8833
C18 C 0.8766(2) -0.0024(3) 0.97492(19)
H16 H 0.9220 -0.0613 0.9925
C19 C 0.8151(3) 0.0333(3) 1.01337(18)
H17 H 0.8178 0.0000 1.0577
C20 C 0.7490(2) 0.1199(3) 0.98465(17)
H18 H 0.7077 0.1455 1.0111
C21 C 0.7632(2) 0.4911(3) 0.94750(16)
C22 C 0.9581(2) 0.6433(3) 0.96575(16)
C23 C 0.5806(2) 0.6957(4) 1.33399(16)
C24 C 0.5275(2) 0.5110(3) 1.21469(15)
C25 C 0.6055(2) 0.6046(3) 1.22165(14)
C26 C 0.6288(2) 0.6940(3) 1.27456(14)
C27 C 0.6979(2) 0.7792(3) 1.27263(15)
H19 H 0.7119 0.8409 1.3073
C28 C 0.7468(2) 0.7754(3) 1.22066(15)
H20 H 0.7924 0.8353 1.2202
C29 C 0.7283(2) 0.6828(3) 1.16915(14)
C30 C 0.6571(2) 0.5990(3) 1.17069(14)
H21 H 0.6433 0.5368 1.1363
C31 C 0.7851(2) 0.6717(3) 1.11560(14)
C32 C 0.8679(2) 0.7327(3) 1.12268(15)
H22 H 0.8893 0.7842 1.1612
C33 C 0.9189(2) 0.7174(3) 1.07284(14)
H23 H 0.9747 0.7592 1.0790
C34 C 0.8913(2) 0.6431(3) 1.01407(14)
C35 C 0.8077(2) 0.5795(3) 1.00580(14)
C36 C 0.7575(2) 0.5957(3) 1.05720(14)
H24 H 0.7022 0.5530 1.0520
Mn1B Mn 0.37199(3) 0.69163(4) 1.12952(2)
O7B O 0.55031(15) 0.44935(19) 0.81364(10)
loop_
_geom_bond_atom_site_label_1
_geom_bond_atom_site_label_2
_geom_bond_site_symmetry_1
_geom_bond_site_symmetry_2
Mn1 N1 1_555 1_555
N1 C1 1_555 1_555
N2 Mn1 1_555 1_555
N3 Mn1 1_555 1_555
N4 Mn1 1_555 1_555
O1 Mn1 1_555 1_555
O2 C21 1_555 1_555
O3 H1 1_555 1_555
O4 C22 1_555 1_555
O5 C23 1_555 1_555
O6 H2 1_555 1_555
O7 C24 1_555 1_555
O8 C24 1_555 1_555
C1 H3 1_555 1_555
C2 C1 1_555 1_555
H4 C2 1_555 1_555
C3 C2 1_555 1_555
H5 C3 1_555 1_555
C4 C3 1_555 1_555
H6 C4 1_555 1_555
C5 N1 1_555 1_555
C6 N2 1_555 1_555
C7 C6 1_555 1_555
H7 C7 1_555 1_555
C8 C7 1_555 1_555
H8 C8 1_555 1_555
C9 C8 1_555 1_555
H9 C9 1_555 1_555
C10 N2 1_555 1_555
H10 C10 1_555 1_555
C11 N3 1_555 1_555
H11 C11 1_555 1_555
C12 C11 1_555 1_555
H12 C12 1_555 1_555
C13 C12 1_555 1_555
H13 C13 1_555 1_555
C14 C13 1_555 1_555
H14 C14 1_555 1_555
C15 N3 1_555 1_555
C16 N4 1_555 1_555
C17 C16 1_555 1_555
H15 C17 1_555 1_555
C18 C17 1_555 1_555
H16 C18 1_555 1_555
C19 C18 1_555 1_555
H17 C19 1_555 1_555
C20 N4 1_555 1_555
H18 C20 1_555 1_555
C21 O1 1_555 1_555
C22 O3 1_555 1_555
C23 O6 1_555 1_555
C24 C25 1_555 1_555
C25 C26 1_555 1_555
C26 C23 1_555 1_555
C27 C26 1_555 1_555
H19 C27 1_555 1_555
C28 C27 1_555 1_555
H20 C28 1_555 1_555
C29 C28 1_555 1_555
C30 C25 1_555 1_555
H21 C30 1_555 1_555
C31 C29 1_555 1_555
C32 C31 1_555 1_555
H22 C32 1_555 1_555
C33 C32 1_555 1_555
H23 C33 1_555 1_555
C34 C22 1_555 1_555
C35 C21 1_555 1_555
C36 C31 1_555 1_555
H24 C36 1_555 1_555
Mn1B O7 1_555 1_555
O7B Mn1 1_555 1_555
C4 C5 1_555 1_555
C5 C6 1_555 1_555
C9 C10 1_555 1_555
C14 C15 1_555 1_555
C15 C16 1_555 1_555
C19 C20 1_555 1_555
C29 C30 1_555 1_555
C33 C34 1_555 1_555
C34 C35 1_555 1_555
C35 C36 1_555 1_555

#END
