
#######################################################################
#
#                 Cambridge Crystallographic Data Centre
#                                CCDC 
#
#######################################################################
#
# If this CIF has been generated from an entry in the Cambridge 
# Structural Database, then it will include bibliographic, chemical, 
# crystal, experimental, refinement or atomic coordinate data resulting 
# from the CCDC's data processing and validation procedures.
#
#######################################################################

data_EPELER
_symmetry_cell_setting           monoclinic
_symmetry_space_group_name_H-M   'P 21/c'
_symmetry_Int_Tables_number      14
_space_group_name_Hall           '-P 2ybc'
loop_
_symmetry_equiv_pos_site_id
_symmetry_equiv_pos_as_xyz
1 x,y,z
2 -x,1/2+y,1/2-z
3 -x,-y,-z
4 x,1/2-y,1/2+z
_cell_length_a                   7.462(2)
_cell_length_b                   21.421(6)
_cell_length_c                   9.2465(18)
_cell_angle_alpha                90
_cell_angle_beta                 122.601(14)
_cell_angle_gamma                90
_cell_volume                     1245.12
loop_
_atom_site_label
_atom_site_type_symbol
_atom_site_fract_x
_atom_site_fract_y
_atom_site_fract_z
Ni1 Ni 0.92056(19) 0.19789(5) 0.93961(14)
O1 O 1.2089(9) 0.1551(3) 1.0784(7)
O2 O 1.5178(12) 0.1481(5) 1.1106(11)
O3 O 1.0007(11) 0.2223(3) 0.7648(8)
O4 O 1.0536(13) 0.2190(3) 0.5528(9)
O5 O 0.8814(10) 0.1654(3) 1.1296(7)
H1 H 0.7499 0.1428 1.0785
H2 H 0.8780 0.2001 1.1938
O6 O 0.6314(11) 0.2509(3) 0.8250(10)
H3 H 0.5678 0.2454 0.8908
H4 H 0.6630 0.2943 0.8239
N1 N 0.7421(11) 0.1254(3) 0.7849(9)
C1 C 0.5975(18) 0.1356(5) 0.6214(13)
H5 H 0.5624 0.1765 0.5825
C2 C 0.4966(18) 0.0873(5) 0.5062(12)
H6 H 0.3938 0.0959 0.3919
C3 C 0.5492(13) 0.0262(4) 0.5613(11)
C4 C 0.6948(17) 0.0176(5) 0.7317(12)
H7 H 0.7327 -0.0227 0.7754
C5 C 0.7854(17) 0.0672(4) 0.8387(12)
H8 H 0.8822 0.0597 0.9549
C6 C 1.2303(13) 0.1016(4) 0.8653(11)
C7 C 1.1028(14) 0.1250(4) 0.6996(10)
C8 C 1.0167(14) 0.0855(4) 0.5585(10)
H9 H 0.9337 0.1025 0.4490
C9 C 1.0506(13) 0.0212(4) 0.5756(10)
C10 C 1.1774(14) -0.0012(4) 0.7399(11)
H10 H 1.2051 -0.0438 0.7566
C11 C 1.2640(15) 0.0372(4) 0.8793(12)
H11 H 1.3489 0.0199 0.9881
C12 C 1.3233(14) 0.1391(4) 1.0277(11)
C13 C 1.0479(15) 0.1941(4) 0.6703(11)
Ni1B Ni 1.07944(19) -0.19789(5) 0.06039(14)
Ni1C Ni 0.92056(19) 0.30211(5) 0.43961(14)
Ni1A Ni 1.07944(19) -0.30211(5) 0.56039(14)
Ni1B_2 Ni 0.07944(19) -0.19789(5) 0.06039(14)
O1B O 0.7911(9) -0.1551(3) -0.0784(7)
O2B O 0.4822(12) -0.1481(5) -0.1106(11)
O3B O 0.9993(11) -0.2223(3) 0.2352(8)
O4B O 0.9464(13) -0.2190(3) 0.4472(9)
O4C O 1.0536(13) 0.2810(3) 1.0528(9)
O4A O 0.9464(13) -0.2810(3) -0.0528(9)
O5B O 1.1186(10) -0.1654(3) -0.1296(7)
H1B H 1.2501 -0.1428 -0.0785
H2B H 1.1220 -0.2001 -0.1938
O6B O 1.3686(11) -0.2509(3) 0.1750(10)
H3B H 1.4322 -0.2454 0.1092
H4B H 1.3370 -0.2943 0.1761
N1B N 0.2579(11) -0.1254(3) 0.2151(9)
N1B_2 N 1.2579(11) -0.1254(3) 0.2151(9)
C1B C 0.4025(18) -0.1356(5) 0.3786(13)
H5B H 0.4376 -0.1765 0.4175
C2B C 0.5034(18) -0.0873(5) 0.4938(12)
H6B H 0.6062 -0.0959 0.6081
C3B C 0.4508(13) -0.0262(4) 0.4387(11)
C4B C 0.3052(17) -0.0176(5) 0.2683(12)
H7B H 0.2673 0.0227 0.2246
C5B C 0.2146(17) -0.0672(4) 0.1613(12)
H8B H 0.1178 -0.0597 0.0451
C6B C 0.7697(13) -0.1016(4) 0.1347(11)
C7B C 0.8972(14) -0.1250(4) 0.3004(10)
C8B C 0.9833(14) -0.0855(4) 0.4415(10)
H9B H 1.0663 -0.1025 0.5510
C9B C 0.9494(13) -0.0212(4) 0.4244(10)
C10B C 0.8226(14) 0.0012(4) 0.2601(11)
H10B H 0.7949 0.0438 0.2434
C11B C 0.7360(15) -0.0372(4) 0.1207(12)
H11B H 0.6511 -0.0199 0.0119
C12B C 0.6767(14) -0.1391(4) -0.0277(11)
C13B C 0.9521(15) -0.1941(4) 0.3297(11)
loop_
_geom_bond_atom_site_label_1
_geom_bond_atom_site_label_2
_geom_bond_site_symmetry_1
_geom_bond_site_symmetry_2
Ni1 O1 1_555 1_555
O1 C12 1_555 1_555
O2 C12 1_555 1_555
O3 Ni1 1_555 1_555
O4 C13 1_555 1_555
O5 Ni1 1_555 1_555
H1 O5 1_555 1_555
H2 O5 1_555 1_555
O6 Ni1 1_555 1_555
H3 O6 1_555 1_555
H4 O6 1_555 1_555
N1 Ni1 1_555 1_555
C1 N1 1_555 1_555
H5 C1 1_555 1_555
C2 C1 1_555 1_555
H6 C2 1_555 1_555
C3 C2 1_555 1_555
C4 C3 1_555 1_555
H7 C4 1_555 1_555
C5 N1 1_555 1_555
H8 C5 1_555 1_555
C6 C7 1_555 1_555
C7 C8 1_555 1_555
C8 H9 1_555 1_555
C9 C8 1_555 1_555
C10 C9 1_555 1_555
H10 C10 1_555 1_555
C11 C6 1_555 1_555
H11 C11 1_555 1_555
C12 C6 1_555 1_555
C13 O3 1_555 1_555
Ni1B O1B 1_555 1_555
Ni1C O4 1_555 1_555
Ni1A O4B 1_555 1_555
Ni1B_2 N1B 1_555 1_555
O1B C12B 1_555 1_555
O2B C12B 1_555 1_555
O3B Ni1B 1_555 1_555
O4B C13B 1_555 1_555
O4C Ni1 1_555 1_555
O4A Ni1B 1_555 1_555
O5B Ni1B 1_555 1_555
H1B O5B 1_555 1_555
H2B O5B 1_555 1_555
O6B Ni1B 1_555 1_555
H3B O6B 1_555 1_555
H4B O6B 1_555 1_555
N1B C1B 1_555 1_555
N1B_2 Ni1B 1_555 1_555
C1B H5B 1_555 1_555
C2B C1B 1_555 1_555
H6B C2B 1_555 1_555
C3B C3 1_555 1_555
C4B C3B 1_555 1_555
H7B C4B 1_555 1_555
C5B N1B 1_555 1_555
H8B C5B 1_555 1_555
C6B C7B 1_555 1_555
C7B C8B 1_555 1_555
C8B H9B 1_555 1_555
C9B C9 1_555 1_555
C10B C9B 1_555 1_555
H10B C10B 1_555 1_555
C11B C6B 1_555 1_555
H11B C11B 1_555 1_555
C12B C6B 1_555 1_555
C13B O3B 1_555 1_555
C4 C5 1_555 1_555
C7 C13 1_555 1_555
C10 C11 1_555 1_555
C2B C3B 1_555 1_555
C4B C5B 1_555 1_555
C7B C13B 1_555 1_555
C8B C9B 1_555 1_555
C10B C11B 1_555 1_555

#END
