
#######################################################################
#
#                 Cambridge Crystallographic Data Centre
#                                CCDC 
#
#######################################################################
#
# If this CIF has been generated from an entry in the Cambridge 
# Structural Database, then it will include bibliographic, chemical, 
# crystal, experimental, refinement or atomic coordinate data resulting 
# from the CCDC's data processing and validation procedures.
#
#######################################################################

data_EPELUH
_symmetry_cell_setting           monoclinic
_symmetry_space_group_name_H-M   'P 21/c'
_symmetry_Int_Tables_number      14
_space_group_name_Hall           '-P 2ybc'
loop_
_symmetry_equiv_pos_site_id
_symmetry_equiv_pos_as_xyz
1 x,y,z
2 -x,1/2+y,1/2-z
3 -x,-y,-z
4 x,1/2-y,1/2+z
_cell_length_a                   19.331(3)
_cell_length_b                   9.6655(16)
_cell_length_c                   19.137(3)
_cell_angle_alpha                90
_cell_angle_beta                 90.830(3)
_cell_angle_gamma                90
_cell_volume                     3575.25
loop_
_atom_site_label
_atom_site_type_symbol
_atom_site_fract_x
_atom_site_fract_y
_atom_site_fract_z
Mn1 Mn 0.25406(3) 0.62096(6) 0.28003(3)
O1 O 0.16698(13) 0.4916(3) 0.27603(13)
O2 O 0.08281(14) 0.3389(3) 0.28804(14)
O3 O 0.04861(16) 0.6124(3) 0.36648(17)
H1 H 0.0296 0.7029 0.3525
O4 O 0.03928(17) 0.6444(3) 0.48104(18)
O5 O 0.28313(15) -0.0238(3) 0.68302(14)
O6 O 0.39606(16) -0.0264(4) 0.67965(16)
O7 O 0.46697(18) -0.1370(4) 0.5912(2)
H2 H 0.4453 -0.0925 0.6201
O8 O 0.45900(19) -0.1816(4) 0.4795(2)
N1 N 0.19194(16) 0.7956(3) 0.23327(17)
N2 N 0.32853(17) 0.8041(3) 0.26418(16)
N3 N 0.23182(17) 0.7162(3) 0.38782(17)
N4 N 0.33105(17) 0.5309(3) 0.35707(17)
C1 C 0.1263(2) 0.7917(5) 0.2166(2)
H3 H 0.1039 0.7066 0.2174
C2 C 0.0878(3) 0.9089(6) 0.1976(3)
H4 H 0.0415 0.9010 0.1846
C3 C 0.1191(3) 1.0326(6) 0.1985(3)
H5 H 0.0940 1.1121 0.1877
C4 C 0.1883(3) 1.0421(5) 0.2156(2)
C5 C 0.2232(2) 0.9200(4) 0.23183(19)
C6 C 0.2965(2) 0.9242(4) 0.24778(19)
C7 C 0.3324(3) 1.0514(5) 0.2442(2)
C8 C 0.2927(3) 1.1746(5) 0.2281(2)
H6 H 0.3154 1.2593 0.2265
C9 C 0.2256(3) 1.1709(5) 0.2155(2)
H7 H 0.2019 1.2528 0.2064
C10 C 0.4036(3) 1.0472(6) 0.2572(2)
H8 H 0.4292 1.1285 0.2558
C11 C 0.4354(3) 0.9267(6) 0.2718(3)
H9 H 0.4831 0.9236 0.2790
C12 C 0.3964(2) 0.8080(5) 0.2760(2)
H10 H 0.4188 0.7259 0.2877
C13 C 0.1852(2) 0.8082(5) 0.4038(3)
H11 H 0.1583 0.8450 0.3676
C14 C 0.1730(3) 0.8555(6) 0.4721(3)
H12 H 0.1395 0.9220 0.4809
C15 C 0.2120(3) 0.8001(6) 0.5246(3)
H13 H 0.2046 0.8275 0.5705
C16 C 0.2616(3) 0.7055(5) 0.5109(2)
C17 C 0.2705(2) 0.6649(5) 0.4408(2)
C18 C 0.3229(2) 0.5666(5) 0.4244(2)
C19 C 0.3658(3) 0.5146(6) 0.4784(3)
C20 C 0.3546(3) 0.5574(7) 0.5486(3)
H14 H 0.3823 0.5215 0.5843
C21 C 0.3059(3) 0.6461(7) 0.5637(3)
H15 H 0.2999 0.6716 0.6100
C22 C 0.4182(3) 0.4222(7) 0.4584(3)
H16 H 0.4471 0.3837 0.4924
C23 C 0.4270(3) 0.3886(6) 0.3905(3)
H17 H 0.4623 0.3293 0.3769
C24 C 0.3818(2) 0.4457(5) 0.3423(3)
H18 H 0.3876 0.4222 0.2956
C25 C 0.14694(18) 0.3985(4) 0.38872(19)
C26 C 0.11624(19) 0.4748(4) 0.44198(19)
C27 C 0.1371(2) 0.4478(5) 0.5102(2)
H19 H 0.1169 0.4967 0.5464
C28 C 0.1868(2) 0.3511(4) 0.5256(2)
H20 H 0.2001 0.3373 0.5720
C29 C 0.21781(19) 0.2727(4) 0.47359(19)
C30 C 0.19598(19) 0.2989(4) 0.4056(2)
H21 H 0.2151 0.2473 0.3697
C31 C 0.27186(19) 0.1689(4) 0.48984(19)
C32 C 0.28166(19) 0.1175(4) 0.55697(19)
H22 H 0.2513 0.1453 0.5915
C33 C 0.33428(19) 0.0272(4) 0.57498(19)
C34 C 0.3784(2) -0.0189(4) 0.5225(2)
C35 C 0.3667(2) 0.0262(5) 0.4558(2)
H23 H 0.3945 -0.0070 0.4202
C36 C 0.3149(2) 0.1194(5) 0.4394(2)
H24 H 0.3091 0.1490 0.3935
C37 C 0.1299(2) 0.4136(4) 0.3119(2)
C38 C 0.0636(2) 0.5833(4) 0.4295(2)
C39 C 0.3384(2) -0.0126(4) 0.6514(2)
C40 C 0.4380(2) -0.1217(5) 0.5297(3)
Mn1C Mn 0.25406(3) -0.12096(6) 0.78003(3)
O5C O 0.28313(15) 0.5238(3) 0.18302(14)
O9 O 0.9846(2) 0.8496(5) 0.3363(2)
H25 H 0.9485 0.8768 0.3146
H26 H 1.0120 0.9182 0.3397
O10 O 0.9627(2) 0.8773(5) 0.4913(2)
H27 H 0.9439 0.8757 0.5312
H28 H 0.9307 0.8705 0.4606
O11 O 0.9512(4) 0.9032(6) 0.6342(3)
H29 H 0.9571 0.8329 0.6604
H30 H 0.9084 0.9237 0.6346
O12 O 0.5408(3) 0.7277(6) 0.3696(3)
H31 H 0.5367 0.7874 0.4019
H32 H 0.5020 0.6874 0.3644
O13 O 0.8773(6) 0.9628(12) 0.3764(5)
H33 H 0.8851 1.0453 0.3897
H34 H 0.8435 0.9648 0.3476
loop_
_geom_bond_atom_site_label_1
_geom_bond_atom_site_label_2
_geom_bond_site_symmetry_1
_geom_bond_site_symmetry_2
Mn1 O1 1_555 1_555
O1 C37 1_555 1_555
O2 C37 1_555 1_555
O3 H1 1_555 1_555
O4 C38 1_555 1_555
O5 C39 1_555 1_555
O6 C39 1_555 1_555
O7 H2 1_555 1_555
O8 C40 1_555 1_555
N1 Mn1 1_555 1_555
N2 Mn1 1_555 1_555
N3 Mn1 1_555 1_555
N4 Mn1 1_555 1_555
C1 N1 1_555 1_555
H3 C1 1_555 1_555
C2 C1 1_555 1_555
H4 C2 1_555 1_555
C3 C2 1_555 1_555
H5 C3 1_555 1_555
C4 C3 1_555 1_555
C5 N1 1_555 1_555
C6 N2 1_555 1_555
C7 C6 1_555 1_555
C8 C7 1_555 1_555
H6 C8 1_555 1_555
C9 C4 1_555 1_555
H7 C9 1_555 1_555
C10 C7 1_555 1_555
H8 C10 1_555 1_555
C11 C10 1_555 1_555
H9 C11 1_555 1_555
C12 N2 1_555 1_555
H10 C12 1_555 1_555
C13 N3 1_555 1_555
H11 C13 1_555 1_555
C14 C13 1_555 1_555
H12 C14 1_555 1_555
C15 C14 1_555 1_555
H13 C15 1_555 1_555
C16 C15 1_555 1_555
C17 N3 1_555 1_555
C18 N4 1_555 1_555
C19 C18 1_555 1_555
C20 C19 1_555 1_555
H14 C20 1_555 1_555
C21 C16 1_555 1_555
H15 C21 1_555 1_555
C22 C19 1_555 1_555
H16 C22 1_555 1_555
C23 C22 1_555 1_555
H17 C23 1_555 1_555
C24 N4 1_555 1_555
H18 C24 1_555 1_555
C25 C26 1_555 1_555
C26 C27 1_555 1_555
C27 H19 1_555 1_555
C28 C27 1_555 1_555
H20 C28 1_555 1_555
C29 C28 1_555 1_555
C30 C25 1_555 1_555
H21 C30 1_555 1_555
C31 C29 1_555 1_555
C32 C31 1_555 1_555
H22 C32 1_555 1_555
C33 C32 1_555 1_555
C34 C33 1_555 1_555
C35 C34 1_555 1_555
H23 C35 1_555 1_555
C36 C31 1_555 1_555
H24 C36 1_555 1_555
C37 C25 1_555 1_555
C38 O3 1_555 1_555
C39 C33 1_555 1_555
C40 O7 1_555 1_555
O9 H25 1_555 1_555
H26 O9 1_555 1_555
O10 H27 1_555 1_555
H28 O10 1_555 1_555
O11 H29 1_555 1_555
H30 O11 1_555 1_555
O12 H31 1_555 1_555
H32 O12 1_555 1_555
O13 H33 1_555 1_555
H34 O13 1_555 1_555
Mn1C O5 1_555 1_555
O5C Mn1 1_555 1_555
C4 C5 1_555 1_555
C5 C6 1_555 1_555
C8 C9 1_555 1_555
C11 C12 1_555 1_555
C16 C17 1_555 1_555
C17 C18 1_555 1_555
C20 C21 1_555 1_555
C23 C24 1_555 1_555
C26 C38 1_555 1_555
C29 C30 1_555 1_555
C34 C40 1_555 1_555
C35 C36 1_555 1_555

#END
