
#######################################################################
#
#                 Cambridge Crystallographic Data Centre
#                                CCDC 
#
#######################################################################
#
# If this CIF has been generated from an entry in the Cambridge 
# Structural Database, then it will include bibliographic, chemical, 
# crystal, experimental, refinement or atomic coordinate data resulting 
# from the CCDC's data processing and validation procedures.
#
#######################################################################

data_EPEQUM
_symmetry_cell_setting           monoclinic
_symmetry_space_group_name_H-M   'P 21/c'
_symmetry_Int_Tables_number      14
_space_group_name_Hall           '-P 2ybc'
loop_
_symmetry_equiv_pos_site_id
_symmetry_equiv_pos_as_xyz
1 x,y,z
2 -x,1/2+y,1/2-z
3 -x,-y,-z
4 x,1/2-y,1/2+z
_cell_length_a                   10.676(10)
_cell_length_b                   24.66(2)
_cell_length_c                   18.522(18)
_cell_angle_alpha                90
_cell_angle_beta                 98.094(11)
_cell_angle_gamma                90
_cell_volume                     4827.71
loop_
_atom_site_label
_atom_site_type_symbol
_atom_site_fract_x
_atom_site_fract_y
_atom_site_fract_z
C1 C 0.4003(10) 0.2655(4) 0.3914(6)
H1 H 0.3881 0.2331 0.4194
H2 H 0.3181 0.2767 0.3669
C2 C 0.4534(10) 0.3097(5) 0.4429(6)
H3 H 0.4645 0.3424 0.4154
H4 H 0.3941 0.3176 0.4766
C3 C 0.5998(12) 0.2894(4) 0.5584(7)
C4 C 0.7352(12) 0.2733(6) 0.5873(5)
C5 C 0.8234(15) 0.3114(5) 0.6044(5)
C6 C 0.9491(14) 0.2968(6) 0.6291(6)
C7 C 0.9813(13) 0.2440(7) 0.6375(5)
C8 C 0.8905(16) 0.2047(5) 0.6203(6)
C9 C 0.7702(13) 0.2203(6) 0.5950(6)
C10 C 0.4729(9) 0.2933(4) 0.2779(6)
H5 H 0.4540 0.3282 0.2979
H6 H 0.4038 0.2839 0.2401
C11 C 0.5952(10) 0.2975(4) 0.2444(6)
H7 H 0.6157 0.2622 0.2263
H8 H 0.5824 0.3223 0.2034
C12 C 0.7204(11) 0.3696(6) 0.3113(6)
C13 C 0.8354(12) 0.3827(4) 0.3654(7)
C14 C 0.8267(13) 0.4134(4) 0.4297(7)
C15 C 0.9372(16) 0.4274(4) 0.4747(6)
C16 C 1.0539(13) 0.4109(5) 0.4624(8)
C17 C 1.0623(14) 0.3799(5) 0.3995(8)
C18 C 0.9533(15) 0.3666(4) 0.3544(7)
C19 C 0.4553(9) 0.1983(4) 0.3057(6)
H9 H 0.4904 0.1954 0.2603
H10 H 0.3642 0.1942 0.2944
C20 C 0.5062(9) 0.1527(4) 0.3551(6)
H11 H 0.4774 0.1570 0.4021
H12 H 0.4735 0.1185 0.3344
C21 C 0.7093(11) 0.1058(6) 0.3530(5)
C22 C 0.8522(11) 0.1132(5) 0.3630(6)
C23 C 0.9137(14) 0.1505(5) 0.3227(6)
C24 C 1.0417(14) 0.1583(5) 0.3342(6)
C25 C 1.1158(12) 0.1275(5) 0.3849(7)
C26 C 1.0612(12) 0.0890(5) 0.4259(6)
C27 C 0.9312(13) 0.0834(4) 0.4129(6)
C28 C 0.8304(10) 0.5219(5) 0.2463(7)
H13 H 0.9116 0.5331 0.2335
H14 H 0.8432 0.4896 0.2762
C29 C 0.7768(11) 0.5664(5) 0.2884(7)
H15 H 0.8406 0.5792 0.3272
H16 H 0.7506 0.5967 0.2564
C30 C 0.6113(12) 0.5852(5) 0.3591(6)
H17 H 0.5699 0.6127 0.3266
H18 H 0.6737 0.6028 0.3946
C31 C 0.5151(13) 0.5555(5) 0.3972(6)
H19 H 0.5562 0.5264 0.4269
H20 H 0.4780 0.5803 0.4289
C32 C 0.3213(13) 0.5061(5) 0.3739(7)
H21 H 0.2895 0.5286 0.4103
H22 H 0.3539 0.4727 0.3970
C33 C 0.2174(12) 0.4939(5) 0.3132(7)
H23 H 0.1433 0.4810 0.3329
H24 H 0.1944 0.5265 0.2851
C34 C 0.1703(10) 0.4412(5) 0.2046(7)
H25 H 0.1508 0.4739 0.1763
H26 H 0.0926 0.4280 0.2201
C35 C 0.2223(12) 0.3990(5) 0.1584(7)
H27 H 0.2489 0.3674 0.1877
H28 H 0.1575 0.3879 0.1192
C36 C 0.3823(12) 0.3839(5) 0.0827(7)
H29 H 0.3174 0.3701 0.0452
H30 H 0.4195 0.3534 0.1112
C37 C 0.4817(12) 0.4130(5) 0.0485(6)
H31 H 0.5165 0.3891 0.0147
H32 H 0.4452 0.4443 0.0217
C38 C 0.6899(12) 0.4525(5) 0.0793(6)
H33 H 0.6666 0.4851 0.0514
H34 H 0.7235 0.4266 0.0475
C39 C 0.7874(10) 0.4653(5) 0.1422(6)
H35 H 0.8014 0.4340 0.1740
H36 H 0.8666 0.4743 0.1251
N1 N 0.4828(7) 0.2521(3) 0.3359(4)
N2 N 0.5769(8) 0.2935(3) 0.4846(5)
H37 H 0.6380 0.2862 0.4604
N3 N 0.7011(8) 0.3166(4) 0.2966(4)
H38 H 0.7528 0.2932 0.3186
N4 N 0.6465(8) 0.1513(4) 0.3652(4)
H39 H 0.6883 0.1801 0.3792
O1 O 0.5193(8) 0.2989(3) 0.5983(4)
O2 O 0.6515(7) 0.4056(3) 0.2847(4)
O3 O 0.6632(7) 0.0614(3) 0.3359(4)
O4 O 0.6712(7) 0.5454(3) 0.3183(4)
O5 O 0.4187(7) 0.5338(3) 0.3440(4)
O6 O 0.2607(7) 0.4530(3) 0.2671(4)
O7 O 0.3279(7) 0.4214(3) 0.1288(4)
O8 O 0.5802(8) 0.4300(3) 0.1056(4)
O9 O 0.7458(7) 0.5104(3) 0.1818(4)
F1 F 0.7962(6) 0.3650(3) 0.5969(3)
F2 F 1.0390(7) 0.3361(3) 0.6437(4)
F3 F 1.1030(7) 0.2296(3) 0.6624(4)
F4 F 0.9231(6) 0.1515(3) 0.6274(3)
F5 F 0.6812(6) 0.1807(2) 0.5760(3)
F6 F 0.7131(6) 0.4287(2) 0.4435(3)
F7 F 0.9227(6) 0.4580(3) 0.5357(4)
F8 F 1.1571(7) 0.4269(2) 0.5084(3)
F9 F 1.1810(7) 0.3654(2) 0.3887(3)
F10 F 0.9743(5) 0.3366(2) 0.2946(4)
F11 F 0.8425(6) 0.1820(2) 0.2724(3)
F12 F 1.0976(6) 0.1961(3) 0.2962(3)
F13 F 1.2433(6) 0.1341(2) 0.3970(3)
F14 F 1.1357(6) 0.0595(2) 0.4772(3)
F15 F 0.8804(5) 0.0457(2) 0.4552(3)
K1 K 0.4978(2) 0.48328(9) 0.22313(12)
O3A O 0.3368(7) 0.5614(3) 0.1641(4)
K1A K 0.5022(2) -0.01672(9) 0.27687(12)
O10 O 0.8684(11) 0.7171(7) 0.0051(7)
Cl1 Cl 0.8459(2) 0.24812(10) 0.42956(13)
loop_
_geom_bond_atom_site_label_1
_geom_bond_atom_site_label_2
_geom_bond_site_symmetry_1
_geom_bond_site_symmetry_2
C1 H1 1_555 1_555
H2 C1 1_555 1_555
C2 C1 1_555 1_555
H3 C2 1_555 1_555
H4 C2 1_555 1_555
C3 C4 1_555 1_555
C4 C5 1_555 1_555
C5 C6 1_555 1_555
C6 C7 1_555 1_555
C7 C8 1_555 1_555
C8 C9 1_555 1_555
C9 C4 1_555 1_555
C10 H5 1_555 1_555
H6 C10 1_555 1_555
C11 C10 1_555 1_555
H7 C11 1_555 1_555
H8 C11 1_555 1_555
C12 C13 1_555 1_555
C13 C14 1_555 1_555
C14 C15 1_555 1_555
C15 C16 1_555 1_555
C16 C17 1_555 1_555
C17 C18 1_555 1_555
C18 C13 1_555 1_555
C19 H9 1_555 1_555
H10 C19 1_555 1_555
C20 C19 1_555 1_555
H11 C20 1_555 1_555
H12 C20 1_555 1_555
C21 C22 1_555 1_555
C22 C23 1_555 1_555
C23 C24 1_555 1_555
C24 C25 1_555 1_555
C25 C26 1_555 1_555
C26 C27 1_555 1_555
C27 C22 1_555 1_555
C28 H13 1_555 1_555
H14 C28 1_555 1_555
C29 C28 1_555 1_555
H15 C29 1_555 1_555
H16 C29 1_555 1_555
C30 H17 1_555 1_555
H18 C30 1_555 1_555
C31 C30 1_555 1_555
H19 C31 1_555 1_555
H20 C31 1_555 1_555
C32 H21 1_555 1_555
H22 C32 1_555 1_555
C33 C32 1_555 1_555
H23 C33 1_555 1_555
H24 C33 1_555 1_555
C34 H25 1_555 1_555
H26 C34 1_555 1_555
C35 C34 1_555 1_555
H27 C35 1_555 1_555
H28 C35 1_555 1_555
C36 H29 1_555 1_555
H30 C36 1_555 1_555
C37 C36 1_555 1_555
H31 C37 1_555 1_555
H32 C37 1_555 1_555
C38 H33 1_555 1_555
H34 C38 1_555 1_555
C39 C38 1_555 1_555
H35 C39 1_555 1_555
H36 C39 1_555 1_555
N1 C1 1_555 1_555
N2 C2 1_555 1_555
H37 N2 1_555 1_555
N3 C11 1_555 1_555
H38 N3 1_555 1_555
N4 C20 1_555 1_555
H39 N4 1_555 1_555
O1 C3 1_555 1_555
O2 C12 1_555 1_555
O3 C21 1_555 1_555
O4 C29 1_555 1_555
O5 C31 1_555 1_555
O6 C33 1_555 1_555
O7 C35 1_555 1_555
O8 C37 1_555 1_555
O9 C28 1_555 1_555
F1 C5 1_555 1_555
F2 C6 1_555 1_555
F3 C7 1_555 1_555
F4 C8 1_555 1_555
F5 C9 1_555 1_555
F6 C14 1_555 1_555
F7 C15 1_555 1_555
F8 C16 1_555 1_555
F9 C17 1_555 1_555
F10 C18 1_555 1_555
F11 C23 1_555 1_555
F12 C24 1_555 1_555
F13 C25 1_555 1_555
F14 C26 1_555 1_555
F15 C27 1_555 1_555
K1 O2 1_555 1_555
O3A K1 1_555 1_555
K1A O3 1_555 1_555
C3 N2 1_555 1_555
C10 N1 1_555 1_555
C12 N3 1_555 1_555
C19 N1 1_555 1_555
C21 N4 1_555 1_555
C30 O4 1_555 1_555
C32 O5 1_555 1_555
C34 O6 1_555 1_555
C36 O7 1_555 1_555
C38 O8 1_555 1_555
C39 O9 1_555 1_555
O4 K1 1_555 1_555
O5 K1 1_555 1_555
O6 K1 1_555 1_555
O7 K1 1_555 1_555
O8 K1 1_555 1_555
O9 K1 1_555 1_555

#END
