
#######################################################################
#
#                 Cambridge Crystallographic Data Centre
#                                CCDC 
#
#######################################################################
#
# If this CIF has been generated from an entry in the Cambridge 
# Structural Database, then it will include bibliographic, chemical, 
# crystal, experimental, refinement or atomic coordinate data resulting 
# from the CCDC's data processing and validation procedures.
#
#######################################################################

data_EPEXUT
_symmetry_cell_setting           triclinic
_symmetry_space_group_name_H-M   'P -1'
_symmetry_Int_Tables_number      2
_space_group_name_Hall           '-P 1'
loop_
_symmetry_equiv_pos_site_id
_symmetry_equiv_pos_as_xyz
1 x,y,z
2 -x,-y,-z
_cell_length_a                   6.167(3)
_cell_length_b                   12.715(7)
_cell_length_c                   13.095(7)
_cell_angle_alpha                114.959(8)
_cell_angle_beta                 97.225(9)
_cell_angle_gamma                93.347(8)
_cell_volume                     916.419
loop_
_atom_site_label
_atom_site_type_symbol
_atom_site_fract_x
_atom_site_fract_y
_atom_site_fract_z
Zn1 Zn 0.53301(17) 0.59375(8) 0.96439(10)
O1 O 0.6917(10) 0.4729(5) 0.8559(5)
O2 O 0.6492(10) 0.3312(5) 0.9138(6)
O3 O 1.2215(10) 0.3979(5) 0.9033(6)
O4 O 1.2644(10) 0.5299(5) 0.8356(6)
N1 N 0.6868(12) 0.7404(6) 0.9638(7)
C1 C 0.7129(13) 0.3708(7) 0.8457(8)
C2 C 0.8179(14) 0.2939(7) 0.7486(8)
H1 H 0.7034 0.2655 0.6807
C3 C 1.0077(14) 0.3649(8) 0.7251(8)
H2 H 0.9425 0.4183 0.6973
C4 C 1.1290(19) 0.2821(9) 0.6341(10)
H3 H 1.0354 0.2546 0.5603
H4 H 1.2606 0.3263 0.6320
C5 C 1.1955(17) 0.1770(10) 0.6502(11)
H5 H 1.3032 0.2028 0.7194
H6 H 1.2637 0.1284 0.5864
C6 C 0.9934(17) 0.1038(9) 0.6587(10)
H7 H 0.8870 0.0755 0.5888
H8 H 1.0399 0.0368 0.6689
C7 C 0.8880(17) 0.1803(8) 0.7600(10)
H9 H 0.9917 0.2036 0.8301
H10 H 0.7592 0.1357 0.7641
C8 C 1.1730(14) 0.4336(8) 0.8277(9)
C9 C 0.6313(16) 0.8464(8) 1.0276(10)
H11 H 0.5075 0.8504 1.0623
C10 C 0.7482(16) 0.9487(8) 1.0439(10)
H12 H 0.7035 1.0199 1.0891
C11 C 0.9341(15) 0.9461(7) 0.9930(9)
C12 C 0.9954(17) 0.8345(8) 0.9287(10)
H13 H 1.1214 0.8270 0.8952
C13 C 0.8634(17) 0.7366(8) 0.9166(10)
H14 H 0.9027 0.6635 0.8723
Zn1A Zn 0.46699(17) 0.40625(8) 1.03561(10)
Zn1A_2 Zn 1.46699(17) 0.40625(8) 1.03561(10)
Zn1_2 Zn 1.53301(17) 0.59375(8) 0.96439(10)
Zn1A_3 Zn 1.46699(17) 1.40625(8) 1.03561(10)
Zn1_3 Zn -0.46699(17) 0.59375(8) 0.96439(10)
Zn1A_4 Zn -0.53301(17) 0.40625(8) 1.03561(10)
O1A O 0.3083(10) 0.5271(5) 1.1441(5)
O2A O 0.3508(10) 0.6688(5) 1.0862(6)
O3A O -0.2215(10) 0.6021(5) 1.0967(6)
O3A_2 O 0.7785(10) 0.6021(5) 1.0967(6)
O3_2 O 0.2215(10) 0.3979(5) 0.9033(6)
O4A O -0.2644(10) 0.4701(5) 1.1644(6)
O4_2 O 0.2644(10) 0.5299(5) 0.8356(6)
O4A_2 O 0.7356(10) 0.4701(5) 1.1644(6)
N1A N 1.3132(12) 1.2596(6) 1.0362(7)
N1A_2 N 0.3132(12) 0.2596(6) 1.0362(7)
C1A C 0.2871(13) 0.6292(7) 1.1543(8)
C2A C 0.1821(14) 0.7061(7) 1.2514(8)
H1A H 0.2966 0.7345 1.3193
C3A C -0.0077(14) 0.6351(8) 1.2749(8)
H2A H 0.0575 0.5817 1.3027
C4A C -0.1290(19) 0.7179(9) 1.3659(10)
H3A H -0.0354 0.7454 1.4397
H4A H -0.2606 0.6737 1.3680
C5A C -0.1955(17) 0.8230(10) 1.3498(11)
H5A H -0.3032 0.7972 1.2806
H6A H -0.2637 0.8716 1.4136
C6A C 0.0066(17) 0.8962(9) 1.3413(10)
H7A H 0.1130 0.9245 1.4112
H8A H -0.0399 0.9632 1.3311
C7A C 0.1120(17) 0.8197(8) 1.2400(10)
H9A H 0.0083 0.7964 1.1699
H10A H 0.2408 0.8643 1.2359
C8A C -0.1730(14) 0.5664(8) 1.1723(9)
C9A C 1.3687(16) 1.1536(8) 0.9724(10)
H11A H 1.4925 1.1496 0.9377
C10A C 1.2518(16) 1.0513(8) 0.9561(10)
H12A H 1.2965 0.9801 0.9109
C11A C 1.0659(15) 1.0539(7) 1.0070(9)
C12A C 1.0046(17) 1.1655(8) 1.0713(10)
H13A H 0.8786 1.1730 1.1048
C13A C 1.1366(17) 1.2634(8) 1.0834(10)
H14A H 1.0973 1.3365 1.1277
O5 O 0.605(4) 0.178(2) 0.252(2)
C14 C 0.500(6) 0.139(3) 0.332(3)
O6 O 0.094(2) 0.6131(14) 0.6551(14)
H15 H 0.0327 0.5676 0.5907
C15 C 0.328(3) 0.594(3) 0.670(3)
H16 H 0.3639 0.5426 0.5976
H17 H 0.3528 0.5599 0.7226
H18 H 0.4198 0.6677 0.6994
loop_
_geom_bond_atom_site_label_1
_geom_bond_atom_site_label_2
_geom_bond_site_symmetry_1
_geom_bond_site_symmetry_2
Zn1 O1 1_555 1_555
O1 C1 1_555 1_555
O2 C1 1_555 1_555
O3 C8 1_555 1_555
O4 C8 1_555 1_555
N1 Zn1 1_555 1_555
C1 C2 1_555 1_555
C2 H1 1_555 1_555
C3 C2 1_555 1_555
H2 C3 1_555 1_555
C4 C3 1_555 1_555
H3 C4 1_555 1_555
H4 C4 1_555 1_555
C5 C4 1_555 1_555
H5 C5 1_555 1_555
H6 C5 1_555 1_555
C6 C5 1_555 1_555
H7 C6 1_555 1_555
H8 C6 1_555 1_555
C7 C2 1_555 1_555
H9 C7 1_555 1_555
H10 C7 1_555 1_555
C8 C3 1_555 1_555
C9 N1 1_555 1_555
H11 C9 1_555 1_555
C10 C9 1_555 1_555
H12 C10 1_555 1_555
C11 C10 1_555 1_555
C12 C11 1_555 1_555
H13 C12 1_555 1_555
C13 N1 1_555 1_555
H14 C13 1_555 1_555
O5 C14 1_555 1_555
O6 H15 1_555 1_555
C15 O6 1_555 1_555
H16 C15 1_555 1_555
H17 C15 1_555 1_555
H18 C15 1_555 1_555
Zn1A O2 1_555 1_555
Zn1A_2 O3 1_555 1_555
Zn1_2 O4 1_555 1_555
Zn1A_3 N1A 1_555 1_555
Zn1_3 O3A 1_555 1_555
Zn1A_4 O4A 1_555 1_555
O1A Zn1A 1_555 1_555
O2A Zn1 1_555 1_555
O3A C8A 1_555 1_555
O3A_2 Zn1 1_555 1_555
O3_2 Zn1A 1_555 1_555
O4A C8A 1_555 1_555
O4_2 Zn1 1_555 1_555
O4A_2 Zn1A 1_555 1_555
N1A C9A 1_555 1_555
N1A_2 Zn1A 1_555 1_555
C1A O1A 1_555 1_555
C2A C1A 1_555 1_555
H1A C2A 1_555 1_555
C3A C2A 1_555 1_555
H2A C3A 1_555 1_555
C4A C3A 1_555 1_555
H3A C4A 1_555 1_555
H4A C4A 1_555 1_555
C5A C4A 1_555 1_555
H5A C5A 1_555 1_555
H6A C5A 1_555 1_555
C6A C5A 1_555 1_555
H7A C6A 1_555 1_555
H8A C6A 1_555 1_555
C7A C2A 1_555 1_555
H9A C7A 1_555 1_555
H10A C7A 1_555 1_555
C8A C3A 1_555 1_555
C9A H11A 1_555 1_555
C10A C9A 1_555 1_555
H12A C10A 1_555 1_555
C11A C11 1_555 1_555
C12A C11A 1_555 1_555
H13A C12A 1_555 1_555
C13A N1A 1_555 1_555
H14A C13A 1_555 1_555
C6 C7 1_555 1_555
C12 C13 1_555 1_555
O2A C1A 1_555 1_555
C6A C7A 1_555 1_555
C10A C11A 1_555 1_555
C12A C13A 1_555 1_555

#END
