
#######################################################################
#
#                 Cambridge Crystallographic Data Centre
#                                CCDC 
#
#######################################################################
#
# If this CIF has been generated from an entry in the Cambridge 
# Structural Database, then it will include bibliographic, chemical, 
# crystal, experimental, refinement or atomic coordinate data resulting 
# from the CCDC's data processing and validation procedures.
#
#######################################################################

data_EPEXON
_symmetry_cell_setting           triclinic
_symmetry_space_group_name_H-M   'P -1'
_symmetry_Int_Tables_number      2
_space_group_name_Hall           '-P 1'
loop_
_symmetry_equiv_pos_site_id
_symmetry_equiv_pos_as_xyz
1 x,y,z
2 -x,-y,-z
_cell_length_a                   5.8322(6)
_cell_length_b                   10.6119(10)
_cell_length_c                   13.5639(13)
_cell_angle_alpha                89.324(2)
_cell_angle_beta                 86.923(2)
_cell_angle_gamma                86.978(2)
_cell_volume                     837.07
loop_
_atom_site_label
_atom_site_type_symbol
_atom_site_fract_x
_atom_site_fract_y
_atom_site_fract_z
Zn1 Zn -0.30373(6) -0.41245(3) -0.13631(2)
O1 O -0.6276(4) -0.47462(19) -0.11736(17)
H1 H -0.645(6) -0.5398(18) -0.0801(19)
H2 H -0.740(4) -0.423(2) -0.100(2)
O2 O -0.2951(3) -0.32115(18) -0.00683(15)
O3 O 0.0256(4) -0.28616(19) -0.09318(15)
O4 O 0.1388(4) -0.42878(18) 0.10518(17)
O5 O 0.0763(5) -0.4220(2) 0.26516(19)
N1 N -0.3562(4) -0.2991(2) -0.25395(18)
C1 C -0.0994(5) -0.2718(2) -0.0159(2)
C2 C -0.0354(5) -0.1886(3) 0.0673(2)
H3 H -0.1411 -0.1138 0.0655
C3 C -0.0771(5) -0.2486(3) 0.1697(2)
H4 H -0.2406 -0.2659 0.1771
C4 C -0.0299(7) -0.1552(3) 0.2506(3)
H5 H -0.0460 -0.1965 0.3146
H6 H -0.1425 -0.0847 0.2495
C5 C 0.2123(8) -0.1062(4) 0.2360(3)
H7 H 0.2337 -0.0439 0.2861
H8 H 0.3251 -0.1755 0.2443
C6 C 0.2514(7) -0.0472(3) 0.1346(3)
H9 H 0.4087 -0.0218 0.1264
H10 H 0.1500 0.0276 0.1288
C7 C 0.2062(6) -0.1397(3) 0.0538(3)
H11 H 0.3186 -0.2103 0.0552
H12 H 0.2235 -0.0982 -0.0100
C8 C 0.0585(5) -0.3739(3) 0.1821(2)
C9 C -0.5557(5) -0.2310(3) -0.2597(2)
H13 H -0.6649 -0.2345 -0.2073
C10 C -0.6045(6) -0.1562(3) -0.3402(3)
H14 H -0.7445 -0.1100 -0.3411
C11 C -0.4473(7) -0.1491(3) -0.4196(2)
C12 C -0.2435(7) -0.2180(3) -0.4124(3)
H15 H -0.1309 -0.2151 -0.4635
C13 C -0.2043(6) -0.2915(3) -0.3303(3)
H16 H -0.0651 -0.3381 -0.3280
C14 C -0.5001(9) -0.0683(3) -0.5093(3)
H17 H -0.3869 -0.0897 -0.5623
H18 H -0.6496 -0.0880 -0.5311
Zn1A Zn 0.30373(6) -0.58755(3) 0.13631(2)
Zn1A_2 Zn -0.69627(6) 0.41245(3) -0.86369(2)
Zn1_2 Zn -1.30373(6) 0.58755(3) -1.13631(2)
O1A O -0.3724(4) 0.47462(19) -0.88264(17)
H1A H -0.355(6) 0.5398(18) -0.9199(19)
H2A H -0.260(4) 0.423(2) -0.900(2)
O2A O -0.7049(3) 0.32115(18) -0.99317(15)
O3A O -1.0256(4) 0.28616(19) -0.90682(15)
O4A O -0.1388(4) -0.57122(18) -0.10518(17)
O4_2 O -0.8612(4) 0.57122(18) -0.89482(17)
O4A_2 O -1.1388(4) 0.42878(18) -1.10518(17)
O5A O -1.0763(5) 0.4220(2) -1.26516(19)
N1A N -0.6438(4) 0.2991(2) -0.74605(18)
C1A C -0.9006(5) 0.2718(2) -0.9841(2)
C2A C -0.9646(5) 0.1886(3) -1.0673(2)
H3A H -0.8589 0.1138 -1.0655
C3A C -0.9229(5) 0.2486(3) -1.1697(2)
H4A H -0.7594 0.2659 -1.1771
C4A C -0.9701(7) 0.1552(3) -1.2506(3)
H5A H -0.9540 0.1965 -1.3146
H6A H -0.8575 0.0847 -1.2495
C5A C -1.2123(8) 0.1062(4) -1.2360(3)
H7A H -1.2337 0.0439 -1.2861
H8A H -1.3251 0.1755 -1.2443
C6A C -1.2514(7) 0.0472(3) -1.1346(3)
H9A H -1.4087 0.0218 -1.1264
H10A H -1.1500 -0.0276 -1.1288
C7A C -1.2062(6) 0.1397(3) -1.0538(3)
H11A H -1.3186 0.2103 -1.0552
H12A H -1.2235 0.0982 -0.9900
C8A C -1.0585(5) 0.3739(3) -1.1821(2)
C9A C -0.4443(5) 0.2310(3) -0.7403(2)
H13A H -0.3351 0.2345 -0.7927
C10A C -0.3955(6) 0.1562(3) -0.6598(3)
H14A H -0.2555 0.1100 -0.6589
C11A C -0.5527(7) 0.1491(3) -0.5804(2)
C12A C -0.7565(7) 0.2180(3) -0.5876(3)
H15A H -0.8691 0.2151 -0.5365
C13A C -0.7957(6) 0.2915(3) -0.6697(3)
H16A H -0.9349 0.3381 -0.6720
C14A C -0.4999(9) 0.0683(3) -0.4907(3)
H17A H -0.6131 0.0897 -0.4377
H18A H -0.3504 0.0880 -0.4689
O6 O -0.2756(8) -0.6500(4) -0.4435(4)
H19 H -0.420(5) -0.619(5) -0.413(4)
H20 H -0.203(9) -0.597(4) -0.492(3)
O7 O -0.7185(10) -0.5292(5) -0.4055(4)
loop_
_geom_bond_atom_site_label_1
_geom_bond_atom_site_label_2
_geom_bond_site_symmetry_1
_geom_bond_site_symmetry_2
Zn1 O1 1_555 1_555
O1 H1 1_555 1_555
H2 O1 1_555 1_555
O2 Zn1 1_555 1_555
O3 C1 1_555 1_555
O4 C8 1_555 1_555
O5 C8 1_555 1_555
N1 Zn1 1_555 1_555
C1 O2 1_555 1_555
C2 C1 1_555 1_555
H3 C2 1_555 1_555
C3 C2 1_555 1_555
H4 C3 1_555 1_555
C4 C3 1_555 1_555
H5 C4 1_555 1_555
H6 C4 1_555 1_555
C5 C4 1_555 1_555
H7 C5 1_555 1_555
H8 C5 1_555 1_555
C6 C5 1_555 1_555
H9 C6 1_555 1_555
H10 C6 1_555 1_555
C7 C2 1_555 1_555
H11 C7 1_555 1_555
H12 C7 1_555 1_555
C8 C3 1_555 1_555
C9 N1 1_555 1_555
H13 C9 1_555 1_555
C10 C9 1_555 1_555
H14 C10 1_555 1_555
C11 C10 1_555 1_555
C12 C11 1_555 1_555
H15 C12 1_555 1_555
C13 N1 1_555 1_555
H16 C13 1_555 1_555
C14 C11 1_555 1_555
H17 C14 1_555 1_555
H18 C14 1_555 1_555
O6 H19 1_555 1_555
H20 O6 1_555 1_555
Zn1A O4 1_555 1_555
Zn1A_2 O1A 1_555 1_555
Zn1_2 O4A_2 1_555 1_555
O1A H1A 1_555 1_555
H2A O1A 1_555 1_555
O2A Zn1A_2 1_555 1_555
O3A C1A 1_555 1_555
O4A Zn1 1_555 1_555
O4_2 Zn1A_2 1_555 1_555
O4A_2 C8A 1_555 1_555
O5A C8A 1_555 1_555
N1A Zn1A_2 1_555 1_555
C1A O2A 1_555 1_555
C2A C1A 1_555 1_555
H3A C2A 1_555 1_555
C3A C2A 1_555 1_555
H4A C3A 1_555 1_555
C4A C3A 1_555 1_555
H5A C4A 1_555 1_555
H6A C4A 1_555 1_555
C5A C4A 1_555 1_555
H7A C5A 1_555 1_555
H8A C5A 1_555 1_555
C6A C5A 1_555 1_555
H9A C6A 1_555 1_555
H10A C6A 1_555 1_555
C7A C2A 1_555 1_555
H11A C7A 1_555 1_555
H12A C7A 1_555 1_555
C8A C3A 1_555 1_555
C9A N1A 1_555 1_555
H13A C9A 1_555 1_555
C10A C9A 1_555 1_555
H14A C10A 1_555 1_555
C11A C10A 1_555 1_555
C12A C11A 1_555 1_555
H15A C12A 1_555 1_555
C13A N1A 1_555 1_555
H16A C13A 1_555 1_555
C14A C14 1_555 1_555
H17A C14A 1_555 1_555
H18A C14A 1_555 1_555
C6 C7 1_555 1_555
C12 C13 1_555 1_555
C6A C7A 1_555 1_555
C11A C14A 1_555 1_555
C12A C13A 1_555 1_555

#END
