
#######################################################################
#
#                 Cambridge Crystallographic Data Centre
#                                CCDC 
#
#######################################################################
#
# If this CIF has been generated from an entry in the Cambridge 
# Structural Database, then it will include bibliographic, chemical, 
# crystal, experimental, refinement or atomic coordinate data resulting 
# from the CCDC's data processing and validation procedures.
#
#######################################################################

data_EPEYEE
_symmetry_cell_setting           triclinic
_symmetry_space_group_name_H-M   'P -1'
_symmetry_Int_Tables_number      2
_space_group_name_Hall           '-P 1'
loop_
_symmetry_equiv_pos_site_id
_symmetry_equiv_pos_as_xyz
1 x,y,z
2 -x,-y,-z
_cell_length_a                   5.6008(5)
_cell_length_b                   13.9738(13)
_cell_length_c                   20.9424(19)
_cell_angle_alpha                93.765(2)
_cell_angle_beta                 96.678(2)
_cell_angle_gamma                94.342(2)
_cell_volume                     1618.66
loop_
_atom_site_label
_atom_site_type_symbol
_atom_site_fract_x
_atom_site_fract_y
_atom_site_fract_z
Zn1 Zn -0.25945(8) 0.13750(3) 0.04429(2)
Zn2 Zn 0.65295(9) 0.88386(4) 0.47881(2)
O1 O -0.6156(5) 0.1166(2) 0.01123(15)
H1 H -0.655(8) 0.082(3) -0.0244(11)
H2 H -0.714(6) 0.110(3) 0.0395(16)
O2 O -0.2439(5) 0.0157(2) 0.09095(14)
O3 O 0.1152(5) 0.0963(2) 0.11182(14)
O4 O 0.1403(5) -0.1012(2) 0.03665(14)
O5 O 0.0962(7) -0.2589(2) 0.04364(18)
O6 O 0.9668(5) 0.8562(2) 0.51819(15)
O7 O 0.8003(7) 0.7191(3) 0.5427(2)
O8 O 1.2564(6) 1.0290(2) 0.58669(15)
O9 O 1.5221(6) 0.9314(2) 0.55650(15)
N1 N -0.2734(6) 0.2562(3) 0.10283(17)
N2 N 0.3819(6) 0.7976(3) 0.42799(17)
C1 C -0.0218(8) 0.0238(3) 0.1179(2)
C2 C 0.0538(7) -0.0555(3) 0.1611(2)
H3 H -0.0350 -0.0482 0.1996
C3 C -0.0241(8) -0.1567(3) 0.1297(2)
H4 H -0.2037 -0.1613 0.1196
C4 C 0.0363(8) -0.2326(3) 0.1763(2)
H5 H -0.0049 -0.2973 0.1538
H6 H -0.0622 -0.2266 0.2124
C5 C 0.3022(9) -0.2222(4) 0.2028(3)
H7 H 0.4000 -0.2369 0.1676
H8 H 0.3324 -0.2691 0.2357
C6 C 0.3799(9) -0.1205(4) 0.2332(2)
H9 H 0.2975 -0.1090 0.2720
H10 H 0.5559 -0.1148 0.2470
C7 C 0.3205(8) -0.0445(3) 0.1866(2)
H11 H 0.4174 -0.0509 0.1501
H12 H 0.3626 0.0203 0.2088
C8 C 0.0787(8) -0.1759(3) 0.0657(2)
C9 C 0.9681(8) 0.7819(4) 0.5499(2)
C10 C 1.1898(8) 0.7762(3) 0.5991(2)
H13 H 1.3231 0.7550 0.5751
C11 C 1.2728(8) 0.8770(3) 0.6330(2)
H14 H 1.4197 0.8685 0.6634
C12 C 1.0821(9) 0.9103(3) 0.6754(2)
H15 H 1.1369 0.9745 0.6972
H16 H 0.9279 0.9155 0.6480
C13 C 1.0435(10) 0.8377(4) 0.7262(2)
H17 H 1.1941 0.8373 0.7560
H18 H 0.9155 0.8579 0.7517
C14 C 0.9718(10) 0.7364(4) 0.6949(3)
H19 H 0.8095 0.7347 0.6702
H20 H 0.9630 0.6908 0.7289
C15 C 1.1507(9) 0.7043(3) 0.6498(2)
H21 H 1.0901 0.6408 0.6278
H22 H 1.3072 0.6969 0.6755
C16 C 1.3506(8) 0.9498(3) 0.5878(2)
C17 C -0.4473(8) 0.2569(3) 0.1419(2)
H23 H -0.5520 0.2002 0.1421
C18 C -0.4802(8) 0.3355(4) 0.1813(2)
H24 H -0.6052 0.3323 0.2083
C19 C -0.3312(8) 0.4202(3) 0.1821(2)
C20 C -0.1505(9) 0.4187(4) 0.1423(2)
H25 H -0.0419 0.4742 0.1419
C21 C -0.1263(9) 0.3379(3) 0.1036(2)
H26 H -0.0021 0.3392 0.0763
C22 C -0.3685(9) 0.5074(4) 0.2244(3)
H27 H -0.4967 0.4899 0.2514
H28 H -0.4272 0.5575 0.1966
C23 C -0.1456(8) 0.5505(3) 0.2686(2)
H29 H -0.0704 0.4991 0.2920
H30 H -0.0266 0.5793 0.2424
C24 C -0.2118(8) 0.6272(4) 0.3166(2)
H31 H -0.3147 0.6709 0.2928
H32 H -0.3102 0.5953 0.3467
C25 C -0.0069(8) 0.6864(3) 0.3552(2)
C26 C 0.0037(8) 0.7858(3) 0.3616(2)
H33 H -0.1233 0.8182 0.3408
C27 C 0.1978(8) 0.8387(3) 0.3980(2)
H34 H 0.1996 0.9068 0.4018
C28 C 0.3728(9) 0.7013(3) 0.4238(2)
H35 H 0.5003 0.6710 0.4462
C29 C 0.1847(9) 0.6441(3) 0.3880(2)
H36 H 0.1861 0.5760 0.3857
Zn1A Zn 0.25945(8) -0.13750(3) -0.04429(2)
Zn2A Zn 1.34705(9) 1.11614(4) 0.52119(2)
Zn2_2 Zn 1.65295(9) 0.88386(4) 0.47881(2)
O4A O -0.1403(5) 0.1012(2) -0.03665(14)
O8A O 0.7436(6) 0.9710(2) 0.41331(15)
O9_2 O 0.5221(6) 0.9314(2) 0.55650(15)
O10 O 0.6814(12) 0.4324(5) 0.9239(3)
O11 O 0.2560(17) 0.4163(6) 0.9779(4)
N3 N 0.833(2) 0.5231(10) 0.4881(6)
C30 C 0.710(3) 0.5320(12) 0.5250(7)
C31 C 0.561(3) 0.5435(14) 0.5820(7)
H37 H 0.4675 0.4825 0.5862
H38 H 0.4503 0.5938 0.5742
H39 H 0.6693 0.5615 0.6218
loop_
_geom_bond_atom_site_label_1
_geom_bond_atom_site_label_2
_geom_bond_site_symmetry_1
_geom_bond_site_symmetry_2
Zn1 O1 1_555 1_555
Zn2 O6 1_555 1_555
O1 H1 1_555 1_555
H2 O1 1_555 1_555
O2 Zn1 1_555 1_555
O3 C1 1_555 1_555
O4 C8 1_555 1_555
O5 C8 1_555 1_555
O6 C9 1_555 1_555
O7 C9 1_555 1_555
O8 C16 1_555 1_555
O9 C16 1_555 1_555
N1 Zn1 1_555 1_555
N2 Zn2 1_555 1_555
C1 O2 1_555 1_555
C2 C1 1_555 1_555
H3 C2 1_555 1_555
C3 C2 1_555 1_555
H4 C3 1_555 1_555
C4 C3 1_555 1_555
H5 C4 1_555 1_555
H6 C4 1_555 1_555
C5 C4 1_555 1_555
H7 C5 1_555 1_555
H8 C5 1_555 1_555
C6 C5 1_555 1_555
H9 C6 1_555 1_555
H10 C6 1_555 1_555
C7 C2 1_555 1_555
H11 C7 1_555 1_555
H12 C7 1_555 1_555
C8 C3 1_555 1_555
C9 C10 1_555 1_555
C10 H13 1_555 1_555
C11 C10 1_555 1_555
H14 C11 1_555 1_555
C12 C11 1_555 1_555
H15 C12 1_555 1_555
H16 C12 1_555 1_555
C13 C12 1_555 1_555
H17 C13 1_555 1_555
H18 C13 1_555 1_555
C14 C13 1_555 1_555
H19 C14 1_555 1_555
H20 C14 1_555 1_555
C15 C10 1_555 1_555
H21 C15 1_555 1_555
H22 C15 1_555 1_555
C16 C11 1_555 1_555
C17 N1 1_555 1_555
H23 C17 1_555 1_555
C18 C17 1_555 1_555
H24 C18 1_555 1_555
C19 C18 1_555 1_555
C20 C19 1_555 1_555
H25 C20 1_555 1_555
C21 N1 1_555 1_555
H26 C21 1_555 1_555
C22 C19 1_555 1_555
H27 C22 1_555 1_555
H28 C22 1_555 1_555
C23 C22 1_555 1_555
H29 C23 1_555 1_555
H30 C23 1_555 1_555
C24 C23 1_555 1_555
H31 C24 1_555 1_555
H32 C24 1_555 1_555
C25 C24 1_555 1_555
C26 C25 1_555 1_555
H33 C26 1_555 1_555
C27 N2 1_555 1_555
H34 C27 1_555 1_555
C28 N2 1_555 1_555
H35 C28 1_555 1_555
C29 C25 1_555 1_555
H36 C29 1_555 1_555
N3 C30 1_555 1_555
C30 C31 1_555 1_555
C31 H37 1_555 1_555
H38 C31 1_555 1_555
H39 C31 1_555 1_555
Zn1A O4 1_555 1_555
Zn2A O8 1_555 1_555
Zn2_2 O9 1_555 1_555
O4A Zn1 1_555 1_555
O8A Zn2 1_555 1_555
O9_2 Zn2 1_555 1_555
C6 C7 1_555 1_555
C14 C15 1_555 1_555
C20 C21 1_555 1_555
C26 C27 1_555 1_555
C28 C29 1_555 1_555

#END
