
#######################################################################
#
#                 Cambridge Crystallographic Data Centre
#                                CCDC 
#
#######################################################################
#
# If this CIF has been generated from an entry in the Cambridge 
# Structural Database, then it will include bibliographic, chemical, 
# crystal, experimental, refinement or atomic coordinate data resulting 
# from the CCDC's data processing and validation procedures.
#
#######################################################################

data_EPEYAA
_symmetry_cell_setting           triclinic
_symmetry_space_group_name_H-M   'P -1'
_symmetry_Int_Tables_number      2
_space_group_name_Hall           '-P 1'
loop_
_symmetry_equiv_pos_site_id
_symmetry_equiv_pos_as_xyz
1 x,y,z
2 -x,-y,-z
_cell_length_a                   6.2142(12)
_cell_length_b                   9.4307(18)
_cell_length_c                   12.213(3)
_cell_angle_alpha                81.975(3)
_cell_angle_beta                 82.195(3)
_cell_angle_gamma                85.397(4)
_cell_volume                     700.787
loop_
_atom_site_label
_atom_site_type_symbol
_atom_site_fract_x
_atom_site_fract_y
_atom_site_fract_z
Zn1 Zn 0.52937(13) 0.86709(8) 0.57550(6)
O1 O 0.3380(8) 0.7593(5) 0.4962(3)
O2 O 0.2858(8) 0.9692(5) 0.3932(3)
O3 O -0.2727(8) 1.0348(5) 0.3389(3)
O4 O -0.2292(8) 0.8288(5) 0.4509(3)
N1 N 0.6339(9) 0.7311(5) 0.7052(4)
C1 C 0.2682(12) 0.8362(8) 0.4123(5)
C2 C 0.1720(11) 0.7631(7) 0.3318(5)
H1 H 0.1094 0.6762 0.3730
C3 C -0.0111(11) 0.8537(7) 0.2766(5)
H2 H -0.0850 0.7870 0.2418
C4 C 0.0687(12) 0.9699(7) 0.1821(5)
H3 H -0.0527 1.0101 0.1431
H4 H 0.1236 1.0466 0.2136
C5 C 0.2484(13) 0.9102(9) 0.0990(5)
H5 H 0.1905 0.8398 0.0619
H6 H 0.2999 0.9873 0.0427
C6 C 0.4380(13) 0.8402(8) 0.1592(5)
H7 H 0.5533 0.8055 0.1058
H8 H 0.4961 0.9100 0.1967
C7 C 0.3567(12) 0.7157(8) 0.2439(5)
H9 H 0.4772 0.6705 0.2816
H10 H 0.3045 0.6449 0.2051
C8 C -0.1789(11) 0.9116(7) 0.3619(5)
C9 C 0.8382(13) 0.6731(7) 0.6974(5)
H11 H 0.9192 0.6769 0.6273
C10 C 0.9342(12) 0.6078(8) 0.7885(5)
H12 H 1.0768 0.5689 0.7792
C11 C 0.8164(13) 0.6004(8) 0.8949(5)
C12 C 0.6066(13) 0.6607(8) 0.9015(5)
H13 H 0.5216 0.6578 0.9705
C13 C 0.5210(12) 0.7250(7) 0.8076(5)
H14 H 0.3795 0.7659 0.8151
C14 C 0.9052(13) 0.5349(8) 0.9973(6)
H15 H 0.8182 0.5439 1.0645
Zn1A Zn -0.52937(13) 1.13291(8) 0.42450(6)
Zn1_2 Zn -0.47063(13) 0.86709(8) 0.57550(6)
Zn1A_2 Zn 0.47063(13) 1.13291(8) 0.42450(6)
Zn1A_3 Zn 1.47063(13) 0.13291(8) 1.42450(6)
Zn1_3 Zn 1.52937(13) 0.86709(8) 0.57550(6)
Zn1A_4 Zn 1.47063(13) 1.13291(8) 0.42450(6)
O1A O 0.6620(8) 1.2407(5) 0.5038(3)
O2A O 0.7142(8) 1.0308(5) 0.6068(3)
O3A O 0.2727(8) 0.9652(5) 0.6611(3)
O3_2 O 0.7273(8) 1.0348(5) 0.3389(3)
O3A_2 O 1.2727(8) 0.9652(5) 0.6611(3)
O4A O 0.2292(8) 1.1712(5) 0.5491(3)
O4_2 O 0.7708(8) 0.8288(5) 0.4509(3)
O4A_2 O 1.2292(8) 1.1712(5) 0.5491(3)
N1A N 1.3661(9) 0.2689(5) 1.2948(4)
N1A_2 N 0.3661(9) 1.2689(5) 0.2948(4)
C1A C 0.7318(12) 1.1638(8) 0.5877(5)
C2A C 0.8280(11) 1.2369(7) 0.6682(5)
H1A H 0.8906 1.3238 0.6270
C3A C 1.0111(11) 1.1463(7) 0.7234(5)
H2A H 1.0850 1.2130 0.7582
C4A C 0.9313(12) 1.0301(7) 0.8179(5)
H3A H 1.0527 0.9899 0.8569
H4A H 0.8764 0.9534 0.7864
C5A C 0.7516(13) 1.0898(9) 0.9010(5)
H5A H 0.8095 1.1602 0.9381
H6A H 0.7001 1.0127 0.9573
C6A C 0.5620(13) 1.1598(8) 0.8408(5)
H7A H 0.4467 1.1945 0.8942
H8A H 0.5039 1.0900 0.8033
C7A C 0.6433(12) 1.2843(8) 0.7561(5)
H9A H 0.5228 1.3295 0.7184
H10A H 0.6955 1.3551 0.7949
C8A C 1.1789(11) 1.0884(7) 0.6381(5)
C9A C 1.1618(13) 0.3269(7) 1.3026(5)
H11A H 1.0808 0.3231 1.3727
C10A C 1.0658(12) 0.3922(8) 1.2115(5)
H12A H 0.9232 0.4311 1.2208
C11A C 1.1836(13) 0.3996(8) 1.1051(5)
C12A C 1.3934(13) 0.3393(8) 1.0985(5)
H13A H 1.4784 0.3422 1.0295
C13A C 1.4790(12) 0.2750(7) 1.1924(5)
H14A H 1.6205 0.2341 1.1849
C14A C 1.0948(13) 0.4651(8) 1.0027(6)
H15A H 1.1818 0.4561 0.9355
O5 O 0.2543(13) 0.4770(8) 0.5956(6)
H16 H 0.389(7) 0.511(9) 0.600(6)
H17 H 0.172(12) 0.468(10) 0.539(5)
loop_
_geom_bond_atom_site_label_1
_geom_bond_atom_site_label_2
_geom_bond_site_symmetry_1
_geom_bond_site_symmetry_2
Zn1 O1 1_555 1_555
O1 C1 1_555 1_555
O2 C1 1_555 1_555
O3 C8 1_555 1_555
O4 C8 1_555 1_555
N1 Zn1 1_555 1_555
C1 C2 1_555 1_555
C2 H1 1_555 1_555
C3 C2 1_555 1_555
H2 C3 1_555 1_555
C4 C3 1_555 1_555
H3 C4 1_555 1_555
H4 C4 1_555 1_555
C5 C4 1_555 1_555
H5 C5 1_555 1_555
H6 C5 1_555 1_555
C6 C5 1_555 1_555
H7 C6 1_555 1_555
H8 C6 1_555 1_555
C7 C2 1_555 1_555
H9 C7 1_555 1_555
H10 C7 1_555 1_555
C8 C3 1_555 1_555
C9 N1 1_555 1_555
H11 C9 1_555 1_555
C10 C9 1_555 1_555
H12 C10 1_555 1_555
C11 C10 1_555 1_555
C12 C11 1_555 1_555
H13 C12 1_555 1_555
C13 N1 1_555 1_555
H14 C13 1_555 1_555
C14 C11 1_555 1_555
H15 C14 1_555 1_555
O5 H16 1_555 1_555
H17 O5 1_555 1_555
Zn1A O3 1_555 1_555
Zn1_2 O4 1_555 1_555
Zn1A_2 O2 1_555 1_555
Zn1A_3 N1A 1_555 1_555
Zn1_3 O3A_2 1_555 1_555
Zn1A_4 O4A_2 1_555 1_555
O1A Zn1A_2 1_555 1_555
O2A Zn1 1_555 1_555
O3A Zn1 1_555 1_555
O3_2 Zn1A_2 1_555 1_555
O3A_2 C8A 1_555 1_555
O4A Zn1A_2 1_555 1_555
O4_2 Zn1 1_555 1_555
O4A_2 C8A 1_555 1_555
N1A C9A 1_555 1_555
N1A_2 Zn1A_2 1_555 1_555
C1A O1A 1_555 1_555
C2A C1A 1_555 1_555
H1A C2A 1_555 1_555
C3A C2A 1_555 1_555
H2A C3A 1_555 1_555
C4A C3A 1_555 1_555
H3A C4A 1_555 1_555
H4A C4A 1_555 1_555
C5A C4A 1_555 1_555
H5A C5A 1_555 1_555
H6A C5A 1_555 1_555
C6A C5A 1_555 1_555
H7A C6A 1_555 1_555
H8A C6A 1_555 1_555
C7A C2A 1_555 1_555
H9A C7A 1_555 1_555
H10A C7A 1_555 1_555
C8A C3A 1_555 1_555
C9A H11A 1_555 1_555
C10A C9A 1_555 1_555
H12A C10A 1_555 1_555
C11A C10A 1_555 1_555
C12A C11A 1_555 1_555
H13A C12A 1_555 1_555
C13A N1A 1_555 1_555
H14A C13A 1_555 1_555
C14A C14 1_555 1_555
H15A C14A 1_555 1_555
C6 C7 1_555 1_555
C12 C13 1_555 1_555
O2A C1A 1_555 1_555
C6A C7A 1_555 1_555
C11A C14A 1_555 1_555
C12A C13A 1_555 1_555

#END
