
#######################################################################
#
#                 Cambridge Crystallographic Data Centre
#                                CCDC 
#
#######################################################################
#
# If this CIF has been generated from an entry in the Cambridge 
# Structural Database, then it will include bibliographic, chemical, 
# crystal, experimental, refinement or atomic coordinate data resulting 
# from the CCDC's data processing and validation procedures.
#
#######################################################################

data_EPIBIP02
_symmetry_cell_setting           monoclinic
_symmetry_space_group_name_H-M   'C 2/m'
_symmetry_Int_Tables_number      12
_space_group_name_Hall           '-C 2y'
loop_
_symmetry_equiv_pos_site_id
_symmetry_equiv_pos_as_xyz
1 x,y,z
2 -x,y,-z
3 1/2+x,1/2+y,z
4 1/2-x,1/2+y,-z
5 -x,-y,-z
6 x,-y,z
7 1/2-x,1/2-y,-z
8 1/2+x,1/2-y,z
_cell_length_a                   18.920(5)
_cell_length_b                   25.992(3)
_cell_length_c                   14.306(3)
_cell_angle_alpha                90
_cell_angle_beta                 129.62(1)
_cell_angle_gamma                90
_cell_volume                     5419.18
loop_
_atom_site_label
_atom_site_type_symbol
_atom_site_fract_x
_atom_site_fract_y
_atom_site_fract_z
Pt1 Pt 0.0000 0.5514(2) 0.0000
Pt2 Pt 0.0000 0.7815(2) 0.0000
Pt3 Pt 0.0000 0.8850(2) 0.0000
I1 I 0.0000 0.6668(5) 0.0000
I2 I 0.0000 1.0000 0.0000
S1 S -0.0697(18) 0.5537(12) -0.195(4)
S2 S -0.130(3) 0.5542(9) -0.038(4)
S3 S -0.134(3) 0.7765(12) -0.043(6)
S4 S 0.061(4) 0.7759(14) 0.203(3)
S5 S 0.1111(18) 0.8885(10) 0.205(2)
S6 S -0.121(2) 0.8887(10) 0.013(3)
C1 C -0.1010(4) 0.5000 -0.2792(19)
C2 C -0.15157(7) 0.5000 -0.4152(19)
C3 C -0.25551(7) 0.5000 -0.4905(19)
C4 C -0.2838(2) 0.5000 -0.412(2)
C5 C -0.29494(9) 0.44565(19) -0.383(2)
C6 C -0.3952(7) 0.4322(16) -0.449(7)
C7 C -0.1864(6) 0.5000 -0.062(3)
C8 C -0.2831(11) 0.5000 -0.103(3)
C9 C -0.3564(6) 0.5000 -0.241(3)
C10 C -0.4532(6) 0.5000 -0.282(4)
C11 C -0.4752(11) 0.4499(12) -0.250(5)
C12 C -0.428(8) 0.4038(8) -0.255(11)
C13 C -0.1667(7) 0.8294(14) -0.011(3)
C14 C -0.2399(14) 0.836(2) 0.002(3)
C15 C -0.307(3) 0.879(2) -0.077(6)
C16 C -0.3697(12) 0.866(3) -0.211(5)
C17 C -0.429(3) 0.819(3) -0.240(4)
C18 C -0.473(7) 0.796(4) -0.365(6)
C19 C 0.123(2) 0.8304(15) 0.265(4)
C20 C 0.1975(18) 0.8141(17) 0.396(4)
C21 C 0.2123(6) 0.854(3) 0.485(4)
C22 C 0.3138(7) 0.865(4) 0.588(4)
C23 C 0.3636(8) 0.880(3) 0.540(6)
C24 C 0.435(7) 0.904(3) 0.537(12)
Pt1D Pt 0.0000 0.4486(2) 0.0000
Pt2D Pt 0.0000 0.2185(2) 0.0000
Pt2D_2 Pt 0.0000 1.2185(2) 0.0000
Pt3D Pt 0.0000 1.1150(2) 0.0000
Pt3D_2 Pt 0.0000 0.1150(2) 0.0000
I1D I 0.0000 0.3332(5) 0.0000
I1D_2 I 0.0000 1.3332(5) 0.0000
I2_2 I 0.0000 0.0000 0.0000
S1E S -0.0697(18) 0.4463(12) -0.195(4)
S1A S 0.0697(18) 0.5537(12) 0.195(4)
S1D S 0.0697(18) 0.4463(12) 0.195(4)
S2E S -0.130(3) 0.4458(9) -0.038(4)
S2A S 0.130(3) 0.5542(9) 0.038(4)
S2D S 0.130(3) 0.4458(9) 0.038(4)
S3A S 0.134(3) 0.7765(12) 0.043(6)
S3E S -0.134(3) 0.2235(12) -0.043(6)
S3D S 0.134(3) 0.2235(12) 0.043(6)
S3D_2 S 0.134(3) 1.2235(12) 0.043(6)
S3E_2 S -0.134(3) 1.2235(12) -0.043(6)
S4A S -0.061(4) 0.7759(14) -0.203(3)
S4E S 0.061(4) 0.2241(14) 0.203(3)
S4D S -0.061(4) 0.2241(14) -0.203(3)
S4D_2 S -0.061(4) 1.2241(14) -0.203(3)
S4E_2 S 0.061(4) 1.2241(14) 0.203(3)
S5A S -0.1111(18) 0.8885(10) -0.205(2)
S5E S 0.1111(18) 0.1115(10) 0.205(2)
S5D S -0.1111(18) 0.1115(10) -0.205(2)
S5D_2 S -0.1111(18) 1.1115(10) -0.205(2)
S5E_2 S 0.1111(18) 1.1115(10) 0.205(2)
S6A S 0.121(2) 0.8887(10) -0.013(3)
S6E S -0.121(2) 0.1113(10) 0.013(3)
S6D S 0.121(2) 0.1113(10) -0.013(3)
S6D_2 S 0.121(2) 1.1113(10) -0.013(3)
S6E_2 S -0.121(2) 1.1113(10) 0.013(3)
C1A C 0.1010(4) 0.5000 0.2792(19)
C2A C 0.15157(7) 0.5000 0.4152(19)
C3A C 0.25551(7) 0.5000 0.4905(19)
C4A C 0.2838(2) 0.5000 0.412(2)
C5E C -0.29494(9) 0.55435(19) -0.383(2)
C5A C 0.29494(9) 0.44565(19) 0.383(2)
C5D C 0.29494(9) 0.55435(19) 0.383(2)
C6E C -0.3952(7) 0.5678(16) -0.449(7)
C6A C 0.3952(7) 0.4322(16) 0.449(7)
C6D C 0.3952(7) 0.5678(16) 0.449(7)
C7A C 0.1864(6) 0.5000 0.062(3)
C8A C 0.2831(11) 0.5000 0.103(3)
C9A C 0.3564(6) 0.5000 0.241(3)
C10A C 0.4532(6) 0.5000 0.282(4)
C11E C -0.4752(11) 0.5501(12) -0.250(5)
C11A C 0.4752(11) 0.4499(12) 0.250(5)
C11D C 0.4752(11) 0.5501(12) 0.250(5)
C12E C -0.428(8) 0.5962(8) -0.255(11)
C12A C 0.428(8) 0.4038(8) 0.255(11)
C12D C 0.428(8) 0.5962(8) 0.255(11)
C13A C 0.1667(7) 0.8294(14) 0.011(3)
C13E C -0.1667(7) 0.1706(14) -0.011(3)
C13D C 0.1667(7) 0.1706(14) 0.011(3)
C13D_2 C 0.1667(7) 1.1706(14) 0.011(3)
C13E_2 C -0.1667(7) 1.1706(14) -0.011(3)
C14A C 0.2399(14) 0.836(2) -0.002(3)
C14E C -0.2399(14) 0.164(2) 0.002(3)
C14D C 0.2399(14) 0.164(2) -0.002(3)
C15A C 0.307(3) 0.879(2) 0.077(6)
C15E C -0.307(3) 0.121(2) -0.077(6)
C15D C 0.307(3) 0.121(2) 0.077(6)
C16A C 0.3697(12) 0.866(3) 0.211(5)
C16E C -0.3697(12) 0.134(3) -0.211(5)
C16D C 0.3697(12) 0.134(3) 0.211(5)
C17A C 0.429(3) 0.819(3) 0.240(4)
C17E C -0.429(3) 0.181(3) -0.240(4)
C17D C 0.429(3) 0.181(3) 0.240(4)
C18A C 0.473(7) 0.796(4) 0.365(6)
C18E C -0.473(7) 0.204(4) -0.365(6)
C18D C 0.473(7) 0.204(4) 0.365(6)
C19A C -0.123(2) 0.8304(15) -0.265(4)
C19E C 0.123(2) 0.1696(15) 0.265(4)
C19D C -0.123(2) 0.1696(15) -0.265(4)
C19D_2 C -0.123(2) 1.1696(15) -0.265(4)
C19E_2 C 0.123(2) 1.1696(15) 0.265(4)
C20A C -0.1975(18) 0.8141(17) -0.396(4)
C20E C 0.1975(18) 0.1859(17) 0.396(4)
C20D C -0.1975(18) 0.1859(17) -0.396(4)
C21A C -0.2123(6) 0.854(3) -0.485(4)
C21E C 0.2123(6) 0.146(3) 0.485(4)
C21D C -0.2123(6) 0.146(3) -0.485(4)
C22A C -0.3138(7) 0.865(4) -0.588(4)
C22E C 0.3138(7) 0.135(4) 0.588(4)
C22D C -0.3138(7) 0.135(4) -0.588(4)
C23A C -0.3636(8) 0.880(3) -0.540(6)
C23E C 0.3636(8) 0.120(3) 0.540(6)
C23D C -0.3636(8) 0.120(3) -0.540(6)
C24A C -0.435(7) 0.904(3) -0.537(12)
C24E C 0.435(7) 0.096(3) 0.537(12)
C24D C -0.435(7) 0.096(3) -0.537(12)
loop_
_geom_bond_atom_site_label_1
_geom_bond_atom_site_label_2
_geom_bond_site_symmetry_1
_geom_bond_site_symmetry_2
Pt1 I1 1_555 1_555
Pt2 Pt3 1_555 1_555
Pt3 I2 1_555 1_555
I1 Pt2 1_555 1_555
I2 Pt3D 1_555 1_555
S1 Pt1 1_555 1_555
S2 Pt1 1_555 1_555
S3 Pt2 1_555 1_555
S4 Pt2 1_555 1_555
S5 Pt3 1_555 1_555
S6 Pt3 1_555 1_555
C1 S1 1_555 1_555
C2 C1 1_555 1_555
C3 C2 1_555 1_555
C4 C3 1_555 1_555
C5 C4 1_555 1_555
C6 C5 1_555 1_555
C7 S2 1_555 1_555
C8 C7 1_555 1_555
C9 C8 1_555 1_555
C10 C9 1_555 1_555
C11 C10 1_555 1_555
C12 C11 1_555 1_555
C13 S3 1_555 1_555
C14 C13 1_555 1_555
C15 C14 1_555 1_555
C16 C15 1_555 1_555
C17 C16 1_555 1_555
C18 C17 1_555 1_555
C19 S4 1_555 1_555
C20 C19 1_555 1_555
C21 C20 1_555 1_555
C22 C21 1_555 1_555
C23 C22 1_555 1_555
C24 C23 1_555 1_555
Pt1D Pt1 1_555 1_555
Pt2D Pt3D_2 1_555 1_555
Pt2D_2 Pt3D 1_555 1_555
Pt3D S5D_2 1_555 1_555
Pt3D_2 I2_2 1_555 1_555
I1D Pt1D 1_555 1_555
I1D_2 Pt2D_2 1_555 1_555
S1E C1 1_555 1_555
S1A Pt1 1_555 1_555
S1D Pt1D 1_555 1_555
S2E C7 1_555 1_555
S2A Pt1 1_555 1_555
S2D Pt1D 1_555 1_555
S3A Pt2 1_555 1_555
S3E Pt2D 1_555 1_555
S3D Pt2D 1_555 1_555
S3D_2 Pt2D_2 1_555 1_555
S3E_2 Pt2D_2 1_555 1_555
S4A Pt2 1_555 1_555
S4E Pt2D 1_555 1_555
S4D Pt2D 1_555 1_555
S4D_2 Pt2D_2 1_555 1_555
S4E_2 Pt2D_2 1_555 1_555
S5A Pt3 1_555 1_555
S5E Pt3D_2 1_555 1_555
S5D Pt3D_2 1_555 1_555
S5D_2 C19D_2 1_555 1_555
S5E_2 Pt3D 1_555 1_555
S6A Pt3 1_555 1_555
S6E Pt3D_2 1_555 1_555
S6D Pt3D_2 1_555 1_555
S6D_2 Pt3D 1_555 1_555
S6E_2 Pt3D 1_555 1_555
C1A S1A 1_555 1_555
C2A C1A 1_555 1_555
C3A C2A 1_555 1_555
C4A C3A 1_555 1_555
C5E C4 1_555 1_555
C5A C4A 1_555 1_555
C5D C4A 1_555 1_555
C6E C5E 1_555 1_555
C6A C5A 1_555 1_555
C6D C5D 1_555 1_555
C7A S2A 1_555 1_555
C8A C7A 1_555 1_555
C9A C8A 1_555 1_555
C10A C9A 1_555 1_555
C11E C10 1_555 1_555
C11A C10A 1_555 1_555
C11D C10A 1_555 1_555
C12E C11E 1_555 1_555
C12A C11A 1_555 1_555
C12D C11D 1_555 1_555
C13A S3A 1_555 1_555
C13E S3E 1_555 1_555
C13D S3D 1_555 1_555
C13D_2 S3D_2 1_555 1_555
C13E_2 S3E_2 1_555 1_555
C14A C13A 1_555 1_555
C14E C13E 1_555 1_555
C14D C13D 1_555 1_555
C15A C14A 1_555 1_555
C15E C14E 1_555 1_555
C15D C14D 1_555 1_555
C16A C15A 1_555 1_555
C16E C15E 1_555 1_555
C16D C15D 1_555 1_555
C17A C16A 1_555 1_555
C17E C16E 1_555 1_555
C17D C16D 1_555 1_555
C18A C17A 1_555 1_555
C18E C17E 1_555 1_555
C18D C17D 1_555 1_555
C19A S4A 1_555 1_555
C19E S4E 1_555 1_555
C19D S4D 1_555 1_555
C19D_2 S4D_2 1_555 1_555
C19E_2 S4E_2 1_555 1_555
C20A C19A 1_555 1_555
C20E C19E 1_555 1_555
C20D C19D 1_555 1_555
C21A C20A 1_555 1_555
C21E C20E 1_555 1_555
C21D C20D 1_555 1_555
C22A C21A 1_555 1_555
C22E C21E 1_555 1_555
C22D C21D 1_555 1_555
C23A C22A 1_555 1_555
C23E C22E 1_555 1_555
C23D C22D 1_555 1_555
C24A C23A 1_555 1_555
C24E C23E 1_555 1_555
C24D C23D 1_555 1_555
S5 C19 1_555 1_555
S6 C13 1_555 1_555
Pt1D S1E 1_555 1_555
Pt1D S2E 1_555 1_555
Pt2D I1D 1_555 1_555
S1D C1A 1_555 1_555
S2D C7A 1_555 1_555
S5A C19A 1_555 1_555
S5E C19E 1_555 1_555
S5D C19D 1_555 1_555
S5E_2 C19E_2 1_555 1_555
S6A C13A 1_555 1_555
S6E C13E 1_555 1_555
S6D C13D 1_555 1_555
S6D_2 C13D_2 1_555 1_555
S6E_2 C13E_2 1_555 1_555

#END
