
#######################################################################
#
#                 Cambridge Crystallographic Data Centre
#                                CCDC 
#
#######################################################################
#
# If this CIF has been generated from an entry in the Cambridge 
# Structural Database, then it will include bibliographic, chemical, 
# crystal, experimental, refinement or atomic coordinate data resulting 
# from the CCDC's data processing and validation procedures.
#
#######################################################################

data_EPIBIP
_symmetry_cell_setting           tetragonal
_symmetry_space_group_name_H-M   'I 4'
_symmetry_Int_Tables_number      79
_space_group_name_Hall           'I 4'
loop_
_symmetry_equiv_pos_site_id
_symmetry_equiv_pos_as_xyz
1 x,y,z
2 -x,-y,z
3 -y,x,z
4 y,-x,z
5 1/2+x,1/2+y,1/2+z
6 1/2-x,1/2-y,1/2+z
7 1/2-y,1/2+x,1/2+z
8 1/2+y,1/2-x,1/2+z
_cell_length_a                   13.8294(3)
_cell_length_b                   13.8294(3)
_cell_length_c                   25.9702(6)
_cell_angle_alpha                90
_cell_angle_beta                 90
_cell_angle_gamma                90
_cell_volume                     4966.86
loop_
_atom_site_label
_atom_site_type_symbol
_atom_site_fract_x
_atom_site_fract_y
_atom_site_fract_z
Pt1 Pt 1.0000 0.0000 0.89369(7)
Pt2 Pt 1.0000 0.0000 0.12053(8)
Pt3 Pt 1.0000 0.0000 0.22348(9)
Pt4 Pt 1.0000 0.0000 0.45090(7)
Pt5 Pt 1.0000 0.0000 0.79059(7)
Pt6 Pt 1.0000 0.0000 0.55384(6)
I1 I 1.0000 0.0000 0.6713(3)
I2 I 1.0000 0.0000 0.3364(2)
I3 I 1.0000 0.0000 0.0072(2)
S1 S 1.1241(5) 0.1133(5) 0.8968(2)
S2 S 1.0653(7) 0.1539(6) 0.7886(4)
S3 S 1.1514(5) 0.0727(5) 0.5568(3)
S4 S 1.1674(3) -0.0032(6) 0.4473(2)
S5 S 1.1480(4) 0.0778(5) 0.2271(3)
S6 S 1.1092(7) 0.1271(7) 0.1183(3)
C1 C 1.1251(11) 0.1773(11) 0.8409(7)
C2 C 1.1817(10) 0.2713(10) 0.8432(6)
C3 C 1.2876(9) 0.2561(14) 0.8560(7)
C4 C 1.3401(12) 0.1931(18) 0.8175(7)
C5 C 1.4436(12) 0.1686(17) 0.8341(8)
C6 C 1.4928(15) 0.1049(15) 0.7940(7)
C7 C 1.2101(10) 0.0461(12) 0.5010(8)
C8 C 1.3182(10) 0.0670(10) 0.4988(7)
C9 C 1.3404(10) 0.1744(11) 0.5010(8)
C10 C 1.4451(10) 0.1970(14) 0.4882(7)
C11 C 1.5164(11) 0.1575(16) 0.5267(7)
C12 C 1.6200(10) 0.1852(19) 0.5164(9)
C13 C 1.1690(9) 0.1374(11) 0.1731(10)
C14 C 1.2539(8) 0.2071(9) 0.1731(10)
C15 C 1.3513(8) 0.1544(11) 0.1704(11)
C16 C 1.4323(9) 0.2281(13) 0.1588(9)
C17 C 1.5294(9) 0.1929(15) 0.1811(8)
C18 C 1.5673(16) 0.1099(16) 0.1479(8)
Pt1_2 Pt 1.0000 0.0000 -0.10631(7)
I3_2 I 1.0000 0.0000 1.0072(2)
S1A S 0.8759(5) -0.1133(5) 0.8968(2)
S1B S 0.8867(5) 0.1241(5) 0.8968(2)
S1C S 1.1133(5) -0.1241(5) 0.8968(2)
S2A S 0.9347(7) -0.1539(6) 0.7886(4)
S2B S 0.8461(6) 0.0653(7) 0.7886(4)
S2C S 1.1539(6) -0.0653(7) 0.7886(4)
S3A S 0.8486(5) -0.0727(5) 0.5568(3)
S3B S 0.9273(5) 0.1514(5) 0.5568(3)
S3C S 1.0727(5) -0.1514(5) 0.5568(3)
S4A S 0.8326(3) 0.0032(6) 0.4473(2)
S4B S 1.0032(6) 0.1674(3) 0.4473(2)
S4C S 0.9968(6) -0.1674(3) 0.4473(2)
S5A S 0.8520(4) -0.0778(5) 0.2271(3)
S5B S 0.9222(5) 0.1480(4) 0.2271(3)
S5C S 1.0778(5) -0.1480(4) 0.2271(3)
S6A S 0.8908(7) -0.1271(7) 0.1183(3)
S6B S 0.8729(7) 0.1092(7) 0.1183(3)
S6C S 1.1271(7) -0.1092(7) 0.1183(3)
C1A C 0.8749(11) -0.1773(11) 0.8409(7)
C1B C 0.8227(11) 0.1251(11) 0.8409(7)
C1C C 1.1773(11) -0.1251(11) 0.8409(7)
C2A C 0.8183(10) -0.2713(10) 0.8432(6)
C2B C 0.7287(10) 0.1817(10) 0.8432(6)
C2C C 1.2713(10) -0.1817(10) 0.8432(6)
C3A C 0.7124(9) -0.2561(14) 0.8560(7)
C3B C 0.7439(14) 0.2876(9) 0.8560(7)
C3C C 1.2561(14) -0.2876(9) 0.8560(7)
C4A C 0.6599(12) -0.1931(18) 0.8175(7)
C4B C 0.8069(18) 0.3401(12) 0.8175(7)
C4C C 1.1931(18) -0.3401(12) 0.8175(7)
C5A C 0.5564(12) -0.1686(17) 0.8341(8)
C5B C 0.8314(17) 0.4436(12) 0.8341(8)
C5C C 1.1686(17) -0.4436(12) 0.8341(8)
C6A C 0.5072(15) -0.1049(15) 0.7940(7)
C6B C 0.8951(15) 0.4928(15) 0.7940(7)
C6C C 1.1049(15) -0.4928(15) 0.7940(7)
C7A C 0.7899(10) -0.0461(12) 0.5010(8)
C7B C 0.9539(12) 0.2101(10) 0.5010(8)
C7C C 1.0461(12) -0.2101(10) 0.5010(8)
C8A C 0.6818(10) -0.0670(10) 0.4988(7)
C8B C 0.9330(10) 0.3182(10) 0.4988(7)
C8C C 1.0670(10) -0.3182(10) 0.4988(7)
C9A C 0.6596(10) -0.1744(11) 0.5010(8)
C9B C 0.8256(11) 0.3404(10) 0.5010(8)
C9C C 1.1744(11) -0.3404(10) 0.5010(8)
C10A C 0.5549(10) -0.1970(14) 0.4882(7)
C10B C 0.8030(14) 0.4451(10) 0.4882(7)
C10C C 1.1970(14) -0.4451(10) 0.4882(7)
C11A C 0.4836(11) -0.1575(16) 0.5267(7)
C11B C 0.8425(16) 0.5164(11) 0.5267(7)
C11C C 1.1575(16) -0.5164(11) 0.5267(7)
C12A C 0.3800(10) -0.1852(19) 0.5164(9)
C12B C 0.8148(19) 0.6200(10) 0.5164(9)
C12C C 1.1852(19) -0.6200(10) 0.5164(9)
C13A C 0.8310(9) -0.1374(11) 0.1731(10)
C13B C 0.8626(11) 0.1690(9) 0.1731(10)
C13C C 1.1374(11) -0.1690(9) 0.1731(10)
C14A C 0.7461(8) -0.2071(9) 0.1731(10)
C14B C 0.7929(9) 0.2539(8) 0.1731(10)
C14C C 1.2071(9) -0.2539(8) 0.1731(10)
C15A C 0.6487(8) -0.1544(11) 0.1704(11)
C15B C 0.8456(11) 0.3513(8) 0.1704(11)
C15C C 1.1544(11) -0.3513(8) 0.1704(11)
C16A C 0.5677(9) -0.2281(13) 0.1588(9)
C16B C 0.7719(13) 0.4323(9) 0.1588(9)
C16C C 1.2281(13) -0.4323(9) 0.1588(9)
C17A C 0.4706(9) -0.1929(15) 0.1811(8)
C17B C 0.8071(15) 0.5294(9) 0.1811(8)
C17C C 1.1929(15) -0.5294(9) 0.1811(8)
C18A C 0.4327(16) -0.1099(16) 0.1479(8)
C18B C 0.8901(16) 0.5673(16) 0.1479(8)
C18C C 1.1099(16) -0.5673(16) 0.1479(8)
loop_
_geom_bond_atom_site_label_1
_geom_bond_atom_site_label_2
_geom_bond_site_symmetry_1
_geom_bond_site_symmetry_2
Pt1 Pt5 1_555 1_555
Pt2 Pt3 1_555 1_555
Pt3 I2 1_555 1_555
Pt4 Pt6 1_555 1_555
Pt5 I1 1_555 1_555
Pt6 I1 1_555 1_555
I2 Pt4 1_555 1_555
I3 Pt2 1_555 1_555
S1 Pt1 1_555 1_555
S2 Pt5 1_555 1_555
S3 Pt6 1_555 1_555
S4 Pt4 1_555 1_555
S5 Pt3 1_555 1_555
S6 Pt2 1_555 1_555
C1 S1 1_555 1_555
C2 C1 1_555 1_555
C3 C2 1_555 1_555
C4 C3 1_555 1_555
C5 C4 1_555 1_555
C6 C5 1_555 1_555
C7 S3 1_555 1_555
C8 C7 1_555 1_555
C9 C8 1_555 1_555
C10 C9 1_555 1_555
C11 C10 1_555 1_555
C12 C11 1_555 1_555
C13 S5 1_555 1_555
C14 C13 1_555 1_555
C15 C14 1_555 1_555
C16 C15 1_555 1_555
C17 C16 1_555 1_555
C18 C17 1_555 1_555
Pt1_2 I3 1_555 1_555
I3_2 Pt1 1_555 1_555
S1A Pt1 1_555 1_555
S1B Pt1 1_555 1_555
S1C Pt1 1_555 1_555
S2A Pt5 1_555 1_555
S2B Pt5 1_555 1_555
S2C Pt5 1_555 1_555
S3A Pt6 1_555 1_555
S3B Pt6 1_555 1_555
S3C Pt6 1_555 1_555
S4A Pt4 1_555 1_555
S4B Pt4 1_555 1_555
S4C Pt4 1_555 1_555
S5A Pt3 1_555 1_555
S5B Pt3 1_555 1_555
S5C Pt3 1_555 1_555
S6A Pt2 1_555 1_555
S6B Pt2 1_555 1_555
S6C Pt2 1_555 1_555
C1A S1A 1_555 1_555
C1B S1B 1_555 1_555
C1C S1C 1_555 1_555
C2A C1A 1_555 1_555
C2B C1B 1_555 1_555
C2C C1C 1_555 1_555
C3A C2A 1_555 1_555
C3B C2B 1_555 1_555
C3C C2C 1_555 1_555
C4A C3A 1_555 1_555
C4B C3B 1_555 1_555
C4C C3C 1_555 1_555
C5A C4A 1_555 1_555
C5B C4B 1_555 1_555
C5C C4C 1_555 1_555
C6A C5A 1_555 1_555
C6B C5B 1_555 1_555
C6C C5C 1_555 1_555
C7A S3A 1_555 1_555
C7B S3B 1_555 1_555
C7C S3C 1_555 1_555
C8A C7A 1_555 1_555
C8B C7B 1_555 1_555
C8C C7C 1_555 1_555
C9A C8A 1_555 1_555
C9B C8B 1_555 1_555
C9C C8C 1_555 1_555
C10A C9A 1_555 1_555
C10B C9B 1_555 1_555
C10C C9C 1_555 1_555
C11A C10A 1_555 1_555
C11B C10B 1_555 1_555
C11C C10C 1_555 1_555
C12A C11A 1_555 1_555
C12B C11B 1_555 1_555
C12C C11C 1_555 1_555
C13A S5A 1_555 1_555
C13B S5B 1_555 1_555
C13C S5C 1_555 1_555
C14A C13A 1_555 1_555
C14B C13B 1_555 1_555
C14C C13C 1_555 1_555
C15A C14A 1_555 1_555
C15B C14B 1_555 1_555
C15C C14C 1_555 1_555
C16A C15A 1_555 1_555
C16B C15B 1_555 1_555
C16C C15C 1_555 1_555
C17A C16A 1_555 1_555
C17B C16B 1_555 1_555
C17C C16C 1_555 1_555
C18A C17A 1_555 1_555
C18B C17B 1_555 1_555
C18C C17C 1_555 1_555
S2 C1 1_555 1_555
S4 C7 1_555 1_555
S6 C13 1_555 1_555
S2A C1A 1_555 1_555
S2B C1B 1_555 1_555
S2C C1C 1_555 1_555
S4A C7A 1_555 1_555
S4B C7B 1_555 1_555
S4C C7C 1_555 1_555
S6A C13A 1_555 1_555
S6B C13B 1_555 1_555
S6C C13C 1_555 1_555

#END
