
#######################################################################
#
#                 Cambridge Crystallographic Data Centre
#                                CCDC 
#
#######################################################################
#
# If this CIF has been generated from an entry in the Cambridge 
# Structural Database, then it will include bibliographic, chemical, 
# crystal, experimental, refinement or atomic coordinate data resulting 
# from the CCDC's data processing and validation procedures.
#
#######################################################################

data_EPIBIP01
_symmetry_cell_setting           tetragonal
_symmetry_space_group_name_H-M   'I 4'
_symmetry_Int_Tables_number      79
_space_group_name_Hall           'I 4'
loop_
_symmetry_equiv_pos_site_id
_symmetry_equiv_pos_as_xyz
1 x,y,z
2 -x,-y,z
3 -y,x,z
4 y,-x,z
5 1/2+x,1/2+y,1/2+z
6 1/2-x,1/2-y,1/2+z
7 1/2-y,1/2+x,1/2+z
8 1/2+y,1/2-x,1/2+z
_cell_length_a                   14.319(2)
_cell_length_b                   14.319(2)
_cell_length_c                   25.897(2)
_cell_angle_alpha                90
_cell_angle_beta                 90
_cell_angle_gamma                90
_cell_volume                     5309.76
loop_
_atom_site_label
_atom_site_type_symbol
_atom_site_fract_x
_atom_site_fract_y
_atom_site_fract_z
Pt1 Pt 0.0000 0.0000 -0.1147(6)
Pt2 Pt 0.0000 0.0000 0.1147(6)
Pt3 Pt 0.0000 0.0000 0.2180(6)
Pt4 Pt 0.0000 0.0000 -0.5516(6)
Pt5 Pt 0.0000 0.0000 -0.2188(6)
Pt6 Pt 0.0000 0.0000 -0.4476(6)
I1 I 0.0000 0.0000 -0.3363(8)
I2 I 0.0000 0.0000 0.3304(9)
I3 I 0.0000 0.0000 -0.0031(8)
S1 S 0.0688(17) 0.1476(17) -0.1097(10)
S2 S 0.1064(16) 0.1187(16) -0.2237(8)
S3 S 0.1197(15) 0.1122(16) -0.4447(7)
S4 S 0.1432(16) 0.0610(16) -0.5527(10)
S5 S 0.1491(14) 0.0614(17) 0.2220(9)
S6 S 0.1108(14) 0.1109(14) 0.1114(8)
C1 C 0.1006(16) 0.181(2) -0.169(2)
C2 C 0.1601(12) 0.2697(15) -0.1678(17)
C3 C 0.2586(12) 0.251(2) -0.1478(11)
C4 C 0.3142(12) 0.188(2) -0.1840(12)
C5 C 0.4193(11) 0.1984(17) -0.1760(18)
C6 C 0.4712(16) 0.107(2) -0.1840(18)
C7 C 0.1701(10) 0.126(3) -0.498(2)
C8 C 0.2652(12) 0.1734(18) -0.5035(17)
C9 C 0.3453(10) 0.107(2) -0.4909(13)
C10 C 0.4325(11) 0.128(3) -0.5226(9)
C11 C 0.5091(16) 0.173(3) -0.4900(9)
C12 C 0.5946(17) 0.198(3) -0.5214(15)
C13 C 0.1735(10) 0.103(2) 0.163(2)
C14 C 0.2559(9) 0.1706(19) 0.160(3)
C15 C 0.3484(9) 0.1222(19) 0.1721(18)
C16 C 0.4322(9) 0.182(2) 0.1572(16)
C17 C 0.5230(10) 0.145(3) 0.1801(12)
C18 C 0.6084(10) 0.178(3) 0.1505(16)
Pt4_2 Pt 0.0000 0.0000 0.4484(6)
I2_2 I 0.0000 0.0000 -0.6696(9)
S1A S -0.0688(17) -0.1476(17) -0.1097(10)
S1B S -0.1476(17) 0.0688(17) -0.1097(10)
S1C S 0.1476(17) -0.0688(17) -0.1097(10)
S2A S -0.1064(16) -0.1187(16) -0.2237(8)
S2B S -0.1187(16) 0.1064(16) -0.2237(8)
S2C S 0.1187(16) -0.1064(16) -0.2237(8)
S3A S -0.1197(15) -0.1122(16) -0.4447(7)
S3B S -0.1122(16) 0.1197(15) -0.4447(7)
S3C S 0.1122(16) -0.1197(15) -0.4447(7)
S4A S -0.1432(16) -0.0610(16) -0.5527(10)
S4B S -0.0610(16) 0.1432(16) -0.5527(10)
S4C S 0.0610(16) -0.1432(16) -0.5527(10)
S5A S -0.1491(14) -0.0614(17) 0.2220(9)
S5B S -0.0614(17) 0.1491(14) 0.2220(9)
S5C S 0.0614(17) -0.1491(14) 0.2220(9)
S6A S -0.1108(14) -0.1109(14) 0.1114(8)
S6B S -0.1109(14) 0.1108(14) 0.1114(8)
S6C S 0.1109(14) -0.1108(14) 0.1114(8)
C1A C -0.1006(16) -0.181(2) -0.169(2)
C1B C -0.181(2) 0.1006(16) -0.169(2)
C1C C 0.181(2) -0.1006(16) -0.169(2)
C2A C -0.1601(12) -0.2697(15) -0.1678(17)
C2B C -0.2697(15) 0.1601(12) -0.1678(17)
C2C C 0.2697(15) -0.1601(12) -0.1678(17)
C3A C -0.2586(12) -0.251(2) -0.1478(11)
C3B C -0.251(2) 0.2586(12) -0.1478(11)
C3C C 0.251(2) -0.2586(12) -0.1478(11)
C4A C -0.3142(12) -0.188(2) -0.1840(12)
C4B C -0.188(2) 0.3142(12) -0.1840(12)
C4C C 0.188(2) -0.3142(12) -0.1840(12)
C5A C -0.4193(11) -0.1984(17) -0.1760(18)
C5B C -0.1984(17) 0.4193(11) -0.1760(18)
C5C C 0.1984(17) -0.4193(11) -0.1760(18)
C6A C -0.4712(16) -0.107(2) -0.1840(18)
C6B C -0.107(2) 0.4712(16) -0.1840(18)
C6C C 0.107(2) -0.4712(16) -0.1840(18)
C7A C -0.1701(10) -0.126(3) -0.498(2)
C7B C -0.126(3) 0.1701(10) -0.498(2)
C7C C 0.126(3) -0.1701(10) -0.498(2)
C8A C -0.2652(12) -0.1734(18) -0.5035(17)
C8B C -0.1734(18) 0.2652(12) -0.5035(17)
C8C C 0.1734(18) -0.2652(12) -0.5035(17)
C9A C -0.3453(10) -0.107(2) -0.4909(13)
C9B C -0.107(2) 0.3453(10) -0.4909(13)
C9C C 0.107(2) -0.3453(10) -0.4909(13)
C10A C -0.4325(11) -0.128(3) -0.5226(9)
C10B C -0.128(3) 0.4325(11) -0.5226(9)
C10C C 0.128(3) -0.4325(11) -0.5226(9)
C11A C -0.5091(16) -0.173(3) -0.4900(9)
C11B C -0.173(3) 0.5091(16) -0.4900(9)
C11C C 0.173(3) -0.5091(16) -0.4900(9)
C12A C -0.5946(17) -0.198(3) -0.5214(15)
C12B C -0.198(3) 0.5946(17) -0.5214(15)
C12C C 0.198(3) -0.5946(17) -0.5214(15)
C13A C -0.1735(10) -0.103(2) 0.163(2)
C13B C -0.103(2) 0.1735(10) 0.163(2)
C13C C 0.103(2) -0.1735(10) 0.163(2)
C14A C -0.2559(9) -0.1706(19) 0.160(3)
C14B C -0.1706(19) 0.2559(9) 0.160(3)
C14C C 0.1706(19) -0.2559(9) 0.160(3)
C15A C -0.3484(9) -0.1222(19) 0.1721(18)
C15B C -0.1222(19) 0.3484(9) 0.1721(18)
C15C C 0.1222(19) -0.3484(9) 0.1721(18)
C16A C -0.4322(9) -0.182(2) 0.1572(16)
C16B C -0.182(2) 0.4322(9) 0.1572(16)
C16C C 0.182(2) -0.4322(9) 0.1572(16)
C17A C -0.5230(10) -0.145(3) 0.1801(12)
C17B C -0.145(3) 0.5230(10) 0.1801(12)
C17C C 0.145(3) -0.5230(10) 0.1801(12)
C18A C -0.6084(10) -0.178(3) 0.1505(16)
C18B C -0.178(3) 0.6084(10) 0.1505(16)
C18C C 0.178(3) -0.6084(10) 0.1505(16)
loop_
_geom_bond_atom_site_label_1
_geom_bond_atom_site_label_2
_geom_bond_site_symmetry_1
_geom_bond_site_symmetry_2
Pt1 Pt5 1_555 1_555
Pt2 Pt3 1_555 1_555
Pt3 I2 1_555 1_555
Pt4 Pt6 1_555 1_555
Pt5 I1 1_555 1_555
Pt6 I1 1_555 1_555
I2 Pt4_2 1_555 1_555
I3 Pt1 1_555 1_555
S1 Pt1 1_555 1_555
S2 Pt5 1_555 1_555
S3 Pt6 1_555 1_555
S4 Pt4 1_555 1_555
S5 Pt3 1_555 1_555
S6 Pt2 1_555 1_555
C1 S1 1_555 1_555
C2 C1 1_555 1_555
C3 C2 1_555 1_555
C4 C3 1_555 1_555
C5 C4 1_555 1_555
C6 C5 1_555 1_555
C7 S3 1_555 1_555
C8 C7 1_555 1_555
C9 C8 1_555 1_555
C10 C9 1_555 1_555
C11 C10 1_555 1_555
C12 C11 1_555 1_555
C13 S5 1_555 1_555
C14 C13 1_555 1_555
C15 C14 1_555 1_555
C16 C15 1_555 1_555
C17 C16 1_555 1_555
C18 C17 1_555 1_555
I2_2 Pt4 1_555 1_555
S1A Pt1 1_555 1_555
S1B Pt1 1_555 1_555
S1C Pt1 1_555 1_555
S2A Pt5 1_555 1_555
S2B Pt5 1_555 1_555
S2C Pt5 1_555 1_555
S3A Pt6 1_555 1_555
S3B Pt6 1_555 1_555
S3C Pt6 1_555 1_555
S4A Pt4 1_555 1_555
S4B Pt4 1_555 1_555
S4C Pt4 1_555 1_555
S5A Pt3 1_555 1_555
S5B Pt3 1_555 1_555
S5C Pt3 1_555 1_555
S6A Pt2 1_555 1_555
S6B Pt2 1_555 1_555
S6C Pt2 1_555 1_555
C1A S1A 1_555 1_555
C1B S1B 1_555 1_555
C1C S1C 1_555 1_555
C2A C1A 1_555 1_555
C2B C1B 1_555 1_555
C2C C1C 1_555 1_555
C3A C2A 1_555 1_555
C3B C2B 1_555 1_555
C3C C2C 1_555 1_555
C4A C3A 1_555 1_555
C4B C3B 1_555 1_555
C4C C3C 1_555 1_555
C5A C4A 1_555 1_555
C5B C4B 1_555 1_555
C5C C4C 1_555 1_555
C6A C5A 1_555 1_555
C6B C5B 1_555 1_555
C6C C5C 1_555 1_555
C7A S3A 1_555 1_555
C7B S3B 1_555 1_555
C7C S3C 1_555 1_555
C8A C7A 1_555 1_555
C8B C7B 1_555 1_555
C8C C7C 1_555 1_555
C9A C8A 1_555 1_555
C9B C8B 1_555 1_555
C9C C8C 1_555 1_555
C10A C9A 1_555 1_555
C10B C9B 1_555 1_555
C10C C9C 1_555 1_555
C11A C10A 1_555 1_555
C11B C10B 1_555 1_555
C11C C10C 1_555 1_555
C12A C11A 1_555 1_555
C12B C11B 1_555 1_555
C12C C11C 1_555 1_555
C13A S5A 1_555 1_555
C13B S5B 1_555 1_555
C13C S5C 1_555 1_555
C14A C13A 1_555 1_555
C14B C13B 1_555 1_555
C14C C13C 1_555 1_555
C15A C14A 1_555 1_555
C15B C14B 1_555 1_555
C15C C14C 1_555 1_555
C16A C15A 1_555 1_555
C16B C15B 1_555 1_555
C16C C15C 1_555 1_555
C17A C16A 1_555 1_555
C17B C16B 1_555 1_555
C17C C16C 1_555 1_555
C18A C17A 1_555 1_555
C18B C17B 1_555 1_555
C18C C17C 1_555 1_555
Pt2 I3 1_555 1_555
S2 C1 1_555 1_555
S4 C7 1_555 1_555
S6 C13 1_555 1_555
S2A C1A 1_555 1_555
S2B C1B 1_555 1_555
S2C C1C 1_555 1_555
S4A C7A 1_555 1_555
S4B C7B 1_555 1_555
S4C C7C 1_555 1_555
S6A C13A 1_555 1_555
S6B C13B 1_555 1_555
S6C C13C 1_555 1_555

#END
