
#######################################################################
#
#                 Cambridge Crystallographic Data Centre
#                                CCDC 
#
#######################################################################
#
# If this CIF has been generated from an entry in the Cambridge 
# Structural Database, then it will include bibliographic, chemical, 
# crystal, experimental, refinement or atomic coordinate data resulting 
# from the CCDC's data processing and validation procedures.
#
#######################################################################

data_EPICAI
_symmetry_cell_setting           orthorhombic
_symmetry_space_group_name_H-M   'P c a 21'
_symmetry_Int_Tables_number      29
_space_group_name_Hall           'P 2c -2ac'
loop_
_symmetry_equiv_pos_site_id
_symmetry_equiv_pos_as_xyz
1 x,y,z
2 -x,-y,1/2+z
3 1/2+x,-y,z
4 1/2-x,y,1/2+z
_cell_length_a                   13.325(3)
_cell_length_b                   13.696(3)
_cell_length_c                   12.507(3)
_cell_angle_alpha                90
_cell_angle_beta                 90
_cell_angle_gamma                90
_cell_volume                     2282.52
loop_
_atom_site_label
_atom_site_type_symbol
_atom_site_fract_x
_atom_site_fract_y
_atom_site_fract_z
Ag1 Ag 0.07016(4) 0.73829(3) 0.73992(6)
Ag2 Ag 0.17160(3) 0.66985(3) 0.23662(4)
Ag3 Ag 0.32515(3) 0.33346(4) 0.65720(4)
C1 C 0.1241(5) 0.7342(4) 0.4841(5)
C2 C 0.2085(6) 0.8518(5) 0.3927(6)
H1 H 0.2350 0.8761 0.3293
C3 C 0.2207(7) 0.9056(5) 0.4854(7)
H2 H 0.2551 0.9647 0.4859
C4 C 0.1804(5) 0.8680(5) 0.5745(6)
H3 H 0.1864 0.9036 0.6375
C5 C 0.0877(4) 0.7039(5) 0.9980(5)
C6 C 0.0242(6) 0.8095(6) 1.1233(6)
H4 H 0.0198 0.8308 1.1938
C7 C -0.0283(7) 0.8584(6) 1.0484(8)
H5 H -0.0705 0.9101 1.0656
C8 C -0.0155(7) 0.8270(5) 0.9451(8)
H6 H -0.0493 0.8602 0.8912
C9 C 0.2441(4) 0.3089(4) 0.9039(5)
C10 C 0.1422(6) 0.1885(5) 0.9656(6)
H7 H 0.1033 0.1616 1.0198
C11 C 0.1455(6) 0.1419(5) 0.8696(7)
H8 H 0.1118 0.0834 0.8582
C12 C 0.2013(6) 0.1856(5) 0.7900(6)
H9 H 0.2056 0.1551 0.7237
C13 C 0.1747(3) 0.5133(5) 0.6938(6)
C14 C 0.0816(4) 0.4505(5) 0.7099(7)
H10 H 0.0920 0.4078 0.7708
H11 H 0.0719 0.4097 0.6474
C15 C -0.0120(4) 0.5105(4) 0.7283(6)
N1 N 0.0757(4) 0.6499(4) 0.4834(5)
H12 H 0.0686 0.6182 0.4245
H13 H 0.0514 0.6267 0.5418
N2 N 0.1325(4) 0.7834(4) 0.5784(4)
N3 N 0.1607(4) 0.7674(4) 0.3906(5)
N4 N 0.1411(4) 0.6246(4) 0.9755(4)
H14 H 0.1462 0.6048 0.9105
H15 H 0.1706 0.5930 1.0260
N5 N 0.0424(4) 0.7519(4) 0.9174(5)
N6 N 0.0815(4) 0.7332(4) 1.1025(5)
N7 N 0.2923(4) 0.3935(4) 0.9222(5)
H16 H 0.2888 0.4206 0.9841
H17 H 0.3266 0.4205 0.8720
N8 N 0.2492(4) 0.2699(3) 0.8046(5)
N9 N 0.1919(4) 0.2706(4) 0.9857(5)
N10 N -0.0778(6) 0.9511(5) 0.7115(6)
O1 O 0.2336(3) 0.4958(3) 0.6205(3)
O2 O 0.1860(3) 0.5824(3) 0.7606(3)
O3 O -0.0726(3) 0.4826(3) 0.7982(4)
O4 O -0.0240(3) 0.5843(3) 0.6695(4)
O5 O -0.0027(10) 0.9862(7) 0.7475(9)
O6 O -0.1518(7) 0.9940(5) 0.6790(8)
O7 O -0.0780(4) 0.8609(5) 0.6995(5)
Ag2_2 Ag 0.17160(3) 0.66985(3) 1.23662(4)
Ag2C Ag 0.32840(3) 0.66985(3) 0.73662(4)
Ag2A Ag -0.17160(3) 0.33015(3) 0.73662(4)
Ag3C Ag 0.17485(3) 0.33346(4) 1.15720(4)
Ag3B Ag -0.17485(3) 0.66654(4) 0.65720(4)
N6_2 N 0.0815(4) 0.7332(4) 0.1025(5)
N9C N 0.3081(4) 0.2706(4) 0.4857(5)
O2C O 0.3140(3) 0.5824(3) 0.2606(3)
O3A O 0.0726(3) 0.5174(3) 0.2982(4)
O4B O 0.4760(3) 0.4157(3) 0.6695(4)
loop_
_geom_bond_atom_site_label_1
_geom_bond_atom_site_label_2
_geom_bond_site_symmetry_1
_geom_bond_site_symmetry_2
Ag1 N2 1_555 1_555
Ag2 N3 1_555 1_555
Ag3 N8 1_555 1_555
C1 N1 1_555 1_555
C2 H1 1_555 1_555
C3 C2 1_555 1_555
H2 C3 1_555 1_555
C4 C3 1_555 1_555
H3 C4 1_555 1_555
C5 N4 1_555 1_555
C6 H4 1_555 1_555
C7 C6 1_555 1_555
H5 C7 1_555 1_555
C8 C7 1_555 1_555
H6 C8 1_555 1_555
C9 N7 1_555 1_555
C10 H7 1_555 1_555
C11 C10 1_555 1_555
H8 C11 1_555 1_555
C12 C11 1_555 1_555
H9 C12 1_555 1_555
C13 C14 1_555 1_555
C14 H10 1_555 1_555
H11 C14 1_555 1_555
C15 C14 1_555 1_555
N1 H12 1_555 1_555
H13 N1 1_555 1_555
N2 C1 1_555 1_555
N3 C1 1_555 1_555
N4 H14 1_555 1_555
H15 N4 1_555 1_555
N5 Ag1 1_555 1_555
N6 C5 1_555 1_555
N7 H16 1_555 1_555
H17 N7 1_555 1_555
N8 C9 1_555 1_555
N9 C9 1_555 1_555
N10 O5 1_555 1_555
O1 Ag3 1_555 1_555
O2 Ag1 1_555 1_555
O3 C15 1_555 1_555
O4 Ag1 1_555 1_555
O6 N10 1_555 1_555
O7 Ag1 1_555 1_555
Ag2_2 N6 1_555 1_555
Ag2C O2 1_555 1_555
Ag2A O3 1_555 1_555
Ag3C N9 1_555 1_555
Ag3B O4 1_555 1_555
N6_2 Ag2 1_555 1_555
N9C Ag3 1_555 1_555
O2C Ag2 1_555 1_555
O3A Ag2 1_555 1_555
O4B Ag3 1_555 1_555
C2 N3 1_555 1_555
C4 N2 1_555 1_555
C5 N5 1_555 1_555
C6 N6 1_555 1_555
C8 N5 1_555 1_555
C10 N9 1_555 1_555
C12 N8 1_555 1_555
C13 O1 1_555 1_555
C13 O2 1_555 1_555
C15 O4 1_555 1_555
N10 O7 1_555 1_555

#END
