
#######################################################################
#
#                 Cambridge Crystallographic Data Centre
#                                CCDC 
#
#######################################################################
#
# If this CIF has been generated from an entry in the Cambridge 
# Structural Database, then it will include bibliographic, chemical, 
# crystal, experimental, refinement or atomic coordinate data resulting 
# from the CCDC's data processing and validation procedures.
#
#######################################################################

data_EPISOM
_symmetry_cell_setting           tetragonal
_symmetry_space_group_name_H-M   'P 4/n c c'
_symmetry_Int_Tables_number      130
_space_group_name_Hall           '-P 4a 2ac'
loop_
_symmetry_equiv_pos_site_id
_symmetry_equiv_pos_as_xyz
1 x,y,z
2 1/2-x,1/2-y,z
3 1/2-y,x,z
4 y,1/2-x,z
5 -x,1/2+y,1/2-z
6 1/2+x,-y,1/2-z
7 1/2+y,1/2+x,1/2-z
8 -y,-x,1/2-z
9 -x,-y,-z
10 1/2+x,1/2+y,-z
11 1/2+y,-x,-z
12 -y,1/2+x,-z
13 x,1/2-y,1/2+z
14 1/2-x,y,1/2+z
15 1/2-y,1/2-x,1/2+z
16 y,x,1/2+z
_cell_length_a                   18.900(3)
_cell_length_b                   18.900(3)
_cell_length_c                   33.561(7)
_cell_angle_alpha                90
_cell_angle_beta                 90
_cell_angle_gamma                90
_cell_volume                     11988.3
loop_
_atom_site_label
_atom_site_type_symbol
_atom_site_fract_x
_atom_site_fract_y
_atom_site_fract_z
Cu1 Cu 0.04988(3) 0.48508(2) 0.219622(15)
C1 C 0.2500 0.7500 0.0000
O1 O 0.05577(16) 0.58454(15) 0.20193(8)
O2 O -0.00547(14) 0.63711(15) 0.25159(9)
C2 C 0.1886(3) 0.7616(3) 0.02890(14)
C3 C 0.1863(2) 0.8233(2) 0.05244(14)
H1 H 0.2146 0.8618 0.0456
O3 O -0.02585(14) 0.89934(15) 0.24876(9)
C4 C 0.1430(3) 0.8279(2) 0.08543(14)
H2 H 0.1414 0.8700 0.0997
O4 O 0.02024(16) 0.95738(14) 0.19561(8)
O5 O 0.09571(15) 0.43230(15) 0.16920(9)
C5 C 0.1013(3) 0.7706(3) 0.09799(14)
C6 C 0.0994(2) 0.7109(3) 0.07296(14)
H3 H 0.0689 0.6737 0.0790
C7 C 0.1421(3) 0.7065(3) 0.03951(15)
H4 H 0.1399 0.6662 0.0237
C8 C 0.0660(3) 0.7714(2) 0.13707(14)
C9 C 0.0458(2) 0.8327(2) 0.15591(15)
H5 H 0.0505 0.8754 0.1425
C10 C 0.0183(2) 0.8331(2) 0.19437(14)
C11 C 0.0104(3) 0.7692(2) 0.21349(14)
H6 H -0.0096 0.7689 0.2388
C12 C 0.0307(2) 0.7051(2) 0.19661(14)
C13 C 0.0586(2) 0.7072(2) 0.15777(15)
H7 H 0.0723 0.6652 0.1455
C14 C 0.0019(2) 0.9007(2) 0.21502(18)
C15 C 0.0267(2) 0.6372(2) 0.21828(17)
Cu1A Cu 0.45012(3) 1.01492(2) 0.219622(15)
Cu1K Cu 0.51492(2) 0.54988(3) -0.219622(15)
Cu1J Cu -0.01492(2) 0.95012(3) -0.219622(15)
Cu1F Cu -0.01492(2) 0.54988(3) 0.280378(15)
Cu1D Cu -0.04988(3) 0.98508(2) 0.280378(15)
Cu1B Cu 0.01492(2) 1.04988(3) 0.219622(15)
Cu1E Cu 0.54988(3) 0.51492(2) 0.280378(15)
Cu1C Cu 0.48508(2) 0.45012(3) 0.219622(15)
Cu1G Cu 0.51492(2) 0.95012(3) 0.280378(15)
Cu1N Cu 0.01492(2) 0.45012(3) -0.280378(15)
Cu1H Cu -0.04988(3) 0.51492(2) -0.219622(15)
Cu1M Cu 0.45012(3) 0.48508(2) -0.280378(15)
Cu1O Cu 0.48508(2) 1.04988(3) -0.280378(15)
Cu1I Cu 0.54988(3) 0.98508(2) -0.219622(15)
Cu1L Cu 0.04988(3) 1.01492(2) -0.280378(15)
O1A O 0.44423(16) 0.91546(15) 0.20193(8)
O1K O 0.41546(15) 0.55577(16) -0.20193(8)
O1J O 0.08454(15) 0.94423(16) -0.20193(8)
O1F O 0.08454(15) 0.55577(16) 0.29807(8)
O1D O -0.05577(16) 1.08454(15) 0.29807(8)
O1G O 0.41546(15) 0.94423(16) 0.29807(8)
O2A O 0.50547(14) 0.86289(15) 0.25159(9)
O2K O 0.36289(15) 0.49453(14) -0.25159(9)
O2J O 0.13711(15) 1.00547(14) -0.25159(9)
O2F O 0.13711(15) 0.49453(14) 0.24841(9)
O2B O -0.13711(15) 0.99453(14) 0.25159(9)
C2A C 0.3114(3) 0.7384(3) 0.02890(14)
C2K C 0.2384(3) 0.6886(3) -0.02890(14)
C2J C 0.2616(3) 0.8114(3) -0.02890(14)
C3A C 0.3137(2) 0.6767(2) 0.05244(14)
C3K C 0.1767(2) 0.6863(2) -0.05244(14)
C3J C 0.3233(2) 0.8137(2) -0.05244(14)
H1A H 0.2854 0.6382 0.0456
H1K H 0.1382 0.7146 -0.0456
H1J H 0.3618 0.7854 -0.0456
O3A O 0.52585(14) 0.60066(15) 0.24876(9)
O3K O 0.10066(15) 0.47415(14) -0.24876(9)
O3J O 0.39934(15) 1.02585(14) -0.24876(9)
O3D O 0.02585(14) 0.39934(15) 0.25124(9)
O3C O -0.10066(15) 0.52585(14) 0.24876(9)
O3B O 0.60066(15) 0.97415(14) 0.24876(9)
C4A C 0.3570(3) 0.6721(2) 0.08543(14)
C4K C 0.1721(2) 0.6430(3) -0.08543(14)
C4J C 0.3279(2) 0.8570(3) -0.08543(14)
H2A H 0.3586 0.6300 0.0997
H2K H 0.1300 0.6414 -0.0997
H2J H 0.3700 0.8586 -0.0997
O4A O 0.47976(16) 0.54262(14) 0.19561(8)
O4K O 0.04262(14) 0.52024(16) -0.19561(8)
O4J O 0.45738(14) 0.97976(16) -0.19561(8)
O4C O -0.04262(14) 0.47976(16) 0.19561(8)
O4D O -0.02024(16) 0.45738(14) 0.30439(8)
O4G O 0.04262(14) 0.97976(16) 0.30439(8)
O4E O 0.52024(16) 1.04262(14) 0.30439(8)
O5F O -0.06770(15) 0.59571(15) 0.33080(9)
O5D O -0.09571(15) 0.93230(15) 0.33080(9)
O5G O 0.56770(15) 0.90429(15) 0.33080(9)
C5A C 0.3987(3) 0.7294(3) 0.09799(14)
C5K C 0.2294(3) 0.6013(3) -0.09799(14)
C5J C 0.2706(3) 0.8987(3) -0.09799(14)
C6A C 0.4006(2) 0.7891(3) 0.07296(14)
C6K C 0.2891(3) 0.5994(2) -0.07296(14)
C6J C 0.2109(3) 0.9006(2) -0.07296(14)
H3A H 0.4311 0.8263 0.0790
H3K H 0.3263 0.5689 -0.0790
H3J H 0.1737 0.9311 -0.0790
C7A C 0.3579(3) 0.7935(3) 0.03951(15)
C7K C 0.2935(3) 0.6421(3) -0.03951(15)
C7J C 0.2065(3) 0.8579(3) -0.03951(15)
H4A H 0.3601 0.8338 0.0237
H4K H 0.3338 0.6399 -0.0237
H4J H 0.1662 0.8601 -0.0237
C8A C 0.4340(3) 0.7286(2) 0.13707(14)
C8K C 0.2286(2) 0.5660(3) -0.13707(14)
C8J C 0.2714(2) 0.9340(3) -0.13707(14)
C9A C 0.4542(2) 0.6673(2) 0.15591(15)
C9K C 0.1673(2) 0.5458(2) -0.15591(15)
C9J C 0.3327(2) 0.9542(2) -0.15591(15)
H5A H 0.4495 0.6246 0.1425
H5K H 0.1246 0.5505 -0.1425
H5J H 0.3754 0.9495 -0.1425
C10A C 0.4817(2) 0.6669(2) 0.19437(14)
C10K C 0.1669(2) 0.5183(2) -0.19437(14)
C10J C 0.3331(2) 0.9817(2) -0.19437(14)
C11A C 0.4896(3) 0.7308(2) 0.21349(14)
C11K C 0.2308(2) 0.5104(3) -0.21349(14)
C11J C 0.2692(2) 0.9896(3) -0.21349(14)
H6A H 0.5096 0.7311 0.2388
H6K H 0.2311 0.4904 -0.2388
H6J H 0.2689 1.0096 -0.2388
C12A C 0.4693(2) 0.7949(2) 0.19661(14)
C12K C 0.2949(2) 0.5307(2) -0.19661(14)
C12J C 0.2051(2) 0.9693(2) -0.19661(14)
C13A C 0.4414(2) 0.7928(2) 0.15777(15)
C13K C 0.2928(2) 0.5586(2) -0.15777(15)
C13J C 0.2072(2) 0.9414(2) -0.15777(15)
H7A H 0.4277 0.8348 0.1455
H7K H 0.3348 0.5723 -0.1455
H7J H 0.1652 0.9277 -0.1455
C14A C 0.4981(2) 0.5993(2) 0.21502(18)
C14K C 0.0993(2) 0.5019(2) -0.21502(18)
C14J C 0.4007(2) 0.9981(2) -0.21502(18)
C15A C 0.4733(2) 0.8628(2) 0.21828(17)
C15K C 0.3628(2) 0.5267(2) -0.21828(17)
C15J C 0.1372(2) 0.9733(2) -0.21828(17)
loop_
_geom_bond_atom_site_label_1
_geom_bond_atom_site_label_2
_geom_bond_site_symmetry_1
_geom_bond_site_symmetry_2
Cu1 O1 1_555 1_555
C1 C2 1_555 1_555
O1 C15 1_555 1_555
O2 C15 1_555 1_555
C2 C3 1_555 1_555
C3 H1 1_555 1_555
O3 C14 1_555 1_555
C4 C3 1_555 1_555
H2 C4 1_555 1_555
O4 C14 1_555 1_555
O5 Cu1 1_555 1_555
C5 C4 1_555 1_555
C6 C5 1_555 1_555
H3 C6 1_555 1_555
C7 C2 1_555 1_555
H4 C7 1_555 1_555
C8 C5 1_555 1_555
C9 C8 1_555 1_555
H5 C9 1_555 1_555
C10 C9 1_555 1_555
C11 C10 1_555 1_555
H6 C11 1_555 1_555
C12 C11 1_555 1_555
C13 C8 1_555 1_555
H7 C13 1_555 1_555
C14 C10 1_555 1_555
C15 C12 1_555 1_555
Cu1A Cu1G 1_555 1_555
Cu1K Cu1M 1_555 1_555
Cu1J Cu1L 1_555 1_555
Cu1F Cu1 1_555 1_555
Cu1D O3 1_555 1_555
Cu1B O4 1_555 1_555
Cu1E Cu1C 1_555 1_555
Cu1C O4A 1_555 1_555
Cu1G O1G 1_555 1_555
Cu1N Cu1H 1_555 1_555
Cu1H O4K 1_555 1_555
Cu1M O2K 1_555 1_555
Cu1O Cu1I 1_555 1_555
Cu1I O4J 1_555 1_555
Cu1L O2J 1_555 1_555
O1A Cu1A 1_555 1_555
O1K Cu1K 1_555 1_555
O1J Cu1J 1_555 1_555
O1F Cu1F 1_555 1_555
O1D Cu1D 1_555 1_555
O2A Cu1G 1_555 1_555
O2K C15K 1_555 1_555
O2J C15J 1_555 1_555
O2F Cu1 1_555 1_555
O2B Cu1D 1_555 1_555
C2A C1 1_555 1_555
C2K C1 1_555 1_555
C2J C1 1_555 1_555
C3A C2A 1_555 1_555
C3K C2K 1_555 1_555
C3J C2J 1_555 1_555
H1A C3A 1_555 1_555
H1K C3K 1_555 1_555
H1J C3J 1_555 1_555
O3A Cu1E 1_555 1_555
O3K Cu1N 1_555 1_555
O3J Cu1O 1_555 1_555
O3D Cu1 1_555 1_555
O3C Cu1F 1_555 1_555
O3B Cu1G 1_555 1_555
C4A C3A 1_555 1_555
C4K C3K 1_555 1_555
C4J C3J 1_555 1_555
H2A C4A 1_555 1_555
H2K C4K 1_555 1_555
H2J C4J 1_555 1_555
O4A C14A 1_555 1_555
O4K C14K 1_555 1_555
O4J C14J 1_555 1_555
O4C Cu1 1_555 1_555
O4D Cu1F 1_555 1_555
O4G Cu1D 1_555 1_555
O4E Cu1G 1_555 1_555
O5F Cu1F 1_555 1_555
O5D Cu1D 1_555 1_555
O5G Cu1G 1_555 1_555
C5A C4A 1_555 1_555
C5K C4K 1_555 1_555
C5J C4J 1_555 1_555
C6A C5A 1_555 1_555
C6K C5K 1_555 1_555
C6J C5J 1_555 1_555
H3A C6A 1_555 1_555
H3K C6K 1_555 1_555
H3J C6J 1_555 1_555
C7A C2A 1_555 1_555
C7K C2K 1_555 1_555
C7J C2J 1_555 1_555
H4A C7A 1_555 1_555
H4K C7K 1_555 1_555
H4J C7J 1_555 1_555
C8A C5A 1_555 1_555
C8K C5K 1_555 1_555
C8J C5J 1_555 1_555
C9A C8A 1_555 1_555
C9K C8K 1_555 1_555
C9J C8J 1_555 1_555
H5A C9A 1_555 1_555
H5K C9K 1_555 1_555
H5J C9J 1_555 1_555
C10A C9A 1_555 1_555
C10K C9K 1_555 1_555
C10J C9J 1_555 1_555
C11A C10A 1_555 1_555
C11K C10K 1_555 1_555
C11J C10J 1_555 1_555
H6A C11A 1_555 1_555
H6K C11K 1_555 1_555
H6J C11J 1_555 1_555
C12A C11A 1_555 1_555
C12K C11K 1_555 1_555
C12J C11J 1_555 1_555
C13A C8A 1_555 1_555
C13K C8K 1_555 1_555
C13J C8J 1_555 1_555
H7A C13A 1_555 1_555
H7K C13K 1_555 1_555
H7J C13J 1_555 1_555
C14A O3A 1_555 1_555
C14K O3K 1_555 1_555
C14J O3J 1_555 1_555
C15A O1A 1_555 1_555
C15K O1K 1_555 1_555
C15J O1J 1_555 1_555
O2 Cu1F 1_555 1_555
C6 C7 1_555 1_555
C12 C13 1_555 1_555
Cu1D Cu1B 1_555 1_555
O2A C15A 1_555 1_555
C6A C7A 1_555 1_555
C6K C7K 1_555 1_555
C6J C7J 1_555 1_555
C10A C14A 1_555 1_555
C10K C14K 1_555 1_555
C10J C14J 1_555 1_555
C12A C13A 1_555 1_555
C12A C15A 1_555 1_555
C12K C13K 1_555 1_555
C12K C15K 1_555 1_555
C12J C13J 1_555 1_555
C12J C15J 1_555 1_555

#END
