
#######################################################################
#
#                 Cambridge Crystallographic Data Centre
#                                CCDC 
#
#######################################################################
#
# If this CIF has been generated from an entry in the Cambridge 
# Structural Database, then it will include bibliographic, chemical, 
# crystal, experimental, refinement or atomic coordinate data resulting 
# from the CCDC's data processing and validation procedures.
#
#######################################################################

data_EPIXEH
_symmetry_cell_setting           monoclinic
_symmetry_space_group_name_H-M   'P 21/c'
_symmetry_Int_Tables_number      14
_space_group_name_Hall           '-P 2ybc'
loop_
_symmetry_equiv_pos_site_id
_symmetry_equiv_pos_as_xyz
1 x,y,z
2 -x,1/2+y,1/2-z
3 -x,-y,-z
4 x,1/2-y,1/2+z
_cell_length_a                   7.0960(12)
_cell_length_b                   12.071(2)
_cell_length_c                   22.767(4)
_cell_angle_alpha                90
_cell_angle_beta                 90.338(3)
_cell_angle_gamma                90
_cell_volume                     1950.09
loop_
_atom_site_label
_atom_site_type_symbol
_atom_site_fract_x
_atom_site_fract_y
_atom_site_fract_z
Zn1 Zn 0.23648(9) 0.47885(6) 0.48398(3)
O1 O -0.0391(5) 0.4025(3) 0.49346(19)
O2 O -0.2031(6) 0.2466(4) 0.4846(2)
O3 O 0.4113(5) 0.5111(4) 0.54887(17)
O4 O 0.2474(6) 0.4301(5) 0.6195(2)
N1 N 0.2801(6) 0.3070(4) 0.4707(2)
N2 N 0.4203(6) 0.2409(4) 0.4527(2)
H1 H 0.5358 0.2616 0.4499
N3 N 0.7373(6) 0.4580(4) 0.6013(2)
N4 N 0.8755(7) 0.4160(4) 0.6359(2)
H2 H 0.9936 0.4180 0.6277
C1 C -0.0560(8) 0.2984(5) 0.4837(3)
C2 C 0.1263(8) 0.2439(5) 0.4689(3)
C3 C 0.1680(8) 0.1367(5) 0.4509(3)
H3 H 0.0851 0.0774 0.4473
C4 C 0.3585(8) 0.1373(5) 0.4396(3)
C5 C 0.4821(9) 0.0489(5) 0.4169(3)
C6 C 0.4345(11) -0.0595(6) 0.4263(3)
H4 H 0.3277 -0.0766 0.4480
C7 C 0.5450(14) -0.1439(7) 0.4037(4)
H5 H 0.5120 -0.2174 0.4104
C8 C 0.7030(15) -0.1197(9) 0.3716(4)
H6 H 0.7777 -0.1764 0.3568
C9 C 0.7492(12) -0.0118(8) 0.3617(4)
H7 H 0.8554 0.0050 0.3396
C10 C 0.6395(10) 0.0731(7) 0.3841(3)
H8 H 0.6721 0.1465 0.3769
C11 C 0.3965(7) 0.4622(5) 0.5987(3)
C12 C 0.5773(7) 0.4382(5) 0.6281(3)
C13 C 0.6099(8) 0.3842(6) 0.6815(3)
H9 H 0.5203 0.3622 0.7088
C14 C 0.8021(8) 0.3703(6) 0.6853(3)
C15 C 0.9182(9) 0.3142(6) 0.7304(3)
C16 C 1.0936(10) 0.3504(8) 0.7454(3)
H10 H 1.1448 0.4114 0.7263
C17 C 1.1973(11) 0.2966(9) 0.7893(3)
H11 H 1.3170 0.3217 0.7995
C18 C 1.1216(14) 0.2071(9) 0.8170(4)
H12 H 1.1924 0.1684 0.8447
C19 C 0.9458(15) 0.1748(8) 0.8045(4)
H13 H 0.8923 0.1171 0.8257
C20 C 0.8418(12) 0.2256(7) 0.7604(4)
H14 H 0.7216 0.2003 0.7511
Zn1B Zn -0.23648(9) 0.52115(6) 0.51602(3)
Zn1B_2 Zn 0.76352(9) 0.52115(6) 0.51602(3)
O1B O 0.0391(5) 0.5975(3) 0.50654(19)
N3B N 0.2627(6) 0.5420(4) 0.3987(2)
loop_
_geom_bond_atom_site_label_1
_geom_bond_atom_site_label_2
_geom_bond_site_symmetry_1
_geom_bond_site_symmetry_2
Zn1 O1 1_555 1_555
O1 C1 1_555 1_555
O2 C1 1_555 1_555
O3 Zn1 1_555 1_555
O4 C11 1_555 1_555
N1 Zn1 1_555 1_555
N2 N1 1_555 1_555
H1 N2 1_555 1_555
N3 N4 1_555 1_555
N4 H2 1_555 1_555
C1 C2 1_555 1_555
C2 N1 1_555 1_555
C3 C2 1_555 1_555
H3 C3 1_555 1_555
C4 N2 1_555 1_555
C5 C4 1_555 1_555
C6 C5 1_555 1_555
H4 C6 1_555 1_555
C7 C6 1_555 1_555
H5 C7 1_555 1_555
C8 C7 1_555 1_555
H6 C8 1_555 1_555
C9 C8 1_555 1_555
H7 C9 1_555 1_555
C10 C5 1_555 1_555
H8 C10 1_555 1_555
C11 O3 1_555 1_555
C12 N3 1_555 1_555
C13 C12 1_555 1_555
H9 C13 1_555 1_555
C14 N4 1_555 1_555
C15 C14 1_555 1_555
C16 C15 1_555 1_555
H10 C16 1_555 1_555
C17 C16 1_555 1_555
H11 C17 1_555 1_555
C18 C17 1_555 1_555
H12 C18 1_555 1_555
C19 C18 1_555 1_555
H13 C19 1_555 1_555
C20 C15 1_555 1_555
H14 C20 1_555 1_555
Zn1B O1 1_555 1_555
Zn1B_2 N3 1_555 1_555
O1B Zn1 1_555 1_555
N3B Zn1 1_555 1_555
C3 C4 1_555 1_555
C9 C10 1_555 1_555
C11 C12 1_555 1_555
C13 C14 1_555 1_555
C19 C20 1_555 1_555
Zn1B O1B 1_555 1_555

#END
