
#######################################################################
#
#                 Cambridge Crystallographic Data Centre
#                                CCDC 
#
#######################################################################
#
# If this CIF has been generated from an entry in the Cambridge 
# Structural Database, then it will include bibliographic, chemical, 
# crystal, experimental, refinement or atomic coordinate data resulting 
# from the CCDC's data processing and validation procedures.
#
#######################################################################

data_EPIXIL
_symmetry_cell_setting           triclinic
_symmetry_space_group_name_H-M   'P -1'
_symmetry_Int_Tables_number      2
_space_group_name_Hall           '-P 1'
loop_
_symmetry_equiv_pos_site_id
_symmetry_equiv_pos_as_xyz
1 x,y,z
2 -x,-y,-z
_cell_length_a                   6.6139(7)
_cell_length_b                   6.9872(7)
_cell_length_c                   10.4414(11)
_cell_angle_alpha                79.7360(10)
_cell_angle_beta                 82.9990(10)
_cell_angle_gamma                75.0920(10)
_cell_volume                     457.352
loop_
_atom_site_label
_atom_site_type_symbol
_atom_site_fract_x
_atom_site_fract_y
_atom_site_fract_z
Ni1 Ni 0.5000 0.0000 0.5000
O1 O 0.6861(3) -0.8312(2) 0.55031(16)
O2 O 0.9304(2) -0.9497(2) 0.69325(15)
O3 O 0.6455(2) 0.0138(2) 0.30931(15)
H1 H 0.7728 -0.0072 0.3122
H2 H 0.6113 -0.0846 0.2742
N1 N 0.2812(3) 0.2630(3) 0.44194(17)
N2 N 0.1528(3) 0.3029(3) 0.34414(16)
H3 H 0.1171 0.2125 0.3119
C1 C 0.2940(3) 0.4400(3) 0.4634(2)
H4 H 0.3697 0.4580 0.5279
C2 C 0.1808(3) 0.5968(3) 0.37821(19)
C3 C 0.0875(3) 0.5017(3) 0.3032(2)
C4 C 0.8151(3) -0.8095(3) 0.6226(2)
C5 C -0.0626(3) 0.5775(3) 0.2011(2)
C6 C -0.0292(4) 0.7220(3) 0.0968(2)
H5 H 0.0916 0.7693 0.0886
C7 C -0.1744(5) 0.7960(4) 0.0048(2)
H6 H -0.1496 0.8914 -0.0656
C8 C -0.3545(5) 0.7300(4) 0.0164(3)
H7 H -0.4536 0.7835 -0.0445
C9 C -0.3889(4) 0.5834(4) 0.1190(3)
H8 H -0.5104 0.5372 0.1265
C10 C -0.2419(4) 0.5055(4) 0.2105(2)
H9 H -0.2635 0.4049 0.2783
Ni1_2 Ni 0.5000 -1.0000 0.5000
Ni1_3 Ni 0.5000 1.0000 0.5000
O1_2 O 0.6861(3) 0.1688(2) 0.55031(16)
O1A O 0.3139(3) -0.1688(2) 0.44969(16)
O1A_2 O 0.3139(3) 0.8312(2) 0.44969(16)
O2A O 0.0696(2) 0.9497(2) 0.30675(15)
O3A O 0.3545(2) -0.0138(2) 0.69069(15)
H1A H 0.2272 0.0072 0.6878
H2A H 0.3887 0.0846 0.7258
N1A N 0.7188(3) -0.2630(3) 0.55806(17)
N2A N 0.8472(3) -0.3029(3) 0.65586(16)
H3A H 0.8829 -0.2125 0.6881
C1A C 0.7060(3) -0.4400(3) 0.5366(2)
H4A H 0.6303 -0.4580 0.4721
C2A C 0.8192(3) -0.5968(3) 0.62179(19)
C3A C 0.9125(3) -0.5017(3) 0.6968(2)
C4A C 0.1849(3) 0.8095(3) 0.3774(2)
C5A C 1.0626(3) -0.5775(3) 0.7989(2)
C6A C 1.0292(4) -0.7220(3) 0.9032(2)
H5A H 0.9084 -0.7693 0.9114
C7A C 1.1744(5) -0.7960(4) 0.9952(2)
H6A H 1.1496 -0.8914 1.0656
C8A C 1.3545(5) -0.7300(4) 0.9836(3)
H7A H 1.4536 -0.7835 1.0445
C9A C 1.3889(4) -0.5834(4) 0.8810(3)
H8A H 1.5104 -0.5372 0.8735
C10A C 1.2419(4) -0.5055(4) 0.7895(2)
H9A H 1.2635 -0.4049 0.7217
loop_
_geom_bond_atom_site_label_1
_geom_bond_atom_site_label_2
_geom_bond_site_symmetry_1
_geom_bond_site_symmetry_2
Ni1 O3 1_555 1_555
O1 C4 1_555 1_555
O2 C4 1_555 1_555
O3 H1 1_555 1_555
H2 O3 1_555 1_555
N1 Ni1 1_555 1_555
N2 N1 1_555 1_555
H3 N2 1_555 1_555
C1 N1 1_555 1_555
H4 C1 1_555 1_555
C2 C1 1_555 1_555
C3 N2 1_555 1_555
C4 C2A 1_555 1_555
C5 C3 1_555 1_555
C6 C5 1_555 1_555
H5 C6 1_555 1_555
C7 C6 1_555 1_555
H6 C7 1_555 1_555
C8 C7 1_555 1_555
H7 C8 1_555 1_555
C9 C8 1_555 1_555
H8 C9 1_555 1_555
C10 C5 1_555 1_555
H9 C10 1_555 1_555
Ni1_2 O1 1_555 1_555
Ni1_3 O1A_2 1_555 1_555
O1_2 Ni1 1_555 1_555
O1A Ni1 1_555 1_555
O1A_2 C4A 1_555 1_555
O2A C4A 1_555 1_555
O3A Ni1 1_555 1_555
H1A O3A 1_555 1_555
H2A O3A 1_555 1_555
N1A Ni1 1_555 1_555
N2A N1A 1_555 1_555
H3A N2A 1_555 1_555
C1A N1A 1_555 1_555
H4A C1A 1_555 1_555
C2A C1A 1_555 1_555
C3A N2A 1_555 1_555
C4A C2 1_555 1_555
C5A C3A 1_555 1_555
C6A C5A 1_555 1_555
H5A C6A 1_555 1_555
C7A C6A 1_555 1_555
H6A C7A 1_555 1_555
C8A C7A 1_555 1_555
H7A C8A 1_555 1_555
C9A C8A 1_555 1_555
H8A C9A 1_555 1_555
C10A C5A 1_555 1_555
H9A C10A 1_555 1_555
C2 C3 1_555 1_555
C9 C10 1_555 1_555
C2A C3A 1_555 1_555
C9A C10A 1_555 1_555

#END
