
#######################################################################
#
#                 Cambridge Crystallographic Data Centre
#                                CCDC 
#
#######################################################################
#
# If this CIF has been generated from an entry in the Cambridge 
# Structural Database, then it will include bibliographic, chemical, 
# crystal, experimental, refinement or atomic coordinate data resulting 
# from the CCDC's data processing and validation procedures.
#
#######################################################################

data_EPIYEI
_symmetry_cell_setting           monoclinic
_symmetry_space_group_name_H-M   'P 21/c'
_symmetry_Int_Tables_number      14
_space_group_name_Hall           '-P 2ybc'
loop_
_symmetry_equiv_pos_site_id
_symmetry_equiv_pos_as_xyz
1 x,y,z
2 -x,1/2+y,1/2-z
3 -x,-y,-z
4 x,1/2-y,1/2+z
_cell_length_a                   14.377(4)
_cell_length_b                   13.872(3)
_cell_length_c                   14.606(4)
_cell_angle_alpha                90
_cell_angle_beta                 102.988(3)
_cell_angle_gamma                90
_cell_volume                     2838.47
loop_
_atom_site_label
_atom_site_type_symbol
_atom_site_fract_x
_atom_site_fract_y
_atom_site_fract_z
Zn1 Zn 0.83735(3) 0.82606(4) 0.27054(3)
Zn2 Zn 0.58936(3) 0.83010(4) 0.21253(3)
O1 O 0.9442(3) 1.2424(3) 0.2548(4)
O2 O 1.0765(2) 1.2131(3) 0.2093(3)
O3 O 0.6494(2) 0.7266(3) -0.1652(2)
O4 O 0.7994(2) 0.6853(3) -0.1105(2)
O5 O 0.2975(2) 0.4755(2) 0.2323(2)
O6 O 0.4550(2) 0.4592(2) 0.2704(3)
N1 N 0.9181(3) 0.9402(3) 0.2581(3)
N2 N 1.0019(3) 0.9259(3) 0.2299(3)
H1 H 1.0254 0.8700 0.2233
N3 N 0.7608(3) 0.7892(3) 0.1441(3)
N4 N 0.6604(3) 0.7991(3) 0.1166(3)
N5 N 0.4757(3) 0.7402(3) 0.1910(3)
N6 N 0.3859(3) 0.7465(3) 0.1382(3)
H2 H 0.3636 0.7968 0.1064
C1 C 0.9080(4) 1.0359(4) 0.2578(4)
H3 H 0.8567 1.0679 0.2730
C2 C 0.9851(3) 1.0818(4) 0.2315(3)
C3 C 1.0009(4) 1.1890(4) 0.2326(4)
C4 C 1.0427(3) 1.0084(4) 0.2140(4)
C5 C 1.1354(4) 1.0084(4) 0.1829(4)
C6 C 1.1376(4) 1.0289(5) 0.0914(5)
H4 H 1.0816 1.0460 0.0490
C7 C 1.2230(5) 1.0243(5) 0.0616(5)
H5 H 1.2233 1.0351 -0.0011
C8 C 1.3059(4) 1.0040(4) 0.1243(5)
H6 H 1.3631 1.0019 0.1048
C9 C 1.3045(4) 0.9870(6) 0.2136(6)
H7 H 1.3614 0.9736 0.2564
C10 C 1.2193(4) 0.9891(6) 0.2444(5)
H8 H 1.2200 0.9771 0.3072
C11 C 0.7895(4) 0.7533(4) 0.0729(3)
H9 H 0.8525 0.7370 0.0738
C12 C 0.7129(3) 0.7424(3) -0.0056(3)
C13 C 0.7215(4) 0.7147(4) -0.1011(3)
C14 C 0.6334(3) 0.7715(4) 0.0268(3)
C15 C 0.4825(4) 0.8613(5) -0.0244(4)
H10 H 0.5151 0.9167 0.0005
C16 C 0.3867(5) 0.8669(6) -0.0644(4)
H11 H 0.3556 0.9260 -0.0665
C17 C 0.3369(5) 0.7878(8) -0.1008(4)
H12 H 0.2718 0.7924 -0.1268
C18 C 0.3823(5) 0.7012(7) -0.0993(5)
H13 H 0.3483 0.6464 -0.1239
C19 C 0.4811(4) 0.6953(5) -0.0604(5)
H14 H 0.5131 0.6372 -0.0614
C20 C 0.5307(3) 0.7763(4) -0.0205(3)
C21 C 0.4806(3) 0.6533(3) 0.2281(3)
H15 H 0.5349 0.6285 0.2682
C22 C 0.3955(3) 0.6029(3) 0.2006(3)
C23 C 0.3786(3) 0.5069(3) 0.2364(3)
C24 C 0.3348(3) 0.6656(4) 0.1407(3)
C25 C 0.2363(3) 0.6573(4) 0.0855(3)
C26 C 0.2049(4) 0.5725(5) 0.0401(4)
H16 H 0.2459 0.5199 0.0449
C27 C 0.1116(5) 0.5656(6) -0.0132(5)
H17 H 0.0893 0.5081 -0.0429
C28 C 0.0532(5) 0.6448(8) -0.0211(5)
H18 H -0.0091 0.6405 -0.0566
C29 C 0.0843(5) 0.7285(7) 0.0215(5)
H19 H 0.0436 0.7814 0.0149
C30 C 0.1759(4) 0.7360(5) 0.0748(4)
H20 H 0.1973 0.7942 0.1037
Zn1A Zn 1.16265(3) 1.32606(4) 0.22946(3)
Zn1C Zn 0.83735(3) 0.67394(4) -0.22946(3)
Zn2C Zn 0.58936(3) 0.66990(4) -0.28747(3)
Zn2A Zn 0.41064(3) 0.33010(4) 0.28747(3)
O2A O 0.9235(2) 0.7131(3) 0.2907(3)
O3C O 0.6494(2) 0.7734(3) 0.3348(2)
O4C O 0.7994(2) 0.8147(3) 0.3895(2)
O6A O 0.5450(2) 0.9592(2) 0.2296(3)
loop_
_geom_bond_atom_site_label_1
_geom_bond_atom_site_label_2
_geom_bond_site_symmetry_1
_geom_bond_site_symmetry_2
Zn1 N1 1_555 1_555
Zn2 N4 1_555 1_555
O1 C3 1_555 1_555
O2 C3 1_555 1_555
O3 C13 1_555 1_555
O4 C13 1_555 1_555
O5 C23 1_555 1_555
O6 C23 1_555 1_555
N1 N2 1_555 1_555
N2 H1 1_555 1_555
N3 Zn1 1_555 1_555
N4 N3 1_555 1_555
N5 Zn2 1_555 1_555
N6 N5 1_555 1_555
H2 N6 1_555 1_555
C1 N1 1_555 1_555
H3 C1 1_555 1_555
C2 C1 1_555 1_555
C3 C2 1_555 1_555
C4 N2 1_555 1_555
C5 C4 1_555 1_555
C6 C5 1_555 1_555
H4 C6 1_555 1_555
C7 C6 1_555 1_555
H5 C7 1_555 1_555
C8 C7 1_555 1_555
H6 C8 1_555 1_555
C9 C8 1_555 1_555
H7 C9 1_555 1_555
C10 C5 1_555 1_555
H8 C10 1_555 1_555
C11 N3 1_555 1_555
H9 C11 1_555 1_555
C12 C11 1_555 1_555
C13 C12 1_555 1_555
C14 N4 1_555 1_555
C15 H10 1_555 1_555
C16 C15 1_555 1_555
H11 C16 1_555 1_555
C17 C16 1_555 1_555
H12 C17 1_555 1_555
C18 C17 1_555 1_555
H13 C18 1_555 1_555
C19 C18 1_555 1_555
H14 C19 1_555 1_555
C20 C14 1_555 1_555
C21 N5 1_555 1_555
H15 C21 1_555 1_555
C22 C21 1_555 1_555
C23 C22 1_555 1_555
C24 N6 1_555 1_555
C25 C24 1_555 1_555
C26 C25 1_555 1_555
H16 C26 1_555 1_555
C27 C26 1_555 1_555
H17 C27 1_555 1_555
C28 C27 1_555 1_555
H18 C28 1_555 1_555
C29 C28 1_555 1_555
H19 C29 1_555 1_555
C30 C25 1_555 1_555
H20 C30 1_555 1_555
Zn1A O2 1_555 1_555
Zn1C O4 1_555 1_555
Zn2C O3 1_555 1_555
Zn2A O6 1_555 1_555
O2A Zn1 1_555 1_555
O3C Zn2 1_555 1_555
O4C Zn1 1_555 1_555
O6A Zn2 1_555 1_555
C2 C4 1_555 1_555
C9 C10 1_555 1_555
C12 C14 1_555 1_555
C15 C20 1_555 1_555
C19 C20 1_555 1_555
C22 C24 1_555 1_555
C29 C30 1_555 1_555

#END
