
#######################################################################
#
#                 Cambridge Crystallographic Data Centre
#                                CCDC 
#
#######################################################################
#
# If this CIF has been generated from an entry in the Cambridge 
# Structural Database, then it will include bibliographic, chemical, 
# crystal, experimental, refinement or atomic coordinate data resulting 
# from the CCDC's data processing and validation procedures.
#
#######################################################################

data_EPOBAN
_symmetry_cell_setting           monoclinic
_symmetry_space_group_name_H-M   'P 21/c'
_symmetry_Int_Tables_number      14
_space_group_name_Hall           '-P 2ybc'
loop_
_symmetry_equiv_pos_site_id
_symmetry_equiv_pos_as_xyz
1 x,y,z
2 -x,1/2+y,1/2-z
3 -x,-y,-z
4 x,1/2-y,1/2+z
_cell_length_a                   6.7914(6)
_cell_length_b                   30.287(3)
_cell_length_c                   8.1676(8)
_cell_angle_alpha                90
_cell_angle_beta                 90.331(4)
_cell_angle_gamma                90
_cell_volume                     1679.97
loop_
_atom_site_label
_atom_site_type_symbol
_atom_site_fract_x
_atom_site_fract_y
_atom_site_fract_z
Pb1 Pb 0.00298(3) 0.251494(5) 0.43431(2)
O1 O -0.1419(6) 0.20776(14) 0.2088(6)
O2 O -0.2094(7) 0.17318(14) 0.4395(6)
O3 O -0.1082(7) 0.07215(16) 0.3434(7)
O4 O 0.1358(6) 0.29431(14) 0.2039(6)
O5 O 0.2065(7) 0.33186(14) 0.4291(7)
O6 O 0.0976(7) 0.43081(16) 0.3336(7)
O7 O -0.3040(6) 0.29506(15) 0.3292(6)
H1 H -0.3393 0.281 0.2455
H2 H -0.2676 0.3173 0.2761
O8 O 0.2975(7) 0.20590(15) 0.3245(5)
H3 H 0.2647 0.1805 0.2935
H4 H 0.3574 0.2193 0.2497
N1 N -0.3982(8) 0.10449(15) 0.2746(7)
H11 H -0.5269 0.1042 0.2863
N2 N 0.3842(7) 0.39948(16) 0.2550(7)
H12 H 0.5136 0.401 0.2571
C1 C -0.2152(8) 0.17573(17) 0.2877(8)
C2 C -0.3103(9) 0.13950(19) 0.1821(7)
H13 H -0.4126 0.1531 0.1115
H14 H -0.2086 0.1268 0.1096
C3 C -0.2913(9) 0.07195(18) 0.3444(8)
C4 C -0.4011(8) 0.03576(19) 0.4248(9)
C5 C -0.6043(9) 0.0276(2) 0.3948(8)
H15 H -0.676 0.0464 0.3229
C6 C -0.3014(9) 0.00754(19) 0.5304(7)
H16 H -0.1655 0.0124 0.5519
C7 C 0.2061(8) 0.32783(18) 0.2801(8)
C8 C 0.2932(9) 0.36339(19) 0.1674(8)
H17 H 0.3925 0.3495 0.0956
H18 H 0.1869 0.3753 0.0966
C9 C 0.2812(10) 0.4308(2) 0.3335(8)
C10 C 0.3961(8) 0.4659(2) 0.4193(9)
C11 C 0.2968(9) 0.50404(19) 0.4716(7)
H19 H 0.1589 0.5067 0.4543
C12 C 0.6006(9) 0.46217(19) 0.4515(9)
H20 H 0.6685 0.4361 0.4201
Pb1B Pb -1.00298(3) -0.251494(5) 0.56569(2)
Pb1C Pb 0.00298(3) 0.248506(5) -0.06569(2)
Pb1A Pb -1.00298(3) -0.248506(5) 1.06569(2)
Pb1B_2 Pb 0.99702(3) 0.748506(5) 0.56569(2)
Pb1A_2 Pb 0.99702(3) 0.751494(5) 1.06569(2)
O1B O -0.8581(6) -0.20776(14) 0.7912(6)
O1C O -0.1419(6) 0.29224(14) 0.7088(6)
O1A O -0.8581(6) -0.29224(14) 0.2912(6)
O2B O -0.7906(7) -0.17318(14) 0.5605(6)
O3B O -0.8918(7) -0.07215(16) 0.6566(7)
O4B O 0.8642(6) 0.70569(14) 0.7961(6)
O4C O 0.1358(6) 0.20569(14) 0.7039(6)
O4B_2 O -1.1358(6) -0.29431(14) 0.7961(6)
O4A O -1.1358(6) -0.20569(14) 0.2961(6)
O5B O 0.7935(7) 0.66814(14) 0.5709(7)
O6B O 0.9024(7) 0.56919(16) 0.6664(7)
O7B O -0.6960(6) -0.29506(15) 0.6708(6)
H1B H -0.6607 -0.281 0.7545
H2B H -0.7324 -0.3173 0.7239
O8B O -1.2975(7) -0.20590(15) 0.6755(5)
H3B H -1.2647 -0.1805 0.7065
H4B H -1.3574 -0.2193 0.7503
N1B N -0.6018(8) -0.10449(15) 0.7254(7)
H11B H -0.4731 -0.1042 0.7137
N2B N 0.6158(7) 0.60052(16) 0.7450(7)
H12B H 0.4864 0.599 0.7429
C1B C -0.7848(8) -0.17573(17) 0.7123(8)
C2B C -0.6897(9) -0.13950(19) 0.8179(7)
H13B H -0.5874 -0.1531 0.8885
H14B H -0.7914 -0.1268 0.8904
C3B C -0.7087(9) -0.07195(18) 0.6556(8)
C4B C -0.5989(8) -0.03576(19) 0.5752(9)
C5B C -0.3957(9) -0.0276(2) 0.6052(8)
H15B H -0.324 -0.0464 0.6771
C6B C -0.6986(9) -0.00754(19) 0.4696(7)
H16B H -0.8345 -0.0124 0.4481
C7B C 0.7939(8) 0.67217(18) 0.7199(8)
C8B C 0.7068(9) 0.63661(19) 0.8326(8)
H17B H 0.6075 0.6505 0.9044
H18B H 0.8131 0.6247 0.9034
C9B C 0.7188(10) 0.5692(2) 0.6665(8)
C10B C 0.6039(8) 0.5341(2) 0.5807(9)
C11B C 0.7032(9) 0.49596(19) 0.5284(7)
H19B H 0.8411 0.4933 0.5457
C12B C 0.3994(9) 0.53783(19) 0.5485(9)
H20B H 0.3315 0.5639 0.5799
O9 O -0.2059(6) 0.37808(15) 0.2185(6)
H5 H -0.1958 0.375 0.1167
H6 H -0.1138 0.3941 0.2533
O10 O 0.1906(6) 0.12231(14) 0.2218(6)
H7 H 0.0867 0.1224 0.2772
H8 H 0.1892 0.1301 0.1231
O11 O 0.4947(8) 0.25021(11) 0.5776(5)
H9 H 0.4002 0.2392 0.5249
H10 H 0.5566 0.2668 0.5135
loop_
_geom_bond_atom_site_label_1
_geom_bond_atom_site_label_2
_geom_bond_site_symmetry_1
_geom_bond_site_symmetry_2
Pb1 O1 1_555 1_555
O1 C1 1_555 1_555
O2 C1 1_555 1_555
O3 C3 1_555 1_555
O4 Pb1 1_555 1_555
O5 C7 1_555 1_555
O6 C9 1_555 1_555
O7 Pb1 1_555 1_555
H1 O7 1_555 1_555
H2 O7 1_555 1_555
O8 Pb1 1_555 1_555
H3 O8 1_555 1_555
H4 O8 1_555 1_555
O9 H5 1_555 1_555
H6 O9 1_555 1_555
O10 H7 1_555 1_555
H8 O10 1_555 1_555
O11 H9 1_555 1_555
H10 O11 1_555 1_555
N1 H11 1_555 1_555
N2 H12 1_555 1_555
C1 C2 1_555 1_555
C2 N1 1_555 1_555
H13 C2 1_555 1_555
H14 C2 1_555 1_555
C3 N1 1_555 1_555
C4 C3 1_555 1_555
C5 C4 1_555 1_555
H15 C5 1_555 1_555
C6 C4 1_555 1_555
H16 C6 1_555 1_555
C7 O4 1_555 1_555
C8 N2 1_555 1_555
H17 C8 1_555 1_555
H18 C8 1_555 1_555
C9 N2 1_555 1_555
C10 C9 1_555 1_555
C11 C10 1_555 1_555
H19 C11 1_555 1_555
C12 C10 1_555 1_555
H20 C12 1_555 1_555
Pb1B O1B 1_555 1_555
Pb1C O1 1_555 1_555
Pb1A O1B 1_555 1_555
Pb1B_2 O4B 1_555 1_555
Pb1A_2 O4B 1_555 1_555
O1B C1B 1_555 1_555
O1C Pb1 1_555 1_555
O1A Pb1B 1_555 1_555
O2B C1B 1_555 1_555
O3B C3B 1_555 1_555
O4B C7B 1_555 1_555
O4C Pb1 1_555 1_555
O4B_2 Pb1B 1_555 1_555
O4A Pb1B 1_555 1_555
O5B C7B 1_555 1_555
O6B C9B 1_555 1_555
O7B Pb1B 1_555 1_555
H1B O7B 1_555 1_555
H2B O7B 1_555 1_555
O8B Pb1B 1_555 1_555
H3B O8B 1_555 1_555
H4B O8B 1_555 1_555
N1B H11B 1_555 1_555
N2B H12B 1_555 1_555
C1B C2B 1_555 1_555
C2B N1B 1_555 1_555
H13B C2B 1_555 1_555
H14B C2B 1_555 1_555
C3B N1B 1_555 1_555
C4B C3B 1_555 1_555
C5B C6 1_555 1_555
H15B C5B 1_555 1_555
C6B C5 1_555 1_555
H16B C6B 1_555 1_555
C7B C8B 1_555 1_555
C8B N2B 1_555 1_555
H17B C8B 1_555 1_555
H18B C8B 1_555 1_555
C9B N2B 1_555 1_555
C10B C9B 1_555 1_555
C11B C12 1_555 1_555
H19B C11B 1_555 1_555
C12B C11 1_555 1_555
H20B C12B 1_555 1_555
O4 Pb1C 1_555 1_555
C7 C8 1_555 1_555
Pb1A O4B_2 1_555 1_555
C4B C5B 1_555 1_555
C4B C6B 1_555 1_555
C10B C11B 1_555 1_555
C10B C12B 1_555 1_555

#END
