
#######################################################################
#
#                 Cambridge Crystallographic Data Centre
#                                CCDC 
#
#######################################################################
#
# If this CIF has been generated from an entry in the Cambridge 
# Structural Database, then it will include bibliographic, chemical, 
# crystal, experimental, refinement or atomic coordinate data resulting 
# from the CCDC's data processing and validation procedures.
#
#######################################################################

data_EPOJID
_symmetry_cell_setting           triclinic
_symmetry_space_group_name_H-M   'P -1'
_symmetry_Int_Tables_number      2
_space_group_name_Hall           '-P 1'
loop_
_symmetry_equiv_pos_site_id
_symmetry_equiv_pos_as_xyz
1 x,y,z
2 -x,-y,-z
_cell_length_a                   11.1222(12)
_cell_length_b                   14.9057(14)
_cell_length_c                   14.9836(16)
_cell_angle_alpha                93.4660(10)
_cell_angle_beta                 96.8020(10)
_cell_angle_gamma                107.617(2)
_cell_volume                     2338.68
loop_
_atom_site_label
_atom_site_type_symbol
_atom_site_fract_x
_atom_site_fract_y
_atom_site_fract_z
Sn1 Sn 0.72547(4) 0.06357(3) 0.27272(4)
Sn2 Sn 0.90597(4) -0.10899(3) 0.23358(3)
Sn3 Sn 0.25515(4) -0.04437(4) 0.21959(3)
Sn4 Sn 1.07233(4) 0.11496(3) 0.26735(3)
Cl1 Cl 0.6414(3) -0.4177(2) -0.1499(2)
Cl2 Cl 1.2275(3) -0.4391(2) -0.2050(2)
Cl3 Cl 0.3338(3) 0.3986(2) 0.63912(19)
Cl4 Cl 0.7079(3) 0.4362(2) 0.69949(19)
N1 N 0.5443(7) -0.2965(5) -0.0789(5)
N2 N 1.2226(7) -0.4310(5) -0.0328(5)
N3 N 0.3741(8) 0.3858(5) 0.4714(5)
N4 N 0.8717(8) 0.3668(6) 0.6337(6)
O1 O 0.8882(4) 0.0290(3) 0.2541(3)
O2 O 1.0905(4) -0.0204(3) 0.2335(3)
O3 O 0.5934(5) -0.0634(4) 0.1891(4)
O4 O 0.6789(5) -0.1694(4) 0.2431(4)
O5 O 0.9858(6) -0.2343(4) 0.2155(4)
O6 O 1.1556(5) -0.1879(4) 0.1470(4)
O7 O 0.3265(5) 0.1071(4) 0.2801(4)
O8 O 0.5102(5) 0.0834(4) 0.2807(4)
O9 O 0.8314(5) 0.2013(4) 0.3635(4)
O10 O 0.9989(5) 0.2413(4) 0.2920(4)
C1 C 0.5904(7) -0.1485(6) 0.1992(6)
C2 C 0.4748(8) -0.2267(6) 0.1512(6)
H1 H 0.4112 -0.1998 0.1248
H2 H 0.4374 -0.2695 0.1938
C3 C 0.5075(8) -0.2562(6) -0.0101(6)
H3 H 0.4726 -0.2081 -0.0218
C4 C 0.5169(7) -0.2803(6) 0.0773(6)
C5 C 0.5721(8) -0.3493(5) 0.0932(6)
H4 H 0.5835 -0.3665 0.1515
C6 C 0.6107(8) -0.3935(6) 0.0245(6)
H5 H 0.6469 -0.4413 0.0342
C7 C 0.5931(9) -0.3635(6) -0.0598(6)
C8 C 1.0639(8) -0.2505(6) 0.1687(6)
C9 C 1.0339(8) -0.3523(5) 0.1328(6)
H6 H 1.0680 -0.3845 0.1790
H7 H 0.9420 -0.3808 0.1230
C10 C 1.1799(8) -0.4089(6) 0.0423(6)
H8 H 1.2192 -0.4209 0.0966
C11 C 1.0836(8) -0.3702(5) 0.0469(6)
C12 C 1.0257(9) -0.3546(6) -0.0354(7)
H9 H 0.9564 -0.3317 -0.0376
C13 C 1.0715(10) -0.3730(6) -0.1139(7)
H10 H 1.0370 -0.3600 -0.1694
C14 C 1.1684(9) -0.4107(6) -0.1075(6)
C15 C 0.4458(7) 0.1380(6) 0.2938(5)
C16 C 0.5153(8) 0.2401(5) 0.3243(6)
H11 H 0.5067 0.2775 0.2745
H12 H 0.6052 0.2481 0.3406
C17 C 0.4141(8) 0.3494(6) 0.4019(6)
H13 H 0.4066 0.3751 0.3473
C18 C 0.4656(7) 0.2770(5) 0.4049(6)
C19 C 0.4755(8) 0.2404(6) 0.4868(6)
H14 H 0.5114 0.1918 0.4927
C20 C 0.4323(8) 0.2752(6) 0.5601(6)
H15 H 0.4356 0.2494 0.6150
C21 C 0.3846(9) 0.3492(6) 0.5489(6)
C22 C 0.9345(8) 0.2585(6) 0.3497(6)
C23 C 0.9884(8) 0.3508(6) 0.4085(6)
H16 H 1.0013 0.4015 0.3695
H17 H 1.0717 0.3535 0.4387
C24 C 0.9354(9) 0.3502(6) 0.5667(7)
H18 H 0.9994 0.3229 0.5804
C25 C 0.9121(8) 0.3708(6) 0.4792(6)
C26 C 0.8200(8) 0.4131(6) 0.4616(6)
H19 H 0.8005 0.4280 0.4033
C27 C 0.7566(8) 0.4338(6) 0.5276(6)
H20 H 0.6951 0.4639 0.5162
C28 C 0.7863(9) 0.4091(6) 0.6114(6)
C29 C 0.6896(7) 0.0095(6) 0.3965(5)
H21 H 0.6356 -0.0551 0.3856
H22 H 0.6482 0.0465 0.4287
H23 H 0.7688 0.0123 0.4319
C30 C 0.7130(8) 0.1399(6) 0.1605(6)
H24 H 0.7955 0.1632 0.1418
H25 H 0.6837 0.1921 0.1767
H26 H 0.6541 0.0991 0.1119
C31 C 0.9152(8) -0.1411(6) 0.3682(5)
H27 H 1.0028 -0.1263 0.3946
H28 H 0.8723 -0.2073 0.3700
H29 H 0.8747 -0.1045 0.4017
C32 C 0.8491(8) -0.1313(6) 0.0938(5)
H30 H 0.7993 -0.0910 0.0764
H31 H 0.7987 -0.1962 0.0772
H32 H 0.9230 -0.1169 0.0635
C33 C 0.3108(8) -0.1058(6) 0.3334(6)
H33 H 0.3539 -0.0571 0.3815
H34 H 0.3672 -0.1402 0.3183
H35 H 0.2368 -0.1483 0.3524
C34 C 0.3147(7) -0.0083(6) 0.0950(5)
H36 H 0.2454 -0.0367 0.0472
H37 H 0.3850 -0.0309 0.0862
H38 H 0.3408 0.0593 0.0947
C35 C 1.1320(8) 0.1289(6) 0.4080(5)
H39 H 1.0593 0.1201 0.4392
H40 H 1.1913 0.1908 0.4263
H41 H 1.1724 0.0820 0.4223
C36 C 1.1194(8) 0.1735(6) 0.1476(5)
H42 H 1.1566 0.1344 0.1142
H43 H 1.1793 0.2358 0.1618
H44 H 1.0437 0.1771 0.1118
Sn3_2 Sn 1.25515(4) -0.04437(4) 0.21959(3)
O2_2 O 0.0905(4) -0.0204(3) 0.2335(3)
O6_2 O 0.1556(5) -0.1879(4) 0.1470(4)
loop_
_geom_bond_atom_site_label_1
_geom_bond_atom_site_label_2
_geom_bond_site_symmetry_1
_geom_bond_site_symmetry_2
Sn1 O1 1_555 1_555
Sn2 O1 1_555 1_555
Sn3 O7 1_555 1_555
Sn4 O1 1_555 1_555
Cl1 C7 1_555 1_555
Cl2 C14 1_555 1_555
Cl3 C21 1_555 1_555
Cl4 C28 1_555 1_555
N1 C3 1_555 1_555
N2 C10 1_555 1_555
N3 C17 1_555 1_555
N4 C24 1_555 1_555
O2 Sn2 1_555 1_555
O3 Sn1 1_555 1_555
O4 Sn2 1_555 1_555
O5 Sn2 1_555 1_555
O6 C8 1_555 1_555
O7 C15 1_555 1_555
O8 Sn1 1_555 1_555
O9 Sn1 1_555 1_555
O10 Sn4 1_555 1_555
C1 O3 1_555 1_555
C2 C1 1_555 1_555
H1 C2 1_555 1_555
H2 C2 1_555 1_555
C3 H3 1_555 1_555
C4 C2 1_555 1_555
C5 C4 1_555 1_555
H4 C5 1_555 1_555
C6 C5 1_555 1_555
H5 C6 1_555 1_555
C7 N1 1_555 1_555
C8 O5 1_555 1_555
C9 C8 1_555 1_555
H6 C9 1_555 1_555
H7 C9 1_555 1_555
C10 H8 1_555 1_555
C11 C9 1_555 1_555
C12 C11 1_555 1_555
H9 C12 1_555 1_555
C13 C12 1_555 1_555
H10 C13 1_555 1_555
C14 N2 1_555 1_555
C15 O8 1_555 1_555
C16 C15 1_555 1_555
H11 C16 1_555 1_555
H12 C16 1_555 1_555
C17 H13 1_555 1_555
C18 C16 1_555 1_555
C19 C18 1_555 1_555
H14 C19 1_555 1_555
C20 C19 1_555 1_555
H15 C20 1_555 1_555
C21 N3 1_555 1_555
C22 O9 1_555 1_555
C23 C22 1_555 1_555
H16 C23 1_555 1_555
H17 C23 1_555 1_555
C24 H18 1_555 1_555
C25 C23 1_555 1_555
C26 C25 1_555 1_555
H19 C26 1_555 1_555
C27 C26 1_555 1_555
H20 C27 1_555 1_555
C28 N4 1_555 1_555
C29 Sn1 1_555 1_555
H21 C29 1_555 1_555
H22 C29 1_555 1_555
H23 C29 1_555 1_555
C30 Sn1 1_555 1_555
H24 C30 1_555 1_555
H25 C30 1_555 1_555
H26 C30 1_555 1_555
C31 Sn2 1_555 1_555
H27 C31 1_555 1_555
H28 C31 1_555 1_555
H29 C31 1_555 1_555
C32 Sn2 1_555 1_555
H30 C32 1_555 1_555
H31 C32 1_555 1_555
H32 C32 1_555 1_555
C33 Sn3 1_555 1_555
H33 C33 1_555 1_555
H34 C33 1_555 1_555
H35 C33 1_555 1_555
C34 Sn3 1_555 1_555
H36 C34 1_555 1_555
H37 C34 1_555 1_555
H38 C34 1_555 1_555
C35 Sn4 1_555 1_555
H39 C35 1_555 1_555
H40 C35 1_555 1_555
H41 C35 1_555 1_555
C36 Sn4 1_555 1_555
H42 C36 1_555 1_555
H43 C36 1_555 1_555
H44 C36 1_555 1_555
Sn3_2 O2 1_555 1_555
O2_2 Sn3 1_555 1_555
O6_2 Sn3 1_555 1_555
Sn4 O2 1_555 1_555
O4 C1 1_555 1_555
O6 Sn3_2 1_555 1_555
O10 C22 1_555 1_555
C3 C4 1_555 1_555
C6 C7 1_555 1_555
C10 C11 1_555 1_555
C13 C14 1_555 1_555
C17 C18 1_555 1_555
C20 C21 1_555 1_555
C24 C25 1_555 1_555
C27 C28 1_555 1_555

#END
