
#######################################################################
#
#                 Cambridge Crystallographic Data Centre
#                                CCDC 
#
#######################################################################
#
# If this CIF has been generated from an entry in the Cambridge 
# Structural Database, then it will include bibliographic, chemical, 
# crystal, experimental, refinement or atomic coordinate data resulting 
# from the CCDC's data processing and validation procedures.
#
#######################################################################

data_EPOTAF
_symmetry_cell_setting           monoclinic
_symmetry_space_group_name_H-M   'C 2/c'
_symmetry_Int_Tables_number      15
_space_group_name_Hall           '-C 2yn'
loop_
_symmetry_equiv_pos_site_id
_symmetry_equiv_pos_as_xyz
1 x,y,z
2 -x,y,1/2-z
3 1/2+x,1/2+y,z
4 1/2-x,1/2+y,1/2-z
5 -x,-y,-z
6 x,-y,1/2+z
7 1/2-x,1/2-y,-z
8 1/2+x,1/2-y,1/2+z
_cell_length_a                   10.7765(9)
_cell_length_b                   28.1439(13)
_cell_length_c                   28.487(2)
_cell_angle_alpha                90
_cell_angle_beta                 98.706(2)
_cell_angle_gamma                90
_cell_volume                     8540.35
loop_
_atom_site_label
_atom_site_type_symbol
_atom_site_fract_x
_atom_site_fract_y
_atom_site_fract_z
C1 C 1.00000 0.7722(2) 0.25000
C2 C 0.6452(6) 0.8898(2) 0.1303(2)
H1 H 0.5584 0.8876 0.1282
C3 C 0.6937(6) 0.91949(19) 0.1017(2)
C4 C 0.8215(9) 0.9229(2) 0.1062(2)
H2 H 0.8559 0.9444 0.087
C5 C 0.9098(7) 0.8934(3) 0.1411(3)
H3 H 0.9968 0.8962 0.1448
C6 C 0.6188(7) 0.95041(19) 0.06561(19)
C7 C 1.0438(5) 0.74110(16) 0.21088(19)
H4 H 1.0641 0.7608 0.1851
H5 H 1.1175 0.7228 0.2237
C8 C 1.0648(6) 0.64021(18) 0.1032(2)
H6 H 1.1318 0.639 0.0861
O1 O 0.6798(4) 0.97782(12) 0.04246(14)
O2 O 0.5041(4) 0.94600(11) 0.06122(12)
O3 O 0.8966(4) 0.53499(13) 0.05487(13)
O4 O 1.0723(4) 0.56759(12) 0.03640(14)
O5 O 0.7084(4) 0.45045(13) 0.01617(18)
C9 C 0.8854(5) 0.80224(19) 0.22759(19)
H7 H 0.822 0.7822 0.2096
H8 H 0.8484 0.8187 0.252
C10 C 0.8476(7) 0.86158(19) 0.1672(2)
C11 C 0.7240(7) 0.86056(19) 0.1649(2)
H9 H 0.6876 0.8411 0.1855
C12 C 0.9608(7) 0.67775(18) 0.1597(2)
C13 C 0.8636(7) 0.6442(2) 0.1535(2)
H10 H 0.7969 0.6455 0.1707
C14 C 0.8734(7) 0.6074(2) 0.1187(2)
H11 H 0.8112 0.5842 0.1136
C15 C 0.9697(6) 0.60567(17) 0.0936(2)
C16 C 1.0638(7) 0.67612(18) 0.1367(2)
H12 H 1.1293 0.6978 0.1432
C17 C 0.9832(6) 0.56647(19) 0.0595(2)
Cu1 Cu 0.89678(6) 0.481058(17) 0.01088(2)
O6 O 0.9342(4) 0.83557(13) 0.19698(15)
O7 O 0.9408(4) 0.71014(12) 0.19438(13)
C2A C 1.3548(6) 0.8898(2) 0.3697(2)
H1A H 1.4416 0.8876 0.3718
C3A C 1.3063(6) 0.91949(19) 0.3983(2)
C4A C 1.1785(9) 0.9229(2) 0.3938(2)
H2A H 1.1441 0.9444 0.413
C5A C 1.0902(7) 0.8934(3) 0.3589(3)
H3A H 1.0032 0.8962 0.3552
C6A C 1.3812(7) 0.95041(19) 0.43439(19)
C7A C 0.9562(5) 0.74110(16) 0.28912(19)
H4A H 0.9359 0.7608 0.3149
H5A H 0.8825 0.7228 0.2763
C8A C 0.9352(6) 0.64021(18) 0.3968(2)
H6A H 0.8682 0.639 0.4139
O1A O 1.3202(4) 0.97782(12) 0.45754(14)
O1F O 0.8202(4) 0.52218(12) -0.04246(14)
O1G O 1.1798(4) 0.52218(12) 0.54246(14)
O2A O 1.4959(4) 0.94600(11) 0.43878(12)
O2B O 1.0041(4) 0.44600(11) 0.06122(12)
O2C O 0.9959(4) 0.44600(11) 0.43878(12)
O3A O 1.1034(4) 0.53499(13) 0.44513(13)
O4A O 0.9277(4) 0.56759(12) 0.46360(14)
O4D O 0.9277(4) 0.43241(12) -0.03640(14)
O4E O 1.0723(4) 0.43241(12) 0.53640(14)
O5A O 1.2916(4) 0.45045(13) 0.48383(18)
C9A C 1.1146(5) 0.80224(19) 0.27241(19)
H7A H 1.178 0.7822 0.2904
H8A H 1.1516 0.8187 0.248
C10A C 1.1524(7) 0.86158(19) 0.3328(2)
C11A C 1.2760(7) 0.86056(19) 0.3351(2)
H9A H 1.3124 0.8411 0.3145
C12A C 1.0392(7) 0.67775(18) 0.3403(2)
C13A C 1.1364(7) 0.6442(2) 0.3465(2)
H10A H 1.2031 0.6455 0.3293
C14A C 1.1266(7) 0.6074(2) 0.3813(2)
H11A H 1.1888 0.5842 0.3864
C15A C 1.0303(6) 0.60567(17) 0.4064(2)
C16A C 0.9362(7) 0.67612(18) 0.3633(2)
H12A H 0.8707 0.6978 0.3568
C17A C 1.0168(6) 0.56647(19) 0.4405(2)
Cu1A Cu 1.10322(6) 0.481058(17) 0.48912(2)
Cu1B Cu 0.39678(6) 0.981058(17) 0.01088(2)
Cu1C Cu 1.60322(6) 0.981058(17) 0.48912(2)
Cu1D Cu 1.10322(6) 0.518942(17) -0.01088(2)
Cu1E Cu 0.89678(6) 0.518942(17) 0.51088(2)
Cu1F Cu 0.60322(6) 1.018942(17) -0.01088(2)
Cu1G Cu 1.39678(6) 1.018942(17) 0.51088(2)
O6A O 1.0658(4) 0.83557(13) 0.30302(15)
O7A O 1.0592(4) 0.71014(12) 0.30562(13)
loop_
_geom_bond_atom_site_label_1
_geom_bond_atom_site_label_2
_geom_bond_site_symmetry_1
_geom_bond_site_symmetry_2
C1 C7 1_555 1_555
C2 H1 1_555 1_555
C3 C2 1_555 1_555
C4 C3 1_555 1_555
H2 C4 1_555 1_555
C5 C4 1_555 1_555
H3 C5 1_555 1_555
C6 C3 1_555 1_555
C7 H4 1_555 1_555
H5 C7 1_555 1_555
C8 H6 1_555 1_555
O1 C6 1_555 1_555
O2 C6 1_555 1_555
O3 C17 1_555 1_555
O4 C17 1_555 1_555
O5 Cu1 1_555 1_555
C9 C1 1_555 1_555
H7 C9 1_555 1_555
H8 C9 1_555 1_555
C10 C5 1_555 1_555
C11 C2 1_555 1_555
H9 C11 1_555 1_555
C12 C13 1_555 1_555
C13 H10 1_555 1_555
C14 C13 1_555 1_555
H11 C14 1_555 1_555
C15 C8 1_555 1_555
C16 C8 1_555 1_555
H12 C16 1_555 1_555
C17 C15 1_555 1_555
Cu1 O3 1_555 1_555
O6 C9 1_555 1_555
O7 C7 1_555 1_555
C2A H1A 1_555 1_555
C3A C2A 1_555 1_555
C4A C3A 1_555 1_555
H2A C4A 1_555 1_555
C5A C4A 1_555 1_555
H3A C5A 1_555 1_555
C6A C3A 1_555 1_555
C7A C1 1_555 1_555
H4A C7A 1_555 1_555
H5A C7A 1_555 1_555
C8A H6A 1_555 1_555
O1A C6A 1_555 1_555
O1F Cu1 1_555 1_555
O1G Cu1A 1_555 1_555
O2A C6A 1_555 1_555
O2B Cu1 1_555 1_555
O2C Cu1A 1_555 1_555
O3A C17A 1_555 1_555
O4A C17A 1_555 1_555
O4D Cu1 1_555 1_555
O4E Cu1A 1_555 1_555
O5A Cu1A 1_555 1_555
C9A C1 1_555 1_555
H7A C9A 1_555 1_555
H8A C9A 1_555 1_555
C10A C5A 1_555 1_555
C11A C2A 1_555 1_555
H9A C11A 1_555 1_555
C12A C13A 1_555 1_555
C13A H10A 1_555 1_555
C14A C13A 1_555 1_555
H11A C14A 1_555 1_555
C15A C8A 1_555 1_555
C16A C8A 1_555 1_555
H12A C16A 1_555 1_555
C17A C15A 1_555 1_555
Cu1A O3A 1_555 1_555
Cu1B O2 1_555 1_555
Cu1C O2A 1_555 1_555
Cu1D O4 1_555 1_555
Cu1E O4A 1_555 1_555
Cu1F O1 1_555 1_555
Cu1G O1A 1_555 1_555
O6A C9A 1_555 1_555
O7A C7A 1_555 1_555
C10 C11 1_555 1_555
C10 O6 1_555 1_555
C12 C16 1_555 1_555
C12 O7 1_555 1_555
C14 C15 1_555 1_555
Cu1 Cu1D 1_555 1_555
C10A C11A 1_555 1_555
C10A O6A 1_555 1_555
C12A C16A 1_555 1_555
C12A O7A 1_555 1_555
C14A C15A 1_555 1_555
Cu1A Cu1E 1_555 1_555
Cu1B Cu1F 1_555 1_555
Cu1C Cu1G 1_555 1_555

#END
