
#######################################################################
#
#                 Cambridge Crystallographic Data Centre
#                                CCDC 
#
#######################################################################
#
# If this CIF has been generated from an entry in the Cambridge 
# Structural Database, then it will include bibliographic, chemical, 
# crystal, experimental, refinement or atomic coordinate data resulting 
# from the CCDC's data processing and validation procedures.
#
#######################################################################

data_EPOXAJ
_symmetry_cell_setting           triclinic
_symmetry_space_group_name_H-M   'P -1'
_symmetry_Int_Tables_number      2
_space_group_name_Hall           '-P 1'
loop_
_symmetry_equiv_pos_site_id
_symmetry_equiv_pos_as_xyz
1 x,y,z
2 -x,-y,-z
_cell_length_a                   8.0495(2)
_cell_length_b                   11.8852(5)
_cell_length_c                   11.9209(4)
_cell_angle_alpha                79.881(2)
_cell_angle_beta                 86.231(2)
_cell_angle_gamma                81.912(2)
_cell_volume                     1110.58
loop_
_atom_site_label
_atom_site_type_symbol
_atom_site_fract_x
_atom_site_fract_y
_atom_site_fract_z
U1 U -0.04212(6) 0.43608(5) 0.29792(4)
U2 U 0.22304(6) 0.49493(5) 0.02365(4)
U3 U 0.3918(3) 0.1515(2) 0.0096(2)
U4 U 0.6832(6) -0.0625(4) 0.2814(4)
O1 O 0.2425(12) 0.4337(8) 0.2236(8)
O2 O 0.6808(18) 0.4282(12) 0.2422(12)
O3 O 0.2637(14) 0.3477(10) -0.0054(10)
O4 O -0.0269(13) 0.4602(9) 0.1066(9)
O5 O 0.4798(18) 0.2339(12) 0.1648(12)
C1 C 0.463(2) 0.2004(16) 0.2709(15)
O6 O 0.1324(14) 0.4252(10) 0.4534(10)
O7 O 0.214(2) 0.1880(15) -0.1512(15)
C2 C 0.3894(16) 0.4181(11) 0.2854(11)
O8 O 0.552(3) 0.2016(17) -0.0804(17)
C3 C 0.375(2) 0.5065(14) 0.3655(14)
O9 O 0.5125(14) 0.4797(10) 0.1004(10)
O10 O -0.0711(17) 0.5874(11) 0.2849(11)
O11 O 0.682(3) -0.022(2) 0.479(2)
O12 O -0.0180(17) 0.2846(11) 0.3200(11)
C4 C 0.237(2) 0.4966(15) 0.4567(15)
O13 O 0.229(3) 0.0998(18) 0.0991(18)
O14 O 0.594(3) 0.007(2) 0.092(2)
O15 O 0.901(3) -0.2069(17) 0.3795(17)
O16 O 0.1937(16) 0.6412(11) 0.0443(11)
C5 C 0.426(2) 0.2905(14) 0.3478(15)
O17 O 0.2292(17) 0.5606(11) 0.5304(11)
O18 O 0.526(3) -0.156(2) 0.335(2)
O19 O 0.476(3) 0.0981(18) 0.3169(18)
C6 C 0.5369(18) 0.4445(13) 0.2055(12)
O20 O 0.840(3) 0.0238(19) 0.2447(19)
H1 H 0.480070 0.502590 0.400120
H2 H 0.361210 0.582850 0.321650
H3 H 0.516330 0.283490 0.397970
H4 H 0.333000 0.272500 0.39978
U1_2 U 0.95788(6) 0.43608(5) 0.29792(4)
U1A U 0.04212(6) 0.56392(5) 0.70208(4)
U2A U -0.22304(6) 0.50507(5) -0.02365(4)
U3A U 0.6082(3) -0.1515(2) -0.0096(2)
U4A U 0.3168(6) 0.0625(4) -0.2814(4)
O2_2 O -0.3192(18) 0.4282(12) 0.2422(12)
O4A O 0.0269(13) 0.5398(9) -0.1066(9)
O7A O 0.786(2) -0.1880(15) 0.1512(15)
O14A O 0.406(3) -0.007(2) -0.092(2)
O17A O -0.2292(17) 0.4394(11) 0.4696(11)
O21 O -0.105(5) 0.113(3) -0.010(3)
O22 O 0.186(5) 0.856(3) 0.268(3)
loop_
_geom_bond_atom_site_label_1
_geom_bond_atom_site_label_2
_geom_bond_site_symmetry_1
_geom_bond_site_symmetry_2
U1 O1 1_555 1_555
U2 O1 1_555 1_555
U3 O3 1_555 1_555
U4 O11 1_555 1_555
O1 C2 1_555 1_555
O2 C6 1_555 1_555
O3 U2 1_555 1_555
O4 U1 1_555 1_555
O5 U3 1_555 1_555
C1 O5 1_555 1_555
O6 U1 1_555 1_555
O7 U3 1_555 1_555
C2 C3 1_555 1_555
O8 U3 1_555 1_555
C3 C4 1_555 1_555
O9 C6 1_555 1_555
O10 U1 1_555 1_555
O12 U1 1_555 1_555
C4 O6 1_555 1_555
O13 U3 1_555 1_555
O14 U3 1_555 1_555
O15 U4 1_555 1_555
O16 U2 1_555 1_555
C5 C1 1_555 1_555
O17 C4 1_555 1_555
O18 U4 1_555 1_555
O19 U4 1_555 1_555
C6 C2 1_555 1_555
O20 U4 1_555 1_555
H1 C3 1_555 1_555
H2 C3 1_555 1_555
H3 C5 1_555 1_555
H4 C5 1_555 1_555
U1_2 O2 1_555 1_555
U1A O17 1_555 1_555
U2A O4 1_555 1_555
U3A O14 1_555 1_555
U4A O7 1_555 1_555
O2_2 U1 1_555 1_555
O4A U2 1_555 1_555
O7A U4 1_555 1_555
O14A U3 1_555 1_555
O17A U1 1_555 1_555
U2 O4 1_555 1_555
U4 O14 1_555 1_555
C1 O19 1_555 1_555
C2 C5 1_555 1_555
U2A O4A 1_555 1_555
U3A O7A 1_555 1_555
U3A O14A 1_555 1_555
U4A O14A 1_555 1_555

#END
