
#######################################################################
#
#                 Cambridge Crystallographic Data Centre
#                                CCDC 
#
#######################################################################
#
# If this CIF has been generated from an entry in the Cambridge 
# Structural Database, then it will include bibliographic, chemical, 
# crystal, experimental, refinement or atomic coordinate data resulting 
# from the CCDC's data processing and validation procedures.
#
#######################################################################

data_EPOZAL
_symmetry_cell_setting           triclinic
_symmetry_space_group_name_H-M   'P -1'
_symmetry_Int_Tables_number      2
_space_group_name_Hall           '-P 1'
loop_
_symmetry_equiv_pos_site_id
_symmetry_equiv_pos_as_xyz
1 x,y,z
2 -x,-y,-z
_cell_length_a                   9.2666(10)
_cell_length_b                   14.2673(15)
_cell_length_c                   15.9830(19)
_cell_angle_alpha                67.763(8)
_cell_angle_beta                 76.707(9)
_cell_angle_gamma                75.464(9)
_cell_volume                     1871.74
loop_
_atom_site_label
_atom_site_type_symbol
_atom_site_fract_x
_atom_site_fract_y
_atom_site_fract_z
Li1 Li 0.3752(4) 0.31109(18) 0.21234(17)
Li2 Li 0.1484(4) 0.16145(18) 0.26053(17)
B1 B 0.3245(3) 0.16978(12) 0.35512(12)
H1 H 0.2165 0.1679 0.3740
H2 H 0.3580 0.1575 0.2968
H3 H 0.3424 0.2374 0.3479
C1 C 0.4175(2) 0.08166(11) 0.43196(10)
C2 C 0.5331(2) 0.00528(12) 0.41113(10)
H4 H 0.5581 0.0080 0.3493
C3 C 0.3866(2) 0.07415(11) 0.52477(11)
C4 C 0.2735(2) 0.15644(11) 0.55630(10)
H5 H 0.1943 0.1873 0.5164
H6 H 0.2244 0.1245 0.6195
C5 C 0.3512(2) 0.24053(12) 0.55314(11)
H7 H 0.4059 0.2682 0.4906
H8 H 0.4270 0.2090 0.5953
C6 C 0.2460(2) 0.32973(11) 0.57846(11)
H9 H 0.1780 0.3672 0.5320
H10 H 0.1830 0.3021 0.6381
C7 C 0.3315(3) 0.40491(13) 0.58468(13)
H11 H 0.3929 0.4329 0.5245
H12 H 0.4019 0.3662 0.6296
C8 C 0.2334(3) 0.49497(14) 0.61220(13)
H13 H 0.2985 0.5300 0.6272
H14 H 0.1619 0.4680 0.6681
C9 C 0.1451(4) 0.57287(15) 0.53833(15)
H15 H 0.0847 0.6287 0.5598
H16 H 0.2151 0.6011 0.4832
H17 H 0.0783 0.5392 0.5242
B2 B 0.1879(3) 0.31041(13) 0.12300(12)
H18 H 0.1649 0.2473 0.1224
H19 H 0.1624 0.3123 0.1854
H20 H 0.2956 0.3116 0.1016
C10 C 0.0901(2) 0.40951(12) 0.05626(11)
C11 C -0.0271(3) 0.47368(12) 0.09223(10)
H21 H -0.0480 0.4563 0.1568
C12 C 0.1156(2) 0.43823(12) -0.03936(11)
C13 C 0.2335(2) 0.37328(11) -0.08770(10)
H22 H 0.2684 0.4183 -0.1500
H23 H 0.3213 0.3442 -0.0544
C14 C 0.1775(3) 0.28483(12) -0.09518(11)
H24 H 0.0901 0.3137 -0.1289
H25 H 0.1424 0.2397 -0.0330
C15 C 0.2972(3) 0.22056(13) -0.14338(12)
H26 H 0.3413 0.2671 -0.2023
H27 H 0.3789 0.1851 -0.1056
C16 C 0.2396(3) 0.13944(15) -0.16225(14)
H28 H 0.3229 0.1062 -0.1988
H29 H 0.1581 0.1753 -0.2002
C17 C 0.1808(4) 0.05691(16) -0.07967(15)
H30 H 0.0994 0.0895 -0.0417
H31 H 0.1364 0.0140 -0.0996
C18 C 0.3015(4) -0.01211(18) -0.02162(17)
H32 H 0.2570 -0.0653 0.0305
H33 H 0.3824 -0.0448 -0.0587
H34 H 0.3428 0.0293 0.0007
O1 O 0.33800(18) 0.45097(8) 0.21962(8)
C19 C 0.1904(3) 0.49579(14) 0.25026(15)
H35 H 0.1469 0.4469 0.3078
H36 H 0.1241 0.5145 0.2037
C20 C 0.2053(4) 0.5908(2) 0.2657(2)
H37 H 0.1752 0.6538 0.2143
H38 H 0.1420 0.5965 0.3232
C21 C 0.3685(4) 0.5756(2) 0.2712(2)
H39 H 0.4146 0.6321 0.2227
H40 H 0.3817 0.5742 0.3314
C22 C 0.4372(4) 0.4785(2) 0.2588(3)
H41 H 0.5351 0.4844 0.2179
H42 H 0.4558 0.4249 0.3184
O2 O 0.58832(18) 0.29983(8) 0.15893(8)
C23 C 0.6277(3) 0.37958(15) 0.07391(15)
H43 H 0.6709 0.4297 0.0853
H44 H 0.5370 0.4167 0.0443
C24 C 0.7401(4) 0.32930(18) 0.01428(15)
H45 H 0.8155 0.3730 -0.0231
H46 H 0.6907 0.3142 -0.0268
C25 C 0.8122(3) 0.23092(16) 0.08182(16)
H47 H 0.8542 0.1767 0.0539
H48 H 0.8930 0.2430 0.1056
C26 C 0.6804(3) 0.20296(13) 0.15591(13)
H49 H 0.6229 0.1629 0.1411
H50 H 0.7154 0.1616 0.2155
O3 O -0.06568(18) 0.16891(8) 0.31154(8)
C27 C -0.1008(3) 0.08932(14) 0.39747(13)
H51 H -0.0075 0.0498 0.4234
H52 H -0.1519 0.0412 0.3888
C28 C -0.2031(3) 0.14245(15) 0.46026(13)
H53 H -0.1447 0.1607 0.4947
H54 H -0.2749 0.0990 0.5039
C29 C -0.2833(3) 0.23720(15) 0.39429(15)
H55 H -0.3224 0.2929 0.4207
H56 H -0.3677 0.2217 0.3764
C30 C -0.1597(3) 0.26589(13) 0.31393(13)
H57 H -0.2027 0.3036 0.2564
H58 H -0.1008 0.3097 0.3227
O4 O 0.18270(19) 0.02077(9) 0.25874(9)
C31 C 0.0864(3) -0.01500(17) 0.22382(17)
H59 H 0.1022 0.0120 0.1561
H60 H -0.0209 0.0068 0.2464
C32 C 0.1302(4) -0.12921(19) 0.2584(2)
H61 H 0.0647 -0.1593 0.3163
H62 H 0.1217 -0.1585 0.2130
C33 C 0.2890(4) -0.15062(19) 0.2737(2)
H63 H 0.3575 -0.1786 0.2278
H64 H 0.3016 -0.2010 0.3355
C34 C 0.3216(3) -0.04997(15) 0.26406(16)
H65 H 0.3654 -0.0565 0.3174
H66 H 0.3944 -0.0260 0.2080
Li1A Li 0.6248(4) -0.31109(18) 0.78766(17)
Li1A_2 Li -0.3752(4) 0.68891(18) -0.21234(17)
Li2A Li 0.8516(4) -0.16145(18) 0.73947(17)
Li2A_2 Li -0.1484(4) 0.83855(18) -0.26053(17)
B1A B 0.6755(3) -0.16978(12) 0.64488(12)
H1A H 0.7835 -0.1679 0.6260
H2A H 0.6420 -0.1575 0.7032
H3A H 0.6576 -0.2374 0.6521
C1A C 0.5825(2) -0.08166(11) 0.56804(10)
C2A C 0.4669(2) -0.00528(12) 0.58887(10)
H4A H 0.4419 -0.0080 0.6507
C3A C 0.6134(2) -0.07415(11) 0.47523(11)
C4A C 0.7265(2) -0.15644(11) 0.44370(10)
H5A H 0.8057 -0.1873 0.4836
H6A H 0.7756 -0.1245 0.3805
C5A C 0.6488(2) -0.24053(12) 0.44686(11)
H7A H 0.5941 -0.2682 0.5094
H8A H 0.5730 -0.2090 0.4047
C6A C 0.7540(2) -0.32973(11) 0.42154(11)
H9A H 0.8220 -0.3672 0.4680
H10A H 0.8170 -0.3021 0.3619
C7A C 0.6685(3) -0.40491(13) 0.41532(13)
H11A H 0.6071 -0.4329 0.4755
H12A H 0.5981 -0.3662 0.3704
C8A C 0.7666(3) -0.49497(14) 0.38780(13)
H13A H 0.7015 -0.5300 0.3728
H14A H 0.8381 -0.4680 0.3319
C9A C 0.8549(4) -0.57287(15) 0.46167(15)
H15A H 0.9153 -0.6287 0.4402
H16A H 0.7849 -0.6011 0.5168
H17A H 0.9217 -0.5392 0.4758
B2A B -0.1879(3) 0.68959(13) -0.12300(12)
H18A H -0.1649 0.7527 -0.1224
H18A_2 H 0.8351 -0.2473 0.8776
H19A H -0.1624 0.6877 -0.1854
H19A_2 H 0.8376 -0.3123 0.8146
H20A H -0.2956 0.6884 -0.1016
H20A_2 H 0.7044 -0.3116 0.8984
C10A C -0.0901(2) 0.59049(12) -0.05626(11)
C11A C 0.0271(3) 0.52632(12) -0.09223(10)
H21A H 0.0480 0.5437 -0.1568
C12A C -0.1156(2) 0.56177(12) 0.03936(11)
C13A C -0.2335(2) 0.62672(11) 0.08770(10)
H22A H -0.2684 0.5817 0.1500
H23A H -0.3213 0.6558 0.0544
C14A C -0.1775(3) 0.71517(12) 0.09518(11)
H24A H -0.0901 0.6863 0.1289
H25A H -0.1424 0.7603 0.0330
C15A C -0.2972(3) 0.77944(13) 0.14338(12)
H26A H -0.3413 0.7329 0.2023
H27A H -0.3789 0.8149 0.1056
C16A C -0.2396(3) 0.86056(15) 0.16225(14)
H28A H -0.3229 0.8938 0.1988
H29A H -0.1581 0.8247 0.2002
C17A C -0.1808(4) 0.94309(16) 0.07967(15)
H30A H -0.0994 0.9105 0.0417
H31A H -0.1364 0.9860 0.0996
C18A C -0.3015(4) 1.01211(18) 0.02162(17)
H32A H -0.2570 1.0653 -0.0305
H33A H -0.3824 1.0448 0.0587
H34A H -0.3428 0.9707 -0.0007
O1A O 0.66200(18) -0.45097(8) 0.78038(8)
C19A C 0.8096(3) -0.49579(14) 0.74974(15)
H35A H 0.8531 -0.4469 0.6922
H36A H 0.8759 -0.5145 0.7963
C20A C 0.7947(4) -0.5908(2) 0.7343(2)
H37A H 0.8248 -0.6538 0.7857
H38A H 0.8580 -0.5965 0.6768
C21A C 0.6315(4) -0.5756(2) 0.7288(2)
H39A H 0.5854 -0.6321 0.7773
H40A H 0.6183 -0.5742 0.6686
C22A C 0.5628(4) -0.4785(2) 0.7412(3)
H41A H 0.4649 -0.4844 0.7821
H42A H 0.5442 -0.4249 0.6816
O2A O 0.41168(18) -0.29983(8) 0.84107(8)
C23A C 0.3723(3) -0.37958(15) 0.92609(15)
H43A H 0.3291 -0.4297 0.9147
H44A H 0.4630 -0.4167 0.9557
C24A C 0.2599(4) -0.32930(18) 0.98572(15)
H45A H 0.1845 -0.3730 1.0231
H46A H 0.3093 -0.3142 1.0268
C25A C 0.1878(3) -0.23092(16) 0.91818(16)
H47A H 0.1458 -0.1767 0.9461
H48A H 0.1070 -0.2430 0.8944
C26A C 0.3196(3) -0.20296(13) 0.84409(13)
H49A H 0.3771 -0.1629 0.8589
H50A H 0.2846 -0.1616 0.7845
O3A O 1.06568(18) -0.16891(8) 0.68846(8)
C27A C 1.1008(3) -0.08932(14) 0.60253(13)
H51A H 1.0075 -0.0498 0.5766
H52A H 1.1519 -0.0412 0.6112
C28A C 1.2031(3) -0.14245(15) 0.53974(13)
H53A H 1.1447 -0.1607 0.5053
H54A H 1.2749 -0.0990 0.4961
C29A C 1.2833(3) -0.23720(15) 0.60571(15)
H55A H 1.3224 -0.2929 0.5793
H56A H 1.3677 -0.2217 0.6236
C30A C 1.1597(3) -0.26589(13) 0.68607(13)
H57A H 1.2027 -0.3036 0.7436
H58A H 1.1008 -0.3097 0.6773
O4A O 0.81730(19) -0.02077(9) 0.74126(9)
C31A C 0.9136(3) 0.01500(17) 0.77618(17)
H59A H 0.8978 -0.0120 0.8439
H60A H 1.0209 -0.0068 0.7536
C32A C 0.8698(4) 0.12921(19) 0.7416(2)
H61A H 0.9353 0.1593 0.6837
H62A H 0.8783 0.1585 0.7870
C33A C 0.7110(4) 0.15062(19) 0.7263(2)
H63A H 0.6425 0.1786 0.7722
H64A H 0.6984 0.2010 0.6645
C34A C 0.6784(3) 0.04997(15) 0.73594(16)
H65A H 0.6346 0.0565 0.6826
H66A H 0.6056 0.0260 0.7920
loop_
_geom_bond_atom_site_label_1
_geom_bond_atom_site_label_2
_geom_bond_site_symmetry_1
_geom_bond_site_symmetry_2
Li1 H2 1_555 1_555
Li2 H1 1_555 1_555
B1 H1 1_555 1_555
H2 Li2 1_555 1_555
H3 Li1 1_555 1_555
C1 B1 1_555 1_555
C2 C1 1_555 1_555
H4 C2 1_555 1_555
C3 C1 1_555 1_555
C4 C3 1_555 1_555
H5 C4 1_555 1_555
H6 C4 1_555 1_555
C5 C4 1_555 1_555
H7 C5 1_555 1_555
H8 C5 1_555 1_555
C6 C5 1_555 1_555
H9 C6 1_555 1_555
H10 C6 1_555 1_555
C7 C6 1_555 1_555
H11 C7 1_555 1_555
H12 C7 1_555 1_555
C8 C7 1_555 1_555
H13 C8 1_555 1_555
H14 C8 1_555 1_555
C9 C8 1_555 1_555
H15 C9 1_555 1_555
H16 C9 1_555 1_555
H17 C9 1_555 1_555
B2 H18 1_555 1_555
H18 Li2 1_555 1_555
H19 Li1 1_555 1_555
H20 Li1 1_555 1_555
C10 B2 1_555 1_555
C11 C10 1_555 1_555
H21 C11 1_555 1_555
C12 C10 1_555 1_555
C13 C12 1_555 1_555
H22 C13 1_555 1_555
H23 C13 1_555 1_555
C14 C13 1_555 1_555
H24 C14 1_555 1_555
H25 C14 1_555 1_555
C15 C14 1_555 1_555
H26 C15 1_555 1_555
H27 C15 1_555 1_555
C16 C15 1_555 1_555
H28 C16 1_555 1_555
H29 C16 1_555 1_555
C17 C16 1_555 1_555
H30 C17 1_555 1_555
H31 C17 1_555 1_555
C18 C17 1_555 1_555
H32 C18 1_555 1_555
H33 C18 1_555 1_555
H34 C18 1_555 1_555
O1 Li1 1_555 1_555
C19 O1 1_555 1_555
H35 C19 1_555 1_555
H36 C19 1_555 1_555
C20 C19 1_555 1_555
H37 C20 1_555 1_555
H38 C20 1_555 1_555
C21 C20 1_555 1_555
H39 C21 1_555 1_555
H40 C21 1_555 1_555
C22 O1 1_555 1_555
H41 C22 1_555 1_555
H42 C22 1_555 1_555
O2 Li1 1_555 1_555
C23 O2 1_555 1_555
H43 C23 1_555 1_555
H44 C23 1_555 1_555
C24 C23 1_555 1_555
H45 C24 1_555 1_555
H46 C24 1_555 1_555
C25 C24 1_555 1_555
H47 C25 1_555 1_555
H48 C25 1_555 1_555
C26 O2 1_555 1_555
H49 C26 1_555 1_555
H50 C26 1_555 1_555
O3 Li2 1_555 1_555
C27 O3 1_555 1_555
H51 C27 1_555 1_555
H52 C27 1_555 1_555
C28 C27 1_555 1_555
H53 C28 1_555 1_555
H54 C28 1_555 1_555
C29 C28 1_555 1_555
H55 C29 1_555 1_555
H56 C29 1_555 1_555
C30 O3 1_555 1_555
H57 C30 1_555 1_555
H58 C30 1_555 1_555
O4 Li2 1_555 1_555
C31 O4 1_555 1_555
H59 C31 1_555 1_555
H60 C31 1_555 1_555
C32 C31 1_555 1_555
H61 C32 1_555 1_555
H62 C32 1_555 1_555
C33 C32 1_555 1_555
H63 C33 1_555 1_555
H64 C33 1_555 1_555
C34 O4 1_555 1_555
H65 C34 1_555 1_555
H66 C34 1_555 1_555
Li1A H2A 1_555 1_555
Li1A_2 H19A 1_555 1_555
Li2A H1A 1_555 1_555
Li2A_2 H18A 1_555 1_555
B1A H1A 1_555 1_555
H2A Li2A 1_555 1_555
H3A Li1A 1_555 1_555
C1A B1A 1_555 1_555
C2A C3 1_555 1_555
H4A C2A 1_555 1_555
C3A C2 1_555 1_555
C4A C3A 1_555 1_555
H5A C4A 1_555 1_555
H6A C4A 1_555 1_555
C5A C4A 1_555 1_555
H7A C5A 1_555 1_555
H8A C5A 1_555 1_555
C6A C5A 1_555 1_555
H9A C6A 1_555 1_555
H10A C6A 1_555 1_555
C7A C6A 1_555 1_555
H11A C7A 1_555 1_555
H12A C7A 1_555 1_555
C8A C7A 1_555 1_555
H13A C8A 1_555 1_555
H14A C8A 1_555 1_555
C9A C8A 1_555 1_555
H15A C9A 1_555 1_555
H16A C9A 1_555 1_555
H17A C9A 1_555 1_555
B2A H18A 1_555 1_555
H18A_2 Li2A 1_555 1_555
H19A Li2A_2 1_555 1_555
H19A_2 Li1A 1_555 1_555
H20A Li1A_2 1_555 1_555
H20A_2 Li1A 1_555 1_555
C10A B2A 1_555 1_555
C11A C12 1_555 1_555
H21A C11A 1_555 1_555
C12A C11 1_555 1_555
C13A C12A 1_555 1_555
H22A C13A 1_555 1_555
H23A C13A 1_555 1_555
C14A C13A 1_555 1_555
H24A C14A 1_555 1_555
H25A C14A 1_555 1_555
C15A C14A 1_555 1_555
H26A C15A 1_555 1_555
H27A C15A 1_555 1_555
C16A C15A 1_555 1_555
H28A C16A 1_555 1_555
H29A C16A 1_555 1_555
C17A C16A 1_555 1_555
H30A C17A 1_555 1_555
H31A C17A 1_555 1_555
C18A C17A 1_555 1_555
H32A C18A 1_555 1_555
H33A C18A 1_555 1_555
H34A C18A 1_555 1_555
O1A Li1A 1_555 1_555
C19A O1A 1_555 1_555
H35A C19A 1_555 1_555
H36A C19A 1_555 1_555
C20A C19A 1_555 1_555
H37A C20A 1_555 1_555
H38A C20A 1_555 1_555
C21A C20A 1_555 1_555
H39A C21A 1_555 1_555
H40A C21A 1_555 1_555
C22A O1A 1_555 1_555
H41A C22A 1_555 1_555
H42A C22A 1_555 1_555
O2A Li1A 1_555 1_555
C23A O2A 1_555 1_555
H43A C23A 1_555 1_555
H44A C23A 1_555 1_555
C24A C23A 1_555 1_555
H45A C24A 1_555 1_555
H46A C24A 1_555 1_555
C25A C24A 1_555 1_555
H47A C25A 1_555 1_555
H48A C25A 1_555 1_555
C26A O2A 1_555 1_555
H49A C26A 1_555 1_555
H50A C26A 1_555 1_555
O3A Li2A 1_555 1_555
C27A O3A 1_555 1_555
H51A C27A 1_555 1_555
H52A C27A 1_555 1_555
C28A C27A 1_555 1_555
H53A C28A 1_555 1_555
H54A C28A 1_555 1_555
C29A C28A 1_555 1_555
H55A C29A 1_555 1_555
H56A C29A 1_555 1_555
C30A O3A 1_555 1_555
H57A C30A 1_555 1_555
H58A C30A 1_555 1_555
O4A Li2A 1_555 1_555
C31A O4A 1_555 1_555
H59A C31A 1_555 1_555
H60A C31A 1_555 1_555
C32A C31A 1_555 1_555
H61A C32A 1_555 1_555
H62A C32A 1_555 1_555
C33A C32A 1_555 1_555
H63A C33A 1_555 1_555
H64A C33A 1_555 1_555
C34A O4A 1_555 1_555
H65A C34A 1_555 1_555
H66A C34A 1_555 1_555
Li2 H19 1_555 1_555
B1 H2 1_555 1_555
B1 H3 1_555 1_555
B2 H19 1_555 1_555
B2 H20 1_555 1_555
C21 C22 1_555 1_555
C25 C26 1_555 1_555
C29 C30 1_555 1_555
C33 C34 1_555 1_555
Li2A H19A_2 1_555 1_555
B1A H2A 1_555 1_555
B1A H3A 1_555 1_555
C1A C2A 1_555 1_555
C1A C3A 1_555 1_555
B2A H19A 1_555 1_555
B2A H20A 1_555 1_555
C10A C11A 1_555 1_555
C10A C12A 1_555 1_555
C21A C22A 1_555 1_555
C25A C26A 1_555 1_555
C29A C30A 1_555 1_555
C33A C34A 1_555 1_555

#END
