
#######################################################################
#
#                 Cambridge Crystallographic Data Centre
#                                CCDC 
#
#######################################################################
#
# If this CIF has been generated from an entry in the Cambridge 
# Structural Database, then it will include bibliographic, chemical, 
# crystal, experimental, refinement or atomic coordinate data resulting 
# from the CCDC's data processing and validation procedures.
#
#######################################################################

data_EPUGOM
_symmetry_cell_setting           triclinic
_symmetry_space_group_name_H-M   'P -1'
_symmetry_Int_Tables_number      2
_space_group_name_Hall           '-P 1'
loop_
_symmetry_equiv_pos_site_id
_symmetry_equiv_pos_as_xyz
1 x,y,z
2 -x,-y,-z
_cell_length_a                   7.2356(8)
_cell_length_b                   9.4027(11)
_cell_length_c                   11.3802(13)
_cell_angle_alpha                78.1400(10)
_cell_angle_beta                 80.7450(10)
_cell_angle_gamma                71.5560(10)
_cell_volume                     714.956
loop_
_atom_site_label
_atom_site_type_symbol
_atom_site_fract_x
_atom_site_fract_y
_atom_site_fract_z
Ag1 Ag 0.22978(10) 0.03195(8) 0.21563(5)
N1 N 0.2525(10) 0.0199(8) 0.0270(6)
N2 N 0.2362(10) 0.0212(8) -0.5943(6)
O1 O 0.0222(12) 0.3218(8) 0.1874(7)
C1 C 0.3287(13) -0.1029(9) -0.5224(7)
H1 H 0.3907 -0.1906 -0.5557
C2 C 0.3378(12) -0.1088(8) -0.4030(7)
H2 H 0.4062 -0.1985 -0.3574
C3 C 0.2441(11) 0.0203(8) -0.3481(6)
C4 C 0.1452(11) 0.1487(9) -0.4235(7)
H3 H 0.0801 0.2377 -0.3926
C5 C 0.1427(12) 0.1453(9) -0.5425(7)
H4 H 0.0733 0.2327 -0.5902
C6 C 0.2865(14) -0.1094(10) -0.0151(7)
H5 H 0.3108 -0.2002 0.0392
C7 C 0.2872(14) -0.1146(9) -0.1351(8)
H6 H 0.3129 -0.2076 -0.1604
C8 C 0.2494(11) 0.0193(9) -0.2188(6)
C9 C 0.2146(14) 0.1537(9) -0.1737(8)
H7 H 0.1902 0.2464 -0.2256
C10 C 0.2164(14) 0.1486(10) -0.0547(8)
H8 H 0.1910 0.2401 -0.0271
H9 H -0.063(14) 0.374(10) 0.139(9)
H10 H 0.063(16) 0.382(9) 0.215(10)
Ag1_2 Ag 0.22978(10) 0.03195(8) -0.78437(5)
N2_2 N 0.2362(10) 0.0212(8) 0.4057(6)
S1 S 0.2921(5) -0.4544(4) 0.2876(3)
O2 O 0.1079(9) -0.4818(8) 0.3144(7)
O3 O 0.3980(13) -0.5165(16) 0.1908(8)
O4 O 0.273(2) -0.2894(15) 0.2459(13)
C11 C 0.4041(13) -0.4869(9) 0.4023(10)
C12 C 0.5998(15) -0.4911(10) 0.3851(11)
H11 H 0.6656 -0.4850 0.3079
C13 C 0.3039(14) -0.4954(10) 0.5157(10)
H12 H 0.1726 -0.4922 0.5256
S1A S 0.7079(5) -0.5456(4) 0.7124(3)
O2A O 0.8921(9) -0.5182(8) 0.6856(7)
O3A O 0.6020(13) -0.4835(16) 0.8092(8)
O4A O 0.727(2) -0.7106(15) 0.7541(13)
C11A C 0.5959(13) -0.5131(9) 0.5977(10)
C12A C 0.4002(15) -0.5089(10) 0.6149(11)
H11A H 0.3344 -0.5150 0.6921
C13A C 0.6961(14) -0.5046(10) 0.4843(10)
H12A H 0.8274 -0.5078 0.4744
O5 O 0.2662(11) 0.5001(11) -0.0410(7)
H13 H 0.276(15) 0.515(15) 0.029(5)
H14 H 0.375(9) 0.496(15) -0.084(8)
loop_
_geom_bond_atom_site_label_1
_geom_bond_atom_site_label_2
_geom_bond_site_symmetry_1
_geom_bond_site_symmetry_2
Ag1 N1 1_555 1_555
N1 C6 1_555 1_555
N2 C1 1_555 1_555
O1 Ag1 1_555 1_555
C1 H1 1_555 1_555
C2 C1 1_555 1_555
H2 C2 1_555 1_555
C3 C2 1_555 1_555
C4 C3 1_555 1_555
H3 C4 1_555 1_555
C5 N2 1_555 1_555
H4 C5 1_555 1_555
C6 H5 1_555 1_555
C7 C6 1_555 1_555
H6 C7 1_555 1_555
C8 C3 1_555 1_555
C9 C8 1_555 1_555
H7 C9 1_555 1_555
C10 N1 1_555 1_555
H8 C10 1_555 1_555
H9 O1 1_555 1_555
H10 O1 1_555 1_555
S1 O2 1_555 1_555
O3 S1 1_555 1_555
O4 S1 1_555 1_555
C11 S1 1_555 1_555
C12 C11 1_555 1_555
H11 C12 1_555 1_555
C13 C11 1_555 1_555
H12 C13 1_555 1_555
O5 H13 1_555 1_555
H14 O5 1_555 1_555
Ag1_2 N2 1_555 1_555
N2_2 Ag1 1_555 1_555
S1A O2A 1_555 1_555
O3A S1A 1_555 1_555
O4A S1A 1_555 1_555
C11A S1A 1_555 1_555
C12A C13 1_555 1_555
H11A C12A 1_555 1_555
C13A C12 1_555 1_555
H12A C13A 1_555 1_555
C4 C5 1_555 1_555
C7 C8 1_555 1_555
C9 C10 1_555 1_555
C11A C12A 1_555 1_555
C11A C13A 1_555 1_555

#END
