
#######################################################################
#
#                 Cambridge Crystallographic Data Centre
#                                CCDC 
#
#######################################################################
#
# If this CIF has been generated from an entry in the Cambridge 
# Structural Database, then it will include bibliographic, chemical, 
# crystal, experimental, refinement or atomic coordinate data resulting 
# from the CCDC's data processing and validation procedures.
#
#######################################################################

data_EPUGUS
_symmetry_cell_setting           monoclinic
_symmetry_space_group_name_H-M   'P 21/m'
_symmetry_Int_Tables_number      11
_space_group_name_Hall           '-P 2yb'
loop_
_symmetry_equiv_pos_site_id
_symmetry_equiv_pos_as_xyz
1 x,y,z
2 -x,1/2+y,-z
3 -x,-y,-z
4 x,1/2-y,z
_cell_length_a                   7.3515(9)
_cell_length_b                   17.623(2)
_cell_length_c                   12.9531(15)
_cell_angle_alpha                90
_cell_angle_beta                 100.894(2)
_cell_angle_gamma                90
_cell_volume                     1647.9
loop_
_atom_site_label
_atom_site_type_symbol
_atom_site_fract_x
_atom_site_fract_y
_atom_site_fract_z
Ag1 Ag 0.66148(9) 0.99119(4) 0.92503(4)
N1 N 0.5075(9) 0.9954(3) 0.7677(4)
C3 C 0.4482(11) 1.0613(5) 0.7242(6)
H1 H 0.4749 1.1052 0.7642
C4 C 0.4663(11) 0.9343(4) 0.7082(5)
H2 H 0.5057 0.8873 0.7366
C5 C 0.3680(10) 0.9368(5) 0.6063(6)
H3 H 0.3431 0.8925 0.5670
C7 C 0.3498(11) 1.0685(5) 0.6235(6)
H5 H 0.3126 1.1161 0.5966
C12 C 0.3075(11) 1.0062(4) 0.5640(6)
C13 C 0.2051(11) 1.0126(5) 0.4540(6)
H9 H 0.1674 1.0612 0.4315
C14 C 0.1615(11) 0.9586(5) 0.3850(6)
H10 H 0.2005 0.9095 0.4040
C15 C 0.0532(9) 0.9712(5) 0.2782(5)
C16 C -0.0047(11) 1.0407(5) 0.2357(7)
H11 H 0.0262 1.0846 0.2749
C17 C -0.1079(11) 1.0457(5) 0.1355(6)
H12 H -0.1440 1.0932 0.1078
C18 C -0.0995(11) 0.9164(5) 0.1170(6)
H13 H -0.1300 0.8732 0.0762
C19 C 0.0019(11) 0.9081(5) 0.2145(6)
H14 H 0.0380 0.8599 0.2394
N2 N -0.1582(8) 0.9832(4) 0.0762(5)
Ag1_2 Ag 1.66148(9) 0.99119(4) 1.92503(4)
Ag1B Ag 0.33852(9) 1.00881(4) 1.07497(4)
Ag1_3 Ag -0.33852(9) 0.99119(4) -0.07497(4)
Ag1B_2 Ag 1.33852(9) 1.00881(4) 2.07497(4)
N1_2 N 1.5075(9) 0.9954(3) 1.7677(4)
C3_2 C 1.4482(11) 1.0613(5) 1.7242(6)
H1_2 H 1.4749 1.1052 1.7642
C4_2 C 1.4663(11) 0.9343(4) 1.7082(5)
H2_2 H 1.5057 0.8873 1.7366
C5_2 C 1.3680(10) 0.9368(5) 1.6063(6)
H3_2 H 1.3431 0.8925 1.5670
C7_2 C 1.3498(11) 1.0685(5) 1.6235(6)
H5_2 H 1.3126 1.1161 1.5966
C12_2 C 1.3075(11) 1.0062(4) 1.5640(6)
C13_2 C 1.2051(11) 1.0126(5) 1.4540(6)
H9_2 H 1.1674 1.0612 1.4315
C14_2 C 1.1615(11) 0.9586(5) 1.3850(6)
H10_2 H 1.2005 0.9095 1.4040
C15_2 C 1.0532(9) 0.9712(5) 1.2782(5)
C16_2 C 0.9953(11) 1.0407(5) 1.2357(7)
H11_2 H 1.0262 1.0846 1.2749
C17_2 C 0.8921(11) 1.0457(5) 1.1355(6)
H12_2 H 0.8560 1.0932 1.1078
C18_2 C 0.9005(11) 0.9164(5) 1.1170(6)
H13_2 H 0.8700 0.8732 1.0762
C19_2 C 1.0019(11) 0.9081(5) 1.2145(6)
H14_2 H 1.0380 0.8599 1.2394
N2_2 N 0.8418(8) 0.9832(4) 1.0762(5)
N2_3 N 1.8418(8) 0.9832(4) 2.0762(5)
S1 S 0.7489(4) 0.7500 0.8817(2)
C1 C 1.0005(16) 0.7500 0.5870(8)
C2 C 0.8487(16) 0.7500 0.7676(8)
C6 C 1.1151(17) 0.7500 0.6867(9)
H4 H 1.2433 0.7500 0.6930
C8 C 0.8103(17) 0.7500 0.5789(8)
H6 H 0.7336 0.7500 0.5130
C9 C 1.0369(15) 0.7500 0.7754(8)
H7 H 1.1132 0.7500 0.8414
C10 C 0.7334(15) 0.7500 0.6684(9)
H8 H 0.6054 0.7500 0.6627
C11 C 1.085(2) 0.7500 0.4874(9)
O1 O 1.2590(15) 0.7500 0.5004(8)
O2 O 0.9801(19) 0.7500 0.4023(8)
O3 O 0.8897(19) 0.7500 0.9709(9)
O4 O 0.679(2) 0.6756(7) 0.8917(8)
O4C O 0.679(2) 0.8244(7) 0.8917(8)
O5 O 0.4431(14) 0.6404(5) 1.0308(8)
H19 H 0.474(17) 0.648(6) 0.972(5)
H20 H 0.388(16) 0.680(4) 1.046(8)
O6 O 1.2185(17) 0.7500 1.0921(9)
H17 H 1.101(3) 0.7500 1.075(10)
H18 H 1.247(18) 0.7500 1.1588(16)
O7 O 0.6826(17) 0.7500 0.2534(12)
H21 H 0.796(7) 0.7500 0.282(11)
H22 H 0.68(2) 0.7500 0.1873(18)
O8 O 1.3340(18) 0.7500 0.2987(8)
H15 H 1.451(4) 0.7500 0.303(12)
H16 H 1.31(2) 0.7500 0.361(5)
O9? O 0.560(3) 0.7200(13) 0.8487(16)
loop_
_geom_bond_atom_site_label_1
_geom_bond_atom_site_label_2
_geom_bond_site_symmetry_1
_geom_bond_site_symmetry_2
Ag1 N1 1_555 1_555
S1 C2 1_555 1_555
N1 C3 1_555 1_555
C1 C6 1_555 1_555
C2 C9 1_555 1_555
C3 H1 1_555 1_555
C4 N1 1_555 1_555
H2 C4 1_555 1_555
C5 C4 1_555 1_555
H3 C5 1_555 1_555
C6 H4 1_555 1_555
C7 C3 1_555 1_555
H5 C7 1_555 1_555
C8 C1 1_555 1_555
H6 C8 1_555 1_555
C9 C6 1_555 1_555
H7 C9 1_555 1_555
C10 C2 1_555 1_555
H8 C10 1_555 1_555
C11 C1 1_555 1_555
C12 C5 1_555 1_555
O1 C11 1_555 1_555
O2 C11 1_555 1_555
O3 S1 1_555 1_555
C13 C12 1_555 1_555
H9 C13 1_555 1_555
C14 C13 1_555 1_555
H10 C14 1_555 1_555
O4 S1 1_555 1_555
C15 C14 1_555 1_555
C16 C15 1_555 1_555
H11 C16 1_555 1_555
C17 C16 1_555 1_555
H12 C17 1_555 1_555
C18 H13 1_555 1_555
C19 C15 1_555 1_555
H14 C19 1_555 1_555
N2 C17 1_555 1_555
O5 H19 1_555 1_555
O6 H17 1_555 1_555
O7 H21 1_555 1_555
O8 H15 1_555 1_555
H16 O8 1_555 1_555
H18 O6 1_555 1_555
H20 O5 1_555 1_555
H22 O7 1_555 1_555
Ag1_2 Ag1B_2 1_555 1_555
Ag1B Ag1 1_555 1_555
Ag1_3 N2 1_555 1_555
N1_2 Ag1_2 1_555 1_555
C3_2 N1_2 1_555 1_555
H1_2 C3_2 1_555 1_555
C4_2 N1_2 1_555 1_555
H2_2 C4_2 1_555 1_555
C5_2 C4_2 1_555 1_555
H3_2 C5_2 1_555 1_555
C7_2 C3_2 1_555 1_555
H5_2 C7_2 1_555 1_555
C12_2 C5_2 1_555 1_555
C13_2 C12_2 1_555 1_555
H9_2 C13_2 1_555 1_555
C14_2 C13_2 1_555 1_555
H10_2 C14_2 1_555 1_555
O4C S1 1_555 1_555
C15_2 C14_2 1_555 1_555
C16_2 C15_2 1_555 1_555
H11_2 C16_2 1_555 1_555
C17_2 C16_2 1_555 1_555
H12_2 C17_2 1_555 1_555
C18_2 H13_2 1_555 1_555
C19_2 C15_2 1_555 1_555
H14_2 C19_2 1_555 1_555
N2_2 Ag1 1_555 1_555
N2_3 Ag1_2 1_555 1_555
C7 C12 1_555 1_555
C8 C10 1_555 1_555
C18 C19 1_555 1_555
C18 N2 1_555 1_555
C7_2 C12_2 1_555 1_555
C17_2 N2_2 1_555 1_555
C18_2 C19_2 1_555 1_555
C18_2 N2_2 1_555 1_555

#END
