
#######################################################################
#
#                 Cambridge Crystallographic Data Centre
#                                CCDC 
#
#######################################################################
#
# If this CIF has been generated from an entry in the Cambridge 
# Structural Database, then it will include bibliographic, chemical, 
# crystal, experimental, refinement or atomic coordinate data resulting 
# from the CCDC's data processing and validation procedures.
#
#######################################################################

data_EPUTEP
_symmetry_cell_setting           monoclinic
_symmetry_space_group_name_H-M   'P 21/n'
_symmetry_Int_Tables_number      14
_space_group_name_Hall           '-P 2yn'
loop_
_symmetry_equiv_pos_site_id
_symmetry_equiv_pos_as_xyz
1 x,y,z
2 1/2-x,1/2+y,1/2-z
3 -x,-y,-z
4 1/2+x,1/2-y,1/2+z
_cell_length_a                   12.2894(8)
_cell_length_b                   16.3750(10)
_cell_length_c                   15.2554(10)
_cell_angle_alpha                90
_cell_angle_beta                 99.6110(10)
_cell_angle_gamma                90
_cell_volume                     3026.89
loop_
_atom_site_label
_atom_site_type_symbol
_atom_site_fract_x
_atom_site_fract_y
_atom_site_fract_z
Ag1 Ag 0.24116(2) 0.776163(19) 0.48917(2)
Ag2 Ag 0.52812(2) 0.499437(18) 0.372002(19)
Ag3 Ag 0.98520(2) 0.420096(17) 0.27471(2)
Ag4 Ag 1.43295(2) 0.495323(16) 0.149684(18)
N1 N 0.2986(3) 0.6646(2) 0.4533(2)
N2 N 0.4016(2) 0.5636(2) 0.4153(2)
N3 N 0.6573(2) 0.43884(19) 0.3288(2)
N4 N 0.8246(2) 0.41323(18) 0.2987(2)
N5 N 1.1449(2) 0.41566(19) 0.2486(2)
N6 N 1.3029(2) 0.44502(19) 0.2026(2)
N7 N 1.5677(2) 0.53713(18) 0.09679(19)
N8 N 1.6757(3) 0.6173(2) 0.0309(2)
C1 C 0.2345(3) 0.5949(2) 0.4408(3)
H1 H 0.1591 0.5909 0.4472
C2 C 0.2976(3) 0.5332(3) 0.4178(3)
H2 H 0.2742 0.4785 0.4055
C3 C 0.3980(3) 0.6429(2) 0.4373(2)
C4 C 0.4945(4) 0.7003(3) 0.4458(3)
H3 H 0.4556 0.7503 0.4621
C5 C 0.5717(6) 0.6925(4) 0.5278(4)
H4 H 0.6319 0.7319 0.5282
H5 H 0.6018 0.6370 0.5327
H6 H 0.5336 0.7035 0.5782
C6 C 0.5228(7) 0.7299(5) 0.3661(5)
H7 H 0.5865 0.7665 0.3796
H8 H 0.4601 0.7599 0.3329
H9 H 0.5416 0.6840 0.3302
C7 C 0.6584(3) 0.3603(2) 0.2979(2)
H10 H 0.5980 0.3233 0.2906
C8 C 0.7610(3) 0.3444(2) 0.2795(2)
H11 H 0.7846 0.2943 0.2572
C9 C 0.7592(3) 0.4687(2) 0.3282(2)
C10 C 0.7925(3) 0.5538(2) 0.3585(3)
H12 H 0.7357 0.5738 0.3933
C11 C 0.7919(9) 0.6124(3) 0.2821(4)
H13 H 0.7203 0.6097 0.2427
H14 H 0.8506 0.5976 0.2488
H15 H 0.8044 0.6681 0.3052
C12 C 0.9019(4) 0.5571(3) 0.4199(4)
H16 H 0.9013 0.5188 0.4691
H17 H 0.9148 0.6126 0.4434
H18 H 0.9609 0.5420 0.3869
C13 C 1.2127(3) 0.3485(2) 0.2629(3)
H19 H 1.1952 0.2982 0.2882
C14 C 1.3090(3) 0.3665(2) 0.2346(3)
H20 H 1.3703 0.3308 0.2367
C15 C 1.2023(3) 0.4721(2) 0.2125(3)
C16 C 1.1530(3) 0.5553(3) 0.1894(3)
H21 H 1.1055 0.5667 0.2352
C17 C 1.0747(4) 0.5529(3) 0.1015(3)
H22 H 1.0436 0.6074 0.0877
H23 H 1.0149 0.5142 0.1056
H24 H 1.1148 0.5355 0.0544
C18 C 1.2343(4) 0.6236(3) 0.1974(3)
H25 H 1.2818 0.6211 0.2557
H26 H 1.1949 0.6758 0.1913
H27 H 1.2796 0.6187 0.1506
C19 C 1.6686(3) 0.4998(2) 0.1010(3)
H28 H 1.6889 0.4484 0.1276
C20 C 1.7341(3) 0.5485(2) 0.0612(3)
H29 H 1.8082 0.5371 0.0550
C21 C 1.5753(3) 0.6074(2) 0.0533(2)
C22 C 1.4811(3) 0.6664(2) 0.0326(2)
H30 H 1.4123 0.6358 0.0386
C23 C 1.4658(3) 0.6994(2) -0.0627(3)
H31 H 1.4596 0.6537 -0.1047
H32 H 1.5296 0.7331 -0.0700
H33 H 1.3986 0.7326 -0.0743
C24 C 1.4910(4) 0.7367(3) 0.0990(3)
H34 H 1.5008 0.7148 0.1596
H35 H 1.4239 0.7700 0.0878
H36 H 1.5549 0.7706 0.0922
Ag1C Ag 1.74116(2) 0.723837(19) -0.01083(2)
N8C N 0.1757(3) 0.8827(2) 0.5309(2)
loop_
_geom_bond_atom_site_label_1
_geom_bond_atom_site_label_2
_geom_bond_site_symmetry_1
_geom_bond_site_symmetry_2
Ag1 N1 1_555 1_555
Ag2 N2 1_555 1_555
Ag3 N4 1_555 1_555
Ag4 N6 1_555 1_555
N1 C1 1_555 1_555
N2 C2 1_555 1_555
N3 Ag2 1_555 1_555
N4 C8 1_555 1_555
N5 Ag3 1_555 1_555
N6 C14 1_555 1_555
N7 Ag4 1_555 1_555
N8 C20 1_555 1_555
C1 H1 1_555 1_555
C2 C1 1_555 1_555
H2 C2 1_555 1_555
C3 N1 1_555 1_555
C4 C3 1_555 1_555
H3 C4 1_555 1_555
C5 C4 1_555 1_555
H4 C5 1_555 1_555
H5 C5 1_555 1_555
H6 C5 1_555 1_555
C6 C4 1_555 1_555
H7 C6 1_555 1_555
H8 C6 1_555 1_555
H9 C6 1_555 1_555
C7 N3 1_555 1_555
H10 C7 1_555 1_555
C8 C7 1_555 1_555
H11 C8 1_555 1_555
C9 N3 1_555 1_555
C10 C9 1_555 1_555
H12 C10 1_555 1_555
C11 C10 1_555 1_555
H13 C11 1_555 1_555
H14 C11 1_555 1_555
H15 C11 1_555 1_555
C12 C10 1_555 1_555
H16 C12 1_555 1_555
H17 C12 1_555 1_555
H18 C12 1_555 1_555
C13 N5 1_555 1_555
H19 C13 1_555 1_555
C14 C13 1_555 1_555
H20 C14 1_555 1_555
C15 N5 1_555 1_555
C16 C15 1_555 1_555
H21 C16 1_555 1_555
C17 C16 1_555 1_555
H22 C17 1_555 1_555
H23 C17 1_555 1_555
H24 C17 1_555 1_555
C18 C16 1_555 1_555
H25 C18 1_555 1_555
H26 C18 1_555 1_555
H27 C18 1_555 1_555
C19 N7 1_555 1_555
H28 C19 1_555 1_555
C20 C19 1_555 1_555
H29 C20 1_555 1_555
C21 N7 1_555 1_555
C22 C21 1_555 1_555
H30 C22 1_555 1_555
C23 C22 1_555 1_555
H31 C23 1_555 1_555
H32 C23 1_555 1_555
H33 C23 1_555 1_555
C24 C22 1_555 1_555
H34 C24 1_555 1_555
H35 C24 1_555 1_555
H36 C24 1_555 1_555
Ag1C N8 1_555 1_555
N8C Ag1 1_555 1_555
N2 C3 1_555 1_555
N4 C9 1_555 1_555
N6 C15 1_555 1_555
N8 C21 1_555 1_555

#END
