
#######################################################################
#
#                 Cambridge Crystallographic Data Centre
#                                CCDC 
#
#######################################################################
#
# If this CIF has been generated from an entry in the Cambridge 
# Structural Database, then it will include bibliographic, chemical, 
# crystal, experimental, refinement or atomic coordinate data resulting 
# from the CCDC's data processing and validation procedures.
#
#######################################################################

data_EPUTAL
_symmetry_cell_setting           monoclinic
_symmetry_space_group_name_H-M   'P 21/c'
_symmetry_Int_Tables_number      14
_space_group_name_Hall           '-P 2ybc'
loop_
_symmetry_equiv_pos_site_id
_symmetry_equiv_pos_as_xyz
1 x,y,z
2 -x,1/2+y,1/2-z
3 -x,-y,-z
4 x,1/2-y,1/2+z
_cell_length_a                   10.5031(4)
_cell_length_b                   24.5448(8)
_cell_length_c                   12.4659(5)
_cell_angle_alpha                90
_cell_angle_beta                 103.374(2)
_cell_angle_gamma                90
_cell_volume                     3126.51
loop_
_atom_site_label
_atom_site_type_symbol
_atom_site_fract_x
_atom_site_fract_y
_atom_site_fract_z
Ag1 Ag 0.9803(3) -0.72851(13) -1.7791(3)
Ag2 Ag 0.6559(3) -0.76263(14) -1.4225(3)
Ag3 Ag 0.4066(3) -0.63515(12) -1.0983(3)
Ag4 Ag 0.7084(3) -0.90203(11) -1.5540(3)
Ag5 Ag 0.4485(3) -0.86040(12) -1.3085(3)
N1 N 1.073(4) -0.6943(13) -1.895(3)
N2 N 1.052(4) -0.6433(17) -1.934(3)
H1 H 0.9973 -0.6205 -1.9173
C1 C 1.128(4) -0.6342(15) -2.003(3)
H2 H 1.1312 -0.6017 -2.0408
N3 N 1.199(4) -0.6771(17) -2.010(3)
C2 C 1.160(4) -0.714(2) -1.947(4)
H3 H 1.1898 -0.7493 -1.9394
N4 N 0.763(3) -0.7777(12) -1.541(2)
N5 N 0.777(2) -0.8243(11) -1.590(2)
C3 C 0.849(3) -0.8184(13) -1.665(3)
H4 H 0.8724 -0.8461 -1.7071
N6 N 0.883(3) -0.7647(13) -1.668(3)
C4 C 0.830(3) -0.7430(16) -1.590(4)
H5 H 0.8392 -0.7063 -1.5706
N7 N 0.538(2) -0.7420(11) -1.308(2)
N8 N 0.488(3) -0.7811(11) -1.250(3)
C5 C 0.432(3) -0.7532(16) -1.181(3)
H6 H 0.3880 -0.7686 -1.1314
N9 N 0.450(4) -0.6982(14) -1.193(3)
C6 C 0.511(3) -0.6949(15) -1.278(3)
H7 H 0.5297 -0.6626 -1.3102
N10 N 0.621(3) -1.0671(11) -1.492(2)
N11 N 0.606(2) -1.0677(10) -1.604(2)
C7 C 0.630(3) -1.0186(12) -1.636(3)
H8 H 0.6268 -1.0087 -1.7081
N12 N 0.660(3) -0.9845(11) -1.549(2)
C8 C 0.648(3) -1.0158(14) -1.466(3)
H9 H 0.6576 -1.0026 -1.3947
Ag1A Ag 0.0197(3) -1.22851(13) -0.7209(3)
Ag2A Ag 0.3441(3) -1.26263(14) -1.0775(3)
Ag3A Ag 0.5934(3) -1.13515(12) -1.4017(3)
Ag4A Ag 0.2916(3) -0.40203(11) -0.9460(3)
Ag4A_2 Ag 0.2916(3) -1.40203(11) -0.9460(3)
Ag5B Ag 0.5515(3) -1.13960(12) -1.6915(3)
Ag5C Ag 0.4485(3) -0.63960(12) -0.8085(3)
Ag5A Ag 0.5515(3) -1.36040(12) -1.1915(3)
N1A N -0.073(4) -1.1943(13) -0.605(3)
N2A N -0.052(4) -1.1433(17) -0.566(3)
H1A H 0.0027 -1.1205 -0.5827
C1A C -0.128(4) -1.1342(15) -0.497(3)
H2A H -0.1312 -1.1017 -0.4592
N3A N -0.199(4) -1.1771(17) -0.490(3)
C2A C -0.160(4) -1.214(2) -0.553(4)
H3A H -0.1898 -1.2493 -0.5606
N4A N 0.237(3) -1.2777(12) -0.959(2)
N5A N 0.223(2) -1.3243(11) -0.910(2)
N5A_2 N 0.223(2) -0.3243(11) -0.910(2)
C3A C 0.151(3) -1.3184(13) -0.835(3)
H4A H 0.1276 -1.3461 -0.7929
N6A N 0.117(3) -1.2647(13) -0.832(3)
C4A C 0.170(3) -1.2430(16) -0.910(4)
H5A H 0.1608 -1.2063 -0.9294
N7A N 0.462(2) -1.2420(11) -1.192(2)
N8A N 0.512(3) -1.2811(11) -1.250(3)
N8B N 0.512(3) -1.2189(11) -1.750(3)
C5A C 0.568(3) -1.2532(16) -1.319(3)
H6A H 0.6120 -1.2686 -1.3686
N9A N 0.550(4) -1.1982(14) -1.307(3)
C6A C 0.489(3) -1.1949(15) -1.222(3)
H7A H 0.4703 -1.1626 -1.1898
N10A N 0.379(3) -0.5671(11) -1.008(2)
N11A N 0.394(2) -0.5677(10) -0.896(2)
N11B N 0.394(2) -0.9323(10) -1.396(2)
C7A C 0.370(3) -0.5186(12) -0.864(3)
H8A H 0.3732 -0.5087 -0.7919
N12A N 0.340(3) -0.4845(11) -0.951(2)
C8A C 0.352(3) -0.5158(14) -1.034(3)
H9A H 0.3424 -0.5026 -1.1053
Si1 Si 0.0000 -0.5000 -0.5000
W1 W -0.16150(16) -0.39791(6) -0.38099(14)
W2 W -0.17863(12) -0.57991(5) -0.71849(11)
W3 W -0.09782(17) -0.37783(5) -0.64377(12)
W4 W 0.23983(12) -0.40795(5) -0.54693(11)
W5 W 0.04868(14) -0.48276(6) -0.76836(11)
W6 W -0.33623(13) -0.47290(6) -0.60803(11)
O1 O -0.124(6) -0.451(2) -0.526(5)
O2 O -0.005(6) -0.531(2) -0.619(5)
O3 O 0.131(6) -0.471(2) -0.455(5)
O4 O -0.039(6) -0.542(2) -0.415(5)
O5 O -0.149(3) -0.4521(13) -0.271(4)
O6 O -0.300(3) -0.4327(14) -0.476(3)
O7 O -0.236(3) -0.3482(11) -0.329(2)
O8 O 0.017(4) -0.3815(17) -0.311(5)
O9 O -0.129(3) -0.3582(19) -0.504(3)
O10 O -0.099(3) -0.5300(14) -0.799(4)
O11 O -0.223(3) -0.6120(12) -0.597(2)
O12 O -0.268(3) -0.6187(12) -0.826(3)
O13 O -0.310(3) -0.5232(11) -0.714(2)
O14 O -0.064(3) -0.4220(16) -0.757(3)
O15 O 0.077(3) -0.3631(16) -0.596(3)
O16 O -0.266(3) -0.4154(17) -0.679(3)
O17 O -0.142(3) -0.3202(11) -0.712(2)
O18 O 0.344(3) -0.3603(13) -0.567(3)
O19 O 0.344(3) -0.4629(15) -0.485(3)
O20 O 0.196(3) -0.4433(15) -0.684(3)
O21 O 0.072(3) -0.4723(12) -0.897(2)
O22 O -0.493(3) -0.4615(13) -0.659(2)
W1B W 0.16150(16) -0.60209(6) -0.61901(14)
W2B W 0.17863(12) -0.42009(5) -0.28151(11)
W3B W 0.09782(17) -0.62217(5) -0.35623(12)
W4B W -0.23983(12) -0.59205(5) -0.45307(11)
W5B W -0.04868(14) -0.51724(6) -0.23164(11)
W6B W 0.33623(13) -0.52710(6) -0.39197(11)
O1B O 0.124(6) -0.549(2) -0.474(5)
O2B O 0.005(6) -0.469(2) -0.381(5)
O3B O -0.131(6) -0.529(2) -0.545(5)
O4B O 0.039(6) -0.458(2) -0.585(5)
O5B O 0.149(3) -0.5479(13) -0.729(4)
O6B O 0.300(3) -0.5673(14) -0.524(3)
O7B O 0.236(3) -0.6518(11) -0.671(2)
O8B O -0.017(4) -0.6185(17) -0.689(5)
O9B O 0.129(3) -0.6418(19) -0.496(3)
O10B O 0.099(3) -0.4700(14) -0.201(4)
O11B O 0.223(3) -0.3880(12) -0.403(2)
O12B O 0.268(3) -0.3813(12) -0.174(3)
O13B O 0.310(3) -0.4768(11) -0.286(2)
O14B O 0.064(3) -0.5780(16) -0.243(3)
O15B O -0.077(3) -0.6369(16) -0.404(3)
O16B O 0.266(3) -0.5846(17) -0.321(3)
O17B O 0.142(3) -0.6798(11) -0.288(2)
O18B O -0.344(3) -0.6397(13) -0.433(3)
O19B O -0.344(3) -0.5371(15) -0.515(3)
O20B O -0.196(3) -0.5567(15) -0.316(3)
O21B O -0.072(3) -0.5277(12) -0.103(2)
O22B O 0.493(3) -0.5385(13) -0.341(2)
loop_
_geom_bond_atom_site_label_1
_geom_bond_atom_site_label_2
_geom_bond_site_symmetry_1
_geom_bond_site_symmetry_2
Si1 O1 1_555 1_555
W1 O1 1_555 1_555
W2 O2 1_555 1_555
W3 O1 1_555 1_555
W4 O3 1_555 1_555
W5 O2 1_555 1_555
W6 O1 1_555 1_555
Ag1 N1 1_555 1_555
Ag2 N4 1_555 1_555
Ag3 N9 1_555 1_555
Ag4 N5 1_555 1_555
Ag5 N8 1_555 1_555
O2 Si1 1_555 1_555
O3 Si1 1_555 1_555
O4 Si1 1_555 1_555
O5 W1 1_555 1_555
O6 W1 1_555 1_555
O7 W1 1_555 1_555
O8 W1 1_555 1_555
O9 W1 1_555 1_555
O10 W2 1_555 1_555
O11 W2 1_555 1_555
O12 W2 1_555 1_555
O13 W2 1_555 1_555
O14 W3 1_555 1_555
O15 W3 1_555 1_555
O16 W3 1_555 1_555
O17 W3 1_555 1_555
O18 W4 1_555 1_555
O19 W4 1_555 1_555
O20 W4 1_555 1_555
O21 W5 1_555 1_555
O22 W6 1_555 1_555
N1 N2 1_555 1_555
N2 H1 1_555 1_555
C1 N2 1_555 1_555
H2 C1 1_555 1_555
N3 C1 1_555 1_555
C2 N1 1_555 1_555
H3 C2 1_555 1_555
N4 N5 1_555 1_555
N5 C3 1_555 1_555
C3 H4 1_555 1_555
N6 Ag1 1_555 1_555
C4 N4 1_555 1_555
H5 C4 1_555 1_555
N7 Ag2 1_555 1_555
N8 N7 1_555 1_555
C5 N8 1_555 1_555
H6 C5 1_555 1_555
N9 C5 1_555 1_555
C6 N7 1_555 1_555
H7 C6 1_555 1_555
N10 N11 1_555 1_555
N11 C7 1_555 1_555
C7 H8 1_555 1_555
N12 Ag4 1_555 1_555
C8 N10 1_555 1_555
H9 C8 1_555 1_555
W1B O1B 1_555 1_555
W2B O8 1_555 1_555
W3B O1B 1_555 1_555
W4B O4 1_555 1_555
W5B O4 1_555 1_555
W6B O19 1_555 1_555
Ag1A N1A 1_555 1_555
Ag2A N4A 1_555 1_555
Ag3A N10 1_555 1_555
Ag4A N5A_2 1_555 1_555
Ag4A_2 N5A 1_555 1_555
Ag5B N11 1_555 1_555
Ag5C N11A 1_555 1_555
Ag5A N8A 1_555 1_555
O1B Si1 1_555 1_555
O2B Si1 1_555 1_555
O3B Si1 1_555 1_555
O4B Si1 1_555 1_555
O5B W5 1_555 1_555
O6B W1B 1_555 1_555
O7B W1B 1_555 1_555
O8B W2 1_555 1_555
O9B W1B 1_555 1_555
O10B W2B 1_555 1_555
O11B W4 1_555 1_555
O12B W2B 1_555 1_555
O13B W2B 1_555 1_555
O14B W3B 1_555 1_555
O15B W3B 1_555 1_555
O16B W3B 1_555 1_555
O17B W3B 1_555 1_555
O18B W4B 1_555 1_555
O19B W6 1_555 1_555
O20B W4B 1_555 1_555
O21B W5B 1_555 1_555
O22B W6B 1_555 1_555
N1A N2A 1_555 1_555
N2A H1A 1_555 1_555
C1A N2A 1_555 1_555
H2A C1A 1_555 1_555
N3A C1A 1_555 1_555
C2A N1A 1_555 1_555
H3A C2A 1_555 1_555
N4A N5A 1_555 1_555
N5A C3A 1_555 1_555
C3A H4A 1_555 1_555
N6A Ag1A 1_555 1_555
C4A N4A 1_555 1_555
H5A C4A 1_555 1_555
N7A Ag2A 1_555 1_555
N8A N7A 1_555 1_555
N8B Ag5B 1_555 1_555
C5A N8A 1_555 1_555
H6A C5A 1_555 1_555
N9A Ag3A 1_555 1_555
C6A N7A 1_555 1_555
H7A C6A 1_555 1_555
N10A Ag3 1_555 1_555
N11A N10A 1_555 1_555
N11B Ag5 1_555 1_555
C7A N11A 1_555 1_555
H8A C7A 1_555 1_555
N12A Ag4A 1_555 1_555
C8A N10A 1_555 1_555
H9A C8A 1_555 1_555
W3 O9 1_555 1_555
W4 O15 1_555 1_555
W4 O4B 1_555 1_555
W5 O10 1_555 1_555
W5 O14 1_555 1_555
W5 O20 1_555 1_555
W5 O4B 1_555 1_555
W6 O6 1_555 1_555
W6 O13 1_555 1_555
W6 O16 1_555 1_555
O3 O4B 1_555 1_555
O4 O3B 1_555 1_555
O5 W5B 1_555 1_555
O11 W4B 1_555 1_555
N3 C2 1_555 1_555
C3 N6 1_555 1_555
N6 C4 1_555 1_555
N9 C6 1_555 1_555
C7 N12 1_555 1_555
N12 C8 1_555 1_555
W1B O5B 1_555 1_555
W1B O8B 1_555 1_555
W2B O2B 1_555 1_555
W2B O11B 1_555 1_555
W3B O9B 1_555 1_555
W4B O3B 1_555 1_555
W4B O15B 1_555 1_555
W4B O19B 1_555 1_555
W5B O2B 1_555 1_555
W5B O10B 1_555 1_555
W5B O14B 1_555 1_555
W5B O20B 1_555 1_555
W6B O1B 1_555 1_555
W6B O6B 1_555 1_555
W6B O13B 1_555 1_555
W6B O16B 1_555 1_555
N3A C2A 1_555 1_555
C3A N6A 1_555 1_555
N6A C4A 1_555 1_555
C5A N9A 1_555 1_555
N9A C6A 1_555 1_555
C7A N12A 1_555 1_555
N12A C8A 1_555 1_555

#END
