
#######################################################################
#
#                 Cambridge Crystallographic Data Centre
#                                CCDC 
#
#######################################################################
#
# If this CIF has been generated from an entry in the Cambridge 
# Structural Database, then it will include bibliographic, chemical, 
# crystal, experimental, refinement or atomic coordinate data resulting 
# from the CCDC's data processing and validation procedures.
#
#######################################################################

data_EPUTUF
_symmetry_cell_setting           triclinic
_symmetry_space_group_name_H-M   'P -1'
_symmetry_Int_Tables_number      2
_space_group_name_Hall           '-P 1'
loop_
_symmetry_equiv_pos_site_id
_symmetry_equiv_pos_as_xyz
1 x,y,z
2 -x,-y,-z
_cell_length_a                   14.9443(7)
_cell_length_b                   17.1237(9)
_cell_length_c                   17.3069(9)
_cell_angle_alpha                118.444(5)
_cell_angle_beta                 103.191(5)
_cell_angle_gamma                96.751(4)
_cell_volume                     3656.67
loop_
_atom_site_label
_atom_site_type_symbol
_atom_site_fract_x
_atom_site_fract_y
_atom_site_fract_z
Eu1 Eu 0.11967(3) 0.04191(3) 0.10828(3)
O1 O 0.2099(5) 0.1778(5) 0.1355(5)
O2 O 0.9455(5) 0.8570(5) 0.7887(5)
O3 O 0.8301(6) 0.0672(5) 0.0004(5)
O4 O 0.0448(4) 0.0513(4) -0.0255(4)
O5 O 0.0918(5) -0.0481(5) -0.8292(5)
O6 O 0.7290(5) -0.0588(5) -0.2022(6)
N1 N 0.4402(6) 0.4023(6) 0.2815(6)
N2 N 0.8672(5) 0.5829(5) 0.5961(5)
N3 N 0.7984(6) 0.3243(6) 0.1495(5)
N4 N 0.1839(6) 0.1546(6) -0.1490(6)
N5 N 0.1451(6) -0.0680(6) -0.5994(6)
N6 N 0.5542(6) 0.0753(6) -0.2814(6)
C1 C 0.4309(9) 0.2182(10) -0.1637(9)
H1 H 0.4943 0.2194 -0.1667
H2 H 0.4238 0.2041 -0.1176
H3 H 0.4196 0.2774 -0.1472
C2 C 0.3608(8) -0.0282(8) -0.4995(8)
H4 H 0.4286 -0.0062 -0.4819
H5 H 0.3300 -0.0203 -0.5495
H6 H 0.3444 -0.0924 -0.5195
C3 C 0.0905(7) 0.0399(8) -0.3736(7)
H7 H 0.0591 0.0417 -0.4275
H8 H 0.0789 0.0865 -0.3204
H9 H 0.0662 -0.0195 -0.3830
C4 C 0.3924(7) 0.0961(7) -0.3312(7)
C5 C 0.3286(7) 0.0251(7) -0.4180(7)
C6 C 0.2305(7) 0.0035(7) -0.4289(7)
C7 C 0.1976(7) 0.0575(7) -0.3576(7)
C8 C 0.2601(7) 0.1294(7) -0.2721(7)
C9 C 0.3589(7) 0.1447(8) -0.2584(7)
C10 C 0.4974(7) 0.1213(8) -0.3188(8)
H10 H 0.5043 0.1058 -0.3784
H11 H 0.5229 0.1874 -0.2773
C11 C 0.6430(7) 0.1226(8) -0.2173(7)
H12 H 0.6636 0.1854 -0.1934
C12 C 0.7023(7) 0.0812(7) -0.1869(7)
H13 H 0.7608 0.1163 -0.1407
C13 C 0.6745(8) -0.0168(8) -0.2263(8)
C14 C 0.5835(9) -0.0618(9) -0.2907(11)
H14 H 0.5604 -0.1248 -0.3168
C15 C 0.5267(9) -0.0149(9) -0.3167(10)
H15 H 0.4666 -0.0477 -0.3607
C16 C 0.1650(7) -0.0796(7) -0.5176(7)
H16 H 0.1928 -0.1311 -0.5311
H17 H 0.1051 -0.0948 -0.5086
C17 C 0.1473(7) 0.0137(7) -0.5921(7)
H18 H 0.1613 0.0659 -0.5336
C18 C 0.1294(7) 0.0224(7) -0.6684(7)
H19 H 0.1332 0.0804 -0.6606
C19 C 0.1055(6) -0.0538(7) -0.7571(7)
C20 C 0.1004(8) -0.1408(8) -0.7633(7)
H20 H 0.0825 -0.1947 -0.8212
C21 C 0.1216(7) -0.1445(7) -0.6852(7)
H21 H 0.1201 -0.2013 -0.6903
C22 C 0.2241(8) 0.1942(7) -0.1971(8)
H22 H 0.2763 0.2480 -0.1513
H23 H 0.1754 0.2145 -0.2249
C23 C 0.1429(7) 0.2070(7) -0.0866(7)
H24 H 0.1445 0.2665 -0.0741
C24 C 0.1006(7) 0.1760(7) -0.0431(7)
H25 H 0.0763 0.2149 0.0015
C25 C 0.0922(7) 0.0847(7) -0.0642(6)
C26 C 0.1391(7) 0.0336(7) -0.1243(6)
H26 H 0.1398 -0.0255 -0.1370
C27 C 0.1836(7) 0.0705(7) -0.1642(7)
H27 H 0.2151 0.0359 -0.2036
C28 C 0.6412(8) 0.5092(9) 0.5088(8)
H28 H 0.6544 0.5751 0.5441
H29 H 0.6737 0.4884 0.5472
H30 H 0.5738 0.4825 0.4880
C29 C 0.5859(8) 0.4224(8) 0.1743(7)
H31 H 0.5243 0.4292 0.1793
H32 H 0.5796 0.3610 0.1255
H33 H 0.6129 0.4659 0.1603
C30 C 0.9048(7) 0.4379(8) 0.3694(8)
H34 H 0.9485 0.4945 0.4208
H35 H 0.9178 0.4251 0.3133
H36 H 0.9122 0.3886 0.3802
C31 C 0.6751(7) 0.4802(7) 0.4261(7)
C32 C 0.6179(7) 0.4657(6) 0.3420(7)
C33 C 0.6509(7) 0.4401(7) 0.2660(7)
C34 C 0.7448(7) 0.4339(6) 0.2756(7)
C35 C 0.8038(7) 0.4465(7) 0.3599(7)
C36 C 0.7680(7) 0.4677(6) 0.4330(7)
C37 C 0.5209(7) 0.4853(7) 0.3352(7)
H37 H 0.5179 0.5215 0.3975
H38 H 0.5143 0.5222 0.3068
C38 C 0.3585(8) 0.4020(8) 0.2262(8)
H39 H 0.3556 0.4539 0.2221
C39 C 0.2817(8) 0.3281(8) 0.1771(8)
H40 H 0.2278 0.3296 0.1388
C40 C 0.2821(7) 0.2494(7) 0.1831(7)
C41 C 0.3645(8) 0.2537(8) 0.2439(10)
H41 H 0.3672 0.2046 0.2530
C42 C 0.4415(8) 0.3290(8) 0.2904(9)
H42 H 0.4962 0.3292 0.3292
C43 C 0.7850(8) 0.4189(7) 0.1996(7)
H43 H 0.7425 0.4288 0.1555
H44 H 0.8460 0.4638 0.2258
C44 C 0.7462(9) 0.2520(8) 0.1450(8)
H45 H 0.7006 0.2609 0.1749
C45 C 0.7580(9) 0.1671(8) 0.0985(8)
H46 H 0.7235 0.1198 0.1007
C46 C 0.8211(8) 0.1477(8) 0.0463(7)
C47 C 0.8728(8) 0.2248(8) 0.0506(8)
H47 H 0.9155 0.2172 0.0176
C48 C 0.8613(8) 0.3095(9) 0.1019(8)
H48 H 0.8976 0.3593 0.1047
C49 C 0.8310(8) 0.4827(7) 0.5235(7)
H49 H 0.7950 0.4510 0.5451
H50 H 0.8845 0.4568 0.5132
C50 C 0.8915(7) 0.6461(7) 0.5736(7)
H51 H 0.8870 0.6263 0.5122
C51 C 0.9222(7) 0.7374(7) 0.6378(7)
H52 H 0.9407 0.7787 0.6203
C52 C 0.9267(7) 0.7708(7) 0.7306(7)
C53 C 0.9092(8) 0.7022(7) 0.7540(7)
H53 H 0.9165 0.7194 0.8152
C54 C 0.8816(7) 0.6110(7) 0.6858(7)
H54 H 0.8725 0.5670 0.7023
Eu1A Eu 0.88033(3) 0.95809(3) 0.89172(3)
Eu1A_2 Eu 0.88033(3) -0.04191(3) -0.10828(3)
Eu1A_3 Eu -0.11967(3) -0.04191(3) -0.10828(3)
Eu1_2 Eu 0.11967(3) 0.04191(3) -0.89172(3)
O2A O 0.0545(5) 0.1430(5) 0.2113(5)
O3A O 0.1699(6) -0.0672(5) -0.0004(5)
O4A O -0.0448(4) -0.0513(4) 0.0255(4)
O5_2 O 0.0918(5) -0.0481(5) 0.1708(5)
O6A O 0.2710(5) 0.0588(5) 0.2022(6)
C55 C 0.2073(10) 0.3083(9) 0.6445(9)
S1 S 0.0783(3) 0.2720(2) 0.6041(2)
O8 O 0.0564(8) 0.2541(7) 0.6718(7)
O9 O 0.0545(8) 0.3512(7) 0.6068(7)
O10 O 0.0566(7) 0.1930(7) 0.5150(7)
F1 F 0.2423(7) 0.2389(6) 0.6363(7)
F2 F 0.2409(7) 0.3752(6) 0.7329(6)
F3 F 0.2374(6) 0.3400(6) 0.5966(6)
O7 O 0.5393(15) 0.1935(15) 0.1306(15)
C56 C 0.470(2) 0.124(2) 0.071(2)
C57 C 0.431(3) 0.049(2) 0.088(2)
H55 H 0.4829 0.0377 0.1219
H56 H 0.3966 -0.0060 0.0299
H57 H 0.3891 0.0699 0.1240
C58 C 0.390(2) 0.133(2) 0.010(2)
H58 H 0.4134 0.1774 -0.0041
H59 H 0.3439 0.1521 0.0409
H60 H 0.3602 0.0742 -0.0469
S2 S 0.5592(5) 0.2921(4) 0.5369(4)
O11 O 0.6129(11) 0.3832(9) 0.6163(9)
O12 O 0.5230(11) 0.2934(10) 0.4574(9)
O13 O 0.6013(14) 0.2222(13) 0.5321(14)
C59 C 0.462(2) 0.2665(16) 0.5688(18)
F4 F 0.4136(14) 0.1804(10) 0.5134(12)
F5 F 0.3957(12) 0.3105(11) 0.5513(13)
F6 F 0.4718(16) 0.2895(13) 0.6472(13)
S3 S 0.2893(4) 0.6011(3) 0.0481(3)
O14 O 0.3432(9) 0.6515(9) 0.0223(9)
O15 O 0.1923(10) 0.5500(9) -0.0156(10)
O16 O 0.3016(13) 0.6543(11) 0.1464(10)
C60 C 0.339(3) 0.508(2) 0.037(2)
F7 F 0.4309(14) 0.5425(13) 0.0965(14)
F8 F 0.2960(12) 0.4511(10) 0.0535(11)
F9 F 0.3388(13) 0.4549(11) -0.0501(13)
O17 O 0.0801(10) 0.3728(9) 0.8638(9)
O18 O 0.0387(10) 0.6402(9) 0.0432(9)
O19 O 0.0941(9) 0.4094(11) 0.1176(10)
O20 O 0.0746(16) 0.5650(16) 0.2995(15)
O21 O 0.228(2) 0.697(2) 0.303(2)
C61? C 0.820(2) 0.198(2) 0.362(2)
F10? F 0.846(2) 0.2815(19) 0.4332(19)
F11? F 0.857(2) 0.210(2) 0.3019(19)
F12? F 0.858(2) 0.150(2) 0.375(2)
O22? O 0.664(2) 0.166(2) 0.3857(19)
O23? O 0.6620(16) 0.2238(15) 0.2998(18)
O24? O 0.6907(11) 0.0705(9) 0.2423(10)
O25? O 0.229(3) 0.578(3) 0.240(3)
S4? S 0.6990(9) 0.1588(8) 0.3099(7)
loop_
_geom_bond_atom_site_label_1
_geom_bond_atom_site_label_2
_geom_bond_site_symmetry_1
_geom_bond_site_symmetry_2
Eu1 O1 1_555 1_555
O1 C40 1_555 1_555
O2 C52 1_555 1_555
O3 C46 1_555 1_555
O4 Eu1 1_555 1_555
O5 C19 1_555 1_555
O6 C13 1_555 1_555
N1 C37 1_555 1_555
N2 C49 1_555 1_555
N3 C43 1_555 1_555
N4 C22 1_555 1_555
N5 C16 1_555 1_555
N6 C10 1_555 1_555
C1 H1 1_555 1_555
H2 C1 1_555 1_555
H3 C1 1_555 1_555
C2 H4 1_555 1_555
H5 C2 1_555 1_555
H6 C2 1_555 1_555
C3 H7 1_555 1_555
H8 C3 1_555 1_555
H9 C3 1_555 1_555
C4 C5 1_555 1_555
C5 C2 1_555 1_555
C6 C5 1_555 1_555
C7 C3 1_555 1_555
C8 C7 1_555 1_555
C9 C1 1_555 1_555
C10 C4 1_555 1_555
H10 C10 1_555 1_555
H11 C10 1_555 1_555
C11 N6 1_555 1_555
H12 C11 1_555 1_555
C12 C11 1_555 1_555
H13 C12 1_555 1_555
C13 C12 1_555 1_555
C14 C13 1_555 1_555
H14 C14 1_555 1_555
C15 N6 1_555 1_555
H15 C15 1_555 1_555
C16 C6 1_555 1_555
H16 C16 1_555 1_555
H17 C16 1_555 1_555
C17 N5 1_555 1_555
H18 C17 1_555 1_555
C18 C17 1_555 1_555
H19 C18 1_555 1_555
C19 C18 1_555 1_555
C20 C19 1_555 1_555
H20 C20 1_555 1_555
C21 N5 1_555 1_555
H21 C21 1_555 1_555
C22 C8 1_555 1_555
H22 C22 1_555 1_555
H23 C22 1_555 1_555
C23 N4 1_555 1_555
H24 C23 1_555 1_555
C24 C23 1_555 1_555
H25 C24 1_555 1_555
C25 O4 1_555 1_555
C26 C25 1_555 1_555
H26 C26 1_555 1_555
C27 N4 1_555 1_555
H27 C27 1_555 1_555
C28 H28 1_555 1_555
H29 C28 1_555 1_555
H30 C28 1_555 1_555
C29 H31 1_555 1_555
H32 C29 1_555 1_555
H33 C29 1_555 1_555
C30 H34 1_555 1_555
H35 C30 1_555 1_555
H36 C30 1_555 1_555
C31 C28 1_555 1_555
C32 C31 1_555 1_555
C33 C29 1_555 1_555
C34 C33 1_555 1_555
C35 C30 1_555 1_555
C36 C31 1_555 1_555
C37 C32 1_555 1_555
H37 C37 1_555 1_555
H38 C37 1_555 1_555
C38 N1 1_555 1_555
H39 C38 1_555 1_555
C39 C38 1_555 1_555
H40 C39 1_555 1_555
C40 C39 1_555 1_555
C41 C40 1_555 1_555
H41 C41 1_555 1_555
C42 N1 1_555 1_555
H42 C42 1_555 1_555
C43 C34 1_555 1_555
H43 C43 1_555 1_555
H44 C43 1_555 1_555
C44 N3 1_555 1_555
H45 C44 1_555 1_555
C45 C44 1_555 1_555
H46 C45 1_555 1_555
C46 C45 1_555 1_555
C47 C46 1_555 1_555
H47 C47 1_555 1_555
C48 N3 1_555 1_555
H48 C48 1_555 1_555
C49 C36 1_555 1_555
H49 C49 1_555 1_555
H50 C49 1_555 1_555
C50 N2 1_555 1_555
H51 C50 1_555 1_555
C51 C50 1_555 1_555
H52 C51 1_555 1_555
C52 C51 1_555 1_555
C53 C52 1_555 1_555
H53 C53 1_555 1_555
C54 N2 1_555 1_555
H54 C54 1_555 1_555
C55 S1 1_555 1_555
O7 C56 1_555 1_555
C56 C57 1_555 1_555
C57 H55 1_555 1_555
H56 C57 1_555 1_555
H57 C57 1_555 1_555
C58 C56 1_555 1_555
H58 C58 1_555 1_555
H59 C58 1_555 1_555
H60 C58 1_555 1_555
S1 O8 1_555 1_555
O9 S1 1_555 1_555
O10 S1 1_555 1_555
F1 C55 1_555 1_555
F2 C55 1_555 1_555
F3 C55 1_555 1_555
S2 O11 1_555 1_555
O12 S2 1_555 1_555
O13 S2 1_555 1_555
C59 S2 1_555 1_555
F4 C59 1_555 1_555
F5 C59 1_555 1_555
F6 C59 1_555 1_555
S3 O14 1_555 1_555
O15 S3 1_555 1_555
O16 S3 1_555 1_555
C60 S3 1_555 1_555
F7 C60 1_555 1_555
F8 C60 1_555 1_555
F9 C60 1_555 1_555
Eu1A O2 1_555 1_555
Eu1A_2 O3 1_555 1_555
Eu1A_3 O4 1_555 1_555
Eu1_2 O5 1_555 1_555
O2A Eu1 1_555 1_555
O3A Eu1 1_555 1_555
O4A Eu1 1_555 1_555
O5_2 Eu1 1_555 1_555
O6A Eu1 1_555 1_555
O6 Eu1A_2 1_555 1_555
C4 C9 1_555 1_555
C6 C7 1_555 1_555
C8 C9 1_555 1_555
C14 C15 1_555 1_555
C20 C21 1_555 1_555
C24 C25 1_555 1_555
C26 C27 1_555 1_555
C32 C33 1_555 1_555
C34 C35 1_555 1_555
C35 C36 1_555 1_555
C41 C42 1_555 1_555
C47 C48 1_555 1_555
C53 C54 1_555 1_555
Eu1A_3 O4A 1_555 1_555

#END
