
#######################################################################
#
#                 Cambridge Crystallographic Data Centre
#                                CCDC 
#
#######################################################################
#
# If this CIF has been generated from an entry in the Cambridge 
# Structural Database, then it will include bibliographic, chemical, 
# crystal, experimental, refinement or atomic coordinate data resulting 
# from the CCDC's data processing and validation procedures.
#
#######################################################################

data_EPUVAN
_symmetry_cell_setting           triclinic
_symmetry_space_group_name_H-M   'P -1'
_symmetry_Int_Tables_number      2
_space_group_name_Hall           '-P 1'
loop_
_symmetry_equiv_pos_site_id
_symmetry_equiv_pos_as_xyz
1 x,y,z
2 -x,-y,-z
_cell_length_a                   14.9365(8)
_cell_length_b                   17.1361(10)
_cell_length_c                   17.3016(8)
_cell_angle_alpha                118.509(5)
_cell_angle_beta                 103.354(4)
_cell_angle_gamma                96.640(5)
_cell_volume                     3651.69
loop_
_atom_site_label
_atom_site_type_symbol
_atom_site_fract_x
_atom_site_fract_y
_atom_site_fract_z
Gd1 Gd -0.88079(2) 0.541610(19) 0.60796(2)
O1 O -0.2698(3) 0.4407(3) 0.2964(4)
O3 O -0.9090(3) 0.4508(3) -0.3310(3)
O4 O -0.9551(3) 0.5505(2) 0.4746(3)
O6 O -0.2091(3) 0.3234(3) 0.3649(3)
O8 O -0.8321(4) 0.4326(3) 0.4999(3)
O11 O -0.9450(3) -0.3578(3) -0.2895(3)
N1 N -0.4448(4) 0.5755(4) 0.2199(4)
N2 N -0.8551(4) 0.4317(3) -0.1000(3)
N3 N -0.8162(4) 0.6535(3) 0.3508(4)
N4 N -0.4392(4) 0.0988(3) 0.2194(4)
N5 N -0.8685(4) -0.0831(3) -0.0964(3)
N6 N -0.7980(4) 0.1763(3) 0.3513(4)
C3 C -0.9040(5) 0.0626(4) 0.1325(5)
H4 H -0.9042 0.1147 0.1890
H5 H -0.9282 0.0710 0.0813
H6 H -0.9437 0.0078 0.1218
C5 C -0.6405(5) -0.0095(5) -0.0085(5)
H7 H -0.6453 -0.0743 -0.0381
H8 H -0.6791 0.0028 -0.0519
H9 H -0.5752 0.0238 0.0119
C7 C -0.5856(5) 0.0785(5) 0.3247(5)
H10 H -0.5862 0.0212 0.3221
H11 H -0.5219 0.1086 0.3351
H12 H -0.6070 0.1174 0.3748
C8 C -0.7682(4) 0.0317(3) 0.0663(4)
C9 C -0.6749(5) 0.0207(4) 0.0745(4)
C10 C -0.6174(4) 0.0344(4) 0.1585(4)
C11 C -0.6507(4) 0.0605(4) 0.2346(4)
C12 C -0.7444(5) 0.0668(4) 0.2241(4)
C13 C -0.8029(5) 0.0536(4) 0.1411(5)
C14 C -0.8304(5) 0.0165(4) -0.0240(4)
H13 H -0.7937 0.0472 -0.0460
H14 H -0.8832 0.0437 -0.0137
C15 C -0.8910(4) -0.1459(4) -0.0728(4)
H15 H -0.8861 -0.1256 -0.0112
C16 C -0.9205(5) -0.2375(4) -0.1366(4)
H16 H -0.9367 -0.2788 -0.1185
C17 C -0.9269(4) -0.2709(4) -0.2310(4)
C18 C -0.9102(5) -0.2030(4) -0.2547(5)
H17 H -0.9195 -0.2208 -0.3165
C19 C -0.8808(5) -0.1124(4) -0.1876(5)
H18 H -0.8687 -0.0689 -0.2041
C20 C -0.5205(4) 0.0145(4) 0.1659(5)
H19 H -0.5175 -0.0228 0.1036
H20 H -0.5137 -0.0213 0.1956
C21 C -0.4414(5) 0.1718(5) 0.2103(6)
H21 H -0.4963 0.1714 0.1714
C22 C -0.3645(5) 0.2470(5) 0.2571(6)
H22 H -0.3682 0.2963 0.2484
C23 C -0.2806(5) 0.2522(4) 0.3174(5)
C24 C -0.2810(5) 0.1729(4) 0.3229(5)
H23 H -0.2269 0.1708 0.3607
C25 C -0.3587(5) 0.0992(4) 0.2742(5)
H24 H -0.3562 0.0476 0.2789
C26 C -0.7838(5) 0.0824(4) 0.3010(5)
H25 H -0.7406 0.0729 0.3451
H26 H -0.8445 0.0372 0.2751
C27 C -0.7480(5) 0.2473(4) 0.3537(5)
H27 H -0.7047 0.2377 0.3212
C28 C -0.7587(5) 0.3336(4) 0.4025(5)
H28 H -0.7230 0.3816 0.4023
C29 C -0.8217(5) 0.3512(4) 0.4526(5)
C30 C -0.8741(5) 0.2753(5) 0.4478(5)
H29 H -0.9188 0.2827 0.4785
C31 C -0.8604(5) 0.1910(5) 0.3988(5)
H30 H -0.8950 0.1416 0.3978
C32 C -0.5693(6) 0.7189(6) 0.3372(5)
H31 H -0.5134 0.6984 0.3491
H32 H -0.5975 0.7305 0.3849
H33 H -0.5520 0.7745 0.3370
C33 C -0.9094(5) 0.5399(5) 0.1266(5)
H34 H -0.9403 0.5432 0.0735
H35 H -0.9209 0.5857 0.1805
H36 H -0.9343 0.4799 0.1155
C34 C -0.6384(5) 0.4718(5) 0.0000(5)
H37 H -0.5705 0.4938 0.0180
H38 H -0.6690 0.4803 -0.0497
H39 H -0.6549 0.4075 -0.0208
C35 C -0.6405(5) 0.6452(4) 0.2432(5)
C36 C -0.7388(5) 0.6283(4) 0.2286(4)
C37 C -0.8027(4) 0.5571(4) 0.1431(4)
C38 C -0.7682(4) 0.5040(4) 0.0715(4)
C39 C -0.6711(5) 0.5248(4) 0.0821(5)
C40 C -0.6077(4) 0.5958(4) 0.1688(5)
C41 C -0.5027(5) 0.6221(5) 0.1818(5)
H40 H -0.4957 0.6069 0.1222
H41 H -0.4778 0.6882 0.2236
C42 C -0.4728(5) 0.4829(5) 0.1823(7)
H42 H -0.5327 0.4494 0.1376
C43 C -0.4148(6) 0.4388(6) 0.2091(7)
H43 H -0.4363 0.3755 0.1827
C44 C -0.3235(5) 0.4852(4) 0.2751(5)
C45 C -0.2968(5) 0.5801(4) 0.3137(5)
H44 H -0.2377 0.6149 0.3593
C46 C -0.3575(5) 0.6229(5) 0.2846(5)
H45 H -0.3377 0.6861 0.3102
C47 C -0.8360(5) 0.4208(4) -0.0179(5)
H46 H -0.8098 0.3683 -0.0314
H47 H -0.8961 0.4074 -0.0085
C48 C -0.8794(5) 0.3554(4) -0.1859(5)
H48 H -0.8825 0.2983 -0.1916
C49 C -0.8994(5) 0.3600(4) -0.2640(5)
H49 H -0.9172 0.3061 -0.3220
C50 C -0.8937(4) 0.4456(4) -0.2587(4)
C51 C -0.8704(5) 0.5234(4) -0.1680(4)
H50 H -0.8675 0.5814 -0.1600
C52 C -0.8523(5) 0.5144(4) -0.0921(5)
H51 H -0.8375 0.5665 -0.0334
C53 C -0.7759(5) 0.6932(4) 0.3024(5)
H52 H -0.7242 0.7476 0.3485
H53 H -0.8249 0.7126 0.2736
C54 C -0.8570(5) 0.7074(4) 0.4130(4)
H54 H -0.8550 0.7669 0.4257
C55 C -0.9003(4) 0.6749(4) 0.4565(4)
H55 H -0.9260 0.7133 0.4999
C56 C -0.9074(4) 0.5848(4) 0.4377(4)
C57 C -0.8621(5) 0.5330(4) 0.3755(4)
H56 H -0.8625 0.4734 0.3620
C58 C -0.8172(5) 0.5689(4) 0.3346(5)
H57 H -0.7866 0.5336 0.2945
Gd1_2 Gd -0.88079(2) 0.541610(19) -0.39204(2)
Gd1A Gd -1.11921(2) 0.458390(19) 0.39204(2)
Gd1A_2 Gd -0.11921(2) 0.458390(19) 0.39204(2)
Gd1_3 Gd -0.88079(2) -0.458390(19) -0.39204(2)
O1A O -0.7302(3) 0.5593(3) 0.7036(4)
O3_2 O -0.9090(3) 0.4508(3) 0.6690(3)
O4A O -1.0449(3) 0.4495(2) 0.5254(3)
O6A O -0.7909(3) 0.6766(3) 0.6351(3)
O11_2 O -0.9450(3) 0.6422(3) 0.7105(3)
S1 S 0.07891(17) 0.77234(13) 0.10497(15)
O14 O 0.0557(5) 0.7538(4) 0.1717(4)
O15 O 0.0565(5) 0.6926(4) 0.0144(4)
O16 O 0.0529(5) 0.8508(4) 0.1058(5)
F1 F 0.2395(5) 0.8768(4) 0.2352(4)
F2 F 0.2441(4) 0.7406(4) 0.1377(5)
F3 F 0.2374(4) 0.8408(3) 0.0979(4)
C4 C 0.2062(7) 0.8095(5) 0.1455(6)
S2 S 0.2894(2) 0.10119(17) 0.54885(19)
O7 O 0.3437(6) 0.1506(5) 0.5215(5)
O9 O 0.2974(9) 0.1522(6) 0.6450(6)
O12 O 0.1941(6) 0.0520(5) 0.4869(7)
F4 F 0.4340(8) 0.0438(8) 0.5948(11)
F5 F 0.2995(8) -0.0465(5) 0.5541(7)
F6 F 0.3433(7) -0.0402(6) 0.4528(8)
C6 C 0.3437(15) 0.0088(9) 0.5379(10)
O2 O 0.0792(6) 0.8716(5) 0.3639(6)
O5 O 0.0885(7) 0.9059(7) 0.6205(8)
O10 O -0.0722(10) 0.9351(8) 0.1983(11)
O13 O 0.2254(12) 0.154(3) 0.7822(19)
O17 O -0.4635(9) 0.6873(8) 0.6250(10)
C59 C -0.5381(15) 0.6174(13) 0.5713(15)
C60 C -0.5505(16) 0.5365(14) 0.5880(15)
H58 H -0.6060 0.4885 0.5404
H59 H -0.5580 0.5576 0.6478
H60 H -0.4952 0.5130 0.5860
C61 C -0.6053(16) 0.6340(14) 0.5065(13)
H61 H -0.5732 0.6843 0.5042
H62 H -0.6584 0.6487 0.5279
H63 H -0.6280 0.5796 0.4454
C1 C 0.3386(9) 0.2824(9) 0.1845(12)
H1 H 0.3720 0.2719 0.1407
H2 H 0.2957 0.2255 0.1655
H3 H 0.3837 0.3060 0.2450
C62 C 0.1755(9) 0.3108(9) 0.1408(11)
H64 H 0.1567 0.2482 0.0897
H65 H 0.1555 0.3497 0.1185
H66 H 0.1463 0.3151 0.1862
O22 O 0.3068(6) 0.4269(5) 0.2548(6)
C63 C 0.2893(7) 0.3432(4) 0.1877(5)
O18 O -0.0394(6) 0.8613(5) 0.4577(6)
S3 S 0.4386(3) 0.2075(2) -0.0375(2)
C2 C 0.5419(14) 0.2374(12) -0.0632(14)
F7 F 0.5290(11) 0.2116(8) -0.1512(9)
F8 F 0.5873(8) 0.3224(5) -0.0113(7)
F9 F 0.6060(8) 0.1907(6) -0.0458(9)
O19 O 0.3983(10) 0.2789(8) -0.0305(9)
O20 O 0.3854(7) 0.1150(5) -0.1174(6)
O21 O 0.4814(7) 0.2058(6) 0.0439(6)
loop_
_geom_bond_atom_site_label_1
_geom_bond_atom_site_label_2
_geom_bond_site_symmetry_1
_geom_bond_site_symmetry_2
Gd1 O4 1_555 1_555
S1 O14 1_555 1_555
S2 O7 1_555 1_555
O1 C44 1_555 1_555
O3 C50 1_555 1_555
O4 C56 1_555 1_555
O6 C23 1_555 1_555
O8 Gd1 1_555 1_555
O9 S2 1_555 1_555
O11 C17 1_555 1_555
O12 S2 1_555 1_555
O15 S1 1_555 1_555
O16 S1 1_555 1_555
O17 C59 1_555 1_555
C1 H1 1_555 1_555
H2 C1 1_555 1_555
H3 C1 1_555 1_555
F1 C4 1_555 1_555
F2 C4 1_555 1_555
F3 C4 1_555 1_555
F4 C6 1_555 1_555
F5 C6 1_555 1_555
F6 C6 1_555 1_555
S3 C2 1_555 1_555
C2 F7 1_555 1_555
F8 C2 1_555 1_555
F9 C2 1_555 1_555
O19 S3 1_555 1_555
O20 S3 1_555 1_555
O21 S3 1_555 1_555
N1 C41 1_555 1_555
N2 C47 1_555 1_555
N3 C53 1_555 1_555
N4 C20 1_555 1_555
N5 C14 1_555 1_555
N6 C26 1_555 1_555
C3 H4 1_555 1_555
H5 C3 1_555 1_555
H6 C3 1_555 1_555
C4 S1 1_555 1_555
C5 H7 1_555 1_555
H8 C5 1_555 1_555
H9 C5 1_555 1_555
C6 S2 1_555 1_555
C7 H10 1_555 1_555
H11 C7 1_555 1_555
H12 C7 1_555 1_555
C8 C9 1_555 1_555
C9 C5 1_555 1_555
C10 C9 1_555 1_555
C11 C7 1_555 1_555
C12 C11 1_555 1_555
C13 C3 1_555 1_555
C14 C8 1_555 1_555
H13 C14 1_555 1_555
H14 C14 1_555 1_555
C15 N5 1_555 1_555
H15 C15 1_555 1_555
C16 C15 1_555 1_555
H16 C16 1_555 1_555
C17 C16 1_555 1_555
C18 C17 1_555 1_555
H17 C18 1_555 1_555
C19 N5 1_555 1_555
H18 C19 1_555 1_555
C20 C10 1_555 1_555
H19 C20 1_555 1_555
H20 C20 1_555 1_555
C21 N4 1_555 1_555
H21 C21 1_555 1_555
C22 C21 1_555 1_555
H22 C22 1_555 1_555
C23 C22 1_555 1_555
C24 C23 1_555 1_555
H23 C24 1_555 1_555
C25 N4 1_555 1_555
H24 C25 1_555 1_555
C26 C12 1_555 1_555
H25 C26 1_555 1_555
H26 C26 1_555 1_555
C27 N6 1_555 1_555
H27 C27 1_555 1_555
C28 C27 1_555 1_555
H28 C28 1_555 1_555
C29 O8 1_555 1_555
C30 C29 1_555 1_555
H29 C30 1_555 1_555
C31 N6 1_555 1_555
H30 C31 1_555 1_555
C32 H31 1_555 1_555
H32 C32 1_555 1_555
H33 C32 1_555 1_555
C33 H34 1_555 1_555
H35 C33 1_555 1_555
H36 C33 1_555 1_555
C34 H37 1_555 1_555
H38 C34 1_555 1_555
H39 C34 1_555 1_555
C35 C32 1_555 1_555
C36 C35 1_555 1_555
C37 C33 1_555 1_555
C38 C37 1_555 1_555
C39 C34 1_555 1_555
C40 C35 1_555 1_555
C41 C40 1_555 1_555
H40 C41 1_555 1_555
H41 C41 1_555 1_555
C42 N1 1_555 1_555
H42 C42 1_555 1_555
C43 C42 1_555 1_555
H43 C43 1_555 1_555
C44 C43 1_555 1_555
C45 C44 1_555 1_555
H44 C45 1_555 1_555
C46 N1 1_555 1_555
H45 C46 1_555 1_555
C47 C38 1_555 1_555
H46 C47 1_555 1_555
H47 C47 1_555 1_555
C48 N2 1_555 1_555
H48 C48 1_555 1_555
C49 C48 1_555 1_555
H49 C49 1_555 1_555
C50 C49 1_555 1_555
C51 C50 1_555 1_555
H50 C51 1_555 1_555
C52 N2 1_555 1_555
H51 C52 1_555 1_555
C53 C36 1_555 1_555
H52 C53 1_555 1_555
H53 C53 1_555 1_555
C54 N3 1_555 1_555
H54 C54 1_555 1_555
C55 C54 1_555 1_555
H55 C55 1_555 1_555
C56 C55 1_555 1_555
C57 C56 1_555 1_555
H56 C57 1_555 1_555
C58 N3 1_555 1_555
H57 C58 1_555 1_555
C59 C60 1_555 1_555
C60 H58 1_555 1_555
H59 C60 1_555 1_555
H60 C60 1_555 1_555
C61 C59 1_555 1_555
H61 C61 1_555 1_555
H62 C61 1_555 1_555
H63 C61 1_555 1_555
C62 H64 1_555 1_555
H65 C62 1_555 1_555
H66 C62 1_555 1_555
O22 C63 1_555 1_555
C63 C1 1_555 1_555
Gd1_2 O3 1_555 1_555
Gd1A O4 1_555 1_555
Gd1A_2 O1 1_555 1_555
Gd1_3 O11 1_555 1_555
O1A Gd1 1_555 1_555
O3_2 Gd1 1_555 1_555
O4A Gd1 1_555 1_555
O6A Gd1 1_555 1_555
O11_2 Gd1 1_555 1_555
O6 Gd1A_2 1_555 1_555
C8 C13 1_555 1_555
C10 C11 1_555 1_555
C12 C13 1_555 1_555
C18 C19 1_555 1_555
C24 C25 1_555 1_555
C28 C29 1_555 1_555
C30 C31 1_555 1_555
C36 C37 1_555 1_555
C38 C39 1_555 1_555
C39 C40 1_555 1_555
C45 C46 1_555 1_555
C51 C52 1_555 1_555
C57 C58 1_555 1_555
C62 C63 1_555 1_555
Gd1A O4A 1_555 1_555

#END
