
#######################################################################
#
#                 Cambridge Crystallographic Data Centre
#                                CCDC 
#
#######################################################################
#
# If this CIF has been generated from an entry in the Cambridge 
# Structural Database, then it will include bibliographic, chemical, 
# crystal, experimental, refinement or atomic coordinate data resulting 
# from the CCDC's data processing and validation procedures.
#
#######################################################################

data_EPUWUI01
_symmetry_cell_setting           monoclinic
_symmetry_space_group_name_H-M   'C 2/c'
_symmetry_Int_Tables_number      15
_space_group_name_Hall           '-C 2yn'
loop_
_symmetry_equiv_pos_site_id
_symmetry_equiv_pos_as_xyz
1 x,y,z
2 -x,y,1/2-z
3 1/2+x,1/2+y,z
4 1/2-x,1/2+y,1/2-z
5 -x,-y,-z
6 x,-y,1/2+z
7 1/2-x,1/2-y,-z
8 1/2+x,1/2-y,1/2+z
_cell_length_a                   32.4189(18)
_cell_length_b                   6.9551(4)
_cell_length_c                   16.8919(10)
_cell_angle_alpha                90
_cell_angle_beta                 116.5440(10)
_cell_angle_gamma                90
_cell_volume                     3407.26
loop_
_atom_site_label
_atom_site_type_symbol
_atom_site_fract_x
_atom_site_fract_y
_atom_site_fract_z
C1 C 0.58412(13) 0.7494(6) 0.8192(2)
C2 C 0.63072(14) 0.8443(8) 0.8530(3)
C3 C 0.65226(12) 0.9292(5) 0.9468(2)
C4 C 0.70224(14) 0.9846(8) 0.9704(3)
C5 C 0.72619(14) 1.0661(6) 1.0639(3)
C6 C 0.70076(16) 1.2457(7) 1.0688(4)
C7 C 0.65071(14) 1.1945(7) 1.0462(3)
C8 C 0.65052(16) 1.0465(7) 1.1124(3)
C9 C 0.67579(12) 0.8628(6) 1.1088(2)
C10 C 0.65240(14) 0.7822(6) 1.0148(2)
C11 C 0.62721(15) 1.1111(6) 0.9532(3)
C12 C 0.72540(14) 0.9203(7) 1.1295(3)
C13 C 0.67862(14) 0.7177(8) 1.1787(3)
C14 C 0.63500(16) 0.6362(7) 1.1758(3)
C15 C 0.47320(14) 0.3754(6) 0.5611(3)
C16 C 0.52168(14) 0.1923(7) 0.6768(3)
C17 C 0.47398(13) 0.2434(6) 0.5016(3)
C18 C 0.52349(15) 0.0537(7) 0.6218(3)
C19 C 0.49928(12) 0.0746(5) 0.5304(2)
N1 N 0.49662(10) 0.3532(5) 0.64863(19)
O1 O 0.57511(11) 0.6208(6) 0.7651(3)
O2 O 0.55402(10) 0.8001(5) 0.8393(2)
O3 O 0.59842(11) 0.6218(5) 1.1130(2)
O4 O 0.64209(16) 0.5818(9) 1.2537(3)
Cd1 Cd 0.5000 0.57999(6) 0.7500
H1 H 0.6285(14) 0.943(7) 0.811(3)
H2 H 0.6509(14) 0.753(6) 0.848(2)
H3 H 0.7017(12) 1.072(6) 0.925(2)
H4 H 0.7165(12) 0.876(6) 0.965(2)
H5 H 0.7573(13) 1.097(5) 1.079(2)
H6 H 0.7403(11) 0.811(6) 1.128(2)
H7 H 0.7406(13) 0.964(6) 1.193(3)
H8 H 0.6205(13) 1.019(5) 1.102(2)
H9 H 0.6647(13) 1.103(6) 1.173(3)
H10 H 0.6357(12) 1.311(6) 1.050(2)
H11 H 0.6261(12) 1.204(6) 0.909(2)
H12 H 0.5971(13) 1.081(5) 0.938(2)
H13 H 0.6212(12) 0.747(5) 1.000(2)
H14 H 0.6673(12) 0.670(6) 1.010(2)
H15 H 0.7001(13) 1.337(7) 1.029(3)
H16 H 0.7155(14) 1.304(7) 1.127(3)
H17 H 0.6947(14) 0.605(6) 1.173(3)
H18 H 0.6950(13) 0.778(6) 1.236(3)
H19 H 0.6229(16) 0.571(7) 1.258(3)
H20 H 0.4568(12) 0.494(6) 0.541(2)
H21 H 0.5391(12) 0.176(6) 0.740(3)
H22 H 0.4583(12) 0.275(5) 0.442(3)
H23 H 0.5407(12) -0.047(6) 0.644(2)
C15D C 0.52680(14) -0.3754(6) 0.4389(3)
C16D C 0.47832(14) -0.1923(7) 0.3232(3)
C17D C 0.52602(13) -0.2434(6) 0.4984(3)
C18D C 0.47651(15) -0.0537(7) 0.3782(3)
C19D C 0.50072(12) -0.0746(5) 0.4696(2)
N1D N 0.50338(10) -0.3532(5) 0.35137(19)
H20D H 0.5432(12) -0.494(6) 0.459(2)
H21D H 0.4609(12) -0.176(6) 0.260(3)
H22D H 0.5417(12) -0.275(5) 0.558(3)
H23D H 0.4593(12) 0.047(6) 0.356(2)
C1A C 0.41588(13) 0.7494(6) 0.6808(2)
C2A C 0.36928(14) 0.8443(8) 0.6470(3)
C3A C 0.34774(12) 0.9292(5) 0.5532(2)
C4A C 0.29776(14) 0.9846(8) 0.5296(3)
C5A C 0.27381(14) 1.0661(6) 0.4361(3)
C6A C 0.29924(16) 1.2457(7) 0.4312(4)
C7A C 0.34929(14) 1.1945(7) 0.4538(3)
C8A C 0.34948(16) 1.0465(7) 0.3876(3)
C9A C 0.32421(12) 0.8628(6) 0.3912(2)
C10A C 0.34760(14) 0.7822(6) 0.4852(2)
C11A C 0.37279(15) 1.1111(6) 0.5468(3)
C12A C 0.27460(14) 0.9203(7) 0.3705(3)
C13A C 0.32138(14) 0.7177(8) 0.3213(3)
C14A C 0.36500(16) 0.6362(7) 0.3242(3)
O1A O 0.42489(11) 0.6208(6) 0.7349(3)
O2A O 0.44598(10) 0.8001(5) 0.6607(2)
O3A O 0.40158(11) 0.6218(5) 0.3870(2)
O4A O 0.35791(16) 0.5818(9) 0.2463(3)
H1A H 0.3715(14) 0.943(7) 0.689(3)
H2A H 0.3491(14) 0.753(6) 0.652(2)
H3A H 0.2983(12) 1.072(6) 0.575(2)
H4A H 0.2835(12) 0.876(6) 0.535(2)
H5A H 0.2427(13) 1.097(5) 0.421(2)
H6A H 0.2597(11) 0.811(6) 0.372(2)
H7A H 0.2594(13) 0.964(6) 0.307(3)
H8A H 0.3795(13) 1.019(5) 0.398(2)
H9A H 0.3353(13) 1.103(6) 0.327(3)
H10A H 0.3643(12) 1.311(6) 0.450(2)
H11A H 0.3739(12) 1.204(6) 0.591(2)
H12A H 0.4029(13) 1.081(5) 0.562(2)
H13A H 0.3788(12) 0.747(5) 0.500(2)
H14A H 0.3327(12) 0.670(6) 0.490(2)
H15A H 0.2999(13) 1.337(7) 0.471(3)
H16A H 0.2845(14) 1.304(7) 0.373(3)
H17A H 0.3053(14) 0.605(6) 0.327(3)
H18A H 0.3050(13) 0.778(6) 0.264(3)
H19A H 0.3771(16) 0.571(7) 0.242(3)
N1A N 0.50338(10) 0.3532(5) 0.85137(19)
Cd1D Cd 0.5000 -0.57999(6) 0.2500
loop_
_geom_bond_atom_site_label_1
_geom_bond_atom_site_label_2
_geom_bond_site_symmetry_1
_geom_bond_site_symmetry_2
C1 C2 1_555 1_555
C2 C3 1_555 1_555
C3 C4 1_555 1_555
C4 C5 1_555 1_555
C5 C6 1_555 1_555
C6 C7 1_555 1_555
C7 C8 1_555 1_555
C8 C9 1_555 1_555
C9 C10 1_555 1_555
C10 C3 1_555 1_555
C11 C3 1_555 1_555
C12 C5 1_555 1_555
C13 C9 1_555 1_555
C14 C13 1_555 1_555
C15 C17 1_555 1_555
C16 C18 1_555 1_555
C17 C19 1_555 1_555
C18 C19 1_555 1_555
C19 C19D 1_555 1_555
N1 C15 1_555 1_555
O1 C1 1_555 1_555
O2 C1 1_555 1_555
O3 C14 1_555 1_555
O4 C14 1_555 1_555
Cd1 N1 1_555 1_555
H1 C2 1_555 1_555
H2 C2 1_555 1_555
H3 C4 1_555 1_555
H4 C4 1_555 1_555
H5 C5 1_555 1_555
H6 C12 1_555 1_555
H7 C12 1_555 1_555
H8 C8 1_555 1_555
H9 C8 1_555 1_555
H10 C7 1_555 1_555
H11 C11 1_555 1_555
H12 C11 1_555 1_555
H13 C10 1_555 1_555
H14 C10 1_555 1_555
H15 C6 1_555 1_555
H16 C6 1_555 1_555
H17 C13 1_555 1_555
H18 C13 1_555 1_555
H19 O4 1_555 1_555
H20 C15 1_555 1_555
H21 C16 1_555 1_555
H22 C17 1_555 1_555
H23 C18 1_555 1_555
C15D C17D 1_555 1_555
C16D C18D 1_555 1_555
C17D C19D 1_555 1_555
C18D C19D 1_555 1_555
N1D C15D 1_555 1_555
H20D C15D 1_555 1_555
H21D C16D 1_555 1_555
H22D C17D 1_555 1_555
H23D C18D 1_555 1_555
C1A C2A 1_555 1_555
C2A C3A 1_555 1_555
C3A C4A 1_555 1_555
C4A C5A 1_555 1_555
C5A C6A 1_555 1_555
C6A C7A 1_555 1_555
C7A C8A 1_555 1_555
C8A C9A 1_555 1_555
C9A C10A 1_555 1_555
C10A C3A 1_555 1_555
C11A C3A 1_555 1_555
C12A C5A 1_555 1_555
C13A C9A 1_555 1_555
C14A C13A 1_555 1_555
O1A Cd1 1_555 1_555
O2A Cd1 1_555 1_555
O3A C14A 1_555 1_555
O4A C14A 1_555 1_555
H1A C2A 1_555 1_555
H2A C2A 1_555 1_555
H3A C4A 1_555 1_555
H4A C4A 1_555 1_555
H5A C5A 1_555 1_555
H6A C12A 1_555 1_555
H7A C12A 1_555 1_555
H8A C8A 1_555 1_555
H9A C8A 1_555 1_555
H10A C7A 1_555 1_555
H11A C11A 1_555 1_555
H12A C11A 1_555 1_555
H13A C10A 1_555 1_555
H14A C10A 1_555 1_555
H15A C6A 1_555 1_555
H16A C6A 1_555 1_555
H17A C13A 1_555 1_555
H18A C13A 1_555 1_555
H19A O4A 1_555 1_555
N1A Cd1 1_555 1_555
Cd1D N1D 1_555 1_555
C7 C11 1_555 1_555
C9 C12 1_555 1_555
C16 N1 1_555 1_555
O1 Cd1 1_555 1_555
O2 Cd1 1_555 1_555
C16D N1D 1_555 1_555
C1A O1A 1_555 1_555
C1A O2A 1_555 1_555
C7A C11A 1_555 1_555
C9A C12A 1_555 1_555

#END
