
#######################################################################
#
#                 Cambridge Crystallographic Data Centre
#                                CCDC 
#
#######################################################################
#
# If this CIF has been generated from an entry in the Cambridge 
# Structural Database, then it will include bibliographic, chemical, 
# crystal, experimental, refinement or atomic coordinate data resulting 
# from the CCDC's data processing and validation procedures.
#
#######################################################################

data_EPUWIW
_symmetry_cell_setting           triclinic
_symmetry_space_group_name_H-M   'P -1'
_symmetry_Int_Tables_number      2
_space_group_name_Hall           '-P 1'
loop_
_symmetry_equiv_pos_site_id
_symmetry_equiv_pos_as_xyz
1 x,y,z
2 -x,-y,-z
_cell_length_a                   11.751(7)
_cell_length_b                   12.311(7)
_cell_length_c                   14.001(14)
_cell_angle_alpha                103.871(14)
_cell_angle_beta                 104.149(15)
_cell_angle_gamma                103.195(10)
_cell_volume                     1816.07
loop_
_atom_site_label
_atom_site_type_symbol
_atom_site_fract_x
_atom_site_fract_y
_atom_site_fract_z
N1 N 0.2282(6) 1.5780(6) 0.9459(5)
C1 C 0.3255(7) 1.5508(9) 0.9331(7)
H1 H 0.4022 1.5962 0.9805
C2 C 0.1249(9) 1.5140(8) 0.8772(7)
H2 H 0.0558 1.5337 0.8868
C3 C 0.3199(9) 1.4547(9) 0.8497(7)
H3 H 0.3915 1.4379 0.8433
C4 C 0.1038(8) 1.4248(8) 0.7955(7)
H4 H 0.0247 1.3865 0.7493
C5 C 0.2083(9) 1.3880(8) 0.7797(7)
C6 C 0.1911(9) 1.2857(9) 0.6924(8)
H5 H 0.1038 1.2517 0.6544
H6 H 0.2183 1.2272 0.7195
C7 C 0.2585(9) 1.3119(8) 0.6187(8)
H7 H 0.3433 1.3580 0.6582
H8 H 0.2215 1.3595 0.5824
O1 O 0.6597(6) 2.2212(5) 1.5847(5)
O2 O 0.8575(6) 2.2600(6) 1.6117(5)
C8 C 0.7565(10) 2.2652(8) 1.5641(7)
C9 C 0.7441(8) 2.3192(8) 1.4770(7)
H9 H 0.8093 2.3932 1.4996
H10 H 0.6660 2.3360 1.4625
Zn1 Zn 0.24269(9) 1.71167(10) 1.07075(8)
Zn2 Zn 0.73914(9) 2.16077(10) 1.69716(8)
O3 O -0.4143(6) 1.3768(6) 0.8101(5)
O4 O -0.2318(5) 1.3525(5) 0.8161(4)
O5 O 0.0922(5) 1.7514(6) 1.0298(5)
O6 O 0.1106(5) 1.8387(6) 1.1975(5)
O7 O 0.3955(5) 1.8349(6) 1.1041(5)
O8 O 0.4154(5) 1.9038(6) 1.2732(5)
N2 N 0.2615(6) 1.0008(7) 0.4003(5)
C10 C 0.6682(8) 2.1156(8) 1.3504(6)
H11 H 0.5842 2.1167 1.3429
H12 H 0.6943 2.0849 1.4070
C11 C -0.3166(9) 1.3975(9) 0.7868(7)
C12 C 0.3612(9) 1.0830(8) 0.4572(7)
H13 H 0.4348 1.0728 0.4494
C13 C 0.0528(9) 1.7988(9) 1.0983(9)
C14 C -0.1134(7) 1.8587(7) 0.9021(6)
H14 H -0.0341 1.8517 0.8976
H15 H -0.1020 1.9400 0.9384
C15 C -0.0751(6) 1.8159(8) 1.0754(6)
H16 H -0.1192 1.7740 1.1123
H17 H -0.0632 1.8987 1.1064
C16 C 0.7505(8) 2.2389(9) 1.3759(8)
C17 C -0.1807(7) 1.6503(7) 0.9012(6)
H18 H -0.2083 1.5989 0.9391
H19 H -0.1029 1.6420 0.8938
C18 C 0.7070(8) 2.2896(8) 1.2890(7)
H20 H 0.6235 2.2921 1.2819
H21 H 0.7599 2.3690 1.3054
C19 C 0.6292(7) 2.0831(8) 1.1602(7)
H22 H 0.5439 2.0810 1.1498
H23 H 0.6346 2.0354 1.0964
C20 C -0.2227(7) 1.6965(8) 0.7346(6)
H24 H -0.2796 1.6749 0.6652
H25 H -0.1447 1.6870 0.7289
C21 C 0.6724(8) 2.0340(8) 1.2484(7)
C22 C -0.1615(8) 1.7796(8) 0.9632(7)
C23 C -0.2754(8) 1.6140(8) 0.7942(7)
C24 C -0.3768(7) 1.7614(8) 0.8614(7)
H26 H -0.4555 1.7710 0.8675
C25 C 0.1557(8) 1.0165(9) 0.4105(7)
H27 H 0.0818 0.9587 0.3702
C26 C -0.3271(7) 1.8416(8) 0.8027(7)
H28 H -0.3861 1.8223 0.7345
H29 H -0.3138 1.9230 0.8403
C27 C -0.2914(8) 1.4866(8) 0.7293(6)
H30 H -0.2172 1.4851 0.7109
H31 H -0.3591 1.4637 0.6654
C28 C 0.8827(8) 2.2401(8) 1.3858(7)
H32 H 0.9142 2.2125 1.4432
H33 H 0.9337 2.3200 1.4007
C29 C 0.4601(9) 1.8811(9) 1.2004(9)
C30 C 0.5988(7) 1.9050(8) 1.2232(6)
H34 H 0.6135 1.8587 1.1635
H35 H 0.6298 1.8783 1.2813
C31 C 0.1538(9) 1.1156(10) 0.4786(7)
H36 H 0.0782 1.1229 0.4834
C32 C 0.3685(9) 1.1850(10) 0.5287(8)
H37 H 0.4445 1.2398 0.5687
C33 C -0.2044(8) 1.8234(8) 0.7924(7)
H38 H -0.1716 1.8740 0.7548
C34 C -0.3968(7) 1.6315(8) 0.8013(7)
H39 H -0.4541 1.6107 0.7321
H40 H -0.4320 1.5805 0.8367
C35 C -0.2849(7) 1.7938(8) 0.9699(6)
H41 H -0.3175 1.7436 1.0069
H42 H -0.2733 1.8745 1.0083
C36 C 0.8911(8) 2.1616(9) 1.2857(8)
H43 H 0.9763 2.1615 1.2937
C37 C 0.8442(8) 2.2114(9) 1.1971(7)
H44 H 0.8967 2.2907 1.2120
H45 H 0.8467 2.1632 1.1322
C38 C 0.7115(8) 2.2121(8) 1.1878(7)
H46 H 0.6819 2.2435 1.1317
C39 C 0.8069(7) 2.0374(8) 1.2607(7)
H47 H 0.8360 2.0057 1.3159
H48 H 0.8109 1.9879 1.1970
C40 C 0.2582(11) 1.2043(9) 0.5399(7)
Zn1A Zn -0.24269(9) 1.28833(10) 0.92925(8)
Zn2_2 Zn -0.26086(9) 1.16077(10) 0.69716(8)
Zn2A Zn 0.26086(9) 1.83923(10) 1.30284(8)
Zn2A_2 Zn 0.26086(9) 0.83923(10) 0.30284(8)
O4A O 0.2318(5) 1.6475(5) 1.1839(4)
O4_2 O 0.7682(5) 2.3525(5) 1.8161(4)
O6A O 0.8894(5) 2.1613(6) 1.8025(5)
O8A O 0.5846(5) 2.0962(6) 1.7268(5)
N2A N 0.7385(6) 1.9992(7) 1.5997(5)
loop_
_geom_bond_atom_site_label_1
_geom_bond_atom_site_label_2
_geom_bond_site_symmetry_1
_geom_bond_site_symmetry_2
N1 C1 1_555 1_555
C1 H1 1_555 1_555
C2 N1 1_555 1_555
H2 C2 1_555 1_555
C3 C1 1_555 1_555
H3 C3 1_555 1_555
C4 C2 1_555 1_555
H4 C4 1_555 1_555
C5 C3 1_555 1_555
C6 C5 1_555 1_555
H5 C6 1_555 1_555
H6 C6 1_555 1_555
C7 C6 1_555 1_555
H7 C7 1_555 1_555
H8 C7 1_555 1_555
O1 C8 1_555 1_555
O2 C8 1_555 1_555
C8 C9 1_555 1_555
C9 H9 1_555 1_555
H10 C9 1_555 1_555
Zn1 N1 1_555 1_555
Zn2 O1 1_555 1_555
O3 C11 1_555 1_555
O4 C11 1_555 1_555
O5 Zn1 1_555 1_555
O6 C13 1_555 1_555
O7 Zn1 1_555 1_555
O8 C29 1_555 1_555
N2 C12 1_555 1_555
C10 H11 1_555 1_555
H12 C10 1_555 1_555
C11 C27 1_555 1_555
C12 H13 1_555 1_555
C13 O5 1_555 1_555
C14 H14 1_555 1_555
H15 C14 1_555 1_555
C15 C13 1_555 1_555
H16 C15 1_555 1_555
H17 C15 1_555 1_555
C16 C9 1_555 1_555
C17 H18 1_555 1_555
H19 C17 1_555 1_555
C18 C16 1_555 1_555
H20 C18 1_555 1_555
H21 C18 1_555 1_555
C19 H22 1_555 1_555
H23 C19 1_555 1_555
C20 H24 1_555 1_555
H25 C20 1_555 1_555
C21 C10 1_555 1_555
C22 C14 1_555 1_555
C23 C17 1_555 1_555
C24 H26 1_555 1_555
C25 N2 1_555 1_555
H27 C25 1_555 1_555
C26 C24 1_555 1_555
H28 C26 1_555 1_555
H29 C26 1_555 1_555
C27 C23 1_555 1_555
H30 C27 1_555 1_555
H31 C27 1_555 1_555
C28 C16 1_555 1_555
H32 C28 1_555 1_555
H33 C28 1_555 1_555
C29 O7 1_555 1_555
C30 C21 1_555 1_555
H34 C30 1_555 1_555
H35 C30 1_555 1_555
C31 C25 1_555 1_555
H36 C31 1_555 1_555
C32 C12 1_555 1_555
H37 C32 1_555 1_555
C33 C14 1_555 1_555
H38 C33 1_555 1_555
C34 C23 1_555 1_555
H39 C34 1_555 1_555
H40 C34 1_555 1_555
C35 C22 1_555 1_555
H41 C35 1_555 1_555
H42 C35 1_555 1_555
C36 C28 1_555 1_555
H43 C36 1_555 1_555
C37 C36 1_555 1_555
H44 C37 1_555 1_555
H45 C37 1_555 1_555
C38 C18 1_555 1_555
H46 C38 1_555 1_555
C39 C21 1_555 1_555
H47 C39 1_555 1_555
H48 C39 1_555 1_555
C40 C7 1_555 1_555
Zn1A O4 1_555 1_555
Zn2_2 O4 1_555 1_555
Zn2A O6 1_555 1_555
Zn2A_2 N2 1_555 1_555
O4A Zn1 1_555 1_555
O4_2 Zn2 1_555 1_555
O6A Zn2 1_555 1_555
O8A Zn2 1_555 1_555
N2A Zn2 1_555 1_555
C4 C5 1_555 1_555
O2 Zn2 1_555 1_555
O8 Zn2A 1_555 1_555
C10 C16 1_555 1_555
C15 C22 1_555 1_555
C17 C22 1_555 1_555
C19 C21 1_555 1_555
C19 C38 1_555 1_555
C20 C23 1_555 1_555
C20 C33 1_555 1_555
C24 C34 1_555 1_555
C24 C35 1_555 1_555
C26 C33 1_555 1_555
C29 C30 1_555 1_555
C31 C40 1_555 1_555
C32 C40 1_555 1_555
C36 C39 1_555 1_555
C37 C38 1_555 1_555
Zn2A O4A 1_555 1_555

#END
