
#######################################################################
#
#                 Cambridge Crystallographic Data Centre
#                                CCDC 
#
#######################################################################
#
# If this CIF has been generated from an entry in the Cambridge 
# Structural Database, then it will include bibliographic, chemical, 
# crystal, experimental, refinement or atomic coordinate data resulting 
# from the CCDC's data processing and validation procedures.
#
#######################################################################

data_EPUWUI
_symmetry_cell_setting           monoclinic
_symmetry_space_group_name_H-M   'C 2/c'
_symmetry_Int_Tables_number      15
_space_group_name_Hall           '-C 2yn'
loop_
_symmetry_equiv_pos_site_id
_symmetry_equiv_pos_as_xyz
1 x,y,z
2 -x,y,1/2-z
3 1/2+x,1/2+y,z
4 1/2-x,1/2+y,1/2-z
5 -x,-y,-z
6 x,-y,1/2+z
7 1/2-x,1/2-y,-z
8 1/2+x,1/2-y,1/2+z
_cell_length_a                   32.433(2)
_cell_length_b                   6.9550(4)
_cell_length_c                   16.9017(11)
_cell_angle_alpha                90
_cell_angle_beta                 116.5320(10)
_cell_angle_gamma                90
_cell_volume                     3411.02
loop_
_atom_site_label
_atom_site_type_symbol
_atom_site_fract_x
_atom_site_fract_y
_atom_site_fract_z
Cd1 Cd 0.0000 0.41999(5) 0.2500
N1 N -0.00337(11) 0.6471(5) 0.1485(2)
O1 O 0.05402(11) 0.1994(5) 0.3396(2)
O2 O 0.07463(13) 0.3770(6) 0.2630(3)
O3 O 0.09856(13) 0.3791(7) 0.6131(2)
O4 O 0.14180(16) 0.4184(8) 0.7543(3)
H1 H 0.1180 0.4649 0.7516
C1 C 0.08418(16) 0.2500(8) 0.3194(3)
C2 C 0.13077(14) 0.1566(7) 0.3531(3)
H2 H 0.1521 0.2516 0.3506
H3 H 0.1286 0.0546 0.3122
C3 C 0.15227(13) 0.0709(5) 0.4469(3)
C4 C 0.20223(13) 0.0160(6) 0.4701(3)
H4 H 0.2025 -0.0788 0.4282
H5 H 0.2188 0.1287 0.4659
C5 C 0.22632(14) -0.0664(6) 0.5639(3)
H6 H 0.2583 -0.0990 0.5782
C6 C 0.20086(16) -0.2473(6) 0.5688(3)
H7 H 0.2160 -0.3017 0.6278
H8 H 0.2013 -0.3424 0.5272
C7 C 0.15095(15) -0.1952(6) 0.5464(3)
H9 H 0.1346 -0.3111 0.5496
C8 C 0.12684(14) -0.1115(6) 0.4527(3)
H10 H 0.0951 -0.0802 0.4383
H11 H 0.1267 -0.2059 0.4103
C9 C 0.22567(14) 0.0816(6) 0.6297(3)
H12 H 0.2423 0.1956 0.6273
H13 H 0.2411 0.0294 0.6891
C10 C 0.17586(13) 0.1370(6) 0.6090(3)
C11 C 0.15032(15) -0.0466(6) 0.6127(3)
H14 H 0.1650 -0.1000 0.6719
H15 H 0.1187 -0.0153 0.5990
C12 C 0.15220(13) 0.2183(5) 0.5143(2)
H16 H 0.1207 0.2532 0.4999
H17 H 0.1682 0.3336 0.5110
C13 C 0.17860(15) 0.2834(7) 0.6786(3)
H18 H 0.1958 0.2243 0.7361
H19 H 0.1968 0.3911 0.6754
C14 C 0.13502(16) 0.3638(7) 0.6759(3)
C15 C -0.02685(14) 0.6240(6) 0.0609(3)
H20 H -0.0445 0.5135 0.0393
C16 C -0.02603(13) 0.7568(6) 0.0013(2)
H21 H -0.0426 0.7337 -0.0591
C17 C -0.00067(13) 0.9252(5) 0.0306(2)
C18 C 0.02365(15) 0.9468(6) 0.1219(3)
H22 H 0.0413 1.0566 0.1454
C19 C 0.02172(15) 0.8077(6) 0.1769(3)
H23 H 0.0388 0.8253 0.2376
Cd1D Cd 0.0000 1.58001(5) -0.2500
N1D N 0.00337(11) 1.3529(5) -0.1485(2)
N1A N 0.00337(11) 0.6471(5) 0.3515(2)
O1A O -0.05402(11) 0.1994(5) 0.1604(2)
O2A O -0.07463(13) 0.3770(6) 0.2370(3)
O3A O -0.09856(13) 0.3791(7) -0.1131(2)
O4A O -0.14180(16) 0.4184(8) -0.2543(3)
H1A H -0.1180 0.4649 -0.2516
C1A C -0.08418(16) 0.2500(8) 0.1806(3)
C2A C -0.13077(14) 0.1566(7) 0.1469(3)
H2A H -0.1521 0.2516 0.1494
H3A H -0.1286 0.0546 0.1878
C3A C -0.15227(13) 0.0709(5) 0.0531(3)
C4A C -0.20223(13) 0.0160(6) 0.0299(3)
H4A H -0.2025 -0.0788 0.0718
H5A H -0.2188 0.1287 0.0341
C5A C -0.22632(14) -0.0664(6) -0.0639(3)
H6A H -0.2583 -0.0990 -0.0782
C6A C -0.20086(16) -0.2473(6) -0.0688(3)
H7A H -0.2160 -0.3017 -0.1278
H8A H -0.2013 -0.3424 -0.0272
C7A C -0.15095(15) -0.1952(6) -0.0464(3)
H9A H -0.1346 -0.3111 -0.0496
C8A C -0.12684(14) -0.1115(6) 0.0473(3)
H10A H -0.0951 -0.0802 0.0617
H11A H -0.1267 -0.2059 0.0897
C9A C -0.22567(14) 0.0816(6) -0.1297(3)
H12A H -0.2423 0.1956 -0.1273
H13A H -0.2411 0.0294 -0.1891
C10A C -0.17586(13) 0.1370(6) -0.1090(3)
C11A C -0.15032(15) -0.0466(6) -0.1127(3)
H14A H -0.1650 -0.1000 -0.1719
H15A H -0.1187 -0.0153 -0.0990
C12A C -0.15220(13) 0.2183(5) -0.0143(2)
H16A H -0.1207 0.2532 0.0001
H17A H -0.1682 0.3336 -0.0110
C13A C -0.17860(15) 0.2834(7) -0.1786(3)
H18A H -0.1958 0.2243 -0.2361
H19A H -0.1968 0.3911 -0.1754
C14A C -0.13502(16) 0.3638(7) -0.1759(3)
C15D C 0.02685(14) 1.3760(6) -0.0609(3)
H20D H 0.0445 1.4865 -0.0393
C16D C 0.02603(13) 1.2432(6) -0.0013(2)
H21D H 0.0426 1.2663 0.0591
C17D C 0.00067(13) 1.0748(5) -0.0306(2)
C18D C -0.02365(15) 1.0532(6) -0.1219(3)
H22D H -0.0413 0.9434 -0.1454
C19D C -0.02172(15) 1.1923(6) -0.1769(3)
H23D H -0.0388 1.1747 -0.2376
loop_
_geom_bond_atom_site_label_1
_geom_bond_atom_site_label_2
_geom_bond_site_symmetry_1
_geom_bond_site_symmetry_2
Cd1 N1 1_555 1_555
N1 C15 1_555 1_555
O1 Cd1 1_555 1_555
O2 Cd1 1_555 1_555
O3 C14 1_555 1_555
O4 H1 1_555 1_555
C1 O1 1_555 1_555
C2 C1 1_555 1_555
H2 C2 1_555 1_555
H3 C2 1_555 1_555
C3 C2 1_555 1_555
C4 C3 1_555 1_555
H4 C4 1_555 1_555
H5 C4 1_555 1_555
C5 C4 1_555 1_555
H6 C5 1_555 1_555
C6 C5 1_555 1_555
H7 C6 1_555 1_555
H8 C6 1_555 1_555
C7 C6 1_555 1_555
H9 C7 1_555 1_555
C8 C3 1_555 1_555
H10 C8 1_555 1_555
H11 C8 1_555 1_555
C9 C5 1_555 1_555
H12 C9 1_555 1_555
H13 C9 1_555 1_555
C10 C9 1_555 1_555
C11 C7 1_555 1_555
H14 C11 1_555 1_555
H15 C11 1_555 1_555
C12 C3 1_555 1_555
H16 C12 1_555 1_555
H17 C12 1_555 1_555
C13 C10 1_555 1_555
H18 C13 1_555 1_555
H19 C13 1_555 1_555
C14 O4 1_555 1_555
C15 H20 1_555 1_555
C16 C15 1_555 1_555
H21 C16 1_555 1_555
C17 C16 1_555 1_555
C18 C17 1_555 1_555
H22 C18 1_555 1_555
C19 N1 1_555 1_555
H23 C19 1_555 1_555
Cd1D N1D 1_555 1_555
N1D C15D 1_555 1_555
N1A Cd1 1_555 1_555
O1A Cd1 1_555 1_555
O2A Cd1 1_555 1_555
O3A C14A 1_555 1_555
O4A H1A 1_555 1_555
C1A O1A 1_555 1_555
C2A C1A 1_555 1_555
H2A C2A 1_555 1_555
H3A C2A 1_555 1_555
C3A C2A 1_555 1_555
C4A C3A 1_555 1_555
H4A C4A 1_555 1_555
H5A C4A 1_555 1_555
C5A C4A 1_555 1_555
H6A C5A 1_555 1_555
C6A C5A 1_555 1_555
H7A C6A 1_555 1_555
H8A C6A 1_555 1_555
C7A C6A 1_555 1_555
H9A C7A 1_555 1_555
C8A C3A 1_555 1_555
H10A C8A 1_555 1_555
H11A C8A 1_555 1_555
C9A C5A 1_555 1_555
H12A C9A 1_555 1_555
H13A C9A 1_555 1_555
C10A C9A 1_555 1_555
C11A C7A 1_555 1_555
H14A C11A 1_555 1_555
H15A C11A 1_555 1_555
C12A C3A 1_555 1_555
H16A C12A 1_555 1_555
H17A C12A 1_555 1_555
C13A C10A 1_555 1_555
H18A C13A 1_555 1_555
H19A C13A 1_555 1_555
C14A O4A 1_555 1_555
C15D H20D 1_555 1_555
C16D C15D 1_555 1_555
H21D C16D 1_555 1_555
C17D C17 1_555 1_555
C18D C17D 1_555 1_555
H22D C18D 1_555 1_555
C19D N1D 1_555 1_555
H23D C19D 1_555 1_555
O2 C1 1_555 1_555
C7 C8 1_555 1_555
C10 C11 1_555 1_555
C10 C12 1_555 1_555
C13 C14 1_555 1_555
C18 C19 1_555 1_555
O2A C1A 1_555 1_555
C7A C8A 1_555 1_555
C10A C11A 1_555 1_555
C10A C12A 1_555 1_555
C13A C14A 1_555 1_555
C16D C17D 1_555 1_555
C18D C19D 1_555 1_555

#END
