
#######################################################################
#
#                 Cambridge Crystallographic Data Centre
#                                CCDC 
#
#######################################################################
#
# If this CIF has been generated from an entry in the Cambridge 
# Structural Database, then it will include bibliographic, chemical, 
# crystal, experimental, refinement or atomic coordinate data resulting 
# from the CCDC's data processing and validation procedures.
#
#######################################################################

data_EPUWOC
_symmetry_cell_setting           triclinic
_symmetry_space_group_name_H-M   'P -1'
_symmetry_Int_Tables_number      2
_space_group_name_Hall           '-P 1'
loop_
_symmetry_equiv_pos_site_id
_symmetry_equiv_pos_as_xyz
1 x,y,z
2 -x,-y,-z
_cell_length_a                   11.7872(15)
_cell_length_b                   12.1029(15)
_cell_length_c                   14.0397(17)
_cell_angle_alpha                101.690(2)
_cell_angle_beta                 105.584(2)
_cell_angle_gamma                103.652(2)
_cell_volume                     1797.45
loop_
_atom_site_label
_atom_site_type_symbol
_atom_site_fract_x
_atom_site_fract_y
_atom_site_fract_z
Zn1 Zn 0.74125(4) 0.68706(3) 0.18827(3)
Zn2 Zn 0.24475(4) 0.21471(3) -0.41799(3)
N1 N 0.2660(3) -0.5228(2) -1.0956(2)
N2 N 0.2292(3) 0.0851(2) -0.5405(2)
O1 O -0.2330(2) -0.1428(2) -0.69494(17)
O2 O -0.4110(2) -0.1136(2) -0.68904(19)
O3 O 0.6644(2) 0.7516(2) 0.07128(18)
O4 O 0.8632(2) 0.7805(2) 0.10285(18)
O5 O 0.4001(2) 0.3377(2) -0.37827(18)
O6 O 0.4208(2) 0.3851(2) -0.21024(18)
O7 O 0.0930(2) 0.2561(2) -0.46267(18)
O8 O 0.1112(2) 0.3237(2) -0.29771(18)
C1 C -0.3192(3) -0.0904(3) -0.7155(3)
C2 C -0.2951(3) 0.0041(3) -0.7692(3)
H1 H -0.3657 -0.0157 -0.8336
H2 H -0.2202 0.0045 -0.7885
C3 C 0.7618(3) 0.7862(3) 0.0494(3)
C4 C 0.7519(3) 0.8303(3) -0.0447(3)
H3 H 0.8199 0.9050 -0.0266
H4 H 0.6726 0.8482 -0.0656
C5 C 0.4641(3) 0.3728(3) -0.2831(3)
C6 C 0.6023(3) 0.3986(3) -0.2565(3)
H5 H 0.6179 0.3435 -0.3105
H6 H 0.6342 0.3800 -0.1908
C7 C 0.0531(3) 0.2974(3) -0.3921(3)
C8 C -0.0730(3) 0.3156(3) -0.4189(3)
H7 H -0.0594 0.4006 -0.3872
H8 H -0.1196 0.2708 -0.3825
C9 C 0.1607(3) -0.5048(3) -1.0875(3)
H9 H 0.0873 -0.5705 -1.1129
C10 C 0.1553(4) -0.3943(3) -1.0434(3)
H10 H 0.0794 -0.3852 -1.0375
C11 C 0.2600(4) -0.2969(3) -1.0080(3)
C12 C 0.3700(4) -0.3172(3) -1.0112(3)
H11 H 0.4455 -0.2539 -0.9830
C13 C 0.3689(3) -0.4304(3) -1.0557(3)
H12 H 0.4448 -0.4429 -1.0580
C14 C -0.2767(3) 0.1294(3) -0.7021(3)
C15 C -0.2290(3) 0.2191(3) -0.7572(3)
H13 H -0.1503 0.2115 -0.7658
H14 H -0.2901 0.2018 -0.8266
C16 C -0.2083(3) 0.3457(3) -0.6946(3)
H15 H -0.1762 0.4030 -0.7306
C17 C -0.3313(3) 0.3577(3) -0.6846(3)
H16 H -0.3190 0.4396 -0.6446
H17 H -0.3924 0.3413 -0.7538
C18 C -0.3794(3) 0.2695(3) -0.6296(3)
H18 H -0.4597 0.2768 -0.6224
C19 C -0.3989(3) 0.1432(3) -0.6916(3)
H19 H -0.4603 0.1251 -0.7609
H20 H -0.4317 0.0863 -0.6565
C20 C -0.1603(3) 0.2845(3) -0.5303(3)
C21 C -0.2848(3) 0.2956(3) -0.5229(3)
H21 H -0.3169 0.2394 -0.4869
H22 H -0.2726 0.3769 -0.4817
C22 C -0.1817(3) 0.1583(3) -0.5944(2)
H23 H -0.2116 0.1011 -0.5585
H24 H -0.1023 0.1502 -0.6011
C23 C -0.1147(3) 0.3722(3) -0.5876(3)
H25 H -0.1015 0.4541 -0.5472
H26 H -0.0345 0.3666 -0.5940
C24 C 0.7582(3) 0.7407(3) -0.1370(3)
C25 C 0.7111(3) 0.7776(3) -0.2353(3)
H27 H 0.6257 0.7809 -0.2451
H28 H 0.7642 0.8577 -0.2277
C26 C 0.7123(3) 0.6891(3) -0.3303(3)
H29 H 0.6805 0.7139 -0.3935
C27 C 0.8451(3) 0.6874(3) -0.3153(3)
H30 H 0.8983 0.7671 -0.3089
H31 H 0.8474 0.6305 -0.3759
C28 C 0.8937(3) 0.6508(3) -0.2176(3)
H32 H 0.9805 0.6495 -0.2077
C29 C 0.8122(3) 0.5283(3) -0.2283(3)
H33 H 0.8437 0.5049 -0.1651
H34 H 0.8161 0.4702 -0.2872
C30 C 0.6783(3) 0.5256(3) -0.2454(3)
C31 C 0.6756(3) 0.6154(3) -0.1517(3)
H35 H 0.5894 0.6163 -0.1617
H36 H 0.7044 0.5904 -0.0889
C32 C 0.6302(3) 0.5645(3) -0.3421(3)
H37 H 0.5439 0.5650 -0.3524
H38 H 0.6307 0.5076 -0.4034
C33 C 0.8908(3) 0.7392(3) -0.1234(3)
H39 H 0.9238 0.7160 -0.0603
H40 H 0.9439 0.8195 -0.1153
C34 C 0.1193(3) 0.0237(3) -0.6120(3)
H41 H 0.0480 0.0420 -0.6034
C35 C 0.1041(3) -0.0648(3) -0.6977(3)
H42 H 0.0240 -0.1065 -0.7465
C36 C 0.2074(3) -0.0922(3) -0.7117(3)
C37 C 0.3211(3) -0.0323(3) -0.6352(3)
H43 H 0.3930 -0.0522 -0.6401
C38 C 0.3291(3) 0.0559(3) -0.5524(3)
H44 H 0.4079 0.0977 -0.5017
C39 C 0.1972(4) -0.1786(3) -0.8097(3)
H45 H 0.2136 -0.2508 -0.7946
H46 H 0.1122 -0.2020 -0.8594
C40 C 0.2912(4) -0.1212(3) -0.8574(3)
H47 H 0.3723 -0.1307 -0.8240
H48 H 0.3017 -0.0351 -0.8418
C41 C 0.2548(4) -0.1723(3) -0.9729(3)
H49 H 0.3102 -0.1198 -0.9984
H50 H 0.1695 -0.1715 -1.0054
Zn1A Zn 0.25875(4) 0.31294(3) -0.18827(3)
Zn1A_2 Zn 0.25875(4) -0.68706(3) -1.18827(3)
Zn1_2 Zn -0.25875(4) -0.31294(3) -0.81173(3)
Zn2A Zn -0.24475(4) -0.21471(3) -0.58201(3)
N1A N 0.7340(3) 0.5228(2) 0.0956(2)
O1A O 0.2330(2) 0.1428(2) -0.30506(17)
O1_2 O 0.7670(2) 0.8572(2) 0.30506(17)
O6A O 0.5792(2) 0.6149(2) 0.21024(18)
O8A O 0.8888(2) 0.6763(2) 0.29771(18)
loop_
_geom_bond_atom_site_label_1
_geom_bond_atom_site_label_2
_geom_bond_site_symmetry_1
_geom_bond_site_symmetry_2
Zn1 O3 1_555 1_555
Zn2 N2 1_555 1_555
N1 C9 1_555 1_555
N2 C34 1_555 1_555
O1 C1 1_555 1_555
O2 C1 1_555 1_555
O3 C3 1_555 1_555
O4 Zn1 1_555 1_555
O5 Zn2 1_555 1_555
O6 C5 1_555 1_555
O7 Zn2 1_555 1_555
O8 C7 1_555 1_555
C1 C2 1_555 1_555
C2 H1 1_555 1_555
H2 C2 1_555 1_555
C3 O4 1_555 1_555
C4 C3 1_555 1_555
H3 C4 1_555 1_555
H4 C4 1_555 1_555
C5 O5 1_555 1_555
C6 C5 1_555 1_555
H5 C6 1_555 1_555
H6 C6 1_555 1_555
C7 O7 1_555 1_555
C8 C7 1_555 1_555
H7 C8 1_555 1_555
H8 C8 1_555 1_555
C9 H9 1_555 1_555
C10 C9 1_555 1_555
H10 C10 1_555 1_555
C11 C10 1_555 1_555
C12 C11 1_555 1_555
H11 C12 1_555 1_555
C13 N1 1_555 1_555
H12 C13 1_555 1_555
C14 C2 1_555 1_555
C15 C14 1_555 1_555
H13 C15 1_555 1_555
H14 C15 1_555 1_555
C16 C15 1_555 1_555
H15 C16 1_555 1_555
C17 C16 1_555 1_555
H16 C17 1_555 1_555
H17 C17 1_555 1_555
C18 C17 1_555 1_555
H18 C18 1_555 1_555
C19 C14 1_555 1_555
H19 C19 1_555 1_555
H20 C19 1_555 1_555
C20 C8 1_555 1_555
C21 C18 1_555 1_555
H21 C21 1_555 1_555
H22 C21 1_555 1_555
C22 C14 1_555 1_555
H23 C22 1_555 1_555
H24 C22 1_555 1_555
C23 C16 1_555 1_555
H25 C23 1_555 1_555
H26 C23 1_555 1_555
C24 C4 1_555 1_555
C25 C24 1_555 1_555
H27 C25 1_555 1_555
H28 C25 1_555 1_555
C26 C25 1_555 1_555
H29 C26 1_555 1_555
C27 C26 1_555 1_555
H30 C27 1_555 1_555
H31 C27 1_555 1_555
C28 C27 1_555 1_555
H32 C28 1_555 1_555
C29 C28 1_555 1_555
H33 C29 1_555 1_555
H34 C29 1_555 1_555
C30 C6 1_555 1_555
C31 C24 1_555 1_555
H35 C31 1_555 1_555
H36 C31 1_555 1_555
C32 C26 1_555 1_555
H37 C32 1_555 1_555
H38 C32 1_555 1_555
C33 C24 1_555 1_555
H39 C33 1_555 1_555
H40 C33 1_555 1_555
C34 H41 1_555 1_555
C35 C34 1_555 1_555
H42 C35 1_555 1_555
C36 C35 1_555 1_555
C37 C36 1_555 1_555
H43 C37 1_555 1_555
C38 N2 1_555 1_555
H44 C38 1_555 1_555
C39 C36 1_555 1_555
H45 C39 1_555 1_555
H46 C39 1_555 1_555
C40 C39 1_555 1_555
H47 C40 1_555 1_555
H48 C40 1_555 1_555
C41 C11 1_555 1_555
H49 C41 1_555 1_555
H50 C41 1_555 1_555
Zn1A O6 1_555 1_555
Zn1A_2 N1 1_555 1_555
Zn1_2 O1 1_555 1_555
Zn2A O1 1_555 1_555
N1A Zn1 1_555 1_555
O1A Zn2 1_555 1_555
O1_2 Zn1 1_555 1_555
O6A Zn1 1_555 1_555
O8A Zn1 1_555 1_555
O8 Zn1A 1_555 1_555
C12 C13 1_555 1_555
C18 C19 1_555 1_555
C20 C21 1_555 1_555
C20 C22 1_555 1_555
C20 C23 1_555 1_555
C28 C33 1_555 1_555
C29 C30 1_555 1_555
C30 C31 1_555 1_555
C30 C32 1_555 1_555
C37 C38 1_555 1_555
C40 C41 1_555 1_555
Zn1A O1A 1_555 1_555

#END
