
#######################################################################
#
#                 Cambridge Crystallographic Data Centre
#                                CCDC 
#
#######################################################################
#
# If this CIF has been generated from an entry in the Cambridge 
# Structural Database, then it will include bibliographic, chemical, 
# crystal, experimental, refinement or atomic coordinate data resulting 
# from the CCDC's data processing and validation procedures.
#
#######################################################################

data_EPUXAP
_symmetry_cell_setting           triclinic
_symmetry_space_group_name_H-M   'P -1'
_symmetry_Int_Tables_number      2
_space_group_name_Hall           '-P 1'
loop_
_symmetry_equiv_pos_site_id
_symmetry_equiv_pos_as_xyz
1 x,y,z
2 -x,-y,-z
_cell_length_a                   12.0525(7)
_cell_length_b                   13.6256(8)
_cell_length_c                   22.0015(13)
_cell_angle_alpha                94.6770(10)
_cell_angle_beta                 103.5900(10)
_cell_angle_gamma                114.4180(10)
_cell_volume                     3132.01
loop_
_atom_site_label
_atom_site_type_symbol
_atom_site_fract_x
_atom_site_fract_y
_atom_site_fract_z
Cd1 Cd 0.83860(3) 0.58644(3) 0.552759(16)
Cd2 Cd 0.98124(3) 0.68314(3) 0.778678(16)
Cd3 Cd 1.18067(4) 0.77122(3) 1.002990(18)
N1 N 0.6848(3) 0.4253(3) 0.57098(18)
N2 N -0.0079(4) -0.2459(3) 0.5390(2)
N3 N 0.7975(4) 0.5268(3) 0.78159(18)
N4 N 0.1624(4) -0.1609(3) 0.77679(18)
O1 O 0.9900(3) 0.5372(3) 0.59962(15)
H1 H 1.0364 0.5260 0.5824
H2 H 1.0137 0.5476 0.6377
O2 O 0.7476(3) 0.6884(3) 0.58797(15)
O3 O 0.8784(3) 0.6761(2) 0.67174(14)
O4 O 0.3086(3) 0.4609(3) 0.55195(15)
O5 O 0.1471(3) 0.4992(3) 0.54231(14)
O6 O 0.9260(3) 0.7933(3) 0.83224(16)
O7 O 1.0357(4) 0.7616(3) 0.91452(17)
O8 O 0.3533(4) 0.8506(3) 0.97090(19)
O9 O 0.3982(4) 0.7782(4) 1.05348(18)
O10 O 1.1115(4) 0.5927(3) 0.95221(16)
H3 H 1.1102 0.5973 0.9160
O11 O 0.8888(4) 0.2885(3) 0.91214(17)
O12 O 0.7950(4) 0.1122(3) 0.9054(2)
O13 O 1.1068(3) 0.6079(3) 0.83113(14)
O14 O 1.0711(3) 0.5723(3) 0.72875(15)
C1 C 0.8018(4) 0.7133(3) 0.6474(2)
C2 C 0.7824(4) 0.7929(4) 0.6897(2)
H4 H 0.8459 0.8663 0.6908
H5 H 0.8010 0.7792 0.7326
C3 C 0.6527(4) 0.7942(3) 0.6739(2)
C4 C 0.5425(4) 0.6792(4) 0.6633(2)
H6 H 0.5579 0.6469 0.7002
H7 H 0.5390 0.6327 0.6264
C5 C 0.4138(4) 0.6833(4) 0.6528(2)
C6 C 0.4221(5) 0.7581(4) 0.7124(2)
H8 H 0.3416 0.7615 0.7069
H9 H 0.4379 0.7270 0.7498
C7 C 0.5287(5) 0.8733(4) 0.7224(2)
H10 H 0.5329 0.9196 0.7602
C8 C 0.6557(4) 0.8676(4) 0.7318(2)
H11 H 0.6737 0.8386 0.7698
H12 H 0.7237 0.9412 0.7381
C9 C 0.6254(4) 0.8449(4) 0.6145(2)
H13 H 0.6940 0.9181 0.6204
H14 H 0.6213 0.7999 0.5768
C10 C 0.5040(5) 0.9237(4) 0.6628(3)
H15 H 0.4238 0.9281 0.6560
H16 H 0.5717 0.9974 0.6693
C11 C 0.4992(4) 0.8514(4) 0.6053(2)
H17 H 0.4827 0.8825 0.5675
C12 C 0.3916(4) 0.7361(4) 0.5952(2)
H18 H 0.3863 0.6907 0.5573
H19 H 0.3112 0.7401 0.5886
C13 C 0.3060(4) 0.5670(4) 0.6439(2)
H20 H 0.3387 0.5260 0.6706
H21 H 0.2384 0.5729 0.6584
C14 C 0.2498(4) 0.5031(4) 0.5752(2)
C15 C 0.9648(4) 0.8020(4) 0.8909(2)
C16 C 0.9185(4) 0.8611(4) 0.9332(2)
H22 H 0.9147 0.9230 0.9155
H23 H 0.9806 0.8903 0.9752
C17 C 0.7864(4) 0.7883(4) 0.9407(2)
C18 C 0.7945(5) 0.7078(5) 0.9846(3)
H24 H 0.8234 0.6590 0.9662
H25 H 0.8555 0.7484 1.0259
C19 C 0.6625(6) 0.6401(5) 0.9927(3)
H26 H 0.6694 0.5895 1.0209
C20 C 0.5690(7) 0.5746(5) 0.9305(4)
H27 H 0.4866 0.5308 0.9363
H28 H 0.5968 0.5252 0.9118
C21 C 0.5577(5) 0.6522(5) 0.8865(3)
H29 H 0.4960 0.6093 0.8451
C22 C 0.6879(4) 0.7215(4) 0.8770(2)
H30 H 0.7160 0.6734 0.8572
H31 H 0.6798 0.7708 0.8487
C23 C 0.7392(4) 0.8620(4) 0.9711(2)
H32 H 0.7348 0.9143 0.9444
H33 H 0.8001 0.9033 1.0124
C24 C 0.5124(5) 0.7302(4) 0.9154(2)
H34 H 0.5055 0.7796 0.8870
H35 H 0.4288 0.6878 0.9204
C25 C 0.6068(4) 0.7967(4) 0.9802(2)
C26 C 0.6182(5) 0.7165(5) 1.0236(3)
H36 H 0.6790 0.7573 1.0650
H37 H 0.5361 0.6733 1.0300
C27 C 0.5680(5) 0.8785(4) 1.0091(3)
H38 H 0.5805 0.9358 0.9843
H39 H 0.6253 0.9128 1.0520
C28 C 0.4306(5) 0.8314(4) 1.0126(3)
C29 C 0.8372(6) 0.1925(5) 0.8805(3)
C30 C 0.8151(5) 0.1731(4) 0.8081(2)
H40 H 0.7648 0.2096 0.7901
H41 H 0.7638 0.0948 0.7912
C31 C 0.9316(4) 0.2108(4) 0.7841(2)
C32 C 1.0088(4) 0.3368(4) 0.8006(2)
H42 H 1.0406 0.3612 0.8466
H43 H 0.9532 0.3696 0.7841
C33 C 1.1209(4) 0.3763(4) 0.7729(2)
C34 C 1.0716(5) 0.3367(4) 0.7006(2)
H44 H 1.0162 0.3687 0.6823
H45 H 1.1428 0.3609 0.6830
C35 C 0.9979(5) 0.2113(4) 0.6831(2)
H46 H 0.9662 0.1870 0.6365
C36 C 0.8847(5) 0.1756(4) 0.7112(2)
H47 H 0.8349 0.0963 0.6993
H48 H 0.8299 0.2086 0.6937
C37 C 1.0846(6) 0.1602(4) 0.7114(3)
H49 H 1.1566 0.1829 0.6943
H50 H 1.0378 0.0806 0.6999
C38 C 1.1314(5) 0.1962(4) 0.7826(3)
H51 H 1.1875 0.1635 0.8003
C39 C 1.2071(5) 0.3221(4) 0.8007(3)
H52 H 1.2387 0.3454 0.8468
H53 H 1.2798 0.3457 0.7841
C40 C 1.0200(5) 0.1593(4) 0.8107(2)
H54 H 0.9727 0.0797 0.8000
H55 H 1.0519 0.1818 0.8569
C41 C 1.1999(4) 0.5015(3) 0.7927(2)
H56 H 1.2605 0.5250 0.7683
H57 H 1.2482 0.5199 0.8374
C42 C 1.1220(4) 0.5650(4) 0.7830(2)
C43 C 0.7063(5) 0.3412(4) 0.5887(2)
H58 H 0.7891 0.3485 0.5980
C44 C 0.6120(5) 0.2455(4) 0.5935(3)
H59 H 0.6317 0.1896 0.6060
C45 C 0.4873(4) 0.2304(4) 0.5802(2)
C46 C 0.4655(4) 0.3184(4) 0.5621(2)
H60 H 0.3836 0.3131 0.5528
C47 C 0.5640(4) 0.4119(4) 0.5581(2)
H61 H 0.5470 0.4692 0.5459
C48 C 0.3809(5) 0.1263(4) 0.5855(3)
H62 H 0.4177 0.0845 0.6092
H63 H 0.3326 0.1456 0.6097
C49 C 0.2917(6) 0.0550(5) 0.5225(3)
H64 H 0.3403 0.0368 0.4980
H65 H 0.2540 0.0964 0.4991
C50 C 0.1862(5) -0.0503(5) 0.5276(3)
C51 C 0.1819(5) -0.1507(5) 0.5092(3)
H66 H 0.2439 -0.1551 0.4923
C52 C 0.0863(5) -0.2439(4) 0.5157(3)
H67 H 0.0864 -0.3107 0.5031
C53 C -0.0040(5) -0.1495(4) 0.5561(3)
H68 H -0.0678 -0.1468 0.5721
C54 C 0.0924(6) -0.0505(5) 0.5512(3)
H69 H 0.0917 0.0158 0.5644
C55 C 0.8010(5) 0.4778(4) 0.8323(2)
H70 H 0.8773 0.5059 0.8651
C56 C 0.6991(5) 0.3894(4) 0.8381(2)
H71 H 0.7076 0.3590 0.8742
C57 C 0.5829(4) 0.3442(4) 0.7911(2)
C58 C 0.5778(5) 0.3956(4) 0.7398(2)
H72 H 0.5016 0.3702 0.7071
C59 C 0.6857(5) 0.4852(4) 0.7365(2)
H73 H 0.6794 0.5177 0.7011
C60 C 0.4715(4) 0.2432(4) 0.7949(3)
H74 H 0.3949 0.2344 0.7635
H75 H 0.4599 0.2525 0.8368
C61 C 0.4898(4) 0.1397(4) 0.7833(3)
H76 H 0.5085 0.1342 0.7430
H77 H 0.5629 0.1467 0.8167
C62 C 0.3750(4) 0.0350(4) 0.7818(2)
C63 C 0.3752(5) -0.0250(4) 0.8293(2)
H78 H 0.4478 -0.0009 0.8641
C64 C 0.2686(5) -0.1203(4) 0.8255(2)
H79 H 0.2711 -0.1581 0.8587
C65 C 0.1628(5) -0.1049(4) 0.7302(3)
H80 H 0.0900 -0.1323 0.6953
C66 C 0.2639(5) -0.0094(4) 0.7304(2)
H81 H 0.2586 0.0260 0.6962
C67 C 1.1548(7) 0.5235(5) 0.9788(3)
H82 H 1.2455 0.5543 0.9867
H83 H 1.1146 0.4535 0.9500
H84 H 1.1348 0.5141 1.0183
Cd1_2 Cd -0.16140(3) -0.41356(3) 0.552759(16)
Cd1A Cd 0.16140(3) 0.41356(3) 0.447241(16)
Cd2_2 Cd -0.01876(3) -0.31686(3) 0.778678(16)
Cd3_2 Cd 0.18067(4) 0.77122(3) 1.002990(18)
Cd3A Cd 0.81933(4) 0.22878(3) 0.997010(18)
N2_2 N 0.9921(4) 0.7541(3) 0.5390(2)
N4_2 N 1.1624(4) 0.8391(3) 0.77679(18)
O4A O 0.6914(3) 0.5391(3) 0.44805(15)
O5A O 0.8529(3) 0.5008(3) 0.45769(14)
O8_2 O 1.3533(4) 0.8506(3) 0.97090(19)
O9_2 O 1.3982(4) 0.7782(4) 1.05348(18)
O11A O 1.1112(4) 0.7115(3) 1.08786(17)
O12A O 1.2050(4) 0.8878(3) 1.0946(2)
loop_
_geom_bond_atom_site_label_1
_geom_bond_atom_site_label_2
_geom_bond_site_symmetry_1
_geom_bond_site_symmetry_2
Cd1 N1 1_555 1_555
Cd2 N3 1_555 1_555
Cd3 O7 1_555 1_555
N1 C43 1_555 1_555
N2 C52 1_555 1_555
N3 C55 1_555 1_555
N4 C64 1_555 1_555
O1 Cd1 1_555 1_555
H1 O1 1_555 1_555
H2 O1 1_555 1_555
O2 Cd1 1_555 1_555
O3 Cd1 1_555 1_555
O4 C14 1_555 1_555
O5 C14 1_555 1_555
O6 Cd2 1_555 1_555
O7 C15 1_555 1_555
O8 C28 1_555 1_555
O9 C28 1_555 1_555
O10 Cd3 1_555 1_555
H3 O10 1_555 1_555
O11 C29 1_555 1_555
O12 C29 1_555 1_555
O13 Cd2 1_555 1_555
O14 Cd2 1_555 1_555
C1 O2 1_555 1_555
C2 C1 1_555 1_555
H4 C2 1_555 1_555
H5 C2 1_555 1_555
C3 C2 1_555 1_555
C4 C3 1_555 1_555
H6 C4 1_555 1_555
H7 C4 1_555 1_555
C5 C4 1_555 1_555
C6 C5 1_555 1_555
H8 C6 1_555 1_555
H9 C6 1_555 1_555
C7 C6 1_555 1_555
H10 C7 1_555 1_555
C8 C3 1_555 1_555
H11 C8 1_555 1_555
H12 C8 1_555 1_555
C9 C3 1_555 1_555
H13 C9 1_555 1_555
H14 C9 1_555 1_555
C10 C7 1_555 1_555
H15 C10 1_555 1_555
H16 C10 1_555 1_555
C11 C9 1_555 1_555
H17 C11 1_555 1_555
C12 C5 1_555 1_555
H18 C12 1_555 1_555
H19 C12 1_555 1_555
C13 C5 1_555 1_555
H20 C13 1_555 1_555
H21 C13 1_555 1_555
C14 C13 1_555 1_555
C15 O6 1_555 1_555
C16 C15 1_555 1_555
H22 C16 1_555 1_555
H23 C16 1_555 1_555
C17 C16 1_555 1_555
C18 C17 1_555 1_555
H24 C18 1_555 1_555
H25 C18 1_555 1_555
C19 C18 1_555 1_555
H26 C19 1_555 1_555
C20 C19 1_555 1_555
H27 C20 1_555 1_555
H28 C20 1_555 1_555
C21 C20 1_555 1_555
H29 C21 1_555 1_555
C22 C17 1_555 1_555
H30 C22 1_555 1_555
H31 C22 1_555 1_555
C23 C17 1_555 1_555
H32 C23 1_555 1_555
H33 C23 1_555 1_555
C24 C21 1_555 1_555
H34 C24 1_555 1_555
H35 C24 1_555 1_555
C25 C23 1_555 1_555
C26 C19 1_555 1_555
H36 C26 1_555 1_555
H37 C26 1_555 1_555
C27 C25 1_555 1_555
H38 C27 1_555 1_555
H39 C27 1_555 1_555
C28 C27 1_555 1_555
C29 C30 1_555 1_555
C30 H40 1_555 1_555
H41 C30 1_555 1_555
C31 C30 1_555 1_555
C32 C31 1_555 1_555
H42 C32 1_555 1_555
H43 C32 1_555 1_555
C33 C32 1_555 1_555
C34 C33 1_555 1_555
H44 C34 1_555 1_555
H45 C34 1_555 1_555
C35 C34 1_555 1_555
H46 C35 1_555 1_555
C36 C31 1_555 1_555
H47 C36 1_555 1_555
H48 C36 1_555 1_555
C37 C35 1_555 1_555
H49 C37 1_555 1_555
H50 C37 1_555 1_555
C38 C37 1_555 1_555
H51 C38 1_555 1_555
C39 C33 1_555 1_555
H52 C39 1_555 1_555
H53 C39 1_555 1_555
C40 C31 1_555 1_555
H54 C40 1_555 1_555
H55 C40 1_555 1_555
C41 C33 1_555 1_555
H56 C41 1_555 1_555
H57 C41 1_555 1_555
C42 O13 1_555 1_555
C43 H58 1_555 1_555
C44 C43 1_555 1_555
H59 C44 1_555 1_555
C45 C44 1_555 1_555
C46 C45 1_555 1_555
H60 C46 1_555 1_555
C47 N1 1_555 1_555
H61 C47 1_555 1_555
C48 C45 1_555 1_555
H62 C48 1_555 1_555
H63 C48 1_555 1_555
C49 C48 1_555 1_555
H64 C49 1_555 1_555
H65 C49 1_555 1_555
C50 C49 1_555 1_555
C51 C50 1_555 1_555
H66 C51 1_555 1_555
C52 C51 1_555 1_555
H67 C52 1_555 1_555
C53 N2 1_555 1_555
H68 C53 1_555 1_555
C54 C50 1_555 1_555
H69 C54 1_555 1_555
C55 H70 1_555 1_555
C56 C55 1_555 1_555
H71 C56 1_555 1_555
C57 C56 1_555 1_555
C58 C57 1_555 1_555
H72 C58 1_555 1_555
C59 N3 1_555 1_555
H73 C59 1_555 1_555
C60 C57 1_555 1_555
H74 C60 1_555 1_555
H75 C60 1_555 1_555
C61 C60 1_555 1_555
H76 C61 1_555 1_555
H77 C61 1_555 1_555
C62 C61 1_555 1_555
C63 C62 1_555 1_555
H78 C63 1_555 1_555
C64 C63 1_555 1_555
H79 C64 1_555 1_555
C65 N4 1_555 1_555
H80 C65 1_555 1_555
C66 C62 1_555 1_555
H81 C66 1_555 1_555
C67 O10 1_555 1_555
H82 C67 1_555 1_555
H83 C67 1_555 1_555
H84 C67 1_555 1_555
Cd1_2 N2 1_555 1_555
Cd1A O4 1_555 1_555
Cd2_2 N4 1_555 1_555
Cd3_2 O8 1_555 1_555
Cd3A O11 1_555 1_555
N2_2 Cd1 1_555 1_555
N4_2 Cd2 1_555 1_555
O4A Cd1 1_555 1_555
O5A Cd1 1_555 1_555
O8_2 Cd3 1_555 1_555
O9_2 Cd3 1_555 1_555
O11A Cd3 1_555 1_555
O12A Cd3 1_555 1_555
Cd2 O3 1_555 1_555
O3 C1 1_555 1_555
O5 Cd1A 1_555 1_555
O9 Cd3_2 1_555 1_555
O12 Cd3A 1_555 1_555
O14 C42 1_555 1_555
C7 C8 1_555 1_555
C10 C11 1_555 1_555
C11 C12 1_555 1_555
C21 C22 1_555 1_555
C24 C25 1_555 1_555
C25 C26 1_555 1_555
C35 C36 1_555 1_555
C38 C39 1_555 1_555
C38 C40 1_555 1_555
C41 C42 1_555 1_555
C46 C47 1_555 1_555
C53 C54 1_555 1_555
C58 C59 1_555 1_555
C65 C66 1_555 1_555

#END
