
#######################################################################
#
#                 Cambridge Crystallographic Data Centre
#                                CCDC 
#
#######################################################################
#
# If this CIF has been generated from an entry in the Cambridge 
# Structural Database, then it will include bibliographic, chemical, 
# crystal, experimental, refinement or atomic coordinate data resulting 
# from the CCDC's data processing and validation procedures.
#
#######################################################################

data_EQACUV
_symmetry_cell_setting           monoclinic
_symmetry_space_group_name_H-M   'P 21/c'
_symmetry_Int_Tables_number      14
_space_group_name_Hall           '-P 2ybc'
loop_
_symmetry_equiv_pos_site_id
_symmetry_equiv_pos_as_xyz
1 x,y,z
2 -x,1/2+y,1/2-z
3 -x,-y,-z
4 x,1/2-y,1/2+z
_cell_length_a                   8.9150(10)
_cell_length_b                   8.1820(6)
_cell_length_c                   12.9707(15)
_cell_angle_alpha                90
_cell_angle_beta                 122.681(8)
_cell_angle_gamma                90
_cell_volume                     796.336
loop_
_atom_site_label
_atom_site_type_symbol
_atom_site_fract_x
_atom_site_fract_y
_atom_site_fract_z
C1 C 0.1711(3) 0.3292(3) 0.50412(18)
H1 H 0.2384 0.3231 0.5892
C2 C 0.0009(3) 0.2769(3) 0.43176(19)
C3 C 0.0971(3) 0.3767(3) 0.32151(19)
H2 H 0.0990 0.4093 0.2535
C4 C -0.1269(3) 0.2031(4) 0.4588(3)
H3 H -0.2376 0.1808 0.3834
H4 H -0.1472 0.2778 0.5071
H5 H -0.0783 0.1030 0.5033
C5 C 0.5539(2) 0.1117(2) 0.53995(16)
C6 C 0.4657(2) 0.0459(2) 0.41528(16)
N1 N 0.2306(2) 0.3922(2) 0.43470(14)
N2 N -0.0435(2) 0.3074(3) 0.31627(16)
H6 H -0.1445 0.2860 0.2505
O1 O 0.62213(17) 0.24585(15) 0.59095(11)
O2 O 0.42557(19) 0.09785(16) 0.31317(11)
Cd1 Cd 0.5000 0.5000 0.5000
O3 O 0.4415(2) 0.42811(18) 0.30740(14)
H7 H 0.449(4) 0.326(2) 0.306(3)
H8 H 0.491(4) 0.469(3) 0.274(3)
C1B C 0.8289(3) 0.6708(3) 0.49588(18)
H1B H 0.7616 0.6769 0.4108
C2B C 0.9991(3) 0.7231(3) 0.56824(19)
C3B C 0.9029(3) 0.6233(3) 0.67849(19)
H2B H 0.9010 0.5907 0.7465
C4B C 1.1269(3) 0.7969(4) 0.5412(3)
H3B H 1.2376 0.8192 0.6166
H4B H 1.1472 0.7222 0.4929
H5B H 1.0783 0.8970 0.4967
C5B C 0.4461(2) -0.1117(2) 0.46005(16)
C6B C 0.5343(2) -0.0459(2) 0.58472(16)
N1B N 0.7694(2) 0.6078(2) 0.56530(14)
N2B N 1.0435(2) 0.6926(3) 0.68373(16)
H6B H 1.1445 0.7140 0.7495
O1B O 0.37787(17) -0.24585(15) 0.40905(11)
O1B_2 O 0.37787(17) 0.75415(15) 0.40905(11)
O2B O 0.57443(19) -0.09785(16) 0.68683(11)
Cd1_2 Cd 0.5000 -0.5000 0.5000
O3B O 0.5585(2) 0.57189(18) 0.69260(14)
H7B H 0.551(4) 0.674(2) 0.694(3)
H8B H 0.509(4) 0.531(3) 0.726(3)
loop_
_geom_bond_atom_site_label_1
_geom_bond_atom_site_label_2
_geom_bond_site_symmetry_1
_geom_bond_site_symmetry_2
C1 H1 1_555 1_555
C2 C1 1_555 1_555
C3 H2 1_555 1_555
C4 C2 1_555 1_555
H3 C4 1_555 1_555
H4 C4 1_555 1_555
H5 C4 1_555 1_555
C5 C6 1_555 1_555
C6 O2 1_555 1_555
N1 C1 1_555 1_555
N2 C2 1_555 1_555
H6 N2 1_555 1_555
O1 C5 1_555 1_555
Cd1 N1 1_555 1_555
O3 Cd1 1_555 1_555
H7 O3 1_555 1_555
H8 O3 1_555 1_555
C1B H1B 1_555 1_555
C2B C1B 1_555 1_555
C3B H2B 1_555 1_555
C4B C2B 1_555 1_555
H3B C4B 1_555 1_555
H4B C4B 1_555 1_555
H5B C4B 1_555 1_555
C5B C6 1_555 1_555
C6B C5 1_555 1_555
N1B Cd1 1_555 1_555
N2B C2B 1_555 1_555
H6B N2B 1_555 1_555
O1B C5B 1_555 1_555
O1B_2 Cd1 1_555 1_555
O2B C6B 1_555 1_555
Cd1_2 O1B 1_555 1_555
O3B Cd1 1_555 1_555
H7B O3B 1_555 1_555
H8B O3B 1_555 1_555
C3 N1 1_555 1_555
C3 N2 1_555 1_555
O1 Cd1 1_555 1_555
C1B N1B 1_555 1_555
C3B N1B 1_555 1_555
C3B N2B 1_555 1_555
C5B C6B 1_555 1_555

#END
