
#######################################################################
#
#                 Cambridge Crystallographic Data Centre
#                                CCDC 
#
#######################################################################
#
# If this CIF has been generated from an entry in the Cambridge 
# Structural Database, then it will include bibliographic, chemical, 
# crystal, experimental, refinement or atomic coordinate data resulting 
# from the CCDC's data processing and validation procedures.
#
#######################################################################

data_EQADAC
_symmetry_cell_setting           monoclinic
_symmetry_space_group_name_H-M   'P 21/c'
_symmetry_Int_Tables_number      14
_space_group_name_Hall           '-P 2ybc'
loop_
_symmetry_equiv_pos_site_id
_symmetry_equiv_pos_as_xyz
1 x,y,z
2 -x,1/2+y,1/2-z
3 -x,-y,-z
4 x,1/2-y,1/2+z
_cell_length_a                   11.8883(7)
_cell_length_b                   8.0319(4)
_cell_length_c                   12.7296(9)
_cell_angle_alpha                90
_cell_angle_beta                 100.744(5)
_cell_angle_gamma                90
_cell_volume                     1194.19
loop_
_atom_site_label
_atom_site_type_symbol
_atom_site_fract_x
_atom_site_fract_y
_atom_site_fract_z
C1 C 0.1596(4) 0.5627(7) 0.5517(4)
H1 H 0.1021 0.5381 0.5899
C2 C 0.2691(4) 0.5119(6) 0.5743(4)
H2 H 0.3009 0.4460 0.6324
C3 C 0.2520(3) 0.6609(5) 0.4312(3)
C4 C 0.2711(4) 0.7559(6) 0.3358(4)
H3 H 0.2008 0.8079 0.3023
H4 H 0.2965 0.6814 0.2861
H5 H 0.3282 0.8397 0.3574
C9 C 0.5171(3) 0.8816(4) 0.4753(3)
C10 C 0.5043(3) 1.0452(4) 0.4248(3)
N1 N 0.3271(3) 0.5726(4) 0.4983(3)
N2 N 0.1495(3) 0.6575(5) 0.4615(3)
H11 H 0.0882 0.7066 0.4296
O1 O 0.5388(2) 0.7393(3) 0.4437(2)
O2 O 0.5084(3) 1.1009(3) 0.3341(2)
Co1 Co 0.5000 0.5000 0.5000
O3 O 0.5436(2) 0.5778(3) 0.6643(2)
H14 H 0.523(4) 0.671(3) 0.673(4)
H15 H 0.528(4) 0.521(4) 0.713(3)
C1B C 0.8404(4) 0.4373(7) 0.4483(4)
H1B H 0.8979 0.4619 0.4101
C2B C 0.7309(4) 0.4881(6) 0.4257(4)
H2B H 0.6991 0.5540 0.3676
C3B C 0.7480(3) 0.3391(5) 0.5688(3)
C4B C 0.7289(4) 0.2441(6) 0.6642(4)
H3B H 0.7992 0.1921 0.6977
H4B H 0.7035 0.3186 0.7139
H5B H 0.6718 0.1603 0.6426
C9B C 0.4829(3) 1.1184(4) 0.5247(3)
C10B C 0.4957(3) 0.9548(4) 0.5752(3)
N1B N 0.6729(3) 0.4274(4) 0.5017(3)
N2B N 0.8505(3) 0.3425(5) 0.5385(3)
H11B H 0.9118 0.2934 0.5704
O1B O 0.4612(2) 1.2607(3) 0.5563(2)
O1B_2 O 0.4612(2) 0.2607(3) 0.5563(2)
O2B O 0.4916(3) 0.8991(3) 0.6659(2)
Co1_2 Co 0.5000 1.5000 0.5000
O3B O 0.4564(2) 0.4222(3) 0.3357(2)
H14B H 0.477(4) 0.329(3) 0.327(4)
H15B H 0.472(4) 0.479(4) 0.287(3)
C5 C 0.0677(9) 0.2064(12) 0.2809(8)
H6 H 0.0127 0.1414 0.3045
C6 C 0.1600(9) 0.2373(12) 0.3309(8)
H7 H 0.1901 0.2021 0.4000
C7 C 0.1456(5) 0.3463(9) 0.1837(6)
C8 C 0.1822(10) 0.4600(11) 0.0918(7)
H8 H 0.2600 0.4962 0.1141
H9 H 0.1328 0.5554 0.0793
H10 H 0.1757 0.3965 0.0271
N3 N 0.2209(5) 0.3483(10) 0.2584(8)
N4 N 0.0530(4) 0.2949(10) 0.1656(7)
H13 H -0.0023 0.3015 0.1116
H12? H 0.2871 0.3952 0.2692
loop_
_geom_bond_atom_site_label_1
_geom_bond_atom_site_label_2
_geom_bond_site_symmetry_1
_geom_bond_site_symmetry_2
C1 H1 1_555 1_555
C2 C1 1_555 1_555
H2 C2 1_555 1_555
C3 C4 1_555 1_555
C4 H3 1_555 1_555
H4 C4 1_555 1_555
H5 C4 1_555 1_555
C5 H6 1_555 1_555
C6 C5 1_555 1_555
H7 C6 1_555 1_555
C7 C8 1_555 1_555
C8 H8 1_555 1_555
H9 C8 1_555 1_555
H10 C8 1_555 1_555
C9 C10 1_555 1_555
C10 O2 1_555 1_555
N1 C2 1_555 1_555
N2 C1 1_555 1_555
H11 N2 1_555 1_555
N3 C6 1_555 1_555
N4 C5 1_555 1_555
H13 N4 1_555 1_555
O1 C9 1_555 1_555
Co1 N1 1_555 1_555
O3 Co1 1_555 1_555
H14 O3 1_555 1_555
H15 O3 1_555 1_555
C1B H1B 1_555 1_555
C2B C1B 1_555 1_555
H2B C2B 1_555 1_555
C3B C4B 1_555 1_555
C4B H3B 1_555 1_555
H4B C4B 1_555 1_555
H5B C4B 1_555 1_555
C9B C10 1_555 1_555
C10B C9 1_555 1_555
N1B Co1 1_555 1_555
N2B C1B 1_555 1_555
H11B N2B 1_555 1_555
O1B C9B 1_555 1_555
O1B_2 Co1 1_555 1_555
O2B C10B 1_555 1_555
Co1_2 O1B 1_555 1_555
O3B Co1 1_555 1_555
H14B O3B 1_555 1_555
H15B O3B 1_555 1_555
C3 N1 1_555 1_555
C3 N2 1_555 1_555
C7 N3 1_555 1_555
C7 N4 1_555 1_555
O1 Co1 1_555 1_555
C2B N1B 1_555 1_555
C3B N1B 1_555 1_555
C3B N2B 1_555 1_555
C9B C10B 1_555 1_555

#END
