
#######################################################################
#
#                 Cambridge Crystallographic Data Centre
#                                CCDC 
#
#######################################################################
#
# If this CIF has been generated from an entry in the Cambridge 
# Structural Database, then it will include bibliographic, chemical, 
# crystal, experimental, refinement or atomic coordinate data resulting 
# from the CCDC's data processing and validation procedures.
#
#######################################################################

data_EQATOG
_symmetry_cell_setting           orthorhombic
_symmetry_space_group_name_H-M   'P b c a'
_symmetry_Int_Tables_number      61
_space_group_name_Hall           '-P 2ac 2ab'
loop_
_symmetry_equiv_pos_site_id
_symmetry_equiv_pos_as_xyz
1 x,y,z
2 1/2-x,-y,1/2+z
3 1/2+x,1/2-y,-z
4 -x,1/2+y,1/2-z
5 -x,-y,-z
6 1/2+x,y,1/2-z
7 1/2-x,1/2+y,z
8 x,1/2-y,1/2+z
_cell_length_a                   14.3250(11)
_cell_length_b                   12.7450(12)
_cell_length_c                   15.7313(14)
_cell_angle_alpha                90
_cell_angle_beta                 90
_cell_angle_gamma                90
_cell_volume                     2872.1
loop_
_atom_site_label
_atom_site_type_symbol
_atom_site_fract_x
_atom_site_fract_y
_atom_site_fract_z
O1 O 0.55538(12) 0.21653(14) 0.27704(10)
O2 O 0.55833(13) 0.21756(15) 0.45698(10)
In1 In 0.563729(11) 0.245455(13) 0.117775(9)
C1 C 0.71704(18) 0.2625(2) 0.12716(14)
H1 H 0.7397(19) 0.204(2) 0.1534(17)
H2 H 0.7414(19) 0.2676(19) 0.0752(18)
C2 C 0.74141(19) 0.3550(2) 0.17881(16)
H3 H 0.7275(18) 0.349(2) 0.2390(16)
C3 C 0.7762(2) 0.4439(2) 0.1510(2)
H4 H 0.7906(19) 0.457(2) 0.0904(19)
H5 H 0.7847(19) 0.503(2) 0.1882(19)
C4 C 0.4778(2) 0.3859(2) 0.13510(16)
H6 H 0.5089(19) 0.443(2) 0.1070(16)
H7 H 0.4767(18) 0.401(2) 0.1945(17)
C5 C 0.38193(19) 0.3751(2) 0.10197(17)
H8 H 0.3399(19) 0.323(2) 0.1368(15)
C6 C 0.3478(2) 0.4193(3) 0.03296(18)
H9 H 0.380(2) 0.467(2) 0.0003(18)
H10 H 0.289(2) 0.412(2) 0.0138(18)
C7 C 0.51217(19) 0.0860(2) 0.09816(17)
H11 H 0.5433(19) 0.050(2) 0.1450(16)
H12 H 0.5384(18) 0.066(2) 0.0494(16)
C8 C 0.41037(19) 0.0723(2) 0.09908(17)
H13 H 0.3804(19) 0.093(2) 0.0483(17)
C9 C 0.3601(2) 0.0289(2) 0.16081(19)
H14 H 0.293(2) 0.024(2) 0.1568(18)
H15 H 0.389(2) 0.004(2) 0.2090(18)
C10 C 0.62625(19) 0.1626(2) 0.32393(15)
H16 H 0.6850 0.1619 0.2907
H17 H 0.6068 0.0890 0.3336
C11 C 0.64277(19) 0.2156(2) 0.40818(16)
H18 H 0.6917 0.1774 0.4400
H19 H 0.6648 0.2883 0.3986
C12 C 0.48633(17) 0.2712(2) 0.40965(15)
H20 H 0.5053 0.3449 0.3996
H21 H 0.4277 0.2717 0.4430
C13 C 0.47016(18) 0.2171(2) 0.32562(15)
H22 H 0.4491 0.1442 0.3356
H23 H 0.4208 0.2543 0.2935
O2G O 0.55833(13) 0.28244(15) -0.04302(10)
In1G In 0.563729(11) 0.254545(13) 0.617775(9)
loop_
_geom_bond_atom_site_label_1
_geom_bond_atom_site_label_2
_geom_bond_site_symmetry_1
_geom_bond_site_symmetry_2
O1 In1 1_555 1_555
O2 C11 1_555 1_555
In1 C1 1_555 1_555
C1 H1 1_555 1_555
H2 C1 1_555 1_555
C2 C1 1_555 1_555
H3 C2 1_555 1_555
C3 C2 1_555 1_555
H4 C3 1_555 1_555
H5 C3 1_555 1_555
C4 In1 1_555 1_555
H6 C4 1_555 1_555
H7 C4 1_555 1_555
C5 C4 1_555 1_555
H8 C5 1_555 1_555
C6 C5 1_555 1_555
H9 C6 1_555 1_555
H10 C6 1_555 1_555
C7 In1 1_555 1_555
H11 C7 1_555 1_555
H12 C7 1_555 1_555
C8 C7 1_555 1_555
H13 C8 1_555 1_555
C9 C8 1_555 1_555
H14 C9 1_555 1_555
H15 C9 1_555 1_555
C10 O1 1_555 1_555
H16 C10 1_555 1_555
H17 C10 1_555 1_555
C11 C10 1_555 1_555
H18 C11 1_555 1_555
H19 C11 1_555 1_555
C12 O2 1_555 1_555
H20 C12 1_555 1_555
H21 C12 1_555 1_555
C13 O1 1_555 1_555
H22 C13 1_555 1_555
H23 C13 1_555 1_555
O2G In1 1_555 1_555
In1G O2 1_555 1_555
C12 C13 1_555 1_555

#END
