
#######################################################################
#
#                 Cambridge Crystallographic Data Centre
#                                CCDC 
#
#######################################################################
#
# If this CIF has been generated from an entry in the Cambridge 
# Structural Database, then it will include bibliographic, chemical, 
# crystal, experimental, refinement or atomic coordinate data resulting 
# from the CCDC's data processing and validation procedures.
#
#######################################################################

data_EQEDEK
_symmetry_cell_setting           monoclinic
_symmetry_space_group_name_H-M   'P 21'
_symmetry_Int_Tables_number      4
_space_group_name_Hall           'P 2yb'
loop_
_symmetry_equiv_pos_site_id
_symmetry_equiv_pos_as_xyz
1 x,y,z
2 -x,1/2+y,-z
_cell_length_a                   7.3440(10)
_cell_length_b                   13.178(3)
_cell_length_c                   8.799(2)
_cell_angle_alpha                90
_cell_angle_beta                 114.25(3)
_cell_angle_gamma                90
_cell_volume                     776.421
loop_
_atom_site_label
_atom_site_type_symbol
_atom_site_fract_x
_atom_site_fract_y
_atom_site_fract_z
Cu1 Cu 0.85064(6) 0.14165(4) 0.18176(5)
C1 C 1.2708(6) 0.0717(3) 0.3840(5)
H1 H 1.2617 0.0414 0.2857
C2 C 1.4450(6) 0.0621(4) 0.5245(6)
H2 H 1.5534 0.0273 0.5211
C3 C 1.4559(7) 0.1054(4) 0.6715(6)
H3 H 1.5718 0.0993 0.7688
C4 C 1.2944(6) 0.1574(4) 0.6722(5)
H4 H 1.2986 0.1868 0.7697
C5 C 1.1259(6) 0.1651(3) 0.5255(5)
C6 C 0.9004(7) 0.2748(3) 0.6161(6)
C7 C 0.7047(7) 0.3030(3) 0.5280(6)
H5 H 0.6279 0.3422 0.5674
C8 C 0.6428(6) 0.2621(3) 0.3684(5)
C9 C 1.0394(8) 0.3043(4) 0.7884(6)
H6 H 0.9702 0.3464 0.8365
H7 H 1.1503 0.3410 0.7847
H8 H 1.0872 0.2443 0.8551
C10 C 0.4452(7) 0.2749(4) 0.2222(6)
H9 H 0.4466 0.2386 0.1281
H10 H 0.4218 0.3456 0.1951
H11 H 0.3408 0.2486 0.2501
C11 C 0.9849(6) 0.0398(3) -0.0729(5)
C12 C 0.9438(7) -0.0468(4) -0.3093(6)
C13 C 0.5167(6) -0.0261(3) 0.1355(5)
C14 C 0.3399(6) -0.1723(3) 0.0603(5)
N1 N 1.1135(4) 0.1231(2) 0.3836(4)
N2 N 0.9494(5) 0.2156(2) 0.5098(4)
N3 N 0.7904(5) 0.2097(3) 0.3557(4)
N4 N 0.9486(5) 0.0729(3) 0.0301(4)
N5 N 1.0484(8) 0.0079(5) -0.1799(6)
N6 N 0.8636(8) -0.0952(5) -0.4253(6)
N7 N 0.6105(6) 0.0414(3) 0.1236(5)
N8 N 0.4132(6) -0.0976(3) 0.1628(4)
N9 N 0.2696(6) -0.2432(3) -0.0185(4)
Cu1A Cu 0.14936(6) -0.35835(4) -0.18176(5)
N9A N 0.7304(6) 0.2568(3) 0.0185(4)
loop_
_geom_bond_atom_site_label_1
_geom_bond_atom_site_label_2
_geom_bond_site_symmetry_1
_geom_bond_site_symmetry_2
Cu1 N1 1_555 1_555
C1 H1 1_555 1_555
C2 C1 1_555 1_555
H2 C2 1_555 1_555
C3 C2 1_555 1_555
H3 C3 1_555 1_555
C4 C3 1_555 1_555
H4 C4 1_555 1_555
C5 C4 1_555 1_555
C6 C7 1_555 1_555
C7 H5 1_555 1_555
C8 C7 1_555 1_555
C9 C6 1_555 1_555
H6 C9 1_555 1_555
H7 C9 1_555 1_555
H8 C9 1_555 1_555
C10 C8 1_555 1_555
H9 C10 1_555 1_555
H10 C10 1_555 1_555
H11 C10 1_555 1_555
C11 N4 1_555 1_555
C12 N5 1_555 1_555
C13 N7 1_555 1_555
C14 N8 1_555 1_555
N1 C1 1_555 1_555
N2 C5 1_555 1_555
N3 Cu1 1_555 1_555
N4 Cu1 1_555 1_555
N5 C11 1_555 1_555
N6 C12 1_555 1_555
N7 Cu1 1_555 1_555
N8 C13 1_555 1_555
N9 C14 1_555 1_555
Cu1A N9 1_555 1_555
N9A Cu1 1_555 1_555
C5 N1 1_555 1_555
C6 N2 1_555 1_555
C8 N3 1_555 1_555
N2 N3 1_555 1_555

#END
