
#######################################################################
#
#                 Cambridge Crystallographic Data Centre
#                                CCDC 
#
#######################################################################
#
# If this CIF has been generated from an entry in the Cambridge 
# Structural Database, then it will include bibliographic, chemical, 
# crystal, experimental, refinement or atomic coordinate data resulting 
# from the CCDC's data processing and validation procedures.
#
#######################################################################

data_EQEHOY
_symmetry_cell_setting           monoclinic
_symmetry_space_group_name_H-M   'P 21/c'
_symmetry_Int_Tables_number      14
_space_group_name_Hall           '-P 2ybc'
loop_
_symmetry_equiv_pos_site_id
_symmetry_equiv_pos_as_xyz
1 x,y,z
2 -x,1/2+y,1/2-z
3 -x,-y,-z
4 x,1/2-y,1/2+z
_cell_length_a                   16.4170(16)
_cell_length_b                   22.238(6)
_cell_length_c                   7.861(4)
_cell_angle_alpha                90
_cell_angle_beta                 102.105(9)
_cell_angle_gamma                90
_cell_volume                     2806.09
loop_
_atom_site_label
_atom_site_type_symbol
_atom_site_fract_x
_atom_site_fract_y
_atom_site_fract_z
Cd1 Cd 0.967866(12) 0.164021(9) 0.31519(2)
C1 C 1.12995(17) 0.21366(13) 0.3560(4)
C2 C 1.20992(16) 0.24690(12) 0.3643(4)
C3 C 1.28266(18) 0.21608(14) 0.3562(4)
H1 H 1.2825 0.1744 0.3473
C4 C 1.35496(19) 0.24801(16) 0.3615(5)
H2 H 1.4036 0.2275 0.3552
C5 C 1.35689(18) 0.30978(15) 0.3758(4)
H3 H 1.4065 0.3304 0.3795
C6 C 1.28502(18) 0.34119(12) 0.3848(4)
C7 C 1.21159(16) 0.30894(12) 0.3783(3)
H4 H 1.1628 0.3295 0.3835
C8 C 1.35743(19) 0.43975(14) 0.4354(4)
H5 H 1.3430 0.4820 0.4199
H6 H 1.3926 0.4299 0.3544
C9 C 1.40784(18) 0.43100(11) 0.6187(4)
C10 C 1.49470(19) 0.43245(13) 0.6530(4)
H7 H 1.5221 0.4361 0.5613
C11 C 1.54060(18) 0.42848(13) 0.8213(4)
H8 H 1.5984 0.4305 0.8415
C12 C 1.50167(17) 0.42155(11) 0.9606(4)
C13 C 1.41565(19) 0.41943(14) 0.9269(4)
H9 H 1.3885 0.4145 1.0186
C14 C 1.36905(19) 0.42447(15) 0.7580(4)
H10 H 1.3112 0.4234 0.7384
C15 C 1.5506(2) 0.42141(13) 1.1467(4)
H11 H 1.5605 0.4629 1.1835
H12 H 1.5158 0.4037 1.2189
C16 C 1.63319(18) 0.32697(11) 1.1816(4)
C17 C 1.56342(18) 0.29124(13) 1.1700(4)
H13 H 1.5109 0.3088 1.1522
C18 C 1.57149(19) 0.22946(14) 1.1848(5)
H14 H 1.5241 0.2058 1.1768
C19 C 1.64873(18) 0.20220(13) 1.2113(4)
H15 H 1.6535 0.1606 1.2217
C20 C 1.71913(16) 0.23767(12) 1.2222(4)
C21 C 1.71113(16) 0.29957(12) 1.2078(3)
H16 H 1.7585 0.3232 1.2158
C22 C 1.80414(16) 0.20995(12) 1.2557(4)
N1 N 1.28096(15) 0.40454(11) 0.3890(3)
H17 H 1.2466(17) 0.4143(15) 0.442(4)
N2 N 1.63026(16) 0.39017(10) 1.1829(3)
H18 H 1.6638(17) 0.4064(15) 1.140(4)
O1 O 1.12805(16) 0.15704(9) 0.3459(3)
O2 O 1.06482(12) 0.24372(9) 0.3558(3)
O3 O 1.86653(12) 0.24323(9) 1.2715(3)
O4 O 1.81127(13) 0.15310(9) 1.2675(3)
O5 O 0.9704(2) 0.16509(15) 0.6055(4)
H19 H 0.954(3) 0.1930(15) 0.671(6)
H20 H 0.944(3) 0.1334(13) 0.625(7)
O6 O 0.9623(2) 0.16255(13) 0.0252(4)
H21 H 0.9154(16) 0.171(2) -0.045(5)
H22 H 1.001(2) 0.168(2) -0.030(6)
O12 O 0.9794(4) 0.0578(2) 0.3311(10)
H33 H 0.982(7) 0.026(3) 0.264(13)
H34 H 0.937(5) 0.048(5) 0.376(15)
Cd1_2 Cd 1.967866(12) 0.164021(9) 1.31519(2)
O3_2 O 0.86653(12) 0.24323(9) 0.2715(3)
O4_2 O 0.81127(13) 0.15310(9) 0.2675(3)
O7 O 1.7758(2) 0.06408(13) 1.5085(4)
H23 H 1.783(3) 0.0286(10) 1.477(6)
H24 H 1.790(4) 0.0878(17) 1.434(6)
O8 O 1.8088(3) -0.05821(13) 1.4455(4)
H25 H 1.777(3) -0.073(2) 1.358(5)
H26 H 1.820(4) -0.083(2) 1.527(5)
O9 O 1.1331(2) 0.42517(14) 0.5684(4)
H27 H 1.134(4) 0.4013(16) 0.654(5)
H28 H 1.140(4) 0.4614(10) 0.609(6)
O10 O 1.2626(2) 0.57269(13) 0.4837(4)
H29 H 1.239(3) 0.6015(17) 0.416(6)
H30 H 1.297(3) 0.590(2) 0.566(5)
O11 O 1.8647(3) 0.04704(17) 1.8500(5)
H31 H 1.822(3) 0.055(3) 1.903(7)
H32 H 1.839(3) 0.049(3) 1.738(3)
O13 O 0.9380(7) -0.0511(4) 0.2595(13)
loop_
_geom_bond_atom_site_label_1
_geom_bond_atom_site_label_2
_geom_bond_site_symmetry_1
_geom_bond_site_symmetry_2
Cd1 O1 1_555 1_555
C1 C2 1_555 1_555
C2 C3 1_555 1_555
C3 H1 1_555 1_555
C4 C3 1_555 1_555
H2 C4 1_555 1_555
C5 C4 1_555 1_555
H3 C5 1_555 1_555
C6 C5 1_555 1_555
C7 C2 1_555 1_555
H4 C7 1_555 1_555
C8 H5 1_555 1_555
H6 C8 1_555 1_555
C9 C8 1_555 1_555
C10 C9 1_555 1_555
H7 C10 1_555 1_555
C11 C10 1_555 1_555
H8 C11 1_555 1_555
C12 C11 1_555 1_555
C13 C12 1_555 1_555
H9 C13 1_555 1_555
C14 C9 1_555 1_555
H10 C14 1_555 1_555
C15 C12 1_555 1_555
H11 C15 1_555 1_555
H12 C15 1_555 1_555
C16 C17 1_555 1_555
C17 H13 1_555 1_555
C18 C17 1_555 1_555
H14 C18 1_555 1_555
C19 C18 1_555 1_555
H15 C19 1_555 1_555
C20 C19 1_555 1_555
C21 C16 1_555 1_555
H16 C21 1_555 1_555
C22 C20 1_555 1_555
N1 C6 1_555 1_555
H17 N1 1_555 1_555
N2 C15 1_555 1_555
H18 N2 1_555 1_555
O1 C1 1_555 1_555
O2 Cd1 1_555 1_555
O3 C22 1_555 1_555
O4 C22 1_555 1_555
O5 Cd1 1_555 1_555
H19 O5 1_555 1_555
H20 O5 1_555 1_555
O6 Cd1 1_555 1_555
H21 O6 1_555 1_555
H22 O6 1_555 1_555
O7 H23 1_555 1_555
H24 O7 1_555 1_555
O8 H25 1_555 1_555
H26 O8 1_555 1_555
O9 H27 1_555 1_555
H28 O9 1_555 1_555
O10 H29 1_555 1_555
H30 O10 1_555 1_555
O11 H31 1_555 1_555
H32 O11 1_555 1_555
O12 Cd1 1_555 1_555
H33 O12 1_555 1_555
H34 O12 1_555 1_555
Cd1_2 O3 1_555 1_555
O3_2 Cd1 1_555 1_555
O4_2 Cd1 1_555 1_555
C1 O2 1_555 1_555
C6 C7 1_555 1_555
C8 N1 1_555 1_555
C13 C14 1_555 1_555
C16 N2 1_555 1_555
C20 C21 1_555 1_555
O4 Cd1_2 1_555 1_555

#END
