
#######################################################################
#
#                 Cambridge Crystallographic Data Centre
#                                CCDC 
#
#######################################################################
#
# If this CIF has been generated from an entry in the Cambridge 
# Structural Database, then it will include bibliographic, chemical, 
# crystal, experimental, refinement or atomic coordinate data resulting 
# from the CCDC's data processing and validation procedures.
#
#######################################################################

data_EQEHIS
_symmetry_cell_setting           orthorhombic
_symmetry_space_group_name_H-M   'P n a 21'
_symmetry_Int_Tables_number      33
_space_group_name_Hall           'P 2c -2n'
loop_
_symmetry_equiv_pos_site_id
_symmetry_equiv_pos_as_xyz
1 x,y,z
2 -x,-y,1/2+z
3 1/2-x,1/2+y,1/2+z
4 1/2+x,1/2-y,z
_cell_length_a                   31.750(2)
_cell_length_b                   11.196(4)
_cell_length_c                   5.7130(16)
_cell_angle_alpha                90
_cell_angle_beta                 90
_cell_angle_gamma                90
_cell_volume                     2030.82
loop_
_atom_site_label
_atom_site_type_symbol
_atom_site_fract_x
_atom_site_fract_y
_atom_site_fract_z
Zn1 Zn 0.25187(2) 0.23719(6) 0.0088(3)
C1 C 0.1911(2) 0.0907(6) 0.2093(14)
C2 C 0.1570(2) 0.0015(6) 0.1449(11)
C3 C 0.1357(2) 0.0123(6) -0.0626(12)
H1 H 0.1424 0.0738 -0.1656
C4 C 0.1042(2) -0.0681(6) -0.1190(12)
H2 H 0.0891 -0.0591 -0.2575
C5 C 0.09484(18) -0.1632(5) 0.0321(12)
H3 H 0.0740 -0.2179 -0.0078
C6 C 0.11659(18) -0.1758(5) 0.2406(11)
C7 C 0.14765(18) -0.0932(5) 0.2976(12)
H4 H 0.1623 -0.1006 0.4378
C8 C 0.07211(18) -0.3458(5) 0.3916(13)
H5 H 0.0795 -0.4236 0.4544
H6 H 0.0632 -0.3573 0.2308
C9 C 0.03513(16) -0.2965(5) 0.5309(12)
C10 C 0.01942(19) -0.1811(5) 0.4834(14)
H7 H 0.0311 -0.1348 0.3649
C11 C -0.0138(2) -0.1377(6) 0.6167(14)
H8 H -0.0240 -0.0616 0.5850
C12 C -0.03244(18) -0.2036(5) 0.7960(12)
C13 C -0.0164(2) -0.3172(6) 0.8360(13)
H9 H -0.0281 -0.3638 0.9537
C14 C 0.0167(2) -0.3629(6) 0.7052(14)
H10 H 0.0266 -0.4395 0.7361
C15 C -0.06891(17) -0.1528(5) 0.9332(12)
H11 H -0.0601 -0.1424 1.0945
H12 H -0.0755 -0.0744 0.8712
C16 C -0.11582(19) -0.3178(5) 1.0813(12)
C17 C -0.0939(2) -0.3379(6) 1.2930(13)
H13 H -0.0718 -0.2879 1.3353
C18 C -0.1052(2) -0.4312(6) 1.4365(12)
H14 H -0.0907 -0.4418 1.5767
C19 C -0.1372(2) -0.5101(6) 1.3801(12)
H15 H -0.1437 -0.5741 1.4774
C20 C -0.1592(2) -0.4906(6) 1.1732(10)
C21 C -0.14898(17) -0.3964(5) 1.0278(12)
H16 H -0.1644 -0.3846 0.8913
C22 C -0.1954(2) -0.5712(6) 1.0995(13)
N1 N 0.10962(16) -0.2712(5) 0.3921(11)
H17 H 0.122(2) -0.275(6) 0.522(6)
N2 N -0.10695(16) -0.2248(5) 0.9303(11)
H18 H -0.116(2) -0.241(6) 0.792(5)
O1 O 0.19535(15) 0.1781(4) 0.0742(11)
O2 O 0.21207(16) 0.0764(5) 0.3921(10)
O3 O -0.22245(16) -0.5340(5) 0.9633(11)
O4 O 0.2569(3) 0.2740(9) -0.3379(17)
H19 H 0.245(3) 0.345(5) -0.351(6)
H20 H 0.2827(18) 0.274(10) -0.39(3)
O5 O -0.19628(15) -0.6762(5) 1.1840(10)
O6 O 0.2523(2) 0.4063(6) 0.1236(14)
H21 H 0.2296(17) 0.456(6) 0.133(13)
H22 H 0.2737(17) 0.454(6) 0.08(2)
O7 O 0.2486(2) 0.2538(9) 0.326(2)
H23 H 0.265(3) 0.213(6) 0.419(5)
H24 H 0.250(3) 0.323(3) 0.390(5)
Zn1C Zn -0.24813(2) -0.73719(6) 1.0088(3)
O3C O 0.27755(16) 0.0340(5) -0.0367(11)
O5C O 0.30372(15) 0.1762(5) 0.1840(10)
loop_
_geom_bond_atom_site_label_1
_geom_bond_atom_site_label_2
_geom_bond_site_symmetry_1
_geom_bond_site_symmetry_2
Zn1 O1 1_555 1_555
C1 C2 1_555 1_555
C2 C3 1_555 1_555
C3 H1 1_555 1_555
C4 C3 1_555 1_555
H2 C4 1_555 1_555
C5 C4 1_555 1_555
H3 C5 1_555 1_555
C6 C5 1_555 1_555
C7 C2 1_555 1_555
H4 C7 1_555 1_555
C8 H5 1_555 1_555
H6 C8 1_555 1_555
C9 C8 1_555 1_555
C10 C9 1_555 1_555
H7 C10 1_555 1_555
C11 C10 1_555 1_555
H8 C11 1_555 1_555
C12 C11 1_555 1_555
C13 C12 1_555 1_555
H9 C13 1_555 1_555
C14 C9 1_555 1_555
H10 C14 1_555 1_555
C15 C12 1_555 1_555
H11 C15 1_555 1_555
H12 C15 1_555 1_555
C16 C17 1_555 1_555
C17 H13 1_555 1_555
C18 C17 1_555 1_555
H14 C18 1_555 1_555
C19 C18 1_555 1_555
H15 C19 1_555 1_555
C20 C19 1_555 1_555
C21 C16 1_555 1_555
H16 C21 1_555 1_555
C22 C20 1_555 1_555
N1 C6 1_555 1_555
H17 N1 1_555 1_555
N2 C15 1_555 1_555
H18 N2 1_555 1_555
O1 C1 1_555 1_555
O2 C1 1_555 1_555
O3 C22 1_555 1_555
O4 Zn1 1_555 1_555
H19 O4 1_555 1_555
H20 O4 1_555 1_555
O5 C22 1_555 1_555
O6 Zn1 1_555 1_555
H21 O6 1_555 1_555
H22 O6 1_555 1_555
O7 Zn1 1_555 1_555
H23 O7 1_555 1_555
H24 O7 1_555 1_555
Zn1C O3 1_555 1_555
O3C Zn1 1_555 1_555
O5C Zn1 1_555 1_555
C6 C7 1_555 1_555
C8 N1 1_555 1_555
C13 C14 1_555 1_555
C16 N2 1_555 1_555
C20 C21 1_555 1_555
O5 Zn1C 1_555 1_555

#END
