
#######################################################################
#
#                 Cambridge Crystallographic Data Centre
#                                CCDC 
#
#######################################################################
#
# If this CIF has been generated from an entry in the Cambridge 
# Structural Database, then it will include bibliographic, chemical, 
# crystal, experimental, refinement or atomic coordinate data resulting 
# from the CCDC's data processing and validation procedures.
#
#######################################################################

data_EQEHUE
_symmetry_cell_setting           monoclinic
_symmetry_space_group_name_H-M   'P 21/n'
_symmetry_Int_Tables_number      14
_space_group_name_Hall           '-P 2yn'
loop_
_symmetry_equiv_pos_site_id
_symmetry_equiv_pos_as_xyz
1 x,y,z
2 1/2-x,1/2+y,1/2-z
3 -x,-y,-z
4 1/2+x,1/2-y,1/2+z
_cell_length_a                   12.361(4)
_cell_length_b                   11.295(5)
_cell_length_c                   15.751(6)
_cell_angle_alpha                90
_cell_angle_beta                 103.848(12)
_cell_angle_gamma                90
_cell_volume                     2135.2
loop_
_atom_site_label
_atom_site_type_symbol
_atom_site_fract_x
_atom_site_fract_y
_atom_site_fract_z
Ag1 Ag 0.38835(2) 0.28551(3) 0.48812(2)
C1 C 0.8927(4) 0.3641(5) 0.4862(5)
H1 H 0.9493 0.3888 0.4565
H2 H 0.9277 0.3630 0.5482
C2 C 0.8054(3) 0.4586(4) 0.4714(3)
H3 H 0.8384 0.5321 0.4972
H4 H 0.7777 0.4714 0.4091
C3 C 0.7106(3) 0.4295(4) 0.5953(3)
H5 H 0.7672 0.4569 0.6412
C4 C 0.6114(3) 0.3849(4) 0.6016(2)
H6 H 0.5878 0.3768 0.6531
C5 C 0.6153(3) 0.3803(4) 0.4677(2)
H7 H 0.5950 0.3679 0.4076
N1 N 0.5518(2) 0.3538(3) 0.52097(19)
N2 N 0.7120(2) 0.4269(3) 0.5097(2)
O3 O 0.3723(3) 0.3169(3) 0.6556(2)
H16 H 0.366(4) 0.375(2) 0.689(3)
H17 H 0.332(3) 0.261(3) 0.666(3)
N4 N 1.0484(2) 0.1861(3) 0.4428(2)
C17 C 0.9511(3) 0.1538(4) 0.4761(3)
H18 H 0.9752 0.1379 0.5383
H19 H 0.9186 0.0817 0.4476
C18 C 0.8643(4) 0.2487(5) 0.4612(5)
H20 H 0.8296 0.2498 0.3990
H21 H 0.8074 0.2242 0.4906
C19 C 1.1523(3) 0.2026(3) 0.4898(3)
H22 H 1.1746 0.1923 0.5501
C20 C 1.1547(3) 0.2406(4) 0.3576(3)
H23 H 1.1794 0.2615 0.3083
C21 C 1.0492(3) 0.2108(4) 0.3581(3)
H24 H 0.9885 0.2078 0.3100
N5 N 1.2193(2) 0.2353(3) 0.4409(2)
Ag1_2 Ag 1.38835(2) 0.28551(3) 0.48812(2)
N5_2 N 0.2193(2) 0.2353(3) 0.4409(2)
C6 C 0.3978(3) -0.0270(4) 0.4487(3)
H8 H 0.3276 -0.0454 0.4143
C7 C 0.4112(3) -0.0093(4) 0.5375(3)
H9 H 0.3500 -0.0159 0.5619
C8 C 0.4866(3) -0.0177(3) 0.4100(2)
C9 C 0.4715(3) -0.0418(3) 0.3132(2)
H10 H 0.4908 -0.1238 0.3059
H11 H 0.3933 -0.0320 0.2846
C10 C 0.5206(3) 0.1532(3) 0.2620(2)
C11 C 0.4225(3) 0.2076(3) 0.2711(2)
H12 H 0.3670 0.1627 0.2864
C12 C 0.4078(3) 0.3280(3) 0.2574(3)
H13 H 0.3413 0.3627 0.2623
C13 C 0.4890(3) 0.3979(3) 0.2367(2)
H14 H 0.4771 0.4785 0.2267
C14 C 0.5896(3) 0.3460(3) 0.2309(2)
C15 C 0.6035(3) 0.2254(3) 0.2419(2)
H15 H 0.6696 0.1910 0.2358
C16 C 0.6839(3) 0.4228(3) 0.2153(2)
N3 N 0.5365(3) 0.0326(3) 0.2690(2)
O1 O 0.7626(2) 0.3756(3) 0.1940(2)
O2 O 0.6766(3) 0.5311(3) 0.2247(3)
H25 H 0.6044(18) 0.011(4) 0.279(3)
C6B C 0.6022(3) 0.0270(4) 0.5513(3)
H8B H 0.6724 0.0454 0.5857
C7B C 0.5888(3) 0.0093(4) 0.4625(3)
H9B H 0.6500 0.0159 0.4381
C8B C 0.5134(3) 0.0177(3) 0.5900(2)
C9B C 0.5285(3) 0.0418(3) 0.6868(2)
H10B H 0.5092 0.1238 0.6941
H11B H 0.6067 0.0320 0.7154
C10B C 0.4794(3) -0.1532(3) 0.7380(2)
C11B C 0.5775(3) -0.2076(3) 0.7289(2)
H12B H 0.6330 -0.1627 0.7136
C12B C 0.5922(3) -0.3280(3) 0.7426(3)
H13B H 0.6587 -0.3627 0.7377
C13B C 0.5110(3) -0.3979(3) 0.7633(2)
H14B H 0.5229 -0.4785 0.7733
C14B C 0.4104(3) -0.3460(3) 0.7691(2)
C15B C 0.3965(3) -0.2254(3) 0.7581(2)
H15B H 0.3304 -0.1910 0.7642
C16B C 0.3161(3) -0.4228(3) 0.7847(2)
N3B N 0.4635(3) -0.0326(3) 0.7310(2)
O1B O 0.2374(2) -0.3756(3) 0.8060(2)
O2B O 0.3234(3) -0.5311(3) 0.7753(3)
H25B H 0.3956(18) -0.011(4) 0.721(3)
loop_
_geom_bond_atom_site_label_1
_geom_bond_atom_site_label_2
_geom_bond_site_symmetry_1
_geom_bond_site_symmetry_2
Ag1 N1 1_555 1_555
C1 H1 1_555 1_555
H2 C1 1_555 1_555
C2 C1 1_555 1_555
H3 C2 1_555 1_555
H4 C2 1_555 1_555
C3 H5 1_555 1_555
C4 C3 1_555 1_555
H6 C4 1_555 1_555
C5 H7 1_555 1_555
C6 H8 1_555 1_555
C7 C6 1_555 1_555
H9 C7 1_555 1_555
C8 C6 1_555 1_555
C9 C8 1_555 1_555
H10 C9 1_555 1_555
H11 C9 1_555 1_555
C10 C11 1_555 1_555
C11 H12 1_555 1_555
C12 C11 1_555 1_555
H13 C12 1_555 1_555
C13 C12 1_555 1_555
H14 C13 1_555 1_555
C14 C13 1_555 1_555
C15 C10 1_555 1_555
H15 C15 1_555 1_555
C16 C14 1_555 1_555
N1 C4 1_555 1_555
N2 C2 1_555 1_555
N3 C9 1_555 1_555
O1 C16 1_555 1_555
O2 C16 1_555 1_555
O3 Ag1 1_555 1_555
H16 O3 1_555 1_555
H17 O3 1_555 1_555
N4 C17 1_555 1_555
C17 H18 1_555 1_555
H19 C17 1_555 1_555
C18 C1 1_555 1_555
H20 C18 1_555 1_555
H21 C18 1_555 1_555
C19 N4 1_555 1_555
H22 C19 1_555 1_555
C20 H23 1_555 1_555
C21 N4 1_555 1_555
H24 C21 1_555 1_555
N5 C19 1_555 1_555
H25 N3 1_555 1_555
Ag1_2 N5 1_555 1_555
C6B H8B 1_555 1_555
C7B C8 1_555 1_555
H9B C7B 1_555 1_555
C8B C7 1_555 1_555
C9B C8B 1_555 1_555
H10B C9B 1_555 1_555
H11B C9B 1_555 1_555
C10B C11B 1_555 1_555
C11B H12B 1_555 1_555
C12B C11B 1_555 1_555
H13B C12B 1_555 1_555
C13B C12B 1_555 1_555
H14B C13B 1_555 1_555
C14B C13B 1_555 1_555
C15B C10B 1_555 1_555
H15B C15B 1_555 1_555
C16B C14B 1_555 1_555
N3B C9B 1_555 1_555
O1B C16B 1_555 1_555
O2B C16B 1_555 1_555
N5_2 Ag1 1_555 1_555
H25B N3B 1_555 1_555
C3 N2 1_555 1_555
C5 N1 1_555 1_555
C5 N2 1_555 1_555
C10 N3 1_555 1_555
C14 C15 1_555 1_555
C17 C18 1_555 1_555
C20 C21 1_555 1_555
C20 N5 1_555 1_555
C6B C7B 1_555 1_555
C6B C8B 1_555 1_555
C10B N3B 1_555 1_555
C14B C15B 1_555 1_555

#END
