
#######################################################################
#
#                 Cambridge Crystallographic Data Centre
#                                CCDC 
#
#######################################################################
#
# If this CIF has been generated from an entry in the Cambridge 
# Structural Database, then it will include bibliographic, chemical, 
# crystal, experimental, refinement or atomic coordinate data resulting 
# from the CCDC's data processing and validation procedures.
#
#######################################################################

data_EQEJEQ
_symmetry_cell_setting           triclinic
_symmetry_space_group_name_H-M   'P -1'
_symmetry_Int_Tables_number      2
_space_group_name_Hall           '-P 1'
loop_
_symmetry_equiv_pos_site_id
_symmetry_equiv_pos_as_xyz
1 x,y,z
2 -x,-y,-z
_cell_length_a                   8.8050(8)
_cell_length_b                   11.3100(11)
_cell_length_c                   13.7070(13)
_cell_angle_alpha                75.317(8)
_cell_angle_beta                 81.625(8)
_cell_angle_gamma                68.513(9)
_cell_volume                     1226.54
loop_
_atom_site_label
_atom_site_type_symbol
_atom_site_fract_x
_atom_site_fract_y
_atom_site_fract_z
Zn1 Zn 0.80219(3) 0.06237(3) 0.433342(19)
O1 O 0.9093(2) -0.08140(17) 0.35516(14)
O2 O 0.6488(2) -0.04628(17) 0.38920(14)
C1 C 0.7822(3) -0.1063(2) 0.34988(16)
N1 N 1.0957(3) -0.4232(2) 0.14202(17)
H1 H 1.105(4) -0.492(3) 0.133(2)
C2 C 0.9386(3) -0.2688(2) 0.24533(16)
H2 H 1.0286 -0.2445 0.2456
C3 C 0.9527(3) -0.3656(2) 0.19505(16)
C4 C 0.6567(3) -0.2428(2) 0.29547(18)
H3 H 0.5589 -0.2026 0.3291
C5 C 0.8143(3) -0.3992(2) 0.19570(19)
H4 H 0.8203 -0.4632 0.1625
C6 C 0.7929(3) -0.2085(2) 0.29474(16)
C7 C 0.6695(3) -0.3384(2) 0.2450(2)
H5 H 0.5788 -0.3618 0.2444
C8 C 1.2413(3) -0.3942(3) 0.1446(2)
H6 H 1.2806 -0.4282 0.2122
H7 H 1.2148 -0.3006 0.1292
C9 C 1.5219(3) -0.5451(3) 0.10177(19)
H10 H 1.5378 -0.5764 0.1705
C10 C 1.3745(3) -0.4520(2) 0.07049(18)
C11 C 1.3542(3) -0.4076(3) -0.0328(2)
H11 H 1.2558 -0.3453 -0.0555
N2 N 0.6081(2) 0.22631(17) 0.41321(14)
C12 C 0.6005(3) 0.3533(2) 0.40085(18)
H12 H 0.6900 0.3807 0.3921
C13 C 0.4550(2) 0.2304(2) 0.42259(17)
H13 H 0.4236 0.1581 0.4314
C14 C 0.4427(3) 0.4311(2) 0.40346(19)
H14 H 0.4034 0.5209 0.3969
N3 N 0.3511(2) 0.35200(17) 0.41776(14)
C15 C 0.1717(3) 0.3907(2) 0.42516(18)
H15 H 0.1415 0.3138 0.4514
H16 H 0.1311 0.4298 0.3582
C16 C 0.0920(2) 0.4865(2) 0.49304(17)
H17 H 0.1123 0.5672 0.4634
H18 H 0.1395 0.4512 0.5583
O4 O 0.78278(18) -0.01016(16) 0.57908(11)
O5 O 1.03280(17) -0.15144(15) 0.61069(12)
C17 C 0.8217(2) -0.1519(2) 0.73931(15)
C18 C 0.8843(2) -0.10125(19) 0.63568(15)
C19 C 0.9291(3) -0.2440(2) 0.80985(17)
H19 H 1.0398 -0.2796 0.7920
C20 C 0.6565(3) -0.1009(2) 0.76620(16)
H20 H 0.5859 -0.0405 0.7183
C21 C 0.5944(3) -0.1387(2) 0.86423(16)
C22 C 0.7030(3) -0.2302(2) 0.93466(17)
H21 H 0.6645 -0.2567 1.0004
C23 C 0.8676(3) -0.2815(2) 0.90691(18)
H22 H 0.9384 -0.3423 0.9545
N4 N 0.4284(2) -0.0856(2) 0.88699(16)
H23 H 0.382(4) -0.016(3) 0.848(2)
C24 C 0.1719(3) -0.0471(2) 0.99213(16)
C25 C 0.3571(3) -0.1017(2) 0.98867(17)
H24 H 0.3924 -0.1936 1.0206
H25 H 0.3962 -0.0582 1.0268
C26 C 0.0868(3) -0.0051(2) 1.07765(17)
H26 H 0.1443 -0.0086 1.1307
C27 C 0.0827(3) -0.0419(2) 0.91482(17)
H27 H 0.1372 -0.0703 0.8571
Zn1A Zn 2.19781(3) -1.06237(3) -0.433342(19)
Zn1A_2 Zn 1.19781(3) -0.06237(3) 0.566658(19)
Zn1A_3 Zn -0.80219(3) 0.93763(3) 0.566658(19)
Zn1A_4 Zn -0.80219(3) -0.06237(3) 1.566658(19)
Zn1_2 Zn -1.19781(3) 0.06237(3) 1.433342(19)
O1A O 2.0907(2) -0.91860(17) -0.35516(14)
O1A_2 O -0.9093(2) 1.08140(17) 0.64484(14)
O2A O 2.3512(2) -0.95372(17) -0.38920(14)
O2A_2 O -0.6488(2) 1.04628(17) 0.61080(14)
C1A C 2.2178(3) -0.8937(2) -0.34988(16)
C1A_2 C -0.7822(3) 1.1063(2) 0.65012(16)
N1A N 1.9043(3) -0.5768(2) -0.14202(17)
H1A H 1.895(4) -0.508(3) -0.133(2)
C2A C 2.0614(3) -0.7312(2) -0.24533(16)
H2A H 1.9714 -0.7555 -0.2456
C3A C 2.0473(3) -0.6344(2) -0.19505(16)
C4A C 2.3433(3) -0.7572(2) -0.29547(18)
H3A H 2.4411 -0.7974 -0.3291
C5A C 2.1857(3) -0.6008(2) -0.19570(19)
H4A H 2.1797 -0.5368 -0.1625
C6A C 2.2071(3) -0.7915(2) -0.29474(16)
C7A C 2.3305(3) -0.6616(2) -0.2450(2)
H5A H 2.4212 -0.6382 -0.2444
C8A C 1.7587(3) -0.6058(3) -0.1446(2)
H6A H 1.7194 -0.5718 -0.2122
H7A H 1.7852 -0.6994 -0.1292
C9A C 1.4781(3) -0.4549(3) -0.10177(19)
H10A H 1.4622 -0.4236 -0.1705
C10A C 1.6255(3) -0.5480(2) -0.07049(18)
C11A C 1.6458(3) -0.5924(3) 0.0328(2)
H11A H 1.7442 -0.6547 0.0555
N2A N -0.6081(2) 0.77369(17) 0.58679(14)
C12A C -0.6005(3) 0.6467(2) 0.59915(18)
H12A H -0.6900 0.6193 0.6079
C13A C -0.4550(2) 0.7696(2) 0.57741(17)
H13A H -0.4236 0.8419 0.5686
C14A C -0.4427(3) 0.5689(2) 0.59654(19)
H14A H -0.4034 0.4791 0.6031
N3A N -0.3511(2) 0.64800(17) 0.58224(14)
C15A C -0.1717(3) 0.6093(2) 0.57484(18)
H15A H -0.1415 0.6862 0.5486
H16A H -0.1311 0.5702 0.6418
C16A C -0.0920(2) 0.5135(2) 0.50696(17)
H17A H -0.1123 0.4328 0.5366
H18A H -0.1395 0.5488 0.4417
O4A O -0.78278(18) 0.01016(16) 1.42092(11)
O4A_2 O -0.78278(18) 1.01016(16) 0.42092(11)
O5A O -1.03280(17) 0.15144(15) 1.38931(12)
O5A_2 O 0.96720(17) 0.15144(15) 0.38931(12)
O5_2 O -0.96720(17) 0.84856(15) 0.61069(12)
C17A C -0.8217(2) 0.1519(2) 1.26069(15)
C18A C -0.8843(2) 0.10125(19) 1.36432(15)
C19A C -0.9291(3) 0.2440(2) 1.19015(17)
H19A H -1.0398 0.2796 1.2080
C20A C -0.6565(3) 0.1009(2) 1.23380(16)
H20A H -0.5859 0.0405 1.2817
C21A C -0.5944(3) 0.1387(2) 1.13577(16)
C22A C -0.7030(3) 0.2302(2) 1.06534(17)
H21A H -0.6645 0.2567 0.9996
C23A C -0.8676(3) 0.2815(2) 1.09309(18)
H22A H -0.9384 0.3423 1.0455
N4A N -0.4284(2) 0.0856(2) 1.11301(16)
H23A H -0.382(4) 0.016(3) 1.152(2)
C24A C -0.1719(3) 0.0471(2) 1.00787(16)
C25A C -0.3571(3) 0.1017(2) 1.01133(17)
H24A H -0.3924 0.1936 0.9794
H25A H -0.3962 0.0582 0.9732
C26A C -0.0868(3) 0.0051(2) 0.92235(17)
H26A H -0.1443 0.0086 0.8693
C27A C -0.0827(3) 0.0419(2) 1.08518(17)
H27A H -0.1372 0.0703 1.1429
O3 O 0.2494(3) 0.7605(2) 0.3526(2)
H8 H 0.142(2) 0.804(3) 0.357(2)
H9 H 0.291(3) 0.814(3) 0.364(2)
loop_
_geom_bond_atom_site_label_1
_geom_bond_atom_site_label_2
_geom_bond_site_symmetry_1
_geom_bond_site_symmetry_2
Zn1 O1 1_555 1_555
O1 C1 1_555 1_555
O2 Zn1 1_555 1_555
C1 O2 1_555 1_555
N1 H1 1_555 1_555
C2 H2 1_555 1_555
C3 N1 1_555 1_555
C4 H3 1_555 1_555
C5 C3 1_555 1_555
H4 C5 1_555 1_555
C6 C1 1_555 1_555
C7 C4 1_555 1_555
H5 C7 1_555 1_555
C8 N1 1_555 1_555
H6 C8 1_555 1_555
H7 C8 1_555 1_555
O3 H8 1_555 1_555
H9 O3 1_555 1_555
C9 H10 1_555 1_555
C10 C8 1_555 1_555
C11 C10 1_555 1_555
H11 C11 1_555 1_555
N2 Zn1 1_555 1_555
C12 N2 1_555 1_555
H12 C12 1_555 1_555
C13 N2 1_555 1_555
H13 C13 1_555 1_555
C14 C12 1_555 1_555
H14 C14 1_555 1_555
N3 C13 1_555 1_555
C15 N3 1_555 1_555
H15 C15 1_555 1_555
H16 C15 1_555 1_555
C16 C15 1_555 1_555
H17 C16 1_555 1_555
H18 C16 1_555 1_555
O4 Zn1 1_555 1_555
O5 C18 1_555 1_555
C17 C18 1_555 1_555
C18 O4 1_555 1_555
C19 C17 1_555 1_555
H19 C19 1_555 1_555
C20 C17 1_555 1_555
H20 C20 1_555 1_555
C21 C20 1_555 1_555
C22 C21 1_555 1_555
H21 C22 1_555 1_555
C23 C19 1_555 1_555
H22 C23 1_555 1_555
N4 C21 1_555 1_555
H23 N4 1_555 1_555
C24 C25 1_555 1_555
C25 N4 1_555 1_555
H24 C25 1_555 1_555
H25 C25 1_555 1_555
C26 C24 1_555 1_555
H26 C26 1_555 1_555
C27 C24 1_555 1_555
H27 C27 1_555 1_555
Zn1A O1A 1_555 1_555
Zn1A_2 O5 1_555 1_555
Zn1A_3 O1A_2 1_555 1_555
Zn1A_4 O4A 1_555 1_555
Zn1_2 O5A 1_555 1_555
O1A C1A 1_555 1_555
O1A_2 C1A_2 1_555 1_555
O2A Zn1A 1_555 1_555
O2A_2 Zn1A_3 1_555 1_555
C1A O2A 1_555 1_555
C1A_2 O2A_2 1_555 1_555
N1A H1A 1_555 1_555
C2A H2A 1_555 1_555
C3A N1A 1_555 1_555
C4A H3A 1_555 1_555
C5A C3A 1_555 1_555
H4A C5A 1_555 1_555
C6A C1A 1_555 1_555
C7A C4A 1_555 1_555
H5A C7A 1_555 1_555
C8A N1A 1_555 1_555
H6A C8A 1_555 1_555
H7A C8A 1_555 1_555
C9A C11 1_555 1_555
H10A C9A 1_555 1_555
C10A C8A 1_555 1_555
C11A C9 1_555 1_555
H11A C11A 1_555 1_555
N2A Zn1A_3 1_555 1_555
C12A N2A 1_555 1_555
H12A C12A 1_555 1_555
C13A N2A 1_555 1_555
H13A C13A 1_555 1_555
C14A C12A 1_555 1_555
H14A C14A 1_555 1_555
N3A C13A 1_555 1_555
C15A N3A 1_555 1_555
H15A C15A 1_555 1_555
H16A C15A 1_555 1_555
C16A C16 1_555 1_555
H17A C16A 1_555 1_555
H18A C16A 1_555 1_555
O4A C18A 1_555 1_555
O4A_2 Zn1A_3 1_555 1_555
O5A C18A 1_555 1_555
O5A_2 Zn1 1_555 1_555
O5_2 Zn1A_3 1_555 1_555
C17A C18A 1_555 1_555
C19A C17A 1_555 1_555
H19A C19A 1_555 1_555
C20A C17A 1_555 1_555
H20A C20A 1_555 1_555
C21A C20A 1_555 1_555
C22A C21A 1_555 1_555
H21A C22A 1_555 1_555
C23A C19A 1_555 1_555
H22A C23A 1_555 1_555
N4A C21A 1_555 1_555
H23A N4A 1_555 1_555
C24A C25A 1_555 1_555
C25A N4A 1_555 1_555
H24A C25A 1_555 1_555
H25A C25A 1_555 1_555
C26A C27 1_555 1_555
H26A C26A 1_555 1_555
C27A C26 1_555 1_555
H27A C27A 1_555 1_555
C2 C3 1_555 1_555
C2 C6 1_555 1_555
C4 C6 1_555 1_555
C5 C7 1_555 1_555
C9 C10 1_555 1_555
C14 N3 1_555 1_555
C22 C23 1_555 1_555
C2A C3A 1_555 1_555
C2A C6A 1_555 1_555
C4A C6A 1_555 1_555
C5A C7A 1_555 1_555
C9A C10A 1_555 1_555
C10A C11A 1_555 1_555
C14A N3A 1_555 1_555
C15A C16A 1_555 1_555
C22A C23A 1_555 1_555
C24A C26A 1_555 1_555
C24A C27A 1_555 1_555

#END
