
#######################################################################
#
#                 Cambridge Crystallographic Data Centre
#                                CCDC 
#
#######################################################################
#
# If this CIF has been generated from an entry in the Cambridge 
# Structural Database, then it will include bibliographic, chemical, 
# crystal, experimental, refinement or atomic coordinate data resulting 
# from the CCDC's data processing and validation procedures.
#
#######################################################################

data_EQEJIU
_symmetry_cell_setting           triclinic
_symmetry_space_group_name_H-M   'P -1'
_symmetry_Int_Tables_number      2
_space_group_name_Hall           '-P 1'
loop_
_symmetry_equiv_pos_site_id
_symmetry_equiv_pos_as_xyz
1 x,y,z
2 -x,-y,-z
_cell_length_a                   8.5230(5)
_cell_length_b                   10.6230(7)
_cell_length_c                   14.4820(7)
_cell_angle_alpha                82.260(5)
_cell_angle_beta                 77.684(5)
_cell_angle_gamma                85.761(5)
_cell_volume                     1267.97
loop_
_atom_site_label
_atom_site_type_symbol
_atom_site_fract_x
_atom_site_fract_y
_atom_site_fract_z
Cd1 Cd 0.22452(3) 0.08776(3) 0.44629(2)
C1 C -0.1004(4) 0.0673(3) 0.3693(2)
C2 C -0.1014(4) 0.1608(3) 0.2820(2)
C3 C 0.0294(4) 0.1708(3) 0.2058(2)
H1 H 0.1225 0.1199 0.2077
C4 C 0.0179(4) 0.2581(4) 0.1271(2)
H2 H 0.1036 0.2642 0.0750
C5 C -0.1176(4) 0.3359(3) 0.1246(2)
H3 H -0.1220 0.3945 0.0712
C6 C -0.2487(4) 0.3280(3) 0.2011(3)
C7 C -0.2342(4) 0.2396(3) 0.2785(2)
H4 H -0.3194 0.2336 0.3309
C8 C -0.4160(5) 0.4931(4) 0.1251(3)
H5 H -0.3308 0.5528 0.1059
H6 H -0.4159 0.4463 0.0721
C9 C -0.5764(5) 0.5647(4) 0.1507(3)
C10 C -0.5876(5) 0.6808(4) 0.1865(3)
H7 H -0.4955 0.7155 0.1952
C11 C -0.7356(6) 0.7451(4) 0.2091(3)
H8 H -0.7413 0.8228 0.2328
C12 C -0.8728(5) 0.6968(4) 0.1974(2)
C13 C -0.8619(5) 0.5807(4) 0.1642(3)
H9 H -0.9548 0.5453 0.1574
C14 C -0.7147(6) 0.5151(4) 0.1405(3)
H10 H -0.7099 0.4370 0.1175
C15 C -1.0325(5) 0.7696(4) 0.2154(2)
H11 H -1.0261 0.8386 0.2518
H12 H -1.1142 0.7137 0.2524
C16 C -1.2012(4) 0.9113(3) 0.1219(2)
C17 C -1.2193(4) 0.9803(4) 0.0356(2)
H13 H -1.1473 0.9639 -0.0199
C18 C -1.3398(4) 1.0712(4) 0.0305(3)
H14 H -1.3482 1.1163 -0.0281
C19 C -1.4495(4) 1.0966(3) 0.1115(2)
H15 H -1.5309 1.1593 0.1078
C20 C -1.4374(4) 1.0284(3) 0.1982(2)
C21 C -1.3167(4) 0.9354(3) 0.2031(2)
H16 H -1.3118 0.8878 0.2613
C22 C -1.5568(4) 1.0539(4) 0.2872(2)
C23 C -0.0719(4) 0.2741(3) 0.5161(3)
H17 H -0.1096 0.2155 0.5684
C24 C 0.0753(4) 0.3655(3) 0.3907(3)
H18 H 0.1607 0.3824 0.3394
C25 C -0.0596(5) 0.4393(4) 0.4090(3)
H19 H -0.0847 0.5151 0.3738
C26 C -0.3147(4) 0.4194(4) 0.5393(3)
H20 H -0.3054 0.4762 0.5847
H21 H -0.3679 0.3447 0.5746
C27 C -0.4157(4) 0.4841(3) 0.4735(3)
H22 H -0.4210 0.4294 0.4259
H23 H -0.3665 0.5617 0.4409
N1 N -0.3872(4) 0.4061(3) 0.2058(2)
H24 H -0.462(3) 0.371(3) 0.235(3)
N2 N -1.0773(4) 0.8207(3) 0.1261(2)
H25 H -1.008(3) 0.826(4) 0.0800(19)
N3 N -0.1531(3) 0.3806(3) 0.4903(2)
N4 N 0.0690(3) 0.2628(3) 0.4577(2)
O1 O 0.0271(3) 0.0037(2) 0.37928(15)
O2 O -0.2317(3) 0.0543(2) 0.42924(16)
O3 O 0.4495(3) 0.1645(2) 0.49961(18)
H26 H 0.453(4) 0.138(4) 0.5560(13)
H27 H 0.543(3) 0.147(4) 0.465(2)
O4 O -1.5830(3) 0.9643(2) 0.35500(16)
O5 O -1.6261(3) 1.1617(2) 0.29151(16)
Cd1A Cd -1.22452(3) 0.91224(3) 0.55371(2)
Cd1A_2 Cd -0.22452(3) -0.08776(3) 0.55371(2)
Cd1_2 Cd -1.77548(3) 1.08776(3) 0.44629(2)
Cd1A_3 Cd 1.77548(3) -1.08776(3) 0.55371(2)
C1A C 0.1004(4) -0.0673(3) 0.6307(2)
C2A C 0.1014(4) -0.1608(3) 0.7180(2)
C3A C -0.0294(4) -0.1708(3) 0.7942(2)
H1A H -0.1225 -0.1199 0.7923
C4A C -0.0179(4) -0.2581(4) 0.8729(2)
H2A H -0.1036 -0.2642 0.9250
C5A C 0.1176(4) -0.3359(3) 0.8754(2)
H3A H 0.1220 -0.3945 0.9288
C6A C 0.2487(4) -0.3280(3) 0.7989(3)
C7A C 0.2342(4) -0.2396(3) 0.7215(2)
H4A H 0.3194 -0.2336 0.6691
C8A C 0.4160(5) -0.4931(4) 0.8749(3)
H5A H 0.3308 -0.5528 0.8941
H6A H 0.4159 -0.4463 0.9279
C9A C 0.5764(5) -0.5647(4) 0.8493(3)
C10A C 0.5876(5) -0.6808(4) 0.8135(3)
H7A H 0.4955 -0.7155 0.8048
C11A C 0.7356(6) -0.7451(4) 0.7909(3)
H8A H 0.7413 -0.8228 0.7672
C12A C 0.8728(5) -0.6968(4) 0.8026(2)
C13A C 0.8619(5) -0.5807(4) 0.8358(3)
H9A H 0.9548 -0.5453 0.8426
C14A C 0.7147(6) -0.5151(4) 0.8595(3)
H10A H 0.7099 -0.4370 0.8825
C15A C 1.0325(5) -0.7696(4) 0.7846(2)
H11A H 1.0261 -0.8386 0.7482
H12A H 1.1142 -0.7137 0.7476
C16A C 1.2012(4) -0.9113(3) 0.8781(2)
C17A C 1.2193(4) -0.9803(4) 0.9644(2)
H13A H 1.1473 -0.9639 1.0199
C18A C 1.3398(4) -1.0712(4) 0.9695(3)
H14A H 1.3482 -1.1163 1.0281
C19A C 1.4495(4) -1.0966(3) 0.8885(2)
H15A H 1.5309 -1.1593 0.8922
C20A C 1.4374(4) -1.0284(3) 0.8018(2)
C21A C 1.3167(4) -0.9354(3) 0.7969(2)
H16A H 1.3118 -0.8878 0.7387
C22A C 1.5568(4) -1.0539(4) 0.7128(2)
C23A C -0.9281(4) 0.7259(3) 0.4839(3)
H17A H -0.8904 0.7845 0.4316
C24A C -1.0753(4) 0.6345(3) 0.6093(3)
H18A H -1.1607 0.6176 0.6606
C25A C -0.9404(5) 0.5607(4) 0.5910(3)
H19A H -0.9153 0.4849 0.6262
C26A C -0.6853(4) 0.5806(4) 0.4607(3)
H20A H -0.6946 0.5238 0.4153
H21A H -0.6321 0.6553 0.4254
C27A C -0.5843(4) 0.5159(3) 0.5265(3)
H22A H -0.5790 0.5706 0.5741
H23A H -0.6335 0.4383 0.5591
N1A N 0.3872(4) -0.4061(3) 0.7942(2)
H24A H 0.462(3) -0.371(3) 0.765(3)
N2A N 1.0773(4) -0.8207(3) 0.8739(2)
H25A H 1.008(3) -0.826(4) 0.9200(19)
N3A N -0.8469(3) 0.6194(3) 0.5097(2)
N4A N -1.0690(3) 0.7372(3) 0.5423(2)
O1A O -0.0271(3) -0.0037(2) 0.62072(15)
O1A_2 O -1.0271(3) 0.9963(2) 0.62072(15)
O2A O 0.2317(3) -0.0543(2) 0.57076(16)
O2_2 O -1.2317(3) 1.0543(2) 0.42924(16)
O3A O -1.4495(3) 0.8355(2) 0.50039(18)
H26A H -1.453(4) 0.862(4) 0.4440(13)
H27A H -1.543(3) 0.853(4) 0.535(2)
O4A O 1.5830(3) -0.9643(2) 0.64500(16)
O4_2 O 0.4170(3) -0.0357(2) 0.35500(16)
O4A_2 O -1.4170(3) 1.0357(2) 0.64500(16)
O5A O 1.6261(3) -1.1617(2) 0.70849(16)
O5_2 O 0.3739(3) 0.1617(2) 0.29151(16)
O5A_2 O -1.3739(3) 0.8383(2) 0.70849(16)
loop_
_geom_bond_atom_site_label_1
_geom_bond_atom_site_label_2
_geom_bond_site_symmetry_1
_geom_bond_site_symmetry_2
Cd1 N4 1_555 1_555
C1 C2 1_555 1_555
C2 C3 1_555 1_555
C3 H1 1_555 1_555
C4 C3 1_555 1_555
H2 C4 1_555 1_555
C5 C4 1_555 1_555
H3 C5 1_555 1_555
C6 C5 1_555 1_555
C7 C2 1_555 1_555
H4 C7 1_555 1_555
C8 H5 1_555 1_555
H6 C8 1_555 1_555
C9 C8 1_555 1_555
C10 C9 1_555 1_555
H7 C10 1_555 1_555
C11 C10 1_555 1_555
H8 C11 1_555 1_555
C12 C11 1_555 1_555
C13 C12 1_555 1_555
H9 C13 1_555 1_555
C14 C9 1_555 1_555
H10 C14 1_555 1_555
C15 C12 1_555 1_555
H11 C15 1_555 1_555
H12 C15 1_555 1_555
C16 C17 1_555 1_555
C17 H13 1_555 1_555
C18 C17 1_555 1_555
H14 C18 1_555 1_555
C19 C18 1_555 1_555
H15 C19 1_555 1_555
C20 C19 1_555 1_555
C21 C16 1_555 1_555
H16 C21 1_555 1_555
C22 C20 1_555 1_555
C23 H17 1_555 1_555
C24 H18 1_555 1_555
C25 C24 1_555 1_555
H19 C25 1_555 1_555
C26 H20 1_555 1_555
H21 C26 1_555 1_555
C27 C26 1_555 1_555
H22 C27 1_555 1_555
H23 C27 1_555 1_555
N1 C6 1_555 1_555
H24 N1 1_555 1_555
N2 C15 1_555 1_555
H25 N2 1_555 1_555
N3 C23 1_555 1_555
N4 C23 1_555 1_555
O1 Cd1 1_555 1_555
O2 C1 1_555 1_555
O3 Cd1 1_555 1_555
H26 O3 1_555 1_555
H27 O3 1_555 1_555
O4 C22 1_555 1_555
O5 C22 1_555 1_555
Cd1A N4A 1_555 1_555
Cd1A_2 O2 1_555 1_555
Cd1_2 O4 1_555 1_555
Cd1A_3 O4A 1_555 1_555
C1A C2A 1_555 1_555
C2A C3A 1_555 1_555
C3A H1A 1_555 1_555
C4A C3A 1_555 1_555
H2A C4A 1_555 1_555
C5A C4A 1_555 1_555
H3A C5A 1_555 1_555
C6A C5A 1_555 1_555
C7A C2A 1_555 1_555
H4A C7A 1_555 1_555
C8A H5A 1_555 1_555
H6A C8A 1_555 1_555
C9A C8A 1_555 1_555
C10A C9A 1_555 1_555
H7A C10A 1_555 1_555
C11A C10A 1_555 1_555
H8A C11A 1_555 1_555
C12A C11A 1_555 1_555
C13A C12A 1_555 1_555
H9A C13A 1_555 1_555
C14A C9A 1_555 1_555
H10A C14A 1_555 1_555
C15A C12A 1_555 1_555
H11A C15A 1_555 1_555
H12A C15A 1_555 1_555
C16A C17A 1_555 1_555
C17A H13A 1_555 1_555
C18A C17A 1_555 1_555
H14A C18A 1_555 1_555
C19A C18A 1_555 1_555
H15A C19A 1_555 1_555
C20A C19A 1_555 1_555
C21A C16A 1_555 1_555
H16A C21A 1_555 1_555
C22A C20A 1_555 1_555
C23A H17A 1_555 1_555
C24A H18A 1_555 1_555
C25A C24A 1_555 1_555
H19A C25A 1_555 1_555
C26A H20A 1_555 1_555
H21A C26A 1_555 1_555
C27A C27 1_555 1_555
H22A C27A 1_555 1_555
H23A C27A 1_555 1_555
N1A C6A 1_555 1_555
H24A N1A 1_555 1_555
N2A C15A 1_555 1_555
H25A N2A 1_555 1_555
N3A C23A 1_555 1_555
N4A C23A 1_555 1_555
O1A Cd1A_2 1_555 1_555
O1A_2 Cd1A 1_555 1_555
O2A Cd1 1_555 1_555
O2_2 Cd1A 1_555 1_555
O3A Cd1A 1_555 1_555
H26A O3A 1_555 1_555
H27A O3A 1_555 1_555
O4A C22A 1_555 1_555
O4_2 Cd1 1_555 1_555
O4A_2 Cd1A 1_555 1_555
O5A Cd1A_3 1_555 1_555
O5_2 Cd1 1_555 1_555
O5A_2 Cd1A 1_555 1_555
C1 O1 1_555 1_555
C6 C7 1_555 1_555
C8 N1 1_555 1_555
C13 C14 1_555 1_555
C16 N2 1_555 1_555
C20 C21 1_555 1_555
C24 N4 1_555 1_555
C25 N3 1_555 1_555
C26 N3 1_555 1_555
O5 Cd1_2 1_555 1_555
C1A O1A 1_555 1_555
C1A O2A 1_555 1_555
C6A C7A 1_555 1_555
C8A N1A 1_555 1_555
C13A C14A 1_555 1_555
C16A N2A 1_555 1_555
C20A C21A 1_555 1_555
C22A O5A 1_555 1_555
C24A N4A 1_555 1_555
C25A N3A 1_555 1_555
C26A C27A 1_555 1_555
C26A N3A 1_555 1_555

#END
