
#######################################################################
#
#                 Cambridge Crystallographic Data Centre
#                                CCDC 
#
#######################################################################
#
# If this CIF has been generated from an entry in the Cambridge 
# Structural Database, then it will include bibliographic, chemical, 
# crystal, experimental, refinement or atomic coordinate data resulting 
# from the CCDC's data processing and validation procedures.
#
#######################################################################

data_EQEJUG
_symmetry_cell_setting           triclinic
_symmetry_space_group_name_H-M   'P -1'
_symmetry_Int_Tables_number      2
_space_group_name_Hall           '-P 1'
loop_
_symmetry_equiv_pos_site_id
_symmetry_equiv_pos_as_xyz
1 x,y,z
2 -x,-y,-z
_cell_length_a                   9.485(5)
_cell_length_b                   10.847(5)
_cell_length_c                   11.297(5)
_cell_angle_alpha                109.075(5)
_cell_angle_beta                 102.112(5)
_cell_angle_gamma                98.919(5)
_cell_volume                     1042.09
loop_
_atom_site_label
_atom_site_type_symbol
_atom_site_fract_x
_atom_site_fract_y
_atom_site_fract_z
Zn1 Zn 0.06173(3) 0.35229(3) 0.90054(3)
N1 N 0.4438(2) 0.20099(19) 0.91611(19)
O1 O 0.11604(19) 0.50478(17) 0.84754(18)
N2 N 0.2407(2) 0.27687(18) 0.88668(18)
C1 C 0.3882(2) 0.1654(2) 0.7829(2)
C2 C 0.5774(3) 0.1671(3) 0.9777(2)
H1 H 0.6108 0.2227 1.0699
H2 H 0.6561 0.1872 0.9392
C3 C 0.1804(3) 0.1962(2) 0.6409(2)
H3 H 0.0960 0.2292 0.6278
N3 N 0.2247(3) 0.7217(3) 0.5271(3)
H4 H 0.218(3) 0.771(3) 0.493(3)
C4 C 0.0740(2) 0.6917(2) 0.7960(2)
C5 C 0.3830(3) 0.3350(3) 1.1181(2)
H5 H 0.4365 0.2848 1.1608
H6 H 0.2898 0.3347 1.1407
C6 C 0.1423(2) 0.6619(2) 0.6956(2)
H7 H 0.1745 0.5829 0.6720
C7 C 0.4380(3) 0.0978(3) 0.6788(2)
H8 H 0.5232 0.0658 0.6911
C8 C 0.2610(2) 0.2139(2) 0.7643(2)
C9 C 0.3561(3) 0.0806(3) 0.5575(2)
H9 H 0.3864 0.0354 0.4855
C10 C 0.1627(3) 0.7495(3) 0.6304(3)
C11 C 0.0307(3) 0.8116(3) 0.8354(3)
H10 H -0.0148 0.8319 0.9024
C12 C 0.3685(3) 0.5449(3) 0.4808(2)
C13 C 0.0444(3) 0.5948(2) 0.8599(2)
C14 C 0.1190(3) 0.8700(3) 0.6729(3)
H11 H 0.1330 0.9306 0.6317
C15 C 0.3520(2) 0.2683(2) 0.9743(2)
C16 C 0.2262(3) 0.5877(3) 0.4479(3)
H12 H 0.2045 0.5802 0.3576
H13 H 0.1464 0.5248 0.4545
C17 C 0.3652(3) 0.4089(3) 0.4427(3)
H14 H 0.2743 0.3460 0.4040
C18 C 0.5493(3) 0.0187(3) 0.9616(3)
H15 H 0.5046 -0.0363 0.8700
H16 H 0.6440 -0.0020 0.9881
C19 C 0.0562(3) 0.9006(3) 0.7735(3)
H17 H 0.0301 0.9823 0.8011
C20 C 0.2290(3) 0.1283(3) 0.5379(2)
H18 H 0.1759 0.1140 0.4535
C21 C 0.5055(3) 0.6347(3) 0.5387(3)
H19 H 0.5110 0.7265 0.5659
C22 C 0.4740(4) 0.4786(3) 1.1667(3)
H20 H 0.4924 0.5190 1.2595
H21 H 0.4204 0.5287 1.1256
H22 H 0.5670 0.4789 1.1455
Cl1 Cl -0.14996(7) 0.20678(8) 0.76998(7)
O2 O -0.05383(19) 0.60220(18) 0.91941(16)
Zn1A Zn 0.93827(3) 0.64771(3) 0.09946(3)
Zn1A_2 Zn -0.06173(3) 0.64771(3) 1.09946(3)
Zn1A_3 Zn 0.93827(3) -0.35229(3) 1.09946(3)
Zn1_2 Zn 1.06173(3) 0.35229(3) -0.09946(3)
N1A N 0.5562(2) -0.20099(19) 1.08389(19)
O1A O 0.88396(19) 0.49522(17) 0.15246(18)
O1A_2 O -0.11604(19) 0.49522(17) 1.15246(18)
N2A N 0.7593(2) -0.27687(18) 1.11332(18)
N2A_2 N -0.2407(2) 0.72313(18) 1.11332(18)
C1A C 0.6118(2) -0.1654(2) 1.2171(2)
C2A C 0.4226(3) -0.1671(3) 1.0223(2)
H1A H 0.3892 -0.2227 0.9301
H2A H 0.3439 -0.1872 1.0608
C3A C 0.8196(3) -0.1962(2) 1.3591(2)
H3A H 0.9040 -0.2292 1.3722
N3A N 0.7753(3) 0.2783(3) 0.4729(3)
H4A H 0.782(3) 0.229(3) 0.507(3)
C4A C 0.9260(2) 0.3083(2) 0.2040(2)
C5A C 0.6170(3) -0.3350(3) 0.8819(2)
H5A H 0.5635 -0.2848 0.8392
H6A H 0.7102 -0.3347 0.8593
C6A C 0.8577(2) 0.3381(2) 0.3044(2)
H7A H 0.8255 0.4171 0.3280
C7A C 0.5620(3) -0.0978(3) 1.3212(2)
H8A H 0.4768 -0.0658 1.3089
C8A C 0.7390(2) -0.2139(2) 1.2357(2)
C9A C 0.6439(3) -0.0806(3) 1.4425(2)
H9A H 0.6136 -0.0354 1.5145
C10A C 0.8373(3) 0.2505(3) 0.3696(3)
C11A C 0.9693(3) 0.1884(3) 0.1646(3)
H10A H 1.0148 0.1681 0.0976
C12A C 0.6315(3) 0.4551(3) 0.5192(2)
C13A C 0.9556(3) 0.4052(2) 0.1401(2)
C14A C 0.8810(3) 0.1300(3) 0.3271(3)
H11A H 0.8670 0.0694 0.3683
C15A C 0.6480(2) -0.2683(2) 1.0257(2)
C16A C 0.7738(3) 0.4123(3) 0.5521(3)
H12A H 0.7955 0.4198 0.6424
H13A H 0.8536 0.4752 0.5455
C17A C 0.6348(3) 0.5911(3) 0.5573(3)
H14A H 0.7257 0.6540 0.5960
C18A C 0.4507(3) -0.0187(3) 1.0384(3)
H15A H 0.4954 0.0363 1.1300
H16A H 0.3560 0.0020 1.0119
C19A C 0.9438(3) 0.0994(3) 0.2265(3)
H17A H 0.9699 0.0177 0.1989
C20A C 0.7710(3) -0.1283(3) 1.4621(2)
H18A H 0.8241 -0.1140 1.5465
C21A C 0.4945(3) 0.3653(3) 0.4613(3)
H19A H 0.4890 0.2735 0.4341
C22A C 0.5260(4) -0.4786(3) 0.8333(3)
H20A H 0.5076 -0.5190 0.7405
H21A H 0.5796 -0.5287 0.8744
H22A H 0.4330 -0.4789 0.8545
Cl1A Cl 0.14996(7) 0.79322(8) 1.23002(7)
O2A O 1.05383(19) 0.39780(18) 0.08059(16)
O2A_2 O 0.05383(19) 0.39780(18) 1.08059(16)
loop_
_geom_bond_atom_site_label_1
_geom_bond_atom_site_label_2
_geom_bond_site_symmetry_1
_geom_bond_site_symmetry_2
Zn1 O1 1_555 1_555
N1 C1 1_555 1_555
O1 C13 1_555 1_555
N2 Zn1 1_555 1_555
C1 C7 1_555 1_555
C2 N1 1_555 1_555
H1 C2 1_555 1_555
H2 C2 1_555 1_555
C3 H3 1_555 1_555
N3 H4 1_555 1_555
C4 C6 1_555 1_555
C5 H5 1_555 1_555
H6 C5 1_555 1_555
C6 H7 1_555 1_555
C7 H8 1_555 1_555
C8 N2 1_555 1_555
C9 C7 1_555 1_555
H9 C9 1_555 1_555
C10 N3 1_555 1_555
C11 C4 1_555 1_555
H10 C11 1_555 1_555
C12 C16 1_555 1_555
C13 C4 1_555 1_555
C14 C10 1_555 1_555
H11 C14 1_555 1_555
C15 N1 1_555 1_555
C16 N3 1_555 1_555
H12 C16 1_555 1_555
H13 C16 1_555 1_555
C17 C12 1_555 1_555
H14 C17 1_555 1_555
C18 C2 1_555 1_555
H15 C18 1_555 1_555
H16 C18 1_555 1_555
C19 C11 1_555 1_555
H17 C19 1_555 1_555
C20 C3 1_555 1_555
H18 C20 1_555 1_555
C21 C12 1_555 1_555
H19 C21 1_555 1_555
C22 C5 1_555 1_555
H20 C22 1_555 1_555
H21 C22 1_555 1_555
H22 C22 1_555 1_555
Cl1 Zn1 1_555 1_555
O2 C13 1_555 1_555
Zn1A O1A 1_555 1_555
Zn1A_2 O2 1_555 1_555
Zn1A_3 N2A 1_555 1_555
Zn1_2 O2A 1_555 1_555
N1A C1A 1_555 1_555
O1A C13A 1_555 1_555
O1A_2 Zn1A_2 1_555 1_555
N2A C8A 1_555 1_555
N2A_2 Zn1A_2 1_555 1_555
C1A C7A 1_555 1_555
C2A N1A 1_555 1_555
H1A C2A 1_555 1_555
H2A C2A 1_555 1_555
C3A H3A 1_555 1_555
N3A H4A 1_555 1_555
C4A C6A 1_555 1_555
C5A H5A 1_555 1_555
H6A C5A 1_555 1_555
C6A H7A 1_555 1_555
C7A H8A 1_555 1_555
C8A C1A 1_555 1_555
C9A C7A 1_555 1_555
H9A C9A 1_555 1_555
C10A N3A 1_555 1_555
C11A C4A 1_555 1_555
H10A C11A 1_555 1_555
C12A C16A 1_555 1_555
C13A C4A 1_555 1_555
C14A C10A 1_555 1_555
H11A C14A 1_555 1_555
C15A N1A 1_555 1_555
C16A N3A 1_555 1_555
H12A C16A 1_555 1_555
H13A C16A 1_555 1_555
C17A C21 1_555 1_555
H14A C17A 1_555 1_555
C18A C18 1_555 1_555
H15A C18A 1_555 1_555
H16A C18A 1_555 1_555
C19A C11A 1_555 1_555
H17A C19A 1_555 1_555
C20A C3A 1_555 1_555
H18A C20A 1_555 1_555
C21A C17 1_555 1_555
H19A C21A 1_555 1_555
C22A C5A 1_555 1_555
H20A C22A 1_555 1_555
H21A C22A 1_555 1_555
H22A C22A 1_555 1_555
Cl1A Zn1A_2 1_555 1_555
O2A C13A 1_555 1_555
O2A_2 Zn1 1_555 1_555
N2 C15 1_555 1_555
C1 C8 1_555 1_555
C3 C8 1_555 1_555
C5 C15 1_555 1_555
C6 C10 1_555 1_555
C9 C20 1_555 1_555
C14 C19 1_555 1_555
N2A C15A 1_555 1_555
C2A C18A 1_555 1_555
C3A C8A 1_555 1_555
C5A C15A 1_555 1_555
C6A C10A 1_555 1_555
C9A C20A 1_555 1_555
C12A C17A 1_555 1_555
C12A C21A 1_555 1_555
C14A C19A 1_555 1_555

#END
