
#######################################################################
#
#                 Cambridge Crystallographic Data Centre
#                                CCDC 
#
#######################################################################
#
# If this CIF has been generated from an entry in the Cambridge 
# Structural Database, then it will include bibliographic, chemical, 
# crystal, experimental, refinement or atomic coordinate data resulting 
# from the CCDC's data processing and validation procedures.
#
#######################################################################

data_EQEJAM
_symmetry_cell_setting           orthorhombic
_symmetry_space_group_name_H-M   'P n a 21'
_symmetry_Int_Tables_number      33
_space_group_name_Hall           'P 2c -2n'
loop_
_symmetry_equiv_pos_site_id
_symmetry_equiv_pos_as_xyz
1 x,y,z
2 -x,-y,1/2+z
3 1/2-x,1/2+y,1/2+z
4 1/2+x,1/2-y,z
_cell_length_a                   14.4400(4)
_cell_length_b                   10.8310(2)
_cell_length_c                   19.2020(5)
_cell_angle_alpha                90
_cell_angle_beta                 90
_cell_angle_gamma                90
_cell_volume                     3003.19
loop_
_atom_site_label
_atom_site_type_symbol
_atom_site_fract_x
_atom_site_fract_y
_atom_site_fract_z
Ni1 Ni 0.35325(2) 0.19492(2) 0.73218(2)
C1 C 0.3520(2) 0.0377(2) 0.64118(17)
C2 C 0.3301(2) -0.0724(2) 0.59636(17)
C3 C 0.3657(3) -0.1859(2) 0.61553(18)
H1 H 0.4056 -0.1931 0.6533
C4 C 0.3402(3) -0.2890(3) 0.5768(2)
H2 H 0.3628 -0.3662 0.5895
C5 C 0.2836(3) -0.2794(3) 0.5213(2)
H3 H 0.2681 -0.3503 0.4966
C6 C 0.2474(3) -0.1645(3) 0.4998(2)
C7 C 0.2712(3) -0.0608(3) 0.54017(18)
H4 H 0.2470 0.0162 0.5289
C8 C 0.1804(3) -0.0445(4) 0.40335(19)
H5 H 0.1793 -0.0671 0.3545
H6 H 0.2344 0.0072 0.4107
C9 C 0.0953(3) 0.0314(3) 0.41861(19)
C10 C 0.0230(3) -0.0093(3) 0.45761(19)
H7 H 0.0258 -0.0884 0.4763
C11 C -0.0550(3) 0.0623(3) 0.47081(19)
H8 H -0.1022 0.0315 0.4988
C12 C -0.0626(3) 0.1785(3) 0.44258(18)
C13 C 0.0097(3) 0.2196(3) 0.4022(2)
H9 H 0.0065 0.2984 0.3831
C14 C 0.0867(3) 0.1481(3) 0.38905(19)
H10 H 0.1333 0.1781 0.3602
C15 C -0.1451(3) 0.2612(3) 0.4563(2)
H11 H -0.1223 0.3401 0.4730
H12 H -0.1762 0.2761 0.4123
C16 C -0.2815(2) 0.1360(3) 0.48710(18)
C17 C -0.2827(3) 0.0719(3) 0.42492(17)
H13 H -0.2361 0.0857 0.3924
C18 C -0.3521(2) -0.0126(2) 0.41009(14)
C19 C -0.4231(2) -0.0328(3) 0.45701(16)
H14 H -0.4700 -0.0888 0.4470
C20 C -0.4230(3) 0.0319(3) 0.51928(17)
H15 H -0.4707 0.0196 0.5511
C21 C -0.3533(3) 0.1139(3) 0.53444(16)
H16 H -0.3538 0.1554 0.5768
C22 C -0.3473(2) -0.0850(3) 0.34343(17)
C23 C 0.4898(2) 0.3994(2) 0.7402(2)
H17 H 0.4720 0.4146 0.7859
C24 C 0.4966(3) 0.3240(3) 0.63907(18)
H18 H 0.4847 0.2762 0.5998
C25 C 0.5614(3) 0.4118(3) 0.6434(2)
H19 H 0.6022 0.4352 0.6083
C26 C 0.6128(2) 0.5623(2) 0.7356(3)
H20 H 0.6778 0.5416 0.7310
H21 H 0.5996 0.5726 0.7848
C27 C 0.5945(3) 0.6818(2) 0.69875(18)
H22 H 0.5284 0.6975 0.6989
H23 H 0.6140 0.6739 0.6506
C28 C 0.6438(2) 0.79130(19) 0.7311(3)
H24 H 0.6216 0.8033 0.7783
H25 H 0.7097 0.7747 0.7332
C29 C 0.6273(3) 0.9063(2) 0.68965(19)
H26 H 0.6567 0.8974 0.6445
H27 H 0.5612 0.9153 0.6818
C30 C 0.7432(2) 1.0738(2) 0.71062(15)
H28 H 0.7878 1.0431 0.6802
C31 C 0.6161(2) 1.0911(3) 0.76967(19)
H29 H 0.5574 1.0770 0.7880
C32 C 0.6728(2) 1.1872(3) 0.78393(17)
H30 H 0.6594 1.2511 0.8146
O1 O 0.30121(15) 0.13346(15) 0.63549(10)
O2 O 0.41482(16) 0.03234(15) 0.68563(11)
O3 O -0.28573(17) -0.06213(16) 0.29956(11)
O4 O -0.40581(15) -0.17085(16) 0.33267(10)
N1 N 0.1917(3) -0.1541(3) 0.4431(2)
H31 H 0.180(2) -0.2207(18) 0.4243(14)
N2 N -0.2118(3) 0.2174(3) 0.50449(17)
H32 H -0.229(2) 0.249(2) 0.5392(11)
N3 N 0.45087(17) 0.31514(18) 0.70052(12)
N4 N 0.55683(18) 0.46037(18) 0.70835(12)
N5 N 0.66216(18) 1.01899(18) 0.72294(19)
N6 N 0.75271(16) 1.17646(17) 0.74662(13)
Ni1A Ni -0.35325(2) -0.19492(2) 0.23218(2)
Ni1C Ni 0.85325(2) 1.30508(2) 0.73218(2)
C22A C 0.3473(2) 0.0850(3) 0.84343(17)
O3A O 0.28573(17) 0.06213(16) 0.79956(11)
O4A O 0.40581(15) 0.17085(16) 0.83267(10)
N6C N 0.25271(16) 0.32354(17) 0.74662(13)
loop_
_geom_bond_atom_site_label_1
_geom_bond_atom_site_label_2
_geom_bond_site_symmetry_1
_geom_bond_site_symmetry_2
Ni1 O1 1_555 1_555
C1 C2 1_555 1_555
C2 C3 1_555 1_555
C3 H1 1_555 1_555
C4 C3 1_555 1_555
H2 C4 1_555 1_555
C5 C4 1_555 1_555
H3 C5 1_555 1_555
C6 C5 1_555 1_555
C7 C2 1_555 1_555
H4 C7 1_555 1_555
C8 H5 1_555 1_555
H6 C8 1_555 1_555
C9 C8 1_555 1_555
C10 C9 1_555 1_555
H7 C10 1_555 1_555
C11 C10 1_555 1_555
H8 C11 1_555 1_555
C12 C11 1_555 1_555
C13 C12 1_555 1_555
H9 C13 1_555 1_555
C14 C9 1_555 1_555
H10 C14 1_555 1_555
C15 C12 1_555 1_555
H11 C15 1_555 1_555
H12 C15 1_555 1_555
C16 C17 1_555 1_555
C17 H13 1_555 1_555
C18 C17 1_555 1_555
C19 C18 1_555 1_555
H14 C19 1_555 1_555
C20 C19 1_555 1_555
H15 C20 1_555 1_555
C21 C16 1_555 1_555
H16 C21 1_555 1_555
C22 C18 1_555 1_555
C23 H17 1_555 1_555
C24 H18 1_555 1_555
C25 C24 1_555 1_555
H19 C25 1_555 1_555
C26 H20 1_555 1_555
H21 C26 1_555 1_555
C27 C26 1_555 1_555
H22 C27 1_555 1_555
H23 C27 1_555 1_555
C28 C27 1_555 1_555
H24 C28 1_555 1_555
H25 C28 1_555 1_555
C29 C28 1_555 1_555
H26 C29 1_555 1_555
H27 C29 1_555 1_555
C30 H28 1_555 1_555
C31 H29 1_555 1_555
C32 C31 1_555 1_555
H30 C32 1_555 1_555
O1 C1 1_555 1_555
O2 Ni1 1_555 1_555
O3 C22 1_555 1_555
O4 C22 1_555 1_555
N1 C6 1_555 1_555
H31 N1 1_555 1_555
N2 C15 1_555 1_555
H32 N2 1_555 1_555
N3 Ni1 1_555 1_555
N4 C23 1_555 1_555
N5 C29 1_555 1_555
N6 C30 1_555 1_555
Ni1A O3 1_555 1_555
Ni1C N6 1_555 1_555
C22A O3A 1_555 1_555
O3A Ni1 1_555 1_555
O4A Ni1 1_555 1_555
N6C Ni1 1_555 1_555
C1 O2 1_555 1_555
C6 C7 1_555 1_555
C8 N1 1_555 1_555
C13 C14 1_555 1_555
C16 N2 1_555 1_555
C20 C21 1_555 1_555
C23 N3 1_555 1_555
C24 N3 1_555 1_555
C25 N4 1_555 1_555
C26 N4 1_555 1_555
C30 N5 1_555 1_555
C31 N5 1_555 1_555
C32 N6 1_555 1_555
O4 Ni1A 1_555 1_555
C22A O4A 1_555 1_555

#END
