
#######################################################################
#
#                 Cambridge Crystallographic Data Centre
#                                CCDC 
#
#######################################################################
#
# If this CIF has been generated from an entry in the Cambridge 
# Structural Database, then it will include bibliographic, chemical, 
# crystal, experimental, refinement or atomic coordinate data resulting 
# from the CCDC's data processing and validation procedures.
#
#######################################################################

data_EQEJOA
_symmetry_cell_setting           monoclinic
_symmetry_space_group_name_H-M   'P 21/n'
_symmetry_Int_Tables_number      14
_space_group_name_Hall           '-P 2yn'
loop_
_symmetry_equiv_pos_site_id
_symmetry_equiv_pos_as_xyz
1 x,y,z
2 1/2-x,1/2+y,1/2-z
3 -x,-y,-z
4 1/2+x,1/2-y,1/2+z
_cell_length_a                   8.9459(5)
_cell_length_b                   11.2308(6)
_cell_length_c                   16.4502(10)
_cell_angle_alpha                90
_cell_angle_beta                 101.400(6)
_cell_angle_gamma                90
_cell_volume                     1620.14
loop_
_atom_site_label
_atom_site_type_symbol
_atom_site_fract_x
_atom_site_fract_y
_atom_site_fract_z
Co1 Co 0.18551(6) 0.45956(5) 0.55526(4)
Cl1 Cl 0.28525(14) 0.63017(9) 0.61255(8)
O1 O 0.1801(3) 0.4730(2) 0.43661(15)
N1 N 0.5048(4) 0.1890(3) 0.5930(2)
O2 O -0.0170(3) 0.5924(2) 0.39521(18)
C1 C 0.3802(5) 0.5787(3) 0.2384(3)
N2 N 0.5153(4) 0.5287(4) 0.2291(2)
H1 H 0.564(7) 0.495(6) 0.262
C2 C 0.3121(4) 0.5434(3) 0.3045(2)
H2 H 0.3621 0.4879 0.3423
N3 N 0.3220(4) 0.3194(3) 0.5875(2)
C3 C 0.5456(4) 0.5368(4) 0.0820(2)
C4 C 0.5087(4) 0.4193(3) 0.0635(3)
H3 H 0.5136 0.3640 0.1060
C5 C 0.1736(5) 0.5881(3) 0.3155(3)
C6 C 0.4341(5) 0.2823(4) 0.5535(3)
H4 H 0.4610 0.3172 0.5072
C7 C 0.4365(5) 0.1646(4) 0.6576(3)
H5 H 0.4626 0.1043 0.6966
C8 C 0.5351(4) 0.6161(4) 0.0177(3)
H6 H 0.5583 0.6958 0.0293
C9 C 0.1076(5) 0.5475(4) 0.3870(3)
C10 C 0.6013(4) 0.5744(4) 0.1713(2)
H7 H 0.6000 0.6607 0.1739
H8 H 0.7065 0.5490 0.1886
C11 C 0.3233(5) 0.2446(4) 0.6544(3)
H9 H 0.2568 0.2489 0.6912
C12 C 0.3028(5) 0.6651(3) 0.1848(3)
H10 H 0.3445 0.6925 0.1408
C13 C 0.1652(5) 0.7099(4) 0.1968(3)
H11 H 0.1161 0.7676 0.1606
C14 C 0.0984(5) 0.6719(3) 0.2607(3)
H12 H 0.0045 0.7021 0.2670
C15 C 0.6245(5) 0.1168(4) 0.5708(3)
H13 H 0.6801 0.0775 0.6202
H14 H 0.6953 0.1680 0.5497
C16 C 0.5648(4) 0.0255(5) 0.5075(4)
H15 H 0.5755 0.0607 0.4551
H16 H 0.6383 -0.0390 0.5175
Co1B Co 0.81449(6) 0.54044(5) -0.55526(4)
Co1B_2 Co -0.18551(6) 0.54044(5) 0.44474(4)
Co1_2 Co 1.18551(6) 0.45956(5) -0.44474(4)
Co1B_3 Co 0.81449(6) -0.45956(5) 0.44474(4)
Cl1B Cl 0.71475(14) 0.36983(9) -0.61255(8)
O1B O 0.8199(3) 0.5270(2) -0.43661(15)
N1B N 0.4952(4) -0.1890(3) 0.4070(2)
O2B O 1.0170(3) 0.4076(2) -0.39521(18)
O2B_2 O 0.0170(3) 0.4076(2) 0.60479(18)
O2_2 O 0.9830(3) 0.5924(2) -0.60479(18)
C1B C 0.6198(5) 0.4213(3) -0.2384(3)
N2B N 0.4847(4) 0.4713(4) -0.2291(2)
H1B H 0.436(7) 0.505(6) -0.262
C2B C 0.6879(4) 0.4566(3) -0.3045(2)
H2B H 0.6379 0.5121 -0.3423
N3B N 0.6780(4) -0.3194(3) 0.4125(2)
N3B_2 N 0.6780(4) 0.6806(3) -0.5875(2)
C3B C 0.4544(4) 0.4632(4) -0.0820(2)
C4B C 0.4913(4) 0.5807(3) -0.0635(3)
H3B H 0.4864 0.6360 -0.1060
C5B C 0.8264(5) 0.4119(3) -0.3155(3)
C6B C 0.5659(5) -0.2823(4) 0.4465(3)
H4B H 0.5390 -0.3172 0.4928
C7B C 0.5635(5) -0.1646(4) 0.3424(3)
H5B H 0.5374 -0.1043 0.3034
C8B C 0.4649(4) 0.3839(4) -0.0177(3)
H6B H 0.4417 0.3042 -0.0293
C9B C 0.8924(5) 0.4525(4) -0.3870(3)
C10B C 0.3987(4) 0.4256(4) -0.1713(2)
H7B H 0.4000 0.3393 -0.1739
H8B H 0.2935 0.4510 -0.1886
C11B C 0.6767(5) -0.2446(4) 0.3456(3)
H9B H 0.7432 -0.2489 0.3088
C12B C 0.6972(5) 0.3349(3) -0.1848(3)
H10B H 0.6555 0.3075 -0.1408
C13B C 0.8348(5) 0.2901(4) -0.1968(3)
H11B H 0.8839 0.2324 -0.1606
C14B C 0.9016(5) 0.3281(3) -0.2607(3)
H12B H 0.9955 0.2979 -0.2670
C15B C 0.3755(5) -0.1168(4) 0.4292(3)
H13B H 0.3199 -0.0775 0.3798
H14B H 0.3047 -0.1680 0.4503
C16B C 0.4352(4) -0.0255(5) 0.4925(4)
H15B H 0.4245 -0.0607 0.5449
H16B H 0.3617 0.0390 0.4825
loop_
_geom_bond_atom_site_label_1
_geom_bond_atom_site_label_2
_geom_bond_site_symmetry_1
_geom_bond_site_symmetry_2
Co1 Cl1 1_555 1_555
O1 Co1 1_555 1_555
N1 C6 1_555 1_555
O2 C9 1_555 1_555
C1 N2 1_555 1_555
N2 H1 1_555 1_555
C2 C1 1_555 1_555
H2 C2 1_555 1_555
N3 Co1 1_555 1_555
C3 C4 1_555 1_555
C4 H3 1_555 1_555
C5 C2 1_555 1_555
C6 N3 1_555 1_555
H4 C6 1_555 1_555
C7 N1 1_555 1_555
H5 C7 1_555 1_555
C8 C3 1_555 1_555
H6 C8 1_555 1_555
C9 O1 1_555 1_555
C10 N2 1_555 1_555
H7 C10 1_555 1_555
H8 C10 1_555 1_555
C11 N3 1_555 1_555
H9 C11 1_555 1_555
C12 C1 1_555 1_555
H10 C12 1_555 1_555
C13 C12 1_555 1_555
H11 C13 1_555 1_555
C14 C5 1_555 1_555
H12 C14 1_555 1_555
C15 N1 1_555 1_555
H13 C15 1_555 1_555
H14 C15 1_555 1_555
C16 C15 1_555 1_555
H15 C16 1_555 1_555
H16 C16 1_555 1_555
Co1B Cl1B 1_555 1_555
Co1B_2 O2 1_555 1_555
Co1_2 O2B 1_555 1_555
Co1B_3 N3B 1_555 1_555
O1B Co1B 1_555 1_555
N1B C6B 1_555 1_555
O2B C9B 1_555 1_555
O2B_2 Co1 1_555 1_555
O2_2 Co1B 1_555 1_555
C1B N2B 1_555 1_555
N2B H1B 1_555 1_555
C2B C1B 1_555 1_555
H2B C2B 1_555 1_555
N3B C6B 1_555 1_555
N3B_2 Co1B 1_555 1_555
C3B C4B 1_555 1_555
C4B C8 1_555 1_555
H3B C4B 1_555 1_555
C5B C2B 1_555 1_555
C6B H4B 1_555 1_555
C7B N1B 1_555 1_555
H5B C7B 1_555 1_555
C8B C4 1_555 1_555
H6B C8B 1_555 1_555
C9B O1B 1_555 1_555
C10B N2B 1_555 1_555
H7B C10B 1_555 1_555
H8B C10B 1_555 1_555
C11B N3B 1_555 1_555
H9B C11B 1_555 1_555
C12B C1B 1_555 1_555
H10B C12B 1_555 1_555
C13B C12B 1_555 1_555
H11B C13B 1_555 1_555
C14B C5B 1_555 1_555
H12B C14B 1_555 1_555
C15B N1B 1_555 1_555
H13B C15B 1_555 1_555
H14B C15B 1_555 1_555
C16B C16 1_555 1_555
H15B C16B 1_555 1_555
H16B C16B 1_555 1_555
C3 C10 1_555 1_555
C5 C9 1_555 1_555
C7 C11 1_555 1_555
C13 C14 1_555 1_555
C3B C8B 1_555 1_555
C3B C10B 1_555 1_555
C5B C9B 1_555 1_555
C7B C11B 1_555 1_555
C13B C14B 1_555 1_555
C15B C16B 1_555 1_555

#END
