
#######################################################################
#
#                 Cambridge Crystallographic Data Centre
#                                CCDC 
#
#######################################################################
#
# If this CIF has been generated from an entry in the Cambridge 
# Structural Database, then it will include bibliographic, chemical, 
# crystal, experimental, refinement or atomic coordinate data resulting 
# from the CCDC's data processing and validation procedures.
#
#######################################################################

data_EQEKAN
_symmetry_cell_setting           triclinic
_symmetry_space_group_name_H-M   'P -1'
_symmetry_Int_Tables_number      2
_space_group_name_Hall           '-P 1'
loop_
_symmetry_equiv_pos_site_id
_symmetry_equiv_pos_as_xyz
1 x,y,z
2 -x,-y,-z
_cell_length_a                   9.4800(18)
_cell_length_b                   10.8190(17)
_cell_length_c                   11.3610(18)
_cell_angle_alpha                109.432(14)
_cell_angle_beta                 102.254(14)
_cell_angle_gamma                98.693(14)
_cell_volume                     1042.27
loop_
_atom_site_label
_atom_site_type_symbol
_atom_site_fract_x
_atom_site_fract_y
_atom_site_fract_z
Co1 Co 0.06362(6) 0.35810(6) 0.90218(5)
N1 N 0.4446(3) 0.2014(3) 0.9160(3)
N2 N 0.2413(3) 0.2789(3) 0.8869(3)
O1 O 0.1161(3) 0.5085(3) 0.8473(3)
C1 C 0.1428(4) 0.6644(4) 0.6960(3)
H1 H 0.1760 0.5853 0.6737
C2 C 0.2621(4) 0.2150(3) 0.7650(3)
C3 C 0.1814(4) 0.1990(4) 0.6414(3)
H2 H 0.0977 0.2334 0.6287
N3 N 0.2230(4) 0.7215(4) 0.5259(4)
H3 H 0.216(6) 0.772(4) 0.492(5)
C4 C 0.0746(4) 0.6956(3) 0.7950(3)
C5 C 0.3891(4) 0.1656(3) 0.7827(3)
C6 C 0.3532(4) 0.2693(3) 0.9746(3)
C7 C 0.1625(4) 0.7510(4) 0.6288(4)
C8 C 0.5783(4) 0.1661(4) 0.9764(4)
H4 H 0.6131 0.2230 1.0682
H5 H 0.6562 0.1849 0.9371
C9 C 0.0304(4) 0.8167(4) 0.8340(4)
H6 H -0.0154 0.8376 0.9004
C10 C 0.0465(4) 0.6003(3) 0.8608(3)
C11 C 0.4391(4) 0.0981(4) 0.6795(4)
H7 H 0.5243 0.0657 0.6920
C12 C 0.0557(5) 0.9052(4) 0.7724(4)
H8 H 0.0292 0.9873 0.7990
C13 C 0.3831(4) 0.3356(4) 1.1173(3)
H9 H 0.4369 0.2852 1.1595
H10 H 0.2894 0.3345 1.1390
C14 C 0.2245(5) 0.5868(5) 0.4474(4)
H11 H 0.2023 0.5783 0.3573
H12 H 0.1449 0.5242 0.4544
C15 C 0.3660(5) 0.4081(4) 0.4415(4)
H13 H 0.2755 0.3444 0.4017
C16 C 0.3671(4) 0.5437(4) 0.4802(4)
C17 C 0.1198(5) 0.8724(4) 0.6719(4)
H14 H 0.1353 0.9331 0.6314
C18 C 0.5509(5) 0.0183(4) 0.9618(4)
H15 H 0.5077 -0.0383 0.8704
H16 H 0.6458 -0.0016 0.9903
C19 C 0.3570(4) 0.0809(4) 0.5574(4)
H17 H 0.3870 0.0350 0.4855
C20 C 0.2304(4) 0.1303(4) 0.5386(4)
H18 H 0.1777 0.1166 0.4545
C21 C 0.5041(5) 0.6353(4) 0.5394(4)
H19 H 0.5089 0.7274 0.5667
C22 C 0.4730(7) 0.4799(5) 1.1678(4)
H20 H 0.4903 0.5198 1.2603
H21 H 0.4193 0.5304 1.1273
H22 H 0.5666 0.4812 1.1479
Cl1 Cl -0.15016(11) 0.21078(11) 0.76893(10)
O2 O -0.0503(3) 0.6117(3) 0.9217(3)
Co1A Co 0.93638(6) -0.35810(6) 1.09782(5)
Co1A_2 Co -0.06362(6) 0.64190(6) 1.09782(5)
Co1A_3 Co 0.93638(6) 0.64190(6) 0.09782(5)
Co1_2 Co 1.06362(6) 0.35810(6) -0.09782(5)
N1A N 0.5554(3) -0.2014(3) 1.0840(3)
N2A N 0.7587(3) -0.2789(3) 1.1131(3)
N2A_2 N -0.2413(3) 0.7211(3) 1.1131(3)
O1A O 0.8839(3) 0.4915(3) 0.1527(3)
O1A_2 O -0.1161(3) 0.4915(3) 1.1527(3)
C1A C 0.8572(4) 0.3356(4) 0.3040(3)
H1A H 0.8240 0.4147 0.3263
C2A C 0.7379(4) -0.2150(3) 1.2350(3)
C3A C 0.8186(4) -0.1990(4) 1.3586(3)
H2A H 0.9023 -0.2334 1.3713
N3A N 0.7770(4) 0.2785(4) 0.4741(4)
H3A H 0.784(6) 0.228(4) 0.508(5)
C4A C 0.9254(4) 0.3044(3) 0.2050(3)
C5A C 0.6109(4) -0.1656(3) 1.2173(3)
C6A C 0.6468(4) -0.2693(3) 1.0254(3)
C7A C 0.8375(4) 0.2490(4) 0.3712(4)
C8A C 0.4217(4) -0.1661(4) 1.0236(4)
H4A H 0.3869 -0.2230 0.9318
H5A H 0.3438 -0.1849 1.0629
C9A C 0.9696(4) 0.1833(4) 0.1660(4)
H6A H 1.0154 0.1624 0.0996
C10A C 0.9535(4) 0.3997(3) 0.1392(3)
C11A C 0.5609(4) -0.0981(4) 1.3205(4)
H7A H 0.4757 -0.0657 1.3080
C12A C 0.9443(5) 0.0948(4) 0.2276(4)
H8A H 0.9708 0.0127 0.2010
C13A C 0.6169(4) -0.3356(4) 0.8827(3)
H9A H 0.5631 -0.2852 0.8405
H10A H 0.7106 -0.3345 0.8610
C14A C 0.7755(5) 0.4132(5) 0.5526(4)
H11A H 0.7977 0.4217 0.6427
H12A H 0.8551 0.4758 0.5456
C15A C 0.6340(5) 0.5919(4) 0.5585(4)
H13A H 0.7245 0.6556 0.5983
C16A C 0.6329(4) 0.4563(4) 0.5198(4)
C17A C 0.8802(5) 0.1276(4) 0.3281(4)
H14A H 0.8647 0.0669 0.3686
C18A C 0.4491(5) -0.0183(4) 1.0382(4)
H15A H 0.4923 0.0383 1.1296
H16A H 0.3542 0.0016 1.0097
C19A C 0.6430(4) -0.0809(4) 1.4426(4)
H17A H 0.6130 -0.0350 1.5145
C20A C 0.7696(4) -0.1303(4) 1.4614(4)
H18A H 0.8223 -0.1166 1.5455
C21A C 0.4959(5) 0.3647(4) 0.4606(4)
H19A H 0.4911 0.2726 0.4333
C22A C 0.5270(7) -0.4799(5) 0.8322(4)
H20A H 0.5097 -0.5198 0.7397
H21A H 0.5807 -0.5304 0.8727
H22A H 0.4334 -0.4812 0.8521
Cl1A Cl 0.15016(11) 0.78922(11) 1.23107(10)
O2A O 1.0503(3) 0.3883(3) 0.0783(3)
O2A_2 O 0.0503(3) 0.3883(3) 1.0783(3)
loop_
_geom_bond_atom_site_label_1
_geom_bond_atom_site_label_2
_geom_bond_site_symmetry_1
_geom_bond_site_symmetry_2
Co1 N2 1_555 1_555
N1 C5 1_555 1_555
N2 C2 1_555 1_555
O1 Co1 1_555 1_555
C1 H1 1_555 1_555
C2 C3 1_555 1_555
C3 H2 1_555 1_555
N3 H3 1_555 1_555
C4 C1 1_555 1_555
C5 C2 1_555 1_555
C6 N1 1_555 1_555
C7 C1 1_555 1_555
C8 N1 1_555 1_555
H4 C8 1_555 1_555
H5 C8 1_555 1_555
C9 C4 1_555 1_555
H6 C9 1_555 1_555
C10 O1 1_555 1_555
C11 C5 1_555 1_555
H7 C11 1_555 1_555
C12 C9 1_555 1_555
H8 C12 1_555 1_555
C13 C6 1_555 1_555
H9 C13 1_555 1_555
H10 C13 1_555 1_555
C14 N3 1_555 1_555
H11 C14 1_555 1_555
H12 C14 1_555 1_555
C15 H13 1_555 1_555
C16 C14 1_555 1_555
C17 C7 1_555 1_555
H14 C17 1_555 1_555
C18 C8 1_555 1_555
H15 C18 1_555 1_555
H16 C18 1_555 1_555
C19 C11 1_555 1_555
H17 C19 1_555 1_555
C20 C3 1_555 1_555
H18 C20 1_555 1_555
C21 C16 1_555 1_555
H19 C21 1_555 1_555
C22 C13 1_555 1_555
H20 C22 1_555 1_555
H21 C22 1_555 1_555
H22 C22 1_555 1_555
Cl1 Co1 1_555 1_555
O2 C10 1_555 1_555
Co1A N2A 1_555 1_555
Co1A_2 O2 1_555 1_555
Co1A_3 O1A 1_555 1_555
Co1_2 O2A 1_555 1_555
N1A C5A 1_555 1_555
N2A C2A 1_555 1_555
N2A_2 Co1A_2 1_555 1_555
O1A C10A 1_555 1_555
O1A_2 Co1A_2 1_555 1_555
C1A H1A 1_555 1_555
C2A C3A 1_555 1_555
C3A H2A 1_555 1_555
N3A H3A 1_555 1_555
C4A C1A 1_555 1_555
C5A C2A 1_555 1_555
C6A N1A 1_555 1_555
C7A C1A 1_555 1_555
C8A N1A 1_555 1_555
H4A C8A 1_555 1_555
H5A C8A 1_555 1_555
C9A C4A 1_555 1_555
H6A C9A 1_555 1_555
C10A C4A 1_555 1_555
C11A C5A 1_555 1_555
H7A C11A 1_555 1_555
C12A C9A 1_555 1_555
H8A C12A 1_555 1_555
C13A C6A 1_555 1_555
H9A C13A 1_555 1_555
H10A C13A 1_555 1_555
C14A N3A 1_555 1_555
H11A C14A 1_555 1_555
H12A C14A 1_555 1_555
C15A C21 1_555 1_555
H13A C15A 1_555 1_555
C16A C14A 1_555 1_555
C17A C7A 1_555 1_555
H14A C17A 1_555 1_555
C18A C18 1_555 1_555
H15A C18A 1_555 1_555
H16A C18A 1_555 1_555
C19A C11A 1_555 1_555
H17A C19A 1_555 1_555
C20A C3A 1_555 1_555
H18A C20A 1_555 1_555
C21A C15 1_555 1_555
H19A C21A 1_555 1_555
C22A C13A 1_555 1_555
H20A C22A 1_555 1_555
H21A C22A 1_555 1_555
H22A C22A 1_555 1_555
Cl1A Co1A_2 1_555 1_555
O2A C10A 1_555 1_555
O2A_2 Co1 1_555 1_555
N2 C6 1_555 1_555
N3 C7 1_555 1_555
C4 C10 1_555 1_555
C12 C17 1_555 1_555
C15 C16 1_555 1_555
C19 C20 1_555 1_555
N2A C6A 1_555 1_555
N3A C7A 1_555 1_555
C8A C18A 1_555 1_555
C12A C17A 1_555 1_555
C15A C16A 1_555 1_555
C16A C21A 1_555 1_555
C19A C20A 1_555 1_555

#END
