
#######################################################################
#
#                 Cambridge Crystallographic Data Centre
#                                CCDC 
#
#######################################################################
#
# If this CIF has been generated from an entry in the Cambridge 
# Structural Database, then it will include bibliographic, chemical, 
# crystal, experimental, refinement or atomic coordinate data resulting 
# from the CCDC's data processing and validation procedures.
#
#######################################################################

data_EQILUM
_symmetry_cell_setting           monoclinic
_symmetry_space_group_name_H-M   'C 2/c'
_symmetry_Int_Tables_number      15
_space_group_name_Hall           '-C 2yn'
loop_
_symmetry_equiv_pos_site_id
_symmetry_equiv_pos_as_xyz
1 x,y,z
2 -x,y,1/2-z
3 1/2+x,1/2+y,z
4 1/2-x,1/2+y,1/2-z
5 -x,-y,-z
6 x,-y,1/2+z
7 1/2-x,1/2-y,-z
8 1/2+x,1/2-y,1/2+z
_cell_length_a                   12.3753(8)
_cell_length_b                   15.2658(10)
_cell_length_c                   10.9974(8)
_cell_angle_alpha                90
_cell_angle_beta                 114.787(2)
_cell_angle_gamma                90
_cell_volume                     1886.21
loop_
_atom_site_label
_atom_site_type_symbol
_atom_site_fract_x
_atom_site_fract_y
_atom_site_fract_z
C1 C 0.7107(3) 0.1652(2) 0.4932(4)
H1 H 0.6850 0.1076 0.4884
C2 C 0.6706(3) 0.3184(2) 0.4732(4)
H2 H 0.6177 0.3651 0.4550
C3 C 0.6285(3) 0.2329(2) 0.4662(3)
C4 C 0.5045(2) 0.2085(2) 0.4271(3)
H3 H 0.4875 0.1496 0.4065
C5 C 0.4105(3) 0.25786(18) 0.4160(3)
C6 C 0.2893(3) 0.2199(2) 0.3651(3)
C7 C 0.2706(3) 0.1239(2) 0.3416(4)
H4 H 0.1872 0.1109 0.3087
H5 H 0.3132 0.0931 0.4242
H6 H 0.2992 0.1057 0.2768
C8 C 0.4182(2) 0.35276(19) 0.4565(3)
C9 C 0.3695(4) 0.4212(2) 0.3498(4)
H7 H 0.3804 0.4780 0.3905
H8 H 0.4106 0.4185 0.2927
H9 H 0.2861 0.4109 0.2976
O1 O 0.2065(2) 0.26969(17) 0.3464(3)
O2 O 0.4629(2) 0.37228(15) 0.5739(2)
Ag1 Ag 0.0000 0.24450(2) 0.2500
C1F C 0.7893(3) 0.3348(2) 0.5068(4)
H1F H 0.8150 0.3924 0.5116
C2F C 0.8294(3) 0.1816(2) 0.5268(4)
H2F H 0.8823 0.1349 0.5450
C3F C 0.8715(3) 0.2671(2) 0.5338(3)
C4F C 0.9955(2) 0.2915(2) 0.5729(3)
H3F H 1.0125 0.3504 0.5935
C5F C 1.0895(3) 0.24214(18) 0.5840(3)
C6F C 1.2107(3) 0.2801(2) 0.6349(3)
C7F C 1.2294(3) 0.3761(2) 0.6584(4)
H4F H 1.3128 0.3891 0.6913
H5F H 1.1868 0.4069 0.5758
H6F H 1.2008 0.3943 0.7232
C8F C 1.0818(2) 0.14724(19) 0.5435(3)
C9F C 1.1305(4) 0.0788(2) 0.6502(4)
H7F H 1.1196 0.0220 0.6095
H8F H 1.0894 0.0815 0.7073
H9F H 1.2139 0.0891 0.7024
O1F O 1.2935(2) 0.23031(17) 0.6536(3)
O1A O -0.2065(2) 0.26969(17) 0.1536(3)
O2F O 1.0371(2) 0.12772(15) 0.4261(2)
O2F_2 O 0.0371(2) 0.12772(15) 0.4261(2)
O2G O -0.0371(2) 0.12772(15) 0.0739(2)
Ag1_2 Ag 1.0000 0.24450(2) 0.2500
Ag1F Ag 0.5000 0.25550(2) 0.7500
Ag1F_2 Ag 1.5000 0.25550(2) 0.7500
B1 B 0.5000 0.0423(4) 0.7500
F1 F 0.4765(3) 0.0932(2) 0.8359(3)
F2 F 0.4091(6) -0.0072(4) 0.6856(6)
F1A F 0.5235(3) 0.0932(2) 0.6641(3)
F2A F 0.5909(6) -0.0072(4) 0.8144(6)
loop_
_geom_bond_atom_site_label_1
_geom_bond_atom_site_label_2
_geom_bond_site_symmetry_1
_geom_bond_site_symmetry_2
C1 H1 1_555 1_555
C2 H2 1_555 1_555
C3 C1 1_555 1_555
C4 C3 1_555 1_555
H3 C4 1_555 1_555
C5 C4 1_555 1_555
C6 C5 1_555 1_555
C7 C6 1_555 1_555
H4 C7 1_555 1_555
H5 C7 1_555 1_555
H6 C7 1_555 1_555
C8 C5 1_555 1_555
C9 C8 1_555 1_555
H7 C9 1_555 1_555
H8 C9 1_555 1_555
H9 C9 1_555 1_555
O1 C6 1_555 1_555
O2 C8 1_555 1_555
B1 F1 1_555 1_555
F2 B1 1_555 1_555
Ag1 O1 1_555 1_555
C1F C2 1_555 1_555
H1F C1F 1_555 1_555
C2F C1 1_555 1_555
H2F C2F 1_555 1_555
C3F C1F 1_555 1_555
C4F C3F 1_555 1_555
H3F C4F 1_555 1_555
C5F C4F 1_555 1_555
C6F C5F 1_555 1_555
C7F C6F 1_555 1_555
H4F C7F 1_555 1_555
H5F C7F 1_555 1_555
H6F C7F 1_555 1_555
C8F C5F 1_555 1_555
C9F C8F 1_555 1_555
H7F C9F 1_555 1_555
H8F C9F 1_555 1_555
H9F C9F 1_555 1_555
O1F C6F 1_555 1_555
O1A Ag1 1_555 1_555
O2F C8F 1_555 1_555
O2F_2 Ag1 1_555 1_555
O2G Ag1 1_555 1_555
F1A B1 1_555 1_555
F2A B1 1_555 1_555
Ag1_2 O2F 1_555 1_555
Ag1F O2 1_555 1_555
Ag1F_2 O1F 1_555 1_555
C2 C3 1_555 1_555
C2F C3F 1_555 1_555

#END
