
#######################################################################
#
#                 Cambridge Crystallographic Data Centre
#                                CCDC 
#
#######################################################################
#
# If this CIF has been generated from an entry in the Cambridge 
# Structural Database, then it will include bibliographic, chemical, 
# crystal, experimental, refinement or atomic coordinate data resulting 
# from the CCDC's data processing and validation procedures.
#
#######################################################################

data_EQIMOH
_symmetry_cell_setting           triclinic
_symmetry_space_group_name_H-M   'P -1'
_symmetry_Int_Tables_number      2
_space_group_name_Hall           '-P 1'
loop_
_symmetry_equiv_pos_site_id
_symmetry_equiv_pos_as_xyz
1 x,y,z
2 -x,-y,-z
_cell_length_a                   9.5120(18)
_cell_length_b                   10.1150(19)
_cell_length_c                   11.708(2)
_cell_angle_alpha                75.042(3)
_cell_angle_beta                 76.605(3)
_cell_angle_gamma                70.640(3)
_cell_volume                     1013.49
loop_
_atom_site_label
_atom_site_type_symbol
_atom_site_fract_x
_atom_site_fract_y
_atom_site_fract_z
Cu1 Cu 0.43591(6) 0.38355(5) 0.88643(4)
N1 N 0.6102(4) 0.3826(4) 0.7475(3)
N2 N 1.2657(4) 0.3716(4) 0.0250(3)
O1 O 0.5979(3) 0.3136(3) 1.0132(2)
O2 O 0.6258(3) 0.4065(3) 1.1572(2)
O3 O 0.5533(3) -0.1902(3) 1.1340(2)
O4 O 0.6961(4) -0.3349(3) 1.2677(3)
Br1 Br 0.73287(7) 0.00478(6) 1.54567(5)
C1 C 0.6164(4) 0.3060(4) 1.1159(3)
C2 C 0.6366(4) 0.1646(4) 1.2009(3)
C3 C 0.6679(5) 0.1503(5) 1.3146(4)
H1 H 0.6734 0.2290 1.3386
C4 C 0.6908(5) 0.0194(5) 1.3915(4)
C5 C 0.6816(5) -0.0987(5) 1.3599(4)
H2 H 0.6985 -0.1866 1.4126
C6 C 0.6464(5) -0.0844(4) 1.2475(4)
C7 C 0.6243(4) 0.0462(4) 1.1694(4)
H3 H 0.6008 0.0550 1.0945
C8 C 0.6318(5) -0.2135(5) 1.2155(4)
C9 C 0.5890(5) 0.4743(5) 0.6447(4)
H4 H 0.4954 0.5422 0.6399
C10 C 0.6989(5) 0.4737(5) 0.5451(4)
H5 H 0.6782 0.5400 0.4751
C11 C 0.8388(5) 0.3761(5) 0.5482(4)
C12 C 0.8606(5) 0.2796(6) 0.6547(4)
H6 H 0.9526 0.2097 0.6613
C13 C 0.7449(5) 0.2873(5) 0.7513(4)
H7 H 0.7624 0.2224 0.8227
C14 C 0.9610(5) 0.3759(6) 0.4407(4)
H8 H 1.0554 0.3110 0.4638
H9 H 0.9735 0.4709 0.4133
C15 C 0.9265(5) 0.3309(5) 0.3381(4)
H10 H 0.9243 0.2323 0.3624
H11 H 0.8277 0.3898 0.3198
C16 C 1.0432(5) 0.3456(5) 0.2274(4)
C17 C 1.0586(6) 0.4746(6) 0.1649(5)
H12 H 0.9945 0.5572 0.1904
C18 C 1.1669(6) 0.4866(6) 0.0646(5)
H13 H 1.1716 0.5772 0.0230
C19 C 1.2497(6) 0.2451(5) 0.0856(4)
H14 H 1.3158 0.1636 0.0597
C20 C 1.1412(6) 0.2277(5) 0.1843(4)
H15 H 1.1341 0.1366 0.2219
Cu1_2 Cu 1.43591(6) 0.38355(5) -0.11357(4)
Cu1A Cu 0.56409(6) 0.61645(5) 1.11357(4)
Cu1A_2 Cu 0.56409(6) -0.38355(5) 1.11357(4)
N2_2 N 0.2657(4) 0.3716(4) 1.0250(3)
O2A O 0.3742(3) 0.5935(3) 0.8428(2)
O3A O 0.4467(3) 0.1902(3) 0.8660(2)
loop_
_geom_bond_atom_site_label_1
_geom_bond_atom_site_label_2
_geom_bond_site_symmetry_1
_geom_bond_site_symmetry_2
Cu1 N1 1_555 1_555
N1 C9 1_555 1_555
N2 C18 1_555 1_555
O1 Cu1 1_555 1_555
O2 C1 1_555 1_555
O3 C8 1_555 1_555
O4 C8 1_555 1_555
Br1 C4 1_555 1_555
C1 O1 1_555 1_555
C2 C1 1_555 1_555
C3 C2 1_555 1_555
H1 C3 1_555 1_555
C4 C3 1_555 1_555
C5 C4 1_555 1_555
H2 C5 1_555 1_555
C6 C5 1_555 1_555
C7 C2 1_555 1_555
H3 C7 1_555 1_555
C8 C6 1_555 1_555
C9 H4 1_555 1_555
C10 C9 1_555 1_555
H5 C10 1_555 1_555
C11 C10 1_555 1_555
C12 C11 1_555 1_555
H6 C12 1_555 1_555
C13 N1 1_555 1_555
H7 C13 1_555 1_555
C14 C11 1_555 1_555
H8 C14 1_555 1_555
H9 C14 1_555 1_555
C15 C14 1_555 1_555
H10 C15 1_555 1_555
H11 C15 1_555 1_555
C16 C15 1_555 1_555
C17 C16 1_555 1_555
H12 C17 1_555 1_555
C18 C17 1_555 1_555
H13 C18 1_555 1_555
C19 N2 1_555 1_555
H14 C19 1_555 1_555
C20 C16 1_555 1_555
H15 C20 1_555 1_555
Cu1_2 N2 1_555 1_555
Cu1A O2 1_555 1_555
Cu1A_2 O3 1_555 1_555
N2_2 Cu1 1_555 1_555
O2A Cu1 1_555 1_555
O3A Cu1 1_555 1_555
C6 C7 1_555 1_555
C12 C13 1_555 1_555
C19 C20 1_555 1_555

#END
