
#######################################################################
#
#                 Cambridge Crystallographic Data Centre
#                                CCDC 
#
#######################################################################
#
# If this CIF has been generated from an entry in the Cambridge 
# Structural Database, then it will include bibliographic, chemical, 
# crystal, experimental, refinement or atomic coordinate data resulting 
# from the CCDC's data processing and validation procedures.
#
#######################################################################

data_EQINAU
_symmetry_cell_setting           orthorhombic
_symmetry_space_group_name_H-M   'P n a 21'
_symmetry_Int_Tables_number      33
_space_group_name_Hall           'P 2c -2n'
loop_
_symmetry_equiv_pos_site_id
_symmetry_equiv_pos_as_xyz
1 x,y,z
2 -x,-y,1/2+z
3 1/2+x,1/2-y,z
4 1/2-x,1/2+y,1/2+z
_cell_length_a                   14.444(2)
_cell_length_b                   16.221(3)
_cell_length_c                   9.4795(14)
_cell_angle_alpha                90
_cell_angle_beta                 90
_cell_angle_gamma                90
_cell_volume                     2221.01
loop_
_atom_site_label
_atom_site_type_symbol
_atom_site_fract_x
_atom_site_fract_y
_atom_site_fract_z
Ni1 Ni 0.349410(16) 0.651253(14) 0.39950(3)
O1 O 0.48179(10) 0.61880(9) 0.35591(15)
O2 O 0.20635(9) 0.67164(8) 0.4086(2)
O3 O 0.35061(10) 0.75451(9) 0.51119(18)
O4 O 0.26627(12) 0.86797(10) 0.54578(19)
O5 O 0.34747(11) 0.73367(11) 0.22190(18)
N1 N 0.65231(12) 0.42304(12) 0.0845(2)
N2 N 0.40518(13) 0.51785(12) 0.2245(2)
N3 N 0.32553(13) 0.55643(12) 0.2745(2)
N4 N 0.35438(16) 0.77460(14) -0.0070(2)
C1 C 0.64769(15) 0.52546(14) 0.3227(2)
H1 H 0.6464 0.5604 0.4031
C2 C 0.72800(16) 0.48446(14) 0.2836(3)
H2 H 0.7827 0.4906 0.3382
C3 C 0.72838(15) 0.43475(13) 0.1652(2)
H3 H 0.7843 0.4077 0.1396
C4 C 0.57440(16) 0.46156(13) 0.1231(2)
H4 H 0.5202 0.4530 0.0683
C5 C 0.56882(15) 0.51366(13) 0.2399(2)
C6 C 0.47907(15) 0.55446(13) 0.2757(2)
C7 C 0.24825(16) 0.52410(13) 0.2365(3)
H5 H 0.2507 0.4790 0.1725
C8 C 0.15646(15) 0.55124(13) 0.2839(2)
C9 C 0.08271(16) 0.50065(14) 0.2387(3)
H6 H 0.0955 0.4545 0.1801
C10 C -0.00773(17) 0.51665(15) 0.2777(3)
H7 H -0.0564 0.4817 0.2467
C11 C -0.02665(16) 0.58431(14) 0.3626(3)
H8 H -0.0885 0.5949 0.3915
C12 C 0.04378(14) 0.63660(12) 0.4057(3)
H9 H 0.0298 0.6837 0.4614
C13 C 0.13462(14) 0.62019(13) 0.3674(2)
C14 C 0.18546(16) 0.75143(13) 0.4701(3)
H10 H 0.1462 0.7441 0.5548
H11 H 0.1509 0.7855 0.4013
C15 C 0.27561(16) 0.79498(14) 0.5108(2)
C16 C 0.35136(17) 0.71828(16) 0.0960(3)
H12 H 0.3523 0.6619 0.0690
C17 C 0.3538(2) 0.86077(17) 0.0261(4)
H13 H 0.3471 0.8680 0.1283
H14 H 0.3018 0.8874 -0.0222
H15 H 0.4120 0.8858 -0.0051
C18 C 0.3556(2) 0.7522(2) -0.1554(3)
H16 H 0.3569 0.6921 -0.1644
H17 H 0.4108 0.7757 -0.2002
H18 H 0.3001 0.7739 -0.2016
Ni1A Ni 0.650590(16) 0.348747(14) -0.10050(3)
N1A N 0.34769(12) 0.57696(12) 0.5845(2)
O6 O 0.09747(15) 0.67793(13) 0.7622(2)
C19 C 0.1088(3) 0.7727(2) 1.1021(4)
H19 H 0.1187 0.7183 1.1441
H20 H 0.0521 0.7970 1.1407
H21 H 0.1616 0.8085 1.1240
C20 C 0.10341(19) 0.69033(16) 0.8906(4)
H22 H 0.1109 0.6437 0.9502
N5 N 0.10000(16) 0.76457(13) 0.9514(2)
C21 C 0.0896(3) 0.83898(17) 0.8676(4)
H23 H 0.0849 0.8242 0.7676
H24 H 0.1434 0.8747 0.8820
H25 H 0.0333 0.8682 0.8966
loop_
_geom_bond_atom_site_label_1
_geom_bond_atom_site_label_2
_geom_bond_site_symmetry_1
_geom_bond_site_symmetry_2
Ni1 O1 1_555 1_555
O1 C6 1_555 1_555
O2 Ni1 1_555 1_555
O3 Ni1 1_555 1_555
O4 C15 1_555 1_555
O5 Ni1 1_555 1_555
N1 C3 1_555 1_555
N2 N3 1_555 1_555
N3 Ni1 1_555 1_555
N4 C16 1_555 1_555
C1 H1 1_555 1_555
C2 C1 1_555 1_555
H2 C2 1_555 1_555
C3 C2 1_555 1_555
H3 C3 1_555 1_555
C4 N1 1_555 1_555
H4 C4 1_555 1_555
C5 C1 1_555 1_555
C6 N2 1_555 1_555
C7 N3 1_555 1_555
H5 C7 1_555 1_555
C8 C7 1_555 1_555
C9 C8 1_555 1_555
H6 C9 1_555 1_555
C10 C9 1_555 1_555
H7 C10 1_555 1_555
C11 C10 1_555 1_555
H8 C11 1_555 1_555
C12 C11 1_555 1_555
H9 C12 1_555 1_555
C13 O2 1_555 1_555
C14 O2 1_555 1_555
H10 C14 1_555 1_555
H11 C14 1_555 1_555
C15 O3 1_555 1_555
C16 O5 1_555 1_555
H12 C16 1_555 1_555
C17 N4 1_555 1_555
H13 C17 1_555 1_555
H14 C17 1_555 1_555
H15 C17 1_555 1_555
C18 N4 1_555 1_555
H16 C18 1_555 1_555
H17 C18 1_555 1_555
H18 C18 1_555 1_555
O6 C20 1_555 1_555
C19 H19 1_555 1_555
H20 C19 1_555 1_555
H21 C19 1_555 1_555
C20 H22 1_555 1_555
N5 C19 1_555 1_555
C21 N5 1_555 1_555
H23 C21 1_555 1_555
H24 C21 1_555 1_555
H25 C21 1_555 1_555
Ni1A N1 1_555 1_555
N1A Ni1 1_555 1_555
C4 C5 1_555 1_555
C5 C6 1_555 1_555
C8 C13 1_555 1_555
C12 C13 1_555 1_555
C14 C15 1_555 1_555
C20 N5 1_555 1_555

#END
