
#######################################################################
#
#                 Cambridge Crystallographic Data Centre
#                                CCDC 
#
#######################################################################
#
# If this CIF has been generated from an entry in the Cambridge 
# Structural Database, then it will include bibliographic, chemical, 
# crystal, experimental, refinement or atomic coordinate data resulting 
# from the CCDC's data processing and validation procedures.
#
#######################################################################

data_EQITON
_symmetry_cell_setting           monoclinic
_symmetry_space_group_name_H-M   'C 2/c'
_symmetry_Int_Tables_number      15
_space_group_name_Hall           '-C 2yn'
loop_
_symmetry_equiv_pos_site_id
_symmetry_equiv_pos_as_xyz
1 x,y,z
2 1/2+x,1/2+y,z
3 x,-y,1/2+z
4 1/2+x,1/2-y,1/2+z
5 -x,-y,-z
6 1/2-x,1/2-y,-z
7 -x,y,1/2-z
8 1/2-x,1/2+y,1/2-z
_cell_length_a                   17.779(4)
_cell_length_b                   8.1350(16)
_cell_length_c                   10.181(2)
_cell_angle_alpha                90
_cell_angle_beta                 123.87(3)
_cell_angle_gamma                90
_cell_volume                     1222.62
loop_
_atom_site_label
_atom_site_type_symbol
_atom_site_fract_x
_atom_site_fract_y
_atom_site_fract_z
Mn1 Mn 1.0000 0.21368(5) 1.2500
Cl1 Cl 0.88422(4) 0.40858(7) 1.21269(7)
N1 N 0.92027(10) 0.1483(2) 0.98474(18)
N2 N 0.92050(10) -0.01254(19) 0.78948(17)
C1 C 0.84074(15) 0.2139(3) 0.8713(3)
H1 H 0.8138 0.2924 0.8989
C2 C 0.79759(14) 0.1680(3) 0.7141(2)
H2 H 0.7422 0.2133 0.6361
C3 C 0.83993(13) 0.0529(3) 0.6784(2)
H3 H 0.8120 0.0191 0.5739
C4 C 0.95634(11) 0.0374(2) 0.9380(2)
C4D C 1.04366(11) -0.0374(2) 1.0620(2)
N1D N 1.07973(10) -0.1483(2) 1.01526(18)
C1D C 1.15926(15) -0.2139(3) 1.1287(3)
H1D H 1.1862 -0.2924 1.1011
C2D C 1.20241(14) -0.1680(3) 1.2859(2)
H2D H 1.2578 -0.2133 1.3639
C3D C 1.16007(13) -0.0529(3) 1.3216(2)
N2D N 1.07950(10) 0.01254(19) 1.21052(17)
H3D H 1.1880 -0.0191 1.4261
Cl1F Cl 1.11578(4) 0.40858(7) 1.28731(7)
N1F N 1.07973(10) 0.1483(2) 1.51526(18)
N2B N 0.92050(10) 0.01254(19) 1.28948(17)
Mn1B Mn 1.0000 -0.21368(5) 0.7500
O1 O 0.92145(14) 0.7185(2) 1.0486(2)
H4 H 0.929(2) 0.630(2) 1.116(3)
H5 H 0.925(2) 0.659(3) 0.971(3)
loop_
_geom_bond_atom_site_label_1
_geom_bond_atom_site_label_2
_geom_bond_site_symmetry_1
_geom_bond_site_symmetry_2
Mn1 Cl1 1_555 1_555
N1 Mn1 1_555 1_555
N2 C3 1_555 1_555
C1 N1 1_555 1_555
H1 C1 1_555 1_555
C2 C1 1_555 1_555
H2 C2 1_555 1_555
C3 C2 1_555 1_555
H3 C3 1_555 1_555
C4 N1 1_555 1_555
O1 H4 1_555 1_555
H5 O1 1_555 1_555
C4D C4 1_555 1_555
N1D C4D 1_555 1_555
C1D N1D 1_555 1_555
H1D C1D 1_555 1_555
C2D C1D 1_555 1_555
H2D C2D 1_555 1_555
C3D C2D 1_555 1_555
N2D Mn1 1_555 1_555
H3D C3D 1_555 1_555
Cl1F Mn1 1_555 1_555
N1F Mn1 1_555 1_555
N2B Mn1 1_555 1_555
Mn1B N2 1_555 1_555
N2 C4 1_555 1_555
C4D N2D 1_555 1_555
N1D Mn1B 1_555 1_555
C3D N2D 1_555 1_555

#END
