
#######################################################################
#
#                 Cambridge Crystallographic Data Centre
#                                CCDC 
#
#######################################################################
#
# If this CIF has been generated from an entry in the Cambridge 
# Structural Database, then it will include bibliographic, chemical, 
# crystal, experimental, refinement or atomic coordinate data resulting 
# from the CCDC's data processing and validation procedures.
#
#######################################################################

data_EQIVEF
_symmetry_cell_setting           orthorhombic
_symmetry_space_group_name_H-M   'P 21 21 21'
_symmetry_Int_Tables_number      19
_space_group_name_Hall           'P 2ac 2ab'
loop_
_symmetry_equiv_pos_site_id
_symmetry_equiv_pos_as_xyz
1 x,y,z
2 1/2-x,-y,1/2+z
3 -x,1/2+y,1/2-z
4 1/2+x,1/2-y,-z
_cell_length_a                   8.1753(16)
_cell_length_b                   9.5485(19)
_cell_length_c                   24.017(5)
_cell_angle_alpha                90
_cell_angle_beta                 90
_cell_angle_gamma                90
_cell_volume                     1874.81
loop_
_atom_site_label
_atom_site_type_symbol
_atom_site_fract_x
_atom_site_fract_y
_atom_site_fract_z
Mn1 Mn 0.79175(7) 0.11674(6) 0.17394(2)
N1 N 0.7149(4) 0.1458(3) 0.08444(10)
C1 C 0.6413(5) 0.2630(4) 0.06740(17)
H1 H 0.6469 0.3416 0.0902
C2 C 0.5576(5) 0.2733(5) 0.01801(17)
H2 H 0.5093 0.3572 0.0073
C3 C 0.5472(5) 0.1576(5) -0.01480(17)
H3 H 0.4905 0.1613 -0.0483
C4 C 0.6212(4) 0.0344(4) 0.00178(15)
H4 H 0.6134 -0.0457 -0.0201
C5 C 0.7070(4) 0.0319(3) 0.05141(13)
C6 C 0.7860(4) -0.0975(3) 0.07411(12)
N2 N 0.8108(4) -0.0950(3) 0.12975(10)
C7 C 0.8642(5) -0.2115(4) 0.15418(15)
H5 H 0.8856 -0.2112 0.1922
C8 C 0.8880(5) -0.3314(4) 0.12432(17)
H6 H 0.9165 -0.4130 0.1431
N3 N 0.8718(4) -0.3352(3) 0.06910(12)
C9 C 0.8277(4) -0.2166(3) 0.04366(14)
C10 C 0.8368(4) -0.2273(4) -0.01865(14)
N4 N 0.9162(3) -0.1231(3) -0.04450(12)
C11 C 0.9304(5) -0.1348(5) -0.09968(16)
H7 H 0.9851 -0.0637 -0.1185
C12 C 0.8698(5) -0.2449(5) -0.13082(17)
H8 H 0.8838 -0.2478 -0.1692
C13 C 0.7882(6) -0.3498(4) -0.10339(16)
H9 H 0.7446 -0.4251 -0.1229
C14 C 0.7721(5) -0.3413(4) -0.04613(16)
H10 H 0.7184 -0.4115 -0.0265
N5 N 0.8412(5) 0.0268(4) 0.25471(14)
C15 C 0.8257(5) -0.0487(5) 0.29143(18)
N6 N 0.8003(5) -0.1259(4) 0.33555(13)
C16 C 0.8783(5) -0.2436(5) 0.34097(15)
N7 N 0.9450(4) -0.3470(4) 0.34981(14)
N8 N 0.7737(5) 0.3358(3) 0.19853(14)
C17 C 0.7275(5) 0.4345(4) 0.21956(15)
N9 N 0.6880(5) 0.5554(4) 0.23944(16)
C18 C 0.5703(5) 0.5685(4) 0.27516(16)
N10 N 0.4707(4) 0.5919(4) 0.30660(14)
N7B N 1.0550(4) 0.1530(4) 0.15019(14)
N10B N 0.5293(4) 0.0919(4) 0.19340(14)
Mn1B Mn 1.20825(7) -0.38326(6) 0.32606(2)
Mn1B_2 Mn 0.20825(7) 0.61674(6) 0.32606(2)
loop_
_geom_bond_atom_site_label_1
_geom_bond_atom_site_label_2
_geom_bond_site_symmetry_1
_geom_bond_site_symmetry_2
Mn1 N1 1_555 1_555
N1 C1 1_555 1_555
C1 H1 1_555 1_555
C2 C1 1_555 1_555
H2 C2 1_555 1_555
C3 C2 1_555 1_555
H3 C3 1_555 1_555
C4 C3 1_555 1_555
H4 C4 1_555 1_555
C5 N1 1_555 1_555
C6 C5 1_555 1_555
N2 Mn1 1_555 1_555
C7 N2 1_555 1_555
H5 C7 1_555 1_555
C8 C7 1_555 1_555
H6 C8 1_555 1_555
N3 C8 1_555 1_555
C9 C6 1_555 1_555
C10 C9 1_555 1_555
N4 C10 1_555 1_555
C11 N4 1_555 1_555
H7 C11 1_555 1_555
C12 C11 1_555 1_555
H8 C12 1_555 1_555
C13 C12 1_555 1_555
H9 C13 1_555 1_555
C14 C10 1_555 1_555
H10 C14 1_555 1_555
N5 Mn1 1_555 1_555
C15 N5 1_555 1_555
N6 C15 1_555 1_555
C16 N6 1_555 1_555
N7 C16 1_555 1_555
N8 Mn1 1_555 1_555
C17 N8 1_555 1_555
N9 C17 1_555 1_555
C18 N9 1_555 1_555
N10 C18 1_555 1_555
N7B Mn1 1_555 1_555
N10B Mn1 1_555 1_555
Mn1B N7 1_555 1_555
Mn1B_2 N10 1_555 1_555
C4 C5 1_555 1_555
C6 N2 1_555 1_555
N3 C9 1_555 1_555
C13 C14 1_555 1_555

#END
