
#######################################################################
#
#                 Cambridge Crystallographic Data Centre
#                                CCDC 
#
#######################################################################
#
# If this CIF has been generated from an entry in the Cambridge 
# Structural Database, then it will include bibliographic, chemical, 
# crystal, experimental, refinement or atomic coordinate data resulting 
# from the CCDC's data processing and validation procedures.
#
#######################################################################

data_EQIWIL
_symmetry_cell_setting           monoclinic
_symmetry_space_group_name_H-M   'P 21/n'
_symmetry_Int_Tables_number      14
_space_group_name_Hall           '-P 2yn'
loop_
_symmetry_equiv_pos_site_id
_symmetry_equiv_pos_as_xyz
1 x,y,z
2 1/2-x,1/2+y,1/2-z
3 -x,-y,-z
4 1/2+x,1/2-y,1/2+z
_cell_length_a                   9.828(3)
_cell_length_b                   17.493(5)
_cell_length_c                   11.616(4)
_cell_angle_alpha                90
_cell_angle_beta                 110.146(6)
_cell_angle_gamma                90
_cell_volume                     1874.85
loop_
_atom_site_label
_atom_site_type_symbol
_atom_site_fract_x
_atom_site_fract_y
_atom_site_fract_z
C1 C 0.0974(5) 0.1402(2) 0.1855(4)
H1 H 0.0101 0.1297 0.1966
C2 C 0.1958(5) 0.1857(3) 0.2693(4)
H2 H 0.1743 0.2052 0.3356
C3 C 0.3264(5) 0.2030(2) 0.2564(4)
C4 C 0.3474(5) 0.1748(2) 0.1548(5)
H3 H 0.4321 0.1864 0.1398
C5 C 0.2445(5) 0.1293(2) 0.0741(4)
H4 H 0.2625 0.1110 0.0056
C6 C 0.4401(6) 0.2484(3) 0.3538(5)
H5 H 0.3968 0.2951 0.3701
H6 H 0.5172 0.2623 0.3235
C7 C 0.5050(6) 0.2027(3) 0.4747(5)
H7 H 0.5740 0.2351 0.5348
H8 H 0.4278 0.1907 0.5059
C8 C 0.5766(6) 0.1327(3) 0.4634(5)
H9 H 0.6359 0.1417 0.4131
H10 H 0.5043 0.0946 0.4226
C9 C 0.6717(5) 0.1022(3) 0.5881(4)
C10 C 0.6185(5) 0.0786(4) 0.6740(5)
H11 H 0.5189 0.0781 0.6570
C11 C 0.7108(5) 0.0550(3) 0.7876(5)
H12 H 0.6702 0.0408 0.8459
C12 C 0.9044(4) 0.0747(2) 0.7322(4)
H13 H 1.0040 0.0725 0.7495
C13 C 0.8201(5) 0.1014(3) 0.6204(4)
H14 H 0.8631 0.1191 0.5656
C14 C -0.2498(5) 0.0511(3) 0.1153(5)
C15 C -0.3502(6) 0.0109(4) 0.1699(6)
H15 H -0.3792 0.0478 0.2195
H16 H -0.4370 -0.0038 0.1031
C16 C -0.2940(5) -0.0583(3) 0.2471(5)
C17 C -0.2016(5) -0.0511(3) 0.3658(5)
H17 H -0.1744 -0.0023 0.3970
C18 C -0.1478(6) -0.1128(3) 0.4404(5)
H18 H -0.0856 -0.1055 0.5205
C19 C -0.1862(6) -0.1853(3) 0.3961(5)
C20 C -0.2808(6) -0.1950(3) 0.2791(6)
H19 H -0.3093 -0.2438 0.2487
C21 C -0.3334(6) -0.1320(4) 0.2068(5)
H20 H -0.3981 -0.1393 0.1275
Mn1 Mn 0.0000 0.0000 0.0000
N1 N 0.1208(3) 0.10995(17) 0.0882(3)
N2 N 0.8526(3) 0.05155(17) 0.8183(3)
O1 O -0.1274(5) -0.2451(2) 0.4722(4)
H21 H -0.1671 -0.2849 0.4408
O2 O -0.1617(3) 0.01168(14) 0.0869(2)
O3 O -0.2659(5) 0.1193(2) 0.0972(6)
C1B C -0.0974(5) -0.1402(2) -0.1855(4)
H1B H -0.0101 -0.1297 -0.1966
C2B C -0.1958(5) -0.1857(3) -0.2693(4)
H2B H -0.1743 -0.2052 -0.3356
C3B C -0.3264(5) -0.2030(2) -0.2564(4)
C4B C -0.3474(5) -0.1748(2) -0.1548(5)
H3B H -0.4321 -0.1864 -0.1398
C5B C -0.2445(5) -0.1293(2) -0.0741(4)
H4B H -0.2625 -0.1110 -0.0056
C6B C -0.4401(6) -0.2484(3) -0.3538(5)
H5B H -0.3968 -0.2951 -0.3701
H6B H -0.5172 -0.2623 -0.3235
C7B C -0.5050(6) -0.2027(3) -0.4747(5)
H7B H -0.5740 -0.2351 -0.5348
H8B H -0.4278 -0.1907 -0.5059
C8B C -0.5766(6) -0.1327(3) -0.4634(5)
H9B H -0.6359 -0.1417 -0.4131
H10B H -0.5043 -0.0946 -0.4226
C9B C -0.6717(5) -0.1022(3) -0.5881(4)
C10B C -0.6185(5) -0.0786(4) -0.6740(5)
H11B H -0.5189 -0.0781 -0.6570
C11B C -0.7108(5) -0.0550(3) -0.7876(5)
H12B H -0.6702 -0.0408 -0.8459
C12B C -0.9044(4) -0.0747(2) -0.7322(4)
H13B H -1.0040 -0.0725 -0.7495
C13B C -0.8201(5) -0.1014(3) -0.6204(4)
H14B H -0.8631 -0.1191 -0.5656
C14B C 0.2498(5) -0.0511(3) -0.1153(5)
C15B C 0.3502(6) -0.0109(4) -0.1699(6)
H15B H 0.3792 -0.0478 -0.2195
H16B H 0.4370 0.0038 -0.1031
C16B C 0.2940(5) 0.0583(3) -0.2471(5)
C17B C 0.2016(5) 0.0511(3) -0.3658(5)
H17B H 0.1744 0.0023 -0.3970
C18B C 0.1478(6) 0.1128(3) -0.4404(5)
H18B H 0.0856 0.1055 -0.5205
C19B C 0.1862(6) 0.1853(3) -0.3961(5)
C20B C 0.2808(6) 0.1950(3) -0.2791(6)
H19B H 0.3093 0.2438 -0.2487
C21B C 0.3334(6) 0.1320(4) -0.2068(5)
H20B H 0.3981 0.1393 -0.1275
Mn1_2 Mn -1.0000 0.0000 -1.0000
Mn1_3 Mn 1.0000 0.0000 1.0000
N1B N -0.1208(3) -0.10995(17) -0.0882(3)
N2B N -0.8526(3) -0.05155(17) -0.8183(3)
N2_2 N -0.1474(3) 0.05155(17) -0.1817(3)
N2B_2 N 0.1474(3) -0.05155(17) 0.1817(3)
O1B O 0.1274(5) 0.2451(2) -0.4722(4)
H21B H 0.1671 0.2849 -0.4408
O2B O 0.1617(3) -0.01168(14) -0.0869(2)
O3B O 0.2659(5) -0.1193(2) -0.0972(6)
loop_
_geom_bond_atom_site_label_1
_geom_bond_atom_site_label_2
_geom_bond_site_symmetry_1
_geom_bond_site_symmetry_2
C1 H1 1_555 1_555
C2 C1 1_555 1_555
H2 C2 1_555 1_555
C3 C2 1_555 1_555
C4 C3 1_555 1_555
H3 C4 1_555 1_555
C5 C4 1_555 1_555
H4 C5 1_555 1_555
C6 C3 1_555 1_555
H5 C6 1_555 1_555
H6 C6 1_555 1_555
C7 C6 1_555 1_555
H7 C7 1_555 1_555
H8 C7 1_555 1_555
C8 C7 1_555 1_555
H9 C8 1_555 1_555
H10 C8 1_555 1_555
C9 C8 1_555 1_555
C10 C9 1_555 1_555
H11 C10 1_555 1_555
C11 C10 1_555 1_555
H12 C11 1_555 1_555
C12 H13 1_555 1_555
C13 C9 1_555 1_555
H14 C13 1_555 1_555
C14 C15 1_555 1_555
C15 H15 1_555 1_555
H16 C15 1_555 1_555
C16 C15 1_555 1_555
C17 C16 1_555 1_555
H17 C17 1_555 1_555
C18 C17 1_555 1_555
H18 C18 1_555 1_555
C19 C18 1_555 1_555
C20 C19 1_555 1_555
H19 C20 1_555 1_555
C21 C16 1_555 1_555
H20 C21 1_555 1_555
Mn1 N1 1_555 1_555
N1 C1 1_555 1_555
N2 C11 1_555 1_555
O1 C19 1_555 1_555
H21 O1 1_555 1_555
O2 C14 1_555 1_555
O3 C14 1_555 1_555
C1B H1B 1_555 1_555
C2B C1B 1_555 1_555
H2B C2B 1_555 1_555
C3B C2B 1_555 1_555
C4B C3B 1_555 1_555
H3B C4B 1_555 1_555
C5B C4B 1_555 1_555
H4B C5B 1_555 1_555
C6B C3B 1_555 1_555
H5B C6B 1_555 1_555
H6B C6B 1_555 1_555
C7B C6B 1_555 1_555
H7B C7B 1_555 1_555
H8B C7B 1_555 1_555
C8B C7B 1_555 1_555
H9B C8B 1_555 1_555
H10B C8B 1_555 1_555
C9B C8B 1_555 1_555
C10B C9B 1_555 1_555
H11B C10B 1_555 1_555
C11B C10B 1_555 1_555
H12B C11B 1_555 1_555
C12B H13B 1_555 1_555
C13B C9B 1_555 1_555
H14B C13B 1_555 1_555
C14B C15B 1_555 1_555
C15B H15B 1_555 1_555
H16B C15B 1_555 1_555
C16B C15B 1_555 1_555
C17B C16B 1_555 1_555
H17B C17B 1_555 1_555
C18B C17B 1_555 1_555
H18B C18B 1_555 1_555
C19B C18B 1_555 1_555
C20B C19B 1_555 1_555
H19B C20B 1_555 1_555
C21B C16B 1_555 1_555
H20B C21B 1_555 1_555
Mn1_2 N2B 1_555 1_555
Mn1_3 N2 1_555 1_555
N1B Mn1 1_555 1_555
N2B C11B 1_555 1_555
N2_2 Mn1 1_555 1_555
N2B_2 Mn1 1_555 1_555
O1B C19B 1_555 1_555
H21B O1B 1_555 1_555
O2B Mn1 1_555 1_555
O3B C14B 1_555 1_555
C5 N1 1_555 1_555
C12 C13 1_555 1_555
C12 N2 1_555 1_555
C20 C21 1_555 1_555
Mn1 O2 1_555 1_555
C1B N1B 1_555 1_555
C5B N1B 1_555 1_555
C12B C13B 1_555 1_555
C12B N2B 1_555 1_555
C14B O2B 1_555 1_555
C20B C21B 1_555 1_555

#END
