
#######################################################################
#
#                 Cambridge Crystallographic Data Centre
#                                CCDC 
#
#######################################################################
#
# If this CIF has been generated from an entry in the Cambridge 
# Structural Database, then it will include bibliographic, chemical, 
# crystal, experimental, refinement or atomic coordinate data resulting 
# from the CCDC's data processing and validation procedures.
#
#######################################################################

data_EQIWOR
_symmetry_cell_setting           monoclinic
_symmetry_space_group_name_H-M   'P 21/c'
_symmetry_Int_Tables_number      14
_space_group_name_Hall           '-P 2ybc'
loop_
_symmetry_equiv_pos_site_id
_symmetry_equiv_pos_as_xyz
1 x,y,z
2 -x,1/2+y,1/2-z
3 -x,-y,-z
4 x,1/2-y,1/2+z
_cell_length_a                   11.7214(13)
_cell_length_b                   17.1582(19)
_cell_length_c                   24.625(3)
_cell_angle_alpha                90
_cell_angle_beta                 103.055(3)
_cell_angle_gamma                90
_cell_volume                     4824.53
loop_
_atom_site_label
_atom_site_type_symbol
_atom_site_fract_x
_atom_site_fract_y
_atom_site_fract_z
C1 C -0.2327(5) 0.3132(3) 0.20859(19)
H1 H -0.2621 0.2766 0.1811
C2 C -0.1169(5) 0.3099(3) 0.2332(2)
H2 H -0.0699 0.2719 0.2225
C3 C -0.0695(5) 0.3622(3) 0.2737(2)
C4 C -0.1435(5) 0.4160(3) 0.2876(2)
H3 H -0.1158 0.4531 0.3149
C5 C -0.2605(4) 0.4147(3) 0.2604(2)
H4 H -0.3099 0.4514 0.2708
C6 C 0.0598(5) 0.3542(4) 0.3023(3)
H5 H 0.0700 0.3044 0.3213
H6 H 0.1040 0.3521 0.2734
C7 C -0.4533(4) 0.3460(3) -0.04251(19)
H7 H -0.4555 0.3988 -0.0342
C8 C -0.3893(4) 0.3232(3) -0.08038(19)
H8 H -0.3497 0.3603 -0.0967
C9 C -0.3837(4) 0.2471(4) -0.0939(2)
C10 C -0.4424(5) 0.1955(3) -0.0682(2)
H9 H -0.4403 0.1424 -0.0758
C11 C -0.5053(4) 0.2226(3) -0.03067(19)
H10 H -0.5453 0.1864 -0.0138
C12 C -0.3112(4) 0.2197(4) -0.1336(2)
H11 H -0.3453 0.2390 -0.1708
H12 H -0.3119 0.1632 -0.1350
C13 C 0.4104(4) 0.3239(3) 0.26594(18)
H13 H 0.4291 0.2755 0.2533
C14 C 0.3460(4) 0.3255(3) 0.30670(18)
H14 H 0.3230 0.2790 0.3205
C15 C 0.3164(4) 0.3947(3) 0.32646(18)
C16 C 0.3561(4) 0.4602(3) 0.30527(19)
H15 H 0.3402 0.5090 0.3181
C17 C 0.4198(4) 0.4539(3) 0.26491(19)
H16 H 0.4457 0.4996 0.2513
C18 C 0.2408(4) 0.3989(3) 0.36834(18)
H17 H 0.2671 0.4418 0.3938
H18 H 0.2496 0.3512 0.3900
C19 C 0.1106(5) 0.4107(4) 0.3403(2)
H19 H 0.0667 0.4134 0.3693
H20 H 0.1023 0.4606 0.3214
C20 C 0.2008(5) 0.2276(3) -0.00207(19)
H21 H 0.2610 0.1914 0.0081
C21 C 0.0883(5) 0.2006(3) -0.02302(19)
H22 H 0.0754 0.1472 -0.0269
C22 C -0.0032(5) 0.2499(3) -0.0380(2)
C23 C 0.0225(5) 0.3273(3) -0.03161(19)
H23 H -0.0369 0.3641 -0.0412
C24 C 0.1371(5) 0.3515(3) -0.01083(19)
H24 H 0.1522 0.4046 -0.0072
C25 C -0.1256(4) 0.2208(3) -0.0585(2)
H25 H -0.1241 0.1643 -0.0587
H26 H -0.1720 0.2370 -0.0325
C26 C -0.1841(4) 0.2485(3) -0.1153(2)
H27 H -0.1401 0.2304 -0.1418
H28 H -0.1835 0.3050 -0.1158
C27 C 0.6063(4) 0.5344(3) 0.1466(2)
C28 C 0.6465(4) 0.6153(3) 0.16746(18)
H29 H 0.6036 0.6317 0.1948
H30 H 0.6293 0.6517 0.1366
C29 C 0.7781(5) 0.6171(3) 0.1938(2)
C30 C 0.8169(5) 0.6196(3) 0.2499(2)
H31 H 0.7628 0.6219 0.2723
C31 C 0.9371(5) 0.6188(3) 0.2750(2)
H32 H 0.9626 0.6203 0.3136
C32 C 1.0151(5) 0.6158(3) 0.2421(3)
C33 C 0.9778(5) 0.6158(3) 0.1864(2)
H33 H 1.0320 0.6157 0.1640
C34 C 0.8582(5) 0.6159(3) 0.1617(2)
H34 H 0.8333 0.6151 0.1231
C35 C 0.4458(4) 0.1293(3) 0.14665(18)
H35 H 0.4188 0.1268 0.1811
H36 H 0.5233 0.1063 0.1539
C36 C 0.3648(5) 0.0796(3) 0.1035(2)
C37 C 0.4066(5) 0.0446(3) 0.0612(2)
H37 H 0.4853 0.0494 0.0606
C38 C 0.3320(5) 0.0025(3) 0.0196(2)
H38 H 0.3611 -0.0214 -0.0083
C39 C 0.2164(5) -0.0036(3) 0.0198(2)
C40 C 0.1742(5) 0.0300(3) 0.0610(2)
H39 H 0.0953 0.0255 0.0613
C41 C 0.2494(5) 0.0713(3) 0.1030(2)
H40 H 0.2199 0.0938 0.1314
C42 C 0.1960(4) 0.4355(3) 0.15274(19)
H41 H 0.2367 0.4064 0.1851
H42 H 0.1792 0.4871 0.1650
C43 C 0.0820(5) 0.3946(3) 0.1265(2)
C44 C -0.0176(5) 0.4358(3) 0.1028(2)
H43 H -0.0134 0.4898 0.1005
C45 C -0.1227(5) 0.3995(3) 0.0825(2)
H44 H -0.1888 0.4290 0.0676
C46 C -0.1308(5) 0.3199(3) 0.08400(19)
C47 C -0.0309(5) 0.2772(3) 0.1051(2)
H45 H -0.0338 0.2230 0.1051
C48 C 0.0743(5) 0.3158(3) 0.1265(2)
H46 H 0.1411 0.2866 0.1411
C49 C 0.4564(4) 0.2138(3) 0.1321(2)
C50 C 0.2738(5) 0.4423(3) 0.1110(2)
Co1 Co 0.51948(6) 0.37619(4) 0.17341(2)
Co2 Co 0.40093(6) 0.33776(4) 0.04347(2)
N1 N -0.3064(3) 0.3650(2) 0.22099(15)
N2 N -0.5119(3) 0.2971(2) -0.01741(14)
N3 N 0.4467(3) 0.3866(2) 0.24404(14)
N4 N 0.2263(4) 0.3022(3) 0.00418(15)
O1 O 0.5491(3) 0.49515(17) 0.17388(12)
O2 O 0.6339(3) 0.51097(17) 0.10209(12)
O3 O 0.4236(3) 0.23280(16) 0.08183(12)
O4 O 0.5007(3) 0.25807(17) 0.17208(12)
O5 O 0.5714(2) 0.37005(15) 0.09361(10)
H47 H 0.6228 0.3351 0.0934
H48 H 0.5949 0.4137 0.0840
O6 O 0.3523(3) 0.38870(17) 0.11369(11)
O7 O 0.2545(3) 0.4962(2) 0.07653(14)
O8 O 1.1346(3) 0.6125(3) 0.26327(15)
H49 H 1.1489 0.6201 0.2970
O9 O -0.2398(3) 0.2863(2) 0.06548(15)
H50 H -0.2387 0.2416 0.0774
O10 O 0.1376(3) -0.0425(2) -0.02043(15)
H51 H 0.1727 -0.0574 -0.0453
O11 O 0.3801(3) 0.44771(16) 0.00721(11)
H52 H 0.3139 0.4501 -0.0156
H53 H 0.3833 0.4818 0.0325
Co1_2 Co -0.48052(6) 0.37619(4) 0.17341(2)
Co2_2 Co -0.59907(6) 0.33776(4) 0.04347(2)
N1_2 N 0.6936(3) 0.3650(2) 0.22099(15)
N2_2 N 0.4881(3) 0.2971(2) -0.01741(14)
Cl1 Cl 0.75556(13) 0.12198(8) 0.11073(5)
O12 O 0.6413(6) 0.1542(4) 0.2667(3)
H54 H 0.6019 0.1825 0.2408
H55 H 0.7140 0.1607 0.2686
loop_
_geom_bond_atom_site_label_1
_geom_bond_atom_site_label_2
_geom_bond_site_symmetry_1
_geom_bond_site_symmetry_2
C1 H1 1_555 1_555
C2 C1 1_555 1_555
H2 C2 1_555 1_555
C3 C2 1_555 1_555
C4 C3 1_555 1_555
H3 C4 1_555 1_555
C5 C4 1_555 1_555
H4 C5 1_555 1_555
C6 C3 1_555 1_555
H5 C6 1_555 1_555
H6 C6 1_555 1_555
C7 H7 1_555 1_555
C8 C7 1_555 1_555
H8 C8 1_555 1_555
C9 C8 1_555 1_555
C10 C9 1_555 1_555
H9 C10 1_555 1_555
C11 C10 1_555 1_555
H10 C11 1_555 1_555
C12 C9 1_555 1_555
H11 C12 1_555 1_555
H12 C12 1_555 1_555
C13 H13 1_555 1_555
C14 C13 1_555 1_555
H14 C14 1_555 1_555
C15 C14 1_555 1_555
C16 C15 1_555 1_555
H15 C16 1_555 1_555
C17 C16 1_555 1_555
H16 C17 1_555 1_555
C18 C15 1_555 1_555
H17 C18 1_555 1_555
H18 C18 1_555 1_555
C19 C6 1_555 1_555
H19 C19 1_555 1_555
H20 C19 1_555 1_555
C20 H21 1_555 1_555
C21 C20 1_555 1_555
H22 C21 1_555 1_555
C22 C21 1_555 1_555
C23 C22 1_555 1_555
H23 C23 1_555 1_555
C24 C23 1_555 1_555
H24 C24 1_555 1_555
C25 C22 1_555 1_555
H25 C25 1_555 1_555
H26 C25 1_555 1_555
C26 C12 1_555 1_555
H27 C26 1_555 1_555
H28 C26 1_555 1_555
C27 C28 1_555 1_555
C28 H29 1_555 1_555
H30 C28 1_555 1_555
C29 C28 1_555 1_555
C30 C29 1_555 1_555
H31 C30 1_555 1_555
C31 C30 1_555 1_555
H32 C31 1_555 1_555
C32 C31 1_555 1_555
C33 C32 1_555 1_555
H33 C33 1_555 1_555
C34 C29 1_555 1_555
H34 C34 1_555 1_555
C35 H35 1_555 1_555
H36 C35 1_555 1_555
C36 C35 1_555 1_555
C37 C36 1_555 1_555
H37 C37 1_555 1_555
C38 C37 1_555 1_555
H38 C38 1_555 1_555
C39 C38 1_555 1_555
C40 C39 1_555 1_555
H39 C40 1_555 1_555
C41 C36 1_555 1_555
H40 C41 1_555 1_555
C42 H41 1_555 1_555
H42 C42 1_555 1_555
C43 C42 1_555 1_555
C44 C43 1_555 1_555
H43 C44 1_555 1_555
C45 C44 1_555 1_555
H44 C45 1_555 1_555
C46 C45 1_555 1_555
C47 C46 1_555 1_555
H45 C47 1_555 1_555
C48 C43 1_555 1_555
H46 C48 1_555 1_555
C49 C35 1_555 1_555
C50 C42 1_555 1_555
Co1 N3 1_555 1_555
Co2 N4 1_555 1_555
N1 C1 1_555 1_555
N2 C7 1_555 1_555
N3 C13 1_555 1_555
N4 C20 1_555 1_555
O1 C27 1_555 1_555
O2 C27 1_555 1_555
O3 C49 1_555 1_555
O4 C49 1_555 1_555
O5 Co1 1_555 1_555
H47 O5 1_555 1_555
H48 O5 1_555 1_555
O6 C50 1_555 1_555
O7 C50 1_555 1_555
O8 C32 1_555 1_555
H49 O8 1_555 1_555
O9 C46 1_555 1_555
H50 O9 1_555 1_555
O10 C39 1_555 1_555
H51 O10 1_555 1_555
O11 Co2 1_555 1_555
H52 O11 1_555 1_555
H53 O11 1_555 1_555
O12 H54 1_555 1_555
H55 O12 1_555 1_555
Co1_2 N1 1_555 1_555
Co2_2 N2 1_555 1_555
N1_2 Co1 1_555 1_555
N2_2 Co2 1_555 1_555
C5 N1 1_555 1_555
C11 N2 1_555 1_555
C17 N3 1_555 1_555
C18 C19 1_555 1_555
C24 N4 1_555 1_555
C25 C26 1_555 1_555
C33 C34 1_555 1_555
C40 C41 1_555 1_555
C47 C48 1_555 1_555
Co1 O1 1_555 1_555
Co1 O4 1_555 1_555
Co1 O6 1_555 1_555
Co2 O3 1_555 1_555
Co2 O5 1_555 1_555
Co2 O6 1_555 1_555

#END
