
#######################################################################
#
#                 Cambridge Crystallographic Data Centre
#                                CCDC 
#
#######################################################################
#
# If this CIF has been generated from an entry in the Cambridge 
# Structural Database, then it will include bibliographic, chemical, 
# crystal, experimental, refinement or atomic coordinate data resulting 
# from the CCDC's data processing and validation procedures.
#
#######################################################################

data_EQIXAD
_symmetry_cell_setting           triclinic
_symmetry_space_group_name_H-M   'P -1'
_symmetry_Int_Tables_number      2
_space_group_name_Hall           '-P 1'
loop_
_symmetry_equiv_pos_site_id
_symmetry_equiv_pos_as_xyz
1 x,y,z
2 -x,-y,-z
_cell_length_a                   15.5503(8)
_cell_length_b                   16.3975(9)
_cell_length_c                   25.675(1)
_cell_angle_alpha                86.469(1)
_cell_angle_beta                 83.772(1)
_cell_angle_gamma                80.423(1)
_cell_volume                     6411.09
loop_
_atom_site_label
_atom_site_type_symbol
_atom_site_fract_x
_atom_site_fract_y
_atom_site_fract_z
Mo1 Mo 0.73854(5) 0.77685(5) 0.39965(3)
O1 O 0.7304(3) 0.8713(4) 0.3322(2)
O2 O 0.7670(3) 0.6924(4) 0.3270(2)
O3 O 0.8607(4) 0.7800(4) 0.3905(2)
O4 O 0.6244(3) 0.7750(4) 0.3687(2)
O5 O 0.7340(4) 0.6892(4) 0.4375(2)
O6 O 0.7033(4) 0.8520(4) 0.4432(2)
Mo2 Mo 0.57827(5) 0.88219(5) 0.33008(3)
As1 As 0.80419(6) 0.93278(6) 0.30842(4)
Mo3 Mo 0.62610(5) 0.67378(5) 0.32583(3)
As2 As 0.86118(6) 0.64207(6) 0.29715(4)
Mo4 Mo 0.97391(5) 0.78196(5) 0.35866(3)
O7 O 0.6318(4) 0.7887(4) 0.2684(2)
O8 O 0.5941(4) 0.9607(4) 0.2745(2)
O9 O 0.5638(4) 0.9429(4) 0.3818(2)
O10 O 0.4747(4) 0.8656(4) 0.3252(3)
O11 O 0.7803(3) 0.9688(4) 0.2481(2)
O12 O 0.9081(3) 0.8794(4) 0.3024(2)
C1 C 0.7982(6) 1.0193(6) 0.3537(4)
O13 O 0.6706(4) 0.6117(4) 0.2668(2)
O14 O 0.6383(4) 0.6018(4) 0.3764(2)
O15 O 0.5165(4) 0.6860(4) 0.3209(2)
O16 O 0.8467(4) 0.6243(4) 0.2347(2)
O17 O 0.9405(3) 0.7020(4) 0.2955(2)
C2 C 0.8942(6) 0.5416(6) 0.3346(3)
O18 O 1.0603(3) 0.7914(4) 0.2929(2)
O19 O 1.0293(4) 0.6937(4) 0.3859(2)
O20 O 1.0037(4) 0.8580(4) 0.3912(2)
As3 As 0.64037(6) 0.80164(6) 0.20285(4)
Mo5 Mo 0.64711(5) 1.01789(5) 0.21776(3)
Mo6 Mo 0.86106(5) 1.02860(5) 0.18089(3)
Mo7 Mo 1.03533(5) 0.90216(5) 0.25236(3)
C3 C 0.7244(7) 1.0465(7) 0.3876(4)
C4 C 0.8703(6) 1.0618(6) 0.3527(4)
Mo8 Mo 0.73211(5) 0.58122(5) 0.20201(3)
Mo9 Mo 0.94502(5) 0.59389(5) 0.16169(3)
Mo10 Mo 1.07246(5) 0.69401(5) 0.24603(3)
C5 C 0.9677(6) 0.4855(6) 0.3156(4)
C6 C 0.8481(6) 0.5198(6) 0.3813(3)
O21 O 0.7120(3) 0.7212(3) 0.1778(2)
O22 O 0.6813(3) 0.8899(4) 0.1834(2)
C7 C 0.5274(6) 0.8095(6) 0.1791(4)
O23 O 0.7417(4) 1.0239(3) 0.1569(2)
O24 O 0.5626(4) 1.0420(4) 0.1805(2)
O25 O 0.6500(4) 1.1094(4) 0.2449(3)
O26 O 0.8639(3) 0.8995(3) 0.1512(2)
O27 O 0.9586(4) 0.9814(4) 0.2143(2)
O28 O 0.8315(4) 1.1195(4) 0.2108(2)
O29 O 0.9075(4) 1.0585(4) 0.1206(2)
O30 O 0.9890(4) 0.8048(3) 0.2066(2)
O31 O 1.1290(4) 0.8937(4) 0.2117(2)
O32 O 1.0583(4) 0.9622(4) 0.2998(2)
H1 H 0.6760 1.0175 0.3905
C8 C 0.7201(7) 1.1150(7) 0.4172(4)
C9 C 0.8656(7) 1.1292(7) 0.3835(5)
H2 H 0.9224 1.0441 0.3307
O33 O 0.8217(4) 0.6016(4) 0.1401(2)
O34 O 0.7756(4) 0.4818(4) 0.2157(2)
O35 O 0.6483(4) 0.5715(4) 0.1666(2)
O36 O 0.8910(3) 0.7292(3) 0.1479(2)
O37 O 0.9991(4) 0.5921(4) 0.1008(2)
O38 O 0.9585(4) 0.4918(4) 0.1801(2)
O39 O 1.0253(4) 0.6319(4) 0.2007(2)
O40 O 1.1152(4) 0.6188(4) 0.2884(2)
O41 O 1.1629(4) 0.7179(4) 0.2083(2)
H3 H 0.9994 0.4976 0.2831
C10 C 0.9945(6) 0.4123(6) 0.3441(4)
C11 C 0.8744(6) 0.4470(6) 0.4089(4)
H4 H 0.7972 0.5559 0.3945
Mo11 Mo 0.78537(6) 0.70666(5) 0.09671(3)
Mo12 Mo 0.74382(5) 0.93498(5) 0.10464(3)
C12 C 0.4572(6) 0.7897(6) 0.2122(4)
C13 C 0.5157(7) 0.8347(7) 0.1283(4)
As4 As 0.94073(6) 0.81329(6) 0.15079(4)
H5 H 0.6683 1.1336 0.4392
C14 C 0.7919(7) 1.1571(7) 0.4148(4)
H6 H 0.9151 1.1565 0.3828
H7 H 1.0455 0.3757 0.3316
C15 C 0.9472(7) 0.3927(6) 0.3906(4)
H8 H 0.8420 0.4340 0.4410
O42 O 0.7606(4) 0.8229(4) 0.0890(2)
O43 O 0.8632(4) 0.6856(4) 0.0459(2)
O44 O 0.6958(4) 0.6793(4) 0.0745(2)
O45 O 0.6438(4) 0.9694(4) 0.0831(2)
O46 O 0.8100(4) 0.9739(4) 0.0568(2)
H9 H 0.4645 0.7713 0.2476
C16 C 0.3761(6) 0.7969(7) 0.1933(4)
C17 C 0.4353(7) 0.8436(7) 0.1089(4)
H10 H 0.5648 0.8465 0.1055
C18 C 1.0253(6) 0.8170(6) 0.0924(4)
N1 N 0.7873(6) 1.2258(6) 0.4433(4)
N2 N 0.9744(5) 0.3198(5) 0.4187(3)
H11 H 0.3275 0.7842 0.2162
C19 C 0.3641(6) 0.8219(7) 0.1423(4)
H12 H 0.4282 0.8639 0.0739
C20 C 1.0161(6) 0.8836(6) 0.0557(4)
C21 C 1.0931(6) 0.7529(6) 0.0828(4)
H13 H 0.8324 1.2523 0.4414
H14 H 0.7392 1.2435 0.4635
H15 H 0.9451 0.3078 0.4486
H16 H 1.0210 0.2856 0.4065
N3 N 0.2842(5) 0.8283(6) 0.1234(3)
H17 H 0.9678 0.9271 0.0610
C22 C 1.0763(7) 0.8877(6) 0.0114(4)
C23 C 1.1524(6) 0.7577(7) 0.0380(4)
H18 H 1.0997 0.7058 0.1064
H19 H 0.2388 0.8162 0.1442
H20 H 0.2782 0.8445 0.0905
H21 H 1.0703 0.9345 -0.0125
C24 C 1.1438(6) 0.8239(6) 0.0028(4)
H22 H 1.1999 0.7137 0.0318
N4 N 1.2044(5) 0.8276(5) -0.0403(3)
H23 H 1.1996 0.8711 -0.0622
H24 H 1.2480 0.7864 -0.0458
Co1 Co 0.24745(9) 0.23009(10) 0.16043(6)
O47 O 0.2865(4) 0.3307(5) 0.1947(3)
O48 O 0.2867(5) 0.1569(5) 0.2243(3)
S1 S 0.3726(3) 0.0955(3) 0.22290(18)
C25 C 0.4062(9) 0.0948(10) 0.2843(4)
H25 H 0.4261 0.1472 0.2890
H26 H 0.4546 0.0489 0.2883
H27 H 0.3573 0.0877 0.3107
C26 C 0.3432(14) -0.0007(8) 0.2295(9)
H28 H 0.3207 -0.0129 0.1971
H29 H 0.2975 -0.0023 0.2588
H30 H 0.3944 -0.0420 0.2362
O49 O 0.2214(5) 0.1319(5) 0.1214(3)
S2 S 0.1294(2) 0.1316(2) 0.10433(13)
C27 C 0.1240(9) 0.0272(5) 0.1016(5)
H31 H 0.1192 0.0023 0.1372
H32 H 0.1772 -0.0004 0.0818
H33 H 0.0726 0.0208 0.0842
C28 C 0.1341(10) 0.1577(11) 0.0378(4)
H34 H 0.1377 0.2168 0.0321
H35 H 0.0813 0.1462 0.0239
H36 H 0.1859 0.1250 0.0196
O50 O 0.3722(7) 0.2132(7) 0.1210(4)
S3 S 0.4209(5) 0.1676(5) 0.0756(3)
C29 C 0.4308(13) 0.0611(7) 0.0781(8)
H37 H 0.4722 0.0376 0.1034
H38 H 0.4525 0.0404 0.0434
H39 H 0.3735 0.0449 0.0891
C30 C 0.3568(12) 0.1958(14) 0.0260(7)
H40 H 0.3474 0.2562 0.0208
H41 H 0.3002 0.1770 0.0349
H42 H 0.3857 0.1705 -0.0062
O51 O 0.2020(6) 0.3054(7) 0.0984(4)
S4 S 0.1678(4) 0.3975(4) 0.0933(3)
C31 C 0.0686(9) 0.4013(15) 0.0667(8)
H43 H 0.0238 0.3882 0.0944
H44 H 0.0758 0.3609 0.0394
H45 H 0.0505 0.4570 0.0515
C32 C 0.2515(11) 0.4216(14) 0.0479(7)
H46 H 0.3050 0.4194 0.0653
H47 H 0.2348 0.4775 0.0326
H48 H 0.2623 0.3817 0.0201
N5 N 0.1240(5) 0.2429(5) 0.2053(3)
C33 C 0.0920(6) 0.1740(6) 0.2267(4)
H49 H 0.1295 0.1220 0.2251
C34 C 0.0079(6) 0.1769(6) 0.2504(3)
H50 H -0.0114 0.1269 0.2637
C35 C -0.0507(6) 0.2528(6) 0.2555(3)
C36 C -0.0158(6) 0.3216(6) 0.2341(4)
H51 H -0.0508 0.3748 0.2361
C37 C 0.0688(6) 0.3139(6) 0.2099(4)
H52 H 0.0890 0.3629 0.1956
C38 C -0.4142(6) 0.2871(6) 0.3358(4)
H53 H -0.4464 0.2426 0.3361
C39 C -0.3286(6) 0.2730(6) 0.3177(4)
H54 H -0.3024 0.2202 0.3055
C40 C -0.2796(5) 0.3353(6) 0.3170(3)
C41 C -0.3223(6) 0.4123(6) 0.3342(4)
H55 H -0.2911 0.4576 0.3338
C42 C -0.4091(6) 0.4215(6) 0.3517(4)
H56 H -0.4368 0.4743 0.3631
C43 C -0.1393(6) 0.2585(6) 0.2787(4)
H57 H -0.1650 0.2095 0.2820
C44 C -0.1874(6) 0.3272(6) 0.2958(4)
H58 H -0.1602 0.3752 0.2943
N6 N -0.4580(5) 0.3613(5) 0.3539(3)
Co2 Co -0.59402(8) 0.38327(8) 0.37851(5)
O52 O -0.6192(4) 0.3235(4) 0.3132(2)
O53 O -0.5713(4) 0.4527(4) 0.4412(2)
S5 S -0.63305(15) 0.53512(15) 0.45161(10)
C45 C -0.6443(6) 0.5433(7) 0.5203(4)
H59 H -0.6805 0.5033 0.5367
H60 H -0.6724 0.5994 0.5291
H61 H -0.5863 0.5316 0.5333
C46 C -0.5665(6) 0.6128(6) 0.4333(4)
H62 H -0.5541 0.6162 0.3951
H63 H -0.5112 0.5986 0.4494
H64 H -0.5974 0.6664 0.4455
O54 O -0.5983(4) 0.4990(4) 0.3356(2)
S6 S -0.6301(2) 0.5279(2) 0.28339(13)
C47 C -0.6792(9) 0.6300(6) 0.2932(6)
H65 H -0.7338 0.6308 0.3163
H66 H -0.6921 0.6579 0.2594
H67 H -0.6393 0.6588 0.3094
C48 C -0.5378(7) 0.5449(10) 0.2425(5)
H68 H -0.5027 0.4916 0.2329
H69 H -0.5027 0.5763 0.2607
H70 H -0.5558 0.5763 0.2107
N7 N -0.5751(5) 0.2693(5) 0.4258(3)
C49 C -0.5334(7) 0.2611(7) 0.4685(5)
H71 H -0.5197 0.3103 0.4809
C50 C -0.5079(7) 0.1898(7) 0.4965(5)
H72 H -0.4796 0.1903 0.5274
C51 C -0.5245(6) 0.1152(6) 0.4784(4)
C52 C -0.5668(7) 0.1234(7) 0.4339(4)
H73 H -0.5787 0.0751 0.4193
C53 C -0.5924(7) 0.1993(7) 0.4097(5)
H74 H -0.6242 0.2016 0.3799
C54 C -0.4943(7) 0.0373(6) 0.5063(4)
H75 H -0.4637 0.0401 0.5361
N8 N -0.7302(4) 0.4077(4) 0.4028(3)
C55 C -0.7887(6) 0.4611(6) 0.3780(4)
H76 H -0.7735 0.4757 0.3422
C56 C -0.8691(6) 0.4963(6) 0.4010(4)
H77 H -0.9062 0.5358 0.3815
C57 C -0.8960(6) 0.4750(6) 0.4513(4)
C58 C -0.8382(6) 0.4155(6) 0.4782(4)
H78 H -0.8546 0.3969 0.5130
C59 C -0.7583(6) 0.3853(6) 0.4531(4)
H79 H -0.7197 0.3461 0.4718
C60 C -0.9829(5) 0.5107(6) 0.4771(3)
H80 H -1.0168 0.5536 0.4580
N7A N -0.4249(5) -0.2693(5) 0.5742(3)
C49A C -0.4666(7) -0.2611(7) 0.5315(5)
H71A H -0.4803 -0.3103 0.5191
C50A C -0.4921(7) -0.1898(7) 0.5035(5)
H72A H -0.5204 -0.1903 0.4726
C51A C -0.4755(6) -0.1152(6) 0.5216(4)
C52A C -0.4332(7) -0.1234(7) 0.5661(4)
H73A H -0.4213 -0.0751 0.5807
C53A C -0.4076(7) -0.1993(7) 0.5903(5)
H74A H -0.3758 -0.2016 0.6201
C54A C -0.5057(7) -0.0373(6) 0.4937(4)
H75A H -0.5363 -0.0401 0.4639
N8A N -1.2698(4) 0.5923(4) 0.5972(3)
C55A C -1.2113(6) 0.5389(6) 0.6220(4)
H76A H -1.2265 0.5243 0.6578
C56A C -1.1309(6) 0.5037(6) 0.5990(4)
H77A H -1.0938 0.4642 0.6185
C57A C -1.1040(6) 0.5250(6) 0.5487(4)
C58A C -1.1618(6) 0.5845(6) 0.5218(4)
H78A H -1.1454 0.6031 0.4870
C59A C -1.2417(6) 0.6147(6) 0.5469(4)
H79A H -1.2803 0.6539 0.5282
C60A C -1.0171(5) 0.4893(6) 0.5229(3)
H80A H -0.9832 0.4464 0.5420
Co1A Co -2.24745(9) 0.76991(10) 0.83957(6)
O47A O -2.2865(4) 0.6693(5) 0.8053(3)
O48A O -2.2867(5) 0.8431(5) 0.7757(3)
S1A S -2.3726(3) 0.9045(3) 0.77710(18)
C25A C -2.4062(9) 0.9052(10) 0.7157(4)
H25A H -2.4261 0.8528 0.7110
H26A H -2.4546 0.9511 0.7117
H27A H -2.3573 0.9123 0.6893
C26A C -2.3432(14) 1.0007(8) 0.7705(9)
H28A H -2.3207 1.0129 0.8029
H29A H -2.2975 1.0023 0.7412
H30A H -2.3944 1.0420 0.7638
O49A O -2.2214(5) 0.8681(5) 0.8786(3)
S2A S -2.1294(2) 0.8684(2) 0.89567(13)
C27A C -2.1240(9) 0.9728(5) 0.8984(5)
H31A H -2.1192 0.9977 0.8628
H32A H -2.1772 1.0004 0.9182
H33A H -2.0726 0.9792 0.9158
C28A C -2.1341(10) 0.8423(11) 0.9622(4)
H34A H -2.1377 0.7832 0.9679
H35A H -2.0813 0.8538 0.9761
H36A H -2.1859 0.8750 0.9804
O50A O -2.3722(7) 0.7868(7) 0.8790(4)
S3A S -2.4209(5) 0.8324(5) 0.9244(3)
C29A C -2.4308(13) 0.9389(7) 0.9219(8)
H37A H -2.4722 0.9624 0.8966
H38A H -2.4525 0.9596 0.9566
H39A H -2.3735 0.9551 0.9109
C30A C -2.3568(12) 0.8042(14) 0.9740(7)
H40A H -2.3474 0.7438 0.9792
H41A H -2.3002 0.8230 0.9651
H42A H -2.3857 0.8295 1.0062
O51A O -2.2020(6) 0.6946(7) 0.9016(4)
S4A S -2.1678(4) 0.6025(4) 0.9067(3)
C31A C -2.0686(9) 0.5987(15) 0.9333(8)
H43A H -2.0238 0.6118 0.9056
H44A H -2.0758 0.6391 0.9606
H45A H -2.0505 0.5430 0.9485
C32A C -2.2515(11) 0.5784(14) 0.9521(7)
H46A H -2.3050 0.5806 0.9347
H47A H -2.2348 0.5225 0.9674
H48A H -2.2623 0.6183 0.9799
N5A N -2.1240(5) 0.7571(5) 0.7947(3)
C33A C -2.0920(6) 0.8260(6) 0.7733(4)
H49A H -2.1295 0.8780 0.7749
C34A C -2.0079(6) 0.8231(6) 0.7496(3)
H50A H -1.9886 0.8731 0.7363
C35A C -1.9493(6) 0.7472(6) 0.7445(3)
C36A C -1.9842(6) 0.6784(6) 0.7659(4)
H51A H -1.9492 0.6252 0.7639
C37A C -2.0688(6) 0.6861(6) 0.7901(4)
H52A H -2.0890 0.6371 0.8044
C38A C -1.5858(6) 0.7129(6) 0.6642(4)
H53A H -1.5536 0.7574 0.6639
C39A C -1.6714(6) 0.7270(6) 0.6823(4)
H54A H -1.6976 0.7798 0.6945
C40A C -1.7204(5) 0.6647(6) 0.6830(3)
C41A C -1.6777(6) 0.5877(6) 0.6658(4)
H55A H -1.7089 0.5424 0.6662
C42A C -1.5909(6) 0.5785(6) 0.6483(4)
H56A H -1.5632 0.5257 0.6369
C43A C -1.8607(6) 0.7415(6) 0.7213(4)
H57A H -1.8350 0.7905 0.7180
C44A C -1.8126(6) 0.6728(6) 0.7042(4)
H58A H -1.8398 0.6248 0.7057
N6A N -1.5420(5) 0.6387(5) 0.6461(3)
Co2A Co -1.40598(8) 0.61673(8) 0.62149(5)
O52A O -1.3808(4) 0.6765(4) 0.6868(2)
O53A O -1.4287(4) 0.5473(4) 0.5588(2)
S5A S -1.36695(15) 0.46488(15) 0.54839(10)
C45A C -1.3557(6) 0.4567(7) 0.4797(4)
H59A H -1.3195 0.4967 0.4633
H60A H -1.3276 0.4006 0.4709
H61A H -1.4137 0.4684 0.4667
C46A C -1.4335(6) 0.3872(6) 0.5667(4)
H62A H -1.4459 0.3838 0.6049
H63A H -1.4888 0.4014 0.5506
H64A H -1.4026 0.3336 0.5545
O54A O -1.4017(4) 0.5010(4) 0.6644(2)
S6A S -1.3699(2) 0.4721(2) 0.71661(13)
C47A C -1.3208(9) 0.3700(6) 0.7068(6)
H65A H -1.2662 0.3692 0.6837
H66A H -1.3079 0.3421 0.7406
H67A H -1.3607 0.3412 0.6906
C48A C -1.4622(7) 0.4551(10) 0.7575(5)
H68A H -1.4973 0.5084 0.7671
H69A H -1.4973 0.4237 0.7393
H70A H -1.4442 0.4237 0.7893
Co2A_2 Co -0.40598(8) -0.38327(8) 0.62149(5)
N7A_2 N -1.4249(5) 0.7307(5) 0.5742(3)
S7 S 0.2270(2) 0.8558(2) 0.41890(16)
O55 O 0.2715(5) 0.7747(5) 0.4409(4)
C61 C 0.2397(8) 0.8471(10) 0.3487(5)
H81 H 0.2014 0.8099 0.3391
H82 H 0.3008 0.8248 0.3372
H83 H 0.2239 0.9019 0.3317
C62 C 0.3020(8) 0.9258(9) 0.4209(6)
H84 H 0.3047 0.9390 0.4573
H85 H 0.2826 0.9767 0.4005
H86 H 0.3603 0.9003 0.4060
N9 N 0.1772(6) 0.1622(6) 0.3933(4)
C63 C 0.1776(8) 0.1674(8) 0.4452(6)
H87 H 0.2137 0.2026 0.4568
C64 C 0.1297(8) 0.1256(8) 0.4825(5)
H88 H 0.1301 0.1346 0.5187
C65 C 0.0796(7) 0.0687(7) 0.4665(5)
C66 C 0.0827(7) 0.0607(7) 0.4120(5)
H89 H 0.0513 0.0225 0.3991
C67 C 0.1312(7) 0.1079(8) 0.3763(4)
H90 H 0.1316 0.1017 0.3398
C68 C 0.0275(7) 0.0243(7) 0.5052(4)
H91 H 0.0335 0.0309 0.5411
N9A N -0.1772(6) -0.1622(6) 0.6067(4)
C63A C -0.1776(8) -0.1674(8) 0.5548(6)
H87A H -0.2137 -0.2026 0.5432
C64A C -0.1297(8) -0.1256(8) 0.5175(5)
H88A H -0.1301 -0.1346 0.4813
C65A C -0.0796(7) -0.0687(7) 0.5335(5)
C66A C -0.0827(7) -0.0607(7) 0.5880(5)
H89A H -0.0513 -0.0225 0.6009
C67A C -0.1312(7) -0.1079(8) 0.6237(4)
H90A H -0.1316 -0.1017 0.6602
C68A C -0.0275(7) -0.0243(7) 0.4948(4)
H91A H -0.0335 -0.0309 0.4589
O56 O 0.2229(4) 0.2751(4) 0.3124(3)
H92 H 0.2379 0.2343 0.3334
H93 H 0.2298 0.2591 0.2812
O57 O 0.1346(5) 0.6789(5) 0.4717(3)
H94 H 0.1140 0.6514 0.4979
H95 H 0.1305 0.7292 0.4794
O58 O 0.6696(6) 1.0907(6) -0.0059(4)
H96 H 0.7035 1.1083 -0.0308
H97 H 0.6617 1.0563 0.0196
O59 O 0.1923(7) 0.4745(7) 0.2156(5)
H98 H 0.2197 0.4321 0.2000
H99 H 0.2095 0.5177 0.2010
O60 O 0.2678(11) 0.5854(10) 0.1452(7)
H100 H 0.2588 0.5450 0.1284
H101 H 0.2414 0.5835 0.1759
loop_
_geom_bond_atom_site_label_1
_geom_bond_atom_site_label_2
_geom_bond_site_symmetry_1
_geom_bond_site_symmetry_2
Mo1 O1 1_555 1_555
O1 Mo2 1_555 1_555
O2 Mo1 1_555 1_555
O3 Mo1 1_555 1_555
O4 Mo1 1_555 1_555
O5 Mo1 1_555 1_555
O6 Mo1 1_555 1_555
Mo2 O4 1_555 1_555
As1 O1 1_555 1_555
Mo3 O2 1_555 1_555
As2 O2 1_555 1_555
Mo4 O3 1_555 1_555
O7 Mo2 1_555 1_555
O8 Mo2 1_555 1_555
O9 Mo2 1_555 1_555
O10 Mo2 1_555 1_555
O11 As1 1_555 1_555
O12 As1 1_555 1_555
C1 As1 1_555 1_555
O13 Mo3 1_555 1_555
O14 Mo3 1_555 1_555
O15 Mo3 1_555 1_555
O16 As2 1_555 1_555
O17 As2 1_555 1_555
C2 As2 1_555 1_555
O18 Mo4 1_555 1_555
O19 Mo4 1_555 1_555
O20 Mo4 1_555 1_555
As3 O7 1_555 1_555
Mo5 O8 1_555 1_555
Mo6 O11 1_555 1_555
Mo7 O12 1_555 1_555
C3 C1 1_555 1_555
C4 C1 1_555 1_555
Mo8 O13 1_555 1_555
Mo9 O16 1_555 1_555
Mo10 O17 1_555 1_555
C5 C2 1_555 1_555
C6 C2 1_555 1_555
O21 As3 1_555 1_555
O22 As3 1_555 1_555
C7 As3 1_555 1_555
O23 Mo5 1_555 1_555
O24 Mo5 1_555 1_555
O25 Mo5 1_555 1_555
O26 Mo6 1_555 1_555
O27 Mo6 1_555 1_555
O28 Mo6 1_555 1_555
O29 Mo6 1_555 1_555
O30 Mo7 1_555 1_555
O31 Mo7 1_555 1_555
O32 Mo7 1_555 1_555
H1 C3 1_555 1_555
C8 C3 1_555 1_555
C9 C4 1_555 1_555
H2 C4 1_555 1_555
O33 Mo8 1_555 1_555
O34 Mo8 1_555 1_555
O35 Mo8 1_555 1_555
O36 Mo9 1_555 1_555
O37 Mo9 1_555 1_555
O38 Mo9 1_555 1_555
O39 Mo9 1_555 1_555
O40 Mo10 1_555 1_555
O41 Mo10 1_555 1_555
H3 C5 1_555 1_555
C10 C5 1_555 1_555
C11 C6 1_555 1_555
H4 C6 1_555 1_555
Mo11 O21 1_555 1_555
Mo12 O22 1_555 1_555
C12 C7 1_555 1_555
C13 C7 1_555 1_555
As4 O26 1_555 1_555
H5 C8 1_555 1_555
C14 C8 1_555 1_555
H6 C9 1_555 1_555
H7 C10 1_555 1_555
C15 C10 1_555 1_555
H8 C11 1_555 1_555
O42 Mo11 1_555 1_555
O43 Mo11 1_555 1_555
O44 Mo11 1_555 1_555
O45 Mo12 1_555 1_555
O46 Mo12 1_555 1_555
H9 C12 1_555 1_555
C16 C12 1_555 1_555
C17 C13 1_555 1_555
H10 C13 1_555 1_555
C18 As4 1_555 1_555
N1 C14 1_555 1_555
N2 C15 1_555 1_555
H11 C16 1_555 1_555
C19 C16 1_555 1_555
H12 C17 1_555 1_555
C20 C18 1_555 1_555
C21 C18 1_555 1_555
H13 N1 1_555 1_555
H14 N1 1_555 1_555
H15 N2 1_555 1_555
H16 N2 1_555 1_555
N3 C19 1_555 1_555
H17 C20 1_555 1_555
C22 C20 1_555 1_555
C23 C21 1_555 1_555
H18 C21 1_555 1_555
H19 N3 1_555 1_555
H20 N3 1_555 1_555
H21 C22 1_555 1_555
C24 C22 1_555 1_555
H22 C23 1_555 1_555
N4 C24 1_555 1_555
H23 N4 1_555 1_555
H24 N4 1_555 1_555
Co1 O47 1_555 1_555
O48 Co1 1_555 1_555
S1 O48 1_555 1_555
C25 S1 1_555 1_555
H25 C25 1_555 1_555
H26 C25 1_555 1_555
H27 C25 1_555 1_555
C26 S1 1_555 1_555
H28 C26 1_555 1_555
H29 C26 1_555 1_555
H30 C26 1_555 1_555
O49 Co1 1_555 1_555
S2 O49 1_555 1_555
C27 S2 1_555 1_555
H31 C27 1_555 1_555
H32 C27 1_555 1_555
H33 C27 1_555 1_555
C28 S2 1_555 1_555
H34 C28 1_555 1_555
H35 C28 1_555 1_555
H36 C28 1_555 1_555
O50 Co1 1_555 1_555
S3 O50 1_555 1_555
C29 S3 1_555 1_555
H37 C29 1_555 1_555
H38 C29 1_555 1_555
H39 C29 1_555 1_555
C30 S3 1_555 1_555
H40 C30 1_555 1_555
H41 C30 1_555 1_555
H42 C30 1_555 1_555
O51 Co1 1_555 1_555
S4 O51 1_555 1_555
C31 S4 1_555 1_555
H43 C31 1_555 1_555
H44 C31 1_555 1_555
H45 C31 1_555 1_555
C32 S4 1_555 1_555
H46 C32 1_555 1_555
H47 C32 1_555 1_555
H48 C32 1_555 1_555
N5 Co1 1_555 1_555
C33 N5 1_555 1_555
H49 C33 1_555 1_555
C34 C33 1_555 1_555
H50 C34 1_555 1_555
C35 C34 1_555 1_555
C36 C35 1_555 1_555
H51 C36 1_555 1_555
C37 N5 1_555 1_555
H52 C37 1_555 1_555
C38 H53 1_555 1_555
C39 C38 1_555 1_555
H54 C39 1_555 1_555
C40 C39 1_555 1_555
C41 C40 1_555 1_555
H55 C41 1_555 1_555
C42 C41 1_555 1_555
H56 C42 1_555 1_555
C43 C35 1_555 1_555
H57 C43 1_555 1_555
C44 C40 1_555 1_555
H58 C44 1_555 1_555
N6 C38 1_555 1_555
Co2 N6 1_555 1_555
O52 Co2 1_555 1_555
O53 Co2 1_555 1_555
S5 O53 1_555 1_555
C45 S5 1_555 1_555
H59 C45 1_555 1_555
H60 C45 1_555 1_555
H61 C45 1_555 1_555
C46 S5 1_555 1_555
H62 C46 1_555 1_555
H63 C46 1_555 1_555
H64 C46 1_555 1_555
O54 Co2 1_555 1_555
S6 O54 1_555 1_555
C47 S6 1_555 1_555
H65 C47 1_555 1_555
H66 C47 1_555 1_555
H67 C47 1_555 1_555
C48 S6 1_555 1_555
H68 C48 1_555 1_555
H69 C48 1_555 1_555
H70 C48 1_555 1_555
N7 Co2 1_555 1_555
C49 N7 1_555 1_555
H71 C49 1_555 1_555
C50 C49 1_555 1_555
H72 C50 1_555 1_555
C51 C50 1_555 1_555
C52 C51 1_555 1_555
H73 C52 1_555 1_555
C53 N7 1_555 1_555
H74 C53 1_555 1_555
C54 C51 1_555 1_555
H75 C54 1_555 1_555
N8 Co2 1_555 1_555
C55 N8 1_555 1_555
H76 C55 1_555 1_555
C56 C55 1_555 1_555
H77 C56 1_555 1_555
C57 C56 1_555 1_555
C58 C57 1_555 1_555
H78 C58 1_555 1_555
C59 N8 1_555 1_555
H79 C59 1_555 1_555
C60 C57 1_555 1_555
H80 C60 1_555 1_555
S7 O55 1_555 1_555
C61 S7 1_555 1_555
H81 C61 1_555 1_555
H82 C61 1_555 1_555
H83 C61 1_555 1_555
C62 S7 1_555 1_555
H84 C62 1_555 1_555
H85 C62 1_555 1_555
H86 C62 1_555 1_555
N9 C63 1_555 1_555
C63 H87 1_555 1_555
C64 C63 1_555 1_555
H88 C64 1_555 1_555
C65 C64 1_555 1_555
C66 C65 1_555 1_555
H89 C66 1_555 1_555
C67 N9 1_555 1_555
H90 C67 1_555 1_555
C68 C65 1_555 1_555
H91 C68 1_555 1_555
O56 H92 1_555 1_555
H93 O56 1_555 1_555
O57 H94 1_555 1_555
H95 O57 1_555 1_555
O58 H96 1_555 1_555
H97 O58 1_555 1_555
O59 H98 1_555 1_555
H99 O59 1_555 1_555
O60 H100 1_555 1_555
H101 O60 1_555 1_555
N7A C49A 1_555 1_555
C49A H71A 1_555 1_555
C50A C49A 1_555 1_555
H72A C50A 1_555 1_555
C51A C50A 1_555 1_555
C52A C51A 1_555 1_555
H73A C52A 1_555 1_555
C53A N7A 1_555 1_555
H74A C53A 1_555 1_555
C54A C54 1_555 1_555
H75A C54A 1_555 1_555
N8A C55A 1_555 1_555
C55A H76A 1_555 1_555
C56A C55A 1_555 1_555
H77A C56A 1_555 1_555
C57A C56A 1_555 1_555
C58A C57A 1_555 1_555
H78A C58A 1_555 1_555
C59A N8A 1_555 1_555
H79A C59A 1_555 1_555
C60A C60 1_555 1_555
H80A C60A 1_555 1_555
Co1A O47A 1_555 1_555
O48A Co1A 1_555 1_555
S1A O48A 1_555 1_555
C25A S1A 1_555 1_555
H25A C25A 1_555 1_555
H26A C25A 1_555 1_555
H27A C25A 1_555 1_555
C26A S1A 1_555 1_555
H28A C26A 1_555 1_555
H29A C26A 1_555 1_555
H30A C26A 1_555 1_555
O49A Co1A 1_555 1_555
S2A O49A 1_555 1_555
C27A S2A 1_555 1_555
H31A C27A 1_555 1_555
H32A C27A 1_555 1_555
H33A C27A 1_555 1_555
C28A S2A 1_555 1_555
H34A C28A 1_555 1_555
H35A C28A 1_555 1_555
H36A C28A 1_555 1_555
O50A Co1A 1_555 1_555
S3A O50A 1_555 1_555
C29A S3A 1_555 1_555
H37A C29A 1_555 1_555
H38A C29A 1_555 1_555
H39A C29A 1_555 1_555
C30A S3A 1_555 1_555
H40A C30A 1_555 1_555
H41A C30A 1_555 1_555
H42A C30A 1_555 1_555
O51A Co1A 1_555 1_555
S4A O51A 1_555 1_555
C31A S4A 1_555 1_555
H43A C31A 1_555 1_555
H44A C31A 1_555 1_555
H45A C31A 1_555 1_555
C32A S4A 1_555 1_555
H46A C32A 1_555 1_555
H47A C32A 1_555 1_555
H48A C32A 1_555 1_555
N5A Co1A 1_555 1_555
C33A N5A 1_555 1_555
H49A C33A 1_555 1_555
C34A C33A 1_555 1_555
H50A C34A 1_555 1_555
C35A C34A 1_555 1_555
C36A C35A 1_555 1_555
H51A C36A 1_555 1_555
C37A N5A 1_555 1_555
H52A C37A 1_555 1_555
C38A H53A 1_555 1_555
C39A C38A 1_555 1_555
H54A C39A 1_555 1_555
C40A C39A 1_555 1_555
C41A C40A 1_555 1_555
H55A C41A 1_555 1_555
C42A C41A 1_555 1_555
H56A C42A 1_555 1_555
C43A C35A 1_555 1_555
H57A C43A 1_555 1_555
C44A C40A 1_555 1_555
H58A C44A 1_555 1_555
N6A C38A 1_555 1_555
Co2A N8A 1_555 1_555
O52A Co2A 1_555 1_555
O53A Co2A 1_555 1_555
S5A O53A 1_555 1_555
C45A S5A 1_555 1_555
H59A C45A 1_555 1_555
H60A C45A 1_555 1_555
H61A C45A 1_555 1_555
C46A S5A 1_555 1_555
H62A C46A 1_555 1_555
H63A C46A 1_555 1_555
H64A C46A 1_555 1_555
O54A Co2A 1_555 1_555
S6A O54A 1_555 1_555
C47A S6A 1_555 1_555
H65A C47A 1_555 1_555
H66A C47A 1_555 1_555
H67A C47A 1_555 1_555
C48A S6A 1_555 1_555
H68A C48A 1_555 1_555
H69A C48A 1_555 1_555
H70A C48A 1_555 1_555
Co2A_2 N7A 1_555 1_555
N7A_2 Co2A 1_555 1_555
N9A C63A 1_555 1_555
C63A H87A 1_555 1_555
C64A C63A 1_555 1_555
H88A C64A 1_555 1_555
C65A C64A 1_555 1_555
C66A C65A 1_555 1_555
H89A C66A 1_555 1_555
C67A N9A 1_555 1_555
H90A C67A 1_555 1_555
C68A C68 1_555 1_555
H91A C68A 1_555 1_555
O4 Mo3 1_555 1_555
Mo3 O7 1_555 1_555
Mo4 O12 1_555 1_555
Mo4 O17 1_555 1_555
O11 Mo5 1_555 1_555
O16 Mo8 1_555 1_555
O18 Mo7 1_555 1_555
O18 Mo10 1_555 1_555
Mo5 O22 1_555 1_555
Mo6 O23 1_555 1_555
Mo7 O27 1_555 1_555
Mo8 O21 1_555 1_555
Mo9 O33 1_555 1_555
Mo10 O30 1_555 1_555
Mo10 O39 1_555 1_555
O23 Mo12 1_555 1_555
O26 Mo12 1_555 1_555
O30 As4 1_555 1_555
C9 C14 1_555 1_555
O33 Mo11 1_555 1_555
O36 Mo11 1_555 1_555
O36 As4 1_555 1_555
C11 C15 1_555 1_555
Mo12 O42 1_555 1_555
C17 C19 1_555 1_555
C23 C24 1_555 1_555
C36 C37 1_555 1_555
C42 N6 1_555 1_555
C43 C44 1_555 1_555
C52 C53 1_555 1_555
C58 C59 1_555 1_555
C66 C67 1_555 1_555
C51A C54A 1_555 1_555
C52A C53A 1_555 1_555
C57A C60A 1_555 1_555
C58A C59A 1_555 1_555
C36A C37A 1_555 1_555
C42A N6A 1_555 1_555
C43A C44A 1_555 1_555
N6A Co2A 1_555 1_555
C65A C68A 1_555 1_555
C66A C67A 1_555 1_555

#END
