
#######################################################################
#
#                 Cambridge Crystallographic Data Centre
#                                CCDC 
#
#######################################################################
#
# If this CIF has been generated from an entry in the Cambridge 
# Structural Database, then it will include bibliographic, chemical, 
# crystal, experimental, refinement or atomic coordinate data resulting 
# from the CCDC's data processing and validation procedures.
#
#######################################################################

data_EQIXIL
_symmetry_cell_setting           monoclinic
_symmetry_space_group_name_H-M   'P 21'
_symmetry_Int_Tables_number      4
_space_group_name_Hall           'P 2yb'
loop_
_symmetry_equiv_pos_site_id
_symmetry_equiv_pos_as_xyz
1 x,y,z
2 -x,1/2+y,-z
_cell_length_a                   6.5038(9)
_cell_length_b                   8.9677(12)
_cell_length_c                   10.3081(14)
_cell_angle_alpha                90
_cell_angle_beta                 106.312(2)
_cell_angle_gamma                90
_cell_volume                     577.01
loop_
_atom_site_label
_atom_site_type_symbol
_atom_site_fract_x
_atom_site_fract_y
_atom_site_fract_z
Cd1 Cd 0.66061(12) 0.89576(11) 0.40686(8)
Cd2 Cd 0.95736(11) 0.60401(9) 0.34528(8)
P1 P 0.4448(4) 1.5569(4) 0.3306(3)
Cl1 Cl 0.7877(5) 0.8432(4) 0.2012(3)
N1 N 0.7222(14) 1.4444(13) 0.1875(10)
C1 C 0.752(2) 1.2888(18) 0.2336(14)
H1 H 0.6116 1.2404 0.2087
C2 C 0.886(4) 1.217(2) 0.1525(18)
H2 H 1.0182 1.1773 0.2121
H3 H 0.8081 1.1355 0.0982
C3 C 0.933(3) 1.335(3) 0.065(2)
H4 H 1.0755 1.3753 0.1038
H5 H 0.9246 1.2957 -0.0243
C4 C 0.770(2) 1.449(2) 0.0570(15)
H6 H 0.6427 1.4280 -0.0162
H7 H 0.8240 1.5468 0.0420
C5 C 0.8534(18) 1.2635(16) 0.3832(14)
C6 C 0.5071(18) 1.5061(19) 0.1738(15)
H8 H 0.4021 1.4334 0.1266
H9 H 0.4894 1.5941 0.1171
O1 O 0.8348(13) 1.1401(12) 0.4320(9)
O2 O 0.9711(12) 1.3686(10) 0.4523(8)
O3 O 0.6451(11) 1.6401(11) 0.4171(8)
O4 O 0.2491(13) 1.6576(13) 0.2858(9)
O5 O 0.3995(15) 1.4152(13) 0.3960(10)
O6 O 0.3198(15) 0.9849(16) 0.3164(12)
O2A O 1.0289(12) 0.8686(10) 0.5477(8)
O3_2 O 0.6451(11) 0.6401(11) 0.4171(8)
O5A O 0.6005(15) 0.9152(13) 0.6040(10)
N1_2 N 0.7222(14) 0.4444(13) 0.1875(10)
O1A O 1.1652(13) 0.6401(12) 0.5680(9)
O2_2 O 0.9711(12) 0.3686(10) 0.4523(8)
O4_2 O 1.2491(13) 0.6576(13) 0.2858(9)
Cd2_2 Cd 0.95736(11) 1.60401(9) 0.34528(8)
Cd2A Cd 1.04264(11) 1.10401(9) 0.65472(8)
Cd1A Cd 1.33939(12) 1.39576(11) 0.59314(8)
Cd1_2 Cd 0.66061(12) 1.89576(11) 0.40686(8)
Cd2_3 Cd -0.04264(11) 1.60401(9) 0.34528(8)
Cd1A_2 Cd 0.33939(12) 1.39576(11) 0.59314(8)
loop_
_geom_bond_atom_site_label_1
_geom_bond_atom_site_label_2
_geom_bond_site_symmetry_1
_geom_bond_site_symmetry_2
Cd1 Cl1 1_555 1_555
Cd2 Cl1 1_555 1_555
P1 C6 1_555 1_555
N1 C1 1_555 1_555
C1 H1 1_555 1_555
C2 C1 1_555 1_555
H2 C2 1_555 1_555
H3 C2 1_555 1_555
C3 C2 1_555 1_555
H4 C3 1_555 1_555
H5 C3 1_555 1_555
C4 N1 1_555 1_555
H6 C4 1_555 1_555
H7 C4 1_555 1_555
C5 C1 1_555 1_555
C6 N1 1_555 1_555
H8 C6 1_555 1_555
H9 C6 1_555 1_555
O1 Cd1 1_555 1_555
O2 C5 1_555 1_555
O3 P1 1_555 1_555
O4 P1 1_555 1_555
O5 P1 1_555 1_555
O6 Cd1 1_555 1_555
O2A Cd1 1_555 1_555
O3_2 Cd1 1_555 1_555
O5A Cd1 1_555 1_555
N1_2 Cd2 1_555 1_555
O1A Cd2 1_555 1_555
O2_2 Cd2 1_555 1_555
O4_2 Cd2 1_555 1_555
Cd2_2 N1 1_555 1_555
Cd2A O1 1_555 1_555
Cd1A O2 1_555 1_555
Cd1_2 O3 1_555 1_555
Cd2_3 O4 1_555 1_555
Cd1A_2 O5 1_555 1_555
Cd2 O3_2 1_555 1_555
C3 C4 1_555 1_555
C5 O1 1_555 1_555
O2 Cd2_2 1_555 1_555
O3 Cd2_2 1_555 1_555
O2A Cd2A 1_555 1_555

#END
