
#######################################################################
#
#                 Cambridge Crystallographic Data Centre
#                                CCDC 
#
#######################################################################
#
# If this CIF has been generated from an entry in the Cambridge 
# Structural Database, then it will include bibliographic, chemical, 
# crystal, experimental, refinement or atomic coordinate data resulting 
# from the CCDC's data processing and validation procedures.
#
#######################################################################

data_EQIYOS
_symmetry_cell_setting           monoclinic
_symmetry_space_group_name_H-M   'C 2/c'
_symmetry_Int_Tables_number      15
_space_group_name_Hall           '-C 2yn'
loop_
_symmetry_equiv_pos_site_id
_symmetry_equiv_pos_as_xyz
1 x,y,z
2 1/2+x,1/2+y,z
3 x,-y,1/2+z
4 1/2+x,1/2-y,1/2+z
5 -x,-y,-z
6 1/2-x,1/2-y,-z
7 -x,y,1/2-z
8 1/2-x,1/2+y,1/2-z
_cell_length_a                   19.3700(10)
_cell_length_b                   14.5350(9)
_cell_length_c                   22.5830(10)
_cell_angle_alpha                90
_cell_angle_beta                 89.910(4)
_cell_angle_gamma                90
_cell_volume                     6358.08
loop_
_atom_site_label
_atom_site_type_symbol
_atom_site_fract_x
_atom_site_fract_y
_atom_site_fract_z
Co1 Co -0.00360(4) 0.93837(4) 0.35994(3)
Co2 Co 0.0000 1.0000 0.5000
Co3 Co -0.09403(4) 1.12100(4) 0.41781(3)
Co4 Co 0.0000 0.79924(6) 0.2500
O1 O 0.06848(19) 0.9330(2) 0.43381(14)
O2 O -0.06419(19) 0.9867(2) 0.42739(14)
O3 O 0.0958(2) 0.9503(2) 0.20569(14)
O4 O -0.0335(2) 0.8063(2) 0.38224(15)
O5 O 0.06111(19) 0.8859(2) 0.29077(14)
O6 O 0.04054(19) 1.0595(2) 0.33484(15)
O7 O -0.00303(18) 0.8681(2) 0.54037(14)
O8 O -0.1852(2) 1.0689(3) 0.3760(2)
O9 O -0.1171(2) 1.2643(3) 0.41254(19)
O10 O -0.0461(2) 0.7150(2) 0.30240(15)
O11 O -0.0508(2) 1.1518(2) 0.33590(15)
O12 O 0.1410(2) 0.8701(2) 0.49979(15)
O13 O -0.0114(2) 0.7154(2) 0.54486(17)
C1 C 0.0114(3) 1.1354(3) 0.3256(2)
C2 C -0.0361(3) 0.7915(3) 0.5329(2)
C3 C -0.1081(3) 0.8019(3) 0.5081(2)
C4 C 0.0576(3) 1.2127(3) 0.3033(2)
C5 C -0.1325(3) 0.7398(3) 0.4658(2)
C6 C 0.0352(3) 1.2800(3) 0.2630(2)
C7 C 0.1240(3) 1.2192(4) 0.3257(2)
C8 C 0.1139(3) 0.8733(3) 0.4496(2)
C9 C 0.1337(3) 0.7984(3) 0.4067(2)
C10 C 0.1462(3) 1.3554(4) 0.2703(2)
C11 C -0.0964(3) 0.6533(3) 0.4491(2)
C12 C -0.1944(3) 0.7614(4) 0.4364(2)
C13 C 0.1685(3) 0.8146(3) 0.3540(2)
C14 C -0.1033(3) 0.5734(3) 0.4834(2)
C15 C -0.2317(3) 0.8407(3) 0.4497(2)
C16 C -0.0603(3) 0.6470(3) 0.3952(2)
C17 C 0.1158(3) 0.7094(4) 0.4229(2)
C18 C -0.1469(3) 0.8795(3) 0.5228(2)
C19 C 0.1678(3) 1.2891(4) 0.3105(2)
C20 C 0.1053(3) 0.9321(3) 0.2589(2)
C21 C 0.1697(3) 0.9604(3) 0.2908(2)
C22 C 0.1828(3) 0.7393(4) 0.3167(2)
C23 C -0.0327(3) 0.5627(3) 0.3757(2)
C24 C -0.0745(3) 0.4910(3) 0.4650(2)
C25 C 0.1959(3) 0.9066(3) 0.3372(2)
C26 C -0.2089(3) 0.8989(3) 0.4947(2)
C27 C -0.0463(3) 0.7302(3) 0.3576(2)
C28 C 0.2535(3) 0.9377(4) 0.3671(2)
C29 C 0.2018(3) 1.0429(3) 0.2746(2)
C30 C -0.0387(3) 0.4849(3) 0.4114(3)
C31 C 0.1627(3) 0.6506(4) 0.3320(2)
C32 C 0.0800(3) 1.3510(4) 0.2477(2)
C33 C 0.1294(3) 0.6357(3) 0.3858(3)
C34 C 0.2592(3) 1.0719(4) 0.3061(2)
C35 C 0.2845(3) 1.0208(4) 0.3521(2)
H1 H 0.1721 1.4040 0.2534
H2 H 0.270(4) 0.893(4) 0.399(2)
H3 H 0.064(3) 1.392(3) 0.2162(19)
H4 H -0.082(3) 0.431(2) 0.488(2)
H5 H 0.178(3) 1.083(3) 0.242(2)
H6 H 0.3295(18) 1.029(4) 0.369(2)
H7 H -0.129(2) 0.572(3) 0.5206(15)
H8 H 0.2023 0.7524 0.2796
H9 H -0.214(3) 0.719(4) 0.405(3)
H10 H -0.278(3) 0.868(4) 0.434(3)
H11 H 0.183(3) 0.595(4) 0.310(2)
H12 H 0.124(3) 0.572(2) 0.398(2)
H13 H 0.271(3) 1.131(2) 0.293(2)
H14 H 0.135(3) 1.171(3) 0.352(2)
H15 H -0.128(3) 0.923(4) 0.553(2)
H16 H 0.2146(15) 1.290(3) 0.320(2)
H17 H -0.201(2) 1.113(2) 0.4013(16)
H18 H 0.101(3) 0.704(4) 0.4674(14)
H19 H -0.1043 0.9474 0.4277
H20 H -0.113(3) 1.267(4) 0.3755(12)
H21 H -0.0136 0.5389 0.3360
H22 H -0.234(2) 0.960(2) 0.504(2)
H23 H -0.022(4) 0.419(3) 0.399(3)
H24 H -0.0755(16) 1.273(4) 0.424(2)
H25 H -0.182(3) 1.129(2) 0.362(2)
C6F C -0.0352(3) 1.2800(3) 0.2370(2)
C4F C -0.0576(3) 1.2127(3) 0.1967(2)
C1F C -0.0114(3) 1.1354(3) 0.1744(2)
O6F O -0.04054(19) 1.0595(2) 0.16516(15)
O11F O 0.0508(2) 1.1518(2) 0.16410(15)
C7F C -0.1240(3) 1.2192(4) 0.1743(2)
C19F C -0.1678(3) 1.2891(4) 0.1895(2)
C10F C -0.1462(3) 1.3554(4) 0.2297(2)
C32F C -0.0800(3) 1.3510(4) 0.2523(2)
H3F H -0.064(3) 1.392(3) 0.2838(19)
H1F H -0.1721 1.4040 0.2466
H16F H -0.2146(15) 1.290(3) 0.180(2)
H14F H -0.135(3) 1.171(3) 0.148(2)
O1D O -0.06848(19) 1.0670(2) 0.56619(14)
O3D O -0.0958(2) 1.0497(2) 0.79431(14)
O5D O -0.06111(19) 1.1141(2) 0.70923(14)
O12D O -0.1410(2) 1.1299(2) 0.50021(15)
C8D C -0.1139(3) 1.1267(3) 0.5504(2)
C9D C -0.1337(3) 1.2016(3) 0.5933(2)
C13D C -0.1685(3) 1.1854(3) 0.6460(2)
C17D C -0.1158(3) 1.2906(4) 0.5771(2)
C20D C -0.1053(3) 1.0679(3) 0.7411(2)
C21D C -0.1697(3) 1.0396(3) 0.7092(2)
C22D C -0.1828(3) 1.2607(4) 0.6833(2)
C25D C -0.1959(3) 1.0934(3) 0.6628(2)
C28D C -0.2535(3) 1.0623(4) 0.6329(2)
C29D C -0.2018(3) 0.9571(3) 0.7254(2)
C31D C -0.1627(3) 1.3494(4) 0.6680(2)
C33D C -0.1294(3) 1.3643(3) 0.6142(3)
C34D C -0.2592(3) 0.9281(4) 0.6939(2)
C35D C -0.2845(3) 0.9792(4) 0.6479(2)
H2D H -0.270(4) 1.107(4) 0.601(2)
H5D H -0.178(3) 0.917(3) 0.758(2)
H6D H -0.3295(18) 0.971(4) 0.631(2)
H8D H -0.2023 1.2476 0.7204
H11D H -0.183(3) 1.405(4) 0.690(2)
H12D H -0.124(3) 1.428(2) 0.602(2)
H13D H -0.271(3) 0.869(2) 0.707(2)
H18D H -0.101(3) 1.296(4) 0.5326(14)
O2D O 0.06419(19) 1.0133(2) 0.57261(14)
H19D H 0.1043 1.0526 0.5723
O4D O 0.0335(2) 1.1937(2) 0.61776(15)
O7D O 0.00303(18) 1.1319(2) 0.45963(14)
O10D O 0.0461(2) 1.2850(2) 0.69760(15)
O13D O 0.0114(2) 1.2846(2) 0.45514(17)
C2D C 0.0361(3) 1.2085(3) 0.4671(2)
C3D C 0.1081(3) 1.1981(3) 0.4919(2)
C5D C 0.1325(3) 1.2602(3) 0.5342(2)
C11D C 0.0964(3) 1.3467(3) 0.5509(2)
C12D C 0.1944(3) 1.2386(4) 0.5636(2)
C14D C 0.1033(3) 1.4266(3) 0.5166(2)
C15D C 0.2317(3) 1.1593(3) 0.5503(2)
C16D C 0.0603(3) 1.3530(3) 0.6048(2)
C18D C 0.1469(3) 1.1205(3) 0.4772(2)
C23D C 0.0327(3) 1.4373(3) 0.6243(2)
C24D C 0.0745(3) 1.5090(3) 0.5350(2)
C26D C 0.2089(3) 1.1011(3) 0.5053(2)
C27D C 0.0463(3) 1.2698(3) 0.6424(2)
C30D C 0.0387(3) 1.5151(3) 0.5886(3)
H4D H 0.082(3) 1.569(2) 0.512(2)
H7D H 0.129(2) 1.428(3) 0.4794(15)
H9D H 0.214(3) 1.281(4) 0.595(3)
H10D H 0.278(3) 1.132(4) 0.566(3)
H15D H 0.128(3) 1.077(4) 0.447(2)
H21D H 0.0136 1.4611 0.6640
H22D H 0.234(2) 1.040(2) 0.496(2)
H23D H 0.022(4) 1.581(3) 0.601(3)
Co1D Co 0.00360(4) 1.06163(4) 0.64006(3)
Co3D Co 0.09403(4) 0.87900(4) 0.58219(3)
O8D O 0.1852(2) 0.9311(3) 0.6240(2)
H17D H 0.201(2) 0.887(2) 0.5987(16)
H25D H 0.182(3) 0.871(2) 0.638(2)
O9D O 0.1171(2) 0.7357(3) 0.58746(19)
H20D H 0.113(3) 0.733(4) 0.6245(12)
H24D H 0.0755(16) 0.727(4) 0.576(2)
O3F O -0.0958(2) 0.9503(2) 0.29431(14)
O5F O -0.06111(19) 0.8859(2) 0.20923(14)
O10F O 0.0461(2) 0.7150(2) 0.19760(15)
Co1F Co 0.00360(4) 0.93837(4) 0.14006(3)
Co3F Co 0.09403(4) 1.12100(4) 0.08219(3)
Co1B Co -0.00360(4) 1.06163(4) 0.85994(3)
Co4B Co 0.0000 1.20076(6) 0.7500
O3B O 0.0958(2) 1.0497(2) 0.70569(14)
O6D O -0.04054(19) 0.9405(2) 0.66516(15)
O11D O 0.0508(2) 0.8482(2) 0.66410(15)
loop_
_geom_bond_atom_site_label_1
_geom_bond_atom_site_label_2
_geom_bond_site_symmetry_1
_geom_bond_site_symmetry_2
Co1 O1 1_555 1_555
Co2 O1 1_555 1_555
Co3 O2 1_555 1_555
Co4 O5 1_555 1_555
O1 C8 1_555 1_555
O2 Co1 1_555 1_555
O3 C20 1_555 1_555
O4 Co1 1_555 1_555
O5 Co1 1_555 1_555
O6 Co1 1_555 1_555
O7 Co2 1_555 1_555
O8 Co3 1_555 1_555
O9 Co3 1_555 1_555
O10 Co4 1_555 1_555
O11 Co3 1_555 1_555
O12 C8 1_555 1_555
O13 C2 1_555 1_555
C1 O6 1_555 1_555
C2 O7 1_555 1_555
C3 C2 1_555 1_555
C4 C1 1_555 1_555
C5 C3 1_555 1_555
C6 C4 1_555 1_555
C7 C4 1_555 1_555
C8 C9 1_555 1_555
C9 C13 1_555 1_555
C10 C19 1_555 1_555
C11 C5 1_555 1_555
C12 C5 1_555 1_555
C13 C22 1_555 1_555
C14 C11 1_555 1_555
C15 C12 1_555 1_555
C16 C11 1_555 1_555
C17 C9 1_555 1_555
C18 C3 1_555 1_555
C19 C7 1_555 1_555
C20 O5 1_555 1_555
C21 C20 1_555 1_555
C22 C31 1_555 1_555
C23 C16 1_555 1_555
C24 C14 1_555 1_555
C25 C13 1_555 1_555
C26 C15 1_555 1_555
C27 O4 1_555 1_555
C28 C25 1_555 1_555
C29 C21 1_555 1_555
C30 C23 1_555 1_555
C31 C33 1_555 1_555
C32 C6 1_555 1_555
C33 C17 1_555 1_555
C34 C29 1_555 1_555
C35 C28 1_555 1_555
H1 C10 1_555 1_555
H2 C28 1_555 1_555
H3 C32 1_555 1_555
H4 C24 1_555 1_555
H5 C29 1_555 1_555
H6 C35 1_555 1_555
H7 C14 1_555 1_555
H8 C22 1_555 1_555
H9 C12 1_555 1_555
H10 C15 1_555 1_555
H11 C31 1_555 1_555
H12 C33 1_555 1_555
H13 C34 1_555 1_555
H14 C7 1_555 1_555
H15 C18 1_555 1_555
H16 C19 1_555 1_555
H17 O8 1_555 1_555
H18 C17 1_555 1_555
H19 O2 1_555 1_555
H20 O9 1_555 1_555
H21 C23 1_555 1_555
H22 C26 1_555 1_555
H23 C30 1_555 1_555
H24 O9 1_555 1_555
H25 O8 1_555 1_555
C6F C6 1_555 1_555
C4F C6F 1_555 1_555
C1F C4F 1_555 1_555
O6F C1F 1_555 1_555
O11F C1F 1_555 1_555
C7F C4F 1_555 1_555
C19F C7F 1_555 1_555
C10F C19F 1_555 1_555
C32F C6F 1_555 1_555
H3F C32F 1_555 1_555
H1F C10F 1_555 1_555
H16F C19F 1_555 1_555
H14F C7F 1_555 1_555
O1D Co2 1_555 1_555
O3D C20D 1_555 1_555
O5D C20D 1_555 1_555
O12D Co3 1_555 1_555
C8D O1D 1_555 1_555
C9D C8D 1_555 1_555
C13D C9D 1_555 1_555
C17D C9D 1_555 1_555
C20D C21D 1_555 1_555
C21D C25D 1_555 1_555
C22D C13D 1_555 1_555
C25D C13D 1_555 1_555
C28D C25D 1_555 1_555
C29D C21D 1_555 1_555
C31D C22D 1_555 1_555
C33D C17D 1_555 1_555
C34D C29D 1_555 1_555
C35D C28D 1_555 1_555
H2D C28D 1_555 1_555
H5D C29D 1_555 1_555
H6D C35D 1_555 1_555
H8D C22D 1_555 1_555
H11D C31D 1_555 1_555
H12D C33D 1_555 1_555
H13D C34D 1_555 1_555
H18D C17D 1_555 1_555
O2D Co2 1_555 1_555
H19D O2D 1_555 1_555
O4D C27D 1_555 1_555
O7D Co2 1_555 1_555
O10D C27D 1_555 1_555
O13D C2D 1_555 1_555
C2D O7D 1_555 1_555
C3D C2D 1_555 1_555
C5D C3D 1_555 1_555
C11D C5D 1_555 1_555
C12D C5D 1_555 1_555
C14D C11D 1_555 1_555
C15D C12D 1_555 1_555
C16D C11D 1_555 1_555
C18D C3D 1_555 1_555
C23D C16D 1_555 1_555
C24D C14D 1_555 1_555
C26D C15D 1_555 1_555
C27D C16D 1_555 1_555
C30D C23D 1_555 1_555
H4D C24D 1_555 1_555
H7D C14D 1_555 1_555
H9D C12D 1_555 1_555
H10D C15D 1_555 1_555
H15D C18D 1_555 1_555
H21D C23D 1_555 1_555
H22D C26D 1_555 1_555
H23D C30D 1_555 1_555
Co1D O1D 1_555 1_555
Co3D O7 1_555 1_555
O8D Co3D 1_555 1_555
H17D O8D 1_555 1_555
H25D O8D 1_555 1_555
O9D Co3D 1_555 1_555
H20D O9D 1_555 1_555
H24D O9D 1_555 1_555
O3F Co1 1_555 1_555
O5F Co4 1_555 1_555
O10F Co4 1_555 1_555
Co1F O3 1_555 1_555
Co3F O11F 1_555 1_555
Co1B O3D 1_555 1_555
Co4B O5D 1_555 1_555
O3B Co1D 1_555 1_555
O6D Co1D 1_555 1_555
O11D Co3D 1_555 1_555
Co2 O2 1_555 1_555
Co3 O7D 1_555 1_555
O10 C27 1_555 1_555
O11 C1 1_555 1_555
O12 Co3D 1_555 1_555
C10 C32 1_555 1_555
C16 C27 1_555 1_555
C18 C26 1_555 1_555
C21 C25 1_555 1_555
C24 C30 1_555 1_555
C34 C35 1_555 1_555
O6F Co1F 1_555 1_555
C10F C32F 1_555 1_555
O5D Co1D 1_555 1_555
O12D C8D 1_555 1_555
C31D C33D 1_555 1_555
C34D C35D 1_555 1_555
O2D Co3D 1_555 1_555
O2D Co1D 1_555 1_555
O4D Co1D 1_555 1_555
O10D Co4B 1_555 1_555
C18D C26D 1_555 1_555
C24D C30D 1_555 1_555
O5F Co1F 1_555 1_555

#END
