
#######################################################################
#
#                 Cambridge Crystallographic Data Centre
#                                CCDC 
#
#######################################################################
#
# If this CIF has been generated from an entry in the Cambridge 
# Structural Database, then it will include bibliographic, chemical, 
# crystal, experimental, refinement or atomic coordinate data resulting 
# from the CCDC's data processing and validation procedures.
#
#######################################################################

data_EQIZAF
_symmetry_cell_setting           monoclinic
_symmetry_space_group_name_H-M   'P 21/m'
_symmetry_Int_Tables_number      11
_space_group_name_Hall           '-P 2yb'
loop_
_symmetry_equiv_pos_site_id
_symmetry_equiv_pos_as_xyz
1 x,y,z
2 x,1/2-y,z
3 -x,-y,-z
4 -x,1/2+y,-z
_cell_length_a                   3.9119(2)
_cell_length_b                   13.5250(9)
_cell_length_c                   7.6733(5)
_cell_angle_alpha                90
_cell_angle_beta                 97.291(8)
_cell_angle_gamma                90
_cell_volume                     402.7
loop_
_atom_site_label
_atom_site_type_symbol
_atom_site_fract_x
_atom_site_fract_y
_atom_site_fract_z
Cu1 Cu 0.27848(17) 0.03265(3) 0.12107(7)
Br1 Br 0.18719(11) 0.07305(2) -0.20343(4)
N1 N 0.3880(8) 0.1622(2) 0.2506(4)
C1 C 0.3074(16) 0.2500 0.1774(6)
H1 H 0.1855 0.2500 0.0651
C2 C 0.5603(11) 0.1629(3) 0.4141(5)
H2 H 0.6170 0.1031 0.4703
C3 C 0.6530(19) 0.2500 0.5008(7)
H3 H 0.7761 0.2500 0.6125
N1A N 0.3880(8) 0.3378(2) 0.2506(4)
C2A C 0.5603(11) 0.3371(3) 0.4141(5)
H2A H 0.6170 0.3969 0.4703
Br1B Br -0.18719(11) -0.07305(2) 0.20343(4)
Cu1B Cu -0.27848(17) -0.03265(3) -0.12107(7)
Cu1B_2 Cu 0.72152(17) -0.03265(3) -0.12107(7)
Br1B_2 Br 0.81281(11) -0.07305(2) 0.20343(4)
Cu1A Cu 0.27848(17) 0.46735(3) 0.12107(7)
Cu1_2 Cu -0.72152(17) 0.03265(3) 0.12107(7)
Br1_2 Br -0.81281(11) 0.07305(2) -0.20343(4)
N1B N -0.3880(8) -0.1622(2) -0.2506(4)
loop_
_geom_bond_atom_site_label_1
_geom_bond_atom_site_label_2
_geom_bond_site_symmetry_1
_geom_bond_site_symmetry_2
Cu1 Br1 1_555 1_555
Br1 Cu1B 1_555 1_555
N1 Cu1 1_555 1_555
C1 N1 1_555 1_555
H1 C1 1_555 1_555
C2 N1 1_555 1_555
H2 C2 1_555 1_555
C3 C2 1_555 1_555
H3 C3 1_555 1_555
N1A C1 1_555 1_555
C2A C3 1_555 1_555
H2A C2A 1_555 1_555
Br1B Cu1 1_555 1_555
Cu1B Cu1 1_555 1_555
Cu1B_2 Cu1 1_555 1_555
Br1B_2 Cu1 1_555 1_555
Cu1A N1A 1_555 1_555
Cu1_2 Br1B 1_555 1_555
Br1_2 Cu1B 1_555 1_555
N1B Cu1B 1_555 1_555
Br1 Cu1B_2 1_555 1_555
N1A C2A 1_555 1_555
Br1B Cu1B 1_555 1_555
Cu1B Cu1_2 1_555 1_555
Cu1B_2 Br1B_2 1_555 1_555
Cu1_2 Br1_2 1_555 1_555

#END
