
#######################################################################
#
#                 Cambridge Crystallographic Data Centre
#                                CCDC 
#
#######################################################################
#
# If this CIF has been generated from an entry in the Cambridge 
# Structural Database, then it will include bibliographic, chemical, 
# crystal, experimental, refinement or atomic coordinate data resulting 
# from the CCDC's data processing and validation procedures.
#
#######################################################################

data_EQOBUH
_symmetry_cell_setting           orthorhombic
_symmetry_space_group_name_H-M   'F d d 2'
_symmetry_Int_Tables_number      43
_space_group_name_Hall           'F 2 -2d'
loop_
_symmetry_equiv_pos_site_id
_symmetry_equiv_pos_as_xyz
1 x,y,z
2 -x,-y,z
3 1/4+x,1/4-y,1/4+z
4 1/4-x,1/4+y,1/4+z
5 x,1/2+y,1/2+z
6 -x,1/2-y,1/2+z
7 1/4+x,3/4-y,3/4+z
8 1/4-x,3/4+y,3/4+z
9 1/2+x,y,1/2+z
10 1/2-x,-y,1/2+z
11 3/4+x,1/4-y,3/4+z
12 3/4-x,1/4+y,3/4+z
13 1/2+x,1/2+y,z
14 1/2-x,1/2-y,z
15 3/4+x,3/4-y,1/4+z
16 3/4-x,3/4+y,1/4+z
_cell_length_a                   18.513(4)
_cell_length_b                   24.368(5)
_cell_length_c                   9.2940(19)
_cell_angle_alpha                90
_cell_angle_beta                 90
_cell_angle_gamma                90
_cell_volume                     4192.75
loop_
_atom_site_label
_atom_site_type_symbol
_atom_site_fract_x
_atom_site_fract_y
_atom_site_fract_z
Co1 Co 0.20621(3) -0.06508(3) 0.77331(11)
N1 N 0.2136(3) 0.0034(2) 0.6550(6)
N2 N 0.1047(2) -0.08687(19) 0.8100(5)
N3 N 0.0106(2) -0.1299(2) 0.9083(6)
N4 N 0.2460(3) 0.0521(2) 0.4616(6)
C1 C 0.0450(3) -0.0755(3) 0.7291(8)
H1 H 0.0436 -0.0537 0.6469
C2 C -0.0118(3) -0.1016(3) 0.7900(10)
H2 H -0.0590 -0.1004 0.7561
C3 C 0.0818(3) -0.1196(2) 0.9154(8)
H3 H 0.1119 -0.1337 0.9864
C4 C 0.2026(5) 0.0578(3) 0.6832(11)
H4 H 0.1843 0.0721 0.7685
C5 C 0.2224(4) 0.0872(3) 0.5672(10)
H5 H 0.2205 0.1252 0.5597
C6 C 0.2390(3) 0.0025(3) 0.5210(8)
H6 H 0.2508 -0.0297 0.4731
N2F N 0.3547(2) -0.16313(19) 0.5600(5)
N3F N 0.2606(2) -0.1201(2) 0.6583(6)
C1F C 0.2950(3) -0.1745(3) 0.4791(8)
H1F H 0.2936 -0.1963 0.3969
C2F C 0.2382(3) -0.1484(3) 0.5400(10)
H2F H 0.1910 -0.1496 0.5061
C3F C 0.3318(3) -0.1304(2) 0.6654(8)
H3F H 0.3619 -0.1163 0.7364
N1I N 0.2864(3) -0.0034(2) 1.1550(6)
N4I N 0.2540(3) -0.0521(2) 0.9616(6)
C4I C 0.2974(5) -0.0578(3) 1.1832(11)
H4I H 0.3157 -0.0721 1.2685
C5I C 0.2776(4) -0.0872(3) 1.0672(10)
H5I H 0.2795 -0.1252 1.0597
C6I C 0.2610(3) -0.0025(3) 1.0210(8)
H6I H 0.2492 0.0297 0.9731
Co1I Co 0.29379(3) 0.06508(3) 1.27331(11)
Co1N Co -0.04379(3) -0.18492(3) 1.02331(11)
Co1I_2 Co 0.29379(3) 0.06508(3) 0.27331(11)
Co1F Co 0.45621(3) -0.18492(3) 0.52331(11)
N2I N 0.3953(2) 0.08687(19) 1.3100(5)
N3C N 0.2394(2) 0.1201(2) 1.1583(6)
N4_2 N 0.2460(3) 0.0521(2) 1.4616(6)
N5 N 0.0000 0.0000 0.112(3)
C7 C -0.0612(7) 0.0017(6) 0.1833(15)
H7 H -0.1053 0.0033 0.1354
C8 C -0.0582(7) 0.0009(5) 0.3224(13)
H8 H -0.1018 0.0010 0.3722
C9 C 0.0000 0.0000 0.397(2)
H9 H 0.0000 0.0000 0.4972
C8A C 0.0582(7) -0.0009(5) 0.3224(13)
C7A C 0.0612(7) -0.0017(6) 0.1833(15)
H7A H 0.1053 -0.0033 0.1354
H8A H 0.1018 -0.0010 0.3722
loop_
_geom_bond_atom_site_label_1
_geom_bond_atom_site_label_2
_geom_bond_site_symmetry_1
_geom_bond_site_symmetry_2
Co1 N1 1_555 1_555
N1 C4 1_555 1_555
N2 Co1 1_555 1_555
N3 C2 1_555 1_555
N4 C5 1_555 1_555
C1 N2 1_555 1_555
H1 C1 1_555 1_555
C2 C1 1_555 1_555
H2 C2 1_555 1_555
C3 N2 1_555 1_555
H3 C3 1_555 1_555
C4 H4 1_555 1_555
C5 C4 1_555 1_555
H5 C5 1_555 1_555
C6 N1 1_555 1_555
H6 C6 1_555 1_555
N5 C7 1_555 1_555
C7 H7 1_555 1_555
C8 C7 1_555 1_555
H8 C8 1_555 1_555
C9 C8 1_555 1_555
H9 C9 1_555 1_555
C8A C9 1_555 1_555
C7A N5 1_555 1_555
H7A C7A 1_555 1_555
H8A C8A 1_555 1_555
N2F C1F 1_555 1_555
N3F Co1 1_555 1_555
C1F H1F 1_555 1_555
C2F N3F 1_555 1_555
H2F C2F 1_555 1_555
C3F N2F 1_555 1_555
H3F C3F 1_555 1_555
N1I C4I 1_555 1_555
N4I Co1 1_555 1_555
C4I H4I 1_555 1_555
C5I N4I 1_555 1_555
H5I C5I 1_555 1_555
C6I N1I 1_555 1_555
H6I C6I 1_555 1_555
Co1I N1I 1_555 1_555
Co1N N3 1_555 1_555
Co1I_2 N4 1_555 1_555
Co1F N2F 1_555 1_555
N2I Co1I 1_555 1_555
N3C Co1I 1_555 1_555
N4_2 Co1I 1_555 1_555
N3 C3 1_555 1_555
N4 C6 1_555 1_555
C8A C7A 1_555 1_555
N3F C3F 1_555 1_555
C1F C2F 1_555 1_555
N4I C6I 1_555 1_555
C4I C5I 1_555 1_555

#END
