
#######################################################################
#
#                 Cambridge Crystallographic Data Centre
#                                CCDC 
#
#######################################################################
#
# If this CIF has been generated from an entry in the Cambridge 
# Structural Database, then it will include bibliographic, chemical, 
# crystal, experimental, refinement or atomic coordinate data resulting 
# from the CCDC's data processing and validation procedures.
#
#######################################################################

data_EQOBIV
_symmetry_cell_setting           monoclinic
_symmetry_space_group_name_H-M   'P 21/a'
_symmetry_Int_Tables_number      14
_space_group_name_Hall           '-P 2yab'
loop_
_symmetry_equiv_pos_site_id
_symmetry_equiv_pos_as_xyz
1 x,y,z
2 1/2+x,1/2-y,z
3 -x,-y,-z
4 1/2-x,1/2+y,-z
_cell_length_a                   11.816(1)
_cell_length_b                   8.969(1)
_cell_length_c                   12.065(1)
_cell_angle_alpha                90
_cell_angle_beta                 112.270(4)
_cell_angle_gamma                90
_cell_volume                     1183.25
loop_
_atom_site_label
_atom_site_type_symbol
_atom_site_fract_x
_atom_site_fract_y
_atom_site_fract_z
Cd1 Cd 0.21055(3) 0.17418(4) 0.01908(3)
O1 O 0.0308(3) 0.0782(4) -0.1529(3)
O2 O 0.1518(3) 0.2497(4) -0.1768(3)
O3 O 0.3055(4) -0.0234(5) -0.0326(3)
O4 O 0.3905(4) -0.1865(3) -0.1102(4)
O5 O 0.1983(4) -0.0013(4) 0.1513(4)
O6 O 0.3987(4) 0.2643(5) 0.1315(4)
C1 C 0.0606(5) 0.1668(5) -0.2193(5)
C2 C -0.0163(6) 0.1759(5) -0.3494(6)
C3 C 0.0120(9) 0.2739(9) -0.4223(6)
H1 H 0.0815(9) 0.3330(9) -0.3903(6)
C4 C -0.0602(12) 0.2866(12) -0.5410(8)
H2 H -0.0385(12) 0.3528(12) -0.5890(8)
C5 C -0.1642(13) 0.2024(15) -0.5902(8)
H3 H -0.2144(13) 0.2128(15) -0.6706(8)
C6 C -0.1927(10) 0.1042(22) -0.5201(7)
H4 H -0.2630(10) 0.0466(22) -0.5530(7)
C7 C -0.1198(8) 0.0874(12) -0.4009(6)
H5 H -0.1397(8) 0.0168(12) -0.3548(6)
C8 C 0.3606(4) -0.0529(5) -0.0987(4)
C9 C 0.3941(5) 0.0662(6) -0.1681(5)
H6 H 0.4654(31) 0.0359(28) -0.1824(44)
H7 H 0.4111(50) 0.1573(18) -0.1231(23)
H8 H 0.3274(20) 0.0815(44) -0.2433(22)
H9 H 0.4583(71) 0.2278(88) 0.1292(62)
O3C O 0.1945(4) 0.4766(5) 0.0326(3)
O4C O 0.1095(4) 0.3135(3) 0.1102(4)
Cd1C Cd 0.28945(3) -0.32582(4) -0.01908(3)
loop_
_geom_bond_atom_site_label_1
_geom_bond_atom_site_label_2
_geom_bond_site_symmetry_1
_geom_bond_site_symmetry_2
Cd1 O1 1_555 1_555
O1 C1 1_555 1_555
O2 Cd1 1_555 1_555
O3 Cd1 1_555 1_555
O4 C8 1_555 1_555
O5 Cd1 1_555 1_555
O6 Cd1 1_555 1_555
C1 O2 1_555 1_555
C2 C1 1_555 1_555
C3 C2 1_555 1_555
H1 C3 1_555 1_555
C4 C3 1_555 1_555
H2 C4 1_555 1_555
C5 C4 1_555 1_555
H3 C5 1_555 1_555
C6 C5 1_555 1_555
H4 C6 1_555 1_555
C7 C2 1_555 1_555
H5 C7 1_555 1_555
C8 O3 1_555 1_555
C9 C8 1_555 1_555
H6 C9 1_555 1_555
H7 C9 1_555 1_555
H8 C9 1_555 1_555
H9 O6 1_555 1_555
O3C Cd1 1_555 1_555
O4C Cd1 1_555 1_555
Cd1C O3 1_555 1_555
O4 Cd1C 1_555 1_555
C6 C7 1_555 1_555

#END
