
#######################################################################
#
#                 Cambridge Crystallographic Data Centre
#                                CCDC 
#
#######################################################################
#
# If this CIF has been generated from an entry in the Cambridge 
# Structural Database, then it will include bibliographic, chemical, 
# crystal, experimental, refinement or atomic coordinate data resulting 
# from the CCDC's data processing and validation procedures.
#
#######################################################################

data_EQOCES01
_symmetry_cell_setting           orthorhombic
_symmetry_space_group_name_H-M   'P b c a'
_symmetry_Int_Tables_number      61
_space_group_name_Hall           '-P 2ac 2ab'
loop_
_symmetry_equiv_pos_site_id
_symmetry_equiv_pos_as_xyz
1 x,y,z
2 1/2+x,y,1/2-z
3 x,1/2-y,1/2+z
4 1/2-x,1/2+y,z
5 -x,-y,-z
6 1/2-x,-y,1/2+z
7 -x,1/2+y,1/2-z
8 1/2+x,1/2-y,-z
_cell_length_a                   15.9712(18)
_cell_length_b                   15.9253(19)
_cell_length_c                   18.475(2)
_cell_angle_alpha                90
_cell_angle_beta                 90
_cell_angle_gamma                90
_cell_volume                     4699.05
loop_
_atom_site_label
_atom_site_type_symbol
_atom_site_fract_x
_atom_site_fract_y
_atom_site_fract_z
Co1 Co 0.31203(3) 0.13639(3) 0.60097(3)
Co2 Co 0.00494(3) 0.32136(3) 0.67494(2)
N1 N 0.19034(18) 0.1553(2) 0.61272(15)
N2 N 0.07288(19) 0.2264(2) 0.63945(15)
N3 N 0.34213(17) 0.13422(19) 0.49770(15)
N4 N 0.41535(17) 0.14988(19) 0.39452(16)
N5 N 0.34307(18) 0.03100(19) 0.65094(16)
N6 N 0.41642(17) -0.08258(19) 0.68436(16)
N7 N 0.44973(16) 0.2974(2) 0.73175(15)
N8 N 0.37437(16) 0.2295(2) 0.64759(16)
C1 C 0.1222(3) 0.1055(3) 0.6007(3)
C2 C 0.0527(3) 0.1495(4) 0.6163(3)
C3 C 0.1559(3) 0.2253(3) 0.6358(2)
C4 C 0.2963(3) 0.1065(3) 0.4407(3)
C5 C 0.3397(3) 0.1146(3) 0.3793(3)
C6 C 0.4114(2) 0.1602(3) 0.4648(2)
C7 C 0.3058(3) -0.0071(3) 0.7079(3)
C8 C 0.3496(3) -0.0737(4) 0.7285(3)
C9 C 0.4087(2) -0.0188(3) 0.6402(2)
C10 C 0.4307(3) 0.3504(3) 0.6773(3)
C11 C 0.3862(3) 0.3101(3) 0.6268(3)
C12 C 0.4139(2) 0.2266(3) 0.7109(2)
H1 H 0.131(2) 0.054(2) 0.5815(18)
H2 H 0.003(2) 0.134(3) 0.610(2)
H3 H 0.1843(17) 0.2687(19) 0.6443(15)
H4 H 0.2519(19) 0.086(2) 0.4489(18)
H5 H 0.3301(18) 0.103(2) 0.3348(16)
H6 H 0.4515(15) 0.1807(16) 0.4907(13)
H7 H 0.2606(19) 0.011(2) 0.7239(17)
H8 H 0.337(2) -0.110(2) 0.7611(19)
H9 H 0.4410(16) -0.0058(18) 0.6040(15)
H10 H 0.452(2) 0.402(2) 0.6802(18)
H11 H 0.366(2) 0.329(3) 0.586(2)
H12 H 0.4162(16) 0.1783(19) 0.7346(15)
N4G N -0.08465(17) 0.35012(19) 0.60548(16)
N6C N 0.08358(17) 0.41742(19) 0.68436(16)
N7A N -0.05027(16) 0.2974(2) 0.76825(15)
Co2G Co 0.50494(3) 0.17864(3) 0.32506(2)
Co2C Co 0.49506(3) -0.17864(3) 0.67494(2)
Co2A Co 0.50494(3) 0.32136(3) 0.82506(2)
C13 C 0.2808(5) 0.8652(5) 0.4641(4)
H13 H 0.2686 0.8078 0.4798
C14 C 0.3674(4) 0.8648(5) 0.4598(3)
H14 H 0.3893 0.8425 0.5049
H15 H 0.3865 0.9225 0.4559
C15 C 0.4023(4) 0.8189(5) 0.4026(4)
H16 H 0.4007 0.7599 0.4154
H17 H 0.4608 0.8347 0.3981
C16 C 0.3635(4) 0.8287(6) 0.3333(4)
H18 H 0.3796 0.8828 0.3135
H19 H 0.3849 0.7857 0.3011
C17 C 0.2786(5) 0.8240(4) 0.3341(3)
H20 H 0.2630 0.7652 0.3374
H21 H 0.2579 0.8448 0.2881
C18 C 0.2352(4) 0.8703(5) 0.3930(5)
H22 H 0.2415 0.9293 0.3789
O2 O 0.1633(7) 0.8629(8) 0.4016(7)
H24 H 0.1394 0.8653 0.3624
O1? O 0.2389(8) 0.9104(8) 0.5111(7)
H23? H 0.2447 0.9604 0.5017
loop_
_geom_bond_atom_site_label_1
_geom_bond_atom_site_label_2
_geom_bond_site_symmetry_1
_geom_bond_site_symmetry_2
Co1 N1 1_555 1_555
Co2 N2 1_555 1_555
N1 C1 1_555 1_555
N2 C2 1_555 1_555
N3 Co1 1_555 1_555
N4 C5 1_555 1_555
N5 Co1 1_555 1_555
N6 C8 1_555 1_555
N7 C10 1_555 1_555
N8 Co1 1_555 1_555
C1 C2 1_555 1_555
C2 H2 1_555 1_555
C3 N1 1_555 1_555
C4 N3 1_555 1_555
C5 C4 1_555 1_555
C6 N3 1_555 1_555
C7 N5 1_555 1_555
C8 C7 1_555 1_555
C9 N5 1_555 1_555
C10 C11 1_555 1_555
C11 N8 1_555 1_555
C12 N7 1_555 1_555
H1 C1 1_555 1_555
H3 C3 1_555 1_555
H4 C4 1_555 1_555
H5 C5 1_555 1_555
H6 C6 1_555 1_555
H7 C7 1_555 1_555
H8 C8 1_555 1_555
H9 C9 1_555 1_555
H10 C10 1_555 1_555
H11 C11 1_555 1_555
H12 C12 1_555 1_555
C13 H13 1_555 1_555
C14 C13 1_555 1_555
H14 C14 1_555 1_555
H15 C14 1_555 1_555
C15 C14 1_555 1_555
H16 C15 1_555 1_555
H17 C15 1_555 1_555
C16 C15 1_555 1_555
H18 C16 1_555 1_555
H19 C16 1_555 1_555
C17 C16 1_555 1_555
H20 C17 1_555 1_555
H21 C17 1_555 1_555
C18 C13 1_555 1_555
H22 C18 1_555 1_555
O2 C18 1_555 1_555
H24 O2 1_555 1_555
N4G Co2 1_555 1_555
N6C Co2 1_555 1_555
N7A Co2 1_555 1_555
Co2G N4 1_555 1_555
Co2C N6 1_555 1_555
Co2A N7 1_555 1_555
N2 C3 1_555 1_555
N4 C6 1_555 1_555
N6 C9 1_555 1_555
N8 C12 1_555 1_555
C17 C18 1_555 1_555

#END
