
#######################################################################
#
#                 Cambridge Crystallographic Data Centre
#                                CCDC 
#
#######################################################################
#
# If this CIF has been generated from an entry in the Cambridge 
# Structural Database, then it will include bibliographic, chemical, 
# crystal, experimental, refinement or atomic coordinate data resulting 
# from the CCDC's data processing and validation procedures.
#
#######################################################################

data_EQOCOC01
_symmetry_cell_setting           tetragonal
_symmetry_space_group_name_H-M   'I 41/a m d'
_symmetry_Int_Tables_number      141
_space_group_name_Hall           '-I 4bd 2'
loop_
_symmetry_equiv_pos_site_id
_symmetry_equiv_pos_as_xyz
1 x,y,z
2 1/4-y,3/4+x,1/4+z
3 1/4+y,1/4-x,3/4+z
4 1/4+y,3/4+x,1/4-z
5 1/2+x,1/2+y,1/2+z
6 3/4-y,1/4+x,3/4+z
7 3/4+y,3/4-x,1/4+z
8 3/4+y,1/4+x,3/4-z
9 1/2-x,-y,1/2+z
10 1/2-x,y,1/2-z
11 x,-y,-z
12 1/4-y,1/4-x,3/4-z
13 -x,1/2-y,z
14 -x,1/2+y,-z
15 1/2+x,1/2-y,1/2-z
16 3/4-y,3/4-x,1/4-z
17 -x,-y,-z
18 3/4+y,1/4-x,3/4-z
19 3/4-y,3/4+x,1/4-z
20 3/4-y,1/4-x,3/4+z
21 1/2-x,1/2-y,1/2-z
22 1/4+y,3/4-x,1/4-z
23 1/4-y,1/4+x,3/4-z
24 1/4-y,3/4-x,1/4+z
25 1/2+x,y,1/2-z
26 1/2+x,-y,1/2+z
27 -x,y,z
28 3/4+y,3/4+x,1/4+z
29 x,1/2+y,-z
30 x,1/2-y,z
31 1/2-x,1/2+y,1/2+z
32 1/4+y,1/4+x,3/4+z
_cell_length_a                   18.515(3)
_cell_length_b                   18.515(3)
_cell_length_c                   20.245(4)
_cell_angle_alpha                90
_cell_angle_beta                 90
_cell_angle_gamma                90
_cell_volume                     6940.09
loop_
_atom_site_label
_atom_site_type_symbol
_atom_site_fract_x
_atom_site_fract_y
_atom_site_fract_z
C1 C 0.3409(5) 0.5000 0.0000
H1 H 0.3911 0.5000 0.0000
C2 C 0.3477(6) 0.2500 0.1276(4)
H2 H 0.3930 0.2500 0.1475
C3 C 0.2317(9) 0.4963(9) 0.0396(8)
H3 H 0.1933 0.4911 0.0687
C4 C 0.2410(10) 0.2869(8) 0.1020(9)
H4 H 0.2010 0.3166 0.0961
N1 N 0.3019(3) 0.4683(3) 0.0470(3)
N2 N 0.3138(4) 0.3101(3) 0.1127(3)
Zn1 Zn 0.33653(4) 0.41347(4) 0.1250
C1F C 0.2500 0.4091(5) 0.2500
H1F H 0.2500 0.3589 0.2500
C2U C 0.5000 0.4023(6) 0.1224(4)
H2U H 0.5000 0.3570 0.1025
C3J C 0.2317(9) 0.5037(9) -0.0396(8)
C3O C 0.2537(9) 0.5183(9) 0.2104(8)
C3F C 0.2463(9) 0.5183(9) 0.2896(8)
H3J H 0.1933 0.5089 -0.0687
H3O H 0.2589 0.5567 0.1813
H3F H 0.2411 0.5567 0.3187
C4CA C 0.2410(10) 0.2131(8) 0.1020(9)
C4O C 0.4631(8) 0.5090(10) 0.1480(9)
C4U C 0.5369(8) 0.5090(10) 0.1480(9)
H4CA H 0.2010 0.1834 0.0961
H4O H 0.4334 0.5490 0.1539
H4U H 0.5666 0.5490 0.1539
N1J N 0.3019(3) 0.5317(3) -0.0470(3)
N1O N 0.2817(3) 0.4481(3) 0.2030(3)
N1F N 0.2183(3) 0.4481(3) 0.2970(3)
N1E N 0.2817(3) 0.5519(3) -0.2030(3)
N2CA N 0.3138(4) 0.1899(3) 0.1127(3)
N2O N 0.4399(3) 0.4362(4) 0.1373(3)
N2U N 0.5601(3) 0.4362(4) 0.1373(3)
N2E N 0.4399(3) 0.5638(4) -0.1373(3)
N2J N 0.3138(4) 0.6899(3) -0.1127(3)
Zn1E Zn 0.33653(4) 0.58653(4) -0.1250
Zn1CA Zn 0.33653(4) 0.08653(4) 0.1250
Zn1F Zn 0.16347(4) 0.41347(4) 0.3750
Zn1Z Zn 0.66347(4) 0.41347(4) 0.1250
O1 O 0.5000 0.2500 0.225(2)
C5? C 0.2316(9) 0.5323(8) -0.0183(8)
H5? H 0.1913 0.5544 -0.0369
C6? C 0.2660(13) 0.2882(11) 0.0590(17)
H6? H 0.2406 0.3183 0.0305
loop_
_geom_bond_atom_site_label_1
_geom_bond_atom_site_label_2
_geom_bond_site_symmetry_1
_geom_bond_site_symmetry_2
C1 H1 1_555 1_555
C2 H2 1_555 1_555
C3 H3 1_555 1_555
C4 H4 1_555 1_555
N1 C1 1_555 1_555
N2 C2 1_555 1_555
Zn1 N1 1_555 1_555
C1F H1F 1_555 1_555
C2U H2U 1_555 1_555
C3J C3 1_555 1_555
C3O C3F 1_555 1_555
C3F H3F 1_555 1_555
H3J C3J 1_555 1_555
H3O C3O 1_555 1_555
C4CA C4 1_555 1_555
C4O C4U 1_555 1_555
C4U H4U 1_555 1_555
H4CA C4CA 1_555 1_555
H4O C4O 1_555 1_555
N1J C1 1_555 1_555
N1O Zn1 1_555 1_555
N1F C1F 1_555 1_555
N1E Zn1E 1_555 1_555
N2CA C2 1_555 1_555
N2O Zn1 1_555 1_555
N2U C2U 1_555 1_555
N2E Zn1E 1_555 1_555
N2J Zn1E 1_555 1_555
Zn1E N1J 1_555 1_555
Zn1CA N2CA 1_555 1_555
Zn1F N1F 1_555 1_555
Zn1Z N2U 1_555 1_555
C3 N1 1_555 1_555
C4 N2 1_555 1_555
N2 Zn1 1_555 1_555
C1F N1O 1_555 1_555
C2U N2O 1_555 1_555
C3J N1J 1_555 1_555
C3O N1O 1_555 1_555
C3F N1F 1_555 1_555
C4CA N2CA 1_555 1_555
C4O N2O 1_555 1_555
C4U N2U 1_555 1_555

#END
