
#######################################################################
#
#                 Cambridge Crystallographic Data Centre
#                                CCDC 
#
#######################################################################
#
# If this CIF has been generated from an entry in the Cambridge 
# Structural Database, then it will include bibliographic, chemical, 
# crystal, experimental, refinement or atomic coordinate data resulting 
# from the CCDC's data processing and validation procedures.
#
#######################################################################

data_EQOFOG01
_symmetry_cell_setting           monoclinic
_symmetry_space_group_name_H-M   'P 21/c'
_symmetry_Int_Tables_number      14
_space_group_name_Hall           '-P 2ybc'
loop_
_symmetry_equiv_pos_site_id
_symmetry_equiv_pos_as_xyz
1 x,y,z
2 -x,1/2+y,1/2-z
3 -x,-y,-z
4 x,1/2-y,1/2+z
_cell_length_a                   10.577(4)
_cell_length_b                   10.037(4)
_cell_length_c                   17.369(6)
_cell_angle_alpha                90
_cell_angle_beta                 97.717(4)
_cell_angle_gamma                90
_cell_volume                     1827.22
loop_
_atom_site_label
_atom_site_type_symbol
_atom_site_fract_x
_atom_site_fract_y
_atom_site_fract_z
Cd1 Cd 0.17451(3) 0.48805(3) 0.058628(17)
O1 O 0.1514(3) 0.6597(3) 0.17261(19)
O2 O 0.1014(4) 0.4471(3) 0.17140(19)
O3 O 0.0060(3) 0.8548(3) 0.49465(18)
O4 O 0.1960(3) 0.8579(3) 0.45966(19)
O5 O -0.1420(4) 0.3953(3) 0.4018(2)
H1 H -0.1538 0.3338 0.3706
N1 N 0.2821(4) 0.3215(4) -0.0090(3)
N2 N 0.3896(4) 0.4885(5) 0.1083(2)
N3 N 0.5854(4) 0.4127(5) 0.1024(2)
H2 H 0.6463 0.3667 0.0875
C1 C -0.0617(4) 0.4858(4) 0.3762(2)
C2 C -0.0335(4) 0.5997(4) 0.4220(2)
H3 H -0.0712 0.6120 0.4668
C3 C 0.0509(4) 0.6940(4) 0.4002(2)
C4 C 0.1008(4) 0.6813(4) 0.3305(2)
H4 H 0.1559 0.7457 0.3156
C5 C 0.0676(4) 0.5716(4) 0.2832(2)
C6 C -0.0101(4) 0.4719(4) 0.3073(2)
H5 H -0.0274 0.3959 0.2771
C7 C 0.0859(4) 0.8094(4) 0.4540(2)
C8 C 0.1107(4) 0.5595(4) 0.2040(2)
C9 C 0.4715(5) 0.5534(6) 0.1631(3)
C10 C 0.5990(5) 0.5081(6) 0.1615(3)
C11 C 0.4615(4) 0.4047(4) 0.0728(2)
C12 C 0.4085(5) 0.3123(5) 0.0117(3)
C13 C 0.4854(5) 0.2241(6) -0.0199(4)
H6 H 0.5726 0.2212 -0.0031
C14 C 0.2315(6) 0.2364(6) -0.0644(4)
H7 H 0.1439 0.2409 -0.0800
C15 C 0.4292(7) 0.1377(7) -0.0785(5)
H8 H 0.4789 0.0780 -0.1023
C16 C 0.2992(7) 0.1435(8) -0.0998(5)
H9 H 0.2585 0.0861 -0.1372
C17 C 0.7029(6) 0.5564(8) 0.2086(4)
H10 H 0.7850 0.5266 0.2044
C18 C 0.4510(6) 0.6534(8) 0.2170(4)
H11 H 0.3701 0.6873 0.2205
C19 C 0.5577(7) 0.6981(10) 0.2643(5)
H12 H 0.5474 0.7646 0.3002
C20 C 0.6812(7) 0.6486(9) 0.2612(5)
H13 H 0.7489 0.6802 0.2961
Cd1A Cd -0.17451(3) 0.98805(3) 0.441372(17)
Cd1C Cd 0.17451(3) 1.01195(3) 0.558628(17)
O3A O -0.0060(3) 0.3548(3) 0.00535(18)
O3C O 0.0060(3) 0.6452(3) -0.00535(18)
O4C O 0.1960(3) 0.6421(3) -0.04034(19)
loop_
_geom_bond_atom_site_label_1
_geom_bond_atom_site_label_2
_geom_bond_site_symmetry_1
_geom_bond_site_symmetry_2
Cd1 O1 1_555 1_555
O1 C8 1_555 1_555
O2 Cd1 1_555 1_555
O3 C7 1_555 1_555
O4 C7 1_555 1_555
O5 H1 1_555 1_555
N1 Cd1 1_555 1_555
N2 Cd1 1_555 1_555
N3 H2 1_555 1_555
C1 O5 1_555 1_555
C2 C1 1_555 1_555
H3 C2 1_555 1_555
C3 C2 1_555 1_555
C4 C3 1_555 1_555
H4 C4 1_555 1_555
C5 C4 1_555 1_555
C6 C1 1_555 1_555
H5 C6 1_555 1_555
C7 C3 1_555 1_555
C8 O2 1_555 1_555
C9 N2 1_555 1_555
C10 N3 1_555 1_555
C11 N2 1_555 1_555
C12 N1 1_555 1_555
C13 C12 1_555 1_555
H6 C13 1_555 1_555
C14 N1 1_555 1_555
H7 C14 1_555 1_555
C15 C13 1_555 1_555
H8 C15 1_555 1_555
C16 C14 1_555 1_555
H9 C16 1_555 1_555
C17 C10 1_555 1_555
H10 C17 1_555 1_555
C18 C9 1_555 1_555
H11 C18 1_555 1_555
C19 C18 1_555 1_555
H12 C19 1_555 1_555
C20 C17 1_555 1_555
H13 C20 1_555 1_555
Cd1A O3 1_555 1_555
Cd1C O3 1_555 1_555
O3A Cd1 1_555 1_555
O3C Cd1 1_555 1_555
O4C Cd1 1_555 1_555
O4 Cd1C 1_555 1_555
N3 C11 1_555 1_555
C5 C6 1_555 1_555
C5 C8 1_555 1_555
C9 C10 1_555 1_555
C11 C12 1_555 1_555
C15 C16 1_555 1_555
C19 C20 1_555 1_555

#END
