
#######################################################################
#
#                 Cambridge Crystallographic Data Centre
#                                CCDC 
#
#######################################################################
#
# If this CIF has been generated from an entry in the Cambridge 
# Structural Database, then it will include bibliographic, chemical, 
# crystal, experimental, refinement or atomic coordinate data resulting 
# from the CCDC's data processing and validation procedures.
#
#######################################################################

data_EQOFUM
_symmetry_cell_setting           monoclinic
_symmetry_space_group_name_H-M   'C 2/c'
_symmetry_Int_Tables_number      15
_space_group_name_Hall           '-C 2yn'
loop_
_symmetry_equiv_pos_site_id
_symmetry_equiv_pos_as_xyz
1 x,y,z
2 -x,y,1/2-z
3 1/2+x,1/2+y,z
4 1/2-x,1/2+y,1/2-z
5 -x,-y,-z
6 x,-y,1/2+z
7 1/2-x,1/2-y,-z
8 1/2+x,1/2-y,1/2+z
_cell_length_a                   15.711(4)
_cell_length_b                   21.040(5)
_cell_length_c                   14.319(3)
_cell_angle_alpha                90
_cell_angle_beta                 102.903(5)
_cell_angle_gamma                90
_cell_volume                     4613.76
loop_
_atom_site_label
_atom_site_type_symbol
_atom_site_fract_x
_atom_site_fract_y
_atom_site_fract_z
C1 C 0.2849(2) 0.40970(17) 0.6271(3)
H1 H 0.2607 0.3693 0.6271
C2 C 0.2320(2) 0.46254(18) 0.6293(3)
H2 H 0.1737 0.4576 0.6317
C3 C 0.2671(2) 0.52146(18) 0.6278(3)
H3 H 0.2328 0.5575 0.6277
C4 C 0.3542(2) 0.52702(19) 0.6265(3)
H4 H 0.3797 0.5669 0.6255
C5 C 0.4018(2) 0.47391(17) 0.6266(2)
C6 C 0.4956(2) 0.47273(15) 0.6234(2)
C7 C 0.6279(2) 0.50500(16) 0.6217(3)
C8 C 0.7037(3) 0.53704(19) 0.6196(3)
H5 H 0.7052 0.5812 0.6183
C9 C 0.7772(2) 0.50173(18) 0.6194(3)
H6 H 0.8298 0.5220 0.6193
C10 C 0.7731(2) 0.43582(18) 0.6194(3)
H7 H 0.8235 0.4127 0.6187
C11 C 0.6978(2) 0.40364(18) 0.6205(3)
H8 H 0.6957 0.3595 0.6193
C12 C 0.6251(2) 0.43938(17) 0.6233(2)
C13 C 0.37446(19) 0.26634(14) 0.7738(2)
C14 C 0.28722(9) 0.23686(10) 0.77131(12)
C15 C 0.26158(11) 0.22576(10) 0.85671(10)
H9 H 0.2998 0.2344 0.9149
C16 C 0.17886(12) 0.20170(10) 0.85509(10)
C17 C 0.12179(9) 0.18873(10) 0.76807(13)
H10 H 0.0664 0.1726 0.7670
C18 C 0.14743(11) 0.19983(10) 0.68267(10)
C19 C 0.23014(11) 0.22389(10) 0.68429(10)
H11 H 0.2473 0.2313 0.6272
C20 C 0.0848(2) 0.18459(14) 0.5903(2)
Mn1 Mn 0.46341(3) 0.33164(2) 0.61639(3)
N1 N 0.36895(17) 0.41499(14) 0.6250(2)
N2 N 0.53961(17) 0.42010(12) 0.62449(18)
N3 N 0.54454(18) 0.52543(13) 0.6219(2)
H12 H 0.5271 0.5642 0.6212
O1 O 0.39258(13) 0.28171(11) 0.69677(16)
O2 O 0.42493(13) 0.27412(11) 0.85473(16)
O3 O 0.10657(14) 0.20113(11) 0.51471(14)
O4 O 0.01662(15) 0.15610(10) 0.59245(16)
O5 O 0.15562(16) 0.19280(11) 0.93932(15)
H13 H 0.1012 0.2140 0.9378
C1A C 0.7151(2) 0.40970(17) 0.8729(3)
H1A H 0.7393 0.3693 0.8729
C2A C 0.7680(2) 0.46254(18) 0.8707(3)
H2A H 0.8263 0.4576 0.8683
C3A C 0.7329(2) 0.52146(18) 0.8722(3)
H3A H 0.7672 0.5575 0.8723
C4A C 0.6458(2) 0.52702(19) 0.8735(3)
H4A H 0.6203 0.5669 0.8745
C5A C 0.5982(2) 0.47391(17) 0.8734(2)
C6A C 0.5044(2) 0.47273(15) 0.8766(2)
C7A C 0.3721(2) 0.50500(16) 0.8783(3)
C8A C 0.2963(3) 0.53704(19) 0.8804(3)
H5A H 0.2948 0.5812 0.8817
C9A C 0.2228(2) 0.50173(18) 0.8806(3)
H6A H 0.1702 0.5220 0.8807
C10A C 0.2269(2) 0.43582(18) 0.8806(3)
H7A H 0.1765 0.4127 0.8813
C11A C 0.3022(2) 0.40364(18) 0.8795(3)
H8A H 0.3043 0.3595 0.8807
C12A C 0.3749(2) 0.43938(17) 0.8767(2)
C13A C 0.62554(19) 0.26634(14) 0.7262(2)
C14A C 0.71278(9) 0.23686(10) 0.72869(12)
C15A C 0.73842(11) 0.22576(10) 0.64329(10)
H9A H 0.7002 0.2344 0.5851
C16A C 0.82114(12) 0.20170(10) 0.64491(10)
C17A C 0.87821(9) 0.18873(10) 0.73193(13)
H10A H 0.9336 0.1726 0.7330
C18A C 0.85257(11) 0.19983(10) 0.81733(10)
C19A C 0.76986(11) 0.22389(10) 0.81571(10)
H11A H 0.7527 0.2313 0.8728
C20A C 0.9152(2) 0.18459(14) 0.9097(2)
Mn1A Mn 0.53659(3) 0.33164(2) 0.88361(3)
Mn1F Mn 0.03659(3) 0.16836(2) 0.38361(3)
Mn1G Mn 0.96341(3) 0.16836(2) 1.11639(3)
N1A N 0.63105(17) 0.41499(14) 0.8750(2)
N2A N 0.46039(17) 0.42010(12) 0.87551(18)
N3A N 0.45546(18) 0.52543(13) 0.8781(2)
H12A H 0.4729 0.5642 0.8788
O1A O 0.60742(13) 0.28171(11) 0.80323(16)
O2A O 0.57507(13) 0.27412(11) 0.64527(16)
O3A O 0.89343(14) 0.20113(11) 0.98529(14)
O3F O 0.39343(14) 0.29887(11) 0.48529(14)
O3G O 0.60657(14) 0.29887(11) 1.01471(14)
O4A O 0.98338(15) 0.15610(10) 0.90755(16)
O5A O 0.84438(16) 0.19280(11) 0.56068(15)
H13A H 0.8988 0.2140 0.5622
O6 O 0.9076(3) 0.6266(2) 0.6324(3)
H14 H 0.8753 0.6557 0.6022
H15 H 0.9609 0.6369 0.6390
O7 O 0.9622(3) 0.4176(2) 0.4970(3)
H16 H 0.9963 0.3957 0.5395
H17 H 0.9855 0.4232 0.4495
O8 O 0.0000 0.6628(3) 0.2500
H18 H 0.0524 0.6494 0.2634
H18A H -0.0524 0.6494 0.2366
H19? H -0.0323 0.6358 0.2146
H20? H 0.4871 0.9597 0.2727
H21? H 0.4583 1.0064 0.2044
O9? O 0.5000 0.9949(4) 0.2500
loop_
_geom_bond_atom_site_label_1
_geom_bond_atom_site_label_2
_geom_bond_site_symmetry_1
_geom_bond_site_symmetry_2
C1 H1 1_555 1_555
C2 C1 1_555 1_555
H2 C2 1_555 1_555
C3 C2 1_555 1_555
H3 C3 1_555 1_555
C4 C3 1_555 1_555
H4 C4 1_555 1_555
C5 C4 1_555 1_555
C6 C5 1_555 1_555
C7 C8 1_555 1_555
C8 H5 1_555 1_555
C9 C8 1_555 1_555
H6 C9 1_555 1_555
C10 C9 1_555 1_555
H7 C10 1_555 1_555
C11 C10 1_555 1_555
H8 C11 1_555 1_555
C12 C7 1_555 1_555
C13 C14 1_555 1_555
C14 C15 1_555 1_555
C15 H9 1_555 1_555
C16 C15 1_555 1_555
C17 C16 1_555 1_555
H10 C17 1_555 1_555
C18 C17 1_555 1_555
C19 C14 1_555 1_555
H11 C19 1_555 1_555
C20 C18 1_555 1_555
Mn1 N1 1_555 1_555
N1 C1 1_555 1_555
N2 C6 1_555 1_555
N3 C6 1_555 1_555
H12 N3 1_555 1_555
O1 C13 1_555 1_555
O2 C13 1_555 1_555
O3 C20 1_555 1_555
O4 C20 1_555 1_555
O5 C16 1_555 1_555
H13 O5 1_555 1_555
O6 H14 1_555 1_555
H15 O6 1_555 1_555
O7 H16 1_555 1_555
H17 O7 1_555 1_555
O8 H18 1_555 1_555
C1A H1A 1_555 1_555
C2A C1A 1_555 1_555
H2A C2A 1_555 1_555
C3A C2A 1_555 1_555
H3A C3A 1_555 1_555
C4A C3A 1_555 1_555
H4A C4A 1_555 1_555
C5A C4A 1_555 1_555
C6A C5A 1_555 1_555
C7A C8A 1_555 1_555
C8A H5A 1_555 1_555
C9A C8A 1_555 1_555
H6A C9A 1_555 1_555
C10A C9A 1_555 1_555
H7A C10A 1_555 1_555
C11A C10A 1_555 1_555
H8A C11A 1_555 1_555
C12A C7A 1_555 1_555
C13A C14A 1_555 1_555
C14A C15A 1_555 1_555
C15A H9A 1_555 1_555
C16A C15A 1_555 1_555
C17A C16A 1_555 1_555
H10A C17A 1_555 1_555
C18A C17A 1_555 1_555
C19A C14A 1_555 1_555
H11A C19A 1_555 1_555
C20A C18A 1_555 1_555
Mn1A O2 1_555 1_555
Mn1F O3 1_555 1_555
Mn1G O3A 1_555 1_555
N1A C1A 1_555 1_555
N2A C6A 1_555 1_555
N3A C6A 1_555 1_555
H12A N3A 1_555 1_555
O1A C13A 1_555 1_555
O2A Mn1 1_555 1_555
O3A C20A 1_555 1_555
O3F Mn1 1_555 1_555
O3G Mn1A 1_555 1_555
O4A C20A 1_555 1_555
O5A C16A 1_555 1_555
H13A O5A 1_555 1_555
H18A O8 1_555 1_555
C5 N1 1_555 1_555
C7 N3 1_555 1_555
C11 C12 1_555 1_555
C12 N2 1_555 1_555
C18 C19 1_555 1_555
Mn1 N2 1_555 1_555
Mn1 O1 1_555 1_555
C5A N1A 1_555 1_555
C7A N3A 1_555 1_555
C11A C12A 1_555 1_555
C12A N2A 1_555 1_555
C13A O2A 1_555 1_555
C18A C19A 1_555 1_555
Mn1A N1A 1_555 1_555
Mn1A N2A 1_555 1_555
Mn1A O1A 1_555 1_555

#END
