
#######################################################################
#
#                 Cambridge Crystallographic Data Centre
#                                CCDC 
#
#######################################################################
#
# If this CIF has been generated from an entry in the Cambridge 
# Structural Database, then it will include bibliographic, chemical, 
# crystal, experimental, refinement or atomic coordinate data resulting 
# from the CCDC's data processing and validation procedures.
#
#######################################################################

data_EQOFOG
_symmetry_cell_setting           monoclinic
_symmetry_space_group_name_H-M   'P 21/c'
_symmetry_Int_Tables_number      14
_space_group_name_Hall           '-P 2ybc'
loop_
_symmetry_equiv_pos_site_id
_symmetry_equiv_pos_as_xyz
1 x,y,z
2 -x,1/2+y,1/2-z
3 -x,-y,-z
4 x,1/2-y,1/2+z
_cell_length_a                   10.515(2)
_cell_length_b                   10.041(2)
_cell_length_c                   17.275(4)
_cell_angle_alpha                90
_cell_angle_beta                 98.187(4)
_cell_angle_gamma                90
_cell_volume                     1805.33
loop_
_atom_site_label
_atom_site_type_symbol
_atom_site_fract_x
_atom_site_fract_y
_atom_site_fract_z
C1 C 0.8896(4) 0.4419(5) 0.7947(2)
C2 C 0.9358(4) 0.4256(4) 0.7161(2)
C3 C 1.0109(5) 0.5257(4) 0.6928(3)
H1 H 1.0271 0.6019 0.7232
C4 C 1.0626(5) 0.5126(5) 0.6233(3)
C5 C 1.0328(4) 0.3994(4) 0.5784(3)
H2 H 1.0685 0.3876 0.5326
C6 C 0.9511(4) 0.3041(4) 0.6007(3)
C7 C 0.9014(4) 0.3177(4) 0.6694(2)
H3 H 0.8449 0.2543 0.6842
C8 C 0.9178(5) 0.1895(4) 0.5455(3)
C9 C 0.7642(6) 0.7699(6) 1.0641(3)
H4 H 0.8528 0.7696 1.0788
C10 C 0.6982(5) 0.8604(6) 1.0996(3)
H5 H 0.7392 0.9185 1.1370
C11 C 0.5647(5) 0.8633(5) 1.0777(3)
H6 H 0.5123 0.9211 1.1010
C12 C 0.5149(5) 0.7750(5) 1.0191(3)
H7 H 0.4271 0.7755 1.0014
C13 C 0.5908(5) 0.6887(5) 0.9873(3)
C14 C 0.5387(5) 0.5983(5) 0.9284(2)
C15 C 0.4064(5) 0.4932(5) 0.8423(3)
C16 C 0.3023(5) 0.4441(5) 0.7917(3)
H8 H 0.2202 0.4769 0.7940
C17 C 0.3209(5) 0.3460(6) 0.7377(3)
H9 H 0.2513 0.3132 0.7038
C18 C 0.4436(6) 0.2971(6) 0.7342(3)
H10 H 0.4561 0.2314 0.6981
C19 C 0.5477(5) 0.3462(5) 0.7848(3)
H11 H 0.6298 0.3134 0.7825
C20 C 0.5291(5) 0.4443(5) 0.8389(3)
Cd1 Cd 0.82431(3) 0.51180(3) 0.940572(17)
N1 N 0.6091(4) 0.5134(4) 0.8889(2)
N2 N 0.7150(4) 0.6754(4) 1.0073(2)
N3 N 0.4155(4) 0.5893(4) 0.8971(2)
H12 H 0.3532 0.6364 0.9096
O1 O 0.8969(3) 0.5522(3) 0.82874(17)
O2 O 0.8513(3) 0.3395(3) 0.82754(18)
O3 O 0.8070(3) 0.1412(3) 0.53885(17)
O4 O 0.9954(3) 0.1454(3) 0.50803(18)
O5 O 1.1428(3) 0.6024(3) 0.59823(17)
H13 H 1.1520 0.6655 0.6287
Cd1C Cd 0.82431(3) -0.01180(3) 0.440572(17)
Cd1A Cd 1.17569(3) 0.01180(3) 0.559428(17)
O3C O 0.8070(3) 0.3588(3) 1.03885(17)
O4A O 1.0046(3) 0.6454(3) 0.99197(18)
O4C O 0.9954(3) 0.3546(3) 1.00803(18)
loop_
_geom_bond_atom_site_label_1
_geom_bond_atom_site_label_2
_geom_bond_site_symmetry_1
_geom_bond_site_symmetry_2
C1 C2 1_555 1_555
C2 C3 1_555 1_555
C3 H1 1_555 1_555
C4 C3 1_555 1_555
C5 C4 1_555 1_555
H2 C5 1_555 1_555
C6 C5 1_555 1_555
C7 C2 1_555 1_555
H3 C7 1_555 1_555
C8 C6 1_555 1_555
C9 H4 1_555 1_555
C10 C9 1_555 1_555
H5 C10 1_555 1_555
C11 C10 1_555 1_555
H6 C11 1_555 1_555
C12 C11 1_555 1_555
H7 C12 1_555 1_555
C13 C12 1_555 1_555
C14 C13 1_555 1_555
C15 C16 1_555 1_555
C16 H8 1_555 1_555
C17 C16 1_555 1_555
H9 C17 1_555 1_555
C18 C17 1_555 1_555
H10 C18 1_555 1_555
C19 C18 1_555 1_555
H11 C19 1_555 1_555
C20 C15 1_555 1_555
Cd1 N1 1_555 1_555
N1 C14 1_555 1_555
N2 C9 1_555 1_555
N3 C14 1_555 1_555
H12 N3 1_555 1_555
O1 C1 1_555 1_555
O2 C1 1_555 1_555
O3 C8 1_555 1_555
O4 C8 1_555 1_555
O5 C4 1_555 1_555
H13 O5 1_555 1_555
Cd1C O3 1_555 1_555
Cd1A O4 1_555 1_555
O3C Cd1 1_555 1_555
O4A Cd1 1_555 1_555
O4C Cd1 1_555 1_555
C6 C7 1_555 1_555
C13 N2 1_555 1_555
C15 N3 1_555 1_555
C19 C20 1_555 1_555
C20 N1 1_555 1_555
Cd1 N2 1_555 1_555
Cd1 O1 1_555 1_555
Cd1 O2 1_555 1_555
O4 Cd1C 1_555 1_555

#END
