
#######################################################################
#
#                 Cambridge Crystallographic Data Centre
#                                CCDC 
#
#######################################################################
#
# If this CIF has been generated from an entry in the Cambridge 
# Structural Database, then it will include bibliographic, chemical, 
# crystal, experimental, refinement or atomic coordinate data resulting 
# from the CCDC's data processing and validation procedures.
#
#######################################################################

data_EQOFIA
_symmetry_cell_setting           monoclinic
_symmetry_space_group_name_H-M   'P 21/n'
_symmetry_Int_Tables_number      14
_space_group_name_Hall           '-P 2yn'
loop_
_symmetry_equiv_pos_site_id
_symmetry_equiv_pos_as_xyz
1 x,y,z
2 1/2-x,1/2+y,1/2-z
3 -x,-y,-z
4 1/2+x,1/2-y,1/2+z
_cell_length_a                   7.3528(14)
_cell_length_b                   10.835(2)
_cell_length_c                   22.136(4)
_cell_angle_alpha                90
_cell_angle_beta                 94.611(4)
_cell_angle_gamma                90
_cell_volume                     1757.81
loop_
_atom_site_label
_atom_site_type_symbol
_atom_site_fract_x
_atom_site_fract_y
_atom_site_fract_z
C1 C 0.3494(6) -0.0926(4) 0.0647(2)
C2 C 0.4193(7) -0.1446(5) 0.1190(2)
C3 C 0.4642(8) -0.2667(5) 0.1188(3)
C4 C 0.4381(7) -0.3374(5) 0.0662(3)
C5 C 0.3683(6) -0.2890(4) 0.0124(2)
H1 H 0.3515 -0.3366 -0.0226
C6 C 0.3239(6) -0.1648(4) 0.0128(2)
C7 C 0.2332(6) 0.0259(4) -0.00732(19)
C8 C 0.1609(6) 0.1364(4) -0.0370(2)
C9 C 0.1048(7) 0.1476(5) -0.0975(2)
C10 C 0.0384(8) 0.2589(5) -0.1197(3)
C11 C 0.0330(8) 0.3562(5) -0.0818(3)
C12 C 0.0964(7) 0.3409(5) -0.0218(3)
C13 C -0.3222(6) 0.0183(4) 0.2664(2)
C14 C -0.2346(6) -0.0585(4) 0.30931(19)
H2 H -0.3018 -0.1022 0.3360
C15 C -0.0462(6) -0.0701(4) 0.31248(19)
C16 C 0.0518(6) -0.0096(4) 0.27083(19)
H3 H 0.1781 -0.0175 0.2728
C17 C -0.0371(6) 0.0630(4) 0.22602(19)
C18 C -0.2246(7) 0.0777(4) 0.2244(2)
C19 C 0.0525(7) -0.1528(4) 0.3582(2)
C20 C 0.0680(6) 0.1171(4) 0.1778(2)
H4 H 0.441(6) -0.097(3) 0.1520(18)
H5 H 0.513(6) -0.304(4) 0.1536(19)
H6 H 0.472(6) -0.416(4) 0.0714(19)
H7 H 0.204(6) -0.116(4) -0.070(2)
H8 H 0.114(6) 0.083(4) -0.1233(19)
H9 H -0.004(6) 0.268(4) -0.1618(19)
H10 H 0.002(6) 0.432(4) -0.091(2)
H11 H 0.102(5) 0.401(3) 0.0081(16)
H12 H -0.277(5) 0.126(3) 0.1954(16)
N1 N 0.1565(5) 0.2333(3) 0.00117(16)
N2 N 0.2911(5) 0.0263(3) 0.05065(16)
N3 N 0.2509(5) -0.0866(3) -0.03235(19)
O1 O -0.0115(4) 0.1599(2) 0.13019(13)
O2 O 0.2405(4) 0.1168(3) 0.18406(13)
O3 O -0.0265(4) -0.2452(3) 0.37793(13)
O4 O 0.2170(4) -0.1307(2) 0.37402(14)
O5 O -0.5065(4) 0.0304(3) 0.26876(15)
H13 H -0.5497 0.0660 0.2382
Zn1 Zn 0.24891(8) 0.19163(4) 0.09225(2)
C19A C 0.4475(7) 0.3472(4) 0.1418(2)
O3A O 0.5265(4) 0.2548(3) 0.12207(13)
O4A O 0.2830(4) 0.3693(2) 0.12598(14)
Zn1A Zn 0.25109(8) -0.30837(4) 0.40775(2)
loop_
_geom_bond_atom_site_label_1
_geom_bond_atom_site_label_2
_geom_bond_site_symmetry_1
_geom_bond_site_symmetry_2
C1 C2 1_555 1_555
C2 C3 1_555 1_555
C3 C4 1_555 1_555
C4 C5 1_555 1_555
C5 H1 1_555 1_555
C6 C1 1_555 1_555
C7 C8 1_555 1_555
C8 C9 1_555 1_555
C9 C10 1_555 1_555
C10 C11 1_555 1_555
C11 C12 1_555 1_555
C12 H11 1_555 1_555
C13 C14 1_555 1_555
C14 H2 1_555 1_555
C15 C14 1_555 1_555
C16 C15 1_555 1_555
H3 C16 1_555 1_555
C17 C16 1_555 1_555
C18 C13 1_555 1_555
C19 C15 1_555 1_555
C20 C17 1_555 1_555
H4 C2 1_555 1_555
H5 C3 1_555 1_555
H6 C4 1_555 1_555
H7 N3 1_555 1_555
H8 C9 1_555 1_555
H9 C10 1_555 1_555
H10 C11 1_555 1_555
H12 C18 1_555 1_555
N1 C8 1_555 1_555
N2 C1 1_555 1_555
N3 C6 1_555 1_555
O1 C20 1_555 1_555
O2 C20 1_555 1_555
O3 C19 1_555 1_555
O4 C19 1_555 1_555
O5 C13 1_555 1_555
H13 O5 1_555 1_555
Zn1 N1 1_555 1_555
C19A O3A 1_555 1_555
O3A Zn1 1_555 1_555
O4A Zn1 1_555 1_555
Zn1A O3 1_555 1_555
C5 C6 1_555 1_555
C7 N2 1_555 1_555
C7 N3 1_555 1_555
C12 N1 1_555 1_555
C17 C18 1_555 1_555
N2 Zn1 1_555 1_555
O1 Zn1 1_555 1_555
O2 Zn1 1_555 1_555
O4 Zn1A 1_555 1_555
C19A O4A 1_555 1_555

#END
