
#######################################################################
#
#                 Cambridge Crystallographic Data Centre
#                                CCDC 
#
#######################################################################
#
# If this CIF has been generated from an entry in the Cambridge 
# Structural Database, then it will include bibliographic, chemical, 
# crystal, experimental, refinement or atomic coordinate data resulting 
# from the CCDC's data processing and validation procedures.
#
#######################################################################

data_EQOGOH
_symmetry_cell_setting           monoclinic
_symmetry_space_group_name_H-M   'P 21/c'
_symmetry_Int_Tables_number      14
_space_group_name_Hall           '-P 2ybc'
loop_
_symmetry_equiv_pos_site_id
_symmetry_equiv_pos_as_xyz
1 x,y,z
2 -x,1/2+y,1/2-z
3 -x,-y,-z
4 x,1/2-y,1/2+z
_cell_length_a                   12.670(3)
_cell_length_b                   10.095(3)
_cell_length_c                   18.237(5)
_cell_angle_alpha                90
_cell_angle_beta                 91.786(4)
_cell_angle_gamma                90
_cell_volume                     2331.45
loop_
_atom_site_label
_atom_site_type_symbol
_atom_site_fract_x
_atom_site_fract_y
_atom_site_fract_z
Co1 Co 0.10434(3) 0.68200(4) 0.00053(2)
O1 O -0.23866(15) 1.19323(18) -0.03155(11)
O2 O -0.09796(14) 1.11000(19) 0.02436(10)
O3 O -0.48985(15) 0.80256(19) -0.01272(11)
O4 O -0.17295(14) 0.49377(18) -0.03073(10)
O5 O -0.03751(14) 0.63082(19) -0.04378(10)
N1 N -0.30305(19) 0.7637(3) 0.24276(13)
N2 N -0.52303(19) 0.8332(3) 0.22761(13)
N3 N -0.82789(18) 0.8432(2) 0.39214(13)
N4 N 0.02817(18) 0.7224(2) 0.10452(12)
C1 C -0.6334(2) 0.8180(4) 0.20237(17)
H1 H -0.6433 0.7302 0.1789
H2 H -0.6514 0.8869 0.1654
C2 C -0.3402(2) 0.8711(4) 0.19504(17)
H3 H -0.2929 0.8792 0.1530
H4 H -0.3374 0.9556 0.2226
C3 C -0.4875(2) 0.7221(3) 0.27300(18)
H5 H -0.4890 0.6398 0.2435
H6 H -0.5356 0.7105 0.3143
C4 C -0.5343(2) 0.6730(3) -0.00849(19)
H7 H -0.5216 0.6248 -0.0540
H8 H -0.6105 0.6800 -0.0016
H9 H -0.5014 0.6252 0.0330
C5 C -0.4517(2) 0.8467(4) 0.16679(17)
H10 H -0.4750 0.9215 0.1351
H11 H -0.4539 0.7650 0.1368
C6 C -0.3767(2) 0.7474(4) 0.30250(16)
H12 H -0.3760 0.8283 0.3332
H13 H -0.3535 0.6721 0.3339
C7 C -0.7942(2) 0.7514(3) 0.27382(17)
H14 H -0.8148 0.6914 0.2359
C8 C -0.7055(2) 0.8303(3) 0.26635(17)
C9 C -0.1968(2) 0.7891(3) 0.27326(16)
H15 H -0.1826 0.7294 0.3155
H16 H -0.1924 0.8815 0.2912
C10 C -0.0675(2) 0.8710(3) 0.18004(16)
H17 H -0.0830 0.9600 0.1928
C11 C -0.6845(2) 0.9214(3) 0.32154(16)
H18 H -0.6275 0.9819 0.3176
C12 C -0.0149(2) 0.6222(3) 0.14165(16)
H19 H 0.0035 0.5341 0.1289
C13 C -0.3817(2) 0.8113(3) -0.01387(15)
C14 C -0.1143(2) 0.7672(3) 0.21656(16)
C15 C -0.0845(2) 0.6409(3) 0.19729(16)
H20 H -0.1119 0.5666 0.2224
C16 C 0.0014(2) 0.8443(3) 0.12516(16)
H21 H 0.0318 0.9171 0.1004
C17 C -0.1882(2) 1.0954(3) -0.00598(14)
C18 C -0.8522(2) 0.7603(3) 0.33641(16)
H22 H -0.9125 0.7050 0.3403
C19 C -0.7461(2) 0.9244(3) 0.38195(16)
H23 H -0.7298 0.9880 0.4189
C20 C -0.2064(2) 0.7243(3) -0.02283(14)
C21 C -0.3416(2) 0.9388(3) -0.01107(14)
H24 H -0.3881 1.0124 -0.0086
C22 C -0.2332(2) 0.9590(3) -0.01188(14)
C23 C -0.1656(2) 0.8511(3) -0.01858(14)
H25 H -0.0915 0.8647 -0.0202
C24 C -0.1331(2) 0.6083(3) -0.03277(14)
C25 C -0.3149(2) 0.7026(3) -0.01917(14)
H26 H -0.3426 0.6152 -0.0203
Co1B Co -0.10434(3) 0.31800(4) -0.00053(2)
Co1_2 Co 0.10434(3) -0.31800(4) 0.00053(2)
Co1A Co 0.89566(3) 0.18200(4) -0.50053(2)
Co1B_2 Co -0.10434(3) 1.31800(4) -0.00053(2)
Co1C Co -0.89566(3) 0.81800(4) 0.50053(2)
O1B O 0.23866(15) -0.19323(18) 0.03155(11)
O1_2 O -0.23866(15) 0.19323(18) -0.03155(11)
O1B_2 O 0.23866(15) 0.80677(18) 0.03155(11)
O2B O 0.09796(14) -0.11000(19) -0.02436(10)
O2_2 O -0.09796(14) 0.11000(19) 0.02436(10)
O2B_2 O 0.09796(14) 0.89000(19) -0.02436(10)
O3B O 0.48985(15) 0.19744(19) 0.01272(11)
O4B O 0.17295(14) 0.50623(18) 0.03073(10)
O5B O 0.03751(14) 0.36918(19) 0.04378(10)
N1B N 0.30305(19) 0.2363(3) -0.24276(13)
N2B N 0.52303(19) 0.1668(3) -0.22761(13)
N3B N 0.82789(18) 0.1568(2) -0.39214(13)
N3A N -0.17211(18) 0.3432(2) 0.10786(13)
N3C N 0.17211(18) 0.6568(2) -0.10786(13)
N4B N -0.02817(18) 0.2776(2) -0.10452(12)
C1B C 0.6334(2) 0.1820(4) -0.20237(17)
H1B H 0.6433 0.2698 -0.1789
H2B H 0.6514 0.1131 -0.1654
C2B C 0.3402(2) 0.1289(4) -0.19504(17)
H3B H 0.2929 0.1208 -0.1530
H4B H 0.3374 0.0444 -0.2226
C3B C 0.4875(2) 0.2779(3) -0.27300(18)
H5B H 0.4890 0.3602 -0.2435
H6B H 0.5356 0.2895 -0.3143
C4B C 0.5343(2) 0.3270(3) 0.00849(19)
H7B H 0.5216 0.3752 0.0540
H8B H 0.6105 0.3200 0.0016
H9B H 0.5014 0.3748 -0.0330
C5B C 0.4517(2) 0.1533(4) -0.16679(17)
H10B H 0.4750 0.0785 -0.1351
H11B H 0.4539 0.2350 -0.1368
C6B C 0.3767(2) 0.2526(4) -0.30250(16)
H12B H 0.3760 0.1717 -0.3332
H13B H 0.3535 0.3279 -0.3339
C7B C 0.7942(2) 0.2486(3) -0.27382(17)
H14B H 0.8148 0.3086 -0.2359
C8B C 0.7055(2) 0.1697(3) -0.26635(17)
C9B C 0.1968(2) 0.2109(3) -0.27326(16)
H15B H 0.1826 0.2706 -0.3155
H16B H 0.1924 0.1185 -0.2912
C10B C 0.0675(2) 0.1290(3) -0.18004(16)
H17B H 0.0830 0.0400 -0.1928
C11B C 0.6845(2) 0.0786(3) -0.32154(16)
H18B H 0.6275 0.0181 -0.3176
C12B C 0.0149(2) 0.3778(3) -0.14165(16)
H19B H -0.0035 0.4659 -0.1289
C13B C 0.3817(2) 0.1887(3) 0.01387(15)
C14B C 0.1143(2) 0.2328(3) -0.21656(16)
C15B C 0.0845(2) 0.3591(3) -0.19729(16)
H20B H 0.1119 0.4334 -0.2224
C16B C -0.0014(2) 0.1557(3) -0.12516(16)
H21B H -0.0318 0.0829 -0.1004
C17B C 0.1882(2) -0.0954(3) 0.00598(14)
C18B C 0.8522(2) 0.2397(3) -0.33641(16)
H22B H 0.9125 0.2950 -0.3403
C19B C 0.7461(2) 0.0756(3) -0.38195(16)
H23B H 0.7298 0.0120 -0.4189
C20B C 0.2064(2) 0.2757(3) 0.02283(14)
C21B C 0.3416(2) 0.0612(3) 0.01107(14)
H24B H 0.3881 -0.0124 0.0086
C22B C 0.2332(2) 0.0410(3) 0.01188(14)
C23B C 0.1656(2) 0.1489(3) 0.01858(14)
H25B H 0.0915 0.1353 0.0202
C24B C 0.1331(2) 0.3917(3) 0.03277(14)
C25B C 0.3149(2) 0.2974(3) 0.01917(14)
H26B H 0.3426 0.3848 0.0203
loop_
_geom_bond_atom_site_label_1
_geom_bond_atom_site_label_2
_geom_bond_site_symmetry_1
_geom_bond_site_symmetry_2
Co1 O5 1_555 1_555
O1 C17 1_555 1_555
O2 C17 1_555 1_555
O3 C4 1_555 1_555
O4 C24 1_555 1_555
O5 C24 1_555 1_555
N1 C2 1_555 1_555
N2 C1 1_555 1_555
N3 C18 1_555 1_555
N4 Co1 1_555 1_555
C1 H1 1_555 1_555
H2 C1 1_555 1_555
C2 H3 1_555 1_555
H4 C2 1_555 1_555
C3 N2 1_555 1_555
H5 C3 1_555 1_555
H6 C3 1_555 1_555
C4 H7 1_555 1_555
H8 C4 1_555 1_555
H9 C4 1_555 1_555
C5 N2 1_555 1_555
H10 C5 1_555 1_555
H11 C5 1_555 1_555
C6 N1 1_555 1_555
H12 C6 1_555 1_555
H13 C6 1_555 1_555
C7 H14 1_555 1_555
C8 C1 1_555 1_555
C9 N1 1_555 1_555
H15 C9 1_555 1_555
H16 C9 1_555 1_555
C10 H17 1_555 1_555
C11 C8 1_555 1_555
H18 C11 1_555 1_555
C12 N4 1_555 1_555
H19 C12 1_555 1_555
C13 O3 1_555 1_555
C14 C9 1_555 1_555
C15 C12 1_555 1_555
H20 C15 1_555 1_555
C16 N4 1_555 1_555
H21 C16 1_555 1_555
C17 C22 1_555 1_555
C18 C7 1_555 1_555
H22 C18 1_555 1_555
C19 N3 1_555 1_555
H23 C19 1_555 1_555
C20 C23 1_555 1_555
C21 C13 1_555 1_555
H24 C21 1_555 1_555
C22 C21 1_555 1_555
C23 C22 1_555 1_555
H25 C23 1_555 1_555
C24 C20 1_555 1_555
C25 C13 1_555 1_555
H26 C25 1_555 1_555
Co1B O4 1_555 1_555
Co1_2 O1B 1_555 1_555
Co1A N3B 1_555 1_555
Co1B_2 O1 1_555 1_555
Co1C N3 1_555 1_555
O1B C17B 1_555 1_555
O1_2 Co1B 1_555 1_555
O1B_2 Co1 1_555 1_555
O2B Co1_2 1_555 1_555
O2_2 Co1B 1_555 1_555
O2B_2 Co1 1_555 1_555
O3B C4B 1_555 1_555
O4B Co1 1_555 1_555
O5B Co1B 1_555 1_555
N1B C2B 1_555 1_555
N2B C1B 1_555 1_555
N3B C18B 1_555 1_555
N3A Co1B 1_555 1_555
N3C Co1 1_555 1_555
N4B Co1B 1_555 1_555
C1B H1B 1_555 1_555
H2B C1B 1_555 1_555
C2B H3B 1_555 1_555
H4B C2B 1_555 1_555
C3B N2B 1_555 1_555
H5B C3B 1_555 1_555
H6B C3B 1_555 1_555
C4B H7B 1_555 1_555
H8B C4B 1_555 1_555
H9B C4B 1_555 1_555
C5B N2B 1_555 1_555
H10B C5B 1_555 1_555
H11B C5B 1_555 1_555
C6B N1B 1_555 1_555
H12B C6B 1_555 1_555
H13B C6B 1_555 1_555
C7B H14B 1_555 1_555
C8B C1B 1_555 1_555
C9B N1B 1_555 1_555
H15B C9B 1_555 1_555
H16B C9B 1_555 1_555
C10B H17B 1_555 1_555
C11B C8B 1_555 1_555
H18B C11B 1_555 1_555
C12B N4B 1_555 1_555
H19B C12B 1_555 1_555
C13B O3B 1_555 1_555
C14B C9B 1_555 1_555
C15B C12B 1_555 1_555
H20B C15B 1_555 1_555
C16B N4B 1_555 1_555
H21B C16B 1_555 1_555
C17B O2B 1_555 1_555
C18B C7B 1_555 1_555
H22B C18B 1_555 1_555
C19B N3B 1_555 1_555
H23B C19B 1_555 1_555
C20B C23B 1_555 1_555
C21B C13B 1_555 1_555
H24B C21B 1_555 1_555
C22B C17B 1_555 1_555
C23B C22B 1_555 1_555
H25B C23B 1_555 1_555
C24B O4B 1_555 1_555
C25B C13B 1_555 1_555
H26B C25B 1_555 1_555
O2 Co1B_2 1_555 1_555
C2 C5 1_555 1_555
C3 C6 1_555 1_555
C7 C8 1_555 1_555
C10 C14 1_555 1_555
C10 C16 1_555 1_555
C11 C19 1_555 1_555
C14 C15 1_555 1_555
C20 C25 1_555 1_555
O5B C24B 1_555 1_555
C2B C5B 1_555 1_555
C3B C6B 1_555 1_555
C7B C8B 1_555 1_555
C10B C14B 1_555 1_555
C10B C16B 1_555 1_555
C11B C19B 1_555 1_555
C14B C15B 1_555 1_555
C20B C24B 1_555 1_555
C20B C25B 1_555 1_555
C21B C22B 1_555 1_555

#END
