
#######################################################################
#
#                 Cambridge Crystallographic Data Centre
#                                CCDC 
#
#######################################################################
#
# If this CIF has been generated from an entry in the Cambridge 
# Structural Database, then it will include bibliographic, chemical, 
# crystal, experimental, refinement or atomic coordinate data resulting 
# from the CCDC's data processing and validation procedures.
#
#######################################################################

data_EQOGAT
_symmetry_cell_setting           monoclinic
_symmetry_space_group_name_H-M   'C 2/c'
_symmetry_Int_Tables_number      15
_space_group_name_Hall           '-C 2yn'
loop_
_symmetry_equiv_pos_site_id
_symmetry_equiv_pos_as_xyz
1 x,y,z
2 -x,y,1/2-z
3 1/2+x,1/2+y,z
4 1/2-x,1/2+y,1/2-z
5 -x,-y,-z
6 x,-y,1/2+z
7 1/2-x,1/2-y,-z
8 1/2+x,1/2-y,1/2+z
_cell_length_a                   12.6291(13)
_cell_length_b                   24.488(3)
_cell_length_c                   14.2851(17)
_cell_angle_alpha                90
_cell_angle_beta                 108.074(3)
_cell_angle_gamma                90
_cell_volume                     4199.84
loop_
_atom_site_label
_atom_site_type_symbol
_atom_site_fract_x
_atom_site_fract_y
_atom_site_fract_z
C1 C 0.7288(3) 0.42351(18) 0.1112(3)
H1 H 0.7014 0.3885 0.1138
C2 C 0.6582(4) 0.46487(19) 0.1004(3)
H2 H 0.5834 0.4590 0.0934
C3 C 0.7010(4) 0.51871(18) 0.1000(3)
H3 H 0.6556 0.5492 0.0943
C4 C 0.8072(4) 0.52362(18) 0.1079(3)
H4 H 0.8369 0.5584 0.1076
C5 C 0.8753(3) 0.47915(16) 0.1164(3)
C6 C 0.9902(3) 0.48012(16) 0.1239(3)
C7 C 1.1621(3) 0.50401(15) 0.1328(3)
C8 C 1.1554(3) 0.44712(16) 0.1379(3)
C9 C 1.2496(3) 0.41514(18) 0.1455(3)
H5 H 1.2464 0.3772 0.1468
C10 C 1.3528(4) 0.49919(18) 0.1485(3)
H6 H 1.4204 0.5158 0.1531
C11 C 1.2596(4) 0.5299(2) 0.1394(3)
H7 H 1.2628 0.5678 0.1378
C12 C 0.7259(3) 0.22764(16) 0.1758(3)
H8 H 0.7358 0.2380 0.1165
C13 C 0.6528(3) 0.18582(17) 0.1787(3)
C14 C 0.6404(4) 0.16981(18) 0.2675(3)
H9 H 0.5921 0.1414 0.2693
C15 C 0.6997(4) 0.1960(2) 0.3536(3)
C16 C 0.7842(3) 0.25378(16) 0.2630(3)
C17 C 0.8651(3) 0.29860(17) 0.2621(3)
C18 C 0.5904(3) 0.15579(16) 0.0850(3)
C19 C 1.3440(4) 0.44103(18) 0.1507(3)
H10 H 1.4072 0.4203 0.1560
C20 C 0.7722(3) 0.23742(16) 0.3516(3)
H11 H 0.8132 0.2544 0.4098
N1 N 1.0492(3) 0.43333(14) 0.1319(3)
N2 N 1.0573(3) 0.52300(13) 0.1245(3)
H12 H 1.0376 0.5568 0.1204
N3 N 0.8381(3) 0.42866(14) 0.1187(3)
Cu1 Cu 0.95493(4) 0.367944(19) 0.13341(4)
O1 O 0.8598(2) 0.31774(11) 0.1796(2)
O2 O 0.9294(2) 0.31374(11) 0.3424(2)
O3 O 0.6891(2) 0.18058(12) 0.4429(2)
H13 H 0.6699 0.1426 0.4405
O4 O 0.5083(2) 0.12854(11) 0.0865(2)
O5 O 0.6253(2) 0.16149(12) 0.0135(2)
C1A C 1.2712(3) 0.42351(18) 0.3888(3)
H1A H 1.2986 0.3885 0.3862
C2A C 1.3418(4) 0.46487(19) 0.3996(3)
H2A H 1.4166 0.4590 0.4066
C3A C 1.2990(4) 0.51871(18) 0.4000(3)
H3A H 1.3444 0.5492 0.4057
C4A C 1.1928(4) 0.52362(18) 0.3921(3)
H4A H 1.1631 0.5584 0.3924
C5A C 1.1247(3) 0.47915(16) 0.3836(3)
C6A C 1.0098(3) 0.48012(16) 0.3761(3)
C7A C 0.8379(3) 0.50401(15) 0.3672(3)
C8A C 0.8446(3) 0.44712(16) 0.3621(3)
C9A C 0.7504(3) 0.41514(18) 0.3545(3)
H5A H 0.7536 0.3772 0.3532
C10A C 0.6472(4) 0.49919(18) 0.3515(3)
H6A H 0.5796 0.5158 0.3469
C11A C 0.7404(4) 0.5299(2) 0.3606(3)
H7A H 0.7372 0.5678 0.3622
C12A C 1.2741(3) 0.22764(16) 0.3242(3)
H8A H 1.2642 0.2380 0.3835
C13A C 1.3472(3) 0.18582(17) 0.3213(3)
C14A C 1.3596(4) 0.16981(18) 0.2325(3)
H9A H 1.4079 0.1414 0.2307
C15A C 1.3003(4) 0.1960(2) 0.1464(3)
C16A C 1.2158(3) 0.25378(16) 0.2370(3)
C17A C 1.1349(3) 0.29860(17) 0.2379(3)
C18A C 1.4096(3) 0.15579(16) 0.4150(3)
C19A C 0.6560(4) 0.44103(18) 0.3493(3)
H10A H 0.5928 0.4203 0.3440
C20A C 1.2278(3) 0.23742(16) 0.1484(3)
H11A H 1.1868 0.2544 0.0902
N1A N 0.9508(3) 0.43333(14) 0.3681(3)
N2A N 0.9427(3) 0.52300(13) 0.3755(3)
H12A H 0.9624 0.5568 0.3796
N3A N 1.1619(3) 0.42866(14) 0.3813(3)
Cu1A Cu 1.04507(4) 0.367944(19) 0.36659(4)
Cu1F Cu 0.54507(4) 0.132056(19) -0.13341(4)
Cu1G Cu 1.45493(4) 0.132056(19) 0.63341(4)
O1A O 1.1402(2) 0.31774(11) 0.3204(2)
O2A O 1.0706(2) 0.31374(11) 0.1576(2)
O3A O 1.3109(2) 0.18058(12) 0.0571(2)
H13A H 1.3301 0.1426 0.0595
O4A O 1.4917(2) 0.12854(11) 0.4135(2)
O5A O 1.3747(2) 0.16149(12) 0.4865(2)
O5F O 0.8747(2) 0.33851(12) -0.0135(2)
O5G O 1.1253(2) 0.33851(12) 0.5135(2)
O6 O 0.9234(6) 0.2007(3) 0.0463(5)
H14 H 0.8903 0.1738 0.0119
H15 H 0.8917 0.2303 0.0213
O7 O 1.0000 0.1891(3) 0.7500
H16 H 0.9339 0.1941 0.7125
H16A H 1.0661 0.1941 0.7875
O8 O 1.0000 0.1319(3) 0.2500
H17 H 1.0000 0.1386 0.3084
H17A H 1.0000 0.1386 0.1916
H18? H 1.0173 0.2143 0.7930
H19? H 0.9354 0.1215 0.2156
loop_
_geom_bond_atom_site_label_1
_geom_bond_atom_site_label_2
_geom_bond_site_symmetry_1
_geom_bond_site_symmetry_2
C1 H1 1_555 1_555
C2 C1 1_555 1_555
H2 C2 1_555 1_555
C3 C2 1_555 1_555
H3 C3 1_555 1_555
C4 C3 1_555 1_555
H4 C4 1_555 1_555
C5 C4 1_555 1_555
C6 C5 1_555 1_555
C7 C8 1_555 1_555
C8 C9 1_555 1_555
C9 H5 1_555 1_555
C10 H6 1_555 1_555
C11 C7 1_555 1_555
H7 C11 1_555 1_555
C12 H8 1_555 1_555
C13 C12 1_555 1_555
C14 C13 1_555 1_555
H9 C14 1_555 1_555
C15 C14 1_555 1_555
C16 C12 1_555 1_555
C17 C16 1_555 1_555
C18 C13 1_555 1_555
C19 C9 1_555 1_555
H10 C19 1_555 1_555
C20 C15 1_555 1_555
H11 C20 1_555 1_555
N1 C6 1_555 1_555
N2 C6 1_555 1_555
H12 N2 1_555 1_555
N3 C1 1_555 1_555
Cu1 N1 1_555 1_555
O1 C17 1_555 1_555
O2 C17 1_555 1_555
O3 C15 1_555 1_555
H13 O3 1_555 1_555
O4 C18 1_555 1_555
O5 C18 1_555 1_555
O6 H14 1_555 1_555
H15 O6 1_555 1_555
O7 H16 1_555 1_555
O8 H17 1_555 1_555
C1A H1A 1_555 1_555
C2A C1A 1_555 1_555
H2A C2A 1_555 1_555
C3A C2A 1_555 1_555
H3A C3A 1_555 1_555
C4A C3A 1_555 1_555
H4A C4A 1_555 1_555
C5A C4A 1_555 1_555
C6A C5A 1_555 1_555
C7A C8A 1_555 1_555
C8A C9A 1_555 1_555
C9A H5A 1_555 1_555
C10A H6A 1_555 1_555
C11A C7A 1_555 1_555
H7A C11A 1_555 1_555
C12A H8A 1_555 1_555
C13A C12A 1_555 1_555
C14A C13A 1_555 1_555
H9A C14A 1_555 1_555
C15A C14A 1_555 1_555
C16A C12A 1_555 1_555
C17A C16A 1_555 1_555
C18A C13A 1_555 1_555
C19A C9A 1_555 1_555
H10A C19A 1_555 1_555
C20A C15A 1_555 1_555
H11A C20A 1_555 1_555
N1A C6A 1_555 1_555
N2A C6A 1_555 1_555
H12A N2A 1_555 1_555
N3A C1A 1_555 1_555
Cu1A O2 1_555 1_555
Cu1F O5 1_555 1_555
Cu1G O5A 1_555 1_555
O1A C17A 1_555 1_555
O2A Cu1 1_555 1_555
O3A C15A 1_555 1_555
H13A O3A 1_555 1_555
O4A C18A 1_555 1_555
O5A C18A 1_555 1_555
O5F Cu1 1_555 1_555
O5G Cu1A 1_555 1_555
H16A O7 1_555 1_555
H17A O8 1_555 1_555
C5 N3 1_555 1_555
C7 N2 1_555 1_555
C8 N1 1_555 1_555
C10 C11 1_555 1_555
C10 C19 1_555 1_555
C16 C20 1_555 1_555
N3 Cu1 1_555 1_555
Cu1 O1 1_555 1_555
C5A N3A 1_555 1_555
C7A N2A 1_555 1_555
C8A N1A 1_555 1_555
C10A C11A 1_555 1_555
C10A C19A 1_555 1_555
C16A C20A 1_555 1_555
C17A O2A 1_555 1_555
N1A Cu1A 1_555 1_555
N3A Cu1A 1_555 1_555
Cu1A O1A 1_555 1_555

#END
