
#######################################################################
#
#                 Cambridge Crystallographic Data Centre
#                                CCDC 
#
#######################################################################
#
# If this CIF has been generated from an entry in the Cambridge 
# Structural Database, then it will include bibliographic, chemical, 
# crystal, experimental, refinement or atomic coordinate data resulting 
# from the CCDC's data processing and validation procedures.
#
#######################################################################

data_EQOHOI
_symmetry_cell_setting           tetragonal
_symmetry_space_group_name_H-M   'I 41/a'
_symmetry_Int_Tables_number      88
_space_group_name_Hall           'I -4 -1bw'
loop_
_symmetry_equiv_pos_site_id
_symmetry_equiv_pos_as_xyz
1 x,y,z
2 1/2-x,1/2-y,1/2+z
3 -y,1/2+x,1/4+z
4 1/2+y,-x,3/4+z
5 -x,1/2-y,1/4-z
6 1/2+x,y,3/4-z
7 y,-x,-z
8 1/2-y,1/2+x,1/2-z
9 1/2+x,1/2+y,1/2+z
10 -x,-y,z
11 1/2-y,x,3/4+z
12 y,1/2-x,1/4+z
13 1/2-x,-y,3/4-z
14 x,1/2+y,1/4-z
15 1/2+y,1/2-x,1/2-z
16 -y,x,-z
_cell_length_a                   13.56131(18)
_cell_length_b                   13.56131(18)
_cell_length_c                   19.96476(36)
_cell_angle_alpha                90
_cell_angle_beta                 90
_cell_angle_gamma                90
_cell_volume                     3671.7
loop_
_atom_site_label
_atom_site_type_symbol
_atom_site_fract_x
_atom_site_fract_y
_atom_site_fract_z
Zn1 Zn -0.14737(25) 0.66255(27) -0.46134(13)
O1 O -0.00410(96) 0.6944(11) -0.45989(59)
C1 C -0.160760 0.709030 -0.602150
C2 C -0.178070 0.802020 -0.568290
O2 O -0.175690 0.806110 -0.505760
O3 O -0.195380 0.878100 -0.601630
N1 N -0.142440 0.623610 -0.564790
C3 C -0.125730 0.533820 -0.597490
O4 O -0.108070 0.451450 -0.561460
N2 N -0.12732 0.52946 -0.66754
H1 H -0.115380 0.465330 -0.690890
C4 C -0.145630 0.614880 -0.704900
O5 O -0.147170 0.61068 -0.772450
N3 N -0.162350 0.704670 -0.672200
O6 O -0.1257 0.49961(94) -0.43231
Zn1J Zn -0.16255(27) 0.85263(25) -0.71134(13)
O3K O -0.121900 0.695380 -0.351630
N3K N -0.295330 0.662350 -0.422200
O7 O 0.07073(79) 0.75386(87) -0.59153(61)
loop_
_geom_bond_atom_site_label_1
_geom_bond_atom_site_label_2
_geom_bond_site_symmetry_1
_geom_bond_site_symmetry_2
Zn1 O1 1_555 1_555
C1 C2 1_555 1_555
C2 O2 1_555 1_555
O2 Zn1 1_555 1_555
O3 C2 1_555 1_555
N1 Zn1 1_555 1_555
C3 N1 1_555 1_555
O4 C3 1_555 1_555
N2 C3 1_555 1_555
H1 N2 1_555 1_555
C4 N2 1_555 1_555
O5 C4 1_555 1_555
N3 C1 1_555 1_555
O6 Zn1 1_555 1_555
Zn1J O3 1_555 1_555
O3K Zn1 1_555 1_555
N3K Zn1 1_555 1_555
C1 N1 1_555 1_555
C4 N3 1_555 1_555
N3 Zn1J 1_555 1_555

#END
