
#######################################################################
#
#                 Cambridge Crystallographic Data Centre
#                                CCDC 
#
#######################################################################
#
# If this CIF has been generated from an entry in the Cambridge 
# Structural Database, then it will include bibliographic, chemical, 
# crystal, experimental, refinement or atomic coordinate data resulting 
# from the CCDC's data processing and validation procedures.
#
#######################################################################

data_EQOHEY
_symmetry_cell_setting           tetragonal
_symmetry_space_group_name_H-M   'I 41/a'
_symmetry_Int_Tables_number      88
_space_group_name_Hall           'I -4 -1bw'
loop_
_symmetry_equiv_pos_site_id
_symmetry_equiv_pos_as_xyz
1 x,y,z
2 1/2-x,1/2-y,1/2+z
3 -y,1/2+x,1/4+z
4 1/2+y,-x,3/4+z
5 -x,1/2-y,1/4-z
6 1/2+x,y,3/4-z
7 y,-x,-z
8 1/2-y,1/2+x,1/2-z
9 1/2+x,1/2+y,1/2+z
10 -x,-y,z
11 1/2-y,x,3/4+z
12 y,1/2-x,1/4+z
13 1/2-x,-y,3/4-z
14 x,1/2+y,1/4-z
15 1/2+y,1/2-x,1/2-z
16 -y,x,-z
_cell_length_a                   13.61460(13)
_cell_length_b                   13.61460(13)
_cell_length_c                   19.78053(25)
_cell_angle_alpha                90
_cell_angle_beta                 90
_cell_angle_gamma                90
_cell_volume                     3666.47
loop_
_atom_site_label
_atom_site_type_symbol
_atom_site_fract_x
_atom_site_fract_y
_atom_site_fract_z
Co1 Co -0.14595(27) 0.66363(30) -0.45961(16)
O1 O -0.00760(87) 0.7046(10) -0.46820(59)
C1 C -0.160280 0.707070 -0.601690
C2 C -0.176390 0.799360 -0.566830
O2 O -0.172770 0.802650 -0.503720
O3 O -0.193900 0.875630 -0.599870
N1 N -0.137850 0.622230 -0.564800
C3 C -0.122290 0.533130 -0.598460
O4 O -0.100660 0.451320 -0.562890
N2 N -0.12916 0.52886 -0.66902
H1 H -0.118050 0.465210 -0.693070
C4 C -0.151590 0.613700 -0.705910
O5 O -0.158220 0.609590 -0.773950
N3 N -0.167150 0.702810 -0.672250
O6 O -0.12913(95) 0.5085(10) -0.43107(51)
Co1J Co -0.16363(30) 0.85405(27) -0.70961(16)
O3K O -0.124370 0.693900 -0.349870
N3K N -0.297190 0.667150 -0.422250
O7 O 0.25481(84) 0.42944(78) 0.09119(57)
loop_
_geom_bond_atom_site_label_1
_geom_bond_atom_site_label_2
_geom_bond_site_symmetry_1
_geom_bond_site_symmetry_2
Co1 O1 1_555 1_555
C1 C2 1_555 1_555
C2 O2 1_555 1_555
O2 Co1 1_555 1_555
O3 C2 1_555 1_555
N1 Co1 1_555 1_555
C3 N1 1_555 1_555
O4 C3 1_555 1_555
N2 C3 1_555 1_555
H1 N2 1_555 1_555
C4 N2 1_555 1_555
O5 C4 1_555 1_555
N3 C1 1_555 1_555
O6 Co1 1_555 1_555
Co1J O3 1_555 1_555
O3K Co1 1_555 1_555
N3K Co1 1_555 1_555
C1 N1 1_555 1_555
C4 N3 1_555 1_555
N3 Co1J 1_555 1_555

#END
