
#######################################################################
#
#                 Cambridge Crystallographic Data Centre
#                                CCDC 
#
#######################################################################
#
# If this CIF has been generated from an entry in the Cambridge 
# Structural Database, then it will include bibliographic, chemical, 
# crystal, experimental, refinement or atomic coordinate data resulting 
# from the CCDC's data processing and validation procedures.
#
#######################################################################

data_EQOHAU
_symmetry_cell_setting           triclinic
_symmetry_space_group_name_H-M   'P -1'
_symmetry_Int_Tables_number      2
_space_group_name_Hall           '-P 1'
loop_
_symmetry_equiv_pos_site_id
_symmetry_equiv_pos_as_xyz
1 x,y,z
2 -x,-y,-z
_cell_length_a                   11.6902(9)
_cell_length_b                   13.6397(10)
_cell_length_c                   14.0927(10)
_cell_angle_alpha                87.051(1)
_cell_angle_beta                 89.268(1)
_cell_angle_gamma                80.615(1)
_cell_volume                     2214.06
loop_
_atom_site_label
_atom_site_type_symbol
_atom_site_fract_x
_atom_site_fract_y
_atom_site_fract_z
Co1 Co 0.10990(3) 0.65249(3) 0.14593(3)
Co2 Co -0.11590(3) 0.85325(3) 0.34728(3)
O1 O -0.3028(2) 0.45386(16) -0.09771(15)
O2 O -0.04999(17) 0.73404(14) 0.14061(14)
O3 O -0.12559(19) 0.44768(16) -0.04235(15)
O4 O 0.18657(17) 0.70751(14) 0.25444(13)
O5 O 0.04699(17) 0.77746(14) 0.35087(14)
O6 O -0.19074(16) 0.80158(14) 0.23694(13)
O7 O 0.12186(18) 1.06444(15) 0.53205(14)
O8 O 0.29433(18) 1.04867(15) 0.59725(14)
O9 O -0.54388(18) 0.67421(17) 0.14277(17)
H1 H -0.579(3) 0.639(3) 0.124(2)
O10 O 0.53680(18) 0.84820(17) 0.33829(16)
H2 H 0.571(3) 0.881(2) 0.362(2)
N1 N 0.1769(2) 0.75715(18) 0.04523(17)
N2 N 0.4816(2) 0.88182(18) -0.15381(17)
N3 N 0.7286(2) 0.87151(18) -0.13166(17)
N4 N 1.0585(2) 1.02152(18) -0.26958(17)
N5 N 0.0369(2) 0.53811(18) 0.23404(17)
N6 N -0.2884(2) 0.35485(18) 0.33472(18)
N7 N -0.5351(2) 0.39546(18) 0.35392(18)
N8 N -0.8301(2) 0.26192(17) 0.56039(17)
C1 C 0.1958(3) 0.7364(2) -0.0467(2)
H3 H 0.1691 0.6811 -0.0686
C2 C 0.2524(3) 0.7924(2) -0.1105(2)
H4 H 0.2645 0.7737 -0.1728
C3 C 0.2910(3) 0.8765(2) -0.0810(2)
C4 C 0.2676(3) 0.9009(2) 0.0124(2)
H5 H 0.2885 0.9584 0.0348
C5 C -0.7329(3) 0.2983(2) 0.5760(2)
H6 H -0.7024 0.2916 0.6371
C6 C 0.3621(3) 0.9352(2) -0.1452(2)
H7 H 0.3268 0.9458 -0.2076
H8 H 0.3633 0.9997 -0.1197
C7 C 0.5378(3) 0.8620(3) -0.0622(2)
H9 H 0.4948 0.8209 -0.0219
H10 H 0.5377 0.9242 -0.0318
C8 C 0.5494(3) 0.9409(3) -0.2151(2)
H11 H 0.5480 1.0055 -0.1889
H12 H 0.5141 0.9515 -0.2776
C9 C 0.6611(3) 0.8095(3) -0.0731(3)
H13 H 0.6965 0.7954 -0.0109
H14 H 0.6611 0.7468 -0.1025
C10 C 0.6740(3) 0.8901(2) -0.2247(2)
H15 H 0.6760 0.8276 -0.2550
H16 H 0.7167 0.9319 -0.2645
C11 C 0.8490(3) 0.8203(2) -0.1361(2)
H17 H 0.8523 0.7613 -0.1723
H18 H 0.8759 0.7993 -0.0723
C12 C 0.9272(3) 0.8863(2) -0.1814(2)
C13 C 0.9566(3) 0.8834(2) -0.2765(2)
H19 H 0.9327 0.8358 -0.3132
C14 C 0.9696(3) 0.9575(2) -0.1307(2)
H20 H 0.9552 0.9608 -0.0658
C15 C 1.0324(3) 1.0227(2) -0.1761(2)
H21 H 1.0584 1.0702 -0.1405
C16 C 1.0210(3) 0.9503(2) -0.3174(2)
H22 H 1.0395 0.9460 -0.3816
C17 C 0.2129(3) 0.8390(2) 0.0721(2)
H23 H 0.2006 0.8558 0.1349
C18 C -0.8227(3) 0.3249(2) 0.3990(2)
H24 H -0.8570 0.3341 0.3393
C19 C 0.0009(3) 0.5546(2) 0.3233(2)
H25 H 0.0226 0.6081 0.3529
C20 C -0.0672(3) 0.4956(2) 0.3735(2)
H26 H -0.0900 0.5101 0.4354
C21 C 0.0037(3) 0.4590(2) 0.1936(2)
H27 H 0.0274 0.4459 0.1316
C22 C -0.0632(3) 0.3974(2) 0.2399(2)
H28 H -0.0829 0.3437 0.2095
C23 C -0.1014(3) 0.4153(2) 0.3323(2)
C24 C -0.1771(3) 0.3494(2) 0.3828(2)
H29 H -0.1372 0.2811 0.3853
H30 H -0.1908 0.3695 0.4475
C25 C -0.3539(3) 0.2845(2) 0.3839(2)
H31 H -0.3586 0.2970 0.4511
H32 H -0.3134 0.2172 0.3772
C26 C -0.3532(3) 0.4564(2) 0.3357(3)
H33 H -0.3118 0.5009 0.2980
H34 H -0.3580 0.4779 0.4004
C27 C -0.4740(3) 0.4633(3) 0.2968(3)
H35 H -0.5150 0.5309 0.2995
H36 H -0.4703 0.4453 0.2310
C28 C -0.4745(3) 0.2938(2) 0.3442(2)
H37 H -0.4704 0.2781 0.2778
H38 H -0.5165 0.2472 0.3784
C29 C -0.6579(3) 0.4075(3) 0.3345(2)
H39 H -0.6701 0.3776 0.2753
H40 H -0.6898 0.4778 0.3279
C30 C -0.7193(3) 0.3588(2) 0.4143(2)
C31 C -0.8747(3) 0.2774(2) 0.4728(2)
H41 H -0.9440 0.2552 0.4610
C32 C -0.6759(3) 0.3452(2) 0.5054(2)
H42 H -0.6076 0.3680 0.5193
C33 C 0.1491(3) 0.7656(2) 0.3188(2)
C34 C -0.2336(3) 0.4824(2) -0.0424(2)
C35 C -0.1517(3) 0.7430(2) 0.1736(2)
C36 C 0.2277(3) 1.0258(2) 0.5352(2)
C37 C -0.1960(3) 0.6100(2) 0.06977(19)
H43 H -0.1176 0.5958 0.0546
C38 C -0.2355(3) 0.6822(2) 0.13366(19)
C39 C -0.3519(2) 0.7021(2) 0.15834(19)
H44 H -0.3773 0.7497 0.2022
C40 C -0.4307(3) 0.6507(2) 0.1175(2)
C41 C -0.3919(3) 0.5804(2) 0.0514(2)
H45 H -0.4447 0.5476 0.0223
C42 C -0.2752(3) 0.5589(2) 0.0285(2)
C43 C 0.3486(2) 0.8093(2) 0.3317(2)
H46 H 0.3745 0.7627 0.2871
C44 C 0.2334(3) 0.8243(2) 0.3602(2)
C45 C 0.1939(3) 0.8944(2) 0.4265(2)
H47 H 0.1164 0.9042 0.4451
C46 C 0.2707(3) 0.9497(2) 0.4649(2)
C47 C 0.3863(3) 0.9336(2) 0.4369(2)
H48 H 0.4380 0.9696 0.4631
C48 C 0.4251(2) 0.8642(2) 0.3702(2)
Co1A Co -0.10990(3) 0.34751(3) -0.14593(3)
Co2A Co 0.11590(3) 1.14675(3) 0.65272(3)
Co2A_2 Co 1.11590(3) 1.14675(3) -0.34728(3)
Co2A_3 Co -0.88410(3) 0.14675(3) 0.65272(3)
O3A O 0.12559(19) 0.55232(16) 0.04235(15)
O7A O -0.12186(18) 0.93556(15) 0.46795(14)
O8A O -0.29433(18) 0.95133(15) 0.40275(14)
N4A N -0.0585(2) 0.97848(18) 0.26958(17)
N8A N -0.1699(2) 0.73808(17) 0.43961(17)
loop_
_geom_bond_atom_site_label_1
_geom_bond_atom_site_label_2
_geom_bond_site_symmetry_1
_geom_bond_site_symmetry_2
Co1 O2 1_555 1_555
Co2 O5 1_555 1_555
O1 C34 1_555 1_555
O2 C35 1_555 1_555
O3 C34 1_555 1_555
O4 Co1 1_555 1_555
O5 C33 1_555 1_555
O6 Co2 1_555 1_555
O7 C36 1_555 1_555
O8 C36 1_555 1_555
O9 H1 1_555 1_555
O10 H2 1_555 1_555
N1 Co1 1_555 1_555
N2 C6 1_555 1_555
N3 C9 1_555 1_555
N4 C15 1_555 1_555
N5 Co1 1_555 1_555
N6 C24 1_555 1_555
N7 C27 1_555 1_555
N8 C5 1_555 1_555
C1 N1 1_555 1_555
H3 C1 1_555 1_555
C2 C1 1_555 1_555
H4 C2 1_555 1_555
C3 C2 1_555 1_555
C4 C3 1_555 1_555
H5 C4 1_555 1_555
C5 H6 1_555 1_555
C6 C3 1_555 1_555
H7 C6 1_555 1_555
H8 C6 1_555 1_555
C7 N2 1_555 1_555
H9 C7 1_555 1_555
H10 C7 1_555 1_555
C8 N2 1_555 1_555
H11 C8 1_555 1_555
H12 C8 1_555 1_555
C9 C7 1_555 1_555
H13 C9 1_555 1_555
H14 C9 1_555 1_555
C10 N3 1_555 1_555
H15 C10 1_555 1_555
H16 C10 1_555 1_555
C11 N3 1_555 1_555
H17 C11 1_555 1_555
H18 C11 1_555 1_555
C12 C11 1_555 1_555
C13 C12 1_555 1_555
H19 C13 1_555 1_555
C14 C12 1_555 1_555
H20 C14 1_555 1_555
C15 C14 1_555 1_555
H21 C15 1_555 1_555
C16 N4 1_555 1_555
H22 C16 1_555 1_555
C17 N1 1_555 1_555
H23 C17 1_555 1_555
C18 H24 1_555 1_555
C19 N5 1_555 1_555
H25 C19 1_555 1_555
C20 C19 1_555 1_555
H26 C20 1_555 1_555
C21 N5 1_555 1_555
H27 C21 1_555 1_555
C22 C21 1_555 1_555
H28 C22 1_555 1_555
C23 C20 1_555 1_555
C24 C23 1_555 1_555
H29 C24 1_555 1_555
H30 C24 1_555 1_555
C25 N6 1_555 1_555
H31 C25 1_555 1_555
H32 C25 1_555 1_555
C26 N6 1_555 1_555
H33 C26 1_555 1_555
H34 C26 1_555 1_555
C27 C26 1_555 1_555
H35 C27 1_555 1_555
H36 C27 1_555 1_555
C28 N7 1_555 1_555
H37 C28 1_555 1_555
H38 C28 1_555 1_555
C29 N7 1_555 1_555
H39 C29 1_555 1_555
H40 C29 1_555 1_555
C30 C18 1_555 1_555
C31 N8 1_555 1_555
H41 C31 1_555 1_555
C32 C5 1_555 1_555
H42 C32 1_555 1_555
C33 O4 1_555 1_555
C34 C42 1_555 1_555
C35 O6 1_555 1_555
C36 C46 1_555 1_555
C37 H43 1_555 1_555
C38 C35 1_555 1_555
C39 C38 1_555 1_555
H44 C39 1_555 1_555
C40 O9 1_555 1_555
C41 C40 1_555 1_555
H45 C41 1_555 1_555
C42 C37 1_555 1_555
C43 H46 1_555 1_555
C44 C33 1_555 1_555
C45 C44 1_555 1_555
H47 C45 1_555 1_555
C46 C45 1_555 1_555
C47 C46 1_555 1_555
H48 C47 1_555 1_555
C48 O10 1_555 1_555
Co1A O3 1_555 1_555
Co2A O7 1_555 1_555
Co2A_2 N4 1_555 1_555
Co2A_3 N8 1_555 1_555
O3A Co1 1_555 1_555
O7A Co2 1_555 1_555
O8A Co2 1_555 1_555
N4A Co2 1_555 1_555
N8A Co2 1_555 1_555
O8 Co2A 1_555 1_555
C4 C17 1_555 1_555
C8 C10 1_555 1_555
C13 C16 1_555 1_555
C18 C31 1_555 1_555
C22 C23 1_555 1_555
C25 C28 1_555 1_555
C29 C30 1_555 1_555
C30 C32 1_555 1_555
C37 C38 1_555 1_555
C39 C40 1_555 1_555
C41 C42 1_555 1_555
C43 C44 1_555 1_555
C43 C48 1_555 1_555
C47 C48 1_555 1_555

#END
