
#######################################################################
#
#                 Cambridge Crystallographic Data Centre
#                                CCDC 
#
#######################################################################
#
# If this CIF has been generated from an entry in the Cambridge 
# Structural Database, then it will include bibliographic, chemical, 
# crystal, experimental, refinement or atomic coordinate data resulting 
# from the CCDC's data processing and validation procedures.
#
#######################################################################

data_EQOKAW
_symmetry_cell_setting           monoclinic
_symmetry_space_group_name_H-M   'C 2/c'
_symmetry_Int_Tables_number      15
_space_group_name_Hall           '-C 2yn'
loop_
_symmetry_equiv_pos_site_id
_symmetry_equiv_pos_as_xyz
1 x,y,z
2 1/2+x,1/2+y,z
3 -x,y,1/2-z
4 1/2-x,1/2+y,1/2-z
5 -x,-y,-z
6 1/2-x,1/2-y,-z
7 x,-y,1/2+z
8 1/2+x,1/2-y,1/2+z
_cell_length_a                   28.123(8)
_cell_length_b                   5.2414(15)
_cell_length_c                   24.723(7)
_cell_angle_alpha                90
_cell_angle_beta                 122.958(4)
_cell_angle_gamma                90
_cell_volume                     3057.79
loop_
_atom_site_label
_atom_site_type_symbol
_atom_site_fract_x
_atom_site_fract_y
_atom_site_fract_z
Ag1 Ag 0.081781(13) 0.84411(5) 0.385664(14)
N1 N 0.12434(15) 0.5005(7) 0.43921(19)
N2 N 0.02818(13) 0.1847(6) 0.35907(14)
N3 N 0.28361(14) 1.7440(7) 0.38397(18)
N4 N 0.12896(16) 1.7633(7) 0.15645(17)
O1 O 0.14493(10) 1.0630(5) 0.35916(12)
O2 O 0.08256(10) 1.0242(5) 0.25388(12)
O3 O 0.30746(12) 1.6284(6) 0.43464(13)
O4 O 0.30026(12) 1.9445(6) 0.37432(14)
O5 O 0.14937(13) 1.9563(6) 0.15099(15)
O6 O 0.08596(14) 1.6615(6) 0.11278(14)
C1 C 0.09568(17) 0.3652(9) 0.46507(19)
C2 C 0.03395(15) 0.3224(7) 0.41474(17)
C3 C 0.0070(3) 0.1668(12) 0.4424(3)
C4 C 0.12490(15) 1.1216(7) 0.30151(18)
C5 C 0.15492(14) 1.3365(6) 0.29030(16)
C6 C 0.20521(16) 1.4341(7) 0.34008(19)
C7 C 0.23078(15) 1.6344(7) 0.32998(17)
C8 C 0.20683(17) 1.7470(7) 0.2701(2)
C9 C 0.15663(15) 1.6436(7) 0.22078(17)
C10 C 0.13055(16) 1.4418(7) 0.22951(18)
H1 H 0.1294(15) 0.389(7) 0.4125(18)
H2 H 0.1527(15) 0.547(7) 0.4651(17)
H3 H 0.0365(12) 0.290(5) 0.3364(12)
H4 H -0.0073(7) 0.134(7) 0.3305(13)
H5 H 0.1142(14) 0.198(7) 0.4850(15)
H6 H 0.0965(13) 0.462(6) 0.4969(15)
H7 H 0.0141(12) 0.497(6) 0.4007(13)
H8 H -0.036(2) 0.143(8) 0.410(2)
H9 H 0.028(2) 0.001(11) 0.454(2)
H10 H 0.0109(19) 0.242(8) 0.477(2)
H11 H 0.2215(13) 1.372(5) 0.3793(14)
H12 H 0.2243(12) 1.885(5) 0.2659(14)
H13 H 0.0983(12) 1.373(5) 0.1960(14)
N1_2 N 0.12434(15) 1.5005(7) 0.43921(19)
N2_2 N 0.02818(13) 1.1847(6) 0.35907(14)
C1_2 C 0.09568(17) 1.3652(9) 0.46507(19)
C2_2 C 0.03395(15) 1.3224(7) 0.41474(17)
C3_2 C 0.0070(3) 1.1668(12) 0.4424(3)
H1_2 H 0.1294(15) 1.389(7) 0.4125(18)
H2_2 H 0.1527(15) 1.547(7) 0.4651(17)
H3_2 H 0.0365(12) 1.290(5) 0.3364(12)
H4_2 H -0.0073(7) 1.134(7) 0.3305(13)
H5_2 H 0.1142(14) 1.198(7) 0.4850(15)
H6_2 H 0.0965(13) 1.462(6) 0.4969(15)
H7_2 H 0.0141(12) 1.497(6) 0.4007(13)
H8_2 H -0.036(2) 1.143(8) 0.410(2)
H9_2 H 0.028(2) 1.001(11) 0.454(2)
H10_2 H 0.0109(19) 1.242(8) 0.477(2)
Ag1_2 Ag 0.081781(13) 1.84411(5) 0.385664(14)
N3_2 N 0.28361(14) 2.7440(7) 0.38397(18)
N4_2 N 0.12896(16) 2.7633(7) 0.15645(17)
O1_2 O 0.14493(10) 2.0630(5) 0.35916(12)
O2_2 O 0.08256(10) 2.0242(5) 0.25388(12)
O3_2 O 0.30746(12) 2.6284(6) 0.43464(13)
O4_2 O 0.30026(12) 2.9445(6) 0.37432(14)
O5_2 O 0.14937(13) 2.9563(6) 0.15099(15)
O6_2 O 0.08596(14) 2.6615(6) 0.11278(14)
C4_2 C 0.12490(15) 2.1216(7) 0.30151(18)
C5_2 C 0.15492(14) 2.3365(6) 0.29030(16)
C6_2 C 0.20521(16) 2.4341(7) 0.34008(19)
C7_2 C 0.23078(15) 2.6344(7) 0.32998(17)
C8_2 C 0.20683(17) 2.7470(7) 0.2701(2)
C9_2 C 0.15663(15) 2.6436(7) 0.22078(17)
C10_2 C 0.13055(16) 2.4418(7) 0.22951(18)
H11_2 H 0.2215(13) 2.372(5) 0.3793(14)
H12_2 H 0.2243(12) 2.885(5) 0.2659(14)
H13_2 H 0.0983(12) 2.373(5) 0.1960(14)
Ag1_3 Ag 0.081781(13) -0.15589(5) 0.385664(14)
N2_3 N 0.02818(13) 2.1847(6) 0.35907(14)
H3_3 H 0.0365(12) 2.290(5) 0.3364(12)
H4_3 H -0.0073(7) 2.134(7) 0.3305(13)
O7 O 0.24399(13) 0.9967(7) 0.47478(14)
H14 H 0.257(2) 1.154(5) 0.482(2)
H15 H 0.2122(9) 0.994(7) 0.4359(9)
O8 O 0.0000 0.6643(11) 0.2500
H16 H 0.023(2) 0.723(10) 0.252(3)
H16B H -0.023(2) 0.723(10) 0.248(3)
loop_
_geom_bond_atom_site_label_1
_geom_bond_atom_site_label_2
_geom_bond_site_symmetry_1
_geom_bond_site_symmetry_2
Ag1 N1 1_555 1_555
N1 C1 1_555 1_555
N2 C2 1_555 1_555
N3 O3 1_555 1_555
N4 O5 1_555 1_555
O1 Ag1 1_555 1_555
O2 C4 1_555 1_555
O4 N3 1_555 1_555
O6 N4 1_555 1_555
C1 C2 1_555 1_555
C2 C3 1_555 1_555
C3 H8 1_555 1_555
C4 O1 1_555 1_555
C5 C4 1_555 1_555
C6 C5 1_555 1_555
C7 N3 1_555 1_555
C8 C7 1_555 1_555
C9 N4 1_555 1_555
C10 C5 1_555 1_555
H1 N1 1_555 1_555
H2 N1 1_555 1_555
H3 N2 1_555 1_555
H4 N2 1_555 1_555
H5 C1 1_555 1_555
H6 C1 1_555 1_555
H7 C2 1_555 1_555
H9 C3 1_555 1_555
H10 C3 1_555 1_555
H11 C6 1_555 1_555
H12 C8 1_555 1_555
H13 C10 1_555 1_555
O7 H14 1_555 1_555
H15 O7 1_555 1_555
O8 H16 1_555 1_555
N1_2 C1_2 1_555 1_555
N2_2 Ag1 1_555 1_555
C1_2 C2_2 1_555 1_555
C2_2 N2_2 1_555 1_555
C3_2 C2_2 1_555 1_555
H1_2 N1_2 1_555 1_555
H2_2 N1_2 1_555 1_555
H3_2 N2_2 1_555 1_555
H4_2 N2_2 1_555 1_555
H5_2 C1_2 1_555 1_555
H6_2 C1_2 1_555 1_555
H7_2 C2_2 1_555 1_555
H8_2 C3_2 1_555 1_555
H9_2 C3_2 1_555 1_555
H10_2 C3_2 1_555 1_555
Ag1_2 N1_2 1_555 1_555
N3_2 O3_2 1_555 1_555
N4_2 O5_2 1_555 1_555
O1_2 Ag1_2 1_555 1_555
O2_2 C4_2 1_555 1_555
O4_2 N3_2 1_555 1_555
O6_2 N4_2 1_555 1_555
C4_2 O1_2 1_555 1_555
C5_2 C4_2 1_555 1_555
C6_2 C5_2 1_555 1_555
C7_2 N3_2 1_555 1_555
C8_2 C7_2 1_555 1_555
C9_2 N4_2 1_555 1_555
C10_2 C5_2 1_555 1_555
H11_2 C6_2 1_555 1_555
H12_2 C8_2 1_555 1_555
H13_2 C10_2 1_555 1_555
Ag1_3 N2 1_555 1_555
N2_3 Ag1_2 1_555 1_555
H3_3 N2_3 1_555 1_555
H4_3 N2_3 1_555 1_555
H16B O8 1_555 1_555
C6 C7 1_555 1_555
C8 C9 1_555 1_555
C9 C10 1_555 1_555
C6_2 C7_2 1_555 1_555
C8_2 C9_2 1_555 1_555
C9_2 C10_2 1_555 1_555

#END
