
#######################################################################
#
#                 Cambridge Crystallographic Data Centre
#                                CCDC 
#
#######################################################################
#
# If this CIF has been generated from an entry in the Cambridge 
# Structural Database, then it will include bibliographic, chemical, 
# crystal, experimental, refinement or atomic coordinate data resulting 
# from the CCDC's data processing and validation procedures.
#
#######################################################################

data_EQOPEG
_symmetry_cell_setting           monoclinic
_symmetry_space_group_name_H-M   'P 21'
_symmetry_Int_Tables_number      4
_space_group_name_Hall           'P 2yb'
loop_
_symmetry_equiv_pos_site_id
_symmetry_equiv_pos_as_xyz
1 x,y,z
2 -x,1/2+y,-z
_cell_length_a                   10.9857(2)
_cell_length_b                   12.3660(2)
_cell_length_c                   14.5156(4)
_cell_angle_alpha                90
_cell_angle_beta                 96.398(2)
_cell_angle_gamma                90
_cell_volume                     1959.65
loop_
_atom_site_label
_atom_site_type_symbol
_atom_site_fract_x
_atom_site_fract_y
_atom_site_fract_z
Pt1 Pt 0.60305(3) -0.32500(2) 0.02112(3)
Pt2 Pt 0.77686(3) 0.04134(2) -0.09965(2)
Ag1 Ag 0.55501(6) 0.00787(5) -0.03566(5)
S1 S 0.5966(2) -0.3753(2) -0.13158(18)
S2 S 0.4873(2) -0.18625(19) -0.0629(2)
S3 S 0.7296(2) 0.22103(17) -0.11526(15)
S4 S 0.7835(2) 0.07826(17) -0.26121(17)
N1 N 0.6143(7) -0.2732(6) 0.1549(6)
N2 N 0.5308(7) -0.2066(6) -0.2426(6)
N3 N 0.8335(6) -0.1169(5) -0.0893(5)
N4 N 0.7618(7) 0.2938(6) -0.2860(5)
C1 C 0.7088(7) -0.4436(6) 0.0791(7)
C2 C 0.7651(8) -0.5286(6) 0.0388(7)
H1 H 0.7525 -0.5381 -0.0265
C3 C 0.8406(8) -0.6006(7) 0.0931(8)
H2 H 0.8747 -0.6606 0.0642
C4 C 0.8666(9) -0.5871(8) 0.1868(11)
H3 H 0.9207 -0.6358 0.2215
C5 C 0.8139(8) -0.5024(7) 0.2314(7)
C6 C 0.8348(9) -0.4799(8) 0.3302(7)
H4 H 0.8869 -0.5266 0.3687
C7 C 0.7831(10) -0.3955(9) 0.3690(8)
H5 H 0.7977 -0.3846 0.4340
C8 C 0.7030(8) -0.3188(9) 0.3110(7)
C9 C 0.6540(9) -0.2235(8) 0.3442(7)
H6 H 0.6661 -0.2065 0.4084
C10 C 0.5879(9) -0.1547(8) 0.2824(8)
H7 H 0.5555 -0.0894 0.3041
C11 C 0.5679(9) -0.1814(7) 0.1854(8)
H8 H 0.5219 -0.1342 0.1432
C12 C 0.6815(8) -0.3414(7) 0.2170(7)
C13 C 0.7346(8) -0.4336(6) 0.1768(8)
C14 C 0.5380(8) -0.2477(7) -0.1599(8)
C15 C 0.5728(10) -0.2661(9) -0.3212(7)
H9 H 0.5230 -0.3318 -0.3360
H10 H 0.6601 -0.2868 -0.3084
C16 C 0.5534(15) -0.1822(12) -0.3998(9)
H11 H 0.6303 -0.1422 -0.4054
H12 H 0.5272 -0.2182 -0.4596
C17 C 0.4559(15) -0.1069(13) -0.3744(9)
H13 H 0.3734 -0.1367 -0.3937
H14 H 0.4631 -0.0353 -0.4038
C18 C 0.4803(11) -0.0981(9) -0.2661(8)
H15 H 0.5402 -0.0404 -0.2467
H16 H 0.4037 -0.0849 -0.2379
C19 C 0.7863(7) 0.0272(8) 0.0399(6)
C20 C 0.7676(8) 0.1019(7) 0.1079(7)
H17 H 0.7322 0.1699 0.0902
C21 C 0.7993(9) 0.0801(8) 0.2025(7)
H18 H 0.7847 0.1329 0.2475
C22 C 0.8522(9) -0.0187(9) 0.2307(8)
H19 H 0.8735 -0.0324 0.2949
C23 C 0.8741(8) -0.0973(8) 0.1663(7)
C24 C 0.9271(8) -0.2016(9) 0.1874(8)
H20 H 0.9500 -0.2203 0.2504
C25 C 0.9454(8) -0.2738(8) 0.1216(8)
H21 H 0.9808 -0.3417 0.1395
C26 C 0.9139(7) -0.2520(6) 0.0263(7)
C27 C 0.9346(8) -0.3197(8) -0.0477(8)
H22 H 0.9705 -0.3888 -0.0356
C28 C 0.9036(8) -0.2870(8) -0.1368(7)
H23 H 0.9167 -0.3343 -0.1863
C29 C 0.8521(8) -0.1834(7) -0.1567(7)
H24 H 0.8310 -0.1620 -0.2193
C30 C 0.8598(7) -0.1500(7) 0.0022(6)
C31 C 0.8384(7) -0.0743(7) 0.0705(6)
C32 C 0.7563(8) 0.2106(7) -0.2300(6)
C33 C 0.7466(9) 0.4054(7) -0.2578(7)
H25 H 0.8193 0.4312 -0.2174
H26 H 0.6730 0.4139 -0.2249
C34 C 0.7322(11) 0.4657(9) -0.3499(9)
H27 H 0.7632 0.5406 -0.3420
H28 H 0.6452 0.4679 -0.3763
C35 C 0.8087(10) 0.4006(8) -0.4121(7)
H29 H 0.7797 0.4121 -0.4784
H30 H 0.8964 0.4203 -0.4008
C36 C 0.7879(10) 0.2852(7) -0.3836(6)
H31 H 0.7178 0.2528 -0.4227
H32 H 0.8618 0.2406 -0.3885
Pt1A Pt 0.39695(3) 0.17500(2) -0.02112(3)
Ag1A Ag 0.44499(6) -0.49213(5) 0.03566(5)
Cl1 Cl 0.9579(4) -0.2418(3) 0.5801(2)
O1 O 1.0928(11) -0.2377(8) 0.6073(7)
O2 O 0.9023(9) -0.1594(10) 0.6332(7)
O3 O 0.9224(15) -0.3437(13) 0.5985(10)
O4 O 0.9473(8) -0.2153(6) 0.4873(6)
N5 N 0.5970(16) 0.0517(11) 0.4510(9)
C37 C 0.7018(18) 0.0444(11) 0.4677(8)
C38 C 0.8284(17) 0.0302(12) 0.4887(8)
H33 H 0.8501 0.0356 0.5559
H34 H 0.8719 0.0863 0.4576
H35 H 0.8518 -0.0412 0.4673
loop_
_geom_bond_atom_site_label_1
_geom_bond_atom_site_label_2
_geom_bond_site_symmetry_1
_geom_bond_site_symmetry_2
Pt1 S1 1_555 1_555
Pt2 Ag1 1_555 1_555
Ag1 S2 1_555 1_555
S1 C14 1_555 1_555
S2 Pt1 1_555 1_555
S3 Pt2 1_555 1_555
S4 Pt2 1_555 1_555
N1 Pt1 1_555 1_555
N2 C14 1_555 1_555
N3 Pt2 1_555 1_555
N4 C32 1_555 1_555
C1 Pt1 1_555 1_555
C2 C1 1_555 1_555
H1 C2 1_555 1_555
C3 C2 1_555 1_555
H2 C3 1_555 1_555
C4 C3 1_555 1_555
H3 C4 1_555 1_555
C5 C4 1_555 1_555
C6 C5 1_555 1_555
H4 C6 1_555 1_555
C7 C6 1_555 1_555
H5 C7 1_555 1_555
C8 C7 1_555 1_555
C9 C8 1_555 1_555
H6 C9 1_555 1_555
C10 C9 1_555 1_555
H7 C10 1_555 1_555
C11 N1 1_555 1_555
H8 C11 1_555 1_555
C12 N1 1_555 1_555
C13 C1 1_555 1_555
C14 S2 1_555 1_555
C15 N2 1_555 1_555
H9 C15 1_555 1_555
H10 C15 1_555 1_555
C16 C15 1_555 1_555
H11 C16 1_555 1_555
H12 C16 1_555 1_555
C17 C16 1_555 1_555
H13 C17 1_555 1_555
H14 C17 1_555 1_555
C18 N2 1_555 1_555
H15 C18 1_555 1_555
H16 C18 1_555 1_555
C19 Pt2 1_555 1_555
C20 C19 1_555 1_555
H17 C20 1_555 1_555
C21 C20 1_555 1_555
H18 C21 1_555 1_555
C22 C21 1_555 1_555
H19 C22 1_555 1_555
C23 C22 1_555 1_555
C24 C23 1_555 1_555
H20 C24 1_555 1_555
C25 C24 1_555 1_555
H21 C25 1_555 1_555
C26 C25 1_555 1_555
C27 C26 1_555 1_555
H22 C27 1_555 1_555
C28 C27 1_555 1_555
H23 C28 1_555 1_555
C29 N3 1_555 1_555
H24 C29 1_555 1_555
C30 N3 1_555 1_555
C31 C19 1_555 1_555
C32 S3 1_555 1_555
C33 N4 1_555 1_555
H25 C33 1_555 1_555
H26 C33 1_555 1_555
C34 C33 1_555 1_555
H27 C34 1_555 1_555
H28 C34 1_555 1_555
C35 C34 1_555 1_555
H29 C35 1_555 1_555
H30 C35 1_555 1_555
C36 N4 1_555 1_555
H31 C36 1_555 1_555
H32 C36 1_555 1_555
Cl1 O1 1_555 1_555
O2 Cl1 1_555 1_555
O3 Cl1 1_555 1_555
O4 Cl1 1_555 1_555
N5 C37 1_555 1_555
C37 C38 1_555 1_555
C38 H33 1_555 1_555
H34 C38 1_555 1_555
H35 C38 1_555 1_555
Pt1A Ag1 1_555 1_555
Ag1A Pt1 1_555 1_555
S4 C32 1_555 1_555
C5 C13 1_555 1_555
C8 C12 1_555 1_555
C10 C11 1_555 1_555
C12 C13 1_555 1_555
C17 C18 1_555 1_555
C23 C31 1_555 1_555
C26 C30 1_555 1_555
C28 C29 1_555 1_555
C30 C31 1_555 1_555
C35 C36 1_555 1_555

#END
