
#######################################################################
#
#                 Cambridge Crystallographic Data Centre
#                                CCDC 
#
#######################################################################
#
# If this CIF has been generated from an entry in the Cambridge 
# Structural Database, then it will include bibliographic, chemical, 
# crystal, experimental, refinement or atomic coordinate data resulting 
# from the CCDC's data processing and validation procedures.
#
#######################################################################

data_EQOQEH
_symmetry_cell_setting           monoclinic
_symmetry_space_group_name_H-M   'P 21/c'
_symmetry_Int_Tables_number      14
_space_group_name_Hall           '-P 2ybc'
loop_
_symmetry_equiv_pos_site_id
_symmetry_equiv_pos_as_xyz
1 x,y,z
2 -x,1/2+y,1/2-z
3 -x,-y,-z
4 x,1/2-y,1/2+z
_cell_length_a                   4.78840(10)
_cell_length_b                   19.4618(5)
_cell_length_c                   5.3639(2)
_cell_angle_alpha                90
_cell_angle_beta                 96.628(2)
_cell_angle_gamma                90
_cell_volume                     496.526
loop_
_atom_site_label
_atom_site_type_symbol
_atom_site_fract_x
_atom_site_fract_y
_atom_site_fract_z
Li1 Li 0.6978(5) 0.22078(12) 0.4169(5)
O1 O 0.4549(2) 0.20429(4) 0.71160(19)
O2 O 0.9633(2) 0.21955(5) 0.14023(19)
H1 H 1.041(3) 0.1870(7) 0.075(3)
H2 H 1.096(3) 0.2461(8) 0.188(3)
O3 O 0.2717(2) 0.12175(5) 0.9320(2)
O4 O 0.7325(2) 0.12034(5) 0.4634(2)
H3 H 0.877(3) 0.0995(8) 0.438(3)
O5 O 0.20237(18) 0.05244(5) 0.36485(19)
H4 H 0.274(4) 0.0694(9) 0.244(3)
C1 C 0.4283(3) 0.14246(6) 0.7779(2)
C2 C 0.6018(3) 0.08822(6) 0.6573(3)
H5 H 0.7475 0.0704 0.7843
C3 C 0.4149(3) 0.02872(6) 0.5530(2)
H6 H 0.3221 0.0095 0.6910
Li1B Li 0.3022(5) -0.22078(12) 0.5831(5)
Li1A Li 0.3022(5) -0.27922(12) 0.0831(5)
Li1A_2 Li 0.3022(5) -0.27922(12) 1.0831(5)
Li1C Li 0.6978(5) 0.27922(12) -0.0831(5)
Li1C_2 Li 0.6978(5) 0.27922(12) 0.9169(5)
O1B O 0.5451(2) -0.20429(4) 0.28840(19)
O1A O 0.5451(2) -0.29571(4) 0.78840(19)
O1C O 0.4549(2) 0.29571(4) 0.21160(19)
O2B O 0.0367(2) -0.21955(5) 0.85977(19)
O2A O 0.0367(2) -0.28045(5) 0.35977(19)
O2C O 0.9633(2) 0.28045(5) 0.64023(19)
H1B H -0.041(3) -0.1870(7) 0.925(3)
H2B H -0.096(3) -0.2461(8) 0.812(3)
O3B O 0.7283(2) -0.12175(5) 0.0680(2)
O4B O 0.2675(2) -0.12034(5) 0.5366(2)
H3B H 0.123(3) -0.0995(8) 0.562(3)
O5B O 0.79763(18) -0.05244(5) 0.63515(19)
H4B H 0.726(4) -0.0694(9) 0.756(3)
C1B C 0.5717(3) -0.14246(6) 0.2221(2)
C2B C 0.3982(3) -0.08822(6) 0.3427(3)
H5B H 0.2525 -0.0704 0.2157
C3B C 0.5851(3) -0.02872(6) 0.4470(2)
H6B H 0.6779 -0.0095 0.3090
loop_
_geom_bond_atom_site_label_1
_geom_bond_atom_site_label_2
_geom_bond_site_symmetry_1
_geom_bond_site_symmetry_2
Li1 O1 1_555 1_555
O1 C1 1_555 1_555
O2 Li1 1_555 1_555
H1 O2 1_555 1_555
H2 O2 1_555 1_555
O3 C1 1_555 1_555
O4 Li1 1_555 1_555
H3 O4 1_555 1_555
O5 H4 1_555 1_555
C1 C2 1_555 1_555
C2 O4 1_555 1_555
H5 C2 1_555 1_555
C3 O5 1_555 1_555
H6 C3 1_555 1_555
Li1B O1B 1_555 1_555
Li1A O1B 1_555 1_555
Li1A_2 O1A 1_555 1_555
Li1C O2 1_555 1_555
Li1C_2 O1 1_555 1_555
O1B C1B 1_555 1_555
O1A Li1B 1_555 1_555
O1C Li1 1_555 1_555
O2B Li1B 1_555 1_555
O2A Li1B 1_555 1_555
O2C Li1 1_555 1_555
H1B O2B 1_555 1_555
H2B O2B 1_555 1_555
O3B C1B 1_555 1_555
O4B Li1B 1_555 1_555
H3B O4B 1_555 1_555
O5B H4B 1_555 1_555
C1B C2B 1_555 1_555
C2B O4B 1_555 1_555
H5B C2B 1_555 1_555
C3B C3 1_555 1_555
H6B C3B 1_555 1_555
C2 C3 1_555 1_555
Li1A O2A 1_555 1_555
Li1A_2 O2B 1_555 1_555
Li1C O1C 1_555 1_555
Li1C_2 O2C 1_555 1_555
O5B C3B 1_555 1_555
C2B C3B 1_555 1_555

#END
