
#######################################################################
#
#                 Cambridge Crystallographic Data Centre
#                                CCDC 
#
#######################################################################
#
# If this CIF has been generated from an entry in the Cambridge 
# Structural Database, then it will include bibliographic, chemical, 
# crystal, experimental, refinement or atomic coordinate data resulting 
# from the CCDC's data processing and validation procedures.
#
#######################################################################

data_EQOXUD
_symmetry_cell_setting           monoclinic
_symmetry_space_group_name_H-M   'P 21/n'
_symmetry_Int_Tables_number      14
_space_group_name_Hall           '-P 2yn'
loop_
_symmetry_equiv_pos_site_id
_symmetry_equiv_pos_as_xyz
1 x,y,z
2 1/2+x,1/2-y,1/2+z
3 -x,-y,-z
4 1/2-x,1/2+y,1/2-z
_cell_length_a                   11.3643(7)
_cell_length_b                   20.6764(7)
_cell_length_c                   14.2671(10)
_cell_angle_alpha                90
_cell_angle_beta                 90.962(3)
_cell_angle_gamma                90
_cell_volume                     3351.91
loop_
_atom_site_label
_atom_site_type_symbol
_atom_site_fract_x
_atom_site_fract_y
_atom_site_fract_z
Mn1 Mn 0.12371(8) 0.22020(4) 0.17084(7)
N1 N 0.2705(5) 0.1724(2) 0.2496(4)
N2 N 1.2447(5) -0.2205(2) 0.4041(4)
O1 O -0.0062(4) 0.1452(2) 0.2119(3)
O2 O 0.1120(5) 0.1646(2) 0.0437(3)
O3 O 0.1145(4) 0.2864(2) 0.2898(4)
O4 O -0.0395(4) 0.2734(2) 0.1355(4)
C1 C 0.2910(7) 0.1816(4) 0.3417(5)
H1 H 0.2398 0.2087 0.3735
C2 C 0.3800(6) 0.1547(3) 0.3916(5)
H2 H 0.3881 0.1633 0.4554
C3 C 0.4601(5) 0.1139(3) 0.3479(5)
C4 C 0.4428(6) 0.1052(4) 0.2529(5)
H3 H 0.4943 0.0793 0.2195
C5 C 0.3485(7) 0.1351(4) 0.2066(6)
H4 H 0.3395 0.1287 0.1423
C6 C 0.5543(5) 0.0805(3) 0.4000(5)
H5 H 0.6067 0.0563 0.3650
C7 C 0.5717(5) 0.0814(3) 0.4906(5)
H6 H 0.5203 0.1072 0.5241
C8 C 0.6608(5) 0.0474(3) 0.5464(4)
C9 C 0.6614(6) 0.0535(3) 0.6425(5)
H7 H 0.6058 0.0796 0.6712
C10 C 0.7447(6) 0.0208(3) 0.6968(5)
H8 H 0.7445 0.0252 0.7617
C11 C 0.8276(6) -0.0179(3) 0.6558(5)
H9 H 0.8832 -0.0395 0.6928
C12 C 0.8280(5) -0.0248(3) 0.5593(5)
C13 C 0.7466(5) 0.0080(3) 0.5058(5)
H10 H 0.7482 0.0041 0.4409
C14 C 0.9156(5) -0.0661(3) 0.5084(5)
H11 H 0.9206 -0.0600 0.4440
C15 C 0.9841(6) -0.1090(3) 0.5450(5)
H12 H 0.9784 -0.1157 0.6092
C16 C 1.0713(6) -0.1489(3) 0.4949(5)
C17 C 1.0789(6) -0.1501(3) 0.3974(5)
H13 H 1.0254 -0.1269 0.3605
C18 C 1.1663(6) -0.1858(3) 0.3562(5)
H14 H 1.1706 -0.1855 0.2912
C19 C 1.1525(7) -0.1845(3) 0.5450(5)
H15 H 1.1508 -0.1851 0.6102
C20 C 1.2359(7) -0.2190(3) 0.4986(5)
H16 H 1.2900 -0.2428 0.5340
C21 C 0.0282(8) 0.1311(4) 0.0134(5)
C22 C -0.0640(8) 0.1054(4) 0.0632(6)
H17 H -0.1218 0.0817 0.0317
C23 C -0.0721(7) 0.1144(4) 0.1586(5)
C24 C 0.028(2) 0.1161(10) -0.0910(9)
C25 C -0.1762(11) 0.0806(7) 0.2050(8)
C26 C 0.0292(8) 0.3164(3) 0.3216(5)
C27 C -0.0809(7) 0.3226(4) 0.2815(5)
H18 H -0.1395 0.3433 0.3149
C28 C -0.1077(7) 0.2988(4) 0.1920(6)
C29 C 0.0529(11) 0.3487(6) 0.4143(8)
C30 C -0.2320(11) 0.3050(8) 0.1542(9)
F1 F -0.2557(5) 0.2869(5) 0.0762(5)
F2 F -0.3076(7) 0.2849(7) 0.2122(7)
F3 F -0.2604(12) 0.3684(5) 0.1566(12)
F4 F -0.2488(6) 0.0520(4) 0.1506(5)
F5 F -0.1464(7) 0.0453(5) 0.2730(6)
F6 F -0.2428(7) 0.1269(5) 0.2444(7)
F7 F 0.0966(11) 0.3105(6) 0.4754(6)
F8 F -0.0374(8) 0.3665(6) 0.4578(6)
F9 F 0.1211(13) 0.3938(6) 0.4082(7)
F10 F 0.1346(10) 0.1024(7) -0.1192(7)
F11 F 0.0219(16) 0.1709(6) -0.1372(6)
F12 F -0.0403(11) 0.0756(6) -0.1221(6)
N2C N 0.2553(5) 0.2795(2) 0.0959(4)
Mn1C Mn 1.37629(8) -0.27980(4) 0.32916(7)
loop_
_geom_bond_atom_site_label_1
_geom_bond_atom_site_label_2
_geom_bond_site_symmetry_1
_geom_bond_site_symmetry_2
Mn1 N1 1_555 1_555
N1 C1 1_555 1_555
N2 C18 1_555 1_555
O1 Mn1 1_555 1_555
O2 Mn1 1_555 1_555
O3 Mn1 1_555 1_555
O4 Mn1 1_555 1_555
C1 H1 1_555 1_555
C2 C1 1_555 1_555
H2 C2 1_555 1_555
C3 C2 1_555 1_555
C4 C3 1_555 1_555
H3 C4 1_555 1_555
C5 N1 1_555 1_555
H4 C5 1_555 1_555
C6 C3 1_555 1_555
H5 C6 1_555 1_555
C7 C6 1_555 1_555
H6 C7 1_555 1_555
C8 C7 1_555 1_555
C9 C8 1_555 1_555
H7 C9 1_555 1_555
C10 C9 1_555 1_555
H8 C10 1_555 1_555
C11 C10 1_555 1_555
H9 C11 1_555 1_555
C12 C11 1_555 1_555
C13 C8 1_555 1_555
H10 C13 1_555 1_555
C14 C12 1_555 1_555
H11 C14 1_555 1_555
C15 C14 1_555 1_555
H12 C15 1_555 1_555
C16 C15 1_555 1_555
C17 C16 1_555 1_555
H13 C17 1_555 1_555
C18 C17 1_555 1_555
H14 C18 1_555 1_555
C19 C16 1_555 1_555
H15 C19 1_555 1_555
C20 N2 1_555 1_555
H16 C20 1_555 1_555
C21 O2 1_555 1_555
C22 C21 1_555 1_555
H17 C22 1_555 1_555
C23 O1 1_555 1_555
C24 C21 1_555 1_555
C25 C23 1_555 1_555
C26 O3 1_555 1_555
C27 C26 1_555 1_555
H18 C27 1_555 1_555
C28 O4 1_555 1_555
C29 C26 1_555 1_555
C30 C28 1_555 1_555
F1 C30 1_555 1_555
F2 C30 1_555 1_555
F3 C30 1_555 1_555
F4 C25 1_555 1_555
F5 C25 1_555 1_555
F6 C25 1_555 1_555
F7 C29 1_555 1_555
F8 C29 1_555 1_555
F9 C29 1_555 1_555
F10 C24 1_555 1_555
F11 C24 1_555 1_555
F12 C24 1_555 1_555
N2C Mn1 1_555 1_555
Mn1C N2 1_555 1_555
C4 C5 1_555 1_555
C12 C13 1_555 1_555
C19 C20 1_555 1_555
C22 C23 1_555 1_555
C27 C28 1_555 1_555

#END
