
#######################################################################
#
#                 Cambridge Crystallographic Data Centre
#                                CCDC 
#
#######################################################################
#
# If this CIF has been generated from an entry in the Cambridge 
# Structural Database, then it will include bibliographic, chemical, 
# crystal, experimental, refinement or atomic coordinate data resulting 
# from the CCDC's data processing and validation procedures.
#
#######################################################################

data_EQOYAL
_symmetry_cell_setting           orthorhombic
_symmetry_space_group_name_H-M   'P m n a'
_symmetry_Int_Tables_number      53
_space_group_name_Hall           '-P 2ac 2'
loop_
_symmetry_equiv_pos_site_id
_symmetry_equiv_pos_as_xyz
1 x,y,z
2 1/2-x,-y,1/2+z
3 1/2-x,y,1/2-z
4 x,-y,-z
5 -x,-y,-z
6 1/2+x,y,1/2-z
7 1/2+x,-y,1/2+z
8 -x,y,z
_cell_length_a                   6.69166(12)
_cell_length_b                   5.10538(8)
_cell_length_c                   11.60022(18)
_cell_angle_alpha                90
_cell_angle_beta                 90
_cell_angle_gamma                90
_cell_volume                     396.304
loop_
_atom_site_label
_atom_site_type_symbol
_atom_site_fract_x
_atom_site_fract_y
_atom_site_fract_z
Cu1 Cu 0.00000 0.00000 0.00000
O1 O 0.00000 -0.32693 0.29713
O2 O 0.00000 -0.40963 0.11102
N1 N 0.00000 -0.25943 0.19615
O3 O 0.00000 -0.01058 0.17277
C1 C 0.39437 -0.17274 -0.06492
H1 H 0.31154 -0.30899 -0.11652
N2 N 0.29468 0.00000 0.00000
Cu1_2 Cu 1.00000 0.00000 0.00000
O1D O 0.00000 0.32693 -0.29713
O2D O 0.00000 0.40963 -0.11102
N1D N 0.00000 0.25943 -0.19615
O3D O 0.00000 0.01058 -0.17277
C1G C 0.60563 -0.17274 -0.06492
C1D C 0.60563 0.17274 0.06492
C1C C 0.39437 0.17274 0.06492
H1G H 0.68846 -0.30899 -0.11652
H1C H 0.31154 0.30899 0.11652
H1D H 0.68846 0.30899 0.11652
N2G N 0.70532 0.00000 0.00000
N2G_2 N -0.29468 0.00000 0.00000
loop_
_geom_bond_atom_site_label_1
_geom_bond_atom_site_label_2
_geom_bond_site_symmetry_1
_geom_bond_site_symmetry_2
Cu1 O3 1_555 1_555
O1 N1 1_555 1_555
O2 N1 1_555 1_555
N1 O3 1_555 1_555
C1 H1 1_555 1_555
N2 Cu1 1_555 1_555
Cu1_2 N2G 1_555 1_555
O1D N1D 1_555 1_555
O2D N1D 1_555 1_555
N1D O3D 1_555 1_555
O3D Cu1 1_555 1_555
C1G C1 1_555 1_555
C1D C1C 1_555 1_555
C1C N2 1_555 1_555
H1G C1G 1_555 1_555
H1C C1C 1_555 1_555
H1D C1D 1_555 1_555
N2G C1G 1_555 1_555
N2G_2 Cu1 1_555 1_555
C1 N2 1_555 1_555
C1D N2G 1_555 1_555

#END
