
#######################################################################
#
#                 Cambridge Crystallographic Data Centre
#                                CCDC 
#
#######################################################################
#
# If this CIF has been generated from an entry in the Cambridge 
# Structural Database, then it will include bibliographic, chemical, 
# crystal, experimental, refinement or atomic coordinate data resulting 
# from the CCDC's data processing and validation procedures.
#
#######################################################################

data_EQOYIS
_symmetry_cell_setting           monoclinic
_symmetry_space_group_name_H-M   'P 21/c'
_symmetry_Int_Tables_number      14
_space_group_name_Hall           '-P 2ybc'
loop_
_symmetry_equiv_pos_site_id
_symmetry_equiv_pos_as_xyz
1 x,y,z
2 x,1/2-y,1/2+z
3 -x,-y,-z
4 -x,1/2+y,1/2-z
_cell_length_a                   15.404(2)
_cell_length_b                   19.967(3)
_cell_length_c                   14.279(2)
_cell_angle_alpha                90
_cell_angle_beta                 104.141(3)
_cell_angle_gamma                90
_cell_volume                     4258.73
loop_
_atom_site_label
_atom_site_type_symbol
_atom_site_fract_x
_atom_site_fract_y
_atom_site_fract_z
Ag1 Ag 0.09703(4) -0.25813(3) 0.43174(5)
N1 N 0.0895(4) -0.2474(3) 0.5819(5)
N2 N 0.0933(4) -0.2417(3) 0.7761(5)
C1 C 0.0317(5) -0.2802(4) 0.7162(6)
C2 C -0.0313(6) -0.3186(4) 0.7603(6)
C3 C 0.0033(6) -0.3649(4) 0.8331(6)
H1 H 0.0658 -0.3737 0.8515
C4 C -0.0546(7) -0.3977(5) 0.8780(7)
H2 H -0.0319 -0.4301 0.9265
C5 C -0.1447(7) -0.3837(5) 0.8527(7)
H3 H -0.1838 -0.4058 0.8848
C6 C -0.1788(7) -0.3376(5) 0.7806(7)
H4 H -0.2411 -0.3281 0.7634
C7 C -0.1224(6) -0.3054(4) 0.7337(6)
H5 H -0.1458 -0.2743 0.6835
C8 C 0.0304(5) -0.2826(4) 0.6178(6)
C9 C -0.0312(6) -0.3242(4) 0.5441(6)
C10 C -0.0363(6) -0.3938(4) 0.5587(7)
H6 H -0.0048 -0.4135 0.6177
C11 C -0.0881(6) -0.4333(5) 0.4854(7)
H7 H -0.0908 -0.4804 0.4941
C12 C -0.1356(6) -0.4044(5) 0.3999(7)
H8 H -0.1705 -0.4315 0.3500
C13 C -0.1319(6) -0.3347(5) 0.3875(6)
H9 H -0.1652 -0.3145 0.3297
C14 C -0.0799(6) -0.2960(4) 0.4592(6)
H10 H -0.0775 -0.2489 0.4501
C15 C 0.1493(6) -0.2085(4) 0.6447(6)
H11 H 0.1907 -0.1820 0.6213
C16 C 0.1511(5) -0.2066(4) 0.7425(6)
H12 H 0.1943 -0.1799 0.7852
N2A N 0.0933(4) -0.2583(3) 0.2761(5)
Ag1A Ag 0.09703(4) -0.24187(3) 0.93174(5)
Ag2 Ag 0.43135(4) -0.25452(3) 0.02305(4)
N3 N 0.4285(5) -0.2480(3) -0.1328(5)
N4 N 0.4321(4) -0.2485(3) -0.3234(5)
C17 C 0.4970(5) -0.2140(4) -0.2578(6)
C18 C 0.5677(6) -0.1798(4) -0.2939(6)
C19 C 0.6167(6) -0.2159(4) -0.3470(6)
H13 H 0.6052 -0.2622 -0.3588
C20 C 0.6824(6) -0.1840(5) -0.3827(6)
H14 H 0.7153 -0.2083 -0.4198
C21 C 0.6994(6) -0.1164(5) -0.3636(6)
H15 H 0.7449 -0.0948 -0.3870
C22 C 0.6511(6) -0.0800(5) -0.3111(7)
H16 H 0.6631 -0.0338 -0.2988
C23 C 0.5848(6) -0.1118(4) -0.2765(6)
H17 H 0.5511 -0.0870 -0.2409
C24 C 0.4936(5) -0.2137(4) -0.1592(6)
C25 C 0.5572(6) -0.1752(4) -0.0832(6)
C26 C 0.6490(6) -0.1857(4) -0.0609(6)
H18 H 0.6740 -0.2164 -0.0979
C27 C 0.7045(6) -0.1514(4) 0.0155(6)
H19 H 0.7672 -0.1592 0.0315
C28 C 0.6675(6) -0.1054(4) 0.0685(6)
H20 H 0.7053 -0.0817 0.1204
C29 C 0.5768(7) -0.0944(4) 0.0461(6)
H21 H 0.5522 -0.0629 0.0824
C30 C 0.5211(6) -0.1288(4) -0.0292(6)
H22 H 0.4584 -0.1211 -0.0443
C31 C 0.3693(6) -0.2813(4) -0.1968(6)
H23 H 0.3246 -0.3064 -0.1768
C32 C 0.3704(6) -0.2807(4) -0.2925(6)
H24 H 0.3253 -0.3044 -0.3376
N4A N 0.4321(4) -0.2515(3) 0.1766(5)
Ag2A Ag 0.43135(4) -0.24548(3) -0.47695(4)
B1 B 0.2094(7) -0.4161(5) 0.7228(8)
F1 F 0.1982(4) -0.3646(3) 0.7864(4)
F2 F 0.2996(4) -0.4279(3) 0.7343(4)
F3 F 0.1676(4) -0.4728(3) 0.7479(5)
F4 F 0.1709(5) -0.3960(5) 0.6299(5)
B2 B 0.3161(7) -0.4303(5) 0.2457(7)
F5 F 0.2263(4) -0.4406(3) 0.2023(4)
F6 F 0.3235(4) -0.3824(3) 0.3197(4)
F7 F 0.3606(4) -0.4058(3) 0.1803(4)
F8 F 0.3564(5) -0.4890(3) 0.2855(5)
N5 N 0.2319(5) -0.3860(4) 0.4717(5)
O1 O 0.2626(4) -0.3299(3) 0.4897(5)
O2 O 0.1563(5) -0.3971(4) 0.4232(5)
C33 C 0.2904(7) -0.4443(5) 0.5065(8)
H25 H 0.3276 -0.4535 0.4613
H26 H 0.2535 -0.4835 0.5109
H27 H 0.3290 -0.4342 0.5704
N6 N 0.3049(6) -0.3855(4) -0.0128(5)
O3 O 0.2709(4) -0.3313(3) -0.0053(5)
O4 O 0.3816(5) -0.3918(4) -0.0227(5)
C34 C 0.2505(7) -0.4479(5) -0.0147(7)
H28 H 0.2110 -0.4427 0.0291
H29 H 0.2905 -0.4861 0.0059
H30 H 0.2144 -0.4557 -0.0805
N7 N 0.0516(6) -0.5829(4) 0.8502(6)
O5 O 0.0665(6) -0.6436(4) 0.8566(7)
O6 O 0.0883(5) -0.5437(4) 0.9150(5)
C35 C -0.0110(7) -0.5567(6) 0.7640(8)
H31 H -0.0199 -0.5901 0.7122
H32 H 0.0135 -0.5156 0.7430
H33 H -0.0684 -0.5468 0.7790
N8 N 0.4119(6) -0.6020(4) 0.1555(7)
O7 O 0.3407(6) -0.5985(6) 0.0956(7)
O8 O 0.4301(7) -0.6433(5) 0.2191(8)
C36 C 0.4786(8) -0.5518(6) 0.1470(11)
H34 H 0.5292 -0.5539 0.2039
H35 H 0.4516 -0.5071 0.1424
H36 H 0.4998 -0.5606 0.0888
loop_
_geom_bond_atom_site_label_1
_geom_bond_atom_site_label_2
_geom_bond_site_symmetry_1
_geom_bond_site_symmetry_2
Ag1 N1 1_555 1_555
N1 C8 1_555 1_555
N2 C1 1_555 1_555
C1 C2 1_555 1_555
C2 C3 1_555 1_555
C3 H1 1_555 1_555
C4 C3 1_555 1_555
H2 C4 1_555 1_555
C5 C4 1_555 1_555
H3 C5 1_555 1_555
C6 C5 1_555 1_555
H4 C6 1_555 1_555
C7 C2 1_555 1_555
H5 C7 1_555 1_555
C8 C1 1_555 1_555
C9 C8 1_555 1_555
C10 C9 1_555 1_555
H6 C10 1_555 1_555
C11 C10 1_555 1_555
H7 C11 1_555 1_555
C12 C11 1_555 1_555
H8 C12 1_555 1_555
C13 C12 1_555 1_555
H9 C13 1_555 1_555
C14 C9 1_555 1_555
H10 C14 1_555 1_555
C15 N1 1_555 1_555
H11 C15 1_555 1_555
C16 N2 1_555 1_555
H12 C16 1_555 1_555
Ag2 N3 1_555 1_555
N3 C24 1_555 1_555
N4 C17 1_555 1_555
C17 C18 1_555 1_555
C18 C19 1_555 1_555
C19 H13 1_555 1_555
C20 C19 1_555 1_555
H14 C20 1_555 1_555
C21 C20 1_555 1_555
H15 C21 1_555 1_555
C22 C21 1_555 1_555
H16 C22 1_555 1_555
C23 C18 1_555 1_555
H17 C23 1_555 1_555
C24 C17 1_555 1_555
C25 C24 1_555 1_555
C26 C25 1_555 1_555
H18 C26 1_555 1_555
C27 C26 1_555 1_555
H19 C27 1_555 1_555
C28 C27 1_555 1_555
H20 C28 1_555 1_555
C29 C28 1_555 1_555
H21 C29 1_555 1_555
C30 C25 1_555 1_555
H22 C30 1_555 1_555
C31 N3 1_555 1_555
H23 C31 1_555 1_555
C32 N4 1_555 1_555
H24 C32 1_555 1_555
B1 F1 1_555 1_555
F2 B1 1_555 1_555
F3 B1 1_555 1_555
F4 B1 1_555 1_555
B2 F5 1_555 1_555
F6 B2 1_555 1_555
F7 B2 1_555 1_555
F8 B2 1_555 1_555
N5 O1 1_555 1_555
O2 N5 1_555 1_555
C33 N5 1_555 1_555
H25 C33 1_555 1_555
H26 C33 1_555 1_555
H27 C33 1_555 1_555
N6 O3 1_555 1_555
O4 N6 1_555 1_555
C34 N6 1_555 1_555
H28 C34 1_555 1_555
H29 C34 1_555 1_555
H30 C34 1_555 1_555
N7 O5 1_555 1_555
O6 N7 1_555 1_555
C35 N7 1_555 1_555
H31 C35 1_555 1_555
H32 C35 1_555 1_555
H33 C35 1_555 1_555
N8 O7 1_555 1_555
O8 N8 1_555 1_555
C36 N8 1_555 1_555
H34 C36 1_555 1_555
H35 C36 1_555 1_555
H36 C36 1_555 1_555
N2A Ag1 1_555 1_555
Ag1A N2 1_555 1_555
N4A Ag2 1_555 1_555
Ag2A N4 1_555 1_555
C6 C7 1_555 1_555
C13 C14 1_555 1_555
C15 C16 1_555 1_555
C22 C23 1_555 1_555
C29 C30 1_555 1_555
C31 C32 1_555 1_555

#END
