
#######################################################################
#
#                 Cambridge Crystallographic Data Centre
#                                CCDC 
#
#######################################################################
#
# If this CIF has been generated from an entry in the Cambridge 
# Structural Database, then it will include bibliographic, chemical, 
# crystal, experimental, refinement or atomic coordinate data resulting 
# from the CCDC's data processing and validation procedures.
#
#######################################################################

data_EQOYUE
_symmetry_cell_setting           monoclinic
_symmetry_space_group_name_H-M   'P 21'
_symmetry_Int_Tables_number      4
_space_group_name_Hall           'P 2yb'
loop_
_symmetry_equiv_pos_site_id
_symmetry_equiv_pos_as_xyz
1 x,y,z
2 -x,1/2+y,-z
_cell_length_a                   11.2008(6)
_cell_length_b                   19.9816(11)
_cell_length_c                   15.4750(9)
_cell_angle_alpha                90
_cell_angle_beta                 105.083(2)
_cell_angle_gamma                90
_cell_volume                     3344.14
loop_
_atom_site_label
_atom_site_type_symbol
_atom_site_fract_x
_atom_site_fract_y
_atom_site_fract_z
Ag1 Ag 0.55888(3) 0.239451(14) 0.28783(2)
Ag2 Ag 0.12400(2) 0.127120(14) -0.46424(2)
Ag3 Ag 0.54055(3) -0.015780(15) -0.06215(2)
N1 N 0.5709(3) 0.17715(18) 0.1594(2)
N2 N 0.5572(3) 0.06880(18) 0.0474(2)
C1 C 0.4599(4) 0.1558(2) 0.1089(3)
C2 C 0.4522(4) 0.1023(2) 0.0487(3)
C3 C 0.6645(4) 0.0897(2) 0.0984(3)
H1 H 0.7378 0.0660 0.0977
C4 C 0.6723(4) 0.1455(2) 0.1530(3)
H2 H 0.7510 0.1611 0.1860
C5 C 0.3503(4) 0.1915(2) 0.1248(3)
C6 C 0.3531(5) 0.2616(2) 0.1310(3)
H3 H 0.4215 0.2857 0.1210
C7 C 0.2556(6) 0.2962(3) 0.1518(3)
C8 C 0.1595(5) 0.2589(3) 0.1681(3)
H4 H 0.0933 0.2818 0.1829
C9 C 0.1556(4) 0.1898(3) 0.1636(3)
C10 C 0.2525(4) 0.1554(3) 0.1410(3)
H5 H 0.2511 0.1080 0.1367
C11 C 0.2577(7) 0.3711(3) 0.1585(4)
H6 H 0.2253 0.3849 0.2088
H7 H 0.2064 0.3902 0.1029
H8 H 0.3429 0.3871 0.1683
C12 C 0.0527(5) 0.1506(4) 0.1859(4)
H9 H 0.0492 0.1612 0.2470
H10 H 0.0679 0.1026 0.1812
H11 H -0.0261 0.1626 0.1438
C13 C 0.3372(4) 0.0802(2) -0.0149(3)
C14 C 0.2691(4) 0.1244(2) -0.0763(3)
H12 H 0.2934 0.1701 -0.0746
C15 C 0.1655(4) 0.1033(2) -0.1403(3)
C16 C 0.1315(4) 0.0357(2) -0.1415(3)
H13 H 0.0624 0.0203 -0.1867
C17 C 0.1958(5) -0.0089(3) -0.0786(3)
C18 C 0.3016(4) 0.0136(2) -0.0153(3)
H14 H 0.3490 -0.0166 0.0274
C19 C 0.0886(5) 0.1513(3) -0.2091(3)
H15 H 0.1223 0.1966 -0.1975
H16 H 0.0028 0.1509 -0.2047
H17 H 0.0910 0.1373 -0.2693
C20 C 0.1538(6) -0.0805(3) -0.0756(5)
H18 H 0.0690 -0.0851 -0.1130
H19 H 0.1565 -0.0926 -0.0137
H20 H 0.2086 -0.1102 -0.0980
N3 N 0.2362(3) 0.15953(16) -0.5649(2)
N4 N 0.4229(3) 0.20397(15) -0.6381(2)
C21 C 0.3197(3) 0.11628(17) -0.5814(2)
C22 C 0.4132(3) 0.13807(17) -0.6205(2)
C23 C 0.3401(4) 0.24618(19) -0.6203(3)
H21 H 0.3464 0.2926 -0.6318
C24 C 0.2451(4) 0.22394(19) -0.5857(3)
H22 H 0.1852 0.2549 -0.5765
C25 C 0.3071(3) 0.04618(17) -0.5525(3)
C26 C 0.1912(4) 0.0158(2) -0.5809(3)
H23 H 0.1247 0.0391 -0.6200
C27 C 0.1727(4) -0.04835(19) -0.5521(3)
C28 C 0.2721(4) -0.08024(18) -0.4929(3)
H24 H 0.2596 -0.1235 -0.4713
C29 C 0.3880(4) -0.05132(19) -0.4645(3)
C30 C 0.4049(3) 0.01278(18) -0.4965(3)
H25 H 0.4841 0.0333 -0.4794
C31 C 0.0465(5) -0.0815(2) -0.5830(4)
H26 H 0.0064 -0.0674 -0.6444
H27 H -0.0048 -0.0682 -0.5434
H28 H 0.0565 -0.1302 -0.5813
C32 C 0.4908(4) -0.0868(2) -0.4002(3)
H29 H 0.4626 -0.1313 -0.3875
H30 H 0.5161 -0.0611 -0.3446
H31 H 0.5611 -0.0915 -0.4264
C33 C 0.5013(3) 0.09198(18) -0.6476(2)
C34 C 0.4550(4) 0.03620(19) -0.7002(3)
H32 H 0.3692 0.0262 -0.7143
C35 C 0.5357(4) -0.00516(19) -0.7322(3)
C36 C 0.6602(4) 0.0110(2) -0.7112(3)
H33 H 0.7147 -0.0163 -0.7337
C37 C 0.7078(4) 0.0657(2) -0.6586(3)
C38 C 0.6273(4) 0.1065(2) -0.6265(3)
H34 H 0.6586 0.1442 -0.5902
C39 C 0.4871(5) -0.0657(2) -0.7883(3)
H35 H 0.5266 -0.0690 -0.8377
H36 H 0.3974 -0.0616 -0.8125
H37 H 0.5055 -0.1061 -0.7512
C40 C 0.8439(4) 0.0819(3) -0.6373(3)
H38 H 0.8738 0.0751 -0.6909
H39 H 0.8895 0.0526 -0.5893
H40 H 0.8569 0.1287 -0.6181
N5 N 0.4406(3) 0.01881(16) -0.2008(2)
N6 N 0.2747(3) 0.08207(17) -0.3418(2)
C41 C 0.4621(3) 0.08211(18) -0.2250(3)
C42 C 0.3814(3) 0.11251(17) -0.2987(3)
C43 C 0.2537(4) 0.02016(19) -0.3165(3)
H41 H 0.1791 -0.0020 -0.3457
C44 C 0.3388(4) -0.0120(2) -0.2485(3)
H42 H 0.3247 -0.0573 -0.2353
C45 C 0.5704(4) 0.1165(2) -0.1662(3)
C46 C 0.6831(4) 0.0830(2) -0.1383(3)
H43 H 0.6918 0.0394 -0.1602
C47 C 0.7830(4) 0.1134(3) -0.0784(3)
C48 C 0.7670(5) 0.1773(3) -0.0473(3)
H44 H 0.8350 0.1984 -0.0069
C49 C 0.6559(5) 0.2111(2) -0.0730(3)
C50 C 0.5566(4) 0.1803(2) -0.1331(3)
H45 H 0.4794 0.2028 -0.1515
C51 C 0.9023(5) 0.0759(4) -0.0460(4)
H46 H 0.9712 0.1078 -0.0306
H47 H 0.9137 0.0459 -0.0933
H48 H 0.9001 0.0496 0.0070
C52 C 0.6410(7) 0.2805(3) -0.0370(5)
H49 H 0.6805 0.2817 0.0275
H50 H 0.5529 0.2909 -0.0476
H51 H 0.6801 0.3136 -0.0675
C53 C 0.4058(4) 0.17846(19) -0.3357(3)
C54 C 0.5163(4) 0.18876(19) -0.3580(3)
H52 H 0.5760 0.1540 -0.3493
C55 C 0.5403(4) 0.25042(18) -0.3936(3)
C56 C 0.4514(4) 0.3008(2) -0.4026(3)
H53 H 0.4679 0.3434 -0.4243
C57 C 0.3406(4) 0.29107(19) -0.3811(3)
C58 C 0.3185(3) 0.22924(19) -0.3472(3)
H54 H 0.2429 0.2217 -0.3317
C59 C 0.6581(5) 0.2615(3) -0.4216(5)
H55 H 0.6989 0.3023 -0.3931
H56 H 0.6386 0.2664 -0.4868
H57 H 0.7133 0.2232 -0.4031
C60 C 0.2442(4) 0.3449(2) -0.3940(3)
H58 H 0.2606 0.3789 -0.4351
H59 H 0.2467 0.3657 -0.3361
H60 H 0.1623 0.3253 -0.4191
F1 F 0.9009(3) 0.39688(16) 0.2962(3)
F2 F 0.9960(4) 0.3381(3) 0.4073(3)
F3 F 0.9728(5) 0.3025(2) 0.2806(5)
O1 O 0.6987(3) 0.32127(15) 0.2747(2)
O2 O 0.8013(4) 0.25625(19) 0.3847(3)
C61 C 0.7933(4) 0.30079(19) 0.3290(3)
C62 C 0.9144(4) 0.3360(2) 0.3264(4)
F4 F -0.2321(5) -0.0261(2) -0.4461(3)
F5 F -0.1320(3) -0.0214(2) -0.3112(4)
F6 F -0.2916(3) 0.03610(17) -0.3560(3)
O3 O -0.0167(3) 0.05129(15) -0.4211(2)
O4 O -0.1536(3) 0.12853(17) -0.4002(3)
C63 C -0.1126(4) 0.0715(2) -0.4028(3)
C64 C -0.1923(4) 0.0147(2) -0.3789(3)
F7 F 0.6946(4) -0.2017(2) 0.1397(3)
F8 F 0.8394(4) -0.1962(2) 0.0739(3)
F9 F 0.8495(5) -0.1391(2) 0.1916(3)
O5 O 0.6019(4) -0.11307(19) 0.0130(3)
O6 O 0.7690(4) -0.0509(2) 0.0574(3)
C65 C 0.7080(5) -0.1015(3) 0.0576(3)
C66 C 0.7732(6) -0.1600(3) 0.1163(4)
O7 O -0.0127(3) 0.22009(15) -0.4598(3)
H61 H -0.0589 0.1899 -0.4399
H62 H -0.0717 0.2316 -0.5091
N4_2 N 0.4229(3) 0.20397(15) 0.3619(2)
Ag1_2 Ag 0.55888(3) 0.239451(14) -0.71217(2)
O8 O 0.9669(16) 0.0030(8) 1.1879(12)
H63 H 0.9029 -0.0140 1.1457
H64 H 1.0275 -0.0274 1.1925
O9 O 1.1658(16) -0.0949(9) 1.2043(12)
O10? O 1.1558(17) -0.1576(10) 1.2132(13)
loop_
_geom_bond_atom_site_label_1
_geom_bond_atom_site_label_2
_geom_bond_site_symmetry_1
_geom_bond_site_symmetry_2
Ag1 N1 1_555 1_555
Ag2 N3 1_555 1_555
Ag3 N2 1_555 1_555
N1 C1 1_555 1_555
N2 C2 1_555 1_555
C1 C2 1_555 1_555
C2 C13 1_555 1_555
C3 N2 1_555 1_555
H1 C3 1_555 1_555
C4 N1 1_555 1_555
H2 C4 1_555 1_555
C5 C1 1_555 1_555
C6 C5 1_555 1_555
H3 C6 1_555 1_555
C7 C6 1_555 1_555
C8 C7 1_555 1_555
H4 C8 1_555 1_555
C9 C8 1_555 1_555
C10 C5 1_555 1_555
H5 C10 1_555 1_555
C11 C7 1_555 1_555
H6 C11 1_555 1_555
H7 C11 1_555 1_555
H8 C11 1_555 1_555
C12 C9 1_555 1_555
H9 C12 1_555 1_555
H10 C12 1_555 1_555
H11 C12 1_555 1_555
C13 C14 1_555 1_555
C14 H12 1_555 1_555
C15 C14 1_555 1_555
C16 C15 1_555 1_555
H13 C16 1_555 1_555
C17 C16 1_555 1_555
C18 C13 1_555 1_555
H14 C18 1_555 1_555
C19 C15 1_555 1_555
H15 C19 1_555 1_555
H16 C19 1_555 1_555
H17 C19 1_555 1_555
C20 C17 1_555 1_555
H18 C20 1_555 1_555
H19 C20 1_555 1_555
H20 C20 1_555 1_555
N3 C21 1_555 1_555
N4 C22 1_555 1_555
C21 C22 1_555 1_555
C22 C33 1_555 1_555
C23 N4 1_555 1_555
H21 C23 1_555 1_555
C24 N3 1_555 1_555
H22 C24 1_555 1_555
C25 C21 1_555 1_555
C26 C25 1_555 1_555
H23 C26 1_555 1_555
C27 C26 1_555 1_555
C28 C27 1_555 1_555
H24 C28 1_555 1_555
C29 C28 1_555 1_555
C30 C25 1_555 1_555
H25 C30 1_555 1_555
C31 C27 1_555 1_555
H26 C31 1_555 1_555
H27 C31 1_555 1_555
H28 C31 1_555 1_555
C32 C29 1_555 1_555
H29 C32 1_555 1_555
H30 C32 1_555 1_555
H31 C32 1_555 1_555
C33 C34 1_555 1_555
C34 H32 1_555 1_555
C35 C34 1_555 1_555
C36 C35 1_555 1_555
H33 C36 1_555 1_555
C37 C36 1_555 1_555
C38 C33 1_555 1_555
H34 C38 1_555 1_555
C39 C35 1_555 1_555
H35 C39 1_555 1_555
H36 C39 1_555 1_555
H37 C39 1_555 1_555
C40 C37 1_555 1_555
H38 C40 1_555 1_555
H39 C40 1_555 1_555
H40 C40 1_555 1_555
N5 Ag3 1_555 1_555
N6 Ag2 1_555 1_555
C41 N5 1_555 1_555
C42 N6 1_555 1_555
C43 N6 1_555 1_555
H41 C43 1_555 1_555
C44 N5 1_555 1_555
H42 C44 1_555 1_555
C45 C41 1_555 1_555
C46 C45 1_555 1_555
H43 C46 1_555 1_555
C47 C46 1_555 1_555
C48 C47 1_555 1_555
H44 C48 1_555 1_555
C49 C48 1_555 1_555
C50 C45 1_555 1_555
H45 C50 1_555 1_555
C51 C47 1_555 1_555
H46 C51 1_555 1_555
H47 C51 1_555 1_555
H48 C51 1_555 1_555
C52 C49 1_555 1_555
H49 C52 1_555 1_555
H50 C52 1_555 1_555
H51 C52 1_555 1_555
C53 C42 1_555 1_555
C54 C53 1_555 1_555
H52 C54 1_555 1_555
C55 C54 1_555 1_555
C56 C55 1_555 1_555
H53 C56 1_555 1_555
C57 C56 1_555 1_555
C58 C53 1_555 1_555
H54 C58 1_555 1_555
C59 C55 1_555 1_555
H55 C59 1_555 1_555
H56 C59 1_555 1_555
H57 C59 1_555 1_555
C60 C57 1_555 1_555
H58 C60 1_555 1_555
H59 C60 1_555 1_555
H60 C60 1_555 1_555
F1 C62 1_555 1_555
F2 C62 1_555 1_555
F3 C62 1_555 1_555
O1 Ag1 1_555 1_555
O2 C61 1_555 1_555
C61 O1 1_555 1_555
C62 C61 1_555 1_555
F4 C64 1_555 1_555
F5 C64 1_555 1_555
F6 C64 1_555 1_555
O3 Ag2 1_555 1_555
O4 C63 1_555 1_555
C63 O3 1_555 1_555
C64 C63 1_555 1_555
F7 C66 1_555 1_555
F8 C66 1_555 1_555
F9 C66 1_555 1_555
O5 Ag3 1_555 1_555
O6 C65 1_555 1_555
C65 O5 1_555 1_555
C66 C65 1_555 1_555
O7 Ag2 1_555 1_555
H61 O7 1_555 1_555
H62 O7 1_555 1_555
O8 H63 1_555 1_555
H64 O8 1_555 1_555
N4_2 Ag1 1_555 1_555
Ag1_2 N4 1_555 1_555
C3 C4 1_555 1_555
C9 C10 1_555 1_555
C17 C18 1_555 1_555
C23 C24 1_555 1_555
C29 C30 1_555 1_555
C37 C38 1_555 1_555
C41 C42 1_555 1_555
C43 C44 1_555 1_555
C49 C50 1_555 1_555
C57 C58 1_555 1_555

#END
