
#######################################################################
#
#                 Cambridge Crystallographic Data Centre
#                                CCDC 
#
#######################################################################
#
# If this CIF has been generated from an entry in the Cambridge 
# Structural Database, then it will include bibliographic, chemical, 
# crystal, experimental, refinement or atomic coordinate data resulting 
# from the CCDC's data processing and validation procedures.
#
#######################################################################

data_EQUBEY
_symmetry_cell_setting           monoclinic
_symmetry_space_group_name_H-M   'P 21/c'
_symmetry_Int_Tables_number      14
_space_group_name_Hall           '-P 2ybc'
loop_
_symmetry_equiv_pos_site_id
_symmetry_equiv_pos_as_xyz
1 x,y,z
2 -x,1/2+y,1/2-z
3 -x,-y,-z
4 x,1/2-y,1/2+z
_cell_length_a                   12.9029(7)
_cell_length_b                   16.9341(10)
_cell_length_c                   28.3232(17)
_cell_angle_alpha                90
_cell_angle_beta                 90.288(3)
_cell_angle_gamma                90
_cell_volume                     6188.51
loop_
_atom_site_label
_atom_site_type_symbol
_atom_site_fract_x
_atom_site_fract_y
_atom_site_fract_z
Dy1 Dy 0.24859(8) 0.53142(5) 0.21092(4)
Ni1 Ni 0.33534(19) 0.98085(13) 0.16239(9)
Ni2 Ni 0.23902(19) 0.78932(13) 0.37333(9)
N1 N 0.2639(13) 0.9509(9) 0.0958(6)
C1 C 0.2261(15) 0.9986(11) 0.0648(6)
H1 H 0.2416 1.0533 0.0669
C2 C 0.1595(17) 0.9697(16) 0.0264(8)
H2 H 0.1332 1.0048 0.0030
C3 C 0.135(2) 0.8858(14) 0.0251(9)
H3 H 0.0892 0.8647 0.0020
C4 C 0.1796(18) 0.8387(13) 0.0585(8)
H4 H 0.1705 0.7830 0.0574
C5 C 0.240(2) 0.8740(16) 0.0947(7)
C6 C 0.2907(14) 0.8239(12) 0.1296(8)
N2 N 0.3477(15) 0.8484(11) 0.1744(11)
O1 O 0.2753(11) 0.7444(7) 0.1287(5)
C7 C 0.426(6) 0.7991(15) 0.2074(9)
C8 C 0.500(3) 0.802(3) 0.2154(17)
H5 H 0.5474 0.8330 0.1978
C9 C 0.5308(18) 0.7596(14) 0.2517(8)
H6 H 0.6018 0.7476 0.2571
C10 C 0.4548(17) 0.7339(10) 0.2812(8)
H7 H 0.4776 0.7050 0.3081
C11 C 0.350(2) 0.7444(10) 0.2772(7)
C12 C 0.3123(15) 0.7783(11) 0.2387(7)
H8 H 0.2423 0.7886 0.2303
N3 N 0.2759(13) 0.7204(10) 0.3122(5)
C13 C 0.2214(15) 0.6534(13) 0.3080(7)
O2 O 0.2246(9) 0.6067(6) 0.2736(5)
C14 C 0.1376(14) 0.6363(13) 0.3434(7)
C15 C 0.080(2) 0.5692(12) 0.3502(12)
H9 H 0.0921 0.5283 0.3280
C16 C 0.009(2) 0.5518(17) 0.3833(10)
H10 H -0.0266 0.5028 0.3857
C17 C -0.0063(17) 0.6188(12) 0.4149(8)
H11 H -0.0608 0.6147 0.4372
C18 C 0.0517(14) 0.6881(13) 0.4155(8)
H12 H 0.0399 0.7285 0.4381
N4 N 0.1303(13) 0.6954(9) 0.3801(6)
N5 N 0.4875(14) 0.9819(8) 0.1322(7)
C19 C 0.5019(18) 0.9647(11) 0.0857(9)
H13 H 0.4448 0.9587 0.0647
C20 C 0.609(2) 0.9558(13) 0.0693(8)
H14 H 0.6195 0.9481 0.0364
C21 C 0.707(3) 0.9580(16) 0.1014(9)
H15 H 0.7772 0.9506 0.0918
C22 C 0.6732(17) 0.9726(12) 0.1464(12)
H16 H 0.7247 0.9737 0.1704
C23 C 0.570(3) 0.9862(13) 0.1610(7)
C24 C 0.5358(17) 0.9977(10) 0.2101(9)
N6 N 0.4333(13) 0.9993(9) 0.2218(6)
C25 C 0.3968(17) 1.0142(15) 0.2707(7)
C26 C 0.3677(16) 1.0835(11) 0.2866(9)
H17 H 0.3697 1.1301 0.2679
C27 C 0.3347(17) 1.0829(11) 0.3318(9)
H18 H 0.3120 1.1318 0.3445
C28 C 0.3306(15) 1.0126(11) 0.3636(8)
H19 H 0.3064 1.0153 0.3952
C29 C 0.3670(15) 0.9391(10) 0.3420(8)
C30 C 0.4061(15) 0.9353(14) 0.2965(6)
H20 H 0.4352 0.8891 0.2829
N7 N 0.3587(13) 0.8670(7) 0.3717(6)
C31 C 0.459(2) 0.8617(14) 0.3995(8)
O3 O 0.5247(12) 0.9008(9) 0.4115(7)
C32 C 0.4332(16) 0.7817(11) 0.4353(8)
C33 C 0.500(2) 0.7725(15) 0.4679(9)
H21 H 0.5570 0.8074 0.4730
C34 C 0.483(2) 0.7066(14) 0.4950(13)
H22 H 0.5195 0.7032 0.5240
C35 C 0.421(4) 0.649(3) 0.4851(14)
H23 H 0.4288 0.6001 0.5007
C36 C 0.352(3) 0.6587(13) 0.4548(16)
H24 H 0.2966 0.6215 0.4532
N8 N 0.3518(13) 0.7307(12) 0.4189(6)
N9 N 0.3007(13) 1.1038(7) 0.1548(5)
C37 C 0.3602(15) 1.1567(11) 0.1286(7)
H25 H 0.4177 1.1397 0.1105
C38 C 0.330(2) 1.2381(10) 0.1306(8)
H26 H 0.3629 1.2738 0.1095
C39 C 0.261(2) 1.2662(19) 0.1591(12)
H27 H 0.2550 1.3214 0.1645
C40 C 0.1949(19) 1.2109(11) 0.1822(9)
H28 H 0.1330 1.2257 0.1979
C41 C 0.2294(13) 1.1337(11) 0.1794(6)
C42 C 0.1587(17) 1.0719(11) 0.2060(8)
N10 N 0.1890(10) 0.9977(9) 0.1963(5)
O4 O 0.0781(13) 1.0885(8) 0.2299(5)
C43 C 0.1364(14) 0.9357(13) 0.2224(9)
C44 C 0.0798(14) 0.8775(12) 0.1973(8)
H29 H 0.0723 0.8783 0.1639
C45 C 0.0346(15) 0.8172(9) 0.2262(9)
H30 H -0.0068 0.7775 0.2118
C46 C 0.0495(14) 0.8157(11) 0.2724(6)
H31 H 0.0166 0.7758 0.2906
C47 C 0.1106(16) 0.8697(10) 0.2947(9)
C48 C 0.1473(14) 0.9309(9) 0.2697(8)
H32 H 0.1822 0.9723 0.2860
N11 N 0.1288(12) 0.8657(9) 0.3460(5)
C49 C 0.0939(16) 0.9228(13) 0.3737(9)
O5 O 0.0310(10) 0.9830(7) 0.3592(5)
C50 C 0.1228(14) 0.9165(12) 0.4239(8)
C51 C 0.089(3) 0.9789(18) 0.4499(9)
H33 H 0.0446 1.0195 0.4389
C52 C 0.130(2) 0.9741(15) 0.4934(15)
H34 H 0.1231 1.0184 0.5138
C53 C 0.1844(18) 0.9031(18) 0.5115(10)
H35 H 0.2056 0.9006 0.5436
C54 C 0.205(2) 0.8398(17) 0.4811(8)
H36 H 0.2321 0.7911 0.4921
N12 N 0.1826(12) 0.8522(9) 0.4357(7)
O6 O 0.1552(10) 0.6406(7) 0.1746(5)
O7 O 0.3716(11) 0.6202(7) 0.1744(6)
O8 O 0.1721(10) 0.4733(8) 0.1404(4)
O9 O 0.3710(10) 0.4432(8) 0.1715(5)
O10 O 0.6049(10) 1.0054(7) 0.2451(4)
O11 O 0.2013(10) 0.4082(7) 0.2525(5)
O12 O 0.0626(9) 0.5162(7) 0.2237(5)
Dy1A Dy 0.75141(8) 1.03142(5) 0.28908(4)
O10A O 0.3951(10) 0.5054(7) 0.2549(4)
loop_
_geom_bond_atom_site_label_1
_geom_bond_atom_site_label_2
_geom_bond_site_symmetry_1
_geom_bond_site_symmetry_2
Dy1 O2 1_555 1_555
Ni1 N1 1_555 1_555
Ni2 N3 1_555 1_555
N1 C1 1_555 1_555
C1 H1 1_555 1_555
C2 C1 1_555 1_555
H2 C2 1_555 1_555
C3 C2 1_555 1_555
H3 C3 1_555 1_555
C4 C3 1_555 1_555
H4 C4 1_555 1_555
C5 N1 1_555 1_555
C6 C5 1_555 1_555
N2 Ni1 1_555 1_555
O1 C6 1_555 1_555
C7 N2 1_555 1_555
C8 C7 1_555 1_555
H5 C8 1_555 1_555
C9 C8 1_555 1_555
H6 C9 1_555 1_555
C10 C9 1_555 1_555
H7 C10 1_555 1_555
C11 C10 1_555 1_555
C12 C7 1_555 1_555
H8 C12 1_555 1_555
N3 C11 1_555 1_555
C13 N3 1_555 1_555
O2 C13 1_555 1_555
C14 C13 1_555 1_555
C15 C14 1_555 1_555
H9 C15 1_555 1_555
C16 C15 1_555 1_555
H10 C16 1_555 1_555
C17 C16 1_555 1_555
H11 C17 1_555 1_555
C18 C17 1_555 1_555
H12 C18 1_555 1_555
N4 Ni2 1_555 1_555
N5 Ni1 1_555 1_555
C19 N5 1_555 1_555
H13 C19 1_555 1_555
C20 C19 1_555 1_555
H14 C20 1_555 1_555
C21 C20 1_555 1_555
H15 C21 1_555 1_555
C22 C21 1_555 1_555
H16 C22 1_555 1_555
C23 N5 1_555 1_555
C24 C23 1_555 1_555
N6 Ni1 1_555 1_555
C25 N6 1_555 1_555
C26 C25 1_555 1_555
H17 C26 1_555 1_555
C27 C26 1_555 1_555
H18 C27 1_555 1_555
C28 C27 1_555 1_555
H19 C28 1_555 1_555
C29 C28 1_555 1_555
C30 C25 1_555 1_555
H20 C30 1_555 1_555
N7 Ni2 1_555 1_555
C31 N7 1_555 1_555
O3 C31 1_555 1_555
C32 C31 1_555 1_555
C33 C32 1_555 1_555
H21 C33 1_555 1_555
C34 C33 1_555 1_555
H22 C34 1_555 1_555
C35 C34 1_555 1_555
H23 C35 1_555 1_555
C36 C35 1_555 1_555
H24 C36 1_555 1_555
N8 Ni2 1_555 1_555
N9 Ni1 1_555 1_555
C37 N9 1_555 1_555
H25 C37 1_555 1_555
C38 C37 1_555 1_555
H26 C38 1_555 1_555
C39 C38 1_555 1_555
H27 C39 1_555 1_555
C40 C39 1_555 1_555
H28 C40 1_555 1_555
C41 N9 1_555 1_555
C42 C41 1_555 1_555
N10 Ni1 1_555 1_555
O4 C42 1_555 1_555
C43 N10 1_555 1_555
C44 C43 1_555 1_555
H29 C44 1_555 1_555
C45 C44 1_555 1_555
H30 C45 1_555 1_555
C46 C45 1_555 1_555
H31 C46 1_555 1_555
C47 C46 1_555 1_555
C48 C43 1_555 1_555
H32 C48 1_555 1_555
N11 Ni2 1_555 1_555
C49 N11 1_555 1_555
O5 C49 1_555 1_555
C50 C49 1_555 1_555
C51 C50 1_555 1_555
H33 C51 1_555 1_555
C52 C51 1_555 1_555
H34 C52 1_555 1_555
C53 C52 1_555 1_555
H35 C53 1_555 1_555
C54 C53 1_555 1_555
H36 C54 1_555 1_555
N12 Ni2 1_555 1_555
O6 Dy1 1_555 1_555
O7 Dy1 1_555 1_555
O8 Dy1 1_555 1_555
O9 Dy1 1_555 1_555
O10 C24 1_555 1_555
O11 Dy1 1_555 1_555
O12 Dy1 1_555 1_555
Dy1A O10 1_555 1_555
O10A Dy1 1_555 1_555
C4 C5 1_555 1_555
C6 N2 1_555 1_555
C11 C12 1_555 1_555
C14 N4 1_555 1_555
C18 N4 1_555 1_555
C22 C23 1_555 1_555
C24 N6 1_555 1_555
C29 C30 1_555 1_555
C29 N7 1_555 1_555
C32 N8 1_555 1_555
C36 N8 1_555 1_555
C40 C41 1_555 1_555
C42 N10 1_555 1_555
C47 C48 1_555 1_555
C47 N11 1_555 1_555
C50 N12 1_555 1_555
C54 N12 1_555 1_555

#END
