
#######################################################################
#
#                 Cambridge Crystallographic Data Centre
#                                CCDC 
#
#######################################################################
#
# If this CIF has been generated from an entry in the Cambridge 
# Structural Database, then it will include bibliographic, chemical, 
# crystal, experimental, refinement or atomic coordinate data resulting 
# from the CCDC's data processing and validation procedures.
#
#######################################################################

data_EQUBAU
_symmetry_cell_setting           monoclinic
_symmetry_space_group_name_H-M   'P 21/c'
_symmetry_Int_Tables_number      14
_space_group_name_Hall           '-P 2ybc'
loop_
_symmetry_equiv_pos_site_id
_symmetry_equiv_pos_as_xyz
1 x,y,z
2 -x,1/2+y,1/2-z
3 -x,-y,-z
4 x,1/2-y,1/2+z
_cell_length_a                   12.8938(7)
_cell_length_b                   16.8784(10)
_cell_length_c                   28.5936(17)
_cell_angle_alpha                90
_cell_angle_beta                 90.860(3)
_cell_angle_gamma                90
_cell_volume                     6222.03
loop_
_atom_site_label
_atom_site_type_symbol
_atom_site_fract_x
_atom_site_fract_y
_atom_site_fract_z
Tb1 Tb 0.24544(2) 0.523477(15) 0.211641(10)
Ni1 Ni 0.33505(6) 0.97480(4) 0.16282(3)
Ni2 Ni 0.24029(6) 0.78397(4) 0.37315(3)
N1 N 0.2608(3) 0.9413(2) 0.09913(13)
C1 C 0.2207(4) 0.9884(3) 0.06554(18)
H1 H 0.2354 1.0435 0.0667
C2 C 0.1587(4) 0.9596(3) 0.02924(19)
H2 H 0.1318 0.9941 0.0058
C3 C 0.1373(4) 0.8796(3) 0.0281(2)
H3 H 0.0925 0.8587 0.0045
C4 C 0.1808(4) 0.8302(3) 0.06114(18)
H4 H 0.1689 0.7747 0.0598
C5 C 0.2428(3) 0.8627(3) 0.09660(16)
C6 C 0.2903(3) 0.8121(3) 0.13455(16)
N2 N 0.3391(3) 0.8505(2) 0.16750(13)
O1 O 0.2789(3) 0.73646(19) 0.13042(12)
C7 C 0.3779(4) 0.8046(3) 0.20600(16)
C8 C 0.4849(3) 0.7949(3) 0.21294(17)
H5 H 0.5324 0.8151 0.1908
C9 C 0.5209(4) 0.7553(3) 0.25277(17)
H6 H 0.5933 0.7476 0.2575
C10 C 0.4517(3) 0.7268(3) 0.28579(17)
H7 H 0.4769 0.7010 0.3132
C11 C 0.3453(3) 0.7363(2) 0.27835(16)
C12 C 0.3088(3) 0.7737(3) 0.23805(16)
H8 H 0.2362 0.7782 0.2324
N3 N 0.2736(3) 0.7145(2) 0.31412(13)
C13 C 0.2187(3) 0.6503(3) 0.30813(16)
O2 O 0.2234(3) 0.60040(19) 0.27480(11)
C14 C 0.1414(3) 0.6341(3) 0.34564(16)
C15 C 0.0830(4) 0.5653(3) 0.34650(18)
H9 H 0.0927 0.5250 0.3238
C16 C 0.0096(4) 0.5565(3) 0.38138(18)
H10 H -0.0301 0.5092 0.3834
C17 C -0.0047(4) 0.6170(3) 0.41280(18)
H11 H -0.0561 0.6128 0.4361
C18 C 0.0567(4) 0.6838(3) 0.41013(17)
H12 H 0.0461 0.7256 0.4318
N4 N 0.1307(3) 0.6920(2) 0.37801(13)
N5 N 0.4835(3) 0.9769(2) 0.13217(14)
C19 C 0.5069(4) 0.9644(3) 0.08739(18)
H13 H 0.4519 0.9620 0.0650
C20 C 0.6082(4) 0.9547(3) 0.07201(19)
H14 H 0.6217 0.9458 0.0399
C21 C 0.6889(4) 0.9584(3) 0.10452(19)
H15 H 0.7587 0.9517 0.0952
C22 C 0.6657(4) 0.9721(3) 0.15077(19)
H16 H 0.7197 0.9753 0.1736
C23 C 0.5627(4) 0.9813(3) 0.16378(18)
C24 C 0.5323(4) 0.9924(3) 0.21398(17)
N6 N 0.4319(3) 0.9950(2) 0.22126(13)
C25 C 0.4018(3) 1.0002(3) 0.26914(17)
C26 C 0.3680(4) 1.0721(3) 0.28806(17)
H17 H 0.3659 1.1185 0.2693
C27 C 0.3377(4) 1.0753(3) 0.33427(17)
H18 H 0.3166 1.1245 0.3472
C28 C 0.3377(4) 1.0076(3) 0.36223(18)
H19 H 0.3160 1.0105 0.3938
C29 C 0.3697(3) 0.9357(3) 0.34348(16)
C30 C 0.4018(3) 0.9324(3) 0.29707(16)
H20 H 0.4238 0.8833 0.2844
N7 N 0.3655(3) 0.8641(2) 0.37035(13)
C31 C 0.4424(4) 0.8512(3) 0.39959(16)
O3 O 0.5250(2) 0.89215(19) 0.40585(12)
C32 C 0.4312(4) 0.7768(3) 0.42851(16)
C33 C 0.4959(4) 0.7608(3) 0.46588(18)
H21 H 0.5512 0.7958 0.4737
C34 C 0.4796(4) 0.6924(3) 0.49234(19)
H22 H 0.5221 0.6807 0.5189
C35 C 0.3998(4) 0.6420(3) 0.4788(2)
H23 H 0.3877 0.5944 0.4955
C36 C 0.3389(4) 0.6616(3) 0.44124(18)
H24 H 0.2848 0.6264 0.4321
N8 N 0.3517(3) 0.7288(2) 0.41633(14)
N9 N 0.3046(3) 1.0975(2) 0.15362(14)
C37 C 0.3573(4) 1.1506(3) 0.12920(17)
H25 H 0.4135 1.1329 0.1109
C38 C 0.3338(4) 1.2306(3) 0.1293(2)
H26 H 0.3720 1.2666 0.1107
C39 C 0.2542(4) 1.2572(3) 0.1568(2)
H27 H 0.2375 1.3119 0.1580
C40 C 0.1992(4) 1.2028(3) 0.18262(19)
H28 H 0.1446 1.2196 0.2022
C41 C 0.2248(3) 1.1236(3) 0.17951(17)
C42 C 0.1638(3) 1.0615(3) 0.20495(17)
N10 N 0.1926(3) 0.9888(2) 0.19617(14)
O4 O 0.0897(2) 1.0852(2) 0.23066(12)
C43 C 0.1404(3) 0.9283(3) 0.22173(17)
C44 C 0.0779(3) 0.8719(3) 0.19900(17)
H29 H 0.0662 0.8747 0.1662
C45 C 0.0330(3) 0.8115(3) 0.22529(17)
H30 H -0.0094 0.7731 0.2100
C46 C 0.0492(3) 0.8067(3) 0.27307(17)
H31 H 0.0195 0.7646 0.2904
C47 C 0.1098(3) 0.8644(3) 0.29585(17)
C48 C 0.1542(3) 0.9252(3) 0.26973(17)
H32 H 0.1944 0.9648 0.2851
N11 N 0.1319(3) 0.8601(2) 0.34455(14)
C49 C 0.0977(3) 0.9172(3) 0.37121(17)
O5 O 0.0395(3) 0.97590(19) 0.35896(13)
C50 C 0.1305(4) 0.9122(3) 0.42138(18)
C51 C 0.1050(4) 0.9707(3) 0.4533(2)
H33 H 0.0643 1.0149 0.4437
C52 C 0.1390(5) 0.9642(4) 0.4988(2)
H34 H 0.1234 1.0044 0.5209
C53 C 0.1965(4) 0.8983(4) 0.5124(2)
H35 H 0.2198 0.8919 0.5438
C54 C 0.2187(4) 0.8423(3) 0.47875(18)
H36 H 0.2577 0.7970 0.4880
N12 N 0.1885(3) 0.8484(2) 0.43393(14)
O6 O 0.1536(3) 0.6340(2) 0.17524(13)
O7 O 0.3679(3) 0.6103(2) 0.17717(13)
O8 O 0.1705(3) 0.4685(2) 0.14135(13)
O9 O 0.3654(3) 0.4335(2) 0.17235(12)
O10 O 0.6050(2) 0.9962(2) 0.24443(12)
O11 O 0.2007(3) 0.4006(2) 0.25141(13)
O12 O 0.0612(2) 0.50752(19) 0.22332(12)
Tb1A Tb 0.75456(2) 1.023477(15) 0.288359(10)
O10A O 0.3950(2) 0.4962(2) 0.25557(12)
C55 C 0.8877(6) 0.7307(4) 0.0581(3)
F1 F 0.9847(4) 0.7160(4) 0.0467(3)
F2 F 0.8412(5) 0.6626(3) 0.0671(2)
F3 F 0.8877(4) 0.7739(3) 0.09684(17)
S1 S 0.81985(12) 0.78353(10) 0.01055(6)
O13 O 0.7152(3) 0.7827(4) 0.02517(18)
O14 O 0.8404(4) 0.7362(4) -0.03047(19)
O15 O 0.8688(5) 0.8596(3) 0.01132(18)
O16 O 0.5347(6) 0.0317(3) 0.4561(2)
O17 O 0.0786(3) 0.1444(2) 0.31937(14)
O18 O 0.2464(3) 0.2727(2) 0.30590(15)
O19 O 0.2623(3) 0.3987(2) 0.06646(14)
O20 O 0.4535(4) 0.6859(3) 0.07824(18)
O21 O 0.6252(3) 0.7661(2) 0.11503(15)
loop_
_geom_bond_atom_site_label_1
_geom_bond_atom_site_label_2
_geom_bond_site_symmetry_1
_geom_bond_site_symmetry_2
Tb1 O2 1_555 1_555
Ni1 N1 1_555 1_555
Ni2 N3 1_555 1_555
N1 C1 1_555 1_555
C1 H1 1_555 1_555
C2 C1 1_555 1_555
H2 C2 1_555 1_555
C3 C2 1_555 1_555
H3 C3 1_555 1_555
C4 C3 1_555 1_555
H4 C4 1_555 1_555
C5 N1 1_555 1_555
C6 C5 1_555 1_555
N2 Ni1 1_555 1_555
O1 C6 1_555 1_555
C7 N2 1_555 1_555
C8 C7 1_555 1_555
H5 C8 1_555 1_555
C9 C8 1_555 1_555
H6 C9 1_555 1_555
C10 C9 1_555 1_555
H7 C10 1_555 1_555
C11 C10 1_555 1_555
C12 C7 1_555 1_555
H8 C12 1_555 1_555
N3 C11 1_555 1_555
C13 N3 1_555 1_555
O2 C13 1_555 1_555
C14 C13 1_555 1_555
C15 C14 1_555 1_555
H9 C15 1_555 1_555
C16 C15 1_555 1_555
H10 C16 1_555 1_555
C17 C16 1_555 1_555
H11 C17 1_555 1_555
C18 C17 1_555 1_555
H12 C18 1_555 1_555
N4 Ni2 1_555 1_555
N5 Ni1 1_555 1_555
C19 N5 1_555 1_555
H13 C19 1_555 1_555
C20 C19 1_555 1_555
H14 C20 1_555 1_555
C21 C20 1_555 1_555
H15 C21 1_555 1_555
C22 C21 1_555 1_555
H16 C22 1_555 1_555
C23 N5 1_555 1_555
C24 C23 1_555 1_555
N6 Ni1 1_555 1_555
C25 N6 1_555 1_555
C26 C25 1_555 1_555
H17 C26 1_555 1_555
C27 C26 1_555 1_555
H18 C27 1_555 1_555
C28 C27 1_555 1_555
H19 C28 1_555 1_555
C29 C28 1_555 1_555
C30 C25 1_555 1_555
H20 C30 1_555 1_555
N7 Ni2 1_555 1_555
C31 N7 1_555 1_555
O3 C31 1_555 1_555
C32 C31 1_555 1_555
C33 C32 1_555 1_555
H21 C33 1_555 1_555
C34 C33 1_555 1_555
H22 C34 1_555 1_555
C35 C34 1_555 1_555
H23 C35 1_555 1_555
C36 C35 1_555 1_555
H24 C36 1_555 1_555
N8 Ni2 1_555 1_555
N9 Ni1 1_555 1_555
C37 N9 1_555 1_555
H25 C37 1_555 1_555
C38 C37 1_555 1_555
H26 C38 1_555 1_555
C39 C38 1_555 1_555
H27 C39 1_555 1_555
C40 C39 1_555 1_555
H28 C40 1_555 1_555
C41 N9 1_555 1_555
C42 C41 1_555 1_555
N10 Ni1 1_555 1_555
O4 C42 1_555 1_555
C43 N10 1_555 1_555
C44 C43 1_555 1_555
H29 C44 1_555 1_555
C45 C44 1_555 1_555
H30 C45 1_555 1_555
C46 C45 1_555 1_555
H31 C46 1_555 1_555
C47 C46 1_555 1_555
C48 C43 1_555 1_555
H32 C48 1_555 1_555
N11 Ni2 1_555 1_555
C49 N11 1_555 1_555
O5 C49 1_555 1_555
C50 C49 1_555 1_555
C51 C50 1_555 1_555
H33 C51 1_555 1_555
C52 C51 1_555 1_555
H34 C52 1_555 1_555
C53 C52 1_555 1_555
H35 C53 1_555 1_555
C54 C53 1_555 1_555
H36 C54 1_555 1_555
N12 Ni2 1_555 1_555
O6 Tb1 1_555 1_555
O7 Tb1 1_555 1_555
O8 Tb1 1_555 1_555
O9 Tb1 1_555 1_555
O10 C24 1_555 1_555
O11 Tb1 1_555 1_555
O12 Tb1 1_555 1_555
C55 F1 1_555 1_555
F2 C55 1_555 1_555
F3 C55 1_555 1_555
S1 C55 1_555 1_555
O13 S1 1_555 1_555
O14 S1 1_555 1_555
O15 S1 1_555 1_555
Tb1A O10 1_555 1_555
O10A Tb1 1_555 1_555
C4 C5 1_555 1_555
C6 N2 1_555 1_555
C11 C12 1_555 1_555
C14 N4 1_555 1_555
C18 N4 1_555 1_555
C22 C23 1_555 1_555
C24 N6 1_555 1_555
C29 C30 1_555 1_555
C29 N7 1_555 1_555
C32 N8 1_555 1_555
C36 N8 1_555 1_555
C40 C41 1_555 1_555
C42 N10 1_555 1_555
C47 C48 1_555 1_555
C47 N11 1_555 1_555
C50 N12 1_555 1_555
C54 N12 1_555 1_555

#END
