
#######################################################################
#
#                 Cambridge Crystallographic Data Centre
#                                CCDC 
#
#######################################################################
#
# If this CIF has been generated from an entry in the Cambridge 
# Structural Database, then it will include bibliographic, chemical, 
# crystal, experimental, refinement or atomic coordinate data resulting 
# from the CCDC's data processing and validation procedures.
#
#######################################################################

data_EQUCUO06
_symmetry_cell_setting           trigonal
_symmetry_space_group_name_H-M   'P -3'
_symmetry_Int_Tables_number      147
_space_group_name_Hall           '-P 3'
loop_
_symmetry_equiv_pos_site_id
_symmetry_equiv_pos_as_xyz
1 x,y,z
2 -y,x-y,z
3 -x+y,-x,z
4 -x,-y,-z
5 y,-x+y,-z
6 x-y,x,-z
_cell_length_a                   11.253(6)
_cell_length_b                   11.253(6)
_cell_length_c                   8.879(5)
_cell_angle_alpha                90
_cell_angle_beta                 90
_cell_angle_gamma                120
_cell_volume                     973.714
loop_
_atom_site_label
_atom_site_type_symbol
_atom_site_fract_x
_atom_site_fract_y
_atom_site_fract_z
P1 P 0.3333 0.6667 0.10678(13)
F1 F 0.2886(2) 0.53619(18) 0.2125(2)
F2 F 0.1999(3) 0.5759(3) 0.0101(3)
F1A F 0.46381(18) 0.75241(27) 0.2125(2)
F1B F 0.24759(27) 0.7114(2) 0.2125(2)
F2A F 0.4241(3) 0.6240(4) 0.0101(3)
F2B F 0.3760(4) 0.8001(3) 0.0101(3)
O1 O 0.0000 0.0000 0.5000
Fe1 Fe 0.0000 0.0000 0.0000
N1 N 0.36257(15) 0.07901(15) 0.24459(16)
N2 N 0.35858(18) 0.19464(18) 0.2719(2)
N3 N 0.25031(18) 0.18153(17) 0.2069(2)
N4 N 0.18191(14) 0.05789(14) 0.13672(16)
C1 C 0.25418(18) -0.00339(19) 0.1617(2)
H1 H 0.2322 -0.0917 0.1261
C2 C 0.47329(18) 0.0603(2) 0.3066(2)
H2 H 0.5605 0.1491 0.3047
H3 H 0.4849 -0.0055 0.2433
C3 C 0.44154(19) 0.0074(2) 0.4669(2)
H4 H 0.3560 -0.0828 0.4683
H5 H 0.4267 0.0717 0.5295
C3C C 0.55846(19) -0.0074(2) 0.5331(2)
C2C C 0.52671(18) -0.0603(2) 0.6934(2)
N1C N 0.63743(15) -0.07901(15) 0.75541(16)
N2C N 0.64142(18) -0.19464(18) 0.7281(2)
N3C N 0.74969(18) -0.18153(17) 0.7931(2)
N4C N 0.81809(14) -0.05789(14) 0.86328(16)
C1C C 0.74582(18) 0.00339(19) 0.8383(2)
H1C H 0.7678 0.0917 0.8739
H2C H 0.4395 -0.1491 0.6953
H3C H 0.5151 0.0055 0.7567
H4C H 0.6440 0.0828 0.5317
H5C H 0.5733 -0.0717 0.4705
N1A N -0.07901(15) 0.28356(21) 0.24459(16)
N2A N -0.19464(18) 0.16394(25) 0.2719(2)
N3A N -0.18153(17) 0.06878(25) 0.2069(2)
N4A N -0.05789(14) 0.12402(20) 0.13672(16)
C1A C 0.00339(19) 0.25757(26) 0.1617(2)
H1A H 0.0917 0.3239 0.1261
C2A C -0.0603(2) 0.41299(27) 0.3066(2)
H2A H -0.1491 0.4114 0.3047
H3A H 0.0055 0.4904 0.2433
C3A C -0.0074(2) 0.43414(28) 0.4669(2)
H4A H 0.0828 0.4388 0.4683
H5A H -0.0717 0.3550 0.5295
C3D C 0.0074(2) 0.56586(28) 0.5331(2)
C2D C 0.0603(2) 0.58701(27) 0.6934(2)
N1D N 0.07901(15) 0.71644(21) 0.75541(16)
N2D N 0.19464(18) 0.83606(25) 0.7281(2)
N3D N 0.18153(17) 0.93122(25) 0.7931(2)
N4D N 0.05789(14) 0.87598(20) 0.86328(16)
C1D C -0.00339(19) 0.74243(26) 0.8383(2)
H1D H -0.0917 0.6761 0.8739
H2D H 0.1491 0.5886 0.6953
H3D H -0.0055 0.5096 0.7567
H4D H -0.0828 0.5612 0.5317
H5D H 0.0717 0.6450 0.4705
N1B N -0.28356(21) -0.36257(15) 0.24459(16)
N2B N -0.16394(25) -0.35858(18) 0.2719(2)
N3B N -0.06878(25) -0.25031(18) 0.2069(2)
N4B N -0.12402(20) -0.18191(14) 0.13672(16)
C1B C -0.25757(26) -0.25418(18) 0.1617(2)
H1B H -0.3239 -0.2322 0.1261
C2B C -0.41299(27) -0.47329(18) 0.3066(2)
H2B H -0.4114 -0.5605 0.3047
H3B H -0.4904 -0.4849 0.2433
C3B C -0.43414(28) -0.44154(19) 0.4669(2)
H4B H -0.4388 -0.3560 0.4683
H5B H -0.3550 -0.4267 0.5295
C3E C -0.56586(28) -0.55846(19) 0.5331(2)
C2E C -0.58701(27) -0.52671(18) 0.6934(2)
N1E N -0.71644(21) -0.63743(15) 0.75541(16)
N2E N -0.83606(25) -0.64142(18) 0.7281(2)
N3E N -0.93122(25) -0.74969(18) 0.7931(2)
N4E N -0.87598(20) -0.81809(14) 0.86328(16)
C1E C -0.74243(26) -0.74582(18) 0.8383(2)
H1E H -0.6761 -0.7678 0.8739
H2E H -0.5886 -0.4395 0.6953
H3E H -0.5096 -0.5151 0.7567
H4E H -0.5612 -0.6440 0.5317
H5E H -0.6450 -0.5733 0.4705
N4C_2 N -0.18191(14) -0.05789(14) -0.13672(16)
N4D_2 N 0.05789(14) -0.12402(20) -0.13672(16)
N4E_2 N 0.12402(20) 0.18191(14) -0.13672(16)
Fe1_2 Fe 1.0000 0.0000 1.0000
Fe1_3 Fe 0.0000 1.0000 1.0000
Fe1_4 Fe -1.0000 -1.0000 1.0000
O2? O 0.157(3) 0.089(3) 0.516(2)
O3? O 0.0000 0.0000 0.633(15)
loop_
_geom_bond_atom_site_label_1
_geom_bond_atom_site_label_2
_geom_bond_site_symmetry_1
_geom_bond_site_symmetry_2
Fe1 N4 1_555 1_555
N1 N2 1_555 1_555
N2 N3 1_555 1_555
N3 N4 1_555 1_555
N4 C1 1_555 1_555
C1 N1 1_555 1_555
H1 C1 1_555 1_555
C2 N1 1_555 1_555
H2 C2 1_555 1_555
H3 C2 1_555 1_555
C3 C2 1_555 1_555
H4 C3 1_555 1_555
H5 C3 1_555 1_555
P1 F1 1_555 1_555
F2 P1 1_555 1_555
C3C C3 1_555 1_555
C2C C3C 1_555 1_555
N1C C2C 1_555 1_555
N2C N1C 1_555 1_555
N3C N2C 1_555 1_555
N4C N3C 1_555 1_555
C1C N1C 1_555 1_555
H1C C1C 1_555 1_555
H2C C2C 1_555 1_555
H3C C2C 1_555 1_555
H4C C3C 1_555 1_555
H5C C3C 1_555 1_555
F1A P1 1_555 1_555
F1B P1 1_555 1_555
F2A P1 1_555 1_555
F2B P1 1_555 1_555
N1A N2A 1_555 1_555
N2A N3A 1_555 1_555
N3A N4A 1_555 1_555
N4A Fe1 1_555 1_555
C1A N1A 1_555 1_555
H1A C1A 1_555 1_555
C2A N1A 1_555 1_555
H2A C2A 1_555 1_555
H3A C2A 1_555 1_555
C3A C2A 1_555 1_555
H4A C3A 1_555 1_555
H5A C3A 1_555 1_555
C3D C3A 1_555 1_555
C2D C3D 1_555 1_555
N1D C2D 1_555 1_555
N2D N1D 1_555 1_555
N3D N2D 1_555 1_555
N4D N3D 1_555 1_555
C1D N1D 1_555 1_555
H1D C1D 1_555 1_555
H2D C2D 1_555 1_555
H3D C2D 1_555 1_555
H4D C3D 1_555 1_555
H5D C3D 1_555 1_555
N1B N2B 1_555 1_555
N2B N3B 1_555 1_555
N3B N4B 1_555 1_555
N4B Fe1 1_555 1_555
C1B N1B 1_555 1_555
H1B C1B 1_555 1_555
C2B N1B 1_555 1_555
H2B C2B 1_555 1_555
H3B C2B 1_555 1_555
C3B C2B 1_555 1_555
H4B C3B 1_555 1_555
H5B C3B 1_555 1_555
C3E C3B 1_555 1_555
C2E C3E 1_555 1_555
N1E C2E 1_555 1_555
N2E N1E 1_555 1_555
N3E N2E 1_555 1_555
N4E N3E 1_555 1_555
C1E N1E 1_555 1_555
H1E C1E 1_555 1_555
H2E C2E 1_555 1_555
H3E C2E 1_555 1_555
H4E C3E 1_555 1_555
H5E C3E 1_555 1_555
N4C_2 Fe1 1_555 1_555
N4D_2 Fe1 1_555 1_555
N4E_2 Fe1 1_555 1_555
Fe1_2 N4C 1_555 1_555
Fe1_3 N4D 1_555 1_555
Fe1_4 N4E 1_555 1_555
N4C C1C 1_555 1_555
N4A C1A 1_555 1_555
N4D C1D 1_555 1_555
N4B C1B 1_555 1_555
N4E C1E 1_555 1_555

#END
