
#######################################################################
#
#                 Cambridge Crystallographic Data Centre
#                                CCDC 
#
#######################################################################
#
# If this CIF has been generated from an entry in the Cambridge 
# Structural Database, then it will include bibliographic, chemical, 
# crystal, experimental, refinement or atomic coordinate data resulting 
# from the CCDC's data processing and validation procedures.
#
#######################################################################

data_EQUCUO03
_symmetry_cell_setting           trigonal
_symmetry_space_group_name_H-M   'P -3'
_symmetry_Int_Tables_number      147
_space_group_name_Hall           '-P 3'
loop_
_symmetry_equiv_pos_site_id
_symmetry_equiv_pos_as_xyz
1 x,y,z
2 -y,x-y,z
3 -x+y,-x,z
4 -x,-y,-z
5 y,-x+y,-z
6 x-y,x,-z
_cell_length_a                   11.076(4)
_cell_length_b                   11.076(4)
_cell_length_c                   8.762(3)
_cell_angle_alpha                90
_cell_angle_beta                 90
_cell_angle_gamma                120
_cell_volume                     930.893
loop_
_atom_site_label
_atom_site_type_symbol
_atom_site_fract_x
_atom_site_fract_y
_atom_site_fract_z
P1 P 0.3333 0.6667 0.11121(8)
F1 F 0.28957(12) 0.53412(11) 0.21721(14)
F2 F 0.19924(14) 0.57468(15) 0.00996(15)
F1A F 0.46588(11) 0.75545(16) 0.21721(14)
F1B F 0.24455(16) 0.71043(12) 0.21721(14)
F2A F 0.42532(15) 0.62456(21) 0.00996(15)
F2B F 0.37544(21) 0.80076(14) 0.00996(15)
O1 O 0.0000 0.0000 0.5000
Fe1 Fe 0.0000 0.0000 0.0000
N1 N 0.35889(11) 0.07938(11) 0.24248(12)
N2 N 0.35435(13) 0.19653(13) 0.26916(15)
N3 N 0.24435(13) 0.18244(12) 0.20309(15)
N4 N 0.17550(11) 0.05692(10) 0.13254(11)
C1 C 0.24894(13) -0.00476(13) 0.15872(14)
H1 H 0.2267 -0.0946 0.1234
C2 C 0.47181(14) 0.06176(15) 0.30466(15)
H2 H 0.5596 0.1526 0.3039
H3 H 0.4852 -0.0036 0.2394
C3 C 0.43970(14) 0.00586(15) 0.46656(15)
H4 H 0.3544 -0.0871 0.4667
H5 H 0.4220 0.0689 0.5308
C3C C 0.56030(14) -0.00586(15) 0.53344(15)
C2C C 0.52819(14) -0.06176(15) 0.69534(15)
N1C N 0.64111(11) -0.07938(11) 0.75752(12)
N2C N 0.64565(13) -0.19653(13) 0.73084(15)
N3C N 0.75565(13) -0.18244(12) 0.79691(15)
N4C N 0.82450(11) -0.05692(10) 0.86746(11)
C1C C 0.75106(13) 0.00476(13) 0.84128(14)
H1C H 0.7733 0.0946 0.8766
H2C H 0.4404 -0.1526 0.6961
H3C H 0.5148 0.0036 0.7606
H4C H 0.6456 0.0871 0.5333
H5C H 0.5780 -0.0689 0.4692
N1A N -0.07938(11) 0.27951(16) 0.24248(12)
N2A N -0.19653(13) 0.15782(18) 0.26916(15)
N3A N -0.18244(12) 0.06191(18) 0.20309(15)
N4A N -0.05692(10) 0.11858(15) 0.13254(11)
C1A C 0.00476(13) 0.25370(18) 0.15872(14)
H1A H 0.0946 0.3213 0.1234
C2A C -0.06176(15) 0.41005(21) 0.30466(15)
H2A H -0.1526 0.4070 0.3039
H3A H 0.0036 0.4888 0.2394
C3A C -0.00586(15) 0.43384(21) 0.46656(15)
H4A H 0.0871 0.4415 0.4667
H5A H -0.0689 0.3531 0.5308
C3D C 0.00586(15) 0.56616(21) 0.53344(15)
C2D C 0.06176(15) 0.58995(21) 0.69534(15)
N1D N 0.07938(11) 0.72049(16) 0.75752(12)
N2D N 0.19653(13) 0.84218(18) 0.73084(15)
N3D N 0.18244(12) 0.93809(18) 0.79691(15)
N4D N 0.05692(10) 0.88142(15) 0.86746(11)
C1D C -0.00476(13) 0.74630(18) 0.84128(14)
H1D H -0.0946 0.6787 0.8766
H2D H 0.1526 0.5930 0.6961
H3D H -0.0036 0.5112 0.7606
H4D H -0.0871 0.5585 0.5333
H5D H 0.0689 0.6469 0.4692
N1B N -0.27951(16) -0.35889(11) 0.24248(12)
N2B N -0.15782(18) -0.35435(13) 0.26916(15)
N3B N -0.06191(18) -0.24435(13) 0.20309(15)
N4B N -0.11858(15) -0.17550(11) 0.13254(11)
C1B C -0.25370(18) -0.24894(13) 0.15872(14)
H1B H -0.3213 -0.2267 0.1234
C2B C -0.41005(21) -0.47181(14) 0.30466(15)
H2B H -0.4070 -0.5596 0.3039
H3B H -0.4888 -0.4852 0.2394
C3B C -0.43384(21) -0.43970(14) 0.46656(15)
H4B H -0.4415 -0.3544 0.4667
H5B H -0.3531 -0.4220 0.5308
C3E C -0.56616(21) -0.56030(14) 0.53344(15)
C2E C -0.58995(21) -0.52819(14) 0.69534(15)
N1E N -0.72049(16) -0.64111(11) 0.75752(12)
N2E N -0.84218(18) -0.64565(13) 0.73084(15)
N3E N -0.93809(18) -0.75565(13) 0.79691(15)
N4E N -0.88142(15) -0.82450(11) 0.86746(11)
C1E C -0.74630(18) -0.75106(13) 0.84128(14)
H1E H -0.6787 -0.7733 0.8766
H2E H -0.5930 -0.4404 0.6961
H3E H -0.5112 -0.5148 0.7606
H4E H -0.5585 -0.6456 0.5333
H5E H -0.6469 -0.5780 0.4692
N4C_2 N -0.17550(11) -0.05692(10) -0.13254(11)
N4D_2 N 0.05692(10) -0.11858(15) -0.13254(11)
N4E_2 N 0.11858(15) 0.17550(11) -0.13254(11)
Fe1_2 Fe 1.0000 0.0000 1.0000
Fe1_3 Fe 0.0000 1.0000 1.0000
Fe1_4 Fe -1.0000 -1.0000 1.0000
O2? O 0.1541(19) 0.084(2) 0.5154(17)
O3? O 0.0000 0.0000 0.586(16)
loop_
_geom_bond_atom_site_label_1
_geom_bond_atom_site_label_2
_geom_bond_site_symmetry_1
_geom_bond_site_symmetry_2
Fe1 N4 1_555 1_555
N1 N2 1_555 1_555
N2 N3 1_555 1_555
N3 N4 1_555 1_555
N4 C1 1_555 1_555
C1 N1 1_555 1_555
H1 C1 1_555 1_555
C2 N1 1_555 1_555
H2 C2 1_555 1_555
H3 C2 1_555 1_555
C3 C2 1_555 1_555
H4 C3 1_555 1_555
H5 C3 1_555 1_555
P1 F1 1_555 1_555
F2 P1 1_555 1_555
C3C C3 1_555 1_555
C2C C3C 1_555 1_555
N1C C2C 1_555 1_555
N2C N1C 1_555 1_555
N3C N2C 1_555 1_555
N4C N3C 1_555 1_555
C1C N1C 1_555 1_555
H1C C1C 1_555 1_555
H2C C2C 1_555 1_555
H3C C2C 1_555 1_555
H4C C3C 1_555 1_555
H5C C3C 1_555 1_555
F1A P1 1_555 1_555
F1B P1 1_555 1_555
F2A P1 1_555 1_555
F2B P1 1_555 1_555
N1A N2A 1_555 1_555
N2A N3A 1_555 1_555
N3A N4A 1_555 1_555
N4A Fe1 1_555 1_555
C1A N1A 1_555 1_555
H1A C1A 1_555 1_555
C2A N1A 1_555 1_555
H2A C2A 1_555 1_555
H3A C2A 1_555 1_555
C3A C2A 1_555 1_555
H4A C3A 1_555 1_555
H5A C3A 1_555 1_555
C3D C3A 1_555 1_555
C2D C3D 1_555 1_555
N1D C2D 1_555 1_555
N2D N1D 1_555 1_555
N3D N2D 1_555 1_555
N4D N3D 1_555 1_555
C1D N1D 1_555 1_555
H1D C1D 1_555 1_555
H2D C2D 1_555 1_555
H3D C2D 1_555 1_555
H4D C3D 1_555 1_555
H5D C3D 1_555 1_555
N1B N2B 1_555 1_555
N2B N3B 1_555 1_555
N3B N4B 1_555 1_555
N4B Fe1 1_555 1_555
C1B N1B 1_555 1_555
H1B C1B 1_555 1_555
C2B N1B 1_555 1_555
H2B C2B 1_555 1_555
H3B C2B 1_555 1_555
C3B C2B 1_555 1_555
H4B C3B 1_555 1_555
H5B C3B 1_555 1_555
C3E C3B 1_555 1_555
C2E C3E 1_555 1_555
N1E C2E 1_555 1_555
N2E N1E 1_555 1_555
N3E N2E 1_555 1_555
N4E N3E 1_555 1_555
C1E N1E 1_555 1_555
H1E C1E 1_555 1_555
H2E C2E 1_555 1_555
H3E C2E 1_555 1_555
H4E C3E 1_555 1_555
H5E C3E 1_555 1_555
N4C_2 Fe1 1_555 1_555
N4D_2 Fe1 1_555 1_555
N4E_2 Fe1 1_555 1_555
Fe1_2 N4C 1_555 1_555
Fe1_3 N4D 1_555 1_555
Fe1_4 N4E 1_555 1_555
N4C C1C 1_555 1_555
N4A C1A 1_555 1_555
N4D C1D 1_555 1_555
N4B C1B 1_555 1_555
N4E C1E 1_555 1_555

#END
