
#######################################################################
#
#                 Cambridge Crystallographic Data Centre
#                                CCDC 
#
#######################################################################
#
# If this CIF has been generated from an entry in the Cambridge 
# Structural Database, then it will include bibliographic, chemical, 
# crystal, experimental, refinement or atomic coordinate data resulting 
# from the CCDC's data processing and validation procedures.
#
#######################################################################

data_EQUCUO12
_symmetry_cell_setting           trigonal
_symmetry_space_group_name_H-M   'P -3'
_symmetry_Int_Tables_number      147
_space_group_name_Hall           '-P 3'
loop_
_symmetry_equiv_pos_site_id
_symmetry_equiv_pos_as_xyz
1 x,y,z
2 -y,x-y,z
3 -x+y,-x,z
4 -x,-y,-z
5 y,-x+y,-z
6 x-y,x,-z
_cell_length_a                   10.9697(5)
_cell_length_b                   10.9697(5)
_cell_length_c                   8.6824(8)
_cell_angle_alpha                90
_cell_angle_beta                 90
_cell_angle_gamma                120
_cell_volume                     904.815
loop_
_atom_site_label
_atom_site_type_symbol
_atom_site_fract_x
_atom_site_fract_y
_atom_site_fract_z
P1 P 0.3333 0.6667 0.11562(9)
F1 F 0.29066(10) 0.53201(9) 0.22242(13)
F2 F 0.19832(12) 0.57341(12) 0.01053(14)
F1A F 0.46799(9) 0.75865(13) 0.22242(13)
F1B F 0.24135(13) 0.70934(10) 0.22242(13)
F2A F 0.42659(12) 0.62491(17) 0.01053(14)
F2B F 0.37509(17) 0.80168(12) 0.01053(14)
Fe1 Fe 0.0000 0.0000 0.0000
N1 N 0.35610(11) 0.07970(12) 0.23993(15)
N2 N 0.35115(13) 0.19796(13) 0.26755(17)
N3 N 0.23955(13) 0.18347(12) 0.20044(16)
N4 N 0.17028(11) 0.05626(11) 0.12887(14)
C1 C 0.24484(13) -0.00654(14) 0.15527(17)
H1 H 0.2227 -0.0973 0.1199
C2 C 0.47104(14) 0.06272(15) 0.30285(18)
H2 H 0.5591 0.1550 0.3034
H3 H 0.4859 -0.0019 0.2361
C3 C 0.43794(14) 0.00424(15) 0.46555(18)
H4 H 0.3535 -0.0908 0.4641
H5 H 0.4170 0.0655 0.5308
Fe1_2 Fe 1.0000 0.0000 1.0000
Fe1_3 Fe 0.0000 1.0000 1.0000
Fe1_4 Fe -1.0000 -1.0000 1.0000
N1C N 0.64390(11) -0.07970(12) 0.76007(15)
N1A N -0.07970(12) 0.27640(16) 0.23993(15)
N1D N 0.07970(12) 0.72360(16) 0.76007(15)
N1B N -0.27640(16) -0.35610(11) 0.23993(15)
N1E N -0.72360(16) -0.64390(11) 0.76007(15)
N2C N 0.64885(13) -0.19796(13) 0.73245(17)
N2A N -0.19796(13) 0.15319(18) 0.26755(17)
N2D N 0.19796(13) 0.84681(18) 0.73245(17)
N2B N -0.15319(18) -0.35115(13) 0.26755(17)
N2E N -0.84681(18) -0.64885(13) 0.73245(17)
N3C N 0.76045(13) -0.18347(12) 0.79956(16)
N3A N -0.18347(12) 0.05608(18) 0.20044(16)
N3D N 0.18347(12) 0.94392(18) 0.79956(16)
N3B N -0.05608(18) -0.23955(13) 0.20044(16)
N3E N -0.94392(18) -0.76045(13) 0.79956(16)
N4C N 0.82972(11) -0.05626(11) 0.87113(14)
N4A N -0.05626(11) 0.11402(16) 0.12887(14)
N4D N 0.05626(11) 0.88598(16) 0.87113(14)
N4B N -0.11402(16) -0.17028(11) 0.12887(14)
N4E N -0.88598(16) -0.82972(11) 0.87113(14)
N4C_2 N -0.17028(11) -0.05626(11) -0.12887(14)
N4D_2 N 0.05626(11) -0.11402(16) -0.12887(14)
N4E_2 N 0.11402(16) 0.17028(11) -0.12887(14)
C1C C 0.75516(13) 0.00654(14) 0.84473(17)
C1A C 0.00654(14) 0.25138(19) 0.15527(17)
C1D C -0.00654(14) 0.74862(19) 0.84473(17)
C1B C -0.25138(19) -0.24484(13) 0.15527(17)
C1E C -0.74862(19) -0.75516(13) 0.84473(17)
H1C H 0.7773 0.0973 0.8801
H1A H 0.0973 0.3200 0.1199
H1D H -0.0973 0.6800 0.8801
H1B H -0.3200 -0.2227 0.1199
H1E H -0.6800 -0.7773 0.8801
C2C C 0.52896(14) -0.06272(15) 0.69715(18)
C2A C -0.06272(15) 0.40832(21) 0.30285(18)
C2D C 0.06272(15) 0.59168(21) 0.69715(18)
C2B C -0.40832(21) -0.47104(14) 0.30285(18)
C2E C -0.59168(21) -0.52896(14) 0.69715(18)
H2C H 0.4409 -0.1550 0.6966
H2A H -0.1550 0.4041 0.3034
H2D H 0.1550 0.5959 0.6966
H2B H -0.4041 -0.5591 0.3034
H2E H -0.5959 -0.4409 0.6966
H3C H 0.5141 0.0019 0.7639
H3A H 0.0019 0.4878 0.2361
H3D H -0.0019 0.5122 0.7639
H3B H -0.4878 -0.4859 0.2361
H3E H -0.5122 -0.5141 0.7639
C3C C 0.56206(14) -0.00424(15) 0.53445(18)
C3A C -0.00424(15) 0.43370(21) 0.46555(18)
C3D C 0.00424(15) 0.56630(21) 0.53445(18)
C3B C -0.43370(21) -0.43794(14) 0.46555(18)
C3E C -0.56630(21) -0.56206(14) 0.53445(18)
H4C H 0.6465 0.0908 0.5359
H4A H 0.0908 0.4443 0.4641
H4D H -0.0908 0.5557 0.5359
H4B H -0.4443 -0.3535 0.4641
H4E H -0.5557 -0.6465 0.5359
H5C H 0.5830 -0.0655 0.4692
H5A H -0.0655 0.3515 0.5308
H5D H 0.0655 0.6485 0.4692
H5B H -0.3515 -0.4170 0.5308
H5E H -0.6485 -0.5830 0.4692
O1? O 0.171(4) 0.108(4) 0.535(4)
C4? C 0.044(11) 0.075(4) 0.501(6)
loop_
_geom_bond_atom_site_label_1
_geom_bond_atom_site_label_2
_geom_bond_site_symmetry_1
_geom_bond_site_symmetry_2
Fe1 N4 1_555 1_555
N1 N2 1_555 1_555
N2 N3 1_555 1_555
N3 N4 1_555 1_555
N4 C1 1_555 1_555
C1 N1 1_555 1_555
H1 C1 1_555 1_555
C2 N1 1_555 1_555
H2 C2 1_555 1_555
H3 C2 1_555 1_555
C3 C2 1_555 1_555
H4 C3 1_555 1_555
H5 C3 1_555 1_555
P1 F1 1_555 1_555
F2 P1 1_555 1_555
Fe1_2 N4C 1_555 1_555
Fe1_3 N4D 1_555 1_555
Fe1_4 N4E 1_555 1_555
N1C N2C 1_555 1_555
N1A N2A 1_555 1_555
N1D N2D 1_555 1_555
N1B N2B 1_555 1_555
N1E N2E 1_555 1_555
N2C N3C 1_555 1_555
N2A N3A 1_555 1_555
N2D N3D 1_555 1_555
N2B N3B 1_555 1_555
N2E N3E 1_555 1_555
N3C N4C 1_555 1_555
N3A N4A 1_555 1_555
N3D N4D 1_555 1_555
N3B N4B 1_555 1_555
N3E N4E 1_555 1_555
N4C C1C 1_555 1_555
N4A Fe1 1_555 1_555
N4D C1D 1_555 1_555
N4B Fe1 1_555 1_555
N4E C1E 1_555 1_555
N4C_2 Fe1 1_555 1_555
N4D_2 Fe1 1_555 1_555
N4E_2 Fe1 1_555 1_555
C1C N1C 1_555 1_555
C1A N1A 1_555 1_555
C1D N1D 1_555 1_555
C1B N1B 1_555 1_555
C1E N1E 1_555 1_555
H1C C1C 1_555 1_555
H1A C1A 1_555 1_555
H1D C1D 1_555 1_555
H1B C1B 1_555 1_555
H1E C1E 1_555 1_555
C2C N1C 1_555 1_555
C2A N1A 1_555 1_555
C2D N1D 1_555 1_555
C2B N1B 1_555 1_555
C2E N1E 1_555 1_555
H2C C2C 1_555 1_555
H2A C2A 1_555 1_555
H2D C2D 1_555 1_555
H2B C2B 1_555 1_555
H2E C2E 1_555 1_555
H3C C2C 1_555 1_555
H3A C2A 1_555 1_555
H3D C2D 1_555 1_555
H3B C2B 1_555 1_555
H3E C2E 1_555 1_555
C3C C3 1_555 1_555
C3A C2A 1_555 1_555
C3D C2D 1_555 1_555
C3B C2B 1_555 1_555
C3E C2E 1_555 1_555
H4C C3C 1_555 1_555
H4A C3A 1_555 1_555
H4D C3D 1_555 1_555
H4B C3B 1_555 1_555
H4E C3E 1_555 1_555
H5C C3C 1_555 1_555
H5A C3A 1_555 1_555
H5D C3D 1_555 1_555
H5B C3B 1_555 1_555
H5E C3E 1_555 1_555
F1A P1 1_555 1_555
F1B P1 1_555 1_555
F2A P1 1_555 1_555
F2B P1 1_555 1_555
N4A C1A 1_555 1_555
N4B C1B 1_555 1_555
C2C C3C 1_555 1_555
C3A C3D 1_555 1_555
C3B C3E 1_555 1_555

#END
