
#######################################################################
#
#                 Cambridge Crystallographic Data Centre
#                                CCDC 
#
#######################################################################
#
# If this CIF has been generated from an entry in the Cambridge 
# Structural Database, then it will include bibliographic, chemical, 
# crystal, experimental, refinement or atomic coordinate data resulting 
# from the CCDC's data processing and validation procedures.
#
#######################################################################

data_EQUCUO11
_symmetry_cell_setting           trigonal
_symmetry_space_group_name_H-M   'P -3'
_symmetry_Int_Tables_number      147
_space_group_name_Hall           '-P 3'
loop_
_symmetry_equiv_pos_site_id
_symmetry_equiv_pos_as_xyz
1 x,y,z
2 -y,x-y,z
3 -x+y,-x,z
4 -x,-y,-z
5 y,-x+y,-z
6 x-y,x,-z
_cell_length_a                   10.9726(4)
_cell_length_b                   10.9726(4)
_cell_length_c                   8.6916(7)
_cell_angle_alpha                90
_cell_angle_beta                 90
_cell_angle_gamma                120
_cell_volume                     906.253
loop_
_atom_site_label
_atom_site_type_symbol
_atom_site_fract_x
_atom_site_fract_y
_atom_site_fract_z
P1 P 0.3333 0.6667 0.11559(6)
F1 F 0.29055(9) 0.53192(8) 0.22248(10)
F2 F 0.19828(10) 0.57337(11) 0.01056(11)
F1A F 0.46808(8) 0.75863(12) 0.22248(10)
F1B F 0.24137(12) 0.70945(9) 0.22248(10)
F2A F 0.42663(11) 0.62491(15) 0.01056(11)
F2B F 0.37509(15) 0.80172(10) 0.01056(11)
Fe1 Fe 0.0000 0.0000 0.0000
N1 N 0.35597(10) 0.07965(10) 0.23995(11)
N2 N 0.35116(11) 0.19794(11) 0.26737(13)
N3 N 0.23961(11) 0.18355(11) 0.20026(12)
N4 N 0.17015(10) 0.05617(10) 0.12876(10)
C1 C 0.24467(12) -0.00660(12) 0.15541(13)
H1 H 0.2224 -0.0974 0.1202
C2 C 0.47112(12) 0.06271(13) 0.30260(13)
H2 H 0.5592 0.1550 0.3030
H3 H 0.4859 -0.0020 0.2360
C3 C 0.43796(12) 0.00423(13) 0.46579(13)
H4 H 0.3535 -0.0908 0.4645
H5 H 0.4172 0.0656 0.5309
Fe1_2 Fe 1.0000 0.0000 1.0000
Fe1_3 Fe 0.0000 1.0000 1.0000
Fe1_4 Fe -1.0000 -1.0000 1.0000
N1C N 0.64403(10) -0.07965(10) 0.76005(11)
N1A N -0.07965(10) 0.27632(14) 0.23995(11)
N1D N 0.07965(10) 0.72368(14) 0.76005(11)
N1B N -0.27632(14) -0.35597(10) 0.23995(11)
N1E N -0.72368(14) -0.64403(10) 0.76005(11)
N2C N 0.64884(11) -0.19794(11) 0.73263(13)
N2A N -0.19794(11) 0.15322(16) 0.26737(13)
N2D N 0.19794(11) 0.84678(16) 0.73263(13)
N2B N -0.15322(16) -0.35116(11) 0.26737(13)
N2E N -0.84678(16) -0.64884(11) 0.73263(13)
N3C N 0.76039(11) -0.18355(11) 0.79974(12)
N3A N -0.18355(11) 0.05606(16) 0.20026(12)
N3D N 0.18355(11) 0.94394(16) 0.79974(12)
N3B N -0.05606(16) -0.23961(11) 0.20026(12)
N3E N -0.94394(16) -0.76039(11) 0.79974(12)
N4C N 0.82985(10) -0.05617(10) 0.87124(10)
N4A N -0.05617(10) 0.11398(14) 0.12876(10)
N4D N 0.05617(10) 0.88602(14) 0.87124(10)
N4B N -0.11398(14) -0.17015(10) 0.12876(10)
N4E N -0.88602(14) -0.82985(10) 0.87124(10)
N4C_2 N -0.17015(10) -0.05617(10) -0.12876(10)
N4D_2 N 0.05617(10) -0.11398(14) -0.12876(10)
N4E_2 N 0.11398(14) 0.17015(10) -0.12876(10)
C1C C 0.75533(12) 0.00660(12) 0.84459(13)
C1A C 0.00660(12) 0.25127(17) 0.15541(13)
C1D C -0.00660(12) 0.74873(17) 0.84459(13)
C1B C -0.25127(17) -0.24467(12) 0.15541(13)
C1E C -0.74873(17) -0.75533(12) 0.84459(13)
H1C H 0.7776 0.0974 0.8798
H1A H 0.0974 0.3198 0.1202
H1D H -0.0974 0.6802 0.8798
H1B H -0.3198 -0.2224 0.1202
H1E H -0.6802 -0.7776 0.8798
C2C C 0.52888(12) -0.06271(13) 0.69740(13)
C2A C -0.06271(13) 0.40841(18) 0.30260(13)
C2D C 0.06271(13) 0.59159(18) 0.69740(13)
C2B C -0.40841(18) -0.47112(12) 0.30260(13)
C2E C -0.59159(18) -0.52888(12) 0.69740(13)
H2C H 0.4408 -0.1550 0.6970
H2A H -0.1550 0.4042 0.3030
H2D H 0.1550 0.5958 0.6970
H2B H -0.4042 -0.5592 0.3030
H2E H -0.5958 -0.4408 0.6970
H3C H 0.5141 0.0020 0.7640
H3A H 0.0020 0.4879 0.2360
H3D H -0.0020 0.5121 0.7640
H3B H -0.4879 -0.4859 0.2360
H3E H -0.5121 -0.5141 0.7640
C3C C 0.56204(12) -0.00423(13) 0.53421(13)
C3A C -0.00423(13) 0.43373(18) 0.46579(13)
C3D C 0.00423(13) 0.56627(18) 0.53421(13)
C3B C -0.43373(18) -0.43796(12) 0.46579(13)
C3E C -0.56627(18) -0.56204(12) 0.53421(13)
H4C H 0.6465 0.0908 0.5355
H4A H 0.0908 0.4443 0.4645
H4D H -0.0908 0.5557 0.5355
H4B H -0.4443 -0.3535 0.4645
H4E H -0.5557 -0.6465 0.5355
H5C H 0.5828 -0.0656 0.4691
H5A H -0.0656 0.3516 0.5309
H5D H 0.0656 0.6484 0.4691
H5B H -0.3516 -0.4172 0.5309
H5E H -0.6484 -0.5828 0.4691
O1? O 0.171(4) 0.111(3) 0.535(4)
C4? C 0.044(8) 0.073(3) 0.500(4)
loop_
_geom_bond_atom_site_label_1
_geom_bond_atom_site_label_2
_geom_bond_site_symmetry_1
_geom_bond_site_symmetry_2
Fe1 N4 1_555 1_555
N1 N2 1_555 1_555
N2 N3 1_555 1_555
N3 N4 1_555 1_555
N4 C1 1_555 1_555
C1 N1 1_555 1_555
H1 C1 1_555 1_555
C2 N1 1_555 1_555
H2 C2 1_555 1_555
H3 C2 1_555 1_555
C3 C2 1_555 1_555
H4 C3 1_555 1_555
H5 C3 1_555 1_555
P1 F1 1_555 1_555
F2 P1 1_555 1_555
Fe1_2 N4C 1_555 1_555
Fe1_3 N4D 1_555 1_555
Fe1_4 N4E 1_555 1_555
N1C N2C 1_555 1_555
N1A N2A 1_555 1_555
N1D N2D 1_555 1_555
N1B N2B 1_555 1_555
N1E N2E 1_555 1_555
N2C N3C 1_555 1_555
N2A N3A 1_555 1_555
N2D N3D 1_555 1_555
N2B N3B 1_555 1_555
N2E N3E 1_555 1_555
N3C N4C 1_555 1_555
N3A N4A 1_555 1_555
N3D N4D 1_555 1_555
N3B N4B 1_555 1_555
N3E N4E 1_555 1_555
N4C C1C 1_555 1_555
N4A Fe1 1_555 1_555
N4D C1D 1_555 1_555
N4B Fe1 1_555 1_555
N4E C1E 1_555 1_555
N4C_2 Fe1 1_555 1_555
N4D_2 Fe1 1_555 1_555
N4E_2 Fe1 1_555 1_555
C1C N1C 1_555 1_555
C1A N1A 1_555 1_555
C1D N1D 1_555 1_555
C1B N1B 1_555 1_555
C1E N1E 1_555 1_555
H1C C1C 1_555 1_555
H1A C1A 1_555 1_555
H1D C1D 1_555 1_555
H1B C1B 1_555 1_555
H1E C1E 1_555 1_555
C2C N1C 1_555 1_555
C2A N1A 1_555 1_555
C2D N1D 1_555 1_555
C2B N1B 1_555 1_555
C2E N1E 1_555 1_555
H2C C2C 1_555 1_555
H2A C2A 1_555 1_555
H2D C2D 1_555 1_555
H2B C2B 1_555 1_555
H2E C2E 1_555 1_555
H3C C2C 1_555 1_555
H3A C2A 1_555 1_555
H3D C2D 1_555 1_555
H3B C2B 1_555 1_555
H3E C2E 1_555 1_555
C3C C3 1_555 1_555
C3A C2A 1_555 1_555
C3D C2D 1_555 1_555
C3B C2B 1_555 1_555
C3E C2E 1_555 1_555
H4C C3C 1_555 1_555
H4A C3A 1_555 1_555
H4D C3D 1_555 1_555
H4B C3B 1_555 1_555
H4E C3E 1_555 1_555
H5C C3C 1_555 1_555
H5A C3A 1_555 1_555
H5D C3D 1_555 1_555
H5B C3B 1_555 1_555
H5E C3E 1_555 1_555
F1A P1 1_555 1_555
F1B P1 1_555 1_555
F2A P1 1_555 1_555
F2B P1 1_555 1_555
N4A C1A 1_555 1_555
N4B C1B 1_555 1_555
C2C C3C 1_555 1_555
C3A C3D 1_555 1_555
C3B C3E 1_555 1_555

#END
