
#######################################################################
#
#                 Cambridge Crystallographic Data Centre
#                                CCDC 
#
#######################################################################
#
# If this CIF has been generated from an entry in the Cambridge 
# Structural Database, then it will include bibliographic, chemical, 
# crystal, experimental, refinement or atomic coordinate data resulting 
# from the CCDC's data processing and validation procedures.
#
#######################################################################

data_EQUCUO08
_symmetry_cell_setting           trigonal
_symmetry_space_group_name_H-M   'P -3'
_symmetry_Int_Tables_number      147
_space_group_name_Hall           '-P 3'
loop_
_symmetry_equiv_pos_site_id
_symmetry_equiv_pos_as_xyz
1 x,y,z
2 -y,x-y,z
3 -x+y,-x,z
4 -x,-y,-z
5 y,-x+y,-z
6 x-y,x,-z
_cell_length_a                   11.258(6)
_cell_length_b                   11.258(6)
_cell_length_c                   8.948(6)
_cell_angle_alpha                90
_cell_angle_beta                 90
_cell_angle_gamma                120
_cell_volume                     982.153
loop_
_atom_site_label
_atom_site_type_symbol
_atom_site_fract_x
_atom_site_fract_y
_atom_site_fract_z
P1 P 0.3333 0.6667 0.09320(19)
F1 F 0.2886(3) 0.5373(3) 0.1986(5)
F2 F 0.1945(4) 0.5697(5) 0.0119(5)
F1A F 0.4627(3) 0.7513(4) 0.1986(5)
F1B F 0.2487(4) 0.7114(3) 0.1986(5)
F2A F 0.4303(5) 0.6248(6) 0.0119(5)
F2B F 0.3752(6) 0.8055(4) 0.0119(5)
O1 O 0.0000 0.0000 0.5000
Fe1 Fe 0.0000 0.0000 0.0000
N1 N 0.36059(15) 0.07819(16) 0.24780(17)
N2 N 0.3563(2) 0.1925(2) 0.2750(3)
N3 N 0.2496(2) 0.18067(19) 0.2078(3)
N4 N 0.18258(14) 0.05867(14) 0.13717(16)
C1 C 0.2548(2) -0.0019(2) 0.1625(2)
H1 H 0.2346 -0.0874 0.1261
C2 C 0.4713(2) 0.0593(3) 0.3088(2)
H2 H 0.5569 0.1459 0.3056
H3 H 0.4817 -0.0059 0.2473
C3 C 0.4418(2) 0.0079(3) 0.4674(2)
H4 H 0.3575 -0.0800 0.4702
H5 H 0.4287 0.0718 0.5283
C3C C 0.5582(2) -0.0079(3) 0.5326(2)
C2C C 0.5287(2) -0.0593(3) 0.6912(2)
N1C N 0.63941(15) -0.07819(16) 0.75220(17)
N2C N 0.6437(2) -0.1925(2) 0.7250(3)
N3C N 0.7504(2) -0.18067(19) 0.7922(3)
N4C N 0.81742(14) -0.05867(14) 0.86283(16)
C1C C 0.7452(2) 0.0019(2) 0.8375(2)
H1C H 0.7654 0.0874 0.8739
H2C H 0.4431 -0.1459 0.6944
H3C H 0.5183 0.0059 0.7527
H4C H 0.6425 0.0800 0.5298
H5C H 0.5713 -0.0718 0.4717
N1A N -0.07819(16) 0.28240(22) 0.24780(17)
N2A N -0.1925(2) 0.1638(3) 0.2750(3)
N3A N -0.18067(19) 0.06893(28) 0.2078(3)
N4A N -0.05867(14) 0.12391(20) 0.13717(16)
C1A C 0.0019(2) 0.2567(3) 0.1625(2)
H1A H 0.0874 0.3220 0.1261
C2A C -0.0593(3) 0.4120(4) 0.3088(2)
H2A H -0.1459 0.4110 0.3056
H3A H 0.0059 0.4876 0.2473
C3A C -0.0079(3) 0.4339(4) 0.4674(2)
H4A H 0.0800 0.4375 0.4702
H5A H -0.0718 0.3569 0.5283
C3D C 0.0079(3) 0.5661(4) 0.5326(2)
C2D C 0.0593(3) 0.5880(4) 0.6912(2)
N1D N 0.07819(16) 0.71760(22) 0.75220(17)
N2D N 0.1925(2) 0.8362(3) 0.7250(3)
N3D N 0.18067(19) 0.93107(28) 0.7922(3)
N4D N 0.05867(14) 0.87609(20) 0.86283(16)
C1D C -0.0019(2) 0.7433(3) 0.8375(2)
H1D H -0.0874 0.6780 0.8739
H2D H 0.1459 0.5890 0.6944
H3D H -0.0059 0.5124 0.7527
H4D H -0.0800 0.5625 0.5298
H5D H 0.0718 0.6431 0.4717
N1B N -0.28240(22) -0.36059(15) 0.24780(17)
N2B N -0.1638(3) -0.3563(2) 0.2750(3)
N3B N -0.06893(28) -0.2496(2) 0.2078(3)
N4B N -0.12391(20) -0.18258(14) 0.13717(16)
C1B C -0.2567(3) -0.2548(2) 0.1625(2)
H1B H -0.3220 -0.2346 0.1261
C2B C -0.4120(4) -0.4713(2) 0.3088(2)
H2B H -0.4110 -0.5569 0.3056
H3B H -0.4876 -0.4817 0.2473
C3B C -0.4339(4) -0.4418(2) 0.4674(2)
H4B H -0.4375 -0.3575 0.4702
H5B H -0.3569 -0.4287 0.5283
C3E C -0.5661(4) -0.5582(2) 0.5326(2)
C2E C -0.5880(4) -0.5287(2) 0.6912(2)
N1E N -0.71760(22) -0.63941(15) 0.75220(17)
N2E N -0.8362(3) -0.6437(2) 0.7250(3)
N3E N -0.93107(28) -0.7504(2) 0.7922(3)
N4E N -0.87609(20) -0.81742(14) 0.86283(16)
C1E C -0.7433(3) -0.7452(2) 0.8375(2)
H1E H -0.6780 -0.7654 0.8739
H2E H -0.5890 -0.4431 0.6944
H3E H -0.5124 -0.5183 0.7527
H4E H -0.5625 -0.6425 0.5298
H5E H -0.6431 -0.5713 0.4717
N4C_2 N -0.18258(14) -0.05867(14) -0.13717(16)
N4D_2 N 0.05867(14) -0.12391(20) -0.13717(16)
N4E_2 N 0.12391(20) 0.18258(14) -0.13717(16)
Fe1_2 Fe 1.0000 0.0000 1.0000
Fe1_3 Fe 0.0000 1.0000 1.0000
Fe1_4 Fe -1.0000 -1.0000 1.0000
F3? F 0.3333 0.6667 -0.097(3)
F4? F 0.3333 0.6667 0.231(6)
O2? O 0.156(6) 0.090(5) 0.514(3)
O3? O 0.0000 0.0000 0.642(15)
loop_
_geom_bond_atom_site_label_1
_geom_bond_atom_site_label_2
_geom_bond_site_symmetry_1
_geom_bond_site_symmetry_2
Fe1 N4 1_555 1_555
N1 N2 1_555 1_555
N2 N3 1_555 1_555
N3 N4 1_555 1_555
N4 C1 1_555 1_555
C1 N1 1_555 1_555
H1 C1 1_555 1_555
C2 N1 1_555 1_555
H2 C2 1_555 1_555
H3 C2 1_555 1_555
C3 C2 1_555 1_555
H4 C3 1_555 1_555
H5 C3 1_555 1_555
P1 F1 1_555 1_555
F2 P1 1_555 1_555
C3C C3 1_555 1_555
C2C C3C 1_555 1_555
N1C C2C 1_555 1_555
N2C N1C 1_555 1_555
N3C N2C 1_555 1_555
N4C N3C 1_555 1_555
C1C N1C 1_555 1_555
H1C C1C 1_555 1_555
H2C C2C 1_555 1_555
H3C C2C 1_555 1_555
H4C C3C 1_555 1_555
H5C C3C 1_555 1_555
F1A P1 1_555 1_555
F1B P1 1_555 1_555
F2A P1 1_555 1_555
F2B P1 1_555 1_555
N1A N2A 1_555 1_555
N2A N3A 1_555 1_555
N3A N4A 1_555 1_555
N4A Fe1 1_555 1_555
C1A N1A 1_555 1_555
H1A C1A 1_555 1_555
C2A N1A 1_555 1_555
H2A C2A 1_555 1_555
H3A C2A 1_555 1_555
C3A C2A 1_555 1_555
H4A C3A 1_555 1_555
H5A C3A 1_555 1_555
C3D C3A 1_555 1_555
C2D C3D 1_555 1_555
N1D C2D 1_555 1_555
N2D N1D 1_555 1_555
N3D N2D 1_555 1_555
N4D N3D 1_555 1_555
C1D N1D 1_555 1_555
H1D C1D 1_555 1_555
H2D C2D 1_555 1_555
H3D C2D 1_555 1_555
H4D C3D 1_555 1_555
H5D C3D 1_555 1_555
N1B N2B 1_555 1_555
N2B N3B 1_555 1_555
N3B N4B 1_555 1_555
N4B Fe1 1_555 1_555
C1B N1B 1_555 1_555
H1B C1B 1_555 1_555
C2B N1B 1_555 1_555
H2B C2B 1_555 1_555
H3B C2B 1_555 1_555
C3B C2B 1_555 1_555
H4B C3B 1_555 1_555
H5B C3B 1_555 1_555
C3E C3B 1_555 1_555
C2E C3E 1_555 1_555
N1E C2E 1_555 1_555
N2E N1E 1_555 1_555
N3E N2E 1_555 1_555
N4E N3E 1_555 1_555
C1E N1E 1_555 1_555
H1E C1E 1_555 1_555
H2E C2E 1_555 1_555
H3E C2E 1_555 1_555
H4E C3E 1_555 1_555
H5E C3E 1_555 1_555
N4C_2 Fe1 1_555 1_555
N4D_2 Fe1 1_555 1_555
N4E_2 Fe1 1_555 1_555
Fe1_2 N4C 1_555 1_555
Fe1_3 N4D 1_555 1_555
Fe1_4 N4E 1_555 1_555
N4C C1C 1_555 1_555
N4A C1A 1_555 1_555
N4D C1D 1_555 1_555
N4B C1B 1_555 1_555
N4E C1E 1_555 1_555

#END
