
#######################################################################
#
#                 Cambridge Crystallographic Data Centre
#                                CCDC 
#
#######################################################################
#
# If this CIF has been generated from an entry in the Cambridge 
# Structural Database, then it will include bibliographic, chemical, 
# crystal, experimental, refinement or atomic coordinate data resulting 
# from the CCDC's data processing and validation procedures.
#
#######################################################################

data_EQUCUO05
_symmetry_cell_setting           trigonal
_symmetry_space_group_name_H-M   'P -3'
_symmetry_Int_Tables_number      147
_space_group_name_Hall           '-P 3'
loop_
_symmetry_equiv_pos_site_id
_symmetry_equiv_pos_as_xyz
1 x,y,z
2 -y,x-y,z
3 -x+y,-x,z
4 -x,-y,-z
5 y,-x+y,-z
6 x-y,x,-z
_cell_length_a                   11.200(8)
_cell_length_b                   11.200(8)
_cell_length_c                   8.837(7)
_cell_angle_alpha                90
_cell_angle_beta                 90
_cell_angle_gamma                120
_cell_volume                     960.001
loop_
_atom_site_label
_atom_site_type_symbol
_atom_site_fract_x
_atom_site_fract_y
_atom_site_fract_z
P1 P 0.3333 0.6667 0.10857(11)
F1 F 0.28922(17) 0.53573(15) 0.2142(2)
F2 F 0.2000(2) 0.5756(2) 0.0102(2)
F1A F 0.46427(15) 0.75349(23) 0.2142(2)
F1B F 0.24651(23) 0.71078(17) 0.2142(2)
F2A F 0.4244(2) 0.6244(3) 0.0102(2)
F2B F 0.3756(3) 0.8000(2) 0.0102(2)
O1 O 0.0000 0.0000 0.5000
Fe1 Fe 0.0000 0.0000 0.0000
N1 N 0.36189(14) 0.07913(14) 0.24403(16)
N2 N 0.35810(18) 0.19518(17) 0.2709(2)
N3 N 0.24911(17) 0.18172(16) 0.2060(2)
N4 N 0.18055(14) 0.05759(14) 0.13579(15)
C1 C 0.25300(18) -0.00355(18) 0.1614(2)
H1 H 0.2307 -0.0925 0.1263
C2 C 0.47309(18) 0.0606(2) 0.3060(2)
H2 H 0.5606 0.1499 0.3043
H3 H 0.4850 -0.0053 0.2421
C3 C 0.44103(18) 0.0071(2) 0.4666(2)
H4 H 0.3554 -0.0839 0.4678
H5 H 0.4255 0.0712 0.5296
C3C C 0.55897(18) -0.0071(2) 0.5334(2)
C2C C 0.52691(18) -0.0606(2) 0.6940(2)
N1C N 0.63811(14) -0.07913(14) 0.75597(16)
N2C N 0.64190(18) -0.19518(17) 0.7291(2)
N3C N 0.75089(17) -0.18172(16) 0.7940(2)
N4C N 0.81945(14) -0.05759(14) 0.86421(15)
C1C C 0.74700(18) 0.00355(18) 0.8386(2)
H1C H 0.7693 0.0925 0.8737
H2C H 0.4394 -0.1499 0.6957
H3C H 0.5150 0.0053 0.7579
H4C H 0.6446 0.0839 0.5322
H5C H 0.5745 -0.0712 0.4704
N1A N -0.07913(14) 0.28276(20) 0.24403(16)
N2A N -0.19518(17) 0.16292(25) 0.2709(2)
N3A N -0.18172(16) 0.06739(23) 0.2060(2)
N4A N -0.05759(14) 0.12296(20) 0.13579(15)
C1A C 0.00355(18) 0.25655(25) 0.1614(2)
H1A H 0.0925 0.3232 0.1263
C2A C -0.0606(2) 0.41249(27) 0.3060(2)
H2A H -0.1499 0.4107 0.3043
H3A H 0.0053 0.4903 0.2421
C3A C -0.0071(2) 0.43393(27) 0.4666(2)
H4A H 0.0839 0.4393 0.4678
H5A H -0.0712 0.3543 0.5296
C3D C 0.0071(2) 0.56607(27) 0.5334(2)
C2D C 0.0606(2) 0.58751(27) 0.6940(2)
N1D N 0.07913(14) 0.71724(20) 0.75597(16)
N2D N 0.19518(17) 0.83708(25) 0.7291(2)
N3D N 0.18172(16) 0.93261(23) 0.7940(2)
N4D N 0.05759(14) 0.87704(20) 0.86421(15)
C1D C -0.00355(18) 0.74345(25) 0.8386(2)
H1D H -0.0925 0.6768 0.8737
H2D H 0.1499 0.5893 0.6957
H3D H -0.0053 0.5097 0.7579
H4D H -0.0839 0.5607 0.5322
H5D H 0.0712 0.6457 0.4704
N1B N -0.28276(20) -0.36189(14) 0.24403(16)
N2B N -0.16292(25) -0.35810(18) 0.2709(2)
N3B N -0.06739(23) -0.24911(17) 0.2060(2)
N4B N -0.12296(20) -0.18055(14) 0.13579(15)
C1B C -0.25655(25) -0.25300(18) 0.1614(2)
H1B H -0.3232 -0.2307 0.1263
C2B C -0.41249(27) -0.47309(18) 0.3060(2)
H2B H -0.4107 -0.5606 0.3043
H3B H -0.4903 -0.4850 0.2421
C3B C -0.43393(27) -0.44103(18) 0.4666(2)
H4B H -0.4393 -0.3554 0.4678
H5B H -0.3543 -0.4255 0.5296
C3E C -0.56607(27) -0.55897(18) 0.5334(2)
C2E C -0.58751(27) -0.52691(18) 0.6940(2)
N1E N -0.71724(20) -0.63811(14) 0.75597(16)
N2E N -0.83708(25) -0.64190(18) 0.7291(2)
N3E N -0.93261(23) -0.75089(17) 0.7940(2)
N4E N -0.87704(20) -0.81945(14) 0.86421(15)
C1E C -0.74345(25) -0.74700(18) 0.8386(2)
H1E H -0.6768 -0.7693 0.8737
H2E H -0.5893 -0.4394 0.6957
H3E H -0.5097 -0.5150 0.7579
H4E H -0.5607 -0.6446 0.5322
H5E H -0.6457 -0.5745 0.4704
N4C_2 N -0.18055(14) -0.05759(14) -0.13579(15)
N4D_2 N 0.05759(14) -0.12296(20) -0.13579(15)
N4E_2 N 0.12296(20) 0.18055(14) -0.13579(15)
Fe1_2 Fe 1.0000 0.0000 1.0000
Fe1_3 Fe 0.0000 1.0000 1.0000
Fe1_4 Fe -1.0000 -1.0000 1.0000
O2? O 0.156(2) 0.087(3) 0.517(2)
O3? O 0.0000 0.0000 0.59(2)
loop_
_geom_bond_atom_site_label_1
_geom_bond_atom_site_label_2
_geom_bond_site_symmetry_1
_geom_bond_site_symmetry_2
Fe1 N4 1_555 1_555
N1 N2 1_555 1_555
N2 N3 1_555 1_555
N3 N4 1_555 1_555
N4 C1 1_555 1_555
C1 N1 1_555 1_555
H1 C1 1_555 1_555
C2 N1 1_555 1_555
H2 C2 1_555 1_555
H3 C2 1_555 1_555
C3 C2 1_555 1_555
H4 C3 1_555 1_555
H5 C3 1_555 1_555
P1 F1 1_555 1_555
F2 P1 1_555 1_555
C3C C3 1_555 1_555
C2C C3C 1_555 1_555
N1C C2C 1_555 1_555
N2C N1C 1_555 1_555
N3C N2C 1_555 1_555
N4C N3C 1_555 1_555
C1C N1C 1_555 1_555
H1C C1C 1_555 1_555
H2C C2C 1_555 1_555
H3C C2C 1_555 1_555
H4C C3C 1_555 1_555
H5C C3C 1_555 1_555
F1A P1 1_555 1_555
F1B P1 1_555 1_555
F2A P1 1_555 1_555
F2B P1 1_555 1_555
N1A N2A 1_555 1_555
N2A N3A 1_555 1_555
N3A N4A 1_555 1_555
N4A Fe1 1_555 1_555
C1A N1A 1_555 1_555
H1A C1A 1_555 1_555
C2A N1A 1_555 1_555
H2A C2A 1_555 1_555
H3A C2A 1_555 1_555
C3A C2A 1_555 1_555
H4A C3A 1_555 1_555
H5A C3A 1_555 1_555
C3D C3A 1_555 1_555
C2D C3D 1_555 1_555
N1D C2D 1_555 1_555
N2D N1D 1_555 1_555
N3D N2D 1_555 1_555
N4D N3D 1_555 1_555
C1D N1D 1_555 1_555
H1D C1D 1_555 1_555
H2D C2D 1_555 1_555
H3D C2D 1_555 1_555
H4D C3D 1_555 1_555
H5D C3D 1_555 1_555
N1B N2B 1_555 1_555
N2B N3B 1_555 1_555
N3B N4B 1_555 1_555
N4B Fe1 1_555 1_555
C1B N1B 1_555 1_555
H1B C1B 1_555 1_555
C2B N1B 1_555 1_555
H2B C2B 1_555 1_555
H3B C2B 1_555 1_555
C3B C2B 1_555 1_555
H4B C3B 1_555 1_555
H5B C3B 1_555 1_555
C3E C3B 1_555 1_555
C2E C3E 1_555 1_555
N1E C2E 1_555 1_555
N2E N1E 1_555 1_555
N3E N2E 1_555 1_555
N4E N3E 1_555 1_555
C1E N1E 1_555 1_555
H1E C1E 1_555 1_555
H2E C2E 1_555 1_555
H3E C2E 1_555 1_555
H4E C3E 1_555 1_555
H5E C3E 1_555 1_555
N4C_2 Fe1 1_555 1_555
N4D_2 Fe1 1_555 1_555
N4E_2 Fe1 1_555 1_555
Fe1_2 N4C 1_555 1_555
Fe1_3 N4D 1_555 1_555
Fe1_4 N4E 1_555 1_555
N4C C1C 1_555 1_555
N4A C1A 1_555 1_555
N4D C1D 1_555 1_555
N4B C1B 1_555 1_555
N4E C1E 1_555 1_555

#END
