
#######################################################################
#
#                 Cambridge Crystallographic Data Centre
#                                CCDC 
#
#######################################################################
#
# If this CIF has been generated from an entry in the Cambridge 
# Structural Database, then it will include bibliographic, chemical, 
# crystal, experimental, refinement or atomic coordinate data resulting 
# from the CCDC's data processing and validation procedures.
#
#######################################################################

data_EQUCUO01
_symmetry_cell_setting           trigonal
_symmetry_space_group_name_H-M   'P -3'
_symmetry_Int_Tables_number      147
_space_group_name_Hall           '-P 3'
loop_
_symmetry_equiv_pos_site_id
_symmetry_equiv_pos_as_xyz
1 x,y,z
2 -y,x-y,z
3 -x+y,-x,z
4 -x,-y,-z
5 y,-x+y,-z
6 x-y,x,-z
_cell_length_a                   10.995(5)
_cell_length_b                   10.995(5)
_cell_length_c                   8.714(4)
_cell_angle_alpha                90
_cell_angle_beta                 90
_cell_angle_gamma                120
_cell_volume                     912.302
loop_
_atom_site_label
_atom_site_type_symbol
_atom_site_fract_x
_atom_site_fract_y
_atom_site_fract_z
P1 P 0.3333 0.6667 0.11447(8)
F1 F 0.29034(12) 0.53244(11) 0.22133(13)
F2 F 0.19835(14) 0.57345(14) 0.01016(15)
F1A F 0.46756(11) 0.75790(16) 0.22133(13)
F1B F 0.24210(16) 0.70966(12) 0.22133(13)
F2A F 0.42655(14) 0.62490(20) 0.01016(15)
F2B F 0.37510(20) 0.80165(14) 0.01016(15)
O1 O 0.0000 0.0000 0.5000
Fe1 Fe 0.0000 0.0000 0.0000
N1 N 0.35560(12) 0.07962(12) 0.24055(13)
N2 N 0.35120(14) 0.19803(14) 0.26693(16)
N3 N 0.23984(13) 0.18387(13) 0.19958(15)
N4 N 0.17020(11) 0.05633(12) 0.12883(13)
C1 C 0.24460(14) -0.00616(14) 0.15605(16)
H1 H 0.2224 -0.0968 0.1211
C2 C 0.47051(14) 0.06271(16) 0.30312(16)
H2 H 0.5583 0.1548 0.3034
H3 H 0.4852 -0.0018 0.2366
C3 C 0.43799(15) 0.00445(16) 0.46593(16)
H4 H 0.3535 -0.0903 0.4648
H5 H 0.4176 0.0659 0.5311
C3C C 0.56201(15) -0.00445(16) 0.53407(16)
C2C C 0.52949(14) -0.06271(16) 0.69688(16)
N1C N 0.64440(12) -0.07962(12) 0.75945(13)
N2C N 0.64880(14) -0.19803(14) 0.73307(16)
N3C N 0.76016(13) -0.18387(13) 0.80042(15)
N4C N 0.82980(11) -0.05633(12) 0.87117(13)
C1C C 0.75540(14) 0.00616(14) 0.84395(16)
H1C H 0.7776 0.0968 0.8789
H2C H 0.4417 -0.1548 0.6966
H3C H 0.5148 0.0018 0.7634
H4C H 0.6465 0.0903 0.5352
H5C H 0.5824 -0.0659 0.4689
N1A N -0.07962(12) 0.27598(17) 0.24055(13)
N2A N -0.19803(14) 0.15317(20) 0.26693(16)
N3A N -0.18387(13) 0.05597(18) 0.19958(15)
N4A N -0.05633(12) 0.11387(16) 0.12883(13)
C1A C 0.00616(14) 0.25076(20) 0.15605(16)
H1A H 0.0968 0.3192 0.1211
C2A C -0.06271(16) 0.40780(21) 0.30312(16)
H2A H -0.1548 0.4035 0.3034
H3A H 0.0018 0.4870 0.2366
C3A C -0.00445(16) 0.43354(22) 0.46593(16)
H4A H 0.0903 0.4438 0.4648
H5A H -0.0659 0.3517 0.5311
C3D C 0.00445(16) 0.56646(22) 0.53407(16)
C2D C 0.06271(16) 0.59220(21) 0.69688(16)
N1D N 0.07962(12) 0.72402(17) 0.75945(13)
N2D N 0.19803(14) 0.84683(20) 0.73307(16)
N3D N 0.18387(13) 0.94403(18) 0.80042(15)
N4D N 0.05633(12) 0.88613(16) 0.87117(13)
C1D C -0.00616(14) 0.74924(20) 0.84395(16)
H1D H -0.0968 0.6808 0.8789
H2D H 0.1548 0.5965 0.6966
H3D H -0.0018 0.5130 0.7634
H4D H -0.0903 0.5562 0.5352
H5D H 0.0659 0.6483 0.4689
N1B N -0.27598(17) -0.35560(12) 0.24055(13)
N2B N -0.15317(20) -0.35120(14) 0.26693(16)
N3B N -0.05597(18) -0.23984(13) 0.19958(15)
N4B N -0.11387(16) -0.17020(11) 0.12883(13)
C1B C -0.25076(20) -0.24460(14) 0.15605(16)
H1B H -0.3192 -0.2224 0.1211
C2B C -0.40780(21) -0.47051(14) 0.30312(16)
H2B H -0.4035 -0.5583 0.3034
H3B H -0.4870 -0.4852 0.2366
C3B C -0.43354(22) -0.43799(15) 0.46593(16)
H4B H -0.4438 -0.3535 0.4648
H5B H -0.3517 -0.4176 0.5311
C3E C -0.56646(22) -0.56201(15) 0.53407(16)
C2E C -0.59220(21) -0.52949(14) 0.69688(16)
N1E N -0.72402(17) -0.64440(12) 0.75945(13)
N2E N -0.84683(20) -0.64880(14) 0.73307(16)
N3E N -0.94403(18) -0.76016(13) 0.80042(15)
N4E N -0.88613(16) -0.82980(11) 0.87117(13)
C1E C -0.74924(20) -0.75540(14) 0.84395(16)
H1E H -0.6808 -0.7776 0.8789
H2E H -0.5965 -0.4417 0.6966
H3E H -0.5130 -0.5148 0.7634
H4E H -0.5562 -0.6465 0.5352
H5E H -0.6483 -0.5824 0.4689
N4C_2 N -0.17020(11) -0.05633(12) -0.12883(13)
N4D_2 N 0.05633(12) -0.11387(16) -0.12883(13)
N4E_2 N 0.11387(16) 0.17020(11) -0.12883(13)
Fe1_2 Fe 1.0000 0.0000 1.0000
Fe1_3 Fe 0.0000 1.0000 1.0000
Fe1_4 Fe -1.0000 -1.0000 1.0000
O2? O 0.146(2) 0.082(3) 0.509(2)
O3? O 0.0000 0.0000 0.56(2)
loop_
_geom_bond_atom_site_label_1
_geom_bond_atom_site_label_2
_geom_bond_site_symmetry_1
_geom_bond_site_symmetry_2
Fe1 N4 1_555 1_555
N1 N2 1_555 1_555
N2 N3 1_555 1_555
N3 N4 1_555 1_555
N4 C1 1_555 1_555
C1 N1 1_555 1_555
H1 C1 1_555 1_555
C2 N1 1_555 1_555
H2 C2 1_555 1_555
H3 C2 1_555 1_555
C3 C2 1_555 1_555
H4 C3 1_555 1_555
H5 C3 1_555 1_555
P1 F1 1_555 1_555
F2 P1 1_555 1_555
C3C C3 1_555 1_555
C2C C3C 1_555 1_555
N1C C2C 1_555 1_555
N2C N1C 1_555 1_555
N3C N2C 1_555 1_555
N4C N3C 1_555 1_555
C1C N1C 1_555 1_555
H1C C1C 1_555 1_555
H2C C2C 1_555 1_555
H3C C2C 1_555 1_555
H4C C3C 1_555 1_555
H5C C3C 1_555 1_555
F1A P1 1_555 1_555
F1B P1 1_555 1_555
F2A P1 1_555 1_555
F2B P1 1_555 1_555
N1A N2A 1_555 1_555
N2A N3A 1_555 1_555
N3A N4A 1_555 1_555
N4A Fe1 1_555 1_555
C1A N1A 1_555 1_555
H1A C1A 1_555 1_555
C2A N1A 1_555 1_555
H2A C2A 1_555 1_555
H3A C2A 1_555 1_555
C3A C2A 1_555 1_555
H4A C3A 1_555 1_555
H5A C3A 1_555 1_555
C3D C3A 1_555 1_555
C2D C3D 1_555 1_555
N1D C2D 1_555 1_555
N2D N1D 1_555 1_555
N3D N2D 1_555 1_555
N4D N3D 1_555 1_555
C1D N1D 1_555 1_555
H1D C1D 1_555 1_555
H2D C2D 1_555 1_555
H3D C2D 1_555 1_555
H4D C3D 1_555 1_555
H5D C3D 1_555 1_555
N1B N2B 1_555 1_555
N2B N3B 1_555 1_555
N3B N4B 1_555 1_555
N4B Fe1 1_555 1_555
C1B N1B 1_555 1_555
H1B C1B 1_555 1_555
C2B N1B 1_555 1_555
H2B C2B 1_555 1_555
H3B C2B 1_555 1_555
C3B C2B 1_555 1_555
H4B C3B 1_555 1_555
H5B C3B 1_555 1_555
C3E C3B 1_555 1_555
C2E C3E 1_555 1_555
N1E C2E 1_555 1_555
N2E N1E 1_555 1_555
N3E N2E 1_555 1_555
N4E N3E 1_555 1_555
C1E N1E 1_555 1_555
H1E C1E 1_555 1_555
H2E C2E 1_555 1_555
H3E C2E 1_555 1_555
H4E C3E 1_555 1_555
H5E C3E 1_555 1_555
N4C_2 Fe1 1_555 1_555
N4D_2 Fe1 1_555 1_555
N4E_2 Fe1 1_555 1_555
Fe1_2 N4C 1_555 1_555
Fe1_3 N4D 1_555 1_555
Fe1_4 N4E 1_555 1_555
N4C C1C 1_555 1_555
N4A C1A 1_555 1_555
N4D C1D 1_555 1_555
N4B C1B 1_555 1_555
N4E C1E 1_555 1_555

#END
