
#######################################################################
#
#                 Cambridge Crystallographic Data Centre
#                                CCDC 
#
#######################################################################
#
# If this CIF has been generated from an entry in the Cambridge 
# Structural Database, then it will include bibliographic, chemical, 
# crystal, experimental, refinement or atomic coordinate data resulting 
# from the CCDC's data processing and validation procedures.
#
#######################################################################

data_EQUFEC
_symmetry_cell_setting           monoclinic
_symmetry_space_group_name_H-M   'P 21/n'
_symmetry_Int_Tables_number      14
_space_group_name_Hall           '-P 2yn'
loop_
_symmetry_equiv_pos_site_id
_symmetry_equiv_pos_as_xyz
1 x,y,z
2 1/2-x,1/2+y,1/2-z
3 -x,-y,-z
4 1/2+x,1/2-y,1/2+z
_cell_length_a                   13.4609(13)
_cell_length_b                   9.6079(9)
_cell_length_c                   20.2349(19)
_cell_angle_alpha                90
_cell_angle_beta                 91.263(4)
_cell_angle_gamma                90
_cell_volume                     2616.36
loop_
_atom_site_label
_atom_site_type_symbol
_atom_site_fract_x
_atom_site_fract_y
_atom_site_fract_z
Mn1 Mn 0.68921(4) 0.27505(6) 0.77029(2)
O1 O 0.73706(18) 0.4944(3) 0.76722(11)
O2 O 0.70153(17) 0.7106(3) 0.79782(12)
N1 N 0.6120(2) 0.1210(3) 0.84486(13)
N2 N 0.5569(2) 0.4039(3) 0.80783(14)
N3 N 0.8001(2) 0.2295(3) 0.85201(14)
N4 N 0.5744(2) 0.2662(3) 0.68756(14)
C1 C 0.5364(3) 0.0269(4) 0.81364(18)
H1 H 0.5715 -0.0452 0.7882
H2 H 0.4956 0.0820 0.7818
C2 C 0.4674(3) -0.0451(4) 0.86062(18)
C3 C 0.4988(3) -0.1620(4) 0.89615(19)
H3 H 0.5650 -0.1947 0.8920
C4 C 0.4344(3) -0.2310(5) 0.93748(19)
H4 H 0.4558 -0.3128 0.9600
C5 C 0.3401(3) -0.1818(5) 0.94598(19)
H5 H 0.2962 -0.2292 0.9744
C6 C 0.3090(3) -0.0629(5) 0.9131(2)
H6 H 0.2442 -0.0273 0.9200
C7 C 0.3718(3) 0.0047(4) 0.8702(2)
H7 H 0.3494 0.0855 0.8473
C8 C 0.5659(3) 0.2202(4) 0.89140(17)
H8 H 0.6188 0.2709 0.9161
H9 H 0.5265 0.1676 0.9237
C9 C 0.4994(3) 0.3235(4) 0.85594(18)
H10 H 0.4446 0.2737 0.8327
H11 H 0.4699 0.3876 0.8884
C10 C 0.6012(3) 0.5287(4) 0.83870(19)
H12 H 0.6256 0.5060 0.8839
H13 H 0.5501 0.6024 0.8420
C11 C 0.6857(3) 0.5807(4) 0.79843(17)
C12 C 0.4937(3) 0.4446(4) 0.75024(19)
H14 H 0.5208 0.5303 0.7303
H15 H 0.4258 0.4655 0.7653
C13 C 0.4885(3) 0.3322(4) 0.69897(17)
C14 C 0.4032(3) 0.3023(5) 0.6637(2)
H16 H 0.3425 0.3469 0.6740
C15 C 0.4068(3) 0.2062(5) 0.6131(2)
H17 H 0.3482 0.1834 0.5884
C16 C 0.4952(3) 0.1442(5) 0.5989(2)
H18 H 0.4997 0.0805 0.5632
C17 C 0.5765(3) 0.1758(4) 0.63701(18)
H19 H 0.6377 0.1318 0.6274
C18 C 0.6894(3) 0.0390(4) 0.88021(18)
H20 H 0.7018 -0.0476 0.8552
H21 H 0.6647 0.0123 0.9242
C19 C 0.7855(3) 0.1167(4) 0.88919(17)
C20 C 0.8588(3) 0.0682(5) 0.9327(2)
H22 H 0.8479 -0.0132 0.9582
C21 C 0.9475(3) 0.1392(5) 0.9385(2)
H23 H 0.9978 0.1085 0.9688
C22 C 0.9625(3) 0.2549(4) 0.9002(2)
H24 H 1.0236 0.3043 0.9027
C23 C 0.8875(3) 0.2973(4) 0.85836(19)
H25 H 0.8974 0.3784 0.8325
Mn1A Mn 0.81079(4) 0.77505(6) 0.72971(2)
O2A O 0.79847(17) 0.2106(3) 0.70218(12)
Cl1 Cl 0.74998(9) 0.11036(13) 0.48673(5)
O3 O 0.7127(3) 0.0030(4) 0.52682(18)
O4 O 0.7359(10) 0.2361(7) 0.5211(6)
O5 O 0.7040(9) 0.1115(15) 0.4263(4)
O6 O 0.8512(5) 0.0885(13) 0.4816(6)
O7 O 0.7606(3) 0.1679(5) 0.2950(2)
H26 H 0.7590 0.1343 0.3381
C24 C 0.6774(4) 0.2441(8) 0.2741(3)
H27 H 0.6651 0.3195 0.3054
H28 H 0.6193 0.1827 0.2714
H29 H 0.6896 0.2835 0.2303
O8? O 0.6826(7) 0.2197(9) 0.4841(6)
O9? O 0.7565(10) 0.0555(11) 0.4212(3)
O10? O 0.8425(6) 0.1512(13) 0.5052(6)
loop_
_geom_bond_atom_site_label_1
_geom_bond_atom_site_label_2
_geom_bond_site_symmetry_1
_geom_bond_site_symmetry_2
Mn1 O1 1_555 1_555
O1 C11 1_555 1_555
O2 C11 1_555 1_555
N1 Mn1 1_555 1_555
N2 Mn1 1_555 1_555
N3 Mn1 1_555 1_555
N4 Mn1 1_555 1_555
C1 N1 1_555 1_555
H1 C1 1_555 1_555
H2 C1 1_555 1_555
C2 C1 1_555 1_555
C3 C2 1_555 1_555
H3 C3 1_555 1_555
C4 C3 1_555 1_555
H4 C4 1_555 1_555
C5 C4 1_555 1_555
H5 C5 1_555 1_555
C6 C5 1_555 1_555
H6 C6 1_555 1_555
C7 C2 1_555 1_555
H7 C7 1_555 1_555
C8 N1 1_555 1_555
H8 C8 1_555 1_555
H9 C8 1_555 1_555
C9 N2 1_555 1_555
H10 C9 1_555 1_555
H11 C9 1_555 1_555
C10 N2 1_555 1_555
H12 C10 1_555 1_555
H13 C10 1_555 1_555
C11 C10 1_555 1_555
C12 N2 1_555 1_555
H14 C12 1_555 1_555
H15 C12 1_555 1_555
C13 N4 1_555 1_555
C14 C13 1_555 1_555
H16 C14 1_555 1_555
C15 C14 1_555 1_555
H17 C15 1_555 1_555
C16 C15 1_555 1_555
H18 C16 1_555 1_555
C17 N4 1_555 1_555
H19 C17 1_555 1_555
C18 N1 1_555 1_555
H20 C18 1_555 1_555
H21 C18 1_555 1_555
C19 N3 1_555 1_555
C20 C19 1_555 1_555
H22 C20 1_555 1_555
C21 C20 1_555 1_555
H23 C21 1_555 1_555
C22 C21 1_555 1_555
H24 C22 1_555 1_555
C23 N3 1_555 1_555
H25 C23 1_555 1_555
Cl1 O3 1_555 1_555
O4 Cl1 1_555 1_555
O5 Cl1 1_555 1_555
O6 Cl1 1_555 1_555
O7 H26 1_555 1_555
C24 O7 1_555 1_555
H27 C24 1_555 1_555
H28 C24 1_555 1_555
H29 C24 1_555 1_555
Mn1A O2 1_555 1_555
O2A Mn1 1_555 1_555
C6 C7 1_555 1_555
C8 C9 1_555 1_555
C12 C13 1_555 1_555
C16 C17 1_555 1_555
C18 C19 1_555 1_555
C22 C23 1_555 1_555

#END
