
#######################################################################
#
#                 Cambridge Crystallographic Data Centre
#                                CCDC 
#
#######################################################################
#
# If this CIF has been generated from an entry in the Cambridge 
# Structural Database, then it will include bibliographic, chemical, 
# crystal, experimental, refinement or atomic coordinate data resulting 
# from the CCDC's data processing and validation procedures.
#
#######################################################################

data_EQUHON
_symmetry_cell_setting           triclinic
_symmetry_space_group_name_H-M   'P -1'
_symmetry_Int_Tables_number      2
_space_group_name_Hall           '-P 1'
loop_
_symmetry_equiv_pos_site_id
_symmetry_equiv_pos_as_xyz
1 x,y,z
2 -x,-y,-z
_cell_length_a                   9.157(4)
_cell_length_b                   10.054(4)
_cell_length_c                   10.609(4)
_cell_angle_alpha                85.919(6)
_cell_angle_beta                 85.103(5)
_cell_angle_gamma                82.677(5)
_cell_volume                     963.412
loop_
_atom_site_label
_atom_site_type_symbol
_atom_site_fract_x
_atom_site_fract_y
_atom_site_fract_z
Cd1 Cd 0.18350(5) 0.78269(4) 0.25424(4)
Cd2 Cd 0.0000 1.0000 0.5000
Cd3 Cd 0.0000 1.0000 1.0000
Cl1 Cl 0.07042(17) 0.74608(15) 0.48296(13)
Cl2 Cl 0.26527(16) 0.88930(16) 0.03112(12)
Cl3 Cl 0.3597(2) 0.5722(2) 0.24837(18)
Cl4 Cl 0.04312(17) 0.97787(17) 0.74720(12)
N1 N 0.3174(5) 0.9323(5) 0.3418(4)
N2 N 0.2468(5) 1.0272(5) 0.4237(4)
N3 N 0.4587(5) 1.0873(6) 0.3544(5)
H1 H 0.5330 1.1324 0.3427
N4 N -0.0071(5) 0.7115(5) 0.1495(4)
N5 N -0.0676(5) 0.7867(5) 0.0479(4)
N6 N -0.1713(6) 0.6056(5) 0.0817(4)
H2 H -0.2274 0.5449 0.0736
C1 C 0.3329(7) 1.1187(6) 0.4290(5)
C2 C 0.3036(8) 1.2435(7) 0.5012(7)
H3 H 0.3865 1.2937 0.4865
H4 H 0.2886 1.2192 0.5901
H5 H 0.2168 1.2975 0.4733
C3 C 0.4445(6) 0.9721(7) 0.3021(5)
C4 C 0.5562(7) 0.9051(8) 0.2122(6)
H6 H 0.6392 0.9553 0.1990
H7 H 0.5144 0.9003 0.1330
H8 H 0.5881 0.8160 0.2460
C5 C -0.1666(7) 0.7205(6) 0.0090(5)
C6 C -0.2602(8) 0.7602(7) -0.0984(6)
H9 H -0.3236 0.6926 -0.1057
H10 H -0.1983 0.7693 -0.1754
H11 H -0.3191 0.8445 -0.0833
C7 C -0.0728(7) 0.6026(6) 0.1692(5)
C8 C -0.0444(9) 0.4932(7) 0.2696(6)
H12 H -0.1082 0.4258 0.2629
H13 H -0.0633 0.5297 0.3514
H14 H 0.0567 0.4537 0.2591
Cl1A Cl -0.07042(17) 1.25392(15) 0.51704(13)
Cl4A Cl -0.04312(17) 1.02213(17) 0.25280(12)
N1A N -0.3174(5) 1.0677(5) 0.6582(4)
N2A N -0.2468(5) 0.9728(5) 0.5763(4)
N3A N -0.4587(5) 0.9127(6) 0.6456(5)
H1A H -0.5330 0.8676 0.6573
C1A C -0.3329(7) 0.8813(6) 0.5710(5)
C2A C -0.3036(8) 0.7565(7) 0.4988(7)
H3A H -0.3865 0.7063 0.5135
H4A H -0.2886 0.7808 0.4099
H5A H -0.2168 0.7025 0.5267
C3A C -0.4445(6) 1.0279(7) 0.6979(5)
C4A C -0.5562(7) 1.0949(8) 0.7878(6)
H6A H -0.6392 1.0447 0.8010
H7A H -0.5144 1.0997 0.8670
H8A H -0.5881 1.1840 0.7540
Cd1A Cd -0.18350(5) 1.21731(4) 0.74576(4)
Cl2_2 Cl 0.26527(16) 0.88930(16) 1.03112(12)
N4_2 N -0.0071(5) 0.7115(5) 1.1495(4)
N5_2 N -0.0676(5) 0.7867(5) 1.0479(4)
N6_2 N -0.1713(6) 0.6056(5) 1.0817(4)
H2_2 H -0.2274 0.5449 1.0736
C5_2 C -0.1666(7) 0.7205(6) 1.0090(5)
C6_2 C -0.2602(8) 0.7602(7) 0.9016(6)
H9_2 H -0.3236 0.6926 0.8943
H10_2 H -0.1983 0.7693 0.8246
H11_2 H -0.3191 0.8445 0.9167
C7_2 C -0.0728(7) 0.6026(6) 1.1692(5)
C8_2 C -0.0444(9) 0.4932(7) 1.2696(6)
H12_2 H -0.1082 0.4258 1.2629
H13_2 H -0.0633 0.5297 1.3514
H14_2 H 0.0567 0.4537 1.2591
Cl3A Cl -0.3597(2) 1.4278(2) 0.75163(18)
Cl2A Cl -0.26527(16) 1.11070(16) 0.96888(12)
Cl4A_2 Cl -0.04312(17) 1.02213(17) 1.25280(12)
N5A N 0.0676(5) 1.2133(5) 0.9521(4)
Cd3_2 Cd 0.0000 1.0000 0.0000
N4A N 0.0071(5) 1.2885(5) 0.8505(4)
Cd1_2 Cd 0.18350(5) 0.78269(4) 1.25424(4)
O1 O 0.6651(6) 0.2579(6) 0.3010(7)
O2 O 0.6348(7) 0.4197(6) 0.0666(5)
O3 O 0.6038(14) 0.4577(12) 0.4444(12)
loop_
_geom_bond_atom_site_label_1
_geom_bond_atom_site_label_2
_geom_bond_site_symmetry_1
_geom_bond_site_symmetry_2
Cd1 Cl1 1_555 1_555
Cd2 Cl1 1_555 1_555
Cd3 Cl4 1_555 1_555
Cl2 Cd1 1_555 1_555
Cl3 Cd1 1_555 1_555
Cl4 Cd2 1_555 1_555
N1 Cd1 1_555 1_555
N2 Cd2 1_555 1_555
N3 H1 1_555 1_555
N4 Cd1 1_555 1_555
N5 N4 1_555 1_555
N6 H2 1_555 1_555
C1 N2 1_555 1_555
C2 C1 1_555 1_555
H3 C2 1_555 1_555
H4 C2 1_555 1_555
H5 C2 1_555 1_555
C3 N1 1_555 1_555
C4 C3 1_555 1_555
H6 C4 1_555 1_555
H7 C4 1_555 1_555
H8 C4 1_555 1_555
C5 N5 1_555 1_555
C6 C5 1_555 1_555
H9 C6 1_555 1_555
H10 C6 1_555 1_555
H11 C6 1_555 1_555
C7 N4 1_555 1_555
C8 C7 1_555 1_555
H12 C8 1_555 1_555
H13 C8 1_555 1_555
H14 C8 1_555 1_555
Cl1A Cd2 1_555 1_555
Cl4A Cd1 1_555 1_555
N1A N2A 1_555 1_555
N2A Cd2 1_555 1_555
N3A H1A 1_555 1_555
C1A N2A 1_555 1_555
C2A C1A 1_555 1_555
H3A C2A 1_555 1_555
H4A C2A 1_555 1_555
H5A C2A 1_555 1_555
C3A N1A 1_555 1_555
C4A C3A 1_555 1_555
H6A C4A 1_555 1_555
H7A C4A 1_555 1_555
H8A C4A 1_555 1_555
Cd1A Cl4 1_555 1_555
Cl2_2 Cd3 1_555 1_555
N4_2 N5_2 1_555 1_555
N5_2 Cd3 1_555 1_555
N6_2 H2_2 1_555 1_555
C5_2 N5_2 1_555 1_555
C6_2 C5_2 1_555 1_555
H9_2 C6_2 1_555 1_555
H10_2 C6_2 1_555 1_555
H11_2 C6_2 1_555 1_555
C7_2 N4_2 1_555 1_555
C8_2 C7_2 1_555 1_555
H12_2 C8_2 1_555 1_555
H13_2 C8_2 1_555 1_555
H14_2 C8_2 1_555 1_555
Cl3A Cd1A 1_555 1_555
Cl2A Cd3 1_555 1_555
Cl4A_2 Cd3 1_555 1_555
N5A Cd3 1_555 1_555
Cd3_2 Cl2 1_555 1_555
N4A Cd1A 1_555 1_555
Cd1_2 Cl2_2 1_555 1_555
Cd2 Cl4A 1_555 1_555
N1 N2 1_555 1_555
N3 C1 1_555 1_555
N3 C3 1_555 1_555
N5 Cd3_2 1_555 1_555
N6 C5 1_555 1_555
N6 C7 1_555 1_555
Cl1A Cd1A 1_555 1_555
Cl4A Cd3_2 1_555 1_555
N1A Cd1A 1_555 1_555
N3A C1A 1_555 1_555
N3A C3A 1_555 1_555
Cd1A Cl2A 1_555 1_555
N4_2 Cd1_2 1_555 1_555
N6_2 C5_2 1_555 1_555
N6_2 C7_2 1_555 1_555
Cl4A_2 Cd1_2 1_555 1_555
N5A N4A 1_555 1_555

#END
