
#######################################################################
#
#                 Cambridge Crystallographic Data Centre
#                                CCDC 
#
#######################################################################
#
# If this CIF has been generated from an entry in the Cambridge 
# Structural Database, then it will include bibliographic, chemical, 
# crystal, experimental, refinement or atomic coordinate data resulting 
# from the CCDC's data processing and validation procedures.
#
#######################################################################

data_EQUHAZ
_symmetry_cell_setting           triclinic
_symmetry_space_group_name_H-M   'P -1'
_symmetry_Int_Tables_number      2
_space_group_name_Hall           '-P 1'
loop_
_symmetry_equiv_pos_site_id
_symmetry_equiv_pos_as_xyz
1 x,y,z
2 -x,-y,-z
_cell_length_a                   8.657(7)
_cell_length_b                   11.312(10)
_cell_length_c                   13.068(11)
_cell_angle_alpha                73.947(14)
_cell_angle_beta                 86.495(14)
_cell_angle_gamma                77.629(10)
_cell_volume                     1201.26
loop_
_atom_site_label
_atom_site_type_symbol
_atom_site_fract_x
_atom_site_fract_y
_atom_site_fract_z
Cd1 Cd -0.03032(7) 0.57558(7) 0.76889(5)
Cd2 Cd 0.0000 0.5000 0.5000
Cl1 Cl -0.2193(2) 0.6005(2) 0.61054(17)
N1 N 0.1237(8) 0.5612(8) 0.9090(6)
N2 N -0.1589(9) 0.7825(9) 0.7749(7)
N3 N 0.1522(7) 0.6514(6) 0.6374(5)
N4 N 0.1682(8) 0.6238(6) 0.5386(5)
N5 N 0.3313(8) 0.7437(7) 0.5428(6)
N6 N 0.4400(8) 0.8247(7) 0.5118(7)
H1 H 0.4783 0.8390 0.4483
H2 H 0.4677 0.8596 0.5565
N7 N 0.1006(7) 0.3715(6) 0.7486(5)
N8 N 0.0876(7) 0.3342(7) 0.6591(6)
N9 N 0.1818(8) 0.1657(8) 0.7805(6)
N10 N 0.2241(9) 0.0363(7) 0.8328(7)
H3 H 0.2224 -0.0185 0.7988
H4 H 0.2516 0.0123 0.8987
S1 S 0.2371(3) 0.5537(3) 1.1046(2)
S2 S -0.3734(4) 0.9961(3) 0.7682(3)
C1 C 0.1660(9) 0.5596(8) 0.9875(8)
C2 C -0.2502(12) 0.8683(11) 0.7717(9)
C3 C 0.2733(10) 0.6804(8) 0.4855(7)
C4 C 0.3238(9) 0.6803(8) 0.3714(6)
H5 H 0.2527 0.6420 0.3427
H6 H 0.3127 0.7667 0.3285
C5 C 0.4904(10) 0.6120(11) 0.3613(8)
H7 H 0.5134 0.6157 0.2878
H8 H 0.5021 0.5258 0.4020
H9 H 0.5621 0.6507 0.3875
C6 C 0.2534(10) 0.7207(9) 0.6398(7)
C7 C 0.2872(9) 0.7686(8) 0.7270(8)
H10 H 0.1957 0.7733 0.7736
H11 H 0.3064 0.8529 0.6983
C8 C 0.4332(9) 0.6837(10) 0.7926(8)
H12 H 0.4521 0.7182 0.8489
H13 H 0.5243 0.6798 0.7469
H14 H 0.4136 0.6006 0.8224
C9 C 0.1371(9) 0.2155(9) 0.6790(7)
C10 C 0.1489(11) 0.1356(9) 0.6030(7)
H15 H 0.2530 0.0813 0.6083
H16 H 0.1352 0.1891 0.5306
C11 C 0.0238(11) 0.0559(11) 0.6279(10)
H17 H 0.0337 0.0051 0.5790
H18 H -0.0793 0.1097 0.6211
H19 H 0.0378 0.0026 0.6994
C12 C 0.1581(10) 0.2639(9) 0.8254(7)
C13 C 0.1981(11) 0.2550(10) 0.9366(7)
H20 H 0.1733 0.1786 0.9838
H21 H 0.1346 0.3258 0.9581
C14 C 0.3701(12) 0.2541(12) 0.9465(8)
H22 H 0.3934 0.2468 1.0192
H23 H 0.3940 0.3309 0.9016
H24 H 0.4331 0.1841 0.9252
Cl1A Cl 0.2193(2) 0.3995(2) 0.38946(17)
N3A N -0.1522(7) 0.3486(6) 0.3626(5)
N4A N -0.1682(8) 0.3762(6) 0.4614(5)
N5A N -0.3313(8) 0.2563(7) 0.4572(6)
N6A N -0.4400(8) 0.1753(7) 0.4882(7)
H1A H -0.4783 0.1610 0.5517
H2A H -0.4677 0.1404 0.4435
C3A C -0.2733(10) 0.3196(8) 0.5145(7)
C4A C -0.3238(9) 0.3197(8) 0.6286(6)
H5A H -0.2527 0.3580 0.6573
H6A H -0.3127 0.2333 0.6715
C5A C -0.4904(10) 0.3880(11) 0.6387(8)
H7A H -0.5134 0.3843 0.7122
H8A H -0.5021 0.4742 0.5980
H9A H -0.5621 0.3493 0.6125
C6A C -0.2534(10) 0.2793(9) 0.3602(7)
C7A C -0.2872(9) 0.2314(8) 0.2730(8)
H10A H -0.1957 0.2267 0.2264
H11A H -0.3064 0.1471 0.3017
C8A C -0.4332(9) 0.3163(10) 0.2074(8)
H12A H -0.4521 0.2818 0.1511
H13A H -0.5243 0.3202 0.2531
H14A H -0.4136 0.3994 0.1776
N7A N -0.1006(7) 0.6285(6) 0.2514(5)
N8A N -0.0876(7) 0.6658(7) 0.3409(6)
N9A N -0.1818(8) 0.8343(8) 0.2195(6)
N10A N -0.2241(9) 0.9637(7) 0.1672(7)
H3A H -0.2224 1.0185 0.2012
H4A H -0.2516 0.9877 0.1013
C9A C -0.1371(9) 0.7845(9) 0.3210(7)
C10A C -0.1489(11) 0.8644(9) 0.3970(7)
H15A H -0.2530 0.9187 0.3917
H16A H -0.1352 0.8109 0.4694
C11A C -0.0238(11) 0.9441(11) 0.3721(10)
H17A H -0.0337 0.9949 0.4210
H18A H 0.0793 0.8903 0.3789
H19A H -0.0378 0.9974 0.3006
C12A C -0.1581(10) 0.7361(9) 0.1746(7)
C13A C -0.1981(11) 0.7450(10) 0.0634(7)
H20A H -0.1733 0.8214 0.0162
H21A H -0.1346 0.6742 0.0419
C14A C -0.3701(12) 0.7459(12) 0.0535(8)
H22A H -0.3934 0.7532 -0.0192
H23A H -0.3940 0.6691 0.0984
H24A H -0.4331 0.8159 0.0748
Cd1A Cd 0.03032(7) 0.42442(7) 0.23111(5)
N1A N -0.1237(8) 0.4388(8) 1.0910(6)
S1A S -0.2371(3) 0.4463(3) 0.8954(2)
C1A C -0.1660(9) 0.4404(8) 1.0125(8)
N2A N 0.1589(9) 0.2175(9) 0.2251(7)
S2A S 0.3734(4) 0.0039(3) 0.2318(3)
C2A C 0.2502(12) 0.1317(11) 0.2283(9)
Cd1A_2 Cd 0.03032(7) 0.42442(7) 1.23111(5)
N1A_2 N -0.1237(8) 0.4388(8) 0.0910(6)
S1_2 S 0.2371(3) 0.5537(3) 0.1046(2)
O1 O 0.1535(12) 0.8841(10) 0.0715(9)
loop_
_geom_bond_atom_site_label_1
_geom_bond_atom_site_label_2
_geom_bond_site_symmetry_1
_geom_bond_site_symmetry_2
Cd1 Cl1 1_555 1_555
Cd2 Cl1 1_555 1_555
N1 Cd1 1_555 1_555
N2 Cd1 1_555 1_555
N3 Cd1 1_555 1_555
N4 Cd2 1_555 1_555
N5 N6 1_555 1_555
N6 H1 1_555 1_555
H2 N6 1_555 1_555
N7 Cd1 1_555 1_555
N8 Cd2 1_555 1_555
N9 N10 1_555 1_555
N10 H3 1_555 1_555
H4 N10 1_555 1_555
S1 C1 1_555 1_555
S2 C2 1_555 1_555
C1 N1 1_555 1_555
C2 N2 1_555 1_555
C3 N4 1_555 1_555
C4 C3 1_555 1_555
H5 C4 1_555 1_555
H6 C4 1_555 1_555
C5 C4 1_555 1_555
H7 C5 1_555 1_555
H8 C5 1_555 1_555
H9 C5 1_555 1_555
C6 N3 1_555 1_555
C7 C6 1_555 1_555
H10 C7 1_555 1_555
H11 C7 1_555 1_555
C8 C7 1_555 1_555
H12 C8 1_555 1_555
H13 C8 1_555 1_555
H14 C8 1_555 1_555
C9 N8 1_555 1_555
C10 C9 1_555 1_555
H15 C10 1_555 1_555
H16 C10 1_555 1_555
C11 C10 1_555 1_555
H17 C11 1_555 1_555
H18 C11 1_555 1_555
H19 C11 1_555 1_555
C12 N7 1_555 1_555
C13 C12 1_555 1_555
H20 C13 1_555 1_555
H21 C13 1_555 1_555
C14 C13 1_555 1_555
H22 C14 1_555 1_555
H23 C14 1_555 1_555
H24 C14 1_555 1_555
Cl1A Cd2 1_555 1_555
N3A N4A 1_555 1_555
N4A Cd2 1_555 1_555
N5A N6A 1_555 1_555
N6A H1A 1_555 1_555
H2A N6A 1_555 1_555
C3A N4A 1_555 1_555
C4A C3A 1_555 1_555
H5A C4A 1_555 1_555
H6A C4A 1_555 1_555
C5A C4A 1_555 1_555
H7A C5A 1_555 1_555
H8A C5A 1_555 1_555
H9A C5A 1_555 1_555
C6A N3A 1_555 1_555
C7A C6A 1_555 1_555
H10A C7A 1_555 1_555
H11A C7A 1_555 1_555
C8A C7A 1_555 1_555
H12A C8A 1_555 1_555
H13A C8A 1_555 1_555
H14A C8A 1_555 1_555
N7A N8A 1_555 1_555
N8A Cd2 1_555 1_555
N9A N10A 1_555 1_555
N10A H3A 1_555 1_555
H4A N10A 1_555 1_555
C9A N8A 1_555 1_555
C10A C9A 1_555 1_555
H15A C10A 1_555 1_555
H16A C10A 1_555 1_555
C11A C10A 1_555 1_555
H17A C11A 1_555 1_555
H18A C11A 1_555 1_555
H19A C11A 1_555 1_555
C12A N7A 1_555 1_555
C13A C12A 1_555 1_555
H20A C13A 1_555 1_555
H21A C13A 1_555 1_555
C14A C13A 1_555 1_555
H22A C14A 1_555 1_555
H23A C14A 1_555 1_555
H24A C14A 1_555 1_555
Cd1A Cl1A 1_555 1_555
N1A C1A 1_555 1_555
S1A Cd1 1_555 1_555
C1A S1A 1_555 1_555
N2A Cd1A 1_555 1_555
S2A C2A 1_555 1_555
C2A N2A 1_555 1_555
Cd1A_2 S1 1_555 1_555
N1A_2 Cd1A 1_555 1_555
S1_2 Cd1A 1_555 1_555
N3 N4 1_555 1_555
N5 C3 1_555 1_555
N5 C6 1_555 1_555
N7 N8 1_555 1_555
N9 C9 1_555 1_555
N9 C12 1_555 1_555
N3A Cd1A 1_555 1_555
N5A C3A 1_555 1_555
N5A C6A 1_555 1_555
N7A Cd1A 1_555 1_555
N9A C9A 1_555 1_555
N9A C12A 1_555 1_555
N1A Cd1A_2 1_555 1_555

#END
