
#######################################################################
#
#                 Cambridge Crystallographic Data Centre
#                                CCDC 
#
#######################################################################
#
# If this CIF has been generated from an entry in the Cambridge 
# Structural Database, then it will include bibliographic, chemical, 
# crystal, experimental, refinement or atomic coordinate data resulting 
# from the CCDC's data processing and validation procedures.
#
#######################################################################

data_EQUPAH
_symmetry_cell_setting           triclinic
_symmetry_space_group_name_H-M   'P -1'
_symmetry_Int_Tables_number      2
_space_group_name_Hall           '-P 1'
loop_
_symmetry_equiv_pos_site_id
_symmetry_equiv_pos_as_xyz
1 x,y,z
2 -x,-y,-z
_cell_length_a                   7.0857(10)
_cell_length_b                   10.333(2)
_cell_length_c                   11.285(2)
_cell_angle_alpha                71.599(7)
_cell_angle_beta                 83.047(7)
_cell_angle_gamma                83.238(8)
_cell_volume                     775.458
loop_
_atom_site_label
_atom_site_type_symbol
_atom_site_fract_x
_atom_site_fract_y
_atom_site_fract_z
Cu1 Cu 0.44587(4) 0.25130(3) 0.64775(2)
O1 O 0.2477(3) 0.33591(19) 0.80519(17)
O2 O 0.7628(2) 0.00253(16) 1.06675(14)
O3 O 0.6226(2) 0.39725(15) 0.63047(14)
N1 N 0.5757(3) 0.11207(19) 0.78297(18)
N2 N 0.8981(3) -0.07889(19) 0.90744(17)
N3 N 0.6633(2) 0.61476(18) 0.49263(16)
N4 N 0.7481(3) 0.8660(2) 0.3757(2)
C1 C 0.6499(3) -0.0190(2) 0.7605(2)
C2 C 0.7293(3) -0.1237(2) 0.8749(2)
C3 C 0.9009(3) -0.0203(2) 0.99590(19)
C4 C 0.5829(3) 0.5022(2) 0.53649(19)
C5 C 0.8185(3) 0.6536(2) 0.5448(2)
C6 C 0.9012(4) 0.7736(3) 0.4441(3)
H1 H 0.254(4) 0.414(3) 0.773(3)
H2 H 0.143(5) 0.328(3) 0.818(3)
H3 H 0.500(4) 0.095(3) 0.840(3)
H4 H 0.663(4) 0.144(3) 0.805(2)
H5 H 0.75170 -0.00110 0.69050
H6 H 0.54580 -0.05750 0.73490
H7 H 0.990(4) -0.087(3) 0.872(2)
H8 H 0.63050 -0.13790 0.94670
H9 H 0.76280 -0.21220 0.85770
H10 H 0.792(4) 0.915(3) 0.308(3)
H11 H 0.692(4) 0.916(3) 0.417(3)
H12 H 0.76990 0.68000 0.62070
H13 H 0.91730 0.57610 0.56810
H14 H 0.99230 0.73950 0.38470
H15 H 0.97170 0.82450 0.48300
C3A C 1.0991(3) 0.0203(2) 1.00410(19)
O2A O 1.2372(2) -0.00253(16) 0.93325(14)
N2A N 1.1019(3) 0.07889(19) 1.09256(17)
C2A C 1.2707(3) 0.1237(2) 1.1251(2)
C1A C 1.3501(3) 0.0190(2) 1.2395(2)
N1A N 1.4243(3) -0.11207(19) 1.21703(18)
H3A H 1.500(4) -0.095(3) 1.160(3)
H4A H 1.337(4) -0.144(3) 1.195(2)
H5A H 1.24830 0.00110 1.30950
H6A H 1.45420 0.05750 1.26510
H8A H 1.36950 0.13790 1.05330
H9A H 1.23720 0.21220 1.14230
H7A H 1.010(4) 0.087(3) 1.128(2)
C4A C 0.4171(3) 0.4978(2) 0.46351(19)
O3A O 0.3774(2) 0.60275(15) 0.36953(14)
N3A N 0.3367(2) 0.38524(18) 0.50737(16)
C5A C 0.1815(3) 0.3464(2) 0.4552(2)
C6A C 0.0988(4) 0.2264(3) 0.5559(3)
N4A N 0.2519(3) 0.1340(2) 0.6243(2)
H10A H 0.208(4) 0.085(3) 0.692(3)
H11A H 0.308(4) 0.084(3) 0.583(3)
H14A H 0.00770 0.26050 0.61530
H15A H 0.02830 0.17550 0.51700
H12A H 0.23010 0.32000 0.37930
H13A H 0.08270 0.42390 0.43190
Cu1A Cu 0.55413(4) 0.74870(3) 0.35225(2)
O1A O 0.7523(3) 0.66409(19) 0.19481(17)
H1A H 0.746(4) 0.586(3) 0.227(3)
H2A H 0.857(5) 0.672(3) 0.182(3)
Cu1A_2 Cu 1.55413(4) -0.25130(3) 1.35225(2)
N1A_2 N 0.4243(3) 0.88793(19) 0.21703(18)
H3A_2 H 0.500(4) 0.905(3) 0.160(3)
H4A_2 H 0.337(4) 0.856(3) 0.195(2)
Cl1 Cl 0.72336(8) 0.24361(5) 0.33013(5)
O4 O 0.6494(3) 0.15338(18) 0.44828(17)
O5 O 0.7735(2) 0.36601(17) 0.34748(17)
O6 O 0.5823(3) 0.2780(2) 0.2426(2)
O7 O 0.8900(3) 0.1739(2) 0.2851(2)
O8 O 0.1530(2) 0.69277(17) 0.17184(16)
C7 C 0.2346(5) 0.5065(3) 0.0797(3)
C8 C 0.2513(4) 0.6509(3) 0.0682(3)
H16 H 0.28950 0.48810 0.00200
H17 H 0.09970 0.48830 0.09460
H18 H 0.30330 0.44700 0.15000
H19 H 0.200(5) 0.661(3) 0.225(3)
H20 H 0.38810 0.66580 0.06220
H21 H 0.19930 0.70970 -0.01050
loop_
_geom_bond_atom_site_label_1
_geom_bond_atom_site_label_2
_geom_bond_site_symmetry_1
_geom_bond_site_symmetry_2
Cu1 O1 1_555 1_555
Cl1 O4 1_555 1_555
O1 H1 1_555 1_555
O2 C3 1_555 1_555
O3 Cu1 1_555 1_555
O5 Cl1 1_555 1_555
O6 Cl1 1_555 1_555
O7 Cl1 1_555 1_555
N1 Cu1 1_555 1_555
N2 C2 1_555 1_555
N3 C4 1_555 1_555
N4 C6 1_555 1_555
C1 N1 1_555 1_555
C2 C1 1_555 1_555
C3 N2 1_555 1_555
C4 O3 1_555 1_555
C5 N3 1_555 1_555
C6 C5 1_555 1_555
O8 C8 1_555 1_555
C7 C8 1_555 1_555
C8 H20 1_555 1_555
H2 O1 1_555 1_555
H3 N1 1_555 1_555
H4 N1 1_555 1_555
H5 C1 1_555 1_555
H6 C1 1_555 1_555
H7 N2 1_555 1_555
H8 C2 1_555 1_555
H9 C2 1_555 1_555
H10 N4 1_555 1_555
H11 N4 1_555 1_555
H12 C5 1_555 1_555
H13 C5 1_555 1_555
H14 C6 1_555 1_555
H15 C6 1_555 1_555
H16 C7 1_555 1_555
H17 C7 1_555 1_555
H18 C7 1_555 1_555
H19 O8 1_555 1_555
H21 C8 1_555 1_555
C3A C3 1_555 1_555
O2A C3A 1_555 1_555
N2A C3A 1_555 1_555
C2A N2A 1_555 1_555
C1A C2A 1_555 1_555
N1A C1A 1_555 1_555
H3A N1A 1_555 1_555
H4A N1A 1_555 1_555
H5A C1A 1_555 1_555
H6A C1A 1_555 1_555
H8A C2A 1_555 1_555
H9A C2A 1_555 1_555
H7A N2A 1_555 1_555
C4A C4 1_555 1_555
O3A C4A 1_555 1_555
N3A Cu1 1_555 1_555
C5A N3A 1_555 1_555
C6A C5A 1_555 1_555
N4A Cu1 1_555 1_555
H10A N4A 1_555 1_555
H11A N4A 1_555 1_555
H14A C6A 1_555 1_555
H15A C6A 1_555 1_555
H12A C5A 1_555 1_555
H13A C5A 1_555 1_555
Cu1A N3 1_555 1_555
O1A Cu1A 1_555 1_555
H1A O1A 1_555 1_555
H2A O1A 1_555 1_555
Cu1A_2 N1A 1_555 1_555
N1A_2 Cu1A 1_555 1_555
H3A_2 N1A_2 1_555 1_555
H4A_2 N1A_2 1_555 1_555
N4 Cu1A 1_555 1_555
C4A N3A 1_555 1_555
O3A Cu1A 1_555 1_555
C6A N4A 1_555 1_555

#END
