
#######################################################################
#
#                 Cambridge Crystallographic Data Centre
#                                CCDC 
#
#######################################################################
#
# If this CIF has been generated from an entry in the Cambridge 
# Structural Database, then it will include bibliographic, chemical, 
# crystal, experimental, refinement or atomic coordinate data resulting 
# from the CCDC's data processing and validation procedures.
#
#######################################################################

data_EQUWIW
_symmetry_cell_setting           monoclinic
_symmetry_space_group_name_H-M   'P 21/c'
_symmetry_Int_Tables_number      14
_space_group_name_Hall           '-P 2ybc'
loop_
_symmetry_equiv_pos_site_id
_symmetry_equiv_pos_as_xyz
1 x,y,z
2 x,1/2-y,1/2+z
3 -x,-y,-z
4 -x,1/2+y,1/2-z
_cell_length_a                   4.6435(6)
_cell_length_b                   13.4512(16)
_cell_length_c                   6.4767(8)
_cell_angle_alpha                90.00
_cell_angle_beta                 100.258(2)
_cell_angle_gamma                90.00
_cell_volume                     398.073
loop_
_atom_site_label
_atom_site_type_symbol
_atom_site_fract_x
_atom_site_fract_y
_atom_site_fract_z
Sn1 Sn 0.10089(6) 0.65445(2) 0.52528(5)
P1 P 0.6701(2) 0.64371(8) 0.9008(2)
O1 O 0.3843(6) 0.6997(2) 0.8101(5)
O2 O 0.8063(7) 0.5982(2) 0.7236(5)
O3 O 0.8763(6) 0.7113(2) 1.0495(5)
C1 C 0.5862(10) 0.5416(3) 1.0621(8)
H1 H 0.4747 0.5669 1.1640
H2 H 0.7679 0.5146 1.1388
C1B C 0.4138(10) 0.4584(3) 0.9379(8)
P1B P 0.3299(2) 0.35629(8) 1.0992(2)
O1B O 0.6157(6) 0.3003(2) 1.1899(5)
O2B O 0.1937(7) 0.4018(2) 1.2764(5)
O3B O 0.1237(6) 0.2887(2) 0.9505(5)
H1B H 0.5253 0.4331 0.8360
H2B H 0.2321 0.4854 0.8612
Sn1B Sn 0.89911(6) 0.34555(2) 1.47472(5)
O2_2 O -0.1937(7) 0.5982(2) 0.7236(5)
O3A O -0.1237(6) 0.7887(2) 0.5495(5)
Sn1_2 Sn 1.10089(6) 0.65445(2) 0.52528(5)
Sn1A Sn 1.10089(6) 0.84555(2) 1.02528(5)
Sn1B_2 Sn -0.10089(6) 0.34555(2) 1.47472(5)
Sn1C Sn -0.10089(6) 0.15445(2) 0.97472(5)
O2B_2 O 1.1937(7) 0.4018(2) 1.2764(5)
O3C O 1.1237(6) 0.2113(2) 1.4505(5)
loop_
_geom_bond_atom_site_label_1
_geom_bond_atom_site_label_2
_geom_bond_site_symmetry_1
_geom_bond_site_symmetry_2
Sn1 O1 1_555 1_555
P1 O1 1_555 1_555
O2 P1 1_555 1_555
O3 P1 1_555 1_555
C1 P1 1_555 1_555
H1 C1 1_555 1_555
H2 C1 1_555 1_555
C1B C1 1_555 1_555
P1B C1B 1_555 1_555
O1B P1B 1_555 1_555
O2B P1B 1_555 1_555
O3B P1B 1_555 1_555
H1B C1B 1_555 1_555
H2B C1B 1_555 1_555
Sn1B O1B 1_555 1_555
O2_2 Sn1 1_555 1_555
O3A Sn1 1_555 1_555
Sn1_2 O2 1_555 1_555
Sn1A O3 1_555 1_555
Sn1B_2 O2B 1_555 1_555
Sn1C O3B 1_555 1_555
O2B_2 Sn1B 1_555 1_555
O3C Sn1B 1_555 1_555

#END
