
#######################################################################
#
#                 Cambridge Crystallographic Data Centre
#                                CCDC 
#
#######################################################################
#
# If this CIF has been generated from an entry in the Cambridge 
# Structural Database, then it will include bibliographic, chemical, 
# crystal, experimental, refinement or atomic coordinate data resulting 
# from the CCDC's data processing and validation procedures.
#
#######################################################################

data_EQUWUJ
_symmetry_cell_setting           monoclinic
_symmetry_space_group_name_H-M   'P 21/c'
_symmetry_Int_Tables_number      14
_space_group_name_Hall           '-P 2ybc'
loop_
_symmetry_equiv_pos_site_id
_symmetry_equiv_pos_as_xyz
1 x,y,z
2 -x,1/2+y,1/2-z
3 -x,-y,-z
4 x,1/2-y,1/2+z
_cell_length_a                   13.6585(13)
_cell_length_b                   13.7182(13)
_cell_length_c                   10.654(1)
_cell_angle_alpha                90
_cell_angle_beta                 91.114(2)
_cell_angle_gamma                90
_cell_volume                     1995.86
loop_
_atom_site_label
_atom_site_type_symbol
_atom_site_fract_x
_atom_site_fract_y
_atom_site_fract_z
Fe1 Fe 1.09948(3) 0.31113(3) 0.27826(4)
Hg1 Hg 0.5000 0.0000 0.5000
C1 C 1.0220(2) 0.18739(19) 0.2379(3)
C2 C 1.1024(2) 0.1974(2) 0.1551(3)
H1 H 1.0978 0.2023 0.0634
C3 C 1.1899(2) 0.1988(2) 0.2286(3)
H2 H 1.2564 0.2054 0.1966
C4 C 1.1648(2) 0.1896(2) 0.3560(3)
H3 H 1.2110 0.1894 0.4275
C5 C 1.0612(2) 0.1827(2) 0.3633(3)
H4 H 1.0235 0.1761 0.4401
C6 C 1.0128(2) 0.43245(19) 0.2610(3)
C7 C 1.0920(2) 0.4382(2) 0.1762(3)
H5 H 1.0862 0.4431 0.0846
C8 C 1.1807(2) 0.4343(2) 0.2473(3)
H6 H 1.2469 0.4362 0.2133
C9 C 1.1573(2) 0.4267(2) 0.3757(3)
H7 H 1.2044 0.4227 0.4461
C10 C 1.0539(2) 0.42514(19) 0.3848(3)
H8 H 1.0170 0.4204 0.4625
C11 C 0.9171(2) 0.1854(2) 0.1987(3)
C12 C 0.7499(2) 0.1819(2) 0.2834(3)
C13 C 0.6988(2) 0.1321(2) 0.3745(3)
H9 H 0.7342 0.0989 0.4366
C14 C 0.5514(2) 0.1782(2) 0.2886(3)
H10 H 0.4833 0.1786 0.2911
C15 C 0.5961(2) 0.2283(2) 0.1932(3)
H11 H 0.5589 0.2601 0.1318
C16 C 0.6973(2) 0.2305(2) 0.1905(3)
H12 H 0.7294 0.2639 0.1274
C17 C 0.9079(2) 0.43413(19) 0.2218(3)
C18 C 0.7417(2) 0.4421(2) 0.3148(3)
C19 C 0.6887(2) 0.4748(2) 0.2104(3)
H13 H 0.7224 0.4964 0.1407
C20 C 0.5425(2) 0.4490(3) 0.3086(3)
H14 H 0.4744 0.4498 0.3058
C21 C 0.5899(2) 0.4197(3) 0.4171(3)
H15 H 0.5543 0.4025 0.4873
C22 C 0.6906(2) 0.4159(2) 0.4210(3)
H16 H 0.7239 0.3961 0.4935
Cl1 Cl 0.38369(6) 0.12955(6) 0.55296(8)
N1 N 0.85289(17) 0.18398(19) 0.2939(2)
H17 H 0.8776 0.1844 0.3688
N2 N 0.60104(19) 0.12941(19) 0.3773(3)
N3 N 0.84437(17) 0.43644(18) 0.3199(2)
H18 H 0.8707 0.4341 0.3938
N4 N 0.59108(19) 0.4763(2) 0.2072(3)
O1 O 0.89141(15) 0.18478(18) 0.08744(19)
O2 O 0.88084(16) 0.43496(18) 0.11250(19)
Fe1A Fe -0.09948(3) -0.18887(3) 0.22174(4)
Hg1A Hg 0.5000 0.5000 0.0000
Hg1A_2 Hg 0.5000 -0.5000 0.0000
C1A C -0.0220(2) -0.31261(19) 0.2621(3)
C2A C -0.1024(2) -0.3026(2) 0.3449(3)
H1A H -0.0978 -0.2977 0.4366
C3A C -0.1899(2) -0.3012(2) 0.2714(3)
H2A H -0.2564 -0.2946 0.3034
C4A C -0.1648(2) -0.3104(2) 0.1440(3)
H3A H -0.2110 -0.3106 0.0725
C5A C -0.0612(2) -0.3173(2) 0.1367(3)
H4A H -0.0235 -0.3239 0.0599
C6A C -0.0128(2) -0.06755(19) 0.2390(3)
C7A C -0.0920(2) -0.0618(2) 0.3238(3)
H5A H -0.0862 -0.0569 0.4154
C8A C -0.1807(2) -0.0657(2) 0.2527(3)
H6A H -0.2469 -0.0638 0.2867
C9A C -0.1573(2) -0.0733(2) 0.1243(3)
H7A H -0.2044 -0.0773 0.0539
C10A C -0.0539(2) -0.07486(19) 0.1152(3)
H8A H -0.0170 -0.0796 0.0375
C11A C 0.0829(2) -0.3146(2) 0.3013(3)
C12A C 0.2501(2) -0.3181(2) 0.2166(3)
C13A C 0.3012(2) -0.3679(2) 0.1255(3)
H9A H 0.2658 -0.4011 0.0634
C14A C 0.4486(2) -0.3218(2) 0.2114(3)
H10A H 0.5167 -0.3214 0.2089
C15A C 0.4039(2) -0.2717(2) 0.3068(3)
H11A H 0.4411 -0.2399 0.3682
C16A C 0.3027(2) -0.2695(2) 0.3095(3)
H12A H 0.2706 -0.2361 0.3726
C17A C 0.0921(2) -0.06587(19) 0.2782(3)
C18A C 0.2583(2) -0.0579(2) 0.1852(3)
C19A C 0.3113(2) -0.0252(2) 0.2896(3)
H13A H 0.2776 -0.0036 0.3593
C20A C 0.4575(2) -0.0510(3) 0.1914(3)
H14A H 0.5256 -0.0502 0.1942
C21A C 0.4101(2) -0.0803(3) 0.0829(3)
H15A H 0.4457 -0.0975 0.0127
C22A C 0.3094(2) -0.0841(2) 0.0790(3)
H16A H 0.2761 -0.1039 0.0065
Cl1B Cl 0.61631(6) -0.12955(6) 0.44704(8)
N1A N 0.14711(17) -0.31602(19) 0.2061(2)
H17A H 0.1224 -0.3156 0.1312
N2A N 0.39896(19) -0.37059(19) 0.1227(3)
N2B N 0.39896(19) -0.12941(19) 0.6227(3)
N3A N 0.15563(17) -0.06356(18) 0.1801(2)
H18A H 0.1293 -0.0659 0.1062
N4A N 0.40892(19) -0.0237(2) 0.2928(3)
N4C N 0.59108(19) 0.0237(2) 0.7072(3)
O1A O 0.10859(15) -0.31522(18) 0.41256(19)
O2A O 0.11916(16) -0.06504(18) 0.38750(19)
loop_
_geom_bond_atom_site_label_1
_geom_bond_atom_site_label_2
_geom_bond_site_symmetry_1
_geom_bond_site_symmetry_2
Fe1 C1 1_555 1_555
Hg1 Cl1 1_555 1_555
C1 C2 1_555 1_555
C2 Fe1 1_555 1_555
H1 C2 1_555 1_555
C3 Fe1 1_555 1_555
H2 C3 1_555 1_555
C4 Fe1 1_555 1_555
H3 C4 1_555 1_555
C5 Fe1 1_555 1_555
H4 C5 1_555 1_555
C6 Fe1 1_555 1_555
C7 Fe1 1_555 1_555
H5 C7 1_555 1_555
C8 Fe1 1_555 1_555
H6 C8 1_555 1_555
C9 Fe1 1_555 1_555
H7 C9 1_555 1_555
C10 Fe1 1_555 1_555
H8 C10 1_555 1_555
C11 C1 1_555 1_555
C12 C13 1_555 1_555
C13 H9 1_555 1_555
C14 H10 1_555 1_555
C15 C14 1_555 1_555
H11 C15 1_555 1_555
C16 C12 1_555 1_555
H12 C16 1_555 1_555
C17 C6 1_555 1_555
C18 C19 1_555 1_555
C19 H13 1_555 1_555
C20 H14 1_555 1_555
C21 C20 1_555 1_555
H15 C21 1_555 1_555
C22 C18 1_555 1_555
H16 C22 1_555 1_555
N1 C11 1_555 1_555
H17 N1 1_555 1_555
N2 Hg1 1_555 1_555
N3 C17 1_555 1_555
H18 N3 1_555 1_555
N4 C19 1_555 1_555
O1 C11 1_555 1_555
O2 C17 1_555 1_555
Fe1A C1A 1_555 1_555
Hg1A N4 1_555 1_555
Hg1A_2 N2A 1_555 1_555
C1A C2A 1_555 1_555
C2A Fe1A 1_555 1_555
H1A C2A 1_555 1_555
C3A Fe1A 1_555 1_555
H2A C3A 1_555 1_555
C4A Fe1A 1_555 1_555
H3A C4A 1_555 1_555
C5A Fe1A 1_555 1_555
H4A C5A 1_555 1_555
C6A Fe1A 1_555 1_555
C7A Fe1A 1_555 1_555
H5A C7A 1_555 1_555
C8A Fe1A 1_555 1_555
H6A C8A 1_555 1_555
C9A Fe1A 1_555 1_555
H7A C9A 1_555 1_555
C10A Fe1A 1_555 1_555
H8A C10A 1_555 1_555
C11A C1A 1_555 1_555
C12A C13A 1_555 1_555
C13A H9A 1_555 1_555
C14A H10A 1_555 1_555
C15A C14A 1_555 1_555
H11A C15A 1_555 1_555
C16A C12A 1_555 1_555
H12A C16A 1_555 1_555
C17A C6A 1_555 1_555
C18A C19A 1_555 1_555
C19A H13A 1_555 1_555
C20A H14A 1_555 1_555
C21A C20A 1_555 1_555
H15A C21A 1_555 1_555
C22A C18A 1_555 1_555
H16A C22A 1_555 1_555
Cl1B Hg1 1_555 1_555
N1A C11A 1_555 1_555
H17A N1A 1_555 1_555
N2A C13A 1_555 1_555
N2B Hg1 1_555 1_555
N3A C17A 1_555 1_555
H18A N3A 1_555 1_555
N4A Hg1 1_555 1_555
N4C Hg1 1_555 1_555
O1A C11A 1_555 1_555
O2A C17A 1_555 1_555
C1 C5 1_555 1_555
C2 C3 1_555 1_555
C3 C4 1_555 1_555
C4 C5 1_555 1_555
C6 C7 1_555 1_555
C6 C10 1_555 1_555
C7 C8 1_555 1_555
C8 C9 1_555 1_555
C9 C10 1_555 1_555
C12 N1 1_555 1_555
C13 N2 1_555 1_555
C14 N2 1_555 1_555
C15 C16 1_555 1_555
C18 N3 1_555 1_555
C20 N4 1_555 1_555
C21 C22 1_555 1_555
C1A C5A 1_555 1_555
C2A C3A 1_555 1_555
C3A C4A 1_555 1_555
C4A C5A 1_555 1_555
C6A C7A 1_555 1_555
C6A C10A 1_555 1_555
C7A C8A 1_555 1_555
C8A C9A 1_555 1_555
C9A C10A 1_555 1_555
C12A N1A 1_555 1_555
C14A N2A 1_555 1_555
C15A C16A 1_555 1_555
C18A N3A 1_555 1_555
C19A N4A 1_555 1_555
C20A N4A 1_555 1_555
C21A C22A 1_555 1_555

#END
