
#######################################################################
#
#                 Cambridge Crystallographic Data Centre
#                                CCDC 
#
#######################################################################
#
# If this CIF has been generated from an entry in the Cambridge 
# Structural Database, then it will include bibliographic, chemical, 
# crystal, experimental, refinement or atomic coordinate data resulting 
# from the CCDC's data processing and validation procedures.
#
#######################################################################

data_EQUWIX
_symmetry_cell_setting           monoclinic
_symmetry_space_group_name_H-M   'P 21/c'
_symmetry_Int_Tables_number      14
_space_group_name_Hall           '-P 2ybc'
loop_
_symmetry_equiv_pos_site_id
_symmetry_equiv_pos_as_xyz
1 x,y,z
2 -x,1/2+y,1/2-z
3 -x,-y,-z
4 x,1/2-y,1/2+z
_cell_length_a                   14.0398(11)
_cell_length_b                   13.6443(11)
_cell_length_c                   10.5322(8)
_cell_angle_alpha                90
_cell_angle_beta                 90.818(1)
_cell_angle_gamma                90
_cell_volume                     2017.38
loop_
_atom_site_label
_atom_site_type_symbol
_atom_site_fract_x
_atom_site_fract_y
_atom_site_fract_z
C1 C 0.82659(18) 0.0849(2) 0.0977(2)
H1 H 0.7952 0.1013 0.0223
C2 C 0.77502(16) 0.05919(17) 0.2041(2)
Fe1 Fe 0.43035(2) 0.19214(2) 0.22517(3)
Zn1 Zn 1.0000 0.0000 0.5000
S1 S 1.15129(5) 0.30430(6) 0.49211(9)
O1 O 0.63267(12) 0.31995(14) 0.40905(16)
C3 C 0.47436(17) 0.31166(16) 0.1246(2)
H2 H 0.5132 0.3106 0.0480
C4 C 0.60873(17) 0.32104(16) 0.2969(2)
C5 C 0.42765(16) 0.31609(16) 0.3345(2)
H3 H 0.4291 0.3183 0.4275
N1 N 0.67323(14) 0.32822(16) 0.2011(2)
C6 C 0.50930(16) 0.31675(15) 0.2532(2)
C7 C 0.34487(17) 0.31181(16) 0.2563(2)
H4 H 0.2791 0.3099 0.2860
C8 C 0.51117(15) 0.06924(16) 0.2543(2)
C9 C 0.47296(16) 0.07169(16) 0.1275(2)
H5 H 0.5098 0.0716 0.0492
C10 C 0.96635(17) 0.33986(19) 0.2139(2)
H6 H 1.0326 0.3410 0.2136
C11 C 1.12345(17) 0.1893(2) 0.4750(2)
C12 C 0.43236(16) 0.06932(17) 0.3394(2)
H7 H 0.4366 0.0689 0.4323
N2 N 0.92080(14) 0.03548(15) 0.32105(19)
C13 C 0.37331(17) 0.30923(17) 0.1283(2)
H8 H 0.3304 0.3051 0.0542
N3 N 1.10174(14) 0.10777(17) 0.4630(2)
N4 N 0.91806(13) 0.39015(15) 0.12341(19)
C14 C 0.77253(16) 0.33192(18) 0.2139(2)
C15 C 0.37201(17) 0.07295(17) 0.1355(2)
H9 H 0.3271 0.0749 0.0635
C16 C 0.34735(17) 0.07262(18) 0.2655(2)
H10 H 0.2825 0.0746 0.2986
C17 C 0.82324(16) 0.38553(19) 0.1259(2)
H11 H 0.7890 0.4205 0.0647
C18 C 0.96915(17) 0.06386(19) 0.2189(2)
H12 H 1.0351 0.0690 0.2248
C19 C 0.82565(16) 0.03066(18) 0.3123(2)
H13 H 0.7921 0.0073 0.3815
C20 C 0.82315(17) 0.28245(18) 0.3085(2)
H14 H 0.7918 0.2474 0.3711
C21 C 0.92115(18) 0.28683(19) 0.3067(2)
H15 H 0.9569 0.2539 0.3683
C22 C 0.92429(18) 0.0858(2) 0.1048(2)
H16 H 0.9598 0.1010 0.0336
O2 O 0.63765(12) 0.06956(15) 0.40610(16)
N5 N 0.67545(14) 0.06171(16) 0.1973(2)
C23 C 0.61247(16) 0.06750(17) 0.2952(2)
H17 H 0.654(2) 0.337(2) 0.134(3)
H18 H 0.655(2) 0.071(2) 0.131(3)
C1B C 1.17341(18) -0.0849(2) 0.9023(2)
H1B H 1.2048 -0.1013 0.9777
C2B C 1.22498(16) -0.05919(17) 0.7959(2)
Fe1B Fe 1.56965(2) -0.19214(2) 0.77483(3)
Zn1A Zn 1.0000 0.5000 0.0000
Zn1A_2 Zn 1.0000 -0.5000 1.0000
S1B S 0.84871(5) -0.30430(6) 0.50789(9)
O1B O 1.36733(12) -0.31995(14) 0.59095(16)
C3B C 1.52564(17) -0.31166(16) 0.8754(2)
H2B H 1.4868 -0.3106 0.9520
C4B C 1.39127(17) -0.32104(16) 0.7031(2)
C5B C 1.57235(16) -0.31609(16) 0.6655(2)
H3B H 1.5709 -0.3183 0.5725
N1B N 1.32677(14) -0.32822(16) 0.7989(2)
C6B C 1.49070(16) -0.31675(15) 0.7468(2)
C7B C 1.65513(17) -0.31181(16) 0.7437(2)
H4B H 1.7209 -0.3099 0.7140
C8B C 1.48883(15) -0.06924(16) 0.7457(2)
C9B C 1.52704(16) -0.07169(16) 0.8725(2)
H5B H 1.4902 -0.0716 0.9508
C10B C 1.03365(17) -0.33986(19) 0.7861(2)
H6B H 0.9674 -0.3410 0.7864
C11B C 0.87655(17) -0.1893(2) 0.5250(2)
C12B C 1.56764(16) -0.06932(17) 0.6606(2)
H7B H 1.5634 -0.0689 0.5677
N2B N 1.07920(14) -0.03548(15) 0.67895(19)
C13B C 1.62669(17) -0.30923(17) 0.8717(2)
H8B H 1.6696 -0.3051 0.9458
N3B N 0.89826(14) -0.10777(17) 0.5370(2)
N4B N 1.08194(13) -0.39015(15) 0.87659(19)
N4A N 1.08194(13) -0.10985(15) 0.37659(19)
N4C N 0.91806(13) 0.10985(15) 0.62341(19)
C14B C 1.22747(16) -0.33192(18) 0.7861(2)
C15B C 1.62799(17) -0.07295(17) 0.8645(2)
H9B H 1.6729 -0.0749 0.9365
C16B C 1.65265(17) -0.07262(18) 0.7345(2)
H10B H 1.7175 -0.0746 0.7014
C17B C 1.17676(16) -0.38553(19) 0.8741(2)
H11B H 1.2110 -0.4205 0.9353
C18B C 1.03085(17) -0.06386(19) 0.7811(2)
H12B H 0.9649 -0.0690 0.7752
C19B C 1.17435(16) -0.03066(18) 0.6877(2)
H13B H 1.2079 -0.0073 0.6185
C20B C 1.17685(17) -0.28245(18) 0.6915(2)
H14B H 1.2082 -0.2474 0.6289
C21B C 1.07885(18) -0.28683(19) 0.6933(2)
H15B H 1.0431 -0.2539 0.6317
C22B C 1.07571(18) -0.0858(2) 0.8952(2)
H16B H 1.0402 -0.1010 0.9664
O2B O 1.36235(12) -0.06956(15) 0.59390(16)
N5B N 1.32455(14) -0.06171(16) 0.8027(2)
C23B C 1.38753(16) -0.06750(17) 0.7048(2)
H17B H 1.346(2) -0.337(2) 0.866(3)
H18B H 1.345(2) -0.071(2) 0.869(3)
loop_
_geom_bond_atom_site_label_1
_geom_bond_atom_site_label_2
_geom_bond_site_symmetry_1
_geom_bond_site_symmetry_2
C1 H1 1_555 1_555
C2 C1 1_555 1_555
Fe1 C3 1_555 1_555
Zn1 N2 1_555 1_555
S1 C11 1_555 1_555
O1 C4 1_555 1_555
C3 H2 1_555 1_555
C4 N1 1_555 1_555
C5 Fe1 1_555 1_555
H3 C5 1_555 1_555
N1 C14 1_555 1_555
C6 Fe1 1_555 1_555
C7 Fe1 1_555 1_555
H4 C7 1_555 1_555
C8 Fe1 1_555 1_555
C9 Fe1 1_555 1_555
H5 C9 1_555 1_555
C10 H6 1_555 1_555
C11 N3 1_555 1_555
C12 Fe1 1_555 1_555
H7 C12 1_555 1_555
N2 C18 1_555 1_555
C13 Fe1 1_555 1_555
H8 C13 1_555 1_555
N3 Zn1 1_555 1_555
N4 C10 1_555 1_555
C14 C17 1_555 1_555
C15 Fe1 1_555 1_555
H9 C15 1_555 1_555
C16 Fe1 1_555 1_555
H10 C16 1_555 1_555
C17 N4 1_555 1_555
H11 C17 1_555 1_555
C18 H12 1_555 1_555
C19 C2 1_555 1_555
H13 C19 1_555 1_555
C20 C14 1_555 1_555
H14 C20 1_555 1_555
C21 C10 1_555 1_555
H15 C21 1_555 1_555
C22 C1 1_555 1_555
H16 C22 1_555 1_555
O2 C23 1_555 1_555
N5 C2 1_555 1_555
C23 C8 1_555 1_555
H17 N1 1_555 1_555
H18 N5 1_555 1_555
C1B H1B 1_555 1_555
C2B C1B 1_555 1_555
Fe1B C3B 1_555 1_555
Zn1A N4 1_555 1_555
Zn1A_2 N4B 1_555 1_555
S1B C11B 1_555 1_555
O1B C4B 1_555 1_555
C3B H2B 1_555 1_555
C4B N1B 1_555 1_555
C5B Fe1B 1_555 1_555
H3B C5B 1_555 1_555
N1B C14B 1_555 1_555
C6B Fe1B 1_555 1_555
C7B Fe1B 1_555 1_555
H4B C7B 1_555 1_555
C8B Fe1B 1_555 1_555
C9B Fe1B 1_555 1_555
H5B C9B 1_555 1_555
C10B H6B 1_555 1_555
C11B N3B 1_555 1_555
C12B Fe1B 1_555 1_555
H7B C12B 1_555 1_555
N2B Zn1 1_555 1_555
C13B Fe1B 1_555 1_555
H8B C13B 1_555 1_555
N3B Zn1 1_555 1_555
N4B C10B 1_555 1_555
N4A Zn1 1_555 1_555
N4C Zn1 1_555 1_555
C14B C17B 1_555 1_555
C15B Fe1B 1_555 1_555
H9B C15B 1_555 1_555
C16B Fe1B 1_555 1_555
H10B C16B 1_555 1_555
C17B N4B 1_555 1_555
H11B C17B 1_555 1_555
C18B N2B 1_555 1_555
H12B C18B 1_555 1_555
C19B C2B 1_555 1_555
H13B C19B 1_555 1_555
C20B C14B 1_555 1_555
H14B C20B 1_555 1_555
C21B C10B 1_555 1_555
H15B C21B 1_555 1_555
C22B C1B 1_555 1_555
H16B C22B 1_555 1_555
O2B C23B 1_555 1_555
N5B C2B 1_555 1_555
C23B C8B 1_555 1_555
H17B N1B 1_555 1_555
H18B N5B 1_555 1_555
C3 C6 1_555 1_555
C3 C13 1_555 1_555
C4 C6 1_555 1_555
C5 C6 1_555 1_555
C5 C7 1_555 1_555
C7 C13 1_555 1_555
C8 C9 1_555 1_555
C8 C12 1_555 1_555
C9 C15 1_555 1_555
C12 C16 1_555 1_555
N2 C19 1_555 1_555
C15 C16 1_555 1_555
C18 C22 1_555 1_555
C20 C21 1_555 1_555
N5 C23 1_555 1_555
C3B C6B 1_555 1_555
C3B C13B 1_555 1_555
C4B C6B 1_555 1_555
C5B C6B 1_555 1_555
C5B C7B 1_555 1_555
C7B C13B 1_555 1_555
C8B C9B 1_555 1_555
C8B C12B 1_555 1_555
C9B C15B 1_555 1_555
C12B C16B 1_555 1_555
N2B C19B 1_555 1_555
C15B C16B 1_555 1_555
C18B C22B 1_555 1_555
C20B C21B 1_555 1_555
N5B C23B 1_555 1_555

#END
