
#######################################################################
#
#                 Cambridge Crystallographic Data Centre
#                                CCDC 
#
#######################################################################
#
# If this CIF has been generated from an entry in the Cambridge 
# Structural Database, then it will include bibliographic, chemical, 
# crystal, experimental, refinement or atomic coordinate data resulting 
# from the CCDC's data processing and validation procedures.
#
#######################################################################

data_EQUWOC
_symmetry_cell_setting           monoclinic
_symmetry_space_group_name_H-M   'P 21/n'
_symmetry_Int_Tables_number      14
_space_group_name_Hall           '-P 2yn'
loop_
_symmetry_equiv_pos_site_id
_symmetry_equiv_pos_as_xyz
1 x,y,z
2 1/2+x,1/2-y,1/2+z
3 -x,-y,-z
4 1/2-x,1/2+y,1/2-z
_cell_length_a                   5.490(2)
_cell_length_b                   4.890(2)
_cell_length_c                   21.884(9)
_cell_angle_alpha                90.00
_cell_angle_beta                 90.505(7)
_cell_angle_gamma                90.00
_cell_volume                     587.477
loop_
_atom_site_label
_atom_site_type_symbol
_atom_site_fract_x
_atom_site_fract_y
_atom_site_fract_z
Sn1 Sn 0.81532(8) 0.21899(8) 0.932687(19)
P1 P 0.4054(3) -0.3090(3) 0.92654(7)
O1 O 0.6469(7) -0.1641(8) 0.93849(19)
O2 O 0.4522(7) -0.6166(8) 0.92597(18)
O3 O 0.1995(8) -0.2334(8) 0.96991(19)
C1 C 0.2997(13) -0.2097(14) 0.8510(3)
H1 H 0.173(12) -0.310(12) 0.849(3)
H2 H 0.270(13) -0.005(16) 0.851(3)
C2 C 0.4922(15) -0.2690(14) 0.8047(3)
O4 O 0.6655(10) -0.1186(13) 0.7969(2)
O5 O 0.4655(9) -0.5061(11) 0.7779(2)
O2_2 O 0.4522(7) 0.3834(8) 0.92597(18)
O3B O 0.8005(8) 0.2334(8) 1.03009(19)
Sn1_2 Sn 0.81532(8) -0.78101(8) 0.932687(19)
Sn1B Sn 0.18468(8) -0.21899(8) 1.067313(19)
loop_
_geom_bond_atom_site_label_1
_geom_bond_atom_site_label_2
_geom_bond_site_symmetry_1
_geom_bond_site_symmetry_2
Sn1 O1 1_555 1_555
P1 O1 1_555 1_555
O2 P1 1_555 1_555
O3 P1 1_555 1_555
C1 P1 1_555 1_555
H1 C1 1_555 1_555
H2 C1 1_555 1_555
C2 C1 1_555 1_555
O4 C2 1_555 1_555
O5 C2 1_555 1_555
O2_2 Sn1 1_555 1_555
O3B Sn1 1_555 1_555
Sn1_2 O2 1_555 1_555
Sn1B O3 1_555 1_555

#END
