
#######################################################################
#
#                 Cambridge Crystallographic Data Centre
#                                CCDC 
#
#######################################################################
#
# If this CIF has been generated from an entry in the Cambridge 
# Structural Database, then it will include bibliographic, chemical, 
# crystal, experimental, refinement or atomic coordinate data resulting 
# from the CCDC's data processing and validation procedures.
#
#######################################################################

data_EQUXIY
_symmetry_cell_setting           monoclinic
_symmetry_space_group_name_H-M   'P 21/c'
_symmetry_Int_Tables_number      14
_space_group_name_Hall           '-P 2ybc'
loop_
_symmetry_equiv_pos_site_id
_symmetry_equiv_pos_as_xyz
1 x,y,z
2 -x,1/2+y,1/2-z
3 -x,-y,-z
4 x,1/2-y,1/2+z
_cell_length_a                   14.6740(11)
_cell_length_b                   13.4989(10)
_cell_length_c                   10.4686(8)
_cell_angle_alpha                90
_cell_angle_beta                 91.278(2)
_cell_angle_gamma                90
_cell_volume                     2073.13
loop_
_atom_site_label
_atom_site_type_symbol
_atom_site_fract_x
_atom_site_fract_y
_atom_site_fract_z
C1 C 0.9823(3) 0.1840(4) 0.2705(5)
C2 C 1.0142(4) 0.1893(4) 0.1429(6)
H1 H 0.9787 0.1901 0.0682
C3 C 1.1105(4) 0.1931(4) 0.1525(6)
H2 H 1.1498 0.1962 0.0841
C4 C 1.1369(4) 0.1912(4) 0.2823(6)
H3 H 1.1965 0.1933 0.3145
C5 C 1.0571(4) 0.1857(4) 0.3557(5)
H4 H 1.0548 0.1837 0.4444
C6 C 0.9723(4) 0.4333(4) 0.2690(5)
C7 C 1.0113(4) 0.4330(4) 0.1452(6)
H5 H 0.9788 0.4325 0.0679
C8 C 1.1072(4) 0.4334(4) 0.1592(6)
H6 H 1.1484 0.4334 0.0930
C9 C 1.1300(4) 0.4337(4) 0.2916(6)
H7 H 1.1886 0.4339 0.3272
C10 C 1.0487(4) 0.4336(4) 0.3597(6)
H8 H 1.0445 0.4336 0.4482
C11 C 0.8849(4) 0.1805(4) 0.3088(5)
C12 C 0.7265(4) 0.1725(4) 0.2209(5)
C13 C 0.6768(4) 0.1196(5) 0.1314(6)
H9 H 0.7083 0.0851 0.0694
C14 C 0.5421(4) 0.1673(5) 0.2182(7)
H10 H 0.4787 0.1676 0.2164
C15 C 0.5866(4) 0.2199(5) 0.3120(6)
H11 H 0.5538 0.2533 0.3736
C16 C 0.6804(4) 0.2232(4) 0.3146(6)
H12 H 0.7120 0.2586 0.3777
C17 C 0.8765(4) 0.4333(4) 0.3058(6)
C18 C 0.5382(4) 0.4493(5) 0.2075(6)
H13 H 0.4748 0.4482 0.2083
C19 C 0.5799(4) 0.4254(6) 0.0975(6)
H14 H 0.5456 0.4108 0.0242
C20 C 0.6741(4) 0.4230(5) 0.0954(6)
H15 H 0.7042 0.4057 0.0214
C21 C 0.7222(4) 0.4468(5) 0.2056(6)
C22 C 0.6745(4) 0.4756(4) 0.3120(6)
H16 H 0.7069 0.4967 0.3844
Cd1 Cd 0.5000 0.0000 0.0000
Fe1 Fe 1.05372(5) 0.31089(6) 0.24511(7)
N1 N 0.8222(3) 0.1757(4) 0.2107(5)
H17 H 0.8432 0.1744 0.1347
N2 N 0.5852(3) 0.1151(4) 0.1285(5)
N3 N 0.5831(3) 0.4742(4) 0.3140(5)
N4 N 0.8174(3) 0.4428(4) 0.2032(5)
H18 H 0.8444 0.4233 0.1311
O1 O 0.8615(3) 0.1796(4) 0.4209(4)
O2 O 0.8518(3) 0.4275(4) 0.4155(4)
O3 O 0.6104(3) -0.1186(4) 0.0606(5)
H19 H 0.6546 -0.1024 0.1101
H20 H 0.6061 -0.1776 0.0329
C1B C 0.0177(3) -0.1840(4) -0.2705(5)
C2B C -0.0142(4) -0.1893(4) -0.1429(6)
H1B H 0.0213 -0.1901 -0.0682
C3B C -0.1105(4) -0.1931(4) -0.1525(6)
H2B H -0.1498 -0.1962 -0.0841
C4B C -0.1369(4) -0.1912(4) -0.2823(6)
H3B H -0.1965 -0.1933 -0.3145
C5B C -0.0571(4) -0.1857(4) -0.3557(5)
H4B H -0.0548 -0.1837 -0.4444
C6B C 0.0277(4) -0.4333(4) -0.2690(5)
C7B C -0.0113(4) -0.4330(4) -0.1452(6)
H5B H 0.0212 -0.4325 -0.0679
C8B C -0.1072(4) -0.4334(4) -0.1592(6)
H6B H -0.1484 -0.4334 -0.0930
C9B C -0.1300(4) -0.4337(4) -0.2916(6)
H7B H -0.1886 -0.4339 -0.3272
C10B C -0.0487(4) -0.4336(4) -0.3597(6)
H8B H -0.0445 -0.4336 -0.4482
C11B C 0.1151(4) -0.1805(4) -0.3088(5)
C12B C 0.2735(4) -0.1725(4) -0.2209(5)
C13B C 0.3232(4) -0.1196(5) -0.1314(6)
H9B H 0.2917 -0.0851 -0.0694
C14B C 0.4579(4) -0.1673(5) -0.2182(7)
H10B H 0.5213 -0.1676 -0.2164
C15B C 0.4134(4) -0.2199(5) -0.3120(6)
H11B H 0.4462 -0.2533 -0.3736
C16B C 0.3196(4) -0.2232(4) -0.3146(6)
H12B H 0.2880 -0.2586 -0.3777
C17B C 0.1235(4) -0.4333(4) -0.3058(6)
C18B C 0.4618(4) -0.4493(5) -0.2075(6)
H13B H 0.5252 -0.4482 -0.2083
C19B C 0.4201(4) -0.4254(6) -0.0975(6)
H14B H 0.4544 -0.4108 -0.0242
C20B C 0.3259(4) -0.4230(5) -0.0954(6)
H15B H 0.2958 -0.4057 -0.0214
C21B C 0.2778(4) -0.4468(5) -0.2056(6)
C22B C 0.3255(4) -0.4756(4) -0.3120(6)
H16B H 0.2931 -0.4967 -0.3844
Cd1A Cd 0.5000 0.5000 0.5000
Cd1A_2 Cd 0.5000 -0.5000 -0.5000
Fe1B Fe -0.05372(5) -0.31089(6) -0.24511(7)
N1B N 0.1778(3) -0.1757(4) -0.2107(5)
H17B H 0.1568 -0.1744 -0.1347
N2B N 0.4148(3) -0.1151(4) -0.1285(5)
N3B N 0.4169(3) -0.4742(4) -0.3140(5)
N3A N 0.4169(3) -0.0258(4) 0.1860(5)
N3C N 0.5831(3) 0.0258(4) -0.1860(5)
N4B N 0.1826(3) -0.4428(4) -0.2032(5)
H18B H 0.1556 -0.4233 -0.1311
O1B O 0.1385(3) -0.1796(4) -0.4209(4)
O2B O 0.1482(3) -0.4275(4) -0.4155(4)
O3B O 0.3896(3) 0.1186(4) -0.0606(5)
H19B H 0.3454 0.1024 -0.1101
H20B H 0.3939 0.1776 -0.0329
N5 N 0.6711(5) 0.8300(7) 0.3876(8)
O4 O 0.6754(4) 0.9067(7) 0.3299(8)
O5 O 0.6528(7) 0.7556(10) 0.3319(13)
O6 O 0.6885(9) 0.8248(9) 0.4959(9)
loop_
_geom_bond_atom_site_label_1
_geom_bond_atom_site_label_2
_geom_bond_site_symmetry_1
_geom_bond_site_symmetry_2
C1 C2 1_555 1_555
C2 H1 1_555 1_555
C3 C2 1_555 1_555
H2 C3 1_555 1_555
C4 C3 1_555 1_555
H3 C4 1_555 1_555
C5 C1 1_555 1_555
H4 C5 1_555 1_555
C6 C7 1_555 1_555
C7 H5 1_555 1_555
C8 C7 1_555 1_555
H6 C8 1_555 1_555
C9 C8 1_555 1_555
H7 C9 1_555 1_555
C10 C6 1_555 1_555
H8 C10 1_555 1_555
C11 C1 1_555 1_555
C12 C13 1_555 1_555
C13 H9 1_555 1_555
C14 H10 1_555 1_555
C15 C14 1_555 1_555
H11 C15 1_555 1_555
C16 C12 1_555 1_555
H12 C16 1_555 1_555
C17 C6 1_555 1_555
C18 H13 1_555 1_555
C19 C18 1_555 1_555
H14 C19 1_555 1_555
C20 C19 1_555 1_555
H15 C20 1_555 1_555
C21 C20 1_555 1_555
C22 C21 1_555 1_555
H16 C22 1_555 1_555
Cd1 N2 1_555 1_555
Fe1 C1 1_555 1_555
N1 C11 1_555 1_555
H17 N1 1_555 1_555
N2 C13 1_555 1_555
N3 C18 1_555 1_555
N4 C17 1_555 1_555
H18 N4 1_555 1_555
N5 O4 1_555 1_555
O1 C11 1_555 1_555
O2 C17 1_555 1_555
O3 Cd1 1_555 1_555
H19 O3 1_555 1_555
H20 O3 1_555 1_555
O5 N5 1_555 1_555
O6 N5 1_555 1_555
C1B C2B 1_555 1_555
C2B H1B 1_555 1_555
C3B C2B 1_555 1_555
H2B C3B 1_555 1_555
C4B C3B 1_555 1_555
H3B C4B 1_555 1_555
C5B C1B 1_555 1_555
H4B C5B 1_555 1_555
C6B C7B 1_555 1_555
C7B H5B 1_555 1_555
C8B C7B 1_555 1_555
H6B C8B 1_555 1_555
C9B C8B 1_555 1_555
H7B C9B 1_555 1_555
C10B C6B 1_555 1_555
H8B C10B 1_555 1_555
C11B C1B 1_555 1_555
C12B C13B 1_555 1_555
C13B H9B 1_555 1_555
C14B H10B 1_555 1_555
C15B C14B 1_555 1_555
H11B C15B 1_555 1_555
C16B C12B 1_555 1_555
H12B C16B 1_555 1_555
C17B C6B 1_555 1_555
C18B H13B 1_555 1_555
C19B C18B 1_555 1_555
H14B C19B 1_555 1_555
C20B C19B 1_555 1_555
H15B C20B 1_555 1_555
C21B C20B 1_555 1_555
C22B C21B 1_555 1_555
H16B C22B 1_555 1_555
Cd1A N3 1_555 1_555
Cd1A_2 N3B 1_555 1_555
Fe1B C1B 1_555 1_555
N1B C11B 1_555 1_555
H17B N1B 1_555 1_555
N2B Cd1 1_555 1_555
N3B C18B 1_555 1_555
N3A Cd1 1_555 1_555
N3C Cd1 1_555 1_555
N4B C17B 1_555 1_555
H18B N4B 1_555 1_555
O1B C11B 1_555 1_555
O2B C17B 1_555 1_555
O3B Cd1 1_555 1_555
H19B O3B 1_555 1_555
H20B O3B 1_555 1_555
C2 Fe1 1_555 1_555
C3 Fe1 1_555 1_555
C4 C5 1_555 1_555
C4 Fe1 1_555 1_555
C5 Fe1 1_555 1_555
C6 Fe1 1_555 1_555
C7 Fe1 1_555 1_555
C8 Fe1 1_555 1_555
C9 C10 1_555 1_555
C9 Fe1 1_555 1_555
C10 Fe1 1_555 1_555
C12 N1 1_555 1_555
C14 N2 1_555 1_555
C15 C16 1_555 1_555
C21 N4 1_555 1_555
C22 N3 1_555 1_555
C2B Fe1B 1_555 1_555
C3B Fe1B 1_555 1_555
C4B C5B 1_555 1_555
C4B Fe1B 1_555 1_555
C5B Fe1B 1_555 1_555
C6B Fe1B 1_555 1_555
C7B Fe1B 1_555 1_555
C8B Fe1B 1_555 1_555
C9B C10B 1_555 1_555
C9B Fe1B 1_555 1_555
C10B Fe1B 1_555 1_555
C12B N1B 1_555 1_555
C13B N2B 1_555 1_555
C14B N2B 1_555 1_555
C15B C16B 1_555 1_555
C21B N4B 1_555 1_555
C22B N3B 1_555 1_555

#END
