
#######################################################################
#
#                 Cambridge Crystallographic Data Centre
#                                CCDC 
#
#######################################################################
#
# If this CIF has been generated from an entry in the Cambridge 
# Structural Database, then it will include bibliographic, chemical, 
# crystal, experimental, refinement or atomic coordinate data resulting 
# from the CCDC's data processing and validation procedures.
#
#######################################################################

data_EQUXAQ
_symmetry_cell_setting           monoclinic
_symmetry_space_group_name_H-M   'P 21/c'
_symmetry_Int_Tables_number      14
_space_group_name_Hall           '-P 2ybc'
loop_
_symmetry_equiv_pos_site_id
_symmetry_equiv_pos_as_xyz
1 x,y,z
2 -x,1/2+y,1/2-z
3 -x,-y,-z
4 x,1/2-y,1/2+z
_cell_length_a                   13.3576(15)
_cell_length_b                   13.7387(16)
_cell_length_c                   10.5483(12)
_cell_angle_alpha                90
_cell_angle_beta                 90.00
_cell_angle_gamma                90
_cell_volume                     1935.78
loop_
_atom_site_label
_atom_site_type_symbol
_atom_site_fract_x
_atom_site_fract_y
_atom_site_fract_z
C1 C 0.4863(2) 0.8158(2) 0.2526(3)
C2 C 0.4023(2) 0.8111(2) 0.3358(3)
H1 H 0.4050 0.8099 0.4239
C3 C 0.3141(2) 0.8085(2) 0.2613(3)
H2 H 0.2488 0.8061 0.2916
C4 C 0.3432(2) 0.8104(2) 0.1324(3)
H3 H 0.3000 0.8090 0.0633
C5 C 0.4489(2) 0.8145(2) 0.1257(3)
H4 H 0.4871 0.8161 0.0521
C6 C 0.4917(2) 0.5701(2) 0.2437(3)
C7 C 0.4088(2) 0.5679(2) 0.3299(3)
H5 H 0.4130 0.5647 0.4178
C8 C 0.3194(2) 0.5713(2) 0.2580(3)
H6 H 0.2547 0.5710 0.2905
C9 C 0.3458(2) 0.5751(2) 0.1278(3)
H7 H 0.3013 0.5773 0.0600
C10 C 0.4514(2) 0.5751(2) 0.1188(3)
H8 H 0.4883 0.5779 0.0441
C11 C 0.5922(2) 0.8189(2) 0.2933(3)
C12 C 0.7644(2) 0.8271(2) 0.2087(3)
C13 C 0.8167(2) 0.7801(2) 0.3035(3)
H9 H 0.7833 0.7446 0.3656
C14 C 0.9191(2) 0.7870(2) 0.3038(3)
H10 H 0.9562 0.7564 0.3668
C15 C 0.9668(2) 0.8396(2) 0.2102(3)
H11 H 1.0364 0.8425 0.2111
C16 C 0.8181(2) 0.8792(2) 0.1191(3)
H12 H 0.7825 0.9109 0.0555
C17 C 0.9736(2) 0.5662(2) 0.2150(3)
H13 H 1.0429 0.5709 0.2222
C18 C 0.9299(2) 0.5888(2) 0.1010(3)
H14 H 0.9690 0.6051 0.0313
C19 C 0.8274(2) 0.5870(2) 0.0915(3)
H15 H 0.7962 0.6032 0.0156
C20 C 0.7708(2) 0.5608(2) 0.1966(3)
C21 C 0.8215(2) 0.5324(2) 0.3053(3)
H16 H 0.7845 0.5089 0.3734
C22 C 0.5982(2) 0.5694(2) 0.2848(3)
Fe1 Fe 0.40536(3) 0.69197(3) 0.22074(4)
N1 N 0.66003(18) 0.82277(19) 0.1963(2)
H17 H 0.6364 0.8225 0.1205
N2 N 0.91787(18) 0.88652(19) 0.1184(2)
N3 N 0.92073(19) 0.53738(18) 0.3166(2)
N4 N 0.66605(18) 0.56299(18) 0.1874(2)
H18 H 0.6415 0.5600 0.1121
N5 N 0.88409(19) 1.0955(2) 0.0413(3)
N6 N 0.88095(18) 1.1812(2) 0.0289(3)
N7 N 0.8742(2) 1.2651(3) 0.0168(4)
O1 O 0.61688(16) 0.81918(18) 0.4051(2)
O2 O 0.62250(16) 0.57256(18) 0.3957(2)
Zn1 Zn 1.0000 1.0000 0.0000
C1A C 1.5137(2) 1.3158(2) 0.2474(3)
C2A C 1.5977(2) 1.3111(2) 0.1642(3)
H1A H 1.5950 1.3099 0.0761
C3A C 1.6859(2) 1.3085(2) 0.2387(3)
H2A H 1.7512 1.3061 0.2084
C4A C 1.6568(2) 1.3104(2) 0.3676(3)
H3A H 1.7000 1.3090 0.4367
C5A C 1.5511(2) 1.3145(2) 0.3743(3)
H4A H 1.5129 1.3161 0.4479
C6A C 1.5083(2) 1.0701(2) 0.2563(3)
C7A C 1.5912(2) 1.0679(2) 0.1701(3)
H5A H 1.5870 1.0647 0.0822
C8A C 1.6806(2) 1.0713(2) 0.2420(3)
H6A H 1.7453 1.0710 0.2095
C9A C 1.6542(2) 1.0751(2) 0.3722(3)
H7A H 1.6987 1.0773 0.4400
C10A C 1.5486(2) 1.0751(2) 0.3812(3)
H8A H 1.5117 1.0779 0.4559
C11A C 1.4078(2) 1.3189(2) 0.2067(3)
C12A C 1.2356(2) 1.3271(2) 0.2913(3)
C13A C 1.1833(2) 1.2801(2) 0.1965(3)
H9A H 1.2167 1.2446 0.1344
C14A C 1.0809(2) 1.2870(2) 0.1962(3)
H10A H 1.0438 1.2564 0.1332
C15A C 1.0332(2) 1.3396(2) 0.2898(3)
H11A H 0.9636 1.3425 0.2889
C16A C 1.1819(2) 1.3792(2) 0.3809(3)
H12A H 1.2175 1.4109 0.4445
C17A C 1.0264(2) 1.0662(2) 0.2850(3)
H13A H 0.9571 1.0709 0.2778
C18A C 1.0701(2) 1.0888(2) 0.3990(3)
H14A H 1.0310 1.1051 0.4687
C19A C 1.1726(2) 1.0870(2) 0.4085(3)
H15A H 1.2038 1.1032 0.4844
C20A C 1.2292(2) 1.0608(2) 0.3034(3)
C21A C 1.1785(2) 1.0324(2) 0.1947(3)
H16A H 1.2155 1.0089 0.1266
C22A C 1.4018(2) 1.0694(2) 0.2152(3)
Fe1A Fe 1.59464(3) 1.19197(3) 0.27926(4)
N1A N 1.33997(18) 1.32277(19) 0.3037(2)
H17A H 1.3636 1.3225 0.3795
N2A N 1.08213(18) 1.38652(19) 0.3816(2)
N2B N 1.08213(18) 1.11348(19) -0.1184(2)
N3A N 1.07927(19) 1.03738(18) 0.1834(2)
N3C N 0.92073(19) 0.96262(18) -0.1834(2)
N4A N 1.33395(18) 1.06299(18) 0.3126(2)
H18A H 1.3585 1.0600 0.3879
N5B N 1.11591(19) 0.9045(2) -0.0413(3)
N6B N 1.11905(18) 0.8188(2) -0.0289(3)
N7B N 1.1258(2) 0.7349(3) -0.0168(4)
O1A O 1.38312(16) 1.31918(18) 0.0949(2)
O2A O 1.37750(16) 1.07256(18) 0.1043(2)
Zn1A Zn 1.0000 0.5000 0.5000
Zn1A_2 Zn 1.0000 1.5000 0.5000
loop_
_geom_bond_atom_site_label_1
_geom_bond_atom_site_label_2
_geom_bond_site_symmetry_1
_geom_bond_site_symmetry_2
C1 C2 1_555 1_555
C2 H1 1_555 1_555
C3 C2 1_555 1_555
H2 C3 1_555 1_555
C4 C3 1_555 1_555
H3 C4 1_555 1_555
C5 C1 1_555 1_555
H4 C5 1_555 1_555
C6 C7 1_555 1_555
C7 H5 1_555 1_555
C8 C7 1_555 1_555
H6 C8 1_555 1_555
C9 C8 1_555 1_555
H7 C9 1_555 1_555
C10 C6 1_555 1_555
H8 C10 1_555 1_555
C11 C1 1_555 1_555
C12 C13 1_555 1_555
C13 H9 1_555 1_555
C14 C13 1_555 1_555
H10 C14 1_555 1_555
C15 C14 1_555 1_555
H11 C15 1_555 1_555
C16 C12 1_555 1_555
H12 C16 1_555 1_555
C17 H13 1_555 1_555
C18 C17 1_555 1_555
H14 C18 1_555 1_555
C19 C18 1_555 1_555
H15 C19 1_555 1_555
C20 C19 1_555 1_555
C21 C20 1_555 1_555
H16 C21 1_555 1_555
C22 C6 1_555 1_555
Fe1 C1 1_555 1_555
N1 C11 1_555 1_555
H17 N1 1_555 1_555
N2 C15 1_555 1_555
N3 C17 1_555 1_555
N4 C20 1_555 1_555
H18 N4 1_555 1_555
N5 N6 1_555 1_555
N6 N7 1_555 1_555
O1 C11 1_555 1_555
O2 C22 1_555 1_555
Zn1 N2 1_555 1_555
C1A C2A 1_555 1_555
C2A H1A 1_555 1_555
C3A C2A 1_555 1_555
H2A C3A 1_555 1_555
C4A C3A 1_555 1_555
H3A C4A 1_555 1_555
C5A C1A 1_555 1_555
H4A C5A 1_555 1_555
C6A C7A 1_555 1_555
C7A H5A 1_555 1_555
C8A C7A 1_555 1_555
H6A C8A 1_555 1_555
C9A C8A 1_555 1_555
H7A C9A 1_555 1_555
C10A C6A 1_555 1_555
H8A C10A 1_555 1_555
C11A C1A 1_555 1_555
C12A C13A 1_555 1_555
C13A H9A 1_555 1_555
C14A C13A 1_555 1_555
H10A C14A 1_555 1_555
C15A C14A 1_555 1_555
H11A C15A 1_555 1_555
C16A C12A 1_555 1_555
H12A C16A 1_555 1_555
C17A H13A 1_555 1_555
C18A C17A 1_555 1_555
H14A C18A 1_555 1_555
C19A C18A 1_555 1_555
H15A C19A 1_555 1_555
C20A C19A 1_555 1_555
C21A C20A 1_555 1_555
H16A C21A 1_555 1_555
C22A C6A 1_555 1_555
Fe1A C1A 1_555 1_555
N1A C11A 1_555 1_555
H17A N1A 1_555 1_555
N2A C15A 1_555 1_555
N2B Zn1 1_555 1_555
N3A Zn1 1_555 1_555
N3C Zn1 1_555 1_555
N4A C20A 1_555 1_555
H18A N4A 1_555 1_555
N5B Zn1 1_555 1_555
N6B N5B 1_555 1_555
N7B N6B 1_555 1_555
O1A C11A 1_555 1_555
O2A C22A 1_555 1_555
Zn1A N3 1_555 1_555
Zn1A_2 N2A 1_555 1_555
C2 Fe1 1_555 1_555
C3 Fe1 1_555 1_555
C4 C5 1_555 1_555
C4 Fe1 1_555 1_555
C5 Fe1 1_555 1_555
C6 Fe1 1_555 1_555
C7 Fe1 1_555 1_555
C8 Fe1 1_555 1_555
C9 C10 1_555 1_555
C9 Fe1 1_555 1_555
C10 Fe1 1_555 1_555
C12 N1 1_555 1_555
C16 N2 1_555 1_555
C21 N3 1_555 1_555
C22 N4 1_555 1_555
N5 Zn1 1_555 1_555
C2A Fe1A 1_555 1_555
C3A Fe1A 1_555 1_555
C4A C5A 1_555 1_555
C4A Fe1A 1_555 1_555
C5A Fe1A 1_555 1_555
C6A Fe1A 1_555 1_555
C7A Fe1A 1_555 1_555
C8A Fe1A 1_555 1_555
C9A C10A 1_555 1_555
C9A Fe1A 1_555 1_555
C10A Fe1A 1_555 1_555
C12A N1A 1_555 1_555
C16A N2A 1_555 1_555
C17A N3A 1_555 1_555
C21A N3A 1_555 1_555
C22A N4A 1_555 1_555

#END
