
#######################################################################
#
#                 Cambridge Crystallographic Data Centre
#                                CCDC 
#
#######################################################################
#
# If this CIF has been generated from an entry in the Cambridge 
# Structural Database, then it will include bibliographic, chemical, 
# crystal, experimental, refinement or atomic coordinate data resulting 
# from the CCDC's data processing and validation procedures.
#
#######################################################################

data_ERABEE
_symmetry_cell_setting           triclinic
_symmetry_space_group_name_H-M   'P -1'
_symmetry_Int_Tables_number      2
_space_group_name_Hall           '-P 1'
loop_
_symmetry_equiv_pos_site_id
_symmetry_equiv_pos_as_xyz
1 x,y,z
2 -x,-y,-z
_cell_length_a                   5.4635(13)
_cell_length_b                   7.7205(18)
_cell_length_c                   9.976(2)
_cell_angle_alpha                71.198(4)
_cell_angle_beta                 82.385(4)
_cell_angle_gamma                87.920(5)
_cell_volume                     394.82
loop_
_atom_site_label
_atom_site_type_symbol
_atom_site_fract_x
_atom_site_fract_y
_atom_site_fract_z
Co1 Co 0.32661(8) 0.36145(7) 0.63245(5)
P1 P 0.78609(17) 0.14085(13) 0.74886(10)
P2 P 0.78276(17) 0.54148(12) 0.70721(10)
O1 O 0.6050(4) 0.1608(3) 0.6428(2)
O2 O 1.0554(4) 0.1573(3) 0.6897(3)
O3 O 0.7378(5) -0.0477(3) 0.8726(3)
H1 H 0.729(7) -0.117(6) 0.837(4)
O4 O 0.6250(4) 0.5562(3) 0.5872(2)
O5 O 1.0579(4) 0.5370(3) 0.6630(3)
O6 O 0.7126(4) 0.6866(3) 0.7765(3)
O7 O 0.4257(4) 0.3119(3) 0.8538(3)
H2 H 0.374(6) 0.216(3) 0.929(2)
C1 C 0.7947(6) 0.2857(5) 0.9772(4)
H3 H 0.7486 0.1659 1.0413
H4 H 0.7263 0.3762 1.0183
H5 H 0.9714 0.2970 0.9610
C2 C 0.6965(6) 0.3142(5) 0.8365(4)
O2_2 O 0.0554(4) 0.1573(3) 0.6897(3)
O4A O 0.3750(4) 0.4438(3) 0.4128(2)
O5_2 O 0.0579(4) 0.5370(3) 0.6630(3)
Co1_2 Co 1.32661(8) 0.36145(7) 0.63245(5)
Co1A Co 0.67339(8) 0.63855(7) 0.36755(5)
N1 N 1.2946(6) 0.8523(5) 0.6397(4)
H6 H 1.434(7) 0.824(5) 0.691(4)
H7 H 1.324(7) 0.861(5) 0.555(4)
H8 H 1.168(7) 0.760(5) 0.660(4)
H9 H 1.221(6) 0.968(5) 0.650(4)
loop_
_geom_bond_atom_site_label_1
_geom_bond_atom_site_label_2
_geom_bond_site_symmetry_1
_geom_bond_site_symmetry_2
Co1 O1 1_555 1_555
P1 O1 1_555 1_555
P2 O4 1_555 1_555
O2 P1 1_555 1_555
O3 P1 1_555 1_555
H1 O3 1_555 1_555
O4 Co1 1_555 1_555
O5 P2 1_555 1_555
O6 P2 1_555 1_555
O7 Co1 1_555 1_555
H2 O7 1_555 1_555
C1 H3 1_555 1_555
H4 C1 1_555 1_555
H5 C1 1_555 1_555
C2 P1 1_555 1_555
N1 H6 1_555 1_555
H7 N1 1_555 1_555
H8 N1 1_555 1_555
H9 N1 1_555 1_555
O2_2 Co1 1_555 1_555
O4A Co1 1_555 1_555
O5_2 Co1 1_555 1_555
Co1_2 O2 1_555 1_555
Co1A O4 1_555 1_555
P2 C2 1_555 1_555
O5 Co1_2 1_555 1_555
O7 C2 1_555 1_555
C1 C2 1_555 1_555
O4A Co1A 1_555 1_555

#END
