
#######################################################################
#
#                 Cambridge Crystallographic Data Centre
#                                CCDC 
#
#######################################################################
#
# If this CIF has been generated from an entry in the Cambridge 
# Structural Database, then it will include bibliographic, chemical, 
# crystal, experimental, refinement or atomic coordinate data resulting 
# from the CCDC's data processing and validation procedures.
#
#######################################################################

data_ERABII
_symmetry_cell_setting           triclinic
_symmetry_space_group_name_H-M   'P -1'
_symmetry_Int_Tables_number      2
_space_group_name_Hall           '-P 1'
loop_
_symmetry_equiv_pos_site_id
_symmetry_equiv_pos_as_xyz
1 x,y,z
2 -x,-y,-z
_cell_length_a                   5.5191(12)
_cell_length_b                   7.7183(16)
_cell_length_c                   10.051(2)
_cell_angle_alpha                71.551(4)
_cell_angle_beta                 82.552(4)
_cell_angle_gamma                87.627(4)
_cell_volume                     402.722
loop_
_atom_site_label
_atom_site_type_symbol
_atom_site_fract_x
_atom_site_fract_y
_atom_site_fract_z
Fe1 Fe 0.31835(8) 0.35983(6) 0.63172(5)
P1 P 0.77931(15) 0.13747(11) 0.74928(8)
P2 P 0.77526(14) 0.53851(10) 0.70991(8)
O1 O 0.5966(4) 0.1562(3) 0.6446(2)
O2 O 1.0449(4) 0.1540(3) 0.6889(3)
O3 O 0.7350(5) -0.0502(3) 0.8708(2)
H1 H 0.728(7) -0.141(6) 0.837(4)
O4 O 0.6211(4) 0.5535(3) 0.5895(2)
O5 O 1.0476(4) 0.5348(3) 0.6666(3)
O6 O 0.7022(4) 0.6835(3) 0.7789(3)
O7 O 0.4259(4) 0.3096(3) 0.8570(2)
H2 H 0.394(8) 0.238(6) 0.924(5)
C1 C 0.7959(6) 0.2826(5) 0.9751(3)
H3 H 0.7504 0.1638 1.0390
H4 H 0.7323 0.3742 1.0163
H5 H 0.9708 0.2918 0.9573
C2 C 0.6921(6) 0.3113(4) 0.8372(3)
O2_2 O 0.0449(4) 0.1540(3) 0.6889(3)
O4A O 0.3789(4) 0.4465(3) 0.4105(2)
O5_2 O 0.0476(4) 0.5348(3) 0.6666(3)
Fe1_2 Fe 1.31835(8) 0.35983(6) 0.63172(5)
Fe1A Fe 0.68165(8) 0.64017(6) 0.36828(5)
N1 N 1.2890(6) 0.8487(4) 0.6382(4)
H6 H 1.430(8) 0.814(5) 0.682(4)
H7 H 1.333(8) 0.861(5) 0.543(5)
H8 H 1.177(8) 0.730(5) 0.674(4)
H9 H 1.231(8) 0.942(6) 0.647(5)
loop_
_geom_bond_atom_site_label_1
_geom_bond_atom_site_label_2
_geom_bond_site_symmetry_1
_geom_bond_site_symmetry_2
Fe1 O1 1_555 1_555
P1 O1 1_555 1_555
P2 O4 1_555 1_555
O2 P1 1_555 1_555
O3 P1 1_555 1_555
H1 O3 1_555 1_555
O4 Fe1 1_555 1_555
O5 P2 1_555 1_555
O6 P2 1_555 1_555
O7 Fe1 1_555 1_555
H2 O7 1_555 1_555
C1 H3 1_555 1_555
H4 C1 1_555 1_555
H5 C1 1_555 1_555
C2 P1 1_555 1_555
N1 H6 1_555 1_555
H7 N1 1_555 1_555
H8 N1 1_555 1_555
H9 N1 1_555 1_555
O2_2 Fe1 1_555 1_555
O4A Fe1 1_555 1_555
O5_2 Fe1 1_555 1_555
Fe1_2 O2 1_555 1_555
Fe1A O4 1_555 1_555
P2 C2 1_555 1_555
O5 Fe1_2 1_555 1_555
O7 C2 1_555 1_555
C1 C2 1_555 1_555
O4A Fe1A 1_555 1_555

#END
