
#######################################################################
#
#                 Cambridge Crystallographic Data Centre
#                                CCDC 
#
#######################################################################
#
# If this CIF has been generated from an entry in the Cambridge 
# Structural Database, then it will include bibliographic, chemical, 
# crystal, experimental, refinement or atomic coordinate data resulting 
# from the CCDC's data processing and validation procedures.
#
#######################################################################

data_ERANOB
_symmetry_cell_setting           monoclinic
_symmetry_space_group_name_H-M   'P 21/c'
_symmetry_Int_Tables_number      14
_space_group_name_Hall           '-P 2ybc'
loop_
_symmetry_equiv_pos_site_id
_symmetry_equiv_pos_as_xyz
1 x,y,z
2 -x,1/2+y,1/2-z
3 -x,-y,-z
4 x,1/2-y,1/2+z
_cell_length_a                   8.2800(17)
_cell_length_b                   28.059(6)
_cell_length_c                   16.424(3)
_cell_angle_alpha                90
_cell_angle_beta                 94.02(3)
_cell_angle_gamma                90
_cell_volume                     3806.38
loop_
_atom_site_label
_atom_site_type_symbol
_atom_site_fract_x
_atom_site_fract_y
_atom_site_fract_z
Ni1 Ni 0.22742(9) 0.42707(2) 0.84747(4)
Ni2 Ni -0.11911(9) 0.42179(2) 0.68962(5)
C1 C 0.2202(7) 0.40192(19) 0.6598(4)
C2 C 0.3417(8) 0.3986(2) 0.5981(4)
H1 H 0.3063 0.3926 0.5441
C3 C 0.4967(7) 0.4037(2) 0.6165(4)
H2 H 0.5327 0.4081 0.6708
C4 C 0.6171(7) 0.4028(2) 0.5544(4)
C5 C -0.1524(8) 0.45608(18) 0.8281(4)
C6 C -0.1666(8) 0.4831(2) 0.9033(4)
H3 H -0.0904 0.4785 0.9469
C7 C -0.2841(8) 0.5136(2) 0.9106(4)
H4 H -0.3582 0.5169 0.8658
C8 C -0.3122(9) 0.5436(2) 0.9829(4)
C9 C 0.0743(8) 0.3461(2) 0.9347(4)
H5 H 0.0239 0.3707 0.9612
C10 C 0.0363(9) 0.3002(2) 0.9540(4)
H6 H -0.0400 0.2943 0.9917
C11 C 0.1115(8) 0.2628(2) 0.9175(4)
C12 C 0.2225(9) 0.2743(2) 0.8633(5)
H7 H 0.2774 0.2504 0.8375
C13 C 0.2534(9) 0.3211(2) 0.8470(4)
H8 H 0.3307 0.3281 0.8103
C14 C 0.0697(8) 0.2133(2) 0.9339(4)
C15 C 0.0543(8) 0.1389(2) 0.9228(4)
C16 C 0.0700(8) 0.0890(2) 0.8983(4)
C17 C 0.1891(10) 0.0755(2) 0.8514(5)
H9 H 0.2640 0.0977 0.8352
C18 C 0.1988(10) 0.0285(3) 0.8278(5)
H10 H 0.2807 0.0200 0.7947
C19 C -0.0331(9) 0.0548(2) 0.9211(5)
H11 H -0.1163 0.0624 0.9539
C20 C -0.0138(9) 0.0089(2) 0.8955(4)
H12 H -0.0864 -0.0138 0.9120
C21 C 0.2051(9) 0.5330(2) 0.8439(4)
H13 H 0.1473 0.5272 0.8894
C22 C 0.2147(10) 0.5786(2) 0.8169(5)
H14 H 0.1661 0.6031 0.8445
C23 C 0.2959(8) 0.5885(2) 0.7491(4)
C24 C 0.3707(8) 0.5513(2) 0.7127(4)
H15 H 0.4294 0.5564 0.6672
C25 C 0.3569(8) 0.5061(2) 0.7448(4)
H16 H 0.4088 0.4811 0.7202
C26 C 0.3024(9) 0.6376(2) 0.7201(4)
C27 C 0.2786(9) 0.7112(2) 0.7113(4)
C28 C 0.2394(8) 0.7599(2) 0.7320(4)
C29 C 0.2922(10) 0.7980(2) 0.6887(5)
H17 H 0.3541 0.7931 0.6443
C30 C 0.2536(10) 0.8427(2) 0.7108(5)
H18 H 0.2939 0.8679 0.6816
C31 C 0.1439(11) 0.7698(2) 0.7937(5)
H19 H 0.1026 0.7452 0.8239
C32 C 0.1084(10) 0.8165(2) 0.8115(5)
H20 H 0.0428 0.8225 0.8541
H21 H 0.539(6) 0.429(2) 0.850(3)
H22 H 0.483(8) 0.416(3) 0.9218(12)
H23 H -0.089(6) 0.1352(17) 1.013(3)
H24 H 0.394(9) 0.634(2) 0.613(3)
N1 N 0.1778(6) 0.35743(16) 0.8810(3)
N2 N 0.1239(7) 0.17591(17) 0.8914(3)
N3 N -0.0260(8) 0.20094(18) 0.9910(4)
N4 N -0.0363(8) 0.15332(18) 0.9817(4)
N5 N 0.0993(6) -0.00523(17) 0.8493(3)
N6 N 0.2740(6) 0.49647(16) 0.8088(3)
N7 N 0.2486(8) 0.67440(18) 0.7601(3)
N8 N 0.3447(9) 0.69946(19) 0.6437(4)
N9 N 0.3584(9) 0.65180(19) 0.6510(4)
N10 N 0.1623(6) 0.85297(17) 0.7714(3)
O1 O 0.2702(5) 0.40361(14) 0.7329(2)
O2 O 0.0759(5) 0.40429(14) 0.6328(2)
O3 O 0.7638(5) 0.40629(14) 0.5792(2)
O4 O 0.5710(6) 0.39930(19) 0.4808(3)
O5 O -0.0169(5) 0.44011(13) 0.8088(2)
O6 O -0.2728(5) 0.44986(13) 0.7791(2)
O7 O -0.2014(5) 0.54696(13) 1.0378(2)
O8 O -0.4466(7) 0.5625(2) 0.9811(3)
O9 O 0.4676(5) 0.41231(15) 0.8708(3)
Ni1B Ni -0.22742(9) 0.57293(2) 1.15253(4)
Ni2A Ni 0.11911(9) -0.07821(2) 0.81038(5)
Ni2A_2 Ni 0.11911(9) 0.92179(2) 0.81038(5)
Ni2_2 Ni 0.88089(9) 0.42179(2) 0.68962(5)
N5A N -0.0993(6) 0.49477(17) 0.6507(3)
N10A N -0.1623(6) 0.35297(17) 0.7286(3)
O3_2 O -0.2362(5) 0.40629(14) 0.5792(2)
O7B O 0.2014(5) 0.45304(13) 0.9622(2)
O10 O 0.727(3) 0.3716(9) 0.0048(14)
O11 O 0.484(5) 0.2376(14) 0.060(2)
O16 O 0.166(6) 0.1676(15) 0.668(3)
O12? O 0.685(5) 0.3154(19) 0.051(3)
O13? O 0.607(4) 0.2607(11) 0.0138(18)
O14? O 0.309(5) 0.1737(15) 0.736(3)
O15? O 0.319(6) 0.1333(17) 0.664(3)
loop_
_geom_bond_atom_site_label_1
_geom_bond_atom_site_label_2
_geom_bond_site_symmetry_1
_geom_bond_site_symmetry_2
Ni1 N1 1_555 1_555
Ni2 O2 1_555 1_555
C1 C2 1_555 1_555
C2 H1 1_555 1_555
C3 C2 1_555 1_555
H2 C3 1_555 1_555
C4 C3 1_555 1_555
C5 C6 1_555 1_555
C6 H3 1_555 1_555
C7 C6 1_555 1_555
H4 C7 1_555 1_555
C8 C7 1_555 1_555
C9 H5 1_555 1_555
C10 C9 1_555 1_555
H6 C10 1_555 1_555
C11 C10 1_555 1_555
C12 C11 1_555 1_555
H7 C12 1_555 1_555
C13 C12 1_555 1_555
H8 C13 1_555 1_555
C14 C11 1_555 1_555
C15 C16 1_555 1_555
C16 C17 1_555 1_555
C17 H9 1_555 1_555
C18 C17 1_555 1_555
H10 C18 1_555 1_555
C19 C16 1_555 1_555
H11 C19 1_555 1_555
C20 C19 1_555 1_555
H12 C20 1_555 1_555
C21 H13 1_555 1_555
C22 C21 1_555 1_555
H14 C22 1_555 1_555
C23 C22 1_555 1_555
C24 C23 1_555 1_555
H15 C24 1_555 1_555
C25 C24 1_555 1_555
H16 C25 1_555 1_555
C26 C23 1_555 1_555
C27 C28 1_555 1_555
C28 C29 1_555 1_555
C29 H17 1_555 1_555
C30 C29 1_555 1_555
H18 C30 1_555 1_555
C31 C28 1_555 1_555
H19 C31 1_555 1_555
C32 C31 1_555 1_555
H20 C32 1_555 1_555
H21 O9 1_555 1_555
H22 O9 1_555 1_555
H23 N4 1_555 1_555
H24 N9 1_555 1_555
N1 C9 1_555 1_555
N2 C14 1_555 1_555
N3 C14 1_555 1_555
N4 C15 1_555 1_555
N5 C18 1_555 1_555
N6 Ni1 1_555 1_555
N7 C26 1_555 1_555
N8 C27 1_555 1_555
N9 C26 1_555 1_555
N10 C30 1_555 1_555
O1 Ni1 1_555 1_555
O2 C1 1_555 1_555
O3 C4 1_555 1_555
O4 C4 1_555 1_555
O5 Ni1 1_555 1_555
O6 Ni2 1_555 1_555
O7 C8 1_555 1_555
O8 C8 1_555 1_555
O9 Ni1 1_555 1_555
Ni1B O7 1_555 1_555
Ni2A N5 1_555 1_555
Ni2A_2 N10 1_555 1_555
Ni2_2 O3 1_555 1_555
N5A Ni2 1_555 1_555
N10A Ni2 1_555 1_555
O3_2 Ni2 1_555 1_555
O7B Ni1 1_555 1_555
Ni2 O5 1_555 1_555
C1 O1 1_555 1_555
C5 O5 1_555 1_555
C5 O6 1_555 1_555
C13 N1 1_555 1_555
C15 N2 1_555 1_555
C20 N5 1_555 1_555
C21 N6 1_555 1_555
C25 N6 1_555 1_555
C27 N7 1_555 1_555
C32 N10 1_555 1_555
N3 N4 1_555 1_555
N8 N9 1_555 1_555

#END
