
#######################################################################
#
#                 Cambridge Crystallographic Data Centre
#                                CCDC 
#
#######################################################################
#
# If this CIF has been generated from an entry in the Cambridge 
# Structural Database, then it will include bibliographic, chemical, 
# crystal, experimental, refinement or atomic coordinate data resulting 
# from the CCDC's data processing and validation procedures.
#
#######################################################################

data_ERANUG
_symmetry_cell_setting           monoclinic
_symmetry_space_group_name_H-M   'C 2/m'
_symmetry_Int_Tables_number      12
_space_group_name_Hall           '-C 2y'
loop_
_symmetry_equiv_pos_site_id
_symmetry_equiv_pos_as_xyz
1 x,y,z
2 1/2+x,1/2+y,z
3 x,-y,z
4 1/2+x,1/2-y,z
5 -x,-y,-z
6 1/2-x,1/2-y,-z
7 -x,y,-z
8 1/2-x,1/2+y,-z
_cell_length_a                   6.0458(15)
_cell_length_b                   15.064(4)
_cell_length_c                   5.5112(14)
_cell_angle_alpha                90.00
_cell_angle_beta                 112.151(4)
_cell_angle_gamma                90.00
_cell_volume                     464.881
loop_
_atom_site_label
_atom_site_type_symbol
_atom_site_fract_x
_atom_site_fract_y
_atom_site_fract_z
Mn1 Mn 0.0000 0.19222(4) 0.5000
P1 P 0.0000 0.32914(7) 0.0000
O1 O 0.1748(3) 0.07444(13) 0.4072(4)
C1 C 0.1019(6) 0.0000 0.4453(7)
O2 O 0.2048(4) 0.3902(2) -0.0060(4)
O3 O 0.1110(3) 0.27588(13) 0.2504(3)
H1 H 0.2115(83) 0.4003(31) -0.1185(97)
O2F O -0.2048(4) 0.3902(2) 0.0060(4)
H1F H -0.2115(83) 0.4003(31) 0.1185(97)
O3F O -0.1110(3) 0.27588(13) -0.2504(3)
O1B O 0.1748(3) -0.07444(13) 0.4072(4)
C1D C -0.1019(6) 0.0000 0.5547(7)
O1D O -0.1748(3) -0.07444(13) 0.5928(4)
O1F O -0.1748(3) 0.07444(13) 0.5928(4)
P1C P -0.5000 0.17086(7) 0.0000
O2C O -0.2952(4) 0.1098(2) -0.0060(4)
O3C O -0.3890(3) 0.22412(13) 0.2504(3)
H1C H -0.2885(83) 0.0997(31) -0.1185(97)
O2E O -0.7048(4) 0.1098(2) 0.0060(4)
H1E H -0.7115(83) 0.0997(31) 0.1185(97)
O3E O -0.6110(3) 0.22412(13) -0.2504(3)
Mn1B Mn 0.0000 -0.19222(4) 0.5000
O3E_2 O 0.3890(3) 0.22412(13) 0.7496(3)
O3F_2 O -0.1110(3) 0.27588(13) 0.7496(3)
Mn1C Mn 0.5000 0.30778(4) 0.5000
Mn1_2 Mn 0.0000 0.19222(4) -0.5000
Mn1C_2 Mn -0.5000 0.30778(4) -0.5000
Mn1C_3 Mn -0.5000 0.30778(4) 0.5000
Mn1_3 Mn -1.0000 0.19222(4) -0.5000
O3A O -0.3890(3) -0.22412(13) 0.2504(3)
O3B O 0.1110(3) -0.27588(13) 0.2504(3)
O3D O -0.1110(3) -0.27588(13) 0.7496(3)
O3G O 0.3890(3) -0.22412(13) 0.7496(3)
loop_
_geom_bond_atom_site_label_1
_geom_bond_atom_site_label_2
_geom_bond_site_symmetry_1
_geom_bond_site_symmetry_2
Mn1 O1 1_555 1_555
P1 O2 1_555 1_555
O1 C1 1_555 1_555
C1 O1B 1_555 1_555
O2 H1 1_555 1_555
O3 Mn1 1_555 1_555
O2F P1 1_555 1_555
H1F O2F 1_555 1_555
O3F P1 1_555 1_555
O1B Mn1B 1_555 1_555
C1D C1 1_555 1_555
O1D C1D 1_555 1_555
O1F Mn1 1_555 1_555
P1C O2C 1_555 1_555
O2C H1C 1_555 1_555
O3C Mn1 1_555 1_555
O2E P1C 1_555 1_555
H1E O2E 1_555 1_555
O3E P1C 1_555 1_555
Mn1B O1D 1_555 1_555
O3E_2 Mn1 1_555 1_555
O3F_2 Mn1 1_555 1_555
Mn1C O3 1_555 1_555
Mn1_2 O3F 1_555 1_555
Mn1C_2 O3F 1_555 1_555
Mn1C_3 O3C 1_555 1_555
Mn1_3 O3E 1_555 1_555
O3A Mn1B 1_555 1_555
O3B Mn1B 1_555 1_555
O3D Mn1B 1_555 1_555
O3G Mn1B 1_555 1_555
P1 O3 1_555 1_555
C1D O1F 1_555 1_555
P1C O3C 1_555 1_555
O3E Mn1C_2 1_555 1_555
O3E_2 Mn1C 1_555 1_555
O3F_2 Mn1C_3 1_555 1_555

#END
