
#######################################################################
#
#                 Cambridge Crystallographic Data Centre
#                                CCDC 
#
#######################################################################
#
# If this CIF has been generated from an entry in the Cambridge 
# Structural Database, then it will include bibliographic, chemical, 
# crystal, experimental, refinement or atomic coordinate data resulting 
# from the CCDC's data processing and validation procedures.
#
#######################################################################

data_ERAQOD
_symmetry_cell_setting           monoclinic
_symmetry_space_group_name_H-M   'P 21/n'
_symmetry_Int_Tables_number      14
_space_group_name_Hall           '-P 2yn'
loop_
_symmetry_equiv_pos_site_id
_symmetry_equiv_pos_as_xyz
1 x,y,z
2 1/2+x,1/2-y,1/2+z
3 -x,-y,-z
4 1/2-x,1/2+y,1/2-z
_cell_length_a                   7.3378(4)
_cell_length_b                   7.2624(4)
_cell_length_c                   14.9373(8)
_cell_angle_alpha                90
_cell_angle_beta                 98.0890(10)
_cell_angle_gamma                90
_cell_volume                     788.09
loop_
_atom_site_label
_atom_site_type_symbol
_atom_site_fract_x
_atom_site_fract_y
_atom_site_fract_z
Ag1 Ag 0.61679(2) 0.18570(2) 0.374981(10)
O1 O 0.4931(2) 0.3481(3) 0.23821(12)
O2 O 0.7794(2) 0.4173(4) 0.25331(12)
O3 O 0.6034(2) 0.4944(2) 0.13128(10)
N1 N 0.7089(2) 0.4003(2) 0.48413(11)
N2 N 0.5821(3) 0.0489(3) 0.61144(12)
N3 N 0.6259(2) 0.4189(2) 0.20755(11)
C1 C 0.6459(3) 0.1852(3) 0.59469(13)
C2 C 0.7174(3) 0.3633(3) 0.57327(13)
C3 C 0.7829(3) 0.4851(3) 0.64166(14)
H1 H 0.7877 0.4518 0.7035
C4 C 0.8412(3) 0.6565(3) 0.61711(15)
H2 H 0.8866 0.7442 0.6620
C5 C 0.8323(3) 0.6984(3) 0.52644(16)
H3 H 0.8703 0.8159 0.5081
C6 C 0.7675(3) 0.5673(3) 0.46264(14)
H4 H 0.7643 0.5970 0.4005
O3C O 0.8966(2) -0.0056(2) 0.36872(10)
N2B N 0.4179(3) -0.0489(3) 0.38856(12)
Ag1C Ag 0.88321(2) 0.68570(2) 0.125019(10)
Ag1B Ag 0.38321(2) -0.18570(2) 0.625019(10)
loop_
_geom_bond_atom_site_label_1
_geom_bond_atom_site_label_2
_geom_bond_site_symmetry_1
_geom_bond_site_symmetry_2
Ag1 O1 1_555 1_555
O1 N3 1_555 1_555
O2 N3 1_555 1_555
O3 N3 1_555 1_555
N1 Ag1 1_555 1_555
N2 C1 1_555 1_555
C1 C2 1_555 1_555
C2 N1 1_555 1_555
C3 C2 1_555 1_555
H1 C3 1_555 1_555
C4 C3 1_555 1_555
H2 C4 1_555 1_555
C5 C4 1_555 1_555
H3 C5 1_555 1_555
C6 N1 1_555 1_555
H4 C6 1_555 1_555
O3C Ag1 1_555 1_555
N2B Ag1 1_555 1_555
Ag1C O3 1_555 1_555
Ag1B N2 1_555 1_555
C5 C6 1_555 1_555

#END
