
#######################################################################
#
#                 Cambridge Crystallographic Data Centre
#                                CCDC 
#
#######################################################################
#
# If this CIF has been generated from an entry in the Cambridge 
# Structural Database, then it will include bibliographic, chemical, 
# crystal, experimental, refinement or atomic coordinate data resulting 
# from the CCDC's data processing and validation procedures.
#
#######################################################################

data_ERARUL
_symmetry_cell_setting           monoclinic
_symmetry_space_group_name_H-M   'C 2/c'
_symmetry_Int_Tables_number      15
_space_group_name_Hall           '-C 2yn'
loop_
_symmetry_equiv_pos_site_id
_symmetry_equiv_pos_as_xyz
1 x,y,z
2 -x,y,1/2-z
3 1/2+x,1/2+y,z
4 1/2-x,1/2+y,1/2-z
5 -x,-y,-z
6 x,-y,1/2+z
7 1/2-x,1/2-y,-z
8 1/2+x,1/2-y,1/2+z
_cell_length_a                   25.2825(7)
_cell_length_b                   7.8499(2)
_cell_length_c                   18.6461(6)
_cell_angle_alpha                90
_cell_angle_beta                 116.3330(10)
_cell_angle_gamma                90
_cell_volume                     3316.59
loop_
_atom_site_label
_atom_site_type_symbol
_atom_site_fract_x
_atom_site_fract_y
_atom_site_fract_z
Zn1 Zn 0.337337(7) 1.81779(2) 0.613259(9)
P1 P 0.211330(15) 1.69822(4) 0.57030(2)
O1 O 0.26449(4) 1.80614(13) 0.62243(6)
O2 O 0.17247(4) 1.77177(13) 0.48886(6)
O3 O 0.17433(5) 1.67262(14) 0.61740(6)
O4 O 0.23349(4) 1.51850(13) 0.55791(6)
O5 O 0.39536(4) 1.66384(13) 0.69246(6)
O6 O 0.34295(4) 1.42565(13) 0.63998(6)
O7 O 0.37990(4) 1.03168(13) 0.62673(6)
O8 O 0.36561(4) 1.10075(14) 0.73346(6)
C1 C 0.5000 1.4888(2) 0.7500
C2 C 0.44622(6) 1.40201(17) 0.71876(8)
C3 C 0.44638(6) 1.22404(18) 0.71930(8)
C4 C 0.5000 1.1364(3) 0.7500
C5 C 0.38980(6) 1.50333(18) 0.68093(8)
C6 C 0.39174(6) 1.11453(17) 0.69097(8)
H1 H 0.5000 1.6107 0.7500
H2 H 0.5000 1.0129 0.7500
H12 H 0.1351 1.6909 0.5892
H13 H 0.2722 1.4986 0.5885
Zn1F Zn 0.162663(7) 1.68221(2) 0.386741(9)
Zn1_2 Zn 0.337337(7) 0.81779(2) 0.613259(9)
Zn1A Zn 0.662663(7) 0.81779(2) 0.886741(9)
Zn1A_2 Zn 0.662663(7) 1.81779(2) 0.886741(9)
P1F P 0.288670(15) 1.80178(4) 0.42970(2)
O1F O 0.23551(4) 1.69386(13) 0.37757(6)
O2F O 0.32753(4) 1.72823(13) 0.51114(6)
O3F O 0.32567(5) 1.82738(14) 0.38260(6)
O4F O 0.26651(4) 1.98150(13) 0.44209(6)
O5A O 0.60464(4) 1.66384(13) 0.80754(6)
O5F O 0.10464(4) 1.83616(13) 0.30754(6)
O6A O 0.65705(4) 1.42565(13) 0.86002(6)
O7A O 0.62010(4) 1.03168(13) 0.87327(6)
O7_2 O 0.37990(4) 2.03168(13) 0.62673(6)
O7F O 0.12010(4) 1.46832(13) 0.37327(6)
O8A O 0.63439(4) 1.10075(14) 0.76654(6)
C2A C 0.55378(6) 1.40201(17) 0.78124(8)
C3A C 0.55362(6) 1.22404(18) 0.78070(8)
C5A C 0.61020(6) 1.50333(18) 0.81907(8)
C6A C 0.60826(6) 1.11453(17) 0.80903(8)
H12F H 0.3649 1.8091 0.4108
H13F H 0.2278 2.0014 0.4115
C7 C 0.21770(6) 1.15053(19) 0.57833(9)
C8 C 0.15734(6) 1.17353(18) 0.53926(9)
C9 C 0.12728(6) 1.22625(19) 0.58242(9)
C10 C 0.15951(7) 1.2595(2) 0.66417(9)
C11 C 0.21980(7) 1.2350(2) 0.70042(9)
C12 C 0.06194(6) 1.2456(2) 0.54173(9)
C13 C 0.03355(7) 1.3067(2) 0.46343(9)
C14 C -0.02765(7) 1.3197(2) 0.42697(9)
C15 C -0.03353(7) 1.2174(2) 0.53878(10)
C16 C 0.02753(7) 1.2010(2) 0.58026(10)
N1 N 0.24705(5) 1.17976(15) 0.65716(8)
N2 N -0.06082(6) 1.27523(19) 0.46356(8)
H3 H 0.2380 1.1113 0.5501
H4 H 0.1384 1.1525 0.4872
H5 H 0.1388 1.3011 0.6945
H6 H 0.2419 1.2559 0.7546
H7 H 0.0565 1.3440 0.4384
H8 H -0.0495 1.3565 0.3715
H9 H -0.0583 1.1913 0.5634
H10 H 0.0439 1.1653 0.6336
H11 H 0.2854 1.1566 0.6797
loop_
_geom_bond_atom_site_label_1
_geom_bond_atom_site_label_2
_geom_bond_site_symmetry_1
_geom_bond_site_symmetry_2
Zn1 O1 1_555 1_555
P1 O1 1_555 1_555
O2 P1 1_555 1_555
O3 P1 1_555 1_555
O4 P1 1_555 1_555
O5 Zn1 1_555 1_555
O6 C5 1_555 1_555
O7 C6 1_555 1_555
O8 C6 1_555 1_555
C1 C2 1_555 1_555
C2 C3 1_555 1_555
C3 C4 1_555 1_555
C4 H2 1_555 1_555
C5 O5 1_555 1_555
C6 C3 1_555 1_555
C7 C8 1_555 1_555
C8 C9 1_555 1_555
C9 C10 1_555 1_555
C10 C11 1_555 1_555
C11 N1 1_555 1_555
C12 C9 1_555 1_555
C13 C12 1_555 1_555
C14 C13 1_555 1_555
C15 C16 1_555 1_555
C16 C12 1_555 1_555
N1 C7 1_555 1_555
N2 C14 1_555 1_555
H1 C1 1_555 1_555
H3 C7 1_555 1_555
H4 C8 1_555 1_555
H5 C10 1_555 1_555
H6 C11 1_555 1_555
H7 C13 1_555 1_555
H8 C14 1_555 1_555
H9 C15 1_555 1_555
H10 C16 1_555 1_555
H11 N1 1_555 1_555
H12 O3 1_555 1_555
H13 O4 1_555 1_555
Zn1F O2 1_555 1_555
Zn1_2 O7 1_555 1_555
Zn1A O7A 1_555 1_555
Zn1A_2 O5A 1_555 1_555
P1F O1F 1_555 1_555
O1F Zn1F 1_555 1_555
O2F Zn1 1_555 1_555
O3F P1F 1_555 1_555
O4F P1F 1_555 1_555
O5A C5A 1_555 1_555
O5F Zn1F 1_555 1_555
O6A C5A 1_555 1_555
O7A C6A 1_555 1_555
O7_2 Zn1 1_555 1_555
O7F Zn1F 1_555 1_555
O8A C6A 1_555 1_555
C2A C1 1_555 1_555
C3A C4 1_555 1_555
C5A C2A 1_555 1_555
C6A C3A 1_555 1_555
H12F O3F 1_555 1_555
H13F O4F 1_555 1_555
C2 C5 1_555 1_555
C15 N2 1_555 1_555
P1F O2F 1_555 1_555
C2A C3A 1_555 1_555

#END
