
#######################################################################
#
#                 Cambridge Crystallographic Data Centre
#                                CCDC 
#
#######################################################################
#
# If this CIF has been generated from an entry in the Cambridge 
# Structural Database, then it will include bibliographic, chemical, 
# crystal, experimental, refinement or atomic coordinate data resulting 
# from the CCDC's data processing and validation procedures.
#
#######################################################################

data_ERAROE
_symmetry_cell_setting           orthorhombic
_symmetry_space_group_name_H-M   'P m n 21'
_symmetry_Int_Tables_number      31
_space_group_name_Hall           'P 2ac -2'
loop_
_symmetry_equiv_pos_site_id
_symmetry_equiv_pos_as_xyz
1 x,y,z
2 1/2-x,-y,1/2+z
3 1/2+x,-y,1/2+z
4 -x,y,z
_cell_length_a                   22.993(2)
_cell_length_b                   6.0940(5)
_cell_length_c                   5.3827(6)
_cell_angle_alpha                90
_cell_angle_beta                 90
_cell_angle_gamma                90
_cell_volume                     754.22
loop_
_atom_site_label
_atom_site_type_symbol
_atom_site_fract_x
_atom_site_fract_y
_atom_site_fract_z
Cu1 Cu 0.5000 0.44072(8) 0.60211(11)
S1 S 0.5000 0.17353(19) 0.9073(2)
N1 N 0.5000 -0.2550(7) 0.7059(9)
N2 N 0.42627(14) 0.4028(5) 0.3829(6)
N3 N 0.34649(16) 0.8107(5) -0.2962(7)
N4 N 0.25062(14) 0.2675(5) -0.2558(7)
C1 C 0.5000 -0.0750(8) 0.7808(10)
C2 C 0.41305(17) 0.5491(5) 0.2077(7)
H1 H 0.4357 0.6792 0.1969
C3 C 0.36815(17) 0.5203(6) 0.0416(6)
C4 C 0.35600(16) 0.6823(6) -0.1451(7)
C5 C 0.33369(17) 0.3291(6) 0.0590(6)
C6 C 0.28715(16) 0.2934(6) -0.1139(7)
C7 C 0.34695(16) 0.1764(6) 0.2440(8)
H2 H 0.3249 0.0456 0.2627
C8 C 0.39349(15) 0.2225(6) 0.3993(7)
H3 H 0.4026 0.1191 0.5255
N2C N 0.57373(14) 0.4028(5) 0.3829(6)
N3C N 0.65351(16) 0.8107(5) -0.2962(7)
N4C N 0.74938(14) 0.2675(5) -0.2558(7)
C2C C 0.58695(17) 0.5491(5) 0.2077(7)
H1C H 0.5643 0.6792 0.1969
C3C C 0.63185(17) 0.5203(6) 0.0416(6)
C4C C 0.64400(16) 0.6823(6) -0.1451(7)
C5C C 0.66631(17) 0.3291(6) 0.0590(6)
C6C C 0.71285(16) 0.2934(6) -0.1139(7)
C7C C 0.65305(16) 0.1764(6) 0.2440(8)
H2C H 0.6751 0.0456 0.2627
C8C C 0.60651(15) 0.2225(6) 0.3993(7)
H3C H 0.5974 0.1191 0.5255
N1_2 N 0.5000 0.7450(7) 0.7059(9)
Cu1_2 Cu 0.5000 -0.55928(8) 0.60211(11)
loop_
_geom_bond_atom_site_label_1
_geom_bond_atom_site_label_2
_geom_bond_site_symmetry_1
_geom_bond_site_symmetry_2
Cu1 S1 1_555 1_555
S1 C1 1_555 1_555
N1 C1 1_555 1_555
N2 Cu1 1_555 1_555
N3 C4 1_555 1_555
N4 C6 1_555 1_555
C2 N2 1_555 1_555
H1 C2 1_555 1_555
C3 C2 1_555 1_555
C4 C3 1_555 1_555
C5 C3 1_555 1_555
C6 C5 1_555 1_555
C7 C5 1_555 1_555
H2 C7 1_555 1_555
C8 N2 1_555 1_555
H3 C8 1_555 1_555
N2C Cu1 1_555 1_555
N3C C4C 1_555 1_555
N4C C6C 1_555 1_555
C2C N2C 1_555 1_555
H1C C2C 1_555 1_555
C3C C2C 1_555 1_555
C4C C3C 1_555 1_555
C5C C3C 1_555 1_555
C6C C5C 1_555 1_555
C7C C5C 1_555 1_555
H2C C7C 1_555 1_555
C8C N2C 1_555 1_555
H3C C8C 1_555 1_555
N1_2 Cu1 1_555 1_555
Cu1_2 N1 1_555 1_555
C7 C8 1_555 1_555
C7C C8C 1_555 1_555

#END
