
#######################################################################
#
#                 Cambridge Crystallographic Data Centre
#                                CCDC 
#
#######################################################################
#
# If this CIF has been generated from an entry in the Cambridge 
# Structural Database, then it will include bibliographic, chemical, 
# crystal, experimental, refinement or atomic coordinate data resulting 
# from the CCDC's data processing and validation procedures.
#
#######################################################################

data_ERARIY
_symmetry_cell_setting           orthorhombic
_symmetry_space_group_name_H-M   'P n m a'
_symmetry_Int_Tables_number      62
_space_group_name_Hall           '-P 2ac 2n'
loop_
_symmetry_equiv_pos_site_id
_symmetry_equiv_pos_as_xyz
1 x,y,z
2 1/2+x,y,1/2-z
3 x,1/2-y,z
4 1/2-x,1/2+y,1/2+z
5 -x,-y,-z
6 1/2-x,-y,1/2+z
7 -x,1/2+y,-z
8 1/2+x,1/2-y,1/2-z
_cell_length_a                   11.2816(7)
_cell_length_b                   19.3224(11)
_cell_length_c                   6.1554(4)
_cell_angle_alpha                90
_cell_angle_beta                 90
_cell_angle_gamma                90
_cell_volume                     1341.8
loop_
_atom_site_label
_atom_site_type_symbol
_atom_site_fract_x
_atom_site_fract_y
_atom_site_fract_z
Cu1 Cu 0.71036(2) 0.2500 0.61768(4)
N1 N 0.59403(11) 0.33473(7) 0.59318(19)
C1 C 0.51851(13) 0.34368(8) 0.7602(2)
H1 H 0.5359 0.3215 0.8942
C2 C 0.41696(14) 0.38347(8) 0.7468(2)
H2 H 0.3649 0.3878 0.8674
C3 C 0.39299(13) 0.41725(7) 0.5507(2)
C4 C 0.47293(14) 0.41183(9) 0.3796(2)
H3 H 0.4605 0.4361 0.2473
C5 C 0.57195(14) 0.36962(8) 0.4085(2)
H4 H 0.6266 0.3653 0.2918
C6 C 0.28199(14) 0.45445(9) 0.5278(3)
N2 N 0.19184(14) 0.48146(9) 0.5125(3)
S1 S 0.85087(5) 0.2500 0.35256(8)
C7 C 0.78964(17) 0.2500 0.1069(3)
N3 N 0.75351(17) 0.2500 -0.0689(3)
N1B N 0.59403(11) 0.16527(7) 0.59318(19)
C1B C 0.51851(13) 0.15632(8) 0.7602(2)
H1B H 0.5359 0.1785 0.8942
C2B C 0.41696(14) 0.11653(8) 0.7468(2)
H2B H 0.3649 0.1122 0.8674
C3B C 0.39299(13) 0.08275(7) 0.5507(2)
C4B C 0.47293(14) 0.08817(9) 0.3796(2)
H3B H 0.4605 0.0639 0.2473
C5B C 0.57195(14) 0.13038(8) 0.4085(2)
H4B H 0.6266 0.1347 0.2918
C6B C 0.28199(14) 0.04555(9) 0.5278(3)
N2B N 0.19184(14) 0.01854(9) 0.5125(3)
N3_2 N 0.75351(17) 0.2500 0.9311(3)
Cu1_2 Cu 0.71036(2) 0.2500 -0.38232(4)
loop_
_geom_bond_atom_site_label_1
_geom_bond_atom_site_label_2
_geom_bond_site_symmetry_1
_geom_bond_site_symmetry_2
Cu1 N1 1_555 1_555
N1 C1 1_555 1_555
C1 H1 1_555 1_555
C2 C1 1_555 1_555
H2 C2 1_555 1_555
C3 C2 1_555 1_555
C4 C3 1_555 1_555
H3 C4 1_555 1_555
C5 N1 1_555 1_555
H4 C5 1_555 1_555
C6 C3 1_555 1_555
N2 C6 1_555 1_555
S1 Cu1 1_555 1_555
C7 S1 1_555 1_555
N3 C7 1_555 1_555
N1B Cu1 1_555 1_555
C1B N1B 1_555 1_555
H1B C1B 1_555 1_555
C2B C1B 1_555 1_555
H2B C2B 1_555 1_555
C3B C2B 1_555 1_555
C4B C3B 1_555 1_555
H3B C4B 1_555 1_555
C5B N1B 1_555 1_555
H4B C5B 1_555 1_555
C6B C3B 1_555 1_555
N2B C6B 1_555 1_555
N3_2 Cu1 1_555 1_555
Cu1_2 N3 1_555 1_555
C4 C5 1_555 1_555
C4B C5B 1_555 1_555

#END
