
#######################################################################
#
#                 Cambridge Crystallographic Data Centre
#                                CCDC 
#
#######################################################################
#
# If this CIF has been generated from an entry in the Cambridge 
# Structural Database, then it will include bibliographic, chemical, 
# crystal, experimental, refinement or atomic coordinate data resulting 
# from the CCDC's data processing and validation procedures.
#
#######################################################################

data_ERARUL01
_symmetry_cell_setting           monoclinic
_symmetry_space_group_name_H-M   'C 2/c'
_symmetry_Int_Tables_number      15
_space_group_name_Hall           '-C 2yn'
loop_
_symmetry_equiv_pos_site_id
_symmetry_equiv_pos_as_xyz
1 x,y,z
2 -x,y,1/2-z
3 1/2+x,1/2+y,z
4 1/2-x,1/2+y,1/2-z
5 -x,-y,-z
6 x,-y,1/2+z
7 1/2-x,1/2-y,-z
8 1/2+x,1/2-y,1/2+z
_cell_length_a                   25.265(3)
_cell_length_b                   7.8436(9)
_cell_length_c                   18.643(2)
_cell_angle_alpha                90
_cell_angle_beta                 116.385(2)
_cell_angle_gamma                90
_cell_volume                     3309.6
loop_
_atom_site_label
_atom_site_type_symbol
_atom_site_fract_x
_atom_site_fract_y
_atom_site_fract_z
Zn1 Zn 0.337327(7) 0.68231(2) 0.613256(10)
P1 P 0.288657(16) 0.69803(5) 0.42970(2)
O1 O 0.32756(5) 0.77171(14) 0.51115(6)
O2 O 0.23558(5) 0.80603(13) 0.37757(6)
O3 O 0.32568(5) 0.67264(15) 0.38260(7)
O4 O 0.26647(5) 0.51818(14) 0.44211(7)
O5 O 0.39533(5) 0.83636(13) 0.69246(7)
O6 O 0.34293(5) 1.07440(14) 0.63995(7)
O7 O 0.37996(5) 1.46833(14) 0.62678(6)
O8 O 0.36557(5) 1.39937(15) 0.73349(6)
C1 C 0.5000 1.0114(3) 0.7500
C2 C 0.44621(6) 1.09808(18) 0.71868(8)
C3 C 0.44643(6) 1.27607(19) 0.71930(8)
C4 C 0.5000 1.3635(3) 0.7500
C5 C 0.38984(6) 0.99720(19) 0.68099(8)
C6 C 0.39177(6) 1.38561(18) 0.69099(9)
H1 H 0.5000 0.8954 0.7500
H2 H 0.5000 1.4819 0.7500
H12 H 0.3639 0.6881 0.4059
H13 H 0.2283 0.4978 0.4123
Zn1F Zn 0.162673(7) 0.81769(2) 0.386744(10)
Zn1_2 Zn 0.337327(7) 1.68231(2) 0.613256(10)
Zn1A Zn 0.662673(7) 1.68231(2) 0.886744(10)
Zn1A_2 Zn 0.662673(7) 0.68231(2) 0.886744(10)
P1F P 0.211343(16) 0.80197(5) 0.57030(2)
O1F O 0.17244(5) 0.72829(14) 0.48885(6)
O2F O 0.26442(5) 0.69397(13) 0.62243(6)
O3F O 0.17432(5) 0.82736(15) 0.61740(7)
O4F O 0.23353(5) 0.98182(14) 0.55789(7)
O5A O 0.60467(5) 0.83636(13) 0.80754(7)
O5F O 0.10467(5) 0.66364(13) 0.30754(7)
O6A O 0.65707(5) 1.07440(14) 0.86005(7)
O7A O 0.62004(5) 1.46833(14) 0.87322(6)
O7_2 O 0.37996(5) 0.46833(14) 0.62678(6)
O7F O 0.12004(5) 1.03167(14) 0.37322(6)
O8A O 0.63443(5) 1.39937(15) 0.76651(6)
C2A C 0.55379(6) 1.09808(18) 0.78132(8)
C3A C 0.55357(6) 1.27607(19) 0.78070(8)
C5A C 0.61016(6) 0.99720(19) 0.81901(8)
C6A C 0.60823(6) 1.38561(18) 0.80901(9)
H12F H 0.1361 0.8119 0.5941
H13F H 0.2717 1.0022 0.5877
C7 C 0.28234(7) 1.1505(2) 0.42175(9)
C8 C 0.34268(7) 1.17330(19) 0.46073(9)
C9 C 0.37283(7) 1.2260(2) 0.41766(9)
C10 C 0.34045(7) 1.2592(2) 0.33586(9)
C11 C 0.28012(7) 1.2347(2) 0.29966(9)
C12 C 0.43801(7) 1.2452(2) 0.45816(9)
C13 C 0.46646(7) 1.3066(2) 0.53656(10)
C14 C 0.52766(7) 1.3197(2) 0.57304(10)
C15 C 0.53348(8) 1.2174(3) 0.46105(11)
C16 C 0.47247(8) 1.2009(2) 0.41975(10)
N1 N 0.25295(6) 1.17946(16) 0.34283(8)
N2 N 0.56084(6) 1.2755(2) 0.53642(9)
H3 H 0.2624 1.1122 0.4497
H4 H 0.3604 1.1556 0.5133
H5 H 0.3604 1.3015 0.3059
H6 H 0.2587 1.2543 0.2459
H7 H 0.4442 1.3437 0.5611
H8 H 0.5510 1.3615 0.6275
H9 H 0.5579 1.1905 0.4384
H10 H 0.4555 1.1590 0.3685
H11 H 0.2144 1.1574 0.3197
loop_
_geom_bond_atom_site_label_1
_geom_bond_atom_site_label_2
_geom_bond_site_symmetry_1
_geom_bond_site_symmetry_2
Zn1 O1 1_555 1_555
P1 O1 1_555 1_555
O2 P1 1_555 1_555
O3 P1 1_555 1_555
O4 P1 1_555 1_555
O5 Zn1 1_555 1_555
O6 C5 1_555 1_555
O7 C6 1_555 1_555
O8 C6 1_555 1_555
C1 C2 1_555 1_555
C2 C3 1_555 1_555
C3 C4 1_555 1_555
C4 H2 1_555 1_555
C5 O5 1_555 1_555
C6 C3 1_555 1_555
C7 C8 1_555 1_555
C8 C9 1_555 1_555
C9 C10 1_555 1_555
C10 C11 1_555 1_555
C11 N1 1_555 1_555
C12 C9 1_555 1_555
C13 C12 1_555 1_555
C14 C13 1_555 1_555
C15 C16 1_555 1_555
C16 C12 1_555 1_555
N1 C7 1_555 1_555
N2 C14 1_555 1_555
H1 C1 1_555 1_555
H3 C7 1_555 1_555
H4 C8 1_555 1_555
H5 C10 1_555 1_555
H6 C11 1_555 1_555
H7 C13 1_555 1_555
H8 C14 1_555 1_555
H9 C15 1_555 1_555
H10 C16 1_555 1_555
H11 N1 1_555 1_555
H12 O3 1_555 1_555
H13 O4 1_555 1_555
Zn1F O2 1_555 1_555
Zn1_2 O7 1_555 1_555
Zn1A O7A 1_555 1_555
Zn1A_2 O5A 1_555 1_555
P1F O1F 1_555 1_555
O1F Zn1F 1_555 1_555
O2F Zn1 1_555 1_555
O3F P1F 1_555 1_555
O4F P1F 1_555 1_555
O5A C5A 1_555 1_555
O5F Zn1F 1_555 1_555
O6A C5A 1_555 1_555
O7A C6A 1_555 1_555
O7_2 Zn1 1_555 1_555
O7F Zn1F 1_555 1_555
O8A C6A 1_555 1_555
C2A C1 1_555 1_555
C3A C4 1_555 1_555
C5A C2A 1_555 1_555
C6A C3A 1_555 1_555
H12F O3F 1_555 1_555
H13F O4F 1_555 1_555
C2 C5 1_555 1_555
C15 N2 1_555 1_555
P1F O2F 1_555 1_555
C2A C3A 1_555 1_555

#END
