
#######################################################################
#
#                 Cambridge Crystallographic Data Centre
#                                CCDC 
#
#######################################################################
#
# If this CIF has been generated from an entry in the Cambridge 
# Structural Database, then it will include bibliographic, chemical, 
# crystal, experimental, refinement or atomic coordinate data resulting 
# from the CCDC's data processing and validation procedures.
#
#######################################################################

data_ERATAS
_symmetry_cell_setting           monoclinic
_symmetry_space_group_name_H-M   'C 2/c'
_symmetry_Int_Tables_number      15
_space_group_name_Hall           '-C 2yn'
loop_
_symmetry_equiv_pos_site_id
_symmetry_equiv_pos_as_xyz
1 x,y,z
2 1/2+x,1/2+y,z
3 x,-y,1/2+z
4 1/2+x,1/2-y,1/2+z
5 -x,-y,-z
6 1/2-x,1/2-y,-z
7 -x,y,1/2-z
8 1/2-x,1/2+y,1/2-z
_cell_length_a                   14.2486(12)
_cell_length_b                   8.2733(7)
_cell_length_c                   39.298(2)
_cell_angle_alpha                90
_cell_angle_beta                 99.530(6)
_cell_angle_gamma                90
_cell_volume                     4568.63
loop_
_atom_site_label
_atom_site_type_symbol
_atom_site_fract_x
_atom_site_fract_y
_atom_site_fract_z
Eu1 Eu 0.76139(5) 0.03962(9) 0.62764(2)
Eu2 Eu 0.53015(4) -0.25660(8) 0.62372(2)
O1 O 0.8926(7) -0.0655(14) 0.6651(3)
O2 O 0.6666(6) -0.1428(14) 0.6604(2)
O3 O 0.6056(7) -0.0327(12) 0.5963(2)
O4 O 1.0329(8) 0.0523(14) 0.6659(3)
O5 O 0.6583(9) 0.2743(16) 0.6215(3)
O6 O 0.6384(7) -0.2268(12) 0.8608(3)
O7 O 0.6553(7) -0.3878(14) 0.6026(3)
O8 O 0.7767(7) -0.2165(13) 0.6027(3)
O9 O 0.5755(9) -0.5570(13) 0.4085(3)
O10 O 0.5334(7) -0.0398(14) 0.8442(3)
O11 O 0.7238(8) -0.6074(15) 0.4315(2)
O12 O 0.4693(7) -0.1174(14) 0.5692(3)
O13 O 0.7274(9) 0.0724(14) 0.6878(3)
C1 C 0.5382(10) -0.0221(18) 0.5706(4)
C2 C 0.5436(12) 0.1016(22) 0.5443(4)
H1 H 0.6091(12) 0.1093(22) 0.5407(4)
H2 H 0.5266(12) 0.2049(22) 0.5532(4)
C3 C 0.4802(12) 0.0734(21) 0.5091(4)
H3 H 0.4798(12) 0.1694(21) 0.4949(4)
H4 H 0.4154(12) 0.0516(21) 0.5124(4)
C4 C 0.7264(9) -0.3411(18) 0.5907(4)
C5 C 0.7560(11) -0.4251(22) 0.5605(4)
H5 H 0.7860(11) -0.5271(22) 0.5680(4)
H6 H 0.8023(11) -0.3591(22) 0.5514(4)
C6 C 0.6710(11) -0.4567(23) 0.5319(4)
H7 H 0.6306(11) -0.5380(23) 0.5398(4)
H8 H 0.6340(11) -0.3581(23) 0.5277(4)
C7 C 0.6985(12) -0.5127(23) 0.4984(4)
H9 H 0.7395(12) -0.4317(23) 0.4907(4)
H10 H 0.7352(12) -0.6116(23) 0.5027(4)
C8 C 0.6163(11) -0.5432(25) 0.4698(4)
H11 H 0.5731(11) -0.4519(25) 0.4688(4)
H12 H 0.5822(11) -0.6376(25) 0.4759(4)
C9 C 0.6399(11) -0.5689(17) 0.4349(3)
C10 C 0.6837(9) -0.0599(18) 0.6881(3)
C11 C 0.6522(11) -0.1222(21) 0.7196(3)
H13 H 0.6694(11) -0.2356(21) 0.7218(3)
H14 H 0.5833(11) -0.1166(21) 0.7160(3)
C12 C 0.6893(10) -0.0414(19) 0.7538(3)
H15 H 0.6787(10) 0.0742(19) 0.7518(3)
H16 H 0.7573(10) -0.0598(19) 0.7598(3)
C13 C 0.6397(10) -0.1076(18) 0.7823(3)
H17 H 0.5721(10) -0.0853(18) 0.7762(3)
H18 H 0.6474(10) -0.2241(18) 0.7830(3)
C14 C 0.6743(10) -0.0412(21) 0.8178(3)
H19 H 0.7401(10) -0.0720(21) 0.8254(3)
H20 H 0.6706(10) 0.0759(21) 0.8174(3)
C15 C 0.6135(9) -0.1070(20) 0.8423(3)
C16 C 0.9795(10) -0.0510(18) 0.6760(3)
C17 C 1.0253(12) -0.1675(27) 0.7028(5)
H21 H 1.0932(12) -0.1470(27) 0.7079(5)
H22 H 1.0158(12) -0.2770(27) 0.6941(5)
C18 C 0.9823(17) -0.1500(74) 0.7358(7)
H23 H 0.9471(17) -0.0493(74) 0.7328(7)
H24 H 0.9347(17) -0.2347(74) 0.7342(7)
H25 H 0.6607(76) 0.357(16) 0.6118(29)
H26 H 0.6018(86) 0.269(13) 0.6280(28)
C18F C 1.0177(17) -0.1500(74) 0.7642(7)
C17F C 0.9747(12) -0.1675(27) 0.7972(5)
C16F C 1.0205(10) -0.0510(18) 0.8240(3)
O1F O 1.1074(7) -0.0655(14) 0.8349(3)
O4F O 0.9671(8) 0.0523(14) 0.8341(3)
H21F H 0.9068(12) -0.1470(27) 0.7921(5)
H22F H 0.9842(12) -0.2770(27) 0.8059(5)
H23F H 1.0529(17) -0.0493(74) 0.7672(7)
H24F H 1.0653(17) -0.2347(74) 0.7658(7)
C3D C 0.5198(12) -0.0734(21) 0.4909(4)
C2D C 0.4564(12) -0.1016(22) 0.4557(4)
C1D C 0.4618(10) 0.0221(18) 0.4294(4)
O3D O 0.3944(7) 0.0327(12) 0.4037(2)
O12D O 0.5307(7) 0.1174(14) 0.4308(3)
H1D H 0.3909(12) -0.1093(22) 0.4593(4)
H2D H 0.4734(12) -0.2049(22) 0.4468(4)
H3D H 0.5202(12) -0.1694(21) 0.5051(4)
H4D H 0.5846(12) -0.0516(21) 0.4876(4)
O2G O 0.8334(6) 0.3572(14) 0.8396(2)
O6G O 0.8616(7) 0.2732(12) 0.6392(3)
O10G O 0.9666(7) 0.4602(14) 0.6558(3)
O13G O 0.7726(9) 0.5724(14) 0.8122(3)
C10G C 0.8163(9) 0.4401(18) 0.8119(3)
C11G C 0.8478(11) 0.3778(21) 0.7804(3)
H13G H 0.8306(11) 0.2644(21) 0.7782(3)
H14G H 0.9167(11) 0.3834(21) 0.7840(3)
C12G C 0.8107(10) 0.4586(19) 0.7462(3)
H15G H 0.8213(10) 0.5742(19) 0.7482(3)
H16G H 0.7427(10) 0.4402(19) 0.7402(3)
C13G C 0.8603(10) 0.3924(18) 0.7177(3)
H17G H 0.9279(10) 0.4147(18) 0.7238(3)
H18G H 0.8526(10) 0.2759(18) 0.7170(3)
C14G C 0.8257(10) 0.4588(21) 0.6822(3)
H19G H 0.7599(10) 0.4280(21) 0.6746(3)
H20G H 0.8294(10) 0.5759(21) 0.6826(3)
C15G C 0.8865(9) 0.3930(20) 0.6577(3)
O7E O 0.8447(7) -0.1122(14) 0.3974(3)
O8E O 0.7233(7) -0.2835(13) 0.3973(3)
O9E O 0.9245(9) 0.0570(13) 0.5915(3)
O11E O 0.7762(8) 0.1074(15) 0.5685(2)
C4E C 0.7736(9) -0.1589(18) 0.4093(4)
C5E C 0.7440(11) -0.0749(22) 0.4395(4)
H5E H 0.7140(11) 0.0271(22) 0.4320(4)
H6E H 0.6977(11) -0.1409(22) 0.4486(4)
C6E C 0.8290(11) -0.0433(23) 0.4681(4)
H7E H 0.8694(11) 0.0380(23) 0.4602(4)
H8E H 0.8660(11) -0.1419(23) 0.4723(4)
C7E C 0.8015(12) 0.0127(23) 0.5016(4)
H9E H 0.7605(12) -0.0683(23) 0.5093(4)
H10E H 0.7648(12) 0.1116(23) 0.4973(4)
C8E C 0.8837(11) 0.0432(25) 0.5302(4)
H11E H 0.9269(11) -0.0481(25) 0.5312(4)
H12E H 0.9178(11) 0.1376(25) 0.5241(4)
C9E C 0.8601(11) 0.0689(17) 0.5651(3)
Eu1F Eu 1.23861(5) 0.03962(9) 0.87236(2)
Eu2G Eu 0.96985(4) 0.24340(8) 0.87628(2)
O5F O 1.3417(9) 0.2743(16) 0.8785(3)
H25F H 1.3393(76) 0.357(16) 0.8882(29)
H26F H 1.3982(86) 0.269(13) 0.8720(28)
O4A O 0.5329(8) -0.4477(14) 0.6659(3)
O6F O 0.3616(7) -0.2268(12) 0.6392(3)
O9D O 0.4245(9) -0.4430(13) 0.5915(3)
O10F O 0.4666(7) -0.0398(14) 0.6558(3)
Eu2A Eu 1.03015(4) 0.24340(8) 0.62372(2)
Eu1G Eu 0.73861(5) -0.46038(9) 0.87236(2)
Eu2F Eu 0.46985(4) -0.25660(8) 0.87628(2)
Eu1E Eu 0.73861(5) -0.53962(9) 0.37236(2)
Eu2D Eu 0.46985(4) -0.74340(8) 0.37628(2)
Eu1D Eu 0.23861(5) -0.03962(9) 0.37236(2)
Eu2D_2 Eu 0.46985(4) 0.25660(8) 0.37628(2)
Eu1G_2 Eu 0.73861(5) 0.53962(9) 0.87236(2)
Eu2E Eu 0.96985(4) -0.24340(8) 0.37628(2)
O2F O 1.3334(6) -0.1428(14) 0.8396(2)
O3F O 1.3944(7) -0.0327(12) 0.9037(2)
O6A O 1.1384(7) 0.2732(12) 0.8608(3)
O8F O 1.2233(7) -0.2165(13) 0.8973(3)
O9C O 1.0755(9) 0.0570(13) 0.9085(3)
O11C O 1.2238(8) 0.1074(15) 0.9315(2)
O13F O 1.2726(9) 0.0724(14) 0.8122(3)
O3G O 0.8944(7) 0.4673(12) 0.9037(2)
O7G O 0.8447(7) 0.1122(14) 0.8974(3)
O10A O 1.0334(7) 0.4602(14) 0.8442(3)
O12G O 1.0307(7) 0.3826(14) 0.9308(3)
O14 O 0.4772(12) 0.2269(20) 0.6125(5)
loop_
_geom_bond_atom_site_label_1
_geom_bond_atom_site_label_2
_geom_bond_site_symmetry_1
_geom_bond_site_symmetry_2
Eu1 O1 1_555 1_555
Eu2 O2 1_555 1_555
O1 C16 1_555 1_555
O2 Eu1 1_555 1_555
O3 Eu1 1_555 1_555
O4 C16 1_555 1_555
O5 Eu1 1_555 1_555
O6 C15 1_555 1_555
O7 Eu2 1_555 1_555
O8 Eu1 1_555 1_555
O9 C9 1_555 1_555
O10 C15 1_555 1_555
O11 C9 1_555 1_555
O12 Eu2 1_555 1_555
O13 Eu1 1_555 1_555
C1 O3 1_555 1_555
C2 C1 1_555 1_555
H1 C2 1_555 1_555
H2 C2 1_555 1_555
C3 C2 1_555 1_555
H3 C3 1_555 1_555
H4 C3 1_555 1_555
C4 O7 1_555 1_555
C5 C4 1_555 1_555
H5 C5 1_555 1_555
H6 C5 1_555 1_555
C6 C5 1_555 1_555
H7 C6 1_555 1_555
H8 C6 1_555 1_555
C7 C6 1_555 1_555
H9 C7 1_555 1_555
H10 C7 1_555 1_555
C8 C7 1_555 1_555
H11 C8 1_555 1_555
H12 C8 1_555 1_555
C9 C8 1_555 1_555
C10 O2 1_555 1_555
C11 C10 1_555 1_555
H13 C11 1_555 1_555
H14 C11 1_555 1_555
C12 C11 1_555 1_555
H15 C12 1_555 1_555
H16 C12 1_555 1_555
C13 C12 1_555 1_555
H17 C13 1_555 1_555
H18 C13 1_555 1_555
C14 C13 1_555 1_555
H19 C14 1_555 1_555
H20 C14 1_555 1_555
C15 C14 1_555 1_555
C16 C17 1_555 1_555
C17 H21 1_555 1_555
H22 C17 1_555 1_555
C18 C17 1_555 1_555
H23 C18 1_555 1_555
H24 C18 1_555 1_555
H25 O5 1_555 1_555
H26 O5 1_555 1_555
C18F C18 1_555 1_555
C17F C18F 1_555 1_555
C16F C17F 1_555 1_555
O1F C16F 1_555 1_555
O4F C16F 1_555 1_555
H21F C17F 1_555 1_555
H22F C17F 1_555 1_555
H23F C18F 1_555 1_555
H24F C18F 1_555 1_555
C3D C3 1_555 1_555
C2D C3D 1_555 1_555
C1D C2D 1_555 1_555
O3D C1D 1_555 1_555
O12D C1D 1_555 1_555
H1D C2D 1_555 1_555
H2D C2D 1_555 1_555
H3D C3D 1_555 1_555
H4D C3D 1_555 1_555
O2G C10G 1_555 1_555
O6G Eu1 1_555 1_555
O10G C15G 1_555 1_555
O13G C10G 1_555 1_555
C10G C11G 1_555 1_555
C11G H13G 1_555 1_555
H14G C11G 1_555 1_555
C12G C11G 1_555 1_555
H15G C12G 1_555 1_555
H16G C12G 1_555 1_555
C13G C12G 1_555 1_555
H17G C13G 1_555 1_555
H18G C13G 1_555 1_555
C14G C13G 1_555 1_555
H19G C14G 1_555 1_555
H20G C14G 1_555 1_555
C15G O6G 1_555 1_555
O7E C4E 1_555 1_555
O8E C4E 1_555 1_555
O9E Eu1 1_555 1_555
O11E Eu1 1_555 1_555
C4E C5E 1_555 1_555
C5E H5E 1_555 1_555
H6E C5E 1_555 1_555
C6E C5E 1_555 1_555
H7E C6E 1_555 1_555
H8E C6E 1_555 1_555
C7E C6E 1_555 1_555
H9E C7E 1_555 1_555
H10E C7E 1_555 1_555
C8E C7E 1_555 1_555
H11E C8E 1_555 1_555
H12E C8E 1_555 1_555
C9E O9E 1_555 1_555
Eu1F O1F 1_555 1_555
Eu2G O4F 1_555 1_555
O5F Eu1F 1_555 1_555
H25F O5F 1_555 1_555
H26F O5F 1_555 1_555
O4A Eu2 1_555 1_555
O6F Eu2 1_555 1_555
O9D Eu2 1_555 1_555
O10F Eu2 1_555 1_555
Eu2A O4 1_555 1_555
Eu1G O6 1_555 1_555
Eu2F O6 1_555 1_555
Eu1E O9 1_555 1_555
Eu2D O9 1_555 1_555
Eu1D O3D 1_555 1_555
Eu2D_2 O3D 1_555 1_555
Eu1G_2 O2G 1_555 1_555
Eu2E O7E 1_555 1_555
O2F Eu1F 1_555 1_555
O3F Eu1F 1_555 1_555
O6A Eu1F 1_555 1_555
O8F Eu1F 1_555 1_555
O9C Eu1F 1_555 1_555
O11C Eu1F 1_555 1_555
O13F Eu1F 1_555 1_555
O3G Eu2G 1_555 1_555
O7G Eu2G 1_555 1_555
O10A Eu2G 1_555 1_555
O12G Eu2G 1_555 1_555
Eu2 O3 1_555 1_555
O8 C4 1_555 1_555
O10 Eu2F 1_555 1_555
O11 Eu1E 1_555 1_555
O12 C1 1_555 1_555
O13 C10 1_555 1_555
O12D Eu2D_2 1_555 1_555
O2G Eu2G 1_555 1_555
O6G Eu2A 1_555 1_555
O10G Eu2A 1_555 1_555
O13G Eu1G_2 1_555 1_555
C14G C15G 1_555 1_555
O8E Eu1E 1_555 1_555
O9E Eu2A 1_555 1_555
O11E C9E 1_555 1_555
C8E C9E 1_555 1_555
Eu2G O6A 1_555 1_555
Eu2G O9C 1_555 1_555
Eu1G_2 O3G 1_555 1_555

#END
