
#######################################################################
#
#                 Cambridge Crystallographic Data Centre
#                                CCDC 
#
#######################################################################
#
# If this CIF has been generated from an entry in the Cambridge 
# Structural Database, then it will include bibliographic, chemical, 
# crystal, experimental, refinement or atomic coordinate data resulting 
# from the CCDC's data processing and validation procedures.
#
#######################################################################

data_EREGUE
_symmetry_cell_setting           monoclinic
_symmetry_space_group_name_H-M   'P 21/c'
_symmetry_Int_Tables_number      14
_space_group_name_Hall           '-P 2ybc'
loop_
_symmetry_equiv_pos_site_id
_symmetry_equiv_pos_as_xyz
1 x,y,z
2 -x,1/2+y,1/2-z
3 -x,-y,-z
4 x,1/2-y,1/2+z
_cell_length_a                   16.2261(19)
_cell_length_b                   18.8061(16)
_cell_length_c                   9.0919(10)
_cell_angle_alpha                90
_cell_angle_beta                 105.859(12)
_cell_angle_gamma                90
_cell_volume                     2668.79
loop_
_atom_site_label
_atom_site_type_symbol
_atom_site_fract_x
_atom_site_fract_y
_atom_site_fract_z
Cd1 Cd 0.240966(11) 0.720430(9) -0.09919(2)
C1 C 0.35987(17) 0.82902(13) -0.0470(3)
C2 C 0.42525(15) 0.89007(12) -0.0087(3)
H1 H 0.4551 0.8914 -0.0889
C3 C 0.38346(15) 0.96134(13) -0.0071(3)
C4 C 0.32104(17) 0.98568(15) -0.1346(3)
H2 H 0.3048 0.9570 -0.2211
C5 C 0.28278(19) 1.05091(16) -0.1360(4)
H3 H 0.2412 1.0662 -0.2224
C6 C 0.3065(2) 1.09341(16) -0.0084(4)
H4 H 0.2806 1.1375 -0.0082
C7 C 0.36849(19) 1.07104(15) 0.1190(4)
H5 H 0.3848 1.1001 0.2049
C8 C 0.40651(17) 1.00497(14) 0.1188(3)
C9 C 0.50892(17) 0.92325(15) 0.2602(3)
C10 C 0.57138(19) 0.91030(18) 0.3974(3)
H6 H 0.5826 0.9439 0.4755
C11 C 0.6157(2) 0.8479(2) 0.4154(4)
H7 H 0.6572 0.8388 0.5066
C12 C 0.5996(2) 0.79856(19) 0.3006(5)
H8 H 0.6298 0.7559 0.3138
C13 C 0.53808(19) 0.81242(16) 0.1645(4)
H9 H 0.5278 0.7788 0.0865
C14 C 0.49178(16) 0.87492(14) 0.1420(3)
C15 C 0.12210(15) 0.70748(12) 0.0774(3)
C16 C 0.04226(15) 0.70213(13) 0.1346(3)
H10 H 0.0543 0.7261 0.2339
C17 C -0.03252(16) 0.73913(14) 0.0269(3)
C18 C -0.0332(2) 0.81219(18) 0.0089(4)
H11 H 0.0120 0.8387 0.0688
C19 C -0.0987(2) 0.84688(18) -0.0949(4)
H12 H -0.0977 0.8961 -0.1049
C20 C -0.1654(2) 0.8078(2) -0.1833(4)
H13 H -0.2097 0.8307 -0.2543
C21 C -0.16727(19) 0.7358(2) -0.1679(4)
H14 H -0.2125 0.7096 -0.2286
C22 C -0.10141(18) 0.70185(16) -0.0612(3)
C23 C -0.05138(19) 0.59398(16) 0.0669(4)
C24 C -0.0715(2) 0.52385(18) 0.0883(4)
H15 H -0.1212 0.5035 0.0263
C25 C -0.0178(3) 0.48502(19) 0.2008(5)
H16 H -0.0313 0.4379 0.2152
C26 C 0.0558(2) 0.5141(2) 0.2938(4)
H17 H 0.0919 0.4872 0.3707
C27 C 0.0751(2) 0.58395(18) 0.2708(4)
H18 H 0.1251 0.6038 0.3326
C28 C 0.02173(17) 0.62533(15) 0.1576(3)
C29 C 0.2265(3) 0.55873(17) -0.2553(5)
H19 H 0.2473 0.5321 -0.3278
H20 H 0.1651 0.5610 -0.2889
H21 H 0.2440 0.5358 -0.1573
C30 C 0.41649(19) 0.63216(17) 0.0639(3)
H22 H 0.4479 0.6076 0.1544
H23 H 0.4498 0.6715 0.0447
H24 H 0.4047 0.6001 -0.0215
O1 O 0.37007(10) 0.78073(9) -0.13412(18)
O2 O 0.29806(11) 0.82862(9) 0.01087(19)
O3 O 0.11676(11) 0.68968(10) -0.0582(2)
O4 O 0.19005(10) 0.73023(10) 0.16382(19)
O5 O 0.46719(13) 0.98723(10) 0.2520(2)
O6 O -0.10890(13) 0.62922(11) -0.0495(2)
O7 O 0.25904(14) 0.62511(9) -0.2436(2)
H25 H 0.2700 0.6361 -0.3270
O8 O 0.33796(11) 0.65772(9) 0.08495(19)
H26 H 0.3524 0.6825 0.1661
Cd1C Cd 0.240966(11) 0.779570(9) 0.40081(2)
O4C O 0.19005(10) 0.76977(10) -0.33618(19)
loop_
_geom_bond_atom_site_label_1
_geom_bond_atom_site_label_2
_geom_bond_site_symmetry_1
_geom_bond_site_symmetry_2
Cd1 O1 1_555 1_555
C1 C2 1_555 1_555
C2 H1 1_555 1_555
C3 C2 1_555 1_555
C4 C3 1_555 1_555
H2 C4 1_555 1_555
C5 C4 1_555 1_555
H3 C5 1_555 1_555
C6 C5 1_555 1_555
H4 C6 1_555 1_555
C7 C6 1_555 1_555
H5 C7 1_555 1_555
C8 C3 1_555 1_555
C9 C10 1_555 1_555
C10 H6 1_555 1_555
C11 C10 1_555 1_555
H7 C11 1_555 1_555
C12 C11 1_555 1_555
H8 C12 1_555 1_555
C13 C12 1_555 1_555
H9 C13 1_555 1_555
C14 C2 1_555 1_555
C15 C16 1_555 1_555
C16 H10 1_555 1_555
C17 C16 1_555 1_555
C18 C17 1_555 1_555
H11 C18 1_555 1_555
C19 C18 1_555 1_555
H12 C19 1_555 1_555
C20 C19 1_555 1_555
H13 C20 1_555 1_555
C21 C20 1_555 1_555
H14 C21 1_555 1_555
C22 C17 1_555 1_555
C23 C24 1_555 1_555
C24 H15 1_555 1_555
C25 C24 1_555 1_555
H16 C25 1_555 1_555
C26 C25 1_555 1_555
H17 C26 1_555 1_555
C27 C26 1_555 1_555
H18 C27 1_555 1_555
C28 C16 1_555 1_555
C29 H19 1_555 1_555
H20 C29 1_555 1_555
H21 C29 1_555 1_555
C30 H22 1_555 1_555
H23 C30 1_555 1_555
H24 C30 1_555 1_555
O1 C1 1_555 1_555
O2 Cd1 1_555 1_555
O3 Cd1 1_555 1_555
O4 Cd1 1_555 1_555
O5 C8 1_555 1_555
O6 C22 1_555 1_555
O7 Cd1 1_555 1_555
H25 O7 1_555 1_555
O8 Cd1 1_555 1_555
H26 O8 1_555 1_555
Cd1C O4 1_555 1_555
O4C Cd1 1_555 1_555
C1 O2 1_555 1_555
C7 C8 1_555 1_555
C9 C14 1_555 1_555
C9 O5 1_555 1_555
C13 C14 1_555 1_555
C15 O3 1_555 1_555
C15 O4 1_555 1_555
C21 C22 1_555 1_555
C23 C28 1_555 1_555
C23 O6 1_555 1_555
C27 C28 1_555 1_555
C29 O7 1_555 1_555
C30 O8 1_555 1_555

#END
