
#######################################################################
#
#                 Cambridge Crystallographic Data Centre
#                                CCDC 
#
#######################################################################
#
# If this CIF has been generated from an entry in the Cambridge 
# Structural Database, then it will include bibliographic, chemical, 
# crystal, experimental, refinement or atomic coordinate data resulting 
# from the CCDC's data processing and validation procedures.
#
#######################################################################

data_EREGIR
_symmetry_cell_setting           triclinic
_symmetry_space_group_name_H-M   'P -1'
_symmetry_Int_Tables_number      2
_space_group_name_Hall           '-P 1'
loop_
_symmetry_equiv_pos_site_id
_symmetry_equiv_pos_as_xyz
1 x,y,z
2 -x,-y,-z
_cell_length_a                   8.559(3)
_cell_length_b                   9.430(2)
_cell_length_c                   11.635(3)
_cell_angle_alpha                92.14(2)
_cell_angle_beta                 101.60(2)
_cell_angle_gamma                109.16(3)
_cell_volume                     863.504
loop_
_atom_site_label
_atom_site_type_symbol
_atom_site_fract_x
_atom_site_fract_y
_atom_site_fract_z
Ni1 Ni 0.74019(3) 0.67836(3) 0.41657(2)
O1 O 0.7263(2) 0.45674(19) 0.41765(14)
H1 H 0.677(4) 0.425(4) 0.3419(18)
H2 H 0.645(3) 0.410(4) 0.454(3)
C1 C 0.5768(3) 0.8343(3) 0.46866(18)
C2 C 0.4803(3) 0.9276(3) 0.5056(2)
H3 H 0.3880 0.8809 0.5381
C3 C 0.5198(3) 0.5532(3) 0.0444(2)
H4 H 0.5129 0.6471 0.0281
C4 C 0.5755(3) 0.5283(3) 0.1707(2)
C5 C 0.9685(4) 0.8697(3) 0.2870(3)
H5 H 0.8945 0.9223 0.2908
C6 C 1.0932(4) 0.9233(4) 0.2247(3)
H6 H 1.1035 1.0118 0.1893
C7 C 1.2029(3) 0.8460(3) 0.21457(19)
C8 C 1.1821(3) 0.7173(3) 0.2720(2)
H7 H 1.2535 0.6619 0.2686
C9 C 1.0560(3) 0.6704(3) 0.3344(2)
H8 H 1.0450 0.5835 0.3721
C10 C 0.7906(3) 0.6560(3) -0.3209(2)
H9 H 0.6731 0.6105 -0.3415
C11 C 0.8735(3) 0.6629(3) -0.2043(2)
H10 H 0.8114 0.6249 -0.1484
C12 C 1.0499(3) 0.7270(3) -0.1707(2)
C13 C 1.1327(3) 0.7846(3) -0.2588(2)
H11 H 1.2503 0.8291 -0.2411
C14 C 1.0410(3) 0.7762(3) -0.3725(2)
H12 H 1.0998 0.8175 -0.4292
C15 C 1.3340(3) 0.8988(4) 0.1420(2)
H13 H 1.4050 0.8364 0.1507
H14 H 1.4060 1.0020 0.1714
C16 C 1.1437(4) 0.7311(4) -0.0455(2)
H15 H 1.2159 0.6703 -0.0447
H16 H 1.0622 0.6867 0.0016
C17 C 1.2526(3) 0.8915(4) 0.0104(2)
H17 H 1.1826 0.9548 0.0019
H18 H 1.3417 0.9318 -0.0318
N1 N 0.9496(3) 0.7447(2) 0.34272(16)
N2 N 0.8720(2) 0.7119(2) -0.40546(16)
O2 O 0.5238(2) 0.69319(18) 0.47728(14)
O3 O 0.7081(2) 0.89327(19) 0.43146(15)
O4 O 0.5939(2) 0.6364(2) 0.24646(14)
O5 O 0.6007(4) 0.4089(3) 0.19198(17)
C2A C 0.5197(3) 1.0724(3) 0.4944(2)
C1A C 0.4232(3) 1.1657(3) 0.53134(18)
O2A O 0.4762(2) 1.30681(18) 0.52272(14)
O3A O 0.2919(2) 1.10673(19) 0.56854(15)
H3A H 0.6120 1.1191 0.4619
C3A C 0.4802(3) 0.4468(3) -0.0444(2)
H4A H 0.4871 0.3529 -0.0281
C4A C 0.4245(3) 0.4717(3) -0.1707(2)
O4A O 0.4061(2) 0.3636(2) -0.24646(14)
O5A O 0.3993(4) 0.5911(3) -0.19198(17)
C5_2 C 0.9685(4) 0.8697(3) 1.2870(3)
H5_2 H 0.8945 0.9223 1.2908
C6_2 C 1.0932(4) 0.9233(4) 1.2247(3)
H6_2 H 1.1035 1.0118 1.1893
C7_2 C 1.2029(3) 0.8460(3) 1.21457(19)
C8_2 C 1.1821(3) 0.7173(3) 1.2720(2)
H7_2 H 1.2535 0.6619 1.2686
C9_2 C 1.0560(3) 0.6704(3) 1.3344(2)
H8_2 H 1.0450 0.5835 1.3721
C10_2 C 0.7906(3) 0.6560(3) 0.6791(2)
H9_2 H 0.6731 0.6105 0.6585
C11_2 C 0.8735(3) 0.6629(3) 0.7957(2)
H10_2 H 0.8114 0.6249 0.8516
C12_2 C 1.0499(3) 0.7270(3) 0.8293(2)
C13_2 C 1.1327(3) 0.7846(3) 0.7412(2)
H11_2 H 1.2503 0.8291 0.7589
C14_2 C 1.0410(3) 0.7762(3) 0.6275(2)
H12_2 H 1.0998 0.8175 0.5708
C15_2 C 1.3340(3) 0.8988(4) 1.1420(2)
H13_2 H 1.4050 0.8364 1.1507
H14_2 H 1.4060 1.0020 1.1714
C16_2 C 1.1437(4) 0.7311(4) 0.9545(2)
H15_2 H 1.2159 0.6703 0.9553
H16_2 H 1.0622 0.6867 1.0016
C17_2 C 1.2526(3) 0.8915(4) 1.0104(2)
H17_2 H 1.1826 0.9548 1.0019
H18_2 H 1.3417 0.9318 0.9682
N1_2 N 0.9496(3) 0.7447(2) 1.34272(16)
N2_2 N 0.8720(2) 0.7119(2) 0.59454(16)
Ni1_2 Ni 0.74019(3) 0.67836(3) 1.41657(2)
O1_2 O 0.7263(2) 0.45674(19) 1.41765(14)
H1_2 H 0.677(4) 0.425(4) 1.3419(18)
H2_2 H 0.645(3) 0.410(4) 1.454(3)
Ni1_3 Ni 0.74019(3) 0.67836(3) -0.58343(2)
Ni1A Ni 0.25981(3) 1.32164(3) 0.58343(2)
Ni1A_2 Ni 0.25981(3) 0.32164(3) -0.41657(2)
N2_3 N 0.8720(2) 0.7119(2) 1.59454(16)
O2_2 O 0.5238(2) 0.69319(18) 1.47728(14)
O3_2 O 0.7081(2) 0.89327(19) 1.43146(15)
O4_2 O 0.5939(2) 0.6364(2) 1.24646(14)
loop_
_geom_bond_atom_site_label_1
_geom_bond_atom_site_label_2
_geom_bond_site_symmetry_1
_geom_bond_site_symmetry_2
Ni1 O1 1_555 1_555
O1 H1 1_555 1_555
H2 O1 1_555 1_555
C1 C2 1_555 1_555
C2 H3 1_555 1_555
C3 H4 1_555 1_555
C4 C3 1_555 1_555
C5 H5 1_555 1_555
C6 C5 1_555 1_555
H6 C6 1_555 1_555
C7 C6 1_555 1_555
C8 C7 1_555 1_555
H7 C8 1_555 1_555
C9 C8 1_555 1_555
H8 C9 1_555 1_555
C10 H9 1_555 1_555
C11 C10 1_555 1_555
H10 C11 1_555 1_555
C12 C11 1_555 1_555
C13 C12 1_555 1_555
H11 C13 1_555 1_555
C14 C13 1_555 1_555
H12 C14 1_555 1_555
C15 C7 1_555 1_555
H13 C15 1_555 1_555
H14 C15 1_555 1_555
C16 C12 1_555 1_555
H15 C16 1_555 1_555
H16 C16 1_555 1_555
C17 C15 1_555 1_555
H17 C17 1_555 1_555
H18 C17 1_555 1_555
N1 Ni1 1_555 1_555
N2 C10 1_555 1_555
O2 Ni1 1_555 1_555
O3 Ni1 1_555 1_555
O4 Ni1 1_555 1_555
O5 C4 1_555 1_555
C2A C2 1_555 1_555
C1A C2A 1_555 1_555
O2A C1A 1_555 1_555
O3A C1A 1_555 1_555
H3A C2A 1_555 1_555
C3A C3 1_555 1_555
H4A C3A 1_555 1_555
C4A C3A 1_555 1_555
O4A C4A 1_555 1_555
O5A C4A 1_555 1_555
C5_2 H5_2 1_555 1_555
C6_2 C5_2 1_555 1_555
H6_2 C6_2 1_555 1_555
C7_2 C6_2 1_555 1_555
C8_2 C7_2 1_555 1_555
H7_2 C8_2 1_555 1_555
C9_2 C8_2 1_555 1_555
H8_2 C9_2 1_555 1_555
C10_2 H9_2 1_555 1_555
C11_2 C10_2 1_555 1_555
H10_2 C11_2 1_555 1_555
C12_2 C11_2 1_555 1_555
C13_2 C12_2 1_555 1_555
H11_2 C13_2 1_555 1_555
C14_2 C13_2 1_555 1_555
H12_2 C14_2 1_555 1_555
C15_2 C7_2 1_555 1_555
H13_2 C15_2 1_555 1_555
H14_2 C15_2 1_555 1_555
C16_2 C12_2 1_555 1_555
H15_2 C16_2 1_555 1_555
H16_2 C16_2 1_555 1_555
C17_2 C15_2 1_555 1_555
H17_2 C17_2 1_555 1_555
H18_2 C17_2 1_555 1_555
N1_2 C5_2 1_555 1_555
N2_2 Ni1 1_555 1_555
Ni1_2 N1_2 1_555 1_555
O1_2 Ni1_2 1_555 1_555
H1_2 O1_2 1_555 1_555
H2_2 O1_2 1_555 1_555
Ni1_3 N2 1_555 1_555
Ni1A O2A 1_555 1_555
Ni1A_2 O4A 1_555 1_555
N2_3 Ni1_2 1_555 1_555
O2_2 Ni1_2 1_555 1_555
O3_2 Ni1_2 1_555 1_555
O4_2 Ni1_2 1_555 1_555
C1 O2 1_555 1_555
C1 O3 1_555 1_555
C4 O4 1_555 1_555
C5 N1 1_555 1_555
C9 N1 1_555 1_555
C14 N2 1_555 1_555
C16 C17 1_555 1_555
O3A Ni1A 1_555 1_555
C9_2 N1_2 1_555 1_555
C10_2 N2_2 1_555 1_555
C14_2 N2_2 1_555 1_555
C16_2 C17_2 1_555 1_555

#END
