
#######################################################################
#
#                 Cambridge Crystallographic Data Centre
#                                CCDC 
#
#######################################################################
#
# If this CIF has been generated from an entry in the Cambridge 
# Structural Database, then it will include bibliographic, chemical, 
# crystal, experimental, refinement or atomic coordinate data resulting 
# from the CCDC's data processing and validation procedures.
#
#######################################################################

data_EREHAL
_symmetry_cell_setting           monoclinic
_symmetry_space_group_name_H-M   'C 2/c'
_symmetry_Int_Tables_number      15
_space_group_name_Hall           '-C 2yn'
loop_
_symmetry_equiv_pos_site_id
_symmetry_equiv_pos_as_xyz
1 x,y,z
2 -x,y,1/2-z
3 1/2+x,1/2+y,z
4 1/2-x,1/2+y,1/2-z
5 -x,-y,-z
6 x,-y,1/2+z
7 1/2-x,1/2-y,-z
8 1/2+x,1/2-y,1/2+z
_cell_length_a                   29.931(7)
_cell_length_b                   6.2146(8)
_cell_length_c                   15.078(3)
_cell_angle_alpha                90
_cell_angle_beta                 103.55(2)
_cell_angle_gamma                90
_cell_volume                     2726.58
loop_
_atom_site_label
_atom_site_type_symbol
_atom_site_fract_x
_atom_site_fract_y
_atom_site_fract_z
Cd1 Cd 0.0000 0.53028(5) 0.2500
C1 C 0.08631(9) 0.6909(5) 0.26783(18)
C2 C 0.13256(8) 0.7874(5) 0.25816(18)
H1 H 0.1383 0.9232 0.2919
C3 C 0.12747(10) 0.8294(6) 0.1580(2)
C4 C 0.11033(11) 1.0195(7) 0.1161(3)
H2 H 0.1030 1.1313 0.1511
C5 C 0.10392(13) 1.0464(9) 0.0225(3)
H3 H 0.0923 1.1746 -0.0055
C6 C 0.11511(16) 0.8790(10) -0.0275(3)
H4 H 0.1104 0.8951 -0.0903
C7 C 0.13284(12) 0.6896(8) 0.0113(3)
H5 H 0.1401 0.5777 -0.0237
C8 C 0.13955(10) 0.6707(6) 0.1055(2)
C9 C 0.18143(9) 0.4831(6) 0.2331(2)
C10 C 0.21400(12) 0.3265(7) 0.2617(3)
H6 H 0.2195 0.2224 0.2212
C11 C 0.23808(13) 0.3265(8) 0.3503(4)
H7 H 0.2597 0.2193 0.3706
C12 C 0.23098(11) 0.4826(9) 0.4108(2)
H8 H 0.2485 0.4832 0.4705
C13 C 0.19754(11) 0.6385(7) 0.3818(2)
H9 H 0.1925 0.7443 0.4219
C14 C 0.17174(9) 0.6352(5) 0.2924(2)
C15 C 0.00950(13) 0.6769(6) 0.0466(3)
H10 H 0.0169 0.8069 0.0770
C16 C -0.01005(13) 0.3355(6) 0.0446(2)
H11 H -0.0171 0.2125 0.0736
N1 N -0.00103(6) 0.5128(5) 0.09153(13)
O1 O 0.05382(6) 0.8177(3) 0.26653(13)
O2 O 0.08163(5) 0.4942(4) 0.27103(13)
O3 O 0.15923(7) 0.4805(4) 0.14182(15)
O4 O 0.0000 0.1651(4) 0.2500
H12 H 0.0211 0.0704 0.2596
Cd1D Cd 0.0000 0.46972(5) -0.2500
C1A C -0.08631(9) 0.6909(5) 0.23217(18)
C2A C -0.13256(8) 0.7874(5) 0.24184(18)
H1A H -0.1383 0.9232 0.2081
C3A C -0.12747(10) 0.8294(6) 0.3420(2)
C4A C -0.11033(11) 1.0195(7) 0.3839(3)
H2A H -0.1030 1.1313 0.3489
C5A C -0.10392(13) 1.0464(9) 0.4775(3)
H3A H -0.0923 1.1746 0.5055
C6A C -0.11511(16) 0.8790(10) 0.5275(3)
H4A H -0.1104 0.8951 0.5903
C7A C -0.13284(12) 0.6896(8) 0.4887(3)
H5A H -0.1401 0.5777 0.5237
C8A C -0.13955(10) 0.6707(6) 0.3945(2)
C9A C -0.18143(9) 0.4831(6) 0.2669(2)
C10A C -0.21400(12) 0.3265(7) 0.2383(3)
H6A H -0.2195 0.2224 0.2788
C11A C -0.23808(13) 0.3265(8) 0.1497(4)
H7A H -0.2597 0.2193 0.1294
C12A C -0.23098(11) 0.4826(9) 0.0892(2)
H8A H -0.2485 0.4832 0.0295
C13A C -0.19754(11) 0.6385(7) 0.1182(2)
H9A H -0.1925 0.7443 0.0781
C14A C -0.17174(9) 0.6352(5) 0.2076(2)
C15D C -0.00950(13) 0.3231(6) -0.0466(3)
H10D H -0.0169 0.1931 -0.0770
C16D C 0.01005(13) 0.6645(6) -0.0446(2)
H11D H 0.0171 0.7875 -0.0736
N1D N 0.00103(6) 0.4872(5) -0.09153(13)
N1A N 0.00103(6) 0.5128(5) 0.40847(13)
O1A O -0.05382(6) 0.8177(3) 0.23347(13)
O2A O -0.08163(5) 0.4942(4) 0.22897(13)
O3A O -0.15923(7) 0.4805(4) 0.35818(15)
H12A H -0.0211 0.0704 0.2404
loop_
_geom_bond_atom_site_label_1
_geom_bond_atom_site_label_2
_geom_bond_site_symmetry_1
_geom_bond_site_symmetry_2
Cd1 N1 1_555 1_555
C1 C2 1_555 1_555
C2 H1 1_555 1_555
C3 C2 1_555 1_555
C4 C3 1_555 1_555
H2 C4 1_555 1_555
C5 C4 1_555 1_555
H3 C5 1_555 1_555
C6 C5 1_555 1_555
H4 C6 1_555 1_555
C7 C6 1_555 1_555
H5 C7 1_555 1_555
C8 C3 1_555 1_555
C9 C10 1_555 1_555
C10 H6 1_555 1_555
C11 C10 1_555 1_555
H7 C11 1_555 1_555
C12 C11 1_555 1_555
H8 C12 1_555 1_555
C13 C12 1_555 1_555
H9 C13 1_555 1_555
C14 C2 1_555 1_555
C15 H10 1_555 1_555
C16 H11 1_555 1_555
N1 C15 1_555 1_555
O1 Cd1 1_555 1_555
O2 Cd1 1_555 1_555
O3 C8 1_555 1_555
O4 Cd1 1_555 1_555
H12 O4 1_555 1_555
Cd1D N1D 1_555 1_555
C1A C2A 1_555 1_555
C2A H1A 1_555 1_555
C3A C2A 1_555 1_555
C4A C3A 1_555 1_555
H2A C4A 1_555 1_555
C5A C4A 1_555 1_555
H3A C5A 1_555 1_555
C6A C5A 1_555 1_555
H4A C6A 1_555 1_555
C7A C6A 1_555 1_555
H5A C7A 1_555 1_555
C8A C3A 1_555 1_555
C9A C10A 1_555 1_555
C10A H6A 1_555 1_555
C11A C10A 1_555 1_555
H7A C11A 1_555 1_555
C12A C11A 1_555 1_555
H8A C12A 1_555 1_555
C13A C12A 1_555 1_555
H9A C13A 1_555 1_555
C14A C2A 1_555 1_555
C15D C16 1_555 1_555
H10D C15D 1_555 1_555
C16D C15 1_555 1_555
H11D C16D 1_555 1_555
N1D C15D 1_555 1_555
N1A Cd1 1_555 1_555
O1A Cd1 1_555 1_555
O2A Cd1 1_555 1_555
O3A C8A 1_555 1_555
H12A O4 1_555 1_555
C1 O1 1_555 1_555
C1 O2 1_555 1_555
C7 C8 1_555 1_555
C9 C14 1_555 1_555
C9 O3 1_555 1_555
C13 C14 1_555 1_555
C16 N1 1_555 1_555
C1A O1A 1_555 1_555
C1A O2A 1_555 1_555
C7A C8A 1_555 1_555
C9A C14A 1_555 1_555
C9A O3A 1_555 1_555
C13A C14A 1_555 1_555
C16D N1D 1_555 1_555

#END
