
#######################################################################
#
#                 Cambridge Crystallographic Data Centre
#                                CCDC 
#
#######################################################################
#
# If this CIF has been generated from an entry in the Cambridge 
# Structural Database, then it will include bibliographic, chemical, 
# crystal, experimental, refinement or atomic coordinate data resulting 
# from the CCDC's data processing and validation procedures.
#
#######################################################################

data_EREJIV
_symmetry_cell_setting           monoclinic
_symmetry_space_group_name_H-M   'P 21/c'
_symmetry_Int_Tables_number      14
_space_group_name_Hall           '-P 2ybc'
loop_
_symmetry_equiv_pos_site_id
_symmetry_equiv_pos_as_xyz
1 x,y,z
2 -x,1/2+y,1/2-z
3 -x,-y,-z
4 x,1/2-y,1/2+z
_cell_length_a                   9.4027(7)
_cell_length_b                   15.8078(16)
_cell_length_c                   22.124(2)
_cell_angle_alpha                90
_cell_angle_beta                 96.7110(10)
_cell_angle_gamma                90
_cell_volume                     3265.89
loop_
_atom_site_label
_atom_site_type_symbol
_atom_site_fract_x
_atom_site_fract_y
_atom_site_fract_z
Zn1 Zn 0.31083(9) 0.27168(5) 0.40619(4)
Zn2 Zn 0.71903(9) 0.12904(6) 0.68323(4)
N1 N 0.5190(6) 0.2404(3) 0.4172(2)
N2 N 0.5945(6) 0.2237(3) 0.4701(2)
H1 H 0.5586 0.2176 0.5039
N3 N 0.3024(6) 0.3948(4) 0.3879(2)
N4 N 0.3241(6) 0.4485(4) 0.4351(3)
H2 H 0.3354 0.4328 0.4726
N5 N 0.8180(6) 0.0559(4) 0.6283(2)
N6 N 0.9597(7) 0.0577(4) 0.6342(3)
H3 H 1.0101 0.0925 0.6577
N7 N 0.7600(6) 0.0695(4) 0.7639(3)
N8 N 0.8527(6) 0.0967(4) 0.8107(2)
H4 H 0.9072 0.1402 0.8092
O1 O 0.2510(5) 0.2400(3) 0.4839(2)
O2 O 0.3147(8) 0.3558(4) 0.5338(2)
O3 O 0.5158(5) 0.1411(3) 0.6720(2)
O4 O 0.5218(5) 0.1988(4) 0.5834(2)
O5 O 0.2363(5) 0.1955(3) 0.3444(2)
O6 O 0.0329(5) 0.2636(3) 0.3344(2)
O7 O -0.2054(5) 0.2574(3) 0.1944(2)
O8 O 0.0158(6) 0.3026(4) 0.2006(3)
C1 C 0.2707(7) 0.2832(5) 0.5309(3)
C2 C 0.2290(8) 0.2466(5) 0.5873(3)
H5 H 0.1344 0.2546 0.5945
C3 C 0.3101(7) 0.2042(5) 0.6283(3)
H6 H 0.2691 0.1876 0.6627
C4 C 0.4587(7) 0.1800(5) 0.6257(3)
C5 C 0.1089(8) 0.2069(4) 0.3209(3)
C6 C 0.0551(8) 0.1444(4) 0.2742(3)
H7 H 0.0808 0.0882 0.2812
C7 C -0.0249(8) 0.1619(5) 0.2243(3)
H8 H -0.0542 0.1172 0.1984
C8 C -0.0734(8) 0.2486(5) 0.2052(3)
C9 C 0.5674(9) 0.2605(6) 0.3123(3)
H9 H 0.4689 0.2446 0.3021
H10 H 0.6261 0.2285 0.2879
H11 H 0.5783 0.3198 0.3045
C10 C 0.6110(9) 0.2433(5) 0.3764(3)
C11 C 0.7482(8) 0.2290(5) 0.4051(3)
H12 H 0.8328 0.2277 0.3871
C12 C 0.7337(7) 0.2173(4) 0.4642(3)
C13 C 0.8417(8) 0.1997(6) 0.5160(4)
H13 H 0.8133 0.2254 0.5520
H14 H 0.9323 0.2224 0.5080
H15 H 0.8503 0.1396 0.5219
C14 C 0.2634(10) 0.4078(6) 0.2778(3)
H16 H 0.2266 0.3513 0.2798
H17 H 0.3512 0.4066 0.2596
H18 H 0.1947 0.4424 0.2537
C15 C 0.2903(8) 0.4427(5) 0.3392(3)
C16 C 0.3042(8) 0.5270(5) 0.3558(4)
H19 H 0.2996 0.5737 0.3300
C17 C 0.3414(11) 0.5983(6) 0.4607(4)
H20 H 0.2528 0.6068 0.4774
H21 H 0.3658 0.6488 0.4401
H22 H 0.4158 0.5856 0.4929
C18 C 0.6306(9) -0.0267(6) 0.5713(4)
H23 H 0.5882 -0.0452 0.6065
H24 H 0.6242 -0.0712 0.5416
H25 H 0.5805 0.0222 0.5542
C19 C 0.7791(9) -0.0056(5) 0.5887(3)
C20 C 0.9012(9) -0.0411(5) 0.5703(4)
H26 H 0.9051 -0.0851 0.5427
C21 C 1.0154(9) 0.0010(5) 0.6006(4)
C22 C 1.1705(9) -0.0073(6) 0.5992(4)
H27 H 1.2023 0.0348 0.5725
H28 H 1.1916 -0.0626 0.5846
H29 H 1.2190 0.0005 0.6394
C23 C 0.5893(8) -0.0463(5) 0.7453(4)
H30 H 0.5502 -0.0116 0.7118
H31 H 0.5137 -0.0646 0.7679
H32 H 0.6353 -0.0948 0.7301
C24 C 0.6940(8) 0.0025(5) 0.7851(3)
C25 C 0.7493(9) -0.0114(5) 0.8428(4)
H33 H 0.7229 -0.0549 0.8675
C26 C 0.8497(8) 0.0482(5) 0.8595(3)
C27 C 0.9411(9) 0.0641(6) 0.9158(4)
H34 H 0.9205 0.0236 0.9459
H35 H 0.9235 0.1202 0.9299
H36 H 1.0396 0.0592 0.9088
C28 C 0.3259(7) 0.5274(5) 0.4173(4)
Zn2C Zn -0.28097(9) 0.37096(6) 0.18323(4)
O7C O 0.7946(5) 0.2426(3) 0.6944(2)
loop_
_geom_bond_atom_site_label_1
_geom_bond_atom_site_label_2
_geom_bond_site_symmetry_1
_geom_bond_site_symmetry_2
Zn1 N1 1_555 1_555
Zn2 N5 1_555 1_555
N1 N2 1_555 1_555
N2 H1 1_555 1_555
N3 Zn1 1_555 1_555
N4 N3 1_555 1_555
H2 N4 1_555 1_555
N5 N6 1_555 1_555
N6 H3 1_555 1_555
N7 Zn2 1_555 1_555
N8 N7 1_555 1_555
H4 N8 1_555 1_555
O1 Zn1 1_555 1_555
O2 C1 1_555 1_555
O3 Zn2 1_555 1_555
O4 C4 1_555 1_555
O5 Zn1 1_555 1_555
O6 C5 1_555 1_555
O7 C8 1_555 1_555
O8 C8 1_555 1_555
C1 O1 1_555 1_555
C2 C1 1_555 1_555
H5 C2 1_555 1_555
C3 C2 1_555 1_555
H6 C3 1_555 1_555
C4 O3 1_555 1_555
C5 O5 1_555 1_555
C6 C5 1_555 1_555
H7 C6 1_555 1_555
C7 C6 1_555 1_555
H8 C7 1_555 1_555
C8 C7 1_555 1_555
C9 H9 1_555 1_555
H10 C9 1_555 1_555
H11 C9 1_555 1_555
C10 N1 1_555 1_555
C11 C10 1_555 1_555
H12 C11 1_555 1_555
C12 N2 1_555 1_555
C13 C12 1_555 1_555
H13 C13 1_555 1_555
H14 C13 1_555 1_555
H15 C13 1_555 1_555
C14 H16 1_555 1_555
H17 C14 1_555 1_555
H18 C14 1_555 1_555
C15 N3 1_555 1_555
C16 C15 1_555 1_555
H19 C16 1_555 1_555
C17 H20 1_555 1_555
H21 C17 1_555 1_555
H22 C17 1_555 1_555
C18 H23 1_555 1_555
H24 C18 1_555 1_555
H25 C18 1_555 1_555
C19 N5 1_555 1_555
C20 C19 1_555 1_555
H26 C20 1_555 1_555
C21 N6 1_555 1_555
C22 C21 1_555 1_555
H27 C22 1_555 1_555
H28 C22 1_555 1_555
H29 C22 1_555 1_555
C23 H30 1_555 1_555
H31 C23 1_555 1_555
H32 C23 1_555 1_555
C24 N7 1_555 1_555
C25 C24 1_555 1_555
H33 C25 1_555 1_555
C26 N8 1_555 1_555
C27 C26 1_555 1_555
H34 C27 1_555 1_555
H35 C27 1_555 1_555
H36 C27 1_555 1_555
C28 N4 1_555 1_555
Zn2C O7 1_555 1_555
O7C Zn2 1_555 1_555
C3 C4 1_555 1_555
C9 C10 1_555 1_555
C11 C12 1_555 1_555
C14 C15 1_555 1_555
C16 C28 1_555 1_555
C17 C28 1_555 1_555
C18 C19 1_555 1_555
C20 C21 1_555 1_555
C23 C24 1_555 1_555
C25 C26 1_555 1_555

#END
