
#######################################################################
#
#                 Cambridge Crystallographic Data Centre
#                                CCDC 
#
#######################################################################
#
# If this CIF has been generated from an entry in the Cambridge 
# Structural Database, then it will include bibliographic, chemical, 
# crystal, experimental, refinement or atomic coordinate data resulting 
# from the CCDC's data processing and validation procedures.
#
#######################################################################

data_EREKOC
_symmetry_cell_setting           monoclinic
_symmetry_space_group_name_H-M   'P 21/c'
_symmetry_Int_Tables_number      14
_space_group_name_Hall           '-P 2ybc'
loop_
_symmetry_equiv_pos_site_id
_symmetry_equiv_pos_as_xyz
1 x,y,z
2 -x,1/2+y,1/2-z
3 -x,-y,-z
4 x,1/2-y,1/2+z
_cell_length_a                   13.040(3)
_cell_length_b                   14.570(3)
_cell_length_c                   9.771(2)
_cell_angle_alpha                90
_cell_angle_beta                 107.17(3)
_cell_angle_gamma                90
_cell_volume                     1773.68
loop_
_atom_site_label
_atom_site_type_symbol
_atom_site_fract_x
_atom_site_fract_y
_atom_site_fract_z
Cu1 Cu 0.33486(3) 0.05951(3) 0.08366(4)
O1 O 0.45864(17) 0.12769(14) 0.0488(2)
N1 N 0.2324(2) 0.11582(19) -0.0877(3)
N2 N 0.5752(2) 0.48385(19) 0.2584(3)
N3 N 0.4369(2) 0.4293(2) 0.0836(3)
N4 N 0.5201(2) 0.36861(18) 0.1165(3)
O2 O 0.3366(2) -0.06531(17) -0.0532(3)
H1 H 0.3985 -0.0868 -0.0465
H2 H 0.2928 -0.0754 -0.1354
N5 N 0.2012(2) 0.06281(19) 0.1508(3)
O3 O 0.4014(2) 0.22734(17) 0.1815(3)
C1 C 0.4532(2) 0.2084(2) 0.0994(3)
C2 C 0.4737(3) 0.4974(2) 0.1716(4)
H3 H 0.4341 0.5501 0.1744
C3 C 0.5144(3) 0.2809(2) 0.0440(4)
H4 H 0.5867 0.2590 0.0558
H5 H 0.4799 0.2897 -0.0576
C4 C 0.0172(3) 0.1071(3) 0.0841(5)
H6 H -0.0431 0.1294 0.0151
C5 C 0.1136(3) 0.0961(2) 0.0530(4)
C6 C 0.1298(3) 0.1222(2) -0.0853(4)
C7 C 0.2574(3) 0.1388(3) -0.2072(4)
H7 H 0.3286 0.1356 -0.2073
C8 C 0.1017(4) 0.0518(3) 0.3190(5)
H8 H 0.0994 0.0363 0.4104
C9 C 0.1805(3) 0.1671(3) -0.3293(4)
H9 H 0.1992 0.1823 -0.4112
C10 C 0.6003(3) 0.4016(2) 0.2208(4)
H10 H 0.6650 0.3715 0.2619
C11 C 0.1955(3) 0.0420(3) 0.2822(4)
H11 H 0.2565 0.0204 0.3505
C12 C 0.0495(3) 0.1506(3) -0.2050(5)
H12 H -0.0211 0.1550 -0.2026
C13 C 0.0122(4) 0.0844(3) 0.2194(5)
H13 H -0.0516 0.0913 0.2424
C14 C 0.0759(3) 0.1725(3) -0.3283(5)
H14 H 0.0228 0.1908 -0.4103
Cu1A Cu 0.66514(3) 0.55951(3) 0.41634(4)
N2A N 0.4248(2) -0.01615(19) 0.2416(3)
Cl1 Cl 0.77626(7) 0.32835(7) -0.08826(9)
O4 O 0.6691(2) 0.3062(2) -0.1674(3)
O5 O 0.7843(3) 0.3394(3) 0.0577(3)
O6 O 0.8465(3) 0.2611(3) -0.1076(5)
O7 O 0.8030(3) 0.4145(3) -0.1421(4)
loop_
_geom_bond_atom_site_label_1
_geom_bond_atom_site_label_2
_geom_bond_site_symmetry_1
_geom_bond_site_symmetry_2
Cu1 O1 1_555 1_555
Cl1 O4 1_555 1_555
O1 C1 1_555 1_555
N1 Cu1 1_555 1_555
N2 C2 1_555 1_555
N3 N4 1_555 1_555
N4 C3 1_555 1_555
O2 Cu1 1_555 1_555
H1 O2 1_555 1_555
H2 O2 1_555 1_555
N5 Cu1 1_555 1_555
O3 Cu1 1_555 1_555
C1 O3 1_555 1_555
C2 N3 1_555 1_555
H3 C2 1_555 1_555
C3 C1 1_555 1_555
H4 C3 1_555 1_555
H5 C3 1_555 1_555
C4 H6 1_555 1_555
C5 N5 1_555 1_555
C6 N1 1_555 1_555
C7 N1 1_555 1_555
H7 C7 1_555 1_555
C8 H8 1_555 1_555
C9 C7 1_555 1_555
H9 C9 1_555 1_555
C10 N2 1_555 1_555
H10 C10 1_555 1_555
C11 N5 1_555 1_555
H11 C11 1_555 1_555
C12 C6 1_555 1_555
H12 C12 1_555 1_555
C13 C4 1_555 1_555
H13 C13 1_555 1_555
C14 C9 1_555 1_555
H14 C14 1_555 1_555
O5 Cl1 1_555 1_555
O6 Cl1 1_555 1_555
O7 Cl1 1_555 1_555
Cu1A N2 1_555 1_555
N2A Cu1 1_555 1_555
N4 C10 1_555 1_555
C4 C5 1_555 1_555
C5 C6 1_555 1_555
C8 C11 1_555 1_555
C8 C13 1_555 1_555
C12 C14 1_555 1_555

#END
