
#######################################################################
#
#                 Cambridge Crystallographic Data Centre
#                                CCDC 
#
#######################################################################
#
# If this CIF has been generated from an entry in the Cambridge 
# Structural Database, then it will include bibliographic, chemical, 
# crystal, experimental, refinement or atomic coordinate data resulting 
# from the CCDC's data processing and validation procedures.
#
#######################################################################

data_EREKUI
_symmetry_cell_setting           monoclinic
_symmetry_space_group_name_H-M   'P 21/c'
_symmetry_Int_Tables_number      14
_space_group_name_Hall           '-P 2ybc'
loop_
_symmetry_equiv_pos_site_id
_symmetry_equiv_pos_as_xyz
1 x,y,z
2 -x,1/2+y,1/2-z
3 -x,-y,-z
4 x,1/2-y,1/2+z
_cell_length_a                   12.856(3)
_cell_length_b                   14.594(3)
_cell_length_c                   9.7441(19)
_cell_angle_alpha                90
_cell_angle_beta                 107.27(3)
_cell_angle_gamma                90
_cell_volume                     1745.77
loop_
_atom_site_label
_atom_site_type_symbol
_atom_site_fract_x
_atom_site_fract_y
_atom_site_fract_z
Cu1 Cu 0.83173(3) -0.05837(3) 0.08254(5)
O1 O 0.9564(2) -0.12784(17) 0.0477(3)
N1 N 0.6979(3) -0.0607(2) 0.1527(4)
N2 N 0.7262(2) -0.1157(2) -0.0878(3)
N3 N 1.0755(2) -0.4827(2) 0.2610(3)
O2 O 0.8352(3) 0.06489(19) -0.0590(3)
N4 N 1.0191(2) -0.3680(2) 0.1173(3)
N5 N 0.9355(3) -0.4289(2) 0.0835(4)
C1 C 0.9731(3) -0.4969(3) 0.1717(4)
H1 H 0.9335 -0.5500 0.1733
C2 C 1.0128(3) -0.2802(3) 0.0434(4)
H2 H 0.9780 -0.2893 -0.0585
H3 H 1.0861 -0.2580 0.0553
C3 C 1.1002(3) -0.3996(3) 0.2239(4)
H4 H 1.1649 -0.3686 0.2668
O3 O 0.8966(2) -0.22696(19) 0.1792(3)
C4 C 0.9501(3) -0.2080(2) 0.0984(4)
C5 C 0.7503(4) -0.1382(3) -0.2073(4)
H5 H 0.8220 -0.1333 -0.2090
C6 C 0.6234(3) -0.1228(3) -0.0817(5)
C7 C 0.6001(5) -0.0490(4) 0.3257(6)
H6 H 0.5990 -0.0328 0.4176
C8 C 0.6937(4) -0.0391(3) 0.2846(5)
H7 H 0.7562 -0.0166 0.3512
C9 C 0.6717(4) -0.1686(3) -0.3291(5)
H8 H 0.6902 -0.1848 -0.4111
C10 C 0.6088(3) -0.0959(3) 0.0566(5)
C11 C 0.5118(4) -0.1073(3) 0.0906(6)
H9 H 0.4501 -0.1305 0.0233
C12 C 0.5405(4) -0.1530(3) -0.1998(6)
H10 H 0.4697 -0.1589 -0.1950
C13 C 0.5091(5) -0.0832(4) 0.2272(7)
H11 H 0.4451 -0.0903 0.2520
C14 C 0.5656(4) -0.1743(4) -0.3261(6)
H12 H 0.5108 -0.1922 -0.4077
Cu1A Cu 1.16827(3) -0.55837(3) 0.41746(5)
N3A N 0.9245(2) 0.0173(2) 0.2390(3)
F1 F 0.1660(2) -0.1923(2) 0.3310(3)
B1 B 0.2704(4) -0.1735(4) 0.4114(5)
F2 F 0.2748(3) -0.1585(3) 0.5507(4)
F3 F 0.3366(3) -0.2419(4) 0.4002(5)
F4 F 0.3006(3) -0.0924(3) 0.3583(4)
loop_
_geom_bond_atom_site_label_1
_geom_bond_atom_site_label_2
_geom_bond_site_symmetry_1
_geom_bond_site_symmetry_2
Cu1 O1 1_555 1_555
O1 C4 1_555 1_555
N1 Cu1 1_555 1_555
N2 Cu1 1_555 1_555
N3 C1 1_555 1_555
O2 Cu1 1_555 1_555
N4 N5 1_555 1_555
N5 C1 1_555 1_555
C1 H1 1_555 1_555
C2 N4 1_555 1_555
H2 C2 1_555 1_555
H3 C2 1_555 1_555
C3 N3 1_555 1_555
H4 C3 1_555 1_555
F1 B1 1_555 1_555
O3 Cu1 1_555 1_555
C4 C2 1_555 1_555
C5 N2 1_555 1_555
H5 C5 1_555 1_555
C6 N2 1_555 1_555
C7 H6 1_555 1_555
C8 N1 1_555 1_555
H7 C8 1_555 1_555
C9 C5 1_555 1_555
H8 C9 1_555 1_555
C10 N1 1_555 1_555
C11 C10 1_555 1_555
H9 C11 1_555 1_555
C12 C6 1_555 1_555
H10 C12 1_555 1_555
B1 F2 1_555 1_555
C13 C7 1_555 1_555
H11 C13 1_555 1_555
C14 C9 1_555 1_555
H12 C14 1_555 1_555
F3 B1 1_555 1_555
F4 B1 1_555 1_555
Cu1A N3 1_555 1_555
N3A Cu1 1_555 1_555
N4 C3 1_555 1_555
O3 C4 1_555 1_555
C6 C10 1_555 1_555
C7 C8 1_555 1_555
C11 C13 1_555 1_555
C12 C14 1_555 1_555

#END
