
#######################################################################
#
#                 Cambridge Crystallographic Data Centre
#                                CCDC 
#
#######################################################################
#
# If this CIF has been generated from an entry in the Cambridge 
# Structural Database, then it will include bibliographic, chemical, 
# crystal, experimental, refinement or atomic coordinate data resulting 
# from the CCDC's data processing and validation procedures.
#
#######################################################################

data_ERELAP
_symmetry_cell_setting           monoclinic
_symmetry_space_group_name_H-M   'P 21'
_symmetry_Int_Tables_number      4
_space_group_name_Hall           'P 2yb'
loop_
_symmetry_equiv_pos_site_id
_symmetry_equiv_pos_as_xyz
1 x,y,z
2 -x,1/2+y,-z
_cell_length_a                   9.211(4)
_cell_length_b                   17.746(8)
_cell_length_c                   11.124(5)
_cell_angle_alpha                90
_cell_angle_beta                 103.680(5)
_cell_angle_gamma                90
_cell_volume                     1766.73
loop_
_atom_site_label
_atom_site_type_symbol
_atom_site_fract_x
_atom_site_fract_y
_atom_site_fract_z
Cu1 Cu -0.06184(7) 0.69410(5) 1.18469(6)
Cu2 Cu 0.62607(7) 0.52907(5) 1.20070(6)
N1 N 0.3792(5) 0.7627(3) 1.2130(4)
N2 N 0.3881(6) 0.7609(3) 1.3360(5)
N3 N 0.1616(5) 0.7215(3) 1.2267(4)
N4 N 0.1888(5) 0.4593(3) 1.1814(4)
N5 N 0.1842(5) 0.4512(3) 1.0602(4)
N6 N 0.4066(5) 0.4995(3) 1.1601(4)
N7 N -0.0725(5) 0.6912(3) 1.0007(4)
N8 N -0.0638(5) 0.6924(3) 0.3670(4)
N9 N 0.6274(4) 0.5271(3) 1.0205(4)
N10 N 0.6388(4) 0.5287(3) 0.3840(4)
O1 O 0.5817(4) 0.6545(2) 1.1953(3)
O2 O 0.7399(4) 0.7392(2) 1.1489(4)
O3 O -0.0124(4) 0.5700(2) 1.1841(3)
O4 O -0.1715(4) 0.4893(2) 1.2433(3)
C1 C 0.2526(7) 0.7352(4) 1.3370(6)
H5 H 0.2231 0.7272 1.4103
C2 C 0.2474(6) 0.7414(3) 1.1500(5)
H6 H 0.2172 0.7403 1.0641
C3 C 0.5091(6) 0.7842(4) 1.1690(5)
H7 H 0.5601 0.8253 1.2193
H8 H 0.4772 0.8021 1.0844
C4 C 0.6190(6) 0.7180(3) 1.1738(5)
C5 C 0.3152(7) 0.4766(4) 1.0538(6)
H9 H 0.3439 0.4787 0.9791
C6 C 0.3189(7) 0.4875(3) 1.2382(6)
H10 H 0.3466 0.4979 1.3225
C7 C 0.0624(6) 0.4418(3) 1.2331(5)
H11 H 0.0975 0.4306 1.3206
H12 H 0.0117 0.3975 1.1926
C8 C -0.0483(7) 0.5085(4) 1.2161(5)
C9 C 0.0071(6) 0.6406(3) 0.9536(5)
H13 H 0.0640 0.6052 1.0061
C10 C 0.0069(6) 0.6397(4) 0.8295(5)
H14 H 0.0616 0.6037 0.7982
C11 C -0.0773(6) 0.6938(4) 0.7516(5)
C12 C -0.1617(7) 0.7425(4) 0.7971(5)
H15 H -0.2226 0.7770 0.7458
C13 C -0.1562(6) 0.7400(4) 0.9233(5)
H16 H -0.2138 0.7742 0.9551
C14 C -0.0162(7) 0.6350(4) 0.4390(6)
H17 H 0.0245 0.5945 0.4052
C15 C -0.0222(7) 0.6301(4) 0.5623(5)
H18 H 0.0067 0.5863 0.6076
C16 C -0.0725(6) 0.6925(4) 0.6162(5)
C17 C -0.1181(7) 0.7516(4) 0.5408(5)
H19 H -0.1544 0.7941 0.5730
C18 C -0.1134(7) 0.7517(4) 0.4170(5)
H20 H -0.1455 0.7940 0.3687
C19 C 0.6959(6) 0.4715(4) 0.9714(5)
H21 H 0.7395 0.4318 1.0219
C20 C 0.7032(7) 0.4718(4) 0.8494(5)
H22 H 0.7515 0.4326 0.8192
C21 C 0.6387(6) 0.5305(4) 0.7696(5)
C22 C 0.5698(7) 0.5846(4) 0.8204(5)
H23 H 0.5226 0.6240 0.7710
C23 C 0.5677(6) 0.5832(4) 0.9441(5)
H24 H 0.5228 0.6230 0.9759
C24 C 0.6987(7) 0.4737(4) 0.4574(5)
H25 H 0.7413 0.4337 0.4242
C25 C 0.7014(7) 0.4724(4) 0.5825(6)
H26 H 0.7433 0.4313 0.6299
C26 C 0.6430(6) 0.5312(4) 0.6385(5)
C27 C 0.5884(7) 0.5896(4) 0.5645(5)
H27 H 0.5524 0.6318 0.5978
C28 C 0.5849(7) 0.5877(4) 0.4366(5)
H28 H 0.5443 0.6284 0.3873
Cu1_2 Cu -0.06184(7) 0.69410(5) 0.18469(6)
Cu1_3 Cu 0.93816(7) 0.69410(5) 1.18469(6)
Cu2_2 Cu -0.37393(7) 0.52907(5) 1.20070(6)
Cu2_3 Cu 0.62607(7) 0.52907(5) 0.20070(6)
N8_2 N -0.0638(5) 0.6924(3) 1.3670(4)
N10_2 N 0.6388(4) 0.5287(3) 1.3840(4)
O2_2 O -0.2601(4) 0.7392(2) 1.1489(4)
O4_2 O 0.8285(4) 0.4893(2) 1.2433(3)
O5 O 0.2448(6) 0.4989(4) 0.7310(4)
O6 O 0.0867(4) 0.4389(3) 0.5675(5)
O7 O 0.2635(5) 0.5231(3) 0.5328(4)
O8 O 0.3377(5) 0.4071(3) 0.6231(6)
Cl1 Cl 0.2347(2) 0.46586(11) 0.61277(17)
O9 O 0.7205(7) 0.2777(4) 0.3227(4)
O10 O 0.5712(5) 0.3463(3) 0.1689(5)
O11 O 0.6206(7) 0.2235(3) 0.1355(6)
O12 O 0.8012(5) 0.3102(3) 0.1502(6)
Cl2 Cl 0.6749(2) 0.28845(12) 0.1987(2)
O13 O 0.0054(6) 0.3779(3) 0.8191(6)
H1 H 0.0543 0.3916 0.7679
H2 H 0.0332 0.4032 0.8841
O14 O 0.4273(8) 0.3358(5) 0.4038(6)
H3 H 0.3749 0.3514 0.4511
H4 H 0.5081 0.3179 0.4327
loop_
_geom_bond_atom_site_label_1
_geom_bond_atom_site_label_2
_geom_bond_site_symmetry_1
_geom_bond_site_symmetry_2
Cu1 N3 1_555 1_555
Cu2 N6 1_555 1_555
N1 N2 1_555 1_555
N2 C1 1_555 1_555
N3 C1 1_555 1_555
N4 N5 1_555 1_555
N5 C5 1_555 1_555
N6 C5 1_555 1_555
N7 Cu1 1_555 1_555
N8 C14 1_555 1_555
N9 Cu2 1_555 1_555
N10 C24 1_555 1_555
O1 Cu2 1_555 1_555
O2 C4 1_555 1_555
O3 Cu1 1_555 1_555
O4 C8 1_555 1_555
O5 Cl1 1_555 1_555
O6 Cl1 1_555 1_555
O7 Cl1 1_555 1_555
O8 Cl1 1_555 1_555
O9 Cl2 1_555 1_555
O10 Cl2 1_555 1_555
O11 Cl2 1_555 1_555
O12 Cl2 1_555 1_555
O13 H1 1_555 1_555
H2 O13 1_555 1_555
O14 H3 1_555 1_555
H4 O14 1_555 1_555
C1 H5 1_555 1_555
C2 N1 1_555 1_555
H6 C2 1_555 1_555
C3 N1 1_555 1_555
H7 C3 1_555 1_555
H8 C3 1_555 1_555
C4 O1 1_555 1_555
C5 H9 1_555 1_555
C6 N4 1_555 1_555
H10 C6 1_555 1_555
C7 N4 1_555 1_555
H11 C7 1_555 1_555
H12 C7 1_555 1_555
C8 O3 1_555 1_555
C9 N7 1_555 1_555
H13 C9 1_555 1_555
C10 C9 1_555 1_555
H14 C10 1_555 1_555
C11 C10 1_555 1_555
C12 C11 1_555 1_555
H15 C12 1_555 1_555
C13 N7 1_555 1_555
H16 C13 1_555 1_555
C14 H17 1_555 1_555
C15 C14 1_555 1_555
H18 C15 1_555 1_555
C16 C11 1_555 1_555
C17 C16 1_555 1_555
H19 C17 1_555 1_555
C18 N8 1_555 1_555
H20 C18 1_555 1_555
C19 N9 1_555 1_555
H21 C19 1_555 1_555
C20 C19 1_555 1_555
H22 C20 1_555 1_555
C21 C20 1_555 1_555
C22 C21 1_555 1_555
H23 C22 1_555 1_555
C23 N9 1_555 1_555
H24 C23 1_555 1_555
C24 H25 1_555 1_555
C25 C24 1_555 1_555
H26 C25 1_555 1_555
C26 C21 1_555 1_555
C27 C26 1_555 1_555
H27 C27 1_555 1_555
C28 N10 1_555 1_555
H28 C28 1_555 1_555
Cu1_2 N8 1_555 1_555
Cu1_3 O2 1_555 1_555
Cu2_2 O4 1_555 1_555
Cu2_3 N10 1_555 1_555
N8_2 Cu1 1_555 1_555
N10_2 Cu2 1_555 1_555
O2_2 Cu1 1_555 1_555
O4_2 Cu2 1_555 1_555
N3 C2 1_555 1_555
N6 C6 1_555 1_555
C3 C4 1_555 1_555
C7 C8 1_555 1_555
C12 C13 1_555 1_555
C15 C16 1_555 1_555
C17 C18 1_555 1_555
C22 C23 1_555 1_555
C25 C26 1_555 1_555
C27 C28 1_555 1_555

#END
