
#######################################################################
#
#                 Cambridge Crystallographic Data Centre
#                                CCDC 
#
#######################################################################
#
# If this CIF has been generated from an entry in the Cambridge 
# Structural Database, then it will include bibliographic, chemical, 
# crystal, experimental, refinement or atomic coordinate data resulting 
# from the CCDC's data processing and validation procedures.
#
#######################################################################

data_ERENAQ
_symmetry_cell_setting           triclinic
_symmetry_space_group_name_H-M   'P -1'
_symmetry_Int_Tables_number      2
_space_group_name_Hall           '-P 1'
loop_
_symmetry_equiv_pos_site_id
_symmetry_equiv_pos_as_xyz
1 x,y,z
2 -x,-y,-z
_cell_length_a                   11.5160(11)
_cell_length_b                   12.1332(13)
_cell_length_c                   12.5587(12)
_cell_angle_alpha                101.209(9)
_cell_angle_beta                 104.008(8)
_cell_angle_gamma                94.914(8)
_cell_volume                     1653.8
loop_
_atom_site_label
_atom_site_type_symbol
_atom_site_fract_x
_atom_site_fract_y
_atom_site_fract_z
Pb1 Pb 0.33207(3) -0.62352(3) 0.40525(3)
O1 O -0.2184(6) 0.6945(5) -0.1504(5)
C1 C -0.2963(8) 0.7623(7) -0.1002(8)
H1 H -0.2663 0.7813 -0.0188
H2 H -0.3778 0.7220 -0.1206
C2 C -0.2943(10) 0.8653(8) -0.1457(8)
H3 H -0.3387 0.9190 -0.1099
H4 H -0.2117 0.9011 -0.1309
O2 O -0.3487(6) 0.8338(5) -0.2641(6)
C3 C -0.3343(11) 0.9212(9) -0.3218(10)
H5 H -0.3387 0.9932 -0.2744
H6 H -0.4005 0.9081 -0.3894
C4 C -0.2201(12) 0.9286(9) -0.3531(11)
H7 H -0.2133 0.9923 -0.3885
H8 H -0.1532 0.9412 -0.2862
O3 O -0.2146(6) 0.8271(6) -0.4284(7)
C5 C -0.1023(11) 0.8305(10) -0.4523(12)
H9 H -0.0385 0.8504 -0.3825
H10 H -0.0939 0.8882 -0.4946
C6 C -0.0901(11) 0.7177(10) -0.5189(11)
H11 H -0.1535 0.6987 -0.5889
H12 H -0.0130 0.7226 -0.5375
O4 O -0.0974(6) 0.6298(6) -0.4591(6)
C7 C 0.0137(9) 0.6230(9) -0.3843(9)
H13 H 0.0475 0.6967 -0.3353
H14 H 0.0710 0.5979 -0.4259
C8 C -0.0110(9) 0.5393(9) -0.3160(9)
H15 H -0.0558 0.4686 -0.3644
H16 H 0.0638 0.5236 -0.2701
O5 O -0.0814(7) 0.5936(5) -0.2466(6)
C9 C -0.1189(7) 0.5367(7) -0.1747(7)
C10 C -0.1977(8) 0.5946(7) -0.1205(7)
C11 C -0.2430(9) 0.5474(9) -0.0467(8)
H17 H -0.2950 0.5836 -0.0100
C12 C -0.2101(9) 0.4444(8) -0.0272(8)
H18 H -0.2413 0.4127 0.0234
C13 C -0.1348(8) 0.3874(7) -0.0782(7)
C14 C -0.0886(7) 0.4369(7) -0.1536(7)
H19 H -0.0362 0.4005 -0.1897
C15 C -0.1077(8) 0.2801(7) -0.0505(7)
H20 H -0.1473 0.2593 0.0004
C16 C -0.0368(8) 0.2039(7) -0.0833(7)
C17 C 0.0282(10) 0.2213(8) -0.1660(9)
N1 N 0.0810(12) 0.2292(10) -0.2285(11)
C18 C -0.0174(7) 0.0999(7) -0.0398(7)
C19 C -0.0558(8) 0.0815(7) 0.0530(7)
H21 H -0.0935 0.1360 0.0897
C20 C 0.0384(8) 0.0169(7) -0.0912(7)
H22 H 0.0651 0.0275 -0.1532
C21 C 0.3168(9) -0.2286(8) 0.4325(10)
F1 F 0.3128(15) -0.2217(10) 0.3302(10)
F2 F 0.3682(9) -0.1310(6) 0.4916(10)
F3 F 0.2052(7) -0.2342(9) 0.4324(14)
C22 C 0.3786(10) -0.3261(8) 0.4616(8)
O6 O 0.3130(8) -0.4183(6) 0.4309(9)
O7 O 0.4848(8) -0.3012(8) 0.5098(10)
C23 C 0.5676(9) -0.4963(9) 0.3106(8)
O8 O 0.4765(8) -0.5590(9) 0.3013(7)
O9 O 0.6362(10) -0.4286(10) 0.3913(7)
C24 C 0.4049(11) -0.5143(12) 0.8015(11)
F4 F 0.4439(9) -0.4288(10) 0.8816(6)
F5 F 0.2956(9) -0.5484(13) 0.7902(8)
F6 F 0.4595(19) -0.5920(14) 0.8478(14)
C20A C -0.0384(8) -0.0169(7) 0.0912(7)
C18A C 0.0174(7) -0.0999(7) 0.0398(7)
C16A C 0.0368(8) -0.2039(7) 0.0833(7)
C15A C 0.1077(8) -0.2801(7) 0.0505(7)
C13A C 0.1348(8) -0.3874(7) 0.0782(7)
C12A C 0.2101(9) -0.4444(8) 0.0272(8)
C11A C 0.2430(9) -0.5474(9) 0.0467(8)
C10A C 0.1977(8) -0.5946(7) 0.1205(7)
O1A O 0.2184(6) -0.6945(5) 0.1504(5)
Pb1A Pb -0.33207(3) 0.62352(3) -0.40525(3)
O2A O 0.3487(6) -0.8338(5) 0.2641(6)
C2A C 0.2943(10) -0.8653(8) 0.1457(8)
C1A C 0.2963(8) -0.7623(7) 0.1002(8)
H1A H 0.2663 -0.7813 0.0188
H2A H 0.3778 -0.7220 0.1206
H3A H 0.3387 -0.9190 0.1099
H4A H 0.2117 -0.9011 0.1309
C3A C 0.3343(11) -0.9212(9) 0.3218(10)
H5A H 0.3387 -0.9932 0.2744
H6A H 0.4005 -0.9081 0.3894
C4A C 0.2201(12) -0.9286(9) 0.3531(11)
H7A H 0.2133 -0.9923 0.3885
H8A H 0.1532 -0.9412 0.2862
O3A O 0.2146(6) -0.8271(6) 0.4284(7)
O4A O 0.0974(6) -0.6298(6) 0.4591(6)
C6A C 0.0901(11) -0.7177(10) 0.5189(11)
C5A C 0.1023(11) -0.8305(10) 0.4523(12)
H9A H 0.0385 -0.8504 0.3825
H10A H 0.0939 -0.8882 0.4946
H11A H 0.1535 -0.6987 0.5889
H12A H 0.0130 -0.7226 0.5375
C7A C -0.0137(9) -0.6230(9) 0.3843(9)
H13A H -0.0475 -0.6967 0.3353
H14A H -0.0710 -0.5979 0.4259
C8A C 0.0110(9) -0.5393(9) 0.3160(9)
H15A H 0.0558 -0.4686 0.3644
H16A H -0.0638 -0.5236 0.2701
O5A O 0.0814(7) -0.5936(5) 0.2466(6)
Pb1A_2 Pb 0.66793(3) -0.37648(3) 0.59475(3)
O1_2 O 0.7816(6) -0.3055(5) 0.8496(5)
O2_2 O 0.6513(6) -0.1662(5) 0.7359(6)
O3_2 O 0.7854(6) -0.1729(6) 0.5716(7)
O4_2 O 0.9026(6) -0.3702(6) 0.5409(6)
O5_2 O 0.9186(7) -0.4064(5) 0.7534(6)
O6A O 0.6870(8) -0.5817(6) 0.5691(9)
C22A C 0.6214(10) -0.6739(8) 0.5384(8)
C21A C 0.6832(9) -0.7714(8) 0.5675(10)
F1A F 0.6872(15) -0.7783(10) 0.6698(10)
F2A F 0.6318(9) -0.8690(6) 0.5084(10)
F3A F 0.7948(7) -0.7658(9) 0.5676(14)
O7A O 0.5152(8) -0.6988(8) 0.4902(10)
O8A O 0.5235(8) -0.4410(9) 0.6987(7)
C23A C 0.4324(9) -0.5037(9) 0.6894(8)
O9A O 0.3638(10) -0.5714(10) 0.6087(7)
C24A C 0.5951(11) -0.4857(12) 0.1985(11)
F4A F 0.5561(9) -0.5712(10) 0.1184(6)
F5A F 0.7044(9) -0.4516(13) 0.2098(8)
F6A F 0.5405(19) -0.4080(14) 0.1522(14)
C9A C 0.1189(7) -0.5367(7) 0.1747(7)
C14A C 0.0886(7) -0.4369(7) 0.1536(7)
H19A H 0.0362 -0.4005 0.1897
H17A H 0.2950 -0.5836 0.0100
H18A H 0.2413 -0.4127 -0.0234
H20A H 0.1473 -0.2593 -0.0004
C17A C -0.0282(10) -0.2213(8) 0.1660(9)
N1A N -0.0810(12) -0.2292(10) 0.2285(11)
C19A C 0.0558(8) -0.0815(7) -0.0530(7)
H21A H 0.0935 -0.1360 -0.0897
H22A H -0.0651 -0.0275 0.1532
N2 N 0.195(2) 0.925(3) -0.280(3)
C25 C 0.274(2) 0.876(2) -0.246(2)
C26 C 0.385(3) 0.829(4) -0.216(3)
H23 H 0.3676 0.7526 -0.2086
H24 H 0.4346 0.8742 -0.1449
H25 H 0.4276 0.8302 -0.2725
loop_
_geom_bond_atom_site_label_1
_geom_bond_atom_site_label_2
_geom_bond_site_symmetry_1
_geom_bond_site_symmetry_2
Pb1 O6 1_555 1_555
O1 C1 1_555 1_555
C1 H1 1_555 1_555
H2 C1 1_555 1_555
C2 C1 1_555 1_555
H3 C2 1_555 1_555
H4 C2 1_555 1_555
O2 C2 1_555 1_555
C3 O2 1_555 1_555
H5 C3 1_555 1_555
H6 C3 1_555 1_555
C4 C3 1_555 1_555
H7 C4 1_555 1_555
H8 C4 1_555 1_555
O3 C4 1_555 1_555
C5 O3 1_555 1_555
H9 C5 1_555 1_555
H10 C5 1_555 1_555
C6 C5 1_555 1_555
H11 C6 1_555 1_555
H12 C6 1_555 1_555
O4 C6 1_555 1_555
C7 O4 1_555 1_555
H13 C7 1_555 1_555
H14 C7 1_555 1_555
C8 C7 1_555 1_555
H15 C8 1_555 1_555
H16 C8 1_555 1_555
O5 C8 1_555 1_555
C9 O5 1_555 1_555
C10 O1 1_555 1_555
C11 C10 1_555 1_555
H17 C11 1_555 1_555
C12 C11 1_555 1_555
H18 C12 1_555 1_555
C13 C12 1_555 1_555
C14 C9 1_555 1_555
H19 C14 1_555 1_555
C15 C13 1_555 1_555
H20 C15 1_555 1_555
C16 C15 1_555 1_555
C17 C16 1_555 1_555
N1 C17 1_555 1_555
C18 C16 1_555 1_555
C19 C18 1_555 1_555
H21 C19 1_555 1_555
C20 C18 1_555 1_555
H22 C20 1_555 1_555
C21 F1 1_555 1_555
F2 C21 1_555 1_555
F3 C21 1_555 1_555
C22 C21 1_555 1_555
O6 C22 1_555 1_555
O7 C22 1_555 1_555
C23 O8 1_555 1_555
O8 Pb1 1_555 1_555
O9 C23 1_555 1_555
C24 F4 1_555 1_555
F5 C24 1_555 1_555
F6 C24 1_555 1_555
N2 C25 1_555 1_555
C25 C26 1_555 1_555
C26 H23 1_555 1_555
H24 C26 1_555 1_555
H25 C26 1_555 1_555
C20A C19 1_555 1_555
C18A C20A 1_555 1_555
C16A C18A 1_555 1_555
C15A C16A 1_555 1_555
C13A C15A 1_555 1_555
C12A C13A 1_555 1_555
C11A C12A 1_555 1_555
C10A C11A 1_555 1_555
O1A Pb1 1_555 1_555
Pb1A O1 1_555 1_555
O2A Pb1 1_555 1_555
C2A O2A 1_555 1_555
C1A O1A 1_555 1_555
H1A C1A 1_555 1_555
H2A C1A 1_555 1_555
H3A C2A 1_555 1_555
H4A C2A 1_555 1_555
C3A O2A 1_555 1_555
H5A C3A 1_555 1_555
H6A C3A 1_555 1_555
C4A C3A 1_555 1_555
H7A C4A 1_555 1_555
H8A C4A 1_555 1_555
O3A Pb1 1_555 1_555
O4A Pb1 1_555 1_555
C6A O4A 1_555 1_555
C5A O3A 1_555 1_555
H9A C5A 1_555 1_555
H10A C5A 1_555 1_555
H11A C6A 1_555 1_555
H12A C6A 1_555 1_555
C7A O4A 1_555 1_555
H13A C7A 1_555 1_555
H14A C7A 1_555 1_555
C8A C7A 1_555 1_555
H15A C8A 1_555 1_555
H16A C8A 1_555 1_555
O5A Pb1 1_555 1_555
Pb1A_2 O7 1_555 1_555
O1_2 Pb1A_2 1_555 1_555
O2_2 Pb1A_2 1_555 1_555
O3_2 Pb1A_2 1_555 1_555
O4_2 Pb1A_2 1_555 1_555
O5_2 Pb1A_2 1_555 1_555
O6A Pb1A_2 1_555 1_555
C22A O6A 1_555 1_555
C21A C22A 1_555 1_555
F1A C21A 1_555 1_555
F2A C21A 1_555 1_555
F3A C21A 1_555 1_555
O7A Pb1 1_555 1_555
O8A Pb1A_2 1_555 1_555
C23A C24 1_555 1_555
O9A Pb1 1_555 1_555
C24A C23 1_555 1_555
F4A C24A 1_555 1_555
F5A C24A 1_555 1_555
F6A C24A 1_555 1_555
C9A C10A 1_555 1_555
C14A C13A 1_555 1_555
H19A C14A 1_555 1_555
H17A C11A 1_555 1_555
H18A C12A 1_555 1_555
H20A C15A 1_555 1_555
C17A C16A 1_555 1_555
N1A C17A 1_555 1_555
C19A C20 1_555 1_555
H21A C19A 1_555 1_555
H22A C20A 1_555 1_555
O2 Pb1A 1_555 1_555
O3 Pb1A 1_555 1_555
O4 Pb1A 1_555 1_555
O5 Pb1A 1_555 1_555
C9 C10 1_555 1_555
C13 C14 1_555 1_555
O9 Pb1A_2 1_555 1_555
C18A C19A 1_555 1_555
C10A O1A 1_555 1_555
C2A C1A 1_555 1_555
C4A O3A 1_555 1_555
C6A C5A 1_555 1_555
C8A O5A 1_555 1_555
O5A C9A 1_555 1_555
C22A O7A 1_555 1_555
O8A C23A 1_555 1_555
C23A O9A 1_555 1_555
C9A C14A 1_555 1_555

#END
