
#######################################################################
#
#                 Cambridge Crystallographic Data Centre
#                                CCDC 
#
#######################################################################
#
# If this CIF has been generated from an entry in the Cambridge 
# Structural Database, then it will include bibliographic, chemical, 
# crystal, experimental, refinement or atomic coordinate data resulting 
# from the CCDC's data processing and validation procedures.
#
#######################################################################

data_EREREZ
_symmetry_cell_setting           orthorhombic
_symmetry_space_group_name_H-M   'P n m a'
_symmetry_Int_Tables_number      62
_space_group_name_Hall           '-P 2ac 2n'
loop_
_symmetry_equiv_pos_site_id
_symmetry_equiv_pos_as_xyz
1 x,y,z
2 1/2+x,1/2-y,1/2-z
3 -x,1/2+y,-z
4 1/2-x,-y,1/2+z
5 -x,-y,-z
6 1/2-x,1/2+y,1/2+z
7 x,1/2-y,z
8 1/2+x,y,1/2-z
_cell_length_a                   11.6932(3)
_cell_length_b                   14.1254(3)
_cell_length_c                   6.51300(10)
_cell_angle_alpha                90
_cell_angle_beta                 90
_cell_angle_gamma                90
_cell_volume                     1075.76
loop_
_atom_site_label
_atom_site_type_symbol
_atom_site_fract_x
_atom_site_fract_y
_atom_site_fract_z
Na1 Na 0.53868(3) 0.2500 0.20509(6)
O1 O 0.44700(5) 0.14747(4) -0.05163(8)
O2 O 0.34387(5) 0.16659(4) -0.34157(8)
C1 C 0.40112(5) 0.19563(4) -0.18020(9)
B1 B 0.30460(9) 0.2500 -0.46233(16)
F1 F 0.35481(6) 0.2500 -0.65402(9)
F2 F 0.18741(6) 0.2500 -0.47948(11)
N1 N 0.60143(7) 0.12710(6) 0.43675(12)
C2 C 0.62179(6) 0.07466(5) 0.56558(11)
C3 C 0.64674(7) 0.00803(5) 0.72867(13)
H1 H 0.6132(7) 0.0290(3) 0.8509(11)
H2 H 0.7260(7) 0.0035(4) 0.7461(9)
H3 H 0.6171(7) -0.0515(5) 0.6943(7)
Na1_2 Na 0.53868(3) 0.2500 -0.79491(6)
Na1A Na 0.03868(3) 0.2500 -0.70509(6)
O1F O 0.44700(5) 0.35253(4) -0.05163(8)
O2F O 0.34387(5) 0.33341(4) -0.34157(8)
C1F C 0.40112(5) 0.30437(4) -0.18020(9)
F1_2 F 0.35481(6) 0.2500 0.34598(9)
F2A F 0.68741(6) 0.2500 -0.02052(11)
N1F N 0.60143(7) 0.37290(6) 0.43675(12)
C2F C 0.62179(6) 0.42534(5) 0.56558(11)
C3F C 0.64674(7) 0.49197(5) 0.72867(13)
H1F H 0.6132(7) 0.4710(3) 0.8509(11)
H2F H 0.7260(7) 0.4965(4) 0.7461(9)
H3F H 0.6171(7) 0.5515(5) 0.6943(7)
loop_
_geom_bond_atom_site_label_1
_geom_bond_atom_site_label_2
_geom_bond_site_symmetry_1
_geom_bond_site_symmetry_2
Na1 O1 1_555 1_555
O1 C1 1_555 1_555
O2 C1 1_555 1_555
C1 C1F 1_555 1_555
B1 O2 1_555 1_555
F1 B1 1_555 1_555
F2 B1 1_555 1_555
N1 Na1 1_555 1_555
C2 N1 1_555 1_555
C3 C2 1_555 1_555
H1 C3 1_555 1_555
H2 C3 1_555 1_555
H3 C3 1_555 1_555
Na1_2 F1 1_555 1_555
Na1A F2 1_555 1_555
O1F Na1 1_555 1_555
O2F B1 1_555 1_555
C1F O1F 1_555 1_555
F1_2 Na1 1_555 1_555
F2A Na1 1_555 1_555
N1F Na1 1_555 1_555
C2F N1F 1_555 1_555
C3F C2F 1_555 1_555
H1F C3F 1_555 1_555
H2F C3F 1_555 1_555
H3F C3F 1_555 1_555
O2F C1F 1_555 1_555

#END
