
#######################################################################
#
#                 Cambridge Crystallographic Data Centre
#                                CCDC 
#
#######################################################################
#
# If this CIF has been generated from an entry in the Cambridge 
# Structural Database, then it will include bibliographic, chemical, 
# crystal, experimental, refinement or atomic coordinate data resulting 
# from the CCDC's data processing and validation procedures.
#
#######################################################################

data_ERETOL
_symmetry_cell_setting           monoclinic
_symmetry_space_group_name_H-M   'P 2/c'
_symmetry_Int_Tables_number      13
_space_group_name_Hall           '-P 2yc'
loop_
_symmetry_equiv_pos_site_id
_symmetry_equiv_pos_as_xyz
1 x,y,z
2 -x,y,1/2-z
3 -x,-y,-z
4 x,-y,1/2+z
_cell_length_a                   14.3102(3)
_cell_length_b                   13.9933(2)
_cell_length_c                   36.0614(6)
_cell_angle_alpha                90
_cell_angle_beta                 91.211(2)
_cell_angle_gamma                90
_cell_volume                     7219.57
loop_
_atom_site_label
_atom_site_type_symbol
_atom_site_fract_x
_atom_site_fract_y
_atom_site_fract_z
Mn1 Mn 0.62315(4) 0.01645(4) 0.122255(15)
Mn2 Mn -0.12571(4) 0.21901(4) -0.119724(14)
N1 N -0.1268(2) 0.0521(2) -0.12307(8)
C1 C -0.1725(3) 0.0065(3) -0.15087(11)
H1 H -0.2060 0.0428 -0.1682
C2 C -0.1722(3) -0.0915(3) -0.15496(11)
H2 H -0.2047 -0.1195 -0.1748
C3 C -0.1239(3) -0.1482(3) -0.12975(11)
C4 C -0.0762(3) -0.1013(3) -0.10109(11)
H3 H -0.0421 -0.1360 -0.0835
C5 C -0.0797(3) -0.0031(3) -0.09895(11)
H4 H -0.0474 0.0266 -0.0795
C6 C -0.1261(3) -0.2528(3) -0.13367(12)
H5 H -0.1363 -0.2774 -0.1574
C7 C -0.1148(3) -0.3143(3) -0.10635(12)
H6 H -0.1037 -0.2894 -0.0828
C8 C -0.1182(3) -0.4190(3) -0.10983(11)
C9 C -0.1231(3) -0.4765(3) -0.07876(11)
H7 H -0.1237 -0.4492 -0.0552
C10 C -0.1271(3) -0.5740(3) -0.08270(11)
H8 H -0.1311 -0.6113 -0.0614
C11 C -0.1207(3) -0.5623(3) -0.14530(12)
H9 H -0.1197 -0.5915 -0.1685
C12 C -0.1169(3) -0.4645(3) -0.14405(11)
H10 H -0.1135 -0.4291 -0.1658
N2 N -0.1256(2) -0.6180(2) -0.11562(9)
N3 N 0.0030(2) 0.2156(2) -0.07933(8)
C13 C 0.0906(3) 0.2202(4) -0.09136(12)
H11 H 0.0994 0.2310 -0.1165
C14 C 0.1680(3) 0.2100(4) -0.06881(13)
H12 H 0.2271 0.2160 -0.0788
C15 C 0.1600(3) 0.1911(3) -0.03208(13)
C16 C 0.0698(3) 0.1901(4) -0.01895(12)
H13 H 0.0600 0.1812 0.0062
C17 C -0.0056(3) 0.2024(3) -0.04298(11)
H14 H -0.0653 0.2014 -0.0333
C18 C 0.2465(4) 0.1687(4) -0.01021(14)
H15 H 0.3028 0.1894 -0.0198
C19 C 0.2501(4) 0.1240(4) 0.02013(13)
H16 H 0.1935 0.1084 0.0308
C20 C 0.3371(3) 0.0938(3) 0.04045(13)
C21 C 0.3289(3) 0.0599(5) 0.07585(14)
H17 H 0.2701 0.0552 0.0862
C22 C 0.4062(3) 0.0326(4) 0.09612(13)
H18 H 0.3978 0.0108 0.1202
C23 C 0.5007(3) 0.0635(3) 0.04844(11)
H19 H 0.5595 0.0626 0.0380
C24 C 0.4251(3) 0.0941(3) 0.02680(12)
H20 H 0.4347 0.1151 0.0027
N4 N 0.4927(2) 0.0356(2) 0.08342(8)
N5 N 0.6187(2) -0.1488(2) 0.11906(9)
C25 C 0.5692(3) -0.1929(3) 0.09229(11)
H21 H 0.5347 -0.1556 0.0756
C26 C 0.5664(3) -0.2906(3) 0.08807(11)
H22 H 0.5309 -0.3174 0.0688
C27 C 0.6161(3) -0.3492(3) 0.11222(11)
C28 C 0.6675(3) -0.3037(3) 0.14042(12)
H23 H 0.7022 -0.3396 0.1575
C29 C 0.6666(3) -0.2057(3) 0.14279(12)
H24 H 0.7010 -0.1770 0.1619
C30 C 0.6144(3) -0.4537(3) 0.10791(12)
H25 H 0.6020 -0.4780 0.0843
C31 C 0.6291(3) -0.5155(3) 0.13501(12)
H26 H 0.6416 -0.4907 0.1585
C32 C 0.6277(3) -0.6200(3) 0.13131(11)
C33 C 0.6207(3) -0.6768(3) 0.16241(12)
H27 H 0.6161 -0.6492 0.1858
C34 C 0.6205(3) -0.7749(3) 0.15851(11)
H28 H 0.6145 -0.8118 0.1798
C35 C 0.6363(3) -0.7641(3) 0.09618(11)
H29 H 0.6431 -0.7935 0.0733
C36 C 0.6351(3) -0.6657(3) 0.09734(11)
H30 H 0.6393 -0.6303 0.0756
N6 N 0.6283(2) -0.8201(2) 0.12618(9)
N9 N -0.2528(2) 0.2278(2) -0.16142(9)
C49 C -0.3403(3) 0.2265(4) -0.14929(13)
H41 H -0.3490 0.2250 -0.1238
C50 C -0.4178(3) 0.2272(4) -0.17205(14)
H42 H -0.4768 0.2269 -0.1617
C51 C -0.4103(3) 0.2284(4) -0.20947(14)
C52 C -0.3201(4) 0.2293(4) -0.22283(12)
H43 H -0.3104 0.2298 -0.2483
C53 C -0.2444(3) 0.2295(3) -0.19821(11)
H44 H -0.1846 0.2309 -0.2078
C54 C -0.4971(4) 0.2283(4) -0.23282(13)
H45 H -0.5532 0.2283 -0.2203
N12 N 0.7525(2) 0.0070(2) 0.16209(8)
C66 C 0.7446(3) -0.0039(3) 0.19864(11)
H55 H 0.6849 -0.0061 0.2084
C67 C 0.8207(3) -0.0121(3) 0.22282(12)
H56 H 0.8114 -0.0200 0.2481
C68 C 0.9097(3) -0.0085(3) 0.20951(12)
C69 C 0.9175(3) 0.0022(4) 0.17212(13)
H57 H 0.9764 0.0049 0.1617
C70 C 0.8391(3) 0.0092(4) 0.14988(12)
H58 H 0.8472 0.0159 0.1245
C71 C 0.9966(4) -0.0124(4) 0.23262(12)
H59 H 1.0524 -0.0152 0.2199
N13 N -0.0334(3) 0.2265(3) -0.16706(9)
C72 C 0.0280(3) 0.2525(3) -0.18490(11)
Se1 Se 0.12347(4) 0.29280(5) -0.211172(17)
N14 N -0.2189(2) 0.2092(3) -0.07297(9)
C73 C -0.2774(3) 0.2041(3) -0.05138(11)
Se2 Se -0.36807(4) 0.19698(5) -0.018923(14)
N15 N 0.5330(3) 0.0107(3) 0.16991(9)
C74 C 0.4719(3) 0.0262(3) 0.18959(11)
Se3 Se 0.37749(4) 0.05023(6) 0.219058(15)
N16 N 0.7137(2) 0.0225(3) 0.07427(9)
C75 C 0.7777(3) 0.0433(3) 0.05675(11)
Se4 Se 0.87743(3) 0.07271(4) 0.030650(14)
Mn1_2 Mn 0.62315(4) 1.01645(4) 0.122255(15)
Mn1_3 Mn 0.62315(4) -0.98355(4) 0.122255(15)
Mn1A Mn 1.37685(4) 0.01645(4) 0.377745(15)
Mn2_2 Mn -0.12571(4) 1.21901(4) -0.119724(14)
Mn2_3 Mn -0.12571(4) -0.78099(4) -0.119724(14)
Mn2A Mn -0.87429(4) 0.21901(4) -0.380276(14)
N1_2 N -0.1268(2) 1.0521(2) -0.12307(8)
C1_2 C -0.1725(3) 1.0065(3) -0.15087(11)
H1_2 H -0.2060 1.0428 -0.1682
C2_2 C -0.1722(3) 0.9085(3) -0.15496(11)
H2_2 H -0.2047 0.8805 -0.1748
C3_2 C -0.1239(3) 0.8518(3) -0.12975(11)
C4_2 C -0.0762(3) 0.8987(3) -0.10109(11)
H3_2 H -0.0421 0.8640 -0.0835
C5_2 C -0.0797(3) 0.9969(3) -0.09895(11)
H4_2 H -0.0474 1.0266 -0.0795
C6_2 C -0.1261(3) 0.7472(3) -0.13367(12)
H5_2 H -0.1363 0.7226 -0.1574
C7_2 C -0.1148(3) 0.6857(3) -0.10635(12)
H6_2 H -0.1037 0.7106 -0.0828
C8_2 C -0.1182(3) 0.5810(3) -0.10983(11)
C9_2 C -0.1231(3) 0.5235(3) -0.07876(11)
H7_2 H -0.1237 0.5508 -0.0552
C10_2 C -0.1271(3) 0.4260(3) -0.08270(11)
H8_2 H -0.1311 0.3887 -0.0614
C11_2 C -0.1207(3) 0.4377(3) -0.14530(12)
H9_2 H -0.1197 0.4085 -0.1685
C12_2 C -0.1169(3) 0.5355(3) -0.14405(11)
H10_2 H -0.1135 0.5709 -0.1658
N2_2 N -0.1256(2) 0.3820(2) -0.11562(9)
N2_3 N -0.1256(2) 1.3820(2) -0.11562(9)
N3_2 N 0.0030(2) 1.2156(2) -0.07933(8)
C13_2 C 0.0906(3) 1.2202(4) -0.09136(12)
H11_2 H 0.0994 1.2310 -0.1165
C14_2 C 0.1680(3) 1.2100(4) -0.06881(13)
H12_2 H 0.2271 1.2160 -0.0788
C15_2 C 0.1600(3) 1.1911(3) -0.03208(13)
C16_2 C 0.0698(3) 1.1901(4) -0.01895(12)
H13_2 H 0.0600 1.1812 0.0062
C17_2 C -0.0056(3) 1.2024(3) -0.04298(11)
H14_2 H -0.0653 1.2014 -0.0333
C18_2 C 0.2465(4) 1.1687(4) -0.01021(14)
H15_2 H 0.3028 1.1894 -0.0198
C19_2 C 0.2501(4) 1.1240(4) 0.02013(13)
H16_2 H 0.1935 1.1084 0.0308
C20_2 C 0.3371(3) 1.0938(3) 0.04045(13)
C21_2 C 0.3289(3) 1.0599(5) 0.07585(14)
H17_2 H 0.2701 1.0552 0.0862
C22_2 C 0.4062(3) 1.0326(4) 0.09612(13)
H18_2 H 0.3978 1.0108 0.1202
C23_2 C 0.5007(3) 1.0635(3) 0.04844(11)
H19_2 H 0.5595 1.0626 0.0380
C24_2 C 0.4251(3) 1.0941(3) 0.02680(12)
H20_2 H 0.4347 1.1151 0.0027
N4_2 N 0.4927(2) 1.0356(2) 0.08342(8)
N5_2 N 0.6187(2) 0.8512(2) 0.11906(9)
C25_2 C 0.5692(3) 0.8071(3) 0.09229(11)
H21_2 H 0.5347 0.8444 0.0756
C26_2 C 0.5664(3) 0.7094(3) 0.08807(11)
H22_2 H 0.5309 0.6826 0.0688
C27_2 C 0.6161(3) 0.6508(3) 0.11222(11)
C28_2 C 0.6675(3) 0.6963(3) 0.14042(12)
H23_2 H 0.7022 0.6604 0.1575
C29_2 C 0.6666(3) 0.7943(3) 0.14279(12)
H24_2 H 0.7010 0.8230 0.1619
C30_2 C 0.6144(3) 0.5463(3) 0.10791(12)
H25_2 H 0.6020 0.5220 0.0843
C31_2 C 0.6291(3) 0.4845(3) 0.13501(12)
H26_2 H 0.6416 0.5093 0.1585
C32_2 C 0.6277(3) 0.3800(3) 0.13131(11)
C33_2 C 0.6207(3) 0.3232(3) 0.16241(12)
H27_2 H 0.6161 0.3508 0.1858
C34_2 C 0.6205(3) 0.2251(3) 0.15851(11)
H28_2 H 0.6145 0.1882 0.1798
C35_2 C 0.6363(3) 0.2359(3) 0.09618(11)
H29_2 H 0.6431 0.2065 0.0733
C36_2 C 0.6351(3) 0.3343(3) 0.09734(11)
H30_2 H 0.6393 0.3697 0.0756
N6_2 N 0.6283(2) 0.1799(2) 0.12618(9)
N6_3 N 0.6283(2) 1.1799(2) 0.12618(9)
N9A N -0.7472(2) 0.2278(2) -0.33858(9)
N9_2 N -0.2528(2) 1.2278(2) -0.16142(9)
C49A C -0.6597(3) 0.2265(4) -0.35071(13)
H41A H -0.6510 0.2250 -0.3762
C50A C -0.5822(3) 0.2272(4) -0.32795(14)
H42A H -0.5232 0.2269 -0.3383
C51A C -0.5897(3) 0.2284(4) -0.29053(14)
C52A C -0.6799(4) 0.2293(4) -0.27717(12)
H43A H -0.6896 0.2298 -0.2517
C53A C -0.7556(3) 0.2295(3) -0.30179(11)
H44A H -0.8154 0.2309 -0.2922
C54A C -0.5029(4) 0.2283(4) -0.26718(13)
H45A H -0.4468 0.2283 -0.2797
N12A N 1.2475(2) 0.0070(2) 0.33791(8)
N12_2 N 0.7525(2) 1.0070(2) 0.16209(8)
C66A C 1.2554(3) -0.0039(3) 0.30136(11)
H55A H 1.3151 -0.0061 0.2916
C67A C 1.1793(3) -0.0121(3) 0.27718(12)
H56A H 1.1886 -0.0200 0.2519
C68A C 1.0903(3) -0.0085(3) 0.29049(12)
C69A C 1.0825(3) 0.0022(4) 0.32788(13)
H57A H 1.0236 0.0049 0.3383
C70A C 1.1609(3) 0.0092(4) 0.35012(12)
H58A H 1.1528 0.0159 0.3755
C71A C 1.0034(4) -0.0124(4) 0.26738(12)
H59A H 0.9476 -0.0152 0.2801
N13_2 N -0.0334(3) 1.2265(3) -0.16706(9)
C72_2 C 0.0280(3) 1.2525(3) -0.18490(11)
Se1_2 Se 0.12347(4) 1.29280(5) -0.211172(17)
N14_2 N -0.2189(2) 1.2092(3) -0.07297(9)
C73_2 C -0.2774(3) 1.2041(3) -0.05138(11)
Se2_2 Se -0.36807(4) 1.19698(5) -0.018923(14)
N15_2 N 0.5330(3) 1.0107(3) 0.16991(9)
C74_2 C 0.4719(3) 1.0262(3) 0.18959(11)
Se3_2 Se 0.37749(4) 1.05023(6) 0.219058(15)
N16_2 N 0.7137(2) 1.0225(3) 0.07427(9)
C75_2 C 0.7777(3) 1.0433(3) 0.05675(11)
Se4_2 Se 0.87743(3) 1.07271(4) 0.030650(14)
N7 N 0.8742(4) 0.4435(5) 0.01294(14)
C37 C 0.8781(6) 0.5184(5) 0.0353(2)
H31 H 0.8820 0.5785 0.0245
C38 C 0.8768(5) 0.5137(5) 0.07329(16)
H32 H 0.8790 0.5696 0.0872
C39 C 0.8722(3) 0.4262(4) 0.09082(13)
C40 C 0.8668(4) 0.3469(4) 0.06801(14)
H33 H 0.8628 0.2858 0.0780
C41 C 0.8673(5) 0.3602(5) 0.02991(16)
H34 H 0.8625 0.3060 0.0151
C42 C 0.8729(3) 0.4229(4) 0.13149(14)
H35 H 0.8765 0.4813 0.1438
C43 C 0.8690(4) 0.3472(4) 0.15213(14)
H36 H 0.8654 0.2886 0.1400
C44 C 0.8698(4) 0.3450(4) 0.19293(13)
C45 C 0.8767(5) 0.4244(5) 0.21498(16)
H37 H 0.8812 0.4847 0.2043
C46 C 0.8771(6) 0.4151(6) 0.25317(18)
H38 H 0.8818 0.4705 0.2673
C47 C 0.8637(6) 0.2587(6) 0.24944(19)
H39 H 0.8588 0.1994 0.2609
C48 C 0.8622(6) 0.2603(5) 0.21140(16)
H40 H 0.8559 0.2036 0.1982
N8 N 0.8713(4) 0.3331(5) 0.27070(14)
N10 N -0.3906(4) -0.4425(5) 0.00920(14)
C55 C -0.3648(5) -0.5210(6) -0.00842(18)
H46 H -0.3497 -0.5746 0.0057
C56 C -0.3589(4) -0.5281(5) -0.04643(17)
H47 H -0.3421 -0.5856 -0.0573
C57 C -0.3780(4) -0.4503(5) -0.06783(15)
C58 C -0.4056(5) -0.3687(5) -0.04989(17)
H48 H -0.4208 -0.3142 -0.0635
C59 C -0.4109(5) -0.3675(6) -0.01181(18)
H49 H -0.4295 -0.3113 -0.0003
C60 C -0.3716(4) -0.4604(6) -0.10878(17)
H50 H -0.3609 -0.5218 -0.1176
C61 C -0.3786(4) -0.3983(6) -0.13192(19)
H51 H -0.3873 -0.3365 -0.1232
C62 C -0.3749(4) -0.4100(6) -0.17381(17)
C63 C -0.3663(6) -0.4953(6) -0.1922(2)
H52 H -0.3608 -0.5520 -0.1788
C64 C -0.3657(7) -0.4969(6) -0.2306(2)
H53 H -0.3599 -0.5558 -0.2422
C65 C -0.3801(5) -0.3401(6) -0.23341(19)
H54 H -0.3854 -0.2844 -0.2474
N11 N -0.3728(5) -0.4211(5) -0.25138(15)
C76 C -0.3805(5) -0.3312(6) -0.19489(18)
H60 H -0.3846 -0.2712 -0.1839
loop_
_geom_bond_atom_site_label_1
_geom_bond_atom_site_label_2
_geom_bond_site_symmetry_1
_geom_bond_site_symmetry_2
Mn1 N4 1_555 1_555
Mn2 N1 1_555 1_555
N1 C1 1_555 1_555
C1 H1 1_555 1_555
C2 C1 1_555 1_555
H2 C2 1_555 1_555
C3 C2 1_555 1_555
C4 C3 1_555 1_555
H3 C4 1_555 1_555
C5 N1 1_555 1_555
H4 C5 1_555 1_555
C6 C3 1_555 1_555
H5 C6 1_555 1_555
C7 C6 1_555 1_555
H6 C7 1_555 1_555
C8 C7 1_555 1_555
C9 C8 1_555 1_555
H7 C9 1_555 1_555
C10 C9 1_555 1_555
H8 C10 1_555 1_555
C11 H9 1_555 1_555
C12 C8 1_555 1_555
H10 C12 1_555 1_555
N2 C10 1_555 1_555
N3 Mn2 1_555 1_555
C13 N3 1_555 1_555
H11 C13 1_555 1_555
C14 C13 1_555 1_555
H12 C14 1_555 1_555
C15 C14 1_555 1_555
C16 C15 1_555 1_555
H13 C16 1_555 1_555
C17 N3 1_555 1_555
H14 C17 1_555 1_555
C18 C15 1_555 1_555
H15 C18 1_555 1_555
C19 C18 1_555 1_555
H16 C19 1_555 1_555
C20 C19 1_555 1_555
C21 C20 1_555 1_555
H17 C21 1_555 1_555
C22 C21 1_555 1_555
H18 C22 1_555 1_555
C23 H19 1_555 1_555
C24 C20 1_555 1_555
H20 C24 1_555 1_555
N4 C22 1_555 1_555
N5 Mn1 1_555 1_555
C25 N5 1_555 1_555
H21 C25 1_555 1_555
C26 C25 1_555 1_555
H22 C26 1_555 1_555
C27 C26 1_555 1_555
C28 C27 1_555 1_555
H23 C28 1_555 1_555
C29 N5 1_555 1_555
H24 C29 1_555 1_555
C30 C27 1_555 1_555
H25 C30 1_555 1_555
C31 C30 1_555 1_555
H26 C31 1_555 1_555
C32 C31 1_555 1_555
C33 C32 1_555 1_555
H27 C33 1_555 1_555
C34 C33 1_555 1_555
H28 C34 1_555 1_555
C35 H29 1_555 1_555
C36 C32 1_555 1_555
H30 C36 1_555 1_555
N6 C34 1_555 1_555
N7 C37 1_555 1_555
C37 H31 1_555 1_555
C38 C37 1_555 1_555
H32 C38 1_555 1_555
C39 C38 1_555 1_555
C40 C39 1_555 1_555
H33 C40 1_555 1_555
C41 N7 1_555 1_555
H34 C41 1_555 1_555
C42 C39 1_555 1_555
H35 C42 1_555 1_555
C43 C42 1_555 1_555
H36 C43 1_555 1_555
C44 C43 1_555 1_555
C45 C44 1_555 1_555
H37 C45 1_555 1_555
C46 C45 1_555 1_555
H38 C46 1_555 1_555
C47 H39 1_555 1_555
C48 C44 1_555 1_555
H40 C48 1_555 1_555
N8 C46 1_555 1_555
N9 Mn2 1_555 1_555
C49 N9 1_555 1_555
H41 C49 1_555 1_555
C50 C49 1_555 1_555
H42 C50 1_555 1_555
C51 C50 1_555 1_555
C52 C51 1_555 1_555
H43 C52 1_555 1_555
C53 N9 1_555 1_555
H44 C53 1_555 1_555
C54 C51 1_555 1_555
H45 C54 1_555 1_555
N10 C55 1_555 1_555
C55 H46 1_555 1_555
C56 C55 1_555 1_555
H47 C56 1_555 1_555
C57 C56 1_555 1_555
C58 C57 1_555 1_555
H48 C58 1_555 1_555
C59 N10 1_555 1_555
H49 C59 1_555 1_555
C60 C57 1_555 1_555
H50 C60 1_555 1_555
C61 C60 1_555 1_555
H51 C61 1_555 1_555
C62 C61 1_555 1_555
C63 C62 1_555 1_555
H52 C63 1_555 1_555
C64 C63 1_555 1_555
H53 C64 1_555 1_555
C65 H54 1_555 1_555
N11 C64 1_555 1_555
N12 Mn1 1_555 1_555
C66 N12 1_555 1_555
H55 C66 1_555 1_555
C67 C66 1_555 1_555
H56 C67 1_555 1_555
C68 C67 1_555 1_555
C69 C68 1_555 1_555
H57 C69 1_555 1_555
C70 N12 1_555 1_555
H58 C70 1_555 1_555
C71 C68 1_555 1_555
H59 C71 1_555 1_555
N13 Mn2 1_555 1_555
C72 N13 1_555 1_555
Se1 C72 1_555 1_555
N14 Mn2 1_555 1_555
C73 N14 1_555 1_555
Se2 C73 1_555 1_555
N15 Mn1 1_555 1_555
C74 N15 1_555 1_555
Se3 C74 1_555 1_555
N16 Mn1 1_555 1_555
C75 N16 1_555 1_555
Se4 C75 1_555 1_555
C76 C62 1_555 1_555
H60 C76 1_555 1_555
Mn1_2 N4_2 1_555 1_555
Mn1_3 N6 1_555 1_555
Mn1A N12A 1_555 1_555
Mn2_2 N1_2 1_555 1_555
Mn2_3 N2 1_555 1_555
Mn2A N9A 1_555 1_555
N1_2 C1_2 1_555 1_555
C1_2 H1_2 1_555 1_555
C2_2 C1_2 1_555 1_555
H2_2 C2_2 1_555 1_555
C3_2 C2_2 1_555 1_555
C4_2 C3_2 1_555 1_555
H3_2 C4_2 1_555 1_555
C5_2 N1_2 1_555 1_555
H4_2 C5_2 1_555 1_555
C6_2 C3_2 1_555 1_555
H5_2 C6_2 1_555 1_555
C7_2 C6_2 1_555 1_555
H6_2 C7_2 1_555 1_555
C8_2 C7_2 1_555 1_555
C9_2 C8_2 1_555 1_555
H7_2 C9_2 1_555 1_555
C10_2 C9_2 1_555 1_555
H8_2 C10_2 1_555 1_555
C11_2 H9_2 1_555 1_555
C12_2 C8_2 1_555 1_555
H10_2 C12_2 1_555 1_555
N2_2 Mn2 1_555 1_555
N2_3 Mn2_2 1_555 1_555
N3_2 Mn2_2 1_555 1_555
C13_2 N3_2 1_555 1_555
H11_2 C13_2 1_555 1_555
C14_2 C13_2 1_555 1_555
H12_2 C14_2 1_555 1_555
C15_2 C14_2 1_555 1_555
C16_2 C15_2 1_555 1_555
H13_2 C16_2 1_555 1_555
C17_2 N3_2 1_555 1_555
H14_2 C17_2 1_555 1_555
C18_2 C15_2 1_555 1_555
H15_2 C18_2 1_555 1_555
C19_2 C18_2 1_555 1_555
H16_2 C19_2 1_555 1_555
C20_2 C19_2 1_555 1_555
C21_2 C20_2 1_555 1_555
H17_2 C21_2 1_555 1_555
C22_2 C21_2 1_555 1_555
H18_2 C22_2 1_555 1_555
C23_2 H19_2 1_555 1_555
C24_2 C20_2 1_555 1_555
H20_2 C24_2 1_555 1_555
N4_2 C22_2 1_555 1_555
N5_2 Mn1_2 1_555 1_555
C25_2 N5_2 1_555 1_555
H21_2 C25_2 1_555 1_555
C26_2 C25_2 1_555 1_555
H22_2 C26_2 1_555 1_555
C27_2 C26_2 1_555 1_555
C28_2 C27_2 1_555 1_555
H23_2 C28_2 1_555 1_555
C29_2 N5_2 1_555 1_555
H24_2 C29_2 1_555 1_555
C30_2 C27_2 1_555 1_555
H25_2 C30_2 1_555 1_555
C31_2 C30_2 1_555 1_555
H26_2 C31_2 1_555 1_555
C32_2 C31_2 1_555 1_555
C33_2 C32_2 1_555 1_555
H27_2 C33_2 1_555 1_555
C34_2 C33_2 1_555 1_555
H28_2 C34_2 1_555 1_555
C35_2 H29_2 1_555 1_555
C36_2 C32_2 1_555 1_555
H30_2 C36_2 1_555 1_555
N6_2 Mn1 1_555 1_555
N6_3 Mn1_2 1_555 1_555
N9A C49A 1_555 1_555
N9_2 Mn2_2 1_555 1_555
C49A H41A 1_555 1_555
C50A C49A 1_555 1_555
H42A C50A 1_555 1_555
C51A C50A 1_555 1_555
C52A C51A 1_555 1_555
H43A C52A 1_555 1_555
C53A N9A 1_555 1_555
H44A C53A 1_555 1_555
C54A C54 1_555 1_555
H45A C54A 1_555 1_555
N12A C66A 1_555 1_555
N12_2 Mn1_2 1_555 1_555
C66A H55A 1_555 1_555
C67A C66A 1_555 1_555
H56A C67A 1_555 1_555
C68A C67A 1_555 1_555
C69A C68A 1_555 1_555
H57A C69A 1_555 1_555
C70A N12A 1_555 1_555
H58A C70A 1_555 1_555
C71A C71 1_555 1_555
H59A C71A 1_555 1_555
N13_2 Mn2_2 1_555 1_555
C72_2 N13_2 1_555 1_555
Se1_2 C72_2 1_555 1_555
N14_2 Mn2_2 1_555 1_555
C73_2 N14_2 1_555 1_555
Se2_2 C73_2 1_555 1_555
N15_2 Mn1_2 1_555 1_555
C74_2 N15_2 1_555 1_555
Se3_2 C74_2 1_555 1_555
N16_2 Mn1_2 1_555 1_555
C75_2 N16_2 1_555 1_555
Se4_2 C75_2 1_555 1_555
C4 C5 1_555 1_555
C11 C12 1_555 1_555
C11 N2 1_555 1_555
C16 C17 1_555 1_555
C23 C24 1_555 1_555
C23 N4 1_555 1_555
C28 C29 1_555 1_555
C35 C36 1_555 1_555
C35 N6 1_555 1_555
C40 C41 1_555 1_555
C47 C48 1_555 1_555
C47 N8 1_555 1_555
C52 C53 1_555 1_555
C58 C59 1_555 1_555
C65 N11 1_555 1_555
C65 C76 1_555 1_555
C69 C70 1_555 1_555
C4_2 C5_2 1_555 1_555
C10_2 N2_2 1_555 1_555
C11_2 C12_2 1_555 1_555
C11_2 N2_2 1_555 1_555
C16_2 C17_2 1_555 1_555
C23_2 C24_2 1_555 1_555
C23_2 N4_2 1_555 1_555
C28_2 C29_2 1_555 1_555
C34_2 N6_2 1_555 1_555
C35_2 C36_2 1_555 1_555
C35_2 N6_2 1_555 1_555
C51A C54A 1_555 1_555
C52A C53A 1_555 1_555
C68A C71A 1_555 1_555
C69A C70A 1_555 1_555

#END
