
#######################################################################
#
#                 Cambridge Crystallographic Data Centre
#                                CCDC 
#
#######################################################################
#
# If this CIF has been generated from an entry in the Cambridge 
# Structural Database, then it will include bibliographic, chemical, 
# crystal, experimental, refinement or atomic coordinate data resulting 
# from the CCDC's data processing and validation procedures.
#
#######################################################################

data_EREVON
_symmetry_cell_setting           monoclinic
_symmetry_space_group_name_H-M   'P 21/n'
_symmetry_Int_Tables_number      14
_space_group_name_Hall           '-P 2yn'
loop_
_symmetry_equiv_pos_site_id
_symmetry_equiv_pos_as_xyz
1 x,y,z
2 1/2-x,1/2+y,1/2-z
3 -x,-y,-z
4 1/2+x,1/2-y,1/2+z
_cell_length_a                   11.6673(3)
_cell_length_b                   15.5511(4)
_cell_length_c                   21.4339(7)
_cell_angle_alpha                90
_cell_angle_beta                 99.2130(10)
_cell_angle_gamma                90
_cell_volume                     3838.79
loop_
_atom_site_label
_atom_site_type_symbol
_atom_site_fract_x
_atom_site_fract_y
_atom_site_fract_z
W1 W 0.810420(12) 0.888675(9) 0.224158(6)
Mn1 Mn 0.45358(5) 1.11286(4) 0.17557(3)
Mn2 Mn 0.47767(5) 0.64730(4) 0.15037(2)
O1 O 0.4226(3) 1.0759(2) 0.27269(13)
H1 H 0.487(2) 1.069(3) 0.2960(19)
H2 H 0.390(4) 1.116(2) 0.289(2)
O2 O 0.3345(2) 1.2232(2) 0.18036(15)
H3 H 0.2623(17) 1.227(3) 0.175(2)
H4 H 0.359(4) 1.2694(18) 0.196(2)
O3 O 0.4296(3) 0.6143(2) 0.24405(14)
H5 H 0.482(3) 0.586(3) 0.265(2)
H6 H 0.417(4) 0.654(2) 0.2679(18)
O4 O 0.3504(2) 0.7532(2) 0.15113(13)
H7 H 0.281(2) 0.742(3) 0.154(2)
H8 H 0.370(4) 0.790(2) 0.1789(17)
N1 N 0.5679(3) 1.0016(2) 0.18906(15)
N2 N 0.9176(3) 0.7068(2) 0.28805(16)
N3 N 0.6026(3) 0.7475(2) 0.17782(14)
N4 N 0.8920(3) 1.0454(2) 0.32493(14)
N5 N 0.8726(3) 1.0573(2) 0.13964(15)
N6 N 1.1000(3) 0.8869(2) 0.24367(16)
N7 N 0.8601(3) 0.7988(2) 0.09063(16)
N8 N 0.6807(3) 0.8526(2) 0.34906(16)
N9 N 0.3003(3) 1.0525(2) 0.11361(13)
N10 N 0.4871(3) 1.1251(2) 0.07622(15)
N11 N 0.3369(3) 0.5667(2) 0.09489(15)
N12 N 0.5095(3) 0.6474(2) 0.04966(14)
C1 C 0.6537(3) 0.9626(2) 0.20079(16)
C2 C 0.8776(3) 0.7701(3) 0.26592(17)
C3 C 0.6743(3) 0.7977(3) 0.19365(16)
C4 C 0.8609(3) 0.9891(2) 0.29147(16)
C5 C 0.8501(3) 0.9979(3) 0.16697(16)
C6 C 1.0001(3) 0.8900(2) 0.23681(17)
C7 C 0.8414(3) 0.8311(3) 0.13671(17)
C8 C 0.7253(3) 0.8661(3) 0.30556(18)
C9 C 0.2107(3) 1.0146(3) 0.13495(18)
H19 H 0.2054 1.0196 0.1786
C10 C 0.1254(3) 0.9682(3) 0.09624(19)
H20 H 0.0647 0.9403 0.1131
C11 C 0.1318(3) 0.9641(3) 0.03249(19)
H21 H 0.0754 0.9326 0.0047
C12 C 0.2215(3) 1.0065(3) 0.00926(18)
H22 H 0.2247 1.0065 -0.0347
C13 C 0.3053(3) 1.0485(3) 0.05091(17)
C14 C 0.4080(3) 1.0904(2) 0.03018(17)
C15 C 0.4242(4) 1.0915(3) -0.03304(18)
H23 H 0.3675 1.0673 -0.0650
C16 C 0.5243(4) 1.1284(3) -0.04842(19)
H24 H 0.5369 1.1297 -0.0911
C17 C 0.6054(4) 1.1632(3) -0.00101(19)
H25 H 0.6749 1.1882 -0.0105
C18 C 0.5835(3) 1.1609(3) 0.06040(18)
H26 H 0.6387 1.1857 0.0928
C19 C 0.2547(4) 0.5260(3) 0.1201(2)
H27 H 0.2584 0.5274 0.1647
C20 C 0.1643(4) 0.4819(3) 0.0842(2)
H28 H 0.1072 0.4534 0.1036
C21 C 0.1592(4) 0.4803(3) 0.0193(2)
H29 H 0.0981 0.4507 -0.0067
C22 C 0.2434(4) 0.5220(3) -0.0073(2)
H30 H 0.2405 0.5219 -0.0518
C23 C 0.3331(3) 0.5645(3) 0.03160(18)
C24 C 0.4317(4) 0.6061(2) 0.00663(18)
C25 C 0.4452(4) 0.6007(3) -0.05668(19)
H31 H 0.3892 0.5717 -0.0864
C26 C 0.5413(4) 0.6380(3) -0.0755(2)
H32 H 0.5519 0.6350 -0.1185
C27 C 0.6226(4) 0.6800(3) -0.03138(18)
H33 H 0.6898 0.7055 -0.0433
C28 C 0.6025(3) 0.6833(3) 0.03048(18)
H34 H 0.6571 0.7125 0.0608
Mn1A Mn 1.04642(5) 0.61286(4) 0.32443(3)
Mn2A Mn 1.02233(5) 1.14730(4) 0.34963(2)
N2A N 0.5824(3) 1.2068(2) 0.21195(16)
N4A N 0.6080(3) 0.5454(2) 0.17507(14)
O5 O 1.1463(3) 1.3841(2) 0.25177(16)
H9 H 1.110(4) 1.4308(19) 0.249(2)
H10 H 1.217(2) 1.396(3) 0.253(2)
O6 O 1.1027(3) 1.24366(19) 0.17341(14)
H11 H 1.096(4) 1.288(2) 0.1945(19)
H12 H 1.055(3) 1.240(3) 0.1406(14)
O7 O 0.9086(3) 1.22249(19) 0.08148(14)
H13 H 0.898(4) 1.1743(17) 0.096(2)
H14 H 0.866(3) 1.254(3) 0.0984(19)
O8 O 0.9834(3) 1.2948(2) -0.02763(16)
H15 H 0.956(4) 1.274(3) 0.0026(17)
H16 H 1.035(3) 1.265(3) -0.039(2)
O9 O 0.8777(3) 1.2844(2) -0.14985(14)
H17 H 0.901(4) 1.298(3) -0.1123(11)
H18 H 0.913(4) 1.241(2) -0.160(2)
O10 O 0.8624(3) 0.5937(3) 0.14671(17)
loop_
_geom_bond_atom_site_label_1
_geom_bond_atom_site_label_2
_geom_bond_site_symmetry_1
_geom_bond_site_symmetry_2
W1 C1 1_555 1_555
Mn1 O1 1_555 1_555
Mn2 O3 1_555 1_555
O1 H1 1_555 1_555
H2 O1 1_555 1_555
O2 Mn1 1_555 1_555
H3 O2 1_555 1_555
H4 O2 1_555 1_555
O3 H5 1_555 1_555
H6 O3 1_555 1_555
O4 Mn2 1_555 1_555
H7 O4 1_555 1_555
H8 O4 1_555 1_555
O5 H9 1_555 1_555
H10 O5 1_555 1_555
O6 H11 1_555 1_555
H12 O6 1_555 1_555
O7 H13 1_555 1_555
H14 O7 1_555 1_555
O8 H15 1_555 1_555
H16 O8 1_555 1_555
O9 H17 1_555 1_555
H18 O9 1_555 1_555
N1 Mn1 1_555 1_555
N2 C2 1_555 1_555
N3 Mn2 1_555 1_555
N4 C4 1_555 1_555
N5 C5 1_555 1_555
N6 C6 1_555 1_555
N7 C7 1_555 1_555
N8 C8 1_555 1_555
N9 Mn1 1_555 1_555
N10 Mn1 1_555 1_555
N11 Mn2 1_555 1_555
N12 Mn2 1_555 1_555
C1 N1 1_555 1_555
C2 W1 1_555 1_555
C3 W1 1_555 1_555
C4 W1 1_555 1_555
C5 W1 1_555 1_555
C6 W1 1_555 1_555
C7 W1 1_555 1_555
C8 W1 1_555 1_555
C9 N9 1_555 1_555
H19 C9 1_555 1_555
C10 C9 1_555 1_555
H20 C10 1_555 1_555
C11 C10 1_555 1_555
H21 C11 1_555 1_555
C12 C11 1_555 1_555
H22 C12 1_555 1_555
C13 N9 1_555 1_555
C14 N10 1_555 1_555
C15 C14 1_555 1_555
H23 C15 1_555 1_555
C16 C15 1_555 1_555
H24 C16 1_555 1_555
C17 C16 1_555 1_555
H25 C17 1_555 1_555
C18 N10 1_555 1_555
H26 C18 1_555 1_555
C19 N11 1_555 1_555
H27 C19 1_555 1_555
C20 C19 1_555 1_555
H28 C20 1_555 1_555
C21 C20 1_555 1_555
H29 C21 1_555 1_555
C22 C21 1_555 1_555
H30 C22 1_555 1_555
C23 N11 1_555 1_555
C24 N12 1_555 1_555
C25 C24 1_555 1_555
H31 C25 1_555 1_555
C26 C25 1_555 1_555
H32 C26 1_555 1_555
C27 C26 1_555 1_555
H33 C27 1_555 1_555
C28 N12 1_555 1_555
H34 C28 1_555 1_555
Mn1A N2 1_555 1_555
Mn2A N4 1_555 1_555
N2A Mn1 1_555 1_555
N4A Mn2 1_555 1_555
N3 C3 1_555 1_555
C12 C13 1_555 1_555
C13 C14 1_555 1_555
C17 C18 1_555 1_555
C22 C23 1_555 1_555
C23 C24 1_555 1_555
C27 C28 1_555 1_555

#END
