
#######################################################################
#
#                 Cambridge Crystallographic Data Centre
#                                CCDC 
#
#######################################################################
#
# If this CIF has been generated from an entry in the Cambridge 
# Structural Database, then it will include bibliographic, chemical, 
# crystal, experimental, refinement or atomic coordinate data resulting 
# from the CCDC's data processing and validation procedures.
#
#######################################################################

data_EREZOR
_symmetry_cell_setting           monoclinic
_symmetry_space_group_name_H-M   'P 21/m'
_symmetry_Int_Tables_number      11
_space_group_name_Hall           '-P 2yb'
loop_
_symmetry_equiv_pos_site_id
_symmetry_equiv_pos_as_xyz
1 x,y,z
2 -x,1/2+y,-z
3 -x,-y,-z
4 x,1/2-y,z
_cell_length_a                   3.7687(13)
_cell_length_b                   13.698(5)
_cell_length_c                   11.852(4)
_cell_angle_alpha                90
_cell_angle_beta                 92.851(6)
_cell_angle_gamma                90
_cell_volume                     611.086
loop_
_atom_site_label
_atom_site_type_symbol
_atom_site_fract_x
_atom_site_fract_y
_atom_site_fract_z
Cu1 Cu 0.39787(13) 0.2500 0.32504(4)
Cl1 Cl 0.0169(3) 0.2500 0.46244(8)
O1 O 1.0547(10) 0.2500 -0.1071(3)
N1 N 0.4310(6) 0.39688(17) 0.29470(19)
N2 N 0.6066(9) 0.2500 0.1827(3)
N3 N 0.8356(7) 0.33967(17) 0.03443(19)
C1 C 0.3326(8) 0.4686(2) 0.3618(3)
H1 H 0.2282 0.4523 0.4316
C2 C 0.3786(8) 0.5661(2) 0.3345(2)
H2 H 0.3090 0.6168 0.3849
C3 C 0.5252(9) 0.5888(2) 0.2342(3)
H3 H 0.5538 0.6559 0.2130
C4 C 0.6294(8) 0.5153(2) 0.1635(2)
H4 H 0.7350 0.5298 0.0934
C5 C 0.5795(7) 0.4205(2) 0.1963(2)
C6 C 0.6831(8) 0.3335(2) 0.1299(2)
C7 C 0.9152(11) 0.2500 -0.0159(3)
Cu1_2 Cu -0.60213(13) 0.2500 0.32504(4)
Cl1_2 Cl 1.0169(3) 0.2500 0.46244(8)
N1C N 0.4310(6) 0.10312(17) 0.29470(19)
N3C N 0.8356(7) 0.16033(17) 0.03443(19)
C1C C 0.3326(8) 0.0314(2) 0.3618(3)
H1C H 0.2282 0.0477 0.4316
C2C C 0.3786(8) -0.0661(2) 0.3345(2)
H2C H 0.3090 -0.1168 0.3849
C3C C 0.5252(9) -0.0888(2) 0.2342(3)
H3C H 0.5538 -0.1559 0.2130
C4C C 0.6294(8) -0.0153(2) 0.1635(2)
H4C H 0.7350 -0.0298 0.0934
C5C C 0.5795(7) 0.0795(2) 0.1963(2)
C6C C 0.6831(8) 0.1665(2) 0.1299(2)
loop_
_geom_bond_atom_site_label_1
_geom_bond_atom_site_label_2
_geom_bond_site_symmetry_1
_geom_bond_site_symmetry_2
Cu1 Cl1 1_555 1_555
Cl1 Cu1_2 1_555 1_555
O1 C7 1_555 1_555
N1 Cu1 1_555 1_555
N2 Cu1 1_555 1_555
N3 C6 1_555 1_555
C1 N1 1_555 1_555
H1 C1 1_555 1_555
C2 C1 1_555 1_555
H2 C2 1_555 1_555
C3 C2 1_555 1_555
H3 C3 1_555 1_555
C4 C3 1_555 1_555
H4 C4 1_555 1_555
C5 N1 1_555 1_555
C6 N2 1_555 1_555
C7 N3 1_555 1_555
Cl1_2 Cu1 1_555 1_555
N1C Cu1 1_555 1_555
N3C C7 1_555 1_555
C1C N1C 1_555 1_555
H1C C1C 1_555 1_555
C2C C1C 1_555 1_555
H2C C2C 1_555 1_555
C3C C2C 1_555 1_555
H3C C3C 1_555 1_555
C4C C3C 1_555 1_555
H4C C4C 1_555 1_555
C5C N1C 1_555 1_555
C6C N2 1_555 1_555
C4 C5 1_555 1_555
C5 C6 1_555 1_555
N3C C6C 1_555 1_555
C4C C5C 1_555 1_555
C5C C6C 1_555 1_555

#END
