
#######################################################################
#
#                 Cambridge Crystallographic Data Centre
#                                CCDC 
#
#######################################################################
#
# If this CIF has been generated from an entry in the Cambridge 
# Structural Database, then it will include bibliographic, chemical, 
# crystal, experimental, refinement or atomic coordinate data resulting 
# from the CCDC's data processing and validation procedures.
#
#######################################################################

data_EREZAD
_symmetry_cell_setting           monoclinic
_symmetry_space_group_name_H-M   'P 21/c'
_symmetry_Int_Tables_number      14
_space_group_name_Hall           '-P 2ybc'
loop_
_symmetry_equiv_pos_site_id
_symmetry_equiv_pos_as_xyz
1 x,y,z
2 -x,1/2+y,1/2-z
3 -x,-y,-z
4 x,1/2-y,1/2+z
_cell_length_a                   5.6607(3)
_cell_length_b                   27.1493(18)
_cell_length_c                   10.2455(7)
_cell_angle_alpha                90
_cell_angle_beta                 100.538(3)
_cell_angle_gamma                90
_cell_volume                     1548.01
loop_
_atom_site_label
_atom_site_type_symbol
_atom_site_fract_x
_atom_site_fract_y
_atom_site_fract_z
Ag1 Ag 1.07402(5) 0.048300(10) 0.59037(3)
Ag2 Ag 0.51817(5) -0.004780(10) 0.65370(3)
O1 O 0.6443(4) 0.06445(8) 0.5558(3)
O2 O 0.3299(4) 0.10785(8) 0.5914(3)
O3 O 0.9407(4) -0.02228(8) 0.6706(3)
O4 O 1.3029(4) -0.03844(9) 0.7865(3)
C1 C 0.5350(6) 0.10473(12) 0.5654(3)
C2 C 0.6596(5) 0.15172(11) 0.5403(3)
C3 C 0.8070(6) 0.15067(13) 0.4455(4)
C4 C 0.9228(7) 0.19266(16) 0.4135(4)
C5 C 0.8928(8) 0.23558(16) 0.4780(6)
C6 C 0.7493(7) 0.23710(14) 0.5728(5)
C7 C 0.6290(6) 0.19559(13) 0.6056(4)
C8 C 0.4769(7) 0.19959(15) 0.7121(5)
C9 C 1.0825(6) -0.04380(12) 0.7643(4)
C10 C 0.9718(6) -0.07847(12) 0.8498(4)
C11 C 0.7793(6) -0.10729(12) 0.7884(4)
C12 C 0.6741(7) -0.14127(14) 0.8585(5)
C13 C 0.7550(8) -0.14592(16) 0.9913(6)
C14 C 0.9405(9) -0.11792(16) 1.0530(5)
C15 C 1.0591(7) -0.08369(13) 0.9848(4)
C16 C 1.2646(8) -0.05403(15) 1.0582(5)
H1 H 0.82809 0.12119 0.40290
H2 H 1.01920 0.19166 0.34913
H3 H 0.97014 0.26403 0.45779
H4 H 0.73227 0.26667 0.61591
H5 H 0.51961 0.17373 0.77593
H6 H 0.31020 0.19663 0.67235
H7 H 0.50419 0.23095 0.75550
H8 H 0.72115 -0.10338 0.69809
H9 H 0.54878 -0.16090 0.81582
H10 H 0.68275 -0.16843 1.04006
H11 H 0.99129 -0.12151 1.14409
H12 H 1.23586 -0.01969 1.03935
H13 H 1.41064 -0.06385 1.03049
H14 H 1.27876 -0.05956 1.15189
Ag1_2 Ag 0.07402(5) 0.048300(10) 0.59037(3)
Ag2_2 Ag 1.51817(5) -0.004780(10) 0.65370(3)
O2_2 O 1.3299(4) 0.10785(8) 0.5914(3)
O4_2 O 0.3029(4) -0.03844(9) 0.7865(3)
loop_
_geom_bond_atom_site_label_1
_geom_bond_atom_site_label_2
_geom_bond_site_symmetry_1
_geom_bond_site_symmetry_2
Ag1 O1 1_555 1_555
Ag2 O1 1_555 1_555
O1 C1 1_555 1_555
O2 C1 1_555 1_555
O3 Ag1 1_555 1_555
O4 C9 1_555 1_555
C1 C2 1_555 1_555
C2 C3 1_555 1_555
C3 C4 1_555 1_555
C4 C5 1_555 1_555
C5 C6 1_555 1_555
C6 C7 1_555 1_555
C7 C2 1_555 1_555
C8 C7 1_555 1_555
C9 O3 1_555 1_555
C10 C9 1_555 1_555
C11 C10 1_555 1_555
C12 C11 1_555 1_555
C13 C12 1_555 1_555
C14 C13 1_555 1_555
C15 C10 1_555 1_555
C16 C15 1_555 1_555
H1 C3 1_555 1_555
H2 C4 1_555 1_555
H3 C5 1_555 1_555
H4 C6 1_555 1_555
H5 C8 1_555 1_555
H6 C8 1_555 1_555
H7 C8 1_555 1_555
H8 C11 1_555 1_555
H9 C12 1_555 1_555
H10 C13 1_555 1_555
H11 C14 1_555 1_555
H12 C16 1_555 1_555
H13 C16 1_555 1_555
H14 C16 1_555 1_555
Ag1_2 Ag2 1_555 1_555
Ag2_2 Ag1 1_555 1_555
O2_2 Ag1 1_555 1_555
O4_2 Ag2 1_555 1_555
Ag2 O3 1_555 1_555
O2 Ag1_2 1_555 1_555
O4 Ag2_2 1_555 1_555
C14 C15 1_555 1_555

#END
