
#######################################################################
#
#                 Cambridge Crystallographic Data Centre
#                                CCDC 
#
#######################################################################
#
# If this CIF has been generated from an entry in the Cambridge 
# Structural Database, then it will include bibliographic, chemical, 
# crystal, experimental, refinement or atomic coordinate data resulting 
# from the CCDC's data processing and validation procedures.
#
#######################################################################

data_EREZEH
_symmetry_cell_setting           monoclinic
_symmetry_space_group_name_H-M   'P 21/c'
_symmetry_Int_Tables_number      14
_space_group_name_Hall           '-P 2ybc'
loop_
_symmetry_equiv_pos_site_id
_symmetry_equiv_pos_as_xyz
1 x,y,z
2 -x,1/2+y,1/2-z
3 -x,-y,-z
4 x,1/2-y,1/2+z
_cell_length_a                   8.90030(10)
_cell_length_b                   7.78160(10)
_cell_length_c                   17.5150(3)
_cell_angle_alpha                90
_cell_angle_beta                 91.8570(10)
_cell_angle_gamma                90
_cell_volume                     1212.43
loop_
_atom_site_label
_atom_site_type_symbol
_atom_site_fract_x
_atom_site_fract_y
_atom_site_fract_z
Gd1 Gd 0.21753(2) 0.47536(2) 0.699264(9)
K1 K 0.77038(11) 0.47212(11) 0.71058(5)
O1 O 0.4699(3) 0.5723(3) 0.66830(15)
H1 H 0.5081 0.6065 0.7107
H2 H 0.4533 0.6604 0.6406
C1 C 0.3791(4) 0.5106(4) 0.8437(2)
O2 O 0.3319(3) 0.6478(3) 0.81457(14)
C2 C 0.4485(4) 0.5076(4) 0.92329(19)
O3 O 0.3601(3) 0.3676(3) 0.81063(14)
C3 C 0.3828(4) 0.3974(4) 0.97488(18)
H3 H 0.3041 0.3270 0.9581
O4 O 0.6594(3) 0.6935(3) 0.82750(13)
C4 C 0.5683(4) 0.6106(4) 0.94877(18)
O5 O 0.7106(3) 0.8636(3) 0.92519(13)
C5 C 0.6512(4) 0.7290(4) 0.89702(19)
O6 O 0.0404(3) 0.5020(3) 0.79414(14)
C6 C -0.0794(4) 0.2479(4) 0.88327(19)
O7 O -0.0284(3) 0.7656(3) 0.82595(14)
C7 C -0.0324(4) 0.3804(4) 0.94180(18)
O8 O -0.1973(3) 0.2726(3) 0.84282(14)
C8 C 0.0245(4) 0.6713(4) 0.98207(18)
H4 H 0.0403 0.7862 0.9700
O9 O -0.0079(3) 0.1102(3) 0.88018(15)
C9 C -0.0067(4) 0.5533(4) 0.92371(19)
C10 C 0.0015(4) 0.6124(4) 0.84223(18)
H5 H 0.6669 0.5155 0.5149
H6 H 0.5663 0.4339 0.5616
O10 O 0.6608(4) 0.4561(4) 0.55655(18)
Gd1B Gd 0.78247(2) 0.52464(2) 1.300736(9)
Gd1A Gd 0.78247(2) 0.97536(2) 0.800736(9)
Gd1A_2 Gd -0.21753(2) 0.97536(2) 0.800736(9)
Gd1A_3 Gd -0.21753(2) -0.02464(2) 0.800736(9)
Gd1C Gd 0.21753(2) 0.02464(2) 1.199264(9)
Gd1C_2 Gd 0.21753(2) 1.02464(2) 1.199264(9)
Gd1B_2 Gd -0.21753(2) 0.52464(2) 1.300736(9)
K1A K 0.22962(11) 0.97212(11) 0.78942(5)
K1_2 K -0.22962(11) 0.47212(11) 0.71058(5)
K1A_2 K 0.22962(11) -0.02788(11) 0.78942(5)
K1C K 0.77038(11) 0.02788(11) 1.21058(5)
K1B K 0.22962(11) 0.52788(11) 1.28942(5)
K1C_2 K -0.22962(11) 1.02788(11) 1.21058(5)
K1C_3 K -0.22962(11) 0.02788(11) 1.21058(5)
O1B O 0.5301(3) 0.4277(3) 1.33170(15)
O1A O 0.5301(3) 1.0723(3) 0.83170(15)
H1B H 0.4919 0.3935 1.2893
H1A H 0.4919 1.1065 0.7893
H2B H 0.5467 0.3396 1.3594
H2A H 0.5467 1.1604 0.8594
C1B C 0.6209(4) 0.4894(4) 1.1563(2)
O2B O 0.6681(3) 0.3522(3) 1.18543(14)
O2A O 0.6681(3) 0.1478(3) 0.68543(14)
C2B C 0.5515(4) 0.4924(4) 1.07671(19)
O3B O 0.6399(3) 0.6324(3) 1.18937(14)
C3B C 0.6172(4) 0.6026(4) 1.02512(18)
H3B H 0.6959 0.6730 1.0419
O4B O 0.3406(3) 0.3065(3) 1.17250(13)
O4A O 0.3406(3) 0.1935(3) 0.67250(13)
O4C O 0.6594(3) 0.8065(3) 1.32750(13)
O4A_2 O 0.3406(3) 1.1935(3) 0.67250(13)
C4B C 0.4317(4) 0.3894(4) 1.05123(18)
O5B O 0.2894(3) 0.1364(3) 1.07481(13)
O5A O 0.2894(3) 0.3636(3) 0.57481(13)
O5C O 0.7106(3) 0.6364(3) 1.42519(13)
C5B C 0.3488(4) 0.2710(4) 1.10298(19)
O6B O -0.0404(3) 0.4980(3) 1.20586(14)
O6_2 O 1.0404(3) 0.5020(3) 0.79414(14)
O6B_2 O 0.9596(3) 0.4980(3) 1.20586(14)
O6A O -0.0404(3) 1.0020(3) 0.70586(14)
C6B C 0.0794(4) 0.7521(4) 1.11673(19)
O7B O 0.0284(3) 0.2344(3) 1.17405(14)
O7A O 0.0284(3) 0.2656(3) 0.67405(14)
O7A_2 O 1.0284(3) 0.2656(3) 0.67405(14)
O7C O 0.9716(3) 0.7344(3) 1.32595(14)
C7B C 0.0324(4) 0.6196(4) 1.05820(18)
O8B O 0.1973(3) 0.7274(3) 1.15718(14)
O8A O 0.1973(3) 0.7726(3) 0.65718(14)
O8_2 O 0.8027(3) 0.2726(3) 0.84282(14)
O8C O 0.8027(3) 0.2274(3) 1.34282(14)
C8B C -0.0245(4) 0.3287(4) 1.01793(18)
H4B H -0.0403 0.2138 1.0300
O9B O 0.0079(3) 0.8898(3) 1.11982(15)
O9A O 0.0079(3) 0.6102(3) 0.61982(15)
O9A_2 O 1.0079(3) 0.6102(3) 0.61982(15)
O9C O 0.9921(3) 0.3898(3) 1.38018(15)
O9_2 O -0.0079(3) 1.1102(3) 0.88018(15)
C9B C 0.0067(4) 0.4467(4) 1.07629(19)
C10B C -0.0015(4) 0.3876(4) 1.15777(18)
H5A H 0.3331 1.0155 0.9851
H6A H 0.4337 0.9339 0.9384
O10A O 0.3392(4) 0.9561(4) 0.94345(18)
loop_
_geom_bond_atom_site_label_1
_geom_bond_atom_site_label_2
_geom_bond_site_symmetry_1
_geom_bond_site_symmetry_2
Gd1 O1 1_555 1_555
K1 O1 1_555 1_555
O1 H1 1_555 1_555
H2 O1 1_555 1_555
C1 O2 1_555 1_555
O2 Gd1 1_555 1_555
C2 C1 1_555 1_555
O3 Gd1 1_555 1_555
C3 C2 1_555 1_555
H3 C3 1_555 1_555
O4 K1 1_555 1_555
C4 C2 1_555 1_555
O5 C5 1_555 1_555
C5 O4 1_555 1_555
O6 Gd1 1_555 1_555
C6 C7 1_555 1_555
O7 C10 1_555 1_555
C7 C9 1_555 1_555
O8 C6 1_555 1_555
C8 H4 1_555 1_555
O9 C6 1_555 1_555
C9 C8 1_555 1_555
C10 O6 1_555 1_555
H5 O10 1_555 1_555
H6 O10 1_555 1_555
O10 K1 1_555 1_555
Gd1B O1B 1_555 1_555
Gd1A O4 1_555 1_555
Gd1A_2 O7 1_555 1_555
Gd1A_3 O8 1_555 1_555
Gd1C O4B 1_555 1_555
Gd1C_2 O8B 1_555 1_555
Gd1B_2 O6B 1_555 1_555
K1A O2 1_555 1_555
K1_2 O6 1_555 1_555
K1A_2 O9 1_555 1_555
K1C O2B 1_555 1_555
K1B O1B 1_555 1_555
K1C_2 O9B 1_555 1_555
K1C_3 O7B 1_555 1_555
O1B H1B 1_555 1_555
O1A Gd1A 1_555 1_555
H1A O1A 1_555 1_555
H2B O1B 1_555 1_555
H2A O1A 1_555 1_555
C1B O2B 1_555 1_555
O2B Gd1B 1_555 1_555
O2A K1 1_555 1_555
C2B C1B 1_555 1_555
O3B Gd1B 1_555 1_555
C3B C4 1_555 1_555
H3B C3B 1_555 1_555
O4B K1B 1_555 1_555
O4A Gd1 1_555 1_555
O4C Gd1B 1_555 1_555
O4A_2 K1A 1_555 1_555
C4B C3 1_555 1_555
O5B Gd1C 1_555 1_555
O5A Gd1 1_555 1_555
O5C Gd1B 1_555 1_555
C5B O4B 1_555 1_555
O6B K1B 1_555 1_555
O6_2 K1 1_555 1_555
O6B_2 Gd1B 1_555 1_555
O6A Gd1A_2 1_555 1_555
C6B C7B 1_555 1_555
O7B Gd1C 1_555 1_555
O7A Gd1 1_555 1_555
O7A_2 K1 1_555 1_555
O7C Gd1B 1_555 1_555
C7B C8 1_555 1_555
O8B K1B 1_555 1_555
O8A Gd1 1_555 1_555
O8_2 K1 1_555 1_555
O8C Gd1B 1_555 1_555
C8B C7 1_555 1_555
H4B C8B 1_555 1_555
O9B Gd1C_2 1_555 1_555
O9A Gd1 1_555 1_555
O9A_2 K1 1_555 1_555
O9C Gd1B 1_555 1_555
O9_2 Gd1A_2 1_555 1_555
C9B C7B 1_555 1_555
C10B O6B 1_555 1_555
H5A O10A 1_555 1_555
H6A O10A 1_555 1_555
O10A K1A 1_555 1_555
C1 O3 1_555 1_555
C4 C5 1_555 1_555
O5 Gd1A 1_555 1_555
O7 K1A 1_555 1_555
O8 K1_2 1_555 1_555
O9 Gd1A_3 1_555 1_555
C9 C10 1_555 1_555
K1A O1A 1_555 1_555
K1A O6A 1_555 1_555
K1A O8A 1_555 1_555
K1A O9_2 1_555 1_555
K1_2 O7A 1_555 1_555
K1_2 O9A 1_555 1_555
K1A_2 O4A 1_555 1_555
K1C O8C 1_555 1_555
C1B O3B 1_555 1_555
C2B C3B 1_555 1_555
C2B C4B 1_555 1_555
C4B C5B 1_555 1_555
O5B C5B 1_555 1_555
C6B O8B 1_555 1_555
C6B O9B 1_555 1_555
O7B C10B 1_555 1_555
C8B C9B 1_555 1_555
C9B C10B 1_555 1_555

#END
