
#######################################################################
#
#                 Cambridge Crystallographic Data Centre
#                                CCDC 
#
#######################################################################
#
# If this CIF has been generated from an entry in the Cambridge 
# Structural Database, then it will include bibliographic, chemical, 
# crystal, experimental, refinement or atomic coordinate data resulting 
# from the CCDC's data processing and validation procedures.
#
#######################################################################

data_ERIBEN
_symmetry_cell_setting           monoclinic
_symmetry_space_group_name_H-M   'P 21'
_symmetry_Int_Tables_number      4
_space_group_name_Hall           'P 2yb'
loop_
_symmetry_equiv_pos_site_id
_symmetry_equiv_pos_as_xyz
1 x,y,z
2 -x,1/2+y,-z
_cell_length_a                   19.5847(3)
_cell_length_b                   10.2404(2)
_cell_length_c                   26.6224(4)
_cell_angle_alpha                90
_cell_angle_beta                 110.2838(8)
_cell_angle_gamma                90
_cell_volume                     5008.16
loop_
_atom_site_label
_atom_site_type_symbol
_atom_site_fract_x
_atom_site_fract_y
_atom_site_fract_z
Sn1 Sn 0.494183(19) 0.50003(3) 0.024475(14)
O1 O 0.4760(2) 0.6546(3) 0.07388(13)
O2 O 0.4912(2) 0.8102(4) 0.02052(14)
C1 C 0.6043(3) 0.5568(5) 0.0369(3)
H1 H 0.6084 0.5800 0.0020
H2 H 0.6162 0.6356 0.0599
C2 C 0.6588(3) 0.4511(5) 0.0628(2)
C3 C 0.6710(4) 0.4125(8) 0.1158(3)
H3 H 0.6469 0.4562 0.1364
C4 C 0.7182(4) 0.3103(9) 0.1379(3)
H4 H 0.7246 0.2824 0.1733
C5 C 0.7559(4) 0.2487(6) 0.1100(3)
H5 H 0.7887 0.1798 0.1259
C6 C 0.7456(4) 0.2872(6) 0.0598(3)
H6 H 0.7726 0.2465 0.0405
C7 C 0.6965(3) 0.3852(5) 0.0354(2)
H7 H 0.6887 0.4074 -0.0008
C8 C 0.4075(3) 0.5580(5) -0.0464(2)
H8 H 0.3876 0.6422 -0.0394
H9 H 0.4276 0.5727 -0.0753
C9 C 0.3466(3) 0.4614(5) -0.0655(2)
C10 C 0.3005(3) 0.4389(5) -0.0364(3)
H10 H 0.3088 0.4844 -0.0037
C11 C 0.2438(3) 0.3526(6) -0.0539(3)
H11 H 0.2134 0.3382 -0.0333
C12 C 0.2307(4) 0.2866(6) -0.1016(3)
H12 H 0.1910 0.2277 -0.1140
C13 C 0.2759(4) 0.3064(7) -0.1316(3)
H13 H 0.2676 0.2608 -0.1643
C14 C 0.3328(4) 0.3931(6) -0.1128(3)
H14 H 0.3637 0.4065 -0.1331
C15 C 0.4723(3) 0.3541(5) 0.0752(2)
H15 H 0.4236 0.3174 0.0556
H16 H 0.5079 0.2826 0.0794
C16 C 0.4741(3) 0.3910(5) 0.1306(2)
C17 C 0.4169(3) 0.4589(5) 0.1382(2)
H17 H 0.3763 0.4841 0.1080
C18 C 0.4183(3) 0.4900(5) 0.1887(2)
H18 H 0.3779 0.5340 0.1929
C19 C 0.4764(4) 0.4590(6) 0.2329(2)
H19 H 0.4775 0.4838 0.2676
C20 C 0.5333(4) 0.3916(6) 0.2266(2)
H20 H 0.5738 0.3676 0.2571
C21 C 0.5321(3) 0.3580(6) 0.1756(2)
H21 H 0.5721 0.3116 0.1718
C22 C 0.4771(3) 0.7744(5) 0.0616(2)
C23 C 0.4620(3) 0.8704(5) 0.0971(2)
H22 H 0.4609 0.9605 0.0882
C24 C 0.4498(3) 0.8353(5) 0.1416(2)
H23 H 0.4505 0.7443 0.1487
C25 C 0.4353(3) 0.9221(5) 0.1807(2)
C26 C 0.4330(3) 0.8699(6) 0.2287(2)
H24 H 0.4414 0.7792 0.2356
C27 C 0.4188(3) 0.9474(5) 0.2661(2)
H25 H 0.4174 0.9103 0.2985
C28 C 0.4065(3) 1.0788(5) 0.2565(2)
H26 H 0.3959 1.1323 0.2820
C29 C 0.4094(3) 1.1328(5) 0.2102(2)
H27 H 0.4016 1.2239 0.2039
C30 C 0.4236(3) 1.0553(5) 0.1727(2)
H28 H 0.4255 1.0938 0.1407
Sn1A Sn 0.505817(19) 1.00003(3) -0.024475(14)
O2A O 0.5088(2) 0.3102(4) -0.02052(14)
Sn2 Sn 0.473268(18) 0.73095(3) 0.477818(12)
O3 O 0.41043(19) 0.8820(3) 0.42395(13)
O4 O 0.47228(19) 1.0424(3) 0.47598(13)
C31 C 0.4127(3) 0.5818(5) 0.4236(2)
H29 H 0.4468 0.5336 0.4104
H30 H 0.3942 0.5193 0.4442
C32 C 0.3498(3) 0.6254(4) 0.3762(2)
C33 C 0.3584(3) 0.6618(6) 0.32802(19)
H31 H 0.4051 0.6545 0.3249
C34 C 0.3016(4) 0.7078(6) 0.2854(2)
H32 H 0.3096 0.7337 0.2536
C35 C 0.2325(3) 0.7166(5) 0.2882(2)
H33 H 0.1930 0.7481 0.2586
C36 C 0.2216(3) 0.6789(6) 0.3348(2)
H34 H 0.1744 0.6831 0.3373
C37 C 0.2801(3) 0.6352(5) 0.3778(2)
H35 H 0.2721 0.6109 0.4098
C38 C 0.4420(3) 0.7885(5) 0.5446(2)
H36 H 0.4860 0.8185 0.5740
H37 H 0.4082 0.8635 0.5336
C39 C 0.4064(3) 0.6834(5) 0.56550(19)
C40 C 0.3371(3) 0.6403(5) 0.5355(2)
H38 H 0.3121 0.6802 0.5019
C41 C 0.3034(3) 0.5407(5) 0.5532(2)
H39 H 0.2563 0.5116 0.5314
C42 C 0.3376(3) 0.4838(5) 0.6021(2)
H40 H 0.3145 0.4157 0.6144
C43 C 0.4055(3) 0.5260(5) 0.6331(2)
H41 H 0.4294 0.4875 0.6671
C44 C 0.4395(3) 0.6249(5) 0.6149(2)
H42 H 0.4866 0.6531 0.6369
C45 C 0.5767(3) 0.7892(5) 0.4745(2)
H43 H 0.5720 0.8779 0.4588
H44 H 0.6123 0.7939 0.5114
C46 C 0.6058(3) 0.6986(4) 0.4421(2)
C47 C 0.5753(3) 0.6973(5) 0.3862(2)
H45 H 0.5345 0.7513 0.3688
C48 C 0.6036(4) 0.6189(6) 0.3561(2)
H46 H 0.5815 0.6187 0.3182
C49 C 0.6631(4) 0.5412(6) 0.3802(2)
H47 H 0.6832 0.4894 0.3591
C50 C 0.6932(3) 0.5396(5) 0.4352(2)
H48 H 0.7336 0.4844 0.4523
C51 C 0.6652(3) 0.6174(5) 0.4658(2)
H49 H 0.6869 0.6154 0.5037
C52 C 0.4226(3) 1.0026(5) 0.43487(18)
C53 C 0.3748(3) 1.0960(5) 0.3960(2)
H50 H 0.3868 1.1863 0.4000
C54 C 0.3165(3) 1.0594(5) 0.35629(19)
H51 H 0.3071 0.9681 0.3537
C55 C 0.2638(3) 1.1401(5) 0.3153(2)
C56 C 0.2761(3) 1.2723(5) 0.3087(2)
H52 H 0.3199 1.3127 0.3307
C57 C 0.2234(4) 1.3452(6) 0.2693(2)
H53 H 0.2316 1.4351 0.2647
C58 C 0.1606(4) 1.2879(7) 0.2376(2)
H54 H 0.1255 1.3381 0.2109
C59 C 0.1474(3) 1.1582(7) 0.2438(2)
H55 H 0.1030 1.1191 0.2221
C60 C 0.1993(3) 1.0849(6) 0.2821(2)
H56 H 0.1905 0.9947 0.2857
Sn2A Sn 0.526732(18) 1.23095(3) 0.522182(12)
O4A O 0.52772(19) 0.5424(3) 0.52402(13)
Sn3 Sn 0.028304(19) 0.67354(3) 0.517422(13)
O5 O 0.09833(19) 0.5343(3) 0.57185(13)
O6 O 0.0365(2) 0.3609(4) 0.52990(14)
C61 C 0.0888(3) 0.8352(5) 0.5635(2)
H57 H 0.1113 0.8824 0.5407
H58 H 0.0534 0.8956 0.5701
C62 C 0.1474(3) 0.8092(5) 0.6162(2)
C63 C 0.2155(3) 0.7625(5) 0.6187(2)
H59 H 0.2243 0.7460 0.5864
C64 C 0.2702(3) 0.7397(5) 0.6669(2)
H60 H 0.3163 0.7088 0.6676
C65 C 0.2581(3) 0.7618(5) 0.7140(2)
H61 H 0.2951 0.7443 0.7474
C66 C 0.1910(3) 0.8099(6) 0.7120(2)
H62 H 0.1827 0.8280 0.7444
C67 C 0.1363(3) 0.8318(5) 0.6637(2)
H63 H 0.0904 0.8629 0.6632
C68 C -0.0718(3) 0.6155(5) 0.5268(2)
H64 H -0.1100 0.6092 0.4909
H65 H -0.0654 0.5275 0.5432
C69 C -0.0970(3) 0.7083(4) 0.5609(2)
C70 C -0.0571(3) 0.7209(6) 0.6152(2)
H66 H -0.0123 0.6754 0.6300
C71 C -0.0816(3) 0.7986(6) 0.6478(2)
H67 H -0.0540 0.8048 0.6849
C72 C -0.1456(3) 0.8671(6) 0.6268(2)
H68 H -0.1620 0.9210 0.6493
C73 C -0.1860(3) 0.8574(6) 0.5729(2)
H69 H -0.2303 0.9045 0.5583
C74 C -0.1613(3) 0.7780(5) 0.5399(2)
H70 H -0.1889 0.7719 0.5028
C75 C 0.0512(3) 0.6192(5) 0.44671(19)
H71 H 0.0834 0.5418 0.4549
H72 H 0.0051 0.5944 0.4182
C76 C 0.0868(3) 0.7266(5) 0.42624(19)
C77 C 0.0490(3) 0.7940(5) 0.3790(2)
H73 H 0.0005 0.7695 0.3588
C78 C 0.0817(3) 0.8971(5) 0.3613(2)
H74 H 0.0557 0.9412 0.3289
C79 C 0.1511(3) 0.9339(5) 0.3908(2)
H75 H 0.1724 1.0063 0.3794
C80 C 0.1908(3) 0.8678(5) 0.4368(2)
H76 H 0.2397 0.8921 0.4564
C81 C 0.1583(3) 0.7657(5) 0.4541(2)
H77 H 0.1855 0.7206 0.4859
C82 C 0.0870(3) 0.4108(5) 0.5670(2)
C83 C 0.1389(3) 0.3275(5) 0.6085(2)
H78 H 0.1327 0.2354 0.6062
C84 C 0.1945(3) 0.3780(5) 0.6491(2)
H79 H 0.1982 0.4705 0.6497
C85 C 0.2497(3) 0.3101(5) 0.6923(2)
C86 C 0.3104(3) 0.3805(5) 0.7234(2)
H80 H 0.3130 0.4712 0.7168
C87 C 0.3672(3) 0.3224(5) 0.7637(2)
H81 H 0.4087 0.3719 0.7837
C88 C 0.3628(3) 0.1911(6) 0.7745(2)
H82 H 0.4014 0.1504 0.8021
C89 C 0.3017(3) 0.1181(6) 0.7448(2)
H83 H 0.2984 0.0286 0.7530
C90 C 0.2466(3) 0.1755(6) 0.70375(19)
H84 H 0.2061 0.1247 0.6829
Sn3A Sn -0.028304(19) 0.17354(3) 0.482578(13)
O6A O -0.0365(2) 0.8609(4) 0.47010(14)
Sn4 Sn 0.005351(19) 0.96457(3) 0.977122(13)
O7 O 0.01843(19) 0.8125(3) 0.92420(13)
O8 O 0.00660(19) 0.6558(4) 0.97772(12)
C91 C -0.1039(3) 0.9099(5) 0.9703(2)
H85 H -0.1149 0.8220 0.9540
H86 H -0.1074 0.9056 1.0065
C92 C -0.1584(3) 1.0044(5) 0.9372(2)
C93 C -0.1720(3) 1.0147(6) 0.8833(2)
H87 H -0.1473 0.9579 0.8671
C94 C -0.2202(4) 1.1044(7) 0.8519(2)
H88 H -0.2286 1.1085 0.8146
C95 C -0.2562(3) 1.1883(6) 0.8745(2)
H89 H -0.2886 1.2519 0.8530
C96 C -0.2451(3) 1.1797(6) 0.9285(2)
H90 H -0.2706 1.2359 0.9443
C97 C -0.1961(3) 1.0882(5) 0.9599(2)
H91 H -0.1882 1.0826 0.9971
C98 C 0.0961(3) 0.9066(5) 1.0462(2)
H92 H 0.0783 0.8867 1.0759
H93 H 0.1174 0.8255 1.0376
C99 C 0.1547(3) 1.0089(5) 1.0646(2)
C100 C 0.1679(3) 1.0771(6) 1.1124(2)
H94 H 0.1397 1.0594 1.1344
C101 C 0.2226(3) 1.1710(6) 1.1278(2)
H95 H 0.2324 1.2151 1.1610
C102 C 0.2626(3) 1.2015(6) 1.0962(3)
H96 H 0.2981 1.2688 1.1064
C103 C 0.2507(3) 1.1338(6) 1.0499(2)
H97 H 0.2796 1.1519 1.0285
C104 C 0.1969(3) 1.0384(6) 1.0336(2)
H98 H 0.1889 0.9931 1.0009
C105 C 0.0206(3) 1.1114(5) 0.92432(19)
H99 H -0.0204 1.1736 0.9164
H100 H 0.0655 1.1603 0.9442
C106 C 0.0264(3) 1.0695(5) 0.8717(2)
C107 C 0.0906(3) 1.0169(5) 0.8689(2)
H101 H 0.1314 1.0073 0.9009
C108 C 0.0966(3) 0.9781(5) 0.8207(2)
H102 H 0.1411 0.9438 0.8196
C109 C 0.0365(4) 0.9903(6) 0.7740(2)
H103 H 0.0397 0.9631 0.7408
C110 C -0.0274(4) 1.0413(6) 0.7757(2)
H104 H -0.0684 1.0492 0.7437
C111 C -0.0321(3) 1.0813(5) 0.8239(2)
H105 H -0.0764 1.1178 0.8245
C112 C 0.0173(3) 0.6923(5) 0.9362(2)
C113 C 0.0302(3) 0.5973(5) 0.89888(19)
H106 H 0.0291 0.5068 0.9063
C114 C 0.0434(3) 0.6336(5) 0.85527(18)
H107 H 0.0420 0.7248 0.8484
C115 C 0.0600(3) 0.5495(5) 0.8165(2)
C116 C 0.0818(3) 0.6041(6) 0.7767(2)
H108 H 0.0833 0.6964 0.7737
C117 C 0.1014(3) 0.5260(6) 0.7412(2)
H109 H 0.1169 0.5651 0.7146
C118 C 0.0984(3) 0.3923(6) 0.7444(2)
H110 H 0.1114 0.3391 0.7200
C119 C 0.0764(4) 0.3354(5) 0.7832(2)
H111 H 0.0744 0.2430 0.7856
C120 C 0.0571(4) 0.4140(5) 0.8189(2)
H112 H 0.0416 0.3743 0.8454
Sn4A Sn -0.005351(19) 0.46457(3) 1.022878(13)
O8A O -0.00660(19) 1.1558(4) 1.02228(12)
loop_
_geom_bond_atom_site_label_1
_geom_bond_atom_site_label_2
_geom_bond_site_symmetry_1
_geom_bond_site_symmetry_2
Sn1 O1 1_555 1_555
Sn2 O3 1_555 1_555
Sn3 O5 1_555 1_555
Sn4 O7 1_555 1_555
O1 C22 1_555 1_555
O2 C22 1_555 1_555
O3 C52 1_555 1_555
O4 C52 1_555 1_555
O5 C82 1_555 1_555
O6 C82 1_555 1_555
O7 C112 1_555 1_555
O8 C112 1_555 1_555
C1 Sn1 1_555 1_555
H1 C1 1_555 1_555
H2 C1 1_555 1_555
C2 C1 1_555 1_555
C3 C2 1_555 1_555
H3 C3 1_555 1_555
C4 C3 1_555 1_555
H4 C4 1_555 1_555
C5 C4 1_555 1_555
H5 C5 1_555 1_555
C6 C5 1_555 1_555
H6 C6 1_555 1_555
C7 C2 1_555 1_555
H7 C7 1_555 1_555
C8 Sn1 1_555 1_555
H8 C8 1_555 1_555
H9 C8 1_555 1_555
C9 C8 1_555 1_555
C10 C9 1_555 1_555
H10 C10 1_555 1_555
C11 C10 1_555 1_555
H11 C11 1_555 1_555
C12 C11 1_555 1_555
H12 C12 1_555 1_555
C13 C12 1_555 1_555
H13 C13 1_555 1_555
C14 C9 1_555 1_555
H14 C14 1_555 1_555
C15 Sn1 1_555 1_555
H15 C15 1_555 1_555
H16 C15 1_555 1_555
C16 C15 1_555 1_555
C17 C16 1_555 1_555
H17 C17 1_555 1_555
C18 C17 1_555 1_555
H18 C18 1_555 1_555
C19 C18 1_555 1_555
H19 C19 1_555 1_555
C20 C19 1_555 1_555
H20 C20 1_555 1_555
C21 C16 1_555 1_555
H21 C21 1_555 1_555
C22 C23 1_555 1_555
C23 H22 1_555 1_555
C24 C23 1_555 1_555
H23 C24 1_555 1_555
C25 C24 1_555 1_555
C26 C25 1_555 1_555
H24 C26 1_555 1_555
C27 C26 1_555 1_555
H25 C27 1_555 1_555
C28 C27 1_555 1_555
H26 C28 1_555 1_555
C29 C28 1_555 1_555
H27 C29 1_555 1_555
C30 C25 1_555 1_555
H28 C30 1_555 1_555
C31 Sn2 1_555 1_555
H29 C31 1_555 1_555
H30 C31 1_555 1_555
C32 C31 1_555 1_555
C33 C32 1_555 1_555
H31 C33 1_555 1_555
C34 C33 1_555 1_555
H32 C34 1_555 1_555
C35 C34 1_555 1_555
H33 C35 1_555 1_555
C36 C35 1_555 1_555
H34 C36 1_555 1_555
C37 C32 1_555 1_555
H35 C37 1_555 1_555
C38 Sn2 1_555 1_555
H36 C38 1_555 1_555
H37 C38 1_555 1_555
C39 C38 1_555 1_555
C40 C39 1_555 1_555
H38 C40 1_555 1_555
C41 C40 1_555 1_555
H39 C41 1_555 1_555
C42 C41 1_555 1_555
H40 C42 1_555 1_555
C43 C42 1_555 1_555
H41 C43 1_555 1_555
C44 C39 1_555 1_555
H42 C44 1_555 1_555
C45 Sn2 1_555 1_555
H43 C45 1_555 1_555
H44 C45 1_555 1_555
C46 C45 1_555 1_555
C47 C46 1_555 1_555
H45 C47 1_555 1_555
C48 C47 1_555 1_555
H46 C48 1_555 1_555
C49 C48 1_555 1_555
H47 C49 1_555 1_555
C50 C49 1_555 1_555
H48 C50 1_555 1_555
C51 C46 1_555 1_555
H49 C51 1_555 1_555
C52 C53 1_555 1_555
C53 H50 1_555 1_555
C54 C53 1_555 1_555
H51 C54 1_555 1_555
C55 C54 1_555 1_555
C56 C55 1_555 1_555
H52 C56 1_555 1_555
C57 C56 1_555 1_555
H53 C57 1_555 1_555
C58 C57 1_555 1_555
H54 C58 1_555 1_555
C59 C58 1_555 1_555
H55 C59 1_555 1_555
C60 C55 1_555 1_555
H56 C60 1_555 1_555
C61 Sn3 1_555 1_555
H57 C61 1_555 1_555
H58 C61 1_555 1_555
C62 C61 1_555 1_555
C63 C62 1_555 1_555
H59 C63 1_555 1_555
C64 C63 1_555 1_555
H60 C64 1_555 1_555
C65 C64 1_555 1_555
H61 C65 1_555 1_555
C66 C65 1_555 1_555
H62 C66 1_555 1_555
C67 C62 1_555 1_555
H63 C67 1_555 1_555
C68 Sn3 1_555 1_555
H64 C68 1_555 1_555
H65 C68 1_555 1_555
C69 C68 1_555 1_555
C70 C69 1_555 1_555
H66 C70 1_555 1_555
C71 C70 1_555 1_555
H67 C71 1_555 1_555
C72 C71 1_555 1_555
H68 C72 1_555 1_555
C73 C72 1_555 1_555
H69 C73 1_555 1_555
C74 C69 1_555 1_555
H70 C74 1_555 1_555
C75 Sn3 1_555 1_555
H71 C75 1_555 1_555
H72 C75 1_555 1_555
C76 C75 1_555 1_555
C77 C76 1_555 1_555
H73 C77 1_555 1_555
C78 C77 1_555 1_555
H74 C78 1_555 1_555
C79 C78 1_555 1_555
H75 C79 1_555 1_555
C80 C79 1_555 1_555
H76 C80 1_555 1_555
C81 C76 1_555 1_555
H77 C81 1_555 1_555
C82 C83 1_555 1_555
C83 H78 1_555 1_555
C84 C83 1_555 1_555
H79 C84 1_555 1_555
C85 C84 1_555 1_555
C86 C85 1_555 1_555
H80 C86 1_555 1_555
C87 C86 1_555 1_555
H81 C87 1_555 1_555
C88 C87 1_555 1_555
H82 C88 1_555 1_555
C89 C88 1_555 1_555
H83 C89 1_555 1_555
C90 C85 1_555 1_555
H84 C90 1_555 1_555
C91 Sn4 1_555 1_555
H85 C91 1_555 1_555
H86 C91 1_555 1_555
C92 C91 1_555 1_555
C93 C92 1_555 1_555
H87 C93 1_555 1_555
C94 C93 1_555 1_555
H88 C94 1_555 1_555
C95 C94 1_555 1_555
H89 C95 1_555 1_555
C96 C95 1_555 1_555
H90 C96 1_555 1_555
C97 C92 1_555 1_555
H91 C97 1_555 1_555
C98 Sn4 1_555 1_555
H92 C98 1_555 1_555
H93 C98 1_555 1_555
C99 C98 1_555 1_555
C100 C99 1_555 1_555
H94 C100 1_555 1_555
C101 C100 1_555 1_555
H95 C101 1_555 1_555
C102 C101 1_555 1_555
H96 C102 1_555 1_555
C103 C102 1_555 1_555
H97 C103 1_555 1_555
C104 C99 1_555 1_555
H98 C104 1_555 1_555
C105 Sn4 1_555 1_555
H99 C105 1_555 1_555
H100 C105 1_555 1_555
C106 C105 1_555 1_555
C107 C106 1_555 1_555
H101 C107 1_555 1_555
C108 C107 1_555 1_555
H102 C108 1_555 1_555
C109 C108 1_555 1_555
H103 C109 1_555 1_555
C110 C109 1_555 1_555
H104 C110 1_555 1_555
C111 C106 1_555 1_555
H105 C111 1_555 1_555
C112 C113 1_555 1_555
C113 H106 1_555 1_555
C114 C113 1_555 1_555
H107 C114 1_555 1_555
C115 C114 1_555 1_555
C116 C115 1_555 1_555
H108 C116 1_555 1_555
C117 C116 1_555 1_555
H109 C117 1_555 1_555
C118 C117 1_555 1_555
H110 C118 1_555 1_555
C119 C118 1_555 1_555
H111 C119 1_555 1_555
C120 C115 1_555 1_555
H112 C120 1_555 1_555
Sn1A O2 1_555 1_555
Sn2A O4 1_555 1_555
Sn3A O6 1_555 1_555
Sn4A O8 1_555 1_555
O2A Sn1 1_555 1_555
O4A Sn2 1_555 1_555
O6A Sn3 1_555 1_555
O8A Sn4 1_555 1_555
C6 C7 1_555 1_555
C13 C14 1_555 1_555
C20 C21 1_555 1_555
C29 C30 1_555 1_555
C36 C37 1_555 1_555
C43 C44 1_555 1_555
C50 C51 1_555 1_555
C59 C60 1_555 1_555
C66 C67 1_555 1_555
C73 C74 1_555 1_555
C80 C81 1_555 1_555
C89 C90 1_555 1_555
C96 C97 1_555 1_555
C103 C104 1_555 1_555
C110 C111 1_555 1_555
C119 C120 1_555 1_555

#END
