
#######################################################################
#
#                 Cambridge Crystallographic Data Centre
#                                CCDC 
#
#######################################################################
#
# If this CIF has been generated from an entry in the Cambridge 
# Structural Database, then it will include bibliographic, chemical, 
# crystal, experimental, refinement or atomic coordinate data resulting 
# from the CCDC's data processing and validation procedures.
#
#######################################################################

data_ERIGUH
_symmetry_cell_setting           triclinic
_symmetry_space_group_name_H-M   'P -1'
_symmetry_Int_Tables_number      2
_space_group_name_Hall           '-P 1'
loop_
_symmetry_equiv_pos_site_id
_symmetry_equiv_pos_as_xyz
1 x,y,z
2 -x,-y,-z
_cell_length_a                   10.3981(8)
_cell_length_b                   15.1727(11)
_cell_length_c                   15.9055(12)
_cell_angle_alpha                79.326(2)
_cell_angle_beta                 77.1400(10)
_cell_angle_gamma                78.0300(10)
_cell_volume                     2367.65
loop_
_atom_site_label
_atom_site_type_symbol
_atom_site_fract_x
_atom_site_fract_y
_atom_site_fract_z
P1 P 0.0821(3) 0.18077(14) 0.8334(2)
F1 F 0.2011(7) 0.1827(4) 0.7483(5)
F2 F 0.1586(9) 0.0916(4) 0.8665(4)
F3 F 0.0217(5) 0.1293(4) 0.7805(4)
F4 F -0.0371(12) 0.1808(6) 0.9081(6)
F5 F 0.0227(6) 0.2767(3) 0.7867(6)
F6 F 0.1586(11) 0.2397(4) 0.8682(5)
P2 P 0.68498(14) 0.33542(11) 0.67519(10)
F7 F 0.7572(5) 0.2498(3) 0.6431(4)
F8 F 0.6942(8) 0.3021(5) 0.7678(3)
F9 F 0.5512(5) 0.2994(5) 0.6878(4)
F10 F 0.6129(6) 0.4199(5) 0.7195(5)
F11 F 0.6512(7) 0.3814(4) 0.5842(4)
F12 F 0.8091(4) 0.3831(4) 0.6548(3)
N15 N 0.507(3) 0.047(2) 1.0833(18)
C39 C 0.500(5) 0.086(3) 1.017(2)
C40 C 0.478(4) 0.119(2) 0.9267(18)
H47 H 0.4571 0.0701 0.9039
H48 H 0.5572 0.1380 0.8909
H49 H 0.4044 0.1689 0.9270
Ag1 Ag 0.36122(3) 0.28053(2) 0.28877(2)
Ag2 Ag 0.88515(3) 0.24057(2) 0.27636(2)
C1 C 0.6294(3) 0.0954(2) 0.3119(2)
C2 C 0.7474(3) 0.0189(2) 0.3231(2)
H1 H 0.7634 -0.0193 0.2779
H2 H 0.8276 0.0439 0.3189
C3 C 0.8326(4) -0.0920(2) 0.4331(3)
H3 H 0.8855 -0.1216 0.3844
H4 H 0.8034 -0.1390 0.4794
C4 C 0.9199(3) -0.0418(2) 0.4648(2)
C5 C 0.8650(3) 0.0292(2) 0.5121(2)
H5 H 0.7730 0.0496 0.5207
C6 C 1.0563(3) -0.0707(2) 0.4531(2)
H6 H 1.0960 -0.1184 0.4216
C7 C 0.7350(4) 0.1253(3) 0.1532(2)
H7 H 0.7890 0.0689 0.1471
C8 C 0.7187(5) 0.1968(3) 0.0889(3)
H8 H 0.7597 0.1999 0.0304
C9 C 0.6282(4) 0.2636(3) 0.1289(3)
H9 H 0.5979 0.3207 0.1001
C10 C 0.4962(4) -0.0239(3) 0.3078(3)
H10 H 0.5644 -0.0744 0.3050
C11 C 0.3684(4) -0.0215(3) 0.3015(3)
H11 H 0.3301 -0.0695 0.2951
C12 C 0.3066(4) 0.0675(3) 0.3065(3)
H12 H 0.2173 0.0894 0.3029
C13 C 0.5258(3) 0.1447(2) 0.4591(2)
H13 H 0.4602 0.1083 0.4773
C14 C 0.5573(4) 0.1997(3) 0.5074(3)
H14 H 0.5179 0.2090 0.5643
C15 C 0.6611(4) 0.2386(3) 0.4530(3)
H15 H 0.7020 0.2805 0.4686
C16 C 0.0465(4) 0.4357(3) 0.3782(2)
H16 H 0.0594 0.4956 0.3721
C17 C 0.0148(5) 0.3815(3) 0.4540(3)
H17 H 0.0028 0.3954 0.5101
C18 C 0.0041(4) 0.3016(3) 0.4309(3)
H18 H -0.0177 0.2512 0.4708
C19 C -0.1466(4) 0.5442(3) 0.2000(3)
H19 H -0.1085 0.5966 0.1867
C20 C -0.2786(4) 0.5405(3) 0.2142(3)
H20 H -0.3491 0.5894 0.2122
C21 C -0.2870(4) 0.4485(3) 0.2324(3)
H21 H -0.3669 0.4261 0.2445
C22 C 0.0883(4) 0.3451(3) 0.0920(3)
H22 H 0.0123 0.3743 0.0699
C23 C 0.1909(5) 0.2850(3) 0.0538(3)
H23 H 0.1984 0.2638 0.0014
C24 C 0.2813(4) 0.2623(3) 0.1092(3)
H24 H 0.3616 0.2218 0.0992
N1 N 0.3594(5) 0.3612(3) 0.3895(4)
C25 C 0.3482(6) 0.3902(4) 0.4508(5)
C26 C 0.3293(8) 0.4258(6) 0.5339(5)
H25 H 0.2460 0.4675 0.5423
H26 H 0.4017 0.4568 0.5323
H27 H 0.3280 0.3762 0.5811
N2 N 1.0174(4) 0.1306(3) 0.2052(3)
C27 C 1.0769(6) 0.0855(5) 0.1587(5)
C28 C 1.1599(8) 0.0275(6) 0.0959(6)
H28 H 1.1223 0.0386 0.0442
H29 H 1.1628 -0.0353 0.1211
H30 H 1.2490 0.0411 0.0811
C29 C 0.0569(3) 0.4254(2) 0.2217(2)
C30 C 0.1389(3) 0.5027(2) 0.1945(2)
H31 H 0.0991 0.5519 0.2285
H32 H 0.2300 0.4807 0.2036
C31 C 0.2337(4) 0.5935(3) 0.0677(3)
H33 H 0.2388 0.6296 0.1108
H34 H 0.2025 0.6349 0.0192
C32 C 0.3712(4) 0.5426(2) 0.0358(2)
C33 C 0.3895(4) 0.4774(3) -0.0178(2)
H35 H 0.3132 0.4583 -0.0286
C34 C 0.4842(4) 0.5648(3) 0.0525(2)
H36 H 0.4742 0.6106 0.0878
N3 N 0.5899(3) 0.2374(2) 0.2121(2)
N4 N 0.6587(3) 0.15127(18) 0.22728(17)
N5 N 0.3894(3) 0.1181(2) 0.3172(2)
N6 N 0.5077(3) 0.05962(18) 0.31866(18)
N7 N 0.6951(3) 0.20945(19) 0.3765(2)
N8 N 0.6071(3) 0.15260(18) 0.38005(17)
N9 N 0.0283(3) 0.3038(2) 0.3450(2)
N10 N 0.0562(3) 0.38844(18) 0.31311(17)
N11 N -0.1677(3) 0.3968(2) 0.2306(2)
N12 N -0.0804(3) 0.45730(19) 0.20891(18)
N13 N 0.2401(3) 0.3052(2) 0.1783(2)
N14 N 0.1180(3) 0.35413(19) 0.16830(18)
O1 O 0.7158(2) -0.03269(15) 0.40587(15)
O2 O 0.1379(2) 0.53314(17) 0.10591(15)
C6A C 0.9437(3) 0.0707(2) 0.5469(2)
C4A C 1.0801(3) 0.0418(2) 0.5352(2)
C3A C 1.1674(4) 0.0920(2) 0.5669(3)
H3A H 1.1145 0.1216 0.6156
H4A H 1.1966 0.1390 0.5206
O1A O 1.2842(2) 0.03269(15) 0.59413(15)
C2A C 1.2526(3) -0.0189(2) 0.6769(2)
C1A C 1.3706(3) -0.0954(2) 0.6881(2)
N4A N 1.3413(3) -0.15127(18) 0.77272(17)
C7A C 1.2650(4) -0.1253(3) 0.8468(2)
H7A H 1.2110 -0.0689 0.8529
C8A C 1.2813(5) -0.1968(3) 0.9111(3)
H8A H 1.2403 -0.1999 0.9696
C9A C 1.3718(4) -0.2636(3) 0.8711(3)
H9A H 1.4021 -0.3207 0.8999
N3A N 1.4101(3) -0.2374(2) 0.7879(2)
N6A N 1.4923(3) -0.05962(18) 0.68134(18)
C10A C 1.5038(4) 0.0239(3) 0.6922(3)
H10A H 1.4356 0.0744 0.6950
C11A C 1.6316(4) 0.0215(3) 0.6985(3)
H11A H 1.6699 0.0695 0.7049
C12A C 1.6934(4) -0.0675(3) 0.6935(3)
H12A H 1.7827 -0.0894 0.6971
N5A N 1.6106(3) -0.1181(2) 0.6828(2)
N8A N 1.3929(3) -0.15260(18) 0.61995(17)
C13A C 1.4742(3) -0.1447(2) 0.5409(2)
H13A H 1.5398 -0.1083 0.5227
C14A C 1.4427(4) -0.1997(3) 0.4926(3)
H14A H 1.4821 -0.2090 0.4357
C15A C 1.3389(4) -0.2386(3) 0.5470(3)
H15A H 1.2980 -0.2805 0.5314
N7A N 1.3049(3) -0.20945(19) 0.6235(2)
H1A H 1.2366 0.0193 0.7221
H2A H 1.1724 -0.0439 0.6811
C5A C 1.1350(3) -0.0292(2) 0.4879(2)
H5A H 1.2270 -0.0496 0.4793
H6A H 0.9040 0.1184 0.5784
C34A C 0.5158(4) 0.4352(3) -0.0525(2)
C32A C 0.6288(4) 0.4574(2) -0.0358(2)
C31A C 0.7663(4) 0.4065(3) -0.0677(3)
H33A H 0.7612 0.3704 -0.1108
H34A H 0.7975 0.3651 -0.0192
O2A O 0.8621(2) 0.46686(17) -0.10591(15)
C30A C 0.8611(3) 0.4973(2) -0.1945(2)
C29A C 0.9431(3) 0.5746(2) -0.2217(2)
N10A N 0.9438(3) 0.61156(18) -0.31311(17)
C16A C 0.9535(4) 0.5643(3) -0.3782(2)
H16A H 0.9406 0.5044 -0.3721
C17A C 0.9852(5) 0.6185(3) -0.4540(3)
H17A H 0.9972 0.6046 -0.5101
C18A C 0.9959(4) 0.6984(3) -0.4309(3)
H18A H 1.0177 0.7488 -0.4708
N9A N 0.9717(3) 0.6962(2) -0.3450(2)
N12A N 1.0804(3) 0.54270(19) -0.20891(18)
C19A C 1.1466(4) 0.4558(3) -0.2000(3)
H19A H 1.1085 0.4034 -0.1867
C20A C 1.2786(4) 0.4595(3) -0.2142(3)
H20A H 1.3491 0.4106 -0.2122
C21A C 1.2870(4) 0.5515(3) -0.2324(3)
H21A H 1.3669 0.5739 -0.2445
N11A N 1.1677(3) 0.6032(2) -0.2306(2)
N14A N 0.8820(3) 0.64587(19) -0.16830(18)
C22A C 0.9117(4) 0.6549(3) -0.0920(3)
H22A H 0.9877 0.6257 -0.0699
C23A C 0.8091(5) 0.7150(3) -0.0538(3)
H23A H 0.8016 0.7362 -0.0014
C24A C 0.7187(4) 0.7377(3) -0.1092(3)
H24A H 0.6384 0.7782 -0.0992
N13A N 0.7599(3) 0.6948(2) -0.1783(2)
H31A H 0.9009 0.4481 -0.2285
H32A H 0.7700 0.5193 -0.2036
C33A C 0.6105(4) 0.5226(3) 0.0178(2)
H35A H 0.6868 0.5417 0.0286
H36A H 0.5258 0.3894 -0.0878
Ag1A Ag 1.63878(3) -0.28053(2) 0.71123(2)
Ag2A Ag 1.11485(3) -0.24057(2) 0.72364(2)
N1A N 1.6406(5) -0.3612(3) 0.6105(4)
C25A C 1.6518(6) -0.3902(4) 0.5492(5)
C26A C 1.6707(8) -0.4258(6) 0.4661(5)
H25A H 1.7540 -0.4675 0.4577
H26A H 1.5983 -0.4568 0.4677
H27A H 1.6720 -0.3762 0.4189
N2A N 0.9826(4) -0.1306(3) 0.7948(3)
C27A C 0.9231(6) -0.0855(5) 0.8413(5)
C28A C 0.8401(8) -0.0275(6) 0.9041(6)
H28A H 0.8777 -0.0386 0.9558
H29A H 0.8372 0.0353 0.8789
H30A H 0.7510 -0.0411 0.9189
N9_2 N 1.0283(3) 0.3038(2) 0.3450(2)
N11_2 N 0.8323(3) 0.3968(2) 0.2306(2)
Ag2_2 Ag -0.11485(3) 0.24057(2) 0.27636(2)
Ag2A_2 Ag 1.11485(3) 0.75943(2) -0.27636(2)
Ag1A_2 Ag 0.63878(3) 0.71947(2) -0.28877(2)
N13A_2 N 1.7599(3) -0.3052(2) 0.8217(2)
N9A_2 N 0.9717(3) -0.3038(2) 0.6550(2)
N11A_2 N 1.1677(3) -0.3968(2) 0.7694(2)
O3? O 0.5000 0.0000 1.0000
C35? C 0.479(3) 0.0583(15) 0.9165(15)
H37? H 0.3865 0.0595 0.9123
H38? H 0.5347 0.0265 0.8702
C36? C 0.502(2) 0.1576(12) 0.8946(13)
H39? H 0.5404 0.1714 0.9392
H40? H 0.4182 0.1977 0.8915
H41? H 0.5621 0.1655 0.8395
O4? O 0.5000 0.0000 1.0000
C37? C 0.505(5) 0.0934(15) 0.977(2)
H42? H 0.5866 0.0995 0.9938
H43? H 0.4324 0.1219 1.0183
C38? C 0.502(2) 0.1576(12) 0.8946(13)
H44? H 0.5784 0.1386 0.8514
H45? H 0.5041 0.2176 0.9048
H46? H 0.4215 0.1581 0.8743
loop_
_geom_bond_atom_site_label_1
_geom_bond_atom_site_label_2
_geom_bond_site_symmetry_1
_geom_bond_site_symmetry_2
Ag1 N1 1_555 1_555
Ag2 N2 1_555 1_555
C1 C2 1_555 1_555
C2 H1 1_555 1_555
H2 C2 1_555 1_555
C3 H3 1_555 1_555
H4 C3 1_555 1_555
C4 C3 1_555 1_555
C5 C4 1_555 1_555
H5 C5 1_555 1_555
C6 C4 1_555 1_555
H6 C6 1_555 1_555
C7 H7 1_555 1_555
C8 C7 1_555 1_555
H8 C8 1_555 1_555
C9 C8 1_555 1_555
H9 C9 1_555 1_555
C10 H10 1_555 1_555
C11 C10 1_555 1_555
H11 C11 1_555 1_555
C12 C11 1_555 1_555
H12 C12 1_555 1_555
C13 H13 1_555 1_555
C14 C13 1_555 1_555
H14 C14 1_555 1_555
C15 C14 1_555 1_555
H15 C15 1_555 1_555
C16 H16 1_555 1_555
C17 C16 1_555 1_555
H17 C17 1_555 1_555
C18 C17 1_555 1_555
H18 C18 1_555 1_555
C19 H19 1_555 1_555
C20 C19 1_555 1_555
H20 C20 1_555 1_555
C21 C20 1_555 1_555
H21 C21 1_555 1_555
C22 H22 1_555 1_555
C23 C22 1_555 1_555
H23 C23 1_555 1_555
C24 C23 1_555 1_555
H24 C24 1_555 1_555
N1 C25 1_555 1_555
C25 C26 1_555 1_555
C26 H25 1_555 1_555
H26 C26 1_555 1_555
H27 C26 1_555 1_555
N2 C27 1_555 1_555
C27 C28 1_555 1_555
C28 H28 1_555 1_555
H29 C28 1_555 1_555
H30 C28 1_555 1_555
C29 C30 1_555 1_555
C30 H31 1_555 1_555
H32 C30 1_555 1_555
C31 H33 1_555 1_555
H34 C31 1_555 1_555
C32 C31 1_555 1_555
C33 C32 1_555 1_555
H35 C33 1_555 1_555
C34 C32 1_555 1_555
H36 C34 1_555 1_555
N3 Ag1 1_555 1_555
N4 C1 1_555 1_555
N5 Ag1 1_555 1_555
N6 C1 1_555 1_555
N7 Ag2 1_555 1_555
N8 C1 1_555 1_555
N9 C18 1_555 1_555
N10 C16 1_555 1_555
N11 C21 1_555 1_555
N12 C19 1_555 1_555
N13 Ag1 1_555 1_555
N14 C22 1_555 1_555
O1 C2 1_555 1_555
O2 C30 1_555 1_555
P1 F1 1_555 1_555
F2 P1 1_555 1_555
F3 P1 1_555 1_555
F4 P1 1_555 1_555
F5 P1 1_555 1_555
F6 P1 1_555 1_555
P2 F7 1_555 1_555
F8 P2 1_555 1_555
F9 P2 1_555 1_555
F10 P2 1_555 1_555
F11 P2 1_555 1_555
F12 P2 1_555 1_555
N15 C39 1_555 1_555
C39 C40 1_555 1_555
C40 H47 1_555 1_555
H48 C40 1_555 1_555
H49 C40 1_555 1_555
C6A C5 1_555 1_555
C4A C6A 1_555 1_555
C3A C4A 1_555 1_555
H3A C3A 1_555 1_555
H4A C3A 1_555 1_555
O1A C3A 1_555 1_555
C2A O1A 1_555 1_555
C1A C2A 1_555 1_555
N4A C1A 1_555 1_555
C7A N4A 1_555 1_555
H7A C7A 1_555 1_555
C8A C7A 1_555 1_555
H8A C8A 1_555 1_555
C9A C8A 1_555 1_555
H9A C9A 1_555 1_555
N3A N4A 1_555 1_555
N6A C1A 1_555 1_555
C10A N6A 1_555 1_555
H10A C10A 1_555 1_555
C11A C10A 1_555 1_555
H11A C11A 1_555 1_555
C12A C11A 1_555 1_555
H12A C12A 1_555 1_555
N5A N6A 1_555 1_555
N8A C1A 1_555 1_555
C13A N8A 1_555 1_555
H13A C13A 1_555 1_555
C14A C13A 1_555 1_555
H14A C14A 1_555 1_555
C15A C14A 1_555 1_555
H15A C15A 1_555 1_555
N7A N8A 1_555 1_555
H1A C2A 1_555 1_555
H2A C2A 1_555 1_555
C5A C6 1_555 1_555
H5A C5A 1_555 1_555
H6A C6A 1_555 1_555
C34A C33 1_555 1_555
C32A C34A 1_555 1_555
C31A C32A 1_555 1_555
H33A C31A 1_555 1_555
H34A C31A 1_555 1_555
O2A C31A 1_555 1_555
C30A O2A 1_555 1_555
C29A C30A 1_555 1_555
N10A C29A 1_555 1_555
C16A N10A 1_555 1_555
H16A C16A 1_555 1_555
C17A C16A 1_555 1_555
H17A C17A 1_555 1_555
C18A C17A 1_555 1_555
H18A C18A 1_555 1_555
N9A N10A 1_555 1_555
N12A C29A 1_555 1_555
C19A N12A 1_555 1_555
H19A C19A 1_555 1_555
C20A C19A 1_555 1_555
H20A C20A 1_555 1_555
C21A C20A 1_555 1_555
H21A C21A 1_555 1_555
N11A N12A 1_555 1_555
N14A C29A 1_555 1_555
C22A N14A 1_555 1_555
H22A C22A 1_555 1_555
C23A C22A 1_555 1_555
H23A C23A 1_555 1_555
C24A C23A 1_555 1_555
H24A C24A 1_555 1_555
N13A N14A 1_555 1_555
H31A C30A 1_555 1_555
H32A C30A 1_555 1_555
C33A C34 1_555 1_555
H35A C33A 1_555 1_555
H36A C34A 1_555 1_555
Ag1A N3A 1_555 1_555
Ag2A N7A 1_555 1_555
N1A Ag1A 1_555 1_555
C25A N1A 1_555 1_555
C26A C25A 1_555 1_555
H25A C26A 1_555 1_555
H26A C26A 1_555 1_555
H27A C26A 1_555 1_555
N2A Ag2A 1_555 1_555
C27A N2A 1_555 1_555
C28A C27A 1_555 1_555
H28A C28A 1_555 1_555
H29A C28A 1_555 1_555
H30A C28A 1_555 1_555
N9_2 Ag2 1_555 1_555
N11_2 Ag2 1_555 1_555
Ag2_2 N9 1_555 1_555
Ag2A_2 N9A 1_555 1_555
Ag1A_2 N13A 1_555 1_555
N13A_2 Ag1A 1_555 1_555
N9A_2 Ag2A 1_555 1_555
N11A_2 Ag2A 1_555 1_555
C3 O1 1_555 1_555
C7 N4 1_555 1_555
C9 N3 1_555 1_555
C10 N6 1_555 1_555
C12 N5 1_555 1_555
C13 N8 1_555 1_555
C15 N7 1_555 1_555
C24 N13 1_555 1_555
C29 N10 1_555 1_555
C29 N12 1_555 1_555
C29 N14 1_555 1_555
C31 O2 1_555 1_555
N3 N4 1_555 1_555
N5 N6 1_555 1_555
N7 N8 1_555 1_555
N9 N10 1_555 1_555
N11 N12 1_555 1_555
N11 Ag2_2 1_555 1_555
N13 N14 1_555 1_555
C4A C5A 1_555 1_555
C9A N3A 1_555 1_555
C12A N5A 1_555 1_555
N5A Ag1A 1_555 1_555
C15A N7A 1_555 1_555
C32A C33A 1_555 1_555
C18A N9A 1_555 1_555
C21A N11A 1_555 1_555
N11A Ag2A_2 1_555 1_555
C24A N13A 1_555 1_555

#END
