
#######################################################################
#
#                 Cambridge Crystallographic Data Centre
#                                CCDC 
#
#######################################################################
#
# If this CIF has been generated from an entry in the Cambridge 
# Structural Database, then it will include bibliographic, chemical, 
# crystal, experimental, refinement or atomic coordinate data resulting 
# from the CCDC's data processing and validation procedures.
#
#######################################################################

data_ERIHIW
_symmetry_cell_setting           monoclinic
_symmetry_space_group_name_H-M   'P 21'
_symmetry_Int_Tables_number      4
_space_group_name_Hall           'P 2yb'
loop_
_symmetry_equiv_pos_site_id
_symmetry_equiv_pos_as_xyz
1 x,y,z
2 -x,1/2+y,-z
_cell_length_a                   15.3714(14)
_cell_length_b                   13.5220(12)
_cell_length_c                   18.0243(16)
_cell_angle_alpha                90
_cell_angle_beta                 114.519(2)
_cell_angle_gamma                90
_cell_volume                     3408.55
loop_
_atom_site_label
_atom_site_type_symbol
_atom_site_fract_x
_atom_site_fract_y
_atom_site_fract_z
Ag1 Ag 0.64767(5) 0.28173(8) 0.53805(6)
Ag2 Ag 1.78163(5) 0.21875(5) 0.92596(5)
C1 C 0.8445(5) 0.3936(7) 0.5300(6)
C2 C 1.6140(5) 0.3694(6) 0.9490(5)
C3 C 0.9561(7) 0.2514(9) 0.5924(8)
H1 H 1.0144 0.2812 0.5978
C4 C 0.9469(9) 0.1602(9) 0.6129(9)
H2 H 0.9963 0.1128 0.6368
C5 C 0.8494(9) 0.1471(10) 0.5922(9)
H3 H 0.8206 0.0873 0.5983
C6 C 0.8395(8) 0.5363(8) 0.6186(6)
H4 H 0.8955 0.5705 0.6232
C7 C 0.7814(8) 0.5630(10) 0.6520(7)
H5 H 0.7877 0.6184 0.6862
C8 C 0.7104(8) 0.4939(10) 0.6269(7)
H6 H 0.6573 0.4943 0.6411
C9 C 0.7596(8) 0.3112(10) 0.3958(7)
H7 H 0.7972 0.2528 0.4081
C10 C 0.6859(8) 0.3349(12) 0.3210(7)
H8 H 0.6621 0.2974 0.2720
C11 C 0.6558(8) 0.4264(12) 0.3355(6)
H9 H 0.6043 0.4619 0.2955
C12 C 1.4813(7) 0.2485(9) 0.8757(8)
H10 H 1.4277 0.2909 0.8625
C13 C 1.4791(8) 0.1517(10) 0.8576(9)
H11 H 1.4237 0.1121 0.8311
C14 C 1.5705(9) 0.1220(9) 0.8845(9)
H12 H 1.5901 0.0572 0.8780
N1 N 1.7070(9) 0.3690(6) 0.8669(7)
N2 N 1.6499(5) 0.4188(5) 0.8967(4)
C15 C 1.6448(6) 0.5146(7) 0.8757(6)
H13 H 1.6126 0.5656 0.8907
C16 C 1.6938(9) 0.5245(10) 0.8295(8)
H14 H 1.7023 0.5838 0.8049
C17 C 1.7287(12) 0.4348(10) 0.8244(9)
H15 H 1.7648 0.4210 0.7937
N3 N 1.7784(6) 0.3934(10) 1.0512(5)
N4 N 1.6916(4) 0.3502(5) 1.0277(4)
C18 C 1.6891(7) 0.3022(12) 1.0908(7)
H16 H 1.6347 0.2691 1.0909
C19 C 1.7730(7) 0.3070(9) 1.1531(5)
H17 H 1.7922 0.2778 1.2054
C20 C 1.8245(9) 0.3620(13) 1.1258(9)
H18 H 1.8897 0.3775 1.1580
C21 C 0.9256(6) 0.4485(8) 0.5203(6)
H19 H 0.9475 0.4098 0.4845
H20 H 0.9022 0.5133 0.4939
C22 C 1.0686(6) 0.5383(8) 0.5929(6)
H21 H 1.0362 0.6034 0.5811
H22 H 1.0878 0.5222 0.5483
C23 C 1.1552(6) 0.5424(7) 0.6726(6)
C24 C 1.2451(7) 0.5522(9) 0.6771(7)
H23 H 1.2539 0.5570 0.6281
C25 C 1.3232(6) 0.5553(8) 0.7501(7)
H24 H 1.3842 0.5691 0.7509
C26 C 1.3157(5) 0.5391(6) 0.8227(6)
C27 C 1.2283(7) 0.5326(9) 0.8195(6)
H25 H 1.2212 0.5267 0.8693
C28 C 1.1454(6) 0.5341(9) 0.7461(6)
H26 H 1.0839 0.5295 0.7464
C29 C 1.4040(6) 0.5318(7) 0.9004(6)
H27 H 1.4366 0.5968 0.9139
H28 H 1.3869 0.5123 0.9456
C30 C 1.5413(6) 0.4351(7) 0.9650(5)
H29 H 1.5163 0.3991 0.9998
H30 H 1.5734 0.4960 0.9941
C31 C 0.0002(11) 0.1435(9) 0.9396(7)
C32 C 0.4186(6) 0.2679(8) 0.5353(5)
N5 N -0.1614(5) 0.0922(5) 0.8751(4)
N6 N -0.0673(4) 0.0784(5) 0.8934(3)
C33 C -0.0575(7) -0.0108(6) 0.8632(5)
H31 H 0.0008 -0.0393 0.8673
C34 C -0.1456(8) -0.0521(7) 0.8262(5)
H32 H -0.1599 -0.1146 0.7998
C35 C -0.2099(6) 0.0115(7) 0.8335(5)
H33 H -0.2770 0.0014 0.8132
N7 N -0.0687(6) 0.1839(6) 1.0253(5)
N8 N 0.0100(5) 0.1584(5) 1.0147(4)
C36 C 0.0823(8) 0.1460(7) 1.0888(6)
H34 H 0.1460 0.1278 1.0994
C37 C 0.0481(10) 0.1638(9) 1.1453(7)
H35 H 0.0836 0.1604 1.2027
C38 C -0.0452(9) 0.1872(8) 1.1061(6)
H36 H -0.0870 0.2033 1.1310
N9 N 0.0129(7) 0.3251(7) 0.9458(6)
N10 N -0.0221(5) 0.2341(6) 0.9040(4)
C39 C -0.0616(6) 0.2536(7) 0.8186(5)
H37 H -0.0900 0.2063 0.7765
C40 C -0.0511(8) 0.3567(9) 0.8076(7)
H38 H -0.0712 0.3900 0.7568
C41 C -0.0050(9) 0.4008(9) 0.8862(7)
H39 H 0.0109 0.4688 0.8970
C42 C 0.3386(7) 0.2804(9) 0.3832(5)
H40 H 0.2740 0.2881 0.3754
C43 C 0.3717(8) 0.2799(10) 0.3236(6)
H41 H 0.3347 0.2847 0.2664
C44 C 0.4702(7) 0.2710(9) 0.3636(6)
H42 H 0.5127 0.2692 0.3375
C45 C 0.4682(8) 0.1035(10) 0.6048(7)
H43 H 0.4074 0.0729 0.5880
C46 C 0.5571(10) 0.0616(13) 0.6523(8)
H44 H 0.5692 -0.0038 0.6733
C47 C 0.6215(10) 0.1323(13) 0.6620(8)
H45 H 0.6883 0.1235 0.6928
C48 C 0.4832(9) 0.3958(12) 0.6504(8)
H46 H 0.5081 0.3544 0.6972
C49 C 0.4782(10) 0.4952(15) 0.6500(11)
H47 H 0.4990 0.5387 0.6955
C50 C 0.4342(13) 0.5206(13) 0.5645(12)
H48 H 0.4193 0.5862 0.5443
C51 C 0.1083(13) 0.1097(15) 0.9681(9)
H49 H 0.1502 0.1410 1.0204
H50 H 0.1147 0.0369 0.9739
C52 C 0.2261(6) 0.1463(12) 0.9159(6)
H51 H 0.2585 0.0824 0.9369
H52 H 0.2613 0.1995 0.9544
C53 C 0.2210(6) 0.1667(9) 0.8335(6)
C54 C 0.2345(7) 0.2610(8) 0.8156(6)
H53 H 0.2437 0.3114 0.8548
C55 C 0.2353(7) 0.2863(8) 0.7392(6)
H54 H 0.2430 0.3535 0.7276
C56 C 0.2251(5) 0.2156(9) 0.6825(5)
C57 C 0.2091(8) 0.1171(8) 0.7002(7)
H55 H 0.1981 0.0666 0.6606
C58 C 0.2093(8) 0.0946(9) 0.7737(7)
H56 H 0.2013 0.0275 0.7853
C59 C 0.2235(6) 0.2416(9) 0.6029(6)
H57 H 0.1829 0.1943 0.5609
H58 H 0.1966 0.3088 0.5868
C60 C 0.3173(6) 0.2467(8) 0.5286(5)
H59 H 0.2737 0.3010 0.4984
H60 H 0.2930 0.1844 0.4981
N11 N 0.8028(5) 0.2316(7) 0.5625(6)
N12 N 0.8714(5) 0.2958(7) 0.5630(5)
N13 N 0.7244(6) 0.4293(7) 0.5822(6)
N14 N 0.8066(5) 0.4546(6) 0.5781(4)
N15 N 0.7064(6) 0.4605(8) 0.4119(5)
N16 N 0.7677(5) 0.3840(6) 0.4460(4)
N17 N 1.6293(5) 0.1959(6) 0.9212(6)
N18 N 1.5735(5) 0.2737(6) 0.9159(5)
N19 N 0.4969(5) 0.2651(7) 0.4441(4)
N20 N 0.4158(5) 0.2677(6) 0.4564(4)
N21 N 0.5826(6) 0.2169(12) 0.6239(6)
N22 N 0.4860(5) 0.1951(6) 0.5877(5)
N23 N 0.4176(9) 0.4433(8) 0.5192(7)
N24 N 0.4455(5) 0.3658(6) 0.5709(5)
O1 O 1.0043(4) 0.4636(5) 0.5979(4)
O2 O 1.4654(4) 0.4603(5) 0.8904(3)
O3 O 0.1293(6) 0.1428(10) 0.9051(6)
O4 O 0.3195(4) 0.2385(5) 0.6090(3)
N5_2 N 1.8386(5) 0.0922(5) 0.8751(4)
N7_2 N 1.9313(6) 0.1839(6) 1.0253(5)
Ag2_2 Ag -0.21837(5) 0.21875(5) 0.92596(5)
P1 P 0.58272(19) 0.80908(19) 0.88155(16)
F1 F 0.5247(4) 0.7366(5) 0.8066(4)
F2 F 0.5950(5) 0.8853(5) 0.8184(4)
F3 F 0.6420(5) 0.8798(5) 0.9567(4)
F4 F 0.5664(5) 0.7331(6) 0.9429(4)
F5 F 0.4854(5) 0.8649(6) 0.8693(4)
F6 F 0.6784(4) 0.7546(4) 0.8924(4)
P2 P 0.03782(18) 0.3338(2) 0.35857(15)
F7 F -0.0127(16) 0.2673(16) 0.2853(8)
F8 F 0.0309(14) 0.3927(16) 0.2889(8)
F9 F 0.0952(8) 0.4057(7) 0.4277(6)
F10 F 0.0259(10) 0.2837(12) 0.4340(7)
F12 F -0.0408(10) 0.4120(11) 0.3420(7)
F14 F 0.1113(9) 0.2486(6) 0.3874(9)
F11? F -0.0454(11) 0.282(2) 0.3378(17)
F13? F 0.1320(14) 0.338(4) 0.3624(13)
loop_
_geom_bond_atom_site_label_1
_geom_bond_atom_site_label_2
_geom_bond_site_symmetry_1
_geom_bond_site_symmetry_2
Ag1 N11 1_555 1_555
Ag2 N1 1_555 1_555
C1 C21 1_555 1_555
C2 N2 1_555 1_555
C3 H1 1_555 1_555
C4 C3 1_555 1_555
H2 C4 1_555 1_555
C5 C4 1_555 1_555
H3 C5 1_555 1_555
C6 H4 1_555 1_555
C7 C6 1_555 1_555
H5 C7 1_555 1_555
C8 C7 1_555 1_555
H6 C8 1_555 1_555
C9 H7 1_555 1_555
C10 C9 1_555 1_555
H8 C10 1_555 1_555
C11 C10 1_555 1_555
H9 C11 1_555 1_555
C12 H10 1_555 1_555
C13 C12 1_555 1_555
H11 C13 1_555 1_555
C14 C13 1_555 1_555
H12 C14 1_555 1_555
N1 N2 1_555 1_555
N2 C15 1_555 1_555
C15 H13 1_555 1_555
C16 C15 1_555 1_555
H14 C16 1_555 1_555
C17 N1 1_555 1_555
H15 C17 1_555 1_555
N3 N4 1_555 1_555
N4 C2 1_555 1_555
C18 N4 1_555 1_555
H16 C18 1_555 1_555
C19 C18 1_555 1_555
H17 C19 1_555 1_555
C20 N3 1_555 1_555
H18 C20 1_555 1_555
C21 H19 1_555 1_555
H20 C21 1_555 1_555
C22 H21 1_555 1_555
H22 C22 1_555 1_555
C23 C22 1_555 1_555
C24 C23 1_555 1_555
H23 C24 1_555 1_555
C25 C24 1_555 1_555
H24 C25 1_555 1_555
C26 C25 1_555 1_555
C27 C26 1_555 1_555
H25 C27 1_555 1_555
C28 C23 1_555 1_555
H26 C28 1_555 1_555
C29 C26 1_555 1_555
H27 C29 1_555 1_555
H28 C29 1_555 1_555
C30 C2 1_555 1_555
H29 C30 1_555 1_555
H30 C30 1_555 1_555
C31 N6 1_555 1_555
C32 C60 1_555 1_555
N5 N6 1_555 1_555
N6 C33 1_555 1_555
C33 H31 1_555 1_555
C34 C33 1_555 1_555
H32 C34 1_555 1_555
C35 N5 1_555 1_555
H33 C35 1_555 1_555
N7 N8 1_555 1_555
N8 C31 1_555 1_555
C36 N8 1_555 1_555
H34 C36 1_555 1_555
C37 C36 1_555 1_555
H35 C37 1_555 1_555
C38 N7 1_555 1_555
H36 C38 1_555 1_555
N9 N10 1_555 1_555
N10 C31 1_555 1_555
C39 N10 1_555 1_555
H37 C39 1_555 1_555
C40 C39 1_555 1_555
H38 C40 1_555 1_555
C41 N9 1_555 1_555
H39 C41 1_555 1_555
C42 H40 1_555 1_555
C43 C42 1_555 1_555
H41 C43 1_555 1_555
C44 C43 1_555 1_555
H42 C44 1_555 1_555
C45 H43 1_555 1_555
C46 C45 1_555 1_555
H44 C46 1_555 1_555
C47 C46 1_555 1_555
H45 C47 1_555 1_555
C48 H46 1_555 1_555
C49 C48 1_555 1_555
H47 C49 1_555 1_555
C50 C49 1_555 1_555
H48 C50 1_555 1_555
C51 C31 1_555 1_555
H49 C51 1_555 1_555
H50 C51 1_555 1_555
C52 H51 1_555 1_555
H52 C52 1_555 1_555
C53 C52 1_555 1_555
C54 C53 1_555 1_555
H53 C54 1_555 1_555
C55 C54 1_555 1_555
H54 C55 1_555 1_555
C56 C55 1_555 1_555
C57 C56 1_555 1_555
H55 C57 1_555 1_555
C58 C53 1_555 1_555
H56 C58 1_555 1_555
C59 C56 1_555 1_555
H57 C59 1_555 1_555
H58 C59 1_555 1_555
C60 H59 1_555 1_555
H60 C60 1_555 1_555
N11 C5 1_555 1_555
N12 C1 1_555 1_555
N13 Ag1 1_555 1_555
N14 C1 1_555 1_555
N15 C11 1_555 1_555
N16 C1 1_555 1_555
N17 Ag2 1_555 1_555
N18 C2 1_555 1_555
N19 Ag1 1_555 1_555
N20 C32 1_555 1_555
N21 Ag1 1_555 1_555
N22 C32 1_555 1_555
N23 C50 1_555 1_555
N24 C32 1_555 1_555
O1 C21 1_555 1_555
O2 C29 1_555 1_555
O3 C51 1_555 1_555
O4 C59 1_555 1_555
P1 F1 1_555 1_555
F2 P1 1_555 1_555
F3 P1 1_555 1_555
F4 P1 1_555 1_555
F5 P1 1_555 1_555
F6 P1 1_555 1_555
P2 F7 1_555 1_555
F8 P2 1_555 1_555
F9 P2 1_555 1_555
F10 P2 1_555 1_555
F12 P2 1_555 1_555
F14 P2 1_555 1_555
N5_2 Ag2 1_555 1_555
N7_2 Ag2 1_555 1_555
Ag2_2 N5 1_555 1_555
C3 N12 1_555 1_555
C6 N14 1_555 1_555
C8 N13 1_555 1_555
C9 N16 1_555 1_555
C12 N18 1_555 1_555
C14 N17 1_555 1_555
C16 C17 1_555 1_555
C19 C20 1_555 1_555
C22 O1 1_555 1_555
C27 C28 1_555 1_555
C30 O2 1_555 1_555
C34 C35 1_555 1_555
N7 Ag2_2 1_555 1_555
C37 C38 1_555 1_555
C40 C41 1_555 1_555
C42 N20 1_555 1_555
C44 N19 1_555 1_555
C45 N22 1_555 1_555
C47 N21 1_555 1_555
C48 N24 1_555 1_555
C52 O3 1_555 1_555
C57 C58 1_555 1_555
C60 O4 1_555 1_555
N11 N12 1_555 1_555
N13 N14 1_555 1_555
N15 N16 1_555 1_555
N17 N18 1_555 1_555
N19 N20 1_555 1_555
N21 N22 1_555 1_555
N23 N24 1_555 1_555

#END
