
#######################################################################
#
#                 Cambridge Crystallographic Data Centre
#                                CCDC 
#
#######################################################################
#
# If this CIF has been generated from an entry in the Cambridge 
# Structural Database, then it will include bibliographic, chemical, 
# crystal, experimental, refinement or atomic coordinate data resulting 
# from the CCDC's data processing and validation procedures.
#
#######################################################################

data_ERIHOC
_symmetry_cell_setting           monoclinic
_symmetry_space_group_name_H-M   'P 21/c'
_symmetry_Int_Tables_number      14
_space_group_name_Hall           '-P 2ybc'
loop_
_symmetry_equiv_pos_site_id
_symmetry_equiv_pos_as_xyz
1 x,y,z
2 x,1/2-y,1/2+z
3 -x,-y,-z
4 -x,1/2+y,1/2-z
_cell_length_a                   12.131(2)
_cell_length_b                   19.079(4)
_cell_length_c                   9.6355(19)
_cell_angle_alpha                90.00
_cell_angle_beta                 90.000(4)
_cell_angle_gamma                90.00
_cell_volume                     2230.11
loop_
_atom_site_label
_atom_site_type_symbol
_atom_site_fract_x
_atom_site_fract_y
_atom_site_fract_z
Ag1 Ag 0.92496(5) 0.20312(3) 0.37529(7)
C1 C 0.8744(6) 0.1295(3) 0.7035(8)
C2 C 0.8588(6) 0.1004(4) 0.8501(8)
H1 H 0.9099 0.0609 0.8669
H2 H 0.8731 0.1373 0.9201
C3 C 0.7235(7) 0.0532(5) 0.9973(9)
H3 H 0.7320 0.0921 1.0643
H4 H 0.7750 0.0152 1.0236
C4 C 0.6066(7) 0.0267(5) 0.9982(9)
C5 C 0.5842(10) -0.0435(5) 1.0017(13)
H5 H 0.6443 -0.0754 0.9999
C6 C 0.5189(8) 0.0698(5) 0.9923(13)
H6 H 0.5297 0.1189 0.9838
C7 C 1.0696(6) 0.1509(3) 0.7849(7)
H7 H 1.0687 0.1255 0.8697
C8 C 1.1560(6) 0.1860(4) 0.7287(10)
H8 H 1.2280 0.1896 0.7667
C9 C 1.1198(6) 0.2154(3) 0.6062(10)
H9 H 1.1637 0.2433 0.5460
C10 C 0.8478(6) 0.0046(3) 0.6191(10)
H10 H 0.8390 -0.0186 0.7057
C11 C 0.8501(6) -0.0259(4) 0.4914(8)
H11 H 0.8436 -0.0744 0.4706
C12 C 0.8638(6) 0.0291(4) 0.3976(9)
H12 H 0.8681 0.0237 0.2997
C13 C 0.6988(6) 0.1782(4) 0.6053(10)
H13 H 0.6781 0.1405 0.5465
C14 C 0.6365(6) 0.2363(4) 0.6338(11)
H14 H 0.5654 0.2477 0.5991
C15 C 0.7011(7) 0.2749(5) 0.7250(10)
H15 H 0.6792 0.3185 0.7639
N1 N 1.0139(5) 0.1991(3) 0.5842(7)
N2 N 0.9845(5) 0.1598(3) 0.6943(6)
N3 N 0.8700(5) 0.0895(3) 0.4633(7)
N4 N 0.8605(5) 0.0743(3) 0.5985(6)
N5 N 0.7968(4) 0.2442(3) 0.7519(6)
N6 N 0.7937(5) 0.1840(3) 0.6749(6)
O1 O 0.7469(4) 0.0773(3) 0.8578(6)
N7 N 1.0631(7) 0.1204(3) 0.1672(7)
O2 O 1.0957(4) 0.1497(3) 0.2747(6)
O3 O 0.9648(6) 0.1234(4) 0.1414(8)
O4 O 1.1297(6) 0.0904(3) 0.0890(7)
C6B C 0.4811(8) -0.0698(5) 1.0077(13)
C4B C 0.3934(7) -0.0267(5) 1.0018(9)
C3B C 0.2765(7) -0.0532(5) 1.0027(9)
H3B H 0.2680 -0.0921 0.9357
H4B H 0.2250 -0.0152 0.9764
O1B O 0.2531(4) -0.0773(3) 1.1422(6)
C2B C 0.1412(6) -0.1004(4) 1.1499(8)
C1B C 0.1256(6) -0.1295(3) 1.2965(8)
N2B N 0.0155(5) -0.1598(3) 1.3057(6)
C7B C -0.0696(6) -0.1509(3) 1.2151(7)
H7B H -0.0687 -0.1255 1.1303
C8B C -0.1560(6) -0.1860(4) 1.2713(10)
H8B H -0.2280 -0.1896 1.2333
C9B C -0.1198(6) -0.2154(3) 1.3938(10)
H9B H -0.1637 -0.2433 1.4540
N1B N -0.0139(5) -0.1991(3) 1.4158(7)
N4B N 0.1395(5) -0.0743(3) 1.4015(6)
C10B C 0.1522(6) -0.0046(3) 1.3809(10)
H10B H 0.1610 0.0186 1.2943
C11B C 0.1499(6) 0.0259(4) 1.5086(8)
H11B H 0.1564 0.0744 1.5294
C12B C 0.1362(6) -0.0291(4) 1.6024(9)
H12B H 0.1319 -0.0237 1.7003
N3B N 0.1300(5) -0.0895(3) 1.5367(7)
N6B N 0.2063(5) -0.1840(3) 1.3251(6)
C13B C 0.3012(6) -0.1782(4) 1.3947(10)
H13B H 0.3219 -0.1405 1.4535
C14B C 0.3635(6) -0.2363(4) 1.3662(11)
H14B H 0.4346 -0.2477 1.4009
C15B C 0.2989(7) -0.2749(5) 1.2750(10)
H15B H 0.3208 -0.3185 1.2361
N5B N 0.2032(4) -0.2442(3) 1.2481(6)
H1B H 0.0901 -0.0609 1.1331
H2B H 0.1269 -0.1373 1.0799
C5B C 0.4158(10) 0.0435(5) 0.9983(13)
H5B H 0.3557 0.0754 1.0001
H6B H 0.4703 -0.1189 1.0162
Ag1B Ag 0.07504(5) -0.20312(3) 1.62471(7)
N7B N -0.0631(7) -0.1204(3) 1.8328(7)
O2B O -0.0957(4) -0.1497(3) 1.7253(6)
O3B O 0.0352(6) -0.1234(4) 1.8586(8)
O4B O -0.1297(6) -0.0904(3) 1.9110(7)
N5A N 0.7968(4) 0.2558(3) 0.2519(6)
Ag1A Ag 0.92496(5) 0.29688(3) 0.87529(7)
Ag1C Ag 0.07504(5) -0.29688(3) 1.12471(7)
N5C N 0.2032(4) -0.2558(3) 1.7481(6)
N8 N 0.5850(10) 1.0596(7) 0.3681(14)
C16 C 0.5777(13) 0.9994(8) 0.363(2)
C17 C 0.5753(16) 0.9232(8) 0.351(2)
H16 H 0.5433 0.9101 0.2617
H17 H 0.5303 0.9036 0.4265
H18 H 0.6505 0.9048 0.3580
N9 N 0.3892(9) 0.2562(10) 0.4558(17)
C18 C 0.3802(9) 0.2108(8) 0.3766(19)
C19 C 0.3644(11) 0.1597(7) 0.2713(16)
H19 H 0.3801 0.1130 0.3089
H20 H 0.4143 0.1693 0.1936
H21 H 0.2879 0.1614 0.2387
loop_
_geom_bond_atom_site_label_1
_geom_bond_atom_site_label_2
_geom_bond_site_symmetry_1
_geom_bond_site_symmetry_2
Ag1 N1 1_555 1_555
C1 C2 1_555 1_555
C2 H1 1_555 1_555
H2 C2 1_555 1_555
C3 H3 1_555 1_555
H4 C3 1_555 1_555
C4 C3 1_555 1_555
C5 C4 1_555 1_555
H5 C5 1_555 1_555
C6 C4 1_555 1_555
H6 C6 1_555 1_555
C7 H7 1_555 1_555
C8 C7 1_555 1_555
H8 C8 1_555 1_555
C9 C8 1_555 1_555
H9 C9 1_555 1_555
C10 H10 1_555 1_555
C11 C10 1_555 1_555
H11 C11 1_555 1_555
C12 C11 1_555 1_555
H12 C12 1_555 1_555
C13 H13 1_555 1_555
C14 C13 1_555 1_555
H14 C14 1_555 1_555
C15 C14 1_555 1_555
H15 C15 1_555 1_555
N1 C9 1_555 1_555
N2 C1 1_555 1_555
N3 Ag1 1_555 1_555
N4 C1 1_555 1_555
N5 C15 1_555 1_555
N6 C1 1_555 1_555
O1 C2 1_555 1_555
N7 O2 1_555 1_555
O2 Ag1 1_555 1_555
O3 N7 1_555 1_555
O4 N7 1_555 1_555
N8 C16 1_555 1_555
C16 C17 1_555 1_555
C17 H16 1_555 1_555
H17 C17 1_555 1_555
H18 C17 1_555 1_555
N9 C18 1_555 1_555
C18 C19 1_555 1_555
C19 H19 1_555 1_555
H20 C19 1_555 1_555
H21 C19 1_555 1_555
C6B C5 1_555 1_555
C4B C6B 1_555 1_555
C3B C4B 1_555 1_555
H3B C3B 1_555 1_555
H4B C3B 1_555 1_555
O1B C3B 1_555 1_555
C2B O1B 1_555 1_555
C1B C2B 1_555 1_555
N2B C1B 1_555 1_555
C7B N2B 1_555 1_555
H7B C7B 1_555 1_555
C8B C7B 1_555 1_555
H8B C8B 1_555 1_555
C9B C8B 1_555 1_555
H9B C9B 1_555 1_555
N1B N2B 1_555 1_555
N4B C1B 1_555 1_555
C10B N4B 1_555 1_555
H10B C10B 1_555 1_555
C11B C10B 1_555 1_555
H11B C11B 1_555 1_555
C12B C11B 1_555 1_555
H12B C12B 1_555 1_555
N3B N4B 1_555 1_555
N6B C1B 1_555 1_555
C13B N6B 1_555 1_555
H13B C13B 1_555 1_555
C14B C13B 1_555 1_555
H14B C14B 1_555 1_555
C15B C14B 1_555 1_555
H15B C15B 1_555 1_555
N5B N6B 1_555 1_555
H1B C2B 1_555 1_555
H2B C2B 1_555 1_555
C5B C6 1_555 1_555
H5B C5B 1_555 1_555
H6B C6B 1_555 1_555
Ag1B N1B 1_555 1_555
N7B O2B 1_555 1_555
O2B Ag1B 1_555 1_555
O3B N7B 1_555 1_555
O4B N7B 1_555 1_555
N5A Ag1 1_555 1_555
Ag1A N5 1_555 1_555
Ag1C N5B 1_555 1_555
N5C Ag1B 1_555 1_555
C3 O1 1_555 1_555
C7 N2 1_555 1_555
C10 N4 1_555 1_555
C12 N3 1_555 1_555
C13 N6 1_555 1_555
N1 N2 1_555 1_555
N3 N4 1_555 1_555
N5 N6 1_555 1_555
C4B C5B 1_555 1_555
C9B N1B 1_555 1_555
C12B N3B 1_555 1_555
N3B Ag1B 1_555 1_555
C15B N5B 1_555 1_555

#END
