
#######################################################################
#
#                 Cambridge Crystallographic Data Centre
#                                CCDC 
#
#######################################################################
#
# If this CIF has been generated from an entry in the Cambridge 
# Structural Database, then it will include bibliographic, chemical, 
# crystal, experimental, refinement or atomic coordinate data resulting 
# from the CCDC's data processing and validation procedures.
#
#######################################################################

data_ERIHET
_symmetry_cell_setting           monoclinic
_symmetry_space_group_name_H-M   'P 21/c'
_symmetry_Int_Tables_number      14
_space_group_name_Hall           '-P 2ybc'
loop_
_symmetry_equiv_pos_site_id
_symmetry_equiv_pos_as_xyz
1 x,y,z
2 -x,1/2+y,1/2-z
3 -x,-y,-z
4 x,1/2-y,1/2+z
_cell_length_a                   9.5630(5)
_cell_length_b                   9.8747(5)
_cell_length_c                   16.1808(7)
_cell_angle_alpha                90
_cell_angle_beta                 120.673(2)
_cell_angle_gamma                90
_cell_volume                     1314.21
loop_
_atom_site_label
_atom_site_type_symbol
_atom_site_fract_x
_atom_site_fract_y
_atom_site_fract_z
Zn1 Zn 0.86004(3) 0.65356(2) 0.795439(16)
O1 O 0.80856(18) 0.79217(16) 0.69580(11)
O2 O 0.6272(2) 0.8500(2) 0.73459(13)
O3 O 0.91934(16) 1.09247(16) 0.66965(10)
O4 O 0.92729(17) 0.96053(17) 0.56165(11)
O5 O 0.8690(2) 0.69929(17) 0.91493(11)
H1 H 0.8933 0.6451 0.9611
H2 H 0.8548 0.7783 0.9303
N1 N 0.6991(2) 0.50031(18) 0.72410(12)
N2 N 0.14900(18) 0.44565(17) 0.51164(11)
C1 C 0.6825(2) 0.8567(2) 0.68146(14)
C2 C 0.5924(2) 0.93592(19) 0.58884(13)
C3 C 0.6703(2) 1.00226(19) 0.54740(13)
C4 C 0.4233(2) 0.9353(2) 0.54138(13)
H3 H 0.3718 0.8921 0.5697
C5 C 0.8530(2) 1.0158(2) 0.59632(14)
C6 C 0.7442(3) 0.3710(2) 0.74772(17)
H4 H 0.8454 0.3527 0.8014
C7 C 0.6469(3) 0.2646(2) 0.69576(17)
H5 H 0.6810 0.1759 0.7146
C8 C 0.4979(3) 0.2906(2) 0.61535(16)
H6 H 0.4308 0.2194 0.5792
C9 C 0.4484(2) 0.4234(2) 0.58848(14)
C10 C 0.5518(2) 0.5241(2) 0.64550(15)
H7 H 0.5188 0.6136 0.6292
C11 C 0.2899(2) 0.4555(2) 0.49833(14)
H8 H 0.2952 0.5465 0.4775
H9 H 0.2747 0.3934 0.4479
C12 C 0.1496(2) 0.5559(2) 0.57275(14)
H10 H 0.1503 0.6424 0.5445
H11 H 0.2473 0.5503 0.6356
C13 C -0.0016(2) 0.4524(2) 0.41650(14)
H12 H -0.0033 0.3782 0.3767
H13 H -0.0039 0.5366 0.3850
Zn1B Zn 0.13996(3) 1.34644(2) 0.204561(16)
Zn1A Zn 1.13996(3) 1.15356(2) 0.704561(16)
Zn1C Zn -0.13996(3) 0.84644(2) 0.295439(16)
Zn1B_2 Zn -0.86004(3) 0.34644(2) 0.204561(16)
O1B O 0.19144(18) 1.20783(16) 0.30420(11)
O2B O 0.3728(2) 1.1500(2) 0.26541(13)
O3B O 0.08066(16) 0.90753(16) 0.33035(10)
O3A O 1.08066(16) 0.59247(16) 0.83035(10)
O3C O -0.08066(16) 1.40753(16) 0.16965(10)
O4B O 0.07271(17) 1.03947(17) 0.43835(11)
O5B O 0.1310(2) 1.30071(17) 0.08507(11)
H1B H 0.1067 1.3549 0.0389
H2B H 0.1452 1.2217 0.0697
N1B N -0.6991(2) 0.49969(18) 0.27590(12)
N1B_2 N 0.3009(2) 1.49969(18) 0.27590(12)
N2B N -0.14900(18) 0.55435(17) 0.48836(11)
C1B C 0.3175(2) 1.1433(2) 0.31854(14)
C2B C 0.4076(2) 1.06408(19) 0.41116(13)
C3B C 0.3297(2) 0.99774(19) 0.45260(13)
C4B C 0.5767(2) 1.0647(2) 0.45862(13)
H3B H 0.6282 1.1079 0.4303
C5B C 0.1470(2) 0.9842(2) 0.40368(14)
C6B C -0.7442(3) 0.6290(2) 0.25228(17)
H4B H -0.8454 0.6473 0.1986
C7B C -0.6469(3) 0.7354(2) 0.30424(17)
H5B H -0.6810 0.8241 0.2854
C8B C -0.4979(3) 0.7094(2) 0.38465(16)
H6B H -0.4308 0.7806 0.4208
C9B C -0.4484(2) 0.5766(2) 0.41152(14)
C10B C -0.5518(2) 0.4759(2) 0.35450(15)
H7B H -0.5188 0.3864 0.3708
C11B C -0.2899(2) 0.5445(2) 0.50167(14)
H8B H -0.2952 0.4535 0.5225
H9B H -0.2747 0.6066 0.5521
C12B C -0.1496(2) 0.4441(2) 0.42725(14)
H10B H -0.1503 0.3576 0.4555
H11B H -0.2473 0.4497 0.3644
C13B C 0.0016(2) 0.5476(2) 0.58350(14)
H12B H 0.0033 0.6218 0.6233
H13B H 0.0039 0.4634 0.6150
loop_
_geom_bond_atom_site_label_1
_geom_bond_atom_site_label_2
_geom_bond_site_symmetry_1
_geom_bond_site_symmetry_2
Zn1 O1 1_555 1_555
O1 C1 1_555 1_555
O2 C1 1_555 1_555
O3 C5 1_555 1_555
O4 C5 1_555 1_555
O5 Zn1 1_555 1_555
H1 O5 1_555 1_555
H2 O5 1_555 1_555
N1 Zn1 1_555 1_555
N2 C11 1_555 1_555
C1 C2 1_555 1_555
C2 C3 1_555 1_555
C3 C5 1_555 1_555
C4 C2 1_555 1_555
H3 C4 1_555 1_555
C6 N1 1_555 1_555
H4 C6 1_555 1_555
C7 C6 1_555 1_555
H5 C7 1_555 1_555
C8 C7 1_555 1_555
H6 C8 1_555 1_555
C9 C8 1_555 1_555
C10 N1 1_555 1_555
H7 C10 1_555 1_555
C11 C9 1_555 1_555
H8 C11 1_555 1_555
H9 C11 1_555 1_555
C12 N2 1_555 1_555
H10 C12 1_555 1_555
H11 C12 1_555 1_555
C13 N2 1_555 1_555
H12 C13 1_555 1_555
H13 C13 1_555 1_555
Zn1B O1B 1_555 1_555
Zn1A O3 1_555 1_555
Zn1C O3B 1_555 1_555
Zn1B_2 N1B 1_555 1_555
O1B C1B 1_555 1_555
O2B C1B 1_555 1_555
O3B C5B 1_555 1_555
O3A Zn1 1_555 1_555
O3C Zn1B 1_555 1_555
O4B C5B 1_555 1_555
O5B Zn1B 1_555 1_555
H1B O5B 1_555 1_555
H2B O5B 1_555 1_555
N1B C6B 1_555 1_555
N1B_2 Zn1B 1_555 1_555
N2B C11B 1_555 1_555
C1B C2B 1_555 1_555
C2B C3B 1_555 1_555
C3B C4 1_555 1_555
C4B C3 1_555 1_555
H3B C4B 1_555 1_555
C5B C3B 1_555 1_555
C6B H4B 1_555 1_555
C7B C6B 1_555 1_555
H5B C7B 1_555 1_555
C8B C7B 1_555 1_555
H6B C8B 1_555 1_555
C9B C8B 1_555 1_555
C10B N1B 1_555 1_555
H7B C10B 1_555 1_555
C11B C9B 1_555 1_555
H8B C11B 1_555 1_555
H9B C11B 1_555 1_555
C12B C13 1_555 1_555
H10B C12B 1_555 1_555
H11B C12B 1_555 1_555
C13B C12 1_555 1_555
H12B C13B 1_555 1_555
H13B C13B 1_555 1_555
C9 C10 1_555 1_555
N2B C12B 1_555 1_555
N2B C13B 1_555 1_555
C2B C4B 1_555 1_555
C9B C10B 1_555 1_555

#END
