
#######################################################################
#
#                 Cambridge Crystallographic Data Centre
#                                CCDC 
#
#######################################################################
#
# If this CIF has been generated from an entry in the Cambridge 
# Structural Database, then it will include bibliographic, chemical, 
# crystal, experimental, refinement or atomic coordinate data resulting 
# from the CCDC's data processing and validation procedures.
#
#######################################################################

data_ERIJAR
_symmetry_cell_setting           triclinic
_symmetry_space_group_name_H-M   'P -1'
_symmetry_Int_Tables_number      2
_space_group_name_Hall           '-P 1'
loop_
_symmetry_equiv_pos_site_id
_symmetry_equiv_pos_as_xyz
1 x,y,z
2 -x,-y,-z
_cell_length_a                   7.2987(3)
_cell_length_b                   11.9269(5)
_cell_length_c                   15.0756(6)
_cell_angle_alpha                95.369(2)
_cell_angle_beta                 102.871(2)
_cell_angle_gamma                102.631(2)
_cell_volume                     1234.37
loop_
_atom_site_label
_atom_site_type_symbol
_atom_site_fract_x
_atom_site_fract_y
_atom_site_fract_z
O1 O 0.0994(2) 0.63158(15) 0.01259(17)
O2 O 0.3016(4) 0.28216(19) 0.02320(19)
H1 H 0.130(5) 0.663(3) -0.029(3)
H2 H 0.119(6) 0.683(3) 0.063(3)
H3 H 0.198(5) 0.225(3) -0.008(2)
H4 H 0.940(3) 0.5518(17) 0.2221(14)
H9 H 0.412(6) 0.258(3) 0.023(3)
Na1 Na 0.24999(10) 0.47107(6) 0.02804(5)
C1 C 0.6536(2) 0.53381(15) 0.18198(12)
C2 C 0.5139(2) 0.54630(13) 0.23926(11)
C3 C 0.6261(2) 0.57694(13) 0.33425(10)
C4 C 0.5812(2) 0.60035(15) 0.41768(11)
H10 H 0.4542 0.5980 0.4200
C5 C 0.7296(3) 0.62728(16) 0.49741(12)
H11 H 0.7017 0.6430 0.5539
C6 C 0.9194(3) 0.63120(17) 0.49426(12)
H12 H 1.0167 0.6498 0.5487
C7 C 0.9670(2) 0.60815(16) 0.41194(12)
H13 H 1.0943 0.6110 0.4100
C8 C 0.8188(2) 0.58075(13) 0.33264(11)
N1 N 0.83052(19) 0.55582(13) 0.24153(10)
N2 N 0.33205(18) 0.52849(12) 0.19803(9)
O3 O 0.61709(18) 0.50974(14) 0.09817(9)
O4 O 0.21617(15) 0.54444(9) 0.25488(8)
O1A O -0.0994(2) 0.36842(15) -0.01259(17)
H1A H -0.130(5) 0.337(3) 0.029(3)
H2A H -0.119(6) 0.317(3) -0.063(3)
Na1A Na -0.24999(10) 0.52893(6) -0.02804(5)
Na1A_2 Na 0.75001(10) 0.52893(6) -0.02804(5)
O3A O 0.38291(18) 0.49026(14) -0.09817(9)
H5 H -0.432(3) -0.0502(18) 0.0682(15)
H6 H 0.101(3) 0.409(2) 0.2678(15)
C9 C -0.3048(2) 0.11666(15) 0.10061(13)
C10 C -0.1543(2) 0.17741(14) 0.18624(12)
C11 C -0.1264(2) 0.09011(14) 0.24606(12)
C12 C -0.0120(3) 0.09265(16) 0.33278(13)
H14 H 0.0701 0.1619 0.3660
C13 C -0.0219(3) -0.01047(18) 0.36947(14)
H15 H 0.0546 -0.0103 0.4278
C14 C -0.1445(3) -0.11327(18) 0.32007(16)
H16 H -0.1499 -0.1811 0.3463
C15 C -0.2593(3) -0.11803(16) 0.23284(15)
H17 H -0.3406 -0.1877 0.1999
C16 C -0.2488(2) -0.01592(14) 0.19665(12)
N3 N -0.3501(2) 0.00296(13) 0.11123(11)
N4 N -0.0782(2) 0.28682(12) 0.19124(10)
O5 O -0.37599(19) 0.15939(11) 0.03390(9)
O6 O 0.05472(18) 0.33089(11) 0.27387(9)
H7 H 0.157(3) 0.100(2) 0.0853(17)
H8 H 0.264(4) -0.314(3) 0.283(2)
C17 C 0.1466(3) -0.05497(19) 0.11845(18)
C18 C 0.2434(3) -0.09228(16) 0.20606(15)
C19 C 0.3592(3) 0.01207(16) 0.26774(16)
C20 C 0.4738(3) 0.03367(19) 0.35712(19)
H18 H 0.4890 -0.0271 0.3902
C21 C 0.5659(3) 0.1486(2) 0.3964(2)
H19 H 0.6428 0.1653 0.4565
C22 C 0.5420(4) 0.2381(2) 0.3453(3)
H20 H 0.6042 0.3143 0.3723
C23 C 0.4292(4) 0.2177(2) 0.2559(2)
H21 H 0.4154 0.2784 0.2226
C24 C 0.3383(3) 0.10472(17) 0.2184(2)
N5 N 0.2124(3) 0.06162(17) 0.12979(17)
N6 N 0.2115(2) -0.20215(13) 0.20959(12)
O7 O 0.0319(3) -0.11626(16) 0.05048(13)
O8 O 0.3051(2) -0.22606(12) 0.29317(10)
loop_
_geom_bond_atom_site_label_1
_geom_bond_atom_site_label_2
_geom_bond_site_symmetry_1
_geom_bond_site_symmetry_2
O1 H1 1_555 1_555
O2 H3 1_555 1_555
H2 O1 1_555 1_555
H4 N1 1_555 1_555
H5 N3 1_555 1_555
H6 O6 1_555 1_555
H7 N5 1_555 1_555
H8 O8 1_555 1_555
H9 O2 1_555 1_555
Na1 O1 1_555 1_555
C1 C2 1_555 1_555
C2 C3 1_555 1_555
C3 C4 1_555 1_555
C4 H10 1_555 1_555
C5 C4 1_555 1_555
H11 C5 1_555 1_555
C6 C5 1_555 1_555
H12 C6 1_555 1_555
C7 C6 1_555 1_555
H13 C7 1_555 1_555
C8 C3 1_555 1_555
N1 C1 1_555 1_555
N2 Na1 1_555 1_555
O3 Na1 1_555 1_555
O4 N2 1_555 1_555
C9 C10 1_555 1_555
C10 C11 1_555 1_555
C11 C12 1_555 1_555
C12 H14 1_555 1_555
C13 C12 1_555 1_555
H15 C13 1_555 1_555
C14 C13 1_555 1_555
H16 C14 1_555 1_555
C15 C14 1_555 1_555
H17 C15 1_555 1_555
C16 C11 1_555 1_555
C17 C18 1_555 1_555
C18 C19 1_555 1_555
C19 C20 1_555 1_555
C20 H18 1_555 1_555
C21 C20 1_555 1_555
H19 C21 1_555 1_555
C22 C21 1_555 1_555
H20 C22 1_555 1_555
C23 C22 1_555 1_555
H21 C23 1_555 1_555
C24 C19 1_555 1_555
N3 C9 1_555 1_555
N4 C10 1_555 1_555
N5 C17 1_555 1_555
N6 C18 1_555 1_555
O5 C9 1_555 1_555
O6 N4 1_555 1_555
O7 C17 1_555 1_555
O8 N6 1_555 1_555
O1A Na1 1_555 1_555
H1A O1A 1_555 1_555
H2A O1A 1_555 1_555
Na1A O1 1_555 1_555
Na1A_2 O3 1_555 1_555
O3A Na1 1_555 1_555
O2 Na1 1_555 1_555
C1 O3 1_555 1_555
C2 N2 1_555 1_555
C7 C8 1_555 1_555
C8 N1 1_555 1_555
C15 C16 1_555 1_555
C16 N3 1_555 1_555
C23 C24 1_555 1_555
C24 N5 1_555 1_555
O1A Na1A 1_555 1_555
Na1A_2 O3A 1_555 1_555

#END
