
#######################################################################
#
#                 Cambridge Crystallographic Data Centre
#                                CCDC 
#
#######################################################################
#
# If this CIF has been generated from an entry in the Cambridge 
# Structural Database, then it will include bibliographic, chemical, 
# crystal, experimental, refinement or atomic coordinate data resulting 
# from the CCDC's data processing and validation procedures.
#
#######################################################################

data_ERILAT
_symmetry_cell_setting           monoclinic
_symmetry_space_group_name_H-M   'C 2/c'
_symmetry_Int_Tables_number      15
_space_group_name_Hall           '-C 2yn'
loop_
_symmetry_equiv_pos_site_id
_symmetry_equiv_pos_as_xyz
1 x,y,z
2 -x,y,1/2-z
3 1/2+x,1/2+y,z
4 1/2-x,1/2+y,1/2-z
5 -x,-y,-z
6 x,-y,1/2+z
7 1/2-x,1/2-y,-z
8 1/2+x,1/2-y,1/2+z
_cell_length_a                   14.8377(13)
_cell_length_b                   6.2597(7)
_cell_length_c                   25.743(3)
_cell_angle_alpha                90
_cell_angle_beta                 104.900(3)
_cell_angle_gamma                90
_cell_volume                     2310.6
loop_
_atom_site_label
_atom_site_type_symbol
_atom_site_fract_x
_atom_site_fract_y
_atom_site_fract_z
Co1 Co 0.75276(3) 0.06070(7) 0.255905(16)
O1 O 0.75332(18) -0.4281(4) 0.37058(9)
O2 O 0.69231(15) 0.3197(3) 0.29117(9)
H1 H 0.6277(13) 0.294(6) 0.2786(13)
H2 H 0.715(2) 0.410(5) 0.3222(10)
O3 O 0.88459(16) 0.1401(3) 0.29628(9)
O4 O 0.75018(16) -0.2058(3) 0.30335(8)
O5 O 0.88148(16) 0.4930(3) 0.28581(9)
C1 C 0.7659(2) -0.2489(5) 0.35404(13)
C2 C 0.8038(3) -0.0718(6) 0.39244(13)
H3 H 0.7651 0.0535 0.3814
H4 H 0.8659 -0.0373 0.3893
C3 C 0.8095(4) -0.1141(7) 0.45058(15)
H5 H 0.8476 -0.2399 0.4619
H6 H 0.7474 -0.1450 0.4543
C4 C 0.8496(4) 0.0687(9) 0.48730(18)
H7 H 0.9131 0.0923 0.4864
H8 H 0.8474 0.0349 0.5233
H9 H 0.8137 0.1956 0.4756
C5 C 0.9218(2) 0.3213(6) 0.30284(12)
C6 C 1.0235(2) 0.3339(7) 0.33334(17)
H10 H 1.0615 0.3540 0.3082
H11 H 1.0421 0.2010 0.3524
C7 C 1.0404(5) 0.5282(15) 0.3753(3)
H12 H 1.1063 0.5620 0.3874
H13 H 1.0070 0.6546 0.3590
C8 C 1.0027(8) 0.450(3) 0.4231(4)
H14 H 1.0102 0.5616 0.4495
H15 H 1.0369 0.3262 0.4390
H16 H 0.9378 0.4150 0.4103
Co1C Co 0.74724(3) -0.43930(7) 0.244095(16)
Co1C_2 Co 0.74724(3) 0.56070(7) 0.244095(16)
O1C O 0.74668(18) 0.0719(4) 0.12942(9)
O2C O 0.80769(15) -0.1803(3) 0.20883(9)
O2_2 O 0.69231(15) -0.6803(3) 0.29117(9)
H1C H 0.8723(13) -0.206(6) 0.2214(13)
H1_2 H 0.6277(13) -0.706(6) 0.2786(13)
H2C H 0.785(2) -0.090(5) 0.1778(10)
H2_2 H 0.715(2) -0.590(5) 0.3222(10)
O3C O 0.61541(16) -0.3599(3) 0.20372(9)
O4C O 0.74982(16) 0.2942(3) 0.19665(8)
O4C_2 O 0.74982(16) -0.7058(3) 0.19665(8)
O5C O 0.61852(16) -0.0070(3) 0.21419(9)
O5_2 O 0.88148(16) -0.5070(3) 0.28581(9)
C1C C 0.7341(2) 0.2511(5) 0.14596(13)
C2C C 0.6962(3) 0.4282(6) 0.10756(13)
H3C H 0.7349 0.5535 0.1186
H4C H 0.6341 0.4627 0.1107
C3C C 0.6905(4) 0.3859(7) 0.04942(15)
H5C H 0.6524 0.2601 0.0381
H6C H 0.7526 0.3550 0.0457
C4C C 0.6504(4) 0.5687(9) 0.01270(18)
H7C H 0.5869 0.5923 0.0136
H8C H 0.6526 0.5349 -0.0233
H9C H 0.6863 0.6956 0.0244
C5C C 0.5782(2) -0.1787(6) 0.19716(12)
C6C C 0.4765(2) -0.1661(7) 0.16666(17)
H10C H 0.4385 -0.1460 0.1918
H11C H 0.4579 -0.2990 0.1476
C7C C 0.4596(5) 0.0282(15) 0.1247(3)
H12C H 0.3937 0.0620 0.1126
H13C H 0.4930 0.1546 0.1410
C8C C 0.4973(8) -0.050(3) 0.0769(4)
H14C H 0.4898 0.0616 0.0505
H15C H 0.4631 -0.1738 0.0610
H16C H 0.5622 -0.0850 0.0897
O6 O 0.5000 0.3285(15) 0.2500
C9? C 1.0412(9) 0.272(3) 0.3901(5)
H17? H 1.1054 0.2295 0.4055
H18? H 0.9991 0.1616 0.3960
C10? C 1.014(3) 0.536(5) 0.4137(14)
H19? H 0.9483 0.5481 0.4091
H20? H 1.0349 0.6452 0.3933
H21? H 1.0459 0.5517 0.4510
H22? H 1.0476 0.4689 0.3241
H23? H 1.0544 0.2149 0.3210
O7? O 0.4987(6) 0.3237(17) 0.2794(4)
loop_
_geom_bond_atom_site_label_1
_geom_bond_atom_site_label_2
_geom_bond_site_symmetry_1
_geom_bond_site_symmetry_2
Co1 O2 1_555 1_555
O1 C1 1_555 1_555
O2 H1 1_555 1_555
H2 O2 1_555 1_555
O3 Co1 1_555 1_555
O4 Co1 1_555 1_555
O5 C5 1_555 1_555
C1 O4 1_555 1_555
C2 C1 1_555 1_555
H3 C2 1_555 1_555
H4 C2 1_555 1_555
C3 C2 1_555 1_555
H5 C3 1_555 1_555
H6 C3 1_555 1_555
C4 C3 1_555 1_555
H7 C4 1_555 1_555
H8 C4 1_555 1_555
H9 C4 1_555 1_555
C5 O3 1_555 1_555
C6 C5 1_555 1_555
H10 C6 1_555 1_555
H11 C6 1_555 1_555
C7 C6 1_555 1_555
H12 C7 1_555 1_555
H13 C7 1_555 1_555
C8 C7 1_555 1_555
H14 C8 1_555 1_555
H15 C8 1_555 1_555
H16 C8 1_555 1_555
Co1C O4 1_555 1_555
Co1C_2 O2 1_555 1_555
O1C C1C 1_555 1_555
O2C Co1 1_555 1_555
O2_2 Co1C 1_555 1_555
H1C O2C 1_555 1_555
H1_2 O2_2 1_555 1_555
H2C O2C 1_555 1_555
H2_2 O2_2 1_555 1_555
O3C Co1C 1_555 1_555
O4C Co1 1_555 1_555
O4C_2 Co1C 1_555 1_555
O5C Co1 1_555 1_555
O5_2 Co1C 1_555 1_555
C1C O4C 1_555 1_555
C2C C1C 1_555 1_555
H3C C2C 1_555 1_555
H4C C2C 1_555 1_555
C3C C2C 1_555 1_555
H5C C3C 1_555 1_555
H6C C3C 1_555 1_555
C4C C3C 1_555 1_555
H7C C4C 1_555 1_555
H8C C4C 1_555 1_555
H9C C4C 1_555 1_555
C5C O3C 1_555 1_555
C6C C5C 1_555 1_555
H10C C6C 1_555 1_555
H11C C6C 1_555 1_555
C7C C6C 1_555 1_555
H12C C7C 1_555 1_555
H13C C7C 1_555 1_555
C8C C7C 1_555 1_555
H14C C8C 1_555 1_555
H15C C8C 1_555 1_555
H16C C8C 1_555 1_555
O5 Co1C_2 1_555 1_555
Co1C O2C 1_555 1_555
Co1C_2 O4C 1_555 1_555
O5C C5C 1_555 1_555

#END
