
#######################################################################
#
#                 Cambridge Crystallographic Data Centre
#                                CCDC 
#
#######################################################################
#
# If this CIF has been generated from an entry in the Cambridge 
# Structural Database, then it will include bibliographic, chemical, 
# crystal, experimental, refinement or atomic coordinate data resulting 
# from the CCDC's data processing and validation procedures.
#
#######################################################################

data_ERINIC12
_symmetry_cell_setting           monoclinic
_symmetry_space_group_name_H-M   'C 2/c'
_symmetry_Int_Tables_number      15
_space_group_name_Hall           '-C 2yn'
loop_
_symmetry_equiv_pos_site_id
_symmetry_equiv_pos_as_xyz
1 x,y,z
2 -x,y,1/2-z
3 1/2+x,1/2+y,z
4 1/2-x,1/2+y,1/2-z
5 -x,-y,-z
6 x,-y,1/2+z
7 1/2-x,1/2-y,-z
8 1/2+x,1/2-y,1/2+z
_cell_length_a                   20.229(10)
_cell_length_b                   11.594(6)
_cell_length_c                   9.871(5)
_cell_angle_alpha                90
_cell_angle_beta                 115.509(6)
_cell_angle_gamma                90
_cell_volume                     2089.41
loop_
_atom_site_label
_atom_site_type_symbol
_atom_site_fract_x
_atom_site_fract_y
_atom_site_fract_z
Er1 Er 0.5000 0.01186(5) 0.2500
O1 O 0.4196(5) 0.0290(8) -0.1483(12)
O2 O 0.3916(3) 0.0764(7) 0.0376(7)
O3 O 0.4708(4) 0.2026(5) 0.3202(7)
O4 O 0.5512(4) -0.1575(7) 0.4029(10)
H1 H 0.529(4) -0.190(9) 0.449(14)
H2 H 0.597(2) -0.173(8) 0.437(13)
N1 N 0.1768(7) 0.2209(17) -0.4078(17)
N2 N 0.5000 0.615(2) 0.2500
C1 C 0.2111(7) 0.1371(19) -0.4540(15)
H3 H 0.1892 0.1120 -0.5531
C2 C 0.2765(5) 0.0902(15) -0.3578(12)
H4 H 0.3001 0.0368 -0.3921
C3 C 0.3074(4) 0.1236(10) -0.2067(10)
C4 C 0.2708(6) 0.2039(14) -0.1620(16)
H5 H 0.2898 0.2275 -0.0623
C5 C 0.2077(8) 0.2477(18) -0.2630(18)
H6 H 0.1837 0.3008 -0.2293
C6 C 0.3785(4) 0.0714(9) -0.0986(9)
C7 C 0.4592(18) 0.560(2) 0.310(3)
H7 H 0.4322 0.6014 0.3495
C8 C 0.4597(13) 0.4423(14) 0.309(2)
H8 H 0.4325 0.4017 0.3491
C9 C 0.5000 0.3835(14) 0.2500
C10 C 0.5000 0.2529(10) 0.2500
Er1D Er 0.5000 -0.01186(5) -0.2500
Er1D_2 Er 0.5000 -0.01186(5) 0.7500
O1A O 0.5804(5) 0.0290(8) 0.6483(12)
O1D O 0.5804(5) -0.0290(8) 0.1483(12)
O1E O 0.4196(5) -0.0290(8) 0.3517(12)
O2A O 0.6084(3) 0.0764(7) 0.4624(7)
O3A O 0.5292(4) 0.2026(5) 0.1798(7)
O4A O 0.4488(4) -0.1575(7) 0.0971(10)
H1A H 0.471(4) -0.190(9) 0.051(14)
H2A H 0.403(2) -0.173(8) 0.063(13)
N1A N 0.8232(7) 0.2209(17) 0.9078(17)
C1A C 0.7889(7) 0.1371(19) 0.9540(15)
H3A H 0.8108 0.1120 1.0531
C2A C 0.7235(5) 0.0902(15) 0.8578(12)
H4A H 0.6999 0.0368 0.8921
C3A C 0.6926(4) 0.1236(10) 0.7067(10)
C4A C 0.7292(6) 0.2039(14) 0.6620(16)
H5A H 0.7102 0.2275 0.5623
C5A C 0.7923(8) 0.2477(18) 0.7630(18)
H6A H 0.8163 0.3008 0.7293
C6A C 0.6215(4) 0.0714(9) 0.5986(9)
C7A C 0.5408(18) 0.560(2) 0.190(3)
H7A H 0.5678 0.6014 0.1505
C8A C 0.5403(13) 0.4423(14) 0.191(2)
H8A H 0.5675 0.4017 0.1509
loop_
_geom_bond_atom_site_label_1
_geom_bond_atom_site_label_2
_geom_bond_site_symmetry_1
_geom_bond_site_symmetry_2
Er1 O2 1_555 1_555
O1 C6 1_555 1_555
O2 C6 1_555 1_555
O3 Er1 1_555 1_555
O4 Er1 1_555 1_555
H1 O4 1_555 1_555
H2 O4 1_555 1_555
N1 C1 1_555 1_555
N2 C7 1_555 1_555
C1 H3 1_555 1_555
C2 C1 1_555 1_555
H4 C2 1_555 1_555
C3 C2 1_555 1_555
C4 C3 1_555 1_555
H5 C4 1_555 1_555
C5 N1 1_555 1_555
H6 C5 1_555 1_555
C6 C3 1_555 1_555
C7 H7 1_555 1_555
C8 C7 1_555 1_555
H8 C8 1_555 1_555
C9 C8 1_555 1_555
C10 O3 1_555 1_555
Er1D O1 1_555 1_555
Er1D_2 O1A 1_555 1_555
O1A C6A 1_555 1_555
O1D Er1 1_555 1_555
O1E Er1 1_555 1_555
O2A Er1 1_555 1_555
O3A Er1 1_555 1_555
O4A Er1 1_555 1_555
H1A O4A 1_555 1_555
H2A O4A 1_555 1_555
N1A C1A 1_555 1_555
C1A H3A 1_555 1_555
C2A C1A 1_555 1_555
H4A C2A 1_555 1_555
C3A C2A 1_555 1_555
C4A C3A 1_555 1_555
H5A C4A 1_555 1_555
C5A N1A 1_555 1_555
H6A C5A 1_555 1_555
C6A O2A 1_555 1_555
C7A N2 1_555 1_555
H7A C7A 1_555 1_555
C8A C9 1_555 1_555
H8A C8A 1_555 1_555
C4 C5 1_555 1_555
C9 C10 1_555 1_555
C10 O3A 1_555 1_555
C3A C6A 1_555 1_555
C4A C5A 1_555 1_555
C7A C8A 1_555 1_555

#END
