
#######################################################################
#
#                 Cambridge Crystallographic Data Centre
#                                CCDC 
#
#######################################################################
#
# If this CIF has been generated from an entry in the Cambridge 
# Structural Database, then it will include bibliographic, chemical, 
# crystal, experimental, refinement or atomic coordinate data resulting 
# from the CCDC's data processing and validation procedures.
#
#######################################################################

data_ERINIC11
_symmetry_cell_setting           monoclinic
_symmetry_space_group_name_H-M   'C 2/c'
_symmetry_Int_Tables_number      15
_space_group_name_Hall           '-C 2yn'
loop_
_symmetry_equiv_pos_site_id
_symmetry_equiv_pos_as_xyz
1 x,y,z
2 1/2+x,1/2+y,z
3 -x,y,1/2-z
4 1/2-x,1/2+y,1/2-z
5 -x,-y,-z
6 1/2-x,1/2-y,-z
7 x,-y,1/2+z
8 1/2+x,1/2-y,1/2+z
_cell_length_a                   15.7690(5)
_cell_length_b                   14.0660(2)
_cell_length_c                   9.5009(4)
_cell_angle_alpha                90
_cell_angle_beta                 98.060(3)
_cell_angle_gamma                90
_cell_volume                     2086.55
loop_
_atom_site_label
_atom_site_type_symbol
_atom_site_fract_x
_atom_site_fract_y
_atom_site_fract_z
Er1 Er 0.0000 -0.020817(15) 0.2500
O1 O 0.12924(14) -0.05798(19) 0.3862(2)
O2 O 0.04980(16) 0.13506(17) 0.3431(2)
O3 O -0.03268(17) -0.15988(19) 0.3716(3)
H1 H -0.043(2) -0.149(3) 0.446(4)
H2 H -0.062(2) -0.201(3) 0.317(4)
O4 O 0.09009(17) -0.02591(18) 0.5950(3)
C1 C 0.14181(19) -0.0579(2) 0.5193(3)
C2 C 0.2231(2) -0.1020(2) 0.5906(3)
C3 C 0.2858(2) -0.1349(3) 0.5149(4)
H3 H 0.2803 -0.1265 0.4169
C4 C 0.3568(2) -0.1807(3) 0.5861(4)
H4 H 0.3986 -0.2021 0.5338
C5 C 0.3085(3) -0.1617(4) 0.7966(5)
H5 H 0.3162 -0.1702 0.8947
C6 C 0.2364(3) -0.1155(4) 0.7364(4)
H6 H 0.1968 -0.0933 0.7925
C7 C 0.0000 0.1790(3) 0.2500
C8 C 0.0000 0.2850(4) 0.2500
C9 C 0.0694(3) 0.3337(4) 0.3147(6)
H7 H 0.1165 0.3007 0.3601
C10 C 0.0702(4) 0.4323(5) 0.3132(7)
H8 H 0.1187 0.4645 0.3553
N1 N 0.3682(2) -0.1955(3) 0.7250(4)
N2 N 0.0000 0.4841(6) 0.2500
Er1F Er 0.0000 0.020817(15) 0.7500
Er1F_2 Er 0.0000 0.020817(15) -0.2500
O1B O -0.12924(14) -0.05798(19) 0.1138(2)
O2B O -0.04980(16) 0.13506(17) 0.1569(2)
O3B O 0.03268(17) -0.15988(19) 0.1284(3)
H1B H 0.043(2) -0.149(3) 0.054(4)
H2B H 0.062(2) -0.201(3) 0.183(4)
O4B O -0.09009(17) -0.02591(18) -0.0950(3)
O4F O 0.09009(17) 0.02591(18) 0.0950(3)
O4D O -0.09009(17) 0.02591(18) 0.4050(3)
C1B C -0.14181(19) -0.0579(2) -0.0193(3)
C2B C -0.2231(2) -0.1020(2) -0.0906(3)
C3B C -0.2858(2) -0.1349(3) -0.0149(4)
H3B H -0.2803 -0.1265 0.0831
C4B C -0.3568(2) -0.1807(3) -0.0861(4)
H4B H -0.3986 -0.2021 -0.0338
C5B C -0.3085(3) -0.1617(4) -0.2966(5)
H5B H -0.3162 -0.1702 -0.3947
C6B C -0.2364(3) -0.1155(4) -0.2364(4)
H6B H -0.1968 -0.0933 -0.2925
C9B C -0.0694(3) 0.3337(4) 0.1853(6)
H7B H -0.1165 0.3007 0.1399
C10B C -0.0702(4) 0.4323(5) 0.1868(7)
H8B H -0.1187 0.4645 0.1447
N1B N -0.3682(2) -0.1955(3) -0.2250(4)
loop_
_geom_bond_atom_site_label_1
_geom_bond_atom_site_label_2
_geom_bond_site_symmetry_1
_geom_bond_site_symmetry_2
Er1 O1 1_555 1_555
O1 C1 1_555 1_555
O2 Er1 1_555 1_555
O3 Er1 1_555 1_555
H1 O3 1_555 1_555
H2 O3 1_555 1_555
O4 C1 1_555 1_555
C1 C2 1_555 1_555
C2 C3 1_555 1_555
C3 H3 1_555 1_555
C4 C3 1_555 1_555
H4 C4 1_555 1_555
C5 H5 1_555 1_555
C6 C2 1_555 1_555
H6 C6 1_555 1_555
C7 O2 1_555 1_555
C8 C7 1_555 1_555
C9 C8 1_555 1_555
H7 C9 1_555 1_555
C10 C9 1_555 1_555
H8 C10 1_555 1_555
N1 C4 1_555 1_555
N2 C10 1_555 1_555
Er1F O4 1_555 1_555
Er1F_2 O4B 1_555 1_555
O1B Er1 1_555 1_555
O2B Er1 1_555 1_555
O3B Er1 1_555 1_555
H1B O3B 1_555 1_555
H2B O3B 1_555 1_555
O4B C1B 1_555 1_555
O4F Er1 1_555 1_555
O4D Er1 1_555 1_555
C1B O1B 1_555 1_555
C2B C1B 1_555 1_555
C3B C2B 1_555 1_555
H3B C3B 1_555 1_555
C4B C3B 1_555 1_555
H4B C4B 1_555 1_555
C5B H5B 1_555 1_555
C6B C2B 1_555 1_555
H6B C6B 1_555 1_555
C9B C8 1_555 1_555
H7B C9B 1_555 1_555
C10B N2 1_555 1_555
H8B C10B 1_555 1_555
N1B C4B 1_555 1_555
C5 C6 1_555 1_555
C5 N1 1_555 1_555
C7 O2B 1_555 1_555
C5B C6B 1_555 1_555
C5B N1B 1_555 1_555
C9B C10B 1_555 1_555

#END
