
#######################################################################
#
#                 Cambridge Crystallographic Data Centre
#                                CCDC 
#
#######################################################################
#
# If this CIF has been generated from an entry in the Cambridge 
# Structural Database, then it will include bibliographic, chemical, 
# crystal, experimental, refinement or atomic coordinate data resulting 
# from the CCDC's data processing and validation procedures.
#
#######################################################################

data_ERIQUS
_symmetry_cell_setting           monoclinic
_symmetry_space_group_name_H-M   'P 21/c'
_symmetry_Int_Tables_number      14
_space_group_name_Hall           '-P 2ybc'
loop_
_symmetry_equiv_pos_site_id
_symmetry_equiv_pos_as_xyz
1 x,y,z
2 -x,1/2+y,1/2-z
3 -x,-y,-z
4 x,1/2-y,1/2+z
_cell_length_a                   5.99000(10)
_cell_length_b                   11.8529(2)
_cell_length_c                   18.4737(3)
_cell_angle_alpha                90
_cell_angle_beta                 91.7780(10)
_cell_angle_gamma                90
_cell_volume                     1310.98
loop_
_atom_site_label
_atom_site_type_symbol
_atom_site_fract_x
_atom_site_fract_y
_atom_site_fract_z
Pb1 Pb 0.06200(5) 0.80676(3) 0.303842(18)
Pb2 Pb 0.55452(5) 1.03175(2) 0.274731(18)
O1 O 0.3541(9) 0.9266(5) 0.3789(3)
O2 O 0.3892(9) 0.6746(5) 0.3379(4)
O3 O 0.0928(10) 0.6826(5) 0.4068(4)
O4 O 0.7213(10) 0.9102(5) 0.3742(3)
C1 C 0.5436(13) 0.7355(7) 0.6138(5)
C2 C 0.5453(14) 0.8489(6) 0.4809(5)
C3 C 0.3524(13) 0.7937(6) 0.5872(5)
H1 H 0.2240 0.7939 0.6142
C4 C 0.3522(13) 0.8504(7) 0.5216(5)
H2 H 0.2256 0.8890 0.5049
C5 C 0.7317(13) 0.7385(7) 0.5731(5)
H3 H 0.8601 0.7021 0.5904
C6 C 0.5390(13) 0.8979(6) 0.4063(4)
C7 C 0.7360(13) 0.7938(7) 0.5077(5)
H4 H 0.8660 0.7944 0.4814
O5 O 0.7114(9) 0.6137(5) 0.7009(4)
O6 O 0.3527(11) 0.6448(6) 0.7080(4)
C8 C 0.5354(15) 0.6614(7) 0.6791(5)
C9 C 0.2855(14) 0.5387(6) 0.5111(5)
H5 H 0.1419 0.5653 0.5184
C10 C 0.2880(13) 0.6461(6) 0.3939(5)
C11 C 0.6133(14) 0.5318(6) 0.4382(5)
H6 H 0.6893 0.5533 0.3973
C12 C 0.3971(13) 0.5706(6) 0.4485(5)
Cl1 Cl -0.0398(3) 0.5962(2) 0.23077(13)
Pb1_2 Pb -0.93800(5) 0.80676(3) 0.303842(18)
Pb1_3 Pb 1.06200(5) 0.80676(3) 0.303842(18)
Pb1C Pb 0.06200(5) 0.69324(3) 0.803842(18)
Pb1B Pb 0.93800(5) 0.19324(3) 0.696158(18)
Pb1C_2 Pb -0.93800(5) 0.69324(3) 0.803842(18)
Pb1A Pb 0.93800(5) 1.30676(3) 0.196158(18)
Pb2_2 Pb -0.44548(5) 1.03175(2) 0.274731(18)
Pb2A Pb 0.44548(5) 0.53175(2) 0.225269(18)
Pb2C Pb 0.55452(5) 0.46825(2) 0.774731(18)
Pb2C_2 Pb -0.44548(5) 0.46825(2) 0.774731(18)
O1_2 O -0.6459(9) 0.9266(5) 0.3789(3)
O2B O 0.6108(9) 0.3254(5) 0.6621(4)
O2A O 0.6108(9) 1.1746(5) 0.1621(4)
O2_2 O -0.6108(9) 0.6746(5) 0.3379(4)
O2A_2 O -0.3892(9) 1.1746(5) 0.1621(4)
O3B O 0.9072(10) 0.3174(5) 0.5932(4)
O3_2 O -0.9072(10) 0.6826(5) 0.4068(4)
O4_2 O -0.2787(10) 0.9102(5) 0.3742(3)
O4_3 O -1.2787(10) 0.9102(5) 0.3742(3)
C1_2 C -0.4564(13) 0.7355(7) 0.6138(5)
C2_2 C -0.4547(14) 0.8489(6) 0.4809(5)
C3_2 C -0.6476(13) 0.7937(6) 0.5872(5)
H1_2 H -0.7760 0.7939 0.6142
C4_2 C -0.6478(13) 0.8504(7) 0.5216(5)
H2_2 H -0.7744 0.8890 0.5049
C5_2 C -0.2683(13) 0.7385(7) 0.5731(5)
H3_2 H -0.1399 0.7021 0.5904
C6_2 C -0.4610(13) 0.8979(6) 0.4063(4)
C7_2 C -0.2640(13) 0.7938(7) 0.5077(5)
H4_2 H -0.1340 0.7944 0.4814
O5_2 O -0.2886(9) 0.6137(5) 0.7009(4)
O5C O 0.7114(9) 0.8863(5) 0.2009(4)
O5C_2 O -0.2886(9) 0.8863(5) 0.2009(4)
O6_2 O -0.6473(11) 0.6448(6) 0.7080(4)
O6C O 0.3527(11) 0.8552(6) 0.2080(4)
O6C_2 O -0.6473(11) 0.8552(6) 0.2080(4)
C8_2 C -0.4646(15) 0.6614(7) 0.6791(5)
C9B C 0.7145(14) 0.4613(6) 0.4889(5)
H5B H 0.8581 0.4347 0.4816
C10B C 0.7120(13) 0.3539(6) 0.6061(5)
C11B C 0.3867(14) 0.4682(6) 0.5618(5)
H6B H 0.3107 0.4467 0.6027
C12B C 0.6029(13) 0.4294(6) 0.5515(5)
Cl1A Cl 1.0398(3) 1.0962(2) 0.26923(13)
Cl1_2 Cl -1.0398(3) 0.5962(2) 0.23077(13)
Cl1A_2 Cl 0.0398(3) 1.0962(2) 0.26923(13)
loop_
_geom_bond_atom_site_label_1
_geom_bond_atom_site_label_2
_geom_bond_site_symmetry_1
_geom_bond_site_symmetry_2
Pb1 O1 1_555 1_555
Pb2 O1 1_555 1_555
O1 C6 1_555 1_555
O2 Pb1 1_555 1_555
O3 Pb1 1_555 1_555
O4 Pb2 1_555 1_555
C1 C3 1_555 1_555
C2 C4 1_555 1_555
C3 H1 1_555 1_555
C4 C3 1_555 1_555
H2 C4 1_555 1_555
C5 C1 1_555 1_555
H3 C5 1_555 1_555
C6 O4 1_555 1_555
C7 C2 1_555 1_555
H4 C7 1_555 1_555
O5 C8 1_555 1_555
O6 C8 1_555 1_555
C8 C1 1_555 1_555
C9 H5 1_555 1_555
C10 O2 1_555 1_555
C11 H6 1_555 1_555
C12 C9 1_555 1_555
Cl1 Pb1 1_555 1_555
Pb1_2 O1_2 1_555 1_555
Pb1_3 O4 1_555 1_555
Pb1C O6 1_555 1_555
Pb1B O2B 1_555 1_555
Pb1C_2 O6_2 1_555 1_555
Pb1A O2A 1_555 1_555
Pb2_2 O1_2 1_555 1_555
Pb2A O2 1_555 1_555
Pb2C O5 1_555 1_555
Pb2C_2 O5_2 1_555 1_555
O1_2 C6_2 1_555 1_555
O2B Pb2C 1_555 1_555
O2A Pb2 1_555 1_555
O2_2 Pb1_2 1_555 1_555
O2A_2 Pb2_2 1_555 1_555
O3B Pb1B 1_555 1_555
O3_2 Pb1_2 1_555 1_555
O4_2 Pb1 1_555 1_555
O4_3 Pb1_2 1_555 1_555
C1_2 C3_2 1_555 1_555
C2_2 C4_2 1_555 1_555
C3_2 H1_2 1_555 1_555
C4_2 C3_2 1_555 1_555
H2_2 C4_2 1_555 1_555
C5_2 C1_2 1_555 1_555
H3_2 C5_2 1_555 1_555
C6_2 O4_2 1_555 1_555
C7_2 C2_2 1_555 1_555
H4_2 C7_2 1_555 1_555
O5_2 C8_2 1_555 1_555
O5C Pb2 1_555 1_555
O5C_2 Pb2_2 1_555 1_555
O6_2 Pb2C_2 1_555 1_555
O6C Pb1 1_555 1_555
O6C_2 Pb1_2 1_555 1_555
C8_2 C1_2 1_555 1_555
C9B C11 1_555 1_555
H5B C9B 1_555 1_555
C10B O2B 1_555 1_555
C11B C9 1_555 1_555
H6B C11B 1_555 1_555
C12B C9B 1_555 1_555
Cl1A Pb2 1_555 1_555
Cl1_2 Pb1_2 1_555 1_555
Cl1A_2 Pb2_2 1_555 1_555
Pb2 O6C 1_555 1_555
O3 C10 1_555 1_555
C2 C6 1_555 1_555
C5 C7 1_555 1_555
O6 Pb2C 1_555 1_555
C10 C12 1_555 1_555
C11 C12 1_555 1_555
Cl1 Pb2A 1_555 1_555
Pb1A Cl1A 1_555 1_555
Pb2_2 O4_2 1_555 1_555
Pb2_2 O6C_2 1_555 1_555
O3B C10B 1_555 1_555
C2_2 C6_2 1_555 1_555
C5_2 C7_2 1_555 1_555
O6_2 C8_2 1_555 1_555
C10B C12B 1_555 1_555
C11B C12B 1_555 1_555

#END
