
#######################################################################
#
#                 Cambridge Crystallographic Data Centre
#                                CCDC 
#
#######################################################################
#
# If this CIF has been generated from an entry in the Cambridge 
# Structural Database, then it will include bibliographic, chemical, 
# crystal, experimental, refinement or atomic coordinate data resulting 
# from the CCDC's data processing and validation procedures.
#
#######################################################################

data_EROYUF
_symmetry_cell_setting           triclinic
_symmetry_space_group_name_H-M   'P -1'
_symmetry_Int_Tables_number      2
_space_group_name_Hall           '-P 1'
loop_
_symmetry_equiv_pos_site_id
_symmetry_equiv_pos_as_xyz
1 x,y,z
2 -x,-y,-z
_cell_length_a                   8.0084(7)
_cell_length_b                   11.5685(10)
_cell_length_c                   13.1368(10)
_cell_angle_alpha                86.515(5)
_cell_angle_beta                 77.686(10)
_cell_angle_gamma                89.912(9)
_cell_volume                     1186.78
loop_
_atom_site_label
_atom_site_type_symbol
_atom_site_fract_x
_atom_site_fract_y
_atom_site_fract_z
Cu1 Cu 0.05064(8) 0.38845(6) 0.49945(5)
Cu2 Cu 0.45652(9) -0.02904(7) 0.91269(5)
N1 N 0.1353(5) 0.1992(4) 0.4800(4)
N2 N 0.3914(6) -0.0864(5) 0.7663(4)
O1 O 0.0934(6) 0.4202(4) 0.6378(3)
O2 O 0.0108(7) 0.6041(4) 0.6384(4)
O3 O 0.2729(5) 0.4587(4) 0.4342(4)
O4 O 0.1900(5) 0.6429(4) 0.4351(4)
O5 O 0.6722(6) -0.1162(5) 0.8930(3)
O6 O 0.7457(6) -0.0672(5) 1.0366(4)
O7 O 0.3410(6) -0.1610(5) 1.0027(4)
O8 O 0.4082(6) -0.1099(5) 1.1505(3)
C1 C 0.1259(7) 0.1605(5) 0.3874(4)
H1 H 0.0855 0.2109 0.3405
C2 C 0.1720(8) 0.0511(5) 0.3570(4)
H2 H 0.1609 0.0284 0.2920
C3 C 0.2345(7) -0.0237(6) 0.4241(5)
H3 H 0.2695 -0.0973 0.4043
C4 C 0.2456(6) 0.0114(5) 0.5238(4)
C5 C 0.3121(6) -0.0643(5) 0.5984(4)
C6 C 0.3657(8) -0.1782(5) 0.5800(5)
H4 H 0.3566 -0.2110 0.5185
C7 C 0.4315(8) -0.2401(6) 0.6539(5)
H5 H 0.4700 -0.3150 0.6422
C8 C 0.4408(8) -0.1920(5) 0.7452(5)
H6 H 0.4844 -0.2364 0.7947
C9 C 0.3248(7) -0.0204(5) 0.6947(4)
C10 C 0.2706(8) 0.0926(6) 0.7162(5)
H7 H 0.2778 0.1204 0.7801
C11 C 0.2085(8) 0.1621(5) 0.6475(5)
H8 H 0.1734 0.2363 0.6652
C12 C 0.1951(6) 0.1244(5) 0.5471(4)
C13 C 0.0954(9) 0.5219(7) 0.7879(5)
H9 H 0.1365 0.4490 0.8110
H10 H -0.0099 0.5400 0.8342
H11 H 0.1788 0.5815 0.7878
C14 C 0.0653(7) 0.5143(6) 0.6788(5)
C15 C 0.4777(8) 0.6036(7) 0.3625(6)
H12 H 0.5498 0.5372 0.3506
H13 H 0.5212 0.6538 0.4065
H14 H 0.4760 0.6446 0.2969
C16 C 0.2998(7) 0.5648(6) 0.4145(5)
C17 C 0.9414(10) -0.1774(9) 0.9232(7)
H15 H 0.9468 -0.2130 0.8584
H16 H 0.9508 -0.2358 0.9768
H17 H 1.0335 -0.1224 0.9153
C18 C 0.7717(8) -0.1158(6) 0.9534(5)
C19 C 0.2161(12) -0.2651(9) 1.1606(7)
H18 H 0.2196 -0.2655 1.2332
H19 H 0.2532 -0.3387 1.1344
H20 H 0.1013 -0.2514 1.1524
C20 C 0.3332(9) -0.1703(7) 1.1002(6)
O2A O -0.0108(7) 0.3959(4) 0.3616(4)
O4A O -0.1900(5) 0.3571(4) 0.5649(4)
O6A O 0.2543(6) 0.0672(5) 0.9634(4)
O8A O 0.5918(6) 0.1099(5) 0.8495(3)
Cu1A Cu -0.05064(8) 0.61155(6) 0.50055(5)
Cu2A Cu 0.54348(9) 0.02904(7) 1.08731(5)
loop_
_geom_bond_atom_site_label_1
_geom_bond_atom_site_label_2
_geom_bond_site_symmetry_1
_geom_bond_site_symmetry_2
Cu1 N1 1_555 1_555
Cu2 N2 1_555 1_555
N1 C1 1_555 1_555
N2 C8 1_555 1_555
O1 Cu1 1_555 1_555
O2 C14 1_555 1_555
O3 Cu1 1_555 1_555
O4 C16 1_555 1_555
O5 Cu2 1_555 1_555
O6 C18 1_555 1_555
O7 Cu2 1_555 1_555
O8 C20 1_555 1_555
C1 H1 1_555 1_555
C2 C1 1_555 1_555
H2 C2 1_555 1_555
C3 C2 1_555 1_555
H3 C3 1_555 1_555
C4 C3 1_555 1_555
C5 C4 1_555 1_555
C6 C5 1_555 1_555
H4 C6 1_555 1_555
C7 C6 1_555 1_555
H5 C7 1_555 1_555
C8 C7 1_555 1_555
H6 C8 1_555 1_555
C9 N2 1_555 1_555
C10 C9 1_555 1_555
H7 C10 1_555 1_555
C11 C10 1_555 1_555
H8 C11 1_555 1_555
C12 N1 1_555 1_555
C13 H9 1_555 1_555
H10 C13 1_555 1_555
H11 C13 1_555 1_555
C14 O1 1_555 1_555
C15 H12 1_555 1_555
H13 C15 1_555 1_555
H14 C15 1_555 1_555
C16 O3 1_555 1_555
C17 H15 1_555 1_555
H16 C17 1_555 1_555
H17 C17 1_555 1_555
C18 O5 1_555 1_555
C19 H18 1_555 1_555
H19 C19 1_555 1_555
H20 C19 1_555 1_555
C20 O7 1_555 1_555
O2A Cu1 1_555 1_555
O4A Cu1 1_555 1_555
O6A Cu2 1_555 1_555
O8A Cu2 1_555 1_555
Cu1A O2 1_555 1_555
Cu2A O6 1_555 1_555
O4 Cu1A 1_555 1_555
O8 Cu2A 1_555 1_555
C4 C12 1_555 1_555
C5 C9 1_555 1_555
C11 C12 1_555 1_555
C13 C14 1_555 1_555
C15 C16 1_555 1_555
C17 C18 1_555 1_555
C19 C20 1_555 1_555

#END
