
#######################################################################
#
#                 Cambridge Crystallographic Data Centre
#                                CCDC 
#
#######################################################################
#
# If this CIF has been generated from an entry in the Cambridge 
# Structural Database, then it will include bibliographic, chemical, 
# crystal, experimental, refinement or atomic coordinate data resulting 
# from the CCDC's data processing and validation procedures.
#
#######################################################################

data_ERUGON
_symmetry_cell_setting           orthorhombic
_symmetry_space_group_name_H-M   'C c c b'
_symmetry_Int_Tables_number      68
_space_group_name_Hall           '-C 2a 2c'
loop_
_symmetry_equiv_pos_site_id
_symmetry_equiv_pos_as_xyz
1 x,y,z
2 1/2+x,1/2+y,z
3 x,1/2+y,-z
4 -x,y,1/2+z
5 x,1/2-y,1/2+z
6 1/2+x,y,-z
7 1/2-x,1/2+y,1/2+z
8 1/2+x,-y,1/2+z
9 -x,-y,-z
10 1/2-x,1/2-y,-z
11 -x,1/2-y,z
12 x,-y,1/2-z
13 -x,1/2+y,1/2-z
14 1/2-x,-y,z
15 1/2+x,1/2-y,1/2-z
16 1/2-x,y,1/2-z
_cell_length_a                   26.808(6)
_cell_length_b                   47.570(6)
_cell_length_c                   10.818(2)
_cell_angle_alpha                90
_cell_angle_beta                 90
_cell_angle_gamma                90
_cell_volume                     13795.7
loop_
_atom_site_label
_atom_site_type_symbol
_atom_site_fract_x
_atom_site_fract_y
_atom_site_fract_z
Cu2 Cu 0.0000 0.0000 0.0000
P2 P 0.07824(14) 0.04870(8) 0.0038(10)
O6 O 0.0429(3) 0.03251(18) 0.0005(18)
O7 O 0.0785(8) 0.0484(4) 0.179(3)
O9 O 0.0804(3) 0.07931(18) 0.0019(15)
O10 O 0.1308(3) 0.03818(17) 0.0018(15)
O11 O -0.0019(6) -0.0170(4) -0.241(3)
N2 N 0.0600(2) -0.02345(11) -0.0030(9)
C14 C 0.0698(2) -0.03536(11) -0.1177(9)
H24 H 0.0485 -0.0320 -0.1838
C15 C 0.1116(2) -0.05230(11) -0.1337(9)
H25 H 0.1181 -0.0603 -0.2105
C16 C 0.1435(2) -0.05733(11) -0.0349(9)
H26 H 0.1714 -0.0687 -0.0456
C17 C 0.1337(2) -0.04542(11) 0.0799(9)
H27 H 0.1550 -0.0488 0.1460
C18 C 0.0919(2) -0.02848(11) 0.0958(9)
H28 H 0.0853 -0.0205 0.1726
C19 C 0.0467(6) 0.1032(3) 0.013(3)
C20 C 0.0570(7) 0.1212(4) -0.095(2)
H29 H 0.0911 0.1274 -0.0930
H30 H 0.0353 0.1373 -0.0937
H31 H 0.0513 0.1107 -0.1698
C21 C -0.0077(5) 0.0925(3) 0.008(3)
H32 H -0.0139 0.0804 0.0770
H33 H -0.0129 0.0823 -0.0677
H34 H -0.0302 0.1082 0.0106
C22 C 0.0581(7) 0.1171(4) 0.140(2)
H35 H 0.0513 0.1039 0.2048
H36 H 0.0375 0.1334 0.1503
H37 H 0.0926 0.1225 0.1429
C23 C 0.1788(5) 0.0441(4) -0.001(4)
C24 C 0.1882(7) 0.0721(4) 0.009(4)
H38 H 0.1731 0.0793 0.0828
H39 H 0.1744 0.0817 -0.0617
H40 H 0.2236 0.0752 0.0116
C25 C 0.1992(12) 0.0276(7) -0.105(4)
H41 H 0.1917 0.0081 -0.0926
H42 H 0.2347 0.0301 -0.1086
H43 H 0.1844 0.0339 -0.1806
C26 C 0.2021(13) 0.0310(7) 0.097(4)
H44 H 0.1916 0.0117 0.1008
H45 H 0.1934 0.0404 0.1724
H46 H 0.2376 0.0318 0.0854
O11K O -0.0019(6) 0.0170(4) -0.259(3)
P2H P -0.07824(14) -0.04870(8) -0.0038(10)
O6H O -0.0429(3) -0.03251(18) -0.0005(18)
O7H O -0.0785(8) -0.0484(4) -0.179(3)
O9H O -0.0804(3) -0.07931(18) -0.0019(15)
O10H O -0.1308(3) -0.03818(17) -0.0018(15)
C19H C -0.0467(6) -0.1032(3) -0.013(3)
C20H C -0.0570(7) -0.1212(4) 0.095(2)
H29H H -0.0911 -0.1274 0.0930
H30H H -0.0353 -0.1373 0.0937
H31H H -0.0513 -0.1107 0.1698
C21H C 0.0077(5) -0.0925(3) -0.008(3)
H32H H 0.0139 -0.0804 -0.0770
H33H H 0.0129 -0.0823 0.0677
H34H H 0.0302 -0.1082 -0.0106
C22H C -0.0581(7) -0.1171(4) -0.140(2)
H35H H -0.0513 -0.1039 -0.2048
H36H H -0.0375 -0.1334 -0.1503
H37H H -0.0926 -0.1225 -0.1429
C23H C -0.1788(5) -0.0441(4) 0.001(4)
C24H C -0.1882(7) -0.0721(4) -0.009(4)
H38H H -0.1731 -0.0793 -0.0828
H39H H -0.1744 -0.0817 0.0617
H40H H -0.2236 -0.0752 -0.0116
C25H C -0.1992(12) -0.0276(7) 0.105(4)
H41H H -0.1917 -0.0081 0.0926
H42H H -0.2347 -0.0301 0.1086
H43H H -0.1844 -0.0339 0.1806
C26H C -0.2021(13) -0.0310(7) -0.097(4)
H44H H -0.1916 -0.0117 -0.1008
H45H H -0.1934 -0.0404 -0.1724
H46H H -0.2376 -0.0318 -0.0854
N2H N -0.0600(2) 0.02345(11) 0.0030(9)
C14H C -0.0698(2) 0.03536(11) 0.1177(9)
H24H H -0.0485 0.0320 0.1838
C15H C -0.1116(2) 0.05230(11) 0.1337(9)
H25H H -0.1181 0.0603 0.2105
C16H C -0.1435(2) 0.05733(11) 0.0349(9)
H26H H -0.1714 0.0687 0.0456
C17H C -0.1337(2) 0.04542(11) -0.0799(9)
H27H H -0.1550 0.0488 -0.1460
C18H C -0.0919(2) 0.02848(11) -0.0958(9)
H28H H -0.0853 0.0205 -0.1726
O11H O 0.0019(6) 0.0170(4) 0.241(3)
Cu2C Cu 0.0000 0.0000 -0.5000
Cu1 Cu 0.2500 0.2500 0.0000
P1 P 0.17175(8) 0.29859(5) 0.0215(2)
N1 N 0.1895(3) 0.22676(14) 0.0351(8)
O1 O 0.2095(2) 0.28238(12) -0.0465(6)
O2 O 0.1750(2) 0.29788(14) 0.1605(6)
O3 O 0.11891(19) 0.28778(11) -0.0224(6)
O4 O 0.1707(2) 0.32995(11) -0.0255(6)
O5 O 0.2500 0.26771(16) 0.2500
C1 C 0.1570(4) 0.2212(2) -0.0545(10)
H1 H 0.1607 0.2297 -0.1313
C2 C 0.1174(4) 0.2027(2) -0.0351(11)
H2 H 0.0969 0.1975 -0.1006
C3 C 0.1091(4) 0.1924(2) 0.0778(11)
H3 H 0.0814 0.1812 0.0926
C4 C 0.1412(3) 0.1985(2) 0.1712(10)
H4 H 0.1362 0.1912 0.2498
C5 C 0.1815(3) 0.21595(18) 0.1467(10)
H5 H 0.2036 0.2202 0.2103
C6 C 0.0704(3) 0.2927(2) 0.0280(10)
C7 C 0.0624(4) 0.2706(3) 0.1259(12)
H6 H 0.0665 0.2523 0.0900
H7 H 0.0293 0.2723 0.1588
H8 H 0.0863 0.2731 0.1910
C8 C 0.0368(4) 0.2869(4) -0.0791(14)
H9 H 0.0426 0.2682 -0.1086
H10 H 0.0437 0.3001 -0.1441
H11 H 0.0027 0.2888 -0.0535
C9 C 0.0652(4) 0.3215(3) 0.0821(15)
H12 H 0.0875 0.3235 0.1510
H13 H 0.0314 0.3243 0.1095
H14 H 0.0732 0.3353 0.0205
C10 C 0.2031(4) 0.35228(18) 0.0036(11)
C11 C 0.2558(5) 0.3429(2) 0.0193(13)
H15 H 0.2576 0.3292 0.0845
H16 H 0.2763 0.3588 0.0399
H17 H 0.2674 0.3346 -0.0563
C12 C 0.1859(5) 0.3666(3) 0.1183(14)
H18 H 0.1874 0.3537 0.1864
H19 H 0.1522 0.3730 0.1075
H20 H 0.2071 0.3825 0.1349
C13 C 0.2014(2) 0.37290(11) -0.0933(9)
H21 H 0.1678 0.3794 -0.1037
H22 H 0.2129 0.3646 -0.1691
H23 H 0.2225 0.3885 -0.0720
N1I N 0.3105(3) 0.27324(14) -0.0351(8)
C1I C 0.3430(4) 0.2788(2) 0.0545(10)
H1I H 0.3393 0.2703 0.1313
C2I C 0.3826(4) 0.2973(2) 0.0351(11)
H2I H 0.4031 0.3025 0.1006
C3I C 0.3909(4) 0.3076(2) -0.0778(11)
H3I H 0.4186 0.3188 -0.0926
C4I C 0.3588(3) 0.3015(2) -0.1712(10)
H4I H 0.3638 0.3088 -0.2498
C5I C 0.3185(3) 0.28405(18) -0.1467(10)
H5I H 0.2964 0.2798 -0.2103
P1I P 0.32825(8) 0.20141(5) -0.0215(2)
O1I O 0.2905(2) 0.21762(12) 0.0465(6)
O2I O 0.3250(2) 0.20212(14) -0.1605(6)
O3I O 0.38109(19) 0.21222(11) 0.0224(6)
O4I O 0.3293(2) 0.17005(11) 0.0255(6)
C6I C 0.4296(3) 0.2073(2) -0.0280(10)
C7I C 0.4376(4) 0.2294(3) -0.1259(12)
H6I H 0.4335 0.2477 -0.0900
H7I H 0.4707 0.2277 -0.1588
H8I H 0.4137 0.2269 -0.1910
C8I C 0.4632(4) 0.2131(4) 0.0791(14)
H9I H 0.4574 0.2318 0.1086
H10I H 0.4563 0.1999 0.1441
H11I H 0.4973 0.2112 0.0535
C9I C 0.4348(4) 0.1785(3) -0.0821(15)
H12I H 0.4125 0.1765 -0.1510
H13I H 0.4686 0.1757 -0.1095
H14I H 0.4268 0.1647 -0.0205
C10I C 0.2969(4) 0.14772(18) -0.0036(11)
C11I C 0.2442(5) 0.1571(2) -0.0193(13)
H15I H 0.2424 0.1708 -0.0845
H16I H 0.2237 0.1412 -0.0399
H17I H 0.2326 0.1654 0.0563
C12I C 0.3141(5) 0.1334(3) -0.1183(14)
H18I H 0.3126 0.1463 -0.1864
H19I H 0.3478 0.1270 -0.1075
H20I H 0.2929 0.1175 -0.1349
C13I C 0.2986(2) 0.12710(11) 0.0933(9)
H21I H 0.3322 0.1206 0.1037
H22I H 0.2871 0.1354 0.1691
H23I H 0.2775 0.1115 0.0720
O5D O 0.2500 0.23229(16) -0.2500
Cu1D Cu 0.2500 0.2500 0.5000
O8? O 0.0780(8) 0.0480(5) -0.170(3)
loop_
_geom_bond_atom_site_label_1
_geom_bond_atom_site_label_2
_geom_bond_site_symmetry_1
_geom_bond_site_symmetry_2
Cu1 N1 1_555 1_555
Cu2 O6 1_555 1_555
P1 O1 1_555 1_555
P2 O6 1_555 1_555
N1 C1 1_555 1_555
O1 Cu1 1_555 1_555
O2 P1 1_555 1_555
O3 P1 1_555 1_555
O4 P1 1_555 1_555
O5 Cu1 1_555 1_555
O7 P2 1_555 1_555
O9 P2 1_555 1_555
O10 P2 1_555 1_555
O11 Cu2 1_555 1_555
C1 H1 1_555 1_555
C2 C1 1_555 1_555
H2 C2 1_555 1_555
C3 C2 1_555 1_555
H3 C3 1_555 1_555
C4 C3 1_555 1_555
H4 C4 1_555 1_555
C5 N1 1_555 1_555
H5 C5 1_555 1_555
C6 O3 1_555 1_555
C7 C6 1_555 1_555
H6 C7 1_555 1_555
H7 C7 1_555 1_555
H8 C7 1_555 1_555
C8 C6 1_555 1_555
H9 C8 1_555 1_555
H10 C8 1_555 1_555
H11 C8 1_555 1_555
C9 C6 1_555 1_555
H12 C9 1_555 1_555
H13 C9 1_555 1_555
H14 C9 1_555 1_555
C10 O4 1_555 1_555
C11 C10 1_555 1_555
H15 C11 1_555 1_555
H16 C11 1_555 1_555
H17 C11 1_555 1_555
C12 C10 1_555 1_555
H18 C12 1_555 1_555
H19 C12 1_555 1_555
H20 C12 1_555 1_555
C13 C10 1_555 1_555
H21 C13 1_555 1_555
H22 C13 1_555 1_555
H23 C13 1_555 1_555
N2 Cu2 1_555 1_555
C14 N2 1_555 1_555
H24 C14 1_555 1_555
C15 C14 1_555 1_555
H25 C15 1_555 1_555
C16 C15 1_555 1_555
H26 C16 1_555 1_555
C17 C16 1_555 1_555
H27 C17 1_555 1_555
C18 N2 1_555 1_555
H28 C18 1_555 1_555
C19 O9 1_555 1_555
C20 C19 1_555 1_555
H29 C20 1_555 1_555
H30 C20 1_555 1_555
H31 C20 1_555 1_555
C21 C19 1_555 1_555
H32 C21 1_555 1_555
H33 C21 1_555 1_555
H34 C21 1_555 1_555
C22 C19 1_555 1_555
H35 C22 1_555 1_555
H36 C22 1_555 1_555
H37 C22 1_555 1_555
C23 O10 1_555 1_555
C24 C23 1_555 1_555
H38 C24 1_555 1_555
H39 C24 1_555 1_555
H40 C24 1_555 1_555
C25 C23 1_555 1_555
H41 C25 1_555 1_555
H42 C25 1_555 1_555
H43 C25 1_555 1_555
C26 C23 1_555 1_555
H44 C26 1_555 1_555
H45 C26 1_555 1_555
H46 C26 1_555 1_555
O11K O11 1_555 1_555
N1I Cu1 1_555 1_555
C1I N1I 1_555 1_555
H1I C1I 1_555 1_555
C2I C1I 1_555 1_555
H2I C2I 1_555 1_555
C3I C2I 1_555 1_555
H3I C3I 1_555 1_555
C4I C3I 1_555 1_555
H4I C4I 1_555 1_555
C5I N1I 1_555 1_555
H5I C5I 1_555 1_555
P1I O1I 1_555 1_555
O1I Cu1 1_555 1_555
O2I P1I 1_555 1_555
O3I P1I 1_555 1_555
O4I P1I 1_555 1_555
C6I O3I 1_555 1_555
C7I C6I 1_555 1_555
H6I C7I 1_555 1_555
H7I C7I 1_555 1_555
H8I C7I 1_555 1_555
C8I C6I 1_555 1_555
H9I C8I 1_555 1_555
H10I C8I 1_555 1_555
H11I C8I 1_555 1_555
C9I C6I 1_555 1_555
H12I C9I 1_555 1_555
H13I C9I 1_555 1_555
H14I C9I 1_555 1_555
C10I O4I 1_555 1_555
C11I C10I 1_555 1_555
H15I C11I 1_555 1_555
H16I C11I 1_555 1_555
H17I C11I 1_555 1_555
C12I C10I 1_555 1_555
H18I C12I 1_555 1_555
H19I C12I 1_555 1_555
H20I C12I 1_555 1_555
C13I C10I 1_555 1_555
H21I C13I 1_555 1_555
H22I C13I 1_555 1_555
H23I C13I 1_555 1_555
P2H O6H 1_555 1_555
O6H Cu2 1_555 1_555
O7H P2H 1_555 1_555
O9H P2H 1_555 1_555
O10H P2H 1_555 1_555
C19H O9H 1_555 1_555
C20H C19H 1_555 1_555
H29H C20H 1_555 1_555
H30H C20H 1_555 1_555
H31H C20H 1_555 1_555
C21H C19H 1_555 1_555
H32H C21H 1_555 1_555
H33H C21H 1_555 1_555
H34H C21H 1_555 1_555
C22H C19H 1_555 1_555
H35H C22H 1_555 1_555
H36H C22H 1_555 1_555
H37H C22H 1_555 1_555
C23H O10H 1_555 1_555
C24H C23H 1_555 1_555
H38H C24H 1_555 1_555
H39H C24H 1_555 1_555
H40H C24H 1_555 1_555
C25H C23H 1_555 1_555
H41H C25H 1_555 1_555
H42H C25H 1_555 1_555
H43H C25H 1_555 1_555
C26H C23H 1_555 1_555
H44H C26H 1_555 1_555
H45H C26H 1_555 1_555
H46H C26H 1_555 1_555
N2H Cu2 1_555 1_555
C14H N2H 1_555 1_555
H24H C14H 1_555 1_555
C15H C14H 1_555 1_555
H25H C15H 1_555 1_555
C16H C15H 1_555 1_555
H26H C16H 1_555 1_555
C17H C16H 1_555 1_555
H27H C17H 1_555 1_555
C18H N2H 1_555 1_555
H28H C18H 1_555 1_555
O5D Cu1 1_555 1_555
O11H Cu2 1_555 1_555
Cu1D O5 1_555 1_555
Cu2C O11K 1_555 1_555
C4 C5 1_555 1_555
C17 C18 1_555 1_555
C4I C5I 1_555 1_555
C17H C18H 1_555 1_555

#END
