
#######################################################################
#
#                 Cambridge Crystallographic Data Centre
#                                CCDC 
#
#######################################################################
#
# If this CIF has been generated from an entry in the Cambridge 
# Structural Database, then it will include bibliographic, chemical, 
# crystal, experimental, refinement or atomic coordinate data resulting 
# from the CCDC's data processing and validation procedures.
#
#######################################################################

data_ERUGED
_symmetry_cell_setting           monoclinic
_symmetry_space_group_name_H-M   'P 21/c'
_symmetry_Int_Tables_number      14
_space_group_name_Hall           '-P 2ybc'
loop_
_symmetry_equiv_pos_site_id
_symmetry_equiv_pos_as_xyz
1 x,y,z
2 x,1/2-y,1/2+z
3 -x,-y,-z
4 -x,1/2+y,1/2-z
_cell_length_a                   8.120(3)
_cell_length_b                   9.829(4)
_cell_length_c                   17.453(6)
_cell_angle_alpha                90
_cell_angle_beta                 103.307(6)
_cell_angle_gamma                90
_cell_volume                     1355.55
loop_
_atom_site_label
_atom_site_type_symbol
_atom_site_fract_x
_atom_site_fract_y
_atom_site_fract_z
Co1 Co 0.0000 0.5000 0.5000
S1 S 0.19367(18) 0.73374(14) 0.29973(7)
N1 N 0.0681(3) 0.2898(3) 0.48266(16)
N2 N 0.4627(4) -0.0564(3) 0.60501(19)
N3 N 0.5510(4) -0.0688(3) 0.68463(19)
N4 N 0.7386(3) 0.0456(3) 0.92835(17)
N5 N 0.0647(4) 0.5609(3) 0.39682(17)
O1 O 0.3563(3) 0.0902(2) 0.67561(14)
C1 C 0.1645(4) 0.2221(3) 0.5428(2)
H1 H 0.1856 0.2618 0.5925
C2 C 0.2348(4) 0.0963(4) 0.5353(2)
C3 C 0.1982(4) 0.0336(4) 0.4617(2)
H2 H 0.2427 -0.0515 0.4548
C4 C 0.0948(4) 0.1003(4) 0.3997(2)
H3 H 0.0665 0.0604 0.3501
C5 C 0.0340(4) 0.2269(4) 0.4122(2)
H4 H -0.0345 0.2716 0.3696
C6 C 0.3506(4) 0.0367(3) 0.6026(2)
C7 C 0.4846(4) 0.0187(4) 0.7231(2)
C8 C 0.6878(4) 0.0191(3) 0.8510(2)
H5 H 0.7638 -0.0230 0.8260
C9 C 0.5281(4) 0.0511(3) 0.8063(2)
C10 C 0.4149(5) 0.1150(4) 0.8426(2)
H6 H 0.3068 0.1380 0.8144
C11 C 0.4669(5) 0.1434(4) 0.9217(2)
H7 H 0.3940 0.1867 0.9478
C12 C 0.6262(5) 0.1079(4) 0.9616(2)
H8 H 0.6584 0.1281 1.0150
C13 C 0.1157(4) 0.6321(4) 0.3549(2)
N1B N -0.0681(3) 0.7102(3) 0.51734(16)
N2B N -0.4627(4) 1.0564(3) 0.39499(19)
N3B N -0.5510(4) 1.0688(3) 0.31537(19)
N4B N -0.7386(3) 0.9544(3) 0.07165(17)
O1B O -0.3563(3) 0.9098(2) 0.32439(14)
C1B C -0.1645(4) 0.7779(3) 0.4572(2)
H1B H -0.1856 0.7382 0.4075
C2B C -0.2348(4) 0.9037(4) 0.4647(2)
C3B C -0.1982(4) 0.9664(4) 0.5383(2)
H2B H -0.2427 1.0515 0.5452
C4B C -0.0948(4) 0.8997(4) 0.6003(2)
H3B H -0.0665 0.9396 0.6499
C5B C -0.0340(4) 0.7731(4) 0.5878(2)
H4B H 0.0345 0.7284 0.6304
C6B C -0.3506(4) 0.9633(3) 0.3974(2)
C7B C -0.4846(4) 0.9813(4) 0.2769(2)
C8B C -0.6878(4) 0.9809(3) 0.1490(2)
H5B H -0.7638 1.0230 0.1740
C9B C -0.5281(4) 0.9489(3) 0.1937(2)
C10B C -0.4149(5) 0.8850(4) 0.1574(2)
H6B H -0.3068 0.8620 0.1856
C11B C -0.4669(5) 0.8566(4) 0.0783(2)
H7B H -0.3940 0.8133 0.0522
C12B C -0.6262(5) 0.8921(4) 0.0384(2)
H8B H -0.6584 0.8719 -0.0150
S1B S -0.19367(18) 0.26626(14) 0.70027(7)
N5B N -0.0647(4) 0.4391(3) 0.60318(17)
C13B C -0.1157(4) 0.3679(4) 0.6451(2)
N4A N -0.2614(3) 0.4544(3) 0.42835(17)
N4C N 0.2614(3) 0.5456(3) 0.57165(17)
Co1A Co 1.0000 0.0000 1.0000
Co1A_2 Co -1.0000 1.0000 0.0000
loop_
_geom_bond_atom_site_label_1
_geom_bond_atom_site_label_2
_geom_bond_site_symmetry_1
_geom_bond_site_symmetry_2
Co1 N1 1_555 1_555
S1 C13 1_555 1_555
N1 C1 1_555 1_555
N2 N3 1_555 1_555
N3 C7 1_555 1_555
N4 C8 1_555 1_555
N5 Co1 1_555 1_555
O1 C6 1_555 1_555
C1 H1 1_555 1_555
C2 C1 1_555 1_555
C3 C2 1_555 1_555
H2 C3 1_555 1_555
C4 C3 1_555 1_555
H3 C4 1_555 1_555
C5 N1 1_555 1_555
H4 C5 1_555 1_555
C6 N2 1_555 1_555
C7 O1 1_555 1_555
C8 H5 1_555 1_555
C9 C7 1_555 1_555
C10 C9 1_555 1_555
H6 C10 1_555 1_555
C11 C10 1_555 1_555
H7 C11 1_555 1_555
C12 N4 1_555 1_555
H8 C12 1_555 1_555
C13 N5 1_555 1_555
N1B Co1 1_555 1_555
N2B N3B 1_555 1_555
N3B C7B 1_555 1_555
N4B C8B 1_555 1_555
O1B C6B 1_555 1_555
C1B N1B 1_555 1_555
H1B C1B 1_555 1_555
C2B C1B 1_555 1_555
C3B C2B 1_555 1_555
H2B C3B 1_555 1_555
C4B C3B 1_555 1_555
H3B C4B 1_555 1_555
C5B N1B 1_555 1_555
H4B C5B 1_555 1_555
C6B N2B 1_555 1_555
C7B O1B 1_555 1_555
C8B H5B 1_555 1_555
C9B C7B 1_555 1_555
C10B C9B 1_555 1_555
H6B C10B 1_555 1_555
C11B C10B 1_555 1_555
H7B C11B 1_555 1_555
C12B N4B 1_555 1_555
H8B C12B 1_555 1_555
S1B C13B 1_555 1_555
N5B Co1 1_555 1_555
C13B N5B 1_555 1_555
N4A Co1 1_555 1_555
N4C Co1 1_555 1_555
Co1A N4 1_555 1_555
Co1A_2 N4B 1_555 1_555
C2 C6 1_555 1_555
C4 C5 1_555 1_555
C8 C9 1_555 1_555
C11 C12 1_555 1_555
C2B C6B 1_555 1_555
C4B C5B 1_555 1_555
C8B C9B 1_555 1_555
C11B C12B 1_555 1_555

#END
