
#######################################################################
#
#                 Cambridge Crystallographic Data Centre
#                                CCDC 
#
#######################################################################
#
# If this CIF has been generated from an entry in the Cambridge 
# Structural Database, then it will include bibliographic, chemical, 
# crystal, experimental, refinement or atomic coordinate data resulting 
# from the CCDC's data processing and validation procedures.
#
#######################################################################

data_ERUGAZ
_symmetry_cell_setting           orthorhombic
_symmetry_space_group_name_H-M   'P n n a'
_symmetry_Int_Tables_number      52
_space_group_name_Hall           '-P 2a 2bc'
loop_
_symmetry_equiv_pos_site_id
_symmetry_equiv_pos_as_xyz
1 x,y,z
2 1/2+x,y,-z
3 1/2+x,1/2-y,1/2+z
4 -x,1/2+y,1/2+z
5 -x,-y,-z
6 1/2-x,-y,z
7 1/2-x,1/2+y,1/2-z
8 x,1/2-y,1/2-z
_cell_length_a                   22.210(5)
_cell_length_b                   12.899(3)
_cell_length_c                   20.232(4)
_cell_angle_alpha                90
_cell_angle_beta                 90
_cell_angle_gamma                90
_cell_volume                     5796.2
loop_
_atom_site_label
_atom_site_type_symbol
_atom_site_fract_x
_atom_site_fract_y
_atom_site_fract_z
Co1 Co 0.62517(3) 0.2500 0.2500
N1 N 0.69588(14) 0.2134(3) 0.17837(16)
S1 S 0.8595(10) 0.236(3) -0.0186(12)
C1 C 0.84559(19) 0.1645(3) 0.0520(2)
C2 C 0.92467(19) 0.1685(3) -0.0268(2)
N2 N 0.8875(8) 0.0982(18) 0.0648(10)
N3 N 0.9331(8) 0.1003(18) 0.0195(10)
N6 N 1.05589(14) 0.2199(3) -0.17651(16)
N7 N 0.6292(15) 0.4043(12) 0.221(2)
C5 C 0.6379(9) 0.4800(11) 0.1949(9)
S3 S 0.6579(7) 0.5884(9) 0.1613(5)
C7 C 0.69883(19) 0.2561(4) 0.1198(2)
H1 H 0.6670 0.2982 0.1067
C8 C 0.7458(2) 0.2431(4) 0.0763(2)
H2 H 0.7456 0.2764 0.0356
C9 C 0.79264(19) 0.1802(3) 0.0940(2)
C10 C 0.79017(19) 0.1334(4) 0.1554(2)
H3 H 0.8213 0.0907 0.1697
C11 C 0.74135(18) 0.1506(4) 0.1949(2)
H4 H 0.7396 0.1169 0.2355
C12 C 1.0122(2) 0.2866(4) -0.1653(2)
H5 H 1.0109 0.3460 -0.1913
C13 C 0.9685(2) 0.2747(4) -0.1180(3)
H6 H 0.9385 0.3243 -0.1126
C14 C 0.96997(19) 0.1874(4) -0.0785(2)
C15 C 1.0156(2) 0.1171(4) -0.0894(2)
H7 H 1.0187 0.0576 -0.0636
C16 C 1.05631(19) 0.1361(4) -0.1388(2)
H8 H 1.0862 0.0869 -0.1463
N1G N 0.69588(14) 0.2866(3) 0.32163(16)
S1G S 0.8595(10) 0.264(3) 0.5186(12)
C1G C 0.84559(19) 0.3355(3) 0.4480(2)
C2G C 0.92467(19) 0.3315(3) 0.5268(2)
N2G N 0.8875(8) 0.4018(18) 0.4352(10)
N3G N 0.9331(8) 0.3997(18) 0.4805(10)
N6G N 1.05589(14) 0.2801(3) 0.67651(16)
C7G C 0.69883(19) 0.2439(4) 0.3802(2)
H1G H 0.6670 0.2018 0.3933
C8G C 0.7458(2) 0.2569(4) 0.4237(2)
H2G H 0.7456 0.2236 0.4644
C9G C 0.79264(19) 0.3198(3) 0.4060(2)
C10G C 0.79017(19) 0.3666(4) 0.3446(2)
H3G H 0.8213 0.4093 0.3303
C11G C 0.74135(18) 0.3494(4) 0.3051(2)
H4G H 0.7396 0.3831 0.2645
C12G C 1.0122(2) 0.2134(4) 0.6653(2)
H5G H 1.0109 0.1540 0.6913
C13G C 0.9685(2) 0.2253(4) 0.6180(3)
H6G H 0.9385 0.1757 0.6126
C14G C 0.96997(19) 0.3126(4) 0.5785(2)
C15G C 1.0156(2) 0.3829(4) 0.5894(2)
H7G H 1.0187 0.4424 0.5636
C16G C 1.05631(19) 0.3639(4) 0.6388(2)
H8G H 1.0862 0.4131 0.6463
N7G N 0.6292(15) 0.0957(12) 0.279(2)
C5G C 0.6379(9) 0.0200(11) 0.3051(9)
S3G S 0.6579(7) -0.0884(9) 0.3387(5)
N6A N 0.55589(14) 0.2199(3) 0.17651(16)
N6B N 0.55589(14) 0.2801(3) 0.32349(16)
Co1A Co 1.12517(3) 0.2500 -0.2500
Co1A_2 Co 1.12517(3) 0.2500 0.7500
O1 O 0.4981(8) 0.6889(19) 0.0964(8)
O2 O 0.7500 0.5000 1.008(2)
O3 O 0.460(2) 0.475(4) -0.046(2)
O4 O 0.090(3) 0.967(4) 0.212(3)
O5 O 0.7500 0.0000 0.960(2)
O7 O -0.028(3) 1.146(3) 0.1992(17)
N4? N 0.8787(13) 0.0826(18) 0.0541(15)
N5? N 0.9247(12) 0.0847(18) 0.0084(16)
S2? S 0.8678(17) 0.252(2) -0.007(2)
C3? C 0.84559(19) 0.1645(3) 0.0520(2)
C4? C 0.92467(19) 0.1685(3) -0.0268(2)
N8? N 0.6228(15) 0.4049(12) 0.2212(17)
C6? C 0.6265(14) 0.4886(12) 0.2060(15)
S4? S 0.6302(10) 0.6070(7) 0.1805(9)
O6? O 0.442(3) 0.776(4) 0.096(2)
loop_
_geom_bond_atom_site_label_1
_geom_bond_atom_site_label_2
_geom_bond_site_symmetry_1
_geom_bond_site_symmetry_2
Co1 N1 1_555 1_555
N1 C7 1_555 1_555
S1 C1 1_555 1_555
C1 N2 1_555 1_555
C2 S1 1_555 1_555
N2 N3 1_555 1_555
N3 C2 1_555 1_555
N6 C12 1_555 1_555
N7 Co1 1_555 1_555
C5 N7 1_555 1_555
S3 C5 1_555 1_555
C7 H1 1_555 1_555
C8 C7 1_555 1_555
H2 C8 1_555 1_555
C9 C1 1_555 1_555
C10 C9 1_555 1_555
H3 C10 1_555 1_555
C11 N1 1_555 1_555
H4 C11 1_555 1_555
C12 H5 1_555 1_555
C13 C12 1_555 1_555
H6 C13 1_555 1_555
C14 C2 1_555 1_555
C15 C14 1_555 1_555
H7 C15 1_555 1_555
C16 N6 1_555 1_555
H8 C16 1_555 1_555
N1G Co1 1_555 1_555
S1G C1G 1_555 1_555
C1G N2G 1_555 1_555
C2G S1G 1_555 1_555
N2G N3G 1_555 1_555
N3G C2G 1_555 1_555
N6G C12G 1_555 1_555
C7G N1G 1_555 1_555
H1G C7G 1_555 1_555
C8G C7G 1_555 1_555
H2G C8G 1_555 1_555
C9G C1G 1_555 1_555
C10G C9G 1_555 1_555
H3G C10G 1_555 1_555
C11G N1G 1_555 1_555
H4G C11G 1_555 1_555
C12G H5G 1_555 1_555
C13G C12G 1_555 1_555
H6G C13G 1_555 1_555
C14G C2G 1_555 1_555
C15G C14G 1_555 1_555
H7G C15G 1_555 1_555
C16G N6G 1_555 1_555
H8G C16G 1_555 1_555
N7G Co1 1_555 1_555
C5G N7G 1_555 1_555
S3G C5G 1_555 1_555
N6A Co1 1_555 1_555
N6B Co1 1_555 1_555
Co1A N6 1_555 1_555
Co1A_2 N6G 1_555 1_555
C8 C9 1_555 1_555
C10 C11 1_555 1_555
C13 C14 1_555 1_555
C15 C16 1_555 1_555
C8G C9G 1_555 1_555
C10G C11G 1_555 1_555
C13G C14G 1_555 1_555
C15G C16G 1_555 1_555

#END
