
#######################################################################
#
#                 Cambridge Crystallographic Data Centre
#                                CCDC 
#
#######################################################################
#
# If this CIF has been generated from an entry in the Cambridge 
# Structural Database, then it will include bibliographic, chemical, 
# crystal, experimental, refinement or atomic coordinate data resulting 
# from the CCDC's data processing and validation procedures.
#
#######################################################################

data_ERUNUA
_symmetry_cell_setting           monoclinic
_symmetry_space_group_name_H-M   'P 21'
_symmetry_Int_Tables_number      4
_space_group_name_Hall           'P 2yb'
loop_
_symmetry_equiv_pos_site_id
_symmetry_equiv_pos_as_xyz
1 x,y,z
2 -x,1/2+y,-z
_cell_length_a                   7.3850(15)
_cell_length_b                   6.5100(13)
_cell_length_c                   10.546(2)
_cell_angle_alpha                90
_cell_angle_beta                 90.36(3)
_cell_angle_gamma                90
_cell_volume                     507.003
loop_
_atom_site_label
_atom_site_type_symbol
_atom_site_fract_x
_atom_site_fract_y
_atom_site_fract_z
Fe1 Fe 0.12525(5) 0.14520(12) 0.16885(3)
Fe2 Fe 0.49618(11) 0.38831(10) -0.00227(8)
S1 S -0.12346(7) 0.1491(2) -0.10652(5)
O1 O 0.3925(2) 0.1417(7) 0.09803(14)
O2 O -0.1504(2) 0.1572(6) 0.23116(16)
O3 O 0.3721(2) 0.3178(3) 0.81924(15)
O4 O 0.3820(3) -0.0233(4) 0.8279(2)
O5 O 0.0335(2) 0.1532(6) -0.02316(15)
O6 O -0.1229(3) -0.0322(3) -0.19312(18)
O7 O -0.1211(3) 0.3315(3) -0.1823(2)
O8 O -0.2959(2) 0.1348(6) -0.03154(15)
N1 N 0.2124(3) 0.1539(7) 0.37204(17)
C1 C 0.3552(3) 0.1523(8) 0.77034(19)
C2 C 0.2999(3) 0.1475(11) 0.6301(2)
C3 C 0.3562(4) -0.0212(5) 0.5525(3)
C4 C 0.3101(4) -0.0131(6) 0.4254(3)
C5 C 0.1543(4) 0.2882(5) 0.4485(3)
C6 C 0.1966(5) 0.2983(6) 0.5776(3)
O6A O 0.1229(3) 0.4678(3) 0.19312(18)
O7A O 0.1211(3) -0.1685(3) 0.1823(2)
O1A O 0.6075(2) 0.6417(7) -0.09803(14)
O3_2 O 0.3721(2) 0.3178(3) -0.18076(15)
O4A O 0.6180(3) 0.4767(4) 0.1721(2)
O8_2 O 0.7041(2) 0.1348(6) -0.03154(15)
O8A O 0.2959(2) 0.6348(6) 0.03154(15)
Fe2A Fe 0.50382(11) -0.11169(10) 0.00227(8)
Fe2_2 Fe 0.49618(11) 0.38831(10) 0.99773(8)
Fe2A_2 Fe 0.50382(11) -0.11169(10) 1.00227(8)
Fe1A Fe -0.12525(5) -0.35480(12) -0.16885(3)
Fe1A_2 Fe -0.12525(5) 0.64520(12) -0.16885(3)
Fe2_3 Fe -0.50382(11) 0.38831(10) -0.00227(8)
Fe2A_3 Fe -0.49618(11) -0.11169(10) 0.00227(8)
loop_
_geom_bond_atom_site_label_1
_geom_bond_atom_site_label_2
_geom_bond_site_symmetry_1
_geom_bond_site_symmetry_2
Fe1 O1 1_555 1_555
Fe2 O1 1_555 1_555
S1 O5 1_555 1_555
O1 Fe2A 1_555 1_555
O2 Fe1 1_555 1_555
O3 C1 1_555 1_555
O4 C1 1_555 1_555
O5 Fe1 1_555 1_555
O6 S1 1_555 1_555
O7 S1 1_555 1_555
O8 S1 1_555 1_555
N1 Fe1 1_555 1_555
C1 C2 1_555 1_555
C2 C3 1_555 1_555
C3 C4 1_555 1_555
C4 N1 1_555 1_555
C5 N1 1_555 1_555
C6 C2 1_555 1_555
O6A Fe1 1_555 1_555
O7A Fe1 1_555 1_555
O1A Fe2 1_555 1_555
O3_2 Fe2 1_555 1_555
O4A Fe2 1_555 1_555
O8_2 Fe2 1_555 1_555
O8A Fe2 1_555 1_555
Fe2A O8_2 1_555 1_555
Fe2_2 O3 1_555 1_555
Fe2A_2 O4 1_555 1_555
Fe1A O6 1_555 1_555
Fe1A_2 O7 1_555 1_555
Fe2_3 O8 1_555 1_555
Fe2A_3 O8 1_555 1_555
C5 C6 1_555 1_555

#END
