
#######################################################################
#
#                 Cambridge Crystallographic Data Centre
#                                CCDC 
#
#######################################################################
#
# If this CIF has been generated from an entry in the Cambridge 
# Structural Database, then it will include bibliographic, chemical, 
# crystal, experimental, refinement or atomic coordinate data resulting 
# from the CCDC's data processing and validation procedures.
#
#######################################################################

data_ERUPEM
_symmetry_cell_setting           triclinic
_symmetry_space_group_name_H-M   'P -1'
_symmetry_Int_Tables_number      2
_space_group_name_Hall           '-P 1'
loop_
_symmetry_equiv_pos_site_id
_symmetry_equiv_pos_as_xyz
1 x,y,z
2 -x,-y,-z
_cell_length_a                   6.4403(3)
_cell_length_b                   9.4500(4)
_cell_length_c                   9.6380(5)
_cell_angle_alpha                88.535(2)
_cell_angle_beta                 74.757(2)
_cell_angle_gamma                76.6470(10)
_cell_volume                     550.255
loop_
_atom_site_label
_atom_site_type_symbol
_atom_site_fract_x
_atom_site_fract_y
_atom_site_fract_z
La1 La 0.3490(1) 0.9404(1) 0.2212(1)
O1 O 0.3404(5) 1.1282(4) 0.0116(4)
O2 O 0.0449(5) 1.1616(4) 0.1956(3)
O3 O -0.1328(6) 1.1495(3) -0.0604(4)
O4 O -0.3522(6) 1.3228(4) -0.1463(4)
O5 O 0.6103(7) 0.7543(4) 0.3357(4)
O6 O 0.5890(7) 0.5252(4) 0.3031(5)
O7 O 1.0349(6) 0.8680(4) 0.3846(4)
O8 O 0.7337(6) 0.8929(4) 0.5662(4)
O9 O 0.6630(7) 1.0547(6) 0.2257(5)
C1 C 0.1527(7) 1.2030(5) 0.0815(5)
C2 C 0.0708(7) 1.3547(5) 0.0338(5)
C3 C 0.1649(8) 1.4622(5) 0.0699(5)
C4 C -0.0961(7) 1.3928(5) -0.0385(5)
C5 C -0.1994(8) 1.2818(5) -0.0835(5)
C6 C 0.6688(8) 0.6232(5) 0.3522(5)
C7 C 0.8379(8) 0.5625(5) 0.4308(5)
C8 C 0.8957(8) 0.4107(5) 0.4442(5)
C9 C 0.9436(8) 0.6528(5) 0.4865(5)
C10 C 0.8981(7) 0.8182(5) 0.4768(5)
C4A C 0.0961(7) 1.6072(5) 0.0385(5)
C2A C -0.0708(7) 1.6453(5) -0.0338(5)
C1A C -0.1527(7) 1.7970(5) -0.0815(5)
O1A O -0.3404(5) 1.8718(4) -0.0116(4)
O2A O -0.0449(5) 1.8384(4) -0.1956(3)
C3A C -0.1649(8) 1.5378(5) -0.0699(5)
C5A C 0.1994(8) 1.7182(5) 0.0835(5)
O3A O 0.1328(6) 1.8505(3) 0.0604(4)
O4A O 0.3522(6) 1.6772(4) 0.1463(4)
C9A C 1.0564(8) 0.3472(5) 0.5135(5)
C7A C 1.1621(8) 0.4375(5) 0.5692(5)
C6A C 1.3312(8) 0.3768(5) 0.6478(5)
O5A O 1.3897(7) 0.2457(4) 0.6643(4)
O6A O 1.4110(7) 0.4748(4) 0.6969(5)
C8A C 1.1043(8) 0.5893(5) 0.5558(5)
C10A C 1.1019(7) 0.1818(5) 0.5232(5)
O7A O 0.9651(6) 0.1320(4) 0.6154(4)
O8A O 1.2663(6) 0.1071(4) 0.4338(4)
La1A La -0.3490(1) 2.0596(1) -0.2212(1)
O9A O -0.6630(7) 1.9453(6) -0.2257(5)
O1A_2 O 0.6596(5) 0.8718(4) -0.0116(4)
O3A_2 O 0.1328(6) 0.8505(3) 0.0604(4)
O4A_2 O 0.3522(6) 0.6772(4) 0.1463(4)
O7_2 O 0.0349(6) 0.8680(4) 0.3846(4)
O8A_2 O 0.2663(6) 1.1071(4) 0.4338(4)
La1A_2 La 0.6510(1) 1.0596(1) -0.2212(1)
La1A_3 La -0.3490(1) 1.0596(1) -0.2212(1)
La1_2 La 1.3490(1) 0.9404(1) 0.2212(1)
La1A_4 La 0.6510(1) 1.0596(1) 0.7788(1)
La1_3 La -0.6510(1) 1.9404(1) 0.2212(1)
La1_4 La 0.3490(1) 1.9404(1) 0.2212(1)
La1A_5 La 1.6510(1) 0.0596(1) 0.7788(1)
La1A_6 La 0.6510(1) 0.0596(1) 0.7788(1)
La1_5 La 1.3490(1) -0.0596(1) 0.2212(1)
O1_2 O -0.6596(5) 2.1282(4) 0.0116(4)
O3_2 O -0.1328(6) 2.1495(3) -0.0604(4)
O4_2 O -0.3522(6) 2.3228(4) -0.1463(4)
O5A_2 O -0.6103(7) 2.2457(4) -0.3357(4)
O7A_2 O -0.0349(6) 2.1320(4) -0.3846(4)
O8_2 O -0.2663(6) 1.8929(4) -0.4338(4)
loop_
_geom_bond_atom_site_label_1
_geom_bond_atom_site_label_2
_geom_bond_site_symmetry_1
_geom_bond_site_symmetry_2
La1 O1 1_555 1_555
O1 C1 1_555 1_555
O2 La1 1_555 1_555
O3 C5 1_555 1_555
O4 C5 1_555 1_555
O5 La1 1_555 1_555
O6 C6 1_555 1_555
O7 C10 1_555 1_555
O8 C10 1_555 1_555
O9 La1 1_555 1_555
C1 O2 1_555 1_555
C2 C1 1_555 1_555
C3 C2 1_555 1_555
C4 C2 1_555 1_555
C5 C4 1_555 1_555
C6 O5 1_555 1_555
C7 C6 1_555 1_555
C8 C7 1_555 1_555
C9 C7 1_555 1_555
C10 C9 1_555 1_555
C4A C3 1_555 1_555
C2A C4A 1_555 1_555
C1A C2A 1_555 1_555
O1A C1A 1_555 1_555
O2A C1A 1_555 1_555
C3A C4 1_555 1_555
C5A C4A 1_555 1_555
O3A C5A 1_555 1_555
O4A C5A 1_555 1_555
C9A C8 1_555 1_555
C7A C9A 1_555 1_555
C6A C7A 1_555 1_555
O5A C6A 1_555 1_555
O6A C6A 1_555 1_555
C8A C9 1_555 1_555
C10A C9A 1_555 1_555
O7A C10A 1_555 1_555
O8A C10A 1_555 1_555
La1A O1A 1_555 1_555
O9A La1A 1_555 1_555
O1A_2 La1 1_555 1_555
O3A_2 La1 1_555 1_555
O4A_2 La1 1_555 1_555
O7_2 La1 1_555 1_555
O8A_2 La1 1_555 1_555
La1A_2 O1 1_555 1_555
La1A_3 O3 1_555 1_555
La1_2 O7 1_555 1_555
La1A_4 O8 1_555 1_555
La1_3 O1A 1_555 1_555
La1_4 O3A 1_555 1_555
La1A_5 O5A 1_555 1_555
La1A_6 O7A 1_555 1_555
La1_5 O8A 1_555 1_555
O1_2 La1A 1_555 1_555
O3_2 La1A 1_555 1_555
O4_2 La1A 1_555 1_555
O5A_2 La1A 1_555 1_555
O7A_2 La1A 1_555 1_555
O8_2 La1A 1_555 1_555
O4 La1A_3 1_555 1_555
C2A C3A 1_555 1_555
O2A La1A 1_555 1_555
O4A La1_4 1_555 1_555
C7A C8A 1_555 1_555
O1A_2 La1A_2 1_555 1_555
La1_3 O1_2 1_555 1_555

#END
