
#######################################################################
#
#                 Cambridge Crystallographic Data Centre
#                                CCDC 
#
#######################################################################
#
# If this CIF has been generated from an entry in the Cambridge 
# Structural Database, then it will include bibliographic, chemical, 
# crystal, experimental, refinement or atomic coordinate data resulting 
# from the CCDC's data processing and validation procedures.
#
#######################################################################

data_ERUPEM01
_symmetry_cell_setting           triclinic
_symmetry_space_group_name_H-M   'P -1'
_symmetry_Int_Tables_number      2
_space_group_name_Hall           '-P 1'
loop_
_symmetry_equiv_pos_site_id
_symmetry_equiv_pos_as_xyz
1 x,y,z
2 -x,-y,-z
_cell_length_a                   6.4410(10)
_cell_length_b                   9.4467(3)
_cell_length_c                   9.63230(10)
_cell_angle_alpha                88.518(2)
_cell_angle_beta                 74.744(2)
_cell_angle_gamma                76.660(2)
_cell_volume                     549.799
loop_
_atom_site_label
_atom_site_type_symbol
_atom_site_fract_x
_atom_site_fract_y
_atom_site_fract_z
La1 La 0.34895(4) 0.94035(3) 0.72119(3)
O1 O 0.5887(8) 0.5249(5) 0.8024(5)
H1 H 0.504(12) 0.571(8) 0.763(7)
O2 O 0.6630(10) 1.0520(8) 0.7279(7)
H2 H 0.765(13) 1.074(8) 0.672(8)
H3 H 0.611(12) 1.129(8) 0.717(8)
O3 O 0.6096(7) 0.7535(4) 0.8356(5)
O4 O 0.7329(6) 0.8935(4) 1.0664(4)
O5 O 1.0337(7) 0.8687(4) 0.8843(5)
O6 O 0.3410(6) 1.1289(4) 0.5119(4)
O7 O 0.0455(6) 1.1610(4) 0.6952(4)
O8 O -0.1317(6) 1.1497(4) 0.4387(4)
O9 O -0.3527(6) 1.3227(4) 0.3535(4)
C1 C 0.8378(9) 0.5622(6) 0.9301(6)
C2 C 0.9446(8) 0.6525(5) 0.9860(5)
C3 C 0.1655(8) 1.4606(5) 0.5706(5)
H4 H 0.2767 1.4344 0.6178
C4 C 0.0701(8) 1.3552(5) 0.5332(5)
C5 C 0.1531(8) 1.2036(5) 0.5812(5)
C6 C 0.8976(9) 0.4114(6) 0.9437(6)
H5 H 0.8291 0.3523 0.9041
C7 C 0.6690(9) 0.6235(6) 0.8517(6)
C8 C 0.8969(8) 0.8185(6) 0.9775(5)
C9 C -0.0960(8) 1.3933(5) 0.4621(6)
C10 C -0.1987(8) 1.2816(5) 0.4158(5)
C6A C 1.1024(9) 0.5886(6) 1.0563(6)
C1A C 1.1622(9) 0.4378(6) 1.0699(6)
C2A C 1.0554(8) 0.3475(5) 1.0140(5)
C8A C 1.1031(8) 0.1815(6) 1.0225(5)
O4A O 1.2671(6) 0.1065(4) 0.9336(4)
O5A O 0.9663(7) 0.1313(4) 1.1157(5)
C7A C 1.3310(9) 0.3765(6) 1.1483(6)
O1A O 1.4113(8) 0.4751(5) 1.1976(5)
H1A H 1.496(12) 0.429(8) 1.237(7)
O3A O 1.3904(7) 0.2465(4) 1.1644(5)
H5A H 1.1709 0.6477 1.0959
C9A C 0.0960(8) 1.6067(5) 0.5379(6)
C4A C -0.0701(8) 1.6448(5) 0.4668(5)
C3A C -0.1655(8) 1.5394(5) 0.4294(5)
H4A H -0.2767 1.5656 0.3822
C5A C -0.1531(8) 1.7964(5) 0.4188(5)
O6A O -0.3410(6) 1.8711(4) 0.4881(4)
O7A O -0.0455(6) 1.8390(4) 0.3048(4)
C10A C 0.1987(8) 1.7184(5) 0.5842(5)
O8A O 0.1317(6) 1.8503(4) 0.5613(4)
O9A O 0.3527(6) 1.6773(4) 0.6465(4)
La1A La 1.65105(4) 0.05965(3) 1.27881(3)
O2A O 1.3370(10) -0.0520(8) 1.2721(7)
H2A H 1.235(13) -0.074(8) 1.328(8)
H3A H 1.389(12) -0.129(8) 1.283(8)
O4A_2 O 0.2671(6) 1.1065(4) 0.9336(4)
O5_2 O 0.0337(7) 0.8687(4) 0.8843(5)
O6A_2 O 0.6590(6) 0.8711(4) 0.4881(4)
O8A_2 O 0.1317(6) 0.8503(4) 0.5613(4)
O9A_2 O 0.3527(6) 0.6773(4) 0.6465(4)
La1A_2 La 0.65105(4) 1.05965(3) 1.27881(3)
La1_2 La 1.34895(4) 0.94035(3) 0.72119(3)
La1A_3 La 0.65105(4) 1.05965(3) 0.27881(3)
La1A_4 La -0.34895(4) 1.05965(3) 0.27881(3)
La1_3 La 1.34895(4) -0.05965(3) 0.72119(3)
La1A_5 La 0.65105(4) 0.05965(3) 1.27881(3)
La1_4 La -0.65105(4) 1.94035(3) 0.72119(3)
La1A_6 La -0.34895(4) 2.05965(3) 0.27881(3)
La1_5 La 0.34895(4) 1.94035(3) 0.72119(3)
O4_2 O 1.7329(6) -0.1065(4) 1.0664(4)
O5A_2 O 1.9663(7) 0.1313(4) 1.1157(5)
O6_2 O 1.3410(6) 0.1289(4) 1.5119(4)
O6A_3 O 1.6590(6) -0.1289(4) 1.4881(4)
O7A_2 O 1.9545(6) -0.1610(4) 1.3048(4)
O8_2 O 1.8683(6) 0.1497(4) 1.4387(4)
O9_2 O 1.6473(6) 0.3227(4) 1.3535(4)
loop_
_geom_bond_atom_site_label_1
_geom_bond_atom_site_label_2
_geom_bond_site_symmetry_1
_geom_bond_site_symmetry_2
La1 O2 1_555 1_555
O1 H1 1_555 1_555
O2 H2 1_555 1_555
H3 O2 1_555 1_555
O3 La1 1_555 1_555
O4 C8 1_555 1_555
O5 C8 1_555 1_555
O6 La1 1_555 1_555
O7 La1 1_555 1_555
O8 C10 1_555 1_555
O9 C10 1_555 1_555
C1 C2 1_555 1_555
C2 C8 1_555 1_555
C3 H4 1_555 1_555
C4 C3 1_555 1_555
C5 O6 1_555 1_555
C6 C1 1_555 1_555
H5 C6 1_555 1_555
C7 O1 1_555 1_555
C9 C4 1_555 1_555
C10 C9 1_555 1_555
C6A C2 1_555 1_555
C1A C6A 1_555 1_555
C2A C6 1_555 1_555
C8A C2A 1_555 1_555
O4A C8A 1_555 1_555
O5A C8A 1_555 1_555
C7A C1A 1_555 1_555
O1A C7A 1_555 1_555
H1A O1A 1_555 1_555
O3A C7A 1_555 1_555
H5A C6A 1_555 1_555
C9A C3 1_555 1_555
C4A C9A 1_555 1_555
C3A C9 1_555 1_555
H4A C3A 1_555 1_555
C5A C4A 1_555 1_555
O6A C5A 1_555 1_555
O7A C5A 1_555 1_555
C10A C9A 1_555 1_555
O8A C10A 1_555 1_555
O9A C10A 1_555 1_555
La1A O3A 1_555 1_555
O2A La1A 1_555 1_555
H2A O2A 1_555 1_555
H3A O2A 1_555 1_555
O4A_2 La1 1_555 1_555
O5_2 La1 1_555 1_555
O6A_2 La1 1_555 1_555
O8A_2 La1 1_555 1_555
O9A_2 La1 1_555 1_555
La1A_2 O4 1_555 1_555
La1_2 O5 1_555 1_555
La1A_3 O6 1_555 1_555
La1A_4 O8 1_555 1_555
La1_3 O4A 1_555 1_555
La1A_5 O5A 1_555 1_555
La1_4 O6A 1_555 1_555
La1A_6 O6A 1_555 1_555
La1_5 O8A 1_555 1_555
O4_2 La1A 1_555 1_555
O5A_2 La1A 1_555 1_555
O6_2 La1A 1_555 1_555
O6A_3 La1A 1_555 1_555
O7A_2 La1A 1_555 1_555
O8_2 La1A 1_555 1_555
O9_2 La1A 1_555 1_555
O3 C7 1_555 1_555
O7 C5 1_555 1_555
O9 La1A_4 1_555 1_555
C1 C7 1_555 1_555
C4 C5 1_555 1_555
C1A C2A 1_555 1_555
C4A C3A 1_555 1_555
O7A La1A_6 1_555 1_555
O9A La1_5 1_555 1_555
O6A_2 La1A_3 1_555 1_555

#END
