
#######################################################################
#
#                 Cambridge Crystallographic Data Centre
#                                CCDC 
#
#######################################################################
#
# If this CIF has been generated from an entry in the Cambridge 
# Structural Database, then it will include bibliographic, chemical, 
# crystal, experimental, refinement or atomic coordinate data resulting 
# from the CCDC's data processing and validation procedures.
#
#######################################################################

data_ESAFEJ
_symmetry_cell_setting           monoclinic
_symmetry_space_group_name_H-M   'P 21/n'
_symmetry_Int_Tables_number      14
_space_group_name_Hall           '-P 2yn'
loop_
_symmetry_equiv_pos_site_id
_symmetry_equiv_pos_as_xyz
1 x,y,z
2 1/2-x,1/2+y,1/2-z
3 -x,-y,-z
4 1/2+x,1/2-y,1/2+z
_cell_length_a                   11.815(2)
_cell_length_b                   12.797(2)
_cell_length_c                   16.748(2)
_cell_angle_alpha                90
_cell_angle_beta                 110.31(1)
_cell_angle_gamma                90
_cell_volume                     2374.81
loop_
_atom_site_label
_atom_site_type_symbol
_atom_site_fract_x
_atom_site_fract_y
_atom_site_fract_z
Cu1 Cu 0.14884(3) 0.11359(3) 0.12623(2)
S1 S 0.32516(7) 0.22481(6) 0.03254(5)
S2 S 0.00569(7) 0.13197(6) 0.25868(5)
O1 O 0.2458(2) 0.3061(2) -0.0148(2)
O2 O 0.4162(2) 0.2563(2) 0.1097(2)
O3 O 0.2088(2) -0.0434(2) 0.0077(2)
O4 O 0.1118(2) 0.1566(2) 0.3305(1)
O5 O -0.0690(2) 0.2180(2) 0.2180(2)
O6 O 0.0132(2) -0.1039(2) 0.1362(1)
O7 O 0.1472(2) 0.2889(1) 0.1598(1)
O8 O 0.0027(2) 0.1257(2) 0.0231(1)
N1 N 0.2476(2) 0.1264(2) 0.0491(1)
N2 N 0.0422(2) 0.0618(2) 0.1893(1)
N3 N 0.2053(2) 0.5823(2) 0.2717(1)
N4 N -0.0272(3) 0.3402(2) 0.0605(2)
C1 C 0.3859(3) 0.1558(2) -0.0341(2)
C2 C 0.4685(3) 0.1878(3) -0.0711(3)
C3 C 0.4982(4) 0.1167(4) -0.1226(3)
C4 C 0.4482(4) 0.0184(4) -0.1362(2)
C5 C 0.3674(3) -0.0143(3) -0.0976(2)
C6 C 0.3377(2) 0.0568(2) -0.0457(2)
C7 C 0.2576(2) 0.0403(2) 0.0050(2)
C8 C -0.0792(3) 0.0337(3) 0.2849(2)
C9 C -0.1421(4) 0.0371(5) 0.3406(3)
C10 C -0.2011(4) -0.0538(5) 0.3484(3)
C11 C -0.1979(4) -0.1416(4) 0.3030(3)
C12 C -0.1356(3) -0.1439(3) 0.2464(2)
C13 C -0.0760(2) -0.0539(2) 0.2387(2)
C14 C -0.0038(2) -0.0360(2) 0.1826(2)
C15 C 0.1826(2) 0.4861(2) 0.2383(2)
C16 C 0.0857(2) 0.4652(2) 0.1645(2)
C17 C 0.0107(3) 0.5476(2) 0.1253(2)
C18 C 0.0345(3) 0.6462(2) 0.1598(2)
C19 C 0.1329(3) 0.6614(2) 0.2330(2)
C20 C 0.0697(2) 0.3569(2) 0.1283(2)
H1 H 0.512(3) 0.255(3) -0.052(2)
H2 H 0.576(4) 0.138(4) -0.141(3)
H3 H 0.474(4) -0.030(4) -0.167(3)
H4 H 0.331(3) -0.080(3) -0.103(2)
H5 H -0.143(6) 0.091(5) 0.369(4)
H6 H -0.255(5) -0.053(4) 0.382(3)
H7 H -0.240(4) -0.200(3) 0.304(2)
H8 H -0.135(3) -0.203(2) 0.213(2)
H9 H 0.240(2) 0.430(2) 0.268(2)
H10 H -0.052(3) 0.537(2) 0.078(2)
H11 H -0.014(3) 0.703(3) 0.132(2)
H12 H 0.156(3) 0.730(3) 0.258(2)
H13 H -0.073(3) 0.377(3) 0.043(2)
H14 H -0.042(3) 0.275(3) 0.039(2)
H15 H 0.007(3) 0.115(3) -0.024(2)
H16 H -0.054(3) 0.099(3) 0.021(2)
N3A N 0.2947(2) 0.0823(2) 0.2283(1)
Cu1A Cu 0.35116(3) 0.61359(3) 0.37377(2)
O9 O 0.2635(3) 0.0254(3) 0.4655(2)
H17 H 0.204(5) 0.057(4) 0.421(3)
H18 H 0.239(4) -0.024(3) 0.462(3)
loop_
_geom_bond_atom_site_label_1
_geom_bond_atom_site_label_2
_geom_bond_site_symmetry_1
_geom_bond_site_symmetry_2
Cu1 O7 1_555 1_555
S1 O1 1_555 1_555
S2 O4 1_555 1_555
O2 S1 1_555 1_555
O3 C7 1_555 1_555
O5 S2 1_555 1_555
O6 C14 1_555 1_555
O7 C20 1_555 1_555
O8 Cu1 1_555 1_555
O9 H17 1_555 1_555
N1 Cu1 1_555 1_555
N2 Cu1 1_555 1_555
N3 C15 1_555 1_555
N4 C20 1_555 1_555
C1 S1 1_555 1_555
C2 C1 1_555 1_555
C3 C2 1_555 1_555
C4 C3 1_555 1_555
C5 C4 1_555 1_555
C6 C1 1_555 1_555
C7 N1 1_555 1_555
C8 S2 1_555 1_555
C9 C8 1_555 1_555
C10 C9 1_555 1_555
C11 C10 1_555 1_555
C12 C11 1_555 1_555
C13 C8 1_555 1_555
C14 N2 1_555 1_555
C15 C16 1_555 1_555
C16 C17 1_555 1_555
C17 C18 1_555 1_555
C18 C19 1_555 1_555
C19 N3 1_555 1_555
C20 C16 1_555 1_555
H1 C2 1_555 1_555
H2 C3 1_555 1_555
H3 C4 1_555 1_555
H4 C5 1_555 1_555
H5 C9 1_555 1_555
H6 C10 1_555 1_555
H7 C11 1_555 1_555
H8 C12 1_555 1_555
H9 C15 1_555 1_555
H10 C17 1_555 1_555
H11 C18 1_555 1_555
H12 C19 1_555 1_555
H13 N4 1_555 1_555
H14 N4 1_555 1_555
H15 O8 1_555 1_555
H16 O8 1_555 1_555
H18 O9 1_555 1_555
N3A Cu1 1_555 1_555
Cu1A N3 1_555 1_555
S1 N1 1_555 1_555
S2 N2 1_555 1_555
C5 C6 1_555 1_555
C6 C7 1_555 1_555
C12 C13 1_555 1_555
C13 C14 1_555 1_555

#END
