
#######################################################################
#
#                 Cambridge Crystallographic Data Centre
#                                CCDC 
#
#######################################################################
#
# If this CIF has been generated from an entry in the Cambridge 
# Structural Database, then it will include bibliographic, chemical, 
# crystal, experimental, refinement or atomic coordinate data resulting 
# from the CCDC's data processing and validation procedures.
#
#######################################################################

data_ESAPET
_symmetry_cell_setting           orthorhombic
_symmetry_space_group_name_H-M   'P 21 21 21'
_symmetry_Int_Tables_number      19
_space_group_name_Hall           'P 2ac 2ab'
loop_
_symmetry_equiv_pos_site_id
_symmetry_equiv_pos_as_xyz
1 x,y,z
2 1/2-x,-y,1/2+z
3 1/2+x,1/2-y,-z
4 -x,1/2+y,1/2-z
_cell_length_a                   13.609(6)
_cell_length_b                   26.75(1)
_cell_length_c                   5.416(5)
_cell_angle_alpha                90
_cell_angle_beta                 90
_cell_angle_gamma                90
_cell_volume                     1971.64
loop_
_atom_site_label
_atom_site_type_symbol
_atom_site_fract_x
_atom_site_fract_y
_atom_site_fract_z
Pb1 Pb 0.60448(4) 0.781363(19) 0.7474(2)
O1 O 0.4821(7) 0.8304(4) 0.972(2)
O2 O 0.4447(10) 0.8696(6) 0.627(3)
O3 O 0.7001(7) 0.8316(4) 1.014(2)
O4 O 0.8076(7) 0.8105(4) 0.732(4)
O5 O 0.5901(7) 0.7350(4) 1.205(2)
O6 O 0.7309(11) 0.7182(7) 1.029(3)
O7 O 0.7159(11) 0.7132(7) 1.423(3)
O8 O 0.4146(7) 0.7346(4) 0.684(2)
H1 H 0.4001 0.7348 0.5313
H2 H 0.3691 0.7493 0.7631
O9 O 0.6329(8) 0.8561(4) 0.476(2)
H3 H 0.6476 0.8482 0.3284
H4 H 0.5768 0.8698 0.4892
N1 N 0.3246(8) 0.8617(4) 1.212(3)
H5 H 0.3171 0.8282 1.1898
H6 H 0.2680 0.8748 1.2741
H7 H 0.3746 0.8674 1.3200
N2 N 0.9559(8) 0.8501(5) 0.997(3)
H8 H 1.0001 0.8713 1.0668
H9 H 0.9680 0.8477 0.8319
H10 H 0.9615 0.8193 1.0672
N3 N 0.6753(8) 0.7209(4) 1.228(4)
C1 C 0.4340(13) 0.8595(8) 0.851(4)
C2 C 0.3471(9) 0.8855(5) 0.975(3)
H11 H 0.2886 0.8807 0.8659
C3 C 0.3608(9) 0.9416(5) 1.011(3)
H12 H 0.3126 0.9524 1.1398
C4 C 0.4636(10) 0.9533(6) 1.111(3)
H13 H 0.4761 0.9329 1.2586
H14 H 0.4677 0.9888 1.1549
H15 H 0.5128 0.9455 0.9850
C5 C 0.3384(13) 0.9716(5) 0.778(4)
H16 H 0.3489 1.0073 0.8100
H17 H 0.2698 0.9662 0.7291
H18 H 0.3819 0.9607 0.6440
C6 C 0.7831(10) 0.8331(5) 0.919(3)
C7 C 0.8564(10) 0.8692(4) 1.036(3)
H19 H 0.8441 0.8687 1.2177
C8 C 0.8433(9) 0.9233(4) 0.950(3)
H20 H 0.8580 0.9235 0.7693
C9 C 0.7388(10) 0.9431(6) 0.977(5)
H21 H 0.6930 0.9200 0.8960
H22 H 0.7340 0.9761 0.8988
H23 H 0.7221 0.9459 1.1521
C10 C 0.9162(11) 0.9595(6) 1.068(4)
H24 H 0.9831 0.9467 1.0465
H25 H 0.9018 0.9627 1.2448
H26 H 0.9105 0.9923 0.9891
O7_2 O 0.7159(11) 0.7132(7) 0.423(3)
Pb1_2 Pb 0.60448(4) 0.781363(19) 1.7474(2)
O10 O 0.1334(9) 0.8960(6) 0.672(3)
O11 O 0.0002(9) 0.8713(5) 0.500(2)
O12 O 0.1252(7) 0.8886(5) 0.274(3)
N4 N 0.0886(8) 0.8864(5) 0.481(3)
loop_
_geom_bond_atom_site_label_1
_geom_bond_atom_site_label_2
_geom_bond_site_symmetry_1
_geom_bond_site_symmetry_2
Pb1 O1 1_555 1_555
O1 C1 1_555 1_555
O2 C1 1_555 1_555
O3 Pb1 1_555 1_555
O4 Pb1 1_555 1_555
O5 Pb1 1_555 1_555
O6 Pb1 1_555 1_555
O7 N3 1_555 1_555
O8 Pb1 1_555 1_555
H1 O8 1_555 1_555
H2 O8 1_555 1_555
O9 Pb1 1_555 1_555
H3 O9 1_555 1_555
H4 O9 1_555 1_555
N1 H5 1_555 1_555
H6 N1 1_555 1_555
H7 N1 1_555 1_555
N2 H8 1_555 1_555
H9 N2 1_555 1_555
H10 N2 1_555 1_555
N3 O5 1_555 1_555
C1 C2 1_555 1_555
C2 N1 1_555 1_555
H11 C2 1_555 1_555
C3 C2 1_555 1_555
H12 C3 1_555 1_555
C4 C3 1_555 1_555
H13 C4 1_555 1_555
H14 C4 1_555 1_555
H15 C4 1_555 1_555
C5 C3 1_555 1_555
H16 C5 1_555 1_555
H17 C5 1_555 1_555
H18 C5 1_555 1_555
C6 O3 1_555 1_555
C7 N2 1_555 1_555
H19 C7 1_555 1_555
C8 C7 1_555 1_555
H20 C8 1_555 1_555
C9 C8 1_555 1_555
H21 C9 1_555 1_555
H22 C9 1_555 1_555
H23 C9 1_555 1_555
C10 C8 1_555 1_555
H24 C10 1_555 1_555
H25 C10 1_555 1_555
H26 C10 1_555 1_555
O10 N4 1_555 1_555
O11 N4 1_555 1_555
O12 N4 1_555 1_555
O7_2 Pb1 1_555 1_555
Pb1_2 O7 1_555 1_555
O4 C6 1_555 1_555
O6 N3 1_555 1_555
C6 C7 1_555 1_555

#END
