
#######################################################################
#
#                 Cambridge Crystallographic Data Centre
#                                CCDC 
#
#######################################################################
#
# If this CIF has been generated from an entry in the Cambridge 
# Structural Database, then it will include bibliographic, chemical, 
# crystal, experimental, refinement or atomic coordinate data resulting 
# from the CCDC's data processing and validation procedures.
#
#######################################################################

data_ESASIA
_symmetry_cell_setting           monoclinic
_symmetry_space_group_name_H-M   'C 2/c'
_symmetry_Int_Tables_number      15
_space_group_name_Hall           '-C 2yn'
loop_
_symmetry_equiv_pos_site_id
_symmetry_equiv_pos_as_xyz
1 x,y,z
2 1/2+x,1/2+y,z
3 x,-y,1/2+z
4 1/2+x,1/2-y,1/2+z
5 -x,-y,-z
6 1/2-x,1/2-y,-z
7 -x,y,1/2-z
8 1/2-x,1/2+y,1/2-z
_cell_length_a                   23.233(12)
_cell_length_b                   6.001(3)
_cell_length_c                   16.228(9)
_cell_angle_alpha                90
_cell_angle_beta                 109.078(10)
_cell_angle_gamma                90
_cell_volume                     2138.26
loop_
_atom_site_label
_atom_site_type_symbol
_atom_site_fract_x
_atom_site_fract_y
_atom_site_fract_z
Ag1 Ag 0.2500 1.2500 1.0000
S1 S 0.33927(12) 0.6317(4) 0.92671(16)
S2 S 0.38606(13) 1.0453(4) 1.04160(16)
N1 N 0.2732(3) 0.9679(10) 0.9374(4)
C1 C 0.2352(5) 0.8271(15) 0.8790(6)
C2 C 0.1737(5) 0.866(2) 0.8342(7)
H1 H 0.1548 0.9964 0.8429
C3 C 0.1419(6) 0.7058(19) 0.7769(8)
H2 H 0.1011 0.7315 0.7454
C4 C 0.1683(7) 0.5078(19) 0.7644(7)
H3 H 0.1445 0.4014 0.7269
C5 C 0.2284(6) 0.4655(15) 0.8060(7)
H4 H 0.2467 0.3333 0.7976
C6 C 0.2604(5) 0.6291(12) 0.8607(6)
C7 C 0.3296(4) 0.8897(15) 0.9657(5)
C8 C 0.4531(6) 0.865(2) 1.0689(8)
H5 H 0.4809 0.9058 1.1258
H6 H 0.4408 0.7116 1.0716
C9 C 0.4857(6) 0.887(2) 0.9999(9)
H7 H 0.5172 0.7742 1.0109
H8 H 0.4565 0.8598 0.9425
C9D C 0.5143(6) 1.113(2) 1.0001(9)
C8D C 0.5469(6) 1.135(2) 0.9311(8)
S2D S 0.61394(13) 0.9547(4) 0.95840(16)
C7D C 0.6704(4) 1.1103(15) 1.0343(5)
S1D S 0.66073(12) 1.3683(4) 1.07329(16)
C6D C 0.7396(5) 1.3709(12) 1.1393(6)
C1D C 0.7648(5) 1.1729(15) 1.1210(6)
N1D N 0.7268(3) 1.0321(10) 1.0626(4)
C2D C 0.8263(5) 1.134(2) 1.1658(7)
H1D H 0.8452 1.0036 1.1571
C3D C 0.8581(6) 1.2942(19) 1.2231(8)
H2D H 0.8989 1.2685 1.2546
C4D C 0.8317(7) 1.4922(19) 1.2356(7)
H3D H 0.8555 1.5986 1.2731
C5D C 0.7716(6) 1.5345(15) 1.1940(7)
H4D H 0.7533 1.6667 1.2024
H5D H 0.5191 1.0942 0.8742
H6D H 0.5592 1.2884 0.9284
H7D H 0.4828 1.2258 0.9891
H8D H 0.5435 1.1402 1.0575
N1E N 0.2268(3) 1.5321(10) 1.0626(4)
Ag1A Ag 0.7500 0.7500 1.0000
B1 B 0.0000 0.229(2) 0.7500
F1 F 0.0388(8) 0.109(3) 0.8215(10)
F2 F 0.0507(14) 0.229(8) 0.722(3)
F1F F -0.0388(8) 0.109(3) 0.6785(10)
F2F F -0.0507(14) 0.229(8) 0.778(3)
F3? F 0.028(2) 0.426(5) 0.742(3)
loop_
_geom_bond_atom_site_label_1
_geom_bond_atom_site_label_2
_geom_bond_site_symmetry_1
_geom_bond_site_symmetry_2
Ag1 N1 1_555 1_555
S1 C6 1_555 1_555
S2 C7 1_555 1_555
N1 C1 1_555 1_555
C1 C2 1_555 1_555
C2 H1 1_555 1_555
C3 C2 1_555 1_555
H2 C3 1_555 1_555
C4 C3 1_555 1_555
H3 C4 1_555 1_555
C5 C4 1_555 1_555
H4 C5 1_555 1_555
C6 C1 1_555 1_555
C7 S1 1_555 1_555
C8 S2 1_555 1_555
H5 C8 1_555 1_555
H6 C8 1_555 1_555
C9 C8 1_555 1_555
H7 C9 1_555 1_555
H8 C9 1_555 1_555
B1 F1 1_555 1_555
F2 B1 1_555 1_555
C9D C9 1_555 1_555
C8D C9D 1_555 1_555
S2D C8D 1_555 1_555
C7D S2D 1_555 1_555
S1D C7D 1_555 1_555
C6D S1D 1_555 1_555
C1D C6D 1_555 1_555
N1D C7D 1_555 1_555
C2D C1D 1_555 1_555
H1D C2D 1_555 1_555
C3D C2D 1_555 1_555
H2D C3D 1_555 1_555
C4D C3D 1_555 1_555
H3D C4D 1_555 1_555
C5D C6D 1_555 1_555
H4D C5D 1_555 1_555
H5D C8D 1_555 1_555
H6D C8D 1_555 1_555
H7D C9D 1_555 1_555
H8D C9D 1_555 1_555
F1F B1 1_555 1_555
F2F B1 1_555 1_555
N1E Ag1 1_555 1_555
Ag1A N1D 1_555 1_555
N1 C7 1_555 1_555
C5 C6 1_555 1_555
C1D N1D 1_555 1_555
C4D C5D 1_555 1_555

#END
