
#######################################################################
#
#                 Cambridge Crystallographic Data Centre
#                                CCDC 
#
#######################################################################
#
# If this CIF has been generated from an entry in the Cambridge 
# Structural Database, then it will include bibliographic, chemical, 
# crystal, experimental, refinement or atomic coordinate data resulting 
# from the CCDC's data processing and validation procedures.
#
#######################################################################

data_ESASEW
_symmetry_cell_setting           monoclinic
_symmetry_space_group_name_H-M   'C 2/c'
_symmetry_Int_Tables_number      15
_space_group_name_Hall           '-C 2yn'
loop_
_symmetry_equiv_pos_site_id
_symmetry_equiv_pos_as_xyz
1 x,y,z
2 1/2+x,1/2+y,z
3 x,-y,1/2+z
4 1/2+x,1/2-y,1/2+z
5 -x,-y,-z
6 1/2-x,1/2-y,-z
7 -x,y,1/2-z
8 1/2-x,1/2+y,1/2-z
_cell_length_a                   23.239(12)
_cell_length_b                   6.001(3)
_cell_length_c                   16.245(8)
_cell_angle_alpha                90
_cell_angle_beta                 109.009(9)
_cell_angle_gamma                90
_cell_volume                     2141.94
loop_
_atom_site_label
_atom_site_type_symbol
_atom_site_fract_x
_atom_site_fract_y
_atom_site_fract_z
Ag1 Ag 0.2500 0.2500 1.0000
S1 S 0.33923(11) 0.8692(3) 0.92664(14)
S2 S 0.38574(10) 0.4547(4) 1.04142(15)
N1 N 0.2738(3) 0.5330(9) 0.9381(4)
C1 C 0.2343(4) 0.6722(13) 0.8784(5)
C2 C 0.1734(4) 0.6299(14) 0.8335(5)
H1 H 0.1549 0.4981 0.8416
C3 C 0.1416(7) 0.790(2) 0.7767(9)
H2 H 0.1008 0.7639 0.7458
C4 C 0.1680(5) 0.9907(16) 0.7632(6)
H3 H 0.1445 1.0962 0.7249
C5 C 0.2291(5) 1.0323(14) 0.8068(6)
H4 H 0.2474 1.1650 0.7990
C6 C 0.2612(4) 0.8706(11) 0.8616(5)
C7 C 0.3296(4) 0.6080(11) 0.9665(5)
C8 C 0.4526(5) 0.6282(18) 1.0664(7)
H5 H 0.4407 0.7820 1.0699
H6 H 0.4803 0.5866 1.1233
C9 C 0.4862(4) 0.6127(16) 1.0008(7)
H7 H 0.4581 0.6458 0.9433
H8 H 0.5181 0.7243 1.0145
C9D C 0.5138(4) 0.3873(16) 0.9992(7)
C8D C 0.5474(5) 0.3718(18) 0.9336(7)
S2D S 0.61426(10) 0.5453(4) 0.95858(15)
C7D C 0.6704(4) 0.3920(11) 1.0335(5)
S1D S 0.66077(11) 0.1308(3) 1.07336(14)
C6D C 0.7388(4) 0.1294(11) 1.1384(5)
C1D C 0.7657(4) 0.3278(13) 1.1216(5)
N1D N 0.7262(3) 0.4670(9) 1.0619(4)
C2D C 0.8266(4) 0.3701(14) 1.1665(5)
H1D H 0.8451 0.5019 1.1584
C3D C 0.8584(7) 0.210(2) 1.2233(9)
H2D H 0.8992 0.2361 1.2542
C4D C 0.8320(5) 0.0093(16) 1.2368(6)
H3D H 0.8555 -0.0962 1.2751
C5D C 0.7709(5) -0.0323(14) 1.1932(6)
H4D H 0.7526 -0.1650 1.2010
H5D H 0.5593 0.2180 0.9301
H6D H 0.5197 0.4134 0.8767
H7D H 0.5419 0.3542 1.0567
H8D H 0.4819 0.2757 0.9855
N1E N 0.2262(3) -0.0330(9) 1.0619(4)
Ag1A Ag 0.7500 0.7500 1.0000
Cl1 Cl 0.5000 0.2399(15) 0.2500
O1 O 0.4601(8) 0.111(3) 0.1765(10)
O2 O 0.4622(13) 0.402(5) 0.272(2)
O1F O 0.5399(8) 0.111(3) 0.3235(10)
O2F O 0.5378(13) 0.402(5) 0.228(2)
O3? O 0.4418(14) 0.183(7) 0.257(4)
O4? O 0.519(2) 0.079(6) 0.197(3)
loop_
_geom_bond_atom_site_label_1
_geom_bond_atom_site_label_2
_geom_bond_site_symmetry_1
_geom_bond_site_symmetry_2
Ag1 N1 1_555 1_555
S1 C6 1_555 1_555
S2 C7 1_555 1_555
N1 C1 1_555 1_555
C1 C2 1_555 1_555
C2 H1 1_555 1_555
C3 C2 1_555 1_555
H2 C3 1_555 1_555
C4 C3 1_555 1_555
H3 C4 1_555 1_555
C5 C4 1_555 1_555
H4 C5 1_555 1_555
C6 C1 1_555 1_555
C7 S1 1_555 1_555
C8 S2 1_555 1_555
H5 C8 1_555 1_555
H6 C8 1_555 1_555
C9 C8 1_555 1_555
H7 C9 1_555 1_555
H8 C9 1_555 1_555
Cl1 O1 1_555 1_555
O2 Cl1 1_555 1_555
C9D C9 1_555 1_555
C8D C9D 1_555 1_555
S2D C8D 1_555 1_555
C7D S2D 1_555 1_555
S1D C7D 1_555 1_555
C6D S1D 1_555 1_555
C1D C6D 1_555 1_555
N1D C7D 1_555 1_555
C2D C1D 1_555 1_555
H1D C2D 1_555 1_555
C3D C2D 1_555 1_555
H2D C3D 1_555 1_555
C4D C3D 1_555 1_555
H3D C4D 1_555 1_555
C5D C6D 1_555 1_555
H4D C5D 1_555 1_555
H5D C8D 1_555 1_555
H6D C8D 1_555 1_555
H7D C9D 1_555 1_555
H8D C9D 1_555 1_555
O1F Cl1 1_555 1_555
O2F Cl1 1_555 1_555
N1E Ag1 1_555 1_555
Ag1A N1D 1_555 1_555
N1 C7 1_555 1_555
C5 C6 1_555 1_555
C1D N1D 1_555 1_555
C4D C5D 1_555 1_555

#END
