
#######################################################################
#
#                 Cambridge Crystallographic Data Centre
#                                CCDC 
#
#######################################################################
#
# If this CIF has been generated from an entry in the Cambridge 
# Structural Database, then it will include bibliographic, chemical, 
# crystal, experimental, refinement or atomic coordinate data resulting 
# from the CCDC's data processing and validation procedures.
#
#######################################################################

data_ESASUN
_symmetry_cell_setting           orthorhombic
_symmetry_space_group_name_H-M   'P b c a'
_symmetry_Int_Tables_number      61
_space_group_name_Hall           '-P 2ac 2ab'
loop_
_symmetry_equiv_pos_site_id
_symmetry_equiv_pos_as_xyz
1 x,y,z
2 1/2-x,-y,1/2+z
3 -x,1/2+y,1/2-z
4 1/2+x,1/2-y,-z
5 -x,-y,-z
6 1/2+x,y,1/2-z
7 x,1/2-y,1/2+z
8 1/2-x,1/2+y,z
_cell_length_a                   10.8248(5)
_cell_length_b                   8.8552(4)
_cell_length_c                   25.3482(13)
_cell_angle_alpha                90
_cell_angle_beta                 90
_cell_angle_gamma                90
_cell_volume                     2429.77
loop_
_atom_site_label
_atom_site_type_symbol
_atom_site_fract_x
_atom_site_fract_y
_atom_site_fract_z
Zn1 Zn 0.18106(3) -0.00149(5) 0.496638(14)
C1 C 0.1876(3) 0.2930(3) 0.56158(12)
C2 C 0.1435(2) 0.2402(3) 0.61443(12)
C3 C 0.2046(3) 0.2862(4) 0.65900(12)
H1 H 0.2708 0.3525 0.6558
C4 C 0.1696(3) 0.2356(4) 0.70921(12)
C5 C 0.2311(3) 0.2818(4) 0.75602(13)
H2 H 0.2984 0.3468 0.7537
C6 C 0.1931(4) 0.2321(5) 0.80418(14)
H3 H 0.2354 0.2619 0.8344
C7 C 0.0920(4) 0.1378(5) 0.80848(14)
H4 H 0.0656 0.1068 0.8417
C8 C 0.0309(3) 0.0896(4) 0.76489(13)
H5 H -0.0362 0.0249 0.7685
C9 C 0.0679(3) 0.1366(4) 0.71409(12)
C10 C 0.0079(3) 0.0890(3) 0.66786(11)
H6 H -0.0583 0.0224 0.6706
C11 C 0.0432(2) 0.1370(3) 0.61917(11)
C12 C -0.0309(3) 0.0868(4) 0.57260(12)
O1 O 0.17151(17) 0.2145(2) 0.52146(7)
O2 O 0.24072(19) 0.4195(2) 0.56065(8)
O3 O -0.0196(2) -0.0449(2) 0.55552(9)
O4 O -0.1062(2) 0.1738(2) 0.55113(8)
O5 O 0.31781(18) 0.0389(2) 0.44500(9)
H7 H 0.3777 -0.0231 0.4441
H8 H 0.3430 0.1298 0.4457
Zn1G Zn 0.31894(3) 0.49851(5) 0.496638(14)
Zn1D Zn -0.18106(3) 0.00149(5) 0.503362(14)
O2G O 0.25928(19) -0.0805(2) 0.56065(8)
O3D O 0.0196(2) 0.0449(2) 0.44448(9)
O4D O 0.1062(2) -0.1738(2) 0.44887(8)
O6 O 0.51890(19) 0.8656(2) 0.43456(9)
H9 H 0.5923 0.8997 0.4352
H10 H 0.5165 0.7701 0.4377
loop_
_geom_bond_atom_site_label_1
_geom_bond_atom_site_label_2
_geom_bond_site_symmetry_1
_geom_bond_site_symmetry_2
Zn1 O1 1_555 1_555
C1 C2 1_555 1_555
C2 C3 1_555 1_555
C3 H1 1_555 1_555
C4 C3 1_555 1_555
C5 C4 1_555 1_555
H2 C5 1_555 1_555
C6 C5 1_555 1_555
H3 C6 1_555 1_555
C7 C6 1_555 1_555
H4 C7 1_555 1_555
C8 C7 1_555 1_555
H5 C8 1_555 1_555
C9 C4 1_555 1_555
C10 C9 1_555 1_555
H6 C10 1_555 1_555
C11 C2 1_555 1_555
C12 C11 1_555 1_555
O1 C1 1_555 1_555
O2 C1 1_555 1_555
O3 C12 1_555 1_555
O4 C12 1_555 1_555
O5 Zn1 1_555 1_555
H7 O5 1_555 1_555
H8 O5 1_555 1_555
O6 H9 1_555 1_555
H10 O6 1_555 1_555
Zn1G O2 1_555 1_555
Zn1D O3 1_555 1_555
O2G Zn1 1_555 1_555
O3D Zn1 1_555 1_555
O4D Zn1 1_555 1_555
C8 C9 1_555 1_555
C10 C11 1_555 1_555
O4 Zn1D 1_555 1_555

#END
