
#######################################################################
#
#                 Cambridge Crystallographic Data Centre
#                                CCDC 
#
#######################################################################
#
# If this CIF has been generated from an entry in the Cambridge 
# Structural Database, then it will include bibliographic, chemical, 
# crystal, experimental, refinement or atomic coordinate data resulting 
# from the CCDC's data processing and validation procedures.
#
#######################################################################

data_ESASUM
_symmetry_cell_setting           triclinic
_symmetry_space_group_name_H-M   'P -1'
_symmetry_Int_Tables_number      2
_space_group_name_Hall           '-P 1'
loop_
_symmetry_equiv_pos_site_id
_symmetry_equiv_pos_as_xyz
1 x,y,z
2 -x,-y,-z
_cell_length_a                   12.094(5)
_cell_length_b                   13.077(5)
_cell_length_c                   16.097(6)
_cell_angle_alpha                108.992(7)
_cell_angle_beta                 94.586(7)
_cell_angle_gamma                107.799(7)
_cell_volume                     2246.01
loop_
_atom_site_label
_atom_site_type_symbol
_atom_site_fract_x
_atom_site_fract_y
_atom_site_fract_z
Ag1 Ag 0.02264(5) 0.82490(5) 0.76838(3)
Ag2 Ag 0.40591(5) 1.17099(5) 0.74843(4)
S1 S -0.16866(18) 0.43594(14) 0.55317(12)
S2 S -0.0925(2) 0.54977(15) 0.75792(12)
S3 S -0.10176(18) 0.20339(17) 1.03099(12)
S4 S 0.11051(18) 0.15513(16) 0.95671(11)
S5 S 0.6419(2) 1.55930(19) 0.95155(15)
S6 S 0.4976(2) 1.45608(19) 0.75900(16)
S7 S 0.67280(17) 1.78131(17) 0.45732(14)
S8 S 0.45247(16) 1.82009(17) 0.52195(12)
N1 N -0.0590(5) 0.6560(4) 0.6423(3)
N2 N 0.0602(5) 0.1488(4) 1.1090(3)
N3 N 0.5307(5) 1.3404(5) 0.8614(4)
N4 N 0.5171(5) 1.8419(4) 0.3775(4)
C1 C -0.0765(6) 0.6410(5) 0.5520(4)
C2 C -0.0421(6) 0.7280(6) 0.5188(5)
H1 H -0.0027 0.8042 0.5573
C3 C -0.0674(8) 0.6999(8) 0.4269(5)
H2 H -0.0454 0.7580 0.4037
C4 C -0.1253(8) 0.5858(8) 0.3691(5)
H3 H -0.1404 0.5690 0.3076
C5 C -0.1608(7) 0.4969(7) 0.4005(5)
H4 H -0.1995 0.4208 0.3616
C6 C -0.1361(6) 0.5260(6) 0.4932(4)
C7 C -0.1031(6) 0.5570(5) 0.6514(4)
C8 C -0.1842(7) 0.4013(6) 0.7350(4)
H5 H -0.2663 0.3885 0.7135
H6 H -0.1585 0.3489 0.6896
C9 C -0.1709(7) 0.3802(6) 0.8237(5)
H7 H -0.1825 0.4422 0.8710
H8 H -0.2324 0.3085 0.8173
C10 C -0.0533(7) 0.3738(7) 0.8507(5)
H9 H 0.0082 0.4461 0.8586
H10 H -0.0408 0.3130 0.8029
C11 C -0.0412(8) 0.3498(6) 0.9380(5)
H11 H 0.0416 0.3645 0.9591
H12 H -0.0657 0.4036 0.9833
C12 C -0.1120(7) 0.2303(6) 0.9284(4)
H13 H -0.0858 0.1767 0.8845
H14 H -0.1945 0.2148 0.9054
C13 C 0.0251(6) 0.1700(5) 1.0388(4)
C14 C 0.2016(6) 0.1187(5) 1.0219(4)
C15 C 0.3026(7) 0.0937(7) 1.0047(6)
H15 H 0.3311 0.0968 0.9532
C16 C 0.3592(7) 0.0644(7) 1.0652(6)
H16 H 0.4255 0.0446 1.0535
C17 C 0.3200(7) 0.0634(6) 1.1444(6)
H17 H 0.3618 0.0461 1.1858
C18 C 0.2185(6) 0.0883(6) 1.1610(5)
H18 H 0.1901 0.0849 1.2124
C19 C 0.1595(6) 0.1186(5) 1.1002(4)
C20 C 0.5882(6) 1.3483(7) 0.9434(5)
C21 C 0.5875(7) 1.2568(8) 0.9687(6)
H19 H 0.5453 1.1814 0.9298
C22 C 0.6490(8) 1.2772(10) 1.0515(6)
H20 H 0.6481 1.2160 1.0691
C23 C 0.7122(9) 1.3896(11) 1.1080(6)
H21 H 0.7543 1.4022 1.1635
C24 C 0.7161(8) 1.4846(10) 1.0864(6)
H22 H 0.7587 1.5597 1.1259
C25 C 0.6526(6) 1.4617(7) 1.0019(5)
C26 C 0.5524(6) 1.4420(7) 0.8567(5)
C27 C 0.5582(9) 1.6100(7) 0.7834(6)
H23 H 0.5179 1.6493 0.8255
H24 H 0.6418 1.6398 0.8105
C28 C 0.5421(8) 1.6337(9) 0.6946(6)
H25 H 0.4622 1.5877 0.6607
H26 H 0.5516 1.7144 0.7097
C29 C 0.6233(9) 1.6079(8) 0.6404(6)
H27 H 0.6111 1.5264 0.6233
H28 H 0.7030 1.6510 0.6755
C30 C 0.6133(7) 1.6361(7) 0.5533(5)
H29 H 0.6431 1.5865 0.5091
H30 H 0.5301 1.6162 0.5296
C31 C 0.6785(6) 1.7610(6) 0.5635(5)
H31 H 0.7607 1.7841 0.5917
H32 H 0.6437 1.8108 0.6026
C32 C 0.5448(6) 1.8153(5) 0.4457(4)
C33 C 0.3669(6) 1.8616(6) 0.4574(4)
C34 C 0.2643(6) 1.8885(6) 0.4720(5)
H33 H 0.2323 1.8845 0.5219
C35 C 0.2132(7) 1.9205(7) 0.4108(6)
H34 H 0.1455 1.9388 0.4199
C36 C 0.2581(7) 1.9265(6) 0.3365(6)
H35 H 0.2194 1.9475 0.2960
C37 C 0.3600(6) 1.9022(6) 0.3202(5)
H36 H 0.3913 1.9081 0.2704
C38 C 0.4139(6) 1.8683(5) 0.3817(4)
Cl1 Cl 0.10004(17) 1.07204(17) 0.71422(13)
Cl2 Cl 0.32455(16) 0.88998(17) 0.75746(12)
O1 O 0.0038(5) 0.9762(5) 0.7187(4)
O2 O 0.2182(5) 1.1179(7) 0.7675(5)
O3 O 0.1052(6) 1.0498(5) 0.6153(3)
O4 O 0.0557(5) 1.1732(4) 0.7319(4)
O5 O 0.2278(6) 0.8587(6) 0.8017(5)
O6 O 0.4190(5) 1.0014(5) 0.7868(5)
O7 O 0.2716(7) 0.8571(7) 0.6600(4)
O8 O 0.3832(5) 0.7986(5) 0.7410(5)
N2A N -0.0602(5) 0.8512(4) 0.8910(3)
N4A N 0.4829(5) 1.1581(4) 0.6225(4)
Ag1A Ag -0.02264(5) 0.17510(5) 1.23162(3)
Ag2A Ag 0.59409(5) 1.82901(5) 0.25157(4)
loop_
_geom_bond_atom_site_label_1
_geom_bond_atom_site_label_2
_geom_bond_site_symmetry_1
_geom_bond_site_symmetry_2
Ag1 N1 1_555 1_555
Ag2 N3 1_555 1_555
S1 C6 1_555 1_555
S2 C7 1_555 1_555
S3 C12 1_555 1_555
S4 C13 1_555 1_555
S5 C25 1_555 1_555
S6 C26 1_555 1_555
S7 C31 1_555 1_555
S8 C32 1_555 1_555
N1 C1 1_555 1_555
N2 C13 1_555 1_555
N3 C20 1_555 1_555
N4 C32 1_555 1_555
C1 C2 1_555 1_555
C2 H1 1_555 1_555
C3 C2 1_555 1_555
H2 C3 1_555 1_555
C4 C3 1_555 1_555
H3 C4 1_555 1_555
C5 C4 1_555 1_555
H4 C5 1_555 1_555
C6 C1 1_555 1_555
C7 S1 1_555 1_555
C8 S2 1_555 1_555
H5 C8 1_555 1_555
H6 C8 1_555 1_555
C9 C8 1_555 1_555
H7 C9 1_555 1_555
H8 C9 1_555 1_555
C10 C9 1_555 1_555
H9 C10 1_555 1_555
H10 C10 1_555 1_555
C11 C10 1_555 1_555
H11 C11 1_555 1_555
H12 C11 1_555 1_555
C12 C11 1_555 1_555
H13 C12 1_555 1_555
H14 C12 1_555 1_555
C13 S3 1_555 1_555
C14 S4 1_555 1_555
C15 C14 1_555 1_555
H15 C15 1_555 1_555
C16 C15 1_555 1_555
H16 C16 1_555 1_555
C17 C16 1_555 1_555
H17 C17 1_555 1_555
C18 C17 1_555 1_555
H18 C18 1_555 1_555
C19 N2 1_555 1_555
C20 C21 1_555 1_555
C21 H19 1_555 1_555
C22 C21 1_555 1_555
H20 C22 1_555 1_555
C23 C22 1_555 1_555
H21 C23 1_555 1_555
C24 C23 1_555 1_555
H22 C24 1_555 1_555
C25 C20 1_555 1_555
C26 S5 1_555 1_555
C27 S6 1_555 1_555
H23 C27 1_555 1_555
H24 C27 1_555 1_555
C28 C27 1_555 1_555
H25 C28 1_555 1_555
H26 C28 1_555 1_555
C29 C28 1_555 1_555
H27 C29 1_555 1_555
H28 C29 1_555 1_555
C30 C29 1_555 1_555
H29 C30 1_555 1_555
H30 C30 1_555 1_555
C31 C30 1_555 1_555
H31 C31 1_555 1_555
H32 C31 1_555 1_555
C32 S7 1_555 1_555
C33 S8 1_555 1_555
C34 C33 1_555 1_555
H33 C34 1_555 1_555
C35 C34 1_555 1_555
H34 C35 1_555 1_555
C36 C35 1_555 1_555
H35 C36 1_555 1_555
C37 C36 1_555 1_555
H36 C37 1_555 1_555
C38 N4 1_555 1_555
Cl1 O1 1_555 1_555
Cl2 O5 1_555 1_555
O1 Ag1 1_555 1_555
O2 Ag2 1_555 1_555
O3 Cl1 1_555 1_555
O4 Cl1 1_555 1_555
O5 Ag1 1_555 1_555
O6 Ag2 1_555 1_555
O7 Cl2 1_555 1_555
O8 Cl2 1_555 1_555
N2A Ag1 1_555 1_555
N4A Ag2 1_555 1_555
Ag1A N2 1_555 1_555
Ag2A N4 1_555 1_555
N1 C7 1_555 1_555
N3 C26 1_555 1_555
C5 C6 1_555 1_555
C14 C19 1_555 1_555
C18 C19 1_555 1_555
C24 C25 1_555 1_555
C33 C38 1_555 1_555
C37 C38 1_555 1_555
Cl1 O2 1_555 1_555
Cl2 O6 1_555 1_555

#END
