
#######################################################################
#
#                 Cambridge Crystallographic Data Centre
#                                CCDC 
#
#######################################################################
#
# If this CIF has been generated from an entry in the Cambridge 
# Structural Database, then it will include bibliographic, chemical, 
# crystal, experimental, refinement or atomic coordinate data resulting 
# from the CCDC's data processing and validation procedures.
#
#######################################################################

data_ESATAT
_symmetry_cell_setting           monoclinic
_symmetry_space_group_name_H-M   'P 21/n'
_symmetry_Int_Tables_number      14
_space_group_name_Hall           '-P 2yn'
loop_
_symmetry_equiv_pos_site_id
_symmetry_equiv_pos_as_xyz
1 x,y,z
2 1/2+x,1/2-y,1/2+z
3 -x,-y,-z
4 1/2-x,1/2+y,1/2-z
_cell_length_a                   30.4712(11)
_cell_length_b                   46.5263(17)
_cell_length_c                   30.4916(11)
_cell_angle_alpha                90
_cell_angle_beta                 98.4780(10)
_cell_angle_gamma                90
_cell_volume                     42755.9
loop_
_atom_site_label
_atom_site_type_symbol
_atom_site_fract_x
_atom_site_fract_y
_atom_site_fract_z
Cu13 Cu 0.8112 0.7520 0.3037
O87 O 0.6927 0.8274 0.4050
N4 N 0.7712 0.7758 0.3356
C115 C 0.7450 0.7972 0.3158
H42 H 0.7433 0.7995 0.2846
C116 C 0.7207 0.8158 0.3383
H43 H 0.7056 0.8316 0.3233
C117 C 0.7188 0.8112 0.3818
C118 C 0.7357 0.7841 0.3991
H44 H 0.7273 0.7765 0.4256
C119 C 0.7642 0.7692 0.3766
H45 H 0.7797 0.7532 0.3910
C120 C 0.6934 0.8240 0.4550
O88 O 0.7508 0.6400 0.3781
N5 N 0.7929 0.7161 0.3319
C121 C 0.7490 0.7088 0.3261
H46 H 0.7278 0.7220 0.3118
C122 C 0.7344 0.6826 0.3407
H47 H 0.7039 0.6775 0.3348
C123 C 0.7647 0.6644 0.3634
C124 C 0.8109 0.6722 0.3703
H48 H 0.8326 0.6601 0.3865
C125 C 0.8229 0.6985 0.3521
H49 H 0.8534 0.7035 0.3546
C126 C 0.7814 0.6206 0.4037
O89 O 0.8953 0.6729 0.1779
N6 N 0.8386 0.7281 0.2618
C127 C 0.8166 0.7058 0.2395
H50 H 0.7866 0.7027 0.2434
C128 C 0.8340 0.6883 0.2129
H51 H 0.8172 0.6729 0.1985
C129 C 0.8790 0.6929 0.2060
C130 C 0.9017 0.7129 0.2269
H52 H 0.9321 0.7152 0.2240
C131 C 0.8824 0.7306 0.2529
H53 H 0.8996 0.7461 0.2665
C132 C 0.9429 0.6747 0.1750
O90 O 0.8710 0.8647 0.2274
N7 N 0.8356 0.7890 0.2804
C133 C 0.8520 0.8103 0.3068
H54 H 0.8564 0.8072 0.3379
C134 C 0.8627 0.8361 0.2917
H55 H 0.8718 0.8512 0.3121
C135 C 0.8604 0.8409 0.2467
C136 C 0.8446 0.8188 0.2202
H56 H 0.8426 0.8208 0.1889
C137 C 0.8315 0.7936 0.2375
H57 H 0.8191 0.7789 0.2178
C138 C 0.8868 0.8887 0.2540
O108 O 0.7444 0.7554 0.2427
O18 O 0.8901 0.6055 0.3749
O20 O 0.9370 0.5855 0.4383
O85 O 0.1411 0.6712 0.1036
C108 C 0.1131 0.6581 0.0692
O107 O 0.8866 0.7539 0.3568
C234 C 0.8946 0.7643 0.4019
O110 O 0.8898 0.1914 0.7828
O119 O 0.0095 0.1737 0.6134
O122 O 0.2718 0.1065 0.7013
O123 O 0.2156 0.2269 0.2408
O124 O 0.7033 0.1067 0.2125
C273 C 0.6975 0.1036 0.2595
O125 O 0.1327 0.1602 0.5634
C283 C 0.1826 0.1675 0.5703
O128 O 0.3518 0.2278 0.4857
C286 C 0.3457 0.2517 0.5045
O129 O 0.4400 0.1413 0.3201
C282 C 0.4389 0.1695 0.3247
O132 O 1.0132 0.2449 0.8597
C266 C 0.9719 0.2488 0.8810
O134 O 0.0305 0.0577 0.8555
O135 O 0.3628 0.1293 0.2170
Cu1 Cu 0.6756 0.4998 0.3235
Cu2 Cu 0.7347 0.4990 0.2687
Cu3 Cu 0.6047 0.3568 -0.5631
Cu4 Cu 0.6379 0.3073 -0.5840
Cu5 Cu 0.4300 0.4395 0.2493
Cu6 Cu 0.4078 0.4155 0.1703
Cu7 Cu 0.6688 0.4158 -0.3142
Cu8 Cu 0.7272 0.3873 -0.2574
Cu9 Cu 0.5753 0.6450 0.3917
Cu10 Cu 0.5988 0.6945 0.3601
Cu11 Cu 0.7429 0.5627 0.5740
Cu12 Cu 0.8235 0.5828 0.5982
Cu14 Cu 0.4098 0.2486 -0.8457
Cu15 Cu 0.6878 0.4492 0.0203
Cu16 Cu 1.0109 0.4504 -0.3320
Cu17 Cu 0.8575 0.7462 0.6060
S1 S 0.5125 0.2795 -0.7937
O1 O 0.4383 0.3824 0.2012
O2 O 0.4600 0.4034 0.2672
O3 O 0.5946 0.3118 -0.6377
O4 O 0.5673 0.3544 -0.6203
O5 O 0.4684 0.2791 -0.8186
O6 O 0.5464 0.2834 -0.8213
O7 O 0.5223 0.2551 -0.7632
C1 C 0.4877 0.3574 -0.7459
C2 C 0.5141 0.3573 -0.7030
H1 H 0.5127 0.3730 -0.6833
C3 C 0.5418 0.3341 -0.6903
C4 C 0.5408 0.3093 -0.7180
H2 H 0.5579 0.2929 -0.7082
C5 C 0.5144 0.3095 -0.7599
C8 C 0.5700 0.3337 -0.6466
S2 S 0.6163 0.4148 0.0940
O8 O 0.4667 0.4297 0.1607
O9 O 0.4840 0.4515 0.2266
O10 O 0.6872 0.4805 0.2283
O11 O 0.6333 0.4884 0.2705
O12 O 0.5775 0.4104 0.0615
O13 O 0.6346 0.3881 0.1139
O14 O 0.6501 0.4326 0.0782
C9 C 0.5411 0.4456 0.1820
C10 C 0.5707 0.4613 0.2109
C11 C 0.6142 0.4627 0.2044
C12 C 0.6299 0.4498 0.1676
C13 C 0.5970 0.4339 0.1397
C14 C 0.5541 0.4327 0.1462
C15 C 0.4924 0.4425 0.1902
C16 C 0.6500 0.4792 0.2389
S3 S 0.8319 0.5687 0.5389
O15 O 0.7653 0.5477 0.5212
O16 O 0.7722 0.5177 0.3189
O17 O 0.7249 0.5112 0.3694
O19 O 1.0741 0.4398 -0.3675
C17 C 0.8144 0.5522 0.4680
C18 C 0.7841 0.5380 0.4348
H4 H 0.7571 0.5304 0.4421
C19 C 0.7939 0.5350 0.3917
C20 C 0.8313 0.5472 0.3805
H5 H 0.8376 0.5456 0.3510
C21 C 0.8609 0.5621 0.4126
C22 C 0.8512 0.5643 0.4560
H6 H 0.8709 0.5745 0.4775
C23 C 0.8025 0.5567 0.5123
C24 C 0.7602 0.5203 0.3574
S4 S 0.7058 0.6429 0.1796
O21 O 0.6240 0.6698 0.3173
O22 O 0.6057 0.6272 0.3470
O23 O 0.7109 0.5379 0.2511
O24 O 0.6682 0.5395 0.3053
O25 O 0.7522 0.6384 0.1863
O26 O 0.6982 0.6726 0.1876
O27 O 0.6856 0.6309 0.1413
C25 C 0.6469 0.6265 0.2876
C26 C 0.6555 0.5971 0.2934
H7 H 0.6461 0.5875 0.3179
C27 C 0.6767 0.5820 0.2649
C28 C 0.6915 0.5950 0.2302
H8 H 0.7062 0.5843 0.2103
C29 C 0.6844 0.6247 0.2243
C30 C 0.6642 0.6401 0.2538
H9 H 0.6620 0.6604 0.2509
C31 C 0.6227 0.6423 0.3195
C32 C 0.6862 0.5503 0.2745
S5 S 0.8082 0.7212 0.4944
O28 O 0.7997 0.6186 0.5690
O29 O 0.7334 0.5992 0.5420
O30 O 0.6529 0.6907 0.4015
O31 O 0.6328 0.6496 0.4309
O32 O 0.8426 0.7138 0.4703
O33 O 0.8237 0.7239 0.5396
O34 O 0.7818 0.7455 0.4781
C33 C 0.7520 0.6451 0.5181
C34 C 0.7121 0.6456 0.4876
H10 H 0.6917 0.6300 0.4854
C35 C 0.7039 0.6696 0.4612
C36 C 0.7294 0.6918 0.4617
H11 H 0.7212 0.7079 0.4432
C37 C 0.7691 0.6912 0.4902
C38 C 0.7812 0.6680 0.5181
H12 H 0.8091 0.6677 0.5368
C39 C 0.7632 0.6189 0.5453
C40 C 0.6584 0.6696 0.4268
S6 S 0.7479 0.4783 -0.0705
O35 O 0.7080 0.4130 -0.2123
O36 O 0.6625 0.4394 -0.2624
O37 O 0.3804 0.4531 0.1523
O38 O 0.3972 0.4724 0.2211
O39 O 0.7824 0.4577 -0.0764
O40 O 0.7240 0.4667 -0.0389
O41 O 0.7609 0.5061 -0.0629
C41 C 0.6806 0.4565 -0.1888
C42 C 0.6522 0.4794 -0.1990
H13 H 0.6333 0.4797 -0.2267
C43 C 0.6508 0.5024 -0.1690
C44 C 0.6805 0.5017 -0.1289
H14 H 0.6808 0.5167 -0.1077
C45 C 0.7098 0.4782 -0.1211
C46 C 0.7102 0.4566 -0.1487
H15 H 0.7303 0.4411 -0.1417
C47 C 0.6851 0.4339 -0.2235
C48 C 0.3777 0.4718 0.1823
S7 S 0.8059 0.2834 -0.4020
O42 O 0.6763 0.3112 -0.5263
O43 O 0.6467 0.3538 -0.5081
O44 O 0.7399 0.3663 -0.3101
O45 O 0.6856 0.3884 -0.3573
O46 O 0.8435 0.2936 -0.3725
O47 O 0.7810 0.2610 -0.3840
O48 O 0.8166 0.2768 -0.4449
C49 C 0.7048 0.3320 -0.4568
C50 C 0.6986 0.3513 -0.4251
H16 H 0.6765 0.3658 -0.4309
C51 C 0.7250 0.3497 -0.3836
C52 C 0.7600 0.3302 -0.3766
H17 H 0.7790 0.3296 -0.3490
C53 C 0.7666 0.3117 -0.4105
C54 C 0.7375 0.3120 -0.4511
H18 H 0.7408 0.2985 -0.4738
C55 C 0.6734 0.3319 -0.5018
C56 C 0.7172 0.3689 -0.3475
S8 S 0.9017 0.7612 0.7296
O49 O 0.5411 0.6917 0.3250
O50 O 0.5207 0.6482 0.3485
O51 O 0.6773 0.3617 -0.2534
O52 O 0.6272 0.3882 -0.2975
O53 O 0.8649 0.7510 0.7517
O54 O 0.8874 0.7684 0.6825
O55 O 0.9403 0.7433 0.7399
C57 C 0.9698 0.8263 0.7980
C58 C 0.9380 0.8463 0.7955
H19 H 0.9453 0.8638 0.8108
C59 C 0.8953 0.8436 0.7726
C60 C 0.8869 0.8175 0.7506
H20 H 0.8584 0.8147 0.7338
C61 C 0.9173 0.7957 0.7516
C62 C 0.9592 0.7999 0.7752
H21 H 0.9809 0.7851 0.7762
C63 C 0.5135 0.6712 0.3249
C64 C 0.6391 0.3663 -0.2743
S9 S 0.5181 0.7908 0.5129
O56 O 0.5693 0.7101 0.4079
O57 O 0.5460 0.6679 0.4332
O58 O 0.5916 0.2900 -0.5539
O59 O 0.5636 0.3327 -0.5355
O60 O 0.5156 0.7950 0.5586
O61 O 0.4866 0.8056 0.4834
O62 O 0.5596 0.7964 0.5015
C65 C 0.5239 0.7106 0.4660
C66 C 0.4941 0.6965 0.4879
H22 H 0.4910 0.6763 0.4841
C67 C 0.4686 0.7101 0.5150
C68 C 0.4756 0.7390 0.5223
H23 H 0.4596 0.7491 0.5419
C69 C 0.5077 0.7538 0.4997
C70 C 0.5305 0.7392 0.4729
H24 H 0.5517 0.7490 0.4583
C71 C 0.5487 0.6949 0.4339
C72 C 0.5655 0.3055 -0.5362
S10 S 0.8150 0.3537 0.3042
O63 O 0.7490 0.4606 0.2959
O64 O 0.6915 0.4596 0.3340
O65 O 0.6800 0.3317 -0.6100
O66 O 0.6516 0.3732 -0.5928
O67 O 0.8178 0.3613 0.2648
O68 O 0.8542 0.3640 0.3289
O69 O 0.8106 0.3277 0.3143
C73 C 0.7311 0.4172 0.3295
C74 C 0.7042 0.4022 0.3542
H25 H 0.6805 0.4121 0.3649
C75 C 0.7103 0.3742 0.3637
C76 C 0.7424 0.3580 0.3477
H26 H 0.7452 0.3378 0.3522
C77 C 0.7710 0.3741 0.3237
C78 C 0.7646 0.4020 0.3142
H27 H 0.7835 0.4115 0.2967
C79 C 0.7225 0.4482 0.3179
C80 C 0.6766 0.3576 -0.6090
S11 S 0.9204 0.4700 -0.2622
O70 O 0.7669 0.4184 -0.2732
O71 O 0.7179 0.4399 -0.3257
O72 O 0.8347 0.5439 0.6235
O73 O 0.7651 0.5291 0.6089
O74 O 0.9305 0.4940 -0.2389
O75 O 0.9153 0.4465 -0.2340
O76 O 0.9488 0.4638 -0.2956
C81 C 0.7912 0.4576 -0.3099
C82 C 0.7819 0.4806 -0.3398
H28 H 0.7531 0.4825 -0.3563
C83 C 0.8152 0.5009 -0.3454
C84 C 0.8578 0.4976 -0.3219
H29 H 0.8806 0.5110 -0.3255
C85 C 0.8666 0.4737 -0.2922
C86 C 0.8344 0.4544 -0.2866
H30 H 0.8410 0.4387 -0.2669
C87 C 0.7563 0.4371 -0.3016
C88 C 0.8025 0.5272 0.6266
S12 S 0.1835 0.3772 0.1786
O77 O 0.3528 0.4056 0.1931
O78 O 0.3732 0.4231 0.2618
O79 O 0.8015 0.5940 0.6533
O80 O 0.7313 0.5802 0.6301
O81 O 0.1921 0.3870 0.1401
O82 O 0.1429 0.3855 0.1904
O83 O 0.1899 0.3494 0.1720
C89 C 0.3011 0.4034 0.2441
C90 C 0.2909 0.4080 0.2874
H31 H 0.3135 0.4138 0.3105
C91 C 0.2485 0.4040 0.2962
C92 C 0.2167 0.3932 0.2627
H32 H 0.1877 0.3894 0.2692
C93 C 0.2255 0.3878 0.2215
C94 C 0.2684 0.3934 0.2119
H33 H 0.2749 0.3903 0.1828
C95 C 0.3468 0.4118 0.2334
C96 C 0.7622 0.5901 0.6574
O84 O 0.3759 0.3462 -0.0106
N1 N 0.3937 0.3941 0.1084
C97 C 0.3598 0.4014 0.0753
H34 H 0.3400 0.4166 0.0796
C98 C 0.3548 0.3866 0.0362
H35 H 0.3321 0.3922 0.0130
C99 C 0.3828 0.3631 0.0296
C100 C 0.4151 0.3562 0.0605
H36 H 0.4344 0.3406 0.0568
C101 C 0.4205 0.3722 0.0991
H37 H 0.4449 0.3675 0.1210
N2 N 0.7759 0.3651 -0.2127
C103 C 0.8052 0.3808 -0.1880
C106 C 0.7986 0.3256 -0.1806
C107 C 0.7716 0.3358 -0.2064
O86 O 0.8818 0.4873 0.1437
N3 N 0.7833 0.4952 0.2258
C109 C 0.7836 0.4720 0.1998
H38 H 0.7612 0.4578 0.1996
C110 C 0.8155 0.4687 0.1739
H39 H 0.8156 0.4518 0.1565
C111 C 0.8468 0.4883 0.1718
C112 C 0.8460 0.5130 0.1952
H40 H 0.8668 0.5279 0.1925
C113 C 0.8131 0.5165 0.2241
H41 H 0.8124 0.5333 0.2416
O91 O 0.4613 0.2536 -1.0341
N8 N 0.4270 0.2491 -0.9055
C139 C 0.4181 0.2257 -0.9345
H58 H 0.4038 0.2092 -0.9248
C140 C 0.4295 0.2259 -0.9765
H59 H 0.4232 0.2099 -0.9957
C141 C 0.4519 0.2519 -0.9909
C142 C 0.4582 0.2740 -0.9623
H60 H 0.4730 0.2907 -0.9704
C143 C 0.4442 0.2733 -0.9230
H61 H 0.4462 0.2904 -0.9059
C144 C 0.4518 0.2275 -1.0637
O92 O 0.2910 0.3553 -0.8822
N9 N 0.3725 0.2853 -0.8589
C145 C 0.3448 0.2875 -0.8986
H62 H 0.3442 0.2725 -0.9199
C146 C 0.3181 0.3108 -0.9079
H63 H 0.2992 0.3124 -0.9355
C147 C 0.3190 0.3319 -0.8768
C148 C 0.3479 0.3298 -0.8382
H64 H 0.3505 0.3453 -0.8177
C149 C 0.3728 0.3061 -0.8288
H65 H 0.3906 0.3042 -0.8006
C150 C 0.2537 0.3532 -0.9195
O93 O 0.3380 0.2383 -0.6679
N10 N 0.3882 0.2454 -0.7878
C151 C 0.3427 0.2436 -0.7843
H66 H 0.3214 0.2437 -0.8104
C152 C 0.3283 0.2416 -0.7429
H67 H 0.2974 0.2404 -0.7415
C153 C 0.3562 0.2413 -0.7065
C154 C 0.4015 0.2421 -0.7078
H68 H 0.4223 0.2416 -0.6813
C155 C 0.4153 0.2437 -0.7488
H69 H 0.4463 0.2436 -0.7496
C156 C 0.3721 0.2359 -0.6261
O94 O 0.5460 0.1515 -0.7898
N11 N 0.4510 0.2136 -0.8318
C157 C 0.4926 0.2156 -0.8432
H70 H 0.4992 0.2316 -0.8605
C158 C 0.5247 0.1961 -0.8313
H71 H 0.5530 0.1980 -0.8405
C159 C 0.5150 0.1723 -0.8041
C160 C 0.4712 0.1700 -0.7954
H72 H 0.4622 0.1536 -0.7804
C161 C 0.4420 0.1912 -0.8084
H73 H 0.4132 0.1898 -0.8001
C162 C 0.5879 0.1519 -0.8049
O95 O 0.5964 0.3556 -0.1041
N12 N 0.6598 0.4186 -0.0215
C163 C 0.6539 0.3921 -0.0084
H74 H 0.6644 0.3873 0.0216
C164 C 0.6328 0.3708 -0.0362
H75 H 0.6304 0.3516 -0.0262
C165 C 0.6156 0.3790 -0.0793
C166 C 0.6235 0.4061 -0.0931
H76 H 0.6152 0.4113 -0.1233
C167 C 0.6430 0.4256 -0.0642
H77 H 0.6451 0.4449 -0.0738
C168 C 0.5793 0.3626 -0.1524
O96 O 0.5331 0.5336 -0.0322
N13 N 0.6379 0.4765 -0.0001
C169 C 0.5952 0.4696 0.0045
H78 H 0.5887 0.4513 0.0159
C170 C 0.5623 0.4890 -0.0074
H79 H 0.5327 0.4834 -0.0053
C171 C 0.5692 0.5151 -0.0219
C172 C 0.6117 0.5230 -0.0245
H80 H 0.6186 0.5419 -0.0332
C173 C 0.6446 0.5026 -0.0140
H81 H 0.6741 0.5079 -0.0171
C174 C 0.5395 0.5625 -0.0457
O97 O 0.7804 0.5477 0.1286
N14 N 0.7175 0.4793 0.0611
C175 C 0.6985 0.4922 0.0905
H82 H 0.6703 0.4854 0.0958
C176 C 0.7174 0.5163 0.1158
H83 H 0.7032 0.5252 0.1380
C177 C 0.7590 0.5259 0.1054
C178 C 0.7796 0.5130 0.0757
H84 H 0.8070 0.5202 0.0691
C179 C 0.7612 0.4898 0.0551
H85 H 0.7773 0.4796 0.0357
C180 C 0.7541 0.5631 0.1550
O98 O 0.8589 0.3851 0.0899
N15 N 0.7396 0.4232 0.0416
C181 C 0.7692 0.4138 0.0158
H86 H 0.7624 0.4188 -0.0146
C182 C 0.8057 0.3989 0.0263
H87 H 0.8228 0.3910 0.0055
C183 C 0.8160 0.3963 0.0728
C184 C 0.7874 0.4016 0.1003
H88 H 0.7931 0.3958 0.1304
C185 C 0.7488 0.4158 0.0836
H89 H 0.7282 0.4205 0.1030
C186 C 0.8716 0.3803 0.1386
O99 O 1.0891 0.3915 -0.1588
N16 N 1.0375 0.4281 -0.2793
C187 C 1.0134 0.4152 -0.2527
H90 H 0.9824 0.4138 -0.2626
C188 C 1.0286 0.4038 -0.2128
H91 H 1.0088 0.3969 -0.1939
C189 C 1.0742 0.4026 -0.2000
C190 C 1.1011 0.4145 -0.2275
H92 H 1.1325 0.4140 -0.2200
C191 C 1.0818 0.4269 -0.2654
H93 H 1.1007 0.4354 -0.2839
C192 C 1.1378 0.3898 -0.1467
O100 O 1.1071 0.5565 -0.2421
N17 N 1.0441 0.4855 -0.3067
C193 C 1.0369 0.4969 -0.2679
H94 H 1.0168 0.4872 -0.2519
C194 C 1.0559 0.5208 -0.2500
H95 H 1.0472 0.5285 -0.2238
C195 C 1.0868 0.5339 -0.2691
C196 C 1.1002 0.5235 -0.3113
H96 H 1.1221 0.5319 -0.3263
C197 C 1.0740 0.4981 -0.3256
H97 H 1.0797 0.4898 -0.3526
C198 C 1.1310 0.5696 -0.2641
O101 O 0.9089 0.5082 -0.4979
N18 N 0.9835 0.4727 -0.3863
C199 C 0.9603 0.4974 -0.3795
H98 H 0.9584 0.5058 -0.3514
C200 C 0.9374 0.5095 -0.4255
H99 H 0.9208 0.5267 -0.4243
C201 C 0.9383 0.4988 -0.4659
C202 C 0.9632 0.4736 -0.4676
H100 H 0.9661 0.4648 -0.4952
C203 C 0.9828 0.4622 -0.4293
H101 H 0.9983 0.4446 -0.4318
C204 C 0.9072 0.4945 -0.5424
O102 O 0.9089 0.3469 -0.4254
N19 N 0.9757 0.4165 -0.3564
C205 C 0.9303 0.4171 -0.3699
H102 H 0.9144 0.4341 -0.3646
C206 C 0.9074 0.3945 -0.3902
H103 H 0.8759 0.3951 -0.3962
C207 C 0.9302 0.3703 -0.4024
C208 C 0.9750 0.3682 -0.3903
H104 H 0.9916 0.3520 -0.3972
C209 C 0.9947 0.3921 -0.3668
H105 H 1.0257 0.3906 -0.3569
C210 C 0.8618 0.3502 -0.4390
O103 O 0.7343 0.8515 0.5811
N20 N 0.8158 0.7791 0.6020
C211 C 0.8291 0.8046 0.6192
H106 H 0.8578 0.8056 0.6362
C212 C 0.8047 0.8295 0.6144
H107 H 0.8165 0.8469 0.6275
C213 C 0.7617 0.8287 0.5898
C214 C 0.7454 0.8002 0.5674
H108 H 0.7194 0.7983 0.5462
C215 C 0.7724 0.7785 0.5814
H109 H 0.7599 0.7599 0.5765
C216 C 0.7513 0.8801 0.5973
O104 O 0.7425 0.6676 0.7059
N21 N 0.8179 0.7220 0.6381
C217 C 0.7958 0.7314 0.6711
H110 H 0.7992 0.7511 0.6794
C218 C 0.7699 0.7154 0.6924
H111 H 0.7554 0.7240 0.7146
C219 C 0.7635 0.6862 0.6831
C220 C 0.7885 0.6749 0.6520
H112 H 0.7860 0.6550 0.6448
C221 C 0.8168 0.6919 0.6313
H113 H 0.8355 0.6833 0.6126
C222 C 0.7173 0.6790 0.7398
O105 O 1.0192 0.6590 0.6284
N22 N 0.9040 0.7145 0.6105
C223 C 0.9237 0.7061 0.6486
H114 H 0.9133 0.7140 0.6739
C224 C 0.9605 0.6856 0.6570
H115 H 0.9719 0.6782 0.6854
C225 C 0.9769 0.6783 0.6172
C226 C 0.9553 0.6879 0.5748
H116 H 0.9657 0.6830 0.5479
C227 C 0.9207 0.7039 0.5758
H117 H 0.9047 0.7088 0.5476
O106 O 0.9840 0.8277 0.5279
N23 N 0.9001 0.7708 0.5787
C228 C 0.9381 0.7776 0.6021
H118 H 0.9454 0.7695 0.6309
C229 C 0.9691 0.7968 0.5864
H119 H 0.9963 0.8022 0.6038
C230 C 0.9556 0.8070 0.5422
C231 C 0.9164 0.8005 0.5179
H120 H 0.9079 0.8077 0.4887
C232 C 0.8888 0.7823 0.5387
H121 H 0.8602 0.7779 0.5231
C233 C 0.9694 0.8448 0.4901
O112 O 0.6665 0.2668 -0.6003
O113 O 0.5599 0.6044 0.4199
O114 O 0.8902 0.5977 0.6171
O115 O 0.6193 0.4390 -0.3590
O116 O 0.6123 0.7349 0.3331
O117 O 0.6277 0.5028 0.3684
O118 O 0.6754 0.5475 0.5563
O120 O 0.5769 0.3968 -0.5427
O121 O 0.4488 0.4587 0.3145
C252 C 0.6408 0.2472 -0.6302
C255 C 0.6427 0.4895 0.4107
C259 C 0.6333 0.7551 0.3527
C260 C 0.6617 0.5304 0.5919
C264 C 0.5351 0.5853 0.3994
C277 C 0.5782 0.4504 -0.3471
C278 C 0.9137 0.6056 0.5892
C48B C 0.6223 0.5282 -0.1823
C43B C 0.3492 0.4976 0.1690
C63A C 1.0135 0.8288 0.8249
C64C C 0.8609 0.8663 0.7743
C57A C 0.4698 0.6737 0.2980
C59C C 0.6047 0.3436 -0.2726
C72B C 0.4345 0.6945 0.5362
C67B C 0.5314 0.2899 -0.5150
C80_2 C 0.6766 0.3576 0.3910
C75_2 C 0.7103 0.3742 -0.6363
C88_2 C 0.8025 0.5272 -0.3734
C83_2 C 0.8152 0.5009 0.6546
C96B C 0.2378 0.4099 0.3426
C91B C 0.7515 0.5960 0.7038
C6? C 0.4872 0.3338 0.2282
H3? H 0.4677 0.3334 0.2008
C7? C 0.4613 0.3834 0.2402
C102? C 0.2678 0.3157 0.9719
C104? C 0.1636 0.6301 0.1510
C105? C 0.1699 0.6587 0.1441
C114? C 0.8801 0.4583 0.1044
N24? N 0.8906 0.1667 0.7954
O109? O 0.8752 0.1466 0.7701
C235? C 0.9291 0.1870 0.8636
C236? C 0.9735 0.1459 0.9050
C237? C 0.9535 0.1173 0.8829
C238? C 0.9075 0.1073 0.8462
N25? N 0.8843 0.1144 0.9565
C239? C 0.8835 0.1717 0.9526
C240? C 0.8903 0.1466 0.9688
C241? C 0.8467 0.1199 0.9152
C242? C 0.8367 0.1461 0.9047
O111? O 0.2394 1.0077 0.2458
C243? C 0.2764 0.9992 0.2883
C244? C 0.3167 0.9683 0.3327
C245? C 0.2649 0.9691 0.2886
C246? C 0.1985 0.9882 0.2214
C247? C 0.9663 0.0708 0.2133
C248? C 0.0951 0.0830 0.3107
C249? C 0.0091 0.1240 0.2740
C250? C 0.8542 0.4098 0.4959
C251? C 0.7986 0.4529 0.4219
O126? O 0.2258 0.1108 0.7008
O127? O 0.0375 0.1492 0.6223
O130? O 0.4006 0.1164 0.2485
O131? O 0.2166 0.2091 0.2047
O133? O 0.0693 0.0708 0.8330
O136? O 0.8350 0.0680 0.0772
C253? C 0.7945 0.4090 0.5906
C254? C 0.6168 0.2878 0.5925
C256? C 0.2487 0.3993 0.9792
C257? C 0.8403 0.0685 0.0527
C258? C 0.9580 0.7024 0.4538
C261? C 0.0108 0.6083 0.5174
C262? C 0.9311 0.6824 0.4056
C263? C 0.8387 0.2281 0.4719
C265? C 0.8952 0.3280 0.2182
C267? C 0.7467 0.2463 0.3414
C268? C 0.7640 0.0544 0.5615
C269? C 0.7031 0.4399 0.5656
C270? C 0.7693 0.3912 0.5323
C271? C 0.7880 0.2341 0.4933
C272? C 0.8614 0.0741 0.3890
C274? C 0.0659 0.1168 0.0869
C275? C 0.7100 0.4328 0.4593
C276? C 0.5841 0.0326 0.6191
C279? C 0.7113 0.4973 0.5043
C280? C 0.4874 0.4350 0.4813
C281? C 0.4444 0.4246 0.4644
C284? C 0.8589 0.1658 0.9314
C285? C 0.8540 0.4591 0.5737
C287? C 0.9963 0.2726 0.8591
C288? C 0.7534 0.4419 0.5637
C289? C 0.7162 0.2194 0.6209
C290? C 0.9204 0.1317 0.8411
C291? C 0.8336 0.1929 0.9201
C292? C 0.8042 0.4374 0.5798
C293? C 0.9081 0.1620 0.8359
C294? C 0.8333 0.4901 0.5443
C295? C 0.6132 0.1434 0.0224
C296? C 1.0107 0.0572 0.2424
C297? C 0.9561 0.1732 0.8825
C298? C 0.8977 0.0201 0.0062
loop_
_geom_bond_atom_site_label_1
_geom_bond_atom_site_label_2
_geom_bond_site_symmetry_1
_geom_bond_site_symmetry_2
Cu1 Cu2 1_555 1_555
Cu2 O10 1_555 1_555
Cu3 Cu4 1_555 1_555
Cu4 O3 1_555 1_555
Cu5 Cu6 1_555 1_555
Cu6 O1 1_555 1_555
Cu7 Cu8 1_555 1_555
Cu8 O35 1_555 1_555
Cu9 Cu10 1_555 1_555
Cu10 O21 1_555 1_555
Cu11 Cu12 1_555 1_555
Cu12 S3 1_555 1_555
Cu13 N4 1_555 1_555
Cu14 O5 1_555 1_555
Cu15 O14 1_555 1_555
Cu16 O19 1_555 1_555
Cu17 O33 1_555 1_555
S1 O5 1_555 1_555
O2 Cu5 1_555 1_555
O3 C8 1_555 1_555
O4 Cu3 1_555 1_555
O6 S1 1_555 1_555
O7 S1 1_555 1_555
C1 C2 1_555 1_555
C2 H1 1_555 1_555
C3 C2 1_555 1_555
C4 C3 1_555 1_555
H2 C4 1_555 1_555
C5 S1 1_555 1_555
C8 O4 1_555 1_555
S2 O12 1_555 1_555
O8 Cu6 1_555 1_555
O9 Cu5 1_555 1_555
O10 C16 1_555 1_555
O11 Cu1 1_555 1_555
O13 S2 1_555 1_555
O14 S2 1_555 1_555
C9 C10 1_555 1_555
C10 C11 1_555 1_555
C11 C12 1_555 1_555
C12 C13 1_555 1_555
C13 S2 1_555 1_555
C14 C9 1_555 1_555
C15 O8 1_555 1_555
C16 O11 1_555 1_555
S3 C23 1_555 1_555
O15 Cu11 1_555 1_555
O16 Cu2 1_555 1_555
O17 Cu1 1_555 1_555
C17 C18 1_555 1_555
C18 H4 1_555 1_555
C19 C18 1_555 1_555
C20 C19 1_555 1_555
H5 C20 1_555 1_555
C21 C20 1_555 1_555
C22 C17 1_555 1_555
H6 C22 1_555 1_555
C23 O15 1_555 1_555
C24 O16 1_555 1_555
S4 O25 1_555 1_555
O21 C31 1_555 1_555
O22 Cu9 1_555 1_555
O23 Cu2 1_555 1_555
O24 Cu1 1_555 1_555
O26 S4 1_555 1_555
O27 S4 1_555 1_555
C25 C26 1_555 1_555
C26 H7 1_555 1_555
C27 C26 1_555 1_555
C28 C27 1_555 1_555
H8 C28 1_555 1_555
C29 S4 1_555 1_555
C30 C25 1_555 1_555
H9 C30 1_555 1_555
C31 O22 1_555 1_555
C32 O23 1_555 1_555
S5 O32 1_555 1_555
O28 Cu12 1_555 1_555
O29 Cu11 1_555 1_555
O30 Cu10 1_555 1_555
O31 Cu9 1_555 1_555
O33 S5 1_555 1_555
O34 S5 1_555 1_555
C33 C34 1_555 1_555
C34 H10 1_555 1_555
C35 C34 1_555 1_555
C36 C35 1_555 1_555
H11 C36 1_555 1_555
C37 S5 1_555 1_555
C38 C33 1_555 1_555
H12 C38 1_555 1_555
C39 O28 1_555 1_555
C40 O30 1_555 1_555
S6 O39 1_555 1_555
O35 C47 1_555 1_555
O36 Cu7 1_555 1_555
O37 Cu6 1_555 1_555
O38 Cu5 1_555 1_555
O40 Cu15 1_555 1_555
O41 S6 1_555 1_555
C41 C42 1_555 1_555
C42 H13 1_555 1_555
C43 C42 1_555 1_555
C44 C43 1_555 1_555
H14 C44 1_555 1_555
C45 S6 1_555 1_555
C46 C41 1_555 1_555
H15 C46 1_555 1_555
C47 O36 1_555 1_555
C48 O37 1_555 1_555
S7 O46 1_555 1_555
O42 Cu4 1_555 1_555
O43 Cu3 1_555 1_555
O44 Cu8 1_555 1_555
O45 Cu7 1_555 1_555
O47 S7 1_555 1_555
O48 S7 1_555 1_555
C49 C50 1_555 1_555
C50 H16 1_555 1_555
C51 C50 1_555 1_555
C52 C51 1_555 1_555
H17 C52 1_555 1_555
C53 S7 1_555 1_555
C54 C49 1_555 1_555
H18 C54 1_555 1_555
C55 O42 1_555 1_555
C56 O44 1_555 1_555
S8 O53 1_555 1_555
O49 Cu10 1_555 1_555
O50 Cu9 1_555 1_555
O51 Cu8 1_555 1_555
O52 Cu7 1_555 1_555
O54 Cu17 1_555 1_555
O55 S8 1_555 1_555
C57 C58 1_555 1_555
C58 H19 1_555 1_555
C59 C58 1_555 1_555
C60 C59 1_555 1_555
H20 C60 1_555 1_555
C61 S8 1_555 1_555
C62 C57 1_555 1_555
H21 C62 1_555 1_555
C63 O49 1_555 1_555
C64 O51 1_555 1_555
S9 O60 1_555 1_555
O56 Cu10 1_555 1_555
O57 Cu9 1_555 1_555
O58 Cu4 1_555 1_555
O59 Cu3 1_555 1_555
O61 S9 1_555 1_555
O62 S9 1_555 1_555
C65 C66 1_555 1_555
C66 H22 1_555 1_555
C67 C66 1_555 1_555
C68 C67 1_555 1_555
H23 C68 1_555 1_555
C69 S9 1_555 1_555
C70 C65 1_555 1_555
H24 C70 1_555 1_555
C71 O56 1_555 1_555
C72 O58 1_555 1_555
S10 O67 1_555 1_555
O63 Cu2 1_555 1_555
O64 Cu1 1_555 1_555
O65 Cu4 1_555 1_555
O66 Cu3 1_555 1_555
O68 S10 1_555 1_555
O69 S10 1_555 1_555
C73 C74 1_555 1_555
C74 H25 1_555 1_555
C75 C74 1_555 1_555
C76 C75 1_555 1_555
H26 C76 1_555 1_555
C77 S10 1_555 1_555
C78 C73 1_555 1_555
H27 C78 1_555 1_555
C79 O63 1_555 1_555
C80 O65 1_555 1_555
S11 O74 1_555 1_555
O70 Cu8 1_555 1_555
O71 Cu7 1_555 1_555
O72 Cu12 1_555 1_555
O73 Cu11 1_555 1_555
O75 S11 1_555 1_555
O76 Cu16 1_555 1_555
C81 C82 1_555 1_555
C82 H28 1_555 1_555
C83 C82 1_555 1_555
C84 C83 1_555 1_555
H29 C84 1_555 1_555
C85 S11 1_555 1_555
C86 C81 1_555 1_555
H30 C86 1_555 1_555
C87 O70 1_555 1_555
C88 O72 1_555 1_555
S12 O81 1_555 1_555
O77 Cu6 1_555 1_555
O78 Cu5 1_555 1_555
O79 Cu12 1_555 1_555
O80 Cu11 1_555 1_555
O82 S12 1_555 1_555
O83 S12 1_555 1_555
C89 C90 1_555 1_555
C90 H31 1_555 1_555
C91 C90 1_555 1_555
C92 C91 1_555 1_555
H32 C92 1_555 1_555
C93 S12 1_555 1_555
C94 C89 1_555 1_555
H33 C94 1_555 1_555
C95 O77 1_555 1_555
C96 O79 1_555 1_555
O84 C99 1_555 1_555
N1 Cu6 1_555 1_555
C97 N1 1_555 1_555
H34 C97 1_555 1_555
C98 C97 1_555 1_555
H35 C98 1_555 1_555
C99 C98 1_555 1_555
C100 C99 1_555 1_555
H36 C100 1_555 1_555
C101 N1 1_555 1_555
H37 C101 1_555 1_555
O85 C108 1_555 1_555
N2 Cu8 1_555 1_555
C103 N2 1_555 1_555
C106 C107 1_555 1_555
C107 N2 1_555 1_555
O86 C111 1_555 1_555
N3 Cu2 1_555 1_555
C109 N3 1_555 1_555
H38 C109 1_555 1_555
C110 C109 1_555 1_555
H39 C110 1_555 1_555
C111 C110 1_555 1_555
C112 C111 1_555 1_555
H40 C112 1_555 1_555
C113 N3 1_555 1_555
H41 C113 1_555 1_555
O87 C117 1_555 1_555
N4 C115 1_555 1_555
C115 H42 1_555 1_555
C116 C115 1_555 1_555
H43 C116 1_555 1_555
C117 C116 1_555 1_555
C118 C117 1_555 1_555
H44 C118 1_555 1_555
C119 N4 1_555 1_555
H45 C119 1_555 1_555
C120 O87 1_555 1_555
O88 C123 1_555 1_555
N5 Cu13 1_555 1_555
C121 N5 1_555 1_555
H46 C121 1_555 1_555
C122 C121 1_555 1_555
H47 C122 1_555 1_555
C123 C122 1_555 1_555
C124 C123 1_555 1_555
H48 C124 1_555 1_555
C125 N5 1_555 1_555
H49 C125 1_555 1_555
C126 O88 1_555 1_555
O89 C129 1_555 1_555
N6 Cu13 1_555 1_555
C127 N6 1_555 1_555
H50 C127 1_555 1_555
C128 C127 1_555 1_555
H51 C128 1_555 1_555
C129 C128 1_555 1_555
C130 C129 1_555 1_555
H52 C130 1_555 1_555
C131 N6 1_555 1_555
H53 C131 1_555 1_555
C132 O89 1_555 1_555
O90 C135 1_555 1_555
N7 Cu13 1_555 1_555
C133 N7 1_555 1_555
H54 C133 1_555 1_555
C134 C133 1_555 1_555
H55 C134 1_555 1_555
C135 C134 1_555 1_555
C136 C135 1_555 1_555
H56 C136 1_555 1_555
C137 N7 1_555 1_555
H57 C137 1_555 1_555
C138 O90 1_555 1_555
O91 C141 1_555 1_555
N8 Cu14 1_555 1_555
C139 N8 1_555 1_555
H58 C139 1_555 1_555
C140 C139 1_555 1_555
H59 C140 1_555 1_555
C141 C140 1_555 1_555
C142 C141 1_555 1_555
H60 C142 1_555 1_555
C143 N8 1_555 1_555
H61 C143 1_555 1_555
C144 O91 1_555 1_555
O92 C147 1_555 1_555
N9 Cu14 1_555 1_555
C145 N9 1_555 1_555
H62 C145 1_555 1_555
C146 C145 1_555 1_555
H63 C146 1_555 1_555
C147 C146 1_555 1_555
C148 C147 1_555 1_555
H64 C148 1_555 1_555
C149 N9 1_555 1_555
H65 C149 1_555 1_555
C150 O92 1_555 1_555
O93 C153 1_555 1_555
N10 Cu14 1_555 1_555
C151 N10 1_555 1_555
H66 C151 1_555 1_555
C152 C151 1_555 1_555
H67 C152 1_555 1_555
C153 C152 1_555 1_555
C154 C153 1_555 1_555
H68 C154 1_555 1_555
C155 N10 1_555 1_555
H69 C155 1_555 1_555
C156 O93 1_555 1_555
O94 C159 1_555 1_555
N11 Cu14 1_555 1_555
C157 N11 1_555 1_555
H70 C157 1_555 1_555
C158 C157 1_555 1_555
H71 C158 1_555 1_555
C159 C158 1_555 1_555
C160 C159 1_555 1_555
H72 C160 1_555 1_555
C161 N11 1_555 1_555
H73 C161 1_555 1_555
C162 O94 1_555 1_555
O95 C165 1_555 1_555
N12 Cu15 1_555 1_555
C163 N12 1_555 1_555
H74 C163 1_555 1_555
C164 C163 1_555 1_555
H75 C164 1_555 1_555
C165 C164 1_555 1_555
C166 C165 1_555 1_555
H76 C166 1_555 1_555
C167 N12 1_555 1_555
H77 C167 1_555 1_555
C168 O95 1_555 1_555
O96 C171 1_555 1_555
N13 Cu15 1_555 1_555
C169 N13 1_555 1_555
H78 C169 1_555 1_555
C170 C169 1_555 1_555
H79 C170 1_555 1_555
C171 C170 1_555 1_555
C172 C171 1_555 1_555
H80 C172 1_555 1_555
C173 N13 1_555 1_555
H81 C173 1_555 1_555
C174 O96 1_555 1_555
O97 C177 1_555 1_555
N14 Cu15 1_555 1_555
C175 N14 1_555 1_555
H82 C175 1_555 1_555
C176 C175 1_555 1_555
H83 C176 1_555 1_555
C177 C176 1_555 1_555
C178 C177 1_555 1_555
H84 C178 1_555 1_555
C179 N14 1_555 1_555
H85 C179 1_555 1_555
C180 O97 1_555 1_555
O98 C183 1_555 1_555
N15 Cu15 1_555 1_555
C181 N15 1_555 1_555
H86 C181 1_555 1_555
C182 C181 1_555 1_555
H87 C182 1_555 1_555
C183 C182 1_555 1_555
C184 C183 1_555 1_555
H88 C184 1_555 1_555
C185 N15 1_555 1_555
H89 C185 1_555 1_555
C186 O98 1_555 1_555
O99 C189 1_555 1_555
N16 Cu16 1_555 1_555
C187 N16 1_555 1_555
H90 C187 1_555 1_555
C188 C187 1_555 1_555
H91 C188 1_555 1_555
C189 C188 1_555 1_555
C190 C189 1_555 1_555
H92 C190 1_555 1_555
C191 N16 1_555 1_555
H93 C191 1_555 1_555
C192 O99 1_555 1_555
O100 C195 1_555 1_555
N17 Cu16 1_555 1_555
C193 N17 1_555 1_555
H94 C193 1_555 1_555
C194 C193 1_555 1_555
H95 C194 1_555 1_555
C195 C194 1_555 1_555
C196 C195 1_555 1_555
H96 C196 1_555 1_555
C197 N17 1_555 1_555
H97 C197 1_555 1_555
C198 O100 1_555 1_555
O101 C201 1_555 1_555
N18 Cu16 1_555 1_555
C199 N18 1_555 1_555
H98 C199 1_555 1_555
C200 C199 1_555 1_555
H99 C200 1_555 1_555
C201 C200 1_555 1_555
C202 C201 1_555 1_555
H100 C202 1_555 1_555
C203 N18 1_555 1_555
H101 C203 1_555 1_555
C204 O101 1_555 1_555
O102 C207 1_555 1_555
N19 Cu16 1_555 1_555
C205 N19 1_555 1_555
H102 C205 1_555 1_555
C206 C205 1_555 1_555
H103 C206 1_555 1_555
C207 C206 1_555 1_555
C208 C207 1_555 1_555
H104 C208 1_555 1_555
C209 N19 1_555 1_555
H105 C209 1_555 1_555
C210 O102 1_555 1_555
O103 C213 1_555 1_555
N20 Cu17 1_555 1_555
C211 N20 1_555 1_555
H106 C211 1_555 1_555
C212 C211 1_555 1_555
H107 C212 1_555 1_555
C213 C212 1_555 1_555
C214 C213 1_555 1_555
H108 C214 1_555 1_555
C215 N20 1_555 1_555
H109 C215 1_555 1_555
C216 O103 1_555 1_555
O104 C219 1_555 1_555
N21 Cu17 1_555 1_555
C217 N21 1_555 1_555
H110 C217 1_555 1_555
C218 C217 1_555 1_555
H111 C218 1_555 1_555
C219 C218 1_555 1_555
C220 C219 1_555 1_555
H112 C220 1_555 1_555
C221 N21 1_555 1_555
H113 C221 1_555 1_555
C222 O104 1_555 1_555
O105 C225 1_555 1_555
N22 Cu17 1_555 1_555
C223 N22 1_555 1_555
H114 C223 1_555 1_555
C224 C223 1_555 1_555
H115 C224 1_555 1_555
C225 C224 1_555 1_555
C226 C225 1_555 1_555
H116 C226 1_555 1_555
C227 N22 1_555 1_555
H117 C227 1_555 1_555
O106 C230 1_555 1_555
N23 Cu17 1_555 1_555
C228 N23 1_555 1_555
H118 C228 1_555 1_555
C229 C228 1_555 1_555
H119 C229 1_555 1_555
C230 C229 1_555 1_555
C231 C230 1_555 1_555
H120 C231 1_555 1_555
C232 N23 1_555 1_555
H121 C232 1_555 1_555
C233 O106 1_555 1_555
O107 C234 1_555 1_555
O108 Cu13 1_555 1_555
O112 Cu4 1_555 1_555
O113 Cu9 1_555 1_555
O114 Cu12 1_555 1_555
O115 Cu7 1_555 1_555
O116 Cu10 1_555 1_555
O117 Cu1 1_555 1_555
O118 Cu11 1_555 1_555
O120 Cu3 1_555 1_555
O121 Cu5 1_555 1_555
O124 C273 1_555 1_555
O125 C283 1_555 1_555
O128 C286 1_555 1_555
O129 C282 1_555 1_555
O132 C266 1_555 1_555
C252 O112 1_555 1_555
C255 O117 1_555 1_555
C259 O116 1_555 1_555
C260 O118 1_555 1_555
C264 O113 1_555 1_555
C277 O115 1_555 1_555
C278 O114 1_555 1_555
C48B C43 1_555 1_555
C43B C48 1_555 1_555
C63A C57 1_555 1_555
C64C C59 1_555 1_555
C57A C63 1_555 1_555
C59C C64 1_555 1_555
C72B C67 1_555 1_555
C67B C72 1_555 1_555
C80_2 C75 1_555 1_555
C75_2 C80 1_555 1_555
C88_2 C83 1_555 1_555
C83_2 C88 1_555 1_555
C96B C91 1_555 1_555
C91B C96 1_555 1_555
C3 C8 1_555 1_555
C4 C5 1_555 1_555
O9 C15 1_555 1_555
C9 C15 1_555 1_555
C11 C16 1_555 1_555
C13 C14 1_555 1_555
O17 C24 1_555 1_555
C17 C23 1_555 1_555
C19 C24 1_555 1_555
C21 C22 1_555 1_555
O24 C32 1_555 1_555
C25 C31 1_555 1_555
C27 C32 1_555 1_555
C28 C29 1_555 1_555
C29 C30 1_555 1_555
O29 C39 1_555 1_555
O31 C40 1_555 1_555
C33 C39 1_555 1_555
C35 C40 1_555 1_555
C36 C37 1_555 1_555
C37 C38 1_555 1_555
S6 O40 1_555 1_555
O38 C48 1_555 1_555
C41 C47 1_555 1_555
C44 C45 1_555 1_555
C45 C46 1_555 1_555
O43 C55 1_555 1_555
O45 C56 1_555 1_555
C49 C55 1_555 1_555
C51 C56 1_555 1_555
C52 C53 1_555 1_555
C53 C54 1_555 1_555
S8 O54 1_555 1_555
O50 C63 1_555 1_555
O52 C64 1_555 1_555
C60 C61 1_555 1_555
C61 C62 1_555 1_555
O57 C71 1_555 1_555
O59 C72 1_555 1_555
C65 C71 1_555 1_555
C68 C69 1_555 1_555
C69 C70 1_555 1_555
O64 C79 1_555 1_555
O66 C80 1_555 1_555
C73 C79 1_555 1_555
C76 C77 1_555 1_555
C77 C78 1_555 1_555
S11 O76 1_555 1_555
O71 C87 1_555 1_555
O73 C88 1_555 1_555
C81 C87 1_555 1_555
C84 C85 1_555 1_555
C85 C86 1_555 1_555
O78 C95 1_555 1_555
O80 C96 1_555 1_555
C89 C95 1_555 1_555
C92 C93 1_555 1_555
C93 C94 1_555 1_555
C100 C101 1_555 1_555
C112 C113 1_555 1_555
C118 C119 1_555 1_555
C124 C125 1_555 1_555
C130 C131 1_555 1_555
C136 C137 1_555 1_555
C142 C143 1_555 1_555
C148 C149 1_555 1_555
C154 C155 1_555 1_555
C160 C161 1_555 1_555
C166 C167 1_555 1_555
C172 C173 1_555 1_555
C178 C179 1_555 1_555
C184 C185 1_555 1_555
C190 C191 1_555 1_555
C196 C197 1_555 1_555
C202 C203 1_555 1_555
C208 C209 1_555 1_555
C214 C215 1_555 1_555
C220 C221 1_555 1_555
C226 C227 1_555 1_555
C231 C232 1_555 1_555

#END
