
#######################################################################
#
#                 Cambridge Crystallographic Data Centre
#                                CCDC 
#
#######################################################################
#
# If this CIF has been generated from an entry in the Cambridge 
# Structural Database, then it will include bibliographic, chemical, 
# crystal, experimental, refinement or atomic coordinate data resulting 
# from the CCDC's data processing and validation procedures.
#
#######################################################################

data_ESATEY
_symmetry_cell_setting           orthorhombic
_symmetry_space_group_name_H-M   'A b a 2'
_symmetry_Int_Tables_number      41
_space_group_name_Hall           'A 2 -2ab'
loop_
_symmetry_equiv_pos_site_id
_symmetry_equiv_pos_as_xyz
1 x,y,z
2 -x,-y,z
3 1/2+x,1/2-y,z
4 1/2-x,1/2+y,z
5 x,1/2+y,1/2+z
6 -x,1/2-y,1/2+z
7 1/2+x,-y,1/2+z
8 1/2-x,y,1/2+z
_cell_length_a                   22.2072(7)
_cell_length_b                   13.0160(5)
_cell_length_c                   11.4239(7)
_cell_angle_alpha                90
_cell_angle_beta                 90
_cell_angle_gamma                90
_cell_volume                     3302.07
loop_
_atom_site_label
_atom_site_type_symbol
_atom_site_fract_x
_atom_site_fract_y
_atom_site_fract_z
Zn1 Zn 0.700580(17) 0.86831(3) 0.25386(6)
C1 C 0.6659(2) 1.0532(3) 0.1686(4)
C2 C 0.62534(18) 1.1386(3) 0.1269(4)
C3 C 0.64671(17) 1.2423(3) 0.1194(4)
C4 C 0.61262(18) 1.3147(3) 0.0650(4)
H1 H 0.6273 1.3814 0.0596
C5 C 0.5556(2) 1.2922(4) 0.0162(4)
C6 C 0.5200(2) 1.3666(3) -0.0397(5)
H2 H 0.5349 1.4329 -0.0487
C7 C 0.4634(2) 1.3436(4) -0.0815(5)
H3 H 0.4401 1.3937 -0.1179
C8 C 0.4414(2) 1.2427(4) -0.0680(5)
H4 H 0.4031 1.2266 -0.0954
C9 C 0.4746(2) 1.1698(4) -0.0166(4)
H5 H 0.4590 1.1037 -0.0099
C10 C 0.53298(19) 1.1907(4) 0.0280(4)
C11 C 0.56957(19) 1.1165(3) 0.0834(4)
H6 H 0.5551 1.0497 0.0905
C12 C 0.7026(2) 1.2753(4) 0.1820(5)
C13 C 0.66312(18) 0.6466(3) 0.2873(4)
H7 H 0.7033 0.6363 0.3069
C14 C 0.62515(18) 0.5628(3) 0.2843(4)
H8 H 0.6395 0.4974 0.3015
C15 C 0.56561(16) 0.5777(3) 0.2553(5)
C16 C 0.54601(19) 0.6765(3) 0.2330(4)
H9 H 0.5058 0.6893 0.2156
C17 C 0.58678(17) 0.7551(3) 0.2371(5)
H10 H 0.5733 0.8213 0.2207
N1 N 0.64459(13) 0.7420(2) 0.2633(5)
N2 N 0.52724(12) 0.4893(2) 0.2559(4)
O1 O 0.72121(14) 1.0636(2) 0.1615(3)
O2 O 0.72628(16) 0.9248(2) 0.4046(3)
H11 H 0.7385 0.8761 0.4482
H12 H 0.7185 0.9851 0.4287
O3 O 0.64044(13) 0.9721(2) 0.2054(3)
O5 O 0.74069(14) 1.3271(2) 0.1250(3)
O6 O 0.70824(16) 1.2591(3) 0.2878(3)
Zn1A Zn 0.299420(17) 0.13169(3) 0.25386(6)
Zn1C Zn 0.799420(17) 1.36831(3) 0.25386(6)
Zn1C_2 Zn 0.799420(17) 0.36831(3) 0.25386(6)
C1C C 0.8341(2) 0.5532(3) 0.1686(4)
C2C C 0.87466(18) 0.6386(3) 0.1269(4)
C3C C 0.85329(17) 0.7423(3) 0.1194(4)
C4C C 0.88738(18) 0.8147(3) 0.0650(4)
H1C H 0.8727 0.8814 0.0596
C5C C 0.9444(2) 0.7922(4) 0.0162(4)
C6C C 0.9800(2) 0.8666(3) -0.0397(5)
H2C H 0.9651 0.9329 -0.0487
C7C C 1.0366(2) 0.8436(4) -0.0815(5)
H3C H 1.0599 0.8937 -0.1179
C8C C 1.0586(2) 0.7427(4) -0.0680(5)
H4C H 1.0969 0.7266 -0.0954
C9C C 1.0254(2) 0.6698(4) -0.0166(4)
H5C H 1.0410 0.6037 -0.0099
C10C C 0.96702(19) 0.6907(4) 0.0280(4)
C11C C 0.93043(19) 0.6165(3) 0.0834(4)
H6C H 0.9449 0.5497 0.0905
C12C C 0.7974(2) 0.7753(4) 0.1820(5)
C13A C 0.33688(18) 0.3534(3) 0.2873(4)
H7A H 0.2967 0.3637 0.3069
C14A C 0.37485(18) 0.4372(3) 0.2843(4)
H8A H 0.3605 0.5026 0.3015
C15A C 0.43439(16) 0.4223(3) 0.2553(5)
C16A C 0.45399(19) 0.3235(3) 0.2330(4)
H9A H 0.4942 0.3107 0.2156
C17A C 0.41322(17) 0.2449(3) 0.2371(5)
H10A H 0.4267 0.1787 0.2207
N1A N 0.35541(13) 0.2580(2) 0.2633(5)
N2A N 0.47276(12) 0.5107(2) 0.2559(4)
O1C O 0.77879(14) 0.5636(2) 0.1615(3)
O2A O 0.27372(16) 0.0752(2) 0.4046(3)
H11A H 0.2615 0.1239 0.4482
H12A H 0.2815 0.0149 0.4287
O3C O 0.85956(13) 0.4721(2) 0.2054(3)
O3A O 0.35956(13) 0.0279(2) 0.2054(3)
O5C O 0.75931(14) 0.8271(2) 0.1250(3)
O5B O 0.24069(14) 0.1729(2) 0.1250(3)
O6C O 0.79176(16) 0.7591(3) 0.2878(3)
O4 O 0.69495(16) 0.1096(3) 0.4782(3)
H13 H 0.7325 0.1127 0.4922
H14 H 0.6805 0.1595 0.4391
loop_
_geom_bond_atom_site_label_1
_geom_bond_atom_site_label_2
_geom_bond_site_symmetry_1
_geom_bond_site_symmetry_2
Zn1 N1 1_555 1_555
C1 C2 1_555 1_555
C2 C3 1_555 1_555
C3 C4 1_555 1_555
C4 H1 1_555 1_555
C5 C4 1_555 1_555
C6 C5 1_555 1_555
H2 C6 1_555 1_555
C7 C6 1_555 1_555
H3 C7 1_555 1_555
C8 C7 1_555 1_555
H4 C8 1_555 1_555
C9 C8 1_555 1_555
H5 C9 1_555 1_555
C10 C5 1_555 1_555
C11 C2 1_555 1_555
H6 C11 1_555 1_555
C12 C3 1_555 1_555
C13 H7 1_555 1_555
C14 C13 1_555 1_555
H8 C14 1_555 1_555
C15 C14 1_555 1_555
C16 C15 1_555 1_555
H9 C16 1_555 1_555
C17 C16 1_555 1_555
H10 C17 1_555 1_555
N1 C13 1_555 1_555
N2 C15 1_555 1_555
O1 C1 1_555 1_555
O2 Zn1 1_555 1_555
H11 O2 1_555 1_555
H12 O2 1_555 1_555
O3 Zn1 1_555 1_555
O4 H13 1_555 1_555
H14 O4 1_555 1_555
O5 C12 1_555 1_555
O6 C12 1_555 1_555
Zn1A N1A 1_555 1_555
Zn1C O5 1_555 1_555
Zn1C_2 O3C 1_555 1_555
C1C C2C 1_555 1_555
C2C C3C 1_555 1_555
C3C C4C 1_555 1_555
C4C H1C 1_555 1_555
C5C C4C 1_555 1_555
C6C C5C 1_555 1_555
H2C C6C 1_555 1_555
C7C C6C 1_555 1_555
H3C C7C 1_555 1_555
C8C C7C 1_555 1_555
H4C C8C 1_555 1_555
C9C C8C 1_555 1_555
H5C C9C 1_555 1_555
C10C C5C 1_555 1_555
C11C C2C 1_555 1_555
H6C C11C 1_555 1_555
C12C C3C 1_555 1_555
C13A H7A 1_555 1_555
C14A C13A 1_555 1_555
H8A C14A 1_555 1_555
C15A C14A 1_555 1_555
C16A C15A 1_555 1_555
H9A C16A 1_555 1_555
C17A C16A 1_555 1_555
H10A C17A 1_555 1_555
N1A C13A 1_555 1_555
N2A N2 1_555 1_555
O1C C1C 1_555 1_555
O2A Zn1A 1_555 1_555
H11A O2A 1_555 1_555
H12A O2A 1_555 1_555
O3C C1C 1_555 1_555
O3A Zn1A 1_555 1_555
O5C Zn1 1_555 1_555
O5B Zn1A 1_555 1_555
O6C C12C 1_555 1_555
C1 O3 1_555 1_555
C9 C10 1_555 1_555
C10 C11 1_555 1_555
C17 N1 1_555 1_555
C9C C10C 1_555 1_555
C10C C11C 1_555 1_555
C12C O5C 1_555 1_555
C15A N2A 1_555 1_555
C17A N1A 1_555 1_555

#END
