
#######################################################################
#
#                 Cambridge Crystallographic Data Centre
#                                CCDC 
#
#######################################################################
#
# If this CIF has been generated from an entry in the Cambridge 
# Structural Database, then it will include bibliographic, chemical, 
# crystal, experimental, refinement or atomic coordinate data resulting 
# from the CCDC's data processing and validation procedures.
#
#######################################################################

data_ESATUO
_symmetry_cell_setting           triclinic
_symmetry_space_group_name_H-M   'P -1'
_symmetry_Int_Tables_number      2
_space_group_name_Hall           '-P 1'
loop_
_symmetry_equiv_pos_site_id
_symmetry_equiv_pos_as_xyz
1 x,y,z
2 -x,-y,-z
_cell_length_a                   9.8037(6)
_cell_length_b                   12.9170(7)
_cell_length_c                   13.5314(7)
_cell_angle_alpha                87.233(4)
_cell_angle_beta                 79.209(5)
_cell_angle_gamma                70.022(5)
_cell_volume                     1581.72
loop_
_atom_site_label
_atom_site_type_symbol
_atom_site_fract_x
_atom_site_fract_y
_atom_site_fract_z
Ag1 Ag -0.07317(3) 0.98413(2) 0.40136(2)
C1 C -0.3911(4) 1.1542(3) 0.4177(3)
H1 H -0.4179 1.0920 0.4331
C2 C -0.5013(4) 1.2560(3) 0.4203(3)
H2 H -0.6003 1.2622 0.4367
C3 C -0.4612(4) 1.3469(3) 0.3982(3)
C4 C -0.6620(4) 1.6304(3) 0.3689(3)
C5 C -0.8057(4) 1.6339(3) 0.3735(3)
H3 H -0.8293 1.5697 0.3782
C6 C -0.6280(4) 1.7260(3) 0.3601(3)
H4 H -0.5314 1.7245 0.3548
C7 C -0.3128(4) 1.3360(3) 0.3745(3)
H5 H -0.2837 1.3973 0.3595
C8 C -0.2102(4) 1.2319(3) 0.3738(3)
H6 H -0.1105 1.2239 0.3587
C17 C -0.3977(4) 0.9031(3) 0.7796(3)
C18 C -0.2725(3) 0.7930(2) 0.7509(3)
C19 C -0.2476(3) 0.7113(2) 0.8210(3)
H13 H -0.3070 0.7246 0.8845
C20 C -0.1344(4) 0.6072(3) 0.8001(3)
C21 C -0.1019(4) 0.5261(3) 0.8742(3)
H14 H -0.1576 0.5389 0.9388
C22 C 0.0107(4) 0.4291(3) 0.8510(4)
H15 H 0.0305 0.3755 0.8997
C23 C 0.0965(4) 0.4095(3) 0.7551(4)
H16 H 0.1744 0.3433 0.7410
C24 C 0.0685(4) 0.4856(3) 0.6812(3)
H17 H 0.1258 0.4712 0.6171
C25 C -0.0490(4) 0.5870(2) 0.7036(3)
C26 C -0.0797(3) 0.6714(2) 0.6304(3)
H18 H -0.0257 0.6576 0.5653
C27 C -0.1868(3) 0.7722(2) 0.6539(3)
C28 C -0.1926(4) 0.8595(3) 0.5721(3)
C30 C -0.9128(4) 1.7360(3) 0.3708(3)
H20 H -1.0094 1.7390 0.3729
C31 C -0.7454(4) 1.8256(3) 0.3596(3)
H21 H -0.7250 1.8911 0.3550
N1 N -0.2474(3) 1.1417(2) 0.3940(2)
N2 N -0.8854(3) 1.8305(2) 0.3655(2)
N7 N -0.5401(3) 1.5296(2) 0.3695(2)
N8 N -0.5801(3) 1.4502(2) 0.3990(2)
O1 O -0.1268(3) 0.92406(18) 0.5827(2)
O2 O -0.2466(3) 0.8510(2) 0.4986(2)
O3 O -0.4372(3) 0.96376(18) 0.71078(19)
O4 O -0.4526(3) 0.92003(17) 0.8710(2)
Ag1_2 Ag -1.07317(3) 1.98413(2) 0.40136(2)
N2_2 N 0.1146(3) 0.8305(2) 0.3655(2)
Ag2 Ag 1.08834(3) -0.02775(2) 0.12830(3)
C9 C 0.9537(4) 0.2227(3) 0.1118(3)
H7 H 1.0530 0.2156 0.1026
C10 C 0.7763(4) 0.1420(3) 0.1406(3)
H8 H 0.7499 0.0792 0.1514
C11 C 0.6667(4) 0.2434(3) 0.1404(3)
H9 H 0.5681 0.2485 0.1505
C12 C 0.8524(4) 0.3265(3) 0.1101(3)
H10 H 0.8813 0.3882 0.0992
C13 C 0.7048(4) 0.3356(3) 0.1252(3)
C14 C 0.4993(4) 0.6211(3) 0.1102(3)
C15 C 0.3556(4) 0.6244(2) 0.1203(3)
H11 H 0.3323 0.5601 0.1244
C16 C 0.5308(4) 0.7172(3) 0.1044(3)
H12 H 0.6277 0.7156 0.0977
C29 C 0.2467(4) 0.7276(3) 0.1240(3)
H19 H 0.1490 0.7312 0.1306
C32 C 0.4158(4) 0.8165(2) 0.1085(3)
H22 H 0.4366 0.8818 0.1042
N3 N 0.9183(3) 0.1316(2) 0.1259(2)
N4 N 0.2755(3) 0.8212(2) 0.1185(2)
N5 N 0.6230(3) 0.5194(2) 0.1056(2)
N6 N 0.5844(3) 0.4391(2) 0.1283(2)
Ag2_2 Ag 0.08834(3) 0.97225(2) 0.12830(3)
N4_2 N 1.2755(3) -0.1788(2) 0.1185(2)
O5 O 0.9017(2) -0.14019(16) 0.1450(2)
H23 H 0.8403 -0.1325 0.1061
H24 H 0.8442 -0.1566 0.1935
O6 O 0.6978(2) 0.92934(17) 0.01915(18)
H25 H 0.6203 0.9702 0.0568
H26 H 0.6563 0.9233 -0.0291
O7 O 0.6840(3) 0.86147(19) 0.30908(19)
H27 H 0.6758 0.8586 0.3727
H28 H 0.6121 0.9220 0.3157
loop_
_geom_bond_atom_site_label_1
_geom_bond_atom_site_label_2
_geom_bond_site_symmetry_1
_geom_bond_site_symmetry_2
Ag1 N1 1_555 1_555
Ag2 N3 1_555 1_555
C1 H1 1_555 1_555
C2 C1 1_555 1_555
H2 C2 1_555 1_555
C3 C2 1_555 1_555
C4 C5 1_555 1_555
C5 H3 1_555 1_555
C6 C4 1_555 1_555
H4 C6 1_555 1_555
C7 C3 1_555 1_555
H5 C7 1_555 1_555
C8 C7 1_555 1_555
H6 C8 1_555 1_555
C9 H7 1_555 1_555
C10 H8 1_555 1_555
C11 C10 1_555 1_555
H9 C11 1_555 1_555
C12 C9 1_555 1_555
H10 C12 1_555 1_555
C13 C11 1_555 1_555
C14 C15 1_555 1_555
C15 H11 1_555 1_555
C16 C14 1_555 1_555
H12 C16 1_555 1_555
C17 C18 1_555 1_555
C18 C19 1_555 1_555
C19 H13 1_555 1_555
C20 C19 1_555 1_555
C21 C20 1_555 1_555
H14 C21 1_555 1_555
C22 C21 1_555 1_555
H15 C22 1_555 1_555
C23 C22 1_555 1_555
H16 C23 1_555 1_555
C24 C23 1_555 1_555
H17 C24 1_555 1_555
C25 C20 1_555 1_555
C26 C25 1_555 1_555
H18 C26 1_555 1_555
C27 C18 1_555 1_555
C28 C27 1_555 1_555
C29 C15 1_555 1_555
H19 C29 1_555 1_555
C30 C5 1_555 1_555
H20 C30 1_555 1_555
C31 C6 1_555 1_555
H21 C31 1_555 1_555
C32 C16 1_555 1_555
H22 C32 1_555 1_555
N1 C1 1_555 1_555
N2 C30 1_555 1_555
N3 C9 1_555 1_555
N4 C29 1_555 1_555
N5 C14 1_555 1_555
N6 C13 1_555 1_555
N7 C4 1_555 1_555
N8 C3 1_555 1_555
O1 Ag1 1_555 1_555
O2 C28 1_555 1_555
O3 C17 1_555 1_555
O4 C17 1_555 1_555
O5 H23 1_555 1_555
H24 O5 1_555 1_555
O6 H25 1_555 1_555
H26 O6 1_555 1_555
O7 H27 1_555 1_555
H28 O7 1_555 1_555
Ag1_2 N2 1_555 1_555
Ag2_2 N4 1_555 1_555
N2_2 Ag1 1_555 1_555
N4_2 Ag2 1_555 1_555
C8 N1 1_555 1_555
C10 N3 1_555 1_555
C12 C13 1_555 1_555
C24 C25 1_555 1_555
C26 C27 1_555 1_555
C28 O1 1_555 1_555
C31 N2 1_555 1_555
C32 N4 1_555 1_555
N5 N6 1_555 1_555
N7 N8 1_555 1_555

#END
