
#######################################################################
#
#                 Cambridge Crystallographic Data Centre
#                                CCDC 
#
#######################################################################
#
# If this CIF has been generated from an entry in the Cambridge 
# Structural Database, then it will include bibliographic, chemical, 
# crystal, experimental, refinement or atomic coordinate data resulting 
# from the CCDC's data processing and validation procedures.
#
#######################################################################

data_ESATIC
_symmetry_cell_setting           monoclinic
_symmetry_space_group_name_H-M   'P 21/c'
_symmetry_Int_Tables_number      14
_space_group_name_Hall           '-P 2ybc'
loop_
_symmetry_equiv_pos_site_id
_symmetry_equiv_pos_as_xyz
1 x,y,z
2 -x,1/2+y,1/2-z
3 -x,-y,-z
4 x,1/2-y,1/2+z
_cell_length_a                   17.195(4)
_cell_length_b                   6.2492(7)
_cell_length_c                   10.7732(14)
_cell_angle_alpha                90
_cell_angle_beta                 100.507(16)
_cell_angle_gamma                90
_cell_volume                     1138.22
loop_
_atom_site_label
_atom_site_type_symbol
_atom_site_fract_x
_atom_site_fract_y
_atom_site_fract_z
Ag1 Ag 0.57595(4) 0.66454(9) 0.57729(5)
Ag2 Ag 0.54648(5) 0.05234(10) 0.71787(6)
C1 C 0.5957(5) 0.1715(11) 0.4642(7)
C2 C 0.6734(5) 0.0866(11) 0.5218(7)
C3 C 0.7160(5) 0.1692(12) 0.6304(7)
H1 H 0.6947 0.2810 0.6703
C4 C 0.7909(6) 0.0909(13) 0.6837(8)
C5 C 0.8353(6) 0.1740(16) 0.7969(8)
H2 H 0.8151 0.2879 0.8366
C6 C 0.9060(7) 0.0918(19) 0.8480(10)
H3 H 0.9341 0.1502 0.9221
C7 C 0.9379(7) -0.080(2) 0.7915(10)
H4 H 0.9864 -0.1382 0.8286
C8 C 0.8970(7) -0.1616(17) 0.6814(10)
H5 H 0.9195 -0.2718 0.6418
C9 C 0.8230(6) -0.0851(13) 0.6264(8)
C10 C 0.7789(5) -0.1643(13) 0.5136(7)
H6 H 0.8001 -0.2747 0.4725
C11 C 0.7082(5) -0.0889(11) 0.4629(6)
C12 C 0.6589(5) -0.1941(11) 0.3471(7)
O1 O 0.5528(3) 0.2588(8) 0.5357(5)
O2 O 0.5730(4) 0.1508(8) 0.3475(4)
O3 O 0.6043(4) -0.3151(8) 0.3683(5)
O4 O 0.6748(3) -0.1597(8) 0.2419(5)
Ag1_2 Ag 0.57595(4) -0.33546(9) 0.57729(5)
Ag1B Ag 0.42405(4) 0.33546(9) 0.42271(5)
Ag1C Ag 0.57595(4) -0.16454(9) 0.07729(5)
Ag2_2 Ag 0.54648(5) 1.05234(10) 0.71787(6)
Ag2B Ag 0.45352(5) -0.05234(10) 0.28213(6)
Ag2C Ag 0.54648(5) 0.44766(10) 0.21787(6)
Ag2C_2 Ag 0.54648(5) -0.55234(10) 0.21787(6)
O1B O 0.4472(3) 0.7412(8) 0.4643(5)
O2B O 0.4270(4) -0.1508(8) 0.6525(4)
O2C O 0.5730(4) 0.3492(8) 0.8475(4)
O3_2 O 0.6043(4) 0.6849(8) 0.3683(5)
O3C O 0.6043(4) -0.1849(8) 0.8683(5)
O4C O 0.6748(3) 0.6597(8) 0.7419(5)
loop_
_geom_bond_atom_site_label_1
_geom_bond_atom_site_label_2
_geom_bond_site_symmetry_1
_geom_bond_site_symmetry_2
Ag1 O1 1_555 1_555
Ag2 O1 1_555 1_555
C1 C2 1_555 1_555
C2 C3 1_555 1_555
C3 H1 1_555 1_555
C4 C3 1_555 1_555
C5 C4 1_555 1_555
H2 C5 1_555 1_555
C6 C5 1_555 1_555
H3 C6 1_555 1_555
C7 C6 1_555 1_555
H4 C7 1_555 1_555
C8 C7 1_555 1_555
H5 C8 1_555 1_555
C9 C4 1_555 1_555
C10 C9 1_555 1_555
H6 C10 1_555 1_555
C11 C2 1_555 1_555
C12 C11 1_555 1_555
O1 C1 1_555 1_555
O2 C1 1_555 1_555
O3 C12 1_555 1_555
O4 C12 1_555 1_555
Ag1_2 Ag2 1_555 1_555
Ag1B O1 1_555 1_555
Ag1C O4 1_555 1_555
Ag2_2 Ag1 1_555 1_555
Ag2B O2 1_555 1_555
Ag2C O2 1_555 1_555
Ag2C_2 O3 1_555 1_555
O1B Ag1 1_555 1_555
O2B Ag2 1_555 1_555
O2C Ag2 1_555 1_555
O3_2 Ag1 1_555 1_555
O3C Ag2 1_555 1_555
O4C Ag1 1_555 1_555
C8 C9 1_555 1_555
C10 C11 1_555 1_555
O3 Ag1_2 1_555 1_555
Ag1B Ag2B 1_555 1_555
Ag1B O1B 1_555 1_555
Ag1C Ag2C_2 1_555 1_555
Ag2C O3_2 1_555 1_555

#END
