
#######################################################################
#
#                 Cambridge Crystallographic Data Centre
#                                CCDC 
#
#######################################################################
#
# If this CIF has been generated from an entry in the Cambridge 
# Structural Database, then it will include bibliographic, chemical, 
# crystal, experimental, refinement or atomic coordinate data resulting 
# from the CCDC's data processing and validation procedures.
#
#######################################################################

data_ESATOI
_symmetry_cell_setting           monoclinic
_symmetry_space_group_name_H-M   'P 21/c'
_symmetry_Int_Tables_number      14
_space_group_name_Hall           '-P 2ybc'
loop_
_symmetry_equiv_pos_site_id
_symmetry_equiv_pos_as_xyz
1 x,y,z
2 -x,1/2+y,1/2-z
3 -x,-y,-z
4 x,1/2-y,1/2+z
_cell_length_a                   10.9218(4)
_cell_length_b                   17.1519(5)
_cell_length_c                   22.5719(6)
_cell_angle_alpha                90
_cell_angle_beta                 99.906(3)
_cell_angle_gamma                90
_cell_volume                     4165.35
loop_
_atom_site_label
_atom_site_type_symbol
_atom_site_fract_x
_atom_site_fract_y
_atom_site_fract_z
Ag1 Ag -0.48297(4) 0.22106(2) 1.088650(18)
Ag2 Ag -0.16863(4) 0.23141(2) 1.143196(17)
C1 C -0.3321(5) 0.0321(3) 1.1149(3)
C2 C -0.2699(4) 0.0178(2) 1.1797(2)
C3 C -0.3419(4) 0.0048(2) 1.2226(2)
H1 H -0.4279 0.0043 1.2113
C4 C -0.2886(4) -0.0081(2) 1.2844(2)
C5 C -0.3624(5) -0.0158(2) 1.3294(3)
H2 H -0.4487 -0.0154 1.3194
C6 C -0.3048(6) -0.0240(3) 1.3890(3)
H3 H -0.3532 -0.0275 1.4190
C7 C -0.1784(6) -0.0272(3) 1.4041(3)
H4 H -0.1420 -0.0330 1.4442
C8 C -0.1045(5) -0.0219(3) 1.3612(3)
H5 H -0.0186 -0.0246 1.3723
C9 C -0.1585(5) -0.0123(2) 1.3002(2)
C10 C -0.0873(4) -0.0025(2) 1.2545(3)
H6 H -0.0014 -0.0073 1.2644
C11 C -0.1388(4) 0.0139(2) 1.1953(2)
C12 C -0.0533(4) 0.0342(3) 1.1521(2)
C13 C -0.5380(4) 0.1759(3) 1.2121(2)
H7 H -0.5607 0.1294 1.1920
C14 C -0.5409(4) 0.1796(3) 1.2719(2)
H8 H -0.5650 0.1362 1.2917
C15 C -0.5082(4) 0.2477(3) 1.3034(2)
C16 C -0.4742(4) 0.3104(3) 1.2707(2)
H9 H -0.4522 0.3578 1.2896
C17 C -0.4732(4) 0.3018(3) 1.2102(2)
H10 H -0.4499 0.3443 1.1891
C18 C -0.5061(4) 0.2547(3) 1.3690(2)
C19 C -0.5213(4) 0.3255(3) 1.3963(2)
H11 H -0.5350 0.3707 1.3733
C20 C -0.4842(4) 0.1902(3) 1.4071(2)
H12 H -0.4733 0.1412 1.3912
C21 C -0.5162(4) 0.3286(3) 1.4576(2)
H13 H -0.5290 0.3764 1.4749
C22 C -0.4789(4) 0.1989(3) 1.4678(2)
H14 H -0.4639 0.1551 1.4923
C23 C -0.2043(4) 0.3133(3) 0.7670(2)
H15 H -0.2262 0.3596 0.7464
C24 C -0.1445(4) 0.1860(3) 0.7661(2)
H16 H -0.1236 0.1427 0.7452
C25 C -0.1420(4) 0.1794(3) 0.8274(2)
H17 H -0.1216 0.1322 0.8468
C26 C -0.2030(4) 0.3118(3) 0.8282(2)
H18 H -0.2242 0.3561 0.8480
C27 C -0.1701(4) 0.2441(3) 0.8599(2)
C28 C -0.1673(4) 0.2409(3) 0.9252(2)
C29 C -0.1916(4) 0.1734(3) 0.9539(2)
H19 H -0.2092 0.1280 0.9316
C30 C -0.1412(4) 0.3070(3) 0.9610(2)
H20 H -0.1227 0.3538 0.9437
C31 C -0.1905(4) 0.1718(3) 1.0147(2)
H21 H -0.2058 0.1251 1.0330
C32 C -0.1426(4) 0.3032(3) 1.0215(2)
H22 H -0.1256 0.3482 1.0444
N1 N -0.5040(3) 0.2360(2) 1.18049(17)
N2 N -0.4942(3) 0.2676(3) 1.49315(17)
N3 N -0.1756(3) 0.2517(2) 0.73595(17)
N4 N -0.1676(3) 0.2372(3) 1.04865(17)
O1 O -0.4226(3) 0.0761(2) 1.10505(16)
O2 O -0.2898(3) -0.0044(2) 1.07552(17)
O3 O -0.0576(2) 0.10280(18) 1.13285(13)
O4 O 0.0232(3) -0.01549(18) 1.14160(18)
Ag1C Ag -0.48297(4) 0.27894(2) 1.588650(18)
Ag2C Ag -0.16863(4) 0.26859(2) 0.643196(17)
N2C N -0.4942(3) 0.2324(3) 0.99315(17)
N3C N -0.1756(3) 0.2483(2) 1.23595(17)
Ag3 Ag 0.13979(4) 0.18921(2) 1.120633(18)
C33 C 0.1754(4) 0.2860(3) 1.2411(2)
H23 H 0.1879 0.3267 1.2156
C34 C 0.1830(4) 0.3028(3) 1.3014(2)
H24 H 0.2005 0.3531 1.3157
C35 C 0.1638(3) 0.2432(3) 1.3403(2)
C36 C 0.1410(4) 0.1704(3) 1.3158(2)
H25 H 0.1294 0.1284 1.3402
C37 C 0.1353(4) 0.1596(3) 1.2551(2)
H26 H 0.1190 0.1097 1.2396
C38 C 0.1659(4) 0.2579(3) 1.4050(2)
C39 C 0.1422(4) 0.3309(3) 1.4262(2)
H27 H 0.1272 0.3725 1.3994
C40 C 0.1921(4) 0.1994(3) 1.4484(2)
H28 H 0.2121 0.1495 1.4371
C41 C 0.1885(4) 0.2154(3) 1.5078(2)
H29 H 0.2053 0.1751 1.5356
C42 C 0.1404(4) 0.3430(3) 1.4868(2)
H30 H 0.1234 0.3928 1.4995
N5 N 0.1518(3) 0.2164(2) 1.21709(17)
N6 N 0.1622(3) 0.2858(2) 1.52767(18)
O9 O 0.2313(3) 0.05436(15) 1.12808(15)
H31 H 0.1617 0.0439 1.1064
H32 H 0.2978 0.0427 1.1153
Ag3C Ag 0.13979(4) 0.31079(2) 1.620633(18)
N6C N 0.1622(3) 0.2142(2) 1.02767(18)
O5 O 0.7772(4) 0.4884(2) 0.0610(2)
O6 O 0.7908(5) 0.4496(4) 0.1554(3)
O7 O 0.6348(5) 0.4032(3) 0.0937(2)
O8 O 0.6425(5) 0.5290(3) 0.1192(3)
Cl1 Cl 0.70506(13) 0.46789(8) 0.10387(7)
O10 O -0.3628(3) -0.00365(18) 0.95515(16)
H33 H -0.3421 -0.0050 0.9932
H34 H -0.4275 -0.0315 0.9455
O11 O 0.34743(13) 0.98648(8) 0.23407(7)
H35 H 0.3025 1.0161 0.2091
H36 H 0.3103 0.9841 0.2642
loop_
_geom_bond_atom_site_label_1
_geom_bond_atom_site_label_2
_geom_bond_site_symmetry_1
_geom_bond_site_symmetry_2
Ag1 N1 1_555 1_555
Ag2 N4 1_555 1_555
Ag3 N5 1_555 1_555
C1 C2 1_555 1_555
C2 C3 1_555 1_555
C3 H1 1_555 1_555
C4 C3 1_555 1_555
C5 C4 1_555 1_555
H2 C5 1_555 1_555
C6 C5 1_555 1_555
H3 C6 1_555 1_555
C7 C6 1_555 1_555
H4 C7 1_555 1_555
C8 C7 1_555 1_555
H5 C8 1_555 1_555
C9 C4 1_555 1_555
C10 C9 1_555 1_555
H6 C10 1_555 1_555
C11 C2 1_555 1_555
C12 C11 1_555 1_555
C13 H7 1_555 1_555
C14 C13 1_555 1_555
H8 C14 1_555 1_555
C15 C14 1_555 1_555
C16 C15 1_555 1_555
H9 C16 1_555 1_555
C17 C16 1_555 1_555
H10 C17 1_555 1_555
C18 C15 1_555 1_555
C19 C18 1_555 1_555
H11 C19 1_555 1_555
C20 C18 1_555 1_555
H12 C20 1_555 1_555
C21 C19 1_555 1_555
H13 C21 1_555 1_555
C22 C20 1_555 1_555
H14 C22 1_555 1_555
C23 H15 1_555 1_555
C24 H16 1_555 1_555
C25 C24 1_555 1_555
H17 C25 1_555 1_555
C26 C23 1_555 1_555
H18 C26 1_555 1_555
C27 C25 1_555 1_555
C28 C27 1_555 1_555
C29 C28 1_555 1_555
H19 C29 1_555 1_555
C30 C28 1_555 1_555
H20 C30 1_555 1_555
C31 C29 1_555 1_555
H21 C31 1_555 1_555
C32 C30 1_555 1_555
H22 C32 1_555 1_555
C33 H23 1_555 1_555
C34 C33 1_555 1_555
H24 C34 1_555 1_555
C35 C34 1_555 1_555
C36 C35 1_555 1_555
H25 C36 1_555 1_555
C37 C36 1_555 1_555
H26 C37 1_555 1_555
C38 C35 1_555 1_555
C39 C38 1_555 1_555
H27 C39 1_555 1_555
C40 C38 1_555 1_555
H28 C40 1_555 1_555
C41 C40 1_555 1_555
H29 C41 1_555 1_555
C42 C39 1_555 1_555
H30 C42 1_555 1_555
N1 C13 1_555 1_555
N2 C21 1_555 1_555
N3 C23 1_555 1_555
N4 C31 1_555 1_555
N5 C33 1_555 1_555
N6 C41 1_555 1_555
O1 Ag1 1_555 1_555
O2 C1 1_555 1_555
O3 Ag2 1_555 1_555
O4 C12 1_555 1_555
O5 Cl1 1_555 1_555
O6 Cl1 1_555 1_555
O7 Cl1 1_555 1_555
O8 Cl1 1_555 1_555
O9 Ag3 1_555 1_555
H31 O9 1_555 1_555
H32 O9 1_555 1_555
O10 H33 1_555 1_555
H34 O10 1_555 1_555
O11 H35 1_555 1_555
H36 O11 1_555 1_555
Ag1C N2 1_555 1_555
Ag2C N3 1_555 1_555
Ag3C N6 1_555 1_555
N2C Ag1 1_555 1_555
N3C Ag2 1_555 1_555
N6C Ag3 1_555 1_555
C1 O1 1_555 1_555
C8 C9 1_555 1_555
C10 C11 1_555 1_555
C12 O3 1_555 1_555
C17 N1 1_555 1_555
C22 N2 1_555 1_555
C24 N3 1_555 1_555
C26 C27 1_555 1_555
C32 N4 1_555 1_555
C37 N5 1_555 1_555
C42 N6 1_555 1_555

#END
