
#######################################################################
#
#                 Cambridge Crystallographic Data Centre
#                                CCDC 
#
#######################################################################
#
# If this CIF has been generated from an entry in the Cambridge 
# Structural Database, then it will include bibliographic, chemical, 
# crystal, experimental, refinement or atomic coordinate data resulting 
# from the CCDC's data processing and validation procedures.
#
#######################################################################

data_ESAVOJ
_symmetry_cell_setting           monoclinic
_symmetry_space_group_name_H-M   'P 21/c'
_symmetry_Int_Tables_number      14
_space_group_name_Hall           '-P 2ybc'
loop_
_symmetry_equiv_pos_site_id
_symmetry_equiv_pos_as_xyz
1 x,y,z
2 x,1/2-y,1/2+z
3 -x,-y,-z
4 -x,1/2+y,1/2-z
_cell_length_a                   14.6911(2)
_cell_length_b                   11.9018(2)
_cell_length_c                   23.3036(3)
_cell_angle_alpha                90
_cell_angle_beta                 99.952(2)
_cell_angle_gamma                90
_cell_volume                     4013.34
loop_
_atom_site_label
_atom_site_type_symbol
_atom_site_fract_x
_atom_site_fract_y
_atom_site_fract_z
Cd1 Cd 0.41067(5) -0.09710(6) 0.28780(3)
Cd2 Cd 0.19802(4) 0.21784(6) 0.26469(3)
N1 N 0.4030(5) -0.0312(7) 0.1924(3)
N2 N 0.3904(6) 0.1445(8) -0.0993(4)
C1 C 0.3711(7) -0.0972(9) 0.1468(4)
H1 H 0.3509 -0.1709 0.1540
C2 C 0.3662(7) -0.0632(9) 0.0898(4)
H2 H 0.3415 -0.1124 0.0589
C3 C 0.3972(6) 0.0424(8) 0.0776(4)
C4 C 0.4288(7) 0.1104(9) 0.1250(4)
H3 H 0.4494 0.1845 0.1191
C5 C 0.4305(7) 0.0718(9) 0.1801(5)
H4 H 0.4525 0.1208 0.2116
C6 C 0.3309(8) 0.0677(9) -0.0852(4)
H5 H 0.2872 0.0355 -0.1155
C7 C 0.3304(7) 0.0336(9) -0.0290(4)
H6 H 0.2863 -0.0200 -0.0209
C8 C 0.3954(7) 0.0786(8) 0.0162(4)
C9 C 0.4550(7) 0.1582(9) 0.0011(4)
H7 H 0.4995 0.1922 0.0304
C10 C 0.4507(7) 0.1883(10) -0.0556(4)
H8 H 0.4928 0.2435 -0.0646
N3 N 0.2056(5) 0.2336(7) 0.1667(3)
N4 N 0.1883(5) 0.2944(6) -0.1373(3)
C11 C 0.1792(6) 0.1496(8) 0.1298(4)
H9 H 0.1635 0.0795 0.1450
C12 C 0.1738(7) 0.1603(8) 0.0703(4)
H10 H 0.1537 0.0986 0.0455
C13 C 0.1977(6) 0.2611(8) 0.0466(4)
C14 C 0.2264(6) 0.3479(8) 0.0854(4)
H11 H 0.2443 0.4183 0.0716
C15 C 0.2286(6) 0.3309(9) 0.1441(4)
H12 H 0.2476 0.3915 0.1700
C16 C 0.1256(7) 0.2321(8) -0.1157(4)
H13 H 0.0787 0.1951 -0.1422
C17 C 0.1267(6) 0.2196(8) -0.0565(4)
H14 H 0.0825 0.1726 -0.0431
C18 C 0.1921(6) 0.2756(8) -0.0169(4)
C19 C 0.2548(7) 0.3443(8) -0.0394(4)
H15 H 0.2993 0.3868 -0.0139
C20 C 0.2514(7) 0.3500(8) -0.0994(4)
H16 H 0.2956 0.3951 -0.1140
N6 N 0.2775(5) -0.1907(6) 0.3121(3)
C26 C 0.2706(7) -0.1594(10) 0.3721(4)
H21 H 0.2370 -0.2194 0.3893
H22 H 0.2338 -0.0896 0.3714
C27 C 0.3639(9) -0.1411(10) 0.4110(5)
O1 O 0.4343(5) -0.1286(7) 0.3876(3)
O2 O 0.3647(7) -0.1387(9) 0.4651(3)
C28 C 0.1988(7) -0.1462(9) 0.2704(4)
H23 H 0.1403 -0.1684 0.2829
H24 H 0.1993 -0.1793 0.2315
C29 C 0.2029(7) -0.0201(8) 0.2662(4)
O3 O 0.1303(5) 0.0335(5) 0.2500(3)
O4 O 0.2805(4) 0.0275(5) 0.2803(3)
C30 C 0.2873(8) -0.3119(8) 0.3066(5)
H25 H 0.2248 -0.3457 0.2985
H26 H 0.3189 -0.3419 0.3444
C31 C 0.3402(7) -0.3493(9) 0.2596(4)
O5 O 0.3965(5) -0.2810(5) 0.2434(3)
O6 O 0.3283(5) -0.4479(6) 0.2418(3)
O7 O 0.5652(5) -0.1280(6) 0.2912(3)
H27 H 0.587(7) -0.165(6) 0.264(3)
H28 H 0.550(7) -0.175(5) 0.317(3)
O8 O 0.4890(5) 0.0887(6) 0.3232(3)
H29 H 0.459(6) 0.074(9) 0.352(3)
H30 H 0.535(5) 0.135(8) 0.335(4)
O9 O 0.0392(4) 0.2625(6) 0.2439(3)
H31 H 0.004(5) 0.203(4) 0.239(4)
H32 H 0.021(6) 0.311(5) 0.216(3)
O10 O 0.1991(5) 0.4136(5) 0.2757(3)
H33 H 0.243(4) 0.454(5) 0.264(4)
H34 H 0.148(3) 0.454(5) 0.274(4)
O11 O 0.3589(4) 0.2587(5) 0.2929(3)
H35 H 0.365(6) 0.304(5) 0.323(2)
H36 H 0.380(6) 0.192(3) 0.304(3)
N3A N 0.2056(5) 0.2664(7) 0.6667(3)
N4A N 0.1883(5) 0.2056(6) 0.3627(3)
C11A C 0.1792(6) 0.3504(8) 0.6298(4)
H9A H 0.1635 0.4205 0.6450
C12A C 0.1738(7) 0.3397(8) 0.5703(4)
H10A H 0.1537 0.4014 0.5455
C13A C 0.1977(6) 0.2389(8) 0.5466(4)
C14A C 0.2264(6) 0.1521(8) 0.5854(4)
H11A H 0.2443 0.0817 0.5716
C15A C 0.2286(6) 0.1691(9) 0.6441(4)
H12A H 0.2476 0.1085 0.6700
C16A C 0.1256(7) 0.2679(8) 0.3843(4)
H13A H 0.0787 0.3049 0.3578
C17A C 0.1267(6) 0.2804(8) 0.4435(4)
H14A H 0.0825 0.3274 0.4569
C18A C 0.1921(6) 0.2244(8) 0.4831(4)
C19A C 0.2548(7) 0.1557(8) 0.4606(4)
H15A H 0.2993 0.1132 0.4861
C20A C 0.2514(7) 0.1500(8) 0.4006(4)
H16A H 0.2956 0.1049 0.3860
Cd2A Cd 0.19802(4) 0.28216(6) 0.76469(3)
N6A N 0.2775(5) 0.6907(6) 0.8121(3)
C26A C 0.2706(7) 0.6594(10) 0.8721(4)
H21A H 0.2370 0.7194 0.8893
H22A H 0.2338 0.5896 0.8714
C27A C 0.3639(9) 0.6411(10) 0.9110(5)
O1A O 0.4343(5) 0.6286(7) 0.8876(3)
O2A O 0.3647(7) 0.6387(9) 0.9651(3)
C28A C 0.1988(7) 0.6462(9) 0.7704(4)
H23A H 0.1403 0.6684 0.7829
H24A H 0.1993 0.6793 0.7315
C29A C 0.2029(7) 0.5201(8) 0.7662(4)
O3A O 0.1303(5) 0.4665(5) 0.7500(3)
O4A O 0.2805(4) 0.4725(5) 0.7803(3)
C30A C 0.2873(8) 0.8119(8) 0.8066(5)
H25A H 0.2248 0.8457 0.7985
H26A H 0.3189 0.8419 0.8444
C31A C 0.3402(7) 0.8493(9) 0.7596(4)
O5A O 0.3965(5) 0.7810(5) 0.7434(3)
O6A O 0.3283(5) 0.9479(6) 0.7418(3)
O9A O 0.0392(4) 0.2375(6) 0.7439(3)
H31A H 0.004(5) 0.297(4) 0.739(4)
H32A H 0.021(6) 0.189(5) 0.716(3)
O10A O 0.1991(5) 0.0864(5) 0.7757(3)
H33A H 0.243(4) 0.046(5) 0.764(4)
H34A H 0.148(3) 0.046(5) 0.774(4)
O11A O 0.3589(4) 0.2413(5) 0.7929(3)
H35A H 0.365(6) 0.196(5) 0.823(2)
H36A H 0.380(6) 0.308(3) 0.804(3)
Cd1A Cd 0.41067(5) 0.59710(6) 0.78780(3)
N1A N 0.4030(5) 0.5312(7) 0.6924(3)
N2A N 0.3904(6) 0.3555(8) 0.4007(4)
C1A C 0.3711(7) 0.5972(9) 0.6468(4)
H1A H 0.3509 0.6709 0.6540
C2A C 0.3662(7) 0.5632(9) 0.5898(4)
H2A H 0.3415 0.6124 0.5589
C3A C 0.3972(6) 0.4576(8) 0.5776(4)
C4A C 0.4288(7) 0.3896(9) 0.6250(4)
H3A H 0.4494 0.3155 0.6191
C5A C 0.4305(7) 0.4282(9) 0.6801(5)
H4A H 0.4525 0.3792 0.7116
C6A C 0.3309(8) 0.4323(9) 0.4148(4)
H5A H 0.2872 0.4645 0.3845
C7A C 0.3304(7) 0.4664(9) 0.4710(4)
H6A H 0.2863 0.5200 0.4791
C8A C 0.3954(7) 0.4214(8) 0.5162(4)
C9A C 0.4550(7) 0.3418(9) 0.5011(4)
H7A H 0.4995 0.3078 0.5304
C10A C 0.4507(7) 0.3117(10) 0.4444(4)
H8A H 0.4928 0.2565 0.4354
O7A O 0.5652(5) 0.6280(6) 0.7912(3)
H27A H 0.587(7) 0.665(6) 0.764(3)
H28A H 0.550(7) 0.675(5) 0.817(3)
O8A O 0.4890(5) 0.4113(6) 0.8232(3)
H29A H 0.459(6) 0.426(9) 0.852(3)
H30A H 0.535(5) 0.365(8) 0.835(4)
Cd2A_2 Cd 0.19802(4) 0.28216(6) -0.23531(3)
N4_2 N 0.1883(5) 0.2944(6) 0.8627(3)
N5 N 0.0054(6) 0.4018(8) 0.1453(4)
C21 C 0.0305(9) 0.5068(10) 0.1339(5)
H17 H 0.0506 0.5558 0.1657
C22 C 0.0286(9) 0.5467(9) 0.0784(5)
H18 H 0.0471 0.6219 0.0730
C23 C 0.0003(6) 0.4801(9) 0.0305(4)
C24 C -0.0266(7) 0.3712(9) 0.0423(5)
H19 H -0.0478 0.3215 0.0110
C25 C -0.0228(7) 0.3356(10) 0.0979(5)
H20 H -0.0407 0.2605 0.1042
C23B C -0.0003(6) 0.5199(9) -0.0305(4)
C22B C -0.0286(9) 0.4533(9) -0.0784(5)
C21B C -0.0305(9) 0.4932(10) -0.1339(5)
N5B N -0.0054(6) 0.5982(8) -0.1453(4)
C25B C 0.0228(7) 0.6644(10) -0.0979(5)
C24B C 0.0266(7) 0.6288(9) -0.0423(5)
H19B H 0.0478 0.6785 -0.0110
H20B H 0.0407 0.7395 -0.1042
H17B H -0.0506 0.4442 -0.1657
H18B H -0.0471 0.3781 -0.0730
N7 N -0.1093(15) 0.144(2) -0.0954(10)
O12 O -0.1647(12) 0.2160(15) -0.1004(7)
O13 O -0.0864(11) 0.1167(14) -0.1397(8)
O14 O -0.0710(12) 0.0905(14) -0.0503(8)
O15 O -0.0536(8) 0.0502(10) 0.2045(5)
O16 O -0.0804(8) 0.0571(10) 0.0802(5)
O17 O -0.2175(8) 0.2074(10) 0.0124(5)
O18 O 0.5722(8) 0.0318(10) 0.4326(5)
loop_
_geom_bond_atom_site_label_1
_geom_bond_atom_site_label_2
_geom_bond_site_symmetry_1
_geom_bond_site_symmetry_2
Cd1 N1 1_555 1_555
Cd2 N3 1_555 1_555
N1 C1 1_555 1_555
N2 C6 1_555 1_555
C1 H1 1_555 1_555
C2 C1 1_555 1_555
H2 C2 1_555 1_555
C3 C2 1_555 1_555
C4 C3 1_555 1_555
H3 C4 1_555 1_555
C5 N1 1_555 1_555
H4 C5 1_555 1_555
C6 H5 1_555 1_555
C7 C6 1_555 1_555
H6 C7 1_555 1_555
C8 C3 1_555 1_555
C9 C8 1_555 1_555
H7 C9 1_555 1_555
C10 N2 1_555 1_555
H8 C10 1_555 1_555
N3 C11 1_555 1_555
N4 C16 1_555 1_555
C11 H9 1_555 1_555
C12 C11 1_555 1_555
H10 C12 1_555 1_555
C13 C12 1_555 1_555
C14 C13 1_555 1_555
H11 C14 1_555 1_555
C15 N3 1_555 1_555
H12 C15 1_555 1_555
C16 H13 1_555 1_555
C17 C16 1_555 1_555
H14 C17 1_555 1_555
C18 C13 1_555 1_555
C19 C18 1_555 1_555
H15 C19 1_555 1_555
C20 N4 1_555 1_555
H16 C20 1_555 1_555
N5 C21 1_555 1_555
C21 H17 1_555 1_555
C22 C21 1_555 1_555
H18 C22 1_555 1_555
C23 C22 1_555 1_555
C24 C23 1_555 1_555
H19 C24 1_555 1_555
C25 N5 1_555 1_555
H20 C25 1_555 1_555
N6 Cd1 1_555 1_555
C26 N6 1_555 1_555
H21 C26 1_555 1_555
H22 C26 1_555 1_555
C27 C26 1_555 1_555
O1 Cd1 1_555 1_555
O2 C27 1_555 1_555
C28 N6 1_555 1_555
H23 C28 1_555 1_555
H24 C28 1_555 1_555
C29 C28 1_555 1_555
O3 Cd2 1_555 1_555
O4 Cd1 1_555 1_555
C30 N6 1_555 1_555
H25 C30 1_555 1_555
H26 C30 1_555 1_555
C31 C30 1_555 1_555
O5 Cd1 1_555 1_555
O6 C31 1_555 1_555
O7 Cd1 1_555 1_555
H27 O7 1_555 1_555
H28 O7 1_555 1_555
O8 Cd1 1_555 1_555
H29 O8 1_555 1_555
H30 O8 1_555 1_555
O9 Cd2 1_555 1_555
H31 O9 1_555 1_555
H32 O9 1_555 1_555
O10 Cd2 1_555 1_555
H33 O10 1_555 1_555
H34 O10 1_555 1_555
O11 Cd2 1_555 1_555
H35 O11 1_555 1_555
H36 O11 1_555 1_555
N7 O12 1_555 1_555
O13 N7 1_555 1_555
O14 N7 1_555 1_555
C23B C23 1_555 1_555
C22B C23B 1_555 1_555
C21B C22B 1_555 1_555
N5B C21B 1_555 1_555
C25B N5B 1_555 1_555
C24B C23B 1_555 1_555
H19B C24B 1_555 1_555
H20B C25B 1_555 1_555
H17B C21B 1_555 1_555
H18B C22B 1_555 1_555
N3A C11A 1_555 1_555
N4A Cd2 1_555 1_555
C11A H9A 1_555 1_555
C12A C11A 1_555 1_555
H10A C12A 1_555 1_555
C13A C12A 1_555 1_555
C14A C13A 1_555 1_555
H11A C14A 1_555 1_555
C15A N3A 1_555 1_555
H12A C15A 1_555 1_555
C16A N4A 1_555 1_555
H13A C16A 1_555 1_555
C17A C16A 1_555 1_555
H14A C17A 1_555 1_555
C18A C13A 1_555 1_555
C19A C18A 1_555 1_555
H15A C19A 1_555 1_555
C20A N4A 1_555 1_555
H16A C20A 1_555 1_555
Cd2A N3A 1_555 1_555
N6A C26A 1_555 1_555
C26A H21A 1_555 1_555
H22A C26A 1_555 1_555
C27A C26A 1_555 1_555
O1A C27A 1_555 1_555
O2A C27A 1_555 1_555
C28A N6A 1_555 1_555
H23A C28A 1_555 1_555
H24A C28A 1_555 1_555
C29A C28A 1_555 1_555
O3A Cd2A 1_555 1_555
O4A Cd2A 1_555 1_555
C30A N6A 1_555 1_555
H25A C30A 1_555 1_555
H26A C30A 1_555 1_555
C31A C30A 1_555 1_555
O5A C31A 1_555 1_555
O6A C31A 1_555 1_555
O9A Cd2A 1_555 1_555
H31A O9A 1_555 1_555
H32A O9A 1_555 1_555
O10A Cd2A 1_555 1_555
H33A O10A 1_555 1_555
H34A O10A 1_555 1_555
O11A Cd2A 1_555 1_555
H35A O11A 1_555 1_555
H36A O11A 1_555 1_555
Cd1A N6A 1_555 1_555
N1A Cd1A 1_555 1_555
N2A C6A 1_555 1_555
C1A N1A 1_555 1_555
H1A C1A 1_555 1_555
C2A C1A 1_555 1_555
H2A C2A 1_555 1_555
C3A C2A 1_555 1_555
C4A C3A 1_555 1_555
H3A C4A 1_555 1_555
C5A N1A 1_555 1_555
H4A C5A 1_555 1_555
C6A H5A 1_555 1_555
C7A C6A 1_555 1_555
H6A C7A 1_555 1_555
C8A C3A 1_555 1_555
C9A C8A 1_555 1_555
H7A C9A 1_555 1_555
C10A N2A 1_555 1_555
H8A C10A 1_555 1_555
O7A Cd1A 1_555 1_555
H27A O7A 1_555 1_555
H28A O7A 1_555 1_555
O8A Cd1A 1_555 1_555
H29A O8A 1_555 1_555
H30A O8A 1_555 1_555
Cd2A_2 N4 1_555 1_555
N4_2 Cd2A 1_555 1_555
Cd2 O4 1_555 1_555
C4 C5 1_555 1_555
C7 C8 1_555 1_555
C9 C10 1_555 1_555
C14 C15 1_555 1_555
C17 C18 1_555 1_555
C19 C20 1_555 1_555
C24 C25 1_555 1_555
C27 O1 1_555 1_555
C29 O3 1_555 1_555
C29 O4 1_555 1_555
C31 O5 1_555 1_555
C25B C24B 1_555 1_555
C14A C15A 1_555 1_555
C17A C18A 1_555 1_555
C19A C20A 1_555 1_555
O1A Cd1A 1_555 1_555
C29A O3A 1_555 1_555
C29A O4A 1_555 1_555
O4A Cd1A 1_555 1_555
O5A Cd1A 1_555 1_555
C4A C5A 1_555 1_555
C7A C8A 1_555 1_555
C9A C10A 1_555 1_555

#END
