
#######################################################################
#
#                 Cambridge Crystallographic Data Centre
#                                CCDC 
#
#######################################################################
#
# If this CIF has been generated from an entry in the Cambridge 
# Structural Database, then it will include bibliographic, chemical, 
# crystal, experimental, refinement or atomic coordinate data resulting 
# from the CCDC's data processing and validation procedures.
#
#######################################################################

data_ESAVUQ
_symmetry_cell_setting           monoclinic
_symmetry_space_group_name_H-M   'P 21/c'
_symmetry_Int_Tables_number      14
_space_group_name_Hall           '-P 2ybc'
loop_
_symmetry_equiv_pos_site_id
_symmetry_equiv_pos_as_xyz
1 x,y,z
2 -x,1/2+y,1/2-z
3 -x,-y,-z
4 x,1/2-y,1/2+z
_cell_length_a                   6.9487(14)
_cell_length_b                   37.295(8)
_cell_length_c                   14.782(3)
_cell_angle_alpha                90
_cell_angle_beta                 94.10(3)
_cell_angle_gamma                90
_cell_volume                     3820.98
loop_
_atom_site_label
_atom_site_type_symbol
_atom_site_fract_x
_atom_site_fract_y
_atom_site_fract_z
B1 B 1.1585(4) 0.09529(7) 0.86923(16)
H1 H 1.0560 0.0971 0.8184
B2 B 1.5825(4) 0.15552(7) 0.47758(16)
H2 H 1.4912 0.1543 0.5268
C1 C 1.6776(3) 0.08902(6) 0.50807(15)
C2 C 1.6787(3) 0.10583(6) 0.36376(15)
H3 H 1.6670 0.1203 0.3108
C3 C 1.7277(3) 0.07097(6) 0.36699(15)
H4 H 1.7567 0.0563 0.3173
C4 C 1.7671(4) 0.02488(6) 0.49197(16)
H5 H 1.8751 0.0258 0.5383
H6 H 1.8006 0.0091 0.4424
H7 H 1.6524 0.0155 0.5189
C5 C 1.7683(3) 0.20880(6) 0.55585(14)
C6 C 1.9517(3) 0.16917(6) 0.48902(15)
H8 H 1.9896 0.1487 0.4564
C7 C 2.0702(3) 0.19505(6) 0.52336(15)
H9 H 2.2060 0.1963 0.5199
C8 C 2.0290(4) 0.25045(6) 0.61627(16)
H10 H 1.9226 0.2670 0.6256
H11 H 2.1265 0.2627 0.5828
H12 H 2.0872 0.2425 0.6752
C9 C 1.5332(3) 0.19447(6) 0.32505(15)
C10 C 1.3945(4) 0.19218(6) 0.25320(15)
H13 H 1.3906 0.2054 0.1981
C11 C 1.2614(3) 0.16650(6) 0.27812(15)
C12 C 1.7073(4) 0.21817(7) 0.33301(16)
H14 H 1.7008 0.2339 0.3858
H15 H 1.7112 0.2328 0.2780
H16 H 1.8239 0.2034 0.3404
C13 C 1.0832(4) 0.15271(7) 0.22641(16)
H17 H 1.1192 0.1402 0.1718
H18 H 0.9978 0.1728 0.2090
H19 H 1.0162 0.1360 0.2646
C14 C 1.2305(3) 0.16313(6) 0.84782(15)
C15 C 1.2917(3) 0.14271(6) 0.98778(14)
H20 H 1.3033 0.1269 1.0382
C16 C 1.3340(3) 0.17785(6) 0.98995(15)
H21 H 1.3813 0.1913 1.0414
C17 C 1.3075(4) 0.22788(6) 0.87408(17)
H22 H 1.3766 0.2293 0.8187
H23 H 1.3770 0.2418 0.9222
H24 H 1.1772 0.2377 0.8623
C18 C 1.3310(3) 0.04311(6) 0.78974(14)
C19 C 1.5253(3) 0.08175(6) 0.86627(15)
H25 H 1.5687 0.1019 0.9015
C20 C 1.6385(3) 0.05598(6) 0.83437(15)
H26 H 1.7752 0.0545 0.8425
C21 C 1.5799(3) 0.00066(6) 0.73967(16)
H27 H 1.5395 -0.0210 0.7706
H28 H 1.7208 0.0009 0.7389
H29 H 1.5218 0.0009 0.6773
C22 C 1.1284(3) 0.05094(6) 1.01189(15)
C23 C 1.0048(4) 0.05171(7) 1.08066(16)
H30 H 1.0049 0.0359 1.1311
C24 C 0.8798(3) 0.08028(6) 1.06120(15)
C25 C 1.2870(4) 0.02475(7) 0.99898(16)
H31 H 1.2588 0.0116 0.9422
H32 H 1.2967 0.0079 1.0499
H33 H 1.4093 0.0377 0.9963
C26 C 0.7148(4) 0.09331(7) 1.11235(16)
H34 H 0.6827 0.1180 1.0942
H35 H 0.7514 0.0926 1.1776
H36 H 0.6024 0.0779 1.0988
C27 C 1.8142(4) 0.18612(7) 0.9592(2)
H37 H 1.9236 0.1984 0.9345
H38 H 1.8527 0.1772 1.0201
H39 H 1.7064 0.2029 0.9623
C28 C 1.2130(4) 0.06389(7) 0.39033(19)
H40 H 1.3491 0.0570 0.3996
H41 H 1.1834 0.0704 0.3266
H42 H 1.1316 0.0437 0.4060
K1 K 1.15367(8) 0.094908(14) 0.62676(3)
K2 K 1.65926(8) 0.161110(14) 0.72550(3)
N1 N 1.6480(3) 0.11710(5) 0.45125(12)
N2 N 1.7275(3) 0.06069(5) 0.45678(12)
N3 N 1.7643(3) 0.17737(5) 0.50915(12)
N4 N 1.9557(3) 0.21952(5) 0.56458(12)
N5 N 1.4804(3) 0.17133(5) 0.38966(12)
N6 N 1.3128(3) 0.15394(5) 0.36043(12)
N7 N 1.2284(3) 0.13334(5) 0.89978(12)
N8 N 1.2950(3) 0.19065(5) 0.90234(13)
N9 N 1.3336(3) 0.07387(5) 0.83884(12)
N10 N 1.5168(3) 0.03211(5) 0.78752(12)
N11 N 1.0761(3) 0.07817(5) 0.95374(12)
N12 N 0.9221(3) 0.09659(5) 0.98495(12)
O1 O 1.1765(3) 0.09357(5) 0.44636(11)
H43 H 1.225(4) 0.1108(9) 0.423(2)
O2 O 1.7565(3) 0.15703(5) 0.90223(11)
H44 H 1.809(4) 0.1387(9) 0.923(2)
S1 S 1.66233(9) 0.086860(15) 0.62247(4)
S2 S 1.57817(8) 0.230650(15) 0.59738(4)
S3 S 1.17061(9) 0.167793(15) 0.73418(4)
S4 S 1.13509(8) 0.021378(15) 0.73927(4)
K1_2 K 2.15367(8) 0.094908(14) 0.62676(3)
K2_2 K 0.65926(8) 0.161110(14) 0.72550(3)
S1_2 S 0.66233(9) 0.086860(15) 0.62247(4)
S3_2 S 2.17061(9) 0.167793(15) 0.73418(4)
loop_
_geom_bond_atom_site_label_1
_geom_bond_atom_site_label_2
_geom_bond_site_symmetry_1
_geom_bond_site_symmetry_2
B1 H1 1_555 1_555
B2 H2 1_555 1_555
C1 N1 1_555 1_555
C2 H3 1_555 1_555
C3 C2 1_555 1_555
H4 C3 1_555 1_555
C4 H5 1_555 1_555
H6 C4 1_555 1_555
H7 C4 1_555 1_555
C5 N3 1_555 1_555
C6 H8 1_555 1_555
C7 C6 1_555 1_555
H9 C7 1_555 1_555
C8 H10 1_555 1_555
H11 C8 1_555 1_555
H12 C8 1_555 1_555
C9 C10 1_555 1_555
C10 H13 1_555 1_555
C11 C10 1_555 1_555
C12 C9 1_555 1_555
H14 C12 1_555 1_555
H15 C12 1_555 1_555
H16 C12 1_555 1_555
C13 C11 1_555 1_555
H17 C13 1_555 1_555
H18 C13 1_555 1_555
H19 C13 1_555 1_555
C14 N7 1_555 1_555
C15 H20 1_555 1_555
C16 C15 1_555 1_555
H21 C16 1_555 1_555
C17 H22 1_555 1_555
H23 C17 1_555 1_555
H24 C17 1_555 1_555
C18 N9 1_555 1_555
C19 H25 1_555 1_555
C20 C19 1_555 1_555
H26 C20 1_555 1_555
C21 H27 1_555 1_555
H28 C21 1_555 1_555
H29 C21 1_555 1_555
C22 C23 1_555 1_555
C23 H30 1_555 1_555
C24 C23 1_555 1_555
C25 C22 1_555 1_555
H31 C25 1_555 1_555
H32 C25 1_555 1_555
H33 C25 1_555 1_555
C26 C24 1_555 1_555
H34 C26 1_555 1_555
H35 C26 1_555 1_555
H36 C26 1_555 1_555
C27 H37 1_555 1_555
H38 C27 1_555 1_555
H39 C27 1_555 1_555
C28 H40 1_555 1_555
H41 C28 1_555 1_555
H42 C28 1_555 1_555
K1 O1 1_555 1_555
K2 O2 1_555 1_555
N1 B2 1_555 1_555
N2 C1 1_555 1_555
N3 B2 1_555 1_555
N4 C5 1_555 1_555
N5 B2 1_555 1_555
N6 C11 1_555 1_555
N7 B1 1_555 1_555
N8 C14 1_555 1_555
N9 B1 1_555 1_555
N10 C18 1_555 1_555
N11 B1 1_555 1_555
N12 C24 1_555 1_555
O1 C28 1_555 1_555
H43 O1 1_555 1_555
O2 C27 1_555 1_555
H44 O2 1_555 1_555
S1 C1 1_555 1_555
S2 C5 1_555 1_555
S3 C14 1_555 1_555
S4 C18 1_555 1_555
K1_2 S1 1_555 1_555
K2_2 S3 1_555 1_555
S1_2 K1 1_555 1_555
S3_2 K2 1_555 1_555
C2 N1 1_555 1_555
C3 N2 1_555 1_555
C4 N2 1_555 1_555
C6 N3 1_555 1_555
C7 N4 1_555 1_555
C8 N4 1_555 1_555
C9 N5 1_555 1_555
C15 N7 1_555 1_555
C16 N8 1_555 1_555
C17 N8 1_555 1_555
C19 N9 1_555 1_555
C20 N10 1_555 1_555
C21 N10 1_555 1_555
C22 N11 1_555 1_555
K1 S1 1_555 1_555
K1 S3 1_555 1_555
K1 S4 1_555 1_555
K2 S1 1_555 1_555
K2 S2 1_555 1_555
K2 S3 1_555 1_555
N5 N6 1_555 1_555
N11 N12 1_555 1_555
K1_2 S3_2 1_555 1_555
K2_2 S1_2 1_555 1_555

#END
