
#######################################################################
#
#                 Cambridge Crystallographic Data Centre
#                                CCDC 
#
#######################################################################
#
# If this CIF has been generated from an entry in the Cambridge 
# Structural Database, then it will include bibliographic, chemical, 
# crystal, experimental, refinement or atomic coordinate data resulting 
# from the CCDC's data processing and validation procedures.
#
#######################################################################

data_ESAVID
_symmetry_cell_setting           triclinic
_symmetry_space_group_name_H-M   'P -1'
_symmetry_Int_Tables_number      2
_space_group_name_Hall           '-P 1'
loop_
_symmetry_equiv_pos_site_id
_symmetry_equiv_pos_as_xyz
1 x,y,z
2 -x,-y,-z
_cell_length_a                   15.7479(11)
_cell_length_b                   16.8667(12)
_cell_length_c                   20.6392(10)
_cell_angle_alpha                108.382(4)
_cell_angle_beta                 96.212(4)
_cell_angle_gamma                116.624(2)
_cell_volume                     4445.01
loop_
_atom_site_label
_atom_site_type_symbol
_atom_site_fract_x
_atom_site_fract_y
_atom_site_fract_z
Cd1 Cd 0.85734(10) -0.09904(10) 0.70197(7)
Cd2 Cd 0.06349(9) -0.22037(9) 0.68680(7)
Cd3 Cd 0.93278(10) 0.21194(9) 0.65693(7)
Cd4 Cd 1.14129(10) 0.54202(9) 0.76525(7)
N1 N 0.2343(7) -0.1668(8) 0.7104(7)
C1 C 0.2498(8) -0.2448(7) 0.6889(7)
H1 H 0.1955 -0.3093 0.6730
C2 C 0.3449(9) -0.2286(8) 0.6905(8)
H2 H 0.3555 -0.2819 0.6758
C3 C 0.4245(7) -0.1343(10) 0.7138(8)
C4 C 0.4090(8) -0.0562(7) 0.7354(8)
H3 H 0.4633 0.0082 0.7513
C5 C 0.3139(9) -0.0725(7) 0.7337(7)
H4 H 0.3033 -0.0192 0.7485
N2 N 0.7121(7) -0.0966(8) 0.7024(6)
C6 C 0.7069(8) -0.0172(7) 0.7442(7)
H5 H 0.7660 0.0441 0.7702
C7 C 0.6152(10) -0.0273(9) 0.7480(7)
H6 H 0.6116 0.0269 0.7766
C8 C 0.5287(7) -0.1170(10) 0.7100(8)
C9 C 0.5339(7) -0.1964(8) 0.6681(8)
H7 H 0.4748 -0.2577 0.6421
C10 C 0.6256(9) -0.1862(7) 0.6643(7)
H8 H 0.6292 -0.2405 0.6357
N3 N 0.8933(8) -0.0477(8) 0.8251(4)
C11 C 0.8288(8) -0.1070(6) 0.8527(5)
H9 H 0.7794 -0.1722 0.8222
C12 C 0.8365(9) -0.0707(8) 0.9250(6)
H10 H 0.7924 -0.1112 0.9439
C13 C 0.9088(10) 0.0247(9) 0.9696(4)
C14 C 0.9733(9) 0.0840(7) 0.9420(5)
H11 H 1.0227 0.1493 0.9725
C15 C 0.9656(8) 0.0478(7) 0.8697(6)
H12 H 1.0097 0.0883 0.8508
N4 N 0.9214(9) 0.1449(8) 1.1898(5)
C16 C 0.9837(9) 0.2039(7) 1.1610(6)
H13 H 1.0281 0.2711 1.1897
C17 C 0.9811(10) 0.1644(9) 1.0901(6)
H14 H 1.0237 0.2047 1.0704
C18 C 0.9162(10) 0.0660(9) 1.0481(5)
C19 C 0.8539(10) 0.0070(7) 1.0769(6)
H15 H 0.8095 -0.0603 1.0482
C20 C 0.8565(9) 0.0465(8) 1.1478(6)
H16 H 0.8139 0.0061 1.1675
N5 N 0.2342(10) -0.1738(13) 0.5454(10)
C21 C 0.2884(13) -0.2196(10) 0.5288(10)
H17 H 0.2564 -0.2884 0.5112
C22 C 0.3896(13) -0.1648(12) 0.5379(11)
H18 H 0.4266 -0.1961 0.5265
C23 C 0.4364(10) -0.0641(12) 0.5636(10)
C24 C 0.3822(13) -0.0183(10) 0.5802(10)
H19 H 0.4142 0.0504 0.5978
C25 C 0.2810(13) -0.0732(13) 0.5711(11)
H20 H 0.2440 -0.0419 0.5825
N6 N 0.7547(7) 0.1048(9) 0.6130(7)
C26 C 0.6994(10) 0.1502(8) 0.6251(8)
H21 H 0.7319 0.2192 0.6455
C27 C 0.5965(10) 0.0948(11) 0.6074(9)
H22 H 0.5587 0.1258 0.6157
C28 C 0.5489(7) -0.0061(10) 0.5775(9)
C29 C 0.6042(10) -0.0515(7) 0.5654(9)
H23 H 0.5717 -0.1205 0.5450
C30 C 0.7071(10) 0.0039(9) 0.5831(8)
H24 H 0.7449 -0.0271 0.5748
N7 N 0.8946(9) 0.4395(9) 1.1276(5)
C31 C 0.8326(9) 0.4374(10) 1.0730(6)
H25 H 0.7851 0.4560 1.0828
C32 C 0.8402(9) 0.4082(10) 1.0040(5)
H26 H 0.7979 0.4068 0.9666
C33 C 0.9098(10) 0.3810(10) 0.9896(5)
C34 C 0.9718(9) 0.3831(11) 1.0443(6)
H27 H 1.0193 0.3646 1.0345
C35 C 0.9642(9) 0.4124(11) 1.1133(6)
H28 H 1.0065 0.4138 1.1506
N8 N 0.9187(10) 0.2709(9) 0.7739(5)
C36 C 0.9701(11) 0.2610(11) 0.8271(7)
H29 H 1.0067 0.2292 0.8157
C37 C 0.9677(11) 0.2974(12) 0.8970(6)
H30 H 1.0027 0.2906 0.9333
C38 C 0.9140(10) 0.3438(10) 0.9137(5)
C39 C 0.8627(11) 0.3538(11) 0.8605(6)
H31 H 0.8260 0.3855 0.8719
C40 C 0.8651(10) 0.3173(11) 0.7906(6)
H32 H 0.8300 0.3241 0.7542
N9 N 1.2813(7) 0.6924(7) 0.8254(6)
C41 C 1.2728(8) 0.7741(9) 0.8536(8)
H33 H 1.2091 0.7670 0.8517
C42 C 1.3575(10) 0.8662(8) 0.8846(8)
H34 H 1.3516 0.9221 0.9039
C43 C 1.4506(8) 0.8766(8) 0.8874(8)
C44 C 1.4591(7) 0.7949(10) 0.8591(8)
H35 H 1.5228 0.8020 0.8610
C45 C 1.3744(9) 0.7028(8) 0.8281(8)
H36 H 1.3802 0.6470 0.8088
N10 N 1.7128(11) 1.1616(10) 0.9595(10)
C46 C 1.7204(10) 1.0814(13) 0.9557(10)
H37 H 1.7840 1.0884 0.9685
C47 C 1.6351(12) 0.9909(11) 0.9333(10)
H38 H 1.6403 0.9361 0.9308
C48 C 1.5420(10) 0.9806(10) 0.9146(9)
C49 C 1.5344(11) 1.0608(13) 0.9183(10)
H39 H 1.4708 1.0538 0.9055
C50 C 1.6198(14) 1.1513(10) 0.9407(10)
H40 H 1.6146 1.2061 0.9433
O1 O 1.0079(9) 0.0088(9) 0.7062(6)
O2 O 0.9331(10) 0.0895(9) 0.6915(7)
O3 O 1.2353(10) 0.4621(10) 0.7822(7)
O4 O 1.0780(10) 0.3740(9) 0.7152(7)
O5 O 1.0291(10) 0.1557(10) 0.4662(7)
O6 O 0.9343(9) 0.1489(9) 0.5390(7)
N11 N 1.0884(11) 0.2128(11) 0.6534(8)
C51 C 1.0765(13) 0.1180(13) 0.6497(10)
H41 H 1.1412 0.1289 0.6735
H42 H 1.0554 0.0727 0.5990
C52 C 0.9999(13) 0.0730(13) 0.6856(9)
C53 C 1.1694(13) 0.2932(13) 0.7197(9)
H43 H 1.1656 0.2715 0.7591
H44 H 1.2348 0.3091 0.7114
C54 C 1.1606(14) 0.3813(14) 0.7402(10)
C55 C 1.1110(14) 0.2282(14) 0.5905(9)
H45 H 1.1582 0.2066 0.5775
H46 H 1.1429 0.2983 0.6012
C56 C 1.0157(13) 0.1711(13) 0.5277(9)
O7 O 0.7625(10) -0.2728(10) 0.6803(7)
O8 O 0.9184(9) -0.2058(9) 0.6788(6)
O9 O 1.0640(9) -0.2879(9) 0.5668(6)
O10 O 0.9726(10) -0.3760(10) 0.4548(7)
O11 O 1.0593(9) -0.3407(9) 0.7260(6)
O12 O 0.9908(9) -0.4991(9) 0.7047(6)
N12 N 0.9095(10) -0.3777(10) 0.6169(7)
C57 C 0.8287(14) -0.3791(14) 0.6466(10)
H47 H 0.8318 -0.3962 0.6881
H48 H 0.7640 -0.4293 0.6101
C58 C 0.8366(13) -0.2801(13) 0.6699(9)
C59 C 0.8893(13) -0.3852(13) 0.5437(9)
H49 H 0.8574 -0.3471 0.5400
H50 H 0.8421 -0.4540 0.5108
C60 C 0.9844(13) -0.3477(13) 0.5207(9)
C61 C 0.9247(14) -0.4566(14) 0.6190(10)
H51 H 0.9516 -0.4763 0.5796
H52 H 0.8600 -0.5135 0.6116
C62 C 0.9962(13) -0.4260(13) 0.6899(9)
O13 O 0.8181(11) -0.1448(10) 0.5792(8)
H53 H 0.871(6) -0.142(12) 0.574(11)
H54 H 0.773(8) -0.203(4) 0.565(11)
O14 O 0.1103(10) -0.0855(10) 0.6579(7)
H55 H 0.064(9) -0.101(12) 0.623(5)
H56 H 0.110(12) -0.046(11) 0.695(5)
O15 O 0.8908(9) 0.3079(9) 0.6144(7)
H57 H 0.914(11) 0.312(11) 0.580(5)
H58 H 0.926(11) 0.361(6) 0.650(5)
O16 O 1.1787(11) 0.5346(10) 0.6574(7)
H59 H 1.127(7) 0.484(7) 0.628(8)
H60 H 1.228(7) 0.527(12) 0.658(10)
N4A N 0.0786(9) -0.1449(8) 0.8102(5)
O8_2 O -0.0816(9) -0.2058(9) 0.6788(6)
O9_2 O 0.0640(9) -0.2879(9) 0.5668(6)
O11_2 O 0.0593(9) -0.3407(9) 0.7260(6)
N12_2 N -0.0905(10) -0.3777(10) 0.6169(7)
N7A N 1.1054(9) 0.5605(9) 0.8724(5)
O12_2 O 0.9908(9) 0.5009(9) 0.7047(6)
Cd2A Cd 0.93651(9) 0.22037(9) 1.31320(7)
Cd4A Cd 0.85871(10) 0.45798(9) 1.23475(7)
Cd2_2 Cd 1.06349(9) -0.22037(9) 0.68680(7)
Cd4_2 Cd 1.14129(10) -0.45798(9) 0.76525(7)
N13 N 0.789(3) 0.485(4) 0.796(3)
O17 O 0.783(6) 0.475(5) 0.852(3)
O18 O 0.826(6) 0.567(4) 0.798(4)
O19 O 0.756(6) 0.414(4) 0.739(3)
N14 N 0.788(3) 0.706(3) 0.958(3)
O20 O 0.843(5) 0.677(5) 0.972(4)
O21 O 0.770(6) 0.755(5) 1.006(3)
O22 O 0.749(5) 0.685(5) 0.896(3)
O23 O 0.8617(12) 0.8992(12) 0.1300(9)
loop_
_geom_bond_atom_site_label_1
_geom_bond_atom_site_label_2
_geom_bond_site_symmetry_1
_geom_bond_site_symmetry_2
Cd1 N2 1_555 1_555
Cd2 N1 1_555 1_555
Cd3 N6 1_555 1_555
Cd4 N9 1_555 1_555
N1 C1 1_555 1_555
C1 H1 1_555 1_555
C2 C1 1_555 1_555
H2 C2 1_555 1_555
C3 C2 1_555 1_555
C4 C3 1_555 1_555
H3 C4 1_555 1_555
C5 N1 1_555 1_555
H4 C5 1_555 1_555
N2 C6 1_555 1_555
C6 H5 1_555 1_555
C7 C6 1_555 1_555
H6 C7 1_555 1_555
C8 C3 1_555 1_555
C9 C8 1_555 1_555
H7 C9 1_555 1_555
C10 N2 1_555 1_555
H8 C10 1_555 1_555
N3 Cd1 1_555 1_555
C11 N3 1_555 1_555
H9 C11 1_555 1_555
C12 C11 1_555 1_555
H10 C12 1_555 1_555
C13 C12 1_555 1_555
C14 C13 1_555 1_555
H11 C14 1_555 1_555
C15 N3 1_555 1_555
H12 C15 1_555 1_555
N4 C16 1_555 1_555
C16 H13 1_555 1_555
C17 C16 1_555 1_555
H14 C17 1_555 1_555
C18 C13 1_555 1_555
C19 C18 1_555 1_555
H15 C19 1_555 1_555
C20 N4 1_555 1_555
H16 C20 1_555 1_555
N5 C21 1_555 1_555
C21 H17 1_555 1_555
C22 C21 1_555 1_555
H18 C22 1_555 1_555
C23 C22 1_555 1_555
C24 C23 1_555 1_555
H19 C24 1_555 1_555
C25 N5 1_555 1_555
H20 C25 1_555 1_555
N6 C26 1_555 1_555
C26 H21 1_555 1_555
C27 C26 1_555 1_555
H22 C27 1_555 1_555
C28 C23 1_555 1_555
C29 C28 1_555 1_555
H23 C29 1_555 1_555
C30 N6 1_555 1_555
H24 C30 1_555 1_555
N7 C31 1_555 1_555
C31 H25 1_555 1_555
C32 C31 1_555 1_555
H26 C32 1_555 1_555
C33 C32 1_555 1_555
C34 C33 1_555 1_555
H27 C34 1_555 1_555
C35 N7 1_555 1_555
H28 C35 1_555 1_555
N8 Cd3 1_555 1_555
C36 N8 1_555 1_555
H29 C36 1_555 1_555
C37 C36 1_555 1_555
H30 C37 1_555 1_555
C38 C33 1_555 1_555
C39 C38 1_555 1_555
H31 C39 1_555 1_555
C40 N8 1_555 1_555
H32 C40 1_555 1_555
N9 C41 1_555 1_555
C41 H33 1_555 1_555
C42 C41 1_555 1_555
H34 C42 1_555 1_555
C43 C42 1_555 1_555
C44 C43 1_555 1_555
H35 C44 1_555 1_555
C45 N9 1_555 1_555
H36 C45 1_555 1_555
N10 C46 1_555 1_555
C46 H37 1_555 1_555
C47 C46 1_555 1_555
H38 C47 1_555 1_555
C48 C43 1_555 1_555
C49 C48 1_555 1_555
H39 C49 1_555 1_555
C50 N10 1_555 1_555
H40 C50 1_555 1_555
O1 Cd1 1_555 1_555
O2 Cd3 1_555 1_555
O3 Cd4 1_555 1_555
O4 Cd3 1_555 1_555
O5 C56 1_555 1_555
O6 Cd3 1_555 1_555
N11 Cd3 1_555 1_555
C51 N11 1_555 1_555
H41 C51 1_555 1_555
H42 C51 1_555 1_555
C52 O1 1_555 1_555
C53 N11 1_555 1_555
H43 C53 1_555 1_555
H44 C53 1_555 1_555
C54 O3 1_555 1_555
C55 N11 1_555 1_555
H45 C55 1_555 1_555
H46 C55 1_555 1_555
C56 O6 1_555 1_555
O7 Cd1 1_555 1_555
O8 Cd1 1_555 1_555
O9 C60 1_555 1_555
O10 C60 1_555 1_555
O11 C62 1_555 1_555
O12 C62 1_555 1_555
N12 C57 1_555 1_555
C57 H47 1_555 1_555
H48 C57 1_555 1_555
C58 O7 1_555 1_555
C59 N12 1_555 1_555
H49 C59 1_555 1_555
H50 C59 1_555 1_555
C60 C59 1_555 1_555
C61 N12 1_555 1_555
H51 C61 1_555 1_555
H52 C61 1_555 1_555
C62 C61 1_555 1_555
O13 Cd1 1_555 1_555
H53 O13 1_555 1_555
H54 O13 1_555 1_555
O14 Cd2 1_555 1_555
H55 O14 1_555 1_555
H56 O14 1_555 1_555
O15 Cd3 1_555 1_555
H57 O15 1_555 1_555
H58 O15 1_555 1_555
O16 Cd4 1_555 1_555
H59 O16 1_555 1_555
H60 O16 1_555 1_555
N13 O17 1_555 1_555
O18 N13 1_555 1_555
O19 N13 1_555 1_555
N14 O20 1_555 1_555
O21 N14 1_555 1_555
O22 N14 1_555 1_555
N4A Cd2 1_555 1_555
O8_2 Cd2 1_555 1_555
O9_2 Cd2 1_555 1_555
O11_2 Cd2 1_555 1_555
N12_2 Cd2 1_555 1_555
N7A Cd4 1_555 1_555
O12_2 Cd4 1_555 1_555
Cd2A N4 1_555 1_555
Cd4A N7 1_555 1_555
Cd2_2 O8 1_555 1_555
Cd4_2 O12 1_555 1_555
Cd4 O4 1_555 1_555
C4 C5 1_555 1_555
C7 C8 1_555 1_555
C9 C10 1_555 1_555
C14 C15 1_555 1_555
C17 C18 1_555 1_555
C19 C20 1_555 1_555
C24 C25 1_555 1_555
C27 C28 1_555 1_555
C29 C30 1_555 1_555
C34 C35 1_555 1_555
C37 C38 1_555 1_555
C39 C40 1_555 1_555
C44 C45 1_555 1_555
C47 C48 1_555 1_555
C49 C50 1_555 1_555
O2 C52 1_555 1_555
O4 C54 1_555 1_555
C51 C52 1_555 1_555
C53 C54 1_555 1_555
C55 C56 1_555 1_555
O8 C58 1_555 1_555
O9 Cd2_2 1_555 1_555
O11 Cd2_2 1_555 1_555
N12 Cd2_2 1_555 1_555
C57 C58 1_555 1_555

#END
