
#######################################################################
#
#                 Cambridge Crystallographic Data Centre
#                                CCDC 
#
#######################################################################
#
# If this CIF has been generated from an entry in the Cambridge 
# Structural Database, then it will include bibliographic, chemical, 
# crystal, experimental, refinement or atomic coordinate data resulting 
# from the CCDC's data processing and validation procedures.
#
#######################################################################

data_ESAWAX
_symmetry_cell_setting           triclinic
_symmetry_space_group_name_H-M   'P -1'
_symmetry_Int_Tables_number      2
_space_group_name_Hall           '-P 1'
loop_
_symmetry_equiv_pos_site_id
_symmetry_equiv_pos_as_xyz
1 x,y,z
2 -x,-y,-z
_cell_length_a                   10.8712(2)
_cell_length_b                   12.5318(3)
_cell_length_c                   13.7319(3)
_cell_angle_alpha                113.484(1)
_cell_angle_beta                 100.682(1)
_cell_angle_gamma                94.266(1)
_cell_volume                     1663.12
loop_
_atom_site_label
_atom_site_type_symbol
_atom_site_fract_x
_atom_site_fract_y
_atom_site_fract_z
B1 B 1.19016(19) 0.6307(2) 0.44081(17)
H1 H 1.1533 0.5717 0.4641
B2 B 0.68131(19) 0.1318(2) -0.05329(17)
H2 H 0.6450 0.0716 -0.0312
C1 C 1.03705(18) 0.77304(18) 0.51865(16)
C2 C 1.23673(19) 0.86112(18) 0.55477(17)
H3 H 1.3247 0.8726 0.5569
C3 C 1.1701(2) 0.9464(2) 0.60061(18)
H4 H 1.2020 1.0282 0.6413
C4 C 0.9420(2) 0.9495(2) 0.6163(2)
H5 H 0.8613 0.9064 0.5645
H6 H 0.9543 1.0306 0.6230
H7 H 0.9408 0.9505 0.6878
C5 C 1.41226(17) 0.64116(17) 0.55542(16)
C6 C 1.41371(18) 0.65361(18) 0.39800(16)
H8 H 1.3855 0.6571 0.3297
C7 C 1.53553(19) 0.65878(18) 0.44682(17)
H9 H 1.6083 0.6663 0.4195
C8 C 1.64498(19) 0.6577(2) 0.62521(18)
H10 H 1.6621 0.7355 0.6871
H11 H 1.7184 0.6459 0.5924
H12 H 1.6293 0.5964 0.6508
C9 C 1.1309(2) 0.6573(2) 0.25907(17)
H13 H 1.1443 0.7411 0.2890
C10 C 1.0994(2) 0.5821(2) 0.14928(18)
H14 H 1.0869 0.6024 0.0889
C11 C 1.08991(19) 0.46956(19) 0.14730(17)
H15 H 1.0686 0.3985 0.0823
C12 C 0.52197(18) 0.26891(18) 0.01983(16)
C13 C 0.7203(2) 0.36257(18) 0.06531(17)
H16 H 0.8090 0.3773 0.0714
C14 C 0.6484(2) 0.4439(2) 0.10926(18)
H17 H 0.6771 0.5259 0.1523
C15 C 0.4181(2) 0.4399(2) 0.1150(2)
H18 H 0.3409 0.4014 0.0567
H19 H 0.4339 0.5240 0.1311
H20 H 0.4073 0.4310 0.1808
C16 C 0.90232(17) 0.14195(17) 0.06254(15)
C17 C 0.90497(18) 0.15364(18) -0.09533(16)
H21 H 0.8773 0.1574 -0.1635
C18 C 1.02617(19) 0.15525(18) -0.04736(17)
H22 H 1.0990 0.1602 -0.0754
C19 C 1.13484(18) 0.1536(2) 0.13094(18)
H23 H 1.1519 0.2306 0.1938
H24 H 1.2084 0.1426 0.0982
H25 H 1.1189 0.0911 0.1551
C20 C 0.5981(2) 0.1564(2) -0.23410(18)
H26 H 0.5915 0.2378 -0.2036
C21 C 0.5745(2) 0.0834(2) -0.34381(18)
H27 H 0.5487 0.1031 -0.4037
C22 C 0.5970(2) -0.02610(19) -0.34703(17)
H28 H 0.5887 -0.0952 -0.4124
K1 K 0.92944(4) 0.39924(4) 0.34096(4)
K2 K 0.43785(4) -0.10338(4) -0.16422(4)
N1 N 1.15524(15) 0.75335(15) 0.50369(13)
N2 N 1.04575(17) 0.89152(16) 0.57692(14)
N3 N 1.33692(15) 0.64233(14) 0.46509(13)
N4 N 1.53352(15) 0.65093(15) 0.54391(14)
N5 N 1.13943(14) 0.59124(14) 0.31671(13)
N6 N 1.11445(16) 0.47385(15) 0.24771(14)
N7 N 0.64196(15) 0.25328(14) 0.00944(13)
N8 N 0.52506(17) 0.38576(16) 0.07993(14)
N9 N 0.82802(14) 0.14552(14) -0.02720(13)
N10 N 1.02347(15) 0.14839(15) 0.05003(13)
N11 N 0.63243(14) 0.09272(14) -0.17737(13)
N12 N 0.63160(16) -0.02146(15) -0.24690(14)
S1 S 0.90363(5) 0.67097(5) 0.47582(4)
S2 S 1.36789(4) 0.63025(5) 0.66427(4)
S3 S 0.39010(4) 0.16276(5) -0.03057(4)
S4 S 0.85776(4) 0.13128(5) 0.17110(4)
K1A K 1.07056(4) 0.60076(4) 0.65904(4)
K2_2 K 1.43785(4) 0.89662(4) 0.83578(4)
K2A K 0.56215(4) 0.10338(4) 0.16422(4)
S1A S 1.09637(5) 0.32903(5) 0.52418(4)
S2A S 0.63211(4) 0.36975(5) 0.33573(4)
S2_2 S 0.36789(4) -0.36975(5) -0.33573(4)
S3A S 0.60990(4) -0.16276(5) 0.03057(4)
S4A S 0.14224(4) -0.13128(5) -0.17110(4)
C23 C 0.8275(2) 0.7270(2) 0.2171(2)
H29 H 0.8812 0.8004 0.2314
H30 H 0.8243 0.6684 0.1431
H31 H 0.8628 0.6970 0.2703
O1 O 0.70431(19) 0.74883(19) 0.22622(18)
H32 H 0.6766 0.7803 0.1846
loop_
_geom_bond_atom_site_label_1
_geom_bond_atom_site_label_2
_geom_bond_site_symmetry_1
_geom_bond_site_symmetry_2
B1 H1 1_555 1_555
B2 H2 1_555 1_555
C1 N1 1_555 1_555
C2 H3 1_555 1_555
C3 C2 1_555 1_555
H4 C3 1_555 1_555
C4 H5 1_555 1_555
H6 C4 1_555 1_555
H7 C4 1_555 1_555
C5 N3 1_555 1_555
C6 H8 1_555 1_555
C7 C6 1_555 1_555
H9 C7 1_555 1_555
C8 H10 1_555 1_555
H11 C8 1_555 1_555
H12 C8 1_555 1_555
C9 H13 1_555 1_555
C10 C9 1_555 1_555
H14 C10 1_555 1_555
C11 C10 1_555 1_555
H15 C11 1_555 1_555
C12 N7 1_555 1_555
C13 H16 1_555 1_555
C14 C13 1_555 1_555
H17 C14 1_555 1_555
C15 H18 1_555 1_555
H19 C15 1_555 1_555
H20 C15 1_555 1_555
C16 N9 1_555 1_555
C17 H21 1_555 1_555
C18 C17 1_555 1_555
H22 C18 1_555 1_555
C19 H23 1_555 1_555
H24 C19 1_555 1_555
H25 C19 1_555 1_555
C20 H26 1_555 1_555
C21 C20 1_555 1_555
H27 C21 1_555 1_555
C22 C21 1_555 1_555
H28 C22 1_555 1_555
K1 N6 1_555 1_555
K2 N12 1_555 1_555
N1 B1 1_555 1_555
N2 C1 1_555 1_555
N3 B1 1_555 1_555
N4 C5 1_555 1_555
N5 B1 1_555 1_555
N6 C11 1_555 1_555
N7 B2 1_555 1_555
N8 C12 1_555 1_555
N9 B2 1_555 1_555
N10 C16 1_555 1_555
N11 B2 1_555 1_555
N12 C22 1_555 1_555
S1 C1 1_555 1_555
S2 C5 1_555 1_555
S3 C12 1_555 1_555
S4 C16 1_555 1_555
C23 H29 1_555 1_555
H30 C23 1_555 1_555
H31 C23 1_555 1_555
O1 C23 1_555 1_555
H32 O1 1_555 1_555
K1A S1 1_555 1_555
K2_2 S2 1_555 1_555
K2A S3 1_555 1_555
S1A K1 1_555 1_555
S2A K1 1_555 1_555
S2_2 K2 1_555 1_555
S3A K2 1_555 1_555
S4A K2 1_555 1_555
C2 N1 1_555 1_555
C3 N2 1_555 1_555
C4 N2 1_555 1_555
C6 N3 1_555 1_555
C7 N4 1_555 1_555
C8 N4 1_555 1_555
C9 N5 1_555 1_555
C13 N7 1_555 1_555
C14 N8 1_555 1_555
C15 N8 1_555 1_555
C17 N9 1_555 1_555
C18 N10 1_555 1_555
C19 N10 1_555 1_555
C20 N11 1_555 1_555
K1 S1 1_555 1_555
K1 S4 1_555 1_555
K2 S3 1_555 1_555
N5 N6 1_555 1_555
N11 N12 1_555 1_555
S2 K1A 1_555 1_555
S4 K2A 1_555 1_555
K1A S1A 1_555 1_555
K2A S2A 1_555 1_555
K2A S3A 1_555 1_555

#END
