
#######################################################################
#
#                 Cambridge Crystallographic Data Centre
#                                CCDC 
#
#######################################################################
#
# If this CIF has been generated from an entry in the Cambridge 
# Structural Database, then it will include bibliographic, chemical, 
# crystal, experimental, refinement or atomic coordinate data resulting 
# from the CCDC's data processing and validation procedures.
#
#######################################################################

data_ESEDUB
_symmetry_cell_setting           monoclinic
_symmetry_space_group_name_H-M   'C 2/c'
_symmetry_Int_Tables_number      15
_space_group_name_Hall           '-C 2yn'
loop_
_symmetry_equiv_pos_site_id
_symmetry_equiv_pos_as_xyz
1 x,y,z
2 1/2+x,1/2+y,z
3 x,-y,1/2+z
4 1/2+x,1/2-y,1/2+z
5 -x,-y,-z
6 1/2-x,1/2-y,-z
7 -x,y,1/2-z
8 1/2-x,1/2+y,1/2-z
_cell_length_a                   29.399(5)
_cell_length_b                   11.2041(15)
_cell_length_c                   14.1888(18)
_cell_angle_alpha                90
_cell_angle_beta                 94.266(9)
_cell_angle_gamma                90
_cell_volume                     4660.69
loop_
_atom_site_label
_atom_site_type_symbol
_atom_site_fract_x
_atom_site_fract_y
_atom_site_fract_z
Ag1 Ag 0.101712(4) 0.947462(10) 0.402203(8)
C1 C 0.05912(5) 1.23012(15) 0.70673(11)
H1 H 0.0453 1.3061 0.7208
H2 H 0.0484 1.1707 0.7496
C2 C 0.04540(5) 1.19497(13) 0.60614(10)
C3 C 0.07272(5) 1.11913(13) 0.55707(10)
H3 H 0.1004 1.0942 0.5866
C4 C 0.02097(5) 1.11735(14) 0.42613(11)
H4 H 0.0125 1.0908 0.3652
C5 C -0.00783(6) 1.19341(15) 0.46972(11)
H5 H -0.0351 1.2183 0.4384
C6 C 0.00443(5) 1.23250(14) 0.56128(11)
H6 H -0.0147 1.2832 0.5920
C7 C 0.19045(5) 1.21309(14) 0.80712(11)
C8 C 0.20484(6) 1.13104(16) 0.74132(12)
H7 H 0.1834 1.0863 0.7051
C9 C 0.25107(6) 1.11610(17) 0.72988(14)
H8 H 0.2605 1.0622 0.6854
C10 C 0.28301(6) 1.18139(17) 0.78466(14)
H9 H 0.3139 1.1708 0.7772
C11 C 0.26920(6) 1.26270(17) 0.85077(15)
H10 H 0.2908 1.3061 0.8876
C12 C 0.22310(6) 1.27920(16) 0.86178(13)
H11 H 0.2139 1.3343 0.9056
C13 C 0.12358(5) 1.36171(14) 0.88766(11)
C14 C 0.11579(6) 1.36010(15) 0.98290(11)
H12 H 0.1137 1.2877 1.0143
C15 C 0.11104(6) 1.46694(16) 1.03147(13)
H13 H 0.1062 1.4660 1.0955
C16 C 0.11355(6) 1.57479(17) 0.98404(15)
H14 H 0.1101 1.6460 1.0165
C17 C 0.12109(7) 1.57752(16) 0.88926(15)
H15 H 0.1227 1.6503 0.8582
C18 C 0.12636(6) 1.47122(15) 0.83985(12)
H16 H 0.1316 1.4728 0.7760
N1 N 0.06104(5) 1.08029(12) 0.46909(9)
O1 O 0.10811(4) 1.23964(10) 0.72006(8)
P1 P 0.130680(13) 1.22106(4) 0.82767(3)
C1B C 0.05912(5) 0.76988(15) 0.20673(11)
H1B H 0.0453 0.6939 0.2208
H2B H 0.0484 0.8293 0.2496
C2B C 0.04540(5) 0.80503(13) 0.10614(10)
C3B C 0.07272(5) 0.88087(13) 0.05707(10)
H3B H 0.1004 0.9058 0.0866
C4B C 0.02097(5) 0.88265(14) -0.07387(11)
H4B H 0.0125 0.9092 -0.1348
C5B C -0.00783(6) 0.80659(15) -0.03028(11)
H5B H -0.0351 0.7817 -0.0616
C6B C 0.00443(5) 0.76750(14) 0.06128(11)
H6B H -0.0147 0.7168 0.0920
C7B C 0.19045(5) 0.78691(14) 0.30712(11)
C8B C 0.20484(6) 0.86896(16) 0.24132(12)
H7B H 0.1834 0.9137 0.2051
C9B C 0.25107(6) 0.88390(17) 0.22988(14)
H8B H 0.2605 0.9378 0.1854
C10B C 0.28301(6) 0.81861(17) 0.28466(14)
H9B H 0.3139 0.8292 0.2772
C11B C 0.26920(6) 0.73730(17) 0.35077(15)
H10B H 0.2908 0.6939 0.3876
C12B C 0.22310(6) 0.72080(16) 0.36178(13)
H11B H 0.2139 0.6657 0.4056
C13B C 0.12358(5) 0.63829(14) 0.38766(11)
C14B C 0.11579(6) 0.63990(15) 0.48290(11)
H12B H 0.1137 0.7123 0.5143
C15B C 0.11104(6) 0.53306(16) 0.53147(13)
H13B H 0.1062 0.5340 0.5955
C16B C 0.11355(6) 0.42521(17) 0.48404(15)
H14B H 0.1101 0.3540 0.5165
C17B C 0.12109(7) 0.42248(16) 0.38926(15)
H15B H 0.1227 0.3497 0.3582
C18B C 0.12636(6) 0.52878(15) 0.33985(12)
H16B H 0.1316 0.5272 0.2760
N1B N 0.06104(5) 0.91971(12) -0.03091(9)
O1B O 0.10811(4) 0.76036(10) 0.22006(8)
P1B P 0.130680(13) 0.77894(4) 0.32767(3)
Ag1B Ag 0.101712(4) 1.052538(10) -0.097797(8)
Ag1B_2 Ag 0.101712(4) 1.052538(10) 0.902203(8)
P1_2 P 0.130680(13) 1.22106(4) -0.17233(3)
B1 B 0.10560(6) 0.13972(16) 0.21053(12)
F1 F 0.06660(3) 0.07058(9) 0.22066(7)
F2 F 0.13478(4) 0.12926(9) 0.29219(7)
F3 F 0.12746(4) 0.10125(9) 0.13221(8)
F4 F 0.09327(4) 0.25938(9) 0.19745(7)
C19 C 0.22115(6) 0.88438(19) 0.91267(14)
H17 H 0.2120 0.8012 0.9128
H18 H 0.2135 0.9163 0.8500
Cl2 Cl 0.280489(17) 0.89523(6) 0.93986(4)
Cl3 Cl 0.191217(17) 0.96480(5) 0.99664(3)
C20 C 0.0000 0.6173(2) 0.7500
H19 H 0.0267 0.6682 0.7580
H20 H -0.0267 0.6682 0.7420
Cl1 Cl 0.00347(2) 0.52863(5) 0.64780(5)
Cl1F Cl -0.00347(2) 0.52863(5) 0.85220(5)
loop_
_geom_bond_atom_site_label_1
_geom_bond_atom_site_label_2
_geom_bond_site_symmetry_1
_geom_bond_site_symmetry_2
Ag1 N1 1_555 1_555
B1 F1 1_555 1_555
C1 H1 1_555 1_555
H2 C1 1_555 1_555
C2 C1 1_555 1_555
C3 C2 1_555 1_555
H3 C3 1_555 1_555
C4 H4 1_555 1_555
C5 C4 1_555 1_555
H5 C5 1_555 1_555
C6 C2 1_555 1_555
H6 C6 1_555 1_555
C7 C8 1_555 1_555
C8 H7 1_555 1_555
C9 C8 1_555 1_555
H8 C9 1_555 1_555
C10 C9 1_555 1_555
H9 C10 1_555 1_555
C11 C10 1_555 1_555
H10 C11 1_555 1_555
C12 C7 1_555 1_555
H11 C12 1_555 1_555
C13 C14 1_555 1_555
C14 H12 1_555 1_555
C15 C14 1_555 1_555
H13 C15 1_555 1_555
C16 C15 1_555 1_555
H14 C16 1_555 1_555
C17 C16 1_555 1_555
H15 C17 1_555 1_555
C18 C13 1_555 1_555
H16 C18 1_555 1_555
C19 H17 1_555 1_555
H18 C19 1_555 1_555
C20 H19 1_555 1_555
H20 C20 1_555 1_555
Cl1 C20 1_555 1_555
Cl2 C19 1_555 1_555
Cl3 C19 1_555 1_555
F2 B1 1_555 1_555
F3 B1 1_555 1_555
F4 B1 1_555 1_555
N1 C3 1_555 1_555
O1 C1 1_555 1_555
P1 C7 1_555 1_555
Cl1F C20 1_555 1_555
C1B H1B 1_555 1_555
H2B C1B 1_555 1_555
C2B C1B 1_555 1_555
C3B C2B 1_555 1_555
H3B C3B 1_555 1_555
C4B H4B 1_555 1_555
C5B C4B 1_555 1_555
H5B C5B 1_555 1_555
C6B C2B 1_555 1_555
H6B C6B 1_555 1_555
C7B C8B 1_555 1_555
C8B H7B 1_555 1_555
C9B C8B 1_555 1_555
H8B C9B 1_555 1_555
C10B C9B 1_555 1_555
H9B C10B 1_555 1_555
C11B C10B 1_555 1_555
H10B C11B 1_555 1_555
C12B C7B 1_555 1_555
H11B C12B 1_555 1_555
C13B C14B 1_555 1_555
C14B H12B 1_555 1_555
C15B C14B 1_555 1_555
H13B C15B 1_555 1_555
C16B C15B 1_555 1_555
H14B C16B 1_555 1_555
C17B C16B 1_555 1_555
H15B C17B 1_555 1_555
C18B C13B 1_555 1_555
H16B C18B 1_555 1_555
N1B C3B 1_555 1_555
O1B C1B 1_555 1_555
P1B Ag1 1_555 1_555
Ag1B N1B 1_555 1_555
Ag1B_2 P1 1_555 1_555
P1_2 Ag1B 1_555 1_555
C4 N1 1_555 1_555
C5 C6 1_555 1_555
C11 C12 1_555 1_555
C13 P1 1_555 1_555
C17 C18 1_555 1_555
O1 P1 1_555 1_555
C4B N1B 1_555 1_555
C5B C6B 1_555 1_555
C7B P1B 1_555 1_555
C11B C12B 1_555 1_555
C13B P1B 1_555 1_555
C17B C18B 1_555 1_555
O1B P1B 1_555 1_555

#END
