
#######################################################################
#
#                 Cambridge Crystallographic Data Centre
#                                CCDC 
#
#######################################################################
#
# If this CIF has been generated from an entry in the Cambridge 
# Structural Database, then it will include bibliographic, chemical, 
# crystal, experimental, refinement or atomic coordinate data resulting 
# from the CCDC's data processing and validation procedures.
#
#######################################################################

data_ESEFIS
_symmetry_cell_setting           monoclinic
_symmetry_space_group_name_H-M   'P 21/c'
_symmetry_Int_Tables_number      14
_space_group_name_Hall           '-P 2ybc'
loop_
_symmetry_equiv_pos_site_id
_symmetry_equiv_pos_as_xyz
1 x,y,z
2 -x,1/2+y,1/2-z
3 -x,-y,-z
4 x,1/2-y,1/2+z
_cell_length_a                   6.9264(11)
_cell_length_b                   18.236(3)
_cell_length_c                   10.1180(15)
_cell_angle_alpha                90
_cell_angle_beta                 96.601(12)
_cell_angle_gamma                90
_cell_volume                     1269.53
loop_
_atom_site_label
_atom_site_type_symbol
_atom_site_fract_x
_atom_site_fract_y
_atom_site_fract_z
Cu1 Cu 0.20673(9) 0.22245(3) 0.24046(5)
Cu2 Cu 0.10593(9) 0.39982(3) 0.29774(5)
O1 O 0.1727(6) 0.27272(18) 0.0641(3)
O2 O 0.5224(6) 0.2744(2) 0.2896(4)
O3 O 0.3200(6) 0.36180(19) -0.3469(3)
O4 O -0.1210(6) 0.1679(2) 0.1407(4)
O5 O 0.3705(6) 0.4823(2) -0.3243(4)
O6 O -0.0470(7) 0.4249(2) 0.4469(4)
O7 O 0.2267(6) 0.58870(18) 0.1342(3)
O8 O 0.4212(5) 0.4004(2) 0.4068(3)
O9 O 0.1277(5) 0.50513(18) 0.2712(3)
O11 O 0.0758(5) 0.29797(18) 0.3232(3)
N1 N 0.2312(6) 0.3492(2) -0.1026(4)
N2 N 0.1838(6) 0.3964(2) 0.1103(4)
C1 C 0.1953(7) 0.3376(2) 0.0274(4)
C2 C 0.2748(7) 0.4168(2) -0.1408(4)
C3 C 0.3278(7) 0.4225(3) -0.2826(5)
C4 C 0.2743(7) 0.4768(3) -0.0580(4)
H1 H 0.3098 0.5243 -0.0853
C5 C 0.2194(7) 0.4640(2) 0.0661(4)
C6 C 0.1910(7) 0.5249(3) 0.1638(4)
H2 H -0.118(13) 0.455(5) 0.430(9)
Cu1C Cu 0.20673(9) 0.27755(3) -0.25954(5)
O3C O 0.3200(6) 0.13820(19) 0.1531(3)
N1C N 0.2312(6) 0.1508(2) 0.3974(4)
O10 O 0.3264(7) 0.7055(3) -0.0345(4)
loop_
_geom_bond_atom_site_label_1
_geom_bond_atom_site_label_2
_geom_bond_site_symmetry_1
_geom_bond_site_symmetry_2
Cu1 O1 1_555 1_555
Cu2 O6 1_555 1_555
O1 C1 1_555 1_555
O2 Cu1 1_555 1_555
O3 C3 1_555 1_555
O4 Cu1 1_555 1_555
O5 C3 1_555 1_555
O6 H2 1_555 1_555
O7 C6 1_555 1_555
O8 Cu2 1_555 1_555
O9 Cu2 1_555 1_555
O11 Cu1 1_555 1_555
N1 C1 1_555 1_555
N2 Cu2 1_555 1_555
C1 N2 1_555 1_555
C2 N1 1_555 1_555
C3 C2 1_555 1_555
C4 C2 1_555 1_555
H1 C4 1_555 1_555
C5 N2 1_555 1_555
C6 O9 1_555 1_555
Cu1C O3 1_555 1_555
O3C Cu1 1_555 1_555
N1C Cu1 1_555 1_555
Cu2 O11 1_555 1_555
N1 Cu1C 1_555 1_555
C4 C5 1_555 1_555
C5 C6 1_555 1_555

#END
