
#######################################################################
#
#                 Cambridge Crystallographic Data Centre
#                                CCDC 
#
#######################################################################
#
# If this CIF has been generated from an entry in the Cambridge 
# Structural Database, then it will include bibliographic, chemical, 
# crystal, experimental, refinement or atomic coordinate data resulting 
# from the CCDC's data processing and validation procedures.
#
#######################################################################

data_ESEFOY
_symmetry_cell_setting           monoclinic
_symmetry_space_group_name_H-M   'P 21/c'
_symmetry_Int_Tables_number      14
_space_group_name_Hall           '-P 2ybc'
loop_
_symmetry_equiv_pos_site_id
_symmetry_equiv_pos_as_xyz
1 x,y,z
2 -x,1/2+y,1/2-z
3 -x,-y,-z
4 x,1/2-y,1/2+z
_cell_length_a                   4.9845(9)
_cell_length_b                   9.456(2)
_cell_length_c                   18.431(5)
_cell_angle_alpha                90
_cell_angle_beta                 90.803(15)
_cell_angle_gamma                90
_cell_volume                     868.631
loop_
_atom_site_label
_atom_site_type_symbol
_atom_site_fract_x
_atom_site_fract_y
_atom_site_fract_z
Cu1 Cu 0.14020(12) 0.73032(7) 0.25259(3)
Cu2 Cu -0.26697(14) 0.65356(6) 0.10738(3)
O1 O 0.0025(7) 0.9038(4) 0.20918(19)
O2 O -0.1773(10) 0.4719(5) 0.0667(3)
O3 O -0.4331(8) 1.3417(4) 0.2068(2)
O4 O -0.8123(9) 1.3174(5) 0.1418(3)
O5 O -0.8958(10) 0.8201(6) 0.0127(3)
O6 O -0.5579(9) 0.6763(4) 0.0392(2)
O7 O -0.0737(15) 0.6217(5) 0.1928(3)
N1 N -0.2914(8) 1.0786(4) 0.1840(2)
N2 N -0.3416(9) 0.8551(4) 0.1288(2)
C1 C -0.2054(9) 0.9428(5) 0.1757(2)
C2 C -0.5046(9) 1.1255(5) 0.1457(2)
C3 C -0.5909(11) 1.2745(5) 0.1652(3)
C4 C -0.6411(9) 1.0404(6) 0.0958(2)
H1 H -0.7877 1.0745 0.0673
C5 C -0.5506(9) 0.9051(5) 0.0905(2)
C6 C -0.6865(11) 0.7962(6) 0.0422(3)
Cu1A Cu -0.14020(12) 1.23032(7) 0.24741(3)
Cu1A_2 Cu -1.14020(12) 1.23032(7) 0.24741(3)
O3A O 0.4331(8) 0.8417(4) 0.2932(2)
O4A O -0.1877(9) 0.8174(5) 0.3582(3)
N1A N 0.2914(8) 0.5786(4) 0.3160(2)
loop_
_geom_bond_atom_site_label_1
_geom_bond_atom_site_label_2
_geom_bond_site_symmetry_1
_geom_bond_site_symmetry_2
Cu1 O1 1_555 1_555
Cu2 O2 1_555 1_555
O1 C1 1_555 1_555
O3 C3 1_555 1_555
O4 C3 1_555 1_555
O5 C6 1_555 1_555
O6 Cu2 1_555 1_555
O7 Cu1 1_555 1_555
N1 C1 1_555 1_555
N2 Cu2 1_555 1_555
C1 N2 1_555 1_555
C2 N1 1_555 1_555
C3 C2 1_555 1_555
C4 C2 1_555 1_555
H1 C4 1_555 1_555
C5 N2 1_555 1_555
C6 O6 1_555 1_555
Cu1A O3 1_555 1_555
Cu1A_2 O4 1_555 1_555
O3A Cu1 1_555 1_555
O4A Cu1 1_555 1_555
N1A Cu1 1_555 1_555
Cu2 O7 1_555 1_555
N1 Cu1A 1_555 1_555
C4 C5 1_555 1_555
C5 C6 1_555 1_555

#END
