
#######################################################################
#
#                 Cambridge Crystallographic Data Centre
#                                CCDC 
#
#######################################################################
#
# If this CIF has been generated from an entry in the Cambridge 
# Structural Database, then it will include bibliographic, chemical, 
# crystal, experimental, refinement or atomic coordinate data resulting 
# from the CCDC's data processing and validation procedures.
#
#######################################################################

data_ESEHOZ01
_symmetry_cell_setting           triclinic
_symmetry_space_group_name_H-M   'P -1'
_symmetry_Int_Tables_number      2
_space_group_name_Hall           '-P 1'
loop_
_symmetry_equiv_pos_site_id
_symmetry_equiv_pos_as_xyz
1 x,y,z
2 -x,-y,-z
_cell_length_a                   5.178(3)
_cell_length_b                   7.614(6)
_cell_length_c                   8.109(6)
_cell_angle_alpha                67.06(6)
_cell_angle_beta                 73.81(6)
_cell_angle_gamma                71.74(6)
_cell_volume                     275.066
loop_
_atom_site_label
_atom_site_type_symbol
_atom_site_fract_x
_atom_site_fract_y
_atom_site_fract_z
Cu1 Cu 0.5000 0.5000 0.5000
N1 N 0.7600(6) 0.3669(4) 0.3343(4)
O1 O 0.7863(5) 0.3675(4) 0.6512(3)
O2 O 1.2314(5) 0.2015(4) 0.6358(4)
C1 C 1.0139(7) 0.2737(6) 0.5746(5)
C2 C 0.9988(7) 0.2601(6) 0.3957(5)
C3 C 1.2037(8) 0.1486(6) 0.3018(5)
H1 H 1.3691 0.0732 0.3473
C4 C 1.1625(8) 0.1494(6) 0.1403(6)
H2 H 1.2998 0.0725 0.0747
C5 C 0.9215(8) 0.2621(6) 0.0732(5)
H3 H 0.8925 0.2662 -0.0390
C6 C 0.7240(7) 0.3688(6) 0.1766(5)
H4 H 0.5574 0.4459 0.1334
Cu1_2 Cu 1.5000 0.5000 0.5000
Cu1_3 Cu -0.5000 0.5000 0.5000
N1A N 0.2400(6) 0.6331(4) 0.6657(4)
O1A O 0.2137(5) 0.6325(4) 0.3488(3)
O2A O -0.2314(5) 0.7985(4) 0.3642(4)
O2_2 O 0.2314(5) 0.2015(4) 0.6358(4)
O2A_2 O 0.7686(5) 0.7985(4) 0.3642(4)
C1A C -0.0139(7) 0.7263(6) 0.4254(5)
C2A C 0.0012(7) 0.7399(6) 0.6043(5)
C3A C -0.2037(8) 0.8514(6) 0.6982(5)
H1A H -0.3691 0.9268 0.6527
C4A C -0.1625(8) 0.8506(6) 0.8597(6)
H2A H -0.2998 0.9275 0.9253
C5A C 0.0785(8) 0.7379(6) 0.9268(5)
H3A H 0.1075 0.7338 1.0390
C6A C 0.2760(7) 0.6312(6) 0.8234(5)
H4A H 0.4426 0.5541 0.8666
loop_
_geom_bond_atom_site_label_1
_geom_bond_atom_site_label_2
_geom_bond_site_symmetry_1
_geom_bond_site_symmetry_2
Cu1 N1 1_555 1_555
N1 C2 1_555 1_555
O1 Cu1 1_555 1_555
O2 C1 1_555 1_555
C1 O1 1_555 1_555
C2 C1 1_555 1_555
C3 C2 1_555 1_555
H1 C3 1_555 1_555
C4 C3 1_555 1_555
H2 C4 1_555 1_555
C5 C4 1_555 1_555
H3 C5 1_555 1_555
C6 N1 1_555 1_555
H4 C6 1_555 1_555
Cu1_2 O2 1_555 1_555
Cu1_3 O2A 1_555 1_555
N1A Cu1 1_555 1_555
O1A Cu1 1_555 1_555
O2A C1A 1_555 1_555
O2_2 Cu1 1_555 1_555
O2A_2 Cu1 1_555 1_555
C1A O1A 1_555 1_555
C2A N1A 1_555 1_555
C3A C2A 1_555 1_555
H1A C3A 1_555 1_555
C4A C3A 1_555 1_555
H2A C4A 1_555 1_555
C5A C4A 1_555 1_555
H3A C5A 1_555 1_555
C6A N1A 1_555 1_555
H4A C6A 1_555 1_555
C5 C6 1_555 1_555
C1A C2A 1_555 1_555
C5A C6A 1_555 1_555

#END
