
#######################################################################
#
#                 Cambridge Crystallographic Data Centre
#                                CCDC 
#
#######################################################################
#
# If this CIF has been generated from an entry in the Cambridge 
# Structural Database, then it will include bibliographic, chemical, 
# crystal, experimental, refinement or atomic coordinate data resulting 
# from the CCDC's data processing and validation procedures.
#
#######################################################################

data_ESEHEP
_symmetry_cell_setting           orthorhombic
_symmetry_space_group_name_H-M   'I 2 2 2'
_symmetry_Int_Tables_number      23
_space_group_name_Hall           'I 2 2'
loop_
_symmetry_equiv_pos_site_id
_symmetry_equiv_pos_as_xyz
1 x,y,z
2 -x,-y,z
3 x,-y,-z
4 -x,y,-z
5 1/2+x,1/2+y,1/2+z
6 1/2-x,1/2-y,1/2+z
7 1/2+x,1/2-y,1/2-z
8 1/2-x,1/2+y,1/2-z
_cell_length_a                   9.348(2)
_cell_length_b                   12.654(2)
_cell_length_c                   28.525(5)
_cell_angle_alpha                90
_cell_angle_beta                 90
_cell_angle_gamma                90
_cell_volume                     3374.21
loop_
_atom_site_label
_atom_site_type_symbol
_atom_site_fract_x
_atom_site_fract_y
_atom_site_fract_z
Mn1 Mn 0.5000 0.1390 0.0000
Mn3 Mn 0.0000 0.0000 0.0000
Cl1 Cl 0.3040 0.0000 0.0000
Cl2 Cl 0.03055(9) 0.24513(5) 0.13116(3)
Cl3 Cl 0.01018(16) 0.12325(7) 0.22743(3)
N1 N 0.4881(3) 0.15167(18) 0.07982(7)
N2 N 0.6413(3) 0.27533(18) 0.02074(9)
O1 O 0.0074(3) 0.10222(12) 0.04833(6)
C1 C 0.5939(3) 0.2076(2) 0.09958(11)
C2 C 0.6038(5) 0.2204(3) 0.14752(13)
C3 C 0.5002(7) 0.1756(3) 0.17597(11)
C4 C 0.3918(5) 0.1192(4) 0.15588(14)
C5 C 0.3876(4) 0.1096(3) 0.10790(13)
C6 C 0.7040(3) 0.2535(2) 0.06696(10)
C7 C 0.5465(3) 0.3693(2) 0.02207(12)
C8 C 0.0046 0.05572(17) 0.0907
C9 C 0.0046(4) 0.0547(2) 0.17517(9)
C10 C 0.0116(3) 0.10968(18) 0.13262(10)
H1 H 0.709(4) 0.283(2) -0.0017(15)
H2 H 0.680(5) 0.256(3) 0.1561(14)
H3 H 0.497(7) 0.184(3) 0.2055(15)
H4 H 0.322(5) 0.086(3) 0.1697(15)
H5 H 0.312(5) 0.072(3) 0.0912(14)
H6 H 0.740(4) 0.316(3) 0.0832(12)
H7 H 0.780(5) 0.199(3) 0.0652(13)
H8 H 0.480(4) 0.356(3) 0.0540(11)
H9 H 0.595(5) 0.435(4) 0.0257(15)
C8A C -0.0046 -0.05572(17) 0.0907
O1A O -0.0074(3) -0.10222(12) 0.04833(6)
C10A C -0.0116(3) -0.10968(18) 0.13262(10)
Cl2A Cl -0.03055(9) -0.24513(5) 0.13116(3)
C9A C -0.0046(4) -0.0547(2) 0.17517(9)
Cl3A Cl -0.01018(16) -0.12325(7) 0.22743(3)
C7C C 0.4535(3) 0.3693(2) -0.02207(12)
N2C N 0.3587(3) 0.27533(18) -0.02074(9)
C6C C 0.2960(3) 0.2535(2) -0.06696(10)
C1C C 0.4061(3) 0.2076(2) -0.09958(11)
N1C N 0.5119(3) 0.15167(18) -0.07982(7)
C5C C 0.6124(4) 0.1096(3) -0.10790(13)
C4C C 0.6082(5) 0.1192(4) -0.15588(14)
C3C C 0.4998(7) 0.1756(3) -0.17597(11)
C2C C 0.3962(5) 0.2204(3) -0.14752(13)
H2C H 0.320(5) 0.256(3) -0.1561(14)
H3C H 0.503(7) 0.184(3) -0.2055(15)
H4C H 0.678(5) 0.086(3) -0.1697(15)
H5C H 0.688(5) 0.072(3) -0.0912(14)
H6C H 0.260(4) 0.316(3) -0.0832(12)
H7C H 0.220(5) 0.199(3) -0.0652(13)
H1C H 0.291(4) 0.283(2) 0.0017(15)
H8C H 0.520(4) 0.356(3) -0.0540(11)
H9C H 0.405(5) 0.435(4) -0.0257(15)
Cl1A Cl -0.3040 0.0000 0.0000
Cl2B Cl 0.03055(9) -0.24513(5) -0.13116(3)
Cl3B Cl 0.01018(16) -0.12325(7) -0.22743(3)
O1B O 0.0074(3) -0.10222(12) -0.04833(6)
C8B C 0.0046 -0.05572(17) -0.0907
C9B C 0.0046(4) -0.0547(2) -0.17517(9)
C10B C 0.0116(3) -0.10968(18) -0.13262(10)
C8C C -0.0046 0.05572(17) -0.0907
O1C O -0.0074(3) 0.10222(12) -0.04833(6)
C10C C -0.0116(3) 0.10968(18) -0.13262(10)
Cl2C Cl -0.03055(9) 0.24513(5) -0.13116(3)
C9C C -0.0046(4) 0.0547(2) -0.17517(9)
Cl3C Cl -0.01018(16) 0.12325(7) -0.22743(3)
Mn1A Mn -0.5000 -0.1390 0.0000
N1A N -0.4881(3) -0.15167(18) 0.07982(7)
N2A N -0.6413(3) -0.27533(18) 0.02074(9)
C1A C -0.5939(3) -0.2076(2) 0.09958(11)
C2A C -0.6038(5) -0.2204(3) 0.14752(13)
C3A C -0.5002(7) -0.1756(3) 0.17597(11)
C4A C -0.3918(5) -0.1192(4) 0.15588(14)
C5A C -0.3876(4) -0.1096(3) 0.10790(13)
C6A C -0.7040(3) -0.2535(2) 0.06696(10)
C7A C -0.5465(3) -0.3693(2) 0.02207(12)
H1A H -0.709(4) -0.283(2) -0.0017(15)
H2A H -0.680(5) -0.256(3) 0.1561(14)
H3A H -0.497(7) -0.184(3) 0.2055(15)
H4A H -0.322(5) -0.086(3) 0.1697(15)
H5A H -0.312(5) -0.072(3) 0.0912(14)
H6A H -0.740(4) -0.316(3) 0.0832(12)
H7A H -0.780(5) -0.199(3) 0.0652(13)
H8A H -0.480(4) -0.356(3) 0.0540(11)
H9A H -0.595(5) -0.435(4) 0.0257(15)
C7B C -0.4535(3) -0.3693(2) -0.02207(12)
N2B N -0.3587(3) -0.27533(18) -0.02074(9)
C6B C -0.2960(3) -0.2535(2) -0.06696(10)
C1B C -0.4061(3) -0.2076(2) -0.09958(11)
N1B N -0.5119(3) -0.15167(18) -0.07982(7)
C5B C -0.6124(4) -0.1096(3) -0.10790(13)
C4B C -0.6082(5) -0.1192(4) -0.15588(14)
C3B C -0.4998(7) -0.1756(3) -0.17597(11)
C2B C -0.3962(5) -0.2204(3) -0.14752(13)
H2B H -0.320(5) -0.256(3) -0.1561(14)
H3B H -0.503(7) -0.184(3) -0.2055(15)
H4B H -0.678(5) -0.086(3) -0.1697(15)
H5B H -0.688(5) -0.072(3) -0.0912(14)
H6B H -0.260(4) -0.316(3) -0.0832(12)
H7B H -0.220(5) -0.199(3) -0.0652(13)
H1B H -0.291(4) -0.283(2) 0.0017(15)
H8B H -0.520(4) -0.356(3) -0.0540(11)
H9B H -0.405(5) -0.435(4) -0.0257(15)
Cl1A_2 Cl 0.6960 0.0000 0.0000
Mn1A_2 Mn 0.5000 -0.1390 0.0000
Mn1_2 Mn -0.5000 0.1390 0.0000
Cl1_2 Cl -0.6960 0.0000 0.0000
Mn2 Mn 0.0000 0.5000 0.0000
Cl4 Cl 0.33061(7) 0.46949(7) 0.13149(3)
Cl5 Cl 0.16643(11) 0.48418(15) 0.22683(3)
O2 O 0.13874(18) 0.4923(2) 0.04842(6)
C11 C 0.0755(2) 0.4951(2) 0.09055(8)
C12 C 0.1475(2) 0.4883(2) 0.13243(8)
C13 C 0.0735(3) 0.4937(3) 0.17475(9)
O3 O 0.0000 0.3054(2) 0.0000
H10 H 0.009(7) 0.260(4) 0.0214(14)
C11A C -0.0755(2) 0.5049(2) 0.09055(8)
O2A O -0.13874(18) 0.5077(2) 0.04842(6)
C12A C -0.1475(2) 0.5117(2) 0.13243(8)
Cl4A Cl -0.33061(7) 0.53051(7) 0.13149(3)
C13A C -0.0735(3) 0.5063(3) 0.17475(9)
Cl5A Cl -0.16643(11) 0.51582(15) 0.22683(3)
H10C H -0.009(7) 0.260(4) -0.0214(14)
Cl4B Cl 0.33061(7) 0.53051(7) -0.13149(3)
Cl5B Cl 0.16643(11) 0.51582(15) -0.22683(3)
O2B O 0.13874(18) 0.5077(2) -0.04842(6)
C11B C 0.0755(2) 0.5049(2) -0.09055(8)
C12B C 0.1475(2) 0.5117(2) -0.13243(8)
C13B C 0.0735(3) 0.5063(3) -0.17475(9)
C11C C -0.0755(2) 0.4951(2) -0.09055(8)
O2C O -0.13874(18) 0.4923(2) -0.04842(6)
C12C C -0.1475(2) 0.4883(2) -0.13243(8)
Cl4C Cl -0.33061(7) 0.46949(7) -0.13149(3)
C13C C -0.0735(3) 0.4937(3) -0.17475(9)
Cl5C Cl -0.16643(11) 0.48418(15) -0.22683(3)
O3A O 0.0000 0.6946(2) 0.0000
H10A H -0.009(7) 0.740(4) 0.0214(14)
H10B H 0.009(7) 0.740(4) -0.0214(14)
loop_
_geom_bond_atom_site_label_1
_geom_bond_atom_site_label_2
_geom_bond_site_symmetry_1
_geom_bond_site_symmetry_2
Mn1 Cl1 1_555 1_555
Mn2 O2 1_555 1_555
Mn3 Cl1 1_555 1_555
Cl1 Mn1A_2 1_555 1_555
Cl2 C10 1_555 1_555
Cl3 C9 1_555 1_555
Cl4 C12 1_555 1_555
Cl5 C13 1_555 1_555
N1 Mn1 1_555 1_555
N2 Mn1 1_555 1_555
O1 Mn3 1_555 1_555
O2 C11 1_555 1_555
C1 N1 1_555 1_555
C2 C1 1_555 1_555
C3 C2 1_555 1_555
C4 C3 1_555 1_555
C5 N1 1_555 1_555
C6 N2 1_555 1_555
C7 N2 1_555 1_555
C8 O1 1_555 1_555
C9 C10 1_555 1_555
C10 C8 1_555 1_555
C11 C12 1_555 1_555
C12 C13 1_555 1_555
C13 C13A 1_555 1_555
O3 Mn2 1_555 1_555
H1 N2 1_555 1_555
H2 C2 1_555 1_555
H3 C3 1_555 1_555
H4 C4 1_555 1_555
H5 C5 1_555 1_555
H6 C6 1_555 1_555
H7 C6 1_555 1_555
H8 C7 1_555 1_555
H9 C7 1_555 1_555
H10 O3 1_555 1_555
C8A C8 1_555 1_555
O1A Mn3 1_555 1_555
C10A C8A 1_555 1_555
Cl2A C10A 1_555 1_555
C9A C9 1_555 1_555
Cl3A C9A 1_555 1_555
C11A C11 1_555 1_555
O2A Mn2 1_555 1_555
C12A C11A 1_555 1_555
Cl4A C12A 1_555 1_555
C13A C12A 1_555 1_555
Cl5A C13A 1_555 1_555
C7C C7 1_555 1_555
N2C Mn1 1_555 1_555
C6C N2C 1_555 1_555
C1C C6C 1_555 1_555
N1C Mn1 1_555 1_555
C5C N1C 1_555 1_555
C4C C5C 1_555 1_555
C3C C4C 1_555 1_555
C2C C1C 1_555 1_555
H2C C2C 1_555 1_555
H3C C3C 1_555 1_555
H4C C4C 1_555 1_555
H5C C5C 1_555 1_555
H6C C6C 1_555 1_555
H7C C6C 1_555 1_555
H1C N2C 1_555 1_555
H8C C7C 1_555 1_555
H9C C7C 1_555 1_555
H10C O3 1_555 1_555
Cl4B C12B 1_555 1_555
Cl5B C13B 1_555 1_555
O2B Mn2 1_555 1_555
C11B O2B 1_555 1_555
C12B C11B 1_555 1_555
C13B C12B 1_555 1_555
C11C C11B 1_555 1_555
O2C Mn2 1_555 1_555
C12C C11C 1_555 1_555
Cl4C C12C 1_555 1_555
C13C C13B 1_555 1_555
Cl5C C13C 1_555 1_555
O3A Mn2 1_555 1_555
H10A O3A 1_555 1_555
H10B O3A 1_555 1_555
Cl1A Mn3 1_555 1_555
Cl2B C10B 1_555 1_555
Cl3B C9B 1_555 1_555
O1B Mn3 1_555 1_555
C8B O1B 1_555 1_555
C9B C10B 1_555 1_555
C10B C8B 1_555 1_555
C8C C8B 1_555 1_555
O1C Mn3 1_555 1_555
C10C C8C 1_555 1_555
Cl2C C10C 1_555 1_555
C9C C9B 1_555 1_555
Cl3C C9C 1_555 1_555
Mn1A Cl1A 1_555 1_555
N1A Mn1A 1_555 1_555
N2A Mn1A 1_555 1_555
C1A N1A 1_555 1_555
C2A C1A 1_555 1_555
C3A C2A 1_555 1_555
C4A C3A 1_555 1_555
C5A N1A 1_555 1_555
C6A N2A 1_555 1_555
C7A N2A 1_555 1_555
H1A N2A 1_555 1_555
H2A C2A 1_555 1_555
H3A C3A 1_555 1_555
H4A C4A 1_555 1_555
H5A C5A 1_555 1_555
H6A C6A 1_555 1_555
H7A C6A 1_555 1_555
H8A C7A 1_555 1_555
H9A C7A 1_555 1_555
C7B C7A 1_555 1_555
N2B Mn1A 1_555 1_555
C6B N2B 1_555 1_555
C1B C6B 1_555 1_555
N1B Mn1A 1_555 1_555
C5B N1B 1_555 1_555
C4B C5B 1_555 1_555
C3B C4B 1_555 1_555
C2B C1B 1_555 1_555
H2B C2B 1_555 1_555
H3B C3B 1_555 1_555
H4B C4B 1_555 1_555
H5B C5B 1_555 1_555
H6B C6B 1_555 1_555
H7B C6B 1_555 1_555
H1B N2B 1_555 1_555
H8B C7B 1_555 1_555
H9B C7B 1_555 1_555
Cl1A_2 Mn1 1_555 1_555
Mn1A_2 Cl1A_2 1_555 1_555
Mn1_2 Cl1A 1_555 1_555
Cl1_2 Mn1A 1_555 1_555
C1 C6 1_555 1_555
C4 C5 1_555 1_555
C8A O1A 1_555 1_555
C10A C9A 1_555 1_555
C11A O2A 1_555 1_555
C7C N2C 1_555 1_555
C1C N1C 1_555 1_555
C3C C2C 1_555 1_555
C11C O2C 1_555 1_555
C12C C13C 1_555 1_555
C8C O1C 1_555 1_555
C10C C9C 1_555 1_555
C1A C6A 1_555 1_555
C4A C5A 1_555 1_555
C7B N2B 1_555 1_555
C1B N1B 1_555 1_555
C3B C2B 1_555 1_555
Mn1_2 Cl1_2 1_555 1_555

#END
