
#######################################################################
#
#                 Cambridge Crystallographic Data Centre
#                                CCDC 
#
#######################################################################
#
# If this CIF has been generated from an entry in the Cambridge 
# Structural Database, then it will include bibliographic, chemical, 
# crystal, experimental, refinement or atomic coordinate data resulting 
# from the CCDC's data processing and validation procedures.
#
#######################################################################

data_ESEMIY
_symmetry_cell_setting           triclinic
_symmetry_space_group_name_H-M   'P -1'
_symmetry_Int_Tables_number      2
_space_group_name_Hall           '-P 1'
loop_
_symmetry_equiv_pos_site_id
_symmetry_equiv_pos_as_xyz
1 x,y,z
2 -x,-y,-z
_cell_length_a                   12.165(6)
_cell_length_b                   15.311(8)
_cell_length_c                   21.156(11)
_cell_angle_alpha                110.195(9)
_cell_angle_beta                 90.055(9)
_cell_angle_gamma                97.225(10)
_cell_volume                     3664.7
loop_
_atom_site_label
_atom_site_type_symbol
_atom_site_fract_x
_atom_site_fract_y
_atom_site_fract_z
Ag1 Ag 0.36999(8) -0.00227(6) 0.26350(6)
Ag2 Ag 0.62995(8) 0.00215(6) 0.23638(5)
Ag3 Ag 0.13006(8) 0.00220(6) 0.26460(5)
Ag4 Ag -0.12993(8) -0.00220(6) 0.23529(5)
N1 N 0.6030(8) -0.2130(7) 0.3176(6)
N2 N 0.6244(8) -0.0903(7) 0.2907(6)
N3 N 0.3421(9) -0.2255(7) 0.3369(6)
N4 N 0.3491(9) -0.0980(8) 0.3152(6)
N5 N 0.3980(8) 0.2130(7) 0.1788(6)
N6 N 0.3757(8) 0.0879(7) 0.2076(6)
N7 N 0.6573(9) 0.2272(8) 0.1631(6)
N8 N 0.6483(8) 0.0952(8) 0.1835(6)
N9 N -0.1033(8) 0.2156(7) 0.4270(6)
N10 N -0.1241(8) 0.0877(7) 0.3361(5)
N11 N -0.1586(8) -0.2237(7) 0.0498(5)
N12 N -0.1500(8) -0.0965(7) 0.1359(5)
N13 N 0.1017(8) -0.2128(6) 0.0745(5)
N14 N 0.1229(8) -0.0889(7) 0.1648(5)
N15 N 0.1552(8) 0.2287(7) 0.4506(5)
N16 N 0.1507(8) 0.0965(7) 0.3645(5)
C1 C 0.5451(15) -0.4268(9) 0.1943(8)
H1 H 0.6211 -0.4266 0.1894
C2 C 0.469(2) -0.4793(12) 0.1403(9)
H2 H 0.4943 -0.5074 0.0974
C3 C 0.366(2) -0.4879(15) 0.1510(13)
H3 H 0.3193 -0.5309 0.1167
C4 C 0.3189(15) -0.4381(10) 0.2099(9)
H4 H 0.2423 -0.4444 0.2132
C5 C 0.3875(13) -0.3792(9) 0.2630(7)
C6 C 0.5042(13) -0.3755(8) 0.2544(6)
C7 C 0.5861(10) -0.3119(8) 0.3129(6)
H5 H 0.5584 -0.3154 0.3550
H6 H 0.6571 -0.3357 0.3068
C8 C 0.6114(10) -0.1804(8) 0.2668(6)
H7 H 0.6084 -0.2170 0.2213
C9 C 0.6257(11) -0.0664(9) 0.3586(7)
H8 H 0.6328 -0.0052 0.3893
C10 C 0.6154(11) -0.1434(9) 0.3749(7)
H9 H 0.6167 -0.1469 0.4179
C11 C 0.3359(11) -0.3247(9) 0.3274(6)
H10 H 0.2587 -0.3511 0.3262
H11 H 0.3737 -0.3315 0.3655
C12 C 0.3440(9) -0.1890(8) 0.2882(6)
H12 H 0.3419 -0.2230 0.2422
C13 C 0.3441(11) -0.0767(10) 0.3820(7)
H13 H 0.3458 -0.0165 0.4135
C14 C 0.3359(12) -0.1585(13) 0.3966(8)
H14 H 0.3279 -0.1652 0.4384
C15 C 0.3888(9) 0.1794(8) 0.2301(6)
H15 H 0.3915 0.2167 0.2754
C16 C 0.3774(10) 0.0599(8) 0.1384(7)
H16 H 0.3717 -0.0017 0.1085
C17 C 0.3891(9) 0.1386(9) 0.1217(6)
H17 H 0.3906 0.1404 0.0782
C18 C 0.4172(10) 0.3150(7) 0.1864(6)
H18 H 0.4468 0.3206 0.1452
H19 H 0.3466 0.3394 0.1923
C19 C 0.4952(11) 0.3736(8) 0.2445(6)
C20 C 0.4547(15) 0.4227(9) 0.3024(8)
H20 H 0.3785 0.4187 0.3074
C21 C 0.530(2) 0.4826(13) 0.3579(10)
H21 H 0.5025 0.5203 0.3975
C22 C 0.636(2) 0.4835(13) 0.3525(11)
H22 H 0.6837 0.5147 0.3901
C23 C 0.6781(15) 0.4396(10) 0.2926(9)
H23 H 0.7541 0.4487 0.2872
C24 C 0.6069(13) 0.3799(8) 0.2380(7)
C25 C 0.6590(11) 0.3263(8) 0.1725(7)
H24 H 0.6188 0.3317 0.1347
H25 H 0.7351 0.3546 0.1730
C26 C 0.6542(10) 0.1859(9) 0.2115(7)
H26 H 0.6561 0.2183 0.2577
C27 C 0.6535(11) 0.0751(9) 0.1164(7)
H27 H 0.6528 0.0154 0.0845
C28 C 0.6597(11) 0.1562(12) 0.1030(7)
H28 H 0.6646 0.1620 0.0608
C29 C -0.0472(15) 0.4242(10) 0.4086(6)
H29 H -0.1232 0.4223 0.4022
C30 C 0.035(2) 0.4842(11) 0.3832(7)
H30 H 0.0110 0.5211 0.3606
C31 C 0.141(2) 0.4844(13) 0.3932(10)
H31 H 0.1919 0.5187 0.3748
C32 C 0.1784(15) 0.4387(10) 0.4276(8)
H32 H 0.2546 0.4450 0.4360
C33 C 0.1103(12) 0.3813(8) 0.4524(6)
C34 C -0.0053(12) 0.3729(8) 0.4414(6)
C35 C -0.0848(10) 0.3153(7) 0.4700(5)
H33 H -0.0563 0.3207 0.5142
H34 H -0.1552 0.3401 0.4756
C36 C -0.1102(9) 0.1826(9) 0.3603(7)
H35 H -0.1061 0.2198 0.3336
C37 C -0.1107(10) 0.1398(10) 0.4463(6)
H36 H -0.1069 0.1410 0.4905
C38 C -0.1246(11) 0.0630(9) 0.3911(8)
H37 H -0.1333 0.0016 0.3907
C39 C -0.1540(11) -0.0720(9) 0.0791(7)
H38 H -0.1532 -0.0117 0.0780
C40 C -0.1592(11) -0.1527(11) 0.0251(7)
H39 H -0.1625 -0.1583 -0.0201
C41 C -0.1534(10) -0.1871(8) 0.1177(6)
H40 H -0.1525 -0.2210 0.1467
C42 C 0.0466(15) -0.4248(9) 0.0916(6)
H41 H 0.1222 -0.4265 0.0965
C43 C -0.036(2) -0.4782(13) 0.1194(10)
H42 H -0.0095 -0.5043 0.1491
C44 C -0.134(2) -0.4916(15) 0.1079(11)
H43 H -0.1806 -0.5346 0.1214
C45 C -0.1751(15) -0.4399(10) 0.0738(8)
H44 H -0.2517 -0.4449 0.0677
C46 C -0.1082(13) -0.3794(7) 0.0473(5)
C47 C 0.0062(13) -0.3725(8) 0.0583(6)
C48 C 0.0871(10) -0.3109(8) 0.0316(6)
H45 H 0.1586 -0.3338 0.0272
H46 H 0.0606 -0.3161 -0.0130
C49 C 0.1101(10) -0.1796(8) 0.1427(6)
H47 H 0.1070 -0.2166 0.1697
C50 C 0.1221(10) -0.0627(9) 0.1096(8)
H48 H 0.1280 -0.0010 0.1108
C51 C 0.1114(10) -0.1389(10) 0.0528(6)
H49 H 0.1108 -0.1404 0.0085
C52 C -0.1591(11) -0.3214(9) 0.0117(6)
H50 H -0.1196 -0.3266 -0.0290
H51 H -0.2354 -0.3493 -0.0021
C53 C 0.1614(11) 0.3292(8) 0.4895(4)
H52 H 0.2386 0.3557 0.5009
H53 H 0.1242 0.3372 0.5313
C54 C 0.1550(9) 0.1886(9) 0.3823(6)
H54 H 0.1575 0.2213 0.3524
C55 C 0.1576(11) 0.0756(10) 0.4223(8)
H55 H 0.1589 0.0162 0.4247
C56 C 0.1622(10) 0.1594(10) 0.4763(6)
H56 H 0.1689 0.1669 0.5218
Ag4_2 Ag 0.87007(8) -0.00220(6) 0.23529(5)
Ag2_2 Ag -0.37005(8) 0.00215(6) 0.23638(5)
Sb1 Sb -0.46763(8) -0.74291(6) -0.05670(4)
F1 F -0.375(2) -0.683(3) 0.0171(13)
F3 F -0.3814(10) -0.7216(11) -0.1222(6)
F4 F -0.3623(14) -0.8087(15) -0.0396(9)
F5 F -0.540(3) -0.8586(15) -0.0935(16)
F7 F -0.579(2) -0.710(3) -0.0943(19)
F9 F -0.539(2) -0.725(2) 0.0241(12)
Sb2 Sb 0.53265(8) 0.25704(6) 0.44321(4)
F11 F 0.591(5) 0.362(4) 0.4997(18)
F13 F 0.6420(10) 0.2076(13) 0.4693(8)
F14 F 0.468(5) 0.286(3) 0.5216(15)
F16 F 0.4593(18) 0.1489(10) 0.3977(11)
F17 F 0.4267(10) 0.3072(11) 0.4168(8)
F18 F 0.6162(11) 0.2757(11) 0.3765(6)
Sb3 Sb 0.03258(8) 0.25706(6) 0.18528(4)
F19 F 0.130(3) 0.309(3) 0.1413(12)
F21 F -0.0498(9) 0.2566(10) 0.1106(5)
F22 F -0.083(2) 0.2949(19) 0.2419(11)
F24 F -0.0410(19) 0.1487(14) 0.1869(15)
F25 F 0.1132(10) 0.2717(10) 0.2602(4)
F26 F 0.1423(14) 0.2005(19) 0.1351(8)
Sb4 Sb 0.96746(8) -0.25699(6) 0.31474(4)
F28 F 1.0405(19) -0.1470(9) 0.3241(14)
F29 F 0.8566(12) -0.1974(13) 0.3642(6)
F30 F 1.0507(10) -0.2528(10) 0.3892(4)
F31 F 0.8783(19) -0.341(3) 0.3395(19)
F33 F 1.0746(15) -0.3119(16) 0.2632(9)
F35 F 0.8826(10) -0.2693(10) 0.2410(5)
F2? F -0.399(2) -0.6230(16) -0.0172(15)
F6? F -0.549(5) -0.834(3) -0.1279(14)
F8? F -0.560(3) -0.665(3) -0.067(3)
F10? F -0.562(3) -0.782(4) -0.001(2)
F12? F 0.630(4) 0.371(3) 0.479(3)
F15? F 0.4484(15) 0.243(3) 0.5131(14)
F20? F 0.099(2) 0.3806(16) 0.2055(15)
F23? F -0.039(4) 0.358(3) 0.2251(15)
F27? F 0.055(6) 0.1537(18) 0.128(2)
F32? F 0.923(5) -0.377(2) 0.2765(12)
F34? F 1.082(5) -0.238(5) 0.2680(17)
loop_
_geom_bond_atom_site_label_1
_geom_bond_atom_site_label_2
_geom_bond_site_symmetry_1
_geom_bond_site_symmetry_2
Ag1 Ag3 1_555 1_555
Ag2 N2 1_555 1_555
Ag3 N14 1_555 1_555
Ag4 N10 1_555 1_555
N1 C7 1_555 1_555
N2 C8 1_555 1_555
N3 C11 1_555 1_555
N4 Ag1 1_555 1_555
N5 C15 1_555 1_555
N6 Ag1 1_555 1_555
N7 C25 1_555 1_555
N8 Ag2 1_555 1_555
N9 C35 1_555 1_555
N10 C36 1_555 1_555
N11 C40 1_555 1_555
N12 Ag4 1_555 1_555
N13 C48 1_555 1_555
N14 C49 1_555 1_555
N15 C53 1_555 1_555
N16 Ag3 1_555 1_555
C1 H1 1_555 1_555
C2 C1 1_555 1_555
H2 C2 1_555 1_555
C3 C2 1_555 1_555
H3 C3 1_555 1_555
C4 C3 1_555 1_555
H4 C4 1_555 1_555
C5 C4 1_555 1_555
C6 C1 1_555 1_555
C7 C6 1_555 1_555
H5 C7 1_555 1_555
H6 C7 1_555 1_555
C8 N1 1_555 1_555
H7 C8 1_555 1_555
C9 N2 1_555 1_555
H8 C9 1_555 1_555
C10 N1 1_555 1_555
H9 C10 1_555 1_555
C11 C5 1_555 1_555
H10 C11 1_555 1_555
H11 C11 1_555 1_555
C12 N3 1_555 1_555
H12 C12 1_555 1_555
C13 N4 1_555 1_555
H13 C13 1_555 1_555
C14 N3 1_555 1_555
H14 C14 1_555 1_555
C15 N6 1_555 1_555
H15 C15 1_555 1_555
C16 N6 1_555 1_555
H16 C16 1_555 1_555
C17 N5 1_555 1_555
H17 C17 1_555 1_555
C18 N5 1_555 1_555
H18 C18 1_555 1_555
H19 C18 1_555 1_555
C19 C18 1_555 1_555
C20 C19 1_555 1_555
H20 C20 1_555 1_555
C21 C20 1_555 1_555
H21 C21 1_555 1_555
C22 C21 1_555 1_555
H22 C22 1_555 1_555
C23 C22 1_555 1_555
H23 C23 1_555 1_555
C24 C19 1_555 1_555
C25 C24 1_555 1_555
H24 C25 1_555 1_555
H25 C25 1_555 1_555
C26 N7 1_555 1_555
H26 C26 1_555 1_555
C27 N8 1_555 1_555
H27 C27 1_555 1_555
C28 N7 1_555 1_555
H28 C28 1_555 1_555
C29 H29 1_555 1_555
C30 C29 1_555 1_555
H30 C30 1_555 1_555
C31 C30 1_555 1_555
H31 C31 1_555 1_555
C32 C31 1_555 1_555
H32 C32 1_555 1_555
C33 C32 1_555 1_555
C34 C29 1_555 1_555
C35 C34 1_555 1_555
H33 C35 1_555 1_555
H34 C35 1_555 1_555
C36 N9 1_555 1_555
H35 C36 1_555 1_555
C37 N9 1_555 1_555
H36 C37 1_555 1_555
C38 N10 1_555 1_555
H37 C38 1_555 1_555
C39 N12 1_555 1_555
H38 C39 1_555 1_555
C40 C39 1_555 1_555
H39 C40 1_555 1_555
C41 N11 1_555 1_555
H40 C41 1_555 1_555
C42 H41 1_555 1_555
C43 C42 1_555 1_555
H42 C43 1_555 1_555
C44 C43 1_555 1_555
H43 C44 1_555 1_555
C45 C44 1_555 1_555
H44 C45 1_555 1_555
C46 C45 1_555 1_555
C47 C42 1_555 1_555
C48 C47 1_555 1_555
H45 C48 1_555 1_555
H46 C48 1_555 1_555
C49 N13 1_555 1_555
H47 C49 1_555 1_555
C50 N14 1_555 1_555
H48 C50 1_555 1_555
C51 N13 1_555 1_555
H49 C51 1_555 1_555
C52 N11 1_555 1_555
H50 C52 1_555 1_555
H51 C52 1_555 1_555
C53 C33 1_555 1_555
H52 C53 1_555 1_555
H53 C53 1_555 1_555
C54 N15 1_555 1_555
H54 C54 1_555 1_555
C55 N16 1_555 1_555
H55 C55 1_555 1_555
C56 N15 1_555 1_555
H56 C56 1_555 1_555
Sb1 F1 1_555 1_555
Sb2 F11 1_555 1_555
Sb3 F19 1_555 1_555
Sb4 F28 1_555 1_555
F3 Sb1 1_555 1_555
F4 Sb1 1_555 1_555
F5 Sb1 1_555 1_555
F7 Sb1 1_555 1_555
F9 Sb1 1_555 1_555
F13 Sb2 1_555 1_555
F14 Sb2 1_555 1_555
F16 Sb2 1_555 1_555
F17 Sb2 1_555 1_555
F18 Sb2 1_555 1_555
F21 Sb3 1_555 1_555
F22 Sb3 1_555 1_555
F24 Sb3 1_555 1_555
F25 Sb3 1_555 1_555
F26 Sb3 1_555 1_555
F29 Sb4 1_555 1_555
F30 Sb4 1_555 1_555
F31 Sb4 1_555 1_555
F33 Sb4 1_555 1_555
F35 Sb4 1_555 1_555
Ag4_2 Ag2 1_555 1_555
Ag2_2 Ag4 1_555 1_555
N4 C12 1_555 1_555
N8 C26 1_555 1_555
N12 C41 1_555 1_555
N16 C54 1_555 1_555
C5 C6 1_555 1_555
C9 C10 1_555 1_555
C13 C14 1_555 1_555
C16 C17 1_555 1_555
C23 C24 1_555 1_555
C27 C28 1_555 1_555
C33 C34 1_555 1_555
C37 C38 1_555 1_555
C46 C52 1_555 1_555
C46 C47 1_555 1_555
C50 C51 1_555 1_555
C55 C56 1_555 1_555

#END
