
#######################################################################
#
#                 Cambridge Crystallographic Data Centre
#                                CCDC 
#
#######################################################################
#
# If this CIF has been generated from an entry in the Cambridge 
# Structural Database, then it will include bibliographic, chemical, 
# crystal, experimental, refinement or atomic coordinate data resulting 
# from the CCDC's data processing and validation procedures.
#
#######################################################################

data_ESEQIC
_symmetry_cell_setting           triclinic
_symmetry_space_group_name_H-M   'P -1'
_symmetry_Int_Tables_number      2
_space_group_name_Hall           '-P 1'
loop_
_symmetry_equiv_pos_site_id
_symmetry_equiv_pos_as_xyz
1 x,y,z
2 -x,-y,-z
_cell_length_a                   10.594(2)
_cell_length_b                   13.830(3)
_cell_length_c                   15.551(3)
_cell_angle_alpha                67.75(3)
_cell_angle_beta                 89.83(3)
_cell_angle_gamma                70.54(3)
_cell_volume                     1968.43
loop_
_atom_site_label
_atom_site_type_symbol
_atom_site_fract_x
_atom_site_fract_y
_atom_site_fract_z
Cu1 Cu 0.13125(5) 0.01975(4) 1.33338(3)
O1 O 0.0179(4) 0.5925(3) 1.2059(2)
O2 O -0.2837(4) 0.4898(3) 1.4036(3)
O3 O 0.3025(10) -0.5458(4) 1.4011(3)
O4 O 0.4300(6) -0.3542(3) 1.1314(3)
O5 O -0.1130(3) 0.0114(2) 1.38469(18)
O6 O -0.0349(2) 0.06065(19) 1.24763(17)
O7 O -0.1330(3) 0.1199(2) 1.03801(18)
O8 O -0.1852(3) 0.2608(2) 1.08502(18)
H1 H -0.1303 0.2782 1.0508
O9 O -0.7329(3) 0.2237(2) 1.0683(2)
O10 O -0.6408(3) 0.0457(2) 1.08333(19)
H2 H -0.718(6) 0.057(4) 1.049(4)
O11 O -0.5541(3) -0.0289(3) 1.3955(2)
O12 O -0.7057(3) 0.0551(2) 1.26693(18)
O13 O 0.2318(3) -0.0568(2) 1.46979(19)
H3 H 0.198(4) -0.033(3) 1.500(2)
H4 H 0.287(5) -0.045(4) 1.462(4)
N1 N 0.0572(3) 0.1754(2) 1.3296(2)
N2 N -0.0799(4) 0.5970(3) 1.2558(3)
N3 N -0.2170(4) 0.5475(3) 1.3522(3)
N4 N 0.1977(3) -0.1281(2) 1.3217(2)
N5 N 0.3537(7) -0.5249(3) 1.3273(3)
N6 N 0.4098(5) -0.4327(3) 1.1982(3)
C1 C 0.0482(5) 0.2607(3) 1.2493(3)
H9 H 0.0800 0.2453 1.1984
C2 C -0.0062(4) 0.3711(3) 1.2383(3)
H10 H -0.0100 0.4284 1.1811
C3 C -0.0557(4) 0.3961(3) 1.3142(3)
C4 C -0.0474(5) 0.3071(3) 1.3966(3)
H11 H -0.0799 0.3199 1.4484
C5 C 0.0089(5) 0.1993(3) 1.4025(3)
H12 H 0.0140 0.1406 1.4589
C6 C -0.1153(5) 0.5117(3) 1.3076(3)
C7 C -0.2365(6) 0.6625(3) 1.3437(4)
C8 C -0.1736(5) 0.7050(4) 1.2592(4)
C9 C -0.1371(8) 0.6466(5) 1.4319(4)
H13 H -0.1733 0.6190 1.4891
H14 H -0.1307 0.7174 1.4229
H15 H -0.0488 0.5941 1.4356
C10 C -0.3773(6) 0.7224(4) 1.3533(4)
H16 H -0.3983 0.6809 1.4131
H17 H -0.4386 0.7295 1.3041
H18 H -0.3860 0.7954 1.3491
C11 C -0.1057(6) 0.7860(4) 1.2429(4)
H19 H -0.0731 0.8005 1.1833
H20 H -0.0311 0.7561 1.2918
H21 H -0.1687 0.8546 1.2428
C12 C -0.2896(7) 0.7562(5) 1.1700(4)
H22 H -0.3366 0.7056 1.1779
H23 H -0.2485 0.7664 1.1137
H24 H -0.3523 0.8270 1.1657
C13 C 0.2436(4) -0.2301(3) 1.3929(3)
H25 H 0.2425 -0.2346 1.4541
C14 C 0.2921(5) -0.3274(3) 1.3791(3)
H26 H 0.3218 -0.3961 1.4303
C15 C 0.2966(5) -0.3235(3) 1.2891(3)
C16 C 0.2477(5) -0.2199(3) 1.2169(3)
H27 H 0.2463 -0.2138 1.1552
C17 C 0.1999(4) -0.1239(3) 1.2348(3)
H28 H 0.1685 -0.0544 1.1845
C18 C 0.3518(5) -0.4252(4) 1.2720(3)
C19 C 0.4311(6) -0.6168(4) 1.2983(4)
C20 C 0.4561(7) -0.5491(4) 1.2010(4)
C21 C 0.5558(8) -0.6900(6) 1.3686(6)
H29 H 0.6122 -0.6476 1.3670
H30 H 0.6046 -0.7524 1.3536
H31 H 0.5307 -0.7167 1.4302
C22 C 0.3431(7) -0.6842(5) 1.3015(6)
H32 H 0.2629 -0.6377 1.2566
H33 H 0.3183 -0.7109 1.3632
H34 H 0.3921 -0.7467 1.2866
C23 C 0.6021(8) -0.5779(8) 1.1832(6)
H35 H 0.6576 -0.5847 1.2354
H36 H 0.6092 -0.5198 1.1271
H37 H 0.6320 -0.6476 1.1758
C24 C 0.3686(9) -0.5383(6) 1.1187(5)
H38 H 0.2762 -0.5202 1.1301
H39 H 0.3986 -0.6078 1.1111
H40 H 0.3755 -0.4800 1.0627
C25 C -0.1268(4) 0.0465(3) 1.2973(3)
C26 C -0.2637(4) 0.0738(3) 1.2452(2)
C27 C -0.3621(4) 0.0415(3) 1.2944(3)
H41 H -0.3440 0.0062 1.3595
C28 C -0.4864(4) 0.0598(3) 1.2505(2)
C29 C -0.5120(4) 0.1112(3) 1.1532(3)
C30 C -0.4158(4) 0.1462(3) 1.1019(3)
H42 H -0.4353 0.1824 1.0369
C31 C -0.2901(4) 0.1279(3) 1.1466(3)
C32 C -0.1926(4) 0.1667(3) 1.0861(3)
C33 C -0.5900(4) 0.0238(3) 1.3105(3)
C34 C -0.6417(4) 0.1332(4) 1.0995(3)
O12_2 O 0.2943(3) 0.0551(2) 1.26693(18)
Cu1_2 Cu -0.86875(5) 0.01975(4) 1.33338(3)
O14 O 0.0044(4) 0.6732(3) 1.0094(3)
H5 H -0.008(3) 0.719(2) 1.0231(18)
H6 H 0.055(5) 0.644(4) 1.077(3)
O15 O 0.1365(3) 0.0611(2) 0.9982(2)
H7 H 0.147(5) -0.006(3) 0.981(3)
H8 H 0.051(4) 0.093(3) 1.008(3)
loop_
_geom_bond_atom_site_label_1
_geom_bond_atom_site_label_2
_geom_bond_site_symmetry_1
_geom_bond_site_symmetry_2
Cu1 O6 1_555 1_555
O1 N2 1_555 1_555
O2 N3 1_555 1_555
O3 N5 1_555 1_555
O4 N6 1_555 1_555
O5 C25 1_555 1_555
O6 C25 1_555 1_555
O7 C32 1_555 1_555
O8 H1 1_555 1_555
O9 C34 1_555 1_555
O10 H2 1_555 1_555
O11 C33 1_555 1_555
O12 C33 1_555 1_555
O13 Cu1 1_555 1_555
H3 O13 1_555 1_555
H4 O13 1_555 1_555
O14 H5 1_555 1_555
H6 O14 1_555 1_555
O15 H7 1_555 1_555
H8 O15 1_555 1_555
N1 Cu1 1_555 1_555
N2 C6 1_555 1_555
N3 C6 1_555 1_555
N4 Cu1 1_555 1_555
N5 C18 1_555 1_555
N6 C18 1_555 1_555
C1 N1 1_555 1_555
H9 C1 1_555 1_555
C2 C1 1_555 1_555
H10 C2 1_555 1_555
C3 C2 1_555 1_555
C4 C3 1_555 1_555
H11 C4 1_555 1_555
C5 N1 1_555 1_555
H12 C5 1_555 1_555
C6 C3 1_555 1_555
C7 N3 1_555 1_555
C8 N2 1_555 1_555
C9 C7 1_555 1_555
H13 C9 1_555 1_555
H14 C9 1_555 1_555
H15 C9 1_555 1_555
C10 C7 1_555 1_555
H16 C10 1_555 1_555
H17 C10 1_555 1_555
H18 C10 1_555 1_555
C11 C8 1_555 1_555
H19 C11 1_555 1_555
H20 C11 1_555 1_555
H21 C11 1_555 1_555
C12 C8 1_555 1_555
H22 C12 1_555 1_555
H23 C12 1_555 1_555
H24 C12 1_555 1_555
C13 N4 1_555 1_555
H25 C13 1_555 1_555
C14 C13 1_555 1_555
H26 C14 1_555 1_555
C15 C14 1_555 1_555
C16 C15 1_555 1_555
H27 C16 1_555 1_555
C17 N4 1_555 1_555
H28 C17 1_555 1_555
C18 C15 1_555 1_555
C19 N5 1_555 1_555
C20 N6 1_555 1_555
C21 C19 1_555 1_555
H29 C21 1_555 1_555
H30 C21 1_555 1_555
H31 C21 1_555 1_555
C22 C19 1_555 1_555
H32 C22 1_555 1_555
H33 C22 1_555 1_555
H34 C22 1_555 1_555
C23 C20 1_555 1_555
H35 C23 1_555 1_555
H36 C23 1_555 1_555
H37 C23 1_555 1_555
C24 C20 1_555 1_555
H38 C24 1_555 1_555
H39 C24 1_555 1_555
H40 C24 1_555 1_555
C25 C26 1_555 1_555
C26 C27 1_555 1_555
C27 H41 1_555 1_555
C28 C27 1_555 1_555
C29 C28 1_555 1_555
C30 C29 1_555 1_555
H42 C30 1_555 1_555
C31 C26 1_555 1_555
C32 O8 1_555 1_555
C33 C28 1_555 1_555
C34 O10 1_555 1_555
O12_2 Cu1 1_555 1_555
Cu1_2 O12 1_555 1_555
C4 C5 1_555 1_555
C7 C8 1_555 1_555
C16 C17 1_555 1_555
C19 C20 1_555 1_555
C29 C34 1_555 1_555
C30 C31 1_555 1_555
C31 C32 1_555 1_555

#END
