
#######################################################################
#
#                 Cambridge Crystallographic Data Centre
#                                CCDC 
#
#######################################################################
#
# If this CIF has been generated from an entry in the Cambridge 
# Structural Database, then it will include bibliographic, chemical, 
# crystal, experimental, refinement or atomic coordinate data resulting 
# from the CCDC's data processing and validation procedures.
#
#######################################################################

data_ESEQAU
_symmetry_cell_setting           monoclinic
_symmetry_space_group_name_H-M   'P 21/n'
_symmetry_Int_Tables_number      14
_space_group_name_Hall           '-P 2yn'
loop_
_symmetry_equiv_pos_site_id
_symmetry_equiv_pos_as_xyz
1 x,y,z
2 1/2+x,1/2-y,1/2+z
3 -x,-y,-z
4 1/2-x,1/2+y,1/2-z
_cell_length_a                   12.896(3)
_cell_length_b                   12.552(8)
_cell_length_c                   22.903(19)
_cell_angle_alpha                90.00
_cell_angle_beta                 93.04(5)
_cell_angle_gamma                90.00
_cell_volume                     3702.11
loop_
_atom_site_label
_atom_site_type_symbol
_atom_site_fract_x
_atom_site_fract_y
_atom_site_fract_z
Cu1 Cu 0.93522(4) 0.32929(3) 0.175022(15)
N1 N 1.0560(3) 0.3695(2) 0.22439(11)
N2 N 1.3020(3) 0.4439(3) 0.38313(13)
N3 N 1.8306(3) 0.3560(2) 0.24278(11)
N4 N 1.5248(3) 0.3579(3) 0.39283(13)
N5 N 0.8167(3) 0.2959(2) 0.12389(11)
N6 N 0.5366(3) 0.3090(2) -0.02260(13)
N7 N 0.0376(3) 0.3135(2) 0.10397(11)
N8 N 0.3293(3) 0.2221(2) -0.04457(12)
O1 O 1.3791(3) 0.5186(2) 0.30227(11)
O2 O 1.6430(2) 0.4665(2) 0.42899(10)
O3 O 0.6438(3) 0.1749(2) -0.04993(10)
O4 O 0.2436(2) 0.3558(2) -0.08611(10)
O11 O 0.9470(3) 0.1476(2) 0.19891(14)
C1 C 1.0778(4) 0.3155(3) 0.27248(15)
C2 C 1.1576(4) 0.3422(3) 0.30651(16)
C3 C 1.2193(3) 0.4296(3) 0.29206(14)
C4 C 1.1987(4) 0.4831(3) 0.24173(18)
C5 C 1.1182(4) 0.4513(3) 0.20955(17)
C6 C 1.3073(4) 0.4669(3) 0.32694(15)
C7 C 1.3782(4) 0.4732(3) 0.42479(15)
C8 C 1.8388(4) 0.4400(3) 0.27857(15)
C9 C 1.7700(3) 0.4568(3) 0.32580(15)
C10 C 1.6888(3) 0.3872(2) 0.33758(13)
C11 C 1.6799(4) 0.3012(3) 0.30004(15)
C12 C 1.7515(3) 0.2888(3) 0.25395(15)
C13 C 1.6157(4) 0.4067(3) 0.39017(13)
C14 C 1.4470(4) 0.3803(3) 0.43927(15)
C15 C 0.7442(4) 0.3680(3) 0.11291(16)
C16 C 0.6745(4) 0.3547(3) 0.07069(16)
C17 C 0.6761(3) 0.2609(3) 0.03861(13)
C18 C 0.7462(4) 0.1832(3) 0.05306(14)
C19 C 0.8150(4) 0.2036(3) 0.09491(15)
C20 C 0.6155(4) 0.2443(3) -0.01445(14)
C21 C 0.4882(4) 0.3136(3) -0.07865(15)
C22 C 0.0158(4) 0.3538(3) 0.05155(14)
C23 C 0.0834(4) 0.3460(3) 0.00350(16)
C24 C 0.1776(4) 0.2955(3) 0.00704(14)
C25 C 0.1996(4) 0.2532(3) 0.06125(15)
C26 C 0.1286(4) 0.2639(3) 0.10724(15)
C27 C 0.2531(3) 0.2928(3) -0.04498(14)
C28 C 0.4152(4) 0.2224(3) -0.08843(15)
H1 H 1.748(3) 0.230(3) 0.2313(14)
H2 H 0.749(3) 0.118(3) 0.0369(14)
H3 H 0.544(3) 0.313(2) -0.1064(15)
H4 H 0.141(3) 0.239(3) 0.1419(16)
H5 H 0.455(3) 0.384(3) -0.0799(13)
H6 H 0.742(3) 0.431(3) 0.1348(15)
H7 H 0.867(3) 0.155(3) 0.1033(14)
H8 H 1.777(3) 0.518(3) 0.3491(14)
H9 H 1.336(3) 0.493(3) 0.4599(16)
H10 H 1.626(4) 0.256(3) 0.3072(15)
H11 H 1.413(3) 0.529(3) 0.4090(15)
H12 H 0.061(3) 0.377(3) -0.0314(16)
H13 H 0.388(3) 0.232(3) -0.1259(18)
H14 H 1.484(3) 0.399(3) 0.4716(17)
H15 H 0.449(3) 0.156(3) -0.0858(14)
H16 H 0.331(3) 0.179(3) -0.0162(18)
H17 H 0.915(3) 0.131(3) 0.2265(17)
H18 H 1.890(4) 0.488(3) 0.2708(16)
H19 H 1.503(4) 0.321(3) 0.3665(18)
H20 H 1.167(4) 0.302(4) 0.340(2)
H21 H 0.509(4) 0.341(3) 0.0059(19)
H22 H 1.235(4) 0.539(4) 0.2284(19)
H23 H 1.404(4) 0.327(3) 0.4438(17)
H24 H 0.623(4) 0.407(3) 0.0656(17)
H25 H 1.254(3) 0.413(2) 0.3949(13)
H26 H 1.036(4) 0.256(4) 0.2802(19)
H27 H 1.097(4) 0.486(3) 0.1758(18)
H29 H 0.263(4) 0.220(4) 0.0678(18)
H30 H -0.052(4) 0.391(4) 0.0495(18)
H37 H 0.990(4) 0.111(3) 0.1941(17)
N3_2 N 0.8306(3) 0.3560(2) 0.24278(11)
N7_2 N 1.0376(3) 0.3135(2) 0.10397(11)
Cu1_2 Cu 1.93522(4) 0.32929(3) 0.175022(15)
Cu1_3 Cu -0.06478(4) 0.32929(3) 0.175022(15)
N9 N 0.4856(6) 0.1521(4) 0.1604(2)
O5 O 0.5093(5) 0.0745(4) 0.1316(2)
O6 O 0.4136(8) 0.1994(7) 0.1468(5)
O7 O 0.5347(5) 0.1837(4) 0.1986(2)
N10 N 0.1974(5) 0.5919(3) 0.08169(19)
O8 O 0.2408(4) 0.5384(4) 0.0435(2)
O9 O 0.2445(4) 0.6200(3) 0.12357(17)
O10 O 0.1057(5) 0.6146(4) 0.0788(3)
O12 O 0.4841(5) 0.4240(4) 0.19144(18)
H32 H 0.480(17) 0.33(2) 0.216(10)
H39 H 0.450(10) 0.474(10) 0.199(5)
O13 O 0.4202(5) 0.2365(6) 0.3073(3)
H38 H 0.372(7) 0.177(7) 0.340(4)
H41 H 0.420(4) 0.251(3) 0.2861(15)
O14 O 0.6386(4) 0.5789(3) 0.19450(15)
H28 H 0.671(5) 0.594(4) 0.165(2)
H40 H 0.594(6) 0.533(5) 0.190(3)
O15 O 0.3947(4) 0.0589(3) 0.03056(17)
H31 H 0.424(4) 0.078(4) 0.066(2)
H36 H 0.396(5) -0.002(5) 0.025(3)
O16 O 0.9175(5) 0.5344(3) 0.14623(15)
H33 H 0.967(7) 0.562(6) 0.136(3)
H34 H 0.872(7) 0.567(7) 0.136(3)
O17 O 0.4280(5) 0.4346(4) 0.0665(2)
H35 H 0.423(5) 0.394(5) 0.094(3)
H42 H 0.372(7) 0.470(6) 0.063(3)
loop_
_geom_bond_atom_site_label_1
_geom_bond_atom_site_label_2
_geom_bond_site_symmetry_1
_geom_bond_site_symmetry_2
Cu1 N1 1_555 1_555
N1 C1 1_555 1_555
N2 C6 1_555 1_555
N3 C8 1_555 1_555
N4 C13 1_555 1_555
N5 Cu1 1_555 1_555
N6 C20 1_555 1_555
N7 C22 1_555 1_555
N8 C27 1_555 1_555
N9 O5 1_555 1_555
N10 O8 1_555 1_555
O1 C6 1_555 1_555
O2 C13 1_555 1_555
O3 C20 1_555 1_555
O4 C27 1_555 1_555
O6 N9 1_555 1_555
O7 N9 1_555 1_555
O9 N10 1_555 1_555
O10 N10 1_555 1_555
O11 Cu1 1_555 1_555
O12 H32 1_555 1_555
O13 H38 1_555 1_555
O14 H28 1_555 1_555
O15 H31 1_555 1_555
O16 H33 1_555 1_555
O17 H35 1_555 1_555
C1 C2 1_555 1_555
C2 C3 1_555 1_555
C3 C4 1_555 1_555
C4 C5 1_555 1_555
C5 N1 1_555 1_555
C6 C3 1_555 1_555
C7 N2 1_555 1_555
C8 C9 1_555 1_555
C9 C10 1_555 1_555
C10 C11 1_555 1_555
C11 C12 1_555 1_555
C12 N3 1_555 1_555
C13 C10 1_555 1_555
C14 N4 1_555 1_555
C15 N5 1_555 1_555
C16 C15 1_555 1_555
C17 C16 1_555 1_555
C18 C17 1_555 1_555
C19 N5 1_555 1_555
C20 C17 1_555 1_555
C21 N6 1_555 1_555
C22 C23 1_555 1_555
C23 C24 1_555 1_555
C24 C25 1_555 1_555
C25 C26 1_555 1_555
C26 N7 1_555 1_555
C27 C24 1_555 1_555
C28 N8 1_555 1_555
H1 C12 1_555 1_555
H2 C18 1_555 1_555
H3 C21 1_555 1_555
H4 C26 1_555 1_555
H5 C21 1_555 1_555
H6 C15 1_555 1_555
H7 C19 1_555 1_555
H8 C9 1_555 1_555
H9 C7 1_555 1_555
H10 C11 1_555 1_555
H11 C7 1_555 1_555
H12 C23 1_555 1_555
H13 C28 1_555 1_555
H14 C14 1_555 1_555
H15 C28 1_555 1_555
H16 N8 1_555 1_555
H17 O11 1_555 1_555
H18 C8 1_555 1_555
H19 N4 1_555 1_555
H20 C2 1_555 1_555
H21 N6 1_555 1_555
H22 C4 1_555 1_555
H23 C14 1_555 1_555
H24 C16 1_555 1_555
H25 N2 1_555 1_555
H26 C1 1_555 1_555
H27 C5 1_555 1_555
H29 C25 1_555 1_555
H30 C22 1_555 1_555
H34 O16 1_555 1_555
H36 O15 1_555 1_555
H37 O11 1_555 1_555
H39 O12 1_555 1_555
H40 O14 1_555 1_555
H41 O13 1_555 1_555
H42 O17 1_555 1_555
N3_2 Cu1 1_555 1_555
N7_2 Cu1 1_555 1_555
Cu1_2 N3 1_555 1_555
Cu1_3 N7 1_555 1_555
C7 C14 1_555 1_555
C18 C19 1_555 1_555
C21 C28 1_555 1_555

#END
