
#######################################################################
#
#                 Cambridge Crystallographic Data Centre
#                                CCDC 
#
#######################################################################
#
# If this CIF has been generated from an entry in the Cambridge 
# Structural Database, then it will include bibliographic, chemical, 
# crystal, experimental, refinement or atomic coordinate data resulting 
# from the CCDC's data processing and validation procedures.
#
#######################################################################

data_ESETUR
_symmetry_cell_setting           triclinic
_symmetry_space_group_name_H-M   'P -1'
_symmetry_Int_Tables_number      2
_space_group_name_Hall           '-P 1'
loop_
_symmetry_equiv_pos_site_id
_symmetry_equiv_pos_as_xyz
1 x,y,z
2 -x,-y,-z
_cell_length_a                   14.4598(2)
_cell_length_b                   15.01760(10)
_cell_length_c                   15.0598(2)
_cell_angle_alpha                70.8670(10)
_cell_angle_beta                 64.2750(10)
_cell_angle_gamma                76.4070(10)
_cell_volume                     2766.81
loop_
_atom_site_label
_atom_site_type_symbol
_atom_site_fract_x
_atom_site_fract_y
_atom_site_fract_z
Ag1 Ag 0.13165(6) 0.43501(4) 0.02158(7)
S1 S 0.11732(14) -0.06204(11) 0.01980(13)
N1 N 0.0831(7) 0.5066(6) -0.2050(6)
N2 N 0.1252(5) 0.2839(4) 0.0493(5)
N3 N 0.1223(5) -0.0722(4) 0.1900(5)
N4 N 0.1240(5) -0.1637(4) 0.1898(5)
N5 N 0.1434(5) -0.4318(4) 0.0442(5)
C1 C 0.1095(7) 0.2249(5) 0.1423(6)
H1 H 0.1004 0.2500 0.1948
C2 C 0.1063(6) 0.1296(5) 0.1635(6)
H2 H 0.0957 0.0909 0.2288
C3 C 0.1192(5) 0.0915(4) 0.0857(5)
C4 C 0.1184(5) -0.0118(5) 0.1066(5)
C5 C 0.1215(5) -0.1693(4) 0.1062(5)
C6 C 0.1280(5) -0.2604(5) 0.0851(5)
C7 C 0.1475(7) -0.3452(5) 0.1506(6)
H3 H 0.1560 -0.3462 0.2086
C8 C 0.1538(7) -0.4275(5) 0.1266(7)
H4 H 0.1661 -0.4844 0.1708
C9 C 0.1275(6) -0.3496(5) -0.0195(6)
H5 H 0.1218 -0.3508 -0.0783
C10 C 0.1190(6) -0.2624(5) -0.0019(6)
H6 H 0.1075 -0.2064 -0.0478
C11 C 0.1357(6) 0.1514(5) -0.0102(6)
H7 H 0.1456 0.1278 -0.0639
C12 C 0.1374(6) 0.2471(5) -0.0254(6)
H8 H 0.1474 0.2874 -0.0899
O1 O 0.0701(7) 0.5212(8) -0.1246(7)
O2 O 0.1405(7) 0.4432(7) -0.2371(8)
O3 O 0.0303(7) 0.5619(6) -0.2530(6)
N5_2 N 0.1434(5) 0.5682(4) 0.0442(5)
Ag1_2 Ag 0.13165(6) -0.56499(4) 0.02158(7)
Ag2 Ag 0.63783(6) 0.15674(5) 0.28541(5)
Ag3 Ag 0.60695(6) 0.62911(6) 0.15974(5)
S2 S 0.59786(17) 0.17698(13) -0.20459(13)
S3 S 0.61153(16) 0.62719(13) 0.65810(13)
N6 N 0.6177(5) 0.1401(5) 0.1555(4)
N7 N 0.6118(5) 0.1381(5) -0.5548(5)
N8 N 0.6281(5) 0.0040(4) -0.2066(4)
N9 N 0.6296(5) 0.0033(4) -0.1151(4)
N10 N 0.6563(7) 0.3894(5) 0.2114(6)
N11 N 0.6271(5) 0.6601(4) 0.2835(4)
N12 N 0.6196(5) 0.6608(5) 1.0008(5)
N13 N 0.6405(5) 0.7947(4) 0.6366(4)
N14 N 0.6429(5) 0.7942(4) 0.5449(4)
C13 C 0.6114(6) 0.0523(6) 0.1541(5)
H9 H 0.6077 0.0024 0.2115
C14 C 0.6103(6) 0.0499(6) -0.4914(5)
H10 H 0.6110 -0.0009 -0.5141
C15 C 0.6077(6) 0.0322(5) -0.3954(6)
H11 H 0.6059 -0.0295 -0.3540
C16 C 0.6077(5) 0.1066(5) -0.3599(5)
C17 C 0.6122(5) 0.0881(5) -0.2598(5)
C18 C 0.6154(5) 0.0885(5) -0.1047(5)
C19 C 0.6153(5) 0.1071(5) -0.0142(5)
C20 C 0.6104(6) 0.0344(6) 0.0721(5)
H12 H 0.6063 -0.0271 0.0739
C21 C 0.6225(6) 0.2118(6) 0.0722(5)
H13 H 0.6265 0.2727 0.0723
C22 C 0.6216(6) 0.1973(5) -0.0129(5)
H14 H 0.6253 0.2480 -0.0696
C23 C 0.6088(5) 0.1983(5) -0.4245(5)
H15 H 0.6077 0.2501 -0.4030
C24 C 0.6115(6) 0.2108(5) -0.5208(5)
H16 H 0.6131 0.2717 -0.5637
C25 C 0.6107(6) 0.6057(5) 0.4574(6)
H17 H 0.5978 0.5570 0.5170
C26 C 0.6087(7) 0.5928(6) 0.3715(6)
H18 H 0.5939 0.5344 0.3750
C27 C 0.6024(7) 0.5922(6) 0.9721(6)
H19 H 0.5880 0.5338 1.0190
C28 C 0.6053(6) 0.6050(5) 0.8762(6)
H20 H 0.5947 0.5557 0.8583
C29 C 0.6243(5) 0.6927(5) 0.8067(5)
C30 C 0.6257(5) 0.7123(5) 0.7026(5)
C31 C 0.6303(5) 0.7118(5) 0.5437(5)
C32 C 0.6321(5) 0.6923(5) 0.4532(5)
C33 C 0.6421(6) 0.7639(5) 0.8351(5)
H21 H 0.6558 0.8232 0.7898
C34 C 0.6390(6) 0.7447(6) 0.9312(6)
H22 H 0.6511 0.7927 0.9500
C35 C 0.6505(6) 0.7431(5) 0.2802(5)
H23 H 0.6651 0.7900 0.2190
C36 C 0.6540(6) 0.7627(5) 0.3612(5)
H24 H 0.6706 0.8212 0.3552
O4 O 0.6991(8) 0.3138(6) 0.2436(7)
O5 O 0.6612(12) 0.4599(9) 0.2328(16)
O6 O 0.6178(7) 0.3972(7) 0.1516(7)
N7_2 N 0.6118(5) 0.1381(5) 0.4452(5)
N12_2 N 0.6196(5) 0.6608(5) 0.0008(5)
Ag2_2 Ag 0.63783(6) 0.15674(5) -0.71459(5)
Ag3_2 Ag 0.60695(6) 0.62911(6) 1.15974(5)
Ag4 Ag 0.86005(6) 0.43360(4) 0.45358(6)
S4 S 0.88441(15) -0.06492(11) 0.42650(14)
N15 N 0.8530(5) 0.2853(4) 0.4730(5)
N16 N 0.8861(5) -0.4351(4) 0.4666(5)
N17 N 0.8854(5) -0.1653(4) 0.5998(4)
N18 N 0.8780(5) -0.0727(4) 0.6004(4)
C37 C 0.8848(6) -0.4301(5) 0.5544(6)
H25 H 0.8804 -0.4856 0.6064
C38 C 0.8898(6) -0.3468(5) 0.5718(6)
H26 H 0.8897 -0.3462 0.6335
C39 C 0.8951(5) -0.2633(4) 0.4936(5)
C40 C 0.8891(5) -0.1718(4) 0.5134(5)
C41 C 0.8755(5) -0.0131(4) 0.5170(5)
C42 C 0.8677(5) 0.0901(4) 0.4996(5)
C43 C 0.8586(5) 0.1267(5) 0.5777(5)
H27 H 0.8570 0.0862 0.6400
C44 C 0.8683(6) 0.1539(5) 0.4091(5)
H28 H 0.8732 0.1322 0.3559
C45 C 0.8992(6) -0.2689(5) 0.4028(6)
H29 H 0.9038 -0.2147 0.3494
C46 C 0.8965(6) -0.3553(5) 0.3913(6)
H30 H 0.9022 -0.3584 0.3284
C47 C 0.8617(6) 0.2503(5) 0.3978(6)
H31 H 0.8633 0.2923 0.3361
C48 C 0.8519(6) 0.2235(5) 0.5612(6)
H32 H 0.8465 0.2470 0.6134
N16_2 N 0.8861(5) 0.5649(4) 0.4666(5)
Ag4_2 Ag 0.86005(6) -0.56640(4) 0.45358(6)
N19 N 0.6503(6) 0.3988(4) 0.7088(5)
O10 O 0.7434(6) 0.3996(5) 0.6786(6)
O11 O 0.5938(6) 0.3971(5) 0.7991(5)
O12 O 0.6136(7) 0.4006(5) 0.6483(6)
N20 N 0.8187(5) 0.9874(4) 0.2377(4)
O7 O 0.7292(5) 0.9745(4) 0.2990(5)
O8 O 0.8776(5) 0.9218(4) 0.2025(5)
O9 O 0.8491(5) 1.0668(4) 0.2109(5)
loop_
_geom_bond_atom_site_label_1
_geom_bond_atom_site_label_2
_geom_bond_site_symmetry_1
_geom_bond_site_symmetry_2
Ag1 N2 1_555 1_555
Ag2 N6 1_555 1_555
Ag3 N11 1_555 1_555
Ag4 N15 1_555 1_555
S1 C4 1_555 1_555
S2 C17 1_555 1_555
S3 C30 1_555 1_555
S4 C40 1_555 1_555
N1 O1 1_555 1_555
N2 C1 1_555 1_555
N3 N4 1_555 1_555
N4 C5 1_555 1_555
N5 C8 1_555 1_555
N6 C13 1_555 1_555
N7 C14 1_555 1_555
N8 N9 1_555 1_555
N9 C18 1_555 1_555
N10 O4 1_555 1_555
N11 C26 1_555 1_555
N12 C27 1_555 1_555
N13 N14 1_555 1_555
N14 C31 1_555 1_555
N15 C47 1_555 1_555
N16 C37 1_555 1_555
N17 N18 1_555 1_555
N18 C41 1_555 1_555
N19 O10 1_555 1_555
N20 O7 1_555 1_555
C1 H1 1_555 1_555
C2 C1 1_555 1_555
H2 C2 1_555 1_555
C3 C2 1_555 1_555
C4 N3 1_555 1_555
C5 S1 1_555 1_555
C6 C5 1_555 1_555
C7 C6 1_555 1_555
H3 C7 1_555 1_555
C8 C7 1_555 1_555
H4 C8 1_555 1_555
C9 N5 1_555 1_555
H5 C9 1_555 1_555
C10 C6 1_555 1_555
H6 C10 1_555 1_555
C11 C3 1_555 1_555
H7 C11 1_555 1_555
C12 N2 1_555 1_555
H8 C12 1_555 1_555
C13 H9 1_555 1_555
C14 H10 1_555 1_555
C15 C14 1_555 1_555
H11 C15 1_555 1_555
C16 C15 1_555 1_555
C17 N8 1_555 1_555
C18 S2 1_555 1_555
C19 C18 1_555 1_555
C20 C13 1_555 1_555
H12 C20 1_555 1_555
C21 N6 1_555 1_555
H13 C21 1_555 1_555
C22 C19 1_555 1_555
H14 C22 1_555 1_555
C23 C16 1_555 1_555
H15 C23 1_555 1_555
C24 N7 1_555 1_555
H16 C24 1_555 1_555
C25 H17 1_555 1_555
C26 C25 1_555 1_555
H18 C26 1_555 1_555
C27 H19 1_555 1_555
C28 C27 1_555 1_555
H20 C28 1_555 1_555
C29 C28 1_555 1_555
C30 N13 1_555 1_555
C31 S3 1_555 1_555
C32 C25 1_555 1_555
C33 C29 1_555 1_555
H21 C33 1_555 1_555
C34 N12 1_555 1_555
H22 C34 1_555 1_555
C35 N11 1_555 1_555
H23 C35 1_555 1_555
C36 C32 1_555 1_555
H24 C36 1_555 1_555
C37 H25 1_555 1_555
C38 C37 1_555 1_555
H26 C38 1_555 1_555
C39 C38 1_555 1_555
C40 N17 1_555 1_555
C41 S4 1_555 1_555
C42 C41 1_555 1_555
C43 C42 1_555 1_555
H27 C43 1_555 1_555
C44 C42 1_555 1_555
H28 C44 1_555 1_555
C45 C39 1_555 1_555
H29 C45 1_555 1_555
C46 N16 1_555 1_555
H30 C46 1_555 1_555
C47 C44 1_555 1_555
H31 C47 1_555 1_555
C48 N15 1_555 1_555
H32 C48 1_555 1_555
O1 Ag1 1_555 1_555
O2 N1 1_555 1_555
O3 N1 1_555 1_555
O4 Ag2 1_555 1_555
O5 Ag3 1_555 1_555
O6 N10 1_555 1_555
O8 N20 1_555 1_555
O9 N20 1_555 1_555
O11 N19 1_555 1_555
O12 N19 1_555 1_555
N5_2 Ag1 1_555 1_555
N7_2 Ag2 1_555 1_555
N12_2 Ag3 1_555 1_555
N16_2 Ag4 1_555 1_555
Ag1_2 N5 1_555 1_555
Ag2_2 N7 1_555 1_555
Ag3_2 N12 1_555 1_555
Ag4_2 N16 1_555 1_555
N10 O5 1_555 1_555
C3 C4 1_555 1_555
C9 C10 1_555 1_555
C11 C12 1_555 1_555
C16 C17 1_555 1_555
C19 C20 1_555 1_555
C21 C22 1_555 1_555
C23 C24 1_555 1_555
C29 C30 1_555 1_555
C31 C32 1_555 1_555
C33 C34 1_555 1_555
C35 C36 1_555 1_555
C39 C40 1_555 1_555
C43 C48 1_555 1_555
C45 C46 1_555 1_555

#END
