
#######################################################################
#
#                 Cambridge Crystallographic Data Centre
#                                CCDC 
#
#######################################################################
#
# If this CIF has been generated from an entry in the Cambridge 
# Structural Database, then it will include bibliographic, chemical, 
# crystal, experimental, refinement or atomic coordinate data resulting 
# from the CCDC's data processing and validation procedures.
#
#######################################################################

data_ESETIF
_symmetry_cell_setting           monoclinic
_symmetry_space_group_name_H-M   'P 21/c'
_symmetry_Int_Tables_number      14
_space_group_name_Hall           '-P 2ybc'
loop_
_symmetry_equiv_pos_site_id
_symmetry_equiv_pos_as_xyz
1 x,y,z
2 x,1/2-y,1/2+z
3 -x,-y,-z
4 -x,1/2+y,1/2-z
_cell_length_a                   6.7682(19)
_cell_length_b                   27.871(8)
_cell_length_c                   8.581(3)
_cell_angle_alpha                90
_cell_angle_beta                 98.400(6)
_cell_angle_gamma                90
_cell_volume                     1601.33
loop_
_atom_site_label
_atom_site_type_symbol
_atom_site_fract_x
_atom_site_fract_y
_atom_site_fract_z
Ag1 Ag 0.10259(6) 0.377138(12) 0.55187(6)
S1 S 0.56269(18) 0.62378(4) 0.73329(17)
N1 N 0.2360(5) 0.45074(12) 0.5690(5)
N2 N 0.2185(6) 0.63256(12) 0.5735(5)
N3 N 0.2809(6) 0.67866(13) 0.6093(5)
N4 N 0.7502(6) 0.80845(14) 0.8604(6)
C1 C 0.2117(6) 0.48093(16) 0.4462(6)
H1 H 0.1674 0.4686 0.3465
C2 C 0.2498(6) 0.52978(15) 0.4615(6)
H2 H 0.2309 0.5498 0.3739
C3 C 0.3161(6) 0.54800(16) 0.6089(6)
C4 C 0.3478(7) 0.51721(16) 0.7369(6)
H3 H 0.3958 0.5286 0.8372
C5 C 0.3056(7) 0.46884(17) 0.7110(6)
H4 H 0.3268 0.4480 0.7964
C6 C 0.3495(7) 0.60008(16) 0.6296(6)
C7 C 0.4579(7) 0.67942(16) 0.6930(6)
C8 C 0.5600(7) 0.72411(16) 0.7488(6)
C9 C 0.4681(8) 0.76745(18) 0.7210(8)
H5 H 0.3399 0.7692 0.6648
C10 C 0.5673(8) 0.80880(19) 0.7770(8)
H6 H 0.5038 0.8382 0.7557
C11 C 0.8377(8) 0.76657(17) 0.8859(8)
H7 H 0.9657 0.7657 0.9426
C12 C 0.7499(9) 0.72405(18) 0.8331(8)
H8 H 0.8182 0.6953 0.8541
N2B N -0.2185(6) 0.36744(12) 0.4265(5)
N4C N 0.2498(6) 0.30845(14) 0.6396(6)
Ag1B Ag -0.10259(6) 0.622862(12) 0.44813(6)
Ag1C Ag 0.89741(6) 0.877138(12) 0.94813(6)
P1 P 0.9006(2) 0.39167(5) 0.96218(18)
F1 F 0.8303(6) 0.37593(14) 0.7849(4)
F2 F 0.9694(6) 0.40742(18) 1.1375(4)
F3 F 0.9413(7) 0.44359(15) 0.9028(6)
F4 F 0.6784(5) 0.40578(17) 0.9737(5)
F5 F 0.8590(7) 0.33962(15) 1.0181(6)
F6 F 1.1237(5) 0.37756(16) 0.9469(5)
loop_
_geom_bond_atom_site_label_1
_geom_bond_atom_site_label_2
_geom_bond_site_symmetry_1
_geom_bond_site_symmetry_2
Ag1 N1 1_555 1_555
S1 C6 1_555 1_555
N1 C1 1_555 1_555
N2 N3 1_555 1_555
N3 C7 1_555 1_555
N4 C10 1_555 1_555
P1 F1 1_555 1_555
F2 P1 1_555 1_555
F3 P1 1_555 1_555
F4 P1 1_555 1_555
F5 P1 1_555 1_555
F6 P1 1_555 1_555
C1 H1 1_555 1_555
C2 C1 1_555 1_555
H2 C2 1_555 1_555
C3 C2 1_555 1_555
C4 C3 1_555 1_555
H3 C4 1_555 1_555
C5 N1 1_555 1_555
H4 C5 1_555 1_555
C6 N2 1_555 1_555
C7 S1 1_555 1_555
C8 C7 1_555 1_555
C9 C8 1_555 1_555
H5 C9 1_555 1_555
C10 C9 1_555 1_555
H6 C10 1_555 1_555
C11 N4 1_555 1_555
H7 C11 1_555 1_555
C12 C8 1_555 1_555
H8 C12 1_555 1_555
N2B Ag1 1_555 1_555
N4C Ag1 1_555 1_555
Ag1B N2 1_555 1_555
Ag1C N4 1_555 1_555
C3 C6 1_555 1_555
C4 C5 1_555 1_555
C11 C12 1_555 1_555

#END
