
#######################################################################
#
#                 Cambridge Crystallographic Data Centre
#                                CCDC 
#
#######################################################################
#
# If this CIF has been generated from an entry in the Cambridge 
# Structural Database, then it will include bibliographic, chemical, 
# crystal, experimental, refinement or atomic coordinate data resulting 
# from the CCDC's data processing and validation procedures.
#
#######################################################################

data_ESETOL
_symmetry_cell_setting           triclinic
_symmetry_space_group_name_H-M   'P -1'
_symmetry_Int_Tables_number      2
_space_group_name_Hall           '-P 1'
loop_
_symmetry_equiv_pos_site_id
_symmetry_equiv_pos_as_xyz
1 x,y,z
2 -x,-y,-z
_cell_length_a                   6.4369(19)
_cell_length_b                   11.095(3)
_cell_length_c                   11.422(3)
_cell_angle_alpha                81.590(5)
_cell_angle_beta                 88.922(5)
_cell_angle_gamma                83.274(5)
_cell_volume                     801.403
loop_
_atom_site_label
_atom_site_type_symbol
_atom_site_fract_x
_atom_site_fract_y
_atom_site_fract_z
Ag1 Ag 1.5000 0.5000 0.0000
Ag2 Ag -0.5000 1.0000 0.5000
N1 N 1.1946(4) 0.6011(3) 0.0140(3)
N2 N 0.4723(4) 0.8515(3) 0.0083(3)
N3 N 0.2910(4) 0.8981(3) 0.0583(3)
N4 N -0.2339(5) 0.9630(3) 0.3886(3)
S1 S 0.49450(13) 0.76430(9) 0.22699(8)
C1 C 1.1077(6) 0.5857(4) 0.1214(3)
H1 H 1.1825 0.5345 0.1818
C2 C 0.9133(6) 0.6415(4) 0.1474(3)
H2 H 0.8594 0.6281 0.2237
C3 C 0.7994(5) 0.7178(3) 0.0589(3)
C4 C 0.8875(5) 0.7351(3) -0.0531(3)
H3 H 0.8159 0.7859 -0.1150
C5 C 1.0841(5) 0.6752(3) -0.0711(3)
H4 H 1.1423 0.6873 -0.1465
C6 C 0.5939(5) 0.7799(3) 0.0856(3)
C7 C 0.2814(5) 0.8620(3) 0.1713(3)
C8 C -0.0664(6) 0.8882(4) 0.4337(3)
H5 H -0.0656 0.8578 0.5140
C9 C 0.1036(6) 0.8547(3) 0.3665(3)
H6 H 0.2169 0.8028 0.4010
C10 C 0.1045(5) 0.8989(3) 0.2470(3)
C11 C -0.0659(5) 0.9776(3) 0.1994(3)
H7 H -0.0689 1.0101 0.1196
C12 C -0.2312(5) 1.0067(3) 0.2729(3)
H8 H -0.3458 1.0590 0.2406
N1A N 1.8054(4) 0.3989(3) -0.0140(3)
N2A N 2.5277(4) 0.1485(3) -0.0083(3)
N3A N 2.7090(4) 0.1019(3) -0.0583(3)
N4A N 3.2339(5) 0.0370(3) -0.3886(3)
S1A S 2.50550(13) 0.23570(9) -0.22699(8)
C1A C 1.8923(6) 0.4143(4) -0.1214(3)
H1A H 1.8175 0.4655 -0.1818
C2A C 2.0867(6) 0.3585(4) -0.1474(3)
H2A H 2.1406 0.3719 -0.2237
C3A C 2.2006(5) 0.2822(3) -0.0589(3)
C4A C 2.1125(5) 0.2649(3) 0.0531(3)
H3A H 2.1841 0.2141 0.1150
C5A C 1.9159(5) 0.3248(3) 0.0711(3)
H4A H 1.8577 0.3127 0.1465
C6A C 2.4061(5) 0.2201(3) -0.0856(3)
C7A C 2.7186(5) 0.1380(3) -0.1713(3)
C8A C 3.0664(6) 0.1118(4) -0.4337(3)
H5A H 3.0656 0.1422 -0.5140
C9A C 2.8964(6) 0.1453(3) -0.3665(3)
H6A H 2.7831 0.1972 -0.4010
C10A C 2.8955(5) 0.1011(3) -0.2470(3)
C11A C 3.0659(5) 0.0224(3) -0.1994(3)
H7A H 3.0689 -0.0101 -0.1196
C12A C 3.2312(5) -0.0067(3) -0.2729(3)
H8A H 3.3458 -0.0590 -0.2406
N4A_2 N -0.7661(5) 1.0370(3) 0.6114(3)
Ag2_2 Ag 3.5000 0.0000 -0.5000
S2 S 0.44775(16) 0.30495(10) 0.33757(9)
O1 O 0.3350(5) 0.2009(3) 0.3296(3)
O2 O 0.6288(6) 0.2761(4) 0.4099(4)
O3 O 0.4718(5) 0.3801(3) 0.2271(3)
C13 C 0.2675(8) 0.4031(4) 0.4193(4)
F1 F 0.3211(6) 0.5148(3) 0.4111(3)
F2 F 0.0762(5) 0.4136(3) 0.3766(3)
F3 F 0.2598(6) 0.3565(3) 0.5329(2)
loop_
_geom_bond_atom_site_label_1
_geom_bond_atom_site_label_2
_geom_bond_site_symmetry_1
_geom_bond_site_symmetry_2
Ag1 N1 1_555 1_555
Ag2 N4 1_555 1_555
N1 C1 1_555 1_555
N2 N3 1_555 1_555
N3 C7 1_555 1_555
N4 C8 1_555 1_555
S1 C6 1_555 1_555
C1 H1 1_555 1_555
C2 C1 1_555 1_555
H2 C2 1_555 1_555
C3 C2 1_555 1_555
C4 C3 1_555 1_555
H3 C4 1_555 1_555
C5 N1 1_555 1_555
H4 C5 1_555 1_555
C6 N2 1_555 1_555
C7 S1 1_555 1_555
C8 H5 1_555 1_555
C9 C8 1_555 1_555
H6 C9 1_555 1_555
C10 C7 1_555 1_555
C11 C10 1_555 1_555
H7 C11 1_555 1_555
C12 N4 1_555 1_555
H8 C12 1_555 1_555
S2 O1 1_555 1_555
O2 S2 1_555 1_555
O3 S2 1_555 1_555
C13 S2 1_555 1_555
F1 C13 1_555 1_555
F2 C13 1_555 1_555
F3 C13 1_555 1_555
N1A Ag1 1_555 1_555
N2A N3A 1_555 1_555
N3A C7A 1_555 1_555
N4A C8A 1_555 1_555
S1A C6A 1_555 1_555
C1A N1A 1_555 1_555
H1A C1A 1_555 1_555
C2A C1A 1_555 1_555
H2A C2A 1_555 1_555
C3A C2A 1_555 1_555
C4A C3A 1_555 1_555
H3A C4A 1_555 1_555
C5A N1A 1_555 1_555
H4A C5A 1_555 1_555
C6A N2A 1_555 1_555
C7A S1A 1_555 1_555
C8A H5A 1_555 1_555
C9A C8A 1_555 1_555
H6A C9A 1_555 1_555
C10A C7A 1_555 1_555
C11A C10A 1_555 1_555
H7A C11A 1_555 1_555
C12A N4A 1_555 1_555
H8A C12A 1_555 1_555
N4A_2 Ag2 1_555 1_555
Ag2_2 N4A 1_555 1_555
C3 C6 1_555 1_555
C4 C5 1_555 1_555
C9 C10 1_555 1_555
C11 C12 1_555 1_555
C3A C6A 1_555 1_555
C4A C5A 1_555 1_555
C9A C10A 1_555 1_555
C11A C12A 1_555 1_555

#END
