
#######################################################################
#
#                 Cambridge Crystallographic Data Centre
#                                CCDC 
#
#######################################################################
#
# If this CIF has been generated from an entry in the Cambridge 
# Structural Database, then it will include bibliographic, chemical, 
# crystal, experimental, refinement or atomic coordinate data resulting 
# from the CCDC's data processing and validation procedures.
#
#######################################################################

data_ESEVAZ
_symmetry_cell_setting           monoclinic
_symmetry_space_group_name_H-M   'P 21/c'
_symmetry_Int_Tables_number      14
_space_group_name_Hall           '-P 2ybc'
loop_
_symmetry_equiv_pos_site_id
_symmetry_equiv_pos_as_xyz
1 x,y,z
2 x,1/2-y,1/2+z
3 -x,-y,-z
4 -x,1/2+y,1/2-z
_cell_length_a                   6.920(3)
_cell_length_b                   28.322(14)
_cell_length_c                   7.779(4)
_cell_angle_alpha                90
_cell_angle_beta                 102.234(8)
_cell_angle_gamma                90
_cell_volume                     1489.97
loop_
_atom_site_label
_atom_site_type_symbol
_atom_site_fract_x
_atom_site_fract_y
_atom_site_fract_z
Ag1 Ag 0.39062(7) 0.621179(14) 0.90981(7)
S1 S -0.0579(2) 0.37574(5) 0.7611(2)
N1 N 0.2658(6) 0.54818(14) 0.9178(6)
N2 N 0.2715(6) 0.36953(14) 0.9777(6)
N3 N 0.2098(7) 0.32384(15) 0.9430(6)
N4 N -0.2443(7) 0.19074(15) 0.6679(7)
C1 C 0.2963(7) 0.52169(18) 1.0628(7)
H1 H 0.3471 0.5362 1.1700
C2 C 0.2566(7) 0.47379(17) 1.0624(7)
H2 H 0.2787 0.4567 1.1668
C3 C 0.1830(7) 0.45190(17) 0.9021(7)
C4 C 0.1470(8) 0.47925(19) 0.7511(7)
H3 H 0.0944 0.4658 0.6422
C5 C 0.1907(8) 0.52690(18) 0.7654(7)
H4 H 0.1666 0.5450 0.6634
C6 C 0.1475(7) 0.40059(18) 0.8924(7)
C7 C 0.0406(8) 0.32127(18) 0.8317(7)
C8 C -0.0591(8) 0.27658(18) 0.7751(7)
C9 C -0.2536(9) 0.27459(19) 0.6847(9)
H5 H -0.3266 0.3022 0.6584
C10 C -0.3382(9) 0.23181(19) 0.6342(9)
H6 H -0.4690 0.2314 0.5726
C11 C -0.0559(8) 0.19270(19) 0.7562(8)
H7 H 0.0133 0.1645 0.7816
C12 C 0.0399(8) 0.23405(18) 0.8108(8)
H8 H 0.1710 0.2336 0.8716
N2B N 0.7285(6) 0.63047(14) 1.0223(6)
N4C N 0.2443(7) 0.69074(15) 0.8321(7)
Ag1B Ag 0.60938(7) 0.378821(14) 1.09019(7)
Ag1C Ag -0.39062(7) 0.121179(14) 0.59019(7)
Cl1 Cl 0.5906(2) 0.61167(6) 0.5079(2)
O1 O 0.7826(6) 0.59418(17) 0.5773(6)
O2 O 0.4471(12) 0.5931(6) 0.5922(14)
O3 O 0.5343(16) 0.6076(6) 0.3243(8)
O4 O 0.6065(19) 0.6627(2) 0.551(2)
O5? O 0.531(3) 0.6472(7) 0.6084(18)
O6? O 0.4609(18) 0.5703(6) 0.512(3)
O7? O 0.565(2) 0.6243(7) 0.3280(11)
loop_
_geom_bond_atom_site_label_1
_geom_bond_atom_site_label_2
_geom_bond_site_symmetry_1
_geom_bond_site_symmetry_2
Ag1 N1 1_555 1_555
S1 C6 1_555 1_555
N1 C1 1_555 1_555
N2 N3 1_555 1_555
N3 C7 1_555 1_555
N4 C10 1_555 1_555
C1 H1 1_555 1_555
C2 C1 1_555 1_555
H2 C2 1_555 1_555
C3 C2 1_555 1_555
C4 C3 1_555 1_555
H3 C4 1_555 1_555
C5 N1 1_555 1_555
H4 C5 1_555 1_555
C6 N2 1_555 1_555
C7 S1 1_555 1_555
C8 C7 1_555 1_555
C9 C8 1_555 1_555
H5 C9 1_555 1_555
C10 C9 1_555 1_555
H6 C10 1_555 1_555
C11 N4 1_555 1_555
H7 C11 1_555 1_555
C12 C8 1_555 1_555
H8 C12 1_555 1_555
Cl1 O1 1_555 1_555
O2 Cl1 1_555 1_555
O3 Cl1 1_555 1_555
O4 Cl1 1_555 1_555
N2B Ag1 1_555 1_555
N4C Ag1 1_555 1_555
Ag1B N2 1_555 1_555
Ag1C N4 1_555 1_555
C3 C6 1_555 1_555
C4 C5 1_555 1_555
C11 C12 1_555 1_555

#END
