
#######################################################################
#
#                 Cambridge Crystallographic Data Centre
#                                CCDC 
#
#######################################################################
#
# If this CIF has been generated from an entry in the Cambridge 
# Structural Database, then it will include bibliographic, chemical, 
# crystal, experimental, refinement or atomic coordinate data resulting 
# from the CCDC's data processing and validation procedures.
#
#######################################################################

data_ESIGES
_symmetry_cell_setting           monoclinic
_symmetry_space_group_name_H-M   'P 21/c'
_symmetry_Int_Tables_number      14
_space_group_name_Hall           '-P 2ybc'
loop_
_symmetry_equiv_pos_site_id
_symmetry_equiv_pos_as_xyz
1 x,y,z
2 x,1/2-y,1/2+z
3 -x,-y,-z
4 -x,1/2+y,1/2-z
_cell_length_a                   27.581(4)
_cell_length_b                   9.1114(15)
_cell_length_c                   9.9791(16)
_cell_angle_alpha                90
_cell_angle_beta                 92.213(3)
_cell_angle_gamma                90
_cell_volume                     2505.89
loop_
_atom_site_label
_atom_site_type_symbol
_atom_site_fract_x
_atom_site_fract_y
_atom_site_fract_z
Zn1 Zn -0.049483(17) 1.17781(5) -0.59622(5)
Zn2 Zn -0.451597(18) 1.17815(6) -0.58807(5)
P1 P -0.02656(4) 1.08033(12) -0.30462(11)
P2 P -0.47661(4) 1.07746(14) -0.30108(12)
O1 O -0.03257(12) 1.2031(3) -0.4062(3)
O2 O -0.02173(11) 1.1431(3) -0.1613(3)
O3 O 0.01629(12) 0.9848(4) -0.3285(4)
O4 O -0.07366(13) 0.9809(4) -0.3126(4)
O5 O -0.46721(12) 1.1974(3) -0.4024(3)
O6 O -0.52421(12) 0.9981(4) -0.3266(4)
O7 O -0.47678(12) 1.1379(4) -0.1591(3)
O8 O -0.43518(13) 0.9596(4) -0.3111(4)
O9 O -0.11830(11) 1.1325(4) -0.6196(4)
O10 O -0.38192(12) 1.1657(4) -0.6160(4)
O11 O -0.14311(14) 1.3054(5) -0.7639(5)
O12 O -0.35651(13) 1.0408(5) -0.4341(5)
C1 C -0.15033(17) 1.2044(6) -0.6842(5)
C2 C -0.20194(15) 1.1645(5) -0.6534(5)
C3 C -0.23998(17) 1.2320(7) -0.7279(6)
C4 C -0.28757(17) 1.2088(6) -0.6947(6)
C5 C -0.29798(16) 1.1191(6) -0.5859(5)
C6 C -0.26042(18) 1.0456(6) -0.5178(6)
C7 C -0.21258(18) 1.0700(6) -0.5502(5)
C8 C -0.34958(17) 1.1056(6) -0.5402(6)
H3 H -0.2338 1.3104 -0.8154
H4 H -0.3289 1.2576 -0.7200
H5 H -0.0987 1.0349 -0.2988
H6 H -0.2697 0.9836 -0.4376
H7 H -0.1794 1.0240 -0.4826
H8 H -0.4113 0.9976 -0.3528
O2A O -0.02173(11) 1.3569(3) -0.6613(3)
O3B O -0.01629(12) 1.0152(4) -0.6715(4)
O6B O -0.47579(12) 1.0019(4) -0.6734(4)
O7A O -0.47678(12) 1.3621(4) -0.6591(3)
Zn1A Zn -0.049483(17) 1.32219(5) -0.09622(5)
Zn1B Zn 0.049483(17) 0.82219(5) -0.40378(5)
Zn2B Zn -0.548403(18) 0.82185(6) -0.41193(5)
Zn2A Zn -0.451597(18) 1.32185(6) -0.08807(5)
N1 N 0.42831(18) 1.4100(8) -0.5628(6)
N2 N 0.06760(14) 1.3818(5) -0.5432(5)
C9 C 0.4230(2) 1.2996(10) -0.4822(9)
C10 C 0.3804(2) 1.2823(8) -0.4172(6)
C11 C 0.34340(18) 1.3815(6) -0.4348(6)
C12 C 0.3507(2) 1.4971(7) -0.5210(7)
C13 C 0.3936(3) 1.5094(9) -0.5851(8)
C14 C 0.29774(18) 1.3663(8) -0.3567(7)
C15 C 0.2509(2) 1.3809(7) -0.4395(7)
C16 C 0.20729(19) 1.3599(8) -0.3503(7)
C17 C 0.08013(18) 1.2646(6) -0.4689(6)
C18 C 0.12536(17) 1.2562(6) -0.4101(7)
C19 C 0.15832(16) 1.3668(6) -0.4238(5)
C20 C 0.14504(18) 1.4882(6) -0.5039(6)
C21 C 0.09841(19) 1.4938(6) -0.5622(6)
H1 H 0.4575 1.4173 -0.6022
H2 H 0.0372 1.3921 -0.5891
H9 H 0.4512 1.2657 -0.4822
H10 H 0.3761 1.1976 -0.3588
H11 H 0.3274 1.5907 -0.5076
H12 H 0.3955 1.5988 -0.6269
H13 H 0.2992 1.2855 -0.3137
H14 H 0.2981 1.4464 -0.2894
H15 H 0.2413 1.4804 -0.4887
H16 H 0.2502 1.3011 -0.5056
H17 H 0.2100 1.2811 -0.3148
H18 H 0.2087 1.4371 -0.2799
H19 H 0.0582 1.1839 -0.4556
H20 H 0.1362 1.1815 -0.3761
H21 H 0.1683 1.5665 -0.5182
H22 H 0.0870 1.5661 -0.6114
loop_
_geom_bond_atom_site_label_1
_geom_bond_atom_site_label_2
_geom_bond_site_symmetry_1
_geom_bond_site_symmetry_2
Zn1 O1 1_555 1_555
Zn2 O5 1_555 1_555
P1 O1 1_555 1_555
P2 O5 1_555 1_555
O2 P1 1_555 1_555
O3 P1 1_555 1_555
O4 P1 1_555 1_555
O6 P2 1_555 1_555
O7 P2 1_555 1_555
O8 P2 1_555 1_555
O9 Zn1 1_555 1_555
O10 Zn2 1_555 1_555
O11 C1 1_555 1_555
O12 C8 1_555 1_555
N1 C9 1_555 1_555
N2 C17 1_555 1_555
C1 O9 1_555 1_555
C2 C1 1_555 1_555
C3 C2 1_555 1_555
C4 C3 1_555 1_555
C5 C4 1_555 1_555
C6 C5 1_555 1_555
C7 C2 1_555 1_555
C8 O10 1_555 1_555
C9 C10 1_555 1_555
C10 C11 1_555 1_555
C11 C12 1_555 1_555
C12 C13 1_555 1_555
C13 N1 1_555 1_555
C14 C11 1_555 1_555
C15 C14 1_555 1_555
C16 C15 1_555 1_555
C17 C18 1_555 1_555
C18 C19 1_555 1_555
C19 C16 1_555 1_555
C20 C19 1_555 1_555
C21 N2 1_555 1_555
H1 N1 1_555 1_555
H2 N2 1_555 1_555
H3 C3 1_555 1_555
H4 C4 1_555 1_555
H5 O4 1_555 1_555
H6 C6 1_555 1_555
H7 C7 1_555 1_555
H8 O8 1_555 1_555
H9 C9 1_555 1_555
H10 C10 1_555 1_555
H11 C12 1_555 1_555
H12 C13 1_555 1_555
H13 C14 1_555 1_555
H14 C14 1_555 1_555
H15 C15 1_555 1_555
H16 C15 1_555 1_555
H17 C16 1_555 1_555
H18 C16 1_555 1_555
H19 C17 1_555 1_555
H20 C18 1_555 1_555
H21 C20 1_555 1_555
H22 C21 1_555 1_555
O2A Zn1 1_555 1_555
O3B Zn1 1_555 1_555
O6B Zn2 1_555 1_555
O7A Zn2 1_555 1_555
Zn1A O2 1_555 1_555
Zn1B O3 1_555 1_555
Zn2B O6 1_555 1_555
Zn2A O7 1_555 1_555
C5 C8 1_555 1_555
C6 C7 1_555 1_555
C20 C21 1_555 1_555

#END
