
#######################################################################
#
#                 Cambridge Crystallographic Data Centre
#                                CCDC 
#
#######################################################################
#
# If this CIF has been generated from an entry in the Cambridge 
# Structural Database, then it will include bibliographic, chemical, 
# crystal, experimental, refinement or atomic coordinate data resulting 
# from the CCDC's data processing and validation procedures.
#
#######################################################################

data_ESIGES02
_symmetry_cell_setting           monoclinic
_symmetry_space_group_name_H-M   'P 21/c'
_symmetry_Int_Tables_number      14
_space_group_name_Hall           '-P 2ybc'
loop_
_symmetry_equiv_pos_site_id
_symmetry_equiv_pos_as_xyz
1 x,y,z
2 -x,1/2+y,1/2-z
3 -x,-y,-z
4 x,1/2-y,1/2+z
_cell_length_a                   27.6213(12)
_cell_length_b                   9.1189(4)
_cell_length_c                   9.9954(5)
_cell_angle_alpha                90
_cell_angle_beta                 92.2110(10)
_cell_angle_gamma                90
_cell_volume                     2515.73
loop_
_atom_site_label
_atom_site_type_symbol
_atom_site_fract_x
_atom_site_fract_y
_atom_site_fract_z
Zn1 Zn 0.049544(16) 0.32200(5) 0.09595(5)
Zn2 Zn 0.451647(17) 0.32169(6) 0.08788(5)
P1 P 0.02663(4) 0.41946(12) -0.19539(11)
P2 P 0.47664(4) 0.42296(14) -0.19868(11)
O1 O 0.03338(12) 0.2971(3) -0.0949(3)
O2 O 0.02171(11) 0.3572(4) -0.3379(3)
O3 O -0.01638(12) 0.5148(4) -0.1718(3)
O4 O 0.07394(13) 0.5189(4) -0.1868(4)
O5 O 0.46738(12) 0.3029(4) -0.0988(3)
O6 O 0.52475(12) 0.5010(4) -0.1737(4)
O7 O 0.43551(13) 0.5414(4) -0.1887(4)
O8 O 0.47657(12) 0.3626(4) -0.3407(3)
O9 O 0.11821(11) 0.3668(4) 0.1196(4)
O10 O 0.14355(13) 0.1944(5) 0.2643(4)
O11 O 0.35655(14) 0.4599(6) -0.0658(5)
O12 O 0.38197(12) 0.3340(4) 0.1155(4)
C1 C 0.20219(16) 0.3348(6) 0.1545(5)
C2 C 0.24007(18) 0.2662(7) 0.2268(6)
C3 C 0.21277(17) 0.4294(6) 0.0513(5)
C4 C 0.28789(17) 0.2906(7) 0.1932(6)
C5 C 0.26060(17) 0.4527(6) 0.0181(5)
C6 C 0.29827(15) 0.3807(6) 0.0869(5)
C7 C 0.34974(17) 0.3944(6) 0.0394(5)
C21 C 0.15037(16) 0.2953(6) 0.1840(5)
H2 H 0.2688 0.5219 -0.0626
H6 H 0.1895 0.4896 0.0042
H8 H 0.2336 0.2117 0.2989
H10 H 0.3148 0.2332 0.2405
H20 H 0.0990 0.4509 -0.1761
H21 H 0.4203 0.5313 -0.1226
Zn1C Zn 0.049544(16) 0.17800(5) -0.40405(5)
Zn1B Zn -0.049544(16) 0.67800(5) -0.09595(5)
Zn2B Zn 0.548353(17) 0.67831(6) -0.08788(5)
Zn2C Zn 0.451647(17) 0.17831(6) -0.41212(5)
O2C O 0.02171(11) 0.1428(4) 0.1621(3)
O3B O 0.01638(12) 0.4852(4) 0.1718(3)
O6B O 0.47525(12) 0.4990(4) 0.1737(4)
O8C O 0.47657(12) 0.1374(4) 0.1593(3)
C8 C 0.08036(18) 0.7356(6) 0.5313(6)
C9 C 0.12569(18) 0.7445(6) 0.5912(6)
C10 C 0.15859(16) 0.6329(6) 0.5754(5)
C11 C 0.0987(2) 0.5058(6) 0.4385(6)
C12 C 0.14487(19) 0.5141(6) 0.4963(6)
C13 C 0.20727(19) 0.6385(8) 0.6490(6)
C14 C 0.25075(18) 0.6183(7) 0.5602(6)
C15 C 0.29784(18) 0.6339(8) 0.6418(6)
C16 C 0.34330(17) 0.6186(6) 0.5645(5)
C17 C 0.3810(2) 0.7174(8) 0.5845(7)
C18 C 0.3504(2) 0.5027(7) 0.4778(7)
C19 C 0.4226(2) 0.7011(11) 0.5188(7)
C20 C 0.3933(3) 0.4872(9) 0.4130(8)
N1 N 0.06783(14) 0.6173(5) 0.4566(4)
N2 N 0.42837(18) 0.5892(8) 0.4371(6)
H1 H 0.0804 0.4211 0.3844
H3 H 0.1679 0.4386 0.4824
H4 H 0.0564 0.8122 0.5199
H5 H 0.3285 0.4293 0.4804
H7 H 0.2484 0.5325 0.4910
H9 H 0.2116 0.7442 0.6938
H11 H 0.3695 0.8258 0.5835
H12 H 0.2999 0.7140 0.6984
H13 H 0.4569 0.7245 0.5205
H14 H 0.2121 0.5724 0.7229
H15 H 0.3004 0.5486 0.7210
H16 H 0.1294 0.8283 0.6492
H17 H 0.2521 0.7088 0.4943
H18 H 0.0389 0.6152 0.4148
H19 H 0.4541 0.5796 0.3694
loop_
_geom_bond_atom_site_label_1
_geom_bond_atom_site_label_2
_geom_bond_site_symmetry_1
_geom_bond_site_symmetry_2
Zn1 O1 1_555 1_555
Zn2 O5 1_555 1_555
P1 O1 1_555 1_555
P2 O5 1_555 1_555
O2 P1 1_555 1_555
O3 P1 1_555 1_555
O4 P1 1_555 1_555
O6 P2 1_555 1_555
O7 P2 1_555 1_555
O8 P2 1_555 1_555
O9 Zn1 1_555 1_555
O10 C21 1_555 1_555
O11 C7 1_555 1_555
O12 Zn2 1_555 1_555
C1 C2 1_555 1_555
C2 C4 1_555 1_555
C3 C1 1_555 1_555
C4 C6 1_555 1_555
C5 C3 1_555 1_555
C6 C5 1_555 1_555
C7 O12 1_555 1_555
C8 C9 1_555 1_555
C9 C10 1_555 1_555
C10 C12 1_555 1_555
C11 C12 1_555 1_555
C12 H3 1_555 1_555
C13 C10 1_555 1_555
C14 C13 1_555 1_555
C15 C14 1_555 1_555
C16 C15 1_555 1_555
C17 C16 1_555 1_555
C18 C16 1_555 1_555
C19 C17 1_555 1_555
C20 C18 1_555 1_555
C21 O9 1_555 1_555
N1 C8 1_555 1_555
N2 C19 1_555 1_555
H1 C11 1_555 1_555
H2 C5 1_555 1_555
H4 C8 1_555 1_555
H5 C18 1_555 1_555
H6 C3 1_555 1_555
H7 C14 1_555 1_555
H8 C2 1_555 1_555
H9 C13 1_555 1_555
H10 C4 1_555 1_555
H11 C17 1_555 1_555
H12 C15 1_555 1_555
H13 C19 1_555 1_555
H14 C13 1_555 1_555
H15 C15 1_555 1_555
H16 C9 1_555 1_555
H17 C14 1_555 1_555
H18 N1 1_555 1_555
H19 N2 1_555 1_555
H20 O4 1_555 1_555
H21 O7 1_555 1_555
Zn1C O2 1_555 1_555
Zn1B O3 1_555 1_555
Zn2B O6 1_555 1_555
Zn2C O8 1_555 1_555
O2C Zn1 1_555 1_555
O3B Zn1 1_555 1_555
O6B Zn2 1_555 1_555
O8C Zn2 1_555 1_555
C1 C21 1_555 1_555
C6 C7 1_555 1_555
C11 N1 1_555 1_555
C20 N2 1_555 1_555

#END
