
#######################################################################
#
#                 Cambridge Crystallographic Data Centre
#                                CCDC 
#
#######################################################################
#
# If this CIF has been generated from an entry in the Cambridge 
# Structural Database, then it will include bibliographic, chemical, 
# crystal, experimental, refinement or atomic coordinate data resulting 
# from the CCDC's data processing and validation procedures.
#
#######################################################################

data_ESIGES01
_symmetry_cell_setting           orthorhombic
_symmetry_space_group_name_H-M   'P n a 21'
_symmetry_Int_Tables_number      33
_space_group_name_Hall           'P 2c -2n'
loop_
_symmetry_equiv_pos_site_id
_symmetry_equiv_pos_as_xyz
1 x,y,z
2 -x,-y,1/2+z
3 1/2+x,1/2-y,z
4 1/2-x,1/2+y,1/2+z
_cell_length_a                   9.9740(5)
_cell_length_b                   9.1804(5)
_cell_length_c                   27.5385(17)
_cell_angle_alpha                90
_cell_angle_beta                 90
_cell_angle_gamma                90
_cell_volume                     2521.57
loop_
_atom_site_label
_atom_site_type_symbol
_atom_site_fract_x
_atom_site_fract_y
_atom_site_fract_z
Zn1 Zn 0.62128(7) 0.32750(7) 0.05796(2)
Zn2 Zn 0.43416(7) 0.67979(7) -0.03946(2)
P1 P 0.72228(16) 0.57882(18) -0.01527(6)
P2 P 0.32699(15) 0.41845(19) 0.03494(6)
O1 O 0.6216(4) 0.6998(4) -0.02519(16)
O2 O 0.6992(4) 0.5025(4) 0.03279(15)
O3 O 0.8648(4) 0.6338(5) -0.01594(16)
O4 O 0.7069(4) 0.4594(5) -0.05581(16)
H1 H 0.6647 0.4933 -0.0788
O5 O 0.4383(4) 0.3056(4) 0.04014(19)
O6 O 0.1914(4) 0.3513(4) 0.02861(15)
O7 O 0.3496(5) 0.5213(5) -0.00686(18)
O8 O 0.3247(5) 0.5130(5) 0.08314(17)
H2 H 0.3126 0.4595 0.1066
O9 O 0.6323(5) 0.3605(5) 0.12794(17)
O10 O 0.6059(5) 0.3450(6) 0.39213(18)
O11 O 0.7798(6) 0.1966(6) 0.1526(2)
O12 O 0.4238(6) 0.4585(6) 0.36508(18)
C1 C 0.6955(7) 0.2953(8) 0.1601(2)
C2 C 0.6632(7) 0.3349(8) 0.2121(2)
C3 C 0.7297(8) 0.2706(8) 0.2501(3)
H5 H 0.8004 0.2076 0.2435
C4 C 0.6947(8) 0.2966(8) 0.2974(3)
H6 H 0.7445 0.2558 0.3226
C5 C 0.5859(7) 0.3834(8) 0.3077(2)
C6 C 0.5184(7) 0.4519(8) 0.2698(2)
H7 H 0.4470 0.5139 0.2765
C7 C 0.5576(6) 0.4279(8) 0.2227(2)
H8 H 0.5126 0.4746 0.1975
C8 C 0.5339(7) 0.3989(8) 0.3589(2)
Zn1B Zn 0.12128(7) 0.17250(7) 0.05796(2)
Zn2A Zn 0.56584(7) 0.32021(7) 0.46054(2)
Zn2B Zn 0.93416(7) 0.82021(7) -0.03946(2)
O3B O 0.3648(4) 0.8662(5) -0.01594(16)
O6B O 0.6914(4) 0.1487(4) 0.02861(15)
O10A O 0.3941(5) 0.6550(6) -0.10787(18)
N1 N 0.5250(6) 0.1131(7) -0.4226(2)
H3 H 0.5580 0.1071 -0.4514
N2 N 0.5725(8) 0.1047(10) -0.0614(3)
H4 H 0.6128 0.1007 -0.0338
C9 C 0.5448(8) 0.0018(9) -0.3914(3)
H9 H 0.5951 -0.0788 -0.4008
C10 C 0.4916(7) 0.0082(8) -0.3468(3)
H10 H 0.5053 -0.0682 -0.3252
C11 C 0.4138(7) 0.1315(9) -0.3322(3)
C12 C 0.4008(7) 0.2407(9) -0.3655(3)
H11 H 0.3528 0.3241 -0.3574
C13 C 0.4576(8) 0.2292(8) -0.4107(3)
H12 H 0.4479 0.3047 -0.4329
C14 C 0.3467(9) 0.1347(10) -0.2835(3)
H13 H 0.2804 0.0576 -0.2824
H14 H 0.2996 0.2266 -0.2801
C15 C 0.4399(8) 0.1172(8) -0.2408(3)
H15 H 0.5075 0.1931 -0.2415
H16 H 0.4850 0.0238 -0.2428
C16 C 0.3607(9) 0.1262(9) -0.1930(3)
H17 H 0.3107 0.2169 -0.1930
H18 H 0.2959 0.0475 -0.1927
C17 C 0.4389(8) 0.1191(8) -0.1474(3)
C18 C 0.5262(9) 0.0035(10) -0.1366(3)
H19 H 0.5383 -0.0704 -0.1593
C19 C 0.5939(9) -0.0028(11) -0.0936(4)
H20 H 0.6527 -0.0788 -0.0868
C20 C 0.4931(11) 0.2150(14) -0.0700(4)
H21 H 0.4836 0.2888 -0.0471
C21 C 0.4248(9) 0.2215(11) -0.1125(3)
H22 H 0.3664 0.2988 -0.1179
loop_
_geom_bond_atom_site_label_1
_geom_bond_atom_site_label_2
_geom_bond_site_symmetry_1
_geom_bond_site_symmetry_2
Zn1 O2 1_555 1_555
Zn2 O1 1_555 1_555
P1 O1 1_555 1_555
P2 O5 1_555 1_555
O2 P1 1_555 1_555
O3 P1 1_555 1_555
O4 P1 1_555 1_555
H1 O4 1_555 1_555
O5 Zn1 1_555 1_555
O6 P2 1_555 1_555
O7 Zn2 1_555 1_555
O8 P2 1_555 1_555
H2 O8 1_555 1_555
O9 Zn1 1_555 1_555
O10 C8 1_555 1_555
O11 C1 1_555 1_555
O12 C8 1_555 1_555
N1 H3 1_555 1_555
N2 H4 1_555 1_555
C1 O9 1_555 1_555
C2 C1 1_555 1_555
C3 C2 1_555 1_555
H5 C3 1_555 1_555
C4 C3 1_555 1_555
H6 C4 1_555 1_555
C5 C4 1_555 1_555
C6 C5 1_555 1_555
H7 C6 1_555 1_555
C7 C2 1_555 1_555
H8 C7 1_555 1_555
C8 C5 1_555 1_555
C9 N1 1_555 1_555
H9 C9 1_555 1_555
C10 C9 1_555 1_555
H10 C10 1_555 1_555
C11 C10 1_555 1_555
C12 C11 1_555 1_555
H11 C12 1_555 1_555
C13 N1 1_555 1_555
H12 C13 1_555 1_555
C14 C11 1_555 1_555
H13 C14 1_555 1_555
H14 C14 1_555 1_555
C15 C14 1_555 1_555
H15 C15 1_555 1_555
H16 C15 1_555 1_555
C16 C15 1_555 1_555
H17 C16 1_555 1_555
H18 C16 1_555 1_555
C17 C16 1_555 1_555
C18 C17 1_555 1_555
H19 C18 1_555 1_555
C19 N2 1_555 1_555
H20 C19 1_555 1_555
C20 N2 1_555 1_555
H21 C20 1_555 1_555
C21 C17 1_555 1_555
H22 C21 1_555 1_555
Zn1B O6 1_555 1_555
Zn2A O10 1_555 1_555
Zn2B O3 1_555 1_555
O3B Zn2 1_555 1_555
O6B Zn1 1_555 1_555
O10A Zn2 1_555 1_555
P2 O7 1_555 1_555
C6 C7 1_555 1_555
C12 C13 1_555 1_555
C18 C19 1_555 1_555
C20 C21 1_555 1_555

#END
