
#######################################################################
#
#                 Cambridge Crystallographic Data Centre
#                                CCDC 
#
#######################################################################
#
# If this CIF has been generated from an entry in the Cambridge 
# Structural Database, then it will include bibliographic, chemical, 
# crystal, experimental, refinement or atomic coordinate data resulting 
# from the CCDC's data processing and validation procedures.
#
#######################################################################

data_ESIQUS
_symmetry_cell_setting           monoclinic
_symmetry_space_group_name_H-M   'C 2'
_symmetry_Int_Tables_number      5
_space_group_name_Hall           'C 2y'
loop_
_symmetry_equiv_pos_site_id
_symmetry_equiv_pos_as_xyz
1 x,y,z
2 -x,y,-z
3 1/2+x,1/2+y,z
4 1/2-x,1/2+y,-z
_cell_length_a                   17.1238(4)
_cell_length_b                   10.8439(3)
_cell_length_c                   12.3532(4)
_cell_angle_alpha                90
_cell_angle_beta                 127.0816(12)
_cell_angle_gamma                90
_cell_volume                     1829.98
loop_
_atom_site_label
_atom_site_type_symbol
_atom_site_fract_x
_atom_site_fract_y
_atom_site_fract_z
Mn1 Mn 0.88867(3) 0.67209(3) 0.47287(5)
Mn2 Mn 1.0000 1.14072(5) 0.5000
N1 N 0.86921(18) 0.7161(2) 0.6353(3)
N2 N 0.88309(19) 0.8826(2) 0.4902(3)
N3 N 0.89101(18) 0.9734(2) 0.4155(3)
N4 N 0.9308(2) 1.1211(3) 0.2791(3)
N5 N 0.8410(2) 1.0420(2) 0.5716(3)
H1 H 0.8400 1.0956 0.5196
H2 H 0.8279 1.0640 0.6260
N6 N 0.94877(18) 0.6677(3) 0.3593(3)
N7 N 0.9150(2) 0.6713(5) 0.2437(4)
N8 N 0.8837(3) 0.6855(8) 0.1299(5)
N9 N 0.73307(19) 0.6767(3) 0.3014(3)
N10 N 0.6798(2) 0.7623(3) 0.2573(3)
N11 N 0.6262(3) 0.8450(4) 0.2094(5)
N12 N 0.8914(2) 1.2661(3) 0.4679(4)
N13 N 0.8840(2) 1.3711(3) 0.4786(3)
N14 N 0.8738(3) 1.4743(3) 0.4907(4)
C1 C 0.8743(2) 0.6323(3) 0.7188(4)
H3 H 0.8789 0.5496 0.7034
C2 C 0.8730(3) 0.6614(4) 0.8261(3)
H4 H 0.8762 0.6000 0.8812
C3 C 0.8669(3) 0.7836(4) 0.8498(4)
H5 H 0.8660 0.8062 0.9217
C4 C 0.8622(3) 0.8728(4) 0.7655(4)
H6 H 0.8576 0.9560 0.7793
C5 C 0.8644(2) 0.8355(3) 0.6616(3)
C6 C 0.8623(2) 0.9265(3) 0.5680(3)
C7 C 0.8544(3) 0.9456(3) 0.2930(4)
H7 H 0.8191 0.8729 0.2554
C8 C 0.8678(3) 1.0272(4) 0.2121(4)
C9 C 0.8197(3) 1.0058(5) 0.0770(4)
H8 H 0.7774 0.9389 0.0352
C10 C 0.8344(4) 1.0841(6) 0.0035(5)
H9 H 0.8013 1.0723 -0.0892
C11 C 0.8982(4) 1.1792(6) 0.0686(5)
H10 H 0.9103 1.2322 0.0212
C12 C 0.9459(3) 1.1972(5) 0.2086(5)
H11 H 0.9887 1.2633 0.2524
N1A N 1.13079(18) 0.7161(2) 0.3647(3)
N2A N 1.11691(19) 0.8826(2) 0.5098(3)
N3A N 1.10899(18) 0.9734(2) 0.5845(3)
N4A N 1.0692(2) 1.1211(3) 0.7209(3)
N5A N 1.1590(2) 1.0420(2) 0.4284(3)
H1A H 1.1600 1.0956 0.4804
H2A H 1.1721 1.0640 0.3740
C1A C 1.1257(2) 0.6323(3) 0.2812(4)
H3A H 1.1211 0.5496 0.2966
C2A C 1.1270(3) 0.6614(4) 0.1739(3)
H4A H 1.1238 0.6000 0.1188
C3A C 1.1331(3) 0.7836(4) 0.1502(4)
H5A H 1.1340 0.8062 0.0783
C4A C 1.1378(3) 0.8728(4) 0.2345(4)
H6A H 1.1424 0.9560 0.2207
C5A C 1.1356(2) 0.8355(3) 0.3384(3)
C6A C 1.1377(2) 0.9265(3) 0.4320(3)
C7A C 1.1456(3) 0.9456(3) 0.7070(4)
H7A H 1.1809 0.8729 0.7446
C8A C 1.1322(3) 1.0272(4) 0.7879(4)
C9A C 1.1803(3) 1.0058(5) 0.9230(4)
H8A H 1.2226 0.9389 0.9648
C10A C 1.1656(4) 1.0841(6) 0.9965(5)
H9A H 1.1987 1.0723 1.0892
C11A C 1.1018(4) 1.1792(6) 0.9314(5)
H10A H 1.0897 1.2322 0.9788
C12A C 1.0541(3) 1.1972(5) 0.7914(5)
H11A H 1.0113 1.2633 0.7476
N12A N 1.1086(2) 1.2661(3) 0.5321(4)
N13A N 1.1160(2) 1.3711(3) 0.5214(3)
N14A N 1.1262(3) 1.4743(3) 0.5093(4)
Mn1A Mn 1.11133(3) 0.67209(3) 0.52713(5)
N6A N 1.05123(18) 0.6677(3) 0.6407(3)
N7A N 1.0850(2) 0.6713(5) 0.7563(4)
N8A N 1.1163(3) 0.6855(8) 0.8701(5)
N9A N 1.26693(19) 0.6767(3) 0.6986(3)
N10A N 1.3202(2) 0.7623(3) 0.7427(3)
N11A N 1.3738(3) 0.8450(4) 0.7906(5)
N14_2 N 0.8738(3) 0.4743(3) 0.4907(4)
Mn1_2 Mn 0.88867(3) 1.67209(3) 0.47287(5)
Mn1A_2 Mn 1.11133(3) 1.67209(3) 0.52713(5)
N14A_2 N 1.1262(3) 0.4743(3) 0.5093(4)
loop_
_geom_bond_atom_site_label_1
_geom_bond_atom_site_label_2
_geom_bond_site_symmetry_1
_geom_bond_site_symmetry_2
Mn1 N1 1_555 1_555
Mn2 N3 1_555 1_555
N1 C1 1_555 1_555
N2 Mn1 1_555 1_555
N3 N2 1_555 1_555
N4 Mn2 1_555 1_555
N5 H1 1_555 1_555
H2 N5 1_555 1_555
N6 Mn1 1_555 1_555
N7 N6 1_555 1_555
N8 N7 1_555 1_555
N9 Mn1 1_555 1_555
N10 N9 1_555 1_555
N11 N10 1_555 1_555
N12 Mn2 1_555 1_555
N13 N12 1_555 1_555
N14 N13 1_555 1_555
C1 H3 1_555 1_555
C2 C1 1_555 1_555
H4 C2 1_555 1_555
C3 C2 1_555 1_555
H5 C3 1_555 1_555
C4 C3 1_555 1_555
H6 C4 1_555 1_555
C5 N1 1_555 1_555
C6 N2 1_555 1_555
C7 N3 1_555 1_555
H7 C7 1_555 1_555
C8 N4 1_555 1_555
C9 C8 1_555 1_555
H8 C9 1_555 1_555
C10 C9 1_555 1_555
H9 C10 1_555 1_555
C11 C10 1_555 1_555
H10 C11 1_555 1_555
C12 N4 1_555 1_555
H11 C12 1_555 1_555
N1A C1A 1_555 1_555
N2A N3A 1_555 1_555
N3A Mn2 1_555 1_555
N4A Mn2 1_555 1_555
N5A H1A 1_555 1_555
H2A N5A 1_555 1_555
C1A H3A 1_555 1_555
C2A C1A 1_555 1_555
H4A C2A 1_555 1_555
C3A C2A 1_555 1_555
H5A C3A 1_555 1_555
C4A C3A 1_555 1_555
H6A C4A 1_555 1_555
C5A N1A 1_555 1_555
C6A N2A 1_555 1_555
C7A N3A 1_555 1_555
H7A C7A 1_555 1_555
C8A N4A 1_555 1_555
C9A C8A 1_555 1_555
H8A C9A 1_555 1_555
C10A C9A 1_555 1_555
H9A C10A 1_555 1_555
C11A C10A 1_555 1_555
H10A C11A 1_555 1_555
C12A N4A 1_555 1_555
H11A C12A 1_555 1_555
N12A Mn2 1_555 1_555
N13A N12A 1_555 1_555
N14A N13A 1_555 1_555
Mn1A N6 1_555 1_555
N6A Mn1 1_555 1_555
N7A N6A 1_555 1_555
N8A N7A 1_555 1_555
N9A Mn1A 1_555 1_555
N10A N9A 1_555 1_555
N11A N10A 1_555 1_555
N14_2 Mn1 1_555 1_555
Mn1_2 N14 1_555 1_555
Mn1A_2 N14A 1_555 1_555
N14A_2 Mn1A 1_555 1_555
N5 C6 1_555 1_555
C4 C5 1_555 1_555
C5 C6 1_555 1_555
C7 C8 1_555 1_555
C11 C12 1_555 1_555
N1A Mn1A 1_555 1_555
N2A Mn1A 1_555 1_555
N5A C6A 1_555 1_555
C4A C5A 1_555 1_555
C5A C6A 1_555 1_555
C7A C8A 1_555 1_555
C11A C12A 1_555 1_555
Mn1A N6A 1_555 1_555

#END
