
#######################################################################
#
#                 Cambridge Crystallographic Data Centre
#                                CCDC 
#
#######################################################################
#
# If this CIF has been generated from an entry in the Cambridge 
# Structural Database, then it will include bibliographic, chemical, 
# crystal, experimental, refinement or atomic coordinate data resulting 
# from the CCDC's data processing and validation procedures.
#
#######################################################################

data_ESIQIH
_symmetry_cell_setting           orthorhombic
_symmetry_space_group_name_H-M   'P n n a'
_symmetry_Int_Tables_number      52
_space_group_name_Hall           '-P 2a 2bc'
loop_
_symmetry_equiv_pos_site_id
_symmetry_equiv_pos_as_xyz
1 x,y,z
2 1/2-x,-y,z
3 x,1/2-y,1/2-z
4 1/2-x,1/2+y,1/2-z
5 -x,-y,-z
6 1/2+x,y,-z
7 -x,1/2+y,1/2+z
8 1/2+x,1/2-y,1/2+z
_cell_length_a                   10.9272(2)
_cell_length_b                   19.0165(3)
_cell_length_c                   14.0948(3)
_cell_angle_alpha                90
_cell_angle_beta                 90
_cell_angle_gamma                90
_cell_volume                     2928.86
loop_
_atom_site_label
_atom_site_type_symbol
_atom_site_fract_x
_atom_site_fract_y
_atom_site_fract_z
Sn1 Sn 0.2500(4) 0.0000(3) 0.2102(3)
Cu1 Cu 0.4729(4) 0.2500(3) 0.2500(3)
C1 C 0.2500(4) 0.0000(3) 0.0591(3)
N1 N 0.6003(4) 0.2643(3) 0.1363(3)
C2 C 0.6952(4) 0.2208(3) 0.1228(3)
N2 N 0.3433(4) 0.1085(3) 0.2190(3)
C3 C 0.3920(4) 0.1609(3) 0.2306(3)
C4 C 0.7705(4) 0.2210(3) 0.0431(3)
C5 C 0.7432(4) 0.2695(3) -0.0269(3)
C6 C 0.4470(4) -0.1109(3) 0.2531(3)
C7 C 0.5790(4) 0.3114(3) 0.0676(3)
C8 C 0.6472(4) 0.3157(3) -0.0145(3)
C9 C 0.5533(4) -0.1385(3) 0.2938(3)
C10 C 0.2500(4) 0.0000(3) -0.1389(3)
C11 C 0.4061(4) -0.0443(3) 0.2782(3)
C12 C 0.8772(4) 0.1715(3) 0.0358(3)
C13 C 0.1552(4) 0.0304(3) -0.0904(3)
C14 C 0.1549(4) 0.0306(3) 0.0090(3)
C15 C 0.4726(4) -0.0072(3) 0.3449(3)
C16 C 0.6179(4) -0.1005(3) 0.3581(3)
C17 C 0.5772(4) -0.0360(3) 0.3851(3)
H1 H 0.714330 0.186330 0.170370
H2 H 0.793330 0.270880 -0.082800
H3 H 0.402880 -0.138610 0.207540
H4 H 0.512170 0.343740 0.074340
H5 H 0.629060 0.349930 -0.062550
H6 H 0.582380 -0.184410 0.276750
H7 H 0.250000 0.000000 -0.207040
H8 H 0.919010 0.179160 -0.023200
H9 H 0.849000 0.123790 0.038790
H10 H 0.932320 0.180340 0.087530
H11 H 0.088410 0.050590 -0.125270
H12 H 0.089110 0.052570 0.043150
H13 H 0.445360 0.038870 0.363000
H14 H 0.691970 -0.119110 0.384820
H15 H 0.623800 -0.011470 0.432470
Cu1A Cu 0.0271(4) -0.2500(3) 0.2500(3)
N1B N 0.6003(4) 0.2357(3) 0.3637(3)
C2B C 0.6952(4) 0.2792(3) 0.3772(3)
N2A N 0.1567(4) -0.1085(3) 0.2190(3)
C3A C 0.1080(4) -0.1609(3) 0.2306(3)
C3B C 0.3920(4) 0.3391(3) 0.2694(3)
C4B C 0.7705(4) 0.2790(3) 0.4569(3)
C5B C 0.7432(4) 0.2305(3) 0.5269(3)
C6A C 0.0530(4) 0.1109(3) 0.2531(3)
C7B C 0.5790(4) 0.1886(3) 0.4324(3)
C8B C 0.6472(4) 0.1843(3) 0.5145(3)
C9A C -0.0533(4) 0.1385(3) 0.2938(3)
C11A C 0.0939(4) 0.0443(3) 0.2782(3)
C12B C 0.8772(4) 0.3285(3) 0.4642(3)
C13A C 0.3448(4) -0.0304(3) -0.0904(3)
C14A C 0.3451(4) -0.0306(3) 0.0090(3)
C15A C 0.0274(4) 0.0072(3) 0.3449(3)
C16A C -0.1179(4) 0.1005(3) 0.3581(3)
C17A C -0.0772(4) 0.0360(3) 0.3851(3)
H1B H 0.714330 0.313670 0.329630
H2B H 0.793330 0.229120 0.582800
H3A H 0.097120 0.138610 0.207540
H4B H 0.512170 0.156260 0.425660
H5B H 0.629060 0.150070 0.562550
H6A H -0.082380 0.184410 0.276750
H8B H 0.919010 0.320840 0.523200
H9B H 0.849000 0.376210 0.461210
H10B H 0.932320 0.319660 0.412470
H11A H 0.411590 -0.050590 -0.125270
H12A H 0.410890 -0.052570 0.043150
H13A H 0.054640 -0.038870 0.363000
H14A H -0.191970 0.119110 0.384820
H15A H -0.123800 0.011470 0.432470
loop_
_geom_bond_atom_site_label_1
_geom_bond_atom_site_label_2
_geom_bond_site_symmetry_1
_geom_bond_site_symmetry_2
Sn1 C1 1_555 1_555
Cu1 N1 1_555 1_555
C1 C14 1_555 1_555
N1 C2 1_555 1_555
C2 C4 1_555 1_555
N2 Sn1 1_555 1_555
C3 Cu1 1_555 1_555
C4 C5 1_555 1_555
C5 C8 1_555 1_555
C6 C9 1_555 1_555
C7 N1 1_555 1_555
C8 C7 1_555 1_555
C9 C16 1_555 1_555
C10 C13 1_555 1_555
C11 Sn1 1_555 1_555
C12 C4 1_555 1_555
C13 C14 1_555 1_555
C14 H12 1_555 1_555
C15 C11 1_555 1_555
C16 C17 1_555 1_555
C17 C15 1_555 1_555
H1 C2 1_555 1_555
H2 C5 1_555 1_555
H3 C6 1_555 1_555
H4 C7 1_555 1_555
H5 C8 1_555 1_555
H6 C9 1_555 1_555
H7 C10 1_555 1_555
H8 C12 1_555 1_555
H9 C12 1_555 1_555
H10 C12 1_555 1_555
H11 C13 1_555 1_555
H13 C15 1_555 1_555
H14 C16 1_555 1_555
H15 C17 1_555 1_555
Cu1A C3A 1_555 1_555
N1B Cu1 1_555 1_555
C2B N1B 1_555 1_555
N2A Sn1 1_555 1_555
C3A N2A 1_555 1_555
C3B Cu1 1_555 1_555
C4B C2B 1_555 1_555
C5B C4B 1_555 1_555
C6A C9A 1_555 1_555
C7B N1B 1_555 1_555
C8B C5B 1_555 1_555
C9A C16A 1_555 1_555
C11A Sn1 1_555 1_555
C12B C4B 1_555 1_555
C13A C10 1_555 1_555
C14A C1 1_555 1_555
C15A C11A 1_555 1_555
C16A C17A 1_555 1_555
C17A C15A 1_555 1_555
H1B C2B 1_555 1_555
H2B C5B 1_555 1_555
H3A C6A 1_555 1_555
H4B C7B 1_555 1_555
H5B C8B 1_555 1_555
H6A C9A 1_555 1_555
H8B C12B 1_555 1_555
H9B C12B 1_555 1_555
H10B C12B 1_555 1_555
H11A C13A 1_555 1_555
H12A C14A 1_555 1_555
H13A C15A 1_555 1_555
H14A C16A 1_555 1_555
H15A C17A 1_555 1_555
N2 C3 1_555 1_555
C6 C11 1_555 1_555
C6A C11A 1_555 1_555
C7B C8B 1_555 1_555
C13A C14A 1_555 1_555

#END
