
#######################################################################
#
#                 Cambridge Crystallographic Data Centre
#                                CCDC 
#
#######################################################################
#
# If this CIF has been generated from an entry in the Cambridge 
# Structural Database, then it will include bibliographic, chemical, 
# crystal, experimental, refinement or atomic coordinate data resulting 
# from the CCDC's data processing and validation procedures.
#
#######################################################################

data_ESIQED
_symmetry_cell_setting           orthorhombic
_symmetry_space_group_name_H-M   'P n m a'
_symmetry_Int_Tables_number      62
_space_group_name_Hall           '-P 2ac 2n'
loop_
_symmetry_equiv_pos_site_id
_symmetry_equiv_pos_as_xyz
1 x,y,z
2 1/2-x,-y,1/2+z
3 1/2+x,1/2-y,1/2-z
4 -x,1/2+y,-z
5 -x,-y,-z
6 1/2+x,y,1/2-z
7 1/2-x,1/2+y,1/2+z
8 x,1/2-y,z
_cell_length_a                   19.8748(6)
_cell_length_b                   20.5533(7)
_cell_length_c                   6.1422(2)
_cell_angle_alpha                90
_cell_angle_beta                 90
_cell_angle_gamma                90
_cell_volume                     2509.04
loop_
_atom_site_label
_atom_site_type_symbol
_atom_site_fract_x
_atom_site_fract_y
_atom_site_fract_z
Sn1 Sn 0.2932(9) 0.2500(9) 0.791(3)
Cu1 Cu 0.5356(9) 0.2500(9) 0.417(3)
O1 O 0.3823(9) 0.0157(9) -0.159(3)
C1 C 0.4526(9) 0.2500(9) 0.577(3)
C2 C 0.1269(9) 0.2500(9) 0.990(3)
N1 N 0.4008(9) 0.2500(9) 0.662(3)
N2 N 0.5225(9) 0.1723(9) 0.177(3)
C3 C 0.4537(9) 0.0900(9) 0.005(3)
C4 C 0.4678(9) 0.1351(9) 0.172(3)
O2 O 0.3510(9) 0.0549(9) 0.166(3)
C5 C 0.3903(9) 0.0530(9) 0.019(3)
N3 N 0.1812(9) 0.2500(9) 0.924(3)
C6 C 0.4987(9) 0.0863(9) -0.162(3)
C7 C 0.5660(9) 0.1657(9) 0.015(3)
C8 C 0.5566(9) 0.1233(9) -0.159(3)
C9 C 0.3209(9) -0.0228(9) -0.172(3)
C10 C 0.3287(9) 0.2500(9) 1.111(3)
C11 C 0.2722(9) 0.1603(9) 0.637(3)
C12 C 0.3272(9) -0.0656(9) -0.366(3)
H1 H 0.435680 0.137800 0.288600
H2 H 0.489920 0.056220 -0.278740
H3 H 0.606300 0.191380 0.013430
H4 H 0.589070 0.120500 -0.274020
H5 H 0.318040 -0.049520 -0.044090
H6 H 0.282250 0.005080 -0.179580
H7 H 0.288120 -0.092720 -0.380460
H8 H 0.366620 -0.092430 -0.355820
H9 H 0.330840 -0.037830 -0.491310
H10 H 0.226430 0.147820 0.665070
H11 H 0.301980 0.127340 0.691160
H12 H 0.278630 0.165150 0.482750
H13 H 0.291730 0.250000 1.211650
H14 H 0.355650 0.288140 1.133700
Cu1B Cu 0.0356(9) 0.2500(9) 1.083(3)
O1G O 0.3823(9) 0.4843(9) -0.159(3)
C2B C 0.6269(9) 0.2500(9) 0.510(3)
N2G N 0.5225(9) 0.3277(9) 0.177(3)
C3G C 0.4537(9) 0.4100(9) 0.005(3)
C4G C 0.4678(9) 0.3649(9) 0.172(3)
O2G O 0.3510(9) 0.4451(9) 0.166(3)
C5G C 0.3903(9) 0.4470(9) 0.019(3)
C6G C 0.4987(9) 0.4137(9) -0.162(3)
C7G C 0.5660(9) 0.3343(9) 0.015(3)
C8G C 0.5566(9) 0.3767(9) -0.159(3)
C9G C 0.3209(9) 0.5228(9) -0.172(3)
C11G C 0.2722(9) 0.3397(9) 0.637(3)
C12G C 0.3272(9) 0.5656(9) -0.366(3)
H1G H 0.435680 0.362200 0.288600
H2G H 0.489920 0.443780 -0.278740
H3G H 0.606300 0.308620 0.013430
H4G H 0.589070 0.379500 -0.274020
H5G H 0.318040 0.549520 -0.044090
H6G H 0.282250 0.494920 -0.179580
H7G H 0.288120 0.592720 -0.380460
H8G H 0.366620 0.592430 -0.355820
H9G H 0.330840 0.537830 -0.491310
H10G H 0.226430 0.352180 0.665070
H11G H 0.301980 0.372660 0.691160
H12G H 0.278630 0.334850 0.482750
H14G H 0.355650 0.211860 1.133700
loop_
_geom_bond_atom_site_label_1
_geom_bond_atom_site_label_2
_geom_bond_site_symmetry_1
_geom_bond_site_symmetry_2
Sn1 N1 1_555 1_555
Cu1 C1 1_555 1_555
O1 C5 1_555 1_555
C1 N1 1_555 1_555
C2 N3 1_555 1_555
N2 Cu1 1_555 1_555
C3 C4 1_555 1_555
C4 N2 1_555 1_555
O2 C5 1_555 1_555
C5 C3 1_555 1_555
N3 Sn1 1_555 1_555
C6 C3 1_555 1_555
C7 N2 1_555 1_555
C8 C6 1_555 1_555
C9 O1 1_555 1_555
C10 Sn1 1_555 1_555
C11 Sn1 1_555 1_555
C12 C9 1_555 1_555
H1 C4 1_555 1_555
H2 C6 1_555 1_555
H3 C7 1_555 1_555
H4 C8 1_555 1_555
H5 C9 1_555 1_555
H6 C9 1_555 1_555
H7 C12 1_555 1_555
H8 C12 1_555 1_555
H9 C12 1_555 1_555
H10 C11 1_555 1_555
H11 C11 1_555 1_555
H12 C11 1_555 1_555
H13 C10 1_555 1_555
H14 C10 1_555 1_555
Cu1B C2 1_555 1_555
O1G C5G 1_555 1_555
C2B Cu1 1_555 1_555
N2G Cu1 1_555 1_555
C3G C4G 1_555 1_555
C4G N2G 1_555 1_555
O2G C5G 1_555 1_555
C5G C3G 1_555 1_555
C6G C3G 1_555 1_555
C7G N2G 1_555 1_555
C8G C6G 1_555 1_555
C9G O1G 1_555 1_555
C11G Sn1 1_555 1_555
C12G C9G 1_555 1_555
H1G C4G 1_555 1_555
H2G C6G 1_555 1_555
H3G C7G 1_555 1_555
H4G C8G 1_555 1_555
H5G C9G 1_555 1_555
H6G C9G 1_555 1_555
H7G C12G 1_555 1_555
H8G C12G 1_555 1_555
H9G C12G 1_555 1_555
H10G C11G 1_555 1_555
H11G C11G 1_555 1_555
H12G C11G 1_555 1_555
H14G C10 1_555 1_555
C7 C8 1_555 1_555
C7G C8G 1_555 1_555

#END
