
#######################################################################
#
#                 Cambridge Crystallographic Data Centre
#                                CCDC 
#
#######################################################################
#
# If this CIF has been generated from an entry in the Cambridge 
# Structural Database, then it will include bibliographic, chemical, 
# crystal, experimental, refinement or atomic coordinate data resulting 
# from the CCDC's data processing and validation procedures.
#
#######################################################################

data_ESIRAZ
_symmetry_cell_setting           orthorhombic
_symmetry_space_group_name_H-M   'P 21 21 21'
_symmetry_Int_Tables_number      19
_space_group_name_Hall           'P 2ac 2ab'
loop_
_symmetry_equiv_pos_site_id
_symmetry_equiv_pos_as_xyz
1 x,y,z
2 1/2-x,-y,1/2+z
3 -x,1/2+y,1/2-z
4 1/2+x,1/2-y,-z
_cell_length_a                   14.4368(3)
_cell_length_b                   14.5844(3)
_cell_length_c                   17.5169(4)
_cell_angle_alpha                90
_cell_angle_beta                 90
_cell_angle_gamma                90
_cell_volume                     3688.22
loop_
_atom_site_label
_atom_site_type_symbol
_atom_site_fract_x
_atom_site_fract_y
_atom_site_fract_z
Mn1 Mn 0.84066(5) 0.12085(5) 0.54250(4)
Mn2 Mn 0.67628(5) -0.08432(5) 0.39096(4)
N1 N 0.7101(3) 0.1912(3) 0.5913(2)
N2 N 0.7229(3) 0.0151(2) 0.5529(2)
N3 N 0.7234(3) -0.0698(2) 0.5141(2)
N4 N 0.7677(3) -0.2087(3) 0.4217(2)
N5 N 0.5608(3) 0.0026(3) 0.5470(3)
H1 H 0.5629 -0.0514 0.5274
H2 H 0.5082 0.0281 0.5558
N6 N 0.8435(3) -0.1103(3) 0.5968(2)
H3 H 0.8382 -0.0612 0.6237
H4 H 0.8848 -0.1505 0.6083
N7 N 0.9807(3) 0.0545(3) 0.5181(2)
N8 N 0.8390(3) 0.0648(3) 0.42145(19)
N9 N 0.7549(3) 0.0480(3) 0.3818(2)
N10 N 0.5794(3) 0.0282(3) 0.3408(2)
N11 N 0.9047(3) -0.0483(3) 0.3436(2)
H5 H 0.8560 -0.0532 0.3157
H6 H 0.9525 -0.0816 0.3343
N12 N 0.7432(4) 0.2058(3) 0.3740(3)
H7 H 0.7964 0.2132 0.3952
H8 H 0.7112 0.2528 0.3603
N13 N 0.8939(5) 0.2481(4) 0.5093(4)
N14 N 0.8903(3) 0.3277(3) 0.5047(3)
N15 N 0.8859(4) 0.4056(3) 0.4949(5)
N16 N 0.5540(4) -0.1596(4) 0.4158(4)
N17 N 0.5459(3) -0.2376(3) 0.4277(3)
N18 N 0.5339(5) -0.3128(4) 0.4390(6)
N19 N 0.7924(4) 0.1229(4) 0.7720(3)
N20 N 0.8356(3) 0.1107(3) 0.7175(3)
N21 N 0.8799(3) 0.0975(4) 0.6636(3)
C1 C 0.7107(5) 0.2730(3) 0.6261(3)
H9 H 0.7631 0.3097 0.6215
C2 C 0.6380(5) 0.3051(4) 0.6679(3)
H10 H 0.6416 0.3622 0.6914
C3 C 0.5590(5) 0.2524(5) 0.6753(4)
H11 H 0.5089 0.2729 0.7039
C4 C 0.5564(4) 0.1678(4) 0.6386(4)
H12 H 0.5036 0.1313 0.6408
C5 C 0.6326(3) 0.1393(3) 0.5995(3)
C6 C 0.6399(3) 0.0472(3) 0.5639(3)
C7 C 0.7879(3) -0.1239(3) 0.5376(3)
C8 C 0.7985(3) -0.2117(3) 0.4933(3)
C9 C 0.8356(4) -0.2902(3) 0.5263(3)
H13 H 0.8548 -0.2909 0.5769
C10 C 0.8429(4) -0.3674(3) 0.4806(4)
H14 H 0.8676 -0.4212 0.5005
C11 C 0.8150(4) -0.3648(3) 0.4096(4)
H15 H 0.8214 -0.4166 0.3791
C12 C 0.7756(4) -0.2848(4) 0.3785(4)
H16 H 0.7550 -0.2844 0.3283
C13 C 1.0566(4) 0.0629(4) 0.5607(3)
H17 H 1.0497 0.0840 0.6105
C14 C 1.1435(4) 0.0428(4) 0.5361(3)
H18 H 1.1946 0.0525 0.5675
C15 C 1.1540(4) 0.0089(5) 0.4660(4)
H19 H 1.2129 -0.0058 0.4484
C16 C 1.0774(4) -0.0049(4) 0.4189(3)
H20 H 1.0839 -0.0291 0.3701
C17 C 0.9921(3) 0.0185(3) 0.4470(3)
C18 C 0.9061(3) 0.0108(3) 0.4014(3)
C19 C 0.7108(4) 0.1232(3) 0.3627(3)
C20 C 0.6178(4) 0.1113(4) 0.3317(3)
C21 C 0.5701(5) 0.1803(4) 0.2945(4)
H21 H 0.5968 0.2380 0.2889
C22 C 0.4806(5) 0.1633(5) 0.2648(4)
H22 H 0.4477 0.2086 0.2392
C23 C 0.4446(5) 0.0780(5) 0.2754(4)
H23 H 0.3859 0.0646 0.2565
C24 C 0.4933(4) 0.0114(4) 0.3134(4)
H24 H 0.4668 -0.0461 0.3205
N19A N 0.7076(4) -0.1229(4) 0.2720(3)
Mn2A Mn 0.82372(5) 0.08432(5) 0.89096(4)
O1 O 0.7624(8) 0.3622(11) 0.1844(5)
O2 O 0.6875(4) 0.3843(3) 0.2911(3)
O3 O 0.7761(6) 0.4958(5) 0.2379(6)
O4 O 0.8420(6) 0.3761(10) 0.2842(8)
Cl1 Cl 0.76623(11) 0.40387(10) 0.24796(9)
O5 O 1.0304(5) -0.2118(5) 0.3577(7)
loop_
_geom_bond_atom_site_label_1
_geom_bond_atom_site_label_2
_geom_bond_site_symmetry_1
_geom_bond_site_symmetry_2
Mn1 N1 1_555 1_555
Mn2 N3 1_555 1_555
N1 C1 1_555 1_555
N2 Mn1 1_555 1_555
N3 N2 1_555 1_555
N4 Mn2 1_555 1_555
N5 H1 1_555 1_555
H2 N5 1_555 1_555
N6 H3 1_555 1_555
H4 N6 1_555 1_555
N7 Mn1 1_555 1_555
N8 Mn1 1_555 1_555
N9 Mn2 1_555 1_555
N10 Mn2 1_555 1_555
N11 H5 1_555 1_555
H6 N11 1_555 1_555
N12 H7 1_555 1_555
H8 N12 1_555 1_555
N13 Mn1 1_555 1_555
N14 N13 1_555 1_555
N15 N14 1_555 1_555
N16 Mn2 1_555 1_555
N17 N16 1_555 1_555
N18 N17 1_555 1_555
N19 N20 1_555 1_555
N20 N21 1_555 1_555
N21 Mn1 1_555 1_555
C1 H9 1_555 1_555
C2 C1 1_555 1_555
H10 C2 1_555 1_555
C3 C2 1_555 1_555
H11 C3 1_555 1_555
C4 C3 1_555 1_555
H12 C4 1_555 1_555
C5 N1 1_555 1_555
C6 N2 1_555 1_555
C7 N3 1_555 1_555
C8 N4 1_555 1_555
C9 C8 1_555 1_555
H13 C9 1_555 1_555
C10 C9 1_555 1_555
H14 C10 1_555 1_555
C11 C10 1_555 1_555
H15 C11 1_555 1_555
C12 N4 1_555 1_555
H16 C12 1_555 1_555
C13 N7 1_555 1_555
H17 C13 1_555 1_555
C14 C13 1_555 1_555
H18 C14 1_555 1_555
C15 C14 1_555 1_555
H19 C15 1_555 1_555
C16 C15 1_555 1_555
H20 C16 1_555 1_555
C17 N7 1_555 1_555
C18 N8 1_555 1_555
C19 N9 1_555 1_555
C20 N10 1_555 1_555
C21 C20 1_555 1_555
H21 C21 1_555 1_555
C22 C21 1_555 1_555
H22 C22 1_555 1_555
C23 C22 1_555 1_555
H23 C23 1_555 1_555
C24 N10 1_555 1_555
H24 C24 1_555 1_555
O1 Cl1 1_555 1_555
O2 Cl1 1_555 1_555
O3 Cl1 1_555 1_555
O4 Cl1 1_555 1_555
N19A Mn2 1_555 1_555
Mn2A N19 1_555 1_555
N5 C6 1_555 1_555
N6 C7 1_555 1_555
N8 N9 1_555 1_555
N11 C18 1_555 1_555
N12 C19 1_555 1_555
C4 C5 1_555 1_555
C5 C6 1_555 1_555
C7 C8 1_555 1_555
C11 C12 1_555 1_555
C16 C17 1_555 1_555
C17 C18 1_555 1_555
C19 C20 1_555 1_555
C23 C24 1_555 1_555

#END
