
#######################################################################
#
#                 Cambridge Crystallographic Data Centre
#                                CCDC 
#
#######################################################################
#
# If this CIF has been generated from an entry in the Cambridge 
# Structural Database, then it will include bibliographic, chemical, 
# crystal, experimental, refinement or atomic coordinate data resulting 
# from the CCDC's data processing and validation procedures.
#
#######################################################################

data_ESIVEI
_symmetry_cell_setting           monoclinic
_symmetry_space_group_name_H-M   'C 2/c'
_symmetry_Int_Tables_number      15
_space_group_name_Hall           '-C 2yn'
loop_
_symmetry_equiv_pos_site_id
_symmetry_equiv_pos_as_xyz
1 x,y,z
2 -x,y,1/2-z
3 1/2+x,1/2+y,z
4 1/2-x,1/2+y,1/2-z
5 -x,-y,-z
6 x,-y,1/2+z
7 1/2-x,1/2-y,-z
8 1/2+x,1/2-y,1/2+z
_cell_length_a                   28.778(3)
_cell_length_b                   5.6989(4)
_cell_length_c                   23.2753(18)
_cell_angle_alpha                90
_cell_angle_beta                 100.672(8)
_cell_angle_gamma                90
_cell_volume                     3751.19
loop_
_atom_site_label
_atom_site_type_symbol
_atom_site_fract_x
_atom_site_fract_y
_atom_site_fract_z
Cu1 Cu 0.00000 0.44569(8) 0.75000
Cl1 Cl 0.00000 -0.02263(15) 0.75000
N1 N -0.04592(7) 0.4614(4) 0.80704(9)
C1 C -0.07732(9) 0.6379(5) 0.80490(12)
H1 H -0.0779 0.7569 0.7762
C2 C -0.10876(9) 0.6515(5) 0.84313(12)
H2 H -0.1302 0.7791 0.841
C3 C -0.10859(10) 0.4783(5) 0.88429(13)
H3 H -0.13 0.4839 0.9108
C4 C -0.07669(10) 0.2961(5) 0.88648(13)
H4 H -0.0758 0.1743 0.9145
C5 C -0.04601(10) 0.2940(5) 0.84709(12)
H5 H -0.0241 0.1683 0.8487
N2 N 0.05591(7) 0.4571(4) 0.81808(9)
C6 C 0.06062(9) 0.6342(5) 0.85689(11)
H6 H 0.0376 0.7554 0.8517
C7 C 0.09762(9) 0.6470(5) 0.90393(12)
H7 H 0.1 0.7755 0.9303
C8 C 0.13106(9) 0.4711(5) 0.91214(12)
H8 H 0.1566 0.4749 0.9445
C9 C 0.12671(9) 0.2897(5) 0.87240(12)
H9 H 0.1494 0.1668 0.8769
C10 C 0.08903(9) 0.2881(5) 0.82592(12)
H10 H 0.0865 0.163 0.7985
Cu1_2 Cu 0.00000 -0.55431(8) 0.75000
Cl1_2 Cl 0.00000 0.97737(15) 0.75000
N1A N 0.04592(7) 0.4614(4) 0.69296(9)
C1A C 0.07732(9) 0.6379(5) 0.69510(12)
H1A H 0.0779 0.7569 0.7238
C2A C 0.10876(9) 0.6515(5) 0.65687(12)
H2A H 0.1302 0.7791 0.659
C3A C 0.10859(10) 0.4783(5) 0.61571(13)
H3A H 0.13 0.4839 0.5892
C4A C 0.07669(10) 0.2961(5) 0.61352(13)
H4A H 0.0758 0.1743 0.5855
C5A C 0.04601(10) 0.2940(5) 0.65291(12)
H5A H 0.0241 0.1683 0.6513
N2A N -0.05591(7) 0.4571(4) 0.68192(9)
C6A C -0.06062(9) 0.6342(5) 0.64311(11)
H6A H -0.0376 0.7554 0.6483
C7A C -0.09762(9) 0.6470(5) 0.59607(12)
H7A H -0.1 0.7755 0.5697
C8A C -0.13106(9) 0.4711(5) 0.58786(12)
H8A H -0.1566 0.4749 0.5555
C9A C -0.12671(9) 0.2897(5) 0.62760(12)
H9A H -0.1494 0.1668 0.6231
C10A C -0.08903(9) 0.2881(5) 0.67408(12)
H10A H -0.0865 0.163 0.7015
N3 N 0.66579(9) 0.5161(4) 0.26030(11)
C11 C 0.69504(11) 0.3322(5) 0.26280(14)
H11 H 0.6869 0.2098 0.2351
C12 C 0.73629(11) 0.3107(6) 0.30345(15)
H12 H 0.756 0.1773 0.3032
C13 C 0.74844(11) 0.4849(5) 0.34432(15)
H13 H 0.7765 0.4735 0.373
C14 C 0.71879(10) 0.6777(6) 0.34274(13)
H14 H 0.7261 0.8016 0.3703
C15 C 0.67835(10) 0.6849(5) 0.30001(13)
H15 H 0.6583 0.8179 0.2988
I1 I 0.674486(6) 0.49812(3) 0.541870(9)
I2 I 0.75000 0.25000 0.50000
I1F I 0.825514(6) 0.00188(3) 0.458130(9)
N4? N 1.02479(11) -0.0061(6) 0.45449(13)
C16? C 0.97521(11) 0.0061(6) 0.54551(13)
H16? H 0.9581 0.0107 0.5767
C17? C 1.02988(11) -0.1818(7) 0.49591(15)
H17? H 1.0506 -0.3098 0.4934
C18? C 1.00482(11) -0.1713(7) 0.54089(14)
H18? H 1.0086 -0.2928 0.5693
loop_
_geom_bond_atom_site_label_1
_geom_bond_atom_site_label_2
_geom_bond_site_symmetry_1
_geom_bond_site_symmetry_2
Cu1 Cl1 1_555 1_555
Cl1 Cu1_2 1_555 1_555
N1 Cu1 1_555 1_555
C1 N1 1_555 1_555
H1 C1 1_555 1_555
C2 C1 1_555 1_555
H2 C2 1_555 1_555
C3 C2 1_555 1_555
H3 C3 1_555 1_555
C4 C3 1_555 1_555
H4 C4 1_555 1_555
C5 N1 1_555 1_555
H5 C5 1_555 1_555
N2 Cu1 1_555 1_555
C6 N2 1_555 1_555
H6 C6 1_555 1_555
C7 C6 1_555 1_555
H7 C7 1_555 1_555
C8 C7 1_555 1_555
H8 C8 1_555 1_555
C9 C8 1_555 1_555
H9 C9 1_555 1_555
C10 N2 1_555 1_555
H10 C10 1_555 1_555
N3 C11 1_555 1_555
C11 H11 1_555 1_555
C12 C11 1_555 1_555
H12 C12 1_555 1_555
C13 C12 1_555 1_555
H13 C13 1_555 1_555
C14 C13 1_555 1_555
H14 C14 1_555 1_555
C15 N3 1_555 1_555
H15 C15 1_555 1_555
I1 I2 1_555 1_555
I2 I1F 1_555 1_555
Cl1_2 Cu1 1_555 1_555
N1A Cu1 1_555 1_555
C1A N1A 1_555 1_555
H1A C1A 1_555 1_555
C2A C1A 1_555 1_555
H2A C2A 1_555 1_555
C3A C2A 1_555 1_555
H3A C3A 1_555 1_555
C4A C3A 1_555 1_555
H4A C4A 1_555 1_555
C5A N1A 1_555 1_555
H5A C5A 1_555 1_555
N2A Cu1 1_555 1_555
C6A N2A 1_555 1_555
H6A C6A 1_555 1_555
C7A C6A 1_555 1_555
H7A C7A 1_555 1_555
C8A C7A 1_555 1_555
H8A C8A 1_555 1_555
C9A C8A 1_555 1_555
H9A C9A 1_555 1_555
C10A N2A 1_555 1_555
H10A C10A 1_555 1_555
C4 C5 1_555 1_555
C9 C10 1_555 1_555
C14 C15 1_555 1_555
C4A C5A 1_555 1_555
C9A C10A 1_555 1_555

#END
