
#######################################################################
#
#                 Cambridge Crystallographic Data Centre
#                                CCDC 
#
#######################################################################
#
# If this CIF has been generated from an entry in the Cambridge 
# Structural Database, then it will include bibliographic, chemical, 
# crystal, experimental, refinement or atomic coordinate data resulting 
# from the CCDC's data processing and validation procedures.
#
#######################################################################

data_ESIZEM
_symmetry_cell_setting           monoclinic
_symmetry_space_group_name_H-M   'P 21/c'
_symmetry_Int_Tables_number      14
_space_group_name_Hall           '-P 2ybc'
loop_
_symmetry_equiv_pos_site_id
_symmetry_equiv_pos_as_xyz
1 x,y,z
2 -x,1/2+y,1/2-z
3 -x,-y,-z
4 x,1/2-y,1/2+z
_cell_length_a                   11.752(2)
_cell_length_b                   11.663(2)
_cell_length_c                   12.921(2)
_cell_angle_alpha                90
_cell_angle_beta                 101.396(2)
_cell_angle_gamma                90
_cell_volume                     1736.08
loop_
_atom_site_label
_atom_site_type_symbol
_atom_site_fract_x
_atom_site_fract_y
_atom_site_fract_z
Cu1 Cu 0.0000 0.5000 0.0000
O1 O 0.04445(19) 0.63642(16) 0.13769(15)
O2 O 0.1619(2) 0.4448(2) 0.0285(2)
C1 C -0.0629(3) 0.8073(2) 0.0835(2)
H1 H -0.0857 0.7851 0.0133
C2 C -0.1728(3) 0.9898(3) 0.0377(3)
H2 H -0.1244 1.0321 -0.0006
H3 H -0.2125 1.0422 0.0757
H4 H -0.2287 0.9462 -0.0110
C3 C 0.0081(2) 0.7324(2) 0.1537(2)
N1 N 0.0394(2) 0.77886(19) 0.25517(17)
N2 N 0.0386(2) 0.89176(19) 0.39027(17)
N3 N 0.1100(2) 0.7263(2) 0.33848(18)
N4 N -0.0700(2) 0.9446(2) 0.21694(19)
C4 C -0.0018(2) 0.8783(2) 0.2875(2)
C5 C -0.0996(3) 0.9105(2) 0.1135(2)
C6 C 0.1070(3) 0.7970(2) 0.4161(2)
H5 H 0.1484 0.7840 0.4842
H11 H -0.084(2) 1.005(2) 0.236(2)
H12 H 0.189(4) 0.440(4) -0.022(4)
H13 H 0.201(4) 0.463(4) 0.068(4)
Cu1A Cu 0.0000 1.0000 0.5000
Cu1A_2 Cu 0.0000 0.0000 -0.5000
O1B O -0.04445(19) 0.36358(16) -0.13769(15)
O2B O -0.1619(2) 0.5552(2) -0.0285(2)
C1B C 0.0629(3) 0.1927(2) -0.0835(2)
H1B H 0.0857 0.2149 -0.0133
C2B C 0.1728(3) 0.0102(3) -0.0377(3)
H2B H 0.1244 -0.0321 0.0006
H3B H 0.2125 -0.0422 -0.0757
H4B H 0.2287 0.0538 0.0110
C3B C -0.0081(2) 0.2676(2) -0.1537(2)
N1B N -0.0394(2) 0.22114(19) -0.25517(17)
N2B N -0.0386(2) 0.10824(19) -0.39027(17)
N2A N -0.0386(2) 0.39176(19) 0.10973(17)
N2C N 0.0386(2) 0.60824(19) -0.10973(17)
N3B N -0.1100(2) 0.2737(2) -0.33848(18)
N4B N 0.0700(2) 0.0554(2) -0.21694(19)
C4B C 0.0018(2) 0.1217(2) -0.2875(2)
C5B C 0.0996(3) 0.0895(2) -0.1135(2)
C6B C -0.1070(3) 0.2030(2) -0.4161(2)
H5B H -0.1484 0.2160 -0.4842
H11B H 0.084(2) -0.005(2) -0.236(2)
H12B H -0.189(4) 0.560(4) 0.022(4)
H13B H -0.201(4) 0.537(4) -0.068(4)
Cl1 Cl 0.75166(7) 0.59372(8) 0.24679(7)
O3 O 0.8080(3) 0.4878(3) 0.2737(3)
O4 O 0.6420(3) 0.5908(3) 0.2716(3)
O5 O 0.7440(4) 0.6226(4) 0.1409(3)
O6 O 0.8174(4) 0.6806(4) 0.3062(3)
O7 O 0.2996(2) 0.7021(3) 0.1213(2)
N5 N 0.3660(2) 0.5812(2) 0.2579(2)
N6 N 0.4635(3) 0.6453(3) 0.4217(2)
C7 C 0.3946(3) 0.7779(3) 0.2862(3)
H6 H 0.3873 0.8540 0.2644
C8 C 0.4235(3) 0.5585(3) 0.3568(3)
N7 N 0.4285(3) 0.4469(3) 0.3750(2)
N8 N 0.3310(3) 0.4796(3) 0.2083(2)
C9 C 0.3486(3) 0.6918(3) 0.2130(3)
C10 C 0.3702(3) 0.4043(3) 0.2808(3)
H7 H 0.3593 0.3260 0.2692
C11 C 0.4487(3) 0.7550(3) 0.3866(3)
C12 C 0.4973(4) 0.8466(4) 0.4647(4)
H8 H 0.4914 0.9197 0.4298
H9 H 0.5774 0.8303 0.4935
H10 H 0.4543 0.8483 0.5206
H14 H 0.493(3) 0.629(4) 0.478(3)
loop_
_geom_bond_atom_site_label_1
_geom_bond_atom_site_label_2
_geom_bond_site_symmetry_1
_geom_bond_site_symmetry_2
Cu1 O1 1_555 1_555
Cl1 O3 1_555 1_555
O1 C3 1_555 1_555
O2 Cu1 1_555 1_555
C1 H1 1_555 1_555
C2 H2 1_555 1_555
H3 C2 1_555 1_555
H4 C2 1_555 1_555
C3 C1 1_555 1_555
O4 Cl1 1_555 1_555
O5 Cl1 1_555 1_555
O6 Cl1 1_555 1_555
N1 C3 1_555 1_555
N2 C4 1_555 1_555
N3 N1 1_555 1_555
N4 C4 1_555 1_555
C4 N1 1_555 1_555
C5 C1 1_555 1_555
C6 N2 1_555 1_555
H5 C6 1_555 1_555
O7 C9 1_555 1_555
N5 C8 1_555 1_555
N6 C8 1_555 1_555
C7 H6 1_555 1_555
C8 N7 1_555 1_555
N7 C10 1_555 1_555
N8 N5 1_555 1_555
C9 N5 1_555 1_555
C10 N8 1_555 1_555
H7 C10 1_555 1_555
C11 N6 1_555 1_555
C12 C11 1_555 1_555
H8 C12 1_555 1_555
H9 C12 1_555 1_555
H10 C12 1_555 1_555
H11 N4 1_555 1_555
H12 O2 1_555 1_555
H13 O2 1_555 1_555
H14 N6 1_555 1_555
Cu1A N2 1_555 1_555
Cu1A_2 N2B 1_555 1_555
O1B Cu1 1_555 1_555
O2B Cu1 1_555 1_555
C1B H1B 1_555 1_555
C2B H2B 1_555 1_555
H3B C2B 1_555 1_555
H4B C2B 1_555 1_555
C3B O1B 1_555 1_555
N1B C3B 1_555 1_555
N2B C4B 1_555 1_555
N2A Cu1 1_555 1_555
N2C Cu1 1_555 1_555
N3B N1B 1_555 1_555
N4B C4B 1_555 1_555
C4B N1B 1_555 1_555
C5B C1B 1_555 1_555
C6B N2B 1_555 1_555
H5B C6B 1_555 1_555
H11B N4B 1_555 1_555
H12B O2B 1_555 1_555
H13B O2B 1_555 1_555
C2 C5 1_555 1_555
N3 C6 1_555 1_555
N4 C5 1_555 1_555
C7 C9 1_555 1_555
C7 C11 1_555 1_555
C1B C3B 1_555 1_555
C2B C5B 1_555 1_555
N3B C6B 1_555 1_555
N4B C5B 1_555 1_555

#END
