
#######################################################################
#
#                 Cambridge Crystallographic Data Centre
#                                CCDC 
#
#######################################################################
#
# If this CIF has been generated from an entry in the Cambridge 
# Structural Database, then it will include bibliographic, chemical, 
# crystal, experimental, refinement or atomic coordinate data resulting 
# from the CCDC's data processing and validation procedures.
#
#######################################################################

data_ESODOG
_symmetry_cell_setting           triclinic
_symmetry_space_group_name_H-M   'P -1'
_symmetry_Int_Tables_number      2
_space_group_name_Hall           '-P 1'
loop_
_symmetry_equiv_pos_site_id
_symmetry_equiv_pos_as_xyz
1 x,y,z
2 -x,-y,-z
_cell_length_a                   9.0999(6)
_cell_length_b                   11.2847(7)
_cell_length_c                   13.1473(9)
_cell_angle_alpha                99.8190(10)
_cell_angle_beta                 109.7840(10)
_cell_angle_gamma                94.5750(10)
_cell_volume                     1237.95
loop_
_atom_site_label
_atom_site_type_symbol
_atom_site_fract_x
_atom_site_fract_y
_atom_site_fract_z
Cd1 Cd 0.98756(2) 0.121890(18) 0.287800(17)
Cd2 Cd 0.00000 0.00000 0.00000
S1 S 0.79792(8) -0.06497(6) 0.27376(6)
P1 P 0.62639(8) -0.01095(6) 0.32520(6)
Cl1 Cl 0.12135(8) -0.04985(6) 0.19184(6)
Cl2 Cl -0.11060(8) 0.18042(6) 0.09939(6)
Cl3 Cl 1.25331(9) 0.21069(7) 0.41783(6)
N1 N 0.8740(3) 0.2766(2) 0.3727(2)
C1 C 0.8585(4) 0.3779(3) 0.3315(3)
H1 H 0.8868 0.3812 0.2687
C2 C 0.8039(4) 0.4772(3) 0.3753(3)
H2 H 0.7945 0.5469 0.3434
C3 C 0.7633(4) 0.4729(3) 0.4669(3)
H3 H 0.7249 0.5396 0.4991
C4 C 0.7794(4) 0.3701(3) 0.5107(3)
H4 H 0.7521 0.3657 0.5737
C5 C 0.8354(3) 0.2725(3) 0.4630(2)
C6 C 0.8507(4) 0.1593(3) 0.5090(2)
H5 H 0.8887 0.183 0.5907
H6 H 0.9318 0.1177 0.4889
C7 C 0.6971(3) 0.0689(3) 0.4687(2)
H7 H 0.6132 0.1136 0.4808
H8 H 0.713 0.0076 0.5156
C8 C 0.4963(3) -0.1450(2) 0.3169(2)
H9 H 0.5502 -0.1849 0.378
H10 H 0.4007 -0.1191 0.3286
C9 C 0.4447(4) -0.2384(3) 0.2081(2)
H11 H 0.3742 -0.2043 0.1483
H12 H 0.5388 -0.2554 0.1896
C10 C 0.3597(3) -0.3553(2) 0.2145(2)
N2 N 0.4481(3) -0.4248(2) 0.2766(2)
C11 C 0.3741(4) -0.5292(3) 0.2829(3)
H13 H 0.4354 -0.5789 0.3269
C12 C 0.2164(4) -0.5687(3) 0.2301(3)
H14 H 0.1691 -0.6432 0.2377
C13 C 0.1281(4) -0.4976(3) 0.1658(3)
H15 H 0.0182 -0.5228 0.1267
C14 C 0.2009(4) -0.3894(3) 0.1588(3)
H16 H 0.1412 -0.3384 0.1154
C15 C 0.5120(3) 0.0902(2) 0.2483(2)
H17 H 0.4227 0.1033 0.2738
H18 H 0.5794 0.1698 0.2668
C16 C 0.4454(3) 0.0471(2) 0.1224(2)
H19 H 0.5291 0.0179 0.0966
H20 H 0.3584 -0.0213 0.101
C17 C 0.3848(3) 0.1503(2) 0.0686(2)
N3 N 0.2281(3) 0.1527(2) 0.02692(19)
C18 C 0.1814(4) 0.2487(3) -0.0166(3)
H21 H 0.0713 0.2515 -0.0467
C19 C 0.2832(4) 0.3436(3) -0.0204(3)
H22 H 0.2439 0.4096 -0.0518
C20 C 0.4427(4) 0.3407(3) 0.0222(3)
H23 H 0.5162 0.4047 0.0212
C21 C 0.4933(4) 0.2428(3) 0.0665(3)
H24 H 0.603 0.2383 0.0957
Cd1A Cd -0.98756(2) -0.121890(18) -0.287800(17)
Cd1_2 Cd -0.01244(2) 0.121890(18) 0.287800(17)
Cd1A_2 Cd 0.01244(2) -0.121890(18) -0.287800(17)
S1A S -0.79792(8) 0.06497(6) -0.27376(6)
P1A P -0.62639(8) 0.01095(6) -0.32520(6)
Cl1A Cl -0.12135(8) 0.04985(6) -0.19184(6)
Cl1_2 Cl 1.12135(8) -0.04985(6) 0.19184(6)
Cl1A_2 Cl -1.12135(8) 0.04985(6) -0.19184(6)
Cl2A Cl 0.11060(8) -0.18042(6) -0.09939(6)
Cl2_2 Cl 0.88940(8) 0.18042(6) 0.09939(6)
Cl2A_2 Cl -0.88940(8) -0.18042(6) -0.09939(6)
Cl3A Cl -1.25331(9) -0.21069(7) -0.41783(6)
N1A N -0.8740(3) -0.2766(2) -0.3727(2)
C1A C -0.8585(4) -0.3779(3) -0.3315(3)
H1A H -0.8868 -0.3812 -0.2687
C2A C -0.8039(4) -0.4772(3) -0.3753(3)
H2A H -0.7945 -0.5469 -0.3434
C3A C -0.7633(4) -0.4729(3) -0.4669(3)
H3A H -0.7249 -0.5396 -0.4991
C4A C -0.7794(4) -0.3701(3) -0.5107(3)
H4A H -0.7521 -0.3657 -0.5737
C5A C -0.8354(3) -0.2725(3) -0.4630(2)
C6A C -0.8507(4) -0.1593(3) -0.5090(2)
H5A H -0.8887 -0.183 -0.5907
H6A H -0.9318 -0.1177 -0.4889
C7A C -0.6971(3) -0.0689(3) -0.4687(2)
H7A H -0.6132 -0.1136 -0.4808
H8A H -0.713 -0.0076 -0.5156
C8A C -0.4963(3) 0.1450(2) -0.3169(2)
H9A H -0.5502 0.1849 -0.378
H10A H -0.4007 0.1191 -0.3286
C9A C -0.4447(4) 0.2384(3) -0.2081(2)
H11A H -0.3742 0.2043 -0.1483
H12A H -0.5388 0.2554 -0.1896
C10A C -0.3597(3) 0.3553(2) -0.2145(2)
N2A N -0.4481(3) 0.4248(2) -0.2766(2)
C11A C -0.3741(4) 0.5292(3) -0.2829(3)
H13A H -0.4354 0.5789 -0.3269
C12A C -0.2164(4) 0.5687(3) -0.2301(3)
H14A H -0.1691 0.6432 -0.2377
C13A C -0.1281(4) 0.4976(3) -0.1658(3)
H15A H -0.0182 0.5228 -0.1267
C14A C -0.2009(4) 0.3894(3) -0.1588(3)
H16A H -0.1412 0.3384 -0.1154
C15A C -0.5120(3) -0.0902(2) -0.2483(2)
H17A H -0.4227 -0.1033 -0.2738
H18A H -0.5794 -0.1698 -0.2668
C16A C -0.4454(3) -0.0471(2) -0.1224(2)
H19A H -0.5291 -0.0179 -0.0966
H20A H -0.3584 0.0213 -0.101
C17A C -0.3848(3) -0.1503(2) -0.0686(2)
N3A N -0.2281(3) -0.1527(2) -0.02692(19)
C18A C -0.1814(4) -0.2487(3) 0.0166(3)
H21A H -0.0713 -0.2515 0.0467
C19A C -0.2832(4) -0.3436(3) 0.0204(3)
H22A H -0.2439 -0.4096 0.0518
C20A C -0.4427(4) -0.3407(3) -0.0222(3)
H23A H -0.5162 -0.4047 -0.0212
C21A C -0.4933(4) -0.2428(3) -0.0665(3)
H24A H -0.603 -0.2383 -0.0957
loop_
_geom_bond_atom_site_label_1
_geom_bond_atom_site_label_2
_geom_bond_site_symmetry_1
_geom_bond_site_symmetry_2
Cd1 S1 1_555 1_555
Cd2 Cl1 1_555 1_555
S1 P1 1_555 1_555
P1 C7 1_555 1_555
Cl1 Cd1_2 1_555 1_555
Cl2 Cd2 1_555 1_555
Cl3 Cd1 1_555 1_555
N1 Cd1 1_555 1_555
C1 N1 1_555 1_555
H1 C1 1_555 1_555
C2 C1 1_555 1_555
H2 C2 1_555 1_555
C3 C2 1_555 1_555
H3 C3 1_555 1_555
C4 C3 1_555 1_555
H4 C4 1_555 1_555
C5 N1 1_555 1_555
C6 C5 1_555 1_555
H5 C6 1_555 1_555
H6 C6 1_555 1_555
C7 C6 1_555 1_555
H7 C7 1_555 1_555
H8 C7 1_555 1_555
C8 P1 1_555 1_555
H9 C8 1_555 1_555
H10 C8 1_555 1_555
C9 C8 1_555 1_555
H11 C9 1_555 1_555
H12 C9 1_555 1_555
C10 C9 1_555 1_555
N2 C10 1_555 1_555
C11 N2 1_555 1_555
H13 C11 1_555 1_555
C12 C11 1_555 1_555
H14 C12 1_555 1_555
C13 C12 1_555 1_555
H15 C13 1_555 1_555
C14 C10 1_555 1_555
H16 C14 1_555 1_555
C15 P1 1_555 1_555
H17 C15 1_555 1_555
H18 C15 1_555 1_555
C16 C15 1_555 1_555
H19 C16 1_555 1_555
H20 C16 1_555 1_555
C17 C16 1_555 1_555
N3 Cd2 1_555 1_555
C18 N3 1_555 1_555
H21 C18 1_555 1_555
C19 C18 1_555 1_555
H22 C19 1_555 1_555
C20 C19 1_555 1_555
H23 C20 1_555 1_555
C21 C17 1_555 1_555
H24 C21 1_555 1_555
Cd1A S1A 1_555 1_555
Cd1_2 Cl2 1_555 1_555
Cd1A_2 Cl1A 1_555 1_555
S1A P1A 1_555 1_555
P1A C7A 1_555 1_555
Cl1A Cd2 1_555 1_555
Cl1_2 Cd1 1_555 1_555
Cl1A_2 Cd1A 1_555 1_555
Cl2A Cd2 1_555 1_555
Cl2_2 Cd1 1_555 1_555
Cl2A_2 Cd1A 1_555 1_555
Cl3A Cd1A 1_555 1_555
N1A Cd1A 1_555 1_555
C1A N1A 1_555 1_555
H1A C1A 1_555 1_555
C2A C1A 1_555 1_555
H2A C2A 1_555 1_555
C3A C2A 1_555 1_555
H3A C3A 1_555 1_555
C4A C3A 1_555 1_555
H4A C4A 1_555 1_555
C5A N1A 1_555 1_555
C6A C5A 1_555 1_555
H5A C6A 1_555 1_555
H6A C6A 1_555 1_555
C7A C6A 1_555 1_555
H7A C7A 1_555 1_555
H8A C7A 1_555 1_555
C8A P1A 1_555 1_555
H9A C8A 1_555 1_555
H10A C8A 1_555 1_555
C9A C8A 1_555 1_555
H11A C9A 1_555 1_555
H12A C9A 1_555 1_555
C10A C9A 1_555 1_555
N2A C10A 1_555 1_555
C11A N2A 1_555 1_555
H13A C11A 1_555 1_555
C12A C11A 1_555 1_555
H14A C12A 1_555 1_555
C13A C12A 1_555 1_555
H15A C13A 1_555 1_555
C14A C10A 1_555 1_555
H16A C14A 1_555 1_555
C15A P1A 1_555 1_555
H17A C15A 1_555 1_555
H18A C15A 1_555 1_555
C16A C15A 1_555 1_555
H19A C16A 1_555 1_555
H20A C16A 1_555 1_555
C17A C16A 1_555 1_555
N3A Cd2 1_555 1_555
C18A N3A 1_555 1_555
H21A C18A 1_555 1_555
C19A C18A 1_555 1_555
H22A C19A 1_555 1_555
C20A C19A 1_555 1_555
H23A C20A 1_555 1_555
C21A C17A 1_555 1_555
H24A C21A 1_555 1_555
C4 C5 1_555 1_555
C13 C14 1_555 1_555
C17 N3 1_555 1_555
C20 C21 1_555 1_555
Cd1A_2 Cl2A 1_555 1_555
C4A C5A 1_555 1_555
C13A C14A 1_555 1_555
C17A N3A 1_555 1_555
C20A C21A 1_555 1_555

#END
