
#######################################################################
#
#                 Cambridge Crystallographic Data Centre
#                                CCDC 
#
#######################################################################
#
# If this CIF has been generated from an entry in the Cambridge 
# Structural Database, then it will include bibliographic, chemical, 
# crystal, experimental, refinement or atomic coordinate data resulting 
# from the CCDC's data processing and validation procedures.
#
#######################################################################

data_ESODUM
_symmetry_cell_setting           triclinic
_symmetry_space_group_name_H-M   'P -1'
_symmetry_Int_Tables_number      2
_space_group_name_Hall           '-P 1'
loop_
_symmetry_equiv_pos_site_id
_symmetry_equiv_pos_as_xyz
1 x,y,z
2 -x,-y,-z
_cell_length_a                   9.2141(8)
_cell_length_b                   11.2748(9)
_cell_length_c                   13.3476(11)
_cell_angle_alpha                76.3830(10)
_cell_angle_beta                 69.9920(10)
_cell_angle_gamma                86.1580(10)
_cell_volume                     1266.19
loop_
_atom_site_label
_atom_site_type_symbol
_atom_site_fract_x
_atom_site_fract_y
_atom_site_fract_z
Cd1 Cd 0.30130(4) 0.12009(4) -0.28773(3)
Cd2 Cd 0.00000 0.00000 0.00000
Se1 Se 0.46715(6) -0.07899(5) -0.26725(4)
Cl1 Cl 0.16597(17) 0.20622(13) -0.41782(11)
Cl2 Cl 0.06708(14) -0.05413(12) -0.18698(10)
Cl3 Cl 0.21336(15) 0.18035(12) -0.10258(10)
P1 P 0.70313(14) -0.01453(12) -0.32319(10)
N1 N 0.5012(5) 0.2761(4) -0.3727(4)
C1 C 0.4763(7) 0.3778(5) -0.3333(5)
H1 H 0.3858 0.3811 -0.2725
C2 C 0.5760(8) 0.4783(5) -0.3770(5)
H2 H 0.5547 0.5481 -0.3463
C3 C 0.7054(8) 0.4742(6) -0.4652(6)
H3 H 0.7753 0.5418 -0.4974
C4 C 0.6283(7) 0.2719(5) -0.4595(5)
C5 C 0.7338(7) 0.3698(5) -0.5074(5)
H4 H 0.8239 0.3651 -0.5681
C6 C 0.6596(7) 0.1592(5) -0.5060(4)
H5 H 0.702 0.1849 -0.5868
H6 H 0.5604 0.1158 -0.4865
C7 C 0.7726(6) 0.0695(5) -0.4660(4)
H7 H 0.8669 0.1158 -0.4779
H8 H 0.8032 0.0094 -0.5127
C8 C 0.8260(6) -0.1468(5) -0.3173(4)
H9 H 0.8303 -0.1862 -0.3772
H10 H 0.9319 -0.1188 -0.3308
C9 C 0.7737(7) -0.2434(5) -0.2080(5)
H11 H 0.7878 -0.21 -0.1497
H12 H 0.6625 -0.2624 -0.1874
C10 C 0.8648(6) -0.3588(5) -0.2170(4)
N2 N 0.8319(6) -0.4298(5) -0.2747(4)
C11 C 0.9123(8) -0.5338(6) -0.2835(5)
H13 H 0.8894 -0.5845 -0.3239
C12 C 1.0239(8) -0.5703(6) -0.2382(6)
H14 H 1.0773 -0.6442 -0.2471
C13 C 1.0578(9) -0.4982(6) -0.1794(7)
H15 H 1.1351 -0.5213 -0.1465
C14 C 0.9769(8) -0.3903(6) -0.1688(6)
H16 H 0.9988 -0.3387 -0.1287
C15 C 0.7393(6) 0.0873(5) -0.2460(4)
H17 H 0.8522 0.1011 -0.2699
H18 H 0.6924 0.167 -0.266
C16 C 0.6792(6) 0.0445(5) -0.1215(4)
H19 H 0.5709 0.0152 -0.0966
H20 H 0.7421 -0.0241 -0.0982
C17 C 0.6878(6) 0.1486(5) -0.0707(4)
N3 N 0.8067(5) 0.1537(4) -0.0334(3)
C18 C 0.8134(6) 0.2530(5) 0.0060(4)
H21 H 0.8958 0.2582 0.0323
C19 C 0.7097(7) 0.3462(5) 0.0106(5)
H22 H 0.7219 0.4144 0.0374
C20 C 0.5862(7) 0.3386(5) -0.0250(5)
H23 H 0.5105 0.4004 -0.0214
C21 C 0.5765(6) 0.2386(5) -0.0658(5)
H24 H 0.4932 0.2313 -0.0907
Cd1A Cd -0.30130(4) -0.12009(4) 0.28773(3)
Cd2_2 Cd -1.00000 0.00000 0.00000
Cd2_3 Cd 1.00000 0.00000 0.00000
Se1A Se -0.46715(6) 0.07899(5) 0.26725(4)
Cl1A Cl -0.16597(17) -0.20622(13) 0.41782(11)
Cl2A Cl -0.06708(14) 0.05413(12) 0.18698(10)
Cl3A Cl -0.21336(15) -0.18035(12) 0.10258(10)
P1A P -0.70313(14) 0.01453(12) 0.32319(10)
N1A N -0.5012(5) -0.2761(4) 0.3727(4)
C1A C -0.4763(7) -0.3778(5) 0.3333(5)
H1A H -0.3858 -0.3811 0.2725
C2A C -0.5760(8) -0.4783(5) 0.3770(5)
H2A H -0.5547 -0.5481 0.3463
C3A C -0.7054(8) -0.4742(6) 0.4652(6)
H3A H -0.7753 -0.5418 0.4974
C4A C -0.6283(7) -0.2719(5) 0.4595(5)
C5A C -0.7338(7) -0.3698(5) 0.5074(5)
H4A H -0.8239 -0.3651 0.5681
C6A C -0.6596(7) -0.1592(5) 0.5060(4)
H5A H -0.702 -0.1849 0.5868
H6A H -0.5604 -0.1158 0.4865
C7A C -0.7726(6) -0.0695(5) 0.4660(4)
H7A H -0.8669 -0.1158 0.4779
H8A H -0.8032 -0.0094 0.5127
C8A C -0.8260(6) 0.1468(5) 0.3173(4)
H9A H -0.8303 0.1862 0.3772
H10A H -0.9319 0.1188 0.3308
C9A C -0.7737(7) 0.2434(5) 0.2080(5)
H11A H -0.7878 0.21 0.1497
H12A H -0.6625 0.2624 0.1874
C10A C -0.8648(6) 0.3588(5) 0.2170(4)
N2A N -0.8319(6) 0.4298(5) 0.2747(4)
C11A C -0.9123(8) 0.5338(6) 0.2835(5)
H13A H -0.8894 0.5845 0.3239
C12A C -1.0239(8) 0.5703(6) 0.2382(6)
H14A H -1.0773 0.6442 0.2471
C13A C -1.0578(9) 0.4982(6) 0.1794(7)
H15A H -1.1351 0.5213 0.1465
C14A C -0.9769(8) 0.3903(6) 0.1688(6)
H16A H -0.9988 0.3387 0.1287
C15A C -0.7393(6) -0.0873(5) 0.2460(4)
H17A H -0.8522 -0.1011 0.2699
H18A H -0.6924 -0.167 0.266
C16A C -0.6792(6) -0.0445(5) 0.1215(4)
H19A H -0.5709 -0.0152 0.0966
H20A H -0.7421 0.0241 0.0982
C17A C -0.6878(6) -0.1486(5) 0.0707(4)
N3A N -0.8067(5) -0.1537(4) 0.0334(3)
N3_2 N -0.1933(5) 0.1537(4) -0.0334(3)
N3A_2 N 0.1933(5) -0.1537(4) 0.0334(3)
C18A C -0.8134(6) -0.2530(5) -0.0060(4)
H21A H -0.8958 -0.2582 -0.0323
C19A C -0.7097(7) -0.3462(5) -0.0106(5)
H22A H -0.7219 -0.4144 -0.0374
C20A C -0.5862(7) -0.3386(5) 0.0250(5)
H23A H -0.5105 -0.4004 0.0214
C21A C -0.5765(6) -0.2386(5) 0.0658(5)
H24A H -0.4932 -0.2313 0.0907
loop_
_geom_bond_atom_site_label_1
_geom_bond_atom_site_label_2
_geom_bond_site_symmetry_1
_geom_bond_site_symmetry_2
Cd1 Se1 1_555 1_555
Cd2 Cl2 1_555 1_555
Se1 P1 1_555 1_555
Cl1 Cd1 1_555 1_555
Cl2 Cd1 1_555 1_555
Cl3 Cd1 1_555 1_555
P1 C7 1_555 1_555
N1 Cd1 1_555 1_555
C1 N1 1_555 1_555
H1 C1 1_555 1_555
C2 C1 1_555 1_555
H2 C2 1_555 1_555
C3 C2 1_555 1_555
H3 C3 1_555 1_555
C4 N1 1_555 1_555
C5 C3 1_555 1_555
H4 C5 1_555 1_555
C6 C4 1_555 1_555
H5 C6 1_555 1_555
H6 C6 1_555 1_555
C7 C6 1_555 1_555
H7 C7 1_555 1_555
H8 C7 1_555 1_555
C8 P1 1_555 1_555
H9 C8 1_555 1_555
H10 C8 1_555 1_555
C9 C8 1_555 1_555
H11 C9 1_555 1_555
H12 C9 1_555 1_555
C10 C9 1_555 1_555
N2 C10 1_555 1_555
C11 N2 1_555 1_555
H13 C11 1_555 1_555
C12 C11 1_555 1_555
H14 C12 1_555 1_555
C13 C12 1_555 1_555
H15 C13 1_555 1_555
C14 C10 1_555 1_555
H16 C14 1_555 1_555
C15 P1 1_555 1_555
H17 C15 1_555 1_555
H18 C15 1_555 1_555
C16 C15 1_555 1_555
H19 C16 1_555 1_555
H20 C16 1_555 1_555
C17 C16 1_555 1_555
N3 C17 1_555 1_555
C18 N3 1_555 1_555
H21 C18 1_555 1_555
C19 C18 1_555 1_555
H22 C19 1_555 1_555
C20 C19 1_555 1_555
H23 C20 1_555 1_555
C21 C17 1_555 1_555
H24 C21 1_555 1_555
Cd1A Se1A 1_555 1_555
Cd2_2 N3A 1_555 1_555
Cd2_3 N3 1_555 1_555
Se1A P1A 1_555 1_555
Cl1A Cd1A 1_555 1_555
Cl2A Cd2 1_555 1_555
Cl3A Cd2 1_555 1_555
P1A C7A 1_555 1_555
N1A Cd1A 1_555 1_555
C1A N1A 1_555 1_555
H1A C1A 1_555 1_555
C2A C1A 1_555 1_555
H2A C2A 1_555 1_555
C3A C2A 1_555 1_555
H3A C3A 1_555 1_555
C4A N1A 1_555 1_555
C5A C3A 1_555 1_555
H4A C5A 1_555 1_555
C6A C4A 1_555 1_555
H5A C6A 1_555 1_555
H6A C6A 1_555 1_555
C7A C6A 1_555 1_555
H7A C7A 1_555 1_555
H8A C7A 1_555 1_555
C8A P1A 1_555 1_555
H9A C8A 1_555 1_555
H10A C8A 1_555 1_555
C9A C8A 1_555 1_555
H11A C9A 1_555 1_555
H12A C9A 1_555 1_555
C10A C9A 1_555 1_555
N2A C10A 1_555 1_555
C11A N2A 1_555 1_555
H13A C11A 1_555 1_555
C12A C11A 1_555 1_555
H14A C12A 1_555 1_555
C13A C12A 1_555 1_555
H15A C13A 1_555 1_555
C14A C10A 1_555 1_555
H16A C14A 1_555 1_555
C15A P1A 1_555 1_555
H17A C15A 1_555 1_555
H18A C15A 1_555 1_555
C16A C15A 1_555 1_555
H19A C16A 1_555 1_555
H20A C16A 1_555 1_555
C17A C16A 1_555 1_555
N3A C17A 1_555 1_555
N3_2 Cd2 1_555 1_555
N3A_2 Cd2 1_555 1_555
C18A N3A 1_555 1_555
H21A C18A 1_555 1_555
C19A C18A 1_555 1_555
H22A C19A 1_555 1_555
C20A C19A 1_555 1_555
H23A C20A 1_555 1_555
C21A C17A 1_555 1_555
H24A C21A 1_555 1_555
Cd2 Cl3 1_555 1_555
C4 C5 1_555 1_555
C13 C14 1_555 1_555
C20 C21 1_555 1_555
Cd1A Cl2A 1_555 1_555
Cd1A Cl3A 1_555 1_555
C4A C5A 1_555 1_555
C13A C14A 1_555 1_555
C20A C21A 1_555 1_555

#END
