
#######################################################################
#
#                 Cambridge Crystallographic Data Centre
#                                CCDC 
#
#######################################################################
#
# If this CIF has been generated from an entry in the Cambridge 
# Structural Database, then it will include bibliographic, chemical, 
# crystal, experimental, refinement or atomic coordinate data resulting 
# from the CCDC's data processing and validation procedures.
#
#######################################################################

data_ESOHOJ
_symmetry_cell_setting           monoclinic
_symmetry_space_group_name_H-M   'P 21/c'
_symmetry_Int_Tables_number      14
_space_group_name_Hall           '-P 2ybc'
loop_
_symmetry_equiv_pos_site_id
_symmetry_equiv_pos_as_xyz
1 x,y,z
2 x,1/2-y,1/2+z
3 -x,-y,-z
4 -x,1/2+y,1/2-z
_cell_length_a                   10.2507(5)
_cell_length_b                   27.026(1)
_cell_length_c                   9.4169(5)
_cell_angle_alpha                90
_cell_angle_beta                 107.001(1)
_cell_angle_gamma                90
_cell_volume                     2494.81
loop_
_atom_site_label
_atom_site_type_symbol
_atom_site_fract_x
_atom_site_fract_y
_atom_site_fract_z
Ba1 Ba 0.00428(3) 0.443027(11) 0.19986(3)
Ti1 Ti 0.27817(8) 0.43203(3) -0.00852(9)
Ti2 Ti 0.56639(8) 0.37890(3) 0.02729(9)
O1 O 0.3654(3) 0.36872(11) -0.0586(4)
O2 O 0.1414(3) 0.40590(12) -0.1996(4)
O3 O 0.0593(4) 0.33862(15) -0.3284(4)
O4 O 0.2011(3) 0.38396(12) 0.1105(4)
O5 O 0.1103(6) 0.31710(17) 0.1746(6)
O6 O 0.4516(5) 0.28868(16) -0.3830(5)
H1 H 0.473(11) 0.304(3) -0.429(11)
O7 O 0.3386(5) 0.35881(15) -0.3866(4)
O8 O 0.2435(3) 0.48346(12) 0.1089(4)
O9 O 0.1296(3) 0.47485(12) -0.0243(4)
O10 O -0.5287(3) 0.43188(11) 0.1224(3)
O11 O -0.2766(3) 0.42197(13) 0.1524(4)
O12 O -0.2041(4) 0.46144(14) 0.3661(4)
O13 O -0.4277(4) 0.34398(13) 0.2181(4)
O14 O -0.4300(7) 0.32459(18) 0.4392(6)
O15 O -0.3579(3) 0.53100(12) 0.1476(4)
O16 O -0.5523(3) 0.56962(12) 0.1392(4)
O17 O 0.5916(5) 0.32192(17) -0.0687(6)
O18 O 0.7150(5) 0.34348(17) 0.0070(6)
C1 C 0.2690(5) 0.33250(16) -0.1276(5)
C2 C 0.1464(5) 0.35991(18) -0.2289(5)
C3 C 0.2242(6) 0.30567(18) -0.0056(6)
H2 H 0.1525 0.2825 -0.0532
H3 H 0.3010 0.2864 0.0532
C4 C 0.1737(5) 0.33734(19) 0.0985(6)
C5 C 0.3237(5) 0.29498(17) -0.2154(6)
H4 H 0.3998 0.2775 -0.1484
H5 H 0.2530 0.2709 -0.2586
C6 C 0.3703(5) 0.31842(19) -0.3369(5)
C7 C -0.4480(4) 0.44706(16) 0.2644(5)
C8 C -0.2985(5) 0.44450(17) 0.2625(5)
C9 C -0.4689(6) 0.40946(18) 0.3778(5)
H6 H -0.4087 0.4179 0.4750
H7 H -0.5620 0.4121 0.3824
C10 C -0.4421(6) 0.3558(2) 0.3433(6)
C11 C -0.4846(5) 0.49957(17) 0.2993(5)
H8 H -0.5788 0.5003 0.3007
H9 H -0.4275 0.5090 0.3970
C12 C -0.4655(5) 0.53639(17) 0.1852(5)
O19 O 0.0714(5) 0.53497(16) 0.3271(5)
O20 O 0.1940(5) 0.44240(16) 0.4783(5)
O21 O -0.0281(6) 0.3571(2) 0.3583(6)
O22 O -0.1116(5) 0.4039(2) -0.0782(5)
H14 H 0.004(4) 0.5549(19) 0.298(6)
H15 H 0.115(6) 0.542(2) 0.416(3)
H16 H 0.188(7) 0.4637(15) 0.542(5)
H17 H 0.217(7) 0.4146(10) 0.520(5)
H18 H 0.035(5) 0.342(2) 0.336(6)
H19 H -0.011(6) 0.358(3) 0.4522(15)
H20 H -0.183(4) 0.387(2) -0.102(6)
H21 H -0.104(6) 0.420(2) -0.153(4)
O9B O -0.1296(3) 0.52515(12) 0.0243(4)
O10_2 O 0.4713(3) 0.43188(11) 0.1224(3)
O15B O 0.3579(3) 0.46900(12) -0.1476(4)
O11_2 O 0.7234(3) 0.42197(13) 0.1524(4)
O13_2 O 0.5723(4) 0.34398(13) 0.2181(4)
O16B O 0.5523(3) 0.43038(12) -0.1392(4)
Ba1B Ba -0.00428(3) 0.556973(11) -0.19986(3)
Ti1_2 Ti -0.72183(8) 0.43203(3) -0.00852(9)
Ti2_2 Ti -0.43361(8) 0.37890(3) 0.02729(9)
Ti1B Ti -0.27817(8) 0.56797(3) 0.00852(9)
Ti2B Ti -0.56639(8) 0.62110(3) -0.02729(9)
O23 O -0.0973(5) 0.24486(18) 0.0928(6)
H22 H -0.060(5) 0.2174(10) 0.127(7)
H23 H -0.041(5) 0.2682(13) 0.127(7)
N1 N 0.7294(5) 0.25397(18) 0.2881(6)
H10 H 0.684(4) 0.2273(10) 0.276(5)
H11 H 0.675(4) 0.2786(12) 0.273(5)
H12 H 0.776(4) 0.2550(18) 0.227(4)
H13 H 0.782(4) 0.2554(18) 0.376(2)
loop_
_geom_bond_atom_site_label_1
_geom_bond_atom_site_label_2
_geom_bond_site_symmetry_1
_geom_bond_site_symmetry_2
Ba1 O4 1_555 1_555
Ti1 O1 1_555 1_555
Ti2 O1 1_555 1_555
O1 C1 1_555 1_555
O2 Ti1 1_555 1_555
O3 C2 1_555 1_555
O4 Ti1 1_555 1_555
O5 C4 1_555 1_555
O6 H1 1_555 1_555
O7 C6 1_555 1_555
O8 Ba1 1_555 1_555
O9 Ba1 1_555 1_555
O10 C7 1_555 1_555
O11 Ba1 1_555 1_555
O12 Ba1 1_555 1_555
O13 C10 1_555 1_555
O14 C10 1_555 1_555
O15 C12 1_555 1_555
O16 C12 1_555 1_555
O17 Ti2 1_555 1_555
O18 Ti2 1_555 1_555
C1 C2 1_555 1_555
C2 O2 1_555 1_555
C3 C1 1_555 1_555
H2 C3 1_555 1_555
H3 C3 1_555 1_555
C4 O4 1_555 1_555
C5 C1 1_555 1_555
H4 C5 1_555 1_555
H5 C5 1_555 1_555
C6 O6 1_555 1_555
C7 C8 1_555 1_555
C8 O11 1_555 1_555
C9 C7 1_555 1_555
H6 C9 1_555 1_555
H7 C9 1_555 1_555
C10 C9 1_555 1_555
C11 C7 1_555 1_555
H8 C11 1_555 1_555
H9 C11 1_555 1_555
C12 C11 1_555 1_555
O19 Ba1 1_555 1_555
O20 Ba1 1_555 1_555
O21 Ba1 1_555 1_555
O22 Ba1 1_555 1_555
O23 H22 1_555 1_555
N1 H10 1_555 1_555
H11 N1 1_555 1_555
H12 N1 1_555 1_555
H13 N1 1_555 1_555
H14 O19 1_555 1_555
H15 O19 1_555 1_555
H16 O20 1_555 1_555
H17 O20 1_555 1_555
H18 O21 1_555 1_555
H19 O21 1_555 1_555
H20 O22 1_555 1_555
H21 O22 1_555 1_555
H23 O23 1_555 1_555
O9B Ba1 1_555 1_555
O10_2 Ti1 1_555 1_555
O15B Ti1 1_555 1_555
O11_2 Ti2 1_555 1_555
O13_2 Ti2 1_555 1_555
O16B Ti2 1_555 1_555
Ba1B O9 1_555 1_555
Ti1_2 O10 1_555 1_555
Ti2_2 O10 1_555 1_555
Ti1B O15 1_555 1_555
Ti2B O16 1_555 1_555
Ti1 O8 1_555 1_555
Ti1 O9 1_555 1_555
Ti2 O10_2 1_555 1_555
O8 O9 1_555 1_555
O11 Ti2_2 1_555 1_555
O12 C8 1_555 1_555
O13 Ti2_2 1_555 1_555
O17 O18 1_555 1_555
C3 C4 1_555 1_555
C5 C6 1_555 1_555
O9B Ba1B 1_555 1_555
O9B Ti1B 1_555 1_555

#END
