
#######################################################################
#
#                 Cambridge Crystallographic Data Centre
#                                CCDC 
#
#######################################################################
#
# If this CIF has been generated from an entry in the Cambridge 
# Structural Database, then it will include bibliographic, chemical, 
# crystal, experimental, refinement or atomic coordinate data resulting 
# from the CCDC's data processing and validation procedures.
#
#######################################################################

data_ESOHUP
_symmetry_cell_setting           orthorhombic
_symmetry_space_group_name_H-M   'P b c n'
_symmetry_Int_Tables_number      60
_space_group_name_Hall           '-P 2n 2ab'
loop_
_symmetry_equiv_pos_site_id
_symmetry_equiv_pos_as_xyz
1 x,y,z
2 1/2+x,1/2+y,1/2-z
3 x,-y,1/2+z
4 1/2-x,1/2+y,z
5 -x,-y,-z
6 1/2-x,1/2-y,1/2+z
7 -x,y,1/2-z
8 1/2+x,1/2-y,-z
_cell_length_a                   20.930(6)
_cell_length_b                   12.246(4)
_cell_length_c                   14.933(5)
_cell_angle_alpha                90
_cell_angle_beta                 90
_cell_angle_gamma                90
_cell_volume                     3827.46
loop_
_atom_site_label
_atom_site_type_symbol
_atom_site_fract_x
_atom_site_fract_y
_atom_site_fract_z
Cu1 Cu 0.37420(2) 0.61900(4) 0.03934(3)
Cl1 Cl 0.30832(5) 0.33614(10) 0.21397(9)
Cl2 Cl 0.31780(5) 0.08381(10) 0.24278(9)
Cl3 Cl 0.43658(6) -0.04300(9) 0.17179(8)
Cl4 Cl 0.55087(5) 0.08565(9) 0.08832(8)
O1 O 0.40836(13) 0.4683(2) 0.04304(18)
O2 O 0.42266(18) 0.5139(3) 0.1843(2)
O3 O 0.54118(12) 0.3204(2) -0.01337(19)
O4 O 0.57598(14) 0.3725(3) 0.1201(2)
C1 C 0.41960(19) 0.4454(3) 0.1243(3)
C2 C 0.42693(19) 0.3243(3) 0.1424(3)
C3 C 0.3766(2) 0.2666(3) 0.1819(3)
C4 C 0.37961(19) 0.1541(3) 0.1928(3)
C5 C 0.4333(2) 0.0969(3) 0.1629(3)
C6 C 0.48386(18) 0.1544(3) 0.1248(3)
C7 C 0.48079(18) 0.2676(3) 0.1142(3)
C8 C 0.53693(19) 0.3259(3) 0.0709(3)
N1 N 0.34057(17) 0.7667(3) 0.0557(3)
N2 N 0.31264(17) 0.9570(3) 0.0290(3)
N3 N 0.21155(18) 1.0547(3) 0.0402(3)
C9 C 0.3236(2) 0.8540(4) 0.0444(3)
C10 C 0.2570(2) 1.0035(4) 0.0375(3)
O3D O 0.45882(12) 0.6796(2) 0.01337(19)
N3C N 0.28845(18) 0.5547(3) 0.0402(3)
Cu1D Cu 0.62580(2) 0.38100(4) -0.03934(3)
Cu1C Cu 0.12580(2) 1.11900(4) 0.03934(3)
N4 N 0.59518(19) 0.6020(3) 0.1438(2)
H1 H 0.5856 0.5872 0.0863
H2 H 0.5792 0.5479 0.1778
C11 C 0.5645(2) 0.7060(4) 0.1696(3)
H3 H 0.5705 0.7183 0.2332
H4 H 0.5190 0.7016 0.1580
C12 C 0.5927(2) 0.8003(4) 0.1175(3)
H5 H 0.5824 0.7919 0.0546
H6 H 0.5738 0.8681 0.1382
C13 C 0.6637(2) 0.8058(4) 0.1285(4)
H7 H 0.6740 0.8223 0.1903
H8 H 0.6807 0.8640 0.0913
C14 C 0.6942(2) 0.6982(4) 0.1020(3)
H9 H 0.6879 0.6858 0.0385
H10 H 0.7398 0.7014 0.1133
C15 C 0.6655(2) 0.6049(4) 0.1543(3)
H11 H 0.6835 0.5365 0.1334
H12 H 0.6761 0.6129 0.2171
loop_
_geom_bond_atom_site_label_1
_geom_bond_atom_site_label_2
_geom_bond_site_symmetry_1
_geom_bond_site_symmetry_2
Cu1 O1 1_555 1_555
Cl1 C3 1_555 1_555
Cl2 C4 1_555 1_555
Cl3 C5 1_555 1_555
Cl4 C6 1_555 1_555
O1 C1 1_555 1_555
O2 C1 1_555 1_555
O3 C8 1_555 1_555
O4 C8 1_555 1_555
C1 C2 1_555 1_555
C2 C3 1_555 1_555
C3 C4 1_555 1_555
C4 C5 1_555 1_555
C5 C6 1_555 1_555
C6 C7 1_555 1_555
C7 C2 1_555 1_555
C8 C7 1_555 1_555
N1 Cu1 1_555 1_555
N2 C9 1_555 1_555
N3 C10 1_555 1_555
C9 N1 1_555 1_555
C10 N2 1_555 1_555
N4 H1 1_555 1_555
H2 N4 1_555 1_555
C11 N4 1_555 1_555
H3 C11 1_555 1_555
H4 C11 1_555 1_555
C12 C11 1_555 1_555
H5 C12 1_555 1_555
H6 C12 1_555 1_555
C13 C12 1_555 1_555
H7 C13 1_555 1_555
H8 C13 1_555 1_555
C14 C13 1_555 1_555
H9 C14 1_555 1_555
H10 C14 1_555 1_555
C15 N4 1_555 1_555
H11 C15 1_555 1_555
H12 C15 1_555 1_555
O3D Cu1 1_555 1_555
N3C Cu1 1_555 1_555
Cu1D O3 1_555 1_555
Cu1C N3 1_555 1_555
C14 C15 1_555 1_555

#END
