
#######################################################################
#
#                 Cambridge Crystallographic Data Centre
#                                CCDC 
#
#######################################################################
#
# If this CIF has been generated from an entry in the Cambridge 
# Structural Database, then it will include bibliographic, chemical, 
# crystal, experimental, refinement or atomic coordinate data resulting 
# from the CCDC's data processing and validation procedures.
#
#######################################################################

data_ESOJAX
_symmetry_cell_setting           monoclinic
_symmetry_space_group_name_H-M   'P 21/c'
_symmetry_Int_Tables_number      14
_space_group_name_Hall           '-P 2ybc'
loop_
_symmetry_equiv_pos_site_id
_symmetry_equiv_pos_as_xyz
1 x,y,z
2 x,1/2-y,1/2+z
3 -x,-y,-z
4 -x,1/2+y,1/2-z
_cell_length_a                   12.315(3)
_cell_length_b                   11.963(3)
_cell_length_c                   13.074(3)
_cell_angle_alpha                90
_cell_angle_beta                 114.167(4)
_cell_angle_gamma                90
_cell_volume                     1757.31
loop_
_atom_site_label
_atom_site_type_symbol
_atom_site_fract_x
_atom_site_fract_y
_atom_site_fract_z
Cu1 Cu 0.06751(3) 0.70162(3) 0.17206(3)
Cl1 Cl 0.35413(9) 0.71359(7) 0.54792(8)
Cl2 Cl 0.56649(8) 0.85678(8) 0.70618(8)
Cl3 Cl 0.55952(8) 1.11422(8) 0.68054(7)
Cl4 Cl 0.32603(9) 1.22990(7) 0.51441(8)
O1 O 0.17083(19) 0.79470(18) 0.29721(19)
O2 O 0.0536(2) 0.82724(19) 0.3860(2)
O3 O 0.1042(2) 1.1135(2) 0.2881(2)
O4 O 0.05368(19) 1.09916(18) 0.43033(18)
C1 C 0.2473(3) 0.9075(3) 0.4569(2)
C2 C 0.3483(3) 0.8575(3) 0.5354(3)
C3 C 0.4447(3) 0.9200(3) 0.6057(2)
C4 C 0.4395(3) 1.0351(3) 0.5963(2)
C5 C 0.3369(3) 1.0864(3) 0.5222(2)
C6 C 0.2386(3) 1.0233(2) 0.4540(2)
C7 C 0.1465(3) 0.8359(2) 0.3742(3)
C8 C 0.1242(3) 1.0828(3) 0.3825(3)
N1 N 0.1863(2) 0.5797(2) 0.2179(2)
N2 N 0.1593(3) 0.4750(2) 0.1794(2)
H1 H 0.0922 0.4553 0.1275
C9 C 0.2490(4) 0.4056(3) 0.2314(3)
H2 H 0.2497 0.3293 0.2185
C10 C 0.3389(4) 0.4659(3) 0.3065(3)
H3 H 0.4135 0.4401 0.3551
C11 C 0.2963(3) 0.5739(3) 0.2954(3)
H4 H 0.3393 0.6345 0.3370
N3 N -0.0218(2) 0.8290(2) 0.0818(2)
N4 N -0.0624(3) 0.8350(2) -0.0308(2)
H5 H -0.0443 0.7887 -0.0717
C12 C -0.0716(3) 0.9137(3) 0.1110(3)
H6 H -0.0598 0.9304 0.1843
C13 C -0.1433(3) 0.9740(3) 0.0183(3)
H7 H -0.1882 1.0369 0.0169
C14 C -0.1349(3) 0.9229(3) -0.0703(3)
H8 H -0.1726 0.9447 -0.1449
O4C O -0.05368(19) 0.59916(18) 0.06967(18)
Cu1C Cu -0.06751(3) 1.20162(3) 0.32794(3)
loop_
_geom_bond_atom_site_label_1
_geom_bond_atom_site_label_2
_geom_bond_site_symmetry_1
_geom_bond_site_symmetry_2
Cu1 O1 1_555 1_555
Cl1 C2 1_555 1_555
Cl2 C3 1_555 1_555
Cl3 C4 1_555 1_555
Cl4 C5 1_555 1_555
O1 C7 1_555 1_555
O2 C7 1_555 1_555
O3 C8 1_555 1_555
O4 C8 1_555 1_555
C1 C2 1_555 1_555
C2 C3 1_555 1_555
C3 C4 1_555 1_555
C4 C5 1_555 1_555
C5 C6 1_555 1_555
C6 C1 1_555 1_555
C7 C1 1_555 1_555
C8 C6 1_555 1_555
N1 Cu1 1_555 1_555
N2 N1 1_555 1_555
H1 N2 1_555 1_555
C9 N2 1_555 1_555
H2 C9 1_555 1_555
C10 C9 1_555 1_555
H3 C10 1_555 1_555
C11 N1 1_555 1_555
H4 C11 1_555 1_555
N3 Cu1 1_555 1_555
N4 N3 1_555 1_555
H5 N4 1_555 1_555
C12 N3 1_555 1_555
H6 C12 1_555 1_555
C13 C12 1_555 1_555
H7 C13 1_555 1_555
C14 N4 1_555 1_555
H8 C14 1_555 1_555
O4C Cu1 1_555 1_555
Cu1C O4 1_555 1_555
C10 C11 1_555 1_555
C13 C14 1_555 1_555

#END
