
#######################################################################
#
#                 Cambridge Crystallographic Data Centre
#                                CCDC 
#
#######################################################################
#
# If this CIF has been generated from an entry in the Cambridge 
# Structural Database, then it will include bibliographic, chemical, 
# crystal, experimental, refinement or atomic coordinate data resulting 
# from the CCDC's data processing and validation procedures.
#
#######################################################################

data_ESOKIG
_symmetry_cell_setting           triclinic
_symmetry_space_group_name_H-M   'P -1'
_symmetry_Int_Tables_number      2
_space_group_name_Hall           '-P 1'
loop_
_symmetry_equiv_pos_site_id
_symmetry_equiv_pos_as_xyz
1 x,y,z
2 -x,-y,-z
_cell_length_a                   8.1734(16)
_cell_length_b                   11.728(2)
_cell_length_c                   13.283(3)
_cell_angle_alpha                107.24(3)
_cell_angle_beta                 93.75(3)
_cell_angle_gamma                107.48(3)
_cell_volume                     1143.13
loop_
_atom_site_label
_atom_site_type_symbol
_atom_site_fract_x
_atom_site_fract_y
_atom_site_fract_z
Ce1 Ce -0.729678(18) 0.984222(13) 0.777474(12)
Ce2 Ce -0.235491(18) 0.986415(13) 0.729797(12)
O1 O -0.8199(3) 0.83620(19) 0.57714(17)
O2 O -0.5397(2) 0.91685(18) 0.63696(17)
O3 O -0.9619(3) 0.14720(18) 0.24678(17)
O4 O -0.7352(3) 0.24009(19) 0.37607(19)
O5 O -0.7653(3) 1.1754(2) 0.90909(19)
O6 O -1.0499(3) 1.0978(2) 0.90685(18)
O7 O -0.5817(3) 1.88610(18) 1.16001(17)
O8 O -0.7834(3) 1.7828(2) 1.2335(2)
O9 O -0.4183(3) 0.8595(2) 0.82404(18)
O10 O -0.7041(3) 0.7744(2) 0.7697(2)
O11 O -0.6614(3) 0.15621(19) 0.68837(18)
O12 O -0.9386(3) 0.07614(18) 0.69220(17)
O13 O -0.7028(3) 0.9686(2) 0.96279(19)
O14 O -0.2398(3) 0.9900(2) 0.53929(19)
C1 C -0.6706(4) 0.8306(3) 0.5707(2)
C2 C -0.6376(4) 0.7254(3) 0.4876(3)
H1 H -0.5499 0.7015 0.5210
H2 H -0.5889 0.7580 0.4331
C3 C -0.7937(4) 0.6065(3) 0.4329(3)
H3 H -0.8806 0.6015 0.4793
H4 H -0.8446 0.6126 0.3675
C4 C -0.7471(4) 0.4871(3) 0.4065(3)
H5 H -0.6501 0.4969 0.3678
H6 H -0.7092 0.4762 0.4727
C5 C -0.8955(4) 0.3689(3) 0.3403(3)
H7 H -0.9251 0.3768 0.2713
H8 H -0.9964 0.3647 0.3755
C6 C -0.8600(4) 0.2464(3) 0.3219(2)
C7 C -0.9020(4) 1.1825(3) 0.9443(2)
C8 C -0.8897(4) 1.2983(3) 1.0366(3)
H9 H -0.8367 1.2927 1.1017
H10 H -1.0061 1.2997 1.0452
C9 C -0.7836(4) 1.4215(3) 1.0214(3)
H11 H -0.8324 1.4242 0.9540
H12 H -0.6654 1.4220 1.0172
C10 C -0.7787(4) 1.5402(3) 1.1109(3)
H13 H -0.8966 1.5402 1.1157
H14 H -0.7281 1.5388 1.1784
C11 C -0.6738(4) 1.6598(3) 1.0917(3)
H15 H -0.7151 1.6542 1.0197
H16 H -0.5533 1.6634 1.0954
C12 C -0.6799(4) 1.7817(3) 1.1682(2)
C13 C -0.5605(4) 0.7656(3) 0.7958(2)
C14 C -0.5502(4) 0.6397(3) 0.7952(3)
H17 H -0.5261 0.6432 0.8687
H18 H -0.4522 0.6271 0.7617
C15 C -0.7110(4) 0.5253(3) 0.7385(3)
H19 H -0.7422 0.5242 0.6664
H20 H -0.8074 0.5320 0.7759
C16 C -0.6806(4) 0.4018(3) 0.7335(3)
H21 H -0.5837 0.3960 0.6963
H22 H -0.6480 0.4042 0.8058
C17 C -0.8376(4) 0.2837(3) 0.6779(3)
H23 H -0.9384 0.2934 0.7094
H24 H -0.8615 0.2750 0.6030
C18 C -0.8104(4) 0.1664(3) 0.6863(2)
O3A O -1.0381(3) 0.85280(18) 0.75322(17)
O7A O -0.4183(3) 1.11390(18) 0.83999(17)
O11_2 O -0.6614(3) 1.15621(19) 0.68837(18)
O12_2 O -0.9386(3) 1.07614(18) 0.69220(17)
O3A_2 O -0.0381(3) 0.85280(18) 0.75322(17)
O4A O -0.2648(3) 0.75991(19) 0.62393(19)
O6_2 O -0.0499(3) 1.0978(2) 0.90685(18)
O8A O -0.2166(3) 1.2172(2) 0.7665(2)
O12_3 O 0.0614(3) 1.07614(18) 0.69220(17)
Ce1A Ce -1.270322(18) 0.015778(13) 0.222526(12)
Ce2A Ce -0.764509(18) 0.013585(13) 0.270203(12)
Ce2_2 Ce -1.235491(18) 0.986415(13) 0.729797(12)
Ce1A_2 Ce -0.270322(18) 2.015778(13) 1.222526(12)
Ce2A_2 Ce -0.764509(18) 2.013585(13) 1.270203(12)
Ce1_2 Ce -0.729678(18) -0.015778(13) 0.777474(12)
Ce2_3 Ce -1.235491(18) -0.013585(13) 0.729797(12)
loop_
_geom_bond_atom_site_label_1
_geom_bond_atom_site_label_2
_geom_bond_site_symmetry_1
_geom_bond_site_symmetry_2
Ce1 O1 1_555 1_555
Ce2 O2 1_555 1_555
O1 C1 1_555 1_555
O2 Ce1 1_555 1_555
O3 C6 1_555 1_555
O4 C6 1_555 1_555
O5 Ce1 1_555 1_555
O6 C7 1_555 1_555
O7 C12 1_555 1_555
O8 C12 1_555 1_555
O9 Ce2 1_555 1_555
O10 Ce1 1_555 1_555
O11 C18 1_555 1_555
O12 C18 1_555 1_555
O13 Ce1 1_555 1_555
O14 Ce2 1_555 1_555
C1 O2 1_555 1_555
C2 C1 1_555 1_555
H1 C2 1_555 1_555
H2 C2 1_555 1_555
C3 C2 1_555 1_555
H3 C3 1_555 1_555
H4 C3 1_555 1_555
C4 C3 1_555 1_555
H5 C4 1_555 1_555
H6 C4 1_555 1_555
C5 C4 1_555 1_555
H7 C5 1_555 1_555
H8 C5 1_555 1_555
C6 C5 1_555 1_555
C7 O5 1_555 1_555
C8 C7 1_555 1_555
H9 C8 1_555 1_555
H10 C8 1_555 1_555
C9 C8 1_555 1_555
H11 C9 1_555 1_555
H12 C9 1_555 1_555
C10 C9 1_555 1_555
H13 C10 1_555 1_555
H14 C10 1_555 1_555
C11 C10 1_555 1_555
H15 C11 1_555 1_555
H16 C11 1_555 1_555
C12 C11 1_555 1_555
C13 O9 1_555 1_555
C14 C13 1_555 1_555
H17 C14 1_555 1_555
H18 C14 1_555 1_555
C15 C14 1_555 1_555
H19 C15 1_555 1_555
H20 C15 1_555 1_555
C16 C15 1_555 1_555
H21 C16 1_555 1_555
H22 C16 1_555 1_555
C17 C16 1_555 1_555
H23 C17 1_555 1_555
H24 C17 1_555 1_555
C18 C17 1_555 1_555
O3A Ce1 1_555 1_555
O7A Ce1 1_555 1_555
O11_2 Ce1 1_555 1_555
O12_2 Ce1 1_555 1_555
O3A_2 Ce2 1_555 1_555
O4A Ce2 1_555 1_555
O6_2 Ce2 1_555 1_555
O8A Ce2 1_555 1_555
O12_3 Ce2 1_555 1_555
Ce1A O3 1_555 1_555
Ce2A O3 1_555 1_555
Ce2_2 O6 1_555 1_555
Ce1A_2 O7 1_555 1_555
Ce2A_2 O7 1_555 1_555
Ce1_2 O11 1_555 1_555
Ce2_3 O12 1_555 1_555
Ce2 O7A 1_555 1_555
O4 Ce2A 1_555 1_555
O8 Ce2A_2 1_555 1_555
O10 C13 1_555 1_555
O12 Ce1_2 1_555 1_555
O3A Ce2_2 1_555 1_555
O12_2 Ce2_2 1_555 1_555

#END
