
#######################################################################
#
#                 Cambridge Crystallographic Data Centre
#                                CCDC 
#
#######################################################################
#
# If this CIF has been generated from an entry in the Cambridge 
# Structural Database, then it will include bibliographic, chemical, 
# crystal, experimental, refinement or atomic coordinate data resulting 
# from the CCDC's data processing and validation procedures.
#
#######################################################################

data_ESOLAA
_symmetry_cell_setting           monoclinic
_symmetry_space_group_name_H-M   'P 21/n'
_symmetry_Int_Tables_number      14
_space_group_name_Hall           '-P 2yn'
loop_
_symmetry_equiv_pos_site_id
_symmetry_equiv_pos_as_xyz
1 x,y,z
2 1/2-x,1/2+y,1/2-z
3 -x,-y,-z
4 1/2+x,1/2-y,1/2+z
_cell_length_a                   10.971(2)
_cell_length_b                   14.929(3)
_cell_length_c                   12.844(3)
_cell_angle_alpha                90
_cell_angle_beta                 92.39(3)
_cell_angle_gamma                90
_cell_volume                     2101.84
loop_
_atom_site_label
_atom_site_type_symbol
_atom_site_fract_x
_atom_site_fract_y
_atom_site_fract_z
Mn1 Mn 0.45703(2) 0.046373(15) 0.629580(17)
Mn2 Mn 0.55239(2) -0.061987(16) 0.887693(18)
Cl1 Cl 0.58117(3) 0.09839(2) 0.48000(3)
Cl2 Cl 0.35315(3) -0.01529(3) 0.78343(3)
Cl3 Cl 0.65530(3) -0.02282(2) 0.71848(3)
Cl4 Cl 0.58239(4) 0.09446(3) 0.96037(3)
N1 N 0.47980(12) 0.18700(9) 0.69777(10)
N2 N 0.28431(12) 0.09432(9) 0.54192(11)
H1 H 0.3011(18) 0.0791(14) 0.4775(16)
N3 N 0.55011(12) -0.20719(9) 0.83776(10)
N4 N 0.71836(13) -0.09790(9) 0.99532(11)
H2 H 0.6841(19) -0.0779(14) 1.0499(16)
C1 C 0.59278(14) 0.20642(11) 0.73549(12)
H3 H 0.6508 0.1610 0.7377
C2 C 0.62751(15) 0.29055(11) 0.77126(12)
H4 H 0.7069 0.3014 0.7962
C3 C 0.54090(16) 0.35795(11) 0.76893(13)
H5 H 0.5610 0.4152 0.7926
C4 C 0.42339(16) 0.33887(11) 0.73073(13)
H6 H 0.3638 0.3832 0.7289
C5 C 0.39543(14) 0.25305(11) 0.69529(12)
C6 C 0.26903(15) 0.23210(12) 0.65197(13)
H7 H 0.2211 0.2867 0.6510
H8 H 0.2310 0.1902 0.6983
C7 C 0.26532(15) 0.19232(12) 0.54183(13)
H9 H 0.1869 0.2057 0.5076
H10 H 0.3280 0.2205 0.5020
C8 C 0.17170(15) 0.04633(12) 0.56675(14)
H11 H 0.1488 0.0622 0.6357
H12 H 0.1856 -0.0171 0.5634
H13 H 0.1074 0.0626 0.5174
C9 C 0.51768(14) -0.22274(11) 0.73709(12)
H14 H 0.4808 -0.1767 0.6986
C10 C 0.53660(15) -0.30391(11) 0.68811(13)
H15 H 0.5132 -0.3121 0.6183
C11 C 0.59113(15) -0.37266(11) 0.74551(13)
H16 H 0.6061 -0.4277 0.7147
C12 C 0.62304(15) -0.35811(11) 0.84958(13)
H17 H 0.6584 -0.4039 0.8896
C13 C 0.60199(14) -0.27471(11) 0.89420(12)
C14 C 0.64138(15) -0.25645(11) 1.00560(12)
H18 H 0.6628 -0.3126 1.0396
H19 H 0.5736 -0.2306 1.0413
C15 C 0.75096(15) -0.19247(11) 1.01537(13)
H20 H 0.7880 -0.1975 1.0850
H21 H 0.8112 -0.2108 0.9665
C16 C 0.83029(16) -0.04412(12) 0.98487(15)
H22 H 0.8834 -0.0526 1.0454
H23 H 0.8090 0.0181 0.9785
H24 H 0.8712 -0.0629 0.9240
Mn1B Mn 0.54297(2) -0.046373(15) 0.370420(17)
Mn2B Mn 0.44761(2) 0.061987(16) 0.112307(18)
Mn2_2 Mn 0.55239(2) -0.061987(16) -0.112307(18)
Mn2B_2 Mn 0.44761(2) 0.061987(16) 1.112307(18)
Cl1B Cl 0.41883(3) -0.09839(2) 0.52000(3)
Cl2B Cl 0.64685(3) 0.01529(3) 0.21657(3)
Cl3B Cl 0.34470(3) 0.02282(2) 0.28152(3)
Cl4B Cl 0.41761(4) -0.09446(3) 0.03963(3)
Cl4_2 Cl 0.58239(4) 0.09446(3) -0.03963(3)
Cl4B_2 Cl 0.41761(4) -0.09446(3) 1.03963(3)
N1B N 0.52020(12) -0.18700(9) 0.30223(10)
N2B N 0.71569(12) -0.09432(9) 0.45808(11)
H1B H 0.6989(18) -0.0791(14) 0.5225(16)
N3B N 0.44989(12) 0.20719(9) 0.16224(10)
N4B N 0.28164(13) 0.09790(9) 0.00468(11)
H2B H 0.3159(19) 0.0779(14) -0.0499(16)
C1B C 0.40722(14) -0.20642(11) 0.26451(12)
H3B H 0.3492 -0.1610 0.2623
C2B C 0.37249(15) -0.29055(11) 0.22874(12)
H4B H 0.2931 -0.3014 0.2038
C3B C 0.45910(16) -0.35795(11) 0.23107(13)
H5B H 0.4390 -0.4152 0.2074
C4B C 0.57661(16) -0.33887(11) 0.26927(13)
H6B H 0.6362 -0.3832 0.2711
C5B C 0.60457(14) -0.25305(11) 0.30471(12)
C6B C 0.73097(15) -0.23210(12) 0.34803(13)
H7B H 0.7789 -0.2867 0.3490
H8B H 0.7690 -0.1902 0.3017
C7B C 0.73468(15) -0.19232(12) 0.45817(13)
H9B H 0.8131 -0.2057 0.4924
H10B H 0.6720 -0.2205 0.4980
C8B C 0.82830(15) -0.04633(12) 0.43325(14)
H11B H 0.8512 -0.0622 0.3643
H12B H 0.8144 0.0171 0.4366
H13B H 0.8926 -0.0626 0.4826
C9B C 0.48232(14) 0.22274(11) 0.26291(12)
H14B H 0.5192 0.1767 0.3014
C10B C 0.46340(15) 0.30391(11) 0.31189(13)
H15B H 0.4868 0.3121 0.3817
C11B C 0.40887(15) 0.37266(11) 0.25449(13)
H16B H 0.3939 0.4277 0.2853
C12B C 0.37696(15) 0.35811(11) 0.15042(13)
H17B H 0.3416 0.4039 0.1104
C13B C 0.39801(14) 0.27471(11) 0.10580(12)
C14B C 0.35862(15) 0.25645(11) -0.00560(12)
H18B H 0.3372 0.3126 -0.0396
H19B H 0.4264 0.2306 -0.0413
C15B C 0.24904(15) 0.19247(11) -0.01537(13)
H20B H 0.2120 0.1975 -0.0850
H21B H 0.1888 0.2108 0.0335
C16B C 0.16971(16) 0.04412(12) 0.01513(15)
H22B H 0.1166 0.0526 -0.0454
H23B H 0.1910 -0.0181 0.0215
H24B H 0.1288 0.0629 0.0760
loop_
_geom_bond_atom_site_label_1
_geom_bond_atom_site_label_2
_geom_bond_site_symmetry_1
_geom_bond_site_symmetry_2
Mn1 Cl1 1_555 1_555
Mn2 Cl2 1_555 1_555
Cl1 Mn1B 1_555 1_555
Cl2 Mn1 1_555 1_555
Cl3 Mn1 1_555 1_555
Cl4 Mn2 1_555 1_555
N1 Mn1 1_555 1_555
N2 Mn1 1_555 1_555
H1 N2 1_555 1_555
N3 Mn2 1_555 1_555
N4 Mn2 1_555 1_555
H2 N4 1_555 1_555
C1 N1 1_555 1_555
H3 C1 1_555 1_555
C2 C1 1_555 1_555
H4 C2 1_555 1_555
C3 C2 1_555 1_555
H5 C3 1_555 1_555
C4 C3 1_555 1_555
H6 C4 1_555 1_555
C5 N1 1_555 1_555
C6 C5 1_555 1_555
H7 C6 1_555 1_555
H8 C6 1_555 1_555
C7 N2 1_555 1_555
H9 C7 1_555 1_555
H10 C7 1_555 1_555
C8 N2 1_555 1_555
H11 C8 1_555 1_555
H12 C8 1_555 1_555
H13 C8 1_555 1_555
C9 N3 1_555 1_555
H14 C9 1_555 1_555
C10 C9 1_555 1_555
H15 C10 1_555 1_555
C11 C10 1_555 1_555
H16 C11 1_555 1_555
C12 C11 1_555 1_555
H17 C12 1_555 1_555
C13 N3 1_555 1_555
C14 C13 1_555 1_555
H18 C14 1_555 1_555
H19 C14 1_555 1_555
C15 N4 1_555 1_555
H20 C15 1_555 1_555
H21 C15 1_555 1_555
C16 N4 1_555 1_555
H22 C16 1_555 1_555
H23 C16 1_555 1_555
H24 C16 1_555 1_555
Mn1B Cl1B 1_555 1_555
Mn2B Cl2B 1_555 1_555
Mn2_2 Cl4B 1_555 1_555
Mn2B_2 Cl4 1_555 1_555
Cl1B Mn1 1_555 1_555
Cl2B Mn1B 1_555 1_555
Cl3B Mn1B 1_555 1_555
Cl4B Mn2B 1_555 1_555
Cl4_2 Mn2B 1_555 1_555
Cl4B_2 Mn2 1_555 1_555
N1B Mn1B 1_555 1_555
N2B Mn1B 1_555 1_555
H1B N2B 1_555 1_555
N3B Mn2B 1_555 1_555
N4B Mn2B 1_555 1_555
H2B N4B 1_555 1_555
C1B N1B 1_555 1_555
H3B C1B 1_555 1_555
C2B C1B 1_555 1_555
H4B C2B 1_555 1_555
C3B C2B 1_555 1_555
H5B C3B 1_555 1_555
C4B C3B 1_555 1_555
H6B C4B 1_555 1_555
C5B N1B 1_555 1_555
C6B C5B 1_555 1_555
H7B C6B 1_555 1_555
H8B C6B 1_555 1_555
C7B N2B 1_555 1_555
H9B C7B 1_555 1_555
H10B C7B 1_555 1_555
C8B N2B 1_555 1_555
H11B C8B 1_555 1_555
H12B C8B 1_555 1_555
H13B C8B 1_555 1_555
C9B N3B 1_555 1_555
H14B C9B 1_555 1_555
C10B C9B 1_555 1_555
H15B C10B 1_555 1_555
C11B C10B 1_555 1_555
H16B C11B 1_555 1_555
C12B C11B 1_555 1_555
H17B C12B 1_555 1_555
C13B N3B 1_555 1_555
C14B C13B 1_555 1_555
H18B C14B 1_555 1_555
H19B C14B 1_555 1_555
C15B N4B 1_555 1_555
H20B C15B 1_555 1_555
H21B C15B 1_555 1_555
C16B N4B 1_555 1_555
H22B C16B 1_555 1_555
H23B C16B 1_555 1_555
H24B C16B 1_555 1_555
Mn2 Cl3 1_555 1_555
C4 C5 1_555 1_555
C6 C7 1_555 1_555
C12 C13 1_555 1_555
C14 C15 1_555 1_555
Mn2B Cl3B 1_555 1_555
Mn2_2 Cl4_2 1_555 1_555
Mn2B_2 Cl4B_2 1_555 1_555
C4B C5B 1_555 1_555
C6B C7B 1_555 1_555
C12B C13B 1_555 1_555
C14B C15B 1_555 1_555

#END
