
#######################################################################
#
#                 Cambridge Crystallographic Data Centre
#                                CCDC 
#
#######################################################################
#
# If this CIF has been generated from an entry in the Cambridge 
# Structural Database, then it will include bibliographic, chemical, 
# crystal, experimental, refinement or atomic coordinate data resulting 
# from the CCDC's data processing and validation procedures.
#
#######################################################################

data_ESOSOV
_symmetry_cell_setting           monoclinic
_symmetry_space_group_name_H-M   'P 2/c'
_symmetry_Int_Tables_number      13
_space_group_name_Hall           '-P 2yc'
loop_
_symmetry_equiv_pos_site_id
_symmetry_equiv_pos_as_xyz
1 x,y,z
2 -x,y,1/2-z
3 -x,-y,-z
4 x,-y,1/2+z
_cell_length_a                   7.0734(14)
_cell_length_b                   3.7883(8)
_cell_length_c                   19.526(4)
_cell_angle_alpha                90
_cell_angle_beta                 97.75(3)
_cell_angle_gamma                90
_cell_volume                     518.443
loop_
_atom_site_label
_atom_site_type_symbol
_atom_site_fract_x
_atom_site_fract_y
_atom_site_fract_z
Tl1 Tl 0.5000 0.5772(4) 0.7500
N1 N 0.187(3) 0.089(6) 0.7076(9)
C1 C -0.081(3) -0.094(7) 0.6128(12)
C2 C 0.068(3) 0.031(6) 0.6655(11)
C3 C -0.040(3) -0.285(7) 0.5578(12)
N2 N -0.422(3) 0.117(6) 0.6286(10)
C4 C -0.190(3) -0.391(6) 0.5040(10)
H1 H -0.3172 -0.3149 0.5052
C5 C -0.270(3) 0.035(7) 0.6205(11)
C6 C 0.146(3) -0.392(7) 0.5502(11)
H2 H 0.2484 -0.3130 0.5833
Tl1_2 Tl 0.5000 -0.4228(4) 0.7500
Tl1B Tl -0.5000 -1.5772(4) 0.2500
Tl1B_2 Tl -0.5000 -0.5772(4) 0.2500
N1B N -0.187(3) -1.089(6) 0.2924(9)
N1_2 N 0.187(3) 1.089(6) 0.7076(9)
N1A N 0.813(3) 0.089(6) 0.7924(9)
N1A_2 N 0.813(3) 1.089(6) 0.7924(9)
C1B C 0.081(3) -0.906(7) 0.3872(12)
C2B C -0.068(3) -1.031(6) 0.3345(11)
C3B C 0.040(3) -0.715(7) 0.4422(12)
N2B N 0.422(3) -1.117(6) 0.3714(10)
C4B C 0.190(3) -0.609(6) 0.4960(10)
H1B H 0.3172 -0.6851 0.4948
C5B C 0.270(3) -1.035(7) 0.3795(11)
C6B C -0.146(3) -0.608(7) 0.4498(11)
H2B H -0.2484 -0.6870 0.4167
loop_
_geom_bond_atom_site_label_1
_geom_bond_atom_site_label_2
_geom_bond_site_symmetry_1
_geom_bond_site_symmetry_2
Tl1 N1 1_555 1_555
N1 C2 1_555 1_555
C1 C2 1_555 1_555
C3 C1 1_555 1_555
N2 C5 1_555 1_555
C4 C3 1_555 1_555
H1 C4 1_555 1_555
C5 C1 1_555 1_555
C6 C3 1_555 1_555
H2 C6 1_555 1_555
Tl1_2 N1 1_555 1_555
Tl1B N1B 1_555 1_555
Tl1B_2 N1B 1_555 1_555
N1B C2B 1_555 1_555
N1_2 Tl1 1_555 1_555
N1A Tl1 1_555 1_555
N1A_2 Tl1 1_555 1_555
C1B C2B 1_555 1_555
C3B C1B 1_555 1_555
N2B C5B 1_555 1_555
C4B C6 1_555 1_555
H1B C4B 1_555 1_555
C5B C1B 1_555 1_555
C6B C4 1_555 1_555
H2B C6B 1_555 1_555
Tl1_2 N1A 1_555 1_555
C3B C4B 1_555 1_555
C3B C6B 1_555 1_555

#END
