
#######################################################################
#
#                 Cambridge Crystallographic Data Centre
#                                CCDC 
#
#######################################################################
#
# If this CIF has been generated from an entry in the Cambridge 
# Structural Database, then it will include bibliographic, chemical, 
# crystal, experimental, refinement or atomic coordinate data resulting 
# from the CCDC's data processing and validation procedures.
#
#######################################################################

data_ESOSUB
_symmetry_cell_setting           monoclinic
_symmetry_space_group_name_H-M   'P 21/c'
_symmetry_Int_Tables_number      14
_space_group_name_Hall           '-P 2ybc'
loop_
_symmetry_equiv_pos_site_id
_symmetry_equiv_pos_as_xyz
1 x,y,z
2 -x,1/2+y,1/2-z
3 -x,-y,-z
4 x,1/2-y,1/2+z
_cell_length_a                   7.1656(14)
_cell_length_b                   12.441(3)
_cell_length_c                   12.999(3)
_cell_angle_alpha                90
_cell_angle_beta                 97.82(3)
_cell_angle_gamma                90
_cell_volume                     1148.05
loop_
_atom_site_label
_atom_site_type_symbol
_atom_site_fract_x
_atom_site_fract_y
_atom_site_fract_z
Tl1 Tl 0.74066(3) 0.99523(2) -0.004266(18)
N1 N 1.0304(9) 0.8645(4) 0.1277(5)
C1 C 0.9912(9) 0.7787(5) 0.1510(4)
N2 N 0.9891(10) 0.6331(5) 0.3733(5)
C2 C 0.9682(8) 0.6518(5) 0.2853(4)
N3 N 0.5598(10) 0.4248(6) -0.3163(5)
C3 C 0.5911(9) 0.4006(5) -0.2303(5)
N4 N 0.5143(9) 0.1867(5) -0.0735(5)
C4 C 0.5649(9) 0.2690(5) -0.0964(5)
C5 C 0.9435(8) 0.6743(5) 0.1782(4)
C6 C 0.8639(8) 0.5982(4) 0.1043(4)
C7 C 0.8070(9) 0.4938(4) 0.1322(5)
C8 C 0.7299(8) 0.4216(5) 0.0605(5)
C9 C 0.7068(8) 0.4474(4) -0.0473(4)
C10 C 0.7630(9) 0.5510(5) -0.0759(5)
C11 C 0.8377(9) 0.6236(5) -0.0037(4)
C12 C 0.6265(8) 0.3725(5) -0.1231(5)
H1 H 0.830(8) 0.477(5) 0.201(5)
H2 H 0.699(8) 0.351(5) 0.082(5)
H3 H 0.756(9) 0.566(5) -0.149(5)
H4 H 0.877(9) 0.689(3) -0.023(5)
Tl1B Tl 1.25934(3) 1.00477(2) 0.004266(18)
Tl1A Tl 1.25934(3) 0.49523(2) 0.504266(18)
Tl1C Tl 0.74066(3) 0.50477(2) 0.495734(18)
Tl1_2 Tl 0.74066(3) -0.00477(2) -0.004266(18)
N1B N 0.9696(9) 1.1355(4) -0.1277(5)
N2A N 1.0109(10) 1.1331(5) 0.1267(5)
N2C N 0.9891(10) 0.8669(5) -0.1267(5)
N4_2 N 0.5143(9) 1.1867(5) -0.0735(5)
loop_
_geom_bond_atom_site_label_1
_geom_bond_atom_site_label_2
_geom_bond_site_symmetry_1
_geom_bond_site_symmetry_2
Tl1 N1 1_555 1_555
N1 C1 1_555 1_555
C1 C5 1_555 1_555
N2 C2 1_555 1_555
C2 C5 1_555 1_555
N3 C3 1_555 1_555
C3 C12 1_555 1_555
N4 C4 1_555 1_555
C4 C12 1_555 1_555
C5 C6 1_555 1_555
C6 C7 1_555 1_555
C7 C8 1_555 1_555
C8 C9 1_555 1_555
C9 C10 1_555 1_555
C10 C11 1_555 1_555
C11 C6 1_555 1_555
C12 C9 1_555 1_555
H1 C7 1_555 1_555
H2 C8 1_555 1_555
H3 C10 1_555 1_555
H4 C11 1_555 1_555
Tl1B N1 1_555 1_555
Tl1A N2 1_555 1_555
Tl1C N2 1_555 1_555
Tl1_2 N4 1_555 1_555
N1B Tl1 1_555 1_555
N2A Tl1 1_555 1_555
N2C Tl1 1_555 1_555
N4_2 Tl1 1_555 1_555
Tl1B N1B 1_555 1_555
Tl1B N2A 1_555 1_555
Tl1B N2C 1_555 1_555

#END
