
#######################################################################
#
#                 Cambridge Crystallographic Data Centre
#                                CCDC 
#
#######################################################################
#
# If this CIF has been generated from an entry in the Cambridge 
# Structural Database, then it will include bibliographic, chemical, 
# crystal, experimental, refinement or atomic coordinate data resulting 
# from the CCDC's data processing and validation procedures.
#
#######################################################################

data_ESOYUH
_symmetry_cell_setting           monoclinic
_symmetry_space_group_name_H-M   'P 21/c'
_symmetry_Int_Tables_number      14
_space_group_name_Hall           '-P 2ybc'
loop_
_symmetry_equiv_pos_site_id
_symmetry_equiv_pos_as_xyz
1 x,y,z
2 -x,1/2+y,1/2-z
3 -x,-y,-z
4 x,1/2-y,1/2+z
_cell_length_a                   17.3826(9)
_cell_length_b                   14.3349(7)
_cell_length_c                   15.4710(8)
_cell_angle_alpha                90
_cell_angle_beta                 97.310(2)
_cell_angle_gamma                90
_cell_volume                     3823.7
loop_
_atom_site_label
_atom_site_type_symbol
_atom_site_fract_x
_atom_site_fract_y
_atom_site_fract_z
Fe1 Fe 0.5000 0.5000 0.0000
Fe2 Fe 0.0000 0.5000 0.0000
S1 S 0.18349(11) 0.39065(18) 0.23098(15)
S2 S 0.67766(11) 0.71364(15) 0.15183(15)
O1 O 0.2448(3) -0.1284(4) 0.1427(4)
N1 N 0.0794(3) 0.4495(4) 0.0888(4)
N2 N -0.0019(3) 0.3842(4) -0.0722(4)
N3 N 0.1322(3) 0.3998(4) -0.0710(4)
N4 N 0.0792(3) 0.5495(4) -0.0699(4)
N5 N 0.1889(3) 0.2694(4) 0.0011(4)
N6 N 0.3134(3) 0.2881(4) 0.0844(4)
N7 N 0.2494(3) 0.4190(4) 0.0129(4)
N8 N 0.2512(3) 0.1441(4) 0.0715(4)
N9 N 0.4160(3) 0.5741(4) 0.0424(4)
N10 N 0.3672(3) 0.4366(4) 0.0967(4)
N11 N 0.5024(3) 0.4248(4) 0.1089(4)
N12 N 0.5746(3) 0.5859(4) 0.0638(4)
C1 C -0.0691(4) 0.3393(5) -0.0994(5)
H1 H -0.1162 0.3656 -0.0858
C2 C -0.0721(4) 0.2577(5) -0.1455(5)
H2 H -0.1201 0.2264 -0.1603
C3 C -0.0041(4) 0.2210(5) -0.1705(5)
H3 H -0.0049 0.1649 -0.2033
C4 C 0.0647(4) 0.2682(5) -0.1464(5)
H4 H 0.1120 0.2465 -0.1640
C5 C 0.0630(4) 0.3476(5) -0.0961(5)
C6 C 0.1343(4) 0.4958(5) -0.0939(4)
C7 C 0.1911(4) 0.5265(5) -0.1425(5)
H5 H 0.2289 0.4847 -0.1596
C8 C 0.1912(4) 0.6194(6) -0.1654(5)
H6 H 0.2300 0.6438 -0.1972
C9 C 0.1330(4) 0.6766(5) -0.1408(5)
H7 H 0.1318 0.7411 -0.1552
C10 C 0.0784(4) 0.6401(5) -0.0965(5)
H8 H 0.0374 0.6793 -0.0831
C11 C 0.1931(4) 0.3613(5) -0.0174(5)
C12 C 0.2517(4) 0.2400(5) 0.0511(5)
C13 C 0.3069(4) 0.3776(5) 0.0635(5)
C14 C 0.2027(6) 0.0826(6) 0.0227(8)
H9 H 0.1702 0.1047 -0.0271
C15 C 0.2003(7) -0.0093(7) 0.0447(9)
H10 H 0.1666 -0.0502 0.0095
C16 C 0.2469(4) -0.0450(5) 0.1187(6)
C17 C 0.2974(5) 0.0201(5) 0.1642(6)
H11 H 0.3317 -0.0006 0.2132
C18 C 0.2992(5) 0.1112(5) 0.1410(6)
H12 H 0.3345 0.1525 0.1736
C19 C 0.3603(4) 0.5339(5) 0.0818(5)
C20 C 0.3016(4) 0.5832(5) 0.1132(5)
H13 H 0.2644 0.5520 0.1428
C21 C 0.2979(4) 0.6780(5) 0.1009(5)
H14 H 0.2567 0.7132 0.1195
C22 C 0.3556(4) 0.7218(5) 0.0607(5)
H15 H 0.3547 0.7875 0.0521
C23 C 0.4133(4) 0.6690(5) 0.0338(5)
H16 H 0.4533 0.6993 0.0080
C24 C 0.4376(3) 0.4010(4) 0.1418(5)
C25 C 0.4364(4) 0.3505(5) 0.2181(5)
H17 H 0.3886 0.3371 0.2393
C26 C 0.5057(4) 0.3200(5) 0.2625(5)
H18 H 0.5069 0.2830 0.3136
C27 C 0.5745(4) 0.3455(5) 0.2299(5)
H19 H 0.6235 0.3270 0.2592
C28 C 0.5699(4) 0.3977(5) 0.1547(5)
H20 H 0.6169 0.4156 0.1339
C29 C 0.6160(4) 0.6384(5) 0.1019(5)
C30 C 0.1212(4) 0.4245(5) 0.1479(5)
Fe2_2 Fe 1.0000 0.5000 0.0000
S1B S -0.18349(11) 0.60935(18) -0.23098(15)
S2B S 0.32234(11) 0.28636(15) -0.15183(15)
O1B O 0.7552(3) 1.1284(4) -0.1427(4)
N1B N -0.0794(3) 0.5505(4) -0.0888(4)
N2B N 1.0019(3) 0.6158(4) 0.0722(4)
N2B_2 N 0.0019(3) 0.6158(4) 0.0722(4)
N3B N 0.8678(3) 0.6002(4) 0.0710(4)
N4B N 0.9208(3) 0.4505(4) 0.0699(4)
N4B_2 N -0.0792(3) 0.4505(4) 0.0699(4)
N5B N 0.8111(3) 0.7306(4) -0.0011(4)
N6B N 0.6866(3) 0.7119(4) -0.0844(4)
N7B N 0.7506(3) 0.5810(4) -0.0129(4)
N8B N 0.7488(3) 0.8559(4) -0.0715(4)
N9B N 0.5840(3) 0.4259(4) -0.0424(4)
N10B N 0.6328(3) 0.5634(4) -0.0967(4)
N11B N 0.4976(3) 0.5752(4) -0.1089(4)
N12B N 0.4254(3) 0.4141(4) -0.0638(4)
C1B C 1.0691(4) 0.6607(5) 0.0994(5)
H1B H 1.1162 0.6344 0.0858
C2B C 1.0721(4) 0.7423(5) 0.1455(5)
H2B H 1.1201 0.7736 0.1603
C3B C 1.0041(4) 0.7790(5) 0.1705(5)
H3B H 1.0049 0.8351 0.2033
C4B C 0.9353(4) 0.7318(5) 0.1464(5)
H4B H 0.8880 0.7535 0.1640
C5B C 0.9370(4) 0.6524(5) 0.0961(5)
C6B C 0.8657(4) 0.5042(5) 0.0939(4)
C7B C 0.8089(4) 0.4735(5) 0.1425(5)
H5B H 0.7711 0.5153 0.1596
C8B C 0.8088(4) 0.3806(6) 0.1654(5)
H6B H 0.7700 0.3562 0.1972
C9B C 0.8670(4) 0.3234(5) 0.1408(5)
H7B H 0.8682 0.2589 0.1552
C10B C 0.9216(4) 0.3599(5) 0.0965(5)
H8B H 0.9626 0.3207 0.0831
C11B C 0.8069(4) 0.6387(5) 0.0174(5)
C12B C 0.7483(4) 0.7600(5) -0.0511(5)
C13B C 0.6931(4) 0.6224(5) -0.0635(5)
C14B C 0.7973(6) 0.9174(6) -0.0227(8)
H9B H 0.8298 0.8953 0.0271
C15B C 0.7997(7) 1.0093(7) -0.0447(9)
H10B H 0.8334 1.0502 -0.0095
C16B C 0.7531(4) 1.0450(5) -0.1187(6)
C17B C 0.7026(5) 0.9799(5) -0.1642(6)
H11B H 0.6683 1.0006 -0.2132
C18B C 0.7008(5) 0.8888(5) -0.1410(6)
H12B H 0.6655 0.8475 -0.1736
C19B C 0.6397(4) 0.4661(5) -0.0818(5)
C20B C 0.6984(4) 0.4168(5) -0.1132(5)
H13B H 0.7356 0.4480 -0.1428
C21B C 0.7021(4) 0.3220(5) -0.1009(5)
H14B H 0.7433 0.2868 -0.1195
C22B C 0.6444(4) 0.2782(5) -0.0607(5)
H15B H 0.6453 0.2125 -0.0521
C23B C 0.5867(4) 0.3310(5) -0.0338(5)
H16B H 0.5467 0.3007 -0.0080
C24B C 0.5624(3) 0.5990(4) -0.1418(5)
C25B C 0.5636(4) 0.6495(5) -0.2181(5)
H17B H 0.6114 0.6629 -0.2393
C26B C 0.4943(4) 0.6800(5) -0.2625(5)
H18B H 0.4931 0.7170 -0.3136
C27B C 0.4255(4) 0.6545(5) -0.2299(5)
H19B H 0.3765 0.6730 -0.2592
C28B C 0.4301(4) 0.6023(5) -0.1547(5)
H20B H 0.3831 0.5844 -0.1339
C29B C 0.3840(4) 0.3616(5) -0.1019(5)
C30B C -0.1212(4) 0.5755(5) -0.1479(5)
Cl1 Cl 0.5255(4) 0.6275(4) 0.4612(4)
Cl2 Cl 0.4985(2) 0.5892(3) 0.2750(3)
C31 C 0.5058(11) 0.5465(9) 0.3795(5)
Cl3 Cl 0.3127(9) 0.4727(9) 0.4142(10)
Cl4 Cl 0.2913(5) 0.6514(5) 0.3402(5)
C32 C 0.2600(12) 0.5726(12) 0.4085(12)
Cl5? Cl -0.0225(10) 0.1203(12) 0.0480(11)
Cl6? Cl 0.013(2) 0.139(2) 0.0446(13)
Cl7? Cl 0.0086(10) 0.1343(7) 0.0426(5)
Cl8? Cl 0.0408(9) 0.0269(7) 0.2075(7)
Cl9? Cl -0.0303(14) 0.050(2) 0.194(2)
Cl10? Cl -0.0141(11) 0.0401(12) 0.2104(12)
C33? C -0.0379(11) 0.049(3) 0.1323(18)
H21? H -0.0581 -0.0112 0.1079
H22? H -0.0788 0.0774 0.1629
C34? C 0.0442(7) 0.0931(16) 0.1440(9)
H23? H 0.0715 0.1421 0.1813
H24? H 0.0817 0.0425 0.1373
C35? C 0.0442(7) 0.0931(16) 0.1440(9)
H25? H 0.0859 0.0483 0.1358
H26? H 0.0692 0.1465 0.1770
Cl11? Cl 0.4344(10) 0.5796(11) 0.3027(11)
Cl12? Cl 0.2173(11) 0.6127(11) 0.3111(11)
loop_
_geom_bond_atom_site_label_1
_geom_bond_atom_site_label_2
_geom_bond_site_symmetry_1
_geom_bond_site_symmetry_2
Fe1 N9 1_555 1_555
Fe2 N1 1_555 1_555
S1 C30 1_555 1_555
S2 C29 1_555 1_555
O1 C16 1_555 1_555
N1 C30 1_555 1_555
N2 Fe2 1_555 1_555
N3 C5 1_555 1_555
N4 Fe2 1_555 1_555
N5 C11 1_555 1_555
N6 C12 1_555 1_555
N7 C11 1_555 1_555
N8 C12 1_555 1_555
N9 C19 1_555 1_555
N10 C13 1_555 1_555
N11 Fe1 1_555 1_555
N12 Fe1 1_555 1_555
C1 N2 1_555 1_555
H1 C1 1_555 1_555
C2 C1 1_555 1_555
H2 C2 1_555 1_555
C3 C2 1_555 1_555
H3 C3 1_555 1_555
C4 C3 1_555 1_555
H4 C4 1_555 1_555
C5 N2 1_555 1_555
C6 N3 1_555 1_555
C7 C6 1_555 1_555
H5 C7 1_555 1_555
C8 C7 1_555 1_555
H6 C8 1_555 1_555
C9 C8 1_555 1_555
H7 C9 1_555 1_555
C10 N4 1_555 1_555
H8 C10 1_555 1_555
C11 N3 1_555 1_555
C12 N5 1_555 1_555
C13 N6 1_555 1_555
C14 N8 1_555 1_555
H9 C14 1_555 1_555
C15 C14 1_555 1_555
H10 C15 1_555 1_555
C16 C15 1_555 1_555
C17 C16 1_555 1_555
H11 C17 1_555 1_555
C18 N8 1_555 1_555
H12 C18 1_555 1_555
C19 N10 1_555 1_555
C20 C19 1_555 1_555
H13 C20 1_555 1_555
C21 C20 1_555 1_555
H14 C21 1_555 1_555
C22 C21 1_555 1_555
H15 C22 1_555 1_555
C23 N9 1_555 1_555
H16 C23 1_555 1_555
C24 N10 1_555 1_555
C25 C24 1_555 1_555
H17 C25 1_555 1_555
C26 C25 1_555 1_555
H18 C26 1_555 1_555
C27 C26 1_555 1_555
H19 C27 1_555 1_555
C28 N11 1_555 1_555
H20 C28 1_555 1_555
C29 N12 1_555 1_555
Cl1 C31 1_555 1_555
Cl2 C31 1_555 1_555
Cl3 C32 1_555 1_555
Cl4 C32 1_555 1_555
Fe2_2 N2B 1_555 1_555
S1B C30B 1_555 1_555
S2B C29B 1_555 1_555
O1B C16B 1_555 1_555
N1B Fe2 1_555 1_555
N2B C1B 1_555 1_555
N2B_2 Fe2 1_555 1_555
N3B C5B 1_555 1_555
N4B Fe2_2 1_555 1_555
N4B_2 Fe2 1_555 1_555
N5B C11B 1_555 1_555
N6B C12B 1_555 1_555
N7B C11B 1_555 1_555
N8B C12B 1_555 1_555
N9B Fe1 1_555 1_555
N10B C13B 1_555 1_555
N11B Fe1 1_555 1_555
N12B Fe1 1_555 1_555
C1B H1B 1_555 1_555
C2B C1B 1_555 1_555
H2B C2B 1_555 1_555
C3B C2B 1_555 1_555
H3B C3B 1_555 1_555
C4B C3B 1_555 1_555
H4B C4B 1_555 1_555
C5B N2B 1_555 1_555
C6B N3B 1_555 1_555
C7B C6B 1_555 1_555
H5B C7B 1_555 1_555
C8B C7B 1_555 1_555
H6B C8B 1_555 1_555
C9B C8B 1_555 1_555
H7B C9B 1_555 1_555
C10B N4B 1_555 1_555
H8B C10B 1_555 1_555
C11B N3B 1_555 1_555
C12B N5B 1_555 1_555
C13B N6B 1_555 1_555
C14B N8B 1_555 1_555
H9B C14B 1_555 1_555
C15B C14B 1_555 1_555
H10B C15B 1_555 1_555
C16B C15B 1_555 1_555
C17B C16B 1_555 1_555
H11B C17B 1_555 1_555
C18B N8B 1_555 1_555
H12B C18B 1_555 1_555
C19B N9B 1_555 1_555
C20B C19B 1_555 1_555
H13B C20B 1_555 1_555
C21B C20B 1_555 1_555
H14B C21B 1_555 1_555
C22B C21B 1_555 1_555
H15B C22B 1_555 1_555
C23B N9B 1_555 1_555
H16B C23B 1_555 1_555
C24B N10B 1_555 1_555
C25B C24B 1_555 1_555
H17B C25B 1_555 1_555
C26B C25B 1_555 1_555
H18B C26B 1_555 1_555
C27B C26B 1_555 1_555
H19B C27B 1_555 1_555
C28B N11B 1_555 1_555
H20B C28B 1_555 1_555
C29B N12B 1_555 1_555
C30B N1B 1_555 1_555
N4 C6 1_555 1_555
N7 C13 1_555 1_555
N11 C24 1_555 1_555
C4 C5 1_555 1_555
C9 C10 1_555 1_555
C17 C18 1_555 1_555
C22 C23 1_555 1_555
C27 C28 1_555 1_555
N4B C6B 1_555 1_555
N7B C13B 1_555 1_555
N10B C19B 1_555 1_555
N11B C24B 1_555 1_555
C4B C5B 1_555 1_555
C9B C10B 1_555 1_555
C17B C18B 1_555 1_555
C22B C23B 1_555 1_555
C27B C28B 1_555 1_555

#END
