
#######################################################################
#
#                 Cambridge Crystallographic Data Centre
#                                CCDC 
#
#######################################################################
#
# If this CIF has been generated from an entry in the Cambridge 
# Structural Database, then it will include bibliographic, chemical, 
# crystal, experimental, refinement or atomic coordinate data resulting 
# from the CCDC's data processing and validation procedures.
#
#######################################################################

data_ESOYUG
_symmetry_cell_setting           monoclinic
_symmetry_space_group_name_H-M   'P c'
_symmetry_Int_Tables_number      7
_space_group_name_Hall           'P -2yc'
loop_
_symmetry_equiv_pos_site_id
_symmetry_equiv_pos_as_xyz
1 x,y,z
2 x,-y,1/2+z
_cell_length_a                   5.3858(7)
_cell_length_b                   22.685(3)
_cell_length_c                   7.6782(10)
_cell_angle_alpha                90
_cell_angle_beta                 92.261(2)
_cell_angle_gamma                90
_cell_volume                     937.368
loop_
_atom_site_label
_atom_site_type_symbol
_atom_site_fract_x
_atom_site_fract_y
_atom_site_fract_z
Zn1 Zn 0.51187(13) -0.14288(5) 0.25052(10)
N1 N 0.388(2) -0.0606(4) 0.2701(15)
N2 N 0.372(3) 0.0339(4) 0.2695(19)
H1 H 0.4183 0.0696 0.2527
C1 C 0.750(2) -0.1596(4) -0.4186(17)
C2 C 0.969(2) -0.1821(5) -0.2976(16)
H2 H 1.1090 -0.1965 -0.3509
C3 C 0.972(2) -0.1823(5) -0.1358(18)
H3 H 1.1170 -0.1970 -0.0822
C4 C 0.776(3) -0.1622(6) -0.011(2)
C5 C 0.508(3) -0.0147(4) 0.225(2)
H4 H 0.6604 -0.0144 0.1713
C6 C 0.168(3) 0.0196(4) 0.339(2)
H5 H 0.0474 0.0453 0.3776
C7 C 0.162(3) -0.0410(6) 0.3466(19)
H6 H 0.0379 -0.0644 0.3915
O1 O 0.2256(18) -0.1975(4) 0.2901(15)
H7 H 0.1088 -0.1786 0.3268
O2 O 0.560(3) -0.1433(4) -0.3491(18)
O3 O 0.6349(18) -0.1968(4) 0.0421(11)
O4 O 0.791(2) -0.1077(4) 0.0452(15)
O5 O 0.784(2) -0.1645(4) -0.5833(15)
O5_2 O 0.784(2) -0.1645(4) 0.4167(15)
Zn1_2 Zn 0.51187(13) -0.14288(5) -0.74948(10)
Zn2 Zn 0.30384(12) -0.64317(5) 0.44099(10)
N3 N 0.435(2) -0.5621(3) 0.4189(17)
N4 N 0.422(3) -0.4637(5) 0.4202(18)
H8 H 0.3753 -0.4279 0.4359
C8 C 0.021(3) -0.6580(5) 0.7074(15)
C9 C -0.166(2) -0.6789(6) 0.8230(14)
H9 H -0.3105 -0.6940 0.7698
C10 C -0.154(3) -0.6792(6) 1.0063(18)
H10 H -0.2930 -0.6918 1.0644
C11 C 0.057(3) -0.6612(5) 1.1058(17)
C12 C 0.313(3) -0.5110(5) 0.4649(18)
H11 H 0.1648 -0.5112 0.5233
C13 C 0.644(3) -0.4845(6) 0.336(2)
H12 H 0.7674 -0.4620 0.2863
C14 C 0.632(3) -0.5423(4) 0.346(2)
H13 H 0.7542 -0.5670 0.3049
O6 O 0.016(2) -0.6098(3) 0.6521(15)
O7 O 0.190(2) -0.6964(4) 0.6430(14)
O8 O 0.027(2) -0.6613(3) 1.2725(12)
O9 O 0.252(2) -0.6426(3) 1.0467(18)
O10 O 0.598(2) -0.6936(3) 0.4068(14)
H14 H 0.5791 -0.7255 0.4550
O8_2 O 0.027(2) -0.6613(3) 0.2725(12)
Zn2_2 Zn 0.30384(12) -0.64317(5) 1.44099(10)
loop_
_geom_bond_atom_site_label_1
_geom_bond_atom_site_label_2
_geom_bond_site_symmetry_1
_geom_bond_site_symmetry_2
Zn1 N1 1_555 1_555
N1 C5 1_555 1_555
N2 H1 1_555 1_555
C1 C2 1_555 1_555
C2 H2 1_555 1_555
C3 C2 1_555 1_555
H3 C3 1_555 1_555
C4 C3 1_555 1_555
C5 N2 1_555 1_555
H4 C5 1_555 1_555
C6 N2 1_555 1_555
H5 C6 1_555 1_555
C7 N1 1_555 1_555
H6 C7 1_555 1_555
O1 Zn1 1_555 1_555
H7 O1 1_555 1_555
O2 C1 1_555 1_555
O3 Zn1 1_555 1_555
O4 Zn1 1_555 1_555
O5 C1 1_555 1_555
Zn2 N3 1_555 1_555
N3 C12 1_555 1_555
N4 H8 1_555 1_555
C8 C9 1_555 1_555
C9 H9 1_555 1_555
C10 C9 1_555 1_555
H10 C10 1_555 1_555
C11 C10 1_555 1_555
C12 N4 1_555 1_555
H11 C12 1_555 1_555
C13 N4 1_555 1_555
H12 C13 1_555 1_555
C14 N3 1_555 1_555
H13 C14 1_555 1_555
O6 Zn2 1_555 1_555
O7 Zn2 1_555 1_555
O8 C11 1_555 1_555
O9 C11 1_555 1_555
O10 Zn2 1_555 1_555
H14 O10 1_555 1_555
O5_2 Zn1 1_555 1_555
Zn1_2 O5 1_555 1_555
O8_2 Zn2 1_555 1_555
Zn2_2 O8 1_555 1_555
C4 O3 1_555 1_555
C4 O4 1_555 1_555
C6 C7 1_555 1_555
C8 O6 1_555 1_555
C8 O7 1_555 1_555
C13 C14 1_555 1_555

#END
