
#######################################################################
#
#                 Cambridge Crystallographic Data Centre
#                                CCDC 
#
#######################################################################
#
# If this CIF has been generated from an entry in the Cambridge 
# Structural Database, then it will include bibliographic, chemical, 
# crystal, experimental, refinement or atomic coordinate data resulting 
# from the CCDC's data processing and validation procedures.
#
#######################################################################

data_ESOYAN
_symmetry_cell_setting           monoclinic
_symmetry_space_group_name_H-M   'P 21/c'
_symmetry_Int_Tables_number      14
_space_group_name_Hall           '-P 2ybc'
loop_
_symmetry_equiv_pos_site_id
_symmetry_equiv_pos_as_xyz
1 x,y,z
2 -x,1/2+y,1/2-z
3 -x,-y,-z
4 x,1/2-y,1/2+z
_cell_length_a                   4.9047(16)
_cell_length_b                   16.066(5)
_cell_length_c                   18.814(6)
_cell_angle_alpha                90
_cell_angle_beta                 92.298(6)
_cell_angle_gamma                90
_cell_volume                     1481.33
loop_
_atom_site_label
_atom_site_type_symbol
_atom_site_fract_x
_atom_site_fract_y
_atom_site_fract_z
C1 C 0.3749(5) 0.13688(15) 0.54022(12)
C2 C 0.4953(6) 0.20154(16) 0.57766(14)
H1 H 0.6402 0.2305 0.5590
C3 C 0.3989(6) 0.22320(17) 0.64339(14)
H2 H 0.4794 0.2664 0.6696
C4 C 0.1819(6) 0.17976(15) 0.66948(13)
C5 C 0.0727(5) 0.11483(16) 0.62928(13)
H3 H -0.0714 0.0847 0.6471
C6 C 0.0588(6) 0.20059(17) 0.73945(14)
C7 C -0.3764(6) 0.03002(18) 0.27898(15)
H4 H -0.4992 0.0236 0.3150
C8 C -0.3774(6) -0.01474(19) 0.21866(15)
H5 H -0.4975 -0.0574 0.2056
C9 C -0.0473(6) 0.07487(18) 0.21853(14)
H6 H 0.1027 0.1050 0.2041
C10 C -0.0787(7) -0.0180(2) 0.11180(15)
H7 H -0.0318 -0.0764 0.1172
H8 H 0.0834 0.0116 0.0981
C11 C -0.2987(7) -0.00879(18) 0.05392(14)
C12 C -0.3866(7) 0.06836(19) 0.03209(17)
H9 H -0.3108 0.1156 0.0536
C13 C -0.4145(7) -0.07716(19) 0.02124(16)
H10 H -0.3582 -0.1302 0.0352
Co1 Co 0.0000 0.0000 0.5000
Co2 Co -0.03971(7) 0.16904(2) 0.356813(18)
N1 N 0.1648(4) 0.09358(12) 0.56616(10)
N2 N -0.1664(5) 0.08686(15) 0.27952(11)
N3 N -0.1670(5) 0.01467(15) 0.18024(12)
O1 O 0.3122(4) 0.02448(10) 0.43685(9)
O2 O 0.3261(4) 0.17521(10) 0.40353(9)
O3 O 0.7615(3) 0.10408(10) 0.44208(8)
O4 O 0.1526(4) 0.26267(12) 0.77231(10)
O5 O -0.1292(5) 0.15513(13) 0.75912(11)
O6 O -0.2616(4) 0.27148(11) 0.37353(10)
H11 H -0.4416 0.2555 0.3864
H12 H -0.2731 0.3042 0.3308
P1 P 0.45409(13) 0.10661(4) 0.44993(3)
C1B C -0.3749(5) -0.13688(15) 0.45978(12)
C2B C -0.4953(6) -0.20154(16) 0.42234(14)
H1B H -0.6402 -0.2305 0.4410
C3B C -0.3989(6) -0.22320(17) 0.35661(14)
H2B H -0.4794 -0.2664 0.3304
C4B C -0.1819(6) -0.17976(15) 0.33052(13)
C5B C -0.0727(5) -0.11483(16) 0.37072(13)
H3B H 0.0714 -0.0847 0.3529
C6B C -0.0588(6) -0.20059(17) 0.26055(14)
C7B C -0.6236(6) -0.03002(18) -0.27898(15)
H4B H -0.5008 -0.0236 -0.3150
C8B C -0.6226(6) 0.01474(19) -0.21866(15)
H5B H -0.5025 0.0574 -0.2056
C9B C -0.9527(6) -0.07487(18) -0.21853(14)
H6B H -1.1027 -0.1050 -0.2041
C10B C -0.9213(7) 0.0180(2) -0.11180(15)
H7B H -0.9682 0.0764 -0.1172
H8B H -1.0834 -0.0116 -0.0981
C11B C -0.7013(7) 0.00879(18) -0.05392(14)
C12B C -0.6134(7) -0.06836(19) -0.03209(17)
H9B H -0.6892 -0.1156 -0.0536
C13B C -0.5855(7) 0.07716(19) -0.02124(16)
H10B H -0.6418 0.1302 -0.0352
Co1_2 Co 1.0000 0.0000 0.5000
Co1_3 Co -1.0000 0.0000 0.5000
Co2B Co 0.03971(7) -0.16904(2) 0.643187(18)
Co2_2 Co 0.96029(7) 0.16904(2) 0.356813(18)
Co2C Co -0.03971(7) 0.33096(2) 0.856813(18)
Co2B_2 Co -0.96029(7) -0.16904(2) -0.356813(18)
Co2B_3 Co -0.96029(7) -0.16904(2) 0.643187(18)
Co2A Co 0.03971(7) -0.33096(2) 0.143187(18)
N1B N -0.1648(4) -0.09358(12) 0.43384(10)
N2B N -0.8336(5) -0.08686(15) -0.27952(11)
N2B_2 N 0.1664(5) -0.08686(15) 0.72048(11)
N3B N -0.8330(5) -0.01467(15) -0.18024(12)
O1B O -0.3122(4) -0.02448(10) 0.56315(9)
O2B O -0.3261(4) -0.17521(10) 0.59647(9)
O3B O -0.7615(3) -0.10408(10) 0.55792(8)
O3_2 O -0.2385(3) 0.10408(10) 0.44208(8)
O3B_2 O 0.2385(3) -0.10408(10) 0.55792(8)
O4B O -0.1526(4) -0.26267(12) 0.22769(10)
O4C O 0.1526(4) 0.23733(12) 0.27231(10)
O4A O -0.1526(4) -0.23733(12) 0.72769(10)
O5B O 0.1292(5) -0.15513(13) 0.24088(11)
O6B O 0.2616(4) -0.27148(11) 0.62647(10)
H11B H 0.4416 -0.2555 0.6136
H12B H 0.2731 -0.3042 0.6692
P1B P -0.45409(13) -0.10661(4) 0.55007(3)
loop_
_geom_bond_atom_site_label_1
_geom_bond_atom_site_label_2
_geom_bond_site_symmetry_1
_geom_bond_site_symmetry_2
C1 C2 1_555 1_555
C2 H1 1_555 1_555
C3 C2 1_555 1_555
H2 C3 1_555 1_555
C4 C3 1_555 1_555
C5 C4 1_555 1_555
H3 C5 1_555 1_555
C6 C4 1_555 1_555
C7 H4 1_555 1_555
C8 C7 1_555 1_555
H5 C8 1_555 1_555
C9 H6 1_555 1_555
C10 H7 1_555 1_555
H8 C10 1_555 1_555
C11 C10 1_555 1_555
C12 C11 1_555 1_555
H9 C12 1_555 1_555
C13 C11 1_555 1_555
H10 C13 1_555 1_555
Co1 N1 1_555 1_555
Co2 N2 1_555 1_555
N1 C1 1_555 1_555
N2 C7 1_555 1_555
N3 C8 1_555 1_555
O1 Co1 1_555 1_555
O2 Co2 1_555 1_555
O3 P1 1_555 1_555
O4 C6 1_555 1_555
O5 C6 1_555 1_555
O6 Co2 1_555 1_555
H11 O6 1_555 1_555
H12 O6 1_555 1_555
P1 C1 1_555 1_555
C1B C2B 1_555 1_555
C2B H1B 1_555 1_555
C3B C2B 1_555 1_555
H2B C3B 1_555 1_555
C4B C3B 1_555 1_555
C5B C4B 1_555 1_555
H3B C5B 1_555 1_555
C6B C4B 1_555 1_555
C7B H4B 1_555 1_555
C8B C7B 1_555 1_555
H5B C8B 1_555 1_555
C9B H6B 1_555 1_555
C10B H7B 1_555 1_555
H8B C10B 1_555 1_555
C11B C10B 1_555 1_555
C12B C13 1_555 1_555
H9B C12B 1_555 1_555
C13B C12 1_555 1_555
H10B C13B 1_555 1_555
Co1_2 O3 1_555 1_555
Co1_3 O3B 1_555 1_555
Co2B N2B_2 1_555 1_555
Co2_2 O3 1_555 1_555
Co2C O4 1_555 1_555
Co2B_2 N2B 1_555 1_555
Co2B_3 O3B 1_555 1_555
Co2A O4B 1_555 1_555
N1B Co1 1_555 1_555
N2B C7B 1_555 1_555
N3B C8B 1_555 1_555
O1B Co1 1_555 1_555
O2B Co2B 1_555 1_555
O3B P1B 1_555 1_555
O3_2 Co1 1_555 1_555
O3B_2 Co1 1_555 1_555
O4B C6B 1_555 1_555
O4C Co2 1_555 1_555
O4A Co2B 1_555 1_555
O5B C6B 1_555 1_555
O6B Co2B 1_555 1_555
H11B O6B 1_555 1_555
H12B O6B 1_555 1_555
P1B C1B 1_555 1_555
C5 N1 1_555 1_555
C9 N2 1_555 1_555
C9 N3 1_555 1_555
C10 N3 1_555 1_555
Co2 O3_2 1_555 1_555
O1 P1 1_555 1_555
O2 P1 1_555 1_555
C1B N1B 1_555 1_555
C5B N1B 1_555 1_555
C9B N2B 1_555 1_555
C9B N3B 1_555 1_555
C10B N3B 1_555 1_555
C11B C12B 1_555 1_555
C11B C13B 1_555 1_555
Co2B O3B_2 1_555 1_555
O1B P1B 1_555 1_555
O2B P1B 1_555 1_555

#END
