
#######################################################################
#
#                 Cambridge Crystallographic Data Centre
#                                CCDC 
#
#######################################################################
#
# If this CIF has been generated from an entry in the Cambridge 
# Structural Database, then it will include bibliographic, chemical, 
# crystal, experimental, refinement or atomic coordinate data resulting 
# from the CCDC's data processing and validation procedures.
#
#######################################################################

data_ESOYUH01
_symmetry_cell_setting           monoclinic
_symmetry_space_group_name_H-M   'P 21/c'
_symmetry_Int_Tables_number      14
_space_group_name_Hall           '-P 2ybc'
loop_
_symmetry_equiv_pos_site_id
_symmetry_equiv_pos_as_xyz
1 x,y,z
2 -x,1/2+y,1/2-z
3 -x,-y,-z
4 x,1/2-y,1/2+z
_cell_length_a                   17.4517(7)
_cell_length_b                   14.2927(5)
_cell_length_c                   15.6593(6)
_cell_angle_alpha                90
_cell_angle_beta                 97.822(2)
_cell_angle_gamma                90
_cell_volume                     3869.59
loop_
_atom_site_label
_atom_site_type_symbol
_atom_site_fract_x
_atom_site_fract_y
_atom_site_fract_z
Fe1 Fe 0.5000 0.5000 0.0000
Fe2 Fe 0.0000 0.5000 0.0000
S1 S 0.18280(11) 0.38724(19) 0.22862(15)
S2 S 0.67864(11) 0.71619(14) 0.15044(15)
O1 O 0.2436(3) -0.1284(3) 0.1467(4)
N1 N 0.0793(3) 0.4495(3) 0.0889(4)
N2 N -0.0016(3) 0.3825(3) -0.0719(4)
N3 N 0.1315(3) 0.3988(3) -0.0699(4)
N4 N 0.0796(3) 0.5495(3) -0.0698(3)
N5 N 0.1888(3) 0.2695(3) 0.0022(4)
N6 N 0.3131(3) 0.2877(3) 0.0844(4)
N7 N 0.2493(2) 0.4190(3) 0.0129(3)
N8 N 0.2507(3) 0.1440(4) 0.0735(4)
N9 N 0.4141(3) 0.5754(3) 0.0428(4)
N10 N 0.3670(3) 0.4372(3) 0.0962(4)
N11 N 0.5016(3) 0.4237(3) 0.1098(4)
N12 N 0.5753(3) 0.5869(4) 0.0652(4)
C1 C -0.0681(3) 0.3380(5) -0.1000(4)
H1 H -0.1151 0.3650 -0.0876
C2 C -0.0717(4) 0.2561(5) -0.1454(5)
H2 H -0.1195 0.2244 -0.1605
C3 C -0.0032(4) 0.2205(5) -0.1688(5)
H3 H -0.0036 0.1648 -0.2019
C4 C 0.0645(4) 0.2669(5) -0.1434(5)
H4 H 0.1119 0.2445 -0.1593
C5 C 0.0628(3) 0.3465(4) -0.0946(5)
C6 C 0.1340(3) 0.4955(4) -0.0931(4)
C7 C 0.1897(4) 0.5254(5) -0.1405(5)
H5 H 0.2275 0.4833 -0.1563
C8 C 0.1897(4) 0.6190(5) -0.1650(5)
H6 H 0.2278 0.6429 -0.1972
C9 C 0.1318(4) 0.6765(5) -0.1408(5)
H7 H 0.1301 0.7410 -0.1556
C10 C 0.0778(4) 0.6391(4) -0.0957(5)
H8 H 0.0371 0.6781 -0.0820
C11 C 0.1928(3) 0.3604(4) -0.0168(4)
C12 C 0.2509(3) 0.2402(4) 0.0512(4)
C13 C 0.3064(3) 0.3787(4) 0.0638(4)
C14 C 0.2022(5) 0.0817(5) 0.0260(7)
H9 H 0.1682 0.1040 -0.0222
C15 C 0.2015(5) -0.0100(5) 0.0457(8)
H10 H 0.1710 -0.0517 0.0081
C16 C 0.2459(4) -0.0455(5) 0.1222(6)
C17 C 0.2970(4) 0.0215(5) 0.1680(6)
H11 H 0.3310 0.0016 0.2172
C18 C 0.2983(4) 0.1123(5) 0.1435(5)
H12 H 0.3330 0.1545 0.1757
C19 C 0.3597(3) 0.5347(4) 0.0826(4)
C20 C 0.3015(4) 0.5834(5) 0.1125(5)
H13 H 0.2642 0.5519 0.1409
C21 C 0.2978(4) 0.6787(5) 0.1007(5)
H14 H 0.2572 0.7142 0.1196
C22 C 0.3542(4) 0.7219(5) 0.0607(5)
H15 H 0.3533 0.7877 0.0521
C23 C 0.4103(4) 0.6698(4) 0.0343(5)
H16 H 0.4494 0.7006 0.0082
C24 C 0.4369(3) 0.4016(4) 0.1420(5)
C25 C 0.4349(4) 0.3522(5) 0.2175(5)
H17 H 0.3871 0.3395 0.2379
C26 C 0.5044(4) 0.3216(5) 0.2629(6)
H18 H 0.5054 0.2863 0.3145
C27 C 0.5731(4) 0.3444(5) 0.2300(5)
H19 H 0.6218 0.3243 0.2586
C28 C 0.5686(3) 0.3954(4) 0.1572(5)
H20 H 0.6157 0.4129 0.1376
C29 C 0.6168(4) 0.6407(5) 0.1013(5)
C30 C 0.1216(3) 0.4226(5) 0.1477(5)
Fe2_2 Fe 1.0000 0.5000 0.0000
S1B S -0.18280(11) 0.61276(19) -0.22862(15)
S2B S 0.32136(11) 0.28381(14) -0.15044(15)
O1B O 0.7564(3) 1.1284(3) -0.1467(4)
N1B N -0.0793(3) 0.5505(3) -0.0889(4)
N2B N 1.0016(3) 0.6175(3) 0.0719(4)
N2B_2 N 0.0016(3) 0.6175(3) 0.0719(4)
N3B N 0.8685(3) 0.6012(3) 0.0699(4)
N4B N 0.9204(3) 0.4505(3) 0.0698(3)
N4B_2 N -0.0796(3) 0.4505(3) 0.0698(3)
N5B N 0.8112(3) 0.7305(3) -0.0022(4)
N6B N 0.6869(3) 0.7123(3) -0.0844(4)
N7B N 0.7507(2) 0.5810(3) -0.0129(3)
N8B N 0.7493(3) 0.8560(4) -0.0735(4)
N9B N 0.5859(3) 0.4246(3) -0.0428(4)
N10B N 0.6330(3) 0.5628(3) -0.0962(4)
N11B N 0.4984(3) 0.5763(3) -0.1098(4)
N12B N 0.4247(3) 0.4131(4) -0.0652(4)
C1B C 1.0681(3) 0.6620(5) 0.1000(4)
H1B H 1.1151 0.6350 0.0876
C2B C 1.0717(4) 0.7439(5) 0.1454(5)
H2B H 1.1195 0.7756 0.1605
C3B C 1.0032(4) 0.7795(5) 0.1688(5)
H3B H 1.0036 0.8352 0.2019
C4B C 0.9355(4) 0.7331(5) 0.1434(5)
H4B H 0.8881 0.7555 0.1593
C5B C 0.9372(3) 0.6535(4) 0.0946(5)
C6B C 0.8660(3) 0.5045(4) 0.0931(4)
C7B C 0.8103(4) 0.4746(5) 0.1405(5)
H5B H 0.7725 0.5167 0.1563
C8B C 0.8103(4) 0.3810(5) 0.1650(5)
H6B H 0.7722 0.3571 0.1972
C9B C 0.8682(4) 0.3235(5) 0.1408(5)
H7B H 0.8699 0.2590 0.1556
C10B C 0.9222(4) 0.3609(4) 0.0957(5)
H8B H 0.9629 0.3219 0.0820
C11B C 0.8072(3) 0.6396(4) 0.0168(4)
C12B C 0.7491(3) 0.7598(4) -0.0512(4)
C13B C 0.6936(3) 0.6213(4) -0.0638(4)
C14B C 0.7978(5) 0.9183(5) -0.0260(7)
H9B H 0.8318 0.8960 0.0222
C15B C 0.7985(5) 1.0100(5) -0.0457(8)
H10B H 0.8290 1.0517 -0.0081
C16B C 0.7541(4) 1.0455(5) -0.1222(6)
C17B C 0.7030(4) 0.9785(5) -0.1680(6)
H11B H 0.6690 0.9984 -0.2172
C18B C 0.7017(4) 0.8877(5) -0.1435(5)
H12B H 0.6670 0.8455 -0.1757
C19B C 0.6403(3) 0.4653(4) -0.0826(4)
C20B C 0.6985(4) 0.4166(5) -0.1125(5)
H13B H 0.7358 0.4481 -0.1409
C21B C 0.7022(4) 0.3213(5) -0.1007(5)
H14B H 0.7428 0.2858 -0.1196
C22B C 0.6458(4) 0.2781(5) -0.0607(5)
H15B H 0.6467 0.2123 -0.0521
C23B C 0.5897(4) 0.3302(4) -0.0343(5)
H16B H 0.5506 0.2994 -0.0082
C24B C 0.5631(3) 0.5984(4) -0.1420(5)
C25B C 0.5651(4) 0.6478(5) -0.2175(5)
H17B H 0.6129 0.6605 -0.2379
C26B C 0.4956(4) 0.6784(5) -0.2629(6)
H18B H 0.4946 0.7137 -0.3145
C27B C 0.4269(4) 0.6556(5) -0.2300(5)
H19B H 0.3782 0.6757 -0.2586
C28B C 0.4314(3) 0.6046(4) -0.1572(5)
H20B H 0.3843 0.5871 -0.1376
C29B C 0.3832(4) 0.3593(5) -0.1013(5)
C30B C -0.1216(3) 0.5774(5) -0.1477(5)
Cl1 Cl 0.5282(5) 0.6306(4) 0.4591(6)
Cl2 Cl 0.4971(2) 0.5903(3) 0.2754(3)
C31 C 0.5029(13) 0.5510(11) 0.3785(6)
Cl3 Cl 0.3213(13) 0.4781(11) 0.4206(14)
Cl4 Cl 0.2870(6) 0.6523(6) 0.3376(7)
C32 C 0.2659(16) 0.5759(15) 0.4127(13)
Cl5? Cl -0.0167(11) 0.1222(17) 0.0510(15)
Cl6? Cl 0.019(2) 0.142(3) 0.0475(15)
Cl7? Cl 0.0094(7) 0.1350(9) 0.0457(9)
Cl8? Cl 0.0396(13) 0.0275(10) 0.2071(10)
Cl9? Cl -0.0273(16) 0.045(2) 0.194(2)
Cl10? Cl -0.0169(10) 0.0453(8) 0.2089(10)
C33? C -0.0350(19) 0.043(4) 0.126(3)
H21? H -0.0475 -0.0180 0.0976
H22? H -0.0812 0.0634 0.1518
C34? C 0.0444(7) 0.0982(15) 0.1476(9)
H23? H 0.0658 0.1498 0.1859
H24? H 0.0865 0.0523 0.1449
C35? C 0.0444(7) 0.0982(15) 0.1476(9)
H25? H 0.0873 0.0542 0.1427
H26? H 0.0670 0.1533 0.1801
Cl11? Cl 0.4176(14) 0.576(2) 0.3169(18)
Cl12? Cl 0.2279(14) 0.6154(14) 0.3140(12)
loop_
_geom_bond_atom_site_label_1
_geom_bond_atom_site_label_2
_geom_bond_site_symmetry_1
_geom_bond_site_symmetry_2
Fe1 N9 1_555 1_555
Fe2 N1 1_555 1_555
S1 C30 1_555 1_555
S2 C29 1_555 1_555
O1 C16 1_555 1_555
N1 C30 1_555 1_555
N2 Fe2 1_555 1_555
N3 C5 1_555 1_555
N4 Fe2 1_555 1_555
N5 C11 1_555 1_555
N6 C12 1_555 1_555
N7 C11 1_555 1_555
N8 C12 1_555 1_555
N9 C19 1_555 1_555
N10 C13 1_555 1_555
N11 Fe1 1_555 1_555
N12 Fe1 1_555 1_555
C1 N2 1_555 1_555
H1 C1 1_555 1_555
C2 C1 1_555 1_555
H2 C2 1_555 1_555
C3 C2 1_555 1_555
H3 C3 1_555 1_555
C4 C3 1_555 1_555
H4 C4 1_555 1_555
C5 N2 1_555 1_555
C6 N3 1_555 1_555
C7 C6 1_555 1_555
H5 C7 1_555 1_555
C8 C7 1_555 1_555
H6 C8 1_555 1_555
C9 C8 1_555 1_555
H7 C9 1_555 1_555
C10 N4 1_555 1_555
H8 C10 1_555 1_555
C11 N3 1_555 1_555
C12 N5 1_555 1_555
C13 N6 1_555 1_555
C14 N8 1_555 1_555
H9 C14 1_555 1_555
C15 C14 1_555 1_555
H10 C15 1_555 1_555
C16 C15 1_555 1_555
C17 C16 1_555 1_555
H11 C17 1_555 1_555
C18 N8 1_555 1_555
H12 C18 1_555 1_555
C19 N10 1_555 1_555
C20 C19 1_555 1_555
H13 C20 1_555 1_555
C21 C20 1_555 1_555
H14 C21 1_555 1_555
C22 C21 1_555 1_555
H15 C22 1_555 1_555
C23 N9 1_555 1_555
H16 C23 1_555 1_555
C24 N10 1_555 1_555
C25 C24 1_555 1_555
H17 C25 1_555 1_555
C26 C25 1_555 1_555
H18 C26 1_555 1_555
C27 C26 1_555 1_555
H19 C27 1_555 1_555
C28 N11 1_555 1_555
H20 C28 1_555 1_555
C29 N12 1_555 1_555
Cl1 C31 1_555 1_555
Cl2 C31 1_555 1_555
Cl3 C32 1_555 1_555
Cl4 C32 1_555 1_555
Fe2_2 N2B 1_555 1_555
S1B C30B 1_555 1_555
S2B C29B 1_555 1_555
O1B C16B 1_555 1_555
N1B Fe2 1_555 1_555
N2B C1B 1_555 1_555
N2B_2 Fe2 1_555 1_555
N3B C5B 1_555 1_555
N4B Fe2_2 1_555 1_555
N4B_2 Fe2 1_555 1_555
N5B C11B 1_555 1_555
N6B C12B 1_555 1_555
N7B C11B 1_555 1_555
N8B C12B 1_555 1_555
N9B Fe1 1_555 1_555
N10B C13B 1_555 1_555
N11B Fe1 1_555 1_555
N12B Fe1 1_555 1_555
C1B H1B 1_555 1_555
C2B C1B 1_555 1_555
H2B C2B 1_555 1_555
C3B C2B 1_555 1_555
H3B C3B 1_555 1_555
C4B C3B 1_555 1_555
H4B C4B 1_555 1_555
C5B N2B 1_555 1_555
C6B N3B 1_555 1_555
C7B C6B 1_555 1_555
H5B C7B 1_555 1_555
C8B C7B 1_555 1_555
H6B C8B 1_555 1_555
C9B C8B 1_555 1_555
H7B C9B 1_555 1_555
C10B N4B 1_555 1_555
H8B C10B 1_555 1_555
C11B N3B 1_555 1_555
C12B N5B 1_555 1_555
C13B N6B 1_555 1_555
C14B N8B 1_555 1_555
H9B C14B 1_555 1_555
C15B C14B 1_555 1_555
H10B C15B 1_555 1_555
C16B C15B 1_555 1_555
C17B C16B 1_555 1_555
H11B C17B 1_555 1_555
C18B N8B 1_555 1_555
H12B C18B 1_555 1_555
C19B N9B 1_555 1_555
C20B C19B 1_555 1_555
H13B C20B 1_555 1_555
C21B C20B 1_555 1_555
H14B C21B 1_555 1_555
C22B C21B 1_555 1_555
H15B C22B 1_555 1_555
C23B N9B 1_555 1_555
H16B C23B 1_555 1_555
C24B N10B 1_555 1_555
C25B C24B 1_555 1_555
H17B C25B 1_555 1_555
C26B C25B 1_555 1_555
H18B C26B 1_555 1_555
C27B C26B 1_555 1_555
H19B C27B 1_555 1_555
C28B N11B 1_555 1_555
H20B C28B 1_555 1_555
C29B N12B 1_555 1_555
C30B N1B 1_555 1_555
N4 C6 1_555 1_555
N7 C13 1_555 1_555
N11 C24 1_555 1_555
C4 C5 1_555 1_555
C9 C10 1_555 1_555
C17 C18 1_555 1_555
C22 C23 1_555 1_555
C27 C28 1_555 1_555
N4B C6B 1_555 1_555
N7B C13B 1_555 1_555
N10B C19B 1_555 1_555
N11B C24B 1_555 1_555
C4B C5B 1_555 1_555
C9B C10B 1_555 1_555
C17B C18B 1_555 1_555
C22B C23B 1_555 1_555
C27B C28B 1_555 1_555

#END
