
#######################################################################
#
#                 Cambridge Crystallographic Data Centre
#                                CCDC 
#
#######################################################################
#
# If this CIF has been generated from an entry in the Cambridge 
# Structural Database, then it will include bibliographic, chemical, 
# crystal, experimental, refinement or atomic coordinate data resulting 
# from the CCDC's data processing and validation procedures.
#
#######################################################################

data_ESOZOC03
_symmetry_cell_setting           monoclinic
_symmetry_space_group_name_H-M   'P 21/c'
_symmetry_Int_Tables_number      14
_space_group_name_Hall           '-P 2ybc'
loop_
_symmetry_equiv_pos_site_id
_symmetry_equiv_pos_as_xyz
1 x,y,z
2 -x,1/2+y,1/2-z
3 -x,-y,-z
4 x,1/2-y,1/2+z
_cell_length_a                   17.540(2)
_cell_length_b                   14.392(4)
_cell_length_c                   16.157(2)
_cell_angle_alpha                90
_cell_angle_beta                 98.534(2)
_cell_angle_gamma                90
_cell_volume                     4033.44
loop_
_atom_site_label
_atom_site_type_symbol
_atom_site_fract_x
_atom_site_fract_y
_atom_site_fract_z
Fe1 Fe 0.0000 0.5000 0.5000
Fe2 Fe 0.5000 0.5000 0.5000
S1 S 0.31015(11) 0.39486(16) 0.26937(15)
S2 S -0.17953(11) 0.71640(14) 0.34600(15)
N1 N 0.1862(3) 0.2883(3) 0.4196(3)
N2 N 0.0906(3) 0.5768(3) 0.4590(4)
N3 N 0.5011(3) 0.3748(4) 0.5765(4)
N4 N 0.0007(3) 0.4222(3) 0.3875(4)
N5 N 0.4153(3) 0.5482(3) 0.5734(4)
N6 N 0.3683(3) 0.3938(3) 0.5741(4)
N7 N 0.2518(3) 0.4171(3) 0.4905(3)
N8 N 0.2446(3) 0.1422(3) 0.4332(4)
N9 N 0.4164(3) 0.4460(4) 0.4075(4)
N10 N 0.3092(3) 0.2661(3) 0.5027(3)
N11 N 0.1355(3) 0.4368(3) 0.4062(4)
N12 N -0.0757(3) 0.5901(4) 0.4333(4)
C1 C 0.4343(4) 0.2614(5) 0.6459(5)
H1 H 0.3878 0.2404 0.6616
C2 C 0.1936(3) 0.3780(4) 0.4398(4)
C3 C 0.2472(3) 0.2394(4) 0.4537(4)
C4 C 0.3109(4) 0.5166(5) 0.6486(5)
H2 H 0.2770 0.4731 0.6668
C5 C -0.1182(4) 0.6431(5) 0.3963(4)
O1 O 0.2555(3) -0.1262(3) 0.3566(4)
C6 C 0.5026(5) 0.2123(5) 0.6698(5)
H3 H 0.5026 0.1564 0.6999
C7 C 0.3067(3) 0.3577(4) 0.5211(4)
C8 C 0.2013(4) 0.0235(4) 0.3369(6)
H4 H 0.1693 0.0056 0.2875
C9 C 0.3602(5) 0.6704(5) 0.6454(5)
H5 H 0.3594 0.7337 0.6599
C10 C 0.5701(5) 0.2476(5) 0.6481(6)
H6 H 0.6172 0.2167 0.6640
C11 C 0.4132(4) 0.6371(5) 0.5989(5)
H7 H 0.4502 0.6785 0.5839
C12 C 0.4361(3) 0.3405(4) 0.5995(4)
C13 C 0.1993(4) 0.1119(4) 0.3617(5)
H8 H 0.1663 0.1540 0.3296
C14 C 0.2911(4) 0.0801(4) 0.4809(5)
H9 H 0.3220 0.1003 0.5302
C15 C 0.5674(4) 0.3289(5) 0.6027(5)
H10 H 0.6137 0.3534 0.5895
C16 C 0.3734(4) 0.4246(4) 0.3493(5)
C17 C -0.0659(4) 0.3949(5) 0.3389(5)
H11 H -0.1130 0.4094 0.3570
C18 C 0.1436(3) 0.5360(4) 0.4207(5)
C19 C 0.3642(4) 0.4897(4) 0.5996(4)
C20 C 0.0665(3) 0.4029(4) 0.3571(4)
C21 C 0.0693(4) 0.3569(5) 0.2831(5)
H12 H 0.1166 0.3460 0.2642
C22 C 0.3077(5) 0.6091(5) 0.6707(6)
H13 H 0.2703 0.6299 0.7025
C23 C 0.1526(4) 0.7222(5) 0.4413(5)
H14 H 0.1546 0.7868 0.4498
C24 C 0.0959(4) 0.6702(4) 0.4676(5)
H15 H 0.0583 0.7010 0.4932
C25 C 0.2498(4) -0.0450(4) 0.3821(5)
C26 C 0.2929(4) -0.0107(5) 0.4577(6)
H16 H 0.3237 -0.0524 0.4929
C27 C -0.0678(4) 0.3473(5) 0.2649(6)
H17 H -0.1150 0.3287 0.2339
C28 C 0.2023(4) 0.5836(5) 0.3910(5)
H18 H 0.2383 0.5521 0.3636
C29 C 0.2065(4) 0.6780(4) 0.4023(6)
H19 H 0.2463 0.7122 0.3834
C30 C 0.0009(4) 0.3272(5) 0.2372(6)
H20 H 0.0013 0.2935 0.1875
Fe2_2 Fe -0.5000 0.5000 0.5000
S1B S 0.68985(11) 0.60514(16) 0.73063(15)
S2B S 0.17953(11) 0.28360(14) 0.65400(15)
N1B N -0.1862(3) 0.7117(3) 0.5804(3)
N2B N -0.0906(3) 0.4232(3) 0.5410(4)
N3B N -0.5011(3) 0.6252(4) 0.4235(4)
N3B_2 N 0.4989(3) 0.6252(4) 0.4235(4)
N4B N -0.0007(3) 0.5778(3) 0.6125(4)
N5B N -0.4153(3) 0.4518(3) 0.4266(4)
N5B_2 N 0.5847(3) 0.4518(3) 0.4266(4)
N6B N -0.3683(3) 0.6062(3) 0.4259(4)
N7B N -0.2518(3) 0.5829(3) 0.5095(3)
N8B N -0.2446(3) 0.8578(3) 0.5668(4)
N9B N 0.5836(3) 0.5540(4) 0.5925(4)
N10B N -0.3092(3) 0.7339(3) 0.4973(3)
N11B N -0.1355(3) 0.5632(3) 0.5938(4)
N12B N 0.0757(3) 0.4099(4) 0.5667(4)
C1B C -0.4343(4) 0.7386(5) 0.3541(5)
H1B H -0.3878 0.7596 0.3384
C2B C -0.1936(3) 0.6220(4) 0.5602(4)
C3B C -0.2472(3) 0.7606(4) 0.5463(4)
C4B C -0.3109(4) 0.4834(5) 0.3514(5)
H2B H -0.2770 0.5269 0.3332
C5B C 0.1182(4) 0.3569(5) 0.6037(4)
O1B O -0.2555(3) 1.1262(3) 0.6434(4)
C6B C -0.5026(5) 0.7877(5) 0.3302(5)
H3B H -0.5026 0.8436 0.3001
C7B C -0.3067(3) 0.6423(4) 0.4789(4)
C8B C -0.2013(4) 0.9765(4) 0.6631(6)
H4B H -0.1693 0.9944 0.7125
C9B C -0.3602(5) 0.3296(5) 0.3546(5)
H5B H -0.3594 0.2663 0.3401
C10B C -0.5701(5) 0.7524(5) 0.3519(6)
H6B H -0.6172 0.7833 0.3360
C11B C -0.4132(4) 0.3629(5) 0.4011(5)
H7B H -0.4502 0.3215 0.4161
C12B C -0.4361(3) 0.6595(4) 0.4005(4)
C13B C -0.1993(4) 0.8881(4) 0.6383(5)
H8B H -0.1663 0.8460 0.6704
C14B C -0.2911(4) 0.9199(4) 0.5191(5)
H9B H -0.3220 0.8997 0.4698
C15B C -0.5674(4) 0.6711(5) 0.3973(5)
H10B H -0.6137 0.6466 0.4105
C16B C 0.6266(4) 0.5754(4) 0.6507(5)
C17B C 0.0659(4) 0.6051(5) 0.6611(5)
H11B H 0.1130 0.5906 0.6430
C18B C -0.1436(3) 0.4640(4) 0.5793(5)
C19B C -0.3642(4) 0.5103(4) 0.4004(4)
C20B C -0.0665(3) 0.5971(4) 0.6429(4)
C21B C -0.0693(4) 0.6431(5) 0.7169(5)
H12B H -0.1166 0.6540 0.7358
C22B C -0.3077(5) 0.3909(5) 0.3293(6)
H13B H -0.2703 0.3701 0.2975
C23B C -0.1526(4) 0.2778(5) 0.5587(5)
H14B H -0.1546 0.2132 0.5502
C24B C -0.0959(4) 0.3298(4) 0.5324(5)
H15B H -0.0583 0.2990 0.5068
C25B C -0.2498(4) 1.0450(4) 0.6179(5)
C26B C -0.2929(4) 1.0107(5) 0.5423(6)
H16B H -0.3237 1.0524 0.5071
C27B C 0.0678(4) 0.6527(5) 0.7351(6)
H17B H 0.1150 0.6713 0.7661
C28B C -0.2023(4) 0.4164(5) 0.6090(5)
H18B H -0.2383 0.4479 0.6364
C29B C -0.2065(4) 0.3220(4) 0.5977(6)
H19B H -0.2463 0.2878 0.6166
C30B C -0.0009(4) 0.6728(5) 0.7628(6)
H20B H -0.0013 0.7065 0.8125
Cl1 Cl 0.50522(18) 0.3736(2) 0.9696(2)
Cl2 Cl 0.3981(2) 0.3364(3) 0.8275(2)
Cl3 Cl 0.5340(3) 0.4485(2) 0.8121(3)
C31 C 0.4646(5) 0.4173(7) 0.8731(5)
H21 H 0.4359 0.4743 0.8835
Cl4 Cl 0.1298(7) 0.4918(8) 0.0865(8)
Cl5 Cl 0.0662(6) 0.5933(6) 0.2069(6)
Cl6 Cl 0.2044(7) 0.6513(7) 0.1553(8)
C32 C 0.1503(8) 0.5562(9) 0.1751(10)
H22 H 0.1798 0.5180 0.2197
C33 C -0.045(2) 0.630(3) -0.068(2)
O2 O -0.0519(19) 0.618(2) 0.016(2)
C34? C 0.0355(7) 0.5771(13) 0.1363(7)
Cl7? Cl 0.1320(6) 0.6014(12) 0.1430(10)
Cl8? Cl -0.0141(5) 0.6460(6) 0.0623(5)
Cl9? Cl 0.0090(4) 0.5937(4) 0.2330(4)
H23? H 0.0266 0.5113 0.1197
loop_
_geom_bond_atom_site_label_1
_geom_bond_atom_site_label_2
_geom_bond_site_symmetry_1
_geom_bond_site_symmetry_2
Fe1 N2 1_555 1_555
Fe2 N3 1_555 1_555
S1 C16 1_555 1_555
S2 C5 1_555 1_555
N1 C2 1_555 1_555
N2 C18 1_555 1_555
N3 C12 1_555 1_555
N4 Fe1 1_555 1_555
N5 Fe2 1_555 1_555
N6 C7 1_555 1_555
N7 C2 1_555 1_555
N8 C3 1_555 1_555
N9 Fe2 1_555 1_555
N10 C3 1_555 1_555
N11 C2 1_555 1_555
N12 Fe1 1_555 1_555
C1 H1 1_555 1_555
C3 N1 1_555 1_555
C4 H2 1_555 1_555
C5 N12 1_555 1_555
O1 C25 1_555 1_555
C6 C1 1_555 1_555
H3 C6 1_555 1_555
C7 N7 1_555 1_555
C8 H4 1_555 1_555
C9 H5 1_555 1_555
C10 C6 1_555 1_555
H6 C10 1_555 1_555
C11 N5 1_555 1_555
H7 C11 1_555 1_555
C12 N6 1_555 1_555
C13 N8 1_555 1_555
H8 C13 1_555 1_555
C14 N8 1_555 1_555
H9 C14 1_555 1_555
C15 N3 1_555 1_555
H10 C15 1_555 1_555
C16 N9 1_555 1_555
C17 N4 1_555 1_555
H11 C17 1_555 1_555
C18 N11 1_555 1_555
C19 N5 1_555 1_555
C20 N4 1_555 1_555
C21 C20 1_555 1_555
H12 C21 1_555 1_555
C22 C4 1_555 1_555
H13 C22 1_555 1_555
C23 H14 1_555 1_555
C24 N2 1_555 1_555
H15 C24 1_555 1_555
C25 C8 1_555 1_555
C26 C14 1_555 1_555
H16 C26 1_555 1_555
C27 C17 1_555 1_555
H17 C27 1_555 1_555
C28 C18 1_555 1_555
H18 C28 1_555 1_555
C29 C23 1_555 1_555
H19 C29 1_555 1_555
C30 C21 1_555 1_555
H20 C30 1_555 1_555
Cl1 C31 1_555 1_555
Cl2 C31 1_555 1_555
Cl3 C31 1_555 1_555
C31 H21 1_555 1_555
Cl4 C32 1_555 1_555
Cl5 C32 1_555 1_555
Cl6 C32 1_555 1_555
C32 H22 1_555 1_555
C33 O2 1_555 1_555
Fe2_2 N3B 1_555 1_555
S1B C16B 1_555 1_555
S2B C5B 1_555 1_555
N1B C2B 1_555 1_555
N2B Fe1 1_555 1_555
N3B C12B 1_555 1_555
N3B_2 Fe2 1_555 1_555
N4B Fe1 1_555 1_555
N5B Fe2_2 1_555 1_555
N5B_2 Fe2 1_555 1_555
N6B C7B 1_555 1_555
N7B C2B 1_555 1_555
N8B C3B 1_555 1_555
N9B Fe2 1_555 1_555
N10B C3B 1_555 1_555
N11B C2B 1_555 1_555
N12B Fe1 1_555 1_555
C1B H1B 1_555 1_555
C3B N1B 1_555 1_555
C4B H2B 1_555 1_555
C5B N12B 1_555 1_555
O1B C25B 1_555 1_555
C6B C1B 1_555 1_555
H3B C6B 1_555 1_555
C7B N7B 1_555 1_555
C8B H4B 1_555 1_555
C9B H5B 1_555 1_555
C10B C6B 1_555 1_555
H6B C10B 1_555 1_555
C11B N5B 1_555 1_555
H7B C11B 1_555 1_555
C12B N6B 1_555 1_555
C13B N8B 1_555 1_555
H8B C13B 1_555 1_555
C14B N8B 1_555 1_555
H9B C14B 1_555 1_555
C15B N3B 1_555 1_555
H10B C15B 1_555 1_555
C16B N9B 1_555 1_555
C17B N4B 1_555 1_555
H11B C17B 1_555 1_555
C18B N2B 1_555 1_555
C19B N5B 1_555 1_555
C20B N4B 1_555 1_555
C21B C20B 1_555 1_555
H12B C21B 1_555 1_555
C22B C4B 1_555 1_555
H13B C22B 1_555 1_555
C23B H14B 1_555 1_555
C24B N2B 1_555 1_555
H15B C24B 1_555 1_555
C25B C8B 1_555 1_555
C26B C14B 1_555 1_555
H16B C26B 1_555 1_555
C27B C17B 1_555 1_555
H17B C27B 1_555 1_555
C28B C18B 1_555 1_555
H18B C28B 1_555 1_555
C29B C23B 1_555 1_555
H19B C29B 1_555 1_555
C30B C21B 1_555 1_555
H20B C30B 1_555 1_555
N6 C19 1_555 1_555
N10 C7 1_555 1_555
N11 C20 1_555 1_555
C1 C12 1_555 1_555
C4 C19 1_555 1_555
C8 C13 1_555 1_555
C9 C11 1_555 1_555
C9 C22 1_555 1_555
C10 C15 1_555 1_555
C23 C24 1_555 1_555
C25 C26 1_555 1_555
C27 C30 1_555 1_555
C28 C29 1_555 1_555
N6B C19B 1_555 1_555
N10B C7B 1_555 1_555
N11B C18B 1_555 1_555
N11B C20B 1_555 1_555
C1B C12B 1_555 1_555
C4B C19B 1_555 1_555
C8B C13B 1_555 1_555
C9B C11B 1_555 1_555
C9B C22B 1_555 1_555
C10B C15B 1_555 1_555
C23B C24B 1_555 1_555
C25B C26B 1_555 1_555
C27B C30B 1_555 1_555
C28B C29B 1_555 1_555

#END
