
#######################################################################
#
#                 Cambridge Crystallographic Data Centre
#                                CCDC 
#
#######################################################################
#
# If this CIF has been generated from an entry in the Cambridge 
# Structural Database, then it will include bibliographic, chemical, 
# crystal, experimental, refinement or atomic coordinate data resulting 
# from the CCDC's data processing and validation procedures.
#
#######################################################################

data_ESOZOC
_symmetry_cell_setting           monoclinic
_symmetry_space_group_name_H-M   'P 21/c'
_symmetry_Int_Tables_number      14
_space_group_name_Hall           '-P 2ybc'
loop_
_symmetry_equiv_pos_site_id
_symmetry_equiv_pos_as_xyz
1 x,y,z
2 -x,1/2+y,1/2-z
3 -x,-y,-z
4 x,1/2-y,1/2+z
_cell_length_a                   17.3885(14)
_cell_length_b                   14.3236(8)
_cell_length_c                   16.0358(13)
_cell_angle_alpha                90
_cell_angle_beta                 97.959(2)
_cell_angle_gamma                90
_cell_volume                     3955.5
loop_
_atom_site_label
_atom_site_type_symbol
_atom_site_fract_x
_atom_site_fract_y
_atom_site_fract_z
Fe1 Fe 0.0000 0.5000 0.5000
Fe2 Fe 0.5000 0.5000 0.5000
S1 S 0.31007(15) 0.39337(18) 0.27210(17)
S2 S -0.17601(14) 0.71121(16) 0.34290(16)
N1 N 0.1854(4) 0.2867(4) 0.4231(4)
N2 N 0.0859(4) 0.5748(4) 0.4610(4)
N3 N 0.5021(4) 0.3761(5) 0.5754(4)
N4 N -0.0003(4) 0.4241(4) 0.3929(4)
N5 N 0.4167(4) 0.5480(4) 0.5739(4)
N6 N 0.3683(4) 0.3930(4) 0.5744(4)
N7 N 0.2523(4) 0.4160(4) 0.4934(4)
N8 N 0.2439(4) 0.1410(4) 0.4360(4)
N9 N 0.4168(4) 0.4453(4) 0.4101(4)
N10 N 0.3097(4) 0.2647(4) 0.5049(4)
N11 N 0.1346(4) 0.4352(4) 0.4091(4)
N12 N -0.0741(4) 0.5870(4) 0.4351(4)
C1 C 0.4366(5) 0.2607(6) 0.6450(6)
H1 H 0.3891 0.2382 0.6605
C2 C 0.1938(4) 0.3776(5) 0.4430(5)
C3 C 0.2467(5) 0.2377(5) 0.4573(5)
C4 C 0.3111(5) 0.5174(7) 0.6497(6)
H2 H 0.2759 0.4733 0.6673
C5 C -0.1161(5) 0.6376(5) 0.3961(5)
O1 O 0.2557(4) -0.1271(4) 0.3593(4)
C6 C 0.5052(6) 0.2129(6) 0.6682(6)
H3 H 0.5057 0.1555 0.6981
C7 C 0.3072(5) 0.3563(5) 0.5235(5)
C8 C 0.2002(6) 0.0215(5) 0.3397(6)
H4 H 0.1683 0.0029 0.2895
C9 C 0.3606(6) 0.6708(6) 0.6470(6)
H5 H 0.3593 0.7351 0.6612
C10 C 0.5733(6) 0.2507(7) 0.6468(6)
H6 H 0.6219 0.2210 0.6633
C11 C 0.4142(6) 0.6375(6) 0.5998(6)
H7 H 0.4519 0.6797 0.5843
C12 C 0.4384(5) 0.3412(5) 0.5993(5)
C13 C 0.1974(5) 0.1103(5) 0.3651(6)
H8 H 0.1627 0.1526 0.3336
C14 C 0.2905(5) 0.0793(6) 0.4843(6)
H9 H 0.3216 0.0998 0.5344
C15 C 0.5686(5) 0.3325(6) 0.6009(6)
H10 H 0.6153 0.3589 0.5869
C16 C 0.3732(5) 0.4252(5) 0.3521(6)
C17 C -0.0674(5) 0.3985(5) 0.3457(6)
H11 H -0.1149 0.4175 0.3636
C18 C 0.1419(5) 0.5340(5) 0.4241(5)
C19 C 0.3651(5) 0.4902(5) 0.6002(5)
C20 C 0.0650(5) 0.4009(5) 0.3629(5)
C21 C 0.0677(5) 0.3542(5) 0.2898(5)
H12 H 0.1159 0.3421 0.2704
C22 C 0.3083(6) 0.6088(7) 0.6734(6)
H13 H 0.2711 0.6293 0.7076
C23 C 0.1452(6) 0.7213(6) 0.4414(6)
H14 H 0.1437 0.7874 0.4457
C24 C 0.0897(5) 0.6691(6) 0.4680(6)
H15 H 0.0504 0.7000 0.4934
C25 C 0.2483(5) -0.0445(5) 0.3846(6)
C26 C 0.2922(6) -0.0128(6) 0.4602(6)
H16 H 0.3234 -0.0558 0.4950
C27 C -0.0709(6) 0.3466(6) 0.2734(6)
H17 H -0.1193 0.3262 0.2444
C28 C 0.2019(5) 0.5827(5) 0.3970(6)
H18 H 0.2407 0.5515 0.3713
C29 C 0.2040(6) 0.6785(6) 0.4081(7)
H19 H 0.2460 0.7140 0.3926
C30 C -0.0017(6) 0.3245(5) 0.2439(6)
H20 H -0.0017 0.2899 0.1934
Fe2_2 Fe -0.5000 0.5000 0.5000
S1B S 0.68993(15) 0.60663(18) 0.72790(17)
S2B S 0.17601(14) 0.28879(16) 0.65710(16)
N1B N -0.1854(4) 0.7133(4) 0.5769(4)
N2B N -0.0859(4) 0.4252(4) 0.5390(4)
N3B N -0.5021(4) 0.6239(5) 0.4246(4)
N3B_2 N 0.4979(4) 0.6239(5) 0.4246(4)
N4B N 0.0003(4) 0.5759(4) 0.6071(4)
N5B N -0.4167(4) 0.4520(4) 0.4261(4)
N5B_2 N 0.5833(4) 0.4520(4) 0.4261(4)
N6B N -0.3683(4) 0.6070(4) 0.4256(4)
N7B N -0.2523(4) 0.5840(4) 0.5066(4)
N8B N -0.2439(4) 0.8590(4) 0.5640(4)
N9B N 0.5832(4) 0.5547(4) 0.5899(4)
N10B N -0.3097(4) 0.7353(4) 0.4951(4)
N11B N -0.1346(4) 0.5648(4) 0.5909(4)
N12B N 0.0741(4) 0.4130(4) 0.5649(4)
C1B C -0.4366(5) 0.7393(6) 0.3550(6)
H1B H -0.3891 0.7618 0.3395
C2B C -0.1938(4) 0.6224(5) 0.5570(5)
C3B C -0.2467(5) 0.7623(5) 0.5427(5)
C4B C -0.3111(5) 0.4826(7) 0.3503(6)
H2B H -0.2759 0.5267 0.3327
C5B C 0.1161(5) 0.3624(5) 0.6039(5)
O1B O -0.2557(4) 1.1271(4) 0.6407(4)
C6B C -0.5052(6) 0.7871(6) 0.3318(6)
H3B H -0.5057 0.8445 0.3019
C7B C -0.3072(5) 0.6437(5) 0.4765(5)
C8B C -0.2002(6) 0.9785(5) 0.6603(6)
H4B H -0.1683 0.9971 0.7105
C9B C -0.3606(6) 0.3292(6) 0.3530(6)
H5B H -0.3593 0.2649 0.3388
C10B C -0.5733(6) 0.7493(7) 0.3532(6)
H6B H -0.6219 0.7790 0.3367
C11B C -0.4142(6) 0.3625(6) 0.4002(6)
H7B H -0.4519 0.3203 0.4157
C12B C -0.4384(5) 0.6588(5) 0.4007(5)
C13B C -0.1974(5) 0.8897(5) 0.6349(6)
H8B H -0.1627 0.8474 0.6664
C14B C -0.2905(5) 0.9207(6) 0.5157(6)
H9B H -0.3216 0.9002 0.4656
C15B C -0.5686(5) 0.6675(6) 0.3991(6)
H10B H -0.6153 0.6411 0.4131
C16B C 0.6268(5) 0.5748(5) 0.6479(6)
C17B C 0.0674(5) 0.6015(5) 0.6543(6)
H11B H 0.1149 0.5825 0.6364
C18B C -0.1419(5) 0.4660(5) 0.5759(5)
C19B C -0.3651(5) 0.5098(5) 0.3998(5)
C20B C -0.0650(5) 0.5991(5) 0.6371(5)
C21B C -0.0677(5) 0.6458(5) 0.7102(5)
H12B H -0.1159 0.6579 0.7296
C22B C -0.3083(6) 0.3912(7) 0.3266(6)
H13B H -0.2711 0.3707 0.2924
C23B C -0.1452(6) 0.2787(6) 0.5586(6)
H14B H -0.1437 0.2126 0.5543
C24B C -0.0897(5) 0.3309(6) 0.5320(6)
H15B H -0.0504 0.3000 0.5066
C25B C -0.2483(5) 1.0445(5) 0.6154(6)
C26B C -0.2922(6) 1.0128(6) 0.5398(6)
H16B H -0.3234 1.0558 0.5050
C27B C 0.0709(6) 0.6534(6) 0.7266(6)
H17B H 0.1193 0.6738 0.7556
C28B C -0.2019(5) 0.4173(5) 0.6030(6)
H18B H -0.2407 0.4485 0.6287
C29B C -0.2040(6) 0.3215(6) 0.5919(7)
H19B H -0.2460 0.2860 0.6074
C30B C 0.0017(6) 0.6755(5) 0.7561(6)
H20B H 0.0017 0.7101 0.8066
Cl1 Cl 0.5052(2) 0.3738(2) 0.9691(2)
Cl2 Cl 0.3983(2) 0.3404(3) 0.8264(2)
Cl3 Cl 0.5341(3) 0.4494(2) 0.8129(3)
C31 C 0.4638(6) 0.4202(7) 0.8738(5)
H21 H 0.4350 0.4782 0.8852
Cl4 Cl -0.1331(5) 0.5172(6) -0.0960(5)
Cl5 Cl -0.0707(5) 0.4087(5) -0.2145(5)
Cl6 Cl -0.2054(6) 0.3509(5) -0.1553(7)
C32 C -0.1533(7) 0.4467(7) -0.1799(9)
H22 H -0.1850 0.4821 -0.2263
O2 O -0.0471(17) 0.6339(15) -0.0675(14)
C33 C -0.054(2) 0.6170(18) 0.0158(14)
H23 H -0.0647 0.6758 0.0434
H24 H -0.0059 0.5897 0.0442
H25 H -0.0972 0.5734 0.0190
H26? H -0.0570 0.5848 -0.0957
C34? C -0.0418(8) 0.4293(12) -0.1413(7)
Cl7? Cl -0.1380(6) 0.4005(12) -0.1508(8)
Cl8? Cl 0.0070(6) 0.3614(6) -0.0650(5)
Cl9? Cl -0.0103(4) 0.4096(4) -0.2357(4)
H27? H -0.0347 0.4966 -0.1256
loop_
_geom_bond_atom_site_label_1
_geom_bond_atom_site_label_2
_geom_bond_site_symmetry_1
_geom_bond_site_symmetry_2
Fe1 N2 1_555 1_555
Fe2 N3 1_555 1_555
S1 C16 1_555 1_555
S2 C5 1_555 1_555
N1 C2 1_555 1_555
N2 C18 1_555 1_555
N3 C12 1_555 1_555
N4 Fe1 1_555 1_555
N5 Fe2 1_555 1_555
N6 C7 1_555 1_555
N7 C2 1_555 1_555
N8 C3 1_555 1_555
N9 Fe2 1_555 1_555
N10 C3 1_555 1_555
N11 C2 1_555 1_555
N12 Fe1 1_555 1_555
C1 H1 1_555 1_555
C3 N1 1_555 1_555
C4 H2 1_555 1_555
C5 N12 1_555 1_555
O1 C25 1_555 1_555
C6 C1 1_555 1_555
H3 C6 1_555 1_555
C7 N7 1_555 1_555
C8 H4 1_555 1_555
C9 H5 1_555 1_555
C10 C6 1_555 1_555
H6 C10 1_555 1_555
C11 N5 1_555 1_555
H7 C11 1_555 1_555
C12 N6 1_555 1_555
C13 N8 1_555 1_555
H8 C13 1_555 1_555
C14 N8 1_555 1_555
H9 C14 1_555 1_555
C15 N3 1_555 1_555
H10 C15 1_555 1_555
C16 N9 1_555 1_555
C17 N4 1_555 1_555
H11 C17 1_555 1_555
C18 N11 1_555 1_555
C19 N5 1_555 1_555
C20 N4 1_555 1_555
C21 C20 1_555 1_555
H12 C21 1_555 1_555
C22 C4 1_555 1_555
H13 C22 1_555 1_555
C23 H14 1_555 1_555
C24 N2 1_555 1_555
H15 C24 1_555 1_555
C25 C8 1_555 1_555
C26 C14 1_555 1_555
H16 C26 1_555 1_555
C27 C17 1_555 1_555
H17 C27 1_555 1_555
C28 C18 1_555 1_555
H18 C28 1_555 1_555
C29 C23 1_555 1_555
H19 C29 1_555 1_555
C30 C21 1_555 1_555
H20 C30 1_555 1_555
Cl1 C31 1_555 1_555
Cl2 C31 1_555 1_555
Cl3 C31 1_555 1_555
C31 H21 1_555 1_555
Cl4 C32 1_555 1_555
Cl5 C32 1_555 1_555
Cl6 C32 1_555 1_555
C32 H22 1_555 1_555
O2 C33 1_555 1_555
C33 H23 1_555 1_555
H24 C33 1_555 1_555
H25 C33 1_555 1_555
Fe2_2 N3B 1_555 1_555
S1B C16B 1_555 1_555
S2B C5B 1_555 1_555
N1B C2B 1_555 1_555
N2B Fe1 1_555 1_555
N3B C12B 1_555 1_555
N3B_2 Fe2 1_555 1_555
N4B Fe1 1_555 1_555
N5B Fe2_2 1_555 1_555
N5B_2 Fe2 1_555 1_555
N6B C7B 1_555 1_555
N7B C2B 1_555 1_555
N8B C3B 1_555 1_555
N9B Fe2 1_555 1_555
N10B C3B 1_555 1_555
N11B C2B 1_555 1_555
N12B Fe1 1_555 1_555
C1B H1B 1_555 1_555
C3B N1B 1_555 1_555
C4B H2B 1_555 1_555
C5B N12B 1_555 1_555
O1B C25B 1_555 1_555
C6B C1B 1_555 1_555
H3B C6B 1_555 1_555
C7B N7B 1_555 1_555
C8B H4B 1_555 1_555
C9B H5B 1_555 1_555
C10B C6B 1_555 1_555
H6B C10B 1_555 1_555
C11B N5B 1_555 1_555
H7B C11B 1_555 1_555
C12B N6B 1_555 1_555
C13B N8B 1_555 1_555
H8B C13B 1_555 1_555
C14B N8B 1_555 1_555
H9B C14B 1_555 1_555
C15B N3B 1_555 1_555
H10B C15B 1_555 1_555
C16B N9B 1_555 1_555
C17B N4B 1_555 1_555
H11B C17B 1_555 1_555
C18B N2B 1_555 1_555
C19B N5B 1_555 1_555
C20B N4B 1_555 1_555
C21B C20B 1_555 1_555
H12B C21B 1_555 1_555
C22B C4B 1_555 1_555
H13B C22B 1_555 1_555
C23B H14B 1_555 1_555
C24B N2B 1_555 1_555
H15B C24B 1_555 1_555
C25B C8B 1_555 1_555
C26B C14B 1_555 1_555
H16B C26B 1_555 1_555
C27B C17B 1_555 1_555
H17B C27B 1_555 1_555
C28B C18B 1_555 1_555
H18B C28B 1_555 1_555
C29B C23B 1_555 1_555
H19B C29B 1_555 1_555
C30B C21B 1_555 1_555
H20B C30B 1_555 1_555
N6 C19 1_555 1_555
N10 C7 1_555 1_555
N11 C20 1_555 1_555
C1 C12 1_555 1_555
C4 C19 1_555 1_555
C8 C13 1_555 1_555
C9 C11 1_555 1_555
C9 C22 1_555 1_555
C10 C15 1_555 1_555
C23 C24 1_555 1_555
C25 C26 1_555 1_555
C27 C30 1_555 1_555
C28 C29 1_555 1_555
N6B C19B 1_555 1_555
N10B C7B 1_555 1_555
N11B C18B 1_555 1_555
N11B C20B 1_555 1_555
C1B C12B 1_555 1_555
C4B C19B 1_555 1_555
C8B C13B 1_555 1_555
C9B C11B 1_555 1_555
C9B C22B 1_555 1_555
C10B C15B 1_555 1_555
C23B C24B 1_555 1_555
C25B C26B 1_555 1_555
C27B C30B 1_555 1_555
C28B C29B 1_555 1_555

#END
