
#######################################################################
#
#                 Cambridge Crystallographic Data Centre
#                                CCDC 
#
#######################################################################
#
# If this CIF has been generated from an entry in the Cambridge 
# Structural Database, then it will include bibliographic, chemical, 
# crystal, experimental, refinement or atomic coordinate data resulting 
# from the CCDC's data processing and validation procedures.
#
#######################################################################

data_ESOZOC01
_symmetry_cell_setting           monoclinic
_symmetry_space_group_name_H-M   'P 21/c'
_symmetry_Int_Tables_number      14
_space_group_name_Hall           '-P 2ybc'
loop_
_symmetry_equiv_pos_site_id
_symmetry_equiv_pos_as_xyz
1 x,y,z
2 -x,1/2+y,1/2-z
3 -x,-y,-z
4 x,1/2-y,1/2+z
_cell_length_a                   17.3588(8)
_cell_length_b                   14.2979(6)
_cell_length_c                   15.7634(6)
_cell_angle_alpha                90
_cell_angle_beta                 97.812(2)
_cell_angle_gamma                90
_cell_volume                     3876.08
loop_
_atom_site_label
_atom_site_type_symbol
_atom_site_fract_x
_atom_site_fract_y
_atom_site_fract_z
Fe1 Fe 0.0000 0.5000 0.5000
Fe2 Fe 0.5000 0.5000 0.5000
S1 S 0.31273(6) 0.39248(8) 0.27277(7)
S2 S -0.17793(6) 0.71049(8) 0.34288(7)
N1 N 0.18560(17) 0.2861(2) 0.4228(2)
N2 N 0.08463(17) 0.5745(2) 0.45984(19)
N3 N 0.50465(17) 0.3828(2) 0.57094(19)
N4 N -0.00167(16) 0.4238(2) 0.39323(19)
N5 N 0.42244(16) 0.5475(2) 0.57168(19)
N6 N 0.37068(17) 0.3957(2) 0.57307(19)
N7 N 0.25207(16) 0.4171(2) 0.49168(19)
N8 N 0.24455(17) 0.1401(2) 0.4366(2)
N9 N 0.41927(17) 0.4486(2) 0.4138(2)
N10 N 0.31055(17) 0.2658(2) 0.5050(2)
N11 N 0.13410(17) 0.4356(2) 0.4087(2)
N12 N -0.07435(17) 0.5847(2) 0.4353(2)
C1 C 0.4416(2) 0.2625(3) 0.6420(2)
H1 H 0.3948 0.2382 0.6582
C2 C 0.1936(2) 0.3772(2) 0.4419(2)
C3 C 0.2469(2) 0.2371(2) 0.4560(2)
C4 C 0.3137(2) 0.5218(3) 0.6470(3)
H2 H 0.2770 0.4792 0.6646
C5 C -0.1163(2) 0.6370(3) 0.3961(2)
O1 O 0.25673(17) -0.12907(19) 0.3581(2)
C6 C 0.5115(2) 0.2170(3) 0.6645(3)
H3 H 0.5135 0.1594 0.6948
C7 C 0.3080(2) 0.3573(2) 0.5219(2)
C8 C 0.1998(2) 0.0201(3) 0.3388(3)
H4 H 0.1665 0.0013 0.2888
C9 C 0.3700(2) 0.6736(3) 0.6456(3)
H5 H 0.3714 0.7379 0.6610
C10 C 0.5788(2) 0.2569(3) 0.6420(3)
H6 H 0.6278 0.2276 0.6575
C11 C 0.4239(2) 0.6378(3) 0.5984(2)
H7 H 0.4638 0.6777 0.5838
C12 C 0.4412(2) 0.3446(3) 0.5952(2)
C13 C 0.1978(2) 0.1090(3) 0.3648(3)
H8 H 0.1632 0.1516 0.3329
C14 C 0.2923(2) 0.0776(3) 0.4852(3)
H9 H 0.3237 0.0985 0.5357
C15 C 0.5733(2) 0.3398(3) 0.5969(2)
H10 H 0.6197 0.3679 0.5834
C16 C 0.3756(2) 0.4254(2) 0.3549(2)
C17 C -0.0694(2) 0.3970(3) 0.3468(3)
H11 H -0.1168 0.4147 0.3663
C18 C 0.1404(2) 0.5343(2) 0.4231(2)
C19 C 0.3686(2) 0.4916(3) 0.5970(2)
C20 C 0.0639(2) 0.4010(2) 0.3627(2)
C21 C 0.0652(2) 0.3510(3) 0.2878(2)
H12 H 0.1132 0.3371 0.2679
C22 C 0.3132(2) 0.6145(3) 0.6708(3)
H13 H 0.2751 0.6377 0.7034
C23 C 0.1444(2) 0.7223(3) 0.4415(3)
H14 H 0.1444 0.7883 0.4484
C24 C 0.0864(2) 0.6694(3) 0.4669(3)
H15 H 0.0456 0.7000 0.4905
C25 C 0.2507(2) -0.0481(3) 0.3841(3)
C26 C 0.2949(2) -0.0129(3) 0.4615(3)
H16 H 0.3270 -0.0549 0.4972
C27 C -0.0729(2) 0.3456(3) 0.2731(3)
H17 H -0.1217 0.3267 0.2432
C28 C 0.2008(2) 0.5834(3) 0.3952(3)
H18 H 0.2398 0.5519 0.3694
C29 C 0.2033(2) 0.6787(3) 0.4055(3)
H19 H 0.2447 0.7142 0.3881
C30 C -0.0041(3) 0.3215(3) 0.2425(3)
H20 H -0.0048 0.2857 0.1917
Fe2_2 Fe -0.5000 0.5000 0.5000
S1B S 0.68727(6) 0.60752(8) 0.72723(7)
S2B S 0.17793(6) 0.28951(8) 0.65712(7)
N1B N -0.18560(17) 0.7139(2) 0.5772(2)
N2B N -0.08463(17) 0.4255(2) 0.54016(19)
N3B N -0.50465(17) 0.6172(2) 0.42906(19)
N3B_2 N 0.49535(17) 0.6172(2) 0.42906(19)
N4B N 0.00167(16) 0.5762(2) 0.60677(19)
N5B N -0.42244(16) 0.4525(2) 0.42832(19)
N5B_2 N 0.57756(16) 0.4525(2) 0.42832(19)
N6B N -0.37068(17) 0.6043(2) 0.42693(19)
N7B N -0.25207(16) 0.5829(2) 0.50832(19)
N8B N -0.24455(17) 0.8599(2) 0.5634(2)
N9B N 0.58073(17) 0.5514(2) 0.5862(2)
N10B N -0.31055(17) 0.7342(2) 0.4950(2)
N11B N -0.13410(17) 0.5644(2) 0.5913(2)
N12B N 0.07435(17) 0.4153(2) 0.5647(2)
C1B C -0.4416(2) 0.7375(3) 0.3580(2)
H1B H -0.3948 0.7618 0.3418
C2B C -0.1936(2) 0.6228(2) 0.5581(2)
C3B C -0.2469(2) 0.7629(2) 0.5440(2)
C4B C -0.3137(2) 0.4782(3) 0.3530(3)
H2B H -0.2770 0.5208 0.3354
C5B C 0.1163(2) 0.3630(3) 0.6039(2)
O1B O -0.25673(17) 1.12907(19) 0.6419(2)
C6B C -0.5115(2) 0.7830(3) 0.3355(3)
H3B H -0.5135 0.8406 0.3052
C7B C -0.3080(2) 0.6427(2) 0.4781(2)
C8B C -0.1998(2) 0.9799(3) 0.6612(3)
H4B H -0.1665 0.9987 0.7112
C9B C -0.3700(2) 0.3264(3) 0.3544(3)
H5B H -0.3714 0.2621 0.3390
C10B C -0.5788(2) 0.7431(3) 0.3580(3)
H6B H -0.6278 0.7724 0.3425
C11B C -0.4239(2) 0.3622(3) 0.4016(2)
H7B H -0.4638 0.3223 0.4162
C12B C -0.4412(2) 0.6554(3) 0.4048(2)
C13B C -0.1978(2) 0.8910(3) 0.6352(3)
H8B H -0.1632 0.8484 0.6671
C14B C -0.2923(2) 0.9224(3) 0.5148(3)
H9B H -0.3237 0.9015 0.4643
C15B C -0.5733(2) 0.6602(3) 0.4031(2)
H10B H -0.6197 0.6321 0.4166
C16B C 0.6244(2) 0.5746(2) 0.6451(2)
C17B C 0.0694(2) 0.6030(3) 0.6532(3)
H11B H 0.1168 0.5853 0.6337
C18B C -0.1404(2) 0.4657(2) 0.5769(2)
C19B C -0.3686(2) 0.5084(3) 0.4030(2)
C20B C -0.0639(2) 0.5990(2) 0.6373(2)
C21B C -0.0652(2) 0.6490(3) 0.7122(2)
H12B H -0.1132 0.6629 0.7321
C22B C -0.3132(2) 0.3855(3) 0.3292(3)
H13B H -0.2751 0.3623 0.2966
C23B C -0.1444(2) 0.2777(3) 0.5585(3)
H14B H -0.1444 0.2117 0.5516
C24B C -0.0864(2) 0.3306(3) 0.5331(3)
H15B H -0.0456 0.3000 0.5095
C25B C -0.2507(2) 1.0481(3) 0.6159(3)
C26B C -0.2949(2) 1.0129(3) 0.5385(3)
H16B H -0.3270 1.0549 0.5028
C27B C 0.0729(2) 0.6544(3) 0.7269(3)
H17B H 0.1217 0.6733 0.7568
C28B C -0.2008(2) 0.4166(3) 0.6048(3)
H18B H -0.2398 0.4481 0.6306
C29B C -0.2033(2) 0.3213(3) 0.5945(3)
H19B H -0.2447 0.2858 0.6119
C30B C 0.0041(3) 0.6785(3) 0.7575(3)
H20B H 0.0048 0.7143 0.8083
Cl1 Cl 0.50510(8) 0.37592(9) 0.96961(8)
Cl2 Cl 0.39453(8) 0.34288(12) 0.82178(9)
Cl3 Cl 0.53168(9) 0.45566(10) 0.80730(10)
C31 C 0.4612(3) 0.4231(3) 0.8723(3)
H21 H 0.4321 0.4805 0.8852
Cl4 Cl 0.1344(2) 0.4790(3) 0.0928(2)
Cl5 Cl 0.0700(2) 0.5921(2) 0.2167(2)
Cl6 Cl 0.2123(3) 0.6475(2) 0.1552(3)
C32 C 0.1541(6) 0.5532(7) 0.1777(8)
H22 H 0.1847 0.5168 0.2248
O2 O -0.0432(7) 0.6400(7) -0.0652(7)
H23 H -0.0490 0.5945 -0.0991
C33 C -0.0578(8) 0.6124(10) 0.0130(8)
H24 H -0.0654 0.6675 0.0479
H25 H -0.0138 0.5758 0.0409
H26 H -0.1049 0.5738 0.0069
C34? C 0.0392(5) 0.5696(8) 0.1417(5)
Cl7? Cl 0.1387(4) 0.5843(8) 0.1503(5)
Cl8? Cl -0.0088(3) 0.6369(3) 0.0601(2)
Cl9? Cl 0.00578(16) 0.58735(18) 0.23804(18)
H27? H 0.0283 0.5028 0.1257
loop_
_geom_bond_atom_site_label_1
_geom_bond_atom_site_label_2
_geom_bond_site_symmetry_1
_geom_bond_site_symmetry_2
Fe1 N2 1_555 1_555
Fe2 N3 1_555 1_555
S1 C16 1_555 1_555
S2 C5 1_555 1_555
N1 C2 1_555 1_555
N2 C18 1_555 1_555
N3 C12 1_555 1_555
N4 Fe1 1_555 1_555
N5 Fe2 1_555 1_555
N6 C7 1_555 1_555
N7 C2 1_555 1_555
N8 C3 1_555 1_555
N9 Fe2 1_555 1_555
N10 C3 1_555 1_555
N11 C2 1_555 1_555
N12 Fe1 1_555 1_555
C1 H1 1_555 1_555
C3 N1 1_555 1_555
C4 H2 1_555 1_555
C5 N12 1_555 1_555
O1 C25 1_555 1_555
C6 C1 1_555 1_555
H3 C6 1_555 1_555
C7 N7 1_555 1_555
C8 H4 1_555 1_555
C9 H5 1_555 1_555
C10 C6 1_555 1_555
H6 C10 1_555 1_555
C11 N5 1_555 1_555
H7 C11 1_555 1_555
C12 N6 1_555 1_555
C13 N8 1_555 1_555
H8 C13 1_555 1_555
C14 N8 1_555 1_555
H9 C14 1_555 1_555
C15 N3 1_555 1_555
H10 C15 1_555 1_555
C16 N9 1_555 1_555
C17 N4 1_555 1_555
H11 C17 1_555 1_555
C18 N11 1_555 1_555
C19 N5 1_555 1_555
C20 N4 1_555 1_555
C21 C20 1_555 1_555
H12 C21 1_555 1_555
C22 C4 1_555 1_555
H13 C22 1_555 1_555
C23 H14 1_555 1_555
C24 N2 1_555 1_555
H15 C24 1_555 1_555
C25 C8 1_555 1_555
C26 C14 1_555 1_555
H16 C26 1_555 1_555
C27 C17 1_555 1_555
H17 C27 1_555 1_555
C28 C18 1_555 1_555
H18 C28 1_555 1_555
C29 C23 1_555 1_555
H19 C29 1_555 1_555
C30 C21 1_555 1_555
H20 C30 1_555 1_555
Cl1 C31 1_555 1_555
Cl2 C31 1_555 1_555
Cl3 C31 1_555 1_555
C31 H21 1_555 1_555
Cl4 C32 1_555 1_555
Cl5 C32 1_555 1_555
Cl6 C32 1_555 1_555
C32 H22 1_555 1_555
O2 H23 1_555 1_555
C33 O2 1_555 1_555
H24 C33 1_555 1_555
H25 C33 1_555 1_555
H26 C33 1_555 1_555
Fe2_2 N3B 1_555 1_555
S1B C16B 1_555 1_555
S2B C5B 1_555 1_555
N1B C2B 1_555 1_555
N2B Fe1 1_555 1_555
N3B C12B 1_555 1_555
N3B_2 Fe2 1_555 1_555
N4B Fe1 1_555 1_555
N5B Fe2_2 1_555 1_555
N5B_2 Fe2 1_555 1_555
N6B C7B 1_555 1_555
N7B C2B 1_555 1_555
N8B C3B 1_555 1_555
N9B Fe2 1_555 1_555
N10B C3B 1_555 1_555
N11B C2B 1_555 1_555
N12B Fe1 1_555 1_555
C1B H1B 1_555 1_555
C3B N1B 1_555 1_555
C4B H2B 1_555 1_555
C5B N12B 1_555 1_555
O1B C25B 1_555 1_555
C6B C1B 1_555 1_555
H3B C6B 1_555 1_555
C7B N7B 1_555 1_555
C8B H4B 1_555 1_555
C9B H5B 1_555 1_555
C10B C6B 1_555 1_555
H6B C10B 1_555 1_555
C11B N5B 1_555 1_555
H7B C11B 1_555 1_555
C12B N6B 1_555 1_555
C13B N8B 1_555 1_555
H8B C13B 1_555 1_555
C14B N8B 1_555 1_555
H9B C14B 1_555 1_555
C15B N3B 1_555 1_555
H10B C15B 1_555 1_555
C16B N9B 1_555 1_555
C17B N4B 1_555 1_555
H11B C17B 1_555 1_555
C18B N2B 1_555 1_555
C19B N5B 1_555 1_555
C20B N4B 1_555 1_555
C21B C20B 1_555 1_555
H12B C21B 1_555 1_555
C22B C4B 1_555 1_555
H13B C22B 1_555 1_555
C23B H14B 1_555 1_555
C24B N2B 1_555 1_555
H15B C24B 1_555 1_555
C25B C8B 1_555 1_555
C26B C14B 1_555 1_555
H16B C26B 1_555 1_555
C27B C17B 1_555 1_555
H17B C27B 1_555 1_555
C28B C18B 1_555 1_555
H18B C28B 1_555 1_555
C29B C23B 1_555 1_555
H19B C29B 1_555 1_555
C30B C21B 1_555 1_555
H20B C30B 1_555 1_555
N6 C19 1_555 1_555
N10 C7 1_555 1_555
N11 C20 1_555 1_555
C1 C12 1_555 1_555
C4 C19 1_555 1_555
C8 C13 1_555 1_555
C9 C11 1_555 1_555
C9 C22 1_555 1_555
C10 C15 1_555 1_555
C23 C24 1_555 1_555
C25 C26 1_555 1_555
C27 C30 1_555 1_555
C28 C29 1_555 1_555
N6B C19B 1_555 1_555
N10B C7B 1_555 1_555
N11B C18B 1_555 1_555
N11B C20B 1_555 1_555
C1B C12B 1_555 1_555
C4B C19B 1_555 1_555
C8B C13B 1_555 1_555
C9B C11B 1_555 1_555
C9B C22B 1_555 1_555
C10B C15B 1_555 1_555
C23B C24B 1_555 1_555
C25B C26B 1_555 1_555
C27B C30B 1_555 1_555
C28B C29B 1_555 1_555

#END
