
#######################################################################
#
#                 Cambridge Crystallographic Data Centre
#                                CCDC 
#
#######################################################################
#
# If this CIF has been generated from an entry in the Cambridge 
# Structural Database, then it will include bibliographic, chemical, 
# crystal, experimental, refinement or atomic coordinate data resulting 
# from the CCDC's data processing and validation procedures.
#
#######################################################################

data_ESOZOC02
_symmetry_cell_setting           monoclinic
_symmetry_space_group_name_H-M   'P 21/c'
_symmetry_Int_Tables_number      14
_space_group_name_Hall           '-P 2ybc'
loop_
_symmetry_equiv_pos_site_id
_symmetry_equiv_pos_as_xyz
1 x,y,z
2 -x,1/2+y,1/2-z
3 -x,-y,-z
4 x,1/2-y,1/2+z
_cell_length_a                   17.572(2)
_cell_length_b                   14.392(4)
_cell_length_c                   16.2230(10)
_cell_angle_alpha                90
_cell_angle_beta                 98.7020(10)
_cell_angle_gamma                90
_cell_volume                     4055.51
loop_
_atom_site_label
_atom_site_type_symbol
_atom_site_fract_x
_atom_site_fract_y
_atom_site_fract_z
Fe1 Fe 0.0000 0.5000 0.5000
Fe2 Fe 0.5000 0.5000 0.5000
S1 S 0.31035(12) 0.39538(17) 0.26898(15)
S2 S -0.18053(12) 0.71837(15) 0.34734(15)
N1 N 0.1863(3) 0.2886(3) 0.4182(4)
N2 N 0.0918(3) 0.5775(3) 0.4587(4)
N3 N 0.5007(3) 0.3741(4) 0.5767(4)
N4 N 0.0013(3) 0.4216(3) 0.3856(4)
N5 N 0.4148(3) 0.5485(3) 0.5731(4)
N6 N 0.3679(3) 0.3936(3) 0.5734(4)
N7 N 0.2520(3) 0.4175(3) 0.4898(3)
N8 N 0.2449(3) 0.1427(3) 0.4312(4)
N9 N 0.4163(3) 0.4466(4) 0.4073(4)
N10 N 0.3092(3) 0.2667(3) 0.5018(3)
N11 N 0.1359(3) 0.4375(3) 0.4052(3)
N12 N -0.0761(3) 0.5916(4) 0.4329(4)
C1 C 0.4336(4) 0.2611(5) 0.6457(5)
H1 H 0.3871 0.2401 0.6610
C2 C 0.1937(3) 0.3788(4) 0.4384(4)
C3 C 0.2471(3) 0.2397(4) 0.4530(4)
C4 C 0.3103(4) 0.5166(5) 0.6482(5)
H2 H 0.2761 0.4731 0.6656
C5 C -0.1188(4) 0.6451(5) 0.3969(5)
O1 O 0.2553(3) -0.1259(3) 0.3549(4)
C6 C 0.5011(5) 0.2124(5) 0.6694(5)
H3 H 0.5008 0.1567 0.6996
C7 C 0.3067(3) 0.3572(4) 0.5200(4)
C8 C 0.2014(4) 0.0239(5) 0.3352(6)
H4 H 0.1692 0.0059 0.2863
C9 C 0.3599(5) 0.6697(5) 0.6454(5)
H5 H 0.3593 0.7329 0.6598
C10 C 0.5691(5) 0.2467(6) 0.6484(6)
H6 H 0.6160 0.2156 0.6649
C11 C 0.4122(4) 0.6366(5) 0.5992(5)
H7 H 0.4492 0.6782 0.5846
C12 C 0.4356(4) 0.3406(4) 0.5993(4)
C13 C 0.2001(4) 0.1130(4) 0.3602(5)
H8 H 0.1677 0.1556 0.3280
C14 C 0.2905(4) 0.0802(5) 0.4793(5)
H9 H 0.3206 0.1000 0.5291
C15 C 0.5664(4) 0.3276(5) 0.6026(5)
H10 H 0.6127 0.3515 0.5889
C16 C 0.3735(4) 0.4252(5) 0.3492(5)
C17 C -0.0651(4) 0.3938(5) 0.3368(5)
H11 H -0.1122 0.4076 0.3549
C18 C 0.1441(3) 0.5367(4) 0.4193(5)
C19 C 0.3643(4) 0.4895(4) 0.5994(5)
C20 C 0.0669(3) 0.4038(4) 0.3555(4)
C21 C 0.0708(4) 0.3584(5) 0.2812(5)
H12 H 0.1182 0.3481 0.2626
C22 C 0.3075(5) 0.6083(6) 0.6708(6)
H13 H 0.2706 0.6290 0.7029
C23 C 0.1540(4) 0.7223(5) 0.4412(5)
H14 H 0.1566 0.7868 0.4502
C24 C 0.0974(4) 0.6709(4) 0.4676(5)
H15 H 0.0603 0.7018 0.4935
C25 C 0.2498(4) -0.0438(5) 0.3802(5)
C26 C 0.2927(4) -0.0110(5) 0.4556(6)
H16 H 0.3235 -0.0529 0.4903
C27 C -0.0666(5) 0.3468(5) 0.2627(6)
H17 H -0.1134 0.3276 0.2316
C28 C 0.2023(4) 0.5838(5) 0.3891(5)
H18 H 0.2377 0.5524 0.3610
C29 C 0.2070(4) 0.6783(5) 0.4013(6)
H19 H 0.2465 0.7126 0.3824
C30 C 0.0024(5) 0.3286(5) 0.2353(6)
H20 H 0.0030 0.2959 0.1853
Fe2_2 Fe -0.5000 0.5000 0.5000
S1B S 0.68965(12) 0.60462(17) 0.73102(15)
S2B S 0.18053(12) 0.28163(15) 0.65266(15)
N1B N -0.1863(3) 0.7114(3) 0.5818(4)
N2B N -0.0918(3) 0.4225(3) 0.5413(4)
N3B N -0.5007(3) 0.6259(4) 0.4233(4)
N3B_2 N 0.4993(3) 0.6259(4) 0.4233(4)
N4B N -0.0013(3) 0.5784(3) 0.6144(4)
N5B N -0.4148(3) 0.4515(3) 0.4269(4)
N5B_2 N 0.5852(3) 0.4515(3) 0.4269(4)
N6B N -0.3679(3) 0.6064(3) 0.4266(4)
N7B N -0.2520(3) 0.5825(3) 0.5102(3)
N8B N -0.2449(3) 0.8573(3) 0.5688(4)
N9B N 0.5837(3) 0.5534(4) 0.5927(4)
N10B N -0.3092(3) 0.7333(3) 0.4982(3)
N11B N -0.1359(3) 0.5625(3) 0.5948(3)
N12B N 0.0761(3) 0.4084(4) 0.5671(4)
C1B C -0.4336(4) 0.7389(5) 0.3543(5)
H1B H -0.3871 0.7599 0.3390
C2B C -0.1937(3) 0.6212(4) 0.5616(4)
C3B C -0.2471(3) 0.7603(4) 0.5470(4)
C4B C -0.3103(4) 0.4834(5) 0.3518(5)
H2B H -0.2761 0.5269 0.3344
C5B C 0.1188(4) 0.3549(5) 0.6031(5)
O1B O -0.2553(3) 1.1259(3) 0.6451(4)
C6B C -0.5011(5) 0.7876(5) 0.3306(5)
H3B H -0.5008 0.8433 0.3004
C7B C -0.3067(3) 0.6428(4) 0.4800(4)
C8B C -0.2014(4) 0.9761(5) 0.6648(6)
H4B H -0.1692 0.9941 0.7137
C9B C -0.3599(5) 0.3303(5) 0.3546(5)
H5B H -0.3593 0.2671 0.3402
C10B C -0.5691(5) 0.7533(6) 0.3516(6)
H6B H -0.6160 0.7844 0.3351
C11B C -0.4122(4) 0.3634(5) 0.4008(5)
H7B H -0.4492 0.3218 0.4154
C12B C -0.4356(4) 0.6594(4) 0.4007(4)
C13B C -0.2001(4) 0.8870(4) 0.6398(5)
H8B H -0.1677 0.8444 0.6720
C14B C -0.2905(4) 0.9198(5) 0.5207(5)
H9B H -0.3206 0.9000 0.4709
C15B C -0.5664(4) 0.6724(5) 0.3974(5)
H10B H -0.6127 0.6485 0.4111
C16B C 0.6265(4) 0.5748(5) 0.6508(5)
C17B C 0.0651(4) 0.6062(5) 0.6632(5)
H11B H 0.1122 0.5924 0.6451
C18B C -0.1441(3) 0.4633(4) 0.5807(5)
C19B C -0.3643(4) 0.5105(4) 0.4006(5)
C20B C -0.0669(3) 0.5962(4) 0.6445(4)
C21B C -0.0708(4) 0.6416(5) 0.7188(5)
H12B H -0.1182 0.6519 0.7374
C22B C -0.3075(5) 0.3917(6) 0.3292(6)
H13B H -0.2706 0.3710 0.2971
C23B C -0.1540(4) 0.2777(5) 0.5588(5)
H14B H -0.1566 0.2132 0.5498
C24B C -0.0974(4) 0.3291(4) 0.5324(5)
H15B H -0.0603 0.2982 0.5065
C25B C -0.2498(4) 1.0438(5) 0.6198(5)
C26B C -0.2927(4) 1.0110(5) 0.5444(6)
H16B H -0.3235 1.0529 0.5097
C27B C 0.0666(5) 0.6532(5) 0.7373(6)
H17B H 0.1134 0.6724 0.7684
C28B C -0.2023(4) 0.4162(5) 0.6109(5)
H18B H -0.2377 0.4476 0.6390
C29B C -0.2070(4) 0.3217(5) 0.5987(6)
H19B H -0.2465 0.2874 0.6176
C30B C -0.0024(5) 0.6714(5) 0.7647(6)
H20B H -0.0030 0.7041 0.8147
Cl1 Cl 0.5053(2) 0.3735(2) 0.9692(2)
Cl2 Cl 0.3991(2) 0.3353(3) 0.8279(3)
Cl3 Cl 0.5343(3) 0.4482(3) 0.8119(3)
C31 C 0.4651(5) 0.4171(7) 0.8728(5)
H21 H 0.4361 0.4739 0.8827
Cl4 Cl 0.1299(8) 0.4958(9) 0.0837(9)
Cl5 Cl 0.0659(7) 0.5943(6) 0.2042(7)
Cl6 Cl 0.2050(8) 0.6524(8) 0.1553(8)
C32 C 0.1500(8) 0.5580(10) 0.1733(10)
H22 H 0.1789 0.5186 0.2174
O2 O -0.0516(19) 0.620(2) 0.016(2)
C33 C -0.055(3) 0.625(4) -0.070(2)
C34? C 0.0347(8) 0.5794(14) 0.1366(7)
Cl7? Cl 0.1308(7) 0.6054(13) 0.1430(10)
Cl8? Cl -0.0157(5) 0.6483(6) 0.0632(6)
Cl9? Cl 0.0088(4) 0.5951(4) 0.2331(4)
H23? H 0.0264 0.5136 0.1199
loop_
_geom_bond_atom_site_label_1
_geom_bond_atom_site_label_2
_geom_bond_site_symmetry_1
_geom_bond_site_symmetry_2
Fe1 N2 1_555 1_555
Fe2 N3 1_555 1_555
S1 C16 1_555 1_555
S2 C5 1_555 1_555
N1 C2 1_555 1_555
N2 C18 1_555 1_555
N3 C12 1_555 1_555
N4 Fe1 1_555 1_555
N5 Fe2 1_555 1_555
N6 C7 1_555 1_555
N7 C2 1_555 1_555
N8 C3 1_555 1_555
N9 Fe2 1_555 1_555
N10 C3 1_555 1_555
N11 C2 1_555 1_555
N12 Fe1 1_555 1_555
C1 H1 1_555 1_555
C3 N1 1_555 1_555
C4 H2 1_555 1_555
C5 N12 1_555 1_555
O1 C25 1_555 1_555
C6 C1 1_555 1_555
H3 C6 1_555 1_555
C7 N7 1_555 1_555
C8 H4 1_555 1_555
C9 H5 1_555 1_555
C10 C6 1_555 1_555
H6 C10 1_555 1_555
C11 N5 1_555 1_555
H7 C11 1_555 1_555
C12 N6 1_555 1_555
C13 N8 1_555 1_555
H8 C13 1_555 1_555
C14 N8 1_555 1_555
H9 C14 1_555 1_555
C15 N3 1_555 1_555
H10 C15 1_555 1_555
C16 N9 1_555 1_555
C17 N4 1_555 1_555
H11 C17 1_555 1_555
C18 N11 1_555 1_555
C19 N5 1_555 1_555
C20 N4 1_555 1_555
C21 C20 1_555 1_555
H12 C21 1_555 1_555
C22 C4 1_555 1_555
H13 C22 1_555 1_555
C23 H14 1_555 1_555
C24 N2 1_555 1_555
H15 C24 1_555 1_555
C25 C8 1_555 1_555
C26 C14 1_555 1_555
H16 C26 1_555 1_555
C27 C17 1_555 1_555
H17 C27 1_555 1_555
C28 C18 1_555 1_555
H18 C28 1_555 1_555
C29 C23 1_555 1_555
H19 C29 1_555 1_555
C30 C21 1_555 1_555
H20 C30 1_555 1_555
Cl1 C31 1_555 1_555
Cl2 C31 1_555 1_555
Cl3 C31 1_555 1_555
C31 H21 1_555 1_555
Cl4 C32 1_555 1_555
Cl5 C32 1_555 1_555
Cl6 C32 1_555 1_555
C32 H22 1_555 1_555
O2 C33 1_555 1_555
Fe2_2 N3B 1_555 1_555
S1B C16B 1_555 1_555
S2B C5B 1_555 1_555
N1B C2B 1_555 1_555
N2B Fe1 1_555 1_555
N3B C12B 1_555 1_555
N3B_2 Fe2 1_555 1_555
N4B Fe1 1_555 1_555
N5B Fe2_2 1_555 1_555
N5B_2 Fe2 1_555 1_555
N6B C7B 1_555 1_555
N7B C2B 1_555 1_555
N8B C3B 1_555 1_555
N9B Fe2 1_555 1_555
N10B C3B 1_555 1_555
N11B C2B 1_555 1_555
N12B Fe1 1_555 1_555
C1B H1B 1_555 1_555
C3B N1B 1_555 1_555
C4B H2B 1_555 1_555
C5B N12B 1_555 1_555
O1B C25B 1_555 1_555
C6B C1B 1_555 1_555
H3B C6B 1_555 1_555
C7B N7B 1_555 1_555
C8B H4B 1_555 1_555
C9B H5B 1_555 1_555
C10B C6B 1_555 1_555
H6B C10B 1_555 1_555
C11B N5B 1_555 1_555
H7B C11B 1_555 1_555
C12B N6B 1_555 1_555
C13B N8B 1_555 1_555
H8B C13B 1_555 1_555
C14B N8B 1_555 1_555
H9B C14B 1_555 1_555
C15B N3B 1_555 1_555
H10B C15B 1_555 1_555
C16B N9B 1_555 1_555
C17B N4B 1_555 1_555
H11B C17B 1_555 1_555
C18B N2B 1_555 1_555
C19B N5B 1_555 1_555
C20B N4B 1_555 1_555
C21B C20B 1_555 1_555
H12B C21B 1_555 1_555
C22B C4B 1_555 1_555
H13B C22B 1_555 1_555
C23B H14B 1_555 1_555
C24B N2B 1_555 1_555
H15B C24B 1_555 1_555
C25B C8B 1_555 1_555
C26B C14B 1_555 1_555
H16B C26B 1_555 1_555
C27B C17B 1_555 1_555
H17B C27B 1_555 1_555
C28B C18B 1_555 1_555
H18B C28B 1_555 1_555
C29B C23B 1_555 1_555
H19B C29B 1_555 1_555
C30B C21B 1_555 1_555
H20B C30B 1_555 1_555
N6 C19 1_555 1_555
N10 C7 1_555 1_555
N11 C20 1_555 1_555
C1 C12 1_555 1_555
C4 C19 1_555 1_555
C8 C13 1_555 1_555
C9 C11 1_555 1_555
C9 C22 1_555 1_555
C10 C15 1_555 1_555
C23 C24 1_555 1_555
C25 C26 1_555 1_555
C27 C30 1_555 1_555
C28 C29 1_555 1_555
N6B C19B 1_555 1_555
N10B C7B 1_555 1_555
N11B C18B 1_555 1_555
N11B C20B 1_555 1_555
C1B C12B 1_555 1_555
C4B C19B 1_555 1_555
C8B C13B 1_555 1_555
C9B C11B 1_555 1_555
C9B C22B 1_555 1_555
C10B C15B 1_555 1_555
C23B C24B 1_555 1_555
C25B C26B 1_555 1_555
C27B C30B 1_555 1_555
C28B C29B 1_555 1_555

#END
