
#######################################################################
#
#                 Cambridge Crystallographic Data Centre
#                                CCDC 
#
#######################################################################
#
# If this CIF has been generated from an entry in the Cambridge 
# Structural Database, then it will include bibliographic, chemical, 
# crystal, experimental, refinement or atomic coordinate data resulting 
# from the CCDC's data processing and validation procedures.
#
#######################################################################

data_ESOZOC04
_symmetry_cell_setting           monoclinic
_symmetry_space_group_name_H-M   'P 21/c'
_symmetry_Int_Tables_number      14
_space_group_name_Hall           '-P 2ybc'
loop_
_symmetry_equiv_pos_site_id
_symmetry_equiv_pos_as_xyz
1 x,y,z
2 -x,1/2+y,1/2-z
3 -x,-y,-z
4 x,1/2-y,1/2+z
_cell_length_a                   17.499(2)
_cell_length_b                   14.395(6)
_cell_length_c                   16.079(2)
_cell_angle_alpha                90
_cell_angle_beta                 98.300(2)
_cell_angle_gamma                90
_cell_volume                     4007.85
loop_
_atom_site_label
_atom_site_type_symbol
_atom_site_fract_x
_atom_site_fract_y
_atom_site_fract_z
Fe1 Fe 0.0000 0.5000 0.5000
Fe2 Fe 0.5000 0.5000 0.5000
S1 S 0.31004(11) 0.39419(16) 0.27022(15)
S2 S -0.17804(11) 0.71395(14) 0.34421(14)
N1 N 0.1861(3) 0.2874(3) 0.4209(4)
N2 N 0.0886(3) 0.5759(3) 0.4597(3)
N3 N 0.5016(3) 0.3760(3) 0.5762(4)
N4 N -0.0002(3) 0.4232(3) 0.3900(4)
N5 N 0.4155(3) 0.5481(3) 0.5732(4)
N6 N 0.3685(3) 0.3938(3) 0.5751(4)
N7 N 0.2515(3) 0.4170(3) 0.4914(3)
N8 N 0.2444(3) 0.1417(3) 0.4352(4)
N9 N 0.4166(3) 0.4464(4) 0.4085(4)
N10 N 0.3091(3) 0.2660(3) 0.5040(3)
N11 N 0.1352(3) 0.4363(3) 0.4075(3)
N12 N -0.0750(3) 0.5884(4) 0.4336(4)
C1 C 0.4357(4) 0.2614(4) 0.6460(5)
H1 H 0.3889 0.2398 0.6611
C2 C 0.1935(3) 0.3777(4) 0.4406(4)
C3 C 0.2469(3) 0.2388(4) 0.4557(4)
C4 C 0.3105(4) 0.5171(5) 0.6493(5)
H2 H 0.2763 0.4738 0.6675
C5 C -0.1170(4) 0.6407(4) 0.3960(4)
O1 O 0.2553(3) -0.1268(3) 0.3584(4)
C6 C 0.5037(5) 0.2129(5) 0.6703(5)
H3 H 0.5042 0.1573 0.7010
C7 C 0.3070(3) 0.3575(4) 0.5216(4)
C8 C 0.2003(4) 0.0216(5) 0.3386(6)
H4 H 0.1683 0.0034 0.2893
C9 C 0.3609(5) 0.6706(5) 0.6459(5)
H5 H 0.3604 0.7339 0.6603
C10 C 0.5713(4) 0.2496(6) 0.6476(5)
H6 H 0.6187 0.2192 0.6631
C11 C 0.4141(4) 0.6372(5) 0.5990(5)
H7 H 0.4516 0.6783 0.5841
C12 C 0.4374(3) 0.3411(4) 0.5998(5)
C13 C 0.1982(4) 0.1110(4) 0.3648(5)
H8 H 0.1641 0.1529 0.3338
C14 C 0.2909(4) 0.0792(4) 0.4830(5)
H9 H 0.3217 0.0995 0.5324
C15 C 0.5682(4) 0.3305(5) 0.6022(5)
H10 H 0.6145 0.3554 0.5886
C16 C 0.3736(4) 0.4247(4) 0.3508(5)
C17 C -0.0672(4) 0.3964(5) 0.3421(5)
H11 H -0.1141 0.4126 0.3602
C18 C 0.1425(3) 0.5354(4) 0.4216(5)
C19 C 0.3645(3) 0.4898(4) 0.6000(5)
C20 C 0.0656(3) 0.4026(4) 0.3594(4)
C21 C 0.0680(4) 0.3552(4) 0.2852(5)
H12 H 0.1154 0.3433 0.2663
C22 C 0.3079(4) 0.6099(5) 0.6716(6)
H13 H 0.2705 0.6312 0.7037
C23 C 0.1501(4) 0.7214(4) 0.4419(5)
H14 H 0.1514 0.7862 0.4496
C24 C 0.0930(4) 0.6696(4) 0.4684(5)
H15 H 0.0550 0.7001 0.4940
C25 C 0.2497(4) -0.0455(4) 0.3838(5)
C26 C 0.2931(4) -0.0119(4) 0.4601(6)
H16 H 0.3239 -0.0536 0.4954
C27 C -0.0699(4) 0.3472(5) 0.2691(5)
H17 H -0.1175 0.3282 0.2392
C28 C 0.2022(4) 0.5829(4) 0.3930(5)
H18 H 0.2395 0.5514 0.3669
C29 C 0.2054(4) 0.6779(4) 0.4040(6)
H19 H 0.2454 0.7125 0.3856
C30 C -0.0007(4) 0.3257(5) 0.2393(6)
H20 H -0.0009 0.2919 0.1892
Fe2_2 Fe -0.5000 0.5000 0.5000
S1B S 0.68996(11) 0.60581(16) 0.72978(15)
S2B S 0.17804(11) 0.28605(14) 0.65579(14)
N1B N -0.1861(3) 0.7126(3) 0.5791(4)
N2B N -0.0886(3) 0.4241(3) 0.5403(3)
N3B N -0.5016(3) 0.6240(3) 0.4238(4)
N3B_2 N 0.4984(3) 0.6240(3) 0.4238(4)
N4B N 0.0002(3) 0.5768(3) 0.6100(4)
N5B N -0.4155(3) 0.4519(3) 0.4268(4)
N5B_2 N 0.5845(3) 0.4519(3) 0.4268(4)
N6B N -0.3685(3) 0.6062(3) 0.4249(4)
N7B N -0.2515(3) 0.5830(3) 0.5086(3)
N8B N -0.2444(3) 0.8583(3) 0.5648(4)
N9B N 0.5834(3) 0.5536(4) 0.5915(4)
N10B N -0.3091(3) 0.7340(3) 0.4960(3)
N11B N -0.1352(3) 0.5637(3) 0.5925(3)
N12B N 0.0750(3) 0.4116(4) 0.5664(4)
C1B C -0.4357(4) 0.7386(4) 0.3540(5)
H1B H -0.3889 0.7602 0.3389
C2B C -0.1935(3) 0.6223(4) 0.5594(4)
C3B C -0.2469(3) 0.7612(4) 0.5443(4)
C4B C -0.3105(4) 0.4829(5) 0.3507(5)
H2B H -0.2763 0.5262 0.3325
C5B C 0.1170(4) 0.3593(4) 0.6040(4)
O1B O -0.2553(3) 1.1268(3) 0.6416(4)
C6B C -0.5037(5) 0.7871(5) 0.3297(5)
H3B H -0.5042 0.8427 0.2990
C7B C -0.3070(3) 0.6425(4) 0.4784(4)
C8B C -0.2003(4) 0.9784(5) 0.6614(6)
H4B H -0.1683 0.9966 0.7107
C9B C -0.3609(5) 0.3294(5) 0.3541(5)
H5B H -0.3604 0.2661 0.3397
C10B C -0.5713(4) 0.7504(6) 0.3524(5)
H6B H -0.6187 0.7808 0.3369
C11B C -0.4141(4) 0.3628(5) 0.4010(5)
H7B H -0.4516 0.3217 0.4159
C12B C -0.4374(3) 0.6589(4) 0.4002(5)
C13B C -0.1982(4) 0.8890(4) 0.6352(5)
H8B H -0.1641 0.8471 0.6662
C14B C -0.2909(4) 0.9208(4) 0.5170(5)
H9B H -0.3217 0.9005 0.4676
C15B C -0.5682(4) 0.6695(5) 0.3978(5)
H10B H -0.6145 0.6446 0.4114
C16B C 0.6264(4) 0.5753(4) 0.6492(5)
C17B C 0.0672(4) 0.6036(5) 0.6579(5)
H11B H 0.1141 0.5874 0.6398
C18B C -0.1425(3) 0.4646(4) 0.5784(5)
C19B C -0.3645(3) 0.5102(4) 0.4000(5)
C20B C -0.0656(3) 0.5974(4) 0.6406(4)
C21B C -0.0680(4) 0.6448(4) 0.7148(5)
H12B H -0.1154 0.6567 0.7337
C22B C -0.3079(4) 0.3901(5) 0.3284(6)
H13B H -0.2705 0.3688 0.2963
C23B C -0.1501(4) 0.2786(4) 0.5581(5)
H14B H -0.1514 0.2138 0.5504
C24B C -0.0930(4) 0.3304(4) 0.5316(5)
H15B H -0.0550 0.2999 0.5060
C25B C -0.2497(4) 1.0455(4) 0.6162(5)
C26B C -0.2931(4) 1.0119(4) 0.5399(6)
H16B H -0.3239 1.0536 0.5046
C27B C 0.0699(4) 0.6528(5) 0.7309(5)
H17B H 0.1175 0.6718 0.7608
C28B C -0.2022(4) 0.4171(4) 0.6070(5)
H18B H -0.2395 0.4486 0.6331
C29B C -0.2054(4) 0.3221(4) 0.5960(6)
H19B H -0.2454 0.2875 0.6144
C30B C 0.0007(4) 0.6743(5) 0.7607(6)
H20B H 0.0009 0.7081 0.8108
Cl1 Cl 0.50534(17) 0.3737(2) 0.9701(2)
Cl2 Cl 0.3972(2) 0.3375(3) 0.8273(2)
Cl3 Cl 0.5334(3) 0.4493(2) 0.8113(3)
C31 C 0.4640(5) 0.4175(6) 0.8733(5)
H21 H 0.4353 0.4744 0.8843
Cl4 Cl 0.1303(6) 0.4862(7) 0.0897(7)
Cl5 Cl 0.0651(5) 0.5922(5) 0.2105(6)
Cl6 Cl 0.2027(6) 0.6496(6) 0.1553(7)
C32 C 0.1482(8) 0.5548(9) 0.1757(10)
H22 H 0.1783 0.5183 0.2213
C33 C -0.0458(19) 0.632(2) -0.0701(19)
O2 O -0.0509(18) 0.619(2) 0.0149(18)
C34? C 0.0366(8) 0.5736(13) 0.1376(7)
Cl7? Cl 0.1333(7) 0.5973(13) 0.1427(10)
Cl8? Cl -0.0112(5) 0.6426(5) 0.0617(5)
Cl9? Cl 0.0091(3) 0.5919(4) 0.2340(4)
H23? H 0.0272 0.5078 0.1215
loop_
_geom_bond_atom_site_label_1
_geom_bond_atom_site_label_2
_geom_bond_site_symmetry_1
_geom_bond_site_symmetry_2
Fe1 N2 1_555 1_555
Fe2 N3 1_555 1_555
S1 C16 1_555 1_555
S2 C5 1_555 1_555
N1 C2 1_555 1_555
N2 C18 1_555 1_555
N3 C12 1_555 1_555
N4 Fe1 1_555 1_555
N5 Fe2 1_555 1_555
N6 C7 1_555 1_555
N7 C2 1_555 1_555
N8 C3 1_555 1_555
N9 Fe2 1_555 1_555
N10 C3 1_555 1_555
N11 C2 1_555 1_555
N12 Fe1 1_555 1_555
C1 H1 1_555 1_555
C3 N1 1_555 1_555
C4 H2 1_555 1_555
C5 N12 1_555 1_555
O1 C25 1_555 1_555
C6 C1 1_555 1_555
H3 C6 1_555 1_555
C7 N7 1_555 1_555
C8 H4 1_555 1_555
C9 H5 1_555 1_555
C10 C6 1_555 1_555
H6 C10 1_555 1_555
C11 N5 1_555 1_555
H7 C11 1_555 1_555
C12 N6 1_555 1_555
C13 N8 1_555 1_555
H8 C13 1_555 1_555
C14 N8 1_555 1_555
H9 C14 1_555 1_555
C15 N3 1_555 1_555
H10 C15 1_555 1_555
C16 N9 1_555 1_555
C17 N4 1_555 1_555
H11 C17 1_555 1_555
C18 N11 1_555 1_555
C19 N5 1_555 1_555
C20 N4 1_555 1_555
C21 C20 1_555 1_555
H12 C21 1_555 1_555
C22 C4 1_555 1_555
H13 C22 1_555 1_555
C23 H14 1_555 1_555
C24 N2 1_555 1_555
H15 C24 1_555 1_555
C25 C8 1_555 1_555
C26 C14 1_555 1_555
H16 C26 1_555 1_555
C27 C17 1_555 1_555
H17 C27 1_555 1_555
C28 C18 1_555 1_555
H18 C28 1_555 1_555
C29 C23 1_555 1_555
H19 C29 1_555 1_555
C30 C21 1_555 1_555
H20 C30 1_555 1_555
Cl1 C31 1_555 1_555
Cl2 C31 1_555 1_555
Cl3 C31 1_555 1_555
C31 H21 1_555 1_555
Cl4 C32 1_555 1_555
Cl5 C32 1_555 1_555
Cl6 C32 1_555 1_555
C32 H22 1_555 1_555
C33 O2 1_555 1_555
Fe2_2 N3B 1_555 1_555
S1B C16B 1_555 1_555
S2B C5B 1_555 1_555
N1B C2B 1_555 1_555
N2B Fe1 1_555 1_555
N3B C12B 1_555 1_555
N3B_2 Fe2 1_555 1_555
N4B Fe1 1_555 1_555
N5B Fe2_2 1_555 1_555
N5B_2 Fe2 1_555 1_555
N6B C7B 1_555 1_555
N7B C2B 1_555 1_555
N8B C3B 1_555 1_555
N9B Fe2 1_555 1_555
N10B C3B 1_555 1_555
N11B C2B 1_555 1_555
N12B Fe1 1_555 1_555
C1B H1B 1_555 1_555
C3B N1B 1_555 1_555
C4B H2B 1_555 1_555
C5B N12B 1_555 1_555
O1B C25B 1_555 1_555
C6B C1B 1_555 1_555
H3B C6B 1_555 1_555
C7B N7B 1_555 1_555
C8B H4B 1_555 1_555
C9B H5B 1_555 1_555
C10B C6B 1_555 1_555
H6B C10B 1_555 1_555
C11B N5B 1_555 1_555
H7B C11B 1_555 1_555
C12B N6B 1_555 1_555
C13B N8B 1_555 1_555
H8B C13B 1_555 1_555
C14B N8B 1_555 1_555
H9B C14B 1_555 1_555
C15B N3B 1_555 1_555
H10B C15B 1_555 1_555
C16B N9B 1_555 1_555
C17B N4B 1_555 1_555
H11B C17B 1_555 1_555
C18B N2B 1_555 1_555
C19B N5B 1_555 1_555
C20B N4B 1_555 1_555
C21B C20B 1_555 1_555
H12B C21B 1_555 1_555
C22B C4B 1_555 1_555
H13B C22B 1_555 1_555
C23B H14B 1_555 1_555
C24B N2B 1_555 1_555
H15B C24B 1_555 1_555
C25B C8B 1_555 1_555
C26B C14B 1_555 1_555
H16B C26B 1_555 1_555
C27B C17B 1_555 1_555
H17B C27B 1_555 1_555
C28B C18B 1_555 1_555
H18B C28B 1_555 1_555
C29B C23B 1_555 1_555
H19B C29B 1_555 1_555
C30B C21B 1_555 1_555
H20B C30B 1_555 1_555
N6 C19 1_555 1_555
N10 C7 1_555 1_555
N11 C20 1_555 1_555
C1 C12 1_555 1_555
C4 C19 1_555 1_555
C8 C13 1_555 1_555
C9 C11 1_555 1_555
C9 C22 1_555 1_555
C10 C15 1_555 1_555
C23 C24 1_555 1_555
C25 C26 1_555 1_555
C27 C30 1_555 1_555
C28 C29 1_555 1_555
N6B C19B 1_555 1_555
N10B C7B 1_555 1_555
N11B C18B 1_555 1_555
N11B C20B 1_555 1_555
C1B C12B 1_555 1_555
C4B C19B 1_555 1_555
C8B C13B 1_555 1_555
C9B C11B 1_555 1_555
C9B C22B 1_555 1_555
C10B C15B 1_555 1_555
C23B C24B 1_555 1_555
C25B C26B 1_555 1_555
C27B C30B 1_555 1_555
C28B C29B 1_555 1_555

#END
