
#######################################################################
#
#                 Cambridge Crystallographic Data Centre
#                                CCDC 
#
#######################################################################
#
# If this CIF has been generated from an entry in the Cambridge 
# Structural Database, then it will include bibliographic, chemical, 
# crystal, experimental, refinement or atomic coordinate data resulting 
# from the CCDC's data processing and validation procedures.
#
#######################################################################

data_ESUBUQ02
_symmetry_cell_setting           monoclinic
_symmetry_space_group_name_H-M   'P 21/c'
_symmetry_Int_Tables_number      14
_space_group_name_Hall           '-P 2ybc'
loop_
_symmetry_equiv_pos_site_id
_symmetry_equiv_pos_as_xyz
1 x,y,z
2 -x,1/2+y,1/2-z
3 -x,-y,-z
4 x,1/2-y,1/2+z
_cell_length_a                   17.5054(4)
_cell_length_b                   14.3346(4)
_cell_length_c                   16.4222(4)
_cell_angle_alpha                90
_cell_angle_beta                 98.6400(10)
_cell_angle_gamma                90
_cell_volume                     4074.11
loop_
_atom_site_label
_atom_site_type_symbol
_atom_site_fract_x
_atom_site_fract_y
_atom_site_fract_z
Se1 Se 0.31761(4) 0.27924(5) -0.15727(5)
Se2 Se -0.19312(4) 0.60138(6) -0.23628(5)
Fe1 Fe 0.5000 0.5000 0.0000
Fe2 Fe 0.0000 0.5000 0.0000
O1 O 0.2447(3) -0.1254(3) 0.1451(3)
N1 N 0.3145(2) 0.2895(3) 0.0793(3)
N2 N 0.1907(2) 0.2677(3) -0.0002(3)
N3 N 0.2490(2) 0.4180(3) 0.0101(3)
N4 N 0.3661(2) 0.4378(3) 0.0899(3)
N5 N 0.5009(2) 0.4250(3) 0.1078(3)
N6 N 0.4131(3) 0.5764(3) 0.0388(3)
N7 N 0.1312(2) 0.3946(3) -0.0702(3)
N8 N -0.0015(3) 0.3750(3) -0.0715(3)
N9 N 0.0822(3) 0.5473(3) -0.0721(3)
N10 N 0.2555(3) 0.1432(3) 0.0684(3)
N11 N 0.4249(3) 0.4121(3) -0.0627(3)
N12 N -0.0835(3) 0.5506(3) -0.0900(3)
C1 C 0.2538(3) 0.2400(3) 0.0476(3)
C2 C 0.1934(3) 0.3585(4) -0.0180(3)
C3 C 0.3070(3) 0.3785(3) 0.0590(3)
C4 C 0.4362(3) 0.4041(4) 0.1371(4)
C5 C 0.4345(4) 0.3563(4) 0.2089(4)
H1 H 0.3877 0.3430 0.2267
C6 C 0.5029(4) 0.3285(5) 0.2541(4)
H2 H 0.5033 0.2956 0.3030
C7 C 0.5705(4) 0.3501(5) 0.2260(5)
H3 H 0.6177 0.3321 0.2556
C8 C 0.5676(3) 0.3984(4) 0.1537(4)
H4 H 0.6138 0.4136 0.1355
C9 C 0.3594(3) 0.5365(3) 0.0758(4)
C10 C 0.3007(4) 0.5860(4) 0.1046(4)
H5 H 0.2639 0.5554 0.1302
C11 C 0.2982(4) 0.6803(4) 0.0943(5)
H6 H 0.2591 0.7153 0.1121
C12 C 0.3537(4) 0.7227(4) 0.0576(4)
H7 H 0.3527 0.7870 0.0501
C13 C 0.4108(4) 0.6707(4) 0.0319(4)
H8 H 0.4494 0.7009 0.0089
C14 C 0.0625(3) 0.3409(4) -0.0943(4)
C15 C 0.0647(4) 0.2614(4) -0.1398(4)
H9 H 0.1109 0.2402 -0.1546
C16 C -0.0036(4) 0.2133(5) -0.1633(4)
H10 H -0.0041 0.1582 -0.1932
C17 C -0.0710(4) 0.2486(5) -0.1413(5)
H11 H -0.1177 0.2178 -0.1565
C18 C -0.0680(4) 0.3291(5) -0.0973(4)
H12 H -0.1139 0.3536 -0.0843
C19 C 0.1338(3) 0.4894(4) -0.0962(3)
C20 C 0.1867(3) 0.5163(4) -0.1465(4)
H13 H 0.2211 0.4734 -0.1630
C21 C 0.1872(4) 0.6072(5) -0.1715(5)
H14 H 0.2230 0.6275 -0.2041
C22 C 0.1345(4) 0.6681(5) -0.1477(4)
H15 H 0.1339 0.7303 -0.1639
C23 C 0.0823(4) 0.6357(4) -0.0995(4)
H16 H 0.0454 0.6768 -0.0852
C24 C 0.2095(4) 0.0802(4) 0.0223(5)
H17 H 0.1792 0.0998 -0.0260
C25 C 0.2069(4) -0.0103(4) 0.0451(5)
H18 H 0.1760 -0.0517 0.0112
C26 C 0.2503(4) -0.0439(4) 0.1198(4)
C27 C 0.3004(4) 0.0245(4) 0.1625(4)
H19 H 0.3334 0.0070 0.2097
C28 C 0.3015(4) 0.1127(4) 0.1369(4)
H20 H 0.3349 0.1547 0.1673
C29 C 0.3841(3) 0.3594(4) -0.1003(4)
C30 C -0.1256(3) 0.5708(4) -0.1476(4)
Se1B Se 0.68239(4) 0.72076(5) 0.15727(5)
Se2B Se 0.19312(4) 0.39862(6) 0.23628(5)
Fe2_2 Fe 1.0000 0.5000 0.0000
O1B O 0.7553(3) 1.1254(3) -0.1451(3)
N1B N 0.6855(2) 0.7105(3) -0.0793(3)
N2B N 0.8093(2) 0.7323(3) 0.0002(3)
N3B N 0.7510(2) 0.5820(3) -0.0101(3)
N4B N 0.6339(2) 0.5622(3) -0.0899(3)
N5B N 0.4991(2) 0.5750(3) -0.1078(3)
N6B N 0.5869(3) 0.4236(3) -0.0388(3)
N7B N 0.8688(2) 0.6054(3) 0.0702(3)
N8B N 1.0015(3) 0.6250(3) 0.0715(3)
N8B_2 N 0.0015(3) 0.6250(3) 0.0715(3)
N9B N 0.9178(3) 0.4527(3) 0.0721(3)
N9B_2 N -0.0822(3) 0.4527(3) 0.0721(3)
N10B N 0.7445(3) 0.8568(3) -0.0684(3)
N11B N 0.5751(3) 0.5879(3) 0.0627(3)
N12B N 0.0835(3) 0.4494(3) 0.0900(3)
C1B C 0.7462(3) 0.7600(3) -0.0476(3)
C2B C 0.8066(3) 0.6415(4) 0.0180(3)
C3B C 0.6930(3) 0.6215(3) -0.0590(3)
C4B C 0.5638(3) 0.5959(4) -0.1371(4)
C5B C 0.5655(4) 0.6437(4) -0.2089(4)
H1B H 0.6123 0.6570 -0.2267
C6B C 0.4971(4) 0.6715(5) -0.2541(4)
H2B H 0.4967 0.7044 -0.3030
C7B C 0.4295(4) 0.6499(5) -0.2260(5)
H3B H 0.3823 0.6679 -0.2556
C8B C 0.4324(3) 0.6016(4) -0.1537(4)
H4B H 0.3862 0.5864 -0.1355
C9B C 0.6406(3) 0.4635(3) -0.0758(4)
C10B C 0.6993(4) 0.4140(4) -0.1046(4)
H5B H 0.7361 0.4446 -0.1302
C11B C 0.7018(4) 0.3197(4) -0.0943(5)
H6B H 0.7409 0.2847 -0.1121
C12B C 0.6463(4) 0.2773(4) -0.0576(4)
H7B H 0.6473 0.2130 -0.0501
C13B C 0.5892(4) 0.3293(4) -0.0319(4)
H8B H 0.5506 0.2991 -0.0089
C14B C 0.9375(3) 0.6591(4) 0.0943(4)
C15B C 0.9353(4) 0.7386(4) 0.1398(4)
H9B H 0.8891 0.7598 0.1546
C16B C 1.0036(4) 0.7867(5) 0.1633(4)
H10B H 1.0041 0.8418 0.1932
C17B C 1.0710(4) 0.7514(5) 0.1413(5)
H11B H 1.1177 0.7822 0.1565
C18B C 1.0680(4) 0.6709(5) 0.0973(4)
H12B H 1.1139 0.6464 0.0843
C19B C 0.8662(3) 0.5106(4) 0.0962(3)
C20B C 0.8133(3) 0.4837(4) 0.1465(4)
H13B H 0.7789 0.5266 0.1630
C21B C 0.8128(4) 0.3928(5) 0.1715(5)
H14B H 0.7770 0.3725 0.2041
C22B C 0.8655(4) 0.3319(5) 0.1477(4)
H15B H 0.8661 0.2697 0.1639
C23B C 0.9177(4) 0.3643(4) 0.0995(4)
H16B H 0.9546 0.3232 0.0852
C24B C 0.7905(4) 0.9198(4) -0.0223(5)
H17B H 0.8208 0.9002 0.0260
C25B C 0.7931(4) 1.0103(4) -0.0451(5)
H18B H 0.8240 1.0517 -0.0112
C26B C 0.7497(4) 1.0439(4) -0.1198(4)
C27B C 0.6996(4) 0.9755(4) -0.1625(4)
H19B H 0.6666 0.9930 -0.2097
C28B C 0.6985(4) 0.8873(4) -0.1369(4)
H20B H 0.6651 0.8453 -0.1673
C29B C 0.6159(3) 0.6406(4) 0.1003(4)
C30B C 0.1256(3) 0.4292(4) 0.1476(4)
Cl1 Cl 0.89961(18) 0.6657(3) 0.32390(19)
Cl2 Cl 1.0314(2) 0.5517(2) 0.3101(3)
Cl3 Cl 1.00375(18) 0.6257(2) 0.46491(18)
C31 C 0.9602(6) 0.5803(7) 0.3680(7)
H21 H 0.9301 0.5245 0.3767
O2 O 0.5440(17) 0.6281(19) 0.5659(15)
C32 C 0.5511(14) 0.6317(18) 0.4785(16)
H22 H 0.5434 0.5704 0.4551
H23 H 0.6016 0.6537 0.4721
H24 H 0.5128 0.6733 0.4507
Cl4? Cl 0.5091(5) 0.6404(8) 0.4311(5)
Cl5? Cl 0.4893(5) 0.5913(4) 0.2663(4)
Cl6? Cl 0.3628(7) 0.6082(14) 0.3477(11)
C33? C 0.4540(8) 0.5564(11) 0.3640(8)
H25? H 0.4575 0.4905 0.3800
C34? C 0.3509(8) 0.5584(9) 0.3261(14)
Cl7? Cl 0.3729(6) 0.4992(7) 0.4100(7)
Cl8? Cl 0.4363(7) 0.5954(6) 0.2952(7)
Cl9? Cl 0.2931(7) 0.6558(6) 0.3436(8)
H26? H 0.3225 0.5185 0.2834
loop_
_geom_bond_atom_site_label_1
_geom_bond_atom_site_label_2
_geom_bond_site_symmetry_1
_geom_bond_site_symmetry_2
Se1 C29 1_555 1_555
Se2 C30 1_555 1_555
Fe1 N5 1_555 1_555
Fe2 N8 1_555 1_555
O1 C26 1_555 1_555
N1 C1 1_555 1_555
N2 C1 1_555 1_555
N3 C2 1_555 1_555
N4 C3 1_555 1_555
N5 C4 1_555 1_555
N6 Fe1 1_555 1_555
N7 C2 1_555 1_555
N8 C14 1_555 1_555
N9 Fe2 1_555 1_555
N10 C1 1_555 1_555
N11 Fe1 1_555 1_555
N12 Fe2 1_555 1_555
C2 N2 1_555 1_555
C3 N1 1_555 1_555
C4 N4 1_555 1_555
C5 C4 1_555 1_555
H1 C5 1_555 1_555
C6 C5 1_555 1_555
H2 C6 1_555 1_555
C7 C6 1_555 1_555
H3 C7 1_555 1_555
C8 N5 1_555 1_555
H4 C8 1_555 1_555
C9 N4 1_555 1_555
C10 C9 1_555 1_555
H5 C10 1_555 1_555
C11 C10 1_555 1_555
H6 C11 1_555 1_555
C12 C11 1_555 1_555
H7 C12 1_555 1_555
C13 N6 1_555 1_555
H8 C13 1_555 1_555
C14 N7 1_555 1_555
C15 C14 1_555 1_555
H9 C15 1_555 1_555
C16 C15 1_555 1_555
H10 C16 1_555 1_555
C17 C16 1_555 1_555
H11 C17 1_555 1_555
C18 N8 1_555 1_555
H12 C18 1_555 1_555
C19 N7 1_555 1_555
C20 C19 1_555 1_555
H13 C20 1_555 1_555
C21 C20 1_555 1_555
H14 C21 1_555 1_555
C22 C21 1_555 1_555
H15 C22 1_555 1_555
C23 N9 1_555 1_555
H16 C23 1_555 1_555
C24 N10 1_555 1_555
H17 C24 1_555 1_555
C25 C24 1_555 1_555
H18 C25 1_555 1_555
C26 C25 1_555 1_555
C27 C26 1_555 1_555
H19 C27 1_555 1_555
C28 N10 1_555 1_555
H20 C28 1_555 1_555
C29 N11 1_555 1_555
C30 N12 1_555 1_555
Cl1 C31 1_555 1_555
Cl2 C31 1_555 1_555
Cl3 C31 1_555 1_555
C31 H21 1_555 1_555
O2 C32 1_555 1_555
C32 H22 1_555 1_555
H23 C32 1_555 1_555
H24 C32 1_555 1_555
Se1B C29B 1_555 1_555
Se2B C30B 1_555 1_555
Fe2_2 N8B 1_555 1_555
O1B C26B 1_555 1_555
N1B C1B 1_555 1_555
N2B C1B 1_555 1_555
N3B C2B 1_555 1_555
N4B C3B 1_555 1_555
N5B Fe1 1_555 1_555
N6B Fe1 1_555 1_555
N7B C2B 1_555 1_555
N8B C14B 1_555 1_555
N8B_2 Fe2 1_555 1_555
N9B Fe2_2 1_555 1_555
N9B_2 Fe2 1_555 1_555
N10B C1B 1_555 1_555
N11B Fe1 1_555 1_555
N12B Fe2 1_555 1_555
C2B N2B 1_555 1_555
C3B N1B 1_555 1_555
C4B N4B 1_555 1_555
C5B C4B 1_555 1_555
H1B C5B 1_555 1_555
C6B C5B 1_555 1_555
H2B C6B 1_555 1_555
C7B C6B 1_555 1_555
H3B C7B 1_555 1_555
C8B N5B 1_555 1_555
H4B C8B 1_555 1_555
C9B N4B 1_555 1_555
C10B C9B 1_555 1_555
H5B C10B 1_555 1_555
C11B C10B 1_555 1_555
H6B C11B 1_555 1_555
C12B C11B 1_555 1_555
H7B C12B 1_555 1_555
C13B N6B 1_555 1_555
H8B C13B 1_555 1_555
C14B N7B 1_555 1_555
C15B C14B 1_555 1_555
H9B C15B 1_555 1_555
C16B C15B 1_555 1_555
H10B C16B 1_555 1_555
C17B C16B 1_555 1_555
H11B C17B 1_555 1_555
C18B N8B 1_555 1_555
H12B C18B 1_555 1_555
C19B N7B 1_555 1_555
C20B C19B 1_555 1_555
H13B C20B 1_555 1_555
C21B C20B 1_555 1_555
H14B C21B 1_555 1_555
C22B C21B 1_555 1_555
H15B C22B 1_555 1_555
C23B N9B 1_555 1_555
H16B C23B 1_555 1_555
C24B N10B 1_555 1_555
H17B C24B 1_555 1_555
C25B C24B 1_555 1_555
H18B C25B 1_555 1_555
C26B C25B 1_555 1_555
C27B C26B 1_555 1_555
H19B C27B 1_555 1_555
C28B N10B 1_555 1_555
H20B C28B 1_555 1_555
C29B N11B 1_555 1_555
C30B N12B 1_555 1_555
N3 C3 1_555 1_555
N6 C9 1_555 1_555
N9 C19 1_555 1_555
C7 C8 1_555 1_555
C12 C13 1_555 1_555
C17 C18 1_555 1_555
C22 C23 1_555 1_555
C27 C28 1_555 1_555
N3B C3B 1_555 1_555
N5B C4B 1_555 1_555
N6B C9B 1_555 1_555
N9B C19B 1_555 1_555
C7B C8B 1_555 1_555
C12B C13B 1_555 1_555
C17B C18B 1_555 1_555
C22B C23B 1_555 1_555
C27B C28B 1_555 1_555

#END
