
#######################################################################
#
#                 Cambridge Crystallographic Data Centre
#                                CCDC 
#
#######################################################################
#
# If this CIF has been generated from an entry in the Cambridge 
# Structural Database, then it will include bibliographic, chemical, 
# crystal, experimental, refinement or atomic coordinate data resulting 
# from the CCDC's data processing and validation procedures.
#
#######################################################################

data_ESUCIF
_symmetry_cell_setting           triclinic
_symmetry_space_group_name_H-M   'P -1'
_symmetry_Int_Tables_number      2
_space_group_name_Hall           '-P 1'
loop_
_symmetry_equiv_pos_site_id
_symmetry_equiv_pos_as_xyz
1 x,y,z
2 -x,-y,-z
_cell_length_a                   12.041(4)
_cell_length_b                   12.681(2)
_cell_length_c                   12.810(2)
_cell_angle_alpha                85.303(4)
_cell_angle_beta                 67.567(9)
_cell_angle_gamma                87.748(7)
_cell_volume                     1801.83
loop_
_atom_site_label
_atom_site_type_symbol
_atom_site_fract_x
_atom_site_fract_y
_atom_site_fract_z
Fe1 Fe 0.0000 0.0000 1.0000
Fe2 Fe 0.5000 0.5000 0.5000
S1 S 0.48310(8) 0.12391(7) 0.52162(8)
S2 S -0.09459(9) 0.31797(7) 0.82908(9)
O1 O 0.1199(2) 0.18251(18) 0.4535(2)
N1 N 0.1559(3) 0.1200(2) 0.6118(2)
N2 N 0.1709(3) 0.3023(2) 0.5466(2)
N3 N 0.2151(2) 0.2453(2) 0.7093(2)
N4 N 0.0772(2) -0.0795(2) 0.8625(2)
N5 N 0.3216(3) 0.5460(2) 0.4897(3)
N6 N 0.1963(2) 0.0694(2) 0.7716(2)
N7 N 0.3884(3) 0.4806(2) 0.6861(3)
N8 N 0.2305(3) 0.4204(2) 0.6426(2)
C1 C 0.1512(3) 0.2015(3) 0.5419(3)
N9 N 0.1611(3) 0.0604(2) 0.9656(2)
N10 N -0.0409(2) 0.1211(2) 0.9169(2)
C2 C 0.1896(3) 0.1483(3) 0.6931(3)
C3 C 0.1637(3) -0.0371(3) 0.7673(3)
C4 C 0.2033(3) 0.3184(3) 0.6331(3)
C5 C 0.2200(3) 0.5033(3) 0.5639(3)
N11 N 0.4778(3) 0.3435(2) 0.4819(3)
C6 C 0.2341(3) 0.0910(2) 0.8600(3)
C7 C 0.0518(3) -0.1831(3) 0.8620(3)
H1 H -0.0067 -0.2163 0.9283
C8 C 0.2753(3) 0.4454(3) 0.7260(3)
C9 C -0.0650(3) 0.2028(3) 0.8816(3)
C10 C 0.2007(3) 0.0732(3) 1.0498(3)
H2 H 0.1524 0.0478 1.1248
C11 C 0.3451(3) 0.1387(3) 0.8344(3)
H3 H 0.3949 0.1590 0.7583
C12 C 0.1688(3) 0.0909(3) 0.3969(3)
C13 C 0.2228(3) -0.0906(3) 0.6725(3)
H4 H 0.2823 -0.0564 0.6076
C14 C 0.0937(3) 0.0289(3) 0.3694(3)
H5 H 0.0106 0.0456 0.3920
C15 C 0.3807(3) 0.1558(3) 0.9215(3)
H6 H 0.4542 0.1906 0.9068
C16 C 0.1420(4) -0.0581(3) 0.3081(3)
H7 H 0.0913 -0.1030 0.2904
C17 C 0.2023(4) 0.4342(3) 0.8388(3)
H8 H 0.1226 0.4089 0.8630
C18 C 0.3078(3) 0.1214(3) 1.0315(3)
H9 H 0.3313 0.1310 1.0929
C19 C 0.4312(4) 0.5085(3) 0.7629(3)
H10 H 0.5101 0.5361 0.7367
C20 C 0.1060(3) 0.5364(3) 0.5726(3)
H11 H 0.0363 0.5048 0.6290
C21 C 0.2640(4) -0.0800(3) 0.2723(3)
H12 H 0.2970 -0.1389 0.2287
C22 C 0.4802(3) 0.2515(3) 0.4983(3)
C23 C 0.1941(4) -0.1959(3) 0.6730(3)
H13 H 0.2334 -0.2351 0.6087
C24 C 0.3097(4) 0.6256(3) 0.4173(3)
H14 H 0.3804 0.6582 0.3637
C25 C 0.2900(3) 0.0697(3) 0.3630(3)
H15 H 0.3403 0.1135 0.3825
C26 C 0.1066(4) -0.2422(3) 0.7701(3)
H16 H 0.0848 -0.3139 0.7730
C27 C 0.2501(4) 0.4615(4) 0.9165(4)
H17 H 0.2033 0.4543 0.9954
C28 C 0.2001(4) 0.6615(3) 0.4177(4)
H18 H 0.1962 0.7164 0.3641
C29 C 0.3655(4) 0.4989(4) 0.8774(4)
H19 H 0.3995 0.5179 0.9290
C30 C 0.0965(4) 0.6173(3) 0.4962(4)
H20 H 0.0201 0.6415 0.4983
C31 C 0.3372(4) -0.0164(3) 0.3002(3)
H21 H 0.4208 -0.0319 0.2761
Fe2_2 Fe -0.5000 -0.5000 1.5000
S1A S 0.51690(8) 0.87609(7) 0.47838(8)
S2A S 0.09459(9) -0.31797(7) 1.17092(9)
O1A O -0.1199(2) -0.18251(18) 1.5465(2)
N1A N -0.1559(3) -0.1200(2) 1.3882(2)
N2A N -0.1709(3) -0.3023(2) 1.4534(2)
N3A N -0.2151(2) -0.2453(2) 1.2907(2)
N4A N -0.0772(2) 0.0795(2) 1.1375(2)
N5A N -0.3216(3) -0.5460(2) 1.5103(3)
N5A_2 N 0.6784(3) 0.4540(2) 0.5103(3)
N6A N -0.1963(2) -0.0694(2) 1.2284(2)
N7A N -0.3884(3) -0.4806(2) 1.3139(3)
N7A_2 N 0.6116(3) 0.5194(2) 0.3139(3)
N8A N -0.2305(3) -0.4204(2) 1.3574(2)
C1A C -0.1512(3) -0.2015(3) 1.4581(3)
N9A N -0.1611(3) -0.0604(2) 1.0344(2)
N10A N 0.0409(2) -0.1211(2) 1.0831(2)
C2A C -0.1896(3) -0.1483(3) 1.3069(3)
C3A C -0.1637(3) 0.0371(3) 1.2327(3)
C4A C -0.2033(3) -0.3184(3) 1.3669(3)
C5A C -0.2200(3) -0.5033(3) 1.4361(3)
N11A N 0.5222(3) 0.6565(2) 0.5181(3)
C6A C -0.2341(3) -0.0910(2) 1.1400(3)
C7A C -0.0518(3) 0.1831(3) 1.1380(3)
H1A H 0.0067 0.2163 1.0717
C8A C -0.2753(3) -0.4454(3) 1.2740(3)
C9A C 0.0650(3) -0.2028(3) 1.1184(3)
C10A C -0.2007(3) -0.0732(3) 0.9502(3)
H2A H -0.1524 -0.0478 0.8752
C11A C -0.3451(3) -0.1387(3) 1.1656(3)
H3A H -0.3949 -0.1590 1.2417
C12A C -0.1688(3) -0.0909(3) 1.6031(3)
C13A C -0.2228(3) 0.0906(3) 1.3275(3)
H4A H -0.2823 0.0564 1.3924
C14A C -0.0937(3) -0.0289(3) 1.6306(3)
H5A H -0.0106 -0.0456 1.6080
C15A C -0.3807(3) -0.1558(3) 1.0785(3)
H6A H -0.4542 -0.1906 1.0932
C16A C -0.1420(4) 0.0581(3) 1.6919(3)
H7A H -0.0913 0.1030 1.7096
C17A C -0.2023(4) -0.4342(3) 1.1612(3)
H8A H -0.1226 -0.4089 1.1370
C18A C -0.3078(3) -0.1214(3) 0.9685(3)
H9A H -0.3313 -0.1310 0.9071
C19A C -0.4312(4) -0.5085(3) 1.2371(3)
H10A H -0.5101 -0.5361 1.2633
C20A C -0.1060(3) -0.5364(3) 1.4274(3)
H11A H -0.0363 -0.5048 1.3710
C21A C -0.2640(4) 0.0800(3) 1.7277(3)
H12A H -0.2970 0.1389 1.7713
C22A C 0.5198(3) 0.7485(3) 0.5017(3)
C23A C -0.1941(4) 0.1959(3) 1.3270(3)
H13A H -0.2334 0.2351 1.3913
C24A C -0.3097(4) -0.6256(3) 1.5827(3)
H14A H -0.3804 -0.6582 1.6363
C25A C -0.2900(3) -0.0697(3) 1.6370(3)
H15A H -0.3403 -0.1135 1.6175
C26A C -0.1066(4) 0.2422(3) 1.2299(3)
H16A H -0.0848 0.3139 1.2270
C27A C -0.2501(4) -0.4615(4) 1.0835(4)
H17A H -0.2033 -0.4543 1.0046
C28A C -0.2001(4) -0.6615(3) 1.5823(4)
H18A H -0.1962 -0.7164 1.6359
C29A C -0.3655(4) -0.4989(4) 1.1226(4)
H19A H -0.3995 -0.5179 1.0710
C30A C -0.0965(4) -0.6173(3) 1.5038(4)
H20A H -0.0201 -0.6415 1.5017
C31A C -0.3372(4) 0.0164(3) 1.6998(3)
H21A H -0.4208 0.0319 1.7239
O2 O 0.3768(3) 0.6572(3) 0.1203(3)
H22 H 0.3016(19) 0.669(5) 0.132(6)
H23 H 0.376(6) 0.5883(9) 0.126(6)
O3 O 0.3434(3) 0.4344(3) 0.1628(3)
H24 H 0.3905 0.3831 0.1401
C32 C 0.2378(5) 0.3983(5) 0.2505(5)
H25 H 0.2567 0.3680 0.3147
H26 H 0.2014 0.3441 0.2237
H27 H 0.1813 0.4576 0.2745
O4 O 0.5014(3) 0.2668(3) 0.0987(3)
H28 H 0.5385 0.2848 0.0297
C33 C 0.5824(6) 0.2125(5) 0.1433(6)
H29 H 0.6530 0.2565 0.1270
H30 H 0.6078 0.1453 0.1080
H31 H 0.5418 0.1986 0.2254
loop_
_geom_bond_atom_site_label_1
_geom_bond_atom_site_label_2
_geom_bond_site_symmetry_1
_geom_bond_site_symmetry_2
Fe1 N4 1_555 1_555
Fe2 N5 1_555 1_555
S1 C22 1_555 1_555
S2 C9 1_555 1_555
O1 C1 1_555 1_555
N1 C1 1_555 1_555
N2 C1 1_555 1_555
N3 C2 1_555 1_555
N4 C3 1_555 1_555
N5 C5 1_555 1_555
N6 C2 1_555 1_555
N7 Fe2 1_555 1_555
N8 C4 1_555 1_555
N9 Fe1 1_555 1_555
N10 Fe1 1_555 1_555
C2 N1 1_555 1_555
C3 N6 1_555 1_555
C4 N2 1_555 1_555
C5 N8 1_555 1_555
N11 Fe2 1_555 1_555
C6 N6 1_555 1_555
C7 N4 1_555 1_555
H1 C7 1_555 1_555
C8 N7 1_555 1_555
C9 N10 1_555 1_555
C10 N9 1_555 1_555
H2 C10 1_555 1_555
C11 C6 1_555 1_555
H3 C11 1_555 1_555
C12 O1 1_555 1_555
C13 C3 1_555 1_555
H4 C13 1_555 1_555
C14 C12 1_555 1_555
H5 C14 1_555 1_555
C15 C11 1_555 1_555
H6 C15 1_555 1_555
C16 C14 1_555 1_555
H7 C16 1_555 1_555
C17 C8 1_555 1_555
H8 C17 1_555 1_555
C18 C10 1_555 1_555
H9 C18 1_555 1_555
C19 N7 1_555 1_555
H10 C19 1_555 1_555
C20 C5 1_555 1_555
H11 C20 1_555 1_555
C21 C16 1_555 1_555
H12 C21 1_555 1_555
C22 N11 1_555 1_555
C23 C13 1_555 1_555
H13 C23 1_555 1_555
C24 N5 1_555 1_555
H14 C24 1_555 1_555
C25 C12 1_555 1_555
H15 C25 1_555 1_555
C26 C7 1_555 1_555
H16 C26 1_555 1_555
C27 C17 1_555 1_555
H17 C27 1_555 1_555
C28 C24 1_555 1_555
H18 C28 1_555 1_555
C29 C19 1_555 1_555
H19 C29 1_555 1_555
C30 C20 1_555 1_555
H20 C30 1_555 1_555
C31 C21 1_555 1_555
H21 C31 1_555 1_555
O2 H22 1_555 1_555
H23 O2 1_555 1_555
O3 H24 1_555 1_555
C32 O3 1_555 1_555
H25 C32 1_555 1_555
H26 C32 1_555 1_555
H27 C32 1_555 1_555
O4 H28 1_555 1_555
C33 O4 1_555 1_555
H29 C33 1_555 1_555
H30 C33 1_555 1_555
H31 C33 1_555 1_555
Fe2_2 N5A 1_555 1_555
S1A C22A 1_555 1_555
S2A C9A 1_555 1_555
O1A C1A 1_555 1_555
N1A C1A 1_555 1_555
N2A C1A 1_555 1_555
N3A C2A 1_555 1_555
N4A Fe1 1_555 1_555
N5A C5A 1_555 1_555
N5A_2 Fe2 1_555 1_555
N6A C2A 1_555 1_555
N7A Fe2_2 1_555 1_555
N7A_2 Fe2 1_555 1_555
N8A C4A 1_555 1_555
N9A Fe1 1_555 1_555
N10A Fe1 1_555 1_555
C2A N1A 1_555 1_555
C3A N4A 1_555 1_555
C4A N2A 1_555 1_555
C5A N8A 1_555 1_555
N11A Fe2 1_555 1_555
C6A N6A 1_555 1_555
C7A N4A 1_555 1_555
H1A C7A 1_555 1_555
C8A N7A 1_555 1_555
C9A N10A 1_555 1_555
C10A N9A 1_555 1_555
H2A C10A 1_555 1_555
C11A C6A 1_555 1_555
H3A C11A 1_555 1_555
C12A O1A 1_555 1_555
C13A C3A 1_555 1_555
H4A C13A 1_555 1_555
C14A C12A 1_555 1_555
H5A C14A 1_555 1_555
C15A C11A 1_555 1_555
H6A C15A 1_555 1_555
C16A C14A 1_555 1_555
H7A C16A 1_555 1_555
C17A C8A 1_555 1_555
H8A C17A 1_555 1_555
C18A C10A 1_555 1_555
H9A C18A 1_555 1_555
C19A N7A 1_555 1_555
H10A C19A 1_555 1_555
C20A C5A 1_555 1_555
H11A C20A 1_555 1_555
C21A C16A 1_555 1_555
H12A C21A 1_555 1_555
C22A N11A 1_555 1_555
C23A C13A 1_555 1_555
H13A C23A 1_555 1_555
C24A N5A 1_555 1_555
H14A C24A 1_555 1_555
C25A C12A 1_555 1_555
H15A C25A 1_555 1_555
C26A C7A 1_555 1_555
H16A C26A 1_555 1_555
C27A C17A 1_555 1_555
H17A C27A 1_555 1_555
C28A C24A 1_555 1_555
H18A C28A 1_555 1_555
C29A C19A 1_555 1_555
H19A C29A 1_555 1_555
C30A C20A 1_555 1_555
H20A C30A 1_555 1_555
C31A C21A 1_555 1_555
H21A C31A 1_555 1_555
N3 C4 1_555 1_555
N8 C8 1_555 1_555
N9 C6 1_555 1_555
C15 C18 1_555 1_555
C23 C26 1_555 1_555
C25 C31 1_555 1_555
C27 C29 1_555 1_555
C28 C30 1_555 1_555
N3A C4A 1_555 1_555
N6A C3A 1_555 1_555
N8A C8A 1_555 1_555
N9A C6A 1_555 1_555
C15A C18A 1_555 1_555
C23A C26A 1_555 1_555
C25A C31A 1_555 1_555
C27A C29A 1_555 1_555
C28A C30A 1_555 1_555

#END
