
#######################################################################
#
#                 Cambridge Crystallographic Data Centre
#                                CCDC 
#
#######################################################################
#
# If this CIF has been generated from an entry in the Cambridge 
# Structural Database, then it will include bibliographic, chemical, 
# crystal, experimental, refinement or atomic coordinate data resulting 
# from the CCDC's data processing and validation procedures.
#
#######################################################################

data_ESUCUR01
_symmetry_cell_setting           triclinic
_symmetry_space_group_name_H-M   'P -1'
_symmetry_Int_Tables_number      2
_space_group_name_Hall           '-P 1'
loop_
_symmetry_equiv_pos_site_id
_symmetry_equiv_pos_as_xyz
1 x,y,z
2 -x,-y,-z
_cell_length_a                   12.33(3)
_cell_length_b                   12.910(7)
_cell_length_c                   13.168(9)
_cell_angle_alpha                84.00(4)
_cell_angle_beta                 66.44(5)
_cell_angle_gamma                86.90(5)
_cell_volume                     1910.66
loop_
_atom_site_label
_atom_site_type_symbol
_atom_site_fract_x
_atom_site_fract_y
_atom_site_fract_z
Fe1 Fe 0.0000 0.0000 1.0000
Fe2 Fe 0.5000 0.5000 0.5000
S1 S -0.10509(16) 0.30477(12) 0.81828(16)
S2 S 0.51767(14) 0.87018(10) 0.49173(14)
O1 O 0.1203(4) 0.1857(3) 0.4610(3)
O2 O 0.2940(4) -0.1518(4) 0.2138(4)
H1 H 0.2419 -0.1786 0.2006
N1 N 0.1964(4) 0.0674(3) 0.7683(3)
N2 N -0.0414(4) 0.1219(3) 0.9147(4)
N3 N 0.0799(4) -0.0805(3) 0.8601(4)
N4 N 0.2347(4) 0.4140(3) 0.6389(4)
N5 N 0.1739(4) 0.3002(3) 0.5481(4)
N6 N 0.2169(4) 0.2411(3) 0.7064(3)
N7 N 0.1660(4) 0.0587(3) 0.9579(3)
N8 N 0.1548(4) 0.1209(3) 0.6148(3)
C1 C 0.1897(4) 0.1457(4) 0.6932(4)
C2 C -0.0664(4) 0.1962(4) 0.8756(4)
N9 N 0.5174(5) 0.6535(4) 0.5202(5)
N10 N 0.3212(5) 0.5449(3) 0.4945(4)
C3 C 0.1641(5) -0.0369(4) 0.7657(4)
C4 C 0.1522(4) 0.2014(4) 0.5459(4)
C5 C 0.2058(4) 0.3145(4) 0.6316(4)
C6 C 0.2223(5) 0.4996(4) 0.5645(5)
N11 N 0.3849(5) 0.4742(4) 0.6832(4)
C7 C 0.0561(6) -0.1820(4) 0.8616(5)
H2 H -0.0011 -0.2145 0.9269
C8 C 0.1615(5) 0.0951(4) 0.4065(4)
C9 C 0.2382(5) 0.0852(4) 0.8521(4)
C10 C 0.2086(5) 0.0681(4) 1.0364(5)
H3 H 0.1605 0.0483 1.1112
C11 C 0.0854(5) 0.0430(4) 0.3755(4)
H4 H 0.0058 0.0642 0.3974
C12 C 0.3079(7) 0.6296(4) 0.4296(6)
H5 H 0.3758 0.6651 0.3795
C13 C 0.3917(6) 0.1347(5) 0.9022(5)
H6 H 0.4671 0.1620 0.8839
C14 C 0.2223(5) -0.0897(4) 0.6732(5)
H7 H 0.2802 -0.0569 0.6086
C15 C 0.1932(6) -0.1930(5) 0.6779(6)
H8 H 0.2301 -0.2308 0.6153
C16 C 0.3196(6) 0.1055(5) 1.0113(5)
H9 H 0.3461 0.1110 1.0682
C17 C 0.2454(5) -0.0711(4) 0.2796(5)
C18 C 0.0999(8) 0.6158(5) 0.5061(7)
H10 H 0.0251 0.6394 0.5096
C19 C 0.3516(5) 0.1233(4) 0.8208(5)
H11 H 0.3996 0.1408 0.7455
C20 C 0.2758(5) 0.4367(4) 0.7217(4)
C21 C 0.1282(5) -0.0400(4) 0.3123(5)
H12 H 0.0772 -0.0759 0.2913
C22 C 0.1112(6) -0.2394(5) 0.7729(6)
H13 H 0.0926 -0.3098 0.7776
C23 C 0.4242(7) 0.5007(6) 0.7595(6)
H14 H 0.5002 0.5289 0.7343
C24 C 0.3195(6) -0.0199(5) 0.3117(6)
H15 H 0.3987 -0.0419 0.2910
C25 C 0.1101(6) 0.5299(5) 0.5744(6)
H16 H 0.0431 0.4938 0.6254
C26 C 0.2461(9) 0.4486(7) 0.9083(6)
H17 H 0.1994 0.4390 0.9850
C27 C 0.2026(7) 0.4231(5) 0.8327(5)
H18 H 0.1256 0.3975 0.8561
C28 C 0.5169(5) 0.7441(4) 0.5097(5)
C29 C 0.1995(8) 0.6652(5) 0.4342(7)
H19 H 0.1941 0.7239 0.3876
C30 C 0.2775(6) 0.0646(5) 0.3747(5)
H20 H 0.3287 0.1006 0.3954
C31 C 0.3584(9) 0.4881(7) 0.8709(7)
H21 H 0.3889 0.5061 0.9215
Fe2_2 Fe -0.5000 -0.5000 1.5000
S1A S 0.10509(16) -0.30477(12) 1.18172(16)
S2A S 0.48233(14) 0.12982(10) 0.50827(14)
O1A O -0.1203(4) -0.1857(3) 1.5390(3)
O2A O -0.2940(4) 0.1518(4) 1.7862(4)
H1A H -0.2419 0.1786 1.7994
N1A N -0.1964(4) -0.0674(3) 1.2317(3)
N2A N 0.0414(4) -0.1219(3) 1.0853(4)
N3A N -0.0799(4) 0.0805(3) 1.1399(4)
N4A N -0.2347(4) -0.4140(3) 1.3611(4)
N5A N -0.1739(4) -0.3002(3) 1.4519(4)
N6A N -0.2169(4) -0.2411(3) 1.2936(3)
N7A N -0.1660(4) -0.0587(3) 1.0421(3)
N8A N -0.1548(4) -0.1209(3) 1.3852(3)
C1A C -0.1897(4) -0.1457(4) 1.3068(4)
C2A C 0.0664(4) -0.1962(4) 1.1244(4)
N9A N 0.4826(5) 0.3465(4) 0.4798(5)
N10A N -0.3212(5) -0.5449(3) 1.5055(4)
N10A_2 N 0.6788(5) 0.4551(3) 0.5055(4)
C3A C -0.1641(5) 0.0369(4) 1.2343(4)
C4A C -0.1522(4) -0.2014(4) 1.4541(4)
C5A C -0.2058(4) -0.3145(4) 1.3684(4)
C6A C -0.2223(5) -0.4996(4) 1.4355(5)
N11A N -0.3849(5) -0.4742(4) 1.3168(4)
N11A_2 N 0.6151(5) 0.5258(4) 0.3168(4)
C7A C -0.0561(6) 0.1820(4) 1.1384(5)
H2A H 0.0011 0.2145 1.0731
C8A C -0.1615(5) -0.0951(4) 1.5935(4)
C9A C -0.2382(5) -0.0852(4) 1.1479(4)
C10A C -0.2086(5) -0.0681(4) 0.9636(5)
H3A H -0.1605 -0.0483 0.8888
C11A C -0.0854(5) -0.0430(4) 1.6245(4)
H4A H -0.0058 -0.0642 1.6026
C12A C -0.3079(7) -0.6296(4) 1.5704(6)
H5A H -0.3758 -0.6651 1.6205
C13A C -0.3917(6) -0.1347(5) 1.0978(5)
H6A H -0.4671 -0.1620 1.1161
C14A C -0.2223(5) 0.0897(4) 1.3268(5)
H7A H -0.2802 0.0569 1.3914
C15A C -0.1932(6) 0.1930(5) 1.3221(6)
H8A H -0.2301 0.2308 1.3847
C16A C -0.3196(6) -0.1055(5) 0.9887(5)
H9A H -0.3461 -0.1110 0.9318
C17A C -0.2454(5) 0.0711(4) 1.7204(5)
C18A C -0.0999(8) -0.6158(5) 1.4939(7)
H10A H -0.0251 -0.6394 1.4904
C19A C -0.3516(5) -0.1233(4) 1.1792(5)
H11A H -0.3996 -0.1408 1.2545
C20A C -0.2758(5) -0.4367(4) 1.2783(4)
C21A C -0.1282(5) 0.0400(4) 1.6877(5)
H12A H -0.0772 0.0759 1.7087
C22A C -0.1112(6) 0.2394(5) 1.2271(6)
H13A H -0.0926 0.3098 1.2224
C23A C -0.4242(7) -0.5007(6) 1.2405(6)
H14A H -0.5002 -0.5289 1.2657
C24A C -0.3195(6) 0.0199(5) 1.6883(6)
H15A H -0.3987 0.0419 1.7090
C25A C -0.1101(6) -0.5299(5) 1.4256(6)
H16A H -0.0431 -0.4938 1.3746
C26A C -0.2461(9) -0.4486(7) 1.0917(6)
H17A H -0.1994 -0.4390 1.0150
C27A C -0.2026(7) -0.4231(5) 1.1673(5)
H18A H -0.1256 -0.3975 1.1439
C28A C 0.4831(5) 0.2559(4) 0.4903(5)
C29A C -0.1995(8) -0.6652(5) 1.5658(7)
H19A H -0.1941 -0.7239 1.6124
C30A C -0.2775(6) -0.0646(5) 1.6253(5)
H20A H -0.3287 -0.1006 1.6046
C31A C -0.3584(9) -0.4881(7) 1.1291(7)
H21A H -0.3889 -0.5061 1.0785
Cl1 Cl 0.2968(3) 0.48621(19) 0.1995(3)
Cl2 Cl 0.1633(3) 0.3078(2) 0.2101(3)
C32 C 0.2615(9) 0.3608(7) 0.2563(7)
H22 H 0.2254 0.3596 0.3376
H23 H 0.3339 0.3180 0.2359
Cl3 Cl 0.5370(3) 0.2994(2) 0.0160(2)
Cl4 Cl 0.5782(3) 0.1828(3) 0.1975(3)
C33 C 0.6267(11) 0.2110(12) 0.0635(9)
H24 H 0.6352 0.1460 0.0284
H25 H 0.7057 0.2407 0.0377
loop_
_geom_bond_atom_site_label_1
_geom_bond_atom_site_label_2
_geom_bond_site_symmetry_1
_geom_bond_site_symmetry_2
Fe1 N2 1_555 1_555
Fe2 N9 1_555 1_555
S1 C2 1_555 1_555
S2 C28 1_555 1_555
O1 C4 1_555 1_555
O2 H1 1_555 1_555
N1 C1 1_555 1_555
N2 C2 1_555 1_555
N3 Fe1 1_555 1_555
N4 C5 1_555 1_555
N5 C4 1_555 1_555
N6 C1 1_555 1_555
N7 Fe1 1_555 1_555
N8 C1 1_555 1_555
N9 C28 1_555 1_555
N10 Fe2 1_555 1_555
C3 N1 1_555 1_555
C4 N8 1_555 1_555
C5 N5 1_555 1_555
C6 N4 1_555 1_555
N11 Fe2 1_555 1_555
C7 N3 1_555 1_555
H2 C7 1_555 1_555
C8 O1 1_555 1_555
C9 N1 1_555 1_555
C10 N7 1_555 1_555
H3 C10 1_555 1_555
C11 C8 1_555 1_555
H4 C11 1_555 1_555
C12 N10 1_555 1_555
H5 C12 1_555 1_555
C13 H6 1_555 1_555
C14 C3 1_555 1_555
H7 C14 1_555 1_555
C15 C14 1_555 1_555
H8 C15 1_555 1_555
C16 C10 1_555 1_555
H9 C16 1_555 1_555
C17 O2 1_555 1_555
C18 H10 1_555 1_555
C19 C9 1_555 1_555
H11 C19 1_555 1_555
C20 N4 1_555 1_555
C21 C11 1_555 1_555
H12 C21 1_555 1_555
C22 C7 1_555 1_555
H13 C22 1_555 1_555
C23 N11 1_555 1_555
H14 C23 1_555 1_555
C24 C17 1_555 1_555
H15 C24 1_555 1_555
C25 C6 1_555 1_555
H16 C25 1_555 1_555
C26 H17 1_555 1_555
C27 C20 1_555 1_555
H18 C27 1_555 1_555
C29 C12 1_555 1_555
H19 C29 1_555 1_555
C30 C8 1_555 1_555
H20 C30 1_555 1_555
C31 C23 1_555 1_555
H21 C31 1_555 1_555
Cl1 C32 1_555 1_555
Cl2 C32 1_555 1_555
C32 H22 1_555 1_555
H23 C32 1_555 1_555
Cl3 C33 1_555 1_555
Cl4 C33 1_555 1_555
C33 H24 1_555 1_555
H25 C33 1_555 1_555
Fe2_2 N10A 1_555 1_555
S1A C2A 1_555 1_555
S2A C28A 1_555 1_555
O1A C4A 1_555 1_555
O2A H1A 1_555 1_555
N1A C1A 1_555 1_555
N2A Fe1 1_555 1_555
N3A Fe1 1_555 1_555
N4A C5A 1_555 1_555
N5A C4A 1_555 1_555
N6A C1A 1_555 1_555
N7A Fe1 1_555 1_555
N8A C1A 1_555 1_555
C2A N2A 1_555 1_555
N9A Fe2 1_555 1_555
N10A C6A 1_555 1_555
N10A_2 Fe2 1_555 1_555
C3A N1A 1_555 1_555
C4A N8A 1_555 1_555
C5A N5A 1_555 1_555
C6A N4A 1_555 1_555
N11A Fe2_2 1_555 1_555
N11A_2 Fe2 1_555 1_555
C7A N3A 1_555 1_555
H2A C7A 1_555 1_555
C8A O1A 1_555 1_555
C9A N1A 1_555 1_555
C10A N7A 1_555 1_555
H3A C10A 1_555 1_555
C11A C8A 1_555 1_555
H4A C11A 1_555 1_555
C12A N10A 1_555 1_555
H5A C12A 1_555 1_555
C13A H6A 1_555 1_555
C14A C3A 1_555 1_555
H7A C14A 1_555 1_555
C15A C14A 1_555 1_555
H8A C15A 1_555 1_555
C16A C10A 1_555 1_555
H9A C16A 1_555 1_555
C17A O2A 1_555 1_555
C18A H10A 1_555 1_555
C19A C9A 1_555 1_555
H11A C19A 1_555 1_555
C20A N4A 1_555 1_555
C21A C11A 1_555 1_555
H12A C21A 1_555 1_555
C22A C7A 1_555 1_555
H13A C22A 1_555 1_555
C23A N11A 1_555 1_555
H14A C23A 1_555 1_555
C24A C17A 1_555 1_555
H15A C24A 1_555 1_555
C25A C6A 1_555 1_555
H16A C25A 1_555 1_555
C26A H17A 1_555 1_555
C27A C20A 1_555 1_555
H18A C27A 1_555 1_555
C28A N9A 1_555 1_555
C29A C12A 1_555 1_555
H19A C29A 1_555 1_555
C30A C8A 1_555 1_555
H20A C30A 1_555 1_555
C31A C23A 1_555 1_555
H21A C31A 1_555 1_555
N3 C3 1_555 1_555
N6 C5 1_555 1_555
N7 C9 1_555 1_555
N10 C6 1_555 1_555
N11 C20 1_555 1_555
C13 C16 1_555 1_555
C13 C19 1_555 1_555
C15 C22 1_555 1_555
C17 C21 1_555 1_555
C18 C25 1_555 1_555
C18 C29 1_555 1_555
C24 C30 1_555 1_555
C26 C27 1_555 1_555
C26 C31 1_555 1_555
N3A C3A 1_555 1_555
N6A C5A 1_555 1_555
N7A C9A 1_555 1_555
N11A C20A 1_555 1_555
C13A C16A 1_555 1_555
C13A C19A 1_555 1_555
C15A C22A 1_555 1_555
C17A C21A 1_555 1_555
C18A C25A 1_555 1_555
C18A C29A 1_555 1_555
C24A C30A 1_555 1_555
C26A C27A 1_555 1_555
C26A C31A 1_555 1_555

#END
