
#######################################################################
#
#                 Cambridge Crystallographic Data Centre
#                                CCDC 
#
#######################################################################
#
# If this CIF has been generated from an entry in the Cambridge 
# Structural Database, then it will include bibliographic, chemical, 
# crystal, experimental, refinement or atomic coordinate data resulting 
# from the CCDC's data processing and validation procedures.
#
#######################################################################

data_ESUDUS01
_symmetry_cell_setting           monoclinic
_symmetry_space_group_name_H-M   'C 2/c'
_symmetry_Int_Tables_number      15
_space_group_name_Hall           '-C 2yn'
loop_
_symmetry_equiv_pos_site_id
_symmetry_equiv_pos_as_xyz
1 x,y,z
2 -x,y,1/2-z
3 1/2+x,1/2+y,z
4 1/2-x,1/2+y,1/2-z
5 -x,-y,-z
6 x,-y,1/2+z
7 1/2-x,1/2-y,-z
8 1/2+x,1/2-y,1/2+z
_cell_length_a                   12.994(3)
_cell_length_b                   21.772(4)
_cell_length_c                   27.952(2)
_cell_angle_alpha                90
_cell_angle_beta                 96.06(2)
_cell_angle_gamma                90
_cell_volume                     7863.58
loop_
_atom_site_label
_atom_site_type_symbol
_atom_site_fract_x
_atom_site_fract_y
_atom_site_fract_z
Se1 Se 0.38478(8) 0.03661(4) 0.49432(3)
Fe1 Fe 0.5000 0.04873(8) 0.2500
Fe2 Fe 0.2500 0.2500 0.5000
Se2 Se 0.13419(8) 0.10395(10) 0.26145(5)
O1 O 0.1270(4) -0.0262(2) 0.3875(2)
N1 N 0.4431(4) 0.0466(3) 0.3568(2)
N2 N 0.3206(4) 0.1143(3) 0.3768(2)
N3 N 0.5265(5) -0.0200(3) 0.3081(2)
N4 N 0.1577(4) 0.0772(3) 0.3969(2)
O2 O -0.2873(4) 0.0129(4) 0.4064(3)
H1 H -0.3055 -0.0052 0.4303
N5 N 0.1041(5) 0.2224(3) 0.4593(3)
N6 N 0.2945(5) 0.2664(3) 0.4288(3)
C1 C 0.5082(5) 0.0987(4) 0.3538(3)
N7 N 0.2822(5) 0.0074(3) 0.3710(2)
N8 N 0.1976(4) 0.1803(3) 0.4002(2)
C2 C 0.1905(5) 0.0225(4) 0.3849(3)
C3 C 0.3437(5) 0.0568(4) 0.3691(2)
N9 N 0.5305(5) 0.1148(3) 0.3100(3)
N10 N 0.3393(6) 0.0526(4) 0.2559(3)
C4 C 0.2253(5) 0.1216(3) 0.3906(2)
C5 C -0.0433(7) 0.0086(5) 0.3554(3)
H2 H -0.0174 0.0180 0.3262
C6 C 0.0996(6) 0.1933(4) 0.4175(3)
C7 C -0.0134(6) -0.0280(4) 0.4367(3)
H3 H 0.0318 -0.0435 0.4623
C8 C 0.2633(6) 0.2304(4) 0.3911(3)
C9 C 0.0099(7) 0.1758(5) 0.3900(5)
H4 H 0.0120 0.1555 0.3605
C10 C 0.5765(7) -0.0726(5) 0.3023(3)
H5 H 0.6091 -0.0776 0.2741
C11 C 0.0222(6) -0.0134(4) 0.3940(3)
C12 C 0.4849(5) -0.0131(4) 0.3497(3)
C13 C 0.3352(6) 0.1114(4) 0.4980(3)
N11 N 0.3034(6) 0.1617(4) 0.4997(3)
C14 C 0.5380(7) -0.1120(5) 0.3770(3)
H6 H 0.5417 -0.1435 0.4001
C15 C 0.2598(7) 0.0730(6) 0.2580(3)
C16 C 0.6263(8) 0.1995(5) 0.3459(5)
H7 H 0.6663 0.2348 0.3419
C17 C 0.3525(7) 0.3165(4) 0.4193(4)
H8 H 0.3731 0.3438 0.4446
C18 C 0.2904(7) 0.2410(4) 0.3451(3)
H9 H 0.2675 0.2146 0.3196
C19 C 0.4877(6) -0.0578(4) 0.3844(3)
H10 H 0.4559 -0.0515 0.4127
C20 C 0.3522(8) 0.2916(5) 0.3377(4)
H11 H 0.3728 0.2995 0.3071
C21 C -0.1180(6) -0.0197(4) 0.4417(3)
H12 H -0.1439 -0.0297 0.4709
C22 C -0.1833(6) 0.0032(4) 0.4039(3)
C23 C 0.0118(8) 0.2360(5) 0.4763(5)
H13 H 0.0112 0.2571 0.5056
C24 C 0.5908(8) 0.1651(5) 0.3071(4)
H14 H 0.6089 0.1768 0.2767
C25 C -0.1461(7) 0.0164(5) 0.3604(3)
H15 H -0.1914 0.0308 0.3343
C26 C 0.5439(6) 0.1313(4) 0.3948(3)
H16 H 0.5273 0.1184 0.4252
C27 C 0.6034(7) 0.1824(5) 0.3909(4)
H17 H 0.6280 0.2053 0.4182
C28 C 0.5831(7) -0.1191(5) 0.3345(4)
H18 H 0.6176 -0.1557 0.3283
C29 C 0.3821(6) 0.3289(3) 0.3746(3)
H19 H 0.4232 0.3635 0.3700
C32 C -0.0813(8) 0.2188(7) 0.4506(7)
H24 H -0.1440 0.2276 0.4631
C33 C -0.0825(8) 0.1890(7) 0.4072(7)
H25 H -0.1455 0.1779 0.3897
Se1F Se 0.11522(8) 0.46339(4) 0.50568(3)
Fe2A Fe 0.7500 0.2500 0.0000
Se2A Se 0.86581(8) 0.10395(10) 0.23855(5)
O1A O 0.8730(4) -0.0262(2) 0.1125(2)
N1A N 0.5569(4) 0.0466(3) 0.1432(2)
N2A N 0.6794(4) 0.1143(3) 0.1232(2)
N3A N 0.4735(5) -0.0200(3) 0.1919(2)
N4A N 0.8423(4) 0.0772(3) 0.1031(2)
O2A O 1.2873(4) 0.0129(4) 0.0936(3)
H1A H 1.3055 -0.0052 0.0697
N5A N 0.8959(5) 0.2224(3) 0.0407(3)
N5F N 0.3959(5) 0.2776(3) 0.5407(3)
N6A N 0.7055(5) 0.2664(3) 0.0712(3)
N6F N 0.2055(5) 0.2336(3) 0.5712(3)
C1A C 0.4918(5) 0.0987(4) 0.1462(3)
N7A N 0.7178(5) 0.0074(3) 0.1290(2)
N8A N 0.8024(4) 0.1803(3) 0.0998(2)
C2A C 0.8095(5) 0.0225(4) 0.1151(3)
C3A C 0.6563(5) 0.0568(4) 0.1309(2)
N9A N 0.4695(5) 0.1148(3) 0.1900(3)
N10A N 0.6607(6) 0.0526(4) 0.2441(3)
C4A C 0.7747(5) 0.1216(3) 0.1094(2)
C5A C 1.0433(7) 0.0086(5) 0.1446(3)
H2A H 1.0174 0.0180 0.1738
C6A C 0.9004(6) 0.1933(4) 0.0825(3)
C7A C 1.0134(6) -0.0280(4) 0.0633(3)
H3A H 0.9682 -0.0435 0.0377
C8A C 0.7367(6) 0.2304(4) 0.1089(3)
C9A C 0.9901(7) 0.1758(5) 0.1100(5)
H4A H 0.9880 0.1555 0.1395
C10A C 0.4235(7) -0.0726(5) 0.1977(3)
H5A H 0.3909 -0.0776 0.2259
C11A C 0.9778(6) -0.0134(4) 0.1060(3)
C12A C 0.5151(5) -0.0131(4) 0.1503(3)
C13F C 0.1648(6) 0.3886(4) 0.5020(3)
N11F N 0.1966(6) 0.3383(4) 0.5003(3)
C14A C 0.4620(7) -0.1120(5) 0.1230(3)
H6A H 0.4583 -0.1435 0.0999
C15A C 0.7402(7) 0.0730(6) 0.2420(3)
C16A C 0.3737(8) 0.1995(5) 0.1541(5)
H7A H 0.3337 0.2348 0.1581
C17A C 0.6475(7) 0.3165(4) 0.0807(4)
H8A H 0.6269 0.3438 0.0554
C18A C 0.7096(7) 0.2410(4) 0.1549(3)
H9A H 0.7325 0.2146 0.1804
C19A C 0.5123(6) -0.0578(4) 0.1156(3)
H10A H 0.5441 -0.0515 0.0873
C20A C 0.6478(8) 0.2916(5) 0.1623(4)
H11A H 0.6272 0.2995 0.1929
C21A C 1.1180(6) -0.0197(4) 0.0583(3)
H12A H 1.1439 -0.0297 0.0291
C22A C 1.1833(6) 0.0032(4) 0.0961(3)
C23A C 0.9882(8) 0.2360(5) 0.0237(5)
H13A H 0.9888 0.2571 -0.0056
C24A C 0.4092(8) 0.1651(5) 0.1929(4)
H14A H 0.3911 0.1768 0.2233
C25A C 1.1461(7) 0.0164(5) 0.1396(3)
H15A H 1.1914 0.0308 0.1657
C26A C 0.4561(6) 0.1313(4) 0.1052(3)
H16A H 0.4727 0.1184 0.0748
C27A C 0.3966(7) 0.1824(5) 0.1091(4)
H17A H 0.3720 0.2053 0.0818
C28A C 0.4169(7) -0.1191(5) 0.1655(4)
H18A H 0.3824 -0.1557 0.1717
C29A C 0.6179(6) 0.3289(3) 0.1254(3)
H19A H 0.5768 0.3635 0.1300
C32A C 1.0813(8) 0.2188(7) 0.0494(7)
H24A H 1.1440 0.2276 0.0369
C33A C 1.0825(8) 0.1890(7) 0.0928(7)
H25A H 1.1455 0.1779 0.1103
Cl1 Cl 0.8379(6) 0.3670(3) 0.4870(3)
Cl2 Cl 0.6596(6) 0.3309(3) 0.4283(3)
C30 C 0.7730(14) 0.3682(13) 0.4319(6)
H20 H 0.7602 0.4110 0.4222
H21 H 0.8163 0.3496 0.4091
Cl3 Cl 0.7977(8) 0.3179(5) 0.2850(4)
C31 C 0.7690(16) 0.3911(7) 0.3022(8)
H22 H 0.7599 0.3917 0.3365
H23 H 0.8262 0.4188 0.2969
C34 C 0.6722(11) 0.4125(8) 0.2736(7)
Cl4 Cl 0.5676(9) 0.3660(6) 0.2779(5)
H26 H 0.6557 0.4538 0.2845
H27 H 0.6847 0.4155 0.2397
loop_
_geom_bond_atom_site_label_1
_geom_bond_atom_site_label_2
_geom_bond_site_symmetry_1
_geom_bond_site_symmetry_2
Se1 C13 1_555 1_555
Fe1 N3 1_555 1_555
Fe2 N5 1_555 1_555
Se2 C15 1_555 1_555
O1 C2 1_555 1_555
N1 C1 1_555 1_555
N2 C3 1_555 1_555
N3 C10 1_555 1_555
N4 C2 1_555 1_555
O2 H1 1_555 1_555
N5 C6 1_555 1_555
N6 Fe2 1_555 1_555
C1 N9 1_555 1_555
N7 C2 1_555 1_555
N8 C4 1_555 1_555
C3 N1 1_555 1_555
N9 Fe1 1_555 1_555
N10 Fe1 1_555 1_555
C4 N2 1_555 1_555
C5 H2 1_555 1_555
C6 N8 1_555 1_555
C7 H3 1_555 1_555
C8 N6 1_555 1_555
C9 C6 1_555 1_555
H4 C9 1_555 1_555
C10 H5 1_555 1_555
C11 O1 1_555 1_555
C12 N1 1_555 1_555
C13 N11 1_555 1_555
N11 Fe2 1_555 1_555
C14 H6 1_555 1_555
C15 N10 1_555 1_555
C16 H7 1_555 1_555
C17 N6 1_555 1_555
H8 C17 1_555 1_555
C18 C8 1_555 1_555
H9 C18 1_555 1_555
C19 C12 1_555 1_555
H10 C19 1_555 1_555
C20 C18 1_555 1_555
H11 C20 1_555 1_555
C21 C7 1_555 1_555
H12 C21 1_555 1_555
C22 O2 1_555 1_555
C23 N5 1_555 1_555
H13 C23 1_555 1_555
C24 N9 1_555 1_555
H14 C24 1_555 1_555
C25 C5 1_555 1_555
H15 C25 1_555 1_555
C26 C1 1_555 1_555
H16 C26 1_555 1_555
C27 C16 1_555 1_555
H17 C27 1_555 1_555
C28 C10 1_555 1_555
H18 C28 1_555 1_555
C29 C17 1_555 1_555
H19 C29 1_555 1_555
Cl1 C30 1_555 1_555
Cl2 C30 1_555 1_555
C30 H20 1_555 1_555
H21 C30 1_555 1_555
Cl3 C31 1_555 1_555
C31 H22 1_555 1_555
H23 C31 1_555 1_555
C32 C23 1_555 1_555
H24 C32 1_555 1_555
C33 C9 1_555 1_555
H25 C33 1_555 1_555
C34 C31 1_555 1_555
Cl4 C34 1_555 1_555
H26 C34 1_555 1_555
H27 C34 1_555 1_555
Se1F C13F 1_555 1_555
Fe2A N5A 1_555 1_555
Se2A C15A 1_555 1_555
O1A C2A 1_555 1_555
N1A C1A 1_555 1_555
N2A C3A 1_555 1_555
N3A Fe1 1_555 1_555
N4A C2A 1_555 1_555
O2A H1A 1_555 1_555
N5A C6A 1_555 1_555
N5F Fe2 1_555 1_555
N6A Fe2A 1_555 1_555
N6F Fe2 1_555 1_555
C1A N9A 1_555 1_555
N7A C2A 1_555 1_555
N8A C4A 1_555 1_555
C3A N1A 1_555 1_555
N9A Fe1 1_555 1_555
N10A Fe1 1_555 1_555
C4A N2A 1_555 1_555
C5A H2A 1_555 1_555
C6A N8A 1_555 1_555
C7A H3A 1_555 1_555
C8A N6A 1_555 1_555
C9A C6A 1_555 1_555
H4A C9A 1_555 1_555
C10A N3A 1_555 1_555
H5A C10A 1_555 1_555
C11A O1A 1_555 1_555
C12A N1A 1_555 1_555
C13F N11F 1_555 1_555
N11F Fe2 1_555 1_555
C14A H6A 1_555 1_555
C15A N10A 1_555 1_555
C16A H7A 1_555 1_555
C17A N6A 1_555 1_555
H8A C17A 1_555 1_555
C18A C8A 1_555 1_555
H9A C18A 1_555 1_555
C19A C12A 1_555 1_555
H10A C19A 1_555 1_555
C20A C18A 1_555 1_555
H11A C20A 1_555 1_555
C21A C7A 1_555 1_555
H12A C21A 1_555 1_555
C22A O2A 1_555 1_555
C23A N5A 1_555 1_555
H13A C23A 1_555 1_555
C24A N9A 1_555 1_555
H14A C24A 1_555 1_555
C25A C5A 1_555 1_555
H15A C25A 1_555 1_555
C26A C1A 1_555 1_555
H16A C26A 1_555 1_555
C27A C16A 1_555 1_555
H17A C27A 1_555 1_555
C28A C10A 1_555 1_555
H18A C28A 1_555 1_555
C29A C17A 1_555 1_555
H19A C29A 1_555 1_555
C32A C23A 1_555 1_555
H24A C32A 1_555 1_555
C33A C9A 1_555 1_555
H25A C33A 1_555 1_555
N3 C12 1_555 1_555
N4 C4 1_555 1_555
N7 C3 1_555 1_555
N8 C8 1_555 1_555
C5 C11 1_555 1_555
C7 C11 1_555 1_555
C14 C19 1_555 1_555
C14 C28 1_555 1_555
C16 C24 1_555 1_555
C20 C29 1_555 1_555
C21 C22 1_555 1_555
C22 C25 1_555 1_555
C26 C27 1_555 1_555
C32 C33 1_555 1_555
N3A C12A 1_555 1_555
N4A C4A 1_555 1_555
N7A C3A 1_555 1_555
N8A C8A 1_555 1_555
C5A C11A 1_555 1_555
C7A C11A 1_555 1_555
C14A C19A 1_555 1_555
C14A C28A 1_555 1_555
C16A C24A 1_555 1_555
C20A C29A 1_555 1_555
C21A C22A 1_555 1_555
C22A C25A 1_555 1_555
C26A C27A 1_555 1_555
C32A C33A 1_555 1_555

#END
