
#######################################################################
#
#                 Cambridge Crystallographic Data Centre
#                                CCDC 
#
#######################################################################
#
# If this CIF has been generated from an entry in the Cambridge 
# Structural Database, then it will include bibliographic, chemical, 
# crystal, experimental, refinement or atomic coordinate data resulting 
# from the CCDC's data processing and validation procedures.
#
#######################################################################

data_ESUDUS
_symmetry_cell_setting           monoclinic
_symmetry_space_group_name_H-M   'C 2/c'
_symmetry_Int_Tables_number      15
_space_group_name_Hall           '-C 2yn'
loop_
_symmetry_equiv_pos_site_id
_symmetry_equiv_pos_as_xyz
1 x,y,z
2 -x,y,1/2-z
3 1/2+x,1/2+y,z
4 1/2-x,1/2+y,1/2-z
5 -x,-y,-z
6 x,-y,1/2+z
7 1/2-x,1/2-y,-z
8 1/2+x,1/2-y,1/2+z
_cell_length_a                   12.842(2)
_cell_length_b                   21.663(10)
_cell_length_c                   27.453(6)
_cell_angle_alpha                90
_cell_angle_beta                 96.328(3)
_cell_angle_gamma                90
_cell_volume                     7590.79
loop_
_atom_site_label
_atom_site_type_symbol
_atom_site_fract_x
_atom_site_fract_y
_atom_site_fract_z
Se1 Se 0.89450(7) 0.45790(4) -0.00539(3)
Fe1 Fe 0.5000 0.04907(8) 0.2500
Fe2 Fe 0.7500 0.2500 0.0000
Se2 Se 0.86689(8) 0.09679(9) 0.23668(4)
O1 O 0.8748(4) -0.0289(3) 0.1104(2)
N1 N 0.5581(5) 0.0473(3) 0.1438(3)
N2 N 0.6832(5) 0.1140(3) 0.1223(2)
N3 N 0.4737(5) -0.0168(4) 0.1956(3)
N4 N 0.8451(5) 0.0757(3) 0.0998(2)
O2 O 1.2932(4) 0.0140(3) 0.0920(2)
H1 H 1.3106 0.0015 0.0651
N5 N 0.8899(5) 0.2243(3) 0.0331(3)
N6 N 0.7114(5) 0.2679(3) 0.0673(3)
C1 C 0.4943(6) 0.1005(4) 0.1489(3)
N7 N 0.7189(5) 0.0063(3) 0.1278(2)
N8 N 0.8067(5) 0.1798(3) 0.0967(3)
C2 C 0.8114(6) 0.0208(4) 0.1130(3)
C3 C 0.6583(6) 0.0555(4) 0.1303(3)
N9 N 0.4693(5) 0.1126(4) 0.1944(3)
N10 N 0.6535(6) 0.0520(4) 0.2436(3)
C4 C 0.7783(6) 0.1202(4) 0.1071(3)
C5 C 1.0457(7) 0.0070(4) 0.1431(3)
H2 H 1.0184 0.0165 0.1730
C6 C 0.9011(6) 0.1921(4) 0.0752(3)
C7 C 1.0177(6) -0.0307(4) 0.0606(3)
H3 H 0.9716 -0.0467 0.0342
C8 C 0.7413(6) 0.2304(4) 0.1059(3)
C9 C 0.9970(7) 0.1728(5) 0.0987(4)
H4 H 1.0008 0.1498 0.1283
C10 C 0.4190(7) -0.0692(5) 0.2025(4)
H5 H 0.3844 -0.0726 0.2313
C11 C 0.9813(6) -0.0163(4) 0.1044(3)
C12 C 0.5162(6) -0.0120(4) 0.1532(3)
C13 C 0.8384(6) 0.3821(4) -0.0022(3)
N11 N 0.8026(5) 0.3333(4) -0.0020(2)
C14 C 0.4602(7) -0.1116(5) 0.1274(4)
H6 H 0.4575 -0.1448 0.1047
C15 C 0.7369(7) 0.0689(5) 0.2411(3)
C16 C 0.3749(8) 0.2013(5) 0.1606(5)
H7 H 0.3338 0.2367 0.1660
C17 C 0.6555(7) 0.3192(4) 0.0769(3)
H8 H 0.6366 0.3475 0.0511
C18 C 0.7143(7) 0.2406(4) 0.1527(3)
H9 H 0.7365 0.2131 0.1787
C19 C 0.5114(7) -0.0579(4) 0.1188(4)
H10 H 0.5431 -0.0526 0.0894
C20 C 0.6543(7) 0.2916(4) 0.1604(4)
H11 H 0.6329 0.2993 0.1918
C21 C 1.1236(7) -0.0215(4) 0.0556(3)
H12 H 1.1504 -0.0316 0.0257
C22 C 1.1889(6) 0.0023(4) 0.0941(3)
C23 C 0.9807(7) 0.2401(4) 0.0143(4)
H13 H 0.9765 0.2652 -0.0143
C24 C 0.4100(7) 0.1622(5) 0.1993(4)
H14 H 0.3906 0.1714 0.2309
C25 C 1.1506(7) 0.0165(5) 0.1386(3)
H15 H 1.1961 0.0325 0.1652
C26 C 0.4611(7) 0.1346(5) 0.1078(4)
H16 H 0.4779 0.1229 0.0763
C27 C 0.4010(8) 0.1876(5) 0.1146(5)
H17 H 0.3787 0.2137 0.0876
C28 C 0.4119(7) -0.1163(5) 0.1707(4)
H18 H 0.3744 -0.1526 0.1773
C29 C 0.6255(7) 0.3315(4) 0.1221(4)
H19 H 0.5851 0.3673 0.1272
C30 C 1.0774(7) 0.2211(5) 0.0350(4)
H20 H 1.1381 0.2310 0.0197
C31 C 1.0869(5) 0.1881(3) 0.0777(3)
H21 H 1.1539 0.1758 0.0927
Se1F Se 0.60550(7) 0.04210(4) 0.00539(3)
Fe2A Fe 0.2500 0.2500 0.5000
Se2A Se 0.13311(8) 0.09679(9) 0.26332(4)
O1A O 0.1252(4) -0.0289(3) 0.3896(2)
N1A N 0.4419(5) 0.0473(3) 0.3562(3)
N2A N 0.3168(5) 0.1140(3) 0.3777(2)
N3A N 0.5263(5) -0.0168(4) 0.3044(3)
N4A N 0.1549(5) 0.0757(3) 0.4002(2)
O2A O -0.2932(4) 0.0140(3) 0.4080(2)
H1A H -0.3106 0.0015 0.4349
N5A N 0.1101(5) 0.2243(3) 0.4669(3)
N5F N 0.6101(5) 0.2757(3) -0.0331(3)
N6A N 0.2886(5) 0.2679(3) 0.4327(3)
N6F N 0.7886(5) 0.2321(3) -0.0673(3)
C1A C 0.5057(6) 0.1005(4) 0.3511(3)
N7A N 0.2811(5) 0.0063(3) 0.3722(2)
N8A N 0.1933(5) 0.1798(3) 0.4033(3)
C2A C 0.1886(6) 0.0208(4) 0.3870(3)
C3A C 0.3417(6) 0.0555(4) 0.3697(3)
N9A N 0.5307(5) 0.1126(4) 0.3056(3)
N10A N 0.3465(6) 0.0520(4) 0.2564(3)
C4A C 0.2217(6) 0.1202(4) 0.3929(3)
C5A C -0.0457(7) 0.0070(4) 0.3569(3)
H2A H -0.0184 0.0165 0.3270
C6A C 0.0989(6) 0.1921(4) 0.4248(3)
C7A C -0.0177(6) -0.0307(4) 0.4394(3)
H3A H 0.0284 -0.0467 0.4658
C8A C 0.2587(6) 0.2304(4) 0.3941(3)
C9A C 0.0030(7) 0.1728(5) 0.4013(4)
H4A H -0.0008 0.1498 0.3717
C10A C 0.5810(7) -0.0692(5) 0.2975(4)
H5A H 0.6156 -0.0726 0.2687
C11A C 0.0187(6) -0.0163(4) 0.3956(3)
C12A C 0.4838(6) -0.0120(4) 0.3468(3)
C13F C 0.6616(6) 0.1179(4) 0.0022(3)
N11F N 0.6974(5) 0.1667(4) 0.0020(2)
C14A C 0.5398(7) -0.1116(5) 0.3726(4)
H6A H 0.5425 -0.1448 0.3953
C15A C 0.2631(7) 0.0689(5) 0.2589(3)
C16A C 0.6251(8) 0.2013(5) 0.3394(5)
H7A H 0.6662 0.2367 0.3340
C17A C 0.3445(7) 0.3192(4) 0.4231(3)
H8A H 0.3634 0.3475 0.4489
C18A C 0.2857(7) 0.2406(4) 0.3473(3)
H9A H 0.2635 0.2131 0.3213
C19A C 0.4886(7) -0.0579(4) 0.3812(4)
H10A H 0.4569 -0.0526 0.4106
C20A C 0.3457(7) 0.2916(4) 0.3396(4)
H11A H 0.3671 0.2993 0.3082
C21A C -0.1236(7) -0.0215(4) 0.4444(3)
H12A H -0.1504 -0.0316 0.4743
C22A C -0.1889(6) 0.0023(4) 0.4059(3)
C23A C 0.0193(7) 0.2401(4) 0.4857(4)
H13A H 0.0235 0.2652 0.5143
C24A C 0.5900(7) 0.1622(5) 0.3007(4)
H14A H 0.6094 0.1714 0.2691
C25A C -0.1506(7) 0.0165(5) 0.3614(3)
H15A H -0.1961 0.0325 0.3348
C26A C 0.5389(7) 0.1346(5) 0.3922(4)
H16A H 0.5221 0.1229 0.4237
C27A C 0.5990(8) 0.1876(5) 0.3854(5)
H17A H 0.6213 0.2137 0.4124
C28A C 0.5881(7) -0.1163(5) 0.3293(4)
H18A H 0.6256 -0.1526 0.3227
C29A C 0.3745(7) 0.3315(4) 0.3779(4)
H19A H 0.4149 0.3673 0.3728
C30A C -0.0774(7) 0.2211(5) 0.4650(4)
H20A H -0.1381 0.2310 0.4803
C31A C -0.0869(5) 0.1881(3) 0.4223(3)
H21A H -0.1539 0.1758 0.4073
Cl1 Cl 0.7982(5) 0.3748(3) 0.4975(3)
Cl2 Cl 0.6623(7) 0.3307(3) 0.4190(3)
C32 C 0.7787(13) 0.3652(12) 0.4360(5)
H22 H 0.8359 0.3397 0.4253
H23 H 0.7804 0.4059 0.4198
Cl3 Cl 0.7974(7) 0.3225(4) 0.2847(3)
Cl4 Cl 0.5624(6) 0.3644(4) 0.2785(3)
C33 C 0.7769(12) 0.3981(6) 0.3022(6)
H24 H 0.7760 0.4018 0.3381
H25 H 0.8302 0.4264 0.2913
C34 C 0.6714(9) 0.4092(7) 0.2753(6)
H26 H 0.6821 0.4110 0.2401
H27 H 0.6513 0.4514 0.2844
loop_
_geom_bond_atom_site_label_1
_geom_bond_atom_site_label_2
_geom_bond_site_symmetry_1
_geom_bond_site_symmetry_2
Se1 C13 1_555 1_555
Fe1 N3 1_555 1_555
Fe2 N5 1_555 1_555
Se2 C15 1_555 1_555
O1 C2 1_555 1_555
N1 C1 1_555 1_555
N2 C3 1_555 1_555
N3 C10 1_555 1_555
N4 C2 1_555 1_555
O2 H1 1_555 1_555
N5 C6 1_555 1_555
N6 Fe2 1_555 1_555
C1 N9 1_555 1_555
N7 C2 1_555 1_555
N8 C4 1_555 1_555
C3 N1 1_555 1_555
N9 Fe1 1_555 1_555
N10 Fe1 1_555 1_555
C4 N2 1_555 1_555
C5 H2 1_555 1_555
C6 N8 1_555 1_555
C7 H3 1_555 1_555
C8 N6 1_555 1_555
C9 C6 1_555 1_555
H4 C9 1_555 1_555
C10 H5 1_555 1_555
C11 O1 1_555 1_555
C12 N1 1_555 1_555
C13 N11 1_555 1_555
N11 Fe2 1_555 1_555
C14 H6 1_555 1_555
C15 N10 1_555 1_555
C16 H7 1_555 1_555
C17 N6 1_555 1_555
H8 C17 1_555 1_555
C18 C8 1_555 1_555
H9 C18 1_555 1_555
C19 C12 1_555 1_555
H10 C19 1_555 1_555
C20 C18 1_555 1_555
H11 C20 1_555 1_555
C21 C7 1_555 1_555
H12 C21 1_555 1_555
C22 O2 1_555 1_555
C23 N5 1_555 1_555
H13 C23 1_555 1_555
C24 N9 1_555 1_555
H14 C24 1_555 1_555
C25 C5 1_555 1_555
H15 C25 1_555 1_555
C26 C1 1_555 1_555
H16 C26 1_555 1_555
C27 C16 1_555 1_555
H17 C27 1_555 1_555
C28 C10 1_555 1_555
H18 C28 1_555 1_555
C29 C17 1_555 1_555
H19 C29 1_555 1_555
C30 C23 1_555 1_555
H20 C30 1_555 1_555
C31 C9 1_555 1_555
H21 C31 1_555 1_555
Cl1 C32 1_555 1_555
Cl2 C32 1_555 1_555
C32 H22 1_555 1_555
H23 C32 1_555 1_555
Cl3 C33 1_555 1_555
Cl4 C34 1_555 1_555
C33 H24 1_555 1_555
H25 C33 1_555 1_555
C34 C33 1_555 1_555
H26 C34 1_555 1_555
H27 C34 1_555 1_555
Se1F C13F 1_555 1_555
Fe2A N5A 1_555 1_555
Se2A C15A 1_555 1_555
O1A C2A 1_555 1_555
N1A C1A 1_555 1_555
N2A C3A 1_555 1_555
N3A Fe1 1_555 1_555
N4A C2A 1_555 1_555
O2A H1A 1_555 1_555
N5A C6A 1_555 1_555
N5F Fe2 1_555 1_555
N6A Fe2A 1_555 1_555
N6F Fe2 1_555 1_555
C1A N9A 1_555 1_555
N7A C2A 1_555 1_555
N8A C4A 1_555 1_555
C3A N1A 1_555 1_555
N9A Fe1 1_555 1_555
N10A Fe1 1_555 1_555
C4A N2A 1_555 1_555
C5A H2A 1_555 1_555
C6A N8A 1_555 1_555
C7A H3A 1_555 1_555
C8A N6A 1_555 1_555
C9A C6A 1_555 1_555
H4A C9A 1_555 1_555
C10A N3A 1_555 1_555
H5A C10A 1_555 1_555
C11A O1A 1_555 1_555
C12A N1A 1_555 1_555
C13F N11F 1_555 1_555
N11F Fe2 1_555 1_555
C14A H6A 1_555 1_555
C15A N10A 1_555 1_555
C16A H7A 1_555 1_555
C17A N6A 1_555 1_555
H8A C17A 1_555 1_555
C18A C8A 1_555 1_555
H9A C18A 1_555 1_555
C19A C12A 1_555 1_555
H10A C19A 1_555 1_555
C20A C18A 1_555 1_555
H11A C20A 1_555 1_555
C21A C7A 1_555 1_555
H12A C21A 1_555 1_555
C22A O2A 1_555 1_555
C23A N5A 1_555 1_555
H13A C23A 1_555 1_555
C24A N9A 1_555 1_555
H14A C24A 1_555 1_555
C25A C5A 1_555 1_555
H15A C25A 1_555 1_555
C26A C1A 1_555 1_555
H16A C26A 1_555 1_555
C27A C16A 1_555 1_555
H17A C27A 1_555 1_555
C28A C10A 1_555 1_555
H18A C28A 1_555 1_555
C29A C17A 1_555 1_555
H19A C29A 1_555 1_555
C30A C23A 1_555 1_555
H20A C30A 1_555 1_555
C31A C9A 1_555 1_555
H21A C31A 1_555 1_555
N3 C12 1_555 1_555
N4 C4 1_555 1_555
N7 C3 1_555 1_555
N8 C8 1_555 1_555
C5 C11 1_555 1_555
C7 C11 1_555 1_555
C14 C19 1_555 1_555
C14 C28 1_555 1_555
C16 C24 1_555 1_555
C20 C29 1_555 1_555
C21 C22 1_555 1_555
C22 C25 1_555 1_555
C26 C27 1_555 1_555
C30 C31 1_555 1_555
N3A C12A 1_555 1_555
N4A C4A 1_555 1_555
N7A C3A 1_555 1_555
N8A C8A 1_555 1_555
C5A C11A 1_555 1_555
C7A C11A 1_555 1_555
C14A C19A 1_555 1_555
C14A C28A 1_555 1_555
C16A C24A 1_555 1_555
C20A C29A 1_555 1_555
C21A C22A 1_555 1_555
C22A C25A 1_555 1_555
C26A C27A 1_555 1_555
C30A C31A 1_555 1_555

#END
