
#######################################################################
#
#                 Cambridge Crystallographic Data Centre
#                                CCDC 
#
#######################################################################
#
# If this CIF has been generated from an entry in the Cambridge 
# Structural Database, then it will include bibliographic, chemical, 
# crystal, experimental, refinement or atomic coordinate data resulting 
# from the CCDC's data processing and validation procedures.
#
#######################################################################

data_ESUFEE01
_symmetry_cell_setting           monoclinic
_symmetry_space_group_name_H-M   'C 2/c'
_symmetry_Int_Tables_number      15
_space_group_name_Hall           '-C 2yn'
loop_
_symmetry_equiv_pos_site_id
_symmetry_equiv_pos_as_xyz
1 x,y,z
2 -x,y,1/2-z
3 1/2+x,1/2+y,z
4 1/2-x,1/2+y,1/2-z
5 -x,-y,-z
6 x,-y,1/2+z
7 1/2-x,1/2-y,-z
8 1/2+x,1/2-y,1/2+z
_cell_length_a                   13.024(8)
_cell_length_b                   21.789(6)
_cell_length_c                   27.93(2)
_cell_angle_alpha                90
_cell_angle_beta                 96.12(3)
_cell_angle_gamma                90
_cell_volume                     7880.8
loop_
_atom_site_label
_atom_site_type_symbol
_atom_site_fract_x
_atom_site_fract_y
_atom_site_fract_z
Se1 Se 0.88506(7) 0.03654(4) 0.49431(3)
Fe1 Fe 0.5000 0.45095(8) 0.7500
Fe2 Fe 0.7500 0.2500 0.5000
Se2 Se 0.86609(8) 0.39526(10) 0.73889(4)
N1 N 0.4737(5) 0.5196(3) 0.6922(2)
N2 N 0.5569(4) 0.4535(3) 0.6431(2)
O1 O 0.8735(4) 0.5265(2) 0.6127(2)
N3 N 0.8423(4) 0.4231(3) 0.6031(2)
N4 N 0.7180(4) 0.4929(3) 0.6292(2)
N5 N 0.7054(5) 0.2330(3) 0.5715(2)
N6 N 0.6797(4) 0.3860(3) 0.6232(2)
N7 N 0.8958(5) 0.2774(3) 0.5408(3)
C1 C 0.4919(5) 0.4010(3) 0.6460(3)
C2 C 0.6563(5) 0.4437(3) 0.6310(2)
N8 N 0.4693(5) 0.3855(3) 0.6898(2)
N9 N 0.8028(4) 0.3194(3) 0.5999(2)
N10 N 0.6605(6) 0.4464(4) 0.7439(2)
C3 C 0.5128(6) 0.5583(4) 0.6161(3)
H1 H 0.5446 0.5524 0.5878
C4 C 0.8097(5) 0.4779(3) 0.6147(2)
N11 N 0.8035(6) 0.1622(3) 0.4994(2)
C5 C 1.0439(6) 0.4920(4) 0.6446(3)
H2 H 1.0184 0.4828 0.6740
C6 C 1.0134(6) 0.5281(3) 0.5634(3)
H3 H 0.9679 0.5432 0.5377
C7 C 0.5153(5) 0.5131(3) 0.6508(3)
C8 C 0.6486(7) 0.2085(4) 0.6630(3)
H4 H 0.6283 0.2008 0.6937
C9 C 0.4232(7) 0.5728(5) 0.6982(3)
H5 H 0.3910 0.5780 0.7265
C10 C 0.8352(6) 0.1117(4) 0.4984(3)
C11 C 0.7364(5) 0.2694(3) 0.6089(3)
C12 C 0.9908(7) 0.3245(5) 0.6102(4)
H6 H 0.9894 0.3445 0.6400
C13 C 0.9005(5) 0.3069(3) 0.5828(3)
C14 C 0.7098(6) 0.2589(4) 0.6552(3)
H7 H 0.7328 0.2855 0.6806
C15 C 0.9888(7) 0.2646(5) 0.5238(4)
H8 H 0.9891 0.2440 0.4943
C16 C 0.3730(7) 0.3005(5) 0.6537(4)
H9 H 0.3317 0.2658 0.6575
C17 C 0.4626(7) 0.6124(4) 0.6239(3)
H10 H 0.4599 0.6441 0.6009
C18 C 0.9784(5) 0.5138(3) 0.6065(3)
C19 C 0.6482(7) 0.1833(4) 0.5809(3)
H11 H 0.6277 0.1561 0.5556
C20 C 0.4091(7) 0.3345(5) 0.6924(4)
H12 H 0.3917 0.3223 0.7228
C21 C 0.7400(7) 0.4257(6) 0.7417(3)
C22 C 0.4562(6) 0.3692(4) 0.6045(3)
H13 H 0.4717 0.3827 0.5741
C23 C 0.6187(8) 0.1706(4) 0.6256(4)
H14 H 0.5780 0.1359 0.6303
C24 C 1.1185(6) 0.5199(4) 0.5581(3)
H15 H 1.1440 0.5301 0.5289
C25 C 1.1847(6) 0.4966(4) 0.5959(3)
C26 C 0.4166(7) 0.6194(5) 0.6654(3)
H16 H 0.3811 0.6558 0.6712
C27 C 0.3974(7) 0.3172(5) 0.6089(4)
H17 H 0.3744 0.2937 0.5817
C28 C 1.1461(6) 0.4840(5) 0.6395(3)
H18 H 1.1909 0.4697 0.6658
C29 C 1.0842(8) 0.3114(6) 0.5918(6)
H19 H 1.1476 0.3231 0.6086
C30 C 1.0813(8) 0.2812(6) 0.5489(6)
H20 H 1.1434 0.2716 0.5362
O2 O 1.2877(4) 0.4870(3) 0.5934(2)
H21 H 1.3085 0.5104 0.5731
C31 C 0.7747(5) 0.3786(3) 0.6095(2)
Se1F Se 0.61494(7) 0.46346(4) 0.50569(3)
Fe2A Fe 0.2500 0.2500 1.0000
Se2A Se 0.13391(8) 0.39526(10) 0.76111(4)
N1A N 0.5263(5) 0.5196(3) 0.8078(2)
N2A N 0.4431(4) 0.4535(3) 0.8569(2)
O1A O 0.1265(4) 0.5265(2) 0.8873(2)
N3A N 0.1577(4) 0.4231(3) 0.8969(2)
N4A N 0.2820(4) 0.4929(3) 0.8708(2)
N5A N 0.2946(5) 0.2330(3) 0.9285(2)
N5F N 0.7946(5) 0.2670(3) 0.4285(2)
N6A N 0.3203(4) 0.3860(3) 0.8768(2)
N7A N 0.1042(5) 0.2774(3) 0.9592(3)
N7F N 0.6042(5) 0.2226(3) 0.4592(3)
C1A C 0.5081(5) 0.4010(3) 0.8540(3)
C2A C 0.3437(5) 0.4437(3) 0.8690(2)
N8A N 0.5307(5) 0.3855(3) 0.8102(2)
N9A N 0.1972(4) 0.3194(3) 0.9001(2)
N10A N 0.3395(6) 0.4464(4) 0.7561(2)
C3A C 0.4872(6) 0.5583(4) 0.8839(3)
H1A H 0.4554 0.5524 0.9122
C4A C 0.1903(5) 0.4779(3) 0.8853(2)
N11F N 0.6965(6) 0.3378(3) 0.5006(2)
C5A C -0.0439(6) 0.4920(4) 0.8554(3)
H2A H -0.0184 0.4828 0.8260
C6A C -0.0134(6) 0.5281(3) 0.9366(3)
H3A H 0.0321 0.5432 0.9623
C7A C 0.4847(5) 0.5131(3) 0.8492(3)
C8A C 0.3514(7) 0.2085(4) 0.8370(3)
H4A H 0.3717 0.2008 0.8063
C9A C 0.5768(7) 0.5728(5) 0.8018(3)
H5A H 0.6090 0.5780 0.7735
C10F C 0.6648(6) 0.3883(4) 0.5016(3)
C11A C 0.2636(5) 0.2694(3) 0.8911(3)
C12A C 0.0092(7) 0.3245(5) 0.8898(4)
H6A H 0.0106 0.3445 0.8600
C13A C 0.0995(5) 0.3069(3) 0.9172(3)
C14A C 0.2902(6) 0.2589(4) 0.8448(3)
H7A H 0.2672 0.2855 0.8194
C15A C 0.0112(7) 0.2646(5) 0.9762(4)
H8A H 0.0109 0.2440 1.0057
C16A C 0.6270(7) 0.3005(5) 0.8463(4)
H9A H 0.6683 0.2658 0.8425
C17A C 0.5374(7) 0.6124(4) 0.8761(3)
H10A H 0.5401 0.6441 0.8991
C18A C 0.0216(5) 0.5138(3) 0.8935(3)
C19A C 0.3518(7) 0.1833(4) 0.9191(3)
H11A H 0.3723 0.1561 0.9444
C20A C 0.5909(7) 0.3345(5) 0.8076(4)
H12A H 0.6083 0.3223 0.7772
C21A C 0.2600(7) 0.4257(6) 0.7583(3)
C22A C 0.5438(6) 0.3692(4) 0.8955(3)
H13A H 0.5283 0.3827 0.9259
C23A C 0.3813(8) 0.1706(4) 0.8744(4)
H14A H 0.4220 0.1359 0.8697
C24A C -0.1185(6) 0.5199(4) 0.9419(3)
H15A H -0.1440 0.5301 0.9711
C25A C -0.1847(6) 0.4966(4) 0.9041(3)
C26A C 0.5834(7) 0.6194(5) 0.8346(3)
H16A H 0.6189 0.6558 0.8288
C27A C 0.6026(7) 0.3172(5) 0.8911(4)
H17A H 0.6256 0.2937 0.9183
C28A C -0.1461(6) 0.4840(5) 0.8605(3)
H18A H -0.1909 0.4697 0.8342
C29A C -0.0842(8) 0.3114(6) 0.9082(6)
H19A H -0.1476 0.3231 0.8914
C30A C -0.0813(8) 0.2812(6) 0.9511(6)
H20A H -0.1434 0.2716 0.9638
O2A O -0.2877(4) 0.4870(3) 0.9066(2)
H21A H -0.3085 0.5104 0.9269
C31A C 0.2253(5) 0.3786(3) 0.8905(2)
Cl1 Cl 0.1590(6) 0.3308(3) 0.4275(3)
Cl2 Cl 0.3351(8) 0.3670(4) 0.4863(3)
C32 C 0.2741(12) 0.3654(12) 0.4303(5)
H22 H 0.2646 0.4075 0.4184
H23 H 0.3174 0.3438 0.4092
O3 O 0.2671(15) 0.5910(9) 0.7991(7)
C33 C 0.1722(15) 0.5817(12) 0.7704(8)
Cl3? Cl 0.2897(8) 0.6681(5) 0.7889(4)
Cl4? Cl 0.0786(10) 0.6246(6) 0.7797(5)
C34? C 0.2063(11) 0.6083(9) 0.7906(14)
loop_
_geom_bond_atom_site_label_1
_geom_bond_atom_site_label_2
_geom_bond_site_symmetry_1
_geom_bond_site_symmetry_2
Se1 C10 1_555 1_555
Fe1 N1 1_555 1_555
Fe2 N5 1_555 1_555
Se2 C21 1_555 1_555
N1 C7 1_555 1_555
N2 C1 1_555 1_555
O1 C4 1_555 1_555
N3 C4 1_555 1_555
N4 C2 1_555 1_555
N5 C11 1_555 1_555
N6 C2 1_555 1_555
N7 Fe2 1_555 1_555
C1 N8 1_555 1_555
C2 N2 1_555 1_555
N8 Fe1 1_555 1_555
N9 C11 1_555 1_555
N10 Fe1 1_555 1_555
C3 H1 1_555 1_555
C4 N4 1_555 1_555
N11 Fe2 1_555 1_555
C5 H2 1_555 1_555
C6 H3 1_555 1_555
C7 N2 1_555 1_555
C8 H4 1_555 1_555
C9 N1 1_555 1_555
H5 C9 1_555 1_555
C10 N11 1_555 1_555
C11 C14 1_555 1_555
C12 H6 1_555 1_555
C13 N7 1_555 1_555
C14 C8 1_555 1_555
H7 C14 1_555 1_555
C15 N7 1_555 1_555
H8 C15 1_555 1_555
C16 H9 1_555 1_555
C17 C3 1_555 1_555
H10 C17 1_555 1_555
C18 O1 1_555 1_555
C19 N5 1_555 1_555
H11 C19 1_555 1_555
C20 N8 1_555 1_555
H12 C20 1_555 1_555
C21 N10 1_555 1_555
C22 C1 1_555 1_555
H13 C22 1_555 1_555
C23 C8 1_555 1_555
H14 C23 1_555 1_555
C24 C6 1_555 1_555
H15 C24 1_555 1_555
C25 C24 1_555 1_555
C26 C9 1_555 1_555
H16 C26 1_555 1_555
C27 C16 1_555 1_555
H17 C27 1_555 1_555
C28 C5 1_555 1_555
H18 C28 1_555 1_555
C29 C12 1_555 1_555
H19 C29 1_555 1_555
C30 C15 1_555 1_555
H20 C30 1_555 1_555
O2 C25 1_555 1_555
H21 O2 1_555 1_555
C31 N3 1_555 1_555
Cl1 C32 1_555 1_555
Cl2 C32 1_555 1_555
C32 H22 1_555 1_555
H23 C32 1_555 1_555
O3 C33 1_555 1_555
Se1F C10F 1_555 1_555
Fe2A N5A 1_555 1_555
Se2A C21A 1_555 1_555
N1A Fe1 1_555 1_555
N2A C1A 1_555 1_555
O1A C4A 1_555 1_555
N3A C4A 1_555 1_555
N4A C2A 1_555 1_555
N5A C11A 1_555 1_555
N5F Fe2 1_555 1_555
N6A C2A 1_555 1_555
N7A Fe2A 1_555 1_555
N7F Fe2 1_555 1_555
C1A N8A 1_555 1_555
C2A N2A 1_555 1_555
N8A Fe1 1_555 1_555
N9A C11A 1_555 1_555
N10A Fe1 1_555 1_555
C3A H1A 1_555 1_555
C4A N4A 1_555 1_555
N11F Fe2 1_555 1_555
C5A H2A 1_555 1_555
C6A H3A 1_555 1_555
C7A N1A 1_555 1_555
C8A H4A 1_555 1_555
C9A N1A 1_555 1_555
H5A C9A 1_555 1_555
C10F N11F 1_555 1_555
C11A C14A 1_555 1_555
C12A H6A 1_555 1_555
C13A N7A 1_555 1_555
C14A C8A 1_555 1_555
H7A C14A 1_555 1_555
C15A N7A 1_555 1_555
H8A C15A 1_555 1_555
C16A H9A 1_555 1_555
C17A C3A 1_555 1_555
H10A C17A 1_555 1_555
C18A O1A 1_555 1_555
C19A N5A 1_555 1_555
H11A C19A 1_555 1_555
C20A N8A 1_555 1_555
H12A C20A 1_555 1_555
C21A N10A 1_555 1_555
C22A C1A 1_555 1_555
H13A C22A 1_555 1_555
C23A C8A 1_555 1_555
H14A C23A 1_555 1_555
C24A C6A 1_555 1_555
H15A C24A 1_555 1_555
C25A C24A 1_555 1_555
C26A C9A 1_555 1_555
H16A C26A 1_555 1_555
C27A C16A 1_555 1_555
H17A C27A 1_555 1_555
C28A C5A 1_555 1_555
H18A C28A 1_555 1_555
C29A C12A 1_555 1_555
H19A C29A 1_555 1_555
C30A C15A 1_555 1_555
H20A C30A 1_555 1_555
O2A C25A 1_555 1_555
H21A O2A 1_555 1_555
C31A N3A 1_555 1_555
N6 C31 1_555 1_555
N9 C13 1_555 1_555
N9 C31 1_555 1_555
C3 C7 1_555 1_555
C5 C18 1_555 1_555
C6 C18 1_555 1_555
C12 C13 1_555 1_555
C16 C20 1_555 1_555
C17 C26 1_555 1_555
C19 C23 1_555 1_555
C22 C27 1_555 1_555
C25 C28 1_555 1_555
C29 C30 1_555 1_555
N2A C7A 1_555 1_555
N6A C31A 1_555 1_555
N9A C13A 1_555 1_555
N9A C31A 1_555 1_555
C3A C7A 1_555 1_555
C5A C18A 1_555 1_555
C6A C18A 1_555 1_555
C12A C13A 1_555 1_555
C16A C20A 1_555 1_555
C17A C26A 1_555 1_555
C19A C23A 1_555 1_555
C22A C27A 1_555 1_555
C25A C28A 1_555 1_555
C29A C30A 1_555 1_555

#END
