
#######################################################################
#
#                 Cambridge Crystallographic Data Centre
#                                CCDC 
#
#######################################################################
#
# If this CIF has been generated from an entry in the Cambridge 
# Structural Database, then it will include bibliographic, chemical, 
# crystal, experimental, refinement or atomic coordinate data resulting 
# from the CCDC's data processing and validation procedures.
#
#######################################################################

data_ESUFEE
_symmetry_cell_setting           monoclinic
_symmetry_space_group_name_H-M   'C 2/c'
_symmetry_Int_Tables_number      15
_space_group_name_Hall           '-C 2yn'
loop_
_symmetry_equiv_pos_site_id
_symmetry_equiv_pos_as_xyz
1 x,y,z
2 -x,y,1/2-z
3 1/2+x,1/2+y,z
4 1/2-x,1/2+y,1/2-z
5 -x,-y,-z
6 x,-y,1/2+z
7 1/2-x,1/2-y,-z
8 1/2+x,1/2-y,1/2+z
_cell_length_a                   12.820(1)
_cell_length_b                   21.621(7)
_cell_length_c                   27.357(3)
_cell_angle_alpha                90
_cell_angle_beta                 96.36(3)
_cell_angle_gamma                90
_cell_volume                     7536.18
loop_
_atom_site_label
_atom_site_type_symbol
_atom_site_fract_x
_atom_site_fract_y
_atom_site_fract_z
Se1 Se 0.89590(14) 0.04233(8) 0.49471(6)
Fe1 Fe 0.5000 0.45042(15) 0.7500
Fe2 Fe 0.7500 0.2500 0.5000
Se2 Se 0.8675(2) 0.40657(13) 0.73631(10)
N1 N 0.4736(11) 0.5151(6) 0.6973(5)
N2 N 0.5585(11) 0.4526(6) 0.6444(5)
O1 O 0.8743(9) 0.5297(5) 0.6100(4)
N3 N 0.8454(10) 0.4250(6) 0.5995(5)
N4 N 0.7193(10) 0.4947(6) 0.6276(5)
N5 N 0.7111(11) 0.2330(6) 0.5674(5)
N6 N 0.6835(10) 0.3853(6) 0.6224(5)
N7 N 0.8903(11) 0.2758(6) 0.5326(5)
C1 C 0.4939(14) 0.3994(8) 0.6504(6)
C2 C 0.6561(12) 0.4442(7) 0.6308(6)
N8 N 0.4698(12) 0.3878(7) 0.6960(5)
N9 N 0.8084(11) 0.3203(6) 0.5966(5)
N10 N 0.6505(12) 0.4457(7) 0.7437(6)
C3 C 0.5101(14) 0.5584(8) 0.6195(6)
H1 H 0.5427 0.5540 0.5901
C4 C 0.8107(13) 0.4808(7) 0.6127(6)
N11 N 0.8038(11) 0.1662(6) 0.4981(5)
C5 C 1.0466(14) 0.4938(8) 0.6436(7)
H2 H 1.0200 0.4842 0.6738
C6 C 1.0162(13) 0.5318(7) 0.5600(6)
H3 H 0.9703 0.5482 0.5335
C7 C 0.5147(14) 0.5113(8) 0.6546(6)
C8 C 0.6549(15) 0.2092(8) 0.6614(7)
H4 H 0.6326 0.2020 0.6930
C9 C 0.4181(15) 0.5667(8) 0.7050(7)
H5 H 0.3837 0.5694 0.7340
C10 C 0.8387(13) 0.1186(7) 0.4973(6)
C11 C 0.7429(13) 0.2690(7) 0.6057(6)
C12 C 0.9973(15) 0.3289(8) 0.5973(7)
H6 H 1.0016 0.3527 0.6266
C13 C 0.9000(13) 0.3087(7) 0.5753(6)
C14 C 0.7158(14) 0.2589(8) 0.6532(6)
H7 H 0.7394 0.2862 0.6793
C15 C 0.9807(16) 0.2604(9) 0.5135(7)
H8 H 0.9761 0.2356 0.4847
C16 C 0.3760(19) 0.2976(11) 0.6622(8)
H9 H 0.3366 0.2617 0.6681
C17 C 0.4571(16) 0.6111(9) 0.6288(7)
H10 H 0.4527 0.6443 0.6060
C18 C 0.9794(13) 0.5173(7) 0.6037(6)
C19 C 0.6574(14) 0.1819(8) 0.5773(7)
H11 H 0.6403 0.1529 0.5516
C20 C 0.4092(16) 0.3381(9) 0.7000(8)
H12 H 0.3871 0.3298 0.7313
C21 C 0.7318(15) 0.4317(8) 0.7410(7)
C22 C 0.4635(16) 0.3634(9) 0.6091(7)
H13 H 0.4838 0.3742 0.5779
C23 C 0.6262(15) 0.1694(9) 0.6226(7)
H14 H 0.5852 0.1337 0.6274
C24 C 1.1238(13) 0.5220(7) 0.5549(6)
H15 H 1.1512 0.5318 0.5249
C25 C 1.1886(13) 0.4978(8) 0.5943(6)
C26 C 0.4094(17) 0.6158(10) 0.6721(7)
H16 H 0.3717 0.6521 0.6790
C27 C 0.4024(19) 0.3113(11) 0.6148(9)
H17 H 0.3792 0.2857 0.5875
C28 C 1.1501(14) 0.4847(8) 0.6384(7)
H18 H 1.1961 0.4693 0.6653
C29 C 1.0877(16) 0.3143(9) 0.5764(7)
H19 H 1.1546 0.3281 0.5907
C30 C 1.0777(17) 0.2791(10) 0.5341(8)
H20 H 1.1384 0.2678 0.5191
O2 O 1.2932(10) 0.4853(6) 0.5922(5)
H21 H 1.3073 0.4891 0.5631
C31 C 0.7772(13) 0.3802(7) 0.6072(6)
Se1F Se 0.60410(14) 0.45767(8) 0.50529(6)
Fe2A Fe 0.2500 0.2500 1.0000
Se2A Se 0.1325(2) 0.40657(13) 0.76369(10)
N1A N 0.5264(11) 0.5151(6) 0.8027(5)
N2A N 0.4415(11) 0.4526(6) 0.8556(5)
O1A O 0.1257(9) 0.5297(5) 0.8900(4)
N3A N 0.1546(10) 0.4250(6) 0.9005(5)
N4A N 0.2807(10) 0.4947(6) 0.8724(5)
N5A N 0.2889(11) 0.2330(6) 0.9326(5)
N5F N 0.7889(11) 0.2670(6) 0.4326(5)
N6A N 0.3165(10) 0.3853(6) 0.8776(5)
N7A N 0.1097(11) 0.2758(6) 0.9674(5)
N7F N 0.6097(11) 0.2242(6) 0.4674(5)
C1A C 0.5061(14) 0.3994(8) 0.8496(6)
C2A C 0.3439(12) 0.4442(7) 0.8692(6)
N8A N 0.5302(12) 0.3878(7) 0.8040(5)
N9A N 0.1916(11) 0.3203(6) 0.9034(5)
N10A N 0.3495(12) 0.4457(7) 0.7563(6)
C3A C 0.4899(14) 0.5584(8) 0.8805(6)
H1A H 0.4573 0.5540 0.9099
C4A C 0.1893(13) 0.4808(7) 0.8873(6)
N11F N 0.6962(11) 0.3338(6) 0.5019(5)
C5A C -0.0466(14) 0.4938(8) 0.8564(7)
H2A H -0.0200 0.4842 0.8262
C6A C -0.0162(13) 0.5318(7) 0.9400(6)
H3A H 0.0297 0.5482 0.9665
C7A C 0.4853(14) 0.5113(8) 0.8454(6)
C8A C 0.3451(15) 0.2092(8) 0.8386(7)
H4A H 0.3674 0.2020 0.8070
C9A C 0.5819(15) 0.5667(8) 0.7950(7)
H5A H 0.6163 0.5694 0.7660
C10F C 0.6613(13) 0.3814(7) 0.5027(6)
C11A C 0.2571(13) 0.2690(7) 0.8943(6)
C12A C 0.0027(15) 0.3289(8) 0.9027(7)
H6A H -0.0016 0.3527 0.8734
C13A C 0.1000(13) 0.3087(7) 0.9247(6)
C14A C 0.2842(14) 0.2589(8) 0.8468(6)
H7A H 0.2606 0.2862 0.8207
C15A C 0.0193(16) 0.2604(9) 0.9865(7)
H8A H 0.0239 0.2356 1.0153
C16A C 0.6240(19) 0.2976(11) 0.8378(8)
H9A H 0.6634 0.2617 0.8319
C17A C 0.5429(16) 0.6111(9) 0.8712(7)
H10A H 0.5473 0.6443 0.8940
C18A C 0.0206(13) 0.5173(7) 0.8963(6)
C19A C 0.3426(14) 0.1819(8) 0.9227(7)
H11A H 0.3597 0.1529 0.9484
C20A C 0.5908(16) 0.3381(9) 0.8000(8)
H12A H 0.6129 0.3298 0.7687
C21A C 0.2682(15) 0.4317(8) 0.7590(7)
C22A C 0.5365(16) 0.3634(9) 0.8909(7)
H13A H 0.5162 0.3742 0.9221
C23A C 0.3738(15) 0.1694(9) 0.8774(7)
H14A H 0.4148 0.1337 0.8726
C24A C -0.1238(13) 0.5220(7) 0.9451(6)
H15A H -0.1512 0.5318 0.9751
C25A C -0.1886(13) 0.4978(8) 0.9057(6)
C26A C 0.5906(17) 0.6158(10) 0.8279(7)
H16A H 0.6283 0.6521 0.8210
C27A C 0.5976(19) 0.3113(11) 0.8852(9)
H17A H 0.6208 0.2857 0.9125
C28A C -0.1501(14) 0.4847(8) 0.8616(7)
H18A H -0.1961 0.4693 0.8347
C29A C -0.0877(16) 0.3143(9) 0.9236(7)
H19A H -0.1546 0.3281 0.9093
C30A C -0.0777(17) 0.2791(10) 0.9659(8)
H20A H -0.1384 0.2678 0.9809
O2A O -0.2932(10) 0.4853(6) 0.9078(5)
H21A H -0.3073 0.4891 0.9369
C31A C 0.2228(13) 0.3802(7) 0.8928(6)
C32 C 0.1969(12) 0.3921(10) 0.2873(19)
O3 O 0.272(2) 0.4098(14) 0.3006(11)
Cl3 Cl 0.2983(13) 0.3757(8) 0.5023(5)
Cl4 Cl 0.1722(14) 0.3280(8) 0.4166(6)
C33 C 0.283(3) 0.365(3) 0.4404(7)
H22 H 0.3444 0.3419 0.4312
H23 H 0.2845 0.4065 0.4245
Cl1? Cl 0.2897(10) 0.3356(6) 0.2878(5)
Cl2? Cl 0.0692(11) 0.3693(7) 0.2817(5)
C34? C 0.172(3) 0.416(2) 0.2748(16)
loop_
_geom_bond_atom_site_label_1
_geom_bond_atom_site_label_2
_geom_bond_site_symmetry_1
_geom_bond_site_symmetry_2
Se1 C10 1_555 1_555
Fe1 N1 1_555 1_555
Fe2 N5 1_555 1_555
Se2 C21 1_555 1_555
N1 C7 1_555 1_555
N2 C1 1_555 1_555
O1 C4 1_555 1_555
N3 C4 1_555 1_555
N4 C2 1_555 1_555
N5 C11 1_555 1_555
N6 C2 1_555 1_555
N7 Fe2 1_555 1_555
C1 N8 1_555 1_555
C2 N2 1_555 1_555
N8 Fe1 1_555 1_555
N9 C11 1_555 1_555
N10 Fe1 1_555 1_555
C3 H1 1_555 1_555
C4 N4 1_555 1_555
N11 Fe2 1_555 1_555
C5 H2 1_555 1_555
C6 H3 1_555 1_555
C7 N2 1_555 1_555
C8 H4 1_555 1_555
C9 N1 1_555 1_555
H5 C9 1_555 1_555
C10 N11 1_555 1_555
C11 C14 1_555 1_555
C12 H6 1_555 1_555
C13 N7 1_555 1_555
C14 C8 1_555 1_555
H7 C14 1_555 1_555
C15 N7 1_555 1_555
H8 C15 1_555 1_555
C16 H9 1_555 1_555
C17 C3 1_555 1_555
H10 C17 1_555 1_555
C18 O1 1_555 1_555
C19 N5 1_555 1_555
H11 C19 1_555 1_555
C20 N8 1_555 1_555
H12 C20 1_555 1_555
C21 N10 1_555 1_555
C22 C1 1_555 1_555
H13 C22 1_555 1_555
C23 C8 1_555 1_555
H14 C23 1_555 1_555
C24 C6 1_555 1_555
H15 C24 1_555 1_555
C25 C24 1_555 1_555
C26 C9 1_555 1_555
H16 C26 1_555 1_555
C27 C16 1_555 1_555
H17 C27 1_555 1_555
C28 C5 1_555 1_555
H18 C28 1_555 1_555
C29 C12 1_555 1_555
H19 C29 1_555 1_555
C30 C15 1_555 1_555
H20 C30 1_555 1_555
O2 C25 1_555 1_555
H21 O2 1_555 1_555
C31 N3 1_555 1_555
C32 O3 1_555 1_555
Cl3 C33 1_555 1_555
Cl4 C33 1_555 1_555
C33 H22 1_555 1_555
H23 C33 1_555 1_555
Se1F C10F 1_555 1_555
Fe2A N5A 1_555 1_555
Se2A C21A 1_555 1_555
N1A Fe1 1_555 1_555
N2A C1A 1_555 1_555
O1A C4A 1_555 1_555
N3A C4A 1_555 1_555
N4A C2A 1_555 1_555
N5A C11A 1_555 1_555
N5F Fe2 1_555 1_555
N6A C2A 1_555 1_555
N7A Fe2A 1_555 1_555
N7F Fe2 1_555 1_555
C1A N8A 1_555 1_555
C2A N2A 1_555 1_555
N8A Fe1 1_555 1_555
N9A C11A 1_555 1_555
N10A Fe1 1_555 1_555
C3A H1A 1_555 1_555
C4A N4A 1_555 1_555
N11F Fe2 1_555 1_555
C5A H2A 1_555 1_555
C6A H3A 1_555 1_555
C7A N1A 1_555 1_555
C8A H4A 1_555 1_555
C9A N1A 1_555 1_555
H5A C9A 1_555 1_555
C10F N11F 1_555 1_555
C11A C14A 1_555 1_555
C12A H6A 1_555 1_555
C13A N7A 1_555 1_555
C14A C8A 1_555 1_555
H7A C14A 1_555 1_555
C15A N7A 1_555 1_555
H8A C15A 1_555 1_555
C16A H9A 1_555 1_555
C17A C3A 1_555 1_555
H10A C17A 1_555 1_555
C18A O1A 1_555 1_555
C19A N5A 1_555 1_555
H11A C19A 1_555 1_555
C20A N8A 1_555 1_555
H12A C20A 1_555 1_555
C21A N10A 1_555 1_555
C22A C1A 1_555 1_555
H13A C22A 1_555 1_555
C23A C8A 1_555 1_555
H14A C23A 1_555 1_555
C24A C6A 1_555 1_555
H15A C24A 1_555 1_555
C25A C24A 1_555 1_555
C26A C9A 1_555 1_555
H16A C26A 1_555 1_555
C27A C16A 1_555 1_555
H17A C27A 1_555 1_555
C28A C5A 1_555 1_555
H18A C28A 1_555 1_555
C29A C12A 1_555 1_555
H19A C29A 1_555 1_555
C30A C15A 1_555 1_555
H20A C30A 1_555 1_555
O2A C25A 1_555 1_555
H21A O2A 1_555 1_555
C31A N3A 1_555 1_555
N6 C31 1_555 1_555
N9 C13 1_555 1_555
N9 C31 1_555 1_555
C3 C7 1_555 1_555
C5 C18 1_555 1_555
C6 C18 1_555 1_555
C12 C13 1_555 1_555
C16 C20 1_555 1_555
C17 C26 1_555 1_555
C19 C23 1_555 1_555
C22 C27 1_555 1_555
C25 C28 1_555 1_555
C29 C30 1_555 1_555
N2A C7A 1_555 1_555
N6A C31A 1_555 1_555
N9A C13A 1_555 1_555
N9A C31A 1_555 1_555
C3A C7A 1_555 1_555
C5A C18A 1_555 1_555
C6A C18A 1_555 1_555
C12A C13A 1_555 1_555
C16A C20A 1_555 1_555
C17A C26A 1_555 1_555
C19A C23A 1_555 1_555
C22A C27A 1_555 1_555
C25A C28A 1_555 1_555
C29A C30A 1_555 1_555

#END
