
#######################################################################
#
#                 Cambridge Crystallographic Data Centre
#                                CCDC 
#
#######################################################################
#
# If this CIF has been generated from an entry in the Cambridge 
# Structural Database, then it will include bibliographic, chemical, 
# crystal, experimental, refinement or atomic coordinate data resulting 
# from the CCDC's data processing and validation procedures.
#
#######################################################################

data_ESUMUA
_symmetry_cell_setting           monoclinic
_symmetry_space_group_name_H-M   'P 21/a'
_symmetry_Int_Tables_number      14
_space_group_name_Hall           '-P 2yab'
loop_
_symmetry_equiv_pos_site_id
_symmetry_equiv_pos_as_xyz
1 x,y,z
2 1/2+x,1/2-y,z
3 -x,-y,-z
4 1/2-x,1/2+y,-z
_cell_length_a                   9.639(4)
_cell_length_b                   18.144(2)
_cell_length_c                   10.7650(10)
_cell_angle_alpha                90
_cell_angle_beta                 95.63(2)
_cell_angle_gamma                90
_cell_volume                     1873.61
loop_
_atom_site_label
_atom_site_type_symbol
_atom_site_fract_x
_atom_site_fract_y
_atom_site_fract_z
Mn1 Mn -0.28761(3) 0.141390(18) 0.20460(3)
N1 N -0.3316(2) 0.07450(11) 0.03275(18)
N2 N -0.1310(2) 0.04778(11) 0.21996(18)
O1 O -0.15033(17) 0.22090(10) 0.12677(15)
O2 O -0.35836(18) 0.10365(9) 0.37877(15)
O3 O -0.1801(2) 0.20555(11) 0.35693(15)
O4 O 0.02875(18) 0.29696(11) 0.15548(17)
O5 O -0.3782(2) 0.12720(11) 0.57844(17)
C1 C -0.4285(3) 0.08825(16) -0.0600(2)
H1 H -0.478(2) 0.1265(15) -0.0556(3)
C2 C -0.4532(3) 0.04334(17) -0.1645(3)
H2 H -0.523(3) 0.0554(5) -0.229(2)
C3 C -0.3741(3) -0.01877(17) -0.1722(3)
H3 H -0.3885(8) -0.0483(14) -0.239(3)
C4 C -0.2708(3) -0.03603(15) -0.0767(2)
C5 C -0.2523(2) 0.01291(13) 0.0250(2)
C6 C -0.1827(3) -0.09933(16) -0.0769(3)
H4 H -0.1943(6) -0.1300(14) -0.138(3)
C7 C -0.0825(3) -0.11243(16) 0.0157(3)
H5 H -0.026(2) -0.1549(16) 0.0123(3)
C8 C -0.0593(3) -0.06330(14) 0.1198(3)
C9 C -0.1456(2) -0.00128(13) 0.1246(2)
C10 C 0.0474(3) -0.07226(16) 0.2163(3)
H6 H 0.109(2) -0.1136(16) 0.2158(3)
C11 C 0.0634(3) -0.02239(17) 0.3108(3)
H7 H 0.132(3) -0.0274(3) 0.372(3)
C12 C -0.0289(3) 0.03674(16) 0.3101(3)
H8 H -0.0187(5) 0.0692(12) 0.374(2)
C13 C -0.0632(2) 0.25774(12) 0.1952(2)
C14 C -0.0716(3) 0.25487(14) 0.3352(2)
H9 H 0.014(2) 0.2382(4) 0.3763(10)
H10 H -0.0907(5) 0.3024(12) 0.3659(8)
C15 C -0.2083(3) 0.19359(14) 0.4820(2)
H11 H -0.2359(6) 0.2382(10) 0.5180(9)
H12 H -0.1277(18) 0.1758(4) 0.5299(11)
C16 C -0.3244(2) 0.13737(13) 0.4797(2)
O4A O -0.47125(18) 0.20304(11) 0.15548(17)
Mn1A Mn 0.21239(3) 0.358610(18) 0.20460(3)
O6 O -0.6516(3) 0.23940(16) -0.1362(2)
H13 H -0.744(5) 0.240(3) -0.180(4)
H14 H -0.654(5) 0.248(3) -0.066(5)
O7 O -0.4182(3) 0.24948(14) 0.7314(2)
H15 H -0.486(5) 0.246(2) 0.766(4)
H16 H -0.417(4) 0.208(3) 0.685(4)
O8 O -0.8661(3) 0.14466(15) 0.5345(3)
H17 H -0.800(6) 0.115(3) 0.545(5)
H18 H -0.865(5) 0.163(3) 0.609(5)
O9 O -0.6377(3) 0.05136(16) 0.5383(3)
H19 H -0.564(4) 0.073(2) 0.547(3)
H20 H -0.634(4) 0.008(3) 0.564(4)
loop_
_geom_bond_atom_site_label_1
_geom_bond_atom_site_label_2
_geom_bond_site_symmetry_1
_geom_bond_site_symmetry_2
Mn1 N1 1_555 1_555
N1 C1 1_555 1_555
N2 Mn1 1_555 1_555
O1 Mn1 1_555 1_555
O2 Mn1 1_555 1_555
O3 Mn1 1_555 1_555
O4 C13 1_555 1_555
O5 C16 1_555 1_555
C1 H1 1_555 1_555
C2 C1 1_555 1_555
H2 C2 1_555 1_555
C3 C2 1_555 1_555
H3 C3 1_555 1_555
C4 C3 1_555 1_555
C5 N1 1_555 1_555
C6 C4 1_555 1_555
H4 C6 1_555 1_555
C7 C6 1_555 1_555
H5 C7 1_555 1_555
C8 C7 1_555 1_555
C9 N2 1_555 1_555
C10 C8 1_555 1_555
H6 C10 1_555 1_555
C11 C10 1_555 1_555
H7 C11 1_555 1_555
C12 N2 1_555 1_555
H8 C12 1_555 1_555
C13 O1 1_555 1_555
C14 O3 1_555 1_555
H9 C14 1_555 1_555
H10 C14 1_555 1_555
C15 O3 1_555 1_555
H11 C15 1_555 1_555
H12 C15 1_555 1_555
C16 O2 1_555 1_555
O6 H13 1_555 1_555
O7 H15 1_555 1_555
O8 H17 1_555 1_555
O9 H19 1_555 1_555
H14 O6 1_555 1_555
H16 O7 1_555 1_555
H18 O8 1_555 1_555
H20 O9 1_555 1_555
O4A Mn1 1_555 1_555
Mn1A O4 1_555 1_555
C4 C5 1_555 1_555
C5 C9 1_555 1_555
C8 C9 1_555 1_555
C11 C12 1_555 1_555
C13 C14 1_555 1_555
C15 C16 1_555 1_555

#END
