
#######################################################################
#
#                 Cambridge Crystallographic Data Centre
#                                CCDC 
#
#######################################################################
#
# If this CIF has been generated from an entry in the Cambridge 
# Structural Database, then it will include bibliographic, chemical, 
# crystal, experimental, refinement or atomic coordinate data resulting 
# from the CCDC's data processing and validation procedures.
#
#######################################################################

data_ESUNSC10
_symmetry_cell_setting           triclinic
_symmetry_space_group_name_H-M   'P -1'
_symmetry_Int_Tables_number      2
_space_group_name_Hall           '-P 1'
loop_
_symmetry_equiv_pos_site_id
_symmetry_equiv_pos_as_xyz
1 x,y,z
2 -x,-y,-z
_cell_length_a                   5.592(21)
_cell_length_b                   8.664(18)
_cell_length_c                   8.686(22)
_cell_angle_alpha                113.65(12)
_cell_angle_beta                 95.13(12)
_cell_angle_gamma                108.72(10)
_cell_volume                     353.36
loop_
_atom_site_label
_atom_site_type_symbol
_atom_site_fract_x
_atom_site_fract_y
_atom_site_fract_z
C1 C -0.23030 0.21240 0.60570
C2 C -0.01230 0.40070 0.72040
C3 C 0.08800 0.26080 0.46050
C4 C -0.59840 -0.17310 0.02780
Ni1 Ni 0.00000 0.00000 0.00000
N1 N -0.22260 0.13850 -0.00320
N2 N 0.18200 0.40110 0.61510
N3 N -0.14840 0.15150 0.44630
S1 S 0.25740 0.22670 0.30530
S2 S -0.34580 -0.22210 0.06620
N1A N 0.22260 -0.13850 0.00320
S1A S -0.25740 -0.22670 -0.30530
S2A S 0.34580 0.22210 -0.06620
C4A C -0.40160 0.17310 -0.02780
C3A C -0.08800 -0.26080 -0.46050
S2A_2 S -0.65420 0.22210 -0.06620
N2A N -0.18200 -0.40110 -0.61510
N3A N 0.14840 -0.15150 -0.44630
C2A C 0.01230 -0.40070 -0.72040
C1A C 0.23030 -0.21240 -0.60570
N1A_2 N -0.77740 -0.13850 0.00320
Ni1_2 Ni -1.00000 0.00000 0.00000
loop_
_geom_bond_atom_site_label_1
_geom_bond_atom_site_label_2
_geom_bond_site_symmetry_1
_geom_bond_site_symmetry_2
C1 C2 1_555 1_555
C2 N2 1_555 1_555
C3 N2 1_555 1_555
C4 S2 1_555 1_555
Ni1 N1 1_555 1_555
N1 C4A 1_555 1_555
N3 C1 1_555 1_555
S1 C3 1_555 1_555
S2 Ni1 1_555 1_555
N1A Ni1 1_555 1_555
S1A Ni1 1_555 1_555
S2A Ni1 1_555 1_555
C4A S2A_2 1_555 1_555
C3A S1A 1_555 1_555
S2A_2 Ni1_2 1_555 1_555
N2A C3A 1_555 1_555
N3A C3A 1_555 1_555
C2A N2A 1_555 1_555
C1A N3A 1_555 1_555
N1A_2 C4 1_555 1_555
Ni1_2 N1A_2 1_555 1_555
C3 N3 1_555 1_555
Ni1 S1 1_555 1_555
C2A C1A 1_555 1_555

#END
