
#######################################################################
#
#                 Cambridge Crystallographic Data Centre
#                                CCDC 
#
#######################################################################
#
# If this CIF has been generated from an entry in the Cambridge 
# Structural Database, then it will include bibliographic, chemical, 
# crystal, experimental, refinement or atomic coordinate data resulting 
# from the CCDC's data processing and validation procedures.
#
#######################################################################

data_ESUNEM
_symmetry_cell_setting           monoclinic
_symmetry_space_group_name_H-M   'P 21/n'
_symmetry_Int_Tables_number      14
_space_group_name_Hall           '-P 2yn'
loop_
_symmetry_equiv_pos_site_id
_symmetry_equiv_pos_as_xyz
1 x,y,z
2 1/2-x,1/2+y,1/2-z
3 -x,-y,-z
4 1/2+x,1/2-y,1/2+z
_cell_length_a                   10.9525(18)
_cell_length_b                   16.663(3)
_cell_length_c                   11.0239(18)
_cell_angle_alpha                90
_cell_angle_beta                 94.285(3)
_cell_angle_gamma                90
_cell_volume                     2006.25
loop_
_atom_site_label
_atom_site_type_symbol
_atom_site_fract_x
_atom_site_fract_y
_atom_site_fract_z
Re1 Re 0.93750(3) 0.006591(19) 0.64940(3)
Re2 Re 0.99122(3) -0.10936(2) 0.50694(3)
Re3 Re 1.15528(3) -0.003520(18) 0.57344(3)
K1 K 1.1229(2) 0.22065(15) 0.9589(2)
K2 K 1.22671(19) -0.24850(13) 0.8711(2)
S1 S 1.07738(19) -0.09843(13) 0.71303(19)
S2 S 1.09446(19) 0.10438(13) 0.70088(19)
S3 S 0.80664(19) 0.11127(13) 0.5643(2)
S4 S 0.79023(19) -0.09165(13) 0.57679(19)
O1 O 0.8681(5) 0.0227(4) 0.8230(5)
O2 O 0.8247(6) -0.1034(4) 0.8705(6)
O3 O 0.9668(6) -0.2346(4) 0.5101(5)
O4 O 1.1462(6) -0.2768(5) 0.5973(7)
O5 O 1.3343(6) -0.0141(4) 0.6553(6)
O6 O 1.4021(6) 0.1111(4) 0.6573(6)
O7 O 0.8667(7) 0.1858(5) 0.9141(7)
O8 O 1.0681(8) 0.2676(5) 1.1808(7)
O9 O 1.1127(6) 0.3259(4) 0.7702(6)
C1 C 0.8331(8) -0.0320(6) 0.8930(8)
C2 C 0.8018(11) -0.0012(6) 1.0160(9)
H1 H 0.7593 -0.0433 1.0585
H2 H 0.7485 0.0459 1.0050
H3 H 0.8772 0.0137 1.0642
C3 C 1.0418(9) -0.2896(6) 0.5496(9)
C4 C 0.9930(10) -0.3730(7) 0.5378(10)
H4 H 1.0610 -0.4112 0.5456
H5 H 0.9376 -0.3830 0.6020
H6 H 0.9482 -0.3795 0.4581
C5 C 1.4199(9) 0.0396(6) 0.6708(8)
C6 C 1.5447(9) 0.0072(6) 0.7012(12)
H7 H 1.5565 -0.0024 0.7890
H8 H 1.5543 -0.0435 0.6576
H9 H 1.6057 0.0459 0.6770
Re1B Re 1.06250(3) -0.006591(19) 0.35060(3)
Re2B Re 1.00878(3) 0.10936(2) 0.49306(3)
Re3B Re 0.84472(3) 0.003520(18) 0.42656(3)
K1B K 0.8771(2) -0.22065(15) 1.0411(2)
K1A K 1.3771(2) -0.27935(15) 0.5411(2)
K1C K 0.6229(2) 0.27935(15) 0.4589(2)
K2B K 0.77329(19) 0.24850(13) 1.1289(2)
K2A K 1.27329(19) 0.25150(13) 0.6289(2)
K2C K 0.72671(19) -0.25150(13) 0.3711(2)
S2B S 0.90554(19) -0.10438(13) 0.29912(19)
S2A S 1.40554(19) -0.39562(13) 0.79912(19)
S3B S 1.19336(19) -0.11127(13) 0.4357(2)
S3C S 1.30664(19) 0.38873(13) 1.0643(2)
S4B S 1.20977(19) 0.09165(13) 0.42321(19)
S4C S 1.29023(19) -0.40835(13) 1.07679(19)
O2B O 1.1753(6) 0.1034(4) 1.1295(6)
O3C O 1.4668(6) -0.2654(4) 1.0101(5)
O4A O 1.3538(6) 0.2232(5) 0.9027(7)
O6A O 1.0979(6) -0.3889(4) 0.8427(6)
O7B O 1.1333(7) -0.1858(5) 1.0859(7)
O8B O 0.9319(8) -0.2676(5) 0.8192(7)
O9A O 1.3873(6) -0.1741(4) 0.7298(6)
O10 O 1.6412(6) -0.2095(4) 0.7857(7)
loop_
_geom_bond_atom_site_label_1
_geom_bond_atom_site_label_2
_geom_bond_site_symmetry_1
_geom_bond_site_symmetry_2
Re1 Re2 1_555 1_555
Re2 Re3 1_555 1_555
Re3 Re1 1_555 1_555
K1 S2 1_555 1_555
K2 S1 1_555 1_555
S1 Re1 1_555 1_555
S2 Re1 1_555 1_555
S3 Re1 1_555 1_555
S4 Re1 1_555 1_555
O1 Re1 1_555 1_555
O2 C1 1_555 1_555
O3 Re2 1_555 1_555
O4 K2 1_555 1_555
O5 Re3 1_555 1_555
O6 C5 1_555 1_555
O7 K1 1_555 1_555
O8 K1 1_555 1_555
O9 K1 1_555 1_555
C1 O1 1_555 1_555
C2 C1 1_555 1_555
H1 C2 1_555 1_555
H2 C2 1_555 1_555
H3 C2 1_555 1_555
C3 O3 1_555 1_555
C4 C3 1_555 1_555
H4 C4 1_555 1_555
H5 C4 1_555 1_555
H6 C4 1_555 1_555
C5 O5 1_555 1_555
C6 C5 1_555 1_555
H7 C6 1_555 1_555
H8 C6 1_555 1_555
H9 C6 1_555 1_555
Re1B Re2 1_555 1_555
Re2B Re1 1_555 1_555
Re3B Re1 1_555 1_555
K1B O2 1_555 1_555
K1A O4 1_555 1_555
K1C S3 1_555 1_555
K2B O7 1_555 1_555
K2A S2 1_555 1_555
K2C S4 1_555 1_555
S2B Re2 1_555 1_555
S2A K2 1_555 1_555
S3B Re2 1_555 1_555
S3C K1 1_555 1_555
S4B Re3 1_555 1_555
S4C K2 1_555 1_555
O2B K1 1_555 1_555
O3C K2 1_555 1_555
O4A K1 1_555 1_555
O6A K2 1_555 1_555
O7B K2 1_555 1_555
O8B K2 1_555 1_555
O9A K2 1_555 1_555
Re2 S1 1_555 1_555
Re2 S4 1_555 1_555
Re2 Re3B 1_555 1_555
Re3 S1 1_555 1_555
Re3 S2 1_555 1_555
Re3 Re1B 1_555 1_555
Re3 Re2B 1_555 1_555
Re3 S3B 1_555 1_555
S2 Re2B 1_555 1_555
S3 Re2B 1_555 1_555
S3 Re3B 1_555 1_555
S4 Re3B 1_555 1_555
O3 K2C 1_555 1_555
O4 C3 1_555 1_555
O6 K2A 1_555 1_555
O8 K2B 1_555 1_555
O9 K2A 1_555 1_555
Re1B Re2B 1_555 1_555
Re1B Re3B 1_555 1_555
Re1B S2B 1_555 1_555
Re1B S3B 1_555 1_555
Re1B S4B 1_555 1_555
Re2B Re3B 1_555 1_555
Re2B S4B 1_555 1_555
Re3B S2B 1_555 1_555
K1B O7B 1_555 1_555
K1B O8B 1_555 1_555
K1A S2A 1_555 1_555
K1A S3B 1_555 1_555
K1A O9A 1_555 1_555
K2A S4B 1_555 1_555
K2A O4A 1_555 1_555
K2C S2B 1_555 1_555

#END
