
#######################################################################
#
#                 Cambridge Crystallographic Data Centre
#                                CCDC 
#
#######################################################################
#
# If this CIF has been generated from an entry in the Cambridge 
# Structural Database, then it will include bibliographic, chemical, 
# crystal, experimental, refinement or atomic coordinate data resulting 
# from the CCDC's data processing and validation procedures.
#
#######################################################################

data_ESUPAK
_symmetry_cell_setting           orthorhombic
_symmetry_space_group_name_H-M   'P n a 21'
_symmetry_Int_Tables_number      33
_space_group_name_Hall           'P 2c -2n'
loop_
_symmetry_equiv_pos_site_id
_symmetry_equiv_pos_as_xyz
1 x,y,z
2 -x,-y,1/2+z
3 1/2-x,1/2+y,1/2+z
4 1/2+x,1/2-y,z
_cell_length_a                   11.118(3)
_cell_length_b                   21.290(8)
_cell_length_c                   9.512(2)
_cell_angle_alpha                90
_cell_angle_beta                 90
_cell_angle_gamma                90
_cell_volume                     2251.51
loop_
_atom_site_label
_atom_site_type_symbol
_atom_site_fract_x
_atom_site_fract_y
_atom_site_fract_z
Zn1 Zn 0.23655(10) 0.20902(6) -0.0004(2)
Cl1 Cl 0.2959(6) 0.0288(2) 0.4544(5)
Cl2 Cl 0.3476(3) 0.1866(2) 0.3824(4)
Cl3 Cl 0.4257(3) 0.1049(2) -0.2548(4)
Cl4 Cl 0.7203(3) 0.1529(2) -0.2125(4)
N1 N 0.1497(8) 0.1293(4) -0.1009(10)
N2 N 0.1362(8) 0.0807(4) -0.0233(11)
N3 N 0.2003(12) 0.0418(4) 0.1994(12)
N4 N 0.2339(7) 0.1453(4) 0.1511(10)
N5 N 0.3353(7) 0.2914(4) 0.0973(9)
N6 N 0.4470(8) 0.2948(4) 0.0617(10)
N7 N 0.4039(7) 0.2051(4) -0.0836(10)
N8 N 0.5994(7) 0.2345(4) -0.0550(10)
C1 C 0.1897(10) 0.0892(5) 0.1088(14)
C2 C 0.2590(14) 0.0699(6) 0.3067(14)
C3 C 0.2787(10) 0.1302(5) 0.2794(14)
C4 C 0.0888(9) 0.1272(5) -0.2318(12)
C5 C -0.0006(9) 0.0847(5) -0.2653(14)
H1 H -0.0221(9) 0.0528(5) -0.1987(14)
C6 C -0.0548(11) 0.0880(6) -0.3950(17)
H2 H -0.1135(11) 0.0572(6) -0.4221(17)
C7 C -0.0246(12) 0.1356(6) -0.4890(16)
H3 H -0.0654(12) 0.1384(6) -0.5778(16)
C8 C 0.0611(12) 0.1788(7) -0.4548(14)
H4 H 0.0807(12) 0.2122(7) -0.5188(14)
C9 C 0.1192(11) 0.1746(6) -0.3252(14)
H5 H 0.1840(11) 0.2024(6) -0.3011(14)
C10 C 0.4805(8) 0.2457(4) -0.0246(11)
C11 C 0.4787(9) 0.1655(5) -0.1556(11)
C12 C 0.5960(8) 0.1845(5) -0.1371(13)
C13 C 0.2911(9) 0.3425(4) 0.1741(12)
C14 C 0.1906(10) 0.3305(6) 0.2592(15)
H6 H 0.1546(10) 0.2896(6) 0.2640(15)
C15 C 0.1477(12) 0.3797(7) 0.3420(17)
H7 H 0.0777(12) 0.3730(7) 0.3993(17)
C16 C 0.1985(12) 0.4376(7) 0.3380(16)
H8 H 0.1665(12) 0.4704(7) 0.3963(16)
C17 C 0.2935(12) 0.4489(5) 0.2492(15)
H9 H 0.3298(12) 0.4898(5) 0.2485(15)
C18 C 0.3431(10) 0.4016(5) 0.1687(13)
H10 H 0.4102(10) 0.4098(5) 0.1078(13)
Zn1C Zn 0.73655(10) 0.29098(6) -0.0004(2)
N8C N 0.0994(7) 0.2655(4) -0.0550(10)
loop_
_geom_bond_atom_site_label_1
_geom_bond_atom_site_label_2
_geom_bond_site_symmetry_1
_geom_bond_site_symmetry_2
Zn1 N1 1_555 1_555
Cl1 C2 1_555 1_555
Cl2 C3 1_555 1_555
Cl3 C11 1_555 1_555
Cl4 C12 1_555 1_555
N1 N2 1_555 1_555
N2 C1 1_555 1_555
N3 C1 1_555 1_555
N4 Zn1 1_555 1_555
N5 Zn1 1_555 1_555
N6 N5 1_555 1_555
N7 Zn1 1_555 1_555
N8 C10 1_555 1_555
C1 N4 1_555 1_555
C2 N3 1_555 1_555
C3 N4 1_555 1_555
C4 N1 1_555 1_555
C5 C4 1_555 1_555
H1 C5 1_555 1_555
C6 C5 1_555 1_555
H2 C6 1_555 1_555
C7 C6 1_555 1_555
H3 C7 1_555 1_555
C8 C7 1_555 1_555
H4 C8 1_555 1_555
C9 C4 1_555 1_555
H5 C9 1_555 1_555
C10 N6 1_555 1_555
C11 N7 1_555 1_555
C12 N8 1_555 1_555
C13 N5 1_555 1_555
C14 C13 1_555 1_555
H6 C14 1_555 1_555
C15 C14 1_555 1_555
H7 C15 1_555 1_555
C16 C15 1_555 1_555
H8 C16 1_555 1_555
C17 C16 1_555 1_555
H9 C17 1_555 1_555
C18 C13 1_555 1_555
H10 C18 1_555 1_555
Zn1C N8 1_555 1_555
N8C Zn1 1_555 1_555
N7 C10 1_555 1_555
C2 C3 1_555 1_555
C8 C9 1_555 1_555
C11 C12 1_555 1_555
C17 C18 1_555 1_555

#END
