
#######################################################################
#
#                 Cambridge Crystallographic Data Centre
#                                CCDC 
#
#######################################################################
#
# If this CIF has been generated from an entry in the Cambridge 
# Structural Database, then it will include bibliographic, chemical, 
# crystal, experimental, refinement or atomic coordinate data resulting 
# from the CCDC's data processing and validation procedures.
#
#######################################################################

data_ESUVAP
_symmetry_cell_setting           triclinic
_symmetry_space_group_name_H-M   'P -1'
_symmetry_Int_Tables_number      2
_space_group_name_Hall           '-P 1'
loop_
_symmetry_equiv_pos_site_id
_symmetry_equiv_pos_as_xyz
1 x,y,z
2 -x,-y,-z
_cell_length_a                   11.302(2)
_cell_length_b                   14.126(3)
_cell_length_c                   8.7536(18)
_cell_angle_alpha                102.49(3)
_cell_angle_beta                 99.62(3)
_cell_angle_gamma                75.92(3)
_cell_volume                     1313.75
loop_
_atom_site_label
_atom_site_type_symbol
_atom_site_fract_x
_atom_site_fract_y
_atom_site_fract_z
Zn1 Zn 0.92083(7) 0.81060(5) 0.60575(7)
N1 N 0.9122(4) 0.6737(3) 0.6257(5)
N2 N 0.9750(5) 0.5276(3) 0.7051(5)
N3 N 0.7580(4) 0.9033(3) 0.6440(5)
N4 N 0.5713(4) 0.9695(3) 0.7133(5)
O1 O 0.9709(4) 0.8165(3) 0.4080(5)
O2 O 0.7959(5) 0.8000(4) 0.2625(5)
O3 O 1.0245(5) 0.8797(4) 0.7716(5)
O4 O 1.1813(5) 0.7526(4) 0.7735(6)
C1 C 0.8248(6) 0.6162(4) 0.5624(6)
C2 C 0.7176(6) 0.6357(5) 0.4638(6)
H1 H 0.6907 0.6961 0.4296
C3 C 0.6510(7) 0.5619(6) 0.4173(8)
H2 H 0.5789 0.5723 0.3486
C4 C 0.6895(8) 0.4733(6) 0.4707(10)
H3 H 0.6401 0.4269 0.4401
C5 C 0.7966(8) 0.4504(5) 0.5664(8)
H4 H 0.8233 0.3890 0.5977
C6 C 0.8637(6) 0.5252(4) 0.6144(6)
C7 C 0.9997(5) 0.6176(4) 0.7096(6)
H5 H 1.0697 0.6378 0.7649
C8 C 1.0509(6) 0.4503(4) 0.7901(6)
H6 H 1.1345 0.4603 0.8144
H7 H 1.0528 0.3857 0.7231
C9 C 1.0014(8) 0.4523(5) 0.9416(7)
C10 C 0.7246(5) 1.0014(4) 0.6187(5)
C11 C 0.7879(6) 1.0564(4) 0.5627(6)
H8 H 0.8670 1.0294 0.5358
C12 C 0.7309(7) 1.1516(5) 0.5480(7)
H9 H 0.7718 1.1904 0.5113
C13 C 0.6114(7) 1.1915(5) 0.5877(7)
H10 H 0.5742 1.2560 0.5741
C14 C 0.5474(6) 1.1395(4) 0.6456(6)
H11 H 0.4684 1.1669 0.6725
C15 C 0.6074(5) 1.0430(4) 0.6620(6)
C16 C 0.6642(6) 0.8884(4) 0.7001(6)
H12 H 0.6621 0.8288 0.7275
C17 C 0.4541(5) 0.9795(5) 0.7738(6)
H13 H 0.4372 0.9143 0.7642
H14 H 0.3881 1.0175 0.7110
C18 C 0.4580(6) 1.0311(5) 0.9452(6)
C19 C 0.8982(8) 0.8166(5) 0.2810(8)
C20 C 0.9526(7) 0.8330(5) 0.1446(7)
H15 H 1.0336 0.8449 0.1803
H16 H 0.9016 0.8894 0.1041
H17 H 0.9570 0.7752 0.0628
C21 C 1.1306(8) 0.8380(6) 0.8243(7)
C22 C 1.1981(7) 0.9002(6) 0.9555(9)
H18 H 1.1465 0.9648 0.9823
H19 H 1.2718 0.9067 0.9217
H20 H 1.2189 0.8687 1.0461
H21 H 0.386(5) 1.044(3) 0.966(5)
H22 H 0.916(5) 0.432(4) 0.913(5)
H23 H 0.479(5) 1.099(4) 0.950(6)
H24 H 1.052(5) 0.389(4) 0.977(6)
C9A C 0.9986(8) 0.5477(5) 1.0584(7)
C8A C 0.9491(6) 0.5497(4) 1.2099(6)
N2A N 1.0250(5) 0.4724(3) 1.2949(5)
C6A C 1.1363(6) 0.4748(4) 1.3856(6)
C1A C 1.1752(6) 0.3838(4) 1.4376(6)
N1A N 1.0878(4) 0.3263(3) 1.3743(5)
C7A C 1.0003(5) 0.3824(4) 1.2904(6)
H5A H 0.9303 0.3622 1.2351
C2A C 1.2824(6) 0.3643(5) 1.5362(6)
H1A H 1.3093 0.3039 1.5704
C3A C 1.3490(7) 0.4381(6) 1.5827(8)
H2A H 1.4211 0.4277 1.6514
C4A C 1.3105(8) 0.5267(6) 1.5293(10)
H3A H 1.3599 0.5731 1.5599
C5A C 1.2034(8) 0.5496(5) 1.4336(8)
H4A H 1.1767 0.6110 1.4023
H6A H 0.8655 0.5397 1.1856
H7A H 0.9472 0.6143 1.2769
H22A H 1.084(5) 0.568(4) 1.087(5)
H24A H 0.948(5) 0.611(4) 1.023(6)
C18A C 0.5420(6) 0.9689(5) 1.0548(6)
C17A C 0.5459(5) 1.0205(5) 1.2262(6)
N4A N 0.4287(4) 1.0305(3) 1.2867(5)
C15A C 0.3926(5) 0.9570(4) 1.3380(6)
C10A C 0.2754(5) 0.9986(4) 1.3813(5)
N3A N 0.2420(4) 1.0967(3) 1.3560(5)
C16A C 0.3358(6) 1.1116(4) 1.2999(6)
H12A H 0.3379 1.1712 1.2725
C11A C 0.2121(6) 0.9436(4) 1.4373(6)
H8A H 0.1330 0.9706 1.4642
C12A C 0.2691(7) 0.8484(5) 1.4520(7)
H9A H 0.2282 0.8096 1.4887
C13A C 0.3886(7) 0.8085(5) 1.4123(7)
H10A H 0.4258 0.7440 1.4259
C14A C 0.4526(6) 0.8605(4) 1.3544(6)
H11A H 0.5316 0.8331 1.3275
H13A H 0.5628 1.0857 1.2358
H14A H 0.6119 0.9825 1.2890
H21A H 0.614(5) 0.956(3) 1.034(5)
H23A H 0.521(5) 0.901(4) 1.050(6)
Zn1A Zn 1.07917(7) 0.18940(5) 1.39425(7)
O1A O 1.0291(4) 0.1835(3) 1.5920(5)
O2A O 1.2041(5) 0.2000(4) 1.7375(5)
C19A C 1.1018(8) 0.1834(5) 1.7190(8)
C20A C 1.0474(7) 0.1670(5) 1.8554(7)
H15A H 0.9664 0.1551 1.8197
H16A H 1.0984 0.1106 1.8959
H17A H 1.0430 0.2248 1.9372
O3A O 0.9755(5) 0.1203(4) 1.2284(5)
O4A O 0.8187(5) 0.2474(4) 1.2265(6)
C21A C 0.8694(8) 0.1620(6) 1.1757(7)
C22A C 0.8019(7) 0.0998(6) 1.0445(9)
H18A H 0.8535 0.0352 1.0177
H19A H 0.7282 0.0933 1.0783
H20A H 0.7811 0.1313 0.9539
Zn1A_2 Zn 0.07917(7) 1.18940(5) 1.39425(7)
N3A_2 N 1.2420(4) 0.0967(3) 1.3560(5)
O5 O 0.3037(12) 0.6051(8) -0.0738(12)
C23 C 0.3465(12) 0.6196(9) 0.0673(13)
H25 H 0.4195 0.6451 0.0783
H26 H 0.3664 0.5582 0.1055
H27 H 0.2868 0.6668 0.1271
O6 O 0.7083(8) 0.7259(6) -0.0547(7)
H28 H 0.6924 0.7609 -0.1220
C24 C 0.6304(12) 0.6671(9) -0.0816(16)
H29 H 0.6708 0.6008 -0.1242
H30 H 0.5623 0.6902 -0.1556
H31 H 0.6012 0.6672 0.0153
loop_
_geom_bond_atom_site_label_1
_geom_bond_atom_site_label_2
_geom_bond_site_symmetry_1
_geom_bond_site_symmetry_2
Zn1 N1 1_555 1_555
N1 C1 1_555 1_555
N2 C6 1_555 1_555
N3 Zn1 1_555 1_555
N4 C15 1_555 1_555
O1 Zn1 1_555 1_555
O2 C19 1_555 1_555
O3 Zn1 1_555 1_555
O4 C21 1_555 1_555
C1 C2 1_555 1_555
C2 H1 1_555 1_555
C3 C2 1_555 1_555
H2 C3 1_555 1_555
C4 C3 1_555 1_555
H3 C4 1_555 1_555
C5 C4 1_555 1_555
H4 C5 1_555 1_555
C6 C1 1_555 1_555
C7 N1 1_555 1_555
H5 C7 1_555 1_555
C8 N2 1_555 1_555
H6 C8 1_555 1_555
H7 C8 1_555 1_555
C9 C8 1_555 1_555
C10 N3 1_555 1_555
C11 C10 1_555 1_555
H8 C11 1_555 1_555
C12 C11 1_555 1_555
H9 C12 1_555 1_555
C13 C12 1_555 1_555
H10 C13 1_555 1_555
C14 C13 1_555 1_555
H11 C14 1_555 1_555
C15 C10 1_555 1_555
C16 N3 1_555 1_555
H12 C16 1_555 1_555
C17 N4 1_555 1_555
H13 C17 1_555 1_555
H14 C17 1_555 1_555
C18 C17 1_555 1_555
C19 O1 1_555 1_555
C20 C19 1_555 1_555
H15 C20 1_555 1_555
H16 C20 1_555 1_555
H17 C20 1_555 1_555
C21 O3 1_555 1_555
C22 C21 1_555 1_555
H18 C22 1_555 1_555
H19 C22 1_555 1_555
H20 C22 1_555 1_555
H21 C18 1_555 1_555
H22 C9 1_555 1_555
H23 C18 1_555 1_555
H24 C9 1_555 1_555
O5 C23 1_555 1_555
C23 H25 1_555 1_555
H26 C23 1_555 1_555
H27 C23 1_555 1_555
O6 H28 1_555 1_555
C24 O6 1_555 1_555
H29 C24 1_555 1_555
H30 C24 1_555 1_555
H31 C24 1_555 1_555
C9A C9 1_555 1_555
C8A C9A 1_555 1_555
N2A C8A 1_555 1_555
C6A N2A 1_555 1_555
C1A C6A 1_555 1_555
N1A C1A 1_555 1_555
C7A N2A 1_555 1_555
H5A C7A 1_555 1_555
C2A C1A 1_555 1_555
H1A C2A 1_555 1_555
C3A C2A 1_555 1_555
H2A C3A 1_555 1_555
C4A C3A 1_555 1_555
H3A C4A 1_555 1_555
C5A C6A 1_555 1_555
H4A C5A 1_555 1_555
H6A C8A 1_555 1_555
H7A C8A 1_555 1_555
H22A C9A 1_555 1_555
H24A C9A 1_555 1_555
C18A C18 1_555 1_555
C17A C18A 1_555 1_555
N4A C17A 1_555 1_555
C15A N4A 1_555 1_555
C10A C15A 1_555 1_555
N3A C10A 1_555 1_555
C16A N4A 1_555 1_555
H12A C16A 1_555 1_555
C11A C10A 1_555 1_555
H8A C11A 1_555 1_555
C12A C11A 1_555 1_555
H9A C12A 1_555 1_555
C13A C12A 1_555 1_555
H10A C13A 1_555 1_555
C14A C15A 1_555 1_555
H11A C14A 1_555 1_555
H13A C17A 1_555 1_555
H14A C17A 1_555 1_555
H21A C18A 1_555 1_555
H23A C18A 1_555 1_555
Zn1A N1A 1_555 1_555
O1A Zn1A 1_555 1_555
O2A C19A 1_555 1_555
C19A O1A 1_555 1_555
C20A C19A 1_555 1_555
H15A C20A 1_555 1_555
H16A C20A 1_555 1_555
H17A C20A 1_555 1_555
O3A Zn1A 1_555 1_555
O4A C21A 1_555 1_555
C21A O3A 1_555 1_555
C22A C21A 1_555 1_555
H18A C22A 1_555 1_555
H19A C22A 1_555 1_555
H20A C22A 1_555 1_555
Zn1A_2 N3A 1_555 1_555
N3A_2 Zn1A 1_555 1_555
N2 C7 1_555 1_555
N4 C16 1_555 1_555
C5 C6 1_555 1_555
C14 C15 1_555 1_555
N1A C7A 1_555 1_555
C4A C5A 1_555 1_555
N3A C16A 1_555 1_555
C13A C14A 1_555 1_555

#END
