
#######################################################################
#
#                 Cambridge Crystallographic Data Centre
#                                CCDC 
#
#######################################################################
#
# If this CIF has been generated from an entry in the Cambridge 
# Structural Database, then it will include bibliographic, chemical, 
# crystal, experimental, refinement or atomic coordinate data resulting 
# from the CCDC's data processing and validation procedures.
#
#######################################################################

data_ESUWIY
_symmetry_cell_setting           monoclinic
_symmetry_space_group_name_H-M   'P 21/n'
_symmetry_Int_Tables_number      14
_space_group_name_Hall           '-P 2yn'
loop_
_symmetry_equiv_pos_site_id
_symmetry_equiv_pos_as_xyz
1 x,y,z
2 1/2+x,1/2-y,1/2+z
3 -x,-y,-z
4 1/2-x,1/2+y,1/2-z
_cell_length_a                   12.100(3)
_cell_length_b                   11.228(3)
_cell_length_c                   14.902(3)
_cell_angle_alpha                90
_cell_angle_beta                 95.03(2)
_cell_angle_gamma                90
_cell_volume                     2016.77
loop_
_atom_site_label
_atom_site_type_symbol
_atom_site_fract_x
_atom_site_fract_y
_atom_site_fract_z
Mn1 Mn 0.59570(3) 0.49232(3) 0.79402(3)
Mn2 Mn 0.72547(3) 0.24024(3) 0.74417(3)
Mn3 Mn 0.0000 0.0000 0.5000
Mn4 Mn 0.5000 0.5000 0.5000
O1 O 0.58114(14) 0.35018(15) 0.69560(12)
O2 O 0.6835(2) 0.4892(2) 0.5424(2)
O3 O 0.4493(2) 0.3523(2) 0.58180(14)
O4 O 0.8571(2) 0.5919(2) 0.8258(2)
O5 O 0.76344(15) 0.4270(2) 0.79131(13)
O6 O 0.1120(2) -0.1098(2) 0.41675(12)
O7 O -0.1641(2) -0.2952(2) 0.62762(13)
O8 O 0.88045(15) 0.1471(2) 0.79331(12)
O9 O 1.0210(2) 0.1329(2) 0.89955(13)
O10 O 0.1392(2) 0.0394(2) 0.58963(13)
O11 O 0.0749(2) 0.0219(2) 0.72376(14)
O12 O 0.2049(2) -0.2726(2) 0.38128(13)
O13 O -0.0692(2) -0.1338(2) 0.59227(12)
C1 C 0.1483(2) 0.0498(2) 0.6735(2)
C2 C 0.2560(2) 0.0981(3) 0.7184(2)
H1 H 0.2413(2) 0.1346(3) 0.7752(2)
H2 H 0.3066(2) 0.0322(3) 0.7318(2)
C3 C 0.3120(2) 0.1889(3) 0.6624(2)
H3 H 0.2622(2) 0.2557(3) 0.6495(2)
H4 H 0.3269(2) 0.1531(3) 0.6055(2)
C4 C 0.4195(2) 0.2337(2) 0.7100(2)
H5 H 0.4655(2) 0.1654(2) 0.7276(2)
H6 H 0.4026(2) 0.2739(2) 0.7647(2)
C5 C 0.4861(2) 0.3170(2) 0.6572(2)
C6 C 0.9694(2) 0.1850(2) 0.8369(2)
C7 C 1.0174(3) 0.3034(3) 0.8058(2)
H7 H 0.9707(3) 0.3348(3) 0.7551(2)
H8 H 1.0910(3) 0.2902(3) 0.7867(2)
C8 C 1.0234(3) 0.3909(3) 0.8819(3)
H9 H 1.0701(3) 0.3587(3) 0.9324(3)
H10 H 1.0574(3) 0.4639(3) 0.8630(3)
C9 C 0.9087(3) 0.4193(3) 0.9126(2)
H11 H 0.9169(3) 0.4679(3) 0.9666(2)
H12 H 0.8718(3) 0.3459(3) 0.9269(2)
C10 C 0.8390(2) 0.4851(2) 0.8392(2)
C11 C 0.1571(2) -0.2103(2) 0.4357(2)
C12 C 0.1486(2) -0.2622(2) 0.5288(2)
H13 H 0.1320(2) -0.1994(2) 0.5703(2)
H14 H 0.2188(2) -0.2981(2) 0.5506(2)
C13 C 0.0565(3) -0.3567(2) 0.5245(2)
H15 H 0.0585(3) -0.3964(2) 0.5824(2)
H16 H 0.0722(3) -0.4160(2) 0.4800(2)
C14 C -0.0611(2) -0.3082(2) 0.5007(2)
H17 H -0.1110(2) -0.3739(2) 0.4844(2)
H18 H -0.0609(2) -0.2556(2) 0.4490(2)
C15 C -0.1026(2) -0.2410(2) 0.5786(2)
H19 H 0.6992(34) 0.4329(39) 0.5694(28)
H20 H 0.7151(43) 0.5419(48) 0.5778(35)
O6B O -0.1120(2) 0.1098(2) 0.58325(12)
O7B O 0.1641(2) 0.2952(2) 0.37238(13)
O12B O -0.2049(2) 0.2726(2) 0.61872(13)
O13B O 0.0692(2) 0.1338(2) 0.40773(12)
C11B C -0.1571(2) 0.2103(2) 0.5643(2)
C12B C -0.1486(2) 0.2622(2) 0.4712(2)
H13B H -0.1320(2) 0.1994(2) 0.4297(2)
H14B H -0.2188(2) 0.2981(2) 0.4494(2)
C13B C -0.0565(3) 0.3567(2) 0.4755(2)
H15B H -0.0585(3) 0.3964(2) 0.4176(2)
H16B H -0.0722(3) 0.4160(2) 0.5200(2)
C14B C 0.0611(2) 0.3082(2) 0.4993(2)
H17B H 0.1110(2) 0.3739(2) 0.5156(2)
H18B H 0.0609(2) 0.2556(2) 0.5510(2)
C15B C 0.1026(2) 0.2410(2) 0.4214(2)
O1B O -0.58114(14) -0.35018(15) 0.30440(12)
O3B O -0.4493(2) -0.3523(2) 0.41820(14)
O10B O -0.1392(2) -0.0394(2) 0.41037(13)
O11B O -0.0749(2) -0.0219(2) 0.27624(14)
C1B C -0.1483(2) -0.0498(2) 0.3265(2)
C2B C -0.2560(2) -0.0981(3) 0.2816(2)
H1B H -0.2413(2) -0.1346(3) 0.2248(2)
H2B H -0.3066(2) -0.0322(3) 0.2682(2)
C3B C -0.3120(2) -0.1889(3) 0.3376(2)
H3B H -0.2622(2) -0.2557(3) 0.3505(2)
H4B H -0.3269(2) -0.1531(3) 0.3945(2)
C4B C -0.4195(2) -0.2337(2) 0.2900(2)
H5B H -0.4655(2) -0.1654(2) 0.2724(2)
H6B H -0.4026(2) -0.2739(2) 0.2353(2)
C5B C -0.4861(2) -0.3170(2) 0.3428(2)
Mn1B Mn -0.59570(3) -0.49232(3) 0.20598(3)
Mn2B Mn -0.72547(3) -0.24024(3) 0.25583(3)
O4C O 0.6429(2) 1.0919(2) 0.6742(2)
O5C O 0.73656(15) 0.9270(2) 0.70869(13)
O8C O 0.61955(15) 0.6471(2) 0.70669(12)
O9C O 0.4790(2) 0.6329(2) 0.60045(13)
C6C C 0.5306(2) 0.6850(2) 0.6631(2)
C7C C 0.4826(3) 0.8034(3) 0.6942(2)
H7C H 0.5293(3) 0.8348(3) 0.7449(2)
H8C H 0.4090(3) 0.7902(3) 0.7133(2)
C8C C 0.4766(3) 0.8909(3) 0.6181(3)
H9C H 0.4299(3) 0.8587(3) 0.5676(3)
H10C H 0.4426(3) 0.9639(3) 0.6370(3)
C9C C 0.5913(3) 0.9193(3) 0.5874(2)
H11C H 0.5831(3) 0.9679(3) 0.5334(2)
H12C H 0.6282(3) 0.8459(3) 0.5731(2)
C10C C 0.6610(2) 0.9851(2) 0.6608(2)
O2B O 0.3165(2) 0.5108(2) 0.4576(2)
H19B H 0.3008(34) 0.5671(39) 0.4306(28)
H20B H 0.2849(43) 0.4581(48) 0.4222(35)
O6A O 0.6120(2) 0.6098(2) 0.91675(12)
O11C O 0.4251(2) 0.5219(2) 0.77624(14)
O13C O 0.5692(2) 0.3662(2) 0.90773(12)
O4C_2 O 0.6429(2) 0.0919(2) 0.6742(2)
O7C O 0.6641(2) 0.2048(2) 0.87238(13)
O12B_2 O 0.7951(2) 0.2726(2) 0.61872(13)
O3B_2 O 0.5507(2) 0.6477(2) 0.41820(14)
O9A O 0.5210(2) 0.3671(2) 0.39955(13)
Mn2C Mn 0.77453(3) 0.74024(3) 0.75583(3)
Mn1A Mn 0.09570(3) 0.00768(3) 0.29402(3)
Mn2C_2 Mn -0.22547(3) -0.25976(3) 0.75583(3)
Mn1C Mn 0.90430(3) -0.00768(3) 0.70598(3)
Mn4A Mn 1.0000 0.0000 1.0000
Mn1C_2 Mn -0.09570(3) -0.00768(3) 0.70598(3)
Mn2B_2 Mn 0.27453(3) -0.24024(3) 0.25583(3)
Mn2A Mn 0.22547(3) 0.25976(3) 0.24417(3)
Mn2_2 Mn -0.27453(3) 0.24024(3) 0.74417(3)
Mn4_2 Mn -0.5000 -0.5000 0.5000
O5B O -0.76344(15) -0.4270(2) 0.20869(13)
O6C O -0.6120(2) -0.6098(2) 0.08325(12)
O8A O -0.61955(15) -0.6471(2) 0.29331(12)
O11A O -0.4251(2) -0.5219(2) 0.22376(14)
O13A O -0.5692(2) -0.3662(2) 0.09227(12)
O4A O -0.6429(2) -0.0919(2) 0.3258(2)
O7A O -0.6641(2) -0.2048(2) 0.12762(13)
O8B O -0.88045(15) -0.1471(2) 0.20669(12)
O12_2 O -0.7951(2) -0.2726(2) 0.38128(13)
Mn2_3 Mn 0.72547(3) 1.24024(3) 0.74417(3)
Mn1C_3 Mn 0.90430(3) 0.99232(3) 0.70598(3)
loop_
_geom_bond_atom_site_label_1
_geom_bond_atom_site_label_2
_geom_bond_site_symmetry_1
_geom_bond_site_symmetry_2
Mn1 O1 1_555 1_555
Mn2 O1 1_555 1_555
Mn3 O6 1_555 1_555
Mn4 O2 1_555 1_555
O1 C5 1_555 1_555
O2 H19 1_555 1_555
O3 Mn4 1_555 1_555
O4 C10 1_555 1_555
O5 Mn1 1_555 1_555
O6 C11 1_555 1_555
O7 C15 1_555 1_555
O8 Mn2 1_555 1_555
O9 C6 1_555 1_555
O10 Mn3 1_555 1_555
O11 C1 1_555 1_555
O12 C11 1_555 1_555
O13 Mn3 1_555 1_555
C1 O10 1_555 1_555
C2 C1 1_555 1_555
H1 C2 1_555 1_555
H2 C2 1_555 1_555
C3 C2 1_555 1_555
H3 C3 1_555 1_555
H4 C3 1_555 1_555
C4 C3 1_555 1_555
H5 C4 1_555 1_555
H6 C4 1_555 1_555
C5 O3 1_555 1_555
C6 O8 1_555 1_555
C7 C6 1_555 1_555
H7 C7 1_555 1_555
H8 C7 1_555 1_555
C8 C7 1_555 1_555
H9 C8 1_555 1_555
H10 C8 1_555 1_555
C9 C8 1_555 1_555
H11 C9 1_555 1_555
H12 C9 1_555 1_555
C10 O5 1_555 1_555
C11 C12 1_555 1_555
C12 H13 1_555 1_555
H14 C12 1_555 1_555
C13 C12 1_555 1_555
H15 C13 1_555 1_555
H16 C13 1_555 1_555
C14 C13 1_555 1_555
H17 C14 1_555 1_555
H18 C14 1_555 1_555
C15 O13 1_555 1_555
H20 O2 1_555 1_555
O6B Mn3 1_555 1_555
O7B C15B 1_555 1_555
O12B C11B 1_555 1_555
O13B Mn3 1_555 1_555
C11B O6B 1_555 1_555
C12B C11B 1_555 1_555
H13B C12B 1_555 1_555
H14B C12B 1_555 1_555
C13B C12B 1_555 1_555
H15B C13B 1_555 1_555
H16B C13B 1_555 1_555
C14B C13B 1_555 1_555
H17B C14B 1_555 1_555
H18B C14B 1_555 1_555
C15B O13B 1_555 1_555
O1B C5B 1_555 1_555
O3B C5B 1_555 1_555
O10B Mn3 1_555 1_555
O11B C1B 1_555 1_555
C1B O10B 1_555 1_555
C2B C1B 1_555 1_555
H1B C2B 1_555 1_555
H2B C2B 1_555 1_555
C3B C2B 1_555 1_555
H3B C3B 1_555 1_555
H4B C3B 1_555 1_555
C4B C3B 1_555 1_555
H5B C4B 1_555 1_555
H6B C4B 1_555 1_555
C5B C4B 1_555 1_555
Mn1B O1B 1_555 1_555
Mn2B O1B 1_555 1_555
O4C C10C 1_555 1_555
O5C C10C 1_555 1_555
O8C Mn1 1_555 1_555
O9C Mn4 1_555 1_555
C6C O8C 1_555 1_555
C7C C6C 1_555 1_555
H7C C7C 1_555 1_555
H8C C7C 1_555 1_555
C8C C7C 1_555 1_555
H9C C8C 1_555 1_555
H10C C8C 1_555 1_555
C9C C8C 1_555 1_555
H11C C9C 1_555 1_555
H12C C9C 1_555 1_555
C10C C9C 1_555 1_555
O2B Mn4 1_555 1_555
H19B O2B 1_555 1_555
H20B O2B 1_555 1_555
O6A Mn1 1_555 1_555
O11C Mn1 1_555 1_555
O13C Mn1 1_555 1_555
O4C_2 Mn2 1_555 1_555
O7C Mn2 1_555 1_555
O12B_2 Mn2 1_555 1_555
O3B_2 Mn4 1_555 1_555
O9A Mn4 1_555 1_555
Mn2C O4 1_555 1_555
Mn1A O6 1_555 1_555
Mn2C_2 O7 1_555 1_555
Mn1C O8 1_555 1_555
Mn4A O9 1_555 1_555
Mn1C_2 O11 1_555 1_555
Mn2B_2 O12 1_555 1_555
Mn2A O7B 1_555 1_555
Mn2_2 O12B 1_555 1_555
Mn4_2 O3B 1_555 1_555
O5B Mn1B 1_555 1_555
O6C Mn1B 1_555 1_555
O8A Mn1B 1_555 1_555
O11A Mn1B 1_555 1_555
O13A Mn1B 1_555 1_555
O4A Mn2B 1_555 1_555
O7A Mn2B 1_555 1_555
O8B Mn2B 1_555 1_555
O12_2 Mn2B 1_555 1_555
Mn2_3 O4C 1_555 1_555
Mn1C_3 O5C 1_555 1_555
Mn2 O5 1_555 1_555
O13 Mn1C_2 1_555 1_555
C4 C5 1_555 1_555
C9 C10 1_555 1_555
C14 C15 1_555 1_555
O6B Mn1C_2 1_555 1_555
O13B Mn1A 1_555 1_555
C14B C15B 1_555 1_555
O11B Mn1A 1_555 1_555
Mn2B O5B 1_555 1_555
O5C Mn2C 1_555 1_555
O8C Mn2C 1_555 1_555
O9C C6C 1_555 1_555

#END
