
#######################################################################
#
#                 Cambridge Crystallographic Data Centre
#                                CCDC 
#
#######################################################################
#
# If this CIF has been generated from an entry in the Cambridge 
# Structural Database, then it will include bibliographic, chemical, 
# crystal, experimental, refinement or atomic coordinate data resulting 
# from the CCDC's data processing and validation procedures.
#
#######################################################################

data_ESUYOH
_symmetry_cell_setting           monoclinic
_symmetry_space_group_name_H-M   'P 21/c'
_symmetry_Int_Tables_number      14
_space_group_name_Hall           '-P 2ybc'
loop_
_symmetry_equiv_pos_site_id
_symmetry_equiv_pos_as_xyz
1 x,y,z
2 -x,1/2+y,1/2-z
3 -x,-y,-z
4 x,1/2-y,1/2+z
_cell_length_a                   15.523(4)
_cell_length_b                   6.623(3)
_cell_length_c                   19.232(5)
_cell_angle_alpha                90
_cell_angle_beta                 104.56(4)
_cell_angle_gamma                90
_cell_volume                     1913.72
loop_
_atom_site_label
_atom_site_type_symbol
_atom_site_fract_x
_atom_site_fract_y
_atom_site_fract_z
Co1 Co 0.27413(3) 0.19886(7) 0.01057(2)
S1 S 0.23321(5) 0.68900(13) -0.01880(4)
O1 O 0.29358(14) 0.5160(3) 0.01268(11)
O2 O 0.22390(15) 0.6997(4) -0.09598(11)
O3 O 0.27523(15) 0.8727(3) 0.01788(12)
O4 O 0.14602(15) 0.6565(3) -0.00306(12)
O5 O 0.02134(16) 0.0962(4) -0.42518(13)
H1 H -0.025(3) 0.119(6) -0.432(2)
O6 O 0.23471(14) 0.1896(3) -0.10019(11)
O7 O 0.53383(15) 0.1247(4) 0.44461(11)
H2 H 0.5895 0.1133 0.4566
O8 O 0.31670(15) 0.1991(4) 0.12076(11)
N1 N 0.09679(18) 0.1758(4) -0.08304(14)
H3 H 0.0404 0.1558 -0.0976
N2 N 0.13292(18) 0.2000(4) -0.00799(13)
H4 H 0.1120 0.3145 0.0012
H5 H 0.1193 0.0915 0.0114
N3 N 0.45237(18) 0.1466(4) 0.10164(13)
H6 H 0.5087 0.1246 0.1156
N4 N 0.41442(18) 0.1583(4) 0.02631(13)
H7 H 0.4433 0.2488 0.0094
H8 H 0.4205 0.0419 0.0083
C1 C 0.1135(2) 0.1568(5) -0.20411(17)
C2 C 0.1691(2) 0.0985(6) -0.24777(18)
H9 H 0.2300 0.0704 -0.2262
C3 C 0.1379(2) 0.0810(6) -0.32063(18)
H10 H 0.1770 0.0435 -0.3493
C4 C 0.0487(2) 0.1186(6) -0.35247(17)
C5 C -0.0087(2) 0.1774(5) -0.31036(17)
H11 H -0.0696 0.2046 -0.3319
C6 C 0.0246(2) 0.1951(5) -0.23747(18)
H12 H -0.0143 0.2348 -0.2089
C7 C 0.1517(2) 0.1750(5) -0.12655(17)
C8 C 0.4384(2) 0.1585(5) 0.22357(16)
C9 C 0.3800(2) 0.1341(5) 0.26813(17)
H13 H 0.3177 0.1270 0.2476
C10 C 0.4132(2) 0.1203(5) 0.34222(17)
H14 H 0.3738 0.1020 0.3724
C11 C 0.5053(2) 0.1338(5) 0.37198(17)
C12 C 0.5626(2) 0.1582(5) 0.32792(17)
H15 H 0.6248 0.1677 0.3485
C13 C 0.5300(2) 0.1689(5) 0.25456(17)
H16 H 0.5700 0.1835 0.2248
C14 C 0.3982(2) 0.1688(5) 0.14523(17)
Co1_2 Co 0.27413(3) 1.19886(7) 0.01057(2)
O3_2 O 0.27523(15) -0.1273(3) 0.01788(12)
O9 O 0.36754(15) 0.5910(4) 0.38228(12)
H17 H 0.3414 0.4825 0.3781
H18 H 0.3300 0.6762 0.3844
loop_
_geom_bond_atom_site_label_1
_geom_bond_atom_site_label_2
_geom_bond_site_symmetry_1
_geom_bond_site_symmetry_2
Co1 O1 1_555 1_555
S1 O1 1_555 1_555
O2 S1 1_555 1_555
O3 S1 1_555 1_555
O4 S1 1_555 1_555
O5 H1 1_555 1_555
O6 Co1 1_555 1_555
O7 H2 1_555 1_555
O8 Co1 1_555 1_555
N1 H3 1_555 1_555
N2 Co1 1_555 1_555
H4 N2 1_555 1_555
H5 N2 1_555 1_555
N3 H6 1_555 1_555
N4 Co1 1_555 1_555
H7 N4 1_555 1_555
H8 N4 1_555 1_555
C1 C2 1_555 1_555
C2 H9 1_555 1_555
C3 C2 1_555 1_555
H10 C3 1_555 1_555
C4 O5 1_555 1_555
C5 C4 1_555 1_555
H11 C5 1_555 1_555
C6 C1 1_555 1_555
H12 C6 1_555 1_555
C7 O6 1_555 1_555
C8 C9 1_555 1_555
C9 H13 1_555 1_555
C10 C9 1_555 1_555
H14 C10 1_555 1_555
C11 O7 1_555 1_555
C12 C11 1_555 1_555
H15 C12 1_555 1_555
C13 C8 1_555 1_555
H16 C13 1_555 1_555
C14 O8 1_555 1_555
O9 H17 1_555 1_555
H18 O9 1_555 1_555
Co1_2 O3 1_555 1_555
O3_2 Co1 1_555 1_555
N1 N2 1_555 1_555
N1 C7 1_555 1_555
N3 N4 1_555 1_555
N3 C14 1_555 1_555
C1 C7 1_555 1_555
C3 C4 1_555 1_555
C5 C6 1_555 1_555
C8 C14 1_555 1_555
C10 C11 1_555 1_555
C12 C13 1_555 1_555

#END
