
#######################################################################
#
#                 Cambridge Crystallographic Data Centre
#                                CCDC 
#
#######################################################################
#
# If this CIF has been generated from an entry in the Cambridge 
# Structural Database, then it will include bibliographic, chemical, 
# crystal, experimental, refinement or atomic coordinate data resulting 
# from the CCDC's data processing and validation procedures.
#
#######################################################################

data_ESUZIC
_symmetry_cell_setting           monoclinic
_symmetry_space_group_name_H-M   'P 21'
_symmetry_Int_Tables_number      4
_space_group_name_Hall           'P 2yb'
loop_
_symmetry_equiv_pos_site_id
_symmetry_equiv_pos_as_xyz
1 x,y,z
2 -x,1/2+y,-z
_cell_length_a                   11.009(2)
_cell_length_b                   10.857(2)
_cell_length_c                   13.715(3)
_cell_angle_alpha                90
_cell_angle_beta                 94.61(3)
_cell_angle_gamma                90
_cell_volume                     1633.98
loop_
_atom_site_label
_atom_site_type_symbol
_atom_site_fract_x
_atom_site_fract_y
_atom_site_fract_z
Co1 Co 0.75644(12) 0.59566(12) 0.11596(9)
Co2 Co 0.30544(13) 0.32245(13) 0.47722(10)
O1 O 0.7323(6) 0.5744(7) 0.2725(5)
O2 O 0.6305(6) 0.4629(7) 0.3783(5)
O3 O 0.5088(7) 0.1786(7) 0.3403(5)
O4 O 0.3782(6) 0.3396(7) 0.3371(5)
O5 O 0.3696(6) 0.2376(7) -0.0938(5)
O6 O 0.5582(6) 0.1518(6) -0.0796(5)
O7 O 0.5907(6) 0.4337(7) -0.1353(5)
O8 O 0.7190(6) 0.5447(6) -0.0363(5)
O9 O 0.4678(6) 0.4090(7) 0.5237(5)
H1 H 0.5138 0.4339 0.4803
H2 H 0.5049 0.3797 0.5763
O10 O 0.3668(7) 0.1445(7) 0.4871(6)
H3 H 0.3827 0.0902 0.5313
H4 H 0.4143 0.1455 0.4400
O11 O 0.2520(6) 0.3115(7) 0.6274(5)
H5 H 0.2541 0.2383 0.6505
H6 H 0.2897 0.3670 0.6635
N1 N 0.6332(7) 0.4539(7) 0.1229(6)
N2 N 0.9181(8) 0.4821(8) 0.1169(6)
N3 N 0.8981(7) 0.7240(8) 0.1329(5)
N4 N 0.2099(9) 0.4921(9) 0.4528(7)
N5 N 0.1314(8) 0.2639(9) 0.4128(6)
C1 C 0.6562(9) 0.4892(10) 0.2955(7)
C2 C 0.5995(8) 0.4172(9) 0.2090(7)
C3 C 0.5147(8) 0.3250(10) 0.2117(6)
C4 C 0.4713(9) 0.2638(9) 0.1252(8)
H7 H 0.4155 0.1998 0.1275
C5 C 0.5127(8) 0.3002(10) 0.0359(7)
C6 C 0.5923(8) 0.4032(9) 0.0362(7)
C7 C 0.6360(10) 0.4626(11) -0.0546(8)
C8 C 0.4661(10) 0.2767(11) 0.3084(8)
C9 C 0.4767(9) 0.2243(9) -0.0574(7)
C10 C 0.9215(11) 0.3616(10) 0.1027(8)
H8 H 0.8477 0.3197 0.0938
C11 C 1.0273(12) 0.2942(11) 0.1001(8)
H9 H 1.0253 0.2098 0.0882
C12 C 1.1373(11) 0.3571(13) 0.1159(9)
H10 H 1.2110 0.3151 0.1170
C13 C 1.1351(11) 0.4853(14) 0.1303(9)
H11 H 1.2071 0.5298 0.1409
C14 C 1.0240(10) 0.5433(10) 0.1282(8)
C15 C 1.0137(10) 0.6799(10) 0.1387(7)
C16 C 1.1144(10) 0.7594(12) 0.1523(8)
H12 H 1.1933 0.7281 0.1576
C17 C 1.0942(11) 0.8849(12) 0.1577(9)
H13 H 1.1593 0.9393 0.1678
C18 C 0.9793(11) 0.9270(10) 0.1483(8)
H14 H 0.9648 1.0113 0.1506
C19 C 0.8810(9) 0.8451(10) 0.1351(8)
H15 H 0.8021 0.8762 0.1276
C20 C 0.2569(10) 0.6025(13) 0.4732(8)
H16 H 0.3340 0.6087 0.5059
C21 C 0.1926(13) 0.7091(13) 0.4462(10)
H17 H 0.2298 0.7855 0.4560
C22 C 0.0745(14) 0.7026(13) 0.4053(10)
H18 H 0.0286 0.7733 0.3913
C23 C 0.0268(10) 0.5863(13) 0.3858(9)
H19 H -0.0526 0.5775 0.3581
C24 C 0.0969(11) 0.4850(12) 0.4074(8)
C25 C 0.0520(10) 0.3549(12) 0.3911(8)
C26 C -0.0649(11) 0.3334(14) 0.3489(9)
H20 H -0.1169 0.3991 0.3326
C27 C -0.1039(13) 0.2130(17) 0.3311(10)
H21 H -0.1824 0.1964 0.3041
C28 C -0.0213(14) 0.1179(15) 0.3552(10)
H22 H -0.0438 0.0366 0.3425
C29 C 0.0941(13) 0.1443(11) 0.3981(9)
H23 H 0.1468 0.0802 0.4171
Co1A Co 0.24356(12) 0.09566(12) -0.11596(9)
O5A O 0.6304(6) 0.7376(7) 0.0938(5)
O12 O 0.3822(7) 0.6037(8) 0.2658(5)
H24 H 0.3792 0.5273 0.2844
H25 H 0.4299 0.6186 0.2208
O13 O 0.6369(6) -0.0053(7) 0.2465(6)
H26 H 0.6272 0.0661 0.2734
H27 H 0.5750 -0.0329 0.2113
O14 O 0.6205(7) 0.3527(9) 0.6773(6)
H28 H 0.6066 0.2738 0.6829
H29 H 0.6213 0.3921 0.7321
O15 O 0.7470(7) 0.1197(8) 0.0813(6)
H30 H 0.6895 0.0979 0.0357
H31 H 0.7359 0.0503 0.1157
loop_
_geom_bond_atom_site_label_1
_geom_bond_atom_site_label_2
_geom_bond_site_symmetry_1
_geom_bond_site_symmetry_2
Co1 O1 1_555 1_555
Co2 O4 1_555 1_555
O1 C1 1_555 1_555
O2 C1 1_555 1_555
O3 C8 1_555 1_555
O4 C8 1_555 1_555
O5 C9 1_555 1_555
O6 C9 1_555 1_555
O7 C7 1_555 1_555
O8 Co1 1_555 1_555
O9 Co2 1_555 1_555
H1 O9 1_555 1_555
H2 O9 1_555 1_555
O10 Co2 1_555 1_555
H3 O10 1_555 1_555
H4 O10 1_555 1_555
O11 Co2 1_555 1_555
H5 O11 1_555 1_555
H6 O11 1_555 1_555
N1 Co1 1_555 1_555
N2 Co1 1_555 1_555
N3 Co1 1_555 1_555
N4 Co2 1_555 1_555
N5 Co2 1_555 1_555
C1 C2 1_555 1_555
C2 N1 1_555 1_555
C3 C2 1_555 1_555
C4 C3 1_555 1_555
H7 C4 1_555 1_555
C5 C4 1_555 1_555
C6 N1 1_555 1_555
C7 O8 1_555 1_555
C8 C3 1_555 1_555
C9 C5 1_555 1_555
C10 N2 1_555 1_555
H8 C10 1_555 1_555
C11 C10 1_555 1_555
H9 C11 1_555 1_555
C12 C11 1_555 1_555
H10 C12 1_555 1_555
C13 C12 1_555 1_555
H11 C13 1_555 1_555
C14 N2 1_555 1_555
C15 N3 1_555 1_555
C16 C15 1_555 1_555
H12 C16 1_555 1_555
C17 C16 1_555 1_555
H13 C17 1_555 1_555
C18 C17 1_555 1_555
H14 C18 1_555 1_555
C19 N3 1_555 1_555
H15 C19 1_555 1_555
C20 N4 1_555 1_555
H16 C20 1_555 1_555
C21 C20 1_555 1_555
H17 C21 1_555 1_555
C22 C21 1_555 1_555
H18 C22 1_555 1_555
C23 C22 1_555 1_555
H19 C23 1_555 1_555
C24 N4 1_555 1_555
C25 N5 1_555 1_555
C26 C25 1_555 1_555
H20 C26 1_555 1_555
C27 C26 1_555 1_555
H21 C27 1_555 1_555
C28 C27 1_555 1_555
H22 C28 1_555 1_555
C29 N5 1_555 1_555
H23 C29 1_555 1_555
O12 H24 1_555 1_555
H25 O12 1_555 1_555
O13 H26 1_555 1_555
H27 O13 1_555 1_555
O14 H28 1_555 1_555
H29 O14 1_555 1_555
O15 H30 1_555 1_555
H31 O15 1_555 1_555
Co1A O5 1_555 1_555
O5A Co1 1_555 1_555
C5 C6 1_555 1_555
C6 C7 1_555 1_555
C13 C14 1_555 1_555
C14 C15 1_555 1_555
C18 C19 1_555 1_555
C23 C24 1_555 1_555
C24 C25 1_555 1_555
C28 C29 1_555 1_555

#END
