
#######################################################################
#
#                 Cambridge Crystallographic Data Centre
#                                CCDC 
#
#######################################################################
#
# If this CIF has been generated from an entry in the Cambridge 
# Structural Database, then it will include bibliographic, chemical, 
# crystal, experimental, refinement or atomic coordinate data resulting 
# from the CCDC's data processing and validation procedures.
#
#######################################################################

data_ESUZAU
_symmetry_cell_setting           triclinic
_symmetry_space_group_name_H-M   'P -1'
_symmetry_Int_Tables_number      2
_space_group_name_Hall           '-P 1'
loop_
_symmetry_equiv_pos_site_id
_symmetry_equiv_pos_as_xyz
1 x,y,z
2 -x,-y,-z
_cell_length_a                   10.0901(12)
_cell_length_b                   10.5899(13)
_cell_length_c                   10.9402(15)
_cell_angle_alpha                71.280(2)
_cell_angle_beta                 72.040(2)
_cell_angle_gamma                65.82
_cell_volume                     988.62
loop_
_atom_site_label
_atom_site_type_symbol
_atom_site_fract_x
_atom_site_fract_y
_atom_site_fract_z
Y1 Y 0.54011(18) 0.44086(17) 0.33807(17)
O1 O 0.5950(13) 0.2390(12) 0.2633(13)
O2 O 0.6241(14) 0.0069(13) 0.3632(12)
O3 O 0.4050(13) -0.2346(11) 0.4828(12)
O4 O 0.4670(14) -0.3046(13) 0.2903(12)
O5 O -0.3488(12) 0.4955(12) 0.4703(11)
O6 O -0.2107(16) 0.6250(15) 0.4517(15)
O7 O -0.3820(14) 0.5175(13) 0.1098(13)
O8 O -0.2150(15) 0.5190(15) -0.0788(14)
H1 H -0.2878 0.5761 -0.1090
O9 O 0.3213(14) 0.5108(13) 0.2621(12)
H2 H 0.2318 0.5634 0.2834
H3 H 0.3331 0.4973 0.1864
N1 N 0.3350(15) 0.0428(13) 0.3685(14)
N2 N -0.1738(15) 0.3814(14) 0.2631(14)
C1 C 0.5465(19) 0.1340(18) 0.3168(17)
C2 C 0.3852(19) 0.1719(17) 0.3140(18)
H4 H 0.3714 0.2133 0.2239
H5 H 0.3235 0.2426 0.3656
C3 C 0.4014(18) -0.0573(16) 0.2769(16)
H6 H 0.4953 -0.0488 0.2237
H7 H 0.3353 -0.0329 0.2182
C4 C 0.4260(18) -0.2106(17) 0.3573(17)
C5 C 0.1646(19) 0.0886(18) 0.4077(17)
H8 H 0.1357 0.0066 0.4253
H9 H 0.1312 0.1222 0.4884
C6 C 0.088(2) 0.204(2) 0.302(2)
H10 H 0.1235 0.1724 0.2204
H11 H 0.1133 0.2880 0.2868
C7 C -0.0796(18) 0.2439(17) 0.3410(17)
H12 H -0.1097 0.2491 0.4329
H13 H -0.1039 0.1667 0.3348
C8 C -0.130(2) 0.372(2) 0.1239(18)
H14 H -0.1129 0.2769 0.1189
H15 H -0.0374 0.3909 0.0844
C9 C -0.253(2) 0.482(2) 0.045(2)
C10 C -0.1574(19) 0.5085(18) 0.2792(16)
H16 H -0.1932 0.5889 0.2093
H17 H -0.0529 0.4907 0.2698
C11 C -0.2404(19) 0.5462(17) 0.4104(17)
Y1A Y 0.45989(18) -0.44086(17) 0.66193(17)
Y1_2 Y 0.54011(18) -0.55914(17) 0.33807(17)
Y1_3 Y -0.45989(18) 0.44086(17) 0.33807(17)
Y1A_2 Y -0.54011(18) 0.55914(17) 0.66193(17)
O3A O 0.5950(13) 0.2346(11) 0.5172(12)
O4_2 O 0.4670(14) 0.6954(13) 0.2903(12)
O5_2 O 0.6512(12) 0.4955(12) 0.4703(11)
O5A O 0.3488(12) 0.5045(12) 0.5297(11)
O7_2 O 0.6180(14) 0.5175(13) 0.1098(13)
N2_2 N 0.8262(15) 0.3814(14) 0.2631(14)
O10 O 0.608(2) 0.219(2) -0.0027(18)
H18 H 0.6086 0.2293 0.0711
H19 H 0.5195 0.2604 -0.0149
O11 O 0.0526(17) 0.6875(17) 0.3656(16)
H20 H -0.0184 0.6646 0.4213
H21 H 0.0163 0.7794 0.3432
O12 O 0.158(4) 1.011(4) 0.059(4)
H22 H 0.2154 0.9284 0.0869
H23 H 0.1162 1.0041 0.0052
O13 O 0.091(4) 0.073(4) 0.808(3)
H24 H 0.1679 0.0137 0.7729
H25 H 0.1183 0.1315 0.8240
loop_
_geom_bond_atom_site_label_1
_geom_bond_atom_site_label_2
_geom_bond_site_symmetry_1
_geom_bond_site_symmetry_2
Y1 O1 1_555 1_555
O1 C1 1_555 1_555
O2 C1 1_555 1_555
O3 C4 1_555 1_555
O4 C4 1_555 1_555
O5 C11 1_555 1_555
O6 C11 1_555 1_555
O7 C9 1_555 1_555
O8 H1 1_555 1_555
O9 Y1 1_555 1_555
H2 O9 1_555 1_555
H3 O9 1_555 1_555
N1 C2 1_555 1_555
N2 C7 1_555 1_555
C1 C2 1_555 1_555
C2 H4 1_555 1_555
H5 C2 1_555 1_555
C3 N1 1_555 1_555
H6 C3 1_555 1_555
H7 C3 1_555 1_555
C4 C3 1_555 1_555
C5 N1 1_555 1_555
H8 C5 1_555 1_555
H9 C5 1_555 1_555
C6 C5 1_555 1_555
H10 C6 1_555 1_555
H11 C6 1_555 1_555
C7 C6 1_555 1_555
H12 C7 1_555 1_555
H13 C7 1_555 1_555
C8 N2 1_555 1_555
H14 C8 1_555 1_555
H15 C8 1_555 1_555
C9 O8 1_555 1_555
C10 N2 1_555 1_555
H16 C10 1_555 1_555
H17 C10 1_555 1_555
C11 C10 1_555 1_555
O10 H18 1_555 1_555
H19 O10 1_555 1_555
O11 H20 1_555 1_555
H21 O11 1_555 1_555
O12 H22 1_555 1_555
H23 O12 1_555 1_555
O13 H24 1_555 1_555
H25 O13 1_555 1_555
Y1A O3 1_555 1_555
Y1_2 O4 1_555 1_555
Y1_3 O5 1_555 1_555
Y1A_2 O5 1_555 1_555
O3A Y1 1_555 1_555
O4_2 Y1 1_555 1_555
O5_2 Y1 1_555 1_555
O5A Y1 1_555 1_555
O7_2 Y1 1_555 1_555
N2_2 Y1 1_555 1_555
O7 Y1_3 1_555 1_555
N2 Y1_3 1_555 1_555
C8 C9 1_555 1_555

#END
