
#######################################################################
#
#                 Cambridge Crystallographic Data Centre
#                                CCDC 
#
#######################################################################
#
# If this CIF has been generated from an entry in the Cambridge 
# Structural Database, then it will include bibliographic, chemical, 
# crystal, experimental, refinement or atomic coordinate data resulting 
# from the CCDC's data processing and validation procedures.
#
#######################################################################

data_ETACHG
_symmetry_cell_setting           monoclinic
_symmetry_space_group_name_H-M   'P 21/c'
_symmetry_Int_Tables_number      14
_space_group_name_Hall           '-P 2ybc'
loop_
_symmetry_equiv_pos_site_id
_symmetry_equiv_pos_as_xyz
1 x,y,z
2 -x,1/2+y,1/2-z
3 -x,-y,-z
4 x,1/2-y,1/2+z
_cell_length_a                   9.344(2)
_cell_length_b                   17.917(9)
_cell_length_c                   7.179(2)
_cell_angle_alpha                90
_cell_angle_beta                 106.24(3)
_cell_angle_gamma                90
_cell_volume                     1153.93
loop_
_atom_site_label
_atom_site_type_symbol
_atom_site_fract_x
_atom_site_fract_y
_atom_site_fract_z
Hg1 Hg 0.08895 0.22695 0.32696
S1 S 0.04990 0.16540 0.60770
C1 C 0.21790 0.11240 0.70690
C2 C 0.22570 0.04210 0.59560
O1 O 0.22560 0.14500 0.17290
O2 O 0.37690 0.21390 0.38980
C3 C 0.35570 0.16830 0.25900
C4 C 0.48810 0.13340 0.20630
N1 N -0.13400 0.16320 0.06160
C5 C -0.24330 0.19670 -0.06130
C6 C -0.34630 0.16360 -0.21610
C7 C -0.33340 0.08760 -0.22730
C8 C -0.22020 0.04870 -0.09850
C9 C -0.12330 0.08800 0.05000
Hg1C Hg 0.08895 0.27305 0.82696
Hg1C_2 Hg 0.08895 0.27305 -0.17304
S1C S 0.04990 0.33460 0.10770
Hg1_2 Hg 0.08895 0.22695 1.32696
S1C_2 S 0.04990 0.33460 1.10770
O1C O 0.22560 0.35500 0.67290
O2C O 0.37690 0.28610 0.88980
N1C N -0.13400 0.33680 0.56160
C1C C 0.21790 0.38760 0.20690
C3C C 0.35570 0.33170 0.75900
C5C C -0.24330 0.30330 0.43870
C9C C -0.12330 0.41200 0.55000
C2C C 0.22570 0.45790 0.09560
C4C C 0.48810 0.36660 0.70630
C6C C -0.34630 0.33640 0.28390
C8C C -0.22020 0.45130 0.40150
C7C C -0.33340 0.41240 0.27270
loop_
_geom_bond_atom_site_label_1
_geom_bond_atom_site_label_2
_geom_bond_site_symmetry_1
_geom_bond_site_symmetry_2
Hg1 S1 1_555 1_555
S1 C1 1_555 1_555
C1 C2 1_555 1_555
O1 Hg1 1_555 1_555
O2 Hg1 1_555 1_555
C3 O1 1_555 1_555
C4 C3 1_555 1_555
N1 Hg1 1_555 1_555
C5 N1 1_555 1_555
C6 C5 1_555 1_555
C7 C6 1_555 1_555
C8 C7 1_555 1_555
C9 N1 1_555 1_555
Hg1C Hg1 1_555 1_555
Hg1C_2 Hg1 1_555 1_555
S1C Hg1 1_555 1_555
Hg1_2 Hg1C 1_555 1_555
S1C_2 Hg1C 1_555 1_555
O1C Hg1C 1_555 1_555
O2C Hg1C 1_555 1_555
N1C Hg1C 1_555 1_555
C1C S1C 1_555 1_555
C3C O1C 1_555 1_555
C5C N1C 1_555 1_555
C9C N1C 1_555 1_555
C2C C1C 1_555 1_555
C4C C3C 1_555 1_555
C6C C5C 1_555 1_555
C8C C9C 1_555 1_555
C7C C6C 1_555 1_555
S1 Hg1C 1_555 1_555
O2 C3 1_555 1_555
C8 C9 1_555 1_555
Hg1C_2 S1C 1_555 1_555
O2C C3C 1_555 1_555
C8C C7C 1_555 1_555

#END
