
#######################################################################
#
#                 Cambridge Crystallographic Data Centre
#                                CCDC 
#
#######################################################################
#
# If this CIF has been generated from an entry in the Cambridge 
# Structural Database, then it will include bibliographic, chemical, 
# crystal, experimental, refinement or atomic coordinate data resulting 
# from the CCDC's data processing and validation procedures.
#
#######################################################################

data_ETAJUF
_symmetry_cell_setting           orthorhombic
_symmetry_space_group_name_H-M   'P n m a'
_symmetry_Int_Tables_number      62
_space_group_name_Hall           '-P 2ac 2n'
loop_
_symmetry_equiv_pos_site_id
_symmetry_equiv_pos_as_xyz
1 x,y,z
2 1/2-x,-y,1/2+z
3 1/2+x,1/2-y,1/2-z
4 -x,1/2+y,-z
5 -x,-y,-z
6 1/2+x,y,1/2-z
7 1/2-x,1/2+y,1/2+z
8 x,1/2-y,z
_cell_length_a                   13.2702(13)
_cell_length_b                   15.4492(15)
_cell_length_c                   9.5815(9)
_cell_angle_alpha                90
_cell_angle_beta                 90
_cell_angle_gamma                90
_cell_volume                     1964.34
loop_
_atom_site_label
_atom_site_type_symbol
_atom_site_fract_x
_atom_site_fract_y
_atom_site_fract_z
C1 C 0.2558(4) 0.2500 1.5537(5)
H1 H 0.2338 0.2500 1.4615
Zn1 Zn 0.49276(4) 0.2500 1.19697(6)
O1 O 0.4441(3) 0.2500 2.0035(4)
C2 C 0.2182(4) 0.2500 1.7974(6)
H2 H 0.1709 0.2500 1.8691
C3 C 0.4332(4) 0.2500 1.4635(6)
C4 C 0.3202(4) 0.2500 1.8282(5)
O2 O 0.5234(3) 0.2500 1.4841(4)
C5 C 0.3530(4) 0.2500 1.9786(5)
N1 N 0.5815(3) 0.3557(2) 1.1776(3)
C6 C 0.3898(4) 0.2500 1.7204(5)
H3 H 0.4583 0.2500 1.7409
O3 O 0.3929(3) 0.2500 1.3422(4)
C7 C 0.3582(4) 0.2500 1.5817(5)
N2 N 0.7026(3) 0.4488(3) 1.1702(4)
C8 C 0.1867(4) 0.2500 1.6591(6)
H4 H 0.1183 0.2500 1.6383
C9 C 0.8008(4) 0.4921(4) 1.1835(6)
H5 H 0.8360 0.4698 1.2646
H6 H 0.7905 0.5537 1.1970
C10 C 0.6705(3) 0.3772(3) 1.2299(4)
H7 H 0.7050 0.3464 1.2983
C11 C 0.9690(4) 0.5109(4) 1.0623(6)
H8 H 0.9671 0.5733 1.0726
H9 H 1.0015 0.4872 1.1445
N3 N 0.6349(3) 0.4763(3) 1.0736(5)
O4 O 0.2905(4) 0.2500 2.0683(5)
C12 C 0.8635(4) 0.4778(4) 1.0563(6)
H10 H 0.8659 0.4161 1.0378
H11 H 0.8299 0.5050 0.9778
C13 C 0.5638(4) 0.4173(3) 1.0817(6)
H12 H 0.5064 0.4181 1.0260
Zn1_2 Zn 0.49276(4) 0.2500 2.19697(6)
Zn1C Zn 1.50724(4) 0.7500 0.80303(6)
O1_2 O 0.4441(3) 0.2500 1.0035(4)
N1D N 1.4185(3) 0.6443(2) 0.8224(3)
N1G N 0.5815(3) 0.1443(2) 1.1776(3)
N2D N 1.2974(3) 0.5512(3) 0.8298(4)
C9D C 1.1992(4) 0.5079(4) 0.8165(6)
H5D H 1.1640 0.5302 0.7354
H6D H 1.2095 0.4463 0.8030
C10D C 1.3295(3) 0.6228(3) 0.7701(4)
H7D H 1.2950 0.6536 0.7017
C11D C 1.0310(4) 0.4891(4) 0.9377(6)
H8D H 1.0329 0.4267 0.9274
H9D H 0.9985 0.5128 0.8555
N3D N 1.3651(3) 0.5237(3) 0.9264(5)
C12D C 1.1365(4) 0.5222(4) 0.9437(6)
H10D H 1.1341 0.5839 0.9622
H11D H 1.1701 0.4950 1.0222
C13D C 1.4362(4) 0.5827(3) 0.9183(6)
H12D H 1.4936 0.5819 0.9740
loop_
_geom_bond_atom_site_label_1
_geom_bond_atom_site_label_2
_geom_bond_site_symmetry_1
_geom_bond_site_symmetry_2
C1 H1 1_555 1_555
Zn1 N1 1_555 1_555
O1 C5 1_555 1_555
C2 H2 1_555 1_555
C3 O2 1_555 1_555
C4 C2 1_555 1_555
C5 C4 1_555 1_555
N1 C10 1_555 1_555
C6 C4 1_555 1_555
H3 C6 1_555 1_555
O3 Zn1 1_555 1_555
C7 C1 1_555 1_555
N2 C9 1_555 1_555
C8 C1 1_555 1_555
H4 C8 1_555 1_555
C9 H5 1_555 1_555
H6 C9 1_555 1_555
C10 N2 1_555 1_555
H7 C10 1_555 1_555
C11 H8 1_555 1_555
H9 C11 1_555 1_555
N3 N2 1_555 1_555
O4 C5 1_555 1_555
C12 C9 1_555 1_555
H10 C12 1_555 1_555
H11 C12 1_555 1_555
C13 N1 1_555 1_555
H12 C13 1_555 1_555
Zn1_2 O1 1_555 1_555
Zn1C N1D 1_555 1_555
O1_2 Zn1 1_555 1_555
N1D C10D 1_555 1_555
N1G Zn1 1_555 1_555
N2D C9D 1_555 1_555
C9D H5D 1_555 1_555
H6D C9D 1_555 1_555
C10D N2D 1_555 1_555
H7D C10D 1_555 1_555
C11D C11 1_555 1_555
H8D C11D 1_555 1_555
H9D C11D 1_555 1_555
N3D N2D 1_555 1_555
C12D C9D 1_555 1_555
H10D C12D 1_555 1_555
H11D C12D 1_555 1_555
C13D N1D 1_555 1_555
H12D C13D 1_555 1_555
C2 C8 1_555 1_555
C3 O3 1_555 1_555
C3 C7 1_555 1_555
C6 C7 1_555 1_555
C11 C12 1_555 1_555
N3 C13 1_555 1_555
C11D C12D 1_555 1_555
N3D C13D 1_555 1_555

#END
