
#######################################################################
#
#                 Cambridge Crystallographic Data Centre
#                                CCDC 
#
#######################################################################
#
# If this CIF has been generated from an entry in the Cambridge 
# Structural Database, then it will include bibliographic, chemical, 
# crystal, experimental, refinement or atomic coordinate data resulting 
# from the CCDC's data processing and validation procedures.
#
#######################################################################

data_ETAKIU
_symmetry_cell_setting           monoclinic
_symmetry_space_group_name_H-M   'P 21/c'
_symmetry_Int_Tables_number      14
_space_group_name_Hall           '-P 2ybc'
loop_
_symmetry_equiv_pos_site_id
_symmetry_equiv_pos_as_xyz
1 x,y,z
2 -x,1/2+y,1/2-z
3 -x,-y,-z
4 x,1/2-y,1/2+z
_cell_length_a                   6.130(2)
_cell_length_b                   9.252(3)
_cell_length_c                   25.154(8)
_cell_angle_alpha                90
_cell_angle_beta                 96.825(4)
_cell_angle_gamma                90
_cell_volume                     1416.49
loop_
_atom_site_label
_atom_site_type_symbol
_atom_site_fract_x
_atom_site_fract_y
_atom_site_fract_z
Zn1 Zn 0.04185(6) 0.39142(4) 0.280234(15)
O1 O -0.0446(4) 0.6002(2) 0.26839(9)
O2 O -0.1787(4) 0.8177(2) 0.28176(10)
N1 N -0.0708(5) 0.2729(3) 0.33943(11)
O3 O -0.2858(4) 0.3596(3) 0.22812(12)
O4 O -0.5332(4) 0.5762(2) 0.27448(9)
O5 O -0.6851(4) 0.4417(3) 0.33363(10)
C1 C -0.1800(5) 0.6502(3) 0.35201(13)
C2 C -0.1360(5) 0.6890(3) 0.29616(13)
C3 C -0.5416(5) 0.5285(3) 0.32072(14)
C4 C -0.3685(5) 0.5772(4) 0.36440(14)
N2 N -0.2317(6) 0.1156(3) 0.38513(14)
C5 C -0.2076(7) 0.1614(4) 0.33677(15)
H1 H -0.2766 0.1215 0.3052
C6 C -0.2360(8) 0.5945(5) 0.45823(17)
H2 H -0.2561 0.5773 0.4937
N3 N -0.1107(7) 0.1978(4) 0.42240(13)
C7 C -0.0166(7) 0.2905(5) 0.39274(15)
H3 H 0.0790 0.3622 0.4072
C8 C -0.0207(6) 0.6911(4) 0.39331(15)
H4 H 0.1056 0.7378 0.3852
C9 C -0.3935(6) 0.5515(5) 0.41802(15)
H5 H -0.5188 0.5045 0.4266
C10 C -0.3651(9) -0.0078(5) 0.4005(2)
H6 H -0.4103 -0.0657 0.3689
H7 H -0.2747 -0.0682 0.4258
C11 C -0.0474(7) 0.6633(5) 0.44631(16)
H8 H 0.0606 0.6906 0.4736
C12 C -0.5608(11) 0.0368(8) 0.4244(3)
H9 H -0.6229 0.1210 0.4053
H10 H -0.6687 -0.0402 0.4191
C13 C -0.5265(19) 0.0716(10) 0.4817(4)
H11 H -0.6571 0.1182 0.4919
H12 H -0.4053 0.1391 0.4884
H13 H -0.351(16) 0.279(6) 0.226(4)
H14 H -0.375(14) 0.425(8) 0.236(5)
Zn1A Zn -0.04185(6) -0.10858(4) 0.219766(15)
Zn1A_2 Zn -0.04185(6) 0.89142(4) 0.219766(15)
Zn1_2 Zn -0.95815(6) 0.39142(4) 0.280234(15)
Zn1B Zn -1.04185(6) -0.39142(4) 0.719766(15)
Zn1A_3 Zn 0.95815(6) -0.10858(4) 0.219766(15)
O1A O 0.0446(4) 0.1002(2) 0.23161(9)
O2A O 0.1787(4) 0.3177(2) 0.21824(10)
O2_2 O -0.1787(4) -0.1823(2) 0.28176(10)
N1B N -0.9292(5) -0.2729(3) 0.66057(11)
N1A N 0.0708(5) -0.2271(3) 0.16057(11)
O3A O 0.2858(4) -0.1404(3) 0.27188(12)
O4A O 0.5332(4) 0.0762(2) 0.22552(9)
O5A O 0.6851(4) -0.0583(3) 0.16637(10)
O5_2 O 0.3149(4) 0.4417(3) 0.33363(10)
O5A_2 O -0.3149(4) -0.0583(3) 0.16637(10)
C1A C 0.1800(5) 0.1502(3) 0.14799(13)
C2A C 0.1360(5) 0.1890(3) 0.20384(13)
C3A C 0.5416(5) 0.0285(3) 0.17928(14)
C4A C 0.3685(5) 0.0772(4) 0.13560(14)
N2B N -0.7683(6) -0.1156(3) 0.61487(14)
C5B C -0.7924(7) -0.1614(4) 0.66323(15)
H1B H -0.7234 -0.1215 0.6948
C6A C 0.2360(8) 0.0945(5) 0.04177(17)
H2A H 0.2561 0.0773 0.0063
N3B N -0.8893(7) -0.1978(4) 0.57760(13)
C7B C -0.9834(7) -0.2905(5) 0.60726(15)
H3B H -1.0790 -0.3622 0.5928
C8A C 0.0207(6) 0.1911(4) 0.10669(15)
H4A H -0.1056 0.2378 0.1148
C9A C 0.3935(6) 0.0515(5) 0.08198(15)
H5A H 0.5188 0.0045 0.0734
C10B C -0.6349(9) 0.0078(5) 0.5995(2)
H6B H -0.5897 0.0657 0.6311
H7B H -0.7253 0.0682 0.5742
C11A C 0.0474(7) 0.1633(5) 0.05369(16)
H8A H -0.0606 0.1906 0.0264
C12B C -0.4392(11) -0.0368(8) 0.5756(3)
H9B H -0.3771 -0.1210 0.5947
H10B H -0.3313 0.0402 0.5809
C13B C -0.4735(19) -0.0716(10) 0.5183(4)
H11B H -0.3429 -0.1182 0.5081
H12B H -0.5947 -0.1391 0.5116
H13A H 0.351(16) -0.221(6) 0.274(4)
H14A H 0.375(14) -0.075(8) 0.264(5)
loop_
_geom_bond_atom_site_label_1
_geom_bond_atom_site_label_2
_geom_bond_site_symmetry_1
_geom_bond_site_symmetry_2
Zn1 O1 1_555 1_555
O1 C2 1_555 1_555
O2 C2 1_555 1_555
N1 Zn1 1_555 1_555
O3 Zn1 1_555 1_555
O4 C3 1_555 1_555
O5 C3 1_555 1_555
C1 C2 1_555 1_555
C3 C4 1_555 1_555
C4 C1 1_555 1_555
N2 C5 1_555 1_555
C5 N1 1_555 1_555
H1 C5 1_555 1_555
C6 H2 1_555 1_555
N3 N2 1_555 1_555
C7 N1 1_555 1_555
H3 C7 1_555 1_555
C8 C1 1_555 1_555
H4 C8 1_555 1_555
C9 C4 1_555 1_555
H5 C9 1_555 1_555
C10 N2 1_555 1_555
H6 C10 1_555 1_555
H7 C10 1_555 1_555
C11 C6 1_555 1_555
H8 C11 1_555 1_555
C12 C10 1_555 1_555
H9 C12 1_555 1_555
H10 C12 1_555 1_555
C13 C12 1_555 1_555
H11 C13 1_555 1_555
H12 C13 1_555 1_555
H13 O3 1_555 1_555
H14 O3 1_555 1_555
Zn1A O1A 1_555 1_555
Zn1A_2 O2 1_555 1_555
Zn1_2 O5 1_555 1_555
Zn1B N1B 1_555 1_555
Zn1A_3 O5A 1_555 1_555
O1A C2A 1_555 1_555
O2A Zn1 1_555 1_555
O2_2 Zn1A 1_555 1_555
N1B C5B 1_555 1_555
N1A Zn1A 1_555 1_555
O3A Zn1A 1_555 1_555
O4A C3A 1_555 1_555
O5A C3A 1_555 1_555
O5_2 Zn1 1_555 1_555
O5A_2 Zn1A 1_555 1_555
C1A C2A 1_555 1_555
C2A O2A 1_555 1_555
C3A C4A 1_555 1_555
C4A C1A 1_555 1_555
N2B C5B 1_555 1_555
C5B H1B 1_555 1_555
C6A H2A 1_555 1_555
N3B N2B 1_555 1_555
C7B N1B 1_555 1_555
H3B C7B 1_555 1_555
C8A C1A 1_555 1_555
H4A C8A 1_555 1_555
C9A C4A 1_555 1_555
H5A C9A 1_555 1_555
C10B N2B 1_555 1_555
H6B C10B 1_555 1_555
H7B C10B 1_555 1_555
C11A C6A 1_555 1_555
H8A C11A 1_555 1_555
C12B C10B 1_555 1_555
H9B C12B 1_555 1_555
H10B C12B 1_555 1_555
C13B C13 1_555 1_555
H11B C13B 1_555 1_555
H12B C13B 1_555 1_555
H13A O3A 1_555 1_555
H14A O3A 1_555 1_555
C6 C9 1_555 1_555
N3 C7 1_555 1_555
C8 C11 1_555 1_555
C6A C9A 1_555 1_555
N3B C7B 1_555 1_555
C8A C11A 1_555 1_555
C12B C13B 1_555 1_555

#END
