
#######################################################################
#
#                 Cambridge Crystallographic Data Centre
#                                CCDC 
#
#######################################################################
#
# If this CIF has been generated from an entry in the Cambridge 
# Structural Database, then it will include bibliographic, chemical, 
# crystal, experimental, refinement or atomic coordinate data resulting 
# from the CCDC's data processing and validation procedures.
#
#######################################################################

data_ETAKUG
_symmetry_cell_setting           monoclinic
_symmetry_space_group_name_H-M   'P 21/n'
_symmetry_Int_Tables_number      14
_space_group_name_Hall           '-P 2yn'
loop_
_symmetry_equiv_pos_site_id
_symmetry_equiv_pos_as_xyz
1 x,y,z
2 1/2-x,1/2+y,1/2-z
3 -x,-y,-z
4 1/2+x,1/2-y,1/2+z
_cell_length_a                   9.963(5)
_cell_length_b                   16.679(5)
_cell_length_c                   15.140(5)
_cell_angle_alpha                90
_cell_angle_beta                 94.161(5)
_cell_angle_gamma                90
_cell_volume                     2509.23
loop_
_atom_site_label
_atom_site_type_symbol
_atom_site_fract_x
_atom_site_fract_y
_atom_site_fract_z
Mn1 Mn -0.01066(11) 0.04472(6) 0.77045(7)
Mn2 Mn 0.01439(11) -0.29442(7) 0.75054(7)
O1 O 0.2035(5) -0.3178(3) 0.8257(3)
O2 O -0.0613(5) -0.0627(3) 0.8433(3)
O3 O -0.3258(5) 0.1952(3) 0.8304(3)
O4 O 0.4054(5) -0.3735(3) 0.8125(3)
O5 O -0.0495(5) -0.1982(3) 0.8375(3)
O6 O 0.0723(6) -0.1861(3) 0.6851(3)
O7 O -0.2052(5) 0.0495(3) 0.6907(3)
O8 O -0.4029(5) 0.1129(3) 0.6826(3)
O9 O 0.3244(5) -0.4298(3) 0.6515(3)
O10 O -0.1296(5) 0.1297(3) 0.8408(3)
O11 O 0.1260(5) -0.3678(3) 0.6604(3)
O12 O 0.0612(6) -0.0525(3) 0.6923(4)
C1 C 0.2411(7) -0.3867(4) 0.6906(4)
C2 C -0.0273(7) -0.1284(4) 0.8086(5)
C3 C 0.2876(7) -0.3567(4) 0.7829(4)
C4 C -0.2885(7) 0.0979(4) 0.7183(4)
C5 C 0.0430(8) -0.1219(5) 0.7207(5)
C6 C -0.2449(7) 0.1461(4) 0.8040(5)
Mn1A Mn 0.51066(11) -0.45528(6) 0.72955(7)
Mn2A Mn -0.51439(11) 0.20558(7) 0.74946(7)
O3A O -0.1742(5) -0.3048(3) 0.6696(3)
O4A O 0.0946(5) 0.1265(3) 0.6875(3)
O8A O -0.0971(5) -0.3871(3) 0.8174(3)
O9A O 0.1756(5) 0.0702(3) 0.8485(3)
N1 N -0.4821(8) -0.1476(4) 0.9233(5)
C7 C -0.4839(14) -0.1481(7) 0.8282(7)
H1 H -0.5709 -0.1684 0.8057
H2 H -0.4171 -0.1867 0.8119
C8 C -0.5880(9) -0.0984(5) 0.9613(7)
H3 H -0.5790 -0.0431 0.9430
H4 H -0.5762 -0.1003 1.0254
C9 C -0.4827(10) -0.2305(5) 0.9597(6)
H5 H -0.5582 -0.2597 0.9312
H6 H -0.4955 -0.2280 1.0225
C10 C -0.7308(12) -0.1295(8) 0.9303(11)
H7 H -0.7973 -0.0974 0.9564
H8 H -0.7397 -0.1843 0.9484
H9 H -0.7435 -0.1261 0.8670
C11 C -0.3545(13) -0.2760(7) 0.9464(11)
H10 H -0.3600 -0.3286 0.9714
H11 H -0.2794 -0.2478 0.9751
H12 H -0.3427 -0.2803 0.8842
C12 C -0.4592(17) -0.0720(10) 0.7798(11)
H13 H -0.4601 -0.0827 0.7175
H14 H -0.3732 -0.0504 0.8004
H15 H -0.5285 -0.0339 0.7905
H16 H -0.408(8) -0.116(4) 0.919(5)
O13 O -0.2515(6) -0.0620(3) 0.9704(3)
O14 O 0.0121(9) 0.2315(5) 0.9691(5)
O15 O 0.3462(11) -0.1677(8) 0.6336(8)
O16 O -0.2415(17) 0.4163(18) 0.9598(13)
O17 O -0.557(2) -0.0530(18) 0.527(2)
loop_
_geom_bond_atom_site_label_1
_geom_bond_atom_site_label_2
_geom_bond_site_symmetry_1
_geom_bond_site_symmetry_2
Mn1 O2 1_555 1_555
Mn2 O1 1_555 1_555
O1 C3 1_555 1_555
O2 C2 1_555 1_555
O3 C6 1_555 1_555
O4 C3 1_555 1_555
O5 Mn2 1_555 1_555
O6 Mn2 1_555 1_555
O7 Mn1 1_555 1_555
O8 C4 1_555 1_555
O9 C1 1_555 1_555
O10 Mn1 1_555 1_555
O11 Mn2 1_555 1_555
O12 Mn1 1_555 1_555
C1 O11 1_555 1_555
C2 O5 1_555 1_555
C3 C1 1_555 1_555
C4 O7 1_555 1_555
C5 O6 1_555 1_555
N1 C7 1_555 1_555
C6 O10 1_555 1_555
C7 H1 1_555 1_555
H2 C7 1_555 1_555
C8 N1 1_555 1_555
H3 C8 1_555 1_555
H4 C8 1_555 1_555
C9 N1 1_555 1_555
H5 C9 1_555 1_555
H6 C9 1_555 1_555
C10 C8 1_555 1_555
H7 C10 1_555 1_555
H8 C10 1_555 1_555
H9 C10 1_555 1_555
C11 C9 1_555 1_555
H10 C11 1_555 1_555
H11 C11 1_555 1_555
H12 C11 1_555 1_555
C12 C7 1_555 1_555
H13 C12 1_555 1_555
H14 C12 1_555 1_555
H15 C12 1_555 1_555
H16 N1 1_555 1_555
Mn1A O4 1_555 1_555
Mn2A O3 1_555 1_555
O3A Mn2 1_555 1_555
O4A Mn1 1_555 1_555
O8A Mn2 1_555 1_555
O9A Mn1 1_555 1_555
O8 Mn2A 1_555 1_555
O9 Mn1A 1_555 1_555
O12 C5 1_555 1_555
C2 C5 1_555 1_555
C4 C6 1_555 1_555

#END
