
#######################################################################
#
#                 Cambridge Crystallographic Data Centre
#                                CCDC 
#
#######################################################################
#
# If this CIF has been generated from an entry in the Cambridge 
# Structural Database, then it will include bibliographic, chemical, 
# crystal, experimental, refinement or atomic coordinate data resulting 
# from the CCDC's data processing and validation procedures.
#
#######################################################################

data_ETAMOC
_symmetry_cell_setting           monoclinic
_symmetry_space_group_name_H-M   'C 2/c'
_symmetry_Int_Tables_number      15
_space_group_name_Hall           '-C 2yn'
loop_
_symmetry_equiv_pos_site_id
_symmetry_equiv_pos_as_xyz
1 x,y,z
2 -x,y,1/2-z
3 1/2+x,1/2+y,z
4 1/2-x,1/2+y,1/2-z
5 -x,-y,-z
6 x,-y,1/2+z
7 1/2-x,1/2-y,-z
8 1/2+x,1/2-y,1/2+z
_cell_length_a                   20.755(4)
_cell_length_b                   14.6380(15)
_cell_length_c                   16.9000(17)
_cell_angle_alpha                90
_cell_angle_beta                 116.195(6)
_cell_angle_gamma                90
_cell_volume                     4607.1
loop_
_atom_site_label
_atom_site_type_symbol
_atom_site_fract_x
_atom_site_fract_y
_atom_site_fract_z
Sn1 Sn 0.232510(8) -0.334830(9) 0.244850(9)
O1 O 0.32818(9) -0.79530(11) 0.11431(11)
O2 O 0.26258(8) -0.72131(10) 0.16965(10)
N1 N 0.26010(9) -0.56462(11) 0.08809(11)
N2 N 0.22392(10) -0.45398(13) 0.14723(12)
C1 C 0.27747(12) -0.50856(14) 0.15729(14)
H1 H 0.3229 -0.5082 0.2075
C2 C 0.19042(12) -0.54594(16) 0.02977(15)
H2 H 0.1630 -0.5750 -0.0252
C3 C 0.16850(13) -0.47775(16) 0.06629(15)
H3 H 0.1223 -0.4504 0.0405
C4 C 0.30444(12) -0.63800(15) 0.08059(14)
H4 H 0.3552 -0.6180 0.1080
H5 H 0.2902 -0.6498 0.0174
C5 C 0.29831(11) -0.72672(14) 0.12429(14)
C6 C 0.11996(12) -0.31919(14) 0.16761(15)
C7 C 0.06853(14) -0.3651(2) 0.18374(18)
H6 H 0.0832 -0.4046 0.2332
C8 C -0.00421(16) -0.3540(2) 0.1284(2)
H7 H -0.0388 -0.3860 0.1403
C9 C -0.02644(13) -0.29671(19) 0.05621(18)
H8 H -0.0762 -0.2890 0.0187
C10 C 0.02346(13) -0.25100(18) 0.03883(18)
H9 H 0.0085 -0.2126 -0.0115
C11 C 0.09645(13) -0.26111(17) 0.09531(16)
H10 H 0.1307 -0.2276 0.0840
C12 C 0.30361(11) -0.25957(15) 0.20803(14)
C13 C 0.30826(13) -0.27686(18) 0.12893(16)
H11 H 0.2782 -0.3219 0.0894
C14 C 0.35639(14) -0.2287(2) 0.10799(18)
H12 H 0.3583 -0.2401 0.0537
C15 C 0.40134(15) -0.16461(18) 0.1655(2)
H13 H 0.4345 -0.1323 0.1513
C16 C 0.39802(14) -0.14751(18) 0.24392(19)
H14 H 0.4295 -0.1039 0.2840
C17 C 0.34868(12) -0.19380(16) 0.26466(16)
H15 H 0.3459 -0.1802 0.3180
C18 C 0.29106(11) -0.42501(14) 0.35200(14)
C19 C 0.36250(12) -0.40506(16) 0.40684(15)
H16 H 0.3840 -0.3524 0.3956
C20 C 0.40290(13) -0.46111(17) 0.47778(16)
H17 H 0.4518 -0.4468 0.5144
C21 C 0.37290(14) -0.53675(17) 0.49534(16)
H18 H 0.4007 -0.5747 0.5442
C22 C 0.30177(14) -0.55787(16) 0.44146(17)
H19 H 0.2807 -0.6105 0.4534
C23 C 0.26105(13) -0.50243(15) 0.36993(15)
H20 H 0.2124 -0.5176 0.3331
Sn1C Sn 0.267490(8) -0.834830(9) 0.255150(9)
O2C O 0.23742(8) -0.22131(10) 0.33035(10)
C24 C 0.01858(19) -0.1046(3) 0.2245(2)
H21 H 0.0308 -0.1611 0.2070
C25 C 0.0380(2) -0.0243(4) 0.1992(2)
H22 H 0.0638 -0.0255 0.1647
C26 C 0.0193(2) 0.0616(4) 0.2248(3)
H23 H 0.0329 0.1175 0.2078
C24A C -0.01858(19) -0.1046(3) 0.2755(2)
H21A H -0.0308 -0.1611 0.2930
C25A C -0.0380(2) -0.0243(4) 0.3008(2)
H22A H -0.0638 -0.0255 0.3353
C26A C -0.0193(2) 0.0616(4) 0.2752(3)
H23A H -0.0329 0.1175 0.2922
loop_
_geom_bond_atom_site_label_1
_geom_bond_atom_site_label_2
_geom_bond_site_symmetry_1
_geom_bond_site_symmetry_2
Sn1 N2 1_555 1_555
O1 C5 1_555 1_555
O2 C5 1_555 1_555
N1 C1 1_555 1_555
N2 C1 1_555 1_555
C1 H1 1_555 1_555
C2 N1 1_555 1_555
H2 C2 1_555 1_555
C3 N2 1_555 1_555
H3 C3 1_555 1_555
C4 N1 1_555 1_555
H4 C4 1_555 1_555
H5 C4 1_555 1_555
C5 C4 1_555 1_555
C6 Sn1 1_555 1_555
C7 C6 1_555 1_555
H6 C7 1_555 1_555
C8 C7 1_555 1_555
H7 C8 1_555 1_555
C9 C8 1_555 1_555
H8 C9 1_555 1_555
C10 C9 1_555 1_555
H9 C10 1_555 1_555
C11 C6 1_555 1_555
H10 C11 1_555 1_555
C12 Sn1 1_555 1_555
C13 C12 1_555 1_555
H11 C13 1_555 1_555
C14 C13 1_555 1_555
H12 C14 1_555 1_555
C15 C14 1_555 1_555
H13 C15 1_555 1_555
C16 C15 1_555 1_555
H14 C16 1_555 1_555
C17 C12 1_555 1_555
H15 C17 1_555 1_555
C18 Sn1 1_555 1_555
C19 C18 1_555 1_555
H16 C19 1_555 1_555
C20 C19 1_555 1_555
H17 C20 1_555 1_555
C21 C20 1_555 1_555
H18 C21 1_555 1_555
C22 C21 1_555 1_555
H19 C22 1_555 1_555
C23 C18 1_555 1_555
H20 C23 1_555 1_555
C24 H21 1_555 1_555
C25 C24 1_555 1_555
H22 C25 1_555 1_555
C26 C25 1_555 1_555
H23 C26 1_555 1_555
Sn1C O2 1_555 1_555
O2C Sn1 1_555 1_555
C24A C24 1_555 1_555
H21A C24A 1_555 1_555
C25A C24A 1_555 1_555
H22A C25A 1_555 1_555
C26A C26 1_555 1_555
H23A C26A 1_555 1_555
C2 C3 1_555 1_555
C10 C11 1_555 1_555
C16 C17 1_555 1_555
C22 C23 1_555 1_555
C25A C26A 1_555 1_555

#END
