
#######################################################################
#
#                 Cambridge Crystallographic Data Centre
#                                CCDC 
#
#######################################################################
#
# If this CIF has been generated from an entry in the Cambridge 
# Structural Database, then it will include bibliographic, chemical, 
# crystal, experimental, refinement or atomic coordinate data resulting 
# from the CCDC's data processing and validation procedures.
#
#######################################################################

data_ETASAT
_symmetry_cell_setting           monoclinic
_symmetry_space_group_name_H-M   'P 21/c'
_symmetry_Int_Tables_number      14
_space_group_name_Hall           '-P 2ybc'
loop_
_symmetry_equiv_pos_site_id
_symmetry_equiv_pos_as_xyz
1 x,y,z
2 -x,1/2+y,1/2-z
3 -x,-y,-z
4 x,1/2-y,1/2+z
_cell_length_a                   13.897(3)
_cell_length_b                   16.091(3)
_cell_length_c                   26.432(5)
_cell_angle_alpha                90
_cell_angle_beta                 91.03(3)
_cell_angle_gamma                90
_cell_volume                     5909.68
loop_
_atom_site_label
_atom_site_type_symbol
_atom_site_fract_x
_atom_site_fract_y
_atom_site_fract_z
Cs1 Cs -0.00098(4) 1.00398(3) 0.25743(2)
Cs2 Cs 0.0000 0.5000 0.5000
Cs3 Cs 0.0000 1.0000 0.5000
K1 K 0.23054(12) 0.74476(10) 0.56421(7)
K2 K 0.51703(17) 0.97393(16) 0.74361(8)
Sn1 Sn 0.19956(4) 0.84576(3) 0.28322(2)
Sn2 Sn -0.04524(4) 0.83561(3) 0.36814(2)
Sn3 Sn 0.14930(4) 0.91109(3) 0.38417(2)
Sn4 Sn 0.00819(4) 0.76132(3) 0.26938(2)
Sn5 Sn -0.01110(4) 0.65627(3) 0.36016(2)
Sn6 Sn 0.18397(4) 0.66334(3) 0.29165(2)
Sn7 Sn 0.09291(4) 0.76380(4) 0.44345(2)
Sn8 Sn 0.28714(4) 0.76999(4) 0.37528(2)
Sn9 Sn 0.18285(4) 0.61484(4) 0.39937(2)
O1 O 0.3283(4) 0.5886(3) 0.5587(2)
O2 O 0.1292(4) 0.5927(3) 0.5910(2)
O3 O 0.1476(4) 0.9049(3) 0.5813(2)
O4 O 0.3430(4) 0.8891(3) 0.5453(2)
O5 O 0.4322(5) 1.0384(4) 0.6538(2)
O6 O 0.6820(4) 0.8671(4) 0.7395(2)
O7 O 0.6054(5) 0.9114(4) 0.8344(2)
O8 O 0.3625(5) 1.0907(4) 0.7495(3)
N1 N 0.4060(5) 0.7304(4) 0.5081(2)
H1 H 0.3861 0.7275 0.4751
N2 N 0.0654(5) 0.7542(4) 0.6270(3)
H2 H 0.0860 0.7531 0.6598
N3 N 0.6216(6) 0.9627(5) 0.6527(3)
H3 H 0.6633 1.0063 0.6526
N4 N 0.4125(6) 0.9880(6) 0.8349(3)
H4 H 0.3667 0.9475 0.8339
C1 C 0.4578(6) 0.6537(5) 0.5167(3)
H5 H 0.4925 0.6569 0.5488
H6 H 0.5046 0.6461 0.4903
C2 C 0.3909(6) 0.5808(5) 0.5173(3)
H7 H 0.3537 0.5788 0.4859
H8 H 0.4275 0.5297 0.5203
C3 C 0.2666(6) 0.5191(5) 0.5621(4)
H9 H 0.3044 0.4691 0.5676
H10 H 0.2302 0.5126 0.5307
C4 C 0.1986(6) 0.5313(5) 0.6055(4)
H11 H 0.1666 0.4794 0.6132
H12 H 0.2341 0.5493 0.6354
C5 C 0.0588(7) 0.6042(6) 0.6289(3)
H13 H 0.0903 0.6087 0.6619
H14 H 0.0162 0.5565 0.6295
C6 C 0.0013(6) 0.6814(6) 0.6184(3)
H15 H -0.0227 0.6811 0.5837
H16 H -0.0533 0.6841 0.6407
C7 C 0.0159(6) 0.8333(6) 0.6180(3)
H17 H -0.0361 0.8395 0.6418
H18 H -0.0117 0.8341 0.5840
C8 C 0.0852(7) 0.9036(5) 0.6244(3)
H19 H 0.0506 0.9558 0.6266
H20 H 0.1231 0.8963 0.6552
C9 C 0.2229(6) 0.9665(5) 0.5867(4)
H21 H 0.2611 0.9554 0.6171
H22 H 0.1948 1.0214 0.5897
C10 C 0.2843(7) 0.9627(5) 0.5417(4)
H23 H 0.2445 0.9608 0.5112
H24 H 0.3248 1.0117 0.5402
C11 C 0.4063(6) 0.8823(5) 0.5046(3)
H25 H 0.4481 0.9305 0.5037
H26 H 0.3698 0.8802 0.4730
C12 C 0.4665(6) 0.8038(6) 0.5104(3)
H27 H 0.5134 0.8014 0.4837
H28 H 0.5012 0.8051 0.5426
C13 C 0.6796(8) 0.8865(7) 0.6499(4)
H29 H 0.6374 0.8386 0.6467
H30 H 0.7196 0.8885 0.6202
C14 C 0.7418(7) 0.8779(7) 0.6965(4)
H31 H 0.7813 0.9272 0.7010
H32 H 0.7842 0.8304 0.6932
C15 C 0.7368(6) 0.8652(7) 0.7858(4)
H33 H 0.7868 0.8233 0.7839
H34 H 0.7674 0.9187 0.7915
C16 C 0.6711(8) 0.8458(7) 0.8280(4)
H35 H 0.7083 0.8376 0.8590
H36 H 0.6363 0.7948 0.8206
C17 C 0.5371(8) 0.8952(8) 0.8718(4)
H37 H 0.4968 0.8488 0.8613
H38 H 0.5697 0.8803 0.9032
C18 C 0.4758(8) 0.9703(8) 0.8798(4)
H39 H 0.5169 1.0180 0.8865
H40 H 0.4363 0.9616 0.9092
C19 C 0.3621(8) 1.0664(7) 0.8399(4)
H41 H 0.3206 1.0644 0.8689
H42 H 0.4083 1.1110 0.8451
C20 C 0.3030(8) 1.0830(6) 0.7928(4)
H43 H 0.2666 1.1339 0.7971
H44 H 0.2576 1.0379 0.7875
C21 C 0.3102(8) 1.1010(7) 0.7037(5)
H45 H 0.2699 1.0527 0.6974
H46 H 0.2688 1.1494 0.7060
C22 C 0.3780(9) 1.1118(7) 0.6616(5)
H47 H 0.4214 1.1575 0.6693
H48 H 0.3423 1.1255 0.6309
C23 C 0.4972(7) 1.0487(7) 0.6142(4)
H49 H 0.4621 1.0588 0.5828
H50 H 0.5380 1.0965 0.6211
C24 C 0.5578(7) 0.9727(7) 0.6093(3)
H51 H 0.5955 0.9767 0.5789
H52 H 0.5165 0.9243 0.6061
N5 N 0.3109(6) 0.7585(6) 0.6634(3)
H53 H 0.2930 0.8069 0.6775
H54 H 0.2895 0.7167 0.6829
N6 N 0.4516(6) 0.8035(6) 0.7461(3)
H55 H 0.4733 0.7829 0.7758
H56 H 0.3871 0.8062 0.7484
C25 C 0.4150(7) 0.7548(8) 0.6605(4)
H57 H 0.4373 0.8070 0.6465
H58 H 0.4314 0.7114 0.6367
C26 C 0.4699(8) 0.7391(7) 0.7089(4)
H59 H 0.4514 0.6856 0.7225
H60 H 0.5382 0.7373 0.7021
N7 N -0.1463(7) 0.6600(6) 0.4905(4)
H61 H -0.1053 0.7032 0.4899
H62 H -0.1691 0.6555 0.4585
N8 N -0.185(2) 0.8437(14) 0.5035(8)
H63 H -0.1467 0.8051 0.5183
H64 H -0.2152 0.8665 0.5298
C27 C -0.2276(9) 0.6940(10) 0.5167(6)
H65 H -0.2109 0.7010 0.5523
H66 H -0.2814 0.6557 0.5142
C28 C -0.2600(12) 0.7872(13) 0.4915(15)
H67 H -0.2685 0.7825 0.4551
H68 H -0.3200 0.8061 0.5057
Sn8B Sn -0.28714(4) 0.23001(4) 0.62472(2)
Sn9B Sn -0.18285(4) 0.38516(4) 0.60063(2)
N7B N 0.1463(7) 0.3400(6) 0.5095(4)
H61B H 0.1053 0.2968 0.5101
H62B H 0.1691 0.3445 0.5415
N8B N 0.185(2) 0.1563(14) 0.4965(8)
H63B H 0.1467 0.1949 0.4817
H64B H 0.2152 0.1335 0.4702
C27B C 0.2276(9) 0.3060(10) 0.4833(6)
H65B H 0.2109 0.2990 0.4477
H66B H 0.2814 0.3443 0.4858
C28B C 0.2600(12) 0.2128(13) 0.5085(15)
H67B H 0.2685 0.2175 0.5449
H68B H 0.3200 0.1939 0.4943
Sn1B Sn -0.19956(4) 0.15424(3) 0.71678(2)
Sn3B Sn -0.14930(4) 0.08891(3) 0.61583(2)
Sn5B Sn 0.01110(4) 0.34373(3) 0.63984(2)
Sn6B Sn -0.18397(4) 0.33666(3) 0.70835(2)
Sn7B Sn -0.09291(4) 0.23620(4) 0.55655(2)
Cs1B Cs 0.00098(4) -0.00398(3) 0.74257(2)
K1B K -0.23054(12) 0.25524(10) 0.43579(7)
Sn2B Sn 0.04524(4) 0.16439(3) 0.63186(2)
Sn4B Sn -0.00819(4) 0.23868(3) 0.73062(2)
O1B O -0.3283(4) 1.4114(3) 0.4413(2)
O2B O -0.1292(4) 1.4073(3) 0.4090(2)
O3B O -0.1476(4) 1.0951(3) 0.4187(2)
O4B O -0.3430(4) 1.1109(3) 0.4547(2)
N1B N -0.4060(5) 1.2696(4) 0.4919(2)
H1B H -0.3861 1.2725 0.5249
N2B N -0.0654(5) 1.2458(4) 0.3730(3)
H2B H -0.0860 1.2469 0.3402
C1B C -0.4578(6) 1.3463(5) 0.4833(3)
H5B H -0.4925 1.3431 0.4512
H6B H -0.5046 1.3539 0.5097
C2B C -0.3909(6) 1.4192(5) 0.4827(3)
H7B H -0.3537 1.4212 0.5141
H8B H -0.4275 1.4703 0.4797
C3B C -0.2666(6) 1.4809(5) 0.4379(4)
H9B H -0.3044 1.5309 0.4324
H10B H -0.2302 1.4874 0.4693
C4B C -0.1986(6) 1.4687(5) 0.3945(4)
H11B H -0.1666 1.5206 0.3868
H12B H -0.2341 1.4507 0.3646
C5B C -0.0588(7) 1.3958(6) 0.3711(3)
H13B H -0.0903 1.3913 0.3381
H14B H -0.0162 1.4435 0.3705
C6B C -0.0013(6) 1.3186(6) 0.3816(3)
H15B H 0.0227 1.3189 0.4163
H16B H 0.0533 1.3159 0.3593
C7B C -0.0159(6) 1.1667(6) 0.3820(3)
H17B H 0.0361 1.1605 0.3582
H18B H 0.0117 1.1659 0.4160
C8B C -0.0852(7) 1.0964(5) 0.3756(3)
H19B H -0.0506 1.0442 0.3734
H20B H -0.1231 1.1037 0.3448
C9B C -0.2229(6) 1.0335(5) 0.4133(4)
H21B H -0.2611 1.0446 0.3829
H22B H -0.1948 0.9786 0.4103
C10B C -0.2843(7) 1.0373(5) 0.4583(4)
H23B H -0.2445 1.0392 0.4888
H24B H -0.3248 0.9883 0.4598
C11B C -0.4063(6) 1.1177(5) 0.4954(3)
H25B H -0.4481 1.0695 0.4963
H26B H -0.3698 1.1198 0.5270
C12B C -0.4665(6) 1.1962(6) 0.4896(3)
H27B H -0.5134 1.1986 0.5163
H28B H -0.5012 1.1949 0.4574
N5B N -0.3109(6) 0.2415(6) 0.3366(3)
H53B H -0.2930 0.1931 0.3225
H54B H -0.2895 0.2833 0.3171
N6B N -0.4516(6) 0.1965(6) 0.2539(3)
H55B H -0.4733 0.2171 0.2242
H56B H -0.3871 0.1938 0.2516
C25B C -0.4150(7) 0.2452(8) 0.3395(4)
H57B H -0.4373 0.1930 0.3535
H58B H -0.4314 0.2886 0.3633
C26B C -0.4699(8) 0.2609(7) 0.2911(4)
H59B H -0.4514 0.3144 0.2775
H60B H -0.5382 0.2627 0.2979
K2B K -0.51703(17) 0.02607(16) 0.25639(8)
O5B O -0.4322(5) -0.0384(4) 0.3462(2)
O6B O -0.6820(4) 0.1329(4) 0.2605(2)
O7B O -0.6054(5) 0.0886(4) 0.1656(2)
O8B O -0.3625(5) -0.0907(4) 0.2505(3)
N3B N -0.6216(6) 0.0373(5) 0.3473(3)
H3B H -0.6633 -0.0063 0.3474
N4B N -0.4125(6) 0.0120(6) 0.1651(3)
H4B H -0.3667 0.0525 0.1661
C13B C -0.6796(8) 0.1135(7) 0.3501(4)
H29B H -0.6374 0.1614 0.3533
H30B H -0.7196 0.1115 0.3798
C14B C -0.7418(7) 0.1221(7) 0.3035(4)
H31B H -0.7813 0.0728 0.2990
H32B H -0.7842 0.1696 0.3068
C15B C -0.7368(6) 0.1348(7) 0.2142(4)
H33B H -0.7868 0.1767 0.2161
H34B H -0.7674 0.0813 0.2085
C16B C -0.6711(8) 0.1542(7) 0.1720(4)
H35B H -0.7083 0.1624 0.1410
H36B H -0.6363 0.2052 0.1794
C17B C -0.5371(8) 0.1048(8) 0.1282(4)
H37B H -0.4968 0.1512 0.1387
H38B H -0.5697 0.1197 0.0968
C18B C -0.4758(8) 0.0297(8) 0.1202(4)
H39B H -0.5169 -0.0180 0.1135
H40B H -0.4363 0.0384 0.0908
C19B C -0.3621(8) -0.0664(7) 0.1601(4)
H41B H -0.3206 -0.0644 0.1311
H42B H -0.4083 -0.1110 0.1549
C20B C -0.3030(8) -0.0830(6) 0.2072(4)
H43B H -0.2666 -0.1339 0.2029
H44B H -0.2576 -0.0379 0.2125
C21B C -0.3102(8) -0.1010(7) 0.2963(5)
H45B H -0.2699 -0.0527 0.3026
H46B H -0.2688 -0.1494 0.2940
C22B C -0.3780(9) -0.1118(7) 0.3384(5)
H47B H -0.4214 -0.1575 0.3307
H48B H -0.3423 -0.1255 0.3691
C23B C -0.4972(7) -0.0487(7) 0.3858(4)
H49B H -0.4621 -0.0588 0.4172
H50B H -0.5380 -0.0965 0.3789
C24B C -0.5578(7) 0.0273(7) 0.3907(3)
H51B H -0.5955 0.0233 0.4211
H52B H -0.5165 0.0757 0.3939
Sn4A Sn -0.00819(4) 1.26132(3) 0.23062(2)
Sn5A Sn 0.01110(4) 1.15627(3) 0.13984(2)
Sn6A Sn -0.18397(4) 1.16334(3) 0.20835(2)
Sn3B_2 Sn -0.14930(4) 1.08891(3) 0.61583(2)
Sn7B_2 Sn -0.09291(4) 1.23620(4) 0.55655(2)
Cs1A Cs 0.00098(4) 0.50398(3) 0.24257(2)
Cs3_2 Cs 0.0000 0.0000 0.5000
Cs1C Cs -0.00098(4) 0.49602(3) 0.75743(2)
Sn4C Sn 0.00819(4) -0.26132(3) 0.76938(2)
Sn5C Sn -0.01110(4) -0.15627(3) 0.86016(2)
Sn6C Sn 0.18397(4) -0.16334(3) 0.79165(2)
O1B_2 O -0.3283(4) 0.4114(3) 0.4413(2)
O2B_2 O -0.1292(4) 0.4073(3) 0.4090(2)
O3B_2 O -0.1476(4) 0.0951(3) 0.4187(2)
O4B_2 O -0.3430(4) 0.1109(3) 0.4547(2)
N1B_2 N -0.4060(5) 0.2696(4) 0.4919(2)
N2B_2 N -0.0654(5) 0.2458(4) 0.3730(3)
K1B_2 K -0.23054(12) 1.25524(10) 0.43579(7)
H1B_2 H -0.3861 0.2725 0.5249
H2B_2 H -0.0860 0.2469 0.3402
loop_
_geom_bond_atom_site_label_1
_geom_bond_atom_site_label_2
_geom_bond_site_symmetry_1
_geom_bond_site_symmetry_2
Cs1 Sn1 1_555 1_555
Cs2 Sn9 1_555 1_555
Cs3 Sn3 1_555 1_555
K1 Sn7 1_555 1_555
K2 O5 1_555 1_555
Sn1 Sn3 1_555 1_555
Sn2 Cs1 1_555 1_555
Sn3 Cs1 1_555 1_555
Sn4 Cs1 1_555 1_555
Sn5 Sn2 1_555 1_555
Sn6 Sn1 1_555 1_555
Sn7 Cs3 1_555 1_555
Sn8 Sn1 1_555 1_555
Sn9 Sn5 1_555 1_555
O1 K1 1_555 1_555
O2 K1 1_555 1_555
O3 Cs3 1_555 1_555
O4 K1 1_555 1_555
O5 C22 1_555 1_555
O6 K2 1_555 1_555
O7 K2 1_555 1_555
O8 K2 1_555 1_555
N1 K1 1_555 1_555
H1 N1 1_555 1_555
N2 K1 1_555 1_555
H2 N2 1_555 1_555
N3 K2 1_555 1_555
H3 N3 1_555 1_555
N4 K2 1_555 1_555
H4 N4 1_555 1_555
C1 N1 1_555 1_555
H5 C1 1_555 1_555
H6 C1 1_555 1_555
C2 O1 1_555 1_555
H7 C2 1_555 1_555
H8 C2 1_555 1_555
C3 O1 1_555 1_555
H9 C3 1_555 1_555
H10 C3 1_555 1_555
C4 O2 1_555 1_555
H11 C4 1_555 1_555
H12 C4 1_555 1_555
C5 O2 1_555 1_555
H13 C5 1_555 1_555
H14 C5 1_555 1_555
C6 N2 1_555 1_555
H15 C6 1_555 1_555
H16 C6 1_555 1_555
C7 N2 1_555 1_555
H17 C7 1_555 1_555
H18 C7 1_555 1_555
C8 O3 1_555 1_555
H19 C8 1_555 1_555
H20 C8 1_555 1_555
C9 O3 1_555 1_555
H21 C9 1_555 1_555
H22 C9 1_555 1_555
C10 O4 1_555 1_555
H23 C10 1_555 1_555
H24 C10 1_555 1_555
C11 O4 1_555 1_555
H25 C11 1_555 1_555
H26 C11 1_555 1_555
C12 N1 1_555 1_555
H27 C12 1_555 1_555
H28 C12 1_555 1_555
C13 N3 1_555 1_555
H29 C13 1_555 1_555
H30 C13 1_555 1_555
C14 O6 1_555 1_555
H31 C14 1_555 1_555
H32 C14 1_555 1_555
C15 O6 1_555 1_555
H33 C15 1_555 1_555
H34 C15 1_555 1_555
C16 O7 1_555 1_555
H35 C16 1_555 1_555
H36 C16 1_555 1_555
C17 O7 1_555 1_555
H37 C17 1_555 1_555
H38 C17 1_555 1_555
C18 N4 1_555 1_555
H39 C18 1_555 1_555
H40 C18 1_555 1_555
C19 N4 1_555 1_555
H41 C19 1_555 1_555
H42 C19 1_555 1_555
C20 O8 1_555 1_555
H43 C20 1_555 1_555
H44 C20 1_555 1_555
C21 O8 1_555 1_555
H45 C21 1_555 1_555
H46 C21 1_555 1_555
C22 C21 1_555 1_555
H47 C22 1_555 1_555
H48 C22 1_555 1_555
C23 O5 1_555 1_555
H49 C23 1_555 1_555
H50 C23 1_555 1_555
C24 N3 1_555 1_555
H51 C24 1_555 1_555
H52 C24 1_555 1_555
N5 K1 1_555 1_555
H53 N5 1_555 1_555
H54 N5 1_555 1_555
N6 K2 1_555 1_555
H55 N6 1_555 1_555
H56 N6 1_555 1_555
C25 N5 1_555 1_555
H57 C25 1_555 1_555
H58 C25 1_555 1_555
C26 N6 1_555 1_555
H59 C26 1_555 1_555
H60 C26 1_555 1_555
N7 Cs2 1_555 1_555
H61 N7 1_555 1_555
H62 N7 1_555 1_555
N8 H63 1_555 1_555
H64 N8 1_555 1_555
C27 N7 1_555 1_555
H65 C27 1_555 1_555
H66 C27 1_555 1_555
C28 N8 1_555 1_555
H67 C28 1_555 1_555
H68 C28 1_555 1_555
Sn8B Sn9B 1_555 1_555
Sn9B Cs2 1_555 1_555
N7B Cs2 1_555 1_555
H61B N7B 1_555 1_555
H62B N7B 1_555 1_555
N8B H63B 1_555 1_555
H64B N8B 1_555 1_555
C27B N7B 1_555 1_555
H65B C27B 1_555 1_555
H66B C27B 1_555 1_555
C28B N8B 1_555 1_555
H67B C28B 1_555 1_555
H68B C28B 1_555 1_555
Sn1B Sn8B 1_555 1_555
Sn3B Sn8B 1_555 1_555
Sn5B Sn9B 1_555 1_555
Sn6B Sn8B 1_555 1_555
Sn7B Sn8B 1_555 1_555
Cs1B Sn1B 1_555 1_555
K1B Sn7B 1_555 1_555
Sn2B Sn3B 1_555 1_555
Sn4B Sn1B 1_555 1_555
O1B C2B 1_555 1_555
O2B C4B 1_555 1_555
O3B Cs3 1_555 1_555
O4B C10B 1_555 1_555
N1B H1B 1_555 1_555
N2B H2B 1_555 1_555
C1B N1B 1_555 1_555
H5B C1B 1_555 1_555
H6B C1B 1_555 1_555
C2B C1B 1_555 1_555
H7B C2B 1_555 1_555
H8B C2B 1_555 1_555
C3B O1B 1_555 1_555
H9B C3B 1_555 1_555
H10B C3B 1_555 1_555
C4B C3B 1_555 1_555
H11B C4B 1_555 1_555
H12B C4B 1_555 1_555
C5B O2B 1_555 1_555
H13B C5B 1_555 1_555
H14B C5B 1_555 1_555
C6B N2B 1_555 1_555
H15B C6B 1_555 1_555
H16B C6B 1_555 1_555
C7B N2B 1_555 1_555
H17B C7B 1_555 1_555
H18B C7B 1_555 1_555
C8B O3B 1_555 1_555
H19B C8B 1_555 1_555
H20B C8B 1_555 1_555
C9B O3B 1_555 1_555
H21B C9B 1_555 1_555
H22B C9B 1_555 1_555
C10B C9B 1_555 1_555
H23B C10B 1_555 1_555
H24B C10B 1_555 1_555
C11B O4B 1_555 1_555
H25B C11B 1_555 1_555
H26B C11B 1_555 1_555
C12B N1B 1_555 1_555
H27B C12B 1_555 1_555
H28B C12B 1_555 1_555
N5B K1B 1_555 1_555
H53B N5B 1_555 1_555
H54B N5B 1_555 1_555
N6B H55B 1_555 1_555
H56B N6B 1_555 1_555
C25B N5B 1_555 1_555
H57B C25B 1_555 1_555
H58B C25B 1_555 1_555
C26B N6B 1_555 1_555
H59B C26B 1_555 1_555
H60B C26B 1_555 1_555
K2B N6B 1_555 1_555
O5B K2B 1_555 1_555
O6B K2B 1_555 1_555
O7B K2B 1_555 1_555
O8B K2B 1_555 1_555
N3B K2B 1_555 1_555
H3B N3B 1_555 1_555
N4B K2B 1_555 1_555
H4B N4B 1_555 1_555
C13B N3B 1_555 1_555
H29B C13B 1_555 1_555
H30B C13B 1_555 1_555
C14B O6B 1_555 1_555
H31B C14B 1_555 1_555
H32B C14B 1_555 1_555
C15B O6B 1_555 1_555
H33B C15B 1_555 1_555
H34B C15B 1_555 1_555
C16B O7B 1_555 1_555
H35B C16B 1_555 1_555
H36B C16B 1_555 1_555
C17B O7B 1_555 1_555
H37B C17B 1_555 1_555
H38B C17B 1_555 1_555
C18B N4B 1_555 1_555
H39B C18B 1_555 1_555
H40B C18B 1_555 1_555
C19B N4B 1_555 1_555
H41B C19B 1_555 1_555
H42B C19B 1_555 1_555
C20B O8B 1_555 1_555
H43B C20B 1_555 1_555
H44B C20B 1_555 1_555
C21B O8B 1_555 1_555
H45B C21B 1_555 1_555
H46B C21B 1_555 1_555
C22B O5B 1_555 1_555
H47B C22B 1_555 1_555
H48B C22B 1_555 1_555
C23B O5B 1_555 1_555
H49B C23B 1_555 1_555
H50B C23B 1_555 1_555
C24B N3B 1_555 1_555
H51B C24B 1_555 1_555
H52B C24B 1_555 1_555
Sn4A Cs1 1_555 1_555
Sn5A Cs1 1_555 1_555
Sn6A Cs1 1_555 1_555
Sn3B_2 Cs3 1_555 1_555
Sn7B_2 Cs3 1_555 1_555
Cs1A Sn4 1_555 1_555
Cs3_2 Sn3B 1_555 1_555
Cs1C Sn5B 1_555 1_555
Sn4C Cs1B 1_555 1_555
Sn5C Cs1B 1_555 1_555
Sn6C Cs1B 1_555 1_555
O1B_2 K1B 1_555 1_555
O2B_2 K1B 1_555 1_555
O3B_2 K1B 1_555 1_555
O4B_2 K1B 1_555 1_555
N1B_2 K1B 1_555 1_555
N2B_2 K1B 1_555 1_555
K1B_2 O1B 1_555 1_555
H1B_2 N1B_2 1_555 1_555
H2B_2 N2B_2 1_555 1_555
K1 O3 1_555 1_555
Sn1 Sn4 1_555 1_555
Sn2 Sn3 1_555 1_555
Sn2 Sn4 1_555 1_555
Sn2 Sn7 1_555 1_555
Sn3 Sn7 1_555 1_555
Sn3 Sn8 1_555 1_555
Sn4 Sn5 1_555 1_555
Sn4 Sn6 1_555 1_555
Sn5 Sn6 1_555 1_555
Sn5 Sn7 1_555 1_555
Sn5 Cs1A 1_555 1_555
Sn6 Sn8 1_555 1_555
Sn6 Sn9 1_555 1_555
Sn6 Cs1A 1_555 1_555
Sn7 Sn8 1_555 1_555
Sn7 Sn9 1_555 1_555
Sn8 Sn9 1_555 1_555
C1 C2 1_555 1_555
C3 C4 1_555 1_555
C5 C6 1_555 1_555
C7 C8 1_555 1_555
C9 C10 1_555 1_555
C11 C12 1_555 1_555
C13 C14 1_555 1_555
C15 C16 1_555 1_555
C17 C18 1_555 1_555
C19 C20 1_555 1_555
C23 C24 1_555 1_555
C25 C26 1_555 1_555
C27 C28 1_555 1_555
Sn9B Sn6B 1_555 1_555
Sn9B Sn7B 1_555 1_555
C27B C28B 1_555 1_555
Sn1B Sn3B 1_555 1_555
Sn1B Sn6B 1_555 1_555
Sn3B Sn7B 1_555 1_555
Sn3B Cs1B 1_555 1_555
Sn5B Sn6B 1_555 1_555
Sn5B Sn7B 1_555 1_555
Sn5B Sn2B 1_555 1_555
Sn5B Sn4B 1_555 1_555
Sn6B Sn4B 1_555 1_555
Sn6B Cs1C 1_555 1_555
Sn7B Sn2B 1_555 1_555
Sn7B Cs3_2 1_555 1_555
Cs1B Sn2B 1_555 1_555
Cs1B Sn4B 1_555 1_555
Sn2B Sn4B 1_555 1_555
Sn4B Cs1C 1_555 1_555
O2B K1B_2 1_555 1_555
O3B K1B_2 1_555 1_555
O4B K1B_2 1_555 1_555
N1B K1B_2 1_555 1_555
N2B K1B_2 1_555 1_555
C5B C6B 1_555 1_555
C7B C8B 1_555 1_555
C11B C12B 1_555 1_555
C25B C26B 1_555 1_555
C13B C14B 1_555 1_555
C15B C16B 1_555 1_555
C17B C18B 1_555 1_555
C19B C20B 1_555 1_555
C21B C22B 1_555 1_555
C23B C24B 1_555 1_555
Sn4A Sn5A 1_555 1_555
Sn4A Sn6A 1_555 1_555
Sn5A Sn6A 1_555 1_555
Sn3B_2 Sn7B_2 1_555 1_555
Sn7B_2 K1B_2 1_555 1_555
Cs3_2 O3B_2 1_555 1_555
Sn4C Sn5C 1_555 1_555
Sn4C Sn6C 1_555 1_555
Sn5C Sn6C 1_555 1_555

#END
