
#######################################################################
#
#                 Cambridge Crystallographic Data Centre
#                                CCDC 
#
#######################################################################
#
# If this CIF has been generated from an entry in the Cambridge 
# Structural Database, then it will include bibliographic, chemical, 
# crystal, experimental, refinement or atomic coordinate data resulting 
# from the CCDC's data processing and validation procedures.
#
#######################################################################

data_ETASAU
_symmetry_cell_setting           triclinic
_symmetry_space_group_name_H-M   'P -1'
_symmetry_Int_Tables_number      2
_space_group_name_Hall           '-P 1'
loop_
_symmetry_equiv_pos_site_id
_symmetry_equiv_pos_as_xyz
1 x,y,z
2 -x,-y,-z
_cell_length_a                   9.9863(8)
_cell_length_b                   10.5593(9)
_cell_length_c                   10.7606(9)
_cell_angle_alpha                107.843(8)
_cell_angle_beta                 97.836(7)
_cell_angle_gamma                106.996(8)
_cell_volume                     1000.62
loop_
_atom_site_label
_atom_site_type_symbol
_atom_site_fract_x
_atom_site_fract_y
_atom_site_fract_z
Pt1 Pt 0.87210(8) 0.11633(7) 0.12628(7)
Ag1 Ag 0.48888(15) 0.45035(15) 0.23761(14)
O1 O 0.6461(14) 0.2463(12) 0.2342(12)
O2 O 1.1831(13) 0.2611(12) 0.1016(11)
N1 N 0.7930(15) 0.2646(15) 0.0950(15)
N2 N 1.0548(15) 0.2796(14) 0.2569(15)
N3 N 0.6578(16) 0.4151(15) 0.1423(14)
N4 N 1.2962(14) 0.4311(14) 0.3061(14)
N5 N 0.6762(16) 0.5910(16) 0.0552(15)
H1 H 0.6154 0.6158 0.0974
H2 H 0.7122 0.6357 0.0059
N6 N 1.4023(17) 0.6026(16) 0.5157(15)
H3 H 1.41 0.6414 0.6005
H4 H 1.4739 0.6297 0.4821
N7 N 0.9553(16) -0.0306(15) 0.1538(15)
H5 H 0.9834 -0.0696 0.0809
H6 H 0.8879 -0.0979 0.1675
H7 H 1.0308 0.0115 0.2251
N8 N 0.6899(18) -0.0427(16) -0.0003(18)
H8 H 0.6269 -0.0048 -0.0248
H9 H 0.6513 -0.1002 0.0411
H10 H 0.7114 -0.092 -0.0731
C1 C 0.7002(18) 0.3066(18) 0.1624(17)
C2 C 1.1751(17) 0.3215(18) 0.2167(18)
C3 C 0.714(2) 0.4812(18) 0.0652(19)
C4 C 1.283(2) 0.498(2) 0.4359(17)
C5 C 0.808(2) 0.434(2) -0.003(2)
H11 H 0.8467 0.4785 -0.0616
C6 C 1.162(2) 0.450(2) 0.4749(18)
H12 H 1.1584 0.4934 0.5652
C7 C 0.845(2) 0.328(2) 0.0101(19)
H13 H 0.9084 0.2958 -0.0394
C8 C 1.047(2) 0.341(2) 0.3870(18)
H14 H 0.9607 0.3075 0.4143
Ag1_2 Ag 1.48888(15) 0.45035(15) 0.23761(14)
N4_2 N 0.2962(14) 0.4311(14) 0.3061(14)
Cl2 Cl 0.268(2) 0.078(3) 0.300(2)
O3 O 0.654(2) 0.739(2) 0.417(2)
H15 H 0.632 0.6491 0.3903
H16 H 0.6259 0.7644 0.4891
O4 O 0.495(4) 0.968(4) 0.176(5)
H17 H 0.559 0.9844 0.133
H18 H 0.4699 1.0403 0.2002
O5 O 0.729(4) 0.123(4) 0.425(5)
H19 H 0.791 0.1438 0.3812
H20 H 0.6584 0.1461 0.3999
O6 O 0.550(4) 0.797(4) 0.201(5)
H21 H 0.4614 0.7432 0.1741
H22 H 0.5897 0.7743 0.1369
O7 O 0.061(4) 0.131(4) 0.608(5)
H23 H 0.1102 0.1532 0.6869
H24 H 0.114 0.1149 0.5539
O8 O 0.129(4) 0.756(4) 0.342(5)
H25 H 0.1262 0.721 0.2587
H26 H 0.0694 0.6934 0.3609
Cl1? Cl 0.4329(19) 0.878(3) 0.208(2)
loop_
_geom_bond_atom_site_label_1
_geom_bond_atom_site_label_2
_geom_bond_site_symmetry_1
_geom_bond_site_symmetry_2
Pt1 N1 1_555 1_555
Ag1 N3 1_555 1_555
O1 C1 1_555 1_555
O2 C2 1_555 1_555
N1 C1 1_555 1_555
N2 Pt1 1_555 1_555
N3 C1 1_555 1_555
N4 C2 1_555 1_555
N5 H1 1_555 1_555
H2 N5 1_555 1_555
N6 H3 1_555 1_555
H4 N6 1_555 1_555
N7 Pt1 1_555 1_555
H5 N7 1_555 1_555
H6 N7 1_555 1_555
H7 N7 1_555 1_555
N8 Pt1 1_555 1_555
H8 N8 1_555 1_555
H9 N8 1_555 1_555
H10 N8 1_555 1_555
C2 N2 1_555 1_555
C3 N3 1_555 1_555
C4 N4 1_555 1_555
C5 C3 1_555 1_555
H11 C5 1_555 1_555
C6 C4 1_555 1_555
H12 C6 1_555 1_555
C7 N1 1_555 1_555
H13 C7 1_555 1_555
C8 N2 1_555 1_555
H14 C8 1_555 1_555
O3 H15 1_555 1_555
H16 O3 1_555 1_555
O4 H17 1_555 1_555
H18 O4 1_555 1_555
O5 H19 1_555 1_555
H20 O5 1_555 1_555
O6 H21 1_555 1_555
H22 O6 1_555 1_555
O7 H23 1_555 1_555
H24 O7 1_555 1_555
O8 H25 1_555 1_555
H26 O8 1_555 1_555
Ag1_2 N4 1_555 1_555
N4_2 Ag1 1_555 1_555
N5 C3 1_555 1_555
N6 C4 1_555 1_555
C5 C7 1_555 1_555
C6 C8 1_555 1_555

#END
