
#######################################################################
#
#                 Cambridge Crystallographic Data Centre
#                                CCDC 
#
#######################################################################
#
# If this CIF has been generated from an entry in the Cambridge 
# Structural Database, then it will include bibliographic, chemical, 
# crystal, experimental, refinement or atomic coordinate data resulting 
# from the CCDC's data processing and validation procedures.
#
#######################################################################

data_ETAWOM
_symmetry_cell_setting           triclinic
_symmetry_space_group_name_H-M   'P -1'
_symmetry_Int_Tables_number      2
_space_group_name_Hall           '-P 1'
loop_
_symmetry_equiv_pos_site_id
_symmetry_equiv_pos_as_xyz
1 x,y,z
2 -x,-y,-z
_cell_length_a                   8.587(2)
_cell_length_b                   10.268(3)
_cell_length_c                   11.825(3)
_cell_angle_alpha                93.996(6)
_cell_angle_beta                 98.019(6)
_cell_angle_gamma                92.232(6)
_cell_volume                     1028.67
loop_
_atom_site_label
_atom_site_type_symbol
_atom_site_fract_x
_atom_site_fract_y
_atom_site_fract_z
C1 C 0.7790(5) 0.7267(4) 0.0208(4)
H1 H 0.6933 0.6725 -0.0183
C2 C 0.9137(6) 0.8988(5) 0.1070(4)
H2 H 0.9443 0.9850 0.1391
C3 C 1.0050(6) 0.7948(4) 0.1052(4)
H3 H 1.1126 0.7964 0.1379
C4 C 0.6303(5) 0.9287(4) 0.0255(4)
C5 C 0.5994(5) 0.9697(4) -0.0847(4)
C6 C 0.6959(6) 0.9433(5) -0.1709(4)
H4 H 0.7876 0.8953 -0.1540
C7 C 0.6594(6) 0.9851(5) -0.2755(5)
H5 H 0.7262 0.9670 -0.3317
C8 C 0.5220(6) 1.0564(5) -0.3039(5)
H6 H 0.4973 1.0840 -0.3790
C9 C 0.4266(6) 1.0849(5) -0.2247(4)
H7 H 0.3357 1.1329 -0.2447
C10 C 0.5391(6) 0.9562(4) 0.1110(4)
C11 C 1.2354(6) 0.5048(5) 0.2179(4)
H8 H 1.1556 0.4662 0.2548
C12 C 1.3576(6) 0.5892(5) 0.0932(4)
H9 H 1.3780 0.6228 0.0236
C13 C 1.4655(6) 0.5840(5) 0.1875(4)
H10 H 1.5738 0.6110 0.1959
C14 C 1.4476(6) 0.5169(5) 0.3874(4)
C15 C 1.4008(5) 0.6042(5) 0.4709(4)
C16 C 1.3042(6) 0.7093(5) 0.4449(4)
H11 H 1.2677 0.7230 0.3672
C17 C 1.2632(6) 0.7910(5) 0.5296(5)
H12 H 1.1978 0.8610 0.5103
C18 C 1.3154(6) 0.7742(5) 0.6458(5)
H13 H 1.2846 0.8324 0.7038
C19 C 1.4091(6) 0.6757(5) 0.6748(4)
H14 H 1.4444 0.6654 0.7534
C20 C 1.5441(6) 0.4134(5) 0.4113(4)
Co1 Co 1.0000 0.5000 0.0000
N1 N 0.7696(5) 0.8549(4) 0.0536(3)
N2 N 0.9222(4) 0.6867(4) 0.0501(3)
N3 N 1.2148(4) 0.5387(4) 0.1128(3)
N4 N 1.3877(4) 0.5326(4) 0.2679(3)
N5 N 0.8911(6) 0.2964(5) 0.1517(4)
O1 O 0.8940(4) 0.4204(3) 0.1356(3)
O2 O 0.9993(4) 0.2544(4) 0.2198(3)
O3 O 0.7826(5) 0.2238(4) 0.1012(3)
C1A C 0.2210(5) 1.2733(4) -0.0208(4)
H1A H 0.3067 1.3275 0.0183
C2A C 0.0863(6) 1.1012(5) -0.1070(4)
H2A H 0.0557 1.0150 -0.1391
C3A C -0.0050(6) 1.2052(4) -0.1052(4)
H3A H -0.1126 1.2036 -0.1379
C4A C 0.3697(5) 1.0713(4) -0.0255(4)
C5A C 0.4006(5) 1.0303(4) 0.0847(4)
C6A C 0.3041(6) 1.0567(5) 0.1709(4)
H4A H 0.2124 1.1047 0.1540
C7A C 0.3406(6) 1.0149(5) 0.2755(5)
H5A H 0.2738 1.0330 0.3317
C8A C 0.4780(6) 0.9436(5) 0.3039(5)
H6A H 0.5027 0.9160 0.3790
C9A C 0.5734(6) 0.9151(5) 0.2247(4)
H7A H 0.6643 0.8671 0.2447
C10A C 0.4609(6) 1.0438(4) -0.1110(4)
C11A C 1.7646(6) 0.4952(5) 0.7821(4)
H8A H 1.8444 0.5338 0.7452
C12A C 1.6424(6) 0.4108(5) 0.9068(4)
H9A H 1.6220 0.3772 0.9764
C13A C 1.5345(6) 0.4160(5) 0.8125(4)
H10A H 1.4262 0.3890 0.8041
C14A C 1.5524(6) 0.4831(5) 0.6126(4)
C15A C 1.5992(5) 0.3958(5) 0.5291(4)
C16A C 1.6958(6) 0.2907(5) 0.5551(4)
H11A H 1.7323 0.2770 0.6328
C17A C 1.7368(6) 0.2090(5) 0.4704(5)
H12A H 1.8022 0.1390 0.4897
C18A C 1.6846(6) 0.2258(5) 0.3542(5)
H13A H 1.7154 0.1676 0.2962
C19A C 1.5909(6) 0.3243(5) 0.3252(4)
H14A H 1.5556 0.3346 0.2466
C20A C 1.4559(6) 0.5866(5) 0.5887(4)
Co1_2 Co 0.0000 1.5000 0.0000
Co1_3 Co 2.0000 0.5000 1.0000
N1A N 0.2304(5) 1.1451(4) -0.0536(3)
N2A N 0.0778(4) 1.3133(4) -0.0501(3)
N2A_2 N 1.0778(4) 0.3133(4) -0.0501(3)
N3A N 1.7852(4) 0.4613(4) 0.8872(3)
N3A_2 N 0.7852(4) 0.4613(4) -0.1128(3)
N4A N 1.6123(4) 0.4674(4) 0.7321(3)
N5A N 1.1089(6) 0.7036(5) -0.1517(4)
O1A O 1.1060(4) 0.5796(3) -0.1356(3)
O2A O 1.0007(4) 0.7456(4) -0.2198(3)
O3A O 1.2174(5) 0.7762(4) -0.1012(3)
C21 C 0.8691(7) 0.6812(5) 0.4941(5)
H15 H 0.7759 0.6467 0.5252
H16 H 0.9631 0.6723 0.5514
Cl1 Cl 0.88953(18) 0.58833(15) 0.36632(13)
Cl2 Cl 0.8479(2) 0.84527(17) 0.47200(15)
loop_
_geom_bond_atom_site_label_1
_geom_bond_atom_site_label_2
_geom_bond_site_symmetry_1
_geom_bond_site_symmetry_2
C1 H1 1_555 1_555
C2 H2 1_555 1_555
C3 C2 1_555 1_555
H3 C3 1_555 1_555
C4 C5 1_555 1_555
C5 C6 1_555 1_555
C6 H4 1_555 1_555
C7 C6 1_555 1_555
H5 C7 1_555 1_555
C8 C7 1_555 1_555
H6 C8 1_555 1_555
C9 C8 1_555 1_555
H7 C9 1_555 1_555
C10 C4 1_555 1_555
C11 H8 1_555 1_555
C12 H9 1_555 1_555
C13 C12 1_555 1_555
H10 C13 1_555 1_555
C14 C15 1_555 1_555
C15 C16 1_555 1_555
C16 H11 1_555 1_555
C17 C16 1_555 1_555
H12 C17 1_555 1_555
C18 C17 1_555 1_555
H13 C18 1_555 1_555
C19 C18 1_555 1_555
H14 C19 1_555 1_555
C20 C14 1_555 1_555
C21 H15 1_555 1_555
H16 C21 1_555 1_555
Cl1 C21 1_555 1_555
Cl2 C21 1_555 1_555
Co1 N2 1_555 1_555
N1 C1 1_555 1_555
N2 C1 1_555 1_555
N3 C11 1_555 1_555
N4 C11 1_555 1_555
N5 O1 1_555 1_555
O1 Co1 1_555 1_555
O2 N5 1_555 1_555
O3 N5 1_555 1_555
C1A H1A 1_555 1_555
C2A H2A 1_555 1_555
C3A C2A 1_555 1_555
H3A C3A 1_555 1_555
C4A C5A 1_555 1_555
C5A C10 1_555 1_555
C6A C5A 1_555 1_555
H4A C6A 1_555 1_555
C7A C6A 1_555 1_555
H5A C7A 1_555 1_555
C8A C7A 1_555 1_555
H6A C8A 1_555 1_555
C9A C10 1_555 1_555
H7A C9A 1_555 1_555
C10A C5 1_555 1_555
C11A H8A 1_555 1_555
C12A H9A 1_555 1_555
C13A C12A 1_555 1_555
H10A C13A 1_555 1_555
C14A C15A 1_555 1_555
C15A C20 1_555 1_555
C16A C15A 1_555 1_555
H11A C16A 1_555 1_555
C17A C16A 1_555 1_555
H12A C17A 1_555 1_555
C18A C17A 1_555 1_555
H13A C18A 1_555 1_555
C19A C20 1_555 1_555
H14A C19A 1_555 1_555
C20A C15 1_555 1_555
Co1_2 N2A 1_555 1_555
Co1_3 N3A 1_555 1_555
N1A C1A 1_555 1_555
N2A C1A 1_555 1_555
N2A_2 Co1 1_555 1_555
N3A C11A 1_555 1_555
N3A_2 Co1 1_555 1_555
N4A C11A 1_555 1_555
N5A O1A 1_555 1_555
O1A Co1 1_555 1_555
O2A N5A 1_555 1_555
O3A N5A 1_555 1_555
C2 N1 1_555 1_555
C3 N2 1_555 1_555
C4 N1 1_555 1_555
C9 C10A 1_555 1_555
C12 N3 1_555 1_555
C13 N4 1_555 1_555
C14 N4 1_555 1_555
C19 C20A 1_555 1_555
Co1 N3 1_555 1_555
C2A N1A 1_555 1_555
C3A N2A 1_555 1_555
C4A C10A 1_555 1_555
C4A N1A 1_555 1_555
C8A C9A 1_555 1_555
C12A N3A 1_555 1_555
C13A N4A 1_555 1_555
C14A C20A 1_555 1_555
C14A N4A 1_555 1_555
C18A C19A 1_555 1_555

#END
