
#######################################################################
#
#                 Cambridge Crystallographic Data Centre
#                                CCDC 
#
#######################################################################
#
# If this CIF has been generated from an entry in the Cambridge 
# Structural Database, then it will include bibliographic, chemical, 
# crystal, experimental, refinement or atomic coordinate data resulting 
# from the CCDC's data processing and validation procedures.
#
#######################################################################

data_ETAWUS
_symmetry_cell_setting           triclinic
_symmetry_space_group_name_H-M   'P -1'
_symmetry_Int_Tables_number      2
_space_group_name_Hall           '-P 1'
loop_
_symmetry_equiv_pos_site_id
_symmetry_equiv_pos_as_xyz
1 x,y,z
2 -x,-y,-z
_cell_length_a                   10.1791(5)
_cell_length_b                   13.7563(6)
_cell_length_c                   16.5846(8)
_cell_angle_alpha                66.855(2)
_cell_angle_beta                 87.383(3)
_cell_angle_gamma                86.095(3)
_cell_volume                     2129.96
loop_
_atom_site_label
_atom_site_type_symbol
_atom_site_fract_x
_atom_site_fract_y
_atom_site_fract_z
C1 C 0.9717(3) 1.2626(2) 0.0499(2)
H1 H 1.0631 1.2549 0.0379
C2 C 0.7790(3) 1.3297(2) 0.0646(2)
H2 H 0.7094 1.3793 0.0647
C3 C 0.7658(3) 1.2243(2) 0.0875(2)
H3 H 0.6874 1.1873 0.1063
C4 C 0.9271(3) 1.0705(2) 0.1099(2)
C5 C 0.8658(3) 1.0074(2) 0.0755(2)
C6 C 0.7817(3) 1.0509(2) 0.0017(2)
H4 H 0.7702 1.1256 -0.0280
C7 C 0.7178(3) 0.9869(2) -0.0267(2)
H5 H 0.6636 1.0173 -0.0766
C8 C 0.7316(3) 0.8751(2) 0.0176(2)
H6 H 0.6835 0.8315 -0.0013
C9 C 0.8129(3) 0.8299(2) 0.0870(2)
H7 H 0.8214 0.7550 0.1157
C10 C 0.8858(3) 0.8941(2) 0.11698(19)
C11 C 0.9728(3) 0.8530(2) 0.18600(19)
C12 C 1.0435(3) 0.9157(2) 0.21480(19)
C13 C 1.1394(3) 0.8719(2) 0.2823(2)
H8 H 1.1605 0.7978 0.3054
C14 C 1.2007(3) 0.9336(3) 0.3140(2)
H9 H 1.2655 0.9032 0.3576
C15 C 1.1676(3) 1.0432(3) 0.2817(2)
H10 H 1.2068 1.0853 0.3067
C16 C 1.0809(3) 1.0901(2) 0.2157(2)
H11 H 1.0620 1.1644 0.1945
C17 C 1.0174(3) 1.0281(2) 0.1775(2)
C18 C 0.9484(3) 0.6909(2) 0.31915(19)
H12 H 0.8864 0.7220 0.3478
C19 C 1.0781(3) 0.6690(2) 0.2176(2)
H13 H 1.1247 0.6804 0.1639
C20 C 1.0850(3) 0.5809(2) 0.29241(19)
H14 H 1.1372 0.5182 0.2995
C21 C 1.2451(3) 0.5343(2) 0.58718(19)
H15 H 1.1992 0.5062 0.6419
C22 C 1.2955(3) 0.5866(2) 0.44978(19)
H16 H 1.2897 0.6018 0.3890
C23 C 1.3996(3) 0.6070(2) 0.48767(19)
H17 H 1.4785 0.6382 0.4595
C24 C 1.4425(3) 0.5808(2) 0.64396(19)
C25 C 1.4674(3) 0.6814(2) 0.63958(19)
C26 C 1.4269(3) 0.7762(2) 0.5689(2)
H18 H 1.3829 0.7723 0.5210
C27 C 1.4500(3) 0.8730(2) 0.5686(2)
H19 H 1.4215 0.9356 0.5209
C28 C 1.5166(3) 0.8807(2) 0.6391(2)
H20 H 1.5306 0.9484 0.6387
C29 C 1.5601(3) 0.7926(2) 0.7068(2)
H21 H 1.6063 0.7992 0.7527
C30 C 1.5373(3) 0.6897(2) 0.71014(19)
C31 C 1.5781(3) 0.5969(2) 0.78017(19)
C32 C 1.5503(3) 0.4963(2) 0.78519(19)
C33 C 1.5841(3) 0.4021(2) 0.8603(2)
H22 H 1.6280 0.4069 0.9079
C34 C 1.5533(3) 0.3057(2) 0.8636(2)
H23 H 1.5746 0.2438 0.9141
C35 C 1.4903(3) 0.2965(2) 0.7931(2)
H24 H 1.4720 0.2284 0.7960
C36 C 1.4554(3) 0.3833(2) 0.7213(2)
H25 H 1.4131 0.3753 0.6745
C37 C 1.4818(3) 0.4869(2) 0.71506(19)
C38 C 1.7816(3) 0.5754(2) 0.8632(2)
H26 H 1.8387 0.5563 0.8242
C39 C 1.6047(3) 0.6252(2) 0.9199(2)
H27 H 1.5168 0.6469 0.9296
C40 C 1.7078(3) 0.6094(2) 0.9729(2)
H28 H 1.7042 0.6190 1.0267
C41 C 0.9955(3) 0.7219(2) 0.50529(19)
H29 H 1.0841 0.7288 0.4841
C42 C 0.8064(3) 0.6598(2) 0.5523(2)
H30 H 0.7365 0.6130 0.5703
C43 C 0.8003(3) 0.7588(2) 0.5522(2)
H31 H 0.7274 0.7934 0.5697
C44 C 0.9621(3) 0.9010(2) 0.51037(19)
C45 C 1.0506(3) 0.9074(2) 0.56988(19)
C46 C 1.1012(3) 0.8173(2) 0.6414(2)
H32 H 1.0766 0.7488 0.6488
C47 C 1.1839(3) 0.8272(2) 0.6989(2)
H33 H 1.2176 0.7659 0.7458
C48 C 1.2206(3) 0.9290(2) 0.6897(2)
H34 H 1.2777 0.9352 0.7310
C49 C 1.1746(3) 1.0176(2) 0.6223(2)
H35 H 1.1999 1.0851 0.6170
C50 C 0.9110(3) 0.9897(2) 0.44041(19)
Co1 Co 1.0000 0.5000 0.5000
Co2 Co 2.0000 0.5000 1.0000
N1 N 0.9083(2) 1.35403(18) 0.04112(16)
N2 N 0.8894(2) 1.18231(18) 0.07796(17)
N3 N 0.9885(2) 0.73925(17) 0.23521(16)
N4 N 1.0054(2) 0.59513(17) 0.35723(15)
N5 N 1.1989(2) 0.54081(16) 0.51192(15)
N6 N 1.3668(2) 0.57291(17) 0.57588(15)
N7 N 1.6518(2) 0.60379(18) 0.84923(16)
N8 N 1.8187(2) 0.57740(18) 0.93756(16)
N9 N 0.9281(2) 0.63695(16) 0.52270(15)
N10 N 0.9208(2) 0.79822(17) 0.52179(16)
N11 N 2.1170(3) 0.5072(2) 0.82221(19)
O1 O 2.0667(2) 0.45301(16) 0.89733(14)
O2 O 2.2121(3) 0.4641(3) 0.7985(2)
O3 O 2.0649(3) 0.5869(2) 0.7731(2)
C1A C 1.0283(3) -0.2626(2) 0.9501(2)
H1A H 0.9369 -0.2549 0.9621
C2A C 1.2210(3) -0.3297(2) 0.9354(2)
H2A H 1.2906 -0.3793 0.9353
C3A C 1.2342(3) -0.2243(2) 0.9125(2)
H3A H 1.3126 -0.1873 0.8937
C4A C 1.0729(3) -0.0705(2) 0.8901(2)
C5A C 1.1342(3) -0.0074(2) 0.9245(2)
C6A C 1.2183(3) -0.0509(2) 0.9983(2)
H4A H 1.2298 -0.1256 1.0280
C7A C 1.2822(3) 0.0131(2) 1.0267(2)
H5A H 1.3364 -0.0173 1.0766
C8A C 1.2684(3) 0.1249(2) 0.9824(2)
H6A H 1.3165 0.1685 1.0013
C9A C 1.1871(3) 0.1701(2) 0.9130(2)
H7A H 1.1786 0.2450 0.8843
C10A C 1.1142(3) 0.1059(2) 0.88302(19)
C11A C 1.0272(3) 0.1470(2) 0.81400(19)
C12A C 0.9565(3) 0.0843(2) 0.78520(19)
C13A C 0.8606(3) 0.1281(2) 0.7177(2)
H8A H 0.8395 0.2022 0.6946
C14A C 0.7993(3) 0.0664(3) 0.6860(2)
H9A H 0.7345 0.0968 0.6424
C15A C 0.8324(3) -0.0432(3) 0.7183(2)
H10A H 0.7932 -0.0853 0.6933
C16A C 0.9191(3) -0.0901(2) 0.7843(2)
H11A H 0.9380 -0.1644 0.8055
C17A C 0.9826(3) -0.0281(2) 0.8225(2)
C18A C 1.0516(3) 0.3091(2) 0.68085(19)
H12A H 1.1136 0.2780 0.6522
C19A C 0.9219(3) 0.3310(2) 0.7824(2)
H13A H 0.8753 0.3196 0.8361
C20A C 0.9150(3) 0.4191(2) 0.70759(19)
H14A H 0.8628 0.4818 0.7005
C21A C 0.7549(3) 0.4657(2) 0.41282(19)
H15A H 0.8008 0.4938 0.3581
C22A C 0.7045(3) 0.4134(2) 0.55022(19)
H16A H 0.7103 0.3982 0.6110
C23A C 0.6004(3) 0.3930(2) 0.51233(19)
H17A H 0.5215 0.3618 0.5405
C24A C 0.5575(3) 0.4192(2) 0.35604(19)
C25A C 0.5326(3) 0.3186(2) 0.36042(19)
C26A C 0.5731(3) 0.2238(2) 0.4311(2)
H18A H 0.6171 0.2277 0.4790
C27A C 0.5500(3) 0.1270(2) 0.4314(2)
H19A H 0.5785 0.0644 0.4791
C28A C 0.4834(3) 0.1193(2) 0.3609(2)
H20A H 0.4694 0.0516 0.3613
C29A C 0.4399(3) 0.2074(2) 0.2932(2)
H21A H 0.3937 0.2008 0.2473
C30A C 0.4627(3) 0.3103(2) 0.28986(19)
C31A C 0.4219(3) 0.4031(2) 0.21983(19)
C32A C 0.4497(3) 0.5037(2) 0.21481(19)
C33A C 0.4159(3) 0.5979(2) 0.1397(2)
H22A H 0.3720 0.5931 0.0921
C34A C 0.4467(3) 0.6943(2) 0.1364(2)
H23A H 0.4254 0.7562 0.0859
C35A C 0.5097(3) 0.7035(2) 0.2069(2)
H24A H 0.5280 0.7716 0.2040
C36A C 0.5446(3) 0.6167(2) 0.2787(2)
H25A H 0.5869 0.6247 0.3255
C37A C 0.5182(3) 0.5131(2) 0.28494(19)
C38A C 0.2184(3) 0.4246(2) 0.1368(2)
H26A H 0.1613 0.4437 0.1758
C39A C 0.3953(3) 0.3748(2) 0.0801(2)
H27A H 0.4832 0.3531 0.0704
C40A C 0.2922(3) 0.3906(2) 0.0271(2)
H28A H 0.2958 0.3810 -0.0267
C41A C 1.0045(3) 1.2781(2) 0.49471(19)
H29A H 0.9159 1.2712 0.5159
C42A C 1.1936(3) 1.3402(2) 0.4477(2)
H30A H 1.2635 1.3870 0.4297
C43A C 1.1997(3) 1.2412(2) 0.4478(2)
H31A H 1.2726 1.2066 0.4303
C44A C 1.0379(3) 1.0990(2) 0.48963(19)
C45A C 0.9494(3) 1.0926(2) 0.43012(19)
C46A C 0.8988(3) 1.1827(2) 0.3586(2)
H32A H 0.9234 1.2512 0.3512
C47A C 0.8161(3) 1.1728(2) 0.3011(2)
H33A H 0.7824 1.2341 0.2542
C48A C 0.7794(3) 1.0710(2) 0.3103(2)
H34A H 0.7223 1.0648 0.2690
C49A C 0.8254(3) 0.9824(2) 0.3777(2)
H35A H 0.8001 0.9149 0.3830
C50A C 1.0890(3) 1.0103(2) 0.55959(19)
Co1_2 Co 1.0000 1.5000 0.5000
Co2_2 Co 1.0000 1.5000 0.0000
Co2_3 Co 1.0000 -0.5000 1.0000
Co2_4 Co 0.0000 0.5000 0.0000
N1A N 1.0917(2) -0.35403(18) 0.95888(16)
N1_2 N 1.9083(2) 0.35403(18) 1.04112(16)
N1A_2 N 2.0917(2) 0.64597(18) 0.95888(16)
N2A N 1.1106(2) -0.18231(18) 0.92204(17)
N3A N 1.0115(2) 0.26075(17) 0.76479(16)
N4A N 0.9946(2) 0.40487(17) 0.64277(15)
N5A N 0.8011(2) 0.45919(16) 0.48808(15)
N6A N 0.6332(2) 0.42709(17) 0.42412(15)
N7A N 0.3482(2) 0.39621(18) 0.15077(16)
N8A N 0.1813(2) 0.42260(18) 0.06244(16)
N8A_2 N 2.1813(2) 0.42260(18) 1.06244(16)
N9A N 1.0719(2) 1.36305(16) 0.47730(15)
N9A_2 N 1.0719(2) 0.36305(16) 0.47730(15)
N10A N 1.0792(2) 1.20178(17) 0.47821(16)
N11A N 1.8830(3) 0.4928(2) 1.17779(19)
O1A O 1.9333(2) 0.54699(16) 1.10267(14)
O2A O 1.7879(3) 0.5359(3) 1.2015(2)
O3A O 1.9351(3) 0.4131(2) 1.2269(2)
N12 N 0.6064(3) 0.8363(2) 0.3289(2)
O4 O 0.6751(3) 0.8776(2) 0.26033(17)
O5 O 0.6485(2) 0.75259(19) 0.38743(17)
O6 O 0.4998(3) 0.8789(2) 0.3380(2)
O7 O 0.5153(3) 0.0613(2) 0.15124(19)
H36 H 0.5211 0.0173 0.1814
H37 H 0.4194 0.0650 0.1700
loop_
_geom_bond_atom_site_label_1
_geom_bond_atom_site_label_2
_geom_bond_site_symmetry_1
_geom_bond_site_symmetry_2
C1 H1 1_555 1_555
C2 H2 1_555 1_555
C3 C2 1_555 1_555
H3 C3 1_555 1_555
C4 C5 1_555 1_555
C5 C6 1_555 1_555
C6 H4 1_555 1_555
C7 C6 1_555 1_555
H5 C7 1_555 1_555
C8 C7 1_555 1_555
H6 C8 1_555 1_555
C9 C8 1_555 1_555
H7 C9 1_555 1_555
C10 C5 1_555 1_555
C11 C10 1_555 1_555
C12 C11 1_555 1_555
C13 C12 1_555 1_555
H8 C13 1_555 1_555
C14 C13 1_555 1_555
H9 C14 1_555 1_555
C15 C14 1_555 1_555
H10 C15 1_555 1_555
C16 C15 1_555 1_555
H11 C16 1_555 1_555
C17 C4 1_555 1_555
C18 H12 1_555 1_555
C19 H13 1_555 1_555
C20 C19 1_555 1_555
H14 C20 1_555 1_555
C21 H15 1_555 1_555
C22 H16 1_555 1_555
C23 C22 1_555 1_555
H17 C23 1_555 1_555
C24 C25 1_555 1_555
C25 C26 1_555 1_555
C26 H18 1_555 1_555
C27 C26 1_555 1_555
H19 C27 1_555 1_555
C28 C27 1_555 1_555
H20 C28 1_555 1_555
C29 C28 1_555 1_555
H21 C29 1_555 1_555
C30 C25 1_555 1_555
C31 C30 1_555 1_555
C32 C31 1_555 1_555
C33 C32 1_555 1_555
H22 C33 1_555 1_555
C34 C33 1_555 1_555
H23 C34 1_555 1_555
C35 C34 1_555 1_555
H24 C35 1_555 1_555
C36 C35 1_555 1_555
H25 C36 1_555 1_555
C37 C24 1_555 1_555
C38 H26 1_555 1_555
C39 H27 1_555 1_555
C40 C39 1_555 1_555
H28 C40 1_555 1_555
C41 H29 1_555 1_555
C42 H30 1_555 1_555
C43 C42 1_555 1_555
H31 C43 1_555 1_555
C44 C45 1_555 1_555
C45 C46 1_555 1_555
C46 H32 1_555 1_555
C47 C46 1_555 1_555
H33 C47 1_555 1_555
C48 C47 1_555 1_555
H34 C48 1_555 1_555
C49 C48 1_555 1_555
H35 C49 1_555 1_555
C50 C44 1_555 1_555
Co1 N4 1_555 1_555
Co2 N8 1_555 1_555
N1 C1 1_555 1_555
N2 C1 1_555 1_555
N3 C11 1_555 1_555
N4 C18 1_555 1_555
N5 C21 1_555 1_555
N6 C21 1_555 1_555
N7 C31 1_555 1_555
N8 C38 1_555 1_555
N9 C41 1_555 1_555
N10 C41 1_555 1_555
N11 O1 1_555 1_555
N12 O4 1_555 1_555
O1 Co2 1_555 1_555
O2 N11 1_555 1_555
O3 N11 1_555 1_555
O5 N12 1_555 1_555
O6 N12 1_555 1_555
O7 H36 1_555 1_555
H37 O7 1_555 1_555
C1A H1A 1_555 1_555
C2A H2A 1_555 1_555
C3A C2A 1_555 1_555
H3A C3A 1_555 1_555
C4A C5A 1_555 1_555
C5A C6A 1_555 1_555
C6A H4A 1_555 1_555
C7A C6A 1_555 1_555
H5A C7A 1_555 1_555
C8A C7A 1_555 1_555
H6A C8A 1_555 1_555
C9A C8A 1_555 1_555
H7A C9A 1_555 1_555
C10A C5A 1_555 1_555
C11A C10A 1_555 1_555
C12A C11A 1_555 1_555
C13A C12A 1_555 1_555
H8A C13A 1_555 1_555
C14A C13A 1_555 1_555
H9A C14A 1_555 1_555
C15A C14A 1_555 1_555
H10A C15A 1_555 1_555
C16A C15A 1_555 1_555
H11A C16A 1_555 1_555
C17A C4A 1_555 1_555
C18A H12A 1_555 1_555
C19A H13A 1_555 1_555
C20A C19A 1_555 1_555
H14A C20A 1_555 1_555
C21A H15A 1_555 1_555
C22A H16A 1_555 1_555
C23A C22A 1_555 1_555
H17A C23A 1_555 1_555
C24A C25A 1_555 1_555
C25A C26A 1_555 1_555
C26A H18A 1_555 1_555
C27A C26A 1_555 1_555
H19A C27A 1_555 1_555
C28A C27A 1_555 1_555
H20A C28A 1_555 1_555
C29A C28A 1_555 1_555
H21A C29A 1_555 1_555
C30A C25A 1_555 1_555
C31A C30A 1_555 1_555
C32A C31A 1_555 1_555
C33A C32A 1_555 1_555
H22A C33A 1_555 1_555
C34A C33A 1_555 1_555
H23A C34A 1_555 1_555
C35A C34A 1_555 1_555
H24A C35A 1_555 1_555
C36A C35A 1_555 1_555
H25A C36A 1_555 1_555
C37A C24A 1_555 1_555
C38A H26A 1_555 1_555
C39A H27A 1_555 1_555
C40A C39A 1_555 1_555
H28A C40A 1_555 1_555
C41A H29A 1_555 1_555
C42A H30A 1_555 1_555
C43A C42A 1_555 1_555
H31A C43A 1_555 1_555
C44A C45A 1_555 1_555
C45A C50 1_555 1_555
C46A C45A 1_555 1_555
H32A C46A 1_555 1_555
C47A C46A 1_555 1_555
H33A C47A 1_555 1_555
C48A C47A 1_555 1_555
H34A C48A 1_555 1_555
C49A C50 1_555 1_555
H35A C49A 1_555 1_555
C50A C45 1_555 1_555
Co1_2 N9A 1_555 1_555
Co2_2 N1 1_555 1_555
Co2_3 N1A 1_555 1_555
Co2_4 N8A 1_555 1_555
N1A C1A 1_555 1_555
N1_2 Co2 1_555 1_555
N1A_2 Co2 1_555 1_555
N2A C1A 1_555 1_555
N3A C11A 1_555 1_555
N4A Co1 1_555 1_555
N5A Co1 1_555 1_555
N6A C21A 1_555 1_555
N7A C31A 1_555 1_555
N8A C38A 1_555 1_555
N8A_2 Co2 1_555 1_555
N9A C41A 1_555 1_555
N9A_2 Co1 1_555 1_555
N10A C41A 1_555 1_555
N11A O1A 1_555 1_555
O1A Co2 1_555 1_555
O2A N11A 1_555 1_555
O3A N11A 1_555 1_555
C2 N1 1_555 1_555
C3 N2 1_555 1_555
C4 N2 1_555 1_555
C9 C10 1_555 1_555
C12 C17 1_555 1_555
C16 C17 1_555 1_555
C18 N3 1_555 1_555
C19 N3 1_555 1_555
C20 N4 1_555 1_555
C22 N5 1_555 1_555
C23 N6 1_555 1_555
C24 N6 1_555 1_555
C29 C30 1_555 1_555
C32 C37 1_555 1_555
C36 C37 1_555 1_555
C38 N7 1_555 1_555
C39 N7 1_555 1_555
C40 N8 1_555 1_555
C42 N9 1_555 1_555
C43 N10 1_555 1_555
C44 N10 1_555 1_555
C49 C50A 1_555 1_555
Co1 N5 1_555 1_555
Co1 N9 1_555 1_555
C2A N1A 1_555 1_555
C3A N2A 1_555 1_555
C4A N2A 1_555 1_555
C9A C10A 1_555 1_555
C12A C17A 1_555 1_555
C16A C17A 1_555 1_555
C18A N3A 1_555 1_555
C18A N4A 1_555 1_555
C19A N3A 1_555 1_555
C20A N4A 1_555 1_555
C21A N5A 1_555 1_555
C22A N5A 1_555 1_555
C23A N6A 1_555 1_555
C24A N6A 1_555 1_555
C29A C30A 1_555 1_555
C32A C37A 1_555 1_555
C36A C37A 1_555 1_555
C38A N7A 1_555 1_555
C39A N7A 1_555 1_555
C40A N8A 1_555 1_555
C42A N9A 1_555 1_555
C43A N10A 1_555 1_555
C44A C50A 1_555 1_555
C44A N10A 1_555 1_555
C48A C49A 1_555 1_555

#END
