
#######################################################################
#
#                 Cambridge Crystallographic Data Centre
#                                CCDC 
#
#######################################################################
#
# If this CIF has been generated from an entry in the Cambridge 
# Structural Database, then it will include bibliographic, chemical, 
# crystal, experimental, refinement or atomic coordinate data resulting 
# from the CCDC's data processing and validation procedures.
#
#######################################################################

data_ETAXED
_symmetry_cell_setting           orthorhombic
_symmetry_space_group_name_H-M   'P n a 21'
_symmetry_Int_Tables_number      33
_space_group_name_Hall           'P 2c -2n'
loop_
_symmetry_equiv_pos_site_id
_symmetry_equiv_pos_as_xyz
1 x,y,z
2 -x,-y,1/2+z
3 1/2+x,1/2-y,z
4 1/2-x,1/2+y,1/2+z
_cell_length_a                   8.4799(14)
_cell_length_b                   15.706(3)
_cell_length_c                   5.7500(10)
_cell_angle_alpha                90
_cell_angle_beta                 90
_cell_angle_gamma                90
_cell_volume                     765.816
loop_
_atom_site_label
_atom_site_type_symbol
_atom_site_fract_x
_atom_site_fract_y
_atom_site_fract_z
Pb1 Pb 0.68142(3) 0.084740(14) 0.68189(8)
Br1 Br 0.66363(10) 0.00150(6) 0.22538(17)
O1 O 0.6052(8) 0.2321(4) 0.8862(10)
O2 O 0.4537(7) 0.3509(3) 0.8711(11)
O3 O 0.9167(10) -0.0317(5) 0.681(2)
N1 N 0.4749(8) 0.1775(4) 0.4672(13)
N2 N 0.2933(9) 0.2443(4) 0.2722(12)
H1 H 0.2238 0.2547 0.1670
N3 N 0.3282(8) 0.2958(4) 0.4534(13)
C1 C 0.4386(11) 0.2524(5) 0.5690(16)
C2 C 0.3826(10) 0.1754(5) 0.2822(14)
H2 H 0.3806 0.1315 0.1738
C3 C 0.5072(11) 0.2814(5) 0.7932(15)
H3 H 0.949(11) -0.072(3) 0.605(8)
H4 H 0.934(12) -0.034(4) 0.821(4)
Pb1A Pb 0.31858(3) -0.084740(14) 0.18189(8)
Pb1B Pb 0.18142(3) 0.415260(14) 0.68189(8)
Br1A Br 0.33637(10) -0.00150(6) 0.72538(17)
O2B O 0.9537(7) 0.1491(3) 0.8711(11)
N3B N 0.8282(8) 0.2042(4) 0.4534(13)
loop_
_geom_bond_atom_site_label_1
_geom_bond_atom_site_label_2
_geom_bond_site_symmetry_1
_geom_bond_site_symmetry_2
Pb1 Br1 1_555 1_555
Br1 Pb1A 1_555 1_555
O1 Pb1 1_555 1_555
O2 C3 1_555 1_555
O3 Pb1 1_555 1_555
N1 Pb1 1_555 1_555
N2 H1 1_555 1_555
N3 N2 1_555 1_555
C1 N1 1_555 1_555
C2 N1 1_555 1_555
H2 C2 1_555 1_555
C3 O1 1_555 1_555
H3 O3 1_555 1_555
H4 O3 1_555 1_555
Pb1B O2 1_555 1_555
Br1A Pb1 1_555 1_555
O2B Pb1 1_555 1_555
N3B Pb1 1_555 1_555
N2 C2 1_555 1_555
N3 C1 1_555 1_555
N3 Pb1B 1_555 1_555
C1 C3 1_555 1_555

#END
