
#######################################################################
#
#                 Cambridge Crystallographic Data Centre
#                                CCDC 
#
#######################################################################
#
# If this CIF has been generated from an entry in the Cambridge 
# Structural Database, then it will include bibliographic, chemical, 
# crystal, experimental, refinement or atomic coordinate data resulting 
# from the CCDC's data processing and validation procedures.
#
#######################################################################

data_ETAYAA
_symmetry_cell_setting           monoclinic
_symmetry_space_group_name_H-M   'C 2/c'
_symmetry_Int_Tables_number      15
_space_group_name_Hall           '-C 2yn'
loop_
_symmetry_equiv_pos_site_id
_symmetry_equiv_pos_as_xyz
1 x,y,z
2 -x,y,1/2-z
3 1/2+x,1/2+y,z
4 1/2-x,1/2+y,1/2-z
5 -x,-y,-z
6 x,-y,1/2+z
7 1/2-x,1/2-y,-z
8 1/2+x,1/2-y,1/2+z
_cell_length_a                   14.9609(9)
_cell_length_b                   26.4880(16)
_cell_length_c                   15.3820(9)
_cell_angle_alpha                90
_cell_angle_beta                 109.9980(10)
_cell_angle_gamma                90
_cell_volume                     5728.11
loop_
_atom_site_label
_atom_site_type_symbol
_atom_site_fract_x
_atom_site_fract_y
_atom_site_fract_z
Cd1 Cd 0.0000 0.182865(9) 0.2500
Cd2 Cd 0.478970(12) 0.404040(6) -0.017970(11)
C1 C 0.45190(16) 0.28654(9) -0.09581(15)
C2 C 0.42403(17) 0.26923(9) -0.01544(15)
C3 C 0.41542(17) 0.30232(9) 0.05639(16)
C4 C 0.39113(17) 0.27648(9) 0.12898(15)
C5 C 0.3807(2) 0.30305(10) 0.20446(18)
H1 H 0.3873 0.3380 0.2059
C6 C 0.35584(17) 0.22964(9) 0.26822(15)
C7 C 0.37653(17) 0.22501(9) 0.12923(15)
C8 C 0.40419(19) 0.21953(9) -0.01204(16)
H2 H 0.4089 0.1992 -0.0596
C9 C 0.3521(2) 0.14221(10) 0.04765(19)
H3 H 0.3008 0.1370 0.0718
H4 H 0.3293 0.1323 -0.0169
C10 C 0.4346(3) 0.10975(12) 0.0998(2)
H5 H 0.4151 0.0750 0.0944
H6 H 0.4848 0.1140 0.0748
H7 H 0.4571 0.1194 0.1638
C11 C 0.31902(18) 0.15315(10) 0.33949(16)
H8 H 0.3482 0.1347 0.3017
H9 H 0.3417 0.1389 0.4013
C12 C 0.21228(18) 0.14806(9) 0.29896(17)
H10 H 0.1952 0.1132 0.3050
H11 H 0.1919 0.1559 0.2335
C13 C 0.19784(19) 0.23323(9) 0.35886(17)
H12 H 0.1790 0.2510 0.3002
H13 H 0.1699 0.2507 0.3988
C14 C 0.30544(19) 0.23478(10) 0.40271(16)
H14 H 0.3251 0.2198 0.4639
H15 H 0.3276 0.2695 0.4086
C15 C 0.26315(17) 0.48955(9) -0.21881(15)
C16 C 0.16779(19) 0.48490(11) -0.2336(2)
H16 H 0.1471 0.4595 -0.2032
C17 C 0.10138(19) 0.51703(12) -0.2928(2)
H17 H 0.0369 0.5127 -0.3032
C18 C 0.13149(19) 0.55482(12) -0.3354(2)
C19 C 0.2270(2) 0.55923(15) -0.3234(3)
H18 H 0.2475 0.5844 -0.3544
C20 C 0.2915(2) 0.52652(14) -0.2658(2)
H19 H 0.3556 0.5295 -0.2586
C21 C -0.0261(2) 0.58855(13) -0.4079(2)
C22 C -0.0798(2) 0.55062(14) -0.4590(2)
H20 H -0.0509 0.5248 -0.4808
C23 C -0.1786(2) 0.55004(11) -0.4792(2)
H21 H -0.2154 0.5238 -0.5135
C24 C -0.22013(18) 0.58880(9) -0.44759(17)
C25 C -0.1639(2) 0.62746(11) -0.3976(2)
H22 H -0.1923 0.6541 -0.3775
C26 C -0.0671(2) 0.62760(12) -0.3770(2)
H23 H -0.0301 0.6537 -0.3426
C27 C 0.33314(17) 0.45595(9) -0.14987(16)
C28 C -0.32623(18) 0.59064(10) -0.47088(18)
N1 N 0.16022(15) 0.18116(7) 0.34309(14)
H24 H 0.1128 0.1711 0.3581
N2 N 0.34585(15) 0.20645(8) 0.34326(13)
N3 N 0.36232(18) 0.28090(9) 0.27247(15)
N4 N 0.36016(15) 0.20035(8) 0.19869(13)
N5 N 0.37800(16) 0.19663(8) 0.05479(14)
O1 O 0.46608(15) 0.25413(7) -0.14848(12)
O2 O 0.0000 0.09516(9) 0.2500
O3 O 0.45801(13) 0.33285(6) -0.11031(11)
O4 O 0.45361(16) 0.46179(7) 0.08481(15)
O5 O 0.42682(15) 0.34885(7) 0.06179(13)
O6 O -0.36307(16) 0.63151(9) -0.4663(2)
O7 O -0.37424(14) 0.55200(9) -0.49713(18)
O8 O 0.30619(14) 0.42714(8) -0.10121(14)
O9 O 0.42054(12) 0.45865(6) -0.14343(11)
O10 O 0.07237(15) 0.59103(10) -0.39082(19)
H25 H 0.4994(16) 0.4805(11) 0.112(2)
H26 H 0.024(2) 0.0771(5) 0.2194(17)
H27 H 0.4111(17) 0.4789(11) 0.046(2)
Cd1F Cd 0.5000 0.317135(9) -0.2500
Cd1F_2 Cd -0.5000 0.317135(9) 0.7500
Cd2A Cd -0.478970(12) 0.404040(6) 0.517970(11)
Cd2E Cd -0.521030(12) 0.595960(6) -0.517970(11)
Cd2E_2 Cd 1.478970(12) 0.595960(6) 0.482030(11)
C1A C -0.45190(16) 0.28654(9) 0.59581(15)
C2A C -0.42403(17) 0.26923(9) 0.51544(15)
C3A C -0.41542(17) 0.30232(9) 0.44361(16)
C4A C -0.39113(17) 0.27648(9) 0.37102(15)
C5A C -0.3807(2) 0.30305(10) 0.29554(18)
H1A H -0.3873 0.3380 0.2941
C6A C -0.35584(17) 0.22964(9) 0.23178(15)
C7A C -0.37653(17) 0.22501(9) 0.37077(15)
C8A C -0.40419(19) 0.21953(9) 0.51204(16)
H2A H -0.4089 0.1992 0.5596
C9A C -0.3521(2) 0.14221(10) 0.45235(19)
H3A H -0.3008 0.1370 0.4282
H4A H -0.3293 0.1323 0.5169
C10A C -0.4346(3) 0.10975(12) 0.4002(2)
H5A H -0.4151 0.0750 0.4056
H6A H -0.4848 0.1140 0.4252
H7A H -0.4571 0.1194 0.3362
C11A C -0.31902(18) 0.15315(10) 0.16051(16)
H8A H -0.3482 0.1347 0.1983
H9A H -0.3417 0.1389 0.0987
C12A C -0.21228(18) 0.14806(9) 0.20104(17)
H10A H -0.1952 0.1132 0.1950
H11A H -0.1919 0.1559 0.2665
C13A C -0.19784(19) 0.23323(9) 0.14114(17)
H12A H -0.1790 0.2510 0.1998
H13A H -0.1699 0.2507 0.1012
C14A C -0.30544(19) 0.23478(10) 0.09729(16)
H14A H -0.3251 0.2198 0.0361
H15A H -0.3276 0.2695 0.0914
C15E C 1.26315(17) 0.51045(9) 0.28119(15)
C16E C 1.16779(19) 0.51510(11) 0.2664(2)
H16E H 1.1471 0.5405 0.2968
C17E C 1.10138(19) 0.48297(12) 0.2072(2)
H17E H 1.0369 0.4873 0.1968
C18E C 1.13149(19) 0.44518(12) 0.1646(2)
C19E C 1.2270(2) 0.44077(15) 0.1766(3)
H18E H 1.2475 0.4156 0.1456
C20E C 1.2915(2) 0.47348(14) 0.2342(2)
H19E H 1.3556 0.4705 0.2414
C21E C 0.9739(2) 0.41145(13) 0.0921(2)
C22E C 0.9202(2) 0.44938(14) 0.0410(2)
H20E H 0.9491 0.4752 0.0192
C23E C 0.8214(2) 0.44996(11) 0.0208(2)
H21E H 0.7846 0.4762 -0.0135
C24E C 0.77987(18) 0.41120(9) 0.05241(17)
C25E C 0.8361(2) 0.37254(11) 0.1024(2)
H22E H 0.8077 0.3459 0.1225
C26E C 0.9329(2) 0.37240(12) 0.1230(2)
H23E H 0.9699 0.3463 0.1574
C27E C 1.33314(17) 0.54405(9) 0.35013(16)
C28E C 0.67377(18) 0.40936(10) 0.02912(18)
N1A N -0.16022(15) 0.18116(7) 0.15691(14)
H24A H -0.1128 0.1711 0.1419
N2A N -0.34585(15) 0.20645(8) 0.15674(13)
N3A N -0.36232(18) 0.28090(9) 0.22753(15)
N4A N -0.36016(15) 0.20035(8) 0.30131(13)
N5A N -0.37800(16) 0.19663(8) 0.44521(14)
O1A O -0.46608(15) 0.25413(7) 0.64848(12)
O1F O 0.03392(15) 0.24587(7) 0.14848(12)
O1G O -0.03392(15) 0.24587(7) 0.35152(12)
O3A O -0.45801(13) 0.33285(6) 0.61031(11)
O3F O 0.04199(13) 0.16715(6) 0.11031(11)
O3G O -0.04199(13) 0.16715(6) 0.38969(11)
O4A O -0.45361(16) 0.46179(7) 0.41519(15)
O5A O -0.42682(15) 0.34885(7) 0.43821(13)
O6E O 0.63693(16) 0.36849(9) 0.0337(2)
O6D O -0.63693(16) 0.36849(9) 0.4663(2)
O7E O 0.62576(14) 0.44800(9) 0.00287(18)
O7D O -0.62576(14) 0.44800(9) 0.49713(18)
O8E O 1.30619(14) 0.57286(8) 0.39879(14)
O8A O -0.30619(14) 0.42714(8) 0.60121(14)
O9E O 1.42054(12) 0.54135(6) 0.35657(11)
O9A O -0.42054(12) 0.45865(6) 0.64343(11)
O10E O 1.07237(15) 0.40897(10) 0.10918(19)
H25A H -0.4994(16) 0.4805(11) 0.388(2)
H26A H -0.024(2) 0.0771(5) 0.2806(17)
H27A H -0.4111(17) 0.4789(11) 0.454(2)
O11 O 0.0000 0.0931(9) -0.2500
loop_
_geom_bond_atom_site_label_1
_geom_bond_atom_site_label_2
_geom_bond_site_symmetry_1
_geom_bond_site_symmetry_2
Cd1 N1 1_555 1_555
Cd2 O3 1_555 1_555
C1 C2 1_555 1_555
C2 C3 1_555 1_555
C3 C4 1_555 1_555
C4 C5 1_555 1_555
C5 H1 1_555 1_555
C6 N2 1_555 1_555
C7 C4 1_555 1_555
C8 C2 1_555 1_555
H2 C8 1_555 1_555
C9 H3 1_555 1_555
H4 C9 1_555 1_555
C10 C9 1_555 1_555
H5 C10 1_555 1_555
H6 C10 1_555 1_555
H7 C10 1_555 1_555
C11 H8 1_555 1_555
H9 C11 1_555 1_555
C12 C11 1_555 1_555
H10 C12 1_555 1_555
H11 C12 1_555 1_555
C13 H12 1_555 1_555
H13 C13 1_555 1_555
C14 C13 1_555 1_555
H14 C14 1_555 1_555
H15 C14 1_555 1_555
C15 C16 1_555 1_555
C16 H16 1_555 1_555
C17 C16 1_555 1_555
H17 C17 1_555 1_555
C18 C17 1_555 1_555
C19 C18 1_555 1_555
H18 C19 1_555 1_555
C20 C15 1_555 1_555
H19 C20 1_555 1_555
C21 C22 1_555 1_555
C22 H20 1_555 1_555
C23 C22 1_555 1_555
H21 C23 1_555 1_555
C24 C23 1_555 1_555
C25 C24 1_555 1_555
H22 C25 1_555 1_555
C26 C21 1_555 1_555
H23 C26 1_555 1_555
C27 C15 1_555 1_555
C28 C24 1_555 1_555
N1 C12 1_555 1_555
H24 N1 1_555 1_555
N2 C11 1_555 1_555
N3 C5 1_555 1_555
N4 C6 1_555 1_555
N5 C7 1_555 1_555
O1 C1 1_555 1_555
O2 Cd1 1_555 1_555
O3 C1 1_555 1_555
O4 Cd2 1_555 1_555
O5 Cd2 1_555 1_555
O6 C28 1_555 1_555
O7 C28 1_555 1_555
O8 Cd2 1_555 1_555
O9 Cd2 1_555 1_555
O10 C18 1_555 1_555
H25 O4 1_555 1_555
H26 O2 1_555 1_555
H27 O4 1_555 1_555
Cd1F O1 1_555 1_555
Cd1F_2 O1A 1_555 1_555
Cd2A O3A 1_555 1_555
Cd2E O6 1_555 1_555
Cd2E_2 O8E 1_555 1_555
C1A C2A 1_555 1_555
C2A C3A 1_555 1_555
C3A C4A 1_555 1_555
C4A C5A 1_555 1_555
C5A H1A 1_555 1_555
C6A N2A 1_555 1_555
C7A C4A 1_555 1_555
C8A C2A 1_555 1_555
H2A C8A 1_555 1_555
C9A H3A 1_555 1_555
H4A C9A 1_555 1_555
C10A C9A 1_555 1_555
H5A C10A 1_555 1_555
H6A C10A 1_555 1_555
H7A C10A 1_555 1_555
C11A H8A 1_555 1_555
H9A C11A 1_555 1_555
C12A C11A 1_555 1_555
H10A C12A 1_555 1_555
H11A C12A 1_555 1_555
C13A H12A 1_555 1_555
H13A C13A 1_555 1_555
C14A C13A 1_555 1_555
H14A C14A 1_555 1_555
H15A C14A 1_555 1_555
C15E C16E 1_555 1_555
C16E H16E 1_555 1_555
C17E C16E 1_555 1_555
H17E C17E 1_555 1_555
C18E C17E 1_555 1_555
C19E C18E 1_555 1_555
H18E C19E 1_555 1_555
C20E C15E 1_555 1_555
H19E C20E 1_555 1_555
C21E C22E 1_555 1_555
C22E H20E 1_555 1_555
C23E C22E 1_555 1_555
H21E C23E 1_555 1_555
C24E C23E 1_555 1_555
C25E C24E 1_555 1_555
H22E C25E 1_555 1_555
C26E C21E 1_555 1_555
H23E C26E 1_555 1_555
C27E C15E 1_555 1_555
C28E C24E 1_555 1_555
N1A Cd1 1_555 1_555
H24A N1A 1_555 1_555
N2A C11A 1_555 1_555
N3A C5A 1_555 1_555
N4A C6A 1_555 1_555
N5A C7A 1_555 1_555
O1A C1A 1_555 1_555
O1F Cd1 1_555 1_555
O1G Cd1 1_555 1_555
O3A Cd1F_2 1_555 1_555
O3F Cd1 1_555 1_555
O3G Cd1 1_555 1_555
O4A Cd2A 1_555 1_555
O5A Cd2A 1_555 1_555
O6E Cd2 1_555 1_555
O6D Cd2A 1_555 1_555
O7E Cd2 1_555 1_555
O7D Cd2A 1_555 1_555
O8E C27E 1_555 1_555
O8A Cd2A 1_555 1_555
O9E Cd2E_2 1_555 1_555
O9A Cd2A 1_555 1_555
O10E C18E 1_555 1_555
H25A O4A 1_555 1_555
H26A O2 1_555 1_555
H27A O4A 1_555 1_555
C3 O5 1_555 1_555
C6 N3 1_555 1_555
C7 N4 1_555 1_555
C8 N5 1_555 1_555
C9 N5 1_555 1_555
C13 N1 1_555 1_555
C14 N2 1_555 1_555
C19 C20 1_555 1_555
C21 O10 1_555 1_555
C25 C26 1_555 1_555
C27 O8 1_555 1_555
C27 O9 1_555 1_555
O3 Cd1F 1_555 1_555
O7 Cd2E 1_555 1_555
C1A O3A 1_555 1_555
C3A O5A 1_555 1_555
C6A N3A 1_555 1_555
C7A N4A 1_555 1_555
C8A N5A 1_555 1_555
C9A N5A 1_555 1_555
C12A N1A 1_555 1_555
C13A N1A 1_555 1_555
C14A N2A 1_555 1_555
C19E C20E 1_555 1_555
C21E O10E 1_555 1_555
C25E C26E 1_555 1_555
C27E O9E 1_555 1_555
C28E O6E 1_555 1_555
C28E O7E 1_555 1_555

#END
