
#######################################################################
#
#                 Cambridge Crystallographic Data Centre
#                                CCDC 
#
#######################################################################
#
# If this CIF has been generated from an entry in the Cambridge 
# Structural Database, then it will include bibliographic, chemical, 
# crystal, experimental, refinement or atomic coordinate data resulting 
# from the CCDC's data processing and validation procedures.
#
#######################################################################

data_ETCSBC
_symmetry_cell_setting           orthorhombic
_symmetry_space_group_name_H-M   'P b c n'
_symmetry_Int_Tables_number      60
_space_group_name_Hall           '-P 2n 2ab'
loop_
_symmetry_equiv_pos_site_id
_symmetry_equiv_pos_as_xyz
1 x,y,z
2 1/2-x,1/2-y,1/2+z
3 1/2+x,1/2-y,-z
4 -x,y,1/2-z
5 -x,-y,-z
6 1/2+x,1/2+y,1/2-z
7 1/2-x,1/2+y,z
8 x,-y,1/2+z
_cell_length_a                   22.20(1)
_cell_length_b                   10.038(8)
_cell_length_c                   19.02(1)
_cell_angle_alpha                90
_cell_angle_beta                 90
_cell_angle_gamma                90
_cell_volume                     4238.49
loop_
_atom_site_label
_atom_site_type_symbol
_atom_site_fract_x
_atom_site_fract_y
_atom_site_fract_z
Sb1 Sb 0.28776 0.62658 0.46608
I1 I 0.17482 0.44041 0.39786
S1 S 0.33600 0.72650 0.57330
S2 S 0.21830 0.59410 0.57740
C1 C 0.27030 0.69490 0.61840
N1 N 0.26050 0.74410 0.68050
C2 C 0.30730 0.82080 0.72010
C3 C 0.33970 0.72830 0.77210
C4 C 0.20190 0.73460 0.71710
C5 C 0.16420 0.85590 0.70850
S3 S 0.32780 0.39840 0.49030
S4 S 0.40020 0.60020 0.41620
C6 C 0.39400 0.44200 0.44950
N2 N 0.43860 0.35530 0.44610
C7 C 0.43180 0.21270 0.47030
C8 C 0.45720 0.18490 0.53830
C9 C 0.49930 0.39210 0.41760
C10 C 0.50380 0.36460 0.34040
H1 H 0.31000 0.69000 0.80500
H2 H 0.35700 0.65200 0.74900
H3 H 0.36800 0.77400 0.79800
H4 H 0.18500 0.93500 0.72700
H5 H 0.15600 0.87600 0.66000
H6 H 0.12600 0.85400 0.73200
H7 H 0.49800 0.20600 0.53600
H8 H 0.43700 0.24300 0.57000
H9 H 0.45100 0.09600 0.55000
H10 H 0.49800 0.27400 0.33200
H11 H 0.47300 0.41600 0.31700
H12 H 0.54200 0.39200 0.32200
H13 H 0.33600 0.85600 0.68700
H14 H 0.28800 0.89300 0.74300
H15 H 0.18000 0.65800 0.69900
H16 H 0.20900 0.71700 0.76600
H17 H 0.38900 0.19000 0.46900
H18 H 0.45000 0.15400 0.43400
H19 H 0.50500 0.48600 0.42500
H20 H 0.53000 0.34500 0.44100
I1F I 0.32518 0.94041 0.39786
Sb1F Sb 0.21224 0.12658 0.46608
I2 I 0.05092 0.43634 0.29264
I2C I -0.05092 0.43634 0.20736
loop_
_geom_bond_atom_site_label_1
_geom_bond_atom_site_label_2
_geom_bond_site_symmetry_1
_geom_bond_site_symmetry_2
Sb1 I1 1_555 1_555
I1 Sb1F 1_555 1_555
S1 Sb1 1_555 1_555
S2 Sb1 1_555 1_555
C1 S1 1_555 1_555
N1 C1 1_555 1_555
C2 N1 1_555 1_555
C3 C2 1_555 1_555
C4 N1 1_555 1_555
C5 C4 1_555 1_555
S3 Sb1 1_555 1_555
S4 Sb1 1_555 1_555
C6 S3 1_555 1_555
N2 C6 1_555 1_555
C7 N2 1_555 1_555
C8 C7 1_555 1_555
C9 N2 1_555 1_555
C10 C9 1_555 1_555
H1 C3 1_555 1_555
H2 C3 1_555 1_555
H3 C3 1_555 1_555
H4 C5 1_555 1_555
H5 C5 1_555 1_555
H6 C5 1_555 1_555
H7 C8 1_555 1_555
H8 C8 1_555 1_555
H9 C8 1_555 1_555
H10 C10 1_555 1_555
H11 C10 1_555 1_555
H12 C10 1_555 1_555
H13 C2 1_555 1_555
H14 C2 1_555 1_555
H15 C4 1_555 1_555
H16 C4 1_555 1_555
H17 C7 1_555 1_555
H18 C7 1_555 1_555
H19 C9 1_555 1_555
H20 C9 1_555 1_555
I2 I2C 1_555 1_555
I1F Sb1 1_555 1_555
S2 C1 1_555 1_555
S4 C6 1_555 1_555

#END
