
#######################################################################
#
#                 Cambridge Crystallographic Data Centre
#                                CCDC 
#
#######################################################################
#
# If this CIF has been generated from an entry in the Cambridge 
# Structural Database, then it will include bibliographic, chemical, 
# crystal, experimental, refinement or atomic coordinate data resulting 
# from the CCDC's data processing and validation procedures.
#
#######################################################################

data_ETCSBA
_symmetry_cell_setting           orthorhombic
_symmetry_space_group_name_H-M   'P b c a'
_symmetry_Int_Tables_number      61
_space_group_name_Hall           '-P 2ac 2ab'
loop_
_symmetry_equiv_pos_site_id
_symmetry_equiv_pos_as_xyz
1 x,y,z
2 1/2-x,-y,1/2+z
3 1/2+x,1/2-y,-z
4 -x,1/2+y,1/2-z
5 -x,-y,-z
6 1/2+x,y,1/2-z
7 1/2-x,1/2+y,z
8 x,1/2-y,1/2+z
_cell_length_a                   19.237(8)
_cell_length_b                   12.534(5)
_cell_length_c                   19.535(7)
_cell_angle_alpha                90
_cell_angle_beta                 90
_cell_angle_gamma                90
_cell_volume                     4710.21
loop_
_atom_site_label
_atom_site_type_symbol
_atom_site_fract_x
_atom_site_fract_y
_atom_site_fract_z
Sb1 Sb 0.20020 0.44910 0.24650
I1 I 0.22585 0.18959 0.18302
S1 S 0.20820 0.55640 0.35440
S2 S 0.25030 0.33120 0.34730
C1 C 0.24530 0.44540 0.39500
N1 N 0.26690 0.45420 0.45780
C2 C 0.26660 0.55650 0.49680
C3 C 0.20360 0.56850 0.53740
C4 C 0.29510 0.35850 0.49510
C5 C 0.37210 0.35420 0.49850
S3 S 0.08610 0.36580 0.27400
S4 S 0.09740 0.57940 0.21280
C6 C 0.04500 0.47680 0.23840
N2 N -0.02280 0.47960 0.23280
C7 C -0.06690 0.38670 0.25250
C8 C -0.09090 0.38890 0.32500
C9 C -0.05980 0.57590 0.21100
C10 C -0.07530 0.57450 0.13580
H1 H 0.20100 0.50600 0.57100
H2 H 0.16200 0.56500 0.50700
H3 H 0.20300 0.63600 0.56400
H4 H 0.38800 0.42300 0.52300
H5 H 0.39100 0.35700 0.45100
H6 H 0.39100 0.29300 0.52400
H7 H -0.11800 0.45600 0.33300
H8 H -0.04900 0.39000 0.35500
H9 H -0.12000 0.32700 0.33800
H10 H -0.10500 0.51100 0.12400
H11 H -0.03000 0.56900 0.10900
H12 H -0.10000 0.64000 0.11900
H13 H 0.26800 0.60400 0.46300
H14 H 0.30600 0.57100 0.53200
H15 H 0.27200 0.29600 0.48200
H16 H 0.27600 0.35800 0.54600
H17 H -0.04500 0.31200 0.24200
H18 H -0.09300 0.38700 0.22600
H19 H -0.03500 0.62500 0.21000
H20 H -0.10400 0.57500 0.23500
I1F I 0.27415 0.68959 0.18302
Sb1F Sb 0.29980 -0.05090 0.24650
C11 C 0.06040 0.20570 0.07170
Cl1 Cl 0.05090 0.34380 0.07410
Cl2 Cl -0.01310 0.14540 0.10470
Cl3 Cl 0.07710 0.16500 -0.01090
H21 H 0.10200 0.19200 0.09800
loop_
_geom_bond_atom_site_label_1
_geom_bond_atom_site_label_2
_geom_bond_site_symmetry_1
_geom_bond_site_symmetry_2
Sb1 I1 1_555 1_555
I1 Sb1F 1_555 1_555
S1 Sb1 1_555 1_555
S2 Sb1 1_555 1_555
C1 S1 1_555 1_555
N1 C1 1_555 1_555
C2 N1 1_555 1_555
C3 C2 1_555 1_555
C4 N1 1_555 1_555
C5 C4 1_555 1_555
S3 Sb1 1_555 1_555
S4 Sb1 1_555 1_555
C6 S3 1_555 1_555
N2 C6 1_555 1_555
C7 N2 1_555 1_555
C8 C7 1_555 1_555
C9 N2 1_555 1_555
C10 C9 1_555 1_555
H1 C3 1_555 1_555
H2 C3 1_555 1_555
H3 C3 1_555 1_555
H4 C5 1_555 1_555
H5 C5 1_555 1_555
H6 C5 1_555 1_555
H7 C8 1_555 1_555
H8 C8 1_555 1_555
H9 C8 1_555 1_555
H10 C10 1_555 1_555
H11 C10 1_555 1_555
H12 C10 1_555 1_555
H13 C2 1_555 1_555
H14 C2 1_555 1_555
H15 C4 1_555 1_555
H16 C4 1_555 1_555
H17 C7 1_555 1_555
H18 C7 1_555 1_555
H19 C9 1_555 1_555
H20 C9 1_555 1_555
C11 Cl1 1_555 1_555
Cl2 C11 1_555 1_555
Cl3 C11 1_555 1_555
H21 C11 1_555 1_555
I1F Sb1 1_555 1_555
S2 C1 1_555 1_555
S4 C6 1_555 1_555

#END
