
#######################################################################
#
#                 Cambridge Crystallographic Data Centre
#                                CCDC 
#
#######################################################################
#
# If this CIF has been generated from an entry in the Cambridge 
# Structural Database, then it will include bibliographic, chemical, 
# crystal, experimental, refinement or atomic coordinate data resulting 
# from the CCDC's data processing and validation procedures.
#
#######################################################################

data_ETCSBB
_symmetry_cell_setting           orthorhombic
_symmetry_space_group_name_H-M   'P b c n'
_symmetry_Int_Tables_number      60
_space_group_name_Hall           '-P 2n 2ab'
loop_
_symmetry_equiv_pos_site_id
_symmetry_equiv_pos_as_xyz
1 x,y,z
2 1/2-x,1/2-y,1/2+z
3 1/2+x,1/2-y,-z
4 -x,y,1/2-z
5 -x,-y,-z
6 1/2+x,1/2+y,1/2-z
7 1/2-x,1/2+y,z
8 x,-y,1/2+z
_cell_length_a                   22.49(2)
_cell_length_b                   9.969(7)
_cell_length_c                   19.24(1)
_cell_angle_alpha                90
_cell_angle_beta                 90
_cell_angle_gamma                90
_cell_volume                     4313.66
loop_
_atom_site_label
_atom_site_type_symbol
_atom_site_fract_x
_atom_site_fract_y
_atom_site_fract_z
Sb1 Sb 0.28860 0.63440 0.46930
I1 I 0.18040 0.44950 0.39980
S1 S 0.33700 0.73530 0.57570
S2 S 0.22100 0.60440 0.58040
C1 C 0.27000 0.70700 0.61800
N1 N 0.26400 0.75100 0.68400
C2 C 0.31300 0.82800 0.72100
C3 C 0.34400 0.74100 0.77100
C4 C 0.20700 0.72900 0.72200
C5 C 0.17100 0.85800 0.71400
S3 S 0.32950 0.40480 0.49250
S4 S 0.39910 0.61230 0.41750
C6 C 0.39400 0.46300 0.45200
N2 N 0.43800 0.35000 0.44400
C7 C 0.43100 0.22000 0.46100
C8 C 0.45600 0.20200 0.53200
C9 C 0.50000 0.40300 0.42000
C10 C 0.50000 0.36800 0.33500
I1F I 0.31960 0.94950 0.39980
Sb1F Sb 0.21140 0.13440 0.46930
I2 I 0.04950 0.43350 0.29200
I2C I -0.04950 0.43350 0.20800
loop_
_geom_bond_atom_site_label_1
_geom_bond_atom_site_label_2
_geom_bond_site_symmetry_1
_geom_bond_site_symmetry_2
Sb1 I1 1_555 1_555
I1 Sb1F 1_555 1_555
S1 Sb1 1_555 1_555
S2 Sb1 1_555 1_555
C1 S1 1_555 1_555
N1 C1 1_555 1_555
C2 N1 1_555 1_555
C3 C2 1_555 1_555
C4 N1 1_555 1_555
C5 C4 1_555 1_555
S3 Sb1 1_555 1_555
S4 Sb1 1_555 1_555
C6 S3 1_555 1_555
N2 C6 1_555 1_555
C7 N2 1_555 1_555
C8 C7 1_555 1_555
C9 N2 1_555 1_555
C10 C9 1_555 1_555
I2 I2C 1_555 1_555
I1F Sb1 1_555 1_555
S2 C1 1_555 1_555
S4 C6 1_555 1_555

#END
