
#######################################################################
#
#                 Cambridge Crystallographic Data Centre
#                                CCDC 
#
#######################################################################
#
# If this CIF has been generated from an entry in the Cambridge 
# Structural Database, then it will include bibliographic, chemical, 
# crystal, experimental, refinement or atomic coordinate data resulting 
# from the CCDC's data processing and validation procedures.
#
#######################################################################

data_ETEBEL
_symmetry_cell_setting           monoclinic
_symmetry_space_group_name_H-M   'P 21/c'
_symmetry_Int_Tables_number      14
_space_group_name_Hall           '-P 2ybc'
loop_
_symmetry_equiv_pos_site_id
_symmetry_equiv_pos_as_xyz
1 x,y,z
2 -x,1/2+y,1/2-z
3 -x,-y,-z
4 x,1/2-y,1/2+z
_cell_length_a                   9.3505(4)
_cell_length_b                   20.6898(9)
_cell_length_c                   20.1672(9)
_cell_angle_alpha                90
_cell_angle_beta                 101.284(2)
_cell_angle_gamma                90
_cell_volume                     3826.13
loop_
_atom_site_label
_atom_site_type_symbol
_atom_site_fract_x
_atom_site_fract_y
_atom_site_fract_z
Cd1 Cd 0.25809(2) 0.289223(11) 0.050783(12)
Cd2 Cd 0.37101(2) 0.007480(12) 0.230400(12)
O1 O 0.5360(3) 0.57207(11) 0.17517(12)
O2 O 0.4128(3) 0.57046(12) 0.06929(13)
O3 O 0.2963(4) 0.49016(13) -0.01403(13)
H1 H 0.3332 0.5165 0.0147
O4 O 0.2491(3) 0.38525(12) -0.01821(12)
O5 O 0.4462(3) 0.24023(11) 0.00760(11)
O6 O 0.5905(3) 0.15421(13) 0.01386(12)
O7 O 0.6352(3) 0.05278(13) 0.07835(14)
H2 H 0.6124 0.0839 0.0534
O8 O 0.5512(3) 0.00290(11) 0.15949(13)
N1 N 0.4923(3) 0.44194(12) 0.19111(12)
N2 N 0.3810(3) 0.36884(12) 0.11607(12)
N3 N 0.2904(3) 0.18549(12) 0.09716(12)
N4 N 0.3397(3) 0.09556(13) 0.16020(13)
N5 N 0.0786(3) 0.25762(14) -0.03966(14)
N6 N 0.0292(3) 0.31138(15) 0.07574(16)
N7 N 0.1487(3) -0.00216(14) 0.26635(14)
N8 N 0.1961(3) -0.04547(14) 0.14639(14)
C1 C 0.4464(3) 0.47250(15) 0.13017(15)
C2 C 0.3774(3) 0.42751(15) 0.08421(15)
C3 C 0.4502(3) 0.38027(15) 0.18020(14)
C4 C 0.4674(4) 0.54307(16) 0.12473(17)
C5 C 0.3028(4) 0.43322(18) 0.01254(17)
C6 C 0.4690(3) 0.33047(15) 0.23315(15)
C7 C 0.4970(4) 0.26678(16) 0.21972(17)
H3 H 0.5138 0.2555 0.1773
C8 C 0.5006(4) 0.21944(17) 0.2687(2)
H4 H 0.5177 0.1765 0.2589
C9 C 0.4786(4) 0.2364(2) 0.33197(19)
H5 H 0.4790 0.2047 0.3648
C10 C 0.4562(4) 0.29939(19) 0.34663(18)
H6 H 0.4451 0.3105 0.3900
C11 C 0.4496(4) 0.34695(17) 0.29820(16)
H7 H 0.4325 0.3897 0.3087
C12 C 0.4093(3) 0.15606(15) 0.08062(15)
C13 C 0.4396(3) 0.10058(16) 0.11907(15)
C14 C 0.2518(3) 0.14737(15) 0.14487(15)
C15 C 0.4853(4) 0.18596(17) 0.03062(16)
C16 C 0.5482(4) 0.04865(17) 0.12020(17)
C17 C 0.1229(4) 0.15744(15) 0.17545(17)
C18 C 0.1330(4) 0.15182(17) 0.24458(18)
H8 H 0.2229 0.1440 0.2725
C19 C 0.0090(5) 0.15778(19) 0.2721(2)
H9 H 0.0154 0.1537 0.3185
C20 C -0.1231(5) 0.1698(2) 0.2308(3)
H10 H -0.2063 0.1735 0.2494
C21 C -0.1337(4) 0.1764(2) 0.1623(3)
H11 H -0.2236 0.1850 0.1347
C22 C -0.0112(4) 0.17019(17) 0.13454(19)
H12 H -0.0185 0.1746 0.0881
C23 C 0.1069(5) 0.2285(2) -0.0946(2)
H13 H 0.2036 0.2225 -0.0984
C24 C -0.0026(6) 0.2068(2) -0.1464(2)
H14 H 0.0199 0.1869 -0.1844
C25 C -0.1428(5) 0.2153(2) -0.1404(2)
H15 H -0.2184 0.2004 -0.1740
C26 C -0.1731(5) 0.2460(2) -0.0843(2)
H16 H -0.2692 0.2523 -0.0798
C27 C -0.0602(4) 0.26748(18) -0.03492(19)
C28 C -0.0882(4) 0.30024(18) 0.0270(2)
C29 C -0.2266(4) 0.3178(2) 0.0360(3)
H17 H -0.3073 0.3118 0.0014
C30 C -0.2424(6) 0.3441(3) 0.0965(3)
H18 H -0.3344 0.3563 0.1030
C31 C -0.1249(6) 0.3524(2) 0.1470(3)
H19 H -0.1353 0.3684 0.1888
C32 C 0.0099(5) 0.3366(2) 0.1347(2)
H20 H 0.0914 0.3437 0.1686
C33 C 0.1322(4) 0.01263(19) 0.32955(19)
H21 H 0.2142 0.0239 0.3616
C34 C -0.0003(5) 0.0117(2) 0.3483(2)
H22 H -0.0081 0.0213 0.3925
C35 C -0.1202(5) -0.0034(2) 0.3013(3)
H23 H -0.2118 -0.0033 0.3128
C36 C -0.1060(4) -0.0191(2) 0.2361(2)
H24 H -0.1874 -0.0301 0.2036
C37 C 0.0311(4) -0.01825(16) 0.22015(17)
C38 C 0.0568(4) -0.03733(17) 0.15209(17)
C39 C -0.0562(4) -0.0481(2) 0.0977(2)
H25 H -0.1522 -0.0408 0.1019
C40 C -0.0254(5) -0.0698(2) 0.0373(2)
H26 H -0.1004 -0.0783 0.0006
C41 C 0.1171(5) -0.0787(2) 0.0320(2)
H27 H 0.1406 -0.0933 -0.0081
C42 C 0.2242(4) -0.06570(19) 0.08701(18)
H28 H 0.3209 -0.0711 0.0831
Cd2A Cd 0.62899(2) 0.507480(12) 0.269600(12)
O1A O 0.4640(3) 0.07207(11) 0.32483(12)
N1A N 0.5077(3) -0.05806(12) 0.30889(12)
loop_
_geom_bond_atom_site_label_1
_geom_bond_atom_site_label_2
_geom_bond_site_symmetry_1
_geom_bond_site_symmetry_2
Cd1 O4 1_555 1_555
Cd2 O8 1_555 1_555
O1 C4 1_555 1_555
O2 C4 1_555 1_555
O3 H1 1_555 1_555
O4 C5 1_555 1_555
O5 Cd1 1_555 1_555
O6 C15 1_555 1_555
O7 H2 1_555 1_555
O8 C16 1_555 1_555
N1 C1 1_555 1_555
N2 Cd1 1_555 1_555
N3 Cd1 1_555 1_555
N4 Cd2 1_555 1_555
N5 Cd1 1_555 1_555
N6 Cd1 1_555 1_555
N7 Cd2 1_555 1_555
N8 Cd2 1_555 1_555
C1 C2 1_555 1_555
C2 N2 1_555 1_555
C3 N1 1_555 1_555
C4 C1 1_555 1_555
C5 O3 1_555 1_555
C6 C3 1_555 1_555
C7 C6 1_555 1_555
H3 C7 1_555 1_555
C8 C7 1_555 1_555
H4 C8 1_555 1_555
C9 C8 1_555 1_555
H5 C9 1_555 1_555
C10 C9 1_555 1_555
H6 C10 1_555 1_555
C11 C6 1_555 1_555
H7 C11 1_555 1_555
C12 N3 1_555 1_555
C13 N4 1_555 1_555
C14 N3 1_555 1_555
C15 O5 1_555 1_555
C16 O7 1_555 1_555
C17 C14 1_555 1_555
C18 C17 1_555 1_555
H8 C18 1_555 1_555
C19 C18 1_555 1_555
H9 C19 1_555 1_555
C20 C19 1_555 1_555
H10 C20 1_555 1_555
C21 C20 1_555 1_555
H11 C21 1_555 1_555
C22 C17 1_555 1_555
H12 C22 1_555 1_555
C23 N5 1_555 1_555
H13 C23 1_555 1_555
C24 C23 1_555 1_555
H14 C24 1_555 1_555
C25 C24 1_555 1_555
H15 C25 1_555 1_555
C26 C25 1_555 1_555
H16 C26 1_555 1_555
C27 N5 1_555 1_555
C28 N6 1_555 1_555
C29 C28 1_555 1_555
H17 C29 1_555 1_555
C30 C29 1_555 1_555
H18 C30 1_555 1_555
C31 C30 1_555 1_555
H19 C31 1_555 1_555
C32 N6 1_555 1_555
H20 C32 1_555 1_555
C33 N7 1_555 1_555
H21 C33 1_555 1_555
C34 C33 1_555 1_555
H22 C34 1_555 1_555
C35 C34 1_555 1_555
H23 C35 1_555 1_555
C36 C35 1_555 1_555
H24 C36 1_555 1_555
C37 N7 1_555 1_555
C38 N8 1_555 1_555
C39 C38 1_555 1_555
H25 C39 1_555 1_555
C40 C39 1_555 1_555
H26 C40 1_555 1_555
C41 C40 1_555 1_555
H27 C41 1_555 1_555
C42 N8 1_555 1_555
H28 C42 1_555 1_555
Cd2A O1 1_555 1_555
O1A Cd2 1_555 1_555
N1A Cd2 1_555 1_555
N1 Cd2A 1_555 1_555
N2 C3 1_555 1_555
N4 C14 1_555 1_555
C2 C5 1_555 1_555
C10 C11 1_555 1_555
C12 C13 1_555 1_555
C12 C15 1_555 1_555
C13 C16 1_555 1_555
C21 C22 1_555 1_555
C26 C27 1_555 1_555
C27 C28 1_555 1_555
C31 C32 1_555 1_555
C36 C37 1_555 1_555
C37 C38 1_555 1_555
C41 C42 1_555 1_555

#END
