
#######################################################################
#
#                 Cambridge Crystallographic Data Centre
#                                CCDC 
#
#######################################################################
#
# If this CIF has been generated from an entry in the Cambridge 
# Structural Database, then it will include bibliographic, chemical, 
# crystal, experimental, refinement or atomic coordinate data resulting 
# from the CCDC's data processing and validation procedures.
#
#######################################################################

data_ETEBAH
_symmetry_cell_setting           monoclinic
_symmetry_space_group_name_H-M   'P 21/n'
_symmetry_Int_Tables_number      14
_space_group_name_Hall           '-P 2yn'
loop_
_symmetry_equiv_pos_site_id
_symmetry_equiv_pos_as_xyz
1 x,y,z
2 1/2-x,1/2+y,1/2-z
3 -x,-y,-z
4 1/2+x,1/2-y,1/2+z
_cell_length_a                   10.5015(3)
_cell_length_b                   19.8003(4)
_cell_length_c                   21.2490(5)
_cell_angle_alpha                90
_cell_angle_beta                 103.696(2)
_cell_angle_gamma                90
_cell_volume                     4292.73
loop_
_atom_site_label
_atom_site_type_symbol
_atom_site_fract_x
_atom_site_fract_y
_atom_site_fract_z
Cd1 Cd 1.08955(4) 0.36325(2) 0.182935(19)
Cd2 Cd 0.77311(4) 0.070072(19) 0.176875(18)
O1 O 0.9351(4) 0.0612(2) 0.27948(18)
O2 O 1.1007(4) 0.1159(2) 0.34310(17)
H1 H 1.1395 0.1518 0.3425
O3 O 1.2369(4) 0.2160(2) 0.33508(18)
O4 O 1.2284(4) 0.3061(2) 0.2712(2)
O5 O 1.2298(4) 0.4574(2) 0.20938(19)
O6 O 1.2421(4) 0.5610(2) 0.2486(2)
H2 H 1.1894 0.5898 0.2539
O7 O 1.1036(4) 0.64091(19) 0.2907(2)
O8 O 0.9174(4) 0.63904(19) 0.3219(2)
N1 N 1.0013(4) 0.2596(2) 0.1883(2)
N2 N 0.8930(4) 0.1635(2) 0.18933(19)
N3 N 0.9916(4) 0.4350(2) 0.2419(2)
N4 N 0.8679(4) 0.5077(2) 0.28196(19)
N5 N 1.1856(6) 0.3204(3) 0.1026(3)
N6 N 0.9800(5) 0.4082(3) 0.0820(3)
N7 N 0.8997(4) -0.0043(2) 0.1303(2)
N8 N 0.6863(4) 0.0637(2) 0.0636(2)
C1 C 0.9007(5) 0.2222(2) 0.1585(2)
C2 C 0.9963(5) 0.1646(3) 0.2428(2)
C3 C 1.0634(5) 0.2237(3) 0.2417(2)
C4 C 1.0106(6) 0.1099(3) 0.2904(3)
C5 C 1.1844(6) 0.2510(3) 0.2851(3)
C6 C 0.8096(4) 0.2439(2) 0.09869(14)
C7 C 0.7032(5) 0.2850(3) 0.10029(18)
H3 H 0.6870 0.2977 0.1398
C8 C 0.6210(4) 0.3073(3) 0.0428(2)
H4 H 0.5499 0.3349 0.0439
C9 C 0.6453(5) 0.2884(3) -0.01628(18)
H5 H 0.5903 0.3033 -0.0547
C10 C 0.7517(6) 0.2473(3) -0.01788(14)
H6 H 0.7679 0.2346 -0.0574
C11 C 0.8338(5) 0.2250(3) 0.03960(18)
H7 H 0.9050 0.1974 0.0385
C12 C 0.8806(5) 0.4438(3) 0.2615(2)
C13 C 1.0542(5) 0.4961(3) 0.2507(2)
C14 C 0.9776(5) 0.5405(2) 0.2754(2)
C15 C 1.1828(5) 0.5045(3) 0.2345(3)
C16 C 0.9992(6) 0.6118(3) 0.2971(3)
C17 C 0.7874(6) 0.3886(3) 0.2630(3)
C18 C 0.8300(7) 0.3265(3) 0.2880(3)
H8 H 0.9191 0.3189 0.3045
C19 C 0.7410(9) 0.2753(4) 0.2888(4)
H9 H 0.7709 0.2332 0.3054
C20 C 0.6094(9) 0.2856(4) 0.2654(4)
H10 H 0.5500 0.2511 0.2666
C21 C 0.5663(7) 0.3472(4) 0.2405(4)
H11 H 0.4769 0.3542 0.2244
C22 C 0.6527(6) 0.3994(3) 0.2385(3)
H12 H 0.6220 0.4411 0.2212
C23 C 1.2812(8) 0.2741(4) 0.1130(5)
H13 H 1.3230 0.2626 0.1552
C24 C 1.3185(13) 0.2435(6) 0.0627(6)
H14 H 1.3859 0.2119 0.0708
C25 C 1.2570(14) 0.2593(7) 0.0009(6)
H15 H 1.2835 0.2384 -0.0331
C26 C 1.1556(13) 0.3057(6) -0.0130(5)
C27 C 1.0847(16) 0.3237(7) -0.0759(6)
H16 H 1.1056 0.3029 -0.1114
C28 C 0.9907(14) 0.3685(7) -0.0859(4)
H17 H 0.9496 0.3806 -0.1281
C29 C 0.9501(12) 0.3992(6) -0.0333(4)
C30 C 0.8501(13) 0.4445(7) -0.0410(6)
H18 H 0.8065 0.4570 -0.0828
C31 C 0.8110(10) 0.4727(5) 0.0110(6)
H19 H 0.7426 0.5037 0.0057
C32 C 0.8814(8) 0.4515(4) 0.0722(4)
H20 H 0.8573 0.4689 0.1084
C33 C 1.0174(8) 0.3821(4) 0.0304(3)
C34 C 1.1225(8) 0.3356(4) 0.0413(3)
C35 C 1.0055(6) -0.0380(3) 0.1626(3)
H21 H 1.0390 -0.0277 0.2061
C36 C 1.0675(7) -0.0873(4) 0.1347(3)
H22 H 1.1396 -0.1102 0.1592
C37 C 1.0218(8) -0.1016(4) 0.0712(4)
H23 H 1.0615 -0.1353 0.0520
C38 C 0.9143(7) -0.0659(3) 0.0338(3)
C39 C 0.8634(8) -0.0768(4) -0.0337(3)
H24 H 0.9002 -0.1100 -0.0548
C40 C 0.7634(8) -0.0400(4) -0.0670(3)
H25 H 0.7344 -0.0469 -0.1114
C41 C 0.7001(6) 0.0092(3) -0.0367(3)
C42 C 0.5940(7) 0.0486(4) -0.0691(3)
H26 H 0.5635 0.0443 -0.1138
C43 C 0.5359(7) 0.0921(4) -0.0369(3)
H27 H 0.4647 0.1177 -0.0586
C44 C 0.5844(7) 0.0988(4) 0.0306(3)
H28 H 0.5433 0.1289 0.0529
C45 C 0.7429(5) 0.0196(3) 0.0304(2)
C46 C 0.8553(5) -0.0179(3) 0.0664(3)
Cd2A Cd 0.72689(4) 0.570072(19) 0.323125(18)
O8A O 0.5826(4) 0.13904(19) 0.1781(2)
N4A N 0.6321(4) 0.0077(2) 0.21804(19)
loop_
_geom_bond_atom_site_label_1
_geom_bond_atom_site_label_2
_geom_bond_site_symmetry_1
_geom_bond_site_symmetry_2
Cd1 O4 1_555 1_555
Cd2 O1 1_555 1_555
O1 C4 1_555 1_555
O2 H1 1_555 1_555
O3 C5 1_555 1_555
O4 C5 1_555 1_555
O5 Cd1 1_555 1_555
O6 H2 1_555 1_555
O7 C16 1_555 1_555
O8 C16 1_555 1_555
N1 Cd1 1_555 1_555
N2 Cd2 1_555 1_555
N3 Cd1 1_555 1_555
N4 C12 1_555 1_555
N5 Cd1 1_555 1_555
N6 Cd1 1_555 1_555
N7 Cd2 1_555 1_555
N8 Cd2 1_555 1_555
C1 N1 1_555 1_555
C2 N2 1_555 1_555
C3 N1 1_555 1_555
C4 O2 1_555 1_555
C5 C3 1_555 1_555
C6 C1 1_555 1_555
C7 C6 1_555 1_555
H3 C7 1_555 1_555
C8 C7 1_555 1_555
H4 C8 1_555 1_555
C9 C8 1_555 1_555
H5 C9 1_555 1_555
C10 C9 1_555 1_555
H6 C10 1_555 1_555
C11 C6 1_555 1_555
H7 C11 1_555 1_555
C12 N3 1_555 1_555
C13 N3 1_555 1_555
C14 N4 1_555 1_555
C15 O5 1_555 1_555
C16 C14 1_555 1_555
C17 C12 1_555 1_555
C18 C17 1_555 1_555
H8 C18 1_555 1_555
C19 C18 1_555 1_555
H9 C19 1_555 1_555
C20 C19 1_555 1_555
H10 C20 1_555 1_555
C21 C20 1_555 1_555
H11 C21 1_555 1_555
C22 C17 1_555 1_555
H12 C22 1_555 1_555
C23 N5 1_555 1_555
H13 C23 1_555 1_555
C24 C23 1_555 1_555
H14 C24 1_555 1_555
C25 C24 1_555 1_555
H15 C25 1_555 1_555
C26 C25 1_555 1_555
C27 C26 1_555 1_555
H16 C27 1_555 1_555
C28 C27 1_555 1_555
H17 C28 1_555 1_555
C29 C28 1_555 1_555
C30 C29 1_555 1_555
H18 C30 1_555 1_555
C31 C30 1_555 1_555
H19 C31 1_555 1_555
C32 N6 1_555 1_555
H20 C32 1_555 1_555
C33 N6 1_555 1_555
C34 N5 1_555 1_555
C35 N7 1_555 1_555
H21 C35 1_555 1_555
C36 C35 1_555 1_555
H22 C36 1_555 1_555
C37 C36 1_555 1_555
H23 C37 1_555 1_555
C38 C37 1_555 1_555
C39 C38 1_555 1_555
H24 C39 1_555 1_555
C40 C39 1_555 1_555
H25 C40 1_555 1_555
C41 C40 1_555 1_555
C42 C41 1_555 1_555
H26 C42 1_555 1_555
C43 C42 1_555 1_555
H27 C43 1_555 1_555
C44 N8 1_555 1_555
H28 C44 1_555 1_555
C45 N8 1_555 1_555
C46 N7 1_555 1_555
Cd2A O8 1_555 1_555
O8A Cd2 1_555 1_555
N4A Cd2 1_555 1_555
O6 C15 1_555 1_555
N2 C1 1_555 1_555
N4 Cd2A 1_555 1_555
C2 C3 1_555 1_555
C2 C4 1_555 1_555
C10 C11 1_555 1_555
C13 C14 1_555 1_555
C13 C15 1_555 1_555
C21 C22 1_555 1_555
C26 C34 1_555 1_555
C29 C33 1_555 1_555
C31 C32 1_555 1_555
C33 C34 1_555 1_555
C38 C46 1_555 1_555
C41 C45 1_555 1_555
C43 C44 1_555 1_555
C45 C46 1_555 1_555

#END
