
#######################################################################
#
#                 Cambridge Crystallographic Data Centre
#                                CCDC 
#
#######################################################################
#
# If this CIF has been generated from an entry in the Cambridge 
# Structural Database, then it will include bibliographic, chemical, 
# crystal, experimental, refinement or atomic coordinate data resulting 
# from the CCDC's data processing and validation procedures.
#
#######################################################################

data_ETEBOV
_symmetry_cell_setting           orthorhombic
_symmetry_space_group_name_H-M   'F d d 2'
_symmetry_Int_Tables_number      43
_space_group_name_Hall           'F 2 -2d'
loop_
_symmetry_equiv_pos_site_id
_symmetry_equiv_pos_as_xyz
1 x,y,z
2 -x,-y,z
3 1/4+x,1/4-y,1/4+z
4 1/4-x,1/4+y,1/4+z
5 x,1/2+y,1/2+z
6 -x,1/2-y,1/2+z
7 1/4+x,3/4-y,3/4+z
8 1/4-x,3/4+y,3/4+z
9 1/2+x,y,1/2+z
10 1/2-x,-y,1/2+z
11 3/4+x,1/4-y,3/4+z
12 3/4-x,1/4+y,3/4+z
13 1/2+x,1/2+y,z
14 1/2-x,1/2-y,z
15 3/4+x,3/4-y,1/4+z
16 3/4-x,3/4+y,1/4+z
_cell_length_a                   27.280(3)
_cell_length_b                   31.413(4)
_cell_length_c                   6.6156(8)
_cell_angle_alpha                90
_cell_angle_beta                 90
_cell_angle_gamma                90
_cell_volume                     5669.22
loop_
_atom_site_label
_atom_site_type_symbol
_atom_site_fract_x
_atom_site_fract_y
_atom_site_fract_z
Sr1 Sr 0.7500 0.7500 0.12585(6)
O1 O 0.57704(6) 0.54118(5) -0.0070(3)
O2 O 0.58069(7) 0.60161(5) -0.1794(3)
O3 O 0.62396(8) 0.66954(5) -0.1543(3)
H1 H 0.6092 0.6468 -0.1550
O4 O 0.68262(7) 0.69950(5) 0.0227(3)
O5 O 0.78382(7) 0.70767(5) -0.1994(3)
H2 H 0.8087 0.7215 -0.2400
H3 H 0.7933 0.6835 -0.1568
O6 O 0.72497(7) 0.70464(5) 0.4383(3)
H4 H 0.7373 0.7032 0.5562
H5 H 0.7175 0.6795 0.4018
N1 N 0.68999(7) 0.62882(5) 0.2778(3)
N2 N 0.64867(7) 0.56866(5) 0.2625(3)
H8 H 0.6388 0.5434 0.2919
C1 C 0.59398(10) 0.57729(7) -0.0331(4)
C2 C 0.63170(8) 0.59315(6) 0.1077(4)
C3 C 0.65816(8) 0.63043(6) 0.1206(4)
C4 C 0.65577(10) 0.66953(7) -0.0096(4)
C5 C 0.68347(8) 0.59067(6) 0.3614(4)
C6 C 0.71063(10) 0.57486(7) 0.5366(4)
C7 C 0.75810(12) 0.59035(9) 0.5676(5)
H9 H 0.7716 0.6099 0.4779
C8 C 0.78480(15) 0.57634(11) 0.7331(7)
H10 H 0.8163 0.5866 0.7548
C9 C 0.76511(16) 0.54751(11) 0.8646(6)
H11 H 0.7832 0.5387 0.9762
C10 C 0.71852(14) 0.53133(9) 0.8334(4)
H12 H 0.7053 0.5115 0.9223
C11 C 0.69196(10) 0.54514(7) 0.6680(4)
H13 H 0.6608 0.5341 0.6452
Sr1F Sr 1.0000 1.0000 -0.12415(6)
Sr1G Sr 0.5000 0.5000 -0.12415(6)
O1M O 0.92296(6) 0.95882(5) -0.0070(3)
O1B O 0.82704(6) 0.70882(5) 0.2430(3)
O1C O 0.67296(6) 0.79118(5) 0.2430(3)
O2M O 0.91931(7) 0.89839(5) -0.1794(3)
O3M O 0.87604(8) 0.83046(5) -0.1543(3)
H1M H 0.8908 0.8532 -0.1550
O4M O 0.81738(7) 0.80050(5) 0.0227(3)
O5M O 0.71618(7) 0.79233(5) -0.1994(3)
H2M H 0.6913 0.7785 -0.2400
H3M H 0.7067 0.8165 -0.1568
O6M O 0.77503(7) 0.79536(5) 0.4383(3)
H4M H 0.7627 0.7968 0.5562
H5M H 0.7825 0.8205 0.4018
N1M N 0.81001(7) 0.87118(5) 0.2778(3)
N2M N 0.85133(7) 0.93134(5) 0.2625(3)
H8M H 0.8612 0.9566 0.2919
C1M C 0.90602(10) 0.92271(7) -0.0331(4)
C2M C 0.86830(8) 0.90685(6) 0.1077(4)
C3M C 0.84184(8) 0.86957(6) 0.1206(4)
C4M C 0.84423(10) 0.83047(7) -0.0096(4)
C5M C 0.81653(8) 0.90933(6) 0.3614(4)
C6M C 0.78937(10) 0.92514(7) 0.5366(4)
C7M C 0.74190(12) 0.90965(9) 0.5676(5)
H9M H 0.7284 0.8901 0.4779
C8M C 0.71520(15) 0.92366(11) 0.7331(7)
H10M H 0.6837 0.9134 0.7548
C9M C 0.73489(16) 0.95249(11) 0.8646(6)
H11M H 0.7168 0.9613 0.9762
C10M C 0.78148(14) 0.96867(9) 0.8334(4)
H12M H 0.7947 0.9885 0.9223
C11M C 0.80804(10) 0.95486(7) 0.6680(4)
H13M H 0.8392 0.9659 0.6452
O7 O 0.60740(6) 0.49165(4) 0.3642(4)
H6 H 0.6212 0.4717 0.4299
H7 H 0.5897 0.4819 0.2693
loop_
_geom_bond_atom_site_label_1
_geom_bond_atom_site_label_2
_geom_bond_site_symmetry_1
_geom_bond_site_symmetry_2
Sr1 O4 1_555 1_555
O1 C1 1_555 1_555
O2 C1 1_555 1_555
O3 H1 1_555 1_555
O4 C4 1_555 1_555
O5 Sr1 1_555 1_555
H2 O5 1_555 1_555
H3 O5 1_555 1_555
O6 Sr1 1_555 1_555
H4 O6 1_555 1_555
H5 O6 1_555 1_555
O7 H6 1_555 1_555
H7 O7 1_555 1_555
N1 C3 1_555 1_555
N2 H8 1_555 1_555
C1 C2 1_555 1_555
C2 N2 1_555 1_555
C3 C2 1_555 1_555
C4 O3 1_555 1_555
C5 N1 1_555 1_555
C6 C5 1_555 1_555
C7 C6 1_555 1_555
H9 C7 1_555 1_555
C8 C7 1_555 1_555
H10 C8 1_555 1_555
C9 C8 1_555 1_555
H11 C9 1_555 1_555
C10 C9 1_555 1_555
H12 C10 1_555 1_555
C11 C6 1_555 1_555
H13 C11 1_555 1_555
Sr1F O1M 1_555 1_555
Sr1G O1 1_555 1_555
O1M C1M 1_555 1_555
O1B Sr1 1_555 1_555
O1C Sr1 1_555 1_555
O2M C1M 1_555 1_555
O3M H1M 1_555 1_555
O4M Sr1 1_555 1_555
O5M Sr1 1_555 1_555
H2M O5M 1_555 1_555
H3M O5M 1_555 1_555
O6M Sr1 1_555 1_555
H4M O6M 1_555 1_555
H5M O6M 1_555 1_555
N1M C3M 1_555 1_555
N2M H8M 1_555 1_555
C1M C2M 1_555 1_555
C2M N2M 1_555 1_555
C3M C2M 1_555 1_555
C4M O3M 1_555 1_555
C5M N1M 1_555 1_555
C6M C5M 1_555 1_555
C7M C6M 1_555 1_555
H9M C7M 1_555 1_555
C8M C7M 1_555 1_555
H10M C8M 1_555 1_555
C9M C8M 1_555 1_555
H11M C9M 1_555 1_555
C10M C9M 1_555 1_555
H12M C10M 1_555 1_555
C11M C6M 1_555 1_555
H13M C11M 1_555 1_555
N2 C5 1_555 1_555
C3 C4 1_555 1_555
C10 C11 1_555 1_555
O4M C4M 1_555 1_555
N2M C5M 1_555 1_555
C3M C4M 1_555 1_555
C10M C11M 1_555 1_555

#END
