
#######################################################################
#
#                 Cambridge Crystallographic Data Centre
#                                CCDC 
#
#######################################################################
#
# If this CIF has been generated from an entry in the Cambridge 
# Structural Database, then it will include bibliographic, chemical, 
# crystal, experimental, refinement or atomic coordinate data resulting 
# from the CCDC's data processing and validation procedures.
#
#######################################################################

data_ETECOW
_symmetry_cell_setting           monoclinic
_symmetry_space_group_name_H-M   'C 2/c'
_symmetry_Int_Tables_number      15
_space_group_name_Hall           '-C 2yn'
loop_
_symmetry_equiv_pos_site_id
_symmetry_equiv_pos_as_xyz
1 x,y,z
2 -x,y,1/2-z
3 1/2+x,1/2+y,z
4 1/2-x,1/2+y,1/2-z
5 -x,-y,-z
6 x,-y,1/2+z
7 1/2-x,1/2-y,-z
8 1/2+x,1/2-y,1/2+z
_cell_length_a                   17.053(8)
_cell_length_b                   10.562(5)
_cell_length_c                   18.440(9)
_cell_angle_alpha                90
_cell_angle_beta                 99.51(3)
_cell_angle_gamma                90
_cell_volume                     3275.65
loop_
_atom_site_label
_atom_site_type_symbol
_atom_site_fract_x
_atom_site_fract_y
_atom_site_fract_z
Fe1 Fe 0.5000 0.76647(6) 0.7500
N1 N 0.46913(15) 0.7639(2) 0.85684(14)
C1 C 0.43269(18) 0.7609(3) 0.90445(17)
S1 S 0.37707(7) 0.75789(11) 0.96860(5)
N2 N 0.40538(14) 0.9109(2) 0.71364(15)
C2 C 0.34582(17) 0.9319(3) 0.75149(16)
H1 H 0.3518 0.9009 0.8004
C3 C 0.27648(17) 0.9956(3) 0.72413(17)
C4 C 0.2687(2) 1.0419(4) 0.6522(2)
H2 H 0.2214 1.0837 0.6304
C5 C 0.3306(3) 1.0261(5) 0.6134(3)
H3 H 0.3273 1.0599 0.5652
C6 C 0.3970(2) 0.9606(4) 0.6456(2)
H4 H 0.4391 0.9499 0.6183
N3 N 0.09175(14) 1.1161(2) 0.78571(14)
C7 C 0.15403(16) 1.0998(3) 0.75086(17)
H5 H 0.1586 1.1550 0.7111
C8 C 0.21187(17) 1.0090(3) 0.76844(17)
C9 C 0.2045(3) 0.9305(5) 0.8277(3)
H6 H 0.2430 0.8667 0.8428
C10 C 0.1408(3) 0.9464(5) 0.8644(3)
H7 H 0.1350 0.8937 0.9049
C11 C 0.0862(2) 1.0384(4) 0.8417(2)
H8 H 0.0423 1.0477 0.8669
Fe1B Fe 0.0000 1.26647(6) 0.7500
Fe1B_2 Fe 1.0000 1.26647(6) 0.7500
N1A N 0.53087(15) 0.7639(2) 0.64316(14)
C1A C 0.56731(18) 0.7609(3) 0.59555(17)
S1A S 0.62293(7) 0.75789(11) 0.53140(5)
N2A N 0.59462(14) 0.9109(2) 0.78636(15)
C2A C 0.65418(17) 0.9319(3) 0.74851(16)
H1A H 0.6482 0.9009 0.6996
C3A C 0.72352(17) 0.9956(3) 0.77587(17)
C4A C 0.7313(2) 1.0419(4) 0.8478(2)
H2A H 0.7786 1.0837 0.8696
C5A C 0.6694(3) 1.0261(5) 0.8866(3)
H3A H 0.6727 1.0599 0.9348
C6A C 0.6030(2) 0.9606(4) 0.8544(2)
H4A H 0.5609 0.9499 0.8817
N3A N 0.90825(14) 1.1161(2) 0.71429(14)
N3B N 0.59175(14) 0.6161(2) 0.78571(14)
N3C N 0.40825(14) 0.6161(2) 0.71429(14)
C7A C 0.84597(16) 1.0998(3) 0.74914(17)
H5A H 0.8414 1.1550 0.7889
C8A C 0.78813(17) 1.0090(3) 0.73156(17)
C9A C 0.7955(3) 0.9305(5) 0.6723(3)
H6A H 0.7570 0.8667 0.6572
C10A C 0.8592(3) 0.9464(5) 0.6356(3)
H7A H 0.8650 0.8937 0.5951
C11A C 0.9138(2) 1.0384(4) 0.6583(2)
H8A H 0.9577 1.0477 0.6331
Cl1 Cl 0.4304(2) 1.2511(2) 0.81970(14)
C12 C 0.4288(5) 1.2466(6) 0.9146(4)
H9 H 0.4851 1.2618 0.9382
Cl2 Cl 0.3469(9) 1.1615(12) 0.9305(4)
Cl3 Cl 0.4165(2) 1.4067(4) 0.9429(2)
Cl4? Cl 0.4086(3) 1.0880(4) 0.9376(2)
Cl5? Cl 0.3759(15) 1.349(2) 0.9544(9)
loop_
_geom_bond_atom_site_label_1
_geom_bond_atom_site_label_2
_geom_bond_site_symmetry_1
_geom_bond_site_symmetry_2
Fe1 N1 1_555 1_555
N1 C1 1_555 1_555
C1 S1 1_555 1_555
N2 Fe1 1_555 1_555
C2 N2 1_555 1_555
H1 C2 1_555 1_555
C3 C2 1_555 1_555
C4 C3 1_555 1_555
H2 C4 1_555 1_555
C5 C4 1_555 1_555
H3 C5 1_555 1_555
C6 N2 1_555 1_555
H4 C6 1_555 1_555
N3 C7 1_555 1_555
C7 H5 1_555 1_555
C8 C3 1_555 1_555
C9 C8 1_555 1_555
H6 C9 1_555 1_555
C10 C9 1_555 1_555
H7 C10 1_555 1_555
C11 N3 1_555 1_555
H8 C11 1_555 1_555
Cl1 C12 1_555 1_555
C12 H9 1_555 1_555
Cl2 C12 1_555 1_555
Cl3 C12 1_555 1_555
Fe1B N3 1_555 1_555
Fe1B_2 N3A 1_555 1_555
N1A Fe1 1_555 1_555
C1A N1A 1_555 1_555
S1A C1A 1_555 1_555
N2A Fe1 1_555 1_555
C2A N2A 1_555 1_555
H1A C2A 1_555 1_555
C3A C2A 1_555 1_555
C4A C3A 1_555 1_555
H2A C4A 1_555 1_555
C5A C4A 1_555 1_555
H3A C5A 1_555 1_555
C6A N2A 1_555 1_555
H4A C6A 1_555 1_555
N3A C7A 1_555 1_555
N3B Fe1 1_555 1_555
N3C Fe1 1_555 1_555
C7A H5A 1_555 1_555
C8A C3A 1_555 1_555
C9A C8A 1_555 1_555
H6A C9A 1_555 1_555
C10A C9A 1_555 1_555
H7A C10A 1_555 1_555
C11A N3A 1_555 1_555
H8A C11A 1_555 1_555
C5 C6 1_555 1_555
C7 C8 1_555 1_555
C10 C11 1_555 1_555
C5A C6A 1_555 1_555
C7A C8A 1_555 1_555
C10A C11A 1_555 1_555

#END
