
#######################################################################
#
#                 Cambridge Crystallographic Data Centre
#                                CCDC 
#
#######################################################################
#
# If this CIF has been generated from an entry in the Cambridge 
# Structural Database, then it will include bibliographic, chemical, 
# crystal, experimental, refinement or atomic coordinate data resulting 
# from the CCDC's data processing and validation procedures.
#
#######################################################################

data_ETECUC
_symmetry_cell_setting           monoclinic
_symmetry_space_group_name_H-M   'C 2/c'
_symmetry_Int_Tables_number      15
_space_group_name_Hall           '-C 2yn'
loop_
_symmetry_equiv_pos_site_id
_symmetry_equiv_pos_as_xyz
1 x,y,z
2 -x,y,1/2-z
3 1/2+x,1/2+y,z
4 1/2-x,1/2+y,1/2-z
5 -x,-y,-z
6 x,-y,1/2+z
7 1/2-x,1/2-y,-z
8 1/2+x,1/2-y,1/2+z
_cell_length_a                   17.1155(3)
_cell_length_b                   10.4757(2)
_cell_length_c                   18.5942(3)
_cell_angle_alpha                90
_cell_angle_beta                 98.9790(10)
_cell_angle_gamma                90
_cell_volume                     3293.03
loop_
_atom_site_label
_atom_site_type_symbol
_atom_site_fract_x
_atom_site_fract_y
_atom_site_fract_z
Fe1 Fe 0.0000 0.73639(6) 0.2500
S1 S 0.12557(6) 0.74905(9) 0.03367(5)
N1 N 0.09253(16) 0.5894(3) 0.28399(16)
N2 N 0.40936(16) 0.3876(3) 0.21540(16)
N3 N 0.03098(17) 0.7413(3) 0.14376(16)
C1 C 0.0974(2) 0.5351(4) 0.3495(2)
H1 H 0.0547 0.5457 0.3760
C2 C 0.1622(2) 0.4640(4) 0.3802(2)
H2 H 0.1631 0.4250 0.4265
C3 C 0.2257(2) 0.4503(4) 0.3429(2)
H3 H 0.2716 0.4050 0.3642
C4 C 0.22137(18) 0.5036(3) 0.27408(17)
C5 C 0.15273(18) 0.5705(3) 0.24675(18)
H4 H 0.1483 0.6048 0.1990
C6 C 0.34554(19) 0.4012(3) 0.24874(18)
H5 H 0.3399 0.3437 0.2871
C7 C 0.28745(18) 0.4930(3) 0.23111(17)
C8 C 0.2961(2) 0.5758(4) 0.1740(2)
H6 H 0.2580 0.6405 0.1597
C9 C 0.3613(2) 0.5620(4) 0.1385(2)
H7 H 0.3678 0.6163 0.0989
C10 C 0.4166(2) 0.4686(4) 0.1612(2)
H8 H 0.4616 0.4615 0.1373
C11 C 0.06849(19) 0.7448(3) 0.09665(18)
Fe1B Fe 0.5000 0.23639(6) 0.2500
Fe1B_2 Fe 0.5000 1.23639(6) 0.2500
S1A S -0.12557(6) 0.74905(9) 0.46633(5)
N1C N 0.40747(16) 1.0894(3) 0.21601(16)
N1A N -0.09253(16) 0.5894(3) 0.21601(16)
N2C N 0.09064(16) 0.8876(3) 0.28460(16)
N2B N -0.09064(16) 0.8876(3) 0.21540(16)
N3A N -0.03098(17) 0.7413(3) 0.35624(16)
C1C C 0.4026(2) 1.0351(4) 0.1505(2)
H1C H 0.4453 1.0457 0.1240
C2C C 0.3378(2) 0.9640(4) 0.1198(2)
H2C H 0.3369 0.9250 0.0735
C3C C 0.2743(2) 0.9503(4) 0.1571(2)
H3C H 0.2284 0.9050 0.1358
C4C C 0.27863(18) 1.0036(3) 0.22592(17)
C5C C 0.34727(18) 1.0705(3) 0.25325(18)
H4C H 0.3517 1.1048 0.3010
C6C C 0.15446(19) 0.9012(3) 0.25126(18)
H5C H 0.1601 0.8437 0.2129
C7C C 0.21255(18) 0.9930(3) 0.26889(17)
C8C C 0.2039(2) 1.0758(4) 0.3260(2)
H6C H 0.2420 1.1405 0.3403
C9C C 0.1387(2) 1.0620(4) 0.3615(2)
H7C H 0.1322 1.1163 0.4011
C10C C 0.0834(2) 0.9686(4) 0.3388(2)
H8C H 0.0384 0.9615 0.3627
C11A C -0.06849(19) 0.7448(3) 0.40335(18)
Br1 Br 0.09445(7) 0.08828(14) 0.05140(7)
C12 C 0.0847(13) 0.250(2) 0.0707(12)
H9 H 0.0351 0.2787 0.0392
Br2 Br 0.0705(3) 0.2527(5) 0.1711(3)
Br3 Br 0.1644(4) 0.3549(4) 0.05924(14)
Br4? Br 0.06391(10) 0.25109(13) 0.19077(9)
Br5? Br 0.10012(6) 0.41573(9) 0.05777(4)
Br6? Br 0.1127(4) 0.1222(5) 0.0425(3)
C13? C 0.0576(6) 0.2567(7) 0.0874(5)
H10? H -0.0003 0.2605 0.0681
loop_
_geom_bond_atom_site_label_1
_geom_bond_atom_site_label_2
_geom_bond_site_symmetry_1
_geom_bond_site_symmetry_2
Fe1 N1 1_555 1_555
S1 C11 1_555 1_555
N1 C1 1_555 1_555
N2 C6 1_555 1_555
N3 Fe1 1_555 1_555
C1 H1 1_555 1_555
C2 C1 1_555 1_555
H2 C2 1_555 1_555
C3 C2 1_555 1_555
H3 C3 1_555 1_555
C4 C3 1_555 1_555
C5 N1 1_555 1_555
H4 C5 1_555 1_555
C6 H5 1_555 1_555
C7 C4 1_555 1_555
C8 C7 1_555 1_555
H6 C8 1_555 1_555
C9 C8 1_555 1_555
H7 C9 1_555 1_555
C10 N2 1_555 1_555
H8 C10 1_555 1_555
C11 N3 1_555 1_555
Br1 C12 1_555 1_555
C12 H9 1_555 1_555
Br2 C12 1_555 1_555
Br3 C12 1_555 1_555
Fe1B N2 1_555 1_555
Fe1B_2 N1C 1_555 1_555
S1A C11A 1_555 1_555
N1C C1C 1_555 1_555
N1A Fe1 1_555 1_555
N2C Fe1 1_555 1_555
N2B Fe1 1_555 1_555
N3A Fe1 1_555 1_555
C1C H1C 1_555 1_555
C2C C1C 1_555 1_555
H2C C2C 1_555 1_555
C3C C2C 1_555 1_555
H3C C3C 1_555 1_555
C4C C3C 1_555 1_555
C5C N1C 1_555 1_555
H4C C5C 1_555 1_555
C6C N2C 1_555 1_555
H5C C6C 1_555 1_555
C7C C4C 1_555 1_555
C8C C7C 1_555 1_555
H6C C8C 1_555 1_555
C9C C8C 1_555 1_555
H7C C9C 1_555 1_555
C10C N2C 1_555 1_555
H8C C10C 1_555 1_555
C11A N3A 1_555 1_555
C4 C5 1_555 1_555
C6 C7 1_555 1_555
C9 C10 1_555 1_555
C4C C5C 1_555 1_555
C6C C7C 1_555 1_555
C9C C10C 1_555 1_555

#END
