
#######################################################################
#
#                 Cambridge Crystallographic Data Centre
#                                CCDC 
#
#######################################################################
#
# If this CIF has been generated from an entry in the Cambridge 
# Structural Database, then it will include bibliographic, chemical, 
# crystal, experimental, refinement or atomic coordinate data resulting 
# from the CCDC's data processing and validation procedures.
#
#######################################################################

data_ETEDAJ
_symmetry_cell_setting           monoclinic
_symmetry_space_group_name_H-M   'P 21/n'
_symmetry_Int_Tables_number      14
_space_group_name_Hall           '-P 2yn'
loop_
_symmetry_equiv_pos_site_id
_symmetry_equiv_pos_as_xyz
1 x,y,z
2 1/2-x,1/2+y,1/2-z
3 -x,-y,-z
4 1/2+x,1/2-y,1/2+z
_cell_length_a                   9.8578(13)
_cell_length_b                   12.8582(15)
_cell_length_c                   13.1284(16)
_cell_angle_alpha                90
_cell_angle_beta                 96.601(6)
_cell_angle_gamma                90
_cell_volume                     1653.04
loop_
_atom_site_label
_atom_site_type_symbol
_atom_site_fract_x
_atom_site_fract_y
_atom_site_fract_z
Fe1 Fe 0.0000 0.0000 0.0000
N1 N 0.0832(3) 0.00248(18) -0.14345(19)
C1 C 0.0925(3) 0.0089(2) -0.2298(2)
Se1 Se 0.09739(4) 0.01900(3) -0.36551(2)
N2 N 0.1605(3) -0.11699(18) 0.06170(18)
C2 C 0.1789(3) -0.1459(2) 0.1604(2)
H1 H 0.1205 -0.1166 0.2054
C3 C 0.2785(3) -0.2163(2) 0.2012(2)
C4 C 0.3640(4) -0.2575(3) 0.1349(3)
H2 H 0.4346 -0.3046 0.1595
C5 C 0.3460(4) -0.2295(3) 0.0332(3)
H3 H 0.4031 -0.2578 -0.0134
C6 C 0.2439(4) -0.1598(3) -0.0004(2)
H4 H 0.2321 -0.1414 -0.0710
N3 N 0.3667(3) -0.36687(18) 0.44436(18)
C7 C 0.3506(3) -0.3366(2) 0.3458(2)
H5 H 0.3830 -0.3815 0.2965
C8 C 0.2896(3) -0.2437(2) 0.3115(2)
C9 C 0.2403(4) -0.1805(3) 0.3845(2)
H6 H 0.1986 -0.1158 0.3652
C10 C 0.2522(4) -0.2125(3) 0.4857(3)
H7 H 0.2172 -0.1708 0.5364
C11 C 0.3150(4) -0.3051(2) 0.5119(2)
H8 H 0.3222 -0.3265 0.5816
Fe1A Fe -0.5000 0.5000 -0.5000
Fe1A_2 Fe 0.5000 -0.5000 0.5000
N1B N -0.0832(3) -0.00248(18) 0.14345(19)
C1B C -0.0925(3) -0.0089(2) 0.2298(2)
Se1B Se -0.09739(4) -0.01900(3) 0.36551(2)
N2B N -0.1605(3) 0.11699(18) -0.06170(18)
C2B C -0.1789(3) 0.1459(2) -0.1604(2)
H1B H -0.1205 0.1166 -0.2054
C3B C -0.2785(3) 0.2163(2) -0.2012(2)
C4B C -0.3640(4) 0.2575(3) -0.1349(3)
H2B H -0.4346 0.3046 -0.1595
C5B C -0.3460(4) 0.2295(3) -0.0332(3)
H3B H -0.4031 0.2578 0.0134
C6B C -0.2439(4) 0.1598(3) 0.0004(2)
H4B H -0.2321 0.1414 0.0710
N3B N -0.3667(3) 0.36687(18) -0.44436(18)
N3A N 0.1333(3) 0.13313(18) 0.05564(18)
N3C N -0.1333(3) -0.13313(18) -0.05564(18)
C7B C -0.3506(3) 0.3366(2) -0.3458(2)
H5B H -0.3830 0.3815 -0.2965
C8B C -0.2896(3) 0.2437(2) -0.3115(2)
C9B C -0.2403(4) 0.1805(3) -0.3845(2)
H6B H -0.1986 0.1158 -0.3652
C10B C -0.2522(4) 0.2125(3) -0.4857(3)
H7B H -0.2172 0.1708 -0.5364
C11B C -0.3150(4) 0.3051(2) -0.5119(2)
H8B H -0.3222 0.3265 -0.5816
C12 C -0.0557(4) 0.5702(3) 0.2411(4)
H9 H -0.1429 0.5347 0.2146
Cl1 Cl 0.05914(16) 0.55966(14) 0.14866(13)
Cl2 Cl 0.01115(19) 0.51002(13) 0.35619(16)
Cl3 Cl -0.09056(12) 0.70006(8) 0.26465(8)
loop_
_geom_bond_atom_site_label_1
_geom_bond_atom_site_label_2
_geom_bond_site_symmetry_1
_geom_bond_site_symmetry_2
Fe1 N1 1_555 1_555
N1 C1 1_555 1_555
C1 Se1 1_555 1_555
N2 Fe1 1_555 1_555
C2 N2 1_555 1_555
H1 C2 1_555 1_555
C3 C2 1_555 1_555
C4 C3 1_555 1_555
H2 C4 1_555 1_555
C5 C4 1_555 1_555
H3 C5 1_555 1_555
C6 N2 1_555 1_555
H4 C6 1_555 1_555
N3 C7 1_555 1_555
C7 H5 1_555 1_555
C8 C3 1_555 1_555
C9 C8 1_555 1_555
H6 C9 1_555 1_555
C10 C9 1_555 1_555
H7 C10 1_555 1_555
C11 N3 1_555 1_555
H8 C11 1_555 1_555
C12 H9 1_555 1_555
Cl1 C12 1_555 1_555
Cl2 C12 1_555 1_555
Cl3 C12 1_555 1_555
Fe1A N3B 1_555 1_555
Fe1A_2 N3 1_555 1_555
N1B Fe1 1_555 1_555
C1B N1B 1_555 1_555
Se1B C1B 1_555 1_555
N2B Fe1 1_555 1_555
C2B N2B 1_555 1_555
H1B C2B 1_555 1_555
C3B C2B 1_555 1_555
C4B C3B 1_555 1_555
H2B C4B 1_555 1_555
C5B C4B 1_555 1_555
H3B C5B 1_555 1_555
C6B N2B 1_555 1_555
H4B C6B 1_555 1_555
N3B C7B 1_555 1_555
N3A Fe1 1_555 1_555
N3C Fe1 1_555 1_555
C7B H5B 1_555 1_555
C8B C3B 1_555 1_555
C9B C8B 1_555 1_555
H6B C9B 1_555 1_555
C10B C9B 1_555 1_555
H7B C10B 1_555 1_555
C11B N3B 1_555 1_555
H8B C11B 1_555 1_555
C5 C6 1_555 1_555
C7 C8 1_555 1_555
C10 C11 1_555 1_555
C5B C6B 1_555 1_555
C7B C8B 1_555 1_555
C10B C11B 1_555 1_555

#END
