
#######################################################################
#
#                 Cambridge Crystallographic Data Centre
#                                CCDC 
#
#######################################################################
#
# If this CIF has been generated from an entry in the Cambridge 
# Structural Database, then it will include bibliographic, chemical, 
# crystal, experimental, refinement or atomic coordinate data resulting 
# from the CCDC's data processing and validation procedures.
#
#######################################################################

data_ETEGUG
_symmetry_cell_setting           monoclinic
_symmetry_space_group_name_H-M   'P 21/n'
_symmetry_Int_Tables_number      14
_space_group_name_Hall           '-P 2yn'
loop_
_symmetry_equiv_pos_site_id
_symmetry_equiv_pos_as_xyz
1 x,y,z
2 1/2-x,1/2+y,1/2-z
3 -x,-y,-z
4 1/2+x,1/2-y,1/2+z
_cell_length_a                   10.7789(3)
_cell_length_b                   8.2923(2)
_cell_length_c                   19.6538(5)
_cell_angle_alpha                90
_cell_angle_beta                 95.031(1)
_cell_angle_gamma                90
_cell_volume                     1749.93
loop_
_atom_site_label
_atom_site_type_symbol
_atom_site_fract_x
_atom_site_fract_y
_atom_site_fract_z
In1 In 0.25074(5) 1.01060(7) 0.25027(3)
C1 C 0.3979(13) 0.9214(14) 0.3594(7)
C2 C 0.4576(15) 0.8455(16) 0.4228(6)
C3 C 0.5746(18) 0.7571(15) 0.4204(10)
C4 C 0.611(2) 0.693(2) 0.4852(10)
H1 H 0.6872 0.6398 0.4895
C5 C 0.552(2) 0.700(2) 0.5400(10)
H2 H 0.5858 0.6531 0.5803
C6 C 0.443(3) 0.774(2) 0.5388(11)
H3 H 0.3996 0.7700 0.5777
C7 C 0.3902(17) 0.857(2) 0.4828(7)
H4 H 0.3168 0.9152 0.4837
C8 C 0.6441(12) 0.7455(13) 0.3621(11)
C9 C 0.7685(17) 0.800(2) 0.3774(11)
H5 H 0.7957 0.8490 0.4187
C10 C 0.849(2) 0.775(3) 0.3235(19)
H6 H 0.9311 0.8094 0.3306
C11 C 0.812(2) 0.704(3) 0.2639(18)
H7 H 0.8671 0.6947 0.2302
C12 C 0.6954(15) 0.647(2) 0.2528(10)
H8 H 0.6704 0.5945 0.2121
C13 C 0.6115(13) 0.6657(17) 0.3027(9)
C14 C 0.4761(11) 0.5922(13) 0.2844(6)
C15 C 0.444(2) 0.906(2) 0.1446(9)
H9 H 0.4679 0.8321 0.1789
C16 C 0.503(2) 0.901(3) 0.0850(9)
H10 H 0.5667 0.8261 0.0812
C17 C 0.4709(19) 1.0013(17) 0.0323(9)
C18 C 0.3849(16) 1.1138(19) 0.0446(7)
H11 H 0.3622 1.1915 0.0117
C19 C 0.3301(15) 1.1140(18) 0.1062(7)
H12 H 0.2717 1.1936 0.1132
O1 O 0.4447(6) 0.9418(9) 0.3056(4)
O2 O 0.2785(11) 0.9597(11) 0.3620(4)
O3 O 0.2982(7) 1.2588(6) 0.2654(4)
H13 H 0.373(7) 1.272(12) 0.299(5)
O4 O 0.4475(8) 0.5662(11) 0.2223(5)
O5 O 0.4121(8) 0.5751(11) 0.3289(5)
N1 N 0.3566(12) 1.0075(11) 0.1551(6)
In1A In 0.24926(5) 1.51060(7) 0.24973(3)
In1A_2 In 0.24926(5) 0.51060(7) 0.24973(3)
In1B In 0.74926(5) 0.98940(7) -0.25027(3)
C1A C 0.1021(13) 1.4214(14) 0.1406(7)
C2A C 0.0424(15) 1.3455(16) 0.0772(6)
C3A C -0.0746(18) 1.2571(15) 0.0796(10)
C4A C -0.111(2) 1.193(2) 0.0148(10)
H1A H -0.1872 1.1398 0.0105
C5A C -0.052(2) 1.200(2) -0.0400(10)
H2A H -0.0858 1.1531 -0.0803
C6A C 0.057(3) 1.274(2) -0.0388(11)
H3A H 0.1004 1.2700 -0.0777
C7A C 0.1098(17) 1.357(2) 0.0172(7)
H4A H 0.1832 1.4152 0.0163
C8A C -0.1441(12) 1.2455(13) 0.1379(11)
C9A C -0.2685(17) 1.300(2) 0.1226(11)
H5A H -0.2957 1.3490 0.0813
C10A C -0.349(2) 1.275(3) 0.1765(19)
H6A H -0.4311 1.3094 0.1694
C11A C -0.312(2) 1.204(3) 0.2361(18)
H7A H -0.3671 1.1947 0.2698
C12A C -0.1954(15) 1.147(2) 0.2472(10)
H8A H -0.1704 1.0945 0.2879
C13A C -0.1115(13) 1.1657(17) 0.1973(9)
C14A C 0.0239(11) 1.0922(13) 0.2156(6)
C15B C 0.556(2) 1.094(2) -0.1446(9)
H9B H 0.5321 1.1679 -0.1789
C16B C 0.497(2) 1.099(3) -0.0850(9)
H10B H 0.4333 1.1739 -0.0812
C17B C 0.5291(19) 0.9987(17) -0.0323(9)
C18B C 0.6151(16) 0.8862(19) -0.0446(7)
H11B H 0.6378 0.8085 -0.0117
C19B C 0.6699(15) 0.8860(18) -0.1062(7)
H12B H 0.7283 0.8064 -0.1132
O1A O 0.0553(6) 1.4418(9) 0.1944(4)
O2A O 0.2215(11) 1.4597(11) 0.1380(4)
O3A O 0.2018(7) 0.7588(6) 0.2346(4)
O3A_2 O 0.2018(7) 1.7588(6) 0.2346(4)
H13A H 0.127(7) 0.772(12) 0.201(5)
H13A_2 H 0.127(7) 1.772(12) 0.201(5)
O4A O 0.0525(8) 1.0662(11) 0.2777(5)
O4_2 O 0.4475(8) 1.5662(11) 0.2223(5)
O5A O 0.0879(8) 1.0751(11) 0.1711(5)
O5_2 O 0.4121(8) 1.5751(11) 0.3289(5)
N1B N 0.6434(12) 0.9925(11) -0.1551(6)
N1A N 0.1434(12) 1.5075(11) 0.3449(6)
O6 O 0.052(5) 0.043(7) 0.441(3)
loop_
_geom_bond_atom_site_label_1
_geom_bond_atom_site_label_2
_geom_bond_site_symmetry_1
_geom_bond_site_symmetry_2
In1 O1 1_555 1_555
C1 C2 1_555 1_555
C2 C3 1_555 1_555
C3 C4 1_555 1_555
C4 H1 1_555 1_555
C5 C4 1_555 1_555
H2 C5 1_555 1_555
C6 C5 1_555 1_555
H3 C6 1_555 1_555
C7 C2 1_555 1_555
H4 C7 1_555 1_555
C8 C3 1_555 1_555
C9 C8 1_555 1_555
H5 C9 1_555 1_555
C10 C9 1_555 1_555
H6 C10 1_555 1_555
C11 C10 1_555 1_555
H7 C11 1_555 1_555
C12 C11 1_555 1_555
H8 C12 1_555 1_555
C13 C8 1_555 1_555
C14 C13 1_555 1_555
C15 H9 1_555 1_555
C16 C15 1_555 1_555
H10 C16 1_555 1_555
C17 C16 1_555 1_555
C18 C17 1_555 1_555
H11 C18 1_555 1_555
C19 C18 1_555 1_555
H12 C19 1_555 1_555
O1 C1 1_555 1_555
O2 In1 1_555 1_555
O3 In1 1_555 1_555
H13 O3 1_555 1_555
O4 C14 1_555 1_555
O5 C14 1_555 1_555
N1 In1 1_555 1_555
In1A O3 1_555 1_555
In1A_2 O4 1_555 1_555
In1B N1B 1_555 1_555
C1A C2A 1_555 1_555
C2A C3A 1_555 1_555
C3A C4A 1_555 1_555
C4A H1A 1_555 1_555
C5A C4A 1_555 1_555
H2A C5A 1_555 1_555
C6A C5A 1_555 1_555
H3A C6A 1_555 1_555
C7A C2A 1_555 1_555
H4A C7A 1_555 1_555
C8A C3A 1_555 1_555
C9A C8A 1_555 1_555
H5A C9A 1_555 1_555
C10A C9A 1_555 1_555
H6A C10A 1_555 1_555
C11A C10A 1_555 1_555
H7A C11A 1_555 1_555
C12A C11A 1_555 1_555
H8A C12A 1_555 1_555
C13A C8A 1_555 1_555
C14A C13A 1_555 1_555
C15B H9B 1_555 1_555
C16B C15B 1_555 1_555
H10B C16B 1_555 1_555
C17B C17 1_555 1_555
C18B C17B 1_555 1_555
H11B C18B 1_555 1_555
C19B C18B 1_555 1_555
H12B C19B 1_555 1_555
O1A In1A 1_555 1_555
O2A In1A 1_555 1_555
O3A In1 1_555 1_555
O3A_2 In1A 1_555 1_555
H13A O3A 1_555 1_555
H13A_2 O3A_2 1_555 1_555
O4A In1 1_555 1_555
O4_2 In1A 1_555 1_555
O5A In1 1_555 1_555
O5_2 In1A 1_555 1_555
N1B C15B 1_555 1_555
N1A In1A 1_555 1_555
C1 O2 1_555 1_555
C6 C7 1_555 1_555
C12 C13 1_555 1_555
C15 N1 1_555 1_555
C19 N1 1_555 1_555
O5 In1A_2 1_555 1_555
In1A_2 O3A 1_555 1_555
C1A O1A 1_555 1_555
C1A O2A 1_555 1_555
C6A C7A 1_555 1_555
C12A C13A 1_555 1_555
C14A O4A 1_555 1_555
C14A O5A 1_555 1_555
C16B C17B 1_555 1_555
C19B N1B 1_555 1_555

#END
