
#######################################################################
#
#                 Cambridge Crystallographic Data Centre
#                                CCDC 
#
#######################################################################
#
# If this CIF has been generated from an entry in the Cambridge 
# Structural Database, then it will include bibliographic, chemical, 
# crystal, experimental, refinement or atomic coordinate data resulting 
# from the CCDC's data processing and validation procedures.
#
#######################################################################

data_ETEHUH
_symmetry_cell_setting           triclinic
_symmetry_space_group_name_H-M   'P -1'
_symmetry_Int_Tables_number      2
_space_group_name_Hall           '-P 1'
loop_
_symmetry_equiv_pos_site_id
_symmetry_equiv_pos_as_xyz
1 x,y,z
2 -x,-y,-z
_cell_length_a                   8.9767(9)
_cell_length_b                   10.1680(11)
_cell_length_c                   11.8647(12)
_cell_angle_alpha                68.4050(10)
_cell_angle_beta                 84.3380(10)
_cell_angle_gamma                78.1870(10)
_cell_volume                     985.288
loop_
_atom_site_label
_atom_site_type_symbol
_atom_site_fract_x
_atom_site_fract_y
_atom_site_fract_z
Co1 Co 0.35524(3) 0.84583(3) 1.05583(2)
O1 O 0.16079(17) 0.72915(16) 1.11845(15)
O2 O 0.36937(18) 0.64099(16) 1.03982(16)
O3 O 0.42329(17) 0.15491(17) 1.00284(16)
O4 O 0.25043(17) 0.02107(15) 1.09653(14)
N1 N 0.2776(2) 0.95466(19) 0.87250(17)
N2 N 0.5607(2) 1.2461(2) 0.76045(17)
C1 C 0.1769(2) 0.49577(19) 1.10636(17)
C2 C 0.2660(2) 0.3845(2) 1.07389(17)
H1 H 0.3623 0.3939 1.0384
C3 C 0.2090(2) 0.25902(19) 1.09526(16)
C4 C 0.0642(2) 0.2464(2) 1.14908(18)
H2 H 0.0272 0.1624 1.1638
C5 C -0.0258(2) 0.3568(2) 1.18103(19)
C6 C 0.0325(2) 0.4820(2) 1.15850(18)
H3 H -0.0263 0.5572 1.1787
C7 C 0.2385(2) 0.6303(2) 1.08684(18)
C8 C 0.3024(2) 0.1363(2) 1.06235(17)
C9 C -0.1822(3) 0.3404(3) 1.2381(3)
H4 H -0.2570 0.3820 1.1762
H5 H -0.2033 0.3886 1.2955
H6 H -0.1858 0.2401 1.2788
C10 C 0.3626(3) 0.9313(2) 0.7798(2)
H7 H 0.4507 0.8617 0.7974
C11 C 0.3261(3) 1.0051(3) 0.6600(2)
H8 H 0.3892 0.9846 0.5992
C12 C 0.1951(3) 1.1103(3) 0.6293(2)
C13 C 0.1052(3) 1.1317(3) 0.7254(2)
H9 H 0.0151 1.1989 0.7102
C14 C 0.1487(3) 1.0539(3) 0.8434(2)
H10 H 0.0862 1.0706 0.9059
C15 C 0.1518(3) 1.1966(4) 0.4985(3)
H11 H 0.0797 1.2827 0.4964
H12 H 0.1001 1.1401 0.4702
C16 C 0.2840(4) 1.2420(4) 0.4092(3)
H13 H 0.3662 1.1597 0.4236
H14 H 0.2498 1.2683 0.3274
C17 C 0.3467(5) 1.3676(4) 0.4167(3)
H15 H 0.4184 1.3972 0.3495
H16 H 0.2635 1.4481 0.4074
C18 C 0.4224(3) 1.3287(3) 0.7375(2)
H17 H 0.3703 1.3572 0.7988
C19 C 0.3531(3) 1.3736(3) 0.6275(3)
H18 H 0.2569 1.4313 0.6164
C20 C 0.4256(3) 1.3335(3) 0.5340(2)
C21 C 0.5726(3) 1.2528(3) 0.5558(2)
H19 H 0.6285 1.2268 0.4946
C22 C 0.6351(3) 1.2114(3) 0.6680(2)
H20 H 0.7329 1.1571 0.6805
Co1A Co 0.64476(3) 0.15417(3) 0.94417(2)
Co1_2 Co 0.35524(3) -0.15417(3) 1.05583(2)
Co1A_2 Co 0.64476(3) 1.15417(3) 0.94417(2)
O3A O 0.57671(17) 0.84509(17) 0.99716(16)
O4_2 O 0.25043(17) 1.02107(15) 1.09653(14)
N2A N 0.4393(2) 0.7539(2) 1.23955(17)
loop_
_geom_bond_atom_site_label_1
_geom_bond_atom_site_label_2
_geom_bond_site_symmetry_1
_geom_bond_site_symmetry_2
Co1 O1 1_555 1_555
O1 C7 1_555 1_555
O2 Co1 1_555 1_555
O3 C8 1_555 1_555
O4 C8 1_555 1_555
N1 Co1 1_555 1_555
N2 C18 1_555 1_555
C1 C2 1_555 1_555
C2 H1 1_555 1_555
C3 C2 1_555 1_555
C4 C3 1_555 1_555
H2 C4 1_555 1_555
C5 C4 1_555 1_555
C6 C1 1_555 1_555
H3 C6 1_555 1_555
C7 O2 1_555 1_555
C8 C3 1_555 1_555
C9 C5 1_555 1_555
H4 C9 1_555 1_555
H5 C9 1_555 1_555
H6 C9 1_555 1_555
C10 N1 1_555 1_555
H7 C10 1_555 1_555
C11 C10 1_555 1_555
H8 C11 1_555 1_555
C12 C11 1_555 1_555
C13 C12 1_555 1_555
H9 C13 1_555 1_555
C14 N1 1_555 1_555
H10 C14 1_555 1_555
C15 C12 1_555 1_555
H11 C15 1_555 1_555
H12 C15 1_555 1_555
C16 C15 1_555 1_555
H13 C16 1_555 1_555
H14 C16 1_555 1_555
C17 C16 1_555 1_555
H15 C17 1_555 1_555
H16 C17 1_555 1_555
C18 H17 1_555 1_555
C19 C18 1_555 1_555
H18 C19 1_555 1_555
C20 C17 1_555 1_555
C21 C20 1_555 1_555
H19 C21 1_555 1_555
C22 N2 1_555 1_555
H20 C22 1_555 1_555
Co1A O3 1_555 1_555
Co1_2 O4 1_555 1_555
Co1A_2 N2 1_555 1_555
O3A Co1 1_555 1_555
O4_2 Co1 1_555 1_555
N2A Co1 1_555 1_555
C1 C7 1_555 1_555
C5 C6 1_555 1_555
C13 C14 1_555 1_555
C19 C20 1_555 1_555
C21 C22 1_555 1_555

#END
