
#######################################################################
#
#                 Cambridge Crystallographic Data Centre
#                                CCDC 
#
#######################################################################
#
# If this CIF has been generated from an entry in the Cambridge 
# Structural Database, then it will include bibliographic, chemical, 
# crystal, experimental, refinement or atomic coordinate data resulting 
# from the CCDC's data processing and validation procedures.
#
#######################################################################

data_ETEHOB
_symmetry_cell_setting           triclinic
_symmetry_space_group_name_H-M   'P -1'
_symmetry_Int_Tables_number      2
_space_group_name_Hall           '-P 1'
loop_
_symmetry_equiv_pos_site_id
_symmetry_equiv_pos_as_xyz
1 x,y,z
2 -x,-y,-z
_cell_length_a                   9.808(3)
_cell_length_b                   10.109(3)
_cell_length_c                   10.965(3)
_cell_angle_alpha                77.197(4)
_cell_angle_beta                 81.634(4)
_cell_angle_gamma                68.888(4)
_cell_volume                     986.401
loop_
_atom_site_label
_atom_site_type_symbol
_atom_site_fract_x
_atom_site_fract_y
_atom_site_fract_z
Co1 Co 0.04168(7) 0.63678(6) 0.61788(5)
O1 O 0.1202(3) 0.4190(3) 0.6741(2)
O2 O 0.0950(3) 0.3272(3) 0.5149(2)
O3 O 0.0020(3) -0.1460(3) 0.6305(3)
O4 O 0.1550(3) -0.3132(3) 0.7585(3)
N1 N 0.2224(4) 0.6436(4) 0.4786(3)
N2 N 0.8610(4) 0.6378(4) -0.2397(3)
C1 C 0.1294(4) 0.1760(4) 0.7161(4)
C2 C 0.1072(4) 0.0638(4) 0.6764(4)
H1 H 0.0818 0.0765 0.5950
C3 C 0.1227(5) -0.0661(4) 0.7573(4)
C4 C 0.1622(5) -0.0848(5) 0.8787(4)
H2 H 0.1757 -0.1734 0.9318
C5 C 0.1818(5) 0.0248(5) 0.9220(4)
C6 C 0.1643(5) 0.1550(4) 0.8391(4)
H3 H 0.1763 0.2303 0.8669
C7 C 0.1128(4) 0.3175(4) 0.6282(4)
C8 C 0.0907(5) -0.1822(5) 0.7133(4)
C9 C 0.2201(6) 0.0076(5) 1.0542(4)
H4 H 0.1954 -0.0715 1.1062
H5 H 0.1662 0.0946 1.0860
H6 H 0.3233 -0.0112 1.0545
C10 C 0.2497(5) 0.7655(5) 0.4309(4)
H7 H 0.1919 0.8486 0.4614
C11 C 0.3597(5) 0.7748(5) 0.3381(4)
H8 H 0.3752 0.8624 0.3093
C12 C 0.4459(5) 0.6560(5) 0.2884(4)
C13 C 0.4198(6) 0.5294(6) 0.3395(5)
H9 H 0.4776 0.4447 0.3115
C14 C 0.3085(6) 0.5273(5) 0.4319(5)
H10 H 0.2926 0.4403 0.4634
C15 C 0.5622(5) 0.6637(6) 0.1838(4)
H11 H 0.6549 0.5913 0.2084
H12 H 0.5733 0.7576 0.1698
C16 C 0.5253(5) 0.6399(6) 0.0635(4)
H13 H 0.4343 0.7148 0.0378
H14 H 0.5093 0.5481 0.0792
C17 C 0.7283(5) 0.7353(5) -0.2469(4)
H15 H 0.7086 0.8048 -0.3195
C18 C 0.6167(5) 0.7407(6) -0.1531(4)
H16 H 0.5250 0.8113 -0.1640
C19 C 0.6423(5) 0.6403(5) -0.0431(4)
C20 C 0.7816(6) 0.5395(5) -0.0341(4)
H17 H 0.8050 0.4701 0.0382
C21 C 0.8858(5) 0.5418(5) -0.1326(4)
H18 H 0.9787 0.4727 -0.1242
Co1A Co -0.04168(7) 0.36322(6) 0.38212(5)
Co1_2 Co 0.04168(7) -0.36322(6) 0.61788(5)
Co1_3 Co 1.04168(7) 0.63678(6) -0.38212(5)
Co1A_2 Co -1.04168(7) 0.36322(6) 1.38212(5)
Co1A_3 Co -0.04168(7) 1.36322(6) 0.38212(5)
O1A O -0.1202(3) 0.5810(3) 0.3259(2)
O2A O -0.0950(3) 0.6728(3) 0.4851(2)
O3A O -0.0020(3) 1.1460(3) 0.3695(3)
O3_2 O 0.0020(3) 0.8540(3) 0.6305(3)
O3A_2 O -0.0020(3) 0.1460(3) 0.3695(3)
O4A O -0.1550(3) 1.3132(3) 0.2415(3)
O4_2 O 0.1550(3) 0.6868(3) 0.7585(3)
O4A_2 O -0.1550(3) 0.3132(3) 0.2415(3)
N1A N -0.2224(4) 0.3564(4) 0.5214(3)
N2A N -0.8610(4) 0.3622(4) 1.2397(3)
N2_2 N -0.1390(4) 0.6378(4) 0.7603(3)
N2A_2 N 0.1390(4) 0.3622(4) 0.2397(3)
C1A C -0.1294(4) 0.8240(4) 0.2839(4)
C2A C -0.1072(4) 0.9362(4) 0.3236(4)
H1A H -0.0818 0.9235 0.4050
C3A C -0.1227(5) 1.0661(4) 0.2427(4)
C4A C -0.1622(5) 1.0848(5) 0.1213(4)
H2A H -0.1757 1.1734 0.0682
C5A C -0.1818(5) 0.9752(5) 0.0780(4)
C6A C -0.1643(5) 0.8450(4) 0.1609(4)
H3A H -0.1763 0.7697 0.1331
C7A C -0.1128(4) 0.6825(4) 0.3718(4)
C8A C -0.0907(5) 1.1822(5) 0.2867(4)
C9A C -0.2201(6) 0.9924(5) -0.0542(4)
H4A H -0.1954 1.0715 -0.1062
H5A H -0.1662 0.9054 -0.0860
H6A H -0.3233 1.0112 -0.0545
C10A C -0.2497(5) 0.2345(5) 0.5691(4)
H7A H -0.1919 0.1514 0.5386
C11A C -0.3597(5) 0.2252(5) 0.6619(4)
H8A H -0.3752 0.1376 0.6907
C12A C -0.4459(5) 0.3440(5) 0.7116(4)
C13A C -0.4198(6) 0.4706(6) 0.6605(5)
H9A H -0.4776 0.5553 0.6885
C14A C -0.3085(6) 0.4727(5) 0.5681(5)
H10A H -0.2926 0.5597 0.5366
C15A C -0.5622(5) 0.3363(6) 0.8162(4)
H11A H -0.6549 0.4087 0.7916
H12A H -0.5733 0.2424 0.8302
C16A C -0.5253(5) 0.3601(6) 0.9365(4)
H13A H -0.4343 0.2852 0.9622
H14A H -0.5093 0.4519 0.9208
C17A C -0.7283(5) 0.2647(5) 1.2469(4)
H15A H -0.7086 0.1952 1.3195
C18A C -0.6167(5) 0.2593(6) 1.1531(4)
H16A H -0.5250 0.1887 1.1640
C19A C -0.6423(5) 0.3597(5) 1.0431(4)
C20A C -0.7816(6) 0.4605(5) 1.0341(4)
H17A H -0.8050 0.5299 0.9618
C21A C -0.8858(5) 0.4582(5) 1.1326(4)
H18A H -0.9787 0.5273 1.1242
loop_
_geom_bond_atom_site_label_1
_geom_bond_atom_site_label_2
_geom_bond_site_symmetry_1
_geom_bond_site_symmetry_2
Co1 O1 1_555 1_555
O1 C7 1_555 1_555
O2 C7 1_555 1_555
O3 C8 1_555 1_555
O4 C8 1_555 1_555
N1 Co1 1_555 1_555
N2 C17 1_555 1_555
C1 C2 1_555 1_555
C2 H1 1_555 1_555
C3 C2 1_555 1_555
C4 C3 1_555 1_555
H2 C4 1_555 1_555
C5 C4 1_555 1_555
C6 C1 1_555 1_555
H3 C6 1_555 1_555
C7 C1 1_555 1_555
C8 C3 1_555 1_555
C9 C5 1_555 1_555
H4 C9 1_555 1_555
H5 C9 1_555 1_555
H6 C9 1_555 1_555
C10 N1 1_555 1_555
H7 C10 1_555 1_555
C11 C10 1_555 1_555
H8 C11 1_555 1_555
C12 C11 1_555 1_555
C13 C12 1_555 1_555
H9 C13 1_555 1_555
C14 N1 1_555 1_555
H10 C14 1_555 1_555
C15 C12 1_555 1_555
H11 C15 1_555 1_555
H12 C15 1_555 1_555
C16 C15 1_555 1_555
H13 C16 1_555 1_555
H14 C16 1_555 1_555
C17 H15 1_555 1_555
C18 C17 1_555 1_555
H16 C18 1_555 1_555
C19 C16 1_555 1_555
C20 C19 1_555 1_555
H17 C20 1_555 1_555
C21 N2 1_555 1_555
H18 C21 1_555 1_555
Co1A O2 1_555 1_555
Co1_2 O3 1_555 1_555
Co1_3 N2 1_555 1_555
Co1A_2 N2A 1_555 1_555
Co1A_3 O3A 1_555 1_555
O1A Co1A 1_555 1_555
O2A Co1 1_555 1_555
O3A C8A 1_555 1_555
O3_2 Co1 1_555 1_555
O3A_2 Co1A 1_555 1_555
O4A Co1A_3 1_555 1_555
O4_2 Co1 1_555 1_555
O4A_2 Co1A 1_555 1_555
N1A Co1A 1_555 1_555
N2A C17A 1_555 1_555
N2_2 Co1 1_555 1_555
N2A_2 Co1A 1_555 1_555
C1A C2A 1_555 1_555
C2A H1A 1_555 1_555
C3A C2A 1_555 1_555
C4A C3A 1_555 1_555
H2A C4A 1_555 1_555
C5A C4A 1_555 1_555
C6A C1A 1_555 1_555
H3A C6A 1_555 1_555
C7A O1A 1_555 1_555
C8A O4A 1_555 1_555
C9A C5A 1_555 1_555
H4A C9A 1_555 1_555
H5A C9A 1_555 1_555
H6A C9A 1_555 1_555
C10A N1A 1_555 1_555
H7A C10A 1_555 1_555
C11A C10A 1_555 1_555
H8A C11A 1_555 1_555
C12A C11A 1_555 1_555
C13A C12A 1_555 1_555
H9A C13A 1_555 1_555
C14A N1A 1_555 1_555
H10A C14A 1_555 1_555
C15A C12A 1_555 1_555
H11A C15A 1_555 1_555
H12A C15A 1_555 1_555
C16A C15A 1_555 1_555
H13A C16A 1_555 1_555
H14A C16A 1_555 1_555
C17A H15A 1_555 1_555
C18A C17A 1_555 1_555
H16A C18A 1_555 1_555
C19A C16A 1_555 1_555
C20A C19A 1_555 1_555
H17A C20A 1_555 1_555
C21A N2A 1_555 1_555
H18A C21A 1_555 1_555
O4 Co1_2 1_555 1_555
C5 C6 1_555 1_555
C13 C14 1_555 1_555
C18 C19 1_555 1_555
C20 C21 1_555 1_555
O2A C7A 1_555 1_555
C1A C7A 1_555 1_555
C3A C8A 1_555 1_555
C5A C6A 1_555 1_555
C13A C14A 1_555 1_555
C18A C19A 1_555 1_555
C20A C21A 1_555 1_555

#END
