
#######################################################################
#
#                 Cambridge Crystallographic Data Centre
#                                CCDC 
#
#######################################################################
#
# If this CIF has been generated from an entry in the Cambridge 
# Structural Database, then it will include bibliographic, chemical, 
# crystal, experimental, refinement or atomic coordinate data resulting 
# from the CCDC's data processing and validation procedures.
#
#######################################################################

data_ETEHAN01
_symmetry_cell_setting           triclinic
_symmetry_space_group_name_H-M   'P -1'
_symmetry_Int_Tables_number      2
_space_group_name_Hall           '-P 1'
loop_
_symmetry_equiv_pos_site_id
_symmetry_equiv_pos_as_xyz
1 x,y,z
2 -x,-y,-z
_cell_length_a                   9.9495(6)
_cell_length_b                   13.0898(8)
_cell_length_c                   13.2297(8)
_cell_angle_alpha                82.543(1)
_cell_angle_beta                 85.472(1)
_cell_angle_gamma                80.571(1)
_cell_volume                     1682.41
loop_
_atom_site_label
_atom_site_type_symbol
_atom_site_fract_x
_atom_site_fract_y
_atom_site_fract_z
In1 In 0.36952(2) 0.729066(19) 0.449200(18)
C1 C 0.2088(4) 0.8840(3) 0.3452(3)
C2 C 0.6728(4) 0.4181(3) 0.6585(3)
C3 C 0.3422(4) 0.6246(3) 0.6331(3)
C4 C 0.3239(4) 0.9074(3) 0.6003(3)
H1 H 0.2330 0.9081 0.5882
C5 C 0.3531(5) 0.9626(3) 0.6753(3)
H2 H 0.2835 0.9993 0.7135
C6 C 0.4875(5) 0.9620(3) 0.6923(3)
H3 H 0.5109 0.9980 0.7429
C7 C 0.5873(4) 0.9072(3) 0.6331(3)
H4 H 0.6788 0.9063 0.6435
C8 C 0.5521(3) 0.8538(3) 0.5589(3)
C9 C 0.6543(4) 0.7931(3) 0.4929(3)
C10 C 0.7933(4) 0.7899(3) 0.4965(3)
H5 H 0.8266 0.8275 0.5414
C11 C 0.8828(4) 0.7312(4) 0.4338(4)
H6 H 0.9765 0.7283 0.4361
C12 C 0.8316(4) 0.6777(4) 0.3688(4)
H7 H 0.8897 0.6381 0.3250
C13 C 0.6925(4) 0.6828(3) 0.3682(3)
H8 H 0.6581 0.6451 0.3240
C14 C 0.1240(3) 0.9727(3) 0.2857(3)
C15 C 0.0533(3) 1.0505(3) 0.3407(3)
H9 H 0.0526 1.0410 0.4116
C16 C -0.0157(4) 1.1413(3) 0.2922(3)
H10 H -0.0592 1.1939 0.3298
C17 C -0.0195(4) 1.1533(3) 0.1883(4)
H11 H -0.0653 1.2145 0.1551
C18 C 0.0439(4) 1.0755(3) 0.1324(3)
H12 H 0.0375 1.0840 0.0620
C19 C 0.1176(3) 0.9842(3) 0.1795(3)
C20 C 0.1781(4) 0.8991(3) 0.1175(3)
C21 C 0.1409(5) 0.8015(3) 0.1398(3)
H13 H 0.0824 0.7882 0.1967
C22 C 0.1889(5) 0.7216(4) 0.0788(4)
H14 H 0.1636 0.6559 0.0955
C23 C 0.2729(5) 0.7415(4) -0.0049(4)
H15 H 0.3061 0.6885 -0.0450
C24 C 0.3100(4) 0.8397(4) -0.0316(3)
H16 H 0.3645 0.8532 -0.0907
C25 C 0.2650(4) 0.9178(3) 0.0307(3)
C26 C 0.3195(4) 1.0194(3) 0.0069(3)
C27 C 0.6868(3) 0.5104(3) 0.7110(3)
C28 C 0.8088(4) 0.5488(3) 0.6958(3)
H17 H 0.8797 0.5153 0.6562
C29 C 0.8277(4) 0.6359(3) 0.7378(4)
H18 H 0.9111 0.6601 0.7276
C30 C 0.7227(5) 0.6871(3) 0.7950(3)
H19 H 0.7343 0.7464 0.8232
C31 C 0.6010(4) 0.6498(3) 0.8101(3)
H20 H 0.5302 0.6849 0.8487
C32 C 0.5797(4) 0.5610(3) 0.7695(3)
C33 C 0.3312(3) 0.5630(3) 0.7356(3)
C34 C 0.4442(4) 0.5273(3) 0.7950(3)
C35 C 0.4232(4) 0.4662(3) 0.8878(3)
H21 H 0.4964 0.4413 0.9284
C36 C 0.2954(6) 0.4420(4) 0.9203(4)
H22 H 0.2839 0.4001 0.9817
C37 C 0.1859(5) 0.4794(4) 0.8624(4)
H23 H 0.0997 0.4641 0.8850
C38 C 0.2038(4) 0.5394(3) 0.7712(3)
H24 H 0.1290 0.5648 0.7323
O1 O 0.1667(2) 0.84915(19) 0.43179(18)
O2 O 0.3271(2) 0.84741(18) 0.30939(18)
O3 O 0.5637(2) 0.38093(19) 0.66891(19)
O4 O 0.7675(3) 0.3799(2) 0.6014(2)
O5 O 0.4518(3) 0.6142(2) 0.57876(18)
O6 O 0.2407(3) 0.68685(19) 0.6012(2)
O7 O 0.3593(3) 1.0639(3) 0.0688(2)
O8 O 0.3204(3) 1.0536(3) -0.0930(2)
H25 H 0.3691 1.0990 -0.1056
N1 N 0.4203(3) 0.8529(2) 0.5439(2)
N2 N 0.6049(3) 0.7394(2) 0.4285(2)
In1A In 0.63048(2) 0.270934(19) 0.550800(18)
O3A O 0.4363(2) 0.61907(19) 0.33109(19)
O4A O 0.2325(3) 0.6201(2) 0.3986(2)
O9 O 0.5356(4) 0.7956(3) 0.1572(3)
H26 H 0.580(11) 0.720(3) 0.164(9)
H27 H 0.458(5) 0.810(6) 0.207(5)
loop_
_geom_bond_atom_site_label_1
_geom_bond_atom_site_label_2
_geom_bond_site_symmetry_1
_geom_bond_site_symmetry_2
In1 O1 1_555 1_555
C1 C14 1_555 1_555
C2 C27 1_555 1_555
C3 C33 1_555 1_555
C4 H1 1_555 1_555
C5 C4 1_555 1_555
H2 C5 1_555 1_555
C6 C5 1_555 1_555
H3 C6 1_555 1_555
C7 C6 1_555 1_555
H4 C7 1_555 1_555
C8 C7 1_555 1_555
C9 C8 1_555 1_555
C10 C9 1_555 1_555
H5 C10 1_555 1_555
C11 C10 1_555 1_555
H6 C11 1_555 1_555
C12 C11 1_555 1_555
H7 C12 1_555 1_555
C13 C12 1_555 1_555
H8 C13 1_555 1_555
C14 C15 1_555 1_555
C15 H9 1_555 1_555
C16 C15 1_555 1_555
H10 C16 1_555 1_555
C17 C16 1_555 1_555
H11 C17 1_555 1_555
C18 C17 1_555 1_555
H12 C18 1_555 1_555
C19 C14 1_555 1_555
C20 C19 1_555 1_555
C21 C20 1_555 1_555
H13 C21 1_555 1_555
C22 C21 1_555 1_555
H14 C22 1_555 1_555
C23 C22 1_555 1_555
H15 C23 1_555 1_555
C24 C23 1_555 1_555
H16 C24 1_555 1_555
C25 C20 1_555 1_555
C26 C25 1_555 1_555
C27 C28 1_555 1_555
C28 H17 1_555 1_555
C29 C28 1_555 1_555
H18 C29 1_555 1_555
C30 C29 1_555 1_555
H19 C30 1_555 1_555
C31 C30 1_555 1_555
H20 C31 1_555 1_555
C32 C27 1_555 1_555
C33 C34 1_555 1_555
C34 C32 1_555 1_555
C35 C34 1_555 1_555
H21 C35 1_555 1_555
C36 C35 1_555 1_555
H22 C36 1_555 1_555
C37 C36 1_555 1_555
H23 C37 1_555 1_555
C38 C33 1_555 1_555
H24 C38 1_555 1_555
O1 C1 1_555 1_555
O2 In1 1_555 1_555
O3 C2 1_555 1_555
O4 C2 1_555 1_555
O5 In1 1_555 1_555
O6 In1 1_555 1_555
O7 C26 1_555 1_555
O8 C26 1_555 1_555
H25 O8 1_555 1_555
N1 In1 1_555 1_555
N2 In1 1_555 1_555
O9 H26 1_555 1_555
H27 O9 1_555 1_555
In1A O3 1_555 1_555
O3A In1 1_555 1_555
O4A In1 1_555 1_555
C1 O2 1_555 1_555
C3 O5 1_555 1_555
C3 O6 1_555 1_555
C4 N1 1_555 1_555
C8 N1 1_555 1_555
C9 N2 1_555 1_555
C13 N2 1_555 1_555
C18 C19 1_555 1_555
C24 C25 1_555 1_555
C31 C32 1_555 1_555
C37 C38 1_555 1_555
O4 In1A 1_555 1_555

#END
