
#######################################################################
#
#                 Cambridge Crystallographic Data Centre
#                                CCDC 
#
#######################################################################
#
# If this CIF has been generated from an entry in the Cambridge 
# Structural Database, then it will include bibliographic, chemical, 
# crystal, experimental, refinement or atomic coordinate data resulting 
# from the CCDC's data processing and validation procedures.
#
#######################################################################

data_ETEHAN
_symmetry_cell_setting           orthorhombic
_symmetry_space_group_name_H-M   'P 21 21 21'
_symmetry_Int_Tables_number      19
_space_group_name_Hall           'P 2ac 2ab'
loop_
_symmetry_equiv_pos_site_id
_symmetry_equiv_pos_as_xyz
1 x,y,z
2 1/2-x,-y,1/2+z
3 -x,1/2+y,1/2-z
4 1/2+x,1/2-y,-z
_cell_length_a                   12.8039(9)
_cell_length_b                   14.0375(9)
_cell_length_c                   18.358(1)
_cell_angle_alpha                90
_cell_angle_beta                 90
_cell_angle_gamma                90
_cell_volume                     3299.57
loop_
_atom_site_label
_atom_site_type_symbol
_atom_site_fract_x
_atom_site_fract_y
_atom_site_fract_z
In1 In 0.367710(17) 0.097632(14) 0.786538(11)
C1 C 0.2313(3) 0.1369(2) 0.89488(18)
C2 C 0.5611(3) 0.4517(2) 0.63667(18)
C3 C 0.5497(3) 0.1592(2) 0.73492(17)
C4 C 0.2473(3) -0.0449(3) 0.67900(19)
H1 H 0.281(3) -0.091(3) 0.711(2)
C5 C 0.1855(3) -0.0759(3) 0.6223(2)
H2 H 0.175(3) -0.145(3) 0.618(2)
C6 C 0.1431(4) -0.0084(3) 0.5764(2)
H3 H 0.108(3) -0.026(2) 0.5395(19)
C7 C 0.1616(3) 0.0871(4) 0.5898(2)
H4 H 0.139(3) 0.133(3) 0.555(2)
C8 C 0.2230(2) 0.1125(2) 0.64788(17)
C9 C 0.2436(3) 0.2133(3) 0.66805(19)
C10 C 0.2030(4) 0.2902(4) 0.6292(3)
H5 H 0.161(3) 0.276(3) 0.586(2)
C11 C 0.2252(5) 0.3814(3) 0.6506(3)
H6 H 0.210(5) 0.434(4) 0.633(3)
C12 C 0.2848(4) 0.3953(3) 0.7112(3)
H7 H 0.301(3) 0.452(3) 0.729(2)
C13 C 0.3211(4) 0.3176(2) 0.7490(2)
H8 H 0.375(4) 0.319(3) 0.787(2)
C14 C 0.1583(2) 0.1448(2) 0.95771(16)
C15 C 0.1216(3) 0.0608(2) 0.98906(18)
H9 H 0.135(3) 0.002(3) 0.9661(19)
C16 C 0.0663(3) 0.0635(3) 1.0539(2)
H10 H 0.045(2) 0.006(2) 1.0804(16)
C17 C 0.0485(3) 0.1501(3) 1.0870(2)
H11 H 0.011(3) 0.154(2) 1.130(2)
C18 C 0.0809(3) 0.2340(3) 1.0551(2)
H12 H 0.063(3) 0.292(3) 1.0753(18)
C19 C 0.1357(3) 0.2330(2) 0.98966(16)
C20 C 0.1611(3) 0.3248(2) 0.95236(18)
C21 C 0.0972(4) 0.3555(3) 0.8963(2)
H13 H 0.043(3) 0.317(2) 0.8823(19)
C22 C 0.1146(5) 0.4430(4) 0.8619(3)
H14 H 0.064(4) 0.449(3) 0.822(3)
C23 C 0.1940(5) 0.5003(3) 0.8849(3)
H15 H 0.209(4) 0.565(3) 0.860(2)
C24 C 0.2568(5) 0.4719(3) 0.9415(3)
H16 H 0.319(4) 0.503(3) 0.957(3)
C25 C 0.2433(3) 0.3843(2) 0.97478(19)
C26 C 0.3188(3) 0.3550(3) 1.0318(2)
C27 C 0.6531(2) 0.2012(2) 0.71538(19)
C28 C 0.7363(3) 0.1871(3) 0.7609(2)
H17 H 0.726(3) 0.153(2) 0.7977(19)
C29 C 0.8324(3) 0.2259(3) 0.7458(2)
H18 H 0.893(3) 0.211(2) 0.7726(18)
C30 C 0.8450(3) 0.2844(3) 0.6871(2)
H19 H 0.905(3) 0.309(3) 0.674(2)
C31 C 0.7608(3) 0.3017(2) 0.6414(2)
H20 H 0.768(3) 0.345(2) 0.6018(19)
C32 C 0.6644(2) 0.2603(2) 0.65379(16)
C33 C 0.5767(3) 0.2779(2) 0.60176(18)
C34 C 0.5429(3) 0.2035(3) 0.55672(19)
H21 H 0.574(3) 0.146(2) 0.5639(18)
C35 C 0.4658(3) 0.2160(3) 0.5062(2)
H22 H 0.447(3) 0.166(2) 0.4744(17)
C36 C 0.4188(4) 0.3046(3) 0.4978(2)
H23 H 0.364(3) 0.311(2) 0.4614(19)
C37 C 0.4525(3) 0.3795(2) 0.5410(2)
H24 H 0.422(2) 0.438(2) 0.5383(16)
C38 C 0.5295(3) 0.3667(2) 0.59285(17)
N1 N 0.2669(2) 0.04668(19) 0.69164(13)
N2 N 0.3008(2) 0.22832(18) 0.72739(14)
O1 O 0.30814(19) 0.19323(16) 0.89090(12)
O2 O 0.21952(19) 0.07199(16) 0.84808(12)
O3 O 0.5558(2) 0.53241(16) 0.60829(14)
O4 O 0.59233(18) 0.44284(14) 0.70167(11)
O5 O 0.50749(18) 0.18746(17) 0.79273(14)
O6 O 0.50628(19) 0.09756(19) 0.69764(13)
O7 O 0.3439(2) 0.4045(2) 1.08237(15)
O8 O 0.3612(2) 0.26898(18) 1.02334(15)
H25 H 0.345(3) 0.246(3) 0.987(2)
In1B In 0.632290(17) 0.597632(14) 0.713462(11)
O3B O 0.4442(2) 0.03241(16) 0.89171(14)
O4B O 0.40767(18) -0.05716(14) 0.79833(11)
O9 O 0.9976(4) 0.5057(5) 0.6806(4)
H26 H 0.989(5) 0.5754(17) 0.689(3)
H27 H 0.921(3) 0.523(7) 0.683(6)
loop_
_geom_bond_atom_site_label_1
_geom_bond_atom_site_label_2
_geom_bond_site_symmetry_1
_geom_bond_site_symmetry_2
In1 N1 1_555 1_555
C1 C14 1_555 1_555
C2 C38 1_555 1_555
C3 C27 1_555 1_555
C4 H1 1_555 1_555
C5 C4 1_555 1_555
H2 C5 1_555 1_555
C6 C5 1_555 1_555
H3 C6 1_555 1_555
C7 C6 1_555 1_555
H4 C7 1_555 1_555
C8 C7 1_555 1_555
C9 C8 1_555 1_555
C10 C9 1_555 1_555
H5 C10 1_555 1_555
C11 C10 1_555 1_555
H6 C11 1_555 1_555
C12 C11 1_555 1_555
H7 C12 1_555 1_555
C13 C12 1_555 1_555
H8 C13 1_555 1_555
C14 C15 1_555 1_555
C15 H9 1_555 1_555
C16 C15 1_555 1_555
H10 C16 1_555 1_555
C17 C16 1_555 1_555
H11 C17 1_555 1_555
C18 C17 1_555 1_555
H12 C18 1_555 1_555
C19 C14 1_555 1_555
C20 C19 1_555 1_555
C21 C20 1_555 1_555
H13 C21 1_555 1_555
C22 C21 1_555 1_555
H14 C22 1_555 1_555
C23 C22 1_555 1_555
H15 C23 1_555 1_555
C24 C23 1_555 1_555
H16 C24 1_555 1_555
C25 C20 1_555 1_555
C26 C25 1_555 1_555
C27 C28 1_555 1_555
C28 H17 1_555 1_555
C29 C28 1_555 1_555
H18 C29 1_555 1_555
C30 C29 1_555 1_555
H19 C30 1_555 1_555
C31 C30 1_555 1_555
H20 C31 1_555 1_555
C32 C27 1_555 1_555
C33 C32 1_555 1_555
C34 C33 1_555 1_555
H21 C34 1_555 1_555
C35 C34 1_555 1_555
H22 C35 1_555 1_555
C36 C35 1_555 1_555
H23 C36 1_555 1_555
C37 C36 1_555 1_555
H24 C37 1_555 1_555
C38 C33 1_555 1_555
N1 C4 1_555 1_555
N2 In1 1_555 1_555
O1 In1 1_555 1_555
O2 In1 1_555 1_555
O3 C2 1_555 1_555
O4 C2 1_555 1_555
O5 In1 1_555 1_555
O6 In1 1_555 1_555
O7 C26 1_555 1_555
O8 C26 1_555 1_555
H25 O8 1_555 1_555
O9 H26 1_555 1_555
H27 O9 1_555 1_555
In1B O3 1_555 1_555
O3B In1 1_555 1_555
O4B In1 1_555 1_555
C1 O1 1_555 1_555
C1 O2 1_555 1_555
C3 O5 1_555 1_555
C3 O6 1_555 1_555
C8 N1 1_555 1_555
C9 N2 1_555 1_555
C13 N2 1_555 1_555
C18 C19 1_555 1_555
C24 C25 1_555 1_555
C31 C32 1_555 1_555
C37 C38 1_555 1_555
O4 In1B 1_555 1_555

#END
