
#######################################################################
#
#                 Cambridge Crystallographic Data Centre
#                                CCDC 
#
#######################################################################
#
# If this CIF has been generated from an entry in the Cambridge 
# Structural Database, then it will include bibliographic, chemical, 
# crystal, experimental, refinement or atomic coordinate data resulting 
# from the CCDC's data processing and validation procedures.
#
#######################################################################

data_ETEHIV
_symmetry_cell_setting           triclinic
_symmetry_space_group_name_H-M   'P -1'
_symmetry_Int_Tables_number      2
_space_group_name_Hall           '-P 1'
loop_
_symmetry_equiv_pos_site_id
_symmetry_equiv_pos_as_xyz
1 x,y,z
2 -x,-y,-z
_cell_length_a                   10.6135(12)
_cell_length_b                   11.6513(13)
_cell_length_c                   14.0949(15)
_cell_angle_alpha                75.745(2)
_cell_angle_beta                 68.609(2)
_cell_angle_gamma                88.736(2)
_cell_volume                     1568.51
loop_
_atom_site_label
_atom_site_type_symbol
_atom_site_fract_x
_atom_site_fract_y
_atom_site_fract_z
In1 In 0.22851(3) 0.56952(3) 0.64388(3)
C1 C 0.1049(5) 0.7193(4) 0.7938(4)
C2 C 0.5130(5) 0.3283(5) 0.4004(4)
C3 C 0.3068(4) 0.3539(4) 0.6631(4)
C4 C 0.2290(5) 0.7381(5) 0.4270(4)
H1 H 0.310(5) 0.747(4) 0.417(4)
C5 C 0.1793(6) 0.7948(5) 0.3522(4)
H2 H 0.237(5) 0.843(5) 0.294(4)
C6 C 0.0461(5) 0.7713(5) 0.3683(4)
H3 H 0.013(4) 0.808(4) 0.323(3)
C7 C -0.0341(5) 0.6911(5) 0.4585(4)
H4 H -0.126(4) 0.679(4) 0.473(3)
C8 C 0.0199(4) 0.6365(4) 0.5323(3)
C9 C -0.0629(4) 0.5522(4) 0.6332(4)
C10 C -0.1980(5) 0.5198(5) 0.6608(4)
H5 H -0.246(4) 0.549(4) 0.616(3)
C11 C -0.2675(6) 0.4447(6) 0.7586(5)
H6 H -0.356(6) 0.433(5) 0.778(4)
C12 C -0.2008(6) 0.4017(5) 0.8256(5)
H7 H -0.248(6) 0.351(6) 0.894(5)
C13 C -0.0656(5) 0.4342(5) 0.7935(4)
H8 H -0.010(4) 0.410(4) 0.830(3)
C14 C 0.0948(5) 0.7674(4) 0.8853(4)
C15 C 0.2122(6) 0.8106(5) 0.8908(4)
H9 H 0.295(4) 0.798(3) 0.846(3)
C16 C 0.2066(6) 0.8623(5) 0.9698(5)
H10 H 0.281(5) 0.895(4) 0.973(4)
C17 C 0.0824(6) 0.8698(5) 1.0445(4)
H11 H 0.075(4) 0.899(4) 1.099(3)
C18 C -0.0357(6) 0.8266(4) 1.0417(4)
H12 H -0.119(4) 0.834(4) 1.095(3)
C19 C -0.0317(5) 0.7747(4) 0.9621(3)
C20 C -0.1609(5) 0.7229(4) 0.9658(3)
C21 C -0.2050(6) 0.6055(5) 1.0251(4)
H13 H -0.138(4) 0.560(4) 1.048(3)
C22 C -0.3312(7) 0.5602(6) 1.0418(5)
H14 H -0.351(4) 0.495(4) 1.078(3)
C23 C -0.4180(6) 0.6265(6) 1.0039(5)
H15 H -0.506(6) 0.602(5) 1.014(4)
C24 C -0.3778(6) 0.7421(6) 0.9455(5)
H16 H -0.434(5) 0.788(4) 0.928(3)
C25 C -0.2494(5) 0.7898(4) 0.9257(4)
C26 C -0.2126(6) 0.9166(5) 0.8620(4)
C27 C 0.3984(5) 0.2345(4) 0.4379(4)
C28 C 0.3435(6) 0.2223(6) 0.3646(5)
C29 C 0.2433(7) 0.1353(7) 0.3894(6)
H17 H 0.380(5) 0.277(4) 0.300(4)
C30 C 0.1962(7) 0.0585(7) 0.4859(7)
H18 H 0.216(5) 0.126(5) 0.338(4)
C31 C 0.2463(6) 0.0694(6) 0.5615(6)
H19 H 0.128(6) 0.003(5) 0.509(5)
C32 C 0.3476(5) 0.1575(4) 0.5399(4)
H20 H 0.221(6) 0.025(5) 0.620(4)
C33 C 0.3718(4) 0.2414(4) 0.6856(3)
C34 C 0.3974(4) 0.1563(4) 0.6264(4)
C35 C 0.4598(5) 0.0563(5) 0.6581(5)
H21 H 0.474(5) 0.002(4) 0.623(4)
C36 C 0.4987(5) 0.0398(5) 0.7438(4)
H22 H 0.543(5) -0.030(4) 0.758(4)
C37 C 0.4714(5) 0.1219(5) 0.8022(4)
H23 H 0.495(4) 0.108(4) 0.862(3)
C38 C 0.4098(5) 0.2215(4) 0.7728(4)
H24 H 0.393(4) 0.279(4) 0.813(3)
O1 O 0.1839(3) 0.6353(3) 0.7793(3)
O2 O 0.0408(4) 0.7614(3) 0.7370(3)
O3 O 0.6030(3) 0.3050(3) 0.4438(3)
O4 O 0.5225(4) 0.4184(4) 0.3311(3)
O5 O 0.2440(3) 0.3962(3) 0.7409(3)
O6 O 0.3153(3) 0.4109(3) 0.5719(2)
O7 O -0.2906(4) 0.9935(3) 0.8785(3)
O8 O -0.0935(4) 0.9427(3) 0.7839(3)
H25 H -0.048(6) 0.888(5) 0.767(4)
N1 N 0.1514(4) 0.6597(3) 0.5162(3)
N2 N 0.0029(4) 0.5085(3) 0.6991(3)
In1A In 0.77149(3) 0.43048(3) 0.35612(3)
O3A O 0.3970(3) 0.6950(3) 0.5562(3)
loop_
_geom_bond_atom_site_label_1
_geom_bond_atom_site_label_2
_geom_bond_site_symmetry_1
_geom_bond_site_symmetry_2
In1 O1 1_555 1_555
C1 C14 1_555 1_555
C2 C27 1_555 1_555
C3 C33 1_555 1_555
C4 H1 1_555 1_555
C5 C4 1_555 1_555
H2 C5 1_555 1_555
C6 C5 1_555 1_555
H3 C6 1_555 1_555
C7 C6 1_555 1_555
H4 C7 1_555 1_555
C8 C7 1_555 1_555
C9 C8 1_555 1_555
C10 C9 1_555 1_555
H5 C10 1_555 1_555
C11 C10 1_555 1_555
H6 C11 1_555 1_555
C12 C11 1_555 1_555
H7 C12 1_555 1_555
C13 C12 1_555 1_555
H8 C13 1_555 1_555
C14 C15 1_555 1_555
C15 H9 1_555 1_555
C16 C15 1_555 1_555
H10 C16 1_555 1_555
C17 C16 1_555 1_555
H11 C17 1_555 1_555
C18 C17 1_555 1_555
H12 C18 1_555 1_555
C19 C14 1_555 1_555
C20 C19 1_555 1_555
C21 C20 1_555 1_555
H13 C21 1_555 1_555
C22 C21 1_555 1_555
H14 C22 1_555 1_555
C23 C22 1_555 1_555
H15 C23 1_555 1_555
C24 C23 1_555 1_555
H16 C24 1_555 1_555
C25 C20 1_555 1_555
C26 C25 1_555 1_555
C27 C28 1_555 1_555
C28 C29 1_555 1_555
C29 C30 1_555 1_555
H17 C28 1_555 1_555
C30 C31 1_555 1_555
H18 C29 1_555 1_555
C31 C32 1_555 1_555
H19 C30 1_555 1_555
C32 C27 1_555 1_555
H20 C31 1_555 1_555
C33 C34 1_555 1_555
C34 C32 1_555 1_555
C35 C34 1_555 1_555
H21 C35 1_555 1_555
C36 C35 1_555 1_555
H22 C36 1_555 1_555
C37 C36 1_555 1_555
H23 C37 1_555 1_555
C38 C33 1_555 1_555
H24 C38 1_555 1_555
O1 C1 1_555 1_555
O2 C1 1_555 1_555
O3 C2 1_555 1_555
O4 C2 1_555 1_555
O5 In1 1_555 1_555
O6 In1 1_555 1_555
O7 C26 1_555 1_555
O8 C26 1_555 1_555
H25 O8 1_555 1_555
N1 In1 1_555 1_555
N2 In1 1_555 1_555
In1A O3 1_555 1_555
O3A In1 1_555 1_555
C3 O5 1_555 1_555
C3 O6 1_555 1_555
C4 N1 1_555 1_555
C8 N1 1_555 1_555
C9 N2 1_555 1_555
C13 N2 1_555 1_555
C18 C19 1_555 1_555
C24 C25 1_555 1_555
C37 C38 1_555 1_555

#END
