
#######################################################################
#
#                 Cambridge Crystallographic Data Centre
#                                CCDC 
#
#######################################################################
#
# If this CIF has been generated from an entry in the Cambridge 
# Structural Database, then it will include bibliographic, chemical, 
# crystal, experimental, refinement or atomic coordinate data resulting 
# from the CCDC's data processing and validation procedures.
#
#######################################################################

data_ETEJES
_symmetry_cell_setting           monoclinic
_symmetry_space_group_name_H-M   'P 21/c'
_symmetry_Int_Tables_number      14
_space_group_name_Hall           '-P 2ybc'
loop_
_symmetry_equiv_pos_site_id
_symmetry_equiv_pos_as_xyz
1 x,y,z
2 -x,1/2+y,1/2-z
3 -x,-y,-z
4 x,1/2-y,1/2+z
_cell_length_a                   16.4972(2)
_cell_length_b                   7.0673(1)
_cell_length_c                   9.4950(2)
_cell_angle_alpha                90
_cell_angle_beta                 113.477(1)
_cell_angle_gamma                90
_cell_volume                     1015.39
loop_
_atom_site_label
_atom_site_type_symbol
_atom_site_fract_x
_atom_site_fract_y
_atom_site_fract_z
Br1 Br 0.4478(2) -0.3555(4) 0.8216(2)
P1 P 0.1173(3) 0.3668(8) 0.5412(5)
Al1 Al 0.0047(3) 0.378(1) 0.7461(6)
O1 O 0.1022(4) 0.359(2) 0.6897(9)
O2 O -0.0965(5) 0.397(2) 0.8218(9)
O3 O 0.0766(6) 0.547(1) 0.453(1)
O4 O 0.0797(6) 0.185(1) 0.452(1)
O5 O -0.0380(4) 0.127(2) 0.6892(8)
C1 C 0.3710(8) -0.123(2) 0.755(2)
C2 C 0.2355(8) 0.379(2) 0.578(1)
C3 C 0.2742(8) 0.192(2) 0.640(2)
C4 C 0.3316(9) 0.179(2) 0.796(2)
C5 C 0.3199(8) -0.138(2) 0.594(1)
C6 C 0.3850(8) 0.017(2) 0.865(2)
C7 C 0.2653(8) 0.036(2) 0.537(1)
O3B O -0.0766(6) 0.453(1) 0.547(1)
O4C O 0.0797(6) 0.315(1) 0.952(1)
O5A O 0.0380(4) 0.627(2) 0.8108(8)
Al1B Al -0.0047(3) 0.622(1) 0.2539(6)
Al1C Al 0.0047(3) 0.122(1) 0.2461(6)
Al1A Al -0.0047(3) -0.122(1) 0.7539(6)
loop_
_geom_bond_atom_site_label_1
_geom_bond_atom_site_label_2
_geom_bond_site_symmetry_1
_geom_bond_site_symmetry_2
Br1 C1 1_555 1_555
P1 O1 1_555 1_555
Al1 O1 1_555 1_555
O2 Al1 1_555 1_555
O3 P1 1_555 1_555
O4 P1 1_555 1_555
O5 Al1 1_555 1_555
C1 C5 1_555 1_555
C2 P1 1_555 1_555
C3 C2 1_555 1_555
C4 C3 1_555 1_555
C5 C7 1_555 1_555
C6 C1 1_555 1_555
C7 C3 1_555 1_555
O3B Al1 1_555 1_555
O4C Al1 1_555 1_555
O5A Al1 1_555 1_555
Al1B O3 1_555 1_555
Al1C O4 1_555 1_555
Al1A O5 1_555 1_555
C4 C6 1_555 1_555

#END
