
#######################################################################
#
#                 Cambridge Crystallographic Data Centre
#                                CCDC 
#
#######################################################################
#
# If this CIF has been generated from an entry in the Cambridge 
# Structural Database, then it will include bibliographic, chemical, 
# crystal, experimental, refinement or atomic coordinate data resulting 
# from the CCDC's data processing and validation procedures.
#
#######################################################################

data_ETEJUJ
_symmetry_cell_setting           triclinic
_symmetry_space_group_name_H-M   'P -1'
_symmetry_Int_Tables_number      2
_space_group_name_Hall           '-P 1'
loop_
_symmetry_equiv_pos_site_id
_symmetry_equiv_pos_as_xyz
1 x,y,z
2 -x,-y,-z
_cell_length_a                   10.5152(5)
_cell_length_b                   11.1058(5)
_cell_length_c                   12.7396(6)
_cell_angle_alpha                103.891(2)
_cell_angle_beta                 109.709(2)
_cell_angle_gamma                96.684(2)
_cell_volume                     1327.53
loop_
_atom_site_label
_atom_site_type_symbol
_atom_site_fract_x
_atom_site_fract_y
_atom_site_fract_z
Sm1 Sm 0.102067(16) 0.547772(14) 0.681555(13)
O1 O -0.0171(3) 0.3321(2) 0.5878(2)
O2 O -0.0741(3) 0.2733(2) 0.3945(2)
O3 O -0.0478(5) 0.0511(3) 0.2900(3)
H1 H -0.0597 0.1236 0.2950
O4 O 0.1565(3) 0.4926(3) 0.5128(3)
O5 O 0.1277(3) 0.4285(3) 0.3281(2)
O6 O 0.3343(3) 0.3974(4) 0.2669(3)
H2 H 0.2525 0.3939 0.2568
O7 O 0.1759(3) 0.7557(3) 0.8494(2)
O8 O 0.3305(3) 0.6898(3) 0.7826(3)
O9 O 0.2362(4) 0.9873(4) 0.9971(4)
H3 H 0.1846 0.9191 0.9543
O10 O 0.2728(4) 0.4217(4) 0.7408(4)
O11 O 0.0697(4) 0.4774(3) 0.8396(3)
C1 C -0.0242(5) 0.0293(4) 0.3946(3)
C2 C -0.0218(4) 0.1203(3) 0.4935(3)
C3 C 0.0025(5) 0.0883(4) 0.5971(3)
H4 H 0.0042 0.1486 0.6626
C4 C -0.0397(4) 0.2519(3) 0.4923(3)
C5 C 0.4134(4) 0.4485(4) 0.3824(3)
C6 C 0.3568(4) 0.4844(4) 0.4677(3)
C7 C 0.4454(4) 0.5357(4) 0.5840(3)
H5 H 0.4084 0.5600 0.6407
C8 C 0.2058(4) 0.4678(3) 0.4356(3)
C9 C 0.3640(4) 0.9888(4) 0.9952(3)
C10 C 0.4000(4) 0.8910(3) 0.9266(3)
C11 C 0.5361(4) 0.9027(4) 0.9321(3)
H6 H 0.5599 0.8372 0.8867
C12 C 0.2957(4) 0.7722(4) 0.8478(3)
C13 C 0.3688(14) 0.4088(13) 0.7877(9)
H7 H 0.4329 0.4837 0.8073
C14 C 0.5801(13) 0.3670(13) 0.8980(12)
H8 H 0.6120 0.4551 0.9079
H9 H 0.6281 0.3166 0.8586
H10 H 0.5977 0.3543 0.9731
C15 C 0.3727(13) 0.2019(12) 0.8058(11)
H11 H 0.2762 0.1865 0.7582
H12 H 0.3828 0.1838 0.8778
H13 H 0.4169 0.1482 0.7650
C16 C -0.0194(6) 0.3852(5) 0.8271(4)
H14 H -0.1043 0.3676 0.7655
C17 C -0.1114(10) 0.2063(8) 0.8749(8)
H15 H -0.1919 0.2040 0.8094
H16 H -0.1336 0.2174 0.9432
H17 H -0.0810 0.1281 0.8591
C18 C 0.1219(11) 0.3321(10) 0.9918(8)
H18 H 0.1856 0.4050 0.9977
H19 H 0.1620 0.2588 0.9824
H20 H 0.1021 0.3464 1.0615
N1 N 0.4344(6) 0.3297(6) 0.8297(5)
N2 N -0.0019(6) 0.3114(4) 0.8944(4)
Sm1A Sm -0.102067(16) -0.547772(14) 0.318445(13)
Sm1A_2 Sm -0.102067(16) 0.452228(14) 0.318445(13)
Sm1_2 Sm 0.102067(16) -0.452228(14) 0.681555(13)
Sm1A_3 Sm 0.897933(16) 0.452228(14) 0.318445(13)
Sm1_3 Sm 1.102067(16) 0.547772(14) 0.681555(13)
Sm1A_4 Sm 0.897933(16) 1.452228(14) 1.318445(13)
O1A O 0.0171(3) -0.3321(2) 0.4122(2)
O2A O 0.0741(3) -0.2733(2) 0.6055(2)
O2A_2 O 0.0741(3) 0.7267(2) 0.6055(2)
O2_2 O -0.0741(3) -0.7267(2) 0.3945(2)
O3A O 0.0478(5) -0.0511(3) 0.7100(3)
H1A H 0.0597 -0.1236 0.7050
O4A O 0.8435(3) 0.5074(3) 0.4872(3)
O4A_2 O -0.1565(3) 0.5074(3) 0.4872(3)
O4A_3 O -0.1565(3) -0.4926(3) 0.4872(3)
O4_2 O 0.1565(3) -0.5074(3) 0.5128(3)
O5A O 0.8723(3) 0.5715(3) 0.6719(2)
O5A_2 O -0.1277(3) 0.5715(3) 0.6719(2)
O5_2 O 0.1277(3) -0.5715(3) 0.3281(2)
O6A O 0.6657(3) 0.6026(4) 0.7331(3)
H2A H 0.7475 0.6061 0.7432
O7A O 0.8241(3) 1.2443(3) 1.1506(2)
O7A_2 O -0.1759(3) -0.7557(3) 0.1506(2)
O8A O 0.6695(3) 1.3102(3) 1.2174(3)
O8A_2 O -0.3305(3) -0.6898(3) 0.2174(3)
O9A O 0.7638(4) 1.0127(4) 1.0029(4)
H3A H 0.8154 1.0809 1.0457
O10A O -0.2728(4) -0.4217(4) 0.2592(4)
O11A O -0.0697(4) -0.4774(3) 0.1604(3)
C1A C 0.0242(5) -0.0293(4) 0.6054(3)
C2A C 0.0218(4) -0.1203(3) 0.5065(3)
C3A C -0.0025(5) -0.0883(4) 0.4029(3)
H4A H -0.0042 -0.1486 0.3374
C4A C 0.0397(4) -0.2519(3) 0.5077(3)
C5A C 0.5866(4) 0.5515(4) 0.6176(3)
C6A C 0.6432(4) 0.5156(4) 0.5323(3)
C7A C 0.5546(4) 0.4643(4) 0.4160(3)
H5A H 0.5916 0.4400 0.3593
C8A C 0.7942(4) 0.5322(3) 0.5644(3)
C9A C 0.6360(4) 1.0112(4) 1.0048(3)
C10A C 0.6000(4) 1.1090(3) 1.0734(3)
C11A C 0.4639(4) 1.0973(4) 1.0679(3)
H6A H 0.4401 1.1628 1.1133
C12A C 0.7043(4) 1.2278(4) 1.1522(3)
C13A C -0.3688(14) -0.4088(13) 0.2123(9)
H7A H -0.4329 -0.4837 0.1927
C14A C -0.5801(13) -0.3670(13) 0.1020(12)
H8A H -0.6120 -0.4551 0.0921
H9A H -0.6281 -0.3166 0.1414
H10A H -0.5977 -0.3543 0.0269
C15A C -0.3727(13) -0.2019(12) 0.1942(11)
H11A H -0.2762 -0.1865 0.2418
H12A H -0.3828 -0.1838 0.1222
H13A H -0.4169 -0.1482 0.2350
C16A C 0.0194(6) -0.3852(5) 0.1729(4)
H14A H 0.1043 -0.3676 0.2345
C17A C 0.1114(10) -0.2063(8) 0.1251(8)
H15A H 0.1919 -0.2040 0.1906
H16A H 0.1336 -0.2174 0.0568
H17A H 0.0810 -0.1281 0.1409
C18A C -0.1219(11) -0.3321(10) 0.0082(8)
H18A H -0.1856 -0.4050 0.0023
H19A H -0.1620 -0.2588 0.0176
H20A H -0.1021 -0.3464 -0.0615
N1A N -0.4344(6) -0.3297(6) 0.1703(5)
N2A N 0.0019(6) -0.3114(4) 0.1056(4)
O12 O 0.3829(11) 0.7688(10) 0.3593(8)
C19 C 0.446(3) 0.8038(16) 0.4493(16)
H21 H 0.4971 0.7419 0.4401
C20 C 0.478(4) 0.8788(18) 0.628(3)
H22 H 0.3785 0.8604 0.5975
H23 H 0.5124 0.9682 0.6668
H24 H 0.5113 0.8321 0.6819
C21 C 0.6518(19) 0.8719(16) 0.582(3)
H25 H 0.6800 0.8482 0.5173
H26 H 0.6876 0.8248 0.6356
H27 H 0.6869 0.9612 0.6216
N3 N 0.5184(9) 0.8471(7) 0.5450(8)
loop_
_geom_bond_atom_site_label_1
_geom_bond_atom_site_label_2
_geom_bond_site_symmetry_1
_geom_bond_site_symmetry_2
Sm1 O1 1_555 1_555
O1 C4 1_555 1_555
O2 C4 1_555 1_555
O3 H1 1_555 1_555
O4 Sm1 1_555 1_555
O5 C8 1_555 1_555
O6 H2 1_555 1_555
O7 Sm1 1_555 1_555
O8 Sm1 1_555 1_555
O9 H3 1_555 1_555
O10 Sm1 1_555 1_555
O11 Sm1 1_555 1_555
O12 C19 1_555 1_555
C1 O3 1_555 1_555
C2 C1 1_555 1_555
C3 C2 1_555 1_555
H4 C3 1_555 1_555
C4 C2 1_555 1_555
C5 O6 1_555 1_555
C6 C5 1_555 1_555
C7 C6 1_555 1_555
H5 C7 1_555 1_555
C8 O4 1_555 1_555
C9 O9 1_555 1_555
C10 C9 1_555 1_555
C11 C10 1_555 1_555
H6 C11 1_555 1_555
C12 O7 1_555 1_555
C13 O10 1_555 1_555
H7 C13 1_555 1_555
C14 H8 1_555 1_555
H9 C14 1_555 1_555
H10 C14 1_555 1_555
C15 H11 1_555 1_555
H12 C15 1_555 1_555
H13 C15 1_555 1_555
C16 O11 1_555 1_555
H14 C16 1_555 1_555
C17 H15 1_555 1_555
H16 C17 1_555 1_555
H17 C17 1_555 1_555
C18 H18 1_555 1_555
H19 C18 1_555 1_555
H20 C18 1_555 1_555
C19 H21 1_555 1_555
C20 H22 1_555 1_555
H23 C20 1_555 1_555
H24 C20 1_555 1_555
C21 H25 1_555 1_555
H26 C21 1_555 1_555
H27 C21 1_555 1_555
N1 C13 1_555 1_555
N2 C16 1_555 1_555
N3 C19 1_555 1_555
Sm1A O1A 1_555 1_555
Sm1A_2 O2 1_555 1_555
Sm1_2 O2A 1_555 1_555
Sm1A_3 O4A 1_555 1_555
Sm1_3 O4A 1_555 1_555
Sm1A_4 O7A 1_555 1_555
O1A C4A 1_555 1_555
O2A C4A 1_555 1_555
O2A_2 Sm1 1_555 1_555
O2_2 Sm1A 1_555 1_555
O3A H1A 1_555 1_555
O4A C8A 1_555 1_555
O4A_2 Sm1 1_555 1_555
O4A_3 Sm1A 1_555 1_555
O4_2 Sm1A 1_555 1_555
O5A Sm1_3 1_555 1_555
O5A_2 Sm1 1_555 1_555
O5_2 Sm1A 1_555 1_555
O6A H2A 1_555 1_555
O7A C12A 1_555 1_555
O7A_2 Sm1A 1_555 1_555
O8A Sm1A_4 1_555 1_555
O8A_2 Sm1A 1_555 1_555
O9A H3A 1_555 1_555
O10A Sm1A 1_555 1_555
O11A Sm1A 1_555 1_555
C1A C3 1_555 1_555
C2A C1A 1_555 1_555
C3A C1 1_555 1_555
H4A C3A 1_555 1_555
C4A C2A 1_555 1_555
C5A C7 1_555 1_555
C6A C5A 1_555 1_555
C7A C5 1_555 1_555
H5A C7A 1_555 1_555
C8A O5A 1_555 1_555
C9A C11 1_555 1_555
C10A C9A 1_555 1_555
C11A C9 1_555 1_555
H6A C11A 1_555 1_555
C12A O8A 1_555 1_555
C13A O10A 1_555 1_555
H7A C13A 1_555 1_555
C14A H8A 1_555 1_555
H9A C14A 1_555 1_555
H10A C14A 1_555 1_555
C15A H11A 1_555 1_555
H12A C15A 1_555 1_555
H13A C15A 1_555 1_555
C16A O11A 1_555 1_555
H14A C16A 1_555 1_555
C17A H15A 1_555 1_555
H16A C17A 1_555 1_555
H17A C17A 1_555 1_555
C18A H18A 1_555 1_555
H19A C18A 1_555 1_555
H20A C18A 1_555 1_555
N1A C13A 1_555 1_555
N2A C16A 1_555 1_555
O4 Sm1A_2 1_555 1_555
O5 Sm1A_2 1_555 1_555
O8 C12 1_555 1_555
C6 C8 1_555 1_555
C10 C12 1_555 1_555
C14 N1 1_555 1_555
C15 N1 1_555 1_555
C17 N2 1_555 1_555
C18 N2 1_555 1_555
C20 N3 1_555 1_555
C21 N3 1_555 1_555
Sm1A_2 O4A_2 1_555 1_555
Sm1_2 O4A_3 1_555 1_555
Sm1_2 O4_2 1_555 1_555
O3A C1A 1_555 1_555
O6A C5A 1_555 1_555
O9A C9A 1_555 1_555
C2A C3A 1_555 1_555
C6A C7A 1_555 1_555
C6A C8A 1_555 1_555
C10A C11A 1_555 1_555
C10A C12A 1_555 1_555
C14A N1A 1_555 1_555
C15A N1A 1_555 1_555
C17A N2A 1_555 1_555
C18A N2A 1_555 1_555

#END
