
#######################################################################
#
#                 Cambridge Crystallographic Data Centre
#                                CCDC 
#
#######################################################################
#
# If this CIF has been generated from an entry in the Cambridge 
# Structural Database, then it will include bibliographic, chemical, 
# crystal, experimental, refinement or atomic coordinate data resulting 
# from the CCDC's data processing and validation procedures.
#
#######################################################################

data_ETEJET
_symmetry_cell_setting           triclinic
_symmetry_space_group_name_H-M   'P -1'
_symmetry_Int_Tables_number      2
_space_group_name_Hall           '-P 1'
loop_
_symmetry_equiv_pos_site_id
_symmetry_equiv_pos_as_xyz
1 x,y,z
2 -x,-y,-z
_cell_length_a                   10.1421(11)
_cell_length_b                   10.3265(11)
_cell_length_c                   11.6938(12)
_cell_angle_alpha                70.9700(10)
_cell_angle_beta                 77.5240(10)
_cell_angle_gamma                65.5670(10)
_cell_volume                     1049.4
loop_
_atom_site_label
_atom_site_type_symbol
_atom_site_fract_x
_atom_site_fract_y
_atom_site_fract_z
Ni1 Ni 0.12861(2) 0.64103(2) 1.256436(18)
O1 O 0.17364(12) 0.84184(12) 1.22053(11)
O2 O 0.34066(12) 0.61712(12) 1.26279(11)
O3 O 0.82431(15) 0.56091(16) 1.36140(13)
O4 O 0.91305(13) 0.73078(15) 1.24333(13)
O5 O 0.07550(16) 0.64999(15) 1.43941(11)
H1 H 0.0139 0.6620 1.4463
H2 H 0.1058 0.5838 1.5028
N1 N 0.16333(15) -0.33152(15) 2.06860(13)
N2 N 0.18079(15) 0.41396(15) 1.30656(13)
C1 C 0.30364(17) 0.75662(17) 1.23607(14)
C2 C 0.41939(16) 0.81778(17) 1.22060(14)
C3 C 0.55517(17) 0.72559(17) 1.26256(14)
H3 H 0.5730 0.6270 1.3033
C4 C 0.66397(17) 0.78178(18) 1.24323(14)
C5 C 0.63489(18) 0.93063(18) 1.18336(15)
H4 H 0.7083 0.9674 1.1691
C6 C 0.49840(18) 1.02503(17) 1.14462(15)
C7 C 0.39178(17) 0.96637(17) 1.16282(15)
H5 H 0.3006 1.0274 1.1359
C8 C 0.81209(17) 0.68159(19) 1.28704(15)
C9 C 0.4657(2) 1.18740(19) 1.08637(18)
H6 H 0.4307 1.2395 1.1482
H7 H 0.3929 1.2248 1.0310
H8 H 0.5527 1.2013 1.0429
C10 C 0.07661(19) -0.20906(19) 1.99475(16)
H9 H -0.0044 -0.1447 2.0298
C11 C 0.1020(2) -0.1744(2) 1.86964(16)
H10 H 0.0402 -0.0871 1.8227
C12 C 0.22016(19) -0.26997(18) 1.81349(16)
C13 C 0.3096(2) -0.39703(19) 1.89021(17)
H11 H 0.3900 -0.4646 1.8577
C14 C 0.2783(2) -0.42201(19) 2.01460(17)
H12 H 0.3406 -0.5065 2.0638
C15 C 0.2531(2) -0.2386(2) 1.67704(16)
H13 H 0.1965 -0.2734 1.6457
H14 H 0.3551 -0.2945 1.6585
C16 C 0.2212(3) -0.0765(2) 1.61122(17)
H15 H 0.2732 -0.0396 1.6455
H16 H 0.1180 -0.0210 1.6249
C17 C 0.2645(2) -0.04992(19) 1.47477(16)
H17 H 0.3666 -0.1089 1.4608
H18 H 0.2088 -0.0818 1.4395
C18 C 0.2387(2) 0.11085(19) 1.41223(15)
C19 C 0.3103(2) 0.1834(2) 1.44187(17)
H19 H 0.3789 0.1316 1.4982
C20 C 0.27973(19) 0.33199(19) 1.38787(17)
H20 H 0.3299 0.3775 1.4087
C21 C 0.11391(19) 0.34377(19) 1.27571(16)
H21 H 0.0468 0.3976 1.2182
C22 C 0.1400(2) 0.1951(2) 1.32538(16)
H22 H 0.0913 0.1513 1.3006
Ni1_2 Ni 1.12861(2) 0.64103(2) 1.256436(18)
Ni1_3 Ni 0.12861(2) -0.35897(2) 2.256436(18)
O4_2 O -0.08695(13) 0.73078(15) 1.24333(13)
N1_2 N 0.16333(15) 0.66848(15) 1.06860(13)
loop_
_geom_bond_atom_site_label_1
_geom_bond_atom_site_label_2
_geom_bond_site_symmetry_1
_geom_bond_site_symmetry_2
Ni1 O1 1_555 1_555
O1 C1 1_555 1_555
O2 Ni1 1_555 1_555
O3 C8 1_555 1_555
O4 C8 1_555 1_555
O5 Ni1 1_555 1_555
H1 O5 1_555 1_555
H2 O5 1_555 1_555
N1 C10 1_555 1_555
N2 Ni1 1_555 1_555
C1 O2 1_555 1_555
C2 C1 1_555 1_555
C3 C2 1_555 1_555
H3 C3 1_555 1_555
C4 C3 1_555 1_555
C5 C4 1_555 1_555
H4 C5 1_555 1_555
C6 C5 1_555 1_555
C7 C2 1_555 1_555
H5 C7 1_555 1_555
C8 C4 1_555 1_555
C9 C6 1_555 1_555
H6 C9 1_555 1_555
H7 C9 1_555 1_555
H8 C9 1_555 1_555
C10 H9 1_555 1_555
C11 C10 1_555 1_555
H10 C11 1_555 1_555
C12 C11 1_555 1_555
C13 C12 1_555 1_555
H11 C13 1_555 1_555
C14 N1 1_555 1_555
H12 C14 1_555 1_555
C15 C12 1_555 1_555
H13 C15 1_555 1_555
H14 C15 1_555 1_555
C16 C15 1_555 1_555
H15 C16 1_555 1_555
H16 C16 1_555 1_555
C17 C16 1_555 1_555
H17 C17 1_555 1_555
H18 C17 1_555 1_555
C18 C17 1_555 1_555
C19 C18 1_555 1_555
H19 C19 1_555 1_555
C20 N2 1_555 1_555
H20 C20 1_555 1_555
C21 N2 1_555 1_555
H21 C21 1_555 1_555
C22 C18 1_555 1_555
H22 C22 1_555 1_555
Ni1_2 O4 1_555 1_555
Ni1_3 N1 1_555 1_555
O4_2 Ni1 1_555 1_555
N1_2 Ni1 1_555 1_555
C6 C7 1_555 1_555
C13 C14 1_555 1_555
C19 C20 1_555 1_555
C21 C22 1_555 1_555

#END
