
#######################################################################
#
#                 Cambridge Crystallographic Data Centre
#                                CCDC 
#
#######################################################################
#
# If this CIF has been generated from an entry in the Cambridge 
# Structural Database, then it will include bibliographic, chemical, 
# crystal, experimental, refinement or atomic coordinate data resulting 
# from the CCDC's data processing and validation procedures.
#
#######################################################################

data_ETEKUK
_symmetry_cell_setting           triclinic
_symmetry_space_group_name_H-M   'P -1'
_symmetry_Int_Tables_number      2
_space_group_name_Hall           '-P 1'
loop_
_symmetry_equiv_pos_site_id
_symmetry_equiv_pos_as_xyz
1 x,y,z
2 -x,-y,-z
_cell_length_a                   12.401(3)
_cell_length_b                   12.606(3)
_cell_length_c                   13.664(3)
_cell_angle_alpha                70.84(3)
_cell_angle_beta                 69.99(3)
_cell_angle_gamma                62.04(3)
_cell_volume                     1736.23
loop_
_atom_site_label
_atom_site_type_symbol
_atom_site_fract_x
_atom_site_fract_y
_atom_site_fract_z
Mn1 Mn 0.90797(3) 0.10254(3) 0.14070(2)
Mn2 Mn 0.81207(3) 0.02948(3) 0.42879(2)
S1 S 1.67019(5) -0.43706(5) 0.17526(5)
S2 S 0.10718(5) 0.58974(5) 0.26443(4)
O1 O 0.93030(17) 0.27595(15) 0.04543(13)
O2 O 1.10400(14) -0.00748(15) 0.12016(14)
O3 O 1.00083(17) -0.11383(16) 0.41041(15)
O4 O 1.14213(16) -0.10071(18) -0.00809(14)
O6 O 1.87794(18) -0.05817(16) 0.22942(15)
O7 O 1.75450(19) -0.08209(19) 0.38808(15)
O8 O 1.65635(17) -0.52768(15) 0.26946(15)
O9 O 1.75699(15) -0.47588(16) 0.07912(15)
O10 O 0.66090(15) 0.18693(16) 0.37664(13)
O11 O 0.71105(15) 0.21031(17) 0.19924(14)
O12 O -0.06568(16) 0.15402(15) 0.26977(13)
O13 O -0.11961(16) 0.15548(15) 0.44118(12)
O14 O 0.10786(15) 0.66321(15) 0.15884(13)
O15 O 0.04791(14) 0.64959(14) 0.35401(13)
N1 N 0.7220(2) -0.0170(2) 0.59766(15)
N2 N 0.6514(2) -0.0536(2) 0.77163(15)
C1 C 1.5110(2) -0.3073(2) 0.03930(17)
H1 H 1.5809 -0.3361 -0.0143
C2 C 1.3948(2) -0.2291(2) 0.01556(16)
H2 H 1.3860 -0.2079 -0.0540
C3 C 1.29177(19) -0.18262(18) 0.09557(16)
C4 C 1.3033(2) -0.2195(2) 0.20038(17)
H3 H 1.2338 -0.1895 0.2539
C5 C 1.4178(2) -0.3008(2) 0.22598(17)
H4 H 1.4250 -0.3272 0.2964
C6 C 1.52119(19) -0.34188(19) 0.14495(17)
C7 C 1.7103(2) -0.3370(2) 0.20750(18)
C8 C 1.6635(3) -0.3163(3) 0.3098(2)
H5 H 1.6131 -0.3544 0.3599
C9 C 1.6931(3) -0.2379(3) 0.3364(2)
H6 H 1.6626 -0.2237 0.4053
C10 C 1.7675(2) -0.1804(2) 0.26175(17)
C11 C 1.8131(2) -0.2011(2) 0.15904(17)
H7 H 1.8626 -0.1621 0.1087
C12 C 1.7846(2) -0.2804(2) 0.13129(17)
H8 H 1.8151 -0.2950 0.0626
C13 C 1.16825(19) -0.08987(19) 0.06649(16)
C14 C 1.8014(2) -0.0996(2) 0.29484(19)
C15 C 0.2921(2) 0.4266(3) 0.36826(19)
H9 H 0.2297 0.4371 0.4304
C16 C 0.4141(2) 0.3455(3) 0.37255(19)
H10 H 0.4342 0.3022 0.4380
C17 C 0.50678(19) 0.3283(2) 0.28001(17)
C18 C 0.4774(2) 0.3977(2) 0.18330(17)
H11 H 0.5400 0.3891 0.1212
C19 C 0.3557(2) 0.4798(2) 0.17815(17)
H12 H 0.3361 0.5261 0.1131
C20 C 0.26406(19) 0.49194(19) 0.27079(16)
C21 C 0.04152(19) 0.48489(19) 0.28262(16)
C22 C 0.0746(2) 0.4227(2) 0.20240(18)
H13 H 0.1240 0.4421 0.1365
C23 C 0.0330(2) 0.3317(2) 0.22224(18)
H14 H 0.0542 0.2898 0.1692
C24 C -0.0403(2) 0.30257(19) 0.32094(17)
C25 C -0.0771(2) 0.3688(2) 0.39892(18)
H15 H -0.1299 0.3522 0.4637
C26 C -0.0349(2) 0.4596(2) 0.37988(18)
H16 H -0.0579 0.5032 0.4322
C27 C 0.6374(2) 0.2341(2) 0.28583(18)
C28 C -0.0779(2) 0.1976(2) 0.34413(17)
C29 C 0.6248(4) -0.0512(4) 0.6216(2)
H17 H 0.5929 -0.0568 0.5719
C30 C 0.5821(4) -0.0757(4) 0.7279(2)
H18 H 0.5179 -0.1025 0.7642
C31 C 0.7340(2) -0.0187(2) 0.69109(17)
H19 H 0.7928 0.0018 0.6995
C32 C 0.6385(2) -0.0689(2) 0.88623(17)
H20 H 0.6996 -0.0478 0.8957
H21 H 0.6562 -0.1542 0.9202
C33 C 0.5075(2) 0.0111(2) 0.94001(17)
H22 H 0.4459 -0.0063 0.9269
H23 H 0.4917 0.0968 0.9092
H24 H 1.011(3) -0.1741(18) 0.389(2)
H25 H 1.042(3) -0.141(2) 0.457(2)
H26 H 0.922(3) 0.295(2) -0.0166(11)
H27 H 0.880(2) 0.3348(19) 0.0768(18)
Mn1A Mn 1.09203(3) -0.10254(3) -0.14070(2)
Mn1_2 Mn 1.90797(3) 0.10254(3) 0.14070(2)
Mn1_3 Mn -0.09203(3) 0.10254(3) 0.14070(2)
Mn1A_2 Mn 0.09203(3) -0.10254(3) -0.14070(2)
Mn2_2 Mn 1.81207(3) 0.02948(3) 0.42879(2)
Mn2_3 Mn -0.18793(3) 0.02948(3) 0.42879(2)
Mn2A Mn 0.18793(3) -0.02948(3) 1.57121(2)
Mn2A_2 Mn 0.18793(3) -0.02948(3) -0.42879(2)
S1A S 0.32981(5) 0.43706(5) -0.17526(5)
S2_2 S 1.10718(5) 0.58974(5) 0.26443(4)
O1A O 1.06970(17) -0.27595(15) -0.04543(13)
O2A O 0.89600(14) 0.00748(15) -0.12016(14)
O3_2 O 2.00083(17) -0.11383(16) 0.41041(15)
O4A O 0.85787(16) 0.10071(18) 0.00809(14)
O6A O 0.12206(18) 0.05817(16) -0.22942(15)
O6_2 O 0.87794(18) -0.05817(16) 0.22942(15)
O6A_2 O 1.12206(18) 0.05817(16) -0.22942(15)
O7A O 0.24550(19) 0.08209(19) -0.38808(15)
O7_2 O 0.75450(19) -0.08209(19) 0.38808(15)
O8A O 0.34365(17) 0.52768(15) -0.26946(15)
O9A O 0.24301(15) 0.47588(16) -0.07912(15)
O10_2 O 1.66090(15) 0.18693(16) 0.37664(13)
O11_2 O 1.71105(15) 0.21031(17) 0.19924(14)
O11A O 1.28895(15) -0.21031(17) -0.19924(14)
O12_2 O 0.93432(16) 0.15402(15) 0.26977(13)
O12A O 1.06568(16) -0.15402(15) -0.26977(13)
O13_2 O 0.88039(16) 0.15548(15) 0.44118(12)
O13_3 O 1.88039(16) 0.15548(15) 0.44118(12)
O14_2 O 1.10786(15) 0.66321(15) 0.15884(13)
O15_2 O 1.04791(14) 0.64959(14) 0.35401(13)
N1A N 0.2780(2) 0.0170(2) 1.40234(15)
N1_2 N 1.7220(2) -0.0170(2) 0.59766(15)
N2A N 0.3486(2) 0.0536(2) 1.22837(15)
C1A C 0.4890(2) 0.3073(2) -0.03930(17)
H1A H 0.4191 0.3361 0.0143
C2A C 0.6052(2) 0.2291(2) -0.01556(16)
H2A H 0.6140 0.2079 0.0540
C3A C 0.70823(19) 0.18262(18) -0.09557(16)
C4A C 0.6967(2) 0.2195(2) -0.20038(17)
H3A H 0.7662 0.1895 -0.2539
C5A C 0.5822(2) 0.3008(2) -0.22598(17)
H4A H 0.5750 0.3272 -0.2964
C6A C 0.47881(19) 0.34188(19) -0.14495(17)
C7A C 0.2897(2) 0.3370(2) -0.20750(18)
C8A C 0.3365(3) 0.3163(3) -0.3098(2)
H5A H 0.3869 0.3544 -0.3599
C9A C 0.3069(3) 0.2379(3) -0.3364(2)
H6A H 0.3374 0.2237 -0.4053
C10A C 0.2325(2) 0.1804(2) -0.26175(17)
C11A C 0.1869(2) 0.2011(2) -0.15904(17)
H7A H 0.1374 0.1621 -0.1087
C12A C 0.2154(2) 0.2804(2) -0.13129(17)
H8A H 0.1849 0.2950 -0.0626
C13A C 0.83175(19) 0.08987(19) -0.06649(16)
C14A C 0.1986(2) 0.0996(2) -0.29484(19)
C15_2 C 1.2921(2) 0.4266(3) 0.36826(19)
H9_2 H 1.2297 0.4371 0.4304
C16_2 C 1.4141(2) 0.3455(3) 0.37255(19)
H10_2 H 1.4342 0.3022 0.4380
C17_2 C 1.50678(19) 0.3283(2) 0.28001(17)
C18_2 C 1.4774(2) 0.3977(2) 0.18330(17)
H11_2 H 1.5400 0.3891 0.1212
C19_2 C 1.3557(2) 0.4798(2) 0.17815(17)
H12_2 H 1.3361 0.5261 0.1131
C20_2 C 1.26406(19) 0.49194(19) 0.27079(16)
C21_2 C 1.04152(19) 0.48489(19) 0.28262(16)
C22_2 C 1.0746(2) 0.4227(2) 0.20240(18)
H13_2 H 1.1240 0.4421 0.1365
C23_2 C 1.0330(2) 0.3317(2) 0.22224(18)
H14_2 H 1.0542 0.2898 0.1692
C24_2 C 0.9597(2) 0.30257(19) 0.32094(17)
C25_2 C 0.9229(2) 0.3688(2) 0.39892(18)
H15_2 H 0.8701 0.3522 0.4637
C26_2 C 0.9651(2) 0.4596(2) 0.37988(18)
H16_2 H 0.9421 0.5032 0.4322
C27_2 C 1.6374(2) 0.2341(2) 0.28583(18)
C28_2 C 0.9221(2) 0.1976(2) 0.34413(17)
C29A C 0.3752(4) 0.0512(4) 1.3784(2)
H17A H 0.4071 0.0568 1.4281
C30A C 0.4179(4) 0.0757(4) 1.2721(2)
H18A H 0.4821 0.1025 1.2358
C31A C 0.2660(2) 0.0187(2) 1.30891(17)
H19A H 0.2072 -0.0018 1.3005
C32A C 0.3615(2) 0.0689(2) 1.11377(17)
H20A H 0.3004 0.0478 1.1043
H21A H 0.3438 0.1542 1.0798
C33A C 0.4925(2) -0.0111(2) 1.05999(17)
H22A H 0.5541 0.0063 1.0731
H23A H 0.5083 -0.0968 1.0908
H24_2 H 2.011(3) -0.1741(18) 0.389(2)
H25_2 H 2.042(3) -0.141(2) 0.457(2)
H26A H 1.078(3) -0.295(2) 0.0166(11)
H27A H 1.120(2) -0.3348(19) -0.0768(18)
O5 O 0.5996(3) 0.3697(3) 0.5111(2)
H28 H 0.625(5) 0.305(3) 0.489(4)
H29 H 0.617(6) 0.423(4) 0.460(3)
loop_
_geom_bond_atom_site_label_1
_geom_bond_atom_site_label_2
_geom_bond_site_symmetry_1
_geom_bond_site_symmetry_2
Mn1 O1 1_555 1_555
Mn2 O3 1_555 1_555
S1 O8 1_555 1_555
S2 O14 1_555 1_555
O1 H26 1_555 1_555
O2 Mn1 1_555 1_555
O3 H24 1_555 1_555
O4 C13 1_555 1_555
O5 H28 1_555 1_555
O6 C14 1_555 1_555
O7 C14 1_555 1_555
O9 S1 1_555 1_555
O10 Mn2 1_555 1_555
O11 Mn1 1_555 1_555
O12 C28 1_555 1_555
O13 C28 1_555 1_555
O15 S2 1_555 1_555
N1 Mn2 1_555 1_555
N2 C30 1_555 1_555
C1 H1 1_555 1_555
C2 C1 1_555 1_555
H2 C2 1_555 1_555
C3 C2 1_555 1_555
C4 C3 1_555 1_555
H3 C4 1_555 1_555
C5 C4 1_555 1_555
H4 C5 1_555 1_555
C6 S1 1_555 1_555
C7 S1 1_555 1_555
C8 C7 1_555 1_555
H5 C8 1_555 1_555
C9 C8 1_555 1_555
H6 C9 1_555 1_555
C10 C9 1_555 1_555
C11 C10 1_555 1_555
H7 C11 1_555 1_555
C12 C7 1_555 1_555
H8 C12 1_555 1_555
C13 O2 1_555 1_555
C14 C10 1_555 1_555
C15 H9 1_555 1_555
C16 C15 1_555 1_555
H10 C16 1_555 1_555
C17 C16 1_555 1_555
C18 C17 1_555 1_555
H11 C18 1_555 1_555
C19 C18 1_555 1_555
H12 C19 1_555 1_555
C20 S2 1_555 1_555
C21 S2 1_555 1_555
C22 C21 1_555 1_555
H13 C22 1_555 1_555
C23 C22 1_555 1_555
H14 C23 1_555 1_555
C24 C23 1_555 1_555
C25 C24 1_555 1_555
H15 C25 1_555 1_555
C26 C21 1_555 1_555
H16 C26 1_555 1_555
C27 O10 1_555 1_555
C28 C24 1_555 1_555
C29 N1 1_555 1_555
H17 C29 1_555 1_555
C30 C29 1_555 1_555
H18 C30 1_555 1_555
C31 N1 1_555 1_555
H19 C31 1_555 1_555
C32 N2 1_555 1_555
H20 C32 1_555 1_555
H21 C32 1_555 1_555
C33 C32 1_555 1_555
H22 C33 1_555 1_555
H23 C33 1_555 1_555
H25 O3 1_555 1_555
H27 O1 1_555 1_555
H29 O5 1_555 1_555
Mn1A O4 1_555 1_555
Mn1_2 O6 1_555 1_555
Mn1_3 O12 1_555 1_555
Mn1A_2 O6A 1_555 1_555
Mn2_2 O7 1_555 1_555
Mn2_3 O13 1_555 1_555
Mn2A N1A 1_555 1_555
Mn2A_2 O7A 1_555 1_555
S1A O8A 1_555 1_555
S2_2 O14_2 1_555 1_555
O1A Mn1A 1_555 1_555
O2A Mn1A 1_555 1_555
O3_2 Mn2_2 1_555 1_555
O4A Mn1 1_555 1_555
O6A C14A 1_555 1_555
O6_2 Mn1 1_555 1_555
O6A_2 Mn1A 1_555 1_555
O7A C14A 1_555 1_555
O7_2 Mn2 1_555 1_555
O9A S1A 1_555 1_555
O10_2 Mn2_2 1_555 1_555
O11_2 Mn1_2 1_555 1_555
O11A Mn1A 1_555 1_555
O12_2 Mn1 1_555 1_555
O12A Mn1A 1_555 1_555
O13_2 Mn2 1_555 1_555
O13_3 Mn2_2 1_555 1_555
O15_2 S2_2 1_555 1_555
N1A C29A 1_555 1_555
N1_2 Mn2_2 1_555 1_555
N2A C30A 1_555 1_555
C1A H1A 1_555 1_555
C2A C1A 1_555 1_555
H2A C2A 1_555 1_555
C3A C2A 1_555 1_555
C4A C3A 1_555 1_555
H3A C4A 1_555 1_555
C5A C4A 1_555 1_555
H4A C5A 1_555 1_555
C6A S1A 1_555 1_555
C7A S1A 1_555 1_555
C8A C7A 1_555 1_555
H5A C8A 1_555 1_555
C9A C8A 1_555 1_555
H6A C9A 1_555 1_555
C10A C9A 1_555 1_555
C11A C10A 1_555 1_555
H7A C11A 1_555 1_555
C12A C7A 1_555 1_555
H8A C12A 1_555 1_555
C13A O2A 1_555 1_555
C14A C10A 1_555 1_555
C15_2 H9_2 1_555 1_555
C16_2 C15_2 1_555 1_555
H10_2 C16_2 1_555 1_555
C17_2 C16_2 1_555 1_555
C18_2 C17_2 1_555 1_555
H11_2 C18_2 1_555 1_555
C19_2 C18_2 1_555 1_555
H12_2 C19_2 1_555 1_555
C20_2 S2_2 1_555 1_555
C21_2 S2_2 1_555 1_555
C22_2 C21_2 1_555 1_555
H13_2 C22_2 1_555 1_555
C23_2 C22_2 1_555 1_555
H14_2 C23_2 1_555 1_555
C24_2 C23_2 1_555 1_555
C25_2 C24_2 1_555 1_555
H15_2 C25_2 1_555 1_555
C26_2 C21_2 1_555 1_555
H16_2 C26_2 1_555 1_555
C27_2 O10_2 1_555 1_555
C28_2 O12_2 1_555 1_555
C29A H17A 1_555 1_555
C30A C29A 1_555 1_555
H18A C30A 1_555 1_555
C31A N1A 1_555 1_555
H19A C31A 1_555 1_555
C32A N2A 1_555 1_555
H20A C32A 1_555 1_555
H21A C32A 1_555 1_555
C33A C33 1_555 1_555
H22A C33A 1_555 1_555
H23A C33A 1_555 1_555
H24_2 O3_2 1_555 1_555
H25_2 O3_2 1_555 1_555
H26A O1A 1_555 1_555
H27A O1A 1_555 1_555
O11 C27 1_555 1_555
N2 C31 1_555 1_555
C1 C6 1_555 1_555
C3 C13 1_555 1_555
C5 C6 1_555 1_555
C11 C12 1_555 1_555
C15 C20 1_555 1_555
C17 C27 1_555 1_555
C19 C20 1_555 1_555
C25 C26 1_555 1_555
O4A C13A 1_555 1_555
O11_2 C27_2 1_555 1_555
O13_2 C28_2 1_555 1_555
N2A C31A 1_555 1_555
C1A C6A 1_555 1_555
C3A C13A 1_555 1_555
C5A C6A 1_555 1_555
C11A C12A 1_555 1_555
C15_2 C20_2 1_555 1_555
C17_2 C27_2 1_555 1_555
C19_2 C20_2 1_555 1_555
C24_2 C28_2 1_555 1_555
C25_2 C26_2 1_555 1_555
C32A C33A 1_555 1_555

#END
