
#######################################################################
#
#                 Cambridge Crystallographic Data Centre
#                                CCDC 
#
#######################################################################
#
# If this CIF has been generated from an entry in the Cambridge 
# Structural Database, then it will include bibliographic, chemical, 
# crystal, experimental, refinement or atomic coordinate data resulting 
# from the CCDC's data processing and validation procedures.
#
#######################################################################

data_ETEKEU
_symmetry_cell_setting           triclinic
_symmetry_space_group_name_H-M   'P -1'
_symmetry_Int_Tables_number      2
_space_group_name_Hall           '-P 1'
loop_
_symmetry_equiv_pos_site_id
_symmetry_equiv_pos_as_xyz
1 x,y,z
2 -x,-y,-z
_cell_length_a                   10.5507(9)
_cell_length_b                   10.9265(10)
_cell_length_c                   12.8978(11)
_cell_angle_alpha                103.1840(10)
_cell_angle_beta                 111.1470(10)
_cell_angle_gamma                96.5660(10)
_cell_volume                     1318.17
loop_
_atom_site_label
_atom_site_type_symbol
_atom_site_fract_x
_atom_site_fract_y
_atom_site_fract_z
Er1 Er 0.106461(19) 0.546535(18) 0.682665(17)
O1 O -0.0149(4) 0.3372(3) 0.5866(3)
O2 O -0.0717(4) 0.2801(3) 0.3949(3)
O3 O -0.0411(6) 0.0565(4) 0.2940(3)
H1 H -0.0532 0.1300 0.2984
O4 O 0.1682(3) 0.4969(3) 0.5301(3)
O5 O 0.1208(3) 0.4352(3) 0.3428(3)
O6 O 0.3172(4) 0.4061(5) 0.2697(3)
H2 H 0.2366 0.4040 0.2628
O7 O 0.1737(4) 0.7503(3) 0.8448(3)
O8 O 0.3282(4) 0.6880(4) 0.7801(3)
O9 O 0.2348(4) 0.9809(4) 0.9942(4)
H3 H 0.1840 0.9116 0.9506
O10 O 0.2709(5) 0.4224(5) 0.7471(4)
O11 O 0.0714(4) 0.4784(4) 0.8323(3)
C1 C -0.0210(6) 0.0322(5) 0.3969(4)
C2 C -0.0209(5) 0.1229(4) 0.4936(4)
C3 C -0.0003(6) 0.0883(5) 0.5947(4)
H4 H -0.0009 0.1480 0.6587
C4 C -0.0368(5) 0.2567(4) 0.4924(4)
C5 C 0.4046(5) 0.4530(5) 0.3842(4)
C6 C 0.3578(5) 0.4861(4) 0.4727(4)
C7 C 0.4543(5) 0.5330(5) 0.5882(4)
H5 H 0.4229 0.5552 0.6474
C8 C 0.2068(5) 0.4722(4) 0.4484(4)
C9 C 0.3640(5) 0.9868(5) 0.9941(4)
C10 C 0.3993(5) 0.8897(5) 0.9247(4)
C11 C 0.5358(5) 0.9041(5) 0.9324(5)
H6 H 0.5598 0.8392 0.8873
C12 C 0.2954(5) 0.7698(5) 0.8457(4)
C13 C 0.3576(16) 0.3966(16) 0.7848(11)
H7 H 0.4238 0.4698 0.8006
C14 C 0.5825(13) 0.3668(13) 0.8936(12)
H8 H 0.6090 0.4563 0.9008
H9 H 0.6320 0.3183 0.8559
H10 H 0.6047 0.3557 0.9695
C15 C 0.3772(14) 0.1915(13) 0.7974(10)
H11 H 0.2796 0.1742 0.7493
H12 H 0.3897 0.1682 0.8673
H13 H 0.4229 0.1420 0.7562
C16 C -0.0161(7) 0.3886(6) 0.8227(5)
H14 H -0.1031 0.3720 0.7622
C17 C -0.1059(10) 0.2069(9) 0.8744(9)
H15 H -0.1885 0.2026 0.8085
H16 H -0.1259 0.2201 0.9426
H17 H -0.0749 0.1278 0.8612
C18 C 0.1310(13) 0.3347(12) 0.9868(9)
H18 H 0.1932 0.4086 0.9907
H19 H 0.1713 0.2605 0.9773
H20 H 0.1158 0.3495 1.0572
N1 N 0.4340(7) 0.3215(7) 0.8253(6)
N2 N 0.0021(6) 0.3129(5) 0.8908(5)
Er1A Er -0.106461(19) -0.546535(18) 0.317335(17)
Er1A_2 Er -0.106461(19) 0.453465(18) 0.317335(17)
Er1_2 Er 0.106461(19) -0.453465(18) 0.682665(17)
Er1_3 Er 1.106461(19) 0.546535(18) 0.682665(17)
Er1A_3 Er 0.893539(19) 0.453465(18) 0.317335(17)
Er1A_4 Er 0.893539(19) 1.453465(18) 1.317335(17)
O1A O 0.0149(4) -0.3372(3) 0.4134(3)
O2A O 0.0717(4) -0.2801(3) 0.6051(3)
O2A_2 O 0.0717(4) 0.7199(3) 0.6051(3)
O2_2 O -0.0717(4) -0.7199(3) 0.3949(3)
O3A O 0.0411(6) -0.0565(4) 0.7060(3)
H1A H 0.0532 -0.1300 0.7016
O4A O 0.8318(3) 0.5031(3) 0.4699(3)
O4A_2 O -0.1682(3) 0.5031(3) 0.4699(3)
O4A_3 O -0.1682(3) -0.4969(3) 0.4699(3)
O4_2 O 0.1682(3) -0.5031(3) 0.5301(3)
O5A O 0.8792(3) 0.5648(3) 0.6572(3)
O5A_2 O -0.1208(3) 0.5648(3) 0.6572(3)
O5_2 O 0.1208(3) -0.5648(3) 0.3428(3)
O6A O 0.6828(4) 0.5939(5) 0.7303(3)
H2A H 0.7634 0.5960 0.7372
O7A O 0.8263(4) 1.2497(3) 1.1552(3)
O7A_2 O -0.1737(4) -0.7503(3) 0.1552(3)
O8A O 0.6718(4) 1.3120(4) 1.2199(3)
O8A_2 O -0.3282(4) -0.6880(4) 0.2199(3)
O9A O 0.7652(4) 1.0191(4) 1.0058(4)
H3A H 0.8160 1.0884 1.0494
O10A O -0.2709(5) -0.4224(5) 0.2529(4)
O11A O -0.0714(4) -0.4784(4) 0.1677(3)
C1A C 0.0210(6) -0.0322(5) 0.6031(4)
C2A C 0.0209(5) -0.1229(4) 0.5064(4)
C3A C 0.0003(6) -0.0883(5) 0.4053(4)
H4A H 0.0009 -0.1480 0.3413
C4A C 0.0368(5) -0.2567(4) 0.5076(4)
C5A C 0.5954(5) 0.5470(5) 0.6158(4)
C6A C 0.6422(5) 0.5139(4) 0.5273(4)
C7A C 0.5457(5) 0.4670(5) 0.4118(4)
H5A H 0.5771 0.4448 0.3526
C8A C 0.7932(5) 0.5278(4) 0.5516(4)
C9A C 0.6360(5) 1.0132(5) 1.0059(4)
C10A C 0.6007(5) 1.1103(5) 1.0753(4)
C11A C 0.4642(5) 1.0959(5) 1.0676(5)
H6A H 0.4402 1.1608 1.1127
C12A C 0.7046(5) 1.2302(5) 1.1543(4)
C13A C -0.3576(16) -0.3966(16) 0.2152(11)
H7A H -0.4238 -0.4698 0.1994
C14A C -0.5825(13) -0.3668(13) 0.1064(12)
H8A H -0.6090 -0.4563 0.0992
H9A H -0.6320 -0.3183 0.1441
H10A H -0.6047 -0.3557 0.0305
C15A C -0.3772(14) -0.1915(13) 0.2026(10)
H11A H -0.2796 -0.1742 0.2507
H12A H -0.3897 -0.1682 0.1327
H13A H -0.4229 -0.1420 0.2438
C16A C 0.0161(7) -0.3886(6) 0.1773(5)
H14A H 0.1031 -0.3720 0.2378
C17A C 0.1059(10) -0.2069(9) 0.1256(9)
H15A H 0.1885 -0.2026 0.1915
H16A H 0.1259 -0.2201 0.0574
H17A H 0.0749 -0.1278 0.1388
C18A C -0.1310(13) -0.3347(12) 0.0132(9)
H18A H -0.1932 -0.4086 0.0093
H19A H -0.1713 -0.2605 0.0227
H20A H -0.1158 -0.3495 -0.0572
N1A N -0.4340(7) -0.3215(7) 0.1747(6)
N2A N -0.0021(6) -0.3129(5) 0.1092(5)
O12 O 0.3821(11) 0.7765(10) 0.3624(8)
C19 C 0.446(4) 0.8074(17) 0.4553(17)
H21 H 0.4978 0.7456 0.4461
C20 C 0.479(4) 0.8711(18) 0.630(3)
H22 H 0.3793 0.8518 0.5980
H23 H 0.5136 0.9604 0.6735
H24 H 0.5132 0.8189 0.6802
C21 C 0.652(2) 0.8704(18) 0.583(4)
H25 H 0.6745 0.8457 0.5166
H26 H 0.6905 0.8217 0.6356
H27 H 0.6901 0.9606 0.6218
N3 N 0.5197(10) 0.8482(7) 0.5503(9)
loop_
_geom_bond_atom_site_label_1
_geom_bond_atom_site_label_2
_geom_bond_site_symmetry_1
_geom_bond_site_symmetry_2
Er1 O1 1_555 1_555
O1 C4 1_555 1_555
O2 C4 1_555 1_555
O3 H1 1_555 1_555
O4 Er1 1_555 1_555
O5 C8 1_555 1_555
O6 H2 1_555 1_555
O7 Er1 1_555 1_555
O8 Er1 1_555 1_555
O9 H3 1_555 1_555
O10 Er1 1_555 1_555
O11 Er1 1_555 1_555
O12 C19 1_555 1_555
C1 O3 1_555 1_555
C2 C1 1_555 1_555
C3 C2 1_555 1_555
H4 C3 1_555 1_555
C4 C2 1_555 1_555
C5 O6 1_555 1_555
C6 C5 1_555 1_555
C7 C6 1_555 1_555
H5 C7 1_555 1_555
C8 O4 1_555 1_555
C9 O9 1_555 1_555
C10 C9 1_555 1_555
C11 C10 1_555 1_555
H6 C11 1_555 1_555
C12 O7 1_555 1_555
C13 O10 1_555 1_555
H7 C13 1_555 1_555
C14 H8 1_555 1_555
H9 C14 1_555 1_555
H10 C14 1_555 1_555
C15 H11 1_555 1_555
H12 C15 1_555 1_555
H13 C15 1_555 1_555
C16 O11 1_555 1_555
H14 C16 1_555 1_555
C17 H15 1_555 1_555
H16 C17 1_555 1_555
H17 C17 1_555 1_555
C18 H18 1_555 1_555
H19 C18 1_555 1_555
H20 C18 1_555 1_555
C19 H21 1_555 1_555
C20 H22 1_555 1_555
H23 C20 1_555 1_555
H24 C20 1_555 1_555
C21 H25 1_555 1_555
H26 C21 1_555 1_555
H27 C21 1_555 1_555
N1 C13 1_555 1_555
N2 C16 1_555 1_555
N3 C19 1_555 1_555
Er1A O1A 1_555 1_555
Er1A_2 O2 1_555 1_555
Er1_2 O2A 1_555 1_555
Er1_3 O4A 1_555 1_555
Er1A_3 O4A 1_555 1_555
Er1A_4 O7A 1_555 1_555
O1A C4A 1_555 1_555
O2A C4A 1_555 1_555
O2A_2 Er1 1_555 1_555
O2_2 Er1A 1_555 1_555
O3A H1A 1_555 1_555
O4A C8A 1_555 1_555
O4A_2 Er1 1_555 1_555
O4A_3 Er1A 1_555 1_555
O4_2 Er1A 1_555 1_555
O5A Er1_3 1_555 1_555
O5A_2 Er1 1_555 1_555
O5_2 Er1A 1_555 1_555
O6A H2A 1_555 1_555
O7A C12A 1_555 1_555
O7A_2 Er1A 1_555 1_555
O8A Er1A_4 1_555 1_555
O8A_2 Er1A 1_555 1_555
O9A H3A 1_555 1_555
O10A Er1A 1_555 1_555
O11A Er1A 1_555 1_555
C1A C3 1_555 1_555
C2A C1A 1_555 1_555
C3A C1 1_555 1_555
H4A C3A 1_555 1_555
C4A C2A 1_555 1_555
C5A C7 1_555 1_555
C6A C5A 1_555 1_555
C7A C5 1_555 1_555
H5A C7A 1_555 1_555
C8A O5A 1_555 1_555
C9A C11 1_555 1_555
C10A C9A 1_555 1_555
C11A C9 1_555 1_555
H6A C11A 1_555 1_555
C12A O8A 1_555 1_555
C13A O10A 1_555 1_555
H7A C13A 1_555 1_555
C14A H8A 1_555 1_555
H9A C14A 1_555 1_555
H10A C14A 1_555 1_555
C15A H11A 1_555 1_555
H12A C15A 1_555 1_555
H13A C15A 1_555 1_555
C16A O11A 1_555 1_555
H14A C16A 1_555 1_555
C17A H15A 1_555 1_555
H16A C17A 1_555 1_555
H17A C17A 1_555 1_555
C18A H18A 1_555 1_555
H19A C18A 1_555 1_555
H20A C18A 1_555 1_555
N1A C13A 1_555 1_555
N2A C16A 1_555 1_555
O4 Er1A_2 1_555 1_555
O5 Er1A_2 1_555 1_555
O8 C12 1_555 1_555
C6 C8 1_555 1_555
C10 C12 1_555 1_555
C14 N1 1_555 1_555
C15 N1 1_555 1_555
C17 N2 1_555 1_555
C18 N2 1_555 1_555
C20 N3 1_555 1_555
C21 N3 1_555 1_555
Er1A_2 O4A_2 1_555 1_555
Er1_2 O4A_3 1_555 1_555
Er1_2 O4_2 1_555 1_555
O3A C1A 1_555 1_555
O6A C5A 1_555 1_555
O9A C9A 1_555 1_555
C2A C3A 1_555 1_555
C6A C7A 1_555 1_555
C6A C8A 1_555 1_555
C10A C11A 1_555 1_555
C10A C12A 1_555 1_555
C14A N1A 1_555 1_555
C15A N1A 1_555 1_555
C17A N2A 1_555 1_555
C18A N2A 1_555 1_555

#END
