
#######################################################################
#
#                 Cambridge Crystallographic Data Centre
#                                CCDC 
#
#######################################################################
#
# If this CIF has been generated from an entry in the Cambridge 
# Structural Database, then it will include bibliographic, chemical, 
# crystal, experimental, refinement or atomic coordinate data resulting 
# from the CCDC's data processing and validation procedures.
#
#######################################################################

data_ETELAR
_symmetry_cell_setting           triclinic
_symmetry_space_group_name_H-M   'P -1'
_symmetry_Int_Tables_number      2
_space_group_name_Hall           '-P 1'
loop_
_symmetry_equiv_pos_site_id
_symmetry_equiv_pos_as_xyz
1 x,y,z
2 -x,-y,-z
_cell_length_a                   9.2542(19)
_cell_length_b                   12.022(2)
_cell_length_c                   13.235(3)
_cell_angle_alpha                80.84(3)
_cell_angle_beta                 79.36(3)
_cell_angle_gamma                86.47(3)
_cell_volume                     1427.89
loop_
_atom_site_label
_atom_site_type_symbol
_atom_site_fract_x
_atom_site_fract_y
_atom_site_fract_z
Ni1 Ni -0.47784(4) 0.34180(3) -0.18773(3)
S1 S 0.22863(10) -0.11754(8) -0.42763(6)
O1 O -0.3022(2) 0.2447(2) -0.24866(18)
O2 O -0.6482(3) 0.4471(2) -0.12667(19)
O3 O -0.1077(3) 0.3381(2) -0.2345(2)
O4 O -0.3439(3) 0.4835(2) -0.22458(18)
O6 O 0.6127(2) -0.3791(2) -0.06759(17)
O8 O 0.4133(3) -0.3172(2) 0.03592(17)
O9 O 0.1356(3) -0.1996(2) -0.4495(2)
O10 O 0.3447(3) -0.0696(3) -0.5076(2)
N1 N -0.5906(3) 0.1925(2) -0.1412(2)
N2 N -0.7152(4) 0.0534(3) -0.0423(3)
N3 N -0.5516(3) 0.3751(2) -0.3295(2)
N4 N -0.6831(3) 0.4493(3) -0.4483(2)
C1 C 0.1771(4) 0.0896(3) -0.3651(3)
H1 H 0.2784 0.0974 -0.3825
C2 C 0.0864(4) 0.1743(3) -0.3241(3)
H2 H 0.1275 0.2391 -0.3131
C3 C -0.0658(4) 0.1626(3) -0.2993(2)
C4 C -0.1264(4) 0.0663(3) -0.3163(3)
H3 H -0.2279 0.0594 -0.3016
C5 C -0.0379(4) -0.0201(3) -0.3549(3)
H4 H -0.0785 -0.0858 -0.3641
C6 C 0.1139(4) -0.0060(3) -0.3796(3)
C7 C 0.3077(4) -0.1800(3) -0.3182(3)
C8 C 0.2146(4) -0.2340(3) -0.2314(3)
H5 H 0.1148 -0.2387 -0.2321
C9 C 0.2732(4) -0.2807(3) -0.1440(3)
H6 H 0.2117 -0.3130 -0.0841
C10 C 0.4245(4) -0.2791(3) -0.1464(2)
C11 C 0.5161(4) -0.2284(3) -0.2357(3)
H7 H 0.6172 -0.2299 -0.2379
C12 C 0.4576(4) -0.1759(3) -0.3213(3)
H8 H 0.5180 -0.1389 -0.3794
C13 C -0.1647(3) 0.2567(3) -0.2569(2)
C14 C 0.4877(4) -0.3297(3) -0.0513(2)
C15 C -0.6814(4) 0.1610(3) -0.0525(3)
H9 H -0.7170 0.2083 -0.0036
C16 C -0.5676(5) 0.1003(3) -0.1887(3)
H10 H -0.5090 0.0969 -0.2533
C17 C -0.6423(5) 0.0134(4) -0.1284(4)
H11 H -0.6435 -0.0596 -0.1432
C18 C -0.8117(6) -0.0114(5) 0.0469(4)
H12 H -0.8391 0.0346 0.1018
H13 H -0.7576 -0.0777 0.0740
C19 C -0.9510(6) -0.0479(5) 0.0163(4)
H14 H -0.9231 -0.0916 -0.0403
H15 H -1.0049 -0.0964 0.0750
C20 C -0.6510(4) 0.4539(3) -0.3539(3)
H16 H -0.6933 0.5059 -0.3112
C21 C -0.5197(4) 0.3175(3) -0.4129(3)
H17 H -0.4529 0.2568 -0.4184
C22 C -0.6007(4) 0.3627(3) -0.4863(3)
H18 H -0.5999 0.3389 -0.5499
C23 C -0.7949(4) 0.5201(3) -0.4974(3)
H19 H -0.7607 0.5356 -0.5719
H20 H -0.8082 0.5915 -0.4709
C24 C -0.9409(4) 0.4626(3) -0.4759(3)
H21 H -0.9736 0.4450 -0.4013
H22 H -0.9281 0.3923 -0.5041
H23 H -0.363(5) 0.531(3) -0.183(3)
H24 H -0.7358(18) 0.440(4) -0.134(2)
H25 H -0.259(2) 0.456(4) -0.223(4)
H26 H -0.643(4) 0.430(3) -0.0632(11)
Ni1A Ni 0.47784(4) -0.34180(3) 0.18773(3)
Ni1A_2 Ni -1.52216(4) -0.34180(3) 0.18773(3)
Ni1A_3 Ni -1.52216(4) 0.65820(3) -0.81227(3)
S1A S -0.22863(10) 0.11754(8) 0.42763(6)
O1A O 0.3022(2) -0.2447(2) 0.24866(18)
O2A O 0.6482(3) -0.4471(2) 0.12667(19)
O3A O 0.1077(3) -0.3381(2) 0.2345(2)
O4A O 0.3439(3) -0.4835(2) 0.22458(18)
O6A O -0.6127(2) 0.3791(2) 0.06759(17)
O8A O -0.4133(3) 0.3172(2) -0.03592(17)
O9A O -0.1356(3) 0.1996(2) 0.4495(2)
O10A O -0.3447(3) 0.0696(3) 0.5076(2)
N1A N -1.4094(3) -0.1925(2) 0.1412(2)
N1A_2 N 0.5906(3) -0.1925(2) 0.1412(2)
N2A N -1.2848(4) -0.0534(3) 0.0423(3)
N3A N -1.4484(3) 0.6249(2) -0.6705(2)
N3A_2 N 0.5516(3) -0.3751(2) 0.3295(2)
N4A N -1.3169(3) 0.5507(3) -0.5517(2)
C1A C -0.1771(4) -0.0896(3) 0.3651(3)
H1A H -0.2784 -0.0974 0.3825
C2A C -0.0864(4) -0.1743(3) 0.3241(3)
H2A H -0.1275 -0.2391 0.3131
C3A C 0.0658(4) -0.1626(3) 0.2993(2)
C4A C 0.1264(4) -0.0663(3) 0.3163(3)
H3A H 0.2279 -0.0594 0.3016
C5A C 0.0379(4) 0.0201(3) 0.3549(3)
H4A H 0.0785 0.0858 0.3641
C6A C -0.1139(4) 0.0060(3) 0.3796(3)
C7A C -0.3077(4) 0.1800(3) 0.3182(3)
C8A C -0.2146(4) 0.2340(3) 0.2314(3)
H5A H -0.1148 0.2387 0.2321
C9A C -0.2732(4) 0.2807(3) 0.1440(3)
H6A H -0.2117 0.3130 0.0841
C10A C -0.4245(4) 0.2791(3) 0.1464(2)
C11A C -0.5161(4) 0.2284(3) 0.2357(3)
H7A H -0.6172 0.2299 0.2379
C12A C -0.4576(4) 0.1759(3) 0.3213(3)
H8A H -0.5180 0.1389 0.3794
C13A C 0.1647(3) -0.2567(3) 0.2569(2)
C14A C -0.4877(4) 0.3297(3) 0.0513(2)
C15A C -1.3186(4) -0.1610(3) 0.0525(3)
H9A H -1.2830 -0.2083 0.0036
C16A C -1.4324(5) -0.1003(3) 0.1887(3)
H10A H -1.4910 -0.0969 0.2533
C17A C -1.3577(5) -0.0134(4) 0.1284(4)
H11A H -1.3565 0.0596 0.1432
C18A C -1.1883(6) 0.0114(5) -0.0469(4)
H12A H -1.1609 -0.0346 -0.1018
H13A H -1.2424 0.0777 -0.0740
C19A C -1.0490(6) 0.0479(5) -0.0163(4)
H14A H -1.0769 0.0916 0.0403
H15A H -0.9951 0.0964 -0.0750
C20A C -1.3490(4) 0.5461(3) -0.6461(3)
H16A H -1.3067 0.4941 -0.6888
C21A C -1.4803(4) 0.6825(3) -0.5871(3)
H17A H -1.5471 0.7432 -0.5816
C22A C -1.3993(4) 0.6373(3) -0.5137(3)
H18A H -1.4001 0.6611 -0.4501
C23A C -1.2051(4) 0.4799(3) -0.5026(3)
H19A H -1.2393 0.4644 -0.4281
H20A H -1.1918 0.4085 -0.5291
C24A C -1.0591(4) 0.5374(3) -0.5241(3)
H21A H -1.0264 0.5550 -0.5987
H22A H -1.0719 0.6077 -0.4959
H23A H 0.363(5) -0.531(3) 0.183(3)
H24A H 0.7358(18) -0.440(4) 0.134(2)
H25A H 0.259(2) -0.456(4) 0.223(4)
H26A H 0.643(4) -0.430(3) 0.0632(11)
O5 O -0.9222(4) 0.3623(4) 0.0968(3)
O7 O 0.0552(4) 0.4219(5) -0.1162(4)
H27 H 0.028(8) 0.4904(17) -0.126(6)
H28 H 0.012(7) 0.386(4) -0.150(5)
loop_
_geom_bond_atom_site_label_1
_geom_bond_atom_site_label_2
_geom_bond_site_symmetry_1
_geom_bond_site_symmetry_2
Ni1 O1 1_555 1_555
S1 O9 1_555 1_555
O1 C13 1_555 1_555
O2 Ni1 1_555 1_555
O3 C13 1_555 1_555
O4 Ni1 1_555 1_555
O6 C14 1_555 1_555
O7 H27 1_555 1_555
O8 C14 1_555 1_555
O10 S1 1_555 1_555
N1 Ni1 1_555 1_555
N2 C15 1_555 1_555
N3 Ni1 1_555 1_555
N4 C20 1_555 1_555
C1 H1 1_555 1_555
C2 C1 1_555 1_555
H2 C2 1_555 1_555
C3 C2 1_555 1_555
C4 C3 1_555 1_555
H3 C4 1_555 1_555
C5 C4 1_555 1_555
H4 C5 1_555 1_555
C6 S1 1_555 1_555
C7 S1 1_555 1_555
C8 C7 1_555 1_555
H5 C8 1_555 1_555
C9 C8 1_555 1_555
H6 C9 1_555 1_555
C10 C9 1_555 1_555
C11 C10 1_555 1_555
H7 C11 1_555 1_555
C12 C7 1_555 1_555
H8 C12 1_555 1_555
C13 C3 1_555 1_555
C14 C10 1_555 1_555
C15 N1 1_555 1_555
H9 C15 1_555 1_555
C16 N1 1_555 1_555
H10 C16 1_555 1_555
C17 N2 1_555 1_555
H11 C17 1_555 1_555
C18 N2 1_555 1_555
H12 C18 1_555 1_555
H13 C18 1_555 1_555
C19 C18 1_555 1_555
H14 C19 1_555 1_555
H15 C19 1_555 1_555
C20 N3 1_555 1_555
H16 C20 1_555 1_555
C21 N3 1_555 1_555
H17 C21 1_555 1_555
C22 N4 1_555 1_555
H18 C22 1_555 1_555
C23 N4 1_555 1_555
H19 C23 1_555 1_555
H20 C23 1_555 1_555
C24 C23 1_555 1_555
H21 C24 1_555 1_555
H22 C24 1_555 1_555
H23 O4 1_555 1_555
H24 O2 1_555 1_555
H25 O4 1_555 1_555
H26 O2 1_555 1_555
H28 O7 1_555 1_555
Ni1A O8 1_555 1_555
Ni1A_2 N1A 1_555 1_555
Ni1A_3 N3A 1_555 1_555
S1A O9A 1_555 1_555
O1A Ni1A 1_555 1_555
O2A Ni1A 1_555 1_555
O3A C13A 1_555 1_555
O4A Ni1A 1_555 1_555
O6A C14A 1_555 1_555
O8A Ni1 1_555 1_555
O10A S1A 1_555 1_555
N1A C15A 1_555 1_555
N1A_2 Ni1A 1_555 1_555
N2A C15A 1_555 1_555
N3A C20A 1_555 1_555
N3A_2 Ni1A 1_555 1_555
N4A C20A 1_555 1_555
C1A H1A 1_555 1_555
C2A C1A 1_555 1_555
H2A C2A 1_555 1_555
C3A C2A 1_555 1_555
C4A C3A 1_555 1_555
H3A C4A 1_555 1_555
C5A C4A 1_555 1_555
H4A C5A 1_555 1_555
C6A S1A 1_555 1_555
C7A S1A 1_555 1_555
C8A C7A 1_555 1_555
H5A C8A 1_555 1_555
C9A C8A 1_555 1_555
H6A C9A 1_555 1_555
C10A C9A 1_555 1_555
C11A C10A 1_555 1_555
H7A C11A 1_555 1_555
C12A C7A 1_555 1_555
H8A C12A 1_555 1_555
C13A O1A 1_555 1_555
C14A O8A 1_555 1_555
C15A H9A 1_555 1_555
C16A N1A 1_555 1_555
H10A C16A 1_555 1_555
C17A N2A 1_555 1_555
H11A C17A 1_555 1_555
C18A N2A 1_555 1_555
H12A C18A 1_555 1_555
H13A C18A 1_555 1_555
C19A C19 1_555 1_555
H14A C19A 1_555 1_555
H15A C19A 1_555 1_555
C20A H16A 1_555 1_555
C21A N3A 1_555 1_555
H17A C21A 1_555 1_555
C22A N4A 1_555 1_555
H18A C22A 1_555 1_555
C23A N4A 1_555 1_555
H19A C23A 1_555 1_555
H20A C23A 1_555 1_555
C24A C24 1_555 1_555
H21A C24A 1_555 1_555
H22A C24A 1_555 1_555
H23A O4A 1_555 1_555
H24A O2A 1_555 1_555
H25A O4A 1_555 1_555
H26A O2A 1_555 1_555
C1 C6 1_555 1_555
C5 C6 1_555 1_555
C11 C12 1_555 1_555
C16 C17 1_555 1_555
C21 C22 1_555 1_555
C1A C6A 1_555 1_555
C3A C13A 1_555 1_555
C5A C6A 1_555 1_555
C10A C14A 1_555 1_555
C11A C12A 1_555 1_555
C16A C17A 1_555 1_555
C18A C19A 1_555 1_555
C21A C22A 1_555 1_555
C23A C24A 1_555 1_555

#END
