
#######################################################################
#
#                 Cambridge Crystallographic Data Centre
#                                CCDC 
#
#######################################################################
#
# If this CIF has been generated from an entry in the Cambridge 
# Structural Database, then it will include bibliographic, chemical, 
# crystal, experimental, refinement or atomic coordinate data resulting 
# from the CCDC's data processing and validation procedures.
#
#######################################################################

data_ETELEV
_symmetry_cell_setting           monoclinic
_symmetry_space_group_name_H-M   'C c'
_symmetry_Int_Tables_number      9
_space_group_name_Hall           'C -2yc'
loop_
_symmetry_equiv_pos_site_id
_symmetry_equiv_pos_as_xyz
1 x,y,z
2 x,-y,1/2+z
3 1/2+x,1/2+y,z
4 1/2+x,1/2-y,1/2+z
_cell_length_a                   9.1045(3)
_cell_length_b                   19.8708(6)
_cell_length_c                   26.5094(8)
_cell_angle_alpha                90
_cell_angle_beta                 97.067(2)
_cell_angle_gamma                90
_cell_volume                     4759.48
loop_
_atom_site_label
_atom_site_type_symbol
_atom_site_fract_x
_atom_site_fract_y
_atom_site_fract_z
Ni1 Ni 0.71875(6) 0.14802(3) 0.13731(2)
C1 C 0.5370(5) -0.0452(2) 0.48026(18)
H1 H 0.5889 -0.0121 0.4998
C2 C 0.4812(6) -0.0311(2) 0.43087(18)
H2 H 0.4978 0.0110 0.4173
C3 C 0.4002(6) -0.0788(2) 0.40093(18)
C4 C 0.3785(6) -0.1428(2) 0.4224(2)
H3 H 0.3238 -0.1754 0.4032
C5 C 0.4375(6) -0.1569(3) 0.4712(2)
H4 H 0.4248 -0.1995 0.4846
C6 C 0.5172(5) -0.1077(2) 0.50137(18)
C7 C 0.5858(5) -0.1227(2) 0.55359(18)
C8 C 0.3338(6) -0.0641(3) 0.34902(19)
C9 C 0.4021(6) -0.0112(2) 0.31808(16)
C10 C 0.3181(6) 0.0357(3) 0.28935(19)
H5 H 0.2184 0.0409 0.2930
C11 C 0.3823(6) 0.0753(3) 0.25488(19)
H6 H 0.3254 0.1072 0.2356
C12 C 0.5302(6) 0.0677(2) 0.24908(16)
C13 C 0.6144(6) 0.0214(3) 0.27928(19)
H7 H 0.7140 0.0159 0.2756
C14 C 0.5525(7) -0.0164(3) 0.3144(2)
H8 H 0.6111 -0.0455 0.3358
C15 C 0.5983(6) 0.1030(2) 0.20819(18)
C16 C 0.8713(8) 0.2533(4) 0.2114(2)
H9 H 0.9344 0.2228 0.2296
C17 C 0.7064(7) 0.2938(3) 0.1566(2)
H10 H 0.6347 0.2979 0.1287
C18 C 0.8601(10) 0.3192(4) 0.2226(3)
H11 H 0.9169 0.3425 0.2485
C19 C 0.6852(15) 0.4092(5) 0.1937(5)
H12 H 0.6872 0.4193 0.2295
H13 H 0.5822 0.4070 0.1791
C20 C 0.7583(17) 0.4666(5) 0.1688(4)
H14 H 0.7047 0.5069 0.1761
H15 H 0.8567 0.4709 0.1872
C21 C 0.7769(12) 0.4702(5) 0.1147(3)
H16 H 0.8766 0.4870 0.1137
H17 H 0.7776 0.4239 0.1032
C22 C 0.6852(7) 0.5064(4) 0.0746(2)
H18 H 0.6148 0.4752 0.0569
H19 H 0.7479 0.5229 0.0502
C23 C 0.4595(6) 0.5670(3) 0.09678(19)
H20 H 0.3927 0.5327 0.0867
C24 C 0.6652(6) 0.6225(3) 0.1129(2)
H21 H 0.7648 0.6341 0.1158
C25 C 0.5542(6) 0.6599(3) 0.1274(2)
H22 H 0.5647 0.7023 0.1422
N1 N 0.7763(5) 0.2387(2) 0.16940(16)
N2 N 0.7499(8) 0.3449(3) 0.1889(2)
N3 N 0.6024(5) 0.5643(2) 0.09296(16)
N4 N 0.4229(5) 0.62546(19) 0.11707(15)
O1 O 0.6111(4) -0.18310(16) 0.56750(12)
O3 O 0.6216(4) -0.07434(16) 0.58397(13)
O4 O 0.5203(4) 0.13947(18) 0.17649(13)
O5 O 0.7345(5) 0.0947(2) 0.20472(14)
O6 O 0.2210(6) -0.0930(2) 0.32987(17)
Ni1B Ni 0.21875(6) 0.64802(3) 0.13731(2)
Ni1A Ni 0.71875(6) -0.14802(3) 0.63731(2)
N4B N 0.9229(5) 0.12546(19) 0.11707(15)
O1A O 0.6111(4) 0.18310(16) 0.06750(12)
O3A O 0.6216(4) 0.07434(16) 0.08397(13)
Ni2 Ni 0.85598(5) 0.10906(3) -0.54108(2)
C26 C 0.2885(5) 0.3528(2) -0.89912(17)
C27 C 0.3313(5) 0.2906(2) -0.87804(18)
H23 H 0.3601 0.2563 -0.8986
C28 C 0.3310(5) 0.2796(2) -0.82715(18)
H24 H 0.3663 0.2391 -0.8128
C29 C 0.2778(6) 0.3291(2) -0.79656(18)
C30 C 0.2283(6) 0.3898(3) -0.8182(2)
H25 H 0.1899 0.4225 -0.7983
C31 C 0.2360(6) 0.4019(3) -0.86899(19)
H26 H 0.2058 0.4432 -0.8831
C32 C 0.3061(5) 0.3661(2) -0.95404(18)
C33 C 0.2684(6) 0.3174(3) -0.74143(18)
C34 C 0.3739(6) 0.2703(2) -0.71121(17)
C35 C 0.5232(6) 0.2692(3) -0.71649(19)
H27 H 0.5574 0.2931 -0.7428
C36 C 0.6222(6) 0.2332(3) -0.68336(18)
H28 H 0.7229 0.2351 -0.6862
C37 C 0.5717(6) 0.1941(3) -0.64577(16)
C38 C 0.4215(6) 0.1929(3) -0.64142(19)
H29 H 0.3864 0.1657 -0.6170
C39 C 0.3232(6) 0.2318(3) -0.6731(2)
H30 H 0.2233 0.2323 -0.6688
C40 C 0.6786(6) 0.1574(2) -0.60812(17)
C41 C 1.1416(6) 0.1725(2) -0.49437(18)
H31 H 1.0903 0.2052 -0.4785
C42 C 1.1927(6) 0.0885(3) -0.5399(2)
H32 H 1.1815 0.0515 -0.5615
C43 C 1.3240(6) 0.1147(3) -0.5195(2)
H33 H 1.4180 0.0998 -0.5243
C44 C 1.3993(6) 0.2109(3) -0.4611(2)
H34 H 1.4655 0.1831 -0.4385
H35 H 1.3494 0.2416 -0.4404
C45 C 1.4882(7) 0.2509(3) -0.4943(3)
H36 H 1.5219 0.2212 -0.5196
H37 H 1.5750 0.2686 -0.4737
C46 C 1.4023(7) 0.3089(3) -0.5212(2)
H38 H 1.3150 0.2919 -0.5420
H39 H 1.3706 0.3398 -0.4964
C47 C 1.4998(8) 0.3445(3) -0.5538(3)
H40 H 1.5133 0.3160 -0.5825
H41 H 1.5961 0.3511 -0.5343
C48 C 1.4073(7) 0.4623(3) -0.5448(2)
H42 H 1.4015 0.4593 -0.5101
C49 C 1.4383(10) 0.4337(4) -0.6210(3)
H43 H 1.4560 0.4084 -0.6491
C50 C 1.4045(9) 0.4995(4) -0.6203(2)
H44 H 1.3972 0.5283 -0.6482
N5 N 1.0783(5) 0.1248(2) -0.52380(15)
N6 N 1.2891(4) 0.1680(2) -0.49015(15)
N7 N 1.4413(6) 0.4119(2) -0.5735(2)
N8 N 1.3826(5) 0.5172(2) -0.57192(16)
O7 O 0.3183(4) 0.31768(16) -0.98353(12)
O8 O 0.3165(4) 0.42676(16) -0.96882(12)
O9 O 0.8155(4) 0.1638(2) -0.60955(13)
O10 O 0.6298(4) 0.12233(18) -0.57425(12)
O11 O 0.1741(6) 0.3460(2) -0.72033(16)
Ni2B Ni 1.35598(5) 0.60906(3) -0.54108(2)
Ni2C Ni 0.35598(5) 0.39094(3) -1.04108(2)
N8B N 0.8826(5) 0.0172(2) -0.57192(16)
O7C O 0.8183(4) 0.18232(16) -0.48353(12)
O8C O 0.8165(4) 0.07324(16) -0.46882(12)
O2 O 1.4679(9) 0.3745(4) -0.2049(3)
C51? C 0.6533(19) 0.4502(11) 0.1470(7)
H45? H 0.5929 0.4028 0.2078
H46? H 0.7511 0.4336 0.2188
H47? H 0.6078 0.4916 0.1567
H48? H 0.5786 0.4262 0.1246
H49? H 0.8545 0.4985 0.1319
H50? H 0.8205 0.4301 0.1019
loop_
_geom_bond_atom_site_label_1
_geom_bond_atom_site_label_2
_geom_bond_site_symmetry_1
_geom_bond_site_symmetry_2
Ni1 N1 1_555 1_555
Ni2 N5 1_555 1_555
C1 H1 1_555 1_555
C2 C1 1_555 1_555
H2 C2 1_555 1_555
C3 C2 1_555 1_555
C4 C3 1_555 1_555
H3 C4 1_555 1_555
C5 C4 1_555 1_555
H4 C5 1_555 1_555
C6 C1 1_555 1_555
C7 C6 1_555 1_555
C8 C3 1_555 1_555
C9 C8 1_555 1_555
C10 C9 1_555 1_555
H5 C10 1_555 1_555
C11 C10 1_555 1_555
H6 C11 1_555 1_555
C12 C11 1_555 1_555
C13 C12 1_555 1_555
H7 C13 1_555 1_555
C14 C9 1_555 1_555
H8 C14 1_555 1_555
C15 C12 1_555 1_555
C16 H9 1_555 1_555
C17 H10 1_555 1_555
C18 C16 1_555 1_555
H11 C18 1_555 1_555
C19 H12 1_555 1_555
H13 C19 1_555 1_555
C20 C19 1_555 1_555
H14 C20 1_555 1_555
H15 C20 1_555 1_555
C21 C20 1_555 1_555
H16 C21 1_555 1_555
H17 C21 1_555 1_555
C22 C21 1_555 1_555
H18 C22 1_555 1_555
H19 C22 1_555 1_555
C23 H20 1_555 1_555
C24 H21 1_555 1_555
C25 C24 1_555 1_555
H22 C25 1_555 1_555
C26 C27 1_555 1_555
C27 H23 1_555 1_555
C28 C27 1_555 1_555
H24 C28 1_555 1_555
C29 C28 1_555 1_555
C30 C29 1_555 1_555
H25 C30 1_555 1_555
C31 C26 1_555 1_555
H26 C31 1_555 1_555
C32 C26 1_555 1_555
C33 C29 1_555 1_555
C34 C33 1_555 1_555
C35 C34 1_555 1_555
H27 C35 1_555 1_555
C36 C35 1_555 1_555
H28 C36 1_555 1_555
C37 C36 1_555 1_555
C38 C37 1_555 1_555
H29 C38 1_555 1_555
C39 C34 1_555 1_555
H30 C39 1_555 1_555
C40 C37 1_555 1_555
C41 H31 1_555 1_555
C42 H32 1_555 1_555
C43 C42 1_555 1_555
H33 C43 1_555 1_555
C44 H34 1_555 1_555
H35 C44 1_555 1_555
C45 C44 1_555 1_555
H36 C45 1_555 1_555
H37 C45 1_555 1_555
C46 C45 1_555 1_555
H38 C46 1_555 1_555
H39 C46 1_555 1_555
C47 C46 1_555 1_555
H40 C47 1_555 1_555
H41 C47 1_555 1_555
C48 H42 1_555 1_555
C49 H43 1_555 1_555
C50 C49 1_555 1_555
H44 C50 1_555 1_555
N1 C16 1_555 1_555
N2 C17 1_555 1_555
N3 C22 1_555 1_555
N4 C23 1_555 1_555
N5 C41 1_555 1_555
N6 C41 1_555 1_555
N7 C47 1_555 1_555
N8 C48 1_555 1_555
O1 C7 1_555 1_555
O3 C7 1_555 1_555
O4 Ni1 1_555 1_555
O5 Ni1 1_555 1_555
O6 C8 1_555 1_555
O7 C32 1_555 1_555
O8 C32 1_555 1_555
O9 Ni2 1_555 1_555
O10 Ni2 1_555 1_555
O11 C33 1_555 1_555
Ni1B N4 1_555 1_555
Ni1A O1 1_555 1_555
Ni2B N8 1_555 1_555
Ni2C O7 1_555 1_555
N4B Ni1 1_555 1_555
N8B Ni2 1_555 1_555
O1A Ni1 1_555 1_555
O3A Ni1 1_555 1_555
O7C Ni2 1_555 1_555
O8C Ni2 1_555 1_555
C5 C6 1_555 1_555
C13 C14 1_555 1_555
C15 O4 1_555 1_555
C15 O5 1_555 1_555
C17 N1 1_555 1_555
C18 N2 1_555 1_555
C19 N2 1_555 1_555
C23 N3 1_555 1_555
C24 N3 1_555 1_555
C25 N4 1_555 1_555
C30 C31 1_555 1_555
C38 C39 1_555 1_555
C40 O9 1_555 1_555
C40 O10 1_555 1_555
C42 N5 1_555 1_555
C43 N6 1_555 1_555
C44 N6 1_555 1_555
C48 N7 1_555 1_555
C49 N7 1_555 1_555
C50 N8 1_555 1_555
O3 Ni1A 1_555 1_555
O8 Ni2C 1_555 1_555

#END
