
#######################################################################
#
#                 Cambridge Crystallographic Data Centre
#                                CCDC 
#
#######################################################################
#
# If this CIF has been generated from an entry in the Cambridge 
# Structural Database, then it will include bibliographic, chemical, 
# crystal, experimental, refinement or atomic coordinate data resulting 
# from the CCDC's data processing and validation procedures.
#
#######################################################################

data_ETEPID
_symmetry_cell_setting           tetragonal
_symmetry_space_group_name_H-M   'I 41'
_symmetry_Int_Tables_number      80
_space_group_name_Hall           'I 4bw'
loop_
_symmetry_equiv_pos_site_id
_symmetry_equiv_pos_as_xyz
1 x,y,z
2 -x,-y,z
3 -y,1/2+x,1/4+z
4 y,1/2-x,1/4+z
5 1/2+x,1/2+y,1/2+z
6 1/2-x,1/2-y,1/2+z
7 1/2-y,x,3/4+z
8 1/2+y,-x,3/4+z
_cell_length_a                   27.994(4)
_cell_length_b                   27.994(4)
_cell_length_c                   19.391(6)
_cell_angle_alpha                90
_cell_angle_beta                 90
_cell_angle_gamma                90
_cell_volume                     15196
loop_
_atom_site_label
_atom_site_type_symbol
_atom_site_fract_x
_atom_site_fract_y
_atom_site_fract_z
O2 O 0.8605(5) 0.0367(4) 0.9851(7)
O4 O 0.9907(4) -0.0299(7) 0.9941(5)
Rb1 Rb 0.93829(3) 0.03498(2) 0.88724(5)
C1 C 1.05719(16) 0.08778(19) 0.8086(4)
C2 C 1.09031(18) 0.16073(18) 0.7806(4)
H1 H 1.0710 0.1902 0.7758
C3 C 1.08733(17) 0.13078(17) 0.7163(4)
H2 H 1.0663 0.1454 0.6811
C4 C 1.16730(19) 0.15521(19) 0.7328(4)
C5 C 1.04892(18) 0.05064(18) 0.6964(3)
H3 H 1.0313 0.0669 0.6596
H4 H 1.0261 0.0313 0.7227
C6 C 1.1488(2) 0.11265(19) 0.6244(4)
H5 H 1.1243 0.1239 0.5921
H6 H 1.1793 0.1271 0.6109
C7 C 1.08810(16) -0.02844(17) 0.6800(3)
C8 C 1.11118(17) 0.0322(2) 0.6064(3)
H7 H 1.0901 0.0461 0.5706
C9 C 1.13361(19) -0.0155(2) 0.5813(3)
H8 H 1.1206 -0.0253 0.5360
C10 C 1.19369(18) 0.0412(2) 0.5983(3)
C11 C 1.12834(18) -0.09870(19) 0.6313(3)
H9 H 1.1208 -0.1098 0.5846
H10 H 1.1069 -0.1152 0.6634
C12 C 1.21861(19) -0.0346(2) 0.5399(3)
H11 H 1.2026 -0.0494 0.5003
H12 H 1.2442 -0.0142 0.5221
C13 C 1.18801(19) -0.13449(18) 0.7070(4)
C14 C 1.2148(2) -0.11599(19) 0.5963(3)
H13 H 1.2038 -0.1328 0.5543
C15 C 1.25391(18) -0.14434(18) 0.6362(4)
H14 H 1.2616 -0.1747 0.6125
C16 C 1.28538(18) -0.07051(19) 0.6027(3)
C17 C 1.2517(2) -0.1862(2) 0.7495(4)
H15 H 1.2652 -0.2132 0.7240
H16 H 1.2249 -0.1984 0.7769
C18 C 1.34171(19) -0.1253(2) 0.6576(3)
H17 H 1.3653 -0.1046 0.6353
H18 H 1.3479 -0.1581 0.6424
C19 C 1.2810(2) -0.1662(2) 0.8653(4)
C20 C 1.3376(2) -0.1626(2) 0.7741(4)
H19 H 1.3505 -0.1927 0.7549
C21 C 1.3616(2) -0.1494(3) 0.8421(5)
H20 H 1.3896 -0.1699 0.8518
C22 C 1.37180(18) -0.0869(2) 0.7649(3)
C23 C 1.3337(3) -0.1596(5) 0.9662(7)
H21 H 1.3641 -0.1763 0.9731
H22 H 1.3084 -0.1784 0.9884
C24 C 1.40912(19) -0.0742(3) 0.8778(4)
H23 H 1.4344 -0.0963 0.8920
H24 H 1.4241 -0.0479 0.8523
C25 C 1.2989(4) -0.0913(6) 1.0413(6)
C26 C 1.3765(3) -0.0791(5) 0.9997(5)
H25 H 1.4051 -0.0972 1.0143
C27 C 1.3646(3) -0.0427(5) 1.0540(5)
H26 H 1.3858 -0.0445 1.0949
C28 C 1.38398(19) -0.0091(5) 0.9462(3)
C29 C 1.2903(4) -0.0304(4) 1.1262(4)
H27 H 1.2642 -0.0507 1.1425
H28 H 1.3129 -0.0265 1.1644
C30 C 1.3745(2) 0.0524(7) 1.0410(5)
H29 H 1.3936 0.0520 1.0834
H30 H 1.3915 0.0720 1.0071
C31 C 1.2220(5) 0.0255(8) 1.0947(5)
C32 C 1.2963(3) 0.0643(7) 1.1115(4)
H31 H 1.3138 0.0663 1.1558
C33 C 1.2593(3) 0.1031(6) 1.1099(5)
H32 H 1.2552 0.1193 1.1549
C34 C 1.3207(3) 0.1175(7) 1.0289(7)
C35 C 1.1691(2) 0.0976(4) 1.0909(4)
H33 H 1.1446 0.0733 1.0995
H34 H 1.1686 0.1196 1.1302
C36 C 1.2573(3) 0.1804(6) 1.0410(7)
H35 H 1.2818 0.2007 1.0197
H36 H 1.2483 0.1950 1.0850
C37 C 1.1161(2) 0.1126(4) 0.9898(4)
C38 C 1.1674(2) 0.1748(4) 1.0169(5)
H37 H 1.1600 0.1953 1.0570
C39 C 1.1370(2) 0.1863(3) 0.9566(5)
H38 H 1.1193 0.2165 0.9635
C40 C 1.2178(2) 0.1930(3) 0.9304(8)
C41 C 1.06227(16) 0.1453(2) 0.9050(4)
H39 H 1.0482 0.1773 0.9048
H40 H 1.0391 0.1235 0.9259
C42 C 1.1601(2) 0.2096(2) 0.8343(7)
H41 H 1.1363 0.2351 0.8388
H42 H 1.1891 0.2235 0.8141
N1 N 1.07115(14) 0.13038(15) 0.8336(3)
N2 N 1.06908(14) 0.08519(16) 0.7404(3)
N3 N 1.14171(16) 0.17249(16) 0.7887(3)
N4 N 1.13653(15) 0.12868(15) 0.6937(3)
N5 N 1.08470(13) 0.01891(16) 0.6653(2)
N6 N 1.11972(14) -0.04820(14) 0.6353(2)
N7 N 1.15263(14) 0.06314(15) 0.6191(3)
N8 N 1.18395(14) -0.00472(15) 0.5771(2)
N9 N 1.17738(15) -0.11132(14) 0.6475(3)
N10 N 1.23384(15) -0.15285(15) 0.7017(3)
N11 N 1.23900(16) -0.07086(17) 0.5807(3)
N12 N 1.29506(15) -0.11147(16) 0.6350(3)
N13 N 1.28778(16) -0.16796(18) 0.7961(3)
N14 N 1.32390(19) -0.1559(3) 0.8932(4)
N15 N 1.34814(16) -0.12270(16) 0.7309(3)
N16 N 1.37521(15) -0.0992(2) 0.8324(3)
N17 N 1.3361(2) -0.1105(4) 0.9993(3)
N18 N 1.3146(2) -0.0547(4) 1.0694(3)
N19 N 1.38631(19) -0.0558(3) 0.9370(3)
N20 N 1.3709(2) 0.0019(4) 1.0138(4)
N21 N 1.2711(2) 0.0163(4) 1.1079(4)
N22 N 1.2174(3) 0.0727(6) 1.0904(5)
N23 N 1.3298(3) 0.0740(6) 1.0554(4)
N24 N 1.2772(2) 0.1358(5) 1.0540(5)
N25 N 1.15491(19) 0.1243(3) 1.0297(4)
N26 N 1.10453(16) 0.1459(2) 0.9460(4)
N27 N 1.2155(2) 0.1794(3) 0.9961(6)
N28 N 1.17127(17) 0.1904(2) 0.9025(5)
O5 O 1.03548(12) 0.05645(12) 0.8410(2)
O6 O 1.06593(11) -0.04927(12) 0.72643(19)
O7 O 1.16235(14) -0.13737(15) 0.7582(2)
O8 O 1.24539(13) -0.17380(19) 0.8980(3)
O9 O 1.26123(19) -0.1140(4) 1.0558(3)
O10 O 1.1915(2) -0.0020(5) 1.0944(3)
O11 O 1.09732(17) 0.0721(2) 0.9947(3)
O12 O 1.20884(13) 0.16362(13) 0.7209(3)
O13 O 1.23441(12) 0.05982(14) 0.5970(2)
O14 O 1.31421(13) -0.03754(13) 0.5926(2)
O15 O 1.38627(13) -0.05022(13) 0.7370(2)
O16 O 1.39164(14) 0.0255(2) 0.9030(3)
O17 O 1.34468(19) 0.1392(3) 0.9864(4)
O18 O 1.25319(15) 0.20219(19) 0.8990(4)
C43 C 0.8067(2) 0.0157(2) 0.8210(4)
C44 C 0.7608(3) 0.0344(3) 0.8203(5)
H43 H 0.7552 0.0670 0.8118
C45 C 0.7234(2) 0.0031(3) 0.8327(6)
H44 H 0.6923 0.0158 0.8324
C46 C 0.7278(2) -0.0425(2) 0.8446(5)
C47 C 0.7720(3) -0.0603(3) 0.8423(7)
H45 H 0.7763 -0.0933 0.8492
C48 C 0.8123(3) -0.0315(3) 0.8299(7)
H46 H 0.8429 -0.0452 0.8280
O19 O 0.84703(15) 0.04436(17) 0.8166(3)
H47 H 0.8445 0.0706 0.7865
O20 O 0.6906(2) -0.0745(2) 0.8533(4)
H48 H 0.6648 -0.0604 0.8480
O2A O 1.1395(5) -0.0367(4) 0.9851(7)
O4A O 1.0093(4) 0.0299(7) 0.9941(5)
Rb1A Rb 1.06171(3) -0.03498(2) 0.88724(5)
Rb1F Rb 1.46502(2) -0.06171(3) 0.63724(5)
Rb1C Rb 1.03498(2) 0.56171(3) 1.13724(5)
Rb1B Rb 0.96502(2) 0.43829(3) 1.13724(5)
C1C C 1.08778(19) 0.44281(16) 1.0586(4)
C2C C 1.16073(18) 0.40969(18) 1.0306(4)
H1C H 1.1902 0.4290 1.0258
C3C C 1.13078(17) 0.41267(17) 0.9663(4)
H2C H 1.1454 0.4337 0.9311
C4C C 1.15521(19) 0.33270(19) 0.9828(4)
C5C C 1.05064(18) 0.45108(18) 0.9464(3)
H3C H 1.0669 0.4687 0.9096
H4C H 1.0313 0.4739 0.9727
C6C C 1.11265(19) 0.3512(2) 0.8744(4)
H5C H 1.1239 0.3757 0.8421
H6C H 1.1271 0.3207 0.8609
C7C C 0.97156(17) 0.41190(16) 0.9300(3)
C8C C 1.0322(2) 0.38882(17) 0.8564(3)
H7C H 1.0461 0.4099 0.8206
C9C C 0.9845(2) 0.36639(19) 0.8313(3)
H8C H 0.9747 0.3794 0.7860
C10C C 1.0412(2) 0.30631(18) 0.8483(3)
C11C C 0.90130(19) 0.37166(18) 0.8813(3)
H9C H 0.8902 0.3792 0.8346
H10C H 0.8848 0.3931 0.9134
C12C C 0.9654(2) 0.28139(19) 0.7899(3)
H11C H 0.9506 0.2974 0.7503
H12C H 0.9858 0.2558 0.7721
C13C C 0.86551(18) 0.31199(19) 0.9570(4)
C14C C 0.88401(19) 0.2852(2) 0.8463(3)
H13C H 0.8672 0.2962 0.8043
C15C C 0.85566(18) 0.24609(18) 0.8862(4)
H14C H 0.8253 0.2384 0.8625
C16C C 0.92949(19) 0.21462(18) 0.8527(3)
C17C C 0.8138(2) 0.2483(2) 0.9995(4)
H15C H 0.7868 0.2348 0.9740
H16C H 0.8016 0.2751 1.0269
C18C C 0.8747(2) 0.15829(19) 0.9076(3)
H17C H 0.8954 0.1347 0.8853
H18C H 0.8419 0.1521 0.8924
C19C C 0.8338(2) 0.2190(2) 1.1153(4)
C20C C 0.8374(2) 0.1624(2) 1.0241(4)
H19C H 0.8073 0.1495 1.0049
C21C C 0.8506(3) 0.1384(2) 1.0921(5)
H20C H 0.8301 0.1104 1.1018
C22C C 0.9131(2) 0.12820(18) 1.0149(3)
C23C C 0.8404(5) 0.1663(3) 1.2162(7)
H21C H 0.8237 0.1359 1.2231
H22C H 0.8216 0.1916 1.2384
C24C C 0.9258(3) 0.09088(19) 1.1278(4)
H23C H 0.9037 0.0656 1.1420
H24C H 0.9521 0.0759 1.1023
C25C C 0.9087(6) 0.2011(4) 1.2913(6)
C26C C 0.9209(5) 0.1235(3) 1.2497(5)
H25C H 0.9028 0.0949 1.2643
C27C C 0.9573(5) 0.1354(3) 1.3040(5)
H26C H 0.9555 0.1142 1.3449
C28C C 0.9909(5) 0.11602(19) 1.1962(3)
C29C C 0.9696(4) 0.2097(4) 1.3762(4)
H27C H 0.9493 0.2358 1.3925
H28C H 0.9735 0.1871 1.4144
C30C C 1.0524(7) 0.1255(2) 1.2910(5)
H29C H 1.0520 0.1064 1.3334
H30C H 1.0720 0.1085 1.2571
C31C C 1.0255(8) 0.2780(5) 1.3447(5)
C32C C 1.0643(7) 0.2037(3) 1.3615(4)
H31C H 1.0663 0.1862 1.4058
C33C C 1.1031(6) 0.2407(3) 1.3599(5)
H32C H 1.1193 0.2448 1.4049
C34C C 1.1175(7) 0.1793(3) 1.2789(7)
C35C C 1.0976(4) 0.3309(2) 1.3409(4)
H33C H 1.0733 0.3554 1.3495
H34C H 1.1196 0.3314 1.3802
C36C C 1.1804(6) 0.2427(3) 1.2910(7)
H35C H 1.2007 0.2182 1.2697
H36C H 1.1950 0.2517 1.3350
C37C C 1.1126(4) 0.3839(2) 1.2398(4)
C38C C 1.1748(4) 0.3326(2) 1.2669(5)
H37C H 1.1953 0.3400 1.3070
C39C C 1.1863(3) 0.3630(2) 1.2066(5)
H38C H 1.2165 0.3807 1.2135
C40C C 1.1930(3) 0.2822(2) 1.1804(8)
C41C C 1.1453(2) 0.43773(16) 1.1550(4)
H39C H 1.1773 0.4518 1.1548
H40C H 1.1235 0.4609 1.1759
C42C C 1.2096(2) 0.3399(2) 1.0843(7)
H41C H 1.2351 0.3637 1.0888
H42C H 1.2235 0.3109 1.0641
N1C N 1.13038(15) 0.42885(14) 1.0836(3)
N2C N 1.08519(16) 0.43092(14) 0.9904(3)
N3C N 1.17249(16) 0.35829(16) 1.0387(3)
N4C N 1.12868(15) 0.36347(15) 0.9437(3)
N5C N 1.01891(16) 0.41530(13) 0.9153(2)
N6C N 0.95180(14) 0.38028(14) 0.8853(2)
N7C N 1.06314(15) 0.34737(14) 0.8691(3)
N8C N 0.99528(15) 0.31605(14) 0.8271(2)
N9C N 0.88868(14) 0.32262(15) 0.8975(3)
N10C N 0.84715(15) 0.26616(15) 0.9517(3)
N11C N 0.92914(17) 0.26100(16) 0.8307(3)
N12C N 0.88853(16) 0.20494(15) 0.8850(3)
N13C N 0.83204(18) 0.21222(16) 1.0461(3)
N14C N 0.8441(3) 0.17610(19) 1.1432(4)
N15C N 0.87730(16) 0.15186(16) 0.9809(3)
N16C N 0.9008(2) 0.12479(15) 1.0824(3)
N17C N 0.8895(4) 0.1639(2) 1.2493(3)
N18C N 0.9453(4) 0.1854(2) 1.3194(3)
N19C N 0.9442(3) 0.11369(19) 1.1870(3)
N20C N 1.0019(4) 0.1291(2) 1.2638(4)
N21C N 1.0163(4) 0.2289(2) 1.3579(4)
N22C N 1.0727(6) 0.2826(3) 1.3404(5)
N23C N 1.0740(6) 0.1702(3) 1.3054(4)
N24C N 1.1358(5) 0.2228(2) 1.3040(5)
N25C N 1.1243(3) 0.34509(19) 1.2797(4)
N26C N 1.1459(2) 0.39547(16) 1.1960(4)
N27C N 1.1794(3) 0.2845(2) 1.2461(6)
N28C N 1.1904(2) 0.32873(17) 1.1525(5)
O5C O 1.05645(12) 0.46452(12) 1.0910(2)
O5A O 0.96452(12) -0.05645(12) 0.8410(2)
O6C O 0.95073(12) 0.43407(11) 0.97643(19)
O6A O 0.93407(11) 0.04927(12) 0.72643(19)
O7C O 0.86263(15) 0.33765(14) 1.0082(2)
O8C O 0.82620(19) 0.25461(13) 1.1480(3)
O9C O 0.8860(4) 0.23877(19) 1.3058(3)
O10C O 0.9980(5) 0.3085(2) 1.3444(3)
O11C O 1.0721(2) 0.40268(17) 1.2447(3)
O12C O 1.16362(13) 0.29116(13) 0.9709(3)
O13C O 1.05982(14) 0.26559(12) 0.8470(2)
O14C O 0.96246(13) 0.18579(13) 0.8426(2)
O15C O 0.94978(13) 0.11373(13) 0.9870(2)
O15B O 1.05022(13) -0.11373(13) 0.9870(2)
O16C O 1.0255(2) 0.10836(14) 1.1530(3)
O17C O 1.1392(3) 0.15532(19) 1.2364(4)
O18C O 1.20219(19) 0.24681(15) 1.1490(4)
C43A C 1.1933(2) -0.0157(2) 0.8210(4)
C44A C 1.2392(3) -0.0344(3) 0.8203(5)
H43A H 1.2448 -0.0670 0.8118
C45A C 1.2766(2) -0.0031(3) 0.8327(6)
H44A H 1.3077 -0.0158 0.8324
C46A C 1.2722(2) 0.0425(2) 0.8446(5)
C47A C 1.2280(3) 0.0603(3) 0.8423(7)
H45A H 1.2237 0.0933 0.8492
C48A C 1.1877(3) 0.0315(3) 0.8299(7)
H46A H 1.1571 0.0452 0.8280
O19A O 1.15297(15) -0.04436(17) 0.8166(3)
H47A H 1.1555 -0.0706 0.7865
O20A O 1.3094(2) 0.0745(2) 0.8533(4)
H48A H 1.3352 0.0604 0.8480
O3 O 0.9744(6) -0.1041(4) 0.4923(5)
Cl1 Cl 1.0000 0.0000 0.5436(4)
Cl2 Cl 0.9807(7) 0.1789(5) 0.5864(7)
O1 O 0.97365(12) 0.14170(13) 0.7190(2)
loop_
_geom_bond_atom_site_label_1
_geom_bond_atom_site_label_2
_geom_bond_site_symmetry_1
_geom_bond_site_symmetry_2
O2 Rb1 1_555 1_555
O4 Rb1 1_555 1_555
Rb1 O5 1_555 1_555
C1 N1 1_555 1_555
C2 H1 1_555 1_555
C3 C2 1_555 1_555
H2 C3 1_555 1_555
C4 N3 1_555 1_555
C5 H3 1_555 1_555
H4 C5 1_555 1_555
C6 H5 1_555 1_555
H6 C6 1_555 1_555
C7 N5 1_555 1_555
C8 H7 1_555 1_555
C9 C8 1_555 1_555
H8 C9 1_555 1_555
C10 N7 1_555 1_555
C11 H9 1_555 1_555
H10 C11 1_555 1_555
C12 H11 1_555 1_555
H12 C12 1_555 1_555
C13 N9 1_555 1_555
C14 H13 1_555 1_555
C15 C14 1_555 1_555
H14 C15 1_555 1_555
C16 N11 1_555 1_555
C17 H15 1_555 1_555
H16 C17 1_555 1_555
C18 H17 1_555 1_555
H18 C18 1_555 1_555
C19 N13 1_555 1_555
C20 H19 1_555 1_555
C21 C20 1_555 1_555
H20 C21 1_555 1_555
C22 N15 1_555 1_555
C23 H21 1_555 1_555
H22 C23 1_555 1_555
C24 H23 1_555 1_555
H24 C24 1_555 1_555
C25 N17 1_555 1_555
C26 H25 1_555 1_555
C27 C26 1_555 1_555
H26 C27 1_555 1_555
C28 N19 1_555 1_555
C29 H27 1_555 1_555
H28 C29 1_555 1_555
C30 H29 1_555 1_555
H30 C30 1_555 1_555
C31 N21 1_555 1_555
C32 H31 1_555 1_555
C33 C32 1_555 1_555
H32 C33 1_555 1_555
C34 N23 1_555 1_555
C35 H33 1_555 1_555
H34 C35 1_555 1_555
C36 H35 1_555 1_555
H36 C36 1_555 1_555
C37 N25 1_555 1_555
C38 H37 1_555 1_555
C39 C38 1_555 1_555
H38 C39 1_555 1_555
C40 N27 1_555 1_555
C41 H39 1_555 1_555
H40 C41 1_555 1_555
C42 H41 1_555 1_555
H42 C42 1_555 1_555
N1 C2 1_555 1_555
N2 C1 1_555 1_555
N3 C2 1_555 1_555
N4 C3 1_555 1_555
N5 C5 1_555 1_555
N6 C7 1_555 1_555
N7 C6 1_555 1_555
N8 C9 1_555 1_555
N9 C11 1_555 1_555
N10 C13 1_555 1_555
N11 C12 1_555 1_555
N12 C15 1_555 1_555
N13 C17 1_555 1_555
N14 C19 1_555 1_555
N15 C18 1_555 1_555
N16 C21 1_555 1_555
N17 C23 1_555 1_555
N18 C25 1_555 1_555
N19 C24 1_555 1_555
N20 C27 1_555 1_555
N21 C29 1_555 1_555
N22 C31 1_555 1_555
N23 C30 1_555 1_555
N24 C33 1_555 1_555
N25 C35 1_555 1_555
N26 C37 1_555 1_555
N27 C36 1_555 1_555
N28 C39 1_555 1_555
O5 C1 1_555 1_555
O6 C7 1_555 1_555
O7 C13 1_555 1_555
O8 C19 1_555 1_555
O9 C25 1_555 1_555
O10 C31 1_555 1_555
O11 C37 1_555 1_555
O12 C4 1_555 1_555
O13 C10 1_555 1_555
O14 C16 1_555 1_555
O15 C22 1_555 1_555
O16 C28 1_555 1_555
O17 C34 1_555 1_555
O18 C40 1_555 1_555
C43 C44 1_555 1_555
C44 H43 1_555 1_555
C45 C44 1_555 1_555
H44 C45 1_555 1_555
C46 C45 1_555 1_555
C47 C46 1_555 1_555
H45 C47 1_555 1_555
C48 C43 1_555 1_555
H46 C48 1_555 1_555
O19 Rb1 1_555 1_555
H47 O19 1_555 1_555
O20 C46 1_555 1_555
H48 O20 1_555 1_555
O2A Rb1A 1_555 1_555
O4A O4 1_555 1_555
Rb1A O4 1_555 1_555
Rb1F O15 1_555 1_555
Rb1C O5C 1_555 1_555
Rb1B O5C 1_555 1_555
C1C N1C 1_555 1_555
C2C H1C 1_555 1_555
C3C C2C 1_555 1_555
H2C C3C 1_555 1_555
C4C N3C 1_555 1_555
C5C H3C 1_555 1_555
H4C C5C 1_555 1_555
C6C H5C 1_555 1_555
H6C C6C 1_555 1_555
C7C N5C 1_555 1_555
C8C H7C 1_555 1_555
C9C C8C 1_555 1_555
H8C C9C 1_555 1_555
C10C N7C 1_555 1_555
C11C H9C 1_555 1_555
H10C C11C 1_555 1_555
C12C H11C 1_555 1_555
H12C C12C 1_555 1_555
C13C N9C 1_555 1_555
C14C H13C 1_555 1_555
C15C C14C 1_555 1_555
H14C C15C 1_555 1_555
C16C N11C 1_555 1_555
C17C H15C 1_555 1_555
H16C C17C 1_555 1_555
C18C H17C 1_555 1_555
H18C C18C 1_555 1_555
C19C N13C 1_555 1_555
C20C H19C 1_555 1_555
C21C C20C 1_555 1_555
H20C C21C 1_555 1_555
C22C N15C 1_555 1_555
C23C H21C 1_555 1_555
H22C C23C 1_555 1_555
C24C H23C 1_555 1_555
H24C C24C 1_555 1_555
C25C N17C 1_555 1_555
C26C H25C 1_555 1_555
C27C C26C 1_555 1_555
H26C C27C 1_555 1_555
C28C N19C 1_555 1_555
C29C H27C 1_555 1_555
H28C C29C 1_555 1_555
C30C H29C 1_555 1_555
H30C C30C 1_555 1_555
C31C N21C 1_555 1_555
C32C H31C 1_555 1_555
C33C C32C 1_555 1_555
H32C C33C 1_555 1_555
C34C N23C 1_555 1_555
C35C H33C 1_555 1_555
H34C C35C 1_555 1_555
C36C H35C 1_555 1_555
H36C C36C 1_555 1_555
C37C N25C 1_555 1_555
C38C H37C 1_555 1_555
C39C C38C 1_555 1_555
H38C C39C 1_555 1_555
C40C N27C 1_555 1_555
C41C H39C 1_555 1_555
H40C C41C 1_555 1_555
C42C H41C 1_555 1_555
H42C C42C 1_555 1_555
N1C C2C 1_555 1_555
N2C C1C 1_555 1_555
N3C C2C 1_555 1_555
N4C C3C 1_555 1_555
N5C C5C 1_555 1_555
N6C C7C 1_555 1_555
N7C C6C 1_555 1_555
N8C C9C 1_555 1_555
N9C C11C 1_555 1_555
N10C C13C 1_555 1_555
N11C C12C 1_555 1_555
N12C C15C 1_555 1_555
N13C C17C 1_555 1_555
N14C C19C 1_555 1_555
N15C C18C 1_555 1_555
N16C C21C 1_555 1_555
N17C C23C 1_555 1_555
N18C C25C 1_555 1_555
N19C C24C 1_555 1_555
N20C C27C 1_555 1_555
N21C C29C 1_555 1_555
N22C C31C 1_555 1_555
N23C C30C 1_555 1_555
N24C C33C 1_555 1_555
N25C C35C 1_555 1_555
N26C C37C 1_555 1_555
N27C C36C 1_555 1_555
N28C C39C 1_555 1_555
O5C C1C 1_555 1_555
O5A Rb1 1_555 1_555
O6C Rb1B 1_555 1_555
O6A Rb1 1_555 1_555
O7C C13C 1_555 1_555
O8C C19C 1_555 1_555
O9C C25C 1_555 1_555
O10C C31C 1_555 1_555
O11C C37C 1_555 1_555
O12C C4C 1_555 1_555
O13C C10C 1_555 1_555
O14C C16C 1_555 1_555
O15C Rb1 1_555 1_555
O15B Rb1A 1_555 1_555
O16C C28C 1_555 1_555
O17C C34C 1_555 1_555
O18C C40C 1_555 1_555
C43A C44A 1_555 1_555
C44A H43A 1_555 1_555
C45A C44A 1_555 1_555
H44A C45A 1_555 1_555
C46A C45A 1_555 1_555
C47A C46A 1_555 1_555
H45A C47A 1_555 1_555
C48A C43A 1_555 1_555
H46A C48A 1_555 1_555
O19A Rb1A 1_555 1_555
H47A O19A 1_555 1_555
O20A C46A 1_555 1_555
H48A O20A 1_555 1_555
Rb1 O4A 1_555 1_555
C3 N2 1_555 1_555
C4 N4 1_555 1_555
C5 N2 1_555 1_555
C6 N4 1_555 1_555
C8 N5 1_555 1_555
C8 N7 1_555 1_555
C9 N6 1_555 1_555
C10 N8 1_555 1_555
C11 N6 1_555 1_555
C12 N8 1_555 1_555
C14 N9 1_555 1_555
C14 N11 1_555 1_555
C15 N10 1_555 1_555
C16 N12 1_555 1_555
C17 N10 1_555 1_555
C18 N12 1_555 1_555
C20 N13 1_555 1_555
C20 N15 1_555 1_555
C21 N14 1_555 1_555
C22 N16 1_555 1_555
C23 N14 1_555 1_555
C24 N16 1_555 1_555
C26 N17 1_555 1_555
C26 N19 1_555 1_555
C27 N18 1_555 1_555
C28 N20 1_555 1_555
C29 N18 1_555 1_555
C30 N20 1_555 1_555
C32 N21 1_555 1_555
C32 N23 1_555 1_555
C33 N22 1_555 1_555
C34 N24 1_555 1_555
C35 N22 1_555 1_555
C36 N24 1_555 1_555
C38 N25 1_555 1_555
C38 N27 1_555 1_555
C39 N26 1_555 1_555
C40 N28 1_555 1_555
C41 N1 1_555 1_555
C41 N26 1_555 1_555
C42 N3 1_555 1_555
C42 N28 1_555 1_555
O5 Rb1A 1_555 1_555
O6 Rb1A 1_555 1_555
C43 O19 1_555 1_555
C47 C48 1_555 1_555
O4A Rb1A 1_555 1_555
Rb1A O5A 1_555 1_555
C3C N2C 1_555 1_555
C4C N4C 1_555 1_555
C5C N2C 1_555 1_555
C6C N4C 1_555 1_555
C7C O6C 1_555 1_555
C8C N5C 1_555 1_555
C8C N7C 1_555 1_555
C9C N6C 1_555 1_555
C10C N8C 1_555 1_555
C11C N6C 1_555 1_555
C12C N8C 1_555 1_555
C14C N9C 1_555 1_555
C14C N11C 1_555 1_555
C15C N10C 1_555 1_555
C16C N12C 1_555 1_555
C17C N10C 1_555 1_555
C18C N12C 1_555 1_555
C20C N13C 1_555 1_555
C20C N15C 1_555 1_555
C21C N14C 1_555 1_555
C22C N16C 1_555 1_555
C22C O15C 1_555 1_555
C23C N14C 1_555 1_555
C24C N16C 1_555 1_555
C26C N17C 1_555 1_555
C26C N19C 1_555 1_555
C27C N18C 1_555 1_555
C28C N20C 1_555 1_555
C29C N18C 1_555 1_555
C30C N20C 1_555 1_555
C32C N21C 1_555 1_555
C32C N23C 1_555 1_555
C33C N22C 1_555 1_555
C34C N24C 1_555 1_555
C35C N22C 1_555 1_555
C36C N24C 1_555 1_555
C38C N25C 1_555 1_555
C38C N27C 1_555 1_555
C39C N26C 1_555 1_555
C40C N28C 1_555 1_555
C41C N1C 1_555 1_555
C41C N26C 1_555 1_555
C42C N3C 1_555 1_555
C42C N28C 1_555 1_555
C43A O19A 1_555 1_555
C47A C48A 1_555 1_555

#END
