
#######################################################################
#
#                 Cambridge Crystallographic Data Centre
#                                CCDC 
#
#######################################################################
#
# If this CIF has been generated from an entry in the Cambridge 
# Structural Database, then it will include bibliographic, chemical, 
# crystal, experimental, refinement or atomic coordinate data resulting 
# from the CCDC's data processing and validation procedures.
#
#######################################################################

data_ETEQIE
_symmetry_cell_setting           triclinic
_symmetry_space_group_name_H-M   'P -1'
_symmetry_Int_Tables_number      2
_space_group_name_Hall           '-P 1'
loop_
_symmetry_equiv_pos_site_id
_symmetry_equiv_pos_as_xyz
1 x,y,z
2 -x,-y,-z
_cell_length_a                   8.7552(18)
_cell_length_b                   9.4860(19)
_cell_length_c                   16.064(3)
_cell_angle_alpha                93.72(3)
_cell_angle_beta                 94.91(3)
_cell_angle_gamma                98.88(3)
_cell_volume                     1309.18
loop_
_atom_site_label
_atom_site_type_symbol
_atom_site_fract_x
_atom_site_fract_y
_atom_site_fract_z
Cd1 Cd 1.32667(3) -0.56871(2) -0.256750(14)
Cd2 Cd 0.5000 0.5000 0.0000
N1 N 1.2123(3) -0.4147(3) -0.33546(17)
N2 N 1.0063(3) -0.3485(3) -0.40526(17)
N3 N 0.5849(3) 0.2866(3) -0.01997(16)
N4 N 0.6089(3) 0.0847(3) -0.09285(15)
O1 O 1.2320(4) -0.7486(3) -0.36829(17)
O2 O 1.3888(4) -0.7971(3) -0.26876(18)
O3 O 0.4098(3) 0.4652(3) 0.27101(15)
O4 O 0.4825(2) 0.4733(2) 0.14474(13)
O5 O 0.7440(2) 0.6149(2) 0.05200(15)
O6 O 0.8687(3) 0.5943(3) 0.17640(15)
C1 C 1.1267(3) -0.3303(3) -0.45673(19)
C2 C 1.1312(4) -0.2869(4) -0.5379(2)
H1 H 1.0441 -0.2612 -0.5680
C3 C 1.2730(4) -0.2838(4) -0.5718(2)
H2 H 1.2822 -0.2561 -0.6265
C4 C 1.4006(4) -0.3208(4) -0.5263(2)
H3 H 1.4948 -0.3160 -0.5508
C5 C 1.3944(4) -0.3648(3) -0.4457(2)
H4 H 1.4818 -0.3895 -0.4154
C6 C 1.2543(4) -0.3704(3) -0.4123(2)
C7 C 1.0622(4) -0.4004(3) -0.3351(2)
H5 H 1.0026 -0.4242 -0.2906
C8 C 0.8501(4) -0.3182(4) -0.4251(2)
H6 H 0.8083 -0.3663 -0.4800
H7 H 0.7836 -0.3576 -0.3834
C9 C 0.8445(4) -0.1596(4) -0.4267(2)
H8 H 0.9250 -0.1180 -0.4608
H9 H 0.7439 -0.1480 -0.4548
C10 C 0.8671(4) -0.0745(4) -0.3415(2)
H10 H 0.9026 0.0265 -0.3492
H11 H 0.9487 -0.1084 -0.3062
C11 C 0.7215(4) -0.0861(4) -0.2964(2)
H12 H 0.6387 -0.0557 -0.3325
H13 H 0.6882 -0.1867 -0.2866
C12 C 0.7431(4) 0.0034(3) -0.2129(2)
H14 H 0.7691 0.1048 -0.2229
H15 H 0.8304 -0.0224 -0.1780
C13 C 0.5988(4) -0.0179(3) -0.1663(2)
H16 H 0.5831 -0.1153 -0.1481
H17 H 0.5084 -0.0081 -0.2045
C14 C 0.6853(3) 0.0789(3) -0.01415(18)
C15 C 0.7618(4) -0.0238(3) 0.0206(2)
H18 H 0.7713 -0.1092 -0.0102
C16 C 0.8234(4) 0.0057(4) 0.1028(2)
H19 H 0.8742 -0.0620 0.1292
C17 C 0.8121(4) 0.1341(4) 0.1477(2)
H20 H 0.8577 0.1513 0.2033
C18 C 0.7363(4) 0.2362(3) 0.1132(2)
H21 H 0.7296 0.3223 0.1440
C19 C 0.6701(3) 0.2070(3) 0.03107(18)
C20 C 0.5527(3) 0.2096(3) -0.0912(2)
H22 H 0.4953 0.2383 -0.1374
C21 C 1.2950(5) -0.9829(4) -0.3741(2)
H23 H 1.3055 -1.0485 -0.3309
H24 H 1.1958 -1.0115 -0.4073
H25 H 1.3783 -0.9846 -0.4100
C22 C 1.3031(4) -0.8342(4) -0.3340(2)
C23 C 0.2157(4) 0.3855(4) 0.1570(2)
H26 H 0.1797 0.2979 0.1824
H27 H 0.2147 0.3652 0.0970
H28 H 0.1477 0.4548 0.1679
C24 C 0.3773(4) 0.4450(3) 0.1935(2)
C25 C 1.0154(4) 0.6792(4) 0.0685(2)
H29 H 1.0513 0.6013 0.0377
H30 H 1.0916 0.7173 0.1151
H31 H 1.0015 0.7541 0.0316
C26 C 0.8628(3) 0.6247(3) 0.1014(2)
Cd1A Cd -0.32667(3) 1.56871(2) 0.256750(14)
Cd1A_2 Cd 0.67333(3) 0.56871(2) 0.256750(14)
Cd1_2 Cd 0.32667(3) 0.43129(2) -0.256750(14)
N1A N -0.2123(3) 1.4147(3) 0.33546(17)
N2A N -0.0063(3) 1.3485(3) 0.40526(17)
N3A N 0.4151(3) 0.7134(3) 0.01997(16)
N4A N 0.3911(3) 0.9153(3) 0.09285(15)
O1A O -0.2320(4) 1.7486(3) 0.36829(17)
O2A O -0.3888(4) 1.7971(3) 0.26876(18)
O3A O 0.5902(3) 0.5348(3) -0.27101(15)
O3A_2 O 1.5902(3) -0.4652(3) -0.27101(15)
O3_2 O -0.5902(3) 1.4652(3) 0.27101(15)
O4A O 0.5175(2) 0.5267(2) -0.14474(13)
O4A_2 O 1.5175(2) -0.4733(2) -0.14474(13)
O4_2 O -0.5175(2) 1.4733(2) 0.14474(13)
O5A O 0.2560(2) 0.3851(2) -0.05200(15)
O6A O 0.1313(3) 0.4057(3) -0.17640(15)
O6A_2 O 1.1313(3) -0.5943(3) -0.17640(15)
O6_2 O -0.1313(3) 1.5943(3) 0.17640(15)
C1A C -0.1267(3) 1.3303(3) 0.45673(19)
C2A C -0.1312(4) 1.2869(4) 0.5379(2)
H1A H -0.0441 1.2612 0.5680
C3A C -0.2730(4) 1.2838(4) 0.5718(2)
H2A H -0.2822 1.2561 0.6265
C4A C -0.4006(4) 1.3208(4) 0.5263(2)
H3A H -0.4948 1.3160 0.5508
C5A C -0.3944(4) 1.3648(3) 0.4457(2)
H4A H -0.4818 1.3895 0.4154
C6A C -0.2543(4) 1.3704(3) 0.4123(2)
C7A C -0.0622(4) 1.4004(3) 0.3351(2)
H5A H -0.0026 1.4242 0.2906
C8A C 0.1499(4) 1.3182(4) 0.4251(2)
H6A H 0.1917 1.3663 0.4800
H7A H 0.2164 1.3576 0.3834
C9A C 0.1555(4) 1.1596(4) 0.4267(2)
H8A H 0.0750 1.1180 0.4608
H9A H 0.2561 1.1480 0.4548
C10A C 0.1329(4) 1.0745(4) 0.3415(2)
H10A H 0.0974 0.9735 0.3492
H11A H 0.0513 1.1084 0.3062
C11A C 0.2785(4) 1.0861(4) 0.2964(2)
H12A H 0.3613 1.0557 0.3325
H13A H 0.3118 1.1867 0.2866
C12A C 0.2569(4) 0.9966(3) 0.2129(2)
H14A H 0.2309 0.8952 0.2229
H15A H 0.1696 1.0224 0.1780
C13A C 0.4012(4) 1.0179(3) 0.1663(2)
H16A H 0.4169 1.1153 0.1481
H17A H 0.4916 1.0081 0.2045
C14A C 0.3147(3) 0.9211(3) 0.01415(18)
C15A C 0.2382(4) 1.0238(3) -0.0206(2)
H18A H 0.2287 1.1092 0.0102
C16A C 0.1766(4) 0.9943(4) -0.1028(2)
H19A H 0.1258 1.0620 -0.1292
C17A C 0.1879(4) 0.8659(4) -0.1477(2)
H20A H 0.1423 0.8487 -0.2033
C18A C 0.2637(4) 0.7638(3) -0.1132(2)
H21A H 0.2704 0.6777 -0.1440
C19A C 0.3299(3) 0.7930(3) -0.03107(18)
C20A C 0.4473(3) 0.7904(3) 0.0912(2)
H22A H 0.5047 0.7617 0.1374
C21A C -0.2950(5) 1.9829(4) 0.3741(2)
H23A H -0.3055 2.0485 0.3309
H24A H -0.1958 2.0115 0.4073
H25A H -0.3783 1.9846 0.4100
C22A C -0.3031(4) 1.8342(4) 0.3340(2)
C23A C 0.7843(4) 0.6145(4) -0.1570(2)
H26A H 0.8203 0.7021 -0.1824
H27A H 0.7853 0.6348 -0.0970
H28A H 0.8523 0.5452 -0.1679
C24A C 0.6227(4) 0.5550(3) -0.1935(2)
C25A C -0.0154(4) 0.3208(4) -0.0685(2)
H29A H -0.0513 0.3987 -0.0377
H30A H -0.0916 0.2827 -0.1151
H31A H -0.0015 0.2459 -0.0316
C26A C 0.1372(3) 0.3753(3) -0.1014(2)
loop_
_geom_bond_atom_site_label_1
_geom_bond_atom_site_label_2
_geom_bond_site_symmetry_1
_geom_bond_site_symmetry_2
Cd1 N1 1_555 1_555
Cd2 N3 1_555 1_555
N1 C6 1_555 1_555
N2 C1 1_555 1_555
N3 C19 1_555 1_555
N4 C13 1_555 1_555
O1 Cd1 1_555 1_555
O2 Cd1 1_555 1_555
O3 C24 1_555 1_555
O4 Cd2 1_555 1_555
O5 Cd2 1_555 1_555
O6 C26 1_555 1_555
C1 C2 1_555 1_555
C2 H1 1_555 1_555
C3 C2 1_555 1_555
H2 C3 1_555 1_555
C4 C3 1_555 1_555
H3 C4 1_555 1_555
C5 C4 1_555 1_555
H4 C5 1_555 1_555
C6 C1 1_555 1_555
C7 N1 1_555 1_555
H5 C7 1_555 1_555
C8 N2 1_555 1_555
H6 C8 1_555 1_555
H7 C8 1_555 1_555
C9 C8 1_555 1_555
H8 C9 1_555 1_555
H9 C9 1_555 1_555
C10 C9 1_555 1_555
H10 C10 1_555 1_555
H11 C10 1_555 1_555
C11 C10 1_555 1_555
H12 C11 1_555 1_555
H13 C11 1_555 1_555
C12 C11 1_555 1_555
H14 C12 1_555 1_555
H15 C12 1_555 1_555
C13 C12 1_555 1_555
H16 C13 1_555 1_555
H17 C13 1_555 1_555
C14 N4 1_555 1_555
C15 C14 1_555 1_555
H18 C15 1_555 1_555
C16 C15 1_555 1_555
H19 C16 1_555 1_555
C17 C16 1_555 1_555
H20 C17 1_555 1_555
C18 C17 1_555 1_555
H21 C18 1_555 1_555
C19 C14 1_555 1_555
C20 N3 1_555 1_555
H22 C20 1_555 1_555
C21 H23 1_555 1_555
H24 C21 1_555 1_555
H25 C21 1_555 1_555
C22 O1 1_555 1_555
C23 H26 1_555 1_555
H27 C23 1_555 1_555
H28 C23 1_555 1_555
C24 O4 1_555 1_555
C25 H29 1_555 1_555
H30 C25 1_555 1_555
H31 C25 1_555 1_555
C26 O5 1_555 1_555
Cd1A N1A 1_555 1_555
Cd1A_2 O3 1_555 1_555
Cd1_2 O3A 1_555 1_555
N1A C6A 1_555 1_555
N2A C1A 1_555 1_555
N3A Cd2 1_555 1_555
N4A C13A 1_555 1_555
O1A Cd1A 1_555 1_555
O2A Cd1A 1_555 1_555
O3A C24A 1_555 1_555
O3A_2 Cd1 1_555 1_555
O3_2 Cd1A 1_555 1_555
O4A Cd2 1_555 1_555
O4A_2 Cd1 1_555 1_555
O4_2 Cd1A 1_555 1_555
O5A Cd2 1_555 1_555
O6A Cd1_2 1_555 1_555
O6A_2 Cd1 1_555 1_555
O6_2 Cd1A 1_555 1_555
C1A C2A 1_555 1_555
C2A H1A 1_555 1_555
C3A C2A 1_555 1_555
H2A C3A 1_555 1_555
C4A C3A 1_555 1_555
H3A C4A 1_555 1_555
C5A C4A 1_555 1_555
H4A C5A 1_555 1_555
C6A C1A 1_555 1_555
C7A N1A 1_555 1_555
H5A C7A 1_555 1_555
C8A N2A 1_555 1_555
H6A C8A 1_555 1_555
H7A C8A 1_555 1_555
C9A C8A 1_555 1_555
H8A C9A 1_555 1_555
H9A C9A 1_555 1_555
C10A C9A 1_555 1_555
H10A C10A 1_555 1_555
H11A C10A 1_555 1_555
C11A C10A 1_555 1_555
H12A C11A 1_555 1_555
H13A C11A 1_555 1_555
C12A C11A 1_555 1_555
H14A C12A 1_555 1_555
H15A C12A 1_555 1_555
C13A C12A 1_555 1_555
H16A C13A 1_555 1_555
H17A C13A 1_555 1_555
C14A N4A 1_555 1_555
C15A C14A 1_555 1_555
H18A C15A 1_555 1_555
C16A C15A 1_555 1_555
H19A C16A 1_555 1_555
C17A C16A 1_555 1_555
H20A C17A 1_555 1_555
C18A C17A 1_555 1_555
H21A C18A 1_555 1_555
C19A N3A 1_555 1_555
C20A N3A 1_555 1_555
H22A C20A 1_555 1_555
C21A H23A 1_555 1_555
H24A C21A 1_555 1_555
H25A C21A 1_555 1_555
C22A O1A 1_555 1_555
C23A H26A 1_555 1_555
H27A C23A 1_555 1_555
H28A C23A 1_555 1_555
C24A O4A 1_555 1_555
C25A H29A 1_555 1_555
H30A C25A 1_555 1_555
H31A C25A 1_555 1_555
C26A O5A 1_555 1_555
N2 C7 1_555 1_555
N4 C20 1_555 1_555
O2 C22 1_555 1_555
O4 Cd1A_2 1_555 1_555
O6 Cd1A_2 1_555 1_555
C5 C6 1_555 1_555
C18 C19 1_555 1_555
C21 C22 1_555 1_555
C23 C24 1_555 1_555
C25 C26 1_555 1_555
Cd1_2 O4A 1_555 1_555
N2A C7A 1_555 1_555
N4A C20A 1_555 1_555
O2A C22A 1_555 1_555
O6A C26A 1_555 1_555
C5A C6A 1_555 1_555
C14A C19A 1_555 1_555
C18A C19A 1_555 1_555
C21A C22A 1_555 1_555
C23A C24A 1_555 1_555
C25A C26A 1_555 1_555

#END
