
#######################################################################
#
#                 Cambridge Crystallographic Data Centre
#                                CCDC 
#
#######################################################################
#
# If this CIF has been generated from an entry in the Cambridge 
# Structural Database, then it will include bibliographic, chemical, 
# crystal, experimental, refinement or atomic coordinate data resulting 
# from the CCDC's data processing and validation procedures.
#
#######################################################################

data_ETEQEA
_symmetry_cell_setting           monoclinic
_symmetry_space_group_name_H-M   'P 21/n'
_symmetry_Int_Tables_number      14
_space_group_name_Hall           '-P 2yn'
loop_
_symmetry_equiv_pos_site_id
_symmetry_equiv_pos_as_xyz
1 x,y,z
2 1/2-x,1/2+y,1/2-z
3 -x,-y,-z
4 1/2+x,1/2-y,1/2+z
_cell_length_a                   12.056(2)
_cell_length_b                   12.055(2)
_cell_length_c                   12.710(3)
_cell_angle_alpha                90
_cell_angle_beta                 93.09(3)
_cell_angle_gamma                90
_cell_volume                     1844.52
loop_
_atom_site_label
_atom_site_type_symbol
_atom_site_fract_x
_atom_site_fract_y
_atom_site_fract_z
Cd1 Cd 0.5000 0.5000 0.0000
Cl1 Cl 0.29806(7) 0.57704(7) -0.00395(8)
N1 N 0.5605(2) 0.6236(2) 0.1317(2)
N2 N 0.6192(2) 0.6671(2) 0.2957(2)
N3 N 0.8227(2) 0.2243(2) 0.7257(2)
N4 N 0.9519(2) 0.1359(2) 0.6364(2)
C1 C 0.4958(3) 0.8159(3) 0.0789(3)
H1 H 0.4696 0.7978 0.0101
C2 C 0.4894(3) 0.9224(3) 0.1174(4)
H2 H 0.4570 0.9781 0.0741
C3 C 0.5296(4) 0.9494(3) 0.2187(4)
H3 H 0.5246 1.0235 0.2409
C4 C 0.5764(3) 0.8724(3) 0.2881(3)
H4 H 0.6036 0.8917 0.3563
C5 C 0.5807(3) 0.7645(3) 0.2501(3)
C6 C 0.5429(3) 0.7361(3) 0.1470(3)
C7 C 0.6051(3) 0.5872(3) 0.2212(3)
H5 H 0.6253 0.5127 0.2328
C8 C 0.6566(4) 0.6539(3) 0.4066(3)
H6 H 0.6041 0.6917 0.4506
H7 H 0.7291 0.6899 0.4184
C9 C 0.6662(3) 0.5342(3) 0.4402(3)
H8 H 0.7296 0.5002 0.4074
H9 H 0.5990 0.4942 0.4154
C10 C 0.6816(3) 0.5226(3) 0.5595(3)
H10 H 0.7470 0.5654 0.5844
H11 H 0.6168 0.5541 0.5919
C11 C 0.6962(3) 0.4033(3) 0.5950(3)
H12 H 0.7648 0.3739 0.5676
H13 H 0.6342 0.3592 0.5645
C12 C 0.7013(3) 0.3897(3) 0.7136(3)
H14 H 0.7635 0.4336 0.7439
H15 H 0.6329 0.4195 0.7408
C13 C 0.7153(3) 0.2705(3) 0.7499(3)
H16 H 0.7075 0.2670 0.8262
H17 H 0.6562 0.2252 0.7158
C14 C 0.8452(3) 0.1563(3) 0.6438(3)
H18 H 0.7898 0.1268 0.5970
C15 C 0.9242(3) 0.2505(3) 0.7757(3)
C16 C 0.9508(3) 0.3131(3) 0.8649(3)
H19 H 0.8957 0.3486 0.9022
C17 C 1.0615(3) 0.3208(3) 0.8963(3)
H20 H 1.0827 0.3617 0.9571
C18 C 1.1431(3) 0.2690(3) 0.8395(3)
H21 H 1.2180 0.2763 0.8628
C19 C 1.1164(3) 0.2076(3) 0.7502(3)
H22 H 1.1722 0.1749 0.7117
C20 C 1.0039(3) 0.1952(3) 0.7184(3)
Cd1A Cd 0.0000 1.0000 -0.5000
Cd1A_2 Cd 1.0000 0.0000 0.5000
Cl1B Cl 0.70194(7) 0.42296(7) 0.00395(8)
N1B N 0.4395(2) 0.3764(2) -0.1317(2)
N2B N 0.3808(2) 0.3329(2) -0.2957(2)
N3B N 0.1773(2) 0.7757(2) -0.7257(2)
N4B N 0.0481(2) 0.8641(2) -0.6364(2)
N4A N 0.5481(2) 0.6359(2) -0.1364(2)
N4C N 0.4519(2) 0.3641(2) 0.1364(2)
C1B C 0.5042(3) 0.1841(3) -0.0789(3)
H1B H 0.5304 0.2022 -0.0101
C2B C 0.5106(3) 0.0776(3) -0.1174(4)
H2B H 0.5430 0.0219 -0.0741
C3B C 0.4704(4) 0.0506(3) -0.2187(4)
H3B H 0.4754 -0.0235 -0.2409
C4B C 0.4236(3) 0.1276(3) -0.2881(3)
H4B H 0.3964 0.1083 -0.3563
C5B C 0.4193(3) 0.2355(3) -0.2501(3)
C6B C 0.4571(3) 0.2639(3) -0.1470(3)
C7B C 0.3949(3) 0.4128(3) -0.2212(3)
H5B H 0.3747 0.4873 -0.2328
C8B C 0.3434(4) 0.3461(3) -0.4066(3)
H6B H 0.3959 0.3083 -0.4506
H7B H 0.2709 0.3101 -0.4184
C9B C 0.3338(3) 0.4658(3) -0.4402(3)
H8B H 0.2704 0.4998 -0.4074
H9B H 0.4010 0.5058 -0.4154
C10B C 0.3184(3) 0.4774(3) -0.5595(3)
H10B H 0.2530 0.4346 -0.5844
H11B H 0.3832 0.4459 -0.5919
C11B C 0.3038(3) 0.5967(3) -0.5950(3)
H12B H 0.2352 0.6261 -0.5676
H13B H 0.3658 0.6408 -0.5645
C12B C 0.2987(3) 0.6103(3) -0.7136(3)
H14B H 0.2365 0.5664 -0.7439
H15B H 0.3671 0.5805 -0.7408
C13B C 0.2847(3) 0.7295(3) -0.7499(3)
H16B H 0.2925 0.7330 -0.8262
H17B H 0.3438 0.7748 -0.7158
C14B C 0.1548(3) 0.8437(3) -0.6438(3)
H18B H 0.2102 0.8732 -0.5970
C15B C 0.0758(3) 0.7495(3) -0.7757(3)
C16B C 0.0492(3) 0.6869(3) -0.8649(3)
H19B H 0.1043 0.6514 -0.9022
C17B C -0.0615(3) 0.6792(3) -0.8963(3)
H20B H -0.0827 0.6383 -0.9571
C18B C -0.1431(3) 0.7310(3) -0.8395(3)
H21B H -0.2180 0.7237 -0.8628
C19B C -0.1164(3) 0.7924(3) -0.7502(3)
H22B H -0.1722 0.8251 -0.7117
C20B C -0.0039(3) 0.8048(3) -0.7184(3)
loop_
_geom_bond_atom_site_label_1
_geom_bond_atom_site_label_2
_geom_bond_site_symmetry_1
_geom_bond_site_symmetry_2
Cd1 Cl1 1_555 1_555
N1 Cd1 1_555 1_555
N2 C5 1_555 1_555
N3 C13 1_555 1_555
N4 C14 1_555 1_555
C1 H1 1_555 1_555
C2 C1 1_555 1_555
H2 C2 1_555 1_555
C3 C2 1_555 1_555
H3 C3 1_555 1_555
C4 C3 1_555 1_555
H4 C4 1_555 1_555
C5 C4 1_555 1_555
C6 N1 1_555 1_555
C7 N1 1_555 1_555
H5 C7 1_555 1_555
C8 N2 1_555 1_555
H6 C8 1_555 1_555
H7 C8 1_555 1_555
C9 C8 1_555 1_555
H8 C9 1_555 1_555
H9 C9 1_555 1_555
C10 C9 1_555 1_555
H10 C10 1_555 1_555
H11 C10 1_555 1_555
C11 C10 1_555 1_555
H12 C11 1_555 1_555
H13 C11 1_555 1_555
C12 C11 1_555 1_555
H14 C12 1_555 1_555
H15 C12 1_555 1_555
C13 C12 1_555 1_555
H16 C13 1_555 1_555
H17 C13 1_555 1_555
C14 N3 1_555 1_555
H18 C14 1_555 1_555
C15 N3 1_555 1_555
C16 C15 1_555 1_555
H19 C16 1_555 1_555
C17 C16 1_555 1_555
H20 C17 1_555 1_555
C18 C17 1_555 1_555
H21 C18 1_555 1_555
C19 C18 1_555 1_555
H22 C19 1_555 1_555
C20 N4 1_555 1_555
Cd1A N4B 1_555 1_555
Cd1A_2 N4 1_555 1_555
Cl1B Cd1 1_555 1_555
N1B Cd1 1_555 1_555
N2B C5B 1_555 1_555
N3B C13B 1_555 1_555
N4B C14B 1_555 1_555
N4A Cd1 1_555 1_555
N4C Cd1 1_555 1_555
C1B H1B 1_555 1_555
C2B C1B 1_555 1_555
H2B C2B 1_555 1_555
C3B C2B 1_555 1_555
H3B C3B 1_555 1_555
C4B C3B 1_555 1_555
H4B C4B 1_555 1_555
C5B C4B 1_555 1_555
C6B N1B 1_555 1_555
C7B N1B 1_555 1_555
H5B C7B 1_555 1_555
C8B N2B 1_555 1_555
H6B C8B 1_555 1_555
H7B C8B 1_555 1_555
C9B C8B 1_555 1_555
H8B C9B 1_555 1_555
H9B C9B 1_555 1_555
C10B C9B 1_555 1_555
H10B C10B 1_555 1_555
H11B C10B 1_555 1_555
C11B C10B 1_555 1_555
H12B C11B 1_555 1_555
H13B C11B 1_555 1_555
C12B C11B 1_555 1_555
H14B C12B 1_555 1_555
H15B C12B 1_555 1_555
C13B C12B 1_555 1_555
H16B C13B 1_555 1_555
H17B C13B 1_555 1_555
C14B N3B 1_555 1_555
H18B C14B 1_555 1_555
C15B N3B 1_555 1_555
C16B C15B 1_555 1_555
H19B C16B 1_555 1_555
C17B C16B 1_555 1_555
H20B C17B 1_555 1_555
C18B C17B 1_555 1_555
H21B C18B 1_555 1_555
C19B C18B 1_555 1_555
H22B C19B 1_555 1_555
C20B N4B 1_555 1_555
N2 C7 1_555 1_555
C1 C6 1_555 1_555
C5 C6 1_555 1_555
C15 C20 1_555 1_555
C19 C20 1_555 1_555
N2B C7B 1_555 1_555
C1B C6B 1_555 1_555
C5B C6B 1_555 1_555
C15B C20B 1_555 1_555
C19B C20B 1_555 1_555

#END
