
#######################################################################
#
#                 Cambridge Crystallographic Data Centre
#                                CCDC 
#
#######################################################################
#
# If this CIF has been generated from an entry in the Cambridge 
# Structural Database, then it will include bibliographic, chemical, 
# crystal, experimental, refinement or atomic coordinate data resulting 
# from the CCDC's data processing and validation procedures.
#
#######################################################################

data_ETERUR
_symmetry_cell_setting           trigonal
_symmetry_space_group_name_H-M   'P 32 2 1'
_symmetry_Int_Tables_number      154
_space_group_name_Hall           'P 32 2"'
loop_
_symmetry_equiv_pos_site_id
_symmetry_equiv_pos_as_xyz
1 x,y,z
2 -y,x-y,2/3+z
3 -x+y,-x,1/3+z
4 x-y,-y,1/3-z
5 -x,-x+y,2/3-z
6 y,x,-z
_cell_length_a                   14.096(5)
_cell_length_b                   14.096(5)
_cell_length_c                   20.062(5)
_cell_angle_alpha                90
_cell_angle_beta                 90
_cell_angle_gamma                120
_cell_volume                     3452.21
loop_
_atom_site_label
_atom_site_type_symbol
_atom_site_fract_x
_atom_site_fract_y
_atom_site_fract_z
C1 C -0.1908(8) 0.9644(9) 0.2191(5)
H1 H -0.2373 0.9379 0.2558
C2 C -0.0923(8) 0.9652(9) 0.2211(5)
H2 H -0.0724 0.9422 0.2594
C3 C -0.0236(9) 1.0000 0.1667
C4 C 0.0813(9) 1.0000 0.1667
C5 C 0.1445(8) 1.0244(10) 0.2226(6)
H3 H 0.1231 1.0443 0.2616
C6 C 0.2415(8) 1.0196(10) 0.2215(6)
H4 H 0.2797 1.0307 0.2612
C7 C -0.8223(8) 0.6268(7) -0.1018(4)
C8 C -0.5392(8) 0.8778(8) 0.0650(5)
C9 C -0.5750(9) 0.7957(8) 0.0091(5)
C10 C -0.6749(8) 0.7578(8) -0.0226(5)
H5 H -0.7195 0.7861 -0.0104
C11 C -0.7092(8) 0.6806(9) -0.0710(5)
C12 C -0.6372(10) 0.6436(10) -0.0939(6)
C13 C -0.5387(10) 0.6808(10) -0.0629(5)
H6 H -0.4922 0.6563 -0.0778
C14 C -0.5052(9) 0.7543(9) -0.0096(5)
C15 C -0.3995(10) 0.7798(10) 0.0244(6)
C16 C -0.4008(10) 0.7202(10) 0.0821(6)
C17 C -0.5000(12) 0.6421(11) 0.1137(6)
H7 H -0.5666 0.6273 0.0953
C18 C -0.4998(13) 0.5902(12) 0.1685(7)
H8 H -0.5658 0.5382 0.1875
C19 C -0.4085(14) 0.6114(12) 0.1956(8)
H9 H -0.4120 0.5749 0.2350
C20 C -0.3135(13) 0.6784(11) 0.1728(7)
H10 H -0.2505 0.6882 0.1940
C21 C -0.3068(13) 0.7373(12) 0.1142(7)
H11 H -0.2386 0.7880 0.0971
C22 C -0.6576(11) 0.5786(12) -0.1565(8)
C23 C -0.6737(9) 0.4768(7) -0.1652(6)
C24 C -0.6678(9) 0.4415(9) -0.2290(5)
H12 H -0.6534 0.4878 -0.2652
C25 C -0.6833(10) 0.3370(9) -0.2385(5)
H13 H -0.6793 0.3134 -0.2812
C26 C -0.7047(9) 0.2678(7) -0.1843(6)
H14 H -0.7150 0.1979 -0.1907
C27 C -0.7106(10) 0.3030(9) -0.1205(5)
H15 H -0.7249 0.2567 -0.0842
C28 C -0.6951(9) 0.4075(10) -0.1110(4)
H16 H -0.6991 0.4311 -0.0683
N1 N -0.2213(7) 1.0000 0.1667
N2 N 0.2813(8) 1.0000 0.1667
Ni1 Ni -0.37469(9) 1.0000 0.1667
Ni2 Ni 0.43380(9) 1.0000 0.1667
O1 O -0.8687(5) 0.6826(5) -0.1074(3)
O2 O -0.8609(5) 0.5289(5) -0.1197(3)
O3 O -0.5980(5) 0.9168(5) 0.0817(3)
O4 O -0.4473(5) 0.9044(5) 0.0911(3)
O5 O -0.3141(7) 0.8470(9) -0.0041(5)
O6 O -0.6482(9) 0.6237(13) -0.2077(5)
C1C C -0.1552(12) 1.0356(9) 0.1142(5)
H1C H -0.1752 1.0621 0.0775
C2C C -0.0575(12) 1.0348(9) 0.1122(5)
H2C H -0.0146 1.0578 0.0739
C5C C 0.1201(13) 0.9756(10) 0.1107(6)
H3C H 0.0788 0.9557 0.0717
C6C C 0.2219(13) 0.9804(10) 0.1118(6)
H4C H 0.2490 0.9693 0.0721
C7E C -0.3732(7) 1.1777(8) 0.1018(4)
C8E C -0.1222(8) 1.4608(8) -0.0650(5)
C9E C -0.2043(8) 1.4250(9) -0.0091(5)
C10E C -0.2422(8) 1.3251(8) 0.0226(5)
H5E H -0.2139 1.2805 0.0104
C11E C -0.3194(9) 1.2908(8) 0.0710(5)
C12E C -0.3564(10) 1.3628(10) 0.0939(6)
C13E C -0.3192(10) 1.4613(10) 0.0629(5)
H6E H -0.3437 1.5078 0.0778
C14E C -0.2457(9) 1.4948(9) 0.0096(5)
C15E C -0.2202(10) 1.6005(10) -0.0244(6)
C16E C -0.2798(10) 1.5992(10) -0.0821(6)
C17E C -0.3579(11) 1.5000(12) -0.1137(6)
H7E H -0.3727 1.4334 -0.0953
C18E C -0.4098(12) 1.5002(13) -0.1685(7)
H8E H -0.4618 1.4342 -0.1875
C19E C -0.3886(12) 1.5915(14) -0.1956(8)
H9E H -0.4251 1.5880 -0.2350
C20E C -0.3216(11) 1.6865(13) -0.1728(7)
H10E H -0.3118 1.7495 -0.1940
C21E C -0.2627(12) 1.6932(13) -0.1142(7)
H11E H -0.2120 1.7614 -0.0971
C22E C -0.4214(12) 1.3424(11) 0.1565(8)
C23E C -0.5232(7) 1.3263(9) 0.1652(6)
C24E C -0.5585(9) 1.3322(9) 0.2290(5)
H12E H -0.5122 1.3466 0.2652
C25E C -0.6630(9) 1.3167(10) 0.2385(5)
H13E H -0.6866 1.3207 0.2812
C26E C -0.7322(7) 1.2953(9) 0.1843(6)
H14E H -0.8021 1.2850 0.1907
C27E C -0.6970(9) 1.2894(10) 0.1205(5)
H15E H -0.7433 1.2751 0.0842
C28E C -0.5925(10) 1.3049(9) 0.1110(4)
H16E H -0.5689 1.3009 0.0683
Ni1E Ni -1.0000 0.62531(9) -0.1667
Ni1E_2 Ni 0.0000 1.62531(9) -0.1667
Ni2A Ni -1.0000 0.43380(9) -0.1666
Ni2_2 Ni -0.56620(9) 1.0000 0.1667
Ni2E Ni 0.0000 1.43380(9) -0.1667
O1E O -0.3174(5) 1.1313(5) 0.1074(3)
O1B O -0.4487(7) 0.8687(5) 0.2259(3)
O2E O -0.4711(5) 1.1391(5) 0.1197(3)
O2B O 0.3898(7) 0.8609(5) 0.2136(3)
O2E_2 O 0.5289(5) 1.1391(5) 0.1197(3)
O3E O -0.0832(5) 1.4020(5) -0.0817(3)
O3_2 O 0.4020(5) 0.9168(5) 0.0817(3)
O3C O 0.4852(7) 1.0832(5) 0.2516(3)
O4E O -0.0956(5) 1.5527(5) -0.0911(3)
O4C O -0.3517(7) 1.0956(5) 0.2422(3)
O5E O -0.1530(9) 1.6859(7) 0.0041(5)
O6E O -0.3763(13) 1.3518(9) 0.2077(5)
loop_
_geom_bond_atom_site_label_1
_geom_bond_atom_site_label_2
_geom_bond_site_symmetry_1
_geom_bond_site_symmetry_2
C1 H1 1_555 1_555
C2 C1 1_555 1_555
H2 C2 1_555 1_555
C3 C2 1_555 1_555
C4 C3 1_555 1_555
C5 C4 1_555 1_555
H3 C5 1_555 1_555
C6 C5 1_555 1_555
H4 C6 1_555 1_555
C7 C11 1_555 1_555
C8 C9 1_555 1_555
C9 C10 1_555 1_555
C10 H5 1_555 1_555
C11 C10 1_555 1_555
C12 C11 1_555 1_555
C13 C12 1_555 1_555
H6 C13 1_555 1_555
C14 C9 1_555 1_555
C15 C14 1_555 1_555
C16 C15 1_555 1_555
C17 C16 1_555 1_555
H7 C17 1_555 1_555
C18 C17 1_555 1_555
H8 C18 1_555 1_555
C19 C18 1_555 1_555
H9 C19 1_555 1_555
C20 C19 1_555 1_555
H10 C20 1_555 1_555
C21 C16 1_555 1_555
H11 C21 1_555 1_555
C22 C12 1_555 1_555
C23 C22 1_555 1_555
C24 C23 1_555 1_555
H12 C24 1_555 1_555
C25 C24 1_555 1_555
H13 C25 1_555 1_555
C26 C25 1_555 1_555
H14 C26 1_555 1_555
C27 C26 1_555 1_555
H15 C27 1_555 1_555
C28 C23 1_555 1_555
H16 C28 1_555 1_555
N1 C1 1_555 1_555
N2 C6 1_555 1_555
Ni1 N1 1_555 1_555
Ni2 N2 1_555 1_555
O1 C7 1_555 1_555
O2 C7 1_555 1_555
O3 C8 1_555 1_555
O4 C8 1_555 1_555
O5 C15 1_555 1_555
O6 C22 1_555 1_555
C1C N1 1_555 1_555
H1C C1C 1_555 1_555
C2C C3 1_555 1_555
H2C C2C 1_555 1_555
C5C C4 1_555 1_555
H3C C5C 1_555 1_555
C6C N2 1_555 1_555
H4C C6C 1_555 1_555
C7E C11E 1_555 1_555
C8E C9E 1_555 1_555
C9E C10E 1_555 1_555
C10E H5E 1_555 1_555
C11E C10E 1_555 1_555
C12E C11E 1_555 1_555
C13E C12E 1_555 1_555
H6E C13E 1_555 1_555
C14E C9E 1_555 1_555
C15E C14E 1_555 1_555
C16E C15E 1_555 1_555
C17E C16E 1_555 1_555
H7E C17E 1_555 1_555
C18E C17E 1_555 1_555
H8E C18E 1_555 1_555
C19E C18E 1_555 1_555
H9E C19E 1_555 1_555
C20E C19E 1_555 1_555
H10E C20E 1_555 1_555
C21E C16E 1_555 1_555
H11E C21E 1_555 1_555
C22E C12E 1_555 1_555
C23E C22E 1_555 1_555
C24E C23E 1_555 1_555
H12E C24E 1_555 1_555
C25E C24E 1_555 1_555
H13E C25E 1_555 1_555
C26E C25E 1_555 1_555
H14E C26E 1_555 1_555
C27E C26E 1_555 1_555
H15E C27E 1_555 1_555
C28E C23E 1_555 1_555
H16E C28E 1_555 1_555
Ni1E O1 1_555 1_555
Ni1E_2 O4E 1_555 1_555
Ni2A O2 1_555 1_555
Ni2_2 O3 1_555 1_555
Ni2E O3E 1_555 1_555
O1E Ni1 1_555 1_555
O1B Ni1 1_555 1_555
O2E C7E 1_555 1_555
O2B Ni2 1_555 1_555
O2E_2 Ni2 1_555 1_555
O3E C8E 1_555 1_555
O3_2 Ni2 1_555 1_555
O3C Ni2 1_555 1_555
O4E C8E 1_555 1_555
O4C Ni1 1_555 1_555
O5E C15E 1_555 1_555
O6E C22E 1_555 1_555
C13 C14 1_555 1_555
C20 C21 1_555 1_555
C27 C28 1_555 1_555
Ni1 O4 1_555 1_555
C1C C2C 1_555 1_555
C5C C6C 1_555 1_555
C7E O1E 1_555 1_555
C13E C14E 1_555 1_555
C20E C21E 1_555 1_555
C27E C28E 1_555 1_555
Ni2_2 O2E 1_555 1_555

#END
