
#######################################################################
#
#                 Cambridge Crystallographic Data Centre
#                                CCDC 
#
#######################################################################
#
# If this CIF has been generated from an entry in the Cambridge 
# Structural Database, then it will include bibliographic, chemical, 
# crystal, experimental, refinement or atomic coordinate data resulting 
# from the CCDC's data processing and validation procedures.
#
#######################################################################

data_ETEROL
_symmetry_cell_setting           trigonal
_symmetry_space_group_name_H-M   'P 32 2 1'
_symmetry_Int_Tables_number      154
_space_group_name_Hall           'P 32 2"'
loop_
_symmetry_equiv_pos_site_id
_symmetry_equiv_pos_as_xyz
1 x,y,z
2 -y,x-y,2/3+z
3 -x+y,-x,1/3+z
4 x-y,-y,1/3-z
5 -x,-x+y,2/3-z
6 y,x,-z
_cell_length_a                   14.0995(10)
_cell_length_b                   14.0995(10)
_cell_length_c                   20.050(2)
_cell_angle_alpha                90
_cell_angle_beta                 90
_cell_angle_gamma                120
_cell_volume                     3451.85
loop_
_atom_site_label
_atom_site_type_symbol
_atom_site_fract_x
_atom_site_fract_y
_atom_site_fract_z
C1 C 0.4607(7) -0.1214(7) 0.5649(4)
C2 C 0.4266(7) -0.2042(7) 0.5089(4)
C3 C 0.3253(7) -0.2421(7) 0.4775(4)
H1 H 0.2811 -0.2133 0.4897
C4 C 0.2902(7) -0.3212(8) 0.4289(4)
C5 C 0.3626(8) -0.3561(8) 0.4059(5)
C6 C 0.3425(9) -0.4224(11) 0.3433(7)
C7 C 0.4614(8) -0.3204(9) 0.4376(5)
H2 H 0.5074 -0.3461 0.4237
C8 C 0.4936(7) -0.2458(8) 0.4905(5)
C9 C 0.6013(8) -0.2194(8) 0.5244(5)
C10 C 0.5972(8) -0.2808(9) 0.5831(5)
C11 C 0.4993(9) -0.3592(10) 0.6131(6)
H3 H 0.4324 -0.3764 0.5939
C12 C 0.5014(10) -0.4096(12) 0.6692(7)
H4 H 0.4356 -0.4598 0.6891
C13 C 0.5934(12) -0.3903(12) 0.6971(7)
H5 H 0.5908 -0.4267 0.7363
C14 C 0.6904(10) -0.3201(11) 0.6709(6)
H6 H 0.7548 -0.3096 0.6905
C15 C 0.6940(9) -0.2624(11) 0.6133(6)
H7 H 0.7612 -0.2116 0.5950
C16 C 0.1771(7) -0.3738(6) 0.3988(4)
C17 C 0.2409(7) 0.0197(9) 0.7222(5)
H8 H 0.2799 0.0321 0.7617
C18 C 0.1435(7) 0.0226(9) 0.7234(5)
H9 H 0.1202 0.0398 0.7627
C19 C 0.0825(8) 0.0000 0.6667
C20 C -0.0242(8) 0.0000 0.6667
C21 C -0.0923(7) -0.0346(8) 0.7214(4)
H10 H -0.0724 -0.0574 0.7598
C22 C -0.1896(7) -0.0350(8) 0.7187(5)
H11 H -0.2357 -0.0615 0.7556
C23 C 0.3254(7) -0.5249(7) 0.3368(5)
C24 C 0.3059(8) -0.5938(9) 0.3910(4)
H12 H 0.3026 -0.5703 0.4338
C25 C 0.2915(9) -0.6978(8) 0.3812(5)
H13 H 0.2785 -0.7439 0.4174
C26 C 0.2965(8) -0.7329(7) 0.3172(6)
H14 H 0.2869 -0.8025 0.3106
C27 C 0.3159(9) -0.6641(9) 0.2630(4)
H15 H 0.3192 -0.6876 0.2202
C28 C 0.3303(8) -0.5601(8) 0.2728(4)
H16 H 0.3433 -0.5140 0.2366
N1 N 0.2804(7) 0.0000 0.6667
N2 N -0.2224(6) 0.0000 0.6667
O1 O 0.4023(4) -0.0828(4) 0.5814(2)
O2 O 0.5520(4) -0.0962(5) 0.5909(3)
O3 O 0.3494(11) -0.3787(13) 0.2917(4)
O4 O 0.6863(7) -0.1537(7) 0.4961(4)
O5 O 0.1394(4) -0.4714(4) 0.3807(3)
O6 O 0.1316(4) -0.3171(4) 0.3927(3)
Cu1 Cu 0.43371(8) 0.0000 0.6667
Cu2 Cu -0.37458(8) 0.0000 0.6667
C1E C 0.8786(7) 0.4607(7) 0.4351(4)
C2E C 0.7958(7) 0.4266(7) 0.4911(4)
C3E C 0.7579(7) 0.3253(7) 0.5225(4)
H1E H 0.7867 0.2811 0.5103
C4E C 0.6788(8) 0.2902(7) 0.5711(4)
C5E C 0.6439(8) 0.3626(8) 0.5941(5)
C6E C 0.5776(11) 0.3425(9) 0.6567(7)
C7E C 0.6796(9) 0.4614(8) 0.5624(5)
H2E H 0.6539 0.5074 0.5763
C8E C 0.7542(8) 0.4936(7) 0.5095(5)
C9E C 0.7806(8) 0.6013(8) 0.4756(5)
C10E C 0.7192(9) 0.5972(8) 0.4169(5)
C11E C 0.6408(10) 0.4993(9) 0.3869(6)
H3E H 0.6236 0.4324 0.4061
C12E C 0.5904(12) 0.5014(10) 0.3308(7)
H4E H 0.5402 0.4356 0.3109
C13E C 0.6097(12) 0.5934(12) 0.3029(7)
H5E H 0.5733 0.5908 0.2637
C14E C 0.6799(11) 0.6904(10) 0.3291(6)
H6E H 0.6904 0.7548 0.3095
C15E C 0.7376(11) 0.6940(9) 0.3867(6)
H7E H 0.7884 0.7612 0.4050
C16E C 0.6262(6) 0.1771(7) 0.6012(4)
C17C C 0.2212(11) -0.0197(9) 0.6111(5)
H8C H 0.2478 -0.0321 0.5716
C18C C 0.1209(11) -0.0226(9) 0.6099(5)
H9C H 0.0804 -0.0398 0.5706
C21C C -0.0577(11) 0.0346(8) 0.6119(4)
H10C H -0.0150 0.0574 0.5735
C22C C -0.1546(11) 0.0350(8) 0.6146(5)
H11C H -0.1742 0.0615 0.5777
C23E C 0.4751(7) 0.3254(7) 0.6632(5)
C24E C 0.4062(9) 0.3059(8) 0.6090(4)
H12E H 0.4297 0.3026 0.5662
C25E C 0.3022(8) 0.2915(9) 0.6188(5)
H13E H 0.2561 0.2785 0.5826
C26E C 0.2671(7) 0.2965(8) 0.6828(6)
H14E H 0.1975 0.2869 0.6894
C27E C 0.3359(9) 0.3159(9) 0.7370(4)
H15E H 0.3124 0.3192 0.7798
C28E C 0.4399(8) 0.3303(8) 0.7272(4)
H16E H 0.4860 0.3433 0.7634
O1E O 0.9172(4) 0.4023(4) 0.4186(2)
O1C O 0.4851(6) 0.0828(4) 0.7519(2)
O2E O 0.9038(5) 0.5520(4) 0.4091(3)
O2C O -0.3518(6) 0.0962(5) 0.7424(3)
O2_2 O -0.4480(4) -0.0962(5) 0.5909(3)
O3E O 0.6213(13) 0.3494(11) 0.7083(4)
O4E O 0.8463(7) 0.6863(7) 0.5039(4)
O5E O 0.5286(4) 0.1394(4) 0.6193(3)
O5B O 0.3892(6) -0.1394(4) 0.7140(3)
O6E O 0.6829(4) 0.1316(4) 0.6073(3)
O6E_2 O -0.3171(4) 0.1316(4) 0.6073(3)
O6B O -0.4487(6) -0.1316(4) 0.7260(3)
Cu1E Cu 0.0000 -0.56629(8) 0.3333
Cu1E_2 Cu 1.0000 0.43371(8) 0.3333
Cu2C Cu 0.62542(8) 0.0000 0.6666
Cu2E Cu 0.0000 -0.37458(8) 0.3333
Cu2A Cu 1.0000 0.62542(8) 0.3334
loop_
_geom_bond_atom_site_label_1
_geom_bond_atom_site_label_2
_geom_bond_site_symmetry_1
_geom_bond_site_symmetry_2
C1 C2 1_555 1_555
C2 C3 1_555 1_555
C3 H1 1_555 1_555
C4 C3 1_555 1_555
C5 C4 1_555 1_555
C6 C5 1_555 1_555
C7 C5 1_555 1_555
H2 C7 1_555 1_555
C8 C2 1_555 1_555
C9 C8 1_555 1_555
C10 C9 1_555 1_555
C11 C10 1_555 1_555
H3 C11 1_555 1_555
C12 C11 1_555 1_555
H4 C12 1_555 1_555
C13 C12 1_555 1_555
H5 C13 1_555 1_555
C14 C13 1_555 1_555
H6 C14 1_555 1_555
C15 C10 1_555 1_555
H7 C15 1_555 1_555
C16 C4 1_555 1_555
C17 H8 1_555 1_555
C18 C17 1_555 1_555
H9 C18 1_555 1_555
C19 C18 1_555 1_555
C20 C19 1_555 1_555
C21 C20 1_555 1_555
H10 C21 1_555 1_555
C22 C21 1_555 1_555
H11 C22 1_555 1_555
C23 C6 1_555 1_555
C24 C23 1_555 1_555
H12 C24 1_555 1_555
C25 C24 1_555 1_555
H13 C25 1_555 1_555
C26 C25 1_555 1_555
H14 C26 1_555 1_555
C27 C26 1_555 1_555
H15 C27 1_555 1_555
C28 C23 1_555 1_555
H16 C28 1_555 1_555
N1 C17 1_555 1_555
N2 C22 1_555 1_555
O1 C1 1_555 1_555
O2 C1 1_555 1_555
O3 C6 1_555 1_555
O4 C9 1_555 1_555
O5 C16 1_555 1_555
O6 C16 1_555 1_555
Cu1 N1 1_555 1_555
Cu2 N2 1_555 1_555
C1E C2E 1_555 1_555
C2E C3E 1_555 1_555
C3E H1E 1_555 1_555
C4E C3E 1_555 1_555
C5E C4E 1_555 1_555
C6E C5E 1_555 1_555
C7E C5E 1_555 1_555
H2E C7E 1_555 1_555
C8E C2E 1_555 1_555
C9E C8E 1_555 1_555
C10E C9E 1_555 1_555
C11E C10E 1_555 1_555
H3E C11E 1_555 1_555
C12E C11E 1_555 1_555
H4E C12E 1_555 1_555
C13E C12E 1_555 1_555
H5E C13E 1_555 1_555
C14E C13E 1_555 1_555
H6E C14E 1_555 1_555
C15E C10E 1_555 1_555
H7E C15E 1_555 1_555
C16E C4E 1_555 1_555
C17C N1 1_555 1_555
H8C C17C 1_555 1_555
C18C C19 1_555 1_555
H9C C18C 1_555 1_555
C21C C20 1_555 1_555
H10C C21C 1_555 1_555
C22C N2 1_555 1_555
H11C C22C 1_555 1_555
C23E C6E 1_555 1_555
C24E C23E 1_555 1_555
H12E C24E 1_555 1_555
C25E C24E 1_555 1_555
H13E C25E 1_555 1_555
C26E C25E 1_555 1_555
H14E C26E 1_555 1_555
C27E C26E 1_555 1_555
H15E C27E 1_555 1_555
C28E C23E 1_555 1_555
H16E C28E 1_555 1_555
O1E C1E 1_555 1_555
O1C Cu1 1_555 1_555
O2E C1E 1_555 1_555
O2C Cu2 1_555 1_555
O2_2 Cu2 1_555 1_555
O3E C6E 1_555 1_555
O4E C9E 1_555 1_555
O5E Cu1 1_555 1_555
O5B Cu1 1_555 1_555
O6E C16E 1_555 1_555
O6E_2 Cu2 1_555 1_555
O6B Cu2 1_555 1_555
Cu1E O5 1_555 1_555
Cu1E_2 O1E 1_555 1_555
Cu2C O2 1_555 1_555
Cu2E O6 1_555 1_555
Cu2A O2E 1_555 1_555
C7 C8 1_555 1_555
C14 C15 1_555 1_555
C27 C28 1_555 1_555
O1 Cu1 1_555 1_555
C7E C8E 1_555 1_555
C14E C15E 1_555 1_555
C16E O5E 1_555 1_555
C17C C18C 1_555 1_555
C21C C22C 1_555 1_555
C27E C28E 1_555 1_555
O6E Cu2C 1_555 1_555

#END
