
#######################################################################
#
#                 Cambridge Crystallographic Data Centre
#                                CCDC 
#
#######################################################################
#
# If this CIF has been generated from an entry in the Cambridge 
# Structural Database, then it will include bibliographic, chemical, 
# crystal, experimental, refinement or atomic coordinate data resulting 
# from the CCDC's data processing and validation procedures.
#
#######################################################################

data_ETESAY
_symmetry_cell_setting           triclinic
_symmetry_space_group_name_H-M   'P -1'
_symmetry_Int_Tables_number      2
_space_group_name_Hall           '-P 1'
loop_
_symmetry_equiv_pos_site_id
_symmetry_equiv_pos_as_xyz
1 x,y,z
2 -x,-y,-z
_cell_length_a                   14.9031(7)
_cell_length_b                   18.2115(6)
_cell_length_c                   18.3710(5)
_cell_angle_alpha                94.803(2)
_cell_angle_beta                 101.600(3)
_cell_angle_gamma                113.983(4)
_cell_volume                     4385.6
loop_
_atom_site_label
_atom_site_type_symbol
_atom_site_fract_x
_atom_site_fract_y
_atom_site_fract_z
Cu1 Cu 0.73901(4) 0.13445(4) 0.32964(3)
Cu2 Cu 0.71843(5) 0.03299(4) 0.16937(3)
Cu3 Cu 0.15962(4) 0.09569(4) -0.15704(3)
Cu4 Cu 0.84250(5) 0.01615(4) 0.30814(3)
Cu5 Cu 1.07739(5) 0.56973(4) 0.03666(3)
O1 O 0.7859(2) 0.1173(2) 0.43222(15)
O2 O 0.8505(3) 0.0271(2) 0.41579(16)
O3 O 0.7325(4) -0.1251(3) 0.2956(3)
H1 H 0.7372 -0.1557 0.2627
H2 H 0.7221 -0.1422 0.3345
O4 O 0.0419(3) 0.0332(3) -0.08717(19)
H3 H 0.0771 0.0608 -0.0455
H4 H -0.0197 0.0163 -0.0935
O5 O 1.2176(3) 0.6722(2) 0.0971(2)
H5 H 1.2545 0.6541 0.1205
H6 H 1.2456 0.7109 0.0771
O6 O 0.6267(2) 0.1359(2) 0.25423(16)
O7 O 0.5952(3) 0.0499(2) 0.14770(16)
O8 O 0.3253(3) 0.0244(2) -0.06676(15)
O9 O 0.2679(2) 0.1209(2) -0.06597(15)
O10 O 1.0375(2) 0.0745(2) 0.76381(16)
O11 O 1.0330(3) -0.0075(2) 0.66454(17)
O12 O 0.8222(2) 0.1581(2) 0.18116(16)
O13 O 0.8946(3) 0.1664(2) 0.30222(16)
O14 O 0.1734(3) 0.2061(2) -0.13183(17)
O15 O 0.2896(3) 0.2472(2) -0.1966(2)
O16 O 0.1515(3) 0.5248(2) -0.01613(17)
O17 O 0.0213(3) 0.4048(2) -0.07617(18)
O18 O 0.7156(2) 0.02739(19) 0.28033(14)
H7 H 0.6639 -0.0121 0.2865
O19 O 0.8334(2) 0.00446(18) 0.19846(14)
H8 H 0.8855 0.0443 0.1932
O20 O 0.6203(3) 0.1005(3) 0.52295(18)
O21 O 0.8177(3) -0.0554(2) 0.76908(17)
O22 O 1.0815(3) 0.5050(2) 0.11691(16)
O23 O 0.9529(3) 0.3862(2) 0.05390(17)
O24 O 1.2593(3) 0.5479(3) 0.2608(2)
O25 O 1.0203(3) 0.3198(3) 0.43685(19)
O26 O 0.4795(3) 0.4036(3) -0.1503(2)
O27 O 0.1932(3) 0.5891(2) -0.1751(2)
O28 O 0.1554(3) 0.1211(2) 0.05478(18)
O29 O 0.4458(3) 0.1011(2) 0.31507(18)
N1 N 0.7750(3) 0.2485(2) 0.36667(19)
N2 N 0.8249(3) 0.3678(3) 0.4369(2)
C1 C 0.8042(4) 0.2896(4) 0.4360(3)
H9 H 0.8096 0.2668 0.4791
C2 C 0.8089(5) 0.3781(4) 0.3638(3)
H10 H 0.8171 0.4267 0.3471
C3 C 0.7791(4) 0.3057(3) 0.3206(3)
H11 H 0.7636 0.2952 0.2681
C4 C 0.8622(5) 0.4309(4) 0.5051(3)
H12 H 0.8402 0.4052 0.5465
H13 H 0.8325 0.4688 0.4961
C5 C 0.9763(5) 0.4776(4) 0.5275(3)
H14 H 0.9956 0.5163 0.5738
H15 H 1.0048 0.4393 0.5389
C6 C 0.8901(4) 0.1944(3) 0.2422(2)
C7 C 0.9672(4) 0.2800(3) 0.2449(2)
C8 C 0.9648(4) 0.3155(3) 0.1815(2)
H16 H 0.9186 0.2838 0.1362
C9 C 1.0282(4) 0.3963(3) 0.1826(2)
C10 C 1.0976(4) 0.4437(3) 0.2502(3)
C11 C 1.1004(4) 0.4080(3) 0.3138(3)
H17 H 1.1470 0.4395 0.3589
C12 C 1.0373(4) 0.3281(3) 0.3128(2)
C13 C 1.0491(4) 0.2963(3) 0.3861(3)
C14 C 1.1106(4) 0.2489(3) 0.3967(3)
C15 C 1.1781(4) 0.2554(3) 0.3543(3)
H18 H 1.1829 0.2865 0.3163
C16 C 1.2398(5) 0.2149(4) 0.3685(3)
H19 H 1.2868 0.2189 0.3407
C17 C 1.2299(5) 0.1696(4) 0.4235(4)
H20 H 1.2697 0.1414 0.4317
C18 C 1.1653(5) 0.1633(4) 0.4670(3)
H21 H 1.1623 0.1328 0.5054
C19 C 1.1024(5) 0.2038(4) 0.4530(3)
H22 H 1.0561 0.2000 0.4815
C20 C 1.1714(5) 0.5324(4) 0.2613(3)
C21 C 1.1404(5) 0.5957(3) 0.2843(3)
C22 C 1.0402(5) 0.5783(4) 0.2767(3)
H23 H 0.9894 0.5261 0.2551
C23 C 1.0163(6) 0.6404(4) 0.3021(3)
H24 H 0.9486 0.6308 0.2953
C24 C 1.0929(6) 0.7163(4) 0.3374(3)
H25 H 1.0761 0.7567 0.3562
C25 C 1.1889(6) 0.7328(4) 0.3449(4)
H26 H 1.2391 0.7848 0.3680
C26 C 1.2159(6) 0.6733(4) 0.3188(3)
H27 H 1.2840 0.6851 0.3242
C27 C 1.0204(4) 0.4319(3) 0.1121(3)
C28 C 0.5753(4) 0.0964(3) 0.1884(2)
C29 C 0.4846(4) 0.1122(3) 0.1574(2)
C30 C 0.4389(3) 0.0895(3) 0.0803(2)
H28 H 0.4606 0.0603 0.0499
C31 C 0.4485(4) 0.1529(3) 0.2033(2)
C32 C 0.3736(4) 0.1746(3) 0.1706(2)
H29 H 0.3516 0.2036 0.2011
C33 C 0.3297(4) 0.1539(3) 0.0927(2)
C34 C 0.2413(4) 0.1751(3) 0.0672(2)
C35 C 0.2644(4) 0.2616(3) 0.0691(3)
C36 C 0.3557(5) 0.3175(4) 0.0620(3)
H30 H 0.4042 0.2996 0.0550
C37 C 0.3791(5) 0.4005(4) 0.0648(3)
H31 H 0.4404 0.4372 0.0577
C38 C 0.3074(6) 0.4254(4) 0.0783(3)
H32 H 0.3219 0.4806 0.0831
C39 C 0.2196(6) 0.3733(4) 0.0845(3)
H33 H 0.1728 0.3925 0.0930
C40 C 0.1927(5) 0.2892(4) 0.0789(3)
H34 H 0.1286 0.2530 0.0817
C41 C 0.4747(4) 0.1626(4) 0.2888(3)
C42 C 0.5189(4) 0.2449(4) 0.3368(3)
C43 C 0.5387(5) 0.3159(4) 0.3088(3)
H35 H 0.5287 0.3143 0.2570
C44 C 0.5733(5) 0.3902(5) 0.3570(4)
H36 H 0.5839 0.4377 0.3376
C45 C 0.5914(6) 0.3925(5) 0.4329(4)
H37 H 0.6161 0.4423 0.4656
C46 C 0.5742(5) 0.3243(5) 0.4609(4)
H38 H 0.5871 0.3276 0.5130
C47 C 0.5377(5) 0.2488(4) 0.4149(3)
H39 H 0.5260 0.2018 0.4355
C48 C 0.8191(4) 0.0678(3) 0.4531(2)
C49 C 0.8220(4) 0.0547(3) 0.5336(2)
C50 C 0.9057(4) 0.0501(3) 0.5778(2)
H40 H 0.9600 0.0541 0.5581
C51 C 0.9076(4) 0.0392(3) 0.6522(2)
C52 C 0.8284(4) 0.0332(3) 0.6819(2)
C53 C 0.7434(4) 0.0375(3) 0.6373(2)
H41 H 0.6891 0.0331 0.6572
C54 C 0.7403(4) 0.0483(3) 0.5625(2)
C55 C 0.6470(4) 0.0477(3) 0.5112(2)
C56 C 0.5916(4) -0.0211(3) 0.4445(3)
C57 C 0.5926(4) -0.0962(4) 0.4451(3)
H42 H 0.6296 -0.1050 0.4878
C58 C 0.5397(5) -0.1583(4) 0.3834(3)
H43 H 0.5402 -0.2092 0.3842
C59 C 0.4855(5) -0.1438(4) 0.3196(3)
H44 H 0.4494 -0.1854 0.2774
C60 C 0.4848(4) -0.0706(4) 0.3185(3)
H45 H 0.4497 -0.0613 0.2751
C61 C 0.5350(4) -0.0096(4) 0.3804(3)
H46 H 0.5313 0.0401 0.3797
C62 C 0.8262(4) 0.0111(3) 0.7599(2)
C63 C 0.8375(4) 0.0742(3) 0.8215(2)
C64 C 0.8719(5) 0.1551(4) 0.8162(3)
H47 H 0.8825 0.1710 0.7707
C65 C 0.8909(5) 0.2128(4) 0.8772(3)
H48 H 0.9154 0.2677 0.8732
C66 C 0.8741(5) 0.1901(4) 0.9435(3)
H49 H 0.8877 0.2297 0.9848
C67 C 0.8380(5) 0.1108(4) 0.9499(3)
H50 H 0.8252 0.0958 0.9953
C68 C 0.8199(5) 0.0514(4) 0.8891(3)
H51 H 0.7961 -0.0033 0.8939
C69 C 0.2358(4) 0.2593(3) -0.1584(3)
C70 C 0.2456(4) 0.3455(3) -0.1430(3)
C71 C 0.1768(4) 0.3617(3) -0.1116(3)
H52 H 0.1254 0.3192 -0.0986
C72 C 0.1833(4) 0.4396(3) -0.0992(3)
C73 C 0.2582(4) 0.5040(3) -0.1215(3)
C74 C 0.3264(4) 0.4873(3) -0.1526(3)
H53 H 0.3766 0.5294 -0.1669
C75 C 0.3222(4) 0.4092(3) -0.1633(3)
C76 C 0.4035(5) 0.3991(4) -0.1929(3)
C77 C 0.3937(6) 0.3947(4) -0.2762(4)
C78 C 0.3032(6) 0.3710(4) -0.3254(4)
H54 H 0.2455 0.3575 -0.3074
C79 C 0.2930(8) 0.3658(5) -0.4048(5)
H55 H 0.2312 0.3516 -0.4395
C80 C 0.3820(8) 0.3834(6) -0.4256(5)
H56 H 0.3770 0.3741 -0.4771
C81 C 0.4716(8) 0.4115(5) -0.3806(5)
H57 H 0.5288 0.4280 -0.3994
C82 C 0.4811(7) 0.4167(5) -0.3011(4)
H58 H 0.5443 0.4343 -0.2671
C83 C 0.2541(4) 0.5854(3) -0.1230(3)
C84 C 0.3258(4) 0.6591(3) -0.0645(3)
C85 C 0.4006(4) 0.6570(4) -0.0080(3)
H59 H 0.4097 0.6095 -0.0067
C86 C 0.4629(5) 0.7267(4) 0.0475(3)
H60 H 0.5153 0.7268 0.0848
C87 C 0.4452(5) 0.7957(4) 0.0458(4)
H61 H 0.4846 0.8416 0.0836
C88 C 0.3718(5) 0.7975(4) -0.0096(4)
H62 H 0.3617 0.8447 -0.0099
C89 C 0.3119(5) 0.7304(4) -0.0657(3)
H63 H 0.2624 0.7324 -0.1043
C90 C 0.3139(4) 0.0827(3) -0.0356(2)
C91 C 0.3618(4) 0.1094(3) 0.0479(2)
C92 C 1.0010(4) 0.0355(3) 0.6984(2)
C93 C 0.1130(4) 0.4575(3) -0.0611(3)
Cu1A Cu 1.26099(4) 0.86555(4) 0.67036(3)
Cu1A_2 Cu 0.26099(4) -0.13445(4) -0.32964(3)
Cu1_2 Cu -0.26099(4) 0.13445(4) -0.67036(3)
Cu1A_3 Cu 1.26099(4) 0.86555(4) -0.32964(3)
Cu2A Cu 0.28157(5) -0.03299(4) -0.16937(3)
Cu2A_2 Cu 1.28157(5) 0.96701(4) -0.16937(3)
Cu2A_3 Cu 1.28157(5) 0.96701(4) 0.83063(3)
Cu3_2 Cu 1.15962(4) 0.09569(4) 0.84296(3)
Cu3A Cu 0.84038(4) -0.09569(4) 0.15704(3)
Cu3_3 Cu 1.15962(4) 0.09569(4) -0.15704(3)
Cu4A Cu 1.15750(5) -0.01615(4) 0.69186(3)
Cu4_2 Cu -0.15750(5) 0.01615(4) -0.69186(3)
Cu4A_2 Cu 0.15750(5) -0.01615(4) -0.30814(3)
Cu4A_3 Cu 1.15750(5) 0.98385(4) 0.69186(3)
Cu5A Cu 0.92261(5) 0.43027(4) -0.03666(3)
Cu5_2 Cu 0.07739(5) 0.56973(4) 0.03666(3)
Cu5A_2 Cu -0.07739(5) 0.43027(4) -0.03666(3)
O1_2 O -0.2141(2) 0.1173(2) -0.56778(15)
O1A O 1.2141(2) 0.8827(2) 0.56778(15)
O2_2 O -0.1495(3) 0.0271(2) -0.58421(16)
O2A O 1.1495(3) -0.0271(2) 0.58421(16)
O3A O 1.2675(4) 0.1251(3) 0.7044(3)
H1A H 1.2628 0.1557 0.7373
H2A H 1.2779 0.1422 0.6655
O4_2 O 1.0419(3) 0.0332(3) 0.91283(19)
H3_2 H 1.0771 0.0608 0.9545
H4_2 H 0.9803 0.0163 0.9065
O5A O 0.7824(3) 0.3278(2) -0.0971(2)
H5A H 0.7455 0.3459 -0.1205
H6A H 0.7544 0.2891 -0.0771
O6A O 0.3733(2) -0.1359(2) -0.25423(16)
O6A_2 O 1.3733(2) 0.8641(2) 0.74577(16)
O7A O 0.4048(3) -0.0499(2) -0.14770(16)
O8A O 0.6747(3) -0.0244(2) 0.06676(15)
O9A O 0.7321(2) -0.1209(2) 0.06597(15)
O9_2 O 1.2679(2) 0.1209(2) 0.93403(15)
O10_2 O 0.0375(2) 0.0745(2) -0.23619(16)
O11_2 O 0.0330(3) -0.0075(2) -0.33546(17)
O11A O 0.9670(3) 0.0075(2) 0.33546(17)
O12A O 1.1778(2) 0.8419(2) -0.18116(16)
O12A_2 O 0.1778(2) -0.1581(2) -0.18116(16)
O13A O 1.1054(3) 0.8336(2) -0.30222(16)
O13A_2 O 1.1054(3) 0.8336(2) 0.69778(16)
O14_2 O 1.1734(3) 0.2061(2) -0.13183(17)
O14_3 O 1.1734(3) 0.2061(2) 0.86817(17)
O15_2 O 1.2896(3) 0.2472(2) -0.1966(2)
O16_2 O 1.1515(3) 0.5248(2) -0.01613(17)
O16A O 0.8485(3) 0.4752(2) 0.01613(17)
O17_2 O 1.0213(3) 0.4048(2) -0.07617(18)
O17A O 0.9787(3) 0.5952(2) 0.07617(18)
O18A O 1.2844(2) 0.97261(19) 0.71967(14)
O18A_2 O 0.2844(2) -0.02739(19) -0.28033(14)
O18A_3 O 1.2844(2) -0.02739(19) 0.71967(14)
H7A H 1.3361 1.0121 0.7135
H7A_2 H 0.3361 0.0121 -0.2865
H7A_3 H 1.3361 0.0121 0.7135
O19A O 0.1666(2) -0.00446(18) -0.19846(14)
O19A_2 O 1.1666(2) -0.00446(18) 0.80154(14)
H8A H 0.1145 -0.0443 -0.1932
H8A_2 H 1.1145 -0.0443 0.8068
O20_2 O -0.3797(3) 0.1005(3) -0.47705(18)
O21_2 O -0.1823(3) -0.0554(2) -0.23092(17)
O22A O 0.9185(3) 0.4950(2) -0.11691(16)
O23A O 1.0471(3) 0.6138(2) -0.05390(17)
O24A O 0.7407(3) 0.4521(3) -0.2608(2)
O25A O 0.9797(3) 0.6802(3) -0.43685(19)
O26_2 O 1.4795(3) 0.4036(3) -0.1503(2)
O27_2 O 1.1932(3) 0.5891(2) -0.1751(2)
O28A O 0.8446(3) -0.1211(2) -0.05478(18)
O29A O 0.5542(3) -0.1011(2) -0.31507(18)
N1A N 1.2250(3) 0.7515(2) 0.63333(19)
N2A N 1.1751(3) 0.6322(3) 0.5631(2)
C1A C 1.1958(4) 0.7104(4) 0.5640(3)
H9A H 1.1904 0.7332 0.5209
C2A C 1.1911(5) 0.6219(4) 0.6362(3)
H10A H 1.1829 0.5733 0.6529
C3A C 1.2209(4) 0.6943(3) 0.6794(3)
H11A H 1.2364 0.7048 0.7319
C4A C 1.1378(5) 0.5691(4) 0.4949(3)
H12A H 1.1598 0.5948 0.4535
H13A H 1.1675 0.5312 0.5039
C5A C 1.0237(5) 0.5224(4) 0.4725(3)
H14A H 1.0044 0.4837 0.4262
H15A H 0.9952 0.5607 0.4611
C6A C 1.1099(4) 0.8056(3) -0.2422(2)
C7A C 1.0328(4) 0.7200(3) -0.2449(2)
C8A C 1.0352(4) 0.6845(3) -0.1815(2)
H16A H 1.0814 0.7162 -0.1362
C9A C 0.9718(4) 0.6037(3) -0.1826(2)
C10A C 0.9024(4) 0.5563(3) -0.2502(3)
C11A C 0.8996(4) 0.5920(3) -0.3138(3)
H17A H 0.8530 0.5605 -0.3589
C12A C 0.9627(4) 0.6719(3) -0.3128(2)
C13A C 0.9509(4) 0.7037(3) -0.3861(3)
C14A C 0.8894(4) 0.7511(3) -0.3967(3)
C15A C 0.8219(4) 0.7446(3) -0.3543(3)
H18A H 0.8171 0.7135 -0.3163
C16A C 0.7602(5) 0.7851(4) -0.3685(3)
H19A H 0.7132 0.7811 -0.3407
C17A C 0.7701(5) 0.8304(4) -0.4235(4)
H20A H 0.7303 0.8586 -0.4317
C18A C 0.8347(5) 0.8367(4) -0.4670(3)
H21A H 0.8377 0.8672 -0.5054
C19A C 0.8976(5) 0.7962(4) -0.4530(3)
H22A H 0.9439 0.8000 -0.4815
C20A C 0.8286(5) 0.4676(4) -0.2613(3)
C21A C 0.8596(5) 0.4043(3) -0.2843(3)
C22A C 0.9598(5) 0.4217(4) -0.2767(3)
H23A H 1.0106 0.4739 -0.2551
C23A C 0.9837(6) 0.3596(4) -0.3021(3)
H24A H 1.0514 0.3692 -0.2953
C24A C 0.9071(6) 0.2837(4) -0.3374(3)
H25A H 0.9239 0.2433 -0.3562
C25A C 0.8111(6) 0.2672(4) -0.3449(4)
H26A H 0.7609 0.2152 -0.3680
C26A C 0.7841(6) 0.3267(4) -0.3188(3)
H27A H 0.7160 0.3149 -0.3242
C27A C 0.9796(4) 0.5681(3) -0.1121(3)
C28A C 0.4247(4) -0.0964(3) -0.1884(2)
C29A C 0.5154(4) -0.1122(3) -0.1574(2)
C30A C 0.5611(3) -0.0895(3) -0.0803(2)
H28A H 0.5394 -0.0603 -0.0499
C31A C 0.5515(4) -0.1529(3) -0.2033(2)
C32A C 0.6264(4) -0.1746(3) -0.1706(2)
H29A H 0.6484 -0.2036 -0.2011
C33A C 0.6703(4) -0.1539(3) -0.0927(2)
C34A C 0.7587(4) -0.1751(3) -0.0672(2)
C35A C 0.7356(4) -0.2616(3) -0.0691(3)
C36A C 0.6443(5) -0.3175(4) -0.0620(3)
H30A H 0.5958 -0.2996 -0.0550
C37A C 0.6209(5) -0.4005(4) -0.0648(3)
H31A H 0.5596 -0.4372 -0.0577
C38A C 0.6926(6) -0.4254(4) -0.0783(3)
H32A H 0.6781 -0.4806 -0.0831
C39A C 0.7804(6) -0.3733(4) -0.0845(3)
H33A H 0.8272 -0.3925 -0.0930
C40A C 0.8073(5) -0.2892(4) -0.0789(3)
H34A H 0.8714 -0.2530 -0.0817
C41A C 0.5253(4) -0.1626(4) -0.2888(3)
C42A C 0.4811(4) -0.2449(4) -0.3368(3)
C43A C 0.4613(5) -0.3159(4) -0.3088(3)
H35A H 0.4713 -0.3143 -0.2570
C44A C 0.4267(5) -0.3902(5) -0.3570(4)
H36A H 0.4161 -0.4377 -0.3376
C45A C 0.4086(6) -0.3925(5) -0.4329(4)
H37A H 0.3839 -0.4423 -0.4656
C46A C 0.4258(5) -0.3243(5) -0.4609(4)
H38A H 0.4129 -0.3276 -0.5130
C47A C 0.4623(5) -0.2488(4) -0.4149(3)
H39A H 0.4740 -0.2018 -0.4355
C48_2 C -0.1809(4) 0.0678(3) -0.5469(2)
C49_2 C -0.1780(4) 0.0547(3) -0.4664(2)
C50_2 C -0.0943(4) 0.0501(3) -0.4222(2)
H40_2 H -0.0400 0.0541 -0.4419
C51_2 C -0.0924(4) 0.0392(3) -0.3478(2)
C52_2 C -0.1716(4) 0.0332(3) -0.3181(2)
C53_2 C -0.2566(4) 0.0375(3) -0.3627(2)
H41_2 H -0.3109 0.0331 -0.3428
C54_2 C -0.2597(4) 0.0483(3) -0.4375(2)
C55_2 C -0.3530(4) 0.0477(3) -0.4888(2)
C56_2 C -0.4084(4) -0.0211(3) -0.5555(3)
C57_2 C -0.4074(4) -0.0962(4) -0.5549(3)
H42_2 H -0.3704 -0.1050 -0.5122
C58_2 C -0.4603(5) -0.1583(4) -0.6166(3)
H43_2 H -0.4598 -0.2092 -0.6158
C59_2 C -0.5145(5) -0.1438(4) -0.6804(3)
H44_2 H -0.5506 -0.1854 -0.7226
C60_2 C -0.5152(4) -0.0706(4) -0.6815(3)
H45_2 H -0.5503 -0.0613 -0.7249
C61_2 C -0.4650(4) -0.0096(4) -0.6196(3)
H46_2 H -0.4687 0.0401 -0.6203
C62_2 C -0.1738(4) 0.0111(3) -0.2401(2)
C63_2 C -0.1625(4) 0.0742(3) -0.1785(2)
C64_2 C -0.1281(5) 0.1551(4) -0.1838(3)
H47_2 H -0.1175 0.1710 -0.2293
C65_2 C -0.1091(5) 0.2128(4) -0.1228(3)
H48_2 H -0.0846 0.2677 -0.1268
C66_2 C -0.1259(5) 0.1901(4) -0.0565(3)
H49_2 H -0.1123 0.2297 -0.0152
C67_2 C -0.1620(5) 0.1108(4) -0.0501(3)
H50_2 H -0.1748 0.0958 -0.0047
C68_2 C -0.1801(5) 0.0514(4) -0.1109(3)
H51_2 H -0.2039 -0.0033 -0.1061
C69_2 C 1.2358(4) 0.2593(3) -0.1584(3)
C70_2 C 1.2456(4) 0.3455(3) -0.1430(3)
C71_2 C 1.1768(4) 0.3617(3) -0.1116(3)
H52_2 H 1.1254 0.3192 -0.0986
C72_2 C 1.1833(4) 0.4396(3) -0.0992(3)
C73_2 C 1.2582(4) 0.5040(3) -0.1215(3)
C74_2 C 1.3264(4) 0.4873(3) -0.1526(3)
H53_2 H 1.3766 0.5294 -0.1669
C75_2 C 1.3222(4) 0.4092(3) -0.1633(3)
C76_2 C 1.4035(5) 0.3991(4) -0.1929(3)
C77_2 C 1.3937(6) 0.3947(4) -0.2762(4)
C78_2 C 1.3032(6) 0.3710(4) -0.3254(4)
H54_2 H 1.2455 0.3575 -0.3074
C79_2 C 1.2930(8) 0.3658(5) -0.4048(5)
H55_2 H 1.2312 0.3516 -0.4395
C80_2 C 1.3820(8) 0.3834(6) -0.4256(5)
H56_2 H 1.3770 0.3741 -0.4771
C81_2 C 1.4716(8) 0.4115(5) -0.3806(5)
H57_2 H 1.5288 0.4280 -0.3994
C82_2 C 1.4811(7) 0.4167(5) -0.3011(4)
H58_2 H 1.5443 0.4343 -0.2671
C83_2 C 1.2541(4) 0.5854(3) -0.1230(3)
C84_2 C 1.3258(4) 0.6591(3) -0.0645(3)
C85_2 C 1.4006(4) 0.6570(4) -0.0080(3)
H59_2 H 1.4097 0.6095 -0.0067
C86_2 C 1.4629(5) 0.7267(4) 0.0475(3)
H60_2 H 1.5153 0.7268 0.0848
C87_2 C 1.4452(5) 0.7957(4) 0.0458(4)
H61_2 H 1.4846 0.8416 0.0836
C88_2 C 1.3718(5) 0.7975(4) -0.0096(4)
H62_2 H 1.3617 0.8447 -0.0099
C89_2 C 1.3119(5) 0.7304(4) -0.0657(3)
H63_2 H 1.2624 0.7324 -0.1043
C90A C 0.6861(4) -0.0827(3) 0.0356(2)
C91A C 0.6382(4) -0.1094(3) -0.0479(2)
C92_2 C 0.0010(4) 0.0355(3) -0.3016(2)
C93_2 C 1.1130(4) 0.4575(3) -0.0611(3)
O30 O 0.0227(3) 0.1219(3) 0.1860(2)
H64 H 0.0695 0.1202 0.2170
H65 H 0.0028 0.0908 0.1453
O31 O 0.3778(4) 0.6625(3) 0.1885(3)
H66 H 0.3415 0.6295 0.2101
H67 H 0.4178 0.6460 0.1774
loop_
_geom_bond_atom_site_label_1
_geom_bond_atom_site_label_2
_geom_bond_site_symmetry_1
_geom_bond_site_symmetry_2
Cu1 O1 1_555 1_555
Cu2 O7 1_555 1_555
Cu3 O4 1_555 1_555
Cu4 O2 1_555 1_555
Cu5 O5 1_555 1_555
O1 C48 1_555 1_555
O2 C48 1_555 1_555
O3 Cu4 1_555 1_555
H1 O3 1_555 1_555
H2 O3 1_555 1_555
O4 H3 1_555 1_555
H4 O4 1_555 1_555
O5 H5 1_555 1_555
H6 O5 1_555 1_555
O6 Cu1 1_555 1_555
O7 C28 1_555 1_555
O8 C90 1_555 1_555
O9 Cu3 1_555 1_555
O10 C92 1_555 1_555
O11 C92 1_555 1_555
O12 Cu2 1_555 1_555
O13 Cu1 1_555 1_555
O14 Cu3 1_555 1_555
O15 C69 1_555 1_555
O16 C93 1_555 1_555
O17 C93 1_555 1_555
O18 Cu1 1_555 1_555
H7 O18 1_555 1_555
O19 Cu2 1_555 1_555
H8 O19 1_555 1_555
O20 C55 1_555 1_555
O21 C62 1_555 1_555
O22 Cu5 1_555 1_555
O23 C27 1_555 1_555
O24 C20 1_555 1_555
O25 C13 1_555 1_555
O26 C76 1_555 1_555
O27 C83 1_555 1_555
O28 C34 1_555 1_555
O29 C41 1_555 1_555
N1 Cu1 1_555 1_555
N2 C1 1_555 1_555
C1 N1 1_555 1_555
H9 C1 1_555 1_555
C2 N2 1_555 1_555
H10 C2 1_555 1_555
C3 N1 1_555 1_555
H11 C3 1_555 1_555
C4 N2 1_555 1_555
H12 C4 1_555 1_555
H13 C4 1_555 1_555
C5 C4 1_555 1_555
H14 C5 1_555 1_555
H15 C5 1_555 1_555
C6 O12 1_555 1_555
C7 C6 1_555 1_555
C8 C7 1_555 1_555
H16 C8 1_555 1_555
C9 C8 1_555 1_555
C10 C9 1_555 1_555
C11 C10 1_555 1_555
H17 C11 1_555 1_555
C12 C7 1_555 1_555
C13 C12 1_555 1_555
C14 C13 1_555 1_555
C15 C14 1_555 1_555
H18 C15 1_555 1_555
C16 C15 1_555 1_555
H19 C16 1_555 1_555
C17 C16 1_555 1_555
H20 C17 1_555 1_555
C18 C17 1_555 1_555
H21 C18 1_555 1_555
C19 C14 1_555 1_555
H22 C19 1_555 1_555
C20 C10 1_555 1_555
C21 C20 1_555 1_555
C22 C21 1_555 1_555
H23 C22 1_555 1_555
C23 C22 1_555 1_555
H24 C23 1_555 1_555
C24 C23 1_555 1_555
H25 C24 1_555 1_555
C25 C24 1_555 1_555
H26 C25 1_555 1_555
C26 C21 1_555 1_555
H27 C26 1_555 1_555
C27 O22 1_555 1_555
C28 O6 1_555 1_555
C29 C28 1_555 1_555
C30 C29 1_555 1_555
H28 C30 1_555 1_555
C31 C29 1_555 1_555
C32 C31 1_555 1_555
H29 C32 1_555 1_555
C33 C32 1_555 1_555
C34 C33 1_555 1_555
C35 C34 1_555 1_555
C36 C35 1_555 1_555
H30 C36 1_555 1_555
C37 C36 1_555 1_555
H31 C37 1_555 1_555
C38 C37 1_555 1_555
H32 C38 1_555 1_555
C39 C38 1_555 1_555
H33 C39 1_555 1_555
C40 C35 1_555 1_555
H34 C40 1_555 1_555
C41 C31 1_555 1_555
C42 C41 1_555 1_555
C43 C42 1_555 1_555
H35 C43 1_555 1_555
C44 C43 1_555 1_555
H36 C44 1_555 1_555
C45 C44 1_555 1_555
H37 C45 1_555 1_555
C46 C45 1_555 1_555
H38 C46 1_555 1_555
C47 C42 1_555 1_555
H39 C47 1_555 1_555
C48 C49 1_555 1_555
C49 C50 1_555 1_555
C50 H40 1_555 1_555
C51 C50 1_555 1_555
C52 C51 1_555 1_555
C53 C52 1_555 1_555
H41 C53 1_555 1_555
C54 C49 1_555 1_555
C55 C54 1_555 1_555
C56 C55 1_555 1_555
C57 C56 1_555 1_555
H42 C57 1_555 1_555
C58 C57 1_555 1_555
H43 C58 1_555 1_555
C59 C58 1_555 1_555
H44 C59 1_555 1_555
C60 C59 1_555 1_555
H45 C60 1_555 1_555
C61 C56 1_555 1_555
H46 C61 1_555 1_555
C62 C52 1_555 1_555
C63 C62 1_555 1_555
C64 C63 1_555 1_555
H47 C64 1_555 1_555
C65 C64 1_555 1_555
H48 C65 1_555 1_555
C66 C65 1_555 1_555
H49 C66 1_555 1_555
C67 C66 1_555 1_555
H50 C67 1_555 1_555
C68 C63 1_555 1_555
H51 C68 1_555 1_555
C69 O14 1_555 1_555
C70 C69 1_555 1_555
C71 C70 1_555 1_555
H52 C71 1_555 1_555
C72 C71 1_555 1_555
C73 C72 1_555 1_555
C74 C73 1_555 1_555
H53 C74 1_555 1_555
C75 C70 1_555 1_555
C76 C75 1_555 1_555
C77 C76 1_555 1_555
C78 C77 1_555 1_555
H54 C78 1_555 1_555
C79 C78 1_555 1_555
H55 C79 1_555 1_555
C80 C79 1_555 1_555
H56 C80 1_555 1_555
C81 C80 1_555 1_555
H57 C81 1_555 1_555
C82 C77 1_555 1_555
H58 C82 1_555 1_555
C83 C73 1_555 1_555
C84 C83 1_555 1_555
C85 C84 1_555 1_555
H59 C85 1_555 1_555
C86 C85 1_555 1_555
H60 C86 1_555 1_555
C87 C86 1_555 1_555
H61 C87 1_555 1_555
C88 C87 1_555 1_555
H62 C88 1_555 1_555
C89 C84 1_555 1_555
H63 C89 1_555 1_555
C90 O9 1_555 1_555
C91 C30 1_555 1_555
C92 C51 1_555 1_555
C93 C72 1_555 1_555
O30 H64 1_555 1_555
H65 O30 1_555 1_555
O31 H66 1_555 1_555
H67 O31 1_555 1_555
Cu1A O1A 1_555 1_555
Cu1A_2 O6A 1_555 1_555
Cu1_2 O1_2 1_555 1_555
Cu1A_3 O13A 1_555 1_555
Cu2A O8 1_555 1_555
Cu2A_2 O12A 1_555 1_555
Cu2A_3 O18A 1_555 1_555
Cu3_2 O10 1_555 1_555
Cu3A O19 1_555 1_555
Cu3_3 O14_2 1_555 1_555
Cu4A O11 1_555 1_555
Cu4_2 O2_2 1_555 1_555
Cu4A_2 O11_2 1_555 1_555
Cu4A_3 O18A 1_555 1_555
Cu5A O23 1_555 1_555
Cu5_2 O16 1_555 1_555
Cu5A_2 O17 1_555 1_555
O1_2 C48_2 1_555 1_555
O2_2 C48_2 1_555 1_555
O2A Cu4A 1_555 1_555
O3A Cu4A 1_555 1_555
H1A O3A 1_555 1_555
H2A O3A 1_555 1_555
O4_2 Cu3_2 1_555 1_555
H3_2 O4_2 1_555 1_555
H4_2 O4_2 1_555 1_555
O5A Cu5A 1_555 1_555
H5A O5A 1_555 1_555
H6A O5A 1_555 1_555
O6A C28A 1_555 1_555
O6A_2 Cu1A 1_555 1_555
O7A Cu2A 1_555 1_555
O8A Cu2 1_555 1_555
O9A Cu3A 1_555 1_555
O9_2 Cu3_2 1_555 1_555
O10_2 Cu3 1_555 1_555
O11_2 C92_2 1_555 1_555
O11A Cu4 1_555 1_555
O12A C6A 1_555 1_555
O12A_2 Cu2A 1_555 1_555
O13A C6A 1_555 1_555
O13A_2 Cu1A 1_555 1_555
O14_2 C69_2 1_555 1_555
O14_3 Cu3_2 1_555 1_555
O15_2 C69_2 1_555 1_555
O16_2 Cu5 1_555 1_555
O16A Cu5A 1_555 1_555
O17_2 Cu5A 1_555 1_555
O17A Cu5 1_555 1_555
O18A Cu1A 1_555 1_555
O18A_2 Cu1A_2 1_555 1_555
O18A_3 Cu4A 1_555 1_555
H7A O18A 1_555 1_555
H7A_2 O18A_2 1_555 1_555
H7A_3 O18A_3 1_555 1_555
O19A Cu3 1_555 1_555
O19A_2 Cu3_2 1_555 1_555
H8A O19A 1_555 1_555
H8A_2 O19A_2 1_555 1_555
O20_2 C55_2 1_555 1_555
O21_2 C62_2 1_555 1_555
O22A Cu5A 1_555 1_555
O23A Cu5 1_555 1_555
O24A C20A 1_555 1_555
O25A C13A 1_555 1_555
O26_2 C76_2 1_555 1_555
O27_2 C83_2 1_555 1_555
O28A C34A 1_555 1_555
O29A C41A 1_555 1_555
N1A Cu1A 1_555 1_555
N2A C1A 1_555 1_555
C1A N1A 1_555 1_555
H9A C1A 1_555 1_555
C2A N2A 1_555 1_555
H10A C2A 1_555 1_555
C3A N1A 1_555 1_555
H11A C3A 1_555 1_555
C4A N2A 1_555 1_555
H12A C4A 1_555 1_555
H13A C4A 1_555 1_555
C5A C5 1_555 1_555
H14A C5A 1_555 1_555
H15A C5A 1_555 1_555
C6A C7A 1_555 1_555
C7A C8A 1_555 1_555
C8A H16A 1_555 1_555
C9A C8A 1_555 1_555
C10A C9A 1_555 1_555
C11A C10A 1_555 1_555
H17A C11A 1_555 1_555
C12A C7A 1_555 1_555
C13A C12A 1_555 1_555
C14A C13A 1_555 1_555
C15A C14A 1_555 1_555
H18A C15A 1_555 1_555
C16A C15A 1_555 1_555
H19A C16A 1_555 1_555
C17A C16A 1_555 1_555
H20A C17A 1_555 1_555
C18A C17A 1_555 1_555
H21A C18A 1_555 1_555
C19A C14A 1_555 1_555
H22A C19A 1_555 1_555
C20A C10A 1_555 1_555
C21A C20A 1_555 1_555
C22A C21A 1_555 1_555
H23A C22A 1_555 1_555
C23A C22A 1_555 1_555
H24A C23A 1_555 1_555
C24A C23A 1_555 1_555
H25A C24A 1_555 1_555
C25A C24A 1_555 1_555
H26A C25A 1_555 1_555
C26A C21A 1_555 1_555
H27A C26A 1_555 1_555
C27A O22A 1_555 1_555
C28A O7A 1_555 1_555
C29A C28A 1_555 1_555
C30A C29A 1_555 1_555
H28A C30A 1_555 1_555
C31A C29A 1_555 1_555
C32A C31A 1_555 1_555
H29A C32A 1_555 1_555
C33A C32A 1_555 1_555
C34A C33A 1_555 1_555
C35A C34A 1_555 1_555
C36A C35A 1_555 1_555
H30A C36A 1_555 1_555
C37A C36A 1_555 1_555
H31A C37A 1_555 1_555
C38A C37A 1_555 1_555
H32A C38A 1_555 1_555
C39A C38A 1_555 1_555
H33A C39A 1_555 1_555
C40A C35A 1_555 1_555
H34A C40A 1_555 1_555
C41A C31A 1_555 1_555
C42A C41A 1_555 1_555
C43A C42A 1_555 1_555
H35A C43A 1_555 1_555
C44A C43A 1_555 1_555
H36A C44A 1_555 1_555
C45A C44A 1_555 1_555
H37A C45A 1_555 1_555
C46A C45A 1_555 1_555
H38A C46A 1_555 1_555
C47A C42A 1_555 1_555
H39A C47A 1_555 1_555
C48_2 C49_2 1_555 1_555
C49_2 C50_2 1_555 1_555
C50_2 H40_2 1_555 1_555
C51_2 C50_2 1_555 1_555
C52_2 C51_2 1_555 1_555
C53_2 C52_2 1_555 1_555
H41_2 C53_2 1_555 1_555
C54_2 C49_2 1_555 1_555
C55_2 C54_2 1_555 1_555
C56_2 C55_2 1_555 1_555
C57_2 C56_2 1_555 1_555
H42_2 C57_2 1_555 1_555
C58_2 C57_2 1_555 1_555
H43_2 C58_2 1_555 1_555
C59_2 C58_2 1_555 1_555
H44_2 C59_2 1_555 1_555
C60_2 C59_2 1_555 1_555
H45_2 C60_2 1_555 1_555
C61_2 C56_2 1_555 1_555
H46_2 C61_2 1_555 1_555
C62_2 C52_2 1_555 1_555
C63_2 C62_2 1_555 1_555
C64_2 C63_2 1_555 1_555
H47_2 C64_2 1_555 1_555
C65_2 C64_2 1_555 1_555
H48_2 C65_2 1_555 1_555
C66_2 C65_2 1_555 1_555
H49_2 C66_2 1_555 1_555
C67_2 C66_2 1_555 1_555
H50_2 C67_2 1_555 1_555
C68_2 C63_2 1_555 1_555
H51_2 C68_2 1_555 1_555
C69_2 C70_2 1_555 1_555
C70_2 C71_2 1_555 1_555
C71_2 H52_2 1_555 1_555
C72_2 C71_2 1_555 1_555
C73_2 C72_2 1_555 1_555
C74_2 C73_2 1_555 1_555
H53_2 C74_2 1_555 1_555
C75_2 C70_2 1_555 1_555
C76_2 C75_2 1_555 1_555
C77_2 C76_2 1_555 1_555
C78_2 C77_2 1_555 1_555
H54_2 C78_2 1_555 1_555
C79_2 C78_2 1_555 1_555
H55_2 C79_2 1_555 1_555
C80_2 C79_2 1_555 1_555
H56_2 C80_2 1_555 1_555
C81_2 C80_2 1_555 1_555
H57_2 C81_2 1_555 1_555
C82_2 C77_2 1_555 1_555
H58_2 C82_2 1_555 1_555
C83_2 C73_2 1_555 1_555
C84_2 C83_2 1_555 1_555
C85_2 C84_2 1_555 1_555
H59_2 C85_2 1_555 1_555
C86_2 C85_2 1_555 1_555
H60_2 C86_2 1_555 1_555
C87_2 C86_2 1_555 1_555
H61_2 C87_2 1_555 1_555
C88_2 C87_2 1_555 1_555
H62_2 C88_2 1_555 1_555
C89_2 C84_2 1_555 1_555
H63_2 C89_2 1_555 1_555
C90A O8A 1_555 1_555
C91A C30A 1_555 1_555
C92_2 O10_2 1_555 1_555
C93_2 O16_2 1_555 1_555
Cu2 O18 1_555 1_555
Cu4 O18 1_555 1_555
Cu4 O19 1_555 1_555
O13 C6 1_555 1_555
C2 C3 1_555 1_555
C9 C27 1_555 1_555
C11 C12 1_555 1_555
C18 C19 1_555 1_555
C25 C26 1_555 1_555
C33 C91 1_555 1_555
C39 C40 1_555 1_555
C46 C47 1_555 1_555
C53 C54 1_555 1_555
C60 C61 1_555 1_555
C67 C68 1_555 1_555
C74 C75 1_555 1_555
C81 C82 1_555 1_555
C88 C89 1_555 1_555
C90 C91 1_555 1_555
Cu2A O18A_2 1_555 1_555
Cu2A O19A 1_555 1_555
Cu4A O19A_2 1_555 1_555
Cu4A_2 O18A_2 1_555 1_555
Cu4A_2 O19A 1_555 1_555
O9A C90A 1_555 1_555
O17_2 C93_2 1_555 1_555
O23A C27A 1_555 1_555
C2A C3A 1_555 1_555
C4A C5A 1_555 1_555
C9A C27A 1_555 1_555
C11A C12A 1_555 1_555
C18A C19A 1_555 1_555
C25A C26A 1_555 1_555
C33A C91A 1_555 1_555
C39A C40A 1_555 1_555
C46A C47A 1_555 1_555
C51_2 C92_2 1_555 1_555
C53_2 C54_2 1_555 1_555
C60_2 C61_2 1_555 1_555
C67_2 C68_2 1_555 1_555
C72_2 C93_2 1_555 1_555
C74_2 C75_2 1_555 1_555
C81_2 C82_2 1_555 1_555
C88_2 C89_2 1_555 1_555
C90A C91A 1_555 1_555

#END
