
#######################################################################
#
#                 Cambridge Crystallographic Data Centre
#                                CCDC 
#
#######################################################################
#
# If this CIF has been generated from an entry in the Cambridge 
# Structural Database, then it will include bibliographic, chemical, 
# crystal, experimental, refinement or atomic coordinate data resulting 
# from the CCDC's data processing and validation procedures.
#
#######################################################################

data_ETESOM
_symmetry_cell_setting           triclinic
_symmetry_space_group_name_H-M   'P -1'
_symmetry_Int_Tables_number      2
_space_group_name_Hall           '-P 1'
loop_
_symmetry_equiv_pos_site_id
_symmetry_equiv_pos_as_xyz
1 x,y,z
2 -x,-y,-z
_cell_length_a                   9.4824(19)
_cell_length_b                   9.5840(19)
_cell_length_c                   12.153(2)
_cell_angle_alpha                98.30(3)
_cell_angle_beta                 108.55(3)
_cell_angle_gamma                111.24(3)
_cell_volume                     932.88
loop_
_atom_site_label
_atom_site_type_symbol
_atom_site_fract_x
_atom_site_fract_y
_atom_site_fract_z
Zn1 Zn -0.04245(12) 0.57914(12) -0.18201(9)
Cl1 Cl 0.2283(3) 0.6609(3) -0.0848(2)
O1 O -0.3715(7) 0.3903(7) -0.3102(6)
O2 O -0.1458(7) 0.3558(7) -0.2711(6)
N1 N -0.1189(8) 0.6777(8) -0.0668(5)
N2 N -0.0776(8) 0.6710(8) 0.6730(6)
C1 C -0.1687(11) 0.7085(9) 0.4426(8)
C2 C -0.4022(9) 0.1481(9) -0.4158(7)
C3 C -0.3996(10) 0.2666(10) -0.5852(8)
H1 H -0.3371 0.3670 -0.5313
C4 C -0.4486(9) 0.1322(10) -0.5399(7)
C5 C -0.2034(11) 0.8283(10) 0.0978(7)
C6 C -0.2732(11) 0.6294(11) -0.0768(7)
H2 H -0.3550 0.5423 -0.1410
C7 C -0.3007(11) 0.3098(11) -0.3263(8)
C8 C -0.2107(11) 0.6932(10) 0.6235(8)
H3 H -0.2741 0.6950 0.6679
C9 C -0.4151(10) 0.0313(11) -0.2504(8)
H4 H -0.3552 0.1304 -0.1944
C10 C -0.0463(12) 0.8789(11) 0.1089(9)
H5 H 0.0366 0.9663 0.1724
C11 C -0.4540(9) 0.0169(10) -0.3747(7)
C12 C -0.2603(12) 0.7135(11) 0.5114(8)
H6 H -0.3540 0.7304 0.4811
C13 C -0.4628(10) -0.0954(11) -0.2107(7)
H7 H -0.4347 -0.0834 -0.1282
C14 C -0.0306(12) 0.6929(11) 0.4948(8)
H8 H 0.0372 0.6951 0.4534
C15 C -0.0070(12) 0.8017(11) 0.0264(9)
H9 H 0.1030 0.8386 0.0369
C16 C -0.4448(11) 0.2455(12) -0.7051(9)
H10 H -0.4141 0.3325 -0.7332
C17 C -0.3180(12) 0.7002(12) 0.0013(9)
H11 H -0.4286 0.6613 -0.0106
C18 C -0.1805(13) 0.8909(11) 0.3144(8)
H12 H -0.0613 0.9490 0.3472
H13 H -0.2205 0.9390 0.3658
C19 C -0.2535(14) 0.9019(12) 0.1871(8)
H14 H -0.3730 0.8517 0.1576
H15 H -0.2200 1.0115 0.1908
C20 C -0.2245(13) 0.7235(11) 0.3173(8)
H16 H -0.3435 0.6630 0.2766
H17 H -0.1750 0.6790 0.2724
C21 C 0.0132(11) 0.6733(10) 0.6099(8)
H18 H 0.1095 0.6615 0.6436
Zn1A Zn -0.95755(12) -0.57914(12) -0.81799(9)
Zn1_2 Zn -0.04245(12) 0.57914(12) 0.81799(9)
Zn1A_2 Zn -0.95755(12) -0.57914(12) -1.81799(9)
Cl1A Cl -1.2283(3) -0.6609(3) -0.9152(2)
O1A O -0.6285(7) -0.3903(7) -0.6898(6)
O2A O -0.8542(7) -0.3558(7) -0.7289(6)
N1A N -0.8811(8) -0.6777(8) -0.9332(5)
N2A N -0.9224(8) -0.6710(8) -1.6730(6)
N2_2 N -0.0776(8) 0.6710(8) -0.3270(6)
N2A_2 N -0.9224(8) -0.6710(8) -0.6730(6)
C1A C -0.8313(11) -0.7085(9) -1.4426(8)
C2A C -0.5978(9) -0.1481(9) -0.5842(7)
C3A C -0.6004(10) -0.2666(10) -0.4148(8)
H1A H -0.6629 -0.3670 -0.4687
C4A C -0.5514(9) -0.1322(10) -0.4601(7)
C5A C -0.7966(11) -0.8283(10) -1.0978(7)
C6A C -0.7268(11) -0.6294(11) -0.9232(7)
H2A H -0.6450 -0.5423 -0.8590
C7A C -0.6993(11) -0.3098(11) -0.6737(8)
C8A C -0.7893(11) -0.6932(10) -1.6235(8)
H3A H -0.7259 -0.6950 -1.6679
C9A C -0.5849(10) -0.0313(11) -0.7496(8)
H4A H -0.6448 -0.1304 -0.8056
C10A C -0.9537(12) -0.8789(11) -1.1089(9)
H5A H -1.0366 -0.9663 -1.1724
C11A C -0.5460(9) -0.0169(10) -0.6253(7)
C12A C -0.7397(12) -0.7135(11) -1.5114(8)
H6A H -0.6460 -0.7304 -1.4811
C13A C -0.5372(10) 0.0954(11) -0.7893(7)
H7A H -0.5653 0.0834 -0.8718
C14A C -0.9694(12) -0.6929(11) -1.4948(8)
H8A H -1.0372 -0.6951 -1.4534
C15A C -0.9930(12) -0.8017(11) -1.0264(9)
H9A H -1.1030 -0.8386 -1.0369
C16A C -0.5552(11) -0.2455(12) -0.2949(9)
H10A H -0.5859 -0.3325 -0.2668
C17A C -0.6820(12) -0.7002(12) -1.0013(9)
H11A H -0.5714 -0.6613 -0.9894
C18A C -0.8195(13) -0.8909(11) -1.3144(8)
H12A H -0.9387 -0.9490 -1.3472
H13A H -0.7795 -0.9390 -1.3658
C19A C -0.7465(14) -0.9019(12) -1.1871(8)
H14A H -0.6270 -0.8517 -1.1576
H15A H -0.7800 -1.0115 -1.1908
C20A C -0.7755(13) -0.7235(11) -1.3173(8)
H16A H -0.6565 -0.6630 -1.2766
H17A H -0.8250 -0.6790 -1.2724
C21A C -1.0132(11) -0.6733(10) -1.6099(8)
H18A H -1.1095 -0.6615 -1.6436
loop_
_geom_bond_atom_site_label_1
_geom_bond_atom_site_label_2
_geom_bond_site_symmetry_1
_geom_bond_site_symmetry_2
Zn1 Cl1 1_555 1_555
O1 C7 1_555 1_555
O2 Zn1 1_555 1_555
N1 Zn1 1_555 1_555
N2 C8 1_555 1_555
C1 C12 1_555 1_555
C2 C4 1_555 1_555
C3 H1 1_555 1_555
C4 C3 1_555 1_555
C5 C10 1_555 1_555
C6 N1 1_555 1_555
H2 C6 1_555 1_555
C7 O2 1_555 1_555
C8 H3 1_555 1_555
C9 H4 1_555 1_555
C10 H5 1_555 1_555
C11 C2 1_555 1_555
C12 C8 1_555 1_555
H6 C12 1_555 1_555
C13 C9 1_555 1_555
H7 C13 1_555 1_555
C14 C1 1_555 1_555
H8 C14 1_555 1_555
C15 N1 1_555 1_555
H9 C15 1_555 1_555
C16 C3 1_555 1_555
H10 C16 1_555 1_555
C17 C5 1_555 1_555
H11 C17 1_555 1_555
C18 H12 1_555 1_555
H13 C18 1_555 1_555
C19 C5 1_555 1_555
H14 C19 1_555 1_555
H15 C19 1_555 1_555
C20 C1 1_555 1_555
H16 C20 1_555 1_555
H17 C20 1_555 1_555
C21 N2 1_555 1_555
H18 C21 1_555 1_555
Zn1A Cl1A 1_555 1_555
Zn1_2 N2 1_555 1_555
Zn1A_2 N2A 1_555 1_555
O1A C7A 1_555 1_555
O2A Zn1A 1_555 1_555
N1A Zn1A 1_555 1_555
N2A C8A 1_555 1_555
N2_2 Zn1 1_555 1_555
N2A_2 Zn1A 1_555 1_555
C1A C12A 1_555 1_555
C2A C4A 1_555 1_555
C3A H1A 1_555 1_555
C4A C11 1_555 1_555
C5A C10A 1_555 1_555
C6A N1A 1_555 1_555
H2A C6A 1_555 1_555
C7A O2A 1_555 1_555
C8A H3A 1_555 1_555
C9A H4A 1_555 1_555
C10A H5A 1_555 1_555
C11A C4 1_555 1_555
C12A C8A 1_555 1_555
H6A C12A 1_555 1_555
C13A C16 1_555 1_555
H7A C13A 1_555 1_555
C14A C1A 1_555 1_555
H8A C14A 1_555 1_555
C15A N1A 1_555 1_555
H9A C15A 1_555 1_555
C16A C13 1_555 1_555
H10A C16A 1_555 1_555
C17A C5A 1_555 1_555
H11A C17A 1_555 1_555
C18A H12A 1_555 1_555
H13A C18A 1_555 1_555
C19A C5A 1_555 1_555
H14A C19A 1_555 1_555
H15A C19A 1_555 1_555
C20A C1A 1_555 1_555
H16A C20A 1_555 1_555
H17A C20A 1_555 1_555
C21A N2A 1_555 1_555
H18A C21A 1_555 1_555
C2 C7 1_555 1_555
C6 C17 1_555 1_555
C9 C11 1_555 1_555
C10 C15 1_555 1_555
C14 C21 1_555 1_555
C18 C19 1_555 1_555
C18 C20 1_555 1_555
C2A C7A 1_555 1_555
C2A C11A 1_555 1_555
C3A C4A 1_555 1_555
C3A C16A 1_555 1_555
C6A C17A 1_555 1_555
C9A C11A 1_555 1_555
C9A C13A 1_555 1_555
C10A C15A 1_555 1_555
C14A C21A 1_555 1_555
C18A C19A 1_555 1_555
C18A C20A 1_555 1_555

#END
