
#######################################################################
#
#                 Cambridge Crystallographic Data Centre
#                                CCDC 
#
#######################################################################
#
# If this CIF has been generated from an entry in the Cambridge 
# Structural Database, then it will include bibliographic, chemical, 
# crystal, experimental, refinement or atomic coordinate data resulting 
# from the CCDC's data processing and validation procedures.
#
#######################################################################

data_ETESUS
_symmetry_cell_setting           triclinic
_symmetry_space_group_name_H-M   'P -1'
_symmetry_Int_Tables_number      2
_space_group_name_Hall           '-P 1'
loop_
_symmetry_equiv_pos_site_id
_symmetry_equiv_pos_as_xyz
1 x,y,z
2 -x,-y,-z
_cell_length_a                   7.2223(14)
_cell_length_b                   8.2583(17)
_cell_length_c                   11.575(2)
_cell_angle_alpha                104.61(3)
_cell_angle_beta                 101.05(3)
_cell_angle_gamma                99.64(3)
_cell_volume                     638.519
loop_
_atom_site_label
_atom_site_type_symbol
_atom_site_fract_x
_atom_site_fract_y
_atom_site_fract_z
Cd1 Cd 0.0000 0.0000 1.0000
Cd2 Cd 0.5000 0.0000 1.0000
Cl1 Cl 0.17674(10) -0.21810(10) 0.89479(8)
Cl2 Cl 0.32828(10) 0.12816(10) 1.17193(7)
O1 O 0.0897(3) 0.1782(3) 0.88470(19)
O2 O 0.4020(3) 0.1854(3) 0.8889(2)
C1 C 0.2368(4) 0.2021(4) 0.8429(3)
C2 C 0.2106(4) 0.2519(4) 0.7257(3)
C3 C 0.2832(4) 0.4143(4) 0.7247(3)
H3 H 0.3524 0.4995 0.8008
C4 C 0.2567(5) 0.4604(4) 0.6134(3)
H4 H 0.3091 0.5759 0.6147
C5 C 0.1583(5) 0.3416(4) 0.5057(3)
H5 H 0.1434 0.3735 0.4309
C6 C 0.0783(4) 0.1691(4) 0.5014(3)
C7 C 0.1052(4) 0.1219(4) 0.6126(3)
C8 C -0.0272(4) 0.0467(4) 0.3911(3)
H6 H -0.0460 0.0779 0.3186
Cd1_2 Cd 0.0000 0.0000 0.0000
Cd2_2 Cd -0.5000 0.0000 0.0000
Cd2_3 Cd -0.5000 0.0000 1.0000
Cl1A Cl -0.17674(10) 0.21810(10) 1.10521(8)
Cl1A_2 Cl 0.82326(10) 0.21810(10) 1.10521(8)
Cl2A Cl -0.32828(10) -0.12816(10) 0.82807(7)
Cl2A_2 Cl 0.67172(10) -0.12816(10) 0.82807(7)
O1A O -0.0897(3) -0.1782(3) 0.11530(19)
O1A_2 O -0.0897(3) -0.1782(3) 1.11530(19)
O2A O -0.4020(3) -0.1854(3) 0.1111(2)
O2A_2 O 0.5980(3) -0.1854(3) 1.1111(2)
C1A C -0.2368(4) -0.2021(4) 0.1571(3)
C2A C -0.2106(4) -0.2519(4) 0.2743(3)
C3A C -0.2832(4) -0.4143(4) 0.2753(3)
H3A H -0.3524 -0.4995 0.1992
C4A C -0.2567(5) -0.4604(4) 0.3866(3)
H4A H -0.3091 -0.5759 0.3853
C5A C -0.1583(5) -0.3416(4) 0.4943(3)
H5A H -0.1434 -0.3735 0.5691
C6A C -0.0783(4) -0.1691(4) 0.4986(3)
C7A C -0.1052(4) -0.1219(4) 0.3874(3)
C8A C 0.0272(4) -0.0467(4) 0.6089(3)
H6A H 0.0460 -0.0779 0.6814
N1 N 0.7197(4) 0.2573(4) 0.7840(3)
H1 H 0.6205 0.2292 0.8172
H2 H 0.8136 0.2065 0.8104
C9 C 0.6525(7) 0.1874(8) 0.6487(4)
H7 H 0.5371 0.2240 0.6208
H8 H 0.6253 0.0642 0.6258
H9 H 0.7516 0.2286 0.6116
C10 C 0.7934(6) 0.4418(5) 0.8290(6)
H10 H 0.9155 0.4711 0.8093
H11 H 0.8107 0.4794 0.9167
H12 H 0.7029 0.4971 0.7909
loop_
_geom_bond_atom_site_label_1
_geom_bond_atom_site_label_2
_geom_bond_site_symmetry_1
_geom_bond_site_symmetry_2
Cd1 Cl1 1_555 1_555
Cd2 Cl1 1_555 1_555
Cl2 Cd1 1_555 1_555
O1 Cd1 1_555 1_555
O2 Cd2 1_555 1_555
N1 H1 1_555 1_555
H2 N1 1_555 1_555
C1 O1 1_555 1_555
C2 C1 1_555 1_555
C3 C2 1_555 1_555
H3 C3 1_555 1_555
C4 C3 1_555 1_555
H4 C4 1_555 1_555
C5 C4 1_555 1_555
H5 C5 1_555 1_555
C6 C5 1_555 1_555
C7 C2 1_555 1_555
C8 C6 1_555 1_555
H6 C8 1_555 1_555
C9 N1 1_555 1_555
H7 C9 1_555 1_555
H8 C9 1_555 1_555
H9 C9 1_555 1_555
C10 N1 1_555 1_555
H10 C10 1_555 1_555
H11 C10 1_555 1_555
H12 C10 1_555 1_555
Cd1_2 O1A 1_555 1_555
Cd2_2 O2A 1_555 1_555
Cd2_3 Cl1A 1_555 1_555
Cl1A Cd1 1_555 1_555
Cl1A_2 Cd2 1_555 1_555
Cl2A Cd1 1_555 1_555
Cl2A_2 Cd2 1_555 1_555
O1A C1A 1_555 1_555
O1A_2 Cd1 1_555 1_555
O2A C1A 1_555 1_555
O2A_2 Cd2 1_555 1_555
C1A C2A 1_555 1_555
C2A C3A 1_555 1_555
C3A H3A 1_555 1_555
C4A C3A 1_555 1_555
H4A C4A 1_555 1_555
C5A C4A 1_555 1_555
H5A C5A 1_555 1_555
C6A C5A 1_555 1_555
C7A C8 1_555 1_555
C8A C7 1_555 1_555
H6A C8A 1_555 1_555
Cd2 Cl2 1_555 1_555
O2 C1 1_555 1_555
C6 C7 1_555 1_555
Cd2_3 Cl2A 1_555 1_555
C2A C7A 1_555 1_555
C6A C7A 1_555 1_555
C6A C8A 1_555 1_555

#END
