
#######################################################################
#
#                 Cambridge Crystallographic Data Centre
#                                CCDC 
#
#######################################################################
#
# If this CIF has been generated from an entry in the Cambridge 
# Structural Database, then it will include bibliographic, chemical, 
# crystal, experimental, refinement or atomic coordinate data resulting 
# from the CCDC's data processing and validation procedures.
#
#######################################################################

data_ETETED
_symmetry_cell_setting           orthorhombic
_symmetry_space_group_name_H-M   'P b c a'
_symmetry_Int_Tables_number      61
_space_group_name_Hall           '-P 2ac 2ab'
loop_
_symmetry_equiv_pos_site_id
_symmetry_equiv_pos_as_xyz
1 x,y,z
2 1/2-x,-y,1/2+z
3 -x,1/2+y,1/2-z
4 1/2+x,1/2-y,-z
5 -x,-y,-z
6 1/2+x,y,1/2-z
7 x,1/2-y,1/2+z
8 1/2-x,1/2+y,z
_cell_length_a                   18.327(4)
_cell_length_b                   11.613(2)
_cell_length_c                   22.078(4)
_cell_angle_alpha                90
_cell_angle_beta                 90
_cell_angle_gamma                90
_cell_volume                     4698.89
loop_
_atom_site_label
_atom_site_type_symbol
_atom_site_fract_x
_atom_site_fract_y
_atom_site_fract_z
Zn1 Zn 0.01149(3) 1.08419(4) 1.16931(2)
O1 O 0.0881(2) 1.2036(4) 1.15722(17)
O2 O 0.0765(2) 1.1405(4) 1.06594(19)
O3 O 0.3899(3) 1.3601(6) 0.7830(3)
O4 O 0.4217(2) 1.3645(4) 0.8745(2)
N1 N 0.0380(2) 0.4466(3) 0.75815(17)
N2 N 0.02615(19) 0.9194(3) 1.13557(16)
C1 C 0.1072(2) 1.2026(4) 1.1035(2)
C2 C 0.1687(2) 1.2819(4) 1.0850(2)
C3 C 0.1935(3) 1.3588(5) 1.1263(3)
H1 H 0.1712 1.3621 1.1641
C4 C 0.2525(3) 1.4344(4) 1.1136(3)
H2 H 0.2681 1.4867 1.1428
C5 C 0.2856(3) 1.4306(4) 1.0596(3)
H3 H 0.3243 1.4803 1.0518
C6 C 0.2629(2) 1.3523(4) 1.0141(2)
C7 C 0.2983(2) 1.3485(4) 0.9583(2)
H4 H 0.3373 1.3981 0.9517
C8 C 0.2780(2) 1.2741(4) 0.9120(2)
C9 C 0.3110(2) 1.2687(4) 0.8526(2)
C10 C 0.2829(3) 1.1973(5) 0.8095(3)
H5 H 0.3039 1.1966 0.7712
C11 C 0.2234(3) 1.1250(5) 0.8214(3)
H6 H 0.2056 1.0764 0.7913
C12 C 0.1918(3) 1.1261(4) 0.8767(3)
H7 H 0.1527 1.0772 0.8844
C13 C 0.2171(2) 1.2004(4) 0.9234(2)
C14 C 0.1820(2) 1.2036(4) 0.9791(2)
H8 H 0.1426 1.1546 0.9854
C15 C 0.2030(2) 1.2766(4) 1.0261(2)
C16 C 0.3782(3) 1.3357(5) 0.8348(3)
C17 C 0.0633(3) 0.8349(4) 1.1623(2)
H9 H 0.0747 0.8431 1.2031
C18 C 0.0859(3) 0.7364(4) 1.1335(2)
H10 H 0.1110 0.6795 1.1545
C19 C 0.0707(2) 0.7236(4) 1.07265(19)
C20 C 0.0303(2) 0.8077(4) 1.0456(2)
H11 H 0.0166 0.8001 1.0052
C21 C 0.0100(2) 0.9034(4) 1.0776(2)
H12 H -0.0165 0.9602 1.0577
C22 C 0.1000(3) 0.6213(4) 1.0379(2)
H13 H 0.1527 0.6281 1.0356
H14 H 0.0891 0.5519 1.0607
C23 C 0.0705(2) 0.6073(4) 0.9746(2)
H15 H 0.0784 0.6779 0.9521
H16 H 0.0183 0.5938 0.9765
C24 C 0.1066(3) 0.5081(4) 0.9413(2)
H17 H 0.0981 0.4380 0.9641
H18 H 0.1588 0.5215 0.9406
C25 C 0.0809(2) 0.4888(3) 0.87653(19)
C26 C 0.0236(3) 0.5457(4) 0.8510(2)
H19 H -0.0019 0.6009 0.8730
C27 C 0.0039(3) 0.5206(5) 0.7922(2)
H20 H -0.0362 0.5587 0.7759
C28 C 0.0948(3) 0.3926(5) 0.7831(2)
H21 H 0.1205 0.3396 0.7598
C29 C 0.1168(3) 0.4112(5) 0.8408(2)
H22 H 0.1565 0.3710 0.8562
Zn1C Zn 0.51149(3) 1.41581(4) 0.83069(2)
Zn1F Zn 0.01149(3) 0.41581(4) 0.66931(2)
O3C O -0.1101(3) 1.1399(6) 1.2170(3)
O4C O -0.0783(2) 1.1355(4) 1.1255(2)
N1F N 0.0380(2) 1.0534(3) 1.25815(17)
loop_
_geom_bond_atom_site_label_1
_geom_bond_atom_site_label_2
_geom_bond_site_symmetry_1
_geom_bond_site_symmetry_2
Zn1 O1 1_555 1_555
O1 C1 1_555 1_555
O2 C1 1_555 1_555
O3 C16 1_555 1_555
O4 C16 1_555 1_555
N1 C27 1_555 1_555
N2 Zn1 1_555 1_555
C1 C2 1_555 1_555
C2 C3 1_555 1_555
C3 H1 1_555 1_555
C4 C3 1_555 1_555
H2 C4 1_555 1_555
C5 C4 1_555 1_555
H3 C5 1_555 1_555
C6 C5 1_555 1_555
C7 C6 1_555 1_555
H4 C7 1_555 1_555
C8 C7 1_555 1_555
C9 C8 1_555 1_555
C10 C9 1_555 1_555
H5 C10 1_555 1_555
C11 C10 1_555 1_555
H6 C11 1_555 1_555
C12 C11 1_555 1_555
H7 C12 1_555 1_555
C13 C8 1_555 1_555
C14 C13 1_555 1_555
H8 C14 1_555 1_555
C15 C2 1_555 1_555
C16 C9 1_555 1_555
C17 N2 1_555 1_555
H9 C17 1_555 1_555
C18 C17 1_555 1_555
H10 C18 1_555 1_555
C19 C18 1_555 1_555
C20 C19 1_555 1_555
H11 C20 1_555 1_555
C21 N2 1_555 1_555
H12 C21 1_555 1_555
C22 C19 1_555 1_555
H13 C22 1_555 1_555
H14 C22 1_555 1_555
C23 C22 1_555 1_555
H15 C23 1_555 1_555
H16 C23 1_555 1_555
C24 C23 1_555 1_555
H17 C24 1_555 1_555
H18 C24 1_555 1_555
C25 C24 1_555 1_555
C26 C25 1_555 1_555
H19 C26 1_555 1_555
C27 C26 1_555 1_555
H20 C27 1_555 1_555
C28 N1 1_555 1_555
H21 C28 1_555 1_555
C29 C25 1_555 1_555
H22 C29 1_555 1_555
Zn1C O3 1_555 1_555
Zn1F N1 1_555 1_555
O3C Zn1 1_555 1_555
O4C Zn1 1_555 1_555
N1F Zn1 1_555 1_555
O4 Zn1C 1_555 1_555
C6 C15 1_555 1_555
C12 C13 1_555 1_555
C14 C15 1_555 1_555
C20 C21 1_555 1_555
C28 C29 1_555 1_555

#END
