
#######################################################################
#
#                 Cambridge Crystallographic Data Centre
#                                CCDC 
#
#######################################################################
#
# If this CIF has been generated from an entry in the Cambridge 
# Structural Database, then it will include bibliographic, chemical, 
# crystal, experimental, refinement or atomic coordinate data resulting 
# from the CCDC's data processing and validation procedures.
#
#######################################################################

data_ETETAZ
_symmetry_cell_setting           orthorhombic
_symmetry_space_group_name_H-M   'P b c a'
_symmetry_Int_Tables_number      61
_space_group_name_Hall           '-P 2ac 2ab'
loop_
_symmetry_equiv_pos_site_id
_symmetry_equiv_pos_as_xyz
1 x,y,z
2 1/2-x,-y,1/2+z
3 -x,1/2+y,1/2-z
4 1/2+x,1/2-y,-z
5 -x,-y,-z
6 1/2+x,y,1/2-z
7 x,1/2-y,1/2+z
8 1/2-x,1/2+y,z
_cell_length_a                   19.008(4)
_cell_length_b                   12.186(2)
_cell_length_c                   22.350(5)
_cell_angle_alpha                90
_cell_angle_beta                 90
_cell_angle_gamma                90
_cell_volume                     5176.96
loop_
_atom_site_label
_atom_site_type_symbol
_atom_site_fract_x
_atom_site_fract_y
_atom_site_fract_z
Cd1 Cd 1.00687(2) 1.10160(4) 0.67601(2)
O1 O 0.9146(3) 1.1346(4) 0.6083(2)
O2 O 0.8949(3) 1.1774(6) 0.7023(2)
O3 O 0.5842(3) 1.2482(4) 0.3232(3)
O4 O 0.5879(3) 1.3466(5) 0.4034(3)
N1 N 1.0387(3) 0.4368(4) 0.2731(2)
N2 N 1.0237(3) 0.9218(4) 0.6418(2)
C1 C 0.8763(4) 1.1783(6) 0.6489(4)
C2 C 0.8084(3) 1.2380(6) 0.6296(3)
C3 C 0.7803(4) 1.3118(6) 0.6699(4)
H1 H 0.8008 1.3179 0.7076
C4 C 0.7204(4) 1.3798(6) 0.6557(4)
H2 H 0.7032 1.4299 0.6834
C5 C 0.6891(4) 1.3693(6) 0.6007(4)
H3 H 0.6501 1.4125 0.5918
C6 C 0.7146(3) 1.2941(5) 0.5566(3)
C7 C 0.6806(3) 1.2839(5) 0.4998(3)
H4 H 0.6420 1.3284 0.4917
C8 C 0.7032(3) 1.2094(5) 0.4557(3)
C9 C 0.6712(3) 1.1972(6) 0.3962(3)
C10 C 0.6965(4) 1.1186(6) 0.3575(4)
H5 H 0.6757 1.1119 0.3200
C11 C 0.7532(4) 1.0470(6) 0.3726(4)
H6 H 0.7683 0.9939 0.3457
C12 C 0.7853(4) 1.0575(6) 0.4276(4)
H7 H 0.8228 1.0117 0.4371
C13 C 0.7623(3) 1.1374(5) 0.4707(3)
C14 C 0.7961(3) 1.1481(5) 0.5267(3)
H8 H 0.8342 1.1025 0.5349
C15 C 0.7752(3) 1.2244(5) 0.5708(3)
C16 C 0.6108(4) 1.2695(6) 0.3733(4)
C17 C 1.0121(3) 0.9055(6) 0.5831(3)
H9 H 0.9875 0.9590 0.5620
C18 C 1.0349(4) 0.8130(6) 0.5521(3)
H10 H 1.0244 0.8053 0.5116
C19 C 1.0738(3) 0.7312(5) 0.5815(3)
C20 C 1.0849(4) 0.7466(5) 0.6429(3)
H11 H 1.1094 0.6943 0.6650
C21 C 1.0590(4) 0.8407(6) 0.6707(3)
H12 H 1.0665 0.8484 0.7116
C22 C 1.1051(4) 0.6325(5) 0.5485(3)
H13 H 1.0979 0.5676 0.5728
H14 H 1.1555 0.6436 0.5449
C23 C 1.0753(3) 0.6098(5) 0.4856(3)
H15 H 1.0255 0.5940 0.4890
H16 H 1.0804 0.6754 0.4614
C24 C 1.1117(3) 0.5139(5) 0.4538(3)
H17 H 1.1616 0.5300 0.4512
H18 H 1.1065 0.4488 0.4784
C25 C 1.0847(3) 0.4883(5) 0.3916(3)
C26 C 1.0286(4) 0.5426(5) 0.3642(3)
H19 H 1.0052 0.5979 0.3847
C27 C 1.0072(3) 0.5147(6) 0.3061(3)
H20 H 0.9692 0.5521 0.2895
C28 C 1.0939(4) 0.3849(6) 0.2990(3)
H21 H 1.1173 0.3310 0.2774
C29 C 1.1173(4) 0.4090(6) 0.3572(3)
H22 H 1.1554 0.3707 0.3728
Cd1C Cd 0.50687(2) 1.39840(4) 0.32399(2)
Cd1F Cd 1.00687(2) 0.39840(4) 0.17601(2)
O3C O 1.0842(3) 1.2518(4) 0.6768(3)
O4C O 1.0879(3) 1.1534(5) 0.5966(3)
N1F N 1.0387(3) 1.0632(4) 0.7731(2)
loop_
_geom_bond_atom_site_label_1
_geom_bond_atom_site_label_2
_geom_bond_site_symmetry_1
_geom_bond_site_symmetry_2
Cd1 O1 1_555 1_555
O1 C1 1_555 1_555
O2 Cd1 1_555 1_555
O3 C16 1_555 1_555
O4 C16 1_555 1_555
N1 C27 1_555 1_555
N2 Cd1 1_555 1_555
C1 O2 1_555 1_555
C2 C1 1_555 1_555
C3 C2 1_555 1_555
H1 C3 1_555 1_555
C4 C3 1_555 1_555
H2 C4 1_555 1_555
C5 C4 1_555 1_555
H3 C5 1_555 1_555
C6 C5 1_555 1_555
C7 C6 1_555 1_555
H4 C7 1_555 1_555
C8 C7 1_555 1_555
C9 C8 1_555 1_555
C10 C9 1_555 1_555
H5 C10 1_555 1_555
C11 C10 1_555 1_555
H6 C11 1_555 1_555
C12 C11 1_555 1_555
H7 C12 1_555 1_555
C13 C8 1_555 1_555
C14 C13 1_555 1_555
H8 C14 1_555 1_555
C15 C2 1_555 1_555
C16 C9 1_555 1_555
C17 N2 1_555 1_555
H9 C17 1_555 1_555
C18 C17 1_555 1_555
H10 C18 1_555 1_555
C19 C18 1_555 1_555
C20 C19 1_555 1_555
H11 C20 1_555 1_555
C21 N2 1_555 1_555
H12 C21 1_555 1_555
C22 C19 1_555 1_555
H13 C22 1_555 1_555
H14 C22 1_555 1_555
C23 C22 1_555 1_555
H15 C23 1_555 1_555
H16 C23 1_555 1_555
C24 C23 1_555 1_555
H17 C24 1_555 1_555
H18 C24 1_555 1_555
C25 C24 1_555 1_555
C26 C25 1_555 1_555
H19 C26 1_555 1_555
C27 C26 1_555 1_555
H20 C27 1_555 1_555
C28 N1 1_555 1_555
H21 C28 1_555 1_555
C29 C25 1_555 1_555
H22 C29 1_555 1_555
Cd1C O3 1_555 1_555
Cd1F N1 1_555 1_555
O3C Cd1 1_555 1_555
O4C Cd1 1_555 1_555
N1F Cd1 1_555 1_555
O4 Cd1C 1_555 1_555
C6 C15 1_555 1_555
C12 C13 1_555 1_555
C14 C15 1_555 1_555
C20 C21 1_555 1_555
C28 C29 1_555 1_555

#END
