
#######################################################################
#
#                 Cambridge Crystallographic Data Centre
#                                CCDC 
#
#######################################################################
#
# If this CIF has been generated from an entry in the Cambridge 
# Structural Database, then it will include bibliographic, chemical, 
# crystal, experimental, refinement or atomic coordinate data resulting 
# from the CCDC's data processing and validation procedures.
#
#######################################################################

data_ETEVUV
_symmetry_cell_setting           monoclinic
_symmetry_space_group_name_H-M   'P 21/c'
_symmetry_Int_Tables_number      14
_space_group_name_Hall           '-P 2ybc'
loop_
_symmetry_equiv_pos_site_id
_symmetry_equiv_pos_as_xyz
1 x,y,z
2 -x,1/2+y,1/2-z
3 -x,-y,-z
4 x,1/2-y,1/2+z
_cell_length_a                   16.793(3)
_cell_length_b                   21.363(4)
_cell_length_c                   10.187(2)
_cell_angle_alpha                90
_cell_angle_beta                 106.379(3)
_cell_angle_gamma                90
_cell_volume                     3506.26
loop_
_atom_site_label
_atom_site_type_symbol
_atom_site_fract_x
_atom_site_fract_y
_atom_site_fract_z
Zn1 Zn 0.58544(4) -0.11208(3) 0.00394(6)
C1 C 0.7196(4) -0.0198(3) -0.0112(7)
H1 H 0.7466 -0.0489 -0.0513
C2 C 0.6317(3) 0.0233(3) 0.0799(5)
H2 H 0.5866 0.0298 0.1144
C3 C 0.6888(4) 0.1311(3) 0.1122(7)
H3 H 0.6369 0.1412 0.1315
H4 H 0.6919 0.1561 0.0343
C4 C 0.7600(3) 0.1496(3) 0.2349(6)
C5 C 0.7884(4) 0.1110(3) 0.3446(8)
H5 H 0.7655 0.0713 0.3432
C6 C 0.8504(4) 0.1299(3) 0.4573(7)
H6 H 0.8693 0.1019 0.5295
C7 C 0.8856(3) 0.1884(3) 0.4676(7)
C8 C 0.8551(4) 0.2273(3) 0.3508(8)
H7 H 0.8769 0.2673 0.3508
C9 C 0.7945(4) 0.2072(3) 0.2388(7)
H8 H 0.7765 0.2336 0.1637
C10 C 0.9528(3) 0.2099(3) 0.5903(6)
C11 C 0.9969(4) 0.1682(3) 0.6844(8)
H9 H 0.9854 0.1257 0.6727
C12 C 1.0586(5) 0.1887(4) 0.7967(9)
H10 H 1.0866 0.1592 0.8601
C13 C 1.0801(3) 0.2496(3) 0.8189(7)
C14 C 1.0377(4) 0.2914(4) 0.7225(7)
H11 H 1.0518 0.3336 0.7318
C15 C 0.9740(4) 0.2719(3) 0.6113(7)
H12 H 0.9449 0.3015 0.5493
C16 C 1.1485(4) 0.2694(3) 0.9406(7)
H13 H 1.1509 0.3147 0.9459
H14 H 1.1381 0.2536 1.0235
C17 C 1.2732(3) 0.1994(3) 0.9985(5)
H15 H 1.2633 0.1804 1.0745
C18 C 1.3223(4) 0.2250(4) 0.8421(8)
H16 H 1.3572 0.2271 0.7858
C19 C 0.5390(4) -0.1189(2) -0.2667(5)
C20 C 0.4874(3) -0.1238(2) -0.4144(5)
C21 C 0.5416(3) -0.1144(2) -0.5107(5)
H17 H 0.5663 -0.0730 -0.4965
H18 H 0.5862 -0.1449 -0.4895
C22 C 0.4917(3) -0.1213(2) -0.6593(5)
C23 C 0.4551(4) -0.1859(3) -0.6827(6)
H19 H 0.4992 -0.2168 -0.6648
H20 H 0.4222 -0.1902 -0.7772
C24 C 0.4003(4) -0.1972(3) -0.5876(6)
H21 H 0.3771 -0.2396 -0.6026
C25 C 0.4506(4) -0.1903(2) -0.4396(6)
H22 H 0.4951 -0.2209 -0.4181
H23 H 0.4155 -0.1979 -0.3803
C26 C 0.4168(3) -0.0769(2) -0.4464(5)
H24 H 0.4392 -0.0348 -0.4315
H25 H 0.3824 -0.0836 -0.3856
C27 C 0.3637(4) -0.0839(3) -0.5963(5)
H26 H 0.3179 -0.0537 -0.6158
C28 C 0.4174(4) -0.0723(3) -0.6912(5)
H27 H 0.4395 -0.0300 -0.6783
H28 H 0.3843 -0.0765 -0.7856
C29 C 0.3295(4) -0.1497(3) -0.6193(6)
H29 H 0.2963 -0.1544 -0.7136
H30 H 0.2939 -0.1574 -0.5607
C30 C 0.5439(5) -0.1106(3) -0.7568(6)
N1 N 0.6493(3) -0.0303(2) 0.0283(4)
N2 N 0.7431(4) 0.0407(3) 0.0183(6)
N3 N 0.6874(3) 0.0658(2) 0.0750(5)
N4 N 1.3345(3) 0.1846(2) 0.9471(4)
N5 N 1.2281(3) 0.2446(2) 0.9284(5)
N6 N 1.2577(4) 0.2610(3) 0.8256(7)
O1 O 0.5008(2) -0.11408(18) -0.1746(4)
O2 O 0.6173(3) -0.1207(2) -0.2325(4)
O3 O 0.6194(4) -0.1001(3) -0.7125(5)
O4 O 0.5087(3) -0.1142(2) -0.8834(4)
Zn1B Zn 1.41456(4) 0.11208(3) 0.99606(6)
Zn1_2 Zn 0.58544(4) -0.11208(3) -0.99606(6)
Zn1B_2 Zn 1.41456(4) 0.11208(3) 1.99606(6)
C1B C 1.2804(4) 0.0198(3) 1.0112(7)
H1B H 1.2534 0.0489 1.0513
C2B C 1.3683(3) -0.0233(3) 0.9201(5)
H2B H 1.4134 -0.0298 0.8856
C3B C 1.3112(4) -0.1311(3) 0.8878(7)
H3B H 1.3631 -0.1412 0.8685
H4B H 1.3081 -0.1561 0.9657
C4B C 1.2400(3) -0.1496(3) 0.7651(6)
C5B C 1.2116(4) -0.1110(3) 0.6554(8)
H5B H 1.2345 -0.0713 0.6568
C6B C 1.1496(4) -0.1299(3) 0.5427(7)
H6B H 1.1307 -0.1019 0.4705
C7B C 1.1144(3) -0.1884(3) 0.5324(7)
C8B C 1.1449(4) -0.2273(3) 0.6492(8)
H7B H 1.1231 -0.2673 0.6492
C9B C 1.2055(4) -0.2072(3) 0.7612(7)
H8B H 1.2235 -0.2336 0.8363
C10B C 1.0472(3) -0.2099(3) 0.4097(6)
C11B C 1.0031(4) -0.1682(3) 0.3156(8)
H9B H 1.0146 -0.1257 0.3273
C12B C 0.9414(5) -0.1887(4) 0.2033(9)
H10B H 0.9134 -0.1592 0.1399
C13B C 0.9199(3) -0.2496(3) 0.1811(7)
C14B C 0.9623(4) -0.2914(4) 0.2775(7)
H11B H 0.9482 -0.3336 0.2682
C15B C 1.0260(4) -0.2719(3) 0.3887(7)
H12B H 1.0551 -0.3015 0.4507
C16B C 0.8515(4) -0.2694(3) 0.0594(7)
H13B H 0.8491 -0.3147 0.0541
H14B H 0.8619 -0.2536 -0.0235
C17B C 0.7268(3) -0.1994(3) 0.0015(5)
H15B H 0.7367 -0.1804 -0.0745
C18B C 0.6777(4) -0.2250(4) 0.1579(8)
H16B H 0.6428 -0.2271 0.2142
C19B C 1.4610(4) 0.1189(2) 1.2667(5)
C20B C 1.5126(3) 0.1238(2) 1.4144(5)
C21B C 1.4584(3) 0.1144(2) 1.5107(5)
H17B H 1.4337 0.0730 1.4965
H18B H 1.4138 0.1449 1.4895
C22B C 1.5083(3) 0.1213(2) 1.6593(5)
C23B C 1.5449(4) 0.1859(3) 1.6827(6)
H19B H 1.5008 0.2168 1.6648
H20B H 1.5778 0.1902 1.7772
C24B C 1.5997(4) 0.1972(3) 1.5876(6)
H21B H 1.6229 0.2396 1.6026
C25B C 1.5494(4) 0.1903(2) 1.4396(6)
H22B H 1.5049 0.2209 1.4181
H23B H 1.5845 0.1979 1.3803
C26B C 1.5832(3) 0.0769(2) 1.4464(5)
H24B H 1.5608 0.0348 1.4315
H25B H 1.6176 0.0836 1.3856
C27B C 1.6363(4) 0.0839(3) 1.5963(5)
H26B H 1.6821 0.0537 1.6158
C28B C 1.5826(4) 0.0723(3) 1.6912(5)
H27B H 1.5605 0.0300 1.6783
H28B H 1.6157 0.0765 1.7856
C29B C 1.6705(4) 0.1497(3) 1.6193(6)
H29B H 1.7037 0.1544 1.7136
H30B H 1.7061 0.1574 1.5607
C30B C 1.4561(5) 0.1106(3) 1.7568(6)
N1B N 1.3507(3) 0.0303(2) 0.9717(4)
N2B N 1.2569(4) -0.0407(3) 0.9817(6)
N3B N 1.3126(3) -0.0658(2) 0.9250(5)
N4B N 0.6655(3) -0.1846(2) 0.0529(4)
N5B N 0.7719(3) -0.2446(2) 0.0716(5)
N6B N 0.7423(4) -0.2610(3) 0.1744(7)
O1B O 1.4992(2) 0.11408(18) 1.1746(4)
O2B O 1.3827(3) 0.1207(2) 1.2325(4)
O3B O 1.3806(4) 0.1001(3) 1.7125(5)
O4B O 1.4913(3) 0.1142(2) 1.8834(4)
O4_2 O 0.5087(3) -0.1142(2) 0.1166(4)
O4B_2 O 1.4913(3) 0.1142(2) 0.8834(4)
O5 O 0.2328(5) 0.0855(4) 0.2778(13)
O6 O 0.2373(6) 0.0590(6) 0.5566(13)
O7 O 0.9069(8) 0.0817(7) 0.9636(18)
loop_
_geom_bond_atom_site_label_1
_geom_bond_atom_site_label_2
_geom_bond_site_symmetry_1
_geom_bond_site_symmetry_2
Zn1 N1 1_555 1_555
C1 H1 1_555 1_555
C2 H2 1_555 1_555
C3 H3 1_555 1_555
H4 C3 1_555 1_555
C4 C3 1_555 1_555
C5 C4 1_555 1_555
H5 C5 1_555 1_555
C6 C5 1_555 1_555
H6 C6 1_555 1_555
C7 C6 1_555 1_555
C8 C7 1_555 1_555
H7 C8 1_555 1_555
C9 C4 1_555 1_555
H8 C9 1_555 1_555
C10 C7 1_555 1_555
C11 C10 1_555 1_555
H9 C11 1_555 1_555
C12 C11 1_555 1_555
H10 C12 1_555 1_555
C13 C12 1_555 1_555
C14 C13 1_555 1_555
H11 C14 1_555 1_555
C15 C10 1_555 1_555
H12 C15 1_555 1_555
C16 C13 1_555 1_555
H13 C16 1_555 1_555
H14 C16 1_555 1_555
C17 H15 1_555 1_555
C18 H16 1_555 1_555
C19 C20 1_555 1_555
C20 C21 1_555 1_555
C21 H17 1_555 1_555
H18 C21 1_555 1_555
C22 C21 1_555 1_555
C23 C22 1_555 1_555
H19 C23 1_555 1_555
H20 C23 1_555 1_555
C24 C23 1_555 1_555
H21 C24 1_555 1_555
C25 C20 1_555 1_555
H22 C25 1_555 1_555
H23 C25 1_555 1_555
C26 C20 1_555 1_555
H24 C26 1_555 1_555
H25 C26 1_555 1_555
C27 C26 1_555 1_555
H26 C27 1_555 1_555
C28 C22 1_555 1_555
H27 C28 1_555 1_555
H28 C28 1_555 1_555
C29 C24 1_555 1_555
H29 C29 1_555 1_555
H30 C29 1_555 1_555
C30 C22 1_555 1_555
N1 C1 1_555 1_555
N2 C1 1_555 1_555
N3 C2 1_555 1_555
N4 C17 1_555 1_555
N5 C16 1_555 1_555
N6 C18 1_555 1_555
O1 Zn1 1_555 1_555
O2 C19 1_555 1_555
O3 C30 1_555 1_555
O4 C30 1_555 1_555
Zn1B N4 1_555 1_555
Zn1_2 O4 1_555 1_555
Zn1B_2 O4B 1_555 1_555
C1B H1B 1_555 1_555
C2B H2B 1_555 1_555
C3B H3B 1_555 1_555
H4B C3B 1_555 1_555
C4B C3B 1_555 1_555
C5B C4B 1_555 1_555
H5B C5B 1_555 1_555
C6B C5B 1_555 1_555
H6B C6B 1_555 1_555
C7B C6B 1_555 1_555
C8B C7B 1_555 1_555
H7B C8B 1_555 1_555
C9B C4B 1_555 1_555
H8B C9B 1_555 1_555
C10B C7B 1_555 1_555
C11B C10B 1_555 1_555
H9B C11B 1_555 1_555
C12B C11B 1_555 1_555
H10B C12B 1_555 1_555
C13B C12B 1_555 1_555
C14B C13B 1_555 1_555
H11B C14B 1_555 1_555
C15B C10B 1_555 1_555
H12B C15B 1_555 1_555
C16B C13B 1_555 1_555
H13B C16B 1_555 1_555
H14B C16B 1_555 1_555
C17B H15B 1_555 1_555
C18B H16B 1_555 1_555
C19B C20B 1_555 1_555
C20B C21B 1_555 1_555
C21B H17B 1_555 1_555
H18B C21B 1_555 1_555
C22B C21B 1_555 1_555
C23B C22B 1_555 1_555
H19B C23B 1_555 1_555
H20B C23B 1_555 1_555
C24B C23B 1_555 1_555
H21B C24B 1_555 1_555
C25B C20B 1_555 1_555
H22B C25B 1_555 1_555
H23B C25B 1_555 1_555
C26B C20B 1_555 1_555
H24B C26B 1_555 1_555
H25B C26B 1_555 1_555
C27B C26B 1_555 1_555
H26B C27B 1_555 1_555
C28B C22B 1_555 1_555
H27B C28B 1_555 1_555
H28B C28B 1_555 1_555
C29B C24B 1_555 1_555
H29B C29B 1_555 1_555
H30B C29B 1_555 1_555
C30B C22B 1_555 1_555
N1B Zn1B 1_555 1_555
N2B C1B 1_555 1_555
N3B C2B 1_555 1_555
N4B Zn1 1_555 1_555
N5B C16B 1_555 1_555
N6B C18B 1_555 1_555
O1B Zn1B 1_555 1_555
O2B C19B 1_555 1_555
O3B C30B 1_555 1_555
O4B C30B 1_555 1_555
O4_2 Zn1 1_555 1_555
O4B_2 Zn1B 1_555 1_555
C2 N1 1_555 1_555
C3 N3 1_555 1_555
C8 C9 1_555 1_555
C14 C15 1_555 1_555
C17 N5 1_555 1_555
C18 N4 1_555 1_555
C19 O1 1_555 1_555
C24 C25 1_555 1_555
C27 C28 1_555 1_555
C27 C29 1_555 1_555
N2 N3 1_555 1_555
N5 N6 1_555 1_555
C1B N1B 1_555 1_555
C2B N1B 1_555 1_555
C3B N3B 1_555 1_555
C8B C9B 1_555 1_555
C14B C15B 1_555 1_555
C17B N4B 1_555 1_555
C17B N5B 1_555 1_555
C18B N4B 1_555 1_555
C19B O1B 1_555 1_555
C24B C25B 1_555 1_555
C27B C28B 1_555 1_555
C27B C29B 1_555 1_555
N2B N3B 1_555 1_555
N5B N6B 1_555 1_555

#END
