
#######################################################################
#
#                 Cambridge Crystallographic Data Centre
#                                CCDC 
#
#######################################################################
#
# If this CIF has been generated from an entry in the Cambridge 
# Structural Database, then it will include bibliographic, chemical, 
# crystal, experimental, refinement or atomic coordinate data resulting 
# from the CCDC's data processing and validation procedures.
#
#######################################################################

data_ETEVEF
_symmetry_cell_setting           orthorhombic
_symmetry_space_group_name_H-M   'P 21 21 21'
_symmetry_Int_Tables_number      19
_space_group_name_Hall           'P 2ac 2ab'
loop_
_symmetry_equiv_pos_site_id
_symmetry_equiv_pos_as_xyz
1 x,y,z
2 1/2-x,-y,1/2+z
3 -x,1/2+y,1/2-z
4 1/2+x,1/2-y,-z
_cell_length_a                   4.33820(10)
_cell_length_b                   13.8640(2)
_cell_length_c                   17.4665(2)
_cell_angle_alpha                90
_cell_angle_beta                 90
_cell_angle_gamma                90
_cell_volume                     1050.52
loop_
_atom_site_label
_atom_site_type_symbol
_atom_site_fract_x
_atom_site_fract_y
_atom_site_fract_z
C1 C 0.756(2) 0.5404(6) 0.3101(4)
C2 C 0.911(2) 0.4537(6) 0.3330(4)
C3 C 0.906(2) 0.4222(6) 0.4070(4)
C4 C 0.748(2) 0.4726(7) 0.4673(4)
C5 C 0.598(2) 0.5604(6) 0.4438(4)
C6 C 0.6035(19) 0.5924(6) 0.3709(4)
Br1 Br 1.1069(3) 0.38288(8) 0.25477(5)
Br2 Br 1.1221(3) 0.30988(7) 0.43713(5)
Br3 Br 0.3865(3) 0.62764(8) 0.52256(5)
Br4 Br 0.3994(3) 0.70726(8) 0.34149(6)
O1 O 0.7576(17) 0.5715(6) 0.2422(3)
O2 O 0.7461(18) 0.4414(5) 0.5351(3)
Rb1 Rb 1.2616(2) 0.59623(8) 0.13909(4)
Br2A Br 1.3779(3) 0.69012(7) -0.06287(5)
Br2B Br 0.8779(3) 0.80988(7) 0.06287(5)
Br3A Br 1.1135(3) 0.37236(8) 0.02256(5)
O1_2 O 1.7576(17) 0.5715(6) 0.2422(3)
O2A O 0.7539(18) 0.5586(5) 0.0351(3)
O2A_2 O 1.7539(18) 0.5586(5) 0.0351(3)
Rb1A Rb 1.2384(2) 0.40377(8) 0.63909(4)
Rb1B Rb 0.7384(2) 0.09623(8) 0.36091(4)
Rb1A_2 Rb 0.2384(2) 0.40377(8) 0.63909(4)
Rb1_2 Rb 0.2616(2) 0.59623(8) 0.13909(4)
loop_
_geom_bond_atom_site_label_1
_geom_bond_atom_site_label_2
_geom_bond_site_symmetry_1
_geom_bond_site_symmetry_2
C1 C2 1_555 1_555
C2 C3 1_555 1_555
C3 C4 1_555 1_555
C4 C5 1_555 1_555
C5 C6 1_555 1_555
C6 C1 1_555 1_555
Br1 C2 1_555 1_555
Br2 C3 1_555 1_555
Br3 C5 1_555 1_555
Br4 C6 1_555 1_555
O1 C1 1_555 1_555
O2 C4 1_555 1_555
Rb1 Br1 1_555 1_555
Br2A Rb1 1_555 1_555
Br2B Rb1 1_555 1_555
Br3A Rb1 1_555 1_555
O1_2 Rb1 1_555 1_555
O2A Rb1 1_555 1_555
O2A_2 Rb1 1_555 1_555
Rb1A Br2 1_555 1_555
Rb1B Br2 1_555 1_555
Rb1A_2 Br3 1_555 1_555
Rb1_2 O1 1_555 1_555
O1 Rb1 1_555 1_555
O2 Rb1A 1_555 1_555
O2 Rb1A_2 1_555 1_555
O2A Rb1_2 1_555 1_555

#END
