
#######################################################################
#
#                 Cambridge Crystallographic Data Centre
#                                CCDC 
#
#######################################################################
#
# If this CIF has been generated from an entry in the Cambridge 
# Structural Database, then it will include bibliographic, chemical, 
# crystal, experimental, refinement or atomic coordinate data resulting 
# from the CCDC's data processing and validation procedures.
#
#######################################################################

data_ETEVEE
_symmetry_cell_setting           triclinic
_symmetry_space_group_name_H-M   'P -1'
_symmetry_Int_Tables_number      2
_space_group_name_Hall           '-P 1'
loop_
_symmetry_equiv_pos_site_id
_symmetry_equiv_pos_as_xyz
1 x,y,z
2 -x,-y,-z
_cell_length_a                   7.5818(5)
_cell_length_b                   8.3976(5)
_cell_length_c                   9.7596(6)
_cell_angle_alpha                105.5060(10)
_cell_angle_beta                 97.2830(10)
_cell_angle_gamma                105.8530(10)
_cell_volume                     562.453
loop_
_atom_site_label
_atom_site_type_symbol
_atom_site_fract_x
_atom_site_fract_y
_atom_site_fract_z
Ni1 Ni 0.5000 0.5000 0.5000
O1 O -0.29070(17) 0.50960(15) -0.32550(13)
O2 O -0.2826(3) 0.23744(19) -0.36420(16)
N1 N 0.2969(2) 0.46750(19) 0.62123(16)
H1 H 0.1957 0.4863 0.5758
N2 N 0.4141(2) 0.7724(2) 0.77577(17)
N3 N 0.58486(19) 0.76819(17) 0.57799(14)
H2 H 0.4980 0.1968 0.4730
C1 C 0.3599(3) 0.5945(3) 0.7724(2)
H3 H 0.5347 0.4261 0.1763
H4 H 0.7414 0.4263 0.1764
C2 C 0.5869(3) 0.8417(2) 0.73482(18)
H5 H 0.3839 0.0328 0.2409
H6 H 0.3134 0.1802 0.2080
C3 C 0.2329(3) 0.1704(2) 0.4606(2)
H7 H 0.2052 0.0491 0.4563
H8 H 0.1342 0.1790 0.3920
C4 C 0.2408(3) 0.2819(3) 0.6138(2)
H9 H 0.3308 0.2644 0.6834
H10 H 0.1186 0.2483 0.6378
C5 C 0.7394(3) 0.1609(3) 0.2609(2)
H11 H 0.7325 0.1348 0.3514
H12 H 0.8584 0.2509 0.2760
C6 C 0.7338(5) 0.0014(4) 0.1460(3)
H13 H 0.6194 -0.0903 0.1344
H14 H 0.8392 -0.0343 0.1738
H15 H 0.7391 0.0259 0.0558
C7 C -0.2398(2) 0.3927(2) -0.28901(17)
C8 C -0.1169(2) 0.4493(2) -0.13814(16)
C9 C -0.0697(2) 0.6184(2) -0.04401(17)
H16 H -0.1167 0.6985 -0.0728
C10 C -0.0464(2) 0.3308(2) -0.09212(17)
H17 H -0.0777 0.2168 -0.1534
C10A C 0.0464(2) 0.6692(2) 0.09212(17)
C8A C 0.1169(2) 0.5507(2) 0.13814(16)
C7A C 0.2398(2) 0.6073(2) 0.28901(17)
O1A O 0.29070(17) 0.49040(15) 0.32550(13)
Ni1_2 Ni -0.5000 0.5000 -0.5000
O1_2 O 0.70930(17) 0.50960(15) 0.67450(13)
N1A N 0.7031(2) 0.53250(19) 0.37877(16)
H1A H 0.8043 0.5137 0.4242
C1A C 0.6401(3) 0.4055(3) 0.2276(2)
N2A N 0.5859(2) 0.2276(2) 0.22423(17)
C2A C 0.4131(3) 0.1583(2) 0.26518(18)
N3A N 0.41514(19) 0.23181(17) 0.42201(14)
C4A C 0.7592(3) 0.7181(3) 0.3862(2)
C3A C 0.7671(3) 0.8296(2) 0.5394(2)
H2A H 0.5020 0.8032 0.5270
H7A H 0.7948 0.9509 0.5437
H8A H 0.8658 0.8210 0.6080
H9A H 0.6692 0.7356 0.3166
H10A H 0.8814 0.7517 0.3622
H5A H 0.6161 0.9672 0.7591
H6A H 0.6866 0.8198 0.7920
C5A C 0.2606(3) 0.8391(3) 0.7391(2)
H11A H 0.2675 0.8652 0.6486
H12A H 0.1416 0.7491 0.7240
C6A C 0.2662(5) 0.9986(4) 0.8540(3)
H13A H 0.3806 1.0903 0.8656
H14A H 0.1608 1.0343 0.8262
H15A H 0.2609 0.9741 0.9442
H3A H 0.4653 0.5739 0.8237
H4A H 0.2586 0.5737 0.8236
O2A O 0.2826(3) 0.76256(19) 0.36420(16)
C9A C 0.0697(2) 0.3816(2) 0.04401(17)
H16A H 0.1167 0.3015 0.0728
H17A H 0.0777 0.7832 0.1534
loop_
_geom_bond_atom_site_label_1
_geom_bond_atom_site_label_2
_geom_bond_site_symmetry_1
_geom_bond_site_symmetry_2
Ni1 N1 1_555 1_555
O1 C7 1_555 1_555
O2 C7 1_555 1_555
N1 H1 1_555 1_555
N2 C1 1_555 1_555
N3 Ni1 1_555 1_555
H2 N3A 1_555 1_555
C1 N1 1_555 1_555
H3 C1A 1_555 1_555
H4 C1A 1_555 1_555
C2 N2 1_555 1_555
H5 C2A 1_555 1_555
H6 C2A 1_555 1_555
C3 H7 1_555 1_555
H8 C3 1_555 1_555
C4 N1 1_555 1_555
H9 C4 1_555 1_555
H10 C4 1_555 1_555
C5 H11 1_555 1_555
H12 C5 1_555 1_555
C6 C5 1_555 1_555
H13 C6 1_555 1_555
H14 C6 1_555 1_555
H15 C6 1_555 1_555
C7 C8 1_555 1_555
C8 C9 1_555 1_555
C9 H16 1_555 1_555
C10 C8 1_555 1_555
H17 C10 1_555 1_555
C10A C9 1_555 1_555
C8A C10A 1_555 1_555
C7A C8A 1_555 1_555
O1A Ni1 1_555 1_555
Ni1_2 O1 1_555 1_555
O1_2 Ni1 1_555 1_555
N1A Ni1 1_555 1_555
H1A N1A 1_555 1_555
C1A N1A 1_555 1_555
N2A C5 1_555 1_555
C2A N2A 1_555 1_555
N3A Ni1 1_555 1_555
C4A N1A 1_555 1_555
C3A N3 1_555 1_555
H2A N3 1_555 1_555
H7A C3A 1_555 1_555
H8A C3A 1_555 1_555
H9A C4A 1_555 1_555
H10A C4A 1_555 1_555
H5A C2 1_555 1_555
H6A C2 1_555 1_555
C5A N2 1_555 1_555
H11A C5A 1_555 1_555
H12A C5A 1_555 1_555
C6A C5A 1_555 1_555
H13A C6A 1_555 1_555
H14A C6A 1_555 1_555
H15A C6A 1_555 1_555
H3A C1 1_555 1_555
H4A C1 1_555 1_555
O2A C7A 1_555 1_555
C9A C10 1_555 1_555
H16A C9A 1_555 1_555
H17A C10A 1_555 1_555
N3 C2 1_555 1_555
C3 N3A 1_555 1_555
C3 C4 1_555 1_555
C8A C9A 1_555 1_555
C7A O1A 1_555 1_555
C1A N2A 1_555 1_555
C2A N3A 1_555 1_555
C4A C3A 1_555 1_555

#END
