
#######################################################################
#
#                 Cambridge Crystallographic Data Centre
#                                CCDC 
#
#######################################################################
#
# If this CIF has been generated from an entry in the Cambridge 
# Structural Database, then it will include bibliographic, chemical, 
# crystal, experimental, refinement or atomic coordinate data resulting 
# from the CCDC's data processing and validation procedures.
#
#######################################################################

data_ETEVEF01
_symmetry_cell_setting           orthorhombic
_symmetry_space_group_name_H-M   'P 21 21 21'
_symmetry_Int_Tables_number      19
_space_group_name_Hall           'P 2ac 2ab'
loop_
_symmetry_equiv_pos_site_id
_symmetry_equiv_pos_as_xyz
1 x,y,z
2 1/2-x,-y,1/2+z
3 1/2+x,1/2-y,-z
4 -x,1/2+y,1/2-z
_cell_length_a                   4.33400(10)
_cell_length_b                   13.5784(3)
_cell_length_c                   17.4009(3)
_cell_angle_alpha                90
_cell_angle_beta                 90
_cell_angle_gamma                90
_cell_volume                     1024.02
loop_
_atom_site_label
_atom_site_type_symbol
_atom_site_fract_x
_atom_site_fract_y
_atom_site_fract_z
C1 C 0.760(2) 0.5460(6) 0.3091(4)
C2 C 0.916(2) 0.4562(6) 0.3331(5)
C3 C 0.914(2) 0.4241(6) 0.4077(5)
C4 C 0.745(2) 0.4724(7) 0.4694(4)
C5 C 0.590(2) 0.5627(6) 0.4451(4)
C6 C 0.5951(19) 0.5957(6) 0.3719(4)
Br1 Br 1.1188(2) 0.38590(7) 0.25510(4)
Br2 Br 1.1303(3) 0.30975(6) 0.43771(4)
Br3 Br 0.3706(3) 0.62895(6) 0.52323(4)
Br4 Br 0.3891(2) 0.71255(6) 0.34183(5)
O1 O 0.7596(17) 0.5758(5) 0.2423(3)
O2 O 0.7409(17) 0.4412(4) 0.5359(3)
Rb1 Rb 1.2638(2) 0.59907(7) 0.13900(4)
Br2A Br 1.3697(3) 0.69025(6) -0.06229(4)
Br2C Br 0.8697(3) 0.80975(6) 0.06229(4)
Br3A Br 1.1294(3) 0.37105(6) 0.02323(4)
O1_2 O 1.7596(17) 0.5758(5) 0.2423(3)
O2A O 0.7591(17) 0.5588(4) 0.0359(3)
O2A_2 O 1.7591(17) 0.5588(4) 0.0359(3)
Rb1A Rb 1.2362(2) 0.40093(7) 0.63900(4)
Rb1C Rb 0.7362(2) 0.09907(7) 0.36100(4)
Rb1A_2 Rb 0.2362(2) 0.40093(7) 0.63900(4)
Rb1_2 Rb 0.2638(2) 0.59907(7) 0.13900(4)
loop_
_geom_bond_atom_site_label_1
_geom_bond_atom_site_label_2
_geom_bond_site_symmetry_1
_geom_bond_site_symmetry_2
C1 C2 1_555 1_555
C2 C3 1_555 1_555
C3 C4 1_555 1_555
C4 C5 1_555 1_555
C5 C6 1_555 1_555
C6 C1 1_555 1_555
Br1 C2 1_555 1_555
Br2 C3 1_555 1_555
Br3 C5 1_555 1_555
Br4 C6 1_555 1_555
O1 C1 1_555 1_555
O2 C4 1_555 1_555
Rb1 Br1 1_555 1_555
Br2A Rb1 1_555 1_555
Br2C Rb1 1_555 1_555
Br3A Rb1 1_555 1_555
O1_2 Rb1 1_555 1_555
O2A Rb1 1_555 1_555
O2A_2 Rb1 1_555 1_555
Rb1A Br2 1_555 1_555
Rb1C Br2 1_555 1_555
Rb1A_2 Br3 1_555 1_555
Rb1_2 O1 1_555 1_555
O1 Rb1 1_555 1_555
O2 Rb1A 1_555 1_555
O2 Rb1A_2 1_555 1_555
O2A Rb1_2 1_555 1_555

#END
