
#######################################################################
#
#                 Cambridge Crystallographic Data Centre
#                                CCDC 
#
#######################################################################
#
# If this CIF has been generated from an entry in the Cambridge 
# Structural Database, then it will include bibliographic, chemical, 
# crystal, experimental, refinement or atomic coordinate data resulting 
# from the CCDC's data processing and validation procedures.
#
#######################################################################

data_ETEVAB
_symmetry_cell_setting           monoclinic
_symmetry_space_group_name_H-M   'P 21/n'
_symmetry_Int_Tables_number      14
_space_group_name_Hall           '-P 2yn'
loop_
_symmetry_equiv_pos_site_id
_symmetry_equiv_pos_as_xyz
1 x,y,z
2 1/2-x,1/2+y,1/2-z
3 -x,-y,-z
4 1/2+x,1/2-y,1/2+z
_cell_length_a                   8.1909(3)
_cell_length_b                   3.6689(3)
_cell_length_c                   15.5125(6)
_cell_angle_alpha                90
_cell_angle_beta                 97.712(3)
_cell_angle_gamma                90
_cell_volume                     461.959
loop_
_atom_site_label
_atom_site_type_symbol
_atom_site_fract_x
_atom_site_fract_y
_atom_site_fract_z
C1 C 0.6740(17) 0.495(6) -0.0141(9)
C2 C 0.6200(17) 0.351(4) 0.0658(9)
C3 C 0.5410(16) 0.633(4) -0.0782(9)
Br1 Br 0.78973(17) 0.1841(4) 0.14791(9)
Br2 Br 0.60793(17) 0.7975(5) -0.18443(10)
O1 O 0.8204(12) 0.496(4) -0.0286(7)
Na1 Na 1.00000 0.0000 0.00000
C1B C 0.3260(17) 0.505(6) 0.0141(9)
C2B C 0.3800(17) 0.649(4) -0.0658(9)
C3B C 0.4590(16) 0.367(4) 0.0782(9)
Br1B Br 0.21027(17) 0.8159(4) -0.14791(9)
Br1B_2 Br 1.21027(17) -0.1841(4) -0.14791(9)
Br2B Br 0.39207(17) 0.2025(5) 0.18443(10)
O1B O 0.1796(12) 0.504(4) 0.0286(7)
O1_2 O 0.8204(12) -0.504(4) -0.0286(7)
O1B_2 O 1.1796(12) -0.496(4) 0.0286(7)
O1B_3 O 1.1796(12) 0.504(4) 0.0286(7)
Na1_2 Na 1.00000 1.0000 0.00000
Na1_3 Na 0.00000 1.0000 0.00000
Na1_4 Na 0.00000 0.0000 0.00000
loop_
_geom_bond_atom_site_label_1
_geom_bond_atom_site_label_2
_geom_bond_site_symmetry_1
_geom_bond_site_symmetry_2
C1 C2 1_555 1_555
C2 Br1 1_555 1_555
C3 C1 1_555 1_555
Br1 Na1 1_555 1_555
Br2 C3 1_555 1_555
O1 C1 1_555 1_555
Na1 O1 1_555 1_555
C1B C2B 1_555 1_555
C2B C3 1_555 1_555
C3B C2 1_555 1_555
Br1B C2B 1_555 1_555
Br1B_2 Na1 1_555 1_555
Br2B C3B 1_555 1_555
O1B C1B 1_555 1_555
O1_2 Na1 1_555 1_555
O1B_2 Na1 1_555 1_555
O1B_3 Na1 1_555 1_555
Na1_2 O1 1_555 1_555
Na1_3 Br1B 1_555 1_555
Na1_4 O1B 1_555 1_555
C1B C3B 1_555 1_555
O1B Na1_3 1_555 1_555
O1B_3 Na1_2 1_555 1_555

#END
