
#######################################################################
#
#                 Cambridge Crystallographic Data Centre
#                                CCDC 
#
#######################################################################
#
# If this CIF has been generated from an entry in the Cambridge 
# Structural Database, then it will include bibliographic, chemical, 
# crystal, experimental, refinement or atomic coordinate data resulting 
# from the CCDC's data processing and validation procedures.
#
#######################################################################

data_ETEWUW
_symmetry_cell_setting           triclinic
_symmetry_space_group_name_H-M   'P -1'
_symmetry_Int_Tables_number      2
_space_group_name_Hall           '-P 1'
loop_
_symmetry_equiv_pos_site_id
_symmetry_equiv_pos_as_xyz
1 x,y,z
2 -x,-y,-z
_cell_length_a                   9.0628(10)
_cell_length_b                   12.4562(14)
_cell_length_c                   27.207(3)
_cell_angle_alpha                83.7860(10)
_cell_angle_beta                 85.363(2)
_cell_angle_gamma                82.622(2)
_cell_volume                     3021.03
loop_
_atom_site_label
_atom_site_type_symbol
_atom_site_fract_x
_atom_site_fract_y
_atom_site_fract_z
Cd1 Cd 0.78580(5) 0.53785(3) 0.297528(16)
Cd2 Cd -0.14616(5) 1.55297(3) -0.214620(15)
C1 C 0.3606(7) 0.3497(5) 0.1522(2)
C2 C 0.4889(6) 0.3033(5) 0.1175(2)
H1 H 0.4467 0.2743 0.0908
H2 H 0.5428 0.3626 0.1028
C3 C 0.5999(7) 0.2145(4) 0.1414(2)
C4 C 0.7333(7) 0.1941(5) 0.1044(2)
H3 H 0.7766 0.2613 0.0952
H4 H 0.7005 0.1705 0.0747
C5 C 0.8522(7) 0.1065(5) 0.1268(2)
H5 H 0.9364 0.0940 0.1023
C6 C 0.9064(7) 0.1448(5) 0.1726(2)
H6 H 0.9514 0.2114 0.1636
H7 H 0.9816 0.0901 0.1867
C7 C 0.7734(7) 0.1654(4) 0.2117(2)
C8 C 0.6539(6) 0.2501(4) 0.1885(2)
H8 H 0.6945 0.3187 0.1805
H9 H 0.5696 0.2615 0.2125
C9 C 0.5313(6) 0.1077(4) 0.1550(2)
H10 H 0.4982 0.0833 0.1255
H11 H 0.4454 0.1195 0.1783
C10 C 0.6483(7) 0.0204(5) 0.1782(2)
H12 H 0.6041 -0.0474 0.1874
C11 C 0.7825(7) 0.0002(5) 0.1411(2)
H13 H 0.7510 -0.0257 0.1117
H14 H 0.8559 -0.0551 0.1557
C12 C 0.7026(7) 0.0592(4) 0.2245(2)
H15 H 0.7754 0.0034 0.2391
H16 H 0.6191 0.0709 0.2488
C13 C 0.8246(7) 0.1997(4) 0.2595(2)
H17 H 0.7561 0.1774 0.2868
H18 H 0.9219 0.1603 0.2655
C14 C 0.8346(8) 0.3201(5) 0.2598(2)
C15 C 0.5895(8) 0.6586(5) 0.3568(2)
C16 C 0.4716(7) 0.7370(5) 0.3836(2)
H19 H 0.4105 0.6946 0.4071
H20 H 0.5221 0.7820 0.4020
C17 C 0.3712(7) 0.8102(5) 0.3485(2)
C18 C 0.2837(7) 0.9010(5) 0.3771(2)
H21 H 0.2242 0.8689 0.4048
H22 H 0.3530 0.9419 0.3903
C19 C 0.1820(7) 0.9774(5) 0.3431(2)
H23 H 0.1268 1.0346 0.3618
C20 C 0.2729(8) 1.0283(5) 0.2996(3)
H24 H 0.3430 1.0706 0.3114
H25 H 0.2074 1.0768 0.2783
C21 C 0.3568(7) 0.9390(5) 0.2705(2)
H26 H 0.4159 0.9720 0.2424
C22 C 0.4605(7) 0.8637(5) 0.3040(2)
H27 H 0.5318 0.9050 0.3159
H28 H 0.5156 0.8078 0.2853
C23 C 0.2583(6) 0.7470(4) 0.3288(2)
H29 H 0.3111 0.6886 0.3111
H30 H 0.1991 0.7147 0.3565
C24 C 0.1554(6) 0.8204(4) 0.2943(2)
C25 C 0.0730(7) 0.9106(5) 0.3239(2)
H31 H 0.0055 0.9580 0.3029
H32 H 0.0140 0.8783 0.3516
C26 C 0.2494(7) 0.8727(5) 0.2515(2)
H33 H 0.3046 0.8165 0.2330
H34 H 0.1845 0.9192 0.2293
C27 C 0.0399(7) 0.7575(5) 0.2766(2)
H35 H -0.0284 0.7396 0.3048
H36 H -0.0172 0.8059 0.2528
C28 C 0.0952(8) 0.6533(5) 0.2531(2)
C29 C 0.6010(7) 0.5920(5) 0.1945(2)
H37 H 0.5411 0.5366 0.2029
C30 C 0.7538(8) 0.7053(5) 0.1961(2)
H38 H 0.8237 0.7437 0.2073
C31 C 0.5289(7) 0.6427(5) 0.1067(2)
H39 H 0.4580 0.5902 0.1144
H40 H 0.6007 0.6166 0.0809
C32 C 0.4481(7) 0.7508(5) 0.0880(2)
C33 C 0.3500(8) 0.8102(5) 0.1182(2)
H41 H 0.3318 0.7827 0.1510
C34 C 0.2773(7) 0.9097(5) 0.1016(2)
H42 H 0.2116 0.9485 0.1232
C35 C 0.3010(7) 0.9529(5) 0.0526(2)
C36 C 0.4004(7) 0.8924(5) 0.0218(2)
H43 H 0.4177 0.9190 -0.0112
C37 C 0.4740(7) 0.7936(5) 0.0392(2)
H44 H 0.5417 0.7551 0.0181
C38 C 0.2208(7) 1.0582(5) 0.0336(2)
C39 C 0.2007(7) 1.1480(5) 0.0600(2)
H45 H 0.2449 1.1451 0.0898
C40 C 0.1151(7) 1.2426(5) 0.0424(2)
H46 H 0.1040 1.3028 0.0604
C41 C 0.0451(7) 1.2487(5) -0.0021(2)
C42 C 0.0704(8) 1.1604(5) -0.0290(2)
H47 H 0.0293 1.1636 -0.0595
C43 C 0.1567(8) 1.0667(5) -0.0113(2)
H48 H 0.1721 1.0077 -0.0301
C44 C -0.0660(8) 1.3471(5) -0.0177(2)
H49 H -0.1635 1.3232 -0.0186
H50 H -0.0736 1.3982 0.0071
C45 C -0.0945(7) 1.4084(5) -0.1082(2)
H51 H -0.1748 1.3714 -0.1122
C46 C 0.0758(7) 1.5071(5) -0.1196(2)
H52 H 0.1384 1.5557 -0.1353
C47 C 1.0225(8) 0.4952(5) 0.3892(2)
H53 H 1.0824 0.5439 0.3719
C48 C 0.8579(7) 0.3943(5) 0.4054(2)
H54 H 0.7784 0.3549 0.4034
C49 C 0.9084(8) 0.3327(5) 0.4940(2)
H55 H 0.8115 0.3066 0.4962
H56 H 0.9064 0.3833 0.5188
C50 C 1.0245(7) 0.2379(5) 0.5058(2)
C51 C 1.0584(8) 0.1550(5) 0.4755(2)
H57 H 1.0155 0.1615 0.4452
C52 C 1.1525(8) 0.0640(5) 0.4885(2)
H58 H 1.1734 0.0097 0.4671
C53 C 1.2176(7) 0.0520(5) 0.5336(2)
C54 C 1.1889(7) 0.1368(5) 0.5631(2)
H59 H 1.2343 0.1320 0.5928
C55 C 1.0939(8) 0.2284(5) 0.5491(2)
H60 H 1.0767 0.2847 0.5694
C56 C 1.3133(7) -0.0501(5) 0.5494(2)
C57 C 1.4017(8) -0.1109(5) 0.5158(2)
H61 H 1.4014 -0.0867 0.4822
C58 C 1.4904(8) -0.2066(5) 0.5304(2)
H62 H 1.5488 -0.2448 0.5068
C59 C 1.4918(7) -0.2452(5) 0.5805(2)
C60 C 1.4064(8) -0.1852(6) 0.6137(2)
H63 H 1.4084 -0.2088 0.6473
C61 C 1.3158(8) -0.0891(6) 0.5989(2)
H64 H 1.2570 -0.0514 0.6225
C62 C 1.5886(7) -0.3500(5) 0.5968(2)
H65 H 1.5262 -0.4083 0.6041
H66 H 1.6605 -0.3691 0.5698
C63 C 1.6626(7) -0.3961(5) 0.6844(2)
H67 H 1.6005 -0.4495 0.6944
C64 C 1.8231(7) -0.2892(4) 0.6817(2)
H68 H 1.8974 -0.2526 0.6915
N1 N 0.6925(6) 0.6224(4) 0.22401(18)
N2 N 0.6063(6) 0.6516(4) 0.15104(18)
N3 N 0.7032(7) 0.7252(4) 0.1513(2)
N4 N -0.0330(6) 1.4730(4) -0.14286(18)
N5 N -0.0255(6) 1.4030(4) -0.06608(18)
N6 N 0.0872(6) 1.4667(4) -0.07322(19)
N7 N 0.9091(6) 0.4601(4) 0.36882(18)
N8 N 0.9326(6) 0.3907(4) 0.44517(18)
N9 N 1.0422(6) 0.4555(4) 0.43507(19)
N10 N 1.7575(6) -0.3654(4) 0.71221(18)
N11 N 1.6675(6) -0.3405(4) 0.64037(18)
N12 N 1.7733(6) -0.2713(4) 0.6375(2)
O1 O 0.2528(5) 0.2991(3) 0.16403(17)
O2 O 0.3718(5) 0.4390(3) 0.16826(16)
O3 O 0.7383(6) 0.3697(3) 0.28755(17)
O4 O 0.9325(6) 0.3626(4) 0.23391(18)
O5 O 0.5526(5) 0.5705(3) 0.34599(17)
O6 O 0.7152(5) 0.6872(3) 0.34407(18)
O7 O 0.2053(6) 0.6409(4) 0.22416(19)
O8 O 0.0164(5) 0.5744(3) 0.26467(15)
Cd1_2 Cd -0.21420(5) 0.53785(3) 0.297528(16)
Cd2_2 Cd 1.85384(5) -0.44703(3) 0.785380(15)
Cd2A Cd 0.14616(5) 0.44703(3) 0.214620(15)
Cd2A_2 Cd 1.14616(5) 0.44703(3) 0.214620(15)
N10_2 N -0.2425(6) 1.6346(4) -0.28779(18)
O1A O -0.2528(5) 1.7009(3) -0.16403(17)
O2A O -0.3718(5) 1.5610(3) -0.16826(16)
O4A O 0.0675(6) 1.6374(4) -0.23391(18)
O7A O -0.2053(6) 1.3591(4) -0.22416(19)
O8_2 O 1.0164(5) 0.5744(3) 0.26467(15)
O8A O -0.0164(5) 1.4256(3) -0.26467(15)
loop_
_geom_bond_atom_site_label_1
_geom_bond_atom_site_label_2
_geom_bond_site_symmetry_1
_geom_bond_site_symmetry_2
Cd1 N1 1_555 1_555
Cd2 N4 1_555 1_555
C1 C2 1_555 1_555
C2 H1 1_555 1_555
H2 C2 1_555 1_555
C3 C2 1_555 1_555
C4 C3 1_555 1_555
H3 C4 1_555 1_555
H4 C4 1_555 1_555
C5 C4 1_555 1_555
H5 C5 1_555 1_555
C6 C5 1_555 1_555
H6 C6 1_555 1_555
H7 C6 1_555 1_555
C7 C6 1_555 1_555
C8 C3 1_555 1_555
H8 C8 1_555 1_555
H9 C8 1_555 1_555
C9 C3 1_555 1_555
H10 C9 1_555 1_555
H11 C9 1_555 1_555
C10 C9 1_555 1_555
H12 C10 1_555 1_555
C11 C5 1_555 1_555
H13 C11 1_555 1_555
H14 C11 1_555 1_555
C12 C7 1_555 1_555
H15 C12 1_555 1_555
H16 C12 1_555 1_555
C13 C7 1_555 1_555
H17 C13 1_555 1_555
H18 C13 1_555 1_555
C14 C13 1_555 1_555
C15 C16 1_555 1_555
C16 H19 1_555 1_555
H20 C16 1_555 1_555
C17 C16 1_555 1_555
C18 C17 1_555 1_555
H21 C18 1_555 1_555
H22 C18 1_555 1_555
C19 C18 1_555 1_555
H23 C19 1_555 1_555
C20 C19 1_555 1_555
H24 C20 1_555 1_555
H25 C20 1_555 1_555
C21 C20 1_555 1_555
H26 C21 1_555 1_555
C22 C17 1_555 1_555
H27 C22 1_555 1_555
H28 C22 1_555 1_555
C23 C17 1_555 1_555
H29 C23 1_555 1_555
H30 C23 1_555 1_555
C24 C23 1_555 1_555
C25 C19 1_555 1_555
H31 C25 1_555 1_555
H32 C25 1_555 1_555
C26 C21 1_555 1_555
H33 C26 1_555 1_555
H34 C26 1_555 1_555
C27 C24 1_555 1_555
H35 C27 1_555 1_555
H36 C27 1_555 1_555
C28 C27 1_555 1_555
C29 H37 1_555 1_555
C30 H38 1_555 1_555
C31 H39 1_555 1_555
H40 C31 1_555 1_555
C32 C31 1_555 1_555
C33 C32 1_555 1_555
H41 C33 1_555 1_555
C34 C33 1_555 1_555
H42 C34 1_555 1_555
C35 C34 1_555 1_555
C36 C35 1_555 1_555
H43 C36 1_555 1_555
C37 C32 1_555 1_555
H44 C37 1_555 1_555
C38 C35 1_555 1_555
C39 C38 1_555 1_555
H45 C39 1_555 1_555
C40 C39 1_555 1_555
H46 C40 1_555 1_555
C41 C40 1_555 1_555
C42 C41 1_555 1_555
H47 C42 1_555 1_555
C43 C38 1_555 1_555
H48 C43 1_555 1_555
C44 C41 1_555 1_555
H49 C44 1_555 1_555
H50 C44 1_555 1_555
C45 H51 1_555 1_555
C46 H52 1_555 1_555
C47 H53 1_555 1_555
C48 H54 1_555 1_555
C49 H55 1_555 1_555
H56 C49 1_555 1_555
C50 C49 1_555 1_555
C51 C50 1_555 1_555
H57 C51 1_555 1_555
C52 C51 1_555 1_555
H58 C52 1_555 1_555
C53 C52 1_555 1_555
C54 C53 1_555 1_555
H59 C54 1_555 1_555
C55 C50 1_555 1_555
H60 C55 1_555 1_555
C56 C53 1_555 1_555
C57 C56 1_555 1_555
H61 C57 1_555 1_555
C58 C57 1_555 1_555
H62 C58 1_555 1_555
C59 C58 1_555 1_555
C60 C59 1_555 1_555
H63 C60 1_555 1_555
C61 C56 1_555 1_555
H64 C61 1_555 1_555
C62 C59 1_555 1_555
H65 C62 1_555 1_555
H66 C62 1_555 1_555
C63 H67 1_555 1_555
C64 H68 1_555 1_555
N1 C29 1_555 1_555
N2 C29 1_555 1_555
N3 C30 1_555 1_555
N4 C45 1_555 1_555
N5 C44 1_555 1_555
N6 C46 1_555 1_555
N7 Cd1 1_555 1_555
N8 C48 1_555 1_555
N9 C47 1_555 1_555
N10 C63 1_555 1_555
N11 C62 1_555 1_555
N12 C64 1_555 1_555
O1 C1 1_555 1_555
O2 C1 1_555 1_555
O3 Cd1 1_555 1_555
O4 C14 1_555 1_555
O5 Cd1 1_555 1_555
O6 Cd1 1_555 1_555
O7 C28 1_555 1_555
O8 C28 1_555 1_555
Cd1_2 O8 1_555 1_555
Cd2_2 N10 1_555 1_555
Cd2A O1 1_555 1_555
Cd2A_2 O4 1_555 1_555
N10_2 Cd2 1_555 1_555
O1A Cd2 1_555 1_555
O2A Cd2 1_555 1_555
O4A Cd2 1_555 1_555
O7A Cd2 1_555 1_555
O8_2 Cd1 1_555 1_555
O8A Cd2 1_555 1_555
C7 C8 1_555 1_555
C10 C11 1_555 1_555
C10 C12 1_555 1_555
C14 O3 1_555 1_555
C15 O5 1_555 1_555
C15 O6 1_555 1_555
C21 C22 1_555 1_555
C24 C25 1_555 1_555
C24 C26 1_555 1_555
C30 N1 1_555 1_555
C31 N2 1_555 1_555
C36 C37 1_555 1_555
C42 C43 1_555 1_555
C45 N5 1_555 1_555
C46 N4 1_555 1_555
C47 N7 1_555 1_555
C48 N7 1_555 1_555
C49 N8 1_555 1_555
C54 C55 1_555 1_555
C60 C61 1_555 1_555
C63 N11 1_555 1_555
C64 N10 1_555 1_555
N2 N3 1_555 1_555
N5 N6 1_555 1_555
N8 N9 1_555 1_555
N11 N12 1_555 1_555
O2 Cd2A 1_555 1_555
O7 Cd2A 1_555 1_555
O8 Cd2A 1_555 1_555
Cd2A_2 O8_2 1_555 1_555

#END
