
#######################################################################
#
#                 Cambridge Crystallographic Data Centre
#                                CCDC 
#
#######################################################################
#
# If this CIF has been generated from an entry in the Cambridge 
# Structural Database, then it will include bibliographic, chemical, 
# crystal, experimental, refinement or atomic coordinate data resulting 
# from the CCDC's data processing and validation procedures.
#
#######################################################################

data_ETEWEG
_symmetry_cell_setting           triclinic
_symmetry_space_group_name_H-M   'P -1'
_symmetry_Int_Tables_number      2
_space_group_name_Hall           '-P 1'
loop_
_symmetry_equiv_pos_site_id
_symmetry_equiv_pos_as_xyz
1 x,y,z
2 -x,-y,-z
_cell_length_a                   10.2524(13)
_cell_length_b                   10.5382(13)
_cell_length_c                   16.458(2)
_cell_angle_alpha                72.288(2)
_cell_angle_beta                 84.972(2)
_cell_angle_gamma                61.580(2)
_cell_volume                     1486.25
loop_
_atom_site_label
_atom_site_type_symbol
_atom_site_fract_x
_atom_site_fract_y
_atom_site_fract_z
Cd1 Cd 0.60176(4) 0.73327(4) 0.92149(2)
C1 C 0.6005(7) 0.5889(7) 1.1282(4)
H1 H 0.5947 0.5093 1.1185
C2 C 0.6185(6) 0.7873(6) 1.1050(3)
H2 H 0.6268 0.8746 1.0789
C3 C 0.6035(7) 0.8030(7) 1.2541(4)
H3 H 0.5086 0.8279 1.2794
H4 H 0.6065 0.8971 1.2267
C4 C 0.7256(6) 0.7074(6) 1.3244(3)
C5 C 0.8589(7) 0.5849(7) 1.3200(4)
H5 H 0.8769 0.5553 1.2706
C6 C 0.9666(7) 0.5046(7) 1.3873(4)
H6 H 1.0561 0.4235 1.3820
C7 C 0.9423(6) 0.5444(7) 1.4633(3)
C8 C 0.8127(7) 0.6722(8) 1.4641(4)
H7 H 0.7958 0.7067 1.5117
C9 C 0.7070(7) 0.7508(8) 1.3966(4)
H8 H 0.6202 0.8360 1.4002
C10 C 0.5818(8) 0.6410(8) 0.7505(4)
H9 H 0.5555 0.5693 0.7842
C11 C 0.6495(8) 0.8026(9) 0.7092(4)
H10 H 0.6825 0.8708 0.7096
C12 C 0.5323(8) 0.6216(9) 0.6091(5)
H11 H 0.5358 0.5255 0.6401
H12 H 0.5977 0.6066 0.5627
C13 C 0.3739(10) 0.7374(9) 0.5729(6)
C14 C 0.3331(10) 0.8809(9) 0.5238(6)
H13 H 0.4051 0.9121 0.5083
C15 C 0.1874(10) 0.9810(10) 0.4967(6)
H14 H 0.1638 1.0794 0.4643
C16 C 0.0783(9) 0.9454(9) 0.5139(6)
C17 C 0.1190(10) 0.8015(9) 0.5617(6)
H15 H 0.0463 0.7714 0.5775
C18 C 0.2688(9) 0.6958(10) 0.5883(6)
H16 H 0.2942 0.5954 0.6170
C19 C 0.2958(6) 0.8496(6) 0.8894(3)
C20 C 0.1343(5) 0.9365(6) 0.8524(3)
C21 C 0.1390(6) 0.9585(7) 0.7553(3)
H17 H 0.1944 1.0126 0.7303
H18 H 0.1890 0.8607 0.7451
C22 C -0.0188(7) 1.0476(9) 0.7137(4)
H19 H -0.0152 1.0605 0.6522
C23 C -0.1045(6) 0.9615(7) 0.7529(3)
H20 H -0.0556 0.8633 0.7433
H21 H -0.2042 1.0167 0.7257
C24 C -0.1125(6) 0.9409(6) 0.8495(3)
C25 C 0.0470(5) 0.8520(6) 0.8905(3)
H22 H 0.0446 0.8367 0.9516
H23 H 0.0960 0.7535 0.8811
C26 C 0.0554(6) 1.0959(6) 0.8653(4)
H24 H 0.0544 1.0856 0.9260
H25 H 0.1099 1.1503 0.8391
C27 C -0.1038(6) 1.1849(7) 0.8254(5)
H26 H -0.1535 1.2839 0.8355
C28 C -0.0972(7) 1.2054(7) 0.7288(4)
H27 H -0.0427 1.2604 0.7038
H28 H -0.1970 1.2633 0.7015
C29 C -0.1892(6) 1.0966(6) 0.8648(4)
H29 H -0.2903 1.1533 0.8393
H30 H -0.1934 1.0837 0.9257
C30 C -0.2035(6) 0.8586(7) 0.8829(4)
N1 N 0.6118(5) 0.6987(5) 1.0652(3)
N2 N 0.5985(6) 0.6035(6) 1.2038(3)
N3 N 0.6117(5) 0.7316(5) 1.1886(3)
N4 N 0.6203(6) 0.7191(6) 0.7806(3)
N5 N 0.6275(8) 0.7794(8) 0.6388(4)
N6 N 0.5840(6) 0.6742(6) 0.6674(3)
O1 O 0.3584(4) 0.7104(4) 0.9209(3)
O2 O 0.3638(4) 0.9248(5) 0.8845(3)
O3 O -0.1396(4) 0.7179(5) 0.9195(3)
O4 O -0.3396(4) 0.9305(5) 0.8717(3)
O5 O 0.7107(5) 0.4762(5) 0.9462(3)
H31 H 0.7015 0.4108 0.9874
H32 H 0.8014 0.4522 0.9440
Cd1A Cd -0.60176(4) 1.26673(4) 0.07851(2)
Cd1_2 Cd -0.39824(4) 0.73327(4) 0.92149(2)
Cd1A_2 Cd 0.39824(4) 1.26673(4) 0.07851(2)
Cd1A_3 Cd 1.39824(4) 0.26673(4) 2.07851(2)
C1A C 1.3995(7) 0.4111(7) 1.8718(4)
H1A H 1.4053 0.4907 1.8815
C2A C 1.3815(6) 0.2127(6) 1.8950(3)
H2A H 1.3732 0.1254 1.9211
C3A C 1.3965(7) 0.1970(7) 1.7459(4)
H3A H 1.4914 0.1721 1.7206
H4A H 1.3935 0.1029 1.7733
C4A C 1.2744(6) 0.2926(6) 1.6756(3)
C5A C 1.1411(7) 0.4151(7) 1.6800(4)
H5A H 1.1231 0.4447 1.7294
C6A C 1.0334(7) 0.4954(7) 1.6127(4)
H6A H 0.9439 0.5765 1.6180
C7A C 1.0577(6) 0.4556(7) 1.5367(3)
C8A C 1.1873(7) 0.3278(8) 1.5359(4)
H7A H 1.2042 0.2933 1.4883
C9A C 1.2930(7) 0.2492(8) 1.6034(4)
H8A H 1.3798 0.1640 1.5998
C10A C -0.5818(8) 1.3590(8) 0.2495(4)
H9A H -0.5555 1.4307 0.2158
C11A C -0.6495(8) 1.1974(9) 0.2908(4)
H10A H -0.6825 1.1292 0.2904
C12A C -0.5323(8) 1.3784(9) 0.3909(5)
H11A H -0.5358 1.4745 0.3599
H12A H -0.5977 1.3934 0.4373
C13A C -0.3739(10) 1.2626(9) 0.4271(6)
C14A C -0.3331(10) 1.1191(9) 0.4762(6)
H13A H -0.4051 1.0879 0.4917
C15A C -0.1874(10) 1.0190(10) 0.5033(6)
H14A H -0.1638 0.9206 0.5357
C16A C -0.0783(9) 1.0546(9) 0.4861(6)
C17A C -0.1190(10) 1.1985(9) 0.4383(6)
H15A H -0.0463 1.2286 0.4225
C18A C -0.2688(9) 1.3042(10) 0.4117(6)
H16A H -0.2942 1.4046 0.3830
C19A C -0.2958(6) 1.1504(6) 0.1106(3)
C20A C -0.1343(5) 1.0635(6) 0.1476(3)
C21A C -0.1390(6) 1.0415(7) 0.2447(3)
H17A H -0.1944 0.9874 0.2697
H18A H -0.1890 1.1393 0.2549
C22A C 0.0188(7) 0.9524(9) 0.2863(4)
H19A H 0.0152 0.9395 0.3478
C23A C 0.1045(6) 1.0385(7) 0.2471(3)
H20A H 0.0556 1.1367 0.2567
H21A H 0.2042 0.9833 0.2743
C24A C 0.1125(6) 1.0591(6) 0.1505(3)
C25A C -0.0470(5) 1.1480(6) 0.1095(3)
H22A H -0.0446 1.1633 0.0484
H23A H -0.0960 1.2465 0.1189
C26A C -0.0554(6) 0.9041(6) 0.1347(4)
H24A H -0.0544 0.9144 0.0740
H25A H -0.1099 0.8497 0.1609
C27A C 0.1038(6) 0.8151(7) 0.1746(5)
H26A H 0.1535 0.7161 0.1645
C28A C 0.0972(7) 0.7946(7) 0.2712(4)
H27A H 0.0427 0.7396 0.2962
H28A H 0.1970 0.7367 0.2985
C29A C 0.1892(6) 0.9034(6) 0.1352(4)
H29A H 0.2903 0.8467 0.1607
H30A H 0.1934 0.9163 0.0743
C30A C 0.2035(6) 1.1414(7) 0.1171(4)
N1A N 1.3882(5) 0.3013(5) 1.9348(3)
N1A_2 N -0.6118(5) 1.3013(5) -0.0652(3)
N2A N 1.4015(6) 0.3965(6) 1.7962(3)
N3A N 1.3883(5) 0.2684(5) 1.8114(3)
N4A N -0.6203(6) 1.2809(6) 0.2194(3)
N5A N -0.6275(8) 1.2206(8) 0.3612(4)
N6A N -0.5840(6) 1.3258(6) 0.3326(3)
O1A O -0.3584(4) 1.2896(4) 0.0791(3)
O2A O -0.3638(4) 1.0752(5) 0.1155(3)
O3A O 0.1396(4) 1.2821(5) 0.0805(3)
O3_2 O 0.8604(4) 0.7179(5) 0.9195(3)
O3A_2 O -0.8604(4) 1.2821(5) 0.0805(3)
O4A O 0.3396(4) 1.0695(5) 0.1283(3)
O4_2 O 0.6604(4) 0.9305(5) 0.8717(3)
O4A_2 O -0.6604(4) 1.0695(5) 0.1283(3)
O5A O -0.7107(5) 1.5238(5) 0.0538(3)
H31A H -0.7015 1.5892 0.0126
H32A H -0.8014 1.5478 0.0560
O6 O 0.9993(5) 0.5789(5) 0.0899(3)
H33 H 0.9573 0.5994 0.0421
H34 H 1.0183 0.4868 0.1156
loop_
_geom_bond_atom_site_label_1
_geom_bond_atom_site_label_2
_geom_bond_site_symmetry_1
_geom_bond_site_symmetry_2
Cd1 N1 1_555 1_555
C1 H1 1_555 1_555
C2 H2 1_555 1_555
C3 H3 1_555 1_555
H4 C3 1_555 1_555
C4 C3 1_555 1_555
C5 C4 1_555 1_555
H5 C5 1_555 1_555
C6 C5 1_555 1_555
H6 C6 1_555 1_555
C7 C6 1_555 1_555
C8 C7 1_555 1_555
H7 C8 1_555 1_555
C9 C4 1_555 1_555
H8 C9 1_555 1_555
C10 H9 1_555 1_555
C11 H10 1_555 1_555
C12 H11 1_555 1_555
H12 C12 1_555 1_555
C13 C12 1_555 1_555
C14 C13 1_555 1_555
H13 C14 1_555 1_555
C15 C14 1_555 1_555
H14 C15 1_555 1_555
C16 C15 1_555 1_555
C17 C16 1_555 1_555
H15 C17 1_555 1_555
C18 C13 1_555 1_555
H16 C18 1_555 1_555
C19 C20 1_555 1_555
C20 C21 1_555 1_555
C21 H17 1_555 1_555
H18 C21 1_555 1_555
C22 C21 1_555 1_555
H19 C22 1_555 1_555
C23 C22 1_555 1_555
H20 C23 1_555 1_555
H21 C23 1_555 1_555
C24 C23 1_555 1_555
C25 C20 1_555 1_555
H22 C25 1_555 1_555
H23 C25 1_555 1_555
C26 C20 1_555 1_555
H24 C26 1_555 1_555
H25 C26 1_555 1_555
C27 C26 1_555 1_555
H26 C27 1_555 1_555
C28 C22 1_555 1_555
H27 C28 1_555 1_555
H28 C28 1_555 1_555
C29 C24 1_555 1_555
H29 C29 1_555 1_555
H30 C29 1_555 1_555
C30 C24 1_555 1_555
N1 C1 1_555 1_555
N2 C1 1_555 1_555
N3 C2 1_555 1_555
N4 Cd1 1_555 1_555
N5 C11 1_555 1_555
N6 C10 1_555 1_555
O1 Cd1 1_555 1_555
O2 Cd1 1_555 1_555
O3 C30 1_555 1_555
O4 C30 1_555 1_555
O5 Cd1 1_555 1_555
O6 H33 1_555 1_555
H31 O5 1_555 1_555
H32 O5 1_555 1_555
H34 O6 1_555 1_555
Cd1A N1A_2 1_555 1_555
Cd1_2 O3 1_555 1_555
Cd1A_2 O3A 1_555 1_555
Cd1A_3 N1A 1_555 1_555
C1A H1A 1_555 1_555
C2A H2A 1_555 1_555
C3A H3A 1_555 1_555
H4A C3A 1_555 1_555
C4A C3A 1_555 1_555
C5A C4A 1_555 1_555
H5A C5A 1_555 1_555
C6A C5A 1_555 1_555
H6A C6A 1_555 1_555
C7A C7 1_555 1_555
C8A C7A 1_555 1_555
H7A C8A 1_555 1_555
C9A C4A 1_555 1_555
H8A C9A 1_555 1_555
C10A H9A 1_555 1_555
C11A H10A 1_555 1_555
C12A H11A 1_555 1_555
H12A C12A 1_555 1_555
C13A C12A 1_555 1_555
C14A C13A 1_555 1_555
H13A C14A 1_555 1_555
C15A C14A 1_555 1_555
H14A C15A 1_555 1_555
C16A C16 1_555 1_555
C17A C16A 1_555 1_555
H15A C17A 1_555 1_555
C18A C13A 1_555 1_555
H16A C18A 1_555 1_555
C19A C20A 1_555 1_555
C20A C21A 1_555 1_555
C21A H17A 1_555 1_555
H18A C21A 1_555 1_555
C22A C21A 1_555 1_555
H19A C22A 1_555 1_555
C23A C22A 1_555 1_555
H20A C23A 1_555 1_555
H21A C23A 1_555 1_555
C24A C23A 1_555 1_555
C25A C20A 1_555 1_555
H22A C25A 1_555 1_555
H23A C25A 1_555 1_555
C26A C20A 1_555 1_555
H24A C26A 1_555 1_555
H25A C26A 1_555 1_555
C27A C26A 1_555 1_555
H26A C27A 1_555 1_555
C28A C22A 1_555 1_555
H27A C28A 1_555 1_555
H28A C28A 1_555 1_555
C29A C24A 1_555 1_555
H29A C29A 1_555 1_555
H30A C29A 1_555 1_555
C30A C24A 1_555 1_555
N1A C1A 1_555 1_555
N2A C1A 1_555 1_555
N3A C2A 1_555 1_555
N4A Cd1A 1_555 1_555
N5A C11A 1_555 1_555
N6A C10A 1_555 1_555
O1A Cd1A 1_555 1_555
O2A Cd1A 1_555 1_555
O3A C30A 1_555 1_555
O3_2 Cd1 1_555 1_555
O3A_2 Cd1A 1_555 1_555
O4A Cd1A_2 1_555 1_555
O4_2 Cd1 1_555 1_555
O4A_2 Cd1A 1_555 1_555
O5A Cd1A 1_555 1_555
H31A O5A 1_555 1_555
H32A O5A 1_555 1_555
C2 N1 1_555 1_555
C3 N3 1_555 1_555
C8 C9 1_555 1_555
C10 N4 1_555 1_555
C11 N4 1_555 1_555
C12 N6 1_555 1_555
C17 C18 1_555 1_555
C19 O1 1_555 1_555
C19 O2 1_555 1_555
C24 C25 1_555 1_555
C27 C28 1_555 1_555
C27 C29 1_555 1_555
N2 N3 1_555 1_555
N5 N6 1_555 1_555
O4 Cd1_2 1_555 1_555
C2A N1A 1_555 1_555
C3A N3A 1_555 1_555
C6A C7A 1_555 1_555
C8A C9A 1_555 1_555
C10A N4A 1_555 1_555
C11A N4A 1_555 1_555
C12A N6A 1_555 1_555
C15A C16A 1_555 1_555
C17A C18A 1_555 1_555
C19A O1A 1_555 1_555
C19A O2A 1_555 1_555
C24A C25A 1_555 1_555
C27A C28A 1_555 1_555
C27A C29A 1_555 1_555
C30A O4A 1_555 1_555
N2A N3A 1_555 1_555
N5A N6A 1_555 1_555

#END
