
#######################################################################
#
#                 Cambridge Crystallographic Data Centre
#                                CCDC 
#
#######################################################################
#
# If this CIF has been generated from an entry in the Cambridge 
# Structural Database, then it will include bibliographic, chemical, 
# crystal, experimental, refinement or atomic coordinate data resulting 
# from the CCDC's data processing and validation procedures.
#
#######################################################################

data_ETIFOD
_symmetry_cell_setting           monoclinic
_symmetry_space_group_name_H-M   'P 21'
_symmetry_Int_Tables_number      4
_space_group_name_Hall           'P 2yb'
loop_
_symmetry_equiv_pos_site_id
_symmetry_equiv_pos_as_xyz
1 x,y,z
2 -x,1/2+y,-z
_cell_length_a                   8.662(5)
_cell_length_b                   9.998(5)
_cell_length_c                   12.599(5)
_cell_angle_alpha                90
_cell_angle_beta                 107.466(5)
_cell_angle_gamma                90
_cell_volume                     1040.8
loop_
_atom_site_label
_atom_site_type_symbol
_atom_site_fract_x
_atom_site_fract_y
_atom_site_fract_z
Cu1 Cu 0.45416(4) 0.17280(4) 0.22539(3)
S1 S 0.29794(7) 0.16232(10) 0.01554(5)
F1 F 0.9499(2) -0.1432(2) 0.30706(19)
O1 O 0.6691(3) -0.0604(3) 0.14946(19)
N1 N 0.4523(3) -0.1441(3) -0.2313(2)
C1 C 0.4273(3) 0.0673(3) -0.1479(2)
F2 F 1.0034(3) 0.0213(3) 0.2177(2)
O2 O 0.6810(2) 0.1085(2) 0.26940(19)
C2 C 0.4908(4) -0.0589(3) -0.1450(2)
H1 H 0.5653 -0.0872 -0.0790
C3 C 0.2857(4) 0.0268(3) -0.3399(3)
H2 H 0.2167 0.0550 -0.4080
C4 C 0.1453(4) -0.0711(3) -0.0680(3)
H3 H 0.1147 -0.0249 -0.1352
F3 F 0.9797(3) 0.0487(3) 0.3800(2)
C5 C 0.1339(3) -0.2709(3) 0.0333(2)
H4 H 0.1002 -0.3590 0.0350
C6 C 0.2798(3) -0.0754(3) 0.1290(2)
C7 C 0.3255(4) 0.1120(3) -0.2491(2)
H5 H 0.2843 0.1986 -0.2558
N2 N 0.3686(3) -0.0116(3) 0.22469(18)
C8 C 0.2263(3) -0.2090(3) 0.1330(2)
C9 C 0.2400(3) -0.0072(3) 0.0252(2)
C10 C 0.4670(3) 0.1496(3) -0.0447(2)
H6 H 0.4971 0.2388 -0.0614
H7 H 0.5597 0.1105 0.0102
C11 C 0.2670(4) -0.2749(3) 0.2364(3)
H8 H 0.2332 -0.3625 0.2405
C12 C 0.0931(4) -0.2036(4) -0.0657(3)
H9 H 0.0315 -0.2451 -0.1306
C13 C 0.3555(4) -0.2111(3) 0.3302(3)
H10 H 0.3832 -0.2538 0.3990
C14 C 0.7357(4) 0.0119(3) 0.2282(3)
C15 C 0.9180(4) -0.0142(4) 0.2846(3)
C16 C 0.3497(4) -0.1003(3) -0.3278(3)
H11 H 0.3210 -0.1579 -0.3885
C17 C 0.4045(4) -0.0773(3) 0.3202(3)
H12 H 0.4651 -0.0335 0.3843
O3 O 0.2609(2) 0.2596(2) 0.25871(17)
F4 F 0.2486(4) 0.4765(3) 0.4274(2)
O4 O 0.4163(3) 0.2141(3) 0.42994(18)
F5 F 0.0401(3) 0.3620(3) 0.3446(2)
C18 C 0.3004(4) 0.2651(4) 0.3626(3)
C19 C 0.1889(4) 0.3523(4) 0.4098(3)
F6 F 0.1834(4) 0.3107(3) 0.50674(18)
Cu1A Cu 0.54584(4) -0.32720(4) -0.22539(3)
N1A N 0.5477(3) 0.3559(3) 0.2313(2)
loop_
_geom_bond_atom_site_label_1
_geom_bond_atom_site_label_2
_geom_bond_site_symmetry_1
_geom_bond_site_symmetry_2
Cu1 S1 1_555 1_555
S1 C9 1_555 1_555
F1 C15 1_555 1_555
O1 C14 1_555 1_555
N1 C2 1_555 1_555
C1 C2 1_555 1_555
F2 C15 1_555 1_555
O2 Cu1 1_555 1_555
C2 H1 1_555 1_555
C3 H2 1_555 1_555
C4 H3 1_555 1_555
F3 C15 1_555 1_555
C5 H4 1_555 1_555
C6 N2 1_555 1_555
C7 C1 1_555 1_555
H5 C7 1_555 1_555
N2 Cu1 1_555 1_555
C8 C5 1_555 1_555
C9 C4 1_555 1_555
C10 S1 1_555 1_555
H6 C10 1_555 1_555
H7 C10 1_555 1_555
C11 C8 1_555 1_555
H8 C11 1_555 1_555
C12 C4 1_555 1_555
H9 C12 1_555 1_555
C13 C11 1_555 1_555
H10 C13 1_555 1_555
C14 O2 1_555 1_555
C15 C14 1_555 1_555
C16 N1 1_555 1_555
H11 C16 1_555 1_555
C17 N2 1_555 1_555
H12 C17 1_555 1_555
O3 Cu1 1_555 1_555
F4 C19 1_555 1_555
O4 Cu1 1_555 1_555
F5 C19 1_555 1_555
C18 O3 1_555 1_555
C19 C18 1_555 1_555
F6 C19 1_555 1_555
Cu1A N1 1_555 1_555
N1A Cu1 1_555 1_555
C1 C10 1_555 1_555
C3 C7 1_555 1_555
C3 C16 1_555 1_555
C5 C12 1_555 1_555
C6 C8 1_555 1_555
C6 C9 1_555 1_555
C13 C17 1_555 1_555
O4 C18 1_555 1_555

#END
