
#######################################################################
#
#                 Cambridge Crystallographic Data Centre
#                                CCDC 
#
#######################################################################
#
# If this CIF has been generated from an entry in the Cambridge 
# Structural Database, then it will include bibliographic, chemical, 
# crystal, experimental, refinement or atomic coordinate data resulting 
# from the CCDC's data processing and validation procedures.
#
#######################################################################

data_ETIFIX
_symmetry_cell_setting           monoclinic
_symmetry_space_group_name_H-M   'P 21/n'
_symmetry_Int_Tables_number      14
_space_group_name_Hall           '-P 2yn'
loop_
_symmetry_equiv_pos_site_id
_symmetry_equiv_pos_as_xyz
1 x,y,z
2 1/2-x,1/2+y,1/2-z
3 -x,-y,-z
4 1/2+x,1/2-y,1/2+z
_cell_length_a                   5.9564(2)
_cell_length_b                   15.1911(7)
_cell_length_c                   14.8779(6)
_cell_angle_alpha                90
_cell_angle_beta                 92.298(2)
_cell_angle_gamma                90
_cell_volume                     1345.13
loop_
_atom_site_label
_atom_site_type_symbol
_atom_site_fract_x
_atom_site_fract_y
_atom_site_fract_z
Cu1 Cu 0.21386(6) 0.98004(3) 0.55441(3)
O1 O -0.0016(3) 1.07379(15) 0.53129(14)
N1 N 0.3694(4) 1.06656(19) 0.62532(17)
C1 C 0.0447(5) 1.1464(2) 0.5796(2)
O2 O 0.4367(4) 0.89342(15) 0.57487(14)
N2 N 0.5466(4) 1.05703(19) 0.67707(17)
C2 C -0.0956(5) 1.2190(2) 0.5826(2)
H1 H -0.2344 1.2194 0.5488
O3 O 1.0532(3) 0.95230(15) 0.70343(15)
C3 C -0.0333(5) 1.2906(2) 0.6346(2)
H2 H -0.1306 1.3401 0.6364
C4 C 0.1707(5) 1.2921(2) 0.6851(2)
H3 H 0.2123 1.3423 0.7200
C5 C 0.3109(5) 1.2193(2) 0.6833(2)
H4 H 0.4489 1.2192 0.7176
C6 C 0.2498(5) 1.1466(2) 0.6314(2)
C7 C 0.6663(5) 0.9804(2) 0.6754(2)
C8 C 0.8799(5) 0.9871(2) 0.7296(2)
C9 C 0.8863(5) 1.0365(2) 0.8160(2)
C10 C 0.7073(5) 1.0393(2) 0.8726(2)
H5 H 0.5681 1.0132 0.8540
C11 C 0.7287(5) 1.0797(2) 0.9554(2)
H6 H 0.6051 1.0804 0.9938
C12 C 0.9302(6) 1.1195(2) 0.9831(2)
H7 H 0.9455 1.1469 1.0404
C13 C 1.1087(5) 1.1186(2) 0.9258(2)
H8 H 1.2447 1.1479 0.9431
C14 C 1.0904(5) 1.0759(2) 0.8446(2)
H9 H 1.2162 1.0730 0.8075
C15 C 0.6104(5) 0.9014(2) 0.6277(2)
C16 C 0.7444(5) 0.8190(2) 0.6401(2)
H10 H 0.6425 0.7686 0.6444
H11 H 0.8388 0.8233 0.6954
H12 H 0.8398 0.8108 0.5886
Cu1B Cu -0.21386(6) 1.01996(3) 0.44559(3)
Cu1_2 Cu 1.21386(6) 0.98004(3) 0.55441(3)
O1B O 0.0016(3) 0.92621(15) 0.46871(14)
O3_2 O 0.0532(3) 0.95230(15) 0.70343(15)
loop_
_geom_bond_atom_site_label_1
_geom_bond_atom_site_label_2
_geom_bond_site_symmetry_1
_geom_bond_site_symmetry_2
Cu1 O1 1_555 1_555
O1 C1 1_555 1_555
N1 Cu1 1_555 1_555
C1 C2 1_555 1_555
O2 Cu1 1_555 1_555
N2 N1 1_555 1_555
C2 H1 1_555 1_555
O3 C8 1_555 1_555
C3 C2 1_555 1_555
H2 C3 1_555 1_555
C4 C3 1_555 1_555
H3 C4 1_555 1_555
C5 C4 1_555 1_555
H4 C5 1_555 1_555
C6 N1 1_555 1_555
C7 N2 1_555 1_555
C8 C7 1_555 1_555
C9 C8 1_555 1_555
C10 C9 1_555 1_555
H5 C10 1_555 1_555
C11 C10 1_555 1_555
H6 C11 1_555 1_555
C12 C11 1_555 1_555
H7 C12 1_555 1_555
C13 C12 1_555 1_555
H8 C13 1_555 1_555
C14 C9 1_555 1_555
H9 C14 1_555 1_555
C15 O2 1_555 1_555
C16 C15 1_555 1_555
H10 C16 1_555 1_555
H11 C16 1_555 1_555
H12 C16 1_555 1_555
Cu1B O1 1_555 1_555
Cu1_2 O3 1_555 1_555
O1B Cu1 1_555 1_555
O3_2 Cu1 1_555 1_555
C1 C6 1_555 1_555
C5 C6 1_555 1_555
C7 C15 1_555 1_555
C13 C14 1_555 1_555
Cu1B O1B 1_555 1_555

#END
