
#######################################################################
#
#                 Cambridge Crystallographic Data Centre
#                                CCDC 
#
#######################################################################
#
# If this CIF has been generated from an entry in the Cambridge 
# Structural Database, then it will include bibliographic, chemical, 
# crystal, experimental, refinement or atomic coordinate data resulting 
# from the CCDC's data processing and validation procedures.
#
#######################################################################

data_ETIHEV
_symmetry_cell_setting           monoclinic
_symmetry_space_group_name_H-M   'C 2/c'
_symmetry_Int_Tables_number      15
_space_group_name_Hall           '-C 2yn'
loop_
_symmetry_equiv_pos_site_id
_symmetry_equiv_pos_as_xyz
1 x,y,z
2 -x,y,1/2-z
3 1/2+x,1/2+y,z
4 1/2-x,1/2+y,1/2-z
5 -x,-y,-z
6 x,-y,1/2+z
7 1/2-x,1/2-y,-z
8 1/2+x,1/2-y,1/2+z
_cell_length_a                   24.1887(12)
_cell_length_b                   8.6033(3)
_cell_length_c                   26.3898(14)
_cell_angle_alpha                90
_cell_angle_beta                 109.470(5)
_cell_angle_gamma                90
_cell_volume                     5177.75
loop_
_atom_site_label
_atom_site_type_symbol
_atom_site_fract_x
_atom_site_fract_y
_atom_site_fract_z
Ag1 Ag 0.205938(7) 0.02754(2) 0.239850(7)
S1 S 0.13685(3) 0.27708(7) 0.21038(2)
S2 S 0.19722(2) -0.27926(7) 0.22591(2)
N1 N 0.25214(8) -0.4865(2) 0.16309(8)
C1 C 0.10864(10) 0.2552(3) 0.13965(9)
N2 N 0.19101(8) 0.0927(3) 0.14234(8)
N3 N 0.09942(8) -0.0555(2) 0.23731(7)
C2 C 0.07485(11) 0.2186(3) 0.22995(10)
H1 H 0.0845 0.2348 0.2683
H2 H 0.0416 0.2845 0.2117
C3 C 0.08515(10) -0.2054(3) 0.22723(9)
C4 C 0.00068(12) 0.0128(4) 0.18584(10)
H3 H -0.0270 0.0898 0.1713
C5 C 0.20022(9) -0.4213(3) 0.13232(9)
C6 C 0.05751(10) 0.0515(3) 0.21713(9)
C7 C 0.17704(10) -0.4499(3) 0.07643(9)
C8 C 0.28020(11) -0.5752(3) 0.13917(10)
H4 H 0.3159 -0.6173 0.1602
C9 C 0.13374(11) -0.3217(3) 0.24662(10)
H5 H 0.1187 -0.4236 0.2332
H6 H 0.1465 -0.3258 0.2856
C10 C 0.11992(10) -0.2434(3) 0.12378(9)
H7 H 0.1016 -0.1707 0.1389
C11 C 0.02886(12) -0.2526(4) 0.19801(11)
H8 H 0.0200 -0.3578 0.1927
C12 C 0.16969(9) -0.3186(3) 0.15590(8)
C13 C 0.11783(11) 0.1580(3) 0.05595(10)
C14 C 0.21971(12) 0.0154(3) 0.11609(12)
H9 H 0.2545 -0.0335 0.1359
C15 C 0.13995(10) 0.1662(3) 0.11286(9)
C16 C 0.05777(11) 0.3300(3) 0.11058(10)
H10 H 0.0376 0.3885 0.1284
C17 C 0.26014(12) -0.6106(3) 0.08445(10)
H11 H 0.2818 -0.6747 0.0697
C18 C 0.03597(11) 0.3191(4) 0.05415(10)
H12 H 0.0010 0.3685 0.0350
C19 C 0.20826(12) -0.5493(3) 0.05313(10)
H13 H 0.1935 -0.5726 0.0167
C20 C 0.20073(13) 0.0022(4) 0.05950(13)
H14 H 0.2227 -0.0535 0.0428
C21 C 0.12398(11) -0.3771(3) 0.04517(9)
H15 H 0.1078 -0.3989 0.0087
C22 C 0.09665(11) -0.2754(3) 0.06851(9)
H16 H 0.0623 -0.2266 0.0477
C23 C 0.15045(13) 0.0715(4) 0.03020(12)
H17 H 0.1371 0.0624 -0.0070
C24 C 0.06552(12) 0.2368(4) 0.02727(10)
H18 H 0.0512 0.2325 -0.0101
C25 C -0.01386(12) -0.1422(4) 0.17680(11)
H19 H -0.0519 -0.1717 0.1567
Ag1C Ag 0.294062(7) -0.47246(2) 0.260150(7)
S2C S 0.30278(2) 0.22074(7) 0.27409(2)
N1C N 0.24786(8) 0.0135(2) 0.33691(8)
S3 S 0.10044(3) -0.52163(7) 0.38018(2)
F1 F 0.18302(7) -0.6848(2) 0.45136(6)
O1 O 0.07748(10) -0.4777(2) 0.42153(8)
O2 O 0.05713(8) -0.5705(3) 0.33082(7)
F2 F 0.16310(10) -0.7588(3) 0.37028(7)
O3 O 0.14538(9) -0.4207(3) 0.37500(9)
C26 C 0.13952(11) -0.7024(3) 0.40510(10)
F3 F 0.10408(8) -0.8091(2) 0.41373(8)
loop_
_geom_bond_atom_site_label_1
_geom_bond_atom_site_label_2
_geom_bond_site_symmetry_1
_geom_bond_site_symmetry_2
Ag1 S1 1_555 1_555
S1 C1 1_555 1_555
S2 Ag1 1_555 1_555
N1 C5 1_555 1_555
C1 C15 1_555 1_555
N2 Ag1 1_555 1_555
N3 C3 1_555 1_555
C2 S1 1_555 1_555
H1 C2 1_555 1_555
H2 C2 1_555 1_555
C3 C9 1_555 1_555
C4 H3 1_555 1_555
C5 C7 1_555 1_555
C6 N3 1_555 1_555
C7 C19 1_555 1_555
C8 N1 1_555 1_555
H4 C8 1_555 1_555
C9 S2 1_555 1_555
H5 C9 1_555 1_555
H6 C9 1_555 1_555
C10 H7 1_555 1_555
C11 C3 1_555 1_555
H8 C11 1_555 1_555
C12 S2 1_555 1_555
C13 C15 1_555 1_555
C14 N2 1_555 1_555
H9 C14 1_555 1_555
C15 N2 1_555 1_555
C16 C1 1_555 1_555
H10 C16 1_555 1_555
C17 C8 1_555 1_555
H11 C17 1_555 1_555
C18 C16 1_555 1_555
H12 C18 1_555 1_555
C19 C17 1_555 1_555
H13 C19 1_555 1_555
C20 C14 1_555 1_555
H14 C20 1_555 1_555
C21 C7 1_555 1_555
H15 C21 1_555 1_555
C22 C10 1_555 1_555
H16 C22 1_555 1_555
C23 C13 1_555 1_555
H17 C23 1_555 1_555
C24 C13 1_555 1_555
H18 C24 1_555 1_555
C25 C4 1_555 1_555
H19 C25 1_555 1_555
S3 O1 1_555 1_555
F1 C26 1_555 1_555
O2 S3 1_555 1_555
F2 C26 1_555 1_555
O3 S3 1_555 1_555
C26 S3 1_555 1_555
F3 C26 1_555 1_555
Ag1C S2 1_555 1_555
S2C Ag1 1_555 1_555
N1C Ag1 1_555 1_555
N1 Ag1C 1_555 1_555
C2 C6 1_555 1_555
C4 C6 1_555 1_555
C5 C12 1_555 1_555
C10 C12 1_555 1_555
C11 C25 1_555 1_555
C18 C24 1_555 1_555
C20 C23 1_555 1_555
C21 C22 1_555 1_555

#END
