
#######################################################################
#
#                 Cambridge Crystallographic Data Centre
#                                CCDC 
#
#######################################################################
#
# If this CIF has been generated from an entry in the Cambridge 
# Structural Database, then it will include bibliographic, chemical, 
# crystal, experimental, refinement or atomic coordinate data resulting 
# from the CCDC's data processing and validation procedures.
#
#######################################################################

data_ETILAV
_symmetry_cell_setting           orthorhombic
_symmetry_space_group_name_H-M   'P 21 21 21'
_symmetry_Int_Tables_number      19
_space_group_name_Hall           'P 2ac 2ab'
loop_
_symmetry_equiv_pos_site_id
_symmetry_equiv_pos_as_xyz
1 x,y,z
2 1/2-x,-y,1/2+z
3 1/2+x,1/2-y,-z
4 -x,1/2+y,1/2-z
_cell_length_a                   9.694(2)
_cell_length_b                   12.358(3)
_cell_length_c                   19.765(4)
_cell_angle_alpha                90
_cell_angle_beta                 90
_cell_angle_gamma                90
_cell_volume                     2367.82
loop_
_atom_site_label
_atom_site_type_symbol
_atom_site_fract_x
_atom_site_fract_y
_atom_site_fract_z
Rh1 Rh 0.85483(3) 0.93924(2) 0.890297(14)
N1 N 0.8029(3) 1.0451(2) 0.97128(14)
C1 C 0.8424(4) 1.0178(3) 1.15607(18)
H1 H 0.8222 1.0545 1.1971
C2 C 0.7400(4) 1.1403(3) 0.9674(2)
H2 H 0.7232 1.1700 0.9238
C3 C 0.7999(3) 1.0635(3) 1.09419(17)
C4 C 0.9127(4) 0.9207(3) 1.15830(18)
C5 C 0.8337(4) 1.0060(3) 1.03504(17)
C6 C 0.7257(4) 1.1624(3) 1.08751(19)
H3 H 0.6969 1.2018 1.1263
C7 C 0.9374(4) 0.8714(3) 1.09392(17)
N2 N 0.8997(3) 0.9100(2) 1.03560(15)
N3 N 1.1677(3) 0.6445(2) 1.09266(14)
C8 C 0.9489(4) 0.8009(3) 0.8483(2)
H4 H 0.8989 0.7318 0.8579
C9 C 1.0616(4) 0.9990(3) 0.8905(2)
H5 H 1.0880 1.0373 0.9332
C10 C 0.9811(4) 1.0495(3) 0.77011(18)
H6 H 1.0652 1.0839 0.7515
H7 H 0.9002 1.0885 0.7517
C11 C 0.9818(4) 1.0605(4) 0.84711(18)
H8 H 0.9621 1.1354 0.8638
C12 C 1.0698(4) 0.6158(3) 1.04488(18)
H9 H 1.0720 0.5515 1.0186
C13 C 1.1640(4) 0.9124(3) 0.8686(2)
H10 H 1.2440 0.9129 0.8998
H11 H 1.1982 0.9295 0.8226
C14 C 1.0989(4) 0.7997(3) 0.8684(2)
H12 H 1.1505 0.7529 0.8366
H13 H 1.1075 0.7678 0.9141
C15 C 0.6970(4) 1.1993(3) 1.0241(2)
H14 H 0.6478 1.2651 1.0184
C16 C 1.1253(4) 0.7377(3) 1.11827(18)
H15 H 1.1722 0.7770 1.1526
C17 C 1.0187(4) 0.9375(3) 1.27259(18)
H16 H 1.0459 1.0091 1.2613
C18 C 0.9756(4) 0.9307(4) 0.74691(19)
H17 H 0.9339 0.9269 0.7012
H18 H 1.0706 0.9017 0.7439
N4 N 1.0064(3) 0.7691(2) 1.08893(15)
C19 C 0.9714(4) 0.6922(3) 1.04101(19)
H19 H 0.8939 0.6931 1.0116
C20 C 0.9132(4) 0.7679(3) 1.24210(19)
H20 H 0.8694 0.7229 1.2096
C21 C 0.9516(4) 0.8737(3) 1.22478(18)
C22 C 1.0059(4) 0.7932(3) 1.3540(2)
H21 H 1.0240 0.7662 1.3981
C23 C 0.9390(4) 0.7286(3) 1.3068(2)
H22 H 0.9109 0.6575 1.3188
C24 C 1.0462(4) 0.8968(3) 1.3369(2)
H23 H 1.0929 0.9405 1.3691
C25 C 0.8919(4) 0.8615(3) 0.79539(19)
H24 H 0.8079 0.8282 0.7746
Rh1B Rh 1.35483(3) 0.56076(2) 1.109703(14)
N3B N 0.6677(3) 0.8555(2) 0.90734(14)
P1 P 0.79530(10) 1.46812(8) 0.92346(5)
F1 F 0.8463(2) 1.35616(15) 0.89120(11)
F2 F 0.6457(2) 1.41598(16) 0.93713(10)
F3 F 0.8457(2) 1.42886(18) 0.99687(10)
F4 F 0.7422(2) 1.58001(17) 0.95577(11)
F5 F 0.7437(2) 1.5087(2) 0.85025(11)
F6 F 0.9435(2) 1.52138(18) 0.90969(11)
loop_
_geom_bond_atom_site_label_1
_geom_bond_atom_site_label_2
_geom_bond_site_symmetry_1
_geom_bond_site_symmetry_2
Rh1 N1 1_555 1_555
N1 C2 1_555 1_555
C1 H1 1_555 1_555
C2 H2 1_555 1_555
C3 C1 1_555 1_555
C4 C1 1_555 1_555
C5 N1 1_555 1_555
C6 C3 1_555 1_555
H3 C6 1_555 1_555
C7 C4 1_555 1_555
N2 C5 1_555 1_555
N3 C12 1_555 1_555
C8 Rh1 1_555 1_555
H4 C8 1_555 1_555
C9 Rh1 1_555 1_555
H5 C9 1_555 1_555
C10 H6 1_555 1_555
H7 C10 1_555 1_555
C11 Rh1 1_555 1_555
H8 C11 1_555 1_555
C12 H9 1_555 1_555
C13 C9 1_555 1_555
H10 C13 1_555 1_555
H11 C13 1_555 1_555
C14 C8 1_555 1_555
H12 C14 1_555 1_555
H13 C14 1_555 1_555
C15 C2 1_555 1_555
H14 C15 1_555 1_555
C16 N3 1_555 1_555
H15 C16 1_555 1_555
C17 H16 1_555 1_555
C18 C10 1_555 1_555
H17 C18 1_555 1_555
H18 C18 1_555 1_555
N4 C7 1_555 1_555
C19 C12 1_555 1_555
H19 C19 1_555 1_555
C20 H20 1_555 1_555
C21 C4 1_555 1_555
C22 H21 1_555 1_555
C23 C20 1_555 1_555
H22 C23 1_555 1_555
C24 C17 1_555 1_555
H23 C24 1_555 1_555
C25 Rh1 1_555 1_555
H24 C25 1_555 1_555
P1 F1 1_555 1_555
F2 P1 1_555 1_555
F3 P1 1_555 1_555
F4 P1 1_555 1_555
F5 P1 1_555 1_555
F6 P1 1_555 1_555
Rh1B N3 1_555 1_555
N3B Rh1 1_555 1_555
C3 C5 1_555 1_555
C6 C15 1_555 1_555
C7 N2 1_555 1_555
C8 C25 1_555 1_555
C9 C11 1_555 1_555
C10 C11 1_555 1_555
C13 C14 1_555 1_555
C16 N4 1_555 1_555
C17 C21 1_555 1_555
C18 C25 1_555 1_555
N4 C19 1_555 1_555
C20 C21 1_555 1_555
C22 C23 1_555 1_555
C22 C24 1_555 1_555

#END
