
#######################################################################
#
#                 Cambridge Crystallographic Data Centre
#                                CCDC 
#
#######################################################################
#
# If this CIF has been generated from an entry in the Cambridge 
# Structural Database, then it will include bibliographic, chemical, 
# crystal, experimental, refinement or atomic coordinate data resulting 
# from the CCDC's data processing and validation procedures.
#
#######################################################################

data_ETOFEZ
_symmetry_cell_setting           orthorhombic
_symmetry_space_group_name_H-M   'P 21 21 21'
_symmetry_Int_Tables_number      19
_space_group_name_Hall           'P 2ac 2ab'
loop_
_symmetry_equiv_pos_site_id
_symmetry_equiv_pos_as_xyz
1 x,y,z
2 1/2-x,-y,1/2+z
3 -x,1/2+y,1/2-z
4 1/2+x,1/2-y,-z
_cell_length_a                   5.5504(2)
_cell_length_b                   11.9815(3)
_cell_length_c                   15.0684(3)
_cell_angle_alpha                90
_cell_angle_beta                 90
_cell_angle_gamma                90
_cell_volume                     1002.08
loop_
_atom_site_label
_atom_site_type_symbol
_atom_site_fract_x
_atom_site_fract_y
_atom_site_fract_z
Br1 Br 0.84945(11) 0.39332(4) 0.17966(3)
Br2 Br 0.98546(11) 0.71273(4) 0.10038(4)
Zn1 Zn 1.12661(12) 0.53707(4) 0.14890(4)
N1 N 2.1571(9) 0.4460(3) -0.2418(2)
N2 N 1.6125(8) 0.4338(3) -0.0507(2)
N3 N 1.3460(9) 0.4775(3) 0.0510(3)
N4 N 1.3106(8) 0.3653(3) 0.0281(3)
C1 C 2.0034(12) 0.3598(4) -0.2376(3)
H1 H 2.0191 0.3009 -0.2794
C2 C 1.8240(10) 0.3534(4) -0.1749(3)
H2 H 1.7178 0.2913 -0.1736
C3 C 1.8002(9) 0.4387(4) -0.1137(3)
C4 C 1.9601(9) 0.5279(4) -0.1160(3)
H3 H 1.9491 0.5870 -0.0742
C5 C 2.1356(10) 0.5277(4) -0.1811(3)
H4 H 2.2463 0.5882 -0.1830
C6 C 1.5271(10) 0.5159(4) 0.0048(3)
H5 H 1.5902 0.5894 0.0088
C7 C 1.4695(10) 0.3431(4) -0.0327(3)
H6 H 1.4849 0.2727 -0.0612
Zn1A Zn 2.37339(12) 0.46293(4) -0.35110(4)
N1A N 1.3429(9) 0.5540(3) 0.2582(2)
loop_
_geom_bond_atom_site_label_1
_geom_bond_atom_site_label_2
_geom_bond_site_symmetry_1
_geom_bond_site_symmetry_2
Br1 Zn1 1_555 1_555
Br2 Zn1 1_555 1_555
Zn1 N3 1_555 1_555
N1 C1 1_555 1_555
N2 C3 1_555 1_555
N3 N4 1_555 1_555
N4 C7 1_555 1_555
C1 H1 1_555 1_555
C2 C1 1_555 1_555
H2 C2 1_555 1_555
C3 C2 1_555 1_555
C4 C3 1_555 1_555
H3 C4 1_555 1_555
C5 N1 1_555 1_555
H4 C5 1_555 1_555
C6 N2 1_555 1_555
H5 C6 1_555 1_555
C7 N2 1_555 1_555
H6 C7 1_555 1_555
Zn1A N1 1_555 1_555
N1A Zn1 1_555 1_555
N3 C6 1_555 1_555
C4 C5 1_555 1_555

#END
