
#######################################################################
#
#                 Cambridge Crystallographic Data Centre
#                                CCDC 
#
#######################################################################
#
# If this CIF has been generated from an entry in the Cambridge 
# Structural Database, then it will include bibliographic, chemical, 
# crystal, experimental, refinement or atomic coordinate data resulting 
# from the CCDC's data processing and validation procedures.
#
#######################################################################

data_ETOQOT
_symmetry_cell_setting           monoclinic
_symmetry_space_group_name_H-M   'C 2/c'
_symmetry_Int_Tables_number      15
_space_group_name_Hall           '-C 2yn'
loop_
_symmetry_equiv_pos_site_id
_symmetry_equiv_pos_as_xyz
1 x,y,z
2 1/2+x,1/2+y,z
3 x,-y,1/2+z
4 1/2+x,1/2-y,1/2+z
5 -x,-y,-z
6 1/2-x,1/2-y,-z
7 -x,y,1/2-z
8 1/2-x,1/2+y,1/2-z
_cell_length_a                   13.731(3)
_cell_length_b                   19.097(4)
_cell_length_c                   8.870(2)
_cell_angle_alpha                90
_cell_angle_beta                 113.614(5)
_cell_angle_gamma                90
_cell_volume                     2131.14
loop_
_atom_site_label
_atom_site_type_symbol
_atom_site_fract_x
_atom_site_fract_y
_atom_site_fract_z
Ag1 Ag 0.5000 0.55406(4) 0.7500
S1 S 0.41471(14) 0.57192(9) 0.3831(2)
N1 N 0.3362(4) 0.4523(3) 0.2452(6)
C1 C 0.2612(6) 0.4031(4) 0.1801(9)
H1 H 0.2811 0.3603 0.1512
C2 C 0.1580(7) 0.4127(5) 0.1544(10)
H2 H 0.1083 0.3771 0.1117
C3 C 0.1286(7) 0.4783(6) 0.1945(11)
H3 H 0.0576 0.4876 0.1722
C4 C 0.2044(6) 0.5287(4) 0.2666(10)
H4 H 0.1862 0.5714 0.2985
C5 C 0.3083(5) 0.5146(3) 0.2907(8)
C6 C 0.3565(6) 0.6580(3) 0.3166(9)
H5 H 0.4101 0.6933 0.3699
H6 H 0.2993 0.6648 0.3531
C7 C 0.3136(6) 0.6692(4) 0.1342(9)
H7 H 0.3683 0.6581 0.0948
H8 H 0.2542 0.6378 0.0805
C8 C 0.2774(6) 0.7441(4) 0.0896(9)
H9 H 0.3388 0.7747 0.1332
H10 H 0.2298 0.7567 0.1416
C8E C 0.2226(6) 0.7559(4) -0.0896(9)
C7E C 0.1864(6) 0.8308(4) -0.1342(9)
C6E C 0.1435(6) 0.8420(3) -0.3166(9)
S1E S 0.08529(14) 0.92808(9) -0.3831(2)
C5E C 0.1917(5) 0.9854(3) -0.2907(8)
N1E N 0.1638(4) 1.0477(3) -0.2452(6)
C1E C 0.2388(6) 1.0969(4) -0.1801(9)
H1E H 0.2189 1.1397 -0.1512
C2E C 0.3420(7) 1.0873(5) -0.1544(10)
H2E H 0.3917 1.1229 -0.1117
C3E C 0.3714(7) 1.0217(6) -0.1945(11)
H3E H 0.4424 1.0124 -0.1722
C4E C 0.2956(6) 0.9713(4) -0.2666(10)
H4E H 0.3138 0.9286 -0.2985
H5E H 0.0899 0.8067 -0.3699
H6E H 0.2007 0.8352 -0.3531
H7E H 0.1317 0.8419 -0.0948
H8E H 0.2458 0.8622 -0.0805
H9E H 0.1612 0.7253 -0.1332
H10E H 0.2702 0.7433 -0.1416
S1F S 0.58529(14) 0.57192(9) 1.1169(2)
N1B N 0.3362(4) 0.5477(3) 0.7452(6)
N1D N 0.6638(4) 0.5477(3) 0.7548(6)
Ag1B Ag 0.5000 0.44594(4) 0.2500
Ag1C Ag 0.0000 0.94594(4) -0.7500
Ag1A Ag 0.0000 1.05406(4) -0.2500
P1 P 0.5000 0.21776(13) 0.2500
F1 F 0.3787(4) 0.2174(2) 0.1297(7)
F2 F 0.5000 0.2960(3) 0.2500
F3 F 0.5273(5) 0.2130(4) 0.0960(8)
F4 F 0.5000 0.1357(4) 0.2500
F1F F 0.6213(4) 0.2174(2) 0.3703(7)
F3F F 0.4727(5) 0.2130(4) 0.4040(8)
loop_
_geom_bond_atom_site_label_1
_geom_bond_atom_site_label_2
_geom_bond_site_symmetry_1
_geom_bond_site_symmetry_2
Ag1 S1 1_555 1_555
S1 C5 1_555 1_555
N1 C1 1_555 1_555
C1 H1 1_555 1_555
C2 C1 1_555 1_555
H2 C2 1_555 1_555
C3 C2 1_555 1_555
H3 C3 1_555 1_555
C4 C3 1_555 1_555
H4 C4 1_555 1_555
C5 N1 1_555 1_555
C6 S1 1_555 1_555
H5 C6 1_555 1_555
H6 C6 1_555 1_555
C7 C6 1_555 1_555
H7 C7 1_555 1_555
H8 C7 1_555 1_555
C8 C7 1_555 1_555
H9 C8 1_555 1_555
H10 C8 1_555 1_555
P1 F1 1_555 1_555
F2 P1 1_555 1_555
F3 P1 1_555 1_555
F4 P1 1_555 1_555
C8E C8 1_555 1_555
C7E C8E 1_555 1_555
C6E C7E 1_555 1_555
S1E C6E 1_555 1_555
C5E S1E 1_555 1_555
N1E C5E 1_555 1_555
C1E N1E 1_555 1_555
H1E C1E 1_555 1_555
C2E C1E 1_555 1_555
H2E C2E 1_555 1_555
C3E C2E 1_555 1_555
H3E C3E 1_555 1_555
C4E C5E 1_555 1_555
H4E C4E 1_555 1_555
H5E C6E 1_555 1_555
H6E C6E 1_555 1_555
H7E C7E 1_555 1_555
H8E C7E 1_555 1_555
H9E C8E 1_555 1_555
H10E C8E 1_555 1_555
F1F P1 1_555 1_555
F3F P1 1_555 1_555
S1F Ag1 1_555 1_555
N1B Ag1 1_555 1_555
N1D Ag1 1_555 1_555
Ag1B N1 1_555 1_555
Ag1C S1E 1_555 1_555
Ag1A N1E 1_555 1_555
C4 C5 1_555 1_555
C3E C4E 1_555 1_555

#END
