
#######################################################################
#
#                 Cambridge Crystallographic Data Centre
#                                CCDC 
#
#######################################################################
#
# If this CIF has been generated from an entry in the Cambridge 
# Structural Database, then it will include bibliographic, chemical, 
# crystal, experimental, refinement or atomic coordinate data resulting 
# from the CCDC's data processing and validation procedures.
#
#######################################################################

data_ETOQEK01
_symmetry_cell_setting           monoclinic
_symmetry_space_group_name_H-M   'P 21/n'
_symmetry_Int_Tables_number      14
_space_group_name_Hall           '-P 2yn'
loop_
_symmetry_equiv_pos_site_id
_symmetry_equiv_pos_as_xyz
1 x,y,z
2 1/2-x,1/2+y,1/2-z
3 -x,-y,-z
4 1/2+x,1/2-y,1/2+z
_cell_length_a                   10.999(2)
_cell_length_b                   6.9933(14)
_cell_length_c                   12.621(3)
_cell_angle_alpha                90
_cell_angle_beta                 96.22(3)
_cell_angle_gamma                90
_cell_volume                     965.084
loop_
_atom_site_label
_atom_site_type_symbol
_atom_site_fract_x
_atom_site_fract_y
_atom_site_fract_z
Cu1 Cu 0.11462(3) 0.50304(4) 0.62304(3)
Cl1 Cl 0.14207(8) 0.35967(12) 0.46720(7)
O1 O 0.19284(19) 0.8806(3) 0.78233(17)
C1 C -0.1233(3) 0.2026(4) 0.7819(3)
H1 H -0.1724 0.2025 0.8374
C2 C -0.1172(3) 0.0636(5) 0.7070(3)
H2 H -0.1621 -0.0493 0.7005
C3 C -0.0293(3) 0.1256(4) 0.6416(3)
H3 H -0.0058 0.0571 0.5840
C4 C -0.0138(3) 0.5166(3) 0.8089(2)
C5 C -0.0409(3) 0.7319(4) 0.9365(2)
C6 C 0.1125(2) 0.7778(4) 0.8148(2)
N1 N -0.0432(2) 0.3416(3) 0.7593(2)
N2 N 0.0152(2) 0.2934(3) 0.6728(2)
N3 N 0.0744(2) 0.6119(3) 0.7642(2)
N4 N 0.0552(2) 0.8288(3) 0.9012(2)
H4 H 0.0813 0.9291 0.9360
N5 N -0.0739(2) 0.5618(4) 0.8886(2)
O2 O -0.0932(2) 0.8001(3) 1.00962(19)
O3 O 0.1883(2) 0.7452(3) 0.58557(19)
H5 H 0.2466 0.7237 0.5520
H6 H 0.221(5) 0.798(7) 0.637(4)
Cu1A Cu 0.38538(3) 1.00304(4) 0.87696(3)
O1A O 0.30716(19) 0.3806(3) 0.71767(17)
loop_
_geom_bond_atom_site_label_1
_geom_bond_atom_site_label_2
_geom_bond_site_symmetry_1
_geom_bond_site_symmetry_2
Cu1 Cl1 1_555 1_555
O1 C6 1_555 1_555
C1 H1 1_555 1_555
C2 C1 1_555 1_555
H2 C2 1_555 1_555
C3 C2 1_555 1_555
H3 C3 1_555 1_555
C4 N1 1_555 1_555
C5 N4 1_555 1_555
C6 N3 1_555 1_555
N1 C1 1_555 1_555
N2 Cu1 1_555 1_555
N3 Cu1 1_555 1_555
N4 C6 1_555 1_555
H4 N4 1_555 1_555
N5 C4 1_555 1_555
O2 C5 1_555 1_555
O3 Cu1 1_555 1_555
H5 O3 1_555 1_555
H6 O3 1_555 1_555
Cu1A O1 1_555 1_555
O1A Cu1 1_555 1_555
C3 N2 1_555 1_555
C4 N3 1_555 1_555
C5 N5 1_555 1_555
N1 N2 1_555 1_555

#END
