
#######################################################################
#
#                 Cambridge Crystallographic Data Centre
#                                CCDC 
#
#######################################################################
#
# If this CIF has been generated from an entry in the Cambridge 
# Structural Database, then it will include bibliographic, chemical, 
# crystal, experimental, refinement or atomic coordinate data resulting 
# from the CCDC's data processing and validation procedures.
#
#######################################################################

data_ETOQEJ
_symmetry_cell_setting           monoclinic
_symmetry_space_group_name_H-M   'C 2/c'
_symmetry_Int_Tables_number      15
_space_group_name_Hall           '-C 2yn'
loop_
_symmetry_equiv_pos_site_id
_symmetry_equiv_pos_as_xyz
1 x,y,z
2 1/2+x,1/2+y,z
3 x,-y,1/2+z
4 1/2+x,1/2-y,1/2+z
5 -x,-y,-z
6 1/2-x,1/2-y,-z
7 -x,y,1/2-z
8 1/2-x,1/2+y,1/2-z
_cell_length_a                   17.382(5)
_cell_length_b                   21.700(6)
_cell_length_c                   14.334(5)
_cell_angle_alpha                90
_cell_angle_beta                 117.854(8)
_cell_angle_gamma                90
_cell_volume                     4780.23
loop_
_atom_site_label
_atom_site_type_symbol
_atom_site_fract_x
_atom_site_fract_y
_atom_site_fract_z
Ag1 Ag 1.10091(4) 0.41999(3) 1.19248(6)
N1 N 1.0145(4) 0.4995(3) 1.1310(5)
N2 N 0.3221(5) 0.1643(3) 0.7920(6)
S1 S 0.89458(13) 0.42046(11) 1.10156(19)
S2 S 0.47255(16) 0.21526(11) 0.8684(2)
C1 C 1.0470(6) 0.5547(5) 1.1318(8)
H1 H 1.1068 0.5579 1.1562
C2 C 0.9980(7) 0.6077(5) 1.0988(8)
H2 H 1.0230 0.6455 1.0983
C3 C 0.9111(7) 0.6021(5) 1.0668(9)
H3 H 0.8758 0.6369 1.0459
C4 C 0.8752(6) 0.5456(4) 1.0653(8)
H4 H 0.8159 0.5414 1.0431
C5 C 0.9301(6) 0.4948(4) 1.0980(6)
C6 C 0.7781(5) 0.4226(4) 1.0208(8)
H5 H 0.7520 0.4459 1.0565
H6 H 0.7638 0.4428 0.9544
C7 C 0.7425(5) 0.3580(4) 1.0003(8)
H7 H 0.7665 0.3354 1.0663
H8 H 0.7605 0.3374 0.9536
C8 C 0.6444(5) 0.3573(4) 0.9510(7)
H9 H 0.6267 0.3785 0.9974
H10 H 0.6207 0.3797 0.8848
C9 C 0.6067(5) 0.2934(4) 0.9304(7)
H11 H 0.6334 0.2699 0.9955
H12 H 0.6207 0.2731 0.8799
C10 C 0.5087(5) 0.2931(4) 0.8880(7)
H13 H 0.4809 0.3155 0.8217
H14 H 0.4936 0.3131 0.9378
C11 C 0.3601(5) 0.2201(4) 0.8142(7)
C12 C 0.3126(6) 0.2743(4) 0.7966(8)
H15 H 0.3403 0.3124 0.8134
C13 C 0.2243(7) 0.2702(5) 0.7540(10)
H16 H 0.1911 0.3058 0.7411
C14 C 0.1833(6) 0.2123(5) 0.7296(9)
H17 H 0.1232 0.2087 0.7007
C15 C 0.2347(6) 0.1622(4) 0.7499(8)
H18 H 0.2081 0.1237 0.7338
S3 S 1.2975(4) 0.5347(4) 1.2977(6)
O1 O 1.2429(6) 0.4841(4) 1.2569(11)
O2 O 1.3185(11) 0.5480(8) 1.4047(8)
O3 O 1.2737(12) 0.5878(6) 1.2347(12)
C16 C 1.4013(6) 0.5093(5) 1.3107(10)
F1 F 1.4290(5) 0.4569(4) 1.3695(9)
F2 F 1.3903(8) 0.4989(6) 1.2100(9)
F3 F 1.4598(10) 0.5570(5) 1.3603(13)
N2E N 1.1779(5) 0.3357(3) 1.2080(6)
S1F S 1.10542(13) 0.42046(11) 1.39844(19)
Ag1E Ag 0.39909(4) 0.08001(3) 0.80752(6)
Ag1F Ag 0.89909(4) 0.41999(3) 1.30752(6)
O7 O 0.4193(15) 0.7080(11) 0.5921(15)
H19 H 0.4579 0.7144 0.6522
C18 C 0.386(2) 0.6455(12) 0.585(3)
H20 H 0.4021 0.6304 0.6546
H21 H 0.4107 0.6193 0.5518
H22 H 0.3240 0.6457 0.5439
S4? S 0.2995(14) 0.5239(11) 0.2736(19)
O4? O 0.267(3) 0.4818(14) 0.189(3)
O5? O 0.258(4) 0.518(2) 0.338(4)
O6? O 0.298(4) 0.5856(12) 0.240(3)
C17? C 0.4024(17) 0.5333(17) 0.391(2)
F4? F 0.418(3) 0.488(2) 0.464(3)
F5? F 0.457(3) 0.5314(17) 0.346(4)
F6? F 0.396(4) 0.591(2) 0.426(4)
loop_
_geom_bond_atom_site_label_1
_geom_bond_atom_site_label_2
_geom_bond_site_symmetry_1
_geom_bond_site_symmetry_2
Ag1 N1 1_555 1_555
N1 C1 1_555 1_555
N2 C11 1_555 1_555
S1 C5 1_555 1_555
S2 C10 1_555 1_555
C1 H1 1_555 1_555
C2 C1 1_555 1_555
H2 C2 1_555 1_555
C3 C2 1_555 1_555
H3 C3 1_555 1_555
C4 C3 1_555 1_555
H4 C4 1_555 1_555
C5 N1 1_555 1_555
C6 S1 1_555 1_555
H5 C6 1_555 1_555
H6 C6 1_555 1_555
C7 C6 1_555 1_555
H7 C7 1_555 1_555
H8 C7 1_555 1_555
C8 C7 1_555 1_555
H9 C8 1_555 1_555
H10 C8 1_555 1_555
C9 C8 1_555 1_555
H11 C9 1_555 1_555
H12 C9 1_555 1_555
C10 C9 1_555 1_555
H13 C10 1_555 1_555
H14 C10 1_555 1_555
C11 S2 1_555 1_555
C12 C11 1_555 1_555
H15 C12 1_555 1_555
C13 C12 1_555 1_555
H16 C13 1_555 1_555
C14 C13 1_555 1_555
H17 C14 1_555 1_555
C15 N2 1_555 1_555
H18 C15 1_555 1_555
S3 O1 1_555 1_555
O1 Ag1 1_555 1_555
O2 S3 1_555 1_555
O3 S3 1_555 1_555
C16 S3 1_555 1_555
F1 C16 1_555 1_555
F2 C16 1_555 1_555
F3 C16 1_555 1_555
O7 H19 1_555 1_555
C18 O7 1_555 1_555
H20 C18 1_555 1_555
H21 C18 1_555 1_555
H22 C18 1_555 1_555
N2E Ag1 1_555 1_555
S1F Ag1 1_555 1_555
Ag1E N2 1_555 1_555
Ag1F S1 1_555 1_555
C4 C5 1_555 1_555
C14 C15 1_555 1_555

#END
