
#######################################################################
#
#                 Cambridge Crystallographic Data Centre
#                                CCDC 
#
#######################################################################
#
# If this CIF has been generated from an entry in the Cambridge 
# Structural Database, then it will include bibliographic, chemical, 
# crystal, experimental, refinement or atomic coordinate data resulting 
# from the CCDC's data processing and validation procedures.
#
#######################################################################

data_ETOQAF
_symmetry_cell_setting           monoclinic
_symmetry_space_group_name_H-M   'C 2/c'
_symmetry_Int_Tables_number      15
_space_group_name_Hall           '-C 2yn'
loop_
_symmetry_equiv_pos_site_id
_symmetry_equiv_pos_as_xyz
1 x,y,z
2 1/2+x,1/2+y,z
3 x,-y,1/2+z
4 1/2+x,1/2-y,1/2+z
5 -x,-y,-z
6 1/2-x,1/2-y,-z
7 -x,y,1/2-z
8 1/2-x,1/2+y,1/2-z
_cell_length_a                   15.725(10)
_cell_length_b                   16.132(10)
_cell_length_c                   18.870(12)
_cell_angle_alpha                90
_cell_angle_beta                 97.024(17)
_cell_angle_gamma                90
_cell_volume                     4750.94
loop_
_atom_site_label
_atom_site_type_symbol
_atom_site_fract_x
_atom_site_fract_y
_atom_site_fract_z
Ag1 Ag 0.81212(6) 0.19840(6) 0.42321(4)
C1 C 0.7995(8) 0.3761(7) 0.3624(6)
H1 H 0.7778 0.3466 0.3218
C2 C 0.8059(9) 0.4585(7) 0.3553(6)
H2 H 0.7937 0.4846 0.3113
C3 C 0.8319(8) 0.5028(6) 0.4177(7)
H3 H 0.8330 0.5604 0.4171
C4 C 0.8560(8) 0.4603(6) 0.4804(5)
H4 H 0.8769 0.4883 0.5219
C5 C 0.8486(5) 0.3782(6) 0.4798(5)
C6 C 0.9273(7) 0.3805(6) 0.6246(5)
H5 H 0.9729 0.4108 0.6058
H6 H 0.8868 0.4203 0.6394
C7 C 0.9636(7) 0.3297(6) 0.6871(5)
H7 H 1.0085 0.2944 0.6731
H8 H 0.9190 0.2943 0.7017
C8 C 1.0000 0.3833(9) 0.7500
H9 H 0.9552 0.4186 0.7643
H10 H 1.0448 0.4186 0.7357
C9 C 0.7965(8) 0.0207(7) 0.3627(7)
H11 H 0.7754 0.0496 0.3216
C10 C 0.7942(9) -0.0638(7) 0.3611(8)
H12 H 0.7691 -0.0910 0.3203
C11 C 0.8284(10) -0.1089(8) 0.4189(7)
H13 H 0.8296 -0.1665 0.4176
C12 C 0.8605(8) -0.0664(6) 0.4785(7)
H14 H 0.8835 -0.0949 0.5193
C13 C 0.8590(7) 0.0221(7) 0.4784(6)
C14 C 0.9358(8) 0.0129(7) 0.6196(5)
H15 H 0.8894 -0.0233 0.6293
H16 H 0.9823 -0.0208 0.6060
C15 C 0.9666(9) 0.0651(7) 0.6855(6)
H17 H 0.9196 0.0991 0.6976
H18 H 1.0120 0.1019 0.6743
C16 C 1.0000 0.0116(9) 0.7500
H19 H 0.9542 -0.0238 0.7624
H20 H 1.0458 -0.0238 0.7376
N1 N 0.8213(6) 0.3319(4) 0.4220(5)
N2 N 0.8272(6) 0.0637(4) 0.4199(5)
S1 S 0.87418(18) 0.31403(16) 0.55624(14)
S2 S 0.8995(2) 0.08579(18) 0.54928(16)
C7F C 1.0364(7) 0.3297(6) 0.8129(5)
C6F C 1.0727(7) 0.3805(6) 0.8754(5)
H5F H 1.0271 0.4108 0.8942
H6F H 1.1132 0.4203 0.8606
S1F S 1.12582(18) 0.31403(16) 0.94376(14)
C5F C 1.1514(5) 0.3782(6) 1.0202(5)
C4F C 1.1440(8) 0.4603(6) 1.0196(5)
C3F C 1.1681(8) 0.5028(6) 1.0823(7)
C2F C 1.1941(9) 0.4585(7) 1.1447(6)
C1F C 1.2005(8) 0.3761(7) 1.1376(6)
H1F H 1.2222 0.3466 1.1782
N1F N 1.1787(6) 0.3319(4) 1.0780(5)
H2F H 1.2063 0.4846 1.1887
H3F H 1.1670 0.5604 1.0829
H4F H 1.1231 0.4883 0.9781
H7F H 0.9915 0.2944 0.8269
H8F H 1.0810 0.2943 0.7983
C15F C 1.0334(9) 0.0651(7) 0.8145(6)
C14F C 1.0642(8) 0.0129(7) 0.8804(5)
H15F H 1.1106 -0.0233 0.8707
H16F H 1.0177 -0.0208 0.8940
S2F S 1.1005(2) 0.08579(18) 0.95072(16)
C13F C 1.1410(7) 0.0221(7) 1.0216(6)
C12F C 1.1395(8) -0.0664(6) 1.0215(7)
C11F C 1.1716(10) -0.1089(8) 1.0811(7)
C10F C 1.2058(9) -0.0638(7) 1.1389(8)
C9F C 1.2035(8) 0.0207(7) 1.1373(7)
H11F H 1.2246 0.0496 1.1784
N2F N 1.1728(6) 0.0637(4) 1.0801(5)
H12F H 1.2309 -0.0910 1.1797
H13F H 1.1704 -0.1665 1.0824
H14F H 1.1165 -0.0949 0.9807
H17F H 1.0804 0.0991 0.8024
H18F H 0.9880 0.1019 0.8257
Ag1F Ag 1.18788(6) 0.19840(6) 1.07679(4)
S1E S 0.62582(18) 0.18597(16) 0.44376(14)
Ag1E Ag 0.68788(6) 0.30160(6) 0.57679(4)
Ag1C Ag 1.31212(6) 0.30160(6) 0.92321(4)
S1C S 1.37418(18) 0.18597(16) 1.05624(14)
B1 B 0.7527(9) 0.6916(8) 0.2933(7)
F1 F 0.6891(10) 0.6361(8) 0.3068(13)
F2 F 0.7160(14) 0.7704(8) 0.2942(10)
F3 F 0.8284(9) 0.6851(13) 0.3389(10)
F4 F 0.7664(15) 0.6844(14) 0.2220(8)
C17 C 0.9285(9) 0.7051(9) 0.6206(8)
H21 H 0.8765 0.7199 0.6414
Cl1 Cl 0.9608(3) 0.6099(3) 0.6499(3)
Cl2 Cl 1.0049(3) 0.7802(3) 0.6430(5)
Cl3 Cl 0.9051(5) 0.7041(4) 0.5277(3)
F5? F 0.8033(11) 0.6271(8) 0.2769(10)
F6? F 0.738(2) 0.6893(19) 0.3571(10)
F7? F 0.806(3) 0.7619(13) 0.2835(16)
F8? F 0.695(2) 0.701(2) 0.2439(16)
loop_
_geom_bond_atom_site_label_1
_geom_bond_atom_site_label_2
_geom_bond_site_symmetry_1
_geom_bond_site_symmetry_2
Ag1 N1 1_555 1_555
B1 F1 1_555 1_555
C1 H1 1_555 1_555
C2 C1 1_555 1_555
H2 C2 1_555 1_555
C3 C2 1_555 1_555
H3 C3 1_555 1_555
C4 C3 1_555 1_555
H4 C4 1_555 1_555
C5 C4 1_555 1_555
C6 H5 1_555 1_555
H6 C6 1_555 1_555
C7 C6 1_555 1_555
H7 C7 1_555 1_555
H8 C7 1_555 1_555
C8 C7 1_555 1_555
H9 C8 1_555 1_555
H10 C8 1_555 1_555
C9 H11 1_555 1_555
C10 C9 1_555 1_555
H12 C10 1_555 1_555
C11 C10 1_555 1_555
H13 C11 1_555 1_555
C12 C11 1_555 1_555
H14 C12 1_555 1_555
C13 C12 1_555 1_555
C14 H15 1_555 1_555
H16 C14 1_555 1_555
C15 C14 1_555 1_555
H17 C15 1_555 1_555
H18 C15 1_555 1_555
C16 C15 1_555 1_555
H19 C16 1_555 1_555
H20 C16 1_555 1_555
C17 H21 1_555 1_555
Cl1 C17 1_555 1_555
Cl2 C17 1_555 1_555
Cl3 C17 1_555 1_555
F2 B1 1_555 1_555
F3 B1 1_555 1_555
F4 B1 1_555 1_555
N1 C1 1_555 1_555
N2 Ag1 1_555 1_555
S1 C5 1_555 1_555
S2 C13 1_555 1_555
C7F C8 1_555 1_555
C6F C7F 1_555 1_555
H5F C6F 1_555 1_555
H6F C6F 1_555 1_555
S1F C6F 1_555 1_555
C5F S1F 1_555 1_555
C4F C5F 1_555 1_555
C3F C4F 1_555 1_555
C2F C3F 1_555 1_555
C1F C2F 1_555 1_555
H1F C1F 1_555 1_555
N1F C5F 1_555 1_555
H2F C2F 1_555 1_555
H3F C3F 1_555 1_555
H4F C4F 1_555 1_555
H7F C7F 1_555 1_555
H8F C7F 1_555 1_555
C15F C16 1_555 1_555
C14F C15F 1_555 1_555
H15F C14F 1_555 1_555
H16F C14F 1_555 1_555
S2F C14F 1_555 1_555
C13F S2F 1_555 1_555
C12F C13F 1_555 1_555
C11F C12F 1_555 1_555
C10F C11F 1_555 1_555
C9F C10F 1_555 1_555
H11F C9F 1_555 1_555
N2F C13F 1_555 1_555
H12F C10F 1_555 1_555
H13F C11F 1_555 1_555
H14F C12F 1_555 1_555
H17F C15F 1_555 1_555
H18F C15F 1_555 1_555
Ag1F N1F 1_555 1_555
S1E Ag1 1_555 1_555
Ag1E S1 1_555 1_555
Ag1C S1F 1_555 1_555
S1C Ag1F 1_555 1_555
C5 N1 1_555 1_555
C6 S1 1_555 1_555
C9 N2 1_555 1_555
C13 N2 1_555 1_555
C14 S2 1_555 1_555
C1F N1F 1_555 1_555
C9F N2F 1_555 1_555
N2F Ag1F 1_555 1_555

#END
