
#######################################################################
#
#                 Cambridge Crystallographic Data Centre
#                                CCDC 
#
#######################################################################
#
# If this CIF has been generated from an entry in the Cambridge 
# Structural Database, then it will include bibliographic, chemical, 
# crystal, experimental, refinement or atomic coordinate data resulting 
# from the CCDC's data processing and validation procedures.
#
#######################################################################

data_ETOSEM
_symmetry_cell_setting           monoclinic
_symmetry_space_group_name_H-M   'C 2/c'
_symmetry_Int_Tables_number      15
_space_group_name_Hall           '-C 2yn'
loop_
_symmetry_equiv_pos_site_id
_symmetry_equiv_pos_as_xyz
1 x,y,z
2 -x,y,1/2-z
3 1/2+x,1/2+y,z
4 1/2-x,1/2+y,1/2-z
5 -x,-y,-z
6 x,-y,1/2+z
7 1/2-x,1/2-y,-z
8 1/2+x,1/2-y,1/2+z
_cell_length_a                   22.180(4)
_cell_length_b                   8.9520(18)
_cell_length_c                   16.426(3)
_cell_angle_alpha                90
_cell_angle_beta                 93.33(3)
_cell_angle_gamma                90
_cell_volume                     3255.96
loop_
_atom_site_label
_atom_site_type_symbol
_atom_site_fract_x
_atom_site_fract_y
_atom_site_fract_z
Co1 Co 0.098444(9) 0.64743(2) 0.140367(13)
O1 O 0.07208(6) 0.79951(15) 0.23735(7)
O2 O 0.04781(7) 0.83776(14) 0.10892(7)
O3 O 0.08305(7) 1.16900(18) 0.04746(9)
O4 O -0.01738(6) 1.14637(17) 0.04776(8)
H1 H -0.0159(12) 1.148(3) -0.0004(19)
O5 O 0.09100(5) 1.45307(15) 0.21296(8)
O6 O 0.01745(5) 1.51543(15) 0.12579(8)
N1 N 0.13438(6) 0.55177(17) 0.03690(9)
N2 N 0.18993(7) 0.70526(19) 0.16045(9)
C1 C 0.10617(9) 0.4793(2) -0.02411(11)
H2 H 0.0642 0.4771 -0.0272
C2 C 0.13708(13) 0.4053(3) -0.08457(14)
H3 H 0.1159 0.3563 -0.1272
C3 C 0.19861(13) 0.4065(3) -0.07970(15)
H4 H 0.2196 0.3561 -0.1186
C4 C 0.23052(10) 0.4833(3) -0.01624(14)
C5 C 0.29531(12) 0.4955(4) -0.00706(19)
H5 H 0.3186 0.4468 -0.0441
C6 C 0.32300(10) 0.5748(4) 0.05321(19)
H6 H 0.3649 0.5806 0.0569
C7 C 0.28897(9) 0.6512(3) 0.11216(16)
C8 C 0.31442(11) 0.7393(4) 0.17623(18)
H7 H 0.3561 0.7516 0.1821
C9 C 0.27855(12) 0.8067(4) 0.22961(17)
H8 H 0.2954 0.8650 0.2719
C10 C 0.21599(11) 0.7875(3) 0.22011(14)
H9 H 0.1917 0.8338 0.2568
C11 C 0.22540(8) 0.6391(2) 0.10648(12)
C12 C 0.19595(8) 0.5557(2) 0.04106(11)
C13 C 0.00497(7) 1.00717(17) 0.20407(9)
H10 H -0.0344 0.9985 0.1741
C14 C 0.03623(7) 1.15052(16) 0.17600(9)
H11 H 0.0778 1.1519 0.1998
C15 C 0.00349(7) 1.29201(17) 0.20377(9)
H12 H -0.0367 1.2958 0.1758
C16 C 0.04335(8) 0.87293(17) 0.18323(10)
C17 C 0.03790(8) 1.15477(18) 0.08330(10)
C18 C 0.03920(7) 1.42928(17) 0.17948(9)
Co1A Co -0.098444(9) 0.64743(2) 0.359633(13)
Co1_2 Co 0.098444(9) 1.64743(2) 0.140367(13)
Co1A_2 Co -0.098444(9) 1.64743(2) 0.359633(13)
O1A O -0.07208(6) 0.79951(15) 0.26265(7)
O2A O -0.04781(7) 0.83776(14) 0.39108(7)
O3A O -0.08305(7) 1.16900(18) 0.45254(9)
O4A O 0.01738(6) 1.14637(17) 0.45224(8)
H1A H 0.0159(12) 1.148(3) 0.5004(19)
O5A O -0.09100(5) 1.45307(15) 0.28704(8)
O5_2 O 0.09100(5) 0.45307(15) 0.21296(8)
O5A_2 O -0.09100(5) 0.45307(15) 0.28704(8)
O6A O -0.01745(5) 1.51543(15) 0.37421(8)
O6_2 O 0.01745(5) 0.51543(15) 0.12579(8)
O6A_2 O -0.01745(5) 0.51543(15) 0.37421(8)
N1A N -0.13438(6) 0.55177(17) 0.46310(9)
N2A N -0.18993(7) 0.70526(19) 0.33955(9)
C1A C -0.10617(9) 0.4793(2) 0.52411(11)
H2A H -0.0642 0.4771 0.5272
C2A C -0.13708(13) 0.4053(3) 0.58457(14)
H3A H -0.1159 0.3563 0.6272
C3A C -0.19861(13) 0.4065(3) 0.57970(15)
H4A H -0.2196 0.3561 0.6186
C4A C -0.23052(10) 0.4833(3) 0.51624(14)
C5A C -0.29531(12) 0.4955(4) 0.50706(19)
H5A H -0.3186 0.4468 0.5441
C6A C -0.32300(10) 0.5748(4) 0.44679(19)
H6A H -0.3649 0.5806 0.4431
C7A C -0.28897(9) 0.6512(3) 0.38784(16)
C8A C -0.31442(11) 0.7393(4) 0.32377(18)
H7A H -0.3561 0.7516 0.3179
C9A C -0.27855(12) 0.8067(4) 0.27039(17)
H8A H -0.2954 0.8650 0.2281
C10A C -0.21599(11) 0.7875(3) 0.27989(14)
H9A H -0.1917 0.8338 0.2432
C11A C -0.22540(8) 0.6391(2) 0.39352(12)
C12A C -0.19595(8) 0.5557(2) 0.45894(11)
C13A C -0.00497(7) 1.00717(17) 0.29593(9)
H10A H 0.0344 0.9985 0.3259
C14A C -0.03623(7) 1.15052(16) 0.32400(9)
H11A H -0.0778 1.1519 0.3002
C15A C -0.00349(7) 1.29201(17) 0.29623(9)
H12A H 0.0367 1.2958 0.3242
C16A C -0.04335(8) 0.87293(17) 0.31677(10)
C17A C -0.03790(8) 1.15477(18) 0.41670(10)
C18A C -0.03920(7) 1.42928(17) 0.32052(9)
loop_
_geom_bond_atom_site_label_1
_geom_bond_atom_site_label_2
_geom_bond_site_symmetry_1
_geom_bond_site_symmetry_2
Co1 O1 1_555 1_555
O1 C16 1_555 1_555
O2 Co1 1_555 1_555
O3 C17 1_555 1_555
O4 H1 1_555 1_555
O5 C18 1_555 1_555
O6 C18 1_555 1_555
N1 Co1 1_555 1_555
N2 Co1 1_555 1_555
C1 N1 1_555 1_555
H2 C1 1_555 1_555
C2 C1 1_555 1_555
H3 C2 1_555 1_555
C3 C2 1_555 1_555
H4 C3 1_555 1_555
C4 C3 1_555 1_555
C5 C4 1_555 1_555
H5 C5 1_555 1_555
C6 C5 1_555 1_555
H6 C6 1_555 1_555
C7 C6 1_555 1_555
C8 C7 1_555 1_555
H7 C8 1_555 1_555
C9 C8 1_555 1_555
H8 C9 1_555 1_555
C10 N2 1_555 1_555
H9 C10 1_555 1_555
C11 N2 1_555 1_555
C12 N1 1_555 1_555
C13 H10 1_555 1_555
C14 C13 1_555 1_555
H11 C14 1_555 1_555
C15 C14 1_555 1_555
H12 C15 1_555 1_555
C16 O2 1_555 1_555
C17 O4 1_555 1_555
C18 C15 1_555 1_555
Co1A O1A 1_555 1_555
Co1_2 O5 1_555 1_555
Co1A_2 O5A 1_555 1_555
O1A C16A 1_555 1_555
O2A Co1A 1_555 1_555
O3A C17A 1_555 1_555
O4A H1A 1_555 1_555
O5A C18A 1_555 1_555
O5_2 Co1 1_555 1_555
O5A_2 Co1A 1_555 1_555
O6A Co1A_2 1_555 1_555
O6_2 Co1 1_555 1_555
O6A_2 Co1A 1_555 1_555
N1A Co1A 1_555 1_555
N2A Co1A 1_555 1_555
C1A N1A 1_555 1_555
H2A C1A 1_555 1_555
C2A C1A 1_555 1_555
H3A C2A 1_555 1_555
C3A C2A 1_555 1_555
H4A C3A 1_555 1_555
C4A C3A 1_555 1_555
C5A C4A 1_555 1_555
H5A C5A 1_555 1_555
C6A C5A 1_555 1_555
H6A C6A 1_555 1_555
C7A C6A 1_555 1_555
C8A C7A 1_555 1_555
H7A C8A 1_555 1_555
C9A C8A 1_555 1_555
H8A C9A 1_555 1_555
C10A N2A 1_555 1_555
H9A C10A 1_555 1_555
C11A N2A 1_555 1_555
C12A N1A 1_555 1_555
C13A C13 1_555 1_555
H10A C13A 1_555 1_555
C14A C13A 1_555 1_555
H11A C14A 1_555 1_555
C15A C15 1_555 1_555
H12A C15A 1_555 1_555
C16A O2A 1_555 1_555
C17A O4A 1_555 1_555
C18A O6A 1_555 1_555
O6 Co1_2 1_555 1_555
C4 C12 1_555 1_555
C7 C11 1_555 1_555
C9 C10 1_555 1_555
C11 C12 1_555 1_555
C13 C16 1_555 1_555
C14 C17 1_555 1_555
C4A C12A 1_555 1_555
C7A C11A 1_555 1_555
C9A C10A 1_555 1_555
C11A C12A 1_555 1_555
C13A C16A 1_555 1_555
C14A C15A 1_555 1_555
C14A C17A 1_555 1_555
C15A C18A 1_555 1_555

#END
