
#######################################################################
#
#                 Cambridge Crystallographic Data Centre
#                                CCDC 
#
#######################################################################
#
# If this CIF has been generated from an entry in the Cambridge 
# Structural Database, then it will include bibliographic, chemical, 
# crystal, experimental, refinement or atomic coordinate data resulting 
# from the CCDC's data processing and validation procedures.
#
#######################################################################

data_ETOTAJ
_symmetry_cell_setting           monoclinic
_symmetry_space_group_name_H-M   'P 21/c'
_symmetry_Int_Tables_number      14
_space_group_name_Hall           '-P 2ybc'
loop_
_symmetry_equiv_pos_site_id
_symmetry_equiv_pos_as_xyz
1 x,y,z
2 -x,1/2+y,1/2-z
3 -x,-y,-z
4 x,1/2-y,1/2+z
_cell_length_a                   11.079(2)
_cell_length_b                   13.714(3)
_cell_length_c                   6.5961(13)
_cell_angle_alpha                90
_cell_angle_beta                 94.13(3)
_cell_angle_gamma                90
_cell_volume                     999.592
loop_
_atom_site_label
_atom_site_type_symbol
_atom_site_fract_x
_atom_site_fract_y
_atom_site_fract_z
H1 H -0.211(3) 0.577(3) -0.019(6)
O1 O -0.16582(16) 0.54989(14) 0.0517(3)
O2 O -0.09028(16) 0.75423(14) -0.1846(3)
O3 O 0.02949(17) 0.45857(14) 0.2957(3)
Ba1 Ba 0.074526(10) 0.638147(8) 0.073630(17)
C1 C 0.4566(2) 0.63768(15) 0.5688(4)
H2 H 0.4672 0.6508 0.7073
N1 N 0.32012(18) 0.61649(17) 0.2709(3)
C2 C 0.3411(2) 0.63417(14) 0.4713(4)
C3 C 0.4167(2) 0.6023(2) 0.1646(4)
H3 H 0.4040 0.5907 0.0258
O4 O 0.13032(15) 0.66224(14) 0.4870(3)
O5 O 0.24279(19) 0.65068(17) 0.7766(3)
C4 C 0.2301(2) 0.64984(16) 0.5894(4)
C5 C 0.6829(2) 0.62030(18) 0.5578(4)
C6 C 0.5562(2) 0.62132(17) 0.4560(4)
C7 C 0.5348(2) 0.6037(2) 0.2492(4)
H4 H 0.5990 0.5930 0.1685
O6 O 0.69566(19) 0.64657(16) 0.7382(3)
O7 O 0.76764(15) 0.59321(15) 0.4537(3)
H5 H -0.019(4) 0.438(3) 0.361(6)
H6 H 0.087(4) 0.448(3) 0.364(6)
H7 H -0.116(4) 0.792(3) -0.116(6)
H8 H -0.209(4) 0.550(3) 0.164(6)
H9 H -0.155(4) 0.723(3) -0.215(7)
H1B H 0.211(3) 0.423(3) 0.019(6)
O1B O 0.16582(16) 0.45011(14) -0.0517(3)
O2C O -0.09028(16) 0.74577(14) 0.3154(3)
O3B O -0.02949(17) 0.54143(14) -0.2957(3)
Ba1B Ba -0.074526(10) 0.361853(8) -0.073630(17)
Ba1C Ba 0.074526(10) 0.861853(8) -0.426370(17)
Ba1C_2 Ba 0.074526(10) 0.861853(8) 0.573630(17)
Ba1_2 Ba 0.074526(10) 0.638147(8) 1.073630(17)
O4C O 0.13032(15) 0.83776(14) -0.0130(3)
O5_2 O 0.24279(19) 0.65068(17) -0.2234(3)
H5B H 0.019(4) 0.562(3) -0.361(6)
H6B H -0.087(4) 0.552(3) -0.364(6)
H7C H -0.116(4) 0.708(3) 0.384(6)
H8B H 0.209(4) 0.450(3) -0.164(6)
H9C H -0.155(4) 0.777(3) 0.285(7)
loop_
_geom_bond_atom_site_label_1
_geom_bond_atom_site_label_2
_geom_bond_site_symmetry_1
_geom_bond_site_symmetry_2
H1 O1 1_555 1_555
O1 Ba1 1_555 1_555
O2 Ba1 1_555 1_555
O3 Ba1 1_555 1_555
Ba1 N1 1_555 1_555
C1 H2 1_555 1_555
N1 C2 1_555 1_555
C2 C1 1_555 1_555
C3 N1 1_555 1_555
H3 C3 1_555 1_555
O4 Ba1 1_555 1_555
O5 C4 1_555 1_555
C4 C2 1_555 1_555
C5 C6 1_555 1_555
C6 C1 1_555 1_555
C7 C3 1_555 1_555
H4 C7 1_555 1_555
O6 C5 1_555 1_555
O7 C5 1_555 1_555
H5 O3 1_555 1_555
H6 O3 1_555 1_555
H7 O2 1_555 1_555
H8 O1 1_555 1_555
H9 O2 1_555 1_555
H1B O1B 1_555 1_555
O1B Ba1 1_555 1_555
O2C Ba1 1_555 1_555
O3B Ba1 1_555 1_555
Ba1B O1 1_555 1_555
Ba1C O2 1_555 1_555
Ba1C_2 O4 1_555 1_555
Ba1_2 O5 1_555 1_555
O4C Ba1 1_555 1_555
O5_2 Ba1 1_555 1_555
H5B O3B 1_555 1_555
H6B O3B 1_555 1_555
H7C O2C 1_555 1_555
H8B O1B 1_555 1_555
H9C O2C 1_555 1_555
O3 Ba1B 1_555 1_555
O4 C4 1_555 1_555
C6 C7 1_555 1_555
O1B Ba1B 1_555 1_555
O2C Ba1C_2 1_555 1_555
O3B Ba1B 1_555 1_555
Ba1C O4C 1_555 1_555

#END
