
#######################################################################
#
#                 Cambridge Crystallographic Data Centre
#                                CCDC 
#
#######################################################################
#
# If this CIF has been generated from an entry in the Cambridge 
# Structural Database, then it will include bibliographic, chemical, 
# crystal, experimental, refinement or atomic coordinate data resulting 
# from the CCDC's data processing and validation procedures.
#
#######################################################################

data_ETOVIS
_symmetry_cell_setting           tetragonal
_symmetry_space_group_name_H-M   'P 4/n c c'
_symmetry_Int_Tables_number      130
_space_group_name_Hall           '-P 4a 2ac'
loop_
_symmetry_equiv_pos_site_id
_symmetry_equiv_pos_as_xyz
1 x,y,z
2 1/2-y,x,z
3 y,1/2-x,z
4 1/2+y,1/2+x,1/2-z
5 1/2+x,1/2+y,-z
6 x,1/2-y,1/2+z
7 1/2-x,y,1/2+z
8 y,x,1/2+z
9 -x,-y,-z
10 1/2+y,-x,-z
11 -y,1/2+x,-z
12 1/2-y,1/2-x,1/2+z
13 1/2-x,1/2-y,z
14 -x,1/2+y,1/2-z
15 1/2+x,-y,1/2-z
16 -y,-x,1/2-z
_cell_length_a                   14.39820(10)
_cell_length_b                   14.39820(10)
_cell_length_c                   18.34340(10)
_cell_angle_alpha                90
_cell_angle_beta                 90
_cell_angle_gamma                90
_cell_volume                     3802.74
loop_
_atom_site_label
_atom_site_type_symbol
_atom_site_fract_x
_atom_site_fract_y
_atom_site_fract_z
Fe1 Fe -0.04913(5) 0.04913(5) 0.2500
Fe2 Fe 0.2500 0.2500 0.24640(17)
O1 O -0.0923(3) 0.1154(3) 0.3328(4)
O2 O 0.2500 0.2500 0.3991(8)
N1 N 0.0425(4) -0.0210(4) 0.3210(6)
N2 N 0.2500 0.2500 0.3358(8)
N3 N 0.0632(3) 0.1485(4) 0.2357(4)
N4 N 0.2500 0.2500 0.0850(8)
C1 C -0.0520(6) 0.1330(5) 0.3941(7)
C2 C -0.0903(6) 0.2032(5) 0.4412(7)
H1 H -0.1428 0.2357 0.4265
C3 C -0.0509(8) 0.2230(6) 0.5073(7)
H2 H -0.0797 0.2657 0.5380
C4 C 0.0312(8) 0.1807(8) 0.5294(7)
H3 H 0.0607 0.1980 0.5724
C5 C 0.0669(7) 0.1126(8) 0.4856(8)
H4 H 0.1194 0.0811 0.5018
C6 C 0.0289(6) 0.0871(6) 0.4171(7)
C7 C 0.0664(6) 0.0107(7) 0.3836(7)
H5 H 0.1132 -0.0209 0.4083
C8 C 0.0789(10) -0.1105(9) 0.2899(7)
C9 C 0.141(2) -0.1671(12) 0.3057(16)
C10 C 0.1320(4) 0.1871(4) 0.2386(4)
C11 C 0.2500 0.2500 0.1497(10)
C8O C 0.1105(9) -0.0789(10) 0.2101(7)
N1O N 0.0210(4) -0.0425(4) 0.1790(6)
C7O C -0.0107(7) -0.0664(6) 0.1164(7)
C6O C -0.0871(6) -0.0289(6) 0.0829(7)
C1O C -0.1330(5) 0.0520(6) 0.1059(7)
O1O O -0.1154(3) 0.0923(3) 0.1672(4)
C2O C -0.2032(5) 0.0903(6) 0.0588(7)
H1O H -0.2357 0.1428 0.0735
C3O C -0.2230(6) 0.0509(8) -0.0073(7)
H2O H -0.2657 0.0797 -0.0380
C4O C -0.1807(8) -0.0312(8) -0.0294(7)
H3O H -0.1980 -0.0607 -0.0724
C5O C -0.1126(8) -0.0669(7) 0.0144(8)
H4O H -0.0811 -0.1194 -0.0018
H5O H 0.0209 -0.1132 0.0917
C9O C 0.1671(12) -0.141(2) 0.1943(16)
N3A N 0.3515(4) 0.0632(3) 0.2357(4)
C10A C 0.3129(4) 0.1320(4) 0.2386(4)
N3B N 0.1485(4) 0.4368(3) 0.2357(4)
C10B C 0.1871(4) 0.3680(4) 0.2386(4)
N3L N 0.4368(3) 0.3515(4) 0.2357(4)
C10L C 0.3680(4) 0.3129(4) 0.2386(4)
Fe1A Fe 0.45087(5) -0.04913(5) 0.2500
O1A O 0.3846(3) -0.0923(3) 0.3328(4)
N1A N 0.5210(4) 0.0425(4) 0.3210(6)
C1A C 0.3670(5) -0.0520(6) 0.3941(7)
C2A C 0.2968(5) -0.0903(6) 0.4412(7)
H1A H 0.2643 -0.1428 0.4265
C3A C 0.2770(6) -0.0509(8) 0.5073(7)
H2A H 0.2343 -0.0797 0.5380
C4A C 0.3193(8) 0.0312(8) 0.5294(7)
H3A H 0.3020 0.0607 0.5724
C5A C 0.3874(8) 0.0669(7) 0.4856(8)
H4A H 0.4189 0.1194 0.5018
C6A C 0.4129(6) 0.0289(6) 0.4171(7)
C7A C 0.4893(7) 0.0664(6) 0.3836(7)
H5A H 0.5209 0.1132 0.4083
C8A C 0.6105(9) 0.0789(10) 0.2899(7)
C9A C 0.6671(12) 0.141(2) 0.3057(16)
C8N C 0.5789(10) 0.1105(9) 0.2101(7)
N1N N 0.5425(4) 0.0210(4) 0.1790(6)
C7N C 0.5664(6) -0.0107(7) 0.1164(7)
C6N C 0.5289(6) -0.0871(6) 0.0829(7)
C1N C 0.4480(6) -0.1330(5) 0.1059(7)
O1N O 0.4077(3) -0.1154(3) 0.1672(4)
C2N C 0.4097(6) -0.2032(5) 0.0588(7)
H1N H 0.3572 -0.2357 0.0735
C3N C 0.4491(8) -0.2230(6) -0.0073(7)
H2N H 0.4203 -0.2657 -0.0380
C4N C 0.5312(8) -0.1807(8) -0.0294(7)
H3N H 0.5607 -0.1980 -0.0724
C5N C 0.5669(7) -0.1126(8) 0.0144(8)
H4N H 0.6194 -0.0811 -0.0018
H5N H 0.6132 0.0209 0.0917
C9N C 0.641(2) 0.1671(12) 0.1943(16)
N3O N -0.1485(4) -0.0632(3) 0.2643(4)
Fe1B Fe 0.04913(5) 0.54913(5) 0.2500
Fe1C Fe 0.54913(5) 0.45087(5) 0.2500
N3N N 0.5632(3) -0.1485(4) 0.2643(4)
loop_
_geom_bond_atom_site_label_1
_geom_bond_atom_site_label_2
_geom_bond_site_symmetry_1
_geom_bond_site_symmetry_2
Fe1 O1 1_555 1_555
Fe2 N2 1_555 1_555
O1 C1 1_555 1_555
O2 N2 1_555 1_555
N1 Fe1 1_555 1_555
N3 Fe1 1_555 1_555
N4 C11 1_555 1_555
C1 C2 1_555 1_555
C2 H1 1_555 1_555
C3 C2 1_555 1_555
H2 C3 1_555 1_555
C4 C3 1_555 1_555
H3 C4 1_555 1_555
C5 C4 1_555 1_555
H4 C5 1_555 1_555
C6 C1 1_555 1_555
C7 N1 1_555 1_555
H5 C7 1_555 1_555
C8 N1 1_555 1_555
C9 C8 1_555 1_555
C10 Fe2 1_555 1_555
C11 Fe2 1_555 1_555
C8O C8 1_555 1_555
N1O Fe1 1_555 1_555
C7O N1O 1_555 1_555
C6O C7O 1_555 1_555
C1O C6O 1_555 1_555
O1O Fe1 1_555 1_555
C2O C1O 1_555 1_555
H1O C2O 1_555 1_555
C3O C2O 1_555 1_555
H2O C3O 1_555 1_555
C4O C3O 1_555 1_555
H3O C4O 1_555 1_555
C5O C6O 1_555 1_555
H4O C5O 1_555 1_555
H5O C7O 1_555 1_555
C9O C8O 1_555 1_555
N3A C10A 1_555 1_555
C10A Fe2 1_555 1_555
N3B C10B 1_555 1_555
C10B Fe2 1_555 1_555
N3L C10L 1_555 1_555
C10L Fe2 1_555 1_555
Fe1A N3A 1_555 1_555
O1A Fe1A 1_555 1_555
N1A Fe1A 1_555 1_555
C1A O1A 1_555 1_555
C2A C1A 1_555 1_555
H1A C2A 1_555 1_555
C3A C2A 1_555 1_555
H2A C3A 1_555 1_555
C4A C3A 1_555 1_555
H3A C4A 1_555 1_555
C5A C4A 1_555 1_555
H4A C5A 1_555 1_555
C6A C1A 1_555 1_555
C7A N1A 1_555 1_555
H5A C7A 1_555 1_555
C8A N1A 1_555 1_555
C9A C8A 1_555 1_555
C8N C8A 1_555 1_555
N1N Fe1A 1_555 1_555
C7N N1N 1_555 1_555
C6N C7N 1_555 1_555
C1N C6N 1_555 1_555
O1N Fe1A 1_555 1_555
C2N C1N 1_555 1_555
H1N C2N 1_555 1_555
C3N C2N 1_555 1_555
H2N C3N 1_555 1_555
C4N C3N 1_555 1_555
H3N C4N 1_555 1_555
C5N C6N 1_555 1_555
H4N C5N 1_555 1_555
H5N C7N 1_555 1_555
C9N C8N 1_555 1_555
N3O Fe1 1_555 1_555
Fe1B N3B 1_555 1_555
Fe1C N3L 1_555 1_555
N3N Fe1A 1_555 1_555
N3 C10 1_555 1_555
C5 C6 1_555 1_555
C6 C7 1_555 1_555
C8O N1O 1_555 1_555
C1O O1O 1_555 1_555
C4O C5O 1_555 1_555
C5A C6A 1_555 1_555
C6A C7A 1_555 1_555
C8N N1N 1_555 1_555
C1N O1N 1_555 1_555
C4N C5N 1_555 1_555

#END
