
#######################################################################
#
#                 Cambridge Crystallographic Data Centre
#                                CCDC 
#
#######################################################################
#
# If this CIF has been generated from an entry in the Cambridge 
# Structural Database, then it will include bibliographic, chemical, 
# crystal, experimental, refinement or atomic coordinate data resulting 
# from the CCDC's data processing and validation procedures.
#
#######################################################################

data_ETOYIW
_symmetry_cell_setting           triclinic
_symmetry_space_group_name_H-M   'P -1'
_symmetry_Int_Tables_number      2
_space_group_name_Hall           '-P 1'
loop_
_symmetry_equiv_pos_site_id
_symmetry_equiv_pos_as_xyz
1 x,y,z
2 -x,-y,-z
_cell_length_a                   7.1936(10)
_cell_length_b                   9.5775(11)
_cell_length_c                   10.4218(14)
_cell_angle_alpha                112.714(9)
_cell_angle_beta                 104.149(11)
_cell_angle_gamma                92.68(1)
_cell_volume                     634.2
loop_
_atom_site_label
_atom_site_type_symbol
_atom_site_fract_x
_atom_site_fract_y
_atom_site_fract_z
C1 C 0.2848(18) 0.4579(13) 0.0750(12)
H1 H 0.1742 0.3946 0.0710
H2 H 0.4015 0.4317 0.1221
H3 H 0.2854 0.4415 -0.0218
C2 C 0.2745(13) 0.6214(11) 0.1579(9)
C3 C 0.2515(14) 0.8908(11) 0.2347(10)
H4 H 0.2437 0.9918 0.2478
C4 C 0.2597(11) 0.8389(10) 0.3383(9)
C5 C 0.2502(11) 0.9274(9) 0.4849(9)
C6 C 0.2499(13) 1.0824(10) 0.5464(10)
H5 H 0.2571 1.1478 0.5004
C7 C 0.2327(13) 0.9521(11) 0.7021(10)
C8 C 0.220(2) 0.9124(16) 0.8265(12)
H6 H 0.2207 0.8045 0.7987
H7 H 0.1028 0.9388 0.8511
H8 H 0.3300 0.9686 0.9089
N1 N 0.2720(11) 0.6838(9) 0.2955(8)
N2 N 0.2379(10) 0.8540(8) 0.5760(8)
Cd1 Cd 0.24677(9) 0.58678(7) 0.47579(7)
Br1 Br 0.36362(13) 0.31498(11) 0.34631(11)
Br2 Br 0.14395(13) 0.49070(11) 0.67291(10)
S1 S 0.2574(4) 0.7476(3) 0.0763(2)
S2 S 0.2347(4) 1.1375(3) 0.7182(2)
Cd1A Cd 0.75323(9) 0.41322(7) 0.52421(7)
Cd1A_2 Cd -0.24677(9) 0.41322(7) 0.52421(7)
Br1A Br 0.63638(13) 0.68502(11) 0.65369(11)
Br2A Br -0.14395(13) 0.50930(11) 0.32709(10)
loop_
_geom_bond_atom_site_label_1
_geom_bond_atom_site_label_2
_geom_bond_site_symmetry_1
_geom_bond_site_symmetry_2
C1 H1 1_555 1_555
H2 C1 1_555 1_555
H3 C1 1_555 1_555
C2 C1 1_555 1_555
C3 H4 1_555 1_555
C4 C3 1_555 1_555
C5 C4 1_555 1_555
C6 C5 1_555 1_555
H5 C6 1_555 1_555
C7 C8 1_555 1_555
C8 H6 1_555 1_555
H7 C8 1_555 1_555
H8 C8 1_555 1_555
N1 C2 1_555 1_555
N2 C5 1_555 1_555
Cd1 N1 1_555 1_555
Br1 Cd1 1_555 1_555
Br2 Cd1 1_555 1_555
S1 C2 1_555 1_555
S2 C6 1_555 1_555
Cd1A Br1 1_555 1_555
Cd1A_2 Br2 1_555 1_555
Br1A Cd1 1_555 1_555
Br2A Cd1 1_555 1_555
C3 S1 1_555 1_555
C4 N1 1_555 1_555
C7 N2 1_555 1_555
C7 S2 1_555 1_555
N2 Cd1 1_555 1_555
Cd1A Br1A 1_555 1_555
Cd1A_2 Br2A 1_555 1_555

#END
