
#######################################################################
#
#                 Cambridge Crystallographic Data Centre
#                                CCDC 
#
#######################################################################
#
# If this CIF has been generated from an entry in the Cambridge 
# Structural Database, then it will include bibliographic, chemical, 
# crystal, experimental, refinement or atomic coordinate data resulting 
# from the CCDC's data processing and validation procedures.
#
#######################################################################

data_ETOYES
_symmetry_cell_setting           monoclinic
_symmetry_space_group_name_H-M   'P 21'
_symmetry_Int_Tables_number      4
_space_group_name_Hall           'P 2yb'
loop_
_symmetry_equiv_pos_site_id
_symmetry_equiv_pos_as_xyz
1 x,y,z
2 -x,1/2+y,-z
_cell_length_a                   12.737(3)
_cell_length_b                   10.351(2)
_cell_length_c                   12.921(3)
_cell_angle_alpha                90
_cell_angle_beta                 117.897(5)
_cell_angle_gamma                90
_cell_volume                     1505.55
loop_
_atom_site_label
_atom_site_type_symbol
_atom_site_fract_x
_atom_site_fract_y
_atom_site_fract_z
Zn1 Zn 0.98663(5) 0.52948(6) 0.05781(6)
O1 O 0.9437(3) 0.7189(3) -0.0165(4)
O2 O 0.9765(3) 0.8500(3) -0.1340(4)
O3 O 0.4363(3) 0.5483(5) -0.4711(4)
H1 H 0.3776 0.6001 -0.4868
O7 O 0.9788(3) 0.6216(4) 0.2010(4)
H2 H 1.0047 0.6030 0.2708
H3 H 0.9433 0.6905 0.1879
N1 N 0.9777(3) 0.5024(4) -0.1113(4)
H8 H 1.0334 0.4451 -0.1055
H9 H 0.9060 0.4704 -0.1617
N2 N 0.7974(4) 0.4738(4) -0.0048(5)
N3 N 0.1952(4) 0.3563(6) -0.1416(5)
N4 N 1.1758(4) 0.5685(4) 0.1397(5)
N5 N 1.7923(4) 0.7197(6) 0.3878(5)
C1 C 0.9696(4) 0.7405(5) -0.0963(5)
C2 C 0.9972(4) 0.6270(5) -0.1564(5)
H10 H 1.0823 0.6317 -0.1328
C3 C 0.9319(4) 0.6385(6) -0.2899(5)
H11 H 0.9466 0.7234 -0.3121
H12 H 0.9636 0.5750 -0.3230
C4 C 0.7991(5) 0.6185(6) -0.3409(5)
C5 C 0.7253(5) 0.7113(6) -0.3317(5)
H13 H 0.7578 0.7901 -0.2967
C6 C 0.6048(5) 0.6907(6) -0.3729(5)
H14 H 0.5583 0.7541 -0.3633
C7 C 0.5535(6) 0.5759(6) -0.4284(6)
C8 C 0.6243(6) 0.4824(6) -0.4417(6)
H15 H 0.5902 0.4062 -0.4814
C9 C 0.7457(5) 0.5019(6) -0.3962(5)
H16 H 0.7926 0.4366 -0.4024
C10 C 0.7067(4) 0.5145(7) -0.1040(5)
H17 H 0.7238 0.5597 -0.1564
C11 C 0.5883(5) 0.4938(5) -0.1342(5)
H18 H 0.5285 0.5253 -0.2046
C12 C 0.5601(5) 0.4255(5) -0.0580(5)
C13 C 0.6544(5) 0.3816(5) 0.0445(5)
H19 H 0.6397 0.3333 0.0970
C14 C 0.7698(5) 0.4086(5) 0.0695(6)
H20 H 0.8311 0.3807 0.1406
C15 C 0.4342(5) 0.4008(5) -0.0871(5)
C16 C 0.3420(5) 0.4794(6) -0.1647(6)
H21 H 0.3583 0.5509 -0.1985
C17 C 0.2266(6) 0.4506(7) -0.1911(6)
H22 H 0.1665 0.5008 -0.2475
C18 C 0.2840(5) 0.2878(6) -0.0652(6)
H23 H 0.2659 0.2222 -0.0269
C19 C 0.4017(5) 0.3041(5) -0.0364(6)
H24 H 0.4589 0.2492 0.0175
C20 C 1.2537(5) 0.4846(6) 0.1388(6)
H25 H 1.2252 0.4049 0.1035
C21 C 1.3747(5) 0.5066(6) 0.1865(5)
H26 H 1.4246 0.4441 0.1815
C22 C 1.4206(5) 0.6245(6) 0.2425(5)
C23 C 1.3409(5) 0.7119(6) 0.2452(6)
H27 H 1.3669 0.7916 0.2816
C24 C 1.2206(5) 0.6801(6) 0.1929(6)
H28 H 1.1682 0.7410 0.1955
C25 C 1.5496(5) 0.6566(5) 0.2940(5)
C26 C 1.6280(5) 0.5827(6) 0.2715(6)
H29 H 1.6011 0.5100 0.2240
C27 C 1.7453(6) 0.6179(7) 0.3199(7)
H30 H 1.7956 0.5663 0.3036
C28 C 1.7173(6) 0.7898(7) 0.4097(6)
H31 H 1.7472 0.8616 0.4580
C29 C 1.5978(5) 0.7626(6) 0.3650(5)
H32 H 1.5498 0.8160 0.3829
Zn1A Zn 1.01337(5) 1.02948(6) -0.05781(6)
O2A O 1.0235(3) 0.3500(3) 0.1340(4)
O4 O 0.2786(5) 0.7124(6) -0.4484(5)
O5 O 0.4065(4) 0.7555(4) -0.2707(4)
O6 O 0.2188(4) 0.7763(6) -0.3267(5)
N6 N 0.3008(6) 0.7476(6) -0.3472(6)
O8 O 1.0732(4) 0.5515(5) 0.4204(4)
H4 H 1.1231 0.6008 0.4678
H5 H 1.0447 0.5075 0.4538
O9 O 0.9978(4) 0.3726(5) 0.5315(4)
H6 H 0.9287 0.3486 0.4905
H7 H 1.0422 0.3110 0.5413
loop_
_geom_bond_atom_site_label_1
_geom_bond_atom_site_label_2
_geom_bond_site_symmetry_1
_geom_bond_site_symmetry_2
Zn1 O1 1_555 1_555
O1 C1 1_555 1_555
O2 C1 1_555 1_555
O3 H1 1_555 1_555
O4 N6 1_555 1_555
O5 N6 1_555 1_555
O6 N6 1_555 1_555
O7 Zn1 1_555 1_555
H2 O7 1_555 1_555
H3 O7 1_555 1_555
O8 H4 1_555 1_555
H5 O8 1_555 1_555
O9 H6 1_555 1_555
H7 O9 1_555 1_555
N1 Zn1 1_555 1_555
H8 N1 1_555 1_555
H9 N1 1_555 1_555
N2 Zn1 1_555 1_555
N3 C17 1_555 1_555
N4 Zn1 1_555 1_555
N5 C27 1_555 1_555
C1 C2 1_555 1_555
C2 N1 1_555 1_555
H10 C2 1_555 1_555
C3 C2 1_555 1_555
H11 C3 1_555 1_555
H12 C3 1_555 1_555
C4 C3 1_555 1_555
C5 C4 1_555 1_555
H13 C5 1_555 1_555
C6 C5 1_555 1_555
H14 C6 1_555 1_555
C7 O3 1_555 1_555
C8 C7 1_555 1_555
H15 C8 1_555 1_555
C9 C4 1_555 1_555
H16 C9 1_555 1_555
C10 N2 1_555 1_555
H17 C10 1_555 1_555
C11 C10 1_555 1_555
H18 C11 1_555 1_555
C12 C11 1_555 1_555
C13 C12 1_555 1_555
H19 C13 1_555 1_555
C14 N2 1_555 1_555
H20 C14 1_555 1_555
C15 C12 1_555 1_555
C16 C15 1_555 1_555
H21 C16 1_555 1_555
C17 C16 1_555 1_555
H22 C17 1_555 1_555
C18 N3 1_555 1_555
H23 C18 1_555 1_555
C19 C15 1_555 1_555
H24 C19 1_555 1_555
C20 N4 1_555 1_555
H25 C20 1_555 1_555
C21 C20 1_555 1_555
H26 C21 1_555 1_555
C22 C21 1_555 1_555
C23 C22 1_555 1_555
H27 C23 1_555 1_555
C24 N4 1_555 1_555
H28 C24 1_555 1_555
C25 C22 1_555 1_555
C26 C25 1_555 1_555
H29 C26 1_555 1_555
C27 C26 1_555 1_555
H30 C27 1_555 1_555
C28 N5 1_555 1_555
H31 C28 1_555 1_555
C29 C25 1_555 1_555
H32 C29 1_555 1_555
Zn1A O2 1_555 1_555
O2A Zn1 1_555 1_555
C6 C7 1_555 1_555
C8 C9 1_555 1_555
C13 C14 1_555 1_555
C18 C19 1_555 1_555
C23 C24 1_555 1_555
C28 C29 1_555 1_555

#END
