
#######################################################################
#
#                 Cambridge Crystallographic Data Centre
#                                CCDC 
#
#######################################################################
#
# If this CIF has been generated from an entry in the Cambridge 
# Structural Database, then it will include bibliographic, chemical, 
# crystal, experimental, refinement or atomic coordinate data resulting 
# from the CCDC's data processing and validation procedures.
#
#######################################################################

data_ETOZIX
_symmetry_cell_setting           orthorhombic
_symmetry_space_group_name_H-M   'P n a 21'
_symmetry_Int_Tables_number      33
_space_group_name_Hall           'P 2c -2n'
loop_
_symmetry_equiv_pos_site_id
_symmetry_equiv_pos_as_xyz
1 x,y,z
2 -x,-y,1/2+z
3 1/2+x,1/2-y,z
4 1/2-x,1/2+y,1/2+z
_cell_length_a                   19.260(4)
_cell_length_b                   12.161(2)
_cell_length_c                   6.5493(13)
_cell_angle_alpha                90
_cell_angle_beta                 90
_cell_angle_gamma                90
_cell_volume                     1533.98
loop_
_atom_site_label
_atom_site_type_symbol
_atom_site_fract_x
_atom_site_fract_y
_atom_site_fract_z
Mn1 Mn 0.57992(4) 0.37155(6) 0.67916(16)
N1 N 0.6768(3) 0.3026(4) 0.5202(9)
N2 N 0.6704(2) 0.4167(4) 0.8785(8)
C1 C 0.6796(4) 0.2444(5) 0.3480(10)
H1 H 0.6385 0.2277 0.2802
C2 C 0.7429(5) 0.2076(6) 0.2658(13)
H2 H 0.7435 0.1662 0.1464
C3 C 0.8034(5) 0.2333(7) 0.3629(15)
H3 H 0.8455 0.2099 0.3084
C4 C 0.8027(4) 0.2946(6) 0.5440(13)
C5 C 0.8643(4) 0.3266(7) 0.6559(18)
H4 H 0.9077 0.3074 0.6049
C6 C 0.8603(4) 0.3828(8) 0.8299(16)
H5 H 0.9010 0.4006 0.8988
C7 C 0.7958(3) 0.4161(6) 0.9127(12)
C8 C 0.7882(4) 0.4722(7) 1.0989(12)
H6 H 0.8274 0.4906 1.1742
C9 C 0.7246(4) 0.4999(5) 1.1701(14)
H7 H 0.7197 0.5372 1.2932
C10 C 0.6668(4) 0.4714(5) 1.0556(11)
H8 H 0.6233 0.4913 1.1043
C11 C 0.7335(3) 0.3880(5) 0.8082(10)
C12 C 0.7379(3) 0.3280(5) 0.6200(10)
C13 C 0.5493(3) 0.5910(5) 0.4494(9)
H9 H 0.5562 0.6662 0.4325
O1 O 0.5939(2) 0.5392(3) 0.5480(7)
O2 O 0.4966(2) 0.5501(3) 0.3718(7)
C14 C 0.5604(4) 0.1288(6) 0.7827(12)
H10 H 0.5642 0.1173 0.6428
O3 O 0.5629(3) 0.2210(4) 0.8388(7)
O4 O 0.5534(4) 0.0457(4) 0.8904(10)
O5 O 0.5090(2) 0.3307(3) 0.4372(7)
H11 H 0.4990 0.3890 0.3784
H12 H 0.5014 0.2710 0.3749
Mn1A Mn 0.42008(4) 0.62845(6) 0.17916(16)
O2A O 0.5034(2) 0.4499(3) 0.8718(7)
O6 O 0.4906(3) 0.1479(4) 0.2384(9)
H13 H 0.4780 0.0927 0.3042
H14 H 0.5237 0.1210 0.1706
loop_
_geom_bond_atom_site_label_1
_geom_bond_atom_site_label_2
_geom_bond_site_symmetry_1
_geom_bond_site_symmetry_2
Mn1 N1 1_555 1_555
N1 C1 1_555 1_555
N2 Mn1 1_555 1_555
C1 H1 1_555 1_555
C2 C1 1_555 1_555
H2 C2 1_555 1_555
C3 C2 1_555 1_555
H3 C3 1_555 1_555
C4 C3 1_555 1_555
C5 C4 1_555 1_555
H4 C5 1_555 1_555
C6 C5 1_555 1_555
H5 C6 1_555 1_555
C7 C6 1_555 1_555
C8 C7 1_555 1_555
H6 C8 1_555 1_555
C9 C8 1_555 1_555
H7 C9 1_555 1_555
C10 N2 1_555 1_555
H8 C10 1_555 1_555
C11 N2 1_555 1_555
C12 N1 1_555 1_555
C13 H9 1_555 1_555
O1 Mn1 1_555 1_555
O2 C13 1_555 1_555
C14 H10 1_555 1_555
O3 Mn1 1_555 1_555
O4 C14 1_555 1_555
O5 Mn1 1_555 1_555
H11 O5 1_555 1_555
H12 O5 1_555 1_555
O6 H13 1_555 1_555
H14 O6 1_555 1_555
Mn1A O2 1_555 1_555
O2A Mn1 1_555 1_555
C4 C12 1_555 1_555
C7 C11 1_555 1_555
C9 C10 1_555 1_555
C11 C12 1_555 1_555
C13 O1 1_555 1_555
C14 O3 1_555 1_555

#END
