
#######################################################################
#
#                 Cambridge Crystallographic Data Centre
#                                CCDC 
#
#######################################################################
#
# If this CIF has been generated from an entry in the Cambridge 
# Structural Database, then it will include bibliographic, chemical, 
# crystal, experimental, refinement or atomic coordinate data resulting 
# from the CCDC's data processing and validation procedures.
#
#######################################################################

data_ETOZOD01
_symmetry_cell_setting           monoclinic
_symmetry_space_group_name_H-M   'P 21/c'
_symmetry_Int_Tables_number      14
_space_group_name_Hall           '-P 2ybc'
loop_
_symmetry_equiv_pos_site_id
_symmetry_equiv_pos_as_xyz
1 x,y,z
2 -x,1/2+y,1/2-z
3 -x,-y,-z
4 x,1/2-y,1/2+z
_cell_length_a                   10.0740(14)
_cell_length_b                   12.0550(17)
_cell_length_c                   17.501(2)
_cell_angle_alpha                90
_cell_angle_beta                 105.7330(18)
_cell_angle_gamma                90
_cell_volume                     2045.73
loop_
_atom_site_label
_atom_site_type_symbol
_atom_site_fract_x
_atom_site_fract_y
_atom_site_fract_z
Zn1 Zn 0.95199(2) 0.20620(2) 0.174372(12)
C1 C 1.22649(19) 0.47012(16) -0.03957(10)
O1 O 1.01929(16) 0.28901(12) 0.09630(8)
C2 C 1.15022(19) 0.44607(16) 0.07928(10)
N1 N 1.12515(16) 0.35323(14) -0.24572(9)
C3 C 1.15573(19) 0.40985(16) 0.00463(10)
H1 H 1.1114 0.3444 -0.0160
O2 O 1.08095(17) 0.40804(14) 0.19568(8)
C4 C 0.6536(2) 0.43322(17) 0.38866(11)
C5 C 1.0786(2) 0.37821(17) 0.12782(11)
C6 C 1.23585(19) 0.43030(15) -0.11801(10)
C7 C 0.7290(2) 0.47202(18) 0.46950(11)
C8 C 0.5071(2) 0.3565(2) 0.23964(12)
H2 H 0.4579 0.3313 0.1898
C9 C 0.7199(2) 0.37219(17) 0.34217(11)
H3 H 0.8134 0.3566 0.3614
C10 C 0.7195(2) 0.27469(18) 0.21461(12)
N2 N 0.87115(18) 0.42420(15) 0.59954(9)
C11 C 0.6472(2) 0.33423(17) 0.26701(11)
O3 O 0.84685(17) 0.25315(16) 0.24570(9)
O4 O 0.6580(2) 0.25114(19) 0.14594(9)
C12 C 1.3645(2) 0.39182(19) -0.21139(13)
H4 H 1.4476 0.3902 -0.2249
C13 C 1.2898(2) 0.56935(17) -0.00832(11)
H5 H 1.3366 0.6112 -0.0374
C14 C 1.12113(19) 0.38926(16) -0.17390(10)
H6 H 1.0375 0.3866 -0.1610
C15 C 1.2147(2) 0.54471(17) 0.10907(11)
H7 H 1.2115 0.5696 0.1588
C16 C 0.8056(2) 0.39774(18) 0.52365(11)
H8 H 0.8125 0.3252 0.5070
C17 C 1.2835(2) 0.60586(18) 0.06552(12)
H9 H 1.3260 0.6721 0.0858
C18 C 1.2459(2) 0.35394(18) -0.26348(12)
H10 H 1.2497 0.3278 -0.3129
C19 C 0.4402(2) 0.4155(2) 0.28531(13)
H11 H 0.3459 0.4284 0.2668
C20 C 0.7198(3) 0.5793(2) 0.49492(14)
H12 H 0.6673 0.6317 0.4608
C21 C 0.5131(2) 0.4556(2) 0.35892(13)
H13 H 0.4680 0.4977 0.3887
C22 C 1.3591(2) 0.43222(18) -0.13882(12)
H14 H 1.4382 0.4608 -0.1037
C23 C 0.8636(3) 0.5288(2) 0.62222(13)
H15 H 0.9098 0.5488 0.6739
C24 C 0.7898(3) 0.6082(2) 0.57198(15)
H16 H 0.7869 0.6807 0.5895
Zn1C Zn 0.95199(2) 0.29380(2) -0.325628(12)
Zn1C_2 Zn 0.95199(2) 0.29380(2) 0.674372(12)
N1C N 1.12515(16) 0.14677(14) 0.25428(9)
N2C N 0.87115(18) 0.07580(15) 0.09954(9)
loop_
_geom_bond_atom_site_label_1
_geom_bond_atom_site_label_2
_geom_bond_site_symmetry_1
_geom_bond_site_symmetry_2
Zn1 O1 1_555 1_555
C1 C3 1_555 1_555
O1 C5 1_555 1_555
C2 C3 1_555 1_555
N1 C14 1_555 1_555
C3 H1 1_555 1_555
O2 C5 1_555 1_555
C4 C7 1_555 1_555
C5 C2 1_555 1_555
C6 C1 1_555 1_555
C7 C16 1_555 1_555
C8 H2 1_555 1_555
C9 C4 1_555 1_555
H3 C9 1_555 1_555
C10 C11 1_555 1_555
N2 C16 1_555 1_555
C11 C8 1_555 1_555
O3 Zn1 1_555 1_555
O4 C10 1_555 1_555
C12 H4 1_555 1_555
C13 C1 1_555 1_555
H5 C13 1_555 1_555
C14 C6 1_555 1_555
H6 C14 1_555 1_555
C15 C2 1_555 1_555
H7 C15 1_555 1_555
C16 H8 1_555 1_555
C17 C13 1_555 1_555
H9 C17 1_555 1_555
C18 N1 1_555 1_555
H10 C18 1_555 1_555
C19 C8 1_555 1_555
H11 C19 1_555 1_555
C20 C7 1_555 1_555
H12 C20 1_555 1_555
C21 C4 1_555 1_555
H13 C21 1_555 1_555
C22 C6 1_555 1_555
H14 C22 1_555 1_555
C23 N2 1_555 1_555
H15 C23 1_555 1_555
C24 C20 1_555 1_555
H16 C24 1_555 1_555
Zn1C N1 1_555 1_555
Zn1C_2 N2 1_555 1_555
N1C Zn1 1_555 1_555
N2C Zn1 1_555 1_555
C9 C11 1_555 1_555
C10 O3 1_555 1_555
C12 C18 1_555 1_555
C12 C22 1_555 1_555
C15 C17 1_555 1_555
C19 C21 1_555 1_555
C23 C24 1_555 1_555

#END
