
#######################################################################
#
#                 Cambridge Crystallographic Data Centre
#                                CCDC 
#
#######################################################################
#
# If this CIF has been generated from an entry in the Cambridge 
# Structural Database, then it will include bibliographic, chemical, 
# crystal, experimental, refinement or atomic coordinate data resulting 
# from the CCDC's data processing and validation procedures.
#
#######################################################################

data_ETUBIF01
_symmetry_cell_setting           monoclinic
_symmetry_space_group_name_H-M   'P 21/c'
_symmetry_Int_Tables_number      14
_space_group_name_Hall           '-P 2ybc'
loop_
_symmetry_equiv_pos_site_id
_symmetry_equiv_pos_as_xyz
1 x,y,z
2 -x,1/2+y,1/2-z
3 -x,-y,-z
4 x,1/2-y,1/2+z
_cell_length_a                   8.471(3)
_cell_length_b                   19.385(6)
_cell_length_c                   9.215(3)
_cell_angle_alpha                90
_cell_angle_beta                 102.490(4)
_cell_angle_gamma                90
_cell_volume                     1477.39
loop_
_atom_site_label
_atom_site_type_symbol
_atom_site_fract_x
_atom_site_fract_y
_atom_site_fract_z
Cd1 Cd 0.0000 0.5000 1.0000
N1 N 0.0474(3) 0.44926(12) 0.7839(3)
N2 N 0.1672(3) 0.42737(12) 0.5994(2)
N3 N 0.7700(3) 0.18628(13) 0.6526(3)
N4 N 0.9079(3) 0.10561(12) 0.5663(3)
N5 N 0.3826(3) 0.47793(19) 1.1670(3)
O1 O 0.2505(3) 0.45146(14) 1.1259(4)
O2 O 0.3884(6) 0.5394(3) 1.1602(7)
O3 O 0.4947(3) 0.44848(15) 1.2548(3)
C1 C 0.1864(3) 0.44806(14) 0.7397(3)
H1 H 0.2854 0.4602 0.7997
C2 C 0.0056(4) 0.41296(18) 0.5492(4)
H2 H -0.0446 0.3972 0.4552
C3 C -0.0661(4) 0.42650(16) 0.6649(4)
H3 H -0.1756 0.4211 0.6631
C4 C 0.2949(4) 0.42164(16) 0.5143(3)
H4 H 0.3883 0.4483 0.5631
H5 H 0.2561 0.4407 0.4156
C5 C 0.3443(3) 0.34702(14) 0.5013(3)
C6 C 0.2609(4) 0.30566(18) 0.3886(3)
H6 H 0.1778 0.3245 0.3168
C7 C 0.2991(4) 0.23700(18) 0.3810(4)
H7 H 0.2411 0.2096 0.3049
C8 C 0.4229(4) 0.20870(16) 0.4856(4)
H8 H 0.4478 0.1621 0.4810
C9 C 0.5111(3) 0.25007(15) 0.5987(3)
C10 C 0.4713(3) 0.31863(14) 0.6052(3)
H9 H 0.5302 0.3464 0.6801
C11 C 0.6439(4) 0.21910(19) 0.7162(4)
H10 H 0.6925 0.2550 0.7848
H11 H 0.5977 0.1850 0.7720
C12 C 0.8855(4) 0.21889(16) 0.5937(4)
H12 H 0.9029 0.2662 0.5906
C13 C 0.9688(3) 0.16894(17) 0.5412(4)
H13 H 1.0546 0.1763 0.4949
C14 C 0.7878(4) 0.11867(15) 0.6332(3)
H14 H 0.7236 0.0849 0.6631
Cd1A Cd 1.0000 0.0000 0.5000
Cd1A_2 Cd 1.0000 1.0000 0.5000
N1A N 0.9526(3) 0.94926(12) 0.7161(3)
N1B N -0.0474(3) 0.55074(12) 1.2161(3)
N2A N 0.8328(3) 0.92737(12) 0.9006(2)
N3A N 0.2300(3) 0.68628(13) 0.8474(3)
N4A N 0.0921(3) 0.60561(12) 0.9337(3)
N4C N -0.0921(3) 0.39439(12) 1.0663(3)
N5B N -0.3826(3) 0.52207(19) 0.8330(3)
O1B O -0.2505(3) 0.54854(14) 0.8741(4)
O2B O -0.3884(6) 0.4606(3) 0.8398(7)
O3B O -0.4947(3) 0.55152(15) 0.7452(3)
C1A C 0.8136(3) 0.94806(14) 0.7603(3)
H1A H 0.7146 0.9602 0.7003
C2A C 0.9944(4) 0.91296(18) 0.9508(4)
H2A H 1.0446 0.8972 1.0448
C3A C 1.0661(4) 0.92650(16) 0.8351(4)
H3A H 1.1756 0.9211 0.8369
C4A C 0.7051(4) 0.92164(16) 0.9857(3)
H4A H 0.6117 0.9483 0.9369
H5A H 0.7439 0.9407 1.0844
C5A C 0.6557(3) 0.84702(14) 0.9987(3)
C6A C 0.7391(4) 0.80566(18) 1.1114(3)
H6A H 0.8222 0.8245 1.1832
C7A C 0.7009(4) 0.73700(18) 1.1190(4)
H7A H 0.7589 0.7096 1.1951
C8A C 0.5771(4) 0.70870(16) 1.0144(4)
H8A H 0.5522 0.6621 1.0190
C9A C 0.4889(3) 0.75007(15) 0.9013(3)
C10A C 0.5287(3) 0.81863(14) 0.8948(3)
H9A H 0.4698 0.8464 0.8199
C11A C 0.3561(4) 0.71910(19) 0.7838(4)
H10A H 0.3075 0.7550 0.7152
H11A H 0.4023 0.6850 0.7280
C12A C 0.1145(4) 0.71889(16) 0.9063(4)
H12A H 0.0971 0.7662 0.9094
C13A C 0.0312(3) 0.66894(17) 0.9588(4)
H13A H -0.0546 0.6763 1.0051
C14A C 0.2122(4) 0.61867(15) 0.8668(3)
H14A H 0.2764 0.5849 0.8369
loop_
_geom_bond_atom_site_label_1
_geom_bond_atom_site_label_2
_geom_bond_site_symmetry_1
_geom_bond_site_symmetry_2
Cd1 N1 1_555 1_555
N1 C1 1_555 1_555
N2 C1 1_555 1_555
N3 C11 1_555 1_555
N4 C13 1_555 1_555
N5 O1 1_555 1_555
O1 Cd1 1_555 1_555
O2 N5 1_555 1_555
O3 N5 1_555 1_555
C1 H1 1_555 1_555
C2 N2 1_555 1_555
H2 C2 1_555 1_555
C3 N1 1_555 1_555
H3 C3 1_555 1_555
C4 N2 1_555 1_555
H4 C4 1_555 1_555
H5 C4 1_555 1_555
C5 C4 1_555 1_555
C6 C5 1_555 1_555
H6 C6 1_555 1_555
C7 C6 1_555 1_555
H7 C7 1_555 1_555
C8 C7 1_555 1_555
H8 C8 1_555 1_555
C9 C8 1_555 1_555
C10 C5 1_555 1_555
H9 C10 1_555 1_555
C11 C9 1_555 1_555
H10 C11 1_555 1_555
H11 C11 1_555 1_555
C12 N3 1_555 1_555
H12 C12 1_555 1_555
C13 C12 1_555 1_555
H13 C13 1_555 1_555
C14 N3 1_555 1_555
H14 C14 1_555 1_555
Cd1A N4 1_555 1_555
Cd1A_2 N1A 1_555 1_555
N1A C1A 1_555 1_555
N1B Cd1 1_555 1_555
N2A C1A 1_555 1_555
N3A C11A 1_555 1_555
N4A Cd1 1_555 1_555
N4C Cd1 1_555 1_555
N5B O1B 1_555 1_555
O1B Cd1 1_555 1_555
O2B N5B 1_555 1_555
O3B N5B 1_555 1_555
C1A H1A 1_555 1_555
C2A N2A 1_555 1_555
H2A C2A 1_555 1_555
C3A N1A 1_555 1_555
H3A C3A 1_555 1_555
C4A N2A 1_555 1_555
H4A C4A 1_555 1_555
H5A C4A 1_555 1_555
C5A C4A 1_555 1_555
C6A C5A 1_555 1_555
H6A C6A 1_555 1_555
C7A C6A 1_555 1_555
H7A C7A 1_555 1_555
C8A C7A 1_555 1_555
H8A C8A 1_555 1_555
C9A C8A 1_555 1_555
C10A C5A 1_555 1_555
H9A C10A 1_555 1_555
C11A C9A 1_555 1_555
H10A C11A 1_555 1_555
H11A C11A 1_555 1_555
C12A N3A 1_555 1_555
H12A C12A 1_555 1_555
C13A N4A 1_555 1_555
H13A C13A 1_555 1_555
C14A N3A 1_555 1_555
H14A C14A 1_555 1_555
N4 C14 1_555 1_555
C2 C3 1_555 1_555
C9 C10 1_555 1_555
N4A C14A 1_555 1_555
C2A C3A 1_555 1_555
C9A C10A 1_555 1_555
C12A C13A 1_555 1_555

#END
