
#######################################################################
#
#                 Cambridge Crystallographic Data Centre
#                                CCDC 
#
#######################################################################
#
# If this CIF has been generated from an entry in the Cambridge 
# Structural Database, then it will include bibliographic, chemical, 
# crystal, experimental, refinement or atomic coordinate data resulting 
# from the CCDC's data processing and validation procedures.
#
#######################################################################

data_ETUBIF
_symmetry_cell_setting           monoclinic
_symmetry_space_group_name_H-M   'P 21/c'
_symmetry_Int_Tables_number      14
_space_group_name_Hall           '-P 2ybc'
loop_
_symmetry_equiv_pos_site_id
_symmetry_equiv_pos_as_xyz
1 x,y,z
2 -x,1/2+y,1/2-z
3 -x,-y,-z
4 x,1/2-y,1/2+z
_cell_length_a                   8.4542(8)
_cell_length_b                   19.3910(18)
_cell_length_c                   9.2222(8)
_cell_angle_alpha                90
_cell_angle_beta                 102.415(10)
_cell_angle_gamma                90
_cell_volume                     1476.49
loop_
_atom_site_label
_atom_site_type_symbol
_atom_site_fract_x
_atom_site_fract_y
_atom_site_fract_z
Cd1 Cd 0.5000 0.5000 0.0000
O1 O 0.9948(4) 0.4485(2) 0.2556(4)
O2 O 0.8878(9) 0.5415(3) 0.1617(11)
O3 O 0.7504(4) 0.45152(19) 0.1259(4)
N1 N 0.4529(4) 0.55084(17) 0.2160(4)
N2 N 0.3328(4) 0.57252(16) 0.4000(3)
N3 N -0.2702(4) 0.81383(18) 0.3469(4)
N4 N -0.4073(4) 0.89430(17) 0.4339(4)
N5 N 0.8818(5) 0.4775(3) 0.1699(6)
C1 C 0.5664(5) 0.5731(2) 0.3353(5)
H1 H 0.6763 0.5781 0.3374
C2 C 0.4946(5) 0.5868(2) 0.4507(5)
H2 H 0.5446 0.6026 0.5446
C3 C 0.3138(5) 0.5521(2) 0.2602(4)
H3 H 0.2145 0.5400 0.2002
C4 C 0.2053(6) 0.5788(2) 0.4856(5)
H4 H 0.2443 0.5598 0.5841
H5 H 0.1116 0.5521 0.4373
C5 C 0.1556(5) 0.6528(2) 0.4988(4)
C6 C 0.2395(5) 0.6941(2) 0.6119(5)
H6 H 0.3224 0.6753 0.6839
C7 C 0.2009(5) 0.7630(2) 0.6186(5)
H7 H 0.2587 0.7904 0.6947
C8 C 0.0777(6) 0.7914(2) 0.5137(5)
H8 H 0.0538 0.8381 0.5178
C9 C -0.0113(5) 0.7503(2) 0.4012(4)
C10 C 0.0285(5) 0.6813(2) 0.3951(4)
H9 H -0.0307 0.6535 0.3206
C11 C -0.1437(6) 0.7816(3) 0.2829(5)
H10 H -0.0969 0.8160 0.2283
H11 H -0.1919 0.7459 0.2136
C12 C -0.2881(5) 0.8817(2) 0.3668(5)
H12 H -0.2241 0.9155 0.3368
C13 C -0.4682(5) 0.8310(2) 0.4589(5)
H13 H -0.5539 0.8236 0.5056
C14 C -0.3855(5) 0.7810(2) 0.4059(5)
H14 H -0.4031 0.7337 0.4088
Cd1A Cd -0.5000 1.0000 0.5000
Cd1A_2 Cd 1.5000 0.0000 -0.5000
O1B O 0.0052(4) 0.5515(2) -0.2556(4)
O2B O 0.1122(9) 0.4585(3) -0.1617(11)
O3B O 0.2496(4) 0.54848(19) -0.1259(4)
N1B N 0.5471(4) 0.44916(17) -0.2160(4)
N2B N 0.6672(4) 0.42748(16) -0.4000(3)
N3B N 1.2702(4) 0.18617(18) -0.3469(4)
N4B N 1.4073(4) 0.10570(17) -0.4339(4)
N4A N 0.4073(4) 0.39430(17) 0.0661(4)
N4C N 0.5927(4) 0.60570(17) -0.0661(4)
N5B N 0.1182(5) 0.5225(3) -0.1699(6)
C1B C 0.4336(5) 0.4269(2) -0.3353(5)
H1B H 0.3237 0.4219 -0.3374
C2B C 0.5054(5) 0.4132(2) -0.4507(5)
H2B H 0.4554 0.3974 -0.5446
C3B C 0.6862(5) 0.4479(2) -0.2602(4)
H3B H 0.7855 0.4600 -0.2002
C4B C 0.7947(6) 0.4212(2) -0.4856(5)
H4B H 0.7557 0.4402 -0.5841
H5B H 0.8884 0.4479 -0.4373
C5B C 0.8444(5) 0.3472(2) -0.4988(4)
C6B C 0.7605(5) 0.3059(2) -0.6119(5)
H6B H 0.6776 0.3247 -0.6839
C7B C 0.7991(5) 0.2370(2) -0.6186(5)
H7B H 0.7413 0.2096 -0.6947
C8B C 0.9223(6) 0.2086(2) -0.5137(5)
H8B H 0.9462 0.1619 -0.5178
C9B C 1.0113(5) 0.2497(2) -0.4012(4)
C10B C 0.9715(5) 0.3187(2) -0.3951(4)
H9B H 1.0307 0.3465 -0.3206
C11B C 1.1437(6) 0.2184(3) -0.2829(5)
H10B H 1.0969 0.1840 -0.2283
H11B H 1.1919 0.2541 -0.2136
C12B C 1.2881(5) 0.1183(2) -0.3668(5)
H12B H 1.2241 0.0845 -0.3368
C13B C 1.4682(5) 0.1690(2) -0.4589(5)
H13B H 1.5539 0.1764 -0.5056
C14B C 1.3855(5) 0.2190(2) -0.4059(5)
H14B H 1.4031 0.2663 -0.4088
loop_
_geom_bond_atom_site_label_1
_geom_bond_atom_site_label_2
_geom_bond_site_symmetry_1
_geom_bond_site_symmetry_2
Cd1 O3 1_555 1_555
O1 N5 1_555 1_555
O2 N5 1_555 1_555
O3 N5 1_555 1_555
N1 Cd1 1_555 1_555
N2 C2 1_555 1_555
N3 C11 1_555 1_555
N4 C12 1_555 1_555
C1 N1 1_555 1_555
H1 C1 1_555 1_555
C2 C1 1_555 1_555
H2 C2 1_555 1_555
C3 N1 1_555 1_555
H3 C3 1_555 1_555
C4 N2 1_555 1_555
H4 C4 1_555 1_555
H5 C4 1_555 1_555
C5 C4 1_555 1_555
C6 C5 1_555 1_555
H6 C6 1_555 1_555
C7 C6 1_555 1_555
H7 C7 1_555 1_555
C8 C7 1_555 1_555
H8 C8 1_555 1_555
C9 C8 1_555 1_555
C10 C5 1_555 1_555
H9 C10 1_555 1_555
C11 C9 1_555 1_555
H10 C11 1_555 1_555
H11 C11 1_555 1_555
C12 N3 1_555 1_555
H12 C12 1_555 1_555
C13 N4 1_555 1_555
H13 C13 1_555 1_555
C14 N3 1_555 1_555
H14 C14 1_555 1_555
Cd1A N4 1_555 1_555
Cd1A_2 N4B 1_555 1_555
O1B N5B 1_555 1_555
O2B N5B 1_555 1_555
O3B Cd1 1_555 1_555
N1B Cd1 1_555 1_555
N2B C2B 1_555 1_555
N3B C11B 1_555 1_555
N4B C12B 1_555 1_555
N4A Cd1 1_555 1_555
N4C Cd1 1_555 1_555
N5B O3B 1_555 1_555
C1B N1B 1_555 1_555
H1B C1B 1_555 1_555
C2B C1B 1_555 1_555
H2B C2B 1_555 1_555
C3B N1B 1_555 1_555
H3B C3B 1_555 1_555
C4B N2B 1_555 1_555
H4B C4B 1_555 1_555
H5B C4B 1_555 1_555
C5B C4B 1_555 1_555
C6B C5B 1_555 1_555
H6B C6B 1_555 1_555
C7B C6B 1_555 1_555
H7B C7B 1_555 1_555
C8B C7B 1_555 1_555
H8B C8B 1_555 1_555
C9B C8B 1_555 1_555
C10B C5B 1_555 1_555
H9B C10B 1_555 1_555
C11B C9B 1_555 1_555
H10B C11B 1_555 1_555
H11B C11B 1_555 1_555
C12B N3B 1_555 1_555
H12B C12B 1_555 1_555
C13B N4B 1_555 1_555
H13B C13B 1_555 1_555
C14B N3B 1_555 1_555
H14B C14B 1_555 1_555
N2 C3 1_555 1_555
C9 C10 1_555 1_555
C13 C14 1_555 1_555
N2B C3B 1_555 1_555
C9B C10B 1_555 1_555
C13B C14B 1_555 1_555

#END
