
#######################################################################
#
#                 Cambridge Crystallographic Data Centre
#                                CCDC 
#
#######################################################################
#
# If this CIF has been generated from an entry in the Cambridge 
# Structural Database, then it will include bibliographic, chemical, 
# crystal, experimental, refinement or atomic coordinate data resulting 
# from the CCDC's data processing and validation procedures.
#
#######################################################################

data_ETUDAY
_symmetry_cell_setting           triclinic
_symmetry_space_group_name_H-M   'P -1'
_symmetry_Int_Tables_number      2
_space_group_name_Hall           '-P 1'
loop_
_symmetry_equiv_pos_site_id
_symmetry_equiv_pos_as_xyz
1 x,y,z
2 -x,-y,-z
_cell_length_a                   8.2430(16)
_cell_length_b                   9.883(2)
_cell_length_c                   12.471(3)
_cell_angle_alpha                107.89(3)
_cell_angle_beta                 92.56(3)
_cell_angle_gamma                100.87(3)
_cell_volume                     943.748
loop_
_atom_site_label
_atom_site_type_symbol
_atom_site_fract_x
_atom_site_fract_y
_atom_site_fract_z
Cd1 Cd 0.11453(3) 0.60014(3) 0.41179(2)
Cd2 Cd -0.57143(4) 0.61268(3) 0.13887(2)
N1 N -0.1169(4) 0.6592(4) 0.3566(3)
N2 N -0.3504(4) 0.6640(4) 0.2604(3)
N3 N -0.8467(5) 0.5313(4) 0.0754(3)
N4 N 0.3300(4) 0.5195(4) 0.4813(3)
O1 O 0.2840(4) 0.7172(3) 0.2971(2)
O2 O 0.2490(4) 0.8512(3) 0.4666(3)
O3 O -0.4994(5) 0.8182(4) 0.0800(3)
O4 O -0.4912(5) 0.6179(4) -0.0502(3)
O5 O -0.0466(4) 0.3641(4) 0.3995(3)
O6 O 0.0470(4) 0.3713(4) 0.2397(3)
C1 C -0.2435(5) 0.5845(4) 0.2770(3)
H1 H -0.2560 0.4861 0.2369
C2 C -0.1470(6) 0.7967(5) 0.3952(5)
H2 H -0.0817 0.8749 0.4523
C3 C -0.2867(6) 0.8002(5) 0.3367(4)
H3 H -0.3328 0.8815 0.3464
C4 C 0.2943(5) 0.8406(4) 0.3717(4)
C5 C 0.3576(7) 0.9766(5) 0.3423(5)
H4 H 0.4769 0.9999 0.3534
H5 H 0.3156 1.0556 0.3903
H6 H 0.3207 0.9609 0.2645
C6 C -0.4663(6) 0.7538(5) -0.0158(4)
C7 C -0.3946(9) 0.8390(7) -0.0897(6)
H7 H -0.3828 0.9410 -0.0505
H8 H -0.4674 0.8117 -0.1586
H9 H -0.2877 0.8188 -0.1073
C8 C -0.0310(5) 0.3029(5) 0.2964(4)
C9 C -0.1108(10) 0.1452(7) 0.2456(7)
H10 H -0.0904 0.1116 0.1676
H11 H -0.2284 0.1321 0.2501
H12 H -0.0648 0.0906 0.2863
C10 C -0.9090(6) 0.6471(5) 0.0435(4)
C11 C 0.4650(5) 0.6402(5) 0.5482(4)
C12 C -0.9047(6) 0.3900(5) -0.0132(4)
C13 C 0.3973(6) 0.4080(5) 0.3984(4)
H13 H 0.430(5) 0.709(5) 0.606(4)
H14 H -0.860(5) 0.398(5) -0.082(4)
H15 H -0.870(6) 0.656(5) -0.026(5)
H16 H -0.872(6) 0.313(6) 0.008(4)
H17 H 0.444(6) 0.456(5) 0.339(4)
H18 H 0.505(7) 0.691(6) 0.496(5)
H19 H 0.309(7) 0.316(6) 0.362(4)
H20 H 0.278(8) 0.479(7) 0.530(6)
H21 H -0.879(6) 0.532(5) 0.126(4)
H22 H -0.873(7) 0.735(6) 0.110(5)
C12A C -1.0953(6) 0.6100(5) 0.0132(4)
N3A N -1.1533(5) 0.4687(4) -0.0754(3)
C10A C -1.0910(6) 0.3529(5) -0.0435(4)
H15A H -1.130(6) 0.344(5) 0.026(5)
H22A H -1.127(7) 0.265(6) -0.110(5)
H21A H -1.121(6) 0.468(5) -0.126(4)
H14A H -1.140(5) 0.602(5) 0.082(4)
H16A H -1.128(6) 0.687(6) -0.008(4)
C13A C 0.6027(6) 0.5920(5) 0.6016(4)
N4A N 0.6700(4) 0.4805(4) 0.5187(3)
C11A C 0.5350(5) 0.3598(5) 0.4518(4)
H13A H 0.570(5) 0.291(5) 0.394(4)
H18A H 0.495(7) 0.309(6) 0.504(5)
H20A H 0.722(8) 0.521(7) 0.470(6)
H17A H 0.556(6) 0.544(5) 0.661(4)
H19A H 0.691(7) 0.684(6) 0.638(4)
O5A O 0.0466(4) 0.6359(4) 0.6005(3)
O6A O -0.0470(4) 0.6287(4) 0.7603(3)
C8A C 0.0310(5) 0.6971(5) 0.7036(4)
C9A C 0.1108(10) 0.8548(7) 0.7544(7)
H10A H 0.0904 0.8884 0.8324
H11A H 0.2284 0.8679 0.7499
H12A H 0.0648 0.9094 0.7137
Cd1A Cd 0.88547(3) 0.39986(3) 0.58821(2)
Cd2_2 Cd 0.42857(4) 0.61268(3) 0.13887(2)
O1_2 O -0.7160(4) 0.7172(3) 0.2971(2)
O2_2 O -0.7510(4) 0.8512(3) 0.4666(3)
C4_2 C -0.7057(5) 0.8406(4) 0.3717(4)
C5_2 C -0.6424(7) 0.9766(5) 0.3423(5)
H4_2 H -0.5231 0.9999 0.3534
H5_2 H -0.6844 1.0556 0.3903
H6_2 H -0.6793 0.9609 0.2645
O3A O -0.5006(5) 0.1818(4) -0.0800(3)
O4A O -0.5088(5) 0.3821(4) 0.0502(3)
C6A C -0.5337(6) 0.2462(5) 0.0158(4)
C7A C -0.6054(9) 0.1610(7) 0.0897(6)
H7A H -0.6172 0.0590 0.0505
H8A H -0.5326 0.1883 0.1586
H9A H -0.7123 0.1812 0.1073
N1A N 1.1169(4) 0.3408(4) 0.6434(3)
N2A N 1.3504(4) 0.3360(4) 0.7396(3)
C1A C 1.2435(5) 0.4155(4) 0.7230(3)
H1A H 1.2560 0.5139 0.7631
C2A C 1.1470(6) 0.2033(5) 0.6048(5)
H2A H 1.0817 0.1251 0.5477
C3A C 1.2867(6) 0.1998(5) 0.6633(4)
H3A H 1.3328 0.1185 0.6536
Cd2A Cd -0.42857(4) 0.38732(3) -0.13887(2)
Cd1A_2 Cd -0.11453(3) 0.39986(3) 0.58821(2)
Cd2A_2 Cd -1.42857(4) 0.38732(3) -0.13887(2)
O1A O 0.7160(4) 0.2828(3) 0.7029(2)
O2A O 0.7510(4) 0.1488(3) 0.5334(3)
O5_2 O 0.9534(4) 0.3641(4) 0.3995(3)
O5A_2 O 1.0466(4) 0.6359(4) 0.6005(3)
O6A_2 O 0.9530(4) 0.6287(4) 0.7603(3)
N2_2 N 0.6496(4) 0.6640(4) 0.2604(3)
N3_2 N 0.1533(5) 0.5313(4) 0.0754(3)
O3_2 O 0.5006(5) 0.8182(4) 0.0800(3)
O4_2 O 0.5088(5) 0.6179(4) -0.0502(3)
O4A_2 O 0.4912(5) 0.3821(4) 0.0502(3)
Cd1_2 Cd -0.88547(3) 0.60014(3) 0.41179(2)
Cd2A_3 Cd 1.57143(4) 0.38732(3) 0.86113(2)
H21_2 H 0.121(6) 0.532(5) 0.126(4)
loop_
_geom_bond_atom_site_label_1
_geom_bond_atom_site_label_2
_geom_bond_site_symmetry_1
_geom_bond_site_symmetry_2
Cd1 N1 1_555 1_555
Cd2 N2 1_555 1_555
N1 C1 1_555 1_555
N2 C1 1_555 1_555
N3 Cd2 1_555 1_555
N4 Cd1 1_555 1_555
O1 Cd1 1_555 1_555
O2 Cd1 1_555 1_555
O3 Cd2 1_555 1_555
O4 Cd2 1_555 1_555
O5 Cd1 1_555 1_555
O6 Cd1 1_555 1_555
C1 H1 1_555 1_555
C2 N1 1_555 1_555
H2 C2 1_555 1_555
C3 N2 1_555 1_555
H3 C3 1_555 1_555
C4 O1 1_555 1_555
C5 C4 1_555 1_555
H4 C5 1_555 1_555
H5 C5 1_555 1_555
H6 C5 1_555 1_555
C6 O3 1_555 1_555
C7 C6 1_555 1_555
H7 C7 1_555 1_555
H8 C7 1_555 1_555
H9 C7 1_555 1_555
C8 O5 1_555 1_555
C9 C8 1_555 1_555
H10 C9 1_555 1_555
H11 C9 1_555 1_555
H12 C9 1_555 1_555
C10 N3 1_555 1_555
C11 N4 1_555 1_555
C12 N3 1_555 1_555
C13 N4 1_555 1_555
H13 C11 1_555 1_555
H14 C12 1_555 1_555
H15 C10 1_555 1_555
H16 C12 1_555 1_555
H17 C13 1_555 1_555
H18 C11 1_555 1_555
H19 C13 1_555 1_555
H20 N4 1_555 1_555
H21 N3 1_555 1_555
H22 C10 1_555 1_555
C12A C10 1_555 1_555
N3A C12A 1_555 1_555
C10A C12 1_555 1_555
H15A C10A 1_555 1_555
H22A C10A 1_555 1_555
H21A N3A 1_555 1_555
H14A C12A 1_555 1_555
H16A C12A 1_555 1_555
C13A C11 1_555 1_555
N4A C13A 1_555 1_555
C11A C13 1_555 1_555
H13A C11A 1_555 1_555
H18A C11A 1_555 1_555
H20A N4A 1_555 1_555
H17A C13A 1_555 1_555
H19A C13A 1_555 1_555
O5A Cd1 1_555 1_555
O6A C8A 1_555 1_555
C8A O5A 1_555 1_555
C9A C8A 1_555 1_555
H10A C9A 1_555 1_555
H11A C9A 1_555 1_555
H12A C9A 1_555 1_555
Cd1A N4A 1_555 1_555
Cd2_2 O1 1_555 1_555
O1_2 Cd2 1_555 1_555
O2_2 C4_2 1_555 1_555
C4_2 O1_2 1_555 1_555
C5_2 C4_2 1_555 1_555
H4_2 C5_2 1_555 1_555
H5_2 C5_2 1_555 1_555
H6_2 C5_2 1_555 1_555
O3A C6A 1_555 1_555
O4A Cd2 1_555 1_555
C6A O4A 1_555 1_555
C7A C6A 1_555 1_555
H7A C7A 1_555 1_555
H8A C7A 1_555 1_555
H9A C7A 1_555 1_555
N1A Cd1A 1_555 1_555
N2A C1A 1_555 1_555
C1A N1A 1_555 1_555
H1A C1A 1_555 1_555
C2A N1A 1_555 1_555
H2A C2A 1_555 1_555
C3A N2A 1_555 1_555
H3A C3A 1_555 1_555
Cd2A O4 1_555 1_555
Cd1A_2 O5 1_555 1_555
Cd2A_2 N3A 1_555 1_555
O1A Cd1A 1_555 1_555
O2A Cd1A 1_555 1_555
O5_2 Cd1A 1_555 1_555
O5A_2 Cd1A 1_555 1_555
O6A_2 Cd1A 1_555 1_555
N2_2 Cd2_2 1_555 1_555
N3_2 Cd2_2 1_555 1_555
O3_2 Cd2_2 1_555 1_555
O4_2 Cd2_2 1_555 1_555
O4A_2 Cd2_2 1_555 1_555
Cd1_2 O1_2 1_555 1_555
Cd2A_3 N2A 1_555 1_555
H21_2 N3_2 1_555 1_555
O2 C4 1_555 1_555
O4 C6 1_555 1_555
O6 C8 1_555 1_555
C2 C3 1_555 1_555
N3A C10A 1_555 1_555
N4A C11A 1_555 1_555
O5A Cd1A_2 1_555 1_555
O6A Cd1A_2 1_555 1_555
O2_2 Cd1_2 1_555 1_555
O3A Cd2A 1_555 1_555
O4A Cd2A 1_555 1_555
C2A C3A 1_555 1_555

#END
