
#######################################################################
#
#                 Cambridge Crystallographic Data Centre
#                                CCDC 
#
#######################################################################
#
# If this CIF has been generated from an entry in the Cambridge 
# Structural Database, then it will include bibliographic, chemical, 
# crystal, experimental, refinement or atomic coordinate data resulting 
# from the CCDC's data processing and validation procedures.
#
#######################################################################

data_ETUDON
_symmetry_cell_setting           monoclinic
_symmetry_space_group_name_H-M   'C 2/c'
_symmetry_Int_Tables_number      15
_space_group_name_Hall           '-C 2yn'
loop_
_symmetry_equiv_pos_site_id
_symmetry_equiv_pos_as_xyz
1 x,y,z
2 -x,y,1/2-z
3 1/2+x,1/2+y,z
4 1/2-x,1/2+y,1/2-z
5 -x,-y,-z
6 x,-y,1/2+z
7 1/2-x,1/2-y,-z
8 1/2+x,1/2-y,1/2+z
_cell_length_a                   12.301(2)
_cell_length_b                   6.8277(6)
_cell_length_c                   27.965(3)
_cell_angle_alpha                90
_cell_angle_beta                 106.280(10)
_cell_angle_gamma                90
_cell_volume                     2254.54
loop_
_atom_site_label
_atom_site_type_symbol
_atom_site_fract_x
_atom_site_fract_y
_atom_site_fract_z
C1 C 0.2790(2) 0.2499(4) 0.60429(9)
C2 C 0.1789(2) 0.1729(4) 0.57347(10)
C3 C 0.1218(3) 0.2695(6) 0.53041(12)
H1 H 0.0551 0.2173 0.5100
C4 C 0.1633(4) 0.4426(6) 0.51767(13)
H2 H 0.1241 0.5075 0.4887
C5 C 0.2620(3) 0.5203(5) 0.54735(13)
H3 H 0.2899 0.6373 0.5384
C6 C 0.3204(3) 0.4242(4) 0.59073(11)
H4 H 0.3874 0.4769 0.6108
N1 N 0.38459(19) -0.0793(3) 0.65478(9)
O1 O 0.27693(18) 0.1323(3) 0.69244(7)
O2 O 0.45006(17) 0.2695(3) 0.68135(7)
O3 O 0.2321(2) 0.6414(3) 0.68516(8)
H5 H 0.260(3) 0.704(5) 0.6675(12)
H6 H 0.181(3) 0.584(5) 0.6658(12)
O4 O 0.5000 0.7199(5) 0.7500
H7 H 0.477(3) 0.791(5) 0.7260(10)
K1 K 0.35556(5) 0.42956(9) 0.76528(2)
Cl1 Cl 0.48019(7) -0.09326(13) 0.61910(3)
Cl2 Cl 0.12087(7) -0.04411(13) 0.58723(4)
S1 S 0.35458(5) 0.14187(9) 0.66219(2)
C1C C 0.2210(2) 0.7499(4) 0.89571(9)
C2C C 0.3211(2) 0.6729(4) 0.92653(10)
C3C C 0.3782(3) 0.7695(6) 0.96959(12)
H1C H 0.4449 0.7173 0.9900
C4C C 0.3367(4) 0.9426(6) 0.98233(13)
H2C H 0.3759 1.0075 1.0113
C5C C 0.2380(3) 1.0203(5) 0.95265(13)
H3C H 0.2101 1.1373 0.9616
C6C C 0.1796(3) 0.9242(4) 0.90927(11)
H4C H 0.1126 0.9769 0.8892
N1C N 0.11541(19) 0.4207(3) 0.84522(9)
O1C O 0.22307(18) 0.6323(3) 0.80756(7)
O1_2 O 0.27693(18) 1.1323(3) 0.69244(7)
O2C O 0.04994(17) 0.7695(3) 0.81865(7)
O2A O 0.54994(17) 0.2695(3) 0.81865(7)
O2B O -0.04994(17) 0.7695(3) 0.68135(7)
O3C O 0.2679(2) 0.1414(3) 0.81484(8)
O3C_2 O 0.2679(2) 1.1414(3) 0.81484(8)
H5C H 0.240(3) 0.204(5) 0.8325(12)
H5C_2 H 0.240(3) 1.204(5) 0.8325(12)
H6C H 0.319(3) 0.084(5) 0.8342(12)
H6C_2 H 0.319(3) 1.084(5) 0.8342(12)
O4B O 0.0000 1.2199(5) 0.7500
H7A H 0.523(3) 0.791(5) 0.7740(10)
H7C H 0.023(3) 1.291(5) 0.7740(10)
H7B H -0.023(3) 1.291(5) 0.7260(10)
K1C K 0.14444(5) 0.92956(9) 0.73472(2)
K1C_2 K 0.14444(5) -0.07044(9) 0.73472(2)
K1A K 0.64444(5) 0.42956(9) 0.73472(2)
K1B K -0.14444(5) 0.92956(9) 0.76528(2)
Cl1C Cl 0.01981(7) 0.40674(13) 0.88090(3)
Cl2C Cl 0.37913(7) 0.45589(13) 0.91277(4)
S1C S 0.14542(5) 0.64187(9) 0.83781(2)
loop_
_geom_bond_atom_site_label_1
_geom_bond_atom_site_label_2
_geom_bond_site_symmetry_1
_geom_bond_site_symmetry_2
C1 C2 1_555 1_555
C2 C3 1_555 1_555
C3 H1 1_555 1_555
C4 C3 1_555 1_555
H2 C4 1_555 1_555
C5 C4 1_555 1_555
H3 C5 1_555 1_555
C6 C1 1_555 1_555
H4 C6 1_555 1_555
N1 Cl1 1_555 1_555
O1 K1 1_555 1_555
O2 K1 1_555 1_555
O3 H5 1_555 1_555
H6 O3 1_555 1_555
O4 H7 1_555 1_555
K1 O3 1_555 1_555
Cl2 C2 1_555 1_555
S1 C1 1_555 1_555
C1C C2C 1_555 1_555
C2C C3C 1_555 1_555
C3C H1C 1_555 1_555
C4C C3C 1_555 1_555
H2C C4C 1_555 1_555
C5C C4C 1_555 1_555
H3C C5C 1_555 1_555
C6C C1C 1_555 1_555
H4C C6C 1_555 1_555
N1C Cl1C 1_555 1_555
O1C K1 1_555 1_555
O1_2 K1C 1_555 1_555
O2C K1C 1_555 1_555
O2A K1 1_555 1_555
O2B K1C 1_555 1_555
O3C K1 1_555 1_555
O3C_2 H5C_2 1_555 1_555
H5C O3C 1_555 1_555
H6C O3C 1_555 1_555
H6C_2 O3C_2 1_555 1_555
O4B H7C 1_555 1_555
H7A O4 1_555 1_555
H7B O4B 1_555 1_555
K1C O3 1_555 1_555
K1C_2 O1 1_555 1_555
K1A O2 1_555 1_555
K1B O2C 1_555 1_555
Cl2C C2C 1_555 1_555
S1C C1C 1_555 1_555
C5 C6 1_555 1_555
N1 S1 1_555 1_555
O1 S1 1_555 1_555
O2 S1 1_555 1_555
O4 K1 1_555 1_555
O4 K1A 1_555 1_555
C5C C6C 1_555 1_555
N1C S1C 1_555 1_555
O1C K1C 1_555 1_555
O1C S1C 1_555 1_555
O2C S1C 1_555 1_555
O2A K1A 1_555 1_555
O2B K1B 1_555 1_555
O3C K1C_2 1_555 1_555
O3C_2 K1C 1_555 1_555
O4B K1C 1_555 1_555
O4B K1B 1_555 1_555

#END
