
#######################################################################
#
#                 Cambridge Crystallographic Data Centre
#                                CCDC 
#
#######################################################################
#
# If this CIF has been generated from an entry in the Cambridge 
# Structural Database, then it will include bibliographic, chemical, 
# crystal, experimental, refinement or atomic coordinate data resulting 
# from the CCDC's data processing and validation procedures.
#
#######################################################################

data_ETUFIJ
_symmetry_cell_setting           monoclinic
_symmetry_space_group_name_H-M   'P 21/c'
_symmetry_Int_Tables_number      14
_space_group_name_Hall           '-P 2ybc'
loop_
_symmetry_equiv_pos_site_id
_symmetry_equiv_pos_as_xyz
1 x,y,z
2 -x,1/2+y,1/2-z
3 -x,-y,-z
4 x,1/2-y,1/2+z
_cell_length_a                   15.4870(10)
_cell_length_b                   10.0620(8)
_cell_length_c                   6.8061(5)
_cell_angle_alpha                90
_cell_angle_beta                 99.888(7)
_cell_angle_gamma                90
_cell_volume                     1044.84
loop_
_atom_site_label
_atom_site_type_symbol
_atom_site_fract_x
_atom_site_fract_y
_atom_site_fract_z
C1 C 0.23433(10) 0.44537(16) 0.6229(2)
C2 C 0.18971(12) 0.32599(18) 0.5954(3)
H1 H 0.2152 0.2528 0.5447
C3 C 0.10664(13) 0.3162(2) 0.6440(3)
H2 H 0.0760 0.2364 0.6266
C4 C 0.07005(11) 0.4256(2) 0.7181(3)
C5 C 0.11456(13) 0.5446(2) 0.7494(3)
H3 H 0.0892 0.6170 0.8028
C6 C 0.19736(12) 0.55468(18) 0.7003(3)
H4 H 0.2280 0.6344 0.7193
N1 N 0.33843(10) 0.58782(15) 0.4143(2)
O1 O 0.40091(8) 0.49624(15) 0.73235(19)
O2 O 0.35592(8) 0.33682(13) 0.4620(2)
O3 O 0.55174(9) 0.29958(15) 0.8656(2)
H5 H 0.5708(15) 0.324(2) 0.769(3)
H6 H 0.5890(13) 0.251(2) 0.924(3)
K1 K 0.43783(2) 0.38377(4) 1.12285(5)
Cl1 Cl -0.03614(3) 0.41509(7) 0.76911(8)
Cl2 Cl 0.26012(3) 0.56182(5) 0.19737(7)
S1 S 0.33942(3) 0.46167(4) 0.55495(6)
O1B O 0.59909(8) 0.50376(15) 1.26765(19)
O2_2 O 0.35592(8) 0.33682(13) 1.4620(2)
O2C O 0.35592(8) 0.16318(13) 0.9620(2)
O3C O 0.55174(9) 0.20042(15) 1.3656(2)
H5C H 0.5708(15) 0.176(2) 1.269(3)
H6C H 0.5890(13) 0.249(2) 1.424(3)
K1B K 0.56217(2) 0.61623(4) 0.87715(5)
K1_2 K 0.43783(2) 0.38377(4) 0.12285(5)
K1C K 0.43783(2) 0.11623(4) 0.62285(5)
Cl2_2 Cl 0.26012(3) 0.56182(5) 1.19737(7)
loop_
_geom_bond_atom_site_label_1
_geom_bond_atom_site_label_2
_geom_bond_site_symmetry_1
_geom_bond_site_symmetry_2
C1 C2 1_555 1_555
C2 H1 1_555 1_555
C3 C2 1_555 1_555
H2 C3 1_555 1_555
C4 C3 1_555 1_555
C5 C4 1_555 1_555
H3 C5 1_555 1_555
C6 C1 1_555 1_555
H4 C6 1_555 1_555
N1 Cl2 1_555 1_555
O1 K1 1_555 1_555
O2 S1 1_555 1_555
O3 H5 1_555 1_555
H6 O3 1_555 1_555
K1 O3 1_555 1_555
Cl1 C4 1_555 1_555
Cl2 K1_2 1_555 1_555
S1 C1 1_555 1_555
O1B K1 1_555 1_555
O2_2 K1 1_555 1_555
O2C K1 1_555 1_555
O3C K1 1_555 1_555
H5C O3C 1_555 1_555
H6C O3C 1_555 1_555
K1B O1 1_555 1_555
K1_2 O2 1_555 1_555
K1C O2 1_555 1_555
Cl2_2 K1 1_555 1_555
C5 C6 1_555 1_555
N1 S1 1_555 1_555
O1 S1 1_555 1_555
O3 K1C 1_555 1_555
O1B K1B 1_555 1_555
O2C K1C 1_555 1_555

#END
