
#######################################################################
#
#                 Cambridge Crystallographic Data Centre
#                                CCDC 
#
#######################################################################
#
# If this CIF has been generated from an entry in the Cambridge 
# Structural Database, then it will include bibliographic, chemical, 
# crystal, experimental, refinement or atomic coordinate data resulting 
# from the CCDC's data processing and validation procedures.
#
#######################################################################

data_ETUGUV
_symmetry_cell_setting           triclinic
_symmetry_space_group_name_H-M   'P -1'
_symmetry_Int_Tables_number      2
_space_group_name_Hall           '-P 1'
loop_
_symmetry_equiv_pos_site_id
_symmetry_equiv_pos_as_xyz
1 x,y,z
2 -x,-y,-z
_cell_length_a                   8.515(2)
_cell_length_b                   9.259(2)
_cell_length_c                   9.468(2)
_cell_angle_alpha                66.126(9)
_cell_angle_beta                 79.667(12)
_cell_angle_gamma                90.130(10)
_cell_volume                     669.192
loop_
_atom_site_label
_atom_site_type_symbol
_atom_site_fract_x
_atom_site_fract_y
_atom_site_fract_z
Cu1 Cu 1.0000 0.0000 0.5000
O1 O 1.0993(3) -0.1666(3) 0.4467(3)
O2 O 0.8560(3) -0.1554(3) 0.6883(3)
N1 N 1.1862(4) -0.0327(4) 0.6752(4)
N2 N 1.5156(4) -0.0385(4) 0.9600(4)
S1 S 1.32112(15) -0.32811(14) 0.30561(14)
F1 F 0.8134(3) -0.5394(3) 0.9867(3)
F2 F 0.8436(4) -0.3232(3) 1.0152(3)
F3 F 0.6386(3) -0.3684(3) 0.9310(3)
C1 C 0.7956(5) -0.3840(4) 0.9219(4)
C2 C 0.8910(4) -0.2981(4) 0.7531(4)
C3 C 1.0005(4) -0.3790(4) 0.6960(4)
H1 H 1.0123 -0.4836 0.7607
C4 C 1.0967(4) -0.3105(4) 0.5427(4)
C5 C 1.2040(4) -0.4091(4) 0.4883(4)
C6 C 1.2274(3) -0.5817(3) 0.5776(3)
H2 H 1.1759 -0.6500 0.6786
C7 C 1.3495(5) -0.6167(5) 0.4691(6)
H3 H 1.3874 -0.7167 0.4958
C8 C 1.4042(5) -0.4962(6) 0.3281(6)
C9 C 1.3332(5) -0.0802(5) 0.6543(5)
H4 H 1.3633 -0.1134 0.5736
C10 C 1.4442(5) -0.0827(5) 0.7471(5)
H5 H 1.5458 -0.1160 0.7285
C11 C 1.3987(4) -0.0344(4) 0.8670(4)
C12 C 1.2454(5) 0.0132(5) 0.8930(5)
H6 H 1.2119 0.0448 0.9744
C13 C 1.1442(4) 0.0122(5) 0.7942(5)
H7 H 1.0417 0.0444 0.8110
H8 H 1.489(6) -0.493(6) 0.248(6)
N2A N 1.4844(4) 0.0385(4) 1.0400(4)
C11A C 1.6013(4) 0.0344(4) 1.1330(4)
C10A C 1.5558(5) 0.0827(5) 1.2529(5)
C9A C 1.6668(5) 0.0802(5) 1.3457(5)
N1A N 1.8138(4) 0.0327(4) 1.3248(4)
C13A C 1.8558(4) -0.0122(5) 1.2058(5)
C12A C 1.7546(5) -0.0132(5) 1.1070(5)
H6A H 1.7881 -0.0448 1.0256
H7A H 1.9583 -0.0444 1.1890
H4A H 1.6367 0.1134 1.4264
H5A H 1.4542 0.1160 1.2715
O1A O 0.9007(3) 0.1666(3) 0.5533(3)
O2A O 1.1440(3) 0.1554(3) 0.3117(3)
S1A S 0.67888(15) 0.32811(14) 0.69439(14)
F1A F 1.1866(3) 0.5394(3) 0.0133(3)
F2A F 1.1564(4) 0.3232(3) -0.0152(3)
F3A F 1.3614(3) 0.3684(3) 0.0690(3)
C1A C 1.2044(5) 0.3840(4) 0.0781(4)
C2A C 1.1090(4) 0.2981(4) 0.2469(4)
C3A C 0.9995(4) 0.3790(4) 0.3040(4)
H1A H 0.9877 0.4836 0.2393
C4A C 0.9033(4) 0.3105(4) 0.4573(4)
C5A C 0.7960(4) 0.4091(4) 0.5117(4)
C6A C 0.7726(3) 0.5817(3) 0.4224(3)
H2A H 0.8241 0.6500 0.3214
C7A C 0.6505(5) 0.6167(5) 0.5309(6)
H3A H 0.6126 0.7167 0.5042
C8A C 0.5958(5) 0.4962(6) 0.6719(6)
H8A H 0.511(6) 0.493(6) 0.752(6)
N1A_2 N 0.8138(4) 0.0327(4) 0.3248(4)
Cu1_2 Cu 2.0000 0.0000 1.5000
loop_
_geom_bond_atom_site_label_1
_geom_bond_atom_site_label_2
_geom_bond_site_symmetry_1
_geom_bond_site_symmetry_2
Cu1 O1 1_555 1_555
O1 C4 1_555 1_555
O2 Cu1 1_555 1_555
N1 Cu1 1_555 1_555
N2 C11 1_555 1_555
S1 C5 1_555 1_555
F1 C1 1_555 1_555
F2 C1 1_555 1_555
F3 C1 1_555 1_555
C1 C2 1_555 1_555
C2 O2 1_555 1_555
C3 C2 1_555 1_555
H1 C3 1_555 1_555
C4 C3 1_555 1_555
C5 C4 1_555 1_555
C6 C5 1_555 1_555
H2 C6 1_555 1_555
C7 C6 1_555 1_555
H3 C7 1_555 1_555
C8 S1 1_555 1_555
C9 N1 1_555 1_555
H4 C9 1_555 1_555
C10 C9 1_555 1_555
H5 C10 1_555 1_555
C11 C10 1_555 1_555
C12 C11 1_555 1_555
H6 C12 1_555 1_555
C13 N1 1_555 1_555
H7 C13 1_555 1_555
H8 C8 1_555 1_555
N2A N2 1_555 1_555
C11A N2A 1_555 1_555
C10A C11A 1_555 1_555
C9A C10A 1_555 1_555
N1A C9A 1_555 1_555
C13A N1A 1_555 1_555
C12A C11A 1_555 1_555
H6A C12A 1_555 1_555
H7A C13A 1_555 1_555
H4A C9A 1_555 1_555
H5A C10A 1_555 1_555
O1A Cu1 1_555 1_555
O2A Cu1 1_555 1_555
S1A C5A 1_555 1_555
F1A C1A 1_555 1_555
F2A C1A 1_555 1_555
F3A C1A 1_555 1_555
C1A C2A 1_555 1_555
C2A O2A 1_555 1_555
C3A C2A 1_555 1_555
H1A C3A 1_555 1_555
C4A O1A 1_555 1_555
C5A C4A 1_555 1_555
C6A C5A 1_555 1_555
H2A C6A 1_555 1_555
C7A C6A 1_555 1_555
H3A C7A 1_555 1_555
C8A S1A 1_555 1_555
H8A C8A 1_555 1_555
N1A_2 Cu1 1_555 1_555
Cu1_2 N1A 1_555 1_555
C7 C8 1_555 1_555
C12 C13 1_555 1_555
C13A C12A 1_555 1_555
C3A C4A 1_555 1_555
C7A C8A 1_555 1_555

#END
