
#######################################################################
#
#                 Cambridge Crystallographic Data Centre
#                                CCDC 
#
#######################################################################
#
# If this CIF has been generated from an entry in the Cambridge 
# Structural Database, then it will include bibliographic, chemical, 
# crystal, experimental, refinement or atomic coordinate data resulting 
# from the CCDC's data processing and validation procedures.
#
#######################################################################

data_ETUGAC
_symmetry_cell_setting           triclinic
_symmetry_space_group_name_H-M   'P -1'
_symmetry_Int_Tables_number      2
_space_group_name_Hall           '-P 1'
loop_
_symmetry_equiv_pos_site_id
_symmetry_equiv_pos_as_xyz
1 x,y,z
2 -x,-y,-z
_cell_length_a                   10.2454(10)
_cell_length_b                   10.5799(10)
_cell_length_c                   12.6580(10)
_cell_angle_alpha                68.910(8)
_cell_angle_beta                 74.848(8)
_cell_angle_gamma                81.834(8)
_cell_volume                     1233.9
loop_
_atom_site_label
_atom_site_type_symbol
_atom_site_fract_x
_atom_site_fract_y
_atom_site_fract_z
Zn1 Zn -0.87467(4) 0.26423(4) 0.27950(4)
Zn2 Zn -0.5000 -0.5000 0.5000
O1 O -0.7245(2) 0.1223(3) 0.3318(2)
O2 O -0.6366(3) 0.3178(3) 0.2870(3)
O3 O -0.1575(3) 0.3214(2) 0.3035(2)
O4 O -0.0238(2) 0.1367(2) 0.3164(2)
O5 O -0.2397(3) -0.3095(2) 0.4380(3)
O6 O -0.4545(3) -0.3002(3) 0.4271(3)
O7 O -0.9397(3) 0.3070(3) 0.4344(2)
H1 H -0.8750 0.3022 0.4656
H2 H -1.0007 0.2560 0.4821
O8 O -0.5217(3) -0.4920(3) 0.3334(3)
H3 H -0.5613 -0.5581 0.3356
H4 H -0.5496 -0.4322 0.2770
O9 O -0.2926(3) -0.5649(3) 0.4677(3)
H5 H -0.2845 -0.6398 0.4555
H6 H -0.2492 -0.5056 0.4082
N1 N -0.8017(3) 0.2550(3) 0.1050(3)
N2 N -0.8878(3) 0.4690(3) 0.1716(3)
C1 C -0.6268(4) 0.1913(4) 0.3168(3)
C2 C -0.1389(4) 0.1978(4) 0.3186(3)
C3 C -0.3491(4) -0.2463(4) 0.4204(3)
C4 C -0.4938(3) 0.1165(4) 0.3354(3)
C5 C -0.3817(3) 0.1867(4) 0.3203(3)
H15 H -0.3890 0.2808 0.2988
C6 C -0.2585(3) 0.1176(3) 0.3371(3)
C7 C -0.2484(3) -0.0216(3) 0.3692(3)
H16 H -0.1662 -0.0679 0.3806
C8 C -0.3593(4) -0.0943(3) 0.3851(3)
C9 C -0.4811(4) -0.0233(4) 0.3676(3)
H17 H -0.5557 -0.0708 0.3777
C10 C -0.7553(4) 0.1427(4) 0.0791(4)
H18 H -0.7537 0.0610 0.1400
C11 C -0.7090(4) 0.1418(5) -0.0342(4)
C12 C -0.6565(6) 0.0116(5) -0.0579(5)
H19 H -0.6588 -0.0615 0.0144
H20 H -0.5651 0.0210 -0.1032
H21 H -0.7124 -0.0075 -0.1000
C13 C -0.7137(5) 0.2651(5) -0.1217(4)
H22 H -0.6843 0.2694 -0.1988
C14 C -0.7611(5) 0.3818(5) -0.0967(4)
H23 H -0.7636 0.4645 -0.1564
C15 C -0.8051(4) 0.3746(4) 0.0188(3)
C16 C -0.8542(4) 0.4930(4) 0.0569(4)
C17 C -0.8642(4) 0.6233(4) -0.0215(4)
H24 H -0.8423 0.6387 -0.1010
C18 C -0.9070(5) 0.7297(4) 0.0198(4)
H25 H -0.9129 0.8175 -0.0322
C19 C -0.9410(4) 0.7070(4) 0.1378(4)
C20 C -0.9871(5) 0.8197(5) 0.1863(5)
H26 H -0.9237 0.8258 0.2281
H27 H -1.0747 0.8018 0.2381
H28 H -0.9927 0.9038 0.1240
C21 C -0.9303(4) 0.5739(4) 0.2107(4)
H29 H -0.9535 0.5561 0.2906
Zn1A Zn -0.12533(4) -1.26423(4) 0.72050(4)
Zn1_2 Zn 0.12533(4) 0.26423(4) 0.27950(4)
Zn1A_2 Zn -1.12533(4) -1.26423(4) 0.72050(4)
O1A O -0.2755(2) -1.1223(3) 0.6682(2)
O2A O -0.3634(3) -1.3178(3) 0.7130(3)
O3A O -0.8425(3) -1.3214(2) 0.6965(2)
O4A O -0.9762(2) -1.1367(2) 0.6836(2)
O4_2 O -1.0238(2) 0.1367(2) 0.3164(2)
O4A_2 O 0.0238(2) -1.1367(2) 0.6836(2)
O5A O -0.7603(3) -0.6905(2) 0.5620(3)
O6A O -0.5455(3) -0.6998(3) 0.5729(3)
O7A O -0.0603(3) -1.3070(3) 0.5656(2)
H1A H -0.1250 -1.3022 0.5344
H2A H 0.0007 -1.2560 0.5179
O8A O -0.4783(3) -0.5080(3) 0.6666(3)
H3A H -0.4387 -0.4419 0.6644
H4A H -0.4504 -0.5678 0.7230
O9A O -0.7074(3) -0.4351(3) 0.5323(3)
H5A H -0.7155 -0.3602 0.5445
H6A H -0.7508 -0.4944 0.5918
N1A N -0.1983(3) -1.2550(3) 0.8950(3)
N2A N -0.1122(3) -1.4690(3) 0.8284(3)
C1A C -0.3732(4) -1.1913(4) 0.6832(3)
C2A C -0.8611(4) -1.1978(4) 0.6814(3)
C3A C -0.6509(4) -0.7537(4) 0.5796(3)
C4A C -0.5062(3) -1.1165(4) 0.6646(3)
C5A C -0.6183(3) -1.1867(4) 0.6797(3)
H15A H -0.6110 -1.2808 0.7012
C6A C -0.7415(3) -1.1176(3) 0.6629(3)
C7A C -0.7516(3) -0.9784(3) 0.6308(3)
H16A H -0.8338 -0.9321 0.6194
C8A C -0.6407(4) -0.9057(3) 0.6149(3)
C9A C -0.5189(4) -0.9767(4) 0.6324(3)
H17A H -0.4443 -0.9292 0.6223
C10A C -0.2447(4) -1.1427(4) 0.9209(4)
H18A H -0.2463 -1.0610 0.8600
C11A C -0.2910(4) -1.1418(5) 1.0342(4)
C12A C -0.3435(6) -1.0116(5) 1.0579(5)
H19A H -0.3412 -0.9385 0.9856
H20A H -0.4349 -1.0210 1.1032
H21A H -0.2876 -0.9925 1.1000
C13A C -0.2863(5) -1.2651(5) 1.1217(4)
H22A H -0.3157 -1.2694 1.1988
C14A C -0.2389(5) -1.3818(5) 1.0967(4)
H23A H -0.2364 -1.4645 1.1564
C15A C -0.1949(4) -1.3746(4) 0.9812(3)
C16A C -0.1458(4) -1.4930(4) 0.9431(4)
C17A C -0.1358(4) -1.6233(4) 1.0215(4)
H24A H -0.1577 -1.6387 1.1010
C18A C -0.0930(5) -1.7297(4) 0.9802(4)
H25A H -0.0871 -1.8175 1.0322
C19A C -0.0590(4) -1.7070(4) 0.8622(4)
C20A C -0.0129(5) -1.8197(5) 0.8137(5)
H26A H -0.0763 -1.8258 0.7719
H27A H 0.0747 -1.8018 0.7619
H28A H -0.0073 -1.9038 0.8760
C21A C -0.0697(4) -1.5739(4) 0.7893(4)
H29A H -0.0465 -1.5561 0.7094
O10 O 0.4365(14) 0.6435(16) 0.0453(12)
H7 H 0.4059 0.6795 0.1072
H10 H 0.4258 0.6206 -0.0140
O12 O 0.3621(5) 0.7702(6) 0.2466(6)
H11 H 0.2969 0.7985 0.2914
H12 H 0.4226 0.7649 0.2885
O13 O 0.1335(5) 0.8711(5) 0.4028(4)
H13 H 0.1775 0.9325 0.4047
H14 H 0.0961 0.9389 0.3584
H8? H 0.4578 0.5864 0.0534
O11? O 0.4797(10) 0.5541(10) 0.0114(9)
H9? H 0.4529 0.4924 0.0792
loop_
_geom_bond_atom_site_label_1
_geom_bond_atom_site_label_2
_geom_bond_site_symmetry_1
_geom_bond_site_symmetry_2
Zn1 O1 1_555 1_555
Zn2 O6 1_555 1_555
O1 C1 1_555 1_555
O2 C1 1_555 1_555
O3 C2 1_555 1_555
O4 C2 1_555 1_555
O5 C3 1_555 1_555
O6 C3 1_555 1_555
O7 Zn1 1_555 1_555
H1 O7 1_555 1_555
H2 O7 1_555 1_555
O8 Zn2 1_555 1_555
H3 O8 1_555 1_555
H4 O8 1_555 1_555
O9 Zn2 1_555 1_555
H5 O9 1_555 1_555
H6 O9 1_555 1_555
O10 H7 1_555 1_555
H10 O10 1_555 1_555
O12 H11 1_555 1_555
H12 O12 1_555 1_555
O13 H13 1_555 1_555
H14 O13 1_555 1_555
N1 Zn1 1_555 1_555
N2 Zn1 1_555 1_555
C1 C4 1_555 1_555
C2 C6 1_555 1_555
C3 C8 1_555 1_555
C4 C5 1_555 1_555
C5 H15 1_555 1_555
C6 C5 1_555 1_555
C7 C6 1_555 1_555
H16 C7 1_555 1_555
C8 C7 1_555 1_555
C9 C4 1_555 1_555
H17 C9 1_555 1_555
C10 N1 1_555 1_555
H18 C10 1_555 1_555
C11 C10 1_555 1_555
C12 C11 1_555 1_555
H19 C12 1_555 1_555
H20 C12 1_555 1_555
H21 C12 1_555 1_555
C13 C11 1_555 1_555
H22 C13 1_555 1_555
C14 C13 1_555 1_555
H23 C14 1_555 1_555
C15 N1 1_555 1_555
C16 N2 1_555 1_555
C17 C16 1_555 1_555
H24 C17 1_555 1_555
C18 C17 1_555 1_555
H25 C18 1_555 1_555
C19 C18 1_555 1_555
C20 C19 1_555 1_555
H26 C20 1_555 1_555
H27 C20 1_555 1_555
H28 C20 1_555 1_555
C21 N2 1_555 1_555
H29 C21 1_555 1_555
Zn1A O1A 1_555 1_555
Zn1_2 O4 1_555 1_555
Zn1A_2 O4A 1_555 1_555
O1A C1A 1_555 1_555
O2A C1A 1_555 1_555
O3A C2A 1_555 1_555
O4A C2A 1_555 1_555
O4_2 Zn1 1_555 1_555
O4A_2 Zn1A 1_555 1_555
O5A C3A 1_555 1_555
O6A Zn2 1_555 1_555
O7A Zn1A 1_555 1_555
H1A O7A 1_555 1_555
H2A O7A 1_555 1_555
O8A Zn2 1_555 1_555
H3A O8A 1_555 1_555
H4A O8A 1_555 1_555
O9A Zn2 1_555 1_555
H5A O9A 1_555 1_555
H6A O9A 1_555 1_555
N1A Zn1A 1_555 1_555
N2A Zn1A 1_555 1_555
C1A C4A 1_555 1_555
C2A C6A 1_555 1_555
C3A O6A 1_555 1_555
C4A C5A 1_555 1_555
C5A H15A 1_555 1_555
C6A C5A 1_555 1_555
C7A C6A 1_555 1_555
H16A C7A 1_555 1_555
C8A C3A 1_555 1_555
C9A C4A 1_555 1_555
H17A C9A 1_555 1_555
C10A N1A 1_555 1_555
H18A C10A 1_555 1_555
C11A C10A 1_555 1_555
C12A C11A 1_555 1_555
H19A C12A 1_555 1_555
H20A C12A 1_555 1_555
H21A C12A 1_555 1_555
C13A C11A 1_555 1_555
H22A C13A 1_555 1_555
C14A C13A 1_555 1_555
H23A C14A 1_555 1_555
C15A N1A 1_555 1_555
C16A N2A 1_555 1_555
C17A C16A 1_555 1_555
H24A C17A 1_555 1_555
C18A C17A 1_555 1_555
H25A C18A 1_555 1_555
C19A C18A 1_555 1_555
C20A C19A 1_555 1_555
H26A C20A 1_555 1_555
H27A C20A 1_555 1_555
H28A C20A 1_555 1_555
C21A N2A 1_555 1_555
H29A C21A 1_555 1_555
C8 C9 1_555 1_555
C14 C15 1_555 1_555
C15 C16 1_555 1_555
C19 C21 1_555 1_555
C7A C8A 1_555 1_555
C8A C9A 1_555 1_555
C14A C15A 1_555 1_555
C15A C16A 1_555 1_555
C19A C21A 1_555 1_555

#END
