
#######################################################################
#
#                 Cambridge Crystallographic Data Centre
#                                CCDC 
#
#######################################################################
#
# If this CIF has been generated from an entry in the Cambridge 
# Structural Database, then it will include bibliographic, chemical, 
# crystal, experimental, refinement or atomic coordinate data resulting 
# from the CCDC's data processing and validation procedures.
#
#######################################################################

data_ETUGUW
_symmetry_cell_setting           orthorhombic
_symmetry_space_group_name_H-M   'F d d 2'
_symmetry_Int_Tables_number      43
_space_group_name_Hall           'F 2 -2d'
loop_
_symmetry_equiv_pos_site_id
_symmetry_equiv_pos_as_xyz
1 x,y,z
2 -x,-y,z
3 1/4-x,1/4+y,1/4+z
4 3/4+x,3/4-y,1/4+z
5 x,1/2+y,1/2+z
6 -x,1/2-y,1/2+z
7 1/4-x,3/4+y,3/4+z
8 3/4+x,1/4-y,3/4+z
9 1/2+x,y,1/2+z
10 1/2-x,-y,1/2+z
11 3/4-x,1/4+y,3/4+z
12 1/4+x,3/4-y,3/4+z
13 1/2+x,1/2+y,z
14 1/2-x,1/2-y,z
15 3/4-x,3/4+y,1/4+z
16 1/4+x,1/4-y,1/4+z
_cell_length_a                   12.343(2)
_cell_length_b                   52.066(6)
_cell_length_c                   6.9420(10)
_cell_angle_alpha                90
_cell_angle_beta                 90
_cell_angle_gamma                90
_cell_volume                     4461.28
loop_
_atom_site_label
_atom_site_type_symbol
_atom_site_fract_x
_atom_site_fract_y
_atom_site_fract_z
C1 C 0.1277(3) 0.07221(6) 0.8359(5)
C2 C 0.2039(3) 0.08804(7) 0.7551(6)
C3 C 0.2302(4) 0.11022(8) 0.8473(8)
H1 H 0.2811 0.1213 0.7935
C4 C 0.1824(4) 0.11628(8) 1.0178(9)
H2 H 0.2017 0.1315 1.0788
C5 C 0.1081(4) 0.10099(9) 1.1015(8)
H3 H 0.0766 0.1055 1.2184
C6 C 0.0802(3) 0.07872(7) 1.0103(7)
H4 H 0.0291 0.0678 1.0655
Br1 Br -0.06844(3) 0.067404(8) 0.49856(7)
Cl1 Cl 0.26996(9) 0.08136(2) 0.54056(16)
K1 K -0.15361(6) 0.007510(14) 1.02051(13)
N1 N 0.0549(2) 0.04684(5) 0.5150(5)
O1 O 0.0081(2) 0.03366(5) 0.8608(4)
O2 O 0.1870(2) 0.02816(5) 0.7239(5)
O3 O -0.2232(2) -0.03195(5) 1.2376(5)
H5 H -0.185(3) -0.0386(9) 1.317(6)
H6 H -0.253(4) -0.0416(8) 1.166(6)
O4 O 0.0000 0.0000 1.3095(6)
H7 H 0.005(4) 0.0112(7) 1.392(6)
S1 S 0.09016(6) 0.043209(13) 0.73226(12)
C1A C -0.1277(3) -0.07221(6) 0.8359(5)
C2A C -0.2039(3) -0.08804(7) 0.7551(6)
C3A C -0.2302(4) -0.11022(8) 0.8473(8)
H1A H -0.2811 -0.1213 0.7935
C4A C -0.1824(4) -0.11628(8) 1.0178(9)
H2A H -0.2017 -0.1315 1.0788
C5A C -0.1081(4) -0.10099(9) 1.1015(8)
H3A H -0.0766 -0.1055 1.2184
C6A C -0.0802(3) -0.07872(7) 1.0103(7)
H4A H -0.0291 -0.0678 1.0655
Br1A Br 0.06844(3) -0.067404(8) 0.49856(7)
Cl1A Cl -0.26996(9) -0.08136(2) 0.54056(16)
K1A K 0.15361(6) -0.007510(14) 1.02051(13)
K1H K 0.34639(6) 0.007510(14) 0.52051(13)
K1I K -0.34639(6) -0.007510(14) 1.52051(13)
K1I_2 K -0.34639(6) -0.007510(14) 0.52051(13)
N1A N -0.0549(2) -0.04684(5) 0.5150(5)
O1A O -0.0081(2) -0.03366(5) 0.8608(4)
O2A O -0.1870(2) -0.02816(5) 0.7239(5)
O2H O -0.3130(2) 0.02816(5) 1.2239(5)
O2I O 0.3130(2) -0.02816(5) 1.2239(5)
O3I O -0.2768(2) 0.03195(5) 0.7376(5)
O3A O 0.2232(2) 0.03195(5) 1.2376(5)
O3H O 0.2768(2) -0.03195(5) 0.7376(5)
H5I H -0.315(3) 0.0386(9) 0.817(6)
H5A H 0.185(3) 0.0386(9) 1.317(6)
H5H H 0.315(3) -0.0386(9) 0.817(6)
H6I H -0.247(4) 0.0416(8) 0.666(6)
H6A H 0.253(4) 0.0416(8) 1.166(6)
H6H H 0.247(4) -0.0416(8) 0.666(6)
H7A H -0.005(4) -0.0112(7) 1.392(6)
S1A S -0.09016(6) -0.043209(13) 0.73226(12)
loop_
_geom_bond_atom_site_label_1
_geom_bond_atom_site_label_2
_geom_bond_site_symmetry_1
_geom_bond_site_symmetry_2
C1 C2 1_555 1_555
C2 C3 1_555 1_555
C3 H1 1_555 1_555
C4 C3 1_555 1_555
H2 C4 1_555 1_555
C5 C4 1_555 1_555
H3 C5 1_555 1_555
C6 C1 1_555 1_555
H4 C6 1_555 1_555
Br1 N1 1_555 1_555
Cl1 C2 1_555 1_555
K1 O1 1_555 1_555
N1 S1 1_555 1_555
O1 S1 1_555 1_555
O2 S1 1_555 1_555
O3 K1 1_555 1_555
H5 O3 1_555 1_555
H6 O3 1_555 1_555
O4 K1 1_555 1_555
H7 O4 1_555 1_555
S1 C1 1_555 1_555
C1A C2A 1_555 1_555
C2A C3A 1_555 1_555
C3A H1A 1_555 1_555
C4A C3A 1_555 1_555
H2A C4A 1_555 1_555
C5A C4A 1_555 1_555
H3A C5A 1_555 1_555
C6A C1A 1_555 1_555
H4A C6A 1_555 1_555
Br1A N1A 1_555 1_555
Cl1A C2A 1_555 1_555
K1A O1 1_555 1_555
K1H O2 1_555 1_555
K1I O3 1_555 1_555
K1I_2 O2A 1_555 1_555
N1A S1A 1_555 1_555
O1A K1 1_555 1_555
O2A K1 1_555 1_555
O2H K1 1_555 1_555
O2I K1A 1_555 1_555
O3I K1 1_555 1_555
O3A K1A 1_555 1_555
O3H K1A 1_555 1_555
H5I O3I 1_555 1_555
H5A O3A 1_555 1_555
H5H O3H 1_555 1_555
H6I O3I 1_555 1_555
H6A O3A 1_555 1_555
H6H O3H 1_555 1_555
H7A O4 1_555 1_555
S1A C1A 1_555 1_555
C5 C6 1_555 1_555
O2 K1A 1_555 1_555
O4 K1A 1_555 1_555
C5A C6A 1_555 1_555
K1A O1A 1_555 1_555
K1H O3H 1_555 1_555
K1I O2H 1_555 1_555
K1I_2 O3I 1_555 1_555
O1A S1A 1_555 1_555
O2A S1A 1_555 1_555

#END
