
#######################################################################
#
#                 Cambridge Crystallographic Data Centre
#                                CCDC 
#
#######################################################################
#
# If this CIF has been generated from an entry in the Cambridge 
# Structural Database, then it will include bibliographic, chemical, 
# crystal, experimental, refinement or atomic coordinate data resulting 
# from the CCDC's data processing and validation procedures.
#
#######################################################################

data_ETUHAC
_symmetry_cell_setting           monoclinic
_symmetry_space_group_name_H-M   'P 21/c'
_symmetry_Int_Tables_number      14
_space_group_name_Hall           '-P 2ybc'
loop_
_symmetry_equiv_pos_site_id
_symmetry_equiv_pos_as_xyz
1 x,y,z
2 x,1/2-y,1/2+z
3 -x,-y,-z
4 -x,1/2+y,1/2-z
_cell_length_a                   10.661(2)
_cell_length_b                   14.296(3)
_cell_length_c                   10.041(2)
_cell_angle_alpha                90
_cell_angle_beta                 114.50(3)
_cell_angle_gamma                90
_cell_volume                     1392.56
loop_
_atom_site_label
_atom_site_type_symbol
_atom_site_fract_x
_atom_site_fract_y
_atom_site_fract_z
Cu1 Cu 0.0000 0.0000 0.5000
O1 O 0.1000(2) 0.13497(15) 0.5746(2)
O2 O -0.1477(2) 0.07440(15) 0.3349(2)
N1 N -0.1114(2) 0.01622(15) 0.6189(2)
N2 N -0.4746(2) 0.00426(19) 0.5676(3)
S1 S -0.38880(9) 0.11140(7) 0.07667(10)
F1 F 0.2129(2) 0.32423(17) 0.4338(3)
F2 F 0.3320(2) 0.21849(19) 0.5763(3)
F3 F 0.2162(4) 0.3100(2) 0.6458(4)
C1 C 0.2122(4) 0.2627(3) 0.5317(4)
C2 C 0.0925(3) 0.1935(2) 0.4777(3)
C3 C -0.0060(3) 0.2031(2) 0.3359(3)
H1 H 0.004(4) 0.247(3) 0.286(4)
C4 C -0.1258(3) 0.1469(2) 0.2756(3)
C5 C -0.2377(3) 0.1738(2) 0.1346(3)
C6 C -0.2478(4) 0.2467(3) 0.0375(4)
H2 H -0.204(3) 0.275(2) 0.047(3)
C7 C -0.3794(4) 0.2487(3) -0.0806(4)
H3 H -0.401(4) 0.292(3) -0.147(5)
C8 C -0.4638(4) 0.1812(3) -0.0720(4)
H4 H -0.550(4) 0.167(3) -0.131(4)
C9 C -0.0520(3) 0.0424(2) 0.7601(3)
H5 H 0.044(3) 0.050(2) 0.801(3)
C10 C -0.1265(3) 0.0571(2) 0.8416(4)
H6 H -0.086(3) 0.078(2) 0.934(4)
C11 C -0.2673(3) 0.0432(3) 0.7767(4)
H7 H -0.323(3) 0.048(2) 0.826(4)
C12 C -0.3285(3) 0.01756(19) 0.6317(3)
C13 C -0.2478(3) 0.0042(2) 0.5548(3)
H8 H -0.288(3) -0.013(2) 0.455(3)
N2B N -0.5254(2) -0.00426(19) 0.4324(3)
C12B C -0.6715(3) -0.01756(19) 0.3683(3)
C11B C -0.7327(3) -0.0432(3) 0.2233(4)
C10B C -0.8735(3) -0.0571(2) 0.1584(4)
C9B C -0.9480(3) -0.0424(2) 0.2399(3)
N1B N -0.8886(2) -0.01622(15) 0.3811(2)
C13B C -0.7522(3) -0.0042(2) 0.4452(3)
H8B H -0.712(3) 0.013(2) 0.545(3)
H5B H -1.044(3) -0.050(2) 0.199(3)
H6B H -0.914(3) -0.078(2) 0.066(4)
H7B H -0.677(3) -0.048(2) 0.174(4)
O1B O -0.1000(2) -0.13497(15) 0.4254(2)
O2B O 0.1477(2) -0.07440(15) 0.6651(2)
S1B S 0.38880(9) -0.11140(7) 0.92333(10)
F1B F -0.2129(2) -0.32423(17) 0.5662(3)
F2B F -0.3320(2) -0.21849(19) 0.4237(3)
F3B F -0.2162(4) -0.3100(2) 0.3542(4)
C1B C -0.2122(4) -0.2627(3) 0.4683(4)
C2B C -0.0925(3) -0.1935(2) 0.5223(3)
C3B C 0.0060(3) -0.2031(2) 0.6641(3)
H1B H -0.004(4) -0.247(3) 0.714(4)
C4B C 0.1258(3) -0.1469(2) 0.7244(3)
C5B C 0.2377(3) -0.1738(2) 0.8654(3)
C6B C 0.2478(4) -0.2467(3) 0.9625(4)
H2B H 0.204(3) -0.275(2) 0.953(3)
C7B C 0.3794(4) -0.2487(3) 1.0806(4)
H3B H 0.401(4) -0.292(3) 1.147(5)
C8B C 0.4638(4) -0.1812(3) 1.0720(4)
H4B H 0.550(4) -0.167(3) 1.131(4)
N1B_2 N 0.1114(2) -0.01622(15) 0.3811(2)
Cu1_2 Cu -1.0000 0.0000 0.5000
loop_
_geom_bond_atom_site_label_1
_geom_bond_atom_site_label_2
_geom_bond_site_symmetry_1
_geom_bond_site_symmetry_2
Cu1 O1 1_555 1_555
O1 C2 1_555 1_555
O2 Cu1 1_555 1_555
N1 Cu1 1_555 1_555
N2 C12 1_555 1_555
S1 C5 1_555 1_555
F1 C1 1_555 1_555
F2 C1 1_555 1_555
F3 C1 1_555 1_555
C1 C2 1_555 1_555
C2 C3 1_555 1_555
C3 H1 1_555 1_555
C4 O2 1_555 1_555
C5 C4 1_555 1_555
C6 C5 1_555 1_555
H2 C6 1_555 1_555
C7 C6 1_555 1_555
H3 C7 1_555 1_555
C8 S1 1_555 1_555
H4 C8 1_555 1_555
C9 N1 1_555 1_555
H5 C9 1_555 1_555
C10 C9 1_555 1_555
H6 C10 1_555 1_555
C11 C10 1_555 1_555
H7 C11 1_555 1_555
C12 C11 1_555 1_555
C13 N1 1_555 1_555
H8 C13 1_555 1_555
N2B N2 1_555 1_555
C12B N2B 1_555 1_555
C11B C12B 1_555 1_555
C10B C11B 1_555 1_555
C9B C10B 1_555 1_555
N1B C9B 1_555 1_555
C13B C12B 1_555 1_555
H8B C13B 1_555 1_555
H5B C9B 1_555 1_555
H6B C10B 1_555 1_555
H7B C11B 1_555 1_555
O1B Cu1 1_555 1_555
O2B Cu1 1_555 1_555
S1B C5B 1_555 1_555
F1B C1B 1_555 1_555
F2B C1B 1_555 1_555
F3B C1B 1_555 1_555
C1B C2B 1_555 1_555
C2B O1B 1_555 1_555
C3B C2B 1_555 1_555
H1B C3B 1_555 1_555
C4B O2B 1_555 1_555
C5B C4B 1_555 1_555
C6B C5B 1_555 1_555
H2B C6B 1_555 1_555
C7B C6B 1_555 1_555
H3B C7B 1_555 1_555
C8B S1B 1_555 1_555
H4B C8B 1_555 1_555
N1B_2 Cu1 1_555 1_555
Cu1_2 N1B 1_555 1_555
C3 C4 1_555 1_555
C7 C8 1_555 1_555
C12 C13 1_555 1_555
N1B C13B 1_555 1_555
C3B C4B 1_555 1_555
C7B C8B 1_555 1_555

#END
