
#######################################################################
#
#                 Cambridge Crystallographic Data Centre
#                                CCDC 
#
#######################################################################
#
# If this CIF has been generated from an entry in the Cambridge 
# Structural Database, then it will include bibliographic, chemical, 
# crystal, experimental, refinement or atomic coordinate data resulting 
# from the CCDC's data processing and validation procedures.
#
#######################################################################

data_ETUJUZ
_symmetry_cell_setting           monoclinic
_symmetry_space_group_name_H-M   'C 2/c'
_symmetry_Int_Tables_number      15
_space_group_name_Hall           '-C 2yn'
loop_
_symmetry_equiv_pos_site_id
_symmetry_equiv_pos_as_xyz
1 x,y,z
2 -x,y,1/2-z
3 1/2+x,1/2+y,z
4 1/2-x,1/2+y,1/2-z
5 -x,-y,-z
6 x,-y,1/2+z
7 1/2-x,1/2-y,-z
8 1/2+x,1/2-y,1/2+z
_cell_length_a                   21.428(10)
_cell_length_b                   9.458(4)
_cell_length_c                   12.897(6)
_cell_angle_alpha                90
_cell_angle_beta                 118.462(5)
_cell_angle_gamma                90
_cell_volume                     2297.86
loop_
_atom_site_label
_atom_site_type_symbol
_atom_site_fract_x
_atom_site_fract_y
_atom_site_fract_z
Zn1 Zn 1.0000 0.52903(2) 0.7500
O1 O 0.89786(8) 0.40767(17) 0.77262(12)
O2 O 0.91910(6) 0.43004(14) 0.62292(11)
O3 O 0.80413(7) 0.19659(16) 0.73891(11)
N1 N 0.97095(7) 0.69874(13) 0.82237(11)
C1 C 0.88075(8) 0.38949(16) 0.66788(14)
C2 C 0.81280(8) 0.31540(16) 0.58400(14)
C3 C 0.77669(8) 0.22152(18) 0.62095(14)
C4 C 0.78541(8) 0.34259(17) 0.46410(15)
H1 H 0.8092 0.4055 0.4398
C5 C 0.76293(11) 0.1225(3) 0.78059(18)
H2 H 0.7644 0.0218 0.7674
H3 H 0.7139 0.1533 0.7381
C6 C 0.79184(12) 0.1506(3) 0.90851(19)
H4 H 0.7738 0.0967 0.9484
C7 C 0.83955(14) 0.2426(3) 0.9693(2)
H5 H 0.8592 0.2989 0.9331
H6 H 0.8545 0.2528 1.0494
C8 C 0.94114(9) 0.6966(2) 0.89252(16)
H7 H 0.9341 0.6100 0.9195
C9 C 0.92019(11) 0.8196(2) 0.92674(18)
H8 H 0.8989 0.8143 0.9748
C10 C 0.93107(11) 0.9478(2) 0.88954(18)
H9 H 0.9163 1.0302 0.9108
C11 C 0.96472(10) 0.95499(17) 0.81881(15)
C12 C 0.98315(8) 0.82583(15) 0.78693(13)
C13 C 0.98266(11) 1.0847(2) 0.78170(17)
H10 H 0.9700 1.1703 0.8020
Zn1F Zn 0.5000 -0.02903(2) 0.2500
O1F O 0.60214(8) 0.09233(17) 0.22738(12)
O2F O 0.58090(6) 0.06996(14) 0.37708(11)
O2A O 1.08090(6) 0.43004(14) 0.87708(11)
O3F O 0.69587(7) 0.30341(16) 0.26109(11)
N1A N 1.02905(7) 0.69874(13) 0.67763(11)
C1F C 0.61925(8) 0.11051(16) 0.33212(14)
C2F C 0.68720(8) 0.18460(16) 0.41600(14)
C3F C 0.72331(8) 0.27848(18) 0.37905(14)
C4F C 0.71459(8) 0.15741(17) 0.53590(15)
H1F H 0.6908 0.0945 0.5602
C5F C 0.73707(11) 0.3775(3) 0.21941(18)
H2F H 0.7356 0.4782 0.2326
H3F H 0.7861 0.3467 0.2619
C6F C 0.70816(12) 0.3494(3) 0.09149(19)
H4F H 0.7262 0.4033 0.0516
C7F C 0.66045(14) 0.2574(3) 0.0307(2)
H5F H 0.6408 0.2011 0.0669
H6F H 0.6455 0.2472 -0.0494
C8A C 1.05886(9) 0.6966(2) 0.60748(16)
H7A H 1.0659 0.6100 0.5805
C9A C 1.07981(11) 0.8196(2) 0.57326(18)
H8A H 1.1011 0.8143 0.5252
C10A C 1.06893(11) 0.9478(2) 0.61046(18)
H9A H 1.0837 1.0302 0.5892
C11A C 1.03528(10) 0.95499(17) 0.68119(15)
C12A C 1.01685(8) 0.82583(15) 0.71307(13)
C13A C 1.01734(11) 1.0847(2) 0.71830(17)
H10A H 1.0300 1.1703 0.6980
loop_
_geom_bond_atom_site_label_1
_geom_bond_atom_site_label_2
_geom_bond_site_symmetry_1
_geom_bond_site_symmetry_2
Zn1 O2 1_555 1_555
O1 C1 1_555 1_555
O2 C1 1_555 1_555
O3 C3 1_555 1_555
N1 Zn1 1_555 1_555
C1 C2 1_555 1_555
C2 C3 1_555 1_555
C3 C4F 1_555 1_555
C4 C2 1_555 1_555
H1 C4 1_555 1_555
C5 O3 1_555 1_555
H2 C5 1_555 1_555
H3 C5 1_555 1_555
C6 C5 1_555 1_555
H4 C6 1_555 1_555
C7 C6 1_555 1_555
H5 C7 1_555 1_555
H6 C7 1_555 1_555
C8 N1 1_555 1_555
H7 C8 1_555 1_555
C9 C8 1_555 1_555
H8 C9 1_555 1_555
C10 C9 1_555 1_555
H9 C10 1_555 1_555
C11 C10 1_555 1_555
C12 N1 1_555 1_555
C13 C11 1_555 1_555
H10 C13 1_555 1_555
Zn1F O2F 1_555 1_555
O1F C1F 1_555 1_555
O2F C1F 1_555 1_555
O2A Zn1 1_555 1_555
O3F C3F 1_555 1_555
N1A Zn1 1_555 1_555
C1F C2F 1_555 1_555
C2F C3F 1_555 1_555
C3F C4 1_555 1_555
C4F C2F 1_555 1_555
H1F C4F 1_555 1_555
C5F O3F 1_555 1_555
H2F C5F 1_555 1_555
H3F C5F 1_555 1_555
C6F C5F 1_555 1_555
H4F C6F 1_555 1_555
C7F C6F 1_555 1_555
H5F C7F 1_555 1_555
H6F C7F 1_555 1_555
C8A N1A 1_555 1_555
H7A C8A 1_555 1_555
C9A C8A 1_555 1_555
H8A C9A 1_555 1_555
C10A C9A 1_555 1_555
H9A C10A 1_555 1_555
C11A C10A 1_555 1_555
C12A C12 1_555 1_555
C13A C13 1_555 1_555
H10A C13A 1_555 1_555
C11 C12 1_555 1_555
N1A C12A 1_555 1_555
C11A C12A 1_555 1_555
C11A C13A 1_555 1_555

#END
