
#######################################################################
#
#                 Cambridge Crystallographic Data Centre
#                                CCDC 
#
#######################################################################
#
# If this CIF has been generated from an entry in the Cambridge 
# Structural Database, then it will include bibliographic, chemical, 
# crystal, experimental, refinement or atomic coordinate data resulting 
# from the CCDC's data processing and validation procedures.
#
#######################################################################

data_ETUKEK
_symmetry_cell_setting           monoclinic
_symmetry_space_group_name_H-M   'P 21/n'
_symmetry_Int_Tables_number      14
_space_group_name_Hall           '-P 2yn'
loop_
_symmetry_equiv_pos_site_id
_symmetry_equiv_pos_as_xyz
1 x,y,z
2 1/2-x,1/2+y,1/2-z
3 -x,-y,-z
4 1/2+x,1/2-y,1/2+z
_cell_length_a                   5.7073(3)
_cell_length_b                   11.9204(6)
_cell_length_c                   14.5117(7)
_cell_angle_alpha                90
_cell_angle_beta                 90.493(2)
_cell_angle_gamma                90
_cell_volume                     987.242
loop_
_atom_site_label
_atom_site_type_symbol
_atom_site_fract_x
_atom_site_fract_y
_atom_site_fract_z
Ag1 Ag -0.29331(4) -0.02958(3) -0.051068(17)
O1 O -0.1299(4) -0.0013(2) 0.08689(15)
O2 O -0.4558(4) 0.0300(2) 0.16610(16)
O3 O -0.1538(7) 0.2338(3) 0.4925(2)
O4 O 0.1858(6) 0.2829(3) 0.4489(2)
O5 O 0.5695(4) -0.0999(3) 0.40124(18)
O6 O 0.3756(5) -0.2134(2) 0.31332(19)
N1 N 0.0174(6) 0.2210(2) 0.4468(2)
N2 N 0.4018(4) -0.1237(3) 0.35194(18)
C1 C -0.2392(5) 0.0204(2) 0.1589(2)
C2 C -0.0938(5) 0.0338(2) 0.24522(19)
C3 C -0.1291(5) 0.1216(2) 0.3078(2)
C4 C 0.0286(5) 0.1253(3) 0.3821(2)
C5 C 0.2037(5) 0.0491(3) 0.3986(2)
H1 H 0.3050 0.0562 0.4488
C6 C 0.2220(5) -0.0381(3) 0.3373(2)
C7 C 0.0803(5) -0.0451(2) 0.26043(19)
H2 H 0.1016 -0.1031 0.2184
C8 C -0.3140(6) 0.2095(3) 0.2935(3)
H3 H -0.3469 0.2171 0.2288
H4 H -0.2592 0.2799 0.3175
H5 H -0.4541 0.1877 0.3249
Ag1B Ag -0.70669(4) 0.02958(3) 0.051068(17)
Ag1B_2 Ag 0.29331(4) 0.02958(3) 0.051068(17)
O1B O 0.1299(4) 0.0013(2) -0.08689(15)
O2B O -0.5442(4) -0.0300(2) -0.16610(16)
loop_
_geom_bond_atom_site_label_1
_geom_bond_atom_site_label_2
_geom_bond_site_symmetry_1
_geom_bond_site_symmetry_2
Ag1 O1 1_555 1_555
O1 C1 1_555 1_555
O2 C1 1_555 1_555
O3 N1 1_555 1_555
O4 N1 1_555 1_555
O5 N2 1_555 1_555
O6 N2 1_555 1_555
N1 C4 1_555 1_555
N2 C6 1_555 1_555
C1 C2 1_555 1_555
C2 C3 1_555 1_555
C3 C4 1_555 1_555
C4 C5 1_555 1_555
C5 H1 1_555 1_555
C6 C5 1_555 1_555
C7 C2 1_555 1_555
H2 C7 1_555 1_555
C8 C3 1_555 1_555
H3 C8 1_555 1_555
H4 C8 1_555 1_555
H5 C8 1_555 1_555
Ag1B O2 1_555 1_555
Ag1B_2 O1 1_555 1_555
O1B Ag1 1_555 1_555
O2B Ag1 1_555 1_555
C6 C7 1_555 1_555
Ag1B_2 O1B 1_555 1_555

#END
