
#######################################################################
#
#                 Cambridge Crystallographic Data Centre
#                                CCDC 
#
#######################################################################
#
# If this CIF has been generated from an entry in the Cambridge 
# Structural Database, then it will include bibliographic, chemical, 
# crystal, experimental, refinement or atomic coordinate data resulting 
# from the CCDC's data processing and validation procedures.
#
#######################################################################

data_ETULUB
_symmetry_cell_setting           orthorhombic
_symmetry_space_group_name_H-M   'C m c a'
_symmetry_Int_Tables_number      64
_space_group_name_Hall           '-C 2ac 2'
loop_
_symmetry_equiv_pos_site_id
_symmetry_equiv_pos_as_xyz
1 x,y,z
2 -x,1/2-y,1/2+z
3 -x,1/2+y,1/2-z
4 x,-y,-z
5 1/2+x,1/2+y,z
6 1/2-x,-y,1/2+z
7 1/2-x,y,1/2-z
8 1/2+x,1/2-y,-z
9 -x,-y,-z
10 x,1/2+y,1/2-z
11 x,1/2-y,1/2+z
12 -x,y,z
13 1/2-x,1/2-y,-z
14 1/2+x,y,1/2-z
15 1/2+x,-y,1/2+z
16 1/2-x,1/2+y,z
_cell_length_a                   9.4025(9)
_cell_length_b                   16.7146(10)
_cell_length_c                   8.7886(5)
_cell_angle_alpha                90
_cell_angle_beta                 90
_cell_angle_gamma                90
_cell_volume                     1381.21
loop_
_atom_site_label
_atom_site_type_symbol
_atom_site_fract_x
_atom_site_fract_y
_atom_site_fract_z
Zn1 Zn 0.0000 0.5000 0.5000
N1 N 0.0000 0.40527(19) 0.6452(4)
C1 C 0.0000 0.3787(2) 0.7666(4)
Se1 Se 0.0000 0.34051(3) 0.95337(5)
N2 N 0.1681(2) 0.56159(13) 0.6471(2)
C2 C 0.2500 0.5254(2) 0.7500
H1 H 0.2500 0.4685 0.7500
C3 C 0.1740(3) 0.64196(17) 0.6445(3)
H2 H 0.1240 0.6699 0.5671
C4 C 0.2500 0.6849(2) 0.7500
H3 H 0.2500 0.7417 0.7500
Zn1E Zn -0.5000 0.5000 1.0000
Zn1E_2 Zn 0.5000 0.5000 1.0000
N1C N 0.0000 0.59473(19) 0.3548(4)
C1C C 0.0000 0.6213(2) 0.2334(4)
Se1C Se 0.0000 0.65949(3) 0.04663(5)
N2F N 0.3319(2) 0.56159(13) 0.8529(2)
N2K N -0.1681(2) 0.56159(13) 0.6471(2)
N2M N -0.3319(2) 0.56159(13) 0.8529(2)
N2C N 0.1681(2) 0.43841(13) 0.3529(2)
N2H N -0.1681(2) 0.43841(13) 0.3529(2)
C2K C -0.2500 0.5254(2) 0.7500
H1K H -0.2500 0.4685 0.7500
C3F C 0.3260(3) 0.64196(17) 0.8555(3)
C3K C -0.1740(3) 0.64196(17) 0.6445(3)
C3M C -0.3260(3) 0.64196(17) 0.8555(3)
H2F H 0.3760 0.6699 0.9329
H2K H -0.1240 0.6699 0.5671
H2M H -0.3760 0.6699 0.9329
C4K C -0.2500 0.6849(2) 0.7500
H3K H -0.2500 0.7417 0.7500
loop_
_geom_bond_atom_site_label_1
_geom_bond_atom_site_label_2
_geom_bond_site_symmetry_1
_geom_bond_site_symmetry_2
Zn1 N1 1_555 1_555
N1 C1 1_555 1_555
C1 Se1 1_555 1_555
N2 Zn1 1_555 1_555
C2 N2 1_555 1_555
H1 C2 1_555 1_555
C3 N2 1_555 1_555
H2 C3 1_555 1_555
C4 C3 1_555 1_555
H3 C4 1_555 1_555
Zn1E N2M 1_555 1_555
Zn1E_2 N2F 1_555 1_555
N1C Zn1 1_555 1_555
C1C N1C 1_555 1_555
Se1C C1C 1_555 1_555
N2F C2 1_555 1_555
N2K Zn1 1_555 1_555
N2M C2K 1_555 1_555
N2C Zn1 1_555 1_555
N2H Zn1 1_555 1_555
C2K N2K 1_555 1_555
H1K C2K 1_555 1_555
C3F C4 1_555 1_555
C3K N2K 1_555 1_555
C3M N2M 1_555 1_555
H2F C3F 1_555 1_555
H2K C3K 1_555 1_555
H2M C3M 1_555 1_555
C4K C3K 1_555 1_555
H3K C4K 1_555 1_555
N2F C3F 1_555 1_555
C3M C4K 1_555 1_555

#END
