
#######################################################################
#
#                 Cambridge Crystallographic Data Centre
#                                CCDC 
#
#######################################################################
#
# If this CIF has been generated from an entry in the Cambridge 
# Structural Database, then it will include bibliographic, chemical, 
# crystal, experimental, refinement or atomic coordinate data resulting 
# from the CCDC's data processing and validation procedures.
#
#######################################################################

data_ETUMOW
_symmetry_cell_setting           monoclinic
_symmetry_space_group_name_H-M   'P 21/n'
_symmetry_Int_Tables_number      14
_space_group_name_Hall           '-P 2yn'
loop_
_symmetry_equiv_pos_site_id
_symmetry_equiv_pos_as_xyz
1 x,y,z
2 1/2-x,1/2+y,1/2-z
3 -x,-y,-z
4 1/2+x,1/2-y,1/2+z
_cell_length_a                   7.7275(11)
_cell_length_b                   9.4705(13)
_cell_length_c                   16.729(2)
_cell_angle_alpha                90
_cell_angle_beta                 101.416(2)
_cell_angle_gamma                90
_cell_volume                     1200.06
loop_
_atom_site_label
_atom_site_type_symbol
_atom_site_fract_x
_atom_site_fract_y
_atom_site_fract_z
Hg1 Hg -0.24740(3) 0.03946(3) 0.005310(12)
Cl1 Cl -0.0076(2) 0.02655(19) 0.11378(9)
Cl2 Cl -0.4763(2) 0.01819(19) -0.10788(9)
O1 O -0.2581(7) 0.7485(6) 0.0235(3)
N1 N -0.2454(6) 0.3191(7) 0.0057(3)
C1 C -0.2721(8) 0.3824(8) 0.0697(4)
N2 N -0.2777(7) 0.5265(6) 0.0757(3)
C2 C -0.2516(8) 0.6201(8) 0.0148(4)
C3 C -0.2216(9) 0.5509(7) -0.0581(4)
C4 C -0.1932(9) 0.6256(8) -0.1257(4)
H1 H -0.1926 0.7237 -0.1240
C5 C -0.1661(9) 0.5600(8) -0.1943(4)
H2 H -0.1490 0.6123 -0.2391
C6 C -0.1645(9) 0.4115(7) -0.1964(4)
H3 H -0.1466 0.3659 -0.2434
C7 C -0.1889(8) 0.3315(7) -0.1301(4)
H4 H -0.1857 0.2334 -0.1320
C8 C -0.2187(8) 0.4016(7) -0.0596(3)
C9 C -0.3046(10) 0.3200(9) 0.1470(4)
H5 H -0.2076 0.2592 0.1716
H6 H -0.4130 0.2654 0.1373
C10 C -0.3194(13) 0.4488(10) 0.2024(5)
H7 H -0.4308 0.4460 0.2208
H8 H -0.2243 0.4470 0.2499
C11 C -0.3086(10) 0.5786(8) 0.1545(4)
H9 H -0.4178 0.6319 0.1475
H10 H -0.2120 0.6382 0.1810
Hg1B Hg 0.24740(3) -0.03946(3) -0.005310(12)
Hg1B_2 Hg -0.75260(3) -0.03946(3) -0.005310(12)
Hg1_2 Hg -0.24740(3) 1.03946(3) 0.005310(12)
Cl1B Cl 0.0076(2) -0.02655(19) -0.11378(9)
Cl2B Cl -0.5237(2) -0.01819(19) 0.10788(9)
O1_2 O -0.2581(7) -0.2515(6) 0.0235(3)
loop_
_geom_bond_atom_site_label_1
_geom_bond_atom_site_label_2
_geom_bond_site_symmetry_1
_geom_bond_site_symmetry_2
Hg1 Cl1 1_555 1_555
Cl1 Hg1B 1_555 1_555
Cl2 Hg1 1_555 1_555
O1 C2 1_555 1_555
N1 Hg1 1_555 1_555
C1 N1 1_555 1_555
N2 C1 1_555 1_555
C2 N2 1_555 1_555
C3 C2 1_555 1_555
C4 C3 1_555 1_555
H1 C4 1_555 1_555
C5 C4 1_555 1_555
H2 C5 1_555 1_555
C6 C5 1_555 1_555
H3 C6 1_555 1_555
C7 C6 1_555 1_555
H4 C7 1_555 1_555
C8 N1 1_555 1_555
C9 C1 1_555 1_555
H5 C9 1_555 1_555
H6 C9 1_555 1_555
C10 C9 1_555 1_555
H7 C10 1_555 1_555
H8 C10 1_555 1_555
C11 N2 1_555 1_555
H9 C11 1_555 1_555
H10 C11 1_555 1_555
Hg1B Cl1B 1_555 1_555
Hg1B_2 Cl2 1_555 1_555
Hg1_2 O1 1_555 1_555
Cl1B Hg1 1_555 1_555
Cl2B Hg1 1_555 1_555
O1_2 Hg1 1_555 1_555
C3 C8 1_555 1_555
C7 C8 1_555 1_555
C10 C11 1_555 1_555
Hg1B_2 Cl2B 1_555 1_555

#END
