
#######################################################################
#
#                 Cambridge Crystallographic Data Centre
#                                CCDC 
#
#######################################################################
#
# If this CIF has been generated from an entry in the Cambridge 
# Structural Database, then it will include bibliographic, chemical, 
# crystal, experimental, refinement or atomic coordinate data resulting 
# from the CCDC's data processing and validation procedures.
#
#######################################################################

data_ETUMEM
_symmetry_cell_setting           monoclinic
_symmetry_space_group_name_H-M   'P 21/c'
_symmetry_Int_Tables_number      14
_space_group_name_Hall           '-P 2ybc'
loop_
_symmetry_equiv_pos_site_id
_symmetry_equiv_pos_as_xyz
1 x,y,z
2 -x,1/2+y,1/2-z
3 -x,-y,-z
4 x,1/2-y,1/2+z
_cell_length_a                   10.2611(3)
_cell_length_b                   16.9967(4)
_cell_length_c                   11.4808(3)
_cell_angle_alpha                90
_cell_angle_beta                 93.812(2)
_cell_angle_gamma                90
_cell_volume                     1997.88
loop_
_atom_site_label
_atom_site_type_symbol
_atom_site_fract_x
_atom_site_fract_y
_atom_site_fract_z
Zn1 Zn -0.05241(5) -0.55461(3) -0.34476(5)
C1 C -0.1029(5) -0.4156(3) -0.1941(5)
H1 H -0.1689 -0.4417 -0.1580
C2 C 0.0432(6) -0.3843(3) -0.3041(5)
H2 H 0.1013 -0.3871 -0.3628
C3 C -0.0915(6) -0.2937(3) -0.0690(4)
H3 H -0.0726 -0.2394 -0.0877
H4 H -0.1841 -0.2980 -0.0582
C4 C -0.0526(5) -0.3616(3) 0.1245(5)
H5 H -0.1355 -0.3828 0.1301
C5 C 0.1439(5) -0.3288(3) 0.1562(5)
H6 H 0.2270 -0.3239 0.1930
C6 C -0.6730(5) -0.5953(3) -0.4411(4)
C7 C -0.6825(5) -0.6457(3) -0.5376(4)
H7 H -0.7638 -0.6620 -0.5692
C8 C -0.5697(5) -0.6711(3) -0.5856(4)
C9 C -0.4483(5) -0.6463(3) -0.5416(4)
H8 H -0.3735 -0.6636 -0.5753
C10 C -0.4386(5) -0.5955(3) -0.4469(4)
C11 C -0.5488(5) -0.5714(3) -0.3965(4)
H9 H -0.5413 -0.5386 -0.3315
C12 C -0.7919(5) -0.5686(3) -0.3829(5)
C13 C -0.3060(5) -0.5704(3) -0.3949(4)
N1 N -0.0406(4) -0.4437(2) -0.2815(4)
N2 N -0.0580(4) -0.3444(2) -0.1649(4)
N3 N 0.0351(5) -0.3232(3) -0.2364(4)
N4 N -0.0173(4) -0.3161(2) 0.0379(4)
N5 N 0.1097(5) -0.2951(3) 0.0573(4)
N6 N 0.0471(4) -0.3722(2) 0.2015(4)
O1 O -0.9043(3) -0.5865(2) -0.4342(3)
O2 O -0.7810(3) -0.5338(2) -0.2874(3)
O3 O -0.2964(3) -0.5336(2) -0.3006(3)
O4 O -0.2056(3) -0.5882(2) -0.4489(3)
O5 O -0.6748(4) -0.8003(2) -0.6651(4)
O6 O -0.6336(4) -0.6976(2) -0.8042(4)
O7 O -0.4543(4) -0.7723(2) -0.7130(4)
S1 S -0.58365(13) -0.74059(8) -0.70152(12)
Zn1B Zn 0.05241(5) -0.44539(3) 0.34476(5)
Zn1_2 Zn -1.05241(5) -0.55461(3) -0.34476(5)
Zn1B_2 Zn 1.05241(5) -0.44539(3) 0.34476(5)
C1B C 0.1029(5) -0.5844(3) 0.1941(5)
H1B H 0.1689 -0.5583 0.1580
C2B C -0.0432(6) -0.6157(3) 0.3041(5)
H2B H -0.1013 -0.6129 0.3628
C3B C 0.0915(6) -0.7063(3) 0.0690(4)
H3B H 0.0726 -0.7606 0.0877
H4B H 0.1841 -0.7020 0.0582
C4B C 0.0526(5) -0.6384(3) -0.1245(5)
H5B H 0.1355 -0.6172 -0.1301
C5B C -0.1439(5) -0.6712(3) -0.1562(5)
H6B H -0.2270 -0.6761 -0.1930
C6B C 0.6730(5) -0.4047(3) 0.4411(4)
C7B C 0.6825(5) -0.3543(3) 0.5376(4)
H7B H 0.7638 -0.3380 0.5692
C8B C 0.5697(5) -0.3289(3) 0.5856(4)
C9B C 0.4483(5) -0.3537(3) 0.5416(4)
H8B H 0.3735 -0.3364 0.5753
C10B C 0.4386(5) -0.4045(3) 0.4469(4)
C11B C 0.5488(5) -0.4286(3) 0.3965(4)
H9B H 0.5413 -0.4614 0.3315
C12B C 0.7919(5) -0.4314(3) 0.3829(5)
C13B C 0.3060(5) -0.4296(3) 0.3949(4)
N1B N 0.0406(4) -0.5563(2) 0.2815(4)
N2B N 0.0580(4) -0.6556(2) 0.1649(4)
N3B N -0.0351(5) -0.6768(3) 0.2364(4)
N4B N 0.0173(4) -0.6839(2) -0.0379(4)
N5B N -0.1097(5) -0.7049(3) -0.0573(4)
N6B N -0.0471(4) -0.6278(2) -0.2015(4)
O1_2 O 0.0957(3) -0.5865(2) -0.4342(3)
O1B O -0.0957(3) -0.4135(2) 0.4342(3)
O1B_2 O 0.9043(3) -0.4135(2) 0.4342(3)
O2B O 0.7810(3) -0.4662(2) 0.2874(3)
O3B O 0.2964(3) -0.4664(2) 0.3006(3)
O4B O 0.2056(3) -0.4118(2) 0.4489(3)
O5B O 0.6748(4) -0.1997(2) 0.6651(4)
O6B O 0.6336(4) -0.3024(2) 0.8042(4)
O7B O 0.4543(4) -0.2277(2) 0.7130(4)
S1B S 0.58365(13) -0.25941(8) 0.70152(12)
Zn2 Zn 0.5000 -0.5000 0.0000
O8 O 0.3948(5) -0.4282(3) 0.1028(5)
H10 H 0.3892 -0.4239 0.1773
H11 H 0.3861 -0.3808 0.0761
O9 O 0.6329(5) -0.4069(3) -0.0187(5)
H12 H 0.6046 -0.3739 -0.0722
H13 H 0.6511 -0.3784 0.0425
O10 O 0.3976(5) -0.4554(3) -0.1461(5)
H14 H 0.3721 -0.4929 -0.1919
H15 H 0.3284 -0.4312 -0.1255
O8B O 0.6052(5) -0.5718(3) -0.1028(5)
H10B H 0.6108 -0.5761 -0.1773
H11B H 0.6139 -0.6192 -0.0761
O9B O 0.3671(5) -0.5931(3) 0.0187(5)
H12B H 0.3954 -0.6261 0.0722
H13B H 0.3489 -0.6216 -0.0425
O10B O 0.6024(5) -0.5446(3) 0.1461(5)
H14B H 0.6279 -0.5071 0.1919
H15B H 0.6716 -0.5688 0.1255
O11 O 0.3350(5) -0.3076(3) -0.0994(4)
H16 H 0.3859 -0.2678 -0.1032
H17 H 0.2577 -0.2884 -0.0943
O12 O 0.133(2) -0.4698(11) -0.0390(18)
loop_
_geom_bond_atom_site_label_1
_geom_bond_atom_site_label_2
_geom_bond_site_symmetry_1
_geom_bond_site_symmetry_2
Zn1 N1 1_555 1_555
Zn2 O8 1_555 1_555
C1 H1 1_555 1_555
C2 H2 1_555 1_555
C3 H3 1_555 1_555
H4 C3 1_555 1_555
C4 H5 1_555 1_555
C5 H6 1_555 1_555
C6 C7 1_555 1_555
C7 H7 1_555 1_555
C8 C7 1_555 1_555
C9 C8 1_555 1_555
H8 C9 1_555 1_555
C10 C9 1_555 1_555
C11 C6 1_555 1_555
H9 C11 1_555 1_555
C12 C6 1_555 1_555
C13 C10 1_555 1_555
N1 C1 1_555 1_555
N2 C1 1_555 1_555
N3 C2 1_555 1_555
N4 C3 1_555 1_555
N5 C5 1_555 1_555
N6 C4 1_555 1_555
O1 C12 1_555 1_555
O2 C12 1_555 1_555
O3 Zn1 1_555 1_555
O4 Zn1 1_555 1_555
O5 S1 1_555 1_555
O6 S1 1_555 1_555
O7 S1 1_555 1_555
O8 H10 1_555 1_555
H11 O8 1_555 1_555
O9 Zn2 1_555 1_555
H12 O9 1_555 1_555
H13 O9 1_555 1_555
O10 Zn2 1_555 1_555
H14 O10 1_555 1_555
H15 O10 1_555 1_555
O11 H16 1_555 1_555
H17 O11 1_555 1_555
S1 C8 1_555 1_555
Zn1B N6 1_555 1_555
Zn1_2 O1 1_555 1_555
Zn1B_2 O1B_2 1_555 1_555
C1B H1B 1_555 1_555
C2B H2B 1_555 1_555
C3B H3B 1_555 1_555
H4B C3B 1_555 1_555
C4B H5B 1_555 1_555
C5B H6B 1_555 1_555
C6B C7B 1_555 1_555
C7B H7B 1_555 1_555
C8B C7B 1_555 1_555
C9B C8B 1_555 1_555
H8B C9B 1_555 1_555
C10B C9B 1_555 1_555
C11B C6B 1_555 1_555
H9B C11B 1_555 1_555
C12B C6B 1_555 1_555
C13B C10B 1_555 1_555
N1B Zn1B 1_555 1_555
N2B C1B 1_555 1_555
N3B C2B 1_555 1_555
N4B C3B 1_555 1_555
N5B C5B 1_555 1_555
N6B Zn1 1_555 1_555
O1_2 Zn1 1_555 1_555
O1B Zn1B 1_555 1_555
O1B_2 C12B 1_555 1_555
O2B C12B 1_555 1_555
O3B Zn1B 1_555 1_555
O4B Zn1B 1_555 1_555
O5B S1B 1_555 1_555
O6B S1B 1_555 1_555
O7B S1B 1_555 1_555
O8B Zn2 1_555 1_555
H10B O8B 1_555 1_555
H11B O8B 1_555 1_555
O9B Zn2 1_555 1_555
H12B O9B 1_555 1_555
H13B O9B 1_555 1_555
O10B Zn2 1_555 1_555
H14B O10B 1_555 1_555
H15B O10B 1_555 1_555
S1B C8B 1_555 1_555
C2 N1 1_555 1_555
C3 N2 1_555 1_555
C4 N4 1_555 1_555
C5 N6 1_555 1_555
C10 C11 1_555 1_555
C13 O3 1_555 1_555
C13 O4 1_555 1_555
N2 N3 1_555 1_555
N4 N5 1_555 1_555
C1B N1B 1_555 1_555
C2B N1B 1_555 1_555
C3B N2B 1_555 1_555
C4B N4B 1_555 1_555
C4B N6B 1_555 1_555
C5B N6B 1_555 1_555
C10B C11B 1_555 1_555
C13B O3B 1_555 1_555
C13B O4B 1_555 1_555
N2B N3B 1_555 1_555
N4B N5B 1_555 1_555

#END
