
#######################################################################
#
#                 Cambridge Crystallographic Data Centre
#                                CCDC 
#
#######################################################################
#
# If this CIF has been generated from an entry in the Cambridge 
# Structural Database, then it will include bibliographic, chemical, 
# crystal, experimental, refinement or atomic coordinate data resulting 
# from the CCDC's data processing and validation procedures.
#
#######################################################################

data_ETUPIT
_symmetry_cell_setting           triclinic
_symmetry_space_group_name_H-M   'P -1'
_symmetry_Int_Tables_number      2
_space_group_name_Hall           '-P 1'
loop_
_symmetry_equiv_pos_site_id
_symmetry_equiv_pos_as_xyz
1 x,y,z
2 -x,-y,-z
_cell_length_a                   7.0053(18)
_cell_length_b                   11.449(3)
_cell_length_c                   14.077(4)
_cell_angle_alpha                105.352(4)
_cell_angle_beta                 92.837(4)
_cell_angle_gamma                94.624(2)
_cell_volume                     1082.25
loop_
_atom_site_label
_atom_site_type_symbol
_atom_site_fract_x
_atom_site_fract_y
_atom_site_fract_z
Co1 Co 0.38876(3) 0.627012(17) 0.230821(15)
N1 N 0.3885(2) 0.43762(12) 0.23107(10)
N2 N 0.3821(2) -0.18489(12) 0.23179(10)
C1 C 0.3827(3) 0.40339(14) 0.31469(12)
H1 H 0.3823 0.4648 0.3751
C2 C 0.3773(3) 0.28345(14) 0.31811(12)
H2 H 0.3750 0.2645 0.3798
C3 C 0.3752(2) 0.19091(13) 0.23145(11)
C4 C 0.3781(3) 0.22635(14) 0.14371(12)
H3 H 0.3747 0.1666 0.0821
C5 C 0.3860(3) 0.34851(15) 0.14656(12)
H4 H 0.3898 0.3704 0.0861
C6 C 0.3733(2) 0.06074(13) 0.23155(11)
C7 C 0.3486(3) 0.02297(15) 0.31603(13)
H5 H 0.3283 0.0807 0.3761
C8 C 0.3531(3) -0.09846(15) 0.31378(13)
H6 H 0.3349 -0.1217 0.3729
C9 C 0.4037(3) -0.14903(14) 0.14960(13)
H7 H 0.4233 -0.2086 0.0905
C10 C 0.3990(3) -0.02929(14) 0.14642(12)
H8 H 0.4135 -0.0088 0.0859
O5 O 0.19781(18) 0.56791(11) 0.10504(8)
H12 H 0.1813 0.6024 0.0591
H13 H 0.0898 0.5339 0.1132
O6 O 0.6205(2) 0.61273(12) 0.14338(12)
H14 H 0.7040 0.5672 0.1545
H15 H 0.6924 0.6702 0.1320
O7 O 0.14285(19) 0.63665(11) 0.31403(9)
H16 H 0.0450 0.5866 0.2905
H17 H 0.1477 0.6495 0.3764
O8 O 0.5585(2) 0.68048(12) 0.36252(11)
H18 H 0.6317 0.7466 0.3793
H19 H 0.6193 0.6310 0.3850
Co1_2 Co 0.38876(3) -0.372988(17) 0.230821(15)
N2_2 N 0.3821(2) 0.81511(12) 0.23179(10)
O1 O 0.88432(18) 0.45647(11) 0.17193(9)
O2 O 0.8709(2) 0.31057(12) 0.02985(9)
O3 O 0.8583(2) 0.32631(11) 0.48551(9)
O4 O 0.8299(3) 0.12902(13) 0.47420(10)
N3 N 0.8803(2) 0.03959(13) 0.17180(11)
C11 C 0.8681(3) 0.07055(16) 0.26959(13)
H9 H 0.8642 0.0075 0.3020
C12 C 0.8609(2) 0.18844(15) 0.32658(11)
C13 C 0.8678(2) 0.28087(14) 0.27885(11)
H10 H 0.8659 0.3633 0.3155
C14 C 0.8773(2) 0.25103(14) 0.17736(11)
C15 C 0.8837(2) 0.12965(15) 0.12731(12)
H11 H 0.8908 0.1093 0.0577
C16 C 0.8777(2) 0.34712(14) 0.12216(11)
C17 C 0.8465(3) 0.21575(15) 0.43678(12)
O9 O 0.8025(3) 0.87961(16) 0.43207(17)
H20 H 0.7997 0.9560 0.4422
H21 H 0.9151 0.8574 0.4258
O10 O 0.8252(2) 0.78607(12) 0.08166(12)
H22 H 0.8500 0.8610 0.1118
H23 H 0.9238 0.7623 0.0522
O11 O 0.7707(2) 0.55000(13) 0.45807(11)
H24 H 0.8792 0.5902 0.4781
H25 H 0.7806 0.4780 0.4623
loop_
_geom_bond_atom_site_label_1
_geom_bond_atom_site_label_2
_geom_bond_site_symmetry_1
_geom_bond_site_symmetry_2
Co1 N1 1_555 1_555
O1 C16 1_555 1_555
O2 C16 1_555 1_555
O3 C17 1_555 1_555
O4 C17 1_555 1_555
N1 C1 1_555 1_555
N2 C8 1_555 1_555
N3 C11 1_555 1_555
C1 H1 1_555 1_555
C2 C1 1_555 1_555
H2 C2 1_555 1_555
C3 C2 1_555 1_555
C4 C3 1_555 1_555
H3 C4 1_555 1_555
C5 N1 1_555 1_555
H4 C5 1_555 1_555
C6 C3 1_555 1_555
C7 C6 1_555 1_555
H5 C7 1_555 1_555
C8 C7 1_555 1_555
H6 C8 1_555 1_555
C9 N2 1_555 1_555
H7 C9 1_555 1_555
C10 C6 1_555 1_555
H8 C10 1_555 1_555
C11 H9 1_555 1_555
C12 C11 1_555 1_555
C13 C12 1_555 1_555
H10 C13 1_555 1_555
C14 C13 1_555 1_555
C15 N3 1_555 1_555
H11 C15 1_555 1_555
C16 C14 1_555 1_555
C17 C12 1_555 1_555
O5 Co1 1_555 1_555
H12 O5 1_555 1_555
H13 O5 1_555 1_555
O6 Co1 1_555 1_555
H14 O6 1_555 1_555
H15 O6 1_555 1_555
O7 Co1 1_555 1_555
H16 O7 1_555 1_555
H17 O7 1_555 1_555
O8 Co1 1_555 1_555
H18 O8 1_555 1_555
H19 O8 1_555 1_555
O9 H20 1_555 1_555
H21 O9 1_555 1_555
O10 H22 1_555 1_555
H23 O10 1_555 1_555
O11 H24 1_555 1_555
H25 O11 1_555 1_555
Co1_2 N2 1_555 1_555
N2_2 Co1 1_555 1_555
C4 C5 1_555 1_555
C9 C10 1_555 1_555
C14 C15 1_555 1_555

#END
