
#######################################################################
#
#                 Cambridge Crystallographic Data Centre
#                                CCDC 
#
#######################################################################
#
# If this CIF has been generated from an entry in the Cambridge 
# Structural Database, then it will include bibliographic, chemical, 
# crystal, experimental, refinement or atomic coordinate data resulting 
# from the CCDC's data processing and validation procedures.
#
#######################################################################

data_ETUQEQ
_symmetry_cell_setting           monoclinic
_symmetry_space_group_name_H-M   'C 2/c'
_symmetry_Int_Tables_number      15
_space_group_name_Hall           '-C 2yn'
loop_
_symmetry_equiv_pos_site_id
_symmetry_equiv_pos_as_xyz
1 x,y,z
2 -x,y,1/2-z
3 1/2+x,1/2+y,z
4 1/2-x,1/2+y,1/2-z
5 -x,-y,-z
6 x,-y,1/2+z
7 1/2-x,1/2-y,-z
8 1/2+x,1/2-y,1/2+z
_cell_length_a                   8.578(7)
_cell_length_b                   14.016(11)
_cell_length_c                   7.382(7)
_cell_angle_alpha                90
_cell_angle_beta                 112.176(17)
_cell_angle_gamma                90
_cell_volume                     821.88
loop_
_atom_site_label
_atom_site_type_symbol
_atom_site_fract_x
_atom_site_fract_y
_atom_site_fract_z
Zn1 Zn 0.0000 0.08158(2) 0.2500
N1 N 0.5000 0.26938(18) 0.7500
O1 O 0.0625(2) 0.09690(11) 0.5672(2)
O2 O 0.20746(19) -0.00679(11) 0.7999(2)
C1 C 0.1949(3) 0.06763(15) 0.6979(3)
C2 C 0.3560(3) 0.12188(16) 0.7360(3)
C3 C 0.5000 0.0730(2) 0.7500
H1 H 0.5000 0.0066 0.7500
C4 C 0.3618(3) 0.22210(15) 0.7464(3)
C5 C 0.2202(3) 0.28064(16) 0.7589(4)
H2 H 0.2644 0.3278 0.8596
H3 H 0.1434 0.2399 0.7893
H4 H 0.1621 0.3117 0.6358
Zn1_2 Zn 1.0000 0.08158(2) 1.2500
Zn1D Zn 0.0000 -0.08158(2) 0.7500
Zn1D_2 Zn 1.0000 -0.08158(2) 0.7500
Zn1F Zn 0.5000 0.41842(2) 0.7500
N1F N 0.0000 0.23062(18) 0.2500
O1A O 0.9375(2) 0.09690(11) 0.9328(2)
O1A_2 O -0.0625(2) 0.09690(11) -0.0672(2)
O2A O 0.79254(19) -0.00679(11) 0.7001(2)
O2D O -0.20746(19) 0.00679(11) 0.2001(2)
O2E O 0.20746(19) 0.00679(11) 0.2999(2)
C1A C 0.8051(3) 0.06763(15) 0.8021(3)
C2A C 0.6440(3) 0.12188(16) 0.7640(3)
C4A C 0.6382(3) 0.22210(15) 0.7536(3)
C5A C 0.7798(3) 0.28064(16) 0.7411(4)
H2A H 0.7356 0.3278 0.6404
H3A H 0.8566 0.2399 0.7107
H4A H 0.8379 0.3117 0.8642
loop_
_geom_bond_atom_site_label_1
_geom_bond_atom_site_label_2
_geom_bond_site_symmetry_1
_geom_bond_site_symmetry_2
Zn1 O1 1_555 1_555
N1 C4 1_555 1_555
O1 C1 1_555 1_555
O2 C1 1_555 1_555
C1 C2 1_555 1_555
C2 C3 1_555 1_555
C3 H1 1_555 1_555
C4 C2 1_555 1_555
C5 C4 1_555 1_555
H2 C5 1_555 1_555
H3 C5 1_555 1_555
H4 C5 1_555 1_555
Zn1_2 O1A 1_555 1_555
Zn1D O2 1_555 1_555
Zn1D_2 O2A 1_555 1_555
Zn1F N1 1_555 1_555
N1F Zn1 1_555 1_555
O1A C1A 1_555 1_555
O1A_2 Zn1 1_555 1_555
O2A C1A 1_555 1_555
O2D Zn1 1_555 1_555
O2E Zn1 1_555 1_555
C1A C2A 1_555 1_555
C2A C3 1_555 1_555
C4A N1 1_555 1_555
C5A C4A 1_555 1_555
H2A C5A 1_555 1_555
H3A C5A 1_555 1_555
H4A C5A 1_555 1_555
C2A C4A 1_555 1_555

#END
