
#######################################################################
#
#                 Cambridge Crystallographic Data Centre
#                                CCDC 
#
#######################################################################
#
# If this CIF has been generated from an entry in the Cambridge 
# Structural Database, then it will include bibliographic, chemical, 
# crystal, experimental, refinement or atomic coordinate data resulting 
# from the CCDC's data processing and validation procedures.
#
#######################################################################

data_ETUROB
_symmetry_cell_setting           triclinic
_symmetry_space_group_name_H-M   'P -1'
_symmetry_Int_Tables_number      2
_space_group_name_Hall           '-P 1'
loop_
_symmetry_equiv_pos_site_id
_symmetry_equiv_pos_as_xyz
1 x,y,z
2 -x,-y,-z
_cell_length_a                   9.4550(19)
_cell_length_b                   10.174(2)
_cell_length_c                   15.153(3)
_cell_angle_alpha                93.03(3)
_cell_angle_beta                 99.94(3)
_cell_angle_gamma                94.72(3)
_cell_volume                     1427.55
loop_
_atom_site_label
_atom_site_type_symbol
_atom_site_fract_x
_atom_site_fract_y
_atom_site_fract_z
Fe1 Fe 1.65507(4) -0.26160(4) 0.36749(3)
Mn1 Mn 0.96915(4) 0.19655(4) 0.15479(3)
O1 O 0.9617(2) -0.05825(18) 0.11693(13)
N1 N 0.8703(2) 0.1942(2) 0.27946(14)
C1 C 1.8357(6) -0.3356(8) 0.3390(3)
H1 H 1.899(5) -0.372(5) 0.375(3)
O2 O 1.1190(2) 0.06247(17) 0.21790(14)
N2 N 0.6291(3) 0.2135(2) 0.21420(16)
C2 C 1.7141(7) -0.4008(5) 0.2832(3)
H2 H 1.663(4) -0.485(4) 0.291(2)
O3 O 1.1239(2) -0.63879(17) 0.22317(15)
N3 N 0.7391(2) 0.1676(2) 0.08758(14)
C3 C 1.6431(5) -0.3073(4) 0.2337(2)
H3 H 1.060(4) 0.160(4) -0.011(3)
O4 O 0.9379(2) -0.56199(18) 0.14381(14)
C4 C 1.7244(5) -0.1831(5) 0.2583(3)
H4 H 1.689(6) -0.104(6) 0.235(4)
O5 O 1.0750(3) 0.2110(2) 0.04046(15)
C5 C 1.8422(5) -0.2019(8) 0.3250(3)
H5 H 1.106(3) 0.283(3) 0.034(2)
C6 C 1.6383(4) -0.2896(4) 0.4971(2)
H6 H 1.703(4) -0.339(4) 0.541(3)
C7 C 1.6525(4) -0.1553(4) 0.4846(2)
H8 H 1.726(4) -0.096(3) 0.516(2)
C8 C 1.5133(4) -0.3473(4) 0.4380(2)
H11 H 1.476(4) -0.435(4) 0.436(3)
C9 C 1.5376(3) -0.1274(3) 0.4181(2)
H12 H 1.521(4) -0.046(4) 0.394(2)
C10 C 1.4492(3) -0.2464(3) 0.38753(18)
H13 H 0.551(3) 0.225(3) 0.227(2)
C11 C 1.3176(3) -0.2627(2) 0.31824(17)
H14 H 1.553(4) -0.320(4) 0.193(3)
C12 C 1.2505(3) -0.3877(2) 0.28748(17)
H15 H 1.2916 -0.4633 0.3112
C13 C 1.1256(3) -0.4054(2) 0.22338(17)
H16 H 1.927(6) -0.135(5) 0.358(3)
C14 C 1.0659(3) -0.2948(2) 0.18762(17)
H17 H 0.9805 -0.3055 0.1435
C15 C 1.2554(3) -0.1541(2) 0.28156(17)
H18 H 1.2987 -0.0677 0.3014
C16 C 1.1309(3) -0.1694(2) 0.21635(17)
C17 C 1.0656(3) -0.0489(2) 0.18024(19)
C18 C 1.0570(3) -0.5430(2) 0.19399(19)
C19 C 0.9681(3) 0.1930(4) 0.3560(2)
H19 H 1.0651 0.1818 0.3508
C20 C 0.9361(4) 0.2066(5) 0.4390(2)
H20 H 1.0086 0.2038 0.4907
C21 C 0.7960(4) 0.2246(5) 0.4475(2)
H21 H 0.7708 0.2354 0.5053
C22 C 0.6945(3) 0.2267(3) 0.3727(2)
H22 H 0.5973 0.2385 0.3772
C23 C 0.7362(3) 0.2111(3) 0.28820(17)
C24 C 0.6225(3) 0.1900(2) 0.12293(18)
C25 C 0.4855(3) 0.1898(3) 0.06901(19)
H23 H 0.4042 0.2064 0.0955
C26 C 0.4707(3) 0.1657(3) -0.0214(2)
H24 H 0.3792 0.1665 -0.0588
C27 C 0.5903(3) 0.1399(3) -0.0581(2)
H25 H 0.5825 0.1213 -0.1210
C28 C 0.7196(3) 0.1417(3) -0.00215(19)
H26 H 0.8013 0.1237 -0.0279
Mn1_2 Mn 0.96915(4) -0.80345(4) 0.15479(3)
O3_2 O 1.1239(2) 0.36121(17) 0.22317(15)
O6 O 1.1854(4) 0.4444(3) 0.0007(2)
H7 H 1.129(4) 0.476(4) -0.041(2)
C29 C 1.3128(4) 0.5007(4) 0.0283(3)
H27 H 1.3073 0.5944 0.0449
H28 H 1.3697 0.4930 -0.0197
H29 H 1.3589 0.4579 0.0808
O7 O 1.3625(3) 0.2353(4) 0.2701(2)
H9 H 1.320(4) 0.291(4) 0.255(3)
H10 H 1.304(6) 0.168(6) 0.248(4)
loop_
_geom_bond_atom_site_label_1
_geom_bond_atom_site_label_2
_geom_bond_site_symmetry_1
_geom_bond_site_symmetry_2
Fe1 C1 1_555 1_555
Mn1 N1 1_555 1_555
O1 C17 1_555 1_555
N1 C19 1_555 1_555
C1 H1 1_555 1_555
O2 Mn1 1_555 1_555
N2 H13 1_555 1_555
C2 Fe1 1_555 1_555
H2 C2 1_555 1_555
O3 C18 1_555 1_555
N3 Mn1 1_555 1_555
C3 Fe1 1_555 1_555
H3 O5 1_555 1_555
O4 C18 1_555 1_555
C4 Fe1 1_555 1_555
H4 C4 1_555 1_555
O5 Mn1 1_555 1_555
C5 Fe1 1_555 1_555
H5 O5 1_555 1_555
O6 H7 1_555 1_555
C6 Fe1 1_555 1_555
H6 C6 1_555 1_555
O7 H9 1_555 1_555
C7 Fe1 1_555 1_555
H8 C7 1_555 1_555
H10 O7 1_555 1_555
C8 Fe1 1_555 1_555
H11 C8 1_555 1_555
C9 Fe1 1_555 1_555
H12 C9 1_555 1_555
C10 Fe1 1_555 1_555
C11 C10 1_555 1_555
H14 C3 1_555 1_555
C12 C11 1_555 1_555
H15 C12 1_555 1_555
C13 C12 1_555 1_555
H16 C5 1_555 1_555
C14 C13 1_555 1_555
H17 C14 1_555 1_555
C15 C11 1_555 1_555
H18 C15 1_555 1_555
C16 C14 1_555 1_555
C17 O2 1_555 1_555
C18 C13 1_555 1_555
C19 H19 1_555 1_555
C20 C19 1_555 1_555
H20 C20 1_555 1_555
C21 C20 1_555 1_555
H21 C21 1_555 1_555
C22 C21 1_555 1_555
H22 C22 1_555 1_555
C23 N1 1_555 1_555
C24 N2 1_555 1_555
C25 C24 1_555 1_555
H23 C25 1_555 1_555
C26 C25 1_555 1_555
H24 C26 1_555 1_555
C27 C26 1_555 1_555
H25 C27 1_555 1_555
C28 N3 1_555 1_555
H26 C28 1_555 1_555
C29 O6 1_555 1_555
H27 C29 1_555 1_555
H28 C29 1_555 1_555
H29 C29 1_555 1_555
Mn1_2 O3 1_555 1_555
O3_2 Mn1 1_555 1_555
C1 C2 1_555 1_555
C1 C5 1_555 1_555
N2 C23 1_555 1_555
C2 C3 1_555 1_555
N3 C24 1_555 1_555
C3 C4 1_555 1_555
C4 C5 1_555 1_555
C6 C7 1_555 1_555
C6 C8 1_555 1_555
C7 C9 1_555 1_555
C8 C10 1_555 1_555
C9 C10 1_555 1_555
C15 C16 1_555 1_555
C16 C17 1_555 1_555
C22 C23 1_555 1_555
C27 C28 1_555 1_555

#END
