
#######################################################################
#
#                 Cambridge Crystallographic Data Centre
#                                CCDC 
#
#######################################################################
#
# If this CIF has been generated from an entry in the Cambridge 
# Structural Database, then it will include bibliographic, chemical, 
# crystal, experimental, refinement or atomic coordinate data resulting 
# from the CCDC's data processing and validation procedures.
#
#######################################################################

data_ETUSIW
_symmetry_cell_setting           monoclinic
_symmetry_space_group_name_H-M   'P 21/c'
_symmetry_Int_Tables_number      14
_space_group_name_Hall           '-P 2ybc'
loop_
_symmetry_equiv_pos_site_id
_symmetry_equiv_pos_as_xyz
1 x,y,z
2 -x,1/2+y,1/2-z
3 -x,-y,-z
4 x,1/2-y,1/2+z
_cell_length_a                   8.0971(16)
_cell_length_b                   10.426(2)
_cell_length_c                   8.5723(17)
_cell_angle_alpha                90
_cell_angle_beta                 107.02(3)
_cell_angle_gamma                90
_cell_volume                     691.982
loop_
_atom_site_label
_atom_site_type_symbol
_atom_site_fract_x
_atom_site_fract_y
_atom_site_fract_z
Cu1 Cu 0.5000 0.5000 0.0000
O1 O 0.3615(2) 0.73953(14) -0.05814(18)
O2 O 0.55129(17) 0.64376(14) 0.15185(16)
N1 N 0.1326(2) 0.44066(17) 0.24042(19)
N2 N 0.3015(2) 0.45187(17) 0.0816(2)
C1 C 0.4602(3) 0.73795(19) 0.0823(3)
H1 H 0.4686 0.8130 0.1427
C2 C 0.0645(3) 0.4692(2) 0.3731(2)
C3 C 0.0710(2) 0.35192(19) 0.1173(2)
H2 H -0.0238 0.2981 0.1032
C4 C 0.1769(3) 0.35939(19) 0.0218(2)
H3 H 0.1673 0.3097 -0.0706
C5 C -0.1121(3) 0.4657(2) 0.3490(2)
H4 H -0.1864 0.4419 0.2482
C6 C 0.2703(3) 0.49981(17) 0.2138(3)
H5 H 0.3340 0.5647 0.2786
C7 C 0.1772(3) 0.50202(18) 0.5231(3)
H6 H 0.2957 0.5025 0.5382
Cu1_2 Cu -0.5000 0.5000 1.0000
O1B O 0.6385(2) 0.26047(14) 0.05814(18)
O2B O 0.44871(17) 0.35624(14) -0.15185(16)
N1B N -0.1326(2) 0.55934(17) 0.75958(19)
N2B N -0.3015(2) 0.54813(17) 0.9184(2)
N2B_2 N 0.6985(2) 0.54813(17) -0.0816(2)
C1B C 0.5398(3) 0.26205(19) -0.0823(3)
H1B H 0.5314 0.1870 -0.1427
C2B C -0.0645(3) 0.5308(2) 0.6269(2)
C3B C -0.0710(2) 0.64808(19) 0.8827(2)
H2B H 0.0238 0.7019 0.8968
C4B C -0.1769(3) 0.64061(19) 0.9782(2)
H3B H -0.1673 0.6903 1.0706
C5B C 0.1121(3) 0.5343(2) 0.6510(2)
H4B H 0.1864 0.5581 0.7518
C6B C -0.2703(3) 0.50019(17) 0.7862(3)
H5B H -0.3340 0.4353 0.7214
C7B C -0.1772(3) 0.49798(18) 0.4769(3)
H6B H -0.2957 0.4975 0.4618
loop_
_geom_bond_atom_site_label_1
_geom_bond_atom_site_label_2
_geom_bond_site_symmetry_1
_geom_bond_site_symmetry_2
Cu1 O1 1_555 1_555
O1 C1 1_555 1_555
O2 Cu1 1_555 1_555
N1 C2 1_555 1_555
N2 Cu1 1_555 1_555
C1 O2 1_555 1_555
H1 C1 1_555 1_555
C2 C5 1_555 1_555
C3 N1 1_555 1_555
H2 C3 1_555 1_555
C4 N2 1_555 1_555
H3 C4 1_555 1_555
C5 H4 1_555 1_555
C6 N1 1_555 1_555
H5 C6 1_555 1_555
C7 C2 1_555 1_555
H6 C7 1_555 1_555
Cu1_2 N2B 1_555 1_555
O1B Cu1 1_555 1_555
O2B Cu1 1_555 1_555
N1B C2B 1_555 1_555
N2B C4B 1_555 1_555
N2B_2 Cu1 1_555 1_555
C1B O1B 1_555 1_555
H1B C1B 1_555 1_555
C2B C5B 1_555 1_555
C3B N1B 1_555 1_555
H2B C3B 1_555 1_555
C4B C3B 1_555 1_555
H3B C4B 1_555 1_555
C5B C7 1_555 1_555
H4B C5B 1_555 1_555
C6B N1B 1_555 1_555
H5B C6B 1_555 1_555
C7B C5 1_555 1_555
H6B C7B 1_555 1_555
N2 C6 1_555 1_555
C3 C4 1_555 1_555
O2B C1B 1_555 1_555
N2B C6B 1_555 1_555
C2B C7B 1_555 1_555

#END
