
#######################################################################
#
#                 Cambridge Crystallographic Data Centre
#                                CCDC 
#
#######################################################################
#
# If this CIF has been generated from an entry in the Cambridge 
# Structural Database, then it will include bibliographic, chemical, 
# crystal, experimental, refinement or atomic coordinate data resulting 
# from the CCDC's data processing and validation procedures.
#
#######################################################################

data_ETUTET
_symmetry_cell_setting           monoclinic
_symmetry_space_group_name_H-M   'P 21/c'
_symmetry_Int_Tables_number      14
_space_group_name_Hall           '-P 2ybc'
loop_
_symmetry_equiv_pos_site_id
_symmetry_equiv_pos_as_xyz
1 x,y,z
2 -x,1/2+y,1/2-z
3 -x,-y,-z
4 x,1/2-y,1/2+z
_cell_length_a                   13.02220(10)
_cell_length_b                   7.22880(10)
_cell_length_c                   18.5819(2)
_cell_angle_alpha                90
_cell_angle_beta                 100.7600(10)
_cell_angle_gamma                90
_cell_volume                     1718.45
loop_
_atom_site_label
_atom_site_type_symbol
_atom_site_fract_x
_atom_site_fract_y
_atom_site_fract_z
Li1 Li 0.90455(19) 0.0331(4) 1.03878(13)
Li2 Li 1.2436(2) 0.2877(4) 1.02789(14)
Li3 Li 0.6256(2) 0.0936(5) 0.92945(15)
O1 O 0.47521(9) 0.15187(19) 0.91969(6)
O2 O 0.32570(9) 0.1336(2) 0.83857(6)
N1 N 0.58804(10) 0.1142(2) 0.81387(7)
C1 C 0.48413(11) 0.1347(2) 0.79451(8)
C2 C 0.43759(12) 0.1538(2) 0.72158(8)
H1 H 0.3653 0.1662 0.7095
N2 N 0.49310(11) 0.1548(2) 0.66817(7)
C3 C 0.59618(13) 0.1305(2) 0.68670(9)
C4 C 0.64232(12) 0.1096(2) 0.76008(9)
H2 H 0.7142 0.0918 0.7720
C5 C 0.42190(12) 0.1403(2) 0.85605(8)
C6 C 0.65821(16) 0.1281(3) 0.62641(10)
H3 H 0.7279 0.0859 0.6454
H4 H 0.6609 0.2506 0.6070
H5 H 0.6256 0.0461 0.5882
O3 O 1.20280(8) 0.20920(18) 1.11942(6)
O4 O 1.05909(8) 0.09788(18) 1.04975(6)
N3 N 0.95349(10) 0.11349(19) 1.15973(7)
N4 N 0.77531(11) 0.3393(2) 0.98615(7)
O5 O 0.76826(9) 0.16678(16) 0.98797(6)
O6 O 0.70264(13) 0.4302(2) 0.95323(9)
O7 O 0.85484(14) 0.4171(3) 1.01733(9)
O8 O 1.38275(8) 0.17265(17) 1.03829(6)
H6 H 1.4131(17) 0.177(3) 1.0011(13)
H7 H 1.4222(18) 0.236(3) 1.0699(13)
O9 O 0.81382(9) -0.18568(16) 1.06931(5)
C7 C 0.95823(13) 0.1348(2) 1.28881(8)
C8 C 1.05656(11) 0.1468(2) 1.17399(7)
C9 C 0.90570(12) 0.1100(2) 1.21690(9)
H8 H 0.8339 0.0900 1.2086
C10 C 1.10941(12) 0.1720(2) 1.24494(8)
H9 H 1.1809 0.1954 1.2531
C11 C 1.11144(11) 0.1522(2) 1.10905(7)
N5 N 1.06118(11) 0.1639(2) 1.30230(7)
C12 C 0.90366(16) 0.1308(3) 1.35290(10)
H10 H 0.9461 0.0659 1.3928
H11 H 0.8377 0.0688 1.3393
H12 H 0.8922 0.2551 1.3678
H13 H 0.8562(17) -0.250(3) 1.0999(12)
H14 H 0.7640(17) -0.161(3) 1.0912(11)
Li1B Li 1.09545(19) -0.0331(4) 0.96122(13)
Li2B Li 0.7564(2) 0.7123(4) 0.97211(14)
Li2B_2 Li 0.7564(2) -0.2877(4) 0.97211(14)
Li3B Li 1.3744(2) -0.0936(5) 1.07055(15)
O4B O 0.94091(8) -0.09788(18) 0.95025(6)
O6B O 1.29736(13) 0.5698(2) 1.04677(9)
O8B O 0.61725(8) -0.17265(17) 0.96171(6)
H6B H 0.5869(17) -0.177(3) 0.9989(13)
H7B H 0.5778(18) -0.236(3) 0.9301(13)
O9B O 1.18618(9) 0.18568(16) 0.93069(5)
H13B H 1.1438(17) 0.250(3) 0.9001(12)
H14B H 1.2360(17) 0.161(3) 0.9088(11)
loop_
_geom_bond_atom_site_label_1
_geom_bond_atom_site_label_2
_geom_bond_site_symmetry_1
_geom_bond_site_symmetry_2
Li1 O4 1_555 1_555
Li2 O3 1_555 1_555
Li3 O1 1_555 1_555
O1 C5 1_555 1_555
O2 C5 1_555 1_555
N1 Li3 1_555 1_555
C1 N1 1_555 1_555
C2 C1 1_555 1_555
H1 C2 1_555 1_555
N2 C2 1_555 1_555
C3 N2 1_555 1_555
C4 N1 1_555 1_555
H2 C4 1_555 1_555
C5 C1 1_555 1_555
C6 C3 1_555 1_555
H3 C6 1_555 1_555
H4 C6 1_555 1_555
H5 C6 1_555 1_555
O3 C11 1_555 1_555
O4 C11 1_555 1_555
N3 Li1 1_555 1_555
N4 O5 1_555 1_555
O5 Li1 1_555 1_555
O6 N4 1_555 1_555
O7 N4 1_555 1_555
O8 Li2 1_555 1_555
H6 O8 1_555 1_555
H7 O8 1_555 1_555
O9 Li1 1_555 1_555
C7 C9 1_555 1_555
C8 N3 1_555 1_555
C9 N3 1_555 1_555
H8 C9 1_555 1_555
C10 C8 1_555 1_555
H9 C10 1_555 1_555
C11 C8 1_555 1_555
N5 C7 1_555 1_555
C12 C7 1_555 1_555
H10 C12 1_555 1_555
H11 C12 1_555 1_555
H12 C12 1_555 1_555
H13 O9 1_555 1_555
H14 O9 1_555 1_555
Li1B O4 1_555 1_555
Li2B O6 1_555 1_555
Li2B_2 O9 1_555 1_555
Li3B O8 1_555 1_555
O4B Li1 1_555 1_555
O6B Li2 1_555 1_555
O8B Li3 1_555 1_555
H6B O8B 1_555 1_555
H7B O8B 1_555 1_555
O9B Li2 1_555 1_555
H13B O9B 1_555 1_555
H14B O9B 1_555 1_555
Li3 O5 1_555 1_555
C3 C4 1_555 1_555
C10 N5 1_555 1_555
Li1B O4B 1_555 1_555
Li1B O9B 1_555 1_555
Li2B_2 O8B 1_555 1_555

#END
