
#######################################################################
#
#                 Cambridge Crystallographic Data Centre
#                                CCDC 
#
#######################################################################
#
# If this CIF has been generated from an entry in the Cambridge 
# Structural Database, then it will include bibliographic, chemical, 
# crystal, experimental, refinement or atomic coordinate data resulting 
# from the CCDC's data processing and validation procedures.
#
#######################################################################

data_ETUTUJ
_symmetry_cell_setting           orthorhombic
_symmetry_space_group_name_H-M   'P 21 21 21'
_symmetry_Int_Tables_number      19
_space_group_name_Hall           'P 2ac 2ab'
loop_
_symmetry_equiv_pos_site_id
_symmetry_equiv_pos_as_xyz
1 x,y,z
2 1/2-x,-y,1/2+z
3 -x,1/2+y,1/2-z
4 1/2+x,1/2-y,-z
_cell_length_a                   6.632(2)
_cell_length_b                   15.301(4)
_cell_length_c                   20.087(5)
_cell_angle_alpha                90
_cell_angle_beta                 90
_cell_angle_gamma                90
_cell_volume                     2038.35
loop_
_atom_site_label
_atom_site_type_symbol
_atom_site_fract_x
_atom_site_fract_y
_atom_site_fract_z
O1 O 0.1075(3) -0.01758(12) 0.20025(11)
C1 C 0.2759(4) -0.02548(17) 0.22862(14)
O2 O 0.3195(3) 0.12657(10) 0.20244(9)
C2 C 0.3940(4) 0.05857(18) 0.24324(14)
H1 H 0.3646 0.0748 0.2894
Zn1 Zn 1.00853(5) 0.102577(17) 0.169795(13)
C3 C 1.0062(5) 0.22189(16) 0.05463(11)
N1 N 1.0235(4) 0.06704(14) 0.06729(11)
N2 N 1.0013(4) 0.22682(12) 0.12231(9)
C4 C 1.0048(5) 0.29597(17) 0.01369(13)
C5 C 1.0136(5) 0.13644(17) 0.02535(12)
O3 O 0.8915(3) 0.14883(13) 0.25782(9)
O4 O 0.6953(3) 0.05600(11) 0.17118(9)
C6 C 1.0043(5) 0.2840(2) -0.05749(13)
H2 H 1.0039 0.3328 -0.0851
C7 C 0.9968(5) 0.30549(16) 0.14973(13)
H3 H 0.9926 0.3097 0.1959
C8 C 1.0025(5) 0.37765(18) 0.04495(16)
H4 H 1.0040 0.4286 0.0197
C9 C 1.0043(6) 0.2046(2) -0.08455(13)
H5 H 0.9991 0.1992 -0.1306
C10 C 0.6229(4) 0.04665(19) 0.23801(14)
H6 H 0.6551 -0.0127 0.2529
C11 C 0.9980(5) 0.38216(16) 0.11246(16)
H7 H 0.9957 0.4362 0.1337
C12 C 1.0121(5) 0.12713(19) -0.04425(13)
C13 C 1.0180(6) 0.0416(2) -0.06949(15)
H8 H 1.0127 0.0323 -0.1152
C14 C 1.0313(5) -0.0270(2) -0.02751(17)
H9 H 1.0393 -0.0836 -0.0443
O5 O 0.3450(3) -0.09500(13) 0.24989(13)
O6 O 0.6820(3) 0.11830(13) 0.34059(9)
C15 C 0.7393(4) 0.11022(17) 0.28205(13)
C16 C 1.0329(5) -0.0129(2) 0.04130(16)
H10 H 1.0407 -0.0607 0.0697
H11 H 0.6634 0.0119 0.1475
H12 H 0.3426 0.1744 0.2228
O1_2 O 1.1075(3) -0.01758(12) 0.20025(11)
O2_2 O 1.3195(3) 0.12657(10) 0.20244(9)
Zn1_2 Zn 0.00853(5) 0.102577(17) 0.169795(13)
O7 O 1.0162(4) 0.30592(14) 0.32821(11)
H13 H 0.9930 0.3578 0.3153
H14 H 0.9921 0.2536 0.3163
O8 O 0.6195(4) 0.77423(16) 0.23686(14)
H15 H 0.7053 0.7907 0.2081
H16 H 0.5115 0.8013 0.2270
O9 O 0.9593(4) 0.09008(17) 0.44919(13)
H17 H 0.8707 0.0962 0.4190
H18 H 0.9938 0.1431 0.4439
O10 O 0.5435(5) 0.93830(16) 0.08799(12)
H19 H 0.5009 0.8888 0.1012
H20 H 0.5516 0.9338 0.0459
O11 O 0.4092(5) 0.76383(18) 0.08031(13)
H21 H 0.3756 0.7608 0.0396
H22 H 0.3169 0.7389 0.1028
O12 O 0.8120(4) 0.74506(16) 0.05396(12)
H23 H 0.8804 0.7738 0.0823
H24 H 0.6869 0.7508 0.0620
loop_
_geom_bond_atom_site_label_1
_geom_bond_atom_site_label_2
_geom_bond_site_symmetry_1
_geom_bond_site_symmetry_2
O1 C1 1_555 1_555
C1 C2 1_555 1_555
O2 C2 1_555 1_555
C2 H1 1_555 1_555
Zn1 N1 1_555 1_555
C3 N2 1_555 1_555
N1 C5 1_555 1_555
N2 Zn1 1_555 1_555
C4 C3 1_555 1_555
C5 C3 1_555 1_555
O3 Zn1 1_555 1_555
O4 Zn1 1_555 1_555
C6 C4 1_555 1_555
H2 C6 1_555 1_555
C7 N2 1_555 1_555
H3 C7 1_555 1_555
C8 C4 1_555 1_555
H4 C8 1_555 1_555
C9 C6 1_555 1_555
H5 C9 1_555 1_555
C10 C2 1_555 1_555
H6 C10 1_555 1_555
C11 C7 1_555 1_555
H7 C11 1_555 1_555
C12 C5 1_555 1_555
C13 C12 1_555 1_555
H8 C13 1_555 1_555
C14 C13 1_555 1_555
H9 C14 1_555 1_555
O5 C1 1_555 1_555
O6 C15 1_555 1_555
C15 O3 1_555 1_555
C16 N1 1_555 1_555
H10 C16 1_555 1_555
H11 O4 1_555 1_555
H12 O2 1_555 1_555
O7 H13 1_555 1_555
H14 O7 1_555 1_555
O8 H15 1_555 1_555
H16 O8 1_555 1_555
O9 H17 1_555 1_555
H18 O9 1_555 1_555
O10 H19 1_555 1_555
H20 O10 1_555 1_555
O11 H21 1_555 1_555
H22 O11 1_555 1_555
O12 H23 1_555 1_555
H24 O12 1_555 1_555
O1_2 Zn1 1_555 1_555
O2_2 Zn1 1_555 1_555
Zn1_2 O1 1_555 1_555
O2 Zn1_2 1_555 1_555
O4 C10 1_555 1_555
C8 C11 1_555 1_555
C9 C12 1_555 1_555
C10 C15 1_555 1_555
C14 C16 1_555 1_555

#END
