
#######################################################################
#
#                 Cambridge Crystallographic Data Centre
#                                CCDC 
#
#######################################################################
#
# If this CIF has been generated from an entry in the Cambridge 
# Structural Database, then it will include bibliographic, chemical, 
# crystal, experimental, refinement or atomic coordinate data resulting 
# from the CCDC's data processing and validation procedures.
#
#######################################################################

data_ETUVUL
_symmetry_cell_setting           triclinic
_symmetry_space_group_name_H-M   'P -1'
_symmetry_Int_Tables_number      2
_space_group_name_Hall           '-P 1'
loop_
_symmetry_equiv_pos_site_id
_symmetry_equiv_pos_as_xyz
1 x,y,z
2 -x,-y,-z
_cell_length_a                   10.618(2)
_cell_length_b                   10.987(2)
_cell_length_c                   12.601(2)
_cell_angle_alpha                95.815(3)
_cell_angle_beta                 114.197(2)
_cell_angle_gamma                113.909(2)
_cell_volume                     1161.07
loop_
_atom_site_label
_atom_site_type_symbol
_atom_site_fract_x
_atom_site_fract_y
_atom_site_fract_z
Cd1 Cd 0.42035(3) 0.85652(2) 1.06635(2)
C1 C 0.4810(4) 0.6039(3) 0.8043(3)
C2 C 0.4472(4) 0.6269(3) 0.6212(3)
C3 C 0.3023(4) 0.4203(3) 0.6345(3)
C4 C 0.7363(4) 0.8372(3) 0.9962(3)
H1 H 0.8205 0.8656 1.0798
H2 H 0.7782 0.8275 0.9424
C5 C 0.6972(4) 0.9555(3) 0.9826(3)
C6 C 0.6109(4) 0.8984(3) 0.6309(3)
H3 H 0.6908 0.9023 0.7073
H4 H 0.6661 0.9586 0.5955
C7 C 0.5189(4) 0.9579(4) 0.6602(3)
C8 C 0.1498(4) 0.1658(4) 0.6678(3)
H5 H 0.1936 0.2377 0.7438
H6 H 0.0417 0.0990 0.6446
C9 C 0.2466(4) 0.0902(3) 0.6898(3)
C10 C 0.1914(4) 0.7138(4) 0.7677(3)
H7 H 0.2475 0.8042 0.7672
C11 C 0.0686(5) 0.6091(5) 0.6563(3)
H8 H 0.0439 0.6302 0.5833
C12 C -0.0148(4) 0.4762(4) 0.6546(3)
H9 H -0.0969 0.4063 0.5806
C13 C 0.0238(4) 0.4452(4) 0.7654(3)
C14 C -0.0603(4) 0.3101(4) 0.7722(4)
H10 H -0.1414 0.2364 0.7003
C15 C -0.0245(4) 0.2871(4) 0.8809(4)
H11 H -0.0817 0.1981 0.8832
C16 C 0.1006(4) 0.3981(3) 0.9934(3)
C17 C 0.1391(4) 0.3790(4) 1.1094(4)
H12 H 0.0825 0.2921 1.1153
C18 C 0.2594(4) 0.4883(4) 1.2119(3)
H13 H 0.2871 0.4769 1.2890
C19 C 0.3412(4) 0.6180(4) 1.2008(3)
H14 H 0.4236 0.6922 1.2720
C20 C 0.1881(3) 0.5322(3) 0.9908(3)
C21 C 0.1479(4) 0.5563(3) 0.8738(3)
N1 N 0.5244(3) 0.6901(3) 0.7429(2)
N2 N 0.3350(4) 0.4923(3) 0.5603(3)
N3 N 0.3688(3) 0.4680(3) 0.7551(2)
N4 N 0.2304(3) 0.6890(3) 0.8734(2)
N5 N 0.3072(3) 0.6407(3) 1.0937(2)
O1 O 0.5578(3) 0.9325(2) 0.9501(2)
O2 O 0.8069(3) 1.0707(3) 1.0042(3)
O3 O 0.3680(3) 0.8904(3) 0.5892(2)
H15 H 0.3281 0.9298 0.6119
O4 O 0.5906(3) 1.0653(3) 0.7466(2)
O5 O 0.3310(3) 0.1012(3) 0.7971(2)
O6 O 0.2284(3) 0.0185(3) 0.5955(2)
S1 S 0.57763(10) 0.66671(9) 0.96406(7)
S2 S 0.49678(13) 0.72178(10) 0.52847(9)
S3 S 0.14725(13) 0.24605(10) 0.55044(9)
Cd1A Cd 0.57965(3) 1.14348(2) 0.93365(2)
Cd1A_2 Cd 0.57965(3) 0.14348(2) 0.93365(2)
O1A O 0.4422(3) 1.0675(2) 1.0499(2)
O2A O 0.1931(3) 0.9293(3) 0.9958(3)
O4A O 0.4094(3) 0.9347(3) 1.2534(2)
O5A O 0.6690(3) 0.8988(3) 1.2029(2)
O7 O 0.9389(12) 0.8880(13) 0.7511(12)
H16 H 0.97(2) 0.876(19) 0.813(8)
H17 H 0.95(3) 0.85(2) 0.711(15)
loop_
_geom_bond_atom_site_label_1
_geom_bond_atom_site_label_2
_geom_bond_site_symmetry_1
_geom_bond_site_symmetry_2
Cd1 N4 1_555 1_555
C1 N1 1_555 1_555
C2 N1 1_555 1_555
C3 N2 1_555 1_555
C4 H1 1_555 1_555
H2 C4 1_555 1_555
C5 C4 1_555 1_555
C6 H3 1_555 1_555
H4 C6 1_555 1_555
C7 C6 1_555 1_555
C8 H5 1_555 1_555
H6 C8 1_555 1_555
C9 C8 1_555 1_555
C10 H7 1_555 1_555
C11 C10 1_555 1_555
H8 C11 1_555 1_555
C12 C11 1_555 1_555
H9 C12 1_555 1_555
C13 C12 1_555 1_555
C14 C13 1_555 1_555
H10 C14 1_555 1_555
C15 C14 1_555 1_555
H11 C15 1_555 1_555
C16 C15 1_555 1_555
C17 C16 1_555 1_555
H12 C17 1_555 1_555
C18 C17 1_555 1_555
H13 C18 1_555 1_555
C19 C18 1_555 1_555
H14 C19 1_555 1_555
C20 C16 1_555 1_555
C21 C13 1_555 1_555
N2 C2 1_555 1_555
N3 C1 1_555 1_555
N4 C10 1_555 1_555
N5 Cd1 1_555 1_555
O1 Cd1 1_555 1_555
O2 C5 1_555 1_555
O3 C7 1_555 1_555
H15 O3 1_555 1_555
O4 C7 1_555 1_555
O5 C9 1_555 1_555
O6 C9 1_555 1_555
S1 C1 1_555 1_555
S2 C2 1_555 1_555
S3 C3 1_555 1_555
O7 H16 1_555 1_555
H17 O7 1_555 1_555
Cd1A O1 1_555 1_555
Cd1A_2 O5 1_555 1_555
O1A Cd1 1_555 1_555
O2A Cd1 1_555 1_555
O4A Cd1 1_555 1_555
O5A Cd1 1_555 1_555
C3 N3 1_555 1_555
C4 S1 1_555 1_555
C5 O1 1_555 1_555
C6 S2 1_555 1_555
C8 S3 1_555 1_555
C19 N5 1_555 1_555
C20 C21 1_555 1_555
C20 N5 1_555 1_555
C21 N4 1_555 1_555
O2 Cd1A 1_555 1_555
O4 Cd1A 1_555 1_555
Cd1A O1A 1_555 1_555

#END
