
#######################################################################
#
#                 Cambridge Crystallographic Data Centre
#                                CCDC 
#
#######################################################################
#
# If this CIF has been generated from an entry in the Cambridge 
# Structural Database, then it will include bibliographic, chemical, 
# crystal, experimental, refinement or atomic coordinate data resulting 
# from the CCDC's data processing and validation procedures.
#
#######################################################################

data_ETUWUM
_symmetry_cell_setting           triclinic
_symmetry_space_group_name_H-M   'P -1'
_symmetry_Int_Tables_number      2
_space_group_name_Hall           '-P 1'
loop_
_symmetry_equiv_pos_site_id
_symmetry_equiv_pos_as_xyz
1 x,y,z
2 -x,-y,-z
_cell_length_a                   9.924(9)
_cell_length_b                   14.533(13)
_cell_length_c                   16.990(16)
_cell_angle_alpha                69.947(13)
_cell_angle_beta                 86.549(14)
_cell_angle_gamma                83.807(14)
_cell_volume                     2287.7
loop_
_atom_site_label
_atom_site_type_symbol
_atom_site_fract_x
_atom_site_fract_y
_atom_site_fract_z
C1 C -0.6079(4) 0.2853(3) 0.5362(2)
C2 C -0.6860(4) 0.2187(3) 0.6036(2)
C3 C -0.6914(4) 0.1218(3) 0.6125(2)
H3 H -0.6454 0.0968 0.5738
C4 C -0.7653(4) 0.0592(3) 0.6793(2)
H4 H -0.7677 -0.0060 0.6829
C5 C -0.8349(4) 0.0915(3) 0.7398(2)
C6 C -0.8252(4) 0.1903(3) 0.7333(2)
H5 H -0.8635 0.2131 0.7753
C7 C -0.7595(4) 0.2537(3) 0.6650(2)
H6 H -0.7629 0.3200 0.6589
C8 C -0.9124(4) 0.0297(3) 0.8111(2)
C9 C -0.4520(4) 0.4801(3) 0.6943(2)
C10 C -0.3845(4) 0.4060(3) 0.7710(2)
C11 C -0.3482(4) 0.3098(3) 0.7778(2)
H7 H -0.3649 0.2881 0.7341
C12 C -0.2865(4) 0.2447(3) 0.8495(2)
H8 H -0.2686 0.1786 0.8552
C13 C -0.2517(4) 0.2767(3) 0.9120(2)
C14 C -0.2938(4) 0.3748(3) 0.9053(2)
H9 H -0.2759 0.3962 0.9489
C15 C -0.3606(4) 0.4402(3) 0.8366(2)
H10 H -0.3887 0.5045 0.8337
C16 C -0.1706(4) 0.2055(3) 0.9853(2)
C17 C -0.2092(3) 0.4289(3) 0.4315(2)
C18 C -0.1036(4) 0.4680(3) 0.4670(2)
C19 C 0.0124(4) 0.4978(3) 0.4193(3)
H11 H 0.0208 0.4975 0.3645
C20 C -0.1171(3) 0.4715(3) 0.5462(2)
H12 H -0.1960 0.4535 0.5776
C21 C -0.3282(4) 0.0522(3) 0.5306(2)
H13 H -0.3563 0.0685 0.4740
H14 H -0.2683 -0.0072 0.5456
H15 H -0.4064 0.0428 0.5676
C22 C -0.2578(4) 0.1323(3) 0.5376(3)
C23 C -0.2436(4) 0.0538(3) 0.6912(3)
H16 H -0.2964 0.0073 0.6816
H17 H -0.1601 0.0206 0.7168
H18 H -0.2937 0.0837 0.7278
C24 C -0.1468(4) 0.2110(3) 0.6167(3)
H19 H -0.2042 0.2709 0.5939
H20 H -0.1284 0.2012 0.6740
H21 H -0.0631 0.2151 0.5848
C25 C -0.2922(4) 0.3396(3) 0.1957(3)
H22 H -0.2166 0.3416 0.2276
H23 H -0.2596 0.3266 0.1458
H24 H -0.3461 0.4018 0.1806
C26 C -0.3779(4) 0.2590(3) 0.2479(2)
C27 C -0.5451(4) 0.1357(3) 0.2601(3)
H25 H -0.5713 0.1530 0.3089
H26 H -0.6229 0.1448 0.2264
H27 H -0.5086 0.0681 0.2769
C28 C -0.3830(4) 0.1918(3) 0.1294(2)
H28 H -0.2909 0.1629 0.1369
H29 H -0.4358 0.1514 0.1114
H30 H -0.3853 0.2563 0.0877
C29 C -0.2530(4) -0.0724(3) 0.9387(2)
C30 C -0.3790(4) -0.0338(3) 0.9732(2)
C31 C -0.3923(4) -0.0379(3) 1.0530(3)
H31 H -0.3212 -0.0660 1.0894
C32 C -0.4892(4) 0.0008(3) 0.9186(3)
H32 H -0.4816 -0.0015 0.8645
C33 C -0.9785(4) -0.1317(3) 0.6519(3)
H33 H -0.8963 -0.1589 0.6322
H34 H -1.0349 -0.0959 0.6052
H35 H -0.9571 -0.0881 0.6799
C34 C -1.0555(4) -0.2154(3) 0.7130(2)
C35 C -1.1307(4) -0.2506(3) 0.5844(3)
H36 H -1.0619 -0.2960 0.5722
H37 H -1.2174 -0.2616 0.5688
H38 H -1.1111 -0.1845 0.5532
C36 C -1.2147(5) -0.3460(3) 0.7328(3)
H39 H -1.2841 -0.3569 0.7008
H40 H -1.1564 -0.4056 0.7551
H41 H -1.2557 -0.3266 0.7780
C37 C -1.3693(5) -0.3544(4) 0.9986(3)
H42 H -1.4274 -0.2952 0.9922
H43 H -1.3615 -0.3665 0.9463
H44 H -1.4072 -0.4087 1.0408
C38 C -1.2266(5) -0.3429(3) 1.0251(3)
C39 C -1.0383(4) -0.3542(3) 1.1284(3)
H45 H -1.0317 -0.2859 1.1195
H46 H -1.0189 -0.3924 1.1857
H47 H -0.9742 -0.3754 1.0921
C40 C -1.2821(5) -0.4090(4) 1.1795(3)
H48 H -1.3513 -0.4363 1.1597
H49 H -1.2364 -0.4594 1.2249
H50 H -1.3227 -0.3571 1.1986
Mn1 Mn -0.38729(5) 0.32301(4) 0.39955(3)
Mn2 Mn -0.5000 0.5000 0.5000
Mn3 Mn 0.0000 0.0000 1.0000
Mn4 Mn -1.04197(6) -0.17403(4) 0.88875(4)
N1 N -0.2148(3) 0.1284(2) 0.6129(2)
N2 N -0.4408(3) 0.1994(2) 0.2107(2)
N3 N -1.1331(4) -0.2662(3) 0.6771(2)
N4 N -1.1816(4) -0.3683(3) 1.1093(2)
O2 O -0.5369(3) 0.24896(19) 0.48794(16)
O3 O -0.6154(3) 0.37555(19) 0.52819(16)
O4 O -0.9342(3) -0.05421(19) 0.80667(16)
O5 O -0.9591(2) 0.06123(18) 0.86848(15)
O6 O -0.4543(3) 0.44909(18) 0.63088(15)
O7 O -0.4982(2) 0.56540(17) 0.69160(14)
O8 O -0.1522(3) 0.11690(18) 0.98847(17)
O9 O -0.1204(3) 0.24221(19) 1.03211(16)
O10 O -0.3222(2) 0.40802(18) 0.47478(15)
O11 O -0.1904(3) 0.41160(19) 0.36421(16)
O12 O -0.2320(3) 0.20776(19) 0.47336(17)
O13 O -0.3879(3) 0.2371(2) 0.31573(17)
O14 O -0.1432(3) -0.09305(19) 0.97827(15)
O15 O -0.2535(3) -0.0920(2) 0.86871(18)
O16 O -1.0527(3) -0.2349(2) 0.78988(17)
O17 O -1.1533(3) -0.2991(2) 0.96281(19)
C1A C -0.3921(4) 0.7147(3) 0.4638(2)
C2A C -0.3140(4) 0.7813(3) 0.3964(2)
C3A C -0.3086(4) 0.8782(3) 0.3875(2)
H3A H -0.3546 0.9032 0.4262
C4A C -0.2347(4) 0.9408(3) 0.3207(2)
H4A H -0.2323 1.0060 0.3171
C5A C -0.1651(4) 0.9085(3) 0.2602(2)
C6A C -0.1748(4) 0.8097(3) 0.2667(2)
H5A H -0.1365 0.7869 0.2247
C7A C -0.2405(4) 0.7463(3) 0.3350(2)
H6A H -0.2371 0.6800 0.3411
C8A C -0.0876(4) 0.9703(3) 0.1889(2)
C9A C -0.5480(4) 0.5199(3) 0.3057(2)
C10A C -0.6155(4) 0.5940(3) 0.2290(2)
C11A C -0.6518(4) 0.6902(3) 0.2222(2)
H7A H -0.6351 0.7119 0.2659
C12A C -0.7135(4) 0.7553(3) 0.1505(2)
H8A H -0.7314 0.8214 0.1448
C13A C -0.7483(4) 0.7233(3) 0.0880(2)
C14A C -0.7062(4) 0.6252(3) 0.0947(2)
H9A H -0.7241 0.6038 0.0511
C15A C -0.6394(4) 0.5598(3) 0.1634(2)
H10A H -0.6113 0.4955 0.1663
C16A C -0.8294(4) 0.7945(3) 0.0147(2)
C17A C 0.2092(3) 0.5711(3) 0.5685(2)
C18A C 0.1036(4) 0.5320(3) 0.5330(2)
C19A C -0.0124(4) 0.5022(3) 0.5807(3)
H11A H -0.0208 0.5025 0.6355
C20A C 0.1171(3) 0.5285(3) 0.4538(2)
H12A H 0.1960 0.5465 0.4224
C21A C -0.6718(4) 0.9478(3) 0.4694(2)
H13A H -0.6437 0.9315 0.5260
H14A H -0.7317 1.0072 0.4544
H15A H -0.5936 0.9572 0.4324
C22A C -0.7422(4) 0.8677(3) 0.4624(3)
C23A C -0.7564(4) 0.9462(3) 0.3088(3)
H16A H -0.7036 0.9927 0.3184
H17A H -0.8399 0.9794 0.2832
H18A H -0.7063 0.9163 0.2722
C24A C -0.8532(4) 0.7890(3) 0.3833(3)
H19A H -0.7958 0.7291 0.4061
H20A H -0.8716 0.7988 0.3260
H21A H -0.9369 0.7849 0.4152
C25A C -0.7078(4) 0.6604(3) 0.8043(3)
H22A H -0.7834 0.6584 0.7724
H23A H -0.7404 0.6734 0.8542
H24A H -0.6539 0.5982 0.8194
C26A C -0.6221(4) 0.7410(3) 0.7521(2)
C27A C -0.4549(4) 0.8643(3) 0.7399(3)
H25A H -0.4287 0.8470 0.6911
H26A H -0.3771 0.8552 0.7736
H27A H -0.4914 0.9319 0.7231
C28A C -0.6170(4) 0.8082(3) 0.8706(2)
H28A H -0.7091 0.8371 0.8631
H29A H -0.5642 0.8486 0.8886
H30A H -0.6147 0.7437 0.9123
C29A C -0.7470(4) 0.0724(3) 1.0613(2)
C30A C -0.6210(4) 0.0338(3) 1.0268(2)
C31A C -0.6077(4) 0.0379(3) 0.9470(3)
H31A H -0.6788 0.0660 0.9106
C32A C -0.5108(4) -0.0008(3) 1.0814(3)
H32A H -0.5184 0.0015 1.1355
C33A C -0.0215(4) 1.1317(3) 0.3481(3)
H33A H -0.1037 1.1589 0.3678
H34A H 0.0349 1.0959 0.3948
H35A H -0.0429 1.0881 0.3201
C34A C 0.0555(4) 1.2154(3) 0.2870(2)
C35A C 0.1307(4) 1.2506(3) 0.4156(3)
H36A H 0.0619 1.2960 0.4278
H37A H 0.2174 1.2616 0.4312
H38A H 0.1111 1.1845 0.4468
C36A C 0.2147(5) 1.3460(3) 0.2672(3)
H39A H 0.2841 1.3569 0.2992
H40A H 0.1564 1.4056 0.2449
H41A H 0.2557 1.3266 0.2220
C37A C 0.3693(5) 1.3544(4) 0.0014(3)
H42A H 0.4274 1.2952 0.0078
H43A H 0.3615 1.3665 0.0537
H44A H 0.4072 1.4087 -0.0408
C38A C 0.2266(5) 1.3429(3) -0.0251(3)
C39A C 0.0383(4) 1.3542(3) -0.1284(3)
H45A H 0.0317 1.2859 -0.1195
H46A H 0.0189 1.3924 -0.1857
H47A H -0.0258 1.3754 -0.0921
C40A C 0.2821(5) 1.4090(4) -0.1795(3)
H48A H 0.3513 1.4363 -0.1597
H49A H 0.2364 1.4594 -0.2249
H50A H 0.3227 1.3571 -0.1986
Mn1A Mn -0.61271(5) 0.67699(4) 0.60045(3)
Mn1A_2 Mn 0.38729(5) 0.67699(4) 0.60045(3)
Mn2_2 Mn 0.5000 0.5000 0.5000
Mn3_2 Mn -1.0000 0.0000 1.0000
Mn3_3 Mn 0.0000 1.0000 0.0000
Mn3_4 Mn -1.0000 1.0000 0.0000
Mn4A Mn 0.04197(6) 1.17403(4) 0.11125(4)
Mn4A_2 Mn 0.04197(6) 0.17403(4) 1.11125(4)
Mn4_2 Mn -0.04197(6) -0.17403(4) 0.88875(4)
Mn4A_3 Mn -0.95803(6) 0.17403(4) 1.11125(4)
Mn4_3 Mn -1.04197(6) 0.82597(4) -0.11125(4)
N1A N -0.7852(3) 0.8716(2) 0.3871(2)
N2A N -0.5592(3) 0.8006(2) 0.7893(2)
N3A N 0.1331(4) 1.2662(3) 0.3229(2)
N4A N 0.1816(4) 1.3683(3) -0.1093(2)
O2A O -0.4631(3) 0.75104(19) 0.51206(16)
O3A O -0.3846(3) 0.62445(19) 0.47181(16)
O4A O -0.0658(3) 1.05421(19) 0.19333(16)
O5A O -0.0409(2) 0.93877(18) 0.13152(15)
O5_2 O 0.0409(2) 0.06123(18) 0.86848(15)
O5A_2 O -0.0409(2) -0.06123(18) 1.13152(15)
O6A O -0.5457(3) 0.55091(18) 0.36912(15)
O7A O -0.5018(2) 0.43460(17) 0.30840(14)
O8A O -0.8478(3) 0.88310(18) 0.01153(17)
O8A_2 O 0.1522(3) -0.11690(18) 1.01153(17)
O9A O -0.8796(3) 0.75779(19) -0.03211(16)
O9A_2 O -0.8796(3) -0.24221(19) 0.96789(16)
O9_2 O -0.1204(3) 1.24221(19) 0.03211(16)
O10A O 0.3222(2) 0.59198(18) 0.52522(15)
O10A_2 O -0.6778(2) 0.59198(18) 0.52522(15)
O11A O 0.1904(3) 0.58840(19) 0.63579(16)
O11A_2 O -0.8096(3) 0.58840(19) 0.63579(16)
O12A O -0.7680(3) 0.79224(19) 0.52664(17)
O13A O -0.6121(3) 0.7629(2) 0.68427(17)
O14A O -0.8568(3) 0.09305(19) 1.02173(15)
O14A_2 O 0.1432(3) 0.09305(19) 1.02173(15)
O14_2 O -1.1432(3) -0.09305(19) 0.97827(15)
O14A_3 O 0.1432(3) 1.09305(19) 0.02173(15)
O15A O -0.7465(3) 0.0920(2) 1.13129(18)
O15_2 O -1.2535(3) -0.0920(2) 0.86871(18)
O15A_2 O 0.2535(3) 1.0920(2) 0.13129(18)
O16A O 0.0527(3) 1.2349(2) 0.21012(17)
O17A O 0.1533(3) 1.2991(2) 0.03719(19)
O1 O 0.9587(6) 1.4716(4) 0.0090(4)
H1 H 0.9436 1.4145 0.0420
H2 H 0.9335 1.5153 0.0310
O1A O 1.0413(6) 1.5284(4) -0.0090(4)
H1A H 1.0564 1.5855 -0.0420
H2A H 1.0665 1.4847 -0.0310
loop_
_geom_bond_atom_site_label_1
_geom_bond_atom_site_label_2
_geom_bond_site_symmetry_1
_geom_bond_site_symmetry_2
O1 H1 1_555 1_555
H2 O1 1_555 1_555
C1 C2 1_555 1_555
C2 C3 1_555 1_555
C3 H3 1_555 1_555
C4 C3 1_555 1_555
H4 C4 1_555 1_555
C5 C4 1_555 1_555
C6 C5 1_555 1_555
H5 C6 1_555 1_555
C7 C2 1_555 1_555
H6 C7 1_555 1_555
C8 C5 1_555 1_555
C9 C10 1_555 1_555
C10 C11 1_555 1_555
C11 H7 1_555 1_555
C12 C11 1_555 1_555
H8 C12 1_555 1_555
C13 C12 1_555 1_555
C14 C13 1_555 1_555
H9 C14 1_555 1_555
C15 C10 1_555 1_555
H10 C15 1_555 1_555
C16 C13 1_555 1_555
C17 C18 1_555 1_555
C18 C19 1_555 1_555
C19 H11 1_555 1_555
C20 C18 1_555 1_555
H12 C20 1_555 1_555
C21 H13 1_555 1_555
H14 C21 1_555 1_555
H15 C21 1_555 1_555
C22 C21 1_555 1_555
C23 H16 1_555 1_555
H17 C23 1_555 1_555
H18 C23 1_555 1_555
C24 H19 1_555 1_555
H20 C24 1_555 1_555
H21 C24 1_555 1_555
C25 H22 1_555 1_555
H23 C25 1_555 1_555
H24 C25 1_555 1_555
C26 C25 1_555 1_555
C27 H25 1_555 1_555
H26 C27 1_555 1_555
H27 C27 1_555 1_555
C28 H28 1_555 1_555
H29 C28 1_555 1_555
H30 C28 1_555 1_555
C29 C30 1_555 1_555
C30 C31 1_555 1_555
C31 H31 1_555 1_555
C32 C30 1_555 1_555
H32 C32 1_555 1_555
C33 H33 1_555 1_555
H34 C33 1_555 1_555
H35 C33 1_555 1_555
C34 C33 1_555 1_555
C35 H36 1_555 1_555
H37 C35 1_555 1_555
H38 C35 1_555 1_555
C36 H39 1_555 1_555
H40 C36 1_555 1_555
H41 C36 1_555 1_555
C37 H42 1_555 1_555
H43 C37 1_555 1_555
H44 C37 1_555 1_555
C38 C37 1_555 1_555
C39 H45 1_555 1_555
H46 C39 1_555 1_555
H47 C39 1_555 1_555
C40 H48 1_555 1_555
H49 C40 1_555 1_555
H50 C40 1_555 1_555
Mn1 O2 1_555 1_555
Mn2 O3 1_555 1_555
Mn3 O8 1_555 1_555
Mn4 O4 1_555 1_555
N1 C22 1_555 1_555
N2 C26 1_555 1_555
N3 C34 1_555 1_555
N4 C38 1_555 1_555
O2 C1 1_555 1_555
O3 C1 1_555 1_555
O4 C8 1_555 1_555
O5 C8 1_555 1_555
O6 C9 1_555 1_555
O7 C9 1_555 1_555
O8 C16 1_555 1_555
O9 C16 1_555 1_555
O10 C17 1_555 1_555
O11 C17 1_555 1_555
O12 C22 1_555 1_555
O13 C26 1_555 1_555
O14 C29 1_555 1_555
O15 C29 1_555 1_555
O16 C34 1_555 1_555
O17 C38 1_555 1_555
O1A O1 1_555 1_555
H1A O1A 1_555 1_555
H2A O1 1_555 1_555
C1A C2A 1_555 1_555
C2A C3A 1_555 1_555
C3A H3A 1_555 1_555
C4A C3A 1_555 1_555
H4A C4A 1_555 1_555
C5A C4A 1_555 1_555
C6A C5A 1_555 1_555
H5A C6A 1_555 1_555
C7A C2A 1_555 1_555
H6A C7A 1_555 1_555
C8A C5A 1_555 1_555
C9A C10A 1_555 1_555
C10A C11A 1_555 1_555
C11A H7A 1_555 1_555
C12A C11A 1_555 1_555
H8A C12A 1_555 1_555
C13A C12A 1_555 1_555
C14A C13A 1_555 1_555
H9A C14A 1_555 1_555
C15A C10A 1_555 1_555
H10A C15A 1_555 1_555
C16A C13A 1_555 1_555
C17A C18A 1_555 1_555
C18A C19A 1_555 1_555
C19A C20 1_555 1_555
H11A C19A 1_555 1_555
C20A C19 1_555 1_555
H12A C20A 1_555 1_555
C21A H13A 1_555 1_555
H14A C21A 1_555 1_555
H15A C21A 1_555 1_555
C22A C21A 1_555 1_555
C23A H16A 1_555 1_555
H17A C23A 1_555 1_555
H18A C23A 1_555 1_555
C24A H19A 1_555 1_555
H20A C24A 1_555 1_555
H21A C24A 1_555 1_555
C25A H22A 1_555 1_555
H23A C25A 1_555 1_555
H24A C25A 1_555 1_555
C26A C25A 1_555 1_555
C27A H25A 1_555 1_555
H26A C27A 1_555 1_555
H27A C27A 1_555 1_555
C28A H28A 1_555 1_555
H29A C28A 1_555 1_555
H30A C28A 1_555 1_555
C29A C30A 1_555 1_555
C30A C31A 1_555 1_555
C31A C32 1_555 1_555
H31A C31A 1_555 1_555
C32A C31 1_555 1_555
H32A C32A 1_555 1_555
C33A H33A 1_555 1_555
H34A C33A 1_555 1_555
H35A C33A 1_555 1_555
C34A C33A 1_555 1_555
C35A H36A 1_555 1_555
H37A C35A 1_555 1_555
H38A C35A 1_555 1_555
C36A H39A 1_555 1_555
H40A C36A 1_555 1_555
H41A C36A 1_555 1_555
C37A H42A 1_555 1_555
H43A C37A 1_555 1_555
H44A C37A 1_555 1_555
C38A C37A 1_555 1_555
C39A H45A 1_555 1_555
H46A C39A 1_555 1_555
H47A C39A 1_555 1_555
C40A H48A 1_555 1_555
H49A C40A 1_555 1_555
H50A C40A 1_555 1_555
Mn1A O7 1_555 1_555
Mn1A_2 O10A 1_555 1_555
Mn2_2 O10A 1_555 1_555
Mn3_2 O5 1_555 1_555
Mn3_3 O5A 1_555 1_555
Mn3_4 O8A 1_555 1_555
Mn4A O4A 1_555 1_555
Mn4A_2 O9 1_555 1_555
Mn4_2 O14 1_555 1_555
Mn4A_3 O14A 1_555 1_555
Mn4_3 O9A 1_555 1_555
N1A C22A 1_555 1_555
N2A C26A 1_555 1_555
N3A C34A 1_555 1_555
N4A C38A 1_555 1_555
O2A C1A 1_555 1_555
O3A Mn2 1_555 1_555
O4A C8A 1_555 1_555
O5A C8A 1_555 1_555
O5_2 Mn3 1_555 1_555
O5A_2 Mn3 1_555 1_555
O6A Mn2 1_555 1_555
O7A Mn1 1_555 1_555
O8A C16A 1_555 1_555
O8A_2 Mn3 1_555 1_555
O9A C16A 1_555 1_555
O9A_2 Mn4 1_555 1_555
O9_2 Mn4A 1_555 1_555
O10A C17A 1_555 1_555
O10A_2 Mn2 1_555 1_555
O11A C17A 1_555 1_555
O11A_2 Mn1A 1_555 1_555
O12A C22A 1_555 1_555
O13A C26A 1_555 1_555
O14A C29A 1_555 1_555
O14A_2 Mn3 1_555 1_555
O14_2 Mn4 1_555 1_555
O14A_3 Mn3_3 1_555 1_555
O15A C29A 1_555 1_555
O15_2 Mn4 1_555 1_555
O15A_2 Mn4A 1_555 1_555
O16A C34A 1_555 1_555
O17A C38A 1_555 1_555
H2 O1A 1_555 1_555
C6 C7 1_555 1_555
C14 C15 1_555 1_555
C23 N1 1_555 1_555
C24 N1 1_555 1_555
C27 N2 1_555 1_555
C28 N2 1_555 1_555
C35 N3 1_555 1_555
C36 N3 1_555 1_555
C39 N4 1_555 1_555
C40 N4 1_555 1_555
Mn1 O10 1_555 1_555
Mn1 O11 1_555 1_555
Mn1 O12 1_555 1_555
Mn1 O13 1_555 1_555
Mn2 O6 1_555 1_555
Mn2 O10 1_555 1_555
Mn3 O14 1_555 1_555
Mn4 O16 1_555 1_555
Mn4 O17 1_555 1_555
O15 Mn4_2 1_555 1_555
O1A H2A 1_555 1_555
C1A O3A 1_555 1_555
C6A C7A 1_555 1_555
C9A O6A 1_555 1_555
C9A O7A 1_555 1_555
C14A C15A 1_555 1_555
C18A C20A 1_555 1_555
C23A N1A 1_555 1_555
C24A N1A 1_555 1_555
C27A N2A 1_555 1_555
C28A N2A 1_555 1_555
C30A C32A 1_555 1_555
C35A N3A 1_555 1_555
C36A N3A 1_555 1_555
C39A N4A 1_555 1_555
C40A N4A 1_555 1_555
Mn1A O2A 1_555 1_555
Mn1A O10A_2 1_555 1_555
Mn1A O12A 1_555 1_555
Mn1A O13A 1_555 1_555
Mn1A_2 O11A 1_555 1_555
Mn3_2 O14A 1_555 1_555
Mn3_2 O14_2 1_555 1_555
Mn4A O14A_3 1_555 1_555
Mn4A O16A 1_555 1_555
Mn4A O17A 1_555 1_555
Mn4A_2 O14A_2 1_555 1_555
Mn4A_3 O15A 1_555 1_555

#END
