
#######################################################################
#
#                 Cambridge Crystallographic Data Centre
#                                CCDC 
#
#######################################################################
#
# If this CIF has been generated from an entry in the Cambridge 
# Structural Database, then it will include bibliographic, chemical, 
# crystal, experimental, refinement or atomic coordinate data resulting 
# from the CCDC's data processing and validation procedures.
#
#######################################################################

data_ETUXEX
_symmetry_cell_setting           orthorhombic
_symmetry_space_group_name_H-M   'P b c a'
_symmetry_Int_Tables_number      61
_space_group_name_Hall           '-P 2ac 2ab'
loop_
_symmetry_equiv_pos_site_id
_symmetry_equiv_pos_as_xyz
1 x,y,z
2 1/2-x,-y,1/2+z
3 1/2+x,1/2-y,-z
4 -x,1/2+y,1/2-z
5 -x,-y,-z
6 1/2+x,y,1/2-z
7 1/2-x,1/2+y,z
8 x,1/2-y,1/2+z
_cell_length_a                   12.2099(8)
_cell_length_b                   11.6922(8)
_cell_length_c                   23.2513(15)
_cell_angle_alpha                90
_cell_angle_beta                 90
_cell_angle_gamma                90
_cell_volume                     3319.37
loop_
_atom_site_label
_atom_site_type_symbol
_atom_site_fract_x
_atom_site_fract_y
_atom_site_fract_z
Zn1 Zn 0.21166(4) 0.05837(3) 0.378838(18)
O1 O 0.1506(2) 0.22624(19) 0.37472(10)
O2 O 0.19575(19) 0.4075(2) 0.38954(11)
O3 O 0.2708(3) 0.4531(3) 0.53194(15)
O4 O 0.3580(2) 0.53247(19) 0.45856(10)
N1 N 0.0847(2) -0.0270(2) 0.33197(12)
N2 N 0.2625(2) 0.0835(2) 0.29172(12)
N3 N 0.3382(2) 0.1532(2) 0.42019(11)
C1 C -0.0016(3) -0.0834(3) 0.35158(15)
H1 H -0.0132 -0.0853 0.3911
C2 C -0.0768(3) -0.1405(3) 0.31582(17)
H2 H -0.1351 -0.1809 0.3317
C3 C -0.0631(3) -0.1360(3) 0.25741(17)
H3 H -0.1124 -0.1727 0.2332
C4 C 0.0263(3) -0.0752(3) 0.23440(16)
C5 C 0.0465(3) -0.0641(3) 0.17420(17)
H4 H -0.0009 -0.0988 0.1483
C6 C 0.1321(3) -0.0049(4) 0.15423(15)
H5 H 0.1427 0.0009 0.1147
C7 C 0.2082(3) 0.0498(3) 0.19250(16)
C8 C 0.3005(3) 0.1110(3) 0.17423(17)
H6 H 0.3138 0.1208 0.1352
C9 C 0.3705(3) 0.1557(3) 0.21347(16)
H7 H 0.4322 0.1958 0.2015
C10 C 0.3491(3) 0.1410(3) 0.27237(16)
H8 H 0.3973 0.1726 0.2989
C11 C 0.1920(3) 0.0382(3) 0.25240(15)
C12 C 0.0994(3) -0.0230(3) 0.27382(14)
C13 C 0.3092(2) 0.2624(3) 0.43099(13)
C14 C 0.3641(3) 0.3299(3) 0.47056(14)
C15 C 0.4553(3) 0.2838(3) 0.49769(16)
H9 H 0.4938 0.3266 0.5247
C16 C 0.4885(3) 0.1736(3) 0.48438(18)
H10 H 0.5515 0.1428 0.5008
C17 C 0.4264(3) 0.1104(3) 0.44629(16)
H11 H 0.4467 0.0353 0.4386
C18 C 0.3260(3) 0.4482(3) 0.48823(15)
C19 C 0.2113(2) 0.3025(3) 0.39622(14)
Zn1F Zn 0.28834(4) 0.55837(3) 0.378838(18)
O2F O 0.30425(19) -0.0925(2) 0.38954(11)
O4F O 0.1420(2) 0.03247(19) 0.45856(10)
O5 O 0.2841(4) 0.6974(4) 0.57381(19)
H12 H 0.2747 0.6382 0.5532
H13 H 0.2737 0.7562 0.5531
loop_
_geom_bond_atom_site_label_1
_geom_bond_atom_site_label_2
_geom_bond_site_symmetry_1
_geom_bond_site_symmetry_2
Zn1 O1 1_555 1_555
O1 C19 1_555 1_555
O2 C19 1_555 1_555
O3 C18 1_555 1_555
O4 C18 1_555 1_555
N1 Zn1 1_555 1_555
N2 Zn1 1_555 1_555
N3 Zn1 1_555 1_555
C1 N1 1_555 1_555
H1 C1 1_555 1_555
C2 C1 1_555 1_555
H2 C2 1_555 1_555
C3 C2 1_555 1_555
H3 C3 1_555 1_555
C4 C3 1_555 1_555
C5 C4 1_555 1_555
H4 C5 1_555 1_555
C6 C5 1_555 1_555
H5 C6 1_555 1_555
C7 C6 1_555 1_555
C8 C7 1_555 1_555
H6 C8 1_555 1_555
C9 C8 1_555 1_555
H7 C9 1_555 1_555
C10 N2 1_555 1_555
H8 C10 1_555 1_555
C11 N2 1_555 1_555
C12 N1 1_555 1_555
C13 N3 1_555 1_555
C14 C13 1_555 1_555
C15 C14 1_555 1_555
H9 C15 1_555 1_555
C16 C15 1_555 1_555
H10 C16 1_555 1_555
C17 N3 1_555 1_555
H11 C17 1_555 1_555
C18 C14 1_555 1_555
C19 C13 1_555 1_555
O5 H12 1_555 1_555
H13 O5 1_555 1_555
Zn1F O2 1_555 1_555
O2F Zn1 1_555 1_555
O4F Zn1 1_555 1_555
O4 Zn1F 1_555 1_555
C4 C12 1_555 1_555
C7 C11 1_555 1_555
C9 C10 1_555 1_555
C11 C12 1_555 1_555
C16 C17 1_555 1_555

#END
