
#######################################################################
#
#                 Cambridge Crystallographic Data Centre
#                                CCDC 
#
#######################################################################
#
# If this CIF has been generated from an entry in the Cambridge 
# Structural Database, then it will include bibliographic, chemical, 
# crystal, experimental, refinement or atomic coordinate data resulting 
# from the CCDC's data processing and validation procedures.
#
#######################################################################

data_ETUXUM
_symmetry_cell_setting           monoclinic
_symmetry_space_group_name_H-M   'P 21/n'
_symmetry_Int_Tables_number      14
_space_group_name_Hall           '-P 2yn'
loop_
_symmetry_equiv_pos_site_id
_symmetry_equiv_pos_as_xyz
1 x,y,z
2 1/2+x,1/2-y,1/2+z
3 -x,-y,-z
4 1/2-x,1/2+y,1/2-z
_cell_length_a                   6.7712(4)
_cell_length_b                   9.4520(5)
_cell_length_c                   8.0295(4)
_cell_angle_alpha                90
_cell_angle_beta                 113.6010(10)
_cell_angle_gamma                90
_cell_volume                     470.914
loop_
_atom_site_label
_atom_site_type_symbol
_atom_site_fract_x
_atom_site_fract_y
_atom_site_fract_z
Se1 Se 0.19362(7) 0.90438(5) 0.42120(6)
Zn1 Zn 0.17355(8) 0.73175(5) 0.10871(8)
O1 O 0.4177(5) 0.8454(4) 0.3975(5)
O2 O 0.0135(6) 0.8013(4) 0.2574(5)
O3 O 0.1453(6) 1.0622(4) 0.3128(6)
N1 N 0.2833(6) 0.8616(4) -0.0369(5)
H1 H 0.3208 0.8072 -0.1115
H2 H 0.1725 0.9161 -0.1075
C1 C 0.4662(8) 0.9556(5) 0.0623(6)
H3 H 0.5878 0.8987 0.1393
H4 H 0.4270 1.0176 0.1404
C1B C 0.5338(8) 1.0444(5) -0.0623(6)
N1B N 0.7167(6) 1.1384(4) 0.0369(5)
H1B H 0.6792 1.1928 0.1115
H2B H 0.8275 1.0839 0.1075
H3B H 0.4122 1.1013 -0.1393
H4B H 0.5730 0.9824 -0.1404
Se1A Se -0.30638(7) 0.59562(5) -0.07880(6)
O1A O -0.0823(5) 0.6546(4) -0.1025(5)
O2A O -0.4865(6) 0.6987(4) -0.2426(5)
O3A O -0.3547(6) 0.4378(4) -0.1872(6)
Zn1A Zn -0.32645(8) 0.76825(5) -0.39129(8)
O3C O 0.3547(6) 0.5622(4) 0.1872(6)
Zn1A_2 Zn 0.67355(8) 0.76825(5) 0.60871(8)
Zn1C Zn 0.32645(8) 1.23175(5) 0.39129(8)
Zn1B Zn 0.82645(8) 1.26825(5) -0.10871(8)
Zn1B_2 Zn -0.17355(8) 0.26825(5) -0.10871(8)
O1_2 O -0.5823(5) 0.8454(4) -0.6025(5)
O3B O -0.1453(6) 0.9378(4) -0.3128(6)
N1A N -0.2167(6) 0.6384(4) -0.5369(5)
H1A H -0.1792 0.6928 -0.6115
H2A H -0.3275 0.5839 -0.6075
loop_
_geom_bond_atom_site_label_1
_geom_bond_atom_site_label_2
_geom_bond_site_symmetry_1
_geom_bond_site_symmetry_2
Se1 O1 1_555 1_555
Zn1 O1 1_555 1_555
O1 Zn1A_2 1_555 1_555
O2 Se1 1_555 1_555
O3 Se1 1_555 1_555
N1 Zn1 1_555 1_555
H1 N1 1_555 1_555
H2 N1 1_555 1_555
C1 N1 1_555 1_555
H3 C1 1_555 1_555
H4 C1 1_555 1_555
C1B C1 1_555 1_555
N1B C1B 1_555 1_555
H1B N1B 1_555 1_555
H2B N1B 1_555 1_555
H3B C1B 1_555 1_555
H4B C1B 1_555 1_555
Se1A O1A 1_555 1_555
O1A Zn1 1_555 1_555
O2A Se1A 1_555 1_555
O3A Se1A 1_555 1_555
Zn1A O1A 1_555 1_555
O3C Zn1 1_555 1_555
Zn1C O3 1_555 1_555
Zn1B N1B 1_555 1_555
Zn1B_2 O3A 1_555 1_555
O1_2 Zn1A 1_555 1_555
O3B Zn1A 1_555 1_555
N1A Zn1A 1_555 1_555
H1A N1A 1_555 1_555
H2A N1A 1_555 1_555
Zn1 O2 1_555 1_555
O2A Zn1A 1_555 1_555

#END
