
#######################################################################
#
#                 Cambridge Crystallographic Data Centre
#                                CCDC 
#
#######################################################################
#
# If this CIF has been generated from an entry in the Cambridge 
# Structural Database, then it will include bibliographic, chemical, 
# crystal, experimental, refinement or atomic coordinate data resulting 
# from the CCDC's data processing and validation procedures.
#
#######################################################################

data_ETUYOI
_symmetry_cell_setting           monoclinic
_symmetry_space_group_name_H-M   'P 21/n'
_symmetry_Int_Tables_number      14
_space_group_name_Hall           '-P 2yn'
loop_
_symmetry_equiv_pos_site_id
_symmetry_equiv_pos_as_xyz
1 x,y,z
2 1/2-x,1/2+y,1/2-z
3 -x,-y,-z
4 1/2+x,1/2-y,1/2+z
_cell_length_a                   6.2645(3)
_cell_length_b                   9.7356(7)
_cell_length_c                   17.0425(10)
_cell_angle_alpha                90
_cell_angle_beta                 91.0672(18)
_cell_angle_gamma                90
_cell_volume                     1039.22
loop_
_atom_site_label
_atom_site_type_symbol
_atom_site_fract_x
_atom_site_fract_y
_atom_site_fract_z
Pr1 Pr 0.11415(2) 0.319324(16) 0.566983(9)
O1 O 0.2224(4) 0.2466(3) 0.70094(14)
O2 O 0.3108(4) 0.2315(3) 0.82649(14)
O3 O 0.5035(3) 0.2913(2) 0.56851(14)
O4 O 0.7923(3) 0.2852(2) 0.64591(13)
O5 O 0.8717(3) 0.5316(2) 0.55742(13)
O6 O 0.7309(4) 0.7354(2) 0.57242(13)
O7 O 0.3381(3) 0.5013(2) 0.63152(13)
H1 H 0.297(6) 0.574(2) 0.652(2)
O8 O -0.1683(3) 0.2119(3) 0.47949(14)
H2 H -0.172(5) 0.219(4) 0.4305(6)
H3 H -0.289(3) 0.230(4) 0.4971(18)
O9 O 0.1834(4) 0.0691(3) 0.56804(16)
H4 H 0.147(6) -0.001(3) 0.543(2)
H5 H 0.300(4) 0.054(4) 0.591(2)
C1 C 0.3229(5) 0.2872(3) 0.76032(18)
C2 C 0.4742(5) 0.4089(3) 0.75574(17)
H8 H 0.6066 0.3849 0.7829
H9 H 0.4118 0.4855 0.7836
C3 C 0.6141(5) 0.3355(3) 0.62538(18)
C4 C 0.5269(4) 0.4564(3) 0.67268(17)
C5 C 0.6919(5) 0.5734(3) 0.67823(17)
H10 H 0.6285 0.6513 0.7046
H11 H 0.8134 0.5429 0.7097
C6 C 0.7682(4) 0.6185(3) 0.59874(17)
Pr1_2 Pr 1.11415(2) 0.319324(16) 0.566983(9)
Pr1B Pr 0.88585(2) 0.680676(16) 0.433017(9)
O4_2 O -0.2077(3) 0.2852(2) 0.64591(13)
O5_2 O -0.1283(3) 0.5316(2) 0.55742(13)
O5B O 0.1283(3) 0.4684(2) 0.44258(13)
O6B O 0.2691(4) 0.2646(2) 0.42758(13)
O10 O 0.5632(6) -0.0132(4) 0.6318(2)
H6 H 0.617(8) -0.092(2) 0.626(4)
H7 H 0.635(8) 0.042(4) 0.605(3)
loop_
_geom_bond_atom_site_label_1
_geom_bond_atom_site_label_2
_geom_bond_site_symmetry_1
_geom_bond_site_symmetry_2
Pr1 O1 1_555 1_555
O1 C1 1_555 1_555
O2 C1 1_555 1_555
O3 Pr1 1_555 1_555
O4 C3 1_555 1_555
O5 C6 1_555 1_555
O6 C6 1_555 1_555
O7 Pr1 1_555 1_555
H1 O7 1_555 1_555
O8 Pr1 1_555 1_555
H2 O8 1_555 1_555
H3 O8 1_555 1_555
O9 Pr1 1_555 1_555
H4 O9 1_555 1_555
H5 O9 1_555 1_555
O10 H6 1_555 1_555
H7 O10 1_555 1_555
C1 C2 1_555 1_555
C2 H8 1_555 1_555
H9 C2 1_555 1_555
C3 O3 1_555 1_555
C4 O7 1_555 1_555
C5 C4 1_555 1_555
H10 C5 1_555 1_555
H11 C5 1_555 1_555
C6 C5 1_555 1_555
Pr1_2 O4 1_555 1_555
Pr1B O5 1_555 1_555
O4_2 Pr1 1_555 1_555
O5_2 Pr1 1_555 1_555
O5B Pr1 1_555 1_555
O6B Pr1 1_555 1_555
O5 Pr1_2 1_555 1_555
O6 Pr1B 1_555 1_555
C2 C4 1_555 1_555
C3 C4 1_555 1_555

#END
