
#######################################################################
#
#                 Cambridge Crystallographic Data Centre
#                                CCDC 
#
#######################################################################
#
# If this CIF has been generated from an entry in the Cambridge 
# Structural Database, then it will include bibliographic, chemical, 
# crystal, experimental, refinement or atomic coordinate data resulting 
# from the CCDC's data processing and validation procedures.
#
#######################################################################

data_ETUZEY
_symmetry_cell_setting           monoclinic
_symmetry_space_group_name_H-M   'P 21/c'
_symmetry_Int_Tables_number      14
_space_group_name_Hall           '-P 2ybc'
loop_
_symmetry_equiv_pos_site_id
_symmetry_equiv_pos_as_xyz
1 x,y,z
2 x,1/2-y,1/2+z
3 -x,-y,-z
4 -x,1/2+y,1/2-z
_cell_length_a                   10.3845(7)
_cell_length_b                   10.1506(7)
_cell_length_c                   7.1563(5)
_cell_angle_alpha                90
_cell_angle_beta                 98.119(1)
_cell_angle_gamma                90
_cell_volume                     746.777
loop_
_atom_site_label
_atom_site_type_symbol
_atom_site_fract_x
_atom_site_fract_y
_atom_site_fract_z
Mn1 Mn 0.5000 0.5000 0.5000
Br1 Br 1.03581(4) 0.80174(4) 1.22512(6)
O1 O 0.5713(3) 0.4552(3) 0.7927(4)
O2 O 0.7004(3) 0.3799(2) 1.0460(4)
O3 O 0.3549(3) 0.6331(2) 0.5830(4)
H1 H 0.3343 0.6203 0.7068
H2 H 0.3428 0.7214 0.5400
N1 N 0.6529(3) 0.8409(3) 0.9916(4)
C1 C 0.6180(4) 0.7160(3) 0.9472(5)
H3 H 0.5334 0.6999 0.8856
C2 C 0.7012(4) 0.6095(4) 0.9882(5)
C3 C 0.8261(3) 0.6324(4) 1.0772(5)
H4 H 0.8835 0.5622 1.1124
C4 C 0.8643(4) 0.7620(4) 1.1131(5)
C5 C 0.7762(4) 0.8629(4) 1.0696(5)
H5 H 0.8035 0.9501 1.0955
C6 C 0.6533(3) 0.4708(3) 0.9377(5)
Br1B Br -0.03581(4) 0.19826(4) -0.22512(6)
O1B O 0.4287(3) 0.5448(3) 0.2073(4)
O2B O 0.2996(3) 0.6201(2) -0.0460(4)
N1B N 0.3471(3) 0.1591(3) 0.0084(4)
C1B C 0.3820(4) 0.2840(3) 0.0528(5)
H3B H 0.4666 0.3001 0.1144
C2B C 0.2988(4) 0.3905(4) 0.0118(5)
C3B C 0.1739(3) 0.3676(4) -0.0772(5)
H4B H 0.1165 0.4378 -0.1124
C4B C 0.1357(4) 0.2380(4) -0.1131(5)
C5B C 0.2238(4) 0.1371(4) -0.0696(5)
H5B H 0.1965 0.0499 -0.0955
C6B C 0.3467(3) 0.5292(3) 0.0623(5)
O3B O 0.6451(3) 0.3669(2) 0.4170(4)
H1B H 0.6657 0.3797 0.2932
H2B H 0.6572 0.2786 0.4600
N1A N 0.6529(3) 0.6591(3) 0.4916(4)
N1C N 0.3471(3) 0.3409(3) 0.5084(4)
Mn1A Mn 0.5000 1.0000 1.0000
Mn1A_2 Mn 0.5000 0.0000 0.0000
loop_
_geom_bond_atom_site_label_1
_geom_bond_atom_site_label_2
_geom_bond_site_symmetry_1
_geom_bond_site_symmetry_2
Mn1 O1 1_555 1_555
Br1 C4 1_555 1_555
O1 C6 1_555 1_555
O2 C6 1_555 1_555
O3 Mn1 1_555 1_555
H1 O3 1_555 1_555
H2 O3 1_555 1_555
N1 C1 1_555 1_555
C1 H3 1_555 1_555
C2 C1 1_555 1_555
C3 C2 1_555 1_555
H4 C3 1_555 1_555
C4 C3 1_555 1_555
C5 N1 1_555 1_555
H5 C5 1_555 1_555
C6 C2 1_555 1_555
Br1B C4B 1_555 1_555
O1B Mn1 1_555 1_555
O2B C6B 1_555 1_555
N1B C1B 1_555 1_555
C1B H3B 1_555 1_555
C2B C1B 1_555 1_555
C3B C2B 1_555 1_555
H4B C3B 1_555 1_555
C4B C3B 1_555 1_555
C5B N1B 1_555 1_555
H5B C5B 1_555 1_555
C6B O1B 1_555 1_555
O3B Mn1 1_555 1_555
H1B O3B 1_555 1_555
H2B O3B 1_555 1_555
N1A Mn1 1_555 1_555
N1C Mn1 1_555 1_555
Mn1A N1 1_555 1_555
Mn1A_2 N1B 1_555 1_555
C4 C5 1_555 1_555
C2B C6B 1_555 1_555
C4B C5B 1_555 1_555

#END
