
#######################################################################
#
#                 Cambridge Crystallographic Data Centre
#                                CCDC 
#
#######################################################################
#
# If this CIF has been generated from an entry in the Cambridge 
# Structural Database, then it will include bibliographic, chemical, 
# crystal, experimental, refinement or atomic coordinate data resulting 
# from the CCDC's data processing and validation procedures.
#
#######################################################################

data_EVAKIV
_symmetry_cell_setting           cubic
_symmetry_space_group_name_H-M   'I -4 3 m'
_symmetry_Int_Tables_number      217
_space_group_name_Hall           'I -4 2 3'
loop_
_symmetry_equiv_pos_site_id
_symmetry_equiv_pos_as_xyz
1 x,y,z
2 -x,-y,z
3 -x,y,-z
4 x,-y,-z
5 z,x,y
6 z,-x,-y
7 -z,-x,y
8 -z,x,-y
9 y,z,x
10 -y,z,-x
11 y,-z,-x
12 -y,-z,x
13 y,x,z
14 -y,-x,z
15 y,-x,-z
16 -y,x,-z
17 x,z,y
18 -x,z,-y
19 -x,-z,y
20 x,-z,-y
21 z,y,x
22 z,-y,-x
23 -z,y,-x
24 -z,-y,x
25 1/2+x,1/2+y,1/2+z
26 1/2-x,1/2-y,1/2+z
27 1/2-x,1/2+y,1/2-z
28 1/2+x,1/2-y,1/2-z
29 1/2+z,1/2+x,1/2+y
30 1/2+z,1/2-x,1/2-y
31 1/2-z,1/2-x,1/2+y
32 1/2-z,1/2+x,1/2-y
33 1/2+y,1/2+z,1/2+x
34 1/2-y,1/2+z,1/2-x
35 1/2+y,1/2-z,1/2-x
36 1/2-y,1/2-z,1/2+x
37 1/2+y,1/2+x,1/2+z
38 1/2-y,1/2-x,1/2+z
39 1/2+y,1/2-x,1/2-z
40 1/2-y,1/2+x,1/2-z
41 1/2+x,1/2+z,1/2+y
42 1/2-x,1/2+z,1/2-y
43 1/2-x,1/2-z,1/2+y
44 1/2+x,1/2-z,1/2-y
45 1/2+z,1/2+y,1/2+x
46 1/2+z,1/2-y,1/2-x
47 1/2-z,1/2+y,1/2-x
48 1/2-z,1/2-y,1/2+x
_cell_length_a                   23.7035(14)
_cell_length_b                   23.7035(14)
_cell_length_c                   23.7035(14)
_cell_angle_alpha                90
_cell_angle_beta                 90
_cell_angle_gamma                90
_cell_volume                     13318
loop_
_atom_site_label
_atom_site_type_symbol
_atom_site_fract_x
_atom_site_fract_y
_atom_site_fract_z
Cu1 Cu -0.2500 -0.5000 0.0000
N1 N -0.1997(2) -0.5365(2) 0.0588(3)
N2 N -0.2111(3) -0.5937(3) 0.0687(3)
C1 C -0.1826(3) -0.6197(3) 0.1083(3)
C2 C -0.1406(3) -0.5929(5) 0.1406(3)
C3 C -0.1290(3) -0.5371(4) 0.1290(3)
C4 C -0.1609(3) -0.5096(3) 0.0868(3)
C5 C -0.1497(3) -0.4491(3) 0.0744(3)
H1 H -0.1839(3) -0.4311(3) 0.0623(3)
H2 H -0.1226(3) -0.4460(3) 0.0445(3)
C6 C -0.1264(3) -0.4190(4) 0.1264(3)
H3 H -0.1550(3) -0.4192(4) 0.1550(3)
H4 H -0.1176(3) -0.3805(4) 0.1177(3)
C7 C -0.1961(4) -0.6808(3) 0.1212(4)
H5 H -0.2051(4) -0.7001(3) 0.0868(4)
H6 H -0.2290(4) -0.6819(3) 0.1449(4)
C8 C -0.1497(7) -0.7118(6) 0.1497(7)
H7 H -0.1218(7) -0.7214(6) 0.1219(7)
H8 H -0.1644(7) -0.7465(6) 0.1644(7)
N1C N -0.1997(2) -0.4635(2) -0.0588(3)
N1OA N -0.3003(2) -0.4412(3) 0.0365(2)
N1PA N -0.3003(2) -0.5588(3) -0.0365(2)
C1V C -0.1083(3) -0.6197(3) 0.1826(3)
C4V C -0.0868(3) -0.5096(3) 0.1609(3)
C5V C -0.0744(3) -0.4491(3) 0.1497(3)
C7V C -0.1212(4) -0.6808(3) 0.1961(4)
N2PA N -0.2889(3) -0.5687(3) -0.0937(3)
C4PA C -0.3391(3) -0.5868(3) -0.0096(3)
N2V N -0.0687(3) -0.5937(3) 0.2111(3)
N1V N -0.0588(3) -0.5365(2) 0.1997(2)
H1V H -0.0623(3) -0.4311(3) 0.1839(3)
H2V H -0.0445(3) -0.4460(3) 0.1226(3)
H5V H -0.0868(4) -0.7001(3) 0.2051(4)
H6V H -0.1449(4) -0.6819(3) 0.2290(4)
Cu1U Cu 0.0000 -0.5000 0.2500
C3BA C -0.3710(3) -0.6290(3) -0.0371(4)
C5PA C -0.3503(3) -0.5744(3) 0.0509(3)
C1PA C -0.3174(3) -0.6083(3) -0.1197(3)
C2BA C -0.3594(3) -0.6406(3) -0.0929(5)
C4BA C -0.4132(3) -0.6609(3) -0.0096(3)
C7PA C -0.3039(4) -0.6212(4) -0.1808(3)
H5PA H -0.2949(4) -0.5868(4) -0.2001(3)
H6PA H -0.2710(4) -0.6449(4) -0.1819(3)
C8BA C -0.3503(7) -0.6497(7) -0.2118(6)
N1BA N -0.4412(3) -0.6997(2) -0.0365(2)
C5BA C -0.4256(3) -0.6497(3) 0.0509(3)
H1BA H -0.4377(3) -0.6839(3) 0.0689(3)
H2BA H -0.4555(3) -0.6226(3) 0.0540(3)
C6BA C -0.3736(3) -0.6264(3) 0.0810(4)
Cu1M Cu -0.5000 -0.7500 0.0000
N2BA N -0.4313(3) -0.7111(3) -0.0937(3)
C7BA C -0.3788(4) -0.6961(4) -0.1808(3)
H7BA H -0.3781(7) -0.6218(7) -0.2214(6)
H8BA H -0.3356(7) -0.6644(7) -0.2465(6)
C1BA C -0.3917(3) -0.6826(3) -0.1197(3)
H5BA H -0.4132(4) -0.7051(4) -0.2001(3)
H6BA H -0.3551(4) -0.7290(4) -0.1819(3)
H1PA H -0.3161(3) -0.5623(3) 0.0689(3)
H2PA H -0.3774(3) -0.5445(3) 0.0540(3)
H3BA H -0.3450(3) -0.6550(3) 0.0808(4)
H4BA H -0.3823(3) -0.6176(3) 0.1195(4)
Cl1 Cl 0.0000 -0.5000 0.0000
O1 O -0.0351(3) -0.5342(4) 0.0351(3)
O1A O 0.0351(3) -0.4658(4) 0.0351(3)
O1B O 0.0351(3) -0.5342(4) -0.0351(3)
O1C O -0.0351(3) -0.4658(4) -0.0351(3)
Cl2 Cl -0.2763(3) -0.7237(3) 0.2763(3)
O2 O -0.2400(6) -0.7600(6) 0.2400(6)
O3 O -0.3104(5) -0.6896(5) 0.2407(7)
O3F O -0.2407(7) -0.6896(5) 0.3104(5)
O3I O -0.3104(5) -0.7593(7) 0.3104(5)
Cl3 Cl -0.3752(13) -0.3752(13) 0.3752(13)
O4 O -0.4089(12) -0.3357(19) 0.4089(12)
O5 O -0.3398(13) -0.3398(13) 0.3398(13)
O4G O -0.4089(12) -0.4089(12) 0.3357(19)
O4J O -0.3357(19) -0.4089(12) 0.4089(12)
C9 C -0.2642(5) -0.5542(7) 0.2642(5)
Cl4 Cl -0.3065(2) -0.5116(6) 0.3065(2)
Cl5 Cl -0.1942(2) -0.5414(2) 0.2781(2)
Cl5V Cl -0.2781(2) -0.5414(2) 0.1942(2)
C10? C 0.0000 -0.6596(11) 0.0000
Cl6? Cl -0.0380(12) -0.7075(19) -0.0380(12)
Cl7? Cl -0.0422(6) -0.6883(15) 0.0422(6)
Cl8? Cl -0.0776(4) -0.6802(5) -0.0033(6)
loop_
_geom_bond_atom_site_label_1
_geom_bond_atom_site_label_2
_geom_bond_site_symmetry_1
_geom_bond_site_symmetry_2
Cu1 N1 1_555 1_555
N1 N2 1_555 1_555
N2 C1 1_555 1_555
C1 C2 1_555 1_555
C2 C3 1_555 1_555
C3 C4 1_555 1_555
C4 N1 1_555 1_555
C5 C4 1_555 1_555
H1 C5 1_555 1_555
H2 C5 1_555 1_555
C6 C5 1_555 1_555
H3 C6 1_555 1_555
H4 C6 1_555 1_555
C7 C1 1_555 1_555
H5 C7 1_555 1_555
H6 C7 1_555 1_555
C8 C7 1_555 1_555
H7 C8 1_555 1_555
H8 C8 1_555 1_555
Cl1 O1 1_555 1_555
Cl2 O2 1_555 1_555
O3 Cl2 1_555 1_555
Cl3 O4 1_555 1_555
O5 Cl3 1_555 1_555
C9 Cl4 1_555 1_555
Cl5 C9 1_555 1_555
N1C Cu1 1_555 1_555
N1OA Cu1 1_555 1_555
N1PA Cu1 1_555 1_555
C1V C2 1_555 1_555
C4V C3 1_555 1_555
C5V C6 1_555 1_555
C7V C8 1_555 1_555
O1A Cl1 1_555 1_555
O1B Cl1 1_555 1_555
O1C Cl1 1_555 1_555
O3F Cl2 1_555 1_555
O3I Cl2 1_555 1_555
O4G Cl3 1_555 1_555
O4J Cl3 1_555 1_555
Cl5V C9 1_555 1_555
N2PA N1PA 1_555 1_555
C4PA N1PA 1_555 1_555
N2V C1V 1_555 1_555
N1V C4V 1_555 1_555
H1V C5V 1_555 1_555
H2V C5V 1_555 1_555
H5V C7V 1_555 1_555
H6V C7V 1_555 1_555
Cu1U N1V 1_555 1_555
C3BA C4PA 1_555 1_555
C5PA C4PA 1_555 1_555
C1PA N2PA 1_555 1_555
C2BA C3BA 1_555 1_555
C4BA C3BA 1_555 1_555
C7PA C1PA 1_555 1_555
H5PA C7PA 1_555 1_555
H6PA C7PA 1_555 1_555
C8BA C7PA 1_555 1_555
N1BA C4BA 1_555 1_555
C5BA C4BA 1_555 1_555
H1BA C5BA 1_555 1_555
H2BA C5BA 1_555 1_555
C6BA C5PA 1_555 1_555
Cu1M N1BA 1_555 1_555
N2BA N1BA 1_555 1_555
C7BA C8BA 1_555 1_555
H7BA C8BA 1_555 1_555
H8BA C8BA 1_555 1_555
C1BA C2BA 1_555 1_555
H5BA C7BA 1_555 1_555
H6BA C7BA 1_555 1_555
H1PA C5PA 1_555 1_555
H2PA C5PA 1_555 1_555
H3BA C6BA 1_555 1_555
H4BA C6BA 1_555 1_555
C1V C7V 1_555 1_555
C4V C5V 1_555 1_555
N2V N1V 1_555 1_555
C1PA C2BA 1_555 1_555
C5BA C6BA 1_555 1_555
N2BA C1BA 1_555 1_555
C7BA C1BA 1_555 1_555

#END
