
#######################################################################
#
#                 Cambridge Crystallographic Data Centre
#                                CCDC 
#
#######################################################################
#
# If this CIF has been generated from an entry in the Cambridge 
# Structural Database, then it will include bibliographic, chemical, 
# crystal, experimental, refinement or atomic coordinate data resulting 
# from the CCDC's data processing and validation procedures.
#
#######################################################################

data_EVAKOB
_symmetry_cell_setting           cubic
_symmetry_space_group_name_H-M   'I -4 3 m'
_symmetry_Int_Tables_number      217
_space_group_name_Hall           'I -4 2 3'
loop_
_symmetry_equiv_pos_site_id
_symmetry_equiv_pos_as_xyz
1 x,y,z
2 -x,-y,z
3 -x,y,-z
4 x,-y,-z
5 z,x,y
6 z,-x,-y
7 -z,-x,y
8 -z,x,-y
9 y,z,x
10 -y,z,-x
11 y,-z,-x
12 -y,-z,x
13 y,x,z
14 -y,-x,z
15 y,-x,-z
16 -y,x,-z
17 x,z,y
18 -x,z,-y
19 -x,-z,y
20 x,-z,-y
21 z,y,x
22 z,-y,-x
23 -z,y,-x
24 -z,-y,x
25 1/2+x,1/2+y,1/2+z
26 1/2-x,1/2-y,1/2+z
27 1/2-x,1/2+y,1/2-z
28 1/2+x,1/2-y,1/2-z
29 1/2+z,1/2+x,1/2+y
30 1/2+z,1/2-x,1/2-y
31 1/2-z,1/2-x,1/2+y
32 1/2-z,1/2+x,1/2-y
33 1/2+y,1/2+z,1/2+x
34 1/2-y,1/2+z,1/2-x
35 1/2+y,1/2-z,1/2-x
36 1/2-y,1/2-z,1/2+x
37 1/2+y,1/2+x,1/2+z
38 1/2-y,1/2-x,1/2+z
39 1/2+y,1/2-x,1/2-z
40 1/2-y,1/2+x,1/2-z
41 1/2+x,1/2+z,1/2+y
42 1/2-x,1/2+z,1/2-y
43 1/2-x,1/2-z,1/2+y
44 1/2+x,1/2-z,1/2-y
45 1/2+z,1/2+y,1/2+x
46 1/2+z,1/2-y,1/2-x
47 1/2-z,1/2+y,1/2-x
48 1/2-z,1/2-y,1/2+x
_cell_length_a                   23.5623(10)
_cell_length_b                   23.5623(10)
_cell_length_c                   23.5623(10)
_cell_angle_alpha                90
_cell_angle_beta                 90
_cell_angle_gamma                90
_cell_volume                     13081.4
loop_
_atom_site_label
_atom_site_type_symbol
_atom_site_fract_x
_atom_site_fract_y
_atom_site_fract_z
Cu1 Cu 0.2500 0.5000 0.0000
N1 N 0.2007(2) 0.5381(2) -0.0581(2)
N2 N 0.2108(2) 0.5961(2) -0.0676(2)
C1 C 0.1836(3) 0.6224(3) -0.1064(3)
C2 C 0.1388(3) 0.5953(4) -0.1388(3)
C3 C 0.1279(2) 0.5398(3) -0.1279(2)
C4 C 0.1613(2) 0.5107(2) -0.0863(2)
C5 C 0.1494(2) 0.4505(3) -0.0748(3)
H1 H 0.1213(2) 0.4478(3) -0.0454(3)
H2 H 0.1834(2) 0.4323(3) -0.0616(3)
C6 C 0.1279(3) 0.4207(4) -0.1279(3)
H3 H 0.1194(3) 0.3818(4) -0.1194(3)
H4 H 0.1567(3) 0.4215(4) -0.1567(3)
C7 C 0.1935(3) 0.6844(3) -0.1187(3)
H5 H 0.2256(3) 0.6868(3) -0.1436(3)
H6 H 0.2034(3) 0.7034(3) -0.0840(3)
C8 C 0.1464(4) 0.7151(6) -0.1464(4)
H7 H 0.1594(4) 0.7515(6) -0.1594(4)
H8 H 0.1179(4) 0.7217(6) -0.1179(4)
N1C N 0.2007(2) 0.4619(2) 0.0581(2)
N1OA N 0.2993(2) 0.4419(2) -0.0381(2)
N1PA N 0.2993(2) 0.5581(2) 0.0381(2)
C1V C 0.1064(3) 0.6224(3) -0.1836(3)
C4V C 0.0863(2) 0.5107(2) -0.1613(2)
C5V C 0.0748(3) 0.4505(3) -0.1494(2)
C7V C 0.1187(3) 0.6844(3) -0.1935(3)
N1V N 0.0581(2) 0.5381(2) -0.2007(2)
N2V N 0.0676(2) 0.5961(2) -0.2108(2)
Cu1U Cu 0.0000 0.5000 -0.2500
N2OA N 0.2892(2) 0.4324(2) -0.0961(2)
C4OA C 0.3387(2) 0.4137(2) -0.0107(2)
C1OA C 0.3164(3) 0.3936(3) -0.1224(3)
C3CA C 0.3721(2) 0.3721(2) -0.0398(3)
C5OA C 0.3506(2) 0.4252(3) 0.0495(3)
C2CA C 0.3612(3) 0.3612(3) -0.0953(4)
C7OA C 0.3065(3) 0.3813(3) -0.1844(3)
C4CA C 0.4137(2) 0.3387(2) -0.0107(2)
H5OA H 0.2744(3) 0.3564(3) -0.1868(3)
H6OA H 0.2966(3) 0.4160(3) -0.2034(3)
C8CA C 0.3536(4) 0.3536(4) -0.2151(6)
N1CA N 0.4419(2) 0.2993(2) -0.0381(2)
C5CA C 0.4252(3) 0.3506(2) 0.0495(3)
H1OA H 0.3787(2) 0.4546(3) 0.0522(3)
H2OA H 0.3166(2) 0.4384(3) 0.0677(3)
C6CA C 0.3721(3) 0.3721(3) 0.0793(4)
C1CA C 0.3936(3) 0.3164(3) -0.1224(3)
C7CA C 0.3813(3) 0.3065(3) -0.1844(3)
H7CA H 0.3406(4) 0.3406(4) -0.2515(6)
H8CA H 0.3821(4) 0.3821(4) -0.2217(6)
N2CA N 0.4324(2) 0.2892(2) -0.0961(2)
Cu1L Cu 0.5000 0.2500 0.0000
H1CA H 0.4546(3) 0.3787(2) 0.0522(3)
H2CA H 0.4384(3) 0.3166(2) 0.0677(3)
H3CA H 0.3806(3) 0.3806(3) 0.1182(4)
H4CA H 0.3433(3) 0.3433(3) 0.0785(4)
H5CA H 0.3564(3) 0.2744(3) -0.1868(3)
H6CA H 0.4160(3) 0.2966(3) -0.2034(3)
H1V H 0.0454(3) 0.4478(3) -0.1213(2)
H2V H 0.0616(3) 0.4323(3) -0.1834(2)
H5V H 0.1436(3) 0.6868(3) -0.2256(3)
H6V H 0.0840(3) 0.7034(3) -0.2034(3)
C9 C 0.2628(4) 0.5705(5) -0.2628(4)
Cl1 Cl 0.1962(3) 0.5327(3) -0.2734(3)
Cl2 Cl 0.3105(4) 0.5296(7) -0.3105(4)
Cl1V Cl 0.2734(3) 0.5327(3) -0.1962(3)
N3 N 0.2735(5) 0.7265(5) -0.2735(5)
O1 O 0.2956(4) 0.7044(4) -0.2325(6)
O1F O 0.2325(6) 0.7044(4) -0.2956(4)
O1I O 0.2956(4) 0.7675(6) -0.2956(4)
C10? C 0.0000 0.5000 0.0000
Cl3? Cl 0.1964(3) 0.5546(3) -0.2849(3)
Cl4? Cl 0.3123(4) 0.5655(7) -0.3123(4)
Cl5? Cl 0.0371(4) 0.5306(6) -0.0371(4)
loop_
_geom_bond_atom_site_label_1
_geom_bond_atom_site_label_2
_geom_bond_site_symmetry_1
_geom_bond_site_symmetry_2
Cu1 N1 1_555 1_555
N1 N2 1_555 1_555
N2 C1 1_555 1_555
C1 C2 1_555 1_555
C2 C3 1_555 1_555
C3 C4 1_555 1_555
C4 N1 1_555 1_555
C5 C4 1_555 1_555
H1 C5 1_555 1_555
H2 C5 1_555 1_555
C6 C5 1_555 1_555
H3 C6 1_555 1_555
H4 C6 1_555 1_555
C7 C1 1_555 1_555
H5 C7 1_555 1_555
H6 C7 1_555 1_555
C8 C7 1_555 1_555
H7 C8 1_555 1_555
H8 C8 1_555 1_555
C9 Cl1 1_555 1_555
N3 O1 1_555 1_555
Cl2 C9 1_555 1_555
N1C Cu1 1_555 1_555
N1OA Cu1 1_555 1_555
N1PA Cu1 1_555 1_555
C1V C2 1_555 1_555
C4V C3 1_555 1_555
C5V C6 1_555 1_555
C7V C8 1_555 1_555
Cl1V C9 1_555 1_555
O1F N3 1_555 1_555
O1I N3 1_555 1_555
N1V C4V 1_555 1_555
N2V C1V 1_555 1_555
Cu1U N1V 1_555 1_555
N2OA N1OA 1_555 1_555
C4OA N1OA 1_555 1_555
C1OA N2OA 1_555 1_555
C3CA C4OA 1_555 1_555
C5OA C4OA 1_555 1_555
C2CA C1OA 1_555 1_555
C7OA C1OA 1_555 1_555
C4CA C3CA 1_555 1_555
H5OA C7OA 1_555 1_555
H6OA C7OA 1_555 1_555
C8CA C7OA 1_555 1_555
N1CA C4CA 1_555 1_555
C5CA C4CA 1_555 1_555
H1OA C5OA 1_555 1_555
H2OA C5OA 1_555 1_555
C6CA C5OA 1_555 1_555
C1CA C2CA 1_555 1_555
C7CA C8CA 1_555 1_555
H7CA C8CA 1_555 1_555
H8CA C8CA 1_555 1_555
N2CA N1CA 1_555 1_555
Cu1L N1CA 1_555 1_555
H1CA C5CA 1_555 1_555
H2CA C5CA 1_555 1_555
H3CA C6CA 1_555 1_555
H4CA C6CA 1_555 1_555
H5CA C7CA 1_555 1_555
H6CA C7CA 1_555 1_555
H1V C5V 1_555 1_555
H2V C5V 1_555 1_555
H5V C7V 1_555 1_555
H6V C7V 1_555 1_555
C1V C7V 1_555 1_555
C4V C5V 1_555 1_555
N1V N2V 1_555 1_555
C3CA C2CA 1_555 1_555
C5CA C6CA 1_555 1_555
C1CA N2CA 1_555 1_555
C1CA C7CA 1_555 1_555

#END
