
#######################################################################
#
#                 Cambridge Crystallographic Data Centre
#                                CCDC 
#
#######################################################################
#
# If this CIF has been generated from an entry in the Cambridge 
# Structural Database, then it will include bibliographic, chemical, 
# crystal, experimental, refinement or atomic coordinate data resulting 
# from the CCDC's data processing and validation procedures.
#
#######################################################################

data_EVALAO
_symmetry_cell_setting           tetragonal
_symmetry_space_group_name_H-M   'P 4/n'
_symmetry_Int_Tables_number      85
_space_group_name_Hall           '-P 4a'
loop_
_symmetry_equiv_pos_site_id
_symmetry_equiv_pos_as_xyz
1 x,y,z
2 1/2-y,x,z
3 y,1/2-x,z
4 1/2-x,1/2-y,z
5 -x,-y,-z
6 1/2+y,-x,-z
7 -y,1/2+x,-z
8 1/2+x,1/2+y,-z
_cell_length_a                   12.2179(11)
_cell_length_b                   12.2179(11)
_cell_length_c                   11.7783(14)
_cell_angle_alpha                90
_cell_angle_beta                 90
_cell_angle_gamma                90
_cell_volume                     1758.23
loop_
_atom_site_label
_atom_site_type_symbol
_atom_site_fract_x
_atom_site_fract_y
_atom_site_fract_z
Cu1 Cu 0.2500 0.2500 0.07485(5)
N1 N 0.1494(2) 0.1239(2) 0.0521(2)
N2 N 0.1793(2) 0.0818(2) -0.0520(2)
C1 C 0.0571(2) 0.0985(2) 0.1039(2)
C2 C -0.0143(2) 0.0215(2) 0.0520(2)
C3 C 0.1144(2) 0.0119(2) -0.1030(2)
C4 C 0.1473(2) -0.0345(2) -0.2159(2)
H1 H 0.1964(2) -0.0946(2) -0.2032(2)
H2 H 0.1862(2) 0.0206(2) -0.2577(2)
C5 C 0.0480(2) -0.0741(2) -0.2862(2)
C6 C 0.0243(2) 0.1507(2) 0.2133(2)
H3 H -0.0156(2) 0.2167(2) 0.1973(2)
H4 H 0.0890(2) 0.1703(2) 0.2549(2)
C7 C 0.0918(3) -0.1397(3) -0.3875(3)
H5 H 0.1332(3) -0.0923(3) -0.4364(3)
H6 H 0.1381(3) -0.1976(3) -0.3606(3)
H7 H 0.0325(3) -0.1715(3) -0.4296(3)
C8 C -0.0196(3) 0.0235(3) -0.3275(3)
H8 H 0.0160(3) 0.0590(3) -0.3902(3)
H9 H -0.0914(3) 0.0000(3) -0.3500(3)
H10 H -0.0272(3) 0.0741(3) -0.2655(3)
N1A N 0.3761(2) 0.1494(2) 0.0521(2)
N1B N 0.1239(2) 0.3506(2) 0.0521(2)
N1C N 0.3506(2) 0.3761(2) 0.0521(2)
C2D C 0.0143(2) -0.0215(2) -0.0520(2)
C3D C -0.1144(2) -0.0119(2) 0.1030(2)
C6D C -0.0243(2) -0.1507(2) -0.2133(2)
C5D C -0.0480(2) 0.0741(2) 0.2862(2)
N2D N -0.1793(2) -0.0818(2) 0.0520(2)
C4D C -0.1473(2) 0.0345(2) 0.2159(2)
C1D C -0.0571(2) -0.0985(2) -0.1039(2)
H3D H 0.0156(2) -0.2167(2) -0.1973(2)
H4D H -0.0890(2) -0.1703(2) -0.2549(2)
H1D H -0.1964(2) 0.0946(2) 0.2032(2)
H2D H -0.1862(2) -0.0206(2) 0.2577(2)
N1D N -0.1494(2) -0.1239(2) -0.0521(2)
C7D C -0.0918(3) 0.1397(3) 0.3875(3)
C8D C 0.0196(3) -0.0235(3) 0.3275(3)
Cu1G Cu -0.2500 -0.2500 -0.07485(5)
H5D H -0.1332(3) 0.0923(3) 0.4364(3)
H6D H -0.1381(3) 0.1976(3) 0.3606(3)
H7D H -0.0325(3) 0.1715(3) 0.4296(3)
H8D H -0.0160(3) -0.0590(3) 0.3902(3)
H9D H 0.0914(3) 0.0000(3) 0.3500(3)
H10D H 0.0272(3) -0.0741(3) 0.2655(3)
N2C N 0.3207(2) 0.4182(2) -0.0520(2)
C1C C 0.4429(2) 0.4015(2) 0.1039(2)
C2C C 0.5143(2) 0.4785(2) 0.0520(2)
C6C C 0.4757(2) 0.3493(2) 0.2133(2)
C3C C 0.3856(2) 0.4881(2) -0.1030(2)
C5G C 0.5480(2) 0.4259(2) 0.2862(2)
H3C H 0.5156(2) 0.2833(2) 0.1973(2)
H4C H 0.4110(2) 0.3297(2) 0.2549(2)
C2G C 0.4857(2) 0.5215(2) -0.0520(2)
C3G C 0.6144(2) 0.5119(2) 0.1030(2)
C4C C 0.3527(2) 0.5345(2) -0.2159(2)
H1C H 0.3036(2) 0.5946(2) -0.2032(2)
H2C H 0.3138(2) 0.4794(2) -0.2577(2)
C5C C 0.4520(2) 0.5741(2) -0.2862(2)
C1G C 0.5571(2) 0.5985(2) -0.1039(2)
N2G N 0.6793(2) 0.5818(2) 0.0520(2)
C4G C 0.6473(2) 0.4655(2) 0.2159(2)
C7G C 0.5918(3) 0.3603(3) 0.3875(3)
C8G C 0.4804(3) 0.5235(3) 0.3275(3)
C6G C 0.5243(2) 0.6507(2) -0.2133(2)
C7C C 0.4082(3) 0.6397(3) -0.3875(3)
C8C C 0.5196(3) 0.4765(3) -0.3275(3)
N1G N 0.6494(2) 0.6239(2) -0.0521(2)
H8G H 0.5160(3) 0.5590(3) 0.3902(3)
H9G H 0.4086(3) 0.5000(3) 0.3500(3)
H10G H 0.4728(3) 0.5741(3) 0.2655(3)
H5G H 0.6332(3) 0.4077(3) 0.4364(3)
H6G H 0.6381(3) 0.3024(3) 0.3606(3)
H7G H 0.5325(3) 0.3285(3) 0.4296(3)
Cu1G_2 Cu 0.7500 0.7500 -0.07485(5)
H5C H 0.3668(3) 0.5923(3) -0.4364(3)
H6C H 0.3619(3) 0.6976(3) -0.3606(3)
H7C H 0.4675(3) 0.6715(3) -0.4296(3)
H8C H 0.4840(3) 0.4410(3) -0.3902(3)
H9C H 0.5914(3) 0.5000(3) -0.3500(3)
H10C H 0.5272(3) 0.4259(3) -0.2655(3)
H3G H 0.4844(2) 0.7167(2) -0.1973(2)
H4G H 0.5890(2) 0.6703(2) -0.2549(2)
H1G H 0.6964(2) 0.4054(2) 0.2032(2)
H2G H 0.6862(2) 0.5206(2) 0.2577(2)
Cl1 Cl 0.7500 0.2500 0.0000
O1 O 0.7954(3) 0.1656(2) -0.0700(2)
O1E O 0.6656(2) 0.2046(3) 0.0700(2)
O1F O 0.8344(2) 0.2954(3) 0.0700(2)
O1C O 0.7046(3) 0.3344(2) -0.0700(2)
Cl2 Cl 0.2500 0.2500 0.4786(2)
O2 O 0.2165(9) 0.1466(6) 0.5144(7)
O2A O 0.3534(6) 0.2165(9) 0.5144(7)
O2B O 0.1466(6) 0.2835(9) 0.5144(7)
O2C O 0.2835(9) 0.3534(6) 0.5144(7)
O3? O 0.2500 0.2500 0.3551(6)
loop_
_geom_bond_atom_site_label_1
_geom_bond_atom_site_label_2
_geom_bond_site_symmetry_1
_geom_bond_site_symmetry_2
Cu1 N1 1_555 1_555
N1 N2 1_555 1_555
N2 C3 1_555 1_555
C1 N1 1_555 1_555
C2 C1 1_555 1_555
C3 C4 1_555 1_555
C4 H1 1_555 1_555
H2 C4 1_555 1_555
C5 C4 1_555 1_555
C6 C1 1_555 1_555
H3 C6 1_555 1_555
H4 C6 1_555 1_555
C7 C5 1_555 1_555
H5 C7 1_555 1_555
H6 C7 1_555 1_555
H7 C7 1_555 1_555
C8 C5 1_555 1_555
H8 C8 1_555 1_555
H9 C8 1_555 1_555
H10 C8 1_555 1_555
Cl1 O1 1_555 1_555
Cl2 O2 1_555 1_555
N1A Cu1 1_555 1_555
N1B Cu1 1_555 1_555
N1C Cu1 1_555 1_555
C2D C2 1_555 1_555
C3D C2 1_555 1_555
C6D C5 1_555 1_555
C5D C6 1_555 1_555
N2D C3D 1_555 1_555
C4D C3D 1_555 1_555
C1D C2D 1_555 1_555
H3D C6D 1_555 1_555
H4D C6D 1_555 1_555
H1D C4D 1_555 1_555
H2D C4D 1_555 1_555
N1D N2D 1_555 1_555
C7D C5D 1_555 1_555
C8D C5D 1_555 1_555
Cu1G N1D 1_555 1_555
H5D C7D 1_555 1_555
H6D C7D 1_555 1_555
H7D C7D 1_555 1_555
H8D C8D 1_555 1_555
H9D C8D 1_555 1_555
H10D C8D 1_555 1_555
N2C N1C 1_555 1_555
C1C N1C 1_555 1_555
C2C C1C 1_555 1_555
C6C C1C 1_555 1_555
C3C N2C 1_555 1_555
C5G C6C 1_555 1_555
H3C C6C 1_555 1_555
H4C C6C 1_555 1_555
C2G C2C 1_555 1_555
C3G C2C 1_555 1_555
C4C C3C 1_555 1_555
H1C C4C 1_555 1_555
H2C C4C 1_555 1_555
C5C C4C 1_555 1_555
C1G C2G 1_555 1_555
N2G C3G 1_555 1_555
C4G C5G 1_555 1_555
C7G C5G 1_555 1_555
C8G C5G 1_555 1_555
C6G C5C 1_555 1_555
C7C C5C 1_555 1_555
C8C C5C 1_555 1_555
N1G C1G 1_555 1_555
H8G C8G 1_555 1_555
H9G C8G 1_555 1_555
H10G C8G 1_555 1_555
H5G C7G 1_555 1_555
H6G C7G 1_555 1_555
H7G C7G 1_555 1_555
Cu1G_2 N1G 1_555 1_555
H5C C7C 1_555 1_555
H6C C7C 1_555 1_555
H7C C7C 1_555 1_555
H8C C8C 1_555 1_555
H9C C8C 1_555 1_555
H10C C8C 1_555 1_555
H3G C6G 1_555 1_555
H4G C6G 1_555 1_555
H1G C4G 1_555 1_555
H2G C4G 1_555 1_555
O1E Cl1 1_555 1_555
O1F Cl1 1_555 1_555
O1C Cl1 1_555 1_555
O2A Cl2 1_555 1_555
O2B Cl2 1_555 1_555
O2C Cl2 1_555 1_555
C3 C2D 1_555 1_555
C6D C1D 1_555 1_555
C5D C4D 1_555 1_555
C1D N1D 1_555 1_555
C3C C2G 1_555 1_555
C3G C4G 1_555 1_555
C1G C6G 1_555 1_555
N2G N1G 1_555 1_555

#END
