
#######################################################################
#
#                 Cambridge Crystallographic Data Centre
#                                CCDC 
#
#######################################################################
#
# If this CIF has been generated from an entry in the Cambridge 
# Structural Database, then it will include bibliographic, chemical, 
# crystal, experimental, refinement or atomic coordinate data resulting 
# from the CCDC's data processing and validation procedures.
#
#######################################################################

data_EVATAW
_symmetry_cell_setting           monoclinic
_symmetry_space_group_name_H-M   'P 21/n'
_symmetry_Int_Tables_number      14
_space_group_name_Hall           '-P 2yn'
loop_
_symmetry_equiv_pos_site_id
_symmetry_equiv_pos_as_xyz
1 x,y,z
2 1/2-x,1/2+y,1/2-z
3 -x,-y,-z
4 1/2+x,1/2-y,1/2+z
_cell_length_a                   8.2996(2)
_cell_length_b                   15.8156(5)
_cell_length_c                   15.38370(10)
_cell_angle_alpha                90
_cell_angle_beta                 103.536(2)
_cell_angle_gamma                90
_cell_volume                     1963.22
loop_
_atom_site_label
_atom_site_type_symbol
_atom_site_fract_x
_atom_site_fract_y
_atom_site_fract_z
Cl1 Cl 0.3596(3) 0.4657(2) 0.6505(2)
O3 O 0.3708(17) 0.5401(9) 0.5965(10)
O4 O 0.3196(11) 0.4956(5) 0.7273(5)
O5 O 0.2371(11) 0.4144(8) 0.6058(8)
O6 O 0.5123(9) 0.4283(4) 0.6628(6)
Cu1 Cu 0.0204(1) 0.5022(1) 0.7782(1)
N1 N 0.1194(6) 0.5913(3) 0.8673(3)
N2 N 0.4336(7) 0.9086(3) 1.1853(3)
N3 N -0.0536(6) 0.4023(3) 0.6966(3)
N4 N -0.1331(8) 0.2485(4) 0.6127(4)
O1 O 0.1215(6) 0.4141(2) 0.8620(3)
O2 O 0.1401(6) 0.2741(3) 0.8785(3)
O7 O -0.2233(11) 0.4868(8) 0.8252(5)
C1 C 0.0307(9) 0.6583(4) 0.8789(5)
C2 C 0.0888(9) 0.7206(4) 0.9406(5)
C3 C 0.2448(8) 0.7127(3) 0.9978(4)
C4 C 0.3117(8) 0.7785(3) 1.0650(4)
C5 C 0.2053(9) 0.8346(4) 1.0952(4)
C6 C 0.2696(8) 0.8979(4) 1.1538(4)
C7 C 0.5370(9) 0.8549(4) 1.1590(4)
C8 C 0.4783(8) 0.7900(4) 1.0998(4)
C9 C 0.3352(8) 0.6422(4) 0.9864(4)
C10 C 0.2722(8) 0.5835(4) 0.9215(4)
C11 C -0.0056(8) 0.3301(4) 0.7398(4)
C12 C -0.0457(9) 0.2531(4) 0.6962(5)
C13 C -0.1780(9) 0.3204(5) 0.5719(5)
C14 C -0.1386(8) 0.3987(4) 0.6126(4)
C15 C 0.0943(8) 0.3376(4) 0.8348(4)
H1 H -0.0763 0.6635 0.8435
H2 H 0.0240 0.7679 0.9440
H3 H 0.0911 0.8286 1.0755
H4 H 0.1972 0.9348 1.1724
H5 H 0.6507 0.8614 1.1808
H6 H 0.5534 0.7533 1.0832
H7 H 0.4403 0.6343 1.0231
H8 H 0.3366 0.5370 0.9148
H9 H -0.0097 0.2033 0.7268
H10 H -0.2391 0.3190 0.5130
H11 H -0.1720 0.4481 0.5808
N2C N -0.0664(7) 0.5914(3) 0.6853(3)
Cu1C Cu 0.5204(1) 0.9978(1) 1.2782(1)
O8 O -0.2924(7) 0.5817(3) 0.9588(3)
H12? H -0.2830(60) 0.4580(30) 0.8080(40)
H13? H -0.220(20) 0.5170(80) 0.815(10)
loop_
_geom_bond_atom_site_label_1
_geom_bond_atom_site_label_2
_geom_bond_site_symmetry_1
_geom_bond_site_symmetry_2
Cl1 O3 1_555 1_555
Cu1 N1 1_555 1_555
N1 C1 1_555 1_555
N2 C6 1_555 1_555
N3 Cu1 1_555 1_555
N4 C12 1_555 1_555
O1 Cu1 1_555 1_555
O2 C15 1_555 1_555
O4 Cl1 1_555 1_555
O5 Cl1 1_555 1_555
O6 Cl1 1_555 1_555
O7 Cu1 1_555 1_555
C1 C2 1_555 1_555
C2 C3 1_555 1_555
C3 C4 1_555 1_555
C4 C5 1_555 1_555
C5 C6 1_555 1_555
C6 H4 1_555 1_555
C7 N2 1_555 1_555
C8 C4 1_555 1_555
C9 C3 1_555 1_555
C10 N1 1_555 1_555
C11 N3 1_555 1_555
C12 C11 1_555 1_555
C13 N4 1_555 1_555
C14 N3 1_555 1_555
C15 O1 1_555 1_555
H1 C1 1_555 1_555
H2 C2 1_555 1_555
H3 C5 1_555 1_555
H5 C7 1_555 1_555
H6 C8 1_555 1_555
H7 C9 1_555 1_555
H8 C10 1_555 1_555
H9 C12 1_555 1_555
H10 C13 1_555 1_555
H11 C14 1_555 1_555
N2C Cu1 1_555 1_555
Cu1C N2 1_555 1_555
C7 C8 1_555 1_555
C9 C10 1_555 1_555
C11 C15 1_555 1_555
C13 C14 1_555 1_555

#END
