
#######################################################################
#
#                 Cambridge Crystallographic Data Centre
#                                CCDC 
#
#######################################################################
#
# If this CIF has been generated from an entry in the Cambridge 
# Structural Database, then it will include bibliographic, chemical, 
# crystal, experimental, refinement or atomic coordinate data resulting 
# from the CCDC's data processing and validation procedures.
#
#######################################################################

data_EVAWUT
_symmetry_cell_setting           orthorhombic
_symmetry_space_group_name_H-M   'P 21 21 21'
_symmetry_Int_Tables_number      19
_space_group_name_Hall           'P 2ac 2ab'
loop_
_symmetry_equiv_pos_site_id
_symmetry_equiv_pos_as_xyz
1 x,y,z
2 1/2-x,-y,1/2+z
3 1/2+x,1/2-y,-z
4 -x,1/2+y,1/2-z
_cell_length_a                   7.3740(3)
_cell_length_b                   13.0591(5)
_cell_length_c                   6.4223(2)
_cell_angle_alpha                90
_cell_angle_beta                 90
_cell_angle_gamma                90
_cell_volume                     618.453
loop_
_atom_site_label
_atom_site_type_symbol
_atom_site_fract_x
_atom_site_fract_y
_atom_site_fract_z
K1 K 0.4155(2) 0.0773(1) 0.2278(4)
O1 O 0.4422(5) 0.1592(2) 0.6201(6)
O2 O 0.5916(6) 0.5054(3) 0.6604(7)
C1 C 0.4883(6) 0.4269(1) 0.7292(6)
C2 C 0.5093(6) 0.3304(1) 0.6412(6)
C3 C 0.2766(7) 0.3588(1) 0.9787(6)
C4 C 0.3723(6) 0.4414(1) 0.8976(6)
C5 C 0.4033(5) 0.2495(1) 0.7120(5)
C6 C 0.2881(6) 0.2640(1) 0.8809(6)
K1A K 0.0845(2) -0.0773(1) -0.2722(4)
K1A_2 K 0.0845(2) -0.0773(1) 0.7278(4)
O2B O 0.0916(6) -0.0054(3) 0.3396(7)
O2C O 0.4084(6) 0.0054(3) -0.1604(7)
C1B C -0.0117(6) 0.0731(1) 0.2708(6)
C2B C 0.0093(6) 0.1696(1) 0.3588(6)
C3B C 0.7766(7) 0.1412(1) 0.0213(6)
C4C C 0.6277(6) -0.0586(1) 0.6024(6)
C6_2 C 0.2881(6) 0.2640(1) -0.1191(6)
K1B K 0.9155(2) 0.4227(1) 0.7722(4)
K1C K 0.5845(2) 0.5773(1) 0.2722(4)
K1B_2 K -0.0845(2) 0.4227(1) 0.7722(4)
K1C_2 K 0.5845(2) 0.5773(1) 1.2722(4)
K1_2 K 0.4155(2) 0.0773(1) 1.2278(4)
loop_
_geom_bond_atom_site_label_1
_geom_bond_atom_site_label_2
_geom_bond_site_symmetry_1
_geom_bond_site_symmetry_2
K1 O1 1_555 1_555
O1 C5 1_555 1_555
O2 C1 1_555 1_555
C1 C2 1_555 1_555
C2 C5 1_555 1_555
C3 C4 1_555 1_555
C4 C1 1_555 1_555
C5 C6 1_555 1_555
C6 C3 1_555 1_555
K1A K1 1_555 1_555
K1A_2 K1 1_555 1_555
O2B K1 1_555 1_555
O2C K1 1_555 1_555
C1B K1 1_555 1_555
C2B K1 1_555 1_555
C3B K1 1_555 1_555
C4C K1 1_555 1_555
C6_2 K1 1_555 1_555
K1B O2 1_555 1_555
K1C O2 1_555 1_555
K1B_2 C3 1_555 1_555
K1C_2 C4 1_555 1_555
K1_2 C6 1_555 1_555
C1 K1B 1_555 1_555
C2 K1B 1_555 1_555
K1A O2C 1_555 1_555
K1A_2 K1_2 1_555 1_555
K1A_2 O2B 1_555 1_555
O2B C1B 1_555 1_555
C1B C2B 1_555 1_555
K1B K1C 1_555 1_555
K1B K1C_2 1_555 1_555

#END
