
#######################################################################
#
#                 Cambridge Crystallographic Data Centre
#                                CCDC 
#
#######################################################################
#
# If this CIF has been generated from an entry in the Cambridge 
# Structural Database, then it will include bibliographic, chemical, 
# crystal, experimental, refinement or atomic coordinate data resulting 
# from the CCDC's data processing and validation procedures.
#
#######################################################################

data_EVEGAN
_symmetry_cell_setting           triclinic
_symmetry_space_group_name_H-M   'P -1'
_symmetry_Int_Tables_number      2
_space_group_name_Hall           '-P 1'
loop_
_symmetry_equiv_pos_site_id
_symmetry_equiv_pos_as_xyz
1 x,y,z
2 -x,-y,-z
_cell_length_a                   9.304(4)
_cell_length_b                   12.170(4)
_cell_length_c                   16.243(6)
_cell_angle_alpha                104.048(6)
_cell_angle_beta                 90.555(5)
_cell_angle_gamma                107.490(5)
_cell_volume                     1694.9
loop_
_atom_site_label
_atom_site_type_symbol
_atom_site_fract_x
_atom_site_fract_y
_atom_site_fract_z
Yb1 Yb 0.93895(3) 0.81803(2) 0.220620(15)
Mn1 Mn 0.34422(10) 0.55686(9) 0.27556(6)
Mn2 Mn 1.5000 1.0000 0.0000
O1 O 1.1235(4) 0.8313(4) 0.1226(3)
O2 O 1.2734(5) 0.9284(4) 0.0390(3)
O3 O 0.8092(4) 0.9529(4) 0.2830(3)
O4 O 0.7695(6) 1.1300(4) 0.3066(3)
O5 O 1.1544(4) 0.9508(4) 0.3104(2)
O6 O 1.2967(5) 1.0198(5) 0.4347(3)
O7 O 0.7118(4) 0.6923(4) 0.2554(2)
O8 O 0.5656(4) 0.6115(4) 0.3478(3)
O9 O 1.0729(4) 0.6865(4) 0.2461(3)
O10 O 1.1246(4) 0.5135(4) 0.2082(3)
O11 O 0.7545(4) 0.7918(4) 0.1066(3)
O12 O 0.6156(4) 0.6823(4) -0.0157(2)
O13 O 0.3002(6) 0.7066(5) 0.3675(3)
O14 O 0.2522(6) 0.4373(5) 0.3565(4)
O15 O 0.4127(7) 0.4193(6) 0.1882(3)
O16 O 0.4358(5) 0.6788(4) 0.1937(3)
O17 O 1.4788(5) 0.8225(4) -0.0780(3)
O18 O 1.4069(5) 1.0458(4) -0.1065(3)
N1 N 1.0037(5) 1.0015(4) 0.1744(3)
N2 N 0.9340(5) 0.8136(4) 0.3711(3)
N3 N 0.8708(5) 0.6234(4) 0.1168(3)
C1 C 1.1731(6) 0.9181(6) 0.0896(4)
C2 C 1.1013(6) 1.0169(6) 0.1150(4)
C3 C 1.1359(8) 1.1157(7) 0.0839(5)
H1 H 1.2032 1.1246 0.0423
C4 C 1.0683(9) 1.2022(7) 0.1160(6)
H2 H 1.0908 1.2706 0.0963
C5 C 0.9682(8) 1.1872(6) 0.1767(5)
H3 H 0.9223 1.2449 0.1988
C6 C 0.9371(6) 1.0845(6) 0.2043(4)
C7 C 0.8287(7) 1.0545(6) 0.2697(4)
C8 C 1.1799(6) 0.9567(5) 0.3889(4)
C9 C 1.0558(6) 0.8778(5) 0.4265(4)
C10 C 1.0616(7) 0.8676(7) 0.5095(4)
H4 H 1.1477 0.9103 0.5468
C11 C 0.9388(8) 0.7936(7) 0.5359(4)
H5 H 0.9404 0.7872 0.5918
C12 C 0.8134(7) 0.7290(6) 0.4800(4)
H6 H 0.7293 0.6790 0.4975
C13 C 0.8145(6) 0.7399(5) 0.3972(4)
C14 C 0.6871(6) 0.6748(5) 0.3284(4)
C15 C 1.0535(6) 0.5827(6) 0.1994(4)
C16 C 0.9317(6) 0.5401(5) 0.1262(4)
C17 C 0.8870(7) 0.4266(6) 0.0719(4)
H7 H 0.9309 0.3701 0.0798
C18 C 0.7774(7) 0.3982(6) 0.0063(4)
H8 H 0.7446 0.3217 -0.0299
C19 C 0.7163(6) 0.4836(5) -0.0055(4)
H9 H 0.6443 0.4670 -0.0507
C20 C 0.7650(6) 0.5947(5) 0.0516(3)
C21 C 0.7055(6) 0.6972(5) 0.0464(4)
O1A O 1.8765(4) 1.1687(4) -0.1226(3)
O2A O 1.7266(5) 1.0716(4) -0.0390(3)
O3A O 2.1908(4) 1.0471(4) -0.2830(3)
O4A O 2.2305(6) 0.8700(4) -0.3066(3)
N1A N 1.9963(5) 0.9985(4) -0.1744(3)
C1A C 1.8269(6) 1.0819(6) -0.0896(4)
C2A C 1.8987(6) 0.9831(6) -0.1150(4)
C3A C 1.8641(8) 0.8843(7) -0.0839(5)
H1A H 1.7968 0.8754 -0.0423
C4A C 1.9317(9) 0.7978(7) -0.1160(6)
H2A H 1.9092 0.7294 -0.0963
C5A C 2.0318(8) 0.8128(6) -0.1767(5)
H3A H 2.0777 0.7551 -0.1988
C6A C 2.0629(6) 0.9155(6) -0.2043(4)
C7A C 2.1713(7) 0.9455(6) -0.2697(4)
O17A O 1.5212(5) 1.1775(4) 0.0780(3)
O18A O 1.5931(5) 0.9542(4) 0.1065(3)
Yb1A Yb 2.06105(3) 1.18197(2) -0.220620(15)
O5A O 1.8456(4) 1.0492(4) -0.3104(2)
O6A O 1.7033(5) 0.9802(5) -0.4347(3)
O7A O 2.2882(4) 1.3077(4) -0.2554(2)
O8A O 2.4344(4) 1.3885(4) -0.3478(3)
N2A N 2.0660(5) 1.1864(4) -0.3711(3)
C8A C 1.8201(6) 1.0433(5) -0.3889(4)
C9A C 1.9442(6) 1.1222(5) -0.4265(4)
C10A C 1.9384(7) 1.1324(7) -0.5095(4)
H4A H 1.8523 1.0897 -0.5468
C11A C 2.0612(8) 1.2064(7) -0.5359(4)
H5A H 2.0596 1.2128 -0.5918
C12A C 2.1866(7) 1.2710(6) -0.4800(4)
H6A H 2.2707 1.3210 -0.4975
C13A C 2.1855(6) 1.2601(5) -0.3972(4)
C14A C 2.3129(6) 1.3252(5) -0.3284(4)
O9A O 1.9271(4) 1.3135(4) -0.2461(3)
O10A O 1.8754(4) 1.4865(4) -0.2082(3)
O11A O 2.2455(4) 1.2082(4) -0.1066(3)
O12A O 2.3844(4) 1.3177(4) 0.0157(2)
N3A N 2.1292(5) 1.3766(4) -0.1168(3)
C15A C 1.9465(6) 1.4173(6) -0.1994(4)
C16A C 2.0683(6) 1.4599(5) -0.1262(4)
C17A C 2.1130(7) 1.5734(6) -0.0719(4)
H7A H 2.0691 1.6299 -0.0798
C18A C 2.2226(7) 1.6018(6) -0.0063(4)
H8A H 2.2554 1.6783 0.0299
C19A C 2.2837(6) 1.5164(5) 0.0055(4)
H9A H 2.3557 1.5330 0.0507
C20A C 2.2350(6) 1.4053(5) -0.0516(3)
C21A C 2.2945(6) 1.3028(5) -0.0464(4)
Mn1A Mn 2.65578(10) 1.44314(9) -0.27556(6)
O13A O 2.6998(6) 1.2934(5) -0.3675(3)
O14A O 2.7478(6) 1.5627(5) -0.3565(4)
O15A O 2.5873(7) 1.5807(6) -0.1882(3)
O16A O 2.5642(5) 1.3212(4) -0.1937(3)
O10_2 O 0.1246(4) 0.5135(4) 0.2082(3)
Mn1_2 Mn 1.34422(10) 0.55686(9) 0.27556(6)
Mn1A_2 Mn 1.65578(10) 1.44314(9) -0.27556(6)
O10A_2 O 2.8754(4) 1.4865(4) -0.2082(3)
O19 O 0.4234(5) 0.9145(5) 0.2408(3)
O20 O 0.5774(5) 0.9032(5) 0.3930(3)
O21 O 0.6230(14) 0.2985(12) 0.2439(5)
O22 O 0.3230(12) 0.2137(9) 0.3057(8)
O23 O 0.5522(9) 0.1924(7) 0.4078(7)
O24 O 0.625(2) 0.4380(10) 0.4712(8)
O25 O 0.9042(16) 0.4030(19) 0.3562(10)
loop_
_geom_bond_atom_site_label_1
_geom_bond_atom_site_label_2
_geom_bond_site_symmetry_1
_geom_bond_site_symmetry_2
Yb1 O1 1_555 1_555
Mn1 O8 1_555 1_555
Mn2 O2 1_555 1_555
O1 C1 1_555 1_555
O2 C1 1_555 1_555
O3 Yb1 1_555 1_555
O4 C7 1_555 1_555
O5 Yb1 1_555 1_555
O6 C8 1_555 1_555
O7 Yb1 1_555 1_555
O8 C14 1_555 1_555
O9 Yb1 1_555 1_555
O10 C15 1_555 1_555
O11 Yb1 1_555 1_555
O12 C21 1_555 1_555
O13 Mn1 1_555 1_555
O14 Mn1 1_555 1_555
O15 Mn1 1_555 1_555
O16 Mn1 1_555 1_555
O17 Mn2 1_555 1_555
O18 Mn2 1_555 1_555
N1 Yb1 1_555 1_555
N2 Yb1 1_555 1_555
N3 Yb1 1_555 1_555
C1 C2 1_555 1_555
C2 N1 1_555 1_555
C3 C2 1_555 1_555
H1 C3 1_555 1_555
C4 C3 1_555 1_555
H2 C4 1_555 1_555
C5 C4 1_555 1_555
H3 C5 1_555 1_555
C6 N1 1_555 1_555
C7 O3 1_555 1_555
C8 O5 1_555 1_555
C9 N2 1_555 1_555
C10 C9 1_555 1_555
H4 C10 1_555 1_555
C11 C10 1_555 1_555
H5 C11 1_555 1_555
C12 C11 1_555 1_555
H6 C12 1_555 1_555
C13 N2 1_555 1_555
C14 O7 1_555 1_555
C15 O9 1_555 1_555
C16 N3 1_555 1_555
C17 C16 1_555 1_555
H7 C17 1_555 1_555
C18 C17 1_555 1_555
H8 C18 1_555 1_555
C19 C18 1_555 1_555
H9 C19 1_555 1_555
C20 N3 1_555 1_555
C21 O11 1_555 1_555
O1A C1A 1_555 1_555
O2A Mn2 1_555 1_555
O3A C7A 1_555 1_555
O4A C7A 1_555 1_555
N1A C2A 1_555 1_555
C1A O2A 1_555 1_555
C2A C1A 1_555 1_555
C3A C2A 1_555 1_555
H1A C3A 1_555 1_555
C4A C3A 1_555 1_555
H2A C4A 1_555 1_555
C5A C4A 1_555 1_555
H3A C5A 1_555 1_555
C6A N1A 1_555 1_555
C7A C6A 1_555 1_555
O17A Mn2 1_555 1_555
O18A Mn2 1_555 1_555
Yb1A O1A 1_555 1_555
O5A Yb1A 1_555 1_555
O6A C8A 1_555 1_555
O7A Yb1A 1_555 1_555
O8A C14A 1_555 1_555
N2A Yb1A 1_555 1_555
C8A O5A 1_555 1_555
C9A N2A 1_555 1_555
C10A C9A 1_555 1_555
H4A C10A 1_555 1_555
C11A C10A 1_555 1_555
H5A C11A 1_555 1_555
C12A C11A 1_555 1_555
H6A C12A 1_555 1_555
C13A N2A 1_555 1_555
C14A O7A 1_555 1_555
O9A Yb1A 1_555 1_555
O10A C15A 1_555 1_555
O11A Yb1A 1_555 1_555
O12A C21A 1_555 1_555
N3A Yb1A 1_555 1_555
C15A O9A 1_555 1_555
C16A N3A 1_555 1_555
C17A C16A 1_555 1_555
H7A C17A 1_555 1_555
C18A C17A 1_555 1_555
H8A C18A 1_555 1_555
C19A C18A 1_555 1_555
H9A C19A 1_555 1_555
C20A N3A 1_555 1_555
C21A O11A 1_555 1_555
Mn1A O8A 1_555 1_555
O13A Mn1A 1_555 1_555
O14A Mn1A 1_555 1_555
O15A Mn1A 1_555 1_555
O16A Mn1A 1_555 1_555
O10_2 Mn1 1_555 1_555
Mn1_2 O10 1_555 1_555
Mn1A_2 O10A 1_555 1_555
O10A_2 Mn1A 1_555 1_555
C5 C6 1_555 1_555
C6 C7 1_555 1_555
C8 C9 1_555 1_555
C12 C13 1_555 1_555
C13 C14 1_555 1_555
C15 C16 1_555 1_555
C19 C20 1_555 1_555
C20 C21 1_555 1_555
O3A Yb1A 1_555 1_555
N1A Yb1A 1_555 1_555
C5A C6A 1_555 1_555
C8A C9A 1_555 1_555
C12A C13A 1_555 1_555
C13A C14A 1_555 1_555
C15A C16A 1_555 1_555
C19A C20A 1_555 1_555
C20A C21A 1_555 1_555

#END
