
#######################################################################
#
#                 Cambridge Crystallographic Data Centre
#                                CCDC 
#
#######################################################################
#
# If this CIF has been generated from an entry in the Cambridge 
# Structural Database, then it will include bibliographic, chemical, 
# crystal, experimental, refinement or atomic coordinate data resulting 
# from the CCDC's data processing and validation procedures.
#
#######################################################################

data_EVEGUH
_symmetry_cell_setting           cubic
_symmetry_space_group_name_H-M   'P n -3 m'
_symmetry_Int_Tables_number      224
_space_group_name_Hall           '-P 4bc 2bc 3'
loop_
_symmetry_equiv_pos_site_id
_symmetry_equiv_pos_as_xyz
1 x,y,z
2 z,x,y
3 y,z,x
4 1/2+y,1/2+x,-z
5 1/2+y,-x,1/2+z
6 -y,1/2+x,1/2+z
7 1/2+x,1/2+z,-y
8 -x,1/2+z,1/2+y
9 1/2+x,-z,1/2+y
10 1/2+z,1/2+y,-x
11 1/2+z,-y,1/2+x
12 -z,1/2+y,1/2+x
13 1/2+x,1/2+y,-z
14 1/2+x,-y,1/2+z
15 -x,1/2+y,1/2+z
16 -z,1/2+x,1/2+y
17 1/2+z,1/2+x,-y
18 1/2+z,-x,1/2+y
19 1/2+y,-z,1/2+x
20 -y,1/2+z,1/2+x
21 1/2+y,1/2+z,-x
22 y,x,z
23 x,z,y
24 z,y,x
25 -x,-y,-z
26 -z,-x,-y
27 -y,-z,-x
28 1/2-y,1/2-x,z
29 1/2-y,x,1/2-z
30 y,1/2-x,1/2-z
31 1/2-x,1/2-z,y
32 x,1/2-z,1/2-y
33 1/2-x,z,1/2-y
34 1/2-z,1/2-y,x
35 1/2-z,y,1/2-x
36 z,1/2-y,1/2-x
37 1/2-x,1/2-y,z
38 1/2-x,y,1/2-z
39 x,1/2-y,1/2-z
40 z,1/2-x,1/2-y
41 1/2-z,1/2-x,y
42 1/2-z,x,1/2-y
43 1/2-y,z,1/2-x
44 y,1/2-z,1/2-x
45 1/2-y,1/2-z,x
46 -y,-x,-z
47 -x,-z,-y
48 -z,-y,-x
_cell_length_a                   15.6475(5)
_cell_length_b                   15.6475(5)
_cell_length_c                   15.6475(5)
_cell_angle_alpha                90
_cell_angle_beta                 90
_cell_angle_gamma                90
_cell_volume                     3831.2
loop_
_atom_site_label
_atom_site_type_symbol
_atom_site_fract_x
_atom_site_fract_y
_atom_site_fract_z
O2 O 0.4203(4) 0.5797(4) 0.0000
Li1 Li 0.5272(14) 0.5272(14) -0.0272(14)
O2Q O 0.5000 0.5797(4) 0.0797(4)
O2QA O 0.5797(4) 0.5000 0.0797(4)
O2X O 0.5797(4) 0.4203(4) 0.0000
O2OA O 0.5000 0.4203(4) -0.0797(4)
O2S O 0.4203(4) 0.5000 -0.0797(4)
Li1Q Li 0.4728(14) 0.4728(14) 0.0272(14)
N2 N 0.6312(16) 0.6312(16) -0.1312(16)
O4 O 0.5756(14) 0.5756(14) -0.147(3)
O5 O 0.6773(16) 0.6773(16) -0.1773(16)
O4EA O 0.5756(14) 0.647(3) -0.0756(14)
O4HA O 0.647(3) 0.5756(14) -0.0756(14)
Cu1 Cu 0.5000 0.7500 0.2500
N1 N 0.41159(19) 0.82247(19) 0.1952(2)
C1 C 0.3721(2) 0.7829(4) 0.1279(2)
C2 C 0.3269(3) 0.9471(4) 0.1731(3)
O1 O 0.3962(2) 0.7123(3) 0.1038(2)
C3 C 0.3899(3) 0.9026(3) 0.2159(3)
N1HA N 0.3048(2) 0.82247(19) 0.08841(19)
C3HA C 0.2841(3) 0.9026(3) 0.1101(3)
N1G N 0.58841(19) 0.6952(2) 0.32247(19)
C1G C 0.6279(2) 0.6279(2) 0.2829(4)
C2G C 0.6731(3) 0.6731(3) 0.4471(4)
O1G O 0.6038(2) 0.6038(2) 0.2123(3)
C3G C 0.6101(3) 0.7159(3) 0.4026(3)
N1Q N 0.6952(2) 0.58841(19) 0.32247(19)
C3Q C 0.7159(3) 0.6101(3) 0.4026(3)
N1LA N 0.41159(19) 0.67753(19) 0.3048(2)
C1LA C 0.3721(2) 0.7171(4) 0.3721(2)
C2LA C 0.3269(3) 0.5529(4) 0.3269(3)
O1LA O 0.3962(2) 0.7877(3) 0.3962(2)
C3LA C 0.3899(3) 0.5974(3) 0.2841(3)
N1GA N 0.3048(2) 0.67753(19) 0.41159(19)
C3GA C 0.2841(3) 0.5974(3) 0.3899(3)
N1TA N 0.58841(19) 0.8048(2) 0.17753(19)
C1TA C 0.6279(2) 0.8721(2) 0.2171(4)
C2TA C 0.6731(3) 0.8269(3) 0.0529(4)
O1TA O 0.6038(2) 0.8962(2) 0.2877(3)
C3TA C 0.6101(3) 0.7841(3) 0.0974(3)
N1P N 0.6952(2) 0.91159(19) 0.17753(19)
C3P C 0.7159(3) 0.8899(3) 0.0974(3)
Cu1HA Cu 0.2500 0.7500 0.0000
Cu1Q Cu 0.7500 0.5000 0.2500
N1S N 0.17753(19) 0.6952(2) -0.08841(19)
C1S C 0.2171(4) 0.6279(2) -0.1279(2)
C2S C 0.0529(4) 0.6731(3) -0.1731(3)
O1S O 0.2877(3) 0.6038(2) -0.1038(2)
C3S C 0.0974(3) 0.7159(3) -0.1101(3)
N1SA N 0.17753(19) 0.58841(19) -0.1952(2)
C3SA C 0.0974(3) 0.6101(3) -0.2159(3)
N1IA N 0.1952(2) 0.67753(19) 0.08841(19)
C1IA C 0.1279(2) 0.7171(4) 0.1279(2)
C2IA C 0.1731(3) 0.5529(4) 0.1731(3)
O1IA O 0.1038(2) 0.7877(3) 0.1038(2)
C3IA C 0.2159(3) 0.5974(3) 0.1101(3)
N1JA N 0.08841(19) 0.67753(19) 0.1952(2)
C3JA C 0.1101(3) 0.5974(3) 0.2159(3)
Cu1T Cu 0.2500 0.7500 0.5000
Cu1O Cu 0.7500 1.0000 0.2500
N1R N 0.32247(19) 0.8048(2) -0.08841(19)
N1U N 0.82247(19) 0.41159(19) 0.1952(2)
N1Y N 0.8048(2) 0.58841(19) 0.17753(19)
N1BA N 0.67753(19) 0.41159(19) 0.3048(2)
Cu1A Cu 0.2500 0.5000 -0.2500
Cu1F Cu 0.0000 0.7500 0.2500
O3? O 0.5970(14) 0.5970(14) -0.0970(14)
loop_
_geom_bond_atom_site_label_1
_geom_bond_atom_site_label_2
_geom_bond_site_symmetry_1
_geom_bond_site_symmetry_2
Cu1 N1 1_555 1_555
N1 C1 1_555 1_555
C1 O1 1_555 1_555
C2 C3 1_555 1_555
C3 N1 1_555 1_555
O2 Li1 1_555 1_555
Li1 O2Q 1_555 1_555
N2 O4 1_555 1_555
O4 O4EA 1_555 1_555
O5 N2 1_555 1_555
N1HA C1 1_555 1_555
C3HA C2 1_555 1_555
O2Q O2 1_555 1_555
O2QA Li1 1_555 1_555
O2X Li1 1_555 1_555
O2OA Li1 1_555 1_555
O2S O2 1_555 1_555
O4EA N2 1_555 1_555
O4HA N2 1_555 1_555
Li1Q O2 1_555 1_555
N1G Cu1 1_555 1_555
C1G N1G 1_555 1_555
C2G C3G 1_555 1_555
O1G C1G 1_555 1_555
C3G N1G 1_555 1_555
N1Q C1G 1_555 1_555
C3Q C2G 1_555 1_555
N1LA Cu1 1_555 1_555
C1LA N1LA 1_555 1_555
C2LA C3LA 1_555 1_555
O1LA C1LA 1_555 1_555
C3LA N1LA 1_555 1_555
N1GA C1LA 1_555 1_555
C3GA C2LA 1_555 1_555
N1TA Cu1 1_555 1_555
C1TA N1TA 1_555 1_555
C2TA C3TA 1_555 1_555
O1TA C1TA 1_555 1_555
C3TA N1TA 1_555 1_555
N1P C1TA 1_555 1_555
C3P C2TA 1_555 1_555
Cu1HA N1HA 1_555 1_555
Cu1Q N1Q 1_555 1_555
N1S Cu1HA 1_555 1_555
C1S N1S 1_555 1_555
C2S C3S 1_555 1_555
O1S C1S 1_555 1_555
C3S N1S 1_555 1_555
N1SA C1S 1_555 1_555
C3SA C2S 1_555 1_555
N1IA Cu1HA 1_555 1_555
C1IA N1IA 1_555 1_555
C2IA C3IA 1_555 1_555
O1IA C1IA 1_555 1_555
C3IA N1IA 1_555 1_555
N1JA C1IA 1_555 1_555
C3JA C2IA 1_555 1_555
Cu1T N1GA 1_555 1_555
Cu1O N1P 1_555 1_555
N1R Cu1HA 1_555 1_555
N1U Cu1Q 1_555 1_555
N1Y Cu1Q 1_555 1_555
N1BA Cu1Q 1_555 1_555
Cu1A N1SA 1_555 1_555
Cu1F N1JA 1_555 1_555
Li1 O2S 1_555 1_555
Li1 Li1Q 1_555 1_555
O4 O4HA 1_555 1_555
N1HA C3HA 1_555 1_555
O2Q O2QA 1_555 1_555
O2Q Li1Q 1_555 1_555
O2QA O2X 1_555 1_555
O2QA Li1Q 1_555 1_555
O2X O2OA 1_555 1_555
O2X Li1Q 1_555 1_555
O2OA O2S 1_555 1_555
O2OA Li1Q 1_555 1_555
O2S Li1Q 1_555 1_555
O4EA O4HA 1_555 1_555
N1Q C3Q 1_555 1_555
N1GA C3GA 1_555 1_555
N1P C3P 1_555 1_555
N1SA C3SA 1_555 1_555
N1JA C3JA 1_555 1_555

#END
