
#######################################################################
#
#                 Cambridge Crystallographic Data Centre
#                                CCDC 
#
#######################################################################
#
# If this CIF has been generated from an entry in the Cambridge 
# Structural Database, then it will include bibliographic, chemical, 
# crystal, experimental, refinement or atomic coordinate data resulting 
# from the CCDC's data processing and validation procedures.
#
#######################################################################

data_EVEGOB
_symmetry_cell_setting           cubic
_symmetry_space_group_name_H-M   'P n -3 m'
_symmetry_Int_Tables_number      224
_space_group_name_Hall           '-P 4bc 2bc 3'
loop_
_symmetry_equiv_pos_site_id
_symmetry_equiv_pos_as_xyz
1 x,y,z
2 z,x,y
3 y,z,x
4 1/2+y,1/2+x,-z
5 1/2+y,-x,1/2+z
6 -y,1/2+x,1/2+z
7 1/2+x,1/2+z,-y
8 -x,1/2+z,1/2+y
9 1/2+x,-z,1/2+y
10 1/2+z,1/2+y,-x
11 1/2+z,-y,1/2+x
12 -z,1/2+y,1/2+x
13 1/2+x,1/2+y,-z
14 1/2+x,-y,1/2+z
15 -x,1/2+y,1/2+z
16 -z,1/2+x,1/2+y
17 1/2+z,1/2+x,-y
18 1/2+z,-x,1/2+y
19 1/2+y,-z,1/2+x
20 -y,1/2+z,1/2+x
21 1/2+y,1/2+z,-x
22 y,x,z
23 x,z,y
24 z,y,x
25 -x,-y,-z
26 -z,-x,-y
27 -y,-z,-x
28 1/2-y,1/2-x,z
29 1/2-y,x,1/2-z
30 y,1/2-x,1/2-z
31 1/2-x,1/2-z,y
32 x,1/2-z,1/2-y
33 1/2-x,z,1/2-y
34 1/2-z,1/2-y,x
35 1/2-z,y,1/2-x
36 z,1/2-y,1/2-x
37 1/2-x,1/2-y,z
38 1/2-x,y,1/2-z
39 x,1/2-y,1/2-z
40 z,1/2-x,1/2-y
41 1/2-z,1/2-x,y
42 1/2-z,x,1/2-y
43 1/2-y,z,1/2-x
44 y,1/2-z,1/2-x
45 1/2-y,1/2-z,x
46 -y,-x,-z
47 -x,-z,-y
48 -z,-y,-x
_cell_length_a                   15.6702(5)
_cell_length_b                   15.6702(5)
_cell_length_c                   15.6702(5)
_cell_angle_alpha                90
_cell_angle_beta                 90
_cell_angle_gamma                90
_cell_volume                     3847.9
loop_
_atom_site_label
_atom_site_type_symbol
_atom_site_fract_x
_atom_site_fract_y
_atom_site_fract_z
N2 N 0.5000 0.566(3) 0.066(3)
N2Q N 0.566(3) 0.5000 0.066(3)
N2QA N 0.566(3) 0.434(3) 0.0000
N2X N 0.5000 0.434(3) -0.066(3)
N2OA N 0.434(3) 0.5000 -0.066(3)
N2S N 0.434(3) 0.566(3) 0.0000
O3 O 0.5000 1.0000 0.0000
O5 O 0.066(3) 1.066(3) 0.138(3)
O6 O 0.167(3) 1.167(3) 0.167(3)
N3 N 0.121(3) 1.121(3) 0.121(3)
O5A O 0.138(3) 1.066(3) 0.066(3)
O5B O 0.066(3) 1.138(3) 0.066(3)
Cu1 Cu 0.5000 0.7500 0.2500
N1 N 0.4122(5) 0.8210(6) 0.1945(6)
C1 C 0.3739(8) 0.7783(15) 0.1261(8)
C2 C 0.3270(8) 0.9471(10) 0.1730(8)
O1 O 0.3952(5) 0.7079(8) 0.1048(5)
C3 C 0.3915(8) 0.9020(8) 0.2176(9)
N1HA N 0.3055(6) 0.8210(6) 0.0878(5)
C3HA C 0.2824(9) 0.9020(8) 0.1085(8)
N1G N 0.5878(5) 0.6945(6) 0.3210(6)
C1G C 0.6261(8) 0.6261(8) 0.2783(15)
C2G C 0.6730(8) 0.6730(8) 0.4471(10)
O1G O 0.6048(5) 0.6048(5) 0.2079(8)
C3G C 0.6085(8) 0.7176(9) 0.4020(8)
N1Q N 0.6945(6) 0.5878(5) 0.3210(6)
C3Q C 0.7176(9) 0.6085(8) 0.4020(8)
N1LA N 0.4122(5) 0.6790(6) 0.3055(6)
C1LA C 0.3739(8) 0.7217(15) 0.3739(8)
C2LA C 0.3270(8) 0.5529(10) 0.3270(8)
O1LA O 0.3952(5) 0.7921(8) 0.3952(5)
C3LA C 0.3915(8) 0.5980(8) 0.2824(9)
N1GA N 0.3055(6) 0.6790(6) 0.4122(5)
C3GA C 0.2824(9) 0.5980(8) 0.3915(8)
N1TA N 0.5878(5) 0.8055(6) 0.1790(6)
C1TA C 0.6261(8) 0.8739(8) 0.2217(15)
C2TA C 0.6730(8) 0.8270(8) 0.0529(10)
O1TA O 0.6048(5) 0.8952(5) 0.2921(8)
C3TA C 0.6085(8) 0.7824(9) 0.0980(8)
N1P N 0.6945(6) 0.9122(5) 0.1790(6)
C3P C 0.7176(9) 0.8915(8) 0.0980(8)
Cu1HA Cu 0.2500 0.7500 0.0000
Cu1Q Cu 0.7500 0.5000 0.2500
N1S N 0.1790(6) 0.6945(6) -0.0878(5)
C1S C 0.2217(15) 0.6261(8) -0.1261(8)
C2S C 0.0529(10) 0.6730(8) -0.1730(8)
O1S O 0.2921(8) 0.6048(5) -0.1048(5)
C3S C 0.0980(8) 0.7176(9) -0.1085(8)
N1SA N 0.1790(6) 0.5878(5) -0.1945(6)
C3SA C 0.0980(8) 0.6085(8) -0.2176(9)
N1IA N 0.1945(6) 0.6790(6) 0.0878(5)
C1IA C 0.1261(8) 0.7217(15) 0.1261(8)
C2IA C 0.1730(8) 0.5529(10) 0.1730(8)
O1IA O 0.1048(5) 0.7921(8) 0.1048(5)
C3IA C 0.2176(9) 0.5980(8) 0.1085(8)
N1JA N 0.0878(5) 0.6790(6) 0.1945(6)
C3JA C 0.1085(8) 0.5980(8) 0.2176(9)
Cu1T Cu 0.2500 0.7500 0.5000
Cu1O Cu 0.7500 1.0000 0.2500
N1R N 0.3210(6) 0.8055(6) -0.0878(5)
N1U N 0.8210(6) 0.4122(5) 0.1945(6)
N1Y N 0.8055(6) 0.5878(5) 0.1790(6)
N1BA N 0.6790(6) 0.4122(5) 0.3055(6)
Cu1A Cu 0.2500 0.5000 -0.2500
Cu1F Cu 0.0000 0.7500 0.2500
O2? O 0.467(3) 0.542(4) 0.100(3)
O4? O 0.245(6) 0.343(5) 0.157(5)
loop_
_geom_bond_atom_site_label_1
_geom_bond_atom_site_label_2
_geom_bond_site_symmetry_1
_geom_bond_site_symmetry_2
Cu1 N1 1_555 1_555
N1 C1 1_555 1_555
C1 O1 1_555 1_555
C2 C3 1_555 1_555
C3 N1 1_555 1_555
N2 N2Q 1_555 1_555
O5 N3 1_555 1_555
O6 N3 1_555 1_555
N3 O5A 1_555 1_555
N1HA C1 1_555 1_555
C3HA C2 1_555 1_555
N2Q N2QA 1_555 1_555
N2QA N2X 1_555 1_555
N2X N2OA 1_555 1_555
N2OA N2S 1_555 1_555
N2S N2 1_555 1_555
O5A O5 1_555 1_555
O5B O5 1_555 1_555
N1G Cu1 1_555 1_555
C1G N1G 1_555 1_555
C2G C3G 1_555 1_555
O1G C1G 1_555 1_555
C3G N1G 1_555 1_555
N1Q C1G 1_555 1_555
C3Q C2G 1_555 1_555
N1LA Cu1 1_555 1_555
C1LA N1LA 1_555 1_555
C2LA C3LA 1_555 1_555
O1LA C1LA 1_555 1_555
C3LA N1LA 1_555 1_555
N1GA C1LA 1_555 1_555
C3GA C2LA 1_555 1_555
N1TA Cu1 1_555 1_555
C1TA N1TA 1_555 1_555
C2TA C3TA 1_555 1_555
O1TA C1TA 1_555 1_555
C3TA N1TA 1_555 1_555
N1P C1TA 1_555 1_555
C3P C2TA 1_555 1_555
Cu1HA N1HA 1_555 1_555
Cu1Q N1Q 1_555 1_555
N1S Cu1HA 1_555 1_555
C1S N1S 1_555 1_555
C2S C3S 1_555 1_555
O1S C1S 1_555 1_555
C3S N1S 1_555 1_555
N1SA C1S 1_555 1_555
C3SA C2S 1_555 1_555
N1IA Cu1HA 1_555 1_555
C1IA N1IA 1_555 1_555
C2IA C3IA 1_555 1_555
O1IA C1IA 1_555 1_555
C3IA N1IA 1_555 1_555
N1JA C1IA 1_555 1_555
C3JA C2IA 1_555 1_555
Cu1T N1GA 1_555 1_555
Cu1O N1P 1_555 1_555
N1R Cu1HA 1_555 1_555
N1U Cu1Q 1_555 1_555
N1Y Cu1Q 1_555 1_555
N1BA Cu1Q 1_555 1_555
Cu1A N1SA 1_555 1_555
Cu1F N1JA 1_555 1_555
N3 O5B 1_555 1_555
N1HA C3HA 1_555 1_555
O5A O5B 1_555 1_555
N1Q C3Q 1_555 1_555
N1GA C3GA 1_555 1_555
N1P C3P 1_555 1_555
N1SA C3SA 1_555 1_555
N1JA C3JA 1_555 1_555

#END
