
#######################################################################
#
#                 Cambridge Crystallographic Data Centre
#                                CCDC 
#
#######################################################################
#
# If this CIF has been generated from an entry in the Cambridge 
# Structural Database, then it will include bibliographic, chemical, 
# crystal, experimental, refinement or atomic coordinate data resulting 
# from the CCDC's data processing and validation procedures.
#
#######################################################################

data_EVEHAO01
_symmetry_cell_setting           orthorhombic
_symmetry_space_group_name_H-M   'P n a m'
_symmetry_Int_Tables_number      62
_space_group_name_Hall           '-P 2c 2n'
loop_
_symmetry_equiv_pos_site_id
_symmetry_equiv_pos_as_xyz
1 x,y,z
2 -x,-y,1/2+z
3 1/2+x,1/2-y,1/2-z
4 1/2-x,1/2+y,-z
5 -x,-y,-z
6 x,y,1/2-z
7 1/2-x,1/2+y,1/2+z
8 1/2+x,1/2-y,z
_cell_length_a                   19.0696(14)
_cell_length_b                   11.0596(8)
_cell_length_c                   11.4266(9)
_cell_angle_alpha                90
_cell_angle_beta                 90
_cell_angle_gamma                90
_cell_volume                     2409.89
loop_
_atom_site_label
_atom_site_type_symbol
_atom_site_fract_x
_atom_site_fract_y
_atom_site_fract_z
N5 N 0.4864(13) 0.4366(11) 0.030(2)
O4 O 0.4668(15) 0.5308(17) 0.081(3)
O5 O 0.4743(14) 0.3331(17) 0.069(3)
O6 O 0.4833(15) 0.5442(14) 0.063(3)
N5D N 0.5136(13) 0.5634(11) -0.030(2)
O4D O 0.5332(15) 0.4692(17) -0.081(3)
O5D O 0.5257(14) 0.6669(17) -0.069(3)
O6D O 0.5167(15) 0.4558(14) -0.063(3)
C11 C 0.0948(19) 0.414(3) 0.2500
O8 O 0.0276(11) 0.354(2) 0.2500
Rb1 Rb 0.36270(12) 0.42281(19) 0.2500
Cu1 Cu 0.25386(7) 0.16791(12) 0.50039(13)
N1 N 0.1906(6) 0.3074(9) 0.5342(9)
C1 C 0.2222(7) 0.4198(11) 0.5076(11)
N2 N 0.1871(5) 0.5230(9) 0.5312(8)
C2 C 0.1232(7) 0.5177(12) 0.5765(11)
H1 H 0.1004 0.5893 0.5960
C3 C 0.0900(7) 0.4114(12) 0.5951(13)
H2 H 0.0436 0.4093 0.6196
C4 C 0.1266(7) 0.3075(13) 0.5769(12)
H3 H 0.1056 0.2340 0.5953
O1 O 0.2816(5) 0.4214(8) 0.4638(8)
N3 N 0.2024(5) 0.1331(9) 0.3541(9)
C5 C 0.2348(9) 0.1557(16) 0.2500
C6 C 0.1391(6) 0.0839(11) 0.3504(12)
H4 H 0.1179 0.0641 0.4212
C7 C 0.1028(10) 0.0602(19) 0.2500
O2 O 0.2958(6) 0.2004(11) 0.2500
N4 N 0.1921(5) 0.7019(9) 0.1466(8)
C8 C 0.0900(10) 0.7622(17) 0.2500
C9 C 0.1271(7) 0.7408(13) 0.1492(12)
H5 H 0.1048 0.7547 0.0781
C10 C 0.2263(9) 0.6795(16) 0.2500
O3 O 0.2884(7) 0.6391(12) 0.2500
Cu1E Cu 0.25386(7) 0.16791(12) -0.00039(13)
Cu1C Cu 0.24614(7) 0.66791(12) 0.49961(13)
Cu1F Cu 0.24614(7) 0.66791(12) 0.00039(13)
N1E N 0.1906(6) 0.3074(9) -0.0342(9)
C1E C 0.2222(7) 0.4198(11) -0.0076(11)
N2E N 0.1871(5) 0.5230(9) -0.0312(8)
N2C N 0.3129(5) 0.0230(9) 0.4688(8)
N2F N 0.3129(5) 0.0230(9) 0.0312(8)
C2E C 0.1232(7) 0.5177(12) -0.0765(11)
H1E H 0.1004 0.5893 -0.0960
C3E C 0.0900(7) 0.4114(12) -0.0951(13)
H2E H 0.0436 0.4093 -0.1196
C4E C 0.1266(7) 0.3075(13) -0.0769(12)
H3E H 0.1056 0.2340 -0.0953
O1E O 0.2816(5) 0.4214(8) 0.0362(8)
N3E N 0.2024(5) 0.1331(9) 0.1459(9)
C6E C 0.1391(6) 0.0839(11) 0.1496(12)
H4E H 0.1179 0.0641 0.0788
N4E N 0.1921(5) 0.7019(9) 0.3534(8)
N4F N 0.3079(5) 0.2019(9) 0.6466(8)
N4C N 0.3079(5) 0.2019(9) -0.1466(8)
C9E C 0.1271(7) 0.7408(13) 0.3508(12)
H5E H 0.1048 0.7547 0.4219
O7? O 0.4661(15) 0.292(2) 0.090(3)
loop_
_geom_bond_atom_site_label_1
_geom_bond_atom_site_label_2
_geom_bond_site_symmetry_1
_geom_bond_site_symmetry_2
Rb1 O1 1_555 1_555
Cu1 N1 1_555 1_555
N1 C1 1_555 1_555
C1 N2 1_555 1_555
N2 C2 1_555 1_555
C2 H1 1_555 1_555
C3 C2 1_555 1_555
H2 C3 1_555 1_555
C4 N1 1_555 1_555
H3 C4 1_555 1_555
O1 C1 1_555 1_555
N3 Cu1 1_555 1_555
C5 N3 1_555 1_555
C6 N3 1_555 1_555
H4 C6 1_555 1_555
C7 C6 1_555 1_555
O2 Rb1 1_555 1_555
N4 C9 1_555 1_555
C8 C9 1_555 1_555
C9 H5 1_555 1_555
C10 N4 1_555 1_555
O3 Rb1 1_555 1_555
N5 O4 1_555 1_555
O4 O6 1_555 1_555
O5 N5 1_555 1_555
O6 N5 1_555 1_555
C11 O8 1_555 1_555
Cu1E N1E 1_555 1_555
Cu1C N2 1_555 1_555
Cu1F N4 1_555 1_555
N1E C1E 1_555 1_555
C1E N2E 1_555 1_555
N2E Cu1F 1_555 1_555
N2C Cu1 1_555 1_555
N2F Cu1E 1_555 1_555
C2E N2E 1_555 1_555
H1E C2E 1_555 1_555
C3E C2E 1_555 1_555
H2E C3E 1_555 1_555
C4E N1E 1_555 1_555
H3E C4E 1_555 1_555
O1E Rb1 1_555 1_555
N3E C5 1_555 1_555
C6E C7 1_555 1_555
H4E C6E 1_555 1_555
N4E C10 1_555 1_555
N4F Cu1 1_555 1_555
N4C Cu1E 1_555 1_555
C9E C8 1_555 1_555
H5E C9E 1_555 1_555
N5D N5 1_555 1_555
O4D N5 1_555 1_555
O5D N5D 1_555 1_555
O6D N5 1_555 1_555
C3 C4 1_555 1_555
C5 O2 1_555 1_555
C10 O3 1_555 1_555
O4 N5D 1_555 1_555
O6 N5D 1_555 1_555
Cu1E N3E 1_555 1_555
Cu1C N4E 1_555 1_555
C1E O1E 1_555 1_555
C3E C4E 1_555 1_555
N3E C6E 1_555 1_555
N4E C9E 1_555 1_555
N5D O4D 1_555 1_555
N5D O6D 1_555 1_555
O4D O6D 1_555 1_555

#END
