
#######################################################################
#
#                 Cambridge Crystallographic Data Centre
#                                CCDC 
#
#######################################################################
#
# If this CIF has been generated from an entry in the Cambridge 
# Structural Database, then it will include bibliographic, chemical, 
# crystal, experimental, refinement or atomic coordinate data resulting 
# from the CCDC's data processing and validation procedures.
#
#######################################################################

data_EVEHAO
_symmetry_cell_setting           orthorhombic
_symmetry_space_group_name_H-M   'P n a 21'
_symmetry_Int_Tables_number      33
_space_group_name_Hall           'P 2c -2n'
loop_
_symmetry_equiv_pos_site_id
_symmetry_equiv_pos_as_xyz
1 x,y,z
2 -x,-y,1/2+z
3 1/2+x,1/2-y,z
4 1/2-x,1/2+y,1/2+z
_cell_length_a                   18.7829(19)
_cell_length_b                   11.0197(11)
_cell_length_c                   11.4504(11)
_cell_angle_alpha                90
_cell_angle_beta                 90
_cell_angle_gamma                90
_cell_volume                     2370.03
loop_
_atom_site_label
_atom_site_type_symbol
_atom_site_fract_x
_atom_site_fract_y
_atom_site_fract_z
Rb1 Rb 0.13595(4) 0.92547(6) 0.94725(16)
Cu1 Cu 0.25756(5) 1.16826(9) 1.19071(9)
Cu2 Cu 0.25034(5) 1.17210(10) 0.69140(9)
O1 O 0.2022(3) 0.7017(4) 0.9408(7)
O2 O 0.2254(4) 0.9247(6) 1.1509(6)
N1 N 0.3095(4) 1.0262(8) 0.6605(6)
O3 O 0.2097(3) 1.1441(4) 0.9436(8)
N2 N 0.3204(4) 1.0242(7) 1.2245(7)
C1 C 0.3640(5) 0.5899(10) 1.0401(10)
N3 N 0.3103(4) 1.2027(7) 1.0441(6)
N4 N 0.3163(4) 0.8104(7) 1.2250(7)
N5 N 0.2999(4) 0.6369(8) 1.0423(7)
C2 C 0.4123(6) 0.9126(9) 0.5982(10)
C3 C 0.2639(4) 0.6566(6) 0.9387(12)
O4 O -0.0146(4) 0.9228(6) 0.6174(6)
C4 C 0.4187(6) 0.9122(9) 1.2938(9)
C5 C 0.3778(5) 1.2380(9) 1.0395(8)
C6 C 0.2724(4) 1.1837(6) 0.9410(11)
C8 C 0.3772(5) 1.0208(9) 0.6190(9)
C9 C 0.3855(5) 1.0200(9) 1.2720(8)
C10 C 0.3819(5) 0.8101(9) 1.2726(8)
O5 O 0.0261(4) 0.8258(7) 0.7685(6)
C11 C 0.2850(5) 0.9187(7) 1.1995(8)
O6 O 0.0290(4) 1.0227(6) 0.7640(6)
O7 O 0.0346(4) 0.7940(7) 1.1024(6)
N6 N 0.0136(4) 0.9238(6) 0.7164(7)
C12 C 0.3981(4) 0.5579(6) 0.9356(10)
C13 C 0.4124(4) 1.2601(6) 0.9325(9)
N7 N 0.3047(4) 1.2078(7) 0.8362(7)
N8 N 0.2961(4) 0.6290(7) 0.8358(7)
C14 C 0.3738(5) 1.2439(9) 0.8351(9)
C15 C 0.3617(5) 0.5780(9) 0.8369(9)
C16 C 0.2734(6) 0.9218(8) 0.6868(11)
N9 N 0.3059(4) 0.8108(7) 0.6601(6)
C17 C 0.3721(6) 0.8066(9) 0.6214(9)
O9 O 0.2124(4) 0.9241(6) 0.7268(6)
N8C N 0.2039(4) 1.1290(7) 1.3358(7)
N9C N 0.1941(4) 1.3108(7) 1.1601(6)
N4C N 0.1837(4) 1.3104(7) 0.7250(7)
N5C N 0.2001(4) 1.1369(8) 0.5423(7)
Cu2C Cu 0.24966(5) 0.67210(10) 1.19140(9)
Cu1C Cu 0.24244(5) 0.66826(9) 0.69071(9)
C7 C 0.4036(5) 0.9081(7) 0.9332(12)
O8 O 0.4715(3) 0.8492(6) 0.9273(7)
loop_
_geom_bond_atom_site_label_1
_geom_bond_atom_site_label_2
_geom_bond_site_symmetry_1
_geom_bond_site_symmetry_2
Rb1 O1 1_555 1_555
Cu1 N2 1_555 1_555
Cu2 N1 1_555 1_555
O1 C3 1_555 1_555
O2 Rb1 1_555 1_555
N1 C8 1_555 1_555
O3 Rb1 1_555 1_555
N2 C9 1_555 1_555
C1 N5 1_555 1_555
N3 Cu1 1_555 1_555
N4 C10 1_555 1_555
N5 C3 1_555 1_555
C2 C8 1_555 1_555
C3 N8 1_555 1_555
O4 N6 1_555 1_555
C4 C9 1_555 1_555
C5 N3 1_555 1_555
C6 O3 1_555 1_555
C7 O8 1_555 1_555
C10 C4 1_555 1_555
O5 N6 1_555 1_555
C11 O2 1_555 1_555
O6 Rb1 1_555 1_555
O7 Rb1 1_555 1_555
N6 O6 1_555 1_555
C12 C1 1_555 1_555
C13 C5 1_555 1_555
N7 Cu2 1_555 1_555
N8 C15 1_555 1_555
C14 C13 1_555 1_555
C15 C12 1_555 1_555
C16 N1 1_555 1_555
N9 C16 1_555 1_555
C17 C2 1_555 1_555
O9 Rb1 1_555 1_555
N8C Cu1 1_555 1_555
N9C Cu1 1_555 1_555
N4C Cu2 1_555 1_555
N5C Cu2 1_555 1_555
Cu2C N4 1_555 1_555
Cu1C N8 1_555 1_555
N2 C11 1_555 1_555
N3 C6 1_555 1_555
N4 C11 1_555 1_555
N5 Cu2C 1_555 1_555
C6 N7 1_555 1_555
N7 C14 1_555 1_555
C16 O9 1_555 1_555
N9 C17 1_555 1_555
N9 Cu1C 1_555 1_555

#END
