
#######################################################################
#
#                 Cambridge Crystallographic Data Centre
#                                CCDC 
#
#######################################################################
#
# If this CIF has been generated from an entry in the Cambridge 
# Structural Database, then it will include bibliographic, chemical, 
# crystal, experimental, refinement or atomic coordinate data resulting 
# from the CCDC's data processing and validation procedures.
#
#######################################################################

data_EVINAZ
_symmetry_cell_setting           triclinic
_symmetry_space_group_name_H-M   'P -1'
_symmetry_Int_Tables_number      2
_space_group_name_Hall           '-P 1'
loop_
_symmetry_equiv_pos_site_id
_symmetry_equiv_pos_as_xyz
1 x,y,z
2 -x,-y,-z
_cell_length_a                   8.3036(17)
_cell_length_b                   11.876(2)
_cell_length_c                   15.714(3)
_cell_angle_alpha                72.43(3)
_cell_angle_beta                 78.60(3)
_cell_angle_gamma                81.02(3)
_cell_volume                     1440.45
loop_
_atom_site_label
_atom_site_type_symbol
_atom_site_fract_x
_atom_site_fract_y
_atom_site_fract_z
C1 C 0.3441(4) 0.2540(3) 0.5579(2)
H1 H 0.2961 0.2649 0.6139
C3 C 0.4752(4) 0.2751(3) 0.4271(2)
H2 H 0.5397 0.3080 0.3721
C4 C -0.0520(4) 0.6455(3) 0.7667(2)
C5 C 0.2517(4) 0.0528(3) 0.5826(2)
H3 H 0.2014 0.0606 0.6420
H4 H 0.3359 -0.0144 0.5909
C6 C 0.1218(4) 0.0272(2) 0.5384(2)
C7 C 0.1187(5) 0.6088(4) 0.4947(3)
H5 H 0.1359 0.6287 0.4318
C11 C 0.0592(5) 0.8076(3) 0.7887(3)
H9 H 0.0755 0.8877 0.7704
C12 C -0.1211(4) 0.5953(3) 0.7068(2)
H10 H -0.2175 0.6461 0.6865
H11 H -0.1546 0.5172 0.7401
C14 C -0.0424(4) 0.0674(3) 0.5600(2)
H14 H -0.0719 0.1127 0.6008
N1 N 0.4671(4) 0.7991(3) 0.8009(2)
C15 C 0.1169(4) 0.7339(3) 0.8654(2)
C16 C 0.1627(4) -0.0413(3) 0.4781(2)
H15 H 0.2723 -0.0699 0.4633
C17 C -0.0021(4) 0.5735(3) 0.8464(2)
H16 H -0.0264 0.4950 0.8677
C18 C 0.0834(5) 0.6171(3) 0.8949(2)
H17 H 0.1183 0.5673 0.9476
C19 C 0.1605(4) 0.5406(4) 0.6265(2)
H18 H 0.2086 0.5033 0.6779
C20 C -0.0222(5) 0.7638(3) 0.7389(3)
H19 H -0.0573 0.8140 0.6864
C21 C 0.3528(5) 0.9657(3) 0.8284(3)
H20 H 0.2795 1.0188 0.8538
C22 C 0.2194(6) 0.7791(4) 0.9158(3)
H21 H 0.2728 0.7123 0.9572
H22 H 0.1480 0.8274 0.9510
Fe1 Fe 0.5000 0.5000 0.5000
N3 N 0.4344(3) 0.3292(2) 0.49418(17)
N4 N 0.3310(3) 0.1606(2) 0.53109(16)
N5 N 0.4165(4) 0.1730(2) 0.44620(19)
N6 N 0.2388(3) 0.5537(2) 0.54385(17)
N7 N 0.0052(3) 0.5864(2) 0.62814(18)
N8 N -0.0241(4) 0.6321(3) 0.5423(2)
N9 N 0.3438(4) 0.8492(3) 0.8523(2)
N11 N 0.4780(4) 0.9954(3) 0.7647(2)
C23 C 0.5438(5) 0.8909(4) 0.7501(3)
H23 H 0.6367 0.8840 0.7071
O1 O 0.4679(3) 0.5793(2) 0.36452(14)
H25 H 0.4004 0.5426 0.3498
H26 H 0.4279 0.6525 0.3573
C1A C -0.3441(4) -0.2540(3) 0.4421(2)
H1A H -0.2961 -0.2649 0.3861
C3A C -0.4752(4) -0.2751(3) 0.5729(2)
H2A H -0.5397 -0.3080 0.6279
C4A C 1.0520(4) 0.3545(3) 0.2333(2)
C5A C -0.2517(4) -0.0528(3) 0.4174(2)
H3A H -0.2014 -0.0606 0.3580
H4A H -0.3359 0.0144 0.4091
C6A C -0.1218(4) -0.0272(2) 0.4616(2)
C7A C 0.8813(5) 0.3912(4) 0.5053(3)
H5A H 0.8641 0.3713 0.5682
C11A C 0.9408(5) 0.1924(3) 0.2113(3)
H9A H 0.9245 0.1123 0.2296
C12A C 1.1211(4) 0.4047(3) 0.2932(2)
H10A H 1.2175 0.3539 0.3135
H11A H 1.1546 0.4828 0.2599
C14A C 0.0424(4) -0.0674(3) 0.4400(2)
H14A H 0.0719 -0.1127 0.3992
N1A N 0.5329(4) 0.2009(3) 0.1991(2)
C15A C 0.8831(4) 0.2661(3) 0.1346(2)
C16A C -0.1627(4) 0.0413(3) 0.5219(2)
H15A H -0.2723 0.0699 0.5367
C17A C 1.0021(4) 0.4265(3) 0.1536(2)
H16A H 1.0264 0.5050 0.1323
C18A C 0.9166(5) 0.3829(3) 0.1051(2)
H17A H 0.8817 0.4327 0.0524
C19A C 0.8395(4) 0.4594(4) 0.3735(2)
H18A H 0.7914 0.4967 0.3221
C20A C 1.0222(5) 0.2362(3) 0.2611(3)
H19A H 1.0573 0.1860 0.3136
C21A C 0.6472(5) 0.0343(3) 0.1716(3)
H20A H 0.7205 -0.0188 0.1462
C22A C 0.7806(6) 0.2209(4) 0.0842(3)
H21A H 0.7272 0.2877 0.0428
H22A H 0.8520 0.1726 0.0490
Fe1_2 Fe -0.5000 -0.5000 0.5000
N3A N -0.4344(3) -0.3292(2) 0.50582(17)
N3A_2 N 0.5656(3) 0.6708(2) 0.50582(17)
N4A N -0.3310(3) -0.1606(2) 0.46891(16)
N5A N -0.4165(4) -0.1730(2) 0.55380(19)
N6A N 0.7612(3) 0.4463(2) 0.45615(17)
N7A N 0.9948(3) 0.4136(2) 0.37186(18)
N8A N 1.0241(4) 0.3679(3) 0.4577(2)
N9A N 0.6562(4) 0.1508(3) 0.1477(2)
N11A N 0.5220(4) 0.0046(3) 0.2353(2)
C23A C 0.4562(5) 0.1091(4) 0.2499(3)
H23A H 0.3633 0.1160 0.2929
O1A O 0.5321(3) 0.4207(2) 0.63548(14)
H25A H 0.5996 0.4574 0.6502
H26A H 0.5721 0.3475 0.6427
C2 C 0.5872(4) 0.8899(3) -0.00066(19)
C8 C 0.4289(4) 0.8969(3) 0.0467(2)
H6 H 0.3806 0.8275 0.0787
C9 C 0.6588(4) 0.9940(3) -0.0472(2)
H7 H 0.7659 0.9905 -0.0787
C10 C 0.5468(4) 0.5927(3) 0.0435(2)
H8 H 0.5290 0.5920 -0.0129
C13 C 0.6869(5) 0.7728(3) -0.0058(2)
H12 H 0.6874 0.7621 -0.0647
H13 H 0.8002 0.7762 -0.0003
N2 N 0.6220(5) 0.6401(3) 0.1526(2)
N10 N 0.6232(3) 0.6704(2) 0.06394(17)
C24 C 0.5467(4) 0.5432(3) 0.19264(19)
H24 H 0.5282 0.5029 0.2539
N12 N 0.5030(5) 0.5170(3) 0.1235(3)
C2A C 0.4128(4) 1.1101(3) 0.00066(19)
C8A C 0.5711(4) 1.1031(3) -0.0467(2)
H6A H 0.6194 1.1725 -0.0787
C9A C 0.3412(4) 1.0060(3) 0.0472(2)
H7A H 0.2341 1.0095 0.0787
C10A C 0.4532(4) 1.4073(3) -0.0435(2)
H8A H 0.4710 1.4080 0.0129
C13A C 0.3131(5) 1.2272(3) 0.0058(2)
H12A H 0.3126 1.2379 0.0647
H13A H 0.1998 1.2238 0.0003
N2A N 0.3780(5) 1.3599(3) -0.1526(2)
N10A N 0.3768(3) 1.3296(2) -0.06394(17)
C24A C 0.4533(4) 1.4568(3) -0.19264(19)
H24A H 0.4718 1.4971 -0.2539
N12A N 0.4970(5) 1.4830(3) -0.1235(3)
Cl1 Cl 1.00432(11) 0.78053(9) 0.19337(6)
O3 O 1.1500(6) 0.7050(4) 0.1864(5)
O4 O 0.8681(6) 0.7292(5) 0.2481(3)
O5 O 1.0364(6) 0.8747(4) 0.2220(3)
O6 O 0.9679(7) 0.8296(6) 0.1054(3)
O2 O 0.3561(4) 0.8043(2) 0.3039(2)
H27 H 0.422(7) 0.867(5) 0.278(3)
H28 H 0.307(7) 0.815(5) 0.263(4)
loop_
_geom_bond_atom_site_label_1
_geom_bond_atom_site_label_2
_geom_bond_site_symmetry_1
_geom_bond_site_symmetry_2
C1 H1 1_555 1_555
C2 C8 1_555 1_555
C3 H2 1_555 1_555
C4 C12 1_555 1_555
C5 H3 1_555 1_555
H4 C5 1_555 1_555
C6 C5 1_555 1_555
C7 H5 1_555 1_555
C8 H6 1_555 1_555
C9 C2 1_555 1_555
H7 C9 1_555 1_555
C10 H8 1_555 1_555
C11 H9 1_555 1_555
C12 H10 1_555 1_555
H11 C12 1_555 1_555
C13 C2 1_555 1_555
H12 C13 1_555 1_555
H13 C13 1_555 1_555
C14 C6 1_555 1_555
H14 C14 1_555 1_555
N1 N9 1_555 1_555
C15 C11 1_555 1_555
C16 C6 1_555 1_555
H15 C16 1_555 1_555
C17 C4 1_555 1_555
H16 C17 1_555 1_555
N2 N10 1_555 1_555
C18 C15 1_555 1_555
H17 C18 1_555 1_555
C19 H18 1_555 1_555
C20 C4 1_555 1_555
H19 C20 1_555 1_555
C21 H20 1_555 1_555
C22 C15 1_555 1_555
H21 C22 1_555 1_555
H22 C22 1_555 1_555
Cl1 O3 1_555 1_555
Fe1 N3 1_555 1_555
N3 C1 1_555 1_555
N4 C1 1_555 1_555
N5 C3 1_555 1_555
N6 C7 1_555 1_555
N7 C12 1_555 1_555
N8 C7 1_555 1_555
N9 C21 1_555 1_555
N10 C10 1_555 1_555
N11 C21 1_555 1_555
C23 N1 1_555 1_555
H23 C23 1_555 1_555
C24 N2 1_555 1_555
H24 C24 1_555 1_555
N12 C10 1_555 1_555
O1 Fe1 1_555 1_555
H25 O1 1_555 1_555
H26 O1 1_555 1_555
O2 H27 1_555 1_555
O4 Cl1 1_555 1_555
O5 Cl1 1_555 1_555
O6 Cl1 1_555 1_555
H28 O2 1_555 1_555
C1A H1A 1_555 1_555
C2A C8A 1_555 1_555
C3A H2A 1_555 1_555
C4A C12A 1_555 1_555
C5A H3A 1_555 1_555
H4A C5A 1_555 1_555
C6A C5A 1_555 1_555
C7A H5A 1_555 1_555
C8A C9 1_555 1_555
H6A C8A 1_555 1_555
C9A C8 1_555 1_555
H7A C9A 1_555 1_555
C10A H8A 1_555 1_555
C11A H9A 1_555 1_555
C12A H10A 1_555 1_555
H11A C12A 1_555 1_555
C13A C2A 1_555 1_555
H12A C13A 1_555 1_555
H13A C13A 1_555 1_555
C14A C16 1_555 1_555
H14A C14A 1_555 1_555
N1A N9A 1_555 1_555
C15A C11A 1_555 1_555
C16A C14 1_555 1_555
H15A C16A 1_555 1_555
C17A C4A 1_555 1_555
H16A C17A 1_555 1_555
N2A N10A 1_555 1_555
C18A C15A 1_555 1_555
H17A C18A 1_555 1_555
C19A H18A 1_555 1_555
C20A C4A 1_555 1_555
H19A C20A 1_555 1_555
C21A H20A 1_555 1_555
C22A C15A 1_555 1_555
H21A C22A 1_555 1_555
H22A C22A 1_555 1_555
Fe1_2 N3A 1_555 1_555
N3A C1A 1_555 1_555
N3A_2 Fe1 1_555 1_555
N4A C1A 1_555 1_555
N5A C3A 1_555 1_555
N6A Fe1 1_555 1_555
N7A C12A 1_555 1_555
N8A C7A 1_555 1_555
N9A C21A 1_555 1_555
N10A C10A 1_555 1_555
N11A C21A 1_555 1_555
C23A N1A 1_555 1_555
H23A C23A 1_555 1_555
C24A N2A 1_555 1_555
H24A C24A 1_555 1_555
N12A C10A 1_555 1_555
O1A Fe1 1_555 1_555
H25A O1A 1_555 1_555
H26A O1A 1_555 1_555
C3 N3 1_555 1_555
C5 N4 1_555 1_555
C11 C20 1_555 1_555
C13 N10 1_555 1_555
C17 C18 1_555 1_555
C19 N6 1_555 1_555
C19 N7 1_555 1_555
C22 N9 1_555 1_555
Fe1 N6 1_555 1_555
N4 N5 1_555 1_555
N7 N8 1_555 1_555
N11 C23 1_555 1_555
C24 N12 1_555 1_555
C2A C9A 1_555 1_555
C3A N3A 1_555 1_555
C5A N4A 1_555 1_555
C6A C14A 1_555 1_555
C6A C16A 1_555 1_555
C7A N6A 1_555 1_555
C11A C20A 1_555 1_555
C13A N10A 1_555 1_555
C17A C18A 1_555 1_555
C19A N6A 1_555 1_555
C19A N7A 1_555 1_555
C22A N9A 1_555 1_555
N4A N5A 1_555 1_555
N7A N8A 1_555 1_555
N11A C23A 1_555 1_555
C24A N12A 1_555 1_555

#END
