
#######################################################################
#
#                 Cambridge Crystallographic Data Centre
#                                CCDC 
#
#######################################################################
#
# If this CIF has been generated from an entry in the Cambridge 
# Structural Database, then it will include bibliographic, chemical, 
# crystal, experimental, refinement or atomic coordinate data resulting 
# from the CCDC's data processing and validation procedures.
#
#######################################################################

data_EVOHIG
_symmetry_cell_setting           monoclinic
_symmetry_space_group_name_H-M   'P 21/n'
_symmetry_Int_Tables_number      14
_space_group_name_Hall           '-P 2yn'
loop_
_symmetry_equiv_pos_site_id
_symmetry_equiv_pos_as_xyz
1 x,y,z
2 1/2+x,1/2-y,1/2+z
3 -x,-y,-z
4 1/2-x,1/2+y,1/2-z
_cell_length_a                   7.2720(10)
_cell_length_b                   23.070(5)
_cell_length_c                   10.753(2)
_cell_angle_alpha                90
_cell_angle_beta                 106.82(3)
_cell_angle_gamma                90
_cell_volume                     1726.8
loop_
_atom_site_label
_atom_site_type_symbol
_atom_site_fract_x
_atom_site_fract_y
_atom_site_fract_z
Ag1 Ag 0.04626(5) 0.062053(14) 0.86671(3)
N1 N 0.1666(5) 0.07435(13) 1.0708(3)
H1 H 0.2259 0.0414 1.1054
H2 H 0.0699 0.0806 1.1059
N2 N 0.4503(5) 0.44706(14) 1.1584(3)
H3 H 0.3900 0.4814 1.1392
H4 H 0.5544 0.4481 1.1292
C1 C 0.3066(6) 0.12324(17) 1.1101(4)
H5 H 0.4138 0.1161 1.0771
H6 H 0.3539 0.1250 1.2031
C2 C 0.2151(6) 0.18121(16) 1.0582(4)
H7 H 0.1004 0.1866 1.0840
H8 H 0.1794 0.1807 0.9650
C3 C 0.3512(6) 0.23214(17) 1.1083(4)
H9 H 0.4604 0.2283 1.0758
H10 H 0.3965 0.2301 1.2014
C4 C 0.2585(6) 0.29155(16) 1.0687(4)
H11 H 0.1451 0.2948 1.0968
H12 H 0.2207 0.2949 0.9758
C5 C 0.3958(6) 0.34066(17) 1.1280(4)
H13 H 0.5130 0.3351 1.1053
H14 H 0.4263 0.3384 1.2209
C6 C 0.3190(6) 0.40092(17) 1.0852(4)
H15 H 0.3032 0.4052 0.9939
H16 H 0.1952 0.4054 1.0991
N2A N -0.0497(5) 0.05294(14) 0.6584(3)
Ag1A Ag 0.54626(5) 0.437947(14) 1.36671(3)
H3A H -0.1100 0.0186 0.6392
H4A H 0.0544 0.0519 0.6292
O1 O 0.1748(5) 0.54549(12) 1.0900(3)
H17 H 0.1471 0.5416 1.0090
H18 H 0.0914 0.5275 1.1168
O2 O -0.1245(5) 0.53418(13) 0.6273(3)
O3 O 0.1022(5) 0.52311(12) 0.8169(3)
C7 C 0.0018(7) 0.55364(17) 0.7232(4)
C8 C 0.0388(6) 0.61797(17) 0.7326(4)
H19 H 0.1494 0.6319 0.7985
C9 C -0.0739(6) 0.65637(18) 0.6542(4)
H20 H -0.1791 0.6410 0.5863
C10 C -0.0546(6) 0.71985(18) 0.6600(4)
C11 C -0.2105(7) 0.75411(18) 0.5925(4)
H21 H -0.3268 0.7358 0.5422
C12 C 0.1117(6) 0.74837(17) 0.7318(4)
H22 H 0.2208 0.7259 0.7789
C13 C -0.2001(7) 0.81427(19) 0.5976(4)
H23 H -0.3083 0.8370 0.5500
C14 C -0.0350(7) 0.84164(19) 0.6698(4)
H24 H -0.0287 0.8832 0.6740
C15 C 0.1223(7) 0.80829(18) 0.7368(4)
H25 H 0.2383 0.8269 0.7865
O4 O 0.2742(5) 0.44786(12) 0.6404(3)
H26 H 0.2141 0.4672 0.6845
H27 H 0.2195 0.4535 0.5614
loop_
_geom_bond_atom_site_label_1
_geom_bond_atom_site_label_2
_geom_bond_site_symmetry_1
_geom_bond_site_symmetry_2
Ag1 N1 1_555 1_555
N1 H1 1_555 1_555
H2 N1 1_555 1_555
N2 H3 1_555 1_555
H4 N2 1_555 1_555
C1 N1 1_555 1_555
H5 C1 1_555 1_555
H6 C1 1_555 1_555
C2 C1 1_555 1_555
H7 C2 1_555 1_555
H8 C2 1_555 1_555
C3 C2 1_555 1_555
H9 C3 1_555 1_555
H10 C3 1_555 1_555
C4 C3 1_555 1_555
H11 C4 1_555 1_555
H12 C4 1_555 1_555
C5 C4 1_555 1_555
H13 C5 1_555 1_555
H14 C5 1_555 1_555
C6 N2 1_555 1_555
H15 C6 1_555 1_555
H16 C6 1_555 1_555
O1 H17 1_555 1_555
H18 O1 1_555 1_555
O2 C7 1_555 1_555
O3 C7 1_555 1_555
C7 C8 1_555 1_555
C8 H19 1_555 1_555
C9 C8 1_555 1_555
H20 C9 1_555 1_555
C10 C9 1_555 1_555
C11 C10 1_555 1_555
H21 C11 1_555 1_555
C12 C10 1_555 1_555
H22 C12 1_555 1_555
C13 C11 1_555 1_555
H23 C13 1_555 1_555
C14 C13 1_555 1_555
H24 C14 1_555 1_555
C15 C12 1_555 1_555
H25 C15 1_555 1_555
O4 H26 1_555 1_555
H27 O4 1_555 1_555
N2A Ag1 1_555 1_555
Ag1A N2 1_555 1_555
H3A N2A 1_555 1_555
H4A N2A 1_555 1_555
C5 C6 1_555 1_555
C14 C15 1_555 1_555

#END
