
#######################################################################
#
#                 Cambridge Crystallographic Data Centre
#                                CCDC 
#
#######################################################################
#
# If this CIF has been generated from an entry in the Cambridge 
# Structural Database, then it will include bibliographic, chemical, 
# crystal, experimental, refinement or atomic coordinate data resulting 
# from the CCDC's data processing and validation procedures.
#
#######################################################################

data_EVOJUU
_symmetry_cell_setting           triclinic
_symmetry_space_group_name_H-M   'P -1'
_symmetry_Int_Tables_number      2
_space_group_name_Hall           '-P 1'
loop_
_symmetry_equiv_pos_site_id
_symmetry_equiv_pos_as_xyz
1 x,y,z
2 -x,-y,-z
_cell_length_a                   7.287(2)
_cell_length_b                   7.962(3)
_cell_length_c                   9.583(3)
_cell_angle_alpha                75.643(4)
_cell_angle_beta                 76.678(4)
_cell_angle_gamma                89.697(4)
_cell_volume                     523.345
loop_
_atom_site_label
_atom_site_type_symbol
_atom_site_fract_x
_atom_site_fract_y
_atom_site_fract_z
Co1 Co 1.0000 1.0000 1.0000
N1 N 1.1850(3) 0.8070(3) 1.0628(3)
N2 N 1.7818(3) 0.8103(3) 1.0348(3)
N3 N 1.4156(4) 0.3219(3) 1.2747(3)
N4 N 1.1032(3) 0.9850(3) 0.7747(2)
N5 N 1.1752(4) 1.1255(3) 0.6724(3)
N6 N 1.2408(4) 1.0807(3) 0.5467(3)
C1 C 1.3099(4) 0.7285(3) 1.0910(3)
C2 C 1.6419(4) 0.7293(3) 1.0766(3)
C3 C 1.4417(4) 0.4634(3) 1.2075(3)
C4 C 1.4651(4) 0.6383(3) 1.1257(3)
C5 C 1.1224(4) 0.8458(3) 0.7123(3)
C6 C 1.2128(4) 0.9075(4) 0.5638(3)
C7 C 1.2561(6) 0.8002(5) 0.4669(4)
C8 C 1.2058(6) 0.6287(5) 0.5274(4)
C9 C 1.1145(5) 0.5629(4) 0.6782(4)
C10 C 1.0719(4) 0.6682(4) 0.7726(3)
H1 H 1.2945 1.1524 0.4642
H2 H 1.3157 0.8432 0.3673
H3 H 1.2324 0.5521 0.4671
H4 H 1.0826 0.4446 0.7142
H5 H 1.0123 0.6244 0.8721
N1A N 0.8150(3) 1.1930(3) 0.9372(3)
N2A N 0.2182(3) 1.1897(3) 0.9652(3)
N3A N 0.5844(4) 1.6781(3) 0.7253(3)
C1A C 0.6901(4) 1.2715(3) 0.9090(3)
C2A C 0.3581(4) 1.2707(3) 0.9234(3)
C3A C 0.5583(4) 1.5366(3) 0.7925(3)
C4A C 0.5349(4) 1.3617(3) 0.8743(3)
N4A N 0.8968(3) 1.0150(3) 1.2253(2)
N5A N 0.8248(4) 0.8745(3) 1.3276(3)
N6A N 0.7592(4) 0.9193(3) 1.4533(3)
C5A C 0.8776(4) 1.1542(3) 1.2877(3)
C6A C 0.7872(4) 1.0925(4) 1.4362(3)
C7A C 0.7439(6) 1.1998(5) 1.5331(4)
C8A C 0.7942(6) 1.3713(5) 1.4726(4)
C9A C 0.8855(5) 1.4371(4) 1.3218(4)
C10A C 0.9281(4) 1.3318(4) 1.2274(3)
H1A H 0.7055 0.8476 1.5358
H2A H 0.6843 1.1568 1.6327
H3A H 0.7676 1.4479 1.5329
H4A H 0.9174 1.5554 1.2858
H5A H 0.9877 1.3756 1.1279
N2_2 N 0.7818(3) 0.8103(3) 1.0348(3)
N2A_2 N 1.2182(3) 1.1897(3) 0.9652(3)
Co1_2 Co 2.0000 1.0000 1.0000
Co1_3 Co 0.0000 1.0000 1.0000
loop_
_geom_bond_atom_site_label_1
_geom_bond_atom_site_label_2
_geom_bond_site_symmetry_1
_geom_bond_site_symmetry_2
Co1 N1 1_555 1_555
N1 C1 1_555 1_555
N2 C2 1_555 1_555
N3 C3 1_555 1_555
N4 Co1 1_555 1_555
N5 N4 1_555 1_555
N6 N5 1_555 1_555
C1 C4 1_555 1_555
C2 C4 1_555 1_555
C3 C4 1_555 1_555
C5 N4 1_555 1_555
C6 N6 1_555 1_555
C7 C6 1_555 1_555
C8 C7 1_555 1_555
C9 C8 1_555 1_555
C10 C5 1_555 1_555
H1 N6 1_555 1_555
H2 C7 1_555 1_555
H3 C8 1_555 1_555
H4 C9 1_555 1_555
H5 C10 1_555 1_555
N1A Co1 1_555 1_555
N2A C2A 1_555 1_555
N3A C3A 1_555 1_555
C1A N1A 1_555 1_555
C2A C4A 1_555 1_555
C3A C4A 1_555 1_555
C4A C1A 1_555 1_555
N4A Co1 1_555 1_555
N5A N4A 1_555 1_555
N6A N5A 1_555 1_555
C5A N4A 1_555 1_555
C6A N6A 1_555 1_555
C7A C6A 1_555 1_555
C8A C7A 1_555 1_555
C9A C8A 1_555 1_555
C10A C5A 1_555 1_555
H1A N6A 1_555 1_555
H2A C7A 1_555 1_555
H3A C8A 1_555 1_555
H4A C9A 1_555 1_555
H5A C10A 1_555 1_555
N2_2 Co1 1_555 1_555
N2A_2 Co1 1_555 1_555
Co1_2 N2 1_555 1_555
Co1_3 N2A 1_555 1_555
C5 C6 1_555 1_555
C9 C10 1_555 1_555
C5A C6A 1_555 1_555
C9A C10A 1_555 1_555

#END
