
#######################################################################
#
#                 Cambridge Crystallographic Data Centre
#                                CCDC 
#
#######################################################################
#
# If this CIF has been generated from an entry in the Cambridge 
# Structural Database, then it will include bibliographic, chemical, 
# crystal, experimental, refinement or atomic coordinate data resulting 
# from the CCDC's data processing and validation procedures.
#
#######################################################################

data_EVOKAB
_symmetry_cell_setting           orthorhombic
_symmetry_space_group_name_H-M   'P b c a'
_symmetry_Int_Tables_number      61
_space_group_name_Hall           '-P 2ac 2ab'
loop_
_symmetry_equiv_pos_site_id
_symmetry_equiv_pos_as_xyz
1 x,y,z
2 1/2+x,y,1/2-z
3 x,1/2-y,1/2+z
4 1/2-x,1/2+y,z
5 -x,-y,-z
6 1/2-x,-y,1/2+z
7 -x,1/2+y,1/2-z
8 1/2+x,1/2-y,-z
_cell_length_a                   16.107(9)
_cell_length_b                   7.547(4)
_cell_length_c                   17.437(10)
_cell_angle_alpha                90
_cell_angle_beta                 90
_cell_angle_gamma                90
_cell_volume                     2119.63
loop_
_atom_site_label
_atom_site_type_symbol
_atom_site_fract_x
_atom_site_fract_y
_atom_site_fract_z
Mn1 Mn 1.0000 0.0000 0.5000
N1 N 0.90209(12) 0.2061(3) 0.48651(12)
N2 N 0.91420(12) 0.7795(3) 0.46990(12)
N3 N 0.71276(12) 0.4929(3) 0.35013(15)
N4 N 1.02980(11) 0.0326(2) 0.37587(11)
N5 N 0.96772(12) 0.0324(2) 0.32351(11)
C1 C 0.87257(13) 0.3349(3) 0.46441(13)
C2 C 0.87933(13) 0.6515(3) 0.45566(13)
C3 C 0.76882(14) 0.4932(3) 0.39012(15)
C4 C 0.83836(12) 0.4941(3) 0.43843(13)
C5 C 1.18246(15) 0.0637(5) 0.37143(19)
C6 C 1.09825(15) 0.0568(4) 0.33526(16)
C7 C 1.07907(17) 0.0729(4) 0.25863(17)
C8 C 0.99481(16) 0.0556(4) 0.25272(16)
C9 C 0.93761(18) 0.0582(4) 0.18576(16)
H1 H 0.9162 0.0188 0.3351
H2 H 1.1854 0.1633 0.4056
H3 H 1.2239 0.0759 0.3322
H4 H 1.1921 -0.0435 0.3997
H5 H 1.1162 0.0919 0.2186
H6 H 0.9458 -0.0470 0.1557
H7 H 0.9489 0.1607 0.1549
H8 H 0.8812 0.0624 0.2035
N1D N 1.09791(12) -0.2061(3) 0.51349(12)
N2D N 1.08580(12) -0.7795(3) 0.53010(12)
N3D N 1.28724(12) -0.4929(3) 0.64987(15)
C1D C 1.12743(13) -0.3349(3) 0.53559(13)
C2D C 1.12067(13) -0.6515(3) 0.54434(13)
C3D C 1.23118(14) -0.4932(3) 0.60988(15)
C4D C 1.16164(12) -0.4941(3) 0.56157(13)
N4D N 0.97020(11) -0.0326(2) 0.62413(11)
N5D N 1.03228(12) -0.0324(2) 0.67649(11)
C5D C 0.81754(15) -0.0637(5) 0.62857(19)
C6D C 0.90175(15) -0.0568(4) 0.66474(16)
C7D C 0.92093(17) -0.0729(4) 0.74137(17)
C8D C 1.00519(16) -0.0556(4) 0.74728(16)
C9D C 1.06239(18) -0.0582(4) 0.81424(16)
H1D H 1.0838 -0.0188 0.6649
H2D H 0.8146 -0.1633 0.5944
H3D H 0.7761 -0.0759 0.6678
H4D H 0.8079 0.0435 0.6003
H5D H 0.8838 -0.0919 0.7814
H6D H 1.0542 0.0470 0.8443
H7D H 1.0511 -0.1607 0.8451
H8D H 1.1188 -0.0624 0.7965
N2_2 N 0.91420(12) -0.2205(3) 0.46990(12)
N2D_2 N 1.08580(12) 0.2205(3) 0.53010(12)
Mn1_2 Mn 1.0000 1.0000 0.5000
Mn1_3 Mn 1.0000 -1.0000 0.5000
loop_
_geom_bond_atom_site_label_1
_geom_bond_atom_site_label_2
_geom_bond_site_symmetry_1
_geom_bond_site_symmetry_2
Mn1 N1 1_555 1_555
N1 C1 1_555 1_555
N2 C2 1_555 1_555
N3 C3 1_555 1_555
N4 Mn1 1_555 1_555
N5 N4 1_555 1_555
C1 C4 1_555 1_555
C2 C4 1_555 1_555
C3 C4 1_555 1_555
C5 C6 1_555 1_555
C6 N4 1_555 1_555
C7 C6 1_555 1_555
C8 N5 1_555 1_555
C9 C8 1_555 1_555
H1 N5 1_555 1_555
H2 C5 1_555 1_555
H3 C5 1_555 1_555
H4 C5 1_555 1_555
H5 C7 1_555 1_555
H6 C9 1_555 1_555
H7 C9 1_555 1_555
H8 C9 1_555 1_555
N1D Mn1 1_555 1_555
N2D C2D 1_555 1_555
N3D C3D 1_555 1_555
C1D N1D 1_555 1_555
C2D C4D 1_555 1_555
C3D C4D 1_555 1_555
C4D C1D 1_555 1_555
N4D Mn1 1_555 1_555
N5D N4D 1_555 1_555
C5D C6D 1_555 1_555
C6D N4D 1_555 1_555
C7D C6D 1_555 1_555
C8D N5D 1_555 1_555
C9D C8D 1_555 1_555
H1D N5D 1_555 1_555
H2D C5D 1_555 1_555
H3D C5D 1_555 1_555
H4D C5D 1_555 1_555
H5D C7D 1_555 1_555
H6D C9D 1_555 1_555
H7D C9D 1_555 1_555
H8D C9D 1_555 1_555
N2_2 Mn1 1_555 1_555
N2D_2 Mn1 1_555 1_555
Mn1_2 N2 1_555 1_555
Mn1_3 N2D 1_555 1_555
C7 C8 1_555 1_555
C7D C8D 1_555 1_555

#END
