
#######################################################################
#
#                 Cambridge Crystallographic Data Centre
#                                CCDC 
#
#######################################################################
#
# If this CIF has been generated from an entry in the Cambridge 
# Structural Database, then it will include bibliographic, chemical, 
# crystal, experimental, refinement or atomic coordinate data resulting 
# from the CCDC's data processing and validation procedures.
#
#######################################################################

data_EVOLIK
_symmetry_cell_setting           orthorhombic
_symmetry_space_group_name_H-M   'P 21 21 21'
_symmetry_Int_Tables_number      19
_space_group_name_Hall           'P 2ac 2ab'
loop_
_symmetry_equiv_pos_site_id
_symmetry_equiv_pos_as_xyz
1 x,y,z
2 1/2-x,-y,1/2+z
3 -x,1/2+y,1/2-z
4 1/2+x,1/2-y,-z
_cell_length_a                   5.3131(6)
_cell_length_b                   17.727(2)
_cell_length_c                   23.382(3)
_cell_angle_alpha                90
_cell_angle_beta                 90
_cell_angle_gamma                90
_cell_volume                     2202.24
loop_
_atom_site_label
_atom_site_type_symbol
_atom_site_fract_x
_atom_site_fract_y
_atom_site_fract_z
Mn1 Mn 0.72871(5) 0.609304(14) 0.134143(10)
S1 S -0.14391(8) 0.47668(3) -0.044760(19)
C1 C 0.4396(4) 0.46327(12) 0.18564(9)
H1 H 0.3425 0.4685 0.1528
C2 C 0.3920(5) 0.40278(12) 0.22153(10)
H2 H 0.2657 0.3682 0.2130
C3 C 0.5364(5) 0.39494(13) 0.27025(9)
H3 H 0.5111 0.3544 0.2948
C4 C 0.7183(5) 0.44806(11) 0.28187(8)
H4 H 0.8151 0.4442 0.3149
C5 C 0.7565(4) 0.50734(10) 0.24413(7)
C6 C 0.9517(4) 0.56641(11) 0.25393(8)
C7 C 1.1166(5) 0.56643(12) 0.29969(8)
H5 H 1.1052 0.5294 0.3278
C8 C 1.2975(4) 0.62155(12) 0.30330(9)
H6 H 1.4108 0.6220 0.3336
C9 C 1.3095(4) 0.67631(13) 0.26149(9)
H7 H 1.4312 0.7139 0.2629
C10 C 1.1383(4) 0.67400(12) 0.21791(8)
H8 H 1.1450 0.7114 0.1900
C11 C 0.1614(4) 0.36282(11) -0.00700(10)
H9 H 0.2522 0.3699 -0.0406
C12 C 0.2351(5) 0.30903(11) 0.03214(11)
H10 H 0.3773 0.2801 0.0246
C13 C 0.1035(5) 0.29682(12) 0.08239(11)
C14 C 0.1867(6) 0.23595(15) 0.12361(12)
H11 H 0.3340 0.2114 0.1089
H12 H 0.0541 0.1996 0.1281
H13 H 0.2247 0.2582 0.1600
C15 C -0.1054(5) 0.34143(13) 0.09320(10)
H14 H -0.1951 0.3347 0.1270
C16 C -0.1829(4) 0.39597(12) 0.05442(9)
H15 H -0.3237 0.4255 0.0621
C17 C -0.0487(4) 0.40607(10) 0.00420(8)
C18 C 0.1613(3) 0.57935(9) -0.00158(7)
H16 H 0.2727 0.5463 -0.0236
C19 C 0.2280(3) 0.56896(8) 0.06176(7)
C20 C 0.2148(4) 0.66118(9) -0.02092(7)
H17 H 0.1050 0.6955 -0.0004
H18 H 0.3875 0.6743 -0.0118
C21 C 0.1722(5) 0.66970(12) -0.08468(8)
H19 H 0.2935 0.6386 -0.1048
H20 H 0.0055 0.6510 -0.0940
C22 C 0.1951(4) 0.74996(11) -0.10572(8)
N1 N 0.6189(3) 0.51462(9) 0.19599(6)
N2 N 0.9621(3) 0.62064(9) 0.21345(6)
N3 N -0.0976(3) 0.55724(8) -0.01471(6)
H21 H -0.2217 0.5865 -0.0066
O1 O 0.0201(3) 0.47177(9) -0.09317(6)
O2 O -0.4094(3) 0.46984(9) -0.05359(7)
O3 O 0.4627(2) 0.57134(8) 0.07255(5)
O4 O 0.3317(4) 0.79552(9) -0.07940(8)
O5 O 0.0809(3) 0.77036(9) -0.14941(6)
O6 O 0.0623(2) 0.55700(8) 0.09768(5)
O4C O 0.8317(4) 0.70448(9) 0.07940(8)
O5C O 0.5809(3) 0.72964(9) 0.14941(6)
O6_2 O 1.0623(2) 0.55700(8) 0.09768(5)
Mn1C Mn 0.22871(5) 0.890696(14) -0.134143(10)
Mn1_2 Mn -0.27129(5) 0.609304(14) 0.134143(10)
loop_
_geom_bond_atom_site_label_1
_geom_bond_atom_site_label_2
_geom_bond_site_symmetry_1
_geom_bond_site_symmetry_2
Mn1 N1 1_555 1_555
S1 C17 1_555 1_555
C1 H1 1_555 1_555
C2 C1 1_555 1_555
H2 C2 1_555 1_555
C3 C2 1_555 1_555
H3 C3 1_555 1_555
C4 C3 1_555 1_555
H4 C4 1_555 1_555
C5 C4 1_555 1_555
C6 C5 1_555 1_555
C7 C6 1_555 1_555
H5 C7 1_555 1_555
C8 C7 1_555 1_555
H6 C8 1_555 1_555
C9 C8 1_555 1_555
H7 C9 1_555 1_555
C10 C9 1_555 1_555
H8 C10 1_555 1_555
C11 H9 1_555 1_555
C12 C11 1_555 1_555
H10 C12 1_555 1_555
C13 C12 1_555 1_555
C14 C13 1_555 1_555
H11 C14 1_555 1_555
H12 C14 1_555 1_555
H13 C14 1_555 1_555
C15 C13 1_555 1_555
H14 C15 1_555 1_555
C16 C15 1_555 1_555
H15 C16 1_555 1_555
C17 C11 1_555 1_555
C18 H16 1_555 1_555
C19 C18 1_555 1_555
C20 C18 1_555 1_555
H17 C20 1_555 1_555
H18 C20 1_555 1_555
C21 C20 1_555 1_555
H19 C21 1_555 1_555
H20 C21 1_555 1_555
C22 C21 1_555 1_555
N1 C1 1_555 1_555
N2 Mn1 1_555 1_555
N3 S1 1_555 1_555
H21 N3 1_555 1_555
O1 S1 1_555 1_555
O2 S1 1_555 1_555
O3 Mn1 1_555 1_555
O4 C22 1_555 1_555
O5 C22 1_555 1_555
O6 C19 1_555 1_555
O4C Mn1 1_555 1_555
O5C Mn1 1_555 1_555
O6_2 Mn1 1_555 1_555
Mn1C O4 1_555 1_555
Mn1_2 O6 1_555 1_555
C5 N1 1_555 1_555
C6 N2 1_555 1_555
C10 N2 1_555 1_555
C16 C17 1_555 1_555
C18 N3 1_555 1_555
C19 O3 1_555 1_555
O5 Mn1C 1_555 1_555

#END
