
#######################################################################
#
#                 Cambridge Crystallographic Data Centre
#                                CCDC 
#
#######################################################################
#
# If this CIF has been generated from an entry in the Cambridge 
# Structural Database, then it will include bibliographic, chemical, 
# crystal, experimental, refinement or atomic coordinate data resulting 
# from the CCDC's data processing and validation procedures.
#
#######################################################################

data_EVOMAD
_symmetry_cell_setting           triclinic
_symmetry_space_group_name_H-M   'P -1'
_symmetry_Int_Tables_number      2
_space_group_name_Hall           '-P 1'
loop_
_symmetry_equiv_pos_site_id
_symmetry_equiv_pos_as_xyz
1 x,y,z
2 -x,-y,-z
_cell_length_a                   9.441(6)
_cell_length_b                   9.805(6)
_cell_length_c                   13.936(9)
_cell_angle_alpha                102.385(11)
_cell_angle_beta                 98.580(12)
_cell_angle_gamma                101.351(11)
_cell_volume                     1210.45
loop_
_atom_site_label
_atom_site_type_symbol
_atom_site_fract_x
_atom_site_fract_y
_atom_site_fract_z
Ag1 Ag 0.50351(6) 0.74897(6) 0.98894(4)
S1 S 0.6038(2) 0.53961(19) 0.90899(14)
S2 S 0.66958(18) 0.97716(19) 0.97168(13)
N1 N 0.5194(7) 0.2206(6) 0.8363(4)
H1 H 0.6155 0.2501 0.8351
H2 H 0.4917 0.1260 0.8063
N2 N 0.7575(6) 1.2978(6) 1.0613(5)
H3 H 0.7963 1.2829 1.0059
H4 H 0.7916 1.3912 1.0937
C1 C 0.7513(7) 0.5961(8) 0.8443(6)
H5 H 0.8386 0.6504 0.8940
H6 H 0.7751 0.5112 0.8066
C2 C 0.7141(7) 0.6850(7) 0.7750(6)
C3 C 0.6581(8) 0.6177(9) 0.6744(6)
H7 H 0.6469 0.5190 0.6525
C4 C 0.6194(10) 0.6917(9) 0.6078(6)
H8 H 0.5780 0.6434 0.5414
C5 C 0.6407(10) 0.8371(9) 0.6375(7)
H9 H 0.6147 0.8885 0.5915
C6 C 0.7005(8) 0.9068(8) 0.7353(6)
H10 H 0.7138 1.0060 0.7556
C7 C 0.7410(7) 0.8342(7) 0.8036(5)
C8 C 0.8091(7) 0.9186(7) 0.9087(5)
H11 H 0.8840 1.0015 0.9080
H12 H 0.8560 0.8595 0.9446
C9 C 0.4635(8) 0.4397(8) 0.8059(5)
C10 C 0.3802(8) 0.5079(9) 0.7502(6)
H13 H 0.3944 0.6073 0.7696
C11 C 0.2772(9) 0.4300(10) 0.6669(6)
H14 H 0.2204 0.4756 0.6299
C12 C 0.2587(9) 0.2847(11) 0.6388(6)
H15 H 0.1911 0.2319 0.5808
C13 C 0.3370(8) 0.2152(9) 0.6936(6)
H16 H 0.3207 0.1156 0.6738
C14 C 0.4400(7) 0.2914(7) 0.7782(5)
C15 C 0.7762(7) 1.0669(7) 1.0934(5)
C16 C 0.8256(8) 0.9879(8) 1.1560(6)
H17 H 0.8031 0.8881 1.1347
C17 C 0.9074(9) 1.0555(10) 1.2492(6)
H18 H 0.9417 1.0021 1.2913
C18 C 0.9390(9) 1.2018(10) 1.2805(6)
H19 H 0.9940 1.2479 1.3445
C19 C 0.8902(8) 1.2811(8) 1.2185(6)
H20 H 0.9121 1.3807 1.2411
C20 C 0.8092(7) 1.2156(7) 1.1231(5)
N1A N 0.4806(7) 0.7794(6) 1.1637(4)
N2A N 0.2425(6) 0.7022(6) 0.9387(5)
Ag1A Ag 0.49649(6) 0.25103(6) 1.01106(4)
Ag1A_2 Ag 0.49649(6) 1.25103(6) 1.01106(4)
H1A H 0.3845 0.7499 1.1649
H2A H 0.5083 0.8740 1.1937
H3A H 0.2037 0.7171 0.9941
H4A H 0.2084 0.6088 0.9063
C21 C 0.8248(9) 0.2444(8) 0.5954(6)
H21 H 0.8803 0.2676 0.6644
Cl1 Cl 0.6404(3) 0.2104(3) 0.5995(2)
Cl2 Cl 0.8785(3) 0.3900(3) 0.5468(2)
Cl3 Cl 0.8698(3) 0.0933(3) 0.5284(2)
N3 N 0.0262(8) 0.6789(8) 0.1288(6)
O1 O -0.0375(10) 0.6207(10) 0.1811(7)
O2 O -0.0298(12) 0.6992(13) 0.0539(7)
O3 O 0.1554(7) 0.7287(7) 0.1542(6)
loop_
_geom_bond_atom_site_label_1
_geom_bond_atom_site_label_2
_geom_bond_site_symmetry_1
_geom_bond_site_symmetry_2
Ag1 S1 1_555 1_555
S1 C1 1_555 1_555
S2 Ag1 1_555 1_555
N1 H1 1_555 1_555
H2 N1 1_555 1_555
N2 H3 1_555 1_555
H4 N2 1_555 1_555
C1 H5 1_555 1_555
H6 C1 1_555 1_555
C2 C1 1_555 1_555
C3 C2 1_555 1_555
H7 C3 1_555 1_555
C4 C3 1_555 1_555
H8 C4 1_555 1_555
C5 C4 1_555 1_555
H9 C5 1_555 1_555
C6 C5 1_555 1_555
H10 C6 1_555 1_555
C7 C2 1_555 1_555
C8 S2 1_555 1_555
H11 C8 1_555 1_555
H12 C8 1_555 1_555
C9 S1 1_555 1_555
C10 C9 1_555 1_555
H13 C10 1_555 1_555
C11 C10 1_555 1_555
H14 C11 1_555 1_555
C12 C11 1_555 1_555
H15 C12 1_555 1_555
C13 C12 1_555 1_555
H16 C13 1_555 1_555
C14 N1 1_555 1_555
C15 S2 1_555 1_555
C16 C15 1_555 1_555
H17 C16 1_555 1_555
C17 C16 1_555 1_555
H18 C17 1_555 1_555
C18 C17 1_555 1_555
H19 C18 1_555 1_555
C19 C18 1_555 1_555
H20 C19 1_555 1_555
C20 N2 1_555 1_555
C21 H21 1_555 1_555
Cl1 C21 1_555 1_555
Cl2 C21 1_555 1_555
Cl3 C21 1_555 1_555
N3 O1 1_555 1_555
O2 N3 1_555 1_555
O3 N3 1_555 1_555
N1A Ag1 1_555 1_555
N2A Ag1 1_555 1_555
Ag1A N1 1_555 1_555
Ag1A_2 N2 1_555 1_555
H1A N1A 1_555 1_555
H2A N1A 1_555 1_555
H3A N2A 1_555 1_555
H4A N2A 1_555 1_555
C6 C7 1_555 1_555
C7 C8 1_555 1_555
C9 C14 1_555 1_555
C13 C14 1_555 1_555
C15 C20 1_555 1_555
C19 C20 1_555 1_555

#END
