
#######################################################################
#
#                 Cambridge Crystallographic Data Centre
#                                CCDC 
#
#######################################################################
#
# If this CIF has been generated from an entry in the Cambridge 
# Structural Database, then it will include bibliographic, chemical, 
# crystal, experimental, refinement or atomic coordinate data resulting 
# from the CCDC's data processing and validation procedures.
#
#######################################################################

data_EVOMUX
_symmetry_cell_setting           monoclinic
_symmetry_space_group_name_H-M   'P 21/n'
_symmetry_Int_Tables_number      14
_space_group_name_Hall           '-P 2yn'
loop_
_symmetry_equiv_pos_site_id
_symmetry_equiv_pos_as_xyz
1 x,y,z
2 1/2+x,1/2-y,1/2+z
3 -x,-y,-z
4 1/2-x,1/2+y,1/2-z
_cell_length_a                   9.8637(2)
_cell_length_b                   16.3316(5)
_cell_length_c                   11.31100(10)
_cell_angle_alpha                90
_cell_angle_beta                 111.726(2)
_cell_angle_gamma                90
_cell_volume                     1692.66
loop_
_atom_site_label
_atom_site_type_symbol
_atom_site_fract_x
_atom_site_fract_y
_atom_site_fract_z
Mn1 Mn 0.29665(5) 0.04021(3) 0.12849(5)
O1 O 0.0809(2) 0.09837(15) 0.1140(2)
O2 O 0.2808(2) 0.13618(15) 0.2681(2)
O3 O -0.1197(3) 0.38453(16) 0.5214(2)
O4 O -0.3006(3) 0.38864(19) 0.3321(3)
O5 O 0.1858(3) -0.02654(17) -0.0456(3)
H1 H 0.105(3) -0.054(3) -0.067(5)
H2 H 0.172(5) 0.011(2) -0.101(4)
N1 N 0.2832(3) -0.06673(18) 0.2505(3)
N2 N 0.5235(3) 0.01268(19) 0.2626(3)
C1 C 0.0596(3) 0.1985(2) 0.2614(3)
C2 C 0.1288(4) 0.2408(2) 0.3730(3)
H3 H 0.2284 0.2338 0.4172
C3 C 0.0514(4) 0.2933(2) 0.4196(3)
H4 H 0.0993 0.3209 0.4956
C4 C -0.0965(3) 0.3057(2) 0.3552(3)
C5 C -0.1640(4) 0.2656(2) 0.2410(3)
H5 H -0.2623 0.2752 0.1943
C6 C -0.0877(4) 0.2115(2) 0.1951(3)
H6 H -0.1356 0.1836 0.1194
C7 C 0.1469(4) 0.1414(2) 0.2124(3)
C8 C -0.1799(4) 0.3642(2) 0.4064(3)
C9 C 0.1606(4) -0.1075(3) 0.2371(4)
H7 H 0.0757 -0.0945 0.1688
C10 C 0.1548(5) -0.1676(3) 0.3197(5)
H8 H 0.0679 -0.1951 0.3069
C11 C 0.2787(5) -0.1866(3) 0.4209(4)
H9 H 0.2769 -0.2269 0.4783
C12 C 0.4063(5) -0.1456(2) 0.4373(4)
H10 H 0.4914 -0.1576 0.5060
C13 C 0.4058(4) -0.0861(2) 0.3494(3)
C14 C 0.5393(4) -0.0403(2) 0.3574(3)
C15 C 0.6717(4) -0.0510(2) 0.4556(4)
H11 H 0.6807 -0.0880 0.5206
C16 C 0.7904(5) -0.0066(3) 0.4568(4)
H12 H 0.8802 -0.0129 0.5230
C17 C 0.7753(5) 0.0475(3) 0.3589(4)
H13 H 0.8544 0.0779 0.3572
C18 C 0.6407(4) 0.0552(3) 0.2645(4)
H14 H 0.6298 0.0917 0.1985
O3A O 0.3803(3) 0.11547(16) 0.0214(2)
Mn1A Mn -0.20335(5) 0.45979(3) 0.62849(5)
loop_
_geom_bond_atom_site_label_1
_geom_bond_atom_site_label_2
_geom_bond_site_symmetry_1
_geom_bond_site_symmetry_2
Mn1 O1 1_555 1_555
O1 C7 1_555 1_555
O2 Mn1 1_555 1_555
O3 C8 1_555 1_555
O4 C8 1_555 1_555
O5 Mn1 1_555 1_555
H1 O5 1_555 1_555
H2 O5 1_555 1_555
N1 Mn1 1_555 1_555
N2 Mn1 1_555 1_555
C1 C2 1_555 1_555
C2 H3 1_555 1_555
C3 C2 1_555 1_555
H4 C3 1_555 1_555
C4 C3 1_555 1_555
C5 C4 1_555 1_555
H5 C5 1_555 1_555
C6 C1 1_555 1_555
H6 C6 1_555 1_555
C7 O2 1_555 1_555
C8 C4 1_555 1_555
C9 N1 1_555 1_555
H7 C9 1_555 1_555
C10 C9 1_555 1_555
H8 C10 1_555 1_555
C11 C10 1_555 1_555
H9 C11 1_555 1_555
C12 C11 1_555 1_555
H10 C12 1_555 1_555
C13 N1 1_555 1_555
C14 N2 1_555 1_555
C15 C14 1_555 1_555
H11 C15 1_555 1_555
C16 C15 1_555 1_555
H12 C16 1_555 1_555
C17 C16 1_555 1_555
H13 C17 1_555 1_555
C18 N2 1_555 1_555
H14 C18 1_555 1_555
O3A Mn1 1_555 1_555
Mn1A O3 1_555 1_555
C1 C7 1_555 1_555
C5 C6 1_555 1_555
C12 C13 1_555 1_555
C13 C14 1_555 1_555
C17 C18 1_555 1_555

#END
