
#######################################################################
#
#                 Cambridge Crystallographic Data Centre
#                                CCDC 
#
#######################################################################
#
# If this CIF has been generated from an entry in the Cambridge 
# Structural Database, then it will include bibliographic, chemical, 
# crystal, experimental, refinement or atomic coordinate data resulting 
# from the CCDC's data processing and validation procedures.
#
#######################################################################

data_EVOMUX01
_symmetry_cell_setting           monoclinic
_symmetry_space_group_name_H-M   'P 21/n'
_symmetry_Int_Tables_number      14
_space_group_name_Hall           '-P 2yn'
loop_
_symmetry_equiv_pos_site_id
_symmetry_equiv_pos_as_xyz
1 x,y,z
2 1/2-x,1/2+y,1/2-z
3 -x,-y,-z
4 1/2+x,1/2-y,1/2+z
_cell_length_a                   9.8665(3)
_cell_length_b                   16.3330(6)
_cell_length_c                   11.3035(4)
_cell_angle_alpha                90
_cell_angle_beta                 111.6760(10)
_cell_angle_gamma                90
_cell_volume                     1692.75
loop_
_atom_site_label
_atom_site_type_symbol
_atom_site_fract_x
_atom_site_fract_y
_atom_site_fract_z
Mn1 Mn 0.20330(3) 0.040200(14) 0.87156(2)
N1 N 0.21727(16) -0.06656(9) 0.74936(14)
N2 N -0.02403(16) 0.01267(9) 0.73768(13)
C1 C -0.0394(2) -0.04042(10) 0.64244(16)
C2 C 0.09379(19) -0.08615(10) 0.65064(15)
C3 C -0.2757(2) 0.04737(14) 0.6407(2)
H1 H -0.3547 0.0779 0.6422
C4 C -0.1403(2) 0.05492(13) 0.73573(19)
H2 H -0.1294 0.0913 0.8019
C5 C 0.0939(2) -0.14610(11) 0.56278(18)
H3 H 0.0089 -0.1583 0.4941
C6 C -0.1718(2) -0.05106(12) 0.54393(18)
H4 H -0.1806 -0.0878 0.4786
C7 C 0.2210(3) -0.18688(12) 0.5789(2)
H5 H 0.2228 -0.2273 0.5215
C8 C -0.2907(2) -0.00678(15) 0.54330(19)
H6 H -0.3807 -0.0134 0.4775
C9 C 0.3401(2) -0.10711(12) 0.7625(2)
H7 H 0.4252 -0.0936 0.8302
C10 C 0.3455(3) -0.16760(13) 0.6804(2)
H8 H 0.4323 -0.1952 0.6932
O1 O 0.11977(13) 0.11548(8) 0.97884(11)
O2 O 0.30075(14) 0.11139(9) 1.16802(13)
C11 C 0.09649(17) 0.19428(10) 1.14526(14)
C12 C 0.18034(18) 0.13567(10) 1.09462(15)
C13 C 0.16453(19) 0.23476(11) 1.25908(16)
H9 H 0.2631 0.2257 1.3053
C14 C -0.05171(19) 0.20656(12) 1.07967(16)
H10 H -0.0993 0.1790 1.0035
O3 O -0.28076(12) 0.36371(7) 1.23201(11)
O4 O -0.08053(13) 0.40158(7) 1.38579(11)
C15 C -0.05983(17) 0.30150(9) 1.23863(14)
C16 C -0.14642(18) 0.35856(9) 1.28780(14)
C17 C 0.08777(18) 0.28857(11) 1.30493(16)
H11 H 0.1354 0.3163 1.3808
C18 C -0.12899(19) 0.25937(12) 1.12666(16)
H12 H -0.2285 0.2666 1.0825
O5 O 0.31520(14) -0.02676(7) 1.04561(12)
H13 H 0.3395 0.0049 1.1061
Mn1C Mn -0.29670(3) 0.459800(14) 1.37156(2)
O3C O 0.21924(12) 0.13629(7) 0.73201(11)
O4C O 0.41947(13) 0.09842(7) 0.88579(11)
loop_
_geom_bond_atom_site_label_1
_geom_bond_atom_site_label_2
_geom_bond_site_symmetry_1
_geom_bond_site_symmetry_2
Mn1 N1 1_555 1_555
N1 C2 1_555 1_555
N2 Mn1 1_555 1_555
C1 N2 1_555 1_555
C2 C1 1_555 1_555
C3 H1 1_555 1_555
C4 N2 1_555 1_555
H2 C4 1_555 1_555
C5 C2 1_555 1_555
H3 C5 1_555 1_555
C6 C1 1_555 1_555
H4 C6 1_555 1_555
C7 C5 1_555 1_555
H5 C7 1_555 1_555
C8 C3 1_555 1_555
H6 C8 1_555 1_555
C9 N1 1_555 1_555
H7 C9 1_555 1_555
C10 C7 1_555 1_555
H8 C10 1_555 1_555
O1 Mn1 1_555 1_555
O2 C12 1_555 1_555
C11 C12 1_555 1_555
C12 O1 1_555 1_555
C13 C11 1_555 1_555
H9 C13 1_555 1_555
C14 C11 1_555 1_555
H10 C14 1_555 1_555
O3 C16 1_555 1_555
O4 C16 1_555 1_555
C15 C16 1_555 1_555
C17 C13 1_555 1_555
H11 C17 1_555 1_555
C18 C14 1_555 1_555
H12 C18 1_555 1_555
O5 Mn1 1_555 1_555
H13 O5 1_555 1_555
Mn1C O3 1_555 1_555
O3C Mn1 1_555 1_555
O4C Mn1 1_555 1_555
C3 C4 1_555 1_555
C6 C8 1_555 1_555
C9 C10 1_555 1_555
O4 Mn1C 1_555 1_555
C15 C17 1_555 1_555
C15 C18 1_555 1_555

#END
