
#######################################################################
#
#                 Cambridge Crystallographic Data Centre
#                                CCDC 
#
#######################################################################
#
# If this CIF has been generated from an entry in the Cambridge 
# Structural Database, then it will include bibliographic, chemical, 
# crystal, experimental, refinement or atomic coordinate data resulting 
# from the CCDC's data processing and validation procedures.
#
#######################################################################

data_EVONOS
_symmetry_cell_setting           monoclinic
_symmetry_space_group_name_H-M   'P 21/n'
_symmetry_Int_Tables_number      14
_space_group_name_Hall           '-P 2yn'
loop_
_symmetry_equiv_pos_site_id
_symmetry_equiv_pos_as_xyz
1 x,y,z
2 1/2+x,1/2-y,1/2+z
3 -x,-y,-z
4 1/2-x,1/2+y,1/2-z
_cell_length_a                   6.9909(14)
_cell_length_b                   11.719(2)
_cell_length_c                   11.2519(16)
_cell_angle_alpha                90
_cell_angle_beta                 96.909(9)
_cell_angle_gamma                90
_cell_volume                     915.133
loop_
_atom_site_label
_atom_site_type_symbol
_atom_site_fract_x
_atom_site_fract_y
_atom_site_fract_z
Fe1 Fe 0.0000 0.0000 0.0000
O1 O -0.0580(4) 0.1233(2) -0.1363(3)
O2 O -0.3757(4) 0.1397(3) -0.1436(3)
H1 H -0.4609 0.1784 -0.1805
O3 O -0.6605(3) 0.3983(2) -0.3835(3)
O4 O -0.6370(4) 0.2549(3) -0.2532(3)
N1 N -0.2813(4) 0.3899(2) -0.4109(3)
N2 N -0.0473(4) 0.2893(3) -0.3146(3)
H2 H 0.0669 0.2639 -0.2927
C1 C -0.0945(5) 0.3696(3) -0.3973(4)
H3 H -0.0066 0.4066 -0.4399
C2 C -0.2112(5) 0.2546(3) -0.2709(3)
C3 C -0.3561(5) 0.3188(3) -0.3313(3)
C4 C -0.2124(6) 0.1666(3) -0.1772(3)
C5 C -0.5645(5) 0.3245(3) -0.3223(3)
O1B O 0.0580(4) -0.1233(2) 0.1363(3)
O2B O 0.3757(4) -0.1397(3) 0.1436(3)
H1B H 0.4609 -0.1784 0.1805
O3B O 0.6605(3) -0.3983(2) 0.3835(3)
O4B O 0.6370(4) -0.2549(3) 0.2532(3)
N1B N 0.2813(4) -0.3899(2) 0.4109(3)
N2B N 0.0473(4) -0.2893(3) 0.3146(3)
H2B H -0.0669 -0.2639 0.2927
C1B C 0.0945(5) -0.3696(3) 0.3973(4)
H3B H 0.0066 -0.4066 0.4399
C2B C 0.2112(5) -0.2546(3) 0.2709(3)
C3B C 0.3561(5) -0.3188(3) 0.3313(3)
C4B C 0.2124(6) -0.1666(3) 0.1772(3)
C5B C 0.5645(5) -0.3245(3) 0.3223(3)
O3A O -0.1605(3) 0.1017(2) 0.1165(3)
O3C O 0.1605(3) -0.1017(2) -0.1165(3)
N1A N 0.2187(4) 0.1101(2) 0.0891(3)
N1C N -0.2187(4) -0.1101(2) -0.0891(3)
Fe1A Fe -0.5000 0.5000 -0.5000
Fe1A_2 Fe 0.5000 -0.5000 0.5000
loop_
_geom_bond_atom_site_label_1
_geom_bond_atom_site_label_2
_geom_bond_site_symmetry_1
_geom_bond_site_symmetry_2
Fe1 O1 1_555 1_555
O1 C4 1_555 1_555
O2 H1 1_555 1_555
O3 C5 1_555 1_555
O4 C5 1_555 1_555
N1 C1 1_555 1_555
N2 H2 1_555 1_555
C1 N2 1_555 1_555
H3 C1 1_555 1_555
C2 N2 1_555 1_555
C3 N1 1_555 1_555
C4 O2 1_555 1_555
C5 C3 1_555 1_555
O1B Fe1 1_555 1_555
O2B H1B 1_555 1_555
O3B C5B 1_555 1_555
O4B C5B 1_555 1_555
N1B C1B 1_555 1_555
N2B H2B 1_555 1_555
C1B N2B 1_555 1_555
H3B C1B 1_555 1_555
C2B N2B 1_555 1_555
C3B N1B 1_555 1_555
C4B O1B 1_555 1_555
C5B C3B 1_555 1_555
O3A Fe1 1_555 1_555
O3C Fe1 1_555 1_555
N1A Fe1 1_555 1_555
N1C Fe1 1_555 1_555
Fe1A O3 1_555 1_555
Fe1A_2 O3B 1_555 1_555
N1 Fe1A 1_555 1_555
C2 C4 1_555 1_555
C2 C3 1_555 1_555
O2B C4B 1_555 1_555
N1B Fe1A_2 1_555 1_555
C2B C4B 1_555 1_555
C2B C3B 1_555 1_555

#END
