
#######################################################################
#
#                 Cambridge Crystallographic Data Centre
#                                CCDC 
#
#######################################################################
#
# If this CIF has been generated from an entry in the Cambridge 
# Structural Database, then it will include bibliographic, chemical, 
# crystal, experimental, refinement or atomic coordinate data resulting 
# from the CCDC's data processing and validation procedures.
#
#######################################################################

data_EVOZOE
_symmetry_cell_setting           triclinic
_symmetry_space_group_name_H-M   'P -1'
_symmetry_Int_Tables_number      2
_space_group_name_Hall           '-P 1'
loop_
_symmetry_equiv_pos_site_id
_symmetry_equiv_pos_as_xyz
1 x,y,z
2 -x,-y,-z
_cell_length_a                   5.3512(2)
_cell_length_b                   11.3828(4)
_cell_length_c                   15.8307(5)
_cell_angle_alpha                99.338(2)
_cell_angle_beta                 92.850(2)
_cell_angle_gamma                95.350(2)
_cell_volume                     945.285
loop_
_atom_site_label
_atom_site_type_symbol
_atom_site_fract_x
_atom_site_fract_y
_atom_site_fract_z
Zn1 Zn 0.28925(6) -0.16783(3) -0.014350(19)
P1 P -0.24876(13) -0.29348(6) -0.07009(5)
P2 P 0.36186(13) 0.01343(7) -0.14273(4)
O1 O -0.2359(4) -0.21537(19) -0.14295(13)
H1 H -0.114(7) -0.178(3) -0.143(2)
O2 O -0.0474(3) -0.24154(17) 0.00151(11)
O3 O -0.5107(3) -0.29917(17) -0.03989(13)
O4 O -1.1445(5) -0.7383(2) -0.35287(16)
O5 O -1.0769(4) -0.5827(2) -0.42133(13)
O6 O 0.1895(4) 0.1154(2) -0.14907(13)
H2 H 0.159(7) 0.141(4) -0.114(2)
O7 O 0.2126(4) -0.09161(18) -0.11361(12)
O8 O 0.5980(4) 0.05652(18) -0.08622(12)
O9 O -0.4877(5) -0.1697(2) -0.53761(15)
O10 O -0.4962(4) -0.3408(2) -0.48561(14)
C1 C -0.1908(6) -0.4422(3) -0.1173(2)
H3 H -0.179(6) -0.487(3) -0.069(2)
H4 H -0.034(6) -0.432(3) -0.142(2)
C2 C -0.3976(5) -0.4996(3) -0.18434(18)
C3 C -0.4291(6) -0.4569(3) -0.26104(19)
H5 H -0.322(6) -0.397(3) -0.272(2)
C4 C -0.6292(6) -0.5029(3) -0.31988(19)
H6 H -0.653(6) -0.471(3) -0.371(2)
C5 C -0.7996(6) -0.5944(3) -0.30185(18)
C6 C -0.7656(6) -0.6398(3) -0.2268(2)
H7 H -0.876(6) -0.705(3) -0.217(2)
C7 C -0.5663(6) -0.5921(3) -0.1676(2)
H8 H -0.555(6) -0.616(3) -0.111(2)
C8 C -1.0206(6) -0.6426(3) -0.36229(19)
C9 C 0.4441(6) -0.0277(3) -0.25086(18)
H9 H 0.525(6) 0.041(3) -0.268(2)
H10 H 0.562(6) -0.081(3) -0.252(2)
C10 C 0.2232(5) -0.0818(3) -0.31270(17)
C11 C 0.0853(6) -0.0090(3) -0.35628(19)
H11 H 0.123(6) 0.076(3) -0.345(2)
C12 C -0.1159(6) -0.0589(3) -0.41292(19)
H12 H -0.215(6) -0.008(3) -0.437(2)
C13 C -0.1838(5) -0.1827(3) -0.42637(17)
C14 C -0.0473(6) -0.2551(3) -0.38348(19)
H13 H -0.075(6) -0.341(3) -0.394(2)
C15 C 0.1546(6) -0.2044(3) -0.32723(19)
H14 H 0.245(6) -0.257(3) -0.300(2)
C16 C -0.4030(6) -0.2348(3) -0.48653(18)
O3_2 O 0.4893(3) -0.29917(17) -0.03989(13)
O8A O 0.4020(4) -0.05652(18) 0.08622(12)
Zn1_2 Zn -0.71075(6) -0.16783(3) -0.014350(19)
Zn1A Zn 0.71075(6) 0.16783(3) 0.014350(19)
loop_
_geom_bond_atom_site_label_1
_geom_bond_atom_site_label_2
_geom_bond_site_symmetry_1
_geom_bond_site_symmetry_2
Zn1 O2 1_555 1_555
P1 O1 1_555 1_555
P2 O6 1_555 1_555
O1 H1 1_555 1_555
O2 P1 1_555 1_555
O3 P1 1_555 1_555
O4 C8 1_555 1_555
O5 C8 1_555 1_555
O6 H2 1_555 1_555
O7 Zn1 1_555 1_555
O8 P2 1_555 1_555
O9 C16 1_555 1_555
O10 C16 1_555 1_555
C1 P1 1_555 1_555
H3 C1 1_555 1_555
H4 C1 1_555 1_555
C2 C1 1_555 1_555
C3 C2 1_555 1_555
H5 C3 1_555 1_555
C4 C3 1_555 1_555
H6 C4 1_555 1_555
C5 C4 1_555 1_555
C6 C5 1_555 1_555
H7 C6 1_555 1_555
C7 C2 1_555 1_555
H8 C7 1_555 1_555
C8 C5 1_555 1_555
C9 P2 1_555 1_555
H9 C9 1_555 1_555
H10 C9 1_555 1_555
C10 C9 1_555 1_555
C11 C10 1_555 1_555
H11 C11 1_555 1_555
C12 C11 1_555 1_555
H12 C12 1_555 1_555
C13 C12 1_555 1_555
C14 C13 1_555 1_555
H13 C14 1_555 1_555
C15 C10 1_555 1_555
H14 C15 1_555 1_555
C16 C13 1_555 1_555
O3_2 Zn1 1_555 1_555
O8A Zn1 1_555 1_555
Zn1_2 O3 1_555 1_555
Zn1A O8 1_555 1_555
P2 O7 1_555 1_555
C6 C7 1_555 1_555
C14 C15 1_555 1_555

#END
