
#######################################################################
#
#                 Cambridge Crystallographic Data Centre
#                                CCDC 
#
#######################################################################
#
# If this CIF has been generated from an entry in the Cambridge 
# Structural Database, then it will include bibliographic, chemical, 
# crystal, experimental, refinement or atomic coordinate data resulting 
# from the CCDC's data processing and validation procedures.
#
#######################################################################

data_EVUBAY
_symmetry_cell_setting           monoclinic
_symmetry_space_group_name_H-M   'P 21/a'
_symmetry_Int_Tables_number      14
_space_group_name_Hall           '-P 2yab'
loop_
_symmetry_equiv_pos_site_id
_symmetry_equiv_pos_as_xyz
1 x,y,z
2 1/2+x,1/2-y,z
3 -x,-y,-z
4 1/2-x,1/2+y,-z
_cell_length_a                   10.7950(2)
_cell_length_b                   9.3322(2)
_cell_length_c                   21.6181(4)
_cell_angle_alpha                90
_cell_angle_beta                 91.584(1)
_cell_angle_gamma                90
_cell_volume                     2177
loop_
_atom_site_label
_atom_site_type_symbol
_atom_site_fract_x
_atom_site_fract_y
_atom_site_fract_z
Zn1 Zn -0.25393(4) -0.63372(5) 0.24993(2)
Zn2 Zn 0.07415(4) -0.10962(5) 0.187870(19)
Zn3 Zn -0.06806(4) -0.39528(5) 0.310460(19)
P1 P -0.13669(9) -0.36386(12) 0.17307(4)
P2 P -0.35804(9) -0.35823(12) 0.32700(4)
O1 O -0.1245(2) -0.4709(3) 0.22828(11)
O2 O -0.0694(2) -0.2266(3) 0.19127(13)
O3 O -0.2697(2) -0.3318(3) 0.15433(12)
O4 O -0.2047(2) -0.1612(3) -0.15587(12)
O5 O -0.0216(2) -0.0560(3) -0.13614(12)
O6 O -0.4200(2) -0.2148(3) 0.31198(13)
O7 O -0.3748(2) -0.4615(3) 0.27128(11)
O8 O -0.2228(2) -0.3337(3) 0.34470(12)
O9 O -0.4781(2) -0.0644(3) 0.63862(12)
O10 O -0.2952(2) -0.1689(3) 0.65840(12)
O11 O -0.1272(3) -0.8017(3) 0.23163(13)
O12 O -0.3922(3) -0.7854(4) 0.26571(13)
C1 C -0.0607(4) -0.4495(5) 0.10986(17)
H1 H 0.0265 -0.4606 0.1208
H2 H -0.0954 -0.5446 0.1041
C2 C -0.0723(4) -0.3688(5) 0.04925(18)
C3 C -0.1695(4) -0.4012(5) 0.00707(18)
H3 H -0.2267 -0.4718 0.0165
C4 C -0.1802(4) -0.3282(5) -0.04855(18)
H4 H -0.2437 -0.3515 -0.0767
C5 C -0.0971(3) -0.2209(5) -0.06261(17)
C6 C -0.0014(4) -0.1878(5) -0.02079(18)
H5 H 0.0546 -0.1154 -0.0298
C7 C 0.0107(4) -0.2630(5) 0.03441(18)
H6 H 0.0759 -0.2415 0.0619
C8 C -0.1097(4) -0.1412(5) -0.12244(17)
C9 C -0.4340(4) -0.4450(5) 0.38941(17)
H7 H -0.5212 -0.4554 0.3782
H8 H -0.3996 -0.5404 0.3945
C10 C -0.4231(4) -0.3677(5) 0.45058(17)
C11 C -0.3281(4) -0.4039(5) 0.49315(19)
H9 H -0.2717 -0.4756 0.4837
C12 C -0.3179(4) -0.3328(5) 0.54957(19)
H10 H -0.2551 -0.3575 0.5779
C13 C -0.4008(4) -0.2251(5) 0.56390(18)
C14 C -0.4942(4) -0.1895(5) 0.52186(18)
H11 H -0.5495 -0.1166 0.5311
C15 C -0.5062(4) -0.2618(5) 0.46568(18)
H12 H -0.5708 -0.2386 0.4381
C16 C -0.3896(3) -0.1475(5) 0.62474(17)
O7A O 0.1252(2) -0.0385(3) 0.27128(11)
O3A O 0.2303(2) -0.1682(3) 0.15433(12)
Zn2A Zn -0.42585(4) -0.39038(5) 0.187870(19)
O4C O -0.2953(2) -0.6612(3) 0.15587(12)
Zn1C Zn -0.24607(4) -0.13372(5) -0.24993(2)
Zn2B Zn -0.07415(4) 0.10962(5) -0.187870(19)
O5B O 0.0216(2) 0.0560(3) 0.13614(12)
O6A O 0.0800(2) -0.2852(3) 0.31198(13)
Zn3A Zn -0.56806(4) -0.10472(5) 0.310460(19)
O9C O -0.0219(2) -0.5644(3) 0.36138(12)
O10C O -0.2048(2) -0.6689(3) 0.34160(12)
Zn3C Zn -0.43194(4) 0.10472(5) 0.689540(19)
Zn1C_2 Zn -0.24607(4) -0.13372(5) 0.75007(2)
O13 O -0.1947(4) -1.0473(5) 0.2775(2)
loop_
_geom_bond_atom_site_label_1
_geom_bond_atom_site_label_2
_geom_bond_site_symmetry_1
_geom_bond_site_symmetry_2
Zn1 O1 1_555 1_555
Zn2 O2 1_555 1_555
Zn3 O1 1_555 1_555
P1 O1 1_555 1_555
P2 O6 1_555 1_555
O2 P1 1_555 1_555
O3 P1 1_555 1_555
O4 C8 1_555 1_555
O5 C8 1_555 1_555
O6 Zn3A 1_555 1_555
O7 Zn1 1_555 1_555
O8 Zn3 1_555 1_555
O9 C16 1_555 1_555
O10 C16 1_555 1_555
O11 Zn1 1_555 1_555
O12 Zn1 1_555 1_555
C1 P1 1_555 1_555
H1 C1 1_555 1_555
H2 C1 1_555 1_555
C2 C1 1_555 1_555
C3 C2 1_555 1_555
H3 C3 1_555 1_555
C4 C3 1_555 1_555
H4 C4 1_555 1_555
C5 C4 1_555 1_555
C6 C5 1_555 1_555
H5 C6 1_555 1_555
C7 C2 1_555 1_555
H6 C7 1_555 1_555
C8 C5 1_555 1_555
C9 P2 1_555 1_555
H7 C9 1_555 1_555
H8 C9 1_555 1_555
C10 C9 1_555 1_555
C11 C10 1_555 1_555
H9 C11 1_555 1_555
C12 C11 1_555 1_555
H10 C12 1_555 1_555
C13 C12 1_555 1_555
C14 C13 1_555 1_555
H11 C14 1_555 1_555
C15 C10 1_555 1_555
H12 C15 1_555 1_555
C16 C13 1_555 1_555
O7A Zn2 1_555 1_555
O3A Zn2 1_555 1_555
Zn2A O3 1_555 1_555
O4C Zn1 1_555 1_555
Zn1C O4 1_555 1_555
Zn2B O5 1_555 1_555
O5B Zn2 1_555 1_555
O6A Zn3 1_555 1_555
O9C Zn3 1_555 1_555
O10C Zn1 1_555 1_555
Zn3C O9 1_555 1_555
Zn1C_2 O10 1_555 1_555
P2 O7 1_555 1_555
P2 O8 1_555 1_555
O7 Zn2A 1_555 1_555
C6 C7 1_555 1_555
C14 C15 1_555 1_555

#END
