
#######################################################################
#
#                 Cambridge Crystallographic Data Centre
#                                CCDC 
#
#######################################################################
#
# If this CIF has been generated from an entry in the Cambridge 
# Structural Database, then it will include bibliographic, chemical, 
# crystal, experimental, refinement or atomic coordinate data resulting 
# from the CCDC's data processing and validation procedures.
#
#######################################################################

data_EVUCED
_symmetry_cell_setting           orthorhombic
_symmetry_space_group_name_H-M   'C m c m'
_symmetry_Int_Tables_number      63
_space_group_name_Hall           '-C 2n 2'
loop_
_symmetry_equiv_pos_site_id
_symmetry_equiv_pos_as_xyz
1 x,y,z
2 1/2+x,1/2+y,z
3 x,y,1/2-z
4 -x,y,z
5 x,-y,1/2+z
6 1/2+x,1/2+y,1/2-z
7 1/2-x,1/2+y,z
8 1/2+x,1/2-y,1/2+z
9 -x,-y,-z
10 1/2-x,1/2-y,-z
11 -x,-y,1/2+z
12 x,-y,-z
13 -x,y,1/2-z
14 1/2-x,1/2-y,1/2+z
15 1/2+x,1/2-y,-z
16 1/2-x,1/2+y,1/2-z
_cell_length_a                   21.108(5)
_cell_length_b                   9.697(5)
_cell_length_c                   16.102(5)
_cell_angle_alpha                90
_cell_angle_beta                 90
_cell_angle_gamma                90
_cell_volume                     3295.83
loop_
_atom_site_label
_atom_site_type_symbol
_atom_site_fract_x
_atom_site_fract_y
_atom_site_fract_z
Cu1 Cu 0.0000 -0.74939(5) 0.05132(3)
Co1 Co 0.2500 -0.7500 0.0000
O1 O 0.06284(10) -0.6697(3) -0.02585(14)
O2 O 0.16702(10) -0.6652(2) -0.04644(14)
O3 O 0.18322(10) -0.8537(2) 0.07504(15)
O4 O 0.24440(11) -0.8934(3) -0.09721(15)
H1 H 0.2217 -0.9724 -0.0888
H2 H 0.2843 -0.9122 -0.1174
O5 O 0.0000 -0.5467(4) 0.1274(2)
H3 H -0.0394 -0.5105 0.1360
N1 N 0.07511(12) -0.8410(3) 0.10030(17)
C1 C 0.11866(16) -0.7061(4) -0.0093(2)
C2 C 0.12752(14) -0.8113(3) 0.06072(18)
C3 C 0.0776(2) -0.8498(5) 0.2500
H4 H 0.0746 -0.7520 0.2500
C4 C 0.07976(14) -0.9188(3) 0.17553(18)
C5 C 0.0843(2) -1.0609(4) 0.1753(2)
H5 H 0.0853 -1.1100 0.1242
C6 C 0.0873(4) -1.1313(6) 0.2500
H6 H 0.0915 -1.2288 0.2500
O2I O 0.33298(10) -0.8348(2) 0.04644(14)
O3I O 0.31678(10) -0.6463(2) -0.07504(15)
O1C O -0.06284(10) -0.6697(3) -0.02585(14)
N1C N -0.07511(12) -0.8410(3) 0.10030(17)
C4B C 0.07976(14) -0.9188(3) 0.32447(18)
N1B N 0.07511(12) -0.8410(3) 0.39970(17)
Cu1B Cu 0.0000 -0.74939(5) 0.44868(3)
O1B O 0.06284(10) -0.6697(3) 0.52585(14)
C1B C 0.11866(16) -0.7061(4) 0.5093(2)
O2B O 0.16702(10) -0.6652(2) 0.54644(14)
Co1B Co 0.2500 -0.7500 0.5000
O3B O 0.18322(10) -0.8537(2) 0.42496(15)
C2B C 0.12752(14) -0.8113(3) 0.43928(18)
C5B C 0.0843(2) -1.0609(4) 0.3247(2)
H5B H 0.0853 -1.1100 0.3758
O4I O 0.25560(11) -0.6066(3) 0.09721(15)
H1I H 0.2783 -0.5276 0.0888
H2I H 0.2157 -0.5878 0.1174
H3C H 0.0394 -0.5105 0.1360
O6 O 0.13338(14) -0.5289(3) 0.16688(17)
H7 H 0.1441 -0.4521 0.1366
H8 H 0.1198 -0.4823 0.2129
O7 O 0.2439(4) -0.2648(6) 0.2500
H9 H 0.2744 -0.3523 0.2500
H10 H 0.2734 -0.1640 0.2500
loop_
_geom_bond_atom_site_label_1
_geom_bond_atom_site_label_2
_geom_bond_site_symmetry_1
_geom_bond_site_symmetry_2
Cu1 O1 1_555 1_555
Co1 O2 1_555 1_555
O1 C1 1_555 1_555
O2 C1 1_555 1_555
O3 Co1 1_555 1_555
O4 Co1 1_555 1_555
H1 O4 1_555 1_555
H2 O4 1_555 1_555
O5 Cu1 1_555 1_555
H3 O5 1_555 1_555
N1 Cu1 1_555 1_555
C1 C2 1_555 1_555
C2 O3 1_555 1_555
C3 H4 1_555 1_555
C4 N1 1_555 1_555
C5 C4 1_555 1_555
H5 C5 1_555 1_555
C6 C5 1_555 1_555
H6 C6 1_555 1_555
O6 H7 1_555 1_555
H8 O6 1_555 1_555
O7 H9 1_555 1_555
H10 O7 1_555 1_555
O2I Co1 1_555 1_555
O3I Co1 1_555 1_555
O1C Cu1 1_555 1_555
N1C Cu1 1_555 1_555
C4B C3 1_555 1_555
N1B C4B 1_555 1_555
Cu1B N1B 1_555 1_555
O1B Cu1B 1_555 1_555
C1B O1B 1_555 1_555
O2B C1B 1_555 1_555
Co1B O2B 1_555 1_555
O3B Co1B 1_555 1_555
C2B N1B 1_555 1_555
C5B C6 1_555 1_555
H5B C5B 1_555 1_555
O4I Co1 1_555 1_555
H1I O4I 1_555 1_555
H2I O4I 1_555 1_555
H3C O5 1_555 1_555
N1 C2 1_555 1_555
C3 C4 1_555 1_555
C4B C5B 1_555 1_555
C1B C2B 1_555 1_555
O3B C2B 1_555 1_555

#END
