
#######################################################################
#
#                 Cambridge Crystallographic Data Centre
#                                CCDC 
#
#######################################################################
#
# If this CIF has been generated from an entry in the Cambridge 
# Structural Database, then it will include bibliographic, chemical, 
# crystal, experimental, refinement or atomic coordinate data resulting 
# from the CCDC's data processing and validation procedures.
#
#######################################################################

data_EVUCUT
_symmetry_cell_setting           monoclinic
_symmetry_space_group_name_H-M   'P 21/c'
_symmetry_Int_Tables_number      14
_space_group_name_Hall           '-P 2ybc'
loop_
_symmetry_equiv_pos_site_id
_symmetry_equiv_pos_as_xyz
1 x,y,z
2 x,1/2-y,1/2+z
3 -x,-y,-z
4 -x,1/2+y,1/2-z
_cell_length_a                   34.8469(3)
_cell_length_b                   12.68740(10)
_cell_length_c                   23.3187(2)
_cell_angle_alpha                90
_cell_angle_beta                 108.6450(10)
_cell_angle_gamma                90
_cell_volume                     9768.51
loop_
_atom_site_label
_atom_site_type_symbol
_atom_site_fract_x
_atom_site_fract_y
_atom_site_fract_z
Au1 Au -0.111420(17) -0.68453(4) -0.18812(3)
P1 P -0.16381(12) -0.7761(3) -0.24624(19)
C1 C -0.1862(3) -0.8645(6) -0.2043(4)
C2 C -0.1839(3) -0.9732(7) -0.2100(5)
H1 H -0.1716 -1.0022 -0.2374
C3 C -0.1998(4) -1.0394(5) -0.1757(6)
H2 H -0.1982 -1.1136 -0.1796
C4 C -0.2178(4) -0.9968(8) -0.1357(5)
H3 H -0.2286 -1.0421 -0.1122
C5 C -0.2200(3) -0.8881(8) -0.1300(5)
H4 H -0.2324 -0.8591 -0.1027
C6 C -0.2042(3) -0.8220(6) -0.1643(5)
H5 H -0.2057 -0.7477 -0.1605
C7 C -0.1495(3) -0.8553(8) -0.3020(5)
C8 C -0.1086(3) -0.8646(9) -0.2956(5)
H6 H -0.0889 -0.8321 -0.2624
C9 C -0.0966(3) -0.9215(10) -0.3379(6)
H7 H -0.0686 -0.9279 -0.3336
C10 C -0.1255(5) -0.9690(9) -0.3865(6)
H8 H -0.1173 -1.0079 -0.4154
C11 C -0.1664(4) -0.9597(9) -0.3928(5)
H9 H -0.1861 -0.9922 -0.4261
C12 C -0.1784(3) -0.9028(9) -0.3506(6)
H10 H -0.2063 -0.8964 -0.3549
Au2 Au 0.134890(17) -0.35055(4) 0.06917(3)
P2 P 0.08486(11) -0.2552(3) 0.00929(18)
C13 C 0.0615(3) -0.1689(7) 0.0498(4)
C14 C 0.0858(2) -0.0897(8) 0.0840(5)
H11 H 0.1130 -0.0823 0.0845
C15 C 0.0702(3) -0.0213(8) 0.1177(5)
H12 H 0.0868 0.0328 0.1411
C16 C 0.0304(4) -0.0321(8) 0.1170(5)
H13 H 0.0198 0.0147 0.1400
C17 C 0.0061(3) -0.1113(9) 0.0827(5)
H14 H -0.0211 -0.1187 0.0823
C18 C 0.0217(3) -0.1797(7) 0.0491(5)
H15 H 0.0051 -0.2338 0.0257
C19 C 0.1024(3) -0.1701(7) -0.0392(4)
C20 C 0.0817(2) -0.0784(7) -0.0631(5)
H16 H 0.0592 -0.0565 -0.0514
C21 C 0.0938(3) -0.0186(6) -0.1042(5)
H17 H 0.0797 0.0441 -0.1206
C22 C 0.1267(4) -0.0507(8) -0.1214(5)
H18 H 0.1351 -0.0099 -0.1495
C23 C 0.1475(3) -0.1425(9) -0.0974(5)
H19 H 0.1700 -0.1644 -0.1091
C24 C 0.1353(3) -0.2022(6) -0.0563(5)
H20 H 0.1495 -0.2649 -0.0399
Au3 Au -0.354340(18) -0.32345(5) -0.44132(3)
P3 P -0.40735(11) -0.2374(3) -0.50187(19)
C25 C -0.4297(3) -0.1368(8) -0.4672(5)
C26 C -0.4287(4) -0.0312(9) -0.4826(5)
H21 H -0.4172 -0.0111 -0.5128
C27 C -0.4447(4) 0.0450(7) -0.4538(7)
H22 H -0.4440 0.1172 -0.4643
C28 C -0.4616(4) 0.0156(11) -0.4097(6)
H23 H -0.4725 0.0677 -0.3900
C29 C -0.4625(4) -0.0900(13) -0.3943(5)
H24 H -0.4741 -0.1101 -0.3642
C30 C -0.4466(4) -0.1662(8) -0.4231(6)
H25 H -0.4472 -0.2384 -0.4126
C31 C -0.3959(3) -0.1724(8) -0.5637(5)
C32 C -0.3558(3) -0.1490(10) -0.5577(5)
H26 H -0.3347 -0.1700 -0.5223
C33 C -0.3465(3) -0.0948(10) -0.6033(6)
H27 H -0.3191 -0.0788 -0.5992
C34 C -0.3773(5) -0.0640(10) -0.6551(5)
H28 H -0.3710 -0.0269 -0.6863
C35 C -0.4174(4) -0.0874(10) -0.6611(5)
H29 H -0.4384 -0.0663 -0.6965
C36 C -0.4267(3) -0.1416(9) -0.6154(6)
H30 H -0.4540 -0.1576 -0.6196
Au4 Au -0.617090(18) -0.64797(5) -0.66947(3)
P4 P -0.66513(11) -0.7561(3) -0.72340(19)
C37 C -0.6885(3) -0.8363(7) -0.6796(5)
C38 C -0.6653(3) -0.9150(8) -0.6433(5)
H31 H -0.6384 -0.9273 -0.6433
C39 C -0.6815(3) -0.9758(7) -0.6070(5)
H32 H -0.6656 -1.0296 -0.5822
C40 C -0.7208(4) -0.9578(9) -0.6070(5)
H33 H -0.7319 -0.9994 -0.5822
C41 C -0.7440(3) -0.8791(9) -0.6434(6)
H34 H -0.7709 -0.8668 -0.6434
C42 C -0.7279(3) -0.8183(7) -0.6797(5)
H35 H -0.7438 -0.7645 -0.7045
C43 C -0.6476(3) -0.8518(8) -0.7667(5)
C44 C -0.6140(3) -0.8277(8) -0.7839(6)
H36 H -0.5996 -0.7639 -0.7707
C45 C -0.6013(4) -0.8969(12) -0.8205(7)
H37 H -0.5783 -0.8804 -0.8323
C46 C -0.6224(5) -0.9902(11) -0.8399(7)
H38 H -0.6138 -1.0375 -0.8649
C47 C -0.6560(4) -1.0144(7) -0.8227(6)
H39 H -0.6704 -1.0781 -0.8360
C48 C -0.6687(3) -0.9452(8) -0.7861(6)
H40 H -0.6917 -0.9617 -0.7744
C49 C -0.2058(5) -0.6955(12) -0.2878(8)
C50 C -0.2449(5) -0.7371(13) -0.3164(9)
H41 H -0.2492 -0.8107 -0.3146
C51 C -0.2763(5) -0.6740(12) -0.3464(8)
H42 H -0.3025 -0.7039 -0.3631
C52 C -0.2712(5) -0.5690(13) -0.3531(8)
C53 C -0.2331(5) -0.5241(12) -0.3267(8)
H43 H -0.2295 -0.4508 -0.3313
C54 C -0.2004(4) -0.5853(11) -0.2936(7)
H44 H -0.1747 -0.5538 -0.2751
C55 C -0.3085(5) -0.5029(13) -0.3863(7)
O1 O -0.3409(4) -0.5448(11) -0.3983(9)
O2 O -0.3022(3) -0.4061(8) -0.3926(5)
C56 C 0.0434(5) -0.3371(11) -0.0409(7)
C57 C 0.0417(5) -0.4431(11) -0.0310(8)
H45 H 0.0621 -0.4764 0.0010
C58 C 0.0090(5) -0.5025(12) -0.0692(8)
H46 H 0.0074 -0.5762 -0.0633
C59 C -0.0200(5) -0.4528(11) -0.1145(7)
C60 C -0.0181(4) -0.3442(11) -0.1249(8)
H47 H -0.0392 -0.3111 -0.1561
C61 C 0.0139(6) -0.2860(12) -0.0903(8)
H48 H 0.0166 -0.2136 -0.0988
C62 C -0.0568(5) -0.5124(13) -0.1539(8)
O3 O -0.0801(3) -0.4704(8) -0.1984(5)
O4 O -0.0603(3) -0.6090(8) -0.1365(5)
C63 C -0.4505(6) -0.3331(13) -0.5397(8)
C64 C -0.4370(5) -0.4238(14) -0.5519(10)
H49 H -0.4089 -0.4387 -0.5419
C65 C -0.4666(6) -0.4970(17) -0.5806(12)
H50 H -0.4587 -0.5632 -0.5922
C66 C -0.5072(7) -0.4758(14) -0.5927(10)
C67 C -0.5180(5) -0.3763(16) -0.5751(10)
H51 H -0.5454 -0.3584 -0.5811
C68 C -0.4875(7) -0.3072(19) -0.5492(12)
H52 H -0.4937 -0.2388 -0.5381
C69 C -0.5379(6) -0.5535(16) -0.6267(9)
O5 O -0.5293(4) -0.6304(12) -0.6514(9)
O6 O -0.5736(3) -0.5419(9) -0.6233(6)
C70 C -0.7070(4) -0.6838(12) -0.7770(8)
C71 C -0.7333(5) -0.7341(13) -0.8260(8)
H53 H -0.7295 -0.8063 -0.8335
C72 C -0.7662(4) -0.6767(11) -0.8653(7)
H54 H -0.7845 -0.7108 -0.8994
C73 C -0.7718(5) -0.5744(12) -0.8546(7)
C74 C -0.7439(5) -0.5222(12) -0.8054(7)
H55 H -0.7470 -0.4494 -0.7985
C75 C -0.7115(4) -0.5790(11) -0.7668(7)
H56 H -0.6926 -0.5448 -0.7334
C76 C -0.8070(6) -0.5143(14) -0.8976(9)
O7 O -0.8246(4) -0.5501(8) -0.9477(5)
O8 O -0.8155(3) -0.4294(8) -0.8743(5)
O8_2 O 0.1845(3) -0.4294(8) 0.1257(5)
Au2_2 Au -0.865110(17) -0.35055(4) -0.93083(3)
C77 C -0.4781(8) -0.7397(18) -0.7154(12)
H57 H -0.5000 -0.7171 -0.6988
Cl1 Cl -0.4663(2) -0.6332(6) -0.7561(4)
Cl2 Cl -0.4952(2) -0.8474(6) -0.7627(4)
Cl3 Cl -0.4354(3) -0.7723(7) -0.6559(4)
C78 C 0.1362(8) -0.7062(17) 0.2579(10)
H58 H 0.1156 -0.6487 0.2462
Cl4 Cl 0.11067(17) -0.8304(4) 0.2336(3)
Cl5 Cl 0.15602(19) -0.7084(4) 0.3358(2)
Cl6 Cl 0.17104(15) -0.6834(4) 0.2230(3)
C79 C -0.1169(5) -0.2704(16) -0.0219(9)
H59 H -0.1395 -0.3231 -0.0334
Cl7 Cl -0.0927(2) -0.2755(5) 0.0578(3)
Cl8 Cl -0.0824(2) -0.3022(5) -0.0573(3)
Cl9 Cl -0.13733(19) -0.1428(4) -0.0425(3)
C80 C -0.2528(6) -0.3554(16) -0.4811(10)
H60 H -0.2640 -0.3564 -0.4465
Cl10 Cl -0.2335(2) -0.2261(5) -0.4868(3)
Cl11 Cl -0.29221(17) -0.3807(6) -0.5483(3)
Cl12 Cl -0.21497(17) -0.4481(5) -0.4681(3)
C81 C 0.0034(6) -0.2790(17) 0.2139(10)
H61 H 0.0176 -0.2743 0.1828
Cl13 Cl -0.0382(2) -0.3660(8) 0.1885(4)
Cl14 Cl -0.0109(2) -0.1559(5) 0.2286(3)
Cl15 Cl 0.03675(18) -0.3383(5) 0.2819(2)
C82 C -0.6392(5) -0.3017(17) -0.7059(10)
H62 H -0.6450 -0.3573 -0.6795
Cl16 Cl -0.6189(4) -0.1946(9) -0.6597(6)
Cl17 Cl -0.6857(6) -0.2689(15) -0.7607(9)
Cl18 Cl -0.6022(5) -0.3508(12) -0.7326(8)
C84 C -0.708(3) -0.294(5) -0.9678(16)
H64 H -0.6904 -0.3250 -0.9892
Cl22 Cl -0.7379(13) -0.194(3) -1.004(2)
Cl23 Cl -0.7554(9) -0.379(2) -0.9703(15)
Cl24 Cl -0.6902(8) -0.300(2) -0.8911(13)
C85 C -0.6164(9) -0.197(2) -1.010(2)
H65 H -0.6285 -0.1838 -1.0541
Cl25 Cl -0.5643(7) -0.1826(18) -0.9895(11)
Cl26 Cl -0.6370(7) -0.1083(18) -0.9702(11)
Cl27 Cl -0.6327(10) -0.318(2) -0.9932(16)
C83? C -0.6361(12) -0.2504(17) -0.7397(11)
H63? H -0.6157 -0.2233 -0.7579
Cl19? Cl -0.6451(4) -0.1586(11) -0.6897(7)
Cl20? Cl -0.6193(5) -0.3654(12) -0.6990(7)
Cl21? Cl -0.6815(7) -0.2928(15) -0.7977(11)
loop_
_geom_bond_atom_site_label_1
_geom_bond_atom_site_label_2
_geom_bond_site_symmetry_1
_geom_bond_site_symmetry_2
Au1 P1 1_555 1_555
P1 C1 1_555 1_555
C1 C2 1_555 1_555
C2 H1 1_555 1_555
C3 C2 1_555 1_555
H2 C3 1_555 1_555
C4 C3 1_555 1_555
H3 C4 1_555 1_555
C5 C4 1_555 1_555
H4 C5 1_555 1_555
C6 C1 1_555 1_555
H5 C6 1_555 1_555
C7 P1 1_555 1_555
C8 C7 1_555 1_555
H6 C8 1_555 1_555
C9 C8 1_555 1_555
H7 C9 1_555 1_555
C10 C9 1_555 1_555
H8 C10 1_555 1_555
C11 C10 1_555 1_555
H9 C11 1_555 1_555
C12 C7 1_555 1_555
H10 C12 1_555 1_555
Au2 P2 1_555 1_555
P2 C13 1_555 1_555
C13 C14 1_555 1_555
C14 H11 1_555 1_555
C15 C14 1_555 1_555
H12 C15 1_555 1_555
C16 C15 1_555 1_555
H13 C16 1_555 1_555
C17 C16 1_555 1_555
H14 C17 1_555 1_555
C18 C13 1_555 1_555
H15 C18 1_555 1_555
C19 P2 1_555 1_555
C20 C19 1_555 1_555
H16 C20 1_555 1_555
C21 C20 1_555 1_555
H17 C21 1_555 1_555
C22 C21 1_555 1_555
H18 C22 1_555 1_555
C23 C22 1_555 1_555
H19 C23 1_555 1_555
C24 C19 1_555 1_555
H20 C24 1_555 1_555
Au3 P3 1_555 1_555
P3 C25 1_555 1_555
C25 C26 1_555 1_555
C26 H21 1_555 1_555
C27 C26 1_555 1_555
H22 C27 1_555 1_555
C28 C27 1_555 1_555
H23 C28 1_555 1_555
C29 C28 1_555 1_555
H24 C29 1_555 1_555
C30 C25 1_555 1_555
H25 C30 1_555 1_555
C31 P3 1_555 1_555
C32 C31 1_555 1_555
H26 C32 1_555 1_555
C33 C32 1_555 1_555
H27 C33 1_555 1_555
C34 C33 1_555 1_555
H28 C34 1_555 1_555
C35 C34 1_555 1_555
H29 C35 1_555 1_555
C36 C31 1_555 1_555
H30 C36 1_555 1_555
Au4 P4 1_555 1_555
P4 C37 1_555 1_555
C37 C38 1_555 1_555
C38 H31 1_555 1_555
C39 C38 1_555 1_555
H32 C39 1_555 1_555
C40 C39 1_555 1_555
H33 C40 1_555 1_555
C41 C40 1_555 1_555
H34 C41 1_555 1_555
C42 C37 1_555 1_555
H35 C42 1_555 1_555
C43 P4 1_555 1_555
C44 C43 1_555 1_555
H36 C44 1_555 1_555
C45 C44 1_555 1_555
H37 C45 1_555 1_555
C46 C45 1_555 1_555
H38 C46 1_555 1_555
C47 C46 1_555 1_555
H39 C47 1_555 1_555
C48 C43 1_555 1_555
H40 C48 1_555 1_555
C49 P1 1_555 1_555
C50 C49 1_555 1_555
H41 C50 1_555 1_555
C51 C50 1_555 1_555
H42 C51 1_555 1_555
C52 C51 1_555 1_555
C53 C52 1_555 1_555
H43 C53 1_555 1_555
C54 C49 1_555 1_555
H44 C54 1_555 1_555
C55 C52 1_555 1_555
O1 C55 1_555 1_555
O2 Au3 1_555 1_555
C56 P2 1_555 1_555
C57 C56 1_555 1_555
H45 C57 1_555 1_555
C58 C57 1_555 1_555
H46 C58 1_555 1_555
C59 C58 1_555 1_555
C60 C59 1_555 1_555
H47 C60 1_555 1_555
C61 C56 1_555 1_555
H48 C61 1_555 1_555
C62 C59 1_555 1_555
O3 C62 1_555 1_555
O4 Au1 1_555 1_555
C63 P3 1_555 1_555
C64 C63 1_555 1_555
H49 C64 1_555 1_555
C65 C64 1_555 1_555
H50 C65 1_555 1_555
C66 C65 1_555 1_555
C67 C66 1_555 1_555
H51 C67 1_555 1_555
C68 C63 1_555 1_555
H52 C68 1_555 1_555
C69 C66 1_555 1_555
O5 C69 1_555 1_555
O6 Au4 1_555 1_555
C70 P4 1_555 1_555
C71 C70 1_555 1_555
H53 C71 1_555 1_555
C72 C71 1_555 1_555
H54 C72 1_555 1_555
C73 C72 1_555 1_555
C74 C73 1_555 1_555
H55 C74 1_555 1_555
C75 C70 1_555 1_555
H56 C75 1_555 1_555
C76 C73 1_555 1_555
O7 C76 1_555 1_555
O8 C76 1_555 1_555
C77 H57 1_555 1_555
Cl1 C77 1_555 1_555
Cl2 C77 1_555 1_555
Cl3 C77 1_555 1_555
C78 H58 1_555 1_555
Cl4 C78 1_555 1_555
Cl5 C78 1_555 1_555
Cl6 C78 1_555 1_555
C79 H59 1_555 1_555
Cl7 C79 1_555 1_555
Cl8 C79 1_555 1_555
Cl9 C79 1_555 1_555
C80 H60 1_555 1_555
Cl10 C80 1_555 1_555
Cl11 C80 1_555 1_555
Cl12 C80 1_555 1_555
C81 H61 1_555 1_555
Cl13 C81 1_555 1_555
Cl14 C81 1_555 1_555
Cl15 C81 1_555 1_555
C82 H62 1_555 1_555
Cl16 C82 1_555 1_555
Cl17 C82 1_555 1_555
Cl18 C82 1_555 1_555
C84 H64 1_555 1_555
Cl22 C84 1_555 1_555
Cl23 C84 1_555 1_555
Cl24 C84 1_555 1_555
C85 H65 1_555 1_555
Cl25 C85 1_555 1_555
Cl26 C85 1_555 1_555
Cl27 C85 1_555 1_555
O8_2 Au2 1_555 1_555
Au2_2 O8 1_555 1_555
C5 C6 1_555 1_555
C11 C12 1_555 1_555
C17 C18 1_555 1_555
C23 C24 1_555 1_555
C29 C30 1_555 1_555
C35 C36 1_555 1_555
C41 C42 1_555 1_555
C47 C48 1_555 1_555
C53 C54 1_555 1_555
C55 O2 1_555 1_555
C60 C61 1_555 1_555
C62 O4 1_555 1_555
C67 C68 1_555 1_555
C69 O6 1_555 1_555
C74 C75 1_555 1_555

#END
