
#######################################################################
#
#                 Cambridge Crystallographic Data Centre
#                                CCDC 
#
#######################################################################
#
# If this CIF has been generated from an entry in the Cambridge 
# Structural Database, then it will include bibliographic, chemical, 
# crystal, experimental, refinement or atomic coordinate data resulting 
# from the CCDC's data processing and validation procedures.
#
#######################################################################

data_EVUNOZ
_symmetry_cell_setting           monoclinic
_symmetry_space_group_name_H-M   'P 21/c'
_symmetry_Int_Tables_number      14
_space_group_name_Hall           '-P 2ybc'
loop_
_symmetry_equiv_pos_site_id
_symmetry_equiv_pos_as_xyz
1 x,y,z
2 -x,1/2+y,1/2-z
3 -x,-y,-z
4 x,1/2-y,1/2+z
_cell_length_a                   10.5125(9)
_cell_length_b                   10.1534(9)
_cell_length_c                   19.7706(18)
_cell_angle_alpha                90
_cell_angle_beta                 103.2370(10)
_cell_angle_gamma                90
_cell_volume                     2054.2
loop_
_atom_site_label
_atom_site_type_symbol
_atom_site_fract_x
_atom_site_fract_y
_atom_site_fract_z
Eu1 Eu 0.920186(10) 0.568383(10) 0.142669(5)
Zn1 Zn 0.58528(2) 0.74122(2) 0.341715(12)
Zn2 Zn 0.73481(2) 0.14102(2) 0.086438(13)
O1 O 0.89121(14) 0.58404(15) 0.26343(8)
O2 O 0.77435(14) 0.71791(15) 0.31593(8)
O3 O 0.80658(14) 0.37693(16) 0.16227(8)
O4 O 0.64327(15) 0.23398(15) 0.15170(8)
O5 O 0.77266(16) 0.97050(15) 0.15714(8)
O6 O 0.7922(2) 0.75268(18) 0.15371(9)
O7 O 0.73420(17) 0.56038(15) 0.04483(9)
O8 O 0.6561(2) 0.58392(18) -0.06967(10)
O9 O 0.99652(17) 0.65242(16) 0.04104(8)
O10 O 1.01727(15) 0.60475(16) -0.06697(8)
O11 O 1.0767(2) 0.7419(2) 0.19044(11)
O12 O 1.09780(18) 0.44229(18) 0.20861(9)
H1 H 1.1277(10) 0.3766(6) 0.1915(4)
H2 H 1.1370(16) 0.4633(9) 0.2493(3)
O13 O 0.93482(15) 0.14808(15) 0.10350(9)
H3 H 0.9804(13) 0.1233(7) 0.1420(3)
H4 H 0.9535(14) 0.2218(5) 0.0890(4)
O14 O 0.6956(2) 0.28933(17) 0.01333(9)
H5 H 0.7114(16) 0.3680(5) 0.0257(5)
H6 H 0.6529(13) 0.2765(10) -0.0273(3)
N1 N 0.55507(17) 0.57581(18) 0.27916(9)
N2 N 0.50075(17) 0.39471(18) 0.21508(9)
N3 N 0.67516(18) 0.99087(18) 0.02087(9)
N4 N 0.62883(18) 0.84346(18) -0.06499(9)
C1 C 0.78421(19) 0.6185(2) 0.27889(10)
C2 C 0.6624(2) 0.5383(2) 0.25516(10)
C3 C 0.6292(2) 0.4258(2) 0.21513(11)
C4 C 0.6988(2) 0.3421(2) 0.17445(10)
C5 C 0.4610(2) 0.4876(2) 0.25393(11)
H8 H 0.3776 0.4905 0.2624
C6 C 0.7619(2) 0.8619(2) 0.12473(11)
C7 C 0.7053(2) 0.8681(2) 0.04881(11)
C8 C 0.6775(2) 0.7762(2) -0.00417(11)
C9 C 0.6900(2) 0.6299(2) -0.00983(12)
C10 C 0.6299(2) 0.9709(2) -0.04707(12)
H9 H 0.6020 1.0385 -0.0788
C11 C 1.0041(2) 0.5751(2) -0.00723(11)
H10 H 1.0955(10) 0.7764(9) 0.2298(3)
H11 H 1.1378(6) 0.7162(12) 0.1731(4)
Eu1B Eu 1.079814(10) 0.431617(10) -0.142669(5)
Eu1A Eu 0.079814(10) 1.068383(10) 0.357331(5)
Eu1C Eu 0.920186(10) 0.931617(10) 0.642669(5)
Zn1A Zn 0.41472(2) 0.24122(2) 0.158285(12)
Zn1C Zn 0.58528(2) 0.75878(2) -0.158285(12)
Zn1A_2 Zn 0.41472(2) 1.24122(2) 0.158285(12)
Zn2_2 Zn 0.73481(2) 1.14102(2) 0.086438(13)
Zn2A Zn 0.26519(2) 0.64102(2) 0.413562(13)
Zn2C Zn 0.73481(2) 0.35898(2) 0.586438(13)
O1A O 0.10879(14) 1.08404(15) 0.23657(8)
O1B O 1.10879(14) 0.41596(15) -0.26343(8)
O2A O 0.22565(14) 1.21791(15) 0.18407(8)
O2A_2 O 0.22565(14) 0.21791(15) 0.18407(8)
O3A O 0.19342(14) 0.87693(16) 0.33773(8)
O3B O 1.19342(14) 0.62307(16) -0.16227(8)
O4A O 0.35673(15) 0.73398(15) 0.34830(8)
O4_2 O 0.64327(15) 1.23398(15) 0.15170(8)
O5C O 0.77266(16) 0.52950(15) 0.65714(8)
O5_2 O 0.77266(16) -0.02950(15) 0.15714(8)
O6C O 0.7922(2) 0.74732(18) 0.65371(9)
O6B O 1.2078(2) 0.24732(18) -0.15371(9)
O7C O 0.73420(17) 0.93962(15) 0.54483(9)
O7B O 1.26580(17) 0.43962(15) -0.04483(9)
O8C O 0.6561(2) 0.91608(18) 0.43033(10)
O8B O 0.3439(2) 0.41608(18) 0.06967(10)
O9B O 1.00348(17) 0.34758(16) -0.04104(8)
O10B O 0.98273(15) 0.39525(16) 0.06697(8)
O11B O 0.9233(2) 0.2581(2) -0.19044(11)
O12B O 0.90220(18) 0.55771(18) -0.20861(9)
H1B H 0.8723(10) 0.6234(6) -0.1915(4)
H2B H 0.8630(16) 0.5367(9) -0.2493(3)
O13_2 O 0.93482(15) 1.14808(15) 0.10350(9)
H3_2 H 0.9804(13) 1.1233(7) 0.1420(3)
H4_2 H 0.9535(14) 1.2218(5) 0.0890(4)
O14_2 O 0.6956(2) 1.28933(17) 0.01333(9)
H5_2 H 0.7114(16) 1.3680(5) 0.0257(5)
H6_2 H 0.6529(13) 1.2765(10) -0.0273(3)
N1A N 0.44493(17) 1.07581(18) 0.22084(9)
N1A_2 N 0.44493(17) 0.07581(18) 0.22084(9)
N2A N 0.49925(17) 0.89471(18) 0.28492(9)
N3C N 0.67516(18) 0.50913(18) 0.52087(9)
N3_2 N 0.67516(18) -0.00913(18) 0.02087(9)
N4C N 0.62883(18) 0.65654(18) 0.43501(9)
N4B N 0.37117(18) 0.15654(18) 0.06499(9)
C1A C 0.21579(19) 1.1185(2) 0.22111(10)
C2A C 0.3376(2) 1.0383(2) 0.24484(10)
C3A C 0.3708(2) 0.9258(2) 0.28487(11)
C4A C 0.3012(2) 0.8421(2) 0.32555(10)
C5A C 0.5390(2) 0.9876(2) 0.24607(11)
H8A H 0.6224 0.9905 0.2376
C6C C 0.7619(2) 0.6381(2) 0.62473(11)
C7C C 0.7053(2) 0.6319(2) 0.54881(11)
C8C C 0.6775(2) 0.7238(2) 0.49583(11)
C9C C 0.6900(2) 0.8701(2) 0.49017(12)
C10C C 0.6299(2) 0.5291(2) 0.45293(12)
H9C H 0.6020 0.4615 0.4212
C11B C 0.9959(2) 0.4249(2) 0.00723(11)
H10B H 0.9045(10) 0.2236(9) -0.2298(3)
H11B H 0.8622(6) 0.2838(12) -0.1731(4)
O15 O 0.0895(4) 0.9140(3) 0.0794(2)
O16 O 0.6560(4) 0.3238(6) 0.8725(3)
H7 H 0.6785 0.2464 0.8736
C12 C 0.5249(4) 0.3343(5) 0.8925(2)
H12 H 0.5305 0.2920 0.9365
H13 H 0.4588 0.2920 0.8577
H14 H 0.5028 0.4254 0.8958
loop_
_geom_bond_atom_site_label_1
_geom_bond_atom_site_label_2
_geom_bond_site_symmetry_1
_geom_bond_site_symmetry_2
Eu1 O1 1_555 1_555
Zn1 O2 1_555 1_555
Zn2 O4 1_555 1_555
O1 C1 1_555 1_555
O2 C1 1_555 1_555
O3 Eu1 1_555 1_555
O4 C4 1_555 1_555
O5 C6 1_555 1_555
O6 Eu1 1_555 1_555
O7 Eu1 1_555 1_555
O8 C9 1_555 1_555
O9 Eu1 1_555 1_555
O10 C11 1_555 1_555
O11 Eu1 1_555 1_555
O12 Eu1 1_555 1_555
H1 O12 1_555 1_555
H2 O12 1_555 1_555
O13 Zn2 1_555 1_555
H3 O13 1_555 1_555
H4 O13 1_555 1_555
O14 Zn2 1_555 1_555
H5 O14 1_555 1_555
H6 O14 1_555 1_555
O16 H7 1_555 1_555
N1 Zn1 1_555 1_555
N2 C3 1_555 1_555
N3 C7 1_555 1_555
N4 C8 1_555 1_555
C1 C2 1_555 1_555
C2 N1 1_555 1_555
C3 C2 1_555 1_555
C4 O3 1_555 1_555
C5 N1 1_555 1_555
H8 C5 1_555 1_555
C6 O6 1_555 1_555
C7 C6 1_555 1_555
C8 C7 1_555 1_555
C9 O7 1_555 1_555
C10 N3 1_555 1_555
H9 C10 1_555 1_555
C11 O9 1_555 1_555
H10 O11 1_555 1_555
H11 O11 1_555 1_555
C12 O16 1_555 1_555
H12 C12 1_555 1_555
H13 C12 1_555 1_555
H14 C12 1_555 1_555
Eu1B O10 1_555 1_555
Eu1A O1A 1_555 1_555
Eu1C O6C 1_555 1_555
Zn1A O4 1_555 1_555
Zn1C O8 1_555 1_555
Zn1A_2 O2A 1_555 1_555
Zn2_2 O5 1_555 1_555
Zn2A O4A 1_555 1_555
Zn2C O5C 1_555 1_555
O1A C1A 1_555 1_555
O1B Eu1B 1_555 1_555
O2A C1A 1_555 1_555
O2A_2 Zn1A 1_555 1_555
O3A Eu1A 1_555 1_555
O3B Eu1B 1_555 1_555
O4A Zn1 1_555 1_555
O4_2 Zn1A_2 1_555 1_555
O5C C6C 1_555 1_555
O5_2 Zn2 1_555 1_555
O6C C6C 1_555 1_555
O6B Eu1B 1_555 1_555
O7C Eu1C 1_555 1_555
O7B Eu1B 1_555 1_555
O8C Zn1 1_555 1_555
O8B Zn1A 1_555 1_555
O9B Eu1B 1_555 1_555
O10B Eu1 1_555 1_555
O11B Eu1B 1_555 1_555
O12B Eu1B 1_555 1_555
H1B O12B 1_555 1_555
H2B O12B 1_555 1_555
O13_2 Zn2_2 1_555 1_555
H3_2 O13_2 1_555 1_555
H4_2 O13_2 1_555 1_555
O14_2 Zn2_2 1_555 1_555
H5_2 O14_2 1_555 1_555
H6_2 O14_2 1_555 1_555
N1A Zn1A_2 1_555 1_555
N1A_2 Zn1A 1_555 1_555
N2A Zn1 1_555 1_555
N3C Zn2C 1_555 1_555
N3_2 Zn2 1_555 1_555
N4C Zn1 1_555 1_555
N4B Zn1A 1_555 1_555
C1A C2A 1_555 1_555
C2A N1A 1_555 1_555
C3A N2A 1_555 1_555
C4A O3A 1_555 1_555
C5A N1A 1_555 1_555
H8A C5A 1_555 1_555
C6C C7C 1_555 1_555
C7C N3C 1_555 1_555
C8C N4C 1_555 1_555
C9C O7C 1_555 1_555
C10C N3C 1_555 1_555
H9C C10C 1_555 1_555
C11B C11 1_555 1_555
H10B O11B 1_555 1_555
H11B O11B 1_555 1_555
N2 C5 1_555 1_555
N2 Zn1A 1_555 1_555
N3 Zn2_2 1_555 1_555
N4 C10 1_555 1_555
N4 Zn1C 1_555 1_555
C3 C4 1_555 1_555
C8 C9 1_555 1_555
Zn2_2 O4_2 1_555 1_555
O4A C4A 1_555 1_555
O8C C9C 1_555 1_555
O9B C11B 1_555 1_555
O10B C11B 1_555 1_555
N2A C5A 1_555 1_555
N4C C10C 1_555 1_555
C2A C3A 1_555 1_555
C3A C4A 1_555 1_555
C7C C8C 1_555 1_555
C8C C9C 1_555 1_555

#END
