
#######################################################################
#
#                 Cambridge Crystallographic Data Centre
#                                CCDC 
#
#######################################################################
#
# If this CIF has been generated from an entry in the Cambridge 
# Structural Database, then it will include bibliographic, chemical, 
# crystal, experimental, refinement or atomic coordinate data resulting 
# from the CCDC's data processing and validation procedures.
#
#######################################################################

data_EVUNUF
_symmetry_cell_setting           monoclinic
_symmetry_space_group_name_H-M   'P 21/c'
_symmetry_Int_Tables_number      14
_space_group_name_Hall           '-P 2ybc'
loop_
_symmetry_equiv_pos_site_id
_symmetry_equiv_pos_as_xyz
1 x,y,z
2 -x,1/2+y,1/2-z
3 -x,-y,-z
4 x,1/2-y,1/2+z
_cell_length_a                   10.4826(6)
_cell_length_b                   10.1291(6)
_cell_length_c                   19.7566(12)
_cell_angle_alpha                90
_cell_angle_beta                 103.1590(10)
_cell_angle_gamma                90
_cell_volume                     2042.66
loop_
_atom_site_label
_atom_site_type_symbol
_atom_site_fract_x
_atom_site_fract_y
_atom_site_fract_z
Gd1 Gd 0.920407(9) 0.567669(9) 0.142521(5)
Zn1 Zn 0.58550(2) 0.74155(2) 0.341730(11)
Zn2 Zn 0.73523(2) 0.14070(2) 0.086443(12)
O1 O 0.89154(13) 0.58425(13) 0.26278(7)
O2 O 0.77461(13) 0.71808(13) 0.31582(7)
O3 O 0.80636(13) 0.37777(14) 0.16175(7)
O4 O 0.64363(14) 0.23431(14) 0.15156(7)
O5 O 0.77429(15) 0.97034(14) 0.15733(7)
O6 O 0.79562(19) 0.75263(16) 0.15356(8)
O7 O 0.73503(16) 0.56025(14) 0.04491(8)
O8 O 0.6579(2) 0.58320(16) -0.06963(9)
O9 O 0.99722(15) 0.65183(14) 0.04167(7)
O10 O 1.01738(14) 0.60494(14) -0.06707(7)
O11 O 1.0783(2) 0.7383(2) 0.18976(10)
O12 O 1.09721(16) 0.44305(16) 0.20811(8)
H1 H 1.1250(11) 0.3747(6) 0.1918(3)
H2 H 1.1328(17) 0.4598(9) 0.2500(3)
O13 O 0.93470(15) 0.14774(14) 0.10315(8)
H3 H 0.9683(17) 0.1243(7) 0.1443(3)
H4 H 0.9588(12) 0.2217(5) 0.0911(4)
O14 O 0.69638(18) 0.28911(15) 0.01312(8)
H5 H 0.7126(12) 0.3689(5) 0.0227(6)
H6 H 0.6417(9) 0.2719(9) -0.0237(4)
N1 N 0.55510(16) 0.57623(16) 0.27948(9)
N2 N 0.50073(16) 0.39492(17) 0.21508(8)
N3 N 0.67529(17) 0.99060(17) 0.02078(8)
N4 N 0.62915(17) 0.84297(17) -0.06467(8)
C1 C 0.78429(19) 0.6192(2) 0.27851(10)
C2 C 0.66291(19) 0.53833(19) 0.25487(10)
C3 C 0.62896(19) 0.42632(19) 0.21479(10)
C4 C 0.69908(19) 0.34240(19) 0.17410(10)
C5 C 0.4610(2) 0.4880(2) 0.25412(10)
H8 H 0.3774 0.4910 0.2626
C6 C 0.7631(2) 0.8620(2) 0.12456(10)
C7 C 0.7062(2) 0.8677(2) 0.04892(10)
C8 C 0.6779(2) 0.7755(2) -0.00409(10)
C9 C 0.6910(2) 0.6301(2) -0.00950(11)
C10 C 0.6301(2) 0.9701(2) -0.04720(11)
H9 H 0.6021 1.0375 -0.0791
C11 C 1.0038(2) 0.5747(2) -0.00704(11)
H10 H 1.0866(8) 0.7762(9) 0.2279(3)
H11 H 1.1446(5) 0.7125(11) 0.1772(4)
Gd1B Gd 1.079593(9) 0.432331(9) -0.142521(5)
Gd1A Gd 0.079593(9) 1.067669(9) 0.357479(5)
Gd1C Gd 0.920407(9) 0.932331(9) 0.642521(5)
Zn1A Zn 0.41450(2) 0.24155(2) 0.158270(11)
Zn1C Zn 0.58550(2) 0.75845(2) -0.158270(11)
Zn1A_2 Zn 0.41450(2) 1.24155(2) 0.158270(11)
Zn2_2 Zn 0.73523(2) 1.14070(2) 0.086443(12)
Zn2A Zn 0.26477(2) 0.64070(2) 0.413557(12)
Zn2C Zn 0.73523(2) 0.35930(2) 0.586443(12)
O1A O 0.10846(13) 1.08425(13) 0.23722(7)
O1B O 1.10846(13) 0.41575(13) -0.26278(7)
O2A O 0.22539(13) 1.21808(13) 0.18418(7)
O2A_2 O 0.22539(13) 0.21808(13) 0.18418(7)
O3A O 0.19364(13) 0.87777(14) 0.33825(7)
O3B O 1.19364(13) 0.62223(14) -0.16175(7)
O4A O 0.35637(14) 0.73431(14) 0.34844(7)
O4_2 O 0.64363(14) 1.23431(14) 0.15156(7)
O5C O 0.77429(15) 0.52966(14) 0.65733(7)
O5_2 O 0.77429(15) -0.02966(14) 0.15733(7)
O6C O 0.79562(19) 0.74737(16) 0.65356(8)
O6B O 1.20438(19) 0.24737(16) -0.15356(8)
O7C O 0.73503(16) 0.93975(14) 0.54491(8)
O7B O 1.26497(16) 0.43975(14) -0.04491(8)
O8C O 0.6579(2) 0.91680(16) 0.43037(9)
O8B O 0.3421(2) 0.41680(16) 0.06963(9)
O9B O 1.00278(15) 0.34817(14) -0.04167(7)
O10B O 0.98262(14) 0.39506(14) 0.06707(7)
O11B O 0.9217(2) 0.2617(2) -0.18976(10)
O12B O 0.90279(16) 0.55695(16) -0.20811(8)
H1B H 0.8750(11) 0.6253(6) -0.1918(3)
H2B H 0.8672(17) 0.5402(9) -0.2500(3)
O13_2 O 0.93470(15) 1.14774(14) 0.10315(8)
H3_2 H 0.9683(17) 1.1243(7) 0.1443(3)
H4_2 H 0.9588(12) 1.2217(5) 0.0911(4)
O14_2 O 0.69638(18) 1.28911(15) 0.01312(8)
H5_2 H 0.7126(12) 1.3689(5) 0.0227(6)
H6_2 H 0.6417(9) 1.2719(9) -0.0237(4)
N1A N 0.44490(16) 1.07623(16) 0.22052(9)
N1A_2 N 0.44490(16) 0.07623(16) 0.22052(9)
N2A N 0.49927(16) 0.89492(17) 0.28492(8)
N3C N 0.67529(17) 0.50940(17) 0.52078(8)
N3_2 N 0.67529(17) -0.00940(17) 0.02078(8)
N4C N 0.62915(17) 0.65703(17) 0.43533(8)
N4B N 0.37085(17) 0.15703(17) 0.06467(8)
C1A C 0.21571(19) 1.1192(2) 0.22149(10)
C2A C 0.33709(19) 1.03833(19) 0.24513(10)
C3A C 0.37104(19) 0.92632(19) 0.28521(10)
C4A C 0.30092(19) 0.84240(19) 0.32590(10)
C5A C 0.5390(2) 0.9880(2) 0.24588(10)
H8A H 0.6226 0.9910 0.2374
C6C C 0.7631(2) 0.6380(2) 0.62456(10)
C7C C 0.7062(2) 0.6323(2) 0.54892(10)
C8C C 0.6779(2) 0.7245(2) 0.49591(10)
C9C C 0.6910(2) 0.8699(2) 0.49050(11)
C10C C 0.6301(2) 0.5299(2) 0.45280(11)
H9C H 0.6021 0.4625 0.4209
C11B C 0.9962(2) 0.4253(2) 0.00704(11)
H10B H 0.9134(8) 0.2238(9) -0.2279(3)
H11B H 0.8554(5) 0.2875(11) -0.1772(4)
O15 O 0.0898(3) 0.9140(3) 0.08004(17)
O16 O 0.6575(4) 0.3231(5) 0.8715(2)
H7 H 0.6786 0.2452 0.8712
C12 C 0.5262(4) 0.3340(5) 0.8921(2)
H12 H 0.5408 0.3570 0.9404
H13 H 0.4813 0.2509 0.8843
H14 H 0.4739 0.4010 0.8645
loop_
_geom_bond_atom_site_label_1
_geom_bond_atom_site_label_2
_geom_bond_site_symmetry_1
_geom_bond_site_symmetry_2
Gd1 O1 1_555 1_555
Zn1 O2 1_555 1_555
Zn2 O4 1_555 1_555
O1 C1 1_555 1_555
O2 C1 1_555 1_555
O3 Gd1 1_555 1_555
O4 C4 1_555 1_555
O5 C6 1_555 1_555
O6 Gd1 1_555 1_555
O7 Gd1 1_555 1_555
O8 C9 1_555 1_555
O9 Gd1 1_555 1_555
O10 C11 1_555 1_555
O11 Gd1 1_555 1_555
O12 Gd1 1_555 1_555
H1 O12 1_555 1_555
H2 O12 1_555 1_555
O13 Zn2 1_555 1_555
H3 O13 1_555 1_555
H4 O13 1_555 1_555
O14 Zn2 1_555 1_555
H5 O14 1_555 1_555
H6 O14 1_555 1_555
O16 H7 1_555 1_555
N1 Zn1 1_555 1_555
N2 C3 1_555 1_555
N3 C7 1_555 1_555
N4 C8 1_555 1_555
C1 C2 1_555 1_555
C2 N1 1_555 1_555
C3 C2 1_555 1_555
C4 O3 1_555 1_555
C5 N1 1_555 1_555
H8 C5 1_555 1_555
C6 O6 1_555 1_555
C7 C6 1_555 1_555
C8 C7 1_555 1_555
C9 O7 1_555 1_555
C10 N3 1_555 1_555
H9 C10 1_555 1_555
C11 O9 1_555 1_555
H10 O11 1_555 1_555
H11 O11 1_555 1_555
C12 O16 1_555 1_555
H12 C12 1_555 1_555
H13 C12 1_555 1_555
H14 C12 1_555 1_555
Gd1B O10 1_555 1_555
Gd1A O1A 1_555 1_555
Gd1C O6C 1_555 1_555
Zn1A O4 1_555 1_555
Zn1C O8 1_555 1_555
Zn1A_2 O2A 1_555 1_555
Zn2_2 O5 1_555 1_555
Zn2A O4A 1_555 1_555
Zn2C O5C 1_555 1_555
O1A C1A 1_555 1_555
O1B Gd1B 1_555 1_555
O2A C1A 1_555 1_555
O2A_2 Zn1A 1_555 1_555
O3A Gd1A 1_555 1_555
O3B Gd1B 1_555 1_555
O4A Zn1 1_555 1_555
O4_2 Zn1A_2 1_555 1_555
O5C C6C 1_555 1_555
O5_2 Zn2 1_555 1_555
O6C C6C 1_555 1_555
O6B Gd1B 1_555 1_555
O7C Gd1C 1_555 1_555
O7B Gd1B 1_555 1_555
O8C Zn1 1_555 1_555
O8B Zn1A 1_555 1_555
O9B Gd1B 1_555 1_555
O10B Gd1 1_555 1_555
O11B Gd1B 1_555 1_555
O12B Gd1B 1_555 1_555
H1B O12B 1_555 1_555
H2B O12B 1_555 1_555
O13_2 Zn2_2 1_555 1_555
H3_2 O13_2 1_555 1_555
H4_2 O13_2 1_555 1_555
O14_2 Zn2_2 1_555 1_555
H5_2 O14_2 1_555 1_555
H6_2 O14_2 1_555 1_555
N1A Zn1A_2 1_555 1_555
N1A_2 Zn1A 1_555 1_555
N2A Zn1 1_555 1_555
N3C Zn2C 1_555 1_555
N3_2 Zn2 1_555 1_555
N4C Zn1 1_555 1_555
N4B Zn1A 1_555 1_555
C1A C2A 1_555 1_555
C2A N1A 1_555 1_555
C3A N2A 1_555 1_555
C4A O3A 1_555 1_555
C5A N1A 1_555 1_555
H8A C5A 1_555 1_555
C6C C7C 1_555 1_555
C7C N3C 1_555 1_555
C8C N4C 1_555 1_555
C9C O7C 1_555 1_555
C10C N3C 1_555 1_555
H9C C10C 1_555 1_555
C11B C11 1_555 1_555
H10B O11B 1_555 1_555
H11B O11B 1_555 1_555
N2 C5 1_555 1_555
N2 Zn1A 1_555 1_555
N3 Zn2_2 1_555 1_555
N4 C10 1_555 1_555
N4 Zn1C 1_555 1_555
C3 C4 1_555 1_555
C8 C9 1_555 1_555
Zn2_2 O4_2 1_555 1_555
O4A C4A 1_555 1_555
O8C C9C 1_555 1_555
O9B C11B 1_555 1_555
O10B C11B 1_555 1_555
N2A C5A 1_555 1_555
N4C C10C 1_555 1_555
C2A C3A 1_555 1_555
C3A C4A 1_555 1_555
C7C C8C 1_555 1_555
C8C C9C 1_555 1_555

#END
