
#######################################################################
#
#                 Cambridge Crystallographic Data Centre
#                                CCDC 
#
#######################################################################
#
# If this CIF has been generated from an entry in the Cambridge 
# Structural Database, then it will include bibliographic, chemical, 
# crystal, experimental, refinement or atomic coordinate data resulting 
# from the CCDC's data processing and validation procedures.
#
#######################################################################

data_EVUNIT
_symmetry_cell_setting           monoclinic
_symmetry_space_group_name_H-M   'C 2/c'
_symmetry_Int_Tables_number      15
_space_group_name_Hall           '-C 2yn'
loop_
_symmetry_equiv_pos_site_id
_symmetry_equiv_pos_as_xyz
1 x,y,z
2 -x,y,1/2-z
3 1/2+x,1/2+y,z
4 1/2-x,1/2+y,1/2-z
5 -x,-y,-z
6 x,-y,1/2+z
7 1/2-x,1/2-y,-z
8 1/2+x,1/2-y,1/2+z
_cell_length_a                   24.5105(14)
_cell_length_b                   9.8438(6)
_cell_length_c                   19.4721(18)
_cell_angle_alpha                90
_cell_angle_beta                 126.1580(10)
_cell_angle_gamma                90
_cell_volume                     3793.26
loop_
_atom_site_label
_atom_site_type_symbol
_atom_site_fract_x
_atom_site_fract_y
_atom_site_fract_z
Eu1 Eu -0.022620(10) 0.60407(2) -0.427150(12)
Zn1 Zn 0.28591(2) 0.03871(5) -0.31778(3)
Zn2 Zn 0.14689(3) -0.03278(5) -0.54572(3)
O1 O -0.17214(17) 0.6502(3) -0.3720(2)
O2 O -0.12495(17) 0.6306(3) -0.4395(2)
O3 O -0.08654(16) 0.4024(3) -0.4913(2)
O4 O -0.11151(18) 0.1842(3) -0.5019(2)
O5 O 0.11402(14) 0.5329(3) -0.30852(18)
O6 O 0.05278(14) 0.4225(3) -0.42962(17)
O7 O 0.08544(14) 0.1925(3) -0.49524(17)
O8 O 0.17981(15) 0.0737(3) -0.44128(19)
O9 O 0.00279(16) 0.7422(3) -0.30548(18)
O10 O -0.00242(16) 0.4702(3) -0.30891(18)
O11 O 0.05261(17) 0.7805(4) -0.4135(2)
H1 H 0.070(3) 0.769(5) -0.439(3)
H2 H 0.036(3) 0.857(3) -0.418(4)
O12 O 0.0522(2) 0.0018(4) -0.6472(3)
H3 H 0.025(2) -0.062(4) -0.675(4)
H4 H 0.035(3) 0.080(3) -0.656(4)
O13 O 0.1910(3) 0.0860(4) -0.5886(3)
H5 H 0.182(4) 0.054(5) -0.634(2)
H6 H 0.194(4) 0.1708(13) -0.584(4)
N1 N -0.19737(18) 0.3878(4) -0.3788(2)
N2 N -0.17126(18) 0.2078(4) -0.4242(2)
N3 N 0.22690(17) 0.3904(4) -0.2485(2)
N4 N 0.24954(16) 0.2101(4) -0.2974(2)
C1 C -0.1530(2) 0.5803(4) -0.4086(3)
C2 C -0.1645(2) 0.4332(4) -0.4118(3)
C3 C -0.1483(2) 0.3226(4) -0.4399(3)
C4 C -0.1130(2) 0.3043(4) -0.4803(3)
C5 C -0.2005(2) 0.2520(4) -0.3874(3)
C6 C 0.1092(2) 0.4427(4) -0.3574(3)
C7 C 0.16975(19) 0.3601(4) -0.3281(2)
C8 C 0.18444(19) 0.2488(4) -0.3583(2)
C9 C 0.1460(2) 0.1685(4) -0.4377(2)
C10 C 0.2728(2) 0.2967(5) -0.2331(3)
C11 C 0.0000 0.6853(6) -0.2500
C12 C 0.0000 0.5271(6) -0.2500
Eu1D Eu 0.022620(10) 0.39593(2) -0.572850(12)
Eu1A Eu 0.022620(10) 0.60407(2) -0.072850(12)
Eu1F Eu -0.477380(10) 0.89593(2) -0.572850(12)
Zn1C Zn 0.21409(2) 0.53871(5) -0.18222(3)
Zn1B Zn -0.21409(2) 0.53871(5) -0.31778(3)
Zn1G Zn -0.21409(2) 0.46129(5) -0.81778(3)
Zn1D Zn -0.28591(2) 0.96129(5) -0.68222(3)
Zn2D Zn -0.14689(3) 0.03278(5) -0.45428(3)
Zn2D_2 Zn -0.14689(3) 1.03278(5) -0.45428(3)
Zn2B Zn -0.35311(3) 1.46722(5) -0.54572(3)
O1B O 0.32786(17) 0.1502(3) -0.3720(2)
O1F O -0.32786(17) 0.8498(3) -0.6280(2)
O2D O 0.12495(17) 0.3694(3) -0.5605(2)
O2F O -0.37505(17) 0.8694(3) -0.5605(2)
O3D O 0.08654(16) 0.5976(3) -0.5087(2)
O3F O -0.41346(16) 1.0976(3) -0.5087(2)
O4D O 0.11151(18) -0.1842(3) -0.4981(2)
O4_2 O -0.11151(18) 1.1842(3) -0.5019(2)
O4F O -0.38849(18) 1.3158(3) -0.4981(2)
O5D O -0.11402(14) 0.4671(3) -0.69148(18)
O5C O 0.38598(14) 0.0329(3) -0.19148(18)
O5G O -0.38598(14) 0.9671(3) -0.80852(18)
O6D O -0.05278(14) 0.5775(3) -0.57038(17)
O7D O -0.08544(14) 0.8075(3) -0.50476(17)
O8D O -0.17981(15) 0.9263(3) -0.55872(19)
O9A O -0.00279(16) 0.7422(3) -0.19452(18)
O9D O -0.00279(16) 0.2578(3) -0.69452(18)
O10A O 0.00242(16) 0.4702(3) -0.19109(18)
O10D O 0.00242(16) 0.5298(3) -0.69109(18)
O11D O -0.05261(17) 0.2195(4) -0.5865(2)
H1D H -0.070(3) 0.231(5) -0.561(3)
H2D H -0.036(3) 0.143(3) -0.582(4)
O12D O -0.0522(2) 0.9982(4) -0.3528(3)
H3D H -0.025(2) 1.062(4) -0.325(4)
H4D H -0.035(3) 0.920(3) -0.344(4)
O13D O -0.1910(3) 0.9140(4) -0.4114(3)
H5D H -0.182(4) 0.946(5) -0.366(2)
H6D H -0.194(4) 0.8292(13) -0.416(4)
N1B N 0.30263(18) -0.1122(4) -0.3788(2)
N1F N -0.30263(18) 1.1122(4) -0.6212(2)
N2D N 0.17126(18) -0.2078(4) -0.5758(2)
N2_2 N -0.17126(18) 1.2078(4) -0.4242(2)
N2F N -0.32874(18) 1.2922(4) -0.5758(2)
N3D N -0.22690(17) 0.6096(4) -0.7515(2)
N3C N 0.27310(17) -0.1096(4) -0.2515(2)
N3G N -0.27310(17) 1.1096(4) -0.7485(2)
N4D N -0.24954(16) 0.7899(4) -0.7026(2)
C1F C -0.3470(2) 0.9197(4) -0.5914(3)
C2F C -0.3355(2) 1.0668(4) -0.5882(3)
C3F C -0.3517(2) 1.1774(4) -0.5601(3)
C4F C -0.3870(2) 1.1957(4) -0.5197(3)
C5F C -0.2995(2) 1.2480(4) -0.6126(3)
C6D C -0.1092(2) 0.5573(4) -0.6426(3)
C7D C -0.16975(19) 0.6399(4) -0.6719(2)
C8D C -0.18444(19) 0.7512(4) -0.6417(2)
C9D C -0.1460(2) 0.8315(4) -0.5623(2)
C10D C -0.2728(2) 0.7033(5) -0.7669(3)
O14 O 0.0362(3) 0.2041(6) -0.3039(7)
O15 O 0.0316(7) 0.0518(11) -0.4191(9)
O16 O 0.3690(5) 0.5039(9) -0.7371(6)
loop_
_geom_bond_atom_site_label_1
_geom_bond_atom_site_label_2
_geom_bond_site_symmetry_1
_geom_bond_site_symmetry_2
Eu1 O2 1_555 1_555
Zn1 O8 1_555 1_555
Zn2 O8 1_555 1_555
O1 C1 1_555 1_555
O2 C1 1_555 1_555
O3 Eu1 1_555 1_555
O4 C4 1_555 1_555
O5 Eu1 1_555 1_555
O6 Eu1 1_555 1_555
O7 C9 1_555 1_555
O8 C9 1_555 1_555
O9 Eu1 1_555 1_555
O10 Eu1 1_555 1_555
O11 Eu1 1_555 1_555
H1 O11 1_555 1_555
H2 O11 1_555 1_555
O12 Zn2 1_555 1_555
H3 O12 1_555 1_555
H4 O12 1_555 1_555
O13 Zn2 1_555 1_555
H5 O13 1_555 1_555
H6 O13 1_555 1_555
N1 C2 1_555 1_555
N2 C3 1_555 1_555
N3 C7 1_555 1_555
N4 Zn1 1_555 1_555
C1 C2 1_555 1_555
C2 C3 1_555 1_555
C3 C4 1_555 1_555
C4 O3 1_555 1_555
C5 N1 1_555 1_555
C6 O5 1_555 1_555
C7 C6 1_555 1_555
C8 N4 1_555 1_555
C9 C8 1_555 1_555
C10 N3 1_555 1_555
C11 O9 1_555 1_555
C12 O10 1_555 1_555
Eu1D O6 1_555 1_555
Eu1A O9A 1_555 1_555
Eu1F O2F 1_555 1_555
Zn1C O5 1_555 1_555
Zn1B O1 1_555 1_555
Zn1G O5D 1_555 1_555
Zn1D O1F 1_555 1_555
Zn2D O4 1_555 1_555
Zn2D_2 O4_2 1_555 1_555
Zn2B O4F 1_555 1_555
O1B Zn1 1_555 1_555
O1F C1F 1_555 1_555
O2D Eu1D 1_555 1_555
O2F C1F 1_555 1_555
O3D Eu1D 1_555 1_555
O3F Eu1F 1_555 1_555
O4D Zn2 1_555 1_555
O4F C4F 1_555 1_555
O5D Eu1D 1_555 1_555
O5C Zn1 1_555 1_555
O5G Zn1D 1_555 1_555
O6D Eu1 1_555 1_555
O7D Eu1 1_555 1_555
O8D Zn1D 1_555 1_555
O9A C11 1_555 1_555
O9D Eu1D 1_555 1_555
O10A C12 1_555 1_555
O10D Eu1D 1_555 1_555
O11D Eu1D 1_555 1_555
H1D O11D 1_555 1_555
H2D O11D 1_555 1_555
O12D Zn2D_2 1_555 1_555
H3D O12D 1_555 1_555
H4D O12D 1_555 1_555
O13D Zn2D_2 1_555 1_555
H5D O13D 1_555 1_555
H6D O13D 1_555 1_555
N1B Zn1 1_555 1_555
N1F Zn1D 1_555 1_555
N2D Zn2 1_555 1_555
N2_2 Zn2D_2 1_555 1_555
N2F Zn2B 1_555 1_555
N3D Zn1G 1_555 1_555
N3C Zn1 1_555 1_555
N3G Zn1D 1_555 1_555
N4D Zn1D 1_555 1_555
C1F C2F 1_555 1_555
C2F N1F 1_555 1_555
C3F N2F 1_555 1_555
C4F O3F 1_555 1_555
C5F N1F 1_555 1_555
C6D O5D 1_555 1_555
C7D N3D 1_555 1_555
C8D N4D 1_555 1_555
C9D O7D 1_555 1_555
C10D N3D 1_555 1_555
O6 C6 1_555 1_555
O7 Eu1D 1_555 1_555
N1 Zn1B 1_555 1_555
N2 C5 1_555 1_555
N2 Zn2D 1_555 1_555
N3 Zn1C 1_555 1_555
N4 C10 1_555 1_555
C7 C8 1_555 1_555
C11 C12 1_555 1_555
Eu1D O6D 1_555 1_555
Eu1A O10A 1_555 1_555
Zn2D_2 O8D 1_555 1_555
O6D C6D 1_555 1_555
O8D C9D 1_555 1_555
N2F C5F 1_555 1_555
N4D C10D 1_555 1_555
C2F C3F 1_555 1_555
C3F C4F 1_555 1_555
C6D C7D 1_555 1_555
C7D C8D 1_555 1_555
C8D C9D 1_555 1_555

#END
