
#######################################################################
#
#                 Cambridge Crystallographic Data Centre
#                                CCDC 
#
#######################################################################
#
# If this CIF has been generated from an entry in the Cambridge 
# Structural Database, then it will include bibliographic, chemical, 
# crystal, experimental, refinement or atomic coordinate data resulting 
# from the CCDC's data processing and validation procedures.
#
#######################################################################

data_EVUPOB
_symmetry_cell_setting           monoclinic
_symmetry_space_group_name_H-M   'P 21/c'
_symmetry_Int_Tables_number      14
_space_group_name_Hall           '-P 2ybc'
loop_
_symmetry_equiv_pos_site_id
_symmetry_equiv_pos_as_xyz
1 x,y,z
2 -x,1/2+y,1/2-z
3 -x,-y,-z
4 x,1/2-y,1/2+z
_cell_length_a                   10.4186(9)
_cell_length_b                   10.2243(10)
_cell_length_c                   19.5891(7)
_cell_angle_alpha                90
_cell_angle_beta                 103.602(2)
_cell_angle_gamma                90
_cell_volume                     2028.16
loop_
_atom_site_label
_atom_site_type_symbol
_atom_site_fract_x
_atom_site_fract_y
_atom_site_fract_z
Yb1 Yb 0.920910(13) 0.563560(13) 0.141591(7)
Zn1 Zn 0.58636(3) 0.74309(4) 0.341324(18)
Zn2 Zn 0.73823(4) 0.13739(4) 0.086793(19)
O1 O 0.89233(19) 0.5830(2) 0.26011(10)
O2 O 0.77616(19) 0.7183(2) 0.31428(11)
O3 O 0.80784(19) 0.3799(2) 0.15935(11)
O4 O 0.6478(2) 0.2331(2) 0.15243(11)
O5 O 0.7809(2) 0.9661(2) 0.15889(11)
O6 O 0.8120(3) 0.7494(2) 0.15351(12)
O7 O 0.7406(2) 0.5575(2) 0.04670(12)
O8 O 0.6636(3) 0.5797(2) -0.06878(13)
O9 O 0.9955(2) 0.6506(2) 0.04280(11)
O10 O 1.0179(2) 0.6055(2) -0.06734(11)
O11 O 1.0872(3) 0.7182(3) 0.18840(13)
O12 O 1.0917(2) 0.4432(2) 0.20551(11)
H1 H 1.1117(13) 0.3734(6) 0.1875(3)
H2 H 1.116(2) 0.4477(11) 0.2496(2)
O13 O 0.9390(2) 0.1464(2) 0.10364(11)
H3 H 0.971(2) 0.1344(8) 0.1468(3)
H4 H 0.948(2) 0.2222(5) 0.0886(4)
O14 O 0.6974(3) 0.2858(2) 0.01288(11)
H5 H 0.707(2) 0.3657(5) 0.0228(5)
H6 H 0.663(2) 0.2665(9) -0.0290(3)
N1 N 0.5543(2) 0.5775(2) 0.27944(13)
N2 N 0.5005(2) 0.3953(2) 0.21517(13)
N3 N 0.6774(3) 0.9861(3) 0.02226(13)
N4 N 0.6283(2) 0.8388(3) -0.06409(14)
C1 C 0.7866(3) 0.6179(3) 0.27752(15)
C2 C 0.6640(3) 0.5393(3) 0.25403(15)
C3 C 0.6293(3) 0.4269(3) 0.21372(15)
C4 C 0.7008(3) 0.3424(3) 0.17382(15)
C5 C 0.4610(3) 0.4889(3) 0.25478(16)
H8 H 0.3773 0.4911 0.2638
C6 C 0.7720(3) 0.8583(3) 0.12462(15)
C7 C 0.7118(3) 0.8640(3) 0.04994(15)
C8 C 0.6808(3) 0.7716(3) -0.00370(16)
C9 C 0.6958(3) 0.6260(3) -0.00859(17)
C10 C 0.6296(3) 0.9666(3) -0.04608(17)
H9 H 0.6001 1.0335 -0.0781
C11 C 1.0037(3) 0.5744(3) -0.00681(17)
H10 H 1.0870(16) 0.7141(10) 0.2310(3)
H11 H 1.086(2) 0.7927(6) 0.1705(4)
Yb1B Yb 1.079090(13) 0.436440(13) -0.141591(7)
Yb1A Yb 0.079090(13) 1.063560(13) 0.358409(7)
Yb1C Yb 0.920910(13) 0.936440(13) 0.641591(7)
Zn1A Zn 0.41364(3) 0.24309(4) 0.158676(18)
Zn1C Zn 0.58636(3) 0.75691(4) -0.158676(18)
Zn1A_2 Zn 0.41364(3) 1.24309(4) 0.158676(18)
Zn2_2 Zn 0.73823(4) 1.13739(4) 0.086793(19)
Zn2A Zn 0.26177(4) 0.63739(4) 0.413207(19)
Zn2C Zn 0.73823(4) 0.36261(4) 0.586793(19)
O1A O 0.10767(19) 1.0830(2) 0.23989(10)
O1B O 1.10767(19) 0.4170(2) -0.26011(10)
O2A O 0.22384(19) 1.2183(2) 0.18572(11)
O2A_2 O 0.22384(19) 0.2183(2) 0.18572(11)
O3A O 0.19216(19) 0.8799(2) 0.34065(11)
O3B O 1.19216(19) 0.6201(2) -0.15935(11)
O4A O 0.3522(2) 0.7331(2) 0.34757(11)
O4_2 O 0.6478(2) 1.2331(2) 0.15243(11)
O5C O 0.7809(2) 0.5339(2) 0.65889(11)
O5_2 O 0.7809(2) -0.0339(2) 0.15889(11)
O6C O 0.8120(3) 0.7506(2) 0.65351(12)
O6B O 1.1880(3) 0.2506(2) -0.15351(12)
O7C O 0.7406(2) 0.9425(2) 0.54670(12)
O7B O 1.2594(2) 0.4425(2) -0.04670(12)
O8C O 0.6636(3) 0.9203(2) 0.43122(13)
O8B O 0.3364(3) 0.4203(2) 0.06878(13)
O9B O 1.0045(2) 0.3494(2) -0.04280(11)
O10B O 0.9821(2) 0.3945(2) 0.06734(11)
O11B O 0.9128(3) 0.2818(3) -0.18840(13)
O12B O 0.9083(2) 0.5568(2) -0.20551(11)
H1B H 0.8883(13) 0.6266(6) -0.1875(3)
H2B H 0.884(2) 0.5523(11) -0.2496(2)
O13_2 O 0.9390(2) 1.1464(2) 0.10364(11)
H3_2 H 0.971(2) 1.1344(8) 0.1468(3)
H4_2 H 0.948(2) 1.2222(5) 0.0886(4)
O14_2 O 0.6974(3) 1.2858(2) 0.01288(11)
H5_2 H 0.707(2) 1.3657(5) 0.0228(5)
H6_2 H 0.663(2) 1.2665(9) -0.0290(3)
N1A N 0.4457(2) 1.0775(2) 0.22056(13)
N1A_2 N 0.4457(2) 0.0775(2) 0.22056(13)
N2A N 0.4995(2) 0.8953(2) 0.28483(13)
N3C N 0.6774(3) 0.5139(3) 0.52226(13)
N3_2 N 0.6774(3) -0.0139(3) 0.02226(13)
N4C N 0.6283(2) 0.6612(3) 0.43591(14)
N4B N 0.3717(2) 0.1612(3) 0.06409(14)
C1A C 0.2134(3) 1.1179(3) 0.22248(15)
C2A C 0.3360(3) 1.0393(3) 0.24597(15)
C3A C 0.3707(3) 0.9269(3) 0.28628(15)
C4A C 0.2992(3) 0.8424(3) 0.32618(15)
C5A C 0.5390(3) 0.9889(3) 0.24522(16)
H8A H 0.6227 0.9911 0.2362
C6C C 0.7720(3) 0.6417(3) 0.62462(15)
C7C C 0.7118(3) 0.6360(3) 0.54994(15)
C8C C 0.6808(3) 0.7284(3) 0.49630(16)
C9C C 0.6958(3) 0.8740(3) 0.49141(17)
C10C C 0.6296(3) 0.5334(3) 0.45392(17)
H9C H 0.6001 0.4665 0.4219
C11B C 0.9963(3) 0.4256(3) 0.00681(17)
H10B H 0.9130(16) 0.2859(10) -0.2310(3)
H11B H 0.914(2) 0.2073(6) -0.1705(4)
O15 O 0.0904(4) 0.9115(4) 0.0807(2)
O16 O 0.6623(4) 0.3266(5) 0.8691(2)
H7 H 0.6827 0.2500 0.8651
C12 C 0.5325(5) 0.3325(9) 0.8922(4)
H12 H 0.5501 0.3534 0.9413
H13 H 0.4890 0.2493 0.8841
H14 H 0.4768 0.3986 0.8657
loop_
_geom_bond_atom_site_label_1
_geom_bond_atom_site_label_2
_geom_bond_site_symmetry_1
_geom_bond_site_symmetry_2
Yb1 O1 1_555 1_555
Zn1 O2 1_555 1_555
Zn2 O4 1_555 1_555
O1 C1 1_555 1_555
O2 C1 1_555 1_555
O3 Yb1 1_555 1_555
O4 C4 1_555 1_555
O5 C6 1_555 1_555
O6 Yb1 1_555 1_555
O7 Yb1 1_555 1_555
O8 C9 1_555 1_555
O9 Yb1 1_555 1_555
O10 C11 1_555 1_555
O11 Yb1 1_555 1_555
O12 Yb1 1_555 1_555
H1 O12 1_555 1_555
H2 O12 1_555 1_555
O13 Zn2 1_555 1_555
H3 O13 1_555 1_555
H4 O13 1_555 1_555
O14 Zn2 1_555 1_555
H5 O14 1_555 1_555
H6 O14 1_555 1_555
O16 H7 1_555 1_555
N1 Zn1 1_555 1_555
N2 C3 1_555 1_555
N3 C7 1_555 1_555
N4 C8 1_555 1_555
C1 C2 1_555 1_555
C2 N1 1_555 1_555
C3 C2 1_555 1_555
C4 O3 1_555 1_555
C5 N1 1_555 1_555
H8 C5 1_555 1_555
C6 O6 1_555 1_555
C7 C6 1_555 1_555
C8 C7 1_555 1_555
C9 O7 1_555 1_555
C10 N3 1_555 1_555
H9 C10 1_555 1_555
C11 O9 1_555 1_555
H10 O11 1_555 1_555
H11 O11 1_555 1_555
C12 O16 1_555 1_555
H12 C12 1_555 1_555
H13 C12 1_555 1_555
H14 C12 1_555 1_555
Yb1B O10 1_555 1_555
Yb1A O1A 1_555 1_555
Yb1C O6C 1_555 1_555
Zn1A O4 1_555 1_555
Zn1C O8 1_555 1_555
Zn1A_2 O2A 1_555 1_555
Zn2_2 O5 1_555 1_555
Zn2A O4A 1_555 1_555
Zn2C O5C 1_555 1_555
O1A C1A 1_555 1_555
O1B Yb1B 1_555 1_555
O2A C1A 1_555 1_555
O2A_2 Zn1A 1_555 1_555
O3A Yb1A 1_555 1_555
O3B Yb1B 1_555 1_555
O4A Zn1 1_555 1_555
O4_2 Zn1A_2 1_555 1_555
O5C C6C 1_555 1_555
O5_2 Zn2 1_555 1_555
O6C C6C 1_555 1_555
O6B Yb1B 1_555 1_555
O7C Yb1C 1_555 1_555
O7B Yb1B 1_555 1_555
O8C Zn1 1_555 1_555
O8B Zn1A 1_555 1_555
O9B Yb1B 1_555 1_555
O10B Yb1 1_555 1_555
O11B Yb1B 1_555 1_555
O12B Yb1B 1_555 1_555
H1B O12B 1_555 1_555
H2B O12B 1_555 1_555
O13_2 Zn2_2 1_555 1_555
H3_2 O13_2 1_555 1_555
H4_2 O13_2 1_555 1_555
O14_2 Zn2_2 1_555 1_555
H5_2 O14_2 1_555 1_555
H6_2 O14_2 1_555 1_555
N1A Zn1A_2 1_555 1_555
N1A_2 Zn1A 1_555 1_555
N2A Zn1 1_555 1_555
N3C Zn2C 1_555 1_555
N3_2 Zn2 1_555 1_555
N4C Zn1 1_555 1_555
N4B Zn1A 1_555 1_555
C1A C2A 1_555 1_555
C2A N1A 1_555 1_555
C3A N2A 1_555 1_555
C4A O3A 1_555 1_555
C5A N1A 1_555 1_555
H8A C5A 1_555 1_555
C6C C7C 1_555 1_555
C7C N3C 1_555 1_555
C8C N4C 1_555 1_555
C9C O7C 1_555 1_555
C10C N3C 1_555 1_555
H9C C10C 1_555 1_555
C11B C11 1_555 1_555
H10B O11B 1_555 1_555
H11B O11B 1_555 1_555
N2 C5 1_555 1_555
N2 Zn1A 1_555 1_555
N3 Zn2_2 1_555 1_555
N4 C10 1_555 1_555
N4 Zn1C 1_555 1_555
C3 C4 1_555 1_555
C8 C9 1_555 1_555
Zn2_2 O4_2 1_555 1_555
O4A C4A 1_555 1_555
O8C C9C 1_555 1_555
O9B C11B 1_555 1_555
O10B C11B 1_555 1_555
N2A C5A 1_555 1_555
N4C C10C 1_555 1_555
C2A C3A 1_555 1_555
C3A C4A 1_555 1_555
C7C C8C 1_555 1_555
C8C C9C 1_555 1_555

#END
