
#######################################################################
#
#                 Cambridge Crystallographic Data Centre
#                                CCDC 
#
#######################################################################
#
# If this CIF has been generated from an entry in the Cambridge 
# Structural Database, then it will include bibliographic, chemical, 
# crystal, experimental, refinement or atomic coordinate data resulting 
# from the CCDC's data processing and validation procedures.
#
#######################################################################

data_EVUPUH
_symmetry_cell_setting           monoclinic
_symmetry_space_group_name_H-M   'P 21/c'
_symmetry_Int_Tables_number      14
_space_group_name_Hall           '-P 2ybc'
loop_
_symmetry_equiv_pos_site_id
_symmetry_equiv_pos_as_xyz
1 x,y,z
2 -x,1/2+y,1/2-z
3 -x,-y,-z
4 x,1/2-y,1/2+z
_cell_length_a                   10.3486(12)
_cell_length_b                   10.1148(12)
_cell_length_c                   19.398(2)
_cell_angle_alpha                90
_cell_angle_beta                 102.258(2)
_cell_angle_gamma                90
_cell_volume                     1984.17
loop_
_atom_site_label
_atom_site_type_symbol
_atom_site_fract_x
_atom_site_fract_y
_atom_site_fract_z
Lu1 Lu 0.92098(3) 0.56324(3) 0.141404(14)
Zn1 Zn 0.58654(8) 0.74368(7) 0.34137(4)
Zn2 Zn 0.73872(8) 0.13697(8) 0.08684(4)
O1 O 0.8923(4) 0.5830(4) 0.2600(2)
O2 O 0.7768(4) 0.7182(4) 0.3147(2)
O3 O 0.8091(5) 0.3805(5) 0.1598(2)
O4 O 0.6477(5) 0.2324(4) 0.1528(2)
O5 O 0.7812(5) 0.9644(4) 0.1590(2)
O6 O 0.8133(6) 0.7500(5) 0.1530(2)
O7 O 0.7409(5) 0.5565(4) 0.0465(2)
O8 O 0.6628(6) 0.5791(5) -0.0688(3)
O9 O 0.9966(5) 0.6506(4) 0.0434(2)
O10 O 1.0183(5) 0.6053(4) -0.0673(2)
O11 O 1.0867(7) 0.7171(6) 0.1874(3)
O12 O 1.0899(5) 0.4423(5) 0.2051(2)
H1 H 1.105(7) 0.368(4) 0.189(3)
H2 H 1.126(7) 0.457(6) 0.2475(14)
O13 O 0.9386(5) 0.1463(5) 0.1032(3)
H3 H 0.976(7) 0.126(6) 0.1448(16)
H4 H 0.954(7) 0.223(3) 0.090(3)
O14 O 0.6969(7) 0.2845(5) 0.0125(3)
H5 H 0.718(9) 0.360(4) 0.029(3)
H6 H 0.693(9) 0.274(7) -0.0307(12)
N1 N 0.5539(5) 0.5772(5) 0.2790(3)
N2 N 0.5009(5) 0.3947(5) 0.2154(3)
N3 N 0.6782(6) 0.9859(5) 0.0220(3)
N4 N 0.6287(6) 0.8384(5) -0.0644(3)
C1 C 0.7856(7) 0.6182(7) 0.2760(3)
C2 C 0.6625(7) 0.5392(6) 0.2538(3)
C3 C 0.6291(6) 0.4275(6) 0.2141(3)
C4 C 0.7017(7) 0.3440(6) 0.1729(3)
C5 C 0.4604(7) 0.4897(7) 0.2545(3)
H8 H 0.3756 0.4935 0.2634
C6 C 0.7731(7) 0.8579(7) 0.1248(3)
C7 C 0.7111(7) 0.8629(6) 0.0505(3)
C8 C 0.6806(7) 0.7710(6) -0.0039(3)
C9 C 0.6968(7) 0.6254(7) -0.0080(4)
C10 C 0.6298(7) 0.9667(7) -0.0458(3)
H9 H 0.5995 1.0346 -0.0774
C11 C 1.0043(7) 0.5748(6) -0.0069(3)
H10 H 1.068(7) 0.711(5) 0.2272(18)
H11 H 1.096(8) 0.793(3) 0.172(3)
Lu1B Lu 1.07902(3) 0.43676(3) -0.141404(14)
Lu1A Lu 0.07902(3) 1.06324(3) 0.358596(14)
Lu1C Lu 0.92098(3) 0.93676(3) 0.641404(14)
Zn1A Zn 0.41346(8) 0.24368(7) 0.15863(4)
Zn1C Zn 0.58654(8) 0.75632(7) -0.15863(4)
Zn1A_2 Zn 0.41346(8) 1.24368(7) 0.15863(4)
Zn2_2 Zn 0.73872(8) 1.13697(8) 0.08684(4)
Zn2A Zn 0.26128(8) 0.63697(8) 0.41316(4)
Zn2C Zn 0.73872(8) 0.36303(8) 0.58684(4)
O1A O 0.1077(4) 1.0830(4) 0.2400(2)
O1B O 1.1077(4) 0.4170(4) -0.2600(2)
O2A O 0.2232(4) 1.2182(4) 0.1853(2)
O2A_2 O 0.2232(4) 0.2182(4) 0.1853(2)
O3A O 0.1909(5) 0.8805(5) 0.3402(2)
O3B O 1.1909(5) 0.6195(5) -0.1598(2)
O4A O 0.3523(5) 0.7324(4) 0.3472(2)
O4_2 O 0.6477(5) 1.2324(4) 0.1528(2)
O5C O 0.7812(5) 0.5356(4) 0.6590(2)
O5_2 O 0.7812(5) -0.0356(4) 0.1590(2)
O6C O 0.8133(6) 0.7500(5) 0.6530(2)
O6B O 1.1867(6) 0.2500(5) -0.1530(2)
O7C O 0.7409(5) 0.9435(4) 0.5465(2)
O7B O 1.2591(5) 0.4435(4) -0.0465(2)
O8C O 0.6628(6) 0.9209(5) 0.4312(3)
O8B O 0.3372(6) 0.4209(5) 0.0688(3)
O9B O 1.0034(5) 0.3494(4) -0.0434(2)
O10B O 0.9817(5) 0.3947(4) 0.0673(2)
O11B O 0.9133(7) 0.2829(6) -0.1874(3)
O12B O 0.9101(5) 0.5577(5) -0.2051(2)
H1B H 0.895(7) 0.632(4) -0.189(3)
H2B H 0.874(7) 0.543(6) -0.2475(14)
O13_2 O 0.9386(5) 1.1463(5) 0.1032(3)
H3_2 H 0.976(7) 1.126(6) 0.1448(16)
H4_2 H 0.954(7) 1.223(3) 0.090(3)
O14_2 O 0.6969(7) 1.2845(5) 0.0125(3)
H5_2 H 0.718(9) 1.360(4) 0.029(3)
H6_2 H 0.693(9) 1.274(7) -0.0307(12)
N1A N 0.4461(5) 1.0772(5) 0.2210(3)
N1A_2 N 0.4461(5) 0.0772(5) 0.2210(3)
N2A N 0.4991(5) 0.8947(5) 0.2846(3)
N3C N 0.6782(6) 0.5141(5) 0.5220(3)
N3_2 N 0.6782(6) -0.0141(5) 0.0220(3)
N4C N 0.6287(6) 0.6616(5) 0.4356(3)
N4B N 0.3713(6) 0.1616(5) 0.0644(3)
C1A C 0.2144(7) 1.1182(7) 0.2240(3)
C2A C 0.3375(7) 1.0392(6) 0.2462(3)
C3A C 0.3709(6) 0.9275(6) 0.2859(3)
C4A C 0.2983(7) 0.8440(6) 0.3271(3)
C5A C 0.5396(7) 0.9897(7) 0.2455(3)
H8A H 0.6244 0.9935 0.2366
C6C C 0.7731(7) 0.6421(7) 0.6248(3)
C7C C 0.7111(7) 0.6371(6) 0.5505(3)
C8C C 0.6806(7) 0.7290(6) 0.4961(3)
C9C C 0.6968(7) 0.8746(7) 0.4920(4)
C10C C 0.6298(7) 0.5333(7) 0.4542(3)
H9C H 0.5995 0.4654 0.4226
C11B C 0.9957(7) 0.4252(6) 0.0069(3)
H10B H 0.932(7) 0.289(5) -0.2272(18)
H11B H 0.904(8) 0.207(3) -0.172(3)
O15 O 0.0936(10) 0.9107(8) 0.0818(5)
O16 O 0.6639(11) 0.3270(10) 0.8688(5)
H7 H 0.6854 0.2500 0.8644
C12 C 0.5320(13) 0.3306(18) 0.8918(9)
H12 H 0.5471 0.3224 0.9422
H13 H 0.4776 0.2588 0.8701
H14 H 0.4883 0.4129 0.8775
loop_
_geom_bond_atom_site_label_1
_geom_bond_atom_site_label_2
_geom_bond_site_symmetry_1
_geom_bond_site_symmetry_2
Lu1 O1 1_555 1_555
Zn1 O2 1_555 1_555
Zn2 O4 1_555 1_555
O1 C1 1_555 1_555
O2 C1 1_555 1_555
O3 Lu1 1_555 1_555
O4 C4 1_555 1_555
O5 C6 1_555 1_555
O6 Lu1 1_555 1_555
O7 Lu1 1_555 1_555
O8 C9 1_555 1_555
O9 Lu1 1_555 1_555
O10 C11 1_555 1_555
O11 Lu1 1_555 1_555
O12 Lu1 1_555 1_555
H1 O12 1_555 1_555
H2 O12 1_555 1_555
O13 Zn2 1_555 1_555
H3 O13 1_555 1_555
H4 O13 1_555 1_555
O14 Zn2 1_555 1_555
H5 O14 1_555 1_555
H6 O14 1_555 1_555
O16 H7 1_555 1_555
N1 Zn1 1_555 1_555
N2 C3 1_555 1_555
N3 C7 1_555 1_555
N4 C8 1_555 1_555
C1 C2 1_555 1_555
C2 N1 1_555 1_555
C3 C2 1_555 1_555
C4 O3 1_555 1_555
C5 N1 1_555 1_555
H8 C5 1_555 1_555
C6 O6 1_555 1_555
C7 C6 1_555 1_555
C8 C7 1_555 1_555
C9 O7 1_555 1_555
C10 N3 1_555 1_555
H9 C10 1_555 1_555
C11 O9 1_555 1_555
H10 O11 1_555 1_555
H11 O11 1_555 1_555
C12 O16 1_555 1_555
H12 C12 1_555 1_555
H13 C12 1_555 1_555
H14 C12 1_555 1_555
Lu1B O10 1_555 1_555
Lu1A O1A 1_555 1_555
Lu1C O6C 1_555 1_555
Zn1A O4 1_555 1_555
Zn1C O8 1_555 1_555
Zn1A_2 O2A 1_555 1_555
Zn2_2 O5 1_555 1_555
Zn2A O4A 1_555 1_555
Zn2C O5C 1_555 1_555
O1A C1A 1_555 1_555
O1B Lu1B 1_555 1_555
O2A C1A 1_555 1_555
O2A_2 Zn1A 1_555 1_555
O3A Lu1A 1_555 1_555
O3B Lu1B 1_555 1_555
O4A Zn1 1_555 1_555
O4_2 Zn1A_2 1_555 1_555
O5C C6C 1_555 1_555
O5_2 Zn2 1_555 1_555
O6C C6C 1_555 1_555
O6B Lu1B 1_555 1_555
O7C Lu1C 1_555 1_555
O7B Lu1B 1_555 1_555
O8C Zn1 1_555 1_555
O8B Zn1A 1_555 1_555
O9B Lu1B 1_555 1_555
O10B Lu1 1_555 1_555
O11B Lu1B 1_555 1_555
O12B Lu1B 1_555 1_555
H1B O12B 1_555 1_555
H2B O12B 1_555 1_555
O13_2 Zn2_2 1_555 1_555
H3_2 O13_2 1_555 1_555
H4_2 O13_2 1_555 1_555
O14_2 Zn2_2 1_555 1_555
H5_2 O14_2 1_555 1_555
H6_2 O14_2 1_555 1_555
N1A Zn1A_2 1_555 1_555
N1A_2 Zn1A 1_555 1_555
N2A Zn1 1_555 1_555
N3C Zn2C 1_555 1_555
N3_2 Zn2 1_555 1_555
N4C Zn1 1_555 1_555
N4B Zn1A 1_555 1_555
C1A C2A 1_555 1_555
C2A N1A 1_555 1_555
C3A N2A 1_555 1_555
C4A O3A 1_555 1_555
C5A N1A 1_555 1_555
H8A C5A 1_555 1_555
C6C C7C 1_555 1_555
C7C N3C 1_555 1_555
C8C N4C 1_555 1_555
C9C O7C 1_555 1_555
C10C N3C 1_555 1_555
H9C C10C 1_555 1_555
C11B C11 1_555 1_555
H10B O11B 1_555 1_555
H11B O11B 1_555 1_555
N2 C5 1_555 1_555
N2 Zn1A 1_555 1_555
N3 Zn2_2 1_555 1_555
N4 C10 1_555 1_555
N4 Zn1C 1_555 1_555
C3 C4 1_555 1_555
C8 C9 1_555 1_555
Zn2_2 O4_2 1_555 1_555
O4A C4A 1_555 1_555
O8C C9C 1_555 1_555
O9B C11B 1_555 1_555
O10B C11B 1_555 1_555
N2A C5A 1_555 1_555
N4C C10C 1_555 1_555
C2A C3A 1_555 1_555
C3A C4A 1_555 1_555
C7C C8C 1_555 1_555
C8C C9C 1_555 1_555

#END
