
#######################################################################
#
#                 Cambridge Crystallographic Data Centre
#                                CCDC 
#
#######################################################################
#
# If this CIF has been generated from an entry in the Cambridge 
# Structural Database, then it will include bibliographic, chemical, 
# crystal, experimental, refinement or atomic coordinate data resulting 
# from the CCDC's data processing and validation procedures.
#
#######################################################################

data_EVUPIV
_symmetry_cell_setting           monoclinic
_symmetry_space_group_name_H-M   'P 21/c'
_symmetry_Int_Tables_number      14
_space_group_name_Hall           '-P 2ybc'
loop_
_symmetry_equiv_pos_site_id
_symmetry_equiv_pos_as_xyz
1 x,y,z
2 -x,1/2+y,1/2-z
3 -x,-y,-z
4 x,1/2-y,1/2+z
_cell_length_a                   10.3886(12)
_cell_length_b                   10.2148(12)
_cell_length_c                   19.798(2)
_cell_angle_alpha                90
_cell_angle_beta                 103.558(2)
_cell_angle_gamma                90
_cell_volume                     2042.37
loop_
_atom_site_label
_atom_site_type_symbol
_atom_site_fract_x
_atom_site_fract_y
_atom_site_fract_z
Er1 Er 0.92076(2) 0.56470(2) 0.141858(10)
Zn1 Zn 0.58615(5) 0.74259(5) 0.34133(3)
Zn2 Zn 0.73716(5) 0.13820(6) 0.08667(3)
O1 O 0.8914(3) 0.5831(3) 0.26085(16)
O2 O 0.7755(3) 0.7178(3) 0.31481(17)
O3 O 0.8074(3) 0.3792(3) 0.16012(18)
O4 O 0.6466(3) 0.2329(3) 0.15271(18)
O5 O 0.7784(4) 0.9672(3) 0.15826(17)
O6 O 0.8066(5) 0.7512(4) 0.15311(19)
O7 O 0.7384(4) 0.5580(3) 0.04604(19)
O8 O 0.6613(5) 0.5805(4) -0.0690(2)
O9 O 0.9962(4) 0.6510(3) 0.04262(18)
O10 O 1.0186(3) 0.6054(3) -0.06719(17)
O11 O 1.0858(6) 0.7231(5) 0.1884(3)
O12 O 1.0936(4) 0.4430(4) 0.2061(2)
H1 H 1.116(6) 0.375(4) 0.188(3)
H2 H 1.131(6) 0.456(6) 0.2483(11)
O13 O 0.9376(4) 0.1472(4) 0.1041(2)
H3 H 0.987(5) 0.127(5) 0.1427(17)
H4 H 0.947(6) 0.223(3) 0.090(3)
O14 O 0.6976(5) 0.2867(4) 0.0128(2)
H5 H 0.711(7) 0.365(2) 0.025(3)
H6 H 0.649(6) 0.273(6) -0.0268(17)
N1 N 0.5548(4) 0.5770(4) 0.2791(2)
N2 N 0.5010(4) 0.3949(4) 0.2150(2)
N3 N 0.6776(4) 0.9877(4) 0.0214(2)
N4 N 0.6293(4) 0.8404(4) -0.0644(2)
C1 C 0.7857(4) 0.6186(5) 0.2774(2)
C2 C 0.6629(5) 0.5383(5) 0.2540(2)
C3 C 0.6293(5) 0.4267(4) 0.2145(2)
C4 C 0.7000(5) 0.3428(5) 0.1737(2)
C5 C 0.4616(5) 0.4884(5) 0.2546(2)
H8 H 0.3777 0.4904 0.2636
C6 C 0.7695(5) 0.8596(5) 0.1248(2)
C7 C 0.7100(5) 0.8653(5) 0.0497(2)
C8 C 0.6803(5) 0.7719(5) -0.0037(2)
C9 C 0.6938(5) 0.6272(5) -0.0089(3)
C10 C 0.6293(5) 0.9673(5) -0.0467(2)
H9 H 0.5990 1.0340 -0.0783
C11 C 1.0040(5) 0.5748(5) -0.0068(3)
H10 H 1.081(6) 0.753(4) 0.2272(13)
H11 H 1.094(6) 0.778(3) 0.1583(17)
Er1B Er 1.07924(2) 0.43530(2) -0.141858(10)
Er1A Er 0.07924(2) 1.06470(2) 0.358142(10)
Er1C Er 0.92076(2) 0.93530(2) 0.641858(10)
Zn1A Zn 0.41385(5) 0.24259(5) 0.15867(3)
Zn1C Zn 0.58615(5) 0.75741(5) -0.15867(3)
Zn1A_2 Zn 0.41385(5) 1.24259(5) 0.15867(3)
Zn2_2 Zn 0.73716(5) 1.13820(6) 0.08667(3)
Zn2A Zn 0.26284(5) 0.63820(6) 0.41333(3)
Zn2C Zn 0.73716(5) 0.36180(6) 0.58667(3)
O1A O 0.1086(3) 1.0831(3) 0.23915(16)
O1B O 1.1086(3) 0.4169(3) -0.26085(16)
O2A O 0.2245(3) 1.2178(3) 0.18519(17)
O2A_2 O 0.2245(3) 0.2178(3) 0.18519(17)
O3A O 0.1926(3) 0.8792(3) 0.33988(18)
O3B O 1.1926(3) 0.6208(3) -0.16012(18)
O4A O 0.3534(3) 0.7329(3) 0.34729(18)
O4_2 O 0.6466(3) 1.2329(3) 0.15271(18)
O5C O 0.7784(4) 0.5328(3) 0.65826(17)
O5_2 O 0.7784(4) -0.0328(3) 0.15826(17)
O6C O 0.8066(5) 0.7488(4) 0.65311(19)
O6B O 1.1934(5) 0.2488(4) -0.15311(19)
O7C O 0.7384(4) 0.9420(3) 0.54604(19)
O7B O 1.2616(4) 0.4420(3) -0.04604(19)
O8C O 0.6613(5) 0.9195(4) 0.4310(2)
O8B O 0.3387(5) 0.4195(4) 0.0690(2)
O9B O 1.0038(4) 0.3490(3) -0.04262(18)
O10B O 0.9814(3) 0.3946(3) 0.06719(17)
O11B O 0.9142(6) 0.2769(5) -0.1884(3)
O12B O 0.9064(4) 0.5570(4) -0.2061(2)
H1B H 0.884(6) 0.625(4) -0.188(3)
H2B H 0.869(6) 0.544(6) -0.2483(11)
O13_2 O 0.9376(4) 1.1472(4) 0.1041(2)
H3_2 H 0.987(5) 1.127(5) 0.1427(17)
H4_2 H 0.947(6) 1.223(3) 0.090(3)
O14_2 O 0.6976(5) 1.2867(4) 0.0128(2)
H5_2 H 0.711(7) 1.365(2) 0.025(3)
H6_2 H 0.649(6) 1.273(6) -0.0268(17)
N1A N 0.4452(4) 1.0770(4) 0.2209(2)
N1A_2 N 0.4452(4) 0.0770(4) 0.2209(2)
N2A N 0.4990(4) 0.8949(4) 0.2850(2)
N3C N 0.6776(4) 0.5123(4) 0.5214(2)
N3_2 N 0.6776(4) -0.0123(4) 0.0214(2)
N4C N 0.6293(4) 0.6596(4) 0.4356(2)
N4B N 0.3707(4) 0.1596(4) 0.0644(2)
C1A C 0.2143(4) 1.1186(5) 0.2226(2)
C2A C 0.3371(5) 1.0383(5) 0.2460(2)
C3A C 0.3707(5) 0.9267(4) 0.2855(2)
C4A C 0.3000(5) 0.8428(5) 0.3263(2)
C5A C 0.5384(5) 0.9884(5) 0.2454(2)
H8A H 0.6223 0.9904 0.2364
C6C C 0.7695(5) 0.6404(5) 0.6248(2)
C7C C 0.7100(5) 0.6347(5) 0.5497(2)
C8C C 0.6803(5) 0.7281(5) 0.4963(2)
C9C C 0.6938(5) 0.8728(5) 0.4911(3)
C10C C 0.6293(5) 0.5327(5) 0.4533(2)
H9C H 0.5990 0.4660 0.4217
C11B C 0.9960(5) 0.4252(5) 0.0068(3)
H10B H 0.919(6) 0.247(4) -0.2272(13)
H11B H 0.906(6) 0.222(3) -0.1583(17)
O15 O 0.0903(8) 0.9126(7) 0.0817(4)
O16 O 0.6592(9) 0.3260(9) 0.8704(5)
H7 H 0.6796 0.2489 0.8682
C12 C 0.5273(11) 0.3352(13) 0.8921(7)
H12 H 0.5440 0.3525 0.9411
H13 H 0.4802 0.2540 0.8820
H14 H 0.4751 0.4048 0.8670
loop_
_geom_bond_atom_site_label_1
_geom_bond_atom_site_label_2
_geom_bond_site_symmetry_1
_geom_bond_site_symmetry_2
Er1 O1 1_555 1_555
Zn1 O2 1_555 1_555
Zn2 O4 1_555 1_555
O1 C1 1_555 1_555
O2 C1 1_555 1_555
O3 Er1 1_555 1_555
O4 C4 1_555 1_555
O5 C6 1_555 1_555
O6 Er1 1_555 1_555
O7 Er1 1_555 1_555
O8 C9 1_555 1_555
O9 Er1 1_555 1_555
O10 C11 1_555 1_555
O11 Er1 1_555 1_555
O12 Er1 1_555 1_555
H1 O12 1_555 1_555
H2 O12 1_555 1_555
O13 Zn2 1_555 1_555
H3 O13 1_555 1_555
H4 O13 1_555 1_555
O14 Zn2 1_555 1_555
H5 O14 1_555 1_555
H6 O14 1_555 1_555
O16 H7 1_555 1_555
N1 Zn1 1_555 1_555
N2 C3 1_555 1_555
N3 C7 1_555 1_555
N4 C8 1_555 1_555
C1 C2 1_555 1_555
C2 N1 1_555 1_555
C3 C2 1_555 1_555
C4 O3 1_555 1_555
C5 N1 1_555 1_555
H8 C5 1_555 1_555
C6 O6 1_555 1_555
C7 C6 1_555 1_555
C8 C7 1_555 1_555
C9 O7 1_555 1_555
C10 N3 1_555 1_555
H9 C10 1_555 1_555
C11 O9 1_555 1_555
H10 O11 1_555 1_555
H11 O11 1_555 1_555
C12 O16 1_555 1_555
H12 C12 1_555 1_555
H13 C12 1_555 1_555
H14 C12 1_555 1_555
Er1B O10 1_555 1_555
Er1A O1A 1_555 1_555
Er1C O6C 1_555 1_555
Zn1A O4 1_555 1_555
Zn1C O8 1_555 1_555
Zn1A_2 O2A 1_555 1_555
Zn2_2 O5 1_555 1_555
Zn2A O4A 1_555 1_555
Zn2C O5C 1_555 1_555
O1A C1A 1_555 1_555
O1B Er1B 1_555 1_555
O2A C1A 1_555 1_555
O2A_2 Zn1A 1_555 1_555
O3A Er1A 1_555 1_555
O3B Er1B 1_555 1_555
O4A Zn1 1_555 1_555
O4_2 Zn1A_2 1_555 1_555
O5C C6C 1_555 1_555
O5_2 Zn2 1_555 1_555
O6C C6C 1_555 1_555
O6B Er1B 1_555 1_555
O7C Er1C 1_555 1_555
O7B Er1B 1_555 1_555
O8C Zn1 1_555 1_555
O8B Zn1A 1_555 1_555
O9B Er1B 1_555 1_555
O10B Er1 1_555 1_555
O11B Er1B 1_555 1_555
O12B Er1B 1_555 1_555
H1B O12B 1_555 1_555
H2B O12B 1_555 1_555
O13_2 Zn2_2 1_555 1_555
H3_2 O13_2 1_555 1_555
H4_2 O13_2 1_555 1_555
O14_2 Zn2_2 1_555 1_555
H5_2 O14_2 1_555 1_555
H6_2 O14_2 1_555 1_555
N1A Zn1A_2 1_555 1_555
N1A_2 Zn1A 1_555 1_555
N2A Zn1 1_555 1_555
N3C Zn2C 1_555 1_555
N3_2 Zn2 1_555 1_555
N4C Zn1 1_555 1_555
N4B Zn1A 1_555 1_555
C1A C2A 1_555 1_555
C2A N1A 1_555 1_555
C3A N2A 1_555 1_555
C4A O3A 1_555 1_555
C5A N1A 1_555 1_555
H8A C5A 1_555 1_555
C6C C7C 1_555 1_555
C7C N3C 1_555 1_555
C8C N4C 1_555 1_555
C9C O7C 1_555 1_555
C10C N3C 1_555 1_555
H9C C10C 1_555 1_555
C11B C11 1_555 1_555
H10B O11B 1_555 1_555
H11B O11B 1_555 1_555
N2 C5 1_555 1_555
N2 Zn1A 1_555 1_555
N3 Zn2_2 1_555 1_555
N4 C10 1_555 1_555
N4 Zn1C 1_555 1_555
C3 C4 1_555 1_555
C8 C9 1_555 1_555
Zn2_2 O4_2 1_555 1_555
O4A C4A 1_555 1_555
O8C C9C 1_555 1_555
O9B C11B 1_555 1_555
O10B C11B 1_555 1_555
N2A C5A 1_555 1_555
N4C C10C 1_555 1_555
C2A C3A 1_555 1_555
C3A C4A 1_555 1_555
C7C C8C 1_555 1_555
C8C C9C 1_555 1_555

#END
