
#######################################################################
#
#                 Cambridge Crystallographic Data Centre
#                                CCDC 
#
#######################################################################
#
# If this CIF has been generated from an entry in the Cambridge 
# Structural Database, then it will include bibliographic, chemical, 
# crystal, experimental, refinement or atomic coordinate data resulting 
# from the CCDC's data processing and validation procedures.
#
#######################################################################

data_EVUPER
_symmetry_cell_setting           monoclinic
_symmetry_space_group_name_H-M   'P 21/c'
_symmetry_Int_Tables_number      14
_space_group_name_Hall           '-P 2ybc'
loop_
_symmetry_equiv_pos_site_id
_symmetry_equiv_pos_as_xyz
1 x,y,z
2 -x,1/2+y,1/2-z
3 -x,-y,-z
4 x,1/2-y,1/2+z
_cell_length_a                   10.4586(12)
_cell_length_b                   10.2348(12)
_cell_length_c                   19.738(2)
_cell_angle_alpha                90
_cell_angle_beta                 103.358(2)
_cell_angle_gamma                90
_cell_volume                     2055.63
loop_
_atom_site_label
_atom_site_type_symbol
_atom_site_fract_x
_atom_site_fract_y
_atom_site_fract_z
Ho1 Ho 0.920705(9) 0.565457(9) 0.142017(4)
Zn1 Zn 0.58600(2) 0.74242(2) 0.341475(11)
Zn2 Zn 0.73677(2) 0.13898(2) 0.086610(12)
O1 O 0.89143(13) 0.58371(13) 0.26097(7)
O2 O 0.77513(13) 0.71800(13) 0.31509(7)
O3 O 0.80668(13) 0.37882(14) 0.16023(7)
O4 O 0.64572(13) 0.23346(13) 0.15216(7)
O5 O 0.77813(14) 0.96796(13) 0.15802(7)
O6 O 0.80571(19) 0.75123(15) 0.15351(8)
O7 O 0.73750(15) 0.55842(13) 0.04605(8)
O8 O 0.6608(2) 0.58152(15) -0.06937(9)
O9 O 0.99647(15) 0.65150(13) 0.04218(7)
O10 O 1.01837(14) 0.60491(14) -0.06699(7)
O11 O 1.08263(19) 0.7275(2) 0.18888(10)
O12 O 1.09437(16) 0.44318(15) 0.20648(8)
H1 H 1.1215(11) 0.3755(6) 0.1898(3)
H2 H 1.1262(18) 0.4560(10) 0.2494(3)
O13 O 0.93694(14) 0.14719(14) 0.10351(8)
H3 H 0.9745(16) 0.1293(7) 0.1450(3)
H4 H 0.9524(15) 0.2216(5) 0.0894(4)
O14 O 0.69652(18) 0.28714(15) 0.01295(8)
H5 H 0.713(2) 0.3647(5) 0.0264(4)
H6 H 0.675(2) 0.2751(9) -0.0302(3)
N1 N 0.55476(16) 0.57743(16) 0.27887(8)
N2 N 0.50062(16) 0.39496(16) 0.21491(8)
N3 N 0.67713(17) 0.98863(17) 0.02153(9)
N4 N 0.62855(16) 0.84095(16) -0.06450(8)
C1 C 0.78508(18) 0.61829(19) 0.27764(9)
C2 C 0.66337(19) 0.53826(18) 0.25427(10)
C3 C 0.62909(19) 0.42668(18) 0.21431(10)
C4 C 0.70009(18) 0.34272(18) 0.17390(9)
C5 C 0.46116(19) 0.4881(2) 0.25426(10)
H8 H 0.3778 0.4901 0.2634
C6 C 0.7680(2) 0.8596(2) 0.12464(10)
C7 C 0.70904(19) 0.86581(19) 0.04970(10)
C8 C 0.67934(19) 0.77321(19) -0.00365(10)
C9 C 0.6936(2) 0.6282(2) -0.00909(11)
C10 C 0.6298(2) 0.9687(2) -0.04668(11)
H9 H 0.6008 1.0355 -0.0784
C11 C 1.0037(2) 0.57458(19) -0.00666(11)
H10 H 1.0937(9) 0.7649(9) 0.2272(3)
H11 H 1.1474(5) 0.7162(14) 0.1715(3)
Ho1B Ho 1.079295(9) 0.434543(9) -0.142017(4)
Ho1A Ho 0.079295(9) 1.065457(9) 0.357983(4)
Ho1C Ho 0.920705(9) 0.934543(9) 0.642017(4)
Zn1A Zn 0.41400(2) 0.24242(2) 0.158525(11)
Zn1C Zn 0.58600(2) 0.75758(2) -0.158525(11)
Zn1A_2 Zn 0.41400(2) 1.24242(2) 0.158525(11)
Zn2_2 Zn 0.73677(2) 1.13898(2) 0.086610(12)
Zn2A Zn 0.26323(2) 0.63898(2) 0.413390(12)
Zn2C Zn 0.73677(2) 0.36102(2) 0.586610(12)
O1A O 0.10857(13) 1.08371(13) 0.23903(7)
O1B O 1.10857(13) 0.41629(13) -0.26097(7)
O2A O 0.22487(13) 1.21800(13) 0.18491(7)
O2A_2 O 0.22487(13) 0.21800(13) 0.18491(7)
O3A O 0.19332(13) 0.87882(14) 0.33977(7)
O3B O 1.19332(13) 0.62118(14) -0.16023(7)
O4A O 0.35428(13) 0.73346(13) 0.34784(7)
O4_2 O 0.64572(13) 1.23346(13) 0.15216(7)
O5C O 0.77813(14) 0.53204(13) 0.65802(7)
O5_2 O 0.77813(14) -0.03204(13) 0.15802(7)
O6C O 0.80571(19) 0.74877(15) 0.65351(8)
O6B O 1.19429(19) 0.24877(15) -0.15351(8)
O7C O 0.73750(15) 0.94158(13) 0.54605(8)
O7B O 1.26250(15) 0.44158(13) -0.04605(8)
O8C O 0.6608(2) 0.91848(15) 0.43063(9)
O8B O 0.3392(2) 0.41848(15) 0.06937(9)
O9B O 1.00353(15) 0.34850(13) -0.04218(7)
O10B O 0.98163(14) 0.39509(14) 0.06699(7)
O11B O 0.91737(19) 0.2725(2) -0.18888(10)
O12B O 0.90563(16) 0.55682(15) -0.20648(8)
H1B H 0.8785(11) 0.6245(6) -0.1898(3)
H2B H 0.8738(18) 0.5440(10) -0.2494(3)
O13_2 O 0.93694(14) 1.14719(14) 0.10351(8)
H3_2 H 0.9745(16) 1.1293(7) 0.1450(3)
H4_2 H 0.9524(15) 1.2216(5) 0.0894(4)
O14_2 O 0.69652(18) 1.28714(15) 0.01295(8)
H5_2 H 0.713(2) 1.3647(5) 0.0264(4)
H6_2 H 0.675(2) 1.2751(9) -0.0302(3)
N1A N 0.44524(16) 1.07743(16) 0.22113(8)
N1A_2 N 0.44524(16) 0.07743(16) 0.22113(8)
N2A N 0.49938(16) 0.89496(16) 0.28509(8)
N3C N 0.67713(17) 0.51137(17) 0.52153(9)
N3_2 N 0.67713(17) -0.01137(17) 0.02153(9)
N4C N 0.62855(16) 0.65905(16) 0.43550(8)
N4B N 0.37145(16) 0.15905(16) 0.06450(8)
C1A C 0.21492(18) 1.11829(19) 0.22236(9)
C2A C 0.33663(19) 1.03826(18) 0.24573(10)
C3A C 0.37091(19) 0.92668(18) 0.28569(10)
C4A C 0.29991(18) 0.84272(18) 0.32610(9)
C5A C 0.53884(19) 0.9881(2) 0.24574(10)
H8A H 0.6222 0.9901 0.2366
C6C C 0.7680(2) 0.6404(2) 0.62464(10)
C7C C 0.70904(19) 0.63419(19) 0.54970(10)
C8C C 0.67934(19) 0.72679(19) 0.49635(10)
C9C C 0.6936(2) 0.8718(2) 0.49091(11)
C10C C 0.6298(2) 0.5313(2) 0.45332(11)
H9C H 0.6008 0.4645 0.4216
C11B C 0.9963(2) 0.42542(19) 0.00666(11)
H10B H 0.9063(9) 0.2351(9) -0.2272(3)
H11B H 0.8526(5) 0.2838(14) -0.1715(3)
O15 O 0.0908(3) 0.9125(3) 0.08124(16)
O16 O 0.6597(3) 0.3256(4) 0.87047(18)
H7 H 0.6778 0.2487 0.8657
C12 C 0.5275(4) 0.3342(5) 0.8921(2)
H12 H 0.5267 0.2722 0.9285
H13 H 0.4571 0.3151 0.8527
H14 H 0.5165 0.4207 0.9087
loop_
_geom_bond_atom_site_label_1
_geom_bond_atom_site_label_2
_geom_bond_site_symmetry_1
_geom_bond_site_symmetry_2
Ho1 O1 1_555 1_555
Zn1 O2 1_555 1_555
Zn2 O4 1_555 1_555
O1 C1 1_555 1_555
O2 C1 1_555 1_555
O3 Ho1 1_555 1_555
O4 C4 1_555 1_555
O5 C6 1_555 1_555
O6 Ho1 1_555 1_555
O7 Ho1 1_555 1_555
O8 C9 1_555 1_555
O9 Ho1 1_555 1_555
O10 C11 1_555 1_555
O11 Ho1 1_555 1_555
O12 Ho1 1_555 1_555
H1 O12 1_555 1_555
H2 O12 1_555 1_555
O13 Zn2 1_555 1_555
H3 O13 1_555 1_555
H4 O13 1_555 1_555
O14 Zn2 1_555 1_555
H5 O14 1_555 1_555
H6 O14 1_555 1_555
O16 H7 1_555 1_555
N1 Zn1 1_555 1_555
N2 C3 1_555 1_555
N3 C7 1_555 1_555
N4 C8 1_555 1_555
C1 C2 1_555 1_555
C2 N1 1_555 1_555
C3 C2 1_555 1_555
C4 O3 1_555 1_555
C5 N1 1_555 1_555
H8 C5 1_555 1_555
C6 O6 1_555 1_555
C7 C6 1_555 1_555
C8 C7 1_555 1_555
C9 O7 1_555 1_555
C10 N3 1_555 1_555
H9 C10 1_555 1_555
C11 O9 1_555 1_555
H10 O11 1_555 1_555
H11 O11 1_555 1_555
C12 O16 1_555 1_555
H12 C12 1_555 1_555
H13 C12 1_555 1_555
H14 C12 1_555 1_555
Ho1B O10 1_555 1_555
Ho1A O1A 1_555 1_555
Ho1C O6C 1_555 1_555
Zn1A O4 1_555 1_555
Zn1C O8 1_555 1_555
Zn1A_2 O2A 1_555 1_555
Zn2_2 O5 1_555 1_555
Zn2A O4A 1_555 1_555
Zn2C O5C 1_555 1_555
O1A C1A 1_555 1_555
O1B Ho1B 1_555 1_555
O2A C1A 1_555 1_555
O2A_2 Zn1A 1_555 1_555
O3A Ho1A 1_555 1_555
O3B Ho1B 1_555 1_555
O4A Zn1 1_555 1_555
O4_2 Zn1A_2 1_555 1_555
O5C C6C 1_555 1_555
O5_2 Zn2 1_555 1_555
O6C C6C 1_555 1_555
O6B Ho1B 1_555 1_555
O7C Ho1C 1_555 1_555
O7B Ho1B 1_555 1_555
O8C Zn1 1_555 1_555
O8B Zn1A 1_555 1_555
O9B Ho1B 1_555 1_555
O10B Ho1 1_555 1_555
O11B Ho1B 1_555 1_555
O12B Ho1B 1_555 1_555
H1B O12B 1_555 1_555
H2B O12B 1_555 1_555
O13_2 Zn2_2 1_555 1_555
H3_2 O13_2 1_555 1_555
H4_2 O13_2 1_555 1_555
O14_2 Zn2_2 1_555 1_555
H5_2 O14_2 1_555 1_555
H6_2 O14_2 1_555 1_555
N1A Zn1A_2 1_555 1_555
N1A_2 Zn1A 1_555 1_555
N2A Zn1 1_555 1_555
N3C Zn2C 1_555 1_555
N3_2 Zn2 1_555 1_555
N4C Zn1 1_555 1_555
N4B Zn1A 1_555 1_555
C1A C2A 1_555 1_555
C2A N1A 1_555 1_555
C3A N2A 1_555 1_555
C4A O3A 1_555 1_555
C5A N1A 1_555 1_555
H8A C5A 1_555 1_555
C6C C7C 1_555 1_555
C7C N3C 1_555 1_555
C8C N4C 1_555 1_555
C9C O7C 1_555 1_555
C10C N3C 1_555 1_555
H9C C10C 1_555 1_555
C11B C11 1_555 1_555
H10B O11B 1_555 1_555
H11B O11B 1_555 1_555
N2 C5 1_555 1_555
N2 Zn1A 1_555 1_555
N3 Zn2_2 1_555 1_555
N4 C10 1_555 1_555
N4 Zn1C 1_555 1_555
C3 C4 1_555 1_555
C8 C9 1_555 1_555
Zn2_2 O4_2 1_555 1_555
O4A C4A 1_555 1_555
O8C C9C 1_555 1_555
O9B C11B 1_555 1_555
O10B C11B 1_555 1_555
N2A C5A 1_555 1_555
N4C C10C 1_555 1_555
C2A C3A 1_555 1_555
C3A C4A 1_555 1_555
C7C C8C 1_555 1_555
C8C C9C 1_555 1_555

#END
