
#######################################################################
#
#                 Cambridge Crystallographic Data Centre
#                                CCDC 
#
#######################################################################
#
# If this CIF has been generated from an entry in the Cambridge 
# Structural Database, then it will include bibliographic, chemical, 
# crystal, experimental, refinement or atomic coordinate data resulting 
# from the CCDC's data processing and validation procedures.
#
#######################################################################

data_EVUQOC
_symmetry_cell_setting           triclinic
_symmetry_space_group_name_H-M   'P -1'
_symmetry_Int_Tables_number      2
_space_group_name_Hall           '-P 1'
loop_
_symmetry_equiv_pos_site_id
_symmetry_equiv_pos_as_xyz
1 x,y,z
2 -x,-y,-z
_cell_length_a                   10.1340(4)
_cell_length_b                   10.3552(4)
_cell_length_c                   10.7436(6)
_cell_angle_alpha                78.1625(16)
_cell_angle_beta                 89.430(2)
_cell_angle_gamma                65.239(3)
_cell_volume                     998.337
loop_
_atom_site_label
_atom_site_type_symbol
_atom_site_fract_x
_atom_site_fract_y
_atom_site_fract_z
La1 La 0.96661(2) -0.20630(2) -0.000512(19)
O1 O 0.8916(3) 0.0534(3) 0.0885(2)
O2 O 0.7417(3) -0.0538(3) 0.1075(3)
C1 C 0.7652(4) 0.0573(4) 0.1041(3)
C2 C 0.6416(4) 0.1963(4) 0.1159(3)
C3 C 0.4995(4) 0.2344(4) 0.0682(3)
H1 H 0.4783 0.1692 0.0304
C4 C 0.3896(4) 0.3677(4) 0.0764(3)
C5 C 0.2347(4) 0.4148(4) 0.0228(3)
O3 O 0.1480(3) 0.5472(3) 0.0091(3)
O4 O 0.2032(3) 0.3181(3) -0.0060(2)
C6 C 0.4183(4) 0.4621(4) 0.1354(3)
H2 H 0.3431 0.5541 0.1401
C7 C 0.5590(4) 0.4192(4) 0.1871(3)
C8 C 0.6712(4) 0.2904(4) 0.1752(3)
H3 H 0.7678 0.2656 0.2070
O5 O 0.5845(3) 0.5150(3) 0.2466(2)
C9 C 0.6567(4) 0.4558(4) 0.3684(3)
C10 C 0.6321(4) 0.3523(4) 0.4569(4)
H4 H 0.5662 0.3154 0.4348
C11 C 0.7045(4) 0.3028(4) 0.5784(4)
H5 H 0.6879 0.2321 0.6398
C12 C 0.8010(4) 0.3569(4) 0.6097(3)
C13 C 0.8813(4) 0.3040(4) 0.7395(3)
O6 O 0.8415(3) 0.2309(3) 0.8283(2)
O7 O 0.9848(3) 0.3359(3) 0.7592(2)
C14 C 0.8242(4) 0.4613(4) 0.5196(3)
H6 H 0.8907 0.4975 0.5416
C15 C 0.7516(4) 0.5137(4) 0.3977(4)
N1 N 0.7631(4) 0.6252(4) 0.3078(3)
H7 H 0.7500 0.6144 0.2190
H8 H 0.8558 0.6353 0.3192
O8 O 0.7781(3) 0.0057(3) -0.1628(2)
H9 H 0.6849 0.0372 -0.1916
H10 H 0.8053 0.0813 -0.1808
O9 O 0.9918(3) -0.2529(3) -0.2265(3)
C16 C 0.9638(5) -0.1935(5) -0.3427(4)
H11 H 1.0341 -0.1657 -0.3842
N2 N 0.8455(4) -0.1664(4) -0.4124(3)
C17 C 0.7295(6) -0.2008(7) -0.3567(5)
H12 H 0.7664 -0.2686 -0.2736
H13 H 0.6960 -0.2460 -0.4135
H14 H 0.6480 -0.1111 -0.3457
C18 C 0.8207(6) -0.0916(6) -0.5473(5)
H15 H 0.7380 0.0044 -0.5587
H16 H 0.7992 -0.1496 -0.5987
H17 H 0.9082 -0.0797 -0.5747
La1A La 1.03339(2) 0.20630(2) 0.000512(19)
La1_2 La -0.03339(2) 0.79370(2) -0.000512(19)
La1A_2 La 0.03339(2) 0.20630(2) 0.000512(19)
La1A_3 La 1.03339(2) 0.20630(2) 1.000512(19)
O1A O 1.1084(3) -0.0534(3) -0.0885(2)
O3_2 O 1.1480(3) -0.4528(3) 0.0091(3)
O4A O 0.7968(3) -0.3181(3) 0.0060(2)
O6A O 1.1585(3) -0.2309(3) 0.1717(2)
O7A O 1.0152(3) -0.3359(3) 0.2408(2)
O10 O 0.5108(3) 0.9099(3) 0.2342(3)
H18 H 0.5626 0.8259 0.2910
H19 H 0.5676 0.9430 0.1852
loop_
_geom_bond_atom_site_label_1
_geom_bond_atom_site_label_2
_geom_bond_site_symmetry_1
_geom_bond_site_symmetry_2
La1 O1 1_555 1_555
O1 C1 1_555 1_555
O2 La1 1_555 1_555
C1 O2 1_555 1_555
C2 C1 1_555 1_555
C3 C2 1_555 1_555
H1 C3 1_555 1_555
C4 C3 1_555 1_555
C5 C4 1_555 1_555
O3 C5 1_555 1_555
O4 C5 1_555 1_555
C6 C4 1_555 1_555
H2 C6 1_555 1_555
C7 C6 1_555 1_555
C8 C2 1_555 1_555
H3 C8 1_555 1_555
O5 C7 1_555 1_555
C9 O5 1_555 1_555
C10 C9 1_555 1_555
H4 C10 1_555 1_555
C11 C10 1_555 1_555
H5 C11 1_555 1_555
C12 C11 1_555 1_555
C13 C12 1_555 1_555
O6 C13 1_555 1_555
O7 C13 1_555 1_555
C14 C12 1_555 1_555
H6 C14 1_555 1_555
C15 C9 1_555 1_555
N1 C15 1_555 1_555
H7 N1 1_555 1_555
H8 N1 1_555 1_555
O8 La1 1_555 1_555
H9 O8 1_555 1_555
H10 O8 1_555 1_555
O9 La1 1_555 1_555
C16 O9 1_555 1_555
H11 C16 1_555 1_555
N2 C16 1_555 1_555
C17 N2 1_555 1_555
H12 C17 1_555 1_555
H13 C17 1_555 1_555
H14 C17 1_555 1_555
C18 N2 1_555 1_555
H15 C18 1_555 1_555
H16 C18 1_555 1_555
H17 C18 1_555 1_555
O10 H18 1_555 1_555
H19 O10 1_555 1_555
La1A O1 1_555 1_555
La1_2 O3 1_555 1_555
La1A_2 O4 1_555 1_555
La1A_3 O6 1_555 1_555
O1A La1 1_555 1_555
O3_2 La1 1_555 1_555
O4A La1 1_555 1_555
O6A La1 1_555 1_555
O7A La1 1_555 1_555
C7 C8 1_555 1_555
O7 La1A_3 1_555 1_555
C14 C15 1_555 1_555
La1A O1A 1_555 1_555

#END
