
#######################################################################
#
#                 Cambridge Crystallographic Data Centre
#                                CCDC 
#
#######################################################################
#
# If this CIF has been generated from an entry in the Cambridge 
# Structural Database, then it will include bibliographic, chemical, 
# crystal, experimental, refinement or atomic coordinate data resulting 
# from the CCDC's data processing and validation procedures.
#
#######################################################################

data_EVUQIV
_symmetry_cell_setting           monoclinic
_symmetry_space_group_name_H-M   'P 21/n'
_symmetry_Int_Tables_number      14
_space_group_name_Hall           '-P 2yn'
loop_
_symmetry_equiv_pos_site_id
_symmetry_equiv_pos_as_xyz
1 x,y,z
2 1/2+x,1/2-y,1/2+z
3 -x,-y,-z
4 1/2-x,1/2+y,1/2-z
_cell_length_a                   10.711(2)
_cell_length_b                   19.313(3)
_cell_length_c                   21.580(3)
_cell_angle_alpha                90
_cell_angle_beta                 97.01(1)
_cell_angle_gamma                90
_cell_volume                     4430.7
loop_
_atom_site_label
_atom_site_type_symbol
_atom_site_fract_x
_atom_site_fract_y
_atom_site_fract_z
Zn1 Zn 0.041220(13) 0.750400(8) 0.045160(7)
O1 O 0.10579(8) 0.65177(5) 0.03072(5)
C1 C 0.22002(12) 0.63695(7) 0.02738(6)
C2 C 0.24964(13) 0.56122(7) 0.02339(7)
C3 C 0.15921(14) 0.51809(7) -0.00848(7)
H1 H 0.0800 0.5368 -0.0250
C4 C 0.18325(16) 0.44818(8) -0.01640(8)
H2 H 0.1217 0.4194 -0.0390
C5 C 0.29751(17) 0.42073(8) 0.00888(9)
H3 H 0.3146 0.3730 0.0034
C6 C 0.38661(16) 0.46229(9) 0.04189(10)
H4 H 0.4641 0.4428 0.0599
C7 C 0.36390(14) 0.53267(8) 0.04898(9)
H5 H 0.4263 0.5612 0.0712
C8 C 0.31777(13) 0.68431(7) 0.02299(7)
H6 H 0.4007 0.6662 0.0254
O2 O 0.20486(9) 0.79116(5) 0.01900(5)
C9 C 0.30364(12) 0.75620(7) 0.01528(6)
C10 C 0.41611(13) 0.79627(7) 0.00009(7)
C11 C 0.49533(16) 0.76936(10) -0.04035(9)
H7 H 0.4799 0.7246 -0.0578
C12 C 0.59738(18) 0.80802(12) -0.05530(11)
H8 H 0.6511 0.7897 -0.0832
C13 C 0.62047(17) 0.87282(11) -0.02963(10)
H9 H 0.6905 0.8989 -0.0396
C14 C 0.54210(16) 0.89996(9) 0.01054(9)
H10 H 0.5585 0.9445 0.0284
C15 C 0.43940(14) 0.86207(8) 0.02475(8)
H11 H 0.3845 0.8813 0.0516
O3 O -0.02792(9) 0.84785(5) 0.05842(4)
C16 C -0.11826(13) 0.86122(7) 0.08932(6)
C17 C -0.14979(13) 0.93672(7) 0.09480(7)
C18 C -0.12670(13) 0.98068(7) 0.04598(7)
H12 H -0.0867 0.9629 0.0124
C19 C -0.16131(14) 1.04995(8) 0.04589(8)
H13 H -0.1472 1.0790 0.0119
C20 C -0.21646(16) 1.07653(8) 0.09556(9)
H14 H -0.2402 1.1239 0.0958
C21 C -0.23680(19) 1.03409(9) 0.14467(9)
H15 H -0.2731 1.0527 0.1791
C22 C -0.20480(17) 0.96435(8) 0.14450(8)
H16 H -0.2205 0.9355 0.1784
C23 C -0.19352(14) 0.81272(7) 0.11585(7)
H17 H -0.2528 0.8302 0.1412
O4 O -0.11231(9) 0.70753(5) 0.07915(5)
C24 C -0.18900(12) 0.74067(7) 0.10828(6)
C25 C -0.28170(13) 0.69684(7) 0.13792(6)
C26 C -0.40219(15) 0.72009(9) 0.14556(8)
H18 H -0.4285 0.7650 0.1315
C27 C -0.48364(17) 0.67776(11) 0.17364(10)
H19 H -0.5659 0.6936 0.1783
C28 C -0.44580(19) 0.61277(10) 0.19483(9)
H20 H -0.5013 0.5844 0.2149
C29 C -0.32707(18) 0.58888(9) 0.18686(8)
H21 H -0.3011 0.5441 0.2013
C30 C -0.24606(15) 0.63045(8) 0.15783(7)
H22 H -0.1654 0.6134 0.1515
N1 N 0.13612(12) 0.74912(6) 0.14160(6)
C31 C 0.12847(13) 0.69428(7) 0.17884(7)
H23 H 0.0808 0.6553 0.1629
C32 C 0.18695(13) 0.69180(7) 0.23954(7)
H24 H 0.1788 0.6520 0.2646
C33 C 0.25790(13) 0.74825(7) 0.26351(6)
C34 C 0.26622(15) 0.80505(7) 0.22454(7)
H25 H 0.3141 0.8445 0.2390
C35 C 0.20384(15) 0.80335(7) 0.16448(7)
H26 H 0.2095 0.8426 0.1384
N2 N 0.44735(10) 0.74766(6) 0.44992(5)
C36 C 0.40154(13) 0.80624(7) 0.42296(7)
H27 H 0.4125 0.8481 0.4461
C37 C 0.33885(14) 0.80870(7) 0.36292(7)
H28 H 0.3067 0.8513 0.3457
C38 C 0.32355(12) 0.74798(7) 0.32808(6)
C39 C 0.37163(13) 0.68704(7) 0.35602(6)
H29 H 0.3634 0.6445 0.3338
C40 C 0.43163(13) 0.68909(7) 0.41664(6)
H30 H 0.4630 0.6471 0.4354
N2A N -0.05265(10) 0.75234(6) -0.05008(5)
Zn1A Zn 0.541220(13) 0.749600(8) 0.545160(7)
Cl1 Cl 0.48856(6) 0.40266(4) 0.21013(4)
C41 C 0.61275(16) 0.35202(10) 0.19109(9)
C42 C 0.6293(2) 0.28641(12) 0.21545(9)
H31 H 0.5732 0.2684 0.2423
C43 C 0.7289(2) 0.24730(12) 0.20012(11)
H32 H 0.7424 0.2021 0.2169
C44 C 0.8086(2) 0.27357(14) 0.16060(11)
H33 H 0.8765 0.2463 0.1498
C45 C 0.79027(19) 0.33936(12) 0.13667(10)
H34 H 0.8458 0.3573 0.1095
C46 C 0.69201(18) 0.37933(11) 0.15187(10)
H35 H 0.6792 0.4248 0.1356
Cl2 Cl 0.0467(3) 0.49924(8) 0.15256(10)
C47 C 0.1177(4) 0.49762(10) 0.22899(19)
C48 C 0.2472(7) 0.4989(3) 0.2405(5)
H36 H 0.2961 0.5006 0.2066
C49 C 0.3058(7) 0.4976(3) 0.3008(4)
H37 H 0.3950 0.4985 0.3087
C50 C 0.2337(11) 0.4951(3) 0.3503(5)
H38 H 0.2738 0.4943 0.3920
C51 C 0.1054(9) 0.4939(3) 0.3388(4)
H39 H 0.0564 0.4921 0.3727
C52 C 0.0467(8) 0.4951(3) 0.2782(4)
H40 H -0.0425 0.4943 0.2703
Cl3? Cl 0.3209(7) 0.49781(14) 0.3419(5)
C53? C 0.1983(7) 0.49215(19) 0.2821(4)
C54? C 0.0798(10) 0.4739(4) 0.2953(9)
H41? H 0.0658 0.4646 0.3371
C55? C -0.0182(13) 0.4692(5) 0.2478(7)
H42? H -0.0998 0.4566 0.2569
C56? C 0.0024(8) 0.4830(3) 0.1869(4)
H43? H -0.0650 0.4799 0.1540
C57? C 0.1209(10) 0.5012(3) 0.1740(5)
H44? H 0.1351 0.5105 0.1322
C58? C 0.2190(11) 0.5058(4) 0.2215(6)
H45? H 0.3007 0.5184 0.2125
Cl4? Cl 0.2817(7) 0.4933(2) 0.3777(4)
C59? C 0.1943(11) 0.4938(3) 0.3047(4)
C60? C 0.0656(12) 0.4853(8) 0.3003(15)
H46? H 0.0253 0.4792 0.3367
C61? C -0.004(3) 0.4857(9) 0.2417(14)
H47? H -0.0926 0.4799 0.2383
C62? C 0.052(3) 0.4943(7) 0.1889(10)
H48? H 0.0033 0.4944 0.1492
C63? C 0.182(2) 0.5028(6) 0.1936(8)
H49? H 0.2213 0.5089 0.1570
C64? C 0.253(2) 0.5026(6) 0.2519(9)
H50? H 0.3417 0.5085 0.2553
loop_
_geom_bond_atom_site_label_1
_geom_bond_atom_site_label_2
_geom_bond_site_symmetry_1
_geom_bond_site_symmetry_2
Zn1 O1 1_555 1_555
O1 C1 1_555 1_555
C1 C2 1_555 1_555
C2 C3 1_555 1_555
C3 H1 1_555 1_555
C4 C3 1_555 1_555
H2 C4 1_555 1_555
C5 C4 1_555 1_555
H3 C5 1_555 1_555
C6 C5 1_555 1_555
H4 C6 1_555 1_555
C7 C2 1_555 1_555
H5 C7 1_555 1_555
C8 C1 1_555 1_555
H6 C8 1_555 1_555
O2 Zn1 1_555 1_555
C9 C8 1_555 1_555
C10 C9 1_555 1_555
C11 C10 1_555 1_555
H7 C11 1_555 1_555
C12 C11 1_555 1_555
H8 C12 1_555 1_555
C13 C12 1_555 1_555
H9 C13 1_555 1_555
C14 C13 1_555 1_555
H10 C14 1_555 1_555
C15 C10 1_555 1_555
H11 C15 1_555 1_555
O3 Zn1 1_555 1_555
C16 O3 1_555 1_555
C17 C16 1_555 1_555
C18 C17 1_555 1_555
H12 C18 1_555 1_555
C19 C18 1_555 1_555
H13 C19 1_555 1_555
C20 C19 1_555 1_555
H14 C20 1_555 1_555
C21 C20 1_555 1_555
H15 C21 1_555 1_555
C22 C17 1_555 1_555
H16 C22 1_555 1_555
C23 C16 1_555 1_555
H17 C23 1_555 1_555
O4 Zn1 1_555 1_555
C24 C23 1_555 1_555
C25 C24 1_555 1_555
C26 C25 1_555 1_555
H18 C26 1_555 1_555
C27 C26 1_555 1_555
H19 C27 1_555 1_555
C28 C27 1_555 1_555
H20 C28 1_555 1_555
C29 C28 1_555 1_555
H21 C29 1_555 1_555
C30 C25 1_555 1_555
H22 C30 1_555 1_555
N1 Zn1 1_555 1_555
C31 N1 1_555 1_555
H23 C31 1_555 1_555
C32 C31 1_555 1_555
H24 C32 1_555 1_555
C33 C32 1_555 1_555
C34 C33 1_555 1_555
H25 C34 1_555 1_555
C35 N1 1_555 1_555
H26 C35 1_555 1_555
N2 C36 1_555 1_555
C36 H27 1_555 1_555
C37 C36 1_555 1_555
H28 C37 1_555 1_555
C38 C33 1_555 1_555
C39 C38 1_555 1_555
H29 C39 1_555 1_555
C40 N2 1_555 1_555
H30 C40 1_555 1_555
Cl1 C41 1_555 1_555
C41 C42 1_555 1_555
C42 H31 1_555 1_555
C43 C42 1_555 1_555
H32 C43 1_555 1_555
C44 C43 1_555 1_555
H33 C44 1_555 1_555
C45 C44 1_555 1_555
H34 C45 1_555 1_555
C46 C41 1_555 1_555
H35 C46 1_555 1_555
Cl2 C47 1_555 1_555
C47 C48 1_555 1_555
C48 H36 1_555 1_555
C49 C48 1_555 1_555
H37 C49 1_555 1_555
C50 C49 1_555 1_555
H38 C50 1_555 1_555
C51 C50 1_555 1_555
H39 C51 1_555 1_555
C52 C47 1_555 1_555
H40 C52 1_555 1_555
N2A Zn1 1_555 1_555
Zn1A N2 1_555 1_555
C6 C7 1_555 1_555
O2 C9 1_555 1_555
C14 C15 1_555 1_555
C21 C22 1_555 1_555
O4 C24 1_555 1_555
C29 C30 1_555 1_555
C34 C35 1_555 1_555
C37 C38 1_555 1_555
C39 C40 1_555 1_555
C45 C46 1_555 1_555
C51 C52 1_555 1_555

#END
