
#######################################################################
#
#                 Cambridge Crystallographic Data Centre
#                                CCDC 
#
#######################################################################
#
# If this CIF has been generated from an entry in the Cambridge 
# Structural Database, then it will include bibliographic, chemical, 
# crystal, experimental, refinement or atomic coordinate data resulting 
# from the CCDC's data processing and validation procedures.
#
#######################################################################

data_EVURIX
_symmetry_cell_setting           triclinic
_symmetry_space_group_name_H-M   'P -1'
_symmetry_Int_Tables_number      2
_space_group_name_Hall           '-P 1'
loop_
_symmetry_equiv_pos_site_id
_symmetry_equiv_pos_as_xyz
1 x,y,z
2 -x,-y,-z
_cell_length_a                   10.0171(3)
_cell_length_b                   12.4196(4)
_cell_length_c                   15.3363(5)
_cell_angle_alpha                98.9554(15)
_cell_angle_beta                 108.4746(10)
_cell_angle_gamma                105.0417(15)
_cell_volume                     1687.66
loop_
_atom_site_label
_atom_site_type_symbol
_atom_site_fract_x
_atom_site_fract_y
_atom_site_fract_z
Co1 Co 0.74150(4) 0.24068(3) 0.74387(2)
O1 O 0.5325(2) 0.11286(18) 0.68914(14)
C1 C 0.4190(4) 0.1083(3) 0.7088(2)
O2 O 0.4189(3) 0.1700(3) 0.78237(17)
C2 C 0.2723(3) 0.0204(3) 0.6400(2)
C3 C 0.2596(3) -0.0403(3) 0.5522(2)
H1 H 0.3445 -0.0267 0.5350
C4 C 0.1248(3) -0.1206(3) 0.4892(2)
C5 C 0.1101(4) -0.1876(3) 0.3933(2)
O3 O 0.2156(2) -0.15467(18) 0.36609(14)
O4 O -0.0059(3) -0.2718(3) 0.34764(19)
C6 C 0.0000(3) -0.1405(3) 0.5146(2)
H2 H -0.0924 -0.1966 0.4728
C7 C 0.0129(3) -0.0777(3) 0.6013(2)
C8 C 0.1473(3) 0.0032(3) 0.6645(2)
H3 H 0.1538 0.0461 0.7235
O5 O -0.1159(2) -0.0932(2) 0.62178(16)
C9 C -0.1258(3) -0.1460(3) 0.6923(2)
C10 C -0.0267(4) -0.1998(3) 0.7359(2)
H4 H 0.0557 -0.1998 0.7179
C11 C -0.0483(4) -0.2532(3) 0.8053(2)
H5 H 0.0203 -0.2885 0.8362
C12 C -0.1717(4) -0.2548(3) 0.8297(2)
C13 C -0.1893(6) -0.3154(4) 0.9050(4)
O6 O -0.1036(4) -0.3600(3) 0.9448(3)
O7 O -0.3080(4) -0.3130(4) 0.9230(3)
H6 H -0.3025 -0.3453 0.9764
C14 C -0.2700(4) -0.2013(3) 0.7852(3)
H7 H -0.3538 -0.2034 0.8023
C15 C -0.2502(3) -0.1453(3) 0.7173(2)
N1 N -0.3484(3) -0.0940(3) 0.6694(2)
H8 H -0.4281 -0.0969 0.6820
H9 H -0.3111 -0.0244 0.6587
N2 N 0.6502(3) 0.3368(2) 0.65122(16)
C16 C 0.5490(4) 0.2862(3) 0.5632(2)
H10 H 0.5173 0.2045 0.5413
C17 C 0.4882(4) 0.3473(3) 0.5026(2)
H11 H 0.4157 0.3071 0.4409
C18 C 0.5321(4) 0.4663(3) 0.5312(2)
C19 C 0.6388(5) 0.5184(3) 0.6213(2)
H12 H 0.6753 0.6001 0.6441
C20 C 0.6934(5) 0.4507(3) 0.6795(2)
H13 H 0.7647 0.4884 0.7420
N3 N 0.8378(3) 0.1497(2) 0.83923(15)
C21 C 0.9679(4) 0.1344(3) 0.8469(2)
H14 H 1.0167 0.1645 0.8077
C22 C 1.0354(3) 0.0774(3) 0.90853(19)
H15 H 1.1284 0.0696 0.9113
C23 C 0.9672(3) 0.0317(2) 0.96610(17)
C24 C 0.8302(3) 0.0472(3) 0.9579(2)
H16 H 0.7781 0.0169 0.9955
C25 C 0.7719(3) 0.1063(3) 0.8955(2)
H17 H 0.6800 0.1170 0.8921
O8 O 0.9502(3) 0.3754(2) 0.79000(16)
H18 H 0.9853 0.3698 0.8494
H19 H 0.9696 0.3393 0.7392
O9 O 0.6861(2) 0.33137(19) 0.84842(14)
H20 H 0.5988 0.2749 0.8232
H21 H 0.6897 0.4030 0.8617
Co1A Co 0.25850(4) -0.24068(3) 0.25613(2)
Co1A_2 Co 0.25850(4) 0.75932(3) 0.25613(2)
Co1A_3 Co 1.25850(4) -0.24068(3) 1.25613(2)
O1A O 0.4675(2) -0.11286(18) 0.31086(14)
C1A C 0.5810(4) -0.1083(3) 0.2912(2)
O2A O 0.5811(3) -0.1700(3) 0.21763(17)
C2A C 0.7277(3) -0.0204(3) 0.3600(2)
C3A C 0.7404(3) 0.0403(3) 0.4478(2)
H1A H 0.6555 0.0267 0.4650
C4A C 0.8752(3) 0.1206(3) 0.5108(2)
C5A C 0.8899(4) 0.1876(3) 0.6067(2)
O3A O 0.7844(2) 0.15467(18) 0.63391(14)
O4A O 1.0059(3) 0.2718(3) 0.65236(19)
C6A C 1.0000(3) 0.1405(3) 0.4854(2)
H2A H 1.0924 0.1966 0.5272
C7A C 0.9871(3) 0.0777(3) 0.3987(2)
C8A C 0.8527(3) -0.0032(3) 0.3355(2)
H3A H 0.8462 -0.0461 0.2765
O5A O 1.1159(2) 0.0932(2) 0.37822(16)
C9A C 1.1258(3) 0.1460(3) 0.3077(2)
C10A C 1.0267(4) 0.1998(3) 0.2641(2)
H4A H 0.9443 0.1998 0.2821
C11A C 1.0483(4) 0.2532(3) 0.1947(2)
H5A H 0.9797 0.2885 0.1638
C12A C 1.1717(4) 0.2548(3) 0.1703(2)
C13A C 1.1893(6) 0.3154(4) 0.0950(4)
O6A O 1.1036(4) 0.3600(3) 0.0552(3)
O7A O 1.3080(4) 0.3130(4) 0.0770(3)
H6A H 1.3025 0.3453 0.0236
C14A C 1.2700(4) 0.2013(3) 0.2148(3)
H7A H 1.3538 0.2034 0.1977
C15A C 1.2502(3) 0.1453(3) 0.2827(2)
N1A N 1.3484(3) 0.0940(3) 0.3306(2)
H8A H 1.4281 0.0969 0.3180
H9A H 1.3111 0.0244 0.3413
N2A N 0.3498(3) 0.6632(2) 0.34878(16)
N2A_2 N 0.3498(3) -0.3368(2) 0.34878(16)
C16A C 0.4510(4) 0.7138(3) 0.4368(2)
H10A H 0.4827 0.7955 0.4587
C17A C 0.5118(4) 0.6527(3) 0.4974(2)
H11A H 0.5843 0.6929 0.5591
C18A C 0.4679(4) 0.5337(3) 0.4688(2)
C19A C 0.3612(5) 0.4816(3) 0.3787(2)
H12A H 0.3247 0.3999 0.3559
C20A C 0.3066(5) 0.5493(3) 0.3205(2)
H13A H 0.2353 0.5116 0.2580
N3A N 1.1622(3) -0.1497(2) 1.16077(15)
N3A_2 N 0.1622(3) -0.1497(2) 0.16077(15)
C21A C 1.0321(4) -0.1344(3) 1.1531(2)
H14A H 0.9833 -0.1645 1.1923
C22A C 0.9646(3) -0.0774(3) 1.09147(19)
H15A H 0.8716 -0.0696 1.0887
C23A C 1.0328(3) -0.0317(2) 1.03390(17)
C24A C 1.1698(3) -0.0472(3) 1.0421(2)
H16A H 1.2219 -0.0169 1.0045
C25A C 1.2281(3) -0.1063(3) 1.1045(2)
H17A H 1.3200 -0.1170 1.1079
O8A O 0.0498(3) -0.3754(2) 0.21000(16)
H18A H 0.0147 -0.3698 0.1506
H19A H 0.0304 -0.3393 0.2608
O9A O 0.3139(2) -0.33137(19) 0.15158(14)
H20A H 0.4012 -0.2749 0.1768
H21A H 0.3103 -0.4030 0.1383
loop_
_geom_bond_atom_site_label_1
_geom_bond_atom_site_label_2
_geom_bond_site_symmetry_1
_geom_bond_site_symmetry_2
Co1 O1 1_555 1_555
O1 C1 1_555 1_555
C1 O2 1_555 1_555
C2 C1 1_555 1_555
C3 C2 1_555 1_555
H1 C3 1_555 1_555
C4 C3 1_555 1_555
C5 C4 1_555 1_555
O3 C5 1_555 1_555
O4 C5 1_555 1_555
C6 C4 1_555 1_555
H2 C6 1_555 1_555
C7 C6 1_555 1_555
C8 C2 1_555 1_555
H3 C8 1_555 1_555
O5 C7 1_555 1_555
C9 O5 1_555 1_555
C10 C9 1_555 1_555
H4 C10 1_555 1_555
C11 C10 1_555 1_555
H5 C11 1_555 1_555
C12 C11 1_555 1_555
C13 C12 1_555 1_555
O6 C13 1_555 1_555
O7 C13 1_555 1_555
H6 O7 1_555 1_555
C14 C12 1_555 1_555
H7 C14 1_555 1_555
C15 C9 1_555 1_555
N1 C15 1_555 1_555
H8 N1 1_555 1_555
H9 N1 1_555 1_555
N2 Co1 1_555 1_555
C16 N2 1_555 1_555
H10 C16 1_555 1_555
C17 C16 1_555 1_555
H11 C17 1_555 1_555
C18 C17 1_555 1_555
C19 C18 1_555 1_555
H12 C19 1_555 1_555
C20 N2 1_555 1_555
H13 C20 1_555 1_555
N3 Co1 1_555 1_555
C21 N3 1_555 1_555
H14 C21 1_555 1_555
C22 C21 1_555 1_555
H15 C22 1_555 1_555
C23 C22 1_555 1_555
C24 C23 1_555 1_555
H16 C24 1_555 1_555
C25 N3 1_555 1_555
H17 C25 1_555 1_555
O8 Co1 1_555 1_555
H18 O8 1_555 1_555
H19 O8 1_555 1_555
O9 Co1 1_555 1_555
H20 O9 1_555 1_555
H21 O9 1_555 1_555
Co1A O3 1_555 1_555
Co1A_2 N2A 1_555 1_555
Co1A_3 N3A 1_555 1_555
O1A Co1A 1_555 1_555
C1A O1A 1_555 1_555
O2A C1A 1_555 1_555
C2A C1A 1_555 1_555
C3A C2A 1_555 1_555
H1A C3A 1_555 1_555
C4A C3A 1_555 1_555
C5A C4A 1_555 1_555
O3A Co1 1_555 1_555
O4A C5A 1_555 1_555
C6A C4A 1_555 1_555
H2A C6A 1_555 1_555
C7A C6A 1_555 1_555
C8A C2A 1_555 1_555
H3A C8A 1_555 1_555
O5A C7A 1_555 1_555
C9A O5A 1_555 1_555
C10A C9A 1_555 1_555
H4A C10A 1_555 1_555
C11A C10A 1_555 1_555
H5A C11A 1_555 1_555
C12A C11A 1_555 1_555
C13A C12A 1_555 1_555
O6A C13A 1_555 1_555
O7A C13A 1_555 1_555
H6A O7A 1_555 1_555
C14A C12A 1_555 1_555
H7A C14A 1_555 1_555
C15A C9A 1_555 1_555
N1A C15A 1_555 1_555
H8A N1A 1_555 1_555
H9A N1A 1_555 1_555
N2A C16A 1_555 1_555
N2A_2 Co1A 1_555 1_555
C16A H10A 1_555 1_555
C17A C16A 1_555 1_555
H11A C17A 1_555 1_555
C18A C18 1_555 1_555
C19A C18A 1_555 1_555
H12A C19A 1_555 1_555
C20A N2A 1_555 1_555
H13A C20A 1_555 1_555
N3A C21A 1_555 1_555
N3A_2 Co1A 1_555 1_555
C21A H14A 1_555 1_555
C22A C21A 1_555 1_555
H15A C22A 1_555 1_555
C23A C23 1_555 1_555
C24A C23A 1_555 1_555
H16A C24A 1_555 1_555
C25A N3A 1_555 1_555
H17A C25A 1_555 1_555
O8A Co1A 1_555 1_555
H18A O8A 1_555 1_555
H19A O8A 1_555 1_555
O9A Co1A 1_555 1_555
H20A O9A 1_555 1_555
H21A O9A 1_555 1_555
C7 C8 1_555 1_555
C14 C15 1_555 1_555
C19 C20 1_555 1_555
C24 C25 1_555 1_555
C5A O3A 1_555 1_555
C7A C8A 1_555 1_555
C14A C15A 1_555 1_555
C17A C18A 1_555 1_555
C19A C20A 1_555 1_555
C22A C23A 1_555 1_555
C24A C25A 1_555 1_555

#END
