
#######################################################################
#
#                 Cambridge Crystallographic Data Centre
#                                CCDC 
#
#######################################################################
#
# If this CIF has been generated from an entry in the Cambridge 
# Structural Database, then it will include bibliographic, chemical, 
# crystal, experimental, refinement or atomic coordinate data resulting 
# from the CCDC's data processing and validation procedures.
#
#######################################################################

data_EVUSAQ
_symmetry_cell_setting           triclinic
_symmetry_space_group_name_H-M   'P -1'
_symmetry_Int_Tables_number      2
_space_group_name_Hall           '-P 1'
loop_
_symmetry_equiv_pos_site_id
_symmetry_equiv_pos_as_xyz
1 x,y,z
2 -x,-y,-z
_cell_length_a                   8.8800(3)
_cell_length_b                   9.5630(4)
_cell_length_c                   13.4380(6)
_cell_angle_alpha                75.128(2)
_cell_angle_beta                 73.219(3)
_cell_angle_gamma                67.246(2)
_cell_volume                     993.844
loop_
_atom_site_label
_atom_site_type_symbol
_atom_site_fract_x
_atom_site_fract_y
_atom_site_fract_z
Zn1 Zn 0.33776(8) -0.11934(8) 0.53039(4)
O1 O 0.2334(5) 0.0966(5) 0.4774(3)
O2 O 0.4052(4) 0.1587(4) 0.5367(3)
C1 C 0.2930(7) 0.1946(7) 0.4860(4)
C2 C 0.2232(6) 0.3539(7) 0.4316(4)
C3 C 0.2723(6) 0.4682(6) 0.4422(4)
H1 H 0.3516 0.4447 0.4840
C4 C 0.2061(6) 0.6189(7) 0.3918(4)
C5 C 0.2535(7) 0.7441(6) 0.4076(4)
O3 O 0.3284(7) 0.7130(6) 0.4808(4)
O4 O 0.2204(6) 0.8721(5) 0.3516(3)
C6 C 0.0874(6) 0.6556(7) 0.3310(4)
H2 H 0.0426 0.7577 0.2962
C7 C 0.0372(7) 0.5406(7) 0.3229(4)
C8 C 0.1017(7) 0.3883(7) 0.3721(4)
O5 O -0.0914(5) 0.5704(5) 0.2733(3)
C9 C -0.0960(6) 0.6703(6) 0.1776(4)
C10 C 0.0446(7) 0.6787(7) 0.1021(4)
H3 H 0.1525 0.6194 0.1159
C11 C 0.0283(9) 0.7735(8) 0.0065(5)
H4 H 0.1249 0.7809 -0.0453
C12 C -0.1303(9) 0.8583(7) -0.0140(4)
C13 C -0.145(2) 0.9515(10) -0.1185(7)
O6 O -0.0172(12) 0.9521(7) -0.1909(4)
O7 O -0.2884(11) 1.0304(8) -0.1331(5)
H5 H -0.2840 1.0641 -0.1977
C14 C -0.2691(7) 0.8497(7) 0.0630(4)
H6 H -0.3769 0.9080 0.0487
C15 C -0.2562(6) 0.7585(6) 0.1607(4)
N1 N -0.3951(6) 0.7433(6) 0.2401(4)
H7 H -0.4815 0.8338 0.2351
H8 H -0.3690 0.7218 0.3044
O8 O 0.0725(8) -0.1169(7) 0.6066(5)
H9 H -0.0227 -0.0377 0.6199
H10 H 0.0427 -0.0731 0.6726
N2 N 0.3722(6) -0.2028(6) 0.6798(3)
C16 C 0.3608(8) -0.3436(7) 0.7215(4)
H11 H 0.3215 -0.3899 0.6843
C17 C 0.4039(8) -0.4221(7) 0.8155(4)
H12 H 0.3957 -0.5216 0.8419
C18 C 0.4597(6) -0.3559(6) 0.8722(4)
C19 C 0.4722(7) -0.2111(7) 0.8285(4)
H13 H 0.5116 -0.1622 0.8638
C20 C 0.4270(7) -0.1396(7) 0.7335(4)
H14 H 0.4352 -0.0404 0.7048
C21 C 0.5050(7) -0.4331(6) 0.9744(4)
H15 H 0.5456 -0.3809 1.0065
Zn1A Zn 0.66224(8) 0.11934(8) 0.46961(4)
Zn1_2 Zn 0.33776(8) 0.88066(8) 0.53039(4)
Zn1A_2 Zn 0.66224(8) -0.88066(8) 1.46961(4)
Zn1A_3 Zn 0.66224(8) -0.88066(8) 0.46961(4)
O1A O 0.7666(5) -0.0966(5) 0.5226(3)
O2A O 0.5948(4) -0.1587(4) 0.4633(3)
C1A C 0.7070(7) -0.1946(7) 0.5140(4)
C2A C 0.7768(6) -0.3539(7) 0.5684(4)
C3A C 0.7277(6) -0.4682(6) 0.5578(4)
H1A H 0.6484 -0.4447 0.5160
C4A C 0.7939(6) -0.6189(7) 0.6082(4)
C5A C 0.7465(7) -0.7441(6) 0.5924(4)
O3A O 0.6716(7) -0.7130(6) 0.5192(4)
O3_2 O 0.3284(7) -0.2870(6) 0.4808(4)
O3A_2 O 0.6716(7) 0.2870(6) 0.5192(4)
O4A O 0.7796(6) -0.8721(5) 0.6484(3)
C6A C 0.9126(6) -0.6556(7) 0.6690(4)
H2A H 0.9574 -0.7577 0.7038
C7A C 0.9628(7) -0.5406(7) 0.6771(4)
C8A C 0.8983(7) -0.3883(7) 0.6279(4)
O5A O 1.0914(5) -0.5704(5) 0.7267(3)
C9A C 1.0960(6) -0.6703(6) 0.8224(4)
C10A C 0.9554(7) -0.6787(7) 0.8979(4)
H3A H 0.8475 -0.6194 0.8841
C11A C 0.9717(9) -0.7735(8) 0.9935(5)
H4A H 0.8751 -0.7809 1.0453
C12A C 1.1303(9) -0.8583(7) 1.0140(4)
C13A C 1.145(2) -0.9515(10) 1.1185(7)
O6A O 1.0172(12) -0.9521(7) 1.1909(4)
O7A O 1.2884(11) -1.0304(8) 1.1331(5)
H5A H 1.2840 -1.0641 1.1977
C14A C 1.2691(7) -0.8497(7) 0.9370(4)
H6A H 1.3769 -0.9080 0.9513
C15A C 1.2562(6) -0.7585(6) 0.8393(4)
N1A N 1.3951(6) -0.7433(6) 0.7599(4)
H7A H 1.4815 -0.8338 0.7649
H8A H 1.3690 -0.7218 0.6956
O8A O 0.9275(8) 0.1169(7) 0.3934(5)
H9A H 1.0227 0.0377 0.3801
H10A H 0.9573 0.0731 0.3274
N2A N 0.6278(6) -0.7972(6) 1.3202(3)
N2A_2 N 0.6278(6) 0.2028(6) 0.3202(3)
C16A C 0.6392(8) -0.6564(7) 1.2785(4)
H11A H 0.6785 -0.6101 1.3157
C17A C 0.5961(8) -0.5779(7) 1.1845(4)
H12A H 0.6043 -0.4784 1.1581
C18A C 0.5403(6) -0.6441(6) 1.1278(4)
C19A C 0.5278(7) -0.7889(7) 1.1715(4)
H13A H 0.4884 -0.8378 1.1362
C20A C 0.5730(7) -0.8604(7) 1.2665(4)
H14A H 0.5648 -0.9596 1.2952
C21A C 0.4950(7) -0.5669(6) 1.0256(4)
H15A H 0.4544 -0.6191 0.9935
loop_
_geom_bond_atom_site_label_1
_geom_bond_atom_site_label_2
_geom_bond_site_symmetry_1
_geom_bond_site_symmetry_2
Zn1 O1 1_555 1_555
O1 C1 1_555 1_555
O2 C1 1_555 1_555
C1 C2 1_555 1_555
C2 C3 1_555 1_555
C3 H1 1_555 1_555
C4 C3 1_555 1_555
C5 C4 1_555 1_555
O3 C5 1_555 1_555
O4 C5 1_555 1_555
C6 C4 1_555 1_555
H2 C6 1_555 1_555
C7 C6 1_555 1_555
C8 C2 1_555 1_555
O5 C7 1_555 1_555
C9 O5 1_555 1_555
C10 C9 1_555 1_555
H3 C10 1_555 1_555
C11 C10 1_555 1_555
H4 C11 1_555 1_555
C12 C11 1_555 1_555
C13 C12 1_555 1_555
O6 C13 1_555 1_555
O7 C13 1_555 1_555
H5 O7 1_555 1_555
C14 C12 1_555 1_555
H6 C14 1_555 1_555
C15 C9 1_555 1_555
N1 C15 1_555 1_555
H7 N1 1_555 1_555
H8 N1 1_555 1_555
O8 Zn1 1_555 1_555
H9 O8 1_555 1_555
H10 O8 1_555 1_555
N2 Zn1 1_555 1_555
C16 N2 1_555 1_555
H11 C16 1_555 1_555
C17 C16 1_555 1_555
H12 C17 1_555 1_555
C18 C17 1_555 1_555
C19 C18 1_555 1_555
H13 C19 1_555 1_555
C20 N2 1_555 1_555
H14 C20 1_555 1_555
C21 C18 1_555 1_555
H15 C21 1_555 1_555
Zn1A O2 1_555 1_555
Zn1_2 O3 1_555 1_555
Zn1A_2 N2A 1_555 1_555
Zn1A_3 O3A 1_555 1_555
O1A Zn1A 1_555 1_555
O2A Zn1 1_555 1_555
C1A O1A 1_555 1_555
C2A C1A 1_555 1_555
C3A C2A 1_555 1_555
H1A C3A 1_555 1_555
C4A C3A 1_555 1_555
C5A C4A 1_555 1_555
O3A C5A 1_555 1_555
O3_2 Zn1 1_555 1_555
O3A_2 Zn1A 1_555 1_555
O4A C5A 1_555 1_555
C6A C4A 1_555 1_555
H2A C6A 1_555 1_555
C7A C6A 1_555 1_555
C8A C2A 1_555 1_555
O5A C7A 1_555 1_555
C9A O5A 1_555 1_555
C10A C9A 1_555 1_555
H3A C10A 1_555 1_555
C11A C10A 1_555 1_555
H4A C11A 1_555 1_555
C12A C11A 1_555 1_555
C13A C12A 1_555 1_555
O6A C13A 1_555 1_555
O7A C13A 1_555 1_555
H5A O7A 1_555 1_555
C14A C12A 1_555 1_555
H6A C14A 1_555 1_555
C15A C9A 1_555 1_555
N1A C15A 1_555 1_555
H7A N1A 1_555 1_555
H8A N1A 1_555 1_555
O8A Zn1A 1_555 1_555
H9A O8A 1_555 1_555
H10A O8A 1_555 1_555
N2A C16A 1_555 1_555
N2A_2 Zn1A 1_555 1_555
C16A H11A 1_555 1_555
C17A C16A 1_555 1_555
H12A C17A 1_555 1_555
C18A C17A 1_555 1_555
C19A C18A 1_555 1_555
H13A C19A 1_555 1_555
C20A N2A 1_555 1_555
H14A C20A 1_555 1_555
C21A C21 1_555 1_555
H15A C21A 1_555 1_555
C7 C8 1_555 1_555
C14 C15 1_555 1_555
C19 C20 1_555 1_555
O2A C1A 1_555 1_555
C7A C8A 1_555 1_555
C14A C15A 1_555 1_555
C18A C21A 1_555 1_555
C19A C20A 1_555 1_555

#END
