
#######################################################################
#
#                 Cambridge Crystallographic Data Centre
#                                CCDC 
#
#######################################################################
#
# If this CIF has been generated from an entry in the Cambridge 
# Structural Database, then it will include bibliographic, chemical, 
# crystal, experimental, refinement or atomic coordinate data resulting 
# from the CCDC's data processing and validation procedures.
#
#######################################################################

data_EVUSOE
_symmetry_cell_setting           triclinic
_symmetry_space_group_name_H-M   'P -1'
_symmetry_Int_Tables_number      2
_space_group_name_Hall           '-P 1'
loop_
_symmetry_equiv_pos_site_id
_symmetry_equiv_pos_as_xyz
1 x,y,z
2 -x,-y,-z
_cell_length_a                   9.8468(2)
_cell_length_b                   14.0910(3)
_cell_length_c                   19.5261(4)
_cell_angle_alpha                85.1605(8)
_cell_angle_beta                 78.4046(9)
_cell_angle_gamma                82.9020(12)
_cell_volume                     2628.7
loop_
_atom_site_label
_atom_site_type_symbol
_atom_site_fract_x
_atom_site_fract_y
_atom_site_fract_z
Ag1 Ag 0.88877(4) 0.44067(3) -0.01941(2)
Ag2 Ag -0.11158(4) 0.81484(3) 0.29720(2)
Ag3 Ag 1.88024(4) 0.20041(3) -0.40308(2)
N2 N 0.0603(4) 0.7269(3) 0.2316(2)
C18 C 0.1202(6) 0.6424(4) 0.2535(3)
H11 H 0.0790 0.6132 0.2971
C19 C 0.2394(5) 0.5958(3) 0.2152(3)
H12 H 0.2805 0.5371 0.2335
C20 C 0.3000(5) 0.6349(3) 0.1492(3)
C21 C 0.2321(5) 0.7205(3) 0.1260(3)
H13 H 0.2659 0.7489 0.0809
C22 C 0.1168(5) 0.7641(4) 0.1680(3)
H14 H 0.0745 0.8235 0.1514
C23 C 0.4310(5) 0.5897(3) 0.1085(3)
C24 C 0.4830(6) 0.4955(4) 0.1234(3)
H15 H 0.4323 0.4570 0.1595
C25 C 0.6092(6) 0.4586(4) 0.0849(3)
H16 H 0.6434 0.3945 0.0967
N3 N 0.6859(4) 0.5062(3) 0.0329(2)
C26 C 0.6360(6) 0.5966(4) 0.0171(3)
H17 H 0.6884 0.6324 -0.0202
C27 C 0.5105(6) 0.6396(4) 0.0533(3)
H18 H 0.4786 0.7037 0.0402
N4 N -0.3186(4) 0.8854(3) 0.3457(2)
C28 C -0.3905(5) 0.8485(4) 0.4041(3)
H19 H -0.3555 0.7874 0.4218
C29 C -0.5130(6) 0.8923(3) 0.4412(3)
H20 H -0.5594 0.8623 0.4833
C30 C -0.5681(5) 0.9821(3) 0.4157(3)
C31 C -0.4930(5) 1.0206(4) 0.3533(3)
H21 H -0.5265 1.0806 0.3333
C32 C -0.3700(5) 0.9717(4) 0.3207(3)
H22 H -0.3195 0.9999 0.2788
C33 C -0.6968(5) 1.0333(3) 0.4556(3)
C34 C -0.7840(5) 0.9865(4) 0.5093(3)
H23 H -0.7659 0.9193 0.5184
C35 C -0.8964(5) 1.0370(4) 0.5494(3)
H24 H -0.9528 1.0037 0.5867
N5 N -0.9296(4) 1.1318(3) 0.5378(2)
C36 C -0.8481(6) 1.1771(4) 0.4847(3)
H25 H -0.8723 1.2434 0.4746
C37 C -0.7320(5) 1.1320(4) 0.4443(3)
H26 H -0.6753 1.1676 0.4087
N6 N 1.6806(4) 0.2372(3) -0.3368(2)
C38 C 1.6469(5) 0.1948(4) -0.2726(3)
H29 H 1.7105 0.1446 -0.2579
C39 C 1.5252(5) 0.2203(4) -0.2272(3)
H30 H 1.5054 0.1881 -0.1822
C40 C 1.4298(5) 0.2947(3) -0.2477(3)
C41 C 1.4643(5) 0.3378(4) -0.3145(3)
H31 H 1.4027 0.3882 -0.3306
C42 C 1.5879(5) 0.3073(3) -0.3573(3)
H32 H 1.6091 0.3367 -0.4032
C43 C 1.2995(5) 0.3263(3) -0.1996(3)
C44 C 1.2350(5) 0.2646(4) -0.1468(3)
H33 H 1.2715 0.1991 -0.1432
C45 C 1.1189(5) 0.2983(3) -0.1000(3)
H34 H 1.0793 0.2553 -0.0635
N7 N 1.0579(4) 0.3897(3) -0.1033(2)
C46 C 1.1169(6) 0.4481(4) -0.1561(3)
H35 H 1.0744 0.5121 -0.1606
C47 C 1.2350(5) 0.4205(3) -0.2039(3)
H36 H 1.2729 0.4651 -0.2398
Ag1A Ag 1.11123(4) 0.55933(3) 0.01941(2)
Ag2A Ag 2.11158(4) 0.18516(3) -0.29720(2)
Ag3A Ag 0.11976(4) 0.79959(3) 0.40308(2)
Ag3_2 Ag -1.11976(4) 1.20041(3) 0.59692(2)
N5_2 N 2.0704(4) 0.1318(3) -0.4622(2)
O1 O 1.0570(4) 0.3772(2) 0.0671(2)
O2 O 0.8865(4) 0.2833(2) 0.07450(19)
C1 C 0.9954(5) 0.3062(3) 0.0918(3)
C2 C 1.0532(5) 0.2426(3) 0.1484(3)
C3 C 1.0063(5) 0.1534(3) 0.1704(3)
H1 H 0.9364 0.1323 0.1500
C4 C 1.0601(5) 0.0951(3) 0.2217(3)
C5 C 1.0101(5) -0.0029(3) 0.2447(3)
O3 O 0.9213(4) -0.0282(2) 0.21419(19)
O4 O 1.0630(4) -0.0513(2) 0.2923(2)
C6 C 1.1587(5) 0.1282(3) 0.2531(3)
H2 H 1.1945 0.0901 0.2893
C7 C 1.2039(5) 0.2160(3) 0.2316(3)
C8 C 1.1537(5) 0.2738(4) 0.1790(3)
H3 H 1.1877 0.3339 0.1643
O5 O 1.3085(4) 0.2453(2) 0.2618(2)
C9 C 1.2704(5) 0.3198(3) 0.3061(3)
C10 C 1.1348(5) 0.3590(4) 0.3300(3)
H4 H 1.0597 0.3359 0.3149
C11 C 1.1083(6) 0.4315(3) 0.3756(3)
H5 H 1.0149 0.4577 0.3920
C12 C 1.2168(6) 0.4666(3) 0.3978(3)
C13 C 1.1865(7) 0.5455(4) 0.4493(3)
O6 O 1.2693(5) 0.5462(3) 0.4901(2)
O7 O 1.0832(4) 0.6069(3) 0.4463(2)
C14 C 1.3539(5) 0.4280(3) 0.3739(3)
H6 H 1.4285 0.4528 0.3882
C15 C 1.3817(5) 0.3531(3) 0.3290(3)
N1 N 1.5188(4) 0.3093(3) 0.3053(2)
H7 H 1.5493 0.3056 0.2599
C16 C 1.6053(6) 0.2728(4) 0.3493(3)
C17 C 1.7464(6) 0.2296(5) 0.3153(3)
H8 H 1.8069 0.2805 0.2990
H9 H 1.7382 0.1945 0.2754
H10 H 1.7868 0.1854 0.3493
O8 O 1.5717(4) 0.2757(3) 0.4142(2)
O9 O -0.1827(4) 0.2556(3) 0.4704(2)
H27 H -0.2598 0.2788 0.4510
H28 H -0.1526 0.2971 0.4955
O10 O 0.7623(5) 0.4632(3) 0.3563(2)
H37 H 0.7505 0.4459 0.4041
H38 H 0.7998 0.5217 0.3493
O11 O 0.1126(4) 0.8731(3) 0.0022(2)
H39 H 0.0336 0.9013 0.0292
H40 H 0.1189 0.8249 -0.0272
O12 O 0.8698(4) 0.9602(3) 0.0849(2)
H41 H 0.8764 1.0145 0.0564
H42 H 0.8875 0.9644 0.1282
O13 O 1.3985(4) 0.3731(3) 0.5282(2)
H43 H 1.4588 0.3406 0.4854
H44 H 1.3529 0.4300 0.5153
O14 O 0.1453(3) 0.3541(3) 0.6157(2)
H45 H 0.0679 0.3764 0.5960
H46 H 0.2241 0.3600 0.5809
O15 O 0.6373(4) 0.2484(3) 0.1673(2)
H47 H 0.5858 0.2273 0.1424
H48 H 0.7316 0.2430 0.1426
C48 C 0.3211(7) -0.0301(4) 0.0876(4)
H49 H 0.3947 -0.0780 0.0662
H50 H 0.2354 -0.0346 0.0703
H51 H 0.3037 -0.0418 0.1386
N8 N 0.3657(6) 0.0669(4) 0.0688(3)
C49 C 0.3071(7) 0.1277(5) 0.0123(3)
H52 H 0.3114 0.1955 0.0186
H53 H 0.2099 0.1164 0.0150
H54 H 0.3619 0.1109 -0.0336
C50 C 0.4524(7) 0.1031(5) 0.0988(4)
C51 C 0.5068(6) 0.0416(4) 0.1572(3)
H55 H 0.5762 -0.0096 0.1371
H56 H 0.4292 0.0134 0.1885
H57 H 0.5500 0.0813 0.1838
O16 O 0.4848(4) 0.1871(3) 0.0791(2)
loop_
_geom_bond_atom_site_label_1
_geom_bond_atom_site_label_2
_geom_bond_site_symmetry_1
_geom_bond_site_symmetry_2
Ag1 N3 1_555 1_555
Ag2 N2 1_555 1_555
Ag3 N6 1_555 1_555
O1 C1 1_555 1_555
O2 C1 1_555 1_555
C1 C2 1_555 1_555
C2 C3 1_555 1_555
C3 H1 1_555 1_555
C4 C3 1_555 1_555
C5 C4 1_555 1_555
O3 C5 1_555 1_555
O4 C5 1_555 1_555
C6 C4 1_555 1_555
H2 C6 1_555 1_555
C7 C6 1_555 1_555
C8 C2 1_555 1_555
H3 C8 1_555 1_555
O5 C7 1_555 1_555
C9 O5 1_555 1_555
C10 C9 1_555 1_555
H4 C10 1_555 1_555
C11 C10 1_555 1_555
H5 C11 1_555 1_555
C12 C11 1_555 1_555
C13 C12 1_555 1_555
O6 C13 1_555 1_555
O7 C13 1_555 1_555
C14 C12 1_555 1_555
H6 C14 1_555 1_555
C15 C9 1_555 1_555
N1 C15 1_555 1_555
H7 N1 1_555 1_555
C16 N1 1_555 1_555
C17 C16 1_555 1_555
H8 C17 1_555 1_555
H9 C17 1_555 1_555
H10 C17 1_555 1_555
O8 C16 1_555 1_555
N2 C18 1_555 1_555
C18 H11 1_555 1_555
C19 C18 1_555 1_555
H12 C19 1_555 1_555
C20 C19 1_555 1_555
C21 C20 1_555 1_555
H13 C21 1_555 1_555
C22 N2 1_555 1_555
H14 C22 1_555 1_555
C23 C20 1_555 1_555
C24 C23 1_555 1_555
H15 C24 1_555 1_555
C25 C24 1_555 1_555
H16 C25 1_555 1_555
N3 C25 1_555 1_555
C26 N3 1_555 1_555
H17 C26 1_555 1_555
C27 C23 1_555 1_555
H18 C27 1_555 1_555
N4 Ag2 1_555 1_555
C28 N4 1_555 1_555
H19 C28 1_555 1_555
C29 C28 1_555 1_555
H20 C29 1_555 1_555
C30 C29 1_555 1_555
C31 C30 1_555 1_555
H21 C31 1_555 1_555
C32 N4 1_555 1_555
H22 C32 1_555 1_555
C33 C30 1_555 1_555
C34 C33 1_555 1_555
H23 C34 1_555 1_555
C35 C34 1_555 1_555
H24 C35 1_555 1_555
N5 C35 1_555 1_555
C36 N5 1_555 1_555
H25 C36 1_555 1_555
C37 C33 1_555 1_555
H26 C37 1_555 1_555
O9 H27 1_555 1_555
H28 O9 1_555 1_555
N6 C38 1_555 1_555
C38 H29 1_555 1_555
C39 C38 1_555 1_555
H30 C39 1_555 1_555
C40 C39 1_555 1_555
C41 C40 1_555 1_555
H31 C41 1_555 1_555
C42 N6 1_555 1_555
H32 C42 1_555 1_555
C43 C40 1_555 1_555
C44 C43 1_555 1_555
H33 C44 1_555 1_555
C45 C44 1_555 1_555
H34 C45 1_555 1_555
N7 Ag1 1_555 1_555
C46 N7 1_555 1_555
H35 C46 1_555 1_555
C47 C43 1_555 1_555
H36 C47 1_555 1_555
O10 H37 1_555 1_555
H38 O10 1_555 1_555
O11 H39 1_555 1_555
H40 O11 1_555 1_555
O12 H41 1_555 1_555
H42 O12 1_555 1_555
O13 H43 1_555 1_555
H44 O13 1_555 1_555
O14 H45 1_555 1_555
H46 O14 1_555 1_555
O15 H47 1_555 1_555
H48 O15 1_555 1_555
C48 H49 1_555 1_555
H50 C48 1_555 1_555
H51 C48 1_555 1_555
N8 C48 1_555 1_555
C49 N8 1_555 1_555
H52 C49 1_555 1_555
H53 C49 1_555 1_555
H54 C49 1_555 1_555
C50 N8 1_555 1_555
C51 C50 1_555 1_555
H55 C51 1_555 1_555
H56 C51 1_555 1_555
H57 C51 1_555 1_555
O16 C50 1_555 1_555
Ag1A Ag1 1_555 1_555
Ag2A Ag3 1_555 1_555
Ag3A Ag2 1_555 1_555
Ag3_2 N5 1_555 1_555
N5_2 Ag3 1_555 1_555
C7 C8 1_555 1_555
C14 C15 1_555 1_555
C21 C22 1_555 1_555
C26 C27 1_555 1_555
C31 C32 1_555 1_555
C36 C37 1_555 1_555
C41 C42 1_555 1_555
C45 N7 1_555 1_555
C46 C47 1_555 1_555

#END
