
#######################################################################
#
#                 Cambridge Crystallographic Data Centre
#                                CCDC 
#
#######################################################################
#
# If this CIF has been generated from an entry in the Cambridge 
# Structural Database, then it will include bibliographic, chemical, 
# crystal, experimental, refinement or atomic coordinate data resulting 
# from the CCDC's data processing and validation procedures.
#
#######################################################################

data_EVUVOH
_symmetry_cell_setting           orthorhombic
_symmetry_space_group_name_H-M   'F d d 2'
_symmetry_Int_Tables_number      43
_space_group_name_Hall           'F 2 -2d'
loop_
_symmetry_equiv_pos_site_id
_symmetry_equiv_pos_as_xyz
1 x,y,z
2 -x,-y,z
3 1/4+x,1/4-y,1/4+z
4 1/4-x,1/4+y,1/4+z
5 x,1/2+y,1/2+z
6 -x,1/2-y,1/2+z
7 1/4+x,3/4-y,3/4+z
8 1/4-x,3/4+y,3/4+z
9 1/2+x,y,1/2+z
10 1/2-x,-y,1/2+z
11 3/4+x,1/4-y,3/4+z
12 3/4-x,1/4+y,3/4+z
13 1/2+x,1/2+y,z
14 1/2-x,1/2-y,z
15 3/4+x,3/4-y,1/4+z
16 3/4-x,3/4+y,1/4+z
_cell_length_a                   14.0427(5)
_cell_length_b                   14.6533(5)
_cell_length_c                   12.4822(4)
_cell_angle_alpha                90
_cell_angle_beta                 90
_cell_angle_gamma                90
_cell_volume                     2568.49
loop_
_atom_site_label
_atom_site_type_symbol
_atom_site_fract_x
_atom_site_fract_y
_atom_site_fract_z
Cl1 Cl 0.0000 0.5000 0.03762(5)
N1 N 0.23665(14) 0.00506(12) 0.20677(15)
H1 H 0.2162 0.0670 0.1919
C1 C 0.33196(15) 0.00082(15) 0.25889(19)
H2 H 0.3814 -0.0067 0.2031
H3 H 0.3345 -0.0532 0.3064
C2 C 0.15860(17) -0.01795(16) 0.2833(2)
H4 H 0.1648 -0.0818 0.3057
H5 H 0.0969 -0.0091 0.2482
H6 H 0.1629 0.0218 0.3462
C3 C 0.23387(18) -0.05462(16) 0.10997(18)
H7 H 0.2457 -0.1180 0.1311
H8 H 0.2830 -0.0349 0.0592
H9 H 0.1711 -0.0501 0.0761
C4 C 0.35381(16) 0.08597(15) 0.32424(17)
O1 O 0.30720(11) 0.15671(10) 0.30805(12)
O2 O 0.42214(11) 0.07811(10) 0.38881(13)
Li1 Li 0.2500 0.2500 0.2227(4)
N1M N 0.26335(14) 0.49494(12) 0.20677(15)
H1M H 0.2838 0.4330 0.1919
C1M C 0.16804(15) 0.49918(15) 0.25889(19)
H2M H 0.1186 0.5067 0.2031
H3M H 0.1655 0.5532 0.3064
C2M C 0.34140(17) 0.51795(16) 0.2833(2)
H4M H 0.3352 0.5818 0.3057
H5M H 0.4031 0.5091 0.2482
H6M H 0.3371 0.4782 0.3462
C3M C 0.26613(18) 0.55462(16) 0.10997(18)
H7M H 0.2543 0.6180 0.1311
H8M H 0.2170 0.5349 0.0592
H9M H 0.3289 0.5501 0.0761
C4M C 0.14619(16) 0.41403(15) 0.32424(17)
O1M O 0.19280(11) 0.34329(10) 0.30805(12)
O2M O 0.07786(11) 0.42189(10) 0.38881(13)
O2J O 0.17214(11) 0.17189(10) 0.13881(13)
O2K O 0.32786(11) 0.32811(10) 0.13881(13)
Li1B Li 0.5000 0.0000 0.4727(4)
Li1C Li 0.0000 0.5000 0.4727(4)
loop_
_geom_bond_atom_site_label_1
_geom_bond_atom_site_label_2
_geom_bond_site_symmetry_1
_geom_bond_site_symmetry_2
N1 H1 1_555 1_555
C1 N1 1_555 1_555
H2 C1 1_555 1_555
H3 C1 1_555 1_555
C2 N1 1_555 1_555
H4 C2 1_555 1_555
H5 C2 1_555 1_555
H6 C2 1_555 1_555
C3 N1 1_555 1_555
H7 C3 1_555 1_555
H8 C3 1_555 1_555
H9 C3 1_555 1_555
C4 C1 1_555 1_555
O1 C4 1_555 1_555
O2 C4 1_555 1_555
Li1 O1 1_555 1_555
N1M H1M 1_555 1_555
C1M N1M 1_555 1_555
H2M C1M 1_555 1_555
H3M C1M 1_555 1_555
C2M N1M 1_555 1_555
H4M C2M 1_555 1_555
H5M C2M 1_555 1_555
H6M C2M 1_555 1_555
C3M N1M 1_555 1_555
H7M C3M 1_555 1_555
H8M C3M 1_555 1_555
H9M C3M 1_555 1_555
C4M C1M 1_555 1_555
O1M Li1 1_555 1_555
O2M C4M 1_555 1_555
O2J Li1 1_555 1_555
O2K Li1 1_555 1_555
Li1B O2 1_555 1_555
Li1C O2M 1_555 1_555
C4M O1M 1_555 1_555

#END
