
#######################################################################
#
#                 Cambridge Crystallographic Data Centre
#                                CCDC 
#
#######################################################################
#
# If this CIF has been generated from an entry in the Cambridge 
# Structural Database, then it will include bibliographic, chemical, 
# crystal, experimental, refinement or atomic coordinate data resulting 
# from the CCDC's data processing and validation procedures.
#
#######################################################################

data_EVUVEX
_symmetry_cell_setting           orthorhombic
_symmetry_space_group_name_H-M   'F d d 2'
_symmetry_Int_Tables_number      43
_space_group_name_Hall           'F 2 -2d'
loop_
_symmetry_equiv_pos_site_id
_symmetry_equiv_pos_as_xyz
1 x,y,z
2 -x,-y,z
3 1/4-x,1/4+y,1/4+z
4 1/4+x,1/4-y,1/4+z
5 x,1/2+y,1/2+z
6 -x,1/2-y,1/2+z
7 1/4-x,3/4+y,3/4+z
8 1/4+x,3/4-y,3/4+z
9 1/2+x,y,1/2+z
10 1/2-x,-y,1/2+z
11 3/4-x,1/4+y,3/4+z
12 3/4+x,1/4-y,3/4+z
13 1/2+x,1/2+y,z
14 1/2-x,1/2-y,z
15 3/4-x,3/4+y,1/4+z
16 3/4+x,3/4-y,1/4+z
_cell_length_a                   14.0912(2)
_cell_length_b                   14.9035(2)
_cell_length_c                   12.5426(2)
_cell_angle_alpha                90
_cell_angle_beta                 90
_cell_angle_gamma                90
_cell_volume                     2634.05
loop_
_atom_site_label
_atom_site_type_symbol
_atom_site_fract_x
_atom_site_fract_y
_atom_site_fract_z
Br1 Br 0.0000 0.0000 0.08406(3)
O1 O 0.44299(10) 0.40639(9) 0.60439(12)
C1 C 0.51903(17) 0.20066(15) 0.40750(18)
H1 H 0.5810 0.2067 0.3728
H2 H 0.4691 0.2196 0.3580
H3 H 0.5088 0.1379 0.4277
C2 C 0.5952(2) 0.23651(17) 0.5790(2)
H4 H 0.5908 0.2745 0.6426
H5 H 0.6560 0.2472 0.5433
H6 H 0.5909 0.1733 0.6001
C3 C 0.4219(2) 0.25189(13) 0.5588(2)
H7 H 0.4218 0.1994 0.6073
H8 H 0.3721 0.2421 0.5043
C4 C 0.39823(14) 0.33598(12) 0.62237(15)
N1 N 0.51630(14) 0.25840(12) 0.50509(15)
H9 H 0.5243 0.3176 0.4833
O2 O 0.33055(10) 0.32729(9) 0.68709(12)
Li1 Li 0.5000 0.5000 0.5178(4)
O1G O 0.69299(10) 0.34361(9) 0.35439(12)
O1A O 0.55701(10) 0.59361(9) 0.60439(12)
C1G C 0.76903(17) 0.54934(15) 0.15750(18)
H1G H 0.8310 0.5433 0.1228
H2G H 0.7191 0.5304 0.1080
H3G H 0.7588 0.6121 0.1777
C2G C 0.8452(2) 0.51349(17) 0.3290(2)
H4G H 0.8408 0.4755 0.3926
H5G H 0.9060 0.5028 0.2933
H6G H 0.8409 0.5767 0.3501
C3G C 0.6719(2) 0.49811(13) 0.3088(2)
H7G H 0.6718 0.5506 0.3573
H8G H 0.6221 0.5079 0.2543
C4G C 0.64823(14) 0.41402(12) 0.37237(15)
N1G N 0.76630(14) 0.49160(12) 0.25509(15)
H9G H 0.7743 0.4324 0.2333
O2G O 0.58055(10) 0.42271(9) 0.43709(12)
O2J O 0.41945(10) 0.57729(9) 0.43709(12)
Li1N Li 0.2500 0.2500 0.7678(4)
Li1F Li 0.7500 0.2500 0.2678(4)
loop_
_geom_bond_atom_site_label_1
_geom_bond_atom_site_label_2
_geom_bond_site_symmetry_1
_geom_bond_site_symmetry_2
O1 C4 1_555 1_555
C1 H1 1_555 1_555
H2 C1 1_555 1_555
H3 C1 1_555 1_555
C2 H4 1_555 1_555
H5 C2 1_555 1_555
H6 C2 1_555 1_555
C3 H7 1_555 1_555
H8 C3 1_555 1_555
C4 C3 1_555 1_555
N1 C1 1_555 1_555
H9 N1 1_555 1_555
O2 C4 1_555 1_555
Li1 O1 1_555 1_555
O1G C4G 1_555 1_555
O1A Li1 1_555 1_555
C1G H1G 1_555 1_555
H2G C1G 1_555 1_555
H3G C1G 1_555 1_555
C2G H4G 1_555 1_555
H5G C2G 1_555 1_555
H6G C2G 1_555 1_555
C3G H7G 1_555 1_555
H8G C3G 1_555 1_555
C4G C3G 1_555 1_555
N1G C1G 1_555 1_555
H9G N1G 1_555 1_555
O2G Li1 1_555 1_555
O2J Li1 1_555 1_555
Li1N O2 1_555 1_555
Li1F O1G 1_555 1_555
C2 N1 1_555 1_555
C3 N1 1_555 1_555
C2G N1G 1_555 1_555
C3G N1G 1_555 1_555
C4G O2G 1_555 1_555

#END
