
#######################################################################
#
#                 Cambridge Crystallographic Data Centre
#                                CCDC 
#
#######################################################################
#
# If this CIF has been generated from an entry in the Cambridge 
# Structural Database, then it will include bibliographic, chemical, 
# crystal, experimental, refinement or atomic coordinate data resulting 
# from the CCDC's data processing and validation procedures.
#
#######################################################################

data_EVUVIB
_symmetry_cell_setting           tetragonal
_symmetry_space_group_name_H-M   'P 41 21 2'
_symmetry_Int_Tables_number      92
_space_group_name_Hall           'P 4abw 2nw'
loop_
_symmetry_equiv_pos_site_id
_symmetry_equiv_pos_as_xyz
1 x,y,z
2 -x,-y,1/2+z
3 1/2-y,1/2+x,1/4+z
4 1/2+y,1/2-x,3/4+z
5 1/2-x,1/2+y,1/4-z
6 1/2+x,1/2-y,3/4-z
7 y,x,-z
8 -y,-x,1/2-z
_cell_length_a                   9.1703(3)
_cell_length_b                   9.1703(3)
_cell_length_c                   15.5694(14)
_cell_angle_alpha                90
_cell_angle_beta                 90
_cell_angle_gamma                90
_cell_volume                     1309.3
loop_
_atom_site_label
_atom_site_type_symbol
_atom_site_fract_x
_atom_site_fract_y
_atom_site_fract_z
Br1 Br 0.80458(2) 0.80458(2) 0.0000
O1 O 0.45872(14) 0.27818(15) -0.08101(8)
O2 O 0.64925(13) 0.20628(17) -0.15934(8)
N1 N 0.82030(16) 0.16032(16) -0.01750(9)
H1 H 0.8092 0.0609 -0.0130
H2 H 0.8617 0.1816 -0.0699
C1 C 0.5893(2) 0.23778(19) -0.09019(12)
C2 C 0.67700(19) 0.23623(19) -0.00757(12)
H3 H 0.6191 0.1867 0.0384
C3 C 0.9116(2) 0.2178(2) 0.05405(12)
H4 H 1.0163 0.1978 0.0441
H5 H 0.8822 0.1751 0.1098
C4 C 0.8799(2) 0.3810(2) 0.05114(13)
H6 H 0.9443 0.4305 0.0093
H7 H 0.8939 0.4258 0.1084
C5 C 0.7192(2) 0.3911(2) 0.02297(12)
H8 H 0.7079 0.4624 -0.0243
H9 H 0.6568 0.4218 0.0716
Li1 Li 0.2996(3) 0.2996(3) 0.0000
O1F O 0.27818(15) 0.45872(14) 0.08101(8)
O2F O 0.20628(17) 0.64925(13) 0.15934(8)
O2B O 0.29372(17) 0.14925(13) 0.09066(8)
O2E O 0.14925(13) 0.29372(17) -0.09066(8)
N1F N 0.16032(16) 0.82030(16) 0.01750(9)
H1F H 0.0609 0.8092 0.0130
H2F H 0.1816 0.8617 0.0699
C1F C 0.23778(19) 0.5893(2) 0.09019(12)
C2F C 0.23623(19) 0.67700(19) 0.00757(12)
H3F H 0.1867 0.6191 -0.0384
C3F C 0.2178(2) 0.9116(2) -0.05405(12)
H4F H 0.1978 1.0163 -0.0441
H5F H 0.1751 0.8822 -0.1098
C4F C 0.3810(2) 0.8799(2) -0.05114(13)
H6F H 0.4305 0.9443 -0.0093
H7F H 0.4258 0.8939 -0.1084
C5F C 0.3911(2) 0.7192(2) -0.02297(12)
H8F H 0.4624 0.7079 0.0243
H9F H 0.4218 0.6568 -0.0716
Li1B Li 0.2004(3) 0.7996(3) 0.2500
Li1C Li 0.7996(3) 0.2004(3) -0.2500
loop_
_geom_bond_atom_site_label_1
_geom_bond_atom_site_label_2
_geom_bond_site_symmetry_1
_geom_bond_site_symmetry_2
O1 C1 1_555 1_555
O2 C1 1_555 1_555
N1 H1 1_555 1_555
H2 N1 1_555 1_555
C1 C2 1_555 1_555
C2 N1 1_555 1_555
H3 C2 1_555 1_555
C3 N1 1_555 1_555
H4 C3 1_555 1_555
H5 C3 1_555 1_555
C4 C3 1_555 1_555
H6 C4 1_555 1_555
H7 C4 1_555 1_555
C5 C2 1_555 1_555
H8 C5 1_555 1_555
H9 C5 1_555 1_555
Li1 O1 1_555 1_555
O1F Li1 1_555 1_555
O2F C1F 1_555 1_555
O2B Li1 1_555 1_555
O2E Li1 1_555 1_555
N1F H1F 1_555 1_555
H2F N1F 1_555 1_555
C1F O1F 1_555 1_555
C2F N1F 1_555 1_555
H3F C2F 1_555 1_555
C3F N1F 1_555 1_555
H4F C3F 1_555 1_555
H5F C3F 1_555 1_555
C4F C3F 1_555 1_555
H6F C4F 1_555 1_555
H7F C4F 1_555 1_555
C5F C2F 1_555 1_555
H8F C5F 1_555 1_555
H9F C5F 1_555 1_555
Li1B O2F 1_555 1_555
Li1C O2 1_555 1_555
C4 C5 1_555 1_555
C1F C2F 1_555 1_555
C4F C5F 1_555 1_555

#END
