
#######################################################################
#
#                 Cambridge Crystallographic Data Centre
#                                CCDC 
#
#######################################################################
#
# If this CIF has been generated from an entry in the Cambridge 
# Structural Database, then it will include bibliographic, chemical, 
# crystal, experimental, refinement or atomic coordinate data resulting 
# from the CCDC's data processing and validation procedures.
#
#######################################################################

data_EVUWEY
_symmetry_cell_setting           monoclinic
_symmetry_space_group_name_H-M   'P 21/c'
_symmetry_Int_Tables_number      14
_space_group_name_Hall           '-P 2ybc'
loop_
_symmetry_equiv_pos_site_id
_symmetry_equiv_pos_as_xyz
1 x,y,z
2 -x,1/2+y,1/2-z
3 -x,-y,-z
4 x,1/2-y,1/2+z
_cell_length_a                   16.0472(16)
_cell_length_b                   8.4767(10)
_cell_length_c                   10.8836(11)
_cell_angle_alpha                90
_cell_angle_beta                 103.731(6)
_cell_angle_gamma                90
_cell_volume                     1438.16
loop_
_atom_site_label
_atom_site_type_symbol
_atom_site_fract_x
_atom_site_fract_y
_atom_site_fract_z
C1 C 0.21826(10) 0.74323(14) 0.05944(15)
C2 C 0.30982(10) 0.74770(15) 0.03921(15)
H1 H 0.3170 0.6550 -0.0127
H2 H 0.3149 0.8429 -0.0112
O1 O 0.16286(7) 0.73691(11) -0.04226(10)
N1 N 0.38352(8) 0.74879(13) 0.15467(12)
O2 O 0.20658(7) 0.74584(11) 0.16875(10)
C3 C 0.38213(10) 0.89408(17) 0.23328(14)
H3 H 0.3839 0.9881 0.1816
H4 H 0.4321 0.8936 0.3054
H5 H 0.3295 0.8952 0.2641
C4 C 0.38339(10) 0.60307(17) 0.23349(14)
H6 H 0.4331 0.6051 0.3060
H7 H 0.3864 0.5093 0.1820
H8 H 0.3306 0.5998 0.2638
C5 C 0.46443(11) 0.75024(19) 0.10816(17)
H9 H 0.4655 0.8447 0.0567
H10 H 0.4664 0.6559 0.0569
H11 H 0.5142 0.7510 0.1806
C6 C 0.02742(9) 1.09628(16) 0.20959(14)
C7 C 0.04319(10) 1.24041(15) 0.13261(15)
H12 H -0.0056 1.2492 0.0577
H13 H 0.0423 1.3357 0.1849
O3 O 0.07502(7) 0.97811(12) 0.21788(10)
N2 N 0.12501(8) 1.24315(12) 0.08712(12)
O4 O -0.03548(6) 1.11192(12) 0.25785(10)
C8 C 0.20231(10) 1.2271(2) 0.19440(16)
H14 H 0.2543 1.2358 0.1623
H15 H 0.2013 1.1241 0.2349
H16 H 0.2020 1.3109 0.2563
C9 C 0.12455(10) 1.11549(17) -0.00832(15)
H17 H 0.1784 1.1187 -0.0360
H18 H 0.0762 1.1317 -0.0813
H19 H 0.1188 1.0126 0.0300
C10 C 0.12860(10) 1.40037(16) 0.02566(15)
H20 H 0.1317 1.4841 0.0887
H21 H 0.0770 1.4147 -0.0425
H22 H 0.1795 1.4050 -0.0093
Li1 Li 0.12288(16) 0.7733(3) 0.2719(2)
O1C O 0.16286(7) 0.76309(11) 0.45774(10)
O4A O 0.03548(6) 0.61192(12) 0.24215(10)
Li1A Li -0.12288(16) 1.2733(3) 0.2281(2)
Li1C Li 0.12288(16) 0.7267(3) -0.2281(2)
N3 N 0.36789(8) 0.24853(13) 0.99560(13)
O5 O 0.33932(9) 0.37542(13) 0.94542(12)
O6 O 0.42521(8) 0.24895(13) 1.09609(12)
O7 O 0.33979(8) 0.12074(13) 0.94563(11)
loop_
_geom_bond_atom_site_label_1
_geom_bond_atom_site_label_2
_geom_bond_site_symmetry_1
_geom_bond_site_symmetry_2
C1 C2 1_555 1_555
C2 H1 1_555 1_555
H2 C2 1_555 1_555
O1 C1 1_555 1_555
N1 C2 1_555 1_555
O2 C1 1_555 1_555
C3 N1 1_555 1_555
H3 C3 1_555 1_555
H4 C3 1_555 1_555
H5 C3 1_555 1_555
C4 N1 1_555 1_555
H6 C4 1_555 1_555
H7 C4 1_555 1_555
H8 C4 1_555 1_555
C5 N1 1_555 1_555
H9 C5 1_555 1_555
H10 C5 1_555 1_555
H11 C5 1_555 1_555
C6 C7 1_555 1_555
C7 H12 1_555 1_555
H13 C7 1_555 1_555
O3 C6 1_555 1_555
N2 C7 1_555 1_555
O4 C6 1_555 1_555
C8 N2 1_555 1_555
H14 C8 1_555 1_555
H15 C8 1_555 1_555
H16 C8 1_555 1_555
C9 N2 1_555 1_555
H17 C9 1_555 1_555
H18 C9 1_555 1_555
H19 C9 1_555 1_555
C10 N2 1_555 1_555
H20 C10 1_555 1_555
H21 C10 1_555 1_555
H22 C10 1_555 1_555
Li1 O2 1_555 1_555
N3 O5 1_555 1_555
O6 N3 1_555 1_555
O7 N3 1_555 1_555
O1C Li1 1_555 1_555
O4A Li1 1_555 1_555
Li1A O4 1_555 1_555
Li1C O1 1_555 1_555
O3 Li1 1_555 1_555

#END
