
#######################################################################
#
#                 Cambridge Crystallographic Data Centre
#                                CCDC 
#
#######################################################################
#
# If this CIF has been generated from an entry in the Cambridge 
# Structural Database, then it will include bibliographic, chemical, 
# crystal, experimental, refinement or atomic coordinate data resulting 
# from the CCDC's data processing and validation procedures.
#
#######################################################################

data_EVUWOI
_symmetry_cell_setting           orthorhombic
_symmetry_space_group_name_H-M   'P 21 21 21'
_symmetry_Int_Tables_number      19
_space_group_name_Hall           'P 2ac 2ab'
loop_
_symmetry_equiv_pos_site_id
_symmetry_equiv_pos_as_xyz
1 x,y,z
2 1/2+x,1/2-y,-z
3 -x,1/2+y,1/2-z
4 1/2-x,-y,1/2+z
_cell_length_a                   9.5219(9)
_cell_length_b                   9.5664(9)
_cell_length_c                   15.0812(12)
_cell_angle_alpha                90
_cell_angle_beta                 90
_cell_angle_gamma                90
_cell_volume                     1373.75
loop_
_atom_site_label
_atom_site_type_symbol
_atom_site_fract_x
_atom_site_fract_y
_atom_site_fract_z
O1 O 1.0989(5) 0.7837(4) 0.8554(3)
O2 O 1.1649(4) 0.5693(4) 0.8648(4)
O3 O 0.9487(4) 0.6225(5) 0.8947(3)
N1 N 1.0689(5) 0.6593(5) 0.8728(3)
O4 O 0.9795(4) 0.9176(3) 0.2908(2)
O5 O 0.8010(4) 0.7566(4) 0.4532(2)
O6 O 0.6077(4) 0.7298(4) 0.5354(2)
O7 O 1.0271(4) 1.1080(4) 0.2107(2)
N2 N 0.4398(5) 0.6949(4) 0.3889(3)
H1 H 0.4429 0.5993 0.3829
H2 H 0.4025 0.7165 0.4435
N3 N 1.0849(4) 1.2638(4) 0.3579(2)
H3 H 1.0666 1.3032 0.3035
H4 H 1.1803 1.2515 0.3636
C1 C 0.8738(6) 1.3245(6) 0.4257(3)
H5 H 0.8289 1.3822 0.3792
H6 H 0.8278 1.3442 0.4832
C2 C 0.8638(6) 1.1680(6) 0.4026(3)
H7 H 0.8400 1.1124 0.4559
H8 H 0.7910 1.1518 0.3568
C3 C 1.0099(5) 1.1278(5) 0.3674(3)
H9 H 1.0590 1.0705 0.4134
C4 C 0.6703(5) 0.7452(6) 0.4630(3)
C5 C 0.5836(5) 0.7571(6) 0.3787(3)
H10 H 0.6339 0.7100 0.3288
C6 C 0.5502(6) 0.9085(6) 0.3531(3)
H11 H 0.6120 0.9397 0.3041
H12 H 0.5642 0.9714 0.4044
C7 C 0.3929(7) 0.9103(6) 0.3229(3)
H13 H 0.3332 0.9588 0.3669
H14 H 0.3824 0.9569 0.2647
C8 C 0.3557(6) 0.7586(7) 0.3169(3)
H15 H 0.2540 0.7438 0.3267
H16 H 0.3820 0.7194 0.2585
C9 C 1.0299(6) 1.3542(6) 0.4307(3)
H17 H 1.0504 1.4542 0.4196
H18 H 1.0693 1.3269 0.4889
C10 C 1.0060(5) 1.0456(5) 0.2815(3)
Li1 Li 0.9611(8) 0.7624(9) 0.3740(6)
O6A O 1.1077(4) 0.7702(4) 0.4646(2)
O7B O 0.9729(4) 0.6080(4) 0.2893(2)
Li1A Li 0.4611(8) 0.7376(9) 0.6260(6)
Li1B Li 1.0389(8) 1.2624(9) 0.1260(6)
loop_
_geom_bond_atom_site_label_1
_geom_bond_atom_site_label_2
_geom_bond_site_symmetry_1
_geom_bond_site_symmetry_2
O1 N1 1_555 1_555
O2 N1 1_555 1_555
O3 N1 1_555 1_555
O4 C10 1_555 1_555
O5 C4 1_555 1_555
O6 C4 1_555 1_555
O7 C10 1_555 1_555
N2 H1 1_555 1_555
H2 N2 1_555 1_555
N3 H3 1_555 1_555
H4 N3 1_555 1_555
C1 H5 1_555 1_555
H6 C1 1_555 1_555
C2 C1 1_555 1_555
H7 C2 1_555 1_555
H8 C2 1_555 1_555
C3 N3 1_555 1_555
H9 C3 1_555 1_555
C4 C5 1_555 1_555
C5 N2 1_555 1_555
H10 C5 1_555 1_555
C6 C5 1_555 1_555
H11 C6 1_555 1_555
H12 C6 1_555 1_555
C7 C6 1_555 1_555
H13 C7 1_555 1_555
H14 C7 1_555 1_555
C8 N2 1_555 1_555
H15 C8 1_555 1_555
H16 C8 1_555 1_555
C9 N3 1_555 1_555
H17 C9 1_555 1_555
H18 C9 1_555 1_555
C10 C3 1_555 1_555
Li1 O4 1_555 1_555
O6A Li1 1_555 1_555
O7B Li1 1_555 1_555
Li1A O6 1_555 1_555
Li1B O7 1_555 1_555
O5 Li1 1_555 1_555
C1 C9 1_555 1_555
C2 C3 1_555 1_555
C7 C8 1_555 1_555

#END
