
#######################################################################
#
#                 Cambridge Crystallographic Data Centre
#                                CCDC 
#
#######################################################################
#
# If this CIF has been generated from an entry in the Cambridge 
# Structural Database, then it will include bibliographic, chemical, 
# crystal, experimental, refinement or atomic coordinate data resulting 
# from the CCDC's data processing and validation procedures.
#
#######################################################################

data_EVUWAU
_symmetry_cell_setting           orthorhombic
_symmetry_space_group_name_H-M   'P b c a'
_symmetry_Int_Tables_number      61
_space_group_name_Hall           '-P 2ac 2ab'
loop_
_symmetry_equiv_pos_site_id
_symmetry_equiv_pos_as_xyz
1 x,y,z
2 1/2-x,-y,1/2+z
3 -x,1/2+y,1/2-z
4 1/2+x,1/2-y,-z
5 -x,-y,-z
6 1/2+x,y,1/2-z
7 x,1/2-y,1/2+z
8 1/2-x,1/2+y,z
_cell_length_a                   9.5197(1)
_cell_length_b                   9.9275(1)
_cell_length_c                   21.7783(2)
_cell_angle_alpha                90
_cell_angle_beta                 90
_cell_angle_gamma                90
_cell_volume                     2058.2
loop_
_atom_site_label
_atom_site_type_symbol
_atom_site_fract_x
_atom_site_fract_y
_atom_site_fract_z
Cl1 Cl 0.26474(4) 0.24975(3) 0.193811(15)
C1 C 1.16569(14) 0.43172(14) 0.36293(6)
C2 C 1.09227(15) 0.50516(13) 0.31034(6)
H1 H 1.0145 0.5604 0.3270
H2 H 1.1598 0.5664 0.2900
C3 C 0.97646(16) 0.47615(16) 0.20945(7)
H3 H 0.9022 0.5387 0.2220
H4 H 0.9372 0.4083 0.1816
H5 H 1.0510 0.5261 0.1883
N1 N 1.03551(13) 0.40854(12) 0.26450(5)
O1 O 1.17037(11) 0.30675(9) 0.36061(4)
O2 O 1.21601(11) 0.50612(9) 0.40432(5)
C4 C 0.90583(14) 0.11414(13) 0.44957(6)
H6 H 0.9012 0.1678 0.4113
H7 H 0.9541 0.0283 0.4401
C5 C 0.98984(14) 0.19106(14) 0.49755(6)
C6 C 0.68043(16) 0.00088(14) 0.42735(7)
H8 H 0.6769 0.0460 0.3874
H9 H 0.5847 -0.0121 0.4428
H10 H 0.7265 -0.0868 0.4229
O3 O 1.12110(10) 0.19153(10) 0.48925(4)
Li1 Li 1.2559(2) 0.1926(2) 0.42087(11)
N2 N 0.76109(12) 0.08527(13) 0.47134(5)
O4 O 0.92673(10) 0.24728(9) 0.54023(5)
H11 H 1.108(2) 0.3489(18) 0.2522(8)
H12 H 0.9685(19) 0.3573(18) 0.2811(8)
H13 H 0.7162(19) 0.164(2) 0.4772(8)
H14 H 0.7666(19) 0.049(2) 0.5097(9)
O2G O 1.28399(11) 0.00612(9) 0.40432(5)
Li1C Li 0.7559(2) 0.3074(2) 0.57913(11)
Li1G Li 1.2441(2) 0.6926(2) 0.42087(11)
O4C O 1.42673(10) 0.25272(9) 0.45977(5)
loop_
_geom_bond_atom_site_label_1
_geom_bond_atom_site_label_2
_geom_bond_site_symmetry_1
_geom_bond_site_symmetry_2
C1 C2 1_555 1_555
C2 H1 1_555 1_555
H2 C2 1_555 1_555
C3 H3 1_555 1_555
H4 C3 1_555 1_555
H5 C3 1_555 1_555
N1 C2 1_555 1_555
O1 C1 1_555 1_555
O2 C1 1_555 1_555
C4 H6 1_555 1_555
H7 C4 1_555 1_555
C5 C4 1_555 1_555
C6 H8 1_555 1_555
H9 C6 1_555 1_555
H10 C6 1_555 1_555
O3 C5 1_555 1_555
Li1 O1 1_555 1_555
N2 C4 1_555 1_555
O4 C5 1_555 1_555
H11 N1 1_555 1_555
H12 N1 1_555 1_555
H13 N2 1_555 1_555
H14 N2 1_555 1_555
O2G Li1 1_555 1_555
Li1C O4 1_555 1_555
Li1G O2 1_555 1_555
O4C Li1 1_555 1_555
C3 N1 1_555 1_555
C6 N2 1_555 1_555
O3 Li1 1_555 1_555

#END
