
#######################################################################
#
#                 Cambridge Crystallographic Data Centre
#                                CCDC 
#
#######################################################################
#
# If this CIF has been generated from an entry in the Cambridge 
# Structural Database, then it will include bibliographic, chemical, 
# crystal, experimental, refinement or atomic coordinate data resulting 
# from the CCDC's data processing and validation procedures.
#
#######################################################################

data_EVUWIB
_symmetry_cell_setting           orthorhombic
_symmetry_space_group_name_H-M   'P 21 21 21'
_symmetry_Int_Tables_number      19
_space_group_name_Hall           'P 2ac 2ab'
loop_
_symmetry_equiv_pos_site_id
_symmetry_equiv_pos_as_xyz
1 x,y,z
2 1/2-x,-y,1/2+z
3 -x,1/2+y,1/2-z
4 1/2+x,1/2-y,-z
_cell_length_a                   5.0349(2)
_cell_length_b                   9.4539(4)
_cell_length_c                   18.6092(8)
_cell_angle_alpha                90
_cell_angle_beta                 90
_cell_angle_gamma                90
_cell_volume                     885.788
loop_
_atom_site_label
_atom_site_type_symbol
_atom_site_fract_x
_atom_site_fract_y
_atom_site_fract_z
Zn1 Zn 0.68808(4) 0.39502(2) 0.440789(12)
P1 P 0.19409(10) 0.22344(4) 0.40401(2)
H1 H 0.0955 0.1923 0.3402
O1 O 0.4936(3) 0.24126(13) 0.39493(8)
O2 O 0.1333(3) 0.09868(13) 0.45370(7)
O3 O 0.0643(3) 0.36019(13) 0.42830(8)
O4 O 0.5721(3) 0.57917(12) 0.40603(8)
O5 O 0.9143(3) 0.69520(14) 0.45533(8)
O6 O 0.3592(3) 0.97141(19) 0.26602(10)
N1 N 0.6669(3) 0.94579(14) 0.43404(8)
H2 H 0.8425 0.9543 0.4375
H3 H 0.5984 0.9303 0.4774
H4 H 0.5989 1.0250 0.4159
N2 N 0.7662(4) 1.0158(2) 0.21968(10)
H5 H 0.7060 1.0764 0.1893
H6 H 0.9334 0.9973 0.2211
C1 C 0.7080(4) 0.68965(17) 0.42055(9)
C2 C 0.6015(4) 0.82496(17) 0.38603(10)
H7 H 0.4084 0.8179 0.3804
C3 C 0.7307(4) 0.8409(2) 0.31273(10)
H8 H 0.7258 0.7501 0.2885
H9 H 0.9158 0.8661 0.3195
C4 C 0.6013(4) 0.9510(2) 0.26445(10)
O2C O 0.6333(3) 0.40132(13) 0.54630(7)
O3_2 O 1.0643(3) 0.36019(13) 0.42830(8)
Zn1C Zn 0.18808(4) 0.10498(2) 0.559211(12)
Zn1_2 Zn -0.31192(4) 0.39502(2) 0.440789(12)
loop_
_geom_bond_atom_site_label_1
_geom_bond_atom_site_label_2
_geom_bond_site_symmetry_1
_geom_bond_site_symmetry_2
Zn1 O1 1_555 1_555
P1 H1 1_555 1_555
O1 P1 1_555 1_555
O2 P1 1_555 1_555
O3 P1 1_555 1_555
O4 Zn1 1_555 1_555
O5 C1 1_555 1_555
O6 C4 1_555 1_555
N1 H2 1_555 1_555
H3 N1 1_555 1_555
H4 N1 1_555 1_555
N2 H5 1_555 1_555
H6 N2 1_555 1_555
C1 O4 1_555 1_555
C2 N1 1_555 1_555
H7 C2 1_555 1_555
C3 C2 1_555 1_555
H8 C3 1_555 1_555
H9 C3 1_555 1_555
C4 N2 1_555 1_555
O2C Zn1 1_555 1_555
O3_2 Zn1 1_555 1_555
Zn1C O2 1_555 1_555
Zn1_2 O3 1_555 1_555
C1 C2 1_555 1_555
C3 C4 1_555 1_555

#END
