
#######################################################################
#
#                 Cambridge Crystallographic Data Centre
#                                CCDC 
#
#######################################################################
#
# If this CIF has been generated from an entry in the Cambridge 
# Structural Database, then it will include bibliographic, chemical, 
# crystal, experimental, refinement or atomic coordinate data resulting 
# from the CCDC's data processing and validation procedures.
#
#######################################################################

data_EVUWIC
_symmetry_cell_setting           orthorhombic
_symmetry_space_group_name_H-M   'P 21 21 21'
_symmetry_Int_Tables_number      19
_space_group_name_Hall           'P 2ac 2ab'
loop_
_symmetry_equiv_pos_site_id
_symmetry_equiv_pos_as_xyz
1 x,y,z
2 1/2-x,-y,1/2+z
3 -x,1/2+y,1/2-z
4 1/2+x,1/2-y,-z
_cell_length_a                   11.0448(3)
_cell_length_b                   12.0393(3)
_cell_length_c                   20.2019(5)
_cell_angle_alpha                90
_cell_angle_beta                 90
_cell_angle_gamma                90
_cell_volume                     2686.28
loop_
_atom_site_label
_atom_site_type_symbol
_atom_site_fract_x
_atom_site_fract_y
_atom_site_fract_z
Li1 Li 0.2326(3) 0.8275(3) 0.37014(16)
Li2 Li 0.2678(3) 1.1244(3) 0.12974(16)
O1 O 0.25355(12) 1.05190(12) 0.21403(7)
O2 O 0.56943(12) 0.68626(12) 0.37821(6)
O3 O 0.24142(12) 0.92016(11) 0.29164(7)
O5 O 0.25275(12) 0.88761(11) 0.45709(7)
O6 O -0.12708(12) 0.72223(12) 0.36572(7)
O7 O 0.37964(11) 0.73813(11) 0.35512(6)
O8 O 0.06072(12) 0.78557(12) 0.38070(7)
O9 O 0.25381(12) 0.97480(11) 0.55449(6)
C1 C 0.28887(16) 0.96097(16) 0.49640(10)
C2 C 0.5512(2) 0.99081(19) 0.25070(12)
H1 H 0.4893 1.0378 0.2725
H2 H 0.6159 1.0392 0.2328
C3 C -0.19499(18) 0.89029(17) 0.46517(10)
H3 H -0.2377 0.8913 0.5082
H4 H -0.2524 0.8675 0.4301
C4 C 0.20336(17) 1.00479(16) 0.26145(9)
C5 C 0.51426(17) 0.98954(17) 0.48636(10)
H5 H 0.5771 1.0228 0.4575
H6 H 0.5157 0.9078 0.4809
C6 C 0.08275(17) 1.05112(16) 0.28567(9)
H7 H 0.0790 1.0463 0.3350
C7 C 0.38907(17) 1.03642(16) 0.47003(9)
H8 H 0.3800 1.0484 0.4213
C8 C 0.49019(17) 0.73427(15) 0.34319(9)
C9 C 0.53435(18) 1.02222(17) 0.55912(10)
H9 H 0.5008 0.9651 0.5892
H10 H 0.6217 1.0313 0.5686
C10 C -0.02435(19) 1.00399(17) 0.49234(10)
H11 H 0.0404 1.0482 0.4710
H12 H -0.0411 1.0354 0.5367
C11 C 0.54097(17) 0.79353(17) 0.28264(9)
H13 H 0.6007 0.7437 0.2602
C12 C -0.04602(17) 0.77067(16) 0.39870(9)
C13 C -0.06623(17) 1.19132(17) 0.27414(10)
H14 H -0.0931 1.2548 0.2467
H15 H -0.0844 1.2075 0.3211
C14 C 0.46728(18) 1.13251(17) 0.56743(10)
H16 H 0.4164 1.1312 0.6078
H17 H 0.5254 1.1948 0.5710
C15 C -0.08565(17) 0.81356(16) 0.46732(9)
H18 H -0.1034 0.7490 0.4969
C16 C -0.1390(2) 1.00325(18) 0.44982(10)
H19 H -0.1942 1.0644 0.4625
H20 H -0.1190 1.0100 0.4022
C17 C 0.60389(19) 0.90504(18) 0.29983(11)
H21 H 0.5861 0.9270 0.3461
H22 H 0.6927 0.8987 0.2944
C18 C -0.12771(18) 1.08358(18) 0.25202(11)
H23 H -0.1590 1.0909 0.2063
H24 H -0.1960 1.0650 0.2818
C19 C -0.02866(17) 0.99292(17) 0.25546(10)
H25 H -0.0552 0.9303 0.2838
H26 H -0.0099 0.9641 0.2107
C20 C 0.49536(19) 0.92130(18) 0.19654(10)
H27 H 0.4308 0.9626 0.1731
H28 H 0.5571 0.8968 0.1641
N1 N 0.06578(14) 1.16908(13) 0.26452(8)
H29 H 0.0873 1.1782 0.2209
H30 H 0.1118 1.2161 0.2901
N4 N 0.38952(14) 1.14514(13) 0.50638(8)
H31 H 0.3118 1.1643 0.5182
H32 H 0.4202 1.2002 0.4796
N5 N 0.01192(14) 0.88292(13) 0.49743(8)
H33 H 0.0838 0.8713 0.4755
H34 H 0.0225 0.8636 0.5411
N6 N 0.44495(15) 0.82555(14) 0.23409(8)
H35 H 0.4280 0.7674 0.2061
H36 H 0.3750 0.8457 0.2557
Li2B Li 0.7322(3) 0.6244(3) 0.37026(16)
Li2B_2 Li -0.2678(3) 0.6244(3) 0.37026(16)
Li2A Li 0.2322(3) 0.8756(3) 0.62974(16)
O2B O 0.43057(12) 1.18626(12) 0.12179(6)
O6B O 0.12708(12) 1.22223(12) 0.13428(7)
O9A O 0.24619(12) 1.02520(11) 0.05449(6)
O4 O 0.27331(13) 0.75105(14) 0.12989(7)
O12 O 0.45782(13) 0.69574(14) 0.11637(8)
O14 O 0.35570(16) 0.75770(14) 0.03291(7)
N2 N 0.36167(15) 0.73468(14) 0.09280(8)
O10 O 0.78208(14) 0.68492(12) 0.10960(7)
O11 O 0.79271(13) 0.83267(12) 0.17114(7)
O13 O 0.68982(13) 0.83618(13) 0.07936(7)
N3 N 0.75379(14) 0.78478(14) 0.11939(8)
loop_
_geom_bond_atom_site_label_1
_geom_bond_atom_site_label_2
_geom_bond_site_symmetry_1
_geom_bond_site_symmetry_2
Li1 O3 1_555 1_555
Li2 O1 1_555 1_555
O1 C4 1_555 1_555
O2 C8 1_555 1_555
O3 C4 1_555 1_555
O4 N2 1_555 1_555
O5 Li1 1_555 1_555
O6 C12 1_555 1_555
O7 Li1 1_555 1_555
O8 Li1 1_555 1_555
O9 C1 1_555 1_555
O10 N3 1_555 1_555
O11 N3 1_555 1_555
O12 N2 1_555 1_555
O13 N3 1_555 1_555
O14 N2 1_555 1_555
C1 O5 1_555 1_555
C2 H1 1_555 1_555
H2 C2 1_555 1_555
C3 H3 1_555 1_555
H4 C3 1_555 1_555
C4 C6 1_555 1_555
C5 H5 1_555 1_555
H6 C5 1_555 1_555
C6 H7 1_555 1_555
C7 C1 1_555 1_555
H8 C7 1_555 1_555
C8 O7 1_555 1_555
C9 C5 1_555 1_555
H9 C9 1_555 1_555
H10 C9 1_555 1_555
C10 H11 1_555 1_555
H12 C10 1_555 1_555
C11 C8 1_555 1_555
H13 C11 1_555 1_555
C12 O8 1_555 1_555
C13 H14 1_555 1_555
H15 C13 1_555 1_555
C14 C9 1_555 1_555
H16 C14 1_555 1_555
H17 C14 1_555 1_555
C15 C3 1_555 1_555
H18 C15 1_555 1_555
C16 C3 1_555 1_555
H19 C16 1_555 1_555
H20 C16 1_555 1_555
C17 C2 1_555 1_555
H21 C17 1_555 1_555
H22 C17 1_555 1_555
C18 C13 1_555 1_555
H23 C18 1_555 1_555
H24 C18 1_555 1_555
C19 C6 1_555 1_555
H25 C19 1_555 1_555
H26 C19 1_555 1_555
C20 C2 1_555 1_555
H27 C20 1_555 1_555
H28 C20 1_555 1_555
N1 C6 1_555 1_555
H29 N1 1_555 1_555
H30 N1 1_555 1_555
N4 C7 1_555 1_555
H31 N4 1_555 1_555
H32 N4 1_555 1_555
N5 C10 1_555 1_555
H33 N5 1_555 1_555
H34 N5 1_555 1_555
N6 C11 1_555 1_555
H35 N6 1_555 1_555
H36 N6 1_555 1_555
Li2B O2 1_555 1_555
Li2B_2 O6 1_555 1_555
Li2A O9 1_555 1_555
O2B Li2 1_555 1_555
O6B Li2 1_555 1_555
O9A Li2 1_555 1_555
C5 C7 1_555 1_555
C10 C16 1_555 1_555
C11 C17 1_555 1_555
C12 C15 1_555 1_555
C13 N1 1_555 1_555
C14 N4 1_555 1_555
C15 N5 1_555 1_555
C18 C19 1_555 1_555
C20 N6 1_555 1_555

#END
