
#######################################################################
#
#                 Cambridge Crystallographic Data Centre
#                                CCDC 
#
#######################################################################
#
# If this CIF has been generated from an entry in the Cambridge 
# Structural Database, then it will include bibliographic, chemical, 
# crystal, experimental, refinement or atomic coordinate data resulting 
# from the CCDC's data processing and validation procedures.
#
#######################################################################

data_EWADAH
_symmetry_cell_setting           orthorhombic
_symmetry_space_group_name_H-M   'P 21 21 21'
_symmetry_Int_Tables_number      19
_space_group_name_Hall           'P 2ac 2ab'
loop_
_symmetry_equiv_pos_site_id
_symmetry_equiv_pos_as_xyz
1 x,y,z
2 1/2-x,-y,1/2+z
3 1/2+x,1/2-y,-z
4 -x,1/2+y,1/2-z
_cell_length_a                   20.267(2)
_cell_length_b                   11.8091(19)
_cell_length_c                   4.9108(5)
_cell_angle_alpha                90
_cell_angle_beta                 90
_cell_angle_gamma                90
_cell_volume                     1175.33
loop_
_atom_site_label
_atom_site_type_symbol
_atom_site_fract_x
_atom_site_fract_y
_atom_site_fract_z
K1 K -0.007715(15) 0.96087(3) 0.10995(7)
P1 P -0.377040(18) 1.31447(3) -0.19810(8)
O1 O -0.12938(5) 1.03676(9) -0.1138(2)
O2 O -0.02056(5) 1.09719(11) -0.4235(3)
H1 H 0.0091(11) 1.1277(19) -0.439(5)
O3 O -0.00817(5) 1.31999(11) -0.2031(3)
H2 H 0.0156(10) 1.3076(18) -0.086(4)
O4 O -0.11935(6) 1.38818(10) 0.1317(2)
H3 H -0.1245(10) 1.452(2) 0.100(4)
O5 O -0.19153(5) 1.17759(9) -0.3346(2)
O6 O -0.30680(5) 1.26378(9) -0.1254(3)
O7 O -0.39229(6) 1.40508(10) 0.0294(2)
H4 H -0.3839(10) 1.3932(19) 0.189(5)
O8 O -0.42383(5) 1.21732(10) -0.1880(3)
O9 O -0.37499(6) 1.38132(10) -0.4580(2)
C1 C -0.13690(7) 1.10299(13) -0.3498(3)
H5 H -0.1453(9) 1.0562(17) -0.510(4)
C2 C -0.07465(7) 1.17278(12) -0.3890(3)
H6 H -0.0821(9) 1.2186(16) -0.555(4)
C3 C -0.06460(7) 1.25208(13) -0.1501(3)
H7 H -0.0581(9) 1.2097(16) 0.018(4)
C4 C -0.12520(7) 1.32760(12) -0.1170(3)
H8 H -0.1281(9) 1.3762(18) -0.272(4)
C5 C -0.18879(7) 1.25646(12) -0.1120(3)
H9 H -0.1915(9) 1.2190(16) 0.059(4)
C6 C -0.24826(7) 1.33220(13) -0.1481(4)
H10 H -0.2484(10) 1.3654(18) -0.333(4)
H11 H -0.2496(9) 1.3939(17) 0.012(4)
C7 C -0.18148(8) 0.95439(14) -0.0858(4)
H12 H -0.2263(10) 0.9901(18) -0.080(4)
H13 H -0.1746(10) 0.9156(19) 0.086(5)
H14 H -0.1815(10) 0.904(2) -0.240(5)
O2_2 O -0.02056(5) 1.09719(11) 0.5765(3)
O3C O 0.00817(5) 0.81999(11) -0.2969(3)
O4C O 0.11935(6) 0.88818(10) 0.3683(2)
O7B O 0.10771(6) 1.09492(10) -0.0294(2)
O8A O -0.07617(5) 0.78268(10) 0.3120(3)
K1_2 K -0.007715(15) 0.96087(3) -0.89005(7)
K1C K 0.007715(15) 1.46087(3) -0.60995(7)
K1C_2 K 0.007715(15) 1.46087(3) 0.39005(7)
K1B K -0.507715(15) 1.53913(3) -0.10995(7)
K1A K -0.492285(15) 1.03913(3) -0.39005(7)
H1_2 H 0.0091(11) 1.1277(19) 0.561(5)
H2C H -0.0156(10) 0.8076(18) -0.414(4)
H3C H 0.1245(10) 0.952(2) 0.400(4)
H4B H 0.1161(10) 1.1068(19) -0.189(5)
loop_
_geom_bond_atom_site_label_1
_geom_bond_atom_site_label_2
_geom_bond_site_symmetry_1
_geom_bond_site_symmetry_2
K1 O1 1_555 1_555
P1 O6 1_555 1_555
O1 C1 1_555 1_555
O2 H1 1_555 1_555
O3 H2 1_555 1_555
O4 H3 1_555 1_555
O5 C1 1_555 1_555
O6 C6 1_555 1_555
O7 P1 1_555 1_555
H4 O7 1_555 1_555
O8 P1 1_555 1_555
O9 P1 1_555 1_555
C1 H5 1_555 1_555
C2 O2 1_555 1_555
H6 C2 1_555 1_555
C3 O3 1_555 1_555
H7 C3 1_555 1_555
C4 O4 1_555 1_555
H8 C4 1_555 1_555
C5 O5 1_555 1_555
H9 C5 1_555 1_555
C6 C5 1_555 1_555
H10 C6 1_555 1_555
H11 C6 1_555 1_555
C7 O1 1_555 1_555
H12 C7 1_555 1_555
H13 C7 1_555 1_555
H14 C7 1_555 1_555
O2_2 K1 1_555 1_555
O3C K1 1_555 1_555
O4C K1 1_555 1_555
O7B K1 1_555 1_555
O8A K1 1_555 1_555
K1_2 O2 1_555 1_555
K1C O3 1_555 1_555
K1C_2 O4 1_555 1_555
K1B O7 1_555 1_555
K1A O8 1_555 1_555
H1_2 O2_2 1_555 1_555
H2C O3C 1_555 1_555
H3C O4C 1_555 1_555
H4B O7B 1_555 1_555
C1 C2 1_555 1_555
C2 C3 1_555 1_555
C3 C4 1_555 1_555
C4 C5 1_555 1_555

#END
