
#######################################################################
#
#                 Cambridge Crystallographic Data Centre
#                                CCDC 
#
#######################################################################
#
# If this CIF has been generated from an entry in the Cambridge 
# Structural Database, then it will include bibliographic, chemical, 
# crystal, experimental, refinement or atomic coordinate data resulting 
# from the CCDC's data processing and validation procedures.
#
#######################################################################

data_EWAGEP01
_symmetry_cell_setting           triclinic
_symmetry_space_group_name_H-M   'P -1'
_symmetry_Int_Tables_number      2
_space_group_name_Hall           '-P 1'
loop_
_symmetry_equiv_pos_site_id
_symmetry_equiv_pos_as_xyz
1 x,y,z
2 -x,-y,-z
_cell_length_a                   11.7410(6)
_cell_length_b                   12.1271(7)
_cell_length_c                   13.8360(8)
_cell_angle_alpha                114.181(3)
_cell_angle_beta                 101.169(3)
_cell_angle_gamma                92.240(4)
_cell_volume                     1747.63
loop_
_atom_site_label
_atom_site_type_symbol
_atom_site_fract_x
_atom_site_fract_y
_atom_site_fract_z
Fe1 Fe 0.26990(5) 0.50059(6) 0.78329(5)
O1 O 0.1613(3) 0.3946(3) 0.8159(2)
O2 O 0.4082(3) 0.5809(3) 0.9113(2)
O3 O -0.1855(3) 0.2363(4) 0.6555(3)
O4 O 0.6167(4) 0.9081(3) 1.0115(3)
N1 N 0.1531(3) 0.4404(3) 0.6316(3)
N2 N 0.3565(3) 0.5888(3) 0.7107(3)
N3 N 0.1689(3) 0.6572(3) 0.8574(3)
N4 N 0.3620(3) 0.3394(3) 0.7089(3)
N5 N -0.0208(4) 0.9495(4) 0.9933(4)
N6 N 0.5294(3) 0.0507(4) 0.5260(3)
C1 C 0.4899(4) 0.6673(4) 0.9391(4)
C2 C 0.5060(4) 0.7250(4) 0.8700(4)
C3 C 0.4421(4) 0.6795(4) 0.7596(4)
H1 H 0.4636 0.7186 0.7175
C4 C 0.3070(4) 0.5477(4) 0.5981(3)
C5 C 0.3636(4) 0.5700(4) 0.5263(4)
H2 H 0.4402 0.6138 0.5520
C6 C 0.3068(5) 0.5273(5) 0.4167(4)
H3 H 0.3447 0.5428 0.3679
C7 C 0.1961(5) 0.4630(5) 0.3790(4)
H4 H 0.1570 0.4371 0.3049
C8 C 0.1414(4) 0.4357(5) 0.4474(4)
H5 H 0.0656 0.3898 0.4196
C9 C 0.1956(4) 0.4744(4) 0.5573(4)
C10 C 0.0528(4) 0.3687(4) 0.5998(4)
H6 H 0.0080 0.3501 0.5287
C11 C 0.0046(4) 0.3161(4) 0.6604(4)
C12 C 0.0622(4) 0.3309(4) 0.7663(4)
C13 C 0.0144(5) 0.2695(5) 0.8290(4)
H7 H 0.0779 0.2375 0.8628
H8 H -0.0469 0.2023 0.7790
H9 H -0.0185 0.3290 0.8856
C14 C 0.5704(5) 0.7006(5) 1.0485(4)
H10 H 0.5440 0.7685 1.1042
H11 H 0.6503 0.7250 1.0467
H12 H 0.5695 0.6301 1.0660
C15 C -0.1099(4) 0.2416(4) 0.6055(4)
C16 C -0.1363(5) 0.1689(5) 0.4855(4)
C17 C -0.0521(5) 0.1116(5) 0.4324(5)
H13 H 0.0260 0.1220 0.4727
C18 C -0.0806(7) 0.0387(7) 0.3199(6)
H14 H -0.0224 -0.0005 0.2841
C19 C -0.1947(8) 0.0240(6) 0.2614(6)
H15 H -0.2142 -0.0249 0.1850
C20 C -0.2785(7) 0.0787(6) 0.3120(6)
H16 H -0.3563 0.0676 0.2710
C21 C -0.2512(5) 0.1517(5) 0.4246(5)
H17 H -0.3105 0.1895 0.4596
C22 C 0.5838(4) 0.8417(5) 0.9138(4)
C23 C 0.6243(4) 0.8852(5) 0.8369(4)
C24 C 0.6835(5) 0.8171(6) 0.7606(5)
H18 H 0.6930 0.7356 0.7494
C25 C 0.7294(6) 0.8667(7) 0.7000(6)
H19 H 0.7713 0.8194 0.6484
C26 C 0.7147(6) 0.9840(6) 0.7138(5)
H20 H 0.7463 1.0179 0.6722
C27 C 0.6545(6) 1.0505(6) 0.7877(5)
H21 H 0.6429 1.1307 0.7963
C28 C 0.6099(5) 1.0040(5) 0.8505(5)
H22 H 0.5695 1.0527 0.9029
C29 C 0.3485(4) 0.1281(4) 0.5836(4)
H23 H 0.3018 0.0514 0.5398
C30 C 0.3014(4) 0.2278(4) 0.6467(4)
H24 H 0.2207 0.2169 0.6462
C31 C 0.4752(4) 0.3507(4) 0.7099(4)
H25 H 0.5199 0.4285 0.7539
C32 C 0.5322(4) 0.2577(4) 0.6518(4)
H26 H 0.6137 0.2708 0.6562
C33 C 0.4675(4) 0.1447(4) 0.5870(4)
C34 C 0.0469(4) 0.8538(4) 0.9465(4)
C35 C -0.0069(4) 0.7354(5) 0.9092(4)
H27 H -0.0853 0.7196 0.9135
C36 C 0.0567(4) 0.6414(5) 0.8658(4)
H28 H 0.0197 0.5603 0.8401
C37 C 0.2161(5) 0.7728(5) 0.8937(4)
H29 H 0.2945 0.7873 0.8888
C38 C 0.1592(5) 0.8729(5) 0.9378(4)
H30 H 0.1973 0.9532 0.9616
Fe1A Fe -0.26990(5) 1.49941(6) 1.21671(5)
Fe1A_2 Fe 0.73010(5) -0.50059(6) 0.21671(5)
O1A O -0.1613(3) 1.6054(3) 1.1841(2)
O2A O -0.4082(3) 1.4191(3) 1.0887(2)
O3A O 0.1855(3) 1.7637(4) 1.3445(3)
O4A O -0.6167(4) 1.0919(3) 0.9885(3)
N1A N -0.1531(3) 1.5596(3) 1.3684(3)
N2A N -0.3565(3) 1.4112(3) 1.2893(3)
N3A N -0.1689(3) 1.3428(3) 1.1426(3)
N4A N 0.6380(3) -0.3394(3) 0.2911(3)
N4A_2 N -0.3620(3) 1.6606(3) 1.2911(3)
N5A N 0.0208(4) 1.0505(4) 1.0067(4)
N6A N 0.4706(3) -0.0507(4) 0.4740(3)
C1A C -0.4899(4) 1.3327(4) 1.0609(4)
C2A C -0.5060(4) 1.2750(4) 1.1300(4)
C3A C -0.4421(4) 1.3205(4) 1.2404(4)
H1A H -0.4636 1.2814 1.2825
C4A C -0.3070(4) 1.4523(4) 1.4019(3)
C5A C -0.3636(4) 1.4300(4) 1.4737(4)
H2A H -0.4402 1.3862 1.4480
C6A C -0.3068(5) 1.4727(5) 1.5833(4)
H3A H -0.3447 1.4572 1.6321
C7A C -0.1961(5) 1.5370(5) 1.6210(4)
H4A H -0.1570 1.5629 1.6951
C8A C -0.1414(4) 1.5643(5) 1.5526(4)
H5A H -0.0656 1.6102 1.5804
C9A C -0.1956(4) 1.5256(4) 1.4427(4)
C10A C -0.0528(4) 1.6313(4) 1.4002(4)
H6A H -0.0080 1.6499 1.4713
C11A C -0.0046(4) 1.6839(4) 1.3396(4)
C12A C -0.0622(4) 1.6691(4) 1.2337(4)
C13A C -0.0144(5) 1.7305(5) 1.1710(4)
H7A H -0.0779 1.7625 1.1372
H8A H 0.0469 1.7977 1.2210
H9A H 0.0185 1.6710 1.1144
C14A C -0.5704(5) 1.2994(5) 0.9515(4)
H10A H -0.5440 1.2315 0.8958
H11A H -0.6503 1.2750 0.9533
H12A H -0.5695 1.3699 0.9340
C15A C 0.1099(4) 1.7584(4) 1.3945(4)
C16A C 0.1363(5) 1.8311(5) 1.5145(4)
C17A C 0.0521(5) 1.8884(5) 1.5676(5)
H13A H -0.0260 1.8780 1.5273
C18A C 0.0806(7) 1.9613(7) 1.6801(6)
H14A H 0.0224 2.0005 1.7159
C19A C 0.1947(8) 1.9760(6) 1.7386(6)
H15A H 0.2142 2.0249 1.8150
C20A C 0.2785(7) 1.9213(6) 1.6880(6)
H16A H 0.3563 1.9324 1.7290
C21A C 0.2512(5) 1.8483(5) 1.5754(5)
H17A H 0.3105 1.8105 1.5404
C22A C -0.5838(4) 1.1583(5) 1.0862(4)
C23A C -0.6243(4) 1.1148(5) 1.1631(4)
C24A C -0.6835(5) 1.1829(6) 1.2394(5)
H18A H -0.6930 1.2644 1.2506
C25A C -0.7294(6) 1.1333(7) 1.3000(6)
H19A H -0.7713 1.1806 1.3516
C26A C -0.7147(6) 1.0160(6) 1.2862(5)
H20A H -0.7463 0.9821 1.3278
C27A C -0.6545(6) 0.9495(6) 1.2123(5)
H21A H -0.6429 0.8693 1.2037
C28A C -0.6099(5) 0.9960(5) 1.1495(5)
H22A H -0.5695 0.9473 1.0971
C29A C 0.6515(4) -0.1281(4) 0.4164(4)
H23A H 0.6982 -0.0514 0.4602
C30A C 0.6986(4) -0.2278(4) 0.3533(4)
H24A H 0.7793 -0.2169 0.3538
C31A C 0.5248(4) -0.3507(4) 0.2901(4)
H25A H 0.4801 -0.4285 0.2461
C32A C 0.4678(4) -0.2577(4) 0.3482(4)
H26A H 0.3863 -0.2708 0.3438
C33A C 0.5325(4) -0.1447(4) 0.4130(4)
C34A C -0.0469(4) 1.1462(4) 1.0535(4)
C35A C 0.0069(4) 1.2646(5) 1.0908(4)
H27A H 0.0853 1.2804 1.0865
C36A C -0.0567(4) 1.3586(5) 1.1342(4)
H28A H -0.0197 1.4397 1.1599
C37A C -0.2161(5) 1.2272(5) 1.1063(4)
H29A H -0.2945 1.2127 1.1112
C38A C -0.1592(5) 1.1271(5) 1.0622(4)
H30A H -0.1973 1.0468 1.0384
O5 O -0.2104(5) 0.4634(4) 0.8252(4)
D1 D -0.1962 0.3966 0.7806
C39 C -0.2376(7) 0.4489(8) 0.9132(5)
D2 D -0.1867 0.5093 0.9810
D3 D -0.2258 0.3667 0.9063
D4 D -0.3196 0.4605 0.9143
loop_
_geom_bond_atom_site_label_1
_geom_bond_atom_site_label_2
_geom_bond_site_symmetry_1
_geom_bond_site_symmetry_2
Fe1 O1 1_555 1_555
O1 C12 1_555 1_555
O2 Fe1 1_555 1_555
O3 C15 1_555 1_555
O4 C22 1_555 1_555
N1 Fe1 1_555 1_555
N2 Fe1 1_555 1_555
N3 Fe1 1_555 1_555
N4 Fe1 1_555 1_555
N5 C34 1_555 1_555
N6 C33 1_555 1_555
C1 O2 1_555 1_555
C2 C1 1_555 1_555
C3 N2 1_555 1_555
H1 C3 1_555 1_555
C4 N2 1_555 1_555
C5 C4 1_555 1_555
H2 C5 1_555 1_555
C6 C5 1_555 1_555
H3 C6 1_555 1_555
C7 C6 1_555 1_555
H4 C7 1_555 1_555
C8 C7 1_555 1_555
H5 C8 1_555 1_555
C9 N1 1_555 1_555
C10 N1 1_555 1_555
H6 C10 1_555 1_555
C11 C10 1_555 1_555
C12 C11 1_555 1_555
C13 C12 1_555 1_555
H7 C13 1_555 1_555
H8 C13 1_555 1_555
H9 C13 1_555 1_555
C14 C1 1_555 1_555
H10 C14 1_555 1_555
H11 C14 1_555 1_555
H12 C14 1_555 1_555
C15 C11 1_555 1_555
C16 C15 1_555 1_555
C17 C16 1_555 1_555
H13 C17 1_555 1_555
C18 C17 1_555 1_555
H14 C18 1_555 1_555
C19 C18 1_555 1_555
H15 C19 1_555 1_555
C20 C19 1_555 1_555
H16 C20 1_555 1_555
C21 C16 1_555 1_555
H17 C21 1_555 1_555
C22 C2 1_555 1_555
C23 C22 1_555 1_555
C24 C23 1_555 1_555
H18 C24 1_555 1_555
C25 C24 1_555 1_555
H19 C25 1_555 1_555
C26 C25 1_555 1_555
H20 C26 1_555 1_555
C27 C26 1_555 1_555
H21 C27 1_555 1_555
C28 C23 1_555 1_555
H22 C28 1_555 1_555
C29 H23 1_555 1_555
C30 N4 1_555 1_555
H24 C30 1_555 1_555
C31 N4 1_555 1_555
H25 C31 1_555 1_555
C32 C31 1_555 1_555
H26 C32 1_555 1_555
C33 C29 1_555 1_555
C34 C35 1_555 1_555
C35 H27 1_555 1_555
C36 N3 1_555 1_555
H28 C36 1_555 1_555
C37 N3 1_555 1_555
H29 C37 1_555 1_555
C38 C34 1_555 1_555
H30 C38 1_555 1_555
O5 D1 1_555 1_555
C39 O5 1_555 1_555
D2 C39 1_555 1_555
D3 C39 1_555 1_555
D4 C39 1_555 1_555
Fe1A O1A 1_555 1_555
Fe1A_2 N4A 1_555 1_555
O1A C12A 1_555 1_555
O2A Fe1A 1_555 1_555
O3A C15A 1_555 1_555
O4A C22A 1_555 1_555
N1A Fe1A 1_555 1_555
N2A Fe1A 1_555 1_555
N3A Fe1A 1_555 1_555
N4A C30A 1_555 1_555
N4A_2 Fe1A 1_555 1_555
N5A N5 1_555 1_555
N6A N6 1_555 1_555
C1A O2A 1_555 1_555
C2A C1A 1_555 1_555
C3A N2A 1_555 1_555
H1A C3A 1_555 1_555
C4A N2A 1_555 1_555
C5A C4A 1_555 1_555
H2A C5A 1_555 1_555
C6A C5A 1_555 1_555
H3A C6A 1_555 1_555
C7A C6A 1_555 1_555
H4A C7A 1_555 1_555
C8A C7A 1_555 1_555
H5A C8A 1_555 1_555
C9A N1A 1_555 1_555
C10A N1A 1_555 1_555
H6A C10A 1_555 1_555
C11A C10A 1_555 1_555
C12A C11A 1_555 1_555
C13A C12A 1_555 1_555
H7A C13A 1_555 1_555
H8A C13A 1_555 1_555
H9A C13A 1_555 1_555
C14A C1A 1_555 1_555
H10A C14A 1_555 1_555
H11A C14A 1_555 1_555
H12A C14A 1_555 1_555
C15A C11A 1_555 1_555
C16A C15A 1_555 1_555
C17A C16A 1_555 1_555
H13A C17A 1_555 1_555
C18A C17A 1_555 1_555
H14A C18A 1_555 1_555
C19A C18A 1_555 1_555
H15A C19A 1_555 1_555
C20A C19A 1_555 1_555
H16A C20A 1_555 1_555
C21A C16A 1_555 1_555
H17A C21A 1_555 1_555
C22A C2A 1_555 1_555
C23A C22A 1_555 1_555
C24A C23A 1_555 1_555
H18A C24A 1_555 1_555
C25A C24A 1_555 1_555
H19A C25A 1_555 1_555
C26A C25A 1_555 1_555
H20A C26A 1_555 1_555
C27A C26A 1_555 1_555
H21A C27A 1_555 1_555
C28A C23A 1_555 1_555
H22A C28A 1_555 1_555
C29A H23A 1_555 1_555
C30A C29A 1_555 1_555
H24A C30A 1_555 1_555
C31A N4A 1_555 1_555
H25A C31A 1_555 1_555
C32A C31A 1_555 1_555
H26A C32A 1_555 1_555
C33A N6A 1_555 1_555
C34A N5A 1_555 1_555
C35A C34A 1_555 1_555
H27A C35A 1_555 1_555
C36A N3A 1_555 1_555
H28A C36A 1_555 1_555
C37A N3A 1_555 1_555
H29A C37A 1_555 1_555
C38A C34A 1_555 1_555
H30A C38A 1_555 1_555
C2 C3 1_555 1_555
C4 C9 1_555 1_555
C8 C9 1_555 1_555
C20 C21 1_555 1_555
C27 C28 1_555 1_555
C29 C30 1_555 1_555
C32 C33 1_555 1_555
C35 C36 1_555 1_555
C37 C38 1_555 1_555
C2A C3A 1_555 1_555
C4A C9A 1_555 1_555
C8A C9A 1_555 1_555
C20A C21A 1_555 1_555
C27A C28A 1_555 1_555
C29A C33A 1_555 1_555
C32A C33A 1_555 1_555
C35A C36A 1_555 1_555
C37A C38A 1_555 1_555

#END
