
#######################################################################
#
#                 Cambridge Crystallographic Data Centre
#                                CCDC 
#
#######################################################################
#
# If this CIF has been generated from an entry in the Cambridge 
# Structural Database, then it will include bibliographic, chemical, 
# crystal, experimental, refinement or atomic coordinate data resulting 
# from the CCDC's data processing and validation procedures.
#
#######################################################################

data_EWAGEP
_symmetry_cell_setting           triclinic
_symmetry_space_group_name_H-M   'P -1'
_symmetry_Int_Tables_number      2
_space_group_name_Hall           '-P 1'
loop_
_symmetry_equiv_pos_site_id
_symmetry_equiv_pos_as_xyz
1 x,y,z
2 -x,-y,-z
_cell_length_a                   11.747(7)
_cell_length_b                   12.103(6)
_cell_length_c                   13.852(9)
_cell_angle_alpha                114.173(6)
_cell_angle_beta                 101.169(5)
_cell_angle_gamma                92.309(4)
_cell_volume                     1746.86
loop_
_atom_site_label
_atom_site_type_symbol
_atom_site_fract_x
_atom_site_fract_y
_atom_site_fract_z
Fe1 Fe 0.23045(4) 0.99977(3) 0.21638(4)
O1 O 0.33936(16) 1.10595(15) 0.18420(15)
O2 O 0.09176(16) 0.91891(15) 0.08868(15)
O3 O 0.68561(17) 1.26388(18) 0.34495(18)
O4 O -0.1166(2) 0.59258(18) -0.01144(18)
N1 N 0.34717(19) 1.05959(17) 0.36813(18)
N2 N 0.14386(19) 0.91149(17) 0.28897(18)
N3 N 0.3319(2) 0.84262(18) 0.14153(19)
N4 N 0.13789(19) 1.16170(17) 0.29084(19)
N5 N -0.0292(2) 1.44919(16) 0.4755(2)
N6 N 0.5219(2) 0.55065(17) 0.0063(2)
C1 C 0.0103(2) 0.8329(2) 0.0614(2)
C2 C -0.0056(2) 0.7752(2) 0.1296(2)
C3 C 0.0579(2) 0.8207(2) 0.2393(2)
H1 H 0.0360 0.7814 0.2812
C4 C 0.1932(2) 0.9519(2) 0.4013(2)
C5 C 0.1375(3) 0.9311(2) 0.4736(2)
H2 H 0.0607 0.8874 0.4479
C6 C 0.1923(3) 0.9732(2) 0.5822(2)
H3 H 0.1533 0.9581 0.6305
C7 C 0.3035(3) 1.0370(2) 0.6207(3)
H4 H 0.3426 1.0622 0.6947
C8 C 0.3580(3) 1.0640(2) 0.5523(2)
H5 H 0.4336 1.1103 0.5802
C9 C 0.3040(2) 1.0246(2) 0.4422(2)
C10 C 0.4464(2) 1.1300(2) 0.3992(2)
H6 H 0.4918 1.1476 0.4697
C11 C 0.4947(2) 1.1837(2) 0.3389(2)
C12 C 0.4389(3) 1.1698(2) 0.2347(2)
C13 C -0.0696(3) 0.7991(3) -0.0486(2)
H7 H -0.0705 0.8706 -0.0650
H8 H -0.1490 0.7717 -0.0481
H9 H -0.0412 0.7331 -0.1042
C14 C 0.4861(3) 1.2308(3) 0.1721(3)
H10 H 0.5210 1.1718 0.1170
H11 H 0.5457 1.2999 0.2223
H12 H 0.4220 1.2604 0.1365
C15 C -0.0839(3) 0.6596(3) 0.0872(3)
C16 C -0.1242(3) 0.6144(2) 0.1625(2)
C17 C -0.1092(3) 0.4974(3) 0.1501(3)
H13 H -0.0675 0.4495 0.0987
C18 C -0.1541(4) 0.4494(3) 0.2118(3)
H14 H -0.1429 0.3687 0.2028
C19 C -0.2147(3) 0.5170(4) 0.2858(3)
H15 H -0.2464 0.4833 0.3275
C20 C -0.2294(3) 0.6336(4) 0.2993(3)
H16 H -0.2711 0.6811 0.3509
C21 C -0.1842(3) 0.6823(3) 0.2388(3)
H17 H -0.1942 0.7636 0.2494
C22 C 0.6106(3) 1.2589(2) 0.3950(3)
C23 C 0.6368(3) 1.3303(2) 0.5146(3)
C24 C 0.5528(3) 1.3873(3) 0.5682(3)
H18 H 0.4747 1.3770 0.5281
C25 C 0.5812(4) 1.4596(3) 0.6802(3)
H19 H 0.5228 1.4981 0.7160
C26 C 0.6937(5) 1.4749(3) 0.7380(4)
H20 H 0.7133 1.5243 0.8142
C27 C 0.7785(4) 1.4191(3) 0.6867(3)
H21 H 0.8563 1.4296 0.7275
C28 C 0.7505(3) 1.3477(3) 0.5756(3)
H22 H 0.8097 1.3101 0.5406
C29 C 0.4428(2) 0.8589(2) 0.1333(2)
H23 H 0.4798 0.9402 0.1590
C30 C 0.5058(3) 0.7649(2) 0.0901(3)
H24 H 0.5837 0.7811 0.0851
C31 C 0.4537(2) 0.6461(2) 0.0540(2)
C32 C 0.3405(3) 0.6270(2) 0.0623(3)
H25 H 0.3021 0.5467 0.0384
C33 C 0.2842(3) 0.7271(2) 0.1059(3)
H26 H 0.2058 0.7129 0.1109
C34 C 0.0242(2) 1.1494(2) 0.2897(2)
H27 H -0.0206 1.0715 0.2457
C35 C -0.0319(2) 1.2426(2) 0.3485(2)
H28 H -0.1131 1.2294 0.3449
C36 C 0.0325(2) 1.3560(2) 0.4127(2)
C37 C 0.1508(2) 1.3723(2) 0.4158(2)
H29 H 0.1974 1.4493 0.4592
C38 C 0.1982(2) 1.2734(2) 0.3539(2)
H30 H 0.2792 1.2844 0.3556
Fe1A Fe -0.23045(4) 2.00023(3) 0.78362(4)
Fe1A_2 Fe 0.76955(4) 0.00023(3) -0.21638(4)
O1A O -0.33936(16) 1.89405(15) 0.81580(15)
O2A O -0.09176(16) 2.08109(15) 0.91132(15)
O3A O -0.68561(17) 1.73612(18) 0.65505(18)
O4A O 0.1166(2) 2.40742(18) 1.01144(18)
N1A N -0.34717(19) 1.94041(17) 0.63187(18)
N2A N -0.14386(19) 2.08851(17) 0.71103(18)
N3A N 0.6681(2) 0.15738(18) -0.14153(19)
N3A_2 N -0.3319(2) 2.15738(18) 0.85847(19)
N4A N -0.13789(19) 1.83830(17) 0.70916(19)
N5A N 0.0292(2) 1.55081(16) 0.5245(2)
N6A N 0.4781(2) 0.44935(17) -0.0063(2)
C1A C -0.0103(2) 2.1671(2) 0.9386(2)
C2A C 0.0056(2) 2.2248(2) 0.8704(2)
C3A C -0.0579(2) 2.1793(2) 0.7607(2)
H1A H -0.0360 2.2186 0.7188
C4A C -0.1932(2) 2.0481(2) 0.5987(2)
C5A C -0.1375(3) 2.0689(2) 0.5264(2)
H2A H -0.0607 2.1126 0.5521
C6A C -0.1923(3) 2.0268(2) 0.4178(2)
H3A H -0.1533 2.0419 0.3695
C7A C -0.3035(3) 1.9630(2) 0.3793(3)
H4A H -0.3426 1.9378 0.3053
C8A C -0.3580(3) 1.9360(2) 0.4477(2)
H5A H -0.4336 1.8897 0.4198
C9A C -0.3040(2) 1.9754(2) 0.5578(2)
C10A C -0.4464(2) 1.8700(2) 0.6008(2)
H6A H -0.4918 1.8524 0.5303
C11A C -0.4947(2) 1.8163(2) 0.6611(2)
C12A C -0.4389(3) 1.8302(2) 0.7653(2)
C13A C 0.0696(3) 2.2009(3) 1.0486(2)
H7A H 0.0705 2.1294 1.0650
H8A H 0.1490 2.2283 1.0481
H9A H 0.0412 2.2669 1.1042
C14A C -0.4861(3) 1.7692(3) 0.8279(3)
H10A H -0.5210 1.8282 0.8830
H11A H -0.5457 1.7001 0.7777
H12A H -0.4220 1.7396 0.8635
C15A C 0.0839(3) 2.3404(3) 0.9128(3)
C16A C 0.1242(3) 2.3856(2) 0.8375(2)
C17A C 0.1092(3) 2.5026(3) 0.8499(3)
H13A H 0.0675 2.5505 0.9013
C18A C 0.1541(4) 2.5506(3) 0.7882(3)
H14A H 0.1429 2.6313 0.7972
C19A C 0.2147(3) 2.4830(4) 0.7142(3)
H15A H 0.2464 2.5167 0.6725
C20A C 0.2294(3) 2.3664(4) 0.7007(3)
H16A H 0.2711 2.3189 0.6491
C21A C 0.1842(3) 2.3177(3) 0.7612(3)
H17A H 0.1942 2.2364 0.7506
C22A C -0.6106(3) 1.7411(2) 0.6050(3)
C23A C -0.6368(3) 1.6697(2) 0.4854(3)
C24A C -0.5528(3) 1.6127(3) 0.4318(3)
H18A H -0.4747 1.6230 0.4719
C25A C -0.5812(4) 1.5404(3) 0.3198(3)
H19A H -0.5228 1.5019 0.2840
C26A C -0.6937(5) 1.5251(3) 0.2620(4)
H20A H -0.7133 1.4757 0.1858
C27A C -0.7785(4) 1.5809(3) 0.3133(3)
H21A H -0.8563 1.5704 0.2725
C28A C -0.7505(3) 1.6523(3) 0.4244(3)
H22A H -0.8097 1.6899 0.4594
C29A C 0.5572(2) 0.1411(2) -0.1333(2)
H23A H 0.5202 0.0598 -0.1590
C30A C 0.4942(3) 0.2351(2) -0.0901(3)
H24A H 0.4163 0.2189 -0.0851
C31A C 0.5463(2) 0.3539(2) -0.0540(2)
C32A C 0.6595(3) 0.3730(2) -0.0623(3)
H25A H 0.6979 0.4533 -0.0384
C33A C 0.7158(3) 0.2729(2) -0.1059(3)
H26A H 0.7942 0.2871 -0.1109
C34A C -0.0242(2) 1.8506(2) 0.7103(2)
H27A H 0.0206 1.9285 0.7543
C35A C 0.0319(2) 1.7574(2) 0.6515(2)
H28A H 0.1131 1.7706 0.6551
C36A C -0.0325(2) 1.6440(2) 0.5873(2)
C37A C -0.1508(2) 1.6277(2) 0.5842(2)
H29A H -0.1974 1.5507 0.5408
C38A C -0.1982(2) 1.7266(2) 0.6461(2)
H30A H -0.2792 1.7156 0.6444
O5 O 0.7099(3) 1.0368(2) 0.1748(2)
H31 H 0.7009 1.1050 0.2213
C39 C 0.7348(4) 1.0499(4) 0.0866(3)
H32 H 0.7238 1.1325 0.0935
H33 H 0.6822 0.9898 0.0197
H34 H 0.8162 1.0370 0.0838
loop_
_geom_bond_atom_site_label_1
_geom_bond_atom_site_label_2
_geom_bond_site_symmetry_1
_geom_bond_site_symmetry_2
Fe1 O1 1_555 1_555
O1 C12 1_555 1_555
O2 Fe1 1_555 1_555
O3 C22 1_555 1_555
O4 C15 1_555 1_555
N1 Fe1 1_555 1_555
N2 Fe1 1_555 1_555
N3 Fe1 1_555 1_555
N4 Fe1 1_555 1_555
N5 C36 1_555 1_555
N6 C31 1_555 1_555
C1 O2 1_555 1_555
C2 C1 1_555 1_555
C3 N2 1_555 1_555
H1 C3 1_555 1_555
C4 N2 1_555 1_555
C5 C4 1_555 1_555
H2 C5 1_555 1_555
C6 C5 1_555 1_555
H3 C6 1_555 1_555
C7 C6 1_555 1_555
H4 C7 1_555 1_555
C8 C7 1_555 1_555
H5 C8 1_555 1_555
C9 N1 1_555 1_555
C10 N1 1_555 1_555
H6 C10 1_555 1_555
C11 C10 1_555 1_555
C12 C11 1_555 1_555
C13 C1 1_555 1_555
H7 C13 1_555 1_555
H8 C13 1_555 1_555
H9 C13 1_555 1_555
C14 C12 1_555 1_555
H10 C14 1_555 1_555
H11 C14 1_555 1_555
H12 C14 1_555 1_555
C15 C2 1_555 1_555
C16 C15 1_555 1_555
C17 C16 1_555 1_555
H13 C17 1_555 1_555
C18 C17 1_555 1_555
H14 C18 1_555 1_555
C19 C18 1_555 1_555
H15 C19 1_555 1_555
C20 C19 1_555 1_555
H16 C20 1_555 1_555
C21 C16 1_555 1_555
H17 C21 1_555 1_555
C22 C11 1_555 1_555
C23 C22 1_555 1_555
C24 C23 1_555 1_555
H18 C24 1_555 1_555
C25 C24 1_555 1_555
H19 C25 1_555 1_555
C26 C25 1_555 1_555
H20 C26 1_555 1_555
C27 C26 1_555 1_555
H21 C27 1_555 1_555
C28 C23 1_555 1_555
H22 C28 1_555 1_555
C29 N3 1_555 1_555
H23 C29 1_555 1_555
C30 C29 1_555 1_555
H24 C30 1_555 1_555
C31 C30 1_555 1_555
C32 C31 1_555 1_555
H25 C32 1_555 1_555
C33 N3 1_555 1_555
H26 C33 1_555 1_555
C34 N4 1_555 1_555
H27 C34 1_555 1_555
C35 C34 1_555 1_555
H28 C35 1_555 1_555
C36 C35 1_555 1_555
C37 C36 1_555 1_555
H29 C37 1_555 1_555
C38 N4 1_555 1_555
H30 C38 1_555 1_555
O5 H31 1_555 1_555
C39 O5 1_555 1_555
H32 C39 1_555 1_555
H33 C39 1_555 1_555
H34 C39 1_555 1_555
Fe1A O1A 1_555 1_555
Fe1A_2 N3A 1_555 1_555
O1A C12A 1_555 1_555
O2A Fe1A 1_555 1_555
O3A C22A 1_555 1_555
O4A C15A 1_555 1_555
N1A Fe1A 1_555 1_555
N2A Fe1A 1_555 1_555
N3A C29A 1_555 1_555
N3A_2 Fe1A 1_555 1_555
N4A Fe1A 1_555 1_555
N5A N5 1_555 1_555
N6A N6 1_555 1_555
C1A O2A 1_555 1_555
C2A C1A 1_555 1_555
C3A N2A 1_555 1_555
H1A C3A 1_555 1_555
C4A N2A 1_555 1_555
C5A C4A 1_555 1_555
H2A C5A 1_555 1_555
C6A C5A 1_555 1_555
H3A C6A 1_555 1_555
C7A C6A 1_555 1_555
H4A C7A 1_555 1_555
C8A C7A 1_555 1_555
H5A C8A 1_555 1_555
C9A N1A 1_555 1_555
C10A N1A 1_555 1_555
H6A C10A 1_555 1_555
C11A C10A 1_555 1_555
C12A C11A 1_555 1_555
C13A C1A 1_555 1_555
H7A C13A 1_555 1_555
H8A C13A 1_555 1_555
H9A C13A 1_555 1_555
C14A C12A 1_555 1_555
H10A C14A 1_555 1_555
H11A C14A 1_555 1_555
H12A C14A 1_555 1_555
C15A C2A 1_555 1_555
C16A C15A 1_555 1_555
C17A C16A 1_555 1_555
H13A C17A 1_555 1_555
C18A C17A 1_555 1_555
H14A C18A 1_555 1_555
C19A C18A 1_555 1_555
H15A C19A 1_555 1_555
C20A C19A 1_555 1_555
H16A C20A 1_555 1_555
C21A C16A 1_555 1_555
H17A C21A 1_555 1_555
C22A C11A 1_555 1_555
C23A C22A 1_555 1_555
C24A C23A 1_555 1_555
H18A C24A 1_555 1_555
C25A C24A 1_555 1_555
H19A C25A 1_555 1_555
C26A C25A 1_555 1_555
H20A C26A 1_555 1_555
C27A C26A 1_555 1_555
H21A C27A 1_555 1_555
C28A C23A 1_555 1_555
H22A C28A 1_555 1_555
C29A H23A 1_555 1_555
C30A C29A 1_555 1_555
H24A C30A 1_555 1_555
C31A N6A 1_555 1_555
C32A C31A 1_555 1_555
H25A C32A 1_555 1_555
C33A N3A 1_555 1_555
H26A C33A 1_555 1_555
C34A N4A 1_555 1_555
H27A C34A 1_555 1_555
C35A C34A 1_555 1_555
H28A C35A 1_555 1_555
C36A N5A 1_555 1_555
C37A C36A 1_555 1_555
H29A C37A 1_555 1_555
C38A N4A 1_555 1_555
H30A C38A 1_555 1_555
C2 C3 1_555 1_555
C4 C9 1_555 1_555
C8 C9 1_555 1_555
C20 C21 1_555 1_555
C27 C28 1_555 1_555
C32 C33 1_555 1_555
C37 C38 1_555 1_555
C2A C3A 1_555 1_555
C4A C9A 1_555 1_555
C8A C9A 1_555 1_555
C20A C21A 1_555 1_555
C27A C28A 1_555 1_555
C30A C31A 1_555 1_555
C32A C33A 1_555 1_555
C35A C36A 1_555 1_555
C37A C38A 1_555 1_555

#END
