
#######################################################################
#
#                 Cambridge Crystallographic Data Centre
#                                CCDC 
#
#######################################################################
#
# If this CIF has been generated from an entry in the Cambridge 
# Structural Database, then it will include bibliographic, chemical, 
# crystal, experimental, refinement or atomic coordinate data resulting 
# from the CCDC's data processing and validation procedures.
#
#######################################################################

data_EWAKIX01
_symmetry_cell_setting           monoclinic
_symmetry_space_group_name_H-M   'P 21/c'
_symmetry_Int_Tables_number      14
_space_group_name_Hall           '-P 2ybc'
loop_
_symmetry_equiv_pos_site_id
_symmetry_equiv_pos_as_xyz
1 x,y,z
2 -x,1/2+y,1/2-z
3 -x,-y,-z
4 x,1/2-y,1/2+z
_cell_length_a                   6.728(6)
_cell_length_b                   13.732(8)
_cell_length_c                   7.231(5)
_cell_angle_alpha                90
_cell_angle_beta                 90.1(3)
_cell_angle_gamma                90
_cell_volume                     668.063
loop_
_atom_site_label
_atom_site_type_symbol
_atom_site_fract_x
_atom_site_fract_y
_atom_site_fract_z
Ni1 Ni 0.50000 0.00000 0.50000
Ni2 Ni 0.00000 0.00000 0.00000
C1 C 0.331(6) -0.032(6) 0.319(6)
N1 N 0.214(6) -0.047(6) 0.207(6)
C2 C 0.331(3) -0.032(3) 0.681(3)
N2 N 0.214(3) -0.047(3) 0.793(3)
N3 N 0.147(3) 0.154(3) 0.009(3)
N4 N 0.313(3) 0.320(3) -0.010(3)
C3 C 0.017(6) 0.227(6) -0.010(6)
C4 C 0.355(6) 0.157(6) 0.002(6)
C5 C 0.121(6) 0.310(6) 0.006(6)
C6 C 0.426(6) 0.251(6) -0.015(6)
Ni2_2 Ni 0.00000 0.00000 1.00000
Ni2_3 Ni 1.00000 0.00000 1.00000
Ni2_4 Ni 1.00000 0.00000 0.00000
C1B C 0.669(6) 0.032(6) 0.681(6)
N1B N 0.786(6) 0.047(6) 0.793(6)
N1B_2 N -0.214(6) 0.047(6) -0.207(6)
C2B C 0.669(3) 0.032(3) 0.319(3)
N2B N 0.786(3) 0.047(3) 0.207(3)
N2_2 N 0.214(3) -0.047(3) -0.207(3)
N2B_2 N -0.214(3) 0.047(3) 0.207(3)
N3B N -0.147(3) -0.154(3) -0.009(3)
N4B N -0.313(3) -0.320(3) 0.010(3)
C3B C -0.017(6) -0.227(6) 0.010(6)
C4B C -0.355(6) -0.157(6) -0.002(6)
C5B C -0.121(6) -0.310(6) -0.006(6)
C6B C -0.426(6) -0.251(6) 0.015(6)
loop_
_geom_bond_atom_site_label_1
_geom_bond_atom_site_label_2
_geom_bond_site_symmetry_1
_geom_bond_site_symmetry_2
Ni1 C1 1_555 1_555
Ni2 N1 1_555 1_555
C1 N1 1_555 1_555
C2 Ni1 1_555 1_555
N2 C2 1_555 1_555
N3 Ni2 1_555 1_555
N4 C5 1_555 1_555
C3 N3 1_555 1_555
C4 N3 1_555 1_555
C5 C3 1_555 1_555
C6 N4 1_555 1_555
Ni2_2 N2 1_555 1_555
Ni2_3 N1B 1_555 1_555
Ni2_4 N2B 1_555 1_555
C1B Ni1 1_555 1_555
N1B C1B 1_555 1_555
N1B_2 Ni2 1_555 1_555
C2B Ni1 1_555 1_555
N2B C2B 1_555 1_555
N2_2 Ni2 1_555 1_555
N2B_2 Ni2 1_555 1_555
N3B Ni2 1_555 1_555
N4B C5B 1_555 1_555
C3B N3B 1_555 1_555
C4B N3B 1_555 1_555
C5B C3B 1_555 1_555
C6B N4B 1_555 1_555
C4 C6 1_555 1_555
C4B C6B 1_555 1_555

#END
