
#######################################################################
#
#                 Cambridge Crystallographic Data Centre
#                                CCDC 
#
#######################################################################
#
# If this CIF has been generated from an entry in the Cambridge 
# Structural Database, then it will include bibliographic, chemical, 
# crystal, experimental, refinement or atomic coordinate data resulting 
# from the CCDC's data processing and validation procedures.
#
#######################################################################

data_EWAKAP
_symmetry_cell_setting           orthorhombic
_symmetry_space_group_name_H-M   'P m n a'
_symmetry_Int_Tables_number      53
_space_group_name_Hall           '-P 2ac 2'
loop_
_symmetry_equiv_pos_site_id
_symmetry_equiv_pos_as_xyz
1 x,y,z
2 x,-y,-z
3 1/2-x,y,1/2-z
4 1/2-x,-y,1/2+z
5 -x,-y,-z
6 -x,y,z
7 1/2+x,-y,1/2+z
8 1/2+x,y,1/2-z
_cell_length_a                   7.308(2)
_cell_length_b                   6.835(3)
_cell_length_c                   14.013(2)
_cell_angle_alpha                90
_cell_angle_beta                 90
_cell_angle_gamma                90
_cell_volume                     699.952
loop_
_atom_site_label
_atom_site_type_symbol
_atom_site_fract_x
_atom_site_fract_y
_atom_site_fract_z
Ni1 Ni 0.50000 0.50000 0.00000
Fe1 Fe 0.00000 0.00000 0.00000
C1 C 0.318(2) 0.316(3) -0.035(2)
N1 N 0.207(6) 0.201(3) -0.051(4)
N2 N 0.00000 -0.166(4) -0.143(3)
N3 N 0.00000 -0.314(2) -0.317(4)
C2 C 0.00000 0.009(6) -0.232(4)
C3 C 0.00000 -0.375(1) -0.159(4)
C4 C 0.00000 -0.120(4) -0.308(3)
C5 C 0.00000 -0.445(2) -0.247(4)
Fe1_2 Fe 1.00000 0.00000 0.00000
Fe1_3 Fe 1.00000 1.00000 0.00000
Fe1_4 Fe 0.00000 1.00000 0.00000
C1E C 0.682(2) 0.316(3) -0.035(2)
C1D C 0.682(2) 0.684(3) 0.035(2)
C1A C 0.318(2) 0.684(3) 0.035(2)
N1E N 0.793(6) 0.201(3) -0.051(4)
N1D N 0.793(6) 0.799(3) 0.051(4)
N1A N 0.207(6) 0.799(3) 0.051(4)
N1E_2 N -0.207(6) 0.201(3) -0.051(4)
N1D_2 N -0.207(6) -0.201(3) 0.051(4)
N1A_2 N 0.207(6) -0.201(3) 0.051(4)
N2D N 0.00000 0.166(4) 0.143(3)
N3D N 0.00000 0.314(2) 0.317(4)
C2D C 0.00000 -0.009(6) 0.232(4)
C3D C 0.00000 0.375(1) 0.159(4)
C4D C 0.00000 0.120(4) 0.308(3)
C5D C 0.00000 0.445(2) 0.247(4)
loop_
_geom_bond_atom_site_label_1
_geom_bond_atom_site_label_2
_geom_bond_site_symmetry_1
_geom_bond_site_symmetry_2
Ni1 C1 1_555 1_555
Fe1 N1 1_555 1_555
C1 N1 1_555 1_555
N2 Fe1 1_555 1_555
N3 C4 1_555 1_555
C2 N2 1_555 1_555
C3 N2 1_555 1_555
C4 C2 1_555 1_555
C5 N3 1_555 1_555
Fe1_2 N1E 1_555 1_555
Fe1_3 N1D 1_555 1_555
Fe1_4 N1A 1_555 1_555
C1E Ni1 1_555 1_555
C1D Ni1 1_555 1_555
C1A Ni1 1_555 1_555
N1E C1E 1_555 1_555
N1D C1D 1_555 1_555
N1A C1A 1_555 1_555
N1E_2 Fe1 1_555 1_555
N1D_2 Fe1 1_555 1_555
N1A_2 Fe1 1_555 1_555
N2D Fe1 1_555 1_555
N3D C4D 1_555 1_555
C2D N2D 1_555 1_555
C3D N2D 1_555 1_555
C4D C2D 1_555 1_555
C5D N3D 1_555 1_555
C3 C5 1_555 1_555
C3D C5D 1_555 1_555

#END
