
#######################################################################
#
#                 Cambridge Crystallographic Data Centre
#                                CCDC 
#
#######################################################################
#
# If this CIF has been generated from an entry in the Cambridge 
# Structural Database, then it will include bibliographic, chemical, 
# crystal, experimental, refinement or atomic coordinate data resulting 
# from the CCDC's data processing and validation procedures.
#
#######################################################################

data_EWAKAP01
_symmetry_cell_setting           monoclinic
_symmetry_space_group_name_H-M   'P 21/c'
_symmetry_Int_Tables_number      14
_space_group_name_Hall           '-P 2ybc'
loop_
_symmetry_equiv_pos_site_id
_symmetry_equiv_pos_as_xyz
1 x,y,z
2 -x,1/2+y,1/2-z
3 -x,-y,-z
4 x,1/2-y,1/2+z
_cell_length_a                   6.824(2)
_cell_length_b                   13.872(3)
_cell_length_c                   7.281(2)
_cell_angle_alpha                90
_cell_angle_beta                 90.4(1)
_cell_angle_gamma                90
_cell_volume                     689.221
loop_
_atom_site_label
_atom_site_type_symbol
_atom_site_fract_x
_atom_site_fract_y
_atom_site_fract_z
Ni1 Ni 0.50000 0.00000 0.50000
Fe1 Fe 0.00000 0.00000 0.00000
C1 C 0.329(6) -0.033(6) 0.318(6)
N1 N 0.214(6) -0.046(6) 0.209(6)
C2 C 0.329(3) -0.032(3) 0.682(3)
N2 N 0.214(3) -0.046(3) 0.791(3)
N3 N 0.147(3) 0.151(3) 0.006(2)
N4 N 0.316(3) 0.323(3) -0.013(3)
C3 C 0.021(6) 0.226(6) -0.011(6)
C4 C 0.356(6) 0.157(6) -0.002(6)
C5 C 0.124(6) 0.314(6) 0.003(6)
C6 C 0.428(6) 0.254(6) -0.017(6)
Fe1_2 Fe 0.00000 0.00000 1.00000
Fe1_3 Fe 1.00000 0.00000 1.00000
Fe1_4 Fe 1.00000 0.00000 0.00000
C1B C 0.671(6) 0.033(6) 0.682(6)
N1B N 0.786(6) 0.046(6) 0.791(6)
N1B_2 N -0.214(6) 0.046(6) -0.209(6)
C2B C 0.671(3) 0.032(3) 0.318(3)
N2B N 0.786(3) 0.046(3) 0.209(3)
N2_2 N 0.214(3) -0.046(3) -0.209(3)
N2B_2 N -0.214(3) 0.046(3) 0.209(3)
N3B N -0.147(3) -0.151(3) -0.006(2)
N4B N -0.316(3) -0.323(3) 0.013(3)
C3B C -0.021(6) -0.226(6) 0.011(6)
C4B C -0.356(6) -0.157(6) 0.002(6)
C5B C -0.124(6) -0.314(6) -0.003(6)
C6B C -0.428(6) -0.254(6) 0.017(6)
loop_
_geom_bond_atom_site_label_1
_geom_bond_atom_site_label_2
_geom_bond_site_symmetry_1
_geom_bond_site_symmetry_2
Ni1 C1 1_555 1_555
Fe1 N1 1_555 1_555
C1 N1 1_555 1_555
C2 Ni1 1_555 1_555
N2 C2 1_555 1_555
N3 Fe1 1_555 1_555
N4 C5 1_555 1_555
C3 N3 1_555 1_555
C4 N3 1_555 1_555
C5 C3 1_555 1_555
C6 N4 1_555 1_555
Fe1_2 N2 1_555 1_555
Fe1_3 N1B 1_555 1_555
Fe1_4 N2B 1_555 1_555
C1B Ni1 1_555 1_555
N1B C1B 1_555 1_555
N1B_2 Fe1 1_555 1_555
C2B Ni1 1_555 1_555
N2B C2B 1_555 1_555
N2_2 Fe1 1_555 1_555
N2B_2 Fe1 1_555 1_555
N3B Fe1 1_555 1_555
N4B C5B 1_555 1_555
C3B N3B 1_555 1_555
C4B N3B 1_555 1_555
C5B C3B 1_555 1_555
C6B N4B 1_555 1_555
C4 C6 1_555 1_555
C4B C6B 1_555 1_555

#END
