
#######################################################################
#
#                 Cambridge Crystallographic Data Centre
#                                CCDC 
#
#######################################################################
#
# If this CIF has been generated from an entry in the Cambridge 
# Structural Database, then it will include bibliographic, chemical, 
# crystal, experimental, refinement or atomic coordinate data resulting 
# from the CCDC's data processing and validation procedures.
#
#######################################################################

data_EWAKIX
_symmetry_cell_setting           orthorhombic
_symmetry_space_group_name_H-M   'P m n a'
_symmetry_Int_Tables_number      53
_space_group_name_Hall           '-P 2ac 2'
loop_
_symmetry_equiv_pos_site_id
_symmetry_equiv_pos_as_xyz
1 x,y,z
2 x,-y,-z
3 1/2-x,y,1/2-z
4 1/2-x,-y,1/2+z
5 -x,-y,-z
6 -x,y,z
7 1/2+x,-y,1/2+z
8 1/2+x,y,1/2-z
_cell_length_a                   7.247(7)
_cell_length_b                   6.769(6)
_cell_length_c                   13.836(4)
_cell_angle_alpha                90
_cell_angle_beta                 90
_cell_angle_gamma                90
_cell_volume                     678.724
loop_
_atom_site_label
_atom_site_type_symbol
_atom_site_fract_x
_atom_site_fract_y
_atom_site_fract_z
Ni1 Ni 0.50000 0.50000 0.00000
Ni2 Ni 0.00000 0.00000 0.00000
C1 C 0.316(2) 0.314(3) -0.036(2)
N1 N 0.204(6) 0.198(3) -0.052(4)
N2 N 0.00000 -0.114(4) -0.146(3)
N3 N 0.00000 -0.335(2) -0.329(4)
C2 C 0.00000 -0.004(6) -0.226(4)
C3 C 0.00000 -0.374(1) -0.169(4)
C4 C 0.00000 -0.101(4) -0.305(3)
C5 C 0.00000 -0.431(2) -0.250(4)
Ni2_2 Ni 1.00000 0.00000 0.00000
Ni2_3 Ni 1.00000 1.00000 0.00000
Ni2_4 Ni 0.00000 1.00000 0.00000
C1E C 0.684(2) 0.314(3) -0.036(2)
C1D C 0.684(2) 0.686(3) 0.036(2)
C1A C 0.316(2) 0.686(3) 0.036(2)
N1E N 0.796(6) 0.198(3) -0.052(4)
N1D N 0.796(6) 0.802(3) 0.052(4)
N1A N 0.204(6) 0.802(3) 0.052(4)
N1E_2 N -0.204(6) 0.198(3) -0.052(4)
N1D_2 N -0.204(6) -0.198(3) 0.052(4)
N1A_2 N 0.204(6) -0.198(3) 0.052(4)
N2D N 0.00000 0.114(4) 0.146(3)
N3D N 0.00000 0.335(2) 0.329(4)
C2D C 0.00000 0.004(6) 0.226(4)
C3D C 0.00000 0.374(1) 0.169(4)
C4D C 0.00000 0.101(4) 0.305(3)
C5D C 0.00000 0.431(2) 0.250(4)
loop_
_geom_bond_atom_site_label_1
_geom_bond_atom_site_label_2
_geom_bond_site_symmetry_1
_geom_bond_site_symmetry_2
Ni1 C1 1_555 1_555
Ni2 N1 1_555 1_555
C1 N1 1_555 1_555
N2 Ni2 1_555 1_555
N3 C4 1_555 1_555
C2 N2 1_555 1_555
C3 N2 1_555 1_555
C4 C2 1_555 1_555
C5 N3 1_555 1_555
Ni2_2 N1E 1_555 1_555
Ni2_3 N1D 1_555 1_555
Ni2_4 N1A 1_555 1_555
C1E Ni1 1_555 1_555
C1D Ni1 1_555 1_555
C1A Ni1 1_555 1_555
N1E C1E 1_555 1_555
N1D C1D 1_555 1_555
N1A C1A 1_555 1_555
N1E_2 Ni2 1_555 1_555
N1D_2 Ni2 1_555 1_555
N1A_2 Ni2 1_555 1_555
N2D Ni2 1_555 1_555
N3D C4D 1_555 1_555
C2D N2D 1_555 1_555
C3D N2D 1_555 1_555
C4D C2D 1_555 1_555
C5D N3D 1_555 1_555
C3 C5 1_555 1_555
C3D C5D 1_555 1_555

#END
