
#######################################################################
#
#                 Cambridge Crystallographic Data Centre
#                                CCDC 
#
#######################################################################
#
# If this CIF has been generated from an entry in the Cambridge 
# Structural Database, then it will include bibliographic, chemical, 
# crystal, experimental, refinement or atomic coordinate data resulting 
# from the CCDC's data processing and validation procedures.
#
#######################################################################

data_EWAVII
_symmetry_cell_setting           monoclinic
_symmetry_space_group_name_H-M   'P 21/c'
_symmetry_Int_Tables_number      14
_space_group_name_Hall           '-P 2ybc'
loop_
_symmetry_equiv_pos_site_id
_symmetry_equiv_pos_as_xyz
1 x,y,z
2 -x,1/2+y,1/2-z
3 -x,-y,-z
4 x,1/2-y,1/2+z
_cell_length_a                   14.8186(6)
_cell_length_b                   21.0218(8)
_cell_length_c                   22.1137(9)
_cell_angle_alpha                90
_cell_angle_beta                 131.022(2)
_cell_angle_gamma                90
_cell_volume                     5197.25
loop_
_atom_site_label
_atom_site_type_symbol
_atom_site_fract_x
_atom_site_fract_y
_atom_site_fract_z
Ge1 Ge 0.42864(8) 0.46614(4) 0.44005(5)
Ge2 Ge 0.55054(8) 0.37693(5) 0.44026(5)
Ge3 Ge 0.46894(9) 0.48439(5) 0.34324(5)
Sb1 Sb 0.17198(5) 0.38269(3) 0.28075(3)
Ge4 Ge 0.35447(8) 0.30682(4) 0.32083(5)
Ge5 Ge 0.26684(8) 0.42493(4) 0.21522(5)
Ge6 Ge 0.25524(8) 0.50428(4) 0.29971(5)
Ge7 Ge 0.36828(8) 0.35212(4) 0.43587(5)
Ge8 Ge 0.47343(8) 0.37297(5) 0.29618(5)
Ge1B Ge 0.57136(8) 0.53386(4) 0.55995(5)
Ge2B Ge 0.44946(8) 0.62307(5) 0.55974(5)
Ge3B Ge 0.53106(9) 0.51561(5) 0.65676(5)
Sb1B Sb 0.82802(5) 0.61731(3) 0.71925(3)
Ge4B Ge 0.64553(8) 0.69318(4) 0.67917(5)
Ge5B Ge 0.73316(8) 0.57507(4) 0.78478(5)
Ge6B Ge 0.74476(8) 0.49572(4) 0.70029(5)
Ge7B Ge 0.63172(8) 0.64788(4) 0.56413(5)
Ge8B Ge 0.52657(8) 0.62703(5) 0.70382(5)
K1 K 1.0000 0.0000 1.0000
O1 O 0.9889(5) -0.0627(3) 0.8819(3)
O2 O 0.8338(5) -0.1006(3) 0.9109(3)
O3 O 0.8194(5) -0.0160(3) 1.0036(3)
C1 C 0.9262(8) -0.1218(4) 0.8555(5)
H1 H 0.9749 -0.1546 0.8976
H2 H 0.9096 -0.1364 0.8065
C2 C 0.8098(8) -0.1115(5) 0.8382(5)
H3 H 0.7670 -0.0745 0.8021
H4 H 0.7580 -0.1494 0.8109
C3 C 0.7249(8) -0.0879(4) 0.8957(5)
H5 H 0.6716 -0.1255 0.8706
H6 H 0.6825 -0.0514 0.8586
C4 C 0.7554(8) -0.0733(4) 0.9726(5)
H7 H 0.6813 -0.0696 0.9642
H8 H 0.8043 -0.1082 1.0113
C5 C 0.8377(9) 0.0059(5) 1.0718(6)
H9 H 0.8880 -0.0249 1.1162
H10 H 0.7597 0.0092 1.0586
C6 C 1.1030(8) -0.0690(4) 0.9026(5)
H11 H 1.1532 -0.1001 0.9467
H12 H 1.0918 -0.0844 0.8558
K2 K 0.90456(18) 0.30910(10) 0.86376(10)
O4 O 1.1070(5) 0.2771(3) 0.8774(3)
O5 O 0.8816(5) 0.3021(3) 0.7265(3)
O6 O 0.6762(5) 0.2898(3) 0.7128(3)
O7 O 0.6970(6) 0.3032(3) 0.8488(4)
O8 O 0.9291(6) 0.2711(3) 0.9976(3)
O9 O 1.1331(6) 0.2968(3) 1.0133(3)
C7 C 1.0923(8) 0.2957(4) 0.8095(5)
H13 H 1.1579 0.2779 0.8135
H14 H 1.0946 0.3426 0.8071
C8 C 0.9742(8) 0.2710(4) 0.7357(5)
H15 H 0.9660 0.2790 0.6881
H16 H 0.9692 0.2246 0.7404
C9 C 0.7672(7) 0.2817(4) 0.6565(5)
H17 H 0.7605 0.2350 0.6585
H18 H 0.7571 0.2919 0.6087
C10 C 0.6725(7) 0.3136(4) 0.6504(4)
H19 H 0.6855 0.3601 0.6560
H20 H 0.5932 0.3048 0.5974
C11 C 0.5858(7) 0.3168(4) 0.7094(5)
H21 H 0.5065 0.3099 0.6557
H22 H 0.5989 0.3632 0.7194
C12 C 0.5905(9) 0.2857(5) 0.7716(6)
H23 H 0.5203 0.2988 0.7651
H24 H 0.5878 0.2389 0.7654
C13 C 0.7153(9) 0.2663(5) 0.9099(6)
H25 H 0.7225 0.2207 0.9024
H26 H 0.6464 0.2713 0.9074
C14 C 0.8286(10) 0.2888(5) 0.9903(6)
H27 H 0.8264 0.3356 0.9945
H28 H 0.8358 0.2691 1.0340
C15 C 1.0382(10) 0.2969(5) 1.0681(5)
H29 H 1.0487 0.2845 1.1156
H30 H 1.0352 0.3440 1.0648
C16 C 1.1412(9) 0.2731(4) 1.0770(5)
H31 H 1.2172 0.2873 1.1291
H32 H 1.1406 0.2260 1.0762
C17 C 1.2264(8) 0.2731(4) 1.0174(5)
H33 H 1.2219 0.2261 1.0138
H34 H 1.3046 0.2851 1.0694
C18 C 1.2162(8) 0.2996(5) 0.9506(6)
H35 H 1.2163 0.3467 0.9520
H36 H 1.2846 0.2855 0.9557
N1 N 0.8249(7) 0.0991(4) 0.9034(4)
H49 H 0.7595 0.0893 0.8981
H50 H 0.8566 0.1361 0.9326
N2 N 0.9575(6) 0.1744(3) 0.8773(4)
H51 H 1.0223 0.1723 0.8803
H52 H 0.9858 0.1632 0.9273
C25 C 0.7809(7) 0.1132(4) 0.8240(5)
H53 H 0.7325 0.1526 0.8039
H54 H 0.7289 0.0780 0.7871
C26 C 0.8817(8) 0.1214(4) 0.8259(5)
H55 H 0.9298 0.0819 0.8459
H56 H 0.8502 0.1292 0.7708
N3 N 0.9002(10) 0.4357(4) 0.9244(5)
H57 H 0.8913 0.4612 0.8870
H58 H 0.8243 0.4335 0.9070
C27 C 0.9497(14) 0.4829(8) 0.9873(11)
H59 H 0.8857 0.5139 0.9686
H60 H 0.9704 0.4610 1.0346
O1B O 1.0111(5) 0.0627(3) 1.1181(3)
O2B O 1.1662(5) 0.1006(3) 1.0891(3)
O3B O 1.1806(5) 0.0160(3) 0.9964(3)
C1B C 1.0738(8) 0.1218(4) 1.1445(5)
H1B H 1.0251 0.1546 1.1024
H2B H 1.0904 0.1364 1.1935
C2B C 1.1902(8) 0.1115(5) 1.1618(5)
H3B H 1.2330 0.0745 1.1979
H4B H 1.2420 0.1494 1.1891
C3B C 1.2751(8) 0.0879(4) 1.1043(5)
H5B H 1.3284 0.1255 1.1294
H6B H 1.3175 0.0514 1.1414
C4B C 1.2446(8) 0.0733(4) 1.0274(5)
H7B H 1.3187 0.0696 1.0358
H8B H 1.1957 0.1082 0.9887
C5B C 1.1623(9) -0.0059(5) 0.9282(6)
H9B H 1.1120 0.0249 0.8838
H10B H 1.2403 -0.0092 0.9414
C6B C 0.8970(8) 0.0690(4) 1.0974(5)
H11B H 0.8468 0.1001 1.0533
H12B H 0.9082 0.0844 1.1442
K2B K 1.09544(18) -0.30910(10) 1.13624(10)
K2B_2 K 1.09544(18) 0.69090(10) 1.13624(10)
O4B O 0.8930(5) -0.2771(3) 1.1226(3)
O5B O 1.1184(5) -0.3021(3) 1.2735(3)
O6B O 1.3238(5) -0.2898(3) 1.2872(3)
O7B O 1.3030(6) -0.3032(3) 1.1512(4)
O8B O 1.0709(6) -0.2711(3) 1.0024(3)
O9B O 0.8669(6) -0.2968(3) 0.9867(3)
C7B C 0.9077(8) -0.2957(4) 1.1905(5)
H13B H 0.8421 -0.2779 1.1865
H14B H 0.9054 -0.3426 1.1929
C8B C 1.0258(8) -0.2710(4) 1.2643(5)
H15B H 1.0340 -0.2790 1.3119
H16B H 1.0308 -0.2246 1.2596
C9B C 1.2328(7) -0.2817(4) 1.3435(5)
H17B H 1.2395 -0.2350 1.3415
H18B H 1.2429 -0.2919 1.3913
C10B C 1.3275(7) -0.3136(4) 1.3496(4)
H19B H 1.3145 -0.3601 1.3440
H20B H 1.4068 -0.3048 1.4026
C11B C 1.4142(7) -0.3168(4) 1.2906(5)
H21B H 1.4935 -0.3099 1.3443
H22B H 1.4011 -0.3632 1.2806
C12B C 1.4095(9) -0.2857(5) 1.2284(6)
H23B H 1.4797 -0.2988 1.2349
H24B H 1.4122 -0.2389 1.2346
C13B C 1.2847(9) -0.2663(5) 1.0901(6)
H25B H 1.2775 -0.2207 1.0976
H26B H 1.3536 -0.2713 1.0926
C14B C 1.1714(10) -0.2888(5) 1.0097(6)
H27B H 1.1736 -0.3356 1.0055
H28B H 1.1642 -0.2691 0.9660
C15B C 0.9618(10) -0.2969(5) 0.9319(5)
H29B H 0.9513 -0.2845 0.8844
H30B H 0.9648 -0.3440 0.9352
C16B C 0.8588(9) -0.2731(4) 0.9230(5)
H31B H 0.7828 -0.2873 0.8709
H32B H 0.8594 -0.2260 0.9238
C17B C 0.7736(8) -0.2731(4) 0.9826(5)
H33B H 0.7781 -0.2261 0.9862
H34B H 0.6954 -0.2851 0.9306
C18B C 0.7838(8) -0.2996(5) 1.0494(6)
H35B H 0.7837 -0.3467 1.0480
H36B H 0.7154 -0.2855 1.0443
N1B N 1.1751(7) -0.0991(4) 1.0966(4)
H49B H 1.2405 -0.0893 1.1019
H50B H 1.1434 -0.1361 1.0674
N2B N 1.0425(6) -0.1744(3) 1.1227(4)
H51B H 0.9777 -0.1723 1.1197
H52B H 1.0142 -0.1632 1.0727
C25B C 1.2191(7) -0.1132(4) 1.1760(5)
H53B H 1.2675 -0.1526 1.1961
H54B H 1.2711 -0.0780 1.2129
C26B C 1.1183(8) -0.1214(4) 1.1741(5)
H55B H 1.0702 -0.0819 1.1541
H56B H 1.1498 -0.1292 1.2292
N3B N 1.0998(10) 0.5643(4) 1.0756(5)
N3B_2 N 1.0998(10) -0.4357(4) 1.0756(5)
H57B H 1.1087 0.5388 1.1130
H57B_2 H 1.1087 -0.4612 1.1130
H58B H 1.1757 0.5665 1.0930
H58B_2 H 1.1757 -0.4335 1.0930
C27B C 1.0503(14) 0.5171(8) 1.0127(11)
H59B H 1.1143 0.4861 1.0314
H60B H 1.0296 0.5390 0.9654
K3 K 0.5000 1.0000 0.5000
O10 O 0.5114(5) 0.8729(3) 0.4783(3)
O11 O 0.4983(5) 0.9603(3) 0.3758(3)
O12 O 0.5458(5) 1.0886(3) 0.4257(3)
C19 C 0.4716(8) 0.8312(4) 0.5075(5)
H37 H 0.5016 0.7877 0.5131
H38 H 0.3831 0.8299 0.4691
C20 C 0.4728(8) 0.8557(4) 0.4030(5)
H39 H 0.3853 0.8618 0.3613
H40 H 0.4907 0.8103 0.4035
C21 C 0.5336(8) 0.8949(4) 0.3844(5)
H41 H 0.6214 0.8911 0.4280
H42 H 0.5125 0.8799 0.3341
C22 C 0.5627(8) 1.0007(4) 0.3646(5)
H43 H 0.5505 0.9871 0.3169
H44 H 0.6492 0.9985 0.4119
C23 C 0.5185(8) 1.0669(4) 0.3537(5)
H45 H 0.5567 1.0953 0.3404
H46 H 0.4309 1.0682 0.3086
C24 C 0.5175(8) 0.8549(4) 0.5873(5)
H47 H 0.6042 0.8639 0.6226
H48 H 0.5049 0.8223 0.6134
N4 N 0.7464(11) 0.9921(7) 0.6507(8)
H61 H 0.7466 1.0009 0.6916
H62 H 0.7713 0.9506 0.6573
N5 N 0.9276(12) 0.9590(7) 0.6386(10)
H63 H 0.9455 0.9392 0.6804
H64 H 0.9518 0.9436 0.6144
C28 C 0.8310(14) 1.0310(8) 0.6605(10)
H65 H 0.8700 1.0642 0.6992
C29 C 0.8563(10) 1.0186(6) 0.6091(7)
H66 H 0.9023 1.0542 0.6115
H67 H 0.7811 1.0134 0.5529
O10B O 0.4886(5) 1.1271(3) 0.5217(3)
O11B O 0.5017(5) 1.0397(3) 0.6242(3)
O12B O 0.4542(5) 0.9114(3) 0.5743(3)
C19B C 0.5284(8) 1.1688(4) 0.4925(5)
H37B H 0.4984 1.2123 0.4869
H38B H 0.6169 1.1701 0.5309
C20B C 0.5272(8) 1.1443(4) 0.5970(5)
H39B H 0.6147 1.1382 0.6387
H40B H 0.5093 1.1897 0.5965
C21B C 0.4664(8) 1.1051(4) 0.6156(5)
H41B H 0.3786 1.1089 0.5720
H42B H 0.4875 1.1201 0.6659
C22B C 0.4373(8) 0.9993(4) 0.6354(5)
H43B H 0.4495 1.0129 0.6831
H44B H 0.3508 1.0015 0.5881
C23B C 0.4815(8) 0.9331(4) 0.6463(5)
H45B H 0.4433 0.9047 0.6596
H46B H 0.5691 0.9318 0.6914
C24B C 0.4825(8) 1.1451(4) 0.4127(5)
H47B H 0.3958 1.1361 0.3774
H48B H 0.4951 1.1777 0.3866
N4B N 0.2536(11) 1.0079(7) 0.3493(8)
H61B H 0.2534 0.9991 0.3084
H62B H 0.2287 1.0494 0.3427
N5B N 0.0724(12) 1.0410(7) 0.3614(10)
H63B H 0.0545 1.0608 0.3196
H64B H 0.0482 1.0564 0.3856
C28B C 0.1690(14) 0.9690(8) 0.3395(10)
H65B H 0.1300 0.9358 0.3008
C29B C 0.1437(10) 0.9814(6) 0.3909(7)
H66B H 0.0977 0.9458 0.3885
H67B H 0.2189 0.9866 0.4471
loop_
_geom_bond_atom_site_label_1
_geom_bond_atom_site_label_2
_geom_bond_site_symmetry_1
_geom_bond_site_symmetry_2
Ge1 Ge2 1_555 1_555
Ge2 Ge3 1_555 1_555
Ge3 Ge1 1_555 1_555
Sb1 Ge4 1_555 1_555
Ge4 Ge2 1_555 1_555
Ge5 Ge3 1_555 1_555
Ge6 Ge1 1_555 1_555
Ge7 Ge1 1_555 1_555
Ge8 Ge2 1_555 1_555
K1 O1 1_555 1_555
O1 C1 1_555 1_555
O2 K1 1_555 1_555
O3 K1 1_555 1_555
C1 H1 1_555 1_555
H2 C1 1_555 1_555
C2 O2 1_555 1_555
H3 C2 1_555 1_555
H4 C2 1_555 1_555
C3 O2 1_555 1_555
H5 C3 1_555 1_555
H6 C3 1_555 1_555
C4 O3 1_555 1_555
H7 C4 1_555 1_555
H8 C4 1_555 1_555
C5 O3 1_555 1_555
H9 C5 1_555 1_555
H10 C5 1_555 1_555
C6 O1 1_555 1_555
H11 C6 1_555 1_555
H12 C6 1_555 1_555
K2 O4 1_555 1_555
O4 C7 1_555 1_555
O5 K2 1_555 1_555
O6 K2 1_555 1_555
O7 K2 1_555 1_555
O8 K2 1_555 1_555
O9 K2 1_555 1_555
C7 H13 1_555 1_555
H14 C7 1_555 1_555
C8 O5 1_555 1_555
H15 C8 1_555 1_555
H16 C8 1_555 1_555
C9 O5 1_555 1_555
H17 C9 1_555 1_555
H18 C9 1_555 1_555
C10 O6 1_555 1_555
H19 C10 1_555 1_555
H20 C10 1_555 1_555
C11 O6 1_555 1_555
H21 C11 1_555 1_555
H22 C11 1_555 1_555
C12 O7 1_555 1_555
H23 C12 1_555 1_555
H24 C12 1_555 1_555
C13 O7 1_555 1_555
H25 C13 1_555 1_555
H26 C13 1_555 1_555
C14 O8 1_555 1_555
H27 C14 1_555 1_555
H28 C14 1_555 1_555
C15 O8 1_555 1_555
H29 C15 1_555 1_555
H30 C15 1_555 1_555
C16 O9 1_555 1_555
H31 C16 1_555 1_555
H32 C16 1_555 1_555
C17 O9 1_555 1_555
H33 C17 1_555 1_555
H34 C17 1_555 1_555
C18 O4 1_555 1_555
H35 C18 1_555 1_555
H36 C18 1_555 1_555
K3 O10 1_555 1_555
O10 C19 1_555 1_555
O11 K3 1_555 1_555
O12 K3 1_555 1_555
C19 H37 1_555 1_555
H38 C19 1_555 1_555
C20 O10 1_555 1_555
H39 C20 1_555 1_555
H40 C20 1_555 1_555
C21 O11 1_555 1_555
H41 C21 1_555 1_555
H42 C21 1_555 1_555
C22 O11 1_555 1_555
H43 C22 1_555 1_555
H44 C22 1_555 1_555
C23 O12 1_555 1_555
H45 C23 1_555 1_555
H46 C23 1_555 1_555
C24 C19 1_555 1_555
H47 C24 1_555 1_555
H48 C24 1_555 1_555
N1 K1 1_555 1_555
H49 N1 1_555 1_555
H50 N1 1_555 1_555
N2 K2 1_555 1_555
H51 N2 1_555 1_555
H52 N2 1_555 1_555
C25 N1 1_555 1_555
H53 C25 1_555 1_555
H54 C25 1_555 1_555
C26 N2 1_555 1_555
H55 C26 1_555 1_555
H56 C26 1_555 1_555
N3 K2 1_555 1_555
H57 N3 1_555 1_555
H58 N3 1_555 1_555
C27 N3 1_555 1_555
H59 C27 1_555 1_555
H60 C27 1_555 1_555
N4 K3 1_555 1_555
H61 N4 1_555 1_555
H62 N4 1_555 1_555
N5 H63 1_555 1_555
H64 N5 1_555 1_555
C28 N4 1_555 1_555
H65 C28 1_555 1_555
C29 N5 1_555 1_555
H66 C29 1_555 1_555
H67 C29 1_555 1_555
Ge1B Ge1 1_555 1_555
Ge2B Ge1B 1_555 1_555
Ge3B Ge1B 1_555 1_555
Sb1B Ge4B 1_555 1_555
Ge4B Ge2B 1_555 1_555
Ge5B Ge3B 1_555 1_555
Ge6B Ge1B 1_555 1_555
Ge7B Ge1B 1_555 1_555
Ge8B Ge2B 1_555 1_555
O1B K1 1_555 1_555
O2B K1 1_555 1_555
O3B K1 1_555 1_555
C1B O1B 1_555 1_555
H1B C1B 1_555 1_555
H2B C1B 1_555 1_555
C2B O2B 1_555 1_555
H3B C2B 1_555 1_555
H4B C2B 1_555 1_555
C3B O2B 1_555 1_555
H5B C3B 1_555 1_555
H6B C3B 1_555 1_555
C4B O3B 1_555 1_555
H7B C4B 1_555 1_555
H8B C4B 1_555 1_555
C5B C6 1_555 1_555
H9B C5B 1_555 1_555
H10B C5B 1_555 1_555
C6B C5 1_555 1_555
H11B C6B 1_555 1_555
H12B C6B 1_555 1_555
K2B O4B 1_555 1_555
K2B_2 N3B 1_555 1_555
O4B C7B 1_555 1_555
O5B K2B 1_555 1_555
O6B K2B 1_555 1_555
O7B K2B 1_555 1_555
O8B K2B 1_555 1_555
O9B K2B 1_555 1_555
C7B H13B 1_555 1_555
H14B C7B 1_555 1_555
C8B O5B 1_555 1_555
H15B C8B 1_555 1_555
H16B C8B 1_555 1_555
C9B O5B 1_555 1_555
H17B C9B 1_555 1_555
H18B C9B 1_555 1_555
C10B O6B 1_555 1_555
H19B C10B 1_555 1_555
H20B C10B 1_555 1_555
C11B O6B 1_555 1_555
H21B C11B 1_555 1_555
H22B C11B 1_555 1_555
C12B O7B 1_555 1_555
H23B C12B 1_555 1_555
H24B C12B 1_555 1_555
C13B O7B 1_555 1_555
H25B C13B 1_555 1_555
H26B C13B 1_555 1_555
C14B O8B 1_555 1_555
H27B C14B 1_555 1_555
H28B C14B 1_555 1_555
C15B O8B 1_555 1_555
H29B C15B 1_555 1_555
H30B C15B 1_555 1_555
C16B O9B 1_555 1_555
H31B C16B 1_555 1_555
H32B C16B 1_555 1_555
C17B O9B 1_555 1_555
H33B C17B 1_555 1_555
H34B C17B 1_555 1_555
C18B O4B 1_555 1_555
H35B C18B 1_555 1_555
H36B C18B 1_555 1_555
O10B K3 1_555 1_555
O11B K3 1_555 1_555
O12B K3 1_555 1_555
C19B O10B 1_555 1_555
H37B C19B 1_555 1_555
H38B C19B 1_555 1_555
C20B O10B 1_555 1_555
H39B C20B 1_555 1_555
H40B C20B 1_555 1_555
C21B O11B 1_555 1_555
H41B C21B 1_555 1_555
H42B C21B 1_555 1_555
C22B O11B 1_555 1_555
H43B C22B 1_555 1_555
H44B C22B 1_555 1_555
C23B O12B 1_555 1_555
H45B C23B 1_555 1_555
H46B C23B 1_555 1_555
C24B O12 1_555 1_555
H47B C24B 1_555 1_555
H48B C24B 1_555 1_555
N1B K1 1_555 1_555
H49B N1B 1_555 1_555
H50B N1B 1_555 1_555
N2B K2B 1_555 1_555
H51B N2B 1_555 1_555
H52B N2B 1_555 1_555
C25B N1B 1_555 1_555
H53B C25B 1_555 1_555
H54B C25B 1_555 1_555
C26B N2B 1_555 1_555
H55B C26B 1_555 1_555
H56B C26B 1_555 1_555
N3B H57B 1_555 1_555
N3B_2 K2B 1_555 1_555
H57B_2 N3B_2 1_555 1_555
H58B N3B 1_555 1_555
H58B_2 N3B_2 1_555 1_555
C27B C27 1_555 1_555
H59B C27B 1_555 1_555
H60B C27B 1_555 1_555
N4B K3 1_555 1_555
H61B N4B 1_555 1_555
H62B N4B 1_555 1_555
N5B H63B 1_555 1_555
H64B N5B 1_555 1_555
C28B N4B 1_555 1_555
H65B C28B 1_555 1_555
C29B N5B 1_555 1_555
H66B C29B 1_555 1_555
H67B C29B 1_555 1_555
Ge2 Ge7 1_555 1_555
Ge3 Ge6 1_555 1_555
Ge3 Ge8 1_555 1_555
Sb1 Ge5 1_555 1_555
Sb1 Ge6 1_555 1_555
Sb1 Ge7 1_555 1_555
Ge4 Ge7 1_555 1_555
Ge4 Ge8 1_555 1_555
Ge5 Ge6 1_555 1_555
Ge5 Ge8 1_555 1_555
C1 C2 1_555 1_555
C3 C4 1_555 1_555
C7 C8 1_555 1_555
C9 C10 1_555 1_555
C11 C12 1_555 1_555
C13 C14 1_555 1_555
C15 C16 1_555 1_555
C17 C18 1_555 1_555
C20 C21 1_555 1_555
C22 C23 1_555 1_555
C24 O12B 1_555 1_555
C25 C26 1_555 1_555
C28 C29 1_555 1_555
Ge2B Ge3B 1_555 1_555
Ge2B Ge7B 1_555 1_555
Ge3B Ge6B 1_555 1_555
Ge3B Ge8B 1_555 1_555
Sb1B Ge5B 1_555 1_555
Sb1B Ge6B 1_555 1_555
Sb1B Ge7B 1_555 1_555
Ge4B Ge7B 1_555 1_555
Ge4B Ge8B 1_555 1_555
Ge5B Ge6B 1_555 1_555
Ge5B Ge8B 1_555 1_555
O1B C6B 1_555 1_555
O3B C5B 1_555 1_555
C1B C2B 1_555 1_555
C3B C4B 1_555 1_555
C7B C8B 1_555 1_555
C9B C10B 1_555 1_555
C11B C12B 1_555 1_555
C13B C14B 1_555 1_555
C15B C16B 1_555 1_555
C17B C18B 1_555 1_555
C19B C24B 1_555 1_555
C20B C21B 1_555 1_555
C22B C23B 1_555 1_555
C25B C26B 1_555 1_555
N3B C27B 1_555 1_555
C28B C29B 1_555 1_555

#END
