
#######################################################################
#
#                 Cambridge Crystallographic Data Centre
#                                CCDC 
#
#######################################################################
#
# If this CIF has been generated from an entry in the Cambridge 
# Structural Database, then it will include bibliographic, chemical, 
# crystal, experimental, refinement or atomic coordinate data resulting 
# from the CCDC's data processing and validation procedures.
#
#######################################################################

data_EWAWAB
_symmetry_cell_setting           monoclinic
_symmetry_space_group_name_H-M   'P 21/n'
_symmetry_Int_Tables_number      14
_space_group_name_Hall           '-P 2yn'
loop_
_symmetry_equiv_pos_site_id
_symmetry_equiv_pos_as_xyz
1 x,y,z
2 1/2-x,1/2+y,1/2-z
3 -x,-y,-z
4 1/2+x,1/2-y,1/2+z
_cell_length_a                   15.347(3)
_cell_length_b                   21.923(5)
_cell_length_c                   17.287(3)
_cell_angle_alpha                90
_cell_angle_beta                 90.963(11)
_cell_angle_gamma                90
_cell_volume                     5815.43
loop_
_atom_site_label
_atom_site_type_symbol
_atom_site_fract_x
_atom_site_fract_y
_atom_site_fract_z
Ge1 Ge 0.51136(9) 0.03368(7) 0.44020(8)
Ge2 Ge 0.38912(9) 0.12271(8) 0.44115(8)
Ge3 Ge 0.37313(9) 0.01528(7) 0.34387(9)
Bi1 Bi 0.61324(4) 0.11723(3) 0.28036(4)
Ge4 Ge 0.46445(9) 0.19226(7) 0.32119(9)
Ge5 Ge 0.44583(9) 0.07499(7) 0.21624(8)
Ge6 Ge 0.54168(9) -0.00585(7) 0.29978(9)
Ge7 Ge 0.56577(9) 0.14811(7) 0.43790(9)
Ge8 Ge 0.32027(9) 0.12627(8) 0.29775(9)
Ge1B Ge 0.48864(9) -0.03368(7) 0.55980(8)
Ge2B Ge 0.61088(9) -0.12271(8) 0.55885(8)
Ge3B Ge 0.62687(9) -0.01528(7) 0.65613(9)
Bi1B Bi 0.38676(4) -0.11723(3) 0.71964(4)
Ge4B Ge 0.53555(9) -0.19226(7) 0.67881(9)
Ge5B Ge 0.55417(9) -0.07499(7) 0.78376(8)
Ge6B Ge 0.45832(9) 0.00585(7) 0.70022(9)
Ge7B Ge 0.43423(9) -0.14811(7) 0.56210(9)
Ge8B Ge 0.67973(9) -0.12627(8) 0.70225(9)
K1 K 0.5000 0.5000 0.0000
O1 O 0.6840(6) 0.5146(5) 0.0039(6)
O2 O 0.6067(6) 0.4352(5) 0.1170(6)
O3 O 0.4231(6) 0.3991(5) 0.0882(6)
C1 C 0.7341(9) 0.4935(8) 0.0721(9)
H1 H 0.7277 0.5228 0.1152
H2 H 0.7967 0.4905 0.0596
C2 C 0.6993(9) 0.4305(8) 0.0959(9)
H3 H 0.7053 0.4015 0.0524
H4 H 0.7338 0.4147 0.1405
C3 C 0.5699(9) 0.3778(8) 0.1413(10)
H5 H 0.6017 0.3625 0.1876
H6 H 0.5752 0.3472 0.0995
C4 C 0.4709(10) 0.3880(8) 0.1605(9)
H7 H 0.4473 0.3515 0.1866
H8 H 0.4647 0.4234 0.1956
C5 C 0.3288(9) 0.4126(8) 0.1014(10)
H9 H 0.3238 0.4476 0.1372
H10 H 0.3009 0.3768 0.1256
C6 C 0.7181(9) 0.5726(8) -0.0257(10)
H11 H 0.7084 0.6055 0.0123
H12 H 0.7815 0.5690 -0.0342
K2 K 0.5430(2) 0.80745(17) 0.13676(19)
O4 O 0.7317(6) 0.7764(5) 0.1256(6)
O5 O 0.6560(6) 0.8011(4) 0.2746(6)
O6 O 0.4640(6) 0.7891(4) 0.2850(5)
O7 O 0.3499(6) 0.8041(5) 0.1487(6)
O8 O 0.4334(7) 0.7713(5) 0.0011(6)
O9 O 0.6245(7) 0.7972(5) -0.0118(6)
C7 C 0.7831(9) 0.7944(7) 0.1936(9)
H13 H 0.7876 0.8394 0.1961
H14 H 0.8427 0.7774 0.1905
C8 C 0.7389(8) 0.7705(7) 0.2654(9)
H15 H 0.7295 0.7260 0.2606
H16 H 0.7766 0.7780 0.3115
C9 C 0.6100(9) 0.7808(7) 0.3444(8)
H17 H 0.6451 0.7910 0.3912
H18 H 0.6018 0.7360 0.3429
C10 C 0.5218(9) 0.8124(7) 0.3476(8)
H19 H 0.4950 0.8046 0.3984
H20 H 0.5295 0.8570 0.3417
C11 C 0.3762(9) 0.8164(7) 0.2893(9)
H21 H 0.3792 0.8609 0.2799
H22 H 0.3516 0.8096 0.3412
C12 C 0.3181(9) 0.7851(8) 0.2261(10)
H23 H 0.3217 0.7402 0.2314
H24 H 0.2566 0.7976 0.2319
C13 C 0.3094(10) 0.7672(8) 0.0862(11)
H25 H 0.2452 0.7713 0.0877
H26 H 0.3244 0.7237 0.0936
C14 C 0.3420(10) 0.7890(9) 0.0087(11)
H27 H 0.3066 0.7706 -0.0337
H28 H 0.3365 0.8339 0.0051
C15 C 0.4736(13) 0.7973(9) -0.0679(11)
H29 H 0.4736 0.8423 -0.0640
H30 H 0.4387 0.7858 -0.1143
C16 C 0.5667(13) 0.7747(9) -0.0767(9)
H31 H 0.5671 0.7295 -0.0772
H32 H 0.5897 0.7891 -0.1266
C17 C 0.7136(11) 0.7720(8) -0.0151(10)
H33 H 0.7398 0.7822 -0.0654
H34 H 0.7117 0.7271 -0.0102
C18 C 0.7697(10) 0.7996(8) 0.0521(10)
H35 H 0.8312 0.7865 0.0479
H36 H 0.7674 0.8447 0.0505
N1 N 0.4220(8) 0.5975(6) 0.0966(7)
H49 H 0.4237 0.6329 0.0682
H50 H 0.3641 0.5878 0.1022
N2 N 0.5808(8) 0.6742(6) 0.1229(7)
H51 H 0.5584 0.6637 0.0750
H52 H 0.6404 0.6723 0.1184
C25 C 0.4580(9) 0.6126(8) 0.1769(10)
H53 H 0.4425 0.5797 0.2134
H54 H 0.4317 0.6511 0.1953
C26 C 0.5583(9) 0.6195(7) 0.1748(8)
H55 H 0.5819 0.6262 0.2278
H56 H 0.5848 0.5818 0.1540
N3 N 0.4762(13) 0.9346(9) 0.0806(11)
H57 H 0.4222 0.9338 0.1029
H58 H 0.5090 0.9587 0.1136
C27 C 0.4537(17) 0.9908(16) 0.006(2)
H59 H 0.4271 0.9725 -0.0416
H60 H 0.4171 1.0249 0.0240
O1B O 0.3160(6) 0.4854(5) -0.0039(6)
O2B O 0.3933(6) 0.5648(5) -0.1170(6)
O3B O 0.5769(6) 0.6009(5) -0.0882(6)
C1B C 0.2659(9) 0.5065(8) -0.0721(9)
H1B H 0.2723 0.4772 -0.1152
H2B H 0.2033 0.5095 -0.0596
C2B C 0.3007(9) 0.5695(8) -0.0959(9)
H3B H 0.2947 0.5985 -0.0524
H4B H 0.2662 0.5853 -0.1405
C3B C 0.4301(9) 0.6222(8) -0.1413(10)
H5B H 0.3983 0.6375 -0.1876
H6B H 0.4248 0.6528 -0.0995
C4B C 0.5291(10) 0.6120(8) -0.1605(9)
H7B H 0.5527 0.6485 -0.1866
H8B H 0.5353 0.5766 -0.1956
C5B C 0.6712(9) 0.5874(8) -0.1014(10)
H9B H 0.6762 0.5524 -0.1372
H10B H 0.6991 0.6232 -0.1256
C6B C 0.2819(9) 0.4274(8) 0.0257(10)
H11B H 0.2916 0.3945 -0.0123
H12B H 0.2185 0.4310 0.0342
K2B K 0.4570(2) 0.19255(17) -0.13676(19)
K2B_2 K 0.4570(2) 1.19255(17) -0.13676(19)
O4B O 0.2683(6) 0.2236(5) -0.1256(6)
O5B O 0.3440(6) 0.1989(4) -0.2746(6)
O6B O 0.5360(6) 0.2109(4) -0.2850(5)
O7B O 0.6501(6) 0.1959(5) -0.1487(6)
O8B O 0.5666(7) 0.2287(5) -0.0011(6)
O9B O 0.3755(7) 0.2028(5) 0.0118(6)
C7B C 0.2169(9) 0.2056(7) -0.1936(9)
H13B H 0.2124 0.1606 -0.1961
H14B H 0.1573 0.2226 -0.1905
C8B C 0.2611(8) 0.2295(7) -0.2654(9)
H15B H 0.2705 0.2740 -0.2606
H16B H 0.2234 0.2220 -0.3115
C9B C 0.3900(9) 0.2192(7) -0.3444(8)
H17B H 0.3549 0.2090 -0.3912
H18B H 0.3982 0.2640 -0.3429
C10B C 0.4782(9) 0.1876(7) -0.3476(8)
H19B H 0.5050 0.1954 -0.3984
H20B H 0.4705 0.1430 -0.3417
C11B C 0.6238(9) 0.1836(7) -0.2893(9)
H21B H 0.6208 0.1391 -0.2799
H22B H 0.6484 0.1904 -0.3412
C12B C 0.6819(9) 0.2149(8) -0.2261(10)
H23B H 0.6783 0.2598 -0.2314
H24B H 0.7434 0.2024 -0.2319
C13B C 0.6906(10) 0.2328(8) -0.0862(11)
H25B H 0.7548 0.2287 -0.0877
H26B H 0.6756 0.2763 -0.0936
C14B C 0.6580(10) 0.2110(9) -0.0087(11)
H27B H 0.6934 0.2294 0.0337
H28B H 0.6635 0.1661 -0.0051
C15B C 0.5264(13) 0.2027(9) 0.0679(11)
H29B H 0.5264 0.1577 0.0640
H30B H 0.5613 0.2142 0.1143
C16B C 0.4333(13) 0.2253(9) 0.0767(9)
H31B H 0.4329 0.2705 0.0772
H32B H 0.4103 0.2109 0.1266
C17B C 0.2864(11) 0.2280(8) 0.0151(10)
H33B H 0.2602 0.2178 0.0654
H34B H 0.2883 0.2729 0.0102
C18B C 0.2303(10) 0.2004(8) -0.0521(10)
H35B H 0.1688 0.2135 -0.0479
H36B H 0.2326 0.1553 -0.0505
N1B N 0.5780(8) 0.4025(6) -0.0966(7)
H49B H 0.5763 0.3671 -0.0682
H50B H 0.6359 0.4122 -0.1022
N2B N 0.4192(8) 0.3258(6) -0.1229(7)
H51B H 0.4416 0.3363 -0.0750
H52B H 0.3596 0.3277 -0.1184
C25B C 0.5420(9) 0.3874(8) -0.1769(10)
H53B H 0.5575 0.4203 -0.2134
H54B H 0.5683 0.3489 -0.1953
C26B C 0.4417(9) 0.3805(7) -0.1748(8)
H55B H 0.4181 0.3738 -0.2278
H56B H 0.4152 0.4182 -0.1540
N3B N 0.5238(13) 1.0654(9) -0.0806(11)
N3B_2 N 0.5238(13) 0.0654(9) -0.0806(11)
H57B H 0.5778 1.0662 -0.1029
H57B_2 H 0.5778 0.0662 -0.1029
H58B H 0.4910 1.0413 -0.1136
H58B_2 H 0.4910 0.0413 -0.1136
C27B C 0.5463(17) 1.0092(16) -0.006(2)
H59B H 0.5729 1.0275 0.0416
H60B H 0.5829 0.9751 -0.0240
K3 K 0.0000 0.0000 1.0000
O10 O -0.1197(6) 0.0876(4) 0.9240(5)
O11 O 0.0326(5) 0.1275(4) 1.0199(5)
O12 O 0.1207(6) 0.0403(4) 1.1260(5)
C19 C -0.1636(10) 0.0662(7) 0.8526(8)
H37 H -0.1223 0.0672 0.8092
H38 H -0.2133 0.0933 0.8396
C20 C -0.0717(9) 0.1451(6) 0.9127(8)
H39 H -0.1108 0.1760 0.8888
H40 H -0.0223 0.1382 0.8776
C21 C -0.0365(10) 0.1689(7) 0.9933(9)
H41 H -0.0132 0.2108 0.9880
H42 H -0.0842 0.1698 1.0311
C22 C 0.0693(9) 0.1458(7) 1.0966(8)
H43 H 0.0241 0.1418 1.1365
H44 H 0.0882 0.1889 1.0949
C23 C 0.1460(9) 0.1055(7) 1.1172(8)
H45 H 0.1901 0.1089 1.0763
H46 H 0.1730 0.1200 1.1663
C24 C -0.1961(10) 0.0011(7) 0.8644(10)
H47 H -0.2320 -0.0118 0.8192
H48 H -0.2328 -0.0008 0.9109
N4 N 0.0966(10) 0.0127(10) 0.8506(12)
H61 H 0.0572 0.0072 0.8106
H62 H 0.1166 0.0521 0.8475
N5 N 0.2906(15) 0.0432(10) 0.8585(16)
H63 H 0.3391 0.0534 0.8925
H64 H 0.2531 0.0749 0.8625
C28 C 0.2507(14) -0.0154(11) 0.8911(13)
H65 H 0.2934 -0.0493 0.8905
H66 H 0.2313 -0.0091 0.9448
C29 C 0.1728(15) -0.0294(13) 0.8373(14)
H67 H 0.1912 -0.0255 0.7829
H68 H 0.1540 -0.0721 0.8456
O10B O 0.1197(6) -0.0876(4) 1.0760(5)
O11B O -0.0326(5) -0.1275(4) 0.9801(5)
O12B O -0.1207(6) -0.0403(4) 0.8740(5)
C19B C 0.1636(10) -0.0662(7) 1.1474(8)
H37B H 0.1223 -0.0672 1.1908
H38B H 0.2133 -0.0933 1.1604
C20B C 0.0717(9) -0.1451(6) 1.0873(8)
H39B H 0.1108 -0.1760 1.1112
H40B H 0.0223 -0.1382 1.1224
C21B C 0.0365(10) -0.1689(7) 1.0067(9)
H41B H 0.0132 -0.2108 1.0120
H42B H 0.0842 -0.1698 0.9689
C22B C -0.0693(9) -0.1458(7) 0.9034(8)
H43B H -0.0241 -0.1418 0.8635
H44B H -0.0882 -0.1889 0.9051
C23B C -0.1460(9) -0.1055(7) 0.8828(8)
H45B H -0.1901 -0.1089 0.9237
H46B H -0.1730 -0.1200 0.8337
C24B C 0.1961(10) -0.0011(7) 1.1356(10)
H47B H 0.2320 0.0118 1.1808
H48B H 0.2328 0.0008 1.0891
N4B N -0.0966(10) -0.0127(10) 1.1494(12)
H61B H -0.0572 -0.0072 1.1894
H62B H -0.1166 -0.0521 1.1525
N5B N -0.2906(15) -0.0432(10) 1.1415(16)
H63B H -0.3391 -0.0534 1.1075
H64B H -0.2531 -0.0749 1.1375
C28B C -0.2507(14) 0.0154(11) 1.1089(13)
H65B H -0.2934 0.0493 1.1095
H66B H -0.2313 0.0091 1.0552
C29B C -0.1728(15) 0.0294(13) 1.1627(14)
H67B H -0.1912 0.0255 1.2171
H68B H -0.1540 0.0721 1.1544
loop_
_geom_bond_atom_site_label_1
_geom_bond_atom_site_label_2
_geom_bond_site_symmetry_1
_geom_bond_site_symmetry_2
Ge1 Ge2 1_555 1_555
Ge2 Ge3 1_555 1_555
Ge3 Ge1 1_555 1_555
Bi1 Ge4 1_555 1_555
Ge4 Ge2 1_555 1_555
Ge5 Ge3 1_555 1_555
Ge6 Ge1 1_555 1_555
Ge7 Ge1 1_555 1_555
Ge8 Ge2 1_555 1_555
K1 O1 1_555 1_555
O1 C1 1_555 1_555
O2 K1 1_555 1_555
O3 K1 1_555 1_555
C1 H1 1_555 1_555
H2 C1 1_555 1_555
C2 O2 1_555 1_555
H3 C2 1_555 1_555
H4 C2 1_555 1_555
C3 O2 1_555 1_555
H5 C3 1_555 1_555
H6 C3 1_555 1_555
C4 O3 1_555 1_555
H7 C4 1_555 1_555
H8 C4 1_555 1_555
C5 O3 1_555 1_555
H9 C5 1_555 1_555
H10 C5 1_555 1_555
C6 O1 1_555 1_555
H11 C6 1_555 1_555
H12 C6 1_555 1_555
K2 O4 1_555 1_555
O4 C7 1_555 1_555
O5 K2 1_555 1_555
O6 K2 1_555 1_555
O7 K2 1_555 1_555
O8 K2 1_555 1_555
O9 K2 1_555 1_555
C7 H13 1_555 1_555
H14 C7 1_555 1_555
C8 O5 1_555 1_555
H15 C8 1_555 1_555
H16 C8 1_555 1_555
C9 O5 1_555 1_555
H17 C9 1_555 1_555
H18 C9 1_555 1_555
C10 O6 1_555 1_555
H19 C10 1_555 1_555
H20 C10 1_555 1_555
C11 O6 1_555 1_555
H21 C11 1_555 1_555
H22 C11 1_555 1_555
C12 O7 1_555 1_555
H23 C12 1_555 1_555
H24 C12 1_555 1_555
C13 O7 1_555 1_555
H25 C13 1_555 1_555
H26 C13 1_555 1_555
C14 O8 1_555 1_555
H27 C14 1_555 1_555
H28 C14 1_555 1_555
C15 O8 1_555 1_555
H29 C15 1_555 1_555
H30 C15 1_555 1_555
C16 O9 1_555 1_555
H31 C16 1_555 1_555
H32 C16 1_555 1_555
C17 O9 1_555 1_555
H33 C17 1_555 1_555
H34 C17 1_555 1_555
C18 O4 1_555 1_555
H35 C18 1_555 1_555
H36 C18 1_555 1_555
K3 O10 1_555 1_555
O10 C19 1_555 1_555
O11 K3 1_555 1_555
O12 K3 1_555 1_555
C19 H37 1_555 1_555
H38 C19 1_555 1_555
C20 O10 1_555 1_555
H39 C20 1_555 1_555
H40 C20 1_555 1_555
C21 O11 1_555 1_555
H41 C21 1_555 1_555
H42 C21 1_555 1_555
C22 O11 1_555 1_555
H43 C22 1_555 1_555
H44 C22 1_555 1_555
C23 O12 1_555 1_555
H45 C23 1_555 1_555
H46 C23 1_555 1_555
C24 C19 1_555 1_555
H47 C24 1_555 1_555
H48 C24 1_555 1_555
N1 K1 1_555 1_555
H49 N1 1_555 1_555
H50 N1 1_555 1_555
N2 K2 1_555 1_555
H51 N2 1_555 1_555
H52 N2 1_555 1_555
C25 N1 1_555 1_555
H53 C25 1_555 1_555
H54 C25 1_555 1_555
C26 N2 1_555 1_555
H55 C26 1_555 1_555
H56 C26 1_555 1_555
N3 K2 1_555 1_555
H57 N3 1_555 1_555
H58 N3 1_555 1_555
C27 N3 1_555 1_555
H59 C27 1_555 1_555
H60 C27 1_555 1_555
N4 K3 1_555 1_555
H61 N4 1_555 1_555
H62 N4 1_555 1_555
N5 H63 1_555 1_555
H64 N5 1_555 1_555
C28 N5 1_555 1_555
H65 C28 1_555 1_555
H66 C28 1_555 1_555
C29 N4 1_555 1_555
H67 C29 1_555 1_555
H68 C29 1_555 1_555
Ge1B Ge1 1_555 1_555
Ge2B Ge1B 1_555 1_555
Ge3B Ge1B 1_555 1_555
Bi1B Ge4B 1_555 1_555
Ge4B Ge2B 1_555 1_555
Ge5B Ge3B 1_555 1_555
Ge6B Ge1B 1_555 1_555
Ge7B Ge1B 1_555 1_555
Ge8B Ge2B 1_555 1_555
O1B K1 1_555 1_555
O2B K1 1_555 1_555
O3B K1 1_555 1_555
C1B O1B 1_555 1_555
H1B C1B 1_555 1_555
H2B C1B 1_555 1_555
C2B O2B 1_555 1_555
H3B C2B 1_555 1_555
H4B C2B 1_555 1_555
C3B O2B 1_555 1_555
H5B C3B 1_555 1_555
H6B C3B 1_555 1_555
C4B O3B 1_555 1_555
H7B C4B 1_555 1_555
H8B C4B 1_555 1_555
C5B C6 1_555 1_555
H9B C5B 1_555 1_555
H10B C5B 1_555 1_555
C6B C5 1_555 1_555
H11B C6B 1_555 1_555
H12B C6B 1_555 1_555
K2B O4B 1_555 1_555
K2B_2 N3B 1_555 1_555
O4B C7B 1_555 1_555
O5B K2B 1_555 1_555
O6B K2B 1_555 1_555
O7B K2B 1_555 1_555
O8B K2B 1_555 1_555
O9B K2B 1_555 1_555
C7B H13B 1_555 1_555
H14B C7B 1_555 1_555
C8B O5B 1_555 1_555
H15B C8B 1_555 1_555
H16B C8B 1_555 1_555
C9B O5B 1_555 1_555
H17B C9B 1_555 1_555
H18B C9B 1_555 1_555
C10B O6B 1_555 1_555
H19B C10B 1_555 1_555
H20B C10B 1_555 1_555
C11B O6B 1_555 1_555
H21B C11B 1_555 1_555
H22B C11B 1_555 1_555
C12B O7B 1_555 1_555
H23B C12B 1_555 1_555
H24B C12B 1_555 1_555
C13B O7B 1_555 1_555
H25B C13B 1_555 1_555
H26B C13B 1_555 1_555
C14B O8B 1_555 1_555
H27B C14B 1_555 1_555
H28B C14B 1_555 1_555
C15B O8B 1_555 1_555
H29B C15B 1_555 1_555
H30B C15B 1_555 1_555
C16B O9B 1_555 1_555
H31B C16B 1_555 1_555
H32B C16B 1_555 1_555
C17B O9B 1_555 1_555
H33B C17B 1_555 1_555
H34B C17B 1_555 1_555
C18B O4B 1_555 1_555
H35B C18B 1_555 1_555
H36B C18B 1_555 1_555
O10B K3 1_555 1_555
O11B K3 1_555 1_555
O12B K3 1_555 1_555
C19B O10B 1_555 1_555
H37B C19B 1_555 1_555
H38B C19B 1_555 1_555
C20B O10B 1_555 1_555
H39B C20B 1_555 1_555
H40B C20B 1_555 1_555
C21B O11B 1_555 1_555
H41B C21B 1_555 1_555
H42B C21B 1_555 1_555
C22B O11B 1_555 1_555
H43B C22B 1_555 1_555
H44B C22B 1_555 1_555
C23B O12B 1_555 1_555
H45B C23B 1_555 1_555
H46B C23B 1_555 1_555
C24B O12 1_555 1_555
H47B C24B 1_555 1_555
H48B C24B 1_555 1_555
N1B K1 1_555 1_555
H49B N1B 1_555 1_555
H50B N1B 1_555 1_555
N2B K2B 1_555 1_555
H51B N2B 1_555 1_555
H52B N2B 1_555 1_555
C25B N1B 1_555 1_555
H53B C25B 1_555 1_555
H54B C25B 1_555 1_555
C26B N2B 1_555 1_555
H55B C26B 1_555 1_555
H56B C26B 1_555 1_555
N3B H57B 1_555 1_555
N3B_2 K2B 1_555 1_555
H57B_2 N3B_2 1_555 1_555
H58B N3B 1_555 1_555
H58B_2 N3B_2 1_555 1_555
C27B C27 1_555 1_555
H59B C27B 1_555 1_555
H60B C27B 1_555 1_555
N4B K3 1_555 1_555
H61B N4B 1_555 1_555
H62B N4B 1_555 1_555
N5B H63B 1_555 1_555
H64B N5B 1_555 1_555
C28B N5B 1_555 1_555
H65B C28B 1_555 1_555
H66B C28B 1_555 1_555
C29B N4B 1_555 1_555
H67B C29B 1_555 1_555
H68B C29B 1_555 1_555
Ge2 Ge7 1_555 1_555
Ge3 Ge6 1_555 1_555
Ge3 Ge8 1_555 1_555
Bi1 Ge5 1_555 1_555
Bi1 Ge6 1_555 1_555
Bi1 Ge7 1_555 1_555
Ge4 Ge7 1_555 1_555
Ge4 Ge8 1_555 1_555
Ge5 Ge6 1_555 1_555
Ge5 Ge8 1_555 1_555
C1 C2 1_555 1_555
C3 C4 1_555 1_555
C7 C8 1_555 1_555
C9 C10 1_555 1_555
C11 C12 1_555 1_555
C13 C14 1_555 1_555
C15 C16 1_555 1_555
C17 C18 1_555 1_555
C20 C21 1_555 1_555
C22 C23 1_555 1_555
C24 O12B 1_555 1_555
C25 C26 1_555 1_555
C28 C29 1_555 1_555
Ge2B Ge3B 1_555 1_555
Ge2B Ge7B 1_555 1_555
Ge3B Ge6B 1_555 1_555
Ge3B Ge8B 1_555 1_555
Bi1B Ge5B 1_555 1_555
Bi1B Ge6B 1_555 1_555
Bi1B Ge7B 1_555 1_555
Ge4B Ge7B 1_555 1_555
Ge4B Ge8B 1_555 1_555
Ge5B Ge6B 1_555 1_555
Ge5B Ge8B 1_555 1_555
O1B C6B 1_555 1_555
O3B C5B 1_555 1_555
C1B C2B 1_555 1_555
C3B C4B 1_555 1_555
C7B C8B 1_555 1_555
C9B C10B 1_555 1_555
C11B C12B 1_555 1_555
C13B C14B 1_555 1_555
C15B C16B 1_555 1_555
C17B C18B 1_555 1_555
C19B C24B 1_555 1_555
C20B C21B 1_555 1_555
C22B C23B 1_555 1_555
C25B C26B 1_555 1_555
N3B C27B 1_555 1_555
C28B C29B 1_555 1_555

#END
