
#######################################################################
#
#                 Cambridge Crystallographic Data Centre
#                                CCDC 
#
#######################################################################
#
# If this CIF has been generated from an entry in the Cambridge 
# Structural Database, then it will include bibliographic, chemical, 
# crystal, experimental, refinement or atomic coordinate data resulting 
# from the CCDC's data processing and validation procedures.
#
#######################################################################

data_EWAXOP
_symmetry_cell_setting           triclinic
_symmetry_space_group_name_H-M   'P -1'
_symmetry_Int_Tables_number      2
_space_group_name_Hall           '-P 1'
loop_
_symmetry_equiv_pos_site_id
_symmetry_equiv_pos_as_xyz
1 x,y,z
2 -x,-y,-z
_cell_length_a                   7.960(5)
_cell_length_b                   10.122(5)
_cell_length_c                   12.782(5)
_cell_angle_alpha                67.234(5)
_cell_angle_beta                 84.407(5)
_cell_angle_gamma                80.782(5)
_cell_volume                     936.651
loop_
_atom_site_label
_atom_site_type_symbol
_atom_site_fract_x
_atom_site_fract_y
_atom_site_fract_z
Cu1 Cu 0.67684(3) 0.34365(3) 0.83929(2)
S1 S 0.26293(6) 0.53134(5) 0.84156(4)
O1 O 0.58767(19) 0.29369(16) 0.99768(12)
H1 H 0.4812 0.3314 0.9901
H2 H 0.6392 0.3003 1.0496
O2 O 0.7994(2) 0.49027(19) 0.85507(14)
H3 H 0.7828 0.5074 0.9184
H4 H 0.9111 0.4851 0.8355
N1 N 0.5364(2) -0.00363(19) 0.79066(15)
O3 O 0.2364(2) 0.67758(17) 0.84522(14)
N2 N 0.7762(2) 0.38390(19) 0.68299(15)
O4 O 0.42559(18) 0.50938(17) 0.78254(13)
O5 O 0.26684(19) 0.42414(17) 0.96192(12)
O6 O 0.12254(19) 0.51292(19) 0.78445(14)
C1 C 1.0368(3) 0.1327(2) 0.49397(19)
N3 N 0.5676(2) 0.1837(2) 0.82995(16)
N4 N 0.9337(2) 0.34306(19) 0.54503(16)
C2 C 0.9270(3) 0.3280(2) 0.65412(19)
H5 H 1.0164 0.2841 0.7031
C3 C 0.5342(3) -0.0516(2) 0.61544(18)
C4 C 0.5421(3) 0.0925(2) 0.54618(19)
H6 H 0.5704 0.1553 0.5769
C5 C 1.0577(3) 0.0115(2) 0.5936(2)
H7 H 1.0969 0.0190 0.6570
C6 C 0.7789(3) 0.4125(2) 0.5007(2)
H8 H 0.7461 0.4375 0.4269
C7 C 0.3792(3) 0.0452(3) 0.8250(2)
H9 H 0.2785 0.0069 0.8305
C8 C 0.5758(3) -0.1126(2) 0.73950(19)
H10 H 0.5112 -0.1923 0.7803
H11 H 0.6959 -0.1503 0.7469
C9 C 0.4916(3) -0.1435(2) 0.56793(19)
H12 H 0.4857 -0.2402 0.6132
C10 C 1.0732(3) 0.2771(3) 0.4886(2)
H13 H 1.1790 0.2642 0.5253
H14 H 1.0866 0.3412 0.4099
C11 C 0.6835(3) 0.4373(2) 0.58707(19)
H15 H 0.5721 0.4836 0.5818
C12 C 0.3992(3) 0.1609(3) 0.8496(2)
H16 H 0.3131 0.2159 0.8755
C13 C 0.9790(3) 0.1205(2) 0.40007(19)
H17 H 0.9647 0.2010 0.3327
C14 C 0.6449(3) 0.0821(2) 0.79447(19)
H18 H 0.7604 0.0716 0.7746
O8 O 0.9363(3) 0.1457(3) 0.9098(2)
H21 H 0.9988 0.1672 0.9605
H22 H 1.0087 0.1437 0.8457
C9A C 0.5084(3) 0.1435(2) 0.43207(19)
C3A C 0.4658(3) 0.0516(2) 0.38456(18)
C4A C 0.4579(3) -0.0925(2) 0.45382(19)
H6A H 0.4296 -0.1553 0.4231
C8A C 0.4242(3) 0.1126(2) 0.26050(19)
N1A N 0.4636(2) 0.00363(19) 0.20934(15)
C7A C 0.6208(3) -0.0452(3) 0.1750(2)
H9A H 0.7215 -0.0069 0.1695
C12A C 0.6008(3) -0.1609(3) 0.1504(2)
N3A N 0.4324(2) -0.1837(2) 0.17005(16)
C14A C 0.3551(3) -0.0821(2) 0.20553(19)
H18A H 0.2396 -0.0716 0.2254
H16A H 0.6869 -0.2159 0.1245
H10A H 0.4888 0.1923 0.2197
H11A H 0.3041 0.1503 0.2531
H12A H 0.5143 0.2402 0.3868
C13A C 1.0210(3) -0.1205(2) 0.59993(19)
C1A C 0.9632(3) -0.1327(2) 0.50603(19)
C5A C 0.9423(3) -0.0115(2) 0.4064(2)
H7A H 0.9031 -0.0190 0.3430
C10A C 0.9268(3) -0.2771(3) 0.5114(2)
N4A N 1.0663(2) -0.34306(19) 0.45497(16)
C2A C 1.0730(3) -0.3280(2) 0.34588(19)
N2A N 1.2238(2) -0.38390(19) 0.31701(15)
C11A C 1.3165(3) -0.4373(2) 0.41293(19)
C6A C 1.2211(3) -0.4125(2) 0.4993(2)
H8A H 1.2539 -0.4375 0.5731
H15A H 1.4279 -0.4836 0.4182
H5A H 0.9836 -0.2841 0.2969
H13A H 0.8210 -0.2642 0.4747
H14A H 0.9134 -0.3412 0.5901
H17A H 1.0353 -0.2010 0.6673
Cu1A Cu 1.32316(3) -0.34365(3) 0.16071(2)
O1A O 1.41233(19) -0.29369(16) 0.00232(12)
H1A H 1.5188 -0.3314 0.0099
H2A H 1.3608 -0.3003 -0.0496
O2A O 1.2006(2) -0.49027(19) 0.14493(14)
H3A H 1.2172 -0.5074 0.0816
H4A H 1.0889 -0.4851 0.1645
S1A S 1.73707(6) -0.53134(5) 0.15844(4)
O3A O 1.7636(2) -0.67758(17) 0.15478(14)
O4A O 1.57441(18) -0.50938(17) 0.21746(13)
O5A O 1.73316(19) -0.42414(17) 0.03808(12)
O6A O 1.87746(19) -0.51292(19) 0.21555(14)
O8A O 1.0637(3) -0.1457(3) 0.0902(2)
H21A H 1.0012 -0.1672 0.0395
H22A H 0.9913 -0.1437 0.1543
Cu1A_2 Cu 0.32316(3) -0.34365(3) 0.16071(2)
N3A_2 N 1.4324(2) -0.1837(2) 0.17005(16)
O7 O 0.9359(2) 0.8024(2) 0.92121(19)
H19 H 1.0276 0.7650 0.8923
H20 H 0.8726 0.7329 0.9631
loop_
_geom_bond_atom_site_label_1
_geom_bond_atom_site_label_2
_geom_bond_site_symmetry_1
_geom_bond_site_symmetry_2
Cu1 O1 1_555 1_555
S1 O3 1_555 1_555
O1 H1 1_555 1_555
H2 O1 1_555 1_555
O2 Cu1 1_555 1_555
H3 O2 1_555 1_555
H4 O2 1_555 1_555
N1 C7 1_555 1_555
N2 Cu1 1_555 1_555
O4 Cu1 1_555 1_555
O5 S1 1_555 1_555
O6 S1 1_555 1_555
C1 C5 1_555 1_555
N3 Cu1 1_555 1_555
N4 C2 1_555 1_555
C2 N2 1_555 1_555
H5 C2 1_555 1_555
C3 C4 1_555 1_555
C4 H6 1_555 1_555
C5 H7 1_555 1_555
C6 N4 1_555 1_555
H8 C6 1_555 1_555
C7 H9 1_555 1_555
C8 N1 1_555 1_555
H10 C8 1_555 1_555
H11 C8 1_555 1_555
C9 C3 1_555 1_555
H12 C9 1_555 1_555
C10 C1 1_555 1_555
H13 C10 1_555 1_555
H14 C10 1_555 1_555
C11 N2 1_555 1_555
H15 C11 1_555 1_555
C12 N3 1_555 1_555
H16 C12 1_555 1_555
C13 C1 1_555 1_555
H17 C13 1_555 1_555
C14 N1 1_555 1_555
H18 C14 1_555 1_555
O7 H19 1_555 1_555
H20 O7 1_555 1_555
O8 Cu1 1_555 1_555
H21 O8 1_555 1_555
H22 O8 1_555 1_555
C9A C4 1_555 1_555
C3A C9A 1_555 1_555
C4A C9 1_555 1_555
H6A C4A 1_555 1_555
C8A C3A 1_555 1_555
N1A C8A 1_555 1_555
C7A N1A 1_555 1_555
H9A C7A 1_555 1_555
C12A C7A 1_555 1_555
N3A C12A 1_555 1_555
C14A N1A 1_555 1_555
H18A C14A 1_555 1_555
H16A C12A 1_555 1_555
H10A C8A 1_555 1_555
H11A C8A 1_555 1_555
H12A C9A 1_555 1_555
C13A C5 1_555 1_555
C1A C13A 1_555 1_555
C5A C13 1_555 1_555
H7A C5A 1_555 1_555
C10A C1A 1_555 1_555
N4A C10A 1_555 1_555
C2A N4A 1_555 1_555
N2A C2A 1_555 1_555
C11A N2A 1_555 1_555
C6A N4A 1_555 1_555
H8A C6A 1_555 1_555
H15A C11A 1_555 1_555
H5A C2A 1_555 1_555
H13A C10A 1_555 1_555
H14A C10A 1_555 1_555
H17A C13A 1_555 1_555
Cu1A N2A 1_555 1_555
O1A Cu1A 1_555 1_555
H1A O1A 1_555 1_555
H2A O1A 1_555 1_555
O2A Cu1A 1_555 1_555
H3A O2A 1_555 1_555
H4A O2A 1_555 1_555
S1A O3A 1_555 1_555
O4A Cu1A 1_555 1_555
O5A S1A 1_555 1_555
O6A S1A 1_555 1_555
O8A Cu1A 1_555 1_555
H21A O8A 1_555 1_555
H22A O8A 1_555 1_555
Cu1A_2 N3A 1_555 1_555
N3A_2 Cu1A 1_555 1_555
S1 O4 1_555 1_555
N3 C14 1_555 1_555
N4 C10 1_555 1_555
C3 C8 1_555 1_555
C6 C11 1_555 1_555
C7 C12 1_555 1_555
C3A C4A 1_555 1_555
N3A C14A 1_555 1_555
C1A C5A 1_555 1_555
C11A C6A 1_555 1_555
S1A O4A 1_555 1_555

#END
