
#######################################################################
#
#                 Cambridge Crystallographic Data Centre
#                                CCDC 
#
#######################################################################
#
# If this CIF has been generated from an entry in the Cambridge 
# Structural Database, then it will include bibliographic, chemical, 
# crystal, experimental, refinement or atomic coordinate data resulting 
# from the CCDC's data processing and validation procedures.
#
#######################################################################

data_EWAZIL
_symmetry_cell_setting           triclinic
_symmetry_space_group_name_H-M   'P -1'
_symmetry_Int_Tables_number      2
_space_group_name_Hall           '-P 1'
loop_
_symmetry_equiv_pos_site_id
_symmetry_equiv_pos_as_xyz
1 x,y,z
2 -x,-y,-z
_cell_length_a                   6.9412(2)
_cell_length_b                   8.3316(4)
_cell_length_c                   10.8530(5)
_cell_angle_alpha                90.749(2)
_cell_angle_beta                 107.803(2)
_cell_angle_gamma                91.078(2)
_cell_volume                     597.365
loop_
_atom_site_label
_atom_site_type_symbol
_atom_site_fract_x
_atom_site_fract_y
_atom_site_fract_z
Pb1 Pb 0.06568(12) 0.55505(9) 0.71012(8)
Pb2 Pb -0.24735(12) 0.36939(9) 0.90452(8)
S1 S -0.5823(8) 0.2501(6) 0.1568(5)
C1 C -0.441(3) 0.145(2) 0.2969(19)
C2 C -0.385(4) 0.219(3) 0.419(2)
H1 H -0.4175 0.3248 0.4279
C3 C -0.281(3) 0.136(3) 0.525(2)
C4 C -0.231(3) -0.027(2) 0.511(2)
H2 H -0.1625 -0.0843 0.5839
C5 C -0.285(3) -0.099(3) 0.390(2)
C6 C -0.391(3) -0.009(3) 0.282(2)
H3 H -0.4267 -0.0566 0.1994
C7 C -0.217(3) 0.216(2) 0.6562(19)
C8 C -0.232(3) -0.267(2) 0.373(2)
O1 O -0.161(3) 0.137(2) 0.7537(17)
O2 O -0.235(2) 0.3678(17) 0.6622(15)
O3 O -0.130(3) -0.346(2) 0.465(2)
O4 O -0.284(3) -0.3268(19) 0.2602(16)
O5 O -0.665(3) 0.135(2) 0.0565(17)
O6 O -0.736(2) 0.333(2) 0.1966(16)
O7 O -0.442(2) 0.3627(18) 0.1272(17)
O8 O 0.081(2) 0.4411(16) 0.9099(13)
H4 H 0.1610 0.3437 0.9199
O9 O -0.109(2) 0.141(2) 1.0795(19)
H5 H -0.1380 0.1679 1.1580
H6 H -0.1655 0.0511 1.0495
O3_2 O -0.130(3) 0.654(2) 0.465(2)
O3A O 0.130(3) 0.346(2) 0.535(2)
O4A O 0.284(3) 0.3268(19) 0.7398(16)
O7A O 0.442(2) 0.6373(18) 0.8728(17)
O6A O -0.264(2) 0.667(2) 0.8034(16)
O8A O -0.081(2) 0.5589(16) 1.0901(13)
Pb1_2 Pb 0.06568(12) -0.44495(9) 0.71012(8)
Pb1A Pb -0.06568(12) -0.55505(9) 0.28988(8)
Pb2A Pb -0.75265(12) 0.63061(9) 0.09548(8)
Pb1A_2 Pb -0.06568(12) 0.44495(9) 0.28988(8)
Pb2A_2 Pb 0.24735(12) 0.63061(9) 1.09548(8)
H4A H -0.1610 0.6563 1.0801
loop_
_geom_bond_atom_site_label_1
_geom_bond_atom_site_label_2
_geom_bond_site_symmetry_1
_geom_bond_site_symmetry_2
Pb1 O2 1_555 1_555
Pb2 O1 1_555 1_555
S1 C1 1_555 1_555
C1 C2 1_555 1_555
C2 H1 1_555 1_555
C3 C2 1_555 1_555
C4 C3 1_555 1_555
H2 C4 1_555 1_555
C5 C4 1_555 1_555
C6 C1 1_555 1_555
H3 C6 1_555 1_555
C7 C3 1_555 1_555
C8 C5 1_555 1_555
O1 C7 1_555 1_555
O2 Pb2 1_555 1_555
O3 C8 1_555 1_555
O4 C8 1_555 1_555
O5 S1 1_555 1_555
O6 S1 1_555 1_555
O7 S1 1_555 1_555
O8 Pb1 1_555 1_555
H4 O8 1_555 1_555
O9 Pb2 1_555 1_555
H5 O9 1_555 1_555
H6 O9 1_555 1_555
O3_2 Pb1 1_555 1_555
O3A Pb1 1_555 1_555
O4A Pb1 1_555 1_555
O7A Pb1 1_555 1_555
O6A Pb2 1_555 1_555
O8A Pb2 1_555 1_555
Pb1_2 O3 1_555 1_555
Pb1A O3 1_555 1_555
Pb2A O6 1_555 1_555
Pb1A_2 O7 1_555 1_555
Pb2A_2 O8 1_555 1_555
H4A O8A 1_555 1_555
Pb2 O8 1_555 1_555
C5 C6 1_555 1_555
C7 O2 1_555 1_555
O4 Pb1A 1_555 1_555
O3_2 Pb1A_2 1_555 1_555
O3A Pb1A_2 1_555 1_555
O8A Pb2A_2 1_555 1_555

#END
