
#######################################################################
#
#                 Cambridge Crystallographic Data Centre
#                                CCDC 
#
#######################################################################
#
# If this CIF has been generated from an entry in the Cambridge 
# Structural Database, then it will include bibliographic, chemical, 
# crystal, experimental, refinement or atomic coordinate data resulting 
# from the CCDC's data processing and validation procedures.
#
#######################################################################

data_EWEBUE
_symmetry_cell_setting           monoclinic
_symmetry_space_group_name_H-M   'P 21/n'
_symmetry_Int_Tables_number      14
_space_group_name_Hall           '-P 2yn'
loop_
_symmetry_equiv_pos_site_id
_symmetry_equiv_pos_as_xyz
1 x,y,z
2 1/2-x,1/2+y,1/2-z
3 -x,-y,-z
4 1/2+x,1/2-y,1/2+z
_cell_length_a                   12.4145(17)
_cell_length_b                   7.2458(9)
_cell_length_c                   22.323(3)
_cell_angle_alpha                90
_cell_angle_beta                 104.8072(5)
_cell_angle_gamma                90
_cell_volume                     1941.34
loop_
_atom_site_label
_atom_site_type_symbol
_atom_site_fract_x
_atom_site_fract_y
_atom_site_fract_z
Ag1 Ag 0.754675(16) 0.66551(3) 0.741748(8)
Mo1 Mo 0.828046(14) 1.17144(2) 0.648197(8)
S1 S 0.98888(5) 1.26766(8) 0.61832(3)
S2 S 0.76851(5) 1.09802(8) 0.54145(2)
S3 S 0.94458(4) 1.27744(7) 0.74561(2)
S4 S 0.88632(4) 0.87284(7) 0.69290(2)
S5 S 0.73227(4) 0.46382(7) 0.64326(3)
S6 S 0.64560(4) 0.05140(7) 0.64305(3)
C1 C 0.96876(19) 1.2413(2) 0.53893(11)
C2 C 1.0513(2) 1.2960(3) 0.50988(13)
C3 C 1.0331(2) 1.2729(3) 0.44665(13)
C4 C 0.9348(2) 1.1960(3) 0.41217(13)
C5 C 0.8524(2) 1.1413(3) 0.44004(12)
C6 C 0.8693(2) 1.1651(3) 0.50436(11)
C7 C 1.04246(18) 1.0982(3) 0.76745(10)
C8 C 1.1487(2) 1.1341(3) 0.80567(12)
C9 C 1.2246(2) 0.9928(4) 0.82301(13)
C10 C 1.1957(2) 0.8129(3) 0.80362(13)
C11 C 1.0910(2) 0.7747(3) 0.76570(12)
C12 C 1.01439(18) 0.9177(3) 0.74665(10)
C13 C 0.59097(18) 0.4100(3) 0.60970(10)
C14 C 0.5157(2) 0.5499(3) 0.58362(12)
C15 C 0.4084(2) 0.5038(4) 0.55139(13)
C16 C 0.3748(2) 0.3210(4) 0.54482(14)
C17 C 0.4466(2) 0.1822(3) 0.57229(13)
C18 C 0.55544(18) 0.2265(3) 0.60559(10)
H1 H 1.1183 1.3480 0.5332
H2 H 1.0880 1.3098 0.4269
H3 H 0.9237 1.1807 0.3692
H4 H 0.7860 1.0888 0.4163
H5 H 1.1684 1.2549 0.8195
H6 H 1.2962 1.0182 0.8481
H7 H 1.2474 0.7169 0.8163
H8 H 1.0716 0.6529 0.7528
H9 H 0.5380 0.6742 0.5880
H10 H 0.3578 0.5974 0.5338
H11 H 0.3025 0.2914 0.5215
H12 H 0.4227 0.0586 0.5687
Ag1A Ag 0.745325(16) 1.16551(3) 0.758252(8)
Ag1A_2 Ag 0.745325(16) 0.16551(3) 0.758252(8)
Mo1A Mo 0.671954(14) 0.67144(2) 0.851803(8)
Mo1_2 Mo 0.828046(14) 0.17144(2) 0.648197(8)
S3A S 0.55542(4) 0.77744(7) 0.75439(2)
S5_2 S 0.73227(4) 1.46382(7) 0.64326(3)
S6A S 0.85440(4) 0.55140(7) 0.85695(3)
S6_2 S 0.64560(4) 1.05140(7) 0.64305(3)
loop_
_geom_bond_atom_site_label_1
_geom_bond_atom_site_label_2
_geom_bond_site_symmetry_1
_geom_bond_site_symmetry_2
Ag1 S4 1_555 1_555
Mo1 S1 1_555 1_555
S1 C1 1_555 1_555
S2 Mo1 1_555 1_555
S3 Mo1 1_555 1_555
S4 Mo1 1_555 1_555
S5 Ag1 1_555 1_555
S6 C18 1_555 1_555
C1 C2 1_555 1_555
C2 C3 1_555 1_555
C3 C4 1_555 1_555
C4 C5 1_555 1_555
C5 C6 1_555 1_555
C6 S2 1_555 1_555
C7 S3 1_555 1_555
C8 C7 1_555 1_555
C9 C8 1_555 1_555
C10 C9 1_555 1_555
C11 C10 1_555 1_555
C12 S4 1_555 1_555
C13 S5 1_555 1_555
C14 C13 1_555 1_555
C15 C14 1_555 1_555
C16 C15 1_555 1_555
C17 C16 1_555 1_555
C18 C13 1_555 1_555
H1 C2 1_555 1_555
H2 C3 1_555 1_555
H3 C4 1_555 1_555
H4 C5 1_555 1_555
H5 C8 1_555 1_555
H6 C9 1_555 1_555
H7 C10 1_555 1_555
H8 C11 1_555 1_555
H9 C14 1_555 1_555
H10 C15 1_555 1_555
H11 C16 1_555 1_555
H12 C17 1_555 1_555
Ag1A Mo1 1_555 1_555
Ag1A_2 S6 1_555 1_555
Mo1A Ag1 1_555 1_555
Mo1_2 S5 1_555 1_555
S3A Ag1 1_555 1_555
S5_2 Mo1 1_555 1_555
S6A Ag1 1_555 1_555
S6_2 Mo1 1_555 1_555
S3 Ag1A 1_555 1_555
S6 Mo1_2 1_555 1_555
C1 C6 1_555 1_555
C7 C12 1_555 1_555
C11 C12 1_555 1_555
C17 C18 1_555 1_555
Ag1A S6_2 1_555 1_555
Ag1A_2 Mo1_2 1_555 1_555
Mo1A S3A 1_555 1_555
Mo1A S6A 1_555 1_555

#END
