
#######################################################################
#
#                 Cambridge Crystallographic Data Centre
#                                CCDC 
#
#######################################################################
#
# If this CIF has been generated from an entry in the Cambridge 
# Structural Database, then it will include bibliographic, chemical, 
# crystal, experimental, refinement or atomic coordinate data resulting 
# from the CCDC's data processing and validation procedures.
#
#######################################################################

data_EWEBUD
_symmetry_cell_setting           triclinic
_symmetry_space_group_name_H-M   'P -1'
_symmetry_Int_Tables_number      2
_space_group_name_Hall           '-P 1'
loop_
_symmetry_equiv_pos_site_id
_symmetry_equiv_pos_as_xyz
1 x,y,z
2 -x,-y,-z
_cell_length_a                   7.3748(15)
_cell_length_b                   9.969(2)
_cell_length_c                   12.069(2)
_cell_angle_alpha                69.22(3)
_cell_angle_beta                 76.12(3)
_cell_angle_gamma                76.62(3)
_cell_volume                     794.831
loop_
_atom_site_label
_atom_site_type_symbol
_atom_site_fract_x
_atom_site_fract_y
_atom_site_fract_z
Mo1 Mo 0.01913(13) 0.95921(10) 0.14046(7)
Mo2 Mo 0.41719(12) 0.98715(9) -0.13209(7)
Cu1 Cu 0.38842(19) 0.70247(14) 0.29475(11)
O1 O 0.1604(10) 0.9414(8) -0.0135(6)
O2 O -0.2240(10) 0.9819(8) 0.2321(6)
O3 O 0.4397(11) 1.3476(9) -0.1594(7)
O4 O 0.5595(11) 1.0997(9) -0.2495(6)
O5 O 0.5187(13) 0.8172(9) -0.1316(7)
N1 N 0.2551(14) 0.7077(10) 0.4592(8)
O6 O 0.2237(12) 1.2079(9) -0.1258(7)
O7 O 0.1159(11) 1.0859(10) 0.1591(7)
O8 O 0.1195(12) 0.7893(10) 0.2281(7)
N2 N 0.3548(15) 0.4924(11) 0.3722(8)
O9 O 0.5000 1.0000 0.0000
C1 C 0.1331(16) 1.4095(12) -0.0542(9)
C2 C 0.2078(19) 0.8278(14) 0.4947(11)
H1 H 0.2455 0.9149 0.4431
C3 C 0.2010(16) 0.5818(15) 0.5352(10)
C4 C 0.2776(16) 1.3121(11) -0.1161(9)
C5 C 0.1882(18) 1.5112(12) -0.0204(10)
H2 H 0.3157 1.5183 -0.0335
C6 C 0.244(2) 0.3154(15) 0.5548(10)
H3 H 0.1841 0.2935 0.6347
C7 C 0.2678(16) 0.4549(13) 0.4889(9)
C8 C -0.0530(18) 1.3977(13) -0.0331(11)
H4 H -0.0897 1.3284 -0.0545
C9 C 0.0921(18) 0.5711(14) 0.6491(11)
H5 H 0.0522 0.4842 0.6993
C10 C 0.402(2) 0.2418(14) 0.3850(12)
H6 H 0.4492 0.1701 0.3482
C11 C 0.4216(19) 0.3864(14) 0.3216(11)
H7 H 0.4829 0.4101 0.2419
C12 C 0.310(2) 0.2070(15) 0.5026(11)
H8 H 0.2935 0.1117 0.5463
C13 C 0.103(2) 0.8207(16) 0.6085(12)
H9 H 0.0723 0.9032 0.6326
C14 C 0.0452(19) 0.6950(14) 0.6848(10)
H10 H -0.0253 0.6916 0.7605
C8A C 0.0530(18) 1.6023(13) 0.0331(11)
C1A C -0.1331(16) 1.5905(12) 0.0542(9)
C4A C -0.2776(16) 1.6879(11) 0.1161(9)
O3A O -0.4397(11) 1.6524(9) 0.1594(7)
O6A O -0.2237(12) 1.7921(9) 0.1258(7)
C5A C -0.1882(18) 1.4888(12) 0.0204(10)
H2A H -0.3157 1.4817 0.0335
H4A H 0.0897 1.6716 0.0545
O1A O -0.1604(10) 1.0586(8) 0.0135(6)
Mo1A Mo -0.01913(13) 1.04079(10) -0.14046(7)
Mo2A Mo -0.41719(12) 1.01285(9) 0.13209(7)
O2A O 0.2240(10) 1.0181(8) -0.2321(6)
O4A O 0.4405(11) 0.9003(9) 0.2495(6)
O7A O -0.1159(11) 0.9141(10) -0.1591(7)
O8A O -0.1195(12) 1.2107(10) -0.2281(7)
O5A O -0.5187(13) 1.1828(9) 0.1316(7)
Cu1A Cu 0.61158(19) 1.29753(14) -0.29475(11)
N1A N 0.7449(14) 1.2923(10) -0.4592(8)
N2A N 0.6452(15) 1.5076(11) -0.3722(8)
C2A C 0.7922(19) 1.1722(14) -0.4947(11)
H1A H 0.7545 1.0851 -0.4431
C3A C 0.7990(16) 1.4182(15) -0.5352(10)
C6A C 0.756(2) 1.6846(15) -0.5548(10)
H3A H 0.8159 1.7065 -0.6347
C7A C 0.7322(16) 1.5451(13) -0.4889(9)
C9A C 0.9079(18) 1.4289(14) -0.6491(11)
H5A H 0.9478 1.5158 -0.6993
C10A C 0.598(2) 1.7582(14) -0.3850(12)
H6A H 0.5508 1.8299 -0.3482
C11A C 0.5784(19) 1.6136(14) -0.3216(11)
H7A H 0.5171 1.5899 -0.2419
C12A C 0.690(2) 1.7930(15) -0.5026(11)
H8A H 0.7065 1.8883 -0.5463
C13A C 0.897(2) 1.1793(16) -0.6085(12)
H9A H 0.9277 1.0968 -0.6326
C14A C 0.9548(19) 1.3050(14) -0.6848(10)
H10A H 1.0253 1.3084 -0.7605
O3A_2 O 0.5603(11) 0.6524(9) 0.1594(7)
Mo2A_2 Mo 0.58281(12) 1.01285(9) 0.13209(7)
Cu1_2 Cu -0.61158(19) 1.70247(14) 0.29475(11)
Mo2A_3 Mo -0.41719(12) 2.01285(9) 0.13209(7)
O4A_2 O -0.5595(11) 0.9003(9) 0.2495(6)
O6A_2 O -0.2237(12) 0.7921(9) 0.1258(7)
O9_2 O -0.5000 1.0000 0.0000
Cu1A_2 Cu -0.38842(19) 1.29753(14) -0.29475(11)
O8A_2 O 0.8805(12) 1.2107(10) -0.2281(7)
loop_
_geom_bond_atom_site_label_1
_geom_bond_atom_site_label_2
_geom_bond_site_symmetry_1
_geom_bond_site_symmetry_2
Mo1 O1 1_555 1_555
Mo2 O1 1_555 1_555
Cu1 N1 1_555 1_555
O1 Mo1A 1_555 1_555
O2 Mo1 1_555 1_555
O3 C4 1_555 1_555
O4 Mo2 1_555 1_555
O5 Mo2 1_555 1_555
N1 C2 1_555 1_555
O6 Mo2 1_555 1_555
O7 Mo1 1_555 1_555
O8 Mo1 1_555 1_555
N2 Cu1 1_555 1_555
O9 Mo2 1_555 1_555
C1 C4 1_555 1_555
C2 H1 1_555 1_555
C3 N1 1_555 1_555
C4 O6 1_555 1_555
C5 C1 1_555 1_555
H2 C5 1_555 1_555
C6 H3 1_555 1_555
C7 N2 1_555 1_555
C8 C1 1_555 1_555
H4 C8 1_555 1_555
C9 C3 1_555 1_555
H5 C9 1_555 1_555
C10 H6 1_555 1_555
C11 N2 1_555 1_555
H7 C11 1_555 1_555
C12 C6 1_555 1_555
H8 C12 1_555 1_555
C13 C2 1_555 1_555
H9 C13 1_555 1_555
C14 C9 1_555 1_555
H10 C14 1_555 1_555
C8A C5 1_555 1_555
C1A C8A 1_555 1_555
C4A C1A 1_555 1_555
O3A C4A 1_555 1_555
O6A C4A 1_555 1_555
C5A C8 1_555 1_555
H2A C5A 1_555 1_555
H4A C8A 1_555 1_555
O1A Mo1 1_555 1_555
Mo1A O1A 1_555 1_555
Mo2A O2 1_555 1_555
O2A Mo2 1_555 1_555
O4A Cu1 1_555 1_555
O7A Mo1A 1_555 1_555
O8A Mo1A 1_555 1_555
O5A Mo2A 1_555 1_555
Cu1A O3 1_555 1_555
N1A Cu1A 1_555 1_555
N2A Cu1A 1_555 1_555
C2A N1A 1_555 1_555
H1A C2A 1_555 1_555
C3A N1A 1_555 1_555
C6A H3A 1_555 1_555
C7A N2A 1_555 1_555
C9A C3A 1_555 1_555
H5A C9A 1_555 1_555
C10A H6A 1_555 1_555
C11A N2A 1_555 1_555
H7A C11A 1_555 1_555
C12A C6A 1_555 1_555
H8A C12A 1_555 1_555
C13A C2A 1_555 1_555
H9A C13A 1_555 1_555
C14A C9A 1_555 1_555
H10A C14A 1_555 1_555
O3A_2 Cu1 1_555 1_555
Mo2A_2 O9 1_555 1_555
Cu1_2 O3A 1_555 1_555
Mo2A_3 O6A 1_555 1_555
O4A_2 Mo2A 1_555 1_555
O6A_2 Mo2A 1_555 1_555
O9_2 Mo2A 1_555 1_555
Cu1A_2 O8A 1_555 1_555
O8A_2 Cu1A 1_555 1_555
Cu1 O8 1_555 1_555
O4 Cu1A 1_555 1_555
C3 C7 1_555 1_555
C6 C7 1_555 1_555
C10 C11 1_555 1_555
C10 C12 1_555 1_555
C13 C14 1_555 1_555
C1A C5A 1_555 1_555
O1A Mo2A 1_555 1_555
Mo1A O2A 1_555 1_555
O4A Mo2A_2 1_555 1_555
C3A C7A 1_555 1_555
C6A C7A 1_555 1_555
C10A C11A 1_555 1_555
C10A C12A 1_555 1_555
C13A C14A 1_555 1_555

#END
