
#######################################################################
#
#                 Cambridge Crystallographic Data Centre
#                                CCDC 
#
#######################################################################
#
# If this CIF has been generated from an entry in the Cambridge 
# Structural Database, then it will include bibliographic, chemical, 
# crystal, experimental, refinement or atomic coordinate data resulting 
# from the CCDC's data processing and validation procedures.
#
#######################################################################

data_EWEBIS
_symmetry_cell_setting           triclinic
_symmetry_space_group_name_H-M   'P -1'
_symmetry_Int_Tables_number      2
_space_group_name_Hall           '-P 1'
loop_
_symmetry_equiv_pos_site_id
_symmetry_equiv_pos_as_xyz
1 x,y,z
2 -x,-y,-z
_cell_length_a                   10.4956
_cell_length_b                   11.5297
_cell_length_c                   12.3573
_cell_angle_alpha                86.8696
_cell_angle_beta                 114.2716
_cell_angle_gamma                71.6244
_cell_volume                     1264.02
loop_
_atom_site_label
_atom_site_type_symbol
_atom_site_fract_x
_atom_site_fract_y
_atom_site_fract_z
O1 O 0.00000 0.50000 0.50000
Y1 Y 0.21396 0.36037 0.61102
Y2 Y 0.03623 0.60803 0.63431
Y3 Y 0.10021 0.58800 0.42134
O2 O 0.11155 0.41867 0.72732
O3 O 0.05447 0.27046 0.53928
O4 O 0.23865 0.53846 0.61370
O5 O 0.18832 0.39099 0.42897
N1 N 0.02990 0.77806 0.24899
O6 O 0.11092 0.77945 0.36116
O7 O 0.03931 0.67216 0.21533
O8 O -0.06646 0.88222 0.17208
C1 C 0.39639 0.47508 1.01802
C2 C 0.55054 0.40444 1.08696
C3 C 0.35214 0.56394 0.92970
C4 C 0.19874 0.62648 0.85242
O12 O 0.09081 0.59301 0.87131
O13 O 0.15019 0.72488 0.75544
C5 C 0.40182 0.16835 0.81085
C6 C 0.46844 0.14371 0.93772
C7 C 0.60948 0.15160 1.00457
C8 C 0.67683 0.12582 1.13137
C9 C 0.60449 0.09180 1.19403
C10 C 0.46321 0.08420 1.12724
C11 C 0.39595 0.10976 1.00033
C12 C 0.67214 0.06625 1.32092
O14 O 0.46837 0.19770 0.75428
O15 O 0.27427 0.16081 0.75029
O16 O 0.80043 0.07276 1.38103
O17 O 0.60632 0.03638 1.37795
H1 H 0.16994 0.38407 0.81602
H2 H 0.07182 0.18023 0.54618
H3 H 0.33242 0.55358 0.65976
H4 H 0.26159 0.34755 0.39964
H5 H 0.31077 0.45297 1.04104
H6 H 0.58833 0.31789 1.15854
H7 H 0.65864 0.19156 0.95985
H8 H 0.79157 0.13235 1.18487
H9 H 0.40244 0.05702 1.17646
H10 H 0.29211 0.10032 0.95392
H11 H 0.79014 0.16246 1.38615
Y1A Y -0.21396 0.63963 0.38898
Y2A Y -0.03623 0.39197 0.36569
Y2A_2 Y 0.96377 0.39197 1.36569
Y3A Y -0.10021 0.41200 0.57866
O2A O -0.11155 0.58133 0.27268
O3A O -0.05447 0.72954 0.46072
O4A O -0.23865 0.46154 0.38630
O5A O -0.18832 0.60901 0.57103
N1A N -0.02990 0.22194 0.75101
O6A O -0.11092 0.22055 0.63884
O7A O -0.03931 0.32784 0.78467
O8A O 0.06646 0.11778 0.82792
C1A C 0.60361 0.52492 0.98198
C2A C 0.44946 0.59556 0.91304
C3A C 0.64786 0.43606 1.07030
C4A C 0.80126 0.37352 1.14758
O12A O 0.90919 0.40699 1.12869
O12A_2 O -0.09081 0.40699 0.12869
O13A O 0.84981 0.27512 1.24456
O13A_2 O -0.15019 0.27512 0.24456
C5A C -0.40182 0.83165 0.18915
C6A C -0.46844 0.85629 0.06228
C7A C -0.60948 0.84840 -0.00457
C8A C -0.67683 0.87418 -0.13137
C9A C -0.60449 0.90820 -0.19403
C10A C -0.46321 0.91580 -0.12724
C11A C -0.39595 0.89024 -0.00033
C12A C -0.67214 0.93375 -0.32092
O14A O -0.46837 0.80230 0.24572
O15A O -0.27427 0.83919 0.24971
O16A O -0.80043 0.92724 -0.38103
O17A O -0.60632 0.96362 -0.37795
H1A H -0.16994 0.61593 0.18398
H2A H -0.07182 0.81977 0.45382
H3A H -0.33242 0.44642 0.34024
H4A H -0.26159 0.65245 0.60036
H5A H 0.68923 0.54703 0.95896
H6A H 0.41167 0.68211 0.84146
H7A H -0.65864 0.80844 0.04015
H8A H -0.79157 0.86765 -0.18487
H9A H -0.40244 0.94298 -0.17646
H10A H -0.29211 0.89968 0.04608
H11A H -0.79014 0.83754 -0.38615
N2 N 0.13054 0.99944 0.31490
O9 O 0.05644 1.09913 0.22831
O10 O 0.09981 0.99320 0.40610
O11 O 0.22959 0.90342 0.30702
C13 C 1.11123 0.88591 1.07165
C14 C 0.96711 0.89058 0.99274
C15 C 1.14571 0.99305 1.07558
C16 C 0.93645 0.78110 0.98161
O18 O 1.03914 0.67527 1.04206
O19 O 0.80541 0.78590 0.91067
H12 H 1.20179 0.79338 1.13360
H13 H 1.26576 0.98632 1.13439
H14 H 0.79636 0.70083 0.90725
C13A C 0.88877 1.11409 0.92835
C14A C 1.03289 1.10942 1.00726
C15A C 0.85429 1.00695 0.92442
C16A C 1.06355 1.21890 1.01839
O18A O 0.96086 1.32473 0.95794
O19A O 1.19459 1.21410 1.08933
H12A H 0.79821 1.20662 0.86640
H13A H 0.73424 1.01368 0.86561
H14A H 1.20364 1.29917 1.09275
loop_
_geom_bond_atom_site_label_1
_geom_bond_atom_site_label_2
_geom_bond_site_symmetry_1
_geom_bond_site_symmetry_2
O1 Y1 1_555 1_555
Y1 O2 1_555 1_555
Y2 O1 1_555 1_555
Y3 O1 1_555 1_555
O2 Y2 1_555 1_555
O3 Y1 1_555 1_555
O4 Y1 1_555 1_555
O5 Y1 1_555 1_555
N1 O6 1_555 1_555
O6 Y3 1_555 1_555
O7 Y3 1_555 1_555
O8 N1 1_555 1_555
N2 O9 1_555 1_555
O10 N2 1_555 1_555
O11 N2 1_555 1_555
C1 C2 1_555 1_555
C2 H6 1_555 1_555
C3 C1 1_555 1_555
C4 C3 1_555 1_555
O12 Y2 1_555 1_555
O13 Y2 1_555 1_555
C5 C6 1_555 1_555
C6 C7 1_555 1_555
C7 C8 1_555 1_555
C8 C9 1_555 1_555
C9 C10 1_555 1_555
C10 C11 1_555 1_555
C11 C6 1_555 1_555
C12 C9 1_555 1_555
O14 Y1 1_555 1_555
O15 Y1 1_555 1_555
O16 C12 1_555 1_555
O17 C12 1_555 1_555
C13 C14 1_555 1_555
C14 C16 1_555 1_555
C15 C13 1_555 1_555
C16 O18 1_555 1_555
O19 C16 1_555 1_555
H1 O2 1_555 1_555
H2 O3 1_555 1_555
H3 O4 1_555 1_555
H4 O5 1_555 1_555
H5 C1 1_555 1_555
H7 C7 1_555 1_555
H8 C8 1_555 1_555
H9 C10 1_555 1_555
H10 C11 1_555 1_555
H11 O16 1_555 1_555
H12 C13 1_555 1_555
H13 C15 1_555 1_555
H14 O19 1_555 1_555
Y1A O1 1_555 1_555
Y2A O1 1_555 1_555
Y2A_2 O12A 1_555 1_555
Y3A O1 1_555 1_555
O2A Y3 1_555 1_555
O3A Y2 1_555 1_555
O4A Y1A 1_555 1_555
O5A Y2 1_555 1_555
N1A O6A 1_555 1_555
O6A Y3A 1_555 1_555
O7A Y3A 1_555 1_555
O8A N1A 1_555 1_555
C1A C2A 1_555 1_555
C2A C3 1_555 1_555
C3A C2 1_555 1_555
C4A C3A 1_555 1_555
O12A C4A 1_555 1_555
O12A_2 Y2A 1_555 1_555
O13A Y2A_2 1_555 1_555
O13A_2 Y2A 1_555 1_555
C5A C6A 1_555 1_555
C6A C7A 1_555 1_555
C7A C8A 1_555 1_555
C8A C9A 1_555 1_555
C9A C10A 1_555 1_555
C10A C11A 1_555 1_555
C11A C6A 1_555 1_555
C12A C9A 1_555 1_555
O14A Y1A 1_555 1_555
O15A Y1A 1_555 1_555
O16A C12A 1_555 1_555
O17A C12A 1_555 1_555
C13A C14A 1_555 1_555
C14A C15 1_555 1_555
C15A C14 1_555 1_555
C16A C14A 1_555 1_555
O18A C16A 1_555 1_555
O19A C16A 1_555 1_555
H1A O2A 1_555 1_555
H2A O3A 1_555 1_555
H3A O4A 1_555 1_555
H4A O5A 1_555 1_555
H5A C1A 1_555 1_555
H6A C2A 1_555 1_555
H7A C7A 1_555 1_555
H8A C8A 1_555 1_555
H9A C10A 1_555 1_555
H10A C11A 1_555 1_555
H11A O16A 1_555 1_555
H12A C13A 1_555 1_555
H13A C15A 1_555 1_555
H14A O19A 1_555 1_555
Y2 O4 1_555 1_555
Y3 O4 1_555 1_555
Y3 O5 1_555 1_555
Y3 O3A 1_555 1_555
O2 Y3A 1_555 1_555
O3 Y2A 1_555 1_555
O3 Y3A 1_555 1_555
O5 Y2A 1_555 1_555
N1 O7 1_555 1_555
C4 O12 1_555 1_555
C4 O13 1_555 1_555
C5 O14 1_555 1_555
C5 O15 1_555 1_555
Y1A O2A 1_555 1_555
Y1A O3A 1_555 1_555
Y1A O5A 1_555 1_555
Y2A O2A 1_555 1_555
Y2A O4A 1_555 1_555
Y3A O4A 1_555 1_555
Y3A O5A 1_555 1_555
N1A O7A 1_555 1_555
C1A C3A 1_555 1_555
C4A O13A 1_555 1_555
C5A O14A 1_555 1_555
C5A O15A 1_555 1_555
C13A C15A 1_555 1_555

#END
