
#######################################################################
#
#                 Cambridge Crystallographic Data Centre
#                                CCDC 
#
#######################################################################
#
# If this CIF has been generated from an entry in the Cambridge 
# Structural Database, then it will include bibliographic, chemical, 
# crystal, experimental, refinement or atomic coordinate data resulting 
# from the CCDC's data processing and validation procedures.
#
#######################################################################

data_EWEBOY
_symmetry_cell_setting           orthorhombic
_symmetry_space_group_name_H-M   'P b c a'
_symmetry_Int_Tables_number      61
_space_group_name_Hall           '-P 2ac 2ab'
loop_
_symmetry_equiv_pos_site_id
_symmetry_equiv_pos_as_xyz
1 x,y,z
2 1/2-x,-y,1/2+z
3 1/2+x,1/2-y,-z
4 -x,1/2+y,1/2-z
5 -x,-y,-z
6 1/2+x,y,1/2-z
7 1/2-x,1/2+y,z
8 x,1/2-y,1/2+z
_cell_length_a                   19.839(3)
_cell_length_b                   20.128(3)
_cell_length_c                   22.311(3)
_cell_angle_alpha                90
_cell_angle_beta                 90
_cell_angle_gamma                90
_cell_volume                     8909.21
loop_
_atom_site_label
_atom_site_type_symbol
_atom_site_fract_x
_atom_site_fract_y
_atom_site_fract_z
Mo1 Mo 0.666351(14) 0.249464(13) 0.086020(13)
Mo2 Mo 0.770630(16) 0.004570(14) -0.000230(13)
Cu1 Cu 0.74035(2) 0.14022(2) 0.05714(2)
Cu2 Cu 0.69619(2) 0.38195(2) 0.05009(2)
S1 S 0.62832(4) 0.15433(4) 0.03173(4)
S2 S 0.64930(5) 0.17805(5) 0.17099(4)
S3 S 0.55371(5) 0.28404(5) 0.06884(5)
S4 S 0.66791(5) 0.34975(4) 0.14645(4)
S5 S 0.71068(5) 0.28744(4) -0.00951(4)
S6 S 0.78523(5) 0.23278(4) 0.10744(4)
S7 S 0.80256(5) 0.11444(4) -0.03246(4)
S8 S 0.67188(5) 0.02741(5) -0.05637(4)
S9 S 0.79215(5) 0.04844(4) 0.10080(4)
S10 S 0.69674(5) -0.06692(4) 0.05319(4)
S11 S 0.71401(6) 0.44433(5) -0.09158(4)
S12 S 0.61681(5) 0.46079(4) 0.01690(4)
C1 C 0.58783(18) 0.10257(17) 0.08397(16)
C2 C 0.5475(2) 0.0502(2) 0.06336(18)
C3 C 0.5187(2) 0.0071(2) 0.1045(2)
C4 C 0.5294(2) 0.0159(2) 0.1651(2)
C5 C 0.5692(2) 0.0676(2) 0.18603(18)
C6 C 0.59842(19) 0.11250(18) 0.14550(17)
C7 C 0.5359(2) 0.35365(19) 0.11199(18)
C8 C 0.4713(2) 0.3818(2) 0.1100(2)
C9 C 0.4579(2) 0.4393(2) 0.1422(2)
C10 C 0.5079(2) 0.4686(2) 0.1767(2)
C11 C 0.5719(2) 0.4407(2) 0.18045(19)
C12 C 0.5859(2) 0.38310(18) 0.14748(16)
C13 C 0.7995(2) 0.28959(18) -0.00360(18)
C14 C 0.8378(2) 0.3166(2) -0.0504(2)
C15 C 0.9065(2) 0.3262(2) -0.0428(2)
C16 C 0.9382(2) 0.3077(2) 0.0103(2)
C17 C 0.9016(2) 0.2792(2) 0.0562(2)
C18 C 0.83190(19) 0.26985(18) 0.04928(19)
C19 C 0.7510(2) 0.1296(2) -0.09515(17)
C20 C 0.7683(2) 0.1820(2) -0.13441(19)
C21 C 0.7257(3) 0.1951(2) -0.1831(2)
C22 C 0.6682(3) 0.1576(3) -0.1926(2)
C23 C 0.6526(3) 0.1055(2) -0.1551(2)
C24 C 0.6942(2) 0.0915(2) -0.10586(17)
C25 C 0.7398(2) 0.00415(18) 0.15063(17)
C26 C 0.7430(2) 0.0172(2) 0.21265(18)
C27 C 0.7061(2) -0.0221(2) 0.2520(2)
C28 C 0.6656(2) -0.0727(2) 0.2305(2)
C29 C 0.6613(2) -0.0853(2) 0.17002(19)
C30 C 0.69847(19) -0.04657(18) 0.12988(17)
C31 C 0.6319(2) 0.4132(2) -0.09644(19)
C32 C 0.6098(3) 0.3799(2) -0.1484(2)
C33 C 0.5432(3) 0.3597(2) -0.1517(2)
C34 C 0.4990(3) 0.3709(2) -0.1055(2)
C35 C 0.5198(2) 0.4021(2) -0.0533(2)
C36 C 0.5873(2) 0.42307(19) -0.0492(2)
H1 H 0.5400 0.0442 0.0216
H2 H 0.4915 -0.0287 0.0909
H3 H 0.5092 -0.0139 0.1929
H4 H 0.5766 0.0726 0.2278
H5 H 0.4369 0.3617 0.0867
H6 H 0.4143 0.4587 0.1406
H7 H 0.4983 0.5082 0.1982
H8 H 0.6056 0.4604 0.2050
H9 H 0.8168 0.3284 -0.0871
H10 H 0.9323 0.3455 -0.0742
H11 H 0.9853 0.3147 0.0149
H12 H 0.9234 0.2660 0.0922
H13 H 0.8078 0.2077 -0.1279
H14 H 0.7365 0.2302 -0.2100
H15 H 0.6392 0.1680 -0.2252
H16 H 0.6138 0.0791 -0.1625
H17 H 0.7701 0.0525 0.2274
H18 H 0.7088 -0.0141 0.2939
H19 H 0.6405 -0.0991 0.2578
H20 H 0.6332 -0.1200 0.1556
H21 H 0.6401 0.3714 -0.1805
H22 H 0.5278 0.3376 -0.1868
H23 H 0.4534 0.3570 -0.1093
H24 H 0.4893 0.4091 -0.0211
Mo2F Mo 0.729370(16) 0.504570(14) -0.000230(13)
Cu2F Cu 0.80381(2) -0.11805(2) 0.05009(2)
S10F S 0.80326(5) 0.43308(4) 0.05319(4)
S11F S 0.78599(6) -0.05567(5) -0.09158(4)
S12F S 0.88319(5) -0.03921(4) 0.01690(4)
O1 O 0.9273(3) 0.2067(4) 0.2490(5)
C37 C 0.9343(10) 0.2600(7) 0.2508(7)
C38 C 0.9886(4) 0.3026(5) 0.2285(6)
C39 C 0.8670(6) 0.1678(7) 0.2698(6)
C40 C 0.8849(6) 0.1079(7) 0.2858(8)
H25 H 0.9311 0.2710 0.2940
H26 H 0.8930 0.2784 0.2323
H27 H 1.0240 0.3060 0.2589
H28 H 0.9707 0.3469 0.2198
H29 H 1.0074 0.2833 0.1918
H30 H 0.8458 0.1908 0.3043
H31 H 0.8334 0.1653 0.2371
H32 H 0.8846 0.0787 0.2506
H33 H 0.8532 0.0909 0.3157
H34 H 0.9304 0.1090 0.3029
loop_
_geom_bond_atom_site_label_1
_geom_bond_atom_site_label_2
_geom_bond_site_symmetry_1
_geom_bond_site_symmetry_2
Mo1 Cu1 1_555 1_555
Mo2 S7 1_555 1_555
Cu1 S1 1_555 1_555
Cu2 Mo1 1_555 1_555
S1 Mo1 1_555 1_555
S2 Mo1 1_555 1_555
S3 Mo1 1_555 1_555
S4 Mo1 1_555 1_555
S5 Mo1 1_555 1_555
S6 Mo1 1_555 1_555
S7 Cu1 1_555 1_555
S8 Mo2 1_555 1_555
S9 Mo2 1_555 1_555
S10 Mo2 1_555 1_555
S11 C31 1_555 1_555
S12 Cu2 1_555 1_555
O1 C37 1_555 1_555
C1 S1 1_555 1_555
C2 C1 1_555 1_555
C3 C2 1_555 1_555
C4 C3 1_555 1_555
C5 C4 1_555 1_555
C6 S2 1_555 1_555
C7 S3 1_555 1_555
C8 C7 1_555 1_555
C9 C8 1_555 1_555
C10 C9 1_555 1_555
C11 C10 1_555 1_555
C12 S4 1_555 1_555
C13 S5 1_555 1_555
C14 C13 1_555 1_555
C15 C14 1_555 1_555
C16 C15 1_555 1_555
C17 C16 1_555 1_555
C18 S6 1_555 1_555
C19 S7 1_555 1_555
C20 C19 1_555 1_555
C21 C20 1_555 1_555
C22 C21 1_555 1_555
C23 C22 1_555 1_555
C24 S8 1_555 1_555
C25 S9 1_555 1_555
C26 C25 1_555 1_555
C27 C26 1_555 1_555
C28 C27 1_555 1_555
C29 C28 1_555 1_555
C30 S10 1_555 1_555
C31 C32 1_555 1_555
C32 C33 1_555 1_555
C33 C34 1_555 1_555
C34 C35 1_555 1_555
C35 C36 1_555 1_555
C36 S12 1_555 1_555
C37 C38 1_555 1_555
C38 H27 1_555 1_555
C39 O1 1_555 1_555
C40 C39 1_555 1_555
H1 C2 1_555 1_555
H2 C3 1_555 1_555
H3 C4 1_555 1_555
H4 C5 1_555 1_555
H5 C8 1_555 1_555
H6 C9 1_555 1_555
H7 C10 1_555 1_555
H8 C11 1_555 1_555
H9 C14 1_555 1_555
H10 C15 1_555 1_555
H11 C16 1_555 1_555
H12 C17 1_555 1_555
H13 C20 1_555 1_555
H14 C21 1_555 1_555
H15 C22 1_555 1_555
H16 C23 1_555 1_555
H17 C26 1_555 1_555
H18 C27 1_555 1_555
H19 C28 1_555 1_555
H20 C29 1_555 1_555
H21 C32 1_555 1_555
H22 C33 1_555 1_555
H23 C34 1_555 1_555
H24 C35 1_555 1_555
H25 C37 1_555 1_555
H26 C37 1_555 1_555
H28 C38 1_555 1_555
H29 C38 1_555 1_555
H30 C39 1_555 1_555
H31 C39 1_555 1_555
H32 C40 1_555 1_555
H33 C40 1_555 1_555
H34 C40 1_555 1_555
Mo2F Cu2 1_555 1_555
Cu2F Mo2 1_555 1_555
S10F Cu2 1_555 1_555
S11F Mo2 1_555 1_555
S12F Mo2 1_555 1_555
Cu1 S6 1_555 1_555
Cu1 S9 1_555 1_555
Cu2 S4 1_555 1_555
Cu2 S5 1_555 1_555
S10 Cu2F 1_555 1_555
S11 Mo2F 1_555 1_555
S12 Mo2F 1_555 1_555
C1 C6 1_555 1_555
C5 C6 1_555 1_555
C7 C12 1_555 1_555
C11 C12 1_555 1_555
C13 C18 1_555 1_555
C17 C18 1_555 1_555
C19 C24 1_555 1_555
C23 C24 1_555 1_555
C25 C30 1_555 1_555
C29 C30 1_555 1_555
C31 C36 1_555 1_555
Mo2F S10F 1_555 1_555
Cu2F S12F 1_555 1_555

#END
