
#######################################################################
#
#                 Cambridge Crystallographic Data Centre
#                                CCDC 
#
#######################################################################
#
# If this CIF has been generated from an entry in the Cambridge 
# Structural Database, then it will include bibliographic, chemical, 
# crystal, experimental, refinement or atomic coordinate data resulting 
# from the CCDC's data processing and validation procedures.
#
#######################################################################

data_EWECAK
_symmetry_cell_setting           monoclinic
_symmetry_space_group_name_H-M   'P 21'
_symmetry_Int_Tables_number      4
_space_group_name_Hall           'P 2yb'
loop_
_symmetry_equiv_pos_site_id
_symmetry_equiv_pos_as_xyz
1 x,y,z
2 -x,1/2+y,-z
_cell_length_a                   9.7280(2)
_cell_length_b                   9.2517(2)
_cell_length_c                   19.7912(5)
_cell_angle_alpha                90
_cell_angle_beta                 97.5500(10)
_cell_angle_gamma                90
_cell_volume                     1765.78
loop_
_atom_site_label
_atom_site_type_symbol
_atom_site_fract_x
_atom_site_fract_y
_atom_site_fract_z
Nd1 Nd 0.63031(5) 0.23372(6) 0.91557(3)
Nd2 Nd 0.73894(5) 0.59151(6) 1.03909(3)
Nd3 Nd 0.13990(5) 0.31748(5) 0.41921(3)
Nd4 Nd 0.23669(5) 0.67476(6) 0.54813(3)
O1 O 0.8552(7) 0.2918(8) 0.8863(4)
O2 O 0.7220(7) 0.3045(9) 1.0295(4)
O3 O 0.5520(7) 0.0846(9) 0.8140(4)
O4 O 0.5588(8) 0.4155(9) 0.8268(4)
O5 O 0.4340(7) 0.3019(8) 0.9814(4)
O6 O 0.4771(7) 0.5195(8) 1.0297(4)
O7 O 0.6529(7) 0.5125(9) 0.9233(3)
O8 O 0.3768(7) 0.1626(9) 0.8624(3)
O9 O 1.0726(7) 0.2137(9) 0.8987(4)
O10 O 0.8100(9) 0.4038(10) 1.1254(4)
O11 O 0.1933(7) 0.2912(8) 1.0320(4)
O12 O 0.9437(7) 0.4893(9) 0.9944(4)
O13 O 0.2255(8) 0.3775(10) 0.5344(4)
O14 O 0.6242(7) 0.8695(8) 0.5987(3)
O15 O 0.2846(7) 0.1019(8) 0.4406(4)
O16 O 0.9013(9) 0.0033(9) 0.6703(4)
O17 O 1.0711(7) 0.1745(10) 1.3146(4)
O18 O 0.0609(7) -0.1190(8) 0.5177(4)
O19 O 0.0224(7) 0.0987(8) 0.4679(3)
O20 O 0.8940(6) 0.2588(8) 1.3597(3)
O21 O 0.8396(7) 0.0954(9) 0.5695(3)
O22 O 0.4400(7) 0.5796(9) 0.5043(4)
O23 O 0.4250(7) 0.7771(8) 0.6219(3)
O24 O 0.2646(10) 0.4786(9) 0.6328(4)
O25 O 0.3162(7) -0.1196(8) 0.4862(4)
O26 O 0.2192(7) 0.5214(8) 1.0647(4)
C1 C 0.2595(10) 0.4072(13) 1.0406(5)
C2 C 0.4039(10) 0.4087(12) 1.0151(5)
C3 C 0.2462(10) -0.0091(13) 0.4700(5)
C4 C 0.0965(9) -0.0076(11) 0.4854(5)
C5 C 0.9574(11) 0.2388(12) 0.8622(5)
C6 C 0.9542(14) 0.2159(18) 0.7866(7)
H1 H 1.0303 0.2705 0.7721
H2 H 0.9730 0.1145 0.7793
C7 C 0.8274(15) 0.2547(16) 0.7412(6)
H3 H 0.7984 0.3501 0.7539
H4 H 0.7548 0.1874 0.7493
C8 C 0.8383(14) 0.2553(14) 0.6657(6)
H5 H 0.7537 0.2967 0.6421
H6 H 0.9139 0.3189 0.6579
C9 C 0.8611(10) 0.1134(12) 0.6340(5)
C10 C 0.7867(10) 0.2929(13) 1.0896(5)
C11 C 0.8295(13) 0.1443(13) 1.1160(6)
H7 H 0.8759 0.0952 1.0820
H8 H 0.7468 0.0895 1.1216
C12 C 0.9252(14) 0.1441(13) 1.1834(6)
H9 H 0.9682 0.0497 1.1900
H10 H 0.9984 0.2144 1.1809
C13 C 0.8520(10) 0.1789(14) 1.2441(5)
H11 H 0.7966 0.2653 1.2340
H12 H 0.7890 0.1003 1.2506
C14 C 0.9462(11) 0.2023(12) 1.3098(5)
C15 C 0.4257(11) 0.1134(13) 0.8104(5)
C16 C 0.3311(12) 0.0928(15) 0.7457(5)
H13 H 0.2372 0.0743 0.7550
H14 H 0.3613 0.0118 0.7202
C17 C 0.3369(16) 0.2301(14) 0.7063(7)
H15 H 0.4332 0.2575 0.7065
H16 H 0.2918 0.3061 0.7290
C18 C 0.2668(15) 0.2191(15) 0.6311(6)
H17 H 0.3221 0.1579 0.6054
H18 H 0.1758 0.1756 0.6298
C19 C 0.2528(12) 0.3678(13) 0.5988(6)
C20 C 0.5471(10) 0.8139(11) 0.6397(5)
C21 C 0.6096(12) 0.7975(14) 0.7136(6)
H19 H 0.7097 0.7985 0.7157
H20 H 0.5835 0.8811 0.7386
C22 C 0.5695(14) 0.6666(15) 0.7484(6)
H21 H 0.6052 0.5827 0.7271
H22 H 0.4691 0.6594 0.7424
C23 C 0.6221(14) 0.6645(16) 0.8239(6)
H23 H 0.7193 0.6912 0.8300
H24 H 0.5727 0.7378 0.8462
C24 C 0.6076(11) 0.5241(13) 0.8591(6)
O6A O 0.5229(7) 0.0195(8) 0.9703(4)
O26A O 0.7808(7) 0.0214(8) 0.9353(4)
O5A O 0.5660(7) 0.8019(8) 1.0186(4)
O8A O 0.6232(7) 0.6626(9) 1.1376(3)
O9A O 0.9274(7) 0.7137(9) 1.1013(4)
O11A O 0.8067(7) 0.7912(8) 0.9680(4)
O14A O 0.3758(7) 0.3695(8) 0.4013(3)
O16A O 0.0987(9) 0.5033(9) 0.3297(4)
O17_2 O 0.0711(7) 0.1745(10) 0.3146(4)
O18A O -0.0609(7) 0.3810(8) 0.4823(4)
O20_2 O -0.1060(6) 0.2588(8) 0.3597(3)
O21A O 0.1604(7) 0.5954(9) 0.4305(3)
O18_2 O 0.0609(7) 0.8810(8) 0.5177(4)
O19A O -0.0224(7) 0.5987(8) 0.5321(3)
O20A O 0.1060(6) 0.7588(8) 0.6403(3)
O25_2 O 0.3162(7) 0.8804(8) 0.4862(4)
Nd2A Nd 0.26106(5) 0.09151(6) 0.96091(3)
Nd1A Nd 0.36969(5) 0.73372(6) 1.08443(3)
Nd2A_2 Nd 1.26106(5) 0.09151(6) 0.96091(3)
Nd3A Nd 0.86010(5) 0.81748(5) 0.58079(3)
Nd3A_2 Nd 0.86010(5) -0.18252(5) 0.58079(3)
Nd3_2 Nd 1.13990(5) 0.31748(5) 1.41921(3)
Nd3A_3 Nd -0.13990(5) -0.18252(5) 0.58079(3)
Nd4_2 Nd 0.23669(5) -0.32524(6) 0.54813(3)
Nd4A Nd -0.23669(5) 0.17476(6) 0.45187(3)
Nd4A_2 Nd 0.76331(5) 0.17476(6) 1.45187(3)
Nd4A_3 Nd 0.76331(5) 0.17476(6) 0.45187(3)
loop_
_geom_bond_atom_site_label_1
_geom_bond_atom_site_label_2
_geom_bond_site_symmetry_1
_geom_bond_site_symmetry_2
Nd1 O1 1_555 1_555
Nd2 O2 1_555 1_555
Nd3 O13 1_555 1_555
Nd4 O13 1_555 1_555
O1 C5 1_555 1_555
O2 Nd1 1_555 1_555
O3 Nd1 1_555 1_555
O4 Nd1 1_555 1_555
O5 Nd1 1_555 1_555
O6 Nd2 1_555 1_555
O7 Nd1 1_555 1_555
O8 Nd1 1_555 1_555
O9 C5 1_555 1_555
O10 Nd2 1_555 1_555
O11 C1 1_555 1_555
O12 Nd2 1_555 1_555
O13 C19 1_555 1_555
O14 C20 1_555 1_555
O15 Nd3 1_555 1_555
O16 C9 1_555 1_555
O17 C14 1_555 1_555
O18 C4 1_555 1_555
O19 Nd3 1_555 1_555
O20 C14 1_555 1_555
O21 C9 1_555 1_555
O22 Nd4 1_555 1_555
O23 Nd4 1_555 1_555
O24 Nd4 1_555 1_555
O25 C3 1_555 1_555
O26 C1 1_555 1_555
C1 C2 1_555 1_555
C2 O5 1_555 1_555
C3 O15 1_555 1_555
C4 O19 1_555 1_555
C5 C6 1_555 1_555
C6 H1 1_555 1_555
H2 C6 1_555 1_555
C7 C6 1_555 1_555
H3 C7 1_555 1_555
H4 C7 1_555 1_555
C8 C7 1_555 1_555
H5 C8 1_555 1_555
H6 C8 1_555 1_555
C9 C8 1_555 1_555
C10 O2 1_555 1_555
C11 C10 1_555 1_555
H7 C11 1_555 1_555
H8 C11 1_555 1_555
C12 C11 1_555 1_555
H9 C12 1_555 1_555
H10 C12 1_555 1_555
C13 C12 1_555 1_555
H11 C13 1_555 1_555
H12 C13 1_555 1_555
C14 C13 1_555 1_555
C15 O3 1_555 1_555
C16 C15 1_555 1_555
H13 C16 1_555 1_555
H14 C16 1_555 1_555
C17 C16 1_555 1_555
H15 C17 1_555 1_555
H16 C17 1_555 1_555
C18 C17 1_555 1_555
H17 C18 1_555 1_555
H18 C18 1_555 1_555
C19 O24 1_555 1_555
C20 O23 1_555 1_555
C21 C20 1_555 1_555
H19 C21 1_555 1_555
H20 C21 1_555 1_555
C22 C21 1_555 1_555
H21 C22 1_555 1_555
H22 C22 1_555 1_555
C23 C22 1_555 1_555
H23 C23 1_555 1_555
H24 C23 1_555 1_555
C24 O4 1_555 1_555
O6A Nd1 1_555 1_555
O26A Nd1 1_555 1_555
O5A Nd2 1_555 1_555
O8A Nd2 1_555 1_555
O9A Nd2 1_555 1_555
O11A Nd2 1_555 1_555
O14A Nd3 1_555 1_555
O16A Nd3 1_555 1_555
O17_2 Nd3 1_555 1_555
O18A Nd3 1_555 1_555
O20_2 Nd3 1_555 1_555
O21A Nd3 1_555 1_555
O18_2 Nd4 1_555 1_555
O19A Nd4 1_555 1_555
O20A Nd4 1_555 1_555
O25_2 Nd4 1_555 1_555
Nd2A O5 1_555 1_555
Nd1A O6 1_555 1_555
Nd2A_2 O9 1_555 1_555
Nd3A O14 1_555 1_555
Nd3A_2 O16 1_555 1_555
Nd3_2 O17 1_555 1_555
Nd3A_3 O18 1_555 1_555
Nd4_2 O18 1_555 1_555
Nd4A O19 1_555 1_555
Nd4A_2 O20 1_555 1_555
Nd4A_3 O21 1_555 1_555
Nd2 O7 1_555 1_555
Nd4 O21A 1_555 1_555
O6 C2 1_555 1_555
O7 C24 1_555 1_555
O8 C15 1_555 1_555
O8 Nd2A 1_555 1_555
O10 C10 1_555 1_555
O11 Nd2A 1_555 1_555
O20 Nd3_2 1_555 1_555
O21 Nd3A_2 1_555 1_555
O25 Nd4_2 1_555 1_555
O26 Nd1A 1_555 1_555
C3 C4 1_555 1_555
C18 C19 1_555 1_555
C23 C24 1_555 1_555
O6A Nd2A 1_555 1_555
O5A Nd1A 1_555 1_555
O8A Nd1A 1_555 1_555
O18A Nd4A 1_555 1_555
O20_2 Nd4A 1_555 1_555

#END
