
#######################################################################
#
#                 Cambridge Crystallographic Data Centre
#                                CCDC 
#
#######################################################################
#
# If this CIF has been generated from an entry in the Cambridge 
# Structural Database, then it will include bibliographic, chemical, 
# crystal, experimental, refinement or atomic coordinate data resulting 
# from the CCDC's data processing and validation procedures.
#
#######################################################################

data_EWECUE
_symmetry_cell_setting           orthorhombic
_symmetry_space_group_name_H-M   'C c c a'
_symmetry_Int_Tables_number      68
_space_group_name_Hall           '-C 2b 2bc'
loop_
_symmetry_equiv_pos_site_id
_symmetry_equiv_pos_as_xyz
1 x,y,z
2 1/2+x,1/2+y,z
3 1/2-x,-y,z
4 -x,y,1/2-z
5 1/2+x,-y,1/2-z
6 -x,1/2-y,z
7 1/2-x,1/2+y,1/2-z
8 x,1/2-y,1/2-z
9 -x,-y,-z
10 1/2-x,1/2-y,-z
11 1/2+x,y,-z
12 x,-y,1/2+z
13 1/2-x,y,1/2+z
14 x,1/2+y,-z
15 1/2+x,1/2-y,1/2+z
16 -x,1/2+y,1/2+z
_cell_length_a                   13.447(3)
_cell_length_b                   29.936(6)
_cell_length_c                   23.252(5)
_cell_angle_alpha                90
_cell_angle_beta                 90
_cell_angle_gamma                90
_cell_volume                     9360.08
loop_
_atom_site_label
_atom_site_type_symbol
_atom_site_fract_x
_atom_site_fract_y
_atom_site_fract_z
Co1 Co 0.5000 0.61950(3) 0.7500
N1 N 0.4419(3) 0.57141(14) 0.70540(18)
N2 N 0.3795(3) 0.62035(13) 0.79607(18)
N3 N 0.4323(3) 0.66430(13) 0.70399(18)
C1 C 0.3820(3) 0.57305(18) 0.6600(2)
H1 H 0.3582 0.6006 0.6476
C2 C 0.3541(4) 0.53444(19) 0.6306(3)
H2 H 0.3142 0.5367 0.5980
C3 C 0.3849(4) 0.4933(2) 0.6491(3)
H3 H 0.3678 0.4678 0.6285
C4 C 0.4424(4) 0.48981(18) 0.6992(3)
C5 C 0.4694(3) 0.53035(17) 0.7251(2)
C6 C 0.4733(4) 0.44900(19) 0.7256(3)
H4 H 0.4562 0.4219 0.7087
C7 C 0.3562(3) 0.59703(17) 0.8427(2)
H5 H 0.4051 0.5799 0.8605
C8 C 0.2597(4) 0.59745(18) 0.8659(3)
H6 H 0.2448 0.5803 0.8980
C9 C 0.1874(4) 0.62338(18) 0.8407(3)
H7 H 0.1235 0.6238 0.8560
C10 C 0.2097(3) 0.64878(18) 0.7927(2)
C11 C 0.3073(3) 0.64623(16) 0.7714(2)
C12 C 0.1404(4) 0.6769(2) 0.7627(3)
H8 H 0.0758 0.6796 0.7766
C13 C 0.4615(4) 0.68493(17) 0.6559(2)
H9 H 0.5266 0.6815 0.6431
C14 C 0.3955(4) 0.71178(18) 0.6244(3)
H10 H 0.4175 0.7258 0.5910
C15 C 0.2990(4) 0.71769(18) 0.6420(3)
H11 H 0.2558 0.7355 0.6208
C16 C 0.2664(4) 0.69660(18) 0.6923(2)
C17 C 0.3358(3) 0.67011(17) 0.7214(2)
C18 C 0.1667(4) 0.6993(2) 0.7151(3)
H12 H 0.1198 0.7169 0.6964
C5C C 0.5306(3) 0.53035(17) 0.7749(2)
N1C N 0.5581(3) 0.57141(14) 0.79460(18)
C1C C 0.6180(3) 0.57305(18) 0.8400(2)
H1C H 0.6418 0.6006 0.8524
C2C C 0.6459(4) 0.53444(19) 0.8694(3)
H2C H 0.6858 0.5367 0.9020
C3C C 0.6151(4) 0.4933(2) 0.8509(3)
H3C H 0.6322 0.4678 0.8715
C4C C 0.5576(4) 0.48981(18) 0.8008(3)
C6C C 0.5267(4) 0.44900(19) 0.7744(3)
H4C H 0.5438 0.4219 0.7913
N2C N 0.6205(3) 0.62035(13) 0.70393(18)
N3C N 0.5677(3) 0.66430(13) 0.79601(18)
C7C C 0.6438(3) 0.59703(17) 0.6573(2)
H5C H 0.5949 0.5799 0.6395
C8C C 0.7403(4) 0.59745(18) 0.6341(3)
H6C H 0.7552 0.5803 0.6020
C9C C 0.8126(4) 0.62338(18) 0.6593(3)
H7C H 0.8765 0.6238 0.6440
C10C C 0.7903(3) 0.64878(18) 0.7073(2)
C11C C 0.6927(3) 0.64623(16) 0.7286(2)
C12C C 0.8596(4) 0.6769(2) 0.7373(3)
H8C H 0.9242 0.6796 0.7234
C13C C 0.5385(4) 0.68493(17) 0.8441(2)
H9C H 0.4734 0.6815 0.8569
C14C C 0.6045(4) 0.71178(18) 0.8756(3)
H10C H 0.5825 0.7258 0.9090
C15C C 0.7010(4) 0.71769(18) 0.8580(3)
H11C H 0.7442 0.7355 0.8792
C16C C 0.7336(4) 0.69660(18) 0.8077(2)
C17C C 0.6642(3) 0.67011(17) 0.7786(2)
C18C C 0.8333(4) 0.6993(2) 0.7849(3)
H12C H 0.8802 0.7169 0.8036
V1 V 0.49657(5) 0.69457(3) 0.44400(4)
V2 V 0.63571(5) 0.61339(3) 0.45450(4)
V3 V 0.73282(5) 0.69198(3) 0.51764(4)
V4 V 0.62561(6) 0.50352(3) 0.52127(4)
V5 V 0.39046(5) 0.61533(3) 0.49657(4)
O1 O 0.5000 0.5000 0.5000
O2 O 0.4886(2) 0.70211(11) 0.37639(16)
O3 O 0.6706(2) 0.60488(13) 0.38960(18)
O4 O 0.6330(4) 0.51277(15) 0.5882(2)
O5 O 0.7500 0.7500 0.5000
O6 O 0.4403(3) 0.61683(13) 0.55874(16)
O7 O 0.7500 0.5000 0.4910(2)
O8 O 0.6222(2) 0.56322(12) 0.4880(2)
O9 O 0.6826(2) 0.69095(13) 0.57978(17)
O10 O 0.6275(2) 0.68146(11) 0.46294(17)
O11 O 0.3734(2) 0.56092(11) 0.47804(17)
O12 O 0.7538(2) 0.62983(10) 0.49406(17)
O13 O 0.3738(2) 0.68130(11) 0.47248(16)
O14 O 0.5000 0.7500 0.4738(2)
O15 O 0.4981(2) 0.62732(10) 0.44625(15)
V1E V 0.50343(5) 0.80543(3) 0.44400(4)
V3J V 0.23282(5) 0.69198(3) 0.48236(4)
O13J O 0.8738(2) 0.68130(11) 0.52752(16)
O12J O 0.2538(2) 0.62983(10) 0.50594(17)
O2E O 0.5114(2) 0.79789(11) 0.37639(16)
O10E O 0.3725(2) 0.81854(11) 0.46294(17)
O15E O 0.5019(2) 0.87268(10) 0.44625(15)
O9J O 0.1826(2) 0.69095(13) 0.42022(17)
V2E V 0.36429(5) 0.88661(3) 0.45450(4)
V4H V 0.37439(6) 0.49648(3) 0.47873(4)
V5J V 0.89046(5) 0.61533(3) 0.50343(4)
O11H O 0.6266(2) 0.43908(11) 0.52196(17)
O3E O 0.3294(2) 0.89512(13) 0.38960(18)
O8E O 0.3778(2) 0.93678(12) 0.4880(2)
O4H O 0.3670(4) 0.48723(15) 0.4118(2)
O6J O 0.9403(3) 0.61683(13) 0.44126(16)
V3I V 0.76718(5) 0.80802(3) 0.48236(4)
V4B V 0.87439(6) 0.49648(3) 0.52127(4)
O13E O 0.6262(2) 0.81870(11) 0.47248(16)
O5J O 0.2500 0.7500 0.5000
O10J O 0.1275(2) 0.68146(11) 0.53706(17)
V1J V 0.99657(5) 0.69457(3) 0.55600(4)
V2J V 0.13571(5) 0.61339(3) 0.54550(4)
V3E V 0.26718(5) 0.80802(3) 0.51764(4)
V5E V 0.60954(5) 0.88467(3) 0.49657(4)
O12E O 0.2462(2) 0.87017(10) 0.49406(17)
O7J O 0.2500 0.5000 0.5090(2)
O8H O 0.3778(2) 0.43678(12) 0.5120(2)
O11J O 0.8734(2) 0.56092(11) 0.52196(17)
O15J O 0.9981(2) 0.62732(10) 0.55375(15)
O16 O 0.2500 0.5000 0.2934(6)
loop_
_geom_bond_atom_site_label_1
_geom_bond_atom_site_label_2
_geom_bond_site_symmetry_1
_geom_bond_site_symmetry_2
Co1 N1 1_555 1_555
N1 C1 1_555 1_555
N2 Co1 1_555 1_555
N3 Co1 1_555 1_555
C1 H1 1_555 1_555
C2 C1 1_555 1_555
H2 C2 1_555 1_555
C3 C2 1_555 1_555
H3 C3 1_555 1_555
C4 C3 1_555 1_555
C5 N1 1_555 1_555
C6 C4 1_555 1_555
H4 C6 1_555 1_555
C7 N2 1_555 1_555
H5 C7 1_555 1_555
C8 C7 1_555 1_555
H6 C8 1_555 1_555
C9 C8 1_555 1_555
H7 C9 1_555 1_555
C10 C9 1_555 1_555
C11 N2 1_555 1_555
C12 C10 1_555 1_555
H8 C12 1_555 1_555
C13 N3 1_555 1_555
H9 C13 1_555 1_555
C14 C13 1_555 1_555
H10 C14 1_555 1_555
C15 C14 1_555 1_555
H11 C15 1_555 1_555
C16 C15 1_555 1_555
C17 N3 1_555 1_555
C18 C12 1_555 1_555
H12 C18 1_555 1_555
V1 O2 1_555 1_555
V2 O3 1_555 1_555
V3 O5 1_555 1_555
V4 O1 1_555 1_555
V5 O6 1_555 1_555
O1 V4H 1_555 1_555
O4 V4 1_555 1_555
O5 V3I 1_555 1_555
O7 V4 1_555 1_555
O8 V2 1_555 1_555
O9 V3 1_555 1_555
O10 V1 1_555 1_555
O11 V5 1_555 1_555
O12 V2 1_555 1_555
O13 V1 1_555 1_555
O14 V1 1_555 1_555
O15 V1 1_555 1_555
C5C C5 1_555 1_555
N1C Co1 1_555 1_555
C1C N1C 1_555 1_555
H1C C1C 1_555 1_555
C2C C1C 1_555 1_555
H2C C2C 1_555 1_555
C3C C2C 1_555 1_555
H3C C3C 1_555 1_555
C4C C5C 1_555 1_555
C6C C6 1_555 1_555
H4C C6C 1_555 1_555
N2C Co1 1_555 1_555
N3C Co1 1_555 1_555
C7C N2C 1_555 1_555
H5C C7C 1_555 1_555
C8C C7C 1_555 1_555
H6C C8C 1_555 1_555
C9C C8C 1_555 1_555
H7C C9C 1_555 1_555
C10C C9C 1_555 1_555
C11C N2C 1_555 1_555
C12C C10C 1_555 1_555
H8C C12C 1_555 1_555
C13C N3C 1_555 1_555
H9C C13C 1_555 1_555
C14C C13C 1_555 1_555
H10C C14C 1_555 1_555
C15C C14C 1_555 1_555
H11C C15C 1_555 1_555
C16C C15C 1_555 1_555
C17C N3C 1_555 1_555
C18C C12C 1_555 1_555
H12C C18C 1_555 1_555
V1E O14 1_555 1_555
V3J O13 1_555 1_555
O13J V3 1_555 1_555
O12J V5 1_555 1_555
O2E V1E 1_555 1_555
O10E V1E 1_555 1_555
O15E V1E 1_555 1_555
O9J V3J 1_555 1_555
V2E O10E 1_555 1_555
V4H O11 1_555 1_555
V5J O12 1_555 1_555
O11H V4 1_555 1_555
O3E V2E 1_555 1_555
O8E V2E 1_555 1_555
O4H V4H 1_555 1_555
O6J V5J 1_555 1_555
V3I O13E 1_555 1_555
V4B O7 1_555 1_555
O13E V1E 1_555 1_555
O5J V3J 1_555 1_555
O10J V3J 1_555 1_555
V1J O13J 1_555 1_555
V2J O12J 1_555 1_555
V3E O10E 1_555 1_555
V5E O15E 1_555 1_555
O12E V2E 1_555 1_555
O7J V4H 1_555 1_555
O8H V4H 1_555 1_555
O11J V5J 1_555 1_555
O15J V5J 1_555 1_555
C4 C5 1_555 1_555
C10 C11 1_555 1_555
C11 C17 1_555 1_555
C16 C17 1_555 1_555
C16 C18 1_555 1_555
V2 O10 1_555 1_555
V2 O15 1_555 1_555
V3 O10 1_555 1_555
V3 O12 1_555 1_555
V4 O8 1_555 1_555
V5 O13 1_555 1_555
V5 O15 1_555 1_555
C5C N1C 1_555 1_555
C3C C4C 1_555 1_555
C4C C6C 1_555 1_555
C10C C11C 1_555 1_555
C11C C17C 1_555 1_555
C16C C17C 1_555 1_555
C16C C18C 1_555 1_555
V3J O12J 1_555 1_555
O13J V5J 1_555 1_555
O15E V2E 1_555 1_555
V4B O11J 1_555 1_555
O13E V5E 1_555 1_555
O5J V3E 1_555 1_555
O10J V2J 1_555 1_555
V1J O15J 1_555 1_555
V3E O12E 1_555 1_555

#END
