
#######################################################################
#
#                 Cambridge Crystallographic Data Centre
#                                CCDC 
#
#######################################################################
#
# If this CIF has been generated from an entry in the Cambridge 
# Structural Database, then it will include bibliographic, chemical, 
# crystal, experimental, refinement or atomic coordinate data resulting 
# from the CCDC's data processing and validation procedures.
#
#######################################################################

data_EWEHET
_symmetry_cell_setting           orthorhombic
_symmetry_space_group_name_H-M   'P 21 21 21'
_symmetry_Int_Tables_number      19
_space_group_name_Hall           'P 2ac 2ab'
loop_
_symmetry_equiv_pos_site_id
_symmetry_equiv_pos_as_xyz
1 x,y,z
2 1/2-x,-y,1/2+z
3 1/2+x,1/2-y,-z
4 -x,1/2+y,1/2-z
_cell_length_a                   6.9851(4)
_cell_length_b                   12.5908(7)
_cell_length_c                   22.479(2)
_cell_angle_alpha                90
_cell_angle_beta                 90
_cell_angle_gamma                90
_cell_volume                     1976.98
loop_
_atom_site_label
_atom_site_type_symbol
_atom_site_fract_x
_atom_site_fract_y
_atom_site_fract_z
Ag1 Ag 0.27747(7) 0.32703(4) 0.55612(2)
O1 O -0.0723(8) 0.4987(4) 0.3604(2)
O2 O 0.4480(8) 0.3173(5) 0.2442(2)
N1 N 0.3576(8) 0.3395(4) 0.4640(2)
N2 N 0.4943(8) 0.2886(4) 0.4331(2)
N3 N 0.0770(8) 0.4784(4) 0.5067(2)
N4 N -0.0517(9) 0.5043(4) 0.4164(2)
N5 N 0.7447(8) 0.2042(4) 0.3493(2)
N6 N 0.5763(9) 0.2668(4) 0.2722(2)
C1 C 0.4631(10) 0.3106(5) 0.3748(3)
C2 C 0.306(1) 0.3771(5) 0.3671(3)
C3 C 0.2446(10) 0.3941(5) 0.4251(3)
C4 C 0.0921(9) 0.4584(5) 0.4506(3)
C5 C -0.1065(10) 0.5352(5) 0.5175(3)
C6 C -0.161(1) 0.5811(5) 0.4555(3)
C7 C -0.247(1) 0.4494(6) 0.5400(3)
C8 C -0.077(1) 0.6190(6) 0.5654(3)
C9 C -0.373(1) 0.5766(5) 0.4387(4)
C10 C -0.078(1) 0.6909(5) 0.4427(3)
C11 C 0.597(1) 0.2612(5) 0.3338(3)
C12 C 0.8259(10) 0.1515(5) 0.2957(3)
C13 C 0.753(1) 0.2221(5) 0.2431(3)
C14 C 0.743(1) 0.0390(5) 0.2949(3)
C15 C 1.044(1) 0.1448(6) 0.3006(3)
C16 C 0.700(1) 0.1642(6) 0.1872(3)
C17 C 0.883(1) 0.3162(6) 0.2297(3)
H1 H 0.2535 0.4041 0.3311
H2 H -0.3682 0.4810 0.5479
H3 H -0.1987 0.4184 0.5754
H4 H -0.2618 0.3960 0.5105
H5 H 0.0168 0.6685 0.5525
H6 H -0.0357 0.5858 0.6010
H7 H -0.1946 0.6551 0.5724
H8 H -0.3884 0.5959 0.3982
H9 H -0.4434 0.6246 0.4631
H10 H -0.4202 0.5066 0.4446
H11 H 0.0546 0.6911 0.4521
H12 H -0.1421 0.7424 0.4662
H13 H -0.0943 0.7073 0.4018
H14 H 0.6073 0.0427 0.2926
H15 H 0.7792 0.0028 0.3302
H16 H 0.7909 0.0017 0.2613
H17 H 1.0944 0.1109 0.2662
H18 H 1.0777 0.1049 0.3350
H19 H 1.0960 0.2143 0.3037
H20 H 0.6402 0.2120 0.1604
H21 H 0.6146 0.1080 0.1965
H22 H 0.8126 0.1360 0.1694
H23 H 0.9968 0.2916 0.2111
H24 H 0.9150 0.3514 0.2658
H25 H 0.8190 0.3643 0.2040
N2B N -0.0057(8) 0.2114(4) 0.5669(2)
N5B N 0.2447(8) 0.2958(4) 0.6507(2)
Ag1B Ag 0.77747(7) 0.17297(4) 0.44388(2)
loop_
_geom_bond_atom_site_label_1
_geom_bond_atom_site_label_2
_geom_bond_site_symmetry_1
_geom_bond_site_symmetry_2
Ag1 N1 1_555 1_555
O1 N4 1_555 1_555
O2 N6 1_555 1_555
N1 N2 1_555 1_555
N2 C1 1_555 1_555
N3 Ag1 1_555 1_555
N4 C4 1_555 1_555
N5 C11 1_555 1_555
N6 C11 1_555 1_555
C1 C2 1_555 1_555
C2 C3 1_555 1_555
C3 N1 1_555 1_555
C4 N3 1_555 1_555
C5 N3 1_555 1_555
C6 N4 1_555 1_555
C7 C5 1_555 1_555
C8 C5 1_555 1_555
C9 C6 1_555 1_555
C10 C6 1_555 1_555
C11 C1 1_555 1_555
C12 N5 1_555 1_555
C13 N6 1_555 1_555
C14 C12 1_555 1_555
C15 C12 1_555 1_555
C16 C13 1_555 1_555
C17 C13 1_555 1_555
H1 C2 1_555 1_555
H2 C7 1_555 1_555
H3 C7 1_555 1_555
H4 C7 1_555 1_555
H5 C8 1_555 1_555
H6 C8 1_555 1_555
H7 C8 1_555 1_555
H8 C9 1_555 1_555
H9 C9 1_555 1_555
H10 C9 1_555 1_555
H11 C10 1_555 1_555
H12 C10 1_555 1_555
H13 C10 1_555 1_555
H14 C14 1_555 1_555
H15 C14 1_555 1_555
H16 C14 1_555 1_555
H17 C15 1_555 1_555
H18 C15 1_555 1_555
H19 C15 1_555 1_555
H20 C16 1_555 1_555
H21 C16 1_555 1_555
H22 C16 1_555 1_555
H23 C17 1_555 1_555
H24 C17 1_555 1_555
H25 C17 1_555 1_555
N2B Ag1 1_555 1_555
N5B Ag1 1_555 1_555
Ag1B N2 1_555 1_555
N5 Ag1B 1_555 1_555
C3 C4 1_555 1_555
C5 C6 1_555 1_555
C12 C13 1_555 1_555

#END
