
#######################################################################
#
#                 Cambridge Crystallographic Data Centre
#                                CCDC 
#
#######################################################################
#
# If this CIF has been generated from an entry in the Cambridge 
# Structural Database, then it will include bibliographic, chemical, 
# crystal, experimental, refinement or atomic coordinate data resulting 
# from the CCDC's data processing and validation procedures.
#
#######################################################################

data_EWEQIH
_symmetry_cell_setting           triclinic
_symmetry_space_group_name_H-M   'P -1'
_symmetry_Int_Tables_number      2
_space_group_name_Hall           '-P 1'
loop_
_symmetry_equiv_pos_site_id
_symmetry_equiv_pos_as_xyz
1 x,y,z
2 -x,-y,-z
_cell_length_a                   12.849(3)
_cell_length_b                   18.831(4)
_cell_length_c                   20.694(4)
_cell_angle_alpha                106.63(3)
_cell_angle_beta                 102.21(3)
_cell_angle_gamma                90.05(3)
_cell_volume                     4679.06
loop_
_atom_site_label
_atom_site_type_symbol
_atom_site_fract_x
_atom_site_fract_y
_atom_site_fract_z
Zn1 Zn 0.46472(3) 0.59435(2) 0.219409(18)
O1 O 1.8201(3) 0.90215(16) 0.63757(14)
O2 O 1.03439(19) 0.32415(13) -0.18644(12)
N1 N 1.4505(2) 0.62225(14) 0.32185(13)
N2 N 1.3104(2) 0.54650(15) 0.18685(14)
N3 N 1.4494(2) 0.59819(15) 0.11787(14)
N4 N 1.5924(2) 0.67200(15) 0.25179(13)
N5 N 1.6611(4) 0.8888(2) 0.7245(3)
N6 N 1.5962(5) 0.8505(2) 0.7443(3)
N7 N 1.6460(3) 0.7887(2) 0.74929(17)
N8 N 0.9860(2) 0.42121(17) 0.32267(15)
N9 N 0.9954(2) 0.4876(2) 0.31070(17)
N10 N 0.8957(2) 0.50126(18) 0.28014(17)
N11 N 0.5548(2) 0.49766(14) 0.20932(14)
N12 N 0.3976(2) 0.29329(15) 0.08066(15)
N13 N 0.3685(2) 0.22586(17) 0.04149(16)
N14 N 0.4551(3) 0.18742(16) 0.04034(16)
N15 N 0.8310(2) 0.19409(18) -0.37219(15)
N16 N 0.9287(2) 0.16559(18) -0.37260(17)
N17 N 0.9976(3) 0.21765(19) -0.33020(18)
C1 C 1.5167(3) 0.66752(17) 0.38055(17)
C2 C 1.4762(3) 0.67191(19) 0.43968(17)
H1 H 1.5081 0.6996 0.4858
C3 C 1.3812(3) 0.6285(2) 0.41822(19)
H2 H 1.3352 0.6200 0.4461
C4 C 1.3676(3) 0.59928(18) 0.34535(18)
C5 C 1.2757(3) 0.55432(19) 0.30083(18)
H3 H 1.2263 0.5388 0.3231
C6 C 1.2507(3) 0.53133(19) 0.2308(2)
C7 C 1.1496(3) 0.4957(2) 0.18940(19)
H4 H 1.0920 0.4814 0.2063
C8 C 1.1508(3) 0.4859(2) 0.12187(19)
H5 H 1.0954 0.4627 0.0830
C9 C 1.2514(2) 0.51727(18) 0.12056(17)
C10 C 1.2846(3) 0.51911(18) 0.06065(18)
C11 C 1.3783(2) 0.55779(18) 0.05937(16)
C12 C 1.4116(3) 0.5629(2) -0.00214(17)
H6 H 1.3749 0.5416 -0.0489
C13 C 1.5069(3) 0.60486(19) 0.02110(17)
H7 H 1.5494 0.6178 -0.0067
C14 C 1.5300(3) 0.62547(17) 0.09493(16)
C15 C 1.6242(3) 0.66300(18) 0.13764(18)
H8 H 1.6766 0.6738 0.1149
C16 C 1.6512(3) 0.68675(19) 0.20955(17)
C17 C 1.7469(3) 0.72935(19) 0.24957(18)
H9 H 1.8027 0.7454 0.2323
C18 C 1.7431(3) 0.7428(2) 0.31750(18)
H10 H 1.7949 0.7711 0.3564
C19 C 1.6474(3) 0.70669(19) 0.31891(17)
C20 C 1.6101(3) 0.70619(19) 0.37873(17)
C21 C 1.6747(3) 0.75626(19) 0.44610(17)
C22 C 1.7158(3) 0.7271(2) 0.50038(19)
H11 H 1.7089 0.6750 0.4932
C23 C 1.7675(3) 0.7742(2) 0.56614(19)
H12 H 1.7972 0.7540 0.6026
C24 C 1.7741(3) 0.8509(2) 0.57637(18)
C25 C 1.7378(3) 0.8786(2) 0.52226(19)
H13 H 1.7484 0.9303 0.5285
C26 C 1.6854(3) 0.83238(19) 0.45795(18)
H14 H 1.6567 0.8533 0.4218
C27 C 1.8464(4) 0.8774(3) 0.6991(2)
H15 H 1.8835 0.9195 0.7382
H16 H 1.8972 0.8379 0.6916
C28 C 1.7562(4) 0.8491(2) 0.7188(2)
C29 C 1.7377(4) 0.7846(2) 0.7301(2)
H17 H 1.7818 0.7438 0.7252
C30 C 1.5832(4) 0.7312(3) 0.7673(2)
H18 H 1.6338 0.7017 0.7903
H19 H 1.5404 0.7571 0.8004
C31 C 1.5110(4) 0.6802(3) 0.7058(2)
C32 C 1.4192(4) 0.7034(3) 0.6734(3)
H20 H 1.4028 0.7539 0.6878
C33 C 1.3480(4) 0.6509(3) 0.6176(3)
H21 H 1.2825 0.6666 0.5967
C34 C 1.3722(3) 0.5783(2) 0.5936(2)
C35 C 1.4633(3) 0.5528(2) 0.6276(2)
H22 H 1.4782 0.5020 0.6131
C36 C 1.5318(3) 0.6027(3) 0.6830(2)
H23 H 1.5937 0.5854 0.7065
C37 C 1.2961(3) 0.5285(2) 0.5339(2)
C38 C 1.1851(4) 0.5372(4) 0.5228(2)
H24 H 1.1568 0.5729 0.5563
C39 C 1.1201(3) 0.4953(4) 0.4652(2)
H25 H 1.0461 0.5035 0.4582
C40 C 1.1556(3) 0.4380(2) 0.4128(2)
C41 C 1.2637(3) 0.4309(2) 0.4262(2)
H26 H 1.2918 0.3945 0.3933
C42 C 1.3341(3) 0.4734(2) 0.4846(2)
H27 H 1.4081 0.4654 0.4914
C43 C 1.0843(3) 0.3884(2) 0.3504(2)
H28 H 1.0632 0.3433 0.3613
H29 H 1.1250 0.3725 0.3136
C44 C 0.8859(3) 0.3901(2) 0.29939(19)
H30 H 0.8600 0.3436 0.3011
C45 C 0.8290(3) 0.44166(19) 0.27232(18)
C46 C 0.7178(2) 0.43618(18) 0.23671(17)
C47 C 0.6652(3) 0.37026(18) 0.19048(18)
H31 H 0.7029 0.3263 0.1840
C48 C 0.5611(3) 0.36606(17) 0.15390(15)
C49 C 0.5090(3) 0.43360(17) 0.16638(16)
H32 H 0.4370 0.4328 0.1425
C50 C 0.6608(2) 0.50004(17) 0.24365(16)
H33 H 0.6953 0.5463 0.2726
C51 C 0.5062(3) 0.29938(19) 0.10699(17)
C52 C 0.5441(3) 0.23109(19) 0.08107(19)
H34 H 0.6157 0.2173 0.0895
C53 C 0.4530(3) 0.1109(2) -0.0033(2)
H35 H 0.3820 0.0858 -0.0104
H36 H 0.5069 0.0838 0.0204
C54 C 0.4759(3) 0.1078(2) -0.0727(2)
C55 C 0.4549(4) 0.1657(3) -0.1015(2)
H37 H 0.4201 0.2071 -0.0793
C56 C 0.4854(4) 0.1633(3) -0.1646(2)
H38 H 0.4695 0.2033 -0.1838
C57 C 0.5370(3) 0.1049(2) -0.1984(2)
C58 C 0.5515(4) 0.0457(2) -0.1717(2)
H39 H 0.5827 0.0031 -0.1954
C59 C 0.5205(4) 0.0467(2) -0.1089(2)
H40 H 0.5308 0.0048 -0.0920
C60 C 0.5793(3) 0.1088(2) -0.2570(2)
C61 C 0.5362(3) 0.1548(2) -0.2977(2)
H41 H 0.4728 0.1788 -0.2906
C62 C 0.5844(3) 0.1653(2) -0.3472(2)
H42 H 0.5563 0.1987 -0.3723
C63 C 0.6751(3) 0.1276(2) -0.3619(2)
C64 C 0.7119(4) 0.0809(2) -0.3251(2)
H43 H 0.7719 0.0539 -0.3352
C65 C 0.6665(3) 0.0701(2) -0.2728(2)
H44 H 0.6953 0.0364 -0.2482
C66 C 0.7338(3) 0.1451(2) -0.4128(2)
H45 H 0.7544 0.0986 -0.4429
H46 H 0.6871 0.1706 -0.4425
C67 C 0.8406(3) 0.2630(2) -0.3299(2)
H47 H 0.7852 0.2949 -0.3202
C68 C 0.9479(3) 0.2778(2) -0.30359(17)
C69 C 1.0064(3) 0.34480(19) -0.25044(17)
H48 H 1.0715 0.3586 -0.2638
H49 H 0.9606 0.3874 -0.2450
C70 C 1.0937(2) 0.37652(19) -0.13038(17)
C71 C 1.1175(3) 0.4504(2) -0.12493(19)
H50 H 1.0920 0.4692 -0.1629
C72 C 1.1791(3) 0.4964(2) -0.06357(19)
H51 H 1.1943 0.5469 -0.0603
C73 C 1.2190(3) 0.47119(18) -0.00693(18)
C74 C 1.1948(3) 0.3949(2) -0.01428(18)
H52 H 1.2219 0.3758 0.0234
C75 C 1.1339(3) 0.3483(2) -0.07372(18)
H53 H 1.1187 0.2978 -0.0772
Zn1_2 Zn 1.46472(3) 0.59435(2) 0.219409(18)
N1_2 N 0.4505(2) 0.62225(14) 0.32185(13)
N2_2 N 0.3104(2) 0.54650(15) 0.18685(14)
N3_2 N 0.4494(2) 0.59819(15) 0.11787(14)
N4_2 N 0.5924(2) 0.67200(15) 0.25179(13)
loop_
_geom_bond_atom_site_label_1
_geom_bond_atom_site_label_2
_geom_bond_site_symmetry_1
_geom_bond_site_symmetry_2
Zn1 N11 1_555 1_555
O1 C24 1_555 1_555
O2 C69 1_555 1_555
N1 C1 1_555 1_555
N2 C6 1_555 1_555
N3 C11 1_555 1_555
N4 C16 1_555 1_555
N5 N6 1_555 1_555
N6 N7 1_555 1_555
N7 C29 1_555 1_555
N8 N9 1_555 1_555
N9 N10 1_555 1_555
N10 C45 1_555 1_555
N11 C49 1_555 1_555
N12 N13 1_555 1_555
N13 N14 1_555 1_555
N14 C52 1_555 1_555
N15 N16 1_555 1_555
N16 N17 1_555 1_555
N17 C68 1_555 1_555
C1 C2 1_555 1_555
C2 H1 1_555 1_555
C3 C2 1_555 1_555
H2 C3 1_555 1_555
C4 N1 1_555 1_555
C5 C4 1_555 1_555
H3 C5 1_555 1_555
C6 C5 1_555 1_555
C7 C6 1_555 1_555
H4 C7 1_555 1_555
C8 C7 1_555 1_555
H5 C8 1_555 1_555
C9 N2 1_555 1_555
C10 C9 1_555 1_555
C11 C10 1_555 1_555
C12 C11 1_555 1_555
H6 C12 1_555 1_555
C13 C12 1_555 1_555
H7 C13 1_555 1_555
C14 N3 1_555 1_555
C15 C14 1_555 1_555
H8 C15 1_555 1_555
C16 C15 1_555 1_555
C17 C16 1_555 1_555
H9 C17 1_555 1_555
C18 C17 1_555 1_555
H10 C18 1_555 1_555
C19 N4 1_555 1_555
C20 C1 1_555 1_555
C21 C20 1_555 1_555
C22 C21 1_555 1_555
H11 C22 1_555 1_555
C23 C22 1_555 1_555
H12 C23 1_555 1_555
C24 C23 1_555 1_555
C25 C24 1_555 1_555
H13 C25 1_555 1_555
C26 C21 1_555 1_555
H14 C26 1_555 1_555
C27 O1 1_555 1_555
H15 C27 1_555 1_555
H16 C27 1_555 1_555
C28 N5 1_555 1_555
C29 C28 1_555 1_555
H17 C29 1_555 1_555
C30 N7 1_555 1_555
H18 C30 1_555 1_555
H19 C30 1_555 1_555
C31 C30 1_555 1_555
C32 C31 1_555 1_555
H20 C32 1_555 1_555
C33 C32 1_555 1_555
H21 C33 1_555 1_555
C34 C33 1_555 1_555
C35 C34 1_555 1_555
H22 C35 1_555 1_555
C36 C31 1_555 1_555
H23 C36 1_555 1_555
C37 C34 1_555 1_555
C38 C37 1_555 1_555
H24 C38 1_555 1_555
C39 C38 1_555 1_555
H25 C39 1_555 1_555
C40 C39 1_555 1_555
C41 C40 1_555 1_555
H26 C41 1_555 1_555
C42 C37 1_555 1_555
H27 C42 1_555 1_555
C43 N8 1_555 1_555
H28 C43 1_555 1_555
H29 C43 1_555 1_555
C44 N8 1_555 1_555
H30 C44 1_555 1_555
C45 C44 1_555 1_555
C46 C45 1_555 1_555
C47 C46 1_555 1_555
H31 C47 1_555 1_555
C48 C47 1_555 1_555
C49 C48 1_555 1_555
H32 C49 1_555 1_555
C50 N11 1_555 1_555
H33 C50 1_555 1_555
C51 N12 1_555 1_555
C52 C51 1_555 1_555
H34 C52 1_555 1_555
C53 N14 1_555 1_555
H35 C53 1_555 1_555
H36 C53 1_555 1_555
C54 C53 1_555 1_555
C55 C54 1_555 1_555
H37 C55 1_555 1_555
C56 C55 1_555 1_555
H38 C56 1_555 1_555
C57 C56 1_555 1_555
C58 C57 1_555 1_555
H39 C58 1_555 1_555
C59 C54 1_555 1_555
H40 C59 1_555 1_555
C60 C57 1_555 1_555
C61 C60 1_555 1_555
H41 C61 1_555 1_555
C62 C61 1_555 1_555
H42 C62 1_555 1_555
C63 C62 1_555 1_555
C64 C63 1_555 1_555
H43 C64 1_555 1_555
C65 C60 1_555 1_555
H44 C65 1_555 1_555
C66 N15 1_555 1_555
H45 C66 1_555 1_555
H46 C66 1_555 1_555
C67 N15 1_555 1_555
H47 C67 1_555 1_555
C68 C67 1_555 1_555
C69 C68 1_555 1_555
H48 C69 1_555 1_555
H49 C69 1_555 1_555
C70 O2 1_555 1_555
C71 C70 1_555 1_555
H50 C71 1_555 1_555
C72 C71 1_555 1_555
H51 C72 1_555 1_555
C73 C10 1_555 1_555
C74 C73 1_555 1_555
H52 C74 1_555 1_555
C75 C70 1_555 1_555
H53 C75 1_555 1_555
Zn1_2 N1 1_555 1_555
N1_2 Zn1 1_555 1_555
N2_2 Zn1 1_555 1_555
N3_2 Zn1 1_555 1_555
N4_2 Zn1 1_555 1_555
N2 Zn1_2 1_555 1_555
N3 Zn1_2 1_555 1_555
N4 Zn1_2 1_555 1_555
C3 C4 1_555 1_555
C8 C9 1_555 1_555
C13 C14 1_555 1_555
C18 C19 1_555 1_555
C19 C20 1_555 1_555
C25 C26 1_555 1_555
C27 C28 1_555 1_555
C35 C36 1_555 1_555
C40 C43 1_555 1_555
C41 C42 1_555 1_555
C46 C50 1_555 1_555
C48 C51 1_555 1_555
C58 C59 1_555 1_555
C63 C66 1_555 1_555
C64 C65 1_555 1_555
C72 C73 1_555 1_555
C74 C75 1_555 1_555

#END
