
#######################################################################
#
#                 Cambridge Crystallographic Data Centre
#                                CCDC 
#
#######################################################################
#
# If this CIF has been generated from an entry in the Cambridge 
# Structural Database, then it will include bibliographic, chemical, 
# crystal, experimental, refinement or atomic coordinate data resulting 
# from the CCDC's data processing and validation procedures.
#
#######################################################################

data_EWEVIL
_symmetry_cell_setting           monoclinic
_symmetry_space_group_name_H-M   'P 21/c'
_symmetry_Int_Tables_number      14
_space_group_name_Hall           '-P 2ybc'
loop_
_symmetry_equiv_pos_site_id
_symmetry_equiv_pos_as_xyz
1 x,y,z
2 x,1/2-y,1/2+z
3 -x,-y,-z
4 -x,1/2+y,1/2-z
_cell_length_a                   7.9731(16)
_cell_length_b                   16.946(3)
_cell_length_c                   12.922(3)
_cell_angle_alpha                90
_cell_angle_beta                 92.798(4)
_cell_angle_gamma                90
_cell_volume                     1743.84
loop_
_atom_site_label
_atom_site_type_symbol
_atom_site_fract_x
_atom_site_fract_y
_atom_site_fract_z
Zn1 Zn 0.13043(6) 0.49823(3) 0.42315(3)
O1 O 0.2288(4) 0.58696(18) 0.5110(3)
O2 O 0.0338(4) 0.58932(18) 0.6293(2)
C1 C 0.1686(6) 0.6112(3) 0.5941(4)
C2 C 0.4330(6) 0.6877(3) 0.6327(3)
H1 H 0.4812 0.6608 0.5769
C3 C 0.2703(6) 0.6715(3) 0.6554(3)
C4 C 0.1974(6) 0.7124(3) 0.7360(4)
H2 H 0.0843 0.7015 0.7511
C5 C 0.2860(6) 0.7678(2) 0.7935(3)
H3 H 0.2331 0.7956 0.8468
C6 C 0.4556(6) 0.7838(2) 0.7740(3)
C7 C 0.5547(6) 0.8367(3) 0.8352(4)
H4 H 0.5050 0.8650 0.8893
C8 C 0.7210(6) 0.8477(3) 0.8180(3)
C9 C 0.7933(6) 0.8095(3) 0.7330(3)
H5 H 0.9069 0.8197 0.7184
C10 C 0.7009(6) 0.7581(3) 0.6720(4)
H6 H 0.7515 0.7319 0.6165
C11 C 0.5311(6) 0.7437(3) 0.6908(3)
C12 C 0.8279(6) 0.9017(3) 0.8866(4)
O3 O 0.7691(4) 0.92056(19) 0.9713(3)
O4 O 0.9662(4) 0.92330(18) 0.8547(2)
O5 O 0.2926(4) 0.48991(18) 0.3127(2)
C13 C 0.2809(6) 0.4364(3) 0.2446(4)
H7 H 0.1970 0.3971 0.2506
N1 N 0.3794(5) 0.4324(2) 0.1657(3)
C14 C 0.3509(7) 0.3737(3) 0.0843(4)
H8 H 0.2790 0.3316 0.1092
H9 H 0.4587 0.3514 0.0656
H10 H 0.2958 0.3987 0.0232
C15 C 0.5043(7) 0.4932(3) 0.1534(5)
H11 H 0.4517 0.5391 0.1189
H12 H 0.5937 0.4729 0.1113
H13 H 0.5521 0.5089 0.2216
O1B O -0.2288(4) 0.41304(18) 0.4890(3)
O2B O -0.0338(4) 0.41068(18) 0.3707(2)
C1B C -0.1686(6) 0.3888(3) 0.4059(4)
C2B C -0.4330(6) 0.3123(3) 0.3673(3)
H1B H -0.4812 0.3392 0.4231
C3B C -0.2703(6) 0.3285(3) 0.3446(3)
C4B C -0.1974(6) 0.2876(3) 0.2640(4)
H2B H -0.0843 0.2985 0.2489
C5B C -0.2860(6) 0.2322(2) 0.2065(3)
H3B H -0.2331 0.2044 0.1532
C6B C -0.4556(6) 0.2162(2) 0.2260(3)
C7B C -0.5547(6) 0.1633(3) 0.1648(4)
H4B H -0.5050 0.1350 0.1107
C8B C -0.7210(6) 0.1523(3) 0.1820(3)
C9B C -0.7933(6) 0.1905(3) 0.2670(3)
H5B H -0.9069 0.1803 0.2816
C10B C -0.7009(6) 0.2419(3) 0.3280(4)
H6B H -0.7515 0.2681 0.3835
C11B C -0.5311(6) 0.2563(3) 0.3092(3)
C12B C -0.8279(6) 0.0983(3) 0.1134(4)
O3B O -0.7691(4) 0.07944(19) 0.0287(3)
O4B O -0.9662(4) 0.07670(18) 0.1453(2)
Zn1B Zn -0.13043(6) 0.50177(3) 0.57685(3)
O5B O -0.2926(4) 0.51009(18) 0.6873(2)
C13B C -0.2809(6) 0.5636(3) 0.7554(4)
H7B H -0.1970 0.6029 0.7494
N1B N -0.3794(5) 0.5676(2) 0.8343(3)
C14B C -0.3509(7) 0.6263(3) 0.9157(4)
H8B H -0.2790 0.6684 0.8908
H9B H -0.4587 0.6486 0.9344
H10B H -0.2958 0.6013 0.9768
C15B C -0.5043(7) 0.5068(3) 0.8466(5)
H11B H -0.4517 0.4609 0.8811
H12B H -0.5937 0.5271 0.8887
H13B H -0.5521 0.4911 0.7784
O3C O 0.2309(4) 0.42056(19) 0.5287(3)
O4A O -0.0338(4) 0.57670(18) 0.3547(2)
Zn1C Zn 0.86957(6) 0.99823(3) 1.07685(3)
Zn1A Zn 1.13043(6) 1.00177(3) 0.92315(3)
Zn1A_2 Zn -0.86957(6) 0.00177(3) -0.07685(3)
Zn1C_2 Zn -1.13043(6) -0.00177(3) 0.07685(3)
O3A O -0.2309(4) 0.57944(19) 0.4713(3)
O4C O 0.0338(4) 0.42330(18) 0.6453(2)
C16 C 0.0197(7) 0.5351(3) 0.0958(4)
H14 H 0.0323 0.5588 0.1623
C17 C 0.0789(7) 0.5744(3) 0.0105(4)
C18 C -0.0567(7) 0.4625(3) 0.0859(4)
H15 H -0.0951 0.4370 0.1458
C19 C 0.1566(8) 0.6557(3) 0.0224(4)
H16 H 0.0675 0.6952 0.0265
H17 H 0.2237 0.6670 -0.0374
H18 H 0.2289 0.6574 0.0860
C18B C 0.0567(7) 0.5375(3) -0.0859(4)
C16B C -0.0197(7) 0.4649(3) -0.0958(4)
H14B H -0.0323 0.4412 -0.1623
C17B C -0.0789(7) 0.4256(3) -0.0105(4)
C19B C -0.1566(8) 0.3443(3) -0.0224(4)
H16B H -0.0675 0.3048 -0.0265
H17B H -0.2237 0.3330 0.0374
H18B H -0.2289 0.3426 -0.0860
H15B H 0.0951 0.5630 -0.1458
loop_
_geom_bond_atom_site_label_1
_geom_bond_atom_site_label_2
_geom_bond_site_symmetry_1
_geom_bond_site_symmetry_2
Zn1 O1 1_555 1_555
O1 C1 1_555 1_555
O2 C1 1_555 1_555
C1 C3 1_555 1_555
C2 H1 1_555 1_555
C3 C2 1_555 1_555
C4 C3 1_555 1_555
H2 C4 1_555 1_555
C5 C4 1_555 1_555
H3 C5 1_555 1_555
C6 C5 1_555 1_555
C7 C6 1_555 1_555
H4 C7 1_555 1_555
C8 C7 1_555 1_555
C9 C8 1_555 1_555
H5 C9 1_555 1_555
C10 C9 1_555 1_555
H6 C10 1_555 1_555
C11 C2 1_555 1_555
C12 C8 1_555 1_555
O3 C12 1_555 1_555
O4 C12 1_555 1_555
O5 Zn1 1_555 1_555
C13 O5 1_555 1_555
H7 C13 1_555 1_555
N1 C13 1_555 1_555
C14 N1 1_555 1_555
H8 C14 1_555 1_555
H9 C14 1_555 1_555
H10 C14 1_555 1_555
C15 N1 1_555 1_555
H11 C15 1_555 1_555
H12 C15 1_555 1_555
H13 C15 1_555 1_555
C16 H14 1_555 1_555
C17 C16 1_555 1_555
C18 C16 1_555 1_555
H15 C18 1_555 1_555
C19 C17 1_555 1_555
H16 C19 1_555 1_555
H17 C19 1_555 1_555
H18 C19 1_555 1_555
C18B C17 1_555 1_555
C16B C18B 1_555 1_555
H14B C16B 1_555 1_555
C17B C18 1_555 1_555
C19B C17B 1_555 1_555
H16B C19B 1_555 1_555
H17B C19B 1_555 1_555
H18B C19B 1_555 1_555
H15B C18B 1_555 1_555
O1B C1B 1_555 1_555
O2B Zn1 1_555 1_555
C1B O2B 1_555 1_555
C2B H1B 1_555 1_555
C3B C1B 1_555 1_555
C4B C3B 1_555 1_555
H2B C4B 1_555 1_555
C5B C4B 1_555 1_555
H3B C5B 1_555 1_555
C6B C5B 1_555 1_555
C7B C6B 1_555 1_555
H4B C7B 1_555 1_555
C8B C7B 1_555 1_555
C9B C8B 1_555 1_555
H5B C9B 1_555 1_555
C10B C9B 1_555 1_555
H6B C10B 1_555 1_555
C11B C2B 1_555 1_555
C12B C8B 1_555 1_555
O3B C12B 1_555 1_555
O4B C12B 1_555 1_555
Zn1B Zn1 1_555 1_555
O5B Zn1B 1_555 1_555
C13B O5B 1_555 1_555
H7B C13B 1_555 1_555
N1B C13B 1_555 1_555
C14B N1B 1_555 1_555
H8B C14B 1_555 1_555
H9B C14B 1_555 1_555
H10B C14B 1_555 1_555
C15B N1B 1_555 1_555
H11B C15B 1_555 1_555
H12B C15B 1_555 1_555
H13B C15B 1_555 1_555
O3C Zn1 1_555 1_555
O4A Zn1 1_555 1_555
Zn1C O3 1_555 1_555
Zn1A O4 1_555 1_555
Zn1A_2 O3B 1_555 1_555
Zn1C_2 O4B 1_555 1_555
O3A Zn1B 1_555 1_555
O4C Zn1B 1_555 1_555
O2 Zn1B 1_555 1_555
C6 C11 1_555 1_555
C10 C11 1_555 1_555
C16B C17B 1_555 1_555
O1B Zn1B 1_555 1_555
C2B C3B 1_555 1_555
C6B C11B 1_555 1_555
C10B C11B 1_555 1_555
Zn1C Zn1A 1_555 1_555
Zn1A_2 Zn1C_2 1_555 1_555

#END
