
#######################################################################
#
#                 Cambridge Crystallographic Data Centre
#                                CCDC 
#
#######################################################################
#
# If this CIF has been generated from an entry in the Cambridge 
# Structural Database, then it will include bibliographic, chemical, 
# crystal, experimental, refinement or atomic coordinate data resulting 
# from the CCDC's data processing and validation procedures.
#
#######################################################################

data_EWEVAD
_symmetry_cell_setting           monoclinic
_symmetry_space_group_name_H-M   'P 21/c'
_symmetry_Int_Tables_number      14
_space_group_name_Hall           '-P 2ybc'
loop_
_symmetry_equiv_pos_site_id
_symmetry_equiv_pos_as_xyz
1 x,y,z
2 x,1/2-y,1/2+z
3 -x,-y,-z
4 -x,1/2+y,1/2-z
_cell_length_a                   8.340(2)
_cell_length_b                   15.660(4)
_cell_length_c                   13.008(4)
_cell_angle_alpha                90
_cell_angle_beta                 91.340(5)
_cell_angle_gamma                90
_cell_volume                     1698.44
loop_
_atom_site_label
_atom_site_type_symbol
_atom_site_fract_x
_atom_site_fract_y
_atom_site_fract_z
Zn1 Zn 0.62402(8) 1.00296(5) -0.07951(6)
O1 O 0.7116(5) 0.9050(3) 0.0063(4)
O2 O 0.5274(5) 0.9000(3) 0.1287(4)
C1 C 0.6581(8) 0.8785(4) 0.0913(6)
C2 C 0.9183(8) 0.8060(4) 0.1257(5)
H1 H 0.9575 0.8331 0.0659
C3 C 0.7628(8) 0.8182(4) 0.1537(6)
C4 C 0.7012(8) 0.7774(4) 0.2387(6)
H2 H 0.5926 0.7867 0.2560
C5 C 0.7950(8) 0.7234(4) 0.2987(6)
H3 H 0.7506 0.6950 0.3560
C6 C 0.9581(7) 0.7105(4) 0.2741(5)
C7 C 1.0623(8) 0.6599(4) 0.3354(5)
H4 H 1.0216 0.6313 0.3937
C8 C 1.2219(8) 0.6509(4) 0.3125(6)
C9 C 1.2839(8) 0.6902(4) 0.2250(5)
H5 H 1.3936 0.6829 0.2090
C10 C 1.1846(7) 0.7397(4) 0.1619(6)
H6 H 1.2264 0.7652 0.1019
C11 C 1.0209(7) 0.7526(4) 0.1863(5)
C12 C 1.3305(9) 0.6002(4) 0.3828(6)
O3 O 1.2809(6) 0.5819(3) 0.4707(4)
O4 O 1.4651(5) 0.5781(3) 0.3488(4)
O5 O 0.7870(5) 1.0148(3) -0.1875(4)
N1 N 0.8703(6) 1.0723(3) -0.3363(5)
C13 C 0.7713(8) 1.0662(4) -0.2600(6)
H7 H 0.6814 1.1035 -0.2601
C14 C 0.8365(8) 1.1286(4) -0.4242(6)
H8 H 0.8048 1.0942 -0.4842
H9 H 0.9328 1.1616 -0.4397
H10 H 0.7492 1.1678 -0.4075
C15 C 1.0107(9) 1.0168(5) -0.3421(7)
H11 H 1.0437 0.9986 -0.2727
H12 H 1.0988 1.0480 -0.3736
H13 H 0.9838 0.9665 -0.3839
O1B O 0.2884(5) 1.0950(3) -0.0063(4)
O2B O 0.4726(5) 1.1000(3) -0.1287(4)
C1B C 0.3419(8) 1.1215(4) -0.0913(6)
C2B C 0.0817(8) 1.1940(4) -0.1257(5)
H1B H 0.0425 1.1669 -0.0659
C3B C 0.2372(8) 1.1818(4) -0.1537(6)
C4B C 0.2988(8) 1.2226(4) -0.2387(6)
H2B H 0.4074 1.2133 -0.2560
C5B C 0.2050(8) 1.2766(4) -0.2987(6)
H3B H 0.2494 1.3050 -0.3560
C6B C 0.0419(7) 1.2895(4) -0.2741(5)
C7B C -0.0623(8) 1.3401(4) -0.3354(5)
H4B H -0.0216 1.3687 -0.3937
C8B C -0.2219(8) 1.3491(4) -0.3125(6)
C9B C -0.2839(8) 1.3098(4) -0.2250(5)
H5B H -0.3936 1.3171 -0.2090
C10B C -0.1846(7) 1.2603(4) -0.1619(6)
H6B H -0.2264 1.2348 -0.1019
C11B C -0.0209(7) 1.2474(4) -0.1863(5)
C12B C -0.3305(9) 1.3998(4) -0.3828(6)
O3B O -0.2809(6) 1.4181(3) -0.4707(4)
O4B O -0.4651(5) 1.4219(3) -0.3488(4)
Zn1B Zn 0.37598(8) 0.99704(5) 0.07951(6)
O5B O 0.2130(5) 0.9852(3) 0.1875(4)
N1B N 0.1297(6) 0.9277(3) 0.3363(5)
C13B C 0.2287(8) 0.9338(4) 0.2600(6)
H7B H 0.3186 0.8965 0.2601
C14B C 0.1635(8) 0.8714(4) 0.4242(6)
H8B H 0.1952 0.9058 0.4842
H9B H 0.0672 0.8384 0.4397
H10B H 0.2508 0.8322 0.4075
C15B C -0.0107(9) 0.9832(5) 0.3421(7)
H11B H -0.0437 1.0014 0.2727
H12B H -0.0988 0.9520 0.3736
H13B H 0.0162 1.0335 0.3839
O3C O 0.7191(6) 1.0819(3) 0.0293(4)
O4A O 0.4651(5) 0.9219(3) -0.1512(4)
Zn1C Zn 1.37598(8) 0.50296(5) 0.57951(6)
Zn1A Zn 1.62402(8) 0.49704(5) 0.42049(6)
Zn1A_2 Zn -0.37598(8) 1.49704(5) -0.57951(6)
Zn1C_2 Zn -0.62402(8) 1.50296(5) -0.42049(6)
O3A O 0.2809(6) 0.9181(3) -0.0293(4)
O4C O 0.5349(5) 1.0781(3) 0.1512(4)
C16 C 0.4532(10) 1.0136(6) 0.5999(6)
H14 H 0.4195 1.0244 0.6679
C17 C 0.5517(10) 0.9480(6) 0.5808(7)
H15 H 0.5877 0.9118 0.6352
C18 C 0.4000(10) 1.0666(6) 0.5179(8)
H16 H 0.3299 1.1128 0.5313
C18B C 0.6000(10) 0.9334(6) 0.4821(8)
C16B C 0.5468(10) 0.9864(6) 0.4001(6)
H14B H 0.5805 0.9756 0.3321
C17B C 0.4483(10) 1.0520(6) 0.4192(7)
H15B H 0.4123 1.0882 0.3648
H16B H 0.6701 0.8872 0.4687
loop_
_geom_bond_atom_site_label_1
_geom_bond_atom_site_label_2
_geom_bond_site_symmetry_1
_geom_bond_site_symmetry_2
Zn1 O1 1_555 1_555
O1 C1 1_555 1_555
O2 C1 1_555 1_555
C1 C3 1_555 1_555
C2 H1 1_555 1_555
C3 C2 1_555 1_555
C4 C3 1_555 1_555
H2 C4 1_555 1_555
C5 C4 1_555 1_555
H3 C5 1_555 1_555
C6 C5 1_555 1_555
C7 C6 1_555 1_555
H4 C7 1_555 1_555
C8 C7 1_555 1_555
C9 C8 1_555 1_555
H5 C9 1_555 1_555
C10 C9 1_555 1_555
H6 C10 1_555 1_555
C11 C2 1_555 1_555
C12 C8 1_555 1_555
O3 C12 1_555 1_555
O4 C12 1_555 1_555
O5 Zn1 1_555 1_555
N1 C13 1_555 1_555
C13 O5 1_555 1_555
H7 C13 1_555 1_555
C14 N1 1_555 1_555
H8 C14 1_555 1_555
H9 C14 1_555 1_555
H10 C14 1_555 1_555
C15 N1 1_555 1_555
H11 C15 1_555 1_555
H12 C15 1_555 1_555
H13 C15 1_555 1_555
C16 H14 1_555 1_555
C17 C16 1_555 1_555
H15 C17 1_555 1_555
C18 C16 1_555 1_555
H16 C18 1_555 1_555
C18B C17 1_555 1_555
C16B C18B 1_555 1_555
H14B C16B 1_555 1_555
C17B C18 1_555 1_555
H15B C17B 1_555 1_555
H16B C18B 1_555 1_555
O1B C1B 1_555 1_555
O2B Zn1 1_555 1_555
C1B O2B 1_555 1_555
C2B H1B 1_555 1_555
C3B C1B 1_555 1_555
C4B C3B 1_555 1_555
H2B C4B 1_555 1_555
C5B C4B 1_555 1_555
H3B C5B 1_555 1_555
C6B C5B 1_555 1_555
C7B C6B 1_555 1_555
H4B C7B 1_555 1_555
C8B C7B 1_555 1_555
C9B C8B 1_555 1_555
H5B C9B 1_555 1_555
C10B C9B 1_555 1_555
H6B C10B 1_555 1_555
C11B C2B 1_555 1_555
C12B C8B 1_555 1_555
O3B C12B 1_555 1_555
O4B C12B 1_555 1_555
Zn1B Zn1 1_555 1_555
O5B Zn1B 1_555 1_555
N1B C13B 1_555 1_555
C13B O5B 1_555 1_555
H7B C13B 1_555 1_555
C14B N1B 1_555 1_555
H8B C14B 1_555 1_555
H9B C14B 1_555 1_555
H10B C14B 1_555 1_555
C15B N1B 1_555 1_555
H11B C15B 1_555 1_555
H12B C15B 1_555 1_555
H13B C15B 1_555 1_555
O3C Zn1 1_555 1_555
O4A Zn1 1_555 1_555
Zn1C O3 1_555 1_555
Zn1A O4 1_555 1_555
Zn1A_2 O3B 1_555 1_555
Zn1C_2 O4B 1_555 1_555
O3A Zn1B 1_555 1_555
O4C Zn1B 1_555 1_555
O2 Zn1B 1_555 1_555
C6 C11 1_555 1_555
C10 C11 1_555 1_555
C16B C17B 1_555 1_555
O1B Zn1B 1_555 1_555
C2B C3B 1_555 1_555
C6B C11B 1_555 1_555
C10B C11B 1_555 1_555
Zn1C Zn1A 1_555 1_555
Zn1A_2 Zn1C_2 1_555 1_555

#END
