
#######################################################################
#
#                 Cambridge Crystallographic Data Centre
#                                CCDC 
#
#######################################################################
#
# If this CIF has been generated from an entry in the Cambridge 
# Structural Database, then it will include bibliographic, chemical, 
# crystal, experimental, refinement or atomic coordinate data resulting 
# from the CCDC's data processing and validation procedures.
#
#######################################################################

data_EWEZAI
_symmetry_cell_setting           triclinic
_symmetry_space_group_name_H-M   'P -1'
_symmetry_Int_Tables_number      2
_space_group_name_Hall           '-P 1'
loop_
_symmetry_equiv_pos_site_id
_symmetry_equiv_pos_as_xyz
1 x,y,z
2 -x,-y,-z
_cell_length_a                   7.7190(5)
_cell_length_b                   11.6921(9)
_cell_length_c                   12.1682(10)
_cell_angle_alpha                79.475(4)
_cell_angle_beta                 80.666(5)
_cell_angle_gamma                72.687(6)
_cell_volume                     1023.98
loop_
_atom_site_label
_atom_site_type_symbol
_atom_site_fract_x
_atom_site_fract_y
_atom_site_fract_z
Cu1 Cu 0.214205(17) 0.437294(11) 0.525192(10)
O1 O 0.27273(11) 0.42127(7) 0.36868(7)
O2 O 0.37725(11) 0.28160(7) 0.56490(7)
O3 O 0.82762(11) 0.54058(7) 0.31917(7)
O4 O 0.92728(11) 0.39768(7) 0.51426(6)
C1 C 0.42729(17) 0.36339(11) 0.19661(9)
H1 H 0.3430 0.3261 0.1740
H2 H 0.5526 0.3243 0.1668
H3 H 0.3959 0.4498 0.1668
C2 C 0.41239(14) 0.34793(9) 0.32354(8)
C3 C 0.54215(13) 0.25464(9) 0.38258(8)
C4 C 0.50738(13) 0.22204(9) 0.49995(9)
C5 C 0.61963(16) 0.10516(10) 0.55857(10)
H4 H 0.6525 0.1197 0.6282
H5 H 0.7310 0.0737 0.5092
H6 H 0.5484 0.0460 0.5764
C6 C 0.8597(2) 0.45038(12) 0.15766(10)
H7 H 0.7450 0.5054 0.1335
H8 H 0.8763 0.3703 0.1370
H9 H 0.9618 0.4821 0.1206
C7 C 0.85341(14) 0.44016(10) 0.28384(9)
C8 C 0.88358(14) 0.32499(9) 0.35205(9)
C9 C 0.93684(13) 0.31030(9) 0.46013(9)
C10 C 1.02318(17) 0.18682(10) 0.52059(11)
H10 H 1.1507 0.1798 0.5278
H11 H 1.0187 0.1247 0.4777
H12 H 0.9564 0.1756 0.5956
C11 C 0.71191(14) 0.18343(9) 0.31931(8)
C12 C 0.87657(14) 0.21684(9) 0.30492(9)
C13 C 1.03258(15) 0.14638(10) 0.24745(10)
H13 H 1.1435 0.1686 0.2374
C14 C 1.02898(15) 0.04450(10) 0.20471(10)
H14 H 1.1365 -0.0023 0.1664
C15 C 0.86647(15) 0.01178(10) 0.21858(9)
H15 H 0.8624 -0.0575 0.1898
C16 C 0.70990(15) 0.08139(10) 0.27491(9)
H16 H 0.5992 0.0592 0.2834
Cu1A Cu 0.785795(17) 0.562706(11) 0.474808(10)
Cu1_2 Cu 1.214205(17) 0.437294(11) 0.525192(10)
O3A O 0.17238(11) 0.45942(7) 0.68083(7)
O4_2 O -0.07272(11) 0.39768(7) 0.51426(6)
O4A O 0.07272(11) 0.60232(7) 0.48574(6)
O5 O 0.44380(15) 0.09613(10) 1.08090(8)
O6 O 0.26847(15) 0.16509(13) 0.94795(11)
N1 N 0.41061(14) 0.15284(10) 0.98760(9)
C17 C 0.54823(15) 0.20830(10) 0.91996(9)
C18 C 0.70457(15) 0.20036(11) 0.96697(9)
H17 H 0.7232 0.1590 1.0408
C19 C 0.83344(16) 0.25468(11) 0.90292(10)
H18 H 0.9409 0.2514 0.9334
C20 C 0.80501(18) 0.31381(11) 0.79434(11)
H19 H 0.8933 0.3506 0.7509
C21 C 0.64752(19) 0.31916(12) 0.74925(10)
H20 H 0.6296 0.3591 0.6750
C22 C 0.51633(17) 0.26662(11) 0.81184(10)
H21 H 0.4083 0.2704 0.7817
loop_
_geom_bond_atom_site_label_1
_geom_bond_atom_site_label_2
_geom_bond_site_symmetry_1
_geom_bond_site_symmetry_2
Cu1 O1 1_555 1_555
O1 C2 1_555 1_555
O2 Cu1 1_555 1_555
O3 C7 1_555 1_555
O4 C9 1_555 1_555
C1 H1 1_555 1_555
H2 C1 1_555 1_555
H3 C1 1_555 1_555
C2 C1 1_555 1_555
C3 C2 1_555 1_555
C4 O2 1_555 1_555
C5 C4 1_555 1_555
H4 C5 1_555 1_555
H5 C5 1_555 1_555
H6 C5 1_555 1_555
C6 H7 1_555 1_555
H8 C6 1_555 1_555
H9 C6 1_555 1_555
C7 C6 1_555 1_555
C8 C7 1_555 1_555
C9 C8 1_555 1_555
C10 C9 1_555 1_555
H10 C10 1_555 1_555
H11 C10 1_555 1_555
H12 C10 1_555 1_555
C11 C3 1_555 1_555
C12 C8 1_555 1_555
C13 C12 1_555 1_555
H13 C13 1_555 1_555
C14 C13 1_555 1_555
H14 C14 1_555 1_555
C15 C14 1_555 1_555
H15 C15 1_555 1_555
C16 C11 1_555 1_555
H16 C16 1_555 1_555
O5 N1 1_555 1_555
O6 N1 1_555 1_555
N1 C17 1_555 1_555
C17 C18 1_555 1_555
C18 H17 1_555 1_555
C19 C18 1_555 1_555
H18 C19 1_555 1_555
C20 C19 1_555 1_555
H19 C20 1_555 1_555
C21 C20 1_555 1_555
H20 C21 1_555 1_555
C22 C17 1_555 1_555
H21 C22 1_555 1_555
Cu1A O3 1_555 1_555
Cu1_2 O4 1_555 1_555
O3A Cu1 1_555 1_555
O4_2 Cu1 1_555 1_555
O4A Cu1 1_555 1_555
O4 Cu1A 1_555 1_555
C3 C4 1_555 1_555
C11 C12 1_555 1_555
C15 C16 1_555 1_555
C21 C22 1_555 1_555

#END
