
#######################################################################
#
#                 Cambridge Crystallographic Data Centre
#                                CCDC 
#
#######################################################################
#
# If this CIF has been generated from an entry in the Cambridge 
# Structural Database, then it will include bibliographic, chemical, 
# crystal, experimental, refinement or atomic coordinate data resulting 
# from the CCDC's data processing and validation procedures.
#
#######################################################################

data_EWEZIQ
_symmetry_cell_setting           triclinic
_symmetry_space_group_name_H-M   'P -1'
_symmetry_Int_Tables_number      2
_space_group_name_Hall           '-P 1'
loop_
_symmetry_equiv_pos_site_id
_symmetry_equiv_pos_as_xyz
1 x,y,z
2 -x,-y,-z
_cell_length_a                   8.670(3)
_cell_length_b                   11.963(5)
_cell_length_c                   12.116(8)
_cell_angle_alpha                101.86(2)
_cell_angle_beta                 110.69(2)
_cell_angle_gamma                101.23(2)
_cell_volume                     1100.37
loop_
_atom_site_label
_atom_site_type_symbol
_atom_site_fract_x
_atom_site_fract_y
_atom_site_fract_z
Cu1 Cu 0.75121(14) 0.35432(9) 0.52477(11)
O1 O 0.7615(7) 0.2276(5) 0.4020(6)
O2 O 0.6331(8) 0.4182(6) 0.3993(6)
O3 O 1.2248(7) 0.4996(5) 0.3583(5)
O4 O 1.0840(7) 0.6829(5) 0.3406(6)
N1 N 0.5022(8) 0.2512(6) 0.5291(6)
C1 C 0.7643(12) 0.1190(9) 0.2183(10)
H1 H 0.8802 0.1131 0.2615
H2 H 0.7503 0.1278 0.1370
H3 H 0.6784 0.0466 0.2080
C2 C 0.7400(11) 0.2247(8) 0.2920(9)
C3 C 0.6855(11) 0.3137(8) 0.2326(9)
C4 C 0.6276(11) 0.3990(8) 0.2885(9)
C5 C 0.5368(13) 0.4769(9) 0.2194(10)
H4 H 0.4489 0.4934 0.2482
H5 H 0.4820 0.4351 0.1305
H6 H 0.6214 0.5523 0.2351
C6 C 1.1064(12) 0.3223(9) 0.1983(9)
H7 H 1.2272 0.3267 0.2161
H8 H 1.0405 0.3012 0.1088
H9 H 1.0585 0.2613 0.2299
C7 C 1.0959(11) 0.4399(8) 0.2591(9)
C8 C 0.9523(11) 0.4839(8) 0.2014(8)
C9 C 0.9661(11) 0.6036(8) 0.2395(9)
C10 C 0.8524(12) 0.6597(9) 0.1582(10)
H10 H 0.8292 0.7236 0.2093
H11 H 0.7434 0.5992 0.1012
H12 H 0.9100 0.6932 0.1107
C11 C 0.6822(11) 0.3102(8) 0.1073(9)
C12 C 0.7988(11) 0.3965(8) 0.0913(9)
C13 C 0.7816(12) 0.3936(9) -0.0243(9)
H13 H 0.8610 0.4527 -0.0350
C14 C 0.6525(13) 0.3078(9) -0.1278(10)
H14 H 0.6447 0.3081 -0.2080
C15 C 0.5373(13) 0.2235(9) -0.1145(10)
H15 H 0.4506 0.1625 -0.1850
C16 C 0.5469(12) 0.2267(8) 0.0024(10)
H16 H 0.4608 0.1716 0.0117
C17 C 0.4915(11) 0.1447(8) 0.5563(8)
H17 H 0.5868 0.1130 0.5722
C18 C 0.3459(10) 0.0853(7) 0.5602(7)
H18 H 0.3418 0.0119 0.5793
C19 C 0.1989(10) 0.1260(7) 0.5376(8)
C20 C 0.2188(10) 0.2355(7) 0.5100(8)
H19 H 0.1244 0.2681 0.4923
C21 C 0.3681(10) 0.2971(8) 0.5075(8)
H20 H 0.3768 0.3717 0.4907
C22 C 0.0414(11) 0.0643(7) 0.5465(9)
H21 H -0.0426 0.1107 0.5289
H22 H 0.0698 0.0595 0.6317
Cu1A Cu 1.24879(14) 0.64568(9) 0.47523(11)
Cu1A_2 Cu -0.75121(14) -0.35432(9) 0.47523(11)
Cu1_2 Cu -1.24879(14) -0.64568(9) 0.52477(11)
O1A O -0.7615(7) -0.2276(5) 0.5980(6)
O2A O -0.6331(8) -0.4182(6) 0.6007(6)
O3A O 0.7752(7) 0.5004(5) 0.6417(5)
O3_2 O -0.7752(7) -0.5004(5) 0.3583(5)
O3A_2 O -1.2248(7) -0.4996(5) 0.6417(5)
O4A O 0.9160(7) 0.3171(5) 0.6594(6)
O4_2 O -0.9160(7) -0.3171(5) 0.3406(6)
O4A_2 O -1.0840(7) -0.6829(5) 0.6594(6)
N1A N -0.5022(8) -0.2512(6) 0.4709(6)
C1A C -0.7643(12) -0.1190(9) 0.7817(10)
H1A H -0.8802 -0.1131 0.7385
H2A H -0.7503 -0.1278 0.8630
H3A H -0.6784 -0.0466 0.7920
C2A C -0.7400(11) -0.2247(8) 0.7080(9)
C3A C -0.6855(11) -0.3137(8) 0.7674(9)
C4A C -0.6276(11) -0.3990(8) 0.7115(9)
C5A C -0.5368(13) -0.4769(9) 0.7806(10)
H4A H -0.4489 -0.4934 0.7518
H5A H -0.4820 -0.4351 0.8695
H6A H -0.6214 -0.5523 0.7649
C6A C -1.1064(12) -0.3223(9) 0.8017(9)
H7A H -1.2272 -0.3267 0.7839
H8A H -1.0405 -0.3012 0.8912
H9A H -1.0585 -0.2613 0.7701
C7A C -1.0959(11) -0.4399(8) 0.7409(9)
C8A C -0.9523(11) -0.4839(8) 0.7986(8)
C9A C -0.9661(11) -0.6036(8) 0.7605(9)
C10A C -0.8524(12) -0.6597(9) 0.8418(10)
H10A H -0.8292 -0.7236 0.7907
H11A H -0.7434 -0.5992 0.8988
H12A H -0.9100 -0.6932 0.8893
C11A C -0.6822(11) -0.3102(8) 0.8927(9)
C12A C -0.7988(11) -0.3965(8) 0.9087(9)
C13A C -0.7816(12) -0.3936(9) 1.0243(9)
H13A H -0.8610 -0.4527 1.0350
C14A C -0.6525(13) -0.3078(9) 1.1278(10)
H14A H -0.6447 -0.3081 1.2080
C15A C -0.5373(13) -0.2235(9) 1.1145(10)
H15A H -0.4506 -0.1625 1.1850
C16A C -0.5469(12) -0.2267(8) 0.9976(10)
H16A H -0.4608 -0.1716 0.9883
C17A C -0.4915(11) -0.1447(8) 0.4437(8)
H17A H -0.5868 -0.1130 0.4278
C18A C -0.3459(10) -0.0853(7) 0.4398(7)
H18A H -0.3418 -0.0119 0.4207
C19A C -0.1989(10) -0.1260(7) 0.4624(8)
C20A C -0.2188(10) -0.2355(7) 0.4900(8)
H19A H -0.1244 -0.2681 0.5077
C21A C -0.3681(10) -0.2971(8) 0.4925(8)
H20A H -0.3768 -0.3717 0.5093
C22A C -0.0414(11) -0.0643(7) 0.4535(9)
H21A H 0.0426 -0.1107 0.4711
H22A H -0.0698 -0.0595 0.3683
loop_
_geom_bond_atom_site_label_1
_geom_bond_atom_site_label_2
_geom_bond_site_symmetry_1
_geom_bond_site_symmetry_2
Cu1 O1 1_555 1_555
O1 C2 1_555 1_555
O2 Cu1 1_555 1_555
O3 C7 1_555 1_555
O4 C9 1_555 1_555
N1 Cu1 1_555 1_555
C1 H1 1_555 1_555
H2 C1 1_555 1_555
H3 C1 1_555 1_555
C2 C1 1_555 1_555
C3 C2 1_555 1_555
C4 O2 1_555 1_555
C5 C4 1_555 1_555
H4 C5 1_555 1_555
H5 C5 1_555 1_555
H6 C5 1_555 1_555
C6 H7 1_555 1_555
H8 C6 1_555 1_555
H9 C6 1_555 1_555
C7 C6 1_555 1_555
C8 C7 1_555 1_555
C9 C8 1_555 1_555
C10 C9 1_555 1_555
H10 C10 1_555 1_555
H11 C10 1_555 1_555
H12 C10 1_555 1_555
C11 C3 1_555 1_555
C12 C8 1_555 1_555
C13 C12 1_555 1_555
H13 C13 1_555 1_555
C14 C13 1_555 1_555
H14 C14 1_555 1_555
C15 C14 1_555 1_555
H15 C15 1_555 1_555
C16 C11 1_555 1_555
H16 C16 1_555 1_555
C17 N1 1_555 1_555
H17 C17 1_555 1_555
C18 C17 1_555 1_555
H18 C18 1_555 1_555
C19 C18 1_555 1_555
C20 C19 1_555 1_555
H19 C20 1_555 1_555
C21 N1 1_555 1_555
H20 C21 1_555 1_555
C22 C19 1_555 1_555
H21 C22 1_555 1_555
H22 C22 1_555 1_555
Cu1A O3 1_555 1_555
Cu1A_2 O1A 1_555 1_555
Cu1_2 O3A_2 1_555 1_555
O1A C2A 1_555 1_555
O2A Cu1A_2 1_555 1_555
O3A Cu1 1_555 1_555
O3_2 Cu1A_2 1_555 1_555
O3A_2 C7A 1_555 1_555
O4A Cu1 1_555 1_555
O4_2 Cu1A_2 1_555 1_555
O4A_2 Cu1_2 1_555 1_555
N1A Cu1A_2 1_555 1_555
C1A H1A 1_555 1_555
H2A C1A 1_555 1_555
H3A C1A 1_555 1_555
C2A C1A 1_555 1_555
C3A C2A 1_555 1_555
C4A O2A 1_555 1_555
C5A C4A 1_555 1_555
H4A C5A 1_555 1_555
H5A C5A 1_555 1_555
H6A C5A 1_555 1_555
C6A H7A 1_555 1_555
H8A C6A 1_555 1_555
H9A C6A 1_555 1_555
C7A C6A 1_555 1_555
C8A C7A 1_555 1_555
C9A O4A_2 1_555 1_555
C10A C9A 1_555 1_555
H10A C10A 1_555 1_555
H11A C10A 1_555 1_555
H12A C10A 1_555 1_555
C11A C3A 1_555 1_555
C12A C8A 1_555 1_555
C13A C12A 1_555 1_555
H13A C13A 1_555 1_555
C14A C13A 1_555 1_555
H14A C14A 1_555 1_555
C15A C14A 1_555 1_555
H15A C15A 1_555 1_555
C16A C11A 1_555 1_555
H16A C16A 1_555 1_555
C17A N1A 1_555 1_555
H17A C17A 1_555 1_555
C18A C17A 1_555 1_555
H18A C18A 1_555 1_555
C19A C18A 1_555 1_555
C20A C19A 1_555 1_555
H19A C20A 1_555 1_555
C21A N1A 1_555 1_555
H20A C21A 1_555 1_555
C22A C22 1_555 1_555
H21A C22A 1_555 1_555
H22A C22A 1_555 1_555
O4 Cu1A 1_555 1_555
C3 C4 1_555 1_555
C11 C12 1_555 1_555
C15 C16 1_555 1_555
C20 C21 1_555 1_555
C3A C4A 1_555 1_555
C8A C9A 1_555 1_555
C11A C12A 1_555 1_555
C15A C16A 1_555 1_555
C19A C22A 1_555 1_555
C20A C21A 1_555 1_555

#END
