
#######################################################################
#
#                 Cambridge Crystallographic Data Centre
#                                CCDC 
#
#######################################################################
#
# If this CIF has been generated from an entry in the Cambridge 
# Structural Database, then it will include bibliographic, chemical, 
# crystal, experimental, refinement or atomic coordinate data resulting 
# from the CCDC's data processing and validation procedures.
#
#######################################################################

data_EWIFUM
_symmetry_cell_setting           tetragonal
_symmetry_space_group_name_H-M   'P 4/n'
_symmetry_Int_Tables_number      85
_space_group_name_Hall           '-P 4a'
loop_
_symmetry_equiv_pos_site_id
_symmetry_equiv_pos_as_xyz
1 x,y,z
2 1/2-y,x,z
3 1/2-x,1/2-y,z
4 y,1/2-x,z
5 -x,-y,-z
6 1/2+y,-x,-z
7 1/2+x,1/2+y,-z
8 -y,1/2+x,-z
_cell_length_a                   13.3667(17)
_cell_length_b                   13.3667(17)
_cell_length_c                   10.7152(13)
_cell_angle_alpha                90
_cell_angle_beta                 90
_cell_angle_gamma                90
_cell_volume                     1914.47
loop_
_atom_site_label
_atom_site_type_symbol
_atom_site_fract_x
_atom_site_fract_y
_atom_site_fract_z
Re1 Re 0.2500 0.2500 0.63915(3)
Fe1 Fe 0.2500 0.2500 1.13743(10)
Cl1 Cl 0.19880(8) 0.08241(8) 0.63692(10)
O1 O 0.1344(2) 0.1418(2) 1.1401(3)
C1 C 0.2500 0.2500 0.4426(7)
C2 C 0.2500 0.2500 0.8359(8)
C3 C 0.0991(4) 0.0755(4) 1.2118(5)
C4 C 0.0337(5) 0.1053(5) 1.3231(6)
H1 H 0.0355 0.1781 1.3335
H2 H 0.0592 0.0731 1.3989
H3 H -0.0353 0.0837 1.3081
C5 C 0.0746(4) -0.1021(4) 1.2605(7)
H4 H 0.0619 -0.1574 1.2011
H5 H 0.0101 -0.0833 1.2992
C6 C 0.1477(6) -0.1381(6) 1.3629(8)
H6 H 0.2091 -0.1633 1.3239
H7 H 0.1163 -0.1918 1.4113
H8 H 0.1640 -0.0822 1.4184
C7 C 0.1832(4) -0.0464(5) 1.0858(6)
H9 H 0.2383 0.0028 1.0803
H10 H 0.2130 -0.1130 1.1017
C8 C 0.1275(5) -0.0486(6) 0.9646(6)
H11 H 0.0692 -0.0926 0.9724
H12 H 0.1717 -0.0738 0.8987
H13 H 0.1053 0.0192 0.9435
N1 N 0.2500 0.2500 0.3356(6)
N2 N 0.2500 0.2500 0.9438(7)
N3 N 0.1142(3) -0.0184(3) 1.1947(4)
Fe1_2 Fe 0.2500 0.2500 0.13743(10)
Cl1A Cl 0.41759(8) 0.19880(8) 0.63692(10)
Cl1B Cl 0.30120(8) 0.41759(8) 0.63692(10)
Cl1C Cl 0.08241(8) 0.30120(8) 0.63692(10)
O1A O 0.3582(2) 0.1344(2) 1.1401(3)
O1B O 0.3656(2) 0.3582(2) 1.1401(3)
O1C O 0.1418(2) 0.3656(2) 1.1401(3)
C3A C 0.4245(4) 0.0991(4) 1.2118(5)
C3B C 0.4009(4) 0.4245(4) 1.2118(5)
C3C C 0.0755(4) 0.4009(4) 1.2118(5)
C4A C 0.3947(5) 0.0337(5) 1.3231(6)
C4B C 0.4663(5) 0.3947(5) 1.3231(6)
C4C C 0.1053(5) 0.4663(5) 1.3231(6)
H1A H 0.3219 0.0355 1.3335
H1B H 0.4645 0.3219 1.3335
H1C H 0.1781 0.4645 1.3335
H2A H 0.4269 0.0592 1.3989
H2B H 0.4408 0.4269 1.3989
H2C H 0.0731 0.4408 1.3989
H3A H 0.4163 -0.0353 1.3081
H3B H 0.5353 0.4163 1.3081
H3C H 0.0837 0.5353 1.3081
C5A C 0.6021(4) 0.0746(4) 1.2605(7)
C5B C 0.4254(4) 0.6021(4) 1.2605(7)
C5C C -0.1021(4) 0.4254(4) 1.2605(7)
H4A H 0.6574 0.0619 1.2011
H4B H 0.4381 0.6574 1.2011
H4C H -0.1574 0.4381 1.2011
H5A H 0.5833 0.0101 1.2992
H5B H 0.4899 0.5833 1.2992
H5C H -0.0833 0.4899 1.2992
C6A C 0.6381(6) 0.1477(6) 1.3629(8)
C6B C 0.3523(6) 0.6381(6) 1.3629(8)
C6C C -0.1381(6) 0.3523(6) 1.3629(8)
H6A H 0.6633 0.2091 1.3239
H6B H 0.2909 0.6633 1.3239
H6C H -0.1633 0.2909 1.3239
H7A H 0.6918 0.1163 1.4113
H7B H 0.3837 0.6918 1.4113
H7C H -0.1918 0.3837 1.4113
H8A H 0.5822 0.1640 1.4184
H8B H 0.3360 0.5822 1.4184
H8C H -0.0822 0.3360 1.4184
C7A C 0.5464(5) 0.1832(4) 1.0858(6)
C7B C 0.3168(4) 0.5464(5) 1.0858(6)
C7C C -0.0464(5) 0.3168(4) 1.0858(6)
H9A H 0.4972 0.2383 1.0803
H9B H 0.2617 0.4972 1.0803
H9C H 0.0028 0.2617 1.0803
H10A H 0.6130 0.2130 1.1017
H10B H 0.2870 0.6130 1.1017
H10C H -0.1130 0.2870 1.1017
C8A C 0.5486(6) 0.1275(5) 0.9646(6)
C8B C 0.3725(5) 0.5486(6) 0.9646(6)
C8C C -0.0486(6) 0.3725(5) 0.9646(6)
H11A H 0.5926 0.0692 0.9724
H11B H 0.4308 0.5926 0.9724
H11C H -0.0926 0.4308 0.9724
H12A H 0.5738 0.1717 0.8987
H12B H 0.3283 0.5738 0.8987
H12C H -0.0738 0.3283 0.8987
H13A H 0.4808 0.1053 0.9435
H13B H 0.3947 0.4808 0.9435
H13C H 0.0192 0.3947 0.9435
N1_2 N 0.2500 0.2500 1.3356(6)
N3A N 0.5184(3) 0.1142(3) 1.1947(4)
N3B N 0.3858(3) 0.5184(3) 1.1947(4)
N3C N -0.0184(3) 0.3858(3) 1.1947(4)
loop_
_geom_bond_atom_site_label_1
_geom_bond_atom_site_label_2
_geom_bond_site_symmetry_1
_geom_bond_site_symmetry_2
Re1 Cl1 1_555 1_555
Fe1 O1 1_555 1_555
O1 C3 1_555 1_555
C1 Re1 1_555 1_555
C2 Re1 1_555 1_555
C3 C4 1_555 1_555
C4 H1 1_555 1_555
H2 C4 1_555 1_555
H3 C4 1_555 1_555
C5 H4 1_555 1_555
H5 C5 1_555 1_555
C6 C5 1_555 1_555
H6 C6 1_555 1_555
H7 C6 1_555 1_555
H8 C6 1_555 1_555
C7 H9 1_555 1_555
H10 C7 1_555 1_555
C8 C7 1_555 1_555
H11 C8 1_555 1_555
H12 C8 1_555 1_555
H13 C8 1_555 1_555
N1 C1 1_555 1_555
N2 Fe1 1_555 1_555
N3 C3 1_555 1_555
Fe1_2 N1 1_555 1_555
Cl1A Re1 1_555 1_555
Cl1B Re1 1_555 1_555
Cl1C Re1 1_555 1_555
O1A Fe1 1_555 1_555
O1B Fe1 1_555 1_555
O1C Fe1 1_555 1_555
C3A O1A 1_555 1_555
C3B O1B 1_555 1_555
C3C O1C 1_555 1_555
C4A C3A 1_555 1_555
C4B C3B 1_555 1_555
C4C C3C 1_555 1_555
H1A C4A 1_555 1_555
H1B C4B 1_555 1_555
H1C C4C 1_555 1_555
H2A C4A 1_555 1_555
H2B C4B 1_555 1_555
H2C C4C 1_555 1_555
H3A C4A 1_555 1_555
H3B C4B 1_555 1_555
H3C C4C 1_555 1_555
C5A H4A 1_555 1_555
C5B H4B 1_555 1_555
C5C H4C 1_555 1_555
H5A C5A 1_555 1_555
H5B C5B 1_555 1_555
H5C C5C 1_555 1_555
C6A C5A 1_555 1_555
C6B C5B 1_555 1_555
C6C C5C 1_555 1_555
H6A C6A 1_555 1_555
H6B C6B 1_555 1_555
H6C C6C 1_555 1_555
H7A C6A 1_555 1_555
H7B C6B 1_555 1_555
H7C C6C 1_555 1_555
H8A C6A 1_555 1_555
H8B C6B 1_555 1_555
H8C C6C 1_555 1_555
C7A H9A 1_555 1_555
C7B H9B 1_555 1_555
C7C H9C 1_555 1_555
H10A C7A 1_555 1_555
H10B C7B 1_555 1_555
H10C C7C 1_555 1_555
C8A C7A 1_555 1_555
C8B C7B 1_555 1_555
C8C C7C 1_555 1_555
H11A C8A 1_555 1_555
H11B C8B 1_555 1_555
H11C C8C 1_555 1_555
H12A C8A 1_555 1_555
H12B C8B 1_555 1_555
H12C C8C 1_555 1_555
H13A C8A 1_555 1_555
H13B C8B 1_555 1_555
H13C C8C 1_555 1_555
N1_2 Fe1 1_555 1_555
N3A C3A 1_555 1_555
N3B C3B 1_555 1_555
N3C C3C 1_555 1_555
C2 N2 1_555 1_555
C5 N3 1_555 1_555
C7 N3 1_555 1_555
C5A N3A 1_555 1_555
C5B N3B 1_555 1_555
C5C N3C 1_555 1_555
C7A N3A 1_555 1_555
C7B N3B 1_555 1_555
C7C N3C 1_555 1_555

#END
