
#######################################################################
#
#                 Cambridge Crystallographic Data Centre
#                                CCDC 
#
#######################################################################
#
# If this CIF has been generated from an entry in the Cambridge 
# Structural Database, then it will include bibliographic, chemical, 
# crystal, experimental, refinement or atomic coordinate data resulting 
# from the CCDC's data processing and validation procedures.
#
#######################################################################

data_EWIFIA
_symmetry_cell_setting           monoclinic
_symmetry_space_group_name_H-M   'P 21/n'
_symmetry_Int_Tables_number      14
_space_group_name_Hall           '-P 2yn'
loop_
_symmetry_equiv_pos_site_id
_symmetry_equiv_pos_as_xyz
1 x,y,z
2 1/2-x,1/2+y,1/2-z
3 -x,-y,-z
4 1/2+x,1/2-y,1/2+z
_cell_length_a                   10.778
_cell_length_b                   12.316
_cell_length_c                   14.407
_cell_angle_alpha                90
_cell_angle_beta                 107.01
_cell_angle_gamma                90
_cell_volume                     1828.75
loop_
_atom_site_label
_atom_site_type_symbol
_atom_site_fract_x
_atom_site_fract_y
_atom_site_fract_z
C1 C -0.0721(9) 0.1564(8) 0.6496(8)
C2 C 0.0756(7) -0.1738(7) 0.6735(6)
C3 C -0.1679(12) 0.3066(10) 0.5481(11)
H1 H -0.1886 0.2588 0.4912
H2 H -0.2397 0.3574 0.5425
H3 H -0.0885 0.3473 0.5517
C4 C -0.2224(9) 0.2734(9) 0.7004(9)
H4 H -0.1858 0.2380 0.7634
H5 H -0.2183 0.3524 0.7090
H6 H -0.3131 0.2511 0.6729
C5 C -0.0708(11) 0.0727(12) 0.7347(11)
H7 H -0.0824 -0.0024 0.7089
H8 H -0.1426 0.0893 0.7623
C6 C 0.045(2) 0.0817(16) 0.8047(16)
H9 H 0.1179 0.0656 0.7778
H10 H 0.0568 0.1559 0.8324
C7 C 0.040(3) -0.0051(13) 0.8852(13)
H11 H 0.0279 -0.0778 0.8563
H12 H 0.1210 -0.0028 0.9382
H13 H -0.0331 0.0118 0.9105
C8 C 0.3019(8) -0.1404(9) 0.7522(8)
H14 H 0.3155 -0.1327 0.6882
H15 H 0.3758 -0.1788 0.7958
H16 H 0.2940 -0.0684 0.7787
C9 C -0.0500(8) -0.2343(7) 0.6642(7)
H17 H -0.1227 -0.1818 0.6503
H18 H -0.0449 -0.2705 0.7265
C10 C -0.0769(12) -0.3196(10) 0.5829(8)
H19 H -0.0777 -0.2831 0.5215
H20 H -0.0048 -0.3727 0.5984
C11 C 0.1890(8) -0.2865(8) 0.8153(7)
H21 H 0.1591 -0.2569 0.8681
H22 H 0.2789 -0.3114 0.8412
H23 H 0.1337 -0.3478 0.7853
C12 C -0.1946(16) -0.3763(14) 0.5684(12)
H24 H -0.1924 -0.4172 0.6272
H25 H -0.2066 -0.4265 0.5137
H26 H -0.2668 -0.3245 0.5542
C13 C 0.3043(7) 0.0186(6) 0.4999(6)
N1 N 0.1991(6) 0.0287(6) 0.5004(5)
N2 N -0.1485(7) 0.2419(6) 0.6349(6)
N3 N 0.1820(6) -0.2028(6) 0.7429(5)
O1 O 0.0803(5) -0.0987(5) 0.6177(5)
O2 O -0.0045(5) 0.1356(5) 0.5939(5)
Cl1 Cl 0.56535(18) 0.01778(16) 0.66890(15)
Cl2 Cl 0.51175(19) 0.18822(16) 0.48382(16)
Fe1 Fe 0.0000 0.0000 0.5000
Re1 Re 0.5000 0.0000 0.5000
C1B C 0.0721(9) -0.1564(8) 0.3504(8)
C2B C -0.0756(7) 0.1738(7) 0.3265(6)
C3B C 0.1679(12) -0.3066(10) 0.4519(11)
H1B H 0.1886 -0.2588 0.5088
H2B H 0.2397 -0.3574 0.4575
H3B H 0.0885 -0.3473 0.4483
C4B C 0.2224(9) -0.2734(9) 0.2996(9)
H4B H 0.1858 -0.2380 0.2366
H5B H 0.2183 -0.3524 0.2910
H6B H 0.3131 -0.2511 0.3271
C5B C 0.0708(11) -0.0727(12) 0.2653(11)
H7B H 0.0824 0.0024 0.2911
H8B H 0.1426 -0.0893 0.2377
C6B C -0.045(2) -0.0817(16) 0.1953(16)
H9B H -0.1179 -0.0656 0.2222
H10B H -0.0568 -0.1559 0.1676
C7B C -0.040(3) 0.0051(13) 0.1148(13)
H11B H -0.0279 0.0778 0.1437
H12B H -0.1210 0.0028 0.0618
H13B H 0.0331 -0.0118 0.0895
C8B C -0.3019(8) 0.1404(9) 0.2478(8)
H14B H -0.3155 0.1327 0.3118
H15B H -0.3758 0.1788 0.2042
H16B H -0.2940 0.0684 0.2213
C9B C 0.0500(8) 0.2343(7) 0.3358(7)
H17B H 0.1227 0.1818 0.3497
H18B H 0.0449 0.2705 0.2735
C10B C 0.0769(12) 0.3196(10) 0.4171(8)
H19B H 0.0777 0.2831 0.4785
H20B H 0.0048 0.3727 0.4016
C11B C -0.1890(8) 0.2865(8) 0.1847(7)
H21B H -0.1591 0.2569 0.1319
H22B H -0.2789 0.3114 0.1588
H23B H -0.1337 0.3478 0.2147
C12B C 0.1946(16) 0.3763(14) 0.4316(12)
H24B H 0.1924 0.4172 0.3728
H25B H 0.2066 0.4265 0.4863
H26B H 0.2668 0.3245 0.4458
C13B C 0.6957(7) -0.0186(6) 0.5001(6)
N1B N -0.1991(6) -0.0287(6) 0.4996(5)
N1B_2 N 0.8009(6) -0.0287(6) 0.4996(5)
N2B N 0.1485(7) -0.2419(6) 0.3651(6)
N3B N -0.1820(6) 0.2028(6) 0.2571(5)
O1B O -0.0803(5) 0.0987(5) 0.3823(5)
O2B O 0.0045(5) -0.1356(5) 0.4061(5)
Cl1B Cl 0.43465(18) -0.01778(16) 0.33110(15)
Cl2B Cl 0.48825(19) -0.18822(16) 0.51618(16)
Fe1_2 Fe 1.0000 0.0000 0.5000
loop_
_geom_bond_atom_site_label_1
_geom_bond_atom_site_label_2
_geom_bond_site_symmetry_1
_geom_bond_site_symmetry_2
C1 C5 1_555 1_555
C2 C9 1_555 1_555
C3 H1 1_555 1_555
H2 C3 1_555 1_555
H3 C3 1_555 1_555
C4 H4 1_555 1_555
H5 C4 1_555 1_555
H6 C4 1_555 1_555
C5 H7 1_555 1_555
H8 C5 1_555 1_555
C6 C5 1_555 1_555
H9 C6 1_555 1_555
H10 C6 1_555 1_555
C7 C6 1_555 1_555
H11 C7 1_555 1_555
H12 C7 1_555 1_555
H13 C7 1_555 1_555
C8 H14 1_555 1_555
H15 C8 1_555 1_555
H16 C8 1_555 1_555
C9 H17 1_555 1_555
H18 C9 1_555 1_555
C10 C9 1_555 1_555
H19 C10 1_555 1_555
H20 C10 1_555 1_555
C11 H21 1_555 1_555
H22 C11 1_555 1_555
H23 C11 1_555 1_555
C12 C10 1_555 1_555
H24 C12 1_555 1_555
H25 C12 1_555 1_555
H26 C12 1_555 1_555
C13 N1 1_555 1_555
N1 Fe1 1_555 1_555
N2 C1 1_555 1_555
N3 C2 1_555 1_555
O1 C2 1_555 1_555
O2 C1 1_555 1_555
Cl1 Re1 1_555 1_555
Cl2 Re1 1_555 1_555
Fe1 O1 1_555 1_555
Re1 C13 1_555 1_555
C1B C5B 1_555 1_555
C2B C9B 1_555 1_555
C3B H1B 1_555 1_555
H2B C3B 1_555 1_555
H3B C3B 1_555 1_555
C4B H4B 1_555 1_555
H5B C4B 1_555 1_555
H6B C4B 1_555 1_555
C5B H7B 1_555 1_555
H8B C5B 1_555 1_555
C6B C5B 1_555 1_555
H9B C6B 1_555 1_555
H10B C6B 1_555 1_555
C7B C6B 1_555 1_555
H11B C7B 1_555 1_555
H12B C7B 1_555 1_555
H13B C7B 1_555 1_555
C8B H14B 1_555 1_555
H15B C8B 1_555 1_555
H16B C8B 1_555 1_555
C9B H17B 1_555 1_555
H18B C9B 1_555 1_555
C10B C9B 1_555 1_555
H19B C10B 1_555 1_555
H20B C10B 1_555 1_555
C11B H21B 1_555 1_555
H22B C11B 1_555 1_555
H23B C11B 1_555 1_555
C12B C10B 1_555 1_555
H24B C12B 1_555 1_555
H25B C12B 1_555 1_555
H26B C12B 1_555 1_555
C13B Re1 1_555 1_555
N1B Fe1 1_555 1_555
N1B_2 C13B 1_555 1_555
N2B C1B 1_555 1_555
N3B C2B 1_555 1_555
O1B Fe1 1_555 1_555
O2B Fe1 1_555 1_555
Cl1B Re1 1_555 1_555
Cl2B Re1 1_555 1_555
Fe1_2 N1B_2 1_555 1_555
C3 N2 1_555 1_555
C4 N2 1_555 1_555
C8 N3 1_555 1_555
C11 N3 1_555 1_555
O2 Fe1 1_555 1_555
C1B O2B 1_555 1_555
C2B O1B 1_555 1_555
C3B N2B 1_555 1_555
C4B N2B 1_555 1_555
C8B N3B 1_555 1_555
C11B N3B 1_555 1_555

#END
