
#######################################################################
#
#                 Cambridge Crystallographic Data Centre
#                                CCDC 
#
#######################################################################
#
# If this CIF has been generated from an entry in the Cambridge 
# Structural Database, then it will include bibliographic, chemical, 
# crystal, experimental, refinement or atomic coordinate data resulting 
# from the CCDC's data processing and validation procedures.
#
#######################################################################

data_EWILUS
_symmetry_cell_setting           triclinic
_symmetry_space_group_name_H-M   'P -1'
_symmetry_Int_Tables_number      2
_space_group_name_Hall           '-P 1'
loop_
_symmetry_equiv_pos_site_id
_symmetry_equiv_pos_as_xyz
1 x,y,z
2 -x,-y,-z
_cell_length_a                   9.289(3)
_cell_length_b                   9.538(2)
_cell_length_c                   10.335(3)
_cell_angle_alpha                81.03(2)
_cell_angle_beta                 84.26(2)
_cell_angle_gamma                66.16(2)
_cell_volume                     826.602
loop_
_atom_site_label
_atom_site_type_symbol
_atom_site_fract_x
_atom_site_fract_y
_atom_site_fract_z
N1 N 0.3834(9) 0.1993(8) 0.5140(4)
H1 H 0.4532 0.2379 0.5090
C4 C 0.3361(6) 0.1725(6) 0.4065(7)
H2 H 0.3804 0.1948 0.3253
C5 C 0.2220(5) 0.1117(5) 0.4129(4)
H3 H 0.1893 0.0966 0.3360
C6 C 0.1565(5) 0.0736(5) 0.5321(3)
C7 C 0.2077(5) 0.1013(5) 0.6428(4)
H4 H 0.1674 0.0776 0.7254
C8 C 0.3201(5) 0.1648(5) 0.6293(6)
H5 H 0.3526 0.1842 0.7045
C9 C 0.0353(5) 0.0094(5) 0.5493(5)
H6 H 0.0057 -0.0202 0.6344
N1A N -0.3834(9) -0.1993(8) 0.4860(4)
H1A H -0.4532 -0.2379 0.4910
C4A C -0.3361(6) -0.1725(6) 0.5935(7)
H2A H -0.3804 -0.1948 0.6747
C5A C -0.2220(5) -0.1117(5) 0.5871(4)
H3A H -0.1893 -0.0966 0.6640
C6A C -0.1565(5) -0.0736(5) 0.4679(3)
C7A C -0.2077(5) -0.1013(5) 0.3572(4)
H4A H -0.1674 -0.0776 0.2746
C8A C -0.3201(5) -0.1648(5) 0.3707(6)
H5A H -0.3526 -0.1842 0.2955
C9A C -0.0353(5) -0.0094(5) 0.4507(5)
H6A H -0.0057 0.0202 0.3656
N3 N 0.6136(3) 0.3029(3) 0.5219(3)
H13 H 0.5441 0.2653 0.5190
C16 C 0.6597(4) 0.3118(4) 0.6367(3)
H14 H 0.6153 0.2782 0.7135
C17 C 0.7715(4) 0.3696(4) 0.6448(3)
H15 H 0.8024 0.3743 0.7263
C18 C 0.8376(4) 0.4205(4) 0.5324(3)
C19 C 0.7877(4) 0.4115(4) 0.4130(3)
H16 H 0.8298 0.4452 0.3349
C20 C 0.6748(4) 0.3521(4) 0.4116(3)
H17 H 0.6410 0.3463 0.3316
C21 C 0.9603(4) 0.4788(4) 0.5471(4)
H18 H 0.9810 0.4849 0.6318
N3A N 1.3864(3) 0.6971(3) 0.4781(3)
H13A H 1.4559 0.7347 0.4810
C16A C 1.3403(4) 0.6882(4) 0.3633(3)
H14A H 1.3847 0.7218 0.2865
C17A C 1.2285(4) 0.6304(4) 0.3552(3)
H15A H 1.1976 0.6257 0.2737
C18A C 1.1624(4) 0.5795(4) 0.4676(3)
C19A C 1.2123(4) 0.5885(4) 0.5870(3)
H16A H 1.1702 0.5548 0.6651
C20A C 1.3252(4) 0.6479(4) 0.5884(3)
H17A H 1.3590 0.6537 0.6684
C21A C 1.0397(4) 0.5212(4) 0.4529(4)
H18A H 1.0190 0.5151 0.3682
O8 O 0.0785(19) -0.0103(19) 0.1273(17)
Mn1 Mn 0.32314(7) 0.32033(6) 0.00273(5)
C1 C 0.5465(4) 0.0173(5) -0.0622(3)
O1 O 0.5052(3) 0.1548(3) -0.1123(2)
O2 O 0.6552(3) -0.0977(3) -0.1053(2)
C2 C 0.4666(4) 0.5440(4) -0.0665(3)
O3 O 0.3722(3) 0.5049(3) -0.1150(2)
O4 O 0.5135(3) 0.6466(3) -0.1195(2)
C3 C 0.0028(5) 0.5203(4) 0.0694(3)
O5 O 0.1298(3) 0.4560(3) 0.1255(2)
O6 O -0.1216(3) 0.6153(3) 0.1160(2)
Mn1A Mn 0.67686(7) -0.32033(6) -0.00273(5)
Mn1A_2 Mn 0.67686(7) 0.67967(6) -0.00273(5)
Mn1A_3 Mn -0.32314(7) 0.67967(6) -0.00273(5)
C1A C 0.4535(4) -0.0173(5) 0.0622(3)
O1A O 0.4948(3) -0.1548(3) 0.1123(2)
O1A_2 O -0.5052(3) 0.8452(3) 0.1123(2)
O2A O 0.3448(3) 0.0977(3) 0.1053(2)
O2_2 O -0.3448(3) 0.9023(3) -0.1053(2)
C2A C 0.5334(4) 0.4560(4) 0.0665(3)
O3A O 0.6278(3) 0.4951(3) 0.1150(2)
O3A_2 O -0.3722(3) 0.4951(3) 0.1150(2)
O4A O 0.4865(3) 0.3534(3) 0.1195(2)
O4_2 O -0.4865(3) 0.6466(3) -0.1195(2)
C3A C -0.0028(5) 0.4797(4) -0.0694(3)
O5A O -0.1298(3) 0.5440(3) -0.1255(2)
O6A O 0.1216(3) 0.3847(3) -0.1160(2)
N2? N 0.392(3) 0.186(3) 0.5125(16)
H7? H 0.4660 0.2172 0.5168
C10? C 0.3300(18) 0.200(2) 0.398(2)
H8? H 0.3690 0.2476 0.3261
C11? C 0.2132(16) 0.1524(18) 0.3745(15)
H9? H 0.1770 0.1631 0.2913
C12? C 0.1556(16) 0.0875(18) 0.4856(12)
C13? C 0.2232(18) 0.0700(19) 0.6034(14)
H10? H 0.1886 0.0201 0.6766
C14? C 0.3394(19) 0.122(2) 0.620(2)
H11? H 0.3780 0.1124 0.7020
C15? C 0.0361(15) 0.0288(16) 0.4676(18)
H12? H 0.0133 0.0424 0.3798
C22? C 0.015(3) -0.062(2) -0.007(2)
C23? C -0.099(2) 0.097(2) -0.014(2)
O7? O 0.0524(19) -0.1443(19) -0.1110(16)
loop_
_geom_bond_atom_site_label_1
_geom_bond_atom_site_label_2
_geom_bond_site_symmetry_1
_geom_bond_site_symmetry_2
Mn1 O1 1_555 1_555
C1 O1 1_555 1_555
O2 C1 1_555 1_555
C2 O3 1_555 1_555
O3 Mn1 1_555 1_555
O4 C2 1_555 1_555
C3 O5 1_555 1_555
O5 Mn1 1_555 1_555
O6 C3 1_555 1_555
N1 H1 1_555 1_555
C4 N1 1_555 1_555
H2 C4 1_555 1_555
C5 C4 1_555 1_555
H3 C5 1_555 1_555
C6 C5 1_555 1_555
C7 C6 1_555 1_555
H4 C7 1_555 1_555
C8 N1 1_555 1_555
H5 C8 1_555 1_555
C9 C6 1_555 1_555
H6 C9 1_555 1_555
N3 H13 1_555 1_555
C16 N3 1_555 1_555
H14 C16 1_555 1_555
C17 C16 1_555 1_555
H15 C17 1_555 1_555
C18 C17 1_555 1_555
C19 C18 1_555 1_555
H16 C19 1_555 1_555
C20 N3 1_555 1_555
H17 C20 1_555 1_555
C21 C18 1_555 1_555
H18 C21 1_555 1_555
Mn1A O2 1_555 1_555
Mn1A_2 O4 1_555 1_555
Mn1A_3 O6 1_555 1_555
C1A C1 1_555 1_555
O1A Mn1A 1_555 1_555
O1A_2 Mn1A_3 1_555 1_555
O2A Mn1 1_555 1_555
O2_2 Mn1A_3 1_555 1_555
C2A C2 1_555 1_555
O3A Mn1A_2 1_555 1_555
O3A_2 Mn1A_3 1_555 1_555
O4A Mn1 1_555 1_555
O4_2 Mn1A_3 1_555 1_555
C3A C3 1_555 1_555
O5A Mn1A_3 1_555 1_555
O6A Mn1 1_555 1_555
N1A H1A 1_555 1_555
C4A N1A 1_555 1_555
H2A C4A 1_555 1_555
C5A C4A 1_555 1_555
H3A C5A 1_555 1_555
C6A C5A 1_555 1_555
C7A C6A 1_555 1_555
H4A C7A 1_555 1_555
C8A N1A 1_555 1_555
H5A C8A 1_555 1_555
C9A C9 1_555 1_555
H6A C9A 1_555 1_555
N3A H13A 1_555 1_555
C16A N3A 1_555 1_555
H14A C16A 1_555 1_555
C17A C16A 1_555 1_555
H15A C17A 1_555 1_555
C18A C17A 1_555 1_555
C19A C18A 1_555 1_555
H16A C19A 1_555 1_555
C20A N3A 1_555 1_555
H17A C20A 1_555 1_555
C21A C21 1_555 1_555
H18A C21A 1_555 1_555
C7 C8 1_555 1_555
C19 C20 1_555 1_555
C1A O1A 1_555 1_555
C1A O2A 1_555 1_555
C2A O3A 1_555 1_555
C2A O4A 1_555 1_555
C3A O5A 1_555 1_555
C3A O6A 1_555 1_555
C6A C9A 1_555 1_555
C7A C8A 1_555 1_555
C18A C21A 1_555 1_555
C19A C20A 1_555 1_555

#END
