
#######################################################################
#
#                 Cambridge Crystallographic Data Centre
#                                CCDC 
#
#######################################################################
#
# If this CIF has been generated from an entry in the Cambridge 
# Structural Database, then it will include bibliographic, chemical, 
# crystal, experimental, refinement or atomic coordinate data resulting 
# from the CCDC's data processing and validation procedures.
#
#######################################################################

data_EWIMAZ
_symmetry_cell_setting           triclinic
_symmetry_space_group_name_H-M   'P -1'
_symmetry_Int_Tables_number      2
_space_group_name_Hall           '-P 1'
loop_
_symmetry_equiv_pos_site_id
_symmetry_equiv_pos_as_xyz
1 x,y,z
2 -x,-y,-z
_cell_length_a                   9.243(1)
_cell_length_b                   9.727(1)
_cell_length_c                   9.732(1)
_cell_angle_alpha                106.00(1)
_cell_angle_beta                 116.48(1)
_cell_angle_gamma                90.66(1)
_cell_volume                     743.595
loop_
_atom_site_label
_atom_site_type_symbol
_atom_site_fract_x
_atom_site_fract_y
_atom_site_fract_z
Mn1 Mn 0.17011(3) 0.25939(3) 0.02756(3)
C1 C 0.0689(2) 0.0018(2) 0.0849(2)
O1 O 0.18810(16) 0.10289(15) 0.15324(17)
O2 O 0.05090(17) -0.09584(15) 0.13905(17)
C2 C 0.0220(2) 0.5076(2) -0.0661(2)
O3 O 0.10841(18) 0.41995(16) -0.10053(18)
O4 O -0.03224(19) 0.60458(16) -0.12778(18)
N1 N 0.4257(2) 0.36801(19) 0.2255(2)
C3 C 0.5169(3) 0.4522(3) 0.1951(3)
H1 H 0.4638 0.4874 0.1083
C4 C 0.6842(3) 0.4893(3) 0.2847(3)
H2 H 0.7413 0.5450 0.2554
C5 C 0.7682(2) 0.4433(3) 0.4193(2)
C6 C 0.6727(3) 0.3627(3) 0.4560(3)
H3 H 0.7218 0.3321 0.5467
C7 C 0.5057(3) 0.3279(3) 0.3582(3)
H4 H 0.4453 0.2738 0.3857
C8 C 0.9476(3) 0.4719(3) 0.5182(3)
H5 H 0.9909 0.4485 0.6138
N2 N 0.2753(2) 0.16382(19) -0.1457(2)
C9 C 0.1777(3) 0.1416(3) -0.3034(3)
H6 H 0.0712 0.1608 -0.3346
C10 C 0.2235(3) 0.0928(3) -0.4220(3)
H7 H 0.1495 0.0795 -0.5295
C11 C 0.3807(3) 0.0635(3) -0.3804(3)
C12 C 0.4845(3) 0.0853(3) -0.2172(3)
H8 H 0.5912 0.0663 -0.1836
C13 C 0.4279(3) 0.1355(3) -0.1046(3)
H9 H 0.4992 0.1499 0.0039
C14 C 0.4269(3) 0.0094(3) -0.5119(3)
H10 H 0.3450 -0.0121 -0.6181
Mn1A Mn -0.17011(3) -0.25939(3) -0.02756(3)
Mn1A_2 Mn -0.17011(3) 0.74061(3) -0.02756(3)
Mn1A_3 Mn 0.82989(3) -0.25939(3) -1.02756(3)
Mn1A_4 Mn 1.82989(3) 0.74061(3) 0.97244(3)
C1A C -0.0689(2) -0.0018(2) -0.0849(2)
O1A O -0.18810(16) -0.10289(15) -0.15324(17)
O2A O -0.05090(17) 0.09584(15) -0.13905(17)
C2A C -0.0220(2) 0.4924(2) 0.0661(2)
O3A O -0.10841(18) 0.58005(16) 0.10053(18)
O3A_2 O -0.10841(18) -0.41995(16) 0.10053(18)
O4A O 0.03224(19) 0.39542(16) 0.12778(18)
O4_2 O -0.03224(19) -0.39542(16) -0.12778(18)
N1A N 1.5743(2) 0.63199(19) 0.7745(2)
N1A_2 N -0.4257(2) -0.36801(19) -0.2255(2)
C3A C 1.4831(3) 0.5478(3) 0.8049(3)
H1A H 1.5362 0.5126 0.8917
C4A C 1.3158(3) 0.5107(3) 0.7153(3)
H2A H 1.2587 0.4550 0.7446
C5A C 1.2318(2) 0.5567(3) 0.5807(2)
C6A C 1.3273(3) 0.6373(3) 0.5440(3)
H3A H 1.2782 0.6679 0.4533
C7A C 1.4943(3) 0.6721(3) 0.6418(3)
H4A H 1.5547 0.7262 0.6143
C8A C 1.0524(3) 0.5281(3) 0.4818(3)
H5A H 1.0091 0.5515 0.3862
N2A N 0.7247(2) -0.16382(19) -0.8543(2)
N2A_2 N -0.2753(2) -0.16382(19) 0.1457(2)
C9A C 0.8223(3) -0.1416(3) -0.6966(3)
H6A H 0.9288 -0.1608 -0.6654
C10A C 0.7765(3) -0.0928(3) -0.5780(3)
H7A H 0.8505 -0.0795 -0.4705
C11A C 0.6193(3) -0.0635(3) -0.6196(3)
C12A C 0.5155(3) -0.0853(3) -0.7828(3)
H8A H 0.4088 -0.0663 -0.8164
C13A C 0.5721(3) -0.1355(3) -0.8954(3)
H9A H 0.5008 -0.1499 -1.0039
C14A C 0.5731(3) -0.0094(3) -0.4881(3)
H10A H 0.6550 0.0121 -0.3819
O5 O 0.8346(13) 0.1818(10) 0.1713(14)
H11 H 0.7579 0.2207 0.1880
H12 H 0.8915 0.2522 0.1687
loop_
_geom_bond_atom_site_label_1
_geom_bond_atom_site_label_2
_geom_bond_site_symmetry_1
_geom_bond_site_symmetry_2
Mn1 O1 1_555 1_555
C1 O1 1_555 1_555
O2 C1 1_555 1_555
C2 O3 1_555 1_555
O3 Mn1 1_555 1_555
O4 C2 1_555 1_555
N1 Mn1 1_555 1_555
C3 N1 1_555 1_555
H1 C3 1_555 1_555
C4 C3 1_555 1_555
H2 C4 1_555 1_555
C5 C4 1_555 1_555
C6 C5 1_555 1_555
H3 C6 1_555 1_555
C7 N1 1_555 1_555
H4 C7 1_555 1_555
C8 C5 1_555 1_555
H5 C8 1_555 1_555
N2 Mn1 1_555 1_555
C9 N2 1_555 1_555
H6 C9 1_555 1_555
C10 C9 1_555 1_555
H7 C10 1_555 1_555
C11 C10 1_555 1_555
C12 C11 1_555 1_555
H8 C12 1_555 1_555
C13 N2 1_555 1_555
H9 C13 1_555 1_555
C14 C11 1_555 1_555
H10 C14 1_555 1_555
O5 H11 1_555 1_555
H12 O5 1_555 1_555
Mn1A O2 1_555 1_555
Mn1A_2 O4 1_555 1_555
Mn1A_3 N2A 1_555 1_555
Mn1A_4 N1A 1_555 1_555
C1A C1 1_555 1_555
O1A Mn1A 1_555 1_555
O2A Mn1 1_555 1_555
C2A C2 1_555 1_555
O3A Mn1A_2 1_555 1_555
O3A_2 Mn1A 1_555 1_555
O4A Mn1 1_555 1_555
O4_2 Mn1A 1_555 1_555
N1A C3A 1_555 1_555
N1A_2 Mn1A 1_555 1_555
C3A H1A 1_555 1_555
C4A C3A 1_555 1_555
H2A C4A 1_555 1_555
C5A C4A 1_555 1_555
C6A C5A 1_555 1_555
H3A C6A 1_555 1_555
C7A N1A 1_555 1_555
H4A C7A 1_555 1_555
C8A C8 1_555 1_555
H5A C8A 1_555 1_555
N2A C9A 1_555 1_555
N2A_2 Mn1A 1_555 1_555
C9A H6A 1_555 1_555
C10A C9A 1_555 1_555
H7A C10A 1_555 1_555
C11A C10A 1_555 1_555
C12A C11A 1_555 1_555
H8A C12A 1_555 1_555
C13A N2A 1_555 1_555
H9A C13A 1_555 1_555
C14A C14 1_555 1_555
H10A C14A 1_555 1_555
C6 C7 1_555 1_555
C12 C13 1_555 1_555
C1A O1A 1_555 1_555
C1A O2A 1_555 1_555
C2A O3A 1_555 1_555
C2A O4A 1_555 1_555
C5A C8A 1_555 1_555
C6A C7A 1_555 1_555
C11A C14A 1_555 1_555
C12A C13A 1_555 1_555

#END
