
#######################################################################
#
#                 Cambridge Crystallographic Data Centre
#                                CCDC 
#
#######################################################################
#
# If this CIF has been generated from an entry in the Cambridge 
# Structural Database, then it will include bibliographic, chemical, 
# crystal, experimental, refinement or atomic coordinate data resulting 
# from the CCDC's data processing and validation procedures.
#
#######################################################################

data_EWIMON
_symmetry_cell_setting           monoclinic
_symmetry_space_group_name_H-M   'P 21/c'
_symmetry_Int_Tables_number      14
_space_group_name_Hall           '-P 2ybc'
loop_
_symmetry_equiv_pos_site_id
_symmetry_equiv_pos_as_xyz
1 x,y,z
2 -x,1/2+y,1/2-z
3 -x,-y,-z
4 x,1/2-y,1/2+z
_cell_length_a                   13.872(5)
_cell_length_b                   11.443(2)
_cell_length_c                   24.711(3)
_cell_angle_alpha                90
_cell_angle_beta                 93.27(2)
_cell_angle_gamma                90
_cell_volume                     3916.17
loop_
_atom_site_label
_atom_site_type_symbol
_atom_site_fract_x
_atom_site_fract_y
_atom_site_fract_z
Br1 Br 1.02239(10) -0.04630(11) 0.38197(6)
Mn1 Mn 0.49662(6) 0.25028(8) 0.28566(3)
O1 O 0.4949(4) 0.2396(4) 0.37399(16)
H1 H 0.5219 0.2189 0.4047
H2 H 0.4688 0.3070 0.3798
Mn2 Mn 0.50191(7) 0.09825(9) 0.10928(3)
O2 O 0.5080(4) 0.2850(4) 0.11513(15)
H3 H 0.5006 0.3512 0.1309
H4 H 0.5177 0.3013 0.0818
C1 C 0.5013(4) 0.0230(6) 0.2162(2)
O3 O 0.5023(3) -0.0514(4) 0.18073(14)
O4 O 0.5012(3) 0.1308(4) 0.20707(14)
C2 C 0.4985(4) -0.0161(6) 0.2752(2)
O5 O 0.4956(3) 0.0597(4) 0.31042(15)
O6 O 0.5013(3) -0.1244(4) 0.28310(14)
C3 C 0.5035(5) 0.0625(6) -0.0119(2)
O7 O 0.5033(4) 0.1446(4) 0.02017(16)
O8 O 0.5060(4) 0.0678(4) -0.06213(15)
N1 N 0.3323(4) 0.2459(6) 0.2725(2)
C4 C 0.2835(5) 0.3201(8) 0.2385(3)
H5 H 0.3189 0.3707 0.2178
C5 C 0.1852(6) 0.3251(10) 0.2327(4)
H6 H 0.1556 0.3791 0.2090
C6 C 0.1307(6) 0.2521(9) 0.2612(3)
C7 C 0.1788(6) 0.1765(8) 0.2950(4)
H7 H 0.1443 0.1240 0.3152
C8 C 0.2799(5) 0.1762(8) 0.3002(4)
H8 H 0.3108 0.1240 0.3243
C9 C 0.0239(6) 0.2636(9) 0.2579(4)
H9 H -0.0032 0.3136 0.2316
C10 C -0.0344(6) 0.2105(9) 0.2883(4)
H10 H -0.0069 0.1601 0.3143
C11 C -0.1405(5) 0.2214(6) 0.2860(3)
C12 C -0.1905(6) 0.2899(8) 0.2476(3)
H11 H -0.1578 0.3271 0.2206
C13 C -0.2908(5) 0.3025(8) 0.2496(3)
H12 H -0.3236 0.3525 0.2253
N2 N -0.3399(4) 0.2443(5) 0.2858(2)
C14 C -0.2893(6) 0.1796(8) 0.3214(3)
H13 H -0.3228 0.1411 0.3476
C15 C -0.1922(6) 0.1652(9) 0.3226(4)
H14 H -0.1614 0.1169 0.3485
N3 N 0.6644(4) 0.0822(7) 0.1194(2)
C16 C 0.7212(7) 0.1714(10) 0.1139(4)
H15 H 0.6941 0.2437 0.1050
C17 C 0.8233(7) 0.1617(9) 0.1211(4)
H16 H 0.8611 0.2285 0.1189
C18 C 0.8651(7) 0.0612(12) 0.1308(3)
C19 C 0.8100(8) -0.0268(13) 0.1377(6)
H17 H 0.8367 -0.0991 0.1471
C20 C 0.7124(7) -0.0145(10) 0.1313(5)
H18 H 0.6758 -0.0815 0.1358
C21 C 0.9801(10) 0.0424(9) 0.1327(4)
H19 H 1.0078 -0.0298 0.1409
C22 C 1.0303(10) 0.1291(12) 0.1226(5)
H20 H 1.0026 0.2019 0.1156
C23 C 1.1417(7) 0.1103(13) 0.1222(4)
C24 C 1.1909(7) 0.2047(12) 0.1035(5)
H21 H 1.1585 0.2727 0.0929
C25 C 1.2905(6) 0.1960(10) 0.1009(5)
H22 H 1.3244 0.2611 0.0899
N4 N 1.3394(4) 0.0985(6) 0.1133(2)
C26 C 1.2919(7) 0.0105(10) 0.1314(4)
H23 H 1.3254 -0.0575 0.1410
C27 C 1.1924(7) 0.0136(12) 0.1371(4)
H24 H 1.1612 -0.0506 0.1510
Mn1A Mn 0.50338(6) 0.75028(8) 0.21434(3)
Mn1A_2 Mn 0.50338(6) -0.24972(8) 0.21434(3)
Mn1_2 Mn -0.50338(6) 0.25028(8) 0.28566(3)
Mn1_3 Mn 1.49662(6) 0.25028(8) 0.28566(3)
O1A O 0.5051(4) 0.7396(4) 0.12601(16)
H1A H 0.4781 0.7189 0.0953
H2A H 0.5312 0.8070 0.1202
Mn2A Mn 0.49809(7) 0.59825(9) 0.39072(3)
Mn2B Mn 0.49809(7) -0.09825(9) -0.10928(3)
Mn2_2 Mn 1.50191(7) 0.09825(9) 0.10928(3)
Mn2_3 Mn -0.49809(7) 0.09825(9) 0.10928(3)
O2A O 0.4920(4) 0.7850(4) 0.38487(15)
H3A H 0.4994 0.8512 0.3691
H4A H 0.4823 0.8013 0.4182
C1A C 0.4987(4) 0.5230(6) 0.2838(2)
O3A O 0.4977(3) 0.4486(4) 0.31927(14)
O3_2 O 0.5023(3) 0.9486(4) 0.18073(14)
O4A O 0.4988(3) 0.6308(4) 0.29293(14)
C2A C 0.5015(4) 0.4839(6) 0.2248(2)
O5A O 0.5044(3) 0.5597(4) 0.18958(15)
O6A O 0.4987(3) 0.3756(4) 0.21690(14)
O6_2 O 0.5013(3) 0.8756(4) 0.28310(14)
C3B C 0.4965(5) -0.0625(6) 0.0119(2)
O7B O 0.4967(4) -0.1446(4) -0.02017(16)
O7A O 0.4967(4) 0.6446(4) 0.47983(16)
O8B O 0.4940(4) -0.0678(4) 0.06213(15)
O8C O 0.5060(4) 0.4322(4) 0.43787(15)
N1_2 N 1.3323(4) 0.2459(6) 0.2725(2)
N1A N 0.6677(4) 0.7459(6) 0.2275(2)
C4_2 C 1.2835(5) 0.3201(8) 0.2385(3)
H5_2 H 1.3189 0.3707 0.2178
C5_2 C 1.1852(6) 0.3251(10) 0.2327(4)
H6_2 H 1.1556 0.3791 0.2090
C6_2 C 1.1307(6) 0.2521(9) 0.2612(3)
C7_2 C 1.1788(6) 0.1765(8) 0.2950(4)
H7_2 H 1.1443 0.1240 0.3152
C8_2 C 1.2799(5) 0.1762(8) 0.3002(4)
H8_2 H 1.3108 0.1240 0.3243
C9_2 C 1.0239(6) 0.2636(9) 0.2579(4)
H9_2 H 0.9968 0.3136 0.2316
C10_2 C 0.9656(6) 0.2105(9) 0.2883(4)
H10_2 H 0.9931 0.1601 0.3143
C11_2 C 0.8595(5) 0.2214(6) 0.2860(3)
C12_2 C 0.8095(6) 0.2899(8) 0.2476(3)
H11_2 H 0.8422 0.3271 0.2206
C13_2 C 0.7092(5) 0.3025(8) 0.2496(3)
H12_2 H 0.6764 0.3525 0.2253
N2_2 N 0.6601(4) 0.2443(5) 0.2858(2)
N2A N 0.3399(4) 0.7443(5) 0.2142(2)
C14_2 C 0.7107(6) 0.1796(8) 0.3214(3)
H13_2 H 0.6772 0.1411 0.3476
C15_2 C 0.8078(6) 0.1652(9) 0.3226(4)
H14_2 H 0.8386 0.1169 0.3485
N3_2 N -0.3356(4) 0.0822(7) 0.1194(2)
N3A N 0.3356(4) 0.5822(7) 0.3806(2)
C16_2 C -0.2788(7) 0.1714(10) 0.1139(4)
H15_2 H -0.3059 0.2437 0.1050
C17_2 C -0.1767(7) 0.1617(9) 0.1211(4)
H16_2 H -0.1389 0.2285 0.1189
C18_2 C -0.1349(7) 0.0612(12) 0.1308(3)
C19_2 C -0.1900(8) -0.0268(13) 0.1377(6)
H17_2 H -0.1633 -0.0991 0.1471
C20_2 C -0.2876(7) -0.0145(10) 0.1313(5)
H18_2 H -0.3242 -0.0815 0.1358
C21_2 C -0.0199(10) 0.0424(9) 0.1327(4)
H19_2 H 0.0078 -0.0298 0.1409
C22_2 C 0.0303(10) 0.1291(12) 0.1226(5)
H20_2 H 0.0026 0.2019 0.1156
C23_2 C 0.1417(7) 0.1103(13) 0.1222(4)
C24_2 C 0.1909(7) 0.2047(12) 0.1035(5)
H21_2 H 0.1585 0.2727 0.0929
C25_2 C 0.2905(6) 0.1960(10) 0.1009(5)
H22_2 H 0.3244 0.2611 0.0899
N4_2 N 0.3394(4) 0.0985(6) 0.1133(2)
N4A N 0.6606(4) 0.5985(6) 0.3867(2)
C26_2 C 0.2919(7) 0.0105(10) 0.1314(4)
H23_2 H 0.3254 -0.0575 0.1410
C27_2 C 0.1924(7) 0.0136(12) 0.1371(4)
H24_2 H 0.1612 -0.0506 0.1510
loop_
_geom_bond_atom_site_label_1
_geom_bond_atom_site_label_2
_geom_bond_site_symmetry_1
_geom_bond_site_symmetry_2
Mn1 O1 1_555 1_555
O1 H1 1_555 1_555
H2 O1 1_555 1_555
Mn2 O2 1_555 1_555
O2 H3 1_555 1_555
H4 O2 1_555 1_555
C1 O3 1_555 1_555
O3 Mn2 1_555 1_555
O4 Mn1 1_555 1_555
C2 C1 1_555 1_555
O5 Mn1 1_555 1_555
O6 C2 1_555 1_555
C3 O7 1_555 1_555
O7 Mn2 1_555 1_555
O8 C3 1_555 1_555
N1 Mn1 1_555 1_555
C4 N1 1_555 1_555
H5 C4 1_555 1_555
C5 C4 1_555 1_555
H6 C5 1_555 1_555
C6 C5 1_555 1_555
C7 C6 1_555 1_555
H7 C7 1_555 1_555
C8 N1 1_555 1_555
H8 C8 1_555 1_555
C9 C6 1_555 1_555
H9 C9 1_555 1_555
C10 C9 1_555 1_555
H10 C10 1_555 1_555
C11 C10 1_555 1_555
C12 C11 1_555 1_555
H11 C12 1_555 1_555
C13 C12 1_555 1_555
H12 C13 1_555 1_555
N2 C13 1_555 1_555
C14 N2 1_555 1_555
H13 C14 1_555 1_555
C15 C11 1_555 1_555
H14 C15 1_555 1_555
N3 Mn2 1_555 1_555
C16 N3 1_555 1_555
H15 C16 1_555 1_555
C17 C16 1_555 1_555
H16 C17 1_555 1_555
C18 C17 1_555 1_555
C19 C18 1_555 1_555
H17 C19 1_555 1_555
C20 N3 1_555 1_555
H18 C20 1_555 1_555
C21 C18 1_555 1_555
H19 C21 1_555 1_555
C22 C21 1_555 1_555
H20 C22 1_555 1_555
C23 C22 1_555 1_555
C24 C23 1_555 1_555
H21 C24 1_555 1_555
C25 C24 1_555 1_555
H22 C25 1_555 1_555
N4 C25 1_555 1_555
C26 N4 1_555 1_555
H23 C26 1_555 1_555
C27 C23 1_555 1_555
H24 C27 1_555 1_555
Mn1A O1A 1_555 1_555
Mn1A_2 O3 1_555 1_555
Mn1_2 N2 1_555 1_555
Mn1_3 N1_2 1_555 1_555
O1A H1A 1_555 1_555
H2A O1A 1_555 1_555
Mn2A O2A 1_555 1_555
Mn2B O8 1_555 1_555
Mn2_2 N4 1_555 1_555
Mn2_3 N3_2 1_555 1_555
O2A H3A 1_555 1_555
H4A O2A 1_555 1_555
C1A O3A 1_555 1_555
O3A Mn1 1_555 1_555
O3_2 Mn1A 1_555 1_555
O4A Mn1A 1_555 1_555
C2A C1A 1_555 1_555
O5A Mn1A 1_555 1_555
O6A Mn1 1_555 1_555
O6_2 Mn1A 1_555 1_555
C3B C3 1_555 1_555
O7B Mn2B 1_555 1_555
O7A Mn2A 1_555 1_555
O8B Mn2 1_555 1_555
O8C Mn2A 1_555 1_555
N1_2 C4_2 1_555 1_555
N1A Mn1A 1_555 1_555
C4_2 H5_2 1_555 1_555
C5_2 C4_2 1_555 1_555
H6_2 C5_2 1_555 1_555
C6_2 C5_2 1_555 1_555
C7_2 C6_2 1_555 1_555
H7_2 C7_2 1_555 1_555
C8_2 N1_2 1_555 1_555
H8_2 C8_2 1_555 1_555
C9_2 C6_2 1_555 1_555
H9_2 C9_2 1_555 1_555
C10_2 C9_2 1_555 1_555
H10_2 C10_2 1_555 1_555
C11_2 C10_2 1_555 1_555
C12_2 C11_2 1_555 1_555
H11_2 C12_2 1_555 1_555
C13_2 C12_2 1_555 1_555
H12_2 C13_2 1_555 1_555
N2_2 Mn1 1_555 1_555
N2A Mn1A 1_555 1_555
C14_2 N2_2 1_555 1_555
H13_2 C14_2 1_555 1_555
C15_2 C11_2 1_555 1_555
H14_2 C15_2 1_555 1_555
N3_2 C16_2 1_555 1_555
N3A Mn2A 1_555 1_555
C16_2 H15_2 1_555 1_555
C17_2 C16_2 1_555 1_555
H16_2 C17_2 1_555 1_555
C18_2 C17_2 1_555 1_555
C19_2 C18_2 1_555 1_555
H17_2 C19_2 1_555 1_555
C20_2 N3_2 1_555 1_555
H18_2 C20_2 1_555 1_555
C21_2 C18_2 1_555 1_555
H19_2 C21_2 1_555 1_555
C22_2 C21_2 1_555 1_555
H20_2 C22_2 1_555 1_555
C23_2 C22_2 1_555 1_555
C24_2 C23_2 1_555 1_555
H21_2 C24_2 1_555 1_555
C25_2 C24_2 1_555 1_555
H22_2 C25_2 1_555 1_555
N4_2 Mn2 1_555 1_555
N4A Mn2A 1_555 1_555
C26_2 N4_2 1_555 1_555
H23_2 C26_2 1_555 1_555
C27_2 C23_2 1_555 1_555
H24_2 C27_2 1_555 1_555
Mn2 O4 1_555 1_555
C1 O4 1_555 1_555
C2 O5 1_555 1_555
O6 Mn1A_2 1_555 1_555
C7 C8 1_555 1_555
C14 C15 1_555 1_555
C19 C20 1_555 1_555
C26 C27 1_555 1_555
Mn2A O3A 1_555 1_555
Mn2A O4A 1_555 1_555
C1A O4A 1_555 1_555
C2A O5A 1_555 1_555
C2A O6A 1_555 1_555
C3B O7B 1_555 1_555
C3B O8B 1_555 1_555
C7_2 C8_2 1_555 1_555
C13_2 N2_2 1_555 1_555
C14_2 C15_2 1_555 1_555
C19_2 C20_2 1_555 1_555
C25_2 N4_2 1_555 1_555
C26_2 C27_2 1_555 1_555

#END
