
#######################################################################
#
#                 Cambridge Crystallographic Data Centre
#                                CCDC 
#
#######################################################################
#
# If this CIF has been generated from an entry in the Cambridge 
# Structural Database, then it will include bibliographic, chemical, 
# crystal, experimental, refinement or atomic coordinate data resulting 
# from the CCDC's data processing and validation procedures.
#
#######################################################################

data_EWOJEG
_symmetry_cell_setting           monoclinic
_symmetry_space_group_name_H-M   'P 21'
_symmetry_Int_Tables_number      4
_space_group_name_Hall           'P 2yb'
loop_
_symmetry_equiv_pos_site_id
_symmetry_equiv_pos_as_xyz
1 x,y,z
2 -x,1/2+y,-z
_cell_length_a                   5.768(3)
_cell_length_b                   21.660(10)
_cell_length_c                   13.150(7)
_cell_angle_alpha                90
_cell_angle_beta                 93.02(2)
_cell_angle_gamma                90
_cell_volume                     1640.61
loop_
_atom_site_label
_atom_site_type_symbol
_atom_site_fract_x
_atom_site_fract_y
_atom_site_fract_z
Co1 Co 0.21163(4) 0.418364(12) 0.712865(19)
Co2 Co 0.09113(4) 0.169458(12) 0.27028(2)
O1 O -0.1530(3) 0.41237(10) 0.70599(11)
O2 O -0.4681(3) 0.43429(9) 0.78955(12)
O3 O 0.1223(3) 0.41039(8) 0.86419(12)
O4 O 0.2582(3) 0.47945(8) 1.02255(14)
O5 O 0.0523(4) 0.44774(10) 1.20520(14)
O6 O -0.1507(3) 0.33666(8) 1.13404(12)
O7 O 0.2889(4) 0.32521(8) 0.71143(13)
O8 O 0.4733(4) 0.25034(9) 0.63826(15)
O9 O 0.2265(3) 0.39092(8) 0.55125(12)
O10 O 0.1018(3) 0.27376(8) 0.28368(13)
O11 O 0.4302(3) 0.36506(9) 0.21519(12)
O12 O 0.4514(3) 0.43805(8) 0.39401(14)
O13 O 0.1942(3) 0.50414(7) 0.65383(14)
O14 O 0.0062(3) 0.57752(8) 0.73485(12)
O15 O -0.0635(3) 0.64561(8) 0.57552(13)
O16 O 0.1341(4) 0.68692(8) 0.41171(14)
H1 H 0.213(6) 0.7094(17) 0.396(3)
O17 O 0.0948(3) 0.60900(9) 0.23257(13)
O18 O -0.2575(3) 0.53178(8) 0.31337(13)
O19 O 0.4476(2) 0.17244(9) 0.28502(11)
O20 O 0.7728(3) 0.19132(8) 0.20594(13)
O21 O 0.1927(3) 0.16222(9) 0.11903(11)
O22 O 0.0818(3) 0.22518(10) -0.04832(14)
O23 O 0.3018(3) 0.17784(9) -0.21770(13)
O24 O 0.5177(3) 0.07509(7) -0.12888(13)
C1 C -0.2553(3) 0.42403(11) 0.78456(15)
C2 C -0.1123(3) 0.42642(10) 0.88738(15)
C3 C -0.1160(4) 0.49121(10) 0.93350(17)
H2 H -0.0473 0.5202 0.8876
H3 H -0.2755 0.5037 0.9416
C4 C 0.0176(4) 0.49316(11) 1.03656(17)
H4 H 0.0052 0.5346 1.0657
C5 C -0.0780(4) 0.44624(10) 1.10961(16)
H5 H -0.2403 0.4564 1.1207
C6 C -0.0665(4) 0.38163(10) 1.06550(16)
H6 H 0.0964 0.3722 1.0544
C7 C -0.2026(4) 0.37909(10) 0.96241(16)
H7 H -0.3653 0.3871 0.9722
H8 H -0.1901 0.3380 0.9339
C8 C 0.3757(4) 0.30147(10) 0.63564(17)
C9 C 0.3572(4) 0.33579(10) 0.53379(16)
C10 C 0.2274(4) 0.29332(10) 0.45635(17)
H9 H 0.3066 0.2538 0.4552
H10 H 0.0720 0.2860 0.4785
C11 C 0.2103(4) 0.31966(10) 0.34891(16)
H11 H 0.1112 0.3564 0.3483
C12 C 0.4480(4) 0.33780(10) 0.31361(16)
H12 H 0.5400 0.3000 0.3089
C13 C 0.5766(4) 0.38056(10) 0.39017(17)
H13 H 0.7328 0.3886 0.3673
C14 C 0.5962(4) 0.35174(11) 0.49601(16)
H14 H 0.6740 0.3804 0.5432
H15 H 0.6895 0.3145 0.4941
C15 C 0.0869(4) 0.55415(10) 0.65771(17)
C16 C 0.0539(4) 0.58819(10) 0.55624(16)
C17 C 0.2885(4) 0.60074(11) 0.51058(17)
H16 H 0.3787 0.6286 0.5547
H17 H 0.3741 0.5624 0.5064
C18 C 0.2553(4) 0.62899(10) 0.40505(18)
H18 H 0.4073 0.6361 0.3771
C19 C 0.1118(4) 0.58618(10) 0.33408(16)
H19 H 0.1928 0.5464 0.3329
C20 C -0.1246(4) 0.57469(10) 0.37650(16)
H20 H -0.2091 0.6139 0.3790
C21 C -0.0981(4) 0.54781(10) 0.48319(16)
H21 H -0.0295 0.5070 0.4797
H22 H -0.2506 0.5433 0.5101
C22 C 0.5603(4) 0.18025(9) 0.20666(16)
C23 C 0.4315(3) 0.17746(10) 0.10152(15)
C24 C 0.4435(4) 0.23939(10) 0.04692(17)
H23 H 0.6047 0.2512 0.0417
H24 H 0.3686 0.2708 0.0864
C25 C 0.3247(4) 0.23625(10) -0.05984(17)
H25 H 0.3443 0.2758 -0.0947
C26 C 0.4265(4) 0.18447(10) -0.12241(16)
H26 H 0.5885 0.1945 -0.1345
C27 C 0.4190(4) 0.12302(10) -0.06828(16)
H27 H 0.2555 0.1127 -0.0603
C28 C 0.5385(4) 0.12638(10) 0.03803(16)
H28 H 0.7027 0.1345 0.0323
H29 H 0.5231 0.0870 0.0721
H30 H 0.196(5) 0.4288(13) 0.898(2)
H31 H 0.336(5) 0.5070(14) 1.059(2)
H32 H -0.006(6) 0.4717(18) 1.234(3)
H33 H -0.265(7) 0.3498(17) 1.153(3)
H34 H 0.276(6) 0.4187(18) 0.513(3)
H35 H 0.009(6) 0.2929(15) 0.239(3)
H36 H 0.357(6) 0.3919(17) 0.220(3)
H37 H 0.522(6) 0.4595(16) 0.374(3)
H38 H -0.037(5) 0.6685(16) 0.537(2)
H39 H 0.001(6) 0.6342(16) 0.230(3)
H40 H -0.314(7) 0.5493(17) 0.260(3)
H41 H 0.112(5) 0.1772(15) 0.078(2)
H42 H 0.007(7) 0.2331(17) -0.097(3)
H43 H 0.334(7) 0.1982(18) -0.252(3)
H44 H 0.630(6) 0.0860(16) -0.158(3)
Co1_2 Co -0.78837(4) 0.418364(12) 0.712865(19)
Co2A Co -0.09113(4) 0.669458(12) 0.72972(2)
Co2_2 Co 1.09113(4) 0.169458(12) 0.27028(2)
O2_2 O 0.5319(3) 0.43429(9) 0.78955(12)
O14A O -0.0062(3) 0.07752(8) 0.26515(12)
O15A O 0.0635(3) 0.14561(8) 0.42448(13)
O20_2 O -0.2272(3) 0.19132(8) 0.20594(13)
H38A H 0.037(5) 0.1685(16) 0.463(2)
O25 O 0.8724(4) 0.27030(11) 0.7778(2)
H45 H 0.785(9) 0.280(3) 0.736(4)
loop_
_geom_bond_atom_site_label_1
_geom_bond_atom_site_label_2
_geom_bond_site_symmetry_1
_geom_bond_site_symmetry_2
Co1 O1 1_555 1_555
Co2 O10 1_555 1_555
O1 C1 1_555 1_555
O2 C1 1_555 1_555
O3 Co1 1_555 1_555
O4 C4 1_555 1_555
O5 C5 1_555 1_555
O6 C6 1_555 1_555
O7 Co1 1_555 1_555
O8 C8 1_555 1_555
O9 Co1 1_555 1_555
O10 C11 1_555 1_555
O11 C12 1_555 1_555
O12 C13 1_555 1_555
O13 Co1 1_555 1_555
O14 C15 1_555 1_555
O15 C16 1_555 1_555
O16 H1 1_555 1_555
O17 C19 1_555 1_555
O18 C20 1_555 1_555
O19 Co2 1_555 1_555
O20 C22 1_555 1_555
O21 Co2 1_555 1_555
O22 C25 1_555 1_555
O23 C26 1_555 1_555
O24 C27 1_555 1_555
C1 C2 1_555 1_555
C2 O3 1_555 1_555
C3 C2 1_555 1_555
H2 C3 1_555 1_555
H3 C3 1_555 1_555
C4 C3 1_555 1_555
H4 C4 1_555 1_555
C5 C4 1_555 1_555
H5 C5 1_555 1_555
C6 C5 1_555 1_555
H6 C6 1_555 1_555
C7 C2 1_555 1_555
H7 C7 1_555 1_555
H8 C7 1_555 1_555
C8 O7 1_555 1_555
C9 O9 1_555 1_555
C10 C9 1_555 1_555
H9 C10 1_555 1_555
H10 C10 1_555 1_555
C11 C10 1_555 1_555
H11 C11 1_555 1_555
C12 C11 1_555 1_555
H12 C12 1_555 1_555
C13 C12 1_555 1_555
H13 C13 1_555 1_555
C14 C9 1_555 1_555
H14 C14 1_555 1_555
H15 C14 1_555 1_555
C15 O13 1_555 1_555
C16 C15 1_555 1_555
C17 C16 1_555 1_555
H16 C17 1_555 1_555
H17 C17 1_555 1_555
C18 O16 1_555 1_555
H18 C18 1_555 1_555
C19 C18 1_555 1_555
H19 C19 1_555 1_555
C20 C19 1_555 1_555
H20 C20 1_555 1_555
C21 C16 1_555 1_555
H21 C21 1_555 1_555
H22 C21 1_555 1_555
C22 O19 1_555 1_555
C23 O21 1_555 1_555
C24 C23 1_555 1_555
H23 C24 1_555 1_555
H24 C24 1_555 1_555
C25 C24 1_555 1_555
H25 C25 1_555 1_555
C26 C25 1_555 1_555
H26 C26 1_555 1_555
C27 C26 1_555 1_555
H27 C27 1_555 1_555
C28 C23 1_555 1_555
H28 C28 1_555 1_555
H29 C28 1_555 1_555
H30 O3 1_555 1_555
H31 O4 1_555 1_555
H32 O5 1_555 1_555
H33 O6 1_555 1_555
H34 O9 1_555 1_555
H35 O10 1_555 1_555
H36 O11 1_555 1_555
H37 O12 1_555 1_555
H38 O15 1_555 1_555
H39 O17 1_555 1_555
H40 O18 1_555 1_555
H41 O21 1_555 1_555
H42 O22 1_555 1_555
H43 O23 1_555 1_555
H44 O24 1_555 1_555
O25 H45 1_555 1_555
Co1_2 O2 1_555 1_555
Co2A O14 1_555 1_555
Co2_2 O20 1_555 1_555
O2_2 Co1 1_555 1_555
O14A Co2 1_555 1_555
O15A Co2 1_555 1_555
O20_2 Co2 1_555 1_555
H38A O15A 1_555 1_555
O15 Co2A 1_555 1_555
C6 C7 1_555 1_555
C8 C9 1_555 1_555
C13 C14 1_555 1_555
C17 C18 1_555 1_555
C20 C21 1_555 1_555
C22 C23 1_555 1_555
C27 C28 1_555 1_555

#END
