
#######################################################################
#
#                 Cambridge Crystallographic Data Centre
#                                CCDC 
#
#######################################################################
#
# If this CIF has been generated from an entry in the Cambridge 
# Structural Database, then it will include bibliographic, chemical, 
# crystal, experimental, refinement or atomic coordinate data resulting 
# from the CCDC's data processing and validation procedures.
#
#######################################################################

data_EWOJIK
_symmetry_cell_setting           monoclinic
_symmetry_space_group_name_H-M   'P 21'
_symmetry_Int_Tables_number      4
_space_group_name_Hall           'P 2yb'
loop_
_symmetry_equiv_pos_site_id
_symmetry_equiv_pos_as_xyz
1 x,y,z
2 -x,1/2+y,-z
_cell_length_a                   5.7095(1)
_cell_length_b                   32.3254(6)
_cell_length_c                   13.2471(2)
_cell_angle_alpha                90
_cell_angle_beta                 93.036(1)
_cell_angle_gamma                90
_cell_volume                     2441.48
loop_
_atom_site_label
_atom_site_type_symbol
_atom_site_fract_x
_atom_site_fract_y
_atom_site_fract_z
Zn1 Zn 0.76432(15) 0.2381 0.26072(5)
Zn2 Zn 0.45057(16) 0.07100(3) 0.27502(6)
Zn3 Zn 0.88080(14) 0.40999(3) 0.70877(5)
C1 C 1.2374(11) 0.24815(16) 0.1976(4)
C2 C 1.1034(10) 0.24616(16) 0.0927(4)
C3 C 1.1108(12) 0.28802(16) 0.0397(4)
H1 H 1.2727 0.2966 0.0354
H2 H 1.0317 0.3085 0.0792
C4 C 0.9928(12) 0.28604(18) -0.0670(4)
H3 H 1.0127 0.3127 -0.1008
C5 C 1.0991(12) 0.25174(18) -0.1296(4)
H4 H 1.2631 0.2588 -0.1398
C6 C 1.0926(11) 0.21014(17) -0.0771(4)
H5 H 0.9281 0.2027 -0.0695
C7 C 1.2141(11) 0.21254(16) 0.0278(4)
H6 H 1.3790 0.2187 0.0217
H7 H 1.2025 0.1859 0.0611
O1 O 1.1197(7) 0.24183(14) 0.2748(3)
O2 O 1.4494(8) 0.25551(13) 0.1962(3)
O3 O 0.8648(7) 0.23587(12) 0.1099(3)
H8 H 0.8542 0.2109 0.1198
O4 O 0.7477(8) 0.27866(15) -0.0561(4)
H9 H 0.7311 0.2628 -0.0087
O5 O 0.9781(8) 0.24830(14) -0.2262(3)
H10 H 0.9455 0.2240 -0.2375
O6 O 1.1953(8) 0.17915(12) -0.1381(3)
H11 H 1.2534 0.1610 -0.1016
C8 C 0.5779(11) 0.16170(17) 0.3355(4)
C9 C 0.6098(10) 0.18619(15) 0.4362(4)
C10 C 0.3782(11) 0.19511(18) 0.4793(4)
H12 H 0.2907 0.1695 0.4844
H13 H 0.2886 0.2135 0.4343
C11 C 0.4097(11) 0.21511(16) 0.5844(4)
H14 H 0.2553 0.2196 0.6116
C12 C 0.5543(11) 0.18694(16) 0.6555(4)
H15 H 0.4733 0.1603 0.6580
C13 C 0.7925(11) 0.17943(16) 0.6158(4)
H16 H 0.8751 0.2059 0.6111
C14 C 0.7644(11) 0.15969(16) 0.5095(4)
H17 H 0.9179 0.1563 0.4825
H18 H 0.6949 0.1325 0.5150
O7 O 0.4727(8) 0.12942(12) 0.3413(3)
O8 O 0.6642(8) 0.17791(12) 0.2580(3)
O9 O 0.7336(8) 0.22440(11) 0.4163(3)
H19 H 0.6451 0.2441 0.4225
O10 O 0.5256(8) 0.25375(12) 0.5764(3)
H20 H 0.6661 0.2498 0.5705
O11 O 0.5722(9) 0.20342(13) 0.7562(3)
H21 H 0.5621 0.1845 0.7971
O12 O 0.9305(8) 0.15187(12) 0.6793(3)
H22 H 0.8544 0.1310 0.6899
C15 C 0.9272(12) 0.07902(17) 0.2045(4)
C16 C 0.7814(10) 0.07965(16) 0.1021(4)
C17 C 0.7835(11) 0.12245(17) 0.0540(4)
H23 H 0.9444 0.1315 0.0487
H24 H 0.7063 0.1420 0.0968
C18 C 0.6589(11) 0.12230(18) -0.0514(5)
H25 H 0.6710 0.1498 -0.0817
C19 C 0.7725(12) 0.09054(18) -0.1186(4)
H26 H 0.9372 0.0981 -0.1252
C20 C 0.7617(11) 0.04745(17) -0.0737(4)
H27 H 0.5964 0.0405 -0.0664
C21 C 0.8859(11) 0.04733(16) 0.0323(4)
H28 H 0.8720 0.0201 0.0621
H29 H 1.0514 0.0531 0.0264
O13 O 0.8153(8) 0.06989(14) 0.2828(3)
O14 O 1.1335(8) 0.08685(14) 0.2013(3)
O15 O 0.5447(7) 0.06786(12) 0.1227(3)
H30 H 0.4522 0.0797 0.0829
O16 O 0.4197(8) 0.11211(13) -0.0437(3)
H31 H 0.3378 0.1305 -0.0693
O17 O 0.6545(8) 0.09061(15) -0.2170(3)
H32 H 0.7291 0.0766 -0.2558
O18 O 0.8590(9) 0.01733(12) -0.1371(3)
H33 H 0.8866 -0.0039 -0.1046
C22 C 0.2420(11) -0.00384(16) 0.3544(4)
C23 C 0.2882(11) 0.02034(15) 0.4535(4)
C24 C 0.4267(11) -0.00763(15) 0.5293(4)
H34 H 0.3415 -0.0333 0.5368
H35 H 0.5771 -0.0143 0.5026
C25 C 0.4677(11) 0.01255(17) 0.6330(4)
H36 H 0.5629 0.0376 0.6268
C26 C 0.2316(11) 0.02395(17) 0.6737(4)
H37 H 0.1403 -0.0016 0.6776
C27 C 0.0947(12) 0.05308(17) 0.6026(5)
H38 H -0.0583 0.0585 0.6302
C28 C 0.0552(11) 0.03348(18) 0.4992(5)
H39 H -0.0257 0.0530 0.4541
H40 H -0.0445 0.0094 0.5047
O19 O 0.1262(8) -0.03585(11) 0.3616(3)
O20 O 0.3362(8) 0.01041(12) 0.2769(3)
O21 O 0.4288(8) 0.05602(12) 0.4325(3)
H41 H 0.3732 0.0765 0.4588
O22 O 0.5900(8) -0.01636(12) 0.6968(3)
H42 H 0.6903 -0.0043 0.7322
O23 O 0.2574(9) 0.04058(13) 0.7735(3)
H43 H 0.3519 0.0597 0.7744
O24 O 0.2181(9) 0.09142(13) 0.5965(3)
H44 H 0.3285 0.0886 0.5599
C29 C 0.4073(11) 0.41397(18) 0.7853(4)
C30 C 0.5579(10) 0.41490(17) 0.8863(4)
C31 C 0.5517(12) 0.45816(17) 0.9319(5)
H45 H 0.6224 0.4777 0.8869
H46 H 0.3902 0.4664 0.9392
C32 C 0.6836(12) 0.45909(18) 1.0346(5)
H47 H 0.6658 0.4866 1.0642
C33 C 0.5919(11) 0.42718(17) 1.1069(4)
H48 H 0.4274 0.4336 1.1179
C34 C 0.6041(11) 0.38404(17) 1.0634(4)
H49 H 0.7689 0.3781 1.0520
C35 C 0.4662(12) 0.38251(17) 0.9598(4)
H50 H 0.4805 0.3551 0.9308
H51 H 0.3013 0.3876 0.9693
O25 O 0.5193(8) 0.40532(14) 0.7039(3)
O26 O 0.1982(8) 0.42074(14) 0.7891(3)
O27 O 0.7933(7) 0.40520(12) 0.8622(3)
H52 H 0.8111 0.3800 0.8626
O28 O 0.9275(8) 0.45184(14) 1.0217(3)
H53 H 0.9421 0.4327 0.9819
O29 O 0.7215(9) 0.42907(14) 1.2018(3)
H54 H 0.7083 0.4071 1.2318
O30 O 0.5237(8) 0.35333(13) 1.1287(3)
H55 H 0.4044 0.3614 1.1543
C36 C 1.0497(12) 0.33157(17) 0.6305(4)
C37 C 1.0264(12) 0.35336(16) 0.5276(4)
C38 C 1.2701(11) 0.36498(18) 0.4916(4)
H56 H 1.3685 0.3405 0.4907
H57 H 1.3445 0.3849 0.5378
C39 C 1.2434(11) 0.38389(17) 0.3837(4)
H58 H 1.4006 0.3893 0.3605
C40 C 1.1201(11) 0.35415(17) 0.3100(4)
H59 H 1.2173 0.3293 0.3063
C41 C 0.8818(11) 0.34119(16) 0.3434(4)
H60 H 0.7797 0.3656 0.3431
C42 C 0.9028(12) 0.32331(16) 0.4519(4)
H61 H 0.7471 0.3172 0.4738
H62 H 0.9900 0.2976 0.4513
O31 O 0.9586(9) 0.34833(13) 0.7045(3)
O32 O 1.1507(9) 0.29742(13) 0.6352(3)
O33 O 0.8856(8) 0.38914(12) 0.5406(3)
H63 H 0.9445 0.4090 0.5128
O34 O 1.1205(9) 0.42212(12) 0.3854(3)
H64 H 0.9793 0.4176 0.3864
O35 O 1.0993(8) 0.37215(13) 0.2110(3)
H65 H 1.0221 0.3568 0.1729
O36 O 0.7729(8) 0.31031(13) 0.2804(3)
H66 H 0.6851 0.3214 0.2374
Zn1_2 Zn 1.76432(15) 0.2381 0.26072(5)
Zn2_2 Zn 1.45057(16) 0.07100(3) 0.27502(6)
Zn3A Zn 0.11920(14) -0.09001(3) 0.29123(5)
Zn3_2 Zn -0.11920(14) 0.40999(3) 0.70877(5)
O2_2 O 0.4494(8) 0.25551(13) 0.1962(3)
O14_2 O 0.1335(8) 0.08685(14) 0.2013(3)
O19A O 0.8738(8) 0.46415(11) 0.6384(3)
O26_2 O 1.1982(8) 0.42074(14) 0.7891(3)
O37 O 0.5458(10) 0.31078(17) 0.7743(4)
loop_
_geom_bond_atom_site_label_1
_geom_bond_atom_site_label_2
_geom_bond_site_symmetry_1
_geom_bond_site_symmetry_2
Zn1 O1 1_555 1_555
Zn2 O7 1_555 1_555
Zn3 O25 1_555 1_555
C1 C2 1_555 1_555
C2 C3 1_555 1_555
C3 H1 1_555 1_555
H2 C3 1_555 1_555
C4 C3 1_555 1_555
H3 C4 1_555 1_555
C5 C4 1_555 1_555
H4 C5 1_555 1_555
C6 C5 1_555 1_555
H5 C6 1_555 1_555
C7 C2 1_555 1_555
H6 C7 1_555 1_555
H7 C7 1_555 1_555
O1 C1 1_555 1_555
O2 C1 1_555 1_555
O3 Zn1 1_555 1_555
H8 O3 1_555 1_555
O4 C4 1_555 1_555
H9 O4 1_555 1_555
O5 C5 1_555 1_555
H10 O5 1_555 1_555
O6 C6 1_555 1_555
H11 O6 1_555 1_555
C8 C9 1_555 1_555
C9 C10 1_555 1_555
C10 H12 1_555 1_555
H13 C10 1_555 1_555
C11 C10 1_555 1_555
H14 C11 1_555 1_555
C12 C11 1_555 1_555
H15 C12 1_555 1_555
C13 C12 1_555 1_555
H16 C13 1_555 1_555
C14 C9 1_555 1_555
H17 C14 1_555 1_555
H18 C14 1_555 1_555
O7 C8 1_555 1_555
O8 Zn1 1_555 1_555
O9 Zn1 1_555 1_555
H19 O9 1_555 1_555
O10 C11 1_555 1_555
H20 O10 1_555 1_555
O11 C12 1_555 1_555
H21 O11 1_555 1_555
O12 C13 1_555 1_555
H22 O12 1_555 1_555
C15 C16 1_555 1_555
C16 C17 1_555 1_555
C17 H23 1_555 1_555
H24 C17 1_555 1_555
C18 C17 1_555 1_555
H25 C18 1_555 1_555
C19 C18 1_555 1_555
H26 C19 1_555 1_555
C20 C19 1_555 1_555
H27 C20 1_555 1_555
C21 C16 1_555 1_555
H28 C21 1_555 1_555
H29 C21 1_555 1_555
O13 Zn2 1_555 1_555
O14 C15 1_555 1_555
O15 Zn2 1_555 1_555
H30 O15 1_555 1_555
O16 C18 1_555 1_555
H31 O16 1_555 1_555
O17 C19 1_555 1_555
H32 O17 1_555 1_555
O18 C20 1_555 1_555
H33 O18 1_555 1_555
C22 C23 1_555 1_555
C23 C24 1_555 1_555
C24 H34 1_555 1_555
H35 C24 1_555 1_555
C25 C24 1_555 1_555
H36 C25 1_555 1_555
C26 C25 1_555 1_555
H37 C26 1_555 1_555
C27 C26 1_555 1_555
H38 C27 1_555 1_555
C28 C23 1_555 1_555
H39 C28 1_555 1_555
H40 C28 1_555 1_555
O19 C22 1_555 1_555
O20 Zn2 1_555 1_555
O21 Zn2 1_555 1_555
H41 O21 1_555 1_555
O22 C25 1_555 1_555
H42 O22 1_555 1_555
O23 C26 1_555 1_555
H43 O23 1_555 1_555
O24 C27 1_555 1_555
H44 O24 1_555 1_555
C29 C30 1_555 1_555
C30 C31 1_555 1_555
C31 H45 1_555 1_555
H46 C31 1_555 1_555
C32 C31 1_555 1_555
H47 C32 1_555 1_555
C33 C32 1_555 1_555
H48 C33 1_555 1_555
C34 C33 1_555 1_555
H49 C34 1_555 1_555
C35 C30 1_555 1_555
H50 C35 1_555 1_555
H51 C35 1_555 1_555
O25 C29 1_555 1_555
O26 C29 1_555 1_555
O27 Zn3 1_555 1_555
H52 O27 1_555 1_555
O28 C32 1_555 1_555
H53 O28 1_555 1_555
O29 C33 1_555 1_555
H54 O29 1_555 1_555
O30 C34 1_555 1_555
H55 O30 1_555 1_555
C36 C37 1_555 1_555
C37 C38 1_555 1_555
C38 H56 1_555 1_555
H57 C38 1_555 1_555
C39 C38 1_555 1_555
H58 C39 1_555 1_555
C40 C39 1_555 1_555
H59 C40 1_555 1_555
C41 C40 1_555 1_555
H60 C41 1_555 1_555
C42 C37 1_555 1_555
H61 C42 1_555 1_555
H62 C42 1_555 1_555
O31 Zn3 1_555 1_555
O32 C36 1_555 1_555
O33 Zn3 1_555 1_555
H63 O33 1_555 1_555
O34 C39 1_555 1_555
H64 O34 1_555 1_555
O35 C40 1_555 1_555
H65 O35 1_555 1_555
O36 Zn1 1_555 1_555
H66 O36 1_555 1_555
Zn1_2 O2 1_555 1_555
Zn2_2 O14 1_555 1_555
Zn3A O19 1_555 1_555
Zn3_2 O26 1_555 1_555
O2_2 Zn1 1_555 1_555
O14_2 Zn2 1_555 1_555
O19A Zn3 1_555 1_555
O26_2 Zn3 1_555 1_555
C2 O3 1_555 1_555
C6 C7 1_555 1_555
C8 O8 1_555 1_555
C9 O9 1_555 1_555
C13 C14 1_555 1_555
C15 O13 1_555 1_555
C16 O15 1_555 1_555
C20 C21 1_555 1_555
C22 O20 1_555 1_555
C23 O21 1_555 1_555
C27 C28 1_555 1_555
C30 O27 1_555 1_555
C34 C35 1_555 1_555
C36 O31 1_555 1_555
C37 O33 1_555 1_555
C41 C42 1_555 1_555
C41 O36 1_555 1_555

#END
