
#######################################################################
#
#                 Cambridge Crystallographic Data Centre
#                                CCDC 
#
#######################################################################
#
# If this CIF has been generated from an entry in the Cambridge 
# Structural Database, then it will include bibliographic, chemical, 
# crystal, experimental, refinement or atomic coordinate data resulting 
# from the CCDC's data processing and validation procedures.
#
#######################################################################

data_EWONEJ01
_symmetry_cell_setting           monoclinic
_symmetry_space_group_name_H-M   'P 21/c'
_symmetry_Int_Tables_number      14
_space_group_name_Hall           '-P 2ybc'
loop_
_symmetry_equiv_pos_site_id
_symmetry_equiv_pos_as_xyz
1 x,y,z
2 -x,1/2+y,1/2-z
3 -x,-y,-z
4 x,1/2-y,1/2+z
_cell_length_a                   10.084(2)
_cell_length_b                   8.9072(18)
_cell_length_c                   20.276(4)
_cell_angle_alpha                90.00
_cell_angle_beta                 99.92(3)
_cell_angle_gamma                90.00
_cell_volume                     1793.97
loop_
_atom_site_label
_atom_site_type_symbol
_atom_site_fract_x
_atom_site_fract_y
_atom_site_fract_z
Zn1 Zn 0.30442(3) 0.06576(3) 0.391529(14)
O1 O 0.37173(19) 0.0696(2) 0.30191(9)
O2 O 0.45045(18) 0.2170(2) 0.43391(9)
N1 N 0.12805(19) 0.1876(3) 0.34946(10)
O3 O 0.57029(18) 0.3766(2) 0.05939(9)
N2 N 0.20361(19) 0.1001(3) 0.47718(10)
O4 O 0.75736(17) 0.3338(2) 0.12772(9)
O5 O 0.5792(2) 0.1531(3) 0.33611(10)
C1 C 0.4350(2) 0.1476(3) 0.16916(12)
H1 H 0.3405 0.1322 0.1710
H2 H 0.4548 0.2535 0.1763
C2 C 0.5213(2) 0.0558(3) 0.22443(13)
H3 H 0.4971 -0.0500 0.2165
C3 C -0.0663(2) 0.3167(3) 0.37606(14)
C4 C 0.0916(2) 0.1851(3) 0.46251(12)
C5 C 0.2415(3) 0.0550(3) 0.53947(13)
H4 H 0.3191 -0.0029 0.5498
C6 C 0.0505(2) 0.2318(3) 0.39406(12)
C7 C 0.4909(3) 0.0972(3) 0.29317(13)
C8 C 0.1702(3) 0.0903(4) 0.59069(14)
H5 H 0.1992 0.0549 0.6339
C9 C -0.1020(3) 0.3558(4) 0.30804(16)
H6 H -0.1794 0.4118 0.2935
C10 C 0.0152(3) 0.2289(3) 0.51112(14)
C11 C 0.0906(3) 0.2290(3) 0.28608(13)
H7 H 0.1440 0.2007 0.2551
C12 C 0.0580(3) 0.1770(4) 0.57655(15)
H8 H 0.0098 0.2018 0.6102
C13 C -0.0235(3) 0.3117(4) 0.26407(14)
H9 H -0.0464 0.3372 0.2191
C14 C -0.1412(3) 0.3590(4) 0.42679(18)
H10 H -0.2188 0.4163 0.4152
C15 C -0.1018(3) 0.3176(4) 0.49088(18)
H11 H -0.1525 0.3477 0.5228
C16 C 0.6694(3) 0.0718(4) 0.21968(13)
H12 H 0.6974 0.1743 0.2306
H13 H 0.7217 0.0065 0.2526
C17 C 0.4628(2) 0.1011(3) 0.10055(12)
H14 H 0.4078 0.1609 0.0663
H15 H 0.4380 -0.0034 0.0925
C18 C 0.6125(2) 0.1219(3) 0.09538(12)
H16 H 0.6261 0.0784 0.0527
C19 C 0.6997(2) 0.0336(3) 0.15124(13)
H17 H 0.6850 -0.0730 0.1431
H18 H 0.7938 0.0545 0.1504
C20 C 0.6499(2) 0.2868(3) 0.09461(11)
Zn1A Zn 0.69558(3) 0.56576(3) 0.108471(14)
O3A O 0.42971(18) -0.1234(2) 0.44061(9)
O4A O 0.24264(17) -0.1662(2) 0.37228(9)
loop_
_geom_bond_atom_site_label_1
_geom_bond_atom_site_label_2
_geom_bond_site_symmetry_1
_geom_bond_site_symmetry_2
Zn1 O1 1_555 1_555
O1 C7 1_555 1_555
O2 Zn1 1_555 1_555
N1 Zn1 1_555 1_555
O3 C20 1_555 1_555
N2 Zn1 1_555 1_555
O4 C20 1_555 1_555
O5 C7 1_555 1_555
C1 H1 1_555 1_555
H2 C1 1_555 1_555
C2 C1 1_555 1_555
H3 C2 1_555 1_555
C3 C6 1_555 1_555
C4 N2 1_555 1_555
C5 N2 1_555 1_555
H4 C5 1_555 1_555
C6 N1 1_555 1_555
C7 C2 1_555 1_555
C8 C5 1_555 1_555
H5 C8 1_555 1_555
C9 C3 1_555 1_555
H6 C9 1_555 1_555
C10 C4 1_555 1_555
C11 N1 1_555 1_555
H7 C11 1_555 1_555
C12 C8 1_555 1_555
H8 C12 1_555 1_555
C13 C9 1_555 1_555
H9 C13 1_555 1_555
C14 C3 1_555 1_555
H10 C14 1_555 1_555
C15 C10 1_555 1_555
H11 C15 1_555 1_555
C16 C2 1_555 1_555
H12 C16 1_555 1_555
H13 C16 1_555 1_555
C17 C1 1_555 1_555
H14 C17 1_555 1_555
H15 C17 1_555 1_555
C18 C17 1_555 1_555
H16 C18 1_555 1_555
C19 C16 1_555 1_555
H17 C19 1_555 1_555
H18 C19 1_555 1_555
C20 C18 1_555 1_555
Zn1A O3 1_555 1_555
O3A Zn1 1_555 1_555
O4A Zn1 1_555 1_555
O4 Zn1A 1_555 1_555
C4 C6 1_555 1_555
C10 C12 1_555 1_555
C11 C13 1_555 1_555
C14 C15 1_555 1_555
C18 C19 1_555 1_555

#END
