
#######################################################################
#
#                 Cambridge Crystallographic Data Centre
#                                CCDC 
#
#######################################################################
#
# If this CIF has been generated from an entry in the Cambridge 
# Structural Database, then it will include bibliographic, chemical, 
# crystal, experimental, refinement or atomic coordinate data resulting 
# from the CCDC's data processing and validation procedures.
#
#######################################################################

data_EWOROX
_symmetry_cell_setting           monoclinic
_symmetry_space_group_name_H-M   'C 2/c'
_symmetry_Int_Tables_number      15
_space_group_name_Hall           '-C 2yn'
loop_
_symmetry_equiv_pos_site_id
_symmetry_equiv_pos_as_xyz
1 x,y,z
2 1/2+x,1/2+y,z
3 x,-y,1/2+z
4 1/2+x,1/2-y,1/2+z
5 -x,-y,-z
6 1/2-x,1/2-y,-z
7 -x,y,1/2-z
8 1/2-x,1/2+y,1/2-z
_cell_length_a                   10.178(3)
_cell_length_b                   13.653(3)
_cell_length_c                   7.438(2)
_cell_angle_alpha                90
_cell_angle_beta                 131.061(18)
_cell_angle_gamma                90
_cell_volume                     779.335
loop_
_atom_site_label
_atom_site_type_symbol
_atom_site_fract_x
_atom_site_fract_y
_atom_site_fract_z
Hg1 Hg 0.0000 0.0000 0.5000
Br1 Br 0.24317(15) -0.06977(10) 1.0125(2)
N1 N -0.0107(14) 0.1633(8) 0.6516(17)
C1 C -0.0162(13) 0.2498(6) 0.5620(17)
H1 H -0.0246 0.2494 0.4297
C2 C -0.0104(13) 0.3381(6) 0.6515(17)
H2 H -0.0207 0.3963 0.5783
N1F N 0.0107(14) 0.1633(8) 0.8484(17)
C1F C 0.0162(13) 0.2498(6) 0.9380(17)
H1F H 0.0246 0.2494 1.0703
C2F C 0.0104(13) 0.3381(6) 0.8485(17)
H2F H 0.0207 0.3963 0.9217
Br1B Br 0.24317(15) 0.06977(10) 0.5125(2)
Br1D Br -0.24317(15) 0.06977(10) -0.0125(2)
Br1F Br -0.24317(15) -0.06977(10) 0.4875(2)
N1D N 0.0107(14) -0.1633(8) 0.3484(17)
Hg1B Hg 0.0000 0.0000 1.0000
Hg1B_2 Hg 0.0000 0.0000 0.0000
loop_
_geom_bond_atom_site_label_1
_geom_bond_atom_site_label_2
_geom_bond_site_symmetry_1
_geom_bond_site_symmetry_2
Hg1 Br1 1_555 1_555
Br1 Hg1B 1_555 1_555
N1 Hg1 1_555 1_555
C1 N1 1_555 1_555
H1 C1 1_555 1_555
C2 C1 1_555 1_555
H2 C2 1_555 1_555
N1F N1 1_555 1_555
C1F N1F 1_555 1_555
H1F C1F 1_555 1_555
C2F C2 1_555 1_555
H2F C2F 1_555 1_555
Br1B Hg1 1_555 1_555
Br1D Hg1 1_555 1_555
Br1F Hg1 1_555 1_555
N1D Hg1 1_555 1_555
Hg1B N1F 1_555 1_555
Hg1B_2 Br1B 1_555 1_555
C1F C2F 1_555 1_555
Br1D Hg1B_2 1_555 1_555
Br1F Hg1B 1_555 1_555

#END
