
#######################################################################
#
#                 Cambridge Crystallographic Data Centre
#                                CCDC 
#
#######################################################################
#
# If this CIF has been generated from an entry in the Cambridge 
# Structural Database, then it will include bibliographic, chemical, 
# crystal, experimental, refinement or atomic coordinate data resulting 
# from the CCDC's data processing and validation procedures.
#
#######################################################################

data_EWORIR01
_symmetry_cell_setting           orthorhombic
_symmetry_space_group_name_H-M   'I m m a'
_symmetry_Int_Tables_number      74
_space_group_name_Hall           '-I 2b 2'
loop_
_symmetry_equiv_pos_site_id
_symmetry_equiv_pos_as_xyz
1 x,y,z
2 1/2+x,1/2+y,1/2+z
3 x,1/2+y,-z
4 x,1/2-y,z
5 -x,y,z
6 1/2+x,y,1/2-z
7 1/2+x,-y,1/2+z
8 1/2-x,1/2+y,1/2+z
9 -x,-y,-z
10 1/2-x,1/2-y,1/2-z
11 -x,1/2-y,z
12 -x,1/2+y,-z
13 x,-y,-z
14 1/2-x,-y,1/2+z
15 1/2-x,y,1/2-z
16 1/2+x,1/2-y,1/2-z
_cell_length_a                   7.129(1)
_cell_length_b                   7.398(1)
_cell_length_c                   13.073(2)
_cell_angle_alpha                90
_cell_angle_beta                 90
_cell_angle_gamma                90
_cell_volume                     689.474
loop_
_atom_site_label
_atom_site_type_symbol
_atom_site_fract_x
_atom_site_fract_y
_atom_site_fract_z
Hg1 Hg 0.2500 0.2500 0.2500
Cl1 Cl 0.0000 0.4873(2) 0.31977(12)
N1 N 0.0917(7) 0.2500 0.0874(4)
C1 C 0.0948(10) 0.2500 -0.0925(5)
H1 H 0.1623 0.2500 -0.1533
C2 C 0.1822(9) 0.2500 -0.0014(7)
H2 H 0.3127 0.2500 -0.0005
N1D N -0.0917(7) 0.2500 0.0874(4)
C2D C -0.1822(9) 0.2500 -0.0014(7)
C1D C -0.0948(10) 0.2500 -0.0925(5)
H1D H -0.1623 0.2500 -0.1533
H2D H -0.3127 0.2500 -0.0005
Cl1C Cl 0.0000 0.0127(2) 0.31977(12)
Cl1E Cl 0.5000 0.4873(2) 0.18023(12)
Cl1I Cl 0.5000 0.0127(2) 0.18023(12)
N1I N 0.4083(7) 0.2500 0.4126(4)
Hg1D Hg -0.2500 0.2500 0.2500
loop_
_geom_bond_atom_site_label_1
_geom_bond_atom_site_label_2
_geom_bond_site_symmetry_1
_geom_bond_site_symmetry_2
Hg1 Cl1 1_555 1_555
Cl1 Hg1D 1_555 1_555
N1 Hg1 1_555 1_555
C1 H1 1_555 1_555
C2 N1 1_555 1_555
H2 C2 1_555 1_555
N1D N1 1_555 1_555
C2D N1D 1_555 1_555
C1D C1 1_555 1_555
H1D C1D 1_555 1_555
H2D C2D 1_555 1_555
Cl1C Hg1 1_555 1_555
Cl1E Hg1 1_555 1_555
Cl1I Hg1 1_555 1_555
N1I Hg1 1_555 1_555
Hg1D N1D 1_555 1_555
C1 C2 1_555 1_555
C2D C1D 1_555 1_555
Cl1C Hg1D 1_555 1_555

#END
