
#######################################################################
#
#                 Cambridge Crystallographic Data Centre
#                                CCDC 
#
#######################################################################
#
# If this CIF has been generated from an entry in the Cambridge 
# Structural Database, then it will include bibliographic, chemical, 
# crystal, experimental, refinement or atomic coordinate data resulting 
# from the CCDC's data processing and validation procedures.
#
#######################################################################

data_EWOREN01
_symmetry_cell_setting           triclinic
_symmetry_space_group_name_H-M   'P -1'
_symmetry_Int_Tables_number      2
_space_group_name_Hall           '-P 1'
loop_
_symmetry_equiv_pos_site_id
_symmetry_equiv_pos_as_xyz
1 x,y,z
2 -x,-y,-z
_cell_length_a                   7.0171(12)
_cell_length_b                   7.0163(12)
_cell_length_c                   8.3634(14)
_cell_angle_alpha                109.362(4)
_cell_angle_beta                 96.040(4)
_cell_angle_gamma                112.625(3)
_cell_volume                     345.534
loop_
_atom_site_label
_atom_site_type_symbol
_atom_site_fract_x
_atom_site_fract_y
_atom_site_fract_z
C1 C 0.3410(18) 0.829(2) 1.0086(16)
H1 H 0.2274 0.7085 1.0193
C2 C 0.4402(17) 1.039(2) 1.1489(16)
H2 H 0.3923 1.0604 1.2527
Hg1 Hg 0.22489(7) 0.40615(7) 0.61288(6)
I1 I 0.25709(11) 0.54110(14) 0.35328(10)
I2 I 0.13643(11) 0.15865(13) 0.79441(10)
N1 N 0.4001(15) 0.7909(16) 0.8601(13)
C1A C 0.6590(18) 1.171(2) 0.9914(16)
H1A H 0.7726 1.2915 0.9807
C2A C 0.5598(17) 0.961(2) 0.8511(16)
H2A H 0.6077 0.9396 0.7473
Hg1A Hg 0.77511(7) 0.59385(7) 0.38712(6)
Hg1A_2 Hg 0.77511(7) 1.59385(7) 1.38712(6)
I1A I 0.74291(11) 0.45890(14) 0.64672(10)
I2A I 0.86357(11) 0.84135(13) 0.20559(10)
N1A N 0.5999(15) 1.2091(16) 1.1399(13)
N1A_2 N 0.5999(15) 0.2091(16) 0.1399(13)
loop_
_geom_bond_atom_site_label_1
_geom_bond_atom_site_label_2
_geom_bond_site_symmetry_1
_geom_bond_site_symmetry_2
C1 H1 1_555 1_555
C2 C1 1_555 1_555
H2 C2 1_555 1_555
Hg1 I1 1_555 1_555
I1 Hg1A 1_555 1_555
I2 Hg1 1_555 1_555
N1 C1 1_555 1_555
C1A H1A 1_555 1_555
C2A N1 1_555 1_555
H2A C2A 1_555 1_555
Hg1A I1A 1_555 1_555
Hg1A_2 N1A 1_555 1_555
I1A Hg1 1_555 1_555
I2A Hg1A 1_555 1_555
N1A C2 1_555 1_555
N1A_2 Hg1A 1_555 1_555
Hg1 N1 1_555 1_555
C1A C2A 1_555 1_555
C1A N1A 1_555 1_555

#END
