
#######################################################################
#
#                 Cambridge Crystallographic Data Centre
#                                CCDC 
#
#######################################################################
#
# If this CIF has been generated from an entry in the Cambridge 
# Structural Database, then it will include bibliographic, chemical, 
# crystal, experimental, refinement or atomic coordinate data resulting 
# from the CCDC's data processing and validation procedures.
#
#######################################################################

data_EWORIR
_symmetry_cell_setting           orthorhombic
_symmetry_space_group_name_H-M   'I m m a'
_symmetry_Int_Tables_number      74
_space_group_name_Hall           '-I 2b 2'
loop_
_symmetry_equiv_pos_site_id
_symmetry_equiv_pos_as_xyz
1 x,y,z
2 1/2+x,1/2+y,1/2+z
3 x,1/2+y,-z
4 -x,y,z
5 x,1/2-y,z
6 1/2+x,y,1/2-z
7 1/2-x,1/2+y,1/2+z
8 1/2+x,-y,1/2+z
9 -x,-y,-z
10 1/2-x,1/2-y,1/2-z
11 -x,1/2-y,z
12 x,-y,-z
13 -x,1/2+y,-z
14 1/2-x,-y,1/2+z
15 1/2+x,1/2-y,1/2-z
16 1/2-x,y,1/2-z
_cell_length_a                   7.458(2)
_cell_length_b                   7.1667(16)
_cell_length_c                   13.136(4)
_cell_angle_alpha                90
_cell_angle_beta                 90
_cell_angle_gamma                90
_cell_volume                     702.109
loop_
_atom_site_label
_atom_site_type_symbol
_atom_site_fract_x
_atom_site_fract_y
_atom_site_fract_z
Hg1 Hg 0.0000 0.5000 0.0000
Cl1 Cl 0.2378(3) 0.7500 -0.06964(13)
N1 N 0.0000 0.6569(6) 0.1623(4)
C1 C 0.0000 0.5666(9) 0.2496(5)
H1 H 0.0000 0.4369 0.2481
C2 C 0.0000 0.6552(10) 0.3437(5)
H2 H 0.0000 0.5875 0.4042
N1D N 0.0000 0.8431(6) 0.1623(4)
C1D C 0.0000 0.9334(9) 0.2496(5)
H1D H 0.0000 1.0631 0.2481
C2D C 0.0000 0.8448(10) 0.3437(5)
H2D H 0.0000 0.9125 0.4042
Cl1B Cl 0.2378(3) 0.2500 0.06964(13)
Cl1C Cl -0.2378(3) 0.7500 -0.06964(13)
Cl1H Cl -0.2378(3) 0.2500 0.06964(13)
N1H N 0.0000 0.3431(6) -0.1623(4)
Hg1B Hg 0.0000 1.0000 0.0000
Hg1B_2 Hg 0.0000 0.0000 0.0000
loop_
_geom_bond_atom_site_label_1
_geom_bond_atom_site_label_2
_geom_bond_site_symmetry_1
_geom_bond_site_symmetry_2
Hg1 Cl1 1_555 1_555
Cl1 Hg1B 1_555 1_555
N1 Hg1 1_555 1_555
C1 N1 1_555 1_555
H1 C1 1_555 1_555
C2 C1 1_555 1_555
H2 C2 1_555 1_555
N1D N1 1_555 1_555
C1D N1D 1_555 1_555
H1D C1D 1_555 1_555
C2D C2 1_555 1_555
H2D C2D 1_555 1_555
Cl1B Hg1 1_555 1_555
Cl1C Hg1 1_555 1_555
Cl1H Hg1 1_555 1_555
N1H Hg1 1_555 1_555
Hg1B N1D 1_555 1_555
Hg1B_2 Cl1B 1_555 1_555
C1D C2D 1_555 1_555
Cl1C Hg1B 1_555 1_555
Cl1H Hg1B_2 1_555 1_555

#END
