
#######################################################################
#
#                 Cambridge Crystallographic Data Centre
#                                CCDC 
#
#######################################################################
#
# If this CIF has been generated from an entry in the Cambridge 
# Structural Database, then it will include bibliographic, chemical, 
# crystal, experimental, refinement or atomic coordinate data resulting 
# from the CCDC's data processing and validation procedures.
#
#######################################################################

data_EWOSUF
_symmetry_cell_setting           monoclinic
_symmetry_space_group_name_H-M   'P 21/n'
_symmetry_Int_Tables_number      14
_space_group_name_Hall           '-P 2yn'
loop_
_symmetry_equiv_pos_site_id
_symmetry_equiv_pos_as_xyz
1 x,y,z
2 1/2-x,1/2+y,1/2-z
3 -x,-y,-z
4 1/2+x,1/2-y,1/2+z
_cell_length_a                   9.8885(11)
_cell_length_b                   10.9627(12)
_cell_length_c                   17.946(2)
_cell_angle_alpha                90
_cell_angle_beta                 91.271(1)
_cell_angle_gamma                90
_cell_volume                     1944.95
loop_
_atom_site_label
_atom_site_type_symbol
_atom_site_fract_x
_atom_site_fract_y
_atom_site_fract_z
Zn1 Zn 0.24943(4) 0.08262(4) 0.03817(2)
Zn2 Zn 0.26021(4) 0.36384(4) 0.33675(3)
O1 O 0.0793(3) 0.2044(3) 0.34441(18)
O2 O 0.1456(3) 0.3110(3) 0.24927(15)
O3 O 0.0910(2) 0.1316(2) 0.09819(14)
O4 O 0.0833(3) -0.0177(3) 0.18364(16)
O5 O -0.1537(3) -0.0086(3) 0.04937(16)
O6 O -0.3664(3) -0.0158(3) 0.08033(17)
O7 O 0.3405(3) -0.0357(3) 0.09921(18)
H1 H 0.4309 -0.0253 0.0928
N1 N 0.3640(3) 0.2354(3) 0.04746(17)
N2 N 1.1139(3) 0.7288(3) 0.1279(2)
C1 C -0.0719(4) 0.2134(3) 0.2421(2)
C2 C -0.0876(3) 0.1326(3) 0.18276(19)
C3 C -0.2193(3) 0.1050(3) 0.1558(2)
C4 C -0.3298(4) 0.1611(4) 0.1890(2)
H2 H -0.4169 0.1418 0.1721
C5 C -0.3128(4) 0.2439(4) 0.2459(2)
H3 H -0.3875 0.2828 0.2656
C6 C -0.1853(4) 0.2691(4) 0.2734(2)
H4 H -0.1739 0.3232 0.3129
C7 C 0.0619(4) 0.2410(4) 0.2807(2)
C8 C 0.0390(4) 0.0766(4) 0.1514(2)
C9 C -0.2490(4) 0.0215(4) 0.0916(2)
C10 C 0.3551(4) 0.3123(4) 0.1057(2)
H5 H 0.2793 0.3083 0.1354
C11 C 0.4534(4) 0.3960(4) 0.1229(2)
H6 H 0.4431 0.4475 0.1636
C12 C 0.5685(4) 0.4048(4) 0.0802(2)
C13 C 0.5747(4) 0.3292(4) 0.0197(2)
H7 H 0.6483 0.3335 -0.0116
C14 C 0.4721(4) 0.2466(4) 0.0049(2)
H8 H 0.4788 0.1964 -0.0367
C15 C 0.6811(4) 0.4912(4) 0.1015(3)
H9 H 0.6940 0.4896 0.1552
H10 H 0.6541 0.5733 0.0876
C16 C 0.8143(4) 0.4628(4) 0.0659(3)
H11 H 0.8436 0.3819 0.0811
H12 H 0.8016 0.4624 0.0121
C17 C 1.0276(4) 0.7480(4) 0.0714(3)
H13 H 1.0316 0.8214 0.0456
C18 C 0.9328(4) 0.6633(4) 0.0498(3)
H14 H 0.8745 0.6799 0.0097
C19 C 0.9226(4) 0.5537(4) 0.0869(3)
C20 C 1.0151(4) 0.5320(4) 0.1438(3)
H15 H 1.0151 0.4580 0.1692
C21 C 1.1085(4) 0.6218(4) 0.1628(3)
H16 H 1.1701 0.6066 0.2016
Zn1B Zn -0.24943(4) -0.08262(4) -0.03817(2)
Zn2A Zn 0.23979(4) -0.13616(4) 0.16325(3)
Zn2A_2 Zn 1.23979(4) 0.86384(4) 0.16325(3)
O4A O 0.4167(3) 0.4823(3) 0.31636(16)
O5B O 0.1537(3) 0.0086(3) -0.04937(16)
O7A O 0.1595(3) 0.4643(3) 0.40079(18)
H1A H 0.0691 0.4747 0.4072
N2A N 0.3861(3) 0.2288(3) 0.3721(2)
loop_
_geom_bond_atom_site_label_1
_geom_bond_atom_site_label_2
_geom_bond_site_symmetry_1
_geom_bond_site_symmetry_2
Zn1 O3 1_555 1_555
Zn2 O2 1_555 1_555
O1 C7 1_555 1_555
O2 C7 1_555 1_555
O3 C8 1_555 1_555
O4 C8 1_555 1_555
O5 C9 1_555 1_555
O6 C9 1_555 1_555
O7 Zn1 1_555 1_555
H1 O7 1_555 1_555
N1 Zn1 1_555 1_555
N2 C17 1_555 1_555
C1 C2 1_555 1_555
C2 C3 1_555 1_555
C3 C4 1_555 1_555
C4 H2 1_555 1_555
C5 C4 1_555 1_555
H3 C5 1_555 1_555
C6 C1 1_555 1_555
H4 C6 1_555 1_555
C7 C1 1_555 1_555
C8 C2 1_555 1_555
C9 C3 1_555 1_555
C10 N1 1_555 1_555
H5 C10 1_555 1_555
C11 C10 1_555 1_555
H6 C11 1_555 1_555
C12 C11 1_555 1_555
C13 C12 1_555 1_555
H7 C13 1_555 1_555
C14 N1 1_555 1_555
H8 C14 1_555 1_555
C15 C12 1_555 1_555
H9 C15 1_555 1_555
H10 C15 1_555 1_555
C16 C15 1_555 1_555
H11 C16 1_555 1_555
H12 C16 1_555 1_555
C17 H13 1_555 1_555
C18 C17 1_555 1_555
H14 C18 1_555 1_555
C19 C16 1_555 1_555
C20 C19 1_555 1_555
H15 C20 1_555 1_555
C21 N2 1_555 1_555
H16 C21 1_555 1_555
Zn1B O5 1_555 1_555
Zn2A O4 1_555 1_555
Zn2A_2 N2 1_555 1_555
O4A Zn2 1_555 1_555
O5B Zn1 1_555 1_555
O7A Zn2 1_555 1_555
H1A O7A 1_555 1_555
N2A Zn2 1_555 1_555
O7 Zn2A 1_555 1_555
C5 C6 1_555 1_555
C13 C14 1_555 1_555
C18 C19 1_555 1_555
C20 C21 1_555 1_555

#END
