
#######################################################################
#
#                 Cambridge Crystallographic Data Centre
#                                CCDC 
#
#######################################################################
#
# If this CIF has been generated from an entry in the Cambridge 
# Structural Database, then it will include bibliographic, chemical, 
# crystal, experimental, refinement or atomic coordinate data resulting 
# from the CCDC's data processing and validation procedures.
#
#######################################################################

data_EWOTAM
_symmetry_cell_setting           monoclinic
_symmetry_space_group_name_H-M   'C 2/c'
_symmetry_Int_Tables_number      15
_space_group_name_Hall           '-C 2yn'
loop_
_symmetry_equiv_pos_site_id
_symmetry_equiv_pos_as_xyz
1 x,y,z
2 -x,y,1/2-z
3 1/2+x,1/2+y,z
4 1/2-x,1/2+y,1/2-z
5 -x,-y,-z
6 x,-y,1/2+z
7 1/2-x,1/2-y,-z
8 1/2+x,1/2-y,1/2+z
_cell_length_a                   49.052(6)
_cell_length_b                   9.5736(11)
_cell_length_c                   20.209(2)
_cell_angle_alpha                90
_cell_angle_beta                 103.244(1)
_cell_angle_gamma                90
_cell_volume                     9237.82
loop_
_atom_site_label
_atom_site_type_symbol
_atom_site_fract_x
_atom_site_fract_y
_atom_site_fract_z
Co1 Co 0.114365(7) 0.12072(4) 0.138809(18)
Co2 Co 0.184087(8) 0.12767(4) 0.417409(18)
O1 O 0.21498(4) 0.0536(3) 0.36892(9)
O2 O 0.17692(4) 0.1360(2) 0.30416(9)
O3 O 0.15753(4) 0.20951(18) 0.16049(9)
O4 O 0.14890(4) -0.01624(19) 0.15751(9)
O5 O 0.17401(4) 0.0961(2) 0.03783(9)
O6 O 0.20119(4) -0.0762(2) 0.01640(9)
O7 O 0.12048(4) 0.1289(2) 0.24394(9)
H1 H 0.1373 0.1263 0.2614
H2 H 0.1113 0.0864 0.2679
O8 O 0.11825(4) 0.1321(2) 0.03846(9)
H3 H 0.1349 0.1330 0.0376
H4 H 0.1096 0.0752 0.0097
O9 O 0.14654(4) 0.2151(2) 0.42401(12)
H5 H 0.1365 0.1553 0.4353
H6 H 0.1458 0.2916 0.4415
O10 O 0.16148(4) -0.0658(2) 0.40223(10)
H7 H 0.1627 -0.1046 0.4389
H8 H 0.1447 -0.0482 0.3839
N1 N 0.08355(5) 0.2795(2) 0.12719(12)
N2 N 0.08059(5) 0.9780(2) 0.11522(12)
N3 N 0.20200(5) 0.3329(2) 0.43774(11)
C1 C 0.21190(6) 0.0387(3) 0.24987(13)
C2 C 0.19646(5) 0.0472(3) 0.18260(13)
C3 C 0.20860(6) 0.0017(3) 0.12972(13)
C4 C 0.23569(6) -0.0507(4) 0.14521(15)
H9 H 0.2436 -0.0816 0.1102
C5 C 0.25109(7) -0.0580(5) 0.21108(16)
H10 H 0.2693 -0.0929 0.2206
C6 C 0.23920(6) -0.0126(4) 0.26329(16)
H11 H 0.2496 -0.0164 0.3079
C7 C 0.20042(6) 0.0785(3) 0.31040(14)
C8 C 0.16592(5) 0.0851(3) 0.16612(12)
C9 C 0.19298(6) 0.0075(3) 0.05581(13)
C10 C 0.07512(6) 0.3538(3) 0.06977(16)
H12 H 0.0848 0.3431 0.0354
C11 C 0.05283(6) 0.4453(3) 0.05940(17)
H13 H 0.0478 0.4949 0.0189
C12 C 0.03788(6) 0.4636(3) 0.10894(16)
C13 C 0.04677(6) 0.3866(3) 0.16797(16)
H14 H 0.0376 0.3959 0.2032
C14 C 0.06893(6) 0.2972(3) 0.17487(15)
H15 H 0.0741 0.2459 0.2149
C15 C 0.01276(6) 0.5587(3) 0.10091(19)
H16 H 0.0116 0.5917 0.1456
H17 H -0.0040 0.5041 0.0830
C16 C 0.01259(6) 0.6851(3) 0.05499(18)
H18 H 0.0129 0.6523 0.0098
H19 H -0.0049 0.7353 0.0517
C17 C 0.06228(6) 0.9845(3) 0.05448(15)
H20 H 0.0645 1.0547 0.0243
C18 C 0.04052(6) 0.8923(3) 0.03505(16)
H21 H 0.0283 0.9015 -0.0074
C19 C 0.03662(6) 0.7862(3) 0.07803(16)
C20 C 0.05495(6) 0.7815(3) 0.14100(17)
H22 H 0.0529 0.7135 0.1723
C21 C 0.07629(7) 0.8779(3) 0.15730(16)
H23 H 0.0883 0.8727 0.2001
C22 C 0.19414(6) 0.4417(3) 0.39622(15)
H24 H 0.1815 0.4259 0.3550
C23 C 0.20373(7) 0.5758(3) 0.41122(17)
H25 H 0.1973 0.6480 0.3808
C24 C 0.22292(6) 0.6031(3) 0.47156(17)
C25 C 0.23092(6) 0.4907(3) 0.51428(16)
H26 H 0.2436 0.5036 0.5556
C26 C 0.22032(6) 0.3603(3) 0.49644(14)
H27 H 0.2261 0.2870 0.5266
C27 C 0.23462(7) 0.7464(4) 0.4905(2)
H28 H 0.2279 0.8086 0.4523
H29 H 0.2273 0.7804 0.5283
Co1_2 Co 0.114365(7) -0.87928(4) 0.138809(18)
Co1_3 Co 0.114365(7) 1.12072(4) 0.138809(18)
Co1E Co 0.114365(7) -0.12072(4) 0.638809(18)
Co2E Co 0.184087(8) -0.12767(4) -0.082591(18)
Co2F Co 0.315913(8) 1.37233(4) 0.582591(18)
Co2E_2 Co 0.184087(8) -0.12767(4) 0.917409(18)
O1E O 0.21498(4) -0.0536(3) 0.86892(9)
O1E_2 O 0.21498(4) -0.0536(3) -0.13108(9)
O2E O 0.17692(4) -0.1360(2) 0.80416(9)
O2E_2 O 0.17692(4) -0.1360(2) -0.19584(9)
O3E O 0.15753(4) -0.20951(18) 0.66049(9)
O3_2 O 0.15753(4) -0.79049(18) 0.16049(9)
O4E O 0.14890(4) 0.01624(19) 0.65751(9)
O4_2 O 0.14890(4) -1.01624(19) 0.15751(9)
O5E O 0.17401(4) -0.0961(2) 0.53783(9)
O6E O 0.20119(4) 0.0762(2) 0.51640(9)
O7_2 O 0.12048(4) -0.8711(2) 0.24394(9)
H1_2 H 0.1373 -0.8737 0.2614
H2_2 H 0.1113 -0.9136 0.2679
O8_2 O 0.11825(4) -0.8679(2) 0.03846(9)
H3_2 H 0.1349 -0.8670 0.0376
H4_2 H 0.1096 -0.9248 0.0097
O9E O 0.14654(4) -0.2151(2) -0.07599(12)
H5E H 0.1365 -0.1553 -0.0647
H6E H 0.1458 -0.2916 -0.0585
O10E O 0.16148(4) 0.0658(2) -0.09777(10)
H7E H 0.1627 0.1046 -0.0611
H8E H 0.1447 0.0482 -0.1161
N1_2 N 0.08355(5) -0.7205(2) 0.12719(12)
N2_2 N 0.08059(5) -0.0220(2) 0.11522(12)
N2_3 N 0.08059(5) -1.0220(2) 0.11522(12)
N3F N 0.29800(5) 1.1671(2) 0.56226(11)
N3E N 0.20200(5) -0.3329(2) -0.06226(11)
C1E C 0.21190(6) -0.0387(3) 0.74987(13)
C2E C 0.19646(5) -0.0472(3) 0.68260(13)
C3E C 0.20860(6) -0.0017(3) 0.62972(13)
C4E C 0.23569(6) 0.0507(4) 0.64521(15)
H9E H 0.2436 0.0816 0.6102
C5E C 0.25109(7) 0.0580(5) 0.71108(16)
H10E H 0.2693 0.0929 0.7206
C6E C 0.23920(6) 0.0126(4) 0.76329(16)
H11E H 0.2496 0.0164 0.8079
C7E C 0.20042(6) -0.0785(3) 0.81040(14)
C8E C 0.16592(5) -0.0851(3) 0.66612(12)
C9E C 0.19298(6) -0.0075(3) 0.55581(13)
C10_2 C 0.07512(6) -0.6462(3) 0.06977(16)
H12_2 H 0.0848 -0.6569 0.0354
C11_2 C 0.05283(6) -0.5547(3) 0.05940(17)
H13_2 H 0.0478 -0.5051 0.0189
C12_2 C 0.03788(6) -0.5364(3) 0.10894(16)
C13_2 C 0.04677(6) -0.6134(3) 0.16797(16)
H14_2 H 0.0376 -0.6041 0.2032
C14_2 C 0.06893(6) -0.7028(3) 0.17487(15)
H15_2 H 0.0741 -0.7541 0.2149
C15_2 C 0.01276(6) -0.4413(3) 0.10091(19)
H16_2 H 0.0116 -0.4083 0.1456
H17_2 H -0.0040 -0.4959 0.0830
C16_2 C 0.01259(6) -0.3149(3) 0.05499(18)
H18_2 H 0.0129 -0.3477 0.0098
H19_2 H -0.0049 -0.2647 0.0517
C17_2 C 0.06228(6) -0.0155(3) 0.05448(15)
H20_2 H 0.0645 0.0547 0.0243
C18_2 C 0.04052(6) -0.1077(3) 0.03505(16)
H21_2 H 0.0283 -0.0985 -0.0074
C19_2 C 0.03662(6) -0.2138(3) 0.07803(16)
C20_2 C 0.05495(6) -0.2185(3) 0.14100(17)
H22_2 H 0.0529 -0.2865 0.1723
C21_2 C 0.07629(7) -0.1221(3) 0.15730(16)
H23_2 H 0.0883 -0.1273 0.2001
C22F C 0.30586(6) 1.0583(3) 0.60378(15)
H24F H 0.3185 1.0741 0.6450
C23F C 0.29627(7) 0.9242(3) 0.58878(17)
H25F H 0.3027 0.8520 0.6192
C24F C 0.27708(6) 0.8969(3) 0.52844(17)
C25F C 0.26908(6) 1.0093(3) 0.48572(16)
H26F H 0.2564 0.9964 0.4444
C26F C 0.27968(6) 1.1397(3) 0.50356(14)
H27F H 0.2739 1.2130 0.4734
C27F C 0.26538(7) 0.7536(4) 0.5095(2)
H28F H 0.2721 0.6914 0.5477
H29F H 0.2727 0.7196 0.4717
Co3 Co 0.082611(8) 0.52338(4) 0.373199(18)
O11 O 0.04800(5) 0.6630(2) 0.31547(15)
O12 O 0.07907(5) 0.7391(2) 0.40281(11)
O13 O 0.10246(4) 0.98785(19) 0.33751(10)
O14 O 0.10163(4) 1.0716(2) 0.43977(10)
O15 O 0.07760(5) 1.3134(2) 0.34176(11)
O16 O 0.04951(5) 1.3857(2) 0.40369(13)
N4 N 0.11235(5) 0.4865(2) 0.46492(11)
N5 N 0.11084(5) 0.4361(2) 0.81120(11)
C28 C 0.04332(6) 0.8999(3) 0.35028(14)
C29 C 0.05814(5) 1.0259(3) 0.36344(13)
C30 C 0.04328(6) 1.1517(3) 0.36075(13)
C31 C 0.01420(6) 1.1506(3) 0.34659(15)
H30 H 0.0045 1.2340 0.3464
C32 C -0.00034(6) 1.0268(3) 0.33283(17)
H31 H -0.0198 1.0268 0.3230
C33 C 0.01413(6) 0.9023(3) 0.33367(16)
H32 H 0.0042 0.8193 0.3230
C34 C 0.05770(6) 0.7591(3) 0.35595(16)
C35 C 0.08988(6) 1.0278(3) 0.38155(14)
C36 C 0.05780(6) 1.2908(3) 0.36992(14)
C37 C 0.13444(7) 0.5731(3) 0.48031(15)
H33 H 0.1355 0.6451 0.4501
C38 C 0.15549(7) 0.5619(3) 0.53774(15)
H34 H 0.1702 0.6258 0.5458
C39 C 0.15492(6) 0.4560(3) 0.58368(14)
C40 C 0.13229(7) 0.3650(3) 0.56851(15)
H35 H 0.1311 0.2915 0.5978
C41 C 0.11142(6) 0.3835(3) 0.50964(14)
H36 H 0.0963 0.3224 0.5009
C42 C 0.17869(6) 0.4448(3) 0.64566(15)
H37 H 0.1823 0.5372 0.6654
H38 H 0.1953 0.4164 0.6309
C43 C 0.12002(7) 0.3067(3) 0.80350(15)
H39 H 0.1124 0.2332 0.8234
C44 C 0.13992(7) 0.2764(3) 0.76809(15)
H40 H 0.1456 0.1844 0.7651
C45 C 0.15165(6) 0.3813(3) 0.73680(13)
C46 C 0.14177(6) 0.5154(3) 0.74286(15)
H41 H 0.1484 0.5899 0.7216
C47 C 0.12206(6) 0.5380(3) 0.78050(15)
H42 H 0.1162 0.6293 0.7849
C48 C 0.17476(6) 0.3457(3) 0.70098(15)
H43 H 0.1711 0.2533 0.6812
H44 H 0.1923 0.3407 0.7349
Co3_2 Co 0.082611(8) -0.47662(4) 0.373199(18)
Co3_3 Co 0.082611(8) 1.52338(4) 0.373199(18)
Co3E Co 0.082611(8) 0.47662(4) 0.873199(18)
Co3E_2 Co 0.082611(8) 0.47662(4) -0.126801(18)
O11_2 O 0.04800(5) -0.3370(2) 0.31547(15)
O12_2 O 0.07907(5) -0.2609(2) 0.40281(11)
O13_2 O 0.10246(4) -0.01215(19) 0.33751(10)
O14_2 O 0.10163(4) 0.0716(2) 0.43977(10)
O15_2 O 0.07760(5) 0.3134(2) 0.34176(11)
O15_3 O 0.07760(5) -0.6866(2) 0.34176(11)
O16_2 O 0.04951(5) 0.3857(2) 0.40369(13)
O16_3 O 0.04951(5) -0.6143(2) 0.40369(13)
N4E N 0.11235(5) 0.5135(2) -0.03508(11)
N4_2 N 0.11235(5) -0.5135(2) 0.46492(11)
N5E N 0.11084(5) 0.5639(2) 0.31120(11)
N5E_2 N 0.11084(5) -0.4361(2) 0.31120(11)
C28_2 C 0.04332(6) -0.1001(3) 0.35028(14)
C29_2 C 0.05814(5) 0.0259(3) 0.36344(13)
C30_2 C 0.04328(6) 0.1517(3) 0.36075(13)
C31_2 C 0.01420(6) 0.1506(3) 0.34659(15)
H30_2 H 0.0045 0.2340 0.3464
C32_2 C -0.00034(6) 0.0268(3) 0.33283(17)
H31_2 H -0.0198 0.0268 0.3230
C33_2 C 0.01413(6) -0.0977(3) 0.33367(16)
H32_2 H 0.0042 -0.1807 0.3230
C34_2 C 0.05770(6) -0.2409(3) 0.35595(16)
C35_2 C 0.08988(6) 0.0278(3) 0.38155(14)
C36_2 C 0.05780(6) 0.2908(3) 0.36992(14)
C37E C 0.13444(7) 0.4269(3) -0.01969(15)
H33E H 0.1355 0.3549 -0.0499
C38E C 0.15549(7) 0.4381(3) 0.03774(15)
H34E H 0.1702 0.3742 0.0458
C39E C 0.15492(6) 0.5440(3) 0.08368(14)
C40E C 0.13229(7) 0.6350(3) 0.06851(15)
H35E H 0.1311 0.7085 0.0978
C41E C 0.11142(6) 0.6165(3) 0.00964(14)
H36E H 0.0963 0.6776 0.0009
C42E C 0.17869(6) 0.5552(3) 0.14566(15)
H37E H 0.1823 0.4628 0.1654
H38E H 0.1953 0.5836 0.1309
C43E C 0.12002(7) 0.6933(3) 0.30350(15)
H39E H 0.1124 0.7668 0.3234
C44E C 0.13992(7) 0.7236(3) 0.26809(15)
H40E H 0.1456 0.8156 0.2651
C45E C 0.15165(6) 0.6187(3) 0.23680(13)
C46E C 0.14177(6) 0.4846(3) 0.24286(15)
H41E H 0.1484 0.4101 0.2216
C47E C 0.12206(6) 0.4620(3) 0.28050(15)
H42E H 0.1162 0.3707 0.2849
C48E C 0.17476(6) 0.6543(3) 0.20098(15)
H43E H 0.1711 0.7467 0.1812
H44E H 0.1923 0.6593 0.2349
O17 O 0.0000 0.4991(9) 0.2500
H45 H -0.0142 0.5469 0.2307
H45A H 0.0142 0.5469 0.2693
loop_
_geom_bond_atom_site_label_1
_geom_bond_atom_site_label_2
_geom_bond_site_symmetry_1
_geom_bond_site_symmetry_2
Co1 O3 1_555 1_555
Co2 O1 1_555 1_555
Co3 O11 1_555 1_555
O1 C7 1_555 1_555
O2 Co2 1_555 1_555
O3 C8 1_555 1_555
O4 Co1 1_555 1_555
O5 C9 1_555 1_555
O6 C9 1_555 1_555
O7 Co1 1_555 1_555
H1 O7 1_555 1_555
H2 O7 1_555 1_555
O8 Co1 1_555 1_555
H3 O8 1_555 1_555
H4 O8 1_555 1_555
O9 Co2 1_555 1_555
H5 O9 1_555 1_555
H6 O9 1_555 1_555
O10 Co2 1_555 1_555
H7 O10 1_555 1_555
H8 O10 1_555 1_555
O11 C34 1_555 1_555
O12 Co3 1_555 1_555
O13 C35 1_555 1_555
O14 C35 1_555 1_555
O15 C36 1_555 1_555
O16 C36 1_555 1_555
N1 Co1 1_555 1_555
N2 C17 1_555 1_555
N3 Co2 1_555 1_555
N4 Co3 1_555 1_555
N5 C43 1_555 1_555
C1 C2 1_555 1_555
C2 C3 1_555 1_555
C3 C4 1_555 1_555
C4 H9 1_555 1_555
C5 C4 1_555 1_555
H10 C5 1_555 1_555
C6 C1 1_555 1_555
H11 C6 1_555 1_555
C7 O2 1_555 1_555
C8 O4 1_555 1_555
C9 C3 1_555 1_555
C10 N1 1_555 1_555
H12 C10 1_555 1_555
C11 C10 1_555 1_555
H13 C11 1_555 1_555
C12 C11 1_555 1_555
C13 C12 1_555 1_555
H14 C13 1_555 1_555
C14 N1 1_555 1_555
H15 C14 1_555 1_555
C15 C12 1_555 1_555
H16 C15 1_555 1_555
H17 C15 1_555 1_555
C16 C15 1_555 1_555
H18 C16 1_555 1_555
H19 C16 1_555 1_555
C17 H20 1_555 1_555
C18 C17 1_555 1_555
H21 C18 1_555 1_555
C19 C16 1_555 1_555
C20 C19 1_555 1_555
H22 C20 1_555 1_555
C21 N2 1_555 1_555
H23 C21 1_555 1_555
C22 N3 1_555 1_555
H24 C22 1_555 1_555
C23 C22 1_555 1_555
H25 C23 1_555 1_555
C24 C23 1_555 1_555
C25 C24 1_555 1_555
H26 C25 1_555 1_555
C26 N3 1_555 1_555
H27 C26 1_555 1_555
C27 C24 1_555 1_555
H28 C27 1_555 1_555
H29 C27 1_555 1_555
C28 C29 1_555 1_555
C29 C30 1_555 1_555
C30 C31 1_555 1_555
C31 H30 1_555 1_555
C32 C31 1_555 1_555
H31 C32 1_555 1_555
C33 C28 1_555 1_555
H32 C33 1_555 1_555
C34 O12 1_555 1_555
C35 C29 1_555 1_555
C36 C30 1_555 1_555
C37 N4 1_555 1_555
H33 C37 1_555 1_555
C38 C37 1_555 1_555
H34 C38 1_555 1_555
C39 C38 1_555 1_555
C40 C39 1_555 1_555
H35 C40 1_555 1_555
C41 N4 1_555 1_555
H36 C41 1_555 1_555
C42 C39 1_555 1_555
H37 C42 1_555 1_555
H38 C42 1_555 1_555
C43 H39 1_555 1_555
C44 C43 1_555 1_555
H40 C44 1_555 1_555
C45 C44 1_555 1_555
C46 C45 1_555 1_555
H41 C46 1_555 1_555
C47 N5 1_555 1_555
H42 C47 1_555 1_555
C48 C42 1_555 1_555
H43 C48 1_555 1_555
H44 C48 1_555 1_555
O17 H45 1_555 1_555
Co1_2 O3_2 1_555 1_555
Co1_3 N2 1_555 1_555
Co1E O3E 1_555 1_555
Co2E O6 1_555 1_555
Co2F N3F 1_555 1_555
Co2E_2 O1E 1_555 1_555
Co3_2 O11_2 1_555 1_555
Co3_3 O15 1_555 1_555
Co3E N5 1_555 1_555
Co3E_2 N4E 1_555 1_555
O1E C7E 1_555 1_555
O1E_2 Co2E 1_555 1_555
O2E Co2E_2 1_555 1_555
O2E_2 Co2E 1_555 1_555
O3E C8E 1_555 1_555
O4E Co1E 1_555 1_555
O4_2 Co1_2 1_555 1_555
O5E C9E 1_555 1_555
O6E Co2 1_555 1_555
O7_2 Co1_2 1_555 1_555
H1_2 O7_2 1_555 1_555
H2_2 O7_2 1_555 1_555
O8_2 Co1_2 1_555 1_555
H3_2 O8_2 1_555 1_555
H4_2 O8_2 1_555 1_555
O9E Co2E 1_555 1_555
H5E O9E 1_555 1_555
H6E O9E 1_555 1_555
O10E Co2E 1_555 1_555
H7E O10E 1_555 1_555
H8E O10E 1_555 1_555
O11_2 C34_2 1_555 1_555
O12_2 Co3_2 1_555 1_555
O13_2 C35_2 1_555 1_555
O14_2 C35_2 1_555 1_555
O15_2 Co3 1_555 1_555
O15_3 Co3_2 1_555 1_555
O16_2 Co3 1_555 1_555
O16_3 Co3_2 1_555 1_555
N1_2 Co1_2 1_555 1_555
N2_2 Co1 1_555 1_555
N2_3 Co1_2 1_555 1_555
N3F C22F 1_555 1_555
N3E Co2E 1_555 1_555
N4E C37E 1_555 1_555
N4_2 Co3_2 1_555 1_555
N5E Co3 1_555 1_555
N5E_2 Co3_2 1_555 1_555
C1E C2E 1_555 1_555
C2E C3E 1_555 1_555
C3E C4E 1_555 1_555
C4E H9E 1_555 1_555
C5E C4E 1_555 1_555
H10E C5E 1_555 1_555
C6E C1E 1_555 1_555
H11E C6E 1_555 1_555
C7E O2E 1_555 1_555
C8E O4E 1_555 1_555
C9E O6E 1_555 1_555
C10_2 N1_2 1_555 1_555
H12_2 C10_2 1_555 1_555
C11_2 C10_2 1_555 1_555
H13_2 C11_2 1_555 1_555
C12_2 C11_2 1_555 1_555
C13_2 C12_2 1_555 1_555
H14_2 C13_2 1_555 1_555
C14_2 N1_2 1_555 1_555
H15_2 C14_2 1_555 1_555
C15_2 C12_2 1_555 1_555
H16_2 C15_2 1_555 1_555
H17_2 C15_2 1_555 1_555
C16_2 C15_2 1_555 1_555
H18_2 C16_2 1_555 1_555
H19_2 C16_2 1_555 1_555
C17_2 N2_2 1_555 1_555
H20_2 C17_2 1_555 1_555
C18_2 C17_2 1_555 1_555
H21_2 C18_2 1_555 1_555
C19_2 C16_2 1_555 1_555
C20_2 C19_2 1_555 1_555
H22_2 C20_2 1_555 1_555
C21_2 N2_2 1_555 1_555
H23_2 C21_2 1_555 1_555
C22F H24F 1_555 1_555
C23F C22F 1_555 1_555
H25F C23F 1_555 1_555
C24F C23F 1_555 1_555
C25F C24F 1_555 1_555
H26F C25F 1_555 1_555
C26F N3F 1_555 1_555
H27F C26F 1_555 1_555
C27F C27 1_555 1_555
H28F C27F 1_555 1_555
H29F C27F 1_555 1_555
C28_2 C29_2 1_555 1_555
C29_2 C30_2 1_555 1_555
C30_2 C31_2 1_555 1_555
C31_2 H30_2 1_555 1_555
C32_2 C31_2 1_555 1_555
H31_2 C32_2 1_555 1_555
C33_2 C28_2 1_555 1_555
H32_2 C33_2 1_555 1_555
C34_2 O12_2 1_555 1_555
C35_2 C29_2 1_555 1_555
C36_2 O15_2 1_555 1_555
C37E H33E 1_555 1_555
C38E C37E 1_555 1_555
H34E C38E 1_555 1_555
C39E C38E 1_555 1_555
C40E C39E 1_555 1_555
H35E C40E 1_555 1_555
C41E N4E 1_555 1_555
H36E C41E 1_555 1_555
C42E C39E 1_555 1_555
H37E C42E 1_555 1_555
H38E C42E 1_555 1_555
C43E N5E 1_555 1_555
H39E C43E 1_555 1_555
C44E C43E 1_555 1_555
H40E C44E 1_555 1_555
C45E C44E 1_555 1_555
C46E C45E 1_555 1_555
H41E C46E 1_555 1_555
C47E N5E 1_555 1_555
H42E C47E 1_555 1_555
C48E C42E 1_555 1_555
H43E C48E 1_555 1_555
H44E C48E 1_555 1_555
H45A O17 1_555 1_555
O16 Co3_3 1_555 1_555
C1 C7 1_555 1_555
C2 C8 1_555 1_555
C5 C6 1_555 1_555
C13 C14 1_555 1_555
C18 C19 1_555 1_555
C20 C21 1_555 1_555
C25 C26 1_555 1_555
C28 C34 1_555 1_555
C32 C33 1_555 1_555
C40 C41 1_555 1_555
C45 C48 1_555 1_555
C46 C47 1_555 1_555
O16_2 C36_2 1_555 1_555
C1E C7E 1_555 1_555
C2E C8E 1_555 1_555
C3E C9E 1_555 1_555
C5E C6E 1_555 1_555
C13_2 C14_2 1_555 1_555
C18_2 C19_2 1_555 1_555
C20_2 C21_2 1_555 1_555
C24F C27F 1_555 1_555
C25F C26F 1_555 1_555
C28_2 C34_2 1_555 1_555
C30_2 C36_2 1_555 1_555
C32_2 C33_2 1_555 1_555
C40E C41E 1_555 1_555
C45E C48E 1_555 1_555
C46E C47E 1_555 1_555

#END
