
#######################################################################
#
#                 Cambridge Crystallographic Data Centre
#                                CCDC 
#
#######################################################################
#
# If this CIF has been generated from an entry in the Cambridge 
# Structural Database, then it will include bibliographic, chemical, 
# crystal, experimental, refinement or atomic coordinate data resulting 
# from the CCDC's data processing and validation procedures.
#
#######################################################################

data_EWUBAA
_symmetry_cell_setting           orthorhombic
_symmetry_space_group_name_H-M   'P 21 21 21'
_symmetry_Int_Tables_number      19
_space_group_name_Hall           'P 2ac 2ab'
loop_
_symmetry_equiv_pos_site_id
_symmetry_equiv_pos_as_xyz
1 x,y,z
2 1/2-x,-y,1/2+z
3 1/2+x,1/2-y,-z
4 -x,1/2+y,1/2-z
_cell_length_a                   7.2960(3)
_cell_length_b                   13.0393(5)
_cell_length_c                   19.6554(6)
_cell_angle_alpha                90
_cell_angle_beta                 90
_cell_angle_gamma                90
_cell_volume                     1869.91
loop_
_atom_site_label
_atom_site_type_symbol
_atom_site_fract_x
_atom_site_fract_y
_atom_site_fract_z
N1 N -0.5164(5) -0.2876(3) -0.12051(16)
C1 C -0.5363(7) -0.1881(3) -0.1037(2)
C2 C -0.3750(6) -0.1295(3) -0.0779(2)
H1 H -0.4173 -0.0764 -0.0470
H2 H -0.3143 -0.0962 -0.1158
C3 C -0.2390(6) -0.1971(3) -0.0413(2)
H3 H -0.2938 -0.2247 -0.0002
H4 H -0.1318 -0.1575 -0.0285
C4 C -0.1835(7) -0.2845(3) -0.0887(2)
H5 H -0.1262 -0.2561 -0.1291
H6 H -0.0942 -0.3276 -0.0660
C5 C -0.3475(6) -0.3494(3) -0.10971(19)
H7 H -0.3728 -0.3965 -0.0720
C6 C -0.3093(6) -0.4158(3) -0.17275(18)
H8 H -0.2074 -0.4621 -0.1621
C7 C -0.4744(6) -0.4793(4) -0.1874(2)
H9 H -0.5060 -0.5200 -0.1478
H10 H -0.4496 -0.5255 -0.2250
C8 C -0.6322(6) -0.4082(3) -0.2055(2)
H11 H -0.7395 -0.4494 -0.2178
C9 C -0.6754(6) -0.3464(3) -0.1422(2)
H12 H -0.7764 -0.3001 -0.1515
H13 H -0.7126 -0.3923 -0.1059
C10 C -0.5851(6) -0.3357(3) -0.2652(2)
H14 H -0.5835 -0.2660 -0.2465
C11 C -0.7217(7) -0.3354(4) -0.3222(2)
H15 H -0.8417 -0.3192 -0.3039
H16 H -0.7278 -0.4036 -0.3418
C12 C -0.6756(8) -0.2594(4) -0.3777(3)
H17 H -0.7600 -0.2683 -0.4154
H18 H -0.6905 -0.1902 -0.3604
C13 C -0.4815(8) -0.2732(4) -0.4029(2)
H19 H -0.4511 -0.2178 -0.4338
H20 H -0.4727 -0.3372 -0.4279
C14 C -0.3452(7) -0.2744(3) -0.3448(2)
H21 H -0.2233 -0.2875 -0.3625
H22 H -0.3440 -0.2078 -0.3228
N2 N -0.3941(5) -0.3558(3) -0.29326(17)
C15 C -0.2561(6) -0.3520(3) -0.23627(19)
H23 H -0.2397 -0.2811 -0.2226
H24 H -0.1393 -0.3766 -0.2533
O1 O -0.6903(5) -0.1480(2) -0.10894(14)
Zn1 Zn -0.18203(7) -0.52222(4) -0.36148(2)
Cl1 Cl -0.05557(18) -0.44740(10) -0.45216(6)
Cl2 Cl -0.00117(18) -0.58649(10) -0.27912(6)
O2 O -0.3964(4) -0.4524(2) -0.32530(13)
O1C O -0.3097(5) -0.6480(2) -0.39106(14)
Zn1C Zn -0.81797(7) -0.02222(4) -0.13852(2)
C16 C -0.9180(17) -1.0352(12) -0.4471(7)
O3 O -1.0679(11) -1.0991(5) -0.4315(4)
O4? O -0.972(3) -1.0217(19) -0.4573(12)
C17? C -1.164(3) -1.052(2) -0.4491(14)
loop_
_geom_bond_atom_site_label_1
_geom_bond_atom_site_label_2
_geom_bond_site_symmetry_1
_geom_bond_site_symmetry_2
N1 C1 1_555 1_555
C1 C2 1_555 1_555
C2 H1 1_555 1_555
H2 C2 1_555 1_555
C3 C2 1_555 1_555
H3 C3 1_555 1_555
H4 C3 1_555 1_555
C4 C3 1_555 1_555
H5 C4 1_555 1_555
H6 C4 1_555 1_555
C5 N1 1_555 1_555
H7 C5 1_555 1_555
C6 C5 1_555 1_555
H8 C6 1_555 1_555
C7 C6 1_555 1_555
H9 C7 1_555 1_555
H10 C7 1_555 1_555
C8 C7 1_555 1_555
H11 C8 1_555 1_555
C9 N1 1_555 1_555
H12 C9 1_555 1_555
H13 C9 1_555 1_555
C10 C8 1_555 1_555
H14 C10 1_555 1_555
C11 C10 1_555 1_555
H15 C11 1_555 1_555
H16 C11 1_555 1_555
C12 C11 1_555 1_555
H17 C12 1_555 1_555
H18 C12 1_555 1_555
C13 C12 1_555 1_555
H19 C13 1_555 1_555
H20 C13 1_555 1_555
C14 C13 1_555 1_555
H21 C14 1_555 1_555
H22 C14 1_555 1_555
N2 C10 1_555 1_555
C15 C6 1_555 1_555
H23 C15 1_555 1_555
H24 C15 1_555 1_555
O1 C1 1_555 1_555
Zn1 Cl1 1_555 1_555
Cl2 Zn1 1_555 1_555
O2 N2 1_555 1_555
C16 O3 1_555 1_555
O1C Zn1 1_555 1_555
Zn1C O1 1_555 1_555
C4 C5 1_555 1_555
C8 C9 1_555 1_555
C14 N2 1_555 1_555
N2 C15 1_555 1_555
Zn1 O2 1_555 1_555

#END
