
#######################################################################
#
#                 Cambridge Crystallographic Data Centre
#                                CCDC 
#
#######################################################################
#
# If this CIF has been generated from an entry in the Cambridge 
# Structural Database, then it will include bibliographic, chemical, 
# crystal, experimental, refinement or atomic coordinate data resulting 
# from the CCDC's data processing and validation procedures.
#
#######################################################################

data_EWUGIN
_symmetry_cell_setting           triclinic
_symmetry_space_group_name_H-M   'P -1'
_symmetry_Int_Tables_number      2
_space_group_name_Hall           '-P 1'
loop_
_symmetry_equiv_pos_site_id
_symmetry_equiv_pos_as_xyz
1 x,y,z
2 -x,-y,-z
_cell_length_a                   11.688
_cell_length_b                   16.063
_cell_length_c                   17.105
_cell_angle_alpha                75.19
_cell_angle_beta                 70.36
_cell_angle_gamma                76.96
_cell_volume                     2889.43
loop_
_atom_site_label
_atom_site_type_symbol
_atom_site_fract_x
_atom_site_fract_y
_atom_site_fract_z
C1 C 0.5967(6) 0.3777(4) 0.4998(4)
C2 C 0.6647(6) 0.3092(4) 0.4962(4)
C3 C 0.7434(6) 0.2271(4) 0.4972(4)
C4 C 0.8677(6) 0.2090(4) 0.4998(4)
H1 H 0.9139 0.250 0.498
C5 C 0.9089(7) 0.1178(4) 0.5057(5)
H2 H 0.9858 0.0887 0.5096
C6 C 0.8124(6) 0.0794(4) 0.5045(4)
H3 H 0.8147 0.0205 0.5071
C7 C 0.7113(6) 0.1460(4) 0.4985(4)
H4 H 0.6363 0.1381 0.4958
C8 C 0.8537(9) 0.2571(6) 0.2896(5)
H5 H 0.8091 0.313 0.2869
C9 C 0.9775(9) 0.2321(7) 0.2934(5)
H6 H 1.0281 0.2693 0.2934
C10 C 1.0094(8) 0.1420(7) 0.2973(6)
H7 H 1.0844 0.1088 0.3007
C11 C 0.9074(8) 0.1106(6) 0.2952(5)
H8 H 0.9039 0.0529 0.2965
C12 C 0.8124(9) 0.1808(7) 0.2907(5)
H9 H 0.735 0.1776 0.2888
C13 C 0.9119(5) 0.6227(4) 0.4763(4)
C14 C 0.8524(6) 0.6924(4) 0.4595(4)
C15 C 0.7841(6) 0.7760(4) 0.4398(4)
C16 C 0.6602(6) 0.7948(4) 0.4326(4)
H10 H 0.6114 0.7539 0.4383
C17 C 0.6267(6) 0.8871(4) 0.4152(4)
H11 H 0.5519 0.9167 0.4076
C18 C 0.7261(6) 0.9267(4) 0.4114(4)
H12 H 0.7281 0.9861 0.401
C19 C 0.8213(6) 0.8589(4) 0.4264(4)
H13 H 0.8972 0.8668 0.4275
C20 C 0.6654(7) 0.7671(4) 0.6402(4)
H14 H 0.7063 0.7102 0.648
C21 C 0.5452(7) 0.7922(4) 0.6329(4)
H15 H 0.4933 0.755 0.635
C22 C 0.5174(6) 0.8850(4) 0.6219(4)
H16 H 0.444 0.919 0.6156
C23 C 0.6220(7) 0.9163(4) 0.6222(4)
H17 H 0.629 0.9743 0.6161
C24 C 0.7139(7) 0.8429(5) 0.6336(4)
H18 H 0.7916 0.8445 0.6362
C25 C 0.5255(5) 0.5149(4) 0.3711(4)
C26 C 0.5879(6) 0.5765(4) 0.3100(4)
C27 C 0.6121(7) 0.5827(4) 0.2243(4)
C28 C 0.5726(7) 0.5243(4) 0.1967(4)
C29 C 0.5091(7) 0.4621(4) 0.2538(4)
C30 C 0.4841(6) 0.4600(4) 0.3388(4)
C31 C 0.8927(5) 0.4846(4) 0.6248(4)
C32 C 0.8195(6) 0.4197(4) 0.6643(4)
C33 C 0.7508(6) 0.4074(5) 0.7471(5)
C34 C 0.7499(7) 0.4619(5) 0.7967(5)
C35 C 0.8204(8) 0.5275(5) 0.7614(5)
C36 C 0.8896(7) 0.5374(4) 0.6778(5)
F1 F 0.6331(3) 0.6348(2) 0.3330(2)
F2 F 0.6730(4) 0.6456(3) 0.1675(3)
F3 F 0.5956(5) 0.5288(3) 0.1132(3)
F4 F 0.4693(4) 0.4050(2) 0.2276(2)
F5 F 0.4149(3) 0.3994(2) 0.3931(2)
F6 F 0.8100(3) 0.3645(2) 0.6186(2)
F7 F 0.6811(4) 0.3424(3) 0.7817(3)
F8 F 0.6821(5) 0.4529(4) 0.8789(3)
F9 F 0.8193(5) 0.5851(4) 0.8086(3)
F10 F 0.9598(4) 0.6028(2) 0.6487(3)
Fe1 Fe 0.86044(9) 0.17004(6) 0.39729(6)
Fe2 Fe 0.66755(8) 0.84802(5) 0.52709(6)
Pt1 Pt 0.50000 0.50000 0.50000
Pt2 Pt 1.00000 0.50000 0.50000
Tl1 Tl 0.77382(2) 0.498572(16) 0.454238(18)
C1A C 0.4033(6) 0.6223(4) 0.5002(4)
C2A C 0.3353(6) 0.6908(4) 0.5038(4)
C3A C 0.2566(6) 0.7729(4) 0.5028(4)
C4A C 0.1323(6) 0.7910(4) 0.5002(4)
H1A H 0.0861 0.750 0.502
C5A C 0.0911(7) 0.8822(4) 0.4943(5)
H2A H 0.0142 0.9113 0.4904
C6A C 0.1876(6) 0.9206(4) 0.4955(4)
H3A H 0.1853 0.9795 0.4929
C7A C 0.2887(6) 0.8540(4) 0.5015(4)
H4A H 0.3637 0.8619 0.5042
C8A C 0.1463(9) 0.7429(6) 0.7104(5)
H5A H 0.1909 0.687 0.7131
C9A C 0.0225(9) 0.7679(7) 0.7066(5)
H6A H -0.0281 0.7307 0.7066
C10A C -0.0094(8) 0.8580(7) 0.7027(6)
H7A H -0.0844 0.8912 0.6993
C11A C 0.0926(8) 0.8894(6) 0.7048(5)
H8A H 0.0961 0.9471 0.7035
C12A C 0.1876(9) 0.8192(7) 0.7093(5)
H9A H 0.265 0.8224 0.7112
C13A C 0.0881(5) 0.3773(4) 0.5237(4)
C13A_2 C 1.0881(5) 0.3773(4) 0.5237(4)
C14A C 0.1476(6) 0.3076(4) 0.5405(4)
C15A C 0.2159(6) 0.2240(4) 0.5602(4)
C16A C 0.3398(6) 0.2052(4) 0.5674(4)
H10A H 0.3886 0.2461 0.5617
C17A C 0.3733(6) 0.1129(4) 0.5848(4)
H11A H 0.4481 0.0833 0.5924
C18A C 0.2739(6) 0.0733(4) 0.5886(4)
H12A H 0.2719 0.0139 0.599
C19A C 0.1787(6) 0.1411(4) 0.5736(4)
H13A H 0.1028 0.1332 0.5725
C20A C 0.3346(7) 0.2329(4) 0.3598(4)
H14A H 0.2937 0.2898 0.352
C21A C 0.4548(7) 0.2078(4) 0.3671(4)
H15A H 0.5067 0.245 0.365
C22A C 0.4826(6) 0.1150(4) 0.3781(4)
H16A H 0.556 0.081 0.3844
C23A C 0.3780(7) 0.0837(4) 0.3778(4)
H17A H 0.371 0.0257 0.3839
C24A C 0.2861(7) 0.1571(5) 0.3664(4)
H18A H 0.2084 0.1555 0.3638
C25A C 0.4745(5) 0.4851(4) 0.6289(4)
C26A C 0.4121(6) 0.4235(4) 0.6900(4)
C27A C 0.3879(7) 0.4173(4) 0.7757(4)
C28A C 0.4274(7) 0.4757(4) 0.8033(4)
C29A C 0.4909(7) 0.5379(4) 0.7462(4)
C30A C 0.5159(6) 0.5400(4) 0.6612(4)
C31A C 0.1073(5) 0.5154(4) 0.3752(4)
C31A_2 C 1.1073(5) 0.5154(4) 0.3752(4)
C32A C 0.1805(6) 0.5803(4) 0.3357(4)
C33A C 0.2492(6) 0.5926(5) 0.2529(5)
C34A C 0.2501(7) 0.5381(5) 0.2033(5)
C35A C 0.1796(8) 0.4725(5) 0.2386(5)
C36A C 0.1104(7) 0.4626(4) 0.3222(5)
F1A F 0.3669(3) 0.3652(2) 0.6670(2)
F2A F 0.3270(4) 0.3544(3) 0.8325(3)
F3A F 0.4044(5) 0.4712(3) 0.8868(3)
F4A F 0.5307(4) 0.5950(2) 0.7724(2)
F5A F 0.5851(3) 0.6006(2) 0.6069(2)
F6A F 0.1900(3) 0.6355(2) 0.3814(2)
F7A F 0.3189(4) 0.6576(3) 0.2183(3)
F8A F 0.3179(5) 0.5471(4) 0.1211(3)
F9A F 0.1807(5) 0.4149(4) 0.1914(3)
F10A F 0.0402(4) 0.3972(2) 0.3513(3)
Fe1A Fe 0.13956(9) 0.82996(6) 0.60271(6)
Fe2A Fe 0.33245(8) 0.15198(5) 0.47291(6)
Pt2_2 Pt 0.00000 0.50000 0.50000
Tl1A Tl 0.22618(2) 0.501428(16) 0.545762(18)
Tl1A_2 Tl 1.22618(2) 0.501428(16) 0.545762(18)
C37 C 0.6963(7) 0.0318(5) 0.1985(4)
H19 H 0.7351 -0.0244 0.2208
H20 H 0.6382 0.0573 0.2442
H21 H 0.7576 0.0688 0.1678
C38 C 0.5455(6) 0.1261(4) 0.0890(4)
C39 C 0.4723(7) 0.1774(4) 0.1461(5)
H22 H 0.4609 0.1565 0.2037
C40 C 0.4153(8) 0.2601(5) 0.1181(6)
H23 H 0.3655 0.2948 0.1564
C41 C 0.4340(8) 0.2901(5) 0.0314(6)
H24 H 0.3961 0.3454 0.0121
C42 C 0.5072(7) 0.2397(5) -0.0261(5)
H25 H 0.5196 0.261 -0.0837
C43 C 0.5628(7) 0.1566(5) 0.0025(4)
H26 H 0.6113 0.1215 -0.0359
C44 C 0.7259(6) -0.0282(4) 0.0440(4)
C45 C 0.8300(7) 0.0106(5) -0.0052(4)
H27 H 0.8421 0.0616 0.005
C46 C 0.9156(7) -0.0289(6) -0.0700(5)
H28 H 0.9854 -0.0041 -0.103
C47 C 0.8970(8) -0.1043(6) -0.0852(5)
H29 H 0.9547 -0.1302 -0.1282
C48 C 0.7957(9) -0.1409(6) -0.0382(5)
H30 H 0.7844 -0.1917 -0.0494
C49 C 0.7077(7) -0.1036(5) 0.0272(4)
H31 H 0.6379 -0.129 0.059
C50 C 0.5025(6) -0.0478(4) 0.1870(4)
C51 C 0.5321(7) -0.1269(4) 0.2396(4)
H32 H 0.612 -0.1446 0.2431
C52 C 0.4429(7) -0.1784(4) 0.2859(4)
H33 H 0.4627 -0.2306 0.3209
C53 C 0.3246(7) -0.1529(5) 0.2808(5)
H34 H 0.2646 -0.1877 0.3129
C54 C 0.2947(7) -0.0759(5) 0.2282(5)
H35 H 0.2149 -0.0591 0.2244
C55 C 0.3838(6) -0.0236(4) 0.1810(4)
H36 H 0.3638 0.0279 0.1451
P1 P 0.61787(16) 0.02009(11) 0.12865(10)
C56 C 0.8700(18) 0.2840(12) -0.0333(12)
H37 H 0.9321 0.3156 -0.0356
H38 H 0.8184 0.32 -0.0663
H39 H 0.9085 0.2322 -0.0558
C57 C 0.8035(10) 0.2627(6) 0.0453(7)
C58 C 0.7206(10) 0.3306(7) 0.0881(7)
H40 H 0.6757 0.3047 0.144
H41 H 0.6641 0.3611 0.0567
H42 H 0.7674 0.3707 0.0917
O1 O 0.8176(8) 0.1888(5) 0.0800(7)
C59 C -0.0832(18) 0.4832(11) 0.1465(14)
H43 H -0.1133 0.5445 0.1355
H44 H -0.0632 0.4676 0.1989
H45 H -0.1454 0.451 0.1501
C60 C 0.0617(17) 0.3718(11) 0.0597(14)
H46 H 0.1275 0.3714 0.0077
H47 H -0.0079 0.3537 0.0545
H48 H 0.0883 0.3324 0.1051
O2 O 0.0994(15) 0.5172(10) 0.0375(12)
C64 C 0.026(2) 0.4627(14) 0.0781(17)
C61 C 1.0385(7) 0.8004(5) 0.2495(6)
H49 H 1.1146 0.7862 0.2076
H50 H 1.0386 0.7628 0.303
H51 H 1.0293 0.8599 0.2545
C62 C 0.9333(7) 0.7885(5) 0.2234(5)
C63 C 0.9102(8) 0.6968(5) 0.2393(5)
H52 H 0.8803 0.6756 0.2992
H53 H 0.9855 0.6607 0.216
H54 H 0.8502 0.6954 0.213
O3 O 0.8704(6) 0.8497(4) 0.1933(4)
loop_
_geom_bond_atom_site_label_1
_geom_bond_atom_site_label_2
_geom_bond_site_symmetry_1
_geom_bond_site_symmetry_2
C1 C2 1_555 1_555
C2 C3 1_555 1_555
C3 C4 1_555 1_555
C4 H1 1_555 1_555
C5 C4 1_555 1_555
H2 C5 1_555 1_555
C6 C5 1_555 1_555
H3 C6 1_555 1_555
C7 C3 1_555 1_555
H4 C7 1_555 1_555
C8 H5 1_555 1_555
C9 C8 1_555 1_555
H6 C9 1_555 1_555
C10 C9 1_555 1_555
H7 C10 1_555 1_555
C11 C10 1_555 1_555
H8 C11 1_555 1_555
C12 C8 1_555 1_555
H9 C12 1_555 1_555
C13 C14 1_555 1_555
C14 C15 1_555 1_555
C15 C16 1_555 1_555
C16 H10 1_555 1_555
C17 C16 1_555 1_555
H11 C17 1_555 1_555
C18 C17 1_555 1_555
H12 C18 1_555 1_555
C19 C15 1_555 1_555
H13 C19 1_555 1_555
C20 H14 1_555 1_555
C21 C20 1_555 1_555
H15 C21 1_555 1_555
C22 C21 1_555 1_555
H16 C22 1_555 1_555
C23 C22 1_555 1_555
H17 C23 1_555 1_555
C24 C20 1_555 1_555
H18 C24 1_555 1_555
C25 C26 1_555 1_555
C26 C27 1_555 1_555
C27 C28 1_555 1_555
C28 C29 1_555 1_555
C29 C30 1_555 1_555
C30 C25 1_555 1_555
C31 C32 1_555 1_555
C32 C33 1_555 1_555
C33 C34 1_555 1_555
C34 C35 1_555 1_555
C35 C36 1_555 1_555
C36 C31 1_555 1_555
C37 H19 1_555 1_555
H20 C37 1_555 1_555
H21 C37 1_555 1_555
C38 C39 1_555 1_555
C39 H22 1_555 1_555
C40 C39 1_555 1_555
H23 C40 1_555 1_555
C41 C40 1_555 1_555
H24 C41 1_555 1_555
C42 C41 1_555 1_555
H25 C42 1_555 1_555
C43 C38 1_555 1_555
H26 C43 1_555 1_555
C44 C45 1_555 1_555
C45 H27 1_555 1_555
C46 C45 1_555 1_555
H28 C46 1_555 1_555
C47 C46 1_555 1_555
H29 C47 1_555 1_555
C48 C47 1_555 1_555
H30 C48 1_555 1_555
C49 C44 1_555 1_555
H31 C49 1_555 1_555
C50 C51 1_555 1_555
C51 H32 1_555 1_555
C52 C51 1_555 1_555
H33 C52 1_555 1_555
C53 C52 1_555 1_555
H34 C53 1_555 1_555
C54 C53 1_555 1_555
H35 C54 1_555 1_555
C55 C50 1_555 1_555
H36 C55 1_555 1_555
C56 H37 1_555 1_555
H38 C56 1_555 1_555
H39 C56 1_555 1_555
C57 C56 1_555 1_555
C58 C57 1_555 1_555
H40 C58 1_555 1_555
H41 C58 1_555 1_555
H42 C58 1_555 1_555
C59 H43 1_555 1_555
H44 C59 1_555 1_555
H45 C59 1_555 1_555
C60 H46 1_555 1_555
H47 C60 1_555 1_555
H48 C60 1_555 1_555
C61 H49 1_555 1_555
H50 C61 1_555 1_555
H51 C61 1_555 1_555
C62 C61 1_555 1_555
C63 C62 1_555 1_555
H52 C63 1_555 1_555
H53 C63 1_555 1_555
H54 C63 1_555 1_555
F1 C26 1_555 1_555
F2 C27 1_555 1_555
F3 C28 1_555 1_555
F4 C29 1_555 1_555
F5 C30 1_555 1_555
F6 C32 1_555 1_555
F7 C33 1_555 1_555
F8 C34 1_555 1_555
F9 C35 1_555 1_555
F10 C36 1_555 1_555
P1 C37 1_555 1_555
Fe1 C3 1_555 1_555
Fe2 C15 1_555 1_555
Pt1 C1 1_555 1_555
Pt2 C13 1_555 1_555
Tl1 C1 1_555 1_555
O1 C57 1_555 1_555
O2 C64 1_555 1_555
O3 C62 1_555 1_555
C64 C59 1_555 1_555
C1A Pt1 1_555 1_555
C2A C1A 1_555 1_555
C3A C2A 1_555 1_555
C4A C3A 1_555 1_555
H1A C4A 1_555 1_555
C5A C4A 1_555 1_555
H2A C5A 1_555 1_555
C6A C5A 1_555 1_555
H3A C6A 1_555 1_555
C7A C3A 1_555 1_555
H4A C7A 1_555 1_555
C8A H5A 1_555 1_555
C9A C8A 1_555 1_555
H6A C9A 1_555 1_555
C10A C9A 1_555 1_555
H7A C10A 1_555 1_555
C11A C10A 1_555 1_555
H8A C11A 1_555 1_555
C12A C8A 1_555 1_555
H9A C12A 1_555 1_555
C13A C14A 1_555 1_555
C13A_2 Pt2 1_555 1_555
C14A C15A 1_555 1_555
C15A C16A 1_555 1_555
C16A H10A 1_555 1_555
C17A C16A 1_555 1_555
H11A C17A 1_555 1_555
C18A C17A 1_555 1_555
H12A C18A 1_555 1_555
C19A C15A 1_555 1_555
H13A C19A 1_555 1_555
C20A H14A 1_555 1_555
C21A C20A 1_555 1_555
H15A C21A 1_555 1_555
C22A C21A 1_555 1_555
H16A C22A 1_555 1_555
C23A C22A 1_555 1_555
H17A C23A 1_555 1_555
C24A C20A 1_555 1_555
H18A C24A 1_555 1_555
C25A Pt1 1_555 1_555
C26A C25A 1_555 1_555
C27A C26A 1_555 1_555
C28A C27A 1_555 1_555
C29A C28A 1_555 1_555
C30A C25A 1_555 1_555
C31A C32A 1_555 1_555
C31A_2 Pt2 1_555 1_555
C32A C33A 1_555 1_555
C33A C34A 1_555 1_555
C34A C35A 1_555 1_555
C35A C36A 1_555 1_555
C36A C31A 1_555 1_555
F1A C26A 1_555 1_555
F2A C27A 1_555 1_555
F3A C28A 1_555 1_555
F4A C29A 1_555 1_555
F5A C30A 1_555 1_555
F6A C32A 1_555 1_555
F7A C33A 1_555 1_555
F8A C34A 1_555 1_555
F9A C35A 1_555 1_555
F10A C36A 1_555 1_555
Fe1A C3A 1_555 1_555
Fe2A C15A 1_555 1_555
Pt2_2 C13A 1_555 1_555
Tl1A Pt1 1_555 1_555
Tl1A_2 Pt2 1_555 1_555
C4 Fe1 1_555 1_555
C5 Fe1 1_555 1_555
C6 C7 1_555 1_555
C6 Fe1 1_555 1_555
C7 Fe1 1_555 1_555
C8 Fe1 1_555 1_555
C9 Fe1 1_555 1_555
C10 Fe1 1_555 1_555
C11 C12 1_555 1_555
C11 Fe1 1_555 1_555
C12 Fe1 1_555 1_555
C13 Tl1 1_555 1_555
C16 Fe2 1_555 1_555
C17 Fe2 1_555 1_555
C18 C19 1_555 1_555
C18 Fe2 1_555 1_555
C19 Fe2 1_555 1_555
C20 Fe2 1_555 1_555
C21 Fe2 1_555 1_555
C22 Fe2 1_555 1_555
C23 C24 1_555 1_555
C23 Fe2 1_555 1_555
C24 Fe2 1_555 1_555
C25 Pt1 1_555 1_555
C31 Pt2 1_555 1_555
C38 P1 1_555 1_555
C42 C43 1_555 1_555
C44 P1 1_555 1_555
C48 C49 1_555 1_555
C50 P1 1_555 1_555
C54 C55 1_555 1_555
C60 C64 1_555 1_555
F6 Tl1 1_555 1_555
Pt1 Tl1 1_555 1_555
Pt2 Tl1 1_555 1_555
C1A Tl1A 1_555 1_555
C4A Fe1A 1_555 1_555
C5A Fe1A 1_555 1_555
C6A C7A 1_555 1_555
C6A Fe1A 1_555 1_555
C7A Fe1A 1_555 1_555
C8A Fe1A 1_555 1_555
C9A Fe1A 1_555 1_555
C10A Fe1A 1_555 1_555
C11A C12A 1_555 1_555
C11A Fe1A 1_555 1_555
C12A Fe1A 1_555 1_555
C13A Tl1A 1_555 1_555
C13A_2 Tl1A_2 1_555 1_555
C16A Fe2A 1_555 1_555
C17A Fe2A 1_555 1_555
C18A C19A 1_555 1_555
C18A Fe2A 1_555 1_555
C19A Fe2A 1_555 1_555
C20A Fe2A 1_555 1_555
C21A Fe2A 1_555 1_555
C22A Fe2A 1_555 1_555
C23A C24A 1_555 1_555
C23A Fe2A 1_555 1_555
C24A Fe2A 1_555 1_555
C29A C30A 1_555 1_555
C31A Pt2_2 1_555 1_555
F6A Tl1A 1_555 1_555
Pt2_2 Tl1A 1_555 1_555

#END
