
#######################################################################
#
#                 Cambridge Crystallographic Data Centre
#                                CCDC 
#
#######################################################################
#
# If this CIF has been generated from an entry in the Cambridge 
# Structural Database, then it will include bibliographic, chemical, 
# crystal, experimental, refinement or atomic coordinate data resulting 
# from the CCDC's data processing and validation procedures.
#
#######################################################################

data_EWUGUZ
_symmetry_cell_setting           triclinic
_symmetry_space_group_name_H-M   'P -1'
_symmetry_Int_Tables_number      2
_space_group_name_Hall           '-P 1'
loop_
_symmetry_equiv_pos_site_id
_symmetry_equiv_pos_as_xyz
1 x,y,z
2 -x,-y,-z
_cell_length_a                   11.9302(7)
_cell_length_b                   14.7723(8)
_cell_length_c                   14.8538(8)
_cell_angle_alpha                116.619(2)
_cell_angle_beta                 96.068(2)
_cell_angle_gamma                108.888(2)
_cell_volume                     2114.76
loop_
_atom_site_label
_atom_site_type_symbol
_atom_site_fract_x
_atom_site_fract_y
_atom_site_fract_z
C1 C -0.1411(7) 0.4244(6) 0.3674(6)
C2 C -0.2256(6) 0.3825(7) 0.2893(6)
C3 C -0.3263(7) 0.3360(7) 0.1965(6)
C4 C -0.3919(7) 0.3953(7) 0.1776(6)
H1 H -0.3761 0.4694 0.2225
C5 C -0.4834(7) 0.3225(7) 0.0801(6)
H2 H -0.5368 0.3408 0.0484
C6 C -0.4814(7) 0.2163(7) 0.0377(6)
H3 H -0.5344 0.1524 -0.0254
C7 C -0.3832(7) 0.2252(7) 0.1095(6)
H4 H -0.3603 0.1679 0.1007
C8 C -0.1976(9) 0.2851(9) -0.0225(8)
H5 H -0.1818 0.2232 -0.0366
C9 C -0.2904(8) 0.2872(8) -0.0864(6)
H6 H -0.3475 0.2268 -0.1498
C10 C -0.2825(8) 0.3954(8) -0.0389(7)
H7 H -0.333 0.4198 -0.0653
C11 C -0.1852(8) 0.4612(8) 0.0559(7)
H8 H -0.1601 0.5367 0.1033
C12 C -0.1323(8) 0.3924(9) 0.0666(7)
H9 H -0.0665 0.4141 0.1222
C13 C -0.3722(6) 0.5963(6) 0.4647(5)
C14 C -0.2994(7) 0.6516(6) 0.4392(6)
C15 C -0.2109(6) 0.7172(6) 0.4072(6)
C16 C -0.1486(6) 0.6742(7) 0.3326(6)
H10 H -0.1575 0.6009 0.2965
C17 C -0.0704(7) 0.7635(7) 0.3233(6)
H11 H -0.0192 0.7588 0.2799
C18 C -0.0841(7) 0.8610(7) 0.3916(6)
H12 H -0.0432 0.9314 0.4012
C19 C -0.1702(7) 0.8326(7) 0.4423(6)
H13 H -0.1965 0.8812 0.491
C20 C -0.2999(9) 0.8041(8) 0.1963(8)
H14 H -0.2531 0.8724 0.2037
C21 C -0.3852(9) 0.7848(9) 0.2491(7)
H15 H -0.4051 0.8388 0.2986
C22 C -0.4374(8) 0.6706(10) 0.2161(8)
H16 H -0.4974 0.6353 0.2388
C23 C -0.3808(9) 0.6214(8) 0.1427(7)
H17 H -0.3963 0.5463 0.1075
C24 C -0.2968(8) 0.7036(9) 0.1305(7)
H18 H -0.2473 0.6924 0.0857
C25 C -0.6092(6) 0.4080(7) 0.3420(6)
C26 C -0.6475(6) 0.4558(6) 0.2902(6)
C27 C -0.7188(7) 0.3980(7) 0.1867(6)
C28 C -0.7575(7) 0.2846(7) 0.1293(6)
C29 C -0.7233(7) 0.2319(7) 0.1752(6)
C30 C -0.6528(7) 0.2935(7) 0.2789(6)
C31 C 0.0897(6) 0.6194(6) 0.4619(6)
C32 C 0.1118(6) 0.5914(7) 0.3656(6)
C33 C 0.1644(7) 0.6674(8) 0.3346(7)
C34 C 0.1991(7) 0.7784(8) 0.4028(7)
C35 C 0.1812(7) 0.8125(7) 0.5000(7)
C36 C 0.1279(7) 0.7329(7) 0.5270(6)
C37 C -0.0801(10) 1.0289(9) 0.7797(9)
H19 H -0.1462 1.0096 0.8085
H20 H -0.1019 1.057 0.7367
H21 H -0.0056 1.085 0.8361
C38 C -0.0591(10) 0.9272(8) 0.7137(8)
H22 H -0.1315 0.8746 0.6527
H23 H 0.0108 0.9487 0.6883
C39 C 0.0792(9) 0.9321(8) 0.8474(8)
H24 H 0.0783 0.9972 0.906
H25 H 0.146 0.9571 0.8205
C40 C 0.1001(10) 0.8584(9) 0.8840(8)
H26 H 0.0339 0.834 0.9107
H27 H 0.1776 0.8989 0.9389
H28 H 0.1024 0.7948 0.826
C41 C -0.5398(9) 0.1301(9) 0.4870(8)
H29 H -0.4577 0.1708 0.5354
H30 H -0.5931 0.086 0.5099
H31 H -0.5711 0.1815 0.4846
C42 C -0.5360(9) 0.0558(8) 0.3798(8)
H32 H -0.5132 -0.0015 0.3799
H33 H -0.6172 0.0198 0.3291
C43 C -0.4419(9) 0.0570(9) 0.2468(8)
H34 H -0.4367 -0.0105 0.2381
H35 H -0.3668 0.0997 0.2387
C44 C -0.5503(9) 0.0259(8) 0.1620(7)
H36 H -0.6242 -0.0232 0.1646
H37 H -0.5374 -0.0111 0.0946
H38 H -0.5591 0.0919 0.1723
F1 F -0.6232(4) 0.2339(4) 0.3192(3)
F2 F -0.7596(4) 0.1205(4) 0.1181(4)
F3 F -0.8286(5) 0.2247(4) 0.0272(3)
F4 F -0.7514(4) 0.4506(4) 0.1415(4)
F5 F -0.6162(4) 0.5678(4) 0.3424(3)
F6 F 0.0845(4) 0.4828(4) 0.2936(3)
F7 F 0.1822(5) 0.6326(5) 0.2387(4)
F8 F 0.2487(5) 0.8530(5) 0.3736(5)
F9 F 0.2143(5) 0.9209(4) 0.5675(4)
F10 F 0.1138(4) 0.7740(4) 0.6251(4)
Fe1 Fe -0.31457(10) 0.33296(10) 0.05906(8)
Fe2 Fe -0.24974(9) 0.74134(9) 0.28306(8)
O1 O -0.0358(5) 0.8727(5) 0.7668(4)
O2 O -0.4475(5) 0.1208(5) 0.3515(5)
Pt1 Pt 0.00000 0.50000 0.50000
Pt2 Pt -0.5 0.50000 0.50000
Tl1 Tl -0.13301(3) 0.64244(3) 0.60270(2)
Tl2 Tl -0.36340(3) 0.35220(3) 0.43527(2)
C1A C 0.1411(7) 0.5756(6) 0.6326(6)
C2A C 0.2256(6) 0.6175(7) 0.7107(6)
C3A C 0.3263(7) 0.6640(7) 0.8035(6)
C4A C 0.3919(7) 0.6047(7) 0.8224(6)
H1A H 0.3761 0.5306 0.7775
C5A C 0.4834(7) 0.6775(7) 0.9199(6)
H2A H 0.5368 0.6592 0.9516
C6A C 0.4814(7) 0.7837(7) 0.9623(6)
H3A H 0.5344 0.8476 1.0254
C7A C 0.3832(7) 0.7748(7) 0.8905(6)
H4A H 0.3603 0.8321 0.8993
C8A C 0.1976(9) 0.7149(9) 1.0225(8)
H5A H 0.1818 0.7768 1.0366
C9A C 0.2904(8) 0.7128(8) 1.0864(6)
H6A H 0.3475 0.7732 1.1498
C10A C 0.2825(8) 0.6046(8) 1.0389(7)
H7A H 0.333 0.5802 1.0653
C11A C 0.1852(8) 0.5388(8) 0.9441(7)
H8A H 0.1601 0.4633 0.8967
C12A C 0.1323(8) 0.6076(9) 0.9334(7)
H9A H 0.0665 0.5859 0.8778
C13A C 0.3722(6) 0.4037(6) 0.5353(5)
C13A_2 C -0.6278(6) 0.4037(6) 0.5353(5)
C14A C 0.2994(7) 0.3484(6) 0.5608(6)
C15A C 0.2109(6) 0.2828(6) 0.5928(6)
C16A C 0.1486(6) 0.3258(7) 0.6674(6)
H10A H 0.1575 0.3991 0.7035
C17A C 0.0704(7) 0.2365(7) 0.6767(6)
H11A H 0.0192 0.2412 0.7201
C18A C 0.0841(7) 0.1390(7) 0.6084(6)
H12A H 0.0432 0.0686 0.5988
C19A C 0.1702(7) 0.1674(7) 0.5577(6)
H13A H 0.1965 0.1188 0.509
C20A C 0.2999(9) 0.1959(8) 0.8037(8)
H14A H 0.2531 0.1276 0.7963
C21A C 0.3852(9) 0.2152(9) 0.7509(7)
H15A H 0.4051 0.1612 0.7014
C22A C 0.4374(8) 0.3294(10) 0.7839(8)
H16A H 0.4974 0.3647 0.7612
C23A C 0.3808(9) 0.3786(8) 0.8573(7)
H17A H 0.3963 0.4537 0.8925
C24A C 0.2968(8) 0.2964(9) 0.8695(7)
H18A H 0.2473 0.3076 0.9143
C25A C 0.6092(6) 0.5920(7) 0.6580(6)
C25A_2 C -0.3908(6) 0.5920(7) 0.6580(6)
C26A C 0.6475(6) 0.5442(6) 0.7098(6)
C27A C 0.7188(7) 0.6020(7) 0.8133(6)
C28A C 0.7575(7) 0.7154(7) 0.8707(6)
C29A C 0.7233(7) 0.7681(7) 0.8248(6)
C30A C 0.6528(7) 0.7065(7) 0.7211(6)
C31A C -0.0897(6) 0.3806(6) 0.5381(6)
C32A C -0.1118(6) 0.4086(7) 0.6344(6)
C33A C -0.1644(7) 0.3326(8) 0.6654(7)
C34A C -0.1991(7) 0.2216(8) 0.5972(7)
C35A C -0.1812(7) 0.1875(7) 0.5000(7)
C36A C -0.1279(7) 0.2671(7) 0.4730(6)
C37A C 0.0801(10) -0.0289(9) 0.2203(9)
H19A H 0.1462 -0.0096 0.1915
H20A H 0.1019 -0.057 0.2633
H21A H 0.0056 -0.085 0.1639
C38A C 0.0591(10) 0.0728(8) 0.2863(8)
H22A H 0.1315 0.1254 0.3473
H23A H -0.0108 0.0513 0.3117
C39A C -0.0792(9) 0.0679(8) 0.1526(8)
H24A H -0.0783 0.0028 0.094
H25A H -0.146 0.0429 0.1795
C40A C -0.1001(10) 0.1416(9) 0.1160(8)
H26A H -0.0339 0.166 0.0893
H27A H -0.1776 0.1011 0.0611
H28A H -0.1024 0.2052 0.174
C41A C 0.5398(9) 0.8699(9) 0.5130(8)
H29A H 0.4577 0.8292 0.4646
H30A H 0.5931 0.914 0.4901
H31A H 0.5711 0.8185 0.5154
C42A C 0.5360(9) 0.9442(8) 0.6202(8)
H32A H 0.5132 1.0015 0.6201
H33A H 0.6172 0.9802 0.6709
C43A C 0.4419(9) 0.9430(9) 0.7532(8)
H34A H 0.4367 1.0105 0.7619
H35A H 0.3668 0.9003 0.7613
C44A C 0.5503(9) 0.9741(8) 0.8380(7)
H36A H 0.6242 1.0232 0.8354
H37A H 0.5374 1.0111 0.9054
H38A H 0.5591 0.9081 0.8277
F1A F 0.6232(4) 0.7661(4) 0.6808(3)
F2A F 0.7596(4) 0.8795(4) 0.8819(4)
F3A F 0.8286(5) 0.7753(4) 0.9728(3)
F4A F 0.7514(4) 0.5494(4) 0.8585(4)
F5A F 0.6162(4) 0.4322(4) 0.6576(3)
F6A F -0.0845(4) 0.5172(4) 0.7064(3)
F7A F -0.1822(5) 0.3674(5) 0.7613(4)
F8A F -0.2487(5) 0.1470(5) 0.6264(5)
F9A F -0.2143(5) 0.0791(4) 0.4325(4)
F10A F -0.1138(4) 0.2260(4) 0.3749(4)
Fe1A Fe 0.31457(10) 0.66704(10) 0.94094(8)
Fe2A Fe 0.24974(9) 0.25866(9) 0.71694(8)
O1A O 0.0358(5) 0.1273(5) 0.2332(4)
O2A O 0.4475(5) 0.8792(5) 0.6485(5)
Pt2_2 Pt 0.5 0.50000 0.50000
Tl1A Tl 0.13301(3) 0.35756(3) 0.39730(2)
Tl2A Tl 0.36340(3) 0.64780(3) 0.56473(2)
Tl2A_2 Tl -0.63660(3) 0.64780(3) 0.56473(2)
loop_
_geom_bond_atom_site_label_1
_geom_bond_atom_site_label_2
_geom_bond_site_symmetry_1
_geom_bond_site_symmetry_2
C1 C2 1_555 1_555
C2 C3 1_555 1_555
C3 C4 1_555 1_555
C4 H1 1_555 1_555
C5 C4 1_555 1_555
H2 C5 1_555 1_555
C6 C5 1_555 1_555
H3 C6 1_555 1_555
C7 C3 1_555 1_555
H4 C7 1_555 1_555
C8 H5 1_555 1_555
C9 C8 1_555 1_555
H6 C9 1_555 1_555
C10 C9 1_555 1_555
H7 C10 1_555 1_555
C11 C10 1_555 1_555
H8 C11 1_555 1_555
C12 C8 1_555 1_555
H9 C12 1_555 1_555
C13 C14 1_555 1_555
C14 C15 1_555 1_555
C15 C16 1_555 1_555
C16 H10 1_555 1_555
C17 C16 1_555 1_555
H11 C17 1_555 1_555
C18 C17 1_555 1_555
H12 C18 1_555 1_555
C19 C15 1_555 1_555
H13 C19 1_555 1_555
C20 H14 1_555 1_555
C21 C20 1_555 1_555
H15 C21 1_555 1_555
C22 C21 1_555 1_555
H16 C22 1_555 1_555
C23 C22 1_555 1_555
H17 C23 1_555 1_555
C24 C20 1_555 1_555
H18 C24 1_555 1_555
C25 C26 1_555 1_555
C26 C27 1_555 1_555
C27 C28 1_555 1_555
C28 C29 1_555 1_555
C29 C30 1_555 1_555
C30 C25 1_555 1_555
C31 C32 1_555 1_555
C32 C33 1_555 1_555
C33 C34 1_555 1_555
C34 C35 1_555 1_555
C35 C36 1_555 1_555
C36 C31 1_555 1_555
C37 H19 1_555 1_555
H20 C37 1_555 1_555
H21 C37 1_555 1_555
C38 C37 1_555 1_555
H22 C38 1_555 1_555
H23 C38 1_555 1_555
C39 H24 1_555 1_555
H25 C39 1_555 1_555
C40 C39 1_555 1_555
H26 C40 1_555 1_555
H27 C40 1_555 1_555
H28 C40 1_555 1_555
C41 H29 1_555 1_555
H30 C41 1_555 1_555
H31 C41 1_555 1_555
C42 C41 1_555 1_555
H32 C42 1_555 1_555
H33 C42 1_555 1_555
C43 H34 1_555 1_555
H35 C43 1_555 1_555
C44 C43 1_555 1_555
H36 C44 1_555 1_555
H37 C44 1_555 1_555
H38 C44 1_555 1_555
F1 C30 1_555 1_555
F2 C29 1_555 1_555
F3 C28 1_555 1_555
F4 C27 1_555 1_555
F5 C26 1_555 1_555
F6 C32 1_555 1_555
F7 C33 1_555 1_555
F8 C34 1_555 1_555
F9 C35 1_555 1_555
F10 C36 1_555 1_555
Fe1 C3 1_555 1_555
Fe2 C15 1_555 1_555
O1 C38 1_555 1_555
O2 C42 1_555 1_555
Pt1 C1 1_555 1_555
Pt2 C13 1_555 1_555
Tl1 C13 1_555 1_555
Tl2 C1 1_555 1_555
C1A Pt1 1_555 1_555
C2A C1A 1_555 1_555
C3A C2A 1_555 1_555
C4A C3A 1_555 1_555
H1A C4A 1_555 1_555
C5A C4A 1_555 1_555
H2A C5A 1_555 1_555
C6A C5A 1_555 1_555
H3A C6A 1_555 1_555
C7A C3A 1_555 1_555
H4A C7A 1_555 1_555
C8A H5A 1_555 1_555
C9A C8A 1_555 1_555
H6A C9A 1_555 1_555
C10A C9A 1_555 1_555
H7A C10A 1_555 1_555
C11A C10A 1_555 1_555
H8A C11A 1_555 1_555
C12A C8A 1_555 1_555
H9A C12A 1_555 1_555
C13A C14A 1_555 1_555
C13A_2 Pt2 1_555 1_555
C14A C15A 1_555 1_555
C15A C16A 1_555 1_555
C16A H10A 1_555 1_555
C17A C16A 1_555 1_555
H11A C17A 1_555 1_555
C18A C17A 1_555 1_555
H12A C18A 1_555 1_555
C19A C15A 1_555 1_555
H13A C19A 1_555 1_555
C20A H14A 1_555 1_555
C21A C20A 1_555 1_555
H15A C21A 1_555 1_555
C22A C21A 1_555 1_555
H16A C22A 1_555 1_555
C23A C22A 1_555 1_555
H17A C23A 1_555 1_555
C24A C20A 1_555 1_555
H18A C24A 1_555 1_555
C25A C26A 1_555 1_555
C25A_2 Pt2 1_555 1_555
C26A C27A 1_555 1_555
C27A C28A 1_555 1_555
C28A C29A 1_555 1_555
C29A C30A 1_555 1_555
C30A C25A 1_555 1_555
C31A Pt1 1_555 1_555
C32A C31A 1_555 1_555
C33A C32A 1_555 1_555
C34A C33A 1_555 1_555
C35A C34A 1_555 1_555
C36A C31A 1_555 1_555
C37A H19A 1_555 1_555
H20A C37A 1_555 1_555
H21A C37A 1_555 1_555
C38A C37A 1_555 1_555
H22A C38A 1_555 1_555
H23A C38A 1_555 1_555
C39A H24A 1_555 1_555
H25A C39A 1_555 1_555
C40A C39A 1_555 1_555
H26A C40A 1_555 1_555
H27A C40A 1_555 1_555
H28A C40A 1_555 1_555
C41A H29A 1_555 1_555
H30A C41A 1_555 1_555
H31A C41A 1_555 1_555
C42A C41A 1_555 1_555
H32A C42A 1_555 1_555
H33A C42A 1_555 1_555
C43A H34A 1_555 1_555
H35A C43A 1_555 1_555
C44A C43A 1_555 1_555
H36A C44A 1_555 1_555
H37A C44A 1_555 1_555
H38A C44A 1_555 1_555
F1A C30A 1_555 1_555
F2A C29A 1_555 1_555
F3A C28A 1_555 1_555
F4A C27A 1_555 1_555
F5A C26A 1_555 1_555
F6A C32A 1_555 1_555
F7A C33A 1_555 1_555
F8A C34A 1_555 1_555
F9A C35A 1_555 1_555
F10A C36A 1_555 1_555
Fe1A C3A 1_555 1_555
Fe2A C15A 1_555 1_555
O1A C38A 1_555 1_555
O2A C42A 1_555 1_555
Pt2_2 C13A 1_555 1_555
Tl1A Pt1 1_555 1_555
Tl2A C1A 1_555 1_555
Tl2A_2 Pt2 1_555 1_555
C2 Tl2 1_555 1_555
C4 Fe1 1_555 1_555
C5 Fe1 1_555 1_555
C6 C7 1_555 1_555
C6 Fe1 1_555 1_555
C7 Fe1 1_555 1_555
C8 Fe1 1_555 1_555
C9 Fe1 1_555 1_555
C10 Fe1 1_555 1_555
C11 C12 1_555 1_555
C11 Fe1 1_555 1_555
C12 Fe1 1_555 1_555
C14 Tl1 1_555 1_555
C16 Fe2 1_555 1_555
C17 Fe2 1_555 1_555
C18 C19 1_555 1_555
C18 Fe2 1_555 1_555
C19 Fe2 1_555 1_555
C20 Fe2 1_555 1_555
C21 Fe2 1_555 1_555
C22 Fe2 1_555 1_555
C23 C24 1_555 1_555
C23 Fe2 1_555 1_555
C24 Fe2 1_555 1_555
C25 Pt2 1_555 1_555
C31 Pt1 1_555 1_555
C39 O1 1_555 1_555
C43 O2 1_555 1_555
F1 Tl2 1_555 1_555
F10 Tl1 1_555 1_555
O1 Tl1 1_555 1_555
O2 Tl2 1_555 1_555
Pt1 Tl1 1_555 1_555
Pt2 Tl2 1_555 1_555
Tl1 Tl2 1_555 1_555
C2A Tl2A 1_555 1_555
C4A Fe1A 1_555 1_555
C5A Fe1A 1_555 1_555
C6A C7A 1_555 1_555
C6A Fe1A 1_555 1_555
C7A Fe1A 1_555 1_555
C8A Fe1A 1_555 1_555
C9A Fe1A 1_555 1_555
C10A Fe1A 1_555 1_555
C11A C12A 1_555 1_555
C11A Fe1A 1_555 1_555
C12A Fe1A 1_555 1_555
C13A Tl1A 1_555 1_555
C14A Tl1A 1_555 1_555
C16A Fe2A 1_555 1_555
C17A Fe2A 1_555 1_555
C18A C19A 1_555 1_555
C18A Fe2A 1_555 1_555
C19A Fe2A 1_555 1_555
C20A Fe2A 1_555 1_555
C21A Fe2A 1_555 1_555
C22A Fe2A 1_555 1_555
C23A C24A 1_555 1_555
C23A Fe2A 1_555 1_555
C24A Fe2A 1_555 1_555
C25A Pt2_2 1_555 1_555
C35A C36A 1_555 1_555
C39A O1A 1_555 1_555
C43A O2A 1_555 1_555
F1A Tl2A 1_555 1_555
F10A Tl1A 1_555 1_555
O1A Tl1A 1_555 1_555
O2A Tl2A 1_555 1_555
Pt2_2 Tl2A 1_555 1_555
Tl1A Tl2A 1_555 1_555

#END
