
#######################################################################
#
#                 Cambridge Crystallographic Data Centre
#                                CCDC 
#
#######################################################################
#
# If this CIF has been generated from an entry in the Cambridge 
# Structural Database, then it will include bibliographic, chemical, 
# crystal, experimental, refinement or atomic coordinate data resulting 
# from the CCDC's data processing and validation procedures.
#
#######################################################################

data_EWUJAI
_symmetry_cell_setting           monoclinic
_symmetry_space_group_name_H-M   'P 21/n'
_symmetry_Int_Tables_number      14
_space_group_name_Hall           '-P 2yn'
loop_
_symmetry_equiv_pos_site_id
_symmetry_equiv_pos_as_xyz
1 x,y,z
2 1/2-x,1/2+y,1/2-z
3 -x,-y,-z
4 1/2+x,1/2-y,1/2+z
_cell_length_a                   6.4900(11)
_cell_length_b                   12.528(2)
_cell_length_c                   15.436(3)
_cell_angle_alpha                90
_cell_angle_beta                 91.379(2)
_cell_angle_gamma                90
_cell_volume                     1254.69
loop_
_atom_site_label
_atom_site_type_symbol
_atom_site_fract_x
_atom_site_fract_y
_atom_site_fract_z
C1 C 0.7905(4) 0.74802(18) 0.29647(16)
H1 H 0.8711 0.7552 0.3514
H2 H 0.6420 0.7524 0.3093
C2 C 0.8390(4) 0.64296(19) 0.25244(15)
H3 H 0.9835 0.6215 0.2648
H4 H 0.7463 0.5857 0.2724
C3 C 0.8155(4) 0.76582(18) 0.13392(16)
C4 C 0.7463(4) 0.71467(19) -0.00888(16)
C5 C 0.7613(4) 0.60201(18) 0.02232(16)
C6 C 0.7402(4) 0.50858(19) -0.03643(16)
C7 C 0.7495(4) 0.40624(19) 0.00021(16)
H5 H 0.7715 0.3988 0.0610
C8 C 0.7270(4) 0.3159(2) -0.05070(17)
H6 H 0.7338 0.2471 -0.0249
C9 C 0.6946(4) 0.3260(2) -0.13938(17)
H7 H 0.6778 0.2642 -0.1744
C10 C 0.6866(4) 0.4265(2) -0.17697(17)
H8 H 0.6647 0.4333 -0.2378
C11 C 0.7104(4) 0.5172(2) -0.12615(17)
H9 H 0.7065 0.5857 -0.1525
Cl1 Cl 0.45348(9) 0.95505(5) 0.09129(4)
Cl2 Cl 1.01946(9) 0.93160(5) -0.08754(4)
Cu1 Cu 0.74084(5) 0.94058(2) 0.001813(19)
N1 N 0.7856(3) 0.58060(16) 0.10446(13)
N2 N 0.8051(3) 0.66379(15) 0.15958(13)
N3 N 0.7902(3) 0.79378(15) 0.05210(13)
O1 O 0.6946(3) 0.74058(13) -0.08265(11)
S1 S 0.86185(10) 0.85275(5) 0.21984(4)
Cl1B Cl 0.54652(9) 1.04495(5) -0.09129(4)
Cl2B Cl 0.98054(9) 1.06840(5) 0.08754(4)
Cu1B Cu 0.25916(5) 1.05942(2) -0.001813(19)
Cu1B_2 Cu 1.25916(5) 1.05942(2) -0.001813(19)
loop_
_geom_bond_atom_site_label_1
_geom_bond_atom_site_label_2
_geom_bond_site_symmetry_1
_geom_bond_site_symmetry_2
C1 H1 1_555 1_555
H2 C1 1_555 1_555
C2 C1 1_555 1_555
H3 C2 1_555 1_555
H4 C2 1_555 1_555
C3 N2 1_555 1_555
C4 C5 1_555 1_555
C5 C6 1_555 1_555
C6 C7 1_555 1_555
C7 H5 1_555 1_555
C8 C7 1_555 1_555
H6 C8 1_555 1_555
C9 C8 1_555 1_555
H7 C9 1_555 1_555
C10 C9 1_555 1_555
H8 C10 1_555 1_555
C11 C6 1_555 1_555
H9 C11 1_555 1_555
Cl1 Cu1 1_555 1_555
Cl2 Cu1 1_555 1_555
Cu1 N3 1_555 1_555
N1 C5 1_555 1_555
N2 C2 1_555 1_555
N3 C3 1_555 1_555
O1 C4 1_555 1_555
S1 C1 1_555 1_555
Cl1B Cu1 1_555 1_555
Cl2B Cu1 1_555 1_555
Cu1B Cl1 1_555 1_555
Cu1B_2 Cl2 1_555 1_555
C3 S1 1_555 1_555
C4 N3 1_555 1_555
C10 C11 1_555 1_555
N1 N2 1_555 1_555
Cl1B Cu1B 1_555 1_555
Cl2B Cu1B_2 1_555 1_555

#END
