
#######################################################################
#
#                 Cambridge Crystallographic Data Centre
#                                CCDC 
#
#######################################################################
#
# If this CIF has been generated from an entry in the Cambridge 
# Structural Database, then it will include bibliographic, chemical, 
# crystal, experimental, refinement or atomic coordinate data resulting 
# from the CCDC's data processing and validation procedures.
#
#######################################################################

data_EWUPOC
_symmetry_cell_setting           monoclinic
_symmetry_space_group_name_H-M   'C 2/c'
_symmetry_Int_Tables_number      15
_space_group_name_Hall           '-C 2yn'
loop_
_symmetry_equiv_pos_site_id
_symmetry_equiv_pos_as_xyz
1 x,y,z
2 -x,y,1/2-z
3 1/2+x,1/2+y,z
4 1/2-x,1/2+y,1/2-z
5 -x,-y,-z
6 x,-y,1/2+z
7 1/2-x,1/2-y,-z
8 1/2+x,1/2-y,1/2+z
_cell_length_a                   27.451(5)
_cell_length_b                   9.5170(19)
_cell_length_c                   16.842(3)
_cell_angle_alpha                90
_cell_angle_beta                 122.08(3)
_cell_angle_gamma                90
_cell_volume                     3728.15
loop_
_atom_site_label
_atom_site_type_symbol
_atom_site_fract_x
_atom_site_fract_y
_atom_site_fract_z
Zn1 Zn 0.08225(3) 0.29914(6) 0.35930(4)
O1 O 0.04765(18) 0.0918(5) 0.1727(3)
O2 O 0.12003(18) 0.1927(4) 0.3005(3)
O3 O 0.0919(2) -0.1892(4) -0.0334(3)
O4 O 0.1829(3) -0.2286(7) 0.0163(4)
O5 O 0.0000 0.2154(5) 0.2500
H1 H 0.0003 0.1448 0.2193
N1 N 0.0325(2) 0.4722(5) 0.3680(3)
N2 N 0.1301(3) 0.4761(5) 0.3691(4)
C1 C 0.0999(3) 0.1136(6) 0.2294(4)
C2 C 0.1445(3) -0.1823(6) 0.0267(4)
C3 C 0.1426(2) 0.0385(6) 0.2138(4)
C4 C 0.1999(3) 0.0309(6) 0.2862(4)
H2 H 0.2129 0.0788 0.3421
C5 C 0.2372(3) -0.0498(7) 0.2731(4)
C6 C 0.2187(3) -0.1206(6) 0.1905(4)
H3 H 0.2442 -0.1761 0.1838
C7 C 0.1621(3) -0.1086(6) 0.1178(4)
C8 C 0.1240(2) -0.0302(6) 0.1299(4)
H4 H 0.0857 -0.0237 0.0814
C9 C -0.0146(3) 0.4696(8) 0.3698(6)
H5 H -0.0312 0.3831 0.3671
C10 C -0.0408(4) 0.5909(10) 0.3757(8)
H6 H -0.0741 0.5851 0.3772
C11 C -0.0170(4) 0.7187(9) 0.3793(7)
H7 H -0.0348 0.8006 0.3816
C12 C 0.0328(3) 0.7265(7) 0.3796(5)
C13 C 0.0560(3) 0.6000(6) 0.3728(4)
C14 C 0.0630(4) 0.8546(7) 0.3876(5)
H8 H 0.0478 0.9392 0.3925
C15 C 0.1109(4) 0.8570(7) 0.3884(6)
H9 H 0.1286 0.9426 0.3931
C16 C 0.1084(3) 0.6006(6) 0.3731(4)
C17 C 0.1368(4) 0.7286(7) 0.3820(6)
C18 C 0.1894(4) 0.7223(10) 0.3896(8)
H10 H 0.2090 0.8048 0.3945
C19 C 0.2130(5) 0.5935(11) 0.3899(9)
H11 H 0.2491 0.5878 0.3975
C20 C 0.1811(4) 0.4723(10) 0.3785(7)
H12 H 0.1964 0.3856 0.3774
I1 I 0.32299(2) -0.07917(8) 0.38099(4)
Zn1E Zn 0.08225(3) -0.29914(6) 0.85930(4)
Zn1E_2 Zn 0.08225(3) -0.29914(6) -0.14070(4)
Zn1A Zn -0.08225(3) 0.29914(6) 0.14070(4)
O1E O 0.04765(18) -0.0918(5) 0.6727(3)
O2E O 0.12003(18) -0.1927(4) 0.8005(3)
O3E O 0.0919(2) 0.1892(4) 0.4666(3)
O3_2 O 0.0919(2) -0.1892(4) 0.9666(3)
O4E O 0.1829(3) 0.2286(7) 0.5163(4)
O5D O 0.0000 -0.2154(5) 0.7500
H1A H -0.0003 0.1448 0.2807
H1E H 0.0003 -0.1448 0.7193
H1D H -0.0003 -0.1448 0.7807
N1E N 0.0325(2) -0.4722(5) 0.8680(3)
N2E N 0.1301(3) -0.4761(5) 0.8691(4)
C1E C 0.0999(3) -0.1136(6) 0.7294(4)
C2E C 0.1445(3) 0.1823(6) 0.5267(4)
C3E C 0.1426(2) -0.0385(6) 0.7138(4)
C4E C 0.1999(3) -0.0309(6) 0.7862(4)
H2E H 0.2129 -0.0788 0.8421
C5E C 0.2372(3) 0.0498(7) 0.7731(4)
C6E C 0.2187(3) 0.1206(6) 0.6905(4)
H3E H 0.2442 0.1761 0.6838
C7E C 0.1621(3) 0.1086(6) 0.6178(4)
C8E C 0.1240(2) 0.0302(6) 0.6299(4)
H4E H 0.0857 0.0237 0.5814
C9E C -0.0146(3) -0.4696(8) 0.8698(6)
H5E H -0.0312 -0.3831 0.8671
C10E C -0.0408(4) -0.5909(10) 0.8757(8)
H6E H -0.0741 -0.5851 0.8772
C11E C -0.0170(4) -0.7187(9) 0.8793(7)
H7E H -0.0348 -0.8006 0.8816
C12E C 0.0328(3) -0.7265(7) 0.8796(5)
C13E C 0.0560(3) -0.6000(6) 0.8728(4)
C14E C 0.0630(4) -0.8546(7) 0.8876(5)
H8E H 0.0478 -0.9392 0.8925
C15E C 0.1109(4) -0.8570(7) 0.8884(6)
H9E H 0.1286 -0.9426 0.8931
C16E C 0.1084(3) -0.6006(6) 0.8731(4)
C17E C 0.1368(4) -0.7286(7) 0.8820(6)
C18E C 0.1894(4) -0.7223(10) 0.8896(8)
H10E H 0.2090 -0.8048 0.8945
C19E C 0.2130(5) -0.5935(11) 0.8899(9)
H11E H 0.2491 -0.5878 0.8975
C20E C 0.1811(4) -0.4723(10) 0.8785(7)
H12E H 0.1964 -0.3856 0.8774
I1E I 0.32299(2) 0.07917(8) 0.88099(4)
loop_
_geom_bond_atom_site_label_1
_geom_bond_atom_site_label_2
_geom_bond_site_symmetry_1
_geom_bond_site_symmetry_2
Zn1 O2 1_555 1_555
O1 C1 1_555 1_555
O2 C1 1_555 1_555
O3 C2 1_555 1_555
O4 C2 1_555 1_555
O5 Zn1 1_555 1_555
H1 O5 1_555 1_555
N1 Zn1 1_555 1_555
N2 Zn1 1_555 1_555
C1 C3 1_555 1_555
C2 C7 1_555 1_555
C3 C4 1_555 1_555
C4 H2 1_555 1_555
C5 C4 1_555 1_555
C6 C5 1_555 1_555
H3 C6 1_555 1_555
C7 C6 1_555 1_555
C8 C3 1_555 1_555
H4 C8 1_555 1_555
C9 N1 1_555 1_555
H5 C9 1_555 1_555
C10 C9 1_555 1_555
H6 C10 1_555 1_555
C11 C10 1_555 1_555
H7 C11 1_555 1_555
C12 C11 1_555 1_555
C13 N1 1_555 1_555
C14 C12 1_555 1_555
H8 C14 1_555 1_555
C15 C14 1_555 1_555
H9 C15 1_555 1_555
C16 N2 1_555 1_555
C17 C15 1_555 1_555
C18 C17 1_555 1_555
H10 C18 1_555 1_555
C19 C18 1_555 1_555
H11 C19 1_555 1_555
C20 N2 1_555 1_555
H12 C20 1_555 1_555
I1 C5 1_555 1_555
Zn1E O2E 1_555 1_555
Zn1E_2 O3 1_555 1_555
Zn1A O5 1_555 1_555
O1E C1E 1_555 1_555
O2E C1E 1_555 1_555
O3E Zn1 1_555 1_555
O3_2 Zn1E 1_555 1_555
O4E C2E 1_555 1_555
O5D Zn1E 1_555 1_555
H1A O5 1_555 1_555
H1E O5D 1_555 1_555
H1D O5D 1_555 1_555
N1E Zn1E 1_555 1_555
N2E Zn1E 1_555 1_555
C1E C3E 1_555 1_555
C2E O3E 1_555 1_555
C3E C4E 1_555 1_555
C4E H2E 1_555 1_555
C5E C4E 1_555 1_555
C6E C5E 1_555 1_555
H3E C6E 1_555 1_555
C7E C2E 1_555 1_555
C8E C3E 1_555 1_555
H4E C8E 1_555 1_555
C9E N1E 1_555 1_555
H5E C9E 1_555 1_555
C10E C9E 1_555 1_555
H6E C10E 1_555 1_555
C11E C10E 1_555 1_555
H7E C11E 1_555 1_555
C12E C11E 1_555 1_555
C13E N1E 1_555 1_555
C14E C12E 1_555 1_555
H8E C14E 1_555 1_555
C15E C14E 1_555 1_555
H9E C15E 1_555 1_555
C16E N2E 1_555 1_555
C17E C15E 1_555 1_555
C18E C17E 1_555 1_555
H10E C18E 1_555 1_555
C19E C18E 1_555 1_555
H11E C19E 1_555 1_555
C20E N2E 1_555 1_555
H12E C20E 1_555 1_555
I1E C5E 1_555 1_555
C7 C8 1_555 1_555
C12 C13 1_555 1_555
C13 C16 1_555 1_555
C16 C17 1_555 1_555
C19 C20 1_555 1_555
C6E C7E 1_555 1_555
C7E C8E 1_555 1_555
C12E C13E 1_555 1_555
C13E C16E 1_555 1_555
C16E C17E 1_555 1_555
C19E C20E 1_555 1_555

#END
