
#######################################################################
#
#                 Cambridge Crystallographic Data Centre
#                                CCDC 
#
#######################################################################
#
# If this CIF has been generated from an entry in the Cambridge 
# Structural Database, then it will include bibliographic, chemical, 
# crystal, experimental, refinement or atomic coordinate data resulting 
# from the CCDC's data processing and validation procedures.
#
#######################################################################

data_EWUQET
_symmetry_cell_setting           monoclinic
_symmetry_space_group_name_H-M   'P 21/c'
_symmetry_Int_Tables_number      14
_space_group_name_Hall           '-P 2ybc'
loop_
_symmetry_equiv_pos_site_id
_symmetry_equiv_pos_as_xyz
1 x,y,z
2 -x,1/2+y,1/2-z
3 -x,-y,-z
4 x,1/2-y,1/2+z
_cell_length_a                   10.247(2)
_cell_length_b                   14.609(3)
_cell_length_c                   26.348(7)
_cell_angle_alpha                90
_cell_angle_beta                 109.29(3)
_cell_angle_gamma                90
_cell_volume                     3722.82
loop_
_atom_site_label
_atom_site_type_symbol
_atom_site_fract_x
_atom_site_fract_y
_atom_site_fract_z
I1 I -0.54359(2) 0.327270(16) -0.130340(10)
I2 I 0.02234(3) 0.429330(16) 0.350490(11)
Mn1 Mn 0.20867(5) 0.15430(3) 0.109790(18)
Mn2 Mn 0.09120(5) 0.41038(3) 0.121720(18)
O1 O -0.1147(2) -0.02770(14) -0.06335(8)
O2 O -0.3169(2) -0.01519(15) -0.12661(9)
O3 O 0.1353(3) 0.14031(15) 0.17583(9)
O4 O 0.1331(2) 0.29145(15) 0.17476(9)
O5 O 0.0049(2) -0.02268(15) 0.32099(10)
O6 O -0.0155(3) 0.05719(16) 0.38853(9)
O7 O 0.0621(2) 0.23974(15) 0.05753(9)
O8 O -0.0742(2) 0.35809(15) 0.05518(9)
N1 N 0.3080(3) 0.44837(18) 0.17569(10)
N2 N 0.2337(3) 0.42008(18) 0.06905(10)
N3 N 0.3383(3) 0.16865(19) 0.05550(11)
N4 N 0.4252(3) 0.20272(17) 0.16275(10)
C1 C 0.5815(4) 0.4645(3) 0.24096(17)
H1 H 0.6730 0.4698 0.2632
C2 C 0.3415(4) 0.4674(2) 0.22784(14)
H2 H 0.2708 0.4748 0.2423
C3 C 0.1967(4) 0.4113(3) 0.01591(14)
H3 H 0.1031 0.4123 -0.0042
C4 C 0.2924(5) 0.4008(3) -0.01097(16)
H4 H 0.2624 0.3944 -0.0482
C5 C 0.4298(5) 0.3998(3) 0.01752(18)
H5 H 0.4941 0.3913 0.0000
C6 C 0.4743(4) 0.4119(2) 0.07367(16)
C7 C 0.3712(3) 0.4223(2) 0.09756(13)
C8 C 0.4100(3) 0.4379(2) 0.15490(13)
C9 C 0.5519(4) 0.4436(2) 0.18610(16)
C10 C 0.6533(4) 0.4297(3) 0.1601(2)
H6 H 0.7465 0.4313 0.1807
C11 C 0.6176(4) 0.4143(3) 0.1071(2)
H7 H 0.6862 0.4051 0.0917
C12 C 0.4685(4) 0.2207(2) 0.21513(14)
H8 H 0.4024 0.2327 0.2314
C13 C 0.5226(3) 0.1855(2) 0.13936(13)
C14 C 0.4764(3) 0.1665(2) 0.08224(13)
C15 C 0.5740(4) 0.1456(3) 0.05726(15)
C16 C 0.7178(4) 0.1429(3) 0.08835(19)
H9 H 0.7823 0.1283 0.0718
C17 C 0.6649(3) 0.1834(2) 0.16848(15)
C18 C 0.2951(4) 0.1516(3) 0.00331(14)
H10 H 0.2007 0.1537 -0.0154
C19 C -0.2196(3) 0.0184(2) -0.08878(11)
C20 C -0.2316(3) 0.1164(2) -0.07338(11)
C21 C -0.1345(3) 0.1545(2) -0.02819(11)
H11 H -0.0580 0.1205 -0.0083
C22 C -0.1520(3) 0.2437(2) -0.01273(11)
C23 C -0.2668(3) 0.2948(2) -0.04238(12)
H12 H -0.2789 0.3543 -0.0322
C24 C -0.3627(3) 0.2554(2) -0.08728(12)
C25 C -0.3459(3) 0.1674(2) -0.10315(12)
H13 H -0.4106 0.1424 -0.1336
C26 C -0.0480(3) 0.2833(2) 0.03729(12)
C27 C 0.1218(3) 0.2167(2) 0.19564(12)
C28 C 0.0933(3) 0.2168(2) 0.24829(12)
C29 C 0.0761(3) 0.1357(2) 0.27329(12)
H14 H 0.0856 0.0796 0.2581
C30 C 0.0449(3) 0.1382(2) 0.32080(12)
C31 C 0.0791(3) 0.3005(2) 0.27106(12)
H15 H 0.0887 0.3548 0.2543
C32 C 0.0335(3) 0.2223(2) 0.34414(12)
H16 H 0.0147 0.2246 0.3763
C33 C 0.0115(3) 0.0516(2) 0.34545(13)
C34 C 0.4780(5) 0.4769(3) 0.26176(16)
H17 H 0.4977 0.4913 0.2979
C35 C 0.6074(4) 0.2225(3) 0.24704(15)
H18 H 0.6329 0.2362 0.2835
C36 C 0.7052(4) 0.2038(3) 0.22387(16)
H19 H 0.7984 0.2044 0.2445
C37 C 0.0507(3) 0.3024(2) 0.31877(12)
C38 C 0.5231(5) 0.1268(3) 0.00203(17)
H20 H 0.5839 0.1117 -0.0162
C39 C 0.3844(5) 0.1305(3) -0.02503(16)
H21 H 0.3501 0.1192 -0.0618
C40 C 0.7604(4) 0.1611(3) 0.14111(18)
H22 H 0.8544 0.1592 0.1605
Mn1B Mn -0.20867(5) -0.15430(3) -0.109790(18)
Mn2A Mn -0.09120(5) -0.08962(3) 0.378280(18)
O1B O 0.1147(2) 0.02770(14) 0.06335(8)
O2B O 0.3169(2) 0.01519(15) 0.12661(9)
O5A O -0.0049(2) 0.47732(15) 0.17901(10)
O6A O 0.0155(3) 0.55719(16) 0.11147(9)
loop_
_geom_bond_atom_site_label_1
_geom_bond_atom_site_label_2
_geom_bond_site_symmetry_1
_geom_bond_site_symmetry_2
I1 C24 1_555 1_555
I2 C37 1_555 1_555
Mn1 O3 1_555 1_555
Mn2 O4 1_555 1_555
O1 C19 1_555 1_555
O2 C19 1_555 1_555
O3 C27 1_555 1_555
O4 C27 1_555 1_555
O5 C33 1_555 1_555
O6 C33 1_555 1_555
O7 Mn1 1_555 1_555
O8 Mn2 1_555 1_555
N1 Mn2 1_555 1_555
N2 Mn2 1_555 1_555
N3 Mn1 1_555 1_555
N4 Mn1 1_555 1_555
C1 H1 1_555 1_555
C2 N1 1_555 1_555
H2 C2 1_555 1_555
C3 N2 1_555 1_555
H3 C3 1_555 1_555
C4 C3 1_555 1_555
H4 C4 1_555 1_555
C5 C4 1_555 1_555
H5 C5 1_555 1_555
C6 C5 1_555 1_555
C7 N2 1_555 1_555
C8 N1 1_555 1_555
C9 C1 1_555 1_555
C10 C9 1_555 1_555
H6 C10 1_555 1_555
C11 C6 1_555 1_555
H7 C11 1_555 1_555
C12 N4 1_555 1_555
H8 C12 1_555 1_555
C13 N4 1_555 1_555
C14 N3 1_555 1_555
C15 C14 1_555 1_555
C16 C15 1_555 1_555
H9 C16 1_555 1_555
C17 C13 1_555 1_555
C18 N3 1_555 1_555
H10 C18 1_555 1_555
C19 C20 1_555 1_555
C20 C21 1_555 1_555
C21 H11 1_555 1_555
C22 C21 1_555 1_555
C23 C22 1_555 1_555
H12 C23 1_555 1_555
C24 C23 1_555 1_555
C25 C20 1_555 1_555
H13 C25 1_555 1_555
C26 O7 1_555 1_555
C27 C28 1_555 1_555
C28 C29 1_555 1_555
C29 H14 1_555 1_555
C30 C29 1_555 1_555
C31 C28 1_555 1_555
H15 C31 1_555 1_555
C32 C30 1_555 1_555
H16 C32 1_555 1_555
C33 C30 1_555 1_555
C34 C1 1_555 1_555
H17 C34 1_555 1_555
C35 C12 1_555 1_555
H18 C35 1_555 1_555
C36 C17 1_555 1_555
H19 C36 1_555 1_555
C37 C31 1_555 1_555
C38 C15 1_555 1_555
H20 C38 1_555 1_555
C39 C18 1_555 1_555
H21 C39 1_555 1_555
C40 C16 1_555 1_555
H22 C40 1_555 1_555
Mn1B O1 1_555 1_555
Mn2A O5 1_555 1_555
O1B Mn1 1_555 1_555
O2B Mn1 1_555 1_555
O5A Mn2 1_555 1_555
O6A Mn2 1_555 1_555
O2 Mn1B 1_555 1_555
O6 Mn2A 1_555 1_555
O8 C26 1_555 1_555
C2 C34 1_555 1_555
C6 C7 1_555 1_555
C7 C8 1_555 1_555
C8 C9 1_555 1_555
C10 C11 1_555 1_555
C13 C14 1_555 1_555
C17 C40 1_555 1_555
C22 C26 1_555 1_555
C24 C25 1_555 1_555
C32 C37 1_555 1_555
C35 C36 1_555 1_555
C38 C39 1_555 1_555

#END
