
#######################################################################
#
#                 Cambridge Crystallographic Data Centre
#                                CCDC 
#
#######################################################################
#
# If this CIF has been generated from an entry in the Cambridge 
# Structural Database, then it will include bibliographic, chemical, 
# crystal, experimental, refinement or atomic coordinate data resulting 
# from the CCDC's data processing and validation procedures.
#
#######################################################################

data_EWUQIX
_symmetry_cell_setting           monoclinic
_symmetry_space_group_name_H-M   'P 2/c'
_symmetry_Int_Tables_number      13
_space_group_name_Hall           '-P 2yc'
loop_
_symmetry_equiv_pos_site_id
_symmetry_equiv_pos_as_xyz
1 x,y,z
2 -x,y,1/2-z
3 -x,-y,-z
4 x,-y,1/2+z
_cell_length_a                   10.2135(5)
_cell_length_b                   13.8853(6)
_cell_length_c                   18.1964(8)
_cell_angle_alpha                90
_cell_angle_beta                 103.1730(10)
_cell_angle_gamma                90
_cell_volume                     2512.66
loop_
_atom_site_label
_atom_site_type_symbol
_atom_site_fract_x
_atom_site_fract_y
_atom_site_fract_z
Mn1 Mn 1.11855(7) 1.12059(6) 0.67345(5)
O1 O 0.9183(4) 1.1299(3) 0.6050(3)
O2 O 0.8416(4) 1.1119(3) 0.7074(2)
O3 O 0.2067(4) 1.1253(4) 0.5676(3)
O4 O 0.3379(4) 1.1221(4) 0.6800(3)
N1 N 1.0950(5) 0.9593(3) 0.6647(3)
N2 N 1.1125(6) 0.2840(4) 0.6804(4)
C1 C 0.5369(6) 1.1369(5) 0.4680(4)
C2 C 0.6656(6) 1.1328(5) 0.5127(4)
H1 H 0.7396 1.1352 0.4910
C3 C 0.6833(5) 1.1252(4) 0.5904(3)
C4 C 0.5730(5) 1.1219(4) 0.6222(3)
H2 H 0.5853 1.1173 0.6743
C5 C 0.4425(6) 1.1256(4) 0.5765(3)
C6 C 0.4243(6) 1.1318(5) 0.4990(4)
H3 H 0.3383 1.1325 0.4680
C7 C 0.8248(5) 1.1226(4) 0.6382(3)
C8 C 0.3229(6) 1.1240(4) 0.6104(3)
C9 C 1.1558(6) 0.9027(5) 0.7213(4)
H4 H 1.2048 0.9314 0.7652
C10 C 1.1498(7) 0.8037(5) 0.7180(4)
H5 H 1.1926 0.7673 0.7594
C11 C 1.0798(7) 0.7582(5) 0.6529(4)
C12 C 1.0165(8) 0.8173(5) 0.5943(4)
H6 H 0.9677 0.7907 0.5495
C13 C 1.0264(8) 0.9159(5) 0.6028(4)
H7 H 0.9825 0.9543 0.5629
C14 C 1.0720(10) 0.6546(6) 0.6451(6)
H8 H 1.0248 0.6313 0.5987
C15 C 1.1225(9) 0.5913(6) 0.6946(5)
H9 H 1.1689 0.6149 0.7410
C16 C 1.1165(8) 0.4845(6) 0.6871(5)
C17 C 1.1755(9) 0.4306(5) 0.7489(5)
H10 H 1.2180 0.4605 0.7937
C18 C 1.1712(8) 0.3324(5) 0.7439(5)
H11 H 1.2109 0.2969 0.7865
C19 C 1.0544(10) 0.3359(5) 0.6210(5)
H12 H 1.0121 0.3048 0.5767
C20 C 1.0551(10) 0.4377(6) 0.6232(5)
H13 H 1.0132 0.4727 0.5807
I1 I 0.51086(6) 1.14795(6) 0.35088(3)
Mn1A Mn 0.88145(7) 1.12059(6) 0.82655(5)
Mn1_2 Mn 0.11855(7) 1.12059(6) 0.67345(5)
Mn1_3 Mn 1.11855(7) 0.12059(6) 0.67345(5)
Mn1A_2 Mn 1.88145(7) 1.12059(6) 0.82655(5)
Mn1_4 Mn 1.11855(7) 2.12059(6) 0.67345(5)
O1A O 1.0817(4) 1.1299(3) 0.8950(3)
O2A O 1.1584(4) 1.1119(3) 0.7926(2)
O3A O 1.7933(4) 1.1253(4) 0.9324(3)
O3_2 O 1.2067(4) 1.1253(4) 0.5676(3)
O3A_2 O 0.7933(4) 1.1253(4) 0.9324(3)
O4A O 1.6621(4) 1.1221(4) 0.8200(3)
O4_2 O 1.3379(4) 1.1221(4) 0.6800(3)
O4A_2 O 0.6621(4) 1.1221(4) 0.8200(3)
N1_2 N 1.0950(5) 1.9593(3) 0.6647(3)
N1A N 0.9050(5) 0.9593(3) 0.8353(3)
N2_2 N 1.1125(6) 1.2840(4) 0.6804(4)
N2A N 0.8875(6) 1.2840(4) 0.8196(4)
C1A C 1.4631(6) 1.1369(5) 1.0320(4)
C2A C 1.3344(6) 1.1328(5) 0.9873(4)
H1A H 1.2604 1.1352 1.0090
C3A C 1.3167(5) 1.1252(4) 0.9096(3)
C4A C 1.4270(5) 1.1219(4) 0.8778(3)
H2A H 1.4147 1.1173 0.8257
C5A C 1.5575(6) 1.1256(4) 0.9235(3)
C6A C 1.5757(6) 1.1318(5) 1.0010(4)
H3A H 1.6617 1.1325 1.0320
C7A C 1.1752(5) 1.1226(4) 0.8618(3)
C8A C 1.6771(6) 1.1240(4) 0.8896(3)
C9_2 C 1.1558(6) 1.9027(5) 0.7213(4)
H4_2 H 1.2048 1.9314 0.7652
C10_2 C 1.1498(7) 1.8037(5) 0.7180(4)
H5_2 H 1.1926 1.7673 0.7594
C11_2 C 1.0798(7) 1.7582(5) 0.6529(4)
C12_2 C 1.0165(8) 1.8173(5) 0.5943(4)
H6_2 H 0.9677 1.7907 0.5495
C13_2 C 1.0264(8) 1.9159(5) 0.6028(4)
H7_2 H 0.9825 1.9543 0.5629
C14_2 C 1.0720(10) 1.6546(6) 0.6451(6)
H8_2 H 1.0248 1.6313 0.5987
C15_2 C 1.1225(9) 1.5913(6) 0.6946(5)
H9_2 H 1.1689 1.6149 0.7410
C16_2 C 1.1165(8) 1.4845(6) 0.6871(5)
C17_2 C 1.1755(9) 1.4306(5) 0.7489(5)
H10_2 H 1.2180 1.4605 0.7937
C18_2 C 1.1712(8) 1.3324(5) 0.7439(5)
H11_2 H 1.2109 1.2969 0.7865
C19_2 C 1.0544(10) 1.3359(5) 0.6210(5)
H12_2 H 1.0121 1.3048 0.5767
C20_2 C 1.0551(10) 1.4377(6) 0.6232(5)
H13_2 H 1.0132 1.4727 0.5807
I1A I 1.48914(6) 1.14795(6) 1.14912(3)
O5 O 0.5000 0.453(5) 0.7500
O6 O 0.390(3) 0.463(2) 0.5726(18)
O7 O 0.269(4) 0.364(4) 0.417(2)
O8? O 0.263(4) 0.458(3) 0.409(2)
loop_
_geom_bond_atom_site_label_1
_geom_bond_atom_site_label_2
_geom_bond_site_symmetry_1
_geom_bond_site_symmetry_2
Mn1 O1 1_555 1_555
O1 C7 1_555 1_555
O2 C7 1_555 1_555
O3 C8 1_555 1_555
O4 C8 1_555 1_555
N1 Mn1 1_555 1_555
N2 C18 1_555 1_555
C1 C2 1_555 1_555
C2 H1 1_555 1_555
C3 C2 1_555 1_555
C4 C3 1_555 1_555
H2 C4 1_555 1_555
C5 C4 1_555 1_555
C6 C1 1_555 1_555
H3 C6 1_555 1_555
C7 C3 1_555 1_555
C8 C5 1_555 1_555
C9 N1 1_555 1_555
H4 C9 1_555 1_555
C10 C9 1_555 1_555
H5 C10 1_555 1_555
C11 C10 1_555 1_555
C12 C11 1_555 1_555
H6 C12 1_555 1_555
C13 N1 1_555 1_555
H7 C13 1_555 1_555
C14 C11 1_555 1_555
H8 C14 1_555 1_555
C15 C14 1_555 1_555
H9 C15 1_555 1_555
C16 C15 1_555 1_555
C17 C16 1_555 1_555
H10 C17 1_555 1_555
C18 C17 1_555 1_555
H11 C18 1_555 1_555
C19 N2 1_555 1_555
H12 C19 1_555 1_555
C20 C16 1_555 1_555
H13 C20 1_555 1_555
I1 C1 1_555 1_555
Mn1A O2 1_555 1_555
Mn1_2 O3 1_555 1_555
Mn1_3 N2 1_555 1_555
Mn1A_2 O3A 1_555 1_555
Mn1_4 N1_2 1_555 1_555
O1A Mn1A 1_555 1_555
O2A Mn1 1_555 1_555
O3A C8A 1_555 1_555
O3_2 Mn1 1_555 1_555
O3A_2 Mn1A 1_555 1_555
O4A Mn1A_2 1_555 1_555
O4_2 Mn1 1_555 1_555
O4A_2 Mn1A 1_555 1_555
N1_2 C9_2 1_555 1_555
N1A Mn1A 1_555 1_555
N2_2 Mn1 1_555 1_555
N2A Mn1A 1_555 1_555
C1A C2A 1_555 1_555
C2A H1A 1_555 1_555
C3A C2A 1_555 1_555
C4A C3A 1_555 1_555
H2A C4A 1_555 1_555
C5A C4A 1_555 1_555
C6A C1A 1_555 1_555
H3A C6A 1_555 1_555
C7A O1A 1_555 1_555
C8A O4A 1_555 1_555
C9_2 H4_2 1_555 1_555
C10_2 C9_2 1_555 1_555
H5_2 C10_2 1_555 1_555
C11_2 C10_2 1_555 1_555
C12_2 C11_2 1_555 1_555
H6_2 C12_2 1_555 1_555
C13_2 N1_2 1_555 1_555
H7_2 C13_2 1_555 1_555
C14_2 C11_2 1_555 1_555
H8_2 C14_2 1_555 1_555
C15_2 C14_2 1_555 1_555
H9_2 C15_2 1_555 1_555
C16_2 C15_2 1_555 1_555
C17_2 C16_2 1_555 1_555
H10_2 C17_2 1_555 1_555
C18_2 N2_2 1_555 1_555
H11_2 C18_2 1_555 1_555
C19_2 N2_2 1_555 1_555
H12_2 C19_2 1_555 1_555
C20_2 C16_2 1_555 1_555
H13_2 C20_2 1_555 1_555
I1A C1A 1_555 1_555
O4 Mn1_2 1_555 1_555
C5 C6 1_555 1_555
C12 C13 1_555 1_555
C19 C20 1_555 1_555
O2A C7A 1_555 1_555
C3A C7A 1_555 1_555
C5A C6A 1_555 1_555
C5A C8A 1_555 1_555
C12_2 C13_2 1_555 1_555
C17_2 C18_2 1_555 1_555
C19_2 C20_2 1_555 1_555

#END
