
#######################################################################
#
#                 Cambridge Crystallographic Data Centre
#                                CCDC 
#
#######################################################################
#
# If this CIF has been generated from an entry in the Cambridge 
# Structural Database, then it will include bibliographic, chemical, 
# crystal, experimental, refinement or atomic coordinate data resulting 
# from the CCDC's data processing and validation procedures.
#
#######################################################################

data_EWUQOD
_symmetry_cell_setting           monoclinic
_symmetry_space_group_name_H-M   'P 21/c'
_symmetry_Int_Tables_number      14
_space_group_name_Hall           '-P 2ybc'
loop_
_symmetry_equiv_pos_site_id
_symmetry_equiv_pos_as_xyz
1 x,y,z
2 -x,1/2+y,1/2-z
3 -x,-y,-z
4 x,1/2-y,1/2+z
_cell_length_a                   10.220(10)
_cell_length_b                   14.560(10)
_cell_length_c                   15.010(10)
_cell_angle_alpha                90
_cell_angle_beta                 104.85(2)
_cell_angle_gamma                90
_cell_volume                     2158.94
loop_
_atom_site_label
_atom_site_type_symbol
_atom_site_fract_x
_atom_site_fract_y
_atom_site_fract_z
Co1 Co 0.74217(9) 0.33355(5) -0.04099(5)
O1 O 0.4976(4) 0.3761(3) -0.0181(3)
O2 O 0.5889(4) 0.2454(2) -0.0473(3)
O3 O -0.1177(4) 0.2470(2) -0.0619(3)
O4 O -0.0058(4) 0.3774(3) -0.0481(3)
N1 N 0.8039(5) 0.3756(3) 0.0923(3)
N2 N 0.8837(5) 0.4573(3) 0.2168(3)
N3 N 0.6276(6) 0.9320(3) 0.2975(4)
N4 N 0.6949(5) 1.0647(3) 0.3644(3)
C1 C 0.2496(8) 0.1009(3) -0.0137(4)
C2 C 0.1260(6) 0.1459(4) -0.0275(4)
H1 H 0.0479 0.1137 -0.0263
C3 C 0.1217(7) 0.2413(4) -0.0432(4)
C4 C 0.2414(7) 0.2863(3) -0.0432(3)
H2 H 0.2397 0.3496 -0.0512
C5 C 0.3641(6) 0.2400(4) -0.0316(4)
C6 C 0.3660(7) 0.1459(4) -0.0164(4)
H3 H 0.4466 0.1134 -0.0081
C7 C 0.4933(7) 0.2926(4) -0.0317(4)
C8 C -0.0115(7) 0.2932(4) -0.0537(4)
C9 C 0.8696(6) 0.4506(4) 0.1261(4)
H4 H 0.9021 0.4937 0.0913
C10 C 0.8235(7) 0.3807(4) 0.2438(5)
H5 H 0.8176 0.3656 0.3029
C11 C 0.7754(7) 0.3329(4) 0.1654(5)
H6 H 0.7287 0.2776 0.1619
C12 C 0.9415(7) 0.5352(4) 0.2757(4)
H7 H 1.0182 0.5586 0.2557
H8 H 0.9751 0.5133 0.3384
C13 C 0.8437(8) 0.6141(4) 0.2756(4)
C14 C 0.8962(7) 0.7011(4) 0.3008(4)
H9 H 0.9893 0.7104 0.3157
C15 C 0.8102(9) 0.7744(4) 0.3039(5)
H10 H 0.8470 0.8322 0.3205
C16 C 0.6729(8) 0.7633(4) 0.2829(4)
C17 C 0.6214(7) 0.6763(4) 0.2568(4)
H11 H 0.5283 0.6669 0.2413
C18 C 0.7064(8) 0.6039(4) 0.2537(4)
H12 H 0.6694 0.5463 0.2361
C19 C 0.5696(7) 0.8385(4) 0.2827(4)
H13 H 0.5019 0.8371 0.2242
H14 H 0.5243 0.8254 0.3307
C20 C 0.6812(8) 0.9813(4) 0.2372(5)
H15 H 0.6891 0.9625 0.1795
C21 C 0.7202(7) 1.0627(4) 0.2789(4)
H16 H 0.7586 1.1106 0.2533
C22 C 0.6364(7) 0.9849(4) 0.3725(4)
H17 H 0.6056 0.9677 0.4233
I1 I 0.25661(6) -0.04356(2) 0.01110(3)
Co1_2 Co -0.25783(9) 0.33355(5) -0.04099(5)
Co1C Co 0.74217(9) 1.16645(5) 0.45901(5)
O3_2 O 0.8823(4) 0.2470(2) -0.0619(3)
N4C N 0.6949(5) 0.4353(3) -0.1356(3)
loop_
_geom_bond_atom_site_label_1
_geom_bond_atom_site_label_2
_geom_bond_site_symmetry_1
_geom_bond_site_symmetry_2
Co1 O2 1_555 1_555
O1 C7 1_555 1_555
O2 C7 1_555 1_555
O3 C8 1_555 1_555
O4 C8 1_555 1_555
N1 Co1 1_555 1_555
N2 C9 1_555 1_555
N3 C19 1_555 1_555
N4 C21 1_555 1_555
C1 C2 1_555 1_555
C2 H1 1_555 1_555
C3 C2 1_555 1_555
C4 C3 1_555 1_555
H2 C4 1_555 1_555
C5 C4 1_555 1_555
C6 C1 1_555 1_555
H3 C6 1_555 1_555
C7 C5 1_555 1_555
C8 C3 1_555 1_555
C9 N1 1_555 1_555
H4 C9 1_555 1_555
C10 N2 1_555 1_555
H5 C10 1_555 1_555
C11 N1 1_555 1_555
H6 C11 1_555 1_555
C12 N2 1_555 1_555
H7 C12 1_555 1_555
H8 C12 1_555 1_555
C13 C12 1_555 1_555
C14 C13 1_555 1_555
H9 C14 1_555 1_555
C15 C14 1_555 1_555
H10 C15 1_555 1_555
C16 C15 1_555 1_555
C17 C16 1_555 1_555
H11 C17 1_555 1_555
C18 C13 1_555 1_555
H12 C18 1_555 1_555
C19 C16 1_555 1_555
H13 C19 1_555 1_555
H14 C19 1_555 1_555
C20 N3 1_555 1_555
H15 C20 1_555 1_555
C21 C20 1_555 1_555
H16 C21 1_555 1_555
C22 N3 1_555 1_555
H17 C22 1_555 1_555
I1 C1 1_555 1_555
Co1_2 O3 1_555 1_555
Co1C N4 1_555 1_555
O3_2 Co1 1_555 1_555
N4C Co1 1_555 1_555
N4 C22 1_555 1_555
C5 C6 1_555 1_555
C10 C11 1_555 1_555
C17 C18 1_555 1_555

#END
