
#######################################################################
#
#                 Cambridge Crystallographic Data Centre
#                                CCDC 
#
#######################################################################
#
# If this CIF has been generated from an entry in the Cambridge 
# Structural Database, then it will include bibliographic, chemical, 
# crystal, experimental, refinement or atomic coordinate data resulting 
# from the CCDC's data processing and validation procedures.
#
#######################################################################

data_EWUQUJ
_symmetry_cell_setting           monoclinic
_symmetry_space_group_name_H-M   'C 2/c'
_symmetry_Int_Tables_number      15
_space_group_name_Hall           '-C 2yn'
loop_
_symmetry_equiv_pos_site_id
_symmetry_equiv_pos_as_xyz
1 x,y,z
2 -x,y,1/2-z
3 1/2+x,1/2+y,z
4 1/2-x,1/2+y,1/2-z
5 -x,-y,-z
6 x,-y,1/2+z
7 1/2-x,1/2-y,-z
8 1/2+x,1/2-y,1/2+z
_cell_length_a                   24.2310(4)
_cell_length_b                   10.1656(7)
_cell_length_c                   19.5257(3)
_cell_angle_alpha                90
_cell_angle_beta                 114.9420(10)
_cell_angle_gamma                90
_cell_volume                     4361.05
loop_
_atom_site_label
_atom_site_type_symbol
_atom_site_fract_x
_atom_site_fract_y
_atom_site_fract_z
Co1 Co 0.412221(17) 0.89684(4) 0.11650(2)
O1 O 0.40362(11) 1.1312(2) 0.08820(11)
O2 O 0.40678(9) 1.03230(19) 0.18906(11)
O3 O 0.42146(10) 1.6159(2) 0.08249(12)
O4 O 0.41493(10) 1.7349(2) 0.17435(12)
N1 N 0.48967(11) 0.9091(2) 0.10110(12)
N2 N 0.56925(10) 0.8516(3) 0.08140(12)
N3 N 0.76392(10) 0.6968(3) 0.41365(13)
N4 N 0.83292(11) 0.6172(2) 0.51987(13)
I1 I 0.428043(11) 1.40068(2) 0.408405(11)
C1 C 0.41997(12) 1.3950(3) 0.29704(15)
C2 C 0.41498(12) 1.2738(3) 0.26273(14)
H1 H 0.4141 1.1972 0.2883
C3 C 0.41138(12) 1.2670(3) 0.19015(14)
C4 C 0.41320(12) 1.3813(3) 0.15294(15)
H2 H 0.4115 1.3765 0.1045
C5 C 0.41755(11) 1.5026(3) 0.18662(15)
C6 C 0.42068(12) 1.5099(3) 0.25935(15)
H3 H 0.4232 1.5911 0.2824
C7 C 0.40667(13) 1.1360(3) 0.15326(15)
C8 C 0.41837(13) 1.6262(3) 0.14375(18)
C9 C 0.52058(14) 1.0205(3) 0.09665(16)
H4 H 0.5093 1.1063 0.1012
C10 C 0.56916(13) 0.9866(3) 0.08480(15)
H5 H 0.5974 1.0433 0.0798
C11 C 0.52094(12) 0.8094(3) 0.09168(14)
H6 H 0.5107 0.7213 0.0921
C12 C 0.61377(13) 0.7686(3) 0.07076(16)
H7 H 0.6260 0.8108 0.0348
H8 H 0.5945 0.6858 0.0489
C13 C 0.66977(12) 0.7403(3) 0.14170(15)
C14 C 0.71711(14) 0.6726(4) 0.13514(18)
H9 H 0.7139 0.6483 0.0877
C15 C 0.76893(14) 0.6411(4) 0.1989(2)
H10 H 0.8006 0.5961 0.1942
C16 C 0.77375(14) 0.6760(4) 0.26916(19)
H11 H 0.8085 0.6533 0.3119
C17 C 0.72755(12) 0.7446(3) 0.27691(16)
C18 C 0.67527(12) 0.7758(3) 0.21264(15)
H12 H 0.6437 0.8209 0.2175
C19 C 0.73227(15) 0.7908(4) 0.35246(16)
H13 H 0.7538 0.8741 0.3647
H14 H 0.6916 0.8058 0.3490
C20 C 0.74838(15) 0.5690(4) 0.4183(2)
H15 H 0.7150 0.5240 0.3833
C21 C 0.79081(13) 0.5211(3) 0.48342(18)
H16 H 0.7916 0.4359 0.5011
C22 C 0.81472(12) 0.7210(3) 0.47561(15)
H17 H 0.8348 0.8015 0.4862
Co1_2 Co 0.412221(17) 1.89684(4) 0.11650(2)
Co1G Co 0.912221(17) 0.60316(4) 0.61650(2)
O4_2 O 0.41493(10) 0.7349(2) 0.17435(12)
N4G N 0.33292(11) 0.8828(2) 0.01987(13)
loop_
_geom_bond_atom_site_label_1
_geom_bond_atom_site_label_2
_geom_bond_site_symmetry_1
_geom_bond_site_symmetry_2
Co1 O1 1_555 1_555
O1 C7 1_555 1_555
O2 Co1 1_555 1_555
O3 C8 1_555 1_555
O4 C8 1_555 1_555
N1 Co1 1_555 1_555
N2 C10 1_555 1_555
N3 C19 1_555 1_555
N4 C21 1_555 1_555
I1 C1 1_555 1_555
C1 C2 1_555 1_555
C2 H1 1_555 1_555
C3 C2 1_555 1_555
C4 C3 1_555 1_555
H2 C4 1_555 1_555
C5 C4 1_555 1_555
C6 C1 1_555 1_555
H3 C6 1_555 1_555
C7 O2 1_555 1_555
C8 C5 1_555 1_555
C9 N1 1_555 1_555
H4 C9 1_555 1_555
C10 C9 1_555 1_555
H5 C10 1_555 1_555
C11 N1 1_555 1_555
H6 C11 1_555 1_555
C12 N2 1_555 1_555
H7 C12 1_555 1_555
H8 C12 1_555 1_555
C13 C12 1_555 1_555
C14 C13 1_555 1_555
H9 C14 1_555 1_555
C15 C14 1_555 1_555
H10 C15 1_555 1_555
C16 C15 1_555 1_555
H11 C16 1_555 1_555
C17 C16 1_555 1_555
C18 C13 1_555 1_555
H12 C18 1_555 1_555
C19 C17 1_555 1_555
H13 C19 1_555 1_555
H14 C19 1_555 1_555
C20 N3 1_555 1_555
H15 C20 1_555 1_555
C21 C20 1_555 1_555
H16 C21 1_555 1_555
C22 N3 1_555 1_555
H17 C22 1_555 1_555
Co1_2 O4 1_555 1_555
Co1G N4 1_555 1_555
O4_2 Co1 1_555 1_555
N4G Co1 1_555 1_555
N2 C11 1_555 1_555
N4 C22 1_555 1_555
C3 C7 1_555 1_555
C5 C6 1_555 1_555
C17 C18 1_555 1_555

#END
