
#######################################################################
#
#                 Cambridge Crystallographic Data Centre
#                                CCDC 
#
#######################################################################
#
# If this CIF has been generated from an entry in the Cambridge 
# Structural Database, then it will include bibliographic, chemical, 
# crystal, experimental, refinement or atomic coordinate data resulting 
# from the CCDC's data processing and validation procedures.
#
#######################################################################

data_EWUQAP
_symmetry_cell_setting           monoclinic
_symmetry_space_group_name_H-M   'P 21/c'
_symmetry_Int_Tables_number      14
_space_group_name_Hall           '-P 2ybc'
loop_
_symmetry_equiv_pos_site_id
_symmetry_equiv_pos_as_xyz
1 x,y,z
2 -x,1/2+y,1/2-z
3 -x,-y,-z
4 x,1/2-y,1/2+z
_cell_length_a                   10.433(5)
_cell_length_b                   14.803(7)
_cell_length_c                   26.493(12)
_cell_angle_alpha                90
_cell_angle_beta                 109.450(17)
_cell_angle_gamma                90
_cell_volume                     3858.07
loop_
_atom_site_label
_atom_site_type_symbol
_atom_site_fract_x
_atom_site_fract_y
_atom_site_fract_z
Cd1 Cd 0.70932(4) 0.15932(3) 0.110461(15)
Cd2 Cd 0.59860(4) 0.41261(3) 0.116946(15)
I1 I -0.04744(4) 0.32403(3) -0.136664(17)
I2 I 0.51855(5) 0.43322(3) 0.34721(2)
N1 N 0.8223(5) 0.4466(4) 0.17209(19)
N2 N 0.7460(5) 0.4200(4) 0.06478(19)
N3 N 0.9341(4) 0.2058(3) 0.16197(19)
N4 N 0.8401(5) 0.1723(4) 0.05351(19)
O1 O 0.5562(4) 0.2535(3) 0.05474(19)
O2 O 0.4130(4) 0.3668(3) 0.04829(18)
O3 O 0.3830(4) -0.0251(3) -0.06229(16)
O4 O 0.1808(4) -0.0147(3) -0.12543(16)
O5 O 0.4785(5) 0.0662(3) 0.38958(16)
O6 O 0.4965(4) -0.0173(3) 0.32240(17)
O7 O 0.6329(5) 0.1357(3) 0.17883(18)
O8 O 0.6493(4) 0.2851(3) 0.17749(17)
C1 C 0.1341(5) 0.2555(4) -0.0921(2)
C2 C 0.2286(5) 0.2972(4) -0.0475(2)
H1 H 0.2157 0.3564 -0.0385
C3 C 0.3433(5) 0.2477(4) -0.0168(2)
C4 C 0.3626(5) 0.1591(4) -0.0302(2)
H2 H 0.4390 0.1270 -0.0098
C5 C 0.2665(5) 0.1184(4) -0.0744(2)
C6 C 0.1533(5) 0.1671(4) -0.1053(2)
H3 H 0.0903 0.1402 -0.1350
C7 C 0.4435(5) 0.2913(4) 0.0325(2)
C8 C 0.2786(5) 0.0192(4) -0.0881(2)
C9 C 0.7941(7) 0.1551(6) 0.0011(3)
H4 H 0.7011 0.1584 -0.0171
C10 C 0.8804(9) 0.1325(7) -0.0273(3)
H5 H 0.8450 0.1204 -0.0638
C11 C 1.0176(9) 0.1284(6) -0.0011(3)
H6 H 1.0755 0.1129 -0.0199
C12 C 1.0716(7) 0.1474(6) 0.0540(3)
C13 C 1.2142(7) 0.1445(6) 0.0842(3)
H7 H 1.2758 0.1301 0.0669
C14 C 1.2612(7) 0.1624(6) 0.1375(4)
H8 H 1.3541 0.1602 0.1560
C15 C 1.1697(6) 0.1847(5) 0.1655(3)
C16 C 1.2113(6) 0.2028(6) 0.2205(3)
H9 H 1.3033 0.2009 0.2406
C17 C 1.1194(7) 0.2232(5) 0.2451(3)
H10 H 1.1477 0.2372 0.2813
C18 C 0.9800(6) 0.2227(5) 0.2142(2)
H11 H 0.9171 0.2347 0.2312
C19 C 1.0264(6) 0.1874(4) 0.1374(2)
C20 C 0.9764(6) 0.1695(4) 0.0803(2)
C21 C 0.7086(7) 0.4095(5) 0.0117(2)
H12 H 0.6165 0.4096 -0.0083
C22 C 0.8042(9) 0.3982(6) -0.0151(3)
H13 H 0.7749 0.3914 -0.0521
C23 C 0.9398(9) 0.3974(6) 0.0137(3)
H14 H 1.0028 0.3879 -0.0036
C24 C 0.9847(7) 0.4107(5) 0.0695(3)
C25 C 1.1266(8) 0.4140(6) 0.1032(5)
H15 H 1.1935 0.4055 0.0876
C26 C 1.1639(7) 0.4289(6) 0.1560(5)
H16 H 1.2558 0.4302 0.1763
C27 C 1.0628(7) 0.4429(5) 0.1817(3)
C28 C 1.0947(8) 0.4632(6) 0.2370(4)
H17 H 1.1849 0.4680 0.2590
C29 C 0.9917(10) 0.4757(6) 0.2579(3)
H18 H 1.0114 0.4908 0.2937
C30 C 0.8575(8) 0.4653(5) 0.2246(2)
H19 H 0.7888 0.4717 0.2394
C31 C 0.9213(6) 0.4364(4) 0.1509(3)
C32 C 0.8825(6) 0.4211(4) 0.0936(2)
C33 C 0.5034(6) 0.0572(4) 0.3461(2)
C34 C 0.5409(5) 0.1421(4) 0.3215(2)
C35 C 0.5292(6) 0.2268(4) 0.3433(2)
H20 H 0.5076 0.2306 0.3746
C36 C 0.5502(6) 0.3059(4) 0.3177(2)
C37 C 0.5815(5) 0.3008(4) 0.2709(2)
H21 H 0.5936 0.3534 0.2539
C38 C 0.5946(5) 0.2174(4) 0.2497(2)
C39 C 0.5752(5) 0.1377(4) 0.2749(2)
H22 H 0.5851 0.0819 0.2605
C40 C 0.6270(5) 0.2141(4) 0.1982(2)
Cd1B Cd 0.29068(4) -0.15932(3) -0.110461(15)
Cd2A Cd 0.40140(4) -0.08739(3) 0.383054(15)
O3B O 0.6170(4) 0.0251(3) 0.06229(16)
O4B O 0.8192(4) 0.0147(3) 0.12543(16)
O5A O 0.5215(5) 0.5662(3) 0.11042(16)
O6A O 0.5035(4) 0.4827(3) 0.17760(17)
loop_
_geom_bond_atom_site_label_1
_geom_bond_atom_site_label_2
_geom_bond_site_symmetry_1
_geom_bond_site_symmetry_2
Cd1 N3 1_555 1_555
Cd2 N1 1_555 1_555
I1 C1 1_555 1_555
I2 C36 1_555 1_555
N1 C30 1_555 1_555
N2 Cd2 1_555 1_555
N3 C18 1_555 1_555
N4 Cd1 1_555 1_555
O1 Cd1 1_555 1_555
O2 Cd2 1_555 1_555
O3 C8 1_555 1_555
O4 C8 1_555 1_555
O5 C33 1_555 1_555
O6 C33 1_555 1_555
O7 Cd1 1_555 1_555
O8 Cd2 1_555 1_555
C1 C2 1_555 1_555
C2 H1 1_555 1_555
C3 C2 1_555 1_555
C4 C3 1_555 1_555
H2 C4 1_555 1_555
C5 C4 1_555 1_555
C6 C1 1_555 1_555
H3 C6 1_555 1_555
C7 O1 1_555 1_555
C8 C5 1_555 1_555
C9 N4 1_555 1_555
H4 C9 1_555 1_555
C10 C9 1_555 1_555
H5 C10 1_555 1_555
C11 C10 1_555 1_555
H6 C11 1_555 1_555
C12 C11 1_555 1_555
C13 C12 1_555 1_555
H7 C13 1_555 1_555
C14 C13 1_555 1_555
H8 C14 1_555 1_555
C15 C14 1_555 1_555
C16 C15 1_555 1_555
H9 C16 1_555 1_555
C17 C16 1_555 1_555
H10 C17 1_555 1_555
C18 C17 1_555 1_555
H11 C18 1_555 1_555
C19 N3 1_555 1_555
C20 N4 1_555 1_555
C21 N2 1_555 1_555
H12 C21 1_555 1_555
C22 C21 1_555 1_555
H13 C22 1_555 1_555
C23 C22 1_555 1_555
H14 C23 1_555 1_555
C24 C23 1_555 1_555
C25 C24 1_555 1_555
H15 C25 1_555 1_555
C26 C25 1_555 1_555
H16 C26 1_555 1_555
C27 C26 1_555 1_555
C28 C27 1_555 1_555
H17 C28 1_555 1_555
C29 C28 1_555 1_555
H18 C29 1_555 1_555
C30 C29 1_555 1_555
H19 C30 1_555 1_555
C31 N1 1_555 1_555
C32 N2 1_555 1_555
C33 C34 1_555 1_555
C34 C35 1_555 1_555
C35 H20 1_555 1_555
C36 C35 1_555 1_555
C37 C36 1_555 1_555
H21 C37 1_555 1_555
C38 C37 1_555 1_555
C39 C34 1_555 1_555
H22 C39 1_555 1_555
C40 O7 1_555 1_555
Cd1B O3 1_555 1_555
Cd2A O5 1_555 1_555
O3B Cd1 1_555 1_555
O4B Cd1 1_555 1_555
O5A Cd2 1_555 1_555
O6A Cd2 1_555 1_555
O2 C7 1_555 1_555
O4 Cd1B 1_555 1_555
O6 Cd2A 1_555 1_555
O8 C40 1_555 1_555
C3 C7 1_555 1_555
C5 C6 1_555 1_555
C12 C20 1_555 1_555
C15 C19 1_555 1_555
C19 C20 1_555 1_555
C24 C32 1_555 1_555
C27 C31 1_555 1_555
C31 C32 1_555 1_555
C38 C39 1_555 1_555
C38 C40 1_555 1_555

#END
