
#######################################################################
#
#                 Cambridge Crystallographic Data Centre
#                                CCDC 
#
#######################################################################
#
# If this CIF has been generated from an entry in the Cambridge 
# Structural Database, then it will include bibliographic, chemical, 
# crystal, experimental, refinement or atomic coordinate data resulting 
# from the CCDC's data processing and validation procedures.
#
#######################################################################

data_EWUSIZ
_symmetry_cell_setting           orthorhombic
_symmetry_space_group_name_H-M   'P 21 21 21'
_symmetry_Int_Tables_number      19
_space_group_name_Hall           'P 2ac 2ab'
loop_
_symmetry_equiv_pos_site_id
_symmetry_equiv_pos_as_xyz
1 x,y,z
2 1/2-x,-y,1/2+z
3 1/2+x,1/2-y,-z
4 -x,1/2+y,1/2-z
_cell_length_a                   14.4202(5)
_cell_length_b                   12.8149(4)
_cell_length_c                   6.6909(2)
_cell_angle_alpha                90
_cell_angle_beta                 90
_cell_angle_gamma                90
_cell_volume                     1236.43
loop_
_atom_site_label
_atom_site_type_symbol
_atom_site_fract_x
_atom_site_fract_y
_atom_site_fract_z
Zn1 Zn 0.53851(20) 0.79146(21) 0.64095(45)
O1 O 0.40373(32) 0.80801(31) 0.75291(79)
O2 O 0.13918(54) 0.78435(31) 1.0540(12)
O3 O 0.12142(56) 0.62322(34) 1.1792(13)
O4 O 0.53876(23) 0.88922(54) 0.38800(83)
O5 O 0.48530(29) 1.14519(63) -0.0340(17)
O6 O 0.33313(32) 1.17978(39) 0.0012(19)
N1 N 0.27531(28) 0.71704(42) 0.80718(69)
N2 N 0.47082(33) 0.95910(51) 0.12264(74)
C1 C 0.36505(28) 0.73663(28) 0.83576(69)
C2 C 0.40106(28) 0.65750(45) 0.9740(11)
C3 C 0.31689(29) 0.60935(47) 1.0773(13)
C4 C 0.23529(29) 0.64242(30) 0.94521(93)
C5 C 0.15681(28) 0.69064(27) 1.07262(69)
C6 C 0.46985(22) 0.92309(39) 0.30863(75)
C7 C 0.37379(28) 0.92977(45) 0.3779(12)
C8 C 0.32222(26) 1.00226(51) 0.2350(14)
C9 C 0.38579(31) 1.00927(35) 0.05372(96)
C10 C 0.40325(24) 1.12445(40) -0.00030(74)
H1 H 0.20488(36) 0.57617(45) 0.8645(13)
H2 H 0.23468(28) 0.76512(66) 0.72333(77)
H3 H 0.35804(65) 0.96926(35) -0.0776(13)
H4 H 0.53083(45) 0.96370(79) 0.04394(93)
H5 H 0.43935(33) 0.60000(37) 0.8834(15)
H6 H 0.45026(29) 0.69593(75) 1.07486(91)
H7 H 0.32355(37) 0.52437(51) 1.0924(19)
H8 H 0.30784(28) 0.64135(75) 1.2295(10)
H9 H 0.34526(26) 0.85009(54) 0.3742(17)
H10 H 0.37469(61) 0.95725(55) 0.5328(12)
H11 H 0.25264(23) 0.97348(74) 0.1992(21)
H12 H 0.31391(57) 1.08043(59) 0.3023(13)
Zn1B Zn 0.03851(20) 0.70854(21) 1.35905(45)
Zn1C Zn 0.46149(20) 1.29146(21) -0.14095(45)
O2B O 0.63918(54) 0.71565(31) 0.9460(12)
O3B O 0.62142(56) 0.87678(34) 0.8208(13)
O5C O 0.51470(29) 0.64519(63) 0.5340(17)
O6C O 0.66687(32) 0.67978(39) 0.4988(19)
loop_
_geom_bond_atom_site_label_1
_geom_bond_atom_site_label_2
_geom_bond_site_symmetry_1
_geom_bond_site_symmetry_2
Zn1 O1 1_555 1_555
O1 C1 1_555 1_555
O2 C5 1_555 1_555
O3 C5 1_555 1_555
O4 Zn1 1_555 1_555
O5 C10 1_555 1_555
O6 C10 1_555 1_555
N1 C1 1_555 1_555
N2 C6 1_555 1_555
C1 C2 1_555 1_555
C2 C3 1_555 1_555
C3 C4 1_555 1_555
C4 N1 1_555 1_555
C5 C4 1_555 1_555
C6 O4 1_555 1_555
C7 C6 1_555 1_555
C8 C7 1_555 1_555
C9 N2 1_555 1_555
C10 C9 1_555 1_555
H1 C4 1_555 1_555
H2 N1 1_555 1_555
H3 C9 1_555 1_555
H4 N2 1_555 1_555
H5 C2 1_555 1_555
H6 C2 1_555 1_555
H7 C3 1_555 1_555
H8 C3 1_555 1_555
H9 C7 1_555 1_555
H10 C7 1_555 1_555
H11 C8 1_555 1_555
H12 C8 1_555 1_555
Zn1B O2 1_555 1_555
Zn1C O5 1_555 1_555
O2B Zn1 1_555 1_555
O3B Zn1 1_555 1_555
O5C Zn1 1_555 1_555
O6C Zn1 1_555 1_555
O3 Zn1B 1_555 1_555
O6 Zn1C 1_555 1_555
C8 C9 1_555 1_555

#END
