
#######################################################################
#
#                 Cambridge Crystallographic Data Centre
#                                CCDC 
#
#######################################################################
#
# If this CIF has been generated from an entry in the Cambridge 
# Structural Database, then it will include bibliographic, chemical, 
# crystal, experimental, refinement or atomic coordinate data resulting 
# from the CCDC's data processing and validation procedures.
#
#######################################################################

data_EWUTAS
_symmetry_cell_setting           triclinic
_symmetry_space_group_name_H-M   'P -1'
_symmetry_Int_Tables_number      2
_space_group_name_Hall           '-P 1'
loop_
_symmetry_equiv_pos_site_id
_symmetry_equiv_pos_as_xyz
1 x,y,z
2 -x,-y,-z
_cell_length_a                   9.783(11)
_cell_length_b                   14.226(16)
_cell_length_c                   19.58(2)
_cell_angle_alpha                72.595(14)
_cell_angle_beta                 78.897(14)
_cell_angle_gamma                87.935(14)
_cell_volume                     2550.89
loop_
_atom_site_label
_atom_site_type_symbol
_atom_site_fract_x
_atom_site_fract_y
_atom_site_fract_z
C1 C -0.0331(6) -0.9643(4) 0.9715(3)
C2 C -0.0229(7) -0.8281(6) 0.8654(4)
H1 H 0.0311 -0.7775 0.8299
C3 C -0.1685(8) -0.9727(6) 0.9685(4)
H2 H -0.2237 -1.0225 1.0040
C4 C -0.2272(7) -0.9092(6) 0.9139(4)
H3 H -0.3202 -0.9187 0.9128
N1 N -0.1541(5) -0.8344(4) 0.8624(3)
C5 C 0.0414(7) -0.8918(6) 0.9179(4)
H4 H 0.1362 -0.8843 0.9160
C6 C -0.3503(7) -0.6705(5) 0.5172(4)
H5 H -0.3737 -0.7307 0.5124
C7 C -0.3728(7) -0.5624(5) 0.5829(3)
H6 H -0.4113 -0.5463 0.6251
N2 N -0.4085(5) -0.6492(4) 0.5784(3)
Mo1 Mo 0.52996(5) -0.22232(4) 0.19001(3)
Cu1 Cu 0.25374(7) -0.25740(5) 0.22211(4)
Cu2 Cu 0.51531(7) -0.23902(5) 0.33190(4)
Cu3 Cu 0.58936(9) -0.41531(6) 0.22403(4)
S1 S 0.68580(15) -0.29840(12) 0.26001(8)
S2 S 0.37032(16) -0.15163(11) 0.25899(9)
S3 S 0.41782(17) -0.33970(13) 0.16299(9)
N3 N 0.5952(5) -0.1603(3) 0.3876(2)
C8 C -0.1120(6) -0.4497(4) 0.4070(3)
C9 C -0.0834(6) -0.4606(4) 0.3372(3)
H7 H -0.1340 -0.5056 0.3253
C10 C 0.6755(7) -0.2053(5) 0.4335(4)
H8 H 0.6944 -0.2713 0.4385
C11 C 0.7337(7) -0.1592(5) 0.4750(4)
H9 H 0.7901 -0.1945 0.5066
C12 C 0.0615(7) -0.3220(5) 0.3652(3)
H10 H 0.1100 -0.2741 0.3752
C13 C -0.0399(6) -0.3773(4) 0.4200(3)
H11 H -0.0595 -0.3659 0.4652
C14 C 0.0225(6) -0.4027(4) 0.2860(3)
H12 H 0.0447 -0.4128 0.2404
C15 C 0.7084(6) -0.0616(4) 0.4696(3)
C16 C 0.6214(7) -0.0147(5) 0.4226(4)
H13 H 0.5994 0.0510 0.4171
C17 C 0.5669(7) -0.0666(5) 0.3836(3)
H14 H 0.5072 -0.0341 0.3529
N4 N 0.0947(5) -0.3330(3) 0.2982(3)
C18 C -0.2205(6) -0.5173(4) 0.4665(3)
C19 C -0.2825(7) -0.4940(5) 0.5294(3)
H15 H -0.2637 -0.4336 0.5354
C20 C -0.2573(8) -0.6085(5) 0.4606(4)
H16 H -0.2199 -0.6271 0.4193
O1 O 0.6107(4) -0.1364(3) 0.1127(2)
C21 C 0.7688(7) -0.0106(5) 0.5120(4)
C22 C 0.7740(8) -0.0527(6) 0.5851(4)
H17 H 0.7392 -0.1164 0.6094
C23 C 0.8241(8) 0.0856(5) 0.4821(4)
H18 H 0.8221 0.1194 0.4336
C24 C 0.8815(9) 0.1306(6) 0.5234(6)
H19 H 0.9190 0.1940 0.5012
C25 C 0.8314(10) 0.0009(8) 0.6215(5)
H20 H 0.8307 -0.0287 0.6709
N5 N 0.8864(8) 0.0893(6) 0.5927(5)
N6 N 0.7541(7) -0.4452(5) 0.1418(3)
C26 C 0.9483(8) -0.4885(6) 0.0298(4)
C27 C 0.7889(12) -0.5361(7) 0.1452(5)
H21 H 0.7474 -0.5867 0.1856
C28 C 0.8856(12) -0.5602(7) 0.0910(5)
H22 H 0.9078 -0.6258 0.0964
C29 C 0.9175(14) -0.3938(7) 0.0288(6)
H23 H 0.9619 -0.3411 -0.0090
C30 C 0.8176(12) -0.3773(7) 0.0857(6)
H24 H 0.7954 -0.3123 0.0827
N8 N 0.5628(7) -0.5511(4) 0.2905(3)
C34 C 0.5629(8) -0.6285(6) 0.3158(4)
S4 S 0.5641(5) -0.7490(2) 0.3574(2)
C1A C 0.0331(6) -1.0357(4) 1.0285(3)
C2A C 0.0229(7) -1.1719(6) 1.1346(4)
H1A H -0.0311 -1.2225 1.1701
C3A C 0.1685(8) -1.0273(6) 1.0315(4)
H2A H 0.2237 -0.9775 0.9960
C4A C 0.2272(7) -1.0908(6) 1.0861(4)
H3A H 0.3202 -1.0813 1.0872
N1A N 0.1541(5) -0.1656(4) 0.1376(3)
N1A_2 N 0.1541(5) -1.1656(4) 1.1376(3)
C5A C -0.0414(7) -1.1082(6) 1.0821(4)
H4A H -0.1362 -1.1157 1.0840
C6A C 0.3503(7) -0.3295(5) 0.4828(4)
H5A H 0.3737 -0.2693 0.4876
C7A C 0.3728(7) -0.4376(5) 0.4171(3)
H6A H 0.4113 -0.4537 0.3749
N2A N 0.4085(5) -0.3508(4) 0.4216(3)
Mo1A Mo -0.52996(5) -0.77768(4) 0.80999(3)
Cu1A Cu -0.25374(7) -0.74260(5) 0.77789(4)
Cu1_2 Cu 0.25374(7) -1.25740(5) 1.22211(4)
Cu2A Cu -0.51531(7) -0.76098(5) 0.66810(4)
Cu3A Cu 1.41064(9) -0.58469(6) -0.22403(4)
Cu3A_2 Cu -0.58936(9) -0.58469(6) 0.77597(4)
S1A S -0.68580(15) -0.70160(12) 0.73999(8)
S2A S -0.37032(16) -0.84837(11) 0.74101(9)
S3A S -0.41782(17) -0.66030(13) 0.83701(9)
N3A N -0.5952(5) -0.8397(3) 0.6124(2)
C8A C 0.1120(6) -0.5503(4) 0.5930(3)
C9A C 0.0834(6) -0.5394(4) 0.6628(3)
H7A H 0.1340 -0.4944 0.6747
C10A C -0.6755(7) -0.7947(5) 0.5665(4)
H8A H -0.6944 -0.7287 0.5615
C11A C -0.7337(7) -0.8408(5) 0.5250(4)
H9A H -0.7901 -0.8055 0.4934
C12A C -0.0615(7) -0.6780(5) 0.6348(3)
H10A H -0.1100 -0.7259 0.6248
C13A C 0.0399(6) -0.6227(4) 0.5800(3)
H11A H 0.0595 -0.6341 0.5348
C14A C -0.0225(6) -0.5973(4) 0.7140(3)
H12A H -0.0447 -0.5872 0.7596
C15A C -0.7084(6) -0.9384(4) 0.5304(3)
C16A C -0.6214(7) -0.9853(5) 0.5774(4)
H13A H -0.5994 -1.0510 0.5829
C17A C -0.5669(7) -0.9334(5) 0.6164(3)
H14A H -0.5072 -0.9659 0.6471
N4A N -0.0947(5) -0.6670(3) 0.7018(3)
C18A C 0.2205(6) -0.4827(4) 0.5335(3)
C19A C 0.2825(7) -0.5060(5) 0.4706(3)
H15A H 0.2637 -0.5664 0.4646
C20A C 0.2573(8) -0.3915(5) 0.5394(4)
H16A H 0.2199 -0.3729 0.5807
O1A O -0.6107(4) -0.8636(3) 0.8873(2)
C21A C -0.7688(7) -0.9894(5) 0.4880(4)
C22A C -0.7740(8) -0.9473(6) 0.4149(4)
H17A H -0.7392 -0.8836 0.3906
C23A C -0.8241(8) -1.0856(5) 0.5179(4)
H18A H -0.8221 -1.1194 0.5664
C24A C -0.8815(9) -1.1306(6) 0.4766(6)
H19A H -0.9190 -1.1940 0.4988
C25A C -0.8314(10) -1.0009(8) 0.3785(5)
H20A H -0.8307 -0.9713 0.3291
N5A N -0.8864(8) -1.0893(6) 0.4073(5)
N6A N 1.2459(7) -0.5548(5) -0.1418(3)
N6A_2 N -0.7541(7) -0.5548(5) 0.8582(3)
C26A C 1.0517(8) -0.5115(6) -0.0298(4)
C27A C 1.2111(12) -0.4639(7) -0.1452(5)
H21A H 1.2526 -0.4133 -0.1856
C28A C 1.1144(12) -0.4398(7) -0.0910(5)
H22A H 1.0922 -0.3742 -0.0964
C29A C 1.0825(14) -0.6062(7) -0.0288(6)
H23A H 1.0381 -0.6589 0.0090
C30A C 1.1824(12) -0.6227(7) -0.0857(6)
H24A H 1.2046 -0.6877 -0.0827
N8A N -0.5628(7) -0.4489(4) 0.7095(3)
C34A C -0.5629(8) -0.3715(6) 0.6842(4)
S4A S -0.5641(5) -0.2510(2) 0.6426(2)
O2 O 0.9009(8) -0.3308(5) 0.5893(4)
N7 N 0.8581(10) -0.3478(6) 0.7119(5)
C31 C 0.8337(12) -0.3607(8) 0.6522(8)
H25 H 0.7538 -0.3980 0.6578
C32 C 0.9734(15) -0.2889(9) 0.7073(7)
H26 H 1.0566 -0.3152 0.6857
H27 H 0.9810 -0.2882 0.7554
H28 H 0.9616 -0.2229 0.6778
C33 C 0.7726(17) -0.3944(11) 0.7848(7)
H29 H 0.6887 -0.3583 0.7910
H30 H 0.8244 -0.3940 0.8217
H31 H 0.7494 -0.4611 0.7890
loop_
_geom_bond_atom_site_label_1
_geom_bond_atom_site_label_2
_geom_bond_site_symmetry_1
_geom_bond_site_symmetry_2
C1 C3 1_555 1_555
C2 H1 1_555 1_555
C3 H2 1_555 1_555
C4 C3 1_555 1_555
H3 C4 1_555 1_555
N1 C2 1_555 1_555
C5 C1 1_555 1_555
H4 C5 1_555 1_555
C6 H5 1_555 1_555
C7 H6 1_555 1_555
N2 C6 1_555 1_555
Mo1 Cu1 1_555 1_555
Cu1 S2 1_555 1_555
Cu2 Mo1 1_555 1_555
Cu3 Mo1 1_555 1_555
S1 Mo1 1_555 1_555
S2 Mo1 1_555 1_555
S3 Mo1 1_555 1_555
N3 Cu2 1_555 1_555
C8 C9 1_555 1_555
C9 H7 1_555 1_555
C10 N3 1_555 1_555
H8 C10 1_555 1_555
C11 C10 1_555 1_555
H9 C11 1_555 1_555
C12 H10 1_555 1_555
C13 C8 1_555 1_555
H11 C13 1_555 1_555
C14 C9 1_555 1_555
H12 C14 1_555 1_555
C15 C11 1_555 1_555
C16 C15 1_555 1_555
H13 C16 1_555 1_555
C17 N3 1_555 1_555
H14 C17 1_555 1_555
N4 Cu1 1_555 1_555
C18 C8 1_555 1_555
C19 C7 1_555 1_555
H15 C19 1_555 1_555
C20 C6 1_555 1_555
H16 C20 1_555 1_555
O1 Mo1 1_555 1_555
C21 C15 1_555 1_555
C22 C21 1_555 1_555
H17 C22 1_555 1_555
C23 C21 1_555 1_555
H18 C23 1_555 1_555
C24 C23 1_555 1_555
H19 C24 1_555 1_555
C25 C22 1_555 1_555
H20 C25 1_555 1_555
N5 C24 1_555 1_555
N6 Cu3 1_555 1_555
C26 C28 1_555 1_555
C27 N6 1_555 1_555
H21 C27 1_555 1_555
C28 C27 1_555 1_555
H22 C28 1_555 1_555
C29 C26 1_555 1_555
H23 C29 1_555 1_555
C30 N6 1_555 1_555
H24 C30 1_555 1_555
O2 C31 1_555 1_555
N7 C31 1_555 1_555
C31 H25 1_555 1_555
C32 N7 1_555 1_555
H26 C32 1_555 1_555
H27 C32 1_555 1_555
H28 C32 1_555 1_555
C33 N7 1_555 1_555
H29 C33 1_555 1_555
H30 C33 1_555 1_555
H31 C33 1_555 1_555
N8 Cu3 1_555 1_555
C34 N8 1_555 1_555
S4 C34 1_555 1_555
C1A C1 1_555 1_555
C2A H1A 1_555 1_555
C3A C1A 1_555 1_555
H2A C3A 1_555 1_555
C4A C3A 1_555 1_555
H3A C4A 1_555 1_555
N1A Cu1 1_555 1_555
N1A_2 C2A 1_555 1_555
C5A C1A 1_555 1_555
H4A C5A 1_555 1_555
C6A H5A 1_555 1_555
C7A H6A 1_555 1_555
N2A Cu2 1_555 1_555
Mo1A Cu1A 1_555 1_555
Cu1A N1 1_555 1_555
Cu1_2 N1A_2 1_555 1_555
Cu2A N2 1_555 1_555
Cu3A N6A 1_555 1_555
Cu3A_2 Mo1A 1_555 1_555
S1A Mo1A 1_555 1_555
S2A Mo1A 1_555 1_555
S3A Mo1A 1_555 1_555
N3A Cu2A 1_555 1_555
C8A C9A 1_555 1_555
C9A H7A 1_555 1_555
C10A N3A 1_555 1_555
H8A C10A 1_555 1_555
C11A C10A 1_555 1_555
H9A C11A 1_555 1_555
C12A H10A 1_555 1_555
C13A C8A 1_555 1_555
H11A C13A 1_555 1_555
C14A C9A 1_555 1_555
H12A C14A 1_555 1_555
C15A C11A 1_555 1_555
C16A C15A 1_555 1_555
H13A C16A 1_555 1_555
C17A N3A 1_555 1_555
H14A C17A 1_555 1_555
N4A Cu1A 1_555 1_555
C18A C8A 1_555 1_555
C19A C7A 1_555 1_555
H15A C19A 1_555 1_555
C20A C6A 1_555 1_555
H16A C20A 1_555 1_555
O1A Mo1A 1_555 1_555
C21A C15A 1_555 1_555
C22A C21A 1_555 1_555
H17A C22A 1_555 1_555
C23A C21A 1_555 1_555
H18A C23A 1_555 1_555
C24A C23A 1_555 1_555
H19A C24A 1_555 1_555
C25A C22A 1_555 1_555
H20A C25A 1_555 1_555
N5A C24A 1_555 1_555
N6A C27A 1_555 1_555
N6A_2 Cu3A_2 1_555 1_555
C26A C26 1_555 1_555
C27A H21A 1_555 1_555
C28A C26A 1_555 1_555
H22A C28A 1_555 1_555
C29A C26A 1_555 1_555
H23A C29A 1_555 1_555
C30A N6A 1_555 1_555
H24A C30A 1_555 1_555
N8A Cu3A_2 1_555 1_555
C34A N8A 1_555 1_555
S4A C34A 1_555 1_555
C2 C5 1_555 1_555
C4 N1 1_555 1_555
C7 N2 1_555 1_555
Cu1 S3 1_555 1_555
Cu2 S1 1_555 1_555
Cu2 S2 1_555 1_555
Cu3 S1 1_555 1_555
Cu3 S3 1_555 1_555
C12 C13 1_555 1_555
C12 N4 1_555 1_555
C14 N4 1_555 1_555
C16 C17 1_555 1_555
C18 C19 1_555 1_555
C18 C20 1_555 1_555
C25 N5 1_555 1_555
C29 C30 1_555 1_555
C2A C5A 1_555 1_555
C4A N1A_2 1_555 1_555
C6A N2A 1_555 1_555
C7A N2A 1_555 1_555
Mo1A Cu2A 1_555 1_555
Cu1A S2A 1_555 1_555
Cu1A S3A 1_555 1_555
Cu2A S1A 1_555 1_555
Cu2A S2A 1_555 1_555
Cu3A_2 S1A 1_555 1_555
Cu3A_2 S3A 1_555 1_555
C12A C13A 1_555 1_555
C12A N4A 1_555 1_555
C14A N4A 1_555 1_555
C16A C17A 1_555 1_555
C18A C19A 1_555 1_555
C18A C20A 1_555 1_555
C25A N5A 1_555 1_555
C27A C28A 1_555 1_555
C29A C30A 1_555 1_555

#END
