
#######################################################################
#
#                 Cambridge Crystallographic Data Centre
#                                CCDC 
#
#######################################################################
#
# If this CIF has been generated from an entry in the Cambridge 
# Structural Database, then it will include bibliographic, chemical, 
# crystal, experimental, refinement or atomic coordinate data resulting 
# from the CCDC's data processing and validation procedures.
#
#######################################################################

data_EWUTAR
_symmetry_cell_setting           triclinic
_symmetry_space_group_name_H-M   'P -1'
_symmetry_Int_Tables_number      2
_space_group_name_Hall           '-P 1'
loop_
_symmetry_equiv_pos_site_id
_symmetry_equiv_pos_as_xyz
1 x,y,z
2 -x,-y,-z
_cell_length_a                   10.1796(4)
_cell_length_b                   14.9014(6)
_cell_length_c                   16.4192(6)
_cell_angle_alpha                80.3140(10)
_cell_angle_beta                 77.0320(10)
_cell_angle_gamma                85.0370(10)
_cell_volume                     2389.43
loop_
_atom_site_label
_atom_site_type_symbol
_atom_site_fract_x
_atom_site_fract_y
_atom_site_fract_z
Pb1 Pb 0.87634(8) 0.85180(6) 0.09326(5)
Pb2 Pb 1.09914(8) 1.08178(6) -0.30569(5)
Pb3 Pb 1.05340(8) 0.87822(6) -0.46567(6)
Pb4 Pb 1.23226(8) 0.95419(6) 0.09423(5)
Pb5 Pb 1.45790(8) 0.93292(6) -0.58160(6)
Pb6 Pb 1.42933(9) 0.97600(6) -0.17845(6)
Pb7 Pb 0.61121(10) 0.64510(6) 0.45097(6)
P1 P 1.0994(6) 0.9155(4) -0.0915(3)
P2 P 1.2987(5) 0.8885(4) -0.3478(3)
P3 P 0.8204(6) 0.9717(4) -0.3167(4)
P4 P 0.7259(5) 0.8532(4) -0.4889(4)
P5 P 0.5876(6) 0.8758(4) 0.0080(4)
P6 P 0.6138(7) 0.7880(4) 0.2513(4)
S1 S 1.4393(7) 0.4936(4) 0.3391(5)
N1 N 1.2780(19) 0.8015(12) -0.1815(12)
N2 N 0.8574(17) 0.7979(12) -0.3529(11)
N3 N 0.7061(19) 0.7274(13) 0.0937(12)
C1 C 1.310(3) 0.7855(16) -0.2707(15)
H1 H 1.4004 0.7579 -0.2834
H2 H 1.2481 0.7423 -0.2771
C2 C 1.138(2) 0.8219(15) -0.1539(14)
H3 H 1.0979 0.8375 -0.2030
H4 H 1.0967 0.7677 -0.1202
C3 C 1.330(2) 0.7225(16) -0.1241(16)
H5 H 1.3008 0.7362 -0.0662
C4 C 1.272(4) 0.633(2) -0.125(2)
H6 H 1.3089 0.5856 -0.0883
H7 H 1.1758 0.6379 -0.1068
H8 H 1.2947 0.6187 -0.1819
C5 C 1.480(3) 0.7156(19) -0.142(2)
H9 H 1.5099 0.6644 -0.1060
H10 H 1.5132 0.7075 -0.2004
H11 H 1.5130 0.7704 -0.1328
C6 C 0.850(2) 0.8506(15) -0.2857(16)
H12 H 0.7777 0.8289 -0.2388
H13 H 0.9337 0.8403 -0.2660
C7 C 0.727(2) 0.7996(15) -0.3785(13)
H14 H 0.6997 0.7374 -0.3709
H15 H 0.6595 0.8320 -0.3406
C8 C 0.918(3) 0.701(2) -0.336(2)
H16 H 1.0087 0.7086 -0.3275
C9 C 0.845(3) 0.645(2) -0.252(2)
H17 H 0.8337 0.6812 -0.2072
H18 H 0.7580 0.6303 -0.2577
H19 H 0.8976 0.5904 -0.2388
C10 C 0.943(4) 0.653(3) -0.412(2)
H20 H 0.9877 0.5941 -0.3995
H21 H 0.8583 0.6445 -0.4257
H22 H 0.9988 0.6882 -0.4592
C11 C 0.662(3) 0.7584(16) 0.0153(16)
H23 H 0.5950 0.7179 0.0104
H24 H 0.7378 0.7548 -0.0318
C12 C 0.600(2) 0.7227(15) 0.1690(13)
H25 H 0.5932 0.6592 0.1945
H26 H 0.5159 0.7423 0.1517
C13 C 0.783(3) 0.633(2) 0.0937(18)
H27 H 0.7155 0.5883 0.0981
C14 C 0.887(4) 0.624(2) 0.014(2)
H28 H 0.9253 0.5624 0.0169
H29 H 0.9575 0.6650 0.0082
H30 H 0.8457 0.6383 -0.0339
C15 C 0.845(4) 0.606(3) 0.169(3)
H31 H 0.7768 0.6087 0.2195
H32 H 0.9133 0.6479 0.1665
H33 H 0.8849 0.5457 0.1688
C16 C 1.199(2) 0.6806(17) 0.2233(15)
C17 C 1.238(3) 0.660(2) 0.1399(19)
H34 H 1.2019 0.6960 0.0973
C18 C 1.327(3) 0.590(2) 0.121(2)
H35 H 1.3482 0.5776 0.0654
C19 C 1.388(3) 0.535(2) 0.182(2)
H36 H 1.4491 0.4868 0.1682
C20 C 1.352(2) 0.5557(15) 0.2627(16)
C21 C 1.257(2) 0.6244(18) 0.2846(16)
H37 H 1.2322 0.6338 0.3407
C22 C 1.098(2) 0.7579(16) 0.2435(17)
O1 O 1.1687(18) 0.8888(12) -0.0162(11)
O2 O 0.9492(15) 0.9250(11) -0.0656(10)
O3 O 1.1612(14) 1.0018(10) -0.1518(9)
O4 O 1.3544(16) 0.8557(11) -0.4317(9)
O5 O 1.1486(14) 0.9231(10) -0.3411(9)
O6 O 1.3794(16) 0.9605(11) -0.3252(11)
O7 O 0.6693(14) 0.9890(11) -0.3074(10)
O8 O 0.8998(15) 0.9899(10) -0.4099(9)
O9 O 0.8795(17) 1.0252(12) -0.2611(11)
O10 O 0.6671(17) 0.7880(11) -0.5305(11)
O11 O 0.8749(15) 0.8703(12) -0.5348(10)
O12 O 0.6393(15) 0.9416(10) -0.4891(10)
O13 O 0.6118(19) 0.9155(13) -0.0843(11)
O14 O 0.6736(16) 0.9274(11) 0.0506(11)
O15 O 0.4424(16) 0.8716(12) 0.0477(15)
O16 O 0.5535(19) 0.7324(13) 0.3344(10)
O17 O 0.759(2) 0.8096(17) 0.2360(13)
O18 O 0.528(2) 0.8772(15) 0.2431(14)
O19 O 1.0711(16) 0.8155(11) 0.1847(11)
O20 O 1.0524(18) 0.7652(11) 0.3199(12)
O21 O 1.411(3) 0.5387(15) 0.4116(14)
O22 O 1.581(3) 0.504(2) 0.300(2)
O23 O 1.406(3) 0.4013(16) 0.3555(18)
O24 O 0.373(2) 0.6941(15) 0.5233(15)
O25 O 0.875(3) 0.622(3) 0.392(2)
O3A O 0.8388(14) 0.9982(10) 0.1518(9)
O11A O 1.1251(15) 1.1297(12) -0.4652(10)
O20A O 0.9476(18) 1.2348(11) -0.3199(12)
O8A O 1.1002(15) 1.0101(10) -0.5901(9)
O2A O 1.0508(15) 1.0750(11) 0.0656(10)
O13A O 1.3882(19) 1.0845(13) 0.0843(11)
O14A O 1.3264(16) 1.0726(11) -0.0506(11)
O15_2 O 1.4424(16) 0.8716(12) 0.0477(15)
O6A O 1.6206(16) 1.0395(11) -0.6748(11)
O7A O 1.3307(14) 1.0110(11) -0.6926(10)
O12_2 O 1.6393(15) 0.9416(10) -0.4891(10)
O12A O 1.3607(15) 1.0584(10) -0.5109(10)
O13_2 O 1.6118(19) 0.9155(13) -0.0843(11)
O18A O 1.472(2) 1.1228(15) -0.2431(14)
O10_2 O 0.6671(17) 0.7880(11) 0.4695(11)
Pb4A Pb 0.76774(8) 1.04581(6) -0.09423(5)
Pb1A Pb 1.12366(8) 1.14820(6) -0.09326(5)
Pb5A Pb 1.54210(8) 1.06708(6) -0.41840(6)
Pb5A_2 Pb 0.54210(8) 1.06708(6) -0.41840(6)
Pb3A Pb 0.94660(8) 1.12178(6) -0.53433(6)
Pb7_2 Pb 0.61121(10) 0.64510(6) -0.54903(6)
Pb2A Pb 0.90086(8) 0.91822(6) -0.69431(5)
Pb5_2 Pb 0.45790(8) 0.93292(6) -0.58160(6)
Pb6_2 Pb 0.42933(9) 0.97600(6) -0.17845(6)
Pb6A Pb 0.57067(9) 1.02400(6) 0.17845(6)
Pb4_2 Pb 0.23226(8) 0.95419(6) 0.09423(5)
Pb2A_2 Pb 0.90086(8) 0.91822(6) 0.30569(5)
O26 O 1.734(2) 1.1993(18) 0.6067(16)
O27 O 1.785(4) 1.445(3) 0.368(3)
loop_
_geom_bond_atom_site_label_1
_geom_bond_atom_site_label_2
_geom_bond_site_symmetry_1
_geom_bond_site_symmetry_2
Pb1 N3 1_555 1_555
Pb2 O5 1_555 1_555
Pb3 N2 1_555 1_555
Pb4 O1 1_555 1_555
Pb5 O4 1_555 1_555
Pb6 O3 1_555 1_555
Pb7 O16 1_555 1_555
P1 C2 1_555 1_555
P2 C1 1_555 1_555
P3 C6 1_555 1_555
P4 C7 1_555 1_555
P5 C11 1_555 1_555
P6 C12 1_555 1_555
S1 C20 1_555 1_555
N1 C1 1_555 1_555
N2 C6 1_555 1_555
N3 C11 1_555 1_555
C1 H1 1_555 1_555
H2 C1 1_555 1_555
C2 N1 1_555 1_555
H3 C2 1_555 1_555
H4 C2 1_555 1_555
C3 N1 1_555 1_555
H5 C3 1_555 1_555
C4 C3 1_555 1_555
H6 C4 1_555 1_555
H7 C4 1_555 1_555
H8 C4 1_555 1_555
C5 C3 1_555 1_555
H9 C5 1_555 1_555
H10 C5 1_555 1_555
H11 C5 1_555 1_555
C6 H12 1_555 1_555
H13 C6 1_555 1_555
C7 N2 1_555 1_555
H14 C7 1_555 1_555
H15 C7 1_555 1_555
C8 N2 1_555 1_555
H16 C8 1_555 1_555
C9 C8 1_555 1_555
H17 C9 1_555 1_555
H18 C9 1_555 1_555
H19 C9 1_555 1_555
C10 C8 1_555 1_555
H20 C10 1_555 1_555
H21 C10 1_555 1_555
H22 C10 1_555 1_555
C11 H23 1_555 1_555
H24 C11 1_555 1_555
C12 N3 1_555 1_555
H25 C12 1_555 1_555
H26 C12 1_555 1_555
C13 N3 1_555 1_555
H27 C13 1_555 1_555
C14 C13 1_555 1_555
H28 C14 1_555 1_555
H29 C14 1_555 1_555
H30 C14 1_555 1_555
C15 C13 1_555 1_555
H31 C15 1_555 1_555
H32 C15 1_555 1_555
H33 C15 1_555 1_555
C16 C17 1_555 1_555
C17 H34 1_555 1_555
C18 C17 1_555 1_555
H35 C18 1_555 1_555
C19 C18 1_555 1_555
H36 C19 1_555 1_555
C20 C19 1_555 1_555
C21 C16 1_555 1_555
H37 C21 1_555 1_555
C22 C16 1_555 1_555
O1 P1 1_555 1_555
O2 Pb1 1_555 1_555
O3 P1 1_555 1_555
O4 P2 1_555 1_555
O5 Pb3 1_555 1_555
O6 Pb6 1_555 1_555
O7 P3 1_555 1_555
O8 Pb3 1_555 1_555
O9 Pb2 1_555 1_555
O10 P4 1_555 1_555
O11 Pb3 1_555 1_555
O12 P4 1_555 1_555
O13 P5 1_555 1_555
O14 Pb1 1_555 1_555
O15 P5 1_555 1_555
O16 P6 1_555 1_555
O17 Pb1 1_555 1_555
O18 P6 1_555 1_555
O19 Pb1 1_555 1_555
O20 C22 1_555 1_555
O21 S1 1_555 1_555
O22 S1 1_555 1_555
O23 S1 1_555 1_555
O24 Pb7 1_555 1_555
O25 Pb7 1_555 1_555
O3A Pb1 1_555 1_555
O11A Pb2 1_555 1_555
O20A Pb2 1_555 1_555
O8A Pb3 1_555 1_555
O2A Pb4 1_555 1_555
O13A Pb4 1_555 1_555
O14A Pb4 1_555 1_555
O15_2 Pb4 1_555 1_555
O6A Pb5 1_555 1_555
O7A Pb5 1_555 1_555
O12_2 Pb5 1_555 1_555
O12A Pb5 1_555 1_555
O13_2 Pb6 1_555 1_555
O18A Pb6 1_555 1_555
O10_2 Pb7 1_555 1_555
Pb4A O2 1_555 1_555
Pb1A O3 1_555 1_555
Pb5A O6 1_555 1_555
Pb5A_2 O7 1_555 1_555
Pb3A O8 1_555 1_555
Pb7_2 O10 1_555 1_555
Pb2A O11 1_555 1_555
Pb5_2 O12 1_555 1_555
Pb6_2 O13 1_555 1_555
Pb6A O14 1_555 1_555
Pb4_2 O15 1_555 1_555
Pb2A_2 O20 1_555 1_555
Pb6 O14A 1_555 1_555
P1 O2 1_555 1_555
P2 O5 1_555 1_555
P2 O6 1_555 1_555
P3 O8 1_555 1_555
P3 O9 1_555 1_555
P4 O11 1_555 1_555
P5 O14 1_555 1_555
P6 O17 1_555 1_555
C20 C21 1_555 1_555
C22 O19 1_555 1_555
O12 Pb5A_2 1_555 1_555
O13 Pb4A 1_555 1_555
O14 Pb4A 1_555 1_555
O18 Pb6A 1_555 1_555
O3A Pb6A 1_555 1_555
O11A Pb3A 1_555 1_555
O8A Pb3A 1_555 1_555
O2A Pb1A 1_555 1_555
O14A Pb1A 1_555 1_555
O12_2 Pb5A 1_555 1_555
O12A Pb5A 1_555 1_555

#END
