
#######################################################################
#
#                 Cambridge Crystallographic Data Centre
#                                CCDC 
#
#######################################################################
#
# If this CIF has been generated from an entry in the Cambridge 
# Structural Database, then it will include bibliographic, chemical, 
# crystal, experimental, refinement or atomic coordinate data resulting 
# from the CCDC's data processing and validation procedures.
#
#######################################################################

data_EWUTEV
_symmetry_cell_setting           triclinic
_symmetry_space_group_name_H-M   'P -1'
_symmetry_Int_Tables_number      2
_space_group_name_Hall           '-P 1'
loop_
_symmetry_equiv_pos_site_id
_symmetry_equiv_pos_as_xyz
1 x,y,z
2 -x,-y,-z
_cell_length_a                   7.13920(10)
_cell_length_b                   15.58440(10)
_cell_length_c                   21.398
_cell_angle_alpha                105.6580(10)
_cell_angle_beta                 90.7570(10)
_cell_angle_gamma                96.2140(10)
_cell_volume                     2276.69
loop_
_atom_site_label
_atom_site_type_symbol
_atom_site_fract_x
_atom_site_fract_y
_atom_site_fract_z
Pb1 Pb -0.00745(9) -0.21728(4) -0.04792(3)
Pb2 Pb -0.34082(9) -0.04701(4) -0.08894(3)
Pb3 Pb 0.44562(9) -0.36521(4) 0.02339(3)
P1 P -0.0980(6) -0.0217(3) 0.0751(2)
P2 P -0.0404(6) -0.2778(3) 0.0841(2)
P3 P -0.5382(6) -0.2495(3) -0.1041(2)
P4 P -0.2564(6) -0.4729(3) -0.1074(2)
N1 N -0.5347(19) -0.4248(9) -0.1817(7)
H1 H -0.5824 -0.4288 -0.1432
N2 N -0.2080(18) -0.1322(8) 0.1577(7)
H2 H -0.2781 -0.1615 0.1208
C1 C -0.301(2) -0.0651(11) -0.4089(9)
C2 C -0.279(3) -0.0448(11) -0.3408(9)
H3 H -0.2169 0.0106 -0.3176
C3 C -0.346(2) -0.1054(12) -0.3082(9)
C4 C -0.429(2) -0.1904(11) -0.3435(8)
H4 H -0.4725 -0.2326 -0.3219
C5 C -0.448(2) -0.2125(12) -0.4126(10)
C6 C -0.388(3) -0.1478(12) -0.4435(9)
H5 H -0.4073 -0.1603 -0.4883
C7 C -0.234(3) 0.0013(13) -0.4446(10)
C8 C -0.543(2) -0.3017(11) -0.4498(8)
C9 C -0.330(2) -0.0826(10) -0.2362(9)
C19 C -0.337(2) -0.1369(12) 0.2139(8)
H9 H -0.4379 -0.0997 0.2124
C20 C -0.226(3) -0.0975(14) 0.2810(10)
H10 H -0.1185 -0.1299 0.2830
H11 H -0.1804 -0.0348 0.2867
C21 C -0.360(3) -0.1069(14) 0.3338(11)
H12 H -0.2882 -0.0907 0.3749
H13 H -0.4510 -0.0643 0.3368
C22 C -0.465(4) -0.1993(15) 0.3240(11)
H14 H -0.3776 -0.2399 0.3304
H15 H -0.5595 -0.1966 0.3565
C23 C -0.558(4) -0.2348(17) 0.2590(12)
H16 H -0.6615 -0.2005 0.2556
H17 H -0.6109 -0.2966 0.2536
C24 C -0.426(3) -0.2313(13) 0.2053(9)
H18 H -0.3285 -0.2700 0.2059
H19 H -0.4948 -0.2527 0.1637
C25 C -0.162(2) -0.0371(10) 0.1538(8)
H20 H -0.0587 -0.0086 0.1849
H21 H -0.2705 -0.0053 0.1674
C26 C -0.037(2) -0.1805(11) 0.1557(8)
H22 H -0.0284 -0.2006 0.1946
H23 H 0.0745 -0.1391 0.1555
C27 C -0.654(5) -0.491(2) -0.2327(11)
H24 H -0.5952 -0.5441 -0.2300
C28 C -0.835(3) -0.5219(19) -0.2229(11)
H25 H -0.9075 -0.4713 -0.2151
H26 H -0.8320 -0.5401 -0.1830
C29 C -0.940(4) -0.5952(19) -0.2719(13)
H27 H -1.0733 -0.5897 -0.2668
H28 H -0.9166 -0.6511 -0.2631
C30 C -0.898(4) -0.6019(18) -0.3414(12)
H29 H -0.9250 -0.6641 -0.3664
H30 H -0.9831 -0.5678 -0.3580
C31 C -0.705(6) -0.570(3) -0.3515(12)
H31 H -0.6316 -0.6198 -0.3573
H32 H -0.7056 -0.5534 -0.3922
C32 C -0.606(3) -0.4949(14) -0.3028(8)
H33 H -0.6349 -0.4397 -0.3115
H34 H -0.4719 -0.4975 -0.3070
C33 C -0.545(6) -0.3307(15) -0.1839(10)
H35 H -0.6607 -0.3286 -0.2074
H36 H -0.4405 -0.3132 -0.2080
C34 C -0.336(3) -0.439(3) -0.1784(13)
H37 H -0.2601 -0.3843 -0.1793
H38 H -0.3120 -0.4851 -0.2172
O1 O -0.157(2) 0.0786(9) -0.4097(7)
H39 H -0.1266 0.1109 -0.4334
O2 O -0.258(3) -0.0191(11) -0.5042(7)
O3 O -0.590(2) -0.3581(9) -0.4179(6)
H40 H -0.6423 -0.4046 -0.4426
O4 O -0.571(2) -0.3165(10) -0.5100(6)
O5 O -0.352(2) -0.1453(9) -0.2077(6)
O6 O -0.289(2) -0.0019(9) -0.2045(6)
O13 O 0.0347(17) -0.0896(7) 0.0478(6)
O14 O -0.2803(16) -0.0315(9) 0.0352(6)
O15 O 0.0123(15) 0.0722(7) 0.0928(5)
O16 O 0.1500(16) -0.2712(8) 0.0540(6)
O17 O -0.2046(15) -0.2679(7) 0.0402(6)
O18 O -0.0729(18) -0.3607(8) 0.1084(7)
O19 O -0.6229(18) -0.3061(8) -0.0615(6)
O20 O -0.3365(18) -0.2058(9) -0.0827(7)
O21 O -0.6632(17) -0.1800(8) -0.1128(6)
O22 O -0.089(2) -0.4065(8) -0.0829(8)
O23 O -0.2105(16) -0.5706(8) -0.1339(7)
H44 H -0.1062 -0.5752 -0.1195
O24 O -0.4241(17) -0.4707(8) -0.0642(6)
O25 O 0.189(2) -0.4643(9) -0.0322(8)
O15A O -0.0123(15) -0.0722(7) -0.0928(5)
O17_2 O 0.7954(15) -0.2679(7) 0.0402(6)
O19_2 O 0.3771(18) -0.3061(8) -0.0615(6)
O24_2 O 0.5759(17) -0.4707(8) -0.0642(6)
Pb1A Pb 0.00745(9) 0.21728(4) 0.04792(3)
Pb2A Pb 0.34082(9) 0.04701(4) 0.08894(3)
Pb3_2 Pb -0.55438(9) -0.36521(4) 0.02339(3)
C10 C -0.031(2) 0.2361(11) 0.4214(8)
C11 C -0.065(2) 0.2120(11) 0.3536(8)
H6 H -0.1255 0.1555 0.3325
C12 C -0.009(2) 0.2714(11) 0.3182(9)
C13 C 0.087(2) 0.3550(11) 0.3500(8)
H7 H 0.1316 0.3943 0.3262
C14 C 0.116(3) 0.3799(11) 0.4168(8)
C15 C 0.062(3) 0.3204(12) 0.4518(9)
H8 H 0.0867 0.3367 0.4964
C16 C -0.083(3) 0.1708(13) 0.4597(10)
C17 C 0.215(3) 0.4706(12) 0.4523(10)
C18 C -0.051(3) 0.2497(12) 0.2468(10)
O7 O -0.048(2) 0.1935(10) 0.5199(6)
O8 O -0.164(2) 0.0942(9) 0.4272(6)
H41 H -0.1888 0.0627 0.4518
O9 O 0.238(3) 0.4893(10) 0.5114(7)
O10 O 0.268(2) 0.5252(9) 0.4184(7)
H42 H 0.3164 0.5729 0.4426
O11 O -0.181(2) 0.1803(9) 0.2240(7)
H43 H -0.2260 0.1827 0.1892
O12 O 0.0125(19) 0.2985(9) 0.2141(6)
O26 O -0.5407(19) -0.1452(10) 0.0784(7)
loop_
_geom_bond_atom_site_label_1
_geom_bond_atom_site_label_2
_geom_bond_site_symmetry_1
_geom_bond_site_symmetry_2
Pb1 O13 1_555 1_555
Pb2 O5 1_555 1_555
Pb3 O16 1_555 1_555
P1 C25 1_555 1_555
P2 C26 1_555 1_555
P3 C33 1_555 1_555
P4 C34 1_555 1_555
N1 H1 1_555 1_555
N2 H2 1_555 1_555
C1 C2 1_555 1_555
C2 H3 1_555 1_555
C3 C2 1_555 1_555
C4 C3 1_555 1_555
H4 C4 1_555 1_555
C5 C4 1_555 1_555
C6 C1 1_555 1_555
H5 C6 1_555 1_555
C7 C1 1_555 1_555
C8 C5 1_555 1_555
C9 C3 1_555 1_555
C10 C11 1_555 1_555
C11 H6 1_555 1_555
C12 C11 1_555 1_555
C13 C12 1_555 1_555
H7 C13 1_555 1_555
C14 C13 1_555 1_555
C15 C10 1_555 1_555
H8 C15 1_555 1_555
C16 C10 1_555 1_555
C17 C14 1_555 1_555
C18 C12 1_555 1_555
C19 N2 1_555 1_555
H9 C19 1_555 1_555
C20 C19 1_555 1_555
H10 C20 1_555 1_555
H11 C20 1_555 1_555
C21 C20 1_555 1_555
H12 C21 1_555 1_555
H13 C21 1_555 1_555
C22 C21 1_555 1_555
H14 C22 1_555 1_555
H15 C22 1_555 1_555
C23 C22 1_555 1_555
H16 C23 1_555 1_555
H17 C23 1_555 1_555
C24 C19 1_555 1_555
H18 C24 1_555 1_555
H19 C24 1_555 1_555
C25 N2 1_555 1_555
H20 C25 1_555 1_555
H21 C25 1_555 1_555
C26 N2 1_555 1_555
H22 C26 1_555 1_555
H23 C26 1_555 1_555
C27 N1 1_555 1_555
H24 C27 1_555 1_555
C28 C27 1_555 1_555
H25 C28 1_555 1_555
H26 C28 1_555 1_555
C29 C28 1_555 1_555
H27 C29 1_555 1_555
H28 C29 1_555 1_555
C30 C29 1_555 1_555
H29 C30 1_555 1_555
H30 C30 1_555 1_555
C31 C30 1_555 1_555
H31 C31 1_555 1_555
H32 C31 1_555 1_555
C32 C27 1_555 1_555
H33 C32 1_555 1_555
H34 C32 1_555 1_555
C33 N1 1_555 1_555
H35 C33 1_555 1_555
H36 C33 1_555 1_555
C34 N1 1_555 1_555
H37 C34 1_555 1_555
H38 C34 1_555 1_555
O1 C7 1_555 1_555
H39 O1 1_555 1_555
O2 C7 1_555 1_555
O3 C8 1_555 1_555
H40 O3 1_555 1_555
O4 C8 1_555 1_555
O5 C9 1_555 1_555
O6 Pb2 1_555 1_555
O7 C16 1_555 1_555
O8 C16 1_555 1_555
H41 O8 1_555 1_555
O9 C17 1_555 1_555
O10 C17 1_555 1_555
H42 O10 1_555 1_555
O11 C18 1_555 1_555
H43 O11 1_555 1_555
O12 C18 1_555 1_555
O13 P1 1_555 1_555
O14 Pb2 1_555 1_555
O15 P1 1_555 1_555
O16 P2 1_555 1_555
O17 Pb1 1_555 1_555
O18 P2 1_555 1_555
O19 P3 1_555 1_555
O20 Pb1 1_555 1_555
O21 P3 1_555 1_555
O22 P4 1_555 1_555
O23 P4 1_555 1_555
H44 O23 1_555 1_555
O24 P4 1_555 1_555
O25 Pb3 1_555 1_555
O15A Pb1 1_555 1_555
O17_2 Pb3 1_555 1_555
O19_2 Pb3 1_555 1_555
O24_2 Pb3 1_555 1_555
Pb1A O15 1_555 1_555
Pb2A O15 1_555 1_555
Pb3_2 O17 1_555 1_555
Pb2 O20 1_555 1_555
Pb2 O15A 1_555 1_555
P1 O14 1_555 1_555
P2 O17 1_555 1_555
P3 O20 1_555 1_555
C5 C6 1_555 1_555
C9 O6 1_555 1_555
C14 C15 1_555 1_555
C23 C24 1_555 1_555
C31 C32 1_555 1_555
O19 Pb3_2 1_555 1_555
O24 Pb3_2 1_555 1_555

#END
