
#######################################################################
#
#                 Cambridge Crystallographic Data Centre
#                                CCDC 
#
#######################################################################
#
# If this CIF has been generated from an entry in the Cambridge 
# Structural Database, then it will include bibliographic, chemical, 
# crystal, experimental, refinement or atomic coordinate data resulting 
# from the CCDC's data processing and validation procedures.
#
#######################################################################

data_EXABUB
_symmetry_cell_setting           orthorhombic
_symmetry_space_group_name_H-M   'P 21 21 21'
_symmetry_Int_Tables_number      19
_space_group_name_Hall           'P 2ac 2ab'
loop_
_symmetry_equiv_pos_site_id
_symmetry_equiv_pos_as_xyz
1 x,y,z
2 1/2-x,-y,1/2+z
3 -x,1/2+y,1/2-z
4 1/2+x,1/2-y,-z
_cell_length_a                   12.9454(7)
_cell_length_b                   14.2341(8)
_cell_length_c                   19.0465(10)
_cell_angle_alpha                90
_cell_angle_beta                 90
_cell_angle_gamma                90
_cell_volume                     3509.62
loop_
_atom_site_label
_atom_site_type_symbol
_atom_site_fract_x
_atom_site_fract_y
_atom_site_fract_z
Sm1 Sm 0.71217(3) -0.00057(3) 0.88495(2)
Sm2 Sm 0.77196(4) 0.02054(3) 0.67249(2)
C1 C 1.0135(7) 0.0966(6) 0.8284(6)
H1 H 0.9999 0.0709 0.8752
C2 C 1.1249(8) 0.0698(7) 0.8076(6)
H2 H 1.1510 0.0210 0.8384
H3 H 1.1266 0.0467 0.7597
C3 C 1.1909(8) 0.1588(7) 0.8144(6)
H4 H 1.2042 0.1863 0.7686
H5 H 1.2564 0.1450 0.8369
C4 C 1.1248(8) 0.2266(7) 0.8607(5)
C5 C 1.0094(7) 0.2068(7) 0.8337(6)
C6 C 0.9324(7) 0.0572(7) 0.7783(5)
C7 C 1.1531(7) 0.3302(7) 0.8509(5)
C8 C 1.1386(11) 0.2007(8) 0.9371(6)
H6 H 1.2085 0.2134 0.9511
H7 H 1.1241 0.1351 0.9434
H8 H 1.0921 0.2371 0.9653
C9 C 0.9919(12) 0.2517(8) 0.7623(7)
H9 H 0.9907 0.3188 0.7672
H10 H 0.9271 0.2307 0.7434
H11 H 1.0468 0.2340 0.7311
C10 C 0.9292(9) 0.2382(8) 0.8871(8)
H12 H 0.9297 0.3055 0.8905
H13 H 0.9453 0.2115 0.9321
H14 H 0.8620 0.2173 0.8725
C11 C 0.4461(8) -0.0682(8) 0.7378(6)
C12 C 0.3564(9) -0.0684(9) 0.7888(7)
H15 H 0.3811 -0.0810 0.8359
H16 H 0.3227 -0.0076 0.7886
C13 C 0.2842(11) -0.1404(9) 0.7675(8)
H17 H 0.2216 -0.1117 0.7494
H18 H 0.2659 -0.1791 0.8075
C14 C 0.3336(8) -0.1998(7) 0.7117(6)
H19 H 0.3026 -0.1805 0.6670
C15 C 0.4498(8) -0.1713(8) 0.7081(6)
C16 C 0.5494(7) -0.0448(6) 0.7762(5)
C17 C 0.3145(9) -0.3041(7) 0.7186(6)
C18 C 0.4285(9) 0.0059(9) 0.6806(7)
H20 H 0.4278 0.0673 0.7015
H21 H 0.3636 -0.0057 0.6579
H22 H 0.4832 0.0024 0.6467
C19 C 0.5146(11) -0.2369(9) 0.7546(8)
H23 H 0.5144 -0.2990 0.7351
H24 H 0.4857 -0.2385 0.8010
H25 H 0.5843 -0.2140 0.7569
C20 C 0.4937(11) -0.1791(9) 0.6333(6)
H26 H 0.4929 -0.2436 0.6187
H27 H 0.5634 -0.1561 0.6328
H28 H 0.4522 -0.1424 0.6018
C21 C 0.5652(8) -0.2279(7) 1.0175(5)
C22 C 0.5184(9) -0.2435(8) 0.9511(6)
H29 H 0.5287 -0.2008 0.9148
C23 C 0.4580(10) -0.3213(7) 0.9405(6)
H30 H 0.4288 -0.3312 0.8965
C24 C 0.4394(7) -0.3857(7) 0.9937(6)
C25 C 0.4842(8) -0.3690(8) 1.0601(6)
H31 H 0.4723 -0.4112 1.0965
C26 C 0.5460(9) -0.2908(8) 1.0722(5)
H32 H 0.5742 -0.2804 1.1164
C27 C 0.6318(8) -0.1445(7) 1.0294(5)
C28 C 0.3712(7) -0.4695(7) 0.9820(5)
O1 O 0.8432(4) 0.0329(5) 0.8018(3)
O2 O 0.9507(6) 0.0468(6) 0.7146(4)
O3 O 1.1330(6) 0.3909(5) 0.8963(4)
O4 O 1.2000(7) 0.3566(5) 0.7944(4)
O5 O 0.6299(5) -0.0288(5) 0.7424(3)
O6 O 0.5468(6) -0.0420(6) 0.8414(4)
O7 O 0.3312(6) -0.3533(5) 0.6640(4)
O8 O 0.2880(6) -0.3367(5) 0.7771(4)
O9 O 0.6546(7) -0.1226(6) 1.0918(4)
O10 O 0.6620(7) -0.0995(5) 0.9763(4)
O11 O 0.3481(5) -0.5191(5) 1.0346(3)
O12 O 0.3448(5) -0.4869(5) 0.9206(3)
O14 O 0.7626(6) -0.1522(5) 0.8443(4)
H40 H 0.7643 -0.1993 0.8718
H41 H 0.8071 -0.1574 0.8116
O15 O 0.6134(7) 0.0987(6) 0.9648(4)
H42 H 0.6607 0.1033 0.9968
H43 H 0.6067 0.1548 0.9469
Sm1B Sm 0.28783(3) -0.50057(3) 0.61505(2)
Sm1C Sm 0.21217(3) -0.49943(3) 1.11505(2)
Sm2B Sm 1.22804(4) 0.52054(3) 0.82751(2)
Sm2B_2 Sm 0.22804(4) -0.47946(3) 0.82751(2)
Sm2A Sm 0.72804(4) -0.02054(3) 1.17249(2)
O3B O 0.8670(6) -0.1091(5) 0.6037(4)
O4B O 0.8000(7) -0.1434(5) 0.7056(4)
O7B O 0.6688(6) 0.1467(5) 0.8360(4)
O8B O 0.7120(6) 0.1633(5) 0.7229(4)
O9A O 0.8454(7) 0.1226(6) 0.5918(4)
O11C O 0.8481(5) 0.0191(5) 0.9654(3)
O12B O 0.6552(5) 0.0131(5) 0.5794(3)
N1 N 1.1636(15) 0.0603(10) 0.5398(10)
O13 O 1.2199(15) 0.1750(11) 0.6112(8)
C29 C 1.1568(12) 0.1124(12) 0.5966(9)
H33 H 1.1022 0.1018 0.6274
C30 C 1.2517(18) 0.0804(18) 0.4931(16)
H34 H 1.2937 0.1288 0.5136
H35 H 1.2265 0.1011 0.4483
H36 H 1.2922 0.0245 0.4871
C31 C 1.0936(16) -0.0103(17) 0.5225(14)
H37 H 1.0397 -0.0124 0.5571
H38 H 1.1287 -0.0697 0.5213
H39 H 1.0642 0.0025 0.4773
loop_
_geom_bond_atom_site_label_1
_geom_bond_atom_site_label_2
_geom_bond_site_symmetry_1
_geom_bond_site_symmetry_2
Sm1 O1 1_555 1_555
Sm2 O1 1_555 1_555
C1 H1 1_555 1_555
C2 C1 1_555 1_555
H2 C2 1_555 1_555
H3 C2 1_555 1_555
C3 C2 1_555 1_555
H4 C3 1_555 1_555
H5 C3 1_555 1_555
C4 C3 1_555 1_555
C5 C1 1_555 1_555
C6 C1 1_555 1_555
C7 C4 1_555 1_555
C8 C4 1_555 1_555
H6 C8 1_555 1_555
H7 C8 1_555 1_555
H8 C8 1_555 1_555
C9 C5 1_555 1_555
H9 C9 1_555 1_555
H10 C9 1_555 1_555
H11 C9 1_555 1_555
C10 C5 1_555 1_555
H12 C10 1_555 1_555
H13 C10 1_555 1_555
H14 C10 1_555 1_555
C11 C12 1_555 1_555
C12 H15 1_555 1_555
H16 C12 1_555 1_555
C13 C12 1_555 1_555
H17 C13 1_555 1_555
H18 C13 1_555 1_555
C14 C13 1_555 1_555
H19 C14 1_555 1_555
C15 C11 1_555 1_555
C16 C11 1_555 1_555
C17 C14 1_555 1_555
C18 C11 1_555 1_555
H20 C18 1_555 1_555
H21 C18 1_555 1_555
H22 C18 1_555 1_555
C19 C15 1_555 1_555
H23 C19 1_555 1_555
H24 C19 1_555 1_555
H25 C19 1_555 1_555
C20 C15 1_555 1_555
H26 C20 1_555 1_555
H27 C20 1_555 1_555
H28 C20 1_555 1_555
C21 C22 1_555 1_555
C22 H29 1_555 1_555
C23 C22 1_555 1_555
H30 C23 1_555 1_555
C24 C23 1_555 1_555
C25 C24 1_555 1_555
H31 C25 1_555 1_555
C26 C21 1_555 1_555
H32 C26 1_555 1_555
C27 C21 1_555 1_555
C28 C24 1_555 1_555
O1 C6 1_555 1_555
O2 Sm2 1_555 1_555
O3 C7 1_555 1_555
O4 C7 1_555 1_555
O5 Sm2 1_555 1_555
O6 Sm1 1_555 1_555
O7 C17 1_555 1_555
O8 C17 1_555 1_555
O9 C27 1_555 1_555
O10 Sm1 1_555 1_555
O11 C28 1_555 1_555
O12 C28 1_555 1_555
N1 C29 1_555 1_555
O13 C29 1_555 1_555
C29 H33 1_555 1_555
C30 N1 1_555 1_555
H34 C30 1_555 1_555
H35 C30 1_555 1_555
H36 C30 1_555 1_555
C31 N1 1_555 1_555
H37 C31 1_555 1_555
H38 C31 1_555 1_555
H39 C31 1_555 1_555
O14 Sm1 1_555 1_555
H40 O14 1_555 1_555
H41 O14 1_555 1_555
O15 Sm1 1_555 1_555
H42 O15 1_555 1_555
H43 O15 1_555 1_555
Sm1B O7 1_555 1_555
Sm1C O11 1_555 1_555
Sm2B O3 1_555 1_555
Sm2B_2 O8 1_555 1_555
Sm2A O9 1_555 1_555
O3B Sm2 1_555 1_555
O4B Sm2 1_555 1_555
O7B Sm1 1_555 1_555
O8B Sm2 1_555 1_555
O9A Sm2 1_555 1_555
O11C Sm1 1_555 1_555
O12B Sm2 1_555 1_555
C4 C5 1_555 1_555
C6 O2 1_555 1_555
C14 C15 1_555 1_555
C16 O5 1_555 1_555
C16 O6 1_555 1_555
C25 C26 1_555 1_555
C27 O10 1_555 1_555
O4 Sm2B 1_555 1_555
O12 Sm2B_2 1_555 1_555

#END
