
#######################################################################
#
#                 Cambridge Crystallographic Data Centre
#                                CCDC 
#
#######################################################################
#
# If this CIF has been generated from an entry in the Cambridge 
# Structural Database, then it will include bibliographic, chemical, 
# crystal, experimental, refinement or atomic coordinate data resulting 
# from the CCDC's data processing and validation procedures.
#
#######################################################################

data_EXABEL
_symmetry_cell_setting           monoclinic
_symmetry_space_group_name_H-M   'P 21'
_symmetry_Int_Tables_number      4
_space_group_name_Hall           'P 2yb'
loop_
_symmetry_equiv_pos_site_id
_symmetry_equiv_pos_as_xyz
1 x,y,z
2 -x,1/2+y,-z
_cell_length_a                   8.807(2)
_cell_length_b                   16.647(3)
_cell_length_c                   9.424(2)
_cell_angle_alpha                90
_cell_angle_beta                 114.82(3)
_cell_angle_gamma                90
_cell_volume                     1254.03
loop_
_atom_site_label
_atom_site_type_symbol
_atom_site_fract_x
_atom_site_fract_y
_atom_site_fract_z
F1 F 0.7718(3) 0.18836(14) 1.5576(3)
F2 F 0.4842(3) 0.16845(14) 1.3058(3)
F3 F 0.5867(3) 0.40426(15) 1.0835(3)
F4 F 0.8728(3) 0.42619(14) 1.3320(3)
F5 F 1.0959(3) 0.43609(17) 1.8123(3)
F6 F 1.3646(3) 0.52403(17) 1.8514(4)
F7 F 1.5282(3) 0.49904(18) 1.6645(4)
F8 F 1.4102(4) 0.3871(2) 1.4340(4)
F9 F 1.1412(3) 0.29886(18) 1.3944(3)
O1 O 0.1448(3) 0.1396(2) 0.6510(4)
N1 N 0.9765(4) 0.3119(2) 1.5927(4)
N2 N 0.2558(4) 0.2586(2) 0.9417(4)
N3 N -0.0065(4) 0.1036(2) 0.8984(4)
N4 N -0.1449(4) 0.2667(2) 0.8875(4)
C1 C 0.8393(4) 0.3073(2) 1.4583(4)
C2 C 0.7264(5) 0.2434(2) 1.4407(4)
C3 C 0.5806(5) 0.2322(2) 1.3122(5)
C4 C 0.5269(5) 0.2853(2) 1.1850(4)
C5 C 0.6335(4) 0.3506(2) 1.2009(4)
C6 C 0.7804(4) 0.3599(2) 1.3281(4)
C7 C 1.1078(5) 0.3619(3) 1.6030(4)
C8 C 1.1723(5) 0.4212(2) 1.7183(5)
C9 C 1.3108(5) 0.4668(3) 1.7387(5)
C10 C 1.3911(5) 0.4554(3) 1.6448(6)
C11 C 1.3320(5) 0.3995(3) 1.5275(5)
C12 C 1.1945(5) 0.3532(2) 1.5092(5)
C13 C -0.0709(8) 0.1336(3) 1.0086(7)
H1 H -0.1184 0.0898 1.0426
H2 H 0.0184 0.1573 1.0974
C14 C -0.2031(7) 0.1942(3) 0.9397(7)
H3 H -0.2418 0.2081 1.0178
H4 H -0.2928 0.1702 0.8518
C15 C -0.1208(6) 0.0452(3) 0.7886(6)
H5 H -0.2274 0.0708 0.7275
H6 H -0.1376 0.0005 0.8465
H7 H -0.0730 0.0257 0.7193
C16 C 0.1539(6) 0.0626(3) 0.9834(6)
H8 H 0.1945 0.0419 0.9095
H9 H 0.1386 0.0185 1.0434
H10 H 0.2346 0.1002 1.0536
C17 C -0.0473(7) 0.3191(4) 1.0164(6)
H11 H -0.0069 0.3644 0.9774
H12 H 0.0471 0.2895 1.0917
H13 H -0.1167 0.3383 1.0665
C18 C -0.2897(7) 0.3129(4) 0.7832(6)
H14 H -0.3574 0.2802 0.6938
H15 H -0.2520 0.3604 0.7477
H16 H -0.3558 0.3288 0.8388
C19 C 0.0671(6) 0.1107(3) 0.4935(5)
H17 H 0.0102 0.1547 0.4220
H18 H -0.0158 0.0693 0.4840
C20 C 0.2030(6) 0.0759(4) 0.4539(7)
H19 H 0.1805 0.0193 0.4238
H20 H 0.2112 0.1057 0.3676
C21 C 0.3589(7) 0.0844(5) 0.5988(7)
H21 H 0.3921 0.0325 0.6520
H22 H 0.4501 0.1043 0.5746
C22 C 0.3207(6) 0.1429(4) 0.6989(6)
H23 H 0.3798 0.1283 0.8095
H24 H 0.3550 0.1972 0.6844
Li1 Li 0.0223(8) 0.2159(4) 0.7677(8)
C23 C 0.3765(4) 0.2723(2) 1.0499(4)
F1_2 F -0.2282(3) 0.18836(14) 0.5576(3)
N1_2 N -0.0235(4) 0.3119(2) 0.5927(4)
Li1_2 Li 1.0223(8) 0.2159(4) 1.7677(8)
loop_
_geom_bond_atom_site_label_1
_geom_bond_atom_site_label_2
_geom_bond_site_symmetry_1
_geom_bond_site_symmetry_2
F1 C2 1_555 1_555
F2 C3 1_555 1_555
F3 C5 1_555 1_555
F4 C6 1_555 1_555
F5 C8 1_555 1_555
F6 C9 1_555 1_555
F7 C10 1_555 1_555
F8 C11 1_555 1_555
F9 C12 1_555 1_555
O1 C19 1_555 1_555
N1 C1 1_555 1_555
N2 Li1 1_555 1_555
N3 C13 1_555 1_555
N4 C14 1_555 1_555
C1 C2 1_555 1_555
C2 C3 1_555 1_555
C3 C4 1_555 1_555
C4 C5 1_555 1_555
C5 C6 1_555 1_555
C6 C1 1_555 1_555
C7 N1 1_555 1_555
C8 C7 1_555 1_555
C9 C8 1_555 1_555
C10 C9 1_555 1_555
C11 C10 1_555 1_555
C12 C7 1_555 1_555
C13 H1 1_555 1_555
H2 C13 1_555 1_555
C14 C13 1_555 1_555
H3 C14 1_555 1_555
H4 C14 1_555 1_555
C15 N3 1_555 1_555
H5 C15 1_555 1_555
H6 C15 1_555 1_555
H7 C15 1_555 1_555
C16 N3 1_555 1_555
H8 C16 1_555 1_555
H9 C16 1_555 1_555
H10 C16 1_555 1_555
C17 N4 1_555 1_555
H11 C17 1_555 1_555
H12 C17 1_555 1_555
H13 C17 1_555 1_555
C18 N4 1_555 1_555
H14 C18 1_555 1_555
H15 C18 1_555 1_555
H16 C18 1_555 1_555
C19 H17 1_555 1_555
H18 C19 1_555 1_555
C20 C19 1_555 1_555
H19 C20 1_555 1_555
H20 C20 1_555 1_555
C21 C20 1_555 1_555
H21 C21 1_555 1_555
H22 C21 1_555 1_555
C22 O1 1_555 1_555
H23 C22 1_555 1_555
H24 C22 1_555 1_555
Li1 O1 1_555 1_555
C23 N2 1_555 1_555
F1_2 Li1 1_555 1_555
N1_2 Li1 1_555 1_555
Li1_2 F1 1_555 1_555
N1 Li1_2 1_555 1_555
N3 Li1 1_555 1_555
N4 Li1 1_555 1_555
C4 C23 1_555 1_555
C11 C12 1_555 1_555
C21 C22 1_555 1_555

#END
