
#######################################################################
#
#                 Cambridge Crystallographic Data Centre
#                                CCDC 
#
#######################################################################
#
# If this CIF has been generated from an entry in the Cambridge 
# Structural Database, then it will include bibliographic, chemical, 
# crystal, experimental, refinement or atomic coordinate data resulting 
# from the CCDC's data processing and validation procedures.
#
#######################################################################

data_EXACUC
_symmetry_cell_setting           orthorhombic
_symmetry_space_group_name_H-M   'P 21 21 21'
_symmetry_Int_Tables_number      19
_space_group_name_Hall           'P 2ac 2ab'
loop_
_symmetry_equiv_pos_site_id
_symmetry_equiv_pos_as_xyz
1 x,y,z
2 1/2-x,-y,1/2+z
3 -x,1/2+y,1/2-z
4 1/2+x,1/2-y,-z
_cell_length_a                   12.9406(6)
_cell_length_b                   14.1007(6)
_cell_length_c                   18.8914(8)
_cell_angle_alpha                90
_cell_angle_beta                 90
_cell_angle_gamma                90
_cell_volume                     3447.14
loop_
_atom_site_label
_atom_site_type_symbol
_atom_site_fract_x
_atom_site_fract_y
_atom_site_fract_z
Ho1 Ho 0.71253(3) 0.00056(3) 0.884989(19)
Ho2 Ho 0.77241(3) 0.02056(2) 0.671368(19)
C1 C 1.0112(7) 0.0964(6) 0.8279(5)
H1 H 0.9993 0.0693 0.8750
C2 C 1.1206(8) 0.0697(7) 0.8058(6)
H2 H 1.1213 0.0474 0.7572
H3 H 1.1473 0.0198 0.8360
C3 C 1.1877(8) 0.1614(6) 0.8133(5)
H4 H 1.2540 0.1469 0.8347
H5 H 1.1994 0.1904 0.7674
C4 C 1.1233(8) 0.2284(6) 0.8619(5)
C5 C 1.0081(7) 0.2079(6) 0.8358(5)
C6 C 0.9284(7) 0.0567(6) 0.7789(5)
C7 C 1.1530(7) 0.3315(5) 0.8510(5)
C8 C 1.1400(12) 0.1995(7) 0.9389(6)
H6 H 1.2101 0.2126 0.9523
H7 H 1.1264 0.1329 0.9441
H8 H 1.0938 0.2348 0.9687
C9 C 0.9886(11) 0.2553(8) 0.7639(6)
H9 H 0.9876 0.3229 0.7697
H10 H 0.9233 0.2345 0.7454
H11 H 1.0427 0.2381 0.7315
C10 C 0.9281(9) 0.2375(7) 0.8887(7)
H12 H 0.9276 0.3054 0.8927
H13 H 0.9440 0.2101 0.9339
H14 H 0.8613 0.2160 0.8735
C11 C 0.4492(7) -0.0661(6) 0.7362(5)
C12 C 0.3581(8) -0.0666(8) 0.7905(7)
H15 H 0.3852 -0.0769 0.8378
H16 H 0.3238 -0.0054 0.7899
C13 C 0.2847(10) -0.1401(8) 0.7736(7)
H17 H 0.2197 -0.1123 0.7587
H18 H 0.2720 -0.1795 0.8148
C14 C 0.3312(8) -0.1998(6) 0.7135(6)
H19 H 0.2971 -0.1800 0.6696
C15 C 0.4476(7) -0.1719(6) 0.7067(5)
C16 C 0.5512(7) -0.0418(6) 0.7711(5)
C17 C 0.3139(8) -0.3065(7) 0.7210(5)
C18 C 0.4256(10) 0.0047(8) 0.6786(7)
H20 H 0.4244 0.0675 0.6983
H21 H 0.3594 -0.0094 0.6582
H22 H 0.4778 0.0012 0.6426
C19 C 0.5155(10) -0.2367(8) 0.7531(7)
H23 H 0.5157 -0.2997 0.7337
H24 H 0.4883 -0.2383 0.8003
H25 H 0.5848 -0.2125 0.7540
C20 C 0.4898(12) -0.1812(9) 0.6326(6)
H26 H 0.4885 -0.2466 0.6186
H27 H 0.5597 -0.1583 0.6315
H28 H 0.4482 -0.1446 0.6007
C21 C 0.5629(8) -0.2257(6) 1.0170(5)
C22 C 0.5166(9) -0.2416(8) 0.9526(6)
H29 H 0.5272 -0.1979 0.9164
C23 C 0.4552(10) -0.3194(7) 0.9394(5)
H30 H 0.4266 -0.3292 0.8948
C24 C 0.4367(8) -0.3834(6) 0.9945(5)
C25 C 0.4805(8) -0.3666(7) 1.0609(5)
H31 H 0.4677 -0.4083 1.0980
C26 C 0.5425(9) -0.2885(7) 1.0715(5)
H32 H 0.5711 -0.2778 1.1159
C27 C 0.6313(8) -0.1412(6) 1.0287(5)
C28 C 0.3667(7) -0.4689(6) 0.9826(5)
O1 O 0.8418(4) 0.0311(5) 0.8025(3)
O2 O 0.9459(5) 0.0486(5) 0.7135(3)
O3 O 1.1331(6) 0.3928(4) 0.8976(3)
O4 O 1.1983(6) 0.3584(4) 0.7952(3)
O5 O 0.6300(5) -0.0281(5) 0.7352(4)
O6 O 0.5534(6) -0.0391(5) 0.8367(4)
O7 O 0.3287(6) -0.3546(4) 0.6657(3)
O8 O 0.2839(6) -0.3379(4) 0.7795(3)
O9 O 0.6555(6) -0.1219(5) 1.0909(3)
O10 O 0.6601(7) -0.0973(5) 0.9747(3)
O11 O 0.3451(5) -0.5196(4) 1.0361(3)
O12 O 0.3417(5) -0.4893(4) 0.9202(3)
O14 O 0.7625(6) -0.1491(4) 0.8448(3)
H40 H 0.7641 -0.1963 0.8724
H41 H 0.8069 -0.1543 0.8122
O15 O 0.6190(7) 0.0994(5) 0.9621(3)
H42 H 0.6443 0.0941 1.0035
H43 H 0.6137 0.1579 0.9516
Ho1B Ho 0.28747(3) -0.49944(3) 0.615011(19)
Ho1C Ho 0.21253(3) -0.50056(3) 1.115011(19)
Ho2B Ho 1.22759(3) 0.52056(2) 0.828632(19)
Ho2B_2 Ho 0.22759(3) -0.47944(2) 0.828632(19)
Ho2A Ho 0.72759(3) -0.02056(2) 1.171368(19)
O3B O 0.8669(6) -0.1072(4) 0.6024(3)
O4B O 0.8017(6) -0.1416(4) 0.7048(3)
O7B O 0.6713(6) 0.1454(4) 0.8343(3)
O8B O 0.7161(6) 0.1621(4) 0.7205(3)
O9A O 0.8445(6) 0.1219(5) 0.5909(3)
O11C O 0.8451(5) 0.0196(4) 0.9639(3)
O12B O 0.6583(5) 0.0107(4) 0.5798(3)
N1 N 1.1673(8) 0.0632(6) 0.5377(5)
O13 O 1.2186(11) 0.1739(7) 0.6158(6)
C29 C 1.1558(9) 0.1140(7) 0.5952(5)
H33 H 1.0966 0.1043 0.6223
C30 C 1.2593(11) 0.0764(13) 0.4937(10)
H34 H 1.3020 0.1250 0.5140
H35 H 1.2388 0.0948 0.4469
H36 H 1.2974 0.0180 0.4915
C31 C 1.0927(11) -0.0075(10) 0.5133(9)
H37 H 1.0371 -0.0121 0.5468
H38 H 1.1262 -0.0680 0.5091
H39 H 1.0658 0.0112 0.4680
loop_
_geom_bond_atom_site_label_1
_geom_bond_atom_site_label_2
_geom_bond_site_symmetry_1
_geom_bond_site_symmetry_2
Ho1 O1 1_555 1_555
Ho2 O1 1_555 1_555
C1 H1 1_555 1_555
C2 C1 1_555 1_555
H2 C2 1_555 1_555
H3 C2 1_555 1_555
C3 C2 1_555 1_555
H4 C3 1_555 1_555
H5 C3 1_555 1_555
C4 C3 1_555 1_555
C5 C1 1_555 1_555
C6 C1 1_555 1_555
C7 C4 1_555 1_555
C8 C4 1_555 1_555
H6 C8 1_555 1_555
H7 C8 1_555 1_555
H8 C8 1_555 1_555
C9 C5 1_555 1_555
H9 C9 1_555 1_555
H10 C9 1_555 1_555
H11 C9 1_555 1_555
C10 C5 1_555 1_555
H12 C10 1_555 1_555
H13 C10 1_555 1_555
H14 C10 1_555 1_555
C11 C12 1_555 1_555
C12 H15 1_555 1_555
H16 C12 1_555 1_555
C13 C12 1_555 1_555
H17 C13 1_555 1_555
H18 C13 1_555 1_555
C14 C13 1_555 1_555
H19 C14 1_555 1_555
C15 C11 1_555 1_555
C16 C11 1_555 1_555
C17 C14 1_555 1_555
C18 C11 1_555 1_555
H20 C18 1_555 1_555
H21 C18 1_555 1_555
H22 C18 1_555 1_555
C19 C15 1_555 1_555
H23 C19 1_555 1_555
H24 C19 1_555 1_555
H25 C19 1_555 1_555
C20 C15 1_555 1_555
H26 C20 1_555 1_555
H27 C20 1_555 1_555
H28 C20 1_555 1_555
C21 C22 1_555 1_555
C22 H29 1_555 1_555
C23 C22 1_555 1_555
H30 C23 1_555 1_555
C24 C23 1_555 1_555
C25 C24 1_555 1_555
H31 C25 1_555 1_555
C26 C21 1_555 1_555
H32 C26 1_555 1_555
C27 C21 1_555 1_555
C28 C24 1_555 1_555
O1 C6 1_555 1_555
O2 Ho2 1_555 1_555
O3 C7 1_555 1_555
O4 C7 1_555 1_555
O5 Ho2 1_555 1_555
O6 Ho1 1_555 1_555
O7 C17 1_555 1_555
O8 C17 1_555 1_555
O9 C27 1_555 1_555
O10 Ho1 1_555 1_555
O11 C28 1_555 1_555
O12 C28 1_555 1_555
N1 C29 1_555 1_555
O13 C29 1_555 1_555
C29 H33 1_555 1_555
C30 N1 1_555 1_555
H34 C30 1_555 1_555
H35 C30 1_555 1_555
H36 C30 1_555 1_555
C31 N1 1_555 1_555
H37 C31 1_555 1_555
H38 C31 1_555 1_555
H39 C31 1_555 1_555
O14 Ho1 1_555 1_555
H40 O14 1_555 1_555
H41 O14 1_555 1_555
O15 Ho1 1_555 1_555
H42 O15 1_555 1_555
H43 O15 1_555 1_555
Ho1B O7 1_555 1_555
Ho1C O11 1_555 1_555
Ho2B O3 1_555 1_555
Ho2B_2 O8 1_555 1_555
Ho2A O9 1_555 1_555
O3B Ho2 1_555 1_555
O4B Ho2 1_555 1_555
O7B Ho1 1_555 1_555
O8B Ho2 1_555 1_555
O9A Ho2 1_555 1_555
O11C Ho1 1_555 1_555
O12B Ho2 1_555 1_555
C4 C5 1_555 1_555
C6 O2 1_555 1_555
C14 C15 1_555 1_555
C16 O5 1_555 1_555
C16 O6 1_555 1_555
C25 C26 1_555 1_555
C27 O10 1_555 1_555
O4 Ho2B 1_555 1_555
O12 Ho2B_2 1_555 1_555

#END
