
#######################################################################
#
#                 Cambridge Crystallographic Data Centre
#                                CCDC 
#
#######################################################################
#
# If this CIF has been generated from an entry in the Cambridge 
# Structural Database, then it will include bibliographic, chemical, 
# crystal, experimental, refinement or atomic coordinate data resulting 
# from the CCDC's data processing and validation procedures.
#
#######################################################################

data_EXACOW
_symmetry_cell_setting           orthorhombic
_symmetry_space_group_name_H-M   'P 21 21 21'
_symmetry_Int_Tables_number      19
_space_group_name_Hall           'P 2ac 2ab'
loop_
_symmetry_equiv_pos_site_id
_symmetry_equiv_pos_as_xyz
1 x,y,z
2 1/2-x,-y,1/2+z
3 -x,1/2+y,1/2-z
4 1/2+x,1/2-y,-z
_cell_length_a                   12.939(3)
_cell_length_b                   14.111(3)
_cell_length_c                   18.910(4)
_cell_angle_alpha                90
_cell_angle_beta                 90
_cell_angle_gamma                90
_cell_volume                     3452.63
loop_
_atom_site_label
_atom_site_type_symbol
_atom_site_fract_x
_atom_site_fract_y
_atom_site_fract_z
Dy1 Dy 0.71270(2) 0.00075(2) 0.885328(14)
Dy2 Dy 0.77212(2) 0.020673(19) 0.671434(14)
C1 C 1.0114(5) 0.0964(4) 0.8275(4)
H1 H 0.9992 0.0691 0.8744
C2 C 1.1211(6) 0.0706(5) 0.8056(4)
H2 H 1.1220 0.0481 0.7571
H3 H 1.1479 0.0209 0.8358
C3 C 1.1877(6) 0.1612(5) 0.8128(4)
H4 H 1.2537 0.1470 0.8346
H5 H 1.1998 0.1899 0.7669
C4 C 1.1227(5) 0.2274(5) 0.8604(4)
C5 C 1.0092(5) 0.2076(5) 0.8354(4)
C6 C 0.9298(5) 0.0568(5) 0.7777(3)
C7 C 1.1530(5) 0.3320(4) 0.8506(3)
C8 C 1.1400(7) 0.2002(6) 0.9378(4)
H6 H 1.2103 0.2135 0.9507
H7 H 1.1264 0.1338 0.9439
H8 H 1.0942 0.2362 0.9673
C9 C 0.9875(8) 0.2559(6) 0.7637(5)
H9 H 0.9866 0.3234 0.7698
H10 H 0.9217 0.2352 0.7460
H11 H 1.0407 0.2390 0.7306
C10 C 0.9278(6) 0.2392(6) 0.8881(5)
H12 H 0.9283 0.3071 0.8915
H13 H 0.9427 0.2123 0.9336
H14 H 0.8610 0.2182 0.8725
C11 C 0.4474(5) -0.0670(5) 0.7367(4)
C12 C 0.3601(6) -0.0686(6) 0.7915(5)
H15 H 0.3880 -0.0830 0.8379
H16 H 0.3270 -0.0070 0.7937
C13 C 0.2855(7) -0.1399(6) 0.7715(5)
H17 H 0.2224 -0.1099 0.7551
H18 H 0.2689 -0.1795 0.8119
C14 C 0.3325(6) -0.1998(5) 0.7127(4)
H19 H 0.2995 -0.1797 0.6685
C15 C 0.4482(5) -0.1715(5) 0.7073(4)
C16 C 0.5513(5) -0.0423(5) 0.7712(4)
C17 C 0.3136(5) -0.3057(5) 0.7198(4)
C18 C 0.4243(6) 0.0058(6) 0.6789(5)
H20 H 0.4233 0.0681 0.6992
H21 H 0.3582 -0.0077 0.6582
H22 H 0.4768 0.0026 0.6432
C19 C 0.5136(8) -0.2378(6) 0.7533(5)
H23 H 0.5130 -0.3003 0.7333
H24 H 0.4854 -0.2398 0.8002
H25 H 0.5833 -0.2147 0.7551
C20 C 0.4906(7) -0.1805(7) 0.6320(4)
H26 H 0.4894 -0.2458 0.6178
H27 H 0.5604 -0.1574 0.6307
H28 H 0.4487 -0.1438 0.6003
C21 C 0.5633(5) -0.2261(5) 1.0169(4)
C22 C 0.5186(7) -0.2428(6) 0.9521(4)
H29 H 0.5311 -0.2005 0.9153
C23 C 0.4558(7) -0.3201(6) 0.9397(4)
H30 H 0.4266 -0.3297 0.8954
C24 C 0.4370(5) -0.3838(5) 0.9947(4)
C25 C 0.4798(6) -0.3670(5) 1.0605(4)
H31 H 0.4665 -0.4084 1.0976
C26 C 0.5425(6) -0.2888(5) 1.0713(4)
H32 H 0.5710 -0.2783 1.1158
C27 C 0.6308(6) -0.1413(5) 1.0289(4)
C28 C 0.3696(4) -0.4689(5) 0.9818(3)
O1 O 0.8414(3) 0.0324(3) 0.8030(2)
O2 O 0.9450(4) 0.0486(4) 0.7136(2)
O3 O 1.1330(4) 0.3925(3) 0.8972(2)
O4 O 1.1987(4) 0.3591(3) 0.7949(3)
O5 O 0.6301(3) -0.0277(4) 0.7338(3)
O6 O 0.5543(4) -0.0388(4) 0.8369(3)
O7 O 0.3281(4) -0.3540(3) 0.6651(3)
O8 O 0.2851(4) -0.3380(3) 0.7790(2)
O9 O 0.6553(4) -0.1213(4) 1.0912(2)
O10 O 0.6602(5) -0.0971(4) 0.9750(3)
O11 O 0.3448(3) -0.5197(3) 1.0358(2)
O12 O 0.3417(3) -0.4882(3) 0.9201(2)
O14 O 0.7609(4) -0.1491(3) 0.8449(3)
H40 H 0.7625 -0.1962 0.8724
H41 H 0.8053 -0.1543 0.8122
O15 O 0.6187(5) 0.0999(4) 0.9623(3)
H42 H 0.635(7) 0.101(4) 1.0060(14)
H43 H 0.605(6) 0.156(2) 0.949(2)
Dy1B Dy 0.28730(2) -0.49925(2) 0.614672(14)
Dy1C Dy 0.21270(2) -0.50075(2) 1.114672(14)
Dy2B Dy 1.22788(2) 0.520673(19) 0.828566(14)
Dy2B_2 Dy 0.22788(2) -0.479327(19) 0.828566(14)
Dy2A Dy 0.72788(2) -0.020673(19) 1.171434(14)
O3B O 0.8670(4) -0.1075(3) 0.6028(2)
O4B O 0.8013(4) -0.1409(3) 0.7051(3)
O7B O 0.6719(4) 0.1460(3) 0.8349(3)
O8B O 0.7149(4) 0.1620(3) 0.7210(2)
O9A O 0.8447(4) 0.1213(4) 0.5912(2)
O11C O 0.8448(3) 0.0197(3) 0.9642(2)
O12B O 0.6583(3) 0.0118(3) 0.5799(2)
N1 N 1.1662(6) 0.0636(4) 0.5390(3)
O13 O 1.2184(8) 0.1756(5) 0.6154(5)
C29 C 1.1559(7) 0.1147(6) 0.5962(4)
H33 H 1.0978 0.1046 0.6242
C30 C 1.2568(8) 0.0790(10) 0.4944(7)
H34 H 1.2993 0.1276 0.5148
H35 H 1.2349 0.0982 0.4480
H36 H 1.2957 0.0213 0.4910
C31 C 1.0927(8) -0.0082(7) 0.5155(7)
H37 H 1.0372 -0.0127 0.5490
H38 H 1.1271 -0.0683 0.5120
H39 H 1.0656 0.0092 0.4701
loop_
_geom_bond_atom_site_label_1
_geom_bond_atom_site_label_2
_geom_bond_site_symmetry_1
_geom_bond_site_symmetry_2
Dy1 O1 1_555 1_555
Dy2 O1 1_555 1_555
C1 H1 1_555 1_555
C2 C1 1_555 1_555
H2 C2 1_555 1_555
H3 C2 1_555 1_555
C3 C2 1_555 1_555
H4 C3 1_555 1_555
H5 C3 1_555 1_555
C4 C3 1_555 1_555
C5 C1 1_555 1_555
C6 C1 1_555 1_555
C7 C4 1_555 1_555
C8 C4 1_555 1_555
H6 C8 1_555 1_555
H7 C8 1_555 1_555
H8 C8 1_555 1_555
C9 C5 1_555 1_555
H9 C9 1_555 1_555
H10 C9 1_555 1_555
H11 C9 1_555 1_555
C10 C5 1_555 1_555
H12 C10 1_555 1_555
H13 C10 1_555 1_555
H14 C10 1_555 1_555
C11 C12 1_555 1_555
C12 H15 1_555 1_555
H16 C12 1_555 1_555
C13 C12 1_555 1_555
H17 C13 1_555 1_555
H18 C13 1_555 1_555
C14 C13 1_555 1_555
H19 C14 1_555 1_555
C15 C11 1_555 1_555
C16 C11 1_555 1_555
C17 C14 1_555 1_555
C18 C11 1_555 1_555
H20 C18 1_555 1_555
H21 C18 1_555 1_555
H22 C18 1_555 1_555
C19 C15 1_555 1_555
H23 C19 1_555 1_555
H24 C19 1_555 1_555
H25 C19 1_555 1_555
C20 C15 1_555 1_555
H26 C20 1_555 1_555
H27 C20 1_555 1_555
H28 C20 1_555 1_555
C21 C22 1_555 1_555
C22 H29 1_555 1_555
C23 C22 1_555 1_555
H30 C23 1_555 1_555
C24 C23 1_555 1_555
C25 C24 1_555 1_555
H31 C25 1_555 1_555
C26 C21 1_555 1_555
H32 C26 1_555 1_555
C27 C21 1_555 1_555
C28 C24 1_555 1_555
O1 C6 1_555 1_555
O2 Dy2 1_555 1_555
O3 C7 1_555 1_555
O4 C7 1_555 1_555
O5 Dy2 1_555 1_555
O6 Dy1 1_555 1_555
O7 C17 1_555 1_555
O8 C17 1_555 1_555
O9 C27 1_555 1_555
O10 Dy1 1_555 1_555
O11 C28 1_555 1_555
O12 C28 1_555 1_555
N1 C29 1_555 1_555
O13 C29 1_555 1_555
C29 H33 1_555 1_555
C30 N1 1_555 1_555
H34 C30 1_555 1_555
H35 C30 1_555 1_555
H36 C30 1_555 1_555
C31 N1 1_555 1_555
H37 C31 1_555 1_555
H38 C31 1_555 1_555
H39 C31 1_555 1_555
O14 Dy1 1_555 1_555
H40 O14 1_555 1_555
H41 O14 1_555 1_555
O15 Dy1 1_555 1_555
H42 O15 1_555 1_555
H43 O15 1_555 1_555
Dy1B O7 1_555 1_555
Dy1C O11 1_555 1_555
Dy2B O3 1_555 1_555
Dy2B_2 O8 1_555 1_555
Dy2A O9 1_555 1_555
O3B Dy2 1_555 1_555
O4B Dy2 1_555 1_555
O7B Dy1 1_555 1_555
O8B Dy2 1_555 1_555
O9A Dy2 1_555 1_555
O11C Dy1 1_555 1_555
O12B Dy2 1_555 1_555
C4 C5 1_555 1_555
C6 O2 1_555 1_555
C14 C15 1_555 1_555
C16 O5 1_555 1_555
C16 O6 1_555 1_555
C25 C26 1_555 1_555
C27 O10 1_555 1_555
O4 Dy2B 1_555 1_555
O12 Dy2B_2 1_555 1_555

#END
