
#######################################################################
#
#                 Cambridge Crystallographic Data Centre
#                                CCDC 
#
#######################################################################
#
# If this CIF has been generated from an entry in the Cambridge 
# Structural Database, then it will include bibliographic, chemical, 
# crystal, experimental, refinement or atomic coordinate data resulting 
# from the CCDC's data processing and validation procedures.
#
#######################################################################

data_EXACAI01
_symmetry_cell_setting           orthorhombic
_symmetry_space_group_name_H-M   'P 21 21 21'
_symmetry_Int_Tables_number      19
_space_group_name_Hall           'P 2ac 2ab'
loop_
_symmetry_equiv_pos_site_id
_symmetry_equiv_pos_as_xyz
1 x,y,z
2 1/2-x,-y,1/2+z
3 -x,1/2+y,1/2-z
4 1/2+x,1/2-y,-z
_cell_length_a                   12.967(5)
_cell_length_b                   14.162(5)
_cell_length_c                   18.984(6)
_cell_angle_alpha                90
_cell_angle_beta                 90
_cell_angle_gamma                90
_cell_volume                     3486.2
loop_
_atom_site_label
_atom_site_type_symbol
_atom_site_fract_x
_atom_site_fract_y
_atom_site_fract_z
Eu1 Eu 0.71210(2) -0.00037(2) 0.884569(14)
Eu2 Eu 0.77244(2) 0.020388(19) 0.671959(14)
C1 C 1.0120(5) 0.0954(4) 0.8280(4)
H1 H 0.9988 0.0686 0.8748
C2 C 1.1223(5) 0.0697(4) 0.8067(4)
H2 H 1.1237 0.0472 0.7584
H3 H 1.1488 0.0202 0.8370
C3 C 1.1884(5) 0.1596(4) 0.8140(4)
H4 H 1.2011 0.1879 0.7683
H5 H 1.2540 0.1453 0.8361
C4 C 1.1234(5) 0.2264(4) 0.8611(3)
C5 C 1.0102(5) 0.2070(4) 0.8347(4)
C6 C 0.9318(5) 0.0565(4) 0.7775(3)
C7 C 1.1534(5) 0.3313(4) 0.8509(3)
C8 C 1.1388(6) 0.2003(5) 0.9384(4)
H6 H 1.2087 0.2133 0.9519
H7 H 1.1246 0.1343 0.9449
H8 H 1.0927 0.2369 0.9671
C9 C 0.9899(8) 0.2534(5) 0.7633(5)
H9 H 0.9889 0.3207 0.7687
H10 H 0.9246 0.2324 0.7453
H11 H 1.0436 0.2361 0.7309
C10 C 0.9285(6) 0.2375(5) 0.8879(5)
H12 H 0.9283 0.3051 0.8917
H13 H 0.9438 0.2104 0.9330
H14 H 0.8619 0.2163 0.8724
C11 C 0.4477(5) -0.0676(5) 0.7369(4)
C12 C 0.3574(6) -0.0667(6) 0.7886(5)
H15 H 0.3827 -0.0765 0.8361
H16 H 0.3231 -0.0059 0.7869
C13 C 0.2850(7) -0.1407(5) 0.7704(5)
H17 H 0.2207 -0.1134 0.7541
H18 H 0.2707 -0.1796 0.8112
C14 C 0.3335(5) -0.1996(4) 0.7126(4)
H19 H 0.3014 -0.1794 0.6684
C15 C 0.4504(5) -0.1723(4) 0.7073(4)
C16 C 0.5482(5) -0.0432(4) 0.7741(4)
C17 C 0.3137(5) -0.3048(4) 0.7192(4)
C18 C 0.4282(6) 0.0054(6) 0.6783(4)
H20 H 0.4272 0.0676 0.6983
H21 H 0.3630 -0.0074 0.6563
H22 H 0.4822 0.0014 0.6439
C19 C 0.5142(7) -0.2368(5) 0.7546(5)
H23 H 0.5145 -0.2995 0.7355
H24 H 0.4846 -0.2379 0.8010
H25 H 0.5836 -0.2135 0.7572
C20 C 0.4924(7) -0.1808(6) 0.6329(4)
H26 H 0.4913 -0.2458 0.6186
H27 H 0.5620 -0.1577 0.6316
H28 H 0.4505 -0.1442 0.6014
C21 C 0.5633(6) -0.2272(5) 1.0178(4)
C22 C 0.5182(6) -0.2425(6) 0.9510(4)
H29 H 0.5306 -0.2001 0.9146
C23 C 0.4562(6) -0.3196(5) 0.9397(4)
H30 H 0.4272 -0.3296 0.8955
C24 C 0.4363(5) -0.3842(5) 0.9952(4)
C25 C 0.4801(6) -0.3683(5) 1.0606(4)
H31 H 0.4670 -0.4102 1.0973
C26 C 0.5437(5) -0.2904(5) 1.0721(4)
H32 H 0.5729 -0.2807 1.1163
C27 C 0.6304(5) -0.1420(5) 1.0283(4)
C28 C 0.3700(5) -0.4693(4) 0.9821(3)
O1 O 0.8431(3) 0.0322(3) 0.8026(2)
O2 O 0.9475(3) 0.0465(4) 0.7139(2)
O3 O 1.1319(4) 0.3915(3) 0.8967(2)
O4 O 1.1994(4) 0.3576(3) 0.7954(2)
O5 O 0.6301(3) -0.0286(3) 0.7384(2)
O6 O 0.5493(4) -0.0393(4) 0.8395(2)
O7 O 0.3287(4) -0.3538(3) 0.6646(2)
O8 O 0.2852(4) -0.3370(3) 0.7784(2)
O9 O 0.6541(4) -0.1225(3) 1.0913(3)
O10 O 0.6606(4) -0.0980(3) 0.9752(3)
O11 O 0.3457(3) -0.5186(3) 1.0354(2)
O12 O 0.3425(3) -0.4889(3) 0.9203(2)
O14 O 0.7616(4) -0.1508(3) 0.8440(2)
H40 H 0.7632 -0.1980 0.8715
H41 H 0.8060 -0.1560 0.8113
O15 O 0.6173(4) 0.0996(3) 0.9638(3)
H42 H 0.6664 0.0962 0.9935
H43 H 0.6119 0.1564 0.9493
Eu1B Eu 0.28790(2) -0.50037(2) 0.615431(14)
Eu1C Eu 0.21210(2) -0.49963(2) 1.115431(14)
Eu2B Eu 1.22756(2) 0.520388(19) 0.828041(14)
Eu2B_2 Eu 0.22756(2) -0.479612(19) 0.828041(14)
Eu2A Eu 0.72756(2) -0.020388(19) 1.171959(14)
O3B O 0.8681(4) -0.1085(3) 0.6033(2)
O4B O 0.8006(4) -0.1424(3) 0.7046(2)
O7B O 0.6713(4) 0.1462(3) 0.8354(2)
O8B O 0.7148(4) 0.1630(3) 0.7216(2)
O9A O 0.8459(4) 0.1225(3) 0.5913(3)
O11C O 0.8457(3) 0.0186(3) 0.9646(2)
O12B O 0.6575(3) 0.0111(3) 0.5797(2)
N1 N 1.1658(5) 0.0635(4) 0.5385(3)
O13 O 1.2203(7) 0.1749(5) 0.6139(4)
C29 C 1.1573(6) 0.1135(5) 0.5963(4)
H33 H 1.1011 0.1023 0.6256
C30 C 1.2545(8) 0.0829(9) 0.4933(7)
H34 H 1.2961 0.1314 0.5143
H35 H 1.2309 0.1035 0.4479
H36 H 1.2948 0.0264 0.4880
C31 C 1.0948(7) -0.0094(7) 0.5142(6)
H37 H 1.0386 -0.0151 0.5469
H38 H 1.1305 -0.0686 0.5110
H39 H 1.0684 0.0075 0.4686
loop_
_geom_bond_atom_site_label_1
_geom_bond_atom_site_label_2
_geom_bond_site_symmetry_1
_geom_bond_site_symmetry_2
Eu1 O1 1_555 1_555
Eu2 O1 1_555 1_555
C1 H1 1_555 1_555
C2 C1 1_555 1_555
H2 C2 1_555 1_555
H3 C2 1_555 1_555
C3 C2 1_555 1_555
H4 C3 1_555 1_555
H5 C3 1_555 1_555
C4 C3 1_555 1_555
C5 C1 1_555 1_555
C6 C1 1_555 1_555
C7 C4 1_555 1_555
C8 C4 1_555 1_555
H6 C8 1_555 1_555
H7 C8 1_555 1_555
H8 C8 1_555 1_555
C9 C5 1_555 1_555
H9 C9 1_555 1_555
H10 C9 1_555 1_555
H11 C9 1_555 1_555
C10 C5 1_555 1_555
H12 C10 1_555 1_555
H13 C10 1_555 1_555
H14 C10 1_555 1_555
C11 C12 1_555 1_555
C12 H15 1_555 1_555
H16 C12 1_555 1_555
C13 C12 1_555 1_555
H17 C13 1_555 1_555
H18 C13 1_555 1_555
C14 C13 1_555 1_555
H19 C14 1_555 1_555
C15 C11 1_555 1_555
C16 C11 1_555 1_555
C17 C14 1_555 1_555
C18 C11 1_555 1_555
H20 C18 1_555 1_555
H21 C18 1_555 1_555
H22 C18 1_555 1_555
C19 C15 1_555 1_555
H23 C19 1_555 1_555
H24 C19 1_555 1_555
H25 C19 1_555 1_555
C20 C15 1_555 1_555
H26 C20 1_555 1_555
H27 C20 1_555 1_555
H28 C20 1_555 1_555
C21 C22 1_555 1_555
C22 H29 1_555 1_555
C23 C22 1_555 1_555
H30 C23 1_555 1_555
C24 C23 1_555 1_555
C25 C24 1_555 1_555
H31 C25 1_555 1_555
C26 C21 1_555 1_555
H32 C26 1_555 1_555
C27 C21 1_555 1_555
C28 C24 1_555 1_555
O1 C6 1_555 1_555
O2 Eu2 1_555 1_555
O3 C7 1_555 1_555
O4 C7 1_555 1_555
O5 Eu2 1_555 1_555
O6 Eu1 1_555 1_555
O7 C17 1_555 1_555
O8 C17 1_555 1_555
O9 C27 1_555 1_555
O10 Eu1 1_555 1_555
O11 C28 1_555 1_555
O12 C28 1_555 1_555
N1 C29 1_555 1_555
O13 C29 1_555 1_555
C29 H33 1_555 1_555
C30 N1 1_555 1_555
H34 C30 1_555 1_555
H35 C30 1_555 1_555
H36 C30 1_555 1_555
C31 N1 1_555 1_555
H37 C31 1_555 1_555
H38 C31 1_555 1_555
H39 C31 1_555 1_555
O14 Eu1 1_555 1_555
H40 O14 1_555 1_555
H41 O14 1_555 1_555
O15 Eu1 1_555 1_555
H42 O15 1_555 1_555
H43 O15 1_555 1_555
Eu1B O7 1_555 1_555
Eu1C O11 1_555 1_555
Eu2B O3 1_555 1_555
Eu2B_2 O8 1_555 1_555
Eu2A O9 1_555 1_555
O3B Eu2 1_555 1_555
O4B Eu2 1_555 1_555
O7B Eu1 1_555 1_555
O8B Eu2 1_555 1_555
O9A Eu2 1_555 1_555
O11C Eu1 1_555 1_555
O12B Eu2 1_555 1_555
C4 C5 1_555 1_555
C6 O2 1_555 1_555
C14 C15 1_555 1_555
C16 O5 1_555 1_555
C16 O6 1_555 1_555
C25 C26 1_555 1_555
C27 O10 1_555 1_555
O4 Eu2B 1_555 1_555
O12 Eu2B_2 1_555 1_555

#END
