
#######################################################################
#
#                 Cambridge Crystallographic Data Centre
#                                CCDC 
#
#######################################################################
#
# If this CIF has been generated from an entry in the Cambridge 
# Structural Database, then it will include bibliographic, chemical, 
# crystal, experimental, refinement or atomic coordinate data resulting 
# from the CCDC's data processing and validation procedures.
#
#######################################################################

data_EXACIQ
_symmetry_cell_setting           orthorhombic
_symmetry_space_group_name_H-M   'P 21 21 21'
_symmetry_Int_Tables_number      19
_space_group_name_Hall           'P 2ac 2ab'
loop_
_symmetry_equiv_pos_site_id
_symmetry_equiv_pos_as_xyz
1 x,y,z
2 1/2-x,-y,1/2+z
3 -x,1/2+y,1/2-z
4 1/2+x,1/2-y,-z
_cell_length_a                   12.932(8)
_cell_length_b                   14.067(8)
_cell_length_c                   18.928(12)
_cell_angle_alpha                90
_cell_angle_beta                 90
_cell_angle_gamma                90
_cell_volume                     3443.28
loop_
_atom_site_label
_atom_site_type_symbol
_atom_site_fract_x
_atom_site_fract_y
_atom_site_fract_z
Tb1 Tb 0.71235(4) 0.00040(4) 0.88483(3)
Tb2 Tb 0.77234(4) 0.02062(3) 0.67157(2)
C1 C 1.0124(8) 0.0961(9) 0.8288(7)
H1 H 1.0001 0.0697 0.8760
C2 C 1.1232(10) 0.0698(10) 0.8056(8)
H2 H 1.1504 0.0192 0.8350
H3 H 1.1235 0.0487 0.7568
C3 C 1.1882(10) 0.1602(9) 0.8140(7)
H4 H 1.2026 0.1884 0.7683
H5 H 1.2532 0.1460 0.8372
C4 C 1.1219(9) 0.2279(9) 0.8596(6)
C5 C 1.0095(9) 0.2078(9) 0.8336(7)
C6 C 0.9303(8) 0.0560(9) 0.7777(6)
C7 C 1.1501(9) 0.3314(9) 0.8514(6)
C8 C 1.1392(13) 0.2008(12) 0.9385(7)
H6 H 1.2095 0.2141 0.9515
H7 H 1.1254 0.1343 0.9449
H8 H 1.0933 0.2373 0.9677
C9 C 0.9895(12) 0.2570(11) 0.7638(7)
H9 H 0.9890 0.3246 0.7708
H10 H 0.9238 0.2371 0.7455
H11 H 1.0430 0.2406 0.7309
C10 C 0.9295(11) 0.2385(10) 0.8881(10)
H12 H 0.9298 0.3065 0.8920
H13 H 0.9462 0.2109 0.9330
H14 H 0.8623 0.2174 0.8735
C11 C 0.4475(9) -0.0671(9) 0.7357(7)
C12 C 0.3576(10) -0.0661(11) 0.7911(9)
H15 H 0.3849 -0.0772 0.8381
H16 H 0.3234 -0.0047 0.7908
C13 C 0.2850(11) -0.1396(11) 0.7729(9)
H17 H 0.2205 -0.1115 0.7573
H18 H 0.2710 -0.1790 0.8138
C14 C 0.3316(9) -0.2002(9) 0.7134(8)
H19 H 0.2982 -0.1795 0.6695
C15 C 0.4481(9) -0.1707(9) 0.7075(7)
C16 C 0.5494(8) -0.0426(8) 0.7733(6)
C17 C 0.3119(8) -0.3057(8) 0.7196(5)
C18 C 0.4274(12) 0.0056(13) 0.6784(10)
H20 H 0.4265 0.0680 0.6988
H21 H 0.3619 -0.0072 0.6566
H22 H 0.4811 0.0020 0.6435
C19 C 0.5132(13) -0.2346(10) 0.7528(10)
H23 H 0.5130 -0.2976 0.7334
H24 H 0.4854 -0.2361 0.7998
H25 H 0.5827 -0.2108 0.7542
C20 C 0.4908(12) -0.1774(13) 0.6312(8)
H26 H 0.4902 -0.2425 0.6161
H27 H 0.5604 -0.1537 0.6302
H28 H 0.4484 -0.1401 0.6002
C21 C 0.5612(9) -0.2242(8) 1.0180(6)
C22 C 0.5175(13) -0.2422(11) 0.9518(7)
H29 H 0.5310 -0.2009 0.9146
C23 C 0.4552(12) -0.3197(10) 0.9407(7)
H30 H 0.4252 -0.3291 0.8966
C24 C 0.4365(8) -0.3843(8) 0.9948(7)
C25 C 0.4800(11) -0.3670(9) 1.0617(6)
H31 H 0.4666 -0.4080 1.0992
C26 C 0.5429(10) -0.2887(11) 1.0713(7)
H32 H 0.5738 -0.2792 1.1152
C27 C 0.6322(10) -0.1423(9) 1.0283(6)
C28 C 0.3702(9) -0.4701(10) 0.9821(5)
O1 O 0.8428(5) 0.0334(6) 0.8019(4)
O2 O 0.9468(7) 0.0476(8) 0.7135(4)
O3 O 1.1322(7) 0.3924(6) 0.8969(4)
O4 O 1.1976(8) 0.3590(7) 0.7955(4)
O5 O 0.6289(6) -0.0280(7) 0.7347(5)
O6 O 0.5517(8) -0.0392(9) 0.8364(5)
O7 O 0.3281(7) -0.3534(6) 0.6654(4)
O8 O 0.2854(7) -0.3380(6) 0.7787(4)
O9 O 0.6542(7) -0.1209(8) 1.0914(4)
O10 O 0.6578(8) -0.0965(7) 0.9764(4)
O11 O 0.3429(6) -0.5185(6) 1.0351(4)
O12 O 0.3402(6) -0.4897(7) 0.9207(4)
O14 O 0.7615(7) -0.1496(6) 0.8443(4)
H40 H 0.7632 -0.1968 0.8718
H41 H 0.8060 -0.1548 0.8116
O15 O 0.6181(8) 0.1003(8) 0.9623(4)
H42 H 0.6307 0.0953 1.0062
H43 H 0.6134 0.1586 0.9510
Tb1B Tb 0.28765(4) -0.49960(4) 0.61517(3)
Tb1C Tb 0.21235(4) -0.50040(4) 1.11517(3)
Tb2B Tb 1.22766(4) 0.52062(3) 0.82843(2)
Tb2B_2 Tb 0.22766(4) -0.47938(3) 0.82843(2)
Tb2A Tb 0.72766(4) -0.02062(3) 1.17157(2)
O3B O 0.8678(7) -0.1076(6) 0.6031(4)
O4B O 0.8024(8) -0.1410(7) 0.7045(4)
O7B O 0.6719(7) 0.1466(6) 0.8346(4)
O8B O 0.7146(7) 0.1620(6) 0.7213(4)
O9A O 0.8458(7) 0.1209(8) 0.5914(4)
O11C O 0.8429(6) 0.0185(6) 0.9649(4)
O12B O 0.6598(6) 0.0103(7) 0.5793(4)
N1 N 1.1657(13) 0.0635(10) 0.5363(8)
O13 O 1.2157(14) 0.1738(11) 0.6151(8)
C29 C 1.1542(10) 0.1124(11) 0.5948(7)
H33 H 1.0965 0.1000 0.6226
C30 C 1.2552(17) 0.0776(19) 0.4878(15)
H34 H 1.2998 0.1259 0.5066
H35 H 1.2305 0.0969 0.4422
H36 H 1.2928 0.0191 0.4834
C31 C 1.0914(16) -0.0074(16) 0.5150(14)
H37 H 1.0368 -0.0106 0.5493
H38 H 1.1249 -0.0682 0.5118
H39 H 1.0632 0.0092 0.4698
loop_
_geom_bond_atom_site_label_1
_geom_bond_atom_site_label_2
_geom_bond_site_symmetry_1
_geom_bond_site_symmetry_2
Tb1 O1 1_555 1_555
Tb2 O1 1_555 1_555
C1 H1 1_555 1_555
C2 C1 1_555 1_555
H2 C2 1_555 1_555
H3 C2 1_555 1_555
C3 C2 1_555 1_555
H4 C3 1_555 1_555
H5 C3 1_555 1_555
C4 C3 1_555 1_555
C5 C1 1_555 1_555
C6 C1 1_555 1_555
C7 C4 1_555 1_555
C8 C4 1_555 1_555
H6 C8 1_555 1_555
H7 C8 1_555 1_555
H8 C8 1_555 1_555
C9 C5 1_555 1_555
H9 C9 1_555 1_555
H10 C9 1_555 1_555
H11 C9 1_555 1_555
C10 C5 1_555 1_555
H12 C10 1_555 1_555
H13 C10 1_555 1_555
H14 C10 1_555 1_555
C11 C12 1_555 1_555
C12 H15 1_555 1_555
H16 C12 1_555 1_555
C13 C12 1_555 1_555
H17 C13 1_555 1_555
H18 C13 1_555 1_555
C14 C13 1_555 1_555
H19 C14 1_555 1_555
C15 C11 1_555 1_555
C16 C11 1_555 1_555
C17 C14 1_555 1_555
C18 C11 1_555 1_555
H20 C18 1_555 1_555
H21 C18 1_555 1_555
H22 C18 1_555 1_555
C19 C15 1_555 1_555
H23 C19 1_555 1_555
H24 C19 1_555 1_555
H25 C19 1_555 1_555
C20 C15 1_555 1_555
H26 C20 1_555 1_555
H27 C20 1_555 1_555
H28 C20 1_555 1_555
C21 C22 1_555 1_555
C22 H29 1_555 1_555
C23 C22 1_555 1_555
H30 C23 1_555 1_555
C24 C23 1_555 1_555
C25 C24 1_555 1_555
H31 C25 1_555 1_555
C26 C21 1_555 1_555
H32 C26 1_555 1_555
C27 C21 1_555 1_555
C28 C24 1_555 1_555
O1 C6 1_555 1_555
O2 Tb2 1_555 1_555
O3 C7 1_555 1_555
O4 C7 1_555 1_555
O5 Tb2 1_555 1_555
O6 Tb1 1_555 1_555
O7 C17 1_555 1_555
O8 C17 1_555 1_555
O9 C27 1_555 1_555
O10 Tb1 1_555 1_555
O11 C28 1_555 1_555
O12 C28 1_555 1_555
N1 C29 1_555 1_555
O13 C29 1_555 1_555
C29 H33 1_555 1_555
C30 N1 1_555 1_555
H34 C30 1_555 1_555
H35 C30 1_555 1_555
H36 C30 1_555 1_555
C31 N1 1_555 1_555
H37 C31 1_555 1_555
H38 C31 1_555 1_555
H39 C31 1_555 1_555
O14 Tb1 1_555 1_555
H40 O14 1_555 1_555
H41 O14 1_555 1_555
O15 Tb1 1_555 1_555
H42 O15 1_555 1_555
H43 O15 1_555 1_555
Tb1B O7 1_555 1_555
Tb1C O11 1_555 1_555
Tb2B O3 1_555 1_555
Tb2B_2 O8 1_555 1_555
Tb2A O9 1_555 1_555
O3B Tb2 1_555 1_555
O4B Tb2 1_555 1_555
O7B Tb1 1_555 1_555
O8B Tb2 1_555 1_555
O9A Tb2 1_555 1_555
O11C Tb1 1_555 1_555
O12B Tb2 1_555 1_555
C4 C5 1_555 1_555
C6 O2 1_555 1_555
C14 C15 1_555 1_555
C16 O5 1_555 1_555
C16 O6 1_555 1_555
C25 C26 1_555 1_555
C27 O10 1_555 1_555
O4 Tb2B 1_555 1_555
O12 Tb2B_2 1_555 1_555

#END
