
#######################################################################
#
#                 Cambridge Crystallographic Data Centre
#                                CCDC 
#
#######################################################################
#
# If this CIF has been generated from an entry in the Cambridge 
# Structural Database, then it will include bibliographic, chemical, 
# crystal, experimental, refinement or atomic coordinate data resulting 
# from the CCDC's data processing and validation procedures.
#
#######################################################################

data_EXADUC
_symmetry_cell_setting           triclinic
_symmetry_space_group_name_H-M   'P -1'
_symmetry_Int_Tables_number      2
_space_group_name_Hall           '-P 1'
loop_
_symmetry_equiv_pos_site_id
_symmetry_equiv_pos_as_xyz
1 x,y,z
2 -x,-y,-z
_cell_length_a                   7.499(2)
_cell_length_b                   9.373(3)
_cell_length_c                   10.432(3)
_cell_angle_alpha                102.561(4)
_cell_angle_beta                 101.359(4)
_cell_angle_gamma                109.456(4)
_cell_volume                     645.27
loop_
_atom_site_label
_atom_site_type_symbol
_atom_site_fract_x
_atom_site_fract_y
_atom_site_fract_z
Cu1 Cu 0.0000 -0.5000 0.0000
Cu2 Cu 0.0000 -1.0000 0.5000
Cl1 Cl 0.16535(16) -0.09749(12) 0.19366(11)
N1 N 0.3847(7) -0.2436(4) 0.5137(4)
N2 N 0.0653(6) -0.5135(4) 0.1870(4)
N3 N 0.0857(6) -0.7914(4) 0.4718(4)
O1 O 0.4059(5) -0.3964(4) 0.6510(3)
O2 O 0.2763(5) -0.4502(4) 0.0018(3)
O3 O 0.2518(5) -0.9352(4) 0.6360(3)
O4 O 0.0455(9) -0.2183(5) 0.0720(5)
O5 O 0.1040(13) -0.1287(7) 0.3049(6)
O6 O 0.3552(7) -0.0942(8) 0.2134(9)
O7 O 0.1645(6) 0.0509(4) 0.1811(4)
C1 C 0.3344(6) -0.3855(5) 0.5373(4)
C2 C 0.1956(6) -0.5239(5) 0.4268(4)
C3 C 0.1230(6) -0.5194(5) 0.2947(4)
C4 C 0.1352(6) -0.6716(5) 0.4513(4)
Cu2_2 Cu 0.0000 0.0000 0.5000
N3A N -0.0857(6) -1.2086(4) 0.5282(4)
O3A O -0.2518(5) -1.0648(4) 0.3640(3)
O5_2 O 0.1040(13) -1.1287(7) 0.3049(6)
O5A O -0.1040(13) -0.8713(7) 0.6951(6)
N2A N -0.0653(6) -0.4865(4) -0.1870(4)
O2A O -0.2763(5) -0.5498(4) -0.0018(3)
O4A O -0.0455(9) -0.7817(5) -0.0720(5)
C3A C -0.1230(6) -0.4806(5) -0.2947(4)
Cl1A Cl -0.16535(16) -0.90251(12) -0.19366(11)
C2A C -0.1956(6) -0.4761(5) -0.4268(4)
O5A_2 O -0.1040(13) -0.8713(7) -0.3049(6)
O6A O -0.3552(7) -0.9058(8) -0.2134(9)
O7A O -0.1645(6) -1.0509(4) -0.1811(4)
C1A C -0.3344(6) -0.6145(5) -0.5373(4)
C4A C -0.1352(6) -0.3284(5) -0.4513(4)
Cu2_3 Cu 0.0000 -1.0000 -0.5000
N1A N -0.3847(7) -0.7564(4) -0.5137(4)
O1A O -0.4059(5) -0.6036(4) -0.6510(3)
N3A_2 N -0.0857(6) -0.2086(4) -0.4718(4)
Cu2_4 Cu 0.0000 0.0000 -0.5000
O8 O 0.2441(5) -0.0288(4) 0.8640(4)
O9 O 0.4543(5) -0.2176(4) 0.9088(3)
O10 O 0.4091(5) -0.6174(4) 0.7788(3)
loop_
_geom_bond_atom_site_label_1
_geom_bond_atom_site_label_2
_geom_bond_site_symmetry_1
_geom_bond_site_symmetry_2
Cu1 N2 1_555 1_555
Cu2 N3 1_555 1_555
Cl1 O4 1_555 1_555
N1 C1 1_555 1_555
N2 C3 1_555 1_555
N3 C4 1_555 1_555
O1 C1 1_555 1_555
O2 Cu1 1_555 1_555
O3 Cu2 1_555 1_555
O4 Cu1 1_555 1_555
O5 Cl1 1_555 1_555
O6 Cl1 1_555 1_555
O7 Cl1 1_555 1_555
C1 C2 1_555 1_555
C2 C3 1_555 1_555
C4 C2 1_555 1_555
Cu2_2 O5 1_555 1_555
N3A Cu2 1_555 1_555
O3A Cu2 1_555 1_555
O5_2 Cu2 1_555 1_555
O5A Cu2 1_555 1_555
N2A Cu1 1_555 1_555
O2A Cu1 1_555 1_555
O4A Cu1 1_555 1_555
C3A N2A 1_555 1_555
Cl1A O4A 1_555 1_555
C2A C3A 1_555 1_555
O5A_2 Cl1A 1_555 1_555
O6A Cl1A 1_555 1_555
O7A Cl1A 1_555 1_555
C1A C2A 1_555 1_555
C4A C2A 1_555 1_555
Cu2_3 O5A_2 1_555 1_555
N1A C1A 1_555 1_555
O1A C1A 1_555 1_555
N3A_2 C4A 1_555 1_555
Cu2_4 N3A_2 1_555 1_555

#END
