
#######################################################################
#
#                 Cambridge Crystallographic Data Centre
#                                CCDC 
#
#######################################################################
#
# If this CIF has been generated from an entry in the Cambridge 
# Structural Database, then it will include bibliographic, chemical, 
# crystal, experimental, refinement or atomic coordinate data resulting 
# from the CCDC's data processing and validation procedures.
#
#######################################################################

data_EXADAJ
_symmetry_cell_setting           orthorhombic
_symmetry_space_group_name_H-M   'P 21 21 21'
_symmetry_Int_Tables_number      19
_space_group_name_Hall           'P 2ac 2ab'
loop_
_symmetry_equiv_pos_site_id
_symmetry_equiv_pos_as_xyz
1 x,y,z
2 1/2-x,-y,1/2+z
3 -x,1/2+y,1/2-z
4 1/2+x,1/2-y,-z
_cell_length_a                   12.888(4)
_cell_length_b                   14.048(4)
_cell_length_c                   18.836(6)
_cell_angle_alpha                90
_cell_angle_beta                 90
_cell_angle_gamma                90
_cell_volume                     3410.27
loop_
_atom_site_label
_atom_site_type_symbol
_atom_site_fract_x
_atom_site_fract_y
_atom_site_fract_z
Er1 Er 0.71345(4) 0.00108(4) 0.88577(3)
Er2 Er 0.77204(4) 0.02052(3) 0.67099(3)
C1 C 1.0103(10) 0.0961(9) 0.8300(8)
H1 H 0.9984 0.0681 0.8769
C2 C 1.1198(11) 0.0691(10) 0.8044(8)
H2 H 1.1178 0.0477 0.7554
H3 H 1.1482 0.0185 0.8335
C3 C 1.1880(11) 0.1615(9) 0.8111(8)
H4 H 1.2548 0.1469 0.8322
H5 H 1.1991 0.1904 0.7650
C4 C 1.1240(11) 0.2292(9) 0.8603(7)
C5 C 1.0060(10) 0.2077(10) 0.8360(8)
C6 C 0.9293(10) 0.0572(9) 0.7777(7)
C7 C 1.1504(11) 0.3336(9) 0.8499(7)
C8 C 1.1397(14) 0.2019(11) 0.9394(8)
H6 H 1.2101 0.2149 0.9531
H7 H 1.1255 0.1353 0.9457
H8 H 1.0933 0.2385 0.9685
C9 C 0.9909(16) 0.2574(12) 0.7677(10)
H9 H 0.9904 0.3250 0.7756
H10 H 0.9261 0.2382 0.7472
H11 H 1.0466 0.2415 0.7360
C10 C 0.9283(13) 0.2379(10) 0.8890(10)
H12 H 0.9284 0.3061 0.8927
H13 H 0.9451 0.2107 0.9343
H14 H 0.8608 0.2166 0.8745
C11 C 0.4472(10) -0.0674(10) 0.7370(7)
C12 C 0.3602(12) -0.0707(12) 0.7950(9)
H15 H 0.3894 -0.0886 0.8406
H16 H 0.3274 -0.0089 0.7997
C13 C 0.2863(14) -0.1403(12) 0.7721(10)
H17 H 0.2240 -0.1087 0.7553
H18 H 0.2674 -0.1809 0.8117
C14 C 0.3319(11) -0.1997(10) 0.7133(8)
H19 H 0.2989 -0.1792 0.6690
C15 C 0.4472(10) -0.1715(9) 0.7086(7)
C16 C 0.5514(10) -0.0413(10) 0.7693(8)
C17 C 0.3132(10) -0.3076(9) 0.7203(6)
C18 C 0.4237(13) 0.0044(12) 0.6807(10)
H20 H 0.4228 0.0669 0.7012
H21 H 0.3571 -0.0092 0.6602
H22 H 0.4760 0.0015 0.6444
C19 C 0.5148(12) -0.2380(9) 0.7529(9)
H23 H 0.5138 -0.3005 0.7325
H24 H 0.4885 -0.2407 0.8005
H25 H 0.5848 -0.2145 0.7536
C20 C 0.4882(15) -0.1811(14) 0.6315(7)
H26 H 0.4868 -0.2468 0.6175
H27 H 0.5582 -0.1577 0.6291
H28 H 0.4451 -0.1446 0.6000
C21 C 0.5614(11) -0.2243(9) 1.0162(7)
C22 C 0.5191(15) -0.2426(12) 0.9534(9)
H29 H 0.5338 -0.2018 0.9159
C23 C 0.4556(13) -0.3176(11) 0.9410(7)
H30 H 0.4244 -0.3249 0.8968
C24 C 0.4367(10) -0.3855(10) 0.9960(7)
C25 C 0.4796(10) -0.3676(10) 1.0596(7)
H31 H 0.4665 -0.4092 1.0970
C26 C 0.5433(11) -0.2883(11) 1.0717(7)
H32 H 0.5732 -0.2785 1.1160
C27 C 0.6318(11) -0.1416(9) 1.0272(7)
C28 C 0.3667(11) -0.4706(10) 0.9813(8)
O1 O 0.8374(7) 0.0314(7) 0.8032(5)
O2 O 0.9418(7) 0.0494(8) 0.7137(5)
O3 O 1.1347(8) 0.3932(6) 0.8979(5)
O4 O 1.1978(9) 0.3596(6) 0.7938(4)
O5 O 0.6279(7) -0.0283(7) 0.7296(6)
O6 O 0.5573(8) -0.0376(8) 0.8365(5)
O7 O 0.3252(8) -0.3549(6) 0.6649(5)
O8 O 0.2843(8) -0.3404(6) 0.7794(4)
O9 O 0.6556(9) -0.1216(7) 1.0908(5)
O10 O 0.6623(9) -0.0965(8) 0.9745(4)
O11 O 0.3434(6) -0.5186(6) 1.0347(4)
O12 O 0.3419(7) -0.4888(6) 0.9198(4)
O14 O 0.7610(8) -0.1473(6) 0.8456(5)
H40 H 0.7627 -0.1945 0.8731
H41 H 0.8055 -0.1525 0.8130
O15 O 0.6210(9) 0.1001(7) 0.9624(5)
H42 H 0.6468 0.1040 1.0037
H43 H 0.6045 0.1556 0.9480
Er1B Er 0.28655(4) -0.49892(4) 0.61423(3)
Er1C Er 0.21345(4) -0.50108(4) 1.11423(3)
Er2B Er 1.22796(4) 0.52052(3) 0.82901(3)
Er2B_2 Er 0.22796(4) -0.47948(3) 0.82901(3)
Er2A Er 0.72796(4) -0.02052(3) 1.17099(3)
O3B O 0.8653(8) -0.1068(6) 0.6021(5)
O4B O 0.8022(9) -0.1404(6) 0.7062(4)
O7B O 0.6748(8) 0.1451(6) 0.8351(5)
O8B O 0.7157(8) 0.1596(6) 0.7206(4)
O9A O 0.8444(9) 0.1216(7) 0.5908(5)
O11C O 0.8434(6) 0.0186(6) 0.9653(4)
O12B O 0.6581(7) 0.0112(6) 0.5802(4)
N1 N 1.1668(13) 0.0641(9) 0.5386(8)
O13 O 1.2177(15) 0.1757(11) 0.6167(8)
C29 C 1.1556(11) 0.1141(11) 0.5970(8)
H33 H 1.0977 0.1024 0.6252
C30 C 1.2544(16) 0.0816(18) 0.4957(16)
H34 H 1.2960 0.1306 0.5170
H35 H 1.2323 0.1018 0.4495
H36 H 1.2947 0.0244 0.4916
C31 C 1.0914(15) -0.0084(14) 0.5170(13)
H37 H 1.0366 -0.0116 0.5514
H38 H 1.1252 -0.0692 0.5139
H39 H 1.0630 0.0080 0.4715
loop_
_geom_bond_atom_site_label_1
_geom_bond_atom_site_label_2
_geom_bond_site_symmetry_1
_geom_bond_site_symmetry_2
Er1 O1 1_555 1_555
Er2 O1 1_555 1_555
C1 H1 1_555 1_555
C2 C1 1_555 1_555
H2 C2 1_555 1_555
H3 C2 1_555 1_555
C3 C2 1_555 1_555
H4 C3 1_555 1_555
H5 C3 1_555 1_555
C4 C3 1_555 1_555
C5 C1 1_555 1_555
C6 C1 1_555 1_555
C7 C4 1_555 1_555
C8 C4 1_555 1_555
H6 C8 1_555 1_555
H7 C8 1_555 1_555
H8 C8 1_555 1_555
C9 C5 1_555 1_555
H9 C9 1_555 1_555
H10 C9 1_555 1_555
H11 C9 1_555 1_555
C10 C5 1_555 1_555
H12 C10 1_555 1_555
H13 C10 1_555 1_555
H14 C10 1_555 1_555
C11 C12 1_555 1_555
C12 H15 1_555 1_555
H16 C12 1_555 1_555
C13 C12 1_555 1_555
H17 C13 1_555 1_555
H18 C13 1_555 1_555
C14 C13 1_555 1_555
H19 C14 1_555 1_555
C15 C11 1_555 1_555
C16 C11 1_555 1_555
C17 C14 1_555 1_555
C18 C11 1_555 1_555
H20 C18 1_555 1_555
H21 C18 1_555 1_555
H22 C18 1_555 1_555
C19 C15 1_555 1_555
H23 C19 1_555 1_555
H24 C19 1_555 1_555
H25 C19 1_555 1_555
C20 C15 1_555 1_555
H26 C20 1_555 1_555
H27 C20 1_555 1_555
H28 C20 1_555 1_555
C21 C22 1_555 1_555
C22 H29 1_555 1_555
C23 C22 1_555 1_555
H30 C23 1_555 1_555
C24 C23 1_555 1_555
C25 C24 1_555 1_555
H31 C25 1_555 1_555
C26 C21 1_555 1_555
H32 C26 1_555 1_555
C27 C21 1_555 1_555
C28 C24 1_555 1_555
O1 C6 1_555 1_555
O2 Er2 1_555 1_555
O3 C7 1_555 1_555
O4 C7 1_555 1_555
O5 Er2 1_555 1_555
O6 Er1 1_555 1_555
O7 C17 1_555 1_555
O8 C17 1_555 1_555
O9 C27 1_555 1_555
O10 Er1 1_555 1_555
O11 C28 1_555 1_555
O12 C28 1_555 1_555
N1 C29 1_555 1_555
O13 C29 1_555 1_555
C29 H33 1_555 1_555
C30 N1 1_555 1_555
H34 C30 1_555 1_555
H35 C30 1_555 1_555
H36 C30 1_555 1_555
C31 N1 1_555 1_555
H37 C31 1_555 1_555
H38 C31 1_555 1_555
H39 C31 1_555 1_555
O14 Er1 1_555 1_555
H40 O14 1_555 1_555
H41 O14 1_555 1_555
O15 Er1 1_555 1_555
H42 O15 1_555 1_555
H43 O15 1_555 1_555
Er1B O7 1_555 1_555
Er1C O11 1_555 1_555
Er2B O3 1_555 1_555
Er2B_2 O8 1_555 1_555
Er2A O9 1_555 1_555
O3B Er2 1_555 1_555
O4B Er2 1_555 1_555
O7B Er1 1_555 1_555
O8B Er2 1_555 1_555
O9A Er2 1_555 1_555
O11C Er1 1_555 1_555
O12B Er2 1_555 1_555
C4 C5 1_555 1_555
C6 O2 1_555 1_555
C14 C15 1_555 1_555
C16 O5 1_555 1_555
C16 O6 1_555 1_555
C25 C26 1_555 1_555
C27 O10 1_555 1_555
O4 Er2B 1_555 1_555
O12 Er2B_2 1_555 1_555

#END
