
#######################################################################
#
#                 Cambridge Crystallographic Data Centre
#                                CCDC 
#
#######################################################################
#
# If this CIF has been generated from an entry in the Cambridge 
# Structural Database, then it will include bibliographic, chemical, 
# crystal, experimental, refinement or atomic coordinate data resulting 
# from the CCDC's data processing and validation procedures.
#
#######################################################################

data_EXAGEP
_symmetry_cell_setting           monoclinic
_symmetry_space_group_name_H-M   'P 21/c'
_symmetry_Int_Tables_number      14
_space_group_name_Hall           '-P 2ybc'
loop_
_symmetry_equiv_pos_site_id
_symmetry_equiv_pos_as_xyz
1 x,y,z
2 x,1/2-y,1/2+z
3 -x,-y,-z
4 -x,1/2+y,1/2-z
_cell_length_a                   17.6776(14)
_cell_length_b                   10.0111(8)
_cell_length_c                   16.6017(13)
_cell_angle_alpha                90
_cell_angle_beta                 104.134(2)
_cell_angle_gamma                90
_cell_volume                     2849.1
loop_
_atom_site_label
_atom_site_type_symbol
_atom_site_fract_x
_atom_site_fract_y
_atom_site_fract_z
Pb1 Pb 0.08731(3) 0.64497(5) 0.64770(3)
Pb2 Pb 0.10882(3) 0.44871(5) 0.25789(3)
Pb3 Pb 0.05876(3) 0.77582(5) 0.38917(3)
C1 C 0.3253(8) 0.2147(14) 0.4315(8)
C2 C 0.3724(8) 0.3022(15) 0.4860(10)
H1 H 0.3636 0.3937 0.4798
C3 C 0.4311(12) 0.257(3) 0.5483(15)
H2 H 0.4633 0.3167 0.5835
C4 C 0.4432(13) 0.121(3) 0.5598(12)
H3 H 0.4827 0.0903 0.6038
C5 C 0.3999(11) 0.035(2) 0.5095(13)
H4 H 0.4094 -0.0557 0.5164
C6 C 0.3394(8) 0.0816(14) 0.4456(9)
H5 H 0.3075 0.0200 0.4113
C7 C 0.2611(7) 0.2659(13) 0.3622(8)
H6 H 0.2786 0.3490 0.3428
H7 H 0.2537 0.2025 0.3168
C8 C 0.1909(7) 0.3758(11) 0.4531(7)
H8 H 0.2282 0.4464 0.4518
H9 H 0.2114 0.3227 0.5025
C9 C 0.1414(7) 0.1615(11) 0.3860(7)
H10 H 0.1093 0.1737 0.4251
H11 H 0.1790 0.0916 0.4073
C10 C 0.3720(8) 0.5573(13) 0.6588(8)
C11 C 0.4095(11) 0.4737(18) 0.7232(10)
H12 H 0.3793 0.4267 0.7522
C12 C 0.4899(13) 0.457(2) 0.7462(13)
H13 H 0.5140 0.4029 0.7904
C13 C 0.5314(13) 0.525(3) 0.7006(18)
H14 H 0.5854 0.5149 0.7140
C14 C 0.4984(12) 0.607(3) 0.6367(19)
H15 H 0.5287 0.6521 0.6071
C15 C 0.4188(10) 0.6200(17) 0.6170(11)
H16 H 0.3957 0.6750 0.5727
C16 C 0.2844(8) 0.5732(13) 0.6375(8)
H17 H 0.2659 0.5839 0.5779
H18 H 0.2615 0.4919 0.6528
C17 C 0.2849(7) 0.6809(11) 0.7702(7)
H19 H 0.3400 0.7028 0.7848
H20 H 0.2796 0.5894 0.7872
C18 C 0.2758(7) 0.8205(13) 0.6472(8)
H21 H 0.3156 0.8061 0.6168
H22 H 0.2977 0.8789 0.6937
P1 P 0.09933(18) 0.4514(3) 0.46127(19)
P2 P 0.08123(19) 0.1104(3) 0.2884(2)
P3 P 0.2349(2) 0.7898(3) 0.8276(2)
P4 P 0.19306(19) 0.9020(3) 0.5799(2)
N1 N 0.1846(6) 0.2902(9) 0.3795(6)
N2 N 0.2557(6) 0.6900(10) 0.6796(6)
H23 H 0.2027 0.6846 0.6679
O1 O 0.0642(5) 0.5155(8) 0.3745(5)
O2 O 0.1214(5) 0.5605(8) 0.5262(5)
O3 O 0.0445(5) 0.3448(8) 0.4787(5)
O4 O 0.0266(5) 0.2310(7) 0.2583(5)
O5 O 0.0338(5) -0.0092(8) 0.3071(5)
O6 O 0.1307(5) 0.0751(8) 0.2277(5)
O7 O 0.1490(5) 0.7471(9) 0.8098(5)
O8 O 0.2449(5) 0.9334(8) 0.8095(5)
O9 O 0.2773(5) 0.7585(9) 0.9199(5)
H24 H 0.2470 0.7208 0.9427
O10 O 0.2191(5) 1.0512(8) 0.5895(6)
O11 O 0.1842(5) 0.8597(8) 0.4911(5)
O12 O 0.1209(5) 0.8776(8) 0.6118(5)
C1B C -0.3253(8) 0.7853(14) 0.5685(8)
C2B C -0.3724(8) 0.6978(15) 0.5140(10)
H1B H -0.3636 0.6063 0.5202
C3B C -0.4311(12) 0.743(3) 0.4517(15)
H2B H -0.4633 0.6833 0.4165
C4B C -0.4432(13) 0.879(3) 0.4402(12)
H3B H -0.4827 0.9097 0.3962
C5B C -0.3999(11) 0.965(2) 0.4905(13)
H4B H -0.4094 1.0557 0.4836
C6B C -0.3394(8) 0.9184(14) 0.5544(9)
H5B H -0.3075 0.9800 0.5887
C7B C -0.2611(7) 0.7341(13) 0.6378(8)
H6B H -0.2786 0.6510 0.6572
H7B H -0.2537 0.7975 0.6832
C8B C -0.1909(7) 0.6242(11) 0.5469(7)
H8B H -0.2282 0.5536 0.5482
H9B H -0.2114 0.6773 0.4975
C9B C -0.1414(7) 0.8385(11) 0.6140(7)
H10B H -0.1093 0.8263 0.5749
H11B H -0.1790 0.9084 0.5927
P1B P -0.09933(18) 0.5486(3) 0.53873(19)
P2B P -0.08123(19) 0.8896(3) 0.7116(2)
N1B N -0.1846(6) 0.7098(9) 0.6205(6)
O1B O -0.0642(5) 0.4845(8) 0.6255(5)
O2B O -0.1214(5) 0.4395(8) 0.4738(5)
O3B O -0.0445(5) 0.6552(8) 0.5213(5)
O4B O -0.0266(5) 0.7690(7) 0.7417(5)
O5B O -0.0338(5) 1.0092(8) 0.6929(5)
O6B O -0.1307(5) 0.9249(8) 0.7723(5)
Pb1B Pb -0.08731(3) 0.35503(5) 0.35230(3)
Pb2B Pb -0.10882(3) 0.55129(5) 0.74211(3)
Pb3B Pb -0.05876(3) 0.22418(5) 0.61083(3)
C10A C 0.3720(8) 0.9427(13) 0.1588(8)
C11A C 0.4095(11) 1.0263(18) 0.2232(10)
H12A H 0.3793 1.0733 0.2522
C12A C 0.4899(13) 1.043(2) 0.2462(13)
H13A H 0.5140 1.0971 0.2904
C13A C 0.5314(13) 0.975(3) 0.2006(18)
H14A H 0.5854 0.9851 0.2140
C14A C 0.4984(12) 0.893(3) 0.1367(19)
H15A H 0.5287 0.8479 0.1071
C15A C 0.4188(10) 0.8800(17) 0.1170(11)
H16A H 0.3957 0.8250 0.0727
C16A C 0.2844(8) 0.9268(13) 0.1375(8)
H17A H 0.2659 0.9161 0.0779
H18A H 0.2615 1.0081 0.1528
C17A C 0.2849(7) 0.8191(11) 0.2702(7)
H19A H 0.3400 0.7972 0.2848
H20A H 0.2796 0.9106 0.2872
C18A C 0.2758(7) 0.6795(13) 0.1472(8)
H21A H 0.3156 0.6939 0.1168
H22A H 0.2977 0.6211 0.1937
P3A P 0.2349(2) 0.7102(3) 0.3276(2)
P4A P 0.19306(19) 0.5980(3) 0.0799(2)
N2A N 0.2557(6) 0.8100(10) 0.1796(6)
H23A H 0.2027 0.8154 0.1679
O7A O 0.1490(5) 0.7529(9) 0.3098(5)
O8A O 0.2449(5) 0.5666(8) 0.3095(5)
O9A O 0.2773(5) 0.7415(9) 0.4199(5)
H24A H 0.2470 0.7792 0.4427
O10A O 0.2191(5) 0.4488(8) 0.0895(6)
O11A O 0.1842(5) 0.6403(8) -0.0089(5)
O12A O 0.1209(5) 0.6224(8) 0.1118(5)
O6A O 0.1307(5) 0.4249(8) 0.7277(5)
O5C O -0.0338(5) 0.4908(8) 0.1929(5)
O4C O -0.0266(5) 0.7310(7) 0.2417(5)
O5_2 O 0.0338(5) 0.9908(8) 0.3071(5)
Pb3C Pb -0.05876(3) 0.27582(5) 0.11083(3)
Pb2C Pb -0.10882(3) -0.05129(5) 0.24211(3)
Pb3_2 Pb 0.05876(3) -0.22418(5) 0.38917(3)
Pb1A Pb 0.08731(3) -0.14497(5) 0.14770(3)
Pb3A Pb 0.05876(3) 0.72418(5) 0.88917(3)
Pb2A Pb 0.10882(3) 1.05129(5) 0.75789(3)
Pb3B_2 Pb -0.05876(3) 1.22418(5) 0.61083(3)
Pb1C Pb -0.08731(3) 1.14497(5) 0.85230(3)
O6C O -0.1307(5) 0.5751(8) 0.2723(5)
O12B O -0.1209(5) 0.1224(8) 0.3882(5)
O5A O 0.0338(5) 0.5092(8) 0.8071(5)
O8C O -0.2449(5) 0.4334(8) 0.6905(5)
O4A O 0.0266(5) 0.2690(7) 0.7583(5)
O5B_2 O -0.0338(5) 0.0092(8) 0.6929(5)
O7C O -0.1490(5) 0.2471(9) 0.6902(5)
O11B O -0.1842(5) 0.1403(8) 0.5089(5)
Pb3A_2 Pb 0.05876(3) 0.72418(5) -0.11083(3)
Pb1A_2 Pb 0.08731(3) 0.85503(5) 0.14770(3)
O13 O 0.1184(6) 0.2282(8) 0.6160(6)
O14 O 0.0000 0.0000 0.5000
loop_
_geom_bond_atom_site_label_1
_geom_bond_atom_site_label_2
_geom_bond_site_symmetry_1
_geom_bond_site_symmetry_2
Pb1 O2 1_555 1_555
Pb2 N1 1_555 1_555
Pb3 O1 1_555 1_555
C1 C2 1_555 1_555
C2 H1 1_555 1_555
C3 C2 1_555 1_555
H2 C3 1_555 1_555
C4 C3 1_555 1_555
H3 C4 1_555 1_555
C5 C4 1_555 1_555
H4 C5 1_555 1_555
C6 C1 1_555 1_555
H5 C6 1_555 1_555
C7 C1 1_555 1_555
H6 C7 1_555 1_555
H7 C7 1_555 1_555
C8 H8 1_555 1_555
H9 C8 1_555 1_555
C9 H10 1_555 1_555
H11 C9 1_555 1_555
C10 C11 1_555 1_555
C11 H12 1_555 1_555
C12 C11 1_555 1_555
H13 C12 1_555 1_555
C13 C12 1_555 1_555
H14 C13 1_555 1_555
C14 C13 1_555 1_555
H15 C14 1_555 1_555
C15 C10 1_555 1_555
H16 C15 1_555 1_555
C16 C10 1_555 1_555
H17 C16 1_555 1_555
H18 C16 1_555 1_555
C17 H19 1_555 1_555
H20 C17 1_555 1_555
C18 H21 1_555 1_555
H22 C18 1_555 1_555
P1 C8 1_555 1_555
P2 C9 1_555 1_555
P3 C17 1_555 1_555
P4 C18 1_555 1_555
N1 C7 1_555 1_555
N2 C16 1_555 1_555
H23 N2 1_555 1_555
O1 Pb2 1_555 1_555
O2 P1 1_555 1_555
O3 P1 1_555 1_555
O4 Pb2 1_555 1_555
O5 P2 1_555 1_555
O6 P2 1_555 1_555
O7 P3 1_555 1_555
O8 P3 1_555 1_555
O9 P3 1_555 1_555
H24 O9 1_555 1_555
O10 P4 1_555 1_555
O11 Pb3 1_555 1_555
O12 Pb1 1_555 1_555
C1B C2B 1_555 1_555
C2B H1B 1_555 1_555
C3B C2B 1_555 1_555
H2B C3B 1_555 1_555
C4B C3B 1_555 1_555
H3B C4B 1_555 1_555
C5B C4B 1_555 1_555
H4B C5B 1_555 1_555
C6B C1B 1_555 1_555
H5B C6B 1_555 1_555
C7B C1B 1_555 1_555
H6B C7B 1_555 1_555
H7B C7B 1_555 1_555
C8B H8B 1_555 1_555
H9B C8B 1_555 1_555
C9B H10B 1_555 1_555
H11B C9B 1_555 1_555
P1B C8B 1_555 1_555
P2B C9B 1_555 1_555
N1B C7B 1_555 1_555
O1B P1B 1_555 1_555
O2B P1B 1_555 1_555
O3B Pb1 1_555 1_555
O4B P2B 1_555 1_555
O5B P2B 1_555 1_555
O6B P2B 1_555 1_555
Pb1B O3 1_555 1_555
Pb2B N1B 1_555 1_555
Pb3B O1B 1_555 1_555
C10A C11A 1_555 1_555
C11A H12A 1_555 1_555
C12A C11A 1_555 1_555
H13A C12A 1_555 1_555
C13A C12A 1_555 1_555
H14A C13A 1_555 1_555
C14A C13A 1_555 1_555
H15A C14A 1_555 1_555
C15A C10A 1_555 1_555
H16A C15A 1_555 1_555
C16A C10A 1_555 1_555
H17A C16A 1_555 1_555
H18A C16A 1_555 1_555
C17A H19A 1_555 1_555
H20A C17A 1_555 1_555
C18A H21A 1_555 1_555
H22A C18A 1_555 1_555
P3A C17A 1_555 1_555
P4A C18A 1_555 1_555
N2A C16A 1_555 1_555
H23A N2A 1_555 1_555
O7A Pb3 1_555 1_555
O8A Pb2 1_555 1_555
O9A P3A 1_555 1_555
H24A O9A 1_555 1_555
O10A P4A 1_555 1_555
O11A P4A 1_555 1_555
O12A P4A 1_555 1_555
O6A Pb1 1_555 1_555
O5C Pb2 1_555 1_555
O4C Pb3 1_555 1_555
O5_2 Pb3 1_555 1_555
Pb3C O4 1_555 1_555
Pb2C O5 1_555 1_555
Pb3_2 O5 1_555 1_555
Pb1A O6 1_555 1_555
Pb3A O7 1_555 1_555
Pb2A O8 1_555 1_555
Pb3B_2 O5B 1_555 1_555
Pb1C O6B 1_555 1_555
O6C Pb1B 1_555 1_555
O12B Pb1B 1_555 1_555
O5A Pb2B 1_555 1_555
O8C Pb2B 1_555 1_555
O4A Pb3B 1_555 1_555
O5B_2 Pb3B 1_555 1_555
O7C Pb3B 1_555 1_555
O11B Pb3B 1_555 1_555
Pb3A_2 O11A 1_555 1_555
Pb1A_2 O12A 1_555 1_555
C5 C6 1_555 1_555
C8 N1 1_555 1_555
C9 N1 1_555 1_555
C14 C15 1_555 1_555
C17 N2 1_555 1_555
C18 N2 1_555 1_555
P1 O1 1_555 1_555
P2 O4 1_555 1_555
P4 O11 1_555 1_555
P4 O12 1_555 1_555
C5B C6B 1_555 1_555
C8B N1B 1_555 1_555
C9B N1B 1_555 1_555
P1B O3B 1_555 1_555
O1B Pb2B 1_555 1_555
O2B Pb1B 1_555 1_555
O4B Pb2B 1_555 1_555
O4B Pb3A 1_555 1_555
O5B Pb2A 1_555 1_555
C14A C15A 1_555 1_555
C17A N2A 1_555 1_555
C18A N2A 1_555 1_555
P3A O7A 1_555 1_555
P3A O8A 1_555 1_555
O5C Pb3C 1_555 1_555
Pb3A O5A 1_555 1_555

#END
