
#######################################################################
#
#                 Cambridge Crystallographic Data Centre
#                                CCDC 
#
#######################################################################
#
# If this CIF has been generated from an entry in the Cambridge 
# Structural Database, then it will include bibliographic, chemical, 
# crystal, experimental, refinement or atomic coordinate data resulting 
# from the CCDC's data processing and validation procedures.
#
#######################################################################

data_EXAGUF
_symmetry_cell_setting           monoclinic
_symmetry_space_group_name_H-M   'C 2/c'
_symmetry_Int_Tables_number      15
_space_group_name_Hall           '-C 2yn'
loop_
_symmetry_equiv_pos_site_id
_symmetry_equiv_pos_as_xyz
1 x,y,z
2 1/2+x,1/2+y,z
3 x,-y,1/2+z
4 1/2+x,1/2-y,1/2+z
5 -x,-y,-z
6 1/2-x,1/2-y,-z
7 -x,y,1/2-z
8 1/2-x,1/2+y,1/2-z
_cell_length_a                   23.2883(12)
_cell_length_b                   8.2457(4)
_cell_length_c                   18.2854(10)
_cell_angle_alpha                90
_cell_angle_beta                 115.1210(10)
_cell_angle_gamma                90
_cell_volume                     3179.19
loop_
_atom_site_label
_atom_site_type_symbol
_atom_site_fract_x
_atom_site_fract_y
_atom_site_fract_z
Cu1 Cu 0.189632(11) 0.05824(3) 0.123756(14)
V1 V 0.421702(14) -0.17469(4) 0.181678(19)
P1 P 0.29725(2) -0.18952(6) 0.22263(3)
O1 O 0.24894(6) -0.11796(17) 0.14395(8)
O2 O 0.31456(7) -0.05573(17) 0.29017(9)
O3 O 0.36084(6) -0.22695(18) 0.21868(9)
O4 O 0.27494(6) -0.34104(16) 0.24924(8)
O5 O 0.42113(7) 0.01960(18) 0.16696(9)
O6 O 0.40243(7) -0.26420(17) 0.09438(8)
O7 O 0.5000 -0.2408(3) 0.2500
N1 N 0.23515(8) 0.2396(2) 0.09388(9)
N2 N 0.12022(7) 0.20915(19) 0.07275(9)
N3 N 0.11703(8) -0.06820(19) 0.13091(10)
C1 C 0.29741(9) 0.2508(2) 0.11472(12)
C2 C 0.32457(9) 0.3892(3) 0.10018(13)
C3 C 0.28631(10) 0.5193(3) 0.06126(12)
C4 C 0.22148(9) 0.5093(2) 0.03933(12)
C5 C 0.19763(9) 0.3685(2) 0.05743(11)
C6 C 0.13112(9) 0.3500(2) 0.04451(11)
C7 C 0.08412(9) 0.4657(2) 0.01312(11)
C8 C 0.02542(9) 0.4381(2) 0.01527(11)
C9 C 0.01613(9) 0.2918(2) 0.04740(12)
C10 C 0.06461(9) 0.1790(2) 0.07510(11)
C11 C 0.06292(9) 0.0187(2) 0.11044(11)
C12 C 0.01187(9) -0.0399(2) 0.12247(12)
C13 C 0.01640(10) -0.1940(2) 0.15552(12)
C14 C 0.07116(10) -0.2835(2) 0.17477(13)
C15 C 0.12057(10) -0.2157(2) 0.16200(13)
H1 H 0.3191(14) 0.160(4) 0.1366(17)
H2 H 0.3679(15) 0.399(4) 0.1183(18)
H3 H 0.3032(13) 0.610(3) 0.0517(16)
H4 H 0.1951(12) 0.599(3) 0.0152(15)
H5 H 0.0904(14) 0.560(3) -0.0097(18)
H6 H -0.0190(13) 0.275(3) 0.0533(16)
H7 H -0.0248(12) 0.027(3) 0.1090(15)
H8 H -0.0170(13) -0.242(3) 0.1638(16)
H9 H 0.0747(13) -0.383(4) 0.1945(17)
H10 H 0.1568(13) -0.271(3) 0.1754(16)
H11 H 0.2876(18) -0.004(5) 0.280(2)
C8D C -0.02542(9) 0.5619(2) -0.01527(11)
C7D C -0.08412(9) 0.5343(2) -0.01312(11)
C6D C -0.13112(9) 0.6500(2) -0.04451(11)
N2D N -0.12022(7) 0.79085(19) -0.07275(9)
C10D C -0.06461(9) 0.8210(2) -0.07510(11)
C9D C -0.01613(9) 0.7082(2) -0.04740(12)
H6D H 0.0190(13) 0.725(3) -0.0533(16)
C11D C -0.06292(9) 0.9813(2) -0.11044(11)
N3D N -0.11703(8) 1.06820(19) -0.13091(10)
C15D C -0.12057(10) 1.2157(2) -0.16200(13)
C14D C -0.07116(10) 1.2835(2) -0.17477(13)
C13D C -0.01640(10) 1.1940(2) -0.15552(12)
C12D C -0.01187(9) 1.0399(2) -0.12247(12)
H7D H 0.0248(12) 0.973(3) -0.1090(15)
H8D H 0.0170(13) 1.242(3) -0.1638(16)
H9D H -0.0747(13) 1.383(4) -0.1945(17)
H10D H -0.1568(13) 1.271(3) -0.1754(16)
C5D C -0.19763(9) 0.6315(2) -0.05743(11)
N1D N -0.23515(8) 0.7604(2) -0.09388(9)
C1D C -0.29741(9) 0.7492(2) -0.11472(12)
C2D C -0.32457(9) 0.6108(3) -0.10018(13)
C3D C -0.28631(10) 0.4807(3) -0.06126(12)
C4D C -0.22148(9) 0.4907(2) -0.03933(12)
H4D H -0.1951(12) 0.401(3) -0.0152(15)
H3D H -0.3032(13) 0.390(3) -0.0517(16)
H2D H -0.3679(15) 0.601(4) -0.1183(18)
H1D H -0.3191(14) 0.840(4) -0.1366(17)
H5D H -0.0904(14) 0.440(3) 0.0097(18)
P1G P 0.20275(2) 0.31048(6) 0.27737(3)
O1G O 0.25106(6) 0.38204(17) 0.35605(8)
O2G O 0.18544(7) 0.44427(17) 0.20983(9)
O3G O 0.13916(6) 0.27305(18) 0.28132(9)
O4G O 0.22506(6) 0.15896(16) 0.25076(8)
H11G H 0.2124(18) 0.496(5) 0.220(2)
Cu1G Cu 0.310368(11) 0.55824(3) 0.376244(14)
V1G V 0.078298(14) 0.32531(4) 0.318322(19)
O5G O 0.07887(7) 0.51960(18) 0.33304(9)
O6G O 0.09757(7) 0.23580(17) 0.40562(8)
Cu1G_2 Cu 0.310368(11) -0.44176(3) 0.376244(14)
V1F V 0.578298(14) -0.17469(4) 0.318322(19)
Cu1D Cu -0.189632(11) 0.94176(3) -0.123756(14)
O4_2 O 0.27494(6) 0.65896(16) 0.24924(8)
N1G N 0.26485(8) 0.7396(2) 0.40612(9)
N2G N 0.37978(7) 0.70915(19) 0.42725(9)
N3G N 0.38297(8) 0.43180(19) 0.36909(10)
O7A O 0.0000 0.2592(3) 0.2500
loop_
_geom_bond_atom_site_label_1
_geom_bond_atom_site_label_2
_geom_bond_site_symmetry_1
_geom_bond_site_symmetry_2
Cu1 O1 1_555 1_555
V1 O3 1_555 1_555
P1 O1 1_555 1_555
O2 P1 1_555 1_555
O3 P1 1_555 1_555
O4 P1 1_555 1_555
O5 V1 1_555 1_555
O6 V1 1_555 1_555
O7 V1 1_555 1_555
N1 Cu1 1_555 1_555
N2 Cu1 1_555 1_555
N3 Cu1 1_555 1_555
C1 N1 1_555 1_555
C2 C1 1_555 1_555
C3 C2 1_555 1_555
C4 C3 1_555 1_555
C5 N1 1_555 1_555
C6 N2 1_555 1_555
C7 C6 1_555 1_555
C8 C7 1_555 1_555
C9 C8 1_555 1_555
C10 N2 1_555 1_555
C11 N3 1_555 1_555
C12 C11 1_555 1_555
C13 C12 1_555 1_555
C14 C13 1_555 1_555
C15 N3 1_555 1_555
H1 C1 1_555 1_555
H2 C2 1_555 1_555
H3 C3 1_555 1_555
H4 C4 1_555 1_555
H5 C7 1_555 1_555
H6 C9 1_555 1_555
H7 C12 1_555 1_555
H8 C13 1_555 1_555
H9 C14 1_555 1_555
H10 C15 1_555 1_555
H11 O2 1_555 1_555
C8D C8 1_555 1_555
C7D C8D 1_555 1_555
C6D C7D 1_555 1_555
N2D C6D 1_555 1_555
C10D N2D 1_555 1_555
C9D C8D 1_555 1_555
H6D C9D 1_555 1_555
C11D C10D 1_555 1_555
N3D C11D 1_555 1_555
C15D N3D 1_555 1_555
C14D C15D 1_555 1_555
C13D C14D 1_555 1_555
C12D C11D 1_555 1_555
H7D C12D 1_555 1_555
H8D C13D 1_555 1_555
H9D C14D 1_555 1_555
H10D C15D 1_555 1_555
C5D C6D 1_555 1_555
N1D C5D 1_555 1_555
C1D N1D 1_555 1_555
C2D C1D 1_555 1_555
C3D C2D 1_555 1_555
C4D C5D 1_555 1_555
H4D C4D 1_555 1_555
H3D C3D 1_555 1_555
H2D C2D 1_555 1_555
H1D C1D 1_555 1_555
H5D C7D 1_555 1_555
P1G O1G 1_555 1_555
O1G Cu1G 1_555 1_555
O2G P1G 1_555 1_555
O3G P1G 1_555 1_555
O4G Cu1 1_555 1_555
H11G O2G 1_555 1_555
Cu1G O4_2 1_555 1_555
V1G O3G 1_555 1_555
O5G V1G 1_555 1_555
O6G V1G 1_555 1_555
Cu1G_2 O4 1_555 1_555
V1F O7 1_555 1_555
Cu1D N2D 1_555 1_555
N1G Cu1G 1_555 1_555
N2G Cu1G 1_555 1_555
N3G Cu1G 1_555 1_555
O7A V1G 1_555 1_555
C4 C5 1_555 1_555
C5 C6 1_555 1_555
C9 C10 1_555 1_555
C10 C11 1_555 1_555
C14 C15 1_555 1_555
C10D C9D 1_555 1_555
N3D Cu1D 1_555 1_555
C13D C12D 1_555 1_555
N1D Cu1D 1_555 1_555
C3D C4D 1_555 1_555
P1G O4G 1_555 1_555

#END
