
#######################################################################
#
#                 Cambridge Crystallographic Data Centre
#                                CCDC 
#
#######################################################################
#
# If this CIF has been generated from an entry in the Cambridge 
# Structural Database, then it will include bibliographic, chemical, 
# crystal, experimental, refinement or atomic coordinate data resulting 
# from the CCDC's data processing and validation procedures.
#
#######################################################################

data_EXAHAM
_symmetry_cell_setting           monoclinic
_symmetry_space_group_name_H-M   'P 21/c'
_symmetry_Int_Tables_number      14
_space_group_name_Hall           '-P 2ybc'
loop_
_symmetry_equiv_pos_site_id
_symmetry_equiv_pos_as_xyz
1 x,y,z
2 x,1/2-y,1/2+z
3 -x,-y,-z
4 -x,1/2+y,1/2-z
_cell_length_a                   11.8888(12)
_cell_length_b                   12.7459(13)
_cell_length_c                   9.8345(10)
_cell_angle_alpha                90
_cell_angle_beta                 114.081(2)
_cell_angle_gamma                90
_cell_volume                     1360.56
loop_
_atom_site_label
_atom_site_type_symbol
_atom_site_fract_x
_atom_site_fract_y
_atom_site_fract_z
Pb1 Pb 0.95828(5) 0.18776(4) 0.30955(6)
Pb2 Pb 0.79811(5) 0.06478(4) 0.57098(6)
Pb3 Pb 1.0000 0.5000 0.5000
P1 P 0.7536(3) 0.2939(3) 0.4151(4)
P2 P 1.1074(4) 0.4179(3) 0.1902(4)
C1 C 0.6029(16) 0.3495(11) 0.3130(18)
H1 H 0.5810 0.3431 0.2069
H2 H 0.5424 0.3113 0.3362
C2 C 0.6018(15) 0.4662(12) 0.3541(18)
H3 H 0.6175 0.4715 0.4587
H4 H 0.6677 0.5025 0.3395
C3 C 0.4797(15) 0.5197(12) 0.2614(18)
C4 C 1.2462(15) 0.3487(11) 0.3074(17)
H5 H 1.3140 0.3982 0.3444
H6 H 1.2352 0.3201 0.3926
C5 C 1.2807(13) 0.2578(10) 0.2253(16)
H7 H 1.2980 0.2866 0.1446
H8 H 1.3547 0.2233 0.2942
C6 C 1.1777(14) 0.1779(10) 0.1631(16)
O1 O 0.8459(10) 0.3557(8) 0.3756(12)
O2 O 0.7531(10) 0.1777(7) 0.3604(11)
O3 O 0.7801(9) 0.2905(8) 0.5793(10)
O4 O 0.4521(11) 0.5931(9) 0.3356(13)
H9 H 0.3885 0.6227 0.2805
O5 O 0.4169(11) 0.4951(8) 0.1320(13)
O6 O 0.9978(9) 0.3428(8) 0.1445(11)
O7 O 1.1245(11) 0.4528(8) 0.0527(12)
O8 O 1.0889(10) 0.5085(7) 0.2832(13)
O9 O 1.1468(10) 0.1225(8) 0.2524(13)
O10 O 1.1237(9) 0.1698(8) 0.0238(12)
P1B P 1.2464(3) 0.7061(3) 0.5849(4)
C1B C 1.3971(16) 0.6505(11) 0.6870(18)
H1B H 1.4190 0.6569 0.7931
H2B H 1.4576 0.6887 0.6638
C2B C 1.3982(15) 0.5338(12) 0.6459(18)
H3B H 1.3825 0.5285 0.5413
H4B H 1.3323 0.4975 0.6605
C3B C 1.5203(15) 0.4803(12) 0.7386(18)
O1B O 1.1541(10) 0.6443(8) 0.6244(12)
O2B O 1.2469(10) 0.8223(7) 0.6396(11)
O3B O 1.2199(9) 0.7095(8) 0.4207(10)
O4B O 1.5479(11) 0.4069(9) 0.6644(13)
H9B H 1.6115 0.3773 0.7195
O5B O 1.5831(11) 0.5049(8) 0.8680(13)
P2B P 0.8926(4) 0.5821(3) 0.8098(4)
C4B C 0.7538(15) 0.6513(11) 0.6926(17)
H5B H 0.6860 0.6018 0.6556
H6B H 0.7648 0.6799 0.6074
C5B C 0.7193(13) 0.7422(10) 0.7747(16)
H7B H 0.7020 0.7134 0.8554
H8B H 0.6453 0.7767 0.7058
C6B C 0.8223(14) 0.8221(10) 0.8369(16)
O6B O 1.0022(9) 0.6572(8) 0.8555(11)
O7B O 0.8755(11) 0.5472(8) 0.9473(12)
O8B O 0.9111(10) 0.4915(7) 0.7168(13)
O9B O 0.8532(10) 0.8775(8) 0.7476(13)
O10B O 0.8763(9) 0.8302(8) 0.9762(12)
Pb1B Pb 1.04172(5) 0.81224(4) 0.69045(6)
Pb2B Pb 1.20189(5) 0.93522(4) 0.42902(6)
O3A O 0.7801(9) 0.2095(8) 0.0793(10)
O8C O 0.9111(10) 0.0085(7) 0.2168(13)
O5C O 0.5831(11) -0.0049(8) 0.3680(13)
O6A O 0.9978(9) 0.1572(8) 0.6445(11)
O7C O 0.8755(11) -0.0472(8) 0.4473(12)
O10A O 1.1237(9) 0.3302(8) 0.5238(12)
O10C O 0.8763(9) 0.6698(8) 0.4762(12)
Pb1A Pb 0.95828(5) 0.31224(4) 0.80955(6)
Pb2C Pb 0.20189(5) 0.56478(4) -0.07098(6)
Pb2A Pb 0.79811(5) 0.43522(4) 0.07098(6)
Pb2C_2 Pb 1.20189(5) 0.56478(4) -0.07098(6)
Pb1C Pb 1.04172(5) 0.68776(4) 0.19045(6)
Pb3A Pb 1.0000 0.0000 0.0000
Pb2A_2 Pb 1.79811(5) 0.43522(4) 1.07098(6)
Pb2C_3 Pb 1.20189(5) 0.56478(4) 0.92902(6)
Pb2A_3 Pb 0.79811(5) 0.43522(4) 1.07098(6)
Pb3A_2 Pb 1.0000 1.0000 1.0000
O3C O 1.2199(9) 0.7905(8) 0.9207(10)
O8A O 1.0889(10) 0.9915(7) 0.7832(13)
O5A O 1.4169(11) 1.0049(8) 0.6320(13)
O6C O 1.0022(9) 0.8428(8) 0.3555(11)
O7A O 1.1245(11) 1.0472(8) 0.5527(12)
loop_
_geom_bond_atom_site_label_1
_geom_bond_atom_site_label_2
_geom_bond_site_symmetry_1
_geom_bond_site_symmetry_2
Pb1 O1 1_555 1_555
Pb2 O2 1_555 1_555
Pb3 O1 1_555 1_555
P1 C1 1_555 1_555
P2 C4 1_555 1_555
C1 H1 1_555 1_555
H2 C1 1_555 1_555
C2 C1 1_555 1_555
H3 C2 1_555 1_555
H4 C2 1_555 1_555
C3 C2 1_555 1_555
C4 H5 1_555 1_555
H6 C4 1_555 1_555
C5 C4 1_555 1_555
H7 C5 1_555 1_555
H8 C5 1_555 1_555
C6 C5 1_555 1_555
O1 P1 1_555 1_555
O2 Pb1 1_555 1_555
O3 P1 1_555 1_555
O4 C3 1_555 1_555
H9 O4 1_555 1_555
O5 C3 1_555 1_555
O6 Pb1 1_555 1_555
O7 P2 1_555 1_555
O8 Pb3 1_555 1_555
O9 Pb1 1_555 1_555
O10 C6 1_555 1_555
P1B C1B 1_555 1_555
C1B H1B 1_555 1_555
H2B C1B 1_555 1_555
C2B C1B 1_555 1_555
H3B C2B 1_555 1_555
H4B C2B 1_555 1_555
C3B C2B 1_555 1_555
O1B Pb3 1_555 1_555
O2B P1B 1_555 1_555
O3B P1B 1_555 1_555
O4B C3B 1_555 1_555
H9B O4B 1_555 1_555
O5B C3B 1_555 1_555
P2B C4B 1_555 1_555
C4B H5B 1_555 1_555
H6B C4B 1_555 1_555
C5B C4B 1_555 1_555
H7B C5B 1_555 1_555
H8B C5B 1_555 1_555
C6B C5B 1_555 1_555
O6B P2B 1_555 1_555
O7B P2B 1_555 1_555
O8B Pb3 1_555 1_555
O9B C6B 1_555 1_555
O10B C6B 1_555 1_555
Pb1B O1B 1_555 1_555
Pb2B O2B 1_555 1_555
O3A Pb1 1_555 1_555
O8C Pb1 1_555 1_555
O5C Pb2 1_555 1_555
O6A Pb2 1_555 1_555
O7C Pb2 1_555 1_555
O10A Pb3 1_555 1_555
O10C Pb3 1_555 1_555
Pb1A O3 1_555 1_555
Pb2C O5 1_555 1_555
Pb2A O6 1_555 1_555
Pb2C_2 O7 1_555 1_555
Pb1C O8 1_555 1_555
Pb3A O10 1_555 1_555
Pb2A_2 O5B 1_555 1_555
Pb2C_3 O6B 1_555 1_555
Pb2A_3 O7B 1_555 1_555
Pb3A_2 O10B 1_555 1_555
O3C Pb1B 1_555 1_555
O8A Pb1B 1_555 1_555
O5A Pb2B 1_555 1_555
O6C Pb2B 1_555 1_555
O7A Pb2B 1_555 1_555
P1 O2 1_555 1_555
P2 O6 1_555 1_555
P2 O8 1_555 1_555
C6 O9 1_555 1_555
P1B O1B 1_555 1_555
O2B Pb1B 1_555 1_555
O3B Pb1C 1_555 1_555
P2B O8B 1_555 1_555
O6B Pb1B 1_555 1_555
O8B Pb1A 1_555 1_555
O9B Pb1B 1_555 1_555
O8C Pb3A 1_555 1_555
O6A Pb1A 1_555 1_555
Pb1C O6C 1_555 1_555
Pb3A_2 O8A 1_555 1_555

#END
