
#######################################################################
#
#                 Cambridge Crystallographic Data Centre
#                                CCDC 
#
#######################################################################
#
# If this CIF has been generated from an entry in the Cambridge 
# Structural Database, then it will include bibliographic, chemical, 
# crystal, experimental, refinement or atomic coordinate data resulting 
# from the CCDC's data processing and validation procedures.
#
#######################################################################

data_EXALOF
_symmetry_cell_setting           tetragonal
_symmetry_space_group_name_H-M   'I 4/m'
_symmetry_Int_Tables_number      87
_space_group_name_Hall           '-I 4'
loop_
_symmetry_equiv_pos_site_id
_symmetry_equiv_pos_as_xyz
1 x,y,z
2 -x,-y,z
3 -y,x,z
4 y,-x,z
5 1/2+x,1/2+y,1/2+z
6 1/2-x,1/2-y,1/2+z
7 1/2-y,1/2+x,1/2+z
8 1/2+y,1/2-x,1/2+z
9 -x,-y,-z
10 x,y,-z
11 y,-x,-z
12 -y,x,-z
13 1/2-x,1/2-y,1/2-z
14 1/2+x,1/2+y,1/2-z
15 1/2+y,1/2-x,1/2-z
16 1/2-y,1/2+x,1/2-z
_cell_length_a                   11.3086(16)
_cell_length_b                   11.3086(16)
_cell_length_c                   49.019(10)
_cell_angle_alpha                90
_cell_angle_beta                 90
_cell_angle_gamma                90
_cell_volume                     6268.77
loop_
_atom_site_label
_atom_site_type_symbol
_atom_site_fract_x
_atom_site_fract_y
_atom_site_fract_z
Yb1 Yb 1.0000 1.0000 0.932096(13)
C1 C 1.1121(7) 0.2050(7) 0.77331(15)
C2 C 1.2220(7) 0.1813(7) 0.78448(16)
C3 C 1.2525(8) 0.2415(7) 0.80812(18)
H1 H 1.3260 0.2261 0.8163
C4 C 1.1767(8) 0.3246(8) 0.82005(17)
C5 C 1.0654(7) 0.3451(7) 0.80800(17)
H2 H 1.0133 0.3997 0.8160
C6 C 1.0318(7) 0.2867(7) 0.78481(15)
C7 C 1.1754(9) 0.5082(9) 0.87911(18)
C8 C 1.2475(10) 0.4497(10) 0.8976(2)
H3 H 1.2842 0.3780 0.8929
C9 C 1.2648(11) 0.4997(10) 0.9237(2)
H4 H 1.3131 0.4614 0.9365
C10 C 1.2102(10) 0.6056(9) 0.93015(18)
H5 H 1.2216 0.6387 0.9475
C11 C 1.1394(8) 0.6633(8) 0.91150(18)
C12 C 1.1228(8) 0.6140(8) 0.88619(18)
H6 H 1.0746 0.6531 0.8734
C13 C 1.0842(9) 0.7782(9) 0.91882(19)
C14 C 1.3058(7) 0.0905(7) 0.77296(15)
H7 H 1.3872 0.1154 0.7766
H8 H 1.2956 0.0869 0.7531
N1 N 1.2136(7) 0.3770(7) 0.84501(15)
N2 N 1.1493(7) 0.4620(7) 0.85247(15)
O1 O 1.0759(5) 0.1499(5) 0.74986(11)
H9 H 1.1284 0.1040 0.7446
O2 O 1.1036(6) 0.8254(6) 0.94203(12)
O3 O 1.0162(6) 0.8285(6) 0.90187(12)
O4 O 1.0000 1.0000 0.9793(3)
Yb1_2 Yb 0.0000 0.0000 0.932096(13)
Yb1_3 Yb 1.0000 -1.0000 0.932096(13)
Yb1_4 Yb 2.0000 0.0000 0.932096(13)
C1B C 0.7950(7) 0.1121(7) 0.77331(15)
C1A C 0.8879(7) -0.2050(7) 0.77331(15)
C1C C 1.2050(7) -0.1121(7) 0.77331(15)
C2B C 0.8187(7) 0.2220(7) 0.78448(16)
C2A C 0.7780(7) -0.1813(7) 0.78448(16)
C2C C 1.1813(7) -0.2220(7) 0.78448(16)
C3B C 0.7585(7) 0.2525(8) 0.80812(18)
C3A C 0.7475(8) -0.2415(7) 0.80812(18)
C3C C 1.2415(7) -0.2525(8) 0.80812(18)
H1B H 0.7739 0.3260 0.8163
H1A H 0.6740 -0.2261 0.8163
H1C H 1.2261 -0.3260 0.8163
C4B C 0.6754(8) 0.1767(8) 0.82005(17)
C4A C 0.8233(8) -0.3246(8) 0.82005(17)
C4C C 1.3246(8) -0.1767(8) 0.82005(17)
C5B C 0.6549(7) 0.0654(7) 0.80800(17)
C5A C 0.9346(7) -0.3451(7) 0.80800(17)
C5C C 1.3451(7) -0.0654(7) 0.80800(17)
H2B H 0.6003 0.0133 0.8160
H2A H 0.9867 -0.3997 0.8160
H2C H 1.3997 -0.0133 0.8160
C6B C 0.7133(7) 0.0318(7) 0.78481(15)
C6A C 0.9682(7) -0.2867(7) 0.78481(15)
C6C C 1.2867(7) -0.0318(7) 0.78481(15)
C7B C 0.4918(9) 0.1754(9) 0.87911(18)
C7A C 0.8246(9) -0.5082(9) 0.87911(18)
C7C C 1.5082(9) -0.1754(9) 0.87911(18)
C8B C 0.5503(10) 0.2475(10) 0.8976(2)
C8A C 0.7525(10) -0.4497(10) 0.8976(2)
C8C C 1.4497(10) -0.2475(10) 0.8976(2)
H3B H 0.6220 0.2842 0.8929
H3A H 0.7158 -0.3780 0.8929
H3C H 1.3780 -0.2842 0.8929
C9B C 0.5003(10) 0.2648(11) 0.9237(2)
C9A C 0.7352(11) -0.4997(10) 0.9237(2)
C9C C 1.4997(10) -0.2648(11) 0.9237(2)
H4B H 0.5386 0.3131 0.9365
H4A H 0.6869 -0.4614 0.9365
H4C H 1.4614 -0.3131 0.9365
C10B C 0.3944(9) 0.2102(10) 0.93015(18)
C10A C 0.7898(10) -0.6056(9) 0.93015(18)
C10C C 1.6056(9) -0.2102(10) 0.93015(18)
H5B H 0.3613 0.2216 0.9475
H5A H 0.7784 -0.6387 0.9475
H5C H 1.6387 -0.2216 0.9475
C11B C 0.3367(8) 0.1394(8) 0.91150(18)
C11A C 0.8606(8) -0.6633(8) 0.91150(18)
C11C C 1.6633(8) -0.1394(8) 0.91150(18)
C12B C 0.3860(8) 0.1228(8) 0.88619(18)
C12A C 0.8772(8) -0.6140(8) 0.88619(18)
C12C C 1.6140(8) -0.1228(8) 0.88619(18)
H6B H 0.3469 0.0746 0.8734
H6A H 0.9254 -0.6531 0.8734
H6C H 1.6531 -0.0746 0.8734
C13B C 0.2218(9) 0.0842(9) 0.91882(19)
C13A C 0.9158(9) -0.7782(9) 0.91882(19)
C13C C 1.7782(9) -0.0842(9) 0.91882(19)
C14B C 0.9095(7) 0.3058(7) 0.77296(15)
C14A C 0.6942(7) -0.0905(7) 0.77296(15)
C14C C 1.0905(7) -0.3058(7) 0.77296(15)
H7C H 1.1154 -0.3872 0.7766
H7A H 0.6128 -0.1154 0.7766
H7B H 0.8846 0.3872 0.7766
H8C H 1.0869 -0.2956 0.7531
H8A H 0.7044 -0.0869 0.7531
H8B H 0.9131 0.2956 0.7531
N1B N 0.6230(7) 0.2136(7) 0.84501(15)
N1A N 0.7864(7) -0.3770(7) 0.84501(15)
N1C N 1.3770(7) -0.2136(7) 0.84501(15)
N2B N 0.5380(7) 0.1493(7) 0.85247(15)
N2A N 0.8507(7) -0.4620(7) 0.85247(15)
N2C N 1.4620(7) -0.1493(7) 0.85247(15)
O1C O 1.1499(5) -0.0759(5) 0.74986(11)
O1A O 0.9241(5) -0.1499(5) 0.74986(11)
O1B O 0.8501(5) 0.0759(5) 0.74986(11)
H9C H 1.1040 -0.1284 0.7446
H9A H 0.8716 -0.1040 0.7446
H9B H 0.8960 0.1284 0.7446
O2B O 0.1746(6) 0.1036(6) 0.94203(12)
O2A O 0.8964(6) -0.8254(6) 0.94203(12)
O2C O 1.8254(6) -0.1036(6) 0.94203(12)
O2A_2 O 0.8964(6) 1.1746(6) 0.94203(12)
O2B_2 O 1.1746(6) 1.1036(6) 0.94203(12)
O2C_2 O 0.8254(6) 0.8964(6) 0.94203(12)
O3B O 0.1715(6) 0.0162(6) 0.90187(12)
O3A O 0.9838(6) -0.8285(6) 0.90187(12)
O3C O 1.8285(6) -0.0162(6) 0.90187(12)
O3A_2 O 0.9838(6) 1.1715(6) 0.90187(12)
O3B_2 O 1.1715(6) 1.0162(6) 0.90187(12)
O3C_2 O 0.8285(6) 0.9838(6) 0.90187(12)
C15 C 1.0000 0.0000 0.6786(5)
C16 C 1.0000 0.0000 0.6487(5)
N3 N 1.0000 0.0000 0.7011(5)
O5 O 1.0000 1.0000 0.8589(3)
O6 O 1.392(4) 0.345(4) 1.0000
H10 H 1.3345 0.3936 1.0000
H11 H 1.3980 0.2705 1.0000
H12 H 1.4435 0.4004 1.0000
N4 N 1.326(6) -0.057(4) 1.0000
O7 O 1.262(4) 0.170(4) 1.0000
C17 C 1.312(7) 0.073(4) 1.0000
C18 C 1.351(4) -0.111(4) 0.9729(6)
C18I C 1.351(4) -0.111(4) 1.0271(6)
loop_
_geom_bond_atom_site_label_1
_geom_bond_atom_site_label_2
_geom_bond_site_symmetry_1
_geom_bond_site_symmetry_2
Yb1 O2 1_555 1_555
C1 C2 1_555 1_555
C2 C3 1_555 1_555
C3 H1 1_555 1_555
C4 C3 1_555 1_555
C5 C4 1_555 1_555
H2 C5 1_555 1_555
C6 C1 1_555 1_555
C7 C8 1_555 1_555
C8 H3 1_555 1_555
C9 C8 1_555 1_555
H4 C9 1_555 1_555
C10 C9 1_555 1_555
H5 C10 1_555 1_555
C11 C10 1_555 1_555
C12 C7 1_555 1_555
H6 C12 1_555 1_555
C13 C11 1_555 1_555
C14 C2 1_555 1_555
H7 C14 1_555 1_555
H8 C14 1_555 1_555
C15 C16 1_555 1_555
N1 C4 1_555 1_555
N2 C7 1_555 1_555
N3 C15 1_555 1_555
O1 C1 1_555 1_555
H9 O1 1_555 1_555
O2 C13 1_555 1_555
O3 Yb1 1_555 1_555
O4 Yb1 1_555 1_555
O6 H10 1_555 1_555
H11 O6 1_555 1_555
H12 O6 1_555 1_555
N4 C17 1_555 1_555
O7 C17 1_555 1_555
C18 N4 1_555 1_555
Yb1_2 O2B 1_555 1_555
Yb1_3 O2A 1_555 1_555
Yb1_4 O2C 1_555 1_555
C1B C2B 1_555 1_555
C1A C2A 1_555 1_555
C1C C2C 1_555 1_555
C2B C3B 1_555 1_555
C2A C3A 1_555 1_555
C2C C3C 1_555 1_555
C3B H1B 1_555 1_555
C3A H1A 1_555 1_555
C3C H1C 1_555 1_555
C4B C3B 1_555 1_555
C4A C3A 1_555 1_555
C4C C3C 1_555 1_555
C5B C4B 1_555 1_555
C5A C4A 1_555 1_555
C5C C4C 1_555 1_555
H2B C5B 1_555 1_555
H2A C5A 1_555 1_555
H2C C5C 1_555 1_555
C6B C1B 1_555 1_555
C6A C1A 1_555 1_555
C6C C14 1_555 1_555
C7B C8B 1_555 1_555
C7A C8A 1_555 1_555
C7C C8C 1_555 1_555
C8B H3B 1_555 1_555
C8A H3A 1_555 1_555
C8C H3C 1_555 1_555
C9B C8B 1_555 1_555
C9A C8A 1_555 1_555
C9C C8C 1_555 1_555
H4B C9B 1_555 1_555
H4A C9A 1_555 1_555
H4C C9C 1_555 1_555
C10B C9B 1_555 1_555
C10A C9A 1_555 1_555
C10C C9C 1_555 1_555
H5B C10B 1_555 1_555
H5A C10A 1_555 1_555
H5C C10C 1_555 1_555
C11B C10B 1_555 1_555
C11A C10A 1_555 1_555
C11C C10C 1_555 1_555
C12B C7B 1_555 1_555
C12A C7A 1_555 1_555
C12C C7C 1_555 1_555
H6B C12B 1_555 1_555
H6A C12A 1_555 1_555
H6C C12C 1_555 1_555
C13B C11B 1_555 1_555
C13A C11A 1_555 1_555
C13C C11C 1_555 1_555
C14B C6 1_555 1_555
C14A C2A 1_555 1_555
C14C C2C 1_555 1_555
H7C C14C 1_555 1_555
H7A C14A 1_555 1_555
H7B C14B 1_555 1_555
H8C C14C 1_555 1_555
H8A C14A 1_555 1_555
H8B C14B 1_555 1_555
N1B C4B 1_555 1_555
N1A C4A 1_555 1_555
N1C C4C 1_555 1_555
N2B C7B 1_555 1_555
N2A C7A 1_555 1_555
N2C C7C 1_555 1_555
O1C C1C 1_555 1_555
O1A C1A 1_555 1_555
O1B C1B 1_555 1_555
H9C O1C 1_555 1_555
H9A O1A 1_555 1_555
H9B O1B 1_555 1_555
O2B C13B 1_555 1_555
O2A C13A 1_555 1_555
O2C C13C 1_555 1_555
O2A_2 Yb1 1_555 1_555
O2B_2 Yb1 1_555 1_555
O2C_2 Yb1 1_555 1_555
O3B Yb1_2 1_555 1_555
O3A Yb1_3 1_555 1_555
O3C Yb1_4 1_555 1_555
O3A_2 Yb1 1_555 1_555
O3B_2 Yb1 1_555 1_555
O3C_2 Yb1 1_555 1_555
C18I N4 1_555 1_555
C5 C6 1_555 1_555
C11 C12 1_555 1_555
C13 O3 1_555 1_555
N1 N2 1_555 1_555
C1C C6C 1_555 1_555
C2B C14B 1_555 1_555
C5B C6B 1_555 1_555
C5A C6A 1_555 1_555
C5C C6C 1_555 1_555
C6B C14A 1_555 1_555
C6A C14C 1_555 1_555
C11B C12B 1_555 1_555
C11A C12A 1_555 1_555
C11C C12C 1_555 1_555
C13B O3B 1_555 1_555
C13A O3A 1_555 1_555
C13C O3C 1_555 1_555
N1B N2B 1_555 1_555
N1A N2A 1_555 1_555
N1C N2C 1_555 1_555

#END
