
#######################################################################
#
#                 Cambridge Crystallographic Data Centre
#                                CCDC 
#
#######################################################################
#
# If this CIF has been generated from an entry in the Cambridge 
# Structural Database, then it will include bibliographic, chemical, 
# crystal, experimental, refinement or atomic coordinate data resulting 
# from the CCDC's data processing and validation procedures.
#
#######################################################################

data_EXAMIA
_symmetry_cell_setting           tetragonal
_symmetry_space_group_name_H-M   'I 4/m'
_symmetry_Int_Tables_number      87
_space_group_name_Hall           '-I 4'
loop_
_symmetry_equiv_pos_site_id
_symmetry_equiv_pos_as_xyz
1 x,y,z
2 -x,-y,z
3 -y,x,z
4 y,-x,z
5 1/2+x,1/2+y,1/2+z
6 1/2-x,1/2-y,1/2+z
7 1/2-y,1/2+x,1/2+z
8 1/2+y,1/2-x,1/2+z
9 -x,-y,-z
10 x,y,-z
11 y,-x,-z
12 -y,x,-z
13 1/2-x,1/2-y,1/2-z
14 1/2+x,1/2+y,1/2-z
15 1/2+y,1/2-x,1/2-z
16 1/2-y,1/2+x,1/2-z
_cell_length_a                   11.2863(16)
_cell_length_b                   11.2863(16)
_cell_length_c                   50.133(10)
_cell_angle_alpha                90
_cell_angle_beta                 90
_cell_angle_gamma                90
_cell_volume                     6385.97
loop_
_atom_site_label
_atom_site_type_symbol
_atom_site_fract_x
_atom_site_fract_y
_atom_site_fract_z
Nd1 Nd 1.0000 1.0000 0.931477(16)
C1 C 1.1131(6) 0.2052(6) 0.77277(13)
C2 C 1.2237(7) 0.1801(7) 0.78434(15)
C3 C 1.2551(7) 0.2398(7) 0.80730(15)
H1 H 1.3294 0.2256 0.8152
C4 C 1.1780(7) 0.3206(7) 0.81886(15)
C5 C 1.0689(7) 0.3446(7) 0.80726(14)
H2 H 1.0181 0.4006 0.8151
C6 C 1.0347(6) 0.2873(6) 0.78437(13)
C7 C 1.1772(8) 0.4988(8) 0.87786(16)
C8 C 1.2426(10) 0.4364(10) 0.8965(2)
H3 H 1.2785 0.3641 0.8918
C9 C 1.2550(12) 0.4811(11) 0.9222(2)
H4 H 1.2984 0.4385 0.9350
C10 C 1.2034(10) 0.5884(9) 0.92894(19)
H5 H 1.2138 0.6192 0.9462
C11 C 1.1357(8) 0.6517(8) 0.91014(16)
C12 C 1.1226(7) 0.6050(7) 0.88495(16)
H6 H 1.0761 0.6453 0.8723
C13 C 1.0812(8) 0.7673(8) 0.91786(17)
C14 C 1.3084(6) 0.0870(6) 0.77254(15)
H7 H 1.2972 0.0834 0.7532
H8 H 1.3904 0.1110 0.7760
N1 N 1.2146(6) 0.3718(7) 0.84416(14)
N2 N 1.1525(6) 0.4579(6) 0.85139(13)
O1 O 1.0773(5) 0.1520(5) 0.74967(10)
H9 H 1.1297 0.1061 0.7444
O2 O 1.1006(6) 0.8079(6) 0.94128(12)
O3 O 1.0166(6) 0.8197(5) 0.90124(11)
O4 O 1.0000 1.0000 0.9787(3)
Nd1_2 Nd 0.0000 0.0000 0.931477(16)
Nd1_3 Nd 1.0000 -1.0000 0.931477(16)
Nd1_4 Nd 2.0000 0.0000 0.931477(16)
C1B C 0.7948(6) 0.1131(6) 0.77277(13)
C1A C 0.8869(6) -0.2052(6) 0.77277(13)
C1C C 1.2052(6) -0.1131(6) 0.77277(13)
C2B C 0.8199(7) 0.2237(7) 0.78434(15)
C2A C 0.7763(7) -0.1801(7) 0.78434(15)
C2C C 1.1801(7) -0.2237(7) 0.78434(15)
C3B C 0.7602(7) 0.2551(7) 0.80730(15)
C3A C 0.7449(7) -0.2398(7) 0.80730(15)
C3C C 1.2398(7) -0.2551(7) 0.80730(15)
H1B H 0.7744 0.3294 0.8152
H1A H 0.6706 -0.2256 0.8152
H1C H 1.2256 -0.3294 0.8152
C4B C 0.6794(7) 0.1780(7) 0.81886(15)
C4A C 0.8220(7) -0.3206(7) 0.81886(15)
C4C C 1.3206(7) -0.1780(7) 0.81886(15)
C5B C 0.6554(7) 0.0689(7) 0.80726(14)
C5A C 0.9311(7) -0.3446(7) 0.80726(14)
C5C C 1.3446(7) -0.0689(7) 0.80726(14)
H2B H 0.5994 0.0181 0.8151
H2A H 0.9819 -0.4006 0.8151
H2C H 1.4006 -0.0181 0.8151
C6B C 0.7127(6) 0.0347(6) 0.78437(13)
C6A C 0.9653(6) -0.2873(6) 0.78437(13)
C6C C 1.2873(6) -0.0347(6) 0.78437(13)
C7B C 0.5012(8) 0.1772(8) 0.87786(16)
C7A C 0.8228(8) -0.4988(8) 0.87786(16)
C7C C 1.4988(8) -0.1772(8) 0.87786(16)
C8B C 0.5636(10) 0.2426(10) 0.8965(2)
C8A C 0.7574(10) -0.4364(10) 0.8965(2)
C8C C 1.4364(10) -0.2426(10) 0.8965(2)
H3B H 0.6359 0.2785 0.8918
H3A H 0.7215 -0.3641 0.8918
H3C H 1.3641 -0.2785 0.8918
C9B C 0.5189(11) 0.2550(12) 0.9222(2)
C9A C 0.7450(12) -0.4811(11) 0.9222(2)
C9C C 1.4811(11) -0.2550(12) 0.9222(2)
H4B H 0.5615 0.2984 0.9350
H4A H 0.7016 -0.4385 0.9350
H4C H 1.4385 -0.2984 0.9350
C10B C 0.4116(9) 0.2034(10) 0.92894(19)
C10A C 0.7966(10) -0.5884(9) 0.92894(19)
C10C C 1.5884(9) -0.2034(10) 0.92894(19)
H5B H 0.3808 0.2138 0.9462
H5A H 0.7862 -0.6192 0.9462
H5C H 1.6192 -0.2138 0.9462
C11B C 0.3483(8) 0.1357(8) 0.91014(16)
C11A C 0.8643(8) -0.6517(8) 0.91014(16)
C11C C 1.6517(8) -0.1357(8) 0.91014(16)
C12B C 0.3950(7) 0.1226(7) 0.88495(16)
C12A C 0.8774(7) -0.6050(7) 0.88495(16)
C12C C 1.6050(7) -0.1226(7) 0.88495(16)
H6B H 0.3547 0.0761 0.8723
H6A H 0.9239 -0.6453 0.8723
H6C H 1.6453 -0.0761 0.8723
C13B C 0.2327(8) 0.0812(8) 0.91786(17)
C13A C 0.9188(8) -0.7673(8) 0.91786(17)
C13C C 1.7673(8) -0.0812(8) 0.91786(17)
C14B C 0.9130(6) 0.3084(6) 0.77254(15)
C14A C 0.6916(6) -0.0870(6) 0.77254(15)
C14C C 1.0870(6) -0.3084(6) 0.77254(15)
H7C H 1.0834 -0.2972 0.7532
H7A H 0.7028 -0.0834 0.7532
H7B H 0.9166 0.2972 0.7532
H8C H 1.1110 -0.3904 0.7760
H8A H 0.6096 -0.1110 0.7760
H8B H 0.8890 0.3904 0.7760
N1B N 0.6282(7) 0.2146(6) 0.84416(14)
N1A N 0.7854(6) -0.3718(7) 0.84416(14)
N1C N 1.3718(7) -0.2146(6) 0.84416(14)
N2B N 0.5421(6) 0.1525(6) 0.85139(13)
N2A N 0.8475(6) -0.4579(6) 0.85139(13)
N2C N 1.4579(6) -0.1525(6) 0.85139(13)
O1C O 1.1520(5) -0.0773(5) 0.74967(10)
O1A O 0.9227(5) -0.1520(5) 0.74967(10)
O1B O 0.8480(5) 0.0773(5) 0.74967(10)
H9C H 1.1061 -0.1297 0.7444
H9A H 0.8703 -0.1061 0.7444
H9B H 0.8939 0.1297 0.7444
O2B O 0.1921(6) 0.1006(6) 0.94128(12)
O2A O 0.8994(6) -0.8079(6) 0.94128(12)
O2C O 1.8079(6) -0.1006(6) 0.94128(12)
O2A_2 O 0.8994(6) 1.1921(6) 0.94128(12)
O2B_2 O 1.1921(6) 1.1006(6) 0.94128(12)
O2C_2 O 0.8079(6) 0.8994(6) 0.94128(12)
O3B O 0.1803(5) 0.0166(6) 0.90124(11)
O3A O 0.9834(6) -0.8197(5) 0.90124(11)
O3C O 1.8197(5) -0.0166(6) 0.90124(11)
O3A_2 O 0.9834(6) 1.1803(5) 0.90124(11)
O3B_2 O 1.1803(5) 1.0166(6) 0.90124(11)
O3C_2 O 0.8197(5) 0.9834(6) 0.90124(11)
C15 C 1.0000 0.0000 0.6801(3)
C16 C 1.0000 0.0000 0.6511(4)
N3 N 1.0000 0.0000 0.7029(4)
O5 O 1.0000 1.0000 0.8595(2)
O6 O 1.433(5) 0.361(5) 1.0000
H10 H 1.3752 0.4095 1.0000
H11 H 1.4386 0.2864 1.0000
H12 H 1.4842 0.4163 1.0000
O7 O 1.744(5) -0.173(6) 1.0000
N4 N 1.692(5) 0.020(6) 1.0000
C17 C 1.662(7) -0.104(5) 1.0000
C18 C 1.676(4) 0.092(4) 1.0242(7)
C18I C 1.676(4) 0.092(4) 0.9758(7)
loop_
_geom_bond_atom_site_label_1
_geom_bond_atom_site_label_2
_geom_bond_site_symmetry_1
_geom_bond_site_symmetry_2
Nd1 O2 1_555 1_555
C1 C2 1_555 1_555
C2 C3 1_555 1_555
C3 H1 1_555 1_555
C4 C3 1_555 1_555
C5 C4 1_555 1_555
H2 C5 1_555 1_555
C6 C1 1_555 1_555
C7 C8 1_555 1_555
C8 H3 1_555 1_555
C9 C8 1_555 1_555
H4 C9 1_555 1_555
C10 C9 1_555 1_555
H5 C10 1_555 1_555
C11 C10 1_555 1_555
C12 C7 1_555 1_555
H6 C12 1_555 1_555
C13 C11 1_555 1_555
C14 C2 1_555 1_555
H7 C14 1_555 1_555
H8 C14 1_555 1_555
C15 C16 1_555 1_555
N1 C4 1_555 1_555
N2 C7 1_555 1_555
N3 C15 1_555 1_555
O1 C1 1_555 1_555
H9 O1 1_555 1_555
O2 C13 1_555 1_555
O3 Nd1 1_555 1_555
O4 Nd1 1_555 1_555
O6 H10 1_555 1_555
H11 O6 1_555 1_555
H12 O6 1_555 1_555
O7 C17 1_555 1_555
N4 C17 1_555 1_555
C18 N4 1_555 1_555
Nd1_2 O2B 1_555 1_555
Nd1_3 O2A 1_555 1_555
Nd1_4 O2C 1_555 1_555
C1B C2B 1_555 1_555
C1A C2A 1_555 1_555
C1C C2C 1_555 1_555
C2B C3B 1_555 1_555
C2A C3A 1_555 1_555
C2C C3C 1_555 1_555
C3B H1B 1_555 1_555
C3A H1A 1_555 1_555
C3C H1C 1_555 1_555
C4B C3B 1_555 1_555
C4A C3A 1_555 1_555
C4C C3C 1_555 1_555
C5B C4B 1_555 1_555
C5A C4A 1_555 1_555
C5C C4C 1_555 1_555
H2B C5B 1_555 1_555
H2A C5A 1_555 1_555
H2C C5C 1_555 1_555
C6B C1B 1_555 1_555
C6A C1A 1_555 1_555
C6C C14 1_555 1_555
C7B C8B 1_555 1_555
C7A C8A 1_555 1_555
C7C C8C 1_555 1_555
C8B H3B 1_555 1_555
C8A H3A 1_555 1_555
C8C H3C 1_555 1_555
C9B C8B 1_555 1_555
C9A C8A 1_555 1_555
C9C C8C 1_555 1_555
H4B C9B 1_555 1_555
H4A C9A 1_555 1_555
H4C C9C 1_555 1_555
C10B C9B 1_555 1_555
C10A C9A 1_555 1_555
C10C C9C 1_555 1_555
H5B C10B 1_555 1_555
H5A C10A 1_555 1_555
H5C C10C 1_555 1_555
C11B C10B 1_555 1_555
C11A C10A 1_555 1_555
C11C C10C 1_555 1_555
C12B C7B 1_555 1_555
C12A C7A 1_555 1_555
C12C C7C 1_555 1_555
H6B C12B 1_555 1_555
H6A C12A 1_555 1_555
H6C C12C 1_555 1_555
C13B C11B 1_555 1_555
C13A C11A 1_555 1_555
C13C C11C 1_555 1_555
C14B C6 1_555 1_555
C14A C2A 1_555 1_555
C14C C2C 1_555 1_555
H7C C14C 1_555 1_555
H7A C14A 1_555 1_555
H7B C14B 1_555 1_555
H8C C14C 1_555 1_555
H8A C14A 1_555 1_555
H8B C14B 1_555 1_555
N1B C4B 1_555 1_555
N1A C4A 1_555 1_555
N1C C4C 1_555 1_555
N2B C7B 1_555 1_555
N2A C7A 1_555 1_555
N2C C7C 1_555 1_555
O1C C1C 1_555 1_555
O1A C1A 1_555 1_555
O1B C1B 1_555 1_555
H9C O1C 1_555 1_555
H9A O1A 1_555 1_555
H9B O1B 1_555 1_555
O2B C13B 1_555 1_555
O2A C13A 1_555 1_555
O2C C13C 1_555 1_555
O2A_2 Nd1 1_555 1_555
O2B_2 Nd1 1_555 1_555
O2C_2 Nd1 1_555 1_555
O3B Nd1_2 1_555 1_555
O3A Nd1_3 1_555 1_555
O3C Nd1_4 1_555 1_555
O3A_2 Nd1 1_555 1_555
O3B_2 Nd1 1_555 1_555
O3C_2 Nd1 1_555 1_555
C18I N4 1_555 1_555
C5 C6 1_555 1_555
C11 C12 1_555 1_555
C13 O3 1_555 1_555
N1 N2 1_555 1_555
C1C C6C 1_555 1_555
C2B C14B 1_555 1_555
C5B C6B 1_555 1_555
C5A C6A 1_555 1_555
C5C C6C 1_555 1_555
C6B C14A 1_555 1_555
C6A C14C 1_555 1_555
C11B C12B 1_555 1_555
C11A C12A 1_555 1_555
C11C C12C 1_555 1_555
C13B O3B 1_555 1_555
C13A O3A 1_555 1_555
C13C O3C 1_555 1_555
N1B N2B 1_555 1_555
N1A N2A 1_555 1_555
N1C N2C 1_555 1_555

#END
