
#######################################################################
#
#                 Cambridge Crystallographic Data Centre
#                                CCDC 
#
#######################################################################
#
# If this CIF has been generated from an entry in the Cambridge 
# Structural Database, then it will include bibliographic, chemical, 
# crystal, experimental, refinement or atomic coordinate data resulting 
# from the CCDC's data processing and validation procedures.
#
#######################################################################

data_EXAMOG
_symmetry_cell_setting           tetragonal
_symmetry_space_group_name_H-M   'I 4/m'
_symmetry_Int_Tables_number      87
_space_group_name_Hall           '-I 4'
loop_
_symmetry_equiv_pos_site_id
_symmetry_equiv_pos_as_xyz
1 x,y,z
2 -x,-y,z
3 -y,x,z
4 y,-x,z
5 1/2+x,1/2+y,1/2+z
6 1/2-x,1/2-y,1/2+z
7 1/2-y,1/2+x,1/2+z
8 1/2+y,1/2-x,1/2+z
9 -x,-y,-z
10 x,y,-z
11 y,-x,-z
12 -y,x,-z
13 1/2-x,1/2-y,1/2-z
14 1/2+x,1/2+y,1/2-z
15 1/2+y,1/2-x,1/2-z
16 1/2-y,1/2+x,1/2-z
_cell_length_a                   11.2815(16)
_cell_length_b                   11.2815(16)
_cell_length_c                   49.769(10)
_cell_angle_alpha                90
_cell_angle_beta                 90
_cell_angle_gamma                90
_cell_volume                     6334.21
loop_
_atom_site_label
_atom_site_type_symbol
_atom_site_fract_x
_atom_site_fract_y
_atom_site_fract_z
Eu1 Eu 1.0000 0.0000 0.931700(13)
C1 C 0.8873(6) 0.7951(6) 0.77280(13)
C2 C 0.7770(6) 0.8189(6) 0.78422(13)
C3 C 0.7460(6) 0.7592(7) 0.80765(16)
H1 H 0.6722 0.7745 0.8157
C4 C 0.8222(7) 0.6774(7) 0.81944(15)
C5 C 0.9333(6) 0.6552(6) 0.80761(14)
H2 H 0.9855 0.6005 0.8155
C6 C 0.9654(6) 0.7130(6) 0.78463(13)
C7 C 0.8242(8) 0.4975(8) 0.87846(16)
C8 C 0.7543(10) 0.5587(9) 0.89677(19)
H3 H 0.7154 0.6289 0.8917
C9 C 0.7427(11) 0.5139(10) 0.9229(2)
H4 H 0.6997 0.5567 0.9358
C10 C 0.7945(9) 0.4067(8) 0.92972(16)
H5 H 0.7834 0.3750 0.9470
C11 C 0.8639(7) 0.3452(7) 0.91071(16)
C12 C 0.8768(7) 0.3924(7) 0.88585(17)
H6 H 0.9235 0.3519 0.8732
C13 C 0.9189(8) 0.2283(7) 0.91841(16)
C14 C 1.0889(6) 0.6921(6) 0.77279(14)
H7 H 1.1134 0.6104 0.7766
H8 H 1.0854 0.7018 0.7532
N1 N 0.7863(6) 0.6270(6) 0.84461(13)
N2 N 0.8489(6) 0.5404(6) 0.85175(13)
O1 O 0.9233(4) 0.8493(5) 0.74974(9)
H9 H 0.8707 0.8952 0.7445
O2 O 0.8981(6) 0.1862(5) 0.94175(11)
O3 O 0.9844(5) 0.1772(5) 0.90158(10)
O4 O 1.0000 0.0000 0.9787(2)
Eu1_2 Eu 0.0000 1.0000 0.931700(13)
Eu1_3 Eu 1.0000 2.0000 0.931700(13)
Eu1_4 Eu 2.0000 1.0000 0.931700(13)
C1B C 1.2049(6) 0.8873(6) 0.77280(13)
C1C C 0.7951(6) 1.1127(6) 0.77280(13)
C1A C 1.1127(6) 1.2049(6) 0.77280(13)
C2B C 1.1811(6) 0.7770(6) 0.78422(13)
C2C C 0.8189(6) 1.2230(6) 0.78422(13)
C2A C 1.2230(6) 1.1811(6) 0.78422(13)
C3B C 1.2408(7) 0.7460(6) 0.80765(16)
C3C C 0.7592(7) 1.2540(6) 0.80765(16)
C3A C 1.2540(6) 1.2408(7) 0.80765(16)
H1B H 1.2255 0.6722 0.8157
H1C H 0.7745 1.3278 0.8157
H1A H 1.3278 1.2255 0.8157
C4B C 1.3226(7) 0.8222(7) 0.81944(15)
C4C C 0.6774(7) 1.1778(7) 0.81944(15)
C4A C 1.1778(7) 1.3226(7) 0.81944(15)
C5B C 1.3448(6) 0.9333(6) 0.80761(14)
C5C C 0.6552(6) 1.0667(6) 0.80761(14)
C5A C 1.0667(6) 1.3448(6) 0.80761(14)
H2B H 1.3995 0.9855 0.8155
H2C H 0.6005 1.0145 0.8155
H2A H 1.0145 1.3995 0.8155
C6B C 1.2870(6) 0.9654(6) 0.78463(13)
C6C C 0.7130(6) 1.0346(6) 0.78463(13)
C6A C 1.0346(6) 1.2870(6) 0.78463(13)
C7B C 1.5025(8) 0.8242(8) 0.87846(16)
C7C C 0.4975(8) 1.1758(8) 0.87846(16)
C7A C 1.1758(8) 1.5025(8) 0.87846(16)
C8B C 1.4413(9) 0.7543(10) 0.89677(19)
C8C C 0.5587(9) 1.2457(10) 0.89677(19)
C8A C 1.2457(10) 1.4413(9) 0.89677(19)
H3B H 1.3711 0.7154 0.8917
H3C H 0.6289 1.2846 0.8917
H3A H 1.2846 1.3711 0.8917
C9B C 1.4861(10) 0.7427(11) 0.9229(2)
C9C C 0.5139(10) 1.2573(11) 0.9229(2)
C9A C 1.2573(11) 1.4861(10) 0.9229(2)
H4B H 1.4433 0.6997 0.9358
H4C H 0.5567 1.3003 0.9358
H4A H 1.3003 1.4433 0.9358
C10B C 1.5933(8) 0.7945(9) 0.92972(16)
C10C C 0.4067(8) 1.2055(9) 0.92972(16)
C10A C 1.2055(9) 1.5933(8) 0.92972(16)
H5B H 1.6250 0.7834 0.9470
H5C H 0.3750 1.2166 0.9470
H5A H 1.2166 1.6250 0.9470
C11B C 1.6548(7) 0.8639(7) 0.91071(16)
C11C C 0.3452(7) 1.1361(7) 0.91071(16)
C11A C 1.1361(7) 1.6548(7) 0.91071(16)
C12B C 1.6076(7) 0.8768(7) 0.88585(17)
C12C C 0.3924(7) 1.1232(7) 0.88585(17)
C12A C 1.1232(7) 1.6076(7) 0.88585(17)
H6B H 1.6481 0.9235 0.8732
H6C H 0.3519 1.0765 0.8732
H6A H 1.0765 1.6481 0.8732
C13B C 1.7717(7) 0.9189(8) 0.91841(16)
C13C C 0.2283(7) 1.0811(8) 0.91841(16)
C13A C 1.0811(8) 1.7717(7) 0.91841(16)
C14B C 1.3079(6) 1.0889(6) 0.77279(14)
C14C C 0.6921(6) 0.9111(6) 0.77279(14)
C14A C 0.9111(6) 1.3079(6) 0.77279(14)
H7B H 1.3896 1.1134 0.7766
H7C H 0.6104 0.8866 0.7766
H7A H 0.8866 1.3896 0.7766
H8B H 1.2982 1.0854 0.7532
H8C H 0.7018 0.9146 0.7532
H8A H 0.9146 1.2982 0.7532
N1B N 1.3730(6) 0.7863(6) 0.84461(13)
N1C N 0.6270(6) 1.2137(6) 0.84461(13)
N1A N 1.2137(6) 1.3730(6) 0.84461(13)
N2B N 1.4596(6) 0.8489(6) 0.85175(13)
N2C N 0.5404(6) 1.1511(6) 0.85175(13)
N2A N 1.1511(6) 1.4596(6) 0.85175(13)
O1B O 1.1507(5) 0.9233(4) 0.74974(9)
O1C O 0.8493(5) 1.0767(4) 0.74974(9)
O1A O 1.0767(4) 1.1507(5) 0.74974(9)
H9B H 1.1048 0.8707 0.7445
H9C H 0.8952 1.1293 0.7445
H9A H 1.1293 1.1048 0.7445
O2B O 1.8138(5) 0.8981(6) 0.94175(11)
O2C O 0.1862(5) 1.1019(6) 0.94175(11)
O2A O 1.1019(6) 1.8138(5) 0.94175(11)
O2B_2 O 0.8138(5) -0.1019(6) 0.94175(11)
O2A_2 O 1.1019(6) -0.1862(5) 0.94175(11)
O2C_2 O 1.1862(5) 0.1019(6) 0.94175(11)
O3B O 1.8228(5) 0.9844(5) 0.90158(10)
O3C O 0.1772(5) 1.0156(5) 0.90158(10)
O3A O 1.0156(5) 1.8228(5) 0.90158(10)
O3B_2 O 0.8228(5) -0.0156(5) 0.90158(10)
O3A_2 O 1.0156(5) -0.1772(5) 0.90158(10)
O3C_2 O 1.1772(5) 0.0156(5) 0.90158(10)
C15 C 1.0000 0.0000 0.6799(4)
C16 C 1.0000 0.0000 0.6507(4)
N3 N 1.0000 0.0000 0.7027(4)
O5 O 1.0000 1.0000 0.8590(2)
O6 O 1.355(5) 0.579(4) 1.0000
H10 H 1.4032 0.6364 1.0000
H11 H 1.2801 0.5729 1.0000
H12 H 1.4100 0.5274 1.0000
O7 O 0.822(5) 0.251(4) 1.0000
N4 N 1.031(6) 0.306(6) 1.0000
C17 C 0.903(5) 0.322(7) 1.0000
C18 C 1.096(4) 0.330(5) 0.9748(9)
C18I C 1.096(4) 0.330(5) 1.0252(9)
loop_
_geom_bond_atom_site_label_1
_geom_bond_atom_site_label_2
_geom_bond_site_symmetry_1
_geom_bond_site_symmetry_2
Eu1 O2 1_555 1_555
C1 C2 1_555 1_555
C2 C3 1_555 1_555
C3 H1 1_555 1_555
C4 C3 1_555 1_555
C5 C4 1_555 1_555
H2 C5 1_555 1_555
C6 C1 1_555 1_555
C7 C8 1_555 1_555
C8 H3 1_555 1_555
C9 C8 1_555 1_555
H4 C9 1_555 1_555
C10 C9 1_555 1_555
H5 C10 1_555 1_555
C11 C10 1_555 1_555
C12 C7 1_555 1_555
H6 C12 1_555 1_555
C13 C11 1_555 1_555
C14 C6 1_555 1_555
H7 C14 1_555 1_555
H8 C14 1_555 1_555
C15 C16 1_555 1_555
N1 C4 1_555 1_555
N2 C7 1_555 1_555
N3 C15 1_555 1_555
O1 C1 1_555 1_555
H9 O1 1_555 1_555
O2 C13 1_555 1_555
O3 Eu1 1_555 1_555
O4 Eu1 1_555 1_555
O6 H10 1_555 1_555
H11 O6 1_555 1_555
H12 O6 1_555 1_555
O7 C17 1_555 1_555
N4 C17 1_555 1_555
C18 N4 1_555 1_555
Eu1_2 O2C 1_555 1_555
Eu1_3 O2A 1_555 1_555
Eu1_4 O2B 1_555 1_555
C1B C2B 1_555 1_555
C1C C2C 1_555 1_555
C1A C2A 1_555 1_555
C2B C14 1_555 1_555
C2C C3C 1_555 1_555
C2A C3A 1_555 1_555
C3B C2B 1_555 1_555
C3C H1C 1_555 1_555
C3A H1A 1_555 1_555
H1B C3B 1_555 1_555
C4B C3B 1_555 1_555
C4C C3C 1_555 1_555
C4A C3A 1_555 1_555
C5B C4B 1_555 1_555
C5C C4C 1_555 1_555
C5A C4A 1_555 1_555
H2B C5B 1_555 1_555
H2C C5C 1_555 1_555
H2A C5A 1_555 1_555
C6B C1B 1_555 1_555
C6C C1C 1_555 1_555
C6A C1A 1_555 1_555
C7B C8B 1_555 1_555
C7C C8C 1_555 1_555
C7A C8A 1_555 1_555
C8B H3B 1_555 1_555
C8C H3C 1_555 1_555
C8A H3A 1_555 1_555
C9B C8B 1_555 1_555
C9C C8C 1_555 1_555
C9A C8A 1_555 1_555
H4B C9B 1_555 1_555
H4C C9C 1_555 1_555
H4A C9A 1_555 1_555
C10B C9B 1_555 1_555
C10C C9C 1_555 1_555
C10A C9A 1_555 1_555
H5B C10B 1_555 1_555
H5C C10C 1_555 1_555
H5A C10A 1_555 1_555
C11B C10B 1_555 1_555
C11C C10C 1_555 1_555
C11A C10A 1_555 1_555
C12B C7B 1_555 1_555
C12C C7C 1_555 1_555
C12A C7A 1_555 1_555
H6B C12B 1_555 1_555
H6C C12C 1_555 1_555
H6A C12A 1_555 1_555
C13B C11B 1_555 1_555
C13C C11C 1_555 1_555
C13A C11A 1_555 1_555
C14B C2A 1_555 1_555
C14C C2 1_555 1_555
C14A C2C 1_555 1_555
H7B C14B 1_555 1_555
H7C C14C 1_555 1_555
H7A C14A 1_555 1_555
H8B C14B 1_555 1_555
H8C C14C 1_555 1_555
H8A C14A 1_555 1_555
N1B C4B 1_555 1_555
N1C C4C 1_555 1_555
N1A C4A 1_555 1_555
N2B C7B 1_555 1_555
N2C C7C 1_555 1_555
N2A C7A 1_555 1_555
O1B C1B 1_555 1_555
O1C C1C 1_555 1_555
O1A C1A 1_555 1_555
H9B O1B 1_555 1_555
H9C O1C 1_555 1_555
H9A O1A 1_555 1_555
O2B C13B 1_555 1_555
O2C C13C 1_555 1_555
O2A C13A 1_555 1_555
O2B_2 Eu1 1_555 1_555
O2A_2 Eu1 1_555 1_555
O2C_2 Eu1 1_555 1_555
O3B Eu1_4 1_555 1_555
O3C Eu1_2 1_555 1_555
O3A Eu1_3 1_555 1_555
O3B_2 Eu1 1_555 1_555
O3A_2 Eu1 1_555 1_555
O3C_2 Eu1 1_555 1_555
C18I N4 1_555 1_555
C5 C6 1_555 1_555
C11 C12 1_555 1_555
C13 O3 1_555 1_555
N1 N2 1_555 1_555
C5B C6B 1_555 1_555
C5C C6C 1_555 1_555
C5A C6A 1_555 1_555
C6B C14B 1_555 1_555
C6C C14C 1_555 1_555
C6A C14A 1_555 1_555
C11B C12B 1_555 1_555
C11C C12C 1_555 1_555
C11A C12A 1_555 1_555
C13B O3B 1_555 1_555
C13C O3C 1_555 1_555
C13A O3A 1_555 1_555
N1B N2B 1_555 1_555
N1C N2C 1_555 1_555
N1A N2A 1_555 1_555

#END
