
#######################################################################
#
#                 Cambridge Crystallographic Data Centre
#                                CCDC 
#
#######################################################################
#
# If this CIF has been generated from an entry in the Cambridge 
# Structural Database, then it will include bibliographic, chemical, 
# crystal, experimental, refinement or atomic coordinate data resulting 
# from the CCDC's data processing and validation procedures.
#
#######################################################################

data_EXAVAB
_symmetry_cell_setting           triclinic
_symmetry_space_group_name_H-M   'P -1'
_symmetry_Int_Tables_number      2
_space_group_name_Hall           '-P 1'
loop_
_symmetry_equiv_pos_site_id
_symmetry_equiv_pos_as_xyz
1 x,y,z
2 -x,-y,-z
_cell_length_a                   9.4686(16)
_cell_length_b                   12.051(2)
_cell_length_c                   14.127(2)
_cell_angle_alpha                114.586(2)
_cell_angle_beta                 102.431(3)
_cell_angle_gamma                97.334(3)
_cell_volume                     1387.98
loop_
_atom_site_label
_atom_site_type_symbol
_atom_site_fract_x
_atom_site_fract_y
_atom_site_fract_z
Gd1 Gd 0.72858(4) 1.03773(3) 0.50898(3)
O1 O 0.6472(5) 1.1881(4) 0.4369(4)
O2 O 0.4383(5) 1.1075(4) 0.4560(3)
O3 O 0.6829(5) 1.5192(4) 0.3318(4)
O4 O 0.5088(5) 1.6194(4) 0.3311(4)
O5 O 0.0472(5) 1.4704(5) 0.3825(4)
O6 O 0.0158(5) 1.3050(4) 0.4078(4)
O7 O 0.5484(5) 0.8920(4) 0.3320(3)
O8 O 0.3101(5) 0.8194(4) 0.3151(3)
O9 O 0.7573(5) 0.6696(4) 0.0468(4)
O10 O 0.6229(5) 0.6011(5) -0.1193(4)
O11 O 0.0924(6) 0.4492(5) -0.1925(4)
O12 O -0.0152(5) 0.5475(4) -0.0738(4)
O13 O 0.9277(5) 1.0397(4) 0.6521(4)
O14 O 1.1063(5) 0.9496(4) 0.5980(3)
O15 O 1.4048(6) 0.8108(5) 0.8408(4)
O16 O 1.4128(5) 0.8911(5) 1.0103(4)
O17 O 1.1295(6) 1.1943(5) 1.1494(4)
O18 O 0.9486(5) 1.2060(4) 1.0339(4)
O19 O 0.7985(5) 0.8224(4) 0.4263(4)
O20 O 0.9301(5) 1.2582(4) 0.5979(4)
N1 N 0.5581(6) 1.5329(5) 0.3374(4)
N2 N 0.0894(6) 1.3831(5) 0.3917(5)
N3 N 0.6382(6) 0.6388(5) -0.0224(4)
N4 N 0.0950(6) 0.5276(5) -0.1017(4)
N5 N 1.3678(6) 0.8797(5) 0.9176(5)
N6 N 1.0606(6) 1.1712(5) 1.0567(4)
C1 C 0.5130(7) 1.1812(6) 0.4325(5)
C2 C 0.4405(7) 1.2714(6) 0.4023(5)
C3 C 0.2965(7) 1.2796(6) 0.4054(5)
H1 H 0.2371 1.2236 0.4211
C4 C 0.2412(7) 1.3715(6) 0.3851(5)
C5 C 0.3221(7) 1.4544(6) 0.3603(5)
H2 H 0.2820 1.5165 0.3466
C6 C 0.4639(7) 1.4420(6) 0.3567(5)
C7 C 0.5257(7) 1.3531(6) 0.3768(5)
H3 H 0.6239 1.3475 0.3735
C8 C 0.4189(7) 0.8221(6) 0.2786(5)
C9 C 0.3960(7) 0.7372(6) 0.1593(5)
C10 C 0.2547(7) 0.6724(6) 0.0863(5)
H4 H 0.1684 0.6782 0.1103
C11 C 0.2428(7) 0.5991(6) -0.0224(5)
C12 C 0.3659(7) 0.5866(6) -0.0616(5)
H5 H 0.3553 0.5373 -0.1366
C13 C 0.5037(7) 0.6497(6) 0.0145(5)
C14 C 0.5223(7) 0.7241(6) 0.1238(5)
H6 H 0.6193 0.7656 0.1738
C15 C 1.0415(7) 0.9972(6) 0.6668(5)
C16 C 1.1027(7) 1.0070(6) 0.7789(5)
C17 C 1.2101(7) 0.9427(6) 0.7956(5)
H7 H 1.2451 0.8923 0.7376
C18 C 1.2642(7) 0.9548(6) 0.8995(5)
C19 C 1.2216(7) 1.0322(6) 0.9873(5)
H8 H 1.2644 1.0427 1.0588
C20 C 1.1146(7) 1.0931(6) 0.9665(5)
C21 C 1.0527(7) 1.0803(6) 0.8636(5)
H9 H 0.9767 1.1214 0.8512
H10 H 0.738(5) 0.766(5) 0.374(4)
H11 H 0.942(9) 1.303(5) 0.661(2)
H12 H 0.876(4) 0.803(6) 0.434(6)
H13 H 0.911(9) 1.296(6) 0.563(5)
Gd1A Gd 0.27142(4) 0.96227(3) 0.49102(3)
Gd1A_2 Gd 1.27142(4) 0.96227(3) 0.49102(3)
O2A O 0.5617(5) 0.8925(4) 0.5440(3)
O8A O 0.6899(5) 1.1806(4) 0.6849(3)
O14A O 0.8937(5) 1.0504(4) 0.4020(3)
loop_
_geom_bond_atom_site_label_1
_geom_bond_atom_site_label_2
_geom_bond_site_symmetry_1
_geom_bond_site_symmetry_2
Gd1 O1 1_555 1_555
O1 C1 1_555 1_555
O2 C1 1_555 1_555
O3 N1 1_555 1_555
O4 N1 1_555 1_555
O5 N2 1_555 1_555
O6 N2 1_555 1_555
O7 Gd1 1_555 1_555
O8 C8 1_555 1_555
O9 N3 1_555 1_555
O10 N3 1_555 1_555
O11 N4 1_555 1_555
O12 N4 1_555 1_555
O13 Gd1 1_555 1_555
O14 C15 1_555 1_555
O15 N5 1_555 1_555
O16 N5 1_555 1_555
O17 N6 1_555 1_555
O18 N6 1_555 1_555
O19 Gd1 1_555 1_555
O20 Gd1 1_555 1_555
N1 C6 1_555 1_555
N2 C4 1_555 1_555
N3 C13 1_555 1_555
N4 C11 1_555 1_555
N5 C18 1_555 1_555
N6 C20 1_555 1_555
C1 C2 1_555 1_555
C2 C3 1_555 1_555
C3 H1 1_555 1_555
C4 C3 1_555 1_555
C5 C4 1_555 1_555
H2 C5 1_555 1_555
C6 C5 1_555 1_555
C7 C2 1_555 1_555
H3 C7 1_555 1_555
C8 O7 1_555 1_555
C9 C8 1_555 1_555
C10 C9 1_555 1_555
H4 C10 1_555 1_555
C11 C10 1_555 1_555
C12 C11 1_555 1_555
H5 C12 1_555 1_555
C13 C12 1_555 1_555
C14 C9 1_555 1_555
H6 C14 1_555 1_555
C15 O13 1_555 1_555
C16 C15 1_555 1_555
C17 C16 1_555 1_555
H7 C17 1_555 1_555
C18 C17 1_555 1_555
C19 C18 1_555 1_555
H8 C19 1_555 1_555
C20 C19 1_555 1_555
C21 C16 1_555 1_555
H9 C21 1_555 1_555
H10 O19 1_555 1_555
H11 O20 1_555 1_555
H12 O19 1_555 1_555
H13 O20 1_555 1_555
Gd1A O2 1_555 1_555
Gd1A_2 O14 1_555 1_555
O2A Gd1 1_555 1_555
O8A Gd1 1_555 1_555
O14A Gd1 1_555 1_555
O8 Gd1A 1_555 1_555
C6 C7 1_555 1_555
C13 C14 1_555 1_555
C20 C21 1_555 1_555

#END
