
#######################################################################
#
#                 Cambridge Crystallographic Data Centre
#                                CCDC 
#
#######################################################################
#
# If this CIF has been generated from an entry in the Cambridge 
# Structural Database, then it will include bibliographic, chemical, 
# crystal, experimental, refinement or atomic coordinate data resulting 
# from the CCDC's data processing and validation procedures.
#
#######################################################################

data_EXAVUV
_symmetry_cell_setting           triclinic
_symmetry_space_group_name_H-M   'P -1'
_symmetry_Int_Tables_number      2
_space_group_name_Hall           '-P 1'
loop_
_symmetry_equiv_pos_site_id
_symmetry_equiv_pos_as_xyz
1 x,y,z
2 -x,-y,-z
_cell_length_a                   11.8366(4)
_cell_length_b                   15.5804(6)
_cell_length_c                   15.8408(6)
_cell_angle_alpha                91.966(2)
_cell_angle_beta                 101.349(2)
_cell_angle_gamma                101.721(2)
_cell_volume                     2796.09
loop_
_atom_site_label
_atom_site_type_symbol
_atom_site_fract_x
_atom_site_fract_y
_atom_site_fract_z
Zn1 Zn 0.96373(3) 0.65372(2) 0.30138(2)
Zn2 Zn 1.01603(3) 0.83446(2) 0.20632(2)
Zn3 Zn 0.73903(3) 0.73763(2) 0.25909(2)
Zn4 Zn 1.22980(3) 0.74012(2) 0.24192(2)
O1 O 0.87568(17) 0.73010(13) 0.21067(13)
H1 H 0.8496 0.6968 0.1541
O2 O 1.10362(17) 0.75817(13) 0.29779(13)
H2 H 1.1344 0.7909 0.3544
O3 O 0.65188(19) 0.61568(14) 0.23892(14)
O4 O 0.80547(18) 0.55173(14) 0.28013(14)
O5 O 0.7727(3) 0.25044(19) 0.1442(2)
O6 O 0.5956(3) 0.17141(18) 0.11104(19)
O7 O 0.3116(2) 0.33244(17) -0.03958(18)
O8 O 0.3035(2) 0.45949(17) 0.02553(16)
H3 H 0.2421 0.4539 -0.0107
O9 O 1.17948(19) 0.92680(15) 0.21320(14)
O10 O 1.32780(19) 0.86034(15) 0.26396(14)
O11 O 1.6692(2) 1.03366(17) 0.47481(17)
H4 H 1.7261 1.0425 0.5154
O12 O 1.6815(3) 1.1764(2) 0.4999(2)
O13 O 1.4372(3) 1.3215(2) 0.2906(2)
O14 O 1.3188(3) 1.2455(2) 0.1791(2)
O15 O 0.8156(2) 0.30960(15) -0.12119(14)
O16 O 0.9547(2) 0.23097(15) -0.09723(14)
O17 O 1.0873(3) 0.19279(19) 0.21374(18)
O18 O 1.1609(3) 0.3128(2) 0.29490(18)
O19 O 1.01990(18) 0.57635(14) 0.21729(13)
O20 O 0.8793(2) 0.57132(15) 0.10025(14)
O21 O 0.7764(2) 0.80099(15) 0.37500(14)
O22 O 0.9064(2) 0.71569(15) 0.39969(14)
O23 O 1.1880(3) 0.7427(2) 0.6629(2)
O24 O 1.2608(3) 0.8734(2) 0.72314(19)
O25 O 1.01751(19) 1.08674(14) 0.69837(13)
O26 O 0.8539(2) 1.07060(16) 0.59786(14)
N1 N 0.3727(2) 1.19246(18) -0.19783(17)
N2 N 0.9245(2) 0.90688(17) 0.11662(17)
N3 N 1.0603(2) 0.58855(17) 0.39929(16)
N4 N 1.6584(2) 0.33201(18) 0.69965(17)
N5 N 0.6656(3) 0.2425(2) 0.1296(2)
N6 N 1.3866(3) 1.2516(2) 0.2499(3)
N7 N 1.1028(3) 0.2725(2) 0.2271(2)
N8 N 1.1842(3) 0.8194(3) 0.6741(2)
C1 C 0.3452(3) 1.1041(2) -0.2082(2)
H5 H 0.2748 1.0769 -0.2453
C2 C 0.4158(3) 1.0523(2) -0.1669(2)
H6 H 0.3920 0.9914 -0.1747
C3 C 0.5215(3) 1.0904(2) -0.1141(2)
C4 C 0.5510(3) 1.1814(3) -0.1031(2)
H7 H 0.6217 1.2097 -0.0671
C5 C 0.4753(3) 1.2295(2) -0.1454(2)
H8 H 0.4964 1.2905 -0.1373
C6 C 0.5986(3) 1.0333(3) -0.0721(2)
H9 H 0.5676 0.9731 -0.0775
C7 C 0.7053(3) 1.0602(3) -0.0285(2)
H10 H 0.7374 1.1201 -0.0261
C8 C 0.8333(3) 0.8684(2) 0.0535(2)
H11 H 0.8179 0.8076 0.0430
C9 C 0.7611(3) 0.9145(3) 0.0031(2)
H12 H 0.6994 0.8848 -0.0403
C10 C 0.7807(3) 1.0054(2) 0.0174(2)
C11 C 0.8766(3) 1.0450(2) 0.0815(2)
H13 H 0.8947 1.1058 0.0927
C12 C 0.9449(3) 0.9950(2) 0.1285(2)
H14 H 1.0089 1.0235 0.1709
C13 C 1.0379(3) 0.5012(2) 0.3982(2)
H15 H 0.9663 0.4698 0.3657
C14 C 1.1145(3) 0.4545(2) 0.4424(2)
H16 H 1.0949 0.3934 0.4384
C15 C 1.2222(3) 0.4995(2) 0.4935(2)
C16 C 1.2419(3) 0.5908(2) 0.4990(2)
H17 H 1.3095 0.6240 0.5350
C17 C 1.1614(3) 0.6318(2) 0.4514(2)
H18 H 1.1776 0.6929 0.4554
C18 C 1.3069(3) 0.4496(2) 0.5363(2)
H19 H 1.2808 0.3889 0.5328
C19 C 1.4151(3) 0.4809(2) 0.5790(2)
H20 H 1.4407 0.5418 0.5848
C20 C 1.6771(3) 0.4189(2) 0.7165(2)
H21 H 1.7441 0.4470 0.7566
C21 C 1.6012(3) 0.4688(2) 0.6772(2)
H22 H 1.6185 0.5292 0.6903
C22 C 1.4995(3) 0.4297(2) 0.6183(2)
C23 C 1.4821(3) 0.3393(2) 0.6005(2)
H23 H 1.4162 0.3097 0.5603
C24 C 1.5615(3) 0.2936(2) 0.6420(2)
H24 H 1.5471 0.2331 0.6294
C25 C 0.6339(3) 0.4693(2) 0.1864(2)
C26 C 0.6809(3) 0.3947(2) 0.1860(2)
H25 H 0.7537 0.3938 0.2208
C27 C 0.6173(3) 0.3217(2) 0.1328(2)
C28 C 0.5109(3) 0.3208(2) 0.0793(2)
H26 H 0.4703 0.2707 0.0440
C29 C 0.4648(3) 0.3953(2) 0.0787(2)
C30 C 0.5246(3) 0.4686(2) 0.1330(2)
H27 H 0.4918 0.5179 0.1340
C31 C 0.7037(3) 0.5512(2) 0.2401(2)
C32 C 0.3514(3) 0.3922(2) 0.0161(2)
C33 C 1.3617(3) 1.0140(2) 0.2857(2)
C34 C 1.4613(3) 1.0184(2) 0.3509(2)
H28 H 1.4817 0.9668 0.3705
C35 C 1.5301(3) 1.0991(2) 0.3868(2)
C36 C 1.5050(3) 1.1758(3) 0.3546(3)
H29 H 1.5514 1.2302 0.3775
C37 C 1.4096(3) 1.1694(2) 0.2879(3)
C38 C 1.3354(3) 1.0906(2) 0.2534(2)
H30 H 1.2696 1.0890 0.2098
C39 C 1.2823(3) 0.9273(2) 0.2513(2)
C40 C 1.6346(4) 1.1071(3) 0.4599(3)
C41 C 0.9458(3) 0.3276(2) 0.0158(2)
C42 C 1.0089(3) 0.2847(2) 0.0764(2)
H31 H 1.0251 0.2310 0.0614
C43 C 1.0481(3) 0.3226(2) 0.1601(2)
C44 C 1.0344(3) 0.4050(2) 0.1826(2)
H32 H 1.0669 0.4311 0.2381
C45 C 0.9714(3) 0.4492(2) 0.1216(2)
C46 C 0.9236(3) 0.4090(2) 0.0391(2)
H33 H 0.8767 0.4363 -0.0008
C47 C 0.9019(3) 0.2859(2) -0.0748(2)
C48 C 0.9536(3) 0.5391(2) 0.1477(2)
C49 C 0.9251(3) 0.8303(2) 0.50410(19)
C50 C 1.0178(3) 0.8007(2) 0.5526(2)
H34 H 1.0359 0.7481 0.5360
C51 C 1.0828(3) 0.8503(2) 0.6257(2)
C52 C 1.0591(3) 0.9288(2) 0.6521(2)
H35 H 1.1062 0.9617 0.7012
C53 C 0.9649(3) 0.9581(2) 0.6051(2)
C54 C 0.8979(3) 0.9082(2) 0.5307(2)
H36 H 0.8342 0.9272 0.4985
C55 C 0.8650(3) 0.7785(2) 0.4199(2)
C56 C 0.9426(3) 1.0451(2) 0.6350(2)
Zn2A Zn 0.98397(3) 0.16554(2) -0.20632(2)
Zn2A_2 Zn 0.98397(3) 1.16554(2) 0.79368(2)
Zn3A Zn 0.26097(3) 1.26237(2) -0.25909(2)
Zn4A Zn 0.77020(3) 0.25988(2) -0.24192(2)
Zn4A_2 Zn 1.77020(3) 0.25988(2) 0.75808(2)
O15A O 1.1844(2) 0.69040(15) 0.12119(14)
O16A O 1.0453(2) 0.76903(15) 0.09723(14)
O25A O 0.98249(19) 0.91326(14) 0.30163(13)
N1A N 0.6273(2) 0.80754(18) 0.19783(17)
N4A N 1.3416(2) 0.66799(18) 0.30035(17)
loop_
_geom_bond_atom_site_label_1
_geom_bond_atom_site_label_2
_geom_bond_site_symmetry_1
_geom_bond_site_symmetry_2
Zn1 O1 1_555 1_555
Zn2 O1 1_555 1_555
Zn3 O1 1_555 1_555
Zn4 O2 1_555 1_555
O1 H1 1_555 1_555
O2 Zn1 1_555 1_555
H2 O2 1_555 1_555
O3 Zn3 1_555 1_555
O4 Zn1 1_555 1_555
O5 N5 1_555 1_555
O6 N5 1_555 1_555
O7 C32 1_555 1_555
O8 H3 1_555 1_555
O9 Zn2 1_555 1_555
O10 Zn4 1_555 1_555
O11 H4 1_555 1_555
O12 C40 1_555 1_555
O13 N6 1_555 1_555
O14 N6 1_555 1_555
O15 C47 1_555 1_555
O16 C47 1_555 1_555
O17 N7 1_555 1_555
O18 N7 1_555 1_555
O19 Zn1 1_555 1_555
O20 C48 1_555 1_555
O21 Zn3 1_555 1_555
O22 Zn1 1_555 1_555
O23 N8 1_555 1_555
O24 N8 1_555 1_555
O25 C56 1_555 1_555
O26 C56 1_555 1_555
N1 C1 1_555 1_555
N2 Zn2 1_555 1_555
N3 Zn1 1_555 1_555
N4 C20 1_555 1_555
N5 C27 1_555 1_555
N6 C37 1_555 1_555
N7 C43 1_555 1_555
N8 C51 1_555 1_555
C1 H5 1_555 1_555
C2 C1 1_555 1_555
H6 C2 1_555 1_555
C3 C2 1_555 1_555
C4 C3 1_555 1_555
H7 C4 1_555 1_555
C5 N1 1_555 1_555
H8 C5 1_555 1_555
C6 C3 1_555 1_555
H9 C6 1_555 1_555
C7 C6 1_555 1_555
H10 C7 1_555 1_555
C8 N2 1_555 1_555
H11 C8 1_555 1_555
C9 C8 1_555 1_555
H12 C9 1_555 1_555
C10 C7 1_555 1_555
C11 C10 1_555 1_555
H13 C11 1_555 1_555
C12 N2 1_555 1_555
H14 C12 1_555 1_555
C13 N3 1_555 1_555
H15 C13 1_555 1_555
C14 C13 1_555 1_555
H16 C14 1_555 1_555
C15 C14 1_555 1_555
C16 C15 1_555 1_555
H17 C16 1_555 1_555
C17 N3 1_555 1_555
H18 C17 1_555 1_555
C18 C15 1_555 1_555
H19 C18 1_555 1_555
C19 C18 1_555 1_555
H20 C19 1_555 1_555
C20 H21 1_555 1_555
C21 C20 1_555 1_555
H22 C21 1_555 1_555
C22 C19 1_555 1_555
C23 C22 1_555 1_555
H23 C23 1_555 1_555
C24 N4 1_555 1_555
H24 C24 1_555 1_555
C25 C26 1_555 1_555
C26 H25 1_555 1_555
C27 C26 1_555 1_555
C28 C27 1_555 1_555
H26 C28 1_555 1_555
C29 C28 1_555 1_555
C30 C25 1_555 1_555
H27 C30 1_555 1_555
C31 O3 1_555 1_555
C32 O8 1_555 1_555
C33 C34 1_555 1_555
C34 H28 1_555 1_555
C35 C34 1_555 1_555
C36 C35 1_555 1_555
H29 C36 1_555 1_555
C37 C36 1_555 1_555
C38 C33 1_555 1_555
H30 C38 1_555 1_555
C39 O9 1_555 1_555
C40 O11 1_555 1_555
C41 C42 1_555 1_555
C42 H31 1_555 1_555
C43 C42 1_555 1_555
C44 C43 1_555 1_555
H32 C44 1_555 1_555
C45 C44 1_555 1_555
C46 C41 1_555 1_555
H33 C46 1_555 1_555
C47 C41 1_555 1_555
C48 O19 1_555 1_555
C49 C50 1_555 1_555
C50 H34 1_555 1_555
C51 C50 1_555 1_555
C52 C51 1_555 1_555
H35 C52 1_555 1_555
C53 C52 1_555 1_555
C54 C49 1_555 1_555
H36 C54 1_555 1_555
C55 O21 1_555 1_555
C56 C53 1_555 1_555
Zn2A O16 1_555 1_555
Zn2A_2 O25 1_555 1_555
Zn3A N1 1_555 1_555
Zn4A O15 1_555 1_555
Zn4A_2 N4 1_555 1_555
O15A Zn4 1_555 1_555
O16A Zn2 1_555 1_555
O25A Zn2 1_555 1_555
N1A Zn3 1_555 1_555
N4A Zn4 1_555 1_555
Zn2 O2 1_555 1_555
O4 C31 1_555 1_555
O10 C39 1_555 1_555
O22 C55 1_555 1_555
C4 C5 1_555 1_555
C9 C10 1_555 1_555
C11 C12 1_555 1_555
C16 C17 1_555 1_555
C21 C22 1_555 1_555
C23 C24 1_555 1_555
C25 C31 1_555 1_555
C29 C30 1_555 1_555
C29 C32 1_555 1_555
C33 C39 1_555 1_555
C35 C40 1_555 1_555
C37 C38 1_555 1_555
C45 C46 1_555 1_555
C45 C48 1_555 1_555
C49 C55 1_555 1_555
C53 C54 1_555 1_555

#END
