
#######################################################################
#
#                 Cambridge Crystallographic Data Centre
#                                CCDC 
#
#######################################################################
#
# If this CIF has been generated from an entry in the Cambridge 
# Structural Database, then it will include bibliographic, chemical, 
# crystal, experimental, refinement or atomic coordinate data resulting 
# from the CCDC's data processing and validation procedures.
#
#######################################################################

data_EXAVOP
_symmetry_cell_setting           triclinic
_symmetry_space_group_name_H-M   'P -1'
_symmetry_Int_Tables_number      2
_space_group_name_Hall           '-P 1'
loop_
_symmetry_equiv_pos_site_id
_symmetry_equiv_pos_as_xyz
1 x,y,z
2 -x,-y,-z
_cell_length_a                   10.7801(14)
_cell_length_b                   11.2741(14)
_cell_length_c                   11.6556(15)
_cell_angle_alpha                90.285(2)
_cell_angle_beta                 101.136(2)
_cell_angle_gamma                105.262(2)
_cell_volume                     1338.55
loop_
_atom_site_label
_atom_site_type_symbol
_atom_site_fract_x
_atom_site_fract_y
_atom_site_fract_z
Cu1 Cu 0.56762(4) 0.87129(4) 0.91419(3)
O1 O 0.61713(19) 0.84949(18) 1.08346(17)
O2 O 0.57149(19) 1.01536(18) 1.15393(17)
O3 O 0.6980(2) 1.1129(2) 1.57910(19)
O4 O 0.8554(2) 1.0472(2) 1.67894(19)
O5 O 0.9299(2) 0.6692(2) 1.32594(18)
H1 H 0.9844 0.6295 1.3365
O6 O 1.0293(2) 0.74499(19) 1.50839(18)
O7 O 0.7029(2) 0.73380(19) 0.84900(18)
O8 O 0.56922(19) 0.83214(18) 0.74466(17)
O9 O 0.9025(2) 0.46425(19) 0.64933(18)
O10 O 0.8105(2) 0.4003(2) 0.46232(18)
H2 H 0.8542 0.3506 0.4754
O11 O 0.5002(2) 0.5858(2) 0.24004(18)
O12 O 0.4104(2) 0.7044(2) 0.32326(19)
N1 N 0.7213(2) 1.0211(2) 0.9314(2)
N2 N 1.4110(2) 1.7252(2) 0.9064(2)
C1 C 0.9486(3) 0.7439(3) 1.4178(3)
N3 N 0.4896(2) 0.6428(2) 0.3254(2)
C2 C 0.6223(3) 0.9285(3) 1.1639(3)
C3 C 0.7018(3) 0.9139(3) 1.2819(3)
C4 C 0.6974(3) 0.9836(3) 1.3793(3)
H3 H 0.6426 1.0356 1.3730
C5 C 0.7759(3) 0.9737(3) 1.4851(3)
C6 C 0.8594(3) 0.8981(3) 1.4998(3)
H4 H 0.9123 0.8948 1.5722
C7 C 0.8616(3) 0.8273(3) 1.4030(3)
C8 C 0.7825(3) 0.8352(3) 1.2944(3)
H5 H 0.7840 0.7870 1.2300
N4 N 0.7757(3) 1.0494(3) 1.5891(2)
C9 C 0.6407(3) 0.7578(3) 0.7550(3)
C10 C 0.6475(3) 0.6920(3) 0.6430(3)
C11 C 0.7307(3) 0.6156(3) 0.6482(3)
H6 H 0.7841 0.6088 0.7194
C12 C 0.7355(3) 0.5495(3) 0.5493(3)
C13 C 0.6559(3) 0.5584(3) 0.4423(3)
H7 H 0.6570 0.5140 0.3753
C14 C 0.5751(3) 0.6356(3) 0.4393(3)
C15 C 0.5683(3) 0.7020(3) 0.5366(3)
H8 H 0.5118 0.7524 0.5310
C16 C 0.8239(3) 0.4670(3) 0.5587(3)
C17 C 0.8338(3) 1.0267(3) 1.0076(3)
H9 H 0.8387 0.9591 1.0518
C18 C 0.9418(3) 1.1265(3) 1.0237(3)
H10 H 1.0171 1.1257 1.0779
C19 C 0.9382(3) 1.2295(3) 0.9582(3)
C20 C 0.8217(3) 1.2243(3) 0.8804(3)
H11 H 0.8139 1.2910 0.8357
C21 C 0.7179(3) 1.1207(3) 0.8692(3)
H12 H 0.6413 1.1194 0.8158
C22 C 1.0578(3) 1.3315(3) 0.9691(3)
H13 H 1.1328 1.3237 1.0199
C23 C 1.0671(3) 1.4339(3) 0.9121(3)
H14 H 0.9896 1.4448 0.8680
C24 C 1.2966(3) 1.7186(3) 0.8340(3)
H15 H 1.2927 1.7794 0.7808
C25 C 1.1842(3) 1.6260(3) 0.8348(3)
H16 H 1.1062 1.6262 0.7843
C26 C 1.1878(3) 1.5319(3) 0.9117(2)
C27 C 1.3078(3) 1.5367(3) 0.9836(3)
H17 H 1.3157 1.4748 1.0348
C28 C 1.4148(3) 1.6333(3) 0.9788(3)
H18 H 1.4942 1.6352 1.0283
Cu1A Cu 0.43238(4) 1.12871(4) 1.08581(3)
Cu1_2 Cu 1.56762(4) 1.87129(4) 0.91419(3)
O2A O 0.42851(19) 0.98464(18) 0.84607(17)
N2_2 N 0.4110(2) 0.7252(2) 0.9064(2)
loop_
_geom_bond_atom_site_label_1
_geom_bond_atom_site_label_2
_geom_bond_site_symmetry_1
_geom_bond_site_symmetry_2
Cu1 O1 1_555 1_555
O1 C2 1_555 1_555
O2 C2 1_555 1_555
O3 N4 1_555 1_555
O4 N4 1_555 1_555
O5 H1 1_555 1_555
O6 C1 1_555 1_555
O7 Cu1 1_555 1_555
O8 Cu1 1_555 1_555
O9 C16 1_555 1_555
O10 H2 1_555 1_555
O11 N3 1_555 1_555
O12 N3 1_555 1_555
N1 Cu1 1_555 1_555
N2 C24 1_555 1_555
C1 O5 1_555 1_555
N3 C14 1_555 1_555
C2 C3 1_555 1_555
C3 C4 1_555 1_555
C4 H3 1_555 1_555
C5 C4 1_555 1_555
C6 C5 1_555 1_555
H4 C6 1_555 1_555
C7 C1 1_555 1_555
C8 C3 1_555 1_555
H5 C8 1_555 1_555
N4 C5 1_555 1_555
C9 O7 1_555 1_555
C10 C9 1_555 1_555
C11 C10 1_555 1_555
H6 C11 1_555 1_555
C12 C11 1_555 1_555
C13 C12 1_555 1_555
H7 C13 1_555 1_555
C14 C13 1_555 1_555
C15 C10 1_555 1_555
H8 C15 1_555 1_555
C16 O10 1_555 1_555
C17 N1 1_555 1_555
H9 C17 1_555 1_555
C18 C17 1_555 1_555
H10 C18 1_555 1_555
C19 C18 1_555 1_555
C20 C19 1_555 1_555
H11 C20 1_555 1_555
C21 N1 1_555 1_555
H12 C21 1_555 1_555
C22 C19 1_555 1_555
H13 C22 1_555 1_555
C23 C22 1_555 1_555
H14 C23 1_555 1_555
C24 H15 1_555 1_555
C25 C24 1_555 1_555
H16 C25 1_555 1_555
C26 C23 1_555 1_555
C27 C26 1_555 1_555
H17 C27 1_555 1_555
C28 N2 1_555 1_555
H18 C28 1_555 1_555
Cu1A O2 1_555 1_555
Cu1_2 N2 1_555 1_555
O2A Cu1 1_555 1_555
N2_2 Cu1 1_555 1_555
O8 C9 1_555 1_555
C6 C7 1_555 1_555
C7 C8 1_555 1_555
C12 C16 1_555 1_555
C14 C15 1_555 1_555
C20 C21 1_555 1_555
C25 C26 1_555 1_555
C27 C28 1_555 1_555

#END
