
#######################################################################
#
#                 Cambridge Crystallographic Data Centre
#                                CCDC 
#
#######################################################################
#
# If this CIF has been generated from an entry in the Cambridge 
# Structural Database, then it will include bibliographic, chemical, 
# crystal, experimental, refinement or atomic coordinate data resulting 
# from the CCDC's data processing and validation procedures.
#
#######################################################################

data_EXECUG
_symmetry_cell_setting           triclinic
_symmetry_space_group_name_H-M   'P -1'
_symmetry_Int_Tables_number      2
_space_group_name_Hall           '-P 1'
loop_
_symmetry_equiv_pos_site_id
_symmetry_equiv_pos_as_xyz
1 x,y,z
2 -x,-y,-z
_cell_length_a                   8.0934(18)
_cell_length_b                   8.3792(19)
_cell_length_c                   12.321(3)
_cell_angle_alpha                79.791(4)
_cell_angle_beta                 81.808(4)
_cell_angle_gamma                85.365(4)
_cell_volume                     812.619
loop_
_atom_site_label
_atom_site_type_symbol
_atom_site_fract_x
_atom_site_fract_y
_atom_site_fract_z
U1 U -0.63902(6) -0.28710(6) 0.14224(4)
U2 U -0.21637(6) -0.27134(5) -0.40206(4)
P1 P 0.1081(4) -0.1352(4) -0.6276(3)
P2 P -0.5154(4) -0.3061(4) -0.1538(3)
O1 O -0.5311(12) -0.2417(11) -0.0446(7)
O2 O -0.5499(11) -0.4873(11) -0.1364(8)
O3 O -0.0386(11) -0.3900(11) -0.3528(7)
O4 O -0.7991(11) -0.3942(11) 0.1068(7)
O5 O -0.3453(12) -0.2732(13) -0.2240(8)
O6 O 0.1495(11) -0.1768(11) -0.7457(7)
O8 O 0.1084(13) 0.0431(12) -0.6264(8)
O9 O 0.2700(12) -0.5222(11) -0.4856(8)
O10 O 0.3490(12) -0.4499(11) -0.6645(7)
O11 O -0.0561(12) -0.2050(12) -0.5738(8)
O12 O -0.4816(11) -0.1802(10) 0.1808(8)
O13 O -0.3940(12) -0.1584(11) -0.4534(8)
O14 O -0.7625(13) -0.0250(12) 0.0500(8)
C1 C 0.2780(17) -0.2384(16) -0.5537(12)
H1 H 0.3828 -0.1831 -0.5826
H2 H 0.2517 -0.2320 -0.4736
C2 C -0.6725(18) -0.1944(18) -0.2335(13)
H3 H -0.6383 -0.0821 -0.2615
H4 H -0.6802 -0.2466 -0.2986
C3 C 0.3019(19) -0.4088(18) -0.5676(12)
C4 C -0.8440(19) -0.189(2) -0.1632(12)
O15 O -0.9044(13) -0.0640(13) -0.1333(9)
O16 O -0.9147(14) -0.3286(14) -0.1435(9)
H5 H -0.9996 -0.3246 -0.0959
U1A U -0.36098(6) -0.71290(6) -0.14224(4)
U1_2 U 0.36098(6) -0.28710(6) -0.85776(4)
U2A U 0.21637(6) 0.27134(5) -0.59794(4)
U2A_2 U 0.21637(6) -0.72866(5) -0.59794(4)
O2A O -0.4501(11) -0.5127(11) 0.1364(8)
O6_2 O -0.8505(11) -0.1768(11) 0.2543(7)
O8A O -0.1084(13) -0.0431(12) -0.3736(8)
O9A O -0.2700(12) -0.4778(11) -0.5144(8)
O10_2 O -0.6510(12) -0.4499(11) 0.3355(7)
Rb1 Rb -0.15822(18) -0.35222(18) 0.24434(12)
O7 O -0.1786(12) -0.3242(12) 0.0031(9)
loop_
_geom_bond_atom_site_label_1
_geom_bond_atom_site_label_2
_geom_bond_site_symmetry_1
_geom_bond_site_symmetry_2
U1 O1 1_555 1_555
U2 O3 1_555 1_555
P1 O6 1_555 1_555
P2 O1 1_555 1_555
O2 P2 1_555 1_555
O4 U1 1_555 1_555
O5 U2 1_555 1_555
O6 U1_2 1_555 1_555
O8 P1 1_555 1_555
O9 C3 1_555 1_555
O10 C3 1_555 1_555
O11 U2 1_555 1_555
O12 U1 1_555 1_555
O13 U2 1_555 1_555
O14 U1 1_555 1_555
C1 P1 1_555 1_555
H1 C1 1_555 1_555
H2 C1 1_555 1_555
C2 P2 1_555 1_555
H3 C2 1_555 1_555
H4 C2 1_555 1_555
C3 C1 1_555 1_555
C4 C2 1_555 1_555
O15 C4 1_555 1_555
O16 C4 1_555 1_555
H5 O16 1_555 1_555
U1A O2 1_555 1_555
U1_2 O10 1_555 1_555
U2A O8 1_555 1_555
U2A_2 O9 1_555 1_555
O2A U1 1_555 1_555
O6_2 U1 1_555 1_555
O8A U2 1_555 1_555
O9A U2 1_555 1_555
O10_2 U1 1_555 1_555
P1 O11 1_555 1_555
P2 O5 1_555 1_555

#END
