
#######################################################################
#
#                 Cambridge Crystallographic Data Centre
#                                CCDC 
#
#######################################################################
#
# If this CIF has been generated from an entry in the Cambridge 
# Structural Database, then it will include bibliographic, chemical, 
# crystal, experimental, refinement or atomic coordinate data resulting 
# from the CCDC's data processing and validation procedures.
#
#######################################################################

data_EXEHUK
_symmetry_cell_setting           triclinic
_symmetry_space_group_name_H-M   'P -1'
_symmetry_Int_Tables_number      2
_space_group_name_Hall           '-P 1'
loop_
_symmetry_equiv_pos_site_id
_symmetry_equiv_pos_as_xyz
1 x,y,z
2 -x,-y,-z
_cell_length_a                   9.3701(19)
_cell_length_b                   12.076(2)
_cell_length_c                   12.400(3)
_cell_angle_alpha                88.01(3)
_cell_angle_beta                 85.14(3)
_cell_angle_gamma                73.19(3)
_cell_volume                     1338.24
loop_
_atom_site_label
_atom_site_type_symbol
_atom_site_fract_x
_atom_site_fract_y
_atom_site_fract_z
Ag1 Ag 1.43855(4) 0.15014(3) 0.48919(3)
O1 O 1.6837(4) 0.0136(3) 0.4641(3)
C1 C 1.7576(12) 0.0393(9) 0.3813(8)
C2 C 1.9027(11) -0.0574(8) 0.3464(7)
F1 F 1.9721(18) -0.0207(16) 0.2559(13)
F2 F 1.8754(15) -0.1550(10) 0.3189(13)
F3 F 1.9980(14) -0.0862(14) 0.4214(9)
O2 O 1.7358(8) 0.1339(6) 0.3342(6)
N1 N 1.2930(4) 0.2108(3) 0.3562(3)
C9 C 1.1706(5) 0.1758(4) 0.3480(4)
H1 H 1.1545 0.1166 0.3958
C10 C 1.0674(5) 0.2215(4) 0.2738(4)
H2 H 0.9818 0.1947 0.2713
C11 C 1.0900(5) 0.3069(4) 0.2029(4)
H3 H 1.0206 0.3393 0.1506
C12 C 1.2161(5) 0.3443(4) 0.2094(4)
C13 C 1.3144(5) 0.2932(4) 0.2872(4)
H4 H 1.4011 0.3181 0.2914
C14 C 1.2522(5) 0.4386(4) 0.1412(4)
O6 O 1.3796(4) 0.4494(3) 0.1342(3)
N2 N 1.1374(4) 0.5108(3) 0.0915(3)
H5 H 1.0522 0.4935 0.0940
C15 C 1.1478(4) 0.6137(4) 0.0352(3)
C16 C 1.0519(5) 0.7185(4) 0.0692(4)
H6 H 0.9803 0.7205 0.1287
C17 C 1.0587(5) 0.8208(4) 0.0178(4)
H7 H 0.9911 0.8923 0.0414
C18 C 1.1646(5) 0.8186(4) -0.0683(4)
H8 H 1.1716 0.8887 -0.1024
C19 C 1.2599(5) 0.7135(4) -0.1043(4)
H9 H 1.3315 0.7119 -0.1637
C20 C 1.2517(4) 0.6101(4) -0.0544(3)
N3 N 1.3482(4) 0.5047(3) -0.0966(3)
H10 H 1.4446 0.4891 -0.0893
C21 C 1.2996(5) 0.4274(4) -0.1470(4)
C22 C 1.4173(5) 0.3280(4) -0.1976(4)
C23 C 1.5570(6) 0.2807(5) -0.1588(5)
H11 H 1.5830 0.3100 -0.0955
C24 C 1.6565(7) 0.1905(7) -0.2141(6)
H12 H 1.7517 0.1547 -0.1880
C25 C 1.6177(6) 0.1518(5) -0.3086(5)
H13 H 1.6884 0.0905 -0.3470
N4 N 1.4831(5) 0.1983(4) -0.3474(3)
C26 C 1.3855(5) 0.2827(4) -0.2909(4)
H14 H 1.2886 0.3137 -0.3159
O7 O 1.1665(3) 0.4382(3) -0.1556(3)
O1A O 1.3163(4) -0.0136(3) 0.5359(3)
N4_2 N 1.4831(5) 0.1983(4) 0.6526(3)
Ag1A Ag 1.56145(4) -0.15014(3) 0.51081(3)
Ag1_2 Ag 1.43855(4) 0.15014(3) -0.51081(3)
C28 C 1.725(3) 0.3449(16) 0.4904(11)
H17 H 1.8274 0.2906 0.4861
H18 H 1.6547 0.2979 0.4882
Cl2 Cl 1.7102(14) 0.4256(10) 0.3826(9)
Cl3 Cl 1.6941(10) 0.4100(7) 0.6145(7)
C30 C 1.070(3) 0.444(2) 0.536(2)
H21 H 1.1019 0.5080 0.5616
H23 H 1.1571 0.3753 0.5261
O8 O 0.965(3) 0.418(2) 0.613(2)
H24 H 0.8888 0.4176 0.5822
C3? C 1.7576(12) 0.0393(9) 0.3813(8)
C4? C 1.9027(11) -0.0574(8) 0.3464(7)
F4? F 2.0029(14) -0.0474(13) 0.4115(11)
F5? F 1.882(2) -0.1640(13) 0.3624(19)
F6? F 1.9510(16) -0.0542(13) 0.2437(9)
O3? O 1.7358(8) 0.1339(6) 0.3342(6)
C5? C 1.734(2) 0.0298(17) 0.3700(16)
F7? F 1.903(3) -0.1611(17) 0.378(2)
F8? F 1.999(2) -0.029(2) 0.308(2)
F9? F 1.833(2) -0.0807(18) 0.2297(14)
C6? C 1.8735(15) -0.0591(11) 0.3279(11)
O4? O 1.6925(13) 0.1088(10) 0.3048(10)
C7? C 1.734(2) 0.0298(17) 0.3700(16)
C8? C 1.8735(15) -0.0591(11) 0.3279(11)
F10? F 1.839(3) -0.129(2) 0.267(2)
F11? F 1.991(3) -0.032(3) 0.272(3)
F12? F 1.952(3) -0.129(2) 0.4056(15)
O5? O 1.6925(13) 0.1088(10) 0.3048(10)
Cl1? Cl 1.3549(7) 1.0780(6) 0.0158(6)
C27? C 1.5261(19) 1.036(2) 0.0717(18)
H15? H 1.5152 1.0065 0.1465
H16? H 1.5688 1.1019 0.0731
C29? C 1.725(3) 0.3449(16) 0.4904(11)
H19? H 1.8133 0.2909 0.4517
H20? H 1.6636 0.2965 0.5233
Cl4? Cl 1.6236(18) 0.4234(13) 0.3906(11)
Cl5? Cl 1.797(2) 0.3951(17) 0.6017(14)
H22? H 1.0251 0.4650 0.4672
O9? O 1.070(3) 0.444(2) 0.536(2)
H25? H 1.0367 0.4513 0.4748
C31? C 0.965(3) 0.418(2) 0.613(2)
H26? H 0.9481 0.4709 0.6741
H27? H 1.0028 0.3383 0.6382
H28? H 0.8709 0.4284 0.5795
loop_
_geom_bond_atom_site_label_1
_geom_bond_atom_site_label_2
_geom_bond_site_symmetry_1
_geom_bond_site_symmetry_2
Ag1 O1 1_555 1_555
O1 C1 1_555 1_555
C1 C2 1_555 1_555
C2 F1 1_555 1_555
F2 C2 1_555 1_555
F3 C2 1_555 1_555
O2 C1 1_555 1_555
N1 Ag1 1_555 1_555
C9 N1 1_555 1_555
H1 C9 1_555 1_555
C10 C9 1_555 1_555
H2 C10 1_555 1_555
C11 C10 1_555 1_555
H3 C11 1_555 1_555
C12 C11 1_555 1_555
C13 N1 1_555 1_555
H4 C13 1_555 1_555
C14 C12 1_555 1_555
O6 C14 1_555 1_555
N2 C14 1_555 1_555
H5 N2 1_555 1_555
C15 N2 1_555 1_555
C16 C15 1_555 1_555
H6 C16 1_555 1_555
C17 C16 1_555 1_555
H7 C17 1_555 1_555
C18 C17 1_555 1_555
H8 C18 1_555 1_555
C19 C18 1_555 1_555
H9 C19 1_555 1_555
C20 C15 1_555 1_555
N3 C20 1_555 1_555
H10 N3 1_555 1_555
C21 N3 1_555 1_555
C22 C21 1_555 1_555
C23 C22 1_555 1_555
H11 C23 1_555 1_555
C24 C23 1_555 1_555
H12 C24 1_555 1_555
C25 C24 1_555 1_555
H13 C25 1_555 1_555
N4 C25 1_555 1_555
C26 C22 1_555 1_555
H14 C26 1_555 1_555
O7 C21 1_555 1_555
C28 H17 1_555 1_555
H18 C28 1_555 1_555
Cl2 C28 1_555 1_555
Cl3 C28 1_555 1_555
C30 H21 1_555 1_555
H23 C30 1_555 1_555
O8 C30 1_555 1_555
H24 O8 1_555 1_555
O1A Ag1 1_555 1_555
N4_2 Ag1 1_555 1_555
Ag1A O1 1_555 1_555
Ag1_2 N4 1_555 1_555
C12 C13 1_555 1_555
C19 C20 1_555 1_555
N4 C26 1_555 1_555
O1A Ag1A 1_555 1_555

#END
