
#######################################################################
#
#                 Cambridge Crystallographic Data Centre
#                                CCDC 
#
#######################################################################
#
# If this CIF has been generated from an entry in the Cambridge 
# Structural Database, then it will include bibliographic, chemical, 
# crystal, experimental, refinement or atomic coordinate data resulting 
# from the CCDC's data processing and validation procedures.
#
#######################################################################

data_EXEHEV02
_symmetry_cell_setting           triclinic
_symmetry_space_group_name_H-M   'P 1'
_symmetry_Int_Tables_number      1
_space_group_name_Hall           'P 1'
loop_
_symmetry_equiv_pos_site_id
_symmetry_equiv_pos_as_xyz
1 x,y,z
_cell_length_a                   7.3145(15)
_cell_length_b                   11.194(2)
_cell_length_c                   11.442(2)
_cell_angle_alpha                72.48(3)
_cell_angle_beta                 73.78(3)
_cell_angle_gamma                83.39(3)
_cell_volume                     857.342
loop_
_atom_site_label
_atom_site_type_symbol
_atom_site_fract_x
_atom_site_fract_y
_atom_site_fract_z
Zn1 Zn 0.26660(6) 0.49460(4) 0.10360(4)
O1 O 0.2484(4) 0.5894(3) 0.2454(2)
H1 H 0.3105 0.5492 0.2948
H2 H 0.1385 0.5866 0.2896
O2 O 0.5014(4) 0.3840(3) 0.1327(3)
H3 H 0.5646 0.3899 0.1796
H4 H 0.5782 0.3866 0.0644
O3 O 0.1013(4) 0.3511(2) 0.2339(2)
H5 H -0.0112 0.3745 0.2470
H6 H 0.1137 0.2910 0.2050
O4 O 0.2890(4) 0.4201(2) -0.0455(2)
H7 H 0.3069 0.3439 -0.0221
H8 H 0.1905 0.4364 -0.0690
O5 O 0.0292(3) 0.6121(2) 0.0696(2)
H9 H -0.0502 0.6090 0.1371
H10 H -0.0244 0.6011 0.0198
O6 O 0.4489(4) 0.6480(3) -0.0143(3)
H11 H 0.5634 0.6309 -0.0248
H12 H 0.4220 0.6846 0.0408
Zn2 Zn 0.27207(5) 0.48132(3) 0.60603(3)
S1 S -0.13899(11) 0.49665(7) 0.83008(7)
S2 S 0.68192(11) 0.48626(7) 0.36867(7)
O7 O 0.4750(3) 0.5165(2) 0.4130(2)
O8 O 0.7607(4) 0.4213(3) 0.4774(2)
O9 O 0.7820(4) 0.6034(2) 0.2966(2)
O10 O 0.7083(4) 0.4044(2) 0.2854(2)
O11 O 0.0425(4) 0.5432(2) 0.5116(2)
H13 H -0.0285 0.5798 0.5600
H14 H 0.0138 0.4854 0.4908
O12 O 0.4972(4) 0.4138(2) 0.6959(2)
H15 H 0.4857 0.4312 0.7624
H16 H 0.5808 0.4049 0.6340
O13 O 0.0677(3) 0.4612(2) 0.7906(2)
O14 O -0.2040(4) 0.5714(3) 0.7192(3)
O15 O -0.1651(4) 0.5712(3) 0.9197(2)
O16 O -0.2481(4) 0.3825(3) 0.8928(3)
N1 N 0.2481(4) 0.2985(2) 0.6077(3)
N2 N 0.3007(4) -0.3328(2) 0.5966(3)
C1 C 0.2785(6) -0.2384(3) 0.4967(3)
H17 H 0.2704 -0.2573 0.4245
C2 C 0.2671(6) -0.1136(3) 0.4958(3)
H18 H 0.2491 -0.0508 0.4249
C3 C 0.2827(5) -0.0833(3) 0.6007(3)
C4 C 0.3150(6) -0.1817(3) 0.7028(3)
H19 H 0.3312 -0.1656 0.7743
C5 C 0.3226(6) -0.3035(3) 0.6957(3)
H20 H 0.3442 -0.3683 0.7642
C6 C 0.2525(6) 0.2689(3) 0.5025(3)
H21 H 0.2485 0.3333 0.4295
C7 C 0.2628(7) 0.1468(3) 0.4973(3)
H22 H 0.2695 0.1300 0.4214
C8 C 0.2630(5) 0.0495(3) 0.6055(3)
C9 C 0.2517(6) 0.0801(3) 0.7158(3)
H23 H 0.2488 0.0175 0.7912
C10 C 0.2447(6) 0.2048(3) 0.7126(3)
H24 H 0.2372 0.2243 0.7873
Zn2_2 Zn 0.27207(5) -0.51868(3) 0.60603(3)
N2_2 N 0.3007(4) 0.6672(2) 0.5966(3)
Zn3 Zn 0.77545(5) 0.98779(3) 0.07362(3)
S3 S 0.32821(11) 1.08110(8) 0.12147(7)
O17 O 0.5308(4) 1.0959(2) 0.1039(3)
O18 O 0.2716(4) 1.1632(3) 0.0092(2)
O19 O 0.2178(4) 1.1161(3) 0.2342(2)
O20 O 0.2942(4) 0.9492(2) 0.1367(3)
O21 O 0.9190(4) 1.1531(2) -0.0035(2)
H25 H 0.9876 1.1569 0.0409
H26 H 0.8700 1.2207 -0.0344
O22 O 0.6182(4) 0.8122(2) 0.1422(2)
H27 H 0.5100 0.8432 0.1480
H28 H 0.6411 0.7592 0.2042
O23 O 1.0358(4) 0.8808(2) 0.0465(2)
H29 H 1.0330 0.8210 0.1094
H30 H 1.1251 0.9249 0.0344
N3 N 0.7851(4) 0.9808(3) 0.2634(3)
N4 N 0.7607(4) 0.9896(3) 0.8878(2)
C11 C 0.8093(6) 0.8769(3) 0.3535(4)
H31 H 0.8312 0.8014 0.3327
C12 C 0.8040(6) 0.8744(3) 0.4752(4)
H32 H 0.8194 0.7986 0.5344
C13 C 0.7754(5) 0.9857(3) 0.5097(3)
C14 C 0.7506(6) 1.0941(3) 0.4161(3)
H33 H 0.7306 1.1711 0.4337
C15 C 0.7555(6) 1.0873(3) 0.2973(3)
H34 H 0.7373 1.1613 0.2368
C16 C 0.7312(6) 1.0944(3) 0.8000(3)
H35 H 0.7071 1.1692 0.8222
C17 C 0.7350(6) 1.0969(3) 0.6773(3)
H36 H 0.7148 1.1725 0.6194
C18 C 0.7688(5) 0.9873(3) 0.6405(3)
C19 C 0.7969(5) 0.8790(3) 0.7327(3)
H37 H 0.8186 0.8025 0.7138
C20 C 0.7926(5) 0.8838(3) 0.8526(3)
H38 H 0.8131 0.8095 0.9121
Zn3_2 Zn 0.77545(5) 0.98779(3) 1.07362(3)
N4_2 N 0.7607(4) 0.9896(3) -0.1122(2)
loop_
_geom_bond_atom_site_label_1
_geom_bond_atom_site_label_2
_geom_bond_site_symmetry_1
_geom_bond_site_symmetry_2
Zn1 O1 1_555 1_555
O1 H1 1_555 1_555
H2 O1 1_555 1_555
O2 Zn1 1_555 1_555
H3 O2 1_555 1_555
H4 O2 1_555 1_555
O3 Zn1 1_555 1_555
H5 O3 1_555 1_555
H6 O3 1_555 1_555
O4 Zn1 1_555 1_555
H7 O4 1_555 1_555
H8 O4 1_555 1_555
O5 Zn1 1_555 1_555
H9 O5 1_555 1_555
H10 O5 1_555 1_555
O6 Zn1 1_555 1_555
H11 O6 1_555 1_555
H12 O6 1_555 1_555
Zn2 O7 1_555 1_555
S1 O13 1_555 1_555
S2 O7 1_555 1_555
O8 S2 1_555 1_555
O9 S2 1_555 1_555
O10 S2 1_555 1_555
O11 Zn2 1_555 1_555
H13 O11 1_555 1_555
H14 O11 1_555 1_555
O12 Zn2 1_555 1_555
H15 O12 1_555 1_555
H16 O12 1_555 1_555
O13 Zn2 1_555 1_555
O14 S1 1_555 1_555
O15 S1 1_555 1_555
O16 S1 1_555 1_555
N1 Zn2 1_555 1_555
N2 C1 1_555 1_555
C1 H17 1_555 1_555
C2 C1 1_555 1_555
H18 C2 1_555 1_555
C3 C2 1_555 1_555
C4 C3 1_555 1_555
H19 C4 1_555 1_555
C5 N2 1_555 1_555
H20 C5 1_555 1_555
C6 N1 1_555 1_555
H21 C6 1_555 1_555
C7 C6 1_555 1_555
H22 C7 1_555 1_555
C8 C3 1_555 1_555
C9 C8 1_555 1_555
H23 C9 1_555 1_555
C10 N1 1_555 1_555
H24 C10 1_555 1_555
Zn3 O17 1_555 1_555
S3 O17 1_555 1_555
O18 S3 1_555 1_555
O19 S3 1_555 1_555
O20 S3 1_555 1_555
O21 Zn3 1_555 1_555
H25 O21 1_555 1_555
H26 O21 1_555 1_555
O22 Zn3 1_555 1_555
H27 O22 1_555 1_555
H28 O22 1_555 1_555
O23 Zn3 1_555 1_555
H29 O23 1_555 1_555
H30 O23 1_555 1_555
N3 Zn3 1_555 1_555
N4 C16 1_555 1_555
C11 N3 1_555 1_555
H31 C11 1_555 1_555
C12 C11 1_555 1_555
H32 C12 1_555 1_555
C13 C12 1_555 1_555
C14 C13 1_555 1_555
H33 C14 1_555 1_555
C15 N3 1_555 1_555
H34 C15 1_555 1_555
C16 H35 1_555 1_555
C17 C16 1_555 1_555
H36 C17 1_555 1_555
C18 C13 1_555 1_555
C19 C18 1_555 1_555
H37 C19 1_555 1_555
C20 N4 1_555 1_555
H38 C20 1_555 1_555
Zn2_2 N2 1_555 1_555
N2_2 Zn2 1_555 1_555
Zn3_2 N4 1_555 1_555
N4_2 Zn3 1_555 1_555
C4 C5 1_555 1_555
C7 C8 1_555 1_555
C9 C10 1_555 1_555
C14 C15 1_555 1_555
C17 C18 1_555 1_555
C19 C20 1_555 1_555

#END
