
#######################################################################
#
#                 Cambridge Crystallographic Data Centre
#                                CCDC 
#
#######################################################################
#
# If this CIF has been generated from an entry in the Cambridge 
# Structural Database, then it will include bibliographic, chemical, 
# crystal, experimental, refinement or atomic coordinate data resulting 
# from the CCDC's data processing and validation procedures.
#
#######################################################################

data_EXEHEV01
_symmetry_cell_setting           triclinic
_symmetry_space_group_name_H-M   'P 1'
_symmetry_Int_Tables_number      1
_space_group_name_Hall           'P 1'
loop_
_symmetry_equiv_pos_site_id
_symmetry_equiv_pos_as_xyz
1 x,y,z
_cell_length_a                   7.3071(5)
_cell_length_b                   11.1867(7)
_cell_length_c                   11.4495(7)
_cell_angle_alpha                72.436(3)
_cell_angle_beta                 73.911(3)
_cell_angle_gamma                83.398(3)
_cell_volume                     856.827
loop_
_atom_site_label
_atom_site_type_symbol
_atom_site_fract_x
_atom_site_fract_y
_atom_site_fract_z
Zn1 Zn 0.83803(5) 0.83005(3) 0.31670(3)
S1 S 0.39072(11) 0.92329(8) 0.36461(8)
O1 O 0.5944(3) 0.9381(2) 0.3466(3)
O2 O 0.2797(4) 0.9583(3) 0.4772(2)
O3 O 0.3343(4) 1.0056(2) 0.2524(2)
O4 O 0.3573(4) 0.7912(2) 0.3799(3)
O5 O 0.6806(4) 0.6543(2) 0.3850(2)
H1 H 0.5621 0.6707 0.4096
H2 H 0.6962 0.5984 0.4511
O6 O 1.0991(3) 0.7228(2) 0.2901(3)
H3 H 1.1791 0.7509 0.3160
H4 H 1.1097 0.6437 0.3027
O7 O 0.9822(4) 0.9952(2) 0.2403(3)
H5 H 0.9087 1.0543 0.2111
H6 H 1.0952 1.0030 0.2430
N1 N 0.8485(4) 0.8230(3) 0.5064(3)
N2 N 0.8236(4) 0.8314(3) 1.1307(3)
C1 C 0.8185(6) 0.9288(3) 0.5400(4)
H7 H 0.7999 1.0028 0.4795
C2 C 0.8134(6) 0.9356(3) 0.6587(3)
H8 H 0.7938 1.0129 0.6757
C3 C 0.8372(5) 0.8279(3) 0.7538(3)
C4 C 0.8658(6) 0.7156(4) 0.7183(4)
H9 H 0.8813 0.6395 0.7772
C5 C 0.8707(6) 0.7186(4) 0.5975(4)
H10 H 0.8909 0.6429 0.5770
C6 C 0.7924(6) 0.9362(4) 1.0432(4)
H11 H 0.7658 1.0108 1.0657
C7 C 0.7980(6) 0.9388(4) 0.9206(4)
H12 H 0.7788 1.0146 0.8626
C8 C 0.8317(5) 0.8299(3) 0.8835(3)
C9 C 0.8595(5) 0.7204(3) 0.9759(3)
H13 H 0.8809 0.6439 0.9570
C10 C 0.8552(5) 0.7258(3) 1.0958(4)
H14 H 0.8755 0.6515 1.1555
Zn1_2 Zn 0.83803(5) 0.83005(3) 1.31670(3)
N2_2 N 0.8236(4) 0.8314(3) 0.1307(3)
Zn2 Zn 0.33479(5) 0.32342(3) 0.84937(3)
S2 S 0.74475(11) 0.32833(7) 0.61192(7)
S3 S -0.07614(11) 0.33861(8) 1.07345(7)
O8 O 0.7709(3) 0.2466(2) 0.5288(2)
O9 O 0.8454(4) 0.4453(2) 0.5404(2)
O10 O 0.8233(3) 0.2640(3) 0.7206(2)
O11 O 0.5381(3) 0.3584(2) 0.6564(2)
O12 O 0.1307(3) 0.3031(2) 1.0339(2)
O13 O -0.1414(4) 0.4140(3) 0.9626(3)
O14 O -0.1842(4) 0.2241(3) 1.1358(3)
O15 O -0.1027(4) 0.4131(3) 1.1628(2)
O16 O 0.1062(3) 0.3848(2) 0.7548(2)
H15 H 0.0133 0.4150 0.8020
H16 H 0.0322 0.3410 0.7399
O17 O 0.5584(3) 0.2562(2) 0.9396(2)
H17 H 0.6642 0.2618 0.8838
H18 H 0.6158 0.2823 0.9819
N3 N 0.3116(4) 0.1404(3) 0.8507(3)
N4 N 0.3629(4) -0.4910(3) 0.8401(3)
C11 C 0.3164(6) 0.1105(3) 0.7460(3)
H19 H 0.3132 0.1753 0.6730
C12 C 0.3260(6) -0.0109(3) 0.7395(4)
H20 H 0.3315 -0.0272 0.6636
C13 C 0.3271(5) -0.1091(3) 0.8485(3)
C14 C 0.3139(6) -0.0774(3) 0.9583(4)
H21 H 0.3086 -0.1400 1.0340
C15 C 0.3087(5) 0.0466(3) 0.9556(3)
H22 H 0.3029 0.0658 1.0301
C16 C 0.3398(5) -0.3963(3) 0.7401(3)
H23 H 0.3298 -0.4150 0.6683
C17 C 0.3302(6) -0.2724(3) 0.7393(4)
H24 H 0.3142 -0.2094 0.6679
C18 C 0.3444(5) -0.2414(3) 0.8443(3)
C19 C 0.3777(6) -0.3397(3) 0.9459(4)
H25 H 0.3949 -0.3235 1.0171
C20 C 0.3848(6) -0.4612(3) 0.9392(4)
H26 H 0.4062 -0.5260 1.0078
Zn2_2 Zn 0.33479(5) -0.67658(3) 0.84937(3)
N4_2 N 0.3629(4) 0.5090(3) 0.8401(3)
Zn3 Zn 0.32898(5) 0.33679(4) 0.34694(4)
O18 O 0.5125(4) 0.4901(3) 0.2294(3)
H27 H 0.6270 0.4624 0.2114
H28 H 0.5190 0.5429 0.2681
O19 O 0.3114(4) 0.4318(3) 0.4883(2)
H29 H 0.3716 0.3884 0.5416
H30 H 0.2127 0.4185 0.5503
O20 O 0.1640(4) 0.1941(2) 0.4771(3)
H31 H 0.1914 0.1275 0.4538
H32 H 0.0445 0.1854 0.4954
O21 O 0.3512(4) 0.2624(2) 0.1977(2)
H33 H 0.3480 0.1829 0.2252
H34 H 0.2478 0.2652 0.1764
O22 O 0.5644(4) 0.2264(3) 0.3762(3)
H35 H 0.6183 0.2543 0.4192
H36 H 0.6468 0.2040 0.3173
O23 O 0.0922(3) 0.4543(2) 0.3126(2)
H37 H 0.0219 0.4173 0.2873
H38 H 0.0101 0.4591 0.3803
loop_
_geom_bond_atom_site_label_1
_geom_bond_atom_site_label_2
_geom_bond_site_symmetry_1
_geom_bond_site_symmetry_2
Zn1 O1 1_555 1_555
S1 O1 1_555 1_555
O2 S1 1_555 1_555
O3 S1 1_555 1_555
O4 S1 1_555 1_555
O5 Zn1 1_555 1_555
H1 O5 1_555 1_555
H2 O5 1_555 1_555
O6 Zn1 1_555 1_555
H3 O6 1_555 1_555
H4 O6 1_555 1_555
O7 Zn1 1_555 1_555
H5 O7 1_555 1_555
H6 O7 1_555 1_555
N1 Zn1 1_555 1_555
N2 C6 1_555 1_555
C1 N1 1_555 1_555
H7 C1 1_555 1_555
C2 C1 1_555 1_555
H8 C2 1_555 1_555
C3 C2 1_555 1_555
C4 C3 1_555 1_555
H9 C4 1_555 1_555
C5 N1 1_555 1_555
H10 C5 1_555 1_555
C6 H11 1_555 1_555
C7 C6 1_555 1_555
H12 C7 1_555 1_555
C8 C3 1_555 1_555
C9 C8 1_555 1_555
H13 C9 1_555 1_555
C10 N2 1_555 1_555
H14 C10 1_555 1_555
Zn2 O11 1_555 1_555
S2 O8 1_555 1_555
S3 O12 1_555 1_555
O9 S2 1_555 1_555
O10 S2 1_555 1_555
O11 S2 1_555 1_555
O12 Zn2 1_555 1_555
O13 S3 1_555 1_555
O14 S3 1_555 1_555
O15 S3 1_555 1_555
O16 Zn2 1_555 1_555
H15 O16 1_555 1_555
H16 O16 1_555 1_555
O17 Zn2 1_555 1_555
H17 O17 1_555 1_555
H18 O17 1_555 1_555
N3 Zn2 1_555 1_555
N4 C16 1_555 1_555
C11 N3 1_555 1_555
H19 C11 1_555 1_555
C12 C11 1_555 1_555
H20 C12 1_555 1_555
C13 C12 1_555 1_555
C14 C13 1_555 1_555
H21 C14 1_555 1_555
C15 N3 1_555 1_555
H22 C15 1_555 1_555
C16 H23 1_555 1_555
C17 C16 1_555 1_555
H24 C17 1_555 1_555
C18 C13 1_555 1_555
C19 C18 1_555 1_555
H25 C19 1_555 1_555
C20 N4 1_555 1_555
H26 C20 1_555 1_555
Zn3 O18 1_555 1_555
O18 H27 1_555 1_555
H28 O18 1_555 1_555
O19 Zn3 1_555 1_555
H29 O19 1_555 1_555
H30 O19 1_555 1_555
O20 Zn3 1_555 1_555
H31 O20 1_555 1_555
H32 O20 1_555 1_555
O21 Zn3 1_555 1_555
H33 O21 1_555 1_555
H34 O21 1_555 1_555
O22 Zn3 1_555 1_555
H35 O22 1_555 1_555
H36 O22 1_555 1_555
O23 Zn3 1_555 1_555
H37 O23 1_555 1_555
H38 O23 1_555 1_555
Zn1_2 N2 1_555 1_555
N2_2 Zn1 1_555 1_555
Zn2_2 N4 1_555 1_555
N4_2 Zn2 1_555 1_555
C4 C5 1_555 1_555
C7 C8 1_555 1_555
C9 C10 1_555 1_555
C14 C15 1_555 1_555
C17 C18 1_555 1_555
C19 C20 1_555 1_555

#END
