
#######################################################################
#
#                 Cambridge Crystallographic Data Centre
#                                CCDC 
#
#######################################################################
#
# If this CIF has been generated from an entry in the Cambridge 
# Structural Database, then it will include bibliographic, chemical, 
# crystal, experimental, refinement or atomic coordinate data resulting 
# from the CCDC's data processing and validation procedures.
#
#######################################################################

data_EXEHAR
_symmetry_cell_setting           monoclinic
_symmetry_space_group_name_H-M   'C c'
_symmetry_Int_Tables_number      9
_space_group_name_Hall           'C -2yc'
loop_
_symmetry_equiv_pos_site_id
_symmetry_equiv_pos_as_xyz
1 x,y,z
2 x,-y,1/2+z
3 1/2+x,1/2+y,z
4 1/2+x,1/2-y,1/2+z
_cell_length_a                   14.644(3)
_cell_length_b                   13.655(3)
_cell_length_c                   17.683(4)
_cell_angle_alpha                90
_cell_angle_beta                 111.63(3)
_cell_angle_gamma                90
_cell_volume                     3286.97
loop_
_atom_site_label
_atom_site_type_symbol
_atom_site_fract_x
_atom_site_fract_y
_atom_site_fract_z
Cd1 Cd -0.00577(5) 0.12543(5) 0.44565(4)
Cd2 Cd -0.21683(5) 0.47475(5) 0.07541(4)
Cd3 Cd 0.27874(5) 0.74102(5) 0.57629(4)
Na1 Na 0.0386(3) 0.1676(3) 0.6437(3)
Na2 Na 0.6555(4) 0.4498(4) 0.8488(3)
O1 O -0.3257(6) 0.6145(6) 0.0679(5)
O2 O -0.3723(6) 0.5140(6) -0.0365(5)
O3 O 0.1097(7) 0.2469(7) 0.4496(6)
O4 O 0.1475(7) 0.1657(7) 0.5649(5)
O5 O -0.5849(7) 0.8616(6) 0.0779(5)
O6 O 0.4903(6) 0.4184(6) 0.8145(5)
O7 O 0.3762(6) 0.3163(7) 0.8216(5)
O8 O -0.5893(6) 0.6788(7) -0.3047(5)
O9 O -0.0660(7) 0.5276(7) 0.2041(5)
O10 O 0.1665(7) 0.6058(7) 0.5844(5)
O11 O 0.4801(6) 0.5406(6) 0.5528(5)
O12 O -0.1928(6) 0.4447(6) 0.2087(4)
O13 O 0.3562(7) 0.5126(7) 0.4390(5)
O14 O -0.7042(6) 0.8976(6) -0.0378(5)
O15 O -0.0854(7) 0.2454(5) 0.5059(5)
O16 O 0.1815(6) 0.6527(6) 0.4707(5)
O17 O -0.1525(7) 0.3729(6) 0.5397(6)
O18 O -0.7069(7) 0.7705(8) -0.2944(5)
C1 C 0.0633(7) 0.5292(7) 0.4616(6)
C2 C -0.6261(7) 0.8510(7) 0.0025(6)
C3 C 0.3640(8) 0.3694(7) 0.6891(6)
C4 C 0.2751(8) 0.3741(7) 0.5203(6)
H1 H 0.2432 0.3778 0.4642
C5 C 0.4134(7) 0.3678(6) 0.7805(6)
C6 C -0.6300(8) 0.7223(7) -0.2630(6)
C7 C 0.3997(7) 0.4332(7) 0.6443(6)
H2 H 0.4528 0.4738 0.6712
C8 C -0.0585(7) 0.4749(7) 0.3340(6)
C9 C -0.0516(6) 0.4036(6) 0.4614(6)
C10 C -0.1078(8) 0.4833(6) 0.2427(6)
C11 C -0.5067(7) 0.7205(7) -0.0022(6)
H3 H -0.4795 0.7211 0.0543
C12 C -0.5876(7) 0.7186(6) -0.1714(6)
C13 C -0.3841(7) 0.5919(7) -0.0023(6)
C14 C -0.5084(7) 0.6549(7) -0.1301(6)
H4 H -0.4840 0.6126 -0.1593
C15 C -0.5839(8) 0.7815(7) -0.0423(6)
C16 C 0.2875(8) 0.3055(7) 0.6496(6)
H5 H 0.2661 0.2613 0.6795
C17 C 0.3565(7) 0.4361(7) 0.5603(6)
C18 C -0.4679(7) 0.6561(6) -0.0463(6)
C19 C 0.2427(7) 0.3079(7) 0.5647(6)
C20 C 0.3972(9) 0.5007(7) 0.5129(7)
C21 C -0.6236(8) 0.7796(7) -0.1273(6)
H6 H -0.6758 0.8209 -0.1548
C22 C 0.0250(8) 0.4626(7) 0.5037(6)
H7 H 0.0522 0.4593 0.5602
C23 C 0.1624(7) 0.2363(8) 0.5235(6)
C24 C -0.0987(7) 0.3341(7) 0.5047(6)
C25 C -0.0939(6) 0.4083(6) 0.3768(6)
H8 H -0.1459 0.3670 0.3487
C26 C 0.0212(7) 0.5345(7) 0.3772(6)
H9 H 0.0462 0.5782 0.3494
C27 C 0.1412(8) 0.5994(7) 0.5090(6)
O19 O 0.1558(7) 0.0996(7) 0.7683(6)
H10 H 0.2106 0.0834 0.7706
H11 H 0.1590 0.1546 0.7878
O20 O 0.0638(8) 0.3320(7) 0.6803(6)
H12 H 0.1110 0.3238 0.7229
H13 H 0.0370 0.3849 0.6795
O21 O 0.6493(11) 0.3929(8) 0.7250(7)
H14 H 0.6206 0.4131 0.6786
H15 H 0.6730 0.3384 0.7255
Cd1C Cd 0.49423(5) 0.37457(5) 0.94565(4)
Cd1B Cd 0.49423(5) 0.62543(5) 0.44565(4)
Cd2B Cd -0.71683(5) 0.97475(5) 0.07541(4)
Cd2A Cd -0.21683(5) 0.52525(5) 0.57541(4)
Cd3C Cd -0.22126(5) 0.75898(5) 0.07629(4)
Cd3_2 Cd -0.72126(5) 0.74102(5) -0.42371(4)
Cd3B Cd -0.22126(5) 0.24102(5) 0.57629(4)
Na1B Na -0.4614(3) 0.6676(3) -0.3563(3)
Na1B_2 Na 0.5386(3) 0.6676(3) 0.6437(3)
Na2_2 Na -0.3445(4) 0.4498(4) -0.1512(3)
Na2B Na -0.8445(4) 0.9498(4) -0.1512(3)
Na2B_2 Na 0.1555(4) -0.0502(4) 0.8488(3)
O1C O 0.1743(6) 0.8855(6) 0.5679(5)
O2_2 O 0.6277(6) 0.5140(6) 0.9635(5)
O5B O -0.0849(7) 0.3616(6) 0.0779(5)
O6C O -0.0097(6) 0.0816(6) 0.3145(5)
O7C O -0.1238(6) 0.1837(7) 0.3216(5)
O8_2 O 0.4107(6) 0.6788(7) 0.6953(5)
O8B O -0.0893(6) 0.1788(7) 0.6953(5)
O11B O -0.0199(6) 0.0406(6) 0.5528(5)
O13B O -0.1438(7) 0.0126(7) 0.4390(5)
O14B O -0.2042(6) 0.3976(6) -0.0378(5)
O14B_2 O 0.7958(6) 0.3976(6) 0.9622(5)
O17A O -0.1525(7) 0.6271(6) 0.0397(6)
O17B O 0.3475(7) 0.8729(6) 0.5397(6)
O18_2 O 0.2931(7) 0.7705(8) 0.7056(5)
O19B O 0.6558(7) 0.5996(7) 0.7683(6)
H10B H 0.7106 0.5834 0.7706
H11B H 0.6590 0.6546 0.7878
O22 O -0.2998(6) 0.2129(7) 0.3305(6)
H16 H -0.3420 0.2140 0.3507
H17 H -0.2462 0.2114 0.3680
N1 N 0.1118(8) 0.5890(11) 0.7168(7)
H18 H 0.0607 0.5472 0.7012
H19 H 0.1210 0.6088 0.6716
C28 C 0.1958(11) 0.5375(13) 0.7655(11)
H20 H 0.2510 0.5813 0.7839
H21 H 0.2089 0.4856 0.7343
H22 H 0.1851 0.5104 0.8116
C29 C 0.0828(19) 0.6805(14) 0.7562(13)
H23 H 0.1402 0.7195 0.7833
H24 H 0.0552 0.6593 0.7950
H25 H 0.0353 0.7188 0.7147
loop_
_geom_bond_atom_site_label_1
_geom_bond_atom_site_label_2
_geom_bond_site_symmetry_1
_geom_bond_site_symmetry_2
Cd1 O3 1_555 1_555
Cd2 O1 1_555 1_555
Cd3 O10 1_555 1_555
Na1 O4 1_555 1_555
Na2 O6 1_555 1_555
O1 C13 1_555 1_555
O2 Cd2 1_555 1_555
O3 C23 1_555 1_555
O4 Cd1 1_555 1_555
O5 C2 1_555 1_555
O6 C5 1_555 1_555
O7 C5 1_555 1_555
O8 C6 1_555 1_555
O9 Cd2 1_555 1_555
O10 C27 1_555 1_555
O11 C20 1_555 1_555
O12 Cd2 1_555 1_555
O13 C20 1_555 1_555
O14 C2 1_555 1_555
O15 Cd1 1_555 1_555
O16 Cd3 1_555 1_555
O17 C24 1_555 1_555
O18 C6 1_555 1_555
C1 C22 1_555 1_555
C2 C15 1_555 1_555
C3 C5 1_555 1_555
C4 H1 1_555 1_555
C6 C12 1_555 1_555
C7 C3 1_555 1_555
H2 C7 1_555 1_555
C8 C10 1_555 1_555
C9 C22 1_555 1_555
C10 O9 1_555 1_555
C11 H3 1_555 1_555
C12 C14 1_555 1_555
C13 O2 1_555 1_555
C14 H4 1_555 1_555
C15 C11 1_555 1_555
C16 C3 1_555 1_555
H5 C16 1_555 1_555
C17 C4 1_555 1_555
C18 C11 1_555 1_555
C19 C4 1_555 1_555
C20 C17 1_555 1_555
C21 C12 1_555 1_555
H6 C21 1_555 1_555
C22 H7 1_555 1_555
C23 O4 1_555 1_555
C24 O15 1_555 1_555
C25 C8 1_555 1_555
H8 C25 1_555 1_555
C26 C1 1_555 1_555
H9 C26 1_555 1_555
C27 O16 1_555 1_555
O19 Na1 1_555 1_555
H10 O19 1_555 1_555
H11 O19 1_555 1_555
O20 Na1 1_555 1_555
H12 O20 1_555 1_555
H13 O20 1_555 1_555
O21 Na2 1_555 1_555
H14 O21 1_555 1_555
H15 O21 1_555 1_555
O22 H16 1_555 1_555
H17 O22 1_555 1_555
N1 H18 1_555 1_555
H19 N1 1_555 1_555
C28 N1 1_555 1_555
H20 C28 1_555 1_555
H21 C28 1_555 1_555
H22 C28 1_555 1_555
C29 N1 1_555 1_555
H23 C29 1_555 1_555
H24 C29 1_555 1_555
H25 C29 1_555 1_555
Cd1C O6 1_555 1_555
Cd1B O11 1_555 1_555
Cd2B O5 1_555 1_555
Cd2A O17 1_555 1_555
Cd3C O1 1_555 1_555
Cd3_2 O8 1_555 1_555
Cd3B O17 1_555 1_555
Na1B O8 1_555 1_555
Na1B_2 O11 1_555 1_555
Na2_2 O2 1_555 1_555
Na2B O14 1_555 1_555
Na2B_2 O19 1_555 1_555
O1C Cd3 1_555 1_555
O2_2 Na2 1_555 1_555
O5B Cd2 1_555 1_555
O6C Cd1 1_555 1_555
O7C Cd1 1_555 1_555
O8_2 Cd3 1_555 1_555
O8B Na1 1_555 1_555
O11B Cd1 1_555 1_555
O13B Cd1 1_555 1_555
O14B Cd2 1_555 1_555
O14B_2 Na2 1_555 1_555
O17A Cd2 1_555 1_555
O17B Cd3 1_555 1_555
O18_2 Cd3 1_555 1_555
O19B Na2 1_555 1_555
H10B O19B 1_555 1_555
H11B O19B 1_555 1_555
Na1 O15 1_555 1_555
Na1 O11B 1_555 1_555
O7 Cd1C 1_555 1_555
O12 C10 1_555 1_555
O13 Cd1B 1_555 1_555
O14 Cd2B 1_555 1_555
O18 Cd3_2 1_555 1_555
C1 C27 1_555 1_555
C7 C17 1_555 1_555
C8 C26 1_555 1_555
C9 C24 1_555 1_555
C9 C25 1_555 1_555
C13 C18 1_555 1_555
C14 C18 1_555 1_555
C15 C21 1_555 1_555
C16 C19 1_555 1_555
C19 C23 1_555 1_555
Cd3C O17A 1_555 1_555
Cd3B O8B 1_555 1_555
Na1B_2 O8_2 1_555 1_555
Na1B_2 O19B 1_555 1_555
Na2_2 O14B 1_555 1_555

#END
