
#######################################################################
#
#                 Cambridge Crystallographic Data Centre
#                                CCDC 
#
#######################################################################
#
# If this CIF has been generated from an entry in the Cambridge 
# Structural Database, then it will include bibliographic, chemical, 
# crystal, experimental, refinement or atomic coordinate data resulting 
# from the CCDC's data processing and validation procedures.
#
#######################################################################

data_EXEHIZ
_symmetry_cell_setting           monoclinic
_symmetry_space_group_name_H-M   'C 2'
_symmetry_Int_Tables_number      5
_space_group_name_Hall           'C 2y'
loop_
_symmetry_equiv_pos_site_id
_symmetry_equiv_pos_as_xyz
1 x,y,z
2 -x,y,-z
3 1/2+x,1/2+y,z
4 1/2-x,1/2+y,-z
_cell_length_a                   20.9710(11)
_cell_length_b                   9.2303(5)
_cell_length_c                   11.4429(8)
_cell_angle_alpha                90
_cell_angle_beta                 110.431(7)
_cell_angle_gamma                90
_cell_volume                     2075.65
loop_
_atom_site_label
_atom_site_type_symbol
_atom_site_fract_x
_atom_site_fract_y
_atom_site_fract_z
O8 O 1.0000 0.7138(11) 1.0000
H19 H 1.046(4) 0.772(12) 1.035(10)
H19A H 0.954(4) 0.772(12) 0.965(10)
Zn1 Zn 0.77966(2) -0.01262(7) 0.13545(5)
S1 S 0.71311(6) 0.32367(16) 0.11540(13)
O1 O 0.7791(2) 0.1158(5) 0.3972(4)
H1 H 0.7635 0.1831 0.3489
O2 O 0.85547(18) -0.3301(5) 0.1756(4)
H2 H 0.8425 -0.3208 0.0996
O3 O 0.75505(17) 0.3355(5) 0.2471(3)
O4 O 0.64130(17) 0.3337(5) 0.0960(4)
O5 O 0.72661(16) 0.1802(4) 0.0659(3)
O6 O 0.73345(17) 0.4370(4) 0.0451(3)
N1 N 0.80151(19) 0.0087(6) 0.3373(4)
N2 N 0.83100(19) -0.2165(5) 0.2265(4)
N3 N 0.8786(2) 0.0830(6) 0.1601(4)
N4 N 1.18405(19) 0.3895(5) 0.1329(4)
C1 C 0.8262(3) -0.1015(7) 0.4062(5)
C2 C 0.8488(2) -0.2220(7) 0.3475(5)
C3 C 0.8900(3) -0.3435(8) 0.4237(6)
H3 H 0.8781 -0.4328 0.3764
H4 H 0.9379 -0.3248 0.4401
C4 C 0.8789(5) -0.3618(11) 0.5446(7)
H5 H 0.8341 -0.4031 0.5289
H6 H 0.9123 -0.4292 0.5965
C5 C 0.8841(4) -0.2254(10) 0.6113(7)
H7 H 0.9292 -0.1856 0.6282
H8 H 0.8789 -0.2447 0.6908
C6 C 0.8317(4) -0.1126(8) 0.5416(6)
H9 H 0.7877 -0.1385 0.5456
H10 H 0.8445 -0.0191 0.5816
C7 C 0.9310(2) -0.0006(8) 0.1577(4)
H11 H 0.9258 -0.1007 0.1553
C8 C 0.9913(2) 0.0565(6) 0.1588(5)
H12 H 1.0259 -0.0059 0.1575
C9 C 1.0023(2) 0.2026(6) 0.1616(5)
C10 C 0.9493(2) 0.2898(7) 0.1686(5)
H13 H 0.9542 0.3900 0.1741
C11 C 0.8888(3) 0.2249(7) 0.1672(6)
H14 H 0.8539 0.2844 0.1714
C12 C 1.0665(2) 0.2678(6) 0.1567(5)
C13 C 1.1197(2) 0.1817(6) 0.1524(5)
H15 H 1.1171 0.0814 0.1569
C14 C 1.1760(2) 0.2458(6) 0.1414(6)
H16 H 1.2113 0.1859 0.1397
C15 C 1.1326(2) 0.4696(7) 0.1363(5)
H17 H 1.1362 0.5696 0.1304
C16 C 1.0739(3) 0.4152(6) 0.1481(5)
H18 H 1.0395 0.4777 0.1502
Zn1C Zn 0.72034(2) 0.48738(7) -0.13545(5)
Zn1B Zn 1.27966(2) 0.48738(7) 0.13545(5)
O6C O 0.76655(17) -0.0630(4) -0.0451(3)
N4B N 0.68405(19) -0.1105(5) 0.1329(4)
N5? N 1.0000 0.2099(12) 0.5000
O7? O 1.0000 -0.0340(13) 0.5000
C17? C 1.0198(12) 0.076(2) 0.500(4)
C18? C 0.9263(7) 0.234(2) 0.5064(16)
C19? C 1.0365(9) 0.339(3) 0.5032(19)
loop_
_geom_bond_atom_site_label_1
_geom_bond_atom_site_label_2
_geom_bond_site_symmetry_1
_geom_bond_site_symmetry_2
Zn1 O5 1_555 1_555
S1 O3 1_555 1_555
O1 H1 1_555 1_555
O2 H2 1_555 1_555
O4 S1 1_555 1_555
O5 S1 1_555 1_555
O6 S1 1_555 1_555
N1 Zn1 1_555 1_555
N2 Zn1 1_555 1_555
N3 Zn1 1_555 1_555
N4 C14 1_555 1_555
C1 N1 1_555 1_555
C2 N2 1_555 1_555
C3 C2 1_555 1_555
H3 C3 1_555 1_555
H4 C3 1_555 1_555
C4 C3 1_555 1_555
H5 C4 1_555 1_555
H6 C4 1_555 1_555
C5 C4 1_555 1_555
H7 C5 1_555 1_555
H8 C5 1_555 1_555
C6 C1 1_555 1_555
H9 C6 1_555 1_555
H10 C6 1_555 1_555
C7 N3 1_555 1_555
H11 C7 1_555 1_555
C8 C7 1_555 1_555
H12 C8 1_555 1_555
C9 C8 1_555 1_555
C10 C9 1_555 1_555
H13 C10 1_555 1_555
C11 N3 1_555 1_555
H14 C11 1_555 1_555
C12 C9 1_555 1_555
C13 C12 1_555 1_555
H15 C13 1_555 1_555
C14 C13 1_555 1_555
H16 C14 1_555 1_555
C15 N4 1_555 1_555
H17 C15 1_555 1_555
C16 C12 1_555 1_555
H18 C16 1_555 1_555
O8 H19 1_555 1_555
Zn1C O6 1_555 1_555
Zn1B N4 1_555 1_555
O6C Zn1 1_555 1_555
N4B Zn1 1_555 1_555
H19A O8 1_555 1_555
O1 N1 1_555 1_555
O2 N2 1_555 1_555
C1 C2 1_555 1_555
C5 C6 1_555 1_555
C10 C11 1_555 1_555
C15 C16 1_555 1_555

#END
