
#######################################################################
#
#                 Cambridge Crystallographic Data Centre
#                                CCDC 
#
#######################################################################
#
# If this CIF has been generated from an entry in the Cambridge 
# Structural Database, then it will include bibliographic, chemical, 
# crystal, experimental, refinement or atomic coordinate data resulting 
# from the CCDC's data processing and validation procedures.
#
#######################################################################

data_EXEHEV
_symmetry_cell_setting           triclinic
_symmetry_space_group_name_H-M   'P 1'
_symmetry_Int_Tables_number      1
_space_group_name_Hall           'P 1'
loop_
_symmetry_equiv_pos_site_id
_symmetry_equiv_pos_as_xyz
1 x,y,z
_cell_length_a                   7.3067(4)
_cell_length_b                   11.1954(6)
_cell_length_c                   11.4438(6)
_cell_angle_alpha                72.426(4)
_cell_angle_beta                 73.791(4)
_cell_angle_gamma                83.348(4)
_cell_volume                     856.445
loop_
_atom_site_label
_atom_site_type_symbol
_atom_site_fract_x
_atom_site_fract_y
_atom_site_fract_z
Zn1 Zn 0.34118(7) 0.40119(5) 0.77517(5)
S1 S -0.06984(15) 0.41634(10) 0.99919(11)
S2 S 0.75096(15) 0.40622(10) 0.53763(10)
C1 C 0.3906(8) 0.6166(4) 0.8654(5)
H1 H 0.4107 0.5518 0.9345
C2 C 0.3848(8) 0.7378(4) 0.8717(5)
H2 H 0.4035 0.7541 0.9425
C3 C 0.3503(6) 0.8365(4) 0.7698(5)
C4 C 0.3360(7) 0.8058(4) 0.6649(5)
H3 H 0.3189 0.8685 0.5935
C5 C 0.3471(7) 0.6815(4) 0.6663(5)
H4 H 0.3389 0.6628 0.5942
C6 C 0.3324(6) 0.9686(4) 0.7735(4)
C7 C 0.3204(8) 1.0006(5) 0.8837(5)
H5 H 0.3150 0.9379 0.9594
C8 C 0.3163(7) 1.1244(4) 0.8817(5)
H6 H 0.3120 1.1434 0.9562
C9 C 0.3228(8) 1.1879(5) 0.6710(5)
H7 H 0.3185 1.2523 0.5980
C10 C 0.3331(8) 1.0670(5) 0.6653(5)
H8 H 0.3406 1.0508 0.5890
N1 N 0.3691(5) 0.5869(3) 0.7657(4)
N2 N 0.3185(5) 1.2185(3) 0.7759(4)
O1 O 0.1371(4) 0.3813(3) 0.9592(3)
O2 O -0.1352(5) 0.4904(4) 0.8893(4)
O3 O -0.0968(5) 0.4912(3) 1.0884(3)
O4 O -0.1792(5) 0.3019(3) 1.0619(4)
O5 O 0.5440(4) 0.4363(3) 0.5823(3)
O6 O 0.8298(5) 0.3419(3) 0.6462(3)
O7 O 0.7778(5) 0.3251(3) 0.4540(3)
O8 O 0.8498(5) 0.5229(3) 0.4666(3)
O9 O 0.5648(5) 0.3329(3) 0.8654(4)
H9 H 0.669(8) 0.352(5) 0.795(5)
H10 H 0.575(8) 0.373(6) 0.902(6)
O10 O 0.1110(5) 0.4626(3) 0.6807(4)
H11 H 0.030(8) 0.428(5) 0.648(5)
H12 H 0.042(8) 0.495(5) 0.728(6)
Zn1_2 Zn 0.34118(7) 1.40119(5) 0.77517(5)
N2_2 N 0.3185(5) 0.2185(3) 0.7759(4)
Zn2 Zn 0.84424(7) 0.90758(5) 0.24262(5)
S3 S 0.39650(15) 1.00110(10) 0.29053(11)
C11 C 0.8777(8) 0.7964(5) 0.5233(5)
H13 H 0.9000 0.7208 0.5026
C12 C 0.8717(8) 0.7943(5) 0.6453(5)
H14 H 0.8866 0.7188 0.7050
C13 C 0.8434(7) 0.9051(4) 0.6785(4)
C14 C 0.8207(8) 1.0135(4) 0.5848(5)
H15 H 0.8034 1.0907 0.6021
C15 C 0.8239(8) 1.0072(5) 0.4659(5)
H16 H 0.8044 1.0811 0.4055
C16 C 0.8377(7) 0.9075(4) 0.8091(4)
C17 C 0.8653(7) 0.7980(4) 0.9021(5)
H17 H 0.8867 0.7216 0.8832
C18 C 0.8610(7) 0.8027(4) 1.0213(5)
H18 H 0.8817 0.7283 1.0808
C19 C 0.7994(8) 1.0138(5) 0.9686(5)
H19 H 0.7739 1.0884 0.9909
C20 C 0.8053(8) 1.0166(5) 0.8461(5)
H20 H 0.7873 1.0925 0.7879
N3 N 0.8535(6) 0.9006(4) 0.4328(4)
N4 N 0.8287(5) 0.9087(4) 1.0567(3)
O11 O 0.5998(5) 1.0155(3) 0.2724(4)
O12 O 0.3408(5) 1.0830(3) 0.1780(3)
O13 O 0.3634(5) 0.8688(3) 0.3059(4)
O14 O 0.2858(5) 1.0362(3) 0.4030(3)
O15 O 0.9876(5) 1.0729(3) 0.1664(4)
H21 H 0.933(8) 1.142(5) 0.140(6)
H22 H 1.099(8) 1.075(6) 0.180(6)
O16 O 1.1048(5) 0.7997(4) 0.2164(4)
H23 H 1.110(8) 0.723(5) 0.221(6)
H24 H 1.177(8) 0.819(5) 0.247(6)
O17 O 0.6868(5) 0.7322(3) 0.3115(4)
H25 H 0.588(8) 0.746(6) 0.316(6)
H26 H 0.716(8) 0.669(5) 0.379(6)
Zn2_2 Zn 0.84424(7) 0.90758(5) 1.24262(5)
N4_2 N 0.8287(5) 0.9087(4) 0.0567(3)
Zn3 Zn 0.33556(7) 0.41435(5) 0.27283(5)
O18 O 0.0972(5) 0.5323(3) 0.2390(4)
H27 H 0.057(8) 0.522(5) 0.190(5)
H28 H 0.016(7) 0.525(5) 0.315(5)
O19 O 0.5698(5) 0.3048(4) 0.3027(4)
H29 H 0.643(8) 0.320(6) 0.354(6)
H30 H 0.633(9) 0.288(6) 0.245(6)
O20 O 0.3565(5) 0.3401(4) 0.1237(3)
H31 H 0.269(8) 0.364(5) 0.082(6)
H32 H 0.379(8) 0.256(5) 0.138(6)
O21 O 0.3177(6) 0.5092(4) 0.4141(4)
H33 H 0.389(8) 0.487(5) 0.470(6)
H34 H 0.220(7) 0.510(6) 0.463(6)
O22 O 0.5185(6) 0.5683(4) 0.1547(4)
H35 H 0.502(9) 0.623(6) 0.201(6)
H36 H 0.641(8) 0.548(6) 0.139(6)
O23 O 0.1691(5) 0.2720(3) 0.4026(4)
H37 H 0.199(8) 0.197(5) 0.400(6)
H38 H 0.059(8) 0.278(5) 0.437(6)
loop_
_geom_bond_atom_site_label_1
_geom_bond_atom_site_label_2
_geom_bond_site_symmetry_1
_geom_bond_site_symmetry_2
Zn1 N1 1_555 1_555
S1 O1 1_555 1_555
S2 O5 1_555 1_555
C1 H1 1_555 1_555
C2 C1 1_555 1_555
H2 C2 1_555 1_555
C3 C2 1_555 1_555
C4 C3 1_555 1_555
H3 C4 1_555 1_555
C5 C4 1_555 1_555
H4 C5 1_555 1_555
C6 C3 1_555 1_555
C7 C6 1_555 1_555
H5 C7 1_555 1_555
C8 C7 1_555 1_555
H6 C8 1_555 1_555
C9 H7 1_555 1_555
C10 C6 1_555 1_555
H8 C10 1_555 1_555
N1 C1 1_555 1_555
N2 C8 1_555 1_555
O1 Zn1 1_555 1_555
O2 S1 1_555 1_555
O3 S1 1_555 1_555
O4 S1 1_555 1_555
O5 Zn1 1_555 1_555
O6 S2 1_555 1_555
O7 S2 1_555 1_555
O8 S2 1_555 1_555
O9 Zn1 1_555 1_555
H9 O9 1_555 1_555
H10 O9 1_555 1_555
O10 Zn1 1_555 1_555
H11 O10 1_555 1_555
H12 O10 1_555 1_555
Zn2 N3 1_555 1_555
S3 O11 1_555 1_555
C11 H13 1_555 1_555
C12 C11 1_555 1_555
H14 C12 1_555 1_555
C13 C12 1_555 1_555
C14 C13 1_555 1_555
H15 C14 1_555 1_555
C15 C14 1_555 1_555
H16 C15 1_555 1_555
C16 C13 1_555 1_555
C17 C16 1_555 1_555
H17 C17 1_555 1_555
C18 C17 1_555 1_555
H18 C18 1_555 1_555
C19 H19 1_555 1_555
C20 C16 1_555 1_555
H20 C20 1_555 1_555
N3 C11 1_555 1_555
N4 C18 1_555 1_555
O11 Zn2 1_555 1_555
O12 S3 1_555 1_555
O13 S3 1_555 1_555
O14 S3 1_555 1_555
O15 Zn2 1_555 1_555
H21 O15 1_555 1_555
H22 O15 1_555 1_555
O16 Zn2 1_555 1_555
H23 O16 1_555 1_555
H24 O16 1_555 1_555
O17 Zn2 1_555 1_555
H25 O17 1_555 1_555
H26 O17 1_555 1_555
Zn3 O18 1_555 1_555
O18 H27 1_555 1_555
H28 O18 1_555 1_555
O19 Zn3 1_555 1_555
H29 O19 1_555 1_555
H30 O19 1_555 1_555
O20 Zn3 1_555 1_555
H31 O20 1_555 1_555
H32 O20 1_555 1_555
O21 Zn3 1_555 1_555
H33 O21 1_555 1_555
H34 O21 1_555 1_555
O22 Zn3 1_555 1_555
H35 O22 1_555 1_555
H36 O22 1_555 1_555
O23 Zn3 1_555 1_555
H37 O23 1_555 1_555
H38 O23 1_555 1_555
Zn1_2 N2 1_555 1_555
N2_2 Zn1 1_555 1_555
Zn2_2 N4 1_555 1_555
N4_2 Zn2 1_555 1_555
C5 N1 1_555 1_555
C9 C10 1_555 1_555
C9 N2 1_555 1_555
C15 N3 1_555 1_555
C19 C20 1_555 1_555
C19 N4 1_555 1_555

#END
