
#######################################################################
#
#                 Cambridge Crystallographic Data Centre
#                                CCDC 
#
#######################################################################
#
# If this CIF has been generated from an entry in the Cambridge 
# Structural Database, then it will include bibliographic, chemical, 
# crystal, experimental, refinement or atomic coordinate data resulting 
# from the CCDC's data processing and validation procedures.
#
#######################################################################

data_EXEKUO
_symmetry_cell_setting           triclinic
_symmetry_space_group_name_H-M   'P -1'
_symmetry_Int_Tables_number      2
_space_group_name_Hall           '-P 1'
loop_
_symmetry_equiv_pos_site_id
_symmetry_equiv_pos_as_xyz
1 x,y,z
2 -x,-y,-z
_cell_length_a                   8.9500(18)
_cell_length_b                   9.3917(19)
_cell_length_c                   10.029(2)
_cell_angle_alpha                71.54(3)
_cell_angle_beta                 68.88(3)
_cell_angle_gamma                74.74(3)
_cell_volume                     735.239
loop_
_atom_site_label
_atom_site_type_symbol
_atom_site_fract_x
_atom_site_fract_y
_atom_site_fract_z
Ag1 Ag 0.81808(3) 0.00977(3) 0.54688(4)
O1 O 0.8489(3) 0.2567(3) 0.4826(3)
O2 O 1.1098(3) 0.2410(3) 0.4540(3)
N1 N 0.2870(4) -0.0735(4) 0.7233(4)
N2 N 0.2691(4) 0.1808(4) 0.7338(4)
N3 N 0.5308(4) 0.0286(4) 0.6555(4)
N4 N 0.5035(4) 0.2814(4) 0.6483(4)
H1 H 0.6100 0.2736 0.6135
H2 H 0.4430 0.3689 0.6628
N5 N 0.5372(4) -0.2236(4) 0.6675(4)
H3 H 0.4880 -0.2996 0.6829
H4 H 0.6439 -0.2372 0.6415
C1 C 0.0252(5) 0.0771(4) 0.8040(4)
C2 C -0.0518(5) -0.0383(5) 0.8130(4)
H5 H 0.0113 -0.1279 0.7833
C3 C -0.2200(5) -0.0231(5) 0.8650(5)
H6 H -0.2715 -0.1023 0.8706
C4 C -0.3127(5) 0.1060(5) 0.9085(5)
H7 H -0.4278 0.1161 0.9439
C5 C -0.2379(5) 0.2207(5) 0.9007(5)
H8 H -0.3021 0.3100 0.9303
C6 C -0.0706(5) 0.2073(5) 0.8503(5)
H9 H -0.0204 0.2862 0.8471
C7 C 0.4336(5) 0.1600(4) 0.6793(4)
C8 C 0.2054(5) 0.0618(4) 0.7511(4)
C9 C 0.4494(5) -0.0868(4) 0.6835(4)
C10 C 0.9695(4) 0.3111(4) 0.4755(4)
C11 C 0.9287(4) 0.4716(4) 0.4969(5)
H10 H 0.8388 0.4750 0.5897
H11 H 0.8893 0.5422 0.4150
Ag1A Ag 1.18192(3) 0.99023(3) 0.45312(4)
Ag1A_2 Ag 1.18192(3) -0.00977(3) 0.45312(4)
Ag1_2 Ag 0.81808(3) 1.00977(3) 0.54688(4)
O1A O 1.1511(3) 0.7433(3) 0.5174(3)
O2A O 0.8902(3) 0.7590(3) 0.5460(3)
O2A_2 O 0.8902(3) -0.2410(3) 0.5460(3)
O2_2 O 1.1098(3) 1.2410(3) 0.4540(3)
N1A N 1.7130(4) 1.0735(4) 0.2767(4)
N2A N 1.7309(4) 0.8192(4) 0.2662(4)
N3A N 1.4692(4) 0.9714(4) 0.3445(4)
N4A N 1.4965(4) 0.7186(4) 0.3517(4)
H1A H 1.3900 0.7264 0.3865
H2A H 1.5570 0.6311 0.3372
N5A N 1.4628(4) 1.2236(4) 0.3325(4)
H3A H 1.5120 1.2996 0.3171
H4A H 1.3561 1.2372 0.3585
C1A C 1.9748(5) 0.9229(4) 0.1960(4)
C2A C 2.0518(5) 1.0383(5) 0.1870(4)
H5A H 1.9887 1.1279 0.2167
C3A C 2.2200(5) 1.0231(5) 0.1350(5)
H6A H 2.2715 1.1023 0.1294
C4A C 2.3127(5) 0.8940(5) 0.0915(5)
H7A H 2.4278 0.8839 0.0561
C5A C 2.2379(5) 0.7793(5) 0.0993(5)
H8A H 2.3021 0.6900 0.0697
C6A C 2.0706(5) 0.7927(5) 0.1497(5)
H9A H 2.0204 0.7138 0.1529
C7A C 1.5664(5) 0.8400(4) 0.3207(4)
C8A C 1.7946(5) 0.9382(4) 0.2489(4)
C9A C 1.5506(5) 1.0868(4) 0.3165(4)
C10A C 1.0305(4) 0.6889(4) 0.5245(4)
C11A C 1.0713(4) 0.5284(4) 0.5031(5)
H10A H 1.1612 0.5250 0.4103
H11A H 1.1107 0.4578 0.5850
O3 O 0.3178(3) 0.5645(3) 0.7164(3)
H12 H 0.2696 0.6188 0.6547
C12 C 0.2066(5) 0.5497(5) 0.8606(5)
H13 H 0.1064 0.5207 0.8640
H14 H 0.1768 0.6479 0.8884
C13 C 0.2849(8) 0.4296(6) 0.9658(6)
H15 H 0.2078 0.4157 1.0655
H16 H 0.3815 0.4611 0.9648
H17 H 0.3168 0.3335 0.9359
loop_
_geom_bond_atom_site_label_1
_geom_bond_atom_site_label_2
_geom_bond_site_symmetry_1
_geom_bond_site_symmetry_2
Ag1 O1 1_555 1_555
O1 C10 1_555 1_555
O2 C10 1_555 1_555
N1 C8 1_555 1_555
N2 C7 1_555 1_555
N3 Ag1 1_555 1_555
N4 H1 1_555 1_555
H2 N4 1_555 1_555
N5 H3 1_555 1_555
H4 N5 1_555 1_555
C1 C2 1_555 1_555
C2 H5 1_555 1_555
C3 C2 1_555 1_555
H6 C3 1_555 1_555
C4 C3 1_555 1_555
H7 C4 1_555 1_555
C5 C4 1_555 1_555
H8 C5 1_555 1_555
C6 C1 1_555 1_555
H9 C6 1_555 1_555
C7 N3 1_555 1_555
C8 N2 1_555 1_555
C9 N1 1_555 1_555
C10 C11 1_555 1_555
C11 H10 1_555 1_555
H11 C11 1_555 1_555
O3 H12 1_555 1_555
C12 O3 1_555 1_555
H13 C12 1_555 1_555
H14 C12 1_555 1_555
C13 C12 1_555 1_555
H15 C13 1_555 1_555
H16 C13 1_555 1_555
H17 C13 1_555 1_555
Ag1A O1A 1_555 1_555
Ag1A_2 O2 1_555 1_555
Ag1_2 O2A 1_555 1_555
O1A C10A 1_555 1_555
O2A C10A 1_555 1_555
O2A_2 Ag1 1_555 1_555
O2_2 Ag1A 1_555 1_555
N1A C8A 1_555 1_555
N2A C7A 1_555 1_555
N3A Ag1A 1_555 1_555
N4A H1A 1_555 1_555
H2A N4A 1_555 1_555
N5A H3A 1_555 1_555
H4A N5A 1_555 1_555
C1A C2A 1_555 1_555
C2A H5A 1_555 1_555
C3A C2A 1_555 1_555
H6A C3A 1_555 1_555
C4A C3A 1_555 1_555
H7A C4A 1_555 1_555
C5A C4A 1_555 1_555
H8A C5A 1_555 1_555
C6A C1A 1_555 1_555
H9A C6A 1_555 1_555
C7A N3A 1_555 1_555
C8A N2A 1_555 1_555
C9A N1A 1_555 1_555
C10A C11A 1_555 1_555
C11A C11 1_555 1_555
H10A C11A 1_555 1_555
H11A C11A 1_555 1_555
N3 C9 1_555 1_555
N4 C7 1_555 1_555
N5 C9 1_555 1_555
C1 C8 1_555 1_555
C5 C6 1_555 1_555
N3A C9A 1_555 1_555
N4A C7A 1_555 1_555
N5A C9A 1_555 1_555
C1A C8A 1_555 1_555
C5A C6A 1_555 1_555

#END
