
#######################################################################
#
#                 Cambridge Crystallographic Data Centre
#                                CCDC 
#
#######################################################################
#
# If this CIF has been generated from an entry in the Cambridge 
# Structural Database, then it will include bibliographic, chemical, 
# crystal, experimental, refinement or atomic coordinate data resulting 
# from the CCDC's data processing and validation procedures.
#
#######################################################################

data_EXEKOI
_symmetry_cell_setting           orthorhombic
_symmetry_space_group_name_H-M   'P n n m'
_symmetry_Int_Tables_number      58
_space_group_name_Hall           '-P 2 2n'
loop_
_symmetry_equiv_pos_site_id
_symmetry_equiv_pos_as_xyz
1 x,y,z
2 -x,-y,z
3 1/2+x,1/2-y,1/2-z
4 1/2-x,1/2+y,1/2-z
5 -x,-y,-z
6 x,y,-z
7 1/2-x,1/2+y,1/2+z
8 1/2+x,1/2-y,1/2+z
_cell_length_a                   12.864(3)
_cell_length_b                   14.555(3)
_cell_length_c                   11.752(2)
_cell_angle_alpha                90
_cell_angle_beta                 90
_cell_angle_gamma                90
_cell_volume                     2200.39
loop_
_atom_site_label
_atom_site_type_symbol
_atom_site_fract_x
_atom_site_fract_y
_atom_site_fract_z
C1 C 0.5849(7) 0.1254(6) 0.0000
C2 C 0.6390(7) 0.1189(6) 0.1016(10)
H1 H 0.6026 0.1187 0.1719
C3 C 0.7485(7) 0.1127(7) 0.1004(11)
H2 H 0.7863 0.1112 0.1698
C4 C 0.7991(9) 0.1090(8) 0.0000
H3 H 0.8727 0.1036 0.0000
C5 C -0.2848(10) 0.6647(8) 0.0000
H4 H -0.3373 0.7106 0.0000
C6 C -0.2450(10) 0.6300(7) -0.0985(13)
H5 H -0.2579 0.6609 -0.1683
C7 C -0.1859(9) 0.5501(6) -0.0985(9)
H6 H -0.1616 0.5254 -0.1684
C8 C -0.1627(7) 0.5074(5) 0.0000
C9 C -0.1083(7) 0.4165(7) 0.0000
C10 C -0.0380(5) 0.2968(5) 0.0961(6)
C11 C 0.4682(8) 0.1250(5) 0.0000
C12 C 0.3169(5) 0.1179(4) 0.0959(6)
C13 C 0.0000 0.0000 0.2483(9)
C14 C 0.0000 0.0000 0.3788(8)
C15 C 0.0500(5) 0.0687(5) 0.4418(6)
H7 H 0.0850 0.1167 0.4025
N1 N -0.0870(4) 0.3790(3) 0.1011(7)
N2 N -0.0189(5) 0.2565(4) 0.1964(5)
H8 H 0.0111 0.2022 0.1986
H9 H -0.0363 0.2843 0.2601
N3 N -0.0102(6) 0.2519(5) 0.0000
N4 N 0.4208(4) 0.1252(3) 0.1007(7)
N5 N 0.2675(5) 0.1176(4) 0.1961(6)
H10 H 0.1994 0.1129 0.1983
H11 H 0.3032 0.1221 0.2597
N6 N 0.2609(6) 0.1110(5) 0.0000
O1 O 0.0463(3) 0.0641(3) 0.1999(4)
Ag1 Ag 0.08495(6) 0.12043(6) 0.0000
C1_2 C 0.5849(7) 0.1254(6) 1.0000
C2E C 0.6390(7) 0.1189(6) -0.1016(10)
C2E_2 C 0.6390(7) 0.1189(6) 0.8984(10)
C2_2 C 0.6390(7) 0.1189(6) 1.1016(10)
H1E H 0.6026 0.1187 -0.1719
H1E_2 H 0.6026 0.1187 0.8281
H1_2 H 0.6026 0.1187 1.1719
C3E C 0.7485(7) 0.1127(7) -0.1004(11)
C3E_2 C 0.7485(7) 0.1127(7) 0.8996(11)
C3_2 C 0.7485(7) 0.1127(7) 1.1004(11)
H2E H 0.7863 0.1112 -0.1698
H2E_2 H 0.7863 0.1112 0.8302
H2_2 H 0.7863 0.1112 1.1698
C4_2 C 0.7991(9) 0.1090(8) 1.0000
H3_2 H 0.8727 0.1036 1.0000
C5_2 C -0.2848(10) 0.6647(8) 1.0000
H4_2 H -0.3373 0.7106 1.0000
C6E C -0.2450(10) 0.6300(7) 0.0985(13)
C6E_2 C -0.2450(10) 0.6300(7) 1.0985(13)
C6_2 C -0.2450(10) 0.6300(7) 0.9015(13)
H5E H -0.2579 0.6609 0.1683
H5E_2 H -0.2579 0.6609 1.1683
H5_2 H -0.2579 0.6609 0.8317
C7E C -0.1859(9) 0.5501(6) 0.0985(9)
C7E_2 C -0.1859(9) 0.5501(6) 1.0985(9)
C7_2 C -0.1859(9) 0.5501(6) 0.9015(9)
H6E H -0.1616 0.5254 0.1684
H6E_2 H -0.1616 0.5254 1.1684
H6_2 H -0.1616 0.5254 0.8316
C8_2 C -0.1627(7) 0.5074(5) 1.0000
C9_2 C -0.1083(7) 0.4165(7) 1.0000
C10E C -0.0380(5) 0.2968(5) -0.0961(6)
C10E_2 C -0.0380(5) 0.2968(5) 0.9039(6)
C10_2 C -0.0380(5) 0.2968(5) 1.0961(6)
C11_2 C 0.4682(8) 0.1250(5) 1.0000
C12E C 0.3169(5) 0.1179(4) -0.0959(6)
C12E_2 C 0.3169(5) 0.1179(4) 0.9041(6)
C12_2 C 0.3169(5) 0.1179(4) 1.0959(6)
C13D C 0.0000 0.0000 0.7517(9)
C14D C 0.0000 0.0000 0.6212(8)
C15E C 0.0500(5) 0.0687(5) 0.5582(6)
C15D C -0.0500(5) -0.0687(5) 0.5582(6)
C15A C -0.0500(5) -0.0687(5) 0.4418(6)
H7A H -0.0850 -0.1167 0.4025
H7D H -0.0850 -0.1167 0.5975
H7E H 0.0850 0.1167 0.5975
N1E N -0.0870(4) 0.3790(3) -0.1011(7)
N1E_2 N -0.0870(4) 0.3790(3) 0.8989(7)
N1_2 N -0.0870(4) 0.3790(3) 1.1011(7)
N2E N -0.0189(5) 0.2565(4) -0.1964(5)
N2E_2 N -0.0189(5) 0.2565(4) 0.8036(5)
N2_2 N -0.0189(5) 0.2565(4) 1.1964(5)
H8E H 0.0111 0.2022 -0.1986
H8E_2 H 0.0111 0.2022 0.8014
H8_2 H 0.0111 0.2022 1.1986
H9E H -0.0363 0.2843 -0.2601
H9E_2 H -0.0363 0.2843 0.7399
H9_2 H -0.0363 0.2843 1.2601
N3_2 N -0.0102(6) 0.2519(5) 1.0000
N4E N 0.4208(4) 0.1252(3) -0.1007(7)
N4E_2 N 0.4208(4) 0.1252(3) 0.8993(7)
N4_2 N 0.4208(4) 0.1252(3) 1.1007(7)
N5E N 0.2675(5) 0.1176(4) -0.1961(6)
N5E_2 N 0.2675(5) 0.1176(4) 0.8039(6)
N5_2 N 0.2675(5) 0.1176(4) 1.1961(6)
H10E H 0.1994 0.1129 -0.1983
H10E_2 H 0.1994 0.1129 0.8017
H10_2 H 0.1994 0.1129 1.1983
H11E H 0.3032 0.1221 -0.2597
H11E_2 H 0.3032 0.1221 0.7403
H11_2 H 0.3032 0.1221 1.2597
N6_2 N 0.2609(6) 0.1110(5) 1.0000
O1E O 0.0463(3) 0.0641(3) 0.8001(4)
O1D O -0.0463(3) -0.0641(3) 0.8001(4)
O1A O -0.0463(3) -0.0641(3) 0.1999(4)
O1E_2 O 0.0463(3) 0.0641(3) -0.1999(4)
O1_2 O 0.0463(3) 0.0641(3) 1.1999(4)
Ag1_2 Ag 0.08495(6) 0.12043(6) 1.0000
Ag1A Ag -0.08495(6) -0.12043(6) 1.0000
Ag1A_2 Ag -0.08495(6) -0.12043(6) 0.0000
loop_
_geom_bond_atom_site_label_1
_geom_bond_atom_site_label_2
_geom_bond_site_symmetry_1
_geom_bond_site_symmetry_2
C1 C2 1_555 1_555
C2 H1 1_555 1_555
C3 C2 1_555 1_555
H2 C3 1_555 1_555
C4 C3 1_555 1_555
H3 C4 1_555 1_555
C5 H4 1_555 1_555
C6 C5 1_555 1_555
H5 C6 1_555 1_555
C7 C6 1_555 1_555
H6 C7 1_555 1_555
C8 C7 1_555 1_555
C9 C8 1_555 1_555
C10 N1 1_555 1_555
C11 C1 1_555 1_555
C12 N4 1_555 1_555
C13 C14 1_555 1_555
C14 C15 1_555 1_555
C15 H7 1_555 1_555
N1 C9 1_555 1_555
N2 C10 1_555 1_555
H8 N2 1_555 1_555
H9 N2 1_555 1_555
N3 C10 1_555 1_555
N4 C11 1_555 1_555
N5 C12 1_555 1_555
H10 N5 1_555 1_555
H11 N5 1_555 1_555
N6 C12 1_555 1_555
O1 C13 1_555 1_555
Ag1 N3 1_555 1_555
C1_2 C2E_2 1_555 1_555
C2E C1 1_555 1_555
C2E_2 H1E_2 1_555 1_555
C2_2 C1_2 1_555 1_555
H1E C2E 1_555 1_555
H1_2 C2_2 1_555 1_555
C3E C4 1_555 1_555
C3E_2 C2E_2 1_555 1_555
C3_2 C2_2 1_555 1_555
H2E C3E 1_555 1_555
H2E_2 C3E_2 1_555 1_555
H2_2 C3_2 1_555 1_555
C4_2 C3E_2 1_555 1_555
H3_2 C4_2 1_555 1_555
C5_2 H4_2 1_555 1_555
C6E C5 1_555 1_555
C6E_2 C5_2 1_555 1_555
C6_2 C5_2 1_555 1_555
H5E C6E 1_555 1_555
H5E_2 C6E_2 1_555 1_555
H5_2 C6_2 1_555 1_555
C7E C8 1_555 1_555
C7E_2 C6E_2 1_555 1_555
C7_2 C6_2 1_555 1_555
H6E C7E 1_555 1_555
H6E_2 C7E_2 1_555 1_555
H6_2 C7_2 1_555 1_555
C8_2 C7E_2 1_555 1_555
C9_2 C8_2 1_555 1_555
C10E N3 1_555 1_555
C10E_2 N1E_2 1_555 1_555
C10_2 N1_2 1_555 1_555
C11_2 C1_2 1_555 1_555
C12E N6 1_555 1_555
C12E_2 N4E_2 1_555 1_555
C12_2 N4_2 1_555 1_555
C13D C14D 1_555 1_555
C14D C15E 1_555 1_555
C15E C15 1_555 1_555
C15D C14D 1_555 1_555
C15A C14 1_555 1_555
H7A C15A 1_555 1_555
H7D C15D 1_555 1_555
H7E C15E 1_555 1_555
N1E C9 1_555 1_555
N1E_2 C9_2 1_555 1_555
N1_2 C9_2 1_555 1_555
N2E C10E 1_555 1_555
N2E_2 C10E_2 1_555 1_555
N2_2 C10_2 1_555 1_555
H8E N2E 1_555 1_555
H8E_2 N2E_2 1_555 1_555
H8_2 N2_2 1_555 1_555
H9E N2E 1_555 1_555
H9E_2 N2E_2 1_555 1_555
H9_2 N2_2 1_555 1_555
N3_2 C10E_2 1_555 1_555
N4E C11 1_555 1_555
N4E_2 C11_2 1_555 1_555
N4_2 C11_2 1_555 1_555
N5E C12E 1_555 1_555
N5E_2 C12E_2 1_555 1_555
N5_2 C12_2 1_555 1_555
H10E N5E 1_555 1_555
H10E_2 N5E_2 1_555 1_555
H10_2 N5_2 1_555 1_555
H11E N5E 1_555 1_555
H11E_2 N5E_2 1_555 1_555
H11_2 N5_2 1_555 1_555
N6_2 C12E_2 1_555 1_555
O1E C13D 1_555 1_555
O1D C13D 1_555 1_555
O1A C13 1_555 1_555
O1E_2 Ag1 1_555 1_555
O1_2 Ag1_2 1_555 1_555
Ag1_2 N3_2 1_555 1_555
Ag1A O1D 1_555 1_555
Ag1A_2 O1A 1_555 1_555
N6 Ag1 1_555 1_555
O1 Ag1 1_555 1_555
C2E C3E 1_555 1_555
C3_2 C4_2 1_555 1_555
C6E C7E 1_555 1_555
C7_2 C8_2 1_555 1_555
C10E N1E 1_555 1_555
C10_2 N3_2 1_555 1_555
C12E N4E 1_555 1_555
C12_2 N6_2 1_555 1_555
C15D C15A 1_555 1_555
N6_2 Ag1_2 1_555 1_555
O1E Ag1_2 1_555 1_555

#END
