
#######################################################################
#
#                 Cambridge Crystallographic Data Centre
#                                CCDC 
#
#######################################################################
#
# If this CIF has been generated from an entry in the Cambridge 
# Structural Database, then it will include bibliographic, chemical, 
# crystal, experimental, refinement or atomic coordinate data resulting 
# from the CCDC's data processing and validation procedures.
#
#######################################################################

data_EXELUP
_symmetry_cell_setting           monoclinic
_symmetry_space_group_name_H-M   'P 21/n'
_symmetry_Int_Tables_number      14
_space_group_name_Hall           '-P 2yn'
loop_
_symmetry_equiv_pos_site_id
_symmetry_equiv_pos_as_xyz
1 x,y,z
2 1/2-x,1/2+y,1/2-z
3 -x,-y,-z
4 1/2+x,1/2-y,1/2+z
_cell_length_a                   6.4339(5)
_cell_length_b                   27.667(3)
_cell_length_c                   9.9155(10)
_cell_angle_alpha                90
_cell_angle_beta                 90.120(7)
_cell_angle_gamma                90
_cell_volume                     1765.02
loop_
_atom_site_label
_atom_site_type_symbol
_atom_site_fract_x
_atom_site_fract_y
_atom_site_fract_z
Ca1 Ca 0.03015(5) 0.194132(10) 0.58765(3)
O1 O -0.66224(17) 0.16368(4) 0.98345(10)
O2 O -0.78444(17) 0.19532(4) 0.79320(10)
C1 C -0.6776(2) 0.16456(5) 0.85686(14)
C2 C -0.5622(3) 0.12653(6) 0.77766(15)
H1 H -0.5151 0.1409 0.6916
H2 H -0.6599 0.1000 0.7555
C3 C -0.3749(2) 0.10522(5) 0.85008(15)
H3 H -0.2713 0.1309 0.8673
H4 H -0.4187 0.0917 0.9380
N1 N -0.2815(2) 0.06726(4) 0.76859(12)
H5 H -0.332(3) 0.0399(6) 0.7778(17)
C4 C -0.1397(2) 0.07655(5) 0.67541(14)
O3 O -0.06632(18) 0.11781(4) 0.65963(10)
C5 C -0.0683(2) 0.03604(5) 0.58749(14)
C6 C 0.1246(3) 0.03959(5) 0.52680(15)
H6 H 0.2103 0.0668 0.5449
C7 C -0.1939(3) -0.00392(5) 0.56012(15)
H7 H -0.3267 -0.0066 0.6011
O4 O 0.36305(18) 0.17368(4) 0.48414(10)
O5 O 0.10046(18) 0.14628(4) 0.36370(11)
C8 C 0.2931(2) 0.15052(5) 0.38392(14)
C9 C 0.4465(3) 0.12810(6) 0.28805(15)
H8 H 0.5109 0.1539 0.2329
H9 H 0.3717 0.1060 0.2262
C10 C 0.6168(2) 0.10005(6) 0.36094(15)
H10 H 0.6929 0.1222 0.4220
H11 H 0.5527 0.0744 0.4167
N2 N 0.7625(2) 0.07823(5) 0.26710(13)
H12 H 0.888(3) 0.0891(6) 0.2670(17)
C11 C 0.7121(2) 0.03883(5) 0.19571(14)
O6 O 0.54096(18) 0.01904(4) 0.20883(11)
C12 C 0.8660(2) 0.01984(5) 0.09612(14)
C13 C 1.0465(3) 0.04383(6) 0.06004(17)
H13 H 1.0790 0.0741 0.1000
C14 C 0.8210(3) -0.02388(6) 0.03371(17)
H14 H 0.697(3) -0.0394(6) 0.0554(18)
O7 O 0.1565(2) 0.27156(4) 0.52453(11)
H15 H 0.071(3) 0.2945(7) 0.5213(18)
H16 H 0.272(3) 0.2831(6) 0.5631(17)
O8 O -0.25456(19) 0.21803(4) 0.44559(12)
H17 H -0.375(3) 0.2056(6) 0.4541(18)
H18 H -0.267(3) 0.2425(7) 0.3984(18)
O9 O -0.2210(2) 0.22883(5) 0.73685(12)
H19 H -0.312(3) 0.2467(7) 0.705(2)
H20 H -0.230(3) 0.2283(7) 0.8195(19)
Ca1B Ca -0.03015(5) -0.194132(10) 0.41235(3)
Ca1_2 Ca -0.96985(5) 0.194132(10) 0.58765(3)
Ca1B_2 Ca 0.96985(5) -0.194132(10) 0.41235(3)
Ca1B_3 Ca 1.96985(5) -0.194132(10) -0.58765(3)
O1B O 0.66224(17) -0.16368(4) 0.01655(10)
O2B O 0.78444(17) -0.19532(4) 0.20680(10)
O2_2 O 0.21556(17) 0.19532(4) 0.79320(10)
O2B_2 O -0.21556(17) -0.19532(4) 0.20680(10)
C1B C 0.6776(2) -0.16456(5) 0.14314(14)
C2B C 0.5622(3) -0.12653(6) 0.22234(15)
H1B H 0.5151 -0.1409 0.3084
H2B H 0.6599 -0.1000 0.2445
C3B C 0.3749(2) -0.10522(5) 0.14992(15)
H3B H 0.2713 -0.1309 0.1327
H4B H 0.4187 -0.0917 0.0620
N1B N 0.2815(2) -0.06726(4) 0.23141(12)
H5B H 0.332(3) -0.0399(6) 0.2222(17)
C4B C 0.1397(2) -0.07655(5) 0.32459(14)
O3B O 0.06632(18) -0.11781(4) 0.34037(10)
C5B C 0.0683(2) -0.03604(5) 0.41251(14)
C6B C -0.1246(3) -0.03959(5) 0.47320(15)
H6B H -0.2103 -0.0668 0.4551
C7B C 0.1939(3) 0.00392(5) 0.43988(15)
H7B H 0.3267 0.0066 0.3989
O4B O 1.63695(18) -0.17368(4) -0.48414(10)
O4B_2 O -0.36305(18) -0.17368(4) 0.51586(10)
O5B O 1.89954(18) -0.14628(4) -0.36370(11)
O5B_2 O -0.10046(18) -0.14628(4) 0.63630(11)
C8B C 1.7069(2) -0.15052(5) -0.38392(14)
C9B C 1.5535(3) -0.12810(6) -0.28805(15)
H8B H 1.4891 -0.1539 -0.2329
H9B H 1.6283 -0.1060 -0.2262
C10B C 1.3832(2) -0.10005(6) -0.36094(15)
H10B H 1.3071 -0.1222 -0.4220
H11B H 1.4473 -0.0744 -0.4167
N2B N 1.2375(2) -0.07823(5) -0.26710(13)
H12B H 1.112(3) -0.0891(6) -0.2670(17)
C11B C 1.2879(2) -0.03883(5) -0.19571(14)
O6B O 1.45904(18) -0.01904(4) -0.20883(11)
C12B C 1.1340(2) -0.01984(5) -0.09612(14)
C13B C 0.9535(3) -0.04383(6) -0.06004(17)
H13B H 0.9210 -0.0741 -0.1000
C14B C 1.1790(3) 0.02388(6) -0.03371(17)
H14B H 1.303(3) 0.0394(6) -0.0554(18)
O7B O -0.1565(2) -0.27156(4) 0.47547(11)
H15B H -0.071(3) -0.2945(7) 0.4787(18)
H16B H -0.272(3) -0.2831(6) 0.4369(17)
O8B O 0.25456(19) -0.21803(4) 0.55441(12)
H17B H 0.375(3) -0.2056(6) 0.5459(18)
H18B H 0.267(3) -0.2425(7) 0.6016(18)
O9B O 0.2210(2) -0.22883(5) 0.26315(12)
H19B H 0.312(3) -0.2467(7) 0.295(2)
H20B H 0.230(3) -0.2283(7) 0.1805(19)
O10 O 0.01513(19) 0.19831(4) 0.13078(12)
H21 H 0.113(3) 0.1863(6) 0.0766(18)
H22 H 0.022(3) 0.1817(7) 0.1990(19)
loop_
_geom_bond_atom_site_label_1
_geom_bond_atom_site_label_2
_geom_bond_site_symmetry_1
_geom_bond_site_symmetry_2
Ca1 O3 1_555 1_555
O1 C1 1_555 1_555
O2 C1 1_555 1_555
C1 C2 1_555 1_555
C2 H1 1_555 1_555
H2 C2 1_555 1_555
C3 C2 1_555 1_555
H3 C3 1_555 1_555
H4 C3 1_555 1_555
N1 C3 1_555 1_555
H5 N1 1_555 1_555
C4 N1 1_555 1_555
O3 C4 1_555 1_555
C5 C4 1_555 1_555
C6 C5 1_555 1_555
H6 C6 1_555 1_555
C7 C5 1_555 1_555
H7 C7 1_555 1_555
O4 Ca1 1_555 1_555
O5 Ca1 1_555 1_555
C8 O4 1_555 1_555
C9 C8 1_555 1_555
H8 C9 1_555 1_555
H9 C9 1_555 1_555
C10 C9 1_555 1_555
H10 C10 1_555 1_555
H11 C10 1_555 1_555
N2 C10 1_555 1_555
H12 N2 1_555 1_555
C11 N2 1_555 1_555
O6 C11 1_555 1_555
C12 C11 1_555 1_555
C13 C12 1_555 1_555
H13 C13 1_555 1_555
C14 C12 1_555 1_555
H14 C14 1_555 1_555
O7 Ca1 1_555 1_555
H15 O7 1_555 1_555
H16 O7 1_555 1_555
O8 Ca1 1_555 1_555
H17 O8 1_555 1_555
H18 O8 1_555 1_555
O9 Ca1 1_555 1_555
H19 O9 1_555 1_555
H20 O9 1_555 1_555
O10 H21 1_555 1_555
H22 O10 1_555 1_555
Ca1B O2B_2 1_555 1_555
Ca1_2 O2 1_555 1_555
Ca1B_2 O2B 1_555 1_555
Ca1B_3 O4B 1_555 1_555
O1B C1B 1_555 1_555
O2B C1B 1_555 1_555
O2_2 Ca1 1_555 1_555
C1B C2B 1_555 1_555
C2B H1B 1_555 1_555
H2B C2B 1_555 1_555
C3B C2B 1_555 1_555
H3B C3B 1_555 1_555
H4B C3B 1_555 1_555
N1B C3B 1_555 1_555
H5B N1B 1_555 1_555
C4B N1B 1_555 1_555
O3B Ca1B 1_555 1_555
C5B C4B 1_555 1_555
C6B C7 1_555 1_555
H6B C6B 1_555 1_555
C7B C6 1_555 1_555
H7B C7B 1_555 1_555
O4B C8B 1_555 1_555
O4B_2 Ca1B 1_555 1_555
O5B Ca1B_3 1_555 1_555
O5B_2 Ca1B 1_555 1_555
C8B O5B 1_555 1_555
C9B C8B 1_555 1_555
H8B C9B 1_555 1_555
H9B C9B 1_555 1_555
C10B C9B 1_555 1_555
H10B C10B 1_555 1_555
H11B C10B 1_555 1_555
N2B C10B 1_555 1_555
H12B N2B 1_555 1_555
C11B N2B 1_555 1_555
O6B C11B 1_555 1_555
C12B C11B 1_555 1_555
C13B C14 1_555 1_555
H13B C13B 1_555 1_555
C14B C13 1_555 1_555
H14B C14B 1_555 1_555
O7B Ca1B 1_555 1_555
H15B O7B 1_555 1_555
H16B O7B 1_555 1_555
O8B Ca1B 1_555 1_555
H17B O8B 1_555 1_555
H18B O8B 1_555 1_555
O9B Ca1B 1_555 1_555
H19B O9B 1_555 1_555
H20B O9B 1_555 1_555
O5 C8 1_555 1_555
C4B O3B 1_555 1_555
C5B C6B 1_555 1_555
C5B C7B 1_555 1_555
C12B C13B 1_555 1_555
C12B C14B 1_555 1_555

#END
