
#######################################################################
#
#                 Cambridge Crystallographic Data Centre
#                                CCDC 
#
#######################################################################
#
# If this CIF has been generated from an entry in the Cambridge 
# Structural Database, then it will include bibliographic, chemical, 
# crystal, experimental, refinement or atomic coordinate data resulting 
# from the CCDC's data processing and validation procedures.
#
#######################################################################

data_EXELAV
_symmetry_cell_setting           monoclinic
_symmetry_space_group_name_H-M   'C 2/c'
_symmetry_Int_Tables_number      15
_space_group_name_Hall           '-C 2yn'
loop_
_symmetry_equiv_pos_site_id
_symmetry_equiv_pos_as_xyz
1 x,y,z
2 -x,y,1/2-z
3 1/2+x,1/2+y,z
4 1/2-x,1/2+y,1/2-z
5 -x,-y,-z
6 x,-y,1/2+z
7 1/2-x,1/2-y,-z
8 1/2+x,1/2-y,1/2+z
_cell_length_a                   20.9002(9)
_cell_length_b                   7.5329(3)
_cell_length_c                   19.6558(7)
_cell_angle_alpha                90
_cell_angle_beta                 96.5610(10)
_cell_angle_gamma                90
_cell_volume                     3074.32
loop_
_atom_site_label
_atom_site_type_symbol
_atom_site_fract_x
_atom_site_fract_y
_atom_site_fract_z
Ag1 Ag 0.364543(10) 0.37307(3) 0.242446(11)
C1 C 0.21967(14) 0.6819(4) 0.39185(14)
C2 C 0.31996(15) 0.5752(4) 0.38253(15)
C3 C 0.25063(15) 0.6207(4) 0.28677(15)
C4 C 0.23455(16) 0.6124(4) 0.21063(15)
C5 C 0.28095(18) 0.6633(4) 0.16840(17)
H1 H 0.3222 0.7036 0.1876
C6 C 0.2655(2) 0.6536(5) 0.09745(18)
H2 H 0.2962 0.6896 0.0681
C7 C 0.2062(3) 0.5924(5) 0.06991(18)
H3 H 0.1966 0.5850 0.0216
C8 C 0.1604(2) 0.5414(5) 0.11163(17)
H4 H 0.1195 0.4995 0.0921
C9 C 0.17494(17) 0.5521(4) 0.18281(15)
H5 H 0.1438 0.5178 0.2119
C10 C 0.50964(15) 0.3355(4) 0.32368(16)
C11 C 0.50828(16) 0.1618(4) 0.28524(17)
C12 C 0.5194(2) 0.0034(5) 0.3201(2)
H6 H 0.5335 0.0034 0.3678
C13 C 0.5097(3) -0.1562(5) 0.2847(3)
H7 H 0.5165 -0.2656 0.3085
N1 N 0.30841(12) 0.5654(3) 0.31256(12)
N2 N 0.20420(12) 0.6825(3) 0.32195(12)
N3 N 0.27655(13) 0.6310(3) 0.42328(13)
N4 N 0.17494(12) 0.7368(4) 0.42946(12)
H11 H 0.1830 0.7392 0.4744
H12 H 0.1371 0.7710 0.4096
N5 N 0.37748(14) 0.5272(4) 0.41100(14)
H13 H 0.3868 0.5320 0.4558
H14 H 0.4066 0.4903 0.3852
O1 O 0.46016(10) 0.4302(3) 0.31349(11)
O2 O 0.55859(13) 0.3779(4) 0.36319(16)
Ag1A Ag 0.635457(10) 0.37307(3) 0.257554(11)
Ag1B Ag 0.864543(10) 0.87307(3) 0.242446(11)
Ag1C Ag 0.135457(10) 0.87307(3) 0.257554(11)
C1A C 0.78033(14) 0.6819(4) 0.10815(14)
C2A C 0.68004(15) 0.5752(4) 0.11747(15)
C3A C 0.74937(15) 0.6207(4) 0.21323(15)
C4A C 0.76545(16) 0.6124(4) 0.28937(15)
C5A C 0.71905(18) 0.6633(4) 0.33160(17)
H1A H 0.6778 0.7036 0.3124
C6A C 0.7345(2) 0.6536(5) 0.40255(18)
H2A H 0.7038 0.6896 0.4319
C7A C 0.7938(3) 0.5924(5) 0.43009(18)
H3A H 0.8034 0.5850 0.4784
C8A C 0.8396(2) 0.5414(5) 0.38837(17)
H4A H 0.8805 0.4995 0.4079
C9A C 0.82506(17) 0.5521(4) 0.31719(15)
H5A H 0.8562 0.5178 0.2881
C10A C 0.49036(15) 0.3355(4) 0.17632(16)
C11A C 0.49172(16) 0.1618(4) 0.21476(17)
C12A C 0.4806(2) 0.0034(5) 0.1799(2)
H6A H 0.4665 0.0034 0.1322
C13A C 0.4903(3) -0.1562(5) 0.2153(3)
H7A H 0.4835 -0.2656 0.1915
N1A N 0.69159(12) 0.5654(3) 0.18744(12)
N2A N 0.79580(12) 0.6825(3) 0.17805(12)
N2B N 0.70420(12) 0.1825(3) 0.32195(12)
N2C N 0.29580(12) 0.1825(3) 0.17805(12)
N3A N 0.72345(13) 0.6310(3) 0.07672(13)
N4A N 0.82506(12) 0.7368(4) 0.07054(12)
H11A H 0.8170 0.7392 0.0256
H12A H 0.8629 0.7710 0.0904
N5A N 0.62252(14) 0.5272(4) 0.08900(14)
H13A H 0.6132 0.5320 0.0442
H14A H 0.5934 0.4903 0.1148
O1A O 0.53984(10) 0.4302(3) 0.18651(11)
O2A O 0.44141(13) 0.3779(4) 0.13681(16)
C14 C 0.5276(3) 0.7365(7) 0.4793(2)
H8 H 0.5098 0.6690 0.5154
H9 H 0.4943 0.7531 0.4406
H10 H 0.5425 0.8526 0.4973
O3 O 0.58005(16) 0.6425(4) 0.45729(15)
H15 H 0.5664 0.5675 0.4291
loop_
_geom_bond_atom_site_label_1
_geom_bond_atom_site_label_2
_geom_bond_site_symmetry_1
_geom_bond_site_symmetry_2
Ag1 N1 1_555 1_555
C1 N2 1_555 1_555
C2 N1 1_555 1_555
C3 C4 1_555 1_555
C4 C5 1_555 1_555
C5 H1 1_555 1_555
C6 C5 1_555 1_555
H2 C6 1_555 1_555
C7 C6 1_555 1_555
H3 C7 1_555 1_555
C8 C7 1_555 1_555
H4 C8 1_555 1_555
C9 C4 1_555 1_555
H5 C9 1_555 1_555
C10 C11 1_555 1_555
C11 C12 1_555 1_555
C12 H6 1_555 1_555
C13 C12 1_555 1_555
H7 C13 1_555 1_555
C14 H8 1_555 1_555
H9 C14 1_555 1_555
H10 C14 1_555 1_555
N1 C3 1_555 1_555
N2 C3 1_555 1_555
N3 C1 1_555 1_555
N4 C1 1_555 1_555
H11 N4 1_555 1_555
H12 N4 1_555 1_555
N5 C2 1_555 1_555
H13 N5 1_555 1_555
H14 N5 1_555 1_555
O1 Ag1 1_555 1_555
O2 C10 1_555 1_555
O3 C14 1_555 1_555
H15 O3 1_555 1_555
Ag1A N1A 1_555 1_555
Ag1B N2A 1_555 1_555
Ag1C N2 1_555 1_555
C1A N2A 1_555 1_555
C2A N1A 1_555 1_555
C3A C4A 1_555 1_555
C4A C5A 1_555 1_555
C5A H1A 1_555 1_555
C6A C5A 1_555 1_555
H2A C6A 1_555 1_555
C7A C6A 1_555 1_555
H3A C7A 1_555 1_555
C8A C7A 1_555 1_555
H4A C8A 1_555 1_555
C9A C4A 1_555 1_555
H5A C9A 1_555 1_555
C10A C11A 1_555 1_555
C11A C11 1_555 1_555
C12A C11A 1_555 1_555
H6A C12A 1_555 1_555
C13A C13 1_555 1_555
H7A C13A 1_555 1_555
N1A C3A 1_555 1_555
N2A C3A 1_555 1_555
N2B Ag1A 1_555 1_555
N2C Ag1 1_555 1_555
N3A C1A 1_555 1_555
N4A C1A 1_555 1_555
H11A N4A 1_555 1_555
H12A N4A 1_555 1_555
N5A C2A 1_555 1_555
H13A N5A 1_555 1_555
H14A N5A 1_555 1_555
O1A Ag1A 1_555 1_555
O2A C10A 1_555 1_555
C2 N3 1_555 1_555
C8 C9 1_555 1_555
C10 O1 1_555 1_555
C2A N3A 1_555 1_555
C8A C9A 1_555 1_555
C10A O1A 1_555 1_555
C12A C13A 1_555 1_555

#END
