
#######################################################################
#
#                 Cambridge Crystallographic Data Centre
#                                CCDC 
#
#######################################################################
#
# If this CIF has been generated from an entry in the Cambridge 
# Structural Database, then it will include bibliographic, chemical, 
# crystal, experimental, refinement or atomic coordinate data resulting 
# from the CCDC's data processing and validation procedures.
#
#######################################################################

data_EXELEZ
_symmetry_cell_setting           monoclinic
_symmetry_space_group_name_H-M   'C 2/c'
_symmetry_Int_Tables_number      15
_space_group_name_Hall           '-C 2yn'
loop_
_symmetry_equiv_pos_site_id
_symmetry_equiv_pos_as_xyz
1 x,y,z
2 -x,y,1/2-z
3 1/2+x,1/2+y,z
4 1/2-x,1/2+y,1/2-z
5 -x,-y,-z
6 x,-y,1/2+z
7 1/2-x,1/2-y,-z
8 1/2+x,1/2-y,1/2+z
_cell_length_a                   21.698(4)
_cell_length_b                   7.4193(15)
_cell_length_c                   19.443(4)
_cell_angle_alpha                90
_cell_angle_beta                 101.59(3)
_cell_angle_gamma                90
_cell_volume                     3066.19
loop_
_atom_site_label
_atom_site_type_symbol
_atom_site_fract_x
_atom_site_fract_y
_atom_site_fract_z
Ag1 Ag 0.861458(14) 0.10962(5) 0.753002(16)
N1 N 0.70338(16) -0.1747(6) 0.81711(18)
N2 N 0.78048(18) -0.1466(6) 0.92341(19)
C1 C 0.7467(2) -0.1115(5) 0.7836(2)
N3 N 0.67972(17) -0.2457(6) 0.92406(19)
H1 H 0.6898 -0.2570 0.9700
H2 H 0.6415 -0.2729 0.9016
N4 N 0.80483(16) -0.0638(6) 0.81327(18)
N5 N 0.87930(18) -0.0502(7) 0.9150(2)
H3 H 0.8916 -0.0637 0.9606
H4 H 0.9060 -0.0116 0.8897
C2 C 0.7272(2) -0.1008(6) 0.7054(2)
C3 C 0.7223(2) -0.1875(6) 0.8885(2)
C4 C 0.8205(2) -0.0880(7) 0.8843(2)
C5 C 0.6889(3) -0.0987(9) 0.5608(3)
H5 H 0.6756 -0.1017 0.5112
C6 C 0.6659(2) -0.0450(7) 0.6752(2)
H6 H 0.6376 -0.0100 0.7043
C7 C 0.7686(3) -0.1503(8) 0.6630(3)
H7 H 0.8105 -0.1842 0.6834
C8 C 0.6468(3) -0.0412(9) 0.6024(3)
H8 H 0.6059 -0.0002 0.5813
C9 C 0.7482(3) -0.1501(9) 0.5903(3)
H9 H 0.7762 -0.1863 0.5611
C10 C 1.0091(2) 0.1099(6) 0.7915(2)
O1 O 1.06528(17) 0.0950(6) 0.81886(19)
O3 O 0.96577(16) 0.1214(5) 0.82443(17)
Ag1A Ag 1.138542(14) 0.10962(5) 0.746998(16)
Ag1B Ag 1.361458(14) -0.39038(5) 0.753002(16)
Ag1C Ag 0.638542(14) -0.39038(5) 0.746998(16)
N1A N 1.29662(16) -0.1747(6) 0.68289(18)
N1B N 1.20338(16) 0.3253(6) 0.81711(18)
N1C N 0.79662(16) 0.3253(6) 0.68289(18)
N2A N 1.21952(18) -0.1466(6) 0.57659(19)
C1A C 1.2533(2) -0.1115(5) 0.7164(2)
N3A N 1.32028(17) -0.2457(6) 0.57594(19)
H1A H 1.3102 -0.2570 0.5300
H2A H 1.3585 -0.2729 0.5984
N4A N 1.19517(16) -0.0638(6) 0.68673(18)
N5A N 1.12070(18) -0.0502(7) 0.5850(2)
H3A H 1.1084 -0.0637 0.5394
H4A H 1.0940 -0.0116 0.6103
C2A C 1.2728(2) -0.1008(6) 0.7946(2)
C3A C 1.2777(2) -0.1875(6) 0.6115(2)
C4A C 1.1795(2) -0.0880(7) 0.6157(2)
C5A C 1.3111(3) -0.0987(9) 0.9392(3)
H5A H 1.3244 -0.1017 0.9888
C6A C 1.3341(2) -0.0450(7) 0.8248(2)
H6A H 1.3624 -0.0100 0.7957
C7A C 1.2314(3) -0.1503(8) 0.8370(3)
H7A H 1.1895 -0.1842 0.8166
C8A C 1.3532(3) -0.0412(9) 0.8976(3)
H8A H 1.3941 -0.0002 0.9187
C9A C 1.2518(3) -0.1501(9) 0.9097(3)
H9A H 1.2238 -0.1863 0.9389
C10A C 0.9909(2) 0.1099(6) 0.7085(2)
O1A O 0.93472(17) 0.0950(6) 0.68114(19)
O3A O 1.03423(16) 0.1214(5) 0.67557(17)
C11 C 0.5627(10) -0.106(3) 0.3374(11)
C12 C 0.5187(11) -0.145(3) 0.3806(12)
O4 O 0.5287(5) -0.0941(14) 0.4530(6)
O2 O 0.4688(3) -0.2902(11) 0.5361(2)
H10 H 0.4830 -0.3443 0.5746
H11 H 0.4499 -0.1939 0.5433
C13? C 0.502(2) -0.106(5) 0.326(2)
C14? C 0.5582(16) -0.187(5) 0.3997(17)
O5? O 0.5586(9) -0.306(3) 0.4306(10)
loop_
_geom_bond_atom_site_label_1
_geom_bond_atom_site_label_2
_geom_bond_site_symmetry_1
_geom_bond_site_symmetry_2
Ag1 N4 1_555 1_555
N1 C1 1_555 1_555
N2 C3 1_555 1_555
C1 N4 1_555 1_555
N3 H1 1_555 1_555
H2 N3 1_555 1_555
N4 C4 1_555 1_555
N5 H3 1_555 1_555
H4 N5 1_555 1_555
C2 C1 1_555 1_555
C3 N1 1_555 1_555
C4 N2 1_555 1_555
C5 H5 1_555 1_555
C6 C2 1_555 1_555
H6 C6 1_555 1_555
C7 C2 1_555 1_555
H7 C7 1_555 1_555
C8 C5 1_555 1_555
H8 C8 1_555 1_555
C9 C5 1_555 1_555
H9 C9 1_555 1_555
C10 O1 1_555 1_555
C11 C12 1_555 1_555
C12 O4 1_555 1_555
O1 Ag1A 1_555 1_555
O2 H10 1_555 1_555
H11 O2 1_555 1_555
O3 Ag1 1_555 1_555
Ag1A N1B 1_555 1_555
Ag1B N1A 1_555 1_555
Ag1C N1 1_555 1_555
N1A C1A 1_555 1_555
N1C Ag1 1_555 1_555
N2A C3A 1_555 1_555
C1A N4A 1_555 1_555
N3A H1A 1_555 1_555
H2A N3A 1_555 1_555
N4A Ag1A 1_555 1_555
N5A H3A 1_555 1_555
H4A N5A 1_555 1_555
C2A C1A 1_555 1_555
C3A N1A 1_555 1_555
C4A N2A 1_555 1_555
C5A H5A 1_555 1_555
C6A C2A 1_555 1_555
H6A C6A 1_555 1_555
C7A C2A 1_555 1_555
H7A C7A 1_555 1_555
C8A C5A 1_555 1_555
H8A C8A 1_555 1_555
C9A C5A 1_555 1_555
H9A C9A 1_555 1_555
C10A C10 1_555 1_555
O1A Ag1 1_555 1_555
O3A Ag1A 1_555 1_555
N3 C3 1_555 1_555
N5 C4 1_555 1_555
C6 C8 1_555 1_555
C7 C9 1_555 1_555
C10 O3 1_555 1_555
N3A C3A 1_555 1_555
N4A C4A 1_555 1_555
N5A C4A 1_555 1_555
C6A C8A 1_555 1_555
C7A C9A 1_555 1_555
C10A O1A 1_555 1_555
C10A O3A 1_555 1_555

#END
