
#######################################################################
#
#                 Cambridge Crystallographic Data Centre
#                                CCDC 
#
#######################################################################
#
# If this CIF has been generated from an entry in the Cambridge 
# Structural Database, then it will include bibliographic, chemical, 
# crystal, experimental, refinement or atomic coordinate data resulting 
# from the CCDC's data processing and validation procedures.
#
#######################################################################

data_EXEMOK
_symmetry_cell_setting           monoclinic
_symmetry_space_group_name_H-M   'P 21/c'
_symmetry_Int_Tables_number      14
_space_group_name_Hall           '-P 2ybc'
loop_
_symmetry_equiv_pos_site_id
_symmetry_equiv_pos_as_xyz
1 x,y,z
2 -x,1/2+y,1/2-z
3 -x,-y,-z
4 x,1/2-y,1/2+z
_cell_length_a                   11.998(2)
_cell_length_b                   7.4919(19)
_cell_length_c                   18.929(4)
_cell_angle_alpha                90
_cell_angle_beta                 104.285(11)
_cell_angle_gamma                90
_cell_volume                     1648.88
loop_
_atom_site_label
_atom_site_type_symbol
_atom_site_fract_x
_atom_site_fract_y
_atom_site_fract_z
Ag1 Ag -0.00551(3) -0.00329(6) 0.193673(17)
Cl1 Cl -0.41655(12) -0.1848(2) 0.28362(8)
Cl2 Cl 0.40275(13) -0.0843(3) 0.09333(8)
N1 N -0.1069(3) -0.0187(5) 0.27691(19)
N2 N 0.0257(3) 0.1577(6) 0.35666(19)
H1 H 0.0460 0.2195 0.3960
H2 H 0.0705 0.1507 0.3276
N3 N -0.1435(4) 0.0864(6) 0.3876(2)
N4 N 0.0989(3) 0.0708(6) 0.11681(19)
N5 N -0.0428(3) 0.2410(6) 0.0412(2)
H3 H -0.0844 0.2297 0.0720
H4 H -0.0681 0.3013 0.0019
N6 N 0.1217(4) 0.1887(6) 0.00372(19)
C1 C -0.0765(4) 0.0714(7) 0.3405(2)
C2 C -0.2454(4) 0.0080(7) 0.3693(3)
H5 H -0.2939 0.0183 0.4006
C3 C -0.2828(4) -0.0879(8) 0.3059(3)
C4 C -0.2107(4) -0.0977(7) 0.2610(3)
H6 H -0.2339 -0.1613 0.2177
C5 C 0.0612(4) 0.1648(7) 0.0546(2)
C6 C 0.2244(4) 0.1117(7) 0.0165(3)
H7 H 0.2674 0.1241 -0.0179
C7 C 0.2696(4) 0.0145(7) 0.0785(3)
C8 C 0.2035(4) -0.0010(7) 0.1277(2)
H8 H 0.2328 -0.0642 0.1706
Ag1A Ag 0.00551(3) 0.49671(6) 0.306327(17)
N2A N -0.0257(3) -0.3423(6) 0.14334(19)
H1A H -0.0460 -0.2805 0.1040
H2A H -0.0705 -0.3493 0.1724
S1 S 0.26658(10) -0.1803(2) 0.33582(6)
F1 F 0.4161(5) 0.0689(7) 0.3843(2)
F2 F 0.4489(3) -0.1682(7) 0.4435(2)
F3 F 0.3125(4) -0.0038(6) 0.4570(2)
O1 O 0.1910(4) -0.0386(7) 0.3025(2)
O2 O 0.3332(3) -0.2506(5) 0.29012(19)
O3 O 0.2148(4) -0.3076(7) 0.3739(2)
C9 C 0.3663(5) -0.0637(9) 0.4086(3)
loop_
_geom_bond_atom_site_label_1
_geom_bond_atom_site_label_2
_geom_bond_site_symmetry_1
_geom_bond_site_symmetry_2
Ag1 N1 1_555 1_555
Cl1 C3 1_555 1_555
Cl2 C7 1_555 1_555
N1 C1 1_555 1_555
N2 H1 1_555 1_555
H2 N2 1_555 1_555
N3 C1 1_555 1_555
N4 Ag1 1_555 1_555
N5 H3 1_555 1_555
H4 N5 1_555 1_555
N6 C5 1_555 1_555
C1 N2 1_555 1_555
C2 N3 1_555 1_555
H5 C2 1_555 1_555
C3 C2 1_555 1_555
C4 N1 1_555 1_555
H6 C4 1_555 1_555
C5 N4 1_555 1_555
C6 N6 1_555 1_555
H7 C6 1_555 1_555
C7 C6 1_555 1_555
C8 N4 1_555 1_555
H8 C8 1_555 1_555
S1 O1 1_555 1_555
F1 C9 1_555 1_555
F2 C9 1_555 1_555
F3 C9 1_555 1_555
O2 S1 1_555 1_555
O3 S1 1_555 1_555
C9 S1 1_555 1_555
Ag1A N2 1_555 1_555
N2A Ag1 1_555 1_555
H1A N2A 1_555 1_555
H2A N2A 1_555 1_555
N5 C5 1_555 1_555
C3 C4 1_555 1_555
C7 C8 1_555 1_555

#END
