
#######################################################################
#
#                 Cambridge Crystallographic Data Centre
#                                CCDC 
#
#######################################################################
#
# If this CIF has been generated from an entry in the Cambridge 
# Structural Database, then it will include bibliographic, chemical, 
# crystal, experimental, refinement or atomic coordinate data resulting 
# from the CCDC's data processing and validation procedures.
#
#######################################################################

data_EXEMAW
_symmetry_cell_setting           monoclinic
_symmetry_space_group_name_H-M   'P 21/c'
_symmetry_Int_Tables_number      14
_space_group_name_Hall           '-P 2ybc'
loop_
_symmetry_equiv_pos_site_id
_symmetry_equiv_pos_as_xyz
1 x,y,z
2 -x,1/2+y,1/2-z
3 -x,-y,-z
4 x,1/2-y,1/2+z
_cell_length_a                   17.442(2)
_cell_length_b                   10.2010(14)
_cell_length_c                   9.7027(11)
_cell_angle_alpha                90
_cell_angle_beta                 102.073(9)
_cell_angle_gamma                90
_cell_volume                     1688.18
loop_
_atom_site_label
_atom_site_type_symbol
_atom_site_fract_x
_atom_site_fract_y
_atom_site_fract_z
Mn1 Mn 0.32882(6) 0.64914(11) 0.22279(11)
O1 O 0.4344(2) 0.6404(5) 0.3883(4)
O2 O 0.5290(2) 0.5592(5) 0.2882(4)
O3 O 0.7376(2) 0.5055(4) 0.6982(5)
O4 O 0.9968(3) 0.9369(5) 1.1952(5)
O5 O 1.2328(2) 0.8136(4) 1.5492(5)
O6 O 1.2921(2) 0.7801(4) 1.3696(4)
O7 O 0.3923(3) 0.8073(5) 0.1419(5)
H1 H 0.398(3) 0.813(7) 0.056(3)
H2 H 0.434(3) 0.836(7) 0.209(4)
O8 O 0.3884(2) 0.4929(4) 0.1316(5)
H3 H 0.4228 0.5566 0.1792
H4 H 0.3850 0.4935 0.0416
C1 C 0.5057(4) 0.6235(7) 0.3869(7)
C2 C 0.5665(3) 0.6763(7) 0.5093(7)
H7 H 0.5551 0.7700 0.5226
H8 H 0.5612 0.6291 0.5960
C3 C 0.6502(3) 0.6642(8) 0.4920(6)
H9 H 0.6614 0.5715 0.4729
H10 H 0.6573 0.7171 0.4100
C4 C 0.7454(3) 0.6280(7) 0.7118(7)
C5 C 0.8044(3) 0.6844(6) 0.8339(7)
C6 C 0.8189(4) 0.8181(6) 0.8580(7)
H11 H 0.7904 0.8807 0.7949
C7 C 0.8745(3) 0.8601(7) 0.9731(6)
H12 H 0.8843 0.9512 0.9878
C8 C 0.9161(3) 0.7698(7) 1.0673(7)
C9 C 0.9019(4) 0.6373(8) 1.0424(7)
H13 H 0.9309 0.5744 1.1045
C10 C 0.8465(4) 0.5964(7) 0.9294(7)
H14 H 0.8366 0.5052 0.9160
C11 C 0.9778(4) 0.8193(7) 1.1873(7)
C12 C 1.0821(3) 0.7625(7) 1.3899(6)
H15 H 1.0871 0.6982 1.4678
H16 H 1.0766 0.8509 1.4288
C13 C 1.1540(3) 0.7578(8) 1.3271(7)
H17 H 1.1568 0.6697 1.2857
H18 H 1.1470 0.8220 1.2489
C14 C 1.2299(4) 0.7846(6) 1.4225(7)
N1 N 0.7055(3) 0.7086(5) 0.6181(6)
H19 H 0.7124 0.7935 0.6318
N2 N 1.0127(3) 0.7317(5) 1.2805(5)
H20 H 0.9936 0.6517 1.2765
Mn1B Mn 0.67118(6) 0.35086(11) 0.77721(11)
Mn1C Mn 1.32882(6) 0.85086(11) 1.72279(11)
Mn1_2 Mn 1.32882(6) 0.64914(11) 1.22279(11)
O3B O 0.2624(2) 0.4945(4) 0.3018(5)
O5C O 0.2328(2) 0.6864(4) 0.0492(5)
O6_2 O 0.2921(2) 0.7801(4) 0.3696(4)
O9 O 0.3482(3) 0.4705(5) -0.1526(5)
H5 H 0.390(3) 0.469(6) -0.192(7)
H6 H 0.318(3) 0.540(5) -0.171(7)
loop_
_geom_bond_atom_site_label_1
_geom_bond_atom_site_label_2
_geom_bond_site_symmetry_1
_geom_bond_site_symmetry_2
Mn1 O1 1_555 1_555
O1 C1 1_555 1_555
O2 C1 1_555 1_555
O3 C4 1_555 1_555
O4 C11 1_555 1_555
O5 C14 1_555 1_555
O6 C14 1_555 1_555
O7 Mn1 1_555 1_555
H1 O7 1_555 1_555
H2 O7 1_555 1_555
O8 Mn1 1_555 1_555
H3 O8 1_555 1_555
H4 O8 1_555 1_555
O9 H5 1_555 1_555
H6 O9 1_555 1_555
C1 C2 1_555 1_555
C2 H7 1_555 1_555
H8 C2 1_555 1_555
C3 C2 1_555 1_555
H9 C3 1_555 1_555
H10 C3 1_555 1_555
C4 C5 1_555 1_555
C5 C6 1_555 1_555
C6 H11 1_555 1_555
C7 C6 1_555 1_555
H12 C7 1_555 1_555
C8 C7 1_555 1_555
C9 C8 1_555 1_555
H13 C9 1_555 1_555
C10 C5 1_555 1_555
H14 C10 1_555 1_555
C11 C8 1_555 1_555
C12 H15 1_555 1_555
H16 C12 1_555 1_555
C13 C12 1_555 1_555
H17 C13 1_555 1_555
H18 C13 1_555 1_555
C14 C13 1_555 1_555
N1 C3 1_555 1_555
H19 N1 1_555 1_555
N2 C11 1_555 1_555
H20 N2 1_555 1_555
Mn1B O3 1_555 1_555
Mn1C O5 1_555 1_555
Mn1_2 O6 1_555 1_555
O3B Mn1 1_555 1_555
O5C Mn1 1_555 1_555
O6_2 Mn1 1_555 1_555
C4 N1 1_555 1_555
C9 C10 1_555 1_555
C12 N2 1_555 1_555

#END
