
#######################################################################
#
#                 Cambridge Crystallographic Data Centre
#                                CCDC 
#
#######################################################################
#
# If this CIF has been generated from an entry in the Cambridge 
# Structural Database, then it will include bibliographic, chemical, 
# crystal, experimental, refinement or atomic coordinate data resulting 
# from the CCDC's data processing and validation procedures.
#
#######################################################################

data_EXEMIE
_symmetry_cell_setting           triclinic
_symmetry_space_group_name_H-M   'P -1'
_symmetry_Int_Tables_number      2
_space_group_name_Hall           '-P 1'
loop_
_symmetry_equiv_pos_site_id
_symmetry_equiv_pos_as_xyz
1 x,y,z
2 -x,-y,-z
_cell_length_a                   9.6718(12)
_cell_length_b                   9.9337(12)
_cell_length_c                   12.0896(16)
_cell_angle_alpha                78.799(10)
_cell_angle_beta                 68.774(9)
_cell_angle_gamma                73.441(10)
_cell_volume                     1032.42
loop_
_atom_site_label
_atom_site_type_symbol
_atom_site_fract_x
_atom_site_fract_y
_atom_site_fract_z
Zn1 Zn -0.5000 -0.5000 1.5000
Zn2 Zn 1.5000 0.0000 0.5000
O1 O -0.29370(15) -0.42840(14) 1.43833(12)
O2 O -0.12800(16) -0.63712(14) 1.43989(13)
C1 C -0.1589(2) -0.5061(2) 1.41448(16)
C2 C -0.0300(2) -0.4319(2) 1.35256(17)
H1 H -0.0219 -0.3796 1.4109
H2 H -0.0563 -0.3618 1.2886
C3 C 0.1254(2) -0.5292(2) 1.29809(19)
H3 H 0.1581 -0.5928 1.3625
H4 H 0.1164 -0.5882 1.2450
N1 N 0.2409(2) -0.4494(2) 1.22992(16)
H5 H 0.299(3) -0.435(3) 1.258(2)
O3 O 0.17465(16) -0.41727(16) 1.06567(13)
C4 C 0.2587(2) -0.4000(2) 1.11593(18)
C5 C 0.3801(2) -0.3209(2) 1.04978(18)
C6 C 0.4225(2) -0.3022(2) 0.92609(18)
H6 H 0.3749 -0.3402 0.8871
C7 C 0.5325(2) -0.2290(2) 0.85901(18)
H7 H 0.5604 -0.2173 0.7745
C8 C 0.6023(2) -0.1729(2) 0.91489(17)
C9 C 0.5584(2) -0.1903(2) 1.03922(18)
H8 H 0.6048 -0.1511 1.0784
C10 C 0.4484(2) -0.2638(2) 1.10601(18)
H9 H 0.4197 -0.2751 1.1906
O4 O 0.72119(16) -0.03527(16) 0.73903(12)
C11 C 0.7204(2) -0.0934(2) 0.84033(17)
N2 N 0.82306(19) -0.08796(19) 0.88668(16)
H10 H 0.828(3) -0.139(2) 0.947(2)
C12 C 0.9437(2) -0.0141(2) 0.82534(19)
H11 H 0.9603 0.0320 0.8836
H12 H 0.9125 0.0605 0.7659
C13 C 1.0910(2) -0.1135(2) 0.7632(2)
H13 H 1.1165 -0.1923 0.8220
H14 H 1.0752 -0.1541 0.7013
O5 O 1.22569(16) 0.05989(15) 0.74742(13)
O6 O 1.33068(15) -0.10065(14) 0.61758(12)
C14 C 1.2242(2) -0.0454(2) 0.70548(18)
O7 O -0.39565(17) -0.67166(15) 1.59357(13)
H15 H -0.306(3) -0.686(2) 1.545(2)
H16 H -0.426(3) -0.744(2) 1.600(2)
O8 O -0.42965(18) -0.60629(16) 1.34790(13)
H17 H -0.389(3) -0.692(2) 1.358(2)
H18 H -0.363(3) -0.578(3) 1.294(2)
O9 O 1.33722(17) 0.17963(15) 0.47098(14)
H19 H 1.257(3) 0.167(3) 0.483(2)
H20 H 1.328(3) 0.245(2) 0.500(2)
O10 O 1.49395(17) -0.08819(15) 0.35704(12)
H21 H 1.438(3) -0.041(2) 0.3179(19)
H22 H 1.581(3) -0.088(2) 0.3118(19)
Zn2_2 Zn -2.5000 -1.0000 2.5000
O1A O -0.70630(15) -0.57160(14) 1.56167(12)
O2A O -0.87200(16) -0.36288(14) 1.56011(13)
C1A C -0.8411(2) -0.4939(2) 1.58552(16)
C2A C -0.9700(2) -0.5681(2) 1.64744(17)
H1A H -0.9781 -0.6204 1.5891
H2A H -0.9437 -0.6382 1.7114
C3A C -1.1254(2) -0.4708(2) 1.70191(19)
H3A H -1.1581 -0.4072 1.6375
H4A H -1.1164 -0.4118 1.7550
N1A N -1.2409(2) -0.5506(2) 1.77008(16)
H5A H -1.299(3) -0.565(3) 1.742(2)
O3A O -1.17465(16) -0.58273(16) 1.93433(13)
C4A C -1.2587(2) -0.6000(2) 1.88407(18)
C5A C -1.3801(2) -0.6791(2) 1.95022(18)
C6A C -1.4225(2) -0.6978(2) 2.07391(18)
H6A H -1.3749 -0.6598 2.1129
C7A C -1.5325(2) -0.7710(2) 2.14099(18)
H7A H -1.5604 -0.7827 2.2255
C8A C -1.6023(2) -0.8271(2) 2.08511(17)
C9A C -1.5584(2) -0.8097(2) 1.96078(18)
H8A H -1.6048 -0.8489 1.9216
C10A C -1.4484(2) -0.7362(2) 1.89399(18)
H9A H -1.4197 -0.7249 1.8094
O4A O -1.72119(16) -0.96473(16) 2.26097(12)
C11A C -1.7204(2) -0.9066(2) 2.15967(17)
N2A N -1.82306(19) -0.91204(19) 2.11332(16)
H10A H -1.828(3) -0.861(2) 2.053(2)
C12A C -1.9437(2) -0.9859(2) 2.17466(19)
H11A H -1.9603 -1.0320 2.1164
H12A H -1.9125 -1.0605 2.2341
C13A C -2.0910(2) -0.8865(2) 2.2368(2)
H13A H -2.1165 -0.8077 2.1780
H14A H -2.0752 -0.8459 2.2987
O5A O -2.22569(16) -1.05989(15) 2.25258(13)
O6A O -2.33068(15) -0.89935(14) 2.38242(12)
O6A_2 O 1.66932(15) 0.10065(14) 0.38242(12)
C14A C -2.2242(2) -0.9546(2) 2.29452(18)
O7A O -0.60435(17) -0.32834(15) 1.40643(13)
H15A H -0.694(3) -0.314(2) 1.455(2)
H16A H -0.574(3) -0.256(2) 1.400(2)
O8A O -0.57035(18) -0.39371(16) 1.65210(13)
H17A H -0.611(3) -0.308(2) 1.642(2)
H18A H -0.637(3) -0.422(3) 1.706(2)
O9A O 1.66278(17) -0.17963(15) 0.52902(14)
H19A H 1.743(3) -0.167(3) 0.517(2)
H20A H 1.672(3) -0.245(2) 0.500(2)
O10A O 1.50605(17) 0.08819(15) 0.64296(12)
H21A H 1.562(3) 0.041(2) 0.6821(19)
H22A H 1.419(3) 0.088(2) 0.6882(19)
O11 O -0.11388(19) -0.24904(17) 1.09144(14)
H23 H -0.127(3) -0.191(3) 1.138(2)
H24 H -0.026(3) -0.297(3) 1.084(2)
O12 O 0.2130(2) -0.49204(19) 0.84066(15)
H25 H 0.191(3) -0.565(3) 0.854(2)
H26 H 0.204(3) -0.478(3) 0.908(2)
O13 O 1.0674(2) 0.12124(19) 0.50019(19)
H27 H 1.087(4) 0.072(3) 0.454(2)
H28 H 1.009(3) 0.194(3) 0.478(2)
loop_
_geom_bond_atom_site_label_1
_geom_bond_atom_site_label_2
_geom_bond_site_symmetry_1
_geom_bond_site_symmetry_2
Zn1 O1 1_555 1_555
Zn2 O6 1_555 1_555
O1 C1 1_555 1_555
O2 C1 1_555 1_555
C1 C2 1_555 1_555
C2 H1 1_555 1_555
H2 C2 1_555 1_555
C3 C2 1_555 1_555
H3 C3 1_555 1_555
H4 C3 1_555 1_555
N1 C3 1_555 1_555
H5 N1 1_555 1_555
O3 C4 1_555 1_555
C4 N1 1_555 1_555
C5 C4 1_555 1_555
C6 C5 1_555 1_555
H6 C6 1_555 1_555
C7 C6 1_555 1_555
H7 C7 1_555 1_555
C8 C7 1_555 1_555
C9 C8 1_555 1_555
H8 C9 1_555 1_555
C10 C5 1_555 1_555
H9 C10 1_555 1_555
O4 C11 1_555 1_555
C11 C8 1_555 1_555
N2 C11 1_555 1_555
H10 N2 1_555 1_555
C12 N2 1_555 1_555
H11 C12 1_555 1_555
H12 C12 1_555 1_555
C13 C12 1_555 1_555
H13 C13 1_555 1_555
H14 C13 1_555 1_555
O5 C14 1_555 1_555
O6 C14 1_555 1_555
C14 C13 1_555 1_555
O7 Zn1 1_555 1_555
H15 O7 1_555 1_555
H16 O7 1_555 1_555
O8 Zn1 1_555 1_555
H17 O8 1_555 1_555
H18 O8 1_555 1_555
O9 Zn2 1_555 1_555
H19 O9 1_555 1_555
H20 O9 1_555 1_555
O10 Zn2 1_555 1_555
H21 O10 1_555 1_555
H22 O10 1_555 1_555
O11 H23 1_555 1_555
H24 O11 1_555 1_555
O12 H25 1_555 1_555
H26 O12 1_555 1_555
O13 H27 1_555 1_555
H28 O13 1_555 1_555
Zn2_2 O6A 1_555 1_555
O1A Zn1 1_555 1_555
O2A C1A 1_555 1_555
C1A O1A 1_555 1_555
C2A C1A 1_555 1_555
H1A C2A 1_555 1_555
H2A C2A 1_555 1_555
C3A C2A 1_555 1_555
H3A C3A 1_555 1_555
H4A C3A 1_555 1_555
N1A C3A 1_555 1_555
H5A N1A 1_555 1_555
O3A C4A 1_555 1_555
C4A N1A 1_555 1_555
C5A C4A 1_555 1_555
C6A C5A 1_555 1_555
H6A C6A 1_555 1_555
C7A C6A 1_555 1_555
H7A C7A 1_555 1_555
C8A C7A 1_555 1_555
C9A C8A 1_555 1_555
H8A C9A 1_555 1_555
C10A C5A 1_555 1_555
H9A C10A 1_555 1_555
O4A C11A 1_555 1_555
C11A C8A 1_555 1_555
N2A C11A 1_555 1_555
H10A N2A 1_555 1_555
C12A N2A 1_555 1_555
H11A C12A 1_555 1_555
H12A C12A 1_555 1_555
C13A C12A 1_555 1_555
H13A C13A 1_555 1_555
H14A C13A 1_555 1_555
O5A C14A 1_555 1_555
O6A C14A 1_555 1_555
O6A_2 Zn2 1_555 1_555
C14A C13A 1_555 1_555
O7A Zn1 1_555 1_555
H15A O7A 1_555 1_555
H16A O7A 1_555 1_555
O8A Zn1 1_555 1_555
H17A O8A 1_555 1_555
H18A O8A 1_555 1_555
O9A Zn2 1_555 1_555
H19A O9A 1_555 1_555
H20A O9A 1_555 1_555
O10A Zn2 1_555 1_555
H21A O10A 1_555 1_555
H22A O10A 1_555 1_555
C9 C10 1_555 1_555
C9A C10A 1_555 1_555

#END
