
#######################################################################
#
#                 Cambridge Crystallographic Data Centre
#                                CCDC 
#
#######################################################################
#
# If this CIF has been generated from an entry in the Cambridge 
# Structural Database, then it will include bibliographic, chemical, 
# crystal, experimental, refinement or atomic coordinate data resulting 
# from the CCDC's data processing and validation procedures.
#
#######################################################################

data_EXENAX
_symmetry_cell_setting           monoclinic
_symmetry_space_group_name_H-M   'P 21/c'
_symmetry_Int_Tables_number      14
_space_group_name_Hall           '-P 2ybc'
loop_
_symmetry_equiv_pos_site_id
_symmetry_equiv_pos_as_xyz
1 x,y,z
2 -x,1/2+y,1/2-z
3 -x,-y,-z
4 x,1/2-y,1/2+z
_cell_length_a                   7.7334(12)
_cell_length_b                   25.833(2)
_cell_length_c                   12.0623(13)
_cell_angle_alpha                90
_cell_angle_beta                 106.854(12)
_cell_angle_gamma                90
_cell_volume                     2306.26
loop_
_atom_site_label
_atom_site_type_symbol
_atom_site_fract_x
_atom_site_fract_y
_atom_site_fract_z
I1 I 0.12933(5) 0.431388(13) 0.37316(3)
I2 I 0.37997(5) 0.177002(13) 0.13893(3)
Ag1 Ag 0.49394(7) 0.391780(17) 0.32876(4)
Ag2 Ag -0.13537(6) 0.646946(16) 0.20889(4)
S1 S 0.50736(18) 0.53834(5) 0.21678(10)
S2 S 0.07867(17) 0.78543(5) 0.23450(11)
O1 O 0.4880(6) 0.56479(16) 0.3167(3)
O2 O 0.6518(6) 0.5569(2) 0.1760(4)
O3 O 0.4990(7) 0.48291(15) 0.2238(4)
O4 O 0.0215(6) 0.73663(15) 0.2689(4)
O5 O 0.2272(6) 0.78271(19) 0.1873(4)
O6 O -0.0685(6) 0.81784(15) 0.1730(4)
N1 N 0.2643(5) 0.32639(15) -0.0252(3)
N2 N 0.3074(7) 0.40927(16) 0.0466(4)
H1 H 0.3381 0.4309 0.1032
H2 H 0.2711 0.4204 -0.0235
N3 N 0.3734(5) 0.34207(16) 0.1780(3)
N4 N 0.0613(6) 0.59685(16) 0.3405(3)
N5 N 0.1894(7) 0.66485(17) 0.4609(4)
H3 H 0.2646 0.6767 0.5229
H4 H 0.1199 0.6857 0.4125
N6 N 0.2922(6) 0.58244(16) 0.5183(3)
C1 C 0.3813(7) 0.29146(19) 0.1965(4)
H5 H 0.4175 0.2794 0.2724
C2 C 0.3376(7) 0.25609(18) 0.1075(4)
C3 C 0.2784(6) 0.27563(18) -0.0041(4)
H6 H 0.2476 0.2527 -0.0661
C4 C 0.3161(6) 0.35900(18) 0.0674(4)
C5 C 0.1561(7) 0.51083(19) 0.4020(4)
C6 C 0.2775(7) 0.53167(19) 0.4987(4)
H7 H 0.3521 0.5094 0.5523
C7 C 0.1804(6) 0.61410(18) 0.4398(4)
C8 C 0.0502(7) 0.54580(19) 0.3236(4)
H8 H -0.0318 0.5331 0.2567
C9 C 0.3104(9) 0.5552(3) 0.1000(5)
C10 C 0.1716(7) 0.8191(2) 0.3714(5)
F1 F 0.2865(11) 0.6047(2) 0.0934(5)
F2 F 0.1632(6) 0.5334(3) 0.1156(4)
F3 F 0.3196(6) 0.53813(18) -0.0005(3)
F4 F 0.2412(7) 0.86386(17) 0.3541(4)
F5 F 0.0488(5) 0.8274(2) 0.4250(4)
F6 F 0.3019(5) 0.7919(2) 0.4418(3)
I2A I -0.37997(5) 0.677002(13) 0.36107(3)
Ag1B Ag 0.50606(7) 0.608220(17) 0.67124(4)
Ag2A Ag 0.13537(6) 0.146946(16) 0.29111(4)
Ag2B Ag 0.13537(6) 0.353054(16) -0.20889(4)
N1B N -0.2643(5) 0.67361(15) 0.0252(3)
N6B N 0.7078(6) 0.41756(16) 0.4817(3)
loop_
_geom_bond_atom_site_label_1
_geom_bond_atom_site_label_2
_geom_bond_site_symmetry_1
_geom_bond_site_symmetry_2
I1 Ag1 1_555 1_555
I2 C2 1_555 1_555
Ag1 O3 1_555 1_555
Ag2 O4 1_555 1_555
S1 O1 1_555 1_555
S2 O4 1_555 1_555
O2 S1 1_555 1_555
O3 S1 1_555 1_555
O5 S2 1_555 1_555
O6 S2 1_555 1_555
N1 C3 1_555 1_555
N2 H1 1_555 1_555
H2 N2 1_555 1_555
N3 Ag1 1_555 1_555
N4 Ag2 1_555 1_555
N5 H3 1_555 1_555
H4 N5 1_555 1_555
N6 C6 1_555 1_555
C1 N3 1_555 1_555
H5 C1 1_555 1_555
C2 C1 1_555 1_555
C3 C2 1_555 1_555
H6 C3 1_555 1_555
C4 N1 1_555 1_555
C5 I1 1_555 1_555
C6 C5 1_555 1_555
H7 C6 1_555 1_555
C7 N4 1_555 1_555
C8 N4 1_555 1_555
H8 C8 1_555 1_555
C9 S1 1_555 1_555
C10 S2 1_555 1_555
F1 C9 1_555 1_555
F2 C9 1_555 1_555
F3 C9 1_555 1_555
F4 C10 1_555 1_555
F5 C10 1_555 1_555
F6 C10 1_555 1_555
I2A Ag2 1_555 1_555
Ag1B N6 1_555 1_555
Ag2A I2 1_555 1_555
Ag2B N1 1_555 1_555
N1B Ag2 1_555 1_555
N6B Ag1 1_555 1_555
N2 C4 1_555 1_555
N3 C4 1_555 1_555
N5 C7 1_555 1_555
N6 C7 1_555 1_555
C5 C8 1_555 1_555

#END
