
#######################################################################
#
#                 Cambridge Crystallographic Data Centre
#                                CCDC 
#
#######################################################################
#
# If this CIF has been generated from an entry in the Cambridge 
# Structural Database, then it will include bibliographic, chemical, 
# crystal, experimental, refinement or atomic coordinate data resulting 
# from the CCDC's data processing and validation procedures.
#
#######################################################################

data_EXEQII
_symmetry_cell_setting           tetragonal
_symmetry_space_group_name_H-M   'I 41 2 2'
_symmetry_Int_Tables_number      98
_space_group_name_Hall           'I 4bw 2bw'
loop_
_symmetry_equiv_pos_site_id
_symmetry_equiv_pos_as_xyz
1 x,y,z
2 -y,1/2+x,1/4+z
3 1/2-x,1/2-y,1/2+z
4 1/2+y,-x,3/4+z
5 x,1/2-y,1/4-z
6 1/2+y,1/2+x,1/2-z
7 1/2-x,y,3/4-z
8 -y,-x,-z
9 1/2+x,1/2+y,1/2+z
10 1/2-y,x,3/4+z
11 -x,-y,z
12 y,1/2-x,1/4+z
13 1/2+x,-y,3/4-z
14 y,x,-z
15 -x,1/2+y,1/4-z
16 1/2-y,1/2-x,1/2-z
_cell_length_a                   15.347(5)
_cell_length_b                   15.347(5)
_cell_length_c                   12.3845(5)
_cell_angle_alpha                90
_cell_angle_beta                 90
_cell_angle_gamma                90
_cell_volume                     2916.93
loop_
_atom_site_label
_atom_site_type_symbol
_atom_site_fract_x
_atom_site_fract_y
_atom_site_fract_z
Sc1 Sc 0.81278(2) 0.18722(2) 0.0000
O1 O 0.71101(9) 0.09497(9) 0.00761(13)
O2 O 0.62281(11) 0.10693(11) -0.13607(11)
O3 O 0.7500 0.24796(15) -0.1250
C1 C 0.63912(15) 0.08314(15) -0.04020(17)
C2 C 0.5000 0.0000 0.1890(2)
C3 C 0.5000 0.0000 -0.0369(2)
H1 H 0.5000 0.0000 -0.1136
C4 C 0.56916(15) 0.03608(15) 0.13267(18)
H2 H 0.6172 0.0599 0.1711
C5 C 0.56888(15) 0.03775(15) 0.01954(18)
Sc1J Sc 0.18722(2) -0.18722(2) 0.0000
Sc1C Sc 0.68722(2) 0.18722(2) -0.2500
Sc1I Sc 0.31278(2) -0.18722(2) -0.2500
Sc1B Sc 0.68722(2) 0.31278(2) 0.5000
Sc1C_2 Sc 0.68722(2) 0.18722(2) 0.7500
Sc1H Sc 0.31278(2) -0.31278(2) 0.5000
Sc1I_2 Sc 0.31278(2) -0.18722(2) 0.7500
Sc1A Sc 0.81278(2) 0.31278(2) 0.2500
O1J O 0.28899(9) -0.09497(9) 0.00761(13)
O1E O 0.59497(9) 0.21101(9) 0.49239(13)
O1O O 0.40503(9) -0.21101(9) 0.49239(13)
O1G O 0.90503(9) 0.28899(9) -0.00761(13)
O1M O 0.09497(9) -0.28899(9) -0.00761(13)
O2J O 0.37719(11) -0.10693(11) -0.13607(11)
O2E O 0.60693(11) 0.12281(11) 0.63607(11)
O2O O 0.39307(11) -0.12281(11) 0.63607(11)
O2A O 0.89307(11) 0.12281(11) 0.11393(11)
O2F O 0.87719(11) 0.10693(11) -0.11393(11)
O2K O 0.10693(11) -0.12281(11) 0.11393(11)
O2L O 0.12281(11) -0.10693(11) -0.11393(11)
O3A O 0.75204(15) 0.2500 0.1250
O3J O 0.2500 -0.24796(15) -0.1250
O3K O 0.24796(15) -0.2500 0.1250
C1J C 0.36088(15) -0.08314(15) -0.04020(17)
C1E C 0.58314(15) 0.13912(15) 0.54020(17)
C1O C 0.41686(15) -0.13912(15) 0.54020(17)
C2E C 0.5000 0.0000 0.3110(2)
C3E C 0.5000 0.0000 0.5369(2)
H1E H 0.5000 0.0000 0.6136
C4J C 0.43084(15) -0.03608(15) 0.13267(18)
C4E C 0.53608(15) 0.06916(15) 0.36733(18)
C4O C 0.46392(15) -0.06916(15) 0.36733(18)
H2E H 0.5599 0.1172 0.3289
H2O H 0.4401 -0.1172 0.3289
H2J H 0.3828 -0.0599 0.1711
C5J C 0.43112(15) -0.03775(15) 0.01954(18)
C5E C 0.53775(15) 0.06888(15) 0.48046(18)
C5O C 0.46225(15) -0.06888(15) 0.48046(18)
loop_
_geom_bond_atom_site_label_1
_geom_bond_atom_site_label_2
_geom_bond_site_symmetry_1
_geom_bond_site_symmetry_2
Sc1 O1 1_555 1_555
O1 C1 1_555 1_555
O2 C1 1_555 1_555
O3 Sc1 1_555 1_555
C1 C5 1_555 1_555
C2 C4 1_555 1_555
C3 H1 1_555 1_555
C4 H2 1_555 1_555
C5 C3 1_555 1_555
Sc1J O1J 1_555 1_555
Sc1C O2 1_555 1_555
Sc1I O2J 1_555 1_555
Sc1B O1E 1_555 1_555
Sc1C_2 O2E 1_555 1_555
Sc1H O1O 1_555 1_555
Sc1I_2 O2O 1_555 1_555
Sc1A O3A 1_555 1_555
O1J C1J 1_555 1_555
O1E C1E 1_555 1_555
O1O C1O 1_555 1_555
O1G Sc1 1_555 1_555
O1M Sc1J 1_555 1_555
O2J C1J 1_555 1_555
O2E C1E 1_555 1_555
O2O C1O 1_555 1_555
O2A Sc1 1_555 1_555
O2F Sc1 1_555 1_555
O2K Sc1J 1_555 1_555
O2L Sc1J 1_555 1_555
O3A Sc1 1_555 1_555
O3J Sc1J 1_555 1_555
O3K Sc1J 1_555 1_555
C1J C5J 1_555 1_555
C1E C5E 1_555 1_555
C1O C5O 1_555 1_555
C2E C2 1_555 1_555
C3E H1E 1_555 1_555
C4J C2 1_555 1_555
C4E C2E 1_555 1_555
C4O C2E 1_555 1_555
H2E C4E 1_555 1_555
H2O C4O 1_555 1_555
H2J C4J 1_555 1_555
C5J C3 1_555 1_555
C5E C3E 1_555 1_555
C5O C3E 1_555 1_555
O3 Sc1C 1_555 1_555
C4 C5 1_555 1_555
Sc1I O3J 1_555 1_555
C4J C5J 1_555 1_555
C4E C5E 1_555 1_555
C4O C5O 1_555 1_555

#END
