
#######################################################################
#
#                 Cambridge Crystallographic Data Centre
#                                CCDC 
#
#######################################################################
#
# If this CIF has been generated from an entry in the Cambridge 
# Structural Database, then it will include bibliographic, chemical, 
# crystal, experimental, refinement or atomic coordinate data resulting 
# from the CCDC's data processing and validation procedures.
#
#######################################################################

data_EXEQIH
_symmetry_cell_setting           monoclinic
_symmetry_space_group_name_H-M   'P 21/c'
_symmetry_Int_Tables_number      14
_space_group_name_Hall           '-P 2ybc'
loop_
_symmetry_equiv_pos_site_id
_symmetry_equiv_pos_as_xyz
1 x,y,z
2 -x,1/2+y,1/2-z
3 -x,-y,-z
4 x,1/2-y,1/2+z
_cell_length_a                   12.0680(6)
_cell_length_b                   6.8056(5)
_cell_length_c                   18.0173(11)
_cell_angle_alpha                90
_cell_angle_beta                 111.383(4)
_cell_angle_gamma                90
_cell_volume                     1377.9
loop_
_atom_site_label
_atom_site_type_symbol
_atom_site_fract_x
_atom_site_fract_y
_atom_site_fract_z
Ag1 Ag 0.10554(2) -0.80047(4) -0.275653(14)
S1 S 0.22760(6) -0.83394(12) -0.35626(4)
S2 S 0.04791(7) -0.41410(12) -0.27395(5)
O1 O 0.62866(19) -0.8555(4) -0.22979(13)
O2 O 0.0388(2) -0.2295(5) -0.51846(15)
N1 N 0.4542(2) -0.8373(4) -0.33644(13)
H1 H 0.4244 -0.8334 -0.3876
N2 N 0.4156(2) -0.8522(5) -0.22034(14)
H2 H 0.4912 -0.8563 -0.1945
H3 H 0.3674 -0.8550 -0.1951
N3 N 0.1237(2) -0.3312(4) -0.38963(15)
H4 H 0.1899 -0.3682 -0.3540
N4 N -0.0720(3) -0.2525(5) -0.41495(19)
H5 H -0.0775 -0.2096 -0.4611
H6 H -0.1327 -0.2477 -0.4008
C1 C 0.6401(3) -0.8150(6) -0.3586(2)
H7 H 0.7245 -0.8167 -0.3298
H8 H 0.6178 -0.6922 -0.3863
H9 H 0.6187 -0.9209 -0.3964
C2 C 0.5769(3) -0.8386(5) -0.30174(18)
C3 C 0.3742(2) -0.8416(4) -0.29790(16)
C4 C 0.2455(3) -0.3103(6) -0.4713(2)
H10 H 0.2395 -0.2762 -0.5244
H11 H 0.2710 -0.4444 -0.4606
H12 H 0.3024 -0.2258 -0.4337
C5 C 0.1265(3) -0.2855(5) -0.46415(19)
C6 C 0.0279(3) -0.3242(4) -0.36671(18)
S2A S -0.04791(7) -0.91410(12) -0.22605(5)
Ag1A Ag -0.10554(2) -0.30047(4) -0.224347(14)
O3 O 0.4702(2) -0.7818(7) -0.04963(18)
O4 O 0.2848(2) -0.8175(5) -0.11958(14)
O5 O 0.3380(3) -0.6942(5) -0.00241(15)
N5 N 0.3664(2) -0.7646(5) -0.05624(15)
loop_
_geom_bond_atom_site_label_1
_geom_bond_atom_site_label_2
_geom_bond_site_symmetry_1
_geom_bond_site_symmetry_2
Ag1 S1 1_555 1_555
S1 C3 1_555 1_555
S2 Ag1 1_555 1_555
O1 C2 1_555 1_555
O2 C5 1_555 1_555
N1 H1 1_555 1_555
N2 H2 1_555 1_555
H3 N2 1_555 1_555
N3 H4 1_555 1_555
N4 H5 1_555 1_555
H6 N4 1_555 1_555
C1 H7 1_555 1_555
H8 C1 1_555 1_555
H9 C1 1_555 1_555
C2 N1 1_555 1_555
C3 N1 1_555 1_555
C4 H10 1_555 1_555
H11 C4 1_555 1_555
H12 C4 1_555 1_555
C5 N3 1_555 1_555
C6 S2 1_555 1_555
O3 N5 1_555 1_555
O4 N5 1_555 1_555
O5 N5 1_555 1_555
S2A Ag1 1_555 1_555
Ag1A S2 1_555 1_555
N2 C3 1_555 1_555
N3 C6 1_555 1_555
N4 C6 1_555 1_555
C1 C2 1_555 1_555
C4 C5 1_555 1_555

#END
