
#######################################################################
#
#                 Cambridge Crystallographic Data Centre
#                                CCDC 
#
#######################################################################
#
# If this CIF has been generated from an entry in the Cambridge 
# Structural Database, then it will include bibliographic, chemical, 
# crystal, experimental, refinement or atomic coordinate data resulting 
# from the CCDC's data processing and validation procedures.
#
#######################################################################

data_EXERAB
_symmetry_cell_setting           monoclinic
_symmetry_space_group_name_H-M   'C 2/c'
_symmetry_Int_Tables_number      15
_space_group_name_Hall           '-C 2yn'
loop_
_symmetry_equiv_pos_site_id
_symmetry_equiv_pos_as_xyz
1 x,y,z
2 -x,y,1/2-z
3 1/2+x,1/2+y,z
4 1/2-x,1/2+y,1/2-z
5 -x,-y,-z
6 x,-y,1/2+z
7 1/2-x,1/2-y,-z
8 1/2+x,1/2-y,1/2+z
_cell_length_a                   14.4733(3)
_cell_length_b                   10.41624(18)
_cell_length_c                   17.8260(3)
_cell_angle_alpha                90
_cell_angle_beta                 93.0942(15)
_cell_angle_gamma                90
_cell_volume                     2683.48
loop_
_atom_site_label
_atom_site_type_symbol
_atom_site_fract_x
_atom_site_fract_y
_atom_site_fract_z
Ru1 Ru 0.5000 0.5000 0.5000
Co1 Co 0.5000 0.76616(7) 0.2500
Cl1 Cl 0.5000 0.98602(12) 0.2500
O1 O 0.38333(18) 0.4080(3) 0.46566(15)
O2 O 0.35565(17) 0.7526(2) 0.22836(15)
N1 N 0.4925(2) 0.6693(3) 0.34905(16)
N2 N 0.4049(2) 0.6189(3) 0.54852(18)
N3 N 0.2098(2) 0.8274(3) 0.21208(18)
C1 C 0.4948(2) 0.6102(3) 0.4024(2)
C2 C 0.4186(3) 0.7235(4) 0.5856(2)
H1 H 0.4800 0.7551 0.5922
C3 C 0.3467(3) 0.7942(4) 0.6170(2)
H2 H 0.3602 0.8715 0.6438
C4 C 0.2559(3) 0.7495(4) 0.6085(2)
H3 H 0.2064 0.7954 0.6288
C5 C 0.2398(3) 0.6319(4) 0.5681(2)
C6 C 0.1528(3) 0.5743(5) 0.5551(2)
H4 H 0.1000 0.6103 0.5765
C7 C 0.1440(3) 0.4677(5) 0.5122(3)
H5 H 0.0842 0.4316 0.5031
C8 C 0.2189(3) 0.4087(4) 0.4807(2)
H6 H 0.2091 0.3345 0.4503
C9 C 0.3064(3) 0.4563(4) 0.4931(2)
C10 C 0.3180(3) 0.5727(4) 0.5386(2)
C11 C 0.2976(2) 0.8389(4) 0.2341(2)
H7 H 0.3177 0.9181 0.2556
C12 C 0.1429(3) 0.9284(4) 0.2250(3)
H8 H 0.1023 0.9012 0.2643
H9 H 0.1058 0.9452 0.1785
H10 H 0.1757 1.0069 0.2411
C13 C 0.1748(3) 0.7099(4) 0.1770(2)
H11 H 0.2264 0.6513 0.1694
H12 H 0.1432 0.7302 0.1285
H13 H 0.1310 0.6689 0.2097
Co1D Co 0.5000 0.23384(7) 0.7500
O1D O 0.61667(18) 0.5920(3) 0.53434(15)
O2A O 0.64435(17) 0.7526(2) 0.27164(15)
N1D N 0.5075(2) 0.3307(3) 0.65095(16)
N1A N 0.5075(2) 0.6693(3) 0.15095(16)
N2D N 0.5951(2) 0.3811(3) 0.45148(18)
N3A N 0.7902(2) 0.8274(3) 0.28792(18)
C1D C 0.5052(2) 0.3898(3) 0.5976(2)
C2D C 0.5814(3) 0.2765(4) 0.4144(2)
H1D H 0.5200 0.2449 0.4078
C3D C 0.6533(3) 0.2058(4) 0.3830(2)
H2D H 0.6398 0.1285 0.3562
C4D C 0.7441(3) 0.2505(4) 0.3915(2)
H3D H 0.7936 0.2046 0.3712
C5D C 0.7602(3) 0.3681(4) 0.4319(2)
C6D C 0.8472(3) 0.4257(5) 0.4449(2)
H4D H 0.9000 0.3897 0.4235
C7D C 0.8560(3) 0.5323(5) 0.4878(3)
H5D H 0.9158 0.5684 0.4969
C8D C 0.7811(3) 0.5913(4) 0.5193(2)
H6D H 0.7909 0.6655 0.5497
C9D C 0.6936(3) 0.5437(4) 0.5069(2)
C10D C 0.6820(3) 0.4273(4) 0.4614(2)
C11A C 0.7024(2) 0.8389(4) 0.2659(2)
H7A H 0.6823 0.9181 0.2444
C12A C 0.8571(3) 0.9284(4) 0.2750(3)
H8A H 0.8977 0.9012 0.2357
H9A H 0.8942 0.9452 0.3215
H10A H 0.8243 1.0069 0.2589
C13A C 0.8252(3) 0.7099(4) 0.3230(2)
H11A H 0.7736 0.6513 0.3306
H12A H 0.8568 0.7302 0.3715
H13A H 0.8690 0.6689 0.2903
loop_
_geom_bond_atom_site_label_1
_geom_bond_atom_site_label_2
_geom_bond_site_symmetry_1
_geom_bond_site_symmetry_2
Ru1 O1 1_555 1_555
Co1 Cl1 1_555 1_555
O1 C9 1_555 1_555
O2 Co1 1_555 1_555
N1 Co1 1_555 1_555
N2 Ru1 1_555 1_555
N3 C11 1_555 1_555
C1 Ru1 1_555 1_555
C2 N2 1_555 1_555
H1 C2 1_555 1_555
C3 C2 1_555 1_555
H2 C3 1_555 1_555
C4 C3 1_555 1_555
H3 C4 1_555 1_555
C5 C4 1_555 1_555
C6 C5 1_555 1_555
H4 C6 1_555 1_555
C7 C6 1_555 1_555
H5 C7 1_555 1_555
C8 C7 1_555 1_555
H6 C8 1_555 1_555
C9 C8 1_555 1_555
C10 N2 1_555 1_555
C11 O2 1_555 1_555
H7 C11 1_555 1_555
C12 N3 1_555 1_555
H8 C12 1_555 1_555
H9 C12 1_555 1_555
H10 C12 1_555 1_555
C13 N3 1_555 1_555
H11 C13 1_555 1_555
H12 C13 1_555 1_555
H13 C13 1_555 1_555
Co1D N1D 1_555 1_555
O1D Ru1 1_555 1_555
O2A Co1 1_555 1_555
N1D C1D 1_555 1_555
N1A Co1 1_555 1_555
N2D Ru1 1_555 1_555
N3A C11A 1_555 1_555
C1D Ru1 1_555 1_555
C2D N2D 1_555 1_555
H1D C2D 1_555 1_555
C3D C2D 1_555 1_555
H2D C3D 1_555 1_555
C4D C3D 1_555 1_555
H3D C4D 1_555 1_555
C5D C4D 1_555 1_555
C6D C5D 1_555 1_555
H4D C6D 1_555 1_555
C7D C6D 1_555 1_555
H5D C7D 1_555 1_555
C8D C7D 1_555 1_555
H6D C8D 1_555 1_555
C9D O1D 1_555 1_555
C10D N2D 1_555 1_555
C11A O2A 1_555 1_555
H7A C11A 1_555 1_555
C12A N3A 1_555 1_555
H8A C12A 1_555 1_555
H9A C12A 1_555 1_555
H10A C12A 1_555 1_555
C13A N3A 1_555 1_555
H11A C13A 1_555 1_555
H12A C13A 1_555 1_555
H13A C13A 1_555 1_555
N1 C1 1_555 1_555
C5 C10 1_555 1_555
C9 C10 1_555 1_555
C5D C10D 1_555 1_555
C8D C9D 1_555 1_555
C9D C10D 1_555 1_555

#END
