
#######################################################################
#
#                 Cambridge Crystallographic Data Centre
#                                CCDC 
#
#######################################################################
#
# If this CIF has been generated from an entry in the Cambridge 
# Structural Database, then it will include bibliographic, chemical, 
# crystal, experimental, refinement or atomic coordinate data resulting 
# from the CCDC's data processing and validation procedures.
#
#######################################################################

data_EXEROP
_symmetry_cell_setting           monoclinic
_symmetry_space_group_name_H-M   'P 21'
_symmetry_Int_Tables_number      4
_space_group_name_Hall           'P 2yb'
loop_
_symmetry_equiv_pos_site_id
_symmetry_equiv_pos_as_xyz
1 x,y,z
2 -x,1/2+y,-z
_cell_length_a                   8.806(2)
_cell_length_b                   9.5007(15)
_cell_length_c                   11.490(3)
_cell_angle_alpha                90
_cell_angle_beta                 111.951(14)
_cell_angle_gamma                90
_cell_volume                     891.6
loop_
_atom_site_label
_atom_site_type_symbol
_atom_site_fract_x
_atom_site_fract_y
_atom_site_fract_z
As1 As 0.86993(5) 0.21927(4) 1.60433(4)
Zn1 Zn 0.99306(6) 0.39648(5) 1.41758(4)
O1 O 0.8258(4) 0.3327(4) 1.4849(3)
O2 O 1.0110(4) 0.1001(3) 1.6112(3)
O3 O 0.6855(4) 0.1397(4) 1.5871(4)
H1 H 0.7032 0.0623 1.6212
O4 O 0.8821(4) 0.7504(4) 1.6335(3)
O5 O 0.7150(5) 0.8863(4) 1.6918(4)
N1 N 0.7379(5) 0.5051(4) 1.6703(4)
N2 N 0.7978(4) 0.3842(4) 1.2249(3)
C1 C 0.9434(6) 0.3224(5) 1.7581(4)
C2 C 1.0731(6) 0.2663(5) 1.8584(4)
H2 H 1.1183 0.1803 1.8498
C3 C 1.1348(7) 0.3384(6) 1.9712(4)
H3 H 1.2200 0.3001 2.0390
C4 C 1.0690(7) 0.4677(6) 1.9825(5)
H4 H 1.1118 0.5169 2.0577
C5 C 0.9404(7) 0.5243(5) 1.8829(5)
H5 H 0.8982 0.6113 1.8926
C6 C 0.8720(6) 0.4538(5) 1.7677(4)
C7 C 0.6653(6) 0.6394(5) 1.6769(5)
H6 H 0.6485 0.6438 1.7556
H7 H 0.5583 0.6436 1.6097
C8 C 0.7621(5) 0.7699(5) 1.6676(4)
C9 C 0.8304(6) 0.3368(6) 1.1277(4)
H8 H 0.9332 0.2981 1.1433
C10 C 0.7203(5) 0.3417(5) 1.0046(4)
H9 H 0.7482 0.3037 0.9407
C11 C 0.5681(5) 0.4035(5) 0.9772(4)
C12 C 0.5343(6) 0.4537(6) 1.0785(4)
H10 H 0.4341 0.4962 1.0652
C13 C 0.6504(6) 0.4404(6) 1.1999(5)
H11 H 0.6238 0.4722 1.2665
C14 C 0.4451(5) 0.4096(5) 0.8460(4)
C15 C 0.4408(6) 0.3057(6) 0.7597(4)
H12 H 0.5201 0.2355 0.7810
C16 C 0.3286(6) 0.5155(5) 0.8069(4)
H13 H 0.3296 0.5888 0.8608
C17 C 0.3170(6) 0.3077(6) 0.6415(4)
H14 H 0.3135 0.2358 0.5857
N3 N 0.2019(4) 0.4088(5) 0.6040(3)
C18 C 0.2095(6) 0.5107(5) 0.6857(4)
H15 H 0.1317 0.5821 0.6607
H16 H 0.727(7) 0.467(7) 1.595(5)
Zn1A Zn 1.00694(6) -0.10352(5) 1.58242(4)
Zn1A_2 Zn 1.00694(6) 0.89648(5) 1.58242(4)
Zn1_2 Zn -0.00694(6) 0.39648(5) 0.41758(4)
O2A O 0.9890(4) 0.6001(3) 1.3888(3)
O4A O 1.1179(4) 0.2504(4) 1.3665(3)
N3_2 N 1.2019(4) 0.4088(5) 1.6040(3)
loop_
_geom_bond_atom_site_label_1
_geom_bond_atom_site_label_2
_geom_bond_site_symmetry_1
_geom_bond_site_symmetry_2
As1 O1 1_555 1_555
Zn1 O1 1_555 1_555
O2 As1 1_555 1_555
O3 As1 1_555 1_555
H1 O3 1_555 1_555
O4 C8 1_555 1_555
O5 C8 1_555 1_555
N1 C6 1_555 1_555
N2 Zn1 1_555 1_555
C1 As1 1_555 1_555
C2 C1 1_555 1_555
H2 C2 1_555 1_555
C3 C2 1_555 1_555
H3 C3 1_555 1_555
C4 C3 1_555 1_555
H4 C4 1_555 1_555
C5 C4 1_555 1_555
H5 C5 1_555 1_555
C6 C1 1_555 1_555
C7 N1 1_555 1_555
H6 C7 1_555 1_555
H7 C7 1_555 1_555
C8 C7 1_555 1_555
C9 N2 1_555 1_555
H8 C9 1_555 1_555
C10 C9 1_555 1_555
H9 C10 1_555 1_555
C11 C10 1_555 1_555
C12 C11 1_555 1_555
H10 C12 1_555 1_555
C13 N2 1_555 1_555
H11 C13 1_555 1_555
C14 C11 1_555 1_555
C15 C14 1_555 1_555
H12 C15 1_555 1_555
C16 C14 1_555 1_555
H13 C16 1_555 1_555
C17 C15 1_555 1_555
H14 C17 1_555 1_555
N3 C17 1_555 1_555
C18 C16 1_555 1_555
H15 C18 1_555 1_555
H16 N1 1_555 1_555
Zn1A O2 1_555 1_555
Zn1A_2 O4 1_555 1_555
Zn1_2 N3 1_555 1_555
O2A Zn1 1_555 1_555
O4A Zn1 1_555 1_555
N3_2 Zn1 1_555 1_555
C5 C6 1_555 1_555
C12 C13 1_555 1_555
N3 C18 1_555 1_555

#END
