
#######################################################################
#
#                 Cambridge Crystallographic Data Centre
#                                CCDC 
#
#######################################################################
#
# If this CIF has been generated from an entry in the Cambridge 
# Structural Database, then it will include bibliographic, chemical, 
# crystal, experimental, refinement or atomic coordinate data resulting 
# from the CCDC's data processing and validation procedures.
#
#######################################################################

data_EXERIJ
_symmetry_cell_setting           monoclinic
_symmetry_space_group_name_H-M   'P 21'
_symmetry_Int_Tables_number      4
_space_group_name_Hall           'P 2yb'
loop_
_symmetry_equiv_pos_site_id
_symmetry_equiv_pos_as_xyz
1 x,y,z
2 -x,1/2+y,-z
_cell_length_a                   8.806(2)
_cell_length_b                   9.5007(15)
_cell_length_c                   11.490(3)
_cell_angle_alpha                90
_cell_angle_beta                 111.951(14)
_cell_angle_gamma                90
_cell_volume                     891.6
loop_
_atom_site_label
_atom_site_type_symbol
_atom_site_fract_x
_atom_site_fract_y
_atom_site_fract_z
As1 As 0.12986(4) 0.78061(4) -0.60432(3)
Zn1 Zn 0.00680(5) 0.60344(4) -0.41757(4)
O1 O 0.1726(3) 0.6681(3) -0.4854(2)
O2 O -0.0110(3) 0.8994(3) -0.6111(3)
O3 O 0.3136(4) 0.8609(3) -0.5868(3)
H1 H 0.2956 0.9382 -0.6209
O4 O 0.1173(3) 0.2502(3) -0.6335(2)
O5 O 0.2851(4) 0.1147(4) -0.6925(3)
N1 N 0.2609(4) 0.4945(4) -0.6707(3)
H2 H 0.3016 0.5437 -0.6032
N2 N -0.7982(4) 0.6169(4) -1.2245(3)
C1 C 0.0580(5) 0.6781(4) -0.7578(4)
C2 C -0.0725(5) 0.7347(5) -0.8579(4)
H3 H -0.1178 0.8204 -0.8489
C3 C -0.1350(6) 0.6621(5) -0.9720(4)
H4 H -0.2200 0.7001 -1.0401
C4 C -0.0684(6) 0.5332(5) -0.9815(4)
H5 H -0.1110 0.4838 -1.0567
C5 C 0.0592(6) 0.4758(5) -0.8830(4)
H6 H 0.1004 0.3885 -0.8929
C6 C 0.1284(5) 0.5463(4) -0.7677(4)
C7 C 0.3357(5) 0.3600(4) -0.6769(4)
H7 H 0.4425 0.3562 -0.6095
H8 H 0.3529 0.3556 -0.7555
C8 C 0.2375(5) 0.2290(4) -0.6677(4)
C9 C -0.8306(5) 0.6642(5) -1.1276(4)
H9 H -0.9329 0.7039 -1.1433
C10 C -0.7210(5) 0.6579(5) -1.0048(3)
H10 H -0.7492 0.6948 -0.9406
C11 C -0.5686(4) 0.5963(5) -0.9774(3)
C12 C -0.5344(6) 0.5461(5) -1.0787(4)
H11 H -0.4343 0.5035 -1.0654
C13 C -0.6495(6) 0.5597(5) -1.1994(4)
H12 H -0.6229 0.5280 -1.2660
C14 C -0.4454(5) 0.5914(5) -0.8460(3)
C15 C -0.4413(5) 0.6937(5) -0.7601(4)
H13 H -0.5211 0.7634 -0.7810
C16 C -0.3284(5) 0.4847(5) -0.8065(4)
H14 H -0.3293 0.4111 -0.8601
C17 C -0.3167(5) 0.6920(5) -0.6417(4)
H15 H -0.3133 0.7640 -0.5860
N3 N -0.2021(4) 0.5922(4) -0.6041(3)
C18 C -0.2105(5) 0.4903(5) -0.6859(4)
H16 H -0.1329 0.4187 -0.6608
Zn1A Zn -0.00680(5) 1.10344(4) -0.58243(4)
Zn1A_2 Zn -0.00680(5) 0.10344(4) -0.58243(4)
Zn1_2 Zn -0.99320(5) 0.60344(4) -1.41757(4)
O2A O 0.0110(3) 0.3994(3) -0.3889(3)
O4A O -0.1173(3) 0.7502(3) -0.3665(2)
N2_2 N 0.2018(4) 0.6169(4) -0.2245(3)
loop_
_geom_bond_atom_site_label_1
_geom_bond_atom_site_label_2
_geom_bond_site_symmetry_1
_geom_bond_site_symmetry_2
As1 O1 1_555 1_555
Zn1 O1 1_555 1_555
O2 As1 1_555 1_555
O3 As1 1_555 1_555
H1 O3 1_555 1_555
O4 C8 1_555 1_555
O5 C8 1_555 1_555
N1 H2 1_555 1_555
N2 C9 1_555 1_555
C1 As1 1_555 1_555
C2 C1 1_555 1_555
H3 C2 1_555 1_555
C3 C2 1_555 1_555
H4 C3 1_555 1_555
C4 C3 1_555 1_555
H5 C4 1_555 1_555
C5 C4 1_555 1_555
H6 C5 1_555 1_555
C6 N1 1_555 1_555
C7 N1 1_555 1_555
H7 C7 1_555 1_555
H8 C7 1_555 1_555
C8 C7 1_555 1_555
C9 H9 1_555 1_555
C10 C9 1_555 1_555
H10 C10 1_555 1_555
C11 C10 1_555 1_555
C12 C11 1_555 1_555
H11 C12 1_555 1_555
C13 N2 1_555 1_555
H12 C13 1_555 1_555
C14 C11 1_555 1_555
C15 C14 1_555 1_555
H13 C15 1_555 1_555
C16 C14 1_555 1_555
H14 C16 1_555 1_555
C17 C15 1_555 1_555
H15 C17 1_555 1_555
N3 Zn1 1_555 1_555
C18 C16 1_555 1_555
H16 C18 1_555 1_555
Zn1A O2 1_555 1_555
Zn1A_2 O4 1_555 1_555
Zn1_2 N2 1_555 1_555
O2A Zn1 1_555 1_555
O4A Zn1 1_555 1_555
N2_2 Zn1 1_555 1_555
C1 C6 1_555 1_555
C5 C6 1_555 1_555
C12 C13 1_555 1_555
C17 N3 1_555 1_555
N3 C18 1_555 1_555

#END
