
#######################################################################
#
#                 Cambridge Crystallographic Data Centre
#                                CCDC 
#
#######################################################################
#
# If this CIF has been generated from an entry in the Cambridge 
# Structural Database, then it will include bibliographic, chemical, 
# crystal, experimental, refinement or atomic coordinate data resulting 
# from the CCDC's data processing and validation procedures.
#
#######################################################################

data_EXEVUZ
_symmetry_cell_setting           monoclinic
_symmetry_space_group_name_H-M   'P 21/c'
_symmetry_Int_Tables_number      14
_space_group_name_Hall           '-P 2ybc'
loop_
_symmetry_equiv_pos_site_id
_symmetry_equiv_pos_as_xyz
1 x,y,z
2 -x,1/2+y,1/2-z
3 -x,-y,-z
4 x,1/2-y,1/2+z
_cell_length_a                   9.4974(3)
_cell_length_b                   21.6763(6)
_cell_length_c                   12.9661(4)
_cell_angle_alpha                90
_cell_angle_beta                 102.020(2)
_cell_angle_gamma                90
_cell_volume                     2610.79
loop_
_atom_site_label
_atom_site_type_symbol
_atom_site_fract_x
_atom_site_fract_y
_atom_site_fract_z
Zn1 Zn 0.57432(4) -0.00792(2) 0.40746(4)
S1 S 0.74159(11) -0.15019(5) 0.80006(9)
S2 S 1.11557(11) -0.34260(5) 0.95765(9)
O1 O 0.6713(3) -0.06634(14) 0.5262(3)
O2 O 0.5709(3) -0.05509(13) 0.6663(2)
O3 O 1.4250(3) -0.42536(13) 0.8537(2)
O4 O 1.3292(3) -0.43729(13) 0.9958(2)
N1 N 0.7275(3) -0.01602(15) 0.3211(3)
C1 C 0.9305(4) -0.20373(19) 0.7089(3)
C2 C 1.0337(4) -0.28646(19) 0.8684(3)
C3 C 1.0929(4) -0.28580(19) 0.7768(3)
C4 C 0.7557(4) -0.12711(18) 0.6740(3)
C5 C 1.2287(4) -0.36317(19) 0.8743(3)
C6 C 0.6584(4) -0.07878(18) 0.6184(3)
C7 C 1.2066(4) -0.3306(2) 0.7836(4)
C8 C 1.0403(4) -0.24391(19) 0.6972(3)
C9 C 0.8580(4) -0.1580(2) 0.6362(4)
C10 C 0.9260(4) -0.2466(2) 0.8830(4)
C11 C 1.3364(4) -0.41271(17) 0.9098(3)
C12 C 0.8765(4) -0.20530(19) 0.8020(3)
C13 C 0.7058(5) -0.0425(3) 0.2277(4)
C14 C 0.8617(5) 0.0029(2) 0.3609(4)
C15 C 0.9489(5) -0.0318(2) 0.2126(4)
C16 C 1.1839(5) -0.0800(3) 0.0157(4)
C17 C 0.9730(5) -0.0039(2) 0.3095(5)
C18 C 1.0699(6) -0.0393(3) 0.1582(5)
C19 C 0.8110(6) -0.0518(3) 0.1718(5)
H1 H 0.7895 -0.0714 0.1067
C20 C 1.1635(6) -0.1063(3) -0.0829(5)
H2 H 1.0712 -0.1169 -0.1185
N2 N 1.4361(5) -0.0769(4) 0.0210(5)
C21 C 1.3246(6) -0.0666(4) 0.0629(5)
H3 H 1.3413 -0.0489 0.1297
C22 C 1.0633(6) -0.0694(3) 0.0683(5)
C23 C 1.2771(7) -0.1167(4) -0.1279(6)
H4 H 1.2638 -0.1347 -0.1944
C24 C 1.4089(7) -0.1010(4) -0.0758(6)
H5 H 1.4858 -0.1072 -0.1089
H6 H 1.254(4) -0.3376(17) 0.733(3)
H7 H 0.873(4) -0.1512(17) 0.570(3)
H8 H 1.070(4) -0.2437(18) 0.635(3)
H9 H 0.886(5) -0.248(2) 0.949(4)
H10 H 0.624(6) -0.052(2) 0.205(4)
H11 H 0.883(6) 0.019(2) 0.434(5)
H12 H 1.179(6) -0.011(3) 0.200(5)
H13 H 1.078(7) 0.009(3) 0.340(5)
H14 H 0.964(7) -0.088(3) 0.014(5)
Zn1B Zn 0.42568(4) 0.00792(2) 0.59254(4)
Zn1C Zn 1.57432(4) -0.49208(2) 0.90746(4)
Zn1A Zn 1.42568(4) -0.50792(2) 1.09254(4)
O2B O 0.4291(3) 0.05509(13) 0.3337(2)
O3C O 0.4250(3) -0.07464(13) 0.3537(2)
O4A O 0.6708(3) 0.06271(13) 0.5042(2)
O5 O 0.2488(5) 0.1853(2) -0.0384(4)
C25 C 0.3369(7) 0.1993(3) -0.0914(6)
H15 H 0.3263 0.1808 -0.1572
N3 N 0.4443(6) 0.2379(3) -0.0644(6)
C26 C 0.5464(9) 0.2513(6) -0.1250(9)
H16 H 0.5253 0.2278 -0.1892
H17 H 0.6407 0.2407 -0.0860
H18 H 0.5431 0.2945 -0.1414
C27 C 0.4652(10) 0.2669(4) 0.0382(8)
H19 H 0.3805 0.2613 0.0666
H20 H 0.4829 0.3101 0.0314
H21 H 0.5462 0.2484 0.0846
loop_
_geom_bond_atom_site_label_1
_geom_bond_atom_site_label_2
_geom_bond_site_symmetry_1
_geom_bond_site_symmetry_2
Zn1 O1 1_555 1_555
S1 C4 1_555 1_555
S2 C2 1_555 1_555
O1 C6 1_555 1_555
O2 C6 1_555 1_555
O3 C11 1_555 1_555
O4 C11 1_555 1_555
N1 Zn1 1_555 1_555
C1 C8 1_555 1_555
C2 C3 1_555 1_555
C3 C7 1_555 1_555
C4 C6 1_555 1_555
C5 S2 1_555 1_555
C7 C5 1_555 1_555
C8 C3 1_555 1_555
C9 C1 1_555 1_555
C10 C2 1_555 1_555
C11 C5 1_555 1_555
C12 S1 1_555 1_555
C13 N1 1_555 1_555
C14 N1 1_555 1_555
C15 C17 1_555 1_555
C16 C20 1_555 1_555
C17 C14 1_555 1_555
C18 C15 1_555 1_555
C19 C13 1_555 1_555
H1 C19 1_555 1_555
C20 H2 1_555 1_555
N2 C21 1_555 1_555
C21 C16 1_555 1_555
H3 C21 1_555 1_555
C22 C16 1_555 1_555
C23 C20 1_555 1_555
H4 C23 1_555 1_555
C24 N2 1_555 1_555
H5 C24 1_555 1_555
H6 C7 1_555 1_555
H7 C9 1_555 1_555
H8 C8 1_555 1_555
H9 C10 1_555 1_555
H10 C13 1_555 1_555
H11 C14 1_555 1_555
H12 C18 1_555 1_555
H13 C17 1_555 1_555
H14 C22 1_555 1_555
O5 C25 1_555 1_555
C25 H15 1_555 1_555
N3 C25 1_555 1_555
C26 N3 1_555 1_555
H16 C26 1_555 1_555
H17 C26 1_555 1_555
H18 C26 1_555 1_555
C27 N3 1_555 1_555
H19 C27 1_555 1_555
H20 C27 1_555 1_555
H21 C27 1_555 1_555
Zn1B O2 1_555 1_555
Zn1C O3 1_555 1_555
Zn1A O4 1_555 1_555
O2B Zn1 1_555 1_555
O3C Zn1 1_555 1_555
O4A Zn1 1_555 1_555
C1 C12 1_555 1_555
C4 C9 1_555 1_555
C10 C12 1_555 1_555
C15 C19 1_555 1_555
C18 C22 1_555 1_555
C23 C24 1_555 1_555

#END
