
#######################################################################
#
#                 Cambridge Crystallographic Data Centre
#                                CCDC 
#
#######################################################################
#
# If this CIF has been generated from an entry in the Cambridge 
# Structural Database, then it will include bibliographic, chemical, 
# crystal, experimental, refinement or atomic coordinate data resulting 
# from the CCDC's data processing and validation procedures.
#
#######################################################################

data_EXEVIN
_symmetry_cell_setting           monoclinic
_symmetry_space_group_name_H-M   'P 21/n'
_symmetry_Int_Tables_number      14
_space_group_name_Hall           '-P 2yn'
loop_
_symmetry_equiv_pos_site_id
_symmetry_equiv_pos_as_xyz
1 x,y,z
2 1/2-x,1/2+y,1/2-z
3 -x,-y,-z
4 1/2+x,1/2-y,1/2+z
_cell_length_a                   15.5512(6)
_cell_length_b                   27.1712(11)
_cell_length_c                   15.9056(9)
_cell_angle_alpha                90
_cell_angle_beta                 102.285(5)
_cell_angle_gamma                90
_cell_volume                     6566.93
loop_
_atom_site_label
_atom_site_type_symbol
_atom_site_fract_x
_atom_site_fract_y
_atom_site_fract_z
Zn1 Zn 0.86002(4) 0.09664(2) 0.93628(5)
S1 S 1.10850(8) 0.32168(5) 0.51840(9)
S2 S 0.90586(8) 0.20711(7) 0.69350(12)
O1 O 0.9658(2) 0.12196(12) 0.8933(3)
O2 O 1.3638(2) 0.33146(13) 0.5377(3)
O3 O 1.2519(2) 0.37433(12) 0.4633(2)
O4 O 0.8397(2) 0.13470(15) 0.8035(3)
N1 N 0.9193(3) 0.05482(16) 1.0434(3)
C1 C 1.0026(3) 0.2646(2) 0.6029(4)
H1 H 0.9516 0.2788 0.5709
C2 C 1.1629(3) 0.25657(18) 0.6380(3)
C3 C 1.0855(3) 0.27806(18) 0.5903(3)
C4 C 0.9995(3) 0.2301(2) 0.6639(4)
C5 C 1.0756(3) 0.20634(17) 0.7125(3)
C6 C 1.2841(3) 0.34088(18) 0.5166(4)
N2 N 0.8185(3) 0.02700(15) 0.8940(3)
C7 C 1.1583(3) 0.22052(18) 0.6999(4)
H2 H 1.2093 0.2063 0.7319
C8 C 1.2395(3) 0.27724(18) 0.6151(4)
H3 H 1.2966 0.2678 0.6405
C9 C 0.8136(5) -0.0575(2) 0.9334(6)
H4 H 0.8291 -0.0821 0.9745
C10 C 1.0549(3) 0.17251(17) 0.7729(3)
H5 H 1.0969 0.1544 0.8107
C11 C 1.2206(3) 0.31167(18) 0.5534(3)
C12 C 0.9684(3) 0.16939(19) 0.7699(4)
C13 C 0.8421(4) -0.00827(19) 0.9530(5)
C14 C 0.8971(4) 0.00652(19) 1.0361(4)
C15 C 0.9699(4) 0.0711(2) 1.1144(4)
H6 H 0.9850 0.1043 1.1181
C16 C 0.7700(4) 0.0155(2) 0.8174(5)
H7 H 0.7550 0.0404 0.7768
C17 C 0.7407(5) -0.0315(3) 0.7951(6)
H8 H 0.7060 -0.0381 0.7410
C18 C 0.9260(5) -0.0249(3) 1.1041(5)
H9 H 0.9093 -0.0578 1.1001
C19 C 0.7639(6) -0.0686(3) 0.8549(7)
H10 H 0.7456 -0.1007 0.8415
C20 C 1.0024(4) 0.0406(3) 1.1852(5)
H11 H 1.0383 0.0527 1.2353
C21 C 0.9785(6) -0.0077(3) 1.1765(6)
H12 H 0.9989 -0.0294 1.2217
C22 C 0.9224(4) 0.13987(18) 0.8258(4)
Zn1C Zn 1.36002(4) 0.40336(2) 0.43628(5)
O2C O 0.8638(2) 0.16854(13) 1.0377(3)
O3C O 0.7519(2) 0.12567(12) 0.9633(2)
Zn2 Zn 0.33778(6) 0.10107(3) 0.87812(7)
S3 S 0.76913(9) 0.24753(7) 0.53343(12)
S4 S 0.58074(10) 0.13774(7) 0.72820(14)
O5 O 0.3360(2) 0.14180(13) 0.7565(3)
O6 O 0.7201(2) 0.37169(13) 0.4064(3)
O7 O 0.4537(3) 0.10809(17) 0.8339(3)
O8 O 0.8424(2) 0.32930(15) 0.4514(2)
C23 C 0.6049(3) 0.25989(19) 0.5447(3)
C24 C 0.5219(3) 0.20946(19) 0.6220(3)
C25 C 0.7107(3) 0.2995(2) 0.4860(3)
C26 C 0.6275(3) 0.30089(18) 0.4959(3)
H13 H 0.5882 0.3258 0.4737
C27 C 0.5268(3) 0.24932(18) 0.5690(3)
H14 H 0.4775 0.2690 0.5499
C28 C 0.7597(4) 0.3355(2) 0.4454(4)
C29 C 0.4161(4) 0.1336(2) 0.7692(4)
C30 C 0.5978(3) 0.1808(2) 0.6524(4)
C31 C 0.4719(3) 0.1560(2) 0.7157(4)
C32 C 0.4504(3) 0.19269(19) 0.6588(3)
H15 H 0.3941 0.2061 0.6444
C33 C 0.6777(3) 0.2275(2) 0.5711(4)
C34 C 0.6764(4) 0.1881(3) 0.6267(5)
H16 H 0.7251 0.1680 0.6453
N3 N 0.3975(4) 0.0586(2) 1.0014(5)
C35 C 0.3271(3) -0.00223(19) 0.9140(4)
C36 C 0.2521(4) 0.0266(3) 0.7734(5)
H17 H 0.2378 0.0532 0.7361
C37 C 0.4064(4) -0.0234(2) 1.0607(5)
H18 H 0.3950 -0.0570 1.0583
N4 N 0.3000(4) 0.0310(3) 0.8510(5)
C38 C 0.2486(5) -0.0579(3) 0.8109(6)
H19 H 0.2299 -0.0899 0.7969
C39 C 0.3745(4) 0.0124(3) 0.9852(5)
C40 C 0.2974(5) -0.0546(3) 0.8898(6)
H20 H 0.3118 -0.0814 0.9265
C41 C 0.4515(5) -0.0007(4) 1.1284(7)
H21 H 0.4712 -0.0221 1.1740
C42 C 0.2205(5) -0.0272(4) 0.7482(6)
H22 H 0.1861 -0.0362 0.6952
C43 C 0.4759(5) 0.0448(4) 1.1477(5)
H23 H 0.5088 0.0547 1.2009
C44 C 0.4439(5) 0.0799(3) 1.0723(6)
H24 H 0.4558 0.1134 1.0757
Zn2C Zn 0.83778(6) 0.39893(3) 0.37812(7)
O6C O 0.2201(2) 0.12831(13) 0.9064(3)
O8C O 0.3424(2) 0.17070(15) 0.9514(2)
loop_
_geom_bond_atom_site_label_1
_geom_bond_atom_site_label_2
_geom_bond_site_symmetry_1
_geom_bond_site_symmetry_2
Zn1 O1 1_555 1_555
S1 C3 1_555 1_555
S2 C4 1_555 1_555
O1 C22 1_555 1_555
O2 C6 1_555 1_555
O3 C6 1_555 1_555
O4 Zn1 1_555 1_555
N1 Zn1 1_555 1_555
C1 H1 1_555 1_555
C2 C3 1_555 1_555
C3 C1 1_555 1_555
C4 C1 1_555 1_555
C5 C4 1_555 1_555
C6 C11 1_555 1_555
N2 Zn1 1_555 1_555
C7 C2 1_555 1_555
H2 C7 1_555 1_555
C8 C2 1_555 1_555
H3 C8 1_555 1_555
C9 H4 1_555 1_555
C10 C5 1_555 1_555
H5 C10 1_555 1_555
C11 S1 1_555 1_555
C12 S2 1_555 1_555
C13 N2 1_555 1_555
C14 N1 1_555 1_555
C15 N1 1_555 1_555
H6 C15 1_555 1_555
C16 N2 1_555 1_555
H7 C16 1_555 1_555
C17 C16 1_555 1_555
H8 C17 1_555 1_555
C18 C14 1_555 1_555
H9 C18 1_555 1_555
C19 C9 1_555 1_555
H10 C19 1_555 1_555
C20 C15 1_555 1_555
H11 C20 1_555 1_555
C21 C18 1_555 1_555
H12 C21 1_555 1_555
C22 O4 1_555 1_555
Zn2 O5 1_555 1_555
S3 C25 1_555 1_555
S4 C30 1_555 1_555
O5 C29 1_555 1_555
O6 C28 1_555 1_555
O7 Zn2 1_555 1_555
O8 C28 1_555 1_555
C23 C26 1_555 1_555
C24 C27 1_555 1_555
C25 C26 1_555 1_555
C26 H13 1_555 1_555
C27 C23 1_555 1_555
H14 C27 1_555 1_555
C28 C25 1_555 1_555
C29 O7 1_555 1_555
C30 C24 1_555 1_555
C31 S4 1_555 1_555
C32 C24 1_555 1_555
H15 C32 1_555 1_555
C33 S3 1_555 1_555
C34 C30 1_555 1_555
H16 C34 1_555 1_555
N3 Zn2 1_555 1_555
C35 N4 1_555 1_555
C36 H17 1_555 1_555
C37 H18 1_555 1_555
N4 Zn2 1_555 1_555
C38 H19 1_555 1_555
C39 N3 1_555 1_555
C40 C35 1_555 1_555
H20 C40 1_555 1_555
C41 C37 1_555 1_555
H21 C41 1_555 1_555
C42 C36 1_555 1_555
H22 C42 1_555 1_555
C43 C41 1_555 1_555
H23 C43 1_555 1_555
C44 N3 1_555 1_555
H24 C44 1_555 1_555
Zn1C O2 1_555 1_555
O2C Zn1 1_555 1_555
O3C Zn1 1_555 1_555
Zn2C O6 1_555 1_555
O6C Zn2 1_555 1_555
O8C Zn2 1_555 1_555
O3 Zn1C 1_555 1_555
C5 C7 1_555 1_555
C8 C11 1_555 1_555
C9 C13 1_555 1_555
C10 C12 1_555 1_555
C12 C22 1_555 1_555
C13 C14 1_555 1_555
C17 C19 1_555 1_555
C20 C21 1_555 1_555
O8 Zn2C 1_555 1_555
C23 C33 1_555 1_555
C29 C31 1_555 1_555
C31 C32 1_555 1_555
C33 C34 1_555 1_555
C35 C39 1_555 1_555
C36 N4 1_555 1_555
C37 C39 1_555 1_555
C38 C40 1_555 1_555
C38 C42 1_555 1_555
C43 C44 1_555 1_555

#END
