
#######################################################################
#
#                 Cambridge Crystallographic Data Centre
#                                CCDC 
#
#######################################################################
#
# If this CIF has been generated from an entry in the Cambridge 
# Structural Database, then it will include bibliographic, chemical, 
# crystal, experimental, refinement or atomic coordinate data resulting 
# from the CCDC's data processing and validation procedures.
#
#######################################################################

data_EXEWUA
_symmetry_cell_setting           triclinic
_symmetry_space_group_name_H-M   'P -1'
_symmetry_Int_Tables_number      2
_space_group_name_Hall           '-P 1'
loop_
_symmetry_equiv_pos_site_id
_symmetry_equiv_pos_as_xyz
1 x,y,z
2 -x,-y,-z
_cell_length_a                   14.6278(9)
_cell_length_b                   16.2831(11)
_cell_length_c                   22.9595(14)
_cell_angle_alpha                109.887(6)
_cell_angle_beta                 97.011(5)
_cell_angle_gamma                97.779(5)
_cell_volume                     5011.57
loop_
_atom_site_label
_atom_site_type_symbol
_atom_site_fract_x
_atom_site_fract_y
_atom_site_fract_z
Zn1 Zn 0.58431(8) 0.56607(8) 0.50124(6)
Zn2 Zn 1.10977(9) 0.22027(8) 0.94268(6)
S1 S 0.82470(18) 0.27687(17) 0.83485(12)
S2 S 0.33826(18) 1.05368(16) 0.83483(12)
S3 S 0.48490(18) 0.78773(17) 0.66825(13)
S4 S 0.58958(18) 0.3729(2) 0.66911(13)
O1 O 1.0968(5) 0.2880(5) 0.8625(3)
O2 O 0.5092(5) 0.6311(4) 0.5674(3)
O3 O 0.0817(5) 1.0716(4) 0.8623(3)
O4 O 0.6400(5) 0.5193(5) 0.5675(3)
O5 O 0.2171(5) 1.1581(4) 0.9143(3)
O6 O 0.3806(5) 0.5378(4) 0.5659(3)
O7 O 0.9886(5) 0.2536(4) 0.9146(3)
C1 C 0.2212(7) 1.0213(6) 0.8363(4)
O8 O 0.5107(5) 0.4257(5) 0.5676(3)
C2 C 0.8737(7) 0.3717(6) 0.7678(5)
C3 C 0.2533(6) 0.8906(6) 0.7670(4)
C4 C 0.3381(6) 0.9478(6) 0.7810(4)
N1 N 1.0640(6) 0.1683(5) 1.0072(4)
N2 N 1.1905(6) 0.3381(5) 1.0052(4)
C5 C 0.4158(7) 0.9229(6) 0.7534(4)
H1 H 0.4723 0.9625 0.7624
C6 C 0.2420(7) 0.8032(6) 0.7253(4)
H2 H 0.1853 0.7639 0.7162
C7 C 0.1686(8) 1.0859(7) 0.8723(4)
C8 C 0.4028(6) 0.8355(6) 0.7120(5)
C9 C 0.6487(7) 0.4393(6) 0.6327(4)
C10 C 0.8612(7) 0.4150(7) 0.7258(5)
H3 H 0.9131 0.4438 0.7159
C11 C 1.0143(7) 0.2832(6) 0.8735(5)
C12 C 0.4352(7) 0.6094(7) 0.5846(4)
C13 C 0.7717(6) 0.4155(6) 0.6985(4)
C14 C 0.7931(7) 0.3280(6) 0.7817(4)
C15 C 0.4058(7) 0.6868(6) 0.6331(4)
C16 C 0.6939(7) 0.3697(7) 0.7120(5)
C17 C 0.3179(6) 0.7759(6) 0.6974(4)
C18 C 0.1847(7) 0.9356(6) 0.8002(4)
H4 H 0.1232 0.9084 0.7969
C19 C 0.3215(7) 0.6894(6) 0.6522(4)
H5 H 0.2718 0.6412 0.6378
C20 C 0.7456(6) 0.4562(7) 0.6548(5)
H6 H 0.7888 0.4908 0.6420
C21 C 1.2767(8) 0.3639(8) 1.0047(5)
H7 H 1.3070 0.3263 0.9765
C22 C 0.9586(7) 0.3597(6) 0.7987(4)
H8 H 1.0180 0.3827 0.7941
C23 C 0.5948(8) 0.4636(7) 0.5858(5)
C24 C 0.9434(7) 0.3106(6) 0.8359(4)
C25 C 0.9772(9) 0.1423(7) 1.0066(5)
H9 H 0.9324 0.1520 0.9784
C26 C 0.7033(7) 0.3270(7) 0.7550(5)
H10 H 0.6512 0.2990 0.7652
C27 C 0.9475(10) 0.1007(9) 1.0459(6)
H11 H 0.8837 0.0834 1.0443
C28 C 1.0113(12) 0.0848(10) 1.0870(6)
H12 H 0.9927 0.0563 1.1137
C29 C 1.1473(10) 0.3933(8) 1.0455(6)
H13 H 1.0853 0.3737 1.0472
C30 C 1.2832(11) 0.5050(8) 1.0863(6)
H14 H 1.3159 0.5603 1.1141
C31 C 1.1280(9) 0.1530(9) 1.0466(6)
H15 H 1.1912 0.1702 1.0466
C32 C 1.3268(10) 0.4479(9) 1.0459(6)
H16 H 1.3900 0.4645 1.0455
C33 C 1.1031(14) 0.1124(11) 1.0875(7)
H17 H 1.1492 0.1039 1.1154
C34 C 1.1918(13) 0.4790(10) 1.0848(7)
H18 H 1.1585 0.5177 1.1096
C35 C 0.7645(6) 0.6653(6) 0.4996(4)
H19 H 0.7847 0.6114 0.4920
C36 C 0.8336(9) 0.7348(8) 0.5018(5)
H20 H 0.8867 0.7239 0.4841
N3 N 0.6729(8) 0.6613(10) 0.5067(5)
C37 C 0.8211(10) 0.8135(11) 0.5288(9)
H21 H 0.8687 0.8610 0.5342
C38 C 0.6683(10) 0.7537(11) 0.5425(8)
H22 H 0.6160 0.7613 0.5616
C39 C 0.7309(13) 0.8326(11) 0.5525(12)
H23 H 0.7186 0.8893 0.5712
Zn1A Zn 0.41569(8) 0.43393(8) 0.49876(6)
Zn2_2 Zn 0.10977(9) 1.22027(8) 0.94268(6)
O3_2 O 1.0817(5) 0.0716(4) 0.8623(3)
O5_2 O 1.2171(5) 0.1581(4) 0.9143(3)
O6A O 0.6194(5) 0.4622(4) 0.4341(3)
O8A O 0.4893(5) 0.5743(5) 0.4324(3)
Zn3 Zn 0.08466(8) 0.56626(8) 0.50113(6)
Zn4 Zn 0.60980(9) 0.22027(8) 0.94265(6)
S5 S -0.16185(18) 1.05360(15) 0.83478(12)
S6 S 0.32471(18) 0.27687(17) 0.83492(12)
S7 S -0.01492(18) 0.78759(17) 0.66846(13)
S8 S 0.08905(18) 0.3728(2) 0.66927(13)
O9 O 0.5972(5) 0.2874(5) 0.8623(3)
O10 O -0.4184(5) 1.0717(4) 0.8621(3)
O11 O 0.4889(5) 0.2538(4) 0.9148(3)
O12 O 0.0095(5) 0.6309(5) 0.5675(3)
O13 O -0.2829(5) 1.1586(4) 0.9146(3)
O14 O -0.1195(5) 0.5372(4) 0.5655(3)
O15 O 0.1396(4) 0.5190(5) 0.5675(3)
N4 N 0.6908(6) 0.3377(5) 1.0060(4)
C40 C -0.3310(7) 1.0867(7) 0.8726(5)
C41 C -0.0664(7) 0.6088(7) 0.5841(4)
O16 O 0.0112(5) 0.4264(5) 0.5681(3)
C42 C -0.0989(7) 0.8348(6) 0.7106(4)
C43 C -0.1614(7) 0.9474(6) 0.7803(4)
C44 C -0.0832(6) 0.9217(7) 0.7533(4)
H24 H -0.0256 0.9601 0.7634
C45 C 0.3730(6) 0.3712(6) 0.7677(4)
C46 C 0.5147(7) 0.2829(6) 0.8729(4)
N5 N 0.5631(6) 0.1677(5) 1.0060(4)
C47 C -0.2793(6) 1.0212(6) 0.8364(4)
C48 C -0.2467(6) 0.8907(6) 0.7674(4)
C49 C -0.2582(6) 0.8040(6) 0.7254(4)
H25 H -0.3155 0.7654 0.7158
C50 C -0.0934(7) 0.6866(6) 0.6335(4)
N6 N 0.1825(5) 0.6745(5) 0.5126(5)
C51 C 0.1495(6) 0.4370(7) 0.6378(6)
C52 C 0.2715(7) 0.4160(6) 0.6988(5)
C53 C 0.1948(7) 0.3696(6) 0.7123(5)
C54 C 0.2947(7) 0.3285(6) 0.7819(5)
C55 C -0.1834(6) 0.7755(6) 0.6979(4)
C56 C -0.1786(6) 0.6899(6) 0.6521(4)
H26 H -0.2287 0.6419 0.6368
C57 C 0.2444(7) 0.4550(6) 0.6529(4)
H27 H 0.2850 0.4869 0.6366
C58 C 0.2041(7) 0.3263(7) 0.7555(5)
H28 H 0.1523 0.2979 0.7657
C59 C -0.3148(6) 0.9354(6) 0.8004(4)
H29 H -0.3762 0.9079 0.7971
C60 C 0.3620(7) 0.4156(7) 0.7252(4)
H30 H 0.4138 0.4440 0.7151
C61 C 0.0946(7) 0.4617(7) 0.5864(5)
C62 C 0.4584(7) 0.3595(6) 0.7984(4)
H31 H 0.5175 0.3825 0.7935
C63 C 0.7747(9) 0.3638(8) 1.0049(6)
H32 H 0.8038 0.3262 0.9758
C64 C 0.4756(9) 0.1421(8) 1.0070(5)
H33 H 0.4299 0.1521 0.9796
C65 C 0.4445(6) 0.3108(6) 0.8358(4)
C66 C 0.6452(10) 0.3930(8) 1.0458(6)
H34 H 0.5827 0.3742 1.0468
C67 C 0.5135(11) 0.0856(9) 1.0879(6)
H35 H 0.4963 0.0582 1.1155
C68 C 0.4471(10) 0.1006(9) 1.0469(6)
H36 H 0.3836 0.0830 1.0461
C69 C 0.7830(11) 0.5046(8) 1.0855(6)
H37 H 0.8154 0.5606 1.1121
C70 C 0.6259(10) 0.1533(9) 1.0454(6)
H38 H 0.6888 0.1723 1.0454
C71 C 0.6052(11) 0.1120(11) 1.0867(7)
H39 H 0.6527 0.1025 1.1131
C72 C 0.8277(10) 0.4470(9) 1.0453(6)
H40 H 0.8911 0.4625 1.0449
C73 C 0.6926(13) 0.4794(9) 1.0859(6)
H41 H 0.6610 0.5180 1.1123
C74 C 0.2684(6) 0.6671(7) 0.4997(5)
H42 H 0.2833 0.6107 0.4862
C75 C 0.3338(7) 0.7361(8) 0.5050(5)
H43 H 0.3925 0.7257 0.4962
C76 C 0.3198(11) 0.8144(10) 0.5213(14)
H44 H 0.3593 0.8592 0.5150
C77 C 0.1712(12) 0.7565(7) 0.5427(9)
H45 H 0.1157 0.7624 0.5583
C78 C 0.2315(12) 0.8327(10) 0.5532(10)
H46 H 0.2220 0.8890 0.5764
Zn3A Zn -0.08466(8) 0.43374(8) 0.49887(6)
Zn4_2 Zn -0.39020(9) 1.22027(8) 0.94265(6)
O10_2 O 0.5816(5) 0.0717(4) 0.8621(3)
O13_2 O 0.7171(5) 0.1586(4) 0.9146(3)
O14A O 0.1195(5) 0.4628(4) 0.4345(3)
O16A O -0.0112(5) 0.5736(5) 0.4319(3)
loop_
_geom_bond_atom_site_label_1
_geom_bond_atom_site_label_2
_geom_bond_site_symmetry_1
_geom_bond_site_symmetry_2
Zn1 O2 1_555 1_555
Zn2 O1 1_555 1_555
S1 C14 1_555 1_555
S2 C1 1_555 1_555
S3 C8 1_555 1_555
S4 C9 1_555 1_555
O1 C11 1_555 1_555
O2 C12 1_555 1_555
O3 C7 1_555 1_555
O4 Zn1 1_555 1_555
O5 C7 1_555 1_555
O6 C12 1_555 1_555
O7 Zn2 1_555 1_555
C1 C7 1_555 1_555
O8 C23 1_555 1_555
C2 C10 1_555 1_555
C3 C4 1_555 1_555
C4 S2 1_555 1_555
N1 Zn2 1_555 1_555
N2 Zn2 1_555 1_555
C5 C4 1_555 1_555
H1 C5 1_555 1_555
C6 C3 1_555 1_555
H2 C6 1_555 1_555
C8 C5 1_555 1_555
C9 C20 1_555 1_555
C10 H3 1_555 1_555
C11 O7 1_555 1_555
C12 C15 1_555 1_555
C13 C10 1_555 1_555
C14 C2 1_555 1_555
C15 S3 1_555 1_555
C16 S4 1_555 1_555
C17 C6 1_555 1_555
C18 C1 1_555 1_555
H4 C18 1_555 1_555
C19 C15 1_555 1_555
H5 C19 1_555 1_555
C20 C13 1_555 1_555
H6 C20 1_555 1_555
C21 N2 1_555 1_555
H7 C21 1_555 1_555
C22 C2 1_555 1_555
H8 C22 1_555 1_555
C23 O4 1_555 1_555
C24 S1 1_555 1_555
C25 N1 1_555 1_555
H9 C25 1_555 1_555
C26 C14 1_555 1_555
H10 C26 1_555 1_555
C27 C25 1_555 1_555
H11 C27 1_555 1_555
C28 C27 1_555 1_555
H12 C28 1_555 1_555
C29 N2 1_555 1_555
H13 C29 1_555 1_555
C30 H14 1_555 1_555
C31 N1 1_555 1_555
H15 C31 1_555 1_555
C32 C21 1_555 1_555
H16 C32 1_555 1_555
C33 C28 1_555 1_555
H17 C33 1_555 1_555
C34 C29 1_555 1_555
H18 C34 1_555 1_555
C35 H19 1_555 1_555
C36 C35 1_555 1_555
H20 C36 1_555 1_555
N3 Zn1 1_555 1_555
C37 C36 1_555 1_555
H21 C37 1_555 1_555
C38 N3 1_555 1_555
H22 C38 1_555 1_555
C39 C37 1_555 1_555
H23 C39 1_555 1_555
Zn3 O12 1_555 1_555
Zn4 O9 1_555 1_555
S5 C43 1_555 1_555
S6 C54 1_555 1_555
S7 C42 1_555 1_555
S8 C51 1_555 1_555
O9 C46 1_555 1_555
O10 C40 1_555 1_555
O11 Zn4 1_555 1_555
O12 C41 1_555 1_555
O13 C40 1_555 1_555
O14 C41 1_555 1_555
O15 Zn3 1_555 1_555
N4 Zn4 1_555 1_555
C40 C47 1_555 1_555
C41 C50 1_555 1_555
O16 C61 1_555 1_555
C42 C44 1_555 1_555
C43 C44 1_555 1_555
C44 H24 1_555 1_555
C45 C54 1_555 1_555
C46 O11 1_555 1_555
N5 Zn4 1_555 1_555
C47 S5 1_555 1_555
C48 C43 1_555 1_555
C49 C48 1_555 1_555
H25 C49 1_555 1_555
C50 S7 1_555 1_555
N6 Zn3 1_555 1_555
C51 C57 1_555 1_555
C52 C53 1_555 1_555
C53 S8 1_555 1_555
C54 C58 1_555 1_555
C55 C42 1_555 1_555
C56 C50 1_555 1_555
H26 C56 1_555 1_555
C57 C52 1_555 1_555
H27 C57 1_555 1_555
C58 C53 1_555 1_555
H28 C58 1_555 1_555
C59 C47 1_555 1_555
H29 C59 1_555 1_555
C60 C45 1_555 1_555
H30 C60 1_555 1_555
C61 O15 1_555 1_555
C62 C45 1_555 1_555
H31 C62 1_555 1_555
C63 N4 1_555 1_555
H32 C63 1_555 1_555
C64 N5 1_555 1_555
H33 C64 1_555 1_555
C65 S6 1_555 1_555
C66 N4 1_555 1_555
H34 C66 1_555 1_555
C67 H35 1_555 1_555
C68 C64 1_555 1_555
H36 C68 1_555 1_555
C69 H37 1_555 1_555
C70 N5 1_555 1_555
H38 C70 1_555 1_555
C71 C67 1_555 1_555
H39 C71 1_555 1_555
C72 C63 1_555 1_555
H40 C72 1_555 1_555
C73 C66 1_555 1_555
H41 C73 1_555 1_555
C74 N6 1_555 1_555
H42 C74 1_555 1_555
C75 C74 1_555 1_555
H43 C75 1_555 1_555
C76 C75 1_555 1_555
H44 C76 1_555 1_555
C77 N6 1_555 1_555
H45 C77 1_555 1_555
C78 C76 1_555 1_555
H46 C78 1_555 1_555
Zn1A O6 1_555 1_555
Zn2_2 O3 1_555 1_555
O3_2 Zn2 1_555 1_555
O5_2 Zn2 1_555 1_555
O6A Zn1 1_555 1_555
O8A Zn1 1_555 1_555
Zn3A O14 1_555 1_555
Zn4_2 O10 1_555 1_555
O10_2 Zn4 1_555 1_555
O13_2 Zn4 1_555 1_555
O14A Zn3 1_555 1_555
O16A Zn3 1_555 1_555
O5 Zn2_2 1_555 1_555
O8 Zn1A 1_555 1_555
C3 C18 1_555 1_555
C8 C17 1_555 1_555
C9 C23 1_555 1_555
C11 C24 1_555 1_555
C13 C16 1_555 1_555
C16 C26 1_555 1_555
C17 C19 1_555 1_555
C22 C24 1_555 1_555
C30 C32 1_555 1_555
C30 C34 1_555 1_555
C31 C33 1_555 1_555
C35 N3 1_555 1_555
C38 C39 1_555 1_555
O13 Zn4_2 1_555 1_555
O16 Zn3A 1_555 1_555
C46 C65 1_555 1_555
C48 C59 1_555 1_555
C49 C55 1_555 1_555
C51 C61 1_555 1_555
C52 C60 1_555 1_555
C55 C56 1_555 1_555
C62 C65 1_555 1_555
C67 C68 1_555 1_555
C69 C72 1_555 1_555
C69 C73 1_555 1_555
C70 C71 1_555 1_555
C77 C78 1_555 1_555

#END
