
#######################################################################
#
#                 Cambridge Crystallographic Data Centre
#                                CCDC 
#
#######################################################################
#
# If this CIF has been generated from an entry in the Cambridge 
# Structural Database, then it will include bibliographic, chemical, 
# crystal, experimental, refinement or atomic coordinate data resulting 
# from the CCDC's data processing and validation procedures.
#
#######################################################################

data_EXEWEK
_symmetry_cell_setting           monoclinic
_symmetry_space_group_name_H-M   'P 21/n'
_symmetry_Int_Tables_number      14
_space_group_name_Hall           '-P 2yn'
loop_
_symmetry_equiv_pos_site_id
_symmetry_equiv_pos_as_xyz
1 x,y,z
2 1/2-x,1/2+y,1/2-z
3 -x,-y,-z
4 1/2+x,1/2-y,1/2+z
_cell_length_a                   15.295(5)
_cell_length_b                   9.139(5)
_cell_length_c                   16.955(5)
_cell_angle_alpha                90
_cell_angle_beta                 102.336(5)
_cell_angle_gamma                90
_cell_volume                     2315.27
loop_
_atom_site_label
_atom_site_type_symbol
_atom_site_fract_x
_atom_site_fract_y
_atom_site_fract_z
Zn1 Zn 0.922638(15) 0.19930(2) 0.891201(14)
S1 S 1.20667(4) -0.63790(5) 0.61855(3)
S2 S 1.04079(4) -0.22397(6) 0.77896(3)
N1 N 1.02280(10) 0.29826(15) 0.96503(9)
O1 O 1.04165(11) 0.20516(16) 0.78216(10)
O2 O 1.35499(9) -0.59211(16) 0.45838(9)
O3 O 1.29470(12) -0.78815(16) 0.50336(10)
O4 O 0.96709(9) 0.03607(15) 0.83557(8)
N2 N 0.83889(12) 0.31607(18) 0.80847(10)
C1 C 1.06681(13) -0.0443(2) 0.75801(12)
N3 N 1.13060(11) 0.45011(18) 1.01329(11)
H1 H 1.1678 0.5214 1.0160
C2 C 1.06866(13) 0.4133(2) 0.95006(13)
C3 C 1.27472(12) -0.4123(2) 0.56184(12)
C4 C 1.27046(12) -0.5594(2) 0.55629(11)
C5 C 1.02363(12) 0.0777(2) 0.79361(11)
C6 C 1.15319(13) -0.1754(2) 0.68541(12)
C7 C 1.12599(13) -0.0355(2) 0.71002(12)
C8 C 1.18157(12) -0.4665(2) 0.65175(11)
C9 C 1.21005(14) -0.2082(2) 0.63431(12)
C10 C 1.22385(12) -0.3539(2) 0.61613(11)
C11 C 1.30978(12) -0.6557(2) 0.50251(11)
C12 C 1.12555(13) -0.4375(2) 0.70436(12)
C13 C 1.11116(13) -0.2915(2) 0.71948(12)
C14 C 1.05900(14) 0.2603(2) 1.04368(12)
C15 C 1.12511(16) 0.3547(2) 1.07401(14)
C16 C 0.8559(2) 0.3720(3) 0.74016(17)
C17 C 0.71478(15) 0.4111(3) 0.73651(14)
H2 H 0.6553 0.4398 0.7199
C18 C 0.75163(15) 0.3430(3) 0.80401(16)
N4 N 0.7818(2) 0.4306(3) 0.69622(16)
H3 H 0.7771 0.4733 0.6503
H4 H 0.7288(18) 0.315(3) 0.8401(16)
H5 H 1.0600(14) 0.458(3) 0.9029(14)
H6 H 1.3069(15) -0.354(3) 0.5292(14)
H7 H 1.2401(15) -0.133(3) 0.6126(13)
H8 H 1.1456(17) 0.058(3) 0.6912(16)
H9 H 1.1019(15) -0.512(3) 0.7278(13)
H10 H 1.0378(16) 0.183(3) 1.0656(14)
H11 H 1.1603(19) 0.360(3) 1.1223(18)
H12 H 0.914(2) 0.363(3) 0.7299(18)
Zn1C Zn 1.422638(15) -0.69930(2) 0.391201(14)
O2C O 0.85499(9) 0.09211(16) 0.95838(9)
loop_
_geom_bond_atom_site_label_1
_geom_bond_atom_site_label_2
_geom_bond_site_symmetry_1
_geom_bond_site_symmetry_2
Zn1 N1 1_555 1_555
S1 C4 1_555 1_555
S2 C1 1_555 1_555
N1 C2 1_555 1_555
O1 C5 1_555 1_555
O2 C11 1_555 1_555
O3 C11 1_555 1_555
O4 Zn1 1_555 1_555
N2 Zn1 1_555 1_555
C1 C5 1_555 1_555
N3 H1 1_555 1_555
C2 N3 1_555 1_555
C3 C4 1_555 1_555
C4 C11 1_555 1_555
C5 O4 1_555 1_555
C6 C7 1_555 1_555
C7 C1 1_555 1_555
C8 S1 1_555 1_555
C9 C6 1_555 1_555
C10 C3 1_555 1_555
C12 C8 1_555 1_555
C13 S2 1_555 1_555
C14 N1 1_555 1_555
C15 N3 1_555 1_555
C16 N2 1_555 1_555
C17 H2 1_555 1_555
C18 N2 1_555 1_555
N4 C16 1_555 1_555
H3 N4 1_555 1_555
H4 C18 1_555 1_555
H5 C2 1_555 1_555
H6 C3 1_555 1_555
H7 C9 1_555 1_555
H8 C7 1_555 1_555
H9 C12 1_555 1_555
H10 C14 1_555 1_555
H11 C15 1_555 1_555
H12 C16 1_555 1_555
Zn1C O2 1_555 1_555
O2C Zn1 1_555 1_555
C6 C13 1_555 1_555
C8 C10 1_555 1_555
C9 C10 1_555 1_555
C12 C13 1_555 1_555
C14 C15 1_555 1_555
C17 C18 1_555 1_555
C17 N4 1_555 1_555

#END
