
#######################################################################
#
#                 Cambridge Crystallographic Data Centre
#                                CCDC 
#
#######################################################################
#
# If this CIF has been generated from an entry in the Cambridge 
# Structural Database, then it will include bibliographic, chemical, 
# crystal, experimental, refinement or atomic coordinate data resulting 
# from the CCDC's data processing and validation procedures.
#
#######################################################################

data_EXEWOU
_symmetry_cell_setting           monoclinic
_symmetry_space_group_name_H-M   'P 21/c'
_symmetry_Int_Tables_number      14
_space_group_name_Hall           '-P 2ybc'
loop_
_symmetry_equiv_pos_site_id
_symmetry_equiv_pos_as_xyz
1 x,y,z
2 -x,1/2+y,1/2-z
3 -x,-y,-z
4 x,1/2-y,1/2+z
_cell_length_a                   16.7715(4)
_cell_length_b                   28.0628(5)
_cell_length_c                   11.8719(2)
_cell_angle_alpha                90
_cell_angle_beta                 90.036(2)
_cell_angle_gamma                90
_cell_volume                     5587.57
loop_
_atom_site_label
_atom_site_type_symbol
_atom_site_fract_x
_atom_site_fract_y
_atom_site_fract_z
Zn1 Zn 0.60462(8) 0.10441(4) 0.01978(11)
Zn2 Zn 0.89073(8) 0.60481(4) 0.06040(11)
S1 S 0.79000(17) -0.03546(9) 0.1692(2)
S2 S 0.84460(18) -0.23120(9) 0.1593(2)
S3 S 0.79054(19) 0.45791(10) -0.0643(3)
S4 S 0.7315(2) 0.26470(12) -0.1203(4)
O1 O 0.6611(5) 0.0466(3) -0.0258(7)
N1 N 0.5484(5) 0.0867(3) 0.1686(7)
O2 O 0.7356(5) 0.0626(3) 0.1256(7)
C1 C 0.7578(6) 0.4815(4) 0.0615(9)
C2 C 0.7757(6) -0.1795(3) 0.0037(8)
O3 O 0.8280(5) 0.5500(2) 0.0179(6)
C3 C 0.7156(7) 0.4030(3) 0.0775(9)
O4 O 0.7586(5) 0.5495(3) 0.1788(8)
O5 O 0.8132(6) -0.3286(3) -0.0741(7)
C4 C 0.8194(7) -0.1329(4) 0.1697(9)
N2 N 0.9789(6) 0.5999(3) -0.0588(7)
O6 O 0.6284(5) 0.1700(3) 0.0629(8)
O7 O 0.8612(5) -0.3309(3) 0.0983(7)
N3 N 0.9501(5) 0.5876(3) -0.7921(7)
C5 C 0.7228(6) -0.0483(4) -0.0227(9)
C6 C 0.6557(7) 0.2693(3) 0.0955(11)
H1 H 0.6281 0.2607 0.1603
C7 C 0.7539(6) 0.4027(4) -0.0276(9)
C8 C 0.6921(7) 0.3185(4) 0.0528(10)
N4 N 0.5136(5) 0.1005(3) 0.9039(7)
C9 C 0.7893(6) -0.0934(3) 0.1159(8)
C10 C 0.7149(7) 0.4524(5) 0.1318(11)
C11 C 0.7522(6) -0.0953(3) 0.0107(8)
C12 C 1.0949(7) 0.5924(5) -0.2265(9)
C13 C 0.8111(6) -0.1763(3) 0.1137(8)
C14 C 0.8128(6) -0.2578(3) 0.0346(9)
C15 C 0.6827(7) 0.2409(4) -0.0092(10)
C16 C 0.7388(6) -0.0150(3) 0.0516(9)
C17 C 0.7106(6) 0.0359(4) 0.0524(9)
C18 C 0.7783(6) -0.2280(4) -0.0392(9)
C19 C 0.4759(6) 0.0671(4) 0.3751(9)
C20 C 0.9105(7) 0.5860(5) -0.6969(9)
H2 H 0.8559 0.5917 -0.6989
C21 C 0.3398(7) 0.0908(6) 0.6378(9)
H3 H 0.2983 0.1145 0.6480
H4 H 0.3150 0.0595 0.6370
C22 C 1.0261(6) 0.5686(4) -0.5886(9)
C23 C 0.3832(7) 0.0995(5) 0.5252(8)
H5 H 0.3440 0.1050 0.4666
H6 H 0.4157 0.1280 0.5317
C24 C 0.4928(7) 0.0585(4) 0.8594(9)
H7 H 0.5176 0.0309 0.8848
C25 C 0.7817(6) 0.5314(4) 0.0909(10)
C26 C 0.6827(7) 0.3598(4) 0.1202(10)
H8 H 0.6564 0.3587 0.1891
C27 C 0.7444(6) -0.1385(3) -0.0473(9)
C28 C 0.7275(7) 0.3207(4) -0.0514(11)
C29 C 0.4346(7) 0.0647(5) 0.2758(10)
H9 H 0.3809 0.0563 0.2760
C30 C 1.0508(8) 0.5553(5) -0.1939(10)
H10 H 1.0592 0.5259 -0.2279
C31 C 0.3991(6) 0.0937(5) 0.7343(9)
C32 C 1.0666(7) 0.5575(5) -0.4778(9)
H11 H 1.1007 0.5298 -0.4869
H12 H 1.0266 0.5499 -0.4216
C33 C 1.1163(7) 0.5994(5) -0.4377(9)
H13 H 1.0826 0.6274 -0.4320
H14 H 1.1576 0.6061 -0.4926
C34 C 0.7597(7) 0.3620(4) -0.0935(11)
H15 H 0.7845 0.3626 -0.1635
C35 C 0.9929(8) 0.5590(4) -0.1113(9)
H16 H 0.9632 0.5322 -0.0922
C36 C 0.4350(7) 0.0552(5) 0.7761(10)
H17 H 0.4209 0.0253 0.7486
C37 C 1.1554(7) 0.5896(6) -0.3217(9)
H18 H 1.1793 0.5581 -0.3224
H19 H 1.1974 0.6127 -0.3086
C38 C 0.4183(9) 0.1360(6) 0.7846(12)
H20 H 0.3925 0.1637 0.7615
C39 C 0.5535(7) 0.0795(5) 0.3691(9)
H21 H 0.5840 0.0813 0.4345
C40 C 0.5877(7) 0.0894(5) 0.2661(9)
H22 H 0.6410 0.0985 0.2645
C41 C 1.0809(10) 0.6339(6) -0.1729(12)
H23 H 1.1097 0.6609 -0.1927
C42 C 1.0235(9) 0.6366(5) -0.0875(13)
H24 H 1.0166 0.6654 -0.0497
C43 C 1.0668(7) 0.5696(4) -0.6898(9)
H25 H 1.1213 0.5636 -0.6913
C44 C 0.4716(7) 0.0746(5) 0.1774(10)
H26 H 0.4417 0.0728 0.1115
C45 C 0.4354(7) 0.0584(5) 0.4913(9)
H27 H 0.4035 0.0296 0.4874
H28 H 0.4762 0.0537 0.5481
C46 C 0.8290(7) -0.3099(4) 0.0161(11)
C47 C 0.9446(7) 0.5765(5) -0.5957(10)
H29 H 0.9134 0.5752 -0.5311
C48 C 0.4736(9) 0.1386(4) 0.8670(11)
H30 H 0.4844 0.1681 0.8992
C49 C 1.0272(6) 0.5793(4) -0.7868(8)
H31 H 1.0563 0.5801 -0.8534
O8 O 0.6818(7) 0.1656(4) -0.1007(9)
C50 C 0.6639(8) 0.1879(5) -0.0205(11)
H32 H 0.696(5) 0.463(3) 0.176(6)
H33 H 0.707(4) -0.042(3) -0.072(6)
H34 H 0.763(4) -0.234(2) -0.136(5)
H35 H 0.712(6) -0.141(3) -0.137(8)
H36 H 0.849(6) -0.130(3) 0.232(8)
Zn1_2 Zn 0.60462(8) 0.10441(4) 1.01978(11)
Zn2_2 Zn 0.89073(8) -0.39519(4) 0.06040(11)
Zn2_3 Zn 0.89073(8) 0.60481(4) -0.93960(11)
O7_2 O 0.8612(5) 0.6691(3) 0.0983(7)
N3_2 N 0.9501(5) 0.5876(3) 0.2079(7)
N4_2 N 0.5136(5) 0.1005(3) -0.0961(7)
N5 N 0.0533(8) 0.7145(5) 0.3418(16)
O9 O 0.0770(12) 0.6955(7) 0.1715(16)
C51 C 0.0322(14) 0.7031(9) 0.247(2)
H37 H -0.0222 0.7002 0.2328
C52 C 0.1339(10) 0.7193(8) 0.3745(17)
H38 H 0.1365 0.7286 0.4522
H39 H 0.1591 0.7431 0.3288
H40 H 0.1607 0.6893 0.3647
C53 C -0.0057(15) 0.7176(9) 0.437(3)
H41 H 0.0213 0.7272 0.5048
H42 H -0.0299 0.6869 0.4487
H43 H -0.0462 0.7405 0.4190
N6 N 0.4453(9) 0.2828(8) 0.806(2)
C54 C 0.5036(16) 0.2845(10) 0.875(3)
H44 H 0.4840 0.2805 0.9504
H45 H 0.5297 0.3149 0.8688
H46 H 0.5409 0.2596 0.8580
C55 C 0.3647(14) 0.2789(13) 0.830(3)
H47 H 0.3348 0.2784 0.7612
H48 H 0.3484 0.3056 0.8750
H49 H 0.3553 0.2499 0.8709
C56 C 0.456(4) 0.2881(19) 0.710(5)
H50 H 0.5106 0.2899 0.6949
O10 O 0.4178(17) 0.2919(15) 0.624(2)
loop_
_geom_bond_atom_site_label_1
_geom_bond_atom_site_label_2
_geom_bond_site_symmetry_1
_geom_bond_site_symmetry_2
Zn1 O1 1_555 1_555
Zn2 O3 1_555 1_555
S1 C9 1_555 1_555
S2 C13 1_555 1_555
S3 C1 1_555 1_555
S4 C15 1_555 1_555
O1 C17 1_555 1_555
N1 Zn1 1_555 1_555
O2 C17 1_555 1_555
C1 C10 1_555 1_555
C2 C13 1_555 1_555
O3 C25 1_555 1_555
C3 C7 1_555 1_555
O4 C25 1_555 1_555
O5 C46 1_555 1_555
C4 C9 1_555 1_555
N2 Zn2 1_555 1_555
O6 Zn1 1_555 1_555
O7 C46 1_555 1_555
N3 C20 1_555 1_555
C5 C11 1_555 1_555
C6 H1 1_555 1_555
C7 S3 1_555 1_555
C8 C6 1_555 1_555
N4 C24 1_555 1_555
C9 C11 1_555 1_555
C10 C3 1_555 1_555
C11 C27 1_555 1_555
C12 C30 1_555 1_555
C13 C4 1_555 1_555
C14 S2 1_555 1_555
C15 C6 1_555 1_555
C16 S1 1_555 1_555
C17 C16 1_555 1_555
C18 C2 1_555 1_555
C19 C29 1_555 1_555
C20 H2 1_555 1_555
C21 H3 1_555 1_555
H4 C21 1_555 1_555
C22 C32 1_555 1_555
C23 C21 1_555 1_555
H5 C23 1_555 1_555
H6 C23 1_555 1_555
C24 H7 1_555 1_555
C25 C1 1_555 1_555
C26 C3 1_555 1_555
H8 C26 1_555 1_555
C27 C2 1_555 1_555
C28 S4 1_555 1_555
C29 H9 1_555 1_555
C30 H10 1_555 1_555
C31 C21 1_555 1_555
C32 H11 1_555 1_555
H12 C32 1_555 1_555
C33 C32 1_555 1_555
H13 C33 1_555 1_555
H14 C33 1_555 1_555
C34 C7 1_555 1_555
H15 C34 1_555 1_555
C35 N2 1_555 1_555
H16 C35 1_555 1_555
C36 C24 1_555 1_555
H17 C36 1_555 1_555
C37 C12 1_555 1_555
H18 C37 1_555 1_555
H19 C37 1_555 1_555
C38 C31 1_555 1_555
H20 C38 1_555 1_555
C39 C19 1_555 1_555
H21 C39 1_555 1_555
C40 N1 1_555 1_555
H22 C40 1_555 1_555
C41 C12 1_555 1_555
H23 C41 1_555 1_555
C42 N2 1_555 1_555
H24 C42 1_555 1_555
C43 C22 1_555 1_555
H25 C43 1_555 1_555
C44 N1 1_555 1_555
H26 C44 1_555 1_555
C45 C19 1_555 1_555
H27 C45 1_555 1_555
H28 C45 1_555 1_555
C46 C14 1_555 1_555
C47 C20 1_555 1_555
H29 C47 1_555 1_555
C48 N4 1_555 1_555
H30 C48 1_555 1_555
C49 N3 1_555 1_555
H31 C49 1_555 1_555
O8 C50 1_555 1_555
C50 O6 1_555 1_555
H32 C10 1_555 1_555
H33 C5 1_555 1_555
H34 C18 1_555 1_555
H35 C27 1_555 1_555
H36 C4 1_555 1_555
N5 C51 1_555 1_555
O9 C51 1_555 1_555
C51 H37 1_555 1_555
C52 N5 1_555 1_555
H38 C52 1_555 1_555
H39 C52 1_555 1_555
H40 C52 1_555 1_555
C53 N5 1_555 1_555
H41 C53 1_555 1_555
H42 C53 1_555 1_555
H43 C53 1_555 1_555
N6 C54 1_555 1_555
C54 H44 1_555 1_555
H45 C54 1_555 1_555
H46 C54 1_555 1_555
C55 N6 1_555 1_555
H47 C55 1_555 1_555
H48 C55 1_555 1_555
H49 C55 1_555 1_555
C56 N6 1_555 1_555
H50 C56 1_555 1_555
O10 C56 1_555 1_555
Zn1_2 N4 1_555 1_555
Zn2_2 O7 1_555 1_555
Zn2_3 N3 1_555 1_555
O7_2 Zn2 1_555 1_555
N3_2 Zn2 1_555 1_555
N4_2 Zn1 1_555 1_555
C5 C16 1_555 1_555
C8 C26 1_555 1_555
C8 C28 1_555 1_555
C14 C18 1_555 1_555
C15 C50 1_555 1_555
C22 C47 1_555 1_555
C23 C45 1_555 1_555
C28 C34 1_555 1_555
C29 C44 1_555 1_555
C30 C35 1_555 1_555
C31 C36 1_555 1_555
C33 C37 1_555 1_555
C38 C48 1_555 1_555
C39 C40 1_555 1_555
C41 C42 1_555 1_555
C43 C49 1_555 1_555

#END
