
#######################################################################
#
#                 Cambridge Crystallographic Data Centre
#                                CCDC 
#
#######################################################################
#
# If this CIF has been generated from an entry in the Cambridge 
# Structural Database, then it will include bibliographic, chemical, 
# crystal, experimental, refinement or atomic coordinate data resulting 
# from the CCDC's data processing and validation procedures.
#
#######################################################################

data_EXICUK
_symmetry_cell_setting           monoclinic
_symmetry_space_group_name_H-M   'C 2/c'
_symmetry_Int_Tables_number      15
_space_group_name_Hall           '-C 2yn'
loop_
_symmetry_equiv_pos_site_id
_symmetry_equiv_pos_as_xyz
1 x,y,z
2 -x,y,1/2-z
3 1/2+x,1/2+y,z
4 1/2-x,1/2+y,1/2-z
5 -x,-y,-z
6 x,-y,1/2+z
7 1/2-x,1/2-y,-z
8 1/2+x,1/2-y,1/2+z
_cell_length_a                   18.1284(7)
_cell_length_b                   8.8472(3)
_cell_length_c                   26.6561(9)
_cell_angle_alpha                90
_cell_angle_beta                 108.349(4)
_cell_angle_gamma                90
_cell_volume                     4057.89
loop_
_atom_site_label
_atom_site_type_symbol
_atom_site_fract_x
_atom_site_fract_y
_atom_site_fract_z
Co1 Co 0.725195(18) 0.70846(4) 0.553412(12)
C1 C 0.85627(14) 0.9236(3) 0.55942(9)
C2 C 0.88878(13) 1.0555(2) 0.53808(8)
C3 C 0.96807(13) 1.0772(2) 0.55211(8)
H1 H 1.0014 1.0102 0.5753
C4 C 0.99872(12) 1.1987(3) 0.53183(8)
C5 C 0.94785(13) 1.3013(3) 0.49940(8)
H2 H 0.9676 1.3839 0.4862
C6 C 0.86848(13) 1.2832(3) 0.48634(9)
H3 H 0.8350 1.3544 0.4653
C7 C 0.83907(14) 1.1578(2) 0.50489(9)
H4 H 0.7857 1.1424 0.4949
C8 C 1.08423(13) 1.2123(3) 0.54309(8)
C9 C 0.87587(15) 0.5187(3) 0.59050(9)
H5 H 0.8936 0.5816 0.5688
C10 C 0.92726(15) 0.4179(3) 0.62194(9)
H6 H 0.9783 0.4133 0.6214
C11 C 0.90236(14) 0.3234(2) 0.65429(9)
C12 C 0.82601(15) 0.3314(3) 0.65278(9)
H7 H 0.8068 0.2670 0.6733
C13 C 0.77875(15) 0.4369(3) 0.62022(9)
H8 H 0.7273 0.4425 0.6198
C14 C 0.93148(13) 0.1274(3) 0.71946(9)
H9 H 0.8896 0.0634 0.6986
H10 H 0.9126 0.1856 0.7438
C15 C 1.0000 0.0312(3) 0.7500
C16 C 1.02492(15) -0.0667(3) 0.71116(9)
H11 H 0.9827 -0.1326 0.6920
H12 H 1.0392 -0.0038 0.6859
C17 C 1.11826(16) -0.2625(3) 0.71623(10)
C18 C 1.09024(16) -0.2920(3) 0.66300(9)
H13 H 1.0490 -0.2371 0.6409
C19 C 1.12565(19) -0.4066(3) 0.64344(11)
H14 H 1.1063 -0.4274 0.6075
C20 C 1.21068(18) -0.4556(3) 0.72342(12)
H15 H 1.2525 -0.5112 0.7446
C21 C 1.18033(18) -0.3462(3) 0.74729(11)
H16 H 1.2008 -0.3285 0.7834
N1 N 0.80187(11) 0.5321(2) 0.58908(7)
N2 N 1.18485(15) -0.4883(3) 0.67216(10)
O1 O 0.95615(9) 0.22740(18) 0.68538(6)
O2 O 1.09060(11) -0.15477(19) 0.74158(6)
O3 O 0.79512(9) 0.85887(15) 0.52827(5)
O4 O 0.88800(10) 0.88513(19) 0.60571(6)
O5 O 1.11202(9) 1.32196(17) 0.52419(6)
O6 O 1.12837(9) 1.11184(17) 0.56966(6)
O8 O 0.75801(10) 0.8069(2) 0.62846(6)
H17 H 0.8015(9) 0.848(3) 0.6308(9)
H18 H 0.7335(14) 0.871(2) 0.6407(9)
Co1A Co 1.274805(18) 0.70846(4) 0.946588(12)
Co1F Co 0.774805(18) 0.79154(4) 0.446588(12)
Co1B Co 1.225195(18) 1.20846(4) 0.553412(12)
Co1B_2 Co 0.225195(18) 0.20846(4) 0.553412(12)
Co1D Co 0.274805(18) 0.29154(4) 0.446588(12)
C1B C 0.35627(14) 0.4236(3) 0.55942(9)
C2B C 0.38878(13) 0.5555(2) 0.53808(8)
C3B C 0.46807(13) 0.5772(2) 0.55211(8)
H1B H 0.5014 0.5102 0.5753
C4B C 0.49872(12) 0.6987(3) 0.53183(8)
C5B C 0.44785(13) 0.8013(3) 0.49940(8)
H2B H 0.4676 0.8839 0.4862
C6B C 0.36848(13) 0.7832(3) 0.48634(9)
H3B H 0.3350 0.8544 0.4653
C7B C 0.33907(14) 0.6578(2) 0.50489(9)
H4B H 0.2857 0.6424 0.4949
C8B C 0.58423(13) 0.7123(3) 0.54309(8)
C9A C 1.12413(15) 0.5187(3) 0.90950(9)
H5A H 1.1064 0.5816 0.9312
C10A C 1.07274(15) 0.4179(3) 0.87806(9)
H6A H 1.0217 0.4133 0.8786
C11A C 1.09764(14) 0.3234(2) 0.84571(9)
C12A C 1.17399(15) 0.3314(3) 0.84722(9)
H7A H 1.1932 0.2670 0.8267
C13A C 1.22125(15) 0.4369(3) 0.87978(9)
H8A H 1.2727 0.4425 0.8802
C14A C 1.06852(13) 0.1274(3) 0.78054(9)
H9A H 1.1104 0.0634 0.8014
H10A H 1.0874 0.1856 0.7562
C16A C 0.97508(15) -0.0667(3) 0.78884(9)
H11A H 1.0173 -0.1326 0.8080
H12A H 0.9608 -0.0038 0.8141
C17A C 0.88174(16) -0.2625(3) 0.78377(10)
C18A C 0.90976(16) -0.2920(3) 0.83700(9)
H13A H 0.9510 -0.2371 0.8591
C19A C 0.87435(19) -0.4066(3) 0.85656(11)
H14A H 0.8937 -0.4274 0.8925
C20A C 0.78932(18) -0.4556(3) 0.77658(12)
H15A H 0.7475 -0.5112 0.7554
C21A C 0.81967(18) -0.3462(3) 0.75271(11)
H16A H 0.7992 -0.3285 0.7166
N1A N 1.19813(11) 0.5321(2) 0.91092(7)
N2A N 0.81515(15) -0.4883(3) 0.82784(10)
O1A O 1.04385(9) 0.22740(18) 0.81462(6)
O2A O 0.90940(11) -0.15477(19) 0.75842(6)
O3B O 0.29512(9) 0.35887(15) 0.52827(5)
O3F O 0.70488(9) 0.64113(15) 0.47173(5)
O3A O 1.20488(9) 0.85887(15) 0.97173(5)
O3G O 1.29512(9) 0.64113(15) 1.02827(5)
O4B O 0.38800(10) 0.38513(19) 0.60571(6)
O5B O 0.61202(9) 0.82196(17) 0.52419(6)
O5C O 1.38798(9) 0.82196(17) 0.97581(6)
O6B O 0.62837(9) 0.61184(17) 0.56966(6)
O6C O 1.37163(9) 0.61184(17) 0.93034(6)
O8A O 1.24199(10) 0.8069(2) 0.87154(6)
H17A H 1.1985(9) 0.848(3) 0.8692(9)
H18A H 1.2665(14) 0.871(2) 0.8593(9)
O7 O 1.1350(6) 0.1489(11) 0.6755(3)
loop_
_geom_bond_atom_site_label_1
_geom_bond_atom_site_label_2
_geom_bond_site_symmetry_1
_geom_bond_site_symmetry_2
Co1 N1 1_555 1_555
C1 C2 1_555 1_555
C2 C3 1_555 1_555
C3 H1 1_555 1_555
C4 C3 1_555 1_555
C5 C4 1_555 1_555
H2 C5 1_555 1_555
C6 C5 1_555 1_555
H3 C6 1_555 1_555
C7 C2 1_555 1_555
H4 C7 1_555 1_555
C8 C4 1_555 1_555
C9 H5 1_555 1_555
C10 C9 1_555 1_555
H6 C10 1_555 1_555
C11 C10 1_555 1_555
C12 C11 1_555 1_555
H7 C12 1_555 1_555
C13 C12 1_555 1_555
H8 C13 1_555 1_555
C14 H9 1_555 1_555
H10 C14 1_555 1_555
C15 C14 1_555 1_555
C16 C15 1_555 1_555
H11 C16 1_555 1_555
H12 C16 1_555 1_555
C17 C18 1_555 1_555
C18 H13 1_555 1_555
C19 C18 1_555 1_555
H14 C19 1_555 1_555
C20 H15 1_555 1_555
C21 C17 1_555 1_555
H16 C21 1_555 1_555
N1 C9 1_555 1_555
N2 C19 1_555 1_555
O1 C11 1_555 1_555
O2 C16 1_555 1_555
O3 Co1 1_555 1_555
O4 C1 1_555 1_555
O5 C8 1_555 1_555
O6 C8 1_555 1_555
O8 Co1 1_555 1_555
H17 O8 1_555 1_555
H18 O8 1_555 1_555
Co1A N1A 1_555 1_555
Co1F O3 1_555 1_555
Co1B O5 1_555 1_555
Co1B_2 O3B 1_555 1_555
Co1D O3B 1_555 1_555
C1B C2B 1_555 1_555
C2B C3B 1_555 1_555
C3B H1B 1_555 1_555
C4B C3B 1_555 1_555
C5B C4B 1_555 1_555
H2B C5B 1_555 1_555
C6B C5B 1_555 1_555
H3B C6B 1_555 1_555
C7B C2B 1_555 1_555
H4B C7B 1_555 1_555
C8B C4B 1_555 1_555
C9A H5A 1_555 1_555
C10A C9A 1_555 1_555
H6A C10A 1_555 1_555
C11A C10A 1_555 1_555
C12A C11A 1_555 1_555
H7A C12A 1_555 1_555
C13A C12A 1_555 1_555
H8A C13A 1_555 1_555
C14A C15 1_555 1_555
H9A C14A 1_555 1_555
H10A C14A 1_555 1_555
C16A C15 1_555 1_555
H11A C16A 1_555 1_555
H12A C16A 1_555 1_555
C17A C18A 1_555 1_555
C18A H13A 1_555 1_555
C19A C18A 1_555 1_555
H14A C19A 1_555 1_555
C20A H15A 1_555 1_555
C21A C17A 1_555 1_555
H16A C21A 1_555 1_555
N1A C9A 1_555 1_555
N2A C19A 1_555 1_555
O1A C11A 1_555 1_555
O2A C16A 1_555 1_555
O3B C1B 1_555 1_555
O3F Co1 1_555 1_555
O3A Co1A 1_555 1_555
O3G Co1A 1_555 1_555
O4B C1B 1_555 1_555
O5B Co1 1_555 1_555
O5C Co1A 1_555 1_555
O6B Co1 1_555 1_555
O6C Co1A 1_555 1_555
O8A Co1A 1_555 1_555
H17A O8A 1_555 1_555
H18A O8A 1_555 1_555
C1 O3 1_555 1_555
C6 C7 1_555 1_555
C13 N1 1_555 1_555
C14 O1 1_555 1_555
C17 O2 1_555 1_555
C20 C21 1_555 1_555
C20 N2 1_555 1_555
O6 Co1B 1_555 1_555
Co1F O3F 1_555 1_555
C6B C7B 1_555 1_555
C8B O5B 1_555 1_555
C8B O6B 1_555 1_555
C13A N1A 1_555 1_555
C14A O1A 1_555 1_555
C17A O2A 1_555 1_555
C20A C21A 1_555 1_555
C20A N2A 1_555 1_555

#END
