
#######################################################################
#
#                 Cambridge Crystallographic Data Centre
#                                CCDC 
#
#######################################################################
#
# If this CIF has been generated from an entry in the Cambridge 
# Structural Database, then it will include bibliographic, chemical, 
# crystal, experimental, refinement or atomic coordinate data resulting 
# from the CCDC's data processing and validation procedures.
#
#######################################################################

data_EXIDUL
_symmetry_cell_setting           monoclinic
_symmetry_space_group_name_H-M   'P 21/n'
_symmetry_Int_Tables_number      14
_space_group_name_Hall           '-P 2yn'
loop_
_symmetry_equiv_pos_site_id
_symmetry_equiv_pos_as_xyz
1 x,y,z
2 1/2-x,1/2+y,1/2-z
3 -x,-y,-z
4 1/2+x,1/2-y,1/2+z
_cell_length_a                   14.8271(7)
_cell_length_b                   14.2870(7)
_cell_length_c                   27.5557(14)
_cell_angle_alpha                90
_cell_angle_beta                 97.689(5)
_cell_angle_gamma                90
_cell_volume                     5784.77
loop_
_atom_site_label
_atom_site_type_symbol
_atom_site_fract_x
_atom_site_fract_y
_atom_site_fract_z
C1 C -0.1005(6) 1.0681(8) 0.7853(4)
C2 C -0.1594(5) 1.1342(6) 0.8100(3)
C3 C -0.1527(6) 1.1378(6) 0.8605(4)
H1 H -0.1093 1.1015 0.8794
C4 C -0.2098(6) 1.1948(6) 0.8832(3)
C5 C -0.2746(6) 1.2461(6) 0.8551(3)
H2 H -0.3146 1.2825 0.8703
C6 C -0.2822(6) 1.2451(6) 0.8046(3)
C7 C -0.2247(6) 1.1887(6) 0.7825(3)
H3 H -0.2296 1.1870 0.7485
C8 C -0.2032(7) 1.1976(8) 0.9382(4)
C9 C -0.3536(6) 1.3049(7) 0.7762(4)
C10 C 0.3746(6) 1.2841(6) 0.7178(4)
C11 C 0.3093(5) 1.2142(6) 0.6913(3)
C12 C 0.2972(5) 1.2165(6) 0.6410(3)
H4 H 0.3345 1.2545 0.6249
C13 C 0.2302(6) 1.1630(6) 0.6137(3)
C14 C 0.1764(5) 1.1047(6) 0.6379(3)
H5 H 0.1307 1.0694 0.6202
C15 C 0.1906(5) 1.0990(5) 0.6880(3)
C16 C 0.2557(5) 1.1544(6) 0.7147(3)
H6 H 0.2636 1.1515 0.7487
C17 C 0.2123(7) 1.1730(8) 0.5596(4)
C18 C 0.1318(6) 1.0379(6) 0.7142(4)
O1 O -0.0486(4) 1.0146(5) 0.8119(3)
O2 O -0.1056(5) 1.0682(6) 0.7401(3)
O4 O -0.1423(5) 1.1541(5) 0.9635(2)
O6 O -0.2628(5) 1.2481(6) 0.9548(3)
O8 O -0.4089(4) 1.3466(5) 0.7999(2)
O10 O -0.3621(4) 1.3083(5) 0.7326(2)
O12 O 0.4202(4) 1.3335(4) 0.6934(2)
O14 O 0.3745(4) 1.2920(4) 0.7641(3)
O16 O 0.2610(5) 1.2368(6) 0.5433(3)
H36 H 0.2490 1.2399 0.5134
O18 O 0.1553(5) 1.1280(5) 0.5343(2)
O19 O 0.0628(4) 0.9998(4) 0.6885(2)
O20 O 0.1464(4) 1.0287(5) 0.7594(3)
Cd1 Cd 0.00401(4) 0.93078(4) 0.75209(3)
O8A O -0.0911(4) 0.8466(5) 0.7001(2)
O12A O 0.0798(4) 0.8335(4) 0.8066(2)
Cd1A Cd -0.50401(4) 1.43078(4) 0.74791(3)
Cd1A_2 Cd 0.49599(4) 1.43078(4) 0.74791(3)
C19 C -0.2603(8) 0.9032(9) 0.8562(4)
C20 C -0.3321(6) 0.9669(7) 0.8709(4)
C21 C -0.3323(6) 0.9864(7) 0.9202(4)
H7 H -0.2882 0.9597 0.9432
C22 C -0.3984(6) 1.0460(7) 0.9361(4)
C23 C -0.4624(6) 1.0843(7) 0.9004(3)
H8 H -0.5068 1.1237 0.9099
C24 C -0.4627(6) 1.0659(7) 0.8514(4)
C25 C -0.3958(6) 1.0067(7) 0.8359(4)
H9 H -0.3947 0.9948 0.8028
C26 C -0.3953(7) 1.0668(8) 0.9896(4)
C27 C -0.5264(8) 1.1089(9) 0.8131(5)
O21 O -0.2060(6) 0.8628(7) 0.8844(3)
O22 O -0.2675(5) 0.9048(6) 0.8106(3)
H37 H -0.2291 0.8702 0.8013
O23 O -0.3387(5) 1.0249(6) 1.0201(3)
O24 O -0.4517(5) 1.1266(6) 1.0018(3)
O25 O -0.5857(5) 1.1639(6) 0.8289(3)
H38 H -0.6194 1.1854 0.8055
O26 O -0.5245(6) 1.0945(7) 0.7695(3)
C28 C 0.1322(6) 1.3342(6) 0.8322(3)
C29 C 0.1539(10) 1.3592(11) 0.7778(6)
H10 H 0.1474 1.4261 0.7722
H11 H 0.2160 1.3418 0.7746
C30 C 0.0378(10) 1.3614(11) 0.8357(6)
H12 H -0.0030 1.3271 0.8115
H13 H 0.0228 1.3455 0.8679
C31 C 0.1952(11) 1.3882(11) 0.8724(6)
C32 C 0.1362(10) 1.2230(9) 0.8420(5)
H14 H 0.0951 1.1910 0.8171
H15 H 0.1974 1.2001 0.8406
C33 C 0.1032(12) 1.3441(13) 0.6972(5)
C34 C 0.0407(10) 1.2927(10) 0.6691(5)
H16 H 0.0064 1.2488 0.6836
C35 C 0.0275(10) 1.3040(11) 0.6213(5)
H17 H -0.0162 1.2682 0.6023
C36 C 0.1393(8) 1.4194(10) 0.6259(5)
H18 H 0.1724 1.4627 0.6102
C37 C 0.1544(9) 1.4089(11) 0.6765(6)
H19 H 0.1978 1.4447 0.6957
C38 C -0.0549(9) 1.4993(9) 0.8313(4)
C39 C -0.1359(9) 1.4512(11) 0.8277(6)
H20 H -0.1390 1.3871 0.8219
C40 C -0.2105(12) 1.5019(16) 0.8328(8)
H21 H -0.2666 1.4724 0.8317
C41 C -0.1225(19) 1.6440(15) 0.8404(8)
H22 H -0.1211 1.7087 0.8444
C42 C -0.0421(11) 1.5947(10) 0.8353(6)
H23 H 0.0139 1.6235 0.8347
C43 C 0.3511(8) 1.3667(7) 0.9054(5)
C44 C 0.4337(9) 1.3428(8) 0.8920(4)
H24 H 0.4378 1.3287 0.8594
C45 C 0.5074(9) 1.3393(9) 0.9245(7)
H25 H 0.5625 1.3207 0.9149
C46 C 0.4284(11) 1.3915(10) 0.9856(4)
H26 H 0.4279 1.4083 1.0182
C47 C 0.3489(8) 1.3974(9) 0.9527(5)
H27 H 0.2957 1.4215 0.9623
C48 C 0.1196(7) 1.1225(8) 0.9049(5)
C49 C 0.1413(7) 1.0402(8) 0.8855(4)
H28 H 0.1525 1.0360 0.8532
C50 C 0.1459(8) 0.9659(9) 0.9142(6)
H29 H 0.1606 0.9085 0.9014
C51 C 0.1095(9) 1.0477(13) 0.9801(5)
H30 H 0.0997 1.0490 1.0127
C52 C 0.1017(9) 1.1271(10) 0.9535(6)
H31 H 0.0849 1.1831 0.9669
N1 N 0.0755(8) 1.3652(9) 0.6001(4)
H32 H 0.0660 1.3709 0.5688
N2 N -0.2045(12) 1.5949(15) 0.8394(6)
H33 H -0.2530 1.6256 0.8432
N3 N 0.5031(7) 1.3625(8) 0.9711(5)
H34 H 0.5514 1.3581 0.9921
N4 N 0.1305(7) 0.9696(8) 0.9605(5)
H35 H 0.1345 0.9194 0.9778
O27 O 0.1012(6) 1.3169(7) 0.7474(4)
O28 O 0.0268(8) 1.4528(6) 0.8281(4)
O29 O 0.2860(6) 1.3609(7) 0.8678(4)
O30 O 0.1136(6) 1.2068(8) 0.8837(4)
O3 O 0.5610(6) 0.5534(7) 0.8938(3)
O5 O -0.3566(6) 0.8370(7) 1.0229(4)
O7 O -0.0171(6) 0.8259(8) 0.8886(4)
O9 O -0.2837(8) 1.4623(8) 0.9387(4)
O11 O -0.2698(10) 0.7415(9) 0.9571(5)
O13 O -0.3559(9) 1.6888(9) 0.8351(6)
O15 O -0.0195(8) 1.2910(11) 1.0366(5)
O17 O 0.1495(11) 1.3954(13) 1.0220(8)
C53? C 0.236(2) 1.339(2) 0.8415(11)
O31? O 0.235(3) 1.366(2) 0.8931(13)
loop_
_geom_bond_atom_site_label_1
_geom_bond_atom_site_label_2
_geom_bond_site_symmetry_1
_geom_bond_site_symmetry_2
C1 C2 1_555 1_555
C2 C3 1_555 1_555
C3 H1 1_555 1_555
C4 C3 1_555 1_555
C5 C4 1_555 1_555
H2 C5 1_555 1_555
C6 C5 1_555 1_555
C7 C2 1_555 1_555
H3 C7 1_555 1_555
C8 C4 1_555 1_555
C9 C6 1_555 1_555
C10 C11 1_555 1_555
C11 C12 1_555 1_555
C12 H4 1_555 1_555
C13 C12 1_555 1_555
C14 C13 1_555 1_555
H5 C14 1_555 1_555
C15 C14 1_555 1_555
C16 C11 1_555 1_555
H6 C16 1_555 1_555
C17 C13 1_555 1_555
C18 C15 1_555 1_555
C19 C20 1_555 1_555
C20 C21 1_555 1_555
C21 H7 1_555 1_555
C22 C21 1_555 1_555
C23 C22 1_555 1_555
H8 C23 1_555 1_555
C24 C23 1_555 1_555
C25 C20 1_555 1_555
H9 C25 1_555 1_555
C26 C22 1_555 1_555
C27 C24 1_555 1_555
C28 C29 1_555 1_555
C29 H10 1_555 1_555
H11 C29 1_555 1_555
C30 C28 1_555 1_555
H12 C30 1_555 1_555
H13 C30 1_555 1_555
C31 C28 1_555 1_555
C32 C28 1_555 1_555
H14 C32 1_555 1_555
H15 C32 1_555 1_555
C33 C34 1_555 1_555
C34 H16 1_555 1_555
C35 C34 1_555 1_555
H17 C35 1_555 1_555
C36 H18 1_555 1_555
C37 C33 1_555 1_555
H19 C37 1_555 1_555
C38 C39 1_555 1_555
C39 H20 1_555 1_555
C40 C39 1_555 1_555
H21 C40 1_555 1_555
C41 H22 1_555 1_555
C42 C38 1_555 1_555
H23 C42 1_555 1_555
C43 C44 1_555 1_555
C44 H24 1_555 1_555
C45 C44 1_555 1_555
H25 C45 1_555 1_555
C46 H26 1_555 1_555
C47 C43 1_555 1_555
H27 C47 1_555 1_555
C48 C49 1_555 1_555
C49 H28 1_555 1_555
C50 C49 1_555 1_555
H29 C50 1_555 1_555
C51 H30 1_555 1_555
C52 C48 1_555 1_555
H31 C52 1_555 1_555
N1 C35 1_555 1_555
H32 N1 1_555 1_555
N2 C40 1_555 1_555
H33 N2 1_555 1_555
N3 C45 1_555 1_555
H34 N3 1_555 1_555
N4 C50 1_555 1_555
H35 N4 1_555 1_555
O1 C1 1_555 1_555
O2 C1 1_555 1_555
O4 C8 1_555 1_555
O6 C8 1_555 1_555
O8 C9 1_555 1_555
O10 C9 1_555 1_555
O12 C10 1_555 1_555
O14 C10 1_555 1_555
O16 C17 1_555 1_555
H36 O16 1_555 1_555
O18 C17 1_555 1_555
O19 C18 1_555 1_555
O20 C18 1_555 1_555
O21 C19 1_555 1_555
O22 C19 1_555 1_555
H37 O22 1_555 1_555
O23 C26 1_555 1_555
O24 C26 1_555 1_555
O25 C27 1_555 1_555
H38 O25 1_555 1_555
O26 C27 1_555 1_555
O27 C29 1_555 1_555
O28 C30 1_555 1_555
O29 C31 1_555 1_555
O30 C32 1_555 1_555
Cd1 O1 1_555 1_555
O8A Cd1 1_555 1_555
O12A Cd1 1_555 1_555
Cd1A O8 1_555 1_555
Cd1A_2 O12 1_555 1_555
C6 C7 1_555 1_555
C15 C16 1_555 1_555
C24 C25 1_555 1_555
C33 O27 1_555 1_555
C36 C37 1_555 1_555
C36 N1 1_555 1_555
C38 O28 1_555 1_555
C41 C42 1_555 1_555
C41 N2 1_555 1_555
C43 O29 1_555 1_555
C46 C47 1_555 1_555
C46 N3 1_555 1_555
C48 O30 1_555 1_555
C51 C52 1_555 1_555
C51 N4 1_555 1_555
O2 Cd1 1_555 1_555
O19 Cd1 1_555 1_555
O20 Cd1 1_555 1_555

#END
