
#######################################################################
#
#                 Cambridge Crystallographic Data Centre
#                                CCDC 
#
#######################################################################
#
# If this CIF has been generated from an entry in the Cambridge 
# Structural Database, then it will include bibliographic, chemical, 
# crystal, experimental, refinement or atomic coordinate data resulting 
# from the CCDC's data processing and validation procedures.
#
#######################################################################

data_EXIDIZ
_symmetry_cell_setting           orthorhombic
_symmetry_space_group_name_H-M   'P 21 21 2'
_symmetry_Int_Tables_number      18
_space_group_name_Hall           'P 2 2ab'
loop_
_symmetry_equiv_pos_site_id
_symmetry_equiv_pos_as_xyz
1 x,y,z
2 -x,-y,z
3 1/2+x,1/2-y,-z
4 1/2-x,1/2+y,-z
_cell_length_a                   16.8478(8)
_cell_length_b                   17.0353(9)
_cell_length_c                   8.0615(5)
_cell_angle_alpha                90
_cell_angle_beta                 90
_cell_angle_gamma                90
_cell_volume                     2313.71
loop_
_atom_site_label
_atom_site_type_symbol
_atom_site_fract_x
_atom_site_fract_y
_atom_site_fract_z
Cu1 Cu 0.19004(4) 0.84377(4) 0.18348(8)
O1 O 0.1866(3) 0.6847(2) 0.4651(6)
O2 O 0.2661(2) 0.7786(2) 0.3646(5)
O3 O 0.2957(2) 0.4482(2) 0.7207(5)
O4 O 0.5793(2) 0.9330(2) -0.7618(5)
O5 O 0.4397(2) 0.9297(2) -0.3353(6)
O6 O 0.3879(3) 0.4748(2) 0.9114(6)
O7 O 0.5506(2) 0.7744(3) 0.6028(6)
C1 C 0.5000 1.0000 -0.5601(9)
N1 N 0.2719(3) 0.8667(3) 0.0107(6)
O8 O 0.5905(2) 0.6579(2) 0.6874(6)
C2 C 0.3188(3) 0.6795(3) 0.5423(7)
C3 C 0.5079(3) 0.9267(3) -0.6619(7)
H1 H 0.5113 0.8812 -0.5898
H2 H 0.4619 0.9205 -0.7330
C4 C 0.3633(3) 0.5708(3) 0.7067(8)
C5 C 0.3937(3) 0.7116(4) 0.5488(8)
H3 H 0.4044 0.7586 0.4945
C6 C 0.4379(3) 0.6034(3) 0.7157(7)
H4 H 0.4778 0.5781 0.7749
C7 C 0.3051(3) 0.6079(3) 0.6171(7)
H5 H 0.2555 0.5844 0.6066
C8 C 0.2538(3) 0.7195(4) 0.4473(8)
C9 C 0.3822(4) 0.9101(3) -0.2279(7)
C10 C 0.3481(3) 0.4917(3) 0.7875(8)
C11 C 0.4533(3) 0.6736(3) 0.6367(7)
C12 C 0.6010(4) 0.8707(3) -0.8521(7)
C13 C 0.5927(4) 0.7401(4) -0.9487(8)
H6 H 0.5678 0.6914 -0.9473
C14 C 0.4254(4) 0.9917(4) -0.4522(8)
H7 H 0.4148 1.0405 -0.3943
H8 H 0.3799 0.9792 -0.5208
N2 N 0.6557(3) 0.7496(3) -1.0499(6)
C15 C 0.5636(3) 0.7971(3) -0.8490(8)
H9 H 0.5201 0.7878 -0.7806
C16 C 0.6909(4) 0.8181(3) -1.0463(8)
H10 H 0.7354 0.8253 -1.1128
C17 C 0.6664(4) 0.8790(4) -0.9518(8)
H11 H 0.6939 0.9264 -0.9543
C18 C 0.3458(4) 0.8403(4) 0.0121(8)
H12 H 0.3606 0.8061 0.0966
C19 C 0.4025(4) 0.8607(4) -0.1058(9)
H13 H 0.4537 0.8404 -0.0999
C20 C 0.2533(4) 0.9125(4) -0.1169(8)
H14 H 0.2011 0.9300 -0.1249
C21 C 0.5390(3) 0.7048(4) 0.6421(7)
C22 C 0.3055(4) 0.9358(4) -0.2374(8)
H15 H 0.2891 0.9684 -0.3235
H16 H 0.142(2) 0.707(3) 0.449(9)
Cu1C Cu 0.30996(4) 1.34377(4) 0.81652(8)
Cu1C_2 Cu 0.30996(4) 0.34377(4) 0.81652(8)
Cu1B Cu 0.69004(4) 0.65623(4) 0.81652(8)
Cu1B_2 Cu 0.69004(4) 0.65623(4) -1.18348(8)
Cu1C_3 Cu 0.30996(4) 1.34377(4) -1.18348(8)
Cu1A Cu 0.80996(4) 1.15623(4) 0.18348(8)
Cu1A_2 Cu -0.19004(4) 1.15623(4) 0.18348(8)
O1C O 0.3134(3) 1.1847(2) 0.5349(6)
O2C O 0.2339(2) 1.2786(2) 0.6354(5)
O3C O 0.2043(2) 0.9482(2) 0.2793(5)
O3_2 O 0.2957(2) 1.4482(2) 0.7207(5)
O4A O 0.4207(2) 1.0670(2) -0.7618(5)
O5A O 0.5603(2) 1.0703(2) -0.3353(6)
O6C O 0.1121(3) 0.9748(2) 0.0886(6)
O7C O -0.0506(2) 1.2744(3) 0.3972(6)
N1A N 0.7281(3) 1.1333(3) 0.0107(6)
N1C N 0.2281(3) 1.3667(3) 0.9893(6)
O8C O -0.0905(2) 1.1579(2) 0.3126(6)
O8B O 0.0905(2) 0.8421(2) 0.3126(6)
O8A O 0.4095(2) 1.3421(2) 0.6874(6)
C2C C 0.1812(3) 1.1795(3) 0.4577(7)
C3A C 0.4921(3) 1.0733(3) -0.6619(7)
H1A H 0.4887 1.1188 -0.5898
H2A H 0.5381 1.0795 -0.7330
C4C C 0.1367(3) 1.0708(3) 0.2933(8)
C5C C 0.1063(3) 1.2116(4) 0.4512(8)
H3C H 0.0956 1.2586 0.5055
C6C C 0.0621(3) 1.1034(3) 0.2843(7)
H4C H 0.0222 1.0781 0.2251
C7C C 0.1949(3) 1.1079(3) 0.3829(7)
H5C H 0.2445 1.0844 0.3934
C8C C 0.2462(3) 1.2195(4) 0.5527(8)
C9A C 0.6178(4) 1.0899(3) -0.2279(7)
C10C C 0.1519(3) 0.9917(3) 0.2125(8)
C11C C 0.0467(3) 1.1736(3) 0.3633(7)
C12A C 0.3990(4) 1.1293(3) -0.8521(7)
C13A C 0.4073(4) 1.2599(4) -0.9487(8)
H6A H 0.4322 1.3086 -0.9473
C14A C 0.5746(4) 1.0083(4) -0.4522(8)
H7A H 0.5852 0.9595 -0.3943
H8A H 0.6201 1.0208 -0.5208
N2A N 0.3443(3) 1.2504(3) -1.0499(6)
N2B N 0.1557(3) 0.7504(3) 0.0499(6)
N2A_2 N 0.3443(3) 1.2504(3) 0.9501(6)
C15A C 0.4364(3) 1.2029(3) -0.8490(8)
H9A H 0.4799 1.2122 -0.7806
C16A C 0.3091(4) 1.1819(3) -1.0463(8)
H10A H 0.2646 1.1747 -1.1128
C17A C 0.3336(4) 1.1210(4) -0.9518(8)
H11A H 0.3061 1.0736 -0.9543
C18A C 0.6542(4) 1.1597(4) 0.0121(8)
H12A H 0.6394 1.1939 0.0966
C19A C 0.5975(4) 1.1393(4) -0.1058(9)
H13A H 0.5463 1.1596 -0.0999
C20A C 0.7467(4) 1.0875(4) -0.1169(8)
H14A H 0.7989 1.0700 -0.1249
C21C C -0.0390(3) 1.2048(4) 0.3579(7)
C22A C 0.6945(4) 1.0642(4) -0.2374(8)
H15A H 0.7109 1.0316 -0.3235
H16C H 0.358(2) 1.207(3) 0.551(9)
O9 O 0.0923(9) 0.9376(8) 0.6444(13)
O10 O -0.0959(13) 0.8897(12) -0.160(2)
loop_
_geom_bond_atom_site_label_1
_geom_bond_atom_site_label_2
_geom_bond_site_symmetry_1
_geom_bond_site_symmetry_2
Cu1 O2 1_555 1_555
O1 C8 1_555 1_555
O2 C8 1_555 1_555
O3 C10 1_555 1_555
O4 C3 1_555 1_555
O5 C9 1_555 1_555
O6 C10 1_555 1_555
O7 C21 1_555 1_555
C1 C3 1_555 1_555
N1 Cu1 1_555 1_555
O8 C21 1_555 1_555
C2 C5 1_555 1_555
C3 H1 1_555 1_555
H2 C3 1_555 1_555
C4 C6 1_555 1_555
C5 H3 1_555 1_555
C6 H4 1_555 1_555
C7 C2 1_555 1_555
H5 C7 1_555 1_555
C8 C2 1_555 1_555
C9 C19 1_555 1_555
C10 C4 1_555 1_555
C11 C5 1_555 1_555
C12 O4 1_555 1_555
C13 H6 1_555 1_555
C14 O5 1_555 1_555
H7 C14 1_555 1_555
H8 C14 1_555 1_555
N2 C13 1_555 1_555
C15 C12 1_555 1_555
H9 C15 1_555 1_555
C16 N2 1_555 1_555
H10 C16 1_555 1_555
C17 C12 1_555 1_555
H11 C17 1_555 1_555
C18 N1 1_555 1_555
H12 C18 1_555 1_555
C19 C18 1_555 1_555
H13 C19 1_555 1_555
C20 N1 1_555 1_555
H14 C20 1_555 1_555
C21 C11 1_555 1_555
C22 C9 1_555 1_555
H15 C22 1_555 1_555
H16 O1 1_555 1_555
Cu1C O2C 1_555 1_555
Cu1C_2 O3 1_555 1_555
Cu1B O8 1_555 1_555
Cu1B_2 N2 1_555 1_555
Cu1C_3 N2A 1_555 1_555
Cu1A N1A 1_555 1_555
Cu1A_2 O8C 1_555 1_555
O1C C8C 1_555 1_555
O2C C8C 1_555 1_555
O3C Cu1 1_555 1_555
O3_2 Cu1C 1_555 1_555
O4A C3A 1_555 1_555
O5A C9A 1_555 1_555
O6C C10C 1_555 1_555
O7C C21C 1_555 1_555
N1A C18A 1_555 1_555
N1C Cu1C 1_555 1_555
O8C C21C 1_555 1_555
O8B Cu1 1_555 1_555
O8A Cu1C 1_555 1_555
C2C C5C 1_555 1_555
C3A C1 1_555 1_555
H1A C3A 1_555 1_555
H2A C3A 1_555 1_555
C4C C6C 1_555 1_555
C5C H3C 1_555 1_555
C6C H4C 1_555 1_555
C7C C2C 1_555 1_555
H5C C7C 1_555 1_555
C8C C2C 1_555 1_555
C9A C19A 1_555 1_555
C10C O3C 1_555 1_555
C11C C5C 1_555 1_555
C12A O4A 1_555 1_555
C13A H6A 1_555 1_555
C14A C1 1_555 1_555
H7A C14A 1_555 1_555
H8A C14A 1_555 1_555
N2A C13A 1_555 1_555
N2B Cu1 1_555 1_555
N2A_2 Cu1C 1_555 1_555
C15A C12A 1_555 1_555
H9A C15A 1_555 1_555
C16A N2A 1_555 1_555
H10A C16A 1_555 1_555
C17A C12A 1_555 1_555
H11A C17A 1_555 1_555
C18A H12A 1_555 1_555
C19A C18A 1_555 1_555
H13A C19A 1_555 1_555
C20A N1A 1_555 1_555
H14A C20A 1_555 1_555
C21C C11C 1_555 1_555
C22A C9A 1_555 1_555
H15A C22A 1_555 1_555
H16C O1C 1_555 1_555
C1 C14 1_555 1_555
C4 C7 1_555 1_555
C6 C11 1_555 1_555
C13 C15 1_555 1_555
C16 C17 1_555 1_555
C20 C22 1_555 1_555
O5A C14A 1_555 1_555
C4C C7C 1_555 1_555
C4C C10C 1_555 1_555
C6C C11C 1_555 1_555
C13A C15A 1_555 1_555
C16A C17A 1_555 1_555
C20A C22A 1_555 1_555

#END
