
#######################################################################
#
#                 Cambridge Crystallographic Data Centre
#                                CCDC 
#
#######################################################################
#
# If this CIF has been generated from an entry in the Cambridge 
# Structural Database, then it will include bibliographic, chemical, 
# crystal, experimental, refinement or atomic coordinate data resulting 
# from the CCDC's data processing and validation procedures.
#
#######################################################################

data_EXIGOH
_symmetry_cell_setting           orthorhombic
_symmetry_space_group_name_H-M   'F d d 2'
_symmetry_Int_Tables_number      43
_space_group_name_Hall           'F 2 -2d'
loop_
_symmetry_equiv_pos_site_id
_symmetry_equiv_pos_as_xyz
1 x,y,z
2 -x,-y,z
3 1/4-x,1/4+y,1/4+z
4 3/4+x,3/4-y,1/4+z
5 x,1/2+y,1/2+z
6 -x,1/2-y,1/2+z
7 1/4-x,3/4+y,3/4+z
8 3/4+x,1/4-y,3/4+z
9 1/2+x,y,1/2+z
10 1/2-x,-y,1/2+z
11 3/4-x,1/4+y,3/4+z
12 1/4+x,3/4-y,3/4+z
13 1/2+x,1/2+y,z
14 1/2-x,1/2-y,z
15 3/4-x,3/4+y,1/4+z
16 1/4+x,1/4-y,1/4+z
_cell_length_a                   21.2292(10)
_cell_length_b                   33.379(3)
_cell_length_c                   12.8979(11)
_cell_angle_alpha                90
_cell_angle_beta                 90
_cell_angle_gamma                90
_cell_volume                     9139.57
loop_
_atom_site_label
_atom_site_type_symbol
_atom_site_fract_x
_atom_site_fract_y
_atom_site_fract_z
Sn1 Sn -0.008073(19) 0.248088(17) 0.83035(14)
N1 N -0.0327(3) 0.22251(19) 1.0000(5)
N2 N -0.0008(5) 0.24087(15) 1.0775(15)
N3 N -0.0209(3) 0.2270(2) 1.1651(5)
N4 N -0.0674(3) 0.1994(2) 1.1499(5)
C1 C -0.0717(4) 0.1973(2) 1.0483(6)
C2 C -0.1087(5) 0.1665(3) 0.9906(7)
C3 C -0.1701(5) 0.1692(4) 0.9891(9)
C4 C -0.2081(6) 0.1384(4) 0.9332(9)
H1 H -0.2527 0.1401 0.9309
C5 C -0.1781(7) 0.1087(5) 0.8868(11)
H2 H -0.2014 0.089 0.85
C6 C -0.1105(7) 0.1060(4) 0.8919(10)
H3 H -0.0894 0.0845 0.8585
C7 C -0.0775(5) 0.1333(3) 0.9429(7)
H4 H -0.033 0.1309 0.9477
C8 C -0.2063(4) 0.2031(3) 1.0400(10)
H5 H -0.2024 0.201 1.1155
H6 H -0.2508 0.2014 1.0204
H7 H -0.189 0.2289 1.0169
C9 C -0.1033(4) 0.2428(3) 0.7783(7)
H8 H -0.1313 0.2412 0.8396
H9 H -0.1147 0.2672 0.7391
C10 C -0.1151(4) 0.2062(3) 0.7097(7)
H10 H -0.0844 0.2066 0.6519
H11 H -0.1069 0.1818 0.751
C11 C -0.1800(5) 0.2032(4) 0.6648(8)
H12 H -0.19 0.2281 0.6266
H13 H -0.2111 0.2002 0.7215
C12 C -0.1845(5) 0.1677(4) 0.5921(10)
H14 H -0.2275 0.1658 0.5648
H15 H -0.1741 0.1431 0.6299
H16 H -0.1549 0.1713 0.5346
C13 C 0.0506(4) 0.1973(3) 0.8037(7)
H17 H 0.0564 0.1836 0.8711
H18 H 0.0271 0.1787 0.7583
C14 C 0.1165(5) 0.2032(3) 0.7557(10)
H19 H 0.1379 0.1769 0.7522
H20 H 0.1115 0.2131 0.6838
C15 C 0.1573(5) 0.2315(4) 0.8131(11)
H21 H 0.1375 0.2583 0.8139
H22 H 0.1984 0.2338 0.7773
C16 C 0.1678(7) 0.2178(5) 0.9212(10)
H23 H 0.1949 0.237 0.9573
H24 H 0.188 0.1914 0.9206
H25 H 0.1272 0.216 0.9572
C17 C 0.0208(4) 0.3032(2) 0.8994(7)
H26 H 0.0514 0.2974 0.9554
H27 H 0.0425 0.3197 0.8465
C18 C -0.0348(4) 0.3275(2) 0.9448(7)
H28 H -0.0638 0.3348 0.8879
H29 H -0.0582 0.3103 0.9941
C19 C -0.0142(5) 0.3648(3) 0.9995(8)
H30 H 0.0078 0.3824 0.9494
H31 H 0.0163 0.3575 1.0545
C20 C -0.0684(6) 0.3881(4) 1.0483(10)
H32 H -0.0519 0.4122 1.0822
H33 H -0.0896 0.3712 1.0998
H34 H -0.0985 0.3958 0.9943
N3E N 0.0209(3) 0.2730(2) 0.6651(5)
Sn1E Sn 0.008073(19) 0.251912(17) 1.33035(14)
loop_
_geom_bond_atom_site_label_1
_geom_bond_atom_site_label_2
_geom_bond_site_symmetry_1
_geom_bond_site_symmetry_2
Sn1 N1 1_555 1_555
N1 N2 1_555 1_555
N2 N3 1_555 1_555
N3 N4 1_555 1_555
N4 C1 1_555 1_555
C1 N1 1_555 1_555
C2 C1 1_555 1_555
C3 C2 1_555 1_555
C4 C3 1_555 1_555
H1 C4 1_555 1_555
C5 C4 1_555 1_555
H2 C5 1_555 1_555
C6 C5 1_555 1_555
H3 C6 1_555 1_555
C7 C2 1_555 1_555
H4 C7 1_555 1_555
C8 C3 1_555 1_555
H5 C8 1_555 1_555
H6 C8 1_555 1_555
H7 C8 1_555 1_555
C9 Sn1 1_555 1_555
H8 C9 1_555 1_555
H9 C9 1_555 1_555
C10 C9 1_555 1_555
H10 C10 1_555 1_555
H11 C10 1_555 1_555
C11 C10 1_555 1_555
H12 C11 1_555 1_555
H13 C11 1_555 1_555
C12 C11 1_555 1_555
H14 C12 1_555 1_555
H15 C12 1_555 1_555
H16 C12 1_555 1_555
C13 Sn1 1_555 1_555
H17 C13 1_555 1_555
H18 C13 1_555 1_555
C14 C13 1_555 1_555
H19 C14 1_555 1_555
H20 C14 1_555 1_555
C15 C14 1_555 1_555
H21 C15 1_555 1_555
H22 C15 1_555 1_555
C16 C15 1_555 1_555
H23 C16 1_555 1_555
H24 C16 1_555 1_555
H25 C16 1_555 1_555
C17 Sn1 1_555 1_555
H26 C17 1_555 1_555
H27 C17 1_555 1_555
C18 C17 1_555 1_555
H28 C18 1_555 1_555
H29 C18 1_555 1_555
C19 C18 1_555 1_555
H30 C19 1_555 1_555
H31 C19 1_555 1_555
C20 C19 1_555 1_555
H32 C20 1_555 1_555
H33 C20 1_555 1_555
H34 C20 1_555 1_555
N3E Sn1 1_555 1_555
Sn1E N3 1_555 1_555
C6 C7 1_555 1_555

#END
