
#######################################################################
#
#                 Cambridge Crystallographic Data Centre
#                                CCDC 
#
#######################################################################
#
# If this CIF has been generated from an entry in the Cambridge 
# Structural Database, then it will include bibliographic, chemical, 
# crystal, experimental, refinement or atomic coordinate data resulting 
# from the CCDC's data processing and validation procedures.
#
#######################################################################

data_EXIVEM
_symmetry_cell_setting           monoclinic
_symmetry_space_group_name_H-M   'C 2/c'
_symmetry_Int_Tables_number      15
_space_group_name_Hall           '-C 2yn'
loop_
_symmetry_equiv_pos_site_id
_symmetry_equiv_pos_as_xyz
1 x,y,z
2 1/2+x,1/2+y,z
3 x,-y,1/2+z
4 1/2+x,1/2-y,1/2+z
5 -x,-y,-z
6 1/2-x,1/2-y,-z
7 -x,y,1/2-z
8 1/2-x,1/2+y,1/2-z
_cell_length_a                   22.8657(16)
_cell_length_b                   11.4400(8)
_cell_length_c                   20.2431(14)
_cell_angle_alpha                90
_cell_angle_beta                 120.5390(10)
_cell_angle_gamma                90
_cell_volume                     4560.72
loop_
_atom_site_label
_atom_site_type_symbol
_atom_site_fract_x
_atom_site_fract_y
_atom_site_fract_z
Zn1 Zn 0.0000 0.03964(6) 0.2500
K1 K 0.40699(5) 0.07102(9) 0.40997(6)
S1 S 0.09337(6) 0.14126(11) 0.26315(7)
S2 S 0.06416(5) -0.06572(10) 0.36288(6)
N1 N 0.2769(2) 0.1387(5) 0.3933(3)
N2 N 0.2409(3) -0.0835(6) 0.5158(3)
O1 O 0.3740(5) 0.0996(8) 0.2566(3)
O2 O 0.3954(4) 0.2831(5) 0.3467(4)
O3 O 0.4442(2) 0.2595(4) 0.5050(3)
O4 O 0.4643(2) 0.0233(5) 0.5697(2)
O5 O 0.3706(2) -0.1281(4) 0.4498(3)
O6 O 0.3412(2) -0.1047(5) 0.3024(3)
C1 C 0.3640(6) 0.1902(11) 0.2263(5)
C2 C 0.3929(4) 0.2930(8) 0.2788(4)
C3 C 0.4156(5) 0.3762(7) 0.3941(6)
C4 C 0.4055(5) 0.3621(6) 0.4591(5)
C5 C 0.4355(4) 0.2317(8) 0.5647(4)
C6 C 0.4786(4) 0.1364(8) 0.6122(4)
C7 C 0.4180(4) -0.0431(10) 0.5770(5)
C8 C 0.4055(4) -0.1538(8) 0.5329(5)
C9 C 0.3477(6) -0.2223(7) 0.4020(7)
C10 C 0.3044(5) -0.1812(9) 0.3213(6)
C11 C 0.3057(4) -0.0664(8) 0.2262(4)
C12 C 0.3503(6) -0.0023(12) 0.2111(4)
C13 C 0.2225(2) 0.1107(4) 0.3746(3)
C14 C 0.1541(2) 0.0761(4) 0.3478(2)
C15 C 0.14233(19) -0.0065(4) 0.3881(2)
C16 C 0.1980(2) -0.0485(5) 0.4587(3)
S1F S -0.09337(6) 0.14126(11) 0.23685(7)
S2F S -0.06416(5) -0.06572(10) 0.13712(6)
K1D K 0.59301(5) -0.07102(9) 0.59003(6)
O4D O 0.5357(2) -0.0233(5) 0.4303(2)
C14F C -0.1541(2) 0.0761(4) 0.1522(2)
C15F C -0.14233(19) -0.0065(4) 0.1119(2)
C6D C 0.5214(4) -0.1364(8) 0.3878(4)
C7D C 0.5820(4) 0.0431(10) 0.4230(5)
C13F C -0.2225(2) 0.1107(4) 0.1254(3)
C16F C -0.1980(2) -0.0485(5) 0.0413(3)
C5D C 0.5645(4) -0.2317(8) 0.4353(4)
C8D C 0.5945(4) 0.1538(8) 0.4671(5)
N1F N -0.2769(2) 0.1387(5) 0.1067(3)
N2F N -0.2409(3) -0.0835(6) -0.0158(3)
O3D O 0.5558(2) -0.2595(4) 0.4950(3)
O5D O 0.6294(2) 0.1281(4) 0.5502(3)
K1F K -0.40699(5) 0.07102(9) 0.09003(6)
C4D C 0.5945(5) -0.3621(6) 0.5409(5)
C9D C 0.6523(6) 0.2223(7) 0.5980(7)
C3D C 0.5844(5) -0.3762(7) 0.6059(6)
C10D C 0.6956(5) 0.1812(9) 0.6787(6)
O2D O 0.6046(4) -0.2831(5) 0.6533(4)
O6D O 0.6588(2) 0.1047(5) 0.6976(3)
C2D C 0.6071(4) -0.2930(8) 0.7212(4)
C11D C 0.6943(4) 0.0664(8) 0.7738(4)
C1D C 0.6360(6) -0.1902(11) 0.7737(5)
C12D C 0.6497(6) 0.0023(12) 0.7889(4)
O1D O 0.6260(5) -0.0996(8) 0.7434(3)
K1B K -0.59301(5) -0.07102(9) -0.09003(6)
O1F O -0.3740(5) 0.0996(8) 0.2434(3)
O2F O -0.3954(4) 0.2831(5) 0.1533(4)
O3F O -0.4442(2) 0.2595(4) -0.0050(3)
O4B O -0.5357(2) -0.0233(5) 0.0697(2)
O4F O -0.4643(2) 0.0233(5) -0.0697(2)
O5F O -0.3706(2) -0.1281(4) 0.0502(3)
O6F O -0.3412(2) -0.1047(5) 0.1976(3)
loop_
_geom_bond_atom_site_label_1
_geom_bond_atom_site_label_2
_geom_bond_site_symmetry_1
_geom_bond_site_symmetry_2
Zn1 S1 1_555 1_555
K1 N1 1_555 1_555
S1 C14 1_555 1_555
S2 Zn1 1_555 1_555
N1 C13 1_555 1_555
N2 C16 1_555 1_555
O1 K1 1_555 1_555
O2 K1 1_555 1_555
O3 K1 1_555 1_555
O4 K1 1_555 1_555
O5 K1 1_555 1_555
O6 K1 1_555 1_555
C1 O1 1_555 1_555
C2 O2 1_555 1_555
C3 O2 1_555 1_555
C4 O3 1_555 1_555
C5 O3 1_555 1_555
C6 O4 1_555 1_555
C7 O4 1_555 1_555
C8 O5 1_555 1_555
C9 O5 1_555 1_555
C10 O6 1_555 1_555
C11 O6 1_555 1_555
C12 O1 1_555 1_555
C13 C14 1_555 1_555
C14 C15 1_555 1_555
C15 S2 1_555 1_555
C16 C15 1_555 1_555
S1F Zn1 1_555 1_555
S2F Zn1 1_555 1_555
K1D O4 1_555 1_555
O4D K1 1_555 1_555
C14F S1F 1_555 1_555
C15F S2F 1_555 1_555
C6D O4D 1_555 1_555
C7D O4D 1_555 1_555
C13F C14F 1_555 1_555
C16F C15F 1_555 1_555
C5D C6D 1_555 1_555
C8D C7D 1_555 1_555
N1F C13F 1_555 1_555
N2F C16F 1_555 1_555
O3D K1D 1_555 1_555
O5D K1D 1_555 1_555
K1F N1F 1_555 1_555
C4D O3D 1_555 1_555
C9D O5D 1_555 1_555
C3D C4D 1_555 1_555
C10D C9D 1_555 1_555
O2D K1D 1_555 1_555
O6D K1D 1_555 1_555
C2D O2D 1_555 1_555
C11D O6D 1_555 1_555
C1D C2D 1_555 1_555
C12D C11D 1_555 1_555
O1D K1D 1_555 1_555
K1B O4B 1_555 1_555
O1F K1F 1_555 1_555
O2F K1F 1_555 1_555
O3F K1F 1_555 1_555
O4B K1F 1_555 1_555
O4F K1F 1_555 1_555
O5F K1F 1_555 1_555
O6F K1F 1_555 1_555
C1 C2 1_555 1_555
C3 C4 1_555 1_555
C5 C6 1_555 1_555
C7 C8 1_555 1_555
C9 C10 1_555 1_555
C11 C12 1_555 1_555
K1D O4D 1_555 1_555
C14F C15F 1_555 1_555
C5D O3D 1_555 1_555
C8D O5D 1_555 1_555
C3D O2D 1_555 1_555
C10D O6D 1_555 1_555
C1D O1D 1_555 1_555
C12D O1D 1_555 1_555
K1B O4F 1_555 1_555

#END
