
#######################################################################
#
#                 Cambridge Crystallographic Data Centre
#                                CCDC 
#
#######################################################################
#
# If this CIF has been generated from an entry in the Cambridge 
# Structural Database, then it will include bibliographic, chemical, 
# crystal, experimental, refinement or atomic coordinate data resulting 
# from the CCDC's data processing and validation procedures.
#
#######################################################################

data_EXOBOJ
_symmetry_cell_setting           monoclinic
_symmetry_space_group_name_H-M   'P 21/c'
_symmetry_Int_Tables_number      14
_space_group_name_Hall           '-P 2ybc'
loop_
_symmetry_equiv_pos_site_id
_symmetry_equiv_pos_as_xyz
1 x,y,z
2 -x,1/2+y,1/2-z
3 -x,-y,-z
4 x,1/2-y,1/2+z
_cell_length_a                   10.813(10)
_cell_length_b                   8.566(8)
_cell_length_c                   12.667(11)
_cell_angle_alpha                90
_cell_angle_beta                 99.228(12)
_cell_angle_gamma                90
_cell_volume                     1158.09
loop_
_atom_site_label
_atom_site_type_symbol
_atom_site_fract_x
_atom_site_fract_y
_atom_site_fract_z
Li1 Li 0.4837(5) 0.1326(6) -0.0485(3)
N1 N 0.5873(2) 0.0798(3) 0.09883(17)
H1 H 0.551(3) 0.106(3) 0.1490(19)
N2 N 0.5884(3) 0.2969(3) 0.3403(2)
O1 O 0.3634(3) 0.2927(3) -0.0279(2)
C1 C 0.6595(3) 0.2622(4) 0.2885(2)
C2 C 0.7474(3) 0.2167(3) 0.2221(2)
C3 C 0.8740(4) 0.2597(5) 0.2502(3)
H2 H 0.8988 0.3182 0.3118
C4 C 0.9584(4) 0.2182(6) 0.1903(4)
H3 H 1.0424 0.2433 0.2111
C5 C 0.9198(3) 0.1373(5) 0.0969(3)
H4 H 0.9779 0.1145 0.0523
C6 C 0.7989(3) 0.0898(4) 0.0678(2)
H5 H 0.7777 0.0307 0.0059
C7 C 0.7036(3) 0.1282(3) 0.12971(19)
C8 C 0.2674(6) 0.3311(7) -0.1124(4)
H6 H 0.2392 0.2398 -0.1548
H7 H 0.2949 0.4099 -0.1585
C9 C 0.1669(6) 0.3925(9) -0.0562(7)
H8 H 0.1227 0.4773 -0.0968
H9 H 0.1071 0.3107 -0.0480
C10 C 0.2229(6) 0.4439(9) 0.0405(7)
H10 H 0.1711 0.4202 0.0943
H11 H 0.2348 0.5560 0.0388
C11 C 0.3413(6) 0.3669(8) 0.0656(5)
H12 H 0.4070 0.4420 0.0893
H13 H 0.3393 0.2909 0.1221
Li1B Li 0.5163(5) -0.1326(6) 0.0485(3)
Li1C Li 0.4837(5) 0.3674(6) 0.4515(3)
N1B N 0.4127(2) -0.0798(3) -0.09883(17)
H1B H 0.449(3) -0.106(3) -0.1490(19)
N2C N 0.5884(3) 0.2031(3) -0.1597(2)
loop_
_geom_bond_atom_site_label_1
_geom_bond_atom_site_label_2
_geom_bond_site_symmetry_1
_geom_bond_site_symmetry_2
Li1 N1 1_555 1_555
N1 H1 1_555 1_555
N2 C1 1_555 1_555
O1 Li1 1_555 1_555
C1 C2 1_555 1_555
C2 C3 1_555 1_555
C3 H2 1_555 1_555
C4 C3 1_555 1_555
H3 C4 1_555 1_555
C5 C4 1_555 1_555
H4 C5 1_555 1_555
C6 C5 1_555 1_555
H5 C6 1_555 1_555
C7 N1 1_555 1_555
C8 O1 1_555 1_555
H6 C8 1_555 1_555
H7 C8 1_555 1_555
C9 C8 1_555 1_555
H8 C9 1_555 1_555
H9 C9 1_555 1_555
C10 C9 1_555 1_555
H10 C10 1_555 1_555
H11 C10 1_555 1_555
C11 O1 1_555 1_555
H12 C11 1_555 1_555
H13 C11 1_555 1_555
Li1B N1 1_555 1_555
Li1C N2 1_555 1_555
N1B Li1 1_555 1_555
H1B N1B 1_555 1_555
N2C Li1 1_555 1_555
C2 C7 1_555 1_555
C6 C7 1_555 1_555
C10 C11 1_555 1_555
Li1B N1B 1_555 1_555

#END
