
#######################################################################
#
#                 Cambridge Crystallographic Data Centre
#                                CCDC 
#
#######################################################################
#
# If this CIF has been generated from an entry in the Cambridge 
# Structural Database, then it will include bibliographic, chemical, 
# crystal, experimental, refinement or atomic coordinate data resulting 
# from the CCDC's data processing and validation procedures.
#
#######################################################################

data_EXODAX
_symmetry_cell_setting           monoclinic
_symmetry_space_group_name_H-M   'C 2/m'
_symmetry_Int_Tables_number      12
_space_group_name_Hall           '-C 2y'
loop_
_symmetry_equiv_pos_site_id
_symmetry_equiv_pos_as_xyz
1 x,y,z
2 -x,y,-z
3 1/2+x,1/2+y,z
4 1/2-x,1/2+y,-z
5 -x,-y,-z
6 x,-y,z
7 1/2-x,1/2-y,-z
8 1/2+x,1/2-y,z
_cell_length_a                   13.8993(5)
_cell_length_b                   20.8772(8)
_cell_length_c                   8.5239(3)
_cell_angle_alpha                90
_cell_angle_beta                 123.235(2)
_cell_angle_gamma                90
_cell_volume                     2068.87
loop_
_atom_site_label
_atom_site_type_symbol
_atom_site_fract_x
_atom_site_fract_y
_atom_site_fract_z
Nd1 Nd 0.30677(3) 0.0000 1.33861(4)
Nd2 Nd 0.0000 0.090555(15) 1.0000
Cl1 Cl 0.09883(14) 0.0000 1.3517(2)
Cl2 Cl 0.22328(10) 0.12781(5) 1.28471(16)
Cl3 Cl 0.5000 0.08162(8) 1.5000
Cl4 Cl 0.34891(17) 0.0000 1.0460(3)
O1 O 0.1246(4) 0.0000 1.0366(6)
O2 O 0.3761(5) 0.0000 1.6768(7)
N1 N 0.0724(4) 0.1459(2) 0.8131(6)
N2 N 0.0000 0.2152(3) 1.0000
C1 C 0.1137(5) 0.1117(3) 0.7309(7)
H1 H 0.1050 0.0674 0.7259
C2 C 0.1691(6) 0.1388(3) 0.6525(9)
H2 H 0.1983 0.1133 0.5986
C3 C 0.1795(7) 0.2034(4) 0.6563(10)
H3 H 0.2150 0.2228 0.6026
C4 C 0.1381(7) 0.2399(3) 0.7385(10)
H4 H 0.1457 0.2842 0.7426
C5 C 0.0839(4) 0.2102(2) 0.8167(7)
C6 C 0.0386(5) 0.2482(2) 0.9097(7)
C7 C 0.0369(7) 0.3149(3) 0.9043(11)
H5 H 0.0607 0.3369 0.8363
C8 C 0.0000 0.3474(5) 1.0000
H6 H 0.0000 0.3919 1.0000
Nd1A Nd 0.69323(3) 0.0000 1.66139(4)
Nd2D Nd 0.0000 -0.090555(15) 1.0000
Cl1A Cl -0.09883(14) 0.0000 0.6483(2)
Cl2E Cl 0.22328(10) -0.12781(5) 1.28471(16)
Cl2A Cl -0.22328(10) 0.12781(5) 0.71529(16)
Cl3D Cl 0.5000 -0.08162(8) 1.5000
O1A O -0.1246(4) 0.0000 0.9634(6)
N1A N -0.0724(4) 0.1459(2) 1.1869(6)
C1A C -0.1137(5) 0.1117(3) 1.2691(7)
H1A H -0.1050 0.0674 1.2741
C2A C -0.1691(6) 0.1388(3) 1.3475(9)
H2A H -0.1983 0.1133 1.4014
C3A C -0.1795(7) 0.2034(4) 1.3437(10)
H3A H -0.2150 0.2228 1.3974
C4A C -0.1381(7) 0.2399(3) 1.2615(10)
H4A H -0.1457 0.2842 1.2574
C5A C -0.0839(4) 0.2102(2) 1.1833(7)
C6A C -0.0386(5) 0.2482(2) 1.0903(7)
C7A C -0.0369(7) 0.3149(3) 1.0957(11)
H5A H -0.0607 0.3369 1.1637
loop_
_geom_bond_atom_site_label_1
_geom_bond_atom_site_label_2
_geom_bond_site_symmetry_1
_geom_bond_site_symmetry_2
Nd1 Cl1 1_555 1_555
Nd2 Cl1 1_555 1_555
Cl1 Nd2D 1_555 1_555
Cl2 Nd1 1_555 1_555
Cl3 Nd1 1_555 1_555
Cl4 Nd1 1_555 1_555
O1 Nd1 1_555 1_555
O2 Nd1 1_555 1_555
N1 Nd2 1_555 1_555
N2 Nd2 1_555 1_555
C1 N1 1_555 1_555
H1 C1 1_555 1_555
C2 C1 1_555 1_555
H2 C2 1_555 1_555
C3 C2 1_555 1_555
H3 C3 1_555 1_555
C4 C3 1_555 1_555
H4 C4 1_555 1_555
C5 N1 1_555 1_555
C6 N2 1_555 1_555
C7 C6 1_555 1_555
H5 C7 1_555 1_555
C8 C7 1_555 1_555
H6 C8 1_555 1_555
Nd1A Cl3 1_555 1_555
Nd2D O1 1_555 1_555
Cl1A Nd2 1_555 1_555
Cl2E Nd1 1_555 1_555
Cl2A Nd2 1_555 1_555
Cl3D Nd1 1_555 1_555
O1A Nd2 1_555 1_555
N1A Nd2 1_555 1_555
C1A N1A 1_555 1_555
H1A C1A 1_555 1_555
C2A C1A 1_555 1_555
H2A C2A 1_555 1_555
C3A C2A 1_555 1_555
H3A C3A 1_555 1_555
C4A C3A 1_555 1_555
H4A C4A 1_555 1_555
C5A N1A 1_555 1_555
C6A N2 1_555 1_555
C7A C8 1_555 1_555
H5A C7A 1_555 1_555
Nd2 Cl2 1_555 1_555
Nd2 O1 1_555 1_555
C4 C5 1_555 1_555
C5 C6 1_555 1_555
Nd1A Cl3D 1_555 1_555
Nd2D Cl1A 1_555 1_555
Nd2D Cl2E 1_555 1_555
Nd2D O1A 1_555 1_555
C4A C5A 1_555 1_555
C5A C6A 1_555 1_555
C6A C7A 1_555 1_555

#END
