
#######################################################################
#
#                 Cambridge Crystallographic Data Centre
#                                CCDC 
#
#######################################################################
#
# If this CIF has been generated from an entry in the Cambridge 
# Structural Database, then it will include bibliographic, chemical, 
# crystal, experimental, refinement or atomic coordinate data resulting 
# from the CCDC's data processing and validation procedures.
#
#######################################################################

data_EXODEB
_symmetry_cell_setting           monoclinic
_symmetry_space_group_name_H-M   'C 2/m'
_symmetry_Int_Tables_number      12
_space_group_name_Hall           '-C 2y'
loop_
_symmetry_equiv_pos_site_id
_symmetry_equiv_pos_as_xyz
1 x,y,z
2 -x,y,-z
3 1/2+x,1/2+y,z
4 1/2-x,1/2+y,-z
5 -x,-y,-z
6 x,-y,z
7 1/2-x,1/2-y,-z
8 1/2+x,1/2-y,z
_cell_length_a                   13.7211(8)
_cell_length_b                   20.7195(13)
_cell_length_c                   8.5408(5)
_cell_angle_alpha                90
_cell_angle_beta                 123.305(2)
_cell_angle_gamma                90
_cell_volume                     2029.31
loop_
_atom_site_label
_atom_site_type_symbol
_atom_site_fract_x
_atom_site_fract_y
_atom_site_fract_z
Eu1 Eu 0.30577(6) 0.0000 0.33677(9)
Eu2 Eu 0.0000 0.09045(3) 0.0000
Cl1 Cl 0.0991(3) 0.0000 0.3512(5)
Cl2 Cl 0.2228(2) 0.12715(12) 0.2818(3)
Cl3 Cl 0.5000 0.08102(18) 0.5000
Cl4 Cl 0.3504(3) 0.0000 0.0517(5)
O1 O 0.1236(8) 0.0000 0.0372(11)
O2 O 0.3728(9) 0.0000 0.6664(14)
N1 N 0.0732(7) 0.1437(4) -0.1842(10)
N2 N 0.0000 0.2141(6) 0.0000
C1 C 0.1151(10) 0.1106(5) -0.2677(14)
H1 H 0.1071 0.0659 -0.2722
C2 C 0.1694(11) 0.1371(6) -0.3481(15)
H2 H 0.1984 0.1112 -0.4025
C3 C 0.1792(12) 0.2016(7) -0.3454(18)
H3 H 0.2149 0.2210 -0.3996
C4 C 0.1370(13) 0.2390(6) -0.2637(18)
H4 H 0.1434 0.2837 -0.2624
C5 C 0.0841(9) 0.2091(5) -0.1823(12)
C6 C 0.0395(9) 0.2474(5) -0.0900(13)
C7 C 0.0379(12) 0.3146(6) -0.0955(19)
H5 H 0.0622 0.3366 -0.1632
C8 C 0.0000 0.3480(8) 0.0000
H6 H 0.0000 0.3929 0.0000
Eu1A Eu 0.69423(6) 0.0000 0.66323(9)
Eu2D Eu 0.0000 -0.09045(3) 0.0000
Cl1A Cl -0.0991(3) 0.0000 -0.3512(5)
Cl2E Cl 0.2228(2) -0.12715(12) 0.2818(3)
Cl2A Cl -0.2228(2) 0.12715(12) -0.2818(3)
Cl3D Cl 0.5000 -0.08102(18) 0.5000
O1A O -0.1236(8) 0.0000 -0.0372(11)
N1A N -0.0732(7) 0.1437(4) 0.1842(10)
C1A C -0.1151(10) 0.1106(5) 0.2677(14)
H1A H -0.1071 0.0659 0.2722
C2A C -0.1694(11) 0.1371(6) 0.3481(15)
H2A H -0.1984 0.1112 0.4025
C3A C -0.1792(12) 0.2016(7) 0.3454(18)
H3A H -0.2149 0.2210 0.3996
C4A C -0.1370(13) 0.2390(6) 0.2637(18)
H4A H -0.1434 0.2837 0.2624
C5A C -0.0841(9) 0.2091(5) 0.1823(12)
C6A C -0.0395(9) 0.2474(5) 0.0900(13)
C7A C -0.0379(12) 0.3146(6) 0.0955(19)
H5A H -0.0622 0.3366 0.1632
loop_
_geom_bond_atom_site_label_1
_geom_bond_atom_site_label_2
_geom_bond_site_symmetry_1
_geom_bond_site_symmetry_2
Eu1 Cl1 1_555 1_555
Eu2 Cl1 1_555 1_555
Cl1 Eu2D 1_555 1_555
Cl2 Eu1 1_555 1_555
Cl3 Eu1 1_555 1_555
Cl4 Eu1 1_555 1_555
O1 Eu1 1_555 1_555
O2 Eu1 1_555 1_555
N1 Eu2 1_555 1_555
N2 Eu2 1_555 1_555
C1 N1 1_555 1_555
H1 C1 1_555 1_555
C2 C1 1_555 1_555
H2 C2 1_555 1_555
C3 C2 1_555 1_555
H3 C3 1_555 1_555
C4 C3 1_555 1_555
H4 C4 1_555 1_555
C5 N1 1_555 1_555
C6 N2 1_555 1_555
C7 C6 1_555 1_555
H5 C7 1_555 1_555
C8 C7 1_555 1_555
H6 C8 1_555 1_555
Eu1A Cl3 1_555 1_555
Eu2D O1 1_555 1_555
Cl1A Eu2 1_555 1_555
Cl2E Eu1 1_555 1_555
Cl2A Eu2 1_555 1_555
Cl3D Eu1 1_555 1_555
O1A Eu2 1_555 1_555
N1A Eu2 1_555 1_555
C1A N1A 1_555 1_555
H1A C1A 1_555 1_555
C2A C1A 1_555 1_555
H2A C2A 1_555 1_555
C3A C2A 1_555 1_555
H3A C3A 1_555 1_555
C4A C3A 1_555 1_555
H4A C4A 1_555 1_555
C5A N1A 1_555 1_555
C6A N2 1_555 1_555
C7A C8 1_555 1_555
H5A C7A 1_555 1_555
Eu2 Cl2 1_555 1_555
Eu2 O1 1_555 1_555
C4 C5 1_555 1_555
C5 C6 1_555 1_555
Eu1A Cl3D 1_555 1_555
Eu2D Cl1A 1_555 1_555
Eu2D Cl2E 1_555 1_555
Eu2D O1A 1_555 1_555
C4A C5A 1_555 1_555
C5A C6A 1_555 1_555
C6A C7A 1_555 1_555

#END
