
#######################################################################
#
#                 Cambridge Crystallographic Data Centre
#                                CCDC 
#
#######################################################################
#
# If this CIF has been generated from an entry in the Cambridge 
# Structural Database, then it will include bibliographic, chemical, 
# crystal, experimental, refinement or atomic coordinate data resulting 
# from the CCDC's data processing and validation procedures.
#
#######################################################################

data_EXOGUT
_symmetry_cell_setting           monoclinic
_symmetry_space_group_name_H-M   'P 21/c'
_symmetry_Int_Tables_number      14
_space_group_name_Hall           '-P 2ybc'
loop_
_symmetry_equiv_pos_site_id
_symmetry_equiv_pos_as_xyz
1 x,y,z
2 x,1/2-y,1/2+z
3 -x,-y,-z
4 -x,1/2+y,1/2-z
_cell_length_a                   14.107(4)
_cell_length_b                   7.769(2)
_cell_length_c                   18.553(6)
_cell_angle_alpha                90
_cell_angle_beta                 108.839(6)
_cell_angle_gamma                90
_cell_volume                     1924.43
loop_
_atom_site_label
_atom_site_type_symbol
_atom_site_fract_x
_atom_site_fract_y
_atom_site_fract_z
Cu1 Cu 0.22283(2) 0.94177(4) 0.295728(15)
S1 S 0.14760(4) 0.52444(7) 0.33964(3)
O1 O 0.09619(12) 1.0555(2) 0.28739(11)
H1 H 0.1045 1.1597 0.2931
H2 H 0.0448 1.0048 0.2631
O2 O 0.31431(14) 1.1998(2) 0.28694(10)
H3 H 0.3092 1.2186 0.2424
H4 H 0.2882 1.2731 0.3062
O3 O 0.13988(12) 0.6734(2) 0.29089(9)
O4 O 0.07234(12) 0.3954(2) 0.30042(9)
O5 O 0.24709(13) 0.4516(2) 0.36928(10)
O6 O 0.03846(14) 0.7976(2) 0.59801(9)
H5 H 0.0715 0.7554 0.6389
O7 O 0.17875(14) 0.6053(2) 0.68648(9)
O8 O 0.24330(14) 0.3919(3) 0.63699(9)
N1 N 0.35365(14) 0.8152(2) 0.31921(11)
N2 N 0.26584(14) 0.9579(2) 0.41031(11)
C1 C 0.3969(2) 0.7489(4) 0.27232(17)
H6 H 0.3649 0.7594 0.2201
C2 C 0.4887(2) 0.6637(4) 0.2978(2)
H7 H 0.5174 0.6199 0.2631
C3 C 0.5361(2) 0.6452(4) 0.3742(2)
H8 H 0.5970 0.5876 0.3917
C4 C 0.49308(19) 0.7128(3) 0.42614(16)
C5 C 0.5369(2) 0.7060(4) 0.50712(17)
H9 H 0.5977 0.6497 0.5283
C6 C 0.4922(2) 0.7790(4) 0.55321(16)
H10 H 0.5230 0.7728 0.6057
C7 C 0.3983(2) 0.8662(3) 0.52379(14)
C8 C 0.3490(2) 0.9509(4) 0.56764(15)
H11 H 0.3761 0.9500 0.6205
C9 C 0.2607(2) 1.0353(4) 0.53310(16)
H12 H 0.2279 1.0923 0.5623
C10 C 0.2204(2) 1.0353(3) 0.45412(15)
H13 H 0.1597 1.0910 0.4312
C11 C 0.35308(17) 0.8748(3) 0.44430(13)
C12 C 0.40075(17) 0.7986(3) 0.39543(14)
C13 C 0.13805(17) 0.5954(3) 0.55329(12)
C14 C 0.06482(17) 0.7243(3) 0.54177(13)
C15 C 0.01519(17) 0.7824(3) 0.46792(13)
H14 H -0.0356 0.8637 0.4599
C16 C 0.04006(17) 0.7216(3) 0.40723(13)
H15 H 0.0073 0.7633 0.3585
C17 C 0.11446(17) 0.5971(3) 0.41833(12)
C18 C 0.16188(17) 0.5340(3) 0.49077(13)
H16 H 0.2105 0.4492 0.4978
C19 C 0.19136(17) 0.5221(3) 0.63049(13)
O7A O 0.17875(14) 0.8947(2) 0.18648(9)
Cu1A Cu 0.22283(2) 0.55823(4) 0.795728(15)
loop_
_geom_bond_atom_site_label_1
_geom_bond_atom_site_label_2
_geom_bond_site_symmetry_1
_geom_bond_site_symmetry_2
Cu1 O1 1_555 1_555
S1 O3 1_555 1_555
O1 H1 1_555 1_555
H2 O1 1_555 1_555
O2 Cu1 1_555 1_555
H3 O2 1_555 1_555
H4 O2 1_555 1_555
O3 Cu1 1_555 1_555
O4 S1 1_555 1_555
O5 S1 1_555 1_555
O6 H5 1_555 1_555
O7 C19 1_555 1_555
O8 C19 1_555 1_555
N1 Cu1 1_555 1_555
N2 Cu1 1_555 1_555
C1 N1 1_555 1_555
H6 C1 1_555 1_555
C2 C1 1_555 1_555
H7 C2 1_555 1_555
C3 C2 1_555 1_555
H8 C3 1_555 1_555
C4 C3 1_555 1_555
C5 C4 1_555 1_555
H9 C5 1_555 1_555
C6 C5 1_555 1_555
H10 C6 1_555 1_555
C7 C6 1_555 1_555
C8 C7 1_555 1_555
H11 C8 1_555 1_555
C9 C8 1_555 1_555
H12 C9 1_555 1_555
C10 N2 1_555 1_555
H13 C10 1_555 1_555
C11 N2 1_555 1_555
C12 N1 1_555 1_555
C13 C14 1_555 1_555
C14 O6 1_555 1_555
C15 C14 1_555 1_555
H14 C15 1_555 1_555
C16 C15 1_555 1_555
H15 C16 1_555 1_555
C17 S1 1_555 1_555
C18 C13 1_555 1_555
H16 C18 1_555 1_555
C19 C13 1_555 1_555
O7A Cu1 1_555 1_555
Cu1A O7 1_555 1_555
C4 C12 1_555 1_555
C7 C11 1_555 1_555
C9 C10 1_555 1_555
C11 C12 1_555 1_555
C16 C17 1_555 1_555
C17 C18 1_555 1_555

#END
