
#######################################################################
#
#                 Cambridge Crystallographic Data Centre
#                                CCDC 
#
#######################################################################
#
# If this CIF has been generated from an entry in the Cambridge 
# Structural Database, then it will include bibliographic, chemical, 
# crystal, experimental, refinement or atomic coordinate data resulting 
# from the CCDC's data processing and validation procedures.
#
#######################################################################

data_EXOHUU
_symmetry_cell_setting           monoclinic
_symmetry_space_group_name_H-M   'P 21/n'
_symmetry_Int_Tables_number      14
_space_group_name_Hall           '-P 2yn'
loop_
_symmetry_equiv_pos_site_id
_symmetry_equiv_pos_as_xyz
1 x,y,z
2 1/2+x,1/2-y,1/2+z
3 -x,-y,-z
4 1/2-x,1/2+y,1/2-z
_cell_length_a                   6.417(2)
_cell_length_b                   13.976(3)
_cell_length_c                   10.490(3)
_cell_angle_alpha                90
_cell_angle_beta                 100.84(2)
_cell_angle_gamma                90
_cell_volume                     923.998
loop_
_atom_site_label
_atom_site_type_symbol
_atom_site_fract_x
_atom_site_fract_y
_atom_site_fract_z
Cu1 Cu 0.5000 0.0000 0.0000
O1 O 0.7041(3) -0.10474(14) 0.06885(19)
H1 H 0.800(6) -0.137(2) 0.014(3)
H2 H 0.698(6) -0.163(2) 0.127(3)
N1 N 0.3792(3) -0.00406(11) 0.16680(18)
C1 C 0.3896(4) 0.07251(16) 0.2447(2)
H3 H 0.4525 0.1281 0.2212
C2 C 0.3101(4) 0.07213(18) 0.3589(2)
H4 H 0.3208 0.1266 0.4107
C3 C 0.2145(4) -0.01011(17) 0.3955(2)
C4 C 0.2041(4) -0.08842(17) 0.3144(2)
H5 H 0.1403 -0.1446 0.3353
C5 C 0.2883(4) -0.08398(15) 0.2019(2)
H6 H 0.2816 -0.1379 0.1493
C6 C 0.1184(4) -0.0126(2) 0.5161(2)
H7 H 0.1916 0.0327 0.5791
H8 H 0.1360 -0.0759 0.5544
Cl1 Cl 0.84668(8) 0.20029(4) 0.13502(5)
O2 O 0.8171(3) 0.09850(13) 0.1186(2)
O3 O 0.6532(4) 0.24650(17) 0.0758(3)
O4 O 1.0133(4) 0.23040(17) 0.0718(3)
O5 O 0.8959(5) 0.22206(18) 0.2689(2)
C6B C -0.1184(4) 0.0126(2) 0.4839(2)
C3B C -0.2145(4) 0.01011(17) 0.6045(2)
C2B C -0.3101(4) -0.07213(18) 0.6411(2)
C1B C -0.3896(4) -0.07251(16) 0.7553(2)
N1B N -0.3792(3) 0.00406(11) 0.83320(18)
C5B C -0.2883(4) 0.08398(15) 0.7981(2)
C4B C -0.2041(4) 0.08842(17) 0.6856(2)
H5B H -0.1403 0.1446 0.6647
H6B H -0.2816 0.1379 0.8507
H3B H -0.4525 -0.1281 0.7788
H4B H -0.3208 -0.1266 0.5893
H7B H -0.1916 -0.0327 0.4209
H8B H -0.1360 0.0759 0.4456
O1B O 0.2959(3) 0.10474(14) -0.06885(19)
H1B H 0.200(6) 0.137(2) -0.014(3)
H2B H 0.302(6) 0.163(2) -0.127(3)
Cl1B Cl 0.15332(8) -0.20029(4) -0.13502(5)
O2B O 0.1829(3) -0.09850(13) -0.1186(2)
O3B O 0.3468(4) -0.24650(17) -0.0758(3)
O4B O -0.0133(4) -0.23040(17) -0.0718(3)
O5B O 0.1041(5) -0.22206(18) -0.2689(2)
N1B_2 N 0.6208(3) 0.00406(11) -0.16680(18)
Cu1_2 Cu -0.5000 0.0000 1.0000
loop_
_geom_bond_atom_site_label_1
_geom_bond_atom_site_label_2
_geom_bond_site_symmetry_1
_geom_bond_site_symmetry_2
Cu1 O1 1_555 1_555
O1 H1 1_555 1_555
H2 O1 1_555 1_555
N1 Cu1 1_555 1_555
C1 N1 1_555 1_555
H3 C1 1_555 1_555
C2 C1 1_555 1_555
H4 C2 1_555 1_555
C3 C2 1_555 1_555
C4 C3 1_555 1_555
H5 C4 1_555 1_555
C5 N1 1_555 1_555
H6 C5 1_555 1_555
C6 C3 1_555 1_555
H7 C6 1_555 1_555
H8 C6 1_555 1_555
Cl1 O2 1_555 1_555
O2 Cu1 1_555 1_555
O3 Cl1 1_555 1_555
O4 Cl1 1_555 1_555
O5 Cl1 1_555 1_555
C6B C6 1_555 1_555
C3B C6B 1_555 1_555
C2B C3B 1_555 1_555
C1B C2B 1_555 1_555
N1B C1B 1_555 1_555
C5B N1B 1_555 1_555
C4B C3B 1_555 1_555
H5B C4B 1_555 1_555
H6B C5B 1_555 1_555
H3B C1B 1_555 1_555
H4B C2B 1_555 1_555
H7B C6B 1_555 1_555
H8B C6B 1_555 1_555
O1B Cu1 1_555 1_555
H1B O1B 1_555 1_555
H2B O1B 1_555 1_555
Cl1B O2B 1_555 1_555
O2B Cu1 1_555 1_555
O3B Cl1B 1_555 1_555
O4B Cl1B 1_555 1_555
O5B Cl1B 1_555 1_555
N1B_2 Cu1 1_555 1_555
Cu1_2 N1B 1_555 1_555
C4 C5 1_555 1_555
C5B C4B 1_555 1_555

#END
