
#######################################################################
#
#                 Cambridge Crystallographic Data Centre
#                                CCDC 
#
#######################################################################
#
# If this CIF has been generated from an entry in the Cambridge 
# Structural Database, then it will include bibliographic, chemical, 
# crystal, experimental, refinement or atomic coordinate data resulting 
# from the CCDC's data processing and validation procedures.
#
#######################################################################

data_EXOJUW
_symmetry_cell_setting           monoclinic
_symmetry_space_group_name_H-M   'P 21/n'
_symmetry_Int_Tables_number      14
_space_group_name_Hall           '-P 2yn'
loop_
_symmetry_equiv_pos_site_id
_symmetry_equiv_pos_as_xyz
1 x,y,z
2 1/2+x,1/2-y,1/2+z
3 -x,-y,-z
4 1/2-x,1/2+y,1/2-z
_cell_length_a                   7.7017(1)
_cell_length_b                   16.9869(3)
_cell_length_c                   14.9862(2)
_cell_angle_alpha                90
_cell_angle_beta                 104.2021(8)
_cell_angle_gamma                90
_cell_volume                     1900.69
loop_
_atom_site_label
_atom_site_type_symbol
_atom_site_fract_x
_atom_site_fract_y
_atom_site_fract_z
Fe1 Fe 0.64199(3) 0.204083(16) 0.013592(17)
O1 O 0.69633(17) 0.11924(8) 0.09629(9)
C1 C 0.8406(3) 0.07482(11) 0.12361(12)
C2 C 0.8441(3) 0.02016(12) 0.19436(14)
H1 H 0.740(3) 0.0174(11) 0.2200(13)
C3 C 0.9886(3) -0.02939(12) 0.22431(14)
H2 H 0.988(3) -0.0647(13) 0.2711(16)
C4 C 1.1352(3) -0.02624(13) 0.18530(15)
H3 H 1.232(3) -0.0613(13) 0.2042(15)
C5 C 1.1351(3) 0.02733(13) 0.11683(14)
H4 H 1.229(3) 0.0289(14) 0.0916(16)
C6 C 0.9910(3) 0.07965(12) 0.08471(13)
C7 C 1.0052(3) 0.13400(12) 0.01245(13)
H5 H 1.119(3) 0.1322(12) -0.0027(14)
N1 N 0.8853(2) 0.18463(9) -0.02627(10)
C8 C 0.9094(3) 0.23349(11) -0.09965(12)
C9 C 1.0510(3) 0.22728(13) -0.14249(14)
H6 H 1.139(3) 0.1885(13) -0.1221(15)
C10 C 1.0589(3) 0.27654(13) -0.21432(15)
H7 H 1.153(3) 0.2729(13) -0.2421(16)
C11 C 0.9266(3) 0.33160(13) -0.24600(15)
H8 H 0.934(3) 0.3649(13) -0.2961(16)
C12 C 0.7858(3) 0.33907(13) -0.20453(14)
H9 H 0.689(3) 0.3771(13) -0.2282(15)
C13 C 0.7772(2) 0.29108(12) -0.13021(12)
N2 N 0.6418(2) 0.29638(9) -0.08090(10)
C14 C 0.5398(3) 0.35766(12) -0.08709(13)
H10 H 0.550(3) 0.3993(12) -0.1274(13)
C15 C 0.4086(3) 0.37113(11) -0.03501(13)
C16 C 0.3282(3) 0.44646(12) -0.04298(14)
H11 H 0.357(3) 0.4834(13) -0.0849(15)
C17 C 0.2142(3) 0.46806(13) 0.01031(15)
H12 H 0.167(3) 0.5189(13) 0.0049(14)
C18 C 0.1734(3) 0.41391(13) 0.07174(14)
H13 H 0.099(3) 0.4284(13) 0.1092(15)
C19 C 0.2430(3) 0.33873(12) 0.07909(14)
H14 H 0.218(3) 0.2996(11) 0.1251(14)
C20 C 0.3621(2) 0.31541(11) 0.02613(13)
O2 O 0.42456(17) 0.24262(8) 0.03443(9)
N3 N 0.7910(2) 0.28538(10) 0.11404(11)
C21 C 0.8472(3) 0.32959(12) 0.17165(13)
N4 N 0.9115(3) 0.38510(10) 0.23092(11)
C22 C 0.9598(2) 0.36969(11) 0.31892(13)
N5 N 1.0067(2) 0.36307(10) 0.39770(11)
N5A N 0.5067(2) 0.13693(10) -0.10230(11)
Fe1A Fe 1.14199(3) 0.295917(16) 0.513592(17)
loop_
_geom_bond_atom_site_label_1
_geom_bond_atom_site_label_2
_geom_bond_site_symmetry_1
_geom_bond_site_symmetry_2
Fe1 O1 1_555 1_555
O1 C1 1_555 1_555
C1 C2 1_555 1_555
C2 H1 1_555 1_555
C3 C2 1_555 1_555
H2 C3 1_555 1_555
C4 C3 1_555 1_555
H3 C4 1_555 1_555
C5 C4 1_555 1_555
H4 C5 1_555 1_555
C6 C1 1_555 1_555
C7 C6 1_555 1_555
H5 C7 1_555 1_555
N1 Fe1 1_555 1_555
C8 N1 1_555 1_555
C9 C8 1_555 1_555
H6 C9 1_555 1_555
C10 C9 1_555 1_555
H7 C10 1_555 1_555
C11 C10 1_555 1_555
H8 C11 1_555 1_555
C12 C11 1_555 1_555
H9 C12 1_555 1_555
C13 C8 1_555 1_555
N2 Fe1 1_555 1_555
C14 N2 1_555 1_555
H10 C14 1_555 1_555
C15 C14 1_555 1_555
C16 C15 1_555 1_555
H11 C16 1_555 1_555
C17 C16 1_555 1_555
H12 C17 1_555 1_555
C18 C17 1_555 1_555
H13 C18 1_555 1_555
C19 C18 1_555 1_555
H14 C19 1_555 1_555
C20 C15 1_555 1_555
O2 Fe1 1_555 1_555
N3 Fe1 1_555 1_555
C21 N3 1_555 1_555
N4 C21 1_555 1_555
C22 N4 1_555 1_555
N5 C22 1_555 1_555
N5A Fe1 1_555 1_555
Fe1A N5 1_555 1_555
C5 C6 1_555 1_555
C7 N1 1_555 1_555
C12 C13 1_555 1_555
C13 N2 1_555 1_555
C19 C20 1_555 1_555
C20 O2 1_555 1_555

#END
