
#######################################################################
#
#                 Cambridge Crystallographic Data Centre
#                                CCDC 
#
#######################################################################
#
# If this CIF has been generated from an entry in the Cambridge 
# Structural Database, then it will include bibliographic, chemical, 
# crystal, experimental, refinement or atomic coordinate data resulting 
# from the CCDC's data processing and validation procedures.
#
#######################################################################

data_EXOJAC
_symmetry_cell_setting           monoclinic
_symmetry_space_group_name_H-M   'C 2/c'
_symmetry_Int_Tables_number      15
_space_group_name_Hall           '-C 2yn'
loop_
_symmetry_equiv_pos_site_id
_symmetry_equiv_pos_as_xyz
1 x,y,z
2 1/2+x,1/2+y,z
3 x,-y,1/2+z
4 1/2+x,1/2-y,1/2+z
5 -x,-y,-z
6 1/2-x,1/2-y,-z
7 -x,y,1/2-z
8 1/2-x,1/2+y,1/2-z
_cell_length_a                   18.110(6)
_cell_length_b                   19.789(6)
_cell_length_c                   9.205(4)
_cell_angle_alpha                90
_cell_angle_beta                 102.48(2)
_cell_angle_gamma                90
_cell_volume                     3220.93
loop_
_atom_site_label
_atom_site_type_symbol
_atom_site_fract_x
_atom_site_fract_y
_atom_site_fract_z
N5 N 0.3211(16) 0.2255(9) 0.201(2)
N6 N 0.2235(15) 0.2169(13) -0.025(3)
N7 N 0.4330(15) 0.1561(14) 0.278(3)
C14 C 0.2710(14) 0.2189(8) 0.079(3)
C15 C 0.3778(14) 0.1858(9) 0.237(2)
N6E N 0.2765(15) 0.2831(13) 0.025(3)
C14E C 0.2290(14) 0.2811(8) -0.079(3)
N5E N 0.1789(16) 0.2745(9) -0.201(2)
C15E C 0.1222(14) 0.3142(9) -0.237(2)
N7E N 0.0670(15) 0.3439(14) -0.278(3)
Cu1 Cu 0.5000 0.32394(5) 0.7500
N1 N 0.5842(3) 0.3955(2) 0.7816(6)
N2 N 0.9214(3) 0.7490(2) 0.7273(6)
C1 C 0.6463(4) 0.3880(4) 0.7237(8)
H1 H 0.6510 0.3493 0.6692
C2 C 0.7029(5) 0.4362(5) 0.7431(9)
H2 H 0.7464 0.4279 0.7074
C3 C 0.6960(5) 0.4962(4) 0.8145(9)
C4 C 0.6327(5) 0.5039(4) 0.8738(9)
H3 H 0.6256 0.5433 0.9242
C5 C 0.5807(4) 0.4531(3) 0.8576(8)
H4 H 0.5397 0.4587 0.9024
C6 C 0.8725(4) 0.7348(3) 0.6022(8)
H5 H 0.8744 0.7605 0.5185
C7 C 0.8190(4) 0.6845(3) 0.5879(8)
H6 H 0.7855 0.6776 0.4972
C8 C 0.8155(4) 0.6440(4) 0.7102(8)
C9 C 0.8684(5) 0.6571(4) 0.8405(9)
H7 H 0.8695 0.6307 0.9246
C10 C 0.9196(4) 0.7093(3) 0.8450(8)
H8 H 0.9544 0.7174 0.9336
C11 C 0.7547(5) 0.5914(5) 0.6957(10)
H9 H 0.7594 0.5605 0.6164
H10 H 0.7058 0.6133 0.6673
C12 C 0.7571(6) 0.5511(6) 0.8366(11)
H11 H 0.7500 0.5815 0.9152
H12 H 0.8064 0.5302 0.8675
N3 N 0.5000 0.3795(5) 0.2500
C13 C 0.4975(8) 0.3494(5) 0.3740(11)
N4 N 0.4947(4) 0.3354(3) 0.4884(7)
C13F C 0.5025(8) 0.3494(5) 0.1260(11)
N4F N 0.5053(4) 0.3354(3) 0.0116(7)
N1F N 0.4158(3) 0.3955(2) 0.7184(6)
N2F N 0.0786(3) 0.7490(2) 0.7727(6)
C1F C 0.3537(4) 0.3880(4) 0.7763(8)
H1F H 0.3490 0.3493 0.8308
C2F C 0.2971(5) 0.4362(5) 0.7569(9)
H2F H 0.2536 0.4279 0.7926
C3F C 0.3040(5) 0.4962(4) 0.6855(9)
C4F C 0.3673(5) 0.5039(4) 0.6262(9)
H3F H 0.3744 0.5433 0.5758
C5F C 0.4193(4) 0.4531(3) 0.6424(8)
H4F H 0.4603 0.4587 0.5976
C6F C 0.1275(4) 0.7348(3) 0.8978(8)
H5F H 0.1256 0.7605 0.9815
C7F C 0.1810(4) 0.6845(3) 0.9121(8)
H6F H 0.2145 0.6776 1.0028
C8F C 0.1845(4) 0.6440(4) 0.7898(8)
C9F C 0.1316(5) 0.6571(4) 0.6595(9)
H7F H 0.1305 0.6307 0.5754
C10F C 0.0804(4) 0.7093(3) 0.6550(8)
H8F H 0.0456 0.7174 0.5664
C11F C 0.2453(5) 0.5914(5) 0.8043(10)
H9F H 0.2406 0.5605 0.8836
H10F H 0.2942 0.6133 0.8327
C12F C 0.2429(6) 0.5511(6) 0.6634(11)
H11F H 0.2500 0.5815 0.5848
H12F H 0.1936 0.5302 0.6325
N2A N 0.4214(3) 0.2490(2) 0.7273(6)
N2G N 0.5786(3) 0.2490(2) 0.7727(6)
N4F_2 N 0.5053(4) 0.3354(3) 1.0116(7)
Cu1A Cu 1.0000 0.82394(5) 0.7500
Cu1_2 Cu 0.5000 0.32394(5) -0.2500
Cu1A_2 Cu 0.0000 0.82394(5) 0.7500
loop_
_geom_bond_atom_site_label_1
_geom_bond_atom_site_label_2
_geom_bond_site_symmetry_1
_geom_bond_site_symmetry_2
Cu1 N1 1_555 1_555
N1 C1 1_555 1_555
N2 C6 1_555 1_555
C1 H1 1_555 1_555
C2 C1 1_555 1_555
H2 C2 1_555 1_555
C3 C2 1_555 1_555
C4 C3 1_555 1_555
H3 C4 1_555 1_555
C5 N1 1_555 1_555
H4 C5 1_555 1_555
C6 H5 1_555 1_555
C7 C6 1_555 1_555
H6 C7 1_555 1_555
C8 C7 1_555 1_555
C9 C8 1_555 1_555
H7 C9 1_555 1_555
C10 N2 1_555 1_555
H8 C10 1_555 1_555
C11 C8 1_555 1_555
H9 C11 1_555 1_555
H10 C11 1_555 1_555
C12 C3 1_555 1_555
H11 C12 1_555 1_555
H12 C12 1_555 1_555
N3 C13 1_555 1_555
C13 N4 1_555 1_555
N4 Cu1 1_555 1_555
N5 C14 1_555 1_555
N6 C14 1_555 1_555
N7 C15 1_555 1_555
C14 N6E 1_555 1_555
C15 N5 1_555 1_555
C13F N3 1_555 1_555
N4F C13F 1_555 1_555
N6E N6 1_555 1_555
C14E N6 1_555 1_555
N5E C14E 1_555 1_555
C15E N5E 1_555 1_555
N7E C15E 1_555 1_555
N1F Cu1 1_555 1_555
N2F C6F 1_555 1_555
C1F N1F 1_555 1_555
H1F C1F 1_555 1_555
C2F C1F 1_555 1_555
H2F C2F 1_555 1_555
C3F C2F 1_555 1_555
C4F C3F 1_555 1_555
H3F C4F 1_555 1_555
C5F N1F 1_555 1_555
H4F C5F 1_555 1_555
C6F H5F 1_555 1_555
C7F C6F 1_555 1_555
H6F C7F 1_555 1_555
C8F C7F 1_555 1_555
C9F C8F 1_555 1_555
H7F C9F 1_555 1_555
C10F N2F 1_555 1_555
H8F C10F 1_555 1_555
C11F C8F 1_555 1_555
H9F C11F 1_555 1_555
H10F C11F 1_555 1_555
C12F C3F 1_555 1_555
H11F C12F 1_555 1_555
H12F C12F 1_555 1_555
N2A Cu1 1_555 1_555
N2G Cu1 1_555 1_555
N4F_2 Cu1 1_555 1_555
Cu1A N2 1_555 1_555
Cu1_2 N4F 1_555 1_555
Cu1A_2 N2F 1_555 1_555
C4 C5 1_555 1_555
C9 C10 1_555 1_555
C11 C12 1_555 1_555
N6E C14E 1_555 1_555
C4F C5F 1_555 1_555
C9F C10F 1_555 1_555
C11F C12F 1_555 1_555

#END
