
#######################################################################
#
#                 Cambridge Crystallographic Data Centre
#                                CCDC 
#
#######################################################################
#
# If this CIF has been generated from an entry in the Cambridge 
# Structural Database, then it will include bibliographic, chemical, 
# crystal, experimental, refinement or atomic coordinate data resulting 
# from the CCDC's data processing and validation procedures.
#
#######################################################################

data_EXOJOQ
_symmetry_cell_setting           monoclinic
_symmetry_space_group_name_H-M   'P 21/n'
_symmetry_Int_Tables_number      14
_space_group_name_Hall           '-P 2yn'
loop_
_symmetry_equiv_pos_site_id
_symmetry_equiv_pos_as_xyz
1 x,y,z
2 1/2+x,1/2-y,1/2+z
3 -x,-y,-z
4 1/2-x,1/2+y,1/2-z
_cell_length_a                   7.5424(1)
_cell_length_b                   16.7964(2)
_cell_length_c                   15.3008(2)
_cell_angle_alpha                90
_cell_angle_beta                 103.8472(6)
_cell_angle_gamma                90
_cell_volume                     1882.05
loop_
_atom_site_label
_atom_site_type_symbol
_atom_site_fract_x
_atom_site_fract_y
_atom_site_fract_z
Mn1 Mn 0.65867(3) 0.210820(15) 0.004329(16)
O1 O 0.69502(16) 0.13034(7) 0.09145(8)
C1 C 0.8369(2) 0.08331(10) 0.11904(11)
C2 C 0.8331(3) 0.02989(11) 0.18956(12)
H1 H 0.734(3) 0.0298(12) 0.2127(14)
C3 C 0.9751(3) -0.02248(11) 0.22074(12)
H2 H 0.968(3) -0.0582(13) 0.2674(14)
C4 C 1.1273(3) -0.02408(11) 0.18378(12)
H3 H 1.221(3) -0.0596(14) 0.2106(15)
C5 C 1.1349(3) 0.02771(11) 0.11510(12)
H4 H 1.235(3) 0.0269(13) 0.0904(14)
C6 C 0.9925(2) 0.08273(10) 0.08163(11)
C7 C 1.0117(2) 0.13359(11) 0.00898(11)
H5 H 1.126(3) 0.1270(13) -0.0124(14)
N1 N 0.89300(19) 0.18611(9) -0.03041(9)
C8 C 0.9183(2) 0.23173(10) -0.10546(11)
C9 C 1.0629(3) 0.22278(11) -0.14683(13)
H6 H 1.160(3) 0.1853(13) -0.1234(15)
C10 C 1.0687(3) 0.26909(12) -0.22112(13)
H7 H 1.168(3) 0.2653(13) -0.2530(15)
C11 C 0.9301(3) 0.32341(12) -0.25540(12)
H8 H 0.933(3) 0.3519(14) -0.3086(15)
C12 C 0.7863(3) 0.33320(11) -0.21444(12)
H9 H 0.688(3) 0.3715(13) -0.2388(15)
C13 C 0.7821(2) 0.28822(10) -0.13832(11)
N2 N 0.6469(2) 0.29599(8) -0.08770(9)
C14 C 0.5383(2) 0.35725(11) -0.09655(11)
H10 H 0.550(3) 0.3990(12) -0.1370(13)
C15 C 0.4113(2) 0.37263(10) -0.04232(11)
C16 C 0.3283(3) 0.44857(11) -0.05113(13)
H11 H 0.354(3) 0.4860(14) -0.0950(16)
C17 C 0.2198(2) 0.47213(11) 0.00497(13)
H12 H 0.166(3) 0.5256(13) 0.0012(12)
C18 C 0.1882(2) 0.41838(12) 0.06958(12)
H13 H 0.117(3) 0.4341(13) 0.1091(15)
C19 C 0.2606(2) 0.34250(11) 0.07712(12)
H14 H 0.237(3) 0.3033(12) 0.1213(14)
C20 C 0.3738(2) 0.31758(11) 0.02161(11)
O2 O 0.43814(16) 0.24390(7) 0.02988(8)
N3 N 0.8130(2) 0.30031(10) 0.10617(11)
C21 C 0.8600(2) 0.34336(11) 0.16606(11)
N4 N 0.9126(2) 0.39799(10) 0.22759(10)
C22 C 0.9611(2) 0.37825(10) 0.31237(11)
N5 N 1.0082(2) 0.36820(9) 0.38939(10)
N5A N 0.5082(2) 0.13180(9) -0.11061(10)
Mn1A Mn 1.15867(3) 0.289180(15) 0.504329(16)
loop_
_geom_bond_atom_site_label_1
_geom_bond_atom_site_label_2
_geom_bond_site_symmetry_1
_geom_bond_site_symmetry_2
Mn1 O1 1_555 1_555
O1 C1 1_555 1_555
C1 C2 1_555 1_555
C2 H1 1_555 1_555
C3 C2 1_555 1_555
H2 C3 1_555 1_555
C4 C3 1_555 1_555
H3 C4 1_555 1_555
C5 C4 1_555 1_555
H4 C5 1_555 1_555
C6 C1 1_555 1_555
C7 C6 1_555 1_555
H5 C7 1_555 1_555
N1 Mn1 1_555 1_555
C8 N1 1_555 1_555
C9 C8 1_555 1_555
H6 C9 1_555 1_555
C10 C9 1_555 1_555
H7 C10 1_555 1_555
C11 C10 1_555 1_555
H8 C11 1_555 1_555
C12 C11 1_555 1_555
H9 C12 1_555 1_555
C13 C8 1_555 1_555
N2 Mn1 1_555 1_555
C14 N2 1_555 1_555
H10 C14 1_555 1_555
C15 C14 1_555 1_555
C16 C15 1_555 1_555
H11 C16 1_555 1_555
C17 C16 1_555 1_555
H12 C17 1_555 1_555
C18 C17 1_555 1_555
H13 C18 1_555 1_555
C19 C18 1_555 1_555
H14 C19 1_555 1_555
C20 C15 1_555 1_555
O2 Mn1 1_555 1_555
N3 Mn1 1_555 1_555
C21 N3 1_555 1_555
N4 C21 1_555 1_555
C22 N4 1_555 1_555
N5 C22 1_555 1_555
N5A Mn1 1_555 1_555
Mn1A N5 1_555 1_555
C5 C6 1_555 1_555
C7 N1 1_555 1_555
C12 C13 1_555 1_555
C13 N2 1_555 1_555
C19 C20 1_555 1_555
C20 O2 1_555 1_555

#END
