
#######################################################################
#
#                 Cambridge Crystallographic Data Centre
#                                CCDC 
#
#######################################################################
#
# If this CIF has been generated from an entry in the Cambridge 
# Structural Database, then it will include bibliographic, chemical, 
# crystal, experimental, refinement or atomic coordinate data resulting 
# from the CCDC's data processing and validation procedures.
#
#######################################################################

data_EXOKOR
_symmetry_cell_setting           monoclinic
_symmetry_space_group_name_H-M   'C 2'
_symmetry_Int_Tables_number      5
_space_group_name_Hall           'C 2y'
loop_
_symmetry_equiv_pos_site_id
_symmetry_equiv_pos_as_xyz
1 x,y,z
2 -x,y,-z
3 1/2+x,1/2+y,z
4 1/2-x,1/2+y,-z
_cell_length_a                   17.415(4)
_cell_length_b                   12.936(3)
_cell_length_c                   6.5839(13)
_cell_angle_alpha                90
_cell_angle_beta                 111.90(3)
_cell_angle_gamma                90
_cell_volume                     1376.19
loop_
_atom_site_label
_atom_site_type_symbol
_atom_site_fract_x
_atom_site_fract_y
_atom_site_fract_z
Zn1 Zn -0.5000 -0.17033(6) -0.5000
Zn2 Zn -0.24146(3) 0.54168(3) -0.26727(9)
O1 O -0.4344(2) -0.0262(3) -0.3905(6)
O2 O -0.2840(2) 0.3044(3) -0.1586(7)
O3 O -0.3424(2) 0.4497(3) -0.3297(6)
O4 O -0.2145(2) 0.7898(3) -0.3475(6)
O5 O -0.1473(2) 0.6459(3) -0.1946(6)
O6 O 0.0686(3) 1.1283(3) 0.0718(7)
O7 O -0.4167(3) -0.2650(5) -0.2944(8)
H1 H -0.3726 -0.2389 -0.1852
H2 H -0.4233 -0.3339 -0.3107
O8 O -0.5569(3) -0.1748(3) -0.2623(7)
H3 H -0.5693 -0.1156 -0.2099
H4 H -0.5682 -0.2360 -0.2146
O9 O -0.3232(2) 0.6476(3) -0.4862(6)
H5 H -0.3499 0.6948 -0.4363
H6 H -0.3314 0.6456 -0.6295
O10 O -0.2660(2) 0.6085(3) 0.0033(7)
H7 H -0.2583 0.6590 0.0409
H8 H -0.2956 0.5885 0.0446
O11 O -0.1588(2) 0.4314(3) -0.0680(7)
H9 H -0.1483 0.4295 0.0766
H10 H -0.1340 0.3860 -0.1273
O12 O -0.2205(2) 0.4786(3) -0.5441(7)
H11 H -0.2363 0.4242 -0.5895
H12 H -0.1668 0.4849 -0.5477
C1 C -0.5000 0.0231(5) -0.5000
C2 C -0.5000 0.1386(5) -0.5000
C3 C -0.4268(3) 0.1914(4) -0.3923(8)
H13 H -0.3783 0.1550 -0.3188
C4 C -0.4259(3) 0.2997(4) -0.3946(8)
C5 C -0.5000 0.3524(5) -0.5000
H14 H -0.5000 0.4242 -0.5000
C6 C -0.3450(3) 0.3551(4) -0.2846(7)
C7 C -0.1513(3) 0.7433(4) -0.2247(7)
C8 C -0.0736(3) 0.8025(4) -0.1080(7)
C9 C -0.0728(3) 0.9111(4) -0.1062(8)
H15 H -0.1216 0.9474 -0.1765
C10 C 0.0000 0.9646(5) 0.0000
C11 C 0.0000 1.0820(6) 0.0000
C12 C 0.0000 0.7502(5) 0.0000
H16 H 0.0000 0.6783 0.0000
O1A O -0.5656(2) -0.0262(3) -0.6095(6)
C4A C -0.5741(3) 0.2997(4) -0.6054(8)
C3A C -0.5732(3) 0.1914(4) -0.6077(8)
H13A H -0.6217 0.1550 -0.6812
C6A C -0.6550(3) 0.3551(4) -0.7154(7)
O2A O -0.7160(2) 0.3044(3) -0.8414(7)
O3A O -0.6576(2) 0.4497(3) -0.6703(6)
C9A C 0.0728(3) 0.9111(4) 0.1062(8)
C8A C 0.0736(3) 0.8025(4) 0.1080(7)
C7A C 0.1513(3) 0.7433(4) 0.2247(7)
O4A O 0.2145(2) 0.7898(3) 0.3475(6)
O5A O 0.1473(2) 0.6459(3) 0.1946(6)
H15A H 0.1216 0.9474 0.1765
O6A O -0.0686(3) 1.1283(3) -0.0718(7)
O7A O -0.5833(3) -0.2650(5) -0.7056(8)
H1A H -0.6274 -0.2389 -0.8148
H2A H -0.5767 -0.3339 -0.6893
O8A O -0.4431(3) -0.1748(3) -0.7377(7)
H3A H -0.4307 -0.1156 -0.7901
H4A H -0.4318 -0.2360 -0.7854
Zn2A Zn -0.75854(3) 0.54168(3) -0.73273(9)
O9A O -0.6768(2) 0.6476(3) -0.5138(6)
H5A H -0.6501 0.6948 -0.5637
H6A H -0.6686 0.6456 -0.3705
O10A O -0.7340(2) 0.6085(3) -1.0033(7)
H7A H -0.7417 0.6590 -1.0409
H8A H -0.7044 0.5885 -1.0446
O11A O -0.8412(2) 0.4314(3) -0.9320(7)
H9A H -0.8517 0.4295 -1.0766
H10A H -0.8660 0.3860 -0.8727
O12A O -0.7795(2) 0.4786(3) -0.4559(7)
H11A H -0.7637 0.4242 -0.4105
H12A H -0.8332 0.4849 -0.4523
Zn2A_2 Zn 0.24146(3) 0.54168(3) 0.26727(9)
O5A_2 O -0.8527(2) 0.6459(3) -0.8054(6)
loop_
_geom_bond_atom_site_label_1
_geom_bond_atom_site_label_2
_geom_bond_site_symmetry_1
_geom_bond_site_symmetry_2
Zn1 O1 1_555 1_555
Zn2 O3 1_555 1_555
O1 C1 1_555 1_555
O2 C6 1_555 1_555
O3 C6 1_555 1_555
O4 C7 1_555 1_555
O5 Zn2 1_555 1_555
O6 C11 1_555 1_555
O7 Zn1 1_555 1_555
H1 O7 1_555 1_555
H2 O7 1_555 1_555
O8 Zn1 1_555 1_555
H3 O8 1_555 1_555
H4 O8 1_555 1_555
O9 Zn2 1_555 1_555
H5 O9 1_555 1_555
H6 O9 1_555 1_555
O10 Zn2 1_555 1_555
H7 O10 1_555 1_555
H8 O10 1_555 1_555
O11 Zn2 1_555 1_555
H9 O11 1_555 1_555
H10 O11 1_555 1_555
O12 Zn2 1_555 1_555
H11 O12 1_555 1_555
H12 O12 1_555 1_555
C1 C2 1_555 1_555
C2 C3 1_555 1_555
C3 H13 1_555 1_555
C4 C3 1_555 1_555
C5 C4 1_555 1_555
H14 C5 1_555 1_555
C6 C4 1_555 1_555
C7 O5 1_555 1_555
C8 C7 1_555 1_555
C9 C8 1_555 1_555
H15 C9 1_555 1_555
C10 C9 1_555 1_555
C11 C10 1_555 1_555
C12 C8 1_555 1_555
H16 C12 1_555 1_555
O1A Zn1 1_555 1_555
C4A C5 1_555 1_555
C3A C2 1_555 1_555
H13A C3A 1_555 1_555
C6A C4A 1_555 1_555
O2A C6A 1_555 1_555
O3A C6A 1_555 1_555
C9A C10 1_555 1_555
C8A C12 1_555 1_555
C7A C8A 1_555 1_555
O4A C7A 1_555 1_555
O5A C7A 1_555 1_555
H15A C9A 1_555 1_555
O6A C11 1_555 1_555
O7A Zn1 1_555 1_555
H1A O7A 1_555 1_555
H2A O7A 1_555 1_555
O8A Zn1 1_555 1_555
H3A O8A 1_555 1_555
H4A O8A 1_555 1_555
Zn2A O3A 1_555 1_555
O9A Zn2A 1_555 1_555
H5A O9A 1_555 1_555
H6A O9A 1_555 1_555
O10A Zn2A 1_555 1_555
H7A O10A 1_555 1_555
H8A O10A 1_555 1_555
O11A Zn2A 1_555 1_555
H9A O11A 1_555 1_555
H10A O11A 1_555 1_555
O12A Zn2A 1_555 1_555
H11A O12A 1_555 1_555
H12A O12A 1_555 1_555
Zn2A_2 O5A 1_555 1_555
O5A_2 Zn2A 1_555 1_555
C1 O1A 1_555 1_555
C4A C3A 1_555 1_555
C9A C8A 1_555 1_555

#END
