
#######################################################################
#
#                 Cambridge Crystallographic Data Centre
#                                CCDC 
#
#######################################################################
#
# If this CIF has been generated from an entry in the Cambridge 
# Structural Database, then it will include bibliographic, chemical, 
# crystal, experimental, refinement or atomic coordinate data resulting 
# from the CCDC's data processing and validation procedures.
#
#######################################################################

data_EXOKIL
_symmetry_cell_setting           orthorhombic
_symmetry_space_group_name_H-M   'P c a n'
_symmetry_Int_Tables_number      60
_space_group_name_Hall           '-P 2n 2c'
loop_
_symmetry_equiv_pos_site_id
_symmetry_equiv_pos_as_xyz
1 x,y,z
2 1/2+x,1/2+y,1/2-z
3 -x,y,1/2+z
4 1/2+x,1/2-y,z
5 -x,-y,-z
6 1/2-x,1/2-y,1/2+z
7 x,-y,1/2-z
8 1/2-x,1/2+y,-z
_cell_length_a                   11.8455(16)
_cell_length_b                   14.4654(16)
_cell_length_c                   32.540(3)
_cell_angle_alpha                90
_cell_angle_beta                 90
_cell_angle_gamma                90
_cell_volume                     5575.73
loop_
_atom_site_label
_atom_site_type_symbol
_atom_site_fract_x
_atom_site_fract_y
_atom_site_fract_z
Zn1 Zn 0.74560(13) 1.01955(9) 0.93257(4)
Zn2 Zn 0.93366(16) 1.0000 1.2500
O1 O 0.9674(6) 1.0128(7) 1.1610(2)
O2 O 0.8788(6) 0.9970(7) 1.0096(2)
O3 O 0.7019(5) 1.0184(6) 0.9910(2)
O4 O 0.4042(6) 0.9583(5) 1.0901(2)
O5 O 0.8272(6) 1.0032(7) 1.2056(2)
O6 O 0.4271(6) 0.9994(9) 1.1556(2)
N1 N 0.8569(8) 1.1209(7) 0.9257(3)
N2 N 0.9458(8) 1.1281(6) 0.9516(3)
H1 H 0.9633 1.0859 0.9691
N3 N 0.8020(9) 0.8929(7) 0.9136(3)
N4 N 0.8906(9) 0.8794(8) 0.8890(3)
H2 H 0.9299 0.9230 0.8781
N5 N 1.0336(7) 1.1143(8) 1.2518(4)
N6 N 1.1267(9) 1.1173(8) 1.2280(3)
H3 H 1.1514 1.0727 1.2130
C1 C 0.5871(9) 0.9948(9) 1.1118(3)
C2 C 0.6254(8) 0.9934(7) 1.0700(3)
H4 H 0.5744 0.9872 1.0485
C3 C 0.7373(10) 1.0013(7) 1.0625(3)
C4 C 0.8125(8) 1.0041(8) 1.0939(3)
H5 H 0.8891 1.0058 1.0876
C5 C 0.7802(8) 1.0047(9) 1.1354(3)
C6 C 0.6634(8) 0.9982(9) 1.1436(3)
H6 H 0.6380 0.9961 1.1706
C7 C 0.4586(9) 0.9877(9) 1.1217(4)
C8 C 0.7775(9) 1.0050(8) 1.0178(3)
C9 C 0.8629(11) 1.0067(10) 1.1701(4)
C10 C 0.8597(12) 1.1985(10) 0.9033(4)
C11 C 0.9488(11) 1.2521(9) 0.9166(4)
H7 H 0.9688 1.3099 0.9064
C12 C 1.0027(11) 1.2050(9) 0.9476(4)
C13 C 0.7729(12) 1.2193(9) 0.8710(4)
H8 H 0.8086 1.2214 0.8445
H9 H 0.7163 1.1718 0.8711
H10 H 0.7383 1.2779 0.8767
C14 C 1.1012(10) 1.2317(9) 0.9730(4)
H11 H 1.0892 1.2122 1.0009
H12 H 1.1679 1.2027 0.9624
H13 H 1.1103 1.2976 0.9723
C15 C 0.7602(12) 0.8134(9) 0.9254(3)
C16 C 0.8270(12) 0.7464(10) 0.9069(4)
H14 H 0.8174 0.6829 0.9097
C17 C 0.9106(12) 0.7889(10) 0.8834(4)
C18 C 0.6634(11) 0.8003(9) 0.9543(4)
H15 H 0.6862 0.8176 0.9816
H16 H 0.6013 0.8383 0.9458
H17 H 0.6407 0.7366 0.9542
C19 C 1.0006(12) 0.7526(10) 0.8565(3)
H18 H 0.9914 0.7771 0.8293
H19 H 1.0728 0.7708 0.8672
H20 H 0.9962 0.6864 0.8556
C20 C 1.0275(14) 1.1934(11) 1.2707(4)
C21 C 1.1161(13) 1.2507(12) 1.2593(4)
H21 H 1.1323 1.3102 1.2684
C22 C 1.1734(13) 1.1984(13) 1.2314(5)
C23 C 0.9370(12) 1.2167(9) 1.3015(4)
H22 H 0.9583 1.1937 1.3280
H23 H 0.8671 1.1887 1.2932
H24 H 0.9278 1.2826 1.3028
C24 C 1.2799(11) 1.2211(11) 1.2061(4)
H25 H 1.3339 1.1722 1.2092
H26 H 1.3121 1.2780 1.2158
H27 H 1.2600 1.2273 1.1777
O1F O 0.9674(6) 0.9872(7) 1.3390(2)
O2F O 0.8788(6) 1.0030(7) 1.4904(2)
O3F O 0.7019(5) 0.9816(6) 1.5090(2)
O4F O 0.4042(6) 1.0417(5) 1.4099(2)
O5F O 0.8272(6) 0.9968(7) 1.2944(2)
O6F O 0.4271(6) 1.0006(9) 1.3444(2)
C1F C 0.5871(9) 1.0052(9) 1.3882(3)
C2F C 0.6254(8) 1.0066(7) 1.4300(3)
H4F H 0.5744 1.0128 1.4515
C3F C 0.7373(10) 0.9987(7) 1.4375(3)
C4F C 0.8125(8) 0.9959(8) 1.4061(3)
H5F H 0.8891 0.9942 1.4124
C5F C 0.7802(8) 0.9953(9) 1.3646(3)
C6F C 0.6634(8) 1.0018(9) 1.3564(3)
H6F H 0.6380 1.0039 1.3294
C7F C 0.4586(9) 1.0123(9) 1.3783(4)
C8F C 0.7775(9) 0.9950(8) 1.4822(3)
C9F C 0.8629(11) 0.9933(10) 1.3299(4)
N5F N 1.0336(7) 0.8857(8) 1.2482(4)
N6F N 1.1267(9) 0.8827(8) 1.2720(3)
H3F H 1.1514 0.9273 1.2870
C20F C 1.0275(14) 0.8066(11) 1.2293(4)
C21F C 1.1161(13) 0.7493(12) 1.2407(4)
H21F H 1.1323 0.6898 1.2316
C22F C 1.1734(13) 0.8016(13) 1.2686(5)
C23F C 0.9370(12) 0.7833(9) 1.1985(4)
H22F H 0.9583 0.8063 1.1720
H23F H 0.8671 0.8113 1.2068
H24F H 0.9278 0.7174 1.1972
C24F C 1.2799(11) 0.7789(11) 1.2939(4)
H25F H 1.3339 0.8278 1.2908
H26F H 1.3121 0.7220 1.2842
H27F H 1.2600 0.7727 1.3223
Zn1F Zn 0.74560(13) 0.98045(9) 1.56743(4)
N1F N 0.8569(8) 0.8791(7) 1.5743(3)
N2F N 0.9458(8) 0.8719(6) 1.5484(3)
H1F H 0.9633 0.9141 1.5309
C10F C 0.8597(12) 0.8015(10) 1.5967(4)
C11F C 0.9488(11) 0.7479(9) 1.5834(4)
H7F H 0.9688 0.6901 1.5936
C12F C 1.0027(11) 0.7950(9) 1.5524(4)
C13F C 0.7729(12) 0.7807(9) 1.6290(4)
H8F H 0.8086 0.7786 1.6555
H9F H 0.7163 0.8282 1.6289
H10F H 0.7383 0.7221 1.6233
C14F C 1.1012(10) 0.7683(9) 1.5270(4)
H11F H 1.0892 0.7878 1.4991
H12F H 1.1679 0.7973 1.5376
H13F H 1.1103 0.7024 1.5277
N3F N 0.8020(9) 1.1071(7) 1.5864(3)
N4F N 0.8906(9) 1.1206(8) 1.6110(3)
H2F H 0.9299 1.0770 1.6219
C15F C 0.7602(12) 1.1866(9) 1.5746(3)
C16F C 0.8270(12) 1.2536(10) 1.5931(4)
H14F H 0.8174 1.3171 1.5903
C17F C 0.9106(12) 1.2111(10) 1.6166(4)
C18F C 0.6634(11) 1.1997(9) 1.5457(4)
H15F H 0.6862 1.1824 1.5184
H16F H 0.6013 1.1617 1.5542
H17F H 0.6407 1.2634 1.5458
C19F C 1.0006(12) 1.2474(10) 1.6435(3)
H18F H 0.9914 1.2229 1.6707
H19F H 1.0728 1.2292 1.6328
H20F H 0.9962 1.3136 1.6444
O4D O 0.5958(6) 1.0417(5) 0.9099(2)
Zn1D Zn 0.25440(13) 0.98045(9) 1.06743(4)
Zn1B Zn 0.25440(13) 1.01955(9) 1.43257(4)
O4B O 0.5958(6) 0.9583(5) 1.5901(2)
O7 O 0.2193(8) 0.9779(7) 1.1826(3)
O8 O 0.459(3) 1.0000 1.2500
loop_
_geom_bond_atom_site_label_1
_geom_bond_atom_site_label_2
_geom_bond_site_symmetry_1
_geom_bond_site_symmetry_2
Zn1 O3 1_555 1_555
Zn2 O5 1_555 1_555
O1 C9 1_555 1_555
O2 C8 1_555 1_555
O3 C8 1_555 1_555
O4 C7 1_555 1_555
O5 C9 1_555 1_555
O6 C7 1_555 1_555
N1 Zn1 1_555 1_555
N2 N1 1_555 1_555
H1 N2 1_555 1_555
N3 Zn1 1_555 1_555
N4 N3 1_555 1_555
H2 N4 1_555 1_555
N5 Zn2 1_555 1_555
N6 N5 1_555 1_555
H3 N6 1_555 1_555
C1 C2 1_555 1_555
C2 H4 1_555 1_555
C3 C2 1_555 1_555
C4 C3 1_555 1_555
H5 C4 1_555 1_555
C5 C4 1_555 1_555
C6 C1 1_555 1_555
H6 C6 1_555 1_555
C7 C1 1_555 1_555
C8 C3 1_555 1_555
C9 C5 1_555 1_555
C10 N1 1_555 1_555
C11 C10 1_555 1_555
H7 C11 1_555 1_555
C12 N2 1_555 1_555
C13 C10 1_555 1_555
H8 C13 1_555 1_555
H9 C13 1_555 1_555
H10 C13 1_555 1_555
C14 C12 1_555 1_555
H11 C14 1_555 1_555
H12 C14 1_555 1_555
H13 C14 1_555 1_555
C15 N3 1_555 1_555
C16 C15 1_555 1_555
H14 C16 1_555 1_555
C17 N4 1_555 1_555
C18 C15 1_555 1_555
H15 C18 1_555 1_555
H16 C18 1_555 1_555
H17 C18 1_555 1_555
C19 C17 1_555 1_555
H18 C19 1_555 1_555
H19 C19 1_555 1_555
H20 C19 1_555 1_555
C20 N5 1_555 1_555
C21 C20 1_555 1_555
H21 C21 1_555 1_555
C22 N6 1_555 1_555
C23 C20 1_555 1_555
H22 C23 1_555 1_555
H23 C23 1_555 1_555
H24 C23 1_555 1_555
C24 C22 1_555 1_555
H25 C24 1_555 1_555
H26 C24 1_555 1_555
H27 C24 1_555 1_555
O1F C9F 1_555 1_555
O2F C8F 1_555 1_555
O3F C8F 1_555 1_555
O4F C7F 1_555 1_555
O5F Zn2 1_555 1_555
O6F C7F 1_555 1_555
C1F C2F 1_555 1_555
C2F H4F 1_555 1_555
C3F C2F 1_555 1_555
C4F C3F 1_555 1_555
H5F C4F 1_555 1_555
C5F C4F 1_555 1_555
C6F C1F 1_555 1_555
H6F C6F 1_555 1_555
C7F C1F 1_555 1_555
C8F C3F 1_555 1_555
C9F O5F 1_555 1_555
N5F Zn2 1_555 1_555
N6F N5F 1_555 1_555
H3F N6F 1_555 1_555
C20F N5F 1_555 1_555
C21F C20F 1_555 1_555
H21F C21F 1_555 1_555
C22F N6F 1_555 1_555
C23F C20F 1_555 1_555
H22F C23F 1_555 1_555
H23F C23F 1_555 1_555
H24F C23F 1_555 1_555
C24F C22F 1_555 1_555
H25F C24F 1_555 1_555
H26F C24F 1_555 1_555
H27F C24F 1_555 1_555
Zn1F O3F 1_555 1_555
N1F Zn1F 1_555 1_555
N2F N1F 1_555 1_555
H1F N2F 1_555 1_555
C10F N1F 1_555 1_555
C11F C10F 1_555 1_555
H7F C11F 1_555 1_555
C12F N2F 1_555 1_555
C13F C10F 1_555 1_555
H8F C13F 1_555 1_555
H9F C13F 1_555 1_555
H10F C13F 1_555 1_555
C14F C12F 1_555 1_555
H11F C14F 1_555 1_555
H12F C14F 1_555 1_555
H13F C14F 1_555 1_555
N3F Zn1F 1_555 1_555
N4F N3F 1_555 1_555
H2F N4F 1_555 1_555
C15F N3F 1_555 1_555
C16F C15F 1_555 1_555
H14F C16F 1_555 1_555
C17F N4F 1_555 1_555
C18F C15F 1_555 1_555
H15F C18F 1_555 1_555
H16F C18F 1_555 1_555
H17F C18F 1_555 1_555
C19F C17F 1_555 1_555
H18F C19F 1_555 1_555
H19F C19F 1_555 1_555
H20F C19F 1_555 1_555
O4D Zn1 1_555 1_555
Zn1D O4 1_555 1_555
Zn1B O4F 1_555 1_555
O4B Zn1F 1_555 1_555
C5 C6 1_555 1_555
C11 C12 1_555 1_555
C16 C17 1_555 1_555
C21 C22 1_555 1_555
C5F C9F 1_555 1_555
C5F C6F 1_555 1_555
C21F C22F 1_555 1_555
C11F C12F 1_555 1_555
C16F C17F 1_555 1_555

#END
