
#######################################################################
#
#                 Cambridge Crystallographic Data Centre
#                                CCDC 
#
#######################################################################
#
# If this CIF has been generated from an entry in the Cambridge 
# Structural Database, then it will include bibliographic, chemical, 
# crystal, experimental, refinement or atomic coordinate data resulting 
# from the CCDC's data processing and validation procedures.
#
#######################################################################

data_EXOKAD
_symmetry_cell_setting           monoclinic
_symmetry_space_group_name_H-M   'P 21/n'
_symmetry_Int_Tables_number      14
_space_group_name_Hall           '-P 2yn'
loop_
_symmetry_equiv_pos_site_id
_symmetry_equiv_pos_as_xyz
1 x,y,z
2 1/2+x,1/2-y,1/2+z
3 -x,-y,-z
4 1/2-x,1/2+y,1/2-z
_cell_length_a                   8.6890(1)
_cell_length_b                   15.7419(3)
_cell_length_c                   14.2566(2)
_cell_angle_alpha                90
_cell_angle_beta                 92.111(1)
_cell_angle_gamma                90
_cell_volume                     1948.71
loop_
_atom_site_label
_atom_site_type_symbol
_atom_site_fract_x
_atom_site_fract_y
_atom_site_fract_z
Mn1 Mn 0.68265(4) 0.22181(2) 0.56675(2)
O1 O 0.68071(18) 0.11289(10) 0.51352(11)
C1 C 0.7569(3) 0.04490(14) 0.54289(16)
C2 C 0.7079(3) -0.03548(15) 0.50967(17)
H1 H 0.621(3) -0.0383(16) 0.4669(18)
C3 C 0.7875(3) -0.10802(16) 0.53486(19)
H2 H 0.751(3) -0.1594(19) 0.509(2)
C4 C 0.9191(3) -0.10479(16) 0.59433(19)
H3 H 0.971(3) -0.1554(18) 0.6070(19)
C5 C 0.9687(3) -0.02748(16) 0.62819(18)
H4 H 1.060(3) -0.0232(16) 0.6675(18)
C6 C 0.8884(3) 0.04822(15) 0.60482(16)
C7 C 0.9502(3) 0.12671(15) 0.64090(17)
H5 H 1.049(3) 0.1240(17) 0.6795(19)
N1 N 0.8868(2) 0.20006(12) 0.63010(14)
C8 C 0.9626(3) 0.27986(16) 0.66252(19)
H6 H 0.990(3) 0.3138(19) 0.600(2)
C9 C 1.1006(3) 0.27075(17) 0.7292(2)
H7 H 1.074(3) 0.238(2) 0.784(2)
H8 H 1.181(3) 0.2388(19) 0.698(2)
C10 C 1.1623(3) 0.35722(18) 0.7591(2)
H9 H 1.252(3) 0.3486(17) 0.8051(19)
H10 H 1.206(4) 0.386(2) 0.696(2)
C11 C 1.0395(3) 0.41278(19) 0.7983(2)
H11 H 1.016(4) 0.380(2) 0.864(3)
H12 H 1.076(3) 0.4700(17) 0.8100(18)
C12 C 0.8962(3) 0.42135(16) 0.73225(18)
H13 H 0.822(3) 0.4524(17) 0.7634(19)
H14 H 0.920(4) 0.4504(19) 0.673(2)
C13 C 0.8373(3) 0.33284(17) 0.70556(19)
H15 H 0.812(3) 0.2963(18) 0.768(2)
N2 N 0.7016(2) 0.33130(13) 0.63773(13)
C14 C 0.6035(3) 0.39249(15) 0.63324(16)
H16 H 0.621(3) 0.4432(16) 0.6706(17)
C15 C 0.4644(3) 0.39465(14) 0.57471(16)
C16 C 0.3736(3) 0.46842(16) 0.57771(17)
H17 H 0.406(3) 0.5128(17) 0.6209(18)
C17 C 0.2416(3) 0.47767(16) 0.52209(18)
H18 H 0.177(3) 0.5264(19) 0.528(2)
C18 C 0.2003(3) 0.41247(16) 0.46032(19)
H19 H 0.111(3) 0.4174(18) 0.422(2)
C19 C 0.2862(3) 0.33930(16) 0.45542(18)
H20 H 0.253(3) 0.2968(18) 0.413(2)
C20 C 0.4191(3) 0.32736(14) 0.51327(16)
O2 O 0.49405(19) 0.25481(10) 0.50762(13)
N3 N 0.5644(3) 0.16731(15) 0.69491(16)
C21 C 0.4736(3) 0.15304(15) 0.74961(16)
N4 N 0.3697(2) 0.12860(13) 0.80786(14)
C22 C 0.3413(3) 0.17631(15) 0.88050(16)
N5 N 0.3085(2) 0.21289(13) 0.94751(14)
N5A N 0.8085(2) 0.28711(13) 0.44751(14)
Mn1A Mn 0.18265(4) 0.27819(2) 1.06675(2)
loop_
_geom_bond_atom_site_label_1
_geom_bond_atom_site_label_2
_geom_bond_site_symmetry_1
_geom_bond_site_symmetry_2
Mn1 O1 1_555 1_555
O1 C1 1_555 1_555
C1 C2 1_555 1_555
C2 H1 1_555 1_555
C3 C2 1_555 1_555
H2 C3 1_555 1_555
C4 C3 1_555 1_555
H3 C4 1_555 1_555
C5 C4 1_555 1_555
H4 C5 1_555 1_555
C6 C1 1_555 1_555
C7 C6 1_555 1_555
H5 C7 1_555 1_555
N1 Mn1 1_555 1_555
C8 N1 1_555 1_555
H6 C8 1_555 1_555
C9 C8 1_555 1_555
H7 C9 1_555 1_555
H8 C9 1_555 1_555
C10 C9 1_555 1_555
H9 C10 1_555 1_555
H10 C10 1_555 1_555
C11 C10 1_555 1_555
H11 C11 1_555 1_555
H12 C11 1_555 1_555
C12 C11 1_555 1_555
H13 C12 1_555 1_555
H14 C12 1_555 1_555
C13 C8 1_555 1_555
H15 C13 1_555 1_555
N2 Mn1 1_555 1_555
C14 N2 1_555 1_555
H16 C14 1_555 1_555
C15 C14 1_555 1_555
C16 C15 1_555 1_555
H17 C16 1_555 1_555
C17 C16 1_555 1_555
H18 C17 1_555 1_555
C18 C17 1_555 1_555
H19 C18 1_555 1_555
C19 C18 1_555 1_555
H20 C19 1_555 1_555
C20 C15 1_555 1_555
O2 Mn1 1_555 1_555
N3 Mn1 1_555 1_555
C21 N3 1_555 1_555
N4 C21 1_555 1_555
C22 N4 1_555 1_555
N5 C22 1_555 1_555
N5A Mn1 1_555 1_555
Mn1A N5 1_555 1_555
C5 C6 1_555 1_555
C7 N1 1_555 1_555
C12 C13 1_555 1_555
C13 N2 1_555 1_555
C19 C20 1_555 1_555
C20 O2 1_555 1_555

#END
