
#######################################################################
#
#                 Cambridge Crystallographic Data Centre
#                                CCDC 
#
#######################################################################
#
# If this CIF has been generated from an entry in the Cambridge 
# Structural Database, then it will include bibliographic, chemical, 
# crystal, experimental, refinement or atomic coordinate data resulting 
# from the CCDC's data processing and validation procedures.
#
#######################################################################

data_EXOKOR01
_symmetry_cell_setting           monoclinic
_symmetry_space_group_name_H-M   'C 2'
_symmetry_Int_Tables_number      5
_space_group_name_Hall           'C 2y'
loop_
_symmetry_equiv_pos_site_id
_symmetry_equiv_pos_as_xyz
1 x,y,z
2 1/2+x,1/2+y,z
3 -x,y,-z
4 1/2-x,1/2+y,-z
_cell_length_a                   17.413(5)
_cell_length_b                   12.944(5)
_cell_length_c                   6.585(5)
_cell_angle_alpha                90
_cell_angle_beta                 111.891(5)
_cell_angle_gamma                90
_cell_volume                     1377.2
loop_
_atom_site_label
_atom_site_type_symbol
_atom_site_fract_x
_atom_site_fract_y
_atom_site_fract_z
Zn1 Zn 0.5000 0.0554 0.0000
Zn2 Zn 0.75849(2) 0.76737(4) 0.23258(6)
C1 C 0.5000 0.2502(3) 0.0000
O1 O 0.56535(15) 0.1993(2) 0.1094(4)
C2 C 0.5000 0.3634(3) 0.0000
C3 C 0.57331(19) 0.4182(2) 0.1074(5)
C4 C 0.57406(19) 0.5247(2) 0.1061(5)
C5 C 0.5000 0.5791(3) 0.0000
C6 C 0.6555(2) 0.5803(3) 0.2156(5)
O2 O 0.71567(16) 0.5299(2) 0.3409(4)
O3 O 0.65733(16) 0.6751(2) 0.1711(5)
O4 O 0.85282(15) 0.87169(19) 0.3055(4)
C7 C 0.84859(18) 0.9681(3) 0.2749(5)
O5 O 0.78551(15) 1.0157(2) 0.1523(5)
C8 C 0.92666(18) 1.0289(2) 0.3921(5)
C9 C 1.0000 0.9747(3) 0.5000
C10 C 0.9269(2) 1.1363(3) 0.3934(6)
C11 C 1.0000 1.1910(4) 0.5000
C12 C 1.0000 1.3069(4) 0.5000
O6 O 1.06836(18) 1.3544(2) 0.5718(5)
O7 O 0.67633(16) 0.8731(2) 0.0128(4)
O8 O 0.77908(18) 0.7049(2) -0.0442(5)
O9 O 0.84129(16) 0.6566(2) 0.4328(5)
O10 O 0.73367(17) 0.8345(2) 0.5029(5)
O11 O 0.44290(19) 0.0508(3) 0.2376(5)
O12 O 0.4171(2) -0.0405(3) -0.2053(6)
H1 H 0.6239 0.3800 0.1530
H2 H 0.5000 0.6513 0.0000
H3 H 1.0000 0.8783 0.5000
H4 H 0.8798 1.1673 0.3115
H5 H 0.712(3) 0.933(3) 0.032(7)
H6 H 0.639(3) 0.867(4) -0.140(4)
H7 H 0.8339(19) 0.707(4) -0.055(10)
H8 H 0.757(3) 0.635(2) -0.072(9)
H9 H 0.861(3) 0.694(3) 0.574(5)
H10 H 0.801(3) 0.602(3) 0.434(7)
H11 H 0.754(3) 0.900(3) 0.577(8)
H12 H 0.683(2) 0.814(3) 0.525(9)
H13 H 0.440(3) -0.014(2) 0.315(8)
H14 H 0.405(3) 0.102(3) 0.259(9)
H15 H 0.382(3) -0.078(3) -0.146(8)
H16 H 0.424(3) -0.081(3) -0.324(7)
Zn2B Zn 0.24151(2) 0.76737(4) -0.23258(6)
Zn2B_2 Zn 1.24151(2) 0.76737(4) 0.76742(6)
O1B O 0.43465(15) 0.1993(2) -0.1094(4)
C3B C 0.42669(19) 0.4182(2) -0.1074(5)
C4B C 0.42594(19) 0.5247(2) -0.1061(5)
C6B C 0.3445(2) 0.5803(3) -0.2156(5)
O2B O 0.28433(16) 0.5299(2) -0.3409(4)
O3B O 0.34267(16) 0.6751(2) -0.1711(5)
O4B O 1.14718(15) 0.87169(19) 0.6945(4)
O4B_2 O 0.14718(15) 0.87169(19) -0.3055(4)
C7B C 1.15141(18) 0.9681(3) 0.7251(5)
O5B O 1.21449(15) 1.0157(2) 0.8477(5)
C8B C 1.07334(18) 1.0289(2) 0.6079(5)
C10B C 1.0731(2) 1.1363(3) 0.6066(6)
O6B O 0.93164(18) 1.3544(2) 0.4282(5)
O7B O 0.32367(16) 0.8731(2) -0.0128(4)
O8B O 0.22092(18) 0.7049(2) 0.0442(5)
O9B O 0.15871(16) 0.6566(2) -0.4328(5)
O10B O 0.26633(17) 0.8345(2) -0.5029(5)
O11B O 0.55710(19) 0.0508(3) -0.2376(5)
O12B O 0.5829(2) -0.0405(3) 0.2053(6)
H1B H 0.3761 0.3800 -0.1530
H4B H 1.1202 1.1673 0.6885
H5B H 0.288(3) 0.933(3) -0.032(7)
H6B H 0.361(3) 0.867(4) 0.140(4)
H7B H 0.1661(19) 0.707(4) 0.055(10)
H8B H 0.243(3) 0.635(2) 0.072(9)
H9B H 0.139(3) 0.694(3) -0.574(5)
H10B H 0.199(3) 0.602(3) -0.434(7)
H11B H 0.246(3) 0.900(3) -0.577(8)
H12B H 0.317(2) 0.814(3) -0.525(9)
H13B H 0.560(3) -0.014(2) -0.315(8)
H14B H 0.595(3) 0.102(3) -0.259(9)
H15B H 0.618(3) -0.078(3) 0.146(8)
H16B H 0.576(3) -0.081(3) 0.324(7)
loop_
_geom_bond_atom_site_label_1
_geom_bond_atom_site_label_2
_geom_bond_site_symmetry_1
_geom_bond_site_symmetry_2
Zn1 O1 1_555 1_555
Zn2 O3 1_555 1_555
C1 O1 1_555 1_555
C2 C1 1_555 1_555
C3 C2 1_555 1_555
C4 C3 1_555 1_555
C5 C4 1_555 1_555
C6 C4 1_555 1_555
O2 C6 1_555 1_555
O3 C6 1_555 1_555
O4 Zn2 1_555 1_555
C7 O4 1_555 1_555
O5 C7 1_555 1_555
C8 C7 1_555 1_555
C9 C8 1_555 1_555
C10 C8 1_555 1_555
C11 C10 1_555 1_555
C12 C11 1_555 1_555
O6 C12 1_555 1_555
O7 Zn2 1_555 1_555
O8 Zn2 1_555 1_555
O9 Zn2 1_555 1_555
O10 Zn2 1_555 1_555
O11 Zn1 1_555 1_555
O12 Zn1 1_555 1_555
H1 C3 1_555 1_555
H2 C5 1_555 1_555
H3 C9 1_555 1_555
H4 C10 1_555 1_555
H5 O7 1_555 1_555
H6 O7 1_555 1_555
H7 O8 1_555 1_555
H8 O8 1_555 1_555
H9 O9 1_555 1_555
H10 O9 1_555 1_555
H11 O10 1_555 1_555
H12 O10 1_555 1_555
H13 O11 1_555 1_555
H14 O11 1_555 1_555
H15 O12 1_555 1_555
H16 O12 1_555 1_555
Zn2B O3B 1_555 1_555
Zn2B_2 O4B 1_555 1_555
O1B Zn1 1_555 1_555
C3B C2 1_555 1_555
C4B C5 1_555 1_555
C6B C4B 1_555 1_555
O2B C6B 1_555 1_555
O3B C6B 1_555 1_555
O4B C7B 1_555 1_555
O4B_2 Zn2B 1_555 1_555
C7B O5B 1_555 1_555
C8B C9 1_555 1_555
C10B C11 1_555 1_555
O6B C12 1_555 1_555
O7B Zn2B 1_555 1_555
O8B Zn2B 1_555 1_555
O9B Zn2B 1_555 1_555
O10B Zn2B 1_555 1_555
O11B Zn1 1_555 1_555
O12B Zn1 1_555 1_555
H1B C3B 1_555 1_555
H4B C10B 1_555 1_555
H5B O7B 1_555 1_555
H6B O7B 1_555 1_555
H7B O8B 1_555 1_555
H8B O8B 1_555 1_555
H9B O9B 1_555 1_555
H10B O9B 1_555 1_555
H11B O10B 1_555 1_555
H12B O10B 1_555 1_555
H13B O11B 1_555 1_555
H14B O11B 1_555 1_555
H15B O12B 1_555 1_555
H16B O12B 1_555 1_555
C1 O1B 1_555 1_555
C3B C4B 1_555 1_555
C7B C8B 1_555 1_555
C8B C10B 1_555 1_555

#END
