
#######################################################################
#
#                 Cambridge Crystallographic Data Centre
#                                CCDC 
#
#######################################################################
#
# If this CIF has been generated from an entry in the Cambridge 
# Structural Database, then it will include bibliographic, chemical, 
# crystal, experimental, refinement or atomic coordinate data resulting 
# from the CCDC's data processing and validation procedures.
#
#######################################################################

data_EXOKUY
_symmetry_cell_setting           monoclinic
_symmetry_space_group_name_H-M   'C 2'
_symmetry_Int_Tables_number      5
_space_group_name_Hall           'C 2y'
loop_
_symmetry_equiv_pos_site_id
_symmetry_equiv_pos_as_xyz
1 x,y,z
2 -x,y,-z
3 1/2+x,1/2+y,z
4 1/2-x,1/2+y,-z
_cell_length_a                   22.8521(3)
_cell_length_b                   8.5194(1)
_cell_length_c                   5.1872(1)
_cell_angle_alpha                90
_cell_angle_beta                 99.483(1)
_cell_angle_gamma                90
_cell_volume                     996.076
loop_
_atom_site_label
_atom_site_type_symbol
_atom_site_fract_x
_atom_site_fract_y
_atom_site_fract_z
Pb1 Pb 0.0000 -0.3353 0.0000
P1 P 0.08914(7) -0.52445(18) -0.3904(3)
C1 C 0.16860(19) -0.5101(5) -0.3034(8)
C2 C 0.2014(2) -0.4283(7) -0.4642(9)
H1 H 0.1818 -0.3764 -0.6111
C3 C 0.2625(2) -0.4234(8) -0.4083(11)
H2 H 0.2838 -0.3653 -0.5132
C4 C 0.2918(2) -0.5049(8) -0.1962(10)
H3 H 0.3330 -0.5040 -0.1620
C5 C 0.2609(2) -0.5879(10) -0.0337(13)
H4 H 0.2810 -0.6423 0.1092
C6 C 0.1995(2) -0.5890(6) -0.0862(9)
H5 H 0.1785 -0.6431 0.0246
C7 C 0.0759(3) -0.7120(7) -0.5565(11)
H6 H 0.0354 -0.7146 -0.6491
H7 H 0.1021 -0.7217 -0.6847
C8 C 0.08574(18) -0.8516(11) -0.3694(7)
H8 H 0.1264 -0.8498 -0.2789
H9 H 0.0600 -0.8408 -0.2394
C9 C 0.0739(3) -1.0063(7) -0.5044(11)
O1 O 0.06100(13) -0.5248(4) -0.1455(5)
O2 O 0.06895(13) -0.3928(3) -0.5812(5)
O3 O 0.05041(17) -1.0218(4) -0.7274(6)
O4 O 0.0934(3) -1.1245(7) -0.3489(10)
H10 H 0.0853 -1.2077 -0.4262
Pb1_2 Pb 0.0000 -0.3353 -1.0000
Pb1_3 Pb 0.0000 -0.3353 1.0000
P1_2 P 0.08914(7) -0.52445(18) 0.6096(3)
C1_2 C 0.16860(19) -0.5101(5) 0.6966(8)
C2_2 C 0.2014(2) -0.4283(7) 0.5358(9)
H1_2 H 0.1818 -0.3764 0.3889
C3_2 C 0.2625(2) -0.4234(8) 0.5917(11)
H2_2 H 0.2838 -0.3653 0.4868
C4_2 C 0.2918(2) -0.5049(8) 0.8038(10)
H3_2 H 0.3330 -0.5040 0.8380
C5_2 C 0.2609(2) -0.5879(10) 0.9663(13)
H4_2 H 0.2810 -0.6423 1.1092
C6_2 C 0.1995(2) -0.5890(6) 0.9138(9)
H5_2 H 0.1785 -0.6431 1.0246
C7_2 C 0.0759(3) -0.7120(7) 0.4435(11)
H6_2 H 0.0354 -0.7146 0.3509
H7_2 H 0.1021 -0.7217 0.3153
C8_2 C 0.08574(18) -0.8516(11) 0.6306(7)
H8_2 H 0.1264 -0.8498 0.7211
H9_2 H 0.0600 -0.8408 0.7606
C9_2 C 0.0739(3) -1.0063(7) 0.4956(11)
O1_2 O 0.06100(13) -0.5248(4) 0.8545(5)
O1A O -0.06100(13) -0.5248(4) 0.1455(5)
O2_2 O 0.06895(13) -0.3928(3) 0.4188(5)
O2A O -0.06895(13) -0.3928(3) -0.4188(5)
O3_2 O 0.05041(17) -1.0218(4) 0.2726(6)
O4_2 O 0.0934(3) -1.1245(7) 0.6511(10)
H10_2 H 0.0853 -1.2077 0.5738
loop_
_geom_bond_atom_site_label_1
_geom_bond_atom_site_label_2
_geom_bond_site_symmetry_1
_geom_bond_site_symmetry_2
Pb1 O1 1_555 1_555
P1 C1 1_555 1_555
C1 C2 1_555 1_555
C2 H1 1_555 1_555
C3 C2 1_555 1_555
H2 C3 1_555 1_555
C4 C3 1_555 1_555
H3 C4 1_555 1_555
C5 C4 1_555 1_555
H4 C5 1_555 1_555
C6 C1 1_555 1_555
H5 C6 1_555 1_555
C7 P1 1_555 1_555
H6 C7 1_555 1_555
H7 C7 1_555 1_555
C8 C7 1_555 1_555
H8 C8 1_555 1_555
H9 C8 1_555 1_555
C9 C8 1_555 1_555
O1 P1 1_555 1_555
O2 P1 1_555 1_555
O3 C9 1_555 1_555
O4 C9 1_555 1_555
H10 O4 1_555 1_555
Pb1_2 O2 1_555 1_555
Pb1_3 O1_2 1_555 1_555
P1_2 C1_2 1_555 1_555
C1_2 C2_2 1_555 1_555
C2_2 H1_2 1_555 1_555
C3_2 C2_2 1_555 1_555
H2_2 C3_2 1_555 1_555
C4_2 C3_2 1_555 1_555
H3_2 C4_2 1_555 1_555
C5_2 C4_2 1_555 1_555
H4_2 C5_2 1_555 1_555
C6_2 C1_2 1_555 1_555
H5_2 C6_2 1_555 1_555
C7_2 P1_2 1_555 1_555
H6_2 C7_2 1_555 1_555
H7_2 C7_2 1_555 1_555
C8_2 C7_2 1_555 1_555
H8_2 C8_2 1_555 1_555
H9_2 C8_2 1_555 1_555
C9_2 C8_2 1_555 1_555
O1_2 P1_2 1_555 1_555
O1A Pb1 1_555 1_555
O2_2 Pb1 1_555 1_555
O2A Pb1 1_555 1_555
O3_2 C9_2 1_555 1_555
O4_2 C9_2 1_555 1_555
H10_2 O4_2 1_555 1_555
C5 C6 1_555 1_555
P1_2 O2_2 1_555 1_555
C5_2 C6_2 1_555 1_555

#END
