
#######################################################################
#
#                 Cambridge Crystallographic Data Centre
#                                CCDC 
#
#######################################################################
#
# If this CIF has been generated from an entry in the Cambridge 
# Structural Database, then it will include bibliographic, chemical, 
# crystal, experimental, refinement or atomic coordinate data resulting 
# from the CCDC's data processing and validation procedures.
#
#######################################################################

data_EXOLEJ
_symmetry_cell_setting           monoclinic
_symmetry_space_group_name_H-M   'C 2/c'
_symmetry_Int_Tables_number      15
_space_group_name_Hall           '-C 2yn'
loop_
_symmetry_equiv_pos_site_id
_symmetry_equiv_pos_as_xyz
1 x,y,z
2 -x,y,1/2-z
3 1/2+x,1/2+y,z
4 1/2-x,1/2+y,1/2-z
5 -x,-y,-z
6 x,-y,1/2+z
7 1/2-x,1/2-y,-z
8 1/2+x,1/2-y,1/2+z
_cell_length_a                   24.898(9)
_cell_length_b                   12.486(5)
_cell_length_c                   34.978(5)
_cell_angle_alpha                90
_cell_angle_beta                 105.103(10)
_cell_angle_gamma                90
_cell_volume                     10498.2
loop_
_atom_site_label
_atom_site_type_symbol
_atom_site_fract_x
_atom_site_fract_y
_atom_site_fract_z
Si1 Si 0.5000 0.6006(2) 0.2500
Mo1 Mo 0.59291(3) 0.78807(6) 0.22773(2)
Mo2 Mo 0.45741(4) 0.81113(6) 0.18123(3)
Mo3 Mo 0.63752(3) 0.58997(6) 0.30969(2)
Mo4 Mo 0.40040(3) 0.41278(5) 0.26406(2)
Mo5 Mo 0.44871(3) 0.38952(6) 0.18402(2)
Mo6 Mo 0.53381(3) 0.60895(6) 0.15860(2)
Cu1 Cu 0.82839(5) 0.32348(10) 0.45577(4)
Cu2 Cu 0.72533(5) 0.13218(9) 0.46254(3)
Cu3 Cu 0.68054(5) 0.32547(10) 0.38941(4)
Cu4 Cu 0.77607(5) 0.50667(10) 0.38097(4)
O1 O 0.4147(2) 0.5153(4) 0.30245(15)
O2 O 0.4877(2) 0.7267(4) 0.14233(16)
O3 O 0.6206(2) 0.4762(4) 0.33791(16)
O4 O 0.4019(2) 0.6928(4) 0.17154(16)
O5 O 0.5278(3) 0.8735(4) 0.19673(19)
O6 O 0.4150(2) 0.3278(4) 0.21948(15)
O7 O 0.5638(2) 0.8376(4) 0.27386(17)
O8 O 0.5944(2) 0.7183(4) 0.18179(17)
O9 O 0.4812(2) 0.5087(4) 0.15720(15)
O10 O 0.7037(2) 0.6162(5) 0.33468(18)
O11 O 0.6291(2) 0.6867(4) 0.26258(16)
O12 O 0.4227(3) 0.9025(5) 0.1487(2)
O13 O 0.4794(2) 0.3640(4) 0.28946(14)
O14 O 0.5563(2) 0.5865(4) 0.11783(16)
O15 O 0.6555(2) 0.4812(4) 0.27150(16)
O16 O 0.6433(3) 0.8806(4) 0.2300(2)
O17 O 0.3656(2) 0.3211(4) 0.28254(16)
O18 O 0.5154(2) 0.6756(4) 0.21614(15)
O19 O 0.4473(2) 0.5253(4) 0.22921(14)
O20 O 0.4358(2) 0.2980(4) 0.14743(16)
N1 N 0.9551(3) 0.3578(6) 0.4019(3)
H1 H 0.9732 0.3313 0.3863
N2 N 0.9096(3) 0.3131(6) 0.4088(2)
N3 N 0.8932(3) 0.3721(6) 0.4344(2)
N4 N 0.8246(3) 0.1513(5) 0.3888(2)
H2 H 0.8515 0.1824 0.3820
N5 N 0.8020(3) 0.1859(5) 0.4177(2)
N6 N 0.7628(3) 0.1196(5) 0.4204(2)
N7 N 0.6502(3) 0.2646(6) 0.4939(2)
N8 N 0.6717(3) 0.2465(6) 0.4634(2)
N9 N 0.6549(3) 0.3228(6) 0.4355(2)
N10 N 0.7612(3) 0.4670(6) 0.4924(2)
N11 N 0.7768(3) 0.4435(6) 0.4598(2)
N12 N 0.7574(3) 0.5137(6) 0.4308(2)
N13 N 0.7166(3) 0.3133(6) 0.3490(2)
N14 N 0.7556(3) 0.3781(6) 0.3460(2)
N15 N 0.7744(3) 0.3488(6) 0.3150(2)
H3 H 0.8006 0.3809 0.3077
N16 N 0.8351(3) 0.5803(7) 0.3639(2)
N17 N 0.8597(4) 0.5377(8) 0.3402(3)
N18 N 0.9030(4) 0.6080(11) 0.3397(3)
H4 H 0.9255 0.5994 0.3250
C1 C 0.9718(5) 0.6204(8) 0.4701(3)
H5 H 0.9731 0.6811 0.4858
C2 C 1.0119(5) 0.6076(9) 0.4493(4)
H6 H 1.0398 0.6587 0.4520
C3 C 1.0113(5) 0.5215(8) 0.4250(3)
H7 H 1.0380 0.5123 0.4110
C4 C 0.9689(4) 0.4496(7) 0.4225(3)
C5 C 0.9289(4) 0.4588(7) 0.4434(3)
C6 C 0.9301(4) 0.5467(8) 0.4685(3)
H8 H 0.9042 0.5548 0.4832
C7 C 0.7587(3) 0.0402(7) 0.3918(2)
C8 C 0.7223(4) -0.0456(7) 0.3822(3)
H9 H 0.6953 -0.0594 0.3955
C9 C 0.7288(4) -0.1090(7) 0.3515(3)
H10 H 0.7050 -0.1670 0.3438
C10 C 0.7696(4) -0.0897(7) 0.3315(3)
H11 H 0.7718 -0.1350 0.3109
C11 C 0.8064(4) -0.0061(7) 0.3412(3)
H12 H 0.8342 0.0059 0.3284
C12 C 0.7989(3) 0.0603(7) 0.3720(2)
C13 C 0.6221(3) 0.3928(7) 0.4488(3)
C14 C 0.5947(4) 0.4858(8) 0.4319(3)
H13 H 0.5963 0.5093 0.4070
C15 C 0.5652(4) 0.5409(9) 0.4537(3)
H14 H 0.5468 0.6036 0.4436
C16 C 0.5624(4) 0.5040(9) 0.4914(3)
H15 H 0.5421 0.5434 0.5053
C17 C 0.5882(4) 0.4137(8) 0.5078(3)
H16 H 0.5858 0.3901 0.5325
C18 C 0.6194(3) 0.3559(7) 0.4857(3)
C19 C 0.6763(5) 0.0972(9) 0.2755(4)
H17 H 0.6520 0.0404 0.2669
C20 C 0.7157(5) 0.1189(10) 0.2549(3)
H18 H 0.7174 0.0740 0.2340
C21 C 0.7470(4) 0.2631(8) 0.2967(3)
C22 C 0.6714(4) 0.1540(8) 0.3073(3)
H19 H 0.6454 0.1374 0.3212
C23 C 0.7083(4) 0.2391(7) 0.3173(3)
C24 C 0.7513(5) 0.2007(10) 0.2634(3)
H20 H 0.7768 0.2159 0.2489
C25 C 0.6752(4) 0.7081(7) 0.4907(3)
H21 H 0.6569 0.7497 0.5054
C26 C 0.6721(4) 0.7392(7) 0.4510(3)
H22 H 0.6523 0.8000 0.4403
C27 C 0.7036(4) 0.6204(7) 0.5079(3)
H23 H 0.7056 0.6023 0.5340
C28 C 0.7303(3) 0.5577(7) 0.4846(2)
C29 C 0.6987(4) 0.6787(8) 0.4290(3)
H24 H 0.6976 0.6974 0.4031
C30 C 0.7272(4) 0.5883(6) 0.4465(3)
C31 C 0.8624(4) 0.6739(9) 0.3799(3)
C32 C 0.9301(6) 0.8447(13) 0.4025(5)
H25 H 0.9531 0.9032 0.4113
C33 C 0.9432(6) 0.7808(11) 0.3749(4)
H26 H 0.9728 0.7938 0.3639
C34 C 0.8508(5) 0.7455(9) 0.4076(4)
H27 H 0.8206 0.7360 0.4182
C35 C 0.9058(5) 0.6896(12) 0.3644(4)
C36 C 0.8869(6) 0.8310(10) 0.4183(4)
H28 H 0.8811 0.8802 0.4368
Mo1A Mo 0.40709(3) 0.78807(6) 0.27227(2)
Mo2A Mo 0.54259(4) 0.81113(6) 0.31877(3)
Mo3A Mo 0.36248(3) 0.58997(6) 0.19031(2)
Mo4A Mo 0.59960(3) 0.41278(5) 0.23594(2)
Mo5A Mo 0.55129(3) 0.38952(6) 0.31598(2)
Mo6A Mo 0.46619(3) 0.60895(6) 0.34140(2)
Cu1A Cu 0.17161(5) 0.32348(10) 0.04423(4)
Cu1F Cu 0.67161(5) 0.17652(10) 0.54423(4)
Cu1G Cu 0.32839(5) 0.17652(10) -0.04423(4)
Cu2A Cu 0.27467(5) 0.13218(9) 0.03746(3)
Cu2F Cu 0.77467(5) 0.36782(9) 0.53746(3)
Cu2G Cu 0.22533(5) 0.36782(9) -0.03746(3)
Cu3A Cu 0.31946(5) 0.32547(10) 0.11059(4)
Cu4A Cu 0.22393(5) 0.50667(10) 0.11903(4)
O1A O 0.5853(2) 0.5153(4) 0.19755(15)
O2A O 0.5123(2) 0.7267(4) 0.35767(16)
O3A O 0.3794(2) 0.4762(4) 0.16209(16)
O4A O 0.5981(2) 0.6928(4) 0.32846(16)
O5A O 0.4722(3) 0.8735(4) 0.30327(19)
O6A O 0.5850(2) 0.3278(4) 0.28052(15)
O7A O 0.4362(2) 0.8376(4) 0.22614(17)
O8A O 0.4056(2) 0.7183(4) 0.31821(17)
O9A O 0.5188(2) 0.5087(4) 0.34280(15)
O10A O 0.2963(2) 0.6162(5) 0.16532(18)
O11A O 0.3709(2) 0.6867(4) 0.23742(16)
O12A O 0.5773(3) 0.9025(5) 0.3513(2)
O13A O 0.5206(2) 0.3640(4) 0.21054(14)
O14A O 0.4437(2) 0.5865(4) 0.38217(16)
O15A O 0.3445(2) 0.4812(4) 0.22850(16)
O16A O 0.3567(3) 0.8806(4) 0.2700(2)
O17A O 0.6344(2) 0.3211(4) 0.21746(16)
O18A O 0.4846(2) 0.6756(4) 0.28386(15)
O19A O 0.5527(2) 0.5253(4) 0.27079(14)
O20A O 0.5642(2) 0.2980(4) 0.35257(16)
N1A N 0.0449(3) 0.3578(6) 0.0981(3)
H1A H 0.0268 0.3313 0.1137
N2A N 0.0904(3) 0.3131(6) 0.0912(2)
N3A N 0.1068(3) 0.3721(6) 0.0656(2)
N4A N 0.1754(3) 0.1513(5) 0.1112(2)
H2A H 0.1485 0.1824 0.1180
N5A N 0.1980(3) 0.1859(5) 0.0823(2)
N6A N 0.2372(3) 0.1196(5) 0.0796(2)
N7A N 0.3498(3) 0.2646(6) 0.0061(2)
N7F N 0.8498(3) 0.2354(6) 0.5061(2)
N7G N 0.1502(3) 0.2354(6) -0.0061(2)
N8A N 0.3283(3) 0.2465(6) 0.0366(2)
N9A N 0.3451(3) 0.3228(6) 0.0645(2)
N10A N 0.2388(3) 0.4670(6) 0.0076(2)
N10F N 0.7388(3) 0.0330(6) 0.5076(2)
N10G N 0.2612(3) 0.0330(6) -0.0076(2)
N11A N 0.2232(3) 0.4435(6) 0.0402(2)
N12A N 0.2426(3) 0.5137(6) 0.0692(2)
N13A N 0.2834(3) 0.3133(6) 0.1510(2)
N14A N 0.2444(3) 0.3781(6) 0.1540(2)
N15A N 0.2256(3) 0.3488(6) 0.1850(2)
H3A H 0.1994 0.3809 0.1923
N16A N 0.1649(3) 0.5803(7) 0.1361(2)
N17A N 0.1403(4) 0.5377(8) 0.1598(3)
N18A N 0.0970(4) 0.6080(11) 0.1603(3)
H4A H 0.0745 0.5994 0.1750
C1A C 0.0282(5) 0.6204(8) 0.0299(3)
H5A H 0.0269 0.6811 0.0142
C2A C -0.0119(5) 0.6076(9) 0.0507(4)
H6A H -0.0398 0.6587 0.0480
C3A C -0.0113(5) 0.5215(8) 0.0750(3)
H7A H -0.0380 0.5123 0.0890
C4A C 0.0311(4) 0.4496(7) 0.0775(3)
C5A C 0.0711(4) 0.4588(7) 0.0566(3)
C6A C 0.0699(4) 0.5467(8) 0.0315(3)
H8A H 0.0958 0.5548 0.0168
C7A C 0.2413(3) 0.0402(7) 0.1082(2)
C8A C 0.2777(4) -0.0456(7) 0.1178(3)
H9A H 0.3047 -0.0594 0.1045
C9A C 0.2712(4) -0.1090(7) 0.1485(3)
H10A H 0.2950 -0.1670 0.1562
C10A C 0.2304(4) -0.0897(7) 0.1685(3)
H11A H 0.2282 -0.1350 0.1891
C11A C 0.1936(4) -0.0061(7) 0.1588(3)
H12A H 0.1658 0.0059 0.1716
C12A C 0.2011(3) 0.0603(7) 0.1280(2)
C13A C 0.3779(3) 0.3928(7) 0.0512(3)
C14A C 0.4053(4) 0.4858(8) 0.0681(3)
H13A H 0.4037 0.5093 0.0930
C15A C 0.4348(4) 0.5409(9) 0.0463(3)
H14A H 0.4532 0.6036 0.0564
C16A C 0.4376(4) 0.5040(9) 0.0086(3)
H15A H 0.4579 0.5434 -0.0053
C17A C 0.4118(4) 0.4137(8) -0.0078(3)
H16A H 0.4142 0.3901 -0.0325
C18A C 0.3806(3) 0.3559(7) 0.0143(3)
C19A C 0.3237(5) 0.0972(9) 0.2245(4)
H17A H 0.3480 0.0404 0.2331
C20A C 0.2843(5) 0.1189(10) 0.2451(3)
H18A H 0.2826 0.0740 0.2660
C21A C 0.2530(4) 0.2631(8) 0.2033(3)
C22A C 0.3286(4) 0.1540(8) 0.1927(3)
H19A H 0.3546 0.1374 0.1788
C23A C 0.2917(4) 0.2391(7) 0.1827(3)
C24A C 0.2487(5) 0.2007(10) 0.2366(3)
H20A H 0.2232 0.2159 0.2511
C25A C 0.3248(4) 0.7081(7) 0.0093(3)
H21A H 0.3431 0.7497 -0.0054
C26A C 0.3279(4) 0.7392(7) 0.0490(3)
H22A H 0.3477 0.8000 0.0597
C27A C 0.2964(4) 0.6204(7) -0.0079(3)
H23A H 0.2944 0.6023 -0.0340
C28A C 0.2697(3) 0.5577(7) 0.0154(2)
C29A C 0.3013(4) 0.6787(8) 0.0710(3)
H24A H 0.3024 0.6974 0.0969
C30A C 0.2728(4) 0.5883(6) 0.0535(3)
C31A C 0.1376(4) 0.6739(9) 0.1201(3)
C32A C 0.0699(6) 0.8447(13) 0.0975(5)
H25A H 0.0469 0.9032 0.0887
C33A C 0.0568(6) 0.7808(11) 0.1251(4)
H26A H 0.0272 0.7938 0.1361
C34A C 0.1492(5) 0.7455(9) 0.0924(4)
H27A H 0.1794 0.7360 0.0818
C35A C 0.0942(5) 0.6896(12) 0.1356(4)
C36A C 0.1131(6) 0.8310(10) 0.0817(4)
H28A H 0.1189 0.8802 0.0632
O21 O 0.0314(4) 0.6073(7) 0.2158(4)
loop_
_geom_bond_atom_site_label_1
_geom_bond_atom_site_label_2
_geom_bond_site_symmetry_1
_geom_bond_site_symmetry_2
Si1 O18 1_555 1_555
Mo1 O5 1_555 1_555
Mo2 O2 1_555 1_555
Mo3 O3 1_555 1_555
Mo4 O1 1_555 1_555
Mo5 O6 1_555 1_555
Mo6 O2 1_555 1_555
Cu1 N3 1_555 1_555
Cu2 N6 1_555 1_555
Cu3 O3 1_555 1_555
Cu4 O10 1_555 1_555
O1 Mo6A 1_555 1_555
O3 Mo5A 1_555 1_555
O4 Mo2 1_555 1_555
O5 Mo2 1_555 1_555
O6 Mo4 1_555 1_555
O7 Mo1 1_555 1_555
O8 Mo1 1_555 1_555
O9 Mo5 1_555 1_555
O10 Mo3 1_555 1_555
O11 Mo1 1_555 1_555
O12 Mo2 1_555 1_555
O13 Mo4 1_555 1_555
O14 Mo6 1_555 1_555
O15 Mo3 1_555 1_555
O16 Mo1 1_555 1_555
O17 Mo4 1_555 1_555
O18 Mo1 1_555 1_555
O19 Si1 1_555 1_555
O20 Mo5 1_555 1_555
N1 H1 1_555 1_555
N2 N1 1_555 1_555
N3 N2 1_555 1_555
N4 H2 1_555 1_555
N5 Cu1 1_555 1_555
N6 N5 1_555 1_555
N7 N8 1_555 1_555
N8 Cu2 1_555 1_555
N9 Cu3 1_555 1_555
N10 N11 1_555 1_555
N11 Cu1 1_555 1_555
N12 Cu4 1_555 1_555
N13 Cu3 1_555 1_555
N14 Cu4 1_555 1_555
N15 N14 1_555 1_555
H3 N15 1_555 1_555
N16 Cu4 1_555 1_555
N17 N16 1_555 1_555
N18 N17 1_555 1_555
H4 N18 1_555 1_555
C1 H5 1_555 1_555
C2 C1 1_555 1_555
H6 C2 1_555 1_555
C3 C2 1_555 1_555
H7 C3 1_555 1_555
C4 N1 1_555 1_555
C5 N3 1_555 1_555
C6 C1 1_555 1_555
H8 C6 1_555 1_555
C7 N6 1_555 1_555
C8 C7 1_555 1_555
H9 C8 1_555 1_555
C9 C8 1_555 1_555
H10 C9 1_555 1_555
C10 C9 1_555 1_555
H11 C10 1_555 1_555
C11 C10 1_555 1_555
H12 C11 1_555 1_555
C12 N4 1_555 1_555
C13 N9 1_555 1_555
C14 C13 1_555 1_555
H13 C14 1_555 1_555
C15 C14 1_555 1_555
H14 C15 1_555 1_555
C16 C15 1_555 1_555
H15 C16 1_555 1_555
C17 C16 1_555 1_555
H16 C17 1_555 1_555
C18 N7 1_555 1_555
C19 H17 1_555 1_555
C20 C19 1_555 1_555
H18 C20 1_555 1_555
C21 N15 1_555 1_555
C22 C19 1_555 1_555
H19 C22 1_555 1_555
C23 N13 1_555 1_555
C24 C20 1_555 1_555
H20 C24 1_555 1_555
C25 H21 1_555 1_555
C26 C25 1_555 1_555
H22 C26 1_555 1_555
C27 C25 1_555 1_555
H23 C27 1_555 1_555
C28 N10 1_555 1_555
C29 C26 1_555 1_555
H24 C29 1_555 1_555
C30 N12 1_555 1_555
C31 N16 1_555 1_555
C32 H25 1_555 1_555
C33 C32 1_555 1_555
H26 C33 1_555 1_555
C34 C31 1_555 1_555
H27 C34 1_555 1_555
C35 N18 1_555 1_555
C36 C32 1_555 1_555
H28 C36 1_555 1_555
Mo1A O5A 1_555 1_555
Mo2A O7 1_555 1_555
Mo3A O4 1_555 1_555
Mo4A O15 1_555 1_555
Mo5A O13 1_555 1_555
Mo6A O2A 1_555 1_555
Cu1A N3A 1_555 1_555
Cu1F N7 1_555 1_555
Cu1G N7A 1_555 1_555
Cu2A N6A 1_555 1_555
Cu2F N10 1_555 1_555
Cu2G N10A 1_555 1_555
Cu3A O3A 1_555 1_555
Cu4A O10A 1_555 1_555
O1A Mo6 1_555 1_555
O2A Mo2A 1_555 1_555
O3A Mo5 1_555 1_555
O4A Mo3 1_555 1_555
O5A Mo2A 1_555 1_555
O6A Mo4A 1_555 1_555
O7A Mo2 1_555 1_555
O8A Mo1A 1_555 1_555
O9A Mo5A 1_555 1_555
O10A Mo3A 1_555 1_555
O11A Mo1A 1_555 1_555
O12A Mo2A 1_555 1_555
O13A Mo5 1_555 1_555
O14A Mo6A 1_555 1_555
O15A Mo4 1_555 1_555
O16A Mo1A 1_555 1_555
O17A Mo4A 1_555 1_555
O18A Si1 1_555 1_555
O19A Si1 1_555 1_555
O20A Mo5A 1_555 1_555
N1A H1A 1_555 1_555
N2A N1A 1_555 1_555
N3A N2A 1_555 1_555
N4A H2A 1_555 1_555
N5A Cu1A 1_555 1_555
N6A N5A 1_555 1_555
N7A N8A 1_555 1_555
N7F Cu1 1_555 1_555
N7G Cu1A 1_555 1_555
N8A Cu2A 1_555 1_555
N9A Cu3A 1_555 1_555
N10A N11A 1_555 1_555
N10F Cu2 1_555 1_555
N10G Cu2A 1_555 1_555
N11A Cu1A 1_555 1_555
N12A Cu4A 1_555 1_555
N13A Cu3A 1_555 1_555
N14A Cu4A 1_555 1_555
N15A N14A 1_555 1_555
H3A N15A 1_555 1_555
N16A Cu4A 1_555 1_555
N17A N16A 1_555 1_555
N18A N17A 1_555 1_555
H4A N18A 1_555 1_555
C1A H5A 1_555 1_555
C2A C1A 1_555 1_555
H6A C2A 1_555 1_555
C3A C2A 1_555 1_555
H7A C3A 1_555 1_555
C4A N1A 1_555 1_555
C5A N3A 1_555 1_555
C6A C1A 1_555 1_555
H8A C6A 1_555 1_555
C7A N6A 1_555 1_555
C8A C7A 1_555 1_555
H9A C8A 1_555 1_555
C9A C8A 1_555 1_555
H10A C9A 1_555 1_555
C10A C9A 1_555 1_555
H11A C10A 1_555 1_555
C11A C10A 1_555 1_555
H12A C11A 1_555 1_555
C12A N4A 1_555 1_555
C13A N9A 1_555 1_555
C14A C13A 1_555 1_555
H13A C14A 1_555 1_555
C15A C14A 1_555 1_555
H14A C15A 1_555 1_555
C16A C15A 1_555 1_555
H15A C16A 1_555 1_555
C17A C16A 1_555 1_555
H16A C17A 1_555 1_555
C18A N7A 1_555 1_555
C19A H17A 1_555 1_555
C20A C19A 1_555 1_555
H18A C20A 1_555 1_555
C21A N15A 1_555 1_555
C22A C19A 1_555 1_555
H19A C22A 1_555 1_555
C23A N13A 1_555 1_555
C24A C20A 1_555 1_555
H20A C24A 1_555 1_555
C25A H21A 1_555 1_555
C26A C25A 1_555 1_555
H22A C26A 1_555 1_555
C27A C25A 1_555 1_555
H23A C27A 1_555 1_555
C28A N10A 1_555 1_555
C29A C26A 1_555 1_555
H24A C29A 1_555 1_555
C30A N12A 1_555 1_555
C31A N16A 1_555 1_555
C32A H25A 1_555 1_555
C33A C32A 1_555 1_555
H26A C33A 1_555 1_555
C34A C31A 1_555 1_555
H27A C34A 1_555 1_555
C35A N18A 1_555 1_555
C36A C32A 1_555 1_555
H28A C36A 1_555 1_555
Mo2 O18 1_555 1_555
Mo3 O11 1_555 1_555
Mo3 O19A 1_555 1_555
Mo4 O19 1_555 1_555
Mo5 O19 1_555 1_555
Mo6 O8 1_555 1_555
Mo6 O9 1_555 1_555
Mo6 O18 1_555 1_555
O19 Mo3A 1_555 1_555
N4 N5 1_555 1_555
N8 N9 1_555 1_555
N11 N12 1_555 1_555
N13 N14 1_555 1_555
C3 C4 1_555 1_555
C4 C5 1_555 1_555
C5 C6 1_555 1_555
C7 C12 1_555 1_555
C11 C12 1_555 1_555
C13 C18 1_555 1_555
C17 C18 1_555 1_555
C21 C23 1_555 1_555
C21 C24 1_555 1_555
C22 C23 1_555 1_555
C27 C28 1_555 1_555
C28 C30 1_555 1_555
C29 C30 1_555 1_555
C31 C35 1_555 1_555
C33 C35 1_555 1_555
C34 C36 1_555 1_555
Mo1A O7A 1_555 1_555
Mo1A O18A 1_555 1_555
Mo2A O4A 1_555 1_555
Mo2A O18A 1_555 1_555
Mo3A O3A 1_555 1_555
Mo3A O11A 1_555 1_555
Mo3A O15A 1_555 1_555
Mo4A O1A 1_555 1_555
Mo4A O13A 1_555 1_555
Mo4A O19A 1_555 1_555
Mo5A O6A 1_555 1_555
Mo5A O19A 1_555 1_555
Mo6A O8A 1_555 1_555
Mo6A O9A 1_555 1_555
Mo6A O18A 1_555 1_555
N4A N5A 1_555 1_555
N8A N9A 1_555 1_555
N11A N12A 1_555 1_555
N13A N14A 1_555 1_555
C3A C4A 1_555 1_555
C4A C5A 1_555 1_555
C5A C6A 1_555 1_555
C7A C12A 1_555 1_555
C11A C12A 1_555 1_555
C13A C18A 1_555 1_555
C17A C18A 1_555 1_555
C21A C23A 1_555 1_555
C21A C24A 1_555 1_555
C22A C23A 1_555 1_555
C27A C28A 1_555 1_555
C28A C30A 1_555 1_555
C29A C30A 1_555 1_555
C31A C35A 1_555 1_555
C33A C35A 1_555 1_555
C34A C36A 1_555 1_555

#END
