
#######################################################################
#
#                 Cambridge Crystallographic Data Centre
#                                CCDC 
#
#######################################################################
#
# If this CIF has been generated from an entry in the Cambridge 
# Structural Database, then it will include bibliographic, chemical, 
# crystal, experimental, refinement or atomic coordinate data resulting 
# from the CCDC's data processing and validation procedures.
#
#######################################################################

data_EXOLUY
_symmetry_cell_setting           monoclinic
_symmetry_space_group_name_H-M   'P 21/n'
_symmetry_Int_Tables_number      14
_space_group_name_Hall           '-P 2yn'
loop_
_symmetry_equiv_pos_site_id
_symmetry_equiv_pos_as_xyz
1 x,y,z
2 1/2+x,1/2-y,1/2+z
3 -x,-y,-z
4 1/2-x,1/2+y,1/2-z
_cell_length_a                   6.8184(3)
_cell_length_b                   19.5205(8)
_cell_length_c                   11.9253(5)
_cell_angle_alpha                90
_cell_angle_beta                 95.9040(10)
_cell_angle_gamma                90
_cell_volume                     1578.82
loop_
_atom_site_label
_atom_site_type_symbol
_atom_site_fract_x
_atom_site_fract_y
_atom_site_fract_z
Cu1 Cu 0.30440(4) 0.679362(12) 0.51908(2)
S1 S 0.80413(7) 0.73200(3) 0.51841(4)
O1 O 0.6368(2) 0.68762(8) 0.47460(13)
O2 O 0.7431(2) 0.77811(8) 0.60764(13)
O3 O 0.8645(2) 0.77405(8) 0.42397(13)
O4 O 0.9719(2) 0.68967(8) 0.56686(13)
O5 O 0.3725(3) 0.75028(9) 0.63306(14)
O6 O 0.2344(3) 0.74443(9) 0.39554(14)
C1 C 0.4525(3) 0.61209(11) 0.73463(18)
C2 C 0.4982(3) 0.55744(11) 0.80763(18)
C3 C 0.4499(3) 0.49219(11) 0.76710(18)
C4 C 0.3646(3) 0.48296(11) 0.65797(18)
C5 C 0.3273(3) 0.54007(10) 0.58945(17)
C6 C 0.2409(3) 0.53772(11) 0.47075(17)
C7 C 0.1781(3) 0.47815(11) 0.41392(19)
C8 C 0.0973(3) 0.48334(11) 0.30291(19)
C9 C 0.0818(3) 0.54671(12) 0.24952(18)
C10 C 0.1494(3) 0.60348(11) 0.31217(18)
C11 C 0.6022(4) 0.57134(14) 0.9226(2)
C12 C -0.0054(4) 0.55610(15) 0.1301(2)
N1 N 0.3692(3) 0.60386(9) 0.62914(15)
N2 N 0.2259(3) 0.59930(9) 0.41998(15)
H1 H 0.487(4) 0.6546(15) 0.757(2)
H2 H 0.476(4) 0.4558(15) 0.811(2)
H3 H 0.336(4) 0.4371(15) 0.628(2)
H4 H 0.183(4) 0.4413(17) 0.449(2)
H5 H 0.043(4) 0.4429(14) 0.258(2)
H6 H 0.141(4) 0.6465(13) 0.281(2)
H7 H 0.518(4) 0.5982(15) 0.965(2)
H8 H -0.051(6) 0.517(2) 0.094(3)
H9 H 0.484(5) 0.7679(16) 0.631(3)
H10 H 0.136(6) 0.7587(19) 0.401(3)
H13 H 0.733(5) 0.5951(16) 0.909(3)
H14 H -0.127(5) 0.5841(16) 0.128(2)
H15 H 0.298(5) 0.7724(18) 0.658(3)
H16 H 0.306(5) 0.7723(17) 0.375(3)
H19 H 0.638(5) 0.5309(17) 0.962(3)
H20 H 0.079(5) 0.5796(19) 0.086(3)
O4_2 O -0.0281(2) 0.68967(8) 0.56686(13)
Cu1_2 Cu 1.30440(4) 0.679362(12) 0.51908(2)
O7 O 0.1016(3) 0.82673(9) 0.72792(16)
H11 H 0.102(6) 0.8181(18) 0.787(3)
H17 H 0.022(5) 0.8141(18) 0.702(3)
O8 O 0.5028(3) 0.82698(9) 0.31016(16)
H12 H 0.594(5) 0.8141(16) 0.335(3)
H18 H 0.493(5) 0.8201(17) 0.250(3)
loop_
_geom_bond_atom_site_label_1
_geom_bond_atom_site_label_2
_geom_bond_site_symmetry_1
_geom_bond_site_symmetry_2
Cu1 O1 1_555 1_555
S1 O1 1_555 1_555
O2 S1 1_555 1_555
O3 S1 1_555 1_555
O4 S1 1_555 1_555
O5 Cu1 1_555 1_555
O6 Cu1 1_555 1_555
O7 H11 1_555 1_555
O8 H12 1_555 1_555
C1 C2 1_555 1_555
C2 C3 1_555 1_555
C3 C4 1_555 1_555
C4 C5 1_555 1_555
C5 C6 1_555 1_555
C6 C7 1_555 1_555
C7 C8 1_555 1_555
C8 C9 1_555 1_555
C9 C10 1_555 1_555
C10 N2 1_555 1_555
C11 C2 1_555 1_555
C12 C9 1_555 1_555
N1 Cu1 1_555 1_555
N2 Cu1 1_555 1_555
H1 C1 1_555 1_555
H2 C3 1_555 1_555
H3 C4 1_555 1_555
H4 C7 1_555 1_555
H5 C8 1_555 1_555
H6 C10 1_555 1_555
H7 C11 1_555 1_555
H8 C12 1_555 1_555
H9 O5 1_555 1_555
H10 O6 1_555 1_555
H13 C11 1_555 1_555
H14 C12 1_555 1_555
H15 O5 1_555 1_555
H16 O6 1_555 1_555
H17 O7 1_555 1_555
H18 O8 1_555 1_555
H19 C11 1_555 1_555
H20 C12 1_555 1_555
O4_2 Cu1 1_555 1_555
Cu1_2 O4 1_555 1_555
C1 N1 1_555 1_555
C5 N1 1_555 1_555
C6 N2 1_555 1_555

#END
