
#######################################################################
#
#                 Cambridge Crystallographic Data Centre
#                                CCDC 
#
#######################################################################
#
# If this CIF has been generated from an entry in the Cambridge 
# Structural Database, then it will include bibliographic, chemical, 
# crystal, experimental, refinement or atomic coordinate data resulting 
# from the CCDC's data processing and validation procedures.
#
#######################################################################

data_EXOLAF
_symmetry_cell_setting           triclinic
_symmetry_space_group_name_H-M   'P -1'
_symmetry_Int_Tables_number      2
_space_group_name_Hall           '-P 1'
loop_
_symmetry_equiv_pos_site_id
_symmetry_equiv_pos_as_xyz
1 x,y,z
2 -x,-y,-z
_cell_length_a                   12.0178(17)
_cell_length_b                   12.8451(18)
_cell_length_c                   14.644(2)
_cell_angle_alpha                95.655(2)
_cell_angle_beta                 108.956(2)
_cell_angle_gamma                116.063(2)
_cell_volume                     1841.52
loop_
_atom_site_label
_atom_site_type_symbol
_atom_site_fract_x
_atom_site_fract_y
_atom_site_fract_z
O12 O 0.103(3) -0.242(3) 0.895(2)
O14 O 0.038(3) -0.575(3) 0.941(2)
O16 O 0.098(3) -0.518(3) 0.632(2)
Cu1 Cu 0.5000 -0.5000 1.0000
Cu2 Cu 0.5769(3) -0.7183(3) 1.0466(2)
Cu3 Cu 0.3839(3) -0.1574(3) 1.1459(2)
Cu4 Cu 0.5000 -1.0000 1.0000
Si1 Si 0.0000 -1.0000 0.5000
W1 W -0.07434(11) -1.05074(10) 0.71113(7)
W2 W -0.34064(11) -1.09159(13) 0.36349(8)
W3 W -0.08614(10) -0.80984(10) 0.37087(8)
W4 W 0.19112(14) -0.76703(12) 0.73029(8)
W5 W -0.25765(12) -1.28667(11) 0.48319(9)
W6 W -0.15061(11) -0.85344(11) 0.58651(9)
O1 O 0.505(2) -0.6165(19) 1.0690(16)
O2 O -0.099(4) -0.946(4) 0.466(3)
O3 O -0.036(4) -1.090(4) 0.559(3)
O4 O -0.015(4) -0.948(4) 0.601(3)
O5 O 0.159(4) -0.879(4) 0.573(3)
O6 O 0.202(2) -0.193(2) 1.1626(15)
O7 O 0.232(3) -0.691(2) 0.6359(18)
O8 O 0.332(2) -0.945(2) 0.9100(16)
O9 O -0.108(3) -0.782(2) 0.4939(19)
O10 O 0.815(3) -0.574(3) 1.162(2)
O11 O -0.310(3) -0.987(2) 0.4793(18)
O13 O 0.094(3) -0.900(2) 0.776(2)
O15 O -0.162(2) -0.963(2) 0.6654(19)
O17 O 0.031(3) -0.752(2) 0.680(2)
O18 O 0.100(2) -0.701(2) 0.4544(17)
O19 O -0.350(3) -1.208(2) 0.4300(18)
O20 O 0.300(3) -0.835(2) 0.7301(18)
O21 O 0.038(2) -1.120(2) 0.7180(17)
O22 O -0.106(2) -1.071(3) 0.8117(17)
O23 O -0.124(3) -0.715(2) 0.3092(18)
O24 O -0.379(2) -1.419(2) 0.477(2)
O25 O -0.259(3) -0.949(2) 0.3176(18)
O26 O -0.229(2) -0.791(2) 0.6238(16)
O27 O 0.280(2) -0.6566(19) 0.8400(15)
O28 O -0.221(2) -1.190(2) 0.6102(16)
O29 O 0.4914(19) -0.1357(18) 1.2937(13)
O30 O 0.623(2) -0.8389(19) 0.9938(15)
N1 N 0.537(2) -0.806(2) 1.1436(17)
N2 N 0.497(2) -0.924(2) 1.1167(16)
N3 N 0.458(2) -0.982(2) 1.1812(16)
N4 N 0.400(3) -0.458(2) 1.0715(18)
N5 N 0.391(3) -0.356(2) 1.0604(18)
N6 N 0.350(3) -0.326(2) 1.1232(18)
C1 C 0.485(3) -0.896(3) 1.262(2)
C2 C 0.469(3) -0.908(3) 1.351(2)
H1 H 0.4341 -0.9820 1.3641
C3 C 0.507(3) -0.802(3) 1.418(2)
H2 H 0.5020 -0.8031 1.4797
C4 C 0.552(3) -0.693(3) 1.392(2)
H3 H 0.5702 -0.6262 1.4373
C5 C 0.574(3) -0.673(3) 1.307(2)
H4 H 0.6067 -0.5980 1.2943
C6 C 0.540(3) -0.782(3) 1.2427(19)
C7 C 0.355(3) -0.488(3) 1.142(2)
C8 C 0.325(3) -0.402(3) 1.178(2)
C9 C 0.277(3) -0.409(3) 1.253(2)
H5 H 0.2536 -0.3529 1.2728
C10 C 0.265(3) -0.502(3) 1.297(2)
H6 H 0.2383 -0.5064 1.3495
C11 C 0.292(3) -0.587(3) 1.264(2)
H7 H 0.2797 -0.6494 1.2945
C12 C 0.339(3) -0.587(3) 1.186(2)
H8 H 0.3582 -0.6459 1.1651
Cu1_2 Cu -0.5000 -1.5000 0.0000
Cu2A Cu 0.4231(3) -0.2817(3) 0.9534(2)
Cu2_2 Cu 0.5769(3) 0.2817(3) 1.0466(2)
Cu3A Cu 0.6161(3) -0.8426(3) 0.8541(2)
Cu3_2 Cu 0.3839(3) -1.1574(3) 1.1459(2)
Cu3_3 Cu -0.6161(3) -1.1574(3) 0.1459(2)
Cu4_2 Cu 0.5000 0.0000 1.0000
W1A W 0.07434(11) -0.94926(10) 0.28887(7)
W1A_2 W 1.07434(11) 0.05074(10) 1.28887(7)
W2A W 0.34064(11) -0.90841(13) 0.63651(8)
W2_2 W 0.65936(11) -0.09159(13) 1.36349(8)
W3A W 0.08614(10) -1.19016(10) 0.62913(8)
W4A W 0.80888(14) -0.23297(12) 1.26971(8)
W4A_2 W -0.19112(14) -1.23297(12) 0.26971(8)
W5A W 0.25765(12) -0.71333(11) 0.51681(9)
W5_2 W 0.74235(12) -0.28667(11) 1.48319(9)
W6A W 0.15061(11) -1.14656(11) 0.41349(9)
W6A_2 W 1.15061(11) -0.14656(11) 1.41349(9)
O1A O 0.495(2) -0.3835(19) 0.9310(16)
O2A O 0.099(4) -1.054(4) 0.534(3)
O3A O 0.036(4) -0.910(4) 0.441(3)
O4A O 0.015(4) -1.052(4) 0.399(3)
O4A_2 O 1.015(4) -0.052(4) 1.399(3)
O5A O -0.159(4) -1.121(4) 0.427(3)
O5A_2 O 0.841(4) -0.121(4) 1.427(3)
O6A O 0.798(2) -0.807(2) 0.8374(15)
O7A O 0.768(3) -0.309(2) 1.3641(18)
O7A_2 O -0.232(3) -1.309(2) 0.3641(18)
O8A O 0.668(2) -1.055(2) 1.0900(16)
O9A O 0.108(3) -1.218(2) 0.5061(19)
O10A O 0.185(3) -0.426(3) 0.838(2)
O11A O 0.310(3) -1.013(2) 0.5207(18)
O13A O 0.906(3) -0.100(2) 1.224(2)
O13A_2 O -0.094(3) -1.100(2) 0.224(2)
O15A O 0.162(2) -1.037(2) 0.3346(19)
O17A O 0.969(3) -0.248(2) 1.320(2)
O17A_2 O -0.031(3) -1.248(2) 0.320(2)
O18A O -0.100(2) -1.299(2) 0.5456(17)
O19A O 0.350(3) -0.792(2) 0.5700(18)
O20A O 0.700(3) -0.165(2) 1.2699(18)
O20A_2 O -0.300(3) -1.165(2) 0.2699(18)
O21A O -0.038(2) -0.880(2) 0.2820(17)
O22A O 0.106(2) -0.929(3) 0.1883(17)
O23A O 0.124(3) -1.285(2) 0.6908(18)
O24A O 0.379(2) -0.581(2) 0.523(2)
O25A O 0.259(3) -1.051(2) 0.6824(18)
O26A O 0.229(2) -1.209(2) 0.3762(16)
O27A O 0.720(2) -0.3434(19) 1.1600(15)
O27A_2 O -0.280(2) -1.3434(19) 0.1600(15)
O28A O 0.221(2) -0.810(2) 0.3898(16)
O29A O 0.5086(19) -0.8643(18) 0.7063(13)
O29_2 O -0.5086(19) -1.1357(18) 0.2937(13)
O30A O 0.377(2) -0.1611(19) 1.0062(15)
O30A_2 O 0.377(2) -1.1611(19) 1.0062(15)
N1_2 N 0.537(2) 0.194(2) 1.1436(17)
N1A N 0.463(2) -0.194(2) 0.8564(17)
N2_2 N 0.497(2) 0.076(2) 1.1167(16)
N2A N 0.503(2) -1.076(2) 0.8833(16)
N3_2 N 0.458(2) 0.018(2) 1.1812(16)
N3A N 0.542(2) -1.018(2) 0.8188(16)
N4A N 0.600(3) -0.542(2) 0.9285(18)
N5A N 0.609(3) -0.644(2) 0.9396(18)
N6A N 0.650(3) -0.674(2) 0.8768(18)
C1_2 C 0.485(3) 0.104(3) 1.262(2)
C2_2 C 0.469(3) 0.092(3) 1.351(2)
H1_2 H 0.4341 0.0180 1.3641
C3_2 C 0.507(3) 0.198(3) 1.418(2)
H2_2 H 0.5020 0.1969 1.4797
C4_2 C 0.552(3) 0.307(3) 1.392(2)
H3_2 H 0.5702 0.3738 1.4373
C5_2 C 0.574(3) 0.327(3) 1.307(2)
H4_2 H 0.6067 0.4020 1.2943
C6_2 C 0.540(3) 0.218(3) 1.2427(19)
C7A C 0.645(3) -0.512(3) 0.858(2)
C8A C 0.675(3) -0.598(3) 0.822(2)
C9A C 0.723(3) -0.591(3) 0.747(2)
H5A H 0.7464 -0.6471 0.7272
C10A C 0.735(3) -0.498(3) 0.703(2)
H6A H 0.7617 -0.4936 0.6505
C11A C 0.708(3) -0.413(3) 0.736(2)
H7A H 0.7203 -0.3506 0.7055
C12A C 0.661(3) -0.413(3) 0.814(2)
H8A H 0.6418 -0.3541 0.8349
loop_
_geom_bond_atom_site_label_1
_geom_bond_atom_site_label_2
_geom_bond_site_symmetry_1
_geom_bond_site_symmetry_2
Cu1 O1 1_555 1_555
Cu2 O1 1_555 1_555
Cu3 O6 1_555 1_555
Cu4 O8 1_555 1_555
Si1 O2 1_555 1_555
W1 O3 1_555 1_555
W2 O2 1_555 1_555
W3 O2 1_555 1_555
W4 O4 1_555 1_555
W5 O3 1_555 1_555
W6 O2 1_555 1_555
O2 O4 1_555 1_555
O3 Si1 1_555 1_555
O4 Si1 1_555 1_555
O5 Si1 1_555 1_555
O7 W4 1_555 1_555
O9 W3 1_555 1_555
O10 Cu2 1_555 1_555
O11 W2 1_555 1_555
O13 W1 1_555 1_555
O15 W1 1_555 1_555
O17 W4 1_555 1_555
O18 W3 1_555 1_555
O19 W2 1_555 1_555
O20 W4 1_555 1_555
O21 W1 1_555 1_555
O22 W1 1_555 1_555
O23 W3 1_555 1_555
O24 W5 1_555 1_555
O25 W2 1_555 1_555
O26 W6 1_555 1_555
O27 Cu1 1_555 1_555
O28 W1 1_555 1_555
O29 Cu3 1_555 1_555
O30 Cu2 1_555 1_555
N1 Cu2 1_555 1_555
N2 Cu4 1_555 1_555
N3 N2 1_555 1_555
N4 Cu1 1_555 1_555
N5 N4 1_555 1_555
N6 Cu3 1_555 1_555
C1 N3 1_555 1_555
C2 C1 1_555 1_555
H1 C2 1_555 1_555
C3 C2 1_555 1_555
H2 C3 1_555 1_555
C4 C3 1_555 1_555
H3 C4 1_555 1_555
C5 C4 1_555 1_555
H4 C5 1_555 1_555
C6 N1 1_555 1_555
C7 N4 1_555 1_555
C8 N6 1_555 1_555
C9 C8 1_555 1_555
H5 C9 1_555 1_555
C10 C9 1_555 1_555
H6 C10 1_555 1_555
C11 C10 1_555 1_555
H7 C11 1_555 1_555
C12 C7 1_555 1_555
H8 C12 1_555 1_555
Cu1_2 O27A_2 1_555 1_555
Cu2A N5 1_555 1_555
Cu2_2 N1_2 1_555 1_555
Cu3A O30 1_555 1_555
Cu3_2 N3 1_555 1_555
Cu3_3 O29_2 1_555 1_555
Cu4_2 O30A 1_555 1_555
W1A O3A 1_555 1_555
W1A_2 O4A_2 1_555 1_555
W2A O5 1_555 1_555
W2_2 O29 1_555 1_555
W3A O3 1_555 1_555
W4A O4A_2 1_555 1_555
W4A_2 O4A 1_555 1_555
W5A O5 1_555 1_555
W5_2 O5A_2 1_555 1_555
W6A O2A 1_555 1_555
W6A_2 O4A_2 1_555 1_555
O1A Cu1 1_555 1_555
O2A Si1 1_555 1_555
O3A Si1 1_555 1_555
O4A Si1 1_555 1_555
O5A Si1 1_555 1_555
O5A_2 W2_2 1_555 1_555
O6A Cu3A 1_555 1_555
O7A W4A 1_555 1_555
O7A_2 W5 1_555 1_555
O8A Cu4 1_555 1_555
O9A W3A 1_555 1_555
O10A Cu2A 1_555 1_555
O11A W2A 1_555 1_555
O13A W1A_2 1_555 1_555
O13A_2 W1A 1_555 1_555
O15A W1A 1_555 1_555
O17A W4A 1_555 1_555
O17A_2 W4A_2 1_555 1_555
O18A W5 1_555 1_555
O19A W2A 1_555 1_555
O20A W2_2 1_555 1_555
O20A_2 W2 1_555 1_555
O21A W3 1_555 1_555
O22A W1A 1_555 1_555
O23A W3A 1_555 1_555
O24A W5A 1_555 1_555
O25A W2A 1_555 1_555
O26A W6A 1_555 1_555
O27A Cu1 1_555 1_555
O27A_2 W4A_2 1_555 1_555
O28A W1A 1_555 1_555
O29A Cu3A 1_555 1_555
O29_2 W2 1_555 1_555
O30A Cu3 1_555 1_555
O30A_2 Cu4 1_555 1_555
N1_2 N2_2 1_555 1_555
N1A Cu2A 1_555 1_555
N2_2 Cu4_2 1_555 1_555
N2A Cu4 1_555 1_555
N3_2 Cu3 1_555 1_555
N3A Cu3A 1_555 1_555
N4A Cu1 1_555 1_555
N5A Cu2 1_555 1_555
N6A Cu3A 1_555 1_555
C1_2 N3_2 1_555 1_555
C2_2 C1_2 1_555 1_555
H1_2 C2_2 1_555 1_555
C3_2 C2_2 1_555 1_555
H2_2 C3_2 1_555 1_555
C4_2 C3_2 1_555 1_555
H3_2 C4_2 1_555 1_555
C5_2 C4_2 1_555 1_555
H4_2 C5_2 1_555 1_555
C6_2 N1_2 1_555 1_555
C7A N4A 1_555 1_555
C8A N6A 1_555 1_555
C9A C8A 1_555 1_555
H5A C9A 1_555 1_555
C10A C9A 1_555 1_555
H6A C10A 1_555 1_555
C11A C10A 1_555 1_555
H7A C11A 1_555 1_555
C12A C7A 1_555 1_555
H8A C12A 1_555 1_555
Cu4 O30 1_555 1_555
W1 O4 1_555 1_555
W2 O5A 1_555 1_555
W3 O25 1_555 1_555
W3 O3A 1_555 1_555
W4 O5 1_555 1_555
W4 O13 1_555 1_555
W4 O27 1_555 1_555
W5 O19 1_555 1_555
W5 O28 1_555 1_555
W5 O5A 1_555 1_555
W6 O4 1_555 1_555
W6 O9 1_555 1_555
W6 O11 1_555 1_555
W6 O15 1_555 1_555
W6 O17 1_555 1_555
O2 O3A 1_555 1_555
O2 O5A 1_555 1_555
O3 O4 1_555 1_555
O3 O2A 1_555 1_555
O3 O5A 1_555 1_555
O5 O2A 1_555 1_555
O5 O3A 1_555 1_555
O7 W5A 1_555 1_555
O18 W5A 1_555 1_555
O20 W2A 1_555 1_555
O21 W3A 1_555 1_555
N1 N2 1_555 1_555
N5 N6 1_555 1_555
C1 C6 1_555 1_555
C5 C6 1_555 1_555
C7 C8 1_555 1_555
C11 C12 1_555 1_555
Cu2A O1A 1_555 1_555
Cu2A O30A 1_555 1_555
Cu3_2 O30A_2 1_555 1_555
W1A O4A 1_555 1_555
W1A O21A 1_555 1_555
W2A O2A 1_555 1_555
W2A O29A 1_555 1_555
W3A O2A 1_555 1_555
W3A O18A 1_555 1_555
W3A O25A 1_555 1_555
W4A O5A_2 1_555 1_555
W4A O13A 1_555 1_555
W4A O20A 1_555 1_555
W4A O27A 1_555 1_555
W4A_2 O5A 1_555 1_555
W4A_2 O7A_2 1_555 1_555
W4A_2 O13A_2 1_555 1_555
W4A_2 O20A_2 1_555 1_555
W5A O3A 1_555 1_555
W5A O19A 1_555 1_555
W5A O28A 1_555 1_555
W5_2 O7A 1_555 1_555
W6A O4A 1_555 1_555
W6A O9A 1_555 1_555
W6A O11A 1_555 1_555
W6A O15A 1_555 1_555
W6A O17A_2 1_555 1_555
W6A_2 O17A 1_555 1_555
O2A O4A 1_555 1_555
O3A O4A 1_555 1_555
N2_2 N3_2 1_555 1_555
N2A N3A 1_555 1_555
N4A N5A 1_555 1_555
N5A N6A 1_555 1_555
C1_2 C6_2 1_555 1_555
C5_2 C6_2 1_555 1_555
C7A C8A 1_555 1_555
C11A C12A 1_555 1_555

#END
