
#######################################################################
#
#                 Cambridge Crystallographic Data Centre
#                                CCDC 
#
#######################################################################
#
# If this CIF has been generated from an entry in the Cambridge 
# Structural Database, then it will include bibliographic, chemical, 
# crystal, experimental, refinement or atomic coordinate data resulting 
# from the CCDC's data processing and validation procedures.
#
#######################################################################

data_EXOMIO
_symmetry_cell_setting           triclinic
_symmetry_space_group_name_H-M   'P -1'
_symmetry_Int_Tables_number      2
_space_group_name_Hall           '-P 1'
loop_
_symmetry_equiv_pos_site_id
_symmetry_equiv_pos_as_xyz
1 x,y,z
2 -x,-y,-z
_cell_length_a                   13.031(3)
_cell_length_b                   14.668(3)
_cell_length_c                   14.887(3)
_cell_angle_alpha                101.44(3)
_cell_angle_beta                 112.36(3)
_cell_angle_gamma                102.56(3)
_cell_volume                     2440.87
loop_
_atom_site_label
_atom_site_type_symbol
_atom_site_fract_x
_atom_site_fract_y
_atom_site_fract_z
Cu1 Cu 0.15139(6) 0.51974(4) 0.28609(5)
Cu2 Cu -0.11001(6) -0.05165(4) 0.17705(5)
C1 C 0.1116(5) 0.6214(4) 0.6511(4)
C2 C -0.0794(5) 0.0595(3) 0.4073(4)
C3 C -0.0153(4) 0.1133(3) 0.3633(4)
H1 H 0.0373 0.1758 0.4033
C4 C -0.1553(5) -0.0426(4) 0.3538(4)
C5 C 0.1666(5) 0.5464(4) 0.4905(4)
C6 C 0.0636(5) 0.6386(4) 0.5569(4)
H2 H 0.0118 0.6745 0.5475
C7 C 0.2937(5) 0.3763(4) 0.2786(4)
C8 C -0.0657(5) 0.1017(4) 0.5022(4)
H3 H -0.0131 0.1650 0.5379
C9 C -0.1261(5) 0.0557(4) 0.5503(4)
C10 C 0.0378(5) 0.6287(4) 0.3839(4)
H4 H -0.0148 0.6636 0.3783
C11 C 0.0233(5) 0.0943(4) 0.1506(4)
C12 C 0.1864(5) 0.5639(4) 0.6628(4)
C13 C 0.0325(5) 0.5994(4) 0.1518(4)
C14 C 0.0894(5) 0.6051(3) 0.4777(4)
C15 C -0.1999(5) -0.0419(4) 0.4981(4)
C16 C 0.2682(5) 0.2806(4) 0.2273(4)
C17 C -0.0069(5) 0.6335(4) 0.0590(4)
H5 H 0.0611 0.6763 0.0589
H6 H -0.0422 0.5768 -0.0018
C18 C 0.0776(5) 0.1511(4) 0.0962(4)
H7 H 0.1231 0.1162 0.0737
H8 H 0.0156 0.1543 0.0359
C19 C -0.2424(5) 0.7302(4) 0.0407(4)
C20 C 0.0865(5) 0.6581(4) 0.7338(4)
H9 H 0.0377 0.6965 0.7282
C21 C 0.2345(5) 0.5423(4) 0.7544(4)
H10 H 0.2826 0.5032 0.7622
C22 C 0.2091(5) 0.5800(5) 0.8320(4)
H11 H 0.2427 0.5675 0.8937
C23 C -0.2084(5) 0.6501(4) 0.0114(4)
C24 C -0.1762(6) 0.0492(5) 0.6891(5)
H12 H -0.1680 0.0786 0.7539
C25 C -0.1160(5) 0.1010(4) 0.6484(4)
H13 H -0.0683 0.1658 0.6846
C26 C 0.1368(6) 0.6349(4) 0.8225(4)
H14 H 0.1206 0.6576 0.8770
C27 C -0.2624(5) -0.0929(4) 0.5407(4)
H15 H -0.3121 -0.1573 0.5053
C28 C 0.3519(6) 0.2331(5) 0.2465(5)
H16 H 0.3343 0.1679 0.2100
C29 C 0.4053(6) 0.4333(5) 0.3550(5)
H17 H 0.4229 0.4992 0.3894
C30 C -0.2492(6) -0.0460(5) 0.6360(5)
H18 H -0.2905 -0.0794 0.6652
C31 C 0.4876(6) 0.3858(5) 0.3762(6)
H19 H 0.5628 0.4199 0.4281
C32 C -0.2882(7) 0.5589(5) -0.0519(5)
H20 H -0.2650 0.5053 -0.0702
C33 C 0.4614(7) 0.2873(6) 0.3217(6)
H21 H 0.5201 0.2584 0.3373
C34 C -0.3581(7) 0.7220(5) 0.0092(6)
H22 H -0.3816 0.7746 0.0302
C35 C -0.4003(9) 0.5530(6) -0.0848(7)
H23 H -0.4570 0.4936 -0.1298
C36 C -0.4377(7) 0.6319(7) -0.0552(7)
H24 H -0.5175 0.6230 -0.0796
C37 C 0.3683(9) 0.7227(7) 0.3977(8)
H25 H 0.3240 0.7654 0.3764
H26 H 0.4476 0.7514 0.4091
H27 H 0.3681 0.7140 0.4598
H28 H -0.322(5) -0.006(5) 0.105(4)
N1 N -0.0262(4) 0.0806(3) 0.2736(3)
N2 N 0.0372(4) 0.1441(3) 0.2404(3)
N3 N -0.1418(4) 0.8090(3) 0.1007(3)
N4 N -0.0501(4) 0.7811(3) 0.1084(3)
N5 N -0.0909(4) 0.6858(3) 0.0545(3)
N6 N 0.0616(4) 0.6035(3) 0.3075(3)
N7 N 0.0076(4) 0.6367(3) 0.2254(3)
N8 N 0.2091(4) 0.5292(3) 0.5817(3)
H29 H 0.2542 0.4935 0.5895
N9 N 0.1920(4) 0.4014(3) 0.2417(3)
N10 N 0.1082(4) 0.3238(3) 0.1701(3)
N11 N 0.1533(4) 0.2508(3) 0.1611(3)
N12 N -0.2096(4) -0.0857(3) 0.4028(3)
H30 H -0.2542 -0.1459 0.3721
O1 O -0.1717(3) -0.0933(2) 0.2673(3)
O2 O -0.0333(3) 0.0044(2) 0.1024(3)
O3 O 0.1979(3) 0.5091(3) 0.4253(3)
O4 O 0.0909(3) 0.5393(3) 0.1520(2)
O10 O -0.2812(5) -0.0343(4) 0.0799(4)
H31 H -0.2825 -0.0303 0.0253
O11 O 0.3206(4) 0.6366(3) 0.3258(4)
Cu2_2 Cu -0.11001(6) 0.94835(4) 0.17705(5)
N3_2 N -0.1418(4) -0.1910(3) 0.1007(3)
N13 N 0.7057(5) 0.6668(4) 0.3711(4)
O7 O 0.6517(4) 0.7178(3) 0.3258(4)
O8 O 0.6456(4) 0.5847(3) 0.3641(4)
O9 O 0.8125(4) 0.6965(3) 0.4184(4)
N14 N 0.2618(11) 0.9025(9) 0.0900(8)
O5 O 0.2041(11) 0.8480(8) 0.0144(9)
O6 O 0.2947(13) 0.8704(10) 0.1589(10)
O12 O 0.2898(10) 0.9864(7) 0.1030(7)
loop_
_geom_bond_atom_site_label_1
_geom_bond_atom_site_label_2
_geom_bond_site_symmetry_1
_geom_bond_site_symmetry_2
Cu1 N6 1_555 1_555
Cu2 N1 1_555 1_555
C1 C6 1_555 1_555
C2 C3 1_555 1_555
C3 H1 1_555 1_555
C4 C2 1_555 1_555
C5 C14 1_555 1_555
C6 H2 1_555 1_555
C7 C16 1_555 1_555
C8 C2 1_555 1_555
H3 C8 1_555 1_555
C9 C8 1_555 1_555
C10 H4 1_555 1_555
C11 C18 1_555 1_555
C12 C1 1_555 1_555
C13 C17 1_555 1_555
C14 C6 1_555 1_555
C15 C9 1_555 1_555
C16 C28 1_555 1_555
C17 H5 1_555 1_555
H6 C17 1_555 1_555
C18 H7 1_555 1_555
H8 C18 1_555 1_555
C19 C23 1_555 1_555
C20 C1 1_555 1_555
H9 C20 1_555 1_555
C21 C12 1_555 1_555
H10 C21 1_555 1_555
C22 C21 1_555 1_555
H11 C22 1_555 1_555
C23 C32 1_555 1_555
C24 H12 1_555 1_555
C25 C9 1_555 1_555
H13 C25 1_555 1_555
C26 C20 1_555 1_555
H14 C26 1_555 1_555
C27 C15 1_555 1_555
H15 C27 1_555 1_555
C28 H16 1_555 1_555
C29 C7 1_555 1_555
H17 C29 1_555 1_555
C30 C24 1_555 1_555
H18 C30 1_555 1_555
C31 C29 1_555 1_555
H19 C31 1_555 1_555
C32 H20 1_555 1_555
C33 C28 1_555 1_555
H21 C33 1_555 1_555
C34 C19 1_555 1_555
H22 C34 1_555 1_555
C35 C32 1_555 1_555
H23 C35 1_555 1_555
C36 C34 1_555 1_555
H24 C36 1_555 1_555
C37 H25 1_555 1_555
H26 C37 1_555 1_555
H27 C37 1_555 1_555
H28 O10 1_555 1_555
N1 C3 1_555 1_555
N2 C11 1_555 1_555
N3 C19 1_555 1_555
N4 N3 1_555 1_555
N5 C17 1_555 1_555
N6 C10 1_555 1_555
N7 C13 1_555 1_555
N8 C5 1_555 1_555
H29 N8 1_555 1_555
N9 Cu1 1_555 1_555
N10 N9 1_555 1_555
N11 C16 1_555 1_555
N12 C4 1_555 1_555
H30 N12 1_555 1_555
N13 O7 1_555 1_555
N14 O5 1_555 1_555
O1 Cu2 1_555 1_555
O2 Cu2 1_555 1_555
O3 Cu1 1_555 1_555
O4 Cu1 1_555 1_555
O6 N14 1_555 1_555
O8 N13 1_555 1_555
O9 N13 1_555 1_555
O10 Cu2 1_555 1_555
H31 O10 1_555 1_555
O11 Cu1 1_555 1_555
O12 N14 1_555 1_555
Cu2_2 N3 1_555 1_555
N3_2 Cu2 1_555 1_555
C4 O1 1_555 1_555
C5 O3 1_555 1_555
C7 N9 1_555 1_555
C10 C14 1_555 1_555
C11 O2 1_555 1_555
C12 N8 1_555 1_555
C13 O4 1_555 1_555
C15 N12 1_555 1_555
C18 N11 1_555 1_555
C22 C26 1_555 1_555
C23 N5 1_555 1_555
C24 C25 1_555 1_555
C27 C30 1_555 1_555
C31 C33 1_555 1_555
C35 C36 1_555 1_555
C37 O11 1_555 1_555
N1 N2 1_555 1_555
N4 N5 1_555 1_555
N6 N7 1_555 1_555
N10 N11 1_555 1_555

#END
