
#######################################################################
#
#                 Cambridge Crystallographic Data Centre
#                                CCDC 
#
#######################################################################
#
# If this CIF has been generated from an entry in the Cambridge 
# Structural Database, then it will include bibliographic, chemical, 
# crystal, experimental, refinement or atomic coordinate data resulting 
# from the CCDC's data processing and validation procedures.
#
#######################################################################

data_EXOMAF
_symmetry_cell_setting           triclinic
_symmetry_space_group_name_H-M   'P -1'
_symmetry_Int_Tables_number      2
_space_group_name_Hall           '-P 1'
loop_
_symmetry_equiv_pos_site_id
_symmetry_equiv_pos_as_xyz
1 x,y,z
2 -x,-y,-z
_cell_length_a                   10.8431(4)
_cell_length_b                   11.9920(4)
_cell_length_c                   12.8810(5)
_cell_angle_alpha                98.541(1)
_cell_angle_beta                 113.472(1)
_cell_angle_gamma                111.684(1)
_cell_volume                     1338.96
loop_
_atom_site_label
_atom_site_type_symbol
_atom_site_fract_x
_atom_site_fract_y
_atom_site_fract_z
Mo1 Mo 0.86480(3) 0.65045(2) 0.11531(2)
Mo2 Mo 1.07043(3) 0.65469(2) -0.01244(2)
Mo3 Mo 1.15585(3) 0.64244(2) 0.31557(2)
Mo4 Mo 0.70704(3) 0.50620(2) -0.20399(2)
Cu1 Cu 0.53389(4) 0.37942(3) -0.05428(3)
O1 O 0.6662(2) 0.55499(18) 0.05756(17)
O2 O 0.8987(2) 0.79787(19) 0.18163(18)
O3 O 0.9372(2) 0.59147(19) 0.24003(17)
O4 O 1.1706(2) 0.5703(2) 0.42024(18)
O5 O 1.2313(2) 0.79902(19) 0.39486(18)
O6 O 1.3262(2) 0.64957(19) 0.29184(17)
O7 O 0.6605(2) 0.5802(2) -0.30301(18)
O8 O 0.5532(2) 0.44924(19) -0.17560(17)
O9 O 1.1754(2) 0.79594(19) -0.01904(18)
O10 O 0.9246(2) 0.54568(18) -0.17268(17)
O11 O 1.1805(2) 0.57460(19) 0.01512(18)
O12 O 0.8531(2) 0.64923(18) -0.04387(17)
O13 O 1.0789(2) 0.68832(18) 0.13823(17)
N1 N 0.5144(3) 0.3035(2) 0.0659(2)
N2 N 0.3983(3) 0.2021(2) -0.1651(2)
C1 C 0.5770(3) 0.3640(3) 0.1840(3)
C2 C 0.5364(3) 0.3053(3) 0.2578(2)
C3 C 0.4283(3) 0.1767(3) 0.2106(2)
C4 C 0.3685(3) 0.1129(3) 0.0877(3)
C5 C 0.4115(3) 0.1773(3) 0.0181(2)
C6 C 0.3474(3) 0.1189(3) -0.1132(2)
C7 C 0.2408(3) -0.0078(3) -0.1799(3)
C8 C 0.1783(3) -0.0539(3) -0.3049(2)
C9 C 0.2346(3) 0.0331(3) -0.3564(3)
C10 C 0.3437(3) 0.1581(3) -0.2846(3)
C11 C 0.3746(3) 0.1026(3) 0.2835(2)
C12 C 0.4435(4) 0.0107(3) 0.3013(3)
C13 C 0.1998(4) 0.0262(3) 0.2148(3)
C14 C 0.4261(4) 0.1917(3) 0.4080(3)
C15 C 0.0586(3) -0.1933(3) -0.3771(2)
C16 C -0.0235(4) -0.2165(3) -0.5125(3)
C17 C -0.0619(4) -0.2323(3) -0.3377(3)
C18 C 0.1396(4) -0.2755(3) -0.3542(3)
H1 H 0.645(4) 0.446(3) 0.217(3)
H2 H 0.583(4) 0.349(3) 0.334(3)
H3 H 0.295(4) 0.019(3) 0.049(3)
H4 H 0.211(4) -0.057(3) -0.143(3)
H5 H 0.206(4) 0.010(4) -0.438(3)
H6 H 0.386(3) 0.219(3) -0.318(3)
H7 H 0.391(4) 0.256(4) 0.400(3)
H8 H 0.539(4) 0.245(3) 0.462(3)
H9 H 0.398(4) 0.143(3) 0.451(3)
H10 H 0.420(4) -0.047(3) 0.219(3)
H11 H 0.399(4) -0.038(4) 0.341(3)
H12 H 0.554(4) 0.063(4) 0.350(3)
H13 H 0.042(4) -0.202(3) -0.547(3)
H14 H -0.070(4) -0.166(3) -0.529(3)
H15 H -0.090(5) -0.301(4) -0.554(4)
H16 H -0.130(4) -0.315(4) -0.381(3)
H17 H -0.019(4) -0.224(3) -0.257(3)
H18 H -0.113(4) -0.180(4) -0.347(3)
H19 H 0.076(4) -0.360(3) -0.392(3)
H20 H 0.223(4) -0.247(4) -0.378(3)
H21 H 0.189(5) -0.261(4) -0.275(4)
H22 H 0.164(4) 0.081(3) 0.199(3)
H23 H 0.160(4) -0.035(4) 0.142(3)
H24 H 0.164(4) -0.014(3) 0.258(3)
O10A O 1.0754(2) 0.45432(18) 0.17268(17)
O6A O 0.6738(2) 0.35043(19) -0.29184(17)
O1A O 0.3338(2) 0.44501(18) -0.05756(17)
Cu1A Cu 0.46611(4) 0.62058(3) 0.05428(3)
Mo4A Mo 1.29296(3) 0.49380(2) 0.20399(2)
Mo3A Mo 0.84415(3) 0.35756(2) -0.31557(2)
loop_
_geom_bond_atom_site_label_1
_geom_bond_atom_site_label_2
_geom_bond_site_symmetry_1
_geom_bond_site_symmetry_2
Mo1 O1 1_555 1_555
Mo2 O9 1_555 1_555
Mo3 O3 1_555 1_555
Mo4 O7 1_555 1_555
Cu1 O1 1_555 1_555
O1 Cu1A 1_555 1_555
O2 Mo1 1_555 1_555
O3 Mo1 1_555 1_555
O4 Mo3 1_555 1_555
O5 Mo3 1_555 1_555
O6 Mo3 1_555 1_555
O8 Mo4 1_555 1_555
O10 Mo2 1_555 1_555
O11 Mo2 1_555 1_555
O12 Mo1 1_555 1_555
O13 Mo1 1_555 1_555
N1 Cu1 1_555 1_555
N2 Cu1 1_555 1_555
C1 N1 1_555 1_555
C2 C1 1_555 1_555
C3 C2 1_555 1_555
C4 C3 1_555 1_555
C5 N1 1_555 1_555
C6 N2 1_555 1_555
C7 C6 1_555 1_555
C8 C7 1_555 1_555
C9 C8 1_555 1_555
C10 N2 1_555 1_555
C11 C3 1_555 1_555
C12 C11 1_555 1_555
C13 C11 1_555 1_555
C14 C11 1_555 1_555
C15 C8 1_555 1_555
C16 C15 1_555 1_555
C17 C15 1_555 1_555
C18 C15 1_555 1_555
H1 C1 1_555 1_555
H2 C2 1_555 1_555
H3 C4 1_555 1_555
H4 C7 1_555 1_555
H5 C9 1_555 1_555
H6 C10 1_555 1_555
H7 C14 1_555 1_555
H8 C14 1_555 1_555
H9 C14 1_555 1_555
H10 C12 1_555 1_555
H11 C12 1_555 1_555
H12 C12 1_555 1_555
H13 C16 1_555 1_555
H14 C16 1_555 1_555
H15 C16 1_555 1_555
H16 C17 1_555 1_555
H17 C17 1_555 1_555
H18 C17 1_555 1_555
H19 C18 1_555 1_555
H20 C18 1_555 1_555
H21 C18 1_555 1_555
H22 C13 1_555 1_555
H23 C13 1_555 1_555
H24 C13 1_555 1_555
O10A Mo3 1_555 1_555
O6A Mo4 1_555 1_555
O1A Cu1 1_555 1_555
Cu1A O1A 1_555 1_555
Mo4A O6 1_555 1_555
Mo3A O10 1_555 1_555
Mo2 O12 1_555 1_555
Mo2 O13 1_555 1_555
Mo3 O13 1_555 1_555
Mo4 O12 1_555 1_555
Mo4 O10 1_555 1_555
Cu1 O8 1_555 1_555
C4 C5 1_555 1_555
C5 C6 1_555 1_555
C9 C10 1_555 1_555
O10A Mo4A 1_555 1_555
O6A Mo3A 1_555 1_555

#END
