
#######################################################################
#
#                 Cambridge Crystallographic Data Centre
#                                CCDC 
#
#######################################################################
#
# If this CIF has been generated from an entry in the Cambridge 
# Structural Database, then it will include bibliographic, chemical, 
# crystal, experimental, refinement or atomic coordinate data resulting 
# from the CCDC's data processing and validation procedures.
#
#######################################################################

data_EXONIO
_symmetry_cell_setting           triclinic
_symmetry_space_group_name_H-M   'P -1'
_symmetry_Int_Tables_number      2
_space_group_name_Hall           '-P 1'
loop_
_symmetry_equiv_pos_site_id
_symmetry_equiv_pos_as_xyz
1 x,y,z
2 -x,-y,-z
_cell_length_a                   7.7354(15)
_cell_length_b                   8.3185(17)
_cell_length_c                   9.1375(18)
_cell_angle_alpha                78.40(3)
_cell_angle_beta                 84.66(3)
_cell_angle_gamma                81.18(3)
_cell_volume                     567.973
loop_
_atom_site_label
_atom_site_type_symbol
_atom_site_fract_x
_atom_site_fract_y
_atom_site_fract_z
Mn1 Mn 0.5000 0.5000 0.0000
O1 O 0.27505(19) 0.6020(2) -0.14096(17)
H1 H 0.2915 0.6726 -0.2287
H2 H 0.1814 0.5983 -0.1268
O2 O 0.4671(2) 0.24910(18) -0.02385(17)
H3 H 0.5132 0.1978 -0.0898
H4 H 0.4404 0.1929 0.0460
O3 O 0.34944(18) 0.46195(19) 0.20595(14)
O4 O 0.10006(19) 0.3916(2) 0.14963(15)
C1 C 0.2079(2) 0.4015(2) 0.23699(19)
C2 C 0.1671(2) 0.3395(2) 0.40375(18)
C3 C 0.0265(3) 0.2545(3) 0.4506(2)
H5 H -0.0386 0.2275 0.3807
C4 C -0.0175(3) 0.2098(3) 0.6005(2)
H6 H -0.1128 0.1527 0.6317
N1 N 0.0755(2) 0.24771(19) 0.70255(15)
C5 C 0.2176(3) 0.3232(3) 0.6606(2)
H7 H 0.2845 0.3437 0.7325
C6 C 0.2651(3) 0.3706(3) 0.5107(2)
H8 H 0.3636 0.4237 0.4817
C7 C 0.0168(3) 0.2046(2) 0.8639(2)
H9 H -0.1060 0.2483 0.8777
H10 H 0.0832 0.2560 0.9222
C8 C 0.0412(3) 0.0187(2) 0.92045(19)
H11 H 0.1651 -0.0239 0.9192
H12 H -0.0139 -0.0349 0.8558
C8A C -0.0412(3) -0.0187(2) 1.07955(19)
C7A C -0.0168(3) -0.2046(2) 1.1361(2)
N1A N -0.0755(2) -0.24771(19) 1.29745(15)
C4A C 0.0175(3) -0.2098(3) 1.3995(2)
C3A C -0.0265(3) -0.2545(3) 1.5494(2)
C2A C -0.1671(2) -0.3395(2) 1.59625(18)
C1A C -0.2079(2) -0.4015(2) 1.76301(19)
O3A O -0.34944(18) -0.46195(19) 1.79405(14)
O4A O -0.10006(19) -0.3916(2) 1.85037(15)
C6A C -0.2651(3) -0.3706(3) 1.4893(2)
C5A C -0.2176(3) -0.3232(3) 1.3394(2)
H7A H -0.2845 -0.3437 1.2675
H8A H -0.3636 -0.4237 1.5183
H5A H 0.0386 -0.2275 1.6193
H6A H 0.1128 -0.1527 1.3683
H9A H 0.1060 -0.2483 1.1223
H10A H -0.0832 -0.2560 1.0778
H11A H -0.1651 0.0239 1.0808
H12A H 0.0139 0.0349 1.1442
O1A O 0.72495(19) 0.3980(2) 0.14096(17)
H1A H 0.7085 0.3274 0.2287
H2A H 0.8186 0.4017 0.1268
O2A O 0.5329(2) 0.75090(18) 0.02385(17)
H3A H 0.4868 0.8022 0.0898
H4A H 0.5596 0.8071 -0.0460
O3A_2 O 0.65056(18) 0.53805(19) -0.20595(14)
Mn1_2 Mn -0.5000 -0.5000 2.0000
O5 O 0.3243(2) 0.8685(3) 0.62238(19)
H13 H 0.3992 0.9048 0.6551
H14 H 0.3495 0.8726 0.5385
Cl1 Cl 0.39121(7) 0.96884(7) 0.25710(6)
loop_
_geom_bond_atom_site_label_1
_geom_bond_atom_site_label_2
_geom_bond_site_symmetry_1
_geom_bond_site_symmetry_2
Mn1 O1 1_555 1_555
O1 H1 1_555 1_555
H2 O1 1_555 1_555
O2 Mn1 1_555 1_555
H3 O2 1_555 1_555
H4 O2 1_555 1_555
O3 Mn1 1_555 1_555
O4 C1 1_555 1_555
C1 O3 1_555 1_555
C2 C1 1_555 1_555
C3 C2 1_555 1_555
H5 C3 1_555 1_555
C4 C3 1_555 1_555
H6 C4 1_555 1_555
N1 C4 1_555 1_555
C5 N1 1_555 1_555
H7 C5 1_555 1_555
C6 C2 1_555 1_555
H8 C6 1_555 1_555
C7 N1 1_555 1_555
H9 C7 1_555 1_555
H10 C7 1_555 1_555
C8 C7 1_555 1_555
H11 C8 1_555 1_555
H12 C8 1_555 1_555
O5 H13 1_555 1_555
H14 O5 1_555 1_555
C8A C8 1_555 1_555
C7A C8A 1_555 1_555
N1A C7A 1_555 1_555
C4A N1A 1_555 1_555
C3A C4A 1_555 1_555
C2A C3A 1_555 1_555
C1A C2A 1_555 1_555
O3A C1A 1_555 1_555
O4A C1A 1_555 1_555
C6A C2A 1_555 1_555
C5A N1A 1_555 1_555
H7A C5A 1_555 1_555
H8A C6A 1_555 1_555
H5A C3A 1_555 1_555
H6A C4A 1_555 1_555
H9A C7A 1_555 1_555
H10A C7A 1_555 1_555
H11A C8A 1_555 1_555
H12A C8A 1_555 1_555
O1A Mn1 1_555 1_555
H1A O1A 1_555 1_555
H2A O1A 1_555 1_555
O2A Mn1 1_555 1_555
H3A O2A 1_555 1_555
H4A O2A 1_555 1_555
O3A_2 Mn1 1_555 1_555
Mn1_2 O3A 1_555 1_555
C5 C6 1_555 1_555
C6A C5A 1_555 1_555

#END
