
#######################################################################
#
#                 Cambridge Crystallographic Data Centre
#                                CCDC 
#
#######################################################################
#
# If this CIF has been generated from an entry in the Cambridge 
# Structural Database, then it will include bibliographic, chemical, 
# crystal, experimental, refinement or atomic coordinate data resulting 
# from the CCDC's data processing and validation procedures.
#
#######################################################################

data_EXONIP
_symmetry_cell_setting           monoclinic
_symmetry_space_group_name_H-M   'P 21/c'
_symmetry_Int_Tables_number      14
_space_group_name_Hall           '-P 2ybc'
loop_
_symmetry_equiv_pos_site_id
_symmetry_equiv_pos_as_xyz
1 x,y,z
2 -x,1/2+y,1/2-z
3 -x,-y,-z
4 x,1/2-y,1/2+z
_cell_length_a                   8.1393(4)
_cell_length_b                   20.4050(9)
_cell_length_c                   8.4085(4)
_cell_angle_alpha                90
_cell_angle_beta                 105.284(5)
_cell_angle_gamma                90
_cell_volume                     1347.11
loop_
_atom_site_label
_atom_site_type_symbol
_atom_site_fract_x
_atom_site_fract_y
_atom_site_fract_z
K1 K 0.03521(13) 0.41987(5) -0.11814(13)
Pt1 Pt 0.5000 0.5000 0.5000
C1 C 0.3131(6) 0.48562(19) 0.2959(6)
C2 C 0.3514(6) 0.4688(3) 0.6375(6)
C3 C -0.3364(6) 0.3822(3) 0.0324(6)
H1 H -0.3404 0.4277 0.0257
C4 C -0.4587(6) 0.3500(3) 0.0930(6)
H2 H -0.5405 0.3737 0.1275
C5 C -0.4566(6) 0.2838(3) 0.1008(6)
H3 H -0.5376 0.2618 0.1407
C6 C -0.3329(6) 0.2482(2) 0.0490(5)
C7 C -0.2127(5) 0.2846(2) -0.0086(5)
C8 C -0.3237(7) 0.1779(3) 0.0524(6)
H4 H -0.4015 0.1539 0.0923
C9 C -0.2036(7) 0.1464(2) -0.0015(6)
H5 H -0.2019 0.1009 -0.0007
C10 C -0.0796(6) 0.1807(2) -0.0595(5)
C11 C -0.0820(5) 0.2501(2) -0.0622(5)
C12 C 0.0483(7) 0.1488(3) -0.1132(6)
H6 H 0.0537 0.1032 -0.1124
C13 C 0.1638(7) 0.1841(3) -0.1661(6)
H7 H 0.2492 0.1633 -0.2020
C14 C 0.1528(6) 0.2524(3) -0.1659(6)
H8 H 0.2323 0.2762 -0.2036
N1 N 0.2062(5) 0.4774(2) 0.1793(5)
N2 N 0.2645(6) 0.4512(3) 0.7147(6)
N3 N -0.2152(4) 0.35108(17) -0.0161(4)
N4 N 0.0348(4) 0.28519(17) -0.1149(4)
K1B K 0.96479(13) 0.58013(5) 1.11814(13)
K1B_2 K -0.03521(13) 0.58013(5) 0.11814(13)
K1_2 K 0.03521(13) 0.41987(5) 0.88186(13)
K1_3 K 1.03521(13) 0.41987(5) 0.88186(13)
K1B_3 K 0.96479(13) 0.58013(5) 0.11814(13)
C1B C 0.6869(6) 0.51438(19) 0.7041(6)
C2B C 0.6486(6) 0.5312(3) 0.3625(6)
C3B C 1.3364(6) 0.6178(3) 0.9676(6)
H1B H 1.3404 0.5723 0.9743
C4B C 1.4587(6) 0.6500(3) 0.9070(6)
H2B H 1.5405 0.6263 0.8725
C5B C 1.4566(6) 0.7162(3) 0.8992(6)
H3B H 1.5376 0.7382 0.8593
C6B C 1.3329(6) 0.7518(2) 0.9510(5)
C7B C 1.2127(5) 0.7154(2) 1.0086(5)
C8B C 1.3237(7) 0.8221(3) 0.9476(6)
H4B H 1.4015 0.8461 0.9077
C9B C 1.2036(7) 0.8536(2) 1.0015(6)
H5B H 1.2019 0.8991 1.0007
C10B C 1.0796(6) 0.8193(2) 1.0595(5)
C11B C 1.0820(5) 0.7499(2) 1.0622(5)
C12B C 0.9517(7) 0.8512(3) 1.1132(6)
H6B H 0.9463 0.8968 1.1124
C13B C 0.8362(7) 0.8159(3) 1.1661(6)
H7B H 0.7508 0.8367 1.2020
C14B C 0.8472(6) 0.7476(3) 1.1659(6)
H8B H 0.7677 0.7238 1.2036
N1B N 0.7938(5) 0.5226(2) 0.8207(5)
N1B_2 N -0.2062(5) 0.5226(2) -0.1793(5)
N1_2 N 1.2062(5) 0.4774(2) 1.1793(5)
N2B N 0.7355(6) 0.5488(3) 0.2853(6)
N2_2 N 0.2645(6) 0.4512(3) -0.2853(6)
N2B_2 N 0.7355(6) 0.5488(3) 1.2853(6)
N3B N 1.2152(4) 0.64892(17) 1.0161(4)
N4B N 0.9652(4) 0.71481(17) 1.1149(4)
loop_
_geom_bond_atom_site_label_1
_geom_bond_atom_site_label_2
_geom_bond_site_symmetry_1
_geom_bond_site_symmetry_2
K1 N1 1_555 1_555
Pt1 C1 1_555 1_555
C1 N1 1_555 1_555
C2 Pt1 1_555 1_555
C3 H1 1_555 1_555
C4 C3 1_555 1_555
H2 C4 1_555 1_555
C5 C4 1_555 1_555
H3 C5 1_555 1_555
C6 C5 1_555 1_555
C7 C6 1_555 1_555
C8 C6 1_555 1_555
H4 C8 1_555 1_555
C9 C8 1_555 1_555
H5 C9 1_555 1_555
C10 C9 1_555 1_555
C11 C7 1_555 1_555
C12 C10 1_555 1_555
H6 C12 1_555 1_555
C13 C12 1_555 1_555
H7 C13 1_555 1_555
C14 C13 1_555 1_555
H8 C14 1_555 1_555
N1 K1B_2 1_555 1_555
N2 C2 1_555 1_555
N3 K1 1_555 1_555
N4 K1 1_555 1_555
K1B N1B 1_555 1_555
K1B_2 N1B_2 1_555 1_555
K1_2 N2 1_555 1_555
K1_3 N1B 1_555 1_555
K1B_3 N2B 1_555 1_555
C1B Pt1 1_555 1_555
C2B Pt1 1_555 1_555
C3B H1B 1_555 1_555
C4B C3B 1_555 1_555
H2B C4B 1_555 1_555
C5B C4B 1_555 1_555
H3B C5B 1_555 1_555
C6B C5B 1_555 1_555
C7B C6B 1_555 1_555
C8B C6B 1_555 1_555
H4B C8B 1_555 1_555
C9B C8B 1_555 1_555
H5B C9B 1_555 1_555
C10B C9B 1_555 1_555
C11B C7B 1_555 1_555
C12B C10B 1_555 1_555
H6B C12B 1_555 1_555
C13B C12B 1_555 1_555
H7B C13B 1_555 1_555
C14B C13B 1_555 1_555
H8B C14B 1_555 1_555
N1B C1B 1_555 1_555
N1B_2 K1 1_555 1_555
N1_2 K1B 1_555 1_555
N2B C2B 1_555 1_555
N2_2 K1 1_555 1_555
N2B_2 K1B 1_555 1_555
N3B K1B 1_555 1_555
N4B K1B 1_555 1_555
C3 N3 1_555 1_555
C7 N3 1_555 1_555
C10 C11 1_555 1_555
C11 N4 1_555 1_555
C14 N4 1_555 1_555
K1_3 N1_2 1_555 1_555
C3B N3B 1_555 1_555
C7B N3B 1_555 1_555
C10B C11B 1_555 1_555
C11B N4B 1_555 1_555
C14B N4B 1_555 1_555

#END
