
#######################################################################
#
#                 Cambridge Crystallographic Data Centre
#                                CCDC 
#
#######################################################################
#
# If this CIF has been generated from an entry in the Cambridge 
# Structural Database, then it will include bibliographic, chemical, 
# crystal, experimental, refinement or atomic coordinate data resulting 
# from the CCDC's data processing and validation procedures.
#
#######################################################################

data_EXOREP
_symmetry_cell_setting           triclinic
_symmetry_space_group_name_H-M   'P -1'
_symmetry_Int_Tables_number      2
_space_group_name_Hall           '-P 1'
loop_
_symmetry_equiv_pos_site_id
_symmetry_equiv_pos_as_xyz
1 x,y,z
2 -x,-y,-z
_cell_length_a                   6.9642(15)
_cell_length_b                   13.343(3)
_cell_length_c                   20.634(5)
_cell_angle_alpha                107.115(3)
_cell_angle_beta                 93.121(4)
_cell_angle_gamma                91.911(3)
_cell_volume                     1827.3
loop_
_atom_site_label
_atom_site_type_symbol
_atom_site_fract_x
_atom_site_fract_y
_atom_site_fract_z
Na1 Na 0.4272(2) 0.02022(12) 0.21736(8)
Na2 Na 0.7514(3) 0.01949(19) 0.03656(13)
O1 O 0.3795(3) 0.6035(2) 0.49348(12)
O2 O -0.1437(4) 0.5506(2) 0.38626(13)
O3 O 0.0989(4) 0.7807(2) 0.69714(13)
H1 H 0.2116 0.7847 0.7118
O4 O 0.2469(4) 0.3349(2) 0.10627(13)
O5 O 0.5304(4) 0.2119(2) 0.25547(13)
O6 O 0.3417(4) 0.1508(2) 0.15007(14)
O7 O 0.6197(4) 0.2694(2) 0.15997(16)
O8 O 0.3445(3) 0.16165(19) 0.52136(12)
O9 O 0.8607(4) 0.2000(2) 0.63208(13)
O10 O 0.6157(4) -0.0104(2) 0.31781(12)
O11 O 0.4826(4) 0.4457(2) 0.90722(12)
O12 O 0.5197(4) 0.2468(2) 0.92851(13)
O13 O 0.8398(4) 0.3146(2) 0.92068(13)
O14 O 0.7295(4) 0.14330(19) 0.84916(12)
O15 O 0.7101(5) -0.0140(3) 0.15632(18)
O16 O 0.1437(5) 0.0445(3) 0.2699(2)
O17 O 0.9339(5) 0.1522(3) 0.1206(2)
O18 O 0.4799(6) 0.1207(3) 0.01322(17)
O19 O 1.0538(6) -0.0763(4) 0.0412(2)
S1 S 0.46400(14) 0.23767(8) 0.19432(5)
S2 S 0.67559(12) 0.24827(7) 0.88473(4)
C1 C 0.3605(5) 0.5554(3) 0.42534(18)
H2 H 0.4723 0.5337 0.4038
C2 C 0.1950(5) 0.5365(3) 0.38653(18)
C3 C 0.0143(5) 0.5687(3) 0.41815(18)
C4 C 0.0369(5) 0.6239(3) 0.49077(17)
C5 C -0.1203(5) 0.6637(3) 0.52871(19)
H3 H -0.2430 0.6540 0.5070
C6 C -0.0975(5) 0.7157(3) 0.59590(19)
H4 H -0.2033 0.7426 0.6196
C7 C 0.0850(5) 0.7288(3) 0.62945(18)
C8 C 0.2434(5) 0.6908(3) 0.59490(18)
H5 H 0.3653 0.6999 0.6172
C9 C 0.2168(5) 0.6385(3) 0.52553(18)
C10 C 0.1972(5) 0.4822(3) 0.31269(18)
C11 C 0.3061(5) 0.3953(3) 0.28956(18)
H6 H 0.3719 0.3691 0.3210
C12 C 0.3194(5) 0.3466(3) 0.22091(18)
C13 C 0.2223(5) 0.3855(3) 0.17280(18)
C14 C 0.1110(5) 0.4711(3) 0.19564(19)
H7 H 0.0432 0.4970 0.1644
C15 C 0.0995(5) 0.5187(3) 0.26460(19)
H8 H 0.0244 0.5765 0.2789
C16 C 0.1454(7) 0.3695(4) 0.0556(2)
H9 H 0.1761 0.3274 0.0113
H10 H 0.1824 0.4417 0.0614
H11 H 0.0094 0.3626 0.0599
C17 C 0.3609(5) 0.2097(3) 0.58886(17)
H12 H 0.2488 0.2331 0.6096
C18 C 0.5259(5) 0.2267(3) 0.62915(16)
C19 C 0.7037(5) 0.1898(3) 0.59905(17)
C20 C 0.6852(5) 0.1380(2) 0.52589(17)
C21 C 0.8427(5) 0.0977(3) 0.48864(18)
H13 H 0.9641 0.1046 0.5111
C22 C 0.8227(5) 0.0490(3) 0.42064(18)
H14 H 0.9296 0.0230 0.3972
C23 C 0.6419(5) 0.0379(3) 0.38586(17)
C24 C 0.4836(5) 0.0771(3) 0.41982(17)
H15 H 0.3631 0.0710 0.3968
C25 C 0.5079(5) 0.1263(3) 0.48952(17)
C26 C 0.5176(5) 0.2856(3) 0.70217(17)
C27 C 0.5996(5) 0.2484(3) 0.75318(16)
H16 H 0.6661 0.1870 0.7415
C28 C 0.5832(5) 0.3022(3) 0.82143(16)
C29 C 0.4872(5) 0.3958(3) 0.83993(17)
C30 C 0.4042(5) 0.4326(3) 0.78885(18)
H17 H 0.3386 0.4943 0.8001
C31 C 0.4194(5) 0.3773(3) 0.72161(18)
H18 H 0.3619 0.4024 0.6881
C32 C 0.3535(7) 0.5279(3) 0.9283(2)
H19 H 0.3654 0.5560 0.9769
H20 H 0.2238 0.5007 0.9138
H21 H 0.3842 0.5825 0.9083
H22 H 0.711(5) -0.048(3) 0.309(3)
H23 H 0.748(4) -0.0717(18) 0.158(2)
H24 H 0.792(3) 0.035(2) 0.174(2)
H25 H 0.090(4) -0.011(2) 0.275(2)
H26 H 0.058(3) 0.070(3) 0.2492(19)
H27 H 0.867(5) 0.206(3) 0.135(2)
H28 H 1.047(3) 0.171(3) 0.138(2)
H29 H 0.446(5) 0.162(3) 0.0514(12)
H30 H 0.512(4) 0.162(3) -0.0102(19)
H31 H 1.055(4) -0.102(3) 0.0746(17)
H32 H 1.147(3) -0.028(2) 0.053(2)
Na1A Na 0.5728(2) -0.02022(12) 0.78264(8)
Na2A Na 0.2486(3) -0.01949(19) -0.03656(13)
Na2A_2 Na 1.2486(3) -0.01949(19) -0.03656(13)
O14A O 0.2705(4) -0.14330(19) 0.15084(12)
O18A O 0.5201(6) -0.1207(3) -0.01322(17)
O19A O 0.9462(6) 0.0763(4) -0.0412(2)
H29A H 0.554(5) -0.162(3) -0.0514(12)
H30A H 0.488(4) -0.162(3) 0.0102(19)
H31A H 0.945(4) 0.102(3) -0.0746(17)
H32A H 0.853(3) 0.028(2) -0.053(2)
O20 O 0.8395(4) 0.7792(3) 0.13841(18)
H33 H 0.891(6) 0.728(3) 0.147(3)
H34 H 0.740(5) 0.756(3) 0.111(2)
O21 O 0.0870(4) 0.1327(2) 0.72523(14)
H35 H 0.107(7) 0.173(3) 0.7654(12)
H36 H 0.017(6) 0.159(3) 0.7011(18)
loop_
_geom_bond_atom_site_label_1
_geom_bond_atom_site_label_2
_geom_bond_site_symmetry_1
_geom_bond_site_symmetry_2
Na1 O5 1_555 1_555
Na2 O15 1_555 1_555
O1 C1 1_555 1_555
O2 C3 1_555 1_555
O3 H1 1_555 1_555
O4 C13 1_555 1_555
O5 S1 1_555 1_555
O6 Na1 1_555 1_555
O7 S1 1_555 1_555
O8 C17 1_555 1_555
O9 C19 1_555 1_555
O10 Na1 1_555 1_555
O11 C29 1_555 1_555
O12 S2 1_555 1_555
O13 S2 1_555 1_555
O14 S2 1_555 1_555
O15 Na1 1_555 1_555
O16 Na1 1_555 1_555
O17 Na2 1_555 1_555
O18 Na2 1_555 1_555
O19 Na2 1_555 1_555
O20 H33 1_555 1_555
O21 H35 1_555 1_555
S1 O6 1_555 1_555
S2 C28 1_555 1_555
C1 H2 1_555 1_555
C2 C1 1_555 1_555
C3 C2 1_555 1_555
C4 C3 1_555 1_555
C5 C4 1_555 1_555
H3 C5 1_555 1_555
C6 C5 1_555 1_555
H4 C6 1_555 1_555
C7 O3 1_555 1_555
C8 C7 1_555 1_555
H5 C8 1_555 1_555
C9 O1 1_555 1_555
C10 C2 1_555 1_555
C11 C10 1_555 1_555
H6 C11 1_555 1_555
C12 S1 1_555 1_555
C13 C12 1_555 1_555
C14 C13 1_555 1_555
H7 C14 1_555 1_555
C15 C10 1_555 1_555
H8 C15 1_555 1_555
C16 O4 1_555 1_555
H9 C16 1_555 1_555
H10 C16 1_555 1_555
H11 C16 1_555 1_555
C17 H12 1_555 1_555
C18 C17 1_555 1_555
C19 C18 1_555 1_555
C20 C19 1_555 1_555
C21 C20 1_555 1_555
H13 C21 1_555 1_555
C22 C21 1_555 1_555
H14 C22 1_555 1_555
C23 O10 1_555 1_555
C24 C23 1_555 1_555
H15 C24 1_555 1_555
C25 O8 1_555 1_555
C26 C18 1_555 1_555
C27 C26 1_555 1_555
H16 C27 1_555 1_555
C28 C27 1_555 1_555
C29 C28 1_555 1_555
C30 C29 1_555 1_555
H17 C30 1_555 1_555
C31 C26 1_555 1_555
H18 C31 1_555 1_555
C32 O11 1_555 1_555
H19 C32 1_555 1_555
H20 C32 1_555 1_555
H21 C32 1_555 1_555
H22 O10 1_555 1_555
H23 O15 1_555 1_555
H24 O15 1_555 1_555
H25 O16 1_555 1_555
H26 O16 1_555 1_555
H27 O17 1_555 1_555
H28 O17 1_555 1_555
H29 O18 1_555 1_555
H30 O18 1_555 1_555
H31 O19 1_555 1_555
H32 O19 1_555 1_555
H34 O20 1_555 1_555
H36 O21 1_555 1_555
Na1A O14 1_555 1_555
Na2A O18 1_555 1_555
Na2A_2 O19 1_555 1_555
O14A Na1 1_555 1_555
O18A Na2 1_555 1_555
O19A Na2 1_555 1_555
H29A O18A 1_555 1_555
H30A O18A 1_555 1_555
H31A O19A 1_555 1_555
H32A O19A 1_555 1_555
C4 C9 1_555 1_555
C6 C7 1_555 1_555
C8 C9 1_555 1_555
C11 C12 1_555 1_555
C14 C15 1_555 1_555
C20 C25 1_555 1_555
C22 C23 1_555 1_555
C24 C25 1_555 1_555
C30 C31 1_555 1_555
Na2A O18A 1_555 1_555
Na2A_2 O19A 1_555 1_555

#END
