
#######################################################################
#
#                 Cambridge Crystallographic Data Centre
#                                CCDC 
#
#######################################################################
#
# If this CIF has been generated from an entry in the Cambridge 
# Structural Database, then it will include bibliographic, chemical, 
# crystal, experimental, refinement or atomic coordinate data resulting 
# from the CCDC's data processing and validation procedures.
#
#######################################################################

data_EXOSEQ
_symmetry_cell_setting           triclinic
_symmetry_space_group_name_H-M   'P -1'
_symmetry_Int_Tables_number      2
_space_group_name_Hall           '-P 1'
loop_
_symmetry_equiv_pos_site_id
_symmetry_equiv_pos_as_xyz
1 x,y,z
2 -x,-y,-z
_cell_length_a                   8.6280(17)
_cell_length_b                   9.6082(19)
_cell_length_c                   11.464(2)
_cell_angle_alpha                90.24(3)
_cell_angle_beta                 106.62(3)
_cell_angle_gamma                97.46(3)
_cell_volume                     902.095
loop_
_atom_site_label
_atom_site_type_symbol
_atom_site_fract_x
_atom_site_fract_y
_atom_site_fract_z
Sr1 Sr 0.25284(3) 0.98870(3) 0.00760(3)
N1 N 0.5959(3) 1.4722(3) 0.2275(2)
N2 N 0.5499(3) 1.5942(3) 0.1762(3)
N3 N 0.4979(4) 1.6568(3) 0.2551(3)
N4 N 0.5055(4) 1.5816(3) 0.3556(3)
N5 N 0.5914(5) 1.3608(3) 0.4123(3)
H1 H 0.636(4) 1.291(4) 0.396(3)
H2 H 0.569(4) 1.371(4) 0.485(3)
N6 N -0.1513(3) 0.7865(3) -0.4232(2)
N7 N -0.1558(3) 0.8643(3) -0.5221(2)
N8 N -0.1064(4) 0.7900(3) -0.5950(2)
N9 N -0.0680(3) 0.6658(3) -0.5479(2)
N10 N -0.0730(5) 0.5641(4) -0.3605(3)
H3 H -0.041(5) 0.491(4) -0.389(4)
H4 H -0.105(5) 0.563(4) -0.303(4)
O1 O 0.3715(2) 1.2567(2) 0.1089(2)
O2 O 0.0985(2) 0.8701(2) -0.21665(19)
O3 O 0.1118(3) 0.7372(3) 0.0630(2)
H5 H 0.047(4) 0.753(4) 0.099(3)
H6 H 0.148(4) 0.667(3) 0.092(3)
O4 O 0.4187(3) 0.9402(3) 0.2254(2)
H7 H 0.506(3) 0.984(4) 0.265(3)
H8 H 0.442(5) 0.8604(17) 0.232(4)
O5 O -0.0652(2) 0.9434(2) -0.12170(19)
O6 O 0.1699(3) 1.1972(3) -0.1443(2)
H9 H 0.144(4) 1.184(4) -0.2181(8)
H10 H 0.254(3) 1.252(3) -0.129(3)
O7 O 0.5474(3) 1.1552(2) 0.0430(2)
C1 C 0.5666(4) 1.4660(3) 0.3369(3)
C2 C 0.6472(4) 1.3698(3) 0.1579(3)
H15 H 0.7381 1.3300 0.2113
H16 H 0.6853 1.4171 0.0946
C3 C 0.5113(4) 1.2516(3) 0.0994(3)
C4 C -0.0952(4) 0.6660(3) -0.4391(3)
C5 C -0.1895(4) 0.8429(3) -0.3185(3)
H17 H -0.2616 0.7720 -0.2922
H18 H -0.2477 0.9228 -0.3429
C6 C -0.0396(3) 0.8889(3) -0.2118(3)
Sr1A Sr -0.25284(3) 1.01130(3) -0.00760(3)
Sr1A_2 Sr 0.74716(3) 1.01130(3) -0.00760(3)
O5A O 0.0652(2) 1.0566(2) 0.12170(19)
O7A O 0.4526(3) 0.8448(2) -0.0430(2)
O8 O 0.1497(3) 1.4395(3) 0.1211(3)
H11 H 0.235(3) 1.407(4) 0.127(4)
H12 H 0.075(4) 1.394(4) 0.069(3)
O9 O 0.2911(3) 0.8935(3) -0.3651(2)
H13 H 0.227(5) 0.887(4) -0.320(4)
H14 H 0.265(5) 0.951(5) -0.408(4)
loop_
_geom_bond_atom_site_label_1
_geom_bond_atom_site_label_2
_geom_bond_site_symmetry_1
_geom_bond_site_symmetry_2
Sr1 O1 1_555 1_555
N1 N2 1_555 1_555
N2 N3 1_555 1_555
N3 N4 1_555 1_555
N4 C1 1_555 1_555
N5 H1 1_555 1_555
H2 N5 1_555 1_555
N6 N7 1_555 1_555
N7 N8 1_555 1_555
N8 N9 1_555 1_555
N9 C4 1_555 1_555
N10 H3 1_555 1_555
H4 N10 1_555 1_555
O1 C3 1_555 1_555
O2 Sr1 1_555 1_555
O3 Sr1 1_555 1_555
H5 O3 1_555 1_555
H6 O3 1_555 1_555
O4 Sr1 1_555 1_555
H7 O4 1_555 1_555
H8 O4 1_555 1_555
O5 Sr1 1_555 1_555
O6 Sr1 1_555 1_555
H9 O6 1_555 1_555
H10 O6 1_555 1_555
O7 Sr1 1_555 1_555
O8 H11 1_555 1_555
H12 O8 1_555 1_555
O9 H13 1_555 1_555
H14 O9 1_555 1_555
C1 N1 1_555 1_555
C2 N1 1_555 1_555
H15 C2 1_555 1_555
H16 C2 1_555 1_555
C3 O7 1_555 1_555
C4 N6 1_555 1_555
C5 N6 1_555 1_555
H17 C5 1_555 1_555
H18 C5 1_555 1_555
C6 O2 1_555 1_555
Sr1A O5 1_555 1_555
Sr1A_2 O7 1_555 1_555
O5A Sr1 1_555 1_555
O7A Sr1 1_555 1_555
N5 C1 1_555 1_555
N10 C4 1_555 1_555
O5 C6 1_555 1_555
C2 C3 1_555 1_555
C5 C6 1_555 1_555
Sr1A O5A 1_555 1_555
Sr1A_2 O7A 1_555 1_555

#END
