
#######################################################################
#
#                 Cambridge Crystallographic Data Centre
#                                CCDC 
#
#######################################################################
#
# If this CIF has been generated from an entry in the Cambridge 
# Structural Database, then it will include bibliographic, chemical, 
# crystal, experimental, refinement or atomic coordinate data resulting 
# from the CCDC's data processing and validation procedures.
#
#######################################################################

data_EXOTIV
_symmetry_cell_setting           monoclinic
_symmetry_space_group_name_H-M   'P 2/n'
_symmetry_Int_Tables_number      13
_space_group_name_Hall           '-P 2yac'
loop_
_symmetry_equiv_pos_site_id
_symmetry_equiv_pos_as_xyz
1 x,y,z
2 1/2-x,y,1/2-z
3 -x,-y,-z
4 1/2+x,-y,1/2+z
_cell_length_a                   14.206(5)
_cell_length_b                   11.345(5)
_cell_length_c                   21.322(5)
_cell_angle_alpha                90
_cell_angle_beta                 108.934(5)
_cell_angle_gamma                90
_cell_volume                     3250.47
loop_
_atom_site_label
_atom_site_type_symbol
_atom_site_fract_x
_atom_site_fract_y
_atom_site_fract_z
Cd1 Cd 0.620423(14) 0.159362(18) -0.029238(9)
Cd2 Cd 0.892067(14) 0.181871(18) 0.024869(8)
C1 C 0.4928(2) 0.0785(3) -0.14620(14)
C2 C 0.42482(19) 0.0408(3) -0.21358(13)
C3 C 0.4136(2) -0.0760(3) -0.23195(13)
H1 H 0.4451 -0.1340 -0.2016
C4 C 0.3556(2) -0.1076(3) -0.29544(13)
H2 H 0.3489 -0.1867 -0.3076
C5 C 0.30776(18) -0.0226(2) -0.34090(12)
C6 C 0.3169(2) 0.0936(3) -0.32186(14)
H3 H 0.2834 0.1514 -0.3517
C7 C 0.3754(2) 0.1255(3) -0.25880(15)
H4 H 0.3815 0.2046 -0.2467
C8 C 0.2468(2) -0.0576(3) -0.40973(13)
C9 C 0.6354(2) 0.3441(3) 0.11465(15)
H5 H 0.6316 0.2625 0.1173
C10 C 0.6413(3) 0.4149(4) 0.16825(17)
H6 H 0.6427 0.3801 0.2080
C11 C 0.6451(3) 0.5363(4) 0.1644(2)
H7 H 0.6475 0.5810 0.2015
C12 C 0.6455(3) 0.5927(3) 0.1079(2)
H8 H 0.6486 0.6744 0.1058
C13 C 0.6411(2) 0.5219(3) 0.05381(16)
C14 C 0.63530(19) 0.3995(3) 0.05646(14)
C15 C 0.6362(2) 0.4450(3) -0.04244(15)
C16 C 0.6349(2) 0.4371(3) -0.11247(14)
H9 H 0.5723 0.4693 -0.1409
H10 H 0.6365 0.3545 -0.1238
C17 C 0.7189(2) 0.4997(3) -0.12822(15)
H11 H 0.7195 0.5814 -0.1147
H12 H 0.7045 0.4988 -0.1759
C18 C 0.8228(2) 0.4484(3) -0.09572(13)
H13 H 0.8207 0.3644 -0.1048
H14 H 0.8680 0.4839 -0.1160
C19 C 0.86352(19) 0.4665(3) -0.02262(14)
C20 C 0.9173(2) 0.4468(3) 0.08446(14)
C21 C 0.9485(2) 0.4063(3) 0.14965(14)
H15 H 0.9487 0.3264 0.1593
C22 C 0.9788(3) 0.4891(3) 0.19898(16)
H16 H 1.0006 0.4644 0.2429
C23 C 0.9780(3) 0.6083(3) 0.18527(17)
H17 H 0.9994 0.6615 0.2202
C24 C 0.9464(3) 0.6500(3) 0.12151(17)
H18 H 0.9454 0.7303 0.1124
C25 C 0.9158(2) 0.5669(3) 0.07126(15)
C26 C 1.2825(2) 0.1873(3) 0.19599(15)
H19 H 1.3056 0.1881 0.1599
C27 C 1.3490(2) 0.1865(3) 0.25954(16)
H20 H 1.4169 0.1856 0.2657
C28 C 1.1825(2) 0.1869(2) 0.18608(13)
C29 C 1.1078(2) 0.1839(2) 0.11743(14)
C30 C 0.8493(2) 0.1294(3) -0.21477(13)
H21 H 0.9170 0.1279 -0.1912
C31 C 0.8177(2) 0.1300(3) -0.28304(13)
H22 H 0.8643 0.1299 -0.3052
C32 C 0.78184(18) 0.1308(2) -0.18135(12)
C33 C 0.8162(2) 0.1386(2) -0.10752(12)
N1 N 0.88394(16) 0.3850(2) 0.02436(10)
N2 N 0.88235(19) 0.5756(2) 0.00338(14)
N3 N 0.63256(16) 0.3533(2) -0.00470(11)
N4 N 0.6408(2) 0.5464(3) -0.00972(15)
O1 O 0.53829(15) 0.0014(2) -0.10536(10)
O2 O 0.17710(16) 0.0049(2) -0.44283(11)
O3 O 0.26655(16) -0.15448(19) -0.43251(10)
O4 O 1.01961(17) 0.1605(2) 0.11430(11)
O5 O 1.13465(17) 0.20381(19) 0.06817(10)
O6 O 0.75391(14) 0.14609(19) -0.07713(9)
O7 O 0.90835(13) 0.14434(18) -0.07656(8)
O8 O 0.50455(18) 0.1865(2) -0.13443(11)
O10 O 0.4869(2) 0.1461(3) 0.00954(18)
O11 O 0.90376(18) -0.0300(2) 0.03593(12)
H25 H 0.503(3) 0.126(3) 0.0503(19)
H26 H 0.956(3) -0.046(3) 0.0568(19)
H27 H 0.890(2) -0.071(3) 0.0066(17)
H28 H 0.440(4) 0.125(5) -0.013(3)
H29 H 0.880(2) 0.633(3) -0.0150(16)
H30 H 0.645(2) 0.606(3) -0.0222(16)
Cd1C Cd 1.120423(14) -0.159362(18) 0.470762(9)
Cd1C_2 Cd 0.120423(14) -0.159362(18) -0.529238(9)
Cd1A Cd 0.879577(14) 0.159362(18) -0.470762(9)
Cd2C Cd 0.392067(14) -0.181871(18) -0.475131(8)
Cd2A Cd 1.607933(14) 0.181871(18) 0.475131(8)
Cd2A_2 Cd 0.607933(14) 0.181871(18) -0.524869(8)
Cd2C_2 Cd 1.392067(14) -0.181871(18) 0.524869(8)
C1C C 0.9928(2) -0.0785(3) 0.35380(14)
C2C C 0.92482(19) -0.0408(3) 0.28642(13)
C3C C 0.9136(2) 0.0760(3) 0.26805(13)
H1C H 0.9451 0.1340 0.2984
C4C C 0.8556(2) 0.1076(3) 0.20456(13)
H2C H 0.8489 0.1867 0.1924
C5C C 0.80776(18) 0.0226(2) 0.15910(12)
C6C C 0.8169(2) -0.0936(3) 0.17814(14)
H3C H 0.7834 -0.1514 0.1483
C7C C 0.8754(2) -0.1255(3) 0.24120(15)
H4C H 0.8815 -0.2046 0.2533
C8C C 0.7468(2) 0.0576(3) 0.09027(13)
C9C C 1.1354(2) -0.3441(3) 0.61465(15)
H5C H 1.1316 -0.2625 0.6173
C10C C 1.1413(3) -0.4149(4) 0.66825(17)
H6C H 1.1427 -0.3801 0.7080
C11C C 1.1451(3) -0.5363(4) 0.6644(2)
H7C H 1.1475 -0.5810 0.7015
C12C C 1.1455(3) -0.5927(3) 0.6079(2)
H8C H 1.1486 -0.6744 0.6058
C13C C 1.1411(2) -0.5219(3) 0.55381(16)
C14C C 1.13530(19) -0.3995(3) 0.55646(14)
C15C C 1.1362(2) -0.4450(3) 0.45756(15)
C16C C 1.1349(2) -0.4371(3) 0.38753(14)
H9C H 1.0723 -0.4693 0.3591
H10C H 1.1365 -0.3545 0.3762
C17C C 1.2189(2) -0.4997(3) 0.37178(15)
H11C H 1.2195 -0.5814 0.3853
H12C H 1.2045 -0.4988 0.3241
C18C C 1.3228(2) -0.4484(3) 0.40428(13)
H13C H 1.3207 -0.3644 0.3952
H14C H 1.3680 -0.4839 0.3840
C19C C 1.36352(19) -0.4665(3) 0.47738(14)
C20C C 1.4173(2) -0.4468(3) 0.58446(14)
C21C C 1.4485(2) -0.4063(3) 0.64965(14)
H15C H 1.4487 -0.3264 0.6593
C22C C 1.4788(3) -0.4891(3) 0.69898(16)
H16C H 1.5006 -0.4644 0.7429
C23C C 1.4780(3) -0.6083(3) 0.68527(17)
H17C H 1.4994 -0.6615 0.7202
C24C C 1.4464(3) -0.6500(3) 0.62151(17)
H18C H 1.4454 -0.7303 0.6124
C25C C 1.4158(2) -0.5669(3) 0.57126(15)
C26A C 1.2175(2) 0.1873(3) 0.30401(15)
H19A H 1.1944 0.1881 0.3401
C27A C 1.1510(2) 0.1865(3) 0.24046(16)
H20A H 1.0831 0.1856 0.2343
C28A C 1.3175(2) 0.1869(2) 0.31392(13)
C29A C 1.3922(2) 0.1839(2) 0.38257(14)
C30A C 0.6507(2) 0.1294(3) -0.28523(13)
H21A H 0.5830 0.1279 -0.3088
C31A C 0.6823(2) 0.1300(3) -0.21696(13)
H22A H 0.6357 0.1299 -0.1948
C32A C 0.71816(18) 0.1308(2) -0.31865(12)
C33A C 0.6838(2) 0.1386(2) -0.39248(12)
N1C N 1.38394(16) -0.3850(2) 0.52436(10)
N1C_2 N 0.38394(16) -0.3850(2) -0.47564(10)
N2C N 1.38235(19) -0.5756(2) 0.50338(14)
N3C N 1.13256(16) -0.3533(2) 0.49530(11)
N4C N 1.1408(2) -0.5464(3) 0.49028(15)
O1C O 1.03829(15) -0.0014(2) 0.39464(10)
O2C O 0.67710(16) -0.0049(2) 0.05717(11)
O2_2 O 1.17710(16) 0.0049(2) 0.55717(11)
O3C O 0.76655(16) 0.15448(19) 0.06749(10)
O3_2 O 1.26655(16) -0.15448(19) 0.56749(10)
O4A O 1.48039(17) 0.1605(2) 0.38570(11)
O4C O 0.51961(17) -0.1605(2) -0.38570(11)
O5A O 1.36535(17) 0.20381(19) 0.43183(10)
O6A O 0.74609(14) 0.14609(19) -0.42287(9)
O6C O 1.25391(14) -0.14609(19) 0.42287(9)
O6C_2 O 0.25391(14) -0.14609(19) -0.57713(9)
O7A O 0.59165(13) 0.14434(18) -0.42344(8)
O7C O 0.40835(13) -0.14434(18) -0.57656(8)
O8C O 1.00455(18) -0.1865(2) 0.36557(11)
O10C O 0.9869(2) -0.1461(3) 0.50954(18)
O11C O 0.40376(18) 0.0300(2) -0.46407(12)
H25C H 1.003(3) -0.126(3) 0.5503(19)
H26C H 0.456(3) 0.046(3) -0.4432(19)
H27C H 0.390(2) 0.071(3) -0.4934(17)
H28C H 0.940(4) -0.125(5) 0.487(3)
H29C H 1.380(2) -0.633(3) 0.4850(16)
H30C H 1.145(2) -0.606(3) 0.4778(16)
O9 O 0.1924(3) 0.2227(3) 0.4596(2)
H23 H 0.2061 0.2172 0.5015
H24 H 0.1439 0.2418 0.4262
loop_
_geom_bond_atom_site_label_1
_geom_bond_atom_site_label_2
_geom_bond_site_symmetry_1
_geom_bond_site_symmetry_2
Cd1 N3 1_555 1_555
Cd2 N1 1_555 1_555
C1 C2 1_555 1_555
C2 C3 1_555 1_555
C3 H1 1_555 1_555
C4 C3 1_555 1_555
H2 C4 1_555 1_555
C5 C4 1_555 1_555
C6 C5 1_555 1_555
H3 C6 1_555 1_555
C7 C2 1_555 1_555
H4 C7 1_555 1_555
C8 C5 1_555 1_555
C9 H5 1_555 1_555
C10 C9 1_555 1_555
H6 C10 1_555 1_555
C11 C10 1_555 1_555
H7 C11 1_555 1_555
C12 C11 1_555 1_555
H8 C12 1_555 1_555
C13 C12 1_555 1_555
C14 C9 1_555 1_555
C15 C16 1_555 1_555
C16 H9 1_555 1_555
H10 C16 1_555 1_555
C17 C16 1_555 1_555
H11 C17 1_555 1_555
H12 C17 1_555 1_555
C18 C17 1_555 1_555
H13 C18 1_555 1_555
H14 C18 1_555 1_555
C19 C18 1_555 1_555
C20 C21 1_555 1_555
C21 H15 1_555 1_555
C22 C21 1_555 1_555
H16 C22 1_555 1_555
C23 C22 1_555 1_555
H17 C23 1_555 1_555
C24 C23 1_555 1_555
H18 C24 1_555 1_555
C25 C20 1_555 1_555
C26 H19 1_555 1_555
C27 C26 1_555 1_555
H20 C27 1_555 1_555
C28 C26 1_555 1_555
C29 C28 1_555 1_555
C30 H21 1_555 1_555
C31 C30 1_555 1_555
H22 C31 1_555 1_555
C32 C30 1_555 1_555
C33 C32 1_555 1_555
N1 C19 1_555 1_555
N2 C19 1_555 1_555
N3 C14 1_555 1_555
N4 C13 1_555 1_555
O1 Cd1 1_555 1_555
O2 C8 1_555 1_555
O3 C8 1_555 1_555
O4 Cd2 1_555 1_555
O5 C29 1_555 1_555
O6 Cd1 1_555 1_555
O7 Cd2 1_555 1_555
O8 Cd1 1_555 1_555
O9 H23 1_555 1_555
O10 Cd1 1_555 1_555
O11 Cd2 1_555 1_555
H24 O9 1_555 1_555
H25 O10 1_555 1_555
H26 O11 1_555 1_555
H27 O11 1_555 1_555
H28 O10 1_555 1_555
H29 N2 1_555 1_555
H30 N4 1_555 1_555
Cd1C N3C 1_555 1_555
Cd1C_2 O2 1_555 1_555
Cd1A O6A 1_555 1_555
Cd2C O3 1_555 1_555
Cd2A O4A 1_555 1_555
Cd2A_2 O6A 1_555 1_555
Cd2C_2 N1C 1_555 1_555
C1C C2C 1_555 1_555
C2C C3C 1_555 1_555
C3C H1C 1_555 1_555
C4C C3C 1_555 1_555
H2C C4C 1_555 1_555
C5C C4C 1_555 1_555
C6C C5C 1_555 1_555
H3C C6C 1_555 1_555
C7C C2C 1_555 1_555
H4C C7C 1_555 1_555
C8C C5C 1_555 1_555
C9C H5C 1_555 1_555
C10C C9C 1_555 1_555
H6C C10C 1_555 1_555
C11C C10C 1_555 1_555
H7C C11C 1_555 1_555
C12C C11C 1_555 1_555
H8C C12C 1_555 1_555
C13C C12C 1_555 1_555
C14C C9C 1_555 1_555
C15C C16C 1_555 1_555
C16C H9C 1_555 1_555
H10C C16C 1_555 1_555
C17C C16C 1_555 1_555
H11C C17C 1_555 1_555
H12C C17C 1_555 1_555
C18C C17C 1_555 1_555
H13C C18C 1_555 1_555
H14C C18C 1_555 1_555
C19C C18C 1_555 1_555
C20C C21C 1_555 1_555
C21C H15C 1_555 1_555
C22C C21C 1_555 1_555
H16C C22C 1_555 1_555
C23C C22C 1_555 1_555
H17C C23C 1_555 1_555
C24C C23C 1_555 1_555
H18C C24C 1_555 1_555
C25C C20C 1_555 1_555
C26A H19A 1_555 1_555
C27A C28 1_555 1_555
H20A C27A 1_555 1_555
C28A C27 1_555 1_555
C29A C28A 1_555 1_555
C30A H21A 1_555 1_555
C31A C32 1_555 1_555
H22A C31A 1_555 1_555
C32A C31 1_555 1_555
C33A C32A 1_555 1_555
N1C C19C 1_555 1_555
N1C_2 Cd2C 1_555 1_555
N2C C19C 1_555 1_555
N3C C14C 1_555 1_555
N4C C13C 1_555 1_555
O1C Cd1C 1_555 1_555
O2C Cd1 1_555 1_555
O2_2 Cd1C 1_555 1_555
O3C Cd1 1_555 1_555
O3_2 Cd1C 1_555 1_555
O4A C29A 1_555 1_555
O4C Cd2C 1_555 1_555
O5A C29A 1_555 1_555
O6A C33A 1_555 1_555
O6C Cd1C 1_555 1_555
O6C_2 Cd1C_2 1_555 1_555
O7A Cd2A_2 1_555 1_555
O7C Cd2C 1_555 1_555
O8C Cd1C 1_555 1_555
O10C Cd1C 1_555 1_555
O11C Cd2C 1_555 1_555
H25C O10C 1_555 1_555
H26C O11C 1_555 1_555
H27C O11C 1_555 1_555
H28C O10C 1_555 1_555
H29C N2C 1_555 1_555
H30C N4C 1_555 1_555
Cd2 O6 1_555 1_555
Cd2 O3C 1_555 1_555
C1 O1 1_555 1_555
C1 O8 1_555 1_555
C6 C7 1_555 1_555
C13 C14 1_555 1_555
C15 N3 1_555 1_555
C15 N4 1_555 1_555
C20 N1 1_555 1_555
C24 C25 1_555 1_555
C25 N2 1_555 1_555
C29 O4 1_555 1_555
C33 O6 1_555 1_555
C33 O7 1_555 1_555
O3 Cd1C_2 1_555 1_555
Cd2C O6C_2 1_555 1_555
Cd2C_2 O3_2 1_555 1_555
Cd2C_2 O6C 1_555 1_555
C1C O1C 1_555 1_555
C1C O8C 1_555 1_555
C6C C7C 1_555 1_555
C8C O2C 1_555 1_555
C8C O3C 1_555 1_555
C13C C14C 1_555 1_555
C15C N3C 1_555 1_555
C15C N4C 1_555 1_555
C20C N1C 1_555 1_555
C24C C25C 1_555 1_555
C25C N2C 1_555 1_555
C26A C27A 1_555 1_555
C26A C28A 1_555 1_555
C30A C31A 1_555 1_555
C30A C32A 1_555 1_555
C33A O7A 1_555 1_555

#END
