
#######################################################################
#
#                 Cambridge Crystallographic Data Centre
#                                CCDC 
#
#######################################################################
#
# If this CIF has been generated from an entry in the Cambridge 
# Structural Database, then it will include bibliographic, chemical, 
# crystal, experimental, refinement or atomic coordinate data resulting 
# from the CCDC's data processing and validation procedures.
#
#######################################################################

data_EXOWAQ
_symmetry_cell_setting           orthorhombic
_symmetry_space_group_name_H-M   'P b c a'
_symmetry_Int_Tables_number      61
_space_group_name_Hall           '-P 2ac 2ab'
loop_
_symmetry_equiv_pos_site_id
_symmetry_equiv_pos_as_xyz
1 x,y,z
2 1/2-x,-y,1/2+z
3 -x,1/2+y,1/2-z
4 1/2+x,1/2-y,-z
5 -x,-y,-z
6 1/2+x,y,1/2-z
7 x,1/2-y,1/2+z
8 1/2-x,1/2+y,z
_cell_length_a                   10.3220(13)
_cell_length_b                   13.8131(18)
_cell_length_c                   21.640(3)
_cell_angle_alpha                90
_cell_angle_beta                 90
_cell_angle_gamma                90
_cell_volume                     3085.41
loop_
_atom_site_label
_atom_site_type_symbol
_atom_site_fract_x
_atom_site_fract_y
_atom_site_fract_z
Cd1 Cd 0.18104(3) 0.72923(3) 0.403376(15)
N1 N 0.2381(4) 0.7368(3) 0.29794(17)
N2 N 0.0414(4) 0.6307(3) 0.34343(16)
C1 C 0.1618(4) 0.6906(4) 0.2576(2)
C2 C 0.3493(5) 0.8137(5) 0.2150(3)
H1 H 0.4143 0.8554 0.2016
C3 C 0.1753(5) 0.7068(4) 0.1937(2)
H2 H 0.1205 0.6765 0.1656
C4 C 0.2710(6) 0.7682(4) 0.1737(3)
H3 H 0.2823 0.7787 0.1316
C5 C 0.0617(4) 0.6259(3) 0.28193(19)
C6 C 0.3305(5) 0.7968(4) 0.2772(3)
H4 H 0.3835 0.8280 0.3057
C7 C -0.1017(5) 0.5054(4) 0.2706(2)
H5 H -0.1488 0.4628 0.2461
C8 C -0.0510(5) 0.5741(4) 0.3679(2)
H6 H -0.0660 0.5776 0.4102
C9 C -0.0085(5) 0.5637(4) 0.2454(2)
H7 H 0.0074 0.5612 0.2031
C10 C -0.1241(5) 0.5114(4) 0.3335(2)
H8 H -0.1877 0.4735 0.3520
N3 N 0.0173(3) 0.7701(3) 0.47057(16)
O1 O -0.3113(3) 0.9465(2) 0.54911(16)
N4 N -0.1472(3) 0.7930(3) 0.53633(17)
O2 O 0.1019(3) 0.8871(3) 0.37570(14)
C11 C -0.2281(4) 0.9531(3) 0.5089(2)
C12 C -0.0368(4) 0.8583(3) 0.45865(18)
C13 C 0.0132(4) 0.9191(4) 0.40856(19)
C14 C -0.1385(4) 0.8717(3) 0.49947(19)
O3 O -0.0396(3) 1.0022(3) 0.40014(14)
O4 O -0.2150(3) 1.0285(3) 0.47423(16)
H9 H -0.1479 1.0238 0.4541
C15 C -0.0522(4) 0.7357(3) 0.5176(2)
C16 C -0.0240(5) 0.6439(4) 0.5490(3)
H10 H -0.0230 0.5918 0.5190
H11 H 0.0611 0.6474 0.5679
O5 O -0.1178(4) 0.6237(3) 0.59501(17)
H12 H -0.1750 0.5895 0.5803
Cd1C Cd -0.31896(3) 0.77077(3) 0.596624(15)
O1C O 0.1887(3) 0.5535(2) 0.45089(16)
N4C N 0.3528(3) 0.7070(3) 0.46367(17)
loop_
_geom_bond_atom_site_label_1
_geom_bond_atom_site_label_2
_geom_bond_site_symmetry_1
_geom_bond_site_symmetry_2
Cd1 N1 1_555 1_555
N1 C1 1_555 1_555
N2 Cd1 1_555 1_555
C1 C3 1_555 1_555
C2 H1 1_555 1_555
C3 H2 1_555 1_555
C4 C2 1_555 1_555
H3 C4 1_555 1_555
C5 N2 1_555 1_555
C6 N1 1_555 1_555
H4 C6 1_555 1_555
C7 H5 1_555 1_555
C8 N2 1_555 1_555
H6 C8 1_555 1_555
C9 C5 1_555 1_555
H7 C9 1_555 1_555
C10 C7 1_555 1_555
H8 C10 1_555 1_555
N3 Cd1 1_555 1_555
O1 C11 1_555 1_555
N4 C14 1_555 1_555
O2 Cd1 1_555 1_555
C11 C14 1_555 1_555
C12 N3 1_555 1_555
C13 O2 1_555 1_555
C14 C12 1_555 1_555
O3 C13 1_555 1_555
O4 C11 1_555 1_555
H9 O4 1_555 1_555
C15 N3 1_555 1_555
C16 C15 1_555 1_555
H10 C16 1_555 1_555
H11 C16 1_555 1_555
O5 C16 1_555 1_555
H12 O5 1_555 1_555
Cd1C O1 1_555 1_555
O1C Cd1 1_555 1_555
N4C Cd1 1_555 1_555
C1 C5 1_555 1_555
C2 C6 1_555 1_555
C3 C4 1_555 1_555
C7 C9 1_555 1_555
C8 C10 1_555 1_555
N4 C15 1_555 1_555
N4 Cd1C 1_555 1_555
C12 C13 1_555 1_555

#END
