
#######################################################################
#
#                 Cambridge Crystallographic Data Centre
#                                CCDC 
#
#######################################################################
#
# If this CIF has been generated from an entry in the Cambridge 
# Structural Database, then it will include bibliographic, chemical, 
# crystal, experimental, refinement or atomic coordinate data resulting 
# from the CCDC's data processing and validation procedures.
#
#######################################################################

data_EXOWIY
_symmetry_cell_setting           triclinic
_symmetry_space_group_name_H-M   'P -1'
_symmetry_Int_Tables_number      2
_space_group_name_Hall           '-P 1'
loop_
_symmetry_equiv_pos_site_id
_symmetry_equiv_pos_as_xyz
1 x,y,z
2 -x,-y,-z
_cell_length_a                   11.457(3)
_cell_length_b                   13.477(3)
_cell_length_c                   13.845(3)
_cell_angle_alpha                118.126(5)
_cell_angle_beta                 97.514(5)
_cell_angle_gamma                100.665(5)
_cell_volume                     1793.17
loop_
_atom_site_label
_atom_site_type_symbol
_atom_site_fract_x
_atom_site_fract_y
_atom_site_fract_z
Co1 Co 0.83046(8) 0.62962(7) 0.26993(7)
Co2 Co 0.82831(8) 0.97883(7) 0.75024(7)
Co3 Co 0.5000 0.5000 0.5000
N1 N 0.8134(5) 0.5309(4) 0.1098(4)
N2 N 0.6977(5) 0.6802(5) 0.2184(5)
C1 C 0.7312(6) 0.5474(5) 0.0442(5)
C2 C 0.6691(6) 0.6294(6) 0.1039(5)
C3 C 0.8755(6) 0.4539(6) 0.0609(5)
H1 H 0.9315 0.4408 0.1055
C4 C 0.8578(7) 0.3945(6) -0.0528(6)
H2 H 0.9039 0.3431 -0.0854
C5 C 0.7061(7) 0.4891(6) -0.0706(5)
C6 C 0.7711(7) 0.4096(6) -0.1220(6)
H3 H 0.7574 0.3675 -0.2003
C7 C 0.5780(7) 0.6518(6) 0.0426(6)
C8 C 0.6429(6) 0.7555(7) 0.2794(7)
H4 H 0.6630 0.7903 0.3578
C9 C 0.5551(9) 0.5937(7) -0.0733(7)
H5 H 0.4954 0.6080 -0.1135
C10 C 0.6152(7) 0.5167(7) -0.1316(6)
H6 H 0.5991 0.4815 -0.2099
C11 C 0.5232(7) 0.7340(7) 0.1124(8)
H7 H 0.4638 0.7553 0.0797
C12 C 0.5544(8) 0.7829(7) 0.2258(8)
H8 H 0.5153 0.8366 0.2692
N3 N 0.8325(5) 0.7212(5) 0.4210(4)
N4 N 0.8352(5) 0.8450(4) 0.5967(4)
C13 C 0.7520(6) 0.6626(5) 0.4550(5)
C14 C 0.7552(6) 0.7431(5) 0.5649(5)
C15 C 0.8823(6) 0.8282(5) 0.5081(5)
H9 H 0.9425 0.8850 0.5082
C16 C 0.6882(6) 0.7380(5) 0.6466(5)
O1 O 0.6102(5) 0.4776(4) 0.3831(4)
N5 N 0.9515(5) 0.7459(4) 0.2733(4)
N6 N 1.0725(5) 0.8875(4) 0.2693(4)
O2 O 1.3081(4) 0.9732(4) 0.3179(4)
C17 C 1.0735(7) 0.6526(6) 0.3320(5)
C18 C 1.0648(6) 0.7504(5) 0.3121(5)
C19 C 0.9588(6) 0.8313(5) 0.2504(5)
H10 H 0.8913 0.8491 0.2241
O3 O 1.1689(5) 0.6365(4) 0.3647(4)
C20 C 1.1426(6) 0.8403(5) 0.3111(5)
O4 O 1.3459(5) 0.8541(5) 0.3809(5)
C21 C 1.2785(6) 0.8911(7) 0.3395(5)
N7 N 0.8093(5) 1.0834(4) 0.9142(4)
N8 N 1.0002(5) 1.0117(4) 0.8567(4)
C22 C 1.0206(7) 1.1061(5) 0.9608(5)
C23 C 0.9182(7) 1.1424(5) 0.9937(5)
C24 C 1.1389(7) 1.1665(6) 1.0340(6)
C25 C 1.0960(7) 0.9725(6) 0.8245(6)
H11 H 1.0823 0.9039 0.7556
C26 C 1.0497(10) 1.2937(7) 1.1743(6)
H12 H 1.0602 1.3571 1.2462
C27 C 1.2163(7) 1.0326(7) 0.8924(7)
H13 H 1.2821 1.0078 0.8657
C28 C 0.9299(8) 1.2345(6) 1.1043(6)
C29 C 1.2360(8) 1.1251(7) 0.9951(7)
H14 H 1.3153 1.1626 1.0415
C30 C 0.7053(7) 1.1062(6) 0.9446(6)
H15 H 0.6280 1.0648 0.8948
C31 C 1.1498(9) 1.2639(6) 1.1429(6)
H16 H 1.2269 1.3070 1.1926
C32 C 0.7219(9) 1.1962(7) 1.0556(6)
H17 H 0.6513 1.2146 1.0763
C33 C 0.8204(9) 1.2550(7) 1.1308(6)
H18 H 0.8204 1.3116 1.2031
O5 O 0.7057(4) 0.8356(4) 0.7360(3)
C34 C 0.6873(6) 0.5426(5) 0.3710(5)
O6 O 0.7157(4) 0.5110(4) 0.2749(3)
O7 O 0.6203(5) 0.6471(4) 0.6307(4)
O8 O 0.9637(4) 0.5842(4) 0.3112(4)
O9 O 0.4173(6) 0.6034(5) 0.4485(5)
H19 H 0.4457 0.6091 0.3970
H20 H 0.3427 0.6037 0.4371
Co1A Co 0.16954(8) 0.37038(7) 0.73007(7)
Co1A_2 Co 1.16954(8) 1.37038(7) 0.73007(7)
Co2A Co 0.17169(8) 0.02117(7) 0.24976(7)
Co2A_2 Co 1.17169(8) 1.02117(7) 0.24976(7)
N1A N 0.1866(5) 0.4691(4) 0.8902(4)
N2A N 0.3023(5) 0.3198(5) 0.7816(5)
C1A C 0.2688(6) 0.4526(5) 0.9558(5)
C2A C 0.3309(6) 0.3706(6) 0.8961(5)
C3A C 0.1245(6) 0.5461(6) 0.9391(5)
H1A H 0.0685 0.5592 0.8945
C4A C 0.1422(7) 0.6055(6) 1.0528(6)
H2A H 0.0961 0.6569 1.0854
C5A C 0.2939(7) 0.5109(6) 1.0706(5)
C6A C 0.2289(7) 0.5904(6) 1.1220(6)
H3A H 0.2426 0.6325 1.2003
C7A C 0.4220(7) 0.3482(6) 0.9574(6)
C8A C 0.3571(6) 0.2445(7) 0.7206(7)
H4A H 0.3370 0.2097 0.6422
C9A C 0.4449(9) 0.4063(7) 1.0733(7)
H5A H 0.5046 0.3920 1.1135
C10A C 0.3848(7) 0.4833(7) 1.1316(6)
H6A H 0.4009 0.5185 1.2099
C11A C 0.4768(7) 0.2660(7) 0.8876(8)
H7A H 0.5362 0.2447 0.9203
C12A C 0.4456(8) 0.2171(7) 0.7742(8)
H8A H 0.4847 0.1634 0.7308
N3A N 0.1675(5) 0.2788(5) 0.5790(4)
N4A N 0.1648(5) 0.1550(4) 0.4033(4)
C13A C 0.2480(6) 0.3374(5) 0.5450(5)
C14A C 0.2448(6) 0.2569(5) 0.4351(5)
C15A C 0.1177(6) 0.1718(5) 0.4919(5)
H9A H 0.0575 0.1150 0.4918
C16A C 0.3118(6) 0.2620(5) 0.3534(5)
O1A O 0.3898(5) 0.5224(4) 0.6169(4)
N5A N 1.0485(5) 1.2541(4) 0.7267(4)
N5A_2 N 0.0485(5) 0.2541(4) 0.7267(4)
N6A N 0.9275(5) 1.1125(4) 0.7307(4)
N6_2 N 0.0725(5) -0.1125(4) 0.2693(4)
O2A O 0.6919(4) 1.0268(4) 0.6821(4)
O2_2 O 0.3081(4) -0.0268(4) 0.3179(4)
C17A C 0.9265(7) 1.3474(6) 0.6680(5)
C18A C 0.9352(6) 1.2496(5) 0.6879(5)
C19A C 1.0412(6) 1.1687(5) 0.7496(5)
H10A H 1.1087 1.1509 0.7759
O3A O 0.8311(5) 1.3635(4) 0.6353(4)
C20A C 0.8574(6) 1.1597(5) 0.6889(5)
O4A O 0.6541(5) 1.1459(5) 0.6191(5)
C21A C 0.7215(6) 1.1089(7) 0.6605(5)
N7A N 0.1907(5) -0.0834(4) 0.0858(4)
N8A N -0.0002(5) -0.0117(4) 0.1433(4)
C22A C -0.0206(7) -0.1061(5) 0.0392(5)
C23A C 0.0818(7) -0.1424(5) 0.0063(5)
C24A C -0.1389(7) -0.1665(6) -0.0340(6)
C25A C -0.0960(7) 0.0275(6) 0.1755(6)
H11A H -0.0823 0.0961 0.2444
C26A C -0.0497(10) -0.2937(7) -0.1743(6)
H12A H -0.0602 -0.3571 -0.2462
C27A C -0.2163(7) -0.0326(7) 0.1076(7)
H13A H -0.2821 -0.0078 0.1343
C28A C 0.0701(8) -0.2345(6) -0.1043(6)
C29A C -0.2360(8) -0.1251(7) 0.0049(7)
H14A H -0.3153 -0.1626 -0.0415
C30A C 0.2947(7) -0.1062(6) 0.0554(6)
H15A H 0.3720 -0.0648 0.1052
C31A C -0.1498(9) -0.2639(6) -0.1429(6)
H16A H -0.2269 -0.3070 -0.1926
C32A C 0.2781(9) -0.1962(7) -0.0556(6)
H17A H 0.3487 -0.2146 -0.0763
C33A C 0.1796(9) -0.2550(7) -0.1308(6)
H18A H 0.1796 -0.3116 -0.2031
O5A O 0.2943(4) 0.1644(4) 0.2640(3)
C34A C 0.3127(6) 0.4574(5) 0.6290(5)
O6A O 0.2843(4) 0.4890(4) 0.7251(3)
O7A O 0.3797(5) 0.3529(4) 0.3693(4)
O8A O 1.0363(4) 1.4158(4) 0.6888(4)
O8A_2 O 0.0363(4) 0.4158(4) 0.6888(4)
O9A O 0.5827(6) 0.3966(5) 0.5515(5)
H19A H 0.5543 0.3909 0.6030
H20A H 0.6573 0.3963 0.5629
O10 O 0.5219(6) 0.2398(5) 0.2044(5)
H21 H 0.5241 0.3046 0.2615
H22 H 0.4512 0.1928 0.1852
O11 O 0.5104(8) 0.8268(6) 0.5155(7)
H23 H 0.5705 0.8886 0.5503
H24 H 0.4534 0.8404 0.4820
O12 O 0.4330(12) 0.9357(12) 0.7509(11)
H25 H 0.4654 0.9147 0.6951
H26 H 0.4161 0.8785 0.7622
O13 O 0.2243(18) 0.932(2) 0.6004(9)
H27 H 0.2816 0.9422 0.6529
H28 H 0.2038 0.9948 0.6229
O14 O 0.828(3) 0.269(2) 0.3792(14)
H29 H 0.8133 0.2161 0.3960
H30 H 0.8153 0.2359 0.3076
O15 O 0.114(3) 0.503(2) 0.488(2)
H31 H 0.1488 0.5169 0.4435
H32 H 0.1657 0.4871 0.5254
loop_
_geom_bond_atom_site_label_1
_geom_bond_atom_site_label_2
_geom_bond_site_symmetry_1
_geom_bond_site_symmetry_2
Co1 N1 1_555 1_555
Co2 N4 1_555 1_555
Co3 O1 1_555 1_555
N1 C1 1_555 1_555
N2 Co1 1_555 1_555
C1 C2 1_555 1_555
C2 N2 1_555 1_555
C3 N1 1_555 1_555
H1 C3 1_555 1_555
C4 C3 1_555 1_555
H2 C4 1_555 1_555
C5 C1 1_555 1_555
C6 C4 1_555 1_555
H3 C6 1_555 1_555
C7 C2 1_555 1_555
C8 N2 1_555 1_555
H4 C8 1_555 1_555
C9 C7 1_555 1_555
H5 C9 1_555 1_555
C10 C5 1_555 1_555
H6 C10 1_555 1_555
C11 C7 1_555 1_555
H7 C11 1_555 1_555
C12 C8 1_555 1_555
H8 C12 1_555 1_555
N3 Co1 1_555 1_555
N4 C14 1_555 1_555
C13 N3 1_555 1_555
C14 C13 1_555 1_555
C15 N3 1_555 1_555
H9 C15 1_555 1_555
C16 C14 1_555 1_555
O1 C34 1_555 1_555
N5 Co1 1_555 1_555
N6 C19 1_555 1_555
O2 C21 1_555 1_555
C17 C18 1_555 1_555
C18 N5 1_555 1_555
C19 N5 1_555 1_555
H10 C19 1_555 1_555
O3 C17 1_555 1_555
C20 N6 1_555 1_555
O4 C21 1_555 1_555
C21 C20 1_555 1_555
N7 Co2 1_555 1_555
N8 Co2 1_555 1_555
C22 N8 1_555 1_555
C23 N7 1_555 1_555
C24 C22 1_555 1_555
C25 N8 1_555 1_555
H11 C25 1_555 1_555
C26 H12 1_555 1_555
C27 C25 1_555 1_555
H13 C27 1_555 1_555
C28 C23 1_555 1_555
C29 C24 1_555 1_555
H14 C29 1_555 1_555
C30 N7 1_555 1_555
H15 C30 1_555 1_555
C31 C24 1_555 1_555
H16 C31 1_555 1_555
C32 C30 1_555 1_555
H17 C32 1_555 1_555
C33 C28 1_555 1_555
H18 C33 1_555 1_555
O5 Co2 1_555 1_555
C34 C13 1_555 1_555
O6 Co1 1_555 1_555
O7 Co3 1_555 1_555
O8 Co1 1_555 1_555
O9 Co3 1_555 1_555
H19 O9 1_555 1_555
H20 O9 1_555 1_555
O10 H21 1_555 1_555
H22 O10 1_555 1_555
O11 H23 1_555 1_555
H24 O11 1_555 1_555
O12 H25 1_555 1_555
H26 O12 1_555 1_555
O13 H27 1_555 1_555
H28 O13 1_555 1_555
O14 H29 1_555 1_555
H30 O14 1_555 1_555
O15 H31 1_555 1_555
H32 O15 1_555 1_555
Co1A N1A 1_555 1_555
Co1A_2 N5A 1_555 1_555
Co2A N4A 1_555 1_555
Co2A_2 N6 1_555 1_555
N1A C1A 1_555 1_555
N2A Co1A 1_555 1_555
C1A C2A 1_555 1_555
C2A N2A 1_555 1_555
C3A N1A 1_555 1_555
H1A C3A 1_555 1_555
C4A C3A 1_555 1_555
H2A C4A 1_555 1_555
C5A C1A 1_555 1_555
C6A C4A 1_555 1_555
H3A C6A 1_555 1_555
C7A C2A 1_555 1_555
C8A N2A 1_555 1_555
H4A C8A 1_555 1_555
C9A C7A 1_555 1_555
H5A C9A 1_555 1_555
C10A C5A 1_555 1_555
H6A C10A 1_555 1_555
C11A C7A 1_555 1_555
H7A C11A 1_555 1_555
C12A C8A 1_555 1_555
H8A C12A 1_555 1_555
N3A Co1A 1_555 1_555
N4A C14A 1_555 1_555
C13A N3A 1_555 1_555
C14A C13A 1_555 1_555
C15A N3A 1_555 1_555
H9A C15A 1_555 1_555
C16A C14A 1_555 1_555
O1A Co3 1_555 1_555
N5A C18A 1_555 1_555
N5A_2 Co1A 1_555 1_555
N6A Co2 1_555 1_555
N6_2 Co2A 1_555 1_555
O2A Co2 1_555 1_555
O2_2 Co2A 1_555 1_555
C17A C18A 1_555 1_555
C18A C20A 1_555 1_555
C19A N5A 1_555 1_555
H10A C19A 1_555 1_555
O3A C17A 1_555 1_555
C20A N6A 1_555 1_555
O4A C21A 1_555 1_555
C21A O2A 1_555 1_555
N7A Co2A 1_555 1_555
N8A Co2A 1_555 1_555
C22A N8A 1_555 1_555
C23A N7A 1_555 1_555
C24A C22A 1_555 1_555
C25A N8A 1_555 1_555
H11A C25A 1_555 1_555
C26A H12A 1_555 1_555
C27A C25A 1_555 1_555
H13A C27A 1_555 1_555
C28A C23A 1_555 1_555
C29A C24A 1_555 1_555
H14A C29A 1_555 1_555
C30A N7A 1_555 1_555
H15A C30A 1_555 1_555
C31A C24A 1_555 1_555
H16A C31A 1_555 1_555
C32A C30A 1_555 1_555
H17A C32A 1_555 1_555
C33A C28A 1_555 1_555
H18A C33A 1_555 1_555
O5A Co2A 1_555 1_555
C34A C13A 1_555 1_555
O6A Co1A 1_555 1_555
O7A Co3 1_555 1_555
O8A Co1A_2 1_555 1_555
O8A_2 Co1A 1_555 1_555
O9A Co3 1_555 1_555
H19A O9A 1_555 1_555
H20A O9A 1_555 1_555
C5 C6 1_555 1_555
C9 C10 1_555 1_555
C11 C12 1_555 1_555
N4 C15 1_555 1_555
C16 O5 1_555 1_555
C16 O7 1_555 1_555
O2 Co2A_2 1_555 1_555
C17 O8 1_555 1_555
C18 C20 1_555 1_555
C22 C23 1_555 1_555
C26 C28 1_555 1_555
C26 C31 1_555 1_555
C27 C29 1_555 1_555
C32 C33 1_555 1_555
C34 O6 1_555 1_555
C5A C6A 1_555 1_555
C9A C10A 1_555 1_555
C11A C12A 1_555 1_555
N4A C15A 1_555 1_555
C16A O5A 1_555 1_555
C16A O7A 1_555 1_555
O1A C34A 1_555 1_555
N6A C19A 1_555 1_555
C17A O8A 1_555 1_555
C20A C21A 1_555 1_555
C22A C23A 1_555 1_555
C26A C28A 1_555 1_555
C26A C31A 1_555 1_555
C27A C29A 1_555 1_555
C32A C33A 1_555 1_555
C34A O6A 1_555 1_555

#END
