
#######################################################################
#
#                 Cambridge Crystallographic Data Centre
#                                CCDC 
#
#######################################################################
#
# If this CIF has been generated from an entry in the Cambridge 
# Structural Database, then it will include bibliographic, chemical, 
# crystal, experimental, refinement or atomic coordinate data resulting 
# from the CCDC's data processing and validation procedures.
#
#######################################################################

data_EXOXOE
_symmetry_cell_setting           orthorhombic
_symmetry_space_group_name_H-M   'P b c a'
_symmetry_Int_Tables_number      61
_space_group_name_Hall           '-P 2ac 2ab'
loop_
_symmetry_equiv_pos_site_id
_symmetry_equiv_pos_as_xyz
1 x,y,z
2 1/2+x,y,1/2-z
3 x,1/2-y,1/2+z
4 1/2-x,1/2+y,z
5 -x,-y,-z
6 1/2-x,-y,1/2+z
7 -x,1/2+y,1/2-z
8 1/2+x,1/2-y,-z
_cell_length_a                   6.905(3)
_cell_length_b                   13.116(5)
_cell_length_c                   18.969(11)
_cell_angle_alpha                90
_cell_angle_beta                 90
_cell_angle_gamma                90
_cell_volume                     1717.95
loop_
_atom_site_label
_atom_site_type_symbol
_atom_site_fract_x
_atom_site_fract_y
_atom_site_fract_z
K1 K 0.85348(6) 0.35353(3) 0.47032(2)
S1 S 0.34030(7) 0.38804(3) 0.43999(2)
O1 O 0.5094(2) 0.43750(11) 0.39064(8)
O2 O 0.4579(2) 0.34230(11) 0.49427(8)
O3 O 0.2185(2) 0.47101(11) 0.46237(8)
O4 O 0.2377(2) 0.31596(13) 0.39640(9)
C1 C 0.4560(3) 0.49449(15) 0.33200(11)
C2 C 0.3955(3) 0.59475(15) 0.34016(10)
H1 H 0.373(4) 0.620(2) 0.3880(14)
C3 C 0.3556(3) 0.65259(15) 0.28075(10)
H2 H 0.318(4) 0.718(2) 0.2820(15)
C4 C 0.3840(3) 0.60900(16) 0.21495(10)
C5 C 0.4483(3) 0.50937(16) 0.20654(11)
H3 H 0.464(4) 0.486(2) 0.1641(15)
C6 C 0.4817(3) 0.45104(16) 0.26562(10)
H4 H 0.530(5) 0.379(2) 0.2628(15)
N1 N 0.3489(3) 0.67071(14) 0.15196(9)
O5 O 0.2645(3) 0.75303(12) 0.15911(9)
O6 O 0.4052(3) 0.63778(15) 0.09509(8)
O2G O 0.9579(2) 0.15770(11) 0.50573(8)
O3_2 O 1.2185(2) 0.47101(11) 0.46237(8)
O3D O 0.7815(2) 0.52899(11) 0.53763(8)
O4_2 O 1.2377(2) 0.31596(13) 0.39640(9)
O5F O 0.7355(3) 0.25303(12) 0.34089(9)
O6E O 1.0948(3) 0.36222(15) 0.59509(8)
K1G K 0.35348(6) 0.14647(3) 0.52968(2)
K1_2 K -0.14652(6) 0.35353(3) 0.47032(2)
K1D K 0.14652(6) 0.64647(3) 0.52968(2)
K1F K 0.14652(6) 0.85353(3) 0.02968(2)
K1E K 0.64652(6) 0.64647(3) -0.02968(2)
loop_
_geom_bond_atom_site_label_1
_geom_bond_atom_site_label_2
_geom_bond_site_symmetry_1
_geom_bond_site_symmetry_2
K1 O1 1_555 1_555
S1 O1 1_555 1_555
O1 C1 1_555 1_555
O2 K1 1_555 1_555
O3 S1 1_555 1_555
O4 S1 1_555 1_555
C1 C2 1_555 1_555
C2 H1 1_555 1_555
C3 C2 1_555 1_555
H2 C3 1_555 1_555
C4 C3 1_555 1_555
C5 C4 1_555 1_555
H3 C5 1_555 1_555
C6 C1 1_555 1_555
H4 C6 1_555 1_555
N1 C4 1_555 1_555
O5 N1 1_555 1_555
O6 N1 1_555 1_555
O2G K1 1_555 1_555
O3_2 K1 1_555 1_555
O3D K1 1_555 1_555
O4_2 K1 1_555 1_555
O5F K1 1_555 1_555
O6E K1 1_555 1_555
K1G O2 1_555 1_555
K1_2 O3 1_555 1_555
K1D O3 1_555 1_555
K1F O5 1_555 1_555
K1E O6 1_555 1_555
S1 O2 1_555 1_555
O4 K1_2 1_555 1_555
C5 C6 1_555 1_555

#END
