
#######################################################################
#
#                 Cambridge Crystallographic Data Centre
#                                CCDC 
#
#######################################################################
#
# If this CIF has been generated from an entry in the Cambridge 
# Structural Database, then it will include bibliographic, chemical, 
# crystal, experimental, refinement or atomic coordinate data resulting 
# from the CCDC's data processing and validation procedures.
#
#######################################################################

data_EXOXIZ
_symmetry_cell_setting           monoclinic
_symmetry_space_group_name_H-M   'C c'
_symmetry_Int_Tables_number      9
_space_group_name_Hall           'C -2yc'
loop_
_symmetry_equiv_pos_site_id
_symmetry_equiv_pos_as_xyz
1 x,y,z
2 x,-y,1/2+z
3 1/2+x,1/2+y,z
4 1/2+x,1/2-y,1/2+z
_cell_length_a                   19.219(2)
_cell_length_b                   13.000(2)
_cell_length_c                   23.527(3)
_cell_angle_alpha                90
_cell_angle_beta                 110.072(4)
_cell_angle_gamma                90
_cell_volume                     5521.12
loop_
_atom_site_label
_atom_site_type_symbol
_atom_site_fract_x
_atom_site_fract_y
_atom_site_fract_z
Ag1 Ag -0.04445(4) 0.85915(5) 0.69818(3)
Ag2 Ag -0.33756(4) 0.37132(6) 0.78052(3)
Ag3 Ag -0.18273(4) 0.84051(6) 0.78888(3)
Ag4 Ag -0.23535(4) 0.60108(6) 0.86830(3)
C1 C 0.0372(5) 0.9896(6) 0.8253(4)
H1 H 0.0472 0.9514 0.7956
C2 C 0.0795(5) 0.9747(7) 0.8857(4)
C3 C 0.0637(7) 1.0314(9) 0.9298(5)
H2 H 0.0914 1.0222 0.9705
C4 C 0.0064(8) 1.1016(9) 0.9124(5)
H3 H -0.0054 1.1380 0.9419
C5 C -0.0338(6) 1.1190(8) 0.8522(5)
H4 H -0.0701 1.1697 0.8411
C6 C -0.0195(5) 1.0605(6) 0.8090(4)
C7 C -0.0645(5) 1.0751(6) 0.7443(5)
C8 C -0.1461(8) 1.1624(9) 0.6685(6)
H5 H -0.1391 1.2208 0.6454
H6 H -0.1975 1.1604 0.6663
C9 C -0.1244(6) 1.0629(8) 0.6455(5)
H7 H -0.1677 1.0220 0.6242
H8 H -0.0968 1.0763 0.6186
C10 C -0.0092(8) 0.6549(7) 0.6460(6)
H9 H 0.0178 0.6947 0.6255
H10 H -0.0593 0.6439 0.6185
C11 C 0.0296(8) 0.5528(9) 0.6688(6)
H11 H 0.0019 0.4956 0.6453
H12 H 0.0793 0.5523 0.6671
C12 C 0.0116(6) 0.6423(7) 0.7438(5)
C13 C 0.0202(6) 0.6562(7) 0.8078(5)
C14 C 0.0702(8) 0.5946(8) 0.8512(6)
H13 H 0.0983 0.5463 0.8394
C15 C 0.0780(9) 0.6043(9) 0.9100(6)
H14 H 0.1123 0.5631 0.9384
C16 C 0.0366(7) 0.6741(9) 0.9296(5)
H15 H 0.0419 0.6782 0.9703
C17 C -0.0206(5) 0.7283(6) 0.8270(4)
H16 H -0.0536 0.7710 0.7987
C18 C -0.0129(5) 0.7376(7) 0.8874(4)
C19 C -0.0558(5) 0.8127(7) 0.9090(4)
C20 C -0.0774(8) 0.9057(9) 0.9811(5)
H17 H -0.0529 0.9690 0.9989
H18 H -0.0989 0.8741 1.0086
C21 C -0.1364(6) 0.9257(9) 0.9194(5)
H19 H -0.1854 0.9093 0.9200
H20 H -0.1357 0.9971 0.9076
C22 C -0.2876(7) 0.8769(8) 0.6589(5)
H21 H -0.2612 0.9409 0.6600
H22 H -0.3314 0.8907 0.6691
C23 C -0.3081(7) 0.8255(10) 0.5964(6)
H23 H -0.3613 0.8257 0.5757
H24 H -0.2844 0.8601 0.5714
C24 C -0.2418(5) 0.7183(8) 0.6684(4)
C25 C -0.2033(6) 0.6201(7) 0.6906(5)
C26 C -0.1901(8) 0.5520(9) 0.6497(5)
H25 H -0.2050 0.5692 0.6089
C27 C -0.1555(9) 0.4606(10) 0.6689(6)
H26 H -0.1479 0.4152 0.6411
C28 C -0.1316(7) 0.4347(8) 0.7297(6)
H27 H -0.1060 0.3736 0.7427
C29 C -0.1455(5) 0.4984(7) 0.7707(5)
C30 C -0.1811(5) 0.5914(7) 0.7504(4)
H28 H -0.1902 0.6356 0.7782
C31 C -0.1224(5) 0.4692(7) 0.8346(4)
C32 C -0.0636(8) 0.3694(11) 0.9130(6)
H29 H -0.0122 0.3640 0.9390
H30 H -0.0883 0.3044 0.9133
C33 C -0.1020(6) 0.4566(9) 0.9324(5)
H31 H -0.1329 0.4315 0.9545
H32 H -0.0666 0.5057 0.9574
C34 C -0.3234(7) 0.7575(8) 0.9127(5)
H33 H -0.2750 0.7840 0.9365
H34 H -0.3408 0.7123 0.9378
C35 C -0.3770(9) 0.8427(12) 0.8871(6)
H35 H -0.4129 0.8470 0.9076
H36 H -0.3513 0.9080 0.8914
C36 C -0.3741(6) 0.7396(7) 0.8132(5)
C37 C -0.3968(5) 0.7079(7) 0.7501(5)
C38 C -0.4435(6) 0.7689(8) 0.7044(6)
H37 H -0.4606 0.8309 0.7143
C39 C -0.4645(7) 0.7398(9) 0.6461(6)
H38 H -0.4961 0.7815 0.6162
C40 C -0.4392(7) 0.6481(9) 0.6302(6)
H39 H -0.4515 0.6311 0.5896
C41 C -0.3963(5) 0.5820(7) 0.6735(4)
C42 C -0.3750(5) 0.6125(7) 0.7333(4)
H40 H -0.3454 0.5689 0.7632
C43 C -0.3730(5) 0.4839(7) 0.6560(4)
C44 C -0.3596(10) 0.3703(9) 0.5905(6)
H41 H -0.3228 0.3672 0.5708
H42 H -0.4037 0.3340 0.5658
C45 C -0.3300(8) 0.3252(9) 0.6528(5)
H43 H -0.3536 0.2600 0.6547
H44 H -0.2768 0.3150 0.6654
C46 C 0.1403(6) 0.8998(7) 0.9037(4)
C47 C 0.2276(7) 0.7853(9) 0.9107(5)
H45 H 0.2759 0.7958 0.9072
H46 H 0.2124 0.7145 0.9003
C48 C 0.2288(8) 0.8106(12) 0.9727(6)
H47 H 0.2256 0.7487 0.9947
H48 H 0.2738 0.8472 0.9952
N1 N -0.0775(4) 1.0106(5) 0.7014(4)
N2 N -0.0090(5) 0.7070(5) 0.7019(3)
N3 N -0.1163(5) 0.8577(6) 0.8782(4)
N4 N -0.2400(5) 0.8008(6) 0.7000(3)
N5 N -0.1471(4) 0.5027(6) 0.8740(3)
N6 N -0.3214(5) 0.7040(6) 0.8583(4)
N7 N -0.3490(5) 0.4042(6) 0.6910(4)
N8 N 0.1732(5) 0.8568(6) 0.8721(4)
O1 O -0.0962(4) 1.1679(5) 0.7314(3)
O2 O 0.0312(4) 0.5482(5) 0.7307(4)
O3 O -0.0264(5) 0.8362(6) 0.9675(3)
O4 O -0.2810(4) 0.7236(5) 0.6102(3)
O5 O -0.0695(5) 0.3984(6) 0.8522(4)
O6 O -0.4131(5) 0.8173(7) 0.8238(4)
O7 O -0.3767(5) 0.4759(6) 0.6002(3)
O8 O 0.1636(4) 0.8757(6) 0.9631(3)
Ag2B Ag 0.16244(4) 0.87132(6) 0.78052(3)
N8B N -0.3268(5) 0.3568(6) 0.8721(4)
B1 B 0.8861(8) 0.8466(11) 0.5433(6)
F1 F 0.8403(6) 0.9174(8) 0.5091(5)
F2 F 0.9547(5) 0.8919(7) 0.5773(4)
F3 F 0.8574(4) 0.8089(6) 0.5852(3)
F4 F 0.8966(7) 0.7688(9) 0.5098(5)
B2 B 0.3413(12) 1.1367(12) 1.0201(7)
F5 F 0.3549(6) 1.1799(7) 0.9718(4)
F6 F 0.3190(10) 1.2078(10) 1.0506(5)
F7 F 0.4018(7) 1.0893(11) 1.0563(5)
F8 F 0.2857(6) 1.0671(8) 0.9947(5)
B3 B 0.7439(10) 0.1048(16) 0.7898(9)
F13 F 0.7930(8) 0.174(2) 0.8235(11)
F14 F 0.6831(6) 0.1583(8) 0.7605(6)
F15 F 0.7788(6) 0.0535(8) 0.7579(6)
F16 F 0.7251(10) 0.039(2) 0.8261(10)
B4 B 0.6320(9) 0.0848(11) 0.5463(7)
F9 F 0.5983(7) 0.1718(8) 0.5156(5)
F10 F 0.6706(7) 0.1070(8) 0.6049(4)
F11 F 0.5846(7) 0.0082(9) 0.5430(6)
F12 F 0.6795(8) 0.0504(11) 0.5193(6)
loop_
_geom_bond_atom_site_label_1
_geom_bond_atom_site_label_2
_geom_bond_site_symmetry_1
_geom_bond_site_symmetry_2
Ag1 N1 1_555 1_555
Ag2 N7 1_555 1_555
Ag3 N3 1_555 1_555
Ag4 N5 1_555 1_555
B1 F1 1_555 1_555
B2 F5 1_555 1_555
B3 F13 1_555 1_555
B4 F9 1_555 1_555
C1 H1 1_555 1_555
C2 C1 1_555 1_555
C3 C2 1_555 1_555
H2 C3 1_555 1_555
C4 C3 1_555 1_555
H3 C4 1_555 1_555
C5 C4 1_555 1_555
H4 C5 1_555 1_555
C6 C1 1_555 1_555
C7 C6 1_555 1_555
C8 H5 1_555 1_555
H6 C8 1_555 1_555
C9 C8 1_555 1_555
H7 C9 1_555 1_555
H8 C9 1_555 1_555
C10 H9 1_555 1_555
H10 C10 1_555 1_555
C11 C10 1_555 1_555
H11 C11 1_555 1_555
H12 C11 1_555 1_555
C12 C13 1_555 1_555
C13 C14 1_555 1_555
C14 H13 1_555 1_555
C15 C14 1_555 1_555
H14 C15 1_555 1_555
C16 C15 1_555 1_555
H15 C16 1_555 1_555
C17 C13 1_555 1_555
H16 C17 1_555 1_555
C18 C16 1_555 1_555
C19 C18 1_555 1_555
C20 H17 1_555 1_555
H18 C20 1_555 1_555
C21 C20 1_555 1_555
H19 C21 1_555 1_555
H20 C21 1_555 1_555
C22 H21 1_555 1_555
H22 C22 1_555 1_555
C23 C22 1_555 1_555
H23 C23 1_555 1_555
H24 C23 1_555 1_555
C24 C25 1_555 1_555
C25 C26 1_555 1_555
C26 H25 1_555 1_555
C27 C26 1_555 1_555
H26 C27 1_555 1_555
C28 C27 1_555 1_555
H27 C28 1_555 1_555
C29 C28 1_555 1_555
C30 C25 1_555 1_555
H28 C30 1_555 1_555
C31 C29 1_555 1_555
C32 H29 1_555 1_555
H30 C32 1_555 1_555
C33 C32 1_555 1_555
H31 C33 1_555 1_555
H32 C33 1_555 1_555
C34 H33 1_555 1_555
H34 C34 1_555 1_555
C35 C34 1_555 1_555
H35 C35 1_555 1_555
H36 C35 1_555 1_555
C36 C37 1_555 1_555
C37 C38 1_555 1_555
C38 H37 1_555 1_555
C39 C38 1_555 1_555
H38 C39 1_555 1_555
C40 C39 1_555 1_555
H39 C40 1_555 1_555
C41 C40 1_555 1_555
C42 C37 1_555 1_555
H40 C42 1_555 1_555
C43 C41 1_555 1_555
C44 H41 1_555 1_555
H42 C44 1_555 1_555
C45 C44 1_555 1_555
H43 C45 1_555 1_555
H44 C45 1_555 1_555
C46 C2 1_555 1_555
C47 H45 1_555 1_555
H46 C47 1_555 1_555
C48 C47 1_555 1_555
H47 C48 1_555 1_555
H48 C48 1_555 1_555
F2 B1 1_555 1_555
F3 B1 1_555 1_555
F4 B1 1_555 1_555
F6 B2 1_555 1_555
F7 B2 1_555 1_555
F8 B2 1_555 1_555
F10 B4 1_555 1_555
F11 B4 1_555 1_555
F12 B4 1_555 1_555
F14 B3 1_555 1_555
F15 B3 1_555 1_555
F16 B3 1_555 1_555
N1 C7 1_555 1_555
N2 Ag1 1_555 1_555
N3 C19 1_555 1_555
N4 Ag3 1_555 1_555
N5 C31 1_555 1_555
N6 Ag4 1_555 1_555
N7 C43 1_555 1_555
N8 C46 1_555 1_555
O1 C7 1_555 1_555
O2 C11 1_555 1_555
O3 C19 1_555 1_555
O4 C23 1_555 1_555
O5 C31 1_555 1_555
O6 C35 1_555 1_555
O7 C43 1_555 1_555
O8 C46 1_555 1_555
Ag2B N8 1_555 1_555
N8B Ag2 1_555 1_555
C5 C6 1_555 1_555
C8 O1 1_555 1_555
C9 N1 1_555 1_555
C10 N2 1_555 1_555
C12 N2 1_555 1_555
C12 O2 1_555 1_555
C17 C18 1_555 1_555
C20 O3 1_555 1_555
C21 N3 1_555 1_555
C22 N4 1_555 1_555
C24 N4 1_555 1_555
C24 O4 1_555 1_555
C29 C30 1_555 1_555
C32 O5 1_555 1_555
C33 N5 1_555 1_555
C34 N6 1_555 1_555
C36 N6 1_555 1_555
C36 O6 1_555 1_555
C41 C42 1_555 1_555
C44 O7 1_555 1_555
C45 N7 1_555 1_555
C47 N8 1_555 1_555
C48 O8 1_555 1_555

#END
