
#######################################################################
#
#                 Cambridge Crystallographic Data Centre
#                                CCDC 
#
#######################################################################
#
# If this CIF has been generated from an entry in the Cambridge 
# Structural Database, then it will include bibliographic, chemical, 
# crystal, experimental, refinement or atomic coordinate data resulting 
# from the CCDC's data processing and validation procedures.
#
#######################################################################

data_EXOYOG
_symmetry_cell_setting           monoclinic
_symmetry_space_group_name_H-M   'C 2/c'
_symmetry_Int_Tables_number      15
_space_group_name_Hall           '-C 2yn'
loop_
_symmetry_equiv_pos_site_id
_symmetry_equiv_pos_as_xyz
1 x,y,z
2 -x,y,1/2-z
3 1/2+x,1/2+y,z
4 1/2-x,1/2+y,1/2-z
5 -x,-y,-z
6 x,-y,1/2+z
7 1/2-x,1/2-y,-z
8 1/2+x,1/2-y,1/2+z
_cell_length_a                   23.958(5)
_cell_length_b                   16.023(5)
_cell_length_c                   11.832(2)
_cell_angle_alpha                90
_cell_angle_beta                 90.090(4)
_cell_angle_gamma                90
_cell_volume                     4542.05
loop_
_atom_site_label
_atom_site_type_symbol
_atom_site_fract_x
_atom_site_fract_y
_atom_site_fract_z
Gd1 Gd 0.168551(4) 0.217285(7) 0.012048(10)
O1 O 0.19262(8) 0.27616(11) -0.16414(16)
O2 O 0.27642(7) 0.33771(12) -0.16051(16)
O3 O 0.30135(8) 0.59881(11) -0.40640(17)
O4 O 0.22257(8) 0.66551(11) -0.44100(16)
O5 O 0.10051(8) 0.32806(11) -0.02679(17)
O6 O 0.07846(8) 0.20489(11) -0.09508(17)
N1 N 0.11007(10) 0.24773(16) 0.1903(2)
N2 N 0.12151(9) 0.08846(14) 0.1115(2)
C1 C 0.20707(10) 0.39273(15) -0.2822(2)
C2 C 0.15583(12) 0.38012(18) -0.3347(3)
H1 H 0.1350 0.3328 -0.3178
C3 C 0.13563(13) 0.43755(19) -0.4117(3)
H2 H 0.1017 0.4281 -0.4476
C4 C 0.16579(12) 0.50916(18) -0.4358(3)
H3 H 0.1519 0.5480 -0.4870
C5 C 0.21689(11) 0.52283(15) -0.3832(2)
C6 C 0.23800(10) 0.46380(15) -0.3081(2)
H4 H 0.2729 0.4718 -0.2752
C7 C 0.22709(11) 0.33054(15) -0.1958(2)
C8 C 0.24906(11) 0.60073(15) -0.4106(2)
C9 C 0.0000 0.4553(3) -0.2500
H5 H 0.0000 0.5134 -0.2500
C10 C 0.03225(15) 0.41244(19) -0.1732(3)
H6 H 0.0536 0.4417 -0.1208
C11 C 0.03326(10) 0.32596(16) -0.1733(2)
C12 C 0.0000 0.2828(2) -0.2500
H7 H 0.0000 0.2248 -0.2500
C13 C 0.07253(10) 0.28311(15) -0.0930(2)
C14 C 0.10319(15) 0.3256(2) 0.2266(3)
H8 H 0.1191 0.3688 0.1851
C15 C 0.07331(18) 0.3457(3) 0.3239(3)
H9 H 0.0698 0.4010 0.3466
C16 C 0.04968(18) 0.2846(3) 0.3842(4)
H10 H 0.0291 0.2976 0.4485
C17 C 0.05576(13) 0.2013(3) 0.3510(3)
C18 C 0.03368(17) 0.1321(4) 0.4125(4)
H11 H 0.0124 0.1417 0.4769
C19 C 0.04301(16) 0.0542(4) 0.3792(3)
H12 H 0.0288 0.0105 0.4222
C20 C 0.07438(14) 0.0352(3) 0.2790(3)
C21 C 0.08463(17) -0.0459(3) 0.2420(4)
H13 H 0.0726 -0.0910 0.2850
C22 C 0.11194(17) -0.0590(2) 0.1440(4)
H14 H 0.1191 -0.1130 0.1193
C23 C 0.12966(14) 0.01048(19) 0.0791(3)
H15 H 0.1478 0.0008 0.0108
C24 C 0.09473(11) 0.1015(2) 0.2124(3)
C25 C 0.08697(11) 0.1851(2) 0.2513(3)
Gd1F Gd 0.331449(4) 0.282715(7) -0.012048(10)
Gd1C Gd 0.331449(4) 0.717285(7) -0.512048(10)
Gd1E Gd 0.168551(4) 0.782715(7) -0.487952(10)
Gd1A Gd -0.168551(4) 0.217285(7) -0.512048(10)
Gd1E_2 Gd 0.168551(4) -0.217285(7) 0.512048(10)
Gd1C_2 Gd 0.331449(4) -0.282715(7) 0.487952(10)
O1F O 0.30738(8) 0.22384(11) 0.16414(16)
O2F O 0.22358(7) 0.16229(12) 0.16051(16)
O3F O 0.19865(8) -0.09881(11) 0.40640(17)
O3C O 0.19865(8) 0.09881(11) -0.09360(17)
O3E O 0.30135(8) 0.40119(11) 0.09360(17)
O4F O 0.27743(8) -0.16551(11) 0.44100(16)
O4C O 0.27743(8) 0.16551(11) -0.05900(16)
O4E O 0.22257(8) 0.33449(11) 0.05900(16)
O5A O -0.10051(8) 0.32806(11) -0.47321(17)
O5F O 0.39949(8) 0.17194(11) 0.02679(17)
O6A O -0.07846(8) 0.20489(11) -0.40492(17)
O6F O 0.42154(8) 0.29511(11) 0.09508(17)
N1F N 0.38993(10) 0.25227(16) -0.1903(2)
N2F N 0.37849(9) 0.41154(14) -0.1115(2)
C1F C 0.29293(10) 0.10727(15) 0.2822(2)
C2F C 0.34417(12) 0.11988(18) 0.3347(3)
H1F H 0.3650 0.1672 0.3178
C3F C 0.36437(13) 0.06245(19) 0.4117(3)
H2F H 0.3983 0.0719 0.4476
C4F C 0.33421(12) -0.00916(18) 0.4358(3)
H3F H 0.3481 -0.0480 0.4870
C5F C 0.28311(11) -0.02283(15) 0.3832(2)
C6F C 0.26200(10) 0.03620(15) 0.3081(2)
H4F H 0.2271 0.0282 0.2752
C7F C 0.27291(11) 0.16946(15) 0.1958(2)
C8F C 0.25094(11) -0.10073(15) 0.4106(2)
C10A C -0.03225(15) 0.41244(19) -0.3268(3)
H6A H -0.0536 0.4417 -0.3792
C11A C -0.03326(10) 0.32596(16) -0.3267(2)
C13A C -0.07253(10) 0.28311(15) -0.4070(2)
C14F C 0.39681(15) 0.1744(2) -0.2266(3)
H8F H 0.3809 0.1312 -0.1851
C15F C 0.42669(18) 0.1543(3) -0.3239(3)
H9F H 0.4302 0.0990 -0.3466
C16F C 0.45032(18) 0.2154(3) -0.3842(4)
H10F H 0.4709 0.2024 -0.4485
C17F C 0.44424(13) 0.2987(3) -0.3510(3)
C18F C 0.46632(17) 0.3679(4) -0.4125(4)
H11F H 0.4876 0.3583 -0.4769
C19F C 0.45699(16) 0.4458(4) -0.3792(3)
H12F H 0.4712 0.4895 -0.4222
C20F C 0.42562(14) 0.4648(3) -0.2790(3)
C21F C 0.41537(17) 0.5459(3) -0.2420(4)
H13F H 0.4274 0.5910 -0.2850
C22F C 0.38806(17) 0.5590(2) -0.1440(4)
H14F H 0.3809 0.6130 -0.1193
C23F C 0.37034(14) 0.48952(19) -0.0791(3)
H15F H 0.3522 0.4992 -0.0108
C24F C 0.40527(11) 0.3985(2) -0.2124(3)
C25F C 0.41303(11) 0.3149(2) -0.2513(3)
N3 N 0.2500 0.2500 -0.5000
C26 C 0.2553(6) 0.1915(13) -0.4232(15)
C26F C 0.2447(6) 0.3085(13) -0.5768(15)
C27? C 0.3155(4) 0.2938(8) -0.4563(8)
loop_
_geom_bond_atom_site_label_1
_geom_bond_atom_site_label_2
_geom_bond_site_symmetry_1
_geom_bond_site_symmetry_2
Gd1 O1 1_555 1_555
O1 C7 1_555 1_555
O2 C7 1_555 1_555
O3 C8 1_555 1_555
O4 C8 1_555 1_555
O5 Gd1 1_555 1_555
O6 Gd1 1_555 1_555
N1 Gd1 1_555 1_555
N2 Gd1 1_555 1_555
N3 C26 1_555 1_555
C1 C2 1_555 1_555
C2 H1 1_555 1_555
C3 C2 1_555 1_555
H2 C3 1_555 1_555
C4 C3 1_555 1_555
H3 C4 1_555 1_555
C5 C4 1_555 1_555
C6 C1 1_555 1_555
H4 C6 1_555 1_555
C7 C1 1_555 1_555
C8 C5 1_555 1_555
C9 H5 1_555 1_555
C10 C9 1_555 1_555
H6 C10 1_555 1_555
C11 C10 1_555 1_555
C12 C11 1_555 1_555
H7 C12 1_555 1_555
C13 O5 1_555 1_555
C14 N1 1_555 1_555
H8 C14 1_555 1_555
C15 C14 1_555 1_555
H9 C15 1_555 1_555
C16 C15 1_555 1_555
H10 C16 1_555 1_555
C17 C16 1_555 1_555
C18 C17 1_555 1_555
H11 C18 1_555 1_555
C19 C18 1_555 1_555
H12 C19 1_555 1_555
C20 C19 1_555 1_555
C21 C20 1_555 1_555
H13 C21 1_555 1_555
C22 C21 1_555 1_555
H14 C22 1_555 1_555
C23 N2 1_555 1_555
H15 C23 1_555 1_555
C24 N2 1_555 1_555
C25 N1 1_555 1_555
Gd1F O2 1_555 1_555
Gd1C O3 1_555 1_555
Gd1E O4 1_555 1_555
Gd1A O5A 1_555 1_555
Gd1E_2 O3F 1_555 1_555
Gd1C_2 O4F 1_555 1_555
O1F Gd1F 1_555 1_555
O2F Gd1 1_555 1_555
O3F C8F 1_555 1_555
O3C Gd1 1_555 1_555
O3E Gd1F 1_555 1_555
O4F Gd1E_2 1_555 1_555
O4C Gd1 1_555 1_555
O4E Gd1 1_555 1_555
O5A C13A 1_555 1_555
O5F Gd1F 1_555 1_555
O6A Gd1A 1_555 1_555
O6F Gd1F 1_555 1_555
N1F Gd1F 1_555 1_555
N2F Gd1F 1_555 1_555
C1F C2F 1_555 1_555
C2F H1F 1_555 1_555
C3F C2F 1_555 1_555
H2F C3F 1_555 1_555
C4F C3F 1_555 1_555
H3F C4F 1_555 1_555
C5F C4F 1_555 1_555
C6F C1F 1_555 1_555
H4F C6F 1_555 1_555
C7F O1F 1_555 1_555
C8F O4F 1_555 1_555
C10A C9 1_555 1_555
H6A C10A 1_555 1_555
C11A C12 1_555 1_555
C13A O6A 1_555 1_555
C14F N1F 1_555 1_555
H8F C14F 1_555 1_555
C15F C14F 1_555 1_555
H9F C15F 1_555 1_555
C16F C15F 1_555 1_555
H10F C16F 1_555 1_555
C17F C16F 1_555 1_555
C18F C17F 1_555 1_555
H11F C18F 1_555 1_555
C19F C18F 1_555 1_555
H12F C19F 1_555 1_555
C20F C19F 1_555 1_555
C21F C20F 1_555 1_555
H13F C21F 1_555 1_555
C22F C21F 1_555 1_555
H14F C22F 1_555 1_555
C23F N2F 1_555 1_555
H15F C23F 1_555 1_555
C24F N2F 1_555 1_555
C25F N1F 1_555 1_555
C26F N3 1_555 1_555
O4 Gd1C 1_555 1_555
O6 C13 1_555 1_555
C5 C6 1_555 1_555
C11 C13 1_555 1_555
C17 C25 1_555 1_555
C20 C24 1_555 1_555
C22 C23 1_555 1_555
C24 C25 1_555 1_555
Gd1F O4C 1_555 1_555
Gd1F O4E 1_555 1_555
O2F C7F 1_555 1_555
C1F C7F 1_555 1_555
C5F C6F 1_555 1_555
C5F C8F 1_555 1_555
C10A C11A 1_555 1_555
C11A C13A 1_555 1_555
C17F C25F 1_555 1_555
C20F C24F 1_555 1_555
C22F C23F 1_555 1_555
C24F C25F 1_555 1_555

#END
