
#######################################################################
#
#                 Cambridge Crystallographic Data Centre
#                                CCDC 
#
#######################################################################
#
# If this CIF has been generated from an entry in the Cambridge 
# Structural Database, then it will include bibliographic, chemical, 
# crystal, experimental, refinement or atomic coordinate data resulting 
# from the CCDC's data processing and validation procedures.
#
#######################################################################

data_EXOYAS
_symmetry_cell_setting           monoclinic
_symmetry_space_group_name_H-M   'P 21/c'
_symmetry_Int_Tables_number      14
_space_group_name_Hall           '-P 2ybc'
loop_
_symmetry_equiv_pos_site_id
_symmetry_equiv_pos_as_xyz
1 x,y,z
2 -x,1/2+y,1/2-z
3 -x,-y,-z
4 x,1/2-y,1/2+z
_cell_length_a                   5.253(2)
_cell_length_b                   11.699(5)
_cell_length_c                   16.359(7)
_cell_angle_alpha                90
_cell_angle_beta                 93.268(5)
_cell_angle_gamma                90
_cell_volume                     1003.7
loop_
_atom_site_label
_atom_site_type_symbol
_atom_site_fract_x
_atom_site_fract_y
_atom_site_fract_z
C1 C 1.0437(16) 0.5672(7) 0.6927(4)
C2 C 0.8605(15) 0.5490(7) 0.7594(5)
C3 C 0.7440(16) 0.4459(6) 0.7667(5)
H1 H 0.7894 0.3859 0.7332
C4 C 0.5597(15) 0.4279(7) 0.8226(5)
C5 C 0.4990(15) 0.5173(7) 0.8732(5)
H2 H 0.3766 0.5060 0.9113
C6 C 0.6130(15) 0.6217(7) 0.8689(5)
C7 C 0.7992(16) 0.6392(7) 0.8117(5)
H3 H 0.8809 0.7094 0.8086
C8 C 0.5426(16) 0.7181(7) 0.9239(5)
Cu1 Cu 1.2560(2) 0.45876(9) 0.53872(6)
Cu2 Cu 0.6746(2) 0.20847(9) 0.91877(7)
N1 N 0.4506(12) 0.3183(6) 0.8305(4)
H4 H 0.3437 0.3060 0.8675
H5 H 0.4912 0.2639 0.7984
O1 O 1.1262(12) 0.6677(5) 0.6806(3)
O2 O 1.0962(11) 0.4805(5) 0.6524(3)
O3 O 0.5688(12) 0.8178(5) 0.8994(4)
O4 O 0.4641(14) 0.6890(5) 0.9910(4)
O5 O 1.5585(10) 0.5698(5) 0.5694(3)
H6 H 1.5985 0.5341 0.6120
O6 O 0.9145(10) 0.3822(5) 0.5039(3)
H7 H 0.9009 0.3822 0.5536
O7 O 0.9853(17) 0.3574(11) 0.9415(6)
H8 H 0.8931 0.3871 0.9743
H9 H 1.0754 0.3103 0.9665
Cu1A Cu 0.7440(2) 0.95876(9) 0.96128(6)
Cu1B Cu 1.7440(2) 0.54124(9) 0.46128(6)
Cu1B_2 Cu 0.7440(2) 0.54124(9) 0.46128(6)
Cu2A Cu 1.3254(2) 0.70847(9) 0.58123(7)
Cu2B Cu 0.3254(2) 0.79153(9) 1.08123(7)
Cu2C Cu 0.6746(2) 0.29153(9) 0.41877(7)
O1A O 0.8738(12) 0.1677(5) 0.8194(3)
O3A O 1.4312(12) 0.3178(5) 0.6006(4)
O4B O 0.5359(14) 0.3110(5) 1.0090(4)
O5B O 1.4415(10) 0.4302(5) 0.4306(3)
O5A O 0.4415(10) 0.0698(5) 0.9306(3)
H6B H 1.4015 0.4659 0.3880
H6A H 0.4015 0.0341 0.8880
O6B O 1.0855(10) 0.6178(5) 0.4961(3)
O6C O 0.9145(10) 0.1178(5) 1.0039(3)
H7B H 1.0991 0.6178 0.4464
H7C H 0.9009 0.1178 1.0536
loop_
_geom_bond_atom_site_label_1
_geom_bond_atom_site_label_2
_geom_bond_site_symmetry_1
_geom_bond_site_symmetry_2
C1 C2 1_555 1_555
C2 C3 1_555 1_555
C3 H1 1_555 1_555
C4 C3 1_555 1_555
C5 C4 1_555 1_555
H2 C5 1_555 1_555
C6 C5 1_555 1_555
C7 C2 1_555 1_555
H3 C7 1_555 1_555
C8 C6 1_555 1_555
Cu1 O2 1_555 1_555
Cu2 N1 1_555 1_555
N1 C4 1_555 1_555
H4 N1 1_555 1_555
H5 N1 1_555 1_555
O1 C1 1_555 1_555
O2 C1 1_555 1_555
O3 C8 1_555 1_555
O4 C8 1_555 1_555
O5 Cu1 1_555 1_555
H6 O5 1_555 1_555
O6 Cu1 1_555 1_555
H7 O6 1_555 1_555
O7 Cu2 1_555 1_555
H8 O7 1_555 1_555
H9 O7 1_555 1_555
Cu1A O3 1_555 1_555
Cu1B O5 1_555 1_555
Cu1B_2 O6 1_555 1_555
Cu2A O1 1_555 1_555
Cu2B O4 1_555 1_555
Cu2C O6 1_555 1_555
O1A Cu2 1_555 1_555
O3A Cu1 1_555 1_555
O4B Cu2 1_555 1_555
O5B Cu1 1_555 1_555
O5A Cu2 1_555 1_555
H6B O5B 1_555 1_555
H6A O5A 1_555 1_555
O6B Cu1 1_555 1_555
O6C Cu2 1_555 1_555
H7B O6B 1_555 1_555
H7C O6C 1_555 1_555
C6 C7 1_555 1_555
O5 Cu2A 1_555 1_555
Cu1B O5B 1_555 1_555
Cu1B_2 O6B 1_555 1_555
Cu2A O6B 1_555 1_555

#END
