
#######################################################################
#
#                 Cambridge Crystallographic Data Centre
#                                CCDC 
#
#######################################################################
#
# If this CIF has been generated from an entry in the Cambridge 
# Structural Database, then it will include bibliographic, chemical, 
# crystal, experimental, refinement or atomic coordinate data resulting 
# from the CCDC's data processing and validation procedures.
#
#######################################################################

data_EXOYOF
_symmetry_cell_setting           triclinic
_symmetry_space_group_name_H-M   'P -1'
_symmetry_Int_Tables_number      2
_space_group_name_Hall           '-P 1'
loop_
_symmetry_equiv_pos_site_id
_symmetry_equiv_pos_as_xyz
1 x,y,z
2 -x,-y,-z
_cell_length_a                   6.7451(6)
_cell_length_b                   7.7744(7)
_cell_length_c                   8.0605(7)
_cell_angle_alpha                88.794(2)
_cell_angle_beta                 84.323(2)
_cell_angle_gamma                88.052(2)
_cell_volume                     420.303
loop_
_atom_site_label
_atom_site_type_symbol
_atom_site_fract_x
_atom_site_fract_y
_atom_site_fract_z
Cu1 Cu 0.14911(6) 0.01279(5) 0.17231(6)
N1 N 0.3780(4) 0.1590(4) 0.1255(4)
O1 O 0.6913(4) 0.1506(3) -0.0209(3)
N2 N -0.0744(5) -0.1454(4) 0.2054(5)
C1 C 0.5220(5) 0.0896(4) 0.0298(4)
N3 N -0.0367(5) 0.2019(4) 0.2575(4)
H1 H -0.1194 0.2257 0.1784
H2 H -0.1117 0.1594 0.3465
C2 C 0.3976(6) 0.3343(5) 0.1858(5)
H3 H 0.4996 0.3925 0.1143
H4 H 0.4389 0.3283 0.2977
C3 C 0.2021(7) 0.4364(5) 0.1869(6)
H5 H 0.2245 0.5547 0.2141
H6 H 0.1589 0.4367 0.0757
C4 C 0.0385(7) 0.3689(5) 0.3076(6)
H7 H 0.0872 0.3545 0.4164
H8 H -0.0713 0.4532 0.3174
N4 N -0.3793(5) -0.2759(5) 0.3261(5)
C5 C -0.2221(6) -0.1978(5) 0.2653(5)
C6 C -0.5441(7) -0.1878(6) 0.3802(5)
N5 N -0.6954(5) -0.1242(5) 0.4259(5)
C1A C 0.4780(5) -0.0896(4) -0.0298(4)
N1A N 0.6220(4) -0.1590(4) -0.1255(4)
C2A C 0.6024(6) -0.3343(5) -0.1858(5)
H3A H 0.5004 -0.3925 -0.1143
H4A H 0.5611 -0.3283 -0.2977
C3A C 0.7979(7) -0.4364(5) -0.1869(6)
H5A H 0.7755 -0.5547 -0.2141
H6A H 0.8411 -0.4367 -0.0757
C4A C 0.9615(7) -0.3689(5) -0.3076(6)
N3A N 1.0367(5) -0.2019(4) -0.2575(4)
H1A H 1.1194 -0.2257 -0.1784
H2A H 1.1117 -0.1594 -0.3465
H7A H 0.9128 -0.3545 -0.4164
H8A H 1.0713 -0.4532 -0.3174
O1A O 0.3087(4) -0.1506(3) 0.0209(3)
N2_2 N 0.9256(5) -0.1454(4) 0.2054(5)
N4_2 N 0.6207(5) -0.2759(5) 0.3261(5)
C5_2 C 0.7779(6) -0.1978(5) 0.2653(5)
C6_2 C 0.4559(7) -0.1878(6) 0.3802(5)
N5_2 N 0.3046(5) -0.1242(5) 0.4259(5)
Cu1A Cu 0.85089(6) -0.01279(5) -0.17231(6)
Cu1_2 Cu -0.85089(6) 0.01279(5) 0.17231(6)
Cu1_3 Cu 1.14911(6) 0.01279(5) 0.17231(6)
N2A N 1.0744(5) 0.1454(4) -0.2054(5)
N5A N 0.6954(5) 0.1242(5) -0.4259(5)
loop_
_geom_bond_atom_site_label_1
_geom_bond_atom_site_label_2
_geom_bond_site_symmetry_1
_geom_bond_site_symmetry_2
Cu1 N1 1_555 1_555
N1 C1 1_555 1_555
O1 C1 1_555 1_555
N2 Cu1 1_555 1_555
C1 C1A 1_555 1_555
N3 Cu1 1_555 1_555
H1 N3 1_555 1_555
H2 N3 1_555 1_555
C2 N1 1_555 1_555
H3 C2 1_555 1_555
H4 C2 1_555 1_555
C3 C2 1_555 1_555
H5 C3 1_555 1_555
H6 C3 1_555 1_555
C4 N3 1_555 1_555
H7 C4 1_555 1_555
H8 C4 1_555 1_555
N4 C5 1_555 1_555
C5 N2 1_555 1_555
C6 N4 1_555 1_555
N5 C6 1_555 1_555
C1A N1A 1_555 1_555
N1A C2A 1_555 1_555
C2A H3A 1_555 1_555
H4A C2A 1_555 1_555
C3A C2A 1_555 1_555
H5A C3A 1_555 1_555
H6A C3A 1_555 1_555
C4A C3A 1_555 1_555
N3A C4A 1_555 1_555
H1A N3A 1_555 1_555
H2A N3A 1_555 1_555
H7A C4A 1_555 1_555
H8A C4A 1_555 1_555
O1A Cu1 1_555 1_555
N2_2 C5_2 1_555 1_555
N4_2 C5_2 1_555 1_555
C6_2 N4_2 1_555 1_555
N5_2 Cu1 1_555 1_555
Cu1A O1 1_555 1_555
Cu1_2 N5 1_555 1_555
Cu1_3 N2_2 1_555 1_555
N2A Cu1A 1_555 1_555
N5A Cu1A 1_555 1_555
C3 C4 1_555 1_555
C1A O1A 1_555 1_555
N1A Cu1A 1_555 1_555
N3A Cu1A 1_555 1_555
C6_2 N5_2 1_555 1_555

#END
