
#######################################################################
#
#                 Cambridge Crystallographic Data Centre
#                                CCDC 
#
#######################################################################
#
# If this CIF has been generated from an entry in the Cambridge 
# Structural Database, then it will include bibliographic, chemical, 
# crystal, experimental, refinement or atomic coordinate data resulting 
# from the CCDC's data processing and validation procedures.
#
#######################################################################

data_EXOYUM
_symmetry_cell_setting           monoclinic
_symmetry_space_group_name_H-M   'C 2/c'
_symmetry_Int_Tables_number      15
_space_group_name_Hall           '-C 2yn'
loop_
_symmetry_equiv_pos_site_id
_symmetry_equiv_pos_as_xyz
1 x,y,z
2 -x,y,1/2-z
3 1/2+x,1/2+y,z
4 1/2-x,1/2+y,1/2-z
5 -x,-y,-z
6 x,-y,1/2+z
7 1/2-x,1/2-y,-z
8 1/2+x,1/2-y,1/2+z
_cell_length_a                   24.002(5)
_cell_length_b                   16.018(4)
_cell_length_c                   11.786(3)
_cell_angle_alpha                90
_cell_angle_beta                 90.115(5)
_cell_angle_gamma                90
_cell_volume                     4531.28
loop_
_atom_site_label
_atom_site_type_symbol
_atom_site_fract_x
_atom_site_fract_y
_atom_site_fract_z
Tb1 Tb 0.168449(5) 0.217421(7) 0.487961(11)
C1 C 0.29248(12) 0.10720(18) 0.2185(3)
C2 C 0.34364(14) 0.1206(2) 0.1660(3)
H1 H 0.3642 0.1682 0.1830
C3 C 0.36384(15) 0.0633(2) 0.0886(4)
H2 H 0.3976 0.0731 0.0525
C4 C 0.33420(15) -0.0085(2) 0.0647(3)
H3 H 0.3483 -0.0472 0.0133
C5 C 0.28326(13) -0.02293(18) 0.1175(3)
C6 C 0.26195(12) 0.03583(17) 0.1926(3)
H4 H 0.2272 0.0274 0.2255
C7 C 0.27240(13) 0.16916(18) 0.3055(3)
C8 C 0.25172(13) -0.10150(18) 0.0900(3)
C9 C 0.0000 0.4548(3) 0.7500
H5 H 0.0000 0.5129 0.7500
C10 C 0.03264(18) 0.4119(2) 0.6736(4)
H6 H 0.0543 0.4412 0.6218
C11 C 0.03341(12) 0.32541(19) 0.6736(3)
C12 C 0.0000 0.2822(2) 0.7500
H7 H 0.0000 0.2242 0.7500
C13 C 0.07299(12) 0.28271(17) 0.5936(3)
C14 C 0.10340(18) 0.3256(3) 0.2736(3)
H8 H 0.1194 0.3688 0.3150
C15 C 0.0732(2) 0.3454(3) 0.1763(4)
H9 H 0.0696 0.4008 0.1538
C16 C 0.0495(2) 0.2847(4) 0.1153(4)
H10 H 0.0290 0.2977 0.0507
C17 C 0.05570(17) 0.2013(3) 0.1493(4)
C18 C 0.0333(2) 0.1316(4) 0.0883(4)
H11 H 0.0114 0.1410 0.0245
C19 C 0.0432(2) 0.0540(4) 0.1211(4)
H12 H 0.0295 0.0103 0.0773
C20 C 0.07443(17) 0.0352(3) 0.2222(4)
C21 C 0.0850(2) -0.0457(3) 0.2592(4)
H13 H 0.0731 -0.0910 0.2159
C22 C 0.1125(2) -0.0589(3) 0.3577(5)
H14 H 0.1199 -0.1129 0.3824
C23 C 0.12998(16) 0.0110(2) 0.4227(4)
H15 H 0.1480 0.0016 0.4915
C24 C 0.09508(13) 0.1017(2) 0.2887(3)
C25 C 0.08721(14) 0.1852(3) 0.2492(3)
O1 O 0.22340(9) 0.16158(13) 0.34139(19)
O2 O 0.30690(10) 0.22384(12) 0.33709(19)
O3 O 0.27902(10) -0.16579(12) 0.06106(19)
O4 O 0.19968(9) -0.10036(13) 0.0928(2)
O5 O 0.07927(9) 0.20461(13) 0.5959(2)
O6 O 0.10107(9) 0.32775(13) 0.52748(19)
N1 N 0.11045(12) 0.24787(19) 0.3101(2)
N2 N 0.12172(11) 0.08890(17) 0.3897(3)
Tb1F Tb 0.331551(5) 0.282579(7) 0.512039(11)
Tb1E Tb 0.168449(5) -0.217421(7) -0.012039(11)
Tb1C Tb 0.331551(5) -0.282579(7) 0.012039(11)
Tb1A Tb -0.168449(5) 0.217421(7) 1.012039(11)
Tb1C_2 Tb 0.331551(5) 0.717421(7) 1.012039(11)
Tb1E_2 Tb 0.168449(5) 0.782579(7) 0.987961(11)
C1F C 0.20752(12) 0.39280(18) 0.7815(3)
C2F C 0.15636(14) 0.3794(2) 0.8340(3)
H1F H 0.1358 0.3318 0.8170
C3F C 0.13616(15) 0.4367(2) 0.9114(4)
H2F H 0.1024 0.4269 0.9475
C4F C 0.16580(15) 0.5085(2) 0.9353(3)
H3F H 0.1517 0.5472 0.9867
C5F C 0.21674(13) 0.52293(18) 0.8825(3)
C6F C 0.23805(12) 0.46417(17) 0.8074(3)
H4F H 0.2728 0.4726 0.7745
C7F C 0.22760(13) 0.33084(18) 0.6945(3)
C8F C 0.24828(13) 0.60150(18) 0.9100(3)
C10A C -0.03264(18) 0.4119(2) 0.8264(4)
H6A H -0.0543 0.4412 0.8782
C11A C -0.03341(12) 0.32541(19) 0.8264(3)
C13A C -0.07299(12) 0.28271(17) 0.9064(3)
C14F C 0.39660(18) 0.1744(3) 0.7264(3)
H8F H 0.3806 0.1312 0.6850
C15F C 0.4268(2) 0.1546(3) 0.8237(4)
H9F H 0.4304 0.0992 0.8462
C16F C 0.4505(2) 0.2153(4) 0.8847(4)
H10F H 0.4710 0.2023 0.9493
C17F C 0.44430(17) 0.2987(3) 0.8507(4)
C18F C 0.4667(2) 0.3684(4) 0.9117(4)
H11F H 0.4886 0.3590 0.9755
C19F C 0.4568(2) 0.4460(4) 0.8789(4)
H12F H 0.4705 0.4897 0.9227
C20F C 0.42557(17) 0.4648(3) 0.7778(4)
C21F C 0.4150(2) 0.5457(3) 0.7408(4)
H13F H 0.4269 0.5910 0.7841
C22F C 0.3875(2) 0.5589(3) 0.6423(5)
H14F H 0.3801 0.6129 0.6176
C23F C 0.37002(16) 0.4890(2) 0.5773(4)
H15F H 0.3520 0.4984 0.5085
C24F C 0.40492(13) 0.3983(2) 0.7113(3)
C25F C 0.41279(14) 0.3148(3) 0.7508(3)
O1F O 0.27660(9) 0.33842(13) 0.65861(19)
O2F O 0.19310(10) 0.27616(12) 0.66291(19)
O3F O 0.22098(10) 0.66579(12) 0.93894(19)
O3E O 0.27902(10) 0.16579(12) 0.56106(19)
O3C O 0.22098(10) 0.33421(12) 0.43894(19)
O4F O 0.30032(9) 0.60036(13) 0.9072(2)
O4E O 0.19968(9) 0.10036(13) 0.5928(2)
O4C O 0.30032(9) 0.39964(13) 0.4072(2)
O5A O -0.07927(9) 0.20461(13) 0.9041(2)
O5F O 0.42073(9) 0.29539(13) 0.4041(2)
O6A O -0.10107(9) 0.32775(13) 0.97252(19)
O6F O 0.39893(9) 0.17225(13) 0.47252(19)
N1F N 0.38955(12) 0.25213(19) 0.6899(2)
N2F N 0.37828(11) 0.41110(17) 0.6103(3)
N3 N 0.2500 0.2500 1.0000
C27 C 0.2553(7) 0.1925(14) 0.9235(17)
C27F C 0.2447(7) 0.3075(14) 1.0765(17)
C26? C 0.3153(5) 0.2933(9) 0.9548(9)
loop_
_geom_bond_atom_site_label_1
_geom_bond_atom_site_label_2
_geom_bond_site_symmetry_1
_geom_bond_site_symmetry_2
Tb1 O1 1_555 1_555
C1 C2 1_555 1_555
C2 H1 1_555 1_555
C3 C2 1_555 1_555
H2 C3 1_555 1_555
C4 C3 1_555 1_555
H3 C4 1_555 1_555
C5 C4 1_555 1_555
C6 C1 1_555 1_555
H4 C6 1_555 1_555
C7 C1 1_555 1_555
C8 C5 1_555 1_555
C9 H5 1_555 1_555
C10 C9 1_555 1_555
H6 C10 1_555 1_555
C11 C10 1_555 1_555
C12 C11 1_555 1_555
H7 C12 1_555 1_555
C13 C11 1_555 1_555
C14 H8 1_555 1_555
C15 C14 1_555 1_555
H9 C15 1_555 1_555
C16 C15 1_555 1_555
H10 C16 1_555 1_555
C17 C16 1_555 1_555
C18 C17 1_555 1_555
H11 C18 1_555 1_555
C19 C18 1_555 1_555
H12 C19 1_555 1_555
C20 C19 1_555 1_555
C21 C20 1_555 1_555
H13 C21 1_555 1_555
C22 C21 1_555 1_555
H14 C22 1_555 1_555
C23 C22 1_555 1_555
H15 C23 1_555 1_555
C24 C20 1_555 1_555
C25 C17 1_555 1_555
O1 C7 1_555 1_555
O2 C7 1_555 1_555
O3 C8 1_555 1_555
O4 C8 1_555 1_555
O5 Tb1 1_555 1_555
O6 Tb1 1_555 1_555
N1 Tb1 1_555 1_555
N2 Tb1 1_555 1_555
N3 C27 1_555 1_555
Tb1F O2 1_555 1_555
Tb1E O3 1_555 1_555
Tb1C O3 1_555 1_555
Tb1A O5A 1_555 1_555
Tb1C_2 O3F 1_555 1_555
Tb1E_2 O3F 1_555 1_555
C1F C2F 1_555 1_555
C2F H1F 1_555 1_555
C3F C2F 1_555 1_555
H2F C3F 1_555 1_555
C4F C3F 1_555 1_555
H3F C4F 1_555 1_555
C5F C4F 1_555 1_555
C6F C1F 1_555 1_555
H4F C6F 1_555 1_555
C7F C1F 1_555 1_555
C8F C5F 1_555 1_555
C10A C9 1_555 1_555
H6A C10A 1_555 1_555
C11A C12 1_555 1_555
C13A C11A 1_555 1_555
C14F H8F 1_555 1_555
C15F C14F 1_555 1_555
H9F C15F 1_555 1_555
C16F C15F 1_555 1_555
H10F C16F 1_555 1_555
C17F C16F 1_555 1_555
C18F C17F 1_555 1_555
H11F C18F 1_555 1_555
C19F C18F 1_555 1_555
H12F C19F 1_555 1_555
C20F C19F 1_555 1_555
C21F C20F 1_555 1_555
H13F C21F 1_555 1_555
C22F C21F 1_555 1_555
H14F C22F 1_555 1_555
C23F C22F 1_555 1_555
H15F C23F 1_555 1_555
C24F C20F 1_555 1_555
C25F C17F 1_555 1_555
O1F Tb1F 1_555 1_555
O2F Tb1 1_555 1_555
O3F C8F 1_555 1_555
O3E Tb1 1_555 1_555
O3C Tb1 1_555 1_555
O4F Tb1C_2 1_555 1_555
O4E Tb1 1_555 1_555
O4C Tb1F 1_555 1_555
O5A C13A 1_555 1_555
O5F Tb1F 1_555 1_555
O6A Tb1A 1_555 1_555
O6F Tb1F 1_555 1_555
N1F Tb1F 1_555 1_555
N2F Tb1F 1_555 1_555
C27F N3 1_555 1_555
C5 C6 1_555 1_555
C13 O5 1_555 1_555
C13 O6 1_555 1_555
C14 N1 1_555 1_555
C23 N2 1_555 1_555
C24 C25 1_555 1_555
C24 N2 1_555 1_555
C25 N1 1_555 1_555
O4 Tb1E 1_555 1_555
Tb1F O3E 1_555 1_555
Tb1F O3C 1_555 1_555
C5F C6F 1_555 1_555
C7F O1F 1_555 1_555
C7F O2F 1_555 1_555
C8F O4F 1_555 1_555
C10A C11A 1_555 1_555
C13A O6A 1_555 1_555
C14F N1F 1_555 1_555
C23F N2F 1_555 1_555
C24F C25F 1_555 1_555
C24F N2F 1_555 1_555
C25F N1F 1_555 1_555

#END
