
#######################################################################
#
#                 Cambridge Crystallographic Data Centre
#                                CCDC 
#
#######################################################################
#
# If this CIF has been generated from an entry in the Cambridge 
# Structural Database, then it will include bibliographic, chemical, 
# crystal, experimental, refinement or atomic coordinate data resulting 
# from the CCDC's data processing and validation procedures.
#
#######################################################################

data_EXUBEE
_symmetry_cell_setting           triclinic
_symmetry_space_group_name_H-M   'P -1'
_symmetry_Int_Tables_number      2
_space_group_name_Hall           '-P 1'
loop_
_symmetry_equiv_pos_site_id
_symmetry_equiv_pos_as_xyz
1 x,y,z
2 -x,-y,-z
_cell_length_a                   6.8990(9)
_cell_length_b                   6.9441(6)
_cell_length_c                   9.6383(10)
_cell_angle_alpha                85.517(8)
_cell_angle_beta                 71.498(9)
_cell_angle_gamma                67.037(8)
_cell_volume                     402.629
loop_
_atom_site_label
_atom_site_type_symbol
_atom_site_fract_x
_atom_site_fract_y
_atom_site_fract_z
Ba1 Ba 0.19564(9) 0.69341(8) 0.49723(7)
C1 C 0.3930(18) 0.1007(19) 0.5118(12)
O1 O 0.4107(13) 0.2747(12) 0.5167(9)
O2 O 0.2211(12) 0.0772(12) 0.5164(9)
O3 O 0.3841(16) 0.5406(16) 0.7351(10)
H1 H 0.38(3) 0.640(15) 0.776(14)
H2 H 0.38(3) 0.445(16) 0.789(12)
O4 O 0.1388(18) 0.9715(17) 0.2599(10)
H3 H 0.06(2) 0.97(3) 0.213(13)
H4 H 0.23(2) 1.02(3) 0.211(13)
O5 O 0.1047(14) 0.4702(13) 0.3054(10)
H5 H 0.218(16) 0.364(15) 0.282(13)
H6 H 0.07(2) 0.52(2) 0.232(9)
C1A C 0.6070(18) -0.1007(19) 0.4882(12)
O1A O 0.5893(13) -0.2747(12) 0.4833(9)
O2A O 0.7789(12) -0.0772(12) 0.4836(9)
O3A O 0.6159(16) 0.4594(16) 0.2649(10)
H1A H 0.62(3) 0.360(15) 0.224(14)
H2A H 0.62(3) 0.555(16) 0.211(12)
O4A O -0.1388(18) 1.0285(17) 0.7401(10)
H3A H -0.06(2) 1.03(3) 0.787(13)
H4A H -0.23(2) 0.98(3) 0.789(13)
O5A O -0.1047(14) 0.5298(13) 0.6946(10)
H5A H -0.218(16) 0.636(15) 0.718(13)
H6A H -0.07(2) 0.48(2) 0.768(9)
Ba1A Ba 0.80436(9) -0.69341(8) 0.50277(7)
O1A_2 O 0.5893(13) 0.7253(12) 0.4833(9)
O2_2 O 0.2211(12) 1.0772(12) 0.5164(9)
O2A_2 O -0.2211(12) 0.9228(12) 0.4836(9)
Ba1A_2 Ba 0.80436(9) 0.30659(8) 0.50277(7)
Ba1_2 Ba 0.19564(9) -0.30659(8) 0.49723(7)
Ba1A_3 Ba -0.19564(9) 0.30659(8) 0.50277(7)
Ba1A_4 Ba -0.19564(9) 1.30659(8) 0.50277(7)
Ba1_3 Ba 1.19564(9) -0.30659(8) 0.49723(7)
O1_2 O 0.4107(13) -0.7253(12) 0.5167(9)
O2_3 O 1.2211(12) -0.9228(12) 0.5164(9)
O2A_3 O 0.7789(12) -1.0772(12) 0.4836(9)
O3_2 O 0.3841(16) -0.4594(16) 0.7351(10)
O3A_2 O 0.6159(16) -0.5406(16) 0.2649(10)
O4_2 O 1.1388(18) -1.0285(17) 0.2599(10)
O4A_2 O 0.8612(18) -0.9715(17) 0.7401(10)
O5_2 O 1.1047(14) -0.5298(13) 0.3054(10)
O5A_2 O 0.8953(14) -0.4702(13) 0.6946(10)
H1_2 H 0.38(3) -0.360(15) 0.776(14)
H2_2 H 0.38(3) -0.555(16) 0.789(12)
H1A_2 H 0.62(3) -0.640(15) 0.224(14)
H2A_2 H 0.62(3) -0.445(16) 0.211(12)
H3_2 H 1.06(2) -1.03(3) 0.213(13)
H4_2 H 1.23(2) -0.98(3) 0.211(13)
H3A_2 H 0.94(2) -0.97(3) 0.787(13)
H4A_2 H 0.77(2) -1.02(3) 0.789(13)
H5_2 H 1.218(16) -0.636(15) 0.282(13)
H6_2 H 1.07(2) -0.48(2) 0.232(9)
H5A_2 H 0.782(16) -0.364(15) 0.718(13)
H6A_2 H 0.93(2) -0.52(2) 0.768(9)
N1 N 0.478(2) -0.1252(18) 0.8393(14)
C2 C 0.327(2) 0.0227(18) 0.8799(14)
S1 S 0.1100(6) 0.2401(6) 0.9390(4)
loop_
_geom_bond_atom_site_label_1
_geom_bond_atom_site_label_2
_geom_bond_site_symmetry_1
_geom_bond_site_symmetry_2
Ba1 O1 1_555 1_555
C1 O1 1_555 1_555
O1 Ba1A_2 1_555 1_555
O2 C1 1_555 1_555
O3 Ba1 1_555 1_555
H1 O3 1_555 1_555
H2 O3 1_555 1_555
O4 Ba1 1_555 1_555
H3 O4 1_555 1_555
H4 O4 1_555 1_555
O5 Ba1 1_555 1_555
H5 O5 1_555 1_555
H6 O5 1_555 1_555
N1 C2 1_555 1_555
C2 S1 1_555 1_555
C1A C1 1_555 1_555
O1A C1A 1_555 1_555
O2A C1A 1_555 1_555
O3A Ba1 1_555 1_555
H1A O3A 1_555 1_555
H2A O3A 1_555 1_555
O4A Ba1 1_555 1_555
H3A O4A 1_555 1_555
H4A O4A 1_555 1_555
O5A Ba1 1_555 1_555
H5A O5A 1_555 1_555
H6A O5A 1_555 1_555
Ba1A O1A 1_555 1_555
O1A_2 Ba1 1_555 1_555
O2_2 Ba1 1_555 1_555
O2A_2 Ba1 1_555 1_555
Ba1A_2 O3 1_555 1_555
Ba1_2 O2 1_555 1_555
Ba1A_3 O2 1_555 1_555
Ba1A_4 O4 1_555 1_555
Ba1_3 O2A 1_555 1_555
O1_2 Ba1A 1_555 1_555
O2_3 Ba1A 1_555 1_555
O2A_3 Ba1A 1_555 1_555
O3_2 Ba1A 1_555 1_555
O3A_2 Ba1A 1_555 1_555
O4_2 Ba1A 1_555 1_555
O4A_2 Ba1A 1_555 1_555
O5_2 Ba1A 1_555 1_555
O5A_2 Ba1A 1_555 1_555
H1_2 O3_2 1_555 1_555
H2_2 O3_2 1_555 1_555
H1A_2 O3A_2 1_555 1_555
H2A_2 O3A_2 1_555 1_555
H3_2 O4_2 1_555 1_555
H4_2 O4_2 1_555 1_555
H3A_2 O4A_2 1_555 1_555
H4A_2 O4A_2 1_555 1_555
H5_2 O5_2 1_555 1_555
H6_2 O5_2 1_555 1_555
H5A_2 O5A_2 1_555 1_555
H6A_2 O5A_2 1_555 1_555
O5 Ba1A_3 1_555 1_555
O1A Ba1_2 1_555 1_555
O2A Ba1A_2 1_555 1_555
O3A Ba1A_2 1_555 1_555
O4A Ba1A_4 1_555 1_555
O5A Ba1A_3 1_555 1_555
O1A_2 Ba1A_2 1_555 1_555
O2_2 Ba1A_4 1_555 1_555
O2A_2 Ba1A_4 1_555 1_555
Ba1_2 O1_2 1_555 1_555
Ba1_2 O3_2 1_555 1_555
Ba1_2 O3A_2 1_555 1_555
Ba1_3 O5_2 1_555 1_555
Ba1_3 O5A_2 1_555 1_555

#END
