
#######################################################################
#
#                 Cambridge Crystallographic Data Centre
#                                CCDC 
#
#######################################################################
#
# If this CIF has been generated from an entry in the Cambridge 
# Structural Database, then it will include bibliographic, chemical, 
# crystal, experimental, refinement or atomic coordinate data resulting 
# from the CCDC's data processing and validation procedures.
#
#######################################################################

data_EXUHAH
_symmetry_cell_setting           monoclinic
_symmetry_space_group_name_H-M   'P 21'
_symmetry_Int_Tables_number      4
_space_group_name_Hall           'P 2yb'
loop_
_symmetry_equiv_pos_site_id
_symmetry_equiv_pos_as_xyz
1 x,y,z
2 -x,1/2+y,-z
_cell_length_a                   7.3012(10)
_cell_length_b                   7.2406(12)
_cell_length_c                   14.852(4)
_cell_angle_alpha                90
_cell_angle_beta                 104.020(11)
_cell_angle_gamma                90
_cell_volume                     761.763
loop_
_atom_site_label
_atom_site_type_symbol
_atom_site_fract_x
_atom_site_fract_y
_atom_site_fract_z
C1 C -0.0957(3) -0.1767(3) 0.40780(15)
C2 C -0.2954(3) -0.1333(3) 0.34860(15)
C3 C -0.4440(3) -0.1731(3) 0.40380(16)
C4 C -0.3331(3) -0.2220(3) 0.25429(16)
C5 C -0.3716(4) -0.4117(5) 0.2406(2)
C6 C -0.3935(6) -0.4859(5) 0.1531(3)
C7 C -0.3728(6) -0.3831(7) 0.0801(3)
C8 C -0.3336(6) -0.1996(8) 0.0921(2)
C9 C -0.3151(4) -0.1173(5) 0.1781(2)
C10 C -0.1975(4) -0.2938(3) 0.65139(18)
C11 C -0.1723(4) -0.4122(4) 0.72615(16)
C12 C -0.1247(4) -0.3444(3) 0.81491(17)
C13 C -0.1011(4) -0.1552(3) 0.82609(18)
C14 C -0.1288(4) -0.0452(3) 0.74874(18)
C15 C -0.0853(4) -0.4667(3) 0.89936(16)
Cu1 Cu -0.22156(3) 0.06626(5) 0.552680(16)
N1 N -0.1772(3) -0.1100(2) 0.66266(13)
N2 N -0.1742(4) -0.6280(3) 0.8914(2)
O1 O -0.0030(2) -0.2977(2) 0.37825(11)
O2 O -0.0354(2) -0.0863(2) 0.48086(12)
O3 O -0.2926(3) 0.2583(2) 0.45123(13)
O4 O -0.5785(3) -0.2747(2) 0.36987(12)
O5 O -0.4260(2) -0.0935(2) 0.48280(11)
O6 O 0.0263(3) -0.4173(3) 0.97065(11)
H1 H -0.295(6) -0.016(4) 0.340(2)
H2 H -0.379(5) 0.301(4) 0.472(2)
H3 H -0.272(6) -0.646(4) 0.851(3)
H4 H -0.149(5) -0.695(4) 0.924(2)
H5 H -0.203(7) 0.323(5) 0.468(3)
H6 H -0.384(5) -0.476(4) 0.294(2)
H7 H -0.434(8) -0.594(7) 0.139(3)
H8 H -0.290(5) 0.009(4) 0.191(2)
H9 H -0.328(7) -0.139(6) 0.052(3)
H10 H -0.381(6) -0.413(6) 0.026(3)
H11 H -0.105(4) 0.092(4) 0.7540(16)
H12 H -0.220(3) -0.342(3) 0.5908(18)
H13 H -0.190(4) -0.537(3) 0.7117(18)
H14 H -0.066(5) -0.106(4) 0.883(2)
Cu1A Cu -0.77844(3) -0.43374(5) 0.447320(16)
Cu1A_2 Cu 0.22156(3) -0.43374(5) 0.447320(16)
O1A O 0.0030(2) 0.2023(2) 0.62175(11)
O4A O -0.4215(3) 0.2253(2) 0.63013(12)
loop_
_geom_bond_atom_site_label_1
_geom_bond_atom_site_label_2
_geom_bond_site_symmetry_1
_geom_bond_site_symmetry_2
C1 C2 1_555 1_555
C2 C3 1_555 1_555
C3 O4 1_555 1_555
C4 C2 1_555 1_555
C5 C4 1_555 1_555
C6 C5 1_555 1_555
C7 C6 1_555 1_555
C8 C7 1_555 1_555
C9 C4 1_555 1_555
C10 C11 1_555 1_555
C11 C12 1_555 1_555
C12 C13 1_555 1_555
C13 C14 1_555 1_555
C14 N1 1_555 1_555
C15 C12 1_555 1_555
Cu1 N1 1_555 1_555
N1 C10 1_555 1_555
N2 C15 1_555 1_555
O1 C1 1_555 1_555
O2 C1 1_555 1_555
O3 Cu1 1_555 1_555
O4 Cu1A 1_555 1_555
O5 C3 1_555 1_555
O6 C15 1_555 1_555
H1 C2 1_555 1_555
H2 O3 1_555 1_555
H3 N2 1_555 1_555
H4 N2 1_555 1_555
H5 O3 1_555 1_555
H6 C5 1_555 1_555
H7 C6 1_555 1_555
H8 C9 1_555 1_555
H9 C8 1_555 1_555
H10 C7 1_555 1_555
H11 C14 1_555 1_555
H12 C10 1_555 1_555
H13 C11 1_555 1_555
H14 C13 1_555 1_555
Cu1A_2 O1 1_555 1_555
O1A Cu1 1_555 1_555
O4A Cu1 1_555 1_555
C8 C9 1_555 1_555
Cu1 O2 1_555 1_555
Cu1 O5 1_555 1_555

#END
