
#######################################################################
#
#                 Cambridge Crystallographic Data Centre
#                                CCDC 
#
#######################################################################
#
# If this CIF has been generated from an entry in the Cambridge 
# Structural Database, then it will include bibliographic, chemical, 
# crystal, experimental, refinement or atomic coordinate data resulting 
# from the CCDC's data processing and validation procedures.
#
#######################################################################

data_EXUMEP
_symmetry_cell_setting           monoclinic
_symmetry_space_group_name_H-M   'C 2/c'
_symmetry_Int_Tables_number      15
_space_group_name_Hall           '-C 2yn'
loop_
_symmetry_equiv_pos_site_id
_symmetry_equiv_pos_as_xyz
1 x,y,z
2 1/2+x,1/2+y,z
3 x,-y,1/2+z
4 1/2+x,1/2-y,1/2+z
5 -x,-y,-z
6 1/2-x,1/2-y,-z
7 -x,y,1/2-z
8 1/2-x,1/2+y,1/2-z
_cell_length_a                   15.6763(10)
_cell_length_b                   10.2423(6)
_cell_length_c                   16.7755(10)
_cell_angle_alpha                90
_cell_angle_beta                 102.2490(10)
_cell_angle_gamma                90
_cell_volume                     2632.18
loop_
_atom_site_label
_atom_site_type_symbol
_atom_site_fract_x
_atom_site_fract_y
_atom_site_fract_z
O5 O 0.0000 0.7357(4) 0.2500
C13 C -0.0247(5) 0.8363(9) 0.2776(5)
H7 H -0.0559 0.8286 0.3201
N3 N -0.010(4) 0.9552(7) 0.252(3)
C14 C -0.0487(14) 1.0704(15) 0.2824(10)
H8 H -0.0824 1.0435 0.3226
H9 H -0.0873 1.1148 0.2369
H10 H -0.0020 1.1300 0.3081
C15 C -0.0423(8) 0.9716(14) 0.3094(7)
H11 H -0.0651 0.8865 0.3218
H12 H -0.0911 1.0307 0.2885
H13 H -0.0062 1.0085 0.3592
C13F C 0.0247(5) 0.8363(9) 0.2224(5)
H7F H 0.0559 0.8286 0.1799
H11F H 0.0651 0.8865 0.1782
N3F N 0.010(4) 0.9552(7) 0.248(3)
C15F C 0.0423(8) 0.9716(14) 0.1906(7)
C14F C 0.0487(14) 1.0704(15) 0.2176(10)
H8F H 0.0824 1.0435 0.1774
H12F H 0.0911 1.0307 0.2115
H9F H 0.0873 1.1148 0.2631
H10F H 0.0020 1.1300 0.1919
H13F H 0.0062 1.0085 0.1408
Mn1 Mn 0.14325(3) 0.59899(5) 0.02220(3)
N1 N 0.14969(17) 0.4685(3) 0.13462(16)
C1 C 0.1027(2) 0.4908(3) 0.1911(2)
H1 H 0.0550 0.5498 0.1783
C2 C 0.1201(2) 0.4325(3) 0.2671(2)
H2 H 0.0851 0.4514 0.3055
C3 C 0.1892(2) 0.3462(3) 0.2862(2)
C4 C 0.2378(2) 0.3207(3) 0.2274(2)
H3 H 0.2847 0.2601 0.2383
C5 C 0.2172(2) 0.3845(3) 0.15304(19)
C6 C 0.2736(2) 0.3733(3) 0.09189(19)
C7 C 0.3308(2) 0.2701(3) 0.09247(19)
H4 H 0.3298 0.1974 0.1274
C8 C 0.3894(2) 0.2748(3) 0.0414(2)
C9 C 0.3888(2) 0.3826(3) -0.0080(2)
H5 H 0.4305 0.3907 -0.0414
C10 C 0.3271(2) 0.4786(4) -0.0084(2)
H6 H 0.3260 0.5508 -0.0441
N2 N 0.26846(17) 0.4744(3) 0.03965(16)
C11 C 0.2155(2) 0.2864(3) 0.3707(2)
O1 O 0.28864(15) 0.2317(2) 0.38616(14)
O2 O 0.16373(15) 0.3007(2) 0.41754(13)
C12 C 0.4542(2) 0.1657(3) 0.04162(19)
O3 O 0.42993(14) 0.0524(2) 0.05438(13)
O4 O 0.52733(14) 0.2000(2) 0.03031(14)
O1G O 0.21136(15) 0.7317(2) 0.11384(14)
O2B O 0.16373(15) 0.6993(2) -0.08246(13)
O3E O 0.07007(14) 0.4476(2) -0.05438(13)
O4A O 0.02733(14) 0.7000(2) 0.03031(14)
Mn1G Mn 0.35675(3) 0.09899(5) 0.47780(3)
Mn1B Mn 0.14325(3) 0.40101(5) 0.52220(3)
Mn1E Mn 0.35675(3) -0.09899(5) -0.02220(3)
Mn1A Mn 0.64325(3) 0.09899(5) 0.02220(3)
loop_
_geom_bond_atom_site_label_1
_geom_bond_atom_site_label_2
_geom_bond_site_symmetry_1
_geom_bond_site_symmetry_2
Mn1 N1 1_555 1_555
N1 C1 1_555 1_555
C1 H1 1_555 1_555
C2 C1 1_555 1_555
H2 C2 1_555 1_555
C3 C2 1_555 1_555
C4 C3 1_555 1_555
H3 C4 1_555 1_555
C5 N1 1_555 1_555
C6 C5 1_555 1_555
C7 C6 1_555 1_555
H4 C7 1_555 1_555
C8 C7 1_555 1_555
C9 C8 1_555 1_555
H5 C9 1_555 1_555
C10 C9 1_555 1_555
H6 C10 1_555 1_555
N2 Mn1 1_555 1_555
C11 C3 1_555 1_555
O1 C11 1_555 1_555
O2 C11 1_555 1_555
C12 C8 1_555 1_555
O3 C12 1_555 1_555
O4 C12 1_555 1_555
O5 C13 1_555 1_555
C13 H7 1_555 1_555
H7 H11 1_555 1_555
N3 C13 1_555 1_555
C14 N3 1_555 1_555
H8 C14 1_555 1_555
H9 C14 1_555 1_555
H10 C14 1_555 1_555
C15 C13 1_555 1_555
H11 C13 1_555 1_555
H12 C14 1_555 1_555
H13 C15 1_555 1_555
C13F O5 1_555 1_555
H7F C13F 1_555 1_555
H11F C13F 1_555 1_555
N3F C13 1_555 1_555
C15F N3 1_555 1_555
C14F N3 1_555 1_555
H8F C15F 1_555 1_555
H12F C15F 1_555 1_555
H9F C14F 1_555 1_555
H10F C14F 1_555 1_555
H13F C15F 1_555 1_555
O1G Mn1 1_555 1_555
O2B Mn1 1_555 1_555
O3E Mn1 1_555 1_555
O4A Mn1 1_555 1_555
Mn1G O1 1_555 1_555
Mn1B O2 1_555 1_555
Mn1E O3 1_555 1_555
Mn1A O4 1_555 1_555
C4 C5 1_555 1_555
C6 N2 1_555 1_555
C10 N2 1_555 1_555
C13 C13F 1_555 1_555
N3 C15 1_555 1_555
N3 C13F 1_555 1_555
N3 N3F 1_555 1_555
C14 N3F 1_555 1_555
C14 C15 1_555 1_555
H8 C15 1_555 1_555
H8 H12 1_555 1_555
C15 H12 1_555 1_555
C15 N3F 1_555 1_555
C15 H11 1_555 1_555
C13F N3F 1_555 1_555
C13F C15F 1_555 1_555
H7F H11F 1_555 1_555
H11F C15F 1_555 1_555
N3F C14F 1_555 1_555
N3F C15F 1_555 1_555
C15F C14F 1_555 1_555
C14F H8F 1_555 1_555
C14F H12F 1_555 1_555
H8F H12F 1_555 1_555

#END
