
#######################################################################
#
#                 Cambridge Crystallographic Data Centre
#                                CCDC 
#
#######################################################################
#
# If this CIF has been generated from an entry in the Cambridge 
# Structural Database, then it will include bibliographic, chemical, 
# crystal, experimental, refinement or atomic coordinate data resulting 
# from the CCDC's data processing and validation procedures.
#
#######################################################################

data_EXUMUG
_symmetry_cell_setting           monoclinic
_symmetry_space_group_name_H-M   'C 2/c'
_symmetry_Int_Tables_number      15
_space_group_name_Hall           '-C 2yn'
loop_
_symmetry_equiv_pos_site_id
_symmetry_equiv_pos_as_xyz
1 x,y,z
2 -x,y,1/2-z
3 1/2+x,1/2+y,z
4 1/2-x,1/2+y,1/2-z
5 -x,-y,-z
6 x,-y,1/2+z
7 1/2-x,1/2-y,-z
8 1/2+x,1/2-y,1/2+z
_cell_length_a                   18.748(4)
_cell_length_b                   11.520(2)
_cell_length_c                   12.751(3)
_cell_angle_alpha                90
_cell_angle_beta                 90.290(4)
_cell_angle_gamma                90
_cell_volume                     2753.89
loop_
_atom_site_label
_atom_site_type_symbol
_atom_site_fract_x
_atom_site_fract_y
_atom_site_fract_z
Zn1 Zn 0.5000 0.14427(10) 0.2500
O1 O 0.6106(3) 0.1526(5) 0.2527(4)
H1 H 0.6317 0.0947 0.2255
H2 H 0.6247 0.2158 0.2252
O2 O 0.5060(3) 0.1377(5) 0.0835(4)
H3 H 0.5361 0.0862 0.0655
H4 H 0.4724 0.1071 0.0480
N1 N 0.5000 0.3348(8) 0.2500
C1 C 0.5036(5) 0.3965(7) 0.3396(7)
H5 H 0.5060 0.3565 0.4028
C2 C 0.5040(5) 0.5165(8) 0.3419(7)
H6 H 0.5071 0.5536 0.4066
C3 C 0.5000 0.5853(12) 0.2500
C4 C 0.5000 0.7096(8) 0.2500
C5 C 0.5396(4) 0.7716(7) 0.3226(6)
H7 H 0.5664 0.7330 0.3733
C6 C 0.5388(5) 0.8915(7) 0.3191(6)
H8 H 0.5667 0.9321 0.3673
N2 N 0.5000 0.9520(8) 0.2500
Zn1_2 Zn 0.5000 1.14427(10) 0.2500
O1A O 0.3894(3) 0.1526(5) 0.2473(4)
H1A H 0.3683 0.0947 0.2745
H2A H 0.3753 0.2158 0.2748
O2A O 0.4940(3) 0.1377(5) 0.4165(4)
H3A H 0.4639 0.0862 0.4345
H4A H 0.5276 0.1071 0.4520
C1A C 0.4964(5) 0.3965(7) 0.1604(7)
H5A H 0.4940 0.3565 0.0972
C2A C 0.4960(5) 0.5165(8) 0.1581(7)
H6A H 0.4929 0.5536 0.0934
C5A C 0.4604(4) 0.7716(7) 0.1774(6)
H7A H 0.4336 0.7330 0.1267
C6A C 0.4612(5) 0.8915(7) 0.1809(6)
H8A H 0.4333 0.9321 0.1327
N2_2 N 0.5000 -0.0480(8) 0.2500
O3 O 0.6758(4) 0.9735(8) 0.1722(9)
O4 O 0.6049(4) 0.9644(6) 0.0334(5)
C7 C 0.6461(5) 0.9197(8) 0.0989(8)
C8 C 0.6633(4) 0.7918(7) 0.0905(7)
C9 C 0.6865(5) 0.7297(10) 0.1765(7)
H9 H 0.6952 0.7687 0.2391
C10 C 0.6969(6) 0.6111(10) 0.1720(8)
H10 H 0.7117 0.5699 0.2310
C11 C 0.6848(5) 0.5555(8) 0.0776(8)
C12 C 0.6642(5) 0.6154(8) -0.0107(7)
H11 H 0.6579 0.5766 -0.0740
C13 C 0.6528(5) 0.7343(7) -0.0045(7)
H12 H 0.6381 0.7754 -0.0636
S1 S 0.69614(17) 0.4047(3) 0.0714(3)
O5 O 0.6705(4) 0.3548(8) 0.1663(8)
O6 O 0.6670(8) 0.3688(8) -0.0242(10)
N3 N 0.7800(6) 0.3858(9) 0.0731(12)
H13 H 0.7890 0.3102 0.0791
H14 H 0.7979 0.4120 0.0131
loop_
_geom_bond_atom_site_label_1
_geom_bond_atom_site_label_2
_geom_bond_site_symmetry_1
_geom_bond_site_symmetry_2
Zn1 O1 1_555 1_555
O1 H1 1_555 1_555
H2 O1 1_555 1_555
O2 Zn1 1_555 1_555
H3 O2 1_555 1_555
H4 O2 1_555 1_555
N1 Zn1 1_555 1_555
C1 N1 1_555 1_555
H5 C1 1_555 1_555
C2 C1 1_555 1_555
H6 C2 1_555 1_555
C3 C2 1_555 1_555
C4 C3 1_555 1_555
C5 C4 1_555 1_555
H7 C5 1_555 1_555
C6 C5 1_555 1_555
H8 C6 1_555 1_555
N2 C6 1_555 1_555
O3 C7 1_555 1_555
O4 C7 1_555 1_555
C7 C8 1_555 1_555
C8 C9 1_555 1_555
C9 H9 1_555 1_555
C10 C9 1_555 1_555
H10 C10 1_555 1_555
C11 C10 1_555 1_555
C12 C11 1_555 1_555
H11 C12 1_555 1_555
C13 C8 1_555 1_555
H12 C13 1_555 1_555
S1 C11 1_555 1_555
O5 S1 1_555 1_555
O6 S1 1_555 1_555
N3 S1 1_555 1_555
H13 N3 1_555 1_555
H14 N3 1_555 1_555
Zn1_2 N2 1_555 1_555
O1A Zn1 1_555 1_555
H1A O1A 1_555 1_555
H2A O1A 1_555 1_555
O2A Zn1 1_555 1_555
H3A O2A 1_555 1_555
H4A O2A 1_555 1_555
C1A N1 1_555 1_555
H5A C1A 1_555 1_555
C2A C3 1_555 1_555
H6A C2A 1_555 1_555
C5A C4 1_555 1_555
H7A C5A 1_555 1_555
C6A N2 1_555 1_555
H8A C6A 1_555 1_555
N2_2 Zn1 1_555 1_555
C12 C13 1_555 1_555
C1A C2A 1_555 1_555
C5A C6A 1_555 1_555

#END
