
#######################################################################
#
#                 Cambridge Crystallographic Data Centre
#                                CCDC 
#
#######################################################################
#
# If this CIF has been generated from an entry in the Cambridge 
# Structural Database, then it will include bibliographic, chemical, 
# crystal, experimental, refinement or atomic coordinate data resulting 
# from the CCDC's data processing and validation procedures.
#
#######################################################################

data_EXUNAN
_symmetry_cell_setting           orthorhombic
_symmetry_space_group_name_H-M   'P c a 21'
_symmetry_Int_Tables_number      29
_space_group_name_Hall           'P 2c -2ac'
loop_
_symmetry_equiv_pos_site_id
_symmetry_equiv_pos_as_xyz
1 x,y,z
2 -x,-y,1/2+z
3 1/2+x,-y,z
4 1/2-x,y,1/2+z
_cell_length_a                   12.114(3)
_cell_length_b                   11.369(2)
_cell_length_c                   14.770(3)
_cell_angle_alpha                90
_cell_angle_beta                 90
_cell_angle_gamma                90
_cell_volume                     2034.18
loop_
_atom_site_label
_atom_site_type_symbol
_atom_site_fract_x
_atom_site_fract_y
_atom_site_fract_z
Co1 Co 0.76455(4) 0.34881(4) 0.60137(6)
C1 C 0.8626(3) 0.5982(4) 0.6048(4)
H1 H 0.9291 0.5575 0.6010
C2 C 0.8660(3) 0.7190(4) 0.6046(4)
H2 H 0.9335 0.7576 0.6008
C3 C 0.7698(3) 0.7834(3) 0.6099(4)
C4 C 0.6720(3) 0.7184(4) 0.6165(4)
H3 H 0.6043 0.7565 0.6208
C5 C 0.6771(3) 0.5990(4) 0.6166(4)
H4 H 0.6109 0.5579 0.6215
C6 C 0.7674(3) 0.9129(3) 0.6057(5)
C7 C 0.8546(3) 0.9782(4) 0.5695(3)
H5 H 0.9167 0.9397 0.5471
C8 C 0.8493(4) 1.0978(4) 0.5667(3)
H6 H 0.9088 1.1385 0.5423
C9 C 0.6785(3) 1.0976(4) 0.6322(3)
H7 H 0.6171 1.1381 0.6537
C10 C 0.6782(3) 0.9776(4) 0.6376(3)
H8 H 0.6179 0.9390 0.6628
N1 N 0.7700(3) 0.5362(3) 0.6101(4)
N2 N 0.7626(2) 1.1605(3) 0.5974(5)
O6 O 0.6684(3) 0.3353(3) 0.7206(2)
H13 H 0.6381 0.4002 0.7355
H14 H 0.7060 0.3035 0.7630
O7 O 0.6182(3) 0.3589(3) 0.5256(3)
H15 H 0.6186 0.4193 0.4918
H16 H 0.6108 0.2967 0.4944
O8 O 0.8459(3) 0.3518(3) 0.4739(2)
H17 H 0.8320 0.4173 0.4488
H18 H 0.8216 0.2936 0.4435
O9 O 0.9109(2) 0.3335(3) 0.6736(2)
H19 H 0.9135 0.2717 0.7067
H20 H 0.9270 0.3941 0.7049
Co1_2 Co 0.76455(4) 1.34881(4) 0.60137(6)
N2_2 N 0.7626(2) 0.1605(3) 0.5974(5)
S1 S 0.86918(10) 1.12172(9) 0.85496(12)
C11 C 0.8412(3) 0.9691(3) 0.8612(4)
C12 C 0.7362(4) 0.9244(4) 0.8574(5)
H9 H 0.6767 0.9753 0.8504
C13 C 0.7175(3) 0.8052(4) 0.8636(4)
H10 H 0.6458 0.7763 0.8596
C14 C 0.8048(4) 0.7283(4) 0.8757(3)
C15 C 0.9108(4) 0.7735(4) 0.8786(4)
H11 H 0.9703 0.7226 0.8853
C16 C 0.9297(4) 0.8922(4) 0.8718(4)
H12 H 1.0014 0.9212 0.8743
C17 C 0.7845(4) 0.5984(4) 0.8903(3)
O1 O 0.8677(3) 0.5362(3) 0.9029(3)
O2 O 0.6869(3) 0.5629(3) 0.8929(3)
O3 O 0.9351(3) 1.1369(3) 0.7736(2)
O4 O 0.7618(3) 1.1811(2) 0.8507(4)
O5 O 0.9311(3) 1.1507(3) 0.9370(2)
O10 O 0.0224(2) 0.4920(3) 0.7796(2)
H21 H 0.0738 0.4654 0.8125
H22 H -0.0357 0.5068 0.8106
loop_
_geom_bond_atom_site_label_1
_geom_bond_atom_site_label_2
_geom_bond_site_symmetry_1
_geom_bond_site_symmetry_2
Co1 N1 1_555 1_555
S1 C11 1_555 1_555
C1 H1 1_555 1_555
C2 C1 1_555 1_555
H2 C2 1_555 1_555
C3 C2 1_555 1_555
C4 C3 1_555 1_555
H3 C4 1_555 1_555
C5 C4 1_555 1_555
H4 C5 1_555 1_555
C6 C3 1_555 1_555
C7 C6 1_555 1_555
H5 C7 1_555 1_555
C8 C7 1_555 1_555
H6 C8 1_555 1_555
C9 H7 1_555 1_555
C10 C6 1_555 1_555
H8 C10 1_555 1_555
C11 C12 1_555 1_555
C12 H9 1_555 1_555
C13 C12 1_555 1_555
H10 C13 1_555 1_555
C14 C13 1_555 1_555
C15 C14 1_555 1_555
H11 C15 1_555 1_555
C16 C11 1_555 1_555
H12 C16 1_555 1_555
C17 C14 1_555 1_555
N1 C1 1_555 1_555
N2 C8 1_555 1_555
O1 C17 1_555 1_555
O2 C17 1_555 1_555
O3 S1 1_555 1_555
O4 S1 1_555 1_555
O5 S1 1_555 1_555
O6 Co1 1_555 1_555
H13 O6 1_555 1_555
H14 O6 1_555 1_555
O7 Co1 1_555 1_555
H15 O7 1_555 1_555
H16 O7 1_555 1_555
O8 Co1 1_555 1_555
H17 O8 1_555 1_555
H18 O8 1_555 1_555
O9 Co1 1_555 1_555
H19 O9 1_555 1_555
H20 O9 1_555 1_555
O10 H21 1_555 1_555
H22 O10 1_555 1_555
Co1_2 N2 1_555 1_555
N2_2 Co1 1_555 1_555
C5 N1 1_555 1_555
C9 C10 1_555 1_555
C9 N2 1_555 1_555
C15 C16 1_555 1_555

#END
