
#######################################################################
#
#                 Cambridge Crystallographic Data Centre
#                                CCDC 
#
#######################################################################
#
# If this CIF has been generated from an entry in the Cambridge 
# Structural Database, then it will include bibliographic, chemical, 
# crystal, experimental, refinement or atomic coordinate data resulting 
# from the CCDC's data processing and validation procedures.
#
#######################################################################

data_EXUQUK
_symmetry_cell_setting           triclinic
_symmetry_space_group_name_H-M   'P -1'
_symmetry_Int_Tables_number      2
_space_group_name_Hall           '-P 1'
loop_
_symmetry_equiv_pos_site_id
_symmetry_equiv_pos_as_xyz
1 x,y,z
2 -x,-y,-z
_cell_length_a                   6.7204(13)
_cell_length_b                   6.8694(14)
_cell_length_c                   8.6519(17)
_cell_angle_alpha                110.27(3)
_cell_angle_beta                 90.30(3)
_cell_angle_gamma                107.39(3)
_cell_volume                     354.905
loop_
_atom_site_label
_atom_site_type_symbol
_atom_site_fract_x
_atom_site_fract_y
_atom_site_fract_z
Eu1 Eu 0.61965(5) -0.15026(5) 1.13060(4)
O1 O 0.3369(7) -0.0352(8) 1.2612(6)
O2 O -0.0099(8) -0.0548(7) 1.1695(6)
O3 O 0.2919(8) 0.2352(8) 1.1498(6)
O4 O 0.1864(8) 0.2379(8) 1.4171(6)
O5 O 0.3227(8) -0.4748(7) 0.9608(6)
O6 O 0.3254(8) -0.1819(7) 0.9205(6)
S1 S 0.2012(2) 0.0958(3) 1.2499(2)
C1 C 0.2392(10) -0.3850(11) 0.8851(9)
C2 C 0.0509(12) -0.5014(12) 0.7641(10)
H1 H 0.0516 -0.4516 0.6379
H2 H 0.0091 -0.6805 0.7237
H3 H -0.0252 -0.4317 0.8175
O7 O 0.7566(8) 0.1173(8) 1.4098(6)
H4 H 0.8853 0.1592 1.4194
H5 H 0.6739 0.1005 1.4578
O8 O 0.5107(8) -0.3236(8) 1.3359(6)
H6 H 0.3858 -0.3403 1.3447
H7 H 0.4538 -0.4665 1.2890
Eu1_2 Eu -0.38035(5) -0.15026(5) 1.13060(4)
Eu1A Eu 0.38035(5) 0.15026(5) 0.86940(4)
Eu1A_2 Eu 0.38035(5) -0.84974(5) 0.86940(4)
O2_2 O 0.9901(8) -0.0548(7) 1.1695(6)
O3A O 0.7081(8) -0.2352(8) 0.8502(6)
O5A O 0.6773(8) -0.5252(7) 1.0392(6)
O6A O 0.6746(8) 0.1819(7) 1.0795(6)
loop_
_geom_bond_atom_site_label_1
_geom_bond_atom_site_label_2
_geom_bond_site_symmetry_1
_geom_bond_site_symmetry_2
Eu1 O1 1_555 1_555
O1 S1 1_555 1_555
O2 S1 1_555 1_555
O3 S1 1_555 1_555
O4 S1 1_555 1_555
O5 Eu1 1_555 1_555
O6 Eu1 1_555 1_555
C1 O5 1_555 1_555
C2 C1 1_555 1_555
H1 C2 1_555 1_555
H2 C2 1_555 1_555
H3 C2 1_555 1_555
O7 Eu1 1_555 1_555
H4 O7 1_555 1_555
H5 O7 1_555 1_555
O8 Eu1 1_555 1_555
H6 O8 1_555 1_555
H7 O8 1_555 1_555
Eu1_2 O2 1_555 1_555
Eu1A O3 1_555 1_555
Eu1A_2 O5 1_555 1_555
O2_2 Eu1 1_555 1_555
O3A Eu1 1_555 1_555
O5A Eu1 1_555 1_555
O6A Eu1 1_555 1_555
O6 C1 1_555 1_555
O6 Eu1A 1_555 1_555
Eu1A O6A 1_555 1_555
Eu1A_2 O5A 1_555 1_555

#END
