
#######################################################################
#
#                 Cambridge Crystallographic Data Centre
#                                CCDC 
#
#######################################################################
#
# If this CIF has been generated from an entry in the Cambridge 
# Structural Database, then it will include bibliographic, chemical, 
# crystal, experimental, refinement or atomic coordinate data resulting 
# from the CCDC's data processing and validation procedures.
#
#######################################################################

data_EXURAR
_symmetry_cell_setting           triclinic
_symmetry_space_group_name_H-M   'P -1'
_symmetry_Int_Tables_number      2
_space_group_name_Hall           '-P 1'
loop_
_symmetry_equiv_pos_site_id
_symmetry_equiv_pos_as_xyz
1 x,y,z
2 -x,-y,-z
_cell_length_a                   6.8593(14)
_cell_length_b                   7.0218(14)
_cell_length_c                   8.8068(18)
_cell_angle_alpha                110.21(3)
_cell_angle_beta                 90.19(3)
_cell_angle_gamma                107.44(3)
_cell_volume                     377.048
loop_
_atom_site_label
_atom_site_type_symbol
_atom_site_fract_x
_atom_site_fract_y
_atom_site_fract_z
La1 La -0.12376(3) 0.64900(3) -0.13316(2)
S1 S 0.29399(13) 0.39957(14) -0.25617(11)
C1 C 0.2628(6) 0.8836(6) 0.1113(5)
C2 C 0.4489(6) 0.9994(6) 0.2318(5)
O1 O 0.1595(4) 0.5246(4) -0.2680(3)
O2 O 0.5005(4) 0.5471(4) -0.1764(3)
O3 O 0.2078(4) 0.2674(4) -0.1576(3)
O4 O 0.3102(4) 0.2576(4) -0.4204(3)
O5 O 0.1859(4) 0.9805(4) 0.0411(3)
O6 O 0.1771(4) 0.6841(4) 0.0762(3)
O7 O -0.2626(5) 0.3757(5) -0.4174(4)
O8 O -0.0037(5) 0.8288(5) -0.3423(4)
H1 H 0.058(8) 0.948(9) -0.303(7)
H2 H -0.383(7) 0.331(7) -0.451(6)
H3 H 0.495(8) 1.151(9) 0.258(7)
H4 H -0.113(10) 0.815(10) -0.403(8)
H5 H 0.558(7) 0.941(8) 0.197(6)
H6 H -0.214(13) 0.350(12) -0.514(10)
H7 H 0.423(9) 0.963(10) 0.315(8)
La1_2 La 0.87624(3) 0.64900(3) -0.13316(2)
La1A La 0.12376(3) 0.35100(3) 0.13316(2)
La1A_2 La 0.12376(3) 1.35100(3) 0.13316(2)
O2_2 O -0.4995(4) 0.5471(4) -0.1764(3)
O3A O -0.2078(4) 0.7326(4) 0.1576(3)
O5A O -0.1859(4) 1.0195(4) -0.0411(3)
O6A O -0.1771(4) 0.3159(4) -0.0762(3)
loop_
_geom_bond_atom_site_label_1
_geom_bond_atom_site_label_2
_geom_bond_site_symmetry_1
_geom_bond_site_symmetry_2
La1 O1 1_555 1_555
S1 O1 1_555 1_555
C1 C2 1_555 1_555
C2 H3 1_555 1_555
O2 S1 1_555 1_555
O3 S1 1_555 1_555
O4 S1 1_555 1_555
O5 La1 1_555 1_555
O6 La1 1_555 1_555
O7 La1 1_555 1_555
O8 La1 1_555 1_555
H1 O8 1_555 1_555
H2 O7 1_555 1_555
H4 O8 1_555 1_555
H5 C2 1_555 1_555
H6 O7 1_555 1_555
H7 C2 1_555 1_555
La1_2 O2 1_555 1_555
La1A O3 1_555 1_555
La1A_2 O5 1_555 1_555
O2_2 La1 1_555 1_555
O3A La1 1_555 1_555
O5A La1 1_555 1_555
O6A La1 1_555 1_555
C1 O5 1_555 1_555
C1 O6 1_555 1_555
O6 La1A 1_555 1_555
La1A O6A 1_555 1_555
La1A_2 O5A 1_555 1_555

#END
