
#######################################################################
#
#                 Cambridge Crystallographic Data Centre
#                                CCDC 
#
#######################################################################
#
# If this CIF has been generated from an entry in the Cambridge 
# Structural Database, then it will include bibliographic, chemical, 
# crystal, experimental, refinement or atomic coordinate data resulting 
# from the CCDC's data processing and validation procedures.
#
#######################################################################

data_EXURIZ
_symmetry_cell_setting           triclinic
_symmetry_space_group_name_H-M   'P -1'
_symmetry_Int_Tables_number      2
_space_group_name_Hall           '-P 1'
loop_
_symmetry_equiv_pos_site_id
_symmetry_equiv_pos_as_xyz
1 x,y,z
2 -x,-y,-z
_cell_length_a                   6.8065(14)
_cell_length_b                   6.9652(14)
_cell_length_c                   8.7539(18)
_cell_angle_alpha                110.34(3)
_cell_angle_beta                 90.23(3)
_cell_angle_gamma                107.39(3)
_cell_volume                     368.637
loop_
_atom_site_label
_atom_site_type_symbol
_atom_site_fract_x
_atom_site_fract_y
_atom_site_fract_z
Pr1 Pr 0.62187(2) 0.35037(2) 1.132031(19)
S1 S 0.20335(11) 0.59804(11) 1.25329(9)
C1 C 0.2395(4) 0.1168(5) 0.8878(4)
C2 C 0.0499(5) -0.0010(6) 0.7663(4)
O1 O 0.3389(3) 0.4720(3) 1.2644(3)
O2 O -0.0043(3) 0.4504(3) 1.1737(3)
O3 O 0.2905(3) 0.7326(3) 1.1541(3)
O4 O 0.1885(3) 0.7412(3) 1.4193(3)
O5 O 0.3165(3) 0.0208(3) 0.9601(3)
O6 O 0.3251(3) 0.3177(3) 0.9222(3)
O7 O 0.7589(4) 0.6200(4) 1.4137(3)
O8 O 0.5059(4) 0.1739(4) 1.3403(3)
H1 H 0.712(7) 0.654(7) 1.491(6)
H2 H 0.877(6) 0.657(6) 1.446(6)
H3 H 0.016(5) -0.142(6) 0.741(5)
H4 H -0.034(8) 0.053(8) 0.806(7)
H5 H 0.078(6) 0.012(6) 0.665(5)
H6 H 0.596(7) 0.206(8) 1.423(7)
H7 H 0.461(7) 0.087(7) 1.317(6)
Pr1_2 Pr -0.37813(2) 0.35037(2) 1.132031(19)
Pr1A Pr 0.37813(2) 0.64963(2) 0.867969(19)
Pr1A_2 Pr 0.37813(2) -0.35037(2) 0.867969(19)
O2_2 O 0.9957(3) 0.4504(3) 1.1737(3)
O3A O 0.7095(3) 0.2674(3) 0.8459(3)
O5A O 0.6835(3) -0.0208(3) 1.0399(3)
O6A O 0.6749(3) 0.6823(3) 1.0778(3)
loop_
_geom_bond_atom_site_label_1
_geom_bond_atom_site_label_2
_geom_bond_site_symmetry_1
_geom_bond_site_symmetry_2
Pr1 O1 1_555 1_555
S1 O1 1_555 1_555
C1 C2 1_555 1_555
C2 H3 1_555 1_555
O2 S1 1_555 1_555
O3 S1 1_555 1_555
O4 S1 1_555 1_555
O5 Pr1 1_555 1_555
O6 Pr1 1_555 1_555
O7 Pr1 1_555 1_555
O8 Pr1 1_555 1_555
H1 O7 1_555 1_555
H2 O7 1_555 1_555
H4 C2 1_555 1_555
H5 C2 1_555 1_555
H6 O8 1_555 1_555
H7 O8 1_555 1_555
Pr1_2 O2 1_555 1_555
Pr1A O3 1_555 1_555
Pr1A_2 O5 1_555 1_555
O2_2 Pr1 1_555 1_555
O3A Pr1 1_555 1_555
O5A Pr1 1_555 1_555
O6A Pr1 1_555 1_555
C1 O5 1_555 1_555
C1 O6 1_555 1_555
O6 Pr1A 1_555 1_555
Pr1A O6A 1_555 1_555
Pr1A_2 O5A 1_555 1_555

#END
