
#######################################################################
#
#                 Cambridge Crystallographic Data Centre
#                                CCDC 
#
#######################################################################
#
# If this CIF has been generated from an entry in the Cambridge 
# Structural Database, then it will include bibliographic, chemical, 
# crystal, experimental, refinement or atomic coordinate data resulting 
# from the CCDC's data processing and validation procedures.
#
#######################################################################

data_EXUREV
_symmetry_cell_setting           triclinic
_symmetry_space_group_name_H-M   'P -1'
_symmetry_Int_Tables_number      2
_space_group_name_Hall           '-P 1'
loop_
_symmetry_equiv_pos_site_id
_symmetry_equiv_pos_as_xyz
1 x,y,z
2 -x,-y,-z
_cell_length_a                   6.7353(13)
_cell_length_b                   6.7947(14)
_cell_length_c                   8.7182(17)
_cell_angle_alpha                90.34(3)
_cell_angle_beta                 110.37(3)
_cell_angle_gamma                107.32(3)
_cell_volume                     354.387
loop_
_atom_site_label
_atom_site_type_symbol
_atom_site_fract_x
_atom_site_fract_y
_atom_site_fract_z
Nd1 Nd 0.14976(7) -0.12117(6) 0.36837(5)
S1 S -0.0980(3) 0.2972(3) 0.2473(2)
O1 O 0.0285(9) 0.1610(8) 0.2352(6)
O2 O 0.0514(9) 0.5058(8) 0.3290(6)
O3 O -0.2321(8) 0.2098(8) 0.3473(6)
O4 O -0.2412(9) 0.3118(8) 0.0809(6)
O5 O 0.4781(9) 0.1821(8) 0.5404(6)
O6 O 0.1815(9) 0.1739(8) 0.5789(6)
O7 O -0.1225(9) -0.2583(8) 0.0868(6)
H1 H -0.1821 -0.1786 0.0256
H2 H -0.1567 -0.3852 0.0510
O8 O 0.3262(9) -0.0069(9) 0.1619(6)
H3 H 0.4219 0.1131 0.1780
H4 H 0.2904 -0.0880 0.0752
C1 C 0.3827(14) 0.2608(13) 0.6108(9)
C2 C 0.4991(13) 0.4488(13) 0.7330(10)
H5 H 0.4582 0.5668 0.6833
H6 H 0.6610 0.4786 0.7677
H7 H 0.4552 0.4254 0.8291
Nd1_2 Nd 0.14976(7) 0.87883(6) 0.36837(5)
Nd1A Nd -0.14976(7) 0.12117(6) 0.63163(5)
Nd1A_2 Nd 0.85024(7) 0.12117(6) 0.63163(5)
O2_2 O 0.0514(9) -0.4942(8) 0.3290(6)
O3A O 0.2321(8) -0.2098(8) 0.6527(6)
O5A O 0.5219(9) -0.1821(8) 0.4596(6)
O6A O -0.1815(9) -0.1739(8) 0.4211(6)
loop_
_geom_bond_atom_site_label_1
_geom_bond_atom_site_label_2
_geom_bond_site_symmetry_1
_geom_bond_site_symmetry_2
Nd1 O1 1_555 1_555
S1 O1 1_555 1_555
O2 S1 1_555 1_555
O3 S1 1_555 1_555
O4 S1 1_555 1_555
O5 Nd1 1_555 1_555
O6 Nd1 1_555 1_555
O7 Nd1 1_555 1_555
H1 O7 1_555 1_555
H2 O7 1_555 1_555
O8 Nd1 1_555 1_555
H3 O8 1_555 1_555
H4 O8 1_555 1_555
C1 O5 1_555 1_555
C2 C1 1_555 1_555
H5 C2 1_555 1_555
H6 C2 1_555 1_555
H7 C2 1_555 1_555
Nd1_2 O2 1_555 1_555
Nd1A O3 1_555 1_555
Nd1A_2 O5 1_555 1_555
O2_2 Nd1 1_555 1_555
O3A Nd1 1_555 1_555
O5A Nd1 1_555 1_555
O6A Nd1 1_555 1_555
O6 C1 1_555 1_555
O6 Nd1A 1_555 1_555
Nd1A O6A 1_555 1_555
Nd1A_2 O5A 1_555 1_555

#END
