
#######################################################################
#
#                 Cambridge Crystallographic Data Centre
#                                CCDC 
#
#######################################################################
#
# If this CIF has been generated from an entry in the Cambridge 
# Structural Database, then it will include bibliographic, chemical, 
# crystal, experimental, refinement or atomic coordinate data resulting 
# from the CCDC's data processing and validation procedures.
#
#######################################################################

data_EXUTOH
_symmetry_cell_setting           monoclinic
_symmetry_space_group_name_H-M   'P 21/c'
_symmetry_Int_Tables_number      14
_space_group_name_Hall           '-P 2ybc'
loop_
_symmetry_equiv_pos_site_id
_symmetry_equiv_pos_as_xyz
1 x,y,z
2 -x,1/2+y,1/2-z
3 -x,-y,-z
4 x,1/2-y,1/2+z
_cell_length_a                   13.752(3)
_cell_length_b                   31.654(6)
_cell_length_c                   7.9464(16)
_cell_angle_alpha                90
_cell_angle_beta                 93.44(3)
_cell_angle_gamma                90
_cell_volume                     3452.88
loop_
_atom_site_label
_atom_site_type_symbol
_atom_site_fract_x
_atom_site_fract_y
_atom_site_fract_z
Cd1 Cd 0.337642(16) 0.225305(7) 0.53352(3)
F1 F 0.10358(15) -0.02797(6) 1.1319(3)
F2 F -0.29125(15) 0.40764(6) 0.7000(3)
F3 F -0.14772(16) 0.41411(6) 0.8160(3)
F4 F -0.28557(15) 0.36029(7) 0.9892(2)
F5 F -0.13319(16) 0.34748(8) 1.0241(3)
F6 F 0.01495(14) 0.00955(7) 1.2861(3)
F7 F 0.14500(15) 0.02964(7) 1.5930(2)
F8 F -0.23283(16) 0.29695(7) 0.9643(2)
F9 F 0.09519(16) 0.07816(7) 1.4228(3)
F10 F -0.16765(17) 0.39941(6) 0.5533(3)
F11 F 0.24626(15) 0.07447(6) 1.5030(2)
F12 F 0.10613(16) -0.03872(7) 1.3977(3)
O1 O 0.16903(15) 0.22742(6) 0.5352(3)
O2 O 0.24343(15) 0.28718(7) 0.5925(3)
O3 O -0.51778(16) 0.29721(7) 0.1384(3)
O4 O -0.59691(15) 0.26569(7) 0.3330(3)
O5 O 0.29241(15) 0.15834(7) 0.7186(3)
O6 O 0.13034(17) 0.16197(8) 0.7162(3)
O7 O 0.5515(2) -0.10552(9) 1.2729(4)
O8 O 0.54704(19) -0.10239(8) 1.5524(3)
O9 O 0.3353(3) 0.17090(10) 0.3517(4)
C1 C 0.2805(2) -0.00445(9) 1.3370(4)
C2 C 0.2883(2) 0.10342(9) 1.0053(4)
H1 H 0.3471 0.1172 0.9920
C3 C 0.1151(2) 0.06198(10) 1.0443(4)
H2 H 0.0565 0.0480 1.0563
C4 C -0.5229(2) 0.28610(9) 0.2896(4)
C5 C -0.1033(2) 0.32294(9) 0.7022(4)
C6 C 0.1877(2) 0.02285(9) 1.3058(4)
C7 C -0.4544(2) 0.30303(10) 0.5818(4)
H3 H -0.5144 0.2969 0.6239
C8 C 0.0727(2) 0.28489(9) 0.6282(4)
C9 C 0.5168(2) -0.09135(10) 1.4132(5)
C10 C 0.1669(2) 0.26569(9) 0.5840(4)
C11 C 0.1942(2) 0.05265(9) 1.1533(4)
C12 C 0.2142(2) 0.14650(9) 0.7681(4)
C13 C 0.0699(2) 0.32616(10) 0.6814(4)
H4 H 0.1274 0.3416 0.6925
C14 C -0.2759(2) 0.32018(11) 0.4595(4)
H5 H -0.2158 0.3257 0.4166
C15 C -0.1004(2) 0.28078(9) 0.6554(4)
H6 H -0.1574 0.2649 0.6491
C16 C -0.3788(2) 0.31648(10) 0.6902(4)
H7 H -0.3891 0.3198 0.8041
C17 C 0.2087(2) 0.11275(9) 0.8991(4)
C18 C -0.2872(2) 0.32520(9) 0.6321(4)
C19 C -0.2011(2) 0.34364(9) 0.7414(4)
C20 C -0.0130(2) 0.26206(10) 0.6179(4)
H8 H -0.0122 0.2338 0.5855
C21 C 0.1682(2) 0.05113(10) 1.4573(4)
C22 C 0.1211(2) 0.09176(10) 0.9177(4)
H9 H 0.0670 0.0977 0.8457
C23 C -0.0164(2) 0.34497(10) 0.7185(4)
H10 H -0.0163 0.3729 0.7551
C24 C 0.4016(2) -0.03926(10) 1.5186(4)
H11 H 0.4307 -0.0436 1.6259
C25 C 0.1020(2) -0.00865(10) 1.2799(5)
C26 C -0.4423(2) 0.29845(9) 0.4112(4)
C27 C 0.2818(2) 0.07374(9) 1.1322(4)
H12 H 0.3361 0.0678 1.2037
C28 C -0.2014(2) 0.39143(10) 0.7031(5)
C29 C 0.3946(3) -0.05287(11) 1.2236(4)
H13 H 0.4184 -0.0665 1.1310
C30 C -0.2142(3) 0.33732(12) 0.9303(4)
C31 C 0.4361(2) -0.06050(10) 1.3822(4)
C32 C 0.3242(2) -0.01163(10) 1.4966(4)
H14 H 0.3011 0.0023 1.5893
C33 C 0.3174(3) -0.02492(11) 1.2006(4)
H15 H 0.2901 -0.0199 1.0926
C34 C -0.3521(2) 0.30727(11) 0.3526(4)
H16 H -0.3428 0.3044 0.2382
H17 H 0.589(4) -0.1236(15) 1.282(6)
H18 H 0.370(4) 0.1512(17) 0.367(7)
H19 H 0.315(3) 0.1749(14) 0.273(5)
H20 H 0.137(3) 0.1840(13) 0.650(5)
Cd1C Cd -0.662358(16) 0.274695(7) 0.03352(3)
Cd1_2 Cd -0.662358(16) 0.225305(7) 0.53352(3)
O3C O 0.48222(16) 0.20279(7) 0.6384(3)
O4_2 O 0.40309(15) 0.26569(7) 0.3330(3)
O4C O 0.40309(15) 0.23431(7) 0.8330(3)
loop_
_geom_bond_atom_site_label_1
_geom_bond_atom_site_label_2
_geom_bond_site_symmetry_1
_geom_bond_site_symmetry_2
Cd1 O1 1_555 1_555
F1 C25 1_555 1_555
F2 C28 1_555 1_555
F3 C28 1_555 1_555
F4 C30 1_555 1_555
F5 C30 1_555 1_555
F6 C25 1_555 1_555
F7 C21 1_555 1_555
F8 C30 1_555 1_555
F9 C21 1_555 1_555
F10 C28 1_555 1_555
F11 C21 1_555 1_555
F12 C25 1_555 1_555
O1 C10 1_555 1_555
O2 Cd1 1_555 1_555
O3 C4 1_555 1_555
O4 C4 1_555 1_555
O5 Cd1 1_555 1_555
O6 C12 1_555 1_555
O7 C9 1_555 1_555
O8 C9 1_555 1_555
O9 Cd1 1_555 1_555
C1 C6 1_555 1_555
C2 H1 1_555 1_555
C3 H2 1_555 1_555
C4 C26 1_555 1_555
C5 C15 1_555 1_555
C6 C11 1_555 1_555
C7 H3 1_555 1_555
C8 C10 1_555 1_555
C9 C31 1_555 1_555
C10 O2 1_555 1_555
C11 C3 1_555 1_555
C12 O5 1_555 1_555
C13 C8 1_555 1_555
H4 C13 1_555 1_555
C14 H5 1_555 1_555
C15 H6 1_555 1_555
C16 C7 1_555 1_555
H7 C16 1_555 1_555
C17 C2 1_555 1_555
C18 C14 1_555 1_555
C19 C5 1_555 1_555
C20 C8 1_555 1_555
H8 C20 1_555 1_555
C21 C6 1_555 1_555
C22 C3 1_555 1_555
H9 C22 1_555 1_555
C23 C5 1_555 1_555
H10 C23 1_555 1_555
C24 H11 1_555 1_555
C25 C6 1_555 1_555
C26 C7 1_555 1_555
C27 C2 1_555 1_555
H12 C27 1_555 1_555
C28 C19 1_555 1_555
C29 H13 1_555 1_555
C30 C19 1_555 1_555
C31 C24 1_555 1_555
C32 C1 1_555 1_555
H14 C32 1_555 1_555
C33 C1 1_555 1_555
H15 C33 1_555 1_555
C34 C14 1_555 1_555
H16 C34 1_555 1_555
H17 O7 1_555 1_555
H18 O9 1_555 1_555
H19 O9 1_555 1_555
H20 O6 1_555 1_555
Cd1C O3 1_555 1_555
Cd1_2 O4 1_555 1_555
O3C Cd1 1_555 1_555
O4_2 Cd1 1_555 1_555
O4C Cd1 1_555 1_555
O4 Cd1C 1_555 1_555
C11 C27 1_555 1_555
C12 C17 1_555 1_555
C13 C23 1_555 1_555
C15 C20 1_555 1_555
C16 C18 1_555 1_555
C17 C22 1_555 1_555
C18 C19 1_555 1_555
C24 C32 1_555 1_555
C26 C34 1_555 1_555
C29 C31 1_555 1_555
C29 C33 1_555 1_555

#END
