
#######################################################################
#
#                 Cambridge Crystallographic Data Centre
#                                CCDC 
#
#######################################################################
#
# If this CIF has been generated from an entry in the Cambridge 
# Structural Database, then it will include bibliographic, chemical, 
# crystal, experimental, refinement or atomic coordinate data resulting 
# from the CCDC's data processing and validation procedures.
#
#######################################################################

data_EXUTIB
_symmetry_cell_setting           triclinic
_symmetry_space_group_name_H-M   'P -1'
_symmetry_Int_Tables_number      2
_space_group_name_Hall           '-P 1'
loop_
_symmetry_equiv_pos_site_id
_symmetry_equiv_pos_as_xyz
1 x,y,z
2 -x,-y,-z
_cell_length_a                   8.7519(16)
_cell_length_b                   9.6273(18)
_cell_length_c                   10.1921(19)
_cell_angle_alpha                76.993(2)
_cell_angle_beta                 65.378(2)
_cell_angle_gamma                63.327(2)
_cell_volume                     696.833
loop_
_atom_site_label
_atom_site_type_symbol
_atom_site_fract_x
_atom_site_fract_y
_atom_site_fract_z
Cd1 Cd 1.22884(5) 0.25678(4) 0.72264(4)
Cd2 Cd 0.95282(5) 0.22881(4) 1.41961(4)
C1 C 1.5926(7) 0.2223(6) 1.0235(5)
H1 H 1.6099 0.1178 1.0071
H2 H 1.6950 0.2470 0.9488
C2 C 1.4054(6) 0.3467(6) 1.0160(5)
C3 C 1.2768(6) 0.3414(6) 1.1727(5)
C4 C 1.3881(7) 0.3345(6) 1.2580(5)
C5 C 1.5877(7) 0.2259(6) 1.1760(5)
C6 C 1.3513(7) 0.3134(6) 0.9080(5)
C7 C 1.0943(7) 0.4828(6) 1.2104(5)
C8 C 1.3079(7) 0.2952(5) 1.4175(5)
C9 C 1.6389(7) 0.0595(6) 1.2417(5)
O1 O 1.4334(5) 0.3385(4) 0.7748(3)
O2 O 1.2279(5) 0.2623(4) 0.9504(4)
O3 O 1.0906(5) 0.6175(4) 1.1804(4)
O4 O 0.9500(4) 0.4583(4) 1.2772(4)
O5 O 1.1548(4) 0.2877(4) 1.4752(4)
O6 O 1.4019(4) 0.2787(4) 1.4923(3)
O7 O 1.5268(5) -0.0012(4) 1.2822(4)
O8 O 1.8011(5) -0.0148(4) 1.2442(4)
O9 O 0.6747(5) 0.3661(4) 1.4010(4)
H3 H 0.5991 0.3238 1.4265
H4 H 0.6455 0.4602 1.3686
O10 O 1.0554(5) 0.1138(4) 1.2094(4)
H5 H 1.1390 0.0223 1.1956
H6 H 1.0101 0.1623 1.1447
O11 O 0.8060(5) 0.2668(4) 1.6554(4)
H7 H 0.8478 0.2003 1.7157
H8 H 0.7081 0.3477 1.6851
O12 O 1.1791(5) -0.0168(4) 1.4861(4)
H9 H 1.2609 -0.0146 1.5089
H10 H 1.1747 -0.1032 1.4859
Cd1A Cd 0.77116(5) 0.74322(4) 1.27736(4)
Cd1_2 Cd 1.22884(5) 0.25678(4) 1.72264(4)
Cd1A_2 Cd 1.77116(5) -0.25678(4) 1.27736(4)
Cd2A Cd 1.04718(5) -0.22881(4) 1.58039(4)
O3A O 0.9094(5) 0.3825(4) 0.8196(4)
O4A O 1.0500(4) 0.5417(4) 0.7228(4)
O5_2 O 1.1548(4) 0.2877(4) 0.4752(4)
O6_2 O 1.4019(4) 0.2787(4) 0.4923(3)
O7A O 1.4732(5) 0.0012(4) 0.7178(4)
O8A O 1.1989(5) 0.0148(4) 0.7558(4)
O12A O 0.8209(5) 0.0168(4) 1.5139(4)
H9A H 0.7391 0.0146 1.4911
H10A H 0.8253 0.1032 1.5141
loop_
_geom_bond_atom_site_label_1
_geom_bond_atom_site_label_2
_geom_bond_site_symmetry_1
_geom_bond_site_symmetry_2
Cd1 O1 1_555 1_555
Cd2 O4 1_555 1_555
C1 H1 1_555 1_555
H2 C1 1_555 1_555
C2 C1 1_555 1_555
C3 C2 1_555 1_555
C4 C3 1_555 1_555
C5 C1 1_555 1_555
C6 C2 1_555 1_555
C7 C3 1_555 1_555
C8 C4 1_555 1_555
C9 C5 1_555 1_555
O1 C6 1_555 1_555
O2 Cd1 1_555 1_555
O3 C7 1_555 1_555
O4 C7 1_555 1_555
O5 Cd2 1_555 1_555
O6 C8 1_555 1_555
O7 C9 1_555 1_555
O8 C9 1_555 1_555
O9 Cd2 1_555 1_555
H3 O9 1_555 1_555
H4 O9 1_555 1_555
O10 Cd2 1_555 1_555
H5 O10 1_555 1_555
H6 O10 1_555 1_555
O11 Cd2 1_555 1_555
H7 O11 1_555 1_555
H8 O11 1_555 1_555
O12 Cd2 1_555 1_555
H9 O12 1_555 1_555
H10 O12 1_555 1_555
Cd1A O3 1_555 1_555
Cd1_2 O5 1_555 1_555
Cd1A_2 O7 1_555 1_555
Cd2A O12 1_555 1_555
O3A Cd1 1_555 1_555
O4A Cd1 1_555 1_555
O5_2 Cd1 1_555 1_555
O6_2 Cd1 1_555 1_555
O7A Cd1 1_555 1_555
O8A Cd1 1_555 1_555
O12A Cd2 1_555 1_555
H9A O12A 1_555 1_555
H10A O12A 1_555 1_555
C4 C5 1_555 1_555
C6 O2 1_555 1_555
C8 O5 1_555 1_555
O4 Cd1A 1_555 1_555
O6 Cd1_2 1_555 1_555
O8 Cd1A_2 1_555 1_555
Cd2A O12A 1_555 1_555

#END
