
#######################################################################
#
#                 Cambridge Crystallographic Data Centre
#                                CCDC 
#
#######################################################################
#
# If this CIF has been generated from an entry in the Cambridge 
# Structural Database, then it will include bibliographic, chemical, 
# crystal, experimental, refinement or atomic coordinate data resulting 
# from the CCDC's data processing and validation procedures.
#
#######################################################################

data_EXUVAV
_symmetry_cell_setting           monoclinic
_symmetry_space_group_name_H-M   'C 2/c'
_symmetry_Int_Tables_number      15
_space_group_name_Hall           '-C 2yn'
loop_
_symmetry_equiv_pos_site_id
_symmetry_equiv_pos_as_xyz
1 x,y,z
2 -x,y,1/2-z
3 1/2+x,1/2+y,z
4 1/2-x,1/2+y,1/2-z
5 -x,-y,-z
6 x,-y,1/2+z
7 1/2-x,1/2-y,-z
8 1/2+x,1/2-y,1/2+z
_cell_length_a                   20.565(8)
_cell_length_b                   14.196(6)
_cell_length_c                   31.034(12)
_cell_angle_alpha                90
_cell_angle_beta                 101.763(8)
_cell_angle_gamma                90
_cell_volume                     8869.82
loop_
_atom_site_label
_atom_site_type_symbol
_atom_site_fract_x
_atom_site_fract_y
_atom_site_fract_z
Pb1 Pb -0.035464(16) -0.31423(2) -0.086329(11)
Pb2 Pb -0.195744(16) -1.09303(2) -0.146852(11)
Cl1 Cl 0.46941(13) -0.11704(19) 0.17834(9)
Cl2 Cl -0.65613(18) -1.4924(3) -0.38834(12)
C1 C -0.1572(4) -0.6371(6) -0.1391(3)
H1 H -0.1875 -0.5919 -0.1523
C2 C 0.0129(5) -0.0800(7) -0.0547(3)
H2 H -0.0268 -0.0709 -0.0748
C3 C 0.1707(4) -0.2940(5) 0.0237(2)
C4 C -0.1266(4) -0.8006(6) -0.1265(3)
C5 C 0.1470(4) -0.4576(6) 0.0162(3)
H3 H 0.1580 -0.5200 0.0233
C6 C 0.2836(5) -0.0700(6) 0.0802(3)
C7 C 0.1883(4) -0.3864(6) 0.0334(3)
H4 H 0.2287 -0.4001 0.0519
C8 C -0.1421(5) -0.9030(7) -0.1332(3)
C9 C -0.1716(4) -0.7306(7) -0.1463(3)
H5 H -0.2115 -0.7482 -0.1645
C10 C 0.3039(4) -0.1623(6) 0.0894(3)
C11 C 0.3757(5) -0.0117(7) 0.1284(3)
H6 H 0.4012 0.0386 0.1415
C12 C -0.0973(4) -0.6090(6) -0.1119(3)
C13 C 0.0897(4) -0.1779(6) -0.0166(3)
C14 C 0.2122(4) -0.2179(6) 0.0437(3)
C15 C -0.0678(4) -0.7702(6) -0.0992(3)
H7 H -0.0373 -0.8148 -0.0855
C16 C 0.1108(4) -0.2773(6) -0.0045(3)
C17 C -0.0824(5) -0.5070(7) -0.1043(3)
C18 C 0.1905(4) -0.1231(6) 0.0339(3)
C19 C 0.0882(4) -0.4344(6) -0.0123(3)
H8 H 0.0600 -0.4831 -0.0243
C20 C 0.3974(4) -0.1042(7) 0.1388(3)
C21 C 0.3637(4) -0.1801(7) 0.1204(3)
H9 H 0.3787 -0.2410 0.1275
C22 C -0.0538(4) -0.6779(7) -0.0921(3)
H10 H -0.0142 -0.6603 -0.0736
C23 C 0.1284(4) -0.1043(6) 0.0036(3)
C24 C 0.1055(5) -0.0135(6) -0.0069(3)
H11 H 0.1289 0.0384 0.0065
C25 C 0.0471(5) -0.0020(7) -0.0376(3)
H12 H 0.0314 0.0579 -0.0464
C26 C -0.1390(4) -0.2669(6) -0.0426(3)
C27 C -0.1949(4) -0.2576(5) -0.0200(3)
C28 C -0.1971(5) -0.3058(6) 0.0182(3)
H13 H -0.1616 -0.3439 0.0311
C29 C -0.2487(4) -0.2021(6) -0.0371(3)
H14 H -0.2482 -0.1685 -0.0628
C30 C -0.3384(4) -1.1385(6) -0.2299(3)
C31 C -0.3156(4) -1.2339(6) -0.2194(3)
C32 C -0.0957(5) -1.1418(6) -0.1949(3)
C33 C -0.3186(5) -0.9795(7) -0.2223(3)
H15 H -0.2930 -0.9299 -0.2084
C34 C -0.4143(4) -1.2946(6) -0.2717(3)
C35 C -0.3506(5) -1.3106(7) -0.2405(3)
C36 C -0.4368(5) -1.2028(7) -0.2813(3)
C37 C -0.3963(4) -1.1235(6) -0.2615(3)
C38 C -0.3254(5) -1.4002(7) -0.2301(3)
H16 H -0.3471 -1.4529 -0.2439
C39 C -0.4139(5) -1.0336(7) -0.2735(3)
H17 H -0.4525 -1.0220 -0.2943
C40 C -0.2687(5) -1.4093(8) -0.1996(3)
H18 H -0.2509 -1.4688 -0.1925
C41 C -0.2369(5) -1.3307(7) -0.1789(3)
H19 H -0.1987 -1.3389 -0.1573
C42 C -0.5058(5) -1.3516(8) -0.3177(3)
C43 C -0.3749(5) -0.9594(7) -0.2548(3)
H20 H -0.3857 -0.8977 -0.2635
C44 C -0.5292(5) -1.2604(9) -0.3266(3)
C45 C -0.5445(6) -1.4270(8) -0.3372(4)
H21 H -0.5305 -1.4889 -0.3314
C46 C -0.0472(5) -1.1495(6) -0.2239(3)
C47 C 0.0203(5) -1.1528(6) -0.2051(3)
H22 H 0.0337 -1.1573 -0.1747
C48 C -0.0674(5) -1.1496(6) -0.2690(3)
H23 H -0.1123 -1.1475 -0.2820
C49 C -0.6227(5) -1.3150(11) -0.3712(3)
H24 H -0.6640 -1.3046 -0.3893
C50 C -0.6011(6) -1.4081(11) -0.3639(4)
N1 N 0.0698(3) -0.3466(5) -0.0233(2)
N2 N 0.2689(3) -0.2368(5) 0.0708(2)
N3 N 0.2257(4) -0.0509(5) 0.0526(2)
N4 N 0.3196(4) 0.0048(5) 0.1003(3)
N5 N 0.0319(3) -0.1676(5) -0.0450(2)
N6 N -0.2589(3) -1.2449(5) -0.1887(2)
N7 N -0.3008(4) -1.0671(5) -0.2109(2)
N8 N -0.4487(4) -1.3703(5) -0.2895(3)
N9 N -0.4935(4) -1.1846(6) -0.3082(2)
N10 N -0.5884(4) -1.2414(7) -0.3542(3)
O1 O -0.0273(3) -0.4860(4) -0.0803(2)
O2 O -0.1027(3) -0.9613(4) -0.1155(2)
O3 O -0.1229(3) -0.4470(4) -0.1216(2)
O4 O -0.1963(3) -0.9231(4) -0.1589(2)
O5 O -0.0912(3) -0.3207(4) -0.02692(18)
O6 O -0.1391(3) -0.2236(5) -0.0773(2)
O7 O -0.1512(3) -1.1037(4) -0.2106(2)
O8 O -0.0814(3) -1.1695(5) -0.1560(2)
Pb1F Pb -0.464536(16) -0.18577(2) 0.086329(11)
Pb2F Pb -0.304256(16) 0.59303(2) 0.146852(11)
Pb2A Pb 0.195744(16) -1.09303(2) -0.353148(11)
Cl1F Cl -0.96941(13) -0.38296(19) -0.17834(9)
Cl2F Cl 0.15613(18) 0.9924(3) 0.38834(12)
C1F C -0.3428(4) 0.1371(6) 0.1391(3)
H1F H -0.3125 0.0919 0.1523
C2F C -0.5129(5) -0.4200(7) 0.0547(3)
H2F H -0.4732 -0.4291 0.0748
C3F C -0.6707(4) -0.2060(5) -0.0237(2)
C4F C -0.3734(4) 0.3006(6) 0.1265(3)
C5F C -0.6470(4) -0.0424(6) -0.0162(3)
H3F H -0.6580 0.0200 -0.0233
C6F C -0.7836(5) -0.4300(6) -0.0802(3)
C7F C -0.6883(4) -0.1136(6) -0.0334(3)
H4F H -0.7287 -0.0999 -0.0519
C8F C -0.3579(5) 0.4030(7) 0.1332(3)
C9F C -0.3284(4) 0.2306(7) 0.1463(3)
H5F H -0.2885 0.2482 0.1645
C10F C -0.8039(4) -0.3377(6) -0.0894(3)
C11F C -0.8757(5) -0.4883(7) -0.1284(3)
H6F H -0.9012 -0.5386 -0.1415
C12F C -0.4027(4) 0.1090(6) 0.1119(3)
C13F C -0.5897(4) -0.3221(6) 0.0166(3)
C14F C -0.7122(4) -0.2821(6) -0.0437(3)
C15F C -0.4322(4) 0.2702(6) 0.0992(3)
H7F H -0.4627 0.3148 0.0855
C16F C -0.6108(4) -0.2227(6) 0.0045(3)
C17F C -0.4176(5) 0.0070(7) 0.1043(3)
C18F C -0.6905(4) -0.3769(6) -0.0339(3)
C19F C -0.5882(4) -0.0656(6) 0.0123(3)
H8F H -0.5600 -0.0169 0.0243
C20F C -0.8974(4) -0.3958(7) -0.1388(3)
C21F C -0.8637(4) -0.3199(7) -0.1204(3)
H9F H -0.8787 -0.2590 -0.1275
C22F C -0.4462(4) 0.1779(7) 0.0921(3)
H10F H -0.4858 0.1603 0.0736
C23F C -0.6284(4) -0.3957(6) -0.0036(3)
C24F C -0.6055(5) -0.4865(6) 0.0069(3)
H11F H -0.6289 -0.5384 -0.0065
C25F C -0.5471(5) -0.4980(7) 0.0376(3)
H12F H -0.5314 -0.5579 0.0464
C26F C -0.3610(4) -0.2331(6) 0.0426(3)
C27F C -0.3051(4) -0.2424(5) 0.0200(3)
C28F C -0.3029(5) -0.1942(6) -0.0182(3)
H13F H -0.3384 -0.1561 -0.0311
C29F C -0.2513(4) -0.2979(6) 0.0371(3)
H14F H -0.2518 -0.3315 0.0628
C30F C -0.1616(4) 0.6385(6) 0.2299(3)
C31F C -0.1844(4) 0.7339(6) 0.2194(3)
C32A C 0.0957(5) -1.1418(6) -0.3051(3)
C33F C -0.1814(5) 0.4795(7) 0.2223(3)
H15F H -0.2070 0.4299 0.2084
C34F C -0.0857(4) 0.7946(6) 0.2717(3)
C35F C -0.1494(5) 0.8106(7) 0.2405(3)
C36F C -0.0632(5) 0.7028(7) 0.2813(3)
C37F C -0.1037(4) 0.6235(6) 0.2615(3)
C38F C -0.1746(5) 0.9002(7) 0.2301(3)
H16F H -0.1529 0.9529 0.2439
C39F C -0.0861(5) 0.5336(7) 0.2735(3)
H17F H -0.0475 0.5220 0.2943
C40F C -0.2313(5) 0.9093(8) 0.1996(3)
H18F H -0.2491 0.9688 0.1925
C41F C -0.2631(5) 0.8307(7) 0.1789(3)
H19F H -0.3013 0.8389 0.1573
C42F C 0.0058(5) 0.8516(8) 0.3177(3)
C43F C -0.1251(5) 0.4594(7) 0.2548(3)
H20F H -0.1143 0.3977 0.2635
C44F C 0.0292(5) 0.7604(9) 0.3266(3)
C45F C 0.0445(6) 0.9270(8) 0.3372(4)
H21F H 0.0305 0.9889 0.3314
C46A C 0.0472(5) -1.1495(6) -0.2761(3)
C47A C -0.0203(5) -1.1528(6) -0.2949(3)
H22A H -0.0337 -1.1573 -0.3253
C48A C 0.0674(5) -1.1496(6) -0.2310(3)
H23A H 0.1123 -1.1475 -0.2180
C49F C 0.1227(5) 0.8150(11) 0.3712(3)
H24F H 0.1640 0.8046 0.3893
C50F C 0.1011(6) 0.9081(11) 0.3639(4)
N1F N -0.5698(3) -0.1534(5) 0.0233(2)
N2F N -0.7689(3) -0.2632(5) -0.0708(2)
N3F N -0.7257(4) -0.4491(5) -0.0526(2)
N4F N -0.8196(4) -0.5048(5) -0.1003(3)
N5F N -0.5319(3) -0.3324(5) 0.0450(2)
N6F N -0.2411(3) 0.7449(5) 0.1887(2)
N7F N -0.1992(4) 0.5671(5) 0.2109(2)
N8F N -0.0513(4) 0.8703(5) 0.2895(3)
N9F N -0.0065(4) 0.6846(6) 0.3082(2)
N10F N 0.0884(4) 0.7414(7) 0.3542(3)
O1F O -0.4727(3) -0.0140(4) 0.0803(2)
O2F O -0.3973(3) 0.4613(4) 0.1155(2)
O3F O -0.3771(3) -0.0530(4) 0.1216(2)
O4F O -0.3037(3) 0.4231(4) 0.1589(2)
O5F O -0.4088(3) -0.1793(4) 0.02692(18)
O6F O -0.3609(3) -0.2764(5) 0.0773(2)
O7A O 0.1512(3) -1.1037(4) -0.2894(2)
O7F O -0.3488(3) 0.6037(4) 0.2106(2)
O8A O 0.0814(3) -1.1695(5) -0.3440(2)
O8F O -0.4186(3) 0.6695(5) 0.1560(2)
loop_
_geom_bond_atom_site_label_1
_geom_bond_atom_site_label_2
_geom_bond_site_symmetry_1
_geom_bond_site_symmetry_2
Pb1 N1 1_555 1_555
Pb2 N6 1_555 1_555
Cl1 C20 1_555 1_555
Cl2 C50 1_555 1_555
C1 H1 1_555 1_555
C2 H2 1_555 1_555
C3 C7 1_555 1_555
C4 C8 1_555 1_555
C5 H3 1_555 1_555
C6 C10 1_555 1_555
C7 C5 1_555 1_555
H4 C7 1_555 1_555
C8 O2 1_555 1_555
C9 C1 1_555 1_555
H5 C9 1_555 1_555
C10 C21 1_555 1_555
C11 H6 1_555 1_555
C12 C1 1_555 1_555
C13 C16 1_555 1_555
C14 C3 1_555 1_555
C15 C4 1_555 1_555
H7 C15 1_555 1_555
C16 C3 1_555 1_555
C17 C12 1_555 1_555
C18 C14 1_555 1_555
C19 C5 1_555 1_555
H8 C19 1_555 1_555
C20 C11 1_555 1_555
C21 C20 1_555 1_555
H9 C21 1_555 1_555
C22 C12 1_555 1_555
H10 C22 1_555 1_555
C23 C13 1_555 1_555
C24 C23 1_555 1_555
H11 C24 1_555 1_555
C25 C2 1_555 1_555
H12 C25 1_555 1_555
C26 C27 1_555 1_555
C27 C28 1_555 1_555
C28 H13 1_555 1_555
C29 C27 1_555 1_555
H14 C29 1_555 1_555
C30 C31 1_555 1_555
C31 C35 1_555 1_555
C32 C46 1_555 1_555
C33 H15 1_555 1_555
C34 C35 1_555 1_555
C35 C38 1_555 1_555
C36 C34 1_555 1_555
C37 C30 1_555 1_555
C38 H16 1_555 1_555
C39 C37 1_555 1_555
H17 C39 1_555 1_555
C40 C38 1_555 1_555
H18 C40 1_555 1_555
C41 C40 1_555 1_555
H19 C41 1_555 1_555
C42 C44 1_555 1_555
C43 C33 1_555 1_555
H20 C43 1_555 1_555
C44 N9 1_555 1_555
C45 C42 1_555 1_555
H21 C45 1_555 1_555
C46 C47 1_555 1_555
C47 H22 1_555 1_555
C48 C46 1_555 1_555
H23 C48 1_555 1_555
C49 H24 1_555 1_555
C50 C45 1_555 1_555
N1 C16 1_555 1_555
N2 C10 1_555 1_555
N3 C6 1_555 1_555
N4 C6 1_555 1_555
N5 Pb1 1_555 1_555
N6 C31 1_555 1_555
N7 Pb2 1_555 1_555
N8 C34 1_555 1_555
N9 C36 1_555 1_555
N10 C44 1_555 1_555
O1 Pb1 1_555 1_555
O2 Pb2 1_555 1_555
O3 Pb1 1_555 1_555
O4 Pb2 1_555 1_555
O5 Pb1 1_555 1_555
O6 Pb1 1_555 1_555
O7 Pb2 1_555 1_555
O8 Pb2 1_555 1_555
Pb1F N1F 1_555 1_555
Pb2F N6F 1_555 1_555
Pb2A O7A 1_555 1_555
Cl1F C20F 1_555 1_555
Cl2F C50F 1_555 1_555
C1F H1F 1_555 1_555
C2F H2F 1_555 1_555
C3F C7F 1_555 1_555
C4F C8F 1_555 1_555
C5F H3F 1_555 1_555
C6F C10F 1_555 1_555
C7F C5F 1_555 1_555
H4F C7F 1_555 1_555
C8F O2F 1_555 1_555
C9F C1F 1_555 1_555
H5F C9F 1_555 1_555
C10F C21F 1_555 1_555
C11F H6F 1_555 1_555
C12F C1F 1_555 1_555
C13F C16F 1_555 1_555
C14F C3F 1_555 1_555
C15F C4F 1_555 1_555
H7F C15F 1_555 1_555
C16F C3F 1_555 1_555
C17F C12F 1_555 1_555
C18F C14F 1_555 1_555
C19F C5F 1_555 1_555
H8F C19F 1_555 1_555
C20F C11F 1_555 1_555
C21F C20F 1_555 1_555
H9F C21F 1_555 1_555
C22F C12F 1_555 1_555
H10F C22F 1_555 1_555
C23F C13F 1_555 1_555
C24F C23F 1_555 1_555
H11F C24F 1_555 1_555
C25F C2F 1_555 1_555
H12F C25F 1_555 1_555
C26F C27F 1_555 1_555
C27F C28F 1_555 1_555
C28F C29 1_555 1_555
H13F C28F 1_555 1_555
C29F C28 1_555 1_555
H14F C29F 1_555 1_555
C30F C31F 1_555 1_555
C31F C35F 1_555 1_555
C32A C46A 1_555 1_555
C33F H15F 1_555 1_555
C34F C35F 1_555 1_555
C35F C38F 1_555 1_555
C36F C34F 1_555 1_555
C37F C30F 1_555 1_555
C38F H16F 1_555 1_555
C39F C37F 1_555 1_555
H17F C39F 1_555 1_555
C40F C38F 1_555 1_555
H18F C40F 1_555 1_555
C41F C40F 1_555 1_555
H19F C41F 1_555 1_555
C42F C44F 1_555 1_555
C43F C33F 1_555 1_555
H20F C43F 1_555 1_555
C44F N9F 1_555 1_555
C45F C42F 1_555 1_555
H21F C45F 1_555 1_555
C46A C47A 1_555 1_555
C47A C48 1_555 1_555
H22A C47A 1_555 1_555
C48A C47 1_555 1_555
H23A C48A 1_555 1_555
C49F H24F 1_555 1_555
C50F C45F 1_555 1_555
N1F C16F 1_555 1_555
N2F C10F 1_555 1_555
N3F C6F 1_555 1_555
N4F C6F 1_555 1_555
N5F Pb1F 1_555 1_555
N6F C31F 1_555 1_555
N7F Pb2F 1_555 1_555
N8F C34F 1_555 1_555
N9F C36F 1_555 1_555
N10F C44F 1_555 1_555
O1F Pb1F 1_555 1_555
O2F Pb2F 1_555 1_555
O3F Pb1F 1_555 1_555
O4F Pb2F 1_555 1_555
O5F Pb1F 1_555 1_555
O6F Pb1F 1_555 1_555
O7A C32A 1_555 1_555
O7F Pb2F 1_555 1_555
O8A Pb2A 1_555 1_555
O8F Pb2F 1_555 1_555
C2 N5 1_555 1_555
C4 C9 1_555 1_555
C8 O4 1_555 1_555
C11 N4 1_555 1_555
C13 N5 1_555 1_555
C14 N2 1_555 1_555
C15 C22 1_555 1_555
C17 O1 1_555 1_555
C17 O3 1_555 1_555
C18 C23 1_555 1_555
C18 N3 1_555 1_555
C19 N1 1_555 1_555
C24 C25 1_555 1_555
C26 O5 1_555 1_555
C26 O6 1_555 1_555
C30 N7 1_555 1_555
C32 O7 1_555 1_555
C32 O8 1_555 1_555
C33 N7 1_555 1_555
C36 C37 1_555 1_555
C39 C43 1_555 1_555
C41 N6 1_555 1_555
C42 N8 1_555 1_555
C49 C50 1_555 1_555
C49 N10 1_555 1_555
C2F N5F 1_555 1_555
C4F C9F 1_555 1_555
C8F O4F 1_555 1_555
C11F N4F 1_555 1_555
C13F N5F 1_555 1_555
C14F N2F 1_555 1_555
C15F C22F 1_555 1_555
C17F O1F 1_555 1_555
C17F O3F 1_555 1_555
C18F C23F 1_555 1_555
C18F N3F 1_555 1_555
C19F N1F 1_555 1_555
C24F C25F 1_555 1_555
C26F O5F 1_555 1_555
C26F O6F 1_555 1_555
C27F C29F 1_555 1_555
C30F N7F 1_555 1_555
C32A O8A 1_555 1_555
C33F N7F 1_555 1_555
C36F C37F 1_555 1_555
C39F C43F 1_555 1_555
C41F N6F 1_555 1_555
C42F N8F 1_555 1_555
C46A C48A 1_555 1_555
C49F C50F 1_555 1_555
C49F N10F 1_555 1_555

#END
