
#######################################################################
#
#                 Cambridge Crystallographic Data Centre
#                                CCDC 
#
#######################################################################
#
# If this CIF has been generated from an entry in the Cambridge 
# Structural Database, then it will include bibliographic, chemical, 
# crystal, experimental, refinement or atomic coordinate data resulting 
# from the CCDC's data processing and validation procedures.
#
#######################################################################

data_EXUWEA
_symmetry_cell_setting           monoclinic
_symmetry_space_group_name_H-M   'P 21/c'
_symmetry_Int_Tables_number      14
_space_group_name_Hall           '-P 2ybc'
loop_
_symmetry_equiv_pos_site_id
_symmetry_equiv_pos_as_xyz
1 x,y,z
2 -x,1/2+y,1/2-z
3 -x,-y,-z
4 x,1/2-y,1/2+z
_cell_length_a                   13.3120(19)
_cell_length_b                   13.3382(8)
_cell_length_c                   8.1835(14)
_cell_angle_alpha                90
_cell_angle_beta                 107.671(13)
_cell_angle_gamma                90
_cell_volume                     1384.49
loop_
_atom_site_label
_atom_site_type_symbol
_atom_site_fract_x
_atom_site_fract_y
_atom_site_fract_z
Zn1 Zn 0.37886(2) 0.23419(3) 0.85301(4)
C1 C 0.7005(2) 0.3300(2) 1.1967(4)
H1 H 0.6471 0.3086 1.2476
H2 H 0.7170 0.2733 1.1352
C2 C 0.6556(2) 0.4136(2) 1.0699(4)
H3 H 0.6404 0.4712 1.1308
H4 H 0.7075 0.4336 1.0149
C3 C 0.5557(2) 0.3806(2) 0.9346(4)
C4 C 0.8672(2) 0.4270(2) 1.7939(4)
H5 H 0.9162 0.3848 1.8776
H6 H 0.7965 0.4100 1.7951
C5 C 0.8892(2) 0.5363(2) 1.8475(4)
H7 H 0.8864 0.5445 1.9638
H8 H 0.9598 0.5536 1.8466
C6 C 0.8113(2) 0.6073(2) 1.7308(4)
C7 C 0.7846(2) 0.3922(2) 1.4878(4)
C8 C 0.8931(2) 0.3467(2) 1.3082(4)
C9 C 0.9754(2) 0.3895(2) 1.6079(4)
N1 N 0.79672(18) 0.35897(19) 1.3356(3)
N2 N 0.97859(19) 0.3652(2) 1.4477(3)
H9 H 1.0398 0.3612 1.4330
N3 N 0.87627(18) 0.40488(19) 1.6227(3)
O1 O 0.51041(17) 0.30626(18) 0.9731(3)
O2 O 0.52493(19) 0.42710(19) 0.7962(3)
O3 O 0.74044(15) 0.64441(16) 1.7848(3)
O4 O 0.81971(17) 0.62433(18) 1.5841(3)
O5 O 0.69890(16) 0.4078(2) 1.5056(3)
O6 O 0.90149(19) 0.32065(19) 1.1714(3)
O7 O 1.05485(16) 0.4000(2) 1.7289(3)
O8 O 0.27145(16) 0.34727(16) 0.8813(3)
H10 H 0.2507 0.3922 0.8048
H11 H 0.2494 0.3473 0.9685
O9 O 0.47354(17) 0.10962(18) 0.8545(3)
H12 H 0.4984 0.1000 0.7715
H13 H 0.4874 0.0685 0.9377
O10 O 0.37038(14) 0.31272(15) 0.6112(2)
H14 H 0.3318 0.3644 0.5817
H15 H 0.4056 0.2911 0.5477
Zn1A Zn 0.62114(2) 0.73419(3) 1.64699(4)
Zn1C Zn 0.37886(2) 0.26581(3) 0.35301(4)
O3A O 0.25956(15) 0.14441(16) 0.7152(3)
O10C O 0.37038(14) 0.18728(15) 1.1112(2)
H14C H 0.3318 0.1356 1.0817
H15C H 0.4056 0.2089 1.0477
loop_
_geom_bond_atom_site_label_1
_geom_bond_atom_site_label_2
_geom_bond_site_symmetry_1
_geom_bond_site_symmetry_2
Zn1 O1 1_555 1_555
C1 H1 1_555 1_555
H2 C1 1_555 1_555
C2 C1 1_555 1_555
H3 C2 1_555 1_555
H4 C2 1_555 1_555
C3 C2 1_555 1_555
C4 H5 1_555 1_555
H6 C4 1_555 1_555
C5 C4 1_555 1_555
H7 C5 1_555 1_555
H8 C5 1_555 1_555
C6 C5 1_555 1_555
C7 N1 1_555 1_555
C8 N1 1_555 1_555
C9 N2 1_555 1_555
N1 C1 1_555 1_555
N2 C8 1_555 1_555
H9 N2 1_555 1_555
N3 C4 1_555 1_555
O1 C3 1_555 1_555
O2 C3 1_555 1_555
O3 C6 1_555 1_555
O4 C6 1_555 1_555
O5 C7 1_555 1_555
O6 C8 1_555 1_555
O7 C9 1_555 1_555
O8 Zn1 1_555 1_555
H10 O8 1_555 1_555
H11 O8 1_555 1_555
O9 Zn1 1_555 1_555
H12 O9 1_555 1_555
H13 O9 1_555 1_555
O10 Zn1 1_555 1_555
H14 O10 1_555 1_555
H15 O10 1_555 1_555
Zn1A O3 1_555 1_555
Zn1C O10 1_555 1_555
O3A Zn1 1_555 1_555
O10C Zn1 1_555 1_555
H14C O10C 1_555 1_555
H15C O10C 1_555 1_555
C7 N3 1_555 1_555
C9 N3 1_555 1_555

#END
