
#######################################################################
#
#                 Cambridge Crystallographic Data Centre
#                                CCDC 
#
#######################################################################
#
# If this CIF has been generated from an entry in the Cambridge 
# Structural Database, then it will include bibliographic, chemical, 
# crystal, experimental, refinement or atomic coordinate data resulting 
# from the CCDC's data processing and validation procedures.
#
#######################################################################

data_EXUXAX
_symmetry_cell_setting           triclinic
_symmetry_space_group_name_H-M   'P -1'
_symmetry_Int_Tables_number      2
_space_group_name_Hall           '-P 1'
loop_
_symmetry_equiv_pos_site_id
_symmetry_equiv_pos_as_xyz
1 x,y,z
2 -x,-y,-z
_cell_length_a                   8.627(3)
_cell_length_b                   18.589(8)
_cell_length_c                   18.619(8)
_cell_angle_alpha                60.851(5)
_cell_angle_beta                 89.920(2)
_cell_angle_gamma                87.136(4)
_cell_volume                     2603.58
loop_
_atom_site_label
_atom_site_type_symbol
_atom_site_fract_x
_atom_site_fract_y
_atom_site_fract_z
Cd1 Cd 0.55239(5) 0.74682(2) 0.29086(2)
Cd2 Cd 1.02853(6) 0.67549(3) 0.31560(3)
Cd3 Cd 0.23275(5) 1.12009(2) 0.90243(2)
C1 C 0.6639(6) 0.8187(3) 0.6031(3)
C2 C 0.9148(7) 0.8438(3) 0.5990(3)
C3 C 0.7370(7) 0.9274(3) 0.6131(3)
C4 C 0.5819(6) 0.6859(3) 0.5829(3)
C5 C 0.6634(6) 0.7011(3) 0.5137(3)
H1 H 0.6861 0.7547 0.4756
C6 C 0.7111(6) 0.6359(3) 0.5012(3)
C7 C 0.6754(7) 0.5564(3) 0.5570(4)
H2 H 0.7104 0.5126 0.5492
C8 C 0.5883(8) 0.5420(4) 0.6241(4)
H3 H 0.5597 0.4888 0.6600
C9 C 0.5427(7) 0.6065(4) 0.6384(3)
H4 H 0.4866 0.5966 0.6848
C10 C 0.8041(7) 0.6521(4) 0.4269(4)
C11 C 1.1219(6) 0.7399(3) 0.5710(3)
C12 C 1.1965(6) 0.7526(3) 0.4996(3)
H5 H 1.2332 0.8040 0.4641
C13 C 1.2161(6) 0.6886(3) 0.4813(3)
C14 C 1.1621(7) 0.6122(3) 0.5348(3)
H6 H 1.1738 0.5692 0.5228
C15 C 1.0909(7) 0.5999(4) 0.6059(4)
H7 H 1.0565 0.5481 0.6421
C16 C 1.0698(7) 0.6632(3) 0.6243(3)
H8 H 1.0208 0.6542 0.6722
C17 C 1.3056(7) 0.7013(4) 0.4066(3)
C18 C 0.5041(7) 1.0262(3) 0.6373(4)
C19 C 0.4673(7) 1.0497(3) 0.6961(3)
H9 H 0.5463 1.0577 0.7250
C20 C 0.3135(6) 1.0612(3) 0.7117(3)
C21 C 0.1951(7) 1.0495(3) 0.6689(3)
H10 H 0.0917 1.0569 0.6794
C22 C 0.2331(8) 1.0266(4) 0.6102(4)
H11 H 0.1544 1.0184 0.5813
C23 C 0.3860(8) 1.0159(3) 0.5940(4)
H12 H 0.4095 1.0016 0.5536
C24 C 0.2784(6) 1.0830(3) 0.7778(3)
C25 C 0.9485(7) 0.2463(3) 0.1794(3)
C26 C 1.1075(6) 0.3403(3) 0.1739(3)
C27 C 0.8515(6) 0.3677(3) 0.1606(3)
C28 C 0.7259(6) 0.1519(3) 0.1670(3)
C29 C 0.6785(6) 0.1423(3) 0.1009(3)
H13 H 0.7514 0.1339 0.0684
C30 C 0.5201(6) 0.1453(3) 0.0840(3)
C31 C 0.4125(7) 0.1623(3) 0.1298(4)
H14 H 0.3072 0.1677 0.1163
C32 C 0.4616(7) 0.1710(3) 0.1951(4)
H15 H 0.3888 0.1820 0.2259
C33 C 0.6176(7) 0.1638(3) 0.2158(3)
H16 H 0.6494 0.1669 0.2619
C34 C 0.4620(8) 0.1339(3) 0.0138(4)
C35 C 1.2791(6) 0.4749(3) 0.1398(3)
C36 C 1.2156(6) 0.5068(3) 0.1882(3)
H17 H 1.1740 0.4721 0.2388
C37 C 1.2155(6) 0.5911(3) 0.1597(3)
C38 C 1.2784(7) 0.6421(3) 0.0849(4)
H18 H 1.2795 0.6984 0.0669
C39 C 1.3399(7) 0.6112(4) 0.0362(4)
H19 H 1.3813 0.6462 -0.0145
C40 C 1.3390(7) 0.5271(4) 0.0642(4)
H20 H 1.3791 0.5057 0.0317
C41 C 1.1441(7) 0.6257(3) 0.2101(3)
C42 C 0.7492(6) 0.5249(3) 0.1259(3)
C43 C 0.7063(6) 0.5610(3) 0.1732(3)
H21 H 0.6476 0.5327 0.2197
C44 C 0.7513(6) 0.6400(3) 0.1511(3)
C45 C 0.8383(6) 0.6813(3) 0.0817(3)
H22 H 0.8700 0.7337 0.0669
C46 C 0.8788(7) 0.6448(3) 0.0339(4)
H23 H 0.9364 0.6732 -0.0131
C47 C 0.8340(7) 0.5668(3) 0.0557(3)
H24 H 0.8605 0.5426 0.0236
C48 C 0.7050(7) 0.6787(3) 0.2022(4)
N1 N 0.8089(5) 0.7948(3) 0.5966(3)
N2 N 0.8879(6) 0.9118(3) 0.6059(3)
N3 N 0.6195(5) 0.8839(3) 0.6127(3)
N4 N 1.0948(5) 0.2635(3) 0.1864(3)
N5 N 0.9906(5) 0.3958(3) 0.1604(3)
N6 N 0.8222(5) 0.2959(3) 0.1661(3)
O1 O 0.7864(5) 0.7220(2) 0.3618(2)
O2 O 0.3613(5) 0.8006(3) 0.1895(3)
H25 H 0.397(9) 0.834(4) 0.134(2)
H26 H 0.310(8) 0.756(3) 0.189(4)
O3 O 0.9004(5) 0.5981(3) 0.4307(3)
O4 O 1.0821(5) 0.8090(2) 0.2744(3)
H27 H 1.179(4) 0.824(4) 0.249(4)
H28 H 1.004(5) 0.851(3) 0.242(4)
O5 O 1.2772(5) 0.6601(2) 0.3714(2)
O6 O 0.2071(5) 0.9847(3) 1.0058(3)
H29 H 0.296(4) 0.949(3) 1.013(3)
H30 H 0.204(7) 0.991(4) 1.054(3)
O7 O 1.4084(4) 0.7541(2) 0.3829(2)
O8 O -0.0113(5) 1.1480(3) 0.9316(3)
H31 H -0.078(7) 1.193(3) 0.892(4)
H32 H -0.070(7) 1.100(2) 0.956(4)
O9 O 0.1475(4) 1.0696(2) 0.8111(2)
O11 O 0.3823(4) 1.1141(2) 0.8009(2)
O12 O 0.3179(5) 0.1379(3) 0.0035(3)
O13 O 0.5564(5) 0.1198(3) -0.0300(2)
O14 O 1.0776(5) 0.5803(2) 0.2747(2)
O15 O 1.1505(5) 0.7025(2) 0.1860(2)
O16 O 0.6010(5) 0.6485(3) 0.2538(3)
O17 O 0.7730(6) 0.7420(2) 0.1929(2)
S1 S 0.50461(17) 0.76690(10) 0.59948(10)
S2 S 1.11301(18) 0.82302(10) 0.59301(11)
S3 S 0.7055(2) 1.01710(10) 0.62158(12)
S4 S 0.92861(18) 0.14869(9) 0.18773(11)
S5 S 1.29908(17) 0.36655(9) 0.17531(11)
S6 S 0.68182(17) 0.42666(9) 0.15272(10)
Cd1_2 Cd 1.55239(5) 0.74682(2) 0.29086(2)
Cd1A Cd 0.44761(5) 1.25318(2) 0.70914(2)
Cd3_2 Cd 0.23275(5) 0.12009(2) -0.09757(2)
Cd3A Cd 0.76725(5) 0.87991(2) 0.09757(2)
O7_2 O 0.4084(4) 0.7541(2) 0.3829(2)
O11A O 0.6177(4) 0.8859(2) 0.1991(2)
O12_2 O 0.3179(5) 1.1379(3) 1.0035(3)
O17A O 0.2270(6) 1.2580(2) 0.8071(2)
O10 O 0.1491(6) 0.0004(3) 0.1418(3)
loop_
_geom_bond_atom_site_label_1
_geom_bond_atom_site_label_2
_geom_bond_site_symmetry_1
_geom_bond_site_symmetry_2
Cd1 O1 1_555 1_555
Cd2 O1 1_555 1_555
Cd3 O6 1_555 1_555
C1 N1 1_555 1_555
C2 N1 1_555 1_555
C3 N2 1_555 1_555
C4 C5 1_555 1_555
C5 H1 1_555 1_555
C6 C5 1_555 1_555
C7 C6 1_555 1_555
H2 C7 1_555 1_555
C8 C7 1_555 1_555
H3 C8 1_555 1_555
C9 C4 1_555 1_555
H4 C9 1_555 1_555
C10 C6 1_555 1_555
C11 C12 1_555 1_555
C12 H5 1_555 1_555
C13 C12 1_555 1_555
C14 C13 1_555 1_555
H6 C14 1_555 1_555
C15 C14 1_555 1_555
H7 C15 1_555 1_555
C16 C11 1_555 1_555
H8 C16 1_555 1_555
C17 C13 1_555 1_555
C18 C19 1_555 1_555
C19 H9 1_555 1_555
C20 C19 1_555 1_555
C21 C20 1_555 1_555
H10 C21 1_555 1_555
C22 C21 1_555 1_555
H11 C22 1_555 1_555
C23 C18 1_555 1_555
H12 C23 1_555 1_555
C24 C20 1_555 1_555
C25 N4 1_555 1_555
C26 N4 1_555 1_555
C27 N5 1_555 1_555
C28 C29 1_555 1_555
C29 H13 1_555 1_555
C30 C29 1_555 1_555
C31 C30 1_555 1_555
H14 C31 1_555 1_555
C32 C31 1_555 1_555
H15 C32 1_555 1_555
C33 C28 1_555 1_555
H16 C33 1_555 1_555
C34 C30 1_555 1_555
C35 C36 1_555 1_555
C36 H17 1_555 1_555
C37 C36 1_555 1_555
C38 C37 1_555 1_555
H18 C38 1_555 1_555
C39 C38 1_555 1_555
H19 C39 1_555 1_555
C40 C35 1_555 1_555
H20 C40 1_555 1_555
C41 C37 1_555 1_555
C42 C43 1_555 1_555
C43 H21 1_555 1_555
C44 C43 1_555 1_555
C45 C44 1_555 1_555
H22 C45 1_555 1_555
C46 C45 1_555 1_555
H23 C46 1_555 1_555
C47 C42 1_555 1_555
H24 C47 1_555 1_555
C48 C44 1_555 1_555
N2 C2 1_555 1_555
N3 C1 1_555 1_555
N5 C26 1_555 1_555
N6 C25 1_555 1_555
O1 C10 1_555 1_555
O2 Cd1 1_555 1_555
H25 O2 1_555 1_555
H26 O2 1_555 1_555
O3 Cd2 1_555 1_555
O4 Cd2 1_555 1_555
H27 O4 1_555 1_555
H28 O4 1_555 1_555
O5 Cd2 1_555 1_555
O6 H29 1_555 1_555
H30 O6 1_555 1_555
O7 C17 1_555 1_555
O8 Cd3 1_555 1_555
H31 O8 1_555 1_555
H32 O8 1_555 1_555
O9 Cd3 1_555 1_555
O11 Cd3 1_555 1_555
O12 C34 1_555 1_555
O13 C34 1_555 1_555
O14 Cd2 1_555 1_555
O15 Cd2 1_555 1_555
O16 Cd1 1_555 1_555
O17 C48 1_555 1_555
S1 C1 1_555 1_555
S2 C2 1_555 1_555
S3 C3 1_555 1_555
S4 C25 1_555 1_555
S5 C26 1_555 1_555
S6 C27 1_555 1_555
Cd1_2 O7 1_555 1_555
Cd1A O11 1_555 1_555
Cd3_2 O12 1_555 1_555
Cd3A O17 1_555 1_555
O7_2 Cd1 1_555 1_555
O11A Cd1 1_555 1_555
O12_2 Cd3 1_555 1_555
O17A Cd3 1_555 1_555
C3 N3 1_555 1_555
C4 S1 1_555 1_555
C8 C9 1_555 1_555
C10 O3 1_555 1_555
C11 S2 1_555 1_555
C15 C16 1_555 1_555
C17 O5 1_555 1_555
C18 S3 1_555 1_555
C22 C23 1_555 1_555
C24 O9 1_555 1_555
C24 O11 1_555 1_555
C27 N6 1_555 1_555
C28 S4 1_555 1_555
C32 C33 1_555 1_555
C35 S5 1_555 1_555
C39 C40 1_555 1_555
C41 O14 1_555 1_555
C41 O15 1_555 1_555
C42 S6 1_555 1_555
C46 C47 1_555 1_555
C48 O16 1_555 1_555
Cd3A O11A 1_555 1_555

#END
