
#######################################################################
#
#                 Cambridge Crystallographic Data Centre
#                                CCDC 
#
#######################################################################
#
# If this CIF has been generated from an entry in the Cambridge 
# Structural Database, then it will include bibliographic, chemical, 
# crystal, experimental, refinement or atomic coordinate data resulting 
# from the CCDC's data processing and validation procedures.
#
#######################################################################

data_EXUXUR
_symmetry_cell_setting           monoclinic
_symmetry_space_group_name_H-M   'C 2/c'
_symmetry_Int_Tables_number      15
_space_group_name_Hall           '-C 2yn'
loop_
_symmetry_equiv_pos_site_id
_symmetry_equiv_pos_as_xyz
1 x,y,z
2 -x,y,1/2-z
3 1/2+x,1/2+y,z
4 1/2-x,1/2+y,1/2-z
5 -x,-y,-z
6 x,-y,1/2+z
7 1/2-x,1/2-y,-z
8 1/2+x,1/2-y,1/2+z
_cell_length_a                   26.446(3)
_cell_length_b                   15.0501(10)
_cell_length_c                   23.160(5)
_cell_angle_alpha                90
_cell_angle_beta                 122.637(5)
_cell_angle_gamma                90
_cell_volume                     7762.54
loop_
_atom_site_label
_atom_site_type_symbol
_atom_site_fract_x
_atom_site_fract_y
_atom_site_fract_z
Cd1 Cd 1.0000 0.5000 0.0000
Cl1 Cl 0.92350(9) 0.38887(12) -0.00421(10)
Al1 Al 0.76381(8) 1.00576(13) 0.00670(9)
O1 O 0.8466(2) 0.9691(3) 0.0682(2)
O2 O 0.74389(19) 0.8899(3) -0.0304(2)
O3 O 0.7870(2) 1.1183(3) 0.0438(2)
O4 O 0.7798(2) 1.0373(3) -0.0572(2)
O5 O 0.7441(2) 0.9747(3) 0.0672(2)
O6 O 0.6803(2) 1.0362(3) -0.0580(2)
N1 N 0.9477(3) 0.6231(4) 0.0067(3)
C1 C 0.9224(5) 0.7766(6) -0.0038(4)
H1 H 0.9290 0.8337 -0.0138
C2 C 0.7852(3) 1.1543(4) 0.0909(3)
C3 C 0.7418(3) 1.0319(4) -0.1221(3)
C4 C 0.8810(4) 0.7626(5) 0.0135(3)
N2 N 0.5619(3) 1.0090(4) -0.3777(3)
C5 C 0.7437(3) 1.0233(4) 0.1111(3)
C6 C 0.6768(3) 1.0279(4) -0.1581(3)
C7 C 0.9540(5) 0.7068(6) -0.0063(4)
H2 H 0.9819 0.7187 -0.0179
C8 C 0.8748(3) 0.9034(5) 0.0645(3)
C9 C 0.7652(3) 1.1102(4) 0.1260(3)
C10 C 0.7795(3) 0.8339(4) -0.0308(3)
C11 C 0.8441(3) 0.8357(4) 0.0147(3)
C12 C 0.6491(3) 1.0358(4) -0.1227(3)
C13 C 0.8758(4) 0.6742(5) 0.0285(4)
H3 H 0.8500 0.6606 0.0430
C14 C 0.5918(4) 0.9386(5) -0.3385(4)
H4 H 0.5880 0.8847 -0.3601
C15 C 0.7468(4) 0.7639(5) -0.0840(3)
H5 H 0.7527 0.7073 -0.0621
H6 H 0.7619 0.7617 -0.1135
H7 H 0.7047 0.7776 -0.1107
C16 C 0.7180(4) 0.9796(4) 0.1451(3)
H8 H 0.6771 0.9987 0.1249
H9 H 0.7408 0.9947 0.1929
H10 H 0.7189 0.9164 0.1401
C17 C 0.6367(3) 1.0220(4) -0.2341(3)
C18 C 0.6282(4) 0.9418(4) -0.2675(3)
H11 H 0.6466 0.8905 -0.2425
C19 C 0.9433(3) 0.9017(5) 0.1176(4)
H12 H 0.9638 0.9257 0.0974
H13 H 0.9561 0.8416 0.1318
H14 H 0.9524 0.9368 0.1568
C20 C 0.8066(4) 1.2483(5) 0.1058(4)
H15 H 0.8464 1.2516 0.1146
H16 H 0.8071 1.2688 0.1454
H17 H 0.7801 1.2850 0.0672
C21 C 0.5808(4) 1.0425(6) -0.1592(4)
H18 H 0.5630 0.9861 -0.1792
H19 H 0.5661 1.0867 -0.1946
H20 H 0.5705 1.0590 -0.1268
C22 C 0.7626(4) 1.1605(5) 0.1787(3)
C23 C 0.9073(4) 0.6082(6) 0.0225(5)
H21 H 0.9002 0.5500 0.0297
C24 C 0.7715(4) 1.0323(6) -0.1605(4)
H22 H 0.8125 1.0509 -0.1308
H23 H 0.7510 1.0726 -0.1984
H24 H 0.7705 0.9735 -0.1772
C25 C 0.5689(4) 1.0850(5) -0.3463(3)
H25 H 0.5489 1.1348 -0.3725
C26 C 0.6049(4) 1.0942(5) -0.2756(4)
H26 H 0.6078 1.1492 -0.2557
N3 N 0.7485(6) 1.2555(6) 0.2679(5)
C27 C 0.8124(5) 1.1691(5) 0.2446(4)
H27 H 0.8494 1.1442 0.2578
C28 C 0.7065(4) 1.2013(5) 0.1594(4)
H28 H 0.6734 1.1954 0.1147
C30 C 0.7015(5) 1.2480(6) 0.2054(5)
H31 H 0.6653 1.2746 0.1932
C31 C 0.8033(5) 1.2204(6) 0.2924(5)
H32 H 0.8342 1.2282 0.3380
Cd1C Cd 0.5000 1.0000 -0.5000
Cd1C_2 Cd 1.5000 0.0000 0.5000
Cl1D Cl 1.07650(9) 0.61113(12) 0.00421(10)
Al1D Al 1.23619(8) -0.00576(13) -0.00670(9)
O1D O 1.1534(2) 0.0309(3) -0.0682(2)
O2D O 1.25611(19) 0.1101(3) 0.0304(2)
O3D O 1.2130(2) -0.1183(3) -0.0438(2)
O4D O 1.2202(2) -0.0373(3) 0.0572(2)
O5D O 1.2559(2) 0.0253(3) -0.0672(2)
O6D O 1.3197(2) -0.0362(3) 0.0580(2)
N1D N 1.0523(3) 0.3769(4) -0.0067(3)
C1D C 1.0776(5) 0.2234(6) 0.0038(4)
H1D H 1.0710 0.1663 0.0138
C2D C 1.2148(3) -0.1543(4) -0.0909(3)
C3D C 1.2582(3) -0.0319(4) 0.1221(3)
C4D C 1.1190(4) 0.2374(5) -0.0135(3)
N2D N 1.4381(3) -0.0090(4) 0.3777(3)
N2C N 0.9381(3) 0.5090(4) -0.1223(3)
N2G N 1.0619(3) 0.4910(4) 0.1223(3)
C5D C 1.2563(3) -0.0233(4) -0.1111(3)
C6D C 1.3232(3) -0.0279(4) 0.1581(3)
C7D C 1.0460(5) 0.2932(6) 0.0063(4)
H2D H 1.0181 0.2813 0.0179
C8D C 1.1252(3) 0.0966(5) -0.0645(3)
C9D C 1.2348(3) -0.1102(4) -0.1260(3)
C10D C 1.2205(3) 0.1661(4) 0.0308(3)
C11D C 1.1559(3) 0.1643(4) -0.0147(3)
C12D C 1.3509(3) -0.0358(4) 0.1227(3)
C13D C 1.1242(4) 0.3258(5) -0.0285(4)
H3D H 1.1500 0.3394 -0.0430
C14D C 1.4082(4) 0.0614(5) 0.3385(4)
H4D H 1.4120 0.1153 0.3601
C15D C 1.2532(4) 0.2361(5) 0.0840(3)
H5D H 1.2473 0.2927 0.0621
H6D H 1.2381 0.2383 0.1135
H7D H 1.2953 0.2224 0.1107
C16D C 1.2820(4) 0.0204(4) -0.1451(3)
H8D H 1.3229 0.0013 -0.1249
H9D H 1.2592 0.0053 -0.1929
H10D H 1.2811 0.0836 -0.1401
C17D C 1.3633(3) -0.0220(4) 0.2341(3)
C18D C 1.3718(4) 0.0582(4) 0.2675(3)
H11D H 1.3534 0.1095 0.2425
C19D C 1.0567(3) 0.0983(5) -0.1176(4)
H12D H 1.0362 0.0743 -0.0974
H13D H 1.0439 0.1584 -0.1318
H14D H 1.0476 0.0632 -0.1568
C20D C 1.1934(4) -0.2483(5) -0.1058(4)
H15D H 1.1536 -0.2516 -0.1146
H16D H 1.1929 -0.2688 -0.1454
H17D H 1.2199 -0.2850 -0.0672
C21D C 1.4192(4) -0.0425(6) 0.1592(4)
H18D H 1.4370 0.0139 0.1792
H19D H 1.4339 -0.0867 0.1946
H20D H 1.4295 -0.0590 0.1268
C22D C 1.2374(4) -0.1605(5) -0.1787(3)
C23D C 1.0927(4) 0.3918(6) -0.0225(5)
H21D H 1.0998 0.4500 -0.0297
C24D C 1.2285(4) -0.0323(6) 0.1605(4)
H22D H 1.1875 -0.0509 0.1308
H23D H 1.2490 -0.0726 0.1984
H24D H 1.2295 0.0265 0.1772
C25D C 1.4311(4) -0.0850(5) 0.3463(3)
H25D H 1.4511 -0.1348 0.3725
C26D C 1.3951(4) -0.0942(5) 0.2756(4)
H26D H 1.3922 -0.1492 0.2557
N3D N 1.2515(6) -0.2555(6) -0.2679(5)
C27D C 1.1876(5) -0.1691(5) -0.2446(4)
H27D H 1.1506 -0.1442 -0.2578
C28D C 1.2935(4) -0.2013(5) -0.1594(4)
H28D H 1.3266 -0.1954 -0.1147
C30D C 1.2985(5) -0.2480(6) -0.2054(5)
H31D H 1.3347 -0.2746 -0.1932
C31D C 1.1967(5) -0.2204(6) -0.2924(5)
H32D H 1.1658 -0.2282 -0.3380
Cl2 Cl 0.08546(18) 0.7886(3) 0.2603(2)
Cl3 Cl 0.1099(2) 0.9495(3) 0.2139(2)
C29 C 0.1373(7) 0.8789(8) 0.2820(6)
H29 H 0.1428 0.9105 0.3215
H30 H 0.1759 0.8558 0.2937
Cl4 Cl 0.9477(3) 0.1046(4) 0.0069(4)
Cl5 Cl 0.9790(3) 0.1734(4) 0.1348(3)
C32 C 0.9191(7) 0.1673(10) 0.0485(8)
H33 H 0.9071 0.2262 0.0287
H34 H 0.8848 0.1377 0.0446
loop_
_geom_bond_atom_site_label_1
_geom_bond_atom_site_label_2
_geom_bond_site_symmetry_1
_geom_bond_site_symmetry_2
Cd1 Cl1 1_555 1_555
Al1 O1 1_555 1_555
O1 C8 1_555 1_555
O2 Al1 1_555 1_555
O3 Al1 1_555 1_555
O4 Al1 1_555 1_555
O5 Al1 1_555 1_555
O6 Al1 1_555 1_555
N1 Cd1 1_555 1_555
C1 H1 1_555 1_555
C2 O3 1_555 1_555
C3 O4 1_555 1_555
C4 C1 1_555 1_555
N2 C14 1_555 1_555
C5 O5 1_555 1_555
C6 C3 1_555 1_555
C7 N1 1_555 1_555
H2 C7 1_555 1_555
C8 C11 1_555 1_555
C9 C2 1_555 1_555
C10 O2 1_555 1_555
C11 C4 1_555 1_555
C12 O6 1_555 1_555
C13 C4 1_555 1_555
H3 C13 1_555 1_555
C14 H4 1_555 1_555
C15 C10 1_555 1_555
H5 C15 1_555 1_555
H6 C15 1_555 1_555
H7 C15 1_555 1_555
C16 C5 1_555 1_555
H8 C16 1_555 1_555
H9 C16 1_555 1_555
H10 C16 1_555 1_555
C17 C6 1_555 1_555
C18 C14 1_555 1_555
H11 C18 1_555 1_555
C19 C8 1_555 1_555
H12 C19 1_555 1_555
H13 C19 1_555 1_555
H14 C19 1_555 1_555
C20 C2 1_555 1_555
H15 C20 1_555 1_555
H16 C20 1_555 1_555
H17 C20 1_555 1_555
C21 C12 1_555 1_555
H18 C21 1_555 1_555
H19 C21 1_555 1_555
H20 C21 1_555 1_555
C22 C9 1_555 1_555
C23 N1 1_555 1_555
H21 C23 1_555 1_555
Cl2 C29 1_555 1_555
Cl3 C29 1_555 1_555
C24 C3 1_555 1_555
H22 C24 1_555 1_555
H23 C24 1_555 1_555
H24 C24 1_555 1_555
C25 N2 1_555 1_555
H25 C25 1_555 1_555
C26 C17 1_555 1_555
H26 C26 1_555 1_555
N3 C30 1_555 1_555
C27 C22 1_555 1_555
H27 C27 1_555 1_555
C28 C22 1_555 1_555
H28 C28 1_555 1_555
C29 H29 1_555 1_555
H30 C29 1_555 1_555
C30 C28 1_555 1_555
H31 C30 1_555 1_555
Cl4 C32 1_555 1_555
Cl5 C32 1_555 1_555
C31 N3 1_555 1_555
H32 C31 1_555 1_555
C32 H33 1_555 1_555
H34 C32 1_555 1_555
Cd1C N2 1_555 1_555
Cd1C_2 N2D 1_555 1_555
Cl1D Cd1 1_555 1_555
Al1D O1D 1_555 1_555
O1D C8D 1_555 1_555
O2D Al1D 1_555 1_555
O3D Al1D 1_555 1_555
O4D Al1D 1_555 1_555
O5D Al1D 1_555 1_555
O6D Al1D 1_555 1_555
N1D Cd1 1_555 1_555
C1D H1D 1_555 1_555
C2D O3D 1_555 1_555
C3D O4D 1_555 1_555
C4D C1D 1_555 1_555
N2D C14D 1_555 1_555
N2C Cd1 1_555 1_555
N2G Cd1 1_555 1_555
C5D O5D 1_555 1_555
C6D C3D 1_555 1_555
C7D N1D 1_555 1_555
H2D C7D 1_555 1_555
C8D C11D 1_555 1_555
C9D C2D 1_555 1_555
C10D O2D 1_555 1_555
C11D C4D 1_555 1_555
C12D O6D 1_555 1_555
C13D C4D 1_555 1_555
H3D C13D 1_555 1_555
C14D H4D 1_555 1_555
C15D C10D 1_555 1_555
H5D C15D 1_555 1_555
H6D C15D 1_555 1_555
H7D C15D 1_555 1_555
C16D C5D 1_555 1_555
H8D C16D 1_555 1_555
H9D C16D 1_555 1_555
H10D C16D 1_555 1_555
C17D C6D 1_555 1_555
C18D C14D 1_555 1_555
H11D C18D 1_555 1_555
C19D C8D 1_555 1_555
H12D C19D 1_555 1_555
H13D C19D 1_555 1_555
H14D C19D 1_555 1_555
C20D C2D 1_555 1_555
H15D C20D 1_555 1_555
H16D C20D 1_555 1_555
H17D C20D 1_555 1_555
C21D C12D 1_555 1_555
H18D C21D 1_555 1_555
H19D C21D 1_555 1_555
H20D C21D 1_555 1_555
C22D C9D 1_555 1_555
C23D N1D 1_555 1_555
H21D C23D 1_555 1_555
C24D C3D 1_555 1_555
H22D C24D 1_555 1_555
H23D C24D 1_555 1_555
H24D C24D 1_555 1_555
C25D N2D 1_555 1_555
H25D C25D 1_555 1_555
C26D C17D 1_555 1_555
H26D C26D 1_555 1_555
N3D C30D 1_555 1_555
C27D C22D 1_555 1_555
H27D C27D 1_555 1_555
C28D C22D 1_555 1_555
H28D C28D 1_555 1_555
C30D C28D 1_555 1_555
H31D C30D 1_555 1_555
C31D N3D 1_555 1_555
H32D C31D 1_555 1_555
C1 C7 1_555 1_555
C5 C9 1_555 1_555
C6 C12 1_555 1_555
C10 C11 1_555 1_555
C13 C23 1_555 1_555
C17 C18 1_555 1_555
C25 C26 1_555 1_555
C27 C31 1_555 1_555
C1D C7D 1_555 1_555
C5D C9D 1_555 1_555
C6D C12D 1_555 1_555
C10D C11D 1_555 1_555
C13D C23D 1_555 1_555
C17D C18D 1_555 1_555
C25D C26D 1_555 1_555
C27D C31D 1_555 1_555

#END
