
#######################################################################
#
#                 Cambridge Crystallographic Data Centre
#                                CCDC 
#
#######################################################################
#
# If this CIF has been generated from an entry in the Cambridge 
# Structural Database, then it will include bibliographic, chemical, 
# crystal, experimental, refinement or atomic coordinate data resulting 
# from the CCDC's data processing and validation procedures.
#
#######################################################################

data_EXUXOL
_symmetry_cell_setting           monoclinic
_symmetry_space_group_name_H-M   'C 2/c'
_symmetry_Int_Tables_number      15
_space_group_name_Hall           '-C 2yn'
loop_
_symmetry_equiv_pos_site_id
_symmetry_equiv_pos_as_xyz
1 x,y,z
2 -x,y,1/2-z
3 1/2+x,1/2+y,z
4 1/2-x,1/2+y,1/2-z
5 -x,-y,-z
6 x,-y,1/2+z
7 1/2-x,1/2-y,-z
8 1/2+x,1/2-y,1/2+z
_cell_length_a                   30.423(5)
_cell_length_b                   13.7079(17)
_cell_length_c                   26.469(7)
_cell_angle_alpha                90
_cell_angle_beta                 124.07(3)
_cell_angle_gamma                90
_cell_volume                     9143.79
loop_
_atom_site_label
_atom_site_type_symbol
_atom_site_fract_x
_atom_site_fract_y
_atom_site_fract_z
O1 O 0.6989(9) 0.9771(19) 0.6680(10)
H1 H 0.7079 1.0218 0.6943
H2 H 0.6962 0.9155 0.6636
Al1 Al 0.93229(8) 0.74803(13) 0.97003(8)
C1 C 0.7903(4) 0.8044(7) 0.8080(3)
H3 H 0.8068 0.7812 0.7882
H4 H 0.7816 0.8722 0.7986
H5 H 0.7586 0.7677 0.7939
C2 C 0.8281(3) 0.7922(5) 0.8760(3)
C3 C 0.8174(3) 0.8338(5) 0.9166(3)
C4 C 0.8480(3) 0.8084(5) 0.9779(3)
C5 C 0.8309(4) 0.8336(7) 1.0198(4)
H6 H 0.8450 0.7864 1.0521
H7 H 0.7929 0.8334 0.9972
H8 H 0.8440 0.8973 1.0369
C6 C 0.6860(3) 0.9572(6) 0.8592(5)
H9 H 0.6524 0.9403 0.8489
C7 C 0.7247(3) 0.8834(6) 0.8802(5)
H10 H 0.7164 0.8200 0.8847
C8 C 0.7738(3) 0.9041(5) 0.8940(3)
C9 C 0.7808(4) 0.9986(6) 0.8859(6)
H11 H 0.8135 1.0171 0.8938
C10 C 0.7426(4) 1.0685(6) 0.8666(5)
H12 H 0.7506 1.1324 0.8628
C11 C 0.9408(3) 0.4522(4) 1.0151(3)
H13 H 0.9120 0.4417 0.9735
H14 H 0.9294 0.4370 1.0415
H15 H 0.9700 0.4107 1.0249
C12 C 0.9582(3) 0.5581(4) 1.0239(3)
C13 C 1.0005(3) 0.5918(4) 1.0804(3)
C14 C 1.0186(3) 0.6887(4) 1.0893(3)
C15 C 1.0672(3) 0.7218(5) 1.1474(3)
H16 H 1.0733 0.7895 1.1442
H17 H 1.0970 0.6841 1.1553
H18 H 1.0626 0.7131 1.1802
C16 C 1.0292(3) 0.5233(4) 1.1342(3)
C17 C 1.0017(3) 0.7733(5) 0.8726(4)
H19 H 1.0141 0.7075 0.8842
H20 H 1.0311 0.8155 0.8841
H21 H 0.9764 0.7764 0.8292
C18 C 0.9760(3) 0.8051(5) 0.9036(3)
C19 C 0.9606(3) 0.9064(4) 0.8996(3)
C20 C 0.9407(2) 0.9398(4) 0.9323(3)
C21 C 0.9262(3) 1.0470(4) 0.9292(3)
H22 H 0.9095 1.0566 0.9506
H23 H 0.9022 1.0660 0.8874
H24 H 0.9578 1.0860 0.9477
C22 C 1.0201(3) 1.1072(5) 0.8592(3)
H25 H 1.0489 1.1495 0.8795
C23 C 1.0126(3) 1.0400(5) 0.8926(3)
H26 H 1.0363 1.0377 0.9348
C24 C 0.9707(3) 0.9771(4) 0.8643(3)
C25 C 0.9372(3) 0.9830(5) 0.8014(3)
H27 H 0.9083 0.9412 0.7800
C26 C 0.9470(3) 1.0516(5) 0.7705(3)
H28 H 0.9242 1.0548 0.7283
C27 C 1.0685(3) 0.4611(4) 1.1425(3)
H29 H 1.0760 0.4568 1.1130
C28 C 1.0967(3) 0.4050(5) 1.1950(3)
H30 H 1.1231 0.3637 1.2002
C29 C 1.0485(3) 0.4678(5) 1.2301(3)
H31 H 1.0416 0.4708 1.2602
C30 C 1.0183(3) 0.5249(5) 1.1785(3)
H32 H 0.9911 0.5638 1.1737
Cl1 Cl 0.60286(9) 1.14019(17) 0.87519(9)
Cl2 Cl 0.66828(9) 1.29237(14) 0.80948(10)
Cl3 Cl 1.07444(8) 1.29152(13) 0.81390(8)
N1 N 0.6952(2) 1.0488(4) 0.8534(2)
N2 N 1.0870(2) 0.4086(4) 1.2388(2)
N3 N 0.9876(2) 1.1132(4) 0.7989(2)
O2 O 0.86882(18) 0.7411(3) 0.89255(19)
O3 O 0.89216(18) 0.7628(3) 1.00344(19)
O4 O 0.93201(17) 0.6120(3) 0.97627(18)
O5 O 0.99505(17) 0.7543(3) 1.04752(19)
O6 O 0.96914(18) 0.7414(3) 0.9326(2)
O7 O 0.93293(17) 0.8853(3) 0.96587(18)
Zn1 Zn 0.63761(3) 1.15349(5) 0.82155(3)
Zn2 Zn 1.0000 1.21216(7) 0.7500
Al1A Al 1.06771(8) 0.74803(13) 0.52997(8)
C1A C 1.2097(4) 0.8044(7) 0.6920(3)
H3A H 1.1932 0.7812 0.7118
H4A H 1.2184 0.8722 0.7014
H5A H 1.2414 0.7677 0.7061
C2A C 1.1719(3) 0.7922(5) 0.6240(3)
C3A C 1.1826(3) 0.8338(5) 0.5834(3)
C4A C 1.1520(3) 0.8084(5) 0.5221(3)
C5A C 1.1691(4) 0.8336(7) 0.4802(4)
H6A H 1.1550 0.7864 0.4479
H7A H 1.2071 0.8334 0.5028
H8A H 1.1560 0.8973 0.4631
C6A C 1.3140(3) 0.9572(6) 0.6408(5)
H9A H 1.3476 0.9403 0.6511
C7A C 1.2753(3) 0.8834(6) 0.6198(5)
H10A H 1.2836 0.8200 0.6153
C8A C 1.2262(3) 0.9041(5) 0.6060(3)
C9A C 1.2192(4) 0.9986(6) 0.6141(6)
H11A H 1.1865 1.0171 0.6062
C10A C 1.2574(4) 1.0685(6) 0.6334(5)
H12A H 1.2494 1.1324 0.6372
C11A C 1.0592(3) 0.4522(4) 0.4849(3)
H13A H 1.0880 0.4417 0.5265
H14A H 1.0706 0.4370 0.4585
H15A H 1.0300 0.4107 0.4751
C12A C 1.0418(3) 0.5581(4) 0.4761(3)
C13A C 0.9995(3) 0.5918(4) 0.4196(3)
C14A C 0.9814(3) 0.6887(4) 0.4107(3)
C15A C 0.9328(3) 0.7218(5) 0.3526(3)
H16A H 0.9267 0.7895 0.3558
H17A H 0.9030 0.6841 0.3447
H18A H 0.9374 0.7131 0.3198
C16A C 0.9708(3) 0.5233(4) 0.3658(3)
C17A C 0.9983(3) 0.7733(5) 0.6274(4)
H19A H 0.9859 0.7075 0.6158
H20A H 0.9689 0.8155 0.6159
H21A H 1.0236 0.7764 0.6708
C18A C 1.0240(3) 0.8051(5) 0.5964(3)
C19A C 1.0394(3) 0.9064(4) 0.6004(3)
C20A C 1.0593(2) 0.9398(4) 0.5677(3)
C21A C 1.0738(3) 1.0470(4) 0.5708(3)
H22A H 1.0905 1.0566 0.5494
H23A H 1.0978 1.0660 0.6126
H24A H 1.0422 1.0860 0.5523
C22A C 0.9799(3) 1.1072(5) 0.6408(3)
H25A H 0.9511 1.1495 0.6205
C23A C 0.9874(3) 1.0400(5) 0.6074(3)
H26A H 0.9637 1.0377 0.5652
C24A C 1.0293(3) 0.9771(4) 0.6357(3)
C25A C 1.0628(3) 0.9830(5) 0.6986(3)
H27A H 1.0917 0.9412 0.7200
C26A C 1.0530(3) 1.0516(5) 0.7295(3)
H28A H 1.0758 1.0548 0.7717
C27A C 0.9315(3) 0.4611(4) 0.3575(3)
H29A H 0.9240 0.4568 0.3870
C28A C 0.9033(3) 0.4050(5) 0.3050(3)
H30A H 0.8769 0.3637 0.2998
C29A C 0.9515(3) 0.4678(5) 0.2699(3)
H31A H 0.9584 0.4708 0.2398
C30A C 0.9817(3) 0.5249(5) 0.3215(3)
H32A H 1.0089 0.5638 0.3263
Cl1A Cl 1.39714(9) 1.14019(17) 0.62481(9)
Cl2A Cl 1.33172(9) 1.29237(14) 0.69052(10)
Cl3A Cl 0.92556(8) 1.29152(13) 0.68610(8)
N1A N 1.3048(2) 1.0488(4) 0.6466(2)
N2A N 0.9130(2) 0.4086(4) 0.2612(2)
N2F N 1.4130(2) 1.0914(4) 0.7612(2)
N2G N 0.5870(2) 1.0914(4) 0.7388(2)
N3A N 1.0124(2) 1.1132(4) 0.7011(2)
O2A O 1.13118(18) 0.7411(3) 0.60745(19)
O3A O 1.10784(18) 0.7628(3) 0.49656(19)
O4A O 1.06799(17) 0.6120(3) 0.52373(18)
O5A O 1.00495(17) 0.7543(3) 0.45248(19)
O6A O 1.03086(18) 0.7414(3) 0.5674(2)
O7A O 1.06707(17) 0.8853(3) 0.53413(18)
Zn1A Zn 1.36239(3) 1.15349(5) 0.67845(3)
Zn1F Zn 0.86239(3) 0.34651(5) 0.17845(3)
Zn1G Zn 1.13761(3) 0.34651(5) 1.32155(3)
O8 O 0.8453(6) 0.2501(11) 0.9336(13)
H33 H 0.8244 0.2957 0.9290
H34 H 0.8493 0.2489 0.9043
O9 O 0.7998(8) 0.0847(17) 0.7552(10)
H35 H 0.8280 0.1035 0.7882
H36 H 0.7796 0.1073 0.7193
O10 O 0.7081(9) 0.6004(12) 0.8527(10)
H37 H 0.6841 0.6364 0.8245
H38 H 0.7395 0.6163 0.8812
loop_
_geom_bond_atom_site_label_1
_geom_bond_atom_site_label_2
_geom_bond_site_symmetry_1
_geom_bond_site_symmetry_2
O1 H1 1_555 1_555
H2 O1 1_555 1_555
Al1 O2 1_555 1_555
C1 H3 1_555 1_555
H4 C1 1_555 1_555
H5 C1 1_555 1_555
C2 C1 1_555 1_555
C3 C2 1_555 1_555
C4 C3 1_555 1_555
C5 C4 1_555 1_555
H6 C5 1_555 1_555
H7 C5 1_555 1_555
H8 C5 1_555 1_555
C6 H9 1_555 1_555
C7 C6 1_555 1_555
H10 C7 1_555 1_555
C8 C3 1_555 1_555
C9 C8 1_555 1_555
H11 C9 1_555 1_555
C10 C9 1_555 1_555
H12 C10 1_555 1_555
C11 H13 1_555 1_555
H14 C11 1_555 1_555
H15 C11 1_555 1_555
C12 C11 1_555 1_555
C13 C12 1_555 1_555
C14 C13 1_555 1_555
C15 C14 1_555 1_555
H16 C15 1_555 1_555
H17 C15 1_555 1_555
H18 C15 1_555 1_555
C16 C13 1_555 1_555
C17 H19 1_555 1_555
H20 C17 1_555 1_555
H21 C17 1_555 1_555
C18 C17 1_555 1_555
C19 C18 1_555 1_555
C20 C19 1_555 1_555
C21 C20 1_555 1_555
H22 C21 1_555 1_555
H23 C21 1_555 1_555
H24 C21 1_555 1_555
C22 H25 1_555 1_555
C23 C22 1_555 1_555
H26 C23 1_555 1_555
C24 C19 1_555 1_555
C25 C24 1_555 1_555
H27 C25 1_555 1_555
C26 C25 1_555 1_555
H28 C26 1_555 1_555
C27 C16 1_555 1_555
H29 C27 1_555 1_555
C28 C27 1_555 1_555
H30 C28 1_555 1_555
C29 H31 1_555 1_555
C30 C16 1_555 1_555
H32 C30 1_555 1_555
Cl1 Zn1 1_555 1_555
Cl2 Zn1 1_555 1_555
Cl3 Zn2 1_555 1_555
N1 C6 1_555 1_555
N2 C28 1_555 1_555
N3 C22 1_555 1_555
O2 C2 1_555 1_555
O3 Al1 1_555 1_555
O4 Al1 1_555 1_555
O5 Al1 1_555 1_555
O6 Al1 1_555 1_555
O7 Al1 1_555 1_555
O8 H33 1_555 1_555
H34 O8 1_555 1_555
O9 H35 1_555 1_555
H36 O9 1_555 1_555
O10 H37 1_555 1_555
H38 O10 1_555 1_555
Zn1 N1 1_555 1_555
Zn2 N3 1_555 1_555
Al1A O2A 1_555 1_555
C1A H3A 1_555 1_555
H4A C1A 1_555 1_555
H5A C1A 1_555 1_555
C2A C1A 1_555 1_555
C3A C2A 1_555 1_555
C4A C3A 1_555 1_555
C5A C4A 1_555 1_555
H6A C5A 1_555 1_555
H7A C5A 1_555 1_555
H8A C5A 1_555 1_555
C6A H9A 1_555 1_555
C7A C6A 1_555 1_555
H10A C7A 1_555 1_555
C8A C3A 1_555 1_555
C9A C8A 1_555 1_555
H11A C9A 1_555 1_555
C10A C9A 1_555 1_555
H12A C10A 1_555 1_555
C11A H13A 1_555 1_555
H14A C11A 1_555 1_555
H15A C11A 1_555 1_555
C12A C11A 1_555 1_555
C13A C12A 1_555 1_555
C14A C13A 1_555 1_555
C15A C14A 1_555 1_555
H16A C15A 1_555 1_555
H17A C15A 1_555 1_555
H18A C15A 1_555 1_555
C16A C13A 1_555 1_555
C17A H19A 1_555 1_555
H20A C17A 1_555 1_555
H21A C17A 1_555 1_555
C18A C17A 1_555 1_555
C19A C18A 1_555 1_555
C20A C19A 1_555 1_555
C21A C20A 1_555 1_555
H22A C21A 1_555 1_555
H23A C21A 1_555 1_555
H24A C21A 1_555 1_555
C22A H25A 1_555 1_555
C23A C22A 1_555 1_555
H26A C23A 1_555 1_555
C24A C19A 1_555 1_555
C25A C24A 1_555 1_555
H27A C25A 1_555 1_555
C26A C25A 1_555 1_555
H28A C26A 1_555 1_555
C27A C16A 1_555 1_555
H29A C27A 1_555 1_555
C28A C27A 1_555 1_555
H30A C28A 1_555 1_555
C29A H31A 1_555 1_555
C30A C16A 1_555 1_555
H32A C30A 1_555 1_555
Cl1A Zn1A 1_555 1_555
Cl2A Zn1A 1_555 1_555
Cl3A Zn2 1_555 1_555
N1A C6A 1_555 1_555
N2A C28A 1_555 1_555
N2F Zn1A 1_555 1_555
N2G Zn1 1_555 1_555
N3A Zn2 1_555 1_555
O2A C2A 1_555 1_555
O3A Al1A 1_555 1_555
O4A Al1A 1_555 1_555
O5A Al1A 1_555 1_555
O6A Al1A 1_555 1_555
O7A Al1A 1_555 1_555
Zn1A N1A 1_555 1_555
Zn1F N2A 1_555 1_555
Zn1G N2 1_555 1_555
C4 O3 1_555 1_555
C7 C8 1_555 1_555
C10 N1 1_555 1_555
C12 O4 1_555 1_555
C14 O5 1_555 1_555
C18 O6 1_555 1_555
C20 O7 1_555 1_555
C23 C24 1_555 1_555
C26 N3 1_555 1_555
C29 C30 1_555 1_555
C29 N2 1_555 1_555
C4A O3A 1_555 1_555
C7A C8A 1_555 1_555
C10A N1A 1_555 1_555
C12A O4A 1_555 1_555
C14A O5A 1_555 1_555
C18A O6A 1_555 1_555
C20A O7A 1_555 1_555
C22A N3A 1_555 1_555
C23A C24A 1_555 1_555
C26A N3A 1_555 1_555
C29A C30A 1_555 1_555
C29A N2A 1_555 1_555

#END
