
#######################################################################
#
#                 Cambridge Crystallographic Data Centre
#                                CCDC 
#
#######################################################################
#
# If this CIF has been generated from an entry in the Cambridge 
# Structural Database, then it will include bibliographic, chemical, 
# crystal, experimental, refinement or atomic coordinate data resulting 
# from the CCDC's data processing and validation procedures.
#
#######################################################################

data_EXUXUQ
_symmetry_cell_setting           monoclinic
_symmetry_space_group_name_H-M   'C 2/c'
_symmetry_Int_Tables_number      15
_space_group_name_Hall           '-C 2yn'
loop_
_symmetry_equiv_pos_site_id
_symmetry_equiv_pos_as_xyz
1 x,y,z
2 1/2+x,1/2+y,z
3 x,-y,1/2+z
4 1/2+x,1/2-y,1/2+z
5 -x,-y,-z
6 1/2-x,1/2-y,-z
7 -x,y,1/2-z
8 1/2-x,1/2+y,1/2-z
_cell_length_a                   12.205(2)
_cell_length_b                   13.448(3)
_cell_length_c                   17.308(4)
_cell_angle_alpha                90
_cell_angle_beta                 106.93(3)
_cell_angle_gamma                90
_cell_volume                     2717.69
loop_
_atom_site_label
_atom_site_type_symbol
_atom_site_fract_x
_atom_site_fract_y
_atom_site_fract_z
C1 C 0.62523(17) -0.00505(14) 0.67620(11)
H1 H 0.6328 0.0628 0.6687
C2 C 0.67692(16) -0.04479(15) 0.75151(11)
H2 H 0.7168 -0.0040 0.7938
C3 C 0.66879(15) -0.14560(14) 0.76351(10)
C4 C 0.60431(16) -0.20163(14) 0.69952(10)
H3 H 0.5952 -0.2695 0.7059
C5 C 0.55351(15) -0.15685(13) 0.62625(10)
H4 H 0.5098 -0.1956 0.5839
C6 C 0.73269(16) -0.19384(15) 0.84354(11)
C7 C 0.54613(16) -0.19158(14) 0.42300(11)
H5 H 0.4745 -0.2181 0.4196
C8 C 0.69214(17) -0.09421(15) 0.44915(12)
H6 H 0.7402 -0.0401 0.4672
C9 C 0.71863(18) -0.17557(15) 0.41276(13)
H7 H 0.7873 -0.1877 0.4013
C10 C 0.61575(17) -0.33412(14) 0.35573(11)
H8 H 0.5681 -0.3773 0.3772
H9 H 0.6913 -0.3639 0.3681
C11 C 0.56488(16) -0.32784(15) 0.26391(11)
H10 H 0.5922 -0.2676 0.2449
H11 H 0.5923 -0.3838 0.2394
N1 N 0.56489(12) -0.05916(11) 0.61369(8)
N2 N 0.58307(13) -0.10378(11) 0.45542(8)
N3 N 0.62522(13) -0.23697(11) 0.39594(9)
O1 O 0.74073(13) -0.28689(11) 0.84347(8)
O2 O 0.77488(13) -0.13794(11) 0.90188(8)
O3 O 0.65861(12) 0.11406(11) 0.51891(8)
Cu1 Cu 0.5000 0.0000 0.5000
H12 H 0.6914(16) 0.1505(14) 0.5588(10)
H13 H 0.6926(16) 0.1277(15) 0.4855(11)
C11F C 0.43512(16) -0.32784(15) 0.23609(11)
C10F C 0.38425(17) -0.33412(14) 0.14427(11)
H8F H 0.4319 -0.3773 0.1228
H9F H 0.3087 -0.3639 0.1319
N3F N 0.37478(13) -0.23697(11) 0.10406(9)
C7F C 0.45387(16) -0.19158(14) 0.07700(11)
H5F H 0.5255 -0.2181 0.0804
N2F N 0.41693(13) -0.10378(11) 0.04458(8)
C8F C 0.30786(17) -0.09421(15) 0.05085(12)
H6F H 0.2598 -0.0401 0.0328
C9F C 0.28137(18) -0.17557(15) 0.08724(13)
H7F H 0.2127 -0.1877 0.0987
H10F H 0.4078 -0.2676 0.2551
H11F H 0.4077 -0.3838 0.2606
C1D C 0.37477(17) 0.00505(14) 0.32380(11)
H1D H 0.3672 -0.0628 0.3313
C2D C 0.32308(16) 0.04479(15) 0.24849(11)
H2D H 0.2832 0.0040 0.2062
C3D C 0.33121(15) 0.14560(14) 0.23649(10)
C4D C 0.39569(16) 0.20163(14) 0.30048(10)
H3D H 0.4048 0.2695 0.2941
C5D C 0.44649(15) 0.15685(13) 0.37375(10)
H4D H 0.4902 0.1956 0.4161
C6D C 0.26731(16) 0.19384(15) 0.15646(11)
N1D N 0.43511(12) 0.05916(11) 0.38631(8)
O1D O 0.25927(13) 0.28689(11) 0.15653(8)
O2D O 0.22512(13) 0.13794(11) 0.09812(8)
O3D O 0.34139(12) -0.11406(11) 0.48109(8)
H12D H 0.3086(16) -0.1505(14) 0.4412(10)
H13D H 0.3074(16) -0.1277(15) 0.5145(11)
N2D N 0.41693(13) 0.10378(11) 0.54458(8)
Cu1B Cu 0.5000 0.0000 0.0000
O4 O 0.56857(17) -0.42856(14) 0.82937(11)
H14 H 0.6278(15) -0.3896(14) 0.8342(12)
H17 H 0.5081(14) -0.4329(16) 0.7965(10)
O5 O 0.97959(16) -0.09568(17) 1.02390(12)
H15 H 0.9129(14) -0.1137(14) 0.9856(10)
H16 H 0.9704(17) -0.0828(15) 1.0721(10)
loop_
_geom_bond_atom_site_label_1
_geom_bond_atom_site_label_2
_geom_bond_site_symmetry_1
_geom_bond_site_symmetry_2
C1 H1 1_555 1_555
C2 C1 1_555 1_555
H2 C2 1_555 1_555
C3 C2 1_555 1_555
C4 C3 1_555 1_555
H3 C4 1_555 1_555
C5 C4 1_555 1_555
H4 C5 1_555 1_555
C6 C3 1_555 1_555
C7 H5 1_555 1_555
C8 H6 1_555 1_555
C9 C8 1_555 1_555
H7 C9 1_555 1_555
C10 H8 1_555 1_555
H9 C10 1_555 1_555
C11 C10 1_555 1_555
H10 C11 1_555 1_555
H11 C11 1_555 1_555
N1 C1 1_555 1_555
N2 C7 1_555 1_555
N3 C7 1_555 1_555
O1 C6 1_555 1_555
O2 C6 1_555 1_555
O3 Cu1 1_555 1_555
O4 H14 1_555 1_555
O5 H15 1_555 1_555
Cu1 N1 1_555 1_555
H12 O3 1_555 1_555
H13 O3 1_555 1_555
H16 O5 1_555 1_555
H17 O4 1_555 1_555
C11F C11 1_555 1_555
C10F C11F 1_555 1_555
H8F C10F 1_555 1_555
H9F C10F 1_555 1_555
N3F C10F 1_555 1_555
C7F N3F 1_555 1_555
H5F C7F 1_555 1_555
N2F C7F 1_555 1_555
C8F N2F 1_555 1_555
H6F C8F 1_555 1_555
C9F N3F 1_555 1_555
H7F C9F 1_555 1_555
H10F C11F 1_555 1_555
H11F C11F 1_555 1_555
C1D H1D 1_555 1_555
C2D C1D 1_555 1_555
H2D C2D 1_555 1_555
C3D C2D 1_555 1_555
C4D C3D 1_555 1_555
H3D C4D 1_555 1_555
C5D C4D 1_555 1_555
H4D C5D 1_555 1_555
C6D C3D 1_555 1_555
N1D Cu1 1_555 1_555
O1D C6D 1_555 1_555
O2D C6D 1_555 1_555
O3D Cu1 1_555 1_555
H12D O3D 1_555 1_555
H13D O3D 1_555 1_555
N2D Cu1 1_555 1_555
Cu1B N2F 1_555 1_555
C5 N1 1_555 1_555
C8 N2 1_555 1_555
C9 N3 1_555 1_555
C10 N3 1_555 1_555
N2 Cu1 1_555 1_555
C8F C9F 1_555 1_555
C1D N1D 1_555 1_555
C5D N1D 1_555 1_555

#END
