
#######################################################################
#
#                 Cambridge Crystallographic Data Centre
#                                CCDC 
#
#######################################################################
#
# If this CIF has been generated from an entry in the Cambridge 
# Structural Database, then it will include bibliographic, chemical, 
# crystal, experimental, refinement or atomic coordinate data resulting 
# from the CCDC's data processing and validation procedures.
#
#######################################################################

data_EXUYAY
_symmetry_cell_setting           monoclinic
_symmetry_space_group_name_H-M   'P 21/n'
_symmetry_Int_Tables_number      14
_space_group_name_Hall           '-P 2yn'
loop_
_symmetry_equiv_pos_site_id
_symmetry_equiv_pos_as_xyz
1 x,y,z
2 1/2-x,1/2+y,1/2-z
3 -x,-y,-z
4 1/2+x,1/2-y,1/2+z
_cell_length_a                   16.4598(4)
_cell_length_b                   15.3043(5)
_cell_length_c                   16.7897(5)
_cell_angle_alpha                90
_cell_angle_beta                 94.131(2)
_cell_angle_gamma                90
_cell_volume                     4218.43
loop_
_atom_site_label
_atom_site_type_symbol
_atom_site_fract_x
_atom_site_fract_y
_atom_site_fract_z
Al1 Al 1.00333(16) 0.74868(18) -0.00186(16)
C1 C 0.8245(6) 0.6956(8) 0.1540(6)
H1 H 0.7896 0.6741 0.1101
H2 H 0.8043 0.7507 0.1714
H3 H 0.8254 0.6544 0.1973
C2 C 0.9088(5) 0.7072(6) 0.1281(6)
C3 C 0.9757(6) 0.7110(6) 0.1835(5)
C4 C 1.0565(5) 0.7144(6) 0.1587(5)
C5 C 1.1268(6) 0.7069(8) 0.2192(7)
H4 H 1.1766 0.7164 0.1940
H5 H 1.1275 0.6496 0.2425
H6 H 1.1218 0.7499 0.2602
C6 C 0.9301(7) 0.7775(7) 0.3942(7)
H7 H 0.9147 0.8278 0.4204
C7 C 0.9419(6) 0.7824(7) 0.3102(7)
H8 H 0.9362 0.8351 0.2829
C8 C 0.9616(5) 0.7082(6) 0.2720(5)
C9 C 0.9713(7) 0.6311(7) 0.3128(5)
H9 H 0.9855 0.5800 0.2873
C10 C 0.9589(7) 0.6319(8) 0.3941(7)
H10 H 0.9638 0.5793 0.4218
C11 C 1.0576(6) 0.5064(7) -0.0989(7)
H11 H 1.0913 0.4732 -0.0609
H12 H 1.0731 0.4942 -0.1518
H13 H 1.0016 0.4906 -0.0950
C12 C 1.0686(6) 0.6039(7) -0.0813(6)
C13 C 1.1366(5) 0.6499(6) -0.1041(6)
C14 C 1.1454(5) 0.7392(7) -0.0899(5)
C15 C 1.2157(6) 0.7888(7) -0.1173(7)
H14 H 1.2358 0.7600 -0.1627
H15 H 1.2581 0.7915 -0.0750
H16 H 1.1986 0.8469 -0.1320
C16 C 1.3212(7) 0.5155(8) -0.1441(9)
H17 H 1.3661 0.4923 -0.1146
C17 C 1.2649(6) 0.5630(8) -0.1017(7)
H18 H 1.2714 0.5680 -0.0464
C18 C 1.1992(6) 0.6022(6) -0.1450(6)
C19 C 1.1939(8) 0.5903(10) -0.2283(6)
H19 H 1.1520 0.6160 -0.2602
C20 C 1.2525(9) 0.5392(12) -0.2626(9)
H20 H 1.2471 0.5308 -0.3176
C21 C 0.8207(7) 0.8379(8) -0.1667(7)
H21 H 0.8445 0.8049 -0.2077
H22 H 0.8102 0.8965 -0.1851
H23 H 0.7705 0.8109 -0.1542
C22 C 0.8783(5) 0.8399(7) -0.0934(5)
C23 C 0.8725(5) 0.9055(6) -0.0355(5)
C24 C 0.9320(5) 0.9134(6) 0.0293(5)
C25 C 0.9266(5) 0.9837(6) 0.0912(6)
H24 H 0.8827 0.9707 0.1239
H25 H 0.9169 1.0390 0.0652
H26 H 0.9769 0.9862 0.1239
C26 C 0.7558(5) 1.1149(6) -0.0743(5)
H27 H 0.7667 1.1727 -0.0870
C27 C 0.8181(5) 1.0569(7) -0.0678(5)
H28 H 0.8702 1.0745 -0.0784
C28 C 0.8043(5) 0.9703(6) -0.0449(6)
C29 C 0.7253(6) 0.9485(7) -0.0325(7)
H29 H 0.7121 0.8917 -0.0187
C30 C 0.6657(6) 1.0118(8) -0.0406(7)
H30 H 0.6131 0.9966 -0.0294
Cl1 Cl 0.84537(18) 0.82115(19) 0.59557(19)
Cl2 Cl 1.03930(17) 0.6039(2) 0.60661(18)
Hg1 Hg 0.92836(2) 0.69944(3) 0.57661(2)
N1 N 0.9402(5) 0.7044(5) 0.4354(5)
N2 N 1.3162(7) 0.5012(8) -0.2213(9)
N3 N 0.6788(4) 1.0916(6) -0.0631(5)
O1 O 0.9133(3) 0.7110(4) 0.0533(4)
O2 O 1.0720(3) 0.7217(4) 0.0887(4)
O3 O 1.0115(4) 0.6375(4) -0.0440(4)
O4 O 1.0938(4) 0.7849(4) -0.0532(4)
O5 O 0.9307(4) 0.7798(4) -0.0889(4)
O6 O 0.9918(3) 0.8611(4) 0.0407(3)
Hg1A Hg 0.57164(2) 1.19944(3) -0.07661(2)
N3A N 0.8212(4) 0.5916(6) 0.5631(5)
C31 C 0.6650(9) 0.0906(9) 0.6438(8)
H31 H 0.7162 0.1220 0.6506
H32 H 0.6287 0.1235 0.6069
Cl3 Cl 0.6235(5) 0.0839(4) 0.7332(3)
Cl4 Cl 0.6825(3) -0.0136(3) 0.6024(3)
O7 O 0.9263(3) -0.0061(4) 0.6301(4)
H33 H 0.9434 -0.0341 0.6804
H34 H 0.9393 0.0552 0.6238
O8 O 0.8870(5) 0.0602(6) 0.7269(5)
H35 H 0.9036 0.0323 0.7774
H36 H 0.8994 0.1217 0.7210
O9 O 0.9441(16) 0.1692(16) 0.2731(14)
H37 H 0.9623 0.1471 0.3255
H38 H 0.9575 0.2290 0.2603
O10 O 0.8621(9) 0.1403(14) 0.5646(8)
H39 H 0.8789 0.1150 0.6162
H40 H 0.8745 0.2014 0.5560
loop_
_geom_bond_atom_site_label_1
_geom_bond_atom_site_label_2
_geom_bond_site_symmetry_1
_geom_bond_site_symmetry_2
Al1 O1 1_555 1_555
C1 H1 1_555 1_555
H2 C1 1_555 1_555
H3 C1 1_555 1_555
C2 C1 1_555 1_555
C3 C2 1_555 1_555
C4 C3 1_555 1_555
C5 C4 1_555 1_555
H4 C5 1_555 1_555
H5 C5 1_555 1_555
H6 C5 1_555 1_555
C6 H7 1_555 1_555
C7 C6 1_555 1_555
H8 C7 1_555 1_555
C8 C3 1_555 1_555
C9 C8 1_555 1_555
H9 C9 1_555 1_555
C10 C9 1_555 1_555
H10 C10 1_555 1_555
C11 H11 1_555 1_555
H12 C11 1_555 1_555
H13 C11 1_555 1_555
C12 C11 1_555 1_555
C13 C12 1_555 1_555
C14 C13 1_555 1_555
C15 C14 1_555 1_555
H14 C15 1_555 1_555
H15 C15 1_555 1_555
H16 C15 1_555 1_555
C16 H17 1_555 1_555
C17 C16 1_555 1_555
H18 C17 1_555 1_555
C18 C13 1_555 1_555
C19 C18 1_555 1_555
H19 C19 1_555 1_555
C20 C19 1_555 1_555
H20 C20 1_555 1_555
C21 H21 1_555 1_555
H22 C21 1_555 1_555
H23 C21 1_555 1_555
C22 C21 1_555 1_555
C23 C22 1_555 1_555
C24 C23 1_555 1_555
C25 C24 1_555 1_555
H24 C25 1_555 1_555
H25 C25 1_555 1_555
H26 C25 1_555 1_555
C26 H27 1_555 1_555
C27 C26 1_555 1_555
H28 C27 1_555 1_555
C28 C23 1_555 1_555
C29 C28 1_555 1_555
H29 C29 1_555 1_555
C30 C29 1_555 1_555
H30 C30 1_555 1_555
C31 H31 1_555 1_555
H32 C31 1_555 1_555
Cl1 Hg1 1_555 1_555
Cl2 Hg1 1_555 1_555
Cl3 C31 1_555 1_555
Cl4 C31 1_555 1_555
Hg1 N1 1_555 1_555
N1 C6 1_555 1_555
N2 C16 1_555 1_555
N3 C26 1_555 1_555
O1 C2 1_555 1_555
O2 Al1 1_555 1_555
O3 Al1 1_555 1_555
O4 Al1 1_555 1_555
O5 Al1 1_555 1_555
O6 Al1 1_555 1_555
O7 H33 1_555 1_555
H34 O7 1_555 1_555
O8 H35 1_555 1_555
H36 O8 1_555 1_555
O9 H37 1_555 1_555
H38 O9 1_555 1_555
O10 H39 1_555 1_555
H40 O10 1_555 1_555
Hg1A N3 1_555 1_555
N3A Hg1 1_555 1_555
C4 O2 1_555 1_555
C7 C8 1_555 1_555
C10 N1 1_555 1_555
C12 O3 1_555 1_555
C14 O4 1_555 1_555
C17 C18 1_555 1_555
C20 N2 1_555 1_555
C22 O5 1_555 1_555
C24 O6 1_555 1_555
C27 C28 1_555 1_555
C30 N3 1_555 1_555

#END
