
#######################################################################
#
#                 Cambridge Crystallographic Data Centre
#                                CCDC 
#
#######################################################################
#
# If this CIF has been generated from an entry in the Cambridge 
# Structural Database, then it will include bibliographic, chemical, 
# crystal, experimental, refinement or atomic coordinate data resulting 
# from the CCDC's data processing and validation procedures.
#
#######################################################################

data_EXUYAX
_symmetry_cell_setting           triclinic
_symmetry_space_group_name_H-M   'P -1'
_symmetry_Int_Tables_number      2
_space_group_name_Hall           '-P 1'
loop_
_symmetry_equiv_pos_site_id
_symmetry_equiv_pos_as_xyz
1 x,y,z
2 -x,-y,-z
_cell_length_a                   10.919(2)
_cell_length_b                   11.844(2)
_cell_length_c                   12.724(3)
_cell_angle_alpha                82.09(3)
_cell_angle_beta                 68.51(3)
_cell_angle_gamma                73.85(3)
_cell_volume                     1469.53
loop_
_atom_site_label
_atom_site_type_symbol
_atom_site_fract_x
_atom_site_fract_y
_atom_site_fract_z
C1 C 0.9053(2) 0.3268(2) 0.98187(19)
H1 H 0.8143 0.3257 1.0056
C2 C 1.1158(2) 0.3128(2) 0.8793(2)
H2 H 1.1969 0.3006 0.8182
C3 C 1.0997(3) 0.3430(2) 0.9834(2)
H3 H 1.1663 0.3548 1.0068
C4 C 0.8973(3) 0.3815(2) 1.1673(2)
H4 H 0.8049 0.4269 1.1790
H5 H 0.9441 0.4298 1.1865
C5 C 0.8949(3) 0.2720(2) 1.24529(19)
H6 H 0.8333 0.2946 1.3206
H7 H 0.8593 0.2191 1.2192
C6 C 1.0326(3) 0.2062(2) 1.25224(19)
H8 H 1.0719 0.2606 1.2722
H9 H 1.0922 0.1775 1.1783
C7 C 1.0269(3) 0.1030(2) 1.3378(2)
H10 H 0.9817 0.0512 1.3215
H11 H 1.1186 0.0588 1.3306
C8 C 1.0109(2) 0.16946(19) 1.52265(19)
H12 H 1.1032 0.1640 1.5026
C9 C 0.7958(2) 0.2003(2) 1.6167(2)
H13 H 0.7122 0.2205 1.6743
C10 C 0.8168(3) 0.1609(2) 1.5143(2)
H14 H 0.7513 0.1492 1.4894
C11 C 1.1896(2) 0.3440(2) 0.5847(2)
H15 H 1.2484 0.2695 0.5786
C12 C 1.0093(2) 0.4866(2) 0.6331(2)
H16 H 0.9198 0.5284 0.6665
C13 C 1.1129(2) 0.5332(2) 0.5633(2)
H17 H 1.1075 0.6120 0.5408
C14 C 1.3652(3) 0.4503(2) 0.4655(2)
H18 H 1.3646 0.4993 0.3980
H19 H 1.4216 0.3726 0.4422
C15 C 1.4254(2) 0.5020(2) 0.5324(2)
H20 H 1.4167 0.4581 0.6039
H21 H 1.3750 0.5829 0.5485
C16 C 0.7184(2) 0.1701(2) 0.92380(19)
H22 H 0.6524 0.2344 0.9118
C17 C 0.9115(3) 0.0454(2) 0.9074(2)
H23 H 1.0037 0.0087 0.8812
C18 C 0.8159(3) 0.0072(2) 0.9970(2)
H24 H 0.8301 -0.0600 1.0427
C19 C 0.5606(3) 0.0793(2) 1.0892(2)
H25 H 0.4966 0.1554 1.0930
H26 H 0.5679 0.0583 1.1635
C20 C 0.5079(3) -0.0122(3) 1.0566(2)
H27 H 0.5700 -0.0887 1.0570
H28 H 0.4205 -0.0157 1.1133
N1 N 0.9941(2) 0.30277(17) 0.87789(15)
N2 N 0.9655(2) 0.35258(16) 1.04746(16)
N3 N 0.9537(2) 0.14180(16) 1.45507(16)
N4 N 0.91878(19) 0.20535(16) 1.62104(15)
N5 N 1.05900(19) 0.36701(16) 0.64607(15)
N6 N 1.22690(19) 0.44188(16) 0.53228(16)
N7 N 0.84913(19) 0.14810(16) 0.86134(15)
N8 N 0.6940(2) 0.08704(17) 1.00695(16)
O1 O 0.7459(2) 0.40999(19) 0.78781(19)
Cu1 Cu 0.95152(3) 0.25754(2) 0.75054(2)
H29 H 0.730(4) 0.451(3) 0.825(3)
H30 H 0.681(4) 0.402(3) 0.787(3)
C15A C 1.5746(2) 0.4980(2) 0.4676(2)
C14A C 1.6348(3) 0.5497(2) 0.5345(2)
H18A H 1.6354 0.5007 0.6020
H19A H 1.5784 0.6274 0.5578
N6A N 1.77310(19) 0.55812(16) 0.46772(16)
C11A C 1.8104(2) 0.6560(2) 0.4153(2)
H15A H 1.7516 0.7305 0.4214
N5A N 1.94100(19) 0.63299(16) 0.35393(15)
C12A C 1.9907(2) 0.5134(2) 0.3669(2)
H16A H 2.0802 0.4716 0.3335
C13A C 1.8871(2) 0.4668(2) 0.4367(2)
H17A H 1.8925 0.3880 0.4592
H20A H 1.5833 0.5419 0.3961
H21A H 1.6250 0.4171 0.4515
C20A C 0.4921(3) 0.0122(3) 0.9434(2)
C19A C 0.4394(3) -0.0793(2) 0.9108(2)
H25A H 0.5034 -0.1554 0.9070
H26A H 0.4321 -0.0583 0.8365
N8A N 0.3060(2) -0.08704(17) 0.99305(16)
C16A C 0.2816(2) -0.1701(2) 1.07620(19)
H22A H 0.3476 -0.2344 1.0882
N7A N 0.15087(19) -0.14810(16) 1.13866(15)
C17A C 0.0885(3) -0.0454(2) 1.0926(2)
H23A H -0.0037 -0.0087 1.1188
C18A C 0.1841(3) -0.0072(2) 1.0030(2)
H24A H 0.1699 0.0600 0.9573
H27A H 0.4300 0.0887 0.9430
H28A H 0.5795 0.0157 0.8867
C1_2 C 0.9053(2) 0.3268(2) -0.01813(19)
H1_2 H 0.8143 0.3257 0.0056
C2_2 C 1.1158(2) 0.3128(2) -0.1207(2)
H2_2 H 1.1969 0.3006 -0.1818
C3_2 C 1.0997(3) 0.3430(2) -0.0166(2)
H3_2 H 1.1663 0.3548 0.0068
C4_2 C 0.8973(3) 0.3815(2) 0.1673(2)
H4_2 H 0.8049 0.4269 0.1790
H5_2 H 0.9441 0.4298 0.1865
C5_2 C 0.8949(3) 0.2720(2) 0.24529(19)
H6_2 H 0.8333 0.2946 0.3206
H7_2 H 0.8593 0.2191 0.2192
C6_2 C 1.0326(3) 0.2062(2) 0.25224(19)
H8_2 H 1.0719 0.2606 0.2722
H9_2 H 1.0922 0.1775 0.1783
C7_2 C 1.0269(3) 0.1030(2) 0.3378(2)
H10_2 H 0.9817 0.0512 0.3215
H11_2 H 1.1186 0.0588 0.3306
C8_2 C 1.0109(2) 0.16946(19) 0.52265(19)
H12_2 H 1.1032 0.1640 0.5026
C9_2 C 0.7958(2) 0.2003(2) 0.6167(2)
H13_2 H 0.7122 0.2205 0.6743
C10_2 C 0.8168(3) 0.1609(2) 0.5143(2)
H14_2 H 0.7513 0.1492 0.4894
N1_2 N 0.9941(2) 0.30277(17) -0.12211(15)
N2_2 N 0.9655(2) 0.35258(16) 0.04746(16)
N3_2 N 0.9537(2) 0.14180(16) 0.45507(16)
N4_2 N 0.91878(19) 0.20535(16) 0.62104(15)
Cu1_2 Cu 0.95152(3) 0.25754(2) -0.24946(2)
O1_2 O 0.7459(2) 0.40999(19) -0.21219(19)
H29_2 H 0.730(4) 0.451(3) -0.175(3)
H30_2 H 0.681(4) 0.402(3) -0.213(3)
Cu1_3 Cu 0.95152(3) 0.25754(2) 1.75054(2)
Cu1A Cu 2.04848(3) 0.74246(2) 0.24946(2)
Cu1A_2 Cu 0.04848(3) -0.25754(2) 1.24946(2)
N4_3 N 0.91878(19) 0.20535(16) -0.37896(15)
N5_2 N 1.05900(19) 0.36701(16) -0.35393(15)
N7_2 N 0.84913(19) 0.14810(16) -0.13866(15)
O2 O 0.5751(2) 0.35255(19) 1.15320(18)
H31 H 0.568(4) 0.314(3) 1.218(2)
H32 H 0.570(4) 0.424(2) 1.173(3)
O3 O 0.5720(3) 0.1905(2) 1.3358(2)
H33 H 0.635(4) 0.136(3) 1.321(3)
H34 H 0.513(5) 0.168(4) 1.364(4)
O4 O 0.5197(3) -0.1472(2) 1.3272(2)
H35 H 0.588(4) -0.129(3) 1.307(3)
H36 H 0.535(4) -0.195(3) 1.278(3)
O5 O 1.3610(3) 0.0711(2) 1.4241(2)
H37 H 1.391(4) 0.014(3) 1.405(3)
H38 H 1.339(4) 0.057(3) 1.497(3)
O6 O 0.6497(3) 0.6091(2) 0.9165(2)
H39 H 0.616(4) 0.606(3) 0.987(3)
H40 H 0.583(3) 0.628(2) 0.904(2)
Cl1 Cl 0.54377(6) 0.62904(6) 1.18493(6)
Cl2 Cl 1.21789(6) 0.06222(5) 0.69441(5)
loop_
_geom_bond_atom_site_label_1
_geom_bond_atom_site_label_2
_geom_bond_site_symmetry_1
_geom_bond_site_symmetry_2
C1 H1 1_555 1_555
C2 H2 1_555 1_555
C3 C2 1_555 1_555
H3 C3 1_555 1_555
C4 H4 1_555 1_555
H5 C4 1_555 1_555
C5 C4 1_555 1_555
H6 C5 1_555 1_555
H7 C5 1_555 1_555
C6 C5 1_555 1_555
H8 C6 1_555 1_555
H9 C6 1_555 1_555
C7 C6 1_555 1_555
H10 C7 1_555 1_555
H11 C7 1_555 1_555
C8 H12 1_555 1_555
C9 H13 1_555 1_555
C10 C9 1_555 1_555
H14 C10 1_555 1_555
C11 H15 1_555 1_555
C12 H16 1_555 1_555
C13 C12 1_555 1_555
H17 C13 1_555 1_555
C14 H18 1_555 1_555
H19 C14 1_555 1_555
C15 C14 1_555 1_555
H20 C15 1_555 1_555
H21 C15 1_555 1_555
C16 H22 1_555 1_555
C17 H23 1_555 1_555
C18 C17 1_555 1_555
H24 C18 1_555 1_555
C19 H25 1_555 1_555
H26 C19 1_555 1_555
C20 C19 1_555 1_555
H27 C20 1_555 1_555
H28 C20 1_555 1_555
N1 C1 1_555 1_555
N2 C1 1_555 1_555
N3 C7 1_555 1_555
N4 C8 1_555 1_555
N5 C11 1_555 1_555
N6 C11 1_555 1_555
N7 C16 1_555 1_555
N8 C16 1_555 1_555
O1 Cu1 1_555 1_555
O2 H31 1_555 1_555
O3 H33 1_555 1_555
O4 H35 1_555 1_555
O5 H37 1_555 1_555
O6 H39 1_555 1_555
Cu1 N1 1_555 1_555
H29 O1 1_555 1_555
H30 O1 1_555 1_555
H32 O2 1_555 1_555
H34 O3 1_555 1_555
H36 O4 1_555 1_555
H38 O5 1_555 1_555
H40 O6 1_555 1_555
C15A C15 1_555 1_555
C14A C15A 1_555 1_555
H18A C14A 1_555 1_555
H19A C14A 1_555 1_555
N6A C14A 1_555 1_555
C11A N6A 1_555 1_555
H15A C11A 1_555 1_555
N5A C11A 1_555 1_555
C12A N5A 1_555 1_555
H16A C12A 1_555 1_555
C13A N6A 1_555 1_555
H17A C13A 1_555 1_555
H20A C15A 1_555 1_555
H21A C15A 1_555 1_555
C20A C20 1_555 1_555
C19A C20A 1_555 1_555
H25A C19A 1_555 1_555
H26A C19A 1_555 1_555
N8A C19A 1_555 1_555
C16A N8A 1_555 1_555
H22A C16A 1_555 1_555
N7A C16A 1_555 1_555
C17A N7A 1_555 1_555
H23A C17A 1_555 1_555
C18A N8A 1_555 1_555
H24A C18A 1_555 1_555
H27A C20A 1_555 1_555
H28A C20A 1_555 1_555
C1_2 H1_2 1_555 1_555
C2_2 H2_2 1_555 1_555
C3_2 C2_2 1_555 1_555
H3_2 C3_2 1_555 1_555
C4_2 H4_2 1_555 1_555
H5_2 C4_2 1_555 1_555
C5_2 C4_2 1_555 1_555
H6_2 C5_2 1_555 1_555
H7_2 C5_2 1_555 1_555
C6_2 C5_2 1_555 1_555
H8_2 C6_2 1_555 1_555
H9_2 C6_2 1_555 1_555
C7_2 C6_2 1_555 1_555
H10_2 C7_2 1_555 1_555
H11_2 C7_2 1_555 1_555
C8_2 H12_2 1_555 1_555
C9_2 H13_2 1_555 1_555
C10_2 C9_2 1_555 1_555
H14_2 C10_2 1_555 1_555
N1_2 C1_2 1_555 1_555
N2_2 C1_2 1_555 1_555
N3_2 C7_2 1_555 1_555
N4_2 Cu1 1_555 1_555
Cu1_2 N1_2 1_555 1_555
O1_2 Cu1_2 1_555 1_555
H29_2 O1_2 1_555 1_555
H30_2 O1_2 1_555 1_555
Cu1_3 N4 1_555 1_555
Cu1A N5A 1_555 1_555
Cu1A_2 N7A 1_555 1_555
N4_3 Cu1_2 1_555 1_555
N5_2 Cu1_2 1_555 1_555
N7_2 Cu1_2 1_555 1_555
C2 N1 1_555 1_555
C3 N2 1_555 1_555
C4 N2 1_555 1_555
C8 N3 1_555 1_555
C9 N4 1_555 1_555
C10 N3 1_555 1_555
C12 N5 1_555 1_555
C13 N6 1_555 1_555
C14 N6 1_555 1_555
C17 N7 1_555 1_555
C18 N8 1_555 1_555
C19 N8 1_555 1_555
N5 Cu1 1_555 1_555
N7 Cu1 1_555 1_555
C12A C13A 1_555 1_555
C17A C18A 1_555 1_555
C2_2 N1_2 1_555 1_555
C3_2 N2_2 1_555 1_555
C4_2 N2_2 1_555 1_555
C8_2 N3_2 1_555 1_555
C8_2 N4_2 1_555 1_555
C9_2 N4_2 1_555 1_555
C10_2 N3_2 1_555 1_555

#END
