
#######################################################################
#
#                 Cambridge Crystallographic Data Centre
#                                CCDC 
#
#######################################################################
#
# If this CIF has been generated from an entry in the Cambridge 
# Structural Database, then it will include bibliographic, chemical, 
# crystal, experimental, refinement or atomic coordinate data resulting 
# from the CCDC's data processing and validation procedures.
#
#######################################################################

data_EXUYIF
_symmetry_cell_setting           triclinic
_symmetry_space_group_name_H-M   'P -1'
_symmetry_Int_Tables_number      2
_space_group_name_Hall           '-P 1'
loop_
_symmetry_equiv_pos_site_id
_symmetry_equiv_pos_as_xyz
1 x,y,z
2 -x,-y,-z
_cell_length_a                   8.1383(16)
_cell_length_b                   11.648(2)
_cell_length_c                   16.780(3)
_cell_angle_alpha                73.49(3)
_cell_angle_beta                 88.78(3)
_cell_angle_gamma                82.06(3)
_cell_volume                     1510.19
loop_
_atom_site_label
_atom_site_type_symbol
_atom_site_fract_x
_atom_site_fract_y
_atom_site_fract_z
C1 C 0.271(3) 0.6272(19) 1.0354(13)
H1 H 0.2102 0.7024 1.0107
C2 C 0.344(3) 0.4353(19) 1.0793(13)
H2 H 0.3421 0.3525 1.0909
C3 C 0.471(3) 0.4891(19) 1.0990(13)
H3 H 0.5709 0.4505 1.1260
C4 C 0.511(3) 0.706(2) 1.0823(14)
H4 H 0.4692 0.7822 1.0425
H5 H 0.6275 0.6865 1.0718
C5 C 0.492(3) 0.7187(19) 1.1701(13)
H6 H 0.3761 0.7438 1.1795
H7 H 0.5265 0.6412 1.2102
C6 C 0.596(3) 0.811(2) 1.1826(14)
H8 H 0.5632 0.8876 1.1406
H9 H 0.7114 0.7847 1.1739
C7 C 0.581(3) 0.833(2) 1.2682(14)
H10 H 0.6447 0.8965 1.2700
H11 H 0.4654 0.8597 1.2775
C8 C 0.797(3) 0.687(2) 1.3617(13)
H12 H 0.8856 0.7292 1.3411
C9 C 0.654(3) 0.553(2) 1.4326(15)
H13 H 0.6255 0.4840 1.4708
C10 C 0.547(3) 0.638(2) 1.3794(14)
H14 H 0.4337 0.6390 1.3743
C11 C 0.095(3) 0.660(2) 0.8304(14)
H15 H 0.0799 0.7305 0.8465
C12 C 0.106(3) 0.475(2) 0.8308(14)
H16 H 0.0984 0.3926 0.8480
C13 C 0.153(3) 0.537(2) 0.7544(14)
H17 H 0.1836 0.5053 0.7104
C14 C 0.175(3) 0.754(2) 0.6815(15)
H18 H 0.1479 0.8298 0.6955
H19 H 0.1011 0.7563 0.6362
C15 C 0.355(3) 0.743(2) 0.6523(15)
H20 H 0.3873 0.6621 0.6476
H21 H 0.3607 0.7993 0.5975
C16 C 0.476(3) 0.768(2) 0.7098(15)
H22 H 0.4784 0.7066 0.7627
H23 H 0.4355 0.8454 0.7197
C17 C 0.651(3) 0.772(2) 0.6775(18)
H24 H 0.6497 0.8387 0.6274
H25 H 0.7202 0.7871 0.7186
C18 C 0.803(3) 0.655(2) 0.5881(14)
H26 H 0.8128 0.7226 0.5432
C19 C 0.823(3) 0.473(2) 0.6665(14)
H27 H 0.8504 0.3892 0.6858
C20 C 0.737(3) 0.543(2) 0.7092(15)
H28 H 0.6947 0.5180 0.7622
N1 N 0.219(2) 0.5236(16) 1.0396(11)
N2 N 0.421(2) 0.6115(16) 1.0707(11)
N3 N 0.640(2) 0.7229(17) 1.3347(11)
N4 N 0.811(2) 0.5839(16) 1.4215(11)
N5 N 0.071(2) 0.5526(16) 0.8790(11)
N6 N 0.145(2) 0.6533(17) 0.7544(11)
N7 N 0.725(2) 0.6594(17) 0.6588(12)
N8 N 0.864(2) 0.5436(17) 0.5907(11)
Cu1 Cu 0.0000 0.5000 1.0000
Cu2 Cu 1.0000 0.5000 1.5000
C1A C -0.271(3) 0.3728(19) 0.9646(13)
H1A H -0.2102 0.2976 0.9893
C2A C -0.344(3) 0.5647(19) 0.9207(13)
H2A H -0.3421 0.6475 0.9091
C3A C -0.471(3) 0.5109(19) 0.9010(13)
H3A H -0.5709 0.5495 0.8740
C4A C -0.511(3) 0.294(2) 0.9177(14)
H4A H -0.4692 0.2178 0.9575
H5A H -0.6275 0.3135 0.9282
C5A C -0.492(3) 0.2813(19) 0.8299(13)
H6A H -0.3761 0.2562 0.8205
H7A H -0.5265 0.3588 0.7898
C6A C -0.596(3) 0.189(2) 0.8174(14)
H8A H -0.5632 0.1124 0.8594
H9A H -0.7114 0.2153 0.8261
C7A C -0.581(3) 0.167(2) 0.7318(14)
H10A H -0.6447 0.1035 0.7300
H11A H -0.4654 0.1403 0.7225
C8A C -0.797(3) 0.313(2) 0.6383(13)
H12A H -0.8856 0.2708 0.6589
C9A C -0.654(3) 0.447(2) 0.5674(15)
H13A H -0.6255 0.5160 0.5292
C10A C -0.547(3) 0.362(2) 0.6206(14)
H14A H -0.4337 0.3610 0.6257
N1A N -0.219(2) 0.4764(16) 0.9604(11)
N2A N -0.421(2) 0.3885(16) 0.9293(11)
N3A N -0.640(2) 0.2771(17) 0.6653(11)
N4A N -0.811(2) 0.4161(16) 0.5785(11)
C11A C -0.095(3) 0.340(2) 1.1696(14)
H15A H -0.0799 0.2695 1.1535
C12A C -0.106(3) 0.525(2) 1.1692(14)
H16A H -0.0984 0.6074 1.1520
C13A C -0.153(3) 0.463(2) 1.2456(14)
H17A H -0.1836 0.4947 1.2896
C14A C -0.175(3) 0.246(2) 1.3185(15)
H18A H -0.1479 0.1702 1.3045
H19A H -0.1011 0.2437 1.3638
C15A C -0.355(3) 0.257(2) 1.3477(15)
H20A H -0.3873 0.3379 1.3524
H21A H -0.3607 0.2007 1.4025
C16A C -0.476(3) 0.232(2) 1.2902(15)
H22A H -0.4784 0.2934 1.2373
H23A H -0.4355 0.1546 1.2803
C17A C -0.651(3) 0.228(2) 1.3225(18)
H24A H -0.6497 0.1613 1.3726
H25A H -0.7202 0.2129 1.2814
C18A C -0.803(3) 0.345(2) 1.4119(14)
H26A H -0.8128 0.2774 1.4568
C19A C -0.823(3) 0.527(2) 1.3335(14)
H27A H -0.8504 0.6108 1.3142
C20A C -0.737(3) 0.457(2) 1.2908(15)
H28A H -0.6947 0.4820 1.2378
N5A N -0.071(2) 0.4474(16) 1.1210(11)
N6A N -0.145(2) 0.3467(17) 1.2456(11)
N7A N -0.725(2) 0.3406(17) 1.3412(12)
N8A N -0.864(2) 0.4564(17) 1.4093(11)
Cu2_2 Cu 1.0000 0.5000 0.5000
N4A_2 N 1.189(2) 0.4161(16) 1.5785(11)
N8_2 N 0.864(2) 0.5436(17) 1.5907(11)
N8A_2 N 1.136(2) 0.4564(17) 1.4093(11)
Cu2_3 Cu -1.0000 0.5000 0.5000
Cu2_4 Cu -1.0000 0.5000 1.5000
O1 O 0.061(2) 0.9584(16) 0.7912(12)
O2 O -0.205(2) 1.0079(16) 0.7230(11)
O3 O 0.033(2) 1.0764(16) 0.6469(11)
O4 O -0.072(2) 1.1644(15) 0.7539(11)
S1 S -0.0444(7) 1.0513(5) 0.7295(3)
O5 O 0.098(2) 0.2853(15) 1.0151(12)
H29 H 0.15(4) 0.24(3) 1.05(2)
H30 H 0.07(3) 0.25(2) 0.983(15)
O6 O 0.996(3) 1.1527(18) 0.9107(13)
H31 H 1.08(5) 1.11(3) 0.92(2)
H32 H 0.99(4) 1.16(3) 0.86(2)
O7 O 0.346(2) 0.8826(17) 0.8838(12)
H33 H 0.32(4) 0.91(3) 0.922(18)
H34 H 0.28(5) 0.89(4) 0.85(3)
O8 O 0.682(2) 0.8870(16) 0.8740(11)
H35 H 0.57(2) 0.88(3) 0.86(2)
H36 H 0.71(4) 0.93(3) 0.822(13)
O9 O 0.245(2) 0.9840(17) 1.0141(12)
H37 H 0.28(5) 1.03(3) 1.05(2)
H38 H 0.17(3) 0.94(2) 1.042(18)
O10 O 0.650(3) 1.088(2) 0.5599(13)
H39 H 0.70(4) 1.05(3) 0.608(14)
H40 H 0.55(3) 1.06(4) 0.56(3)
O11 O 0.311(3) 1.066(2) 0.5490(15)
H41 H 0.22(3) 1.06(4) 0.58(2)
H42 H 0.29(6) 1.02(4) 0.52(3)
O12 O 0.127(3) 0.7119(18) 1.4663(13)
H43 H 0.06(4) 0.78(2) 1.442(18)
H44 H 0.20(4) 0.75(3) 1.48(3)
loop_
_geom_bond_atom_site_label_1
_geom_bond_atom_site_label_2
_geom_bond_site_symmetry_1
_geom_bond_site_symmetry_2
C1 H1 1_555 1_555
C2 H2 1_555 1_555
C3 C2 1_555 1_555
H3 C3 1_555 1_555
C4 H4 1_555 1_555
H5 C4 1_555 1_555
C5 C4 1_555 1_555
H6 C5 1_555 1_555
H7 C5 1_555 1_555
C6 C5 1_555 1_555
H8 C6 1_555 1_555
H9 C6 1_555 1_555
C7 C6 1_555 1_555
H10 C7 1_555 1_555
H11 C7 1_555 1_555
C8 H12 1_555 1_555
C9 H13 1_555 1_555
C10 C9 1_555 1_555
H14 C10 1_555 1_555
C11 H15 1_555 1_555
C12 H16 1_555 1_555
C13 C12 1_555 1_555
H17 C13 1_555 1_555
C14 H18 1_555 1_555
H19 C14 1_555 1_555
C15 C14 1_555 1_555
H20 C15 1_555 1_555
H21 C15 1_555 1_555
C16 C15 1_555 1_555
H22 C16 1_555 1_555
H23 C16 1_555 1_555
C17 C16 1_555 1_555
H24 C17 1_555 1_555
H25 C17 1_555 1_555
C18 H26 1_555 1_555
C19 H27 1_555 1_555
C20 C19 1_555 1_555
H28 C20 1_555 1_555
N1 C1 1_555 1_555
N2 C1 1_555 1_555
N3 C7 1_555 1_555
N4 C8 1_555 1_555
N5 C11 1_555 1_555
N6 C11 1_555 1_555
N7 C17 1_555 1_555
N8 C18 1_555 1_555
O1 S1 1_555 1_555
O2 S1 1_555 1_555
O3 S1 1_555 1_555
O4 S1 1_555 1_555
O5 H29 1_555 1_555
O6 H31 1_555 1_555
O7 H33 1_555 1_555
O8 H35 1_555 1_555
O9 H37 1_555 1_555
O10 H39 1_555 1_555
O11 H41 1_555 1_555
O12 H43 1_555 1_555
Cu1 N1 1_555 1_555
Cu2 N4 1_555 1_555
H30 O5 1_555 1_555
H32 O6 1_555 1_555
H34 O7 1_555 1_555
H36 O8 1_555 1_555
H38 O9 1_555 1_555
H40 O10 1_555 1_555
H42 O11 1_555 1_555
H44 O12 1_555 1_555
C1A H1A 1_555 1_555
C2A H2A 1_555 1_555
C3A C2A 1_555 1_555
H3A C3A 1_555 1_555
C4A H4A 1_555 1_555
H5A C4A 1_555 1_555
C5A C4A 1_555 1_555
H6A C5A 1_555 1_555
H7A C5A 1_555 1_555
C6A C5A 1_555 1_555
H8A C6A 1_555 1_555
H9A C6A 1_555 1_555
C7A C6A 1_555 1_555
H10A C7A 1_555 1_555
H11A C7A 1_555 1_555
C8A H12A 1_555 1_555
C9A H13A 1_555 1_555
C10A C9A 1_555 1_555
H14A C10A 1_555 1_555
N1A Cu1 1_555 1_555
N2A C1A 1_555 1_555
N3A C7A 1_555 1_555
N4A C8A 1_555 1_555
C11A H15A 1_555 1_555
C12A H16A 1_555 1_555
C13A C12A 1_555 1_555
H17A C13A 1_555 1_555
C14A H18A 1_555 1_555
H19A C14A 1_555 1_555
C15A C14A 1_555 1_555
H20A C15A 1_555 1_555
H21A C15A 1_555 1_555
C16A C15A 1_555 1_555
H22A C16A 1_555 1_555
H23A C16A 1_555 1_555
C17A C16A 1_555 1_555
H24A C17A 1_555 1_555
H25A C17A 1_555 1_555
C18A H26A 1_555 1_555
C19A H27A 1_555 1_555
C20A C19A 1_555 1_555
H28A C20A 1_555 1_555
N5A Cu1 1_555 1_555
N6A C11A 1_555 1_555
N7A C17A 1_555 1_555
N8A C18A 1_555 1_555
Cu2_2 N8 1_555 1_555
N4A_2 Cu2 1_555 1_555
N8_2 Cu2 1_555 1_555
N8A_2 Cu2 1_555 1_555
Cu2_3 N4A 1_555 1_555
Cu2_4 N8A 1_555 1_555
C2 N1 1_555 1_555
C3 N2 1_555 1_555
C4 N2 1_555 1_555
C8 N3 1_555 1_555
C9 N4 1_555 1_555
C10 N3 1_555 1_555
C12 N5 1_555 1_555
C13 N6 1_555 1_555
C14 N6 1_555 1_555
C18 N7 1_555 1_555
C19 N8 1_555 1_555
C20 N7 1_555 1_555
N5 Cu1 1_555 1_555
C1A N1A 1_555 1_555
C2A N1A 1_555 1_555
C3A N2A 1_555 1_555
C4A N2A 1_555 1_555
C8A N3A 1_555 1_555
C9A N4A 1_555 1_555
C10A N3A 1_555 1_555
C11A N5A 1_555 1_555
C12A N5A 1_555 1_555
C13A N6A 1_555 1_555
C14A N6A 1_555 1_555
C18A N7A 1_555 1_555
C19A N8A 1_555 1_555
C20A N7A 1_555 1_555

#END
