
#######################################################################
#
#                 Cambridge Crystallographic Data Centre
#                                CCDC 
#
#######################################################################
#
# If this CIF has been generated from an entry in the Cambridge 
# Structural Database, then it will include bibliographic, chemical, 
# crystal, experimental, refinement or atomic coordinate data resulting 
# from the CCDC's data processing and validation procedures.
#
#######################################################################

data_EXUYEC
_symmetry_cell_setting           monoclinic
_symmetry_space_group_name_H-M   'P 21/n'
_symmetry_Int_Tables_number      14
_space_group_name_Hall           '-P 2yn'
loop_
_symmetry_equiv_pos_site_id
_symmetry_equiv_pos_as_xyz
1 x,y,z
2 1/2-x,1/2+y,1/2-z
3 -x,-y,-z
4 1/2+x,1/2-y,1/2+z
_cell_length_a                   15.5337(3)
_cell_length_b                   13.9515(2)
_cell_length_c                   17.4752(4)
_cell_angle_alpha                90
_cell_angle_beta                 115.275(3)
_cell_angle_gamma                90
_cell_volume                     3424.65
loop_
_atom_site_label
_atom_site_type_symbol
_atom_site_fract_x
_atom_site_fract_y
_atom_site_fract_z
Mg1 Mg 0.76774(3) 0.48722(4) 0.50434(3)
Mg2 Mg 1.0000 0.5000 0.5000
O1 O 0.78756(8) 0.38102(9) 0.43265(9)
O2 O 0.93603(8) 0.37318(8) 0.44535(7)
O3 O 0.60358(7) 0.07897(8) 0.09521(7)
O4 O 0.74100(8) 0.08352(10) 0.08454(8)
O5 O 0.76806(9) 0.38695(11) 0.58889(9)
O6 O 0.91645(9) 0.33819(11) 0.65622(10)
O7 O 0.59528(9) 0.11795(12) 0.81771(10)
O8 O 0.74055(9) 0.09379(10) 0.91839(9)
O9 O 0.92385(7) 0.49704(7) 0.57481(6)
H1 H 0.9303 0.5409 0.6096
H2 H 0.9328 0.4458 0.6003
N1 N 0.61483(9) 0.47344(10) 0.44353(9)
N2 N 0.46346(10) 0.50606(12) 0.36802(11)
C1 C 0.85107(11) 0.34599(11) 0.41627(10)
C2 C 0.82058(10) 0.26753(11) 0.35052(10)
C3 C 0.84721(12) 0.27553(12) 0.28573(11)
H3 H 0.8932 0.3202 0.2893
C4 C 0.80576(12) 0.21693(13) 0.21387(11)
H4 H 0.8249 0.2234 0.1705
C5 C 0.73773(10) 0.15039(11) 0.20623(10)
C6 C 0.71379(10) 0.13419(11) 0.27557(10)
C7 C 0.65146(12) 0.05985(12) 0.27599(11)
H5 H 0.6220 0.0215 0.2283
C8 C 0.63426(14) 0.04392(15) 0.34466(12)
H6 H 0.5933 -0.0052 0.3437
C9 C 0.67785(15) 0.10098(16) 0.41734(13)
H7 H 0.6663 0.0888 0.4644
C10 C 0.73655(13) 0.17362(14) 0.41936(11)
H8 H 0.7641 0.2115 0.4676
C11 C 0.75661(11) 0.19271(12) 0.34927(10)
C12 C 0.68988(11) 0.09881(11) 0.12224(10)
C13 C 0.83195(12) 0.33976(13) 0.64457(11)
C14 C 0.80045(12) 0.28306(13) 0.70128(11)
C15 C 0.73698(15) 0.20999(15) 0.66830(12)
H9 H 0.7183 0.1919 0.6122
C16 C 0.69956(15) 0.16175(15) 0.71745(12)
H10 H 0.6560 0.1124 0.6933
C17 C 0.72547(12) 0.18541(13) 0.80013(11)
C18 C 0.79216(12) 0.26039(13) 0.83744(11)
C19 C 0.82163(15) 0.28971(16) 0.92234(13)
H11 H 0.7984 0.2579 0.9565
C20 C 0.8838(2) 0.3642(2) 0.95479(15)
H12 H 0.9029 0.3824 1.0109
C21 C 0.9190(2) 0.41331(19) 0.90421(16)
H13 H 0.9603 0.4647 0.9267
C22 C 0.89341(16) 0.38686(16) 0.82350(14)
H14 H 0.9180 0.4197 0.7910
C23 C 0.82972(12) 0.30990(13) 0.78713(11)
C24 C 0.68361(13) 0.12838(14) 0.84952(12)
C25 C 0.55987(13) 0.40562(14) 0.45833(13)
H15 H 0.5834 0.3537 0.4948
C26 C 0.46684(13) 0.42503(16) 0.41236(14)
H16 H 0.4153 0.3900 0.4112
C27 C 0.55384(12) 0.53271(14) 0.38907(12)
H17 H 0.5711 0.5867 0.3676
C28 C 0.37749(15) 0.5557(2) 0.31043(16)
H18 H 0.3947 0.6136 0.2907
H19 H 0.3391 0.5712 0.3396
H20 H 0.3420 0.5150 0.2631
Mg1B Mg 1.23226(3) 0.51278(4) 0.49566(3)
Mg1A Mg 0.73226(3) -0.01278(4) -0.00434(3)
Mg1A_2 Mg 0.73226(3) -0.01278(4) 0.99566(3)
Mg1C Mg 1.26774(3) 1.01278(4) 0.00434(3)
Mg1C_2 Mg 1.26774(3) 1.01278(4) 1.00434(3)
Mg2A Mg 0.5000 0.0000 0.0000
Mg2A_2 Mg 1.5000 1.0000 1.0000
O1B O 1.21244(8) 0.61898(9) 0.56735(9)
O2B O 1.06397(8) 0.62682(8) 0.55465(7)
O3B O 1.39642(7) 0.92103(8) 0.90479(7)
O3A O 0.89642(7) 0.57897(8) 0.40479(7)
O3C O 1.10358(7) 0.42103(8) 0.59521(7)
O4B O 1.25900(8) 0.91648(10) 0.91546(8)
O4A O 0.75900(8) 0.58352(10) 0.41546(8)
O4C O 1.24100(8) 0.41648(10) 0.58454(8)
O5B O 1.23194(9) 0.61305(11) 0.41111(9)
O6B O 1.08355(9) 0.66181(11) 0.34378(10)
O7B O 1.40472(9) 0.88205(12) 0.18229(10)
O8B O 1.25945(9) 0.90621(10) 0.08161(9)
O8A O 0.75945(9) 0.59379(10) 0.58161(9)
O8C O 1.24055(9) 0.40621(10) 0.41839(9)
O9B O 1.07615(7) 0.50296(7) 0.42519(6)
H1B H 1.0697 0.4591 0.3904
H2B H 1.0672 0.5542 0.3997
N1B N 1.38517(9) 0.52656(10) 0.55647(9)
N2B N 1.53654(10) 0.49394(12) 0.63198(11)
C1B C 1.14893(11) 0.65401(11) 0.58373(10)
C2B C 1.17942(10) 0.73247(11) 0.64948(10)
C3B C 1.15279(12) 0.72447(12) 0.71427(11)
H3B H 1.1068 0.6798 0.7107
C4B C 1.19424(12) 0.78307(13) 0.78613(11)
H4B H 1.1751 0.7766 0.8295
C5B C 1.26227(10) 0.84961(11) 0.79377(10)
C6B C 1.28621(10) 0.86581(11) 0.72443(10)
C7B C 1.34854(12) 0.94015(12) 0.72401(11)
H5B H 1.3780 0.9785 0.7717
C8B C 1.36574(14) 0.95608(15) 0.65534(12)
H6B H 1.4067 1.0052 0.6563
C9B C 1.32215(15) 0.89902(16) 0.58266(13)
H7B H 1.3337 0.9112 0.5356
C10B C 1.26345(13) 0.82638(14) 0.58064(11)
H8B H 1.2359 0.7885 0.5324
C11B C 1.24339(11) 0.80729(12) 0.65073(10)
C12B C 1.31012(11) 0.90119(11) 0.87776(10)
C13B C 1.16805(12) 0.66024(13) 0.35543(11)
C14B C 1.19955(12) 0.71694(13) 0.29872(11)
C15B C 1.26302(15) 0.79001(15) 0.33170(12)
H9B H 1.2817 0.8081 0.3878
C16B C 1.30044(15) 0.83825(15) 0.28255(12)
H10B H 1.3440 0.8876 0.3067
C17B C 1.27453(12) 0.81459(13) 0.19987(11)
C18B C 1.20784(12) 0.73961(13) 0.16256(11)
C19B C 1.17837(15) 0.71029(16) 0.07766(13)
H11B H 1.2016 0.7421 0.0435
C20B C 1.1162(2) 0.6358(2) 0.04521(15)
H12B H 1.0971 0.6176 -0.0109
C21B C 1.0810(2) 0.58669(19) 0.09579(16)
H13B H 1.0397 0.5353 0.0733
C22B C 1.10659(16) 0.61314(16) 0.17650(14)
H14B H 1.0820 0.5803 0.2090
C23B C 1.17028(12) 0.69010(13) 0.21287(11)
C24B C 1.31639(13) 0.87162(14) 0.15048(12)
C25B C 1.44013(13) 0.59438(14) 0.54167(13)
H15B H 1.4166 0.6463 0.5052
C26B C 1.53316(13) 0.57497(16) 0.58764(14)
H16B H 1.5847 0.6100 0.5888
C27B C 1.44616(12) 0.46729(14) 0.61093(12)
H17B H 1.4289 0.4133 0.6324
C28B C 1.62251(15) 0.4443(2) 0.68957(16)
H18B H 1.6053 0.3864 0.7093
H19B H 1.6609 0.4288 0.6604
H20B H 1.6580 0.4850 0.7369
N3 N 0.57882(11) 0.34826(12) 0.20009(12)
N4 N 0.59412(13) 0.34324(13) 0.08309(13)
C29 C 0.63398(17) 0.42399(18) 0.20035(19)
H21 H 0.6603 0.4693 0.2432
C30 C 0.64346(18) 0.42157(18) 0.1286(2)
H22 H 0.6775 0.4651 0.1119
C31 C 0.55635(14) 0.30004(15) 0.12833(14)
H23 H 0.5197 0.2446 0.1127
C32 C 0.55113(17) 0.32502(18) 0.26725(16)
H24 H 0.4952 0.3608 0.2595
H25 H 0.6020 0.3411 0.3209
H26 H 0.5378 0.2577 0.2658
C33 C 0.5900(8) 0.3117(3) 0.0002(4)
H27 H 0.6538 0.2975 0.0066
H28 H 0.5527 0.2534 -0.0176
C34 C 0.5480(3) 0.3846(3) -0.0644(2)
H29 H 0.4844 0.4001 -0.0804
C35 C 0.5928(4) 0.4298(4) -0.1013(4)
H30 H 0.6565 0.4161 -0.0869
H31 H 0.5613 0.4758 -0.1423
O10 O 0.4767(2) 0.2041(3) 0.6663(2)
H32 H 0.5166 0.1869 0.7128
C36? C 0.585(6) 0.294(3) 0.004(3)
C37? C 0.625(2) 0.3589(19) -0.0371(16)
C38? C 0.565(3) 0.367(3) -0.1168(18)
H33? H 0.6201 0.2342 0.0179
H34? H 0.5190 0.2809 -0.0322
H35? H 0.6833 0.3899 -0.0113
H36? H 0.5080 0.3332 -0.1376
H37? H 0.5799 0.4059 -0.1526
loop_
_geom_bond_atom_site_label_1
_geom_bond_atom_site_label_2
_geom_bond_site_symmetry_1
_geom_bond_site_symmetry_2
Mg1 O1 1_555 1_555
Mg2 O2 1_555 1_555
O1 C1 1_555 1_555
O2 C1 1_555 1_555
O3 C12 1_555 1_555
O4 C12 1_555 1_555
O5 Mg1 1_555 1_555
O6 C13 1_555 1_555
O7 C24 1_555 1_555
O8 C24 1_555 1_555
O9 Mg1 1_555 1_555
H1 O9 1_555 1_555
H2 O9 1_555 1_555
N1 Mg1 1_555 1_555
N2 C26 1_555 1_555
C1 C2 1_555 1_555
C2 C3 1_555 1_555
C3 H3 1_555 1_555
C4 C3 1_555 1_555
H4 C4 1_555 1_555
C5 C4 1_555 1_555
C6 C5 1_555 1_555
C7 C6 1_555 1_555
H5 C7 1_555 1_555
C8 C7 1_555 1_555
H6 C8 1_555 1_555
C9 C8 1_555 1_555
H7 C9 1_555 1_555
C10 C9 1_555 1_555
H8 C10 1_555 1_555
C11 C2 1_555 1_555
C12 C5 1_555 1_555
C13 O5 1_555 1_555
C14 C13 1_555 1_555
C15 C14 1_555 1_555
H9 C15 1_555 1_555
C16 C15 1_555 1_555
H10 C16 1_555 1_555
C17 C16 1_555 1_555
C18 C17 1_555 1_555
C19 C18 1_555 1_555
H11 C19 1_555 1_555
C20 C19 1_555 1_555
H12 C20 1_555 1_555
C21 C20 1_555 1_555
H13 C21 1_555 1_555
C22 C21 1_555 1_555
H14 C22 1_555 1_555
C23 C14 1_555 1_555
C24 C17 1_555 1_555
C25 N1 1_555 1_555
H15 C25 1_555 1_555
C26 C25 1_555 1_555
H16 C26 1_555 1_555
C27 N1 1_555 1_555
H17 C27 1_555 1_555
C28 N2 1_555 1_555
H18 C28 1_555 1_555
H19 C28 1_555 1_555
H20 C28 1_555 1_555
N3 C29 1_555 1_555
N4 C30 1_555 1_555
C29 H21 1_555 1_555
C30 C29 1_555 1_555
H22 C30 1_555 1_555
C31 N3 1_555 1_555
H23 C31 1_555 1_555
C32 N3 1_555 1_555
H24 C32 1_555 1_555
H25 C32 1_555 1_555
H26 C32 1_555 1_555
C33 N4 1_555 1_555
H27 C33 1_555 1_555
H28 C33 1_555 1_555
C34 C33 1_555 1_555
H29 C34 1_555 1_555
C35 C34 1_555 1_555
H30 C35 1_555 1_555
H31 C35 1_555 1_555
O10 H32 1_555 1_555
Mg1B O1B 1_555 1_555
Mg1A O4 1_555 1_555
Mg1A_2 O8 1_555 1_555
Mg1C O8B 1_555 1_555
Mg1C_2 O4B 1_555 1_555
Mg2A O3 1_555 1_555
Mg2A_2 O3B 1_555 1_555
O1B C1B 1_555 1_555
O2B Mg2 1_555 1_555
O3B C12B 1_555 1_555
O3A Mg2 1_555 1_555
O3C Mg2 1_555 1_555
O4B C12B 1_555 1_555
O4A Mg1 1_555 1_555
O4C Mg1B 1_555 1_555
O5B Mg1B 1_555 1_555
O6B C13B 1_555 1_555
O7B C24B 1_555 1_555
O8B C24B 1_555 1_555
O8A Mg1 1_555 1_555
O8C Mg1B 1_555 1_555
O9B Mg2 1_555 1_555
H1B O9B 1_555 1_555
H2B O9B 1_555 1_555
N1B Mg1B 1_555 1_555
N2B C26B 1_555 1_555
C1B O2B 1_555 1_555
C2B C1B 1_555 1_555
C3B C2B 1_555 1_555
H3B C3B 1_555 1_555
C4B C3B 1_555 1_555
H4B C4B 1_555 1_555
C5B C4B 1_555 1_555
C6B C5B 1_555 1_555
C7B C6B 1_555 1_555
H5B C7B 1_555 1_555
C8B C7B 1_555 1_555
H6B C8B 1_555 1_555
C9B C8B 1_555 1_555
H7B C9B 1_555 1_555
C10B C9B 1_555 1_555
H8B C10B 1_555 1_555
C11B C2B 1_555 1_555
C12B C5B 1_555 1_555
C13B O5B 1_555 1_555
C14B C13B 1_555 1_555
C15B C14B 1_555 1_555
H9B C15B 1_555 1_555
C16B C15B 1_555 1_555
H10B C16B 1_555 1_555
C17B C16B 1_555 1_555
C18B C17B 1_555 1_555
C19B C18B 1_555 1_555
H11B C19B 1_555 1_555
C20B C19B 1_555 1_555
H12B C20B 1_555 1_555
C21B C20B 1_555 1_555
H13B C21B 1_555 1_555
C22B C21B 1_555 1_555
H14B C22B 1_555 1_555
C23B C14B 1_555 1_555
C24B C17B 1_555 1_555
C25B N1B 1_555 1_555
H15B C25B 1_555 1_555
C26B C25B 1_555 1_555
H16B C26B 1_555 1_555
C27B N1B 1_555 1_555
H17B C27B 1_555 1_555
C28B N2B 1_555 1_555
H18B C28B 1_555 1_555
H19B C28B 1_555 1_555
H20B C28B 1_555 1_555
Mg2 O9 1_555 1_555
N2 C27 1_555 1_555
C6 C11 1_555 1_555
C10 C11 1_555 1_555
C18 C23 1_555 1_555
C22 C23 1_555 1_555
N4 C31 1_555 1_555
Mg1B O9B 1_555 1_555
N2B C27B 1_555 1_555
C6B C11B 1_555 1_555
C10B C11B 1_555 1_555
C18B C23B 1_555 1_555
C22B C23B 1_555 1_555

#END
