
#######################################################################
#
#                 Cambridge Crystallographic Data Centre
#                                CCDC 
#
#######################################################################
#
# If this CIF has been generated from an entry in the Cambridge 
# Structural Database, then it will include bibliographic, chemical, 
# crystal, experimental, refinement or atomic coordinate data resulting 
# from the CCDC's data processing and validation procedures.
#
#######################################################################

data_EYAGER
_symmetry_cell_setting           orthorhombic
_symmetry_space_group_name_H-M   'P b c n'
_symmetry_Int_Tables_number      60
_space_group_name_Hall           '-P 2n 2ab'
loop_
_symmetry_equiv_pos_site_id
_symmetry_equiv_pos_as_xyz
1 x,y,z
2 1/2-x,1/2-y,1/2+z
3 1/2+x,1/2-y,-z
4 -x,y,1/2-z
5 -x,-y,-z
6 1/2+x,1/2+y,1/2-z
7 1/2-x,1/2+y,z
8 x,-y,1/2+z
_cell_length_a                   11.2265(6)
_cell_length_b                   16.9771(10)
_cell_length_c                   18.1284(8)
_cell_angle_alpha                90
_cell_angle_beta                 90
_cell_angle_gamma                90
_cell_volume                     3455.15
loop_
_atom_site_label
_atom_site_type_symbol
_atom_site_fract_x
_atom_site_fract_y
_atom_site_fract_z
Hg1 Hg -0.5000 0.25273(3) 0.2500
Mn1 Mn 0.0000 0.30736(10) 0.2500
S1 S -0.6015(2) 0.30134(15) 0.35994(14)
S2 S -0.3512(2) 0.14047(14) 0.29993(14)
N1 N 0.1494(6) 0.3993(4) 0.2278(4)
N2 N 0.1867(6) 0.4471(4) 0.2844(4)
N3 N 0.0552(6) 0.3260(4) 0.3702(4)
N4 N 0.0994(6) 0.3965(4) 0.3941(4)
N5 N -0.6560(9) 0.1529(6) 0.4191(5)
N6 N -0.1369(7) 0.2157(5) 0.2655(4)
C1 C 0.2437(8) 0.3982(5) 0.1813(5)
C2 C 0.3351(8) 0.4441(5) 0.2089(5)
H1 H 0.4090 0.4527 0.1870
C3 C 0.2966(8) 0.4743(5) 0.2737(5)
C4 C 0.1031(8) 0.4622(5) 0.3442(5)
H2 H 0.1272 0.5092 0.3708
H3 H 0.0243 0.4713 0.3241
C5 C 0.1359(9) 0.3923(6) 0.4651(5)
C6 C 0.1145(9) 0.3173(6) 0.4870(5)
H4 H 0.1303 0.2963 0.5334
C7 C 0.0650(8) 0.2780(6) 0.4278(5)
C8 C 0.2410(8) 0.3533(6) 0.1111(5)
H5 H 0.2373 0.2979 0.1216
H6 H 0.3116 0.3644 0.0832
H7 H 0.1721 0.3684 0.0830
C9 C 0.3576(8) 0.5273(6) 0.3282(6)
H8 H 0.3043 0.5688 0.3424
H9 H 0.4276 0.5495 0.3060
H10 H 0.3797 0.4973 0.3709
C10 C 0.1870(14) 0.4610(7) 0.5062(6)
H11 H 0.1982 0.4469 0.5570
H12 H 0.1333 0.5049 0.5030
H13 H 0.2623 0.4753 0.4849
C11 C 0.0241(10) 0.1954(6) 0.4253(6)
H14 H 0.0872 0.1613 0.4414
H15 H 0.0020 0.1821 0.3757
H16 H -0.0435 0.1891 0.4572
C12 C -0.6329(8) 0.2127(7) 0.3947(5)
C13 C -0.2250(8) 0.1852(5) 0.2789(5)
Mn1_2 Mn -1.0000 0.30736(10) 0.2500
S1C S -0.3985(2) 0.30134(15) 0.14006(14)
S2C S -0.6488(2) 0.14047(14) 0.20007(14)
N1C N -0.1494(6) 0.3993(4) 0.2722(4)
N2C N -0.1867(6) 0.4471(4) 0.2156(4)
N3C N -0.0552(6) 0.3260(4) 0.1298(4)
N4C N -0.0994(6) 0.3965(4) 0.1059(4)
N5C N -0.3440(9) 0.1529(6) 0.0809(5)
N6C N -0.8631(7) 0.2157(5) 0.2345(4)
N6C_2 N 0.1369(7) 0.2157(5) 0.2345(4)
C1C C -0.2437(8) 0.3982(5) 0.3187(5)
C2C C -0.3351(8) 0.4441(5) 0.2911(5)
H1C H -0.4090 0.4527 0.3130
C3C C -0.2966(8) 0.4743(5) 0.2263(5)
C4C C -0.1031(8) 0.4622(5) 0.1558(5)
H2C H -0.1272 0.5092 0.1292
H3C H -0.0243 0.4713 0.1759
C5C C -0.1359(9) 0.3923(6) 0.0349(5)
C6C C -0.1145(9) 0.3173(6) 0.0130(5)
H4C H -0.1303 0.2963 -0.0334
C7C C -0.0650(8) 0.2780(6) 0.0722(5)
C8C C -0.2410(8) 0.3533(6) 0.3889(5)
H5C H -0.2373 0.2979 0.3784
H6C H -0.3116 0.3644 0.4168
H7C H -0.1721 0.3684 0.4170
C9C C -0.3576(8) 0.5273(6) 0.1718(6)
H8C H -0.3043 0.5688 0.1576
H9C H -0.4276 0.5495 0.1940
H10C H -0.3797 0.4973 0.1291
C10C C -0.1870(14) 0.4610(7) -0.0062(6)
H11C H -0.1982 0.4469 -0.0570
H12C H -0.1333 0.5049 -0.0030
H13C H -0.2623 0.4753 0.0151
C11C C -0.0241(10) 0.1954(6) 0.0747(6)
H14C H -0.0872 0.1613 0.0586
H15C H -0.0020 0.1821 0.1243
H16C H 0.0435 0.1891 0.0428
C12C C -0.3671(8) 0.2127(7) 0.1053(5)
C13C C -0.7750(8) 0.1852(5) 0.2211(5)
loop_
_geom_bond_atom_site_label_1
_geom_bond_atom_site_label_2
_geom_bond_site_symmetry_1
_geom_bond_site_symmetry_2
Hg1 S1 1_555 1_555
Mn1 N1 1_555 1_555
S1 C12 1_555 1_555
S2 Hg1 1_555 1_555
N1 N2 1_555 1_555
N2 C3 1_555 1_555
N3 Mn1 1_555 1_555
N4 N3 1_555 1_555
N5 C12 1_555 1_555
N6 Mn1 1_555 1_555
C1 N1 1_555 1_555
C2 C1 1_555 1_555
H1 C2 1_555 1_555
C3 C2 1_555 1_555
C4 N2 1_555 1_555
H2 C4 1_555 1_555
H3 C4 1_555 1_555
C5 N4 1_555 1_555
C6 C5 1_555 1_555
H4 C6 1_555 1_555
C7 N3 1_555 1_555
C8 C1 1_555 1_555
H5 C8 1_555 1_555
H6 C8 1_555 1_555
H7 C8 1_555 1_555
C9 C3 1_555 1_555
H8 C9 1_555 1_555
H9 C9 1_555 1_555
H10 C9 1_555 1_555
C10 C5 1_555 1_555
H11 C10 1_555 1_555
H12 C10 1_555 1_555
H13 C10 1_555 1_555
C11 C7 1_555 1_555
H14 C11 1_555 1_555
H15 C11 1_555 1_555
H16 C11 1_555 1_555
C13 S2 1_555 1_555
Mn1_2 N6C 1_555 1_555
S1C Hg1 1_555 1_555
S2C Hg1 1_555 1_555
N1C Mn1 1_555 1_555
N2C N1C 1_555 1_555
N3C Mn1 1_555 1_555
N4C N3C 1_555 1_555
N5C C12C 1_555 1_555
N6C C13C 1_555 1_555
N6C_2 Mn1 1_555 1_555
C1C N1C 1_555 1_555
C2C C1C 1_555 1_555
H1C C2C 1_555 1_555
C3C N2C 1_555 1_555
C4C N2C 1_555 1_555
H2C C4C 1_555 1_555
H3C C4C 1_555 1_555
C5C N4C 1_555 1_555
C6C C5C 1_555 1_555
H4C C6C 1_555 1_555
C7C N3C 1_555 1_555
C8C C1C 1_555 1_555
H5C C8C 1_555 1_555
H6C C8C 1_555 1_555
H7C C8C 1_555 1_555
C9C C3C 1_555 1_555
H8C C9C 1_555 1_555
H9C C9C 1_555 1_555
H10C C9C 1_555 1_555
C10C C5C 1_555 1_555
H11C C10C 1_555 1_555
H12C C10C 1_555 1_555
H13C C10C 1_555 1_555
C11C C7C 1_555 1_555
H14C C11C 1_555 1_555
H15C C11C 1_555 1_555
H16C C11C 1_555 1_555
C12C S1C 1_555 1_555
C13C S2C 1_555 1_555
N4 C4 1_555 1_555
N6 C13 1_555 1_555
C6 C7 1_555 1_555
N4C C4C 1_555 1_555
C2C C3C 1_555 1_555
C6C C7C 1_555 1_555

#END
