
#######################################################################
#
#                 Cambridge Crystallographic Data Centre
#                                CCDC 
#
#######################################################################
#
# If this CIF has been generated from an entry in the Cambridge 
# Structural Database, then it will include bibliographic, chemical, 
# crystal, experimental, refinement or atomic coordinate data resulting 
# from the CCDC's data processing and validation procedures.
#
#######################################################################

data_EYAGAN
_symmetry_cell_setting           monoclinic
_symmetry_space_group_name_H-M   'P 21/c'
_symmetry_Int_Tables_number      14
_space_group_name_Hall           '-P 2ybc'
loop_
_symmetry_equiv_pos_site_id
_symmetry_equiv_pos_as_xyz
1 x,y,z
2 -x,1/2+y,1/2-z
3 -x,-y,-z
4 x,1/2-y,1/2+z
_cell_length_a                   7.7574(16)
_cell_length_b                   17.574(4)
_cell_length_c                   14.371(3)
_cell_angle_alpha                90
_cell_angle_beta                 98.25(3)
_cell_angle_gamma                90
_cell_volume                     1938.9
loop_
_atom_site_label
_atom_site_type_symbol
_atom_site_fract_x
_atom_site_fract_y
_atom_site_fract_z
Mn1 Mn 0.17810(6) 0.50090(3) 0.72155(4)
Hg1 Hg 0.63193(2) 0.715460(8) 0.575550(11)
S1 S 0.62970(14) 0.70541(6) 0.75396(7)
S2 S 0.52480(13) 0.34000(6) 0.97389(7)
S3 S -0.06579(14) 0.71735(6) 0.53361(8)
S4 S 0.54876(15) 0.39281(7) 0.50029(9)
N1 N 0.3702(4) 0.59444(18) 0.7515(2)
N2 N 0.3405(4) 0.43681(19) 0.8409(2)
N3 N 0.0391(4) 0.5759(2) 0.6119(3)
N4 N 0.3278(4) 0.44021(19) 0.6271(2)
C1 C 0.4753(5) 0.6406(2) 0.7515(2)
C2 C 0.4155(4) 0.3961(2) 0.8947(3)
C3 C -0.0070(5) 0.6336(2) 0.5795(3)
C4 C 0.4138(5) 0.4195(2) 0.5741(3)
N5 N -0.0174(3) 0.40606(17) 0.7084(2)
N6 N -0.1768(3) 0.41072(17) 0.7357(2)
N7 N 0.0089(3) 0.54762(17) 0.8252(2)
N8 N -0.1567(3) 0.52402(17) 0.8279(2)
C5 C 0.0100(5) 0.3315(2) 0.6997(3)
H1 H 0.1104 0.3105 0.6819
C6 C -0.1296(7) 0.2898(2) 0.7205(4)
H2 H -0.1417 0.2371 0.7189
C7 C -0.2463(5) 0.3417(2) 0.7438(3)
H3 H -0.3541 0.3312 0.7619
C8 C -0.2503(4) 0.4843(2) 0.7482(3)
H4 H -0.3711 0.4784 0.7573
H5 H -0.2476 0.5144 0.6918
C9 C -0.2141(5) 0.5473(2) 0.9072(3)
H6 H -0.3233 0.5378 0.9242
C10 C -0.0838(5) 0.5871(2) 0.9575(3)
H7 H -0.0847 0.6107 1.0153
C11 C 0.0516(5) 0.5853(2) 0.9042(3)
H8 H 0.1596 0.6079 0.9222
Hg1A Hg 0.36807(2) 0.215460(8) 0.924450(11)
Hg1_2 Hg -0.36807(2) 0.715460(8) 0.575550(11)
Hg1B Hg 0.36807(2) 0.284540(8) 0.424450(11)
S2A S 0.47520(13) 0.84000(6) 0.52611(7)
S3_2 S 0.93421(14) 0.71735(6) 0.53361(8)
S4B S 0.45124(15) 0.60719(7) 0.49971(9)
loop_
_geom_bond_atom_site_label_1
_geom_bond_atom_site_label_2
_geom_bond_site_symmetry_1
_geom_bond_site_symmetry_2
Mn1 N1 1_555 1_555
Hg1 S1 1_555 1_555
S1 C1 1_555 1_555
S2 C2 1_555 1_555
S3 C3 1_555 1_555
S4 C4 1_555 1_555
N1 C1 1_555 1_555
N2 Mn1 1_555 1_555
N3 Mn1 1_555 1_555
N4 Mn1 1_555 1_555
C2 N2 1_555 1_555
C3 N3 1_555 1_555
C4 N4 1_555 1_555
N5 Mn1 1_555 1_555
N6 N5 1_555 1_555
N7 Mn1 1_555 1_555
N8 N7 1_555 1_555
C5 N5 1_555 1_555
H1 C5 1_555 1_555
C6 C5 1_555 1_555
H2 C6 1_555 1_555
C7 N6 1_555 1_555
H3 C7 1_555 1_555
C8 N6 1_555 1_555
H4 C8 1_555 1_555
H5 C8 1_555 1_555
C9 N8 1_555 1_555
H6 C9 1_555 1_555
C10 C9 1_555 1_555
H7 C10 1_555 1_555
C11 N7 1_555 1_555
H8 C11 1_555 1_555
Hg1A S2 1_555 1_555
Hg1_2 S3 1_555 1_555
Hg1B S4 1_555 1_555
S2A Hg1 1_555 1_555
S3_2 Hg1 1_555 1_555
S4B Hg1 1_555 1_555
N8 C8 1_555 1_555
C6 C7 1_555 1_555
C10 C11 1_555 1_555

#END
