
#######################################################################
#
#                 Cambridge Crystallographic Data Centre
#                                CCDC 
#
#######################################################################
#
# If this CIF has been generated from an entry in the Cambridge 
# Structural Database, then it will include bibliographic, chemical, 
# crystal, experimental, refinement or atomic coordinate data resulting 
# from the CCDC's data processing and validation procedures.
#
#######################################################################

data_EYANEY
_symmetry_cell_setting           orthorhombic
_symmetry_space_group_name_H-M   'P c c a'
_symmetry_Int_Tables_number      54
_space_group_name_Hall           '-P 2a 2ac'
loop_
_symmetry_equiv_pos_site_id
_symmetry_equiv_pos_as_xyz
1 x,y,z
2 1/2-x,-y,z
3 -x,y,1/2-z
4 1/2+x,-y,1/2-z
5 -x,-y,-z
6 1/2+x,y,-z
7 x,-y,1/2+z
8 1/2-x,y,1/2+z
_cell_length_a                   22.567(4)
_cell_length_b                   8.4143(17)
_cell_length_c                   17.268(3)
_cell_angle_alpha                90
_cell_angle_beta                 90
_cell_angle_gamma                90
_cell_volume                     3278.94
loop_
_atom_site_label
_atom_site_type_symbol
_atom_site_fract_x
_atom_site_fract_y
_atom_site_fract_z
Zn1 Zn 0.77656(2) 0.18745(5) 0.57086(3)
Br1 Br 0.56474(2) 0.32900(8) 0.57410(4)
Cl1 Cl 0.58810(9) 0.5617(2) 0.27681(10)
O1 O 0.68894(13) 0.2202(3) 0.54296(17)
N1 N 0.79168(16) 0.1901(4) 0.4544(2)
N2 N 0.87100(16) 0.1171(4) 0.5705(2)
N3 N 0.7500 0.0000 0.6377(3)
N4 N 0.7500 0.0000 0.7070(4)
N5 N 0.7500 0.0000 0.7736(4)
N6 N 0.78284(17) 0.3926(4) 0.6329(2)
N7 N 0.7500 0.5000 0.6308(3)
C1 C 0.7006(2) 0.3194(5) 0.4139(3)
C2 C 0.6686(2) 0.2956(5) 0.4840(3)
C3 C 0.6103(2) 0.3582(5) 0.4834(3)
C4 C 0.5862(3) 0.4375(6) 0.4216(3)
H1 H 0.5478 0.4775 0.4243
C5 C 0.6195(3) 0.4573(6) 0.3551(3)
C6 C 0.6753(3) 0.3992(6) 0.3504(3)
H2 H 0.6969 0.4120 0.3051
C7 C 0.7597(2) 0.2555(5) 0.4027(3)
H3 H 0.7757 0.2629 0.3531
C8 C 0.8487(2) 0.1235(6) 0.4323(3)
H4 H 0.8613 0.1685 0.3833
H5 H 0.8452 0.0093 0.4260
C9 C 0.8936(2) 0.1601(6) 0.4937(3)
H6 H 0.9298 0.1015 0.4834
H7 H 0.9029 0.2726 0.4926
C10 C 0.9100(2) 0.1737(7) 0.6351(3)
H8 H 0.9079 0.2900 0.6358
C11 C 0.8861(2) 0.1156(8) 0.7108(3)
H9 H 0.8469 0.1567 0.7184
H10 H 0.9113 0.1513 0.7521
H11 H 0.8848 0.0016 0.7106
C12 C 0.9745(2) 0.1284(9) 0.6257(4)
H12 H 0.9788 0.0156 0.6322
H13 H 0.9978 0.1826 0.6640
H14 H 0.9879 0.1582 0.5749
H15 H 0.869(2) 0.0118(16) 0.579(3)
Zn1A Zn 0.72344(2) 0.81255(5) 0.57086(3)
Zn1A_2 Zn 0.72344(2) -0.18745(5) 0.57086(3)
Br1A Br 0.93526(2) 0.67100(8) 0.57410(4)
Cl1A Cl 0.91190(9) 0.4383(2) 0.27681(10)
O1A O 0.81106(13) 0.7798(3) 0.54296(17)
N1A N 0.70832(16) 0.8099(4) 0.4544(2)
N2A N 0.62900(16) 0.8829(4) 0.5705(2)
N3_2 N 0.7500 1.0000 0.6377(3)
N6A N 0.71716(17) 0.6074(4) 0.6329(2)
C1A C 0.7994(2) 0.6806(5) 0.4139(3)
C2A C 0.8314(2) 0.7044(5) 0.4840(3)
C3A C 0.8897(2) 0.6418(5) 0.4834(3)
C4A C 0.9138(3) 0.5625(6) 0.4216(3)
H1A H 0.9522 0.5225 0.4243
C5A C 0.8805(3) 0.5427(6) 0.3551(3)
C6A C 0.8247(3) 0.6008(6) 0.3504(3)
H2A H 0.8031 0.5880 0.3051
C7A C 0.7403(2) 0.7445(5) 0.4027(3)
H3A H 0.7243 0.7371 0.3531
C8A C 0.6513(2) 0.8765(6) 0.4323(3)
H4A H 0.6387 0.8315 0.3833
H5A H 0.6548 0.9907 0.4260
C9A C 0.6064(2) 0.8399(6) 0.4937(3)
H6A H 0.5702 0.8985 0.4834
H7A H 0.5971 0.7274 0.4926
C10A C 0.5900(2) 0.8263(7) 0.6351(3)
H8A H 0.5921 0.7100 0.6358
C11A C 0.6139(2) 0.8844(8) 0.7108(3)
H9A H 0.6531 0.8433 0.7184
H10A H 0.5887 0.8487 0.7521
H11A H 0.6152 0.9984 0.7106
C12A C 0.5255(2) 0.8716(9) 0.6257(4)
H12A H 0.5212 0.9844 0.6322
H13A H 0.5022 0.8174 0.6640
H14A H 0.5121 0.8418 0.5749
H15A H 0.631(2) 0.9882(16) 0.579(3)
loop_
_geom_bond_atom_site_label_1
_geom_bond_atom_site_label_2
_geom_bond_site_symmetry_1
_geom_bond_site_symmetry_2
Zn1 O1 1_555 1_555
Br1 C3 1_555 1_555
Cl1 C5 1_555 1_555
O1 C2 1_555 1_555
N1 Zn1 1_555 1_555
N2 Zn1 1_555 1_555
N3 Zn1 1_555 1_555
N4 N3 1_555 1_555
N5 N4 1_555 1_555
N6 Zn1 1_555 1_555
N7 N6 1_555 1_555
C1 C2 1_555 1_555
C2 C3 1_555 1_555
C3 C4 1_555 1_555
C4 H1 1_555 1_555
C5 C4 1_555 1_555
C6 C1 1_555 1_555
H2 C6 1_555 1_555
C7 N1 1_555 1_555
H3 C7 1_555 1_555
C8 N1 1_555 1_555
H4 C8 1_555 1_555
H5 C8 1_555 1_555
C9 N2 1_555 1_555
H6 C9 1_555 1_555
H7 C9 1_555 1_555
C10 N2 1_555 1_555
H8 C10 1_555 1_555
C11 C10 1_555 1_555
H9 C11 1_555 1_555
H10 C11 1_555 1_555
H11 C11 1_555 1_555
C12 C10 1_555 1_555
H12 C12 1_555 1_555
H13 C12 1_555 1_555
H14 C12 1_555 1_555
H15 N2 1_555 1_555
Zn1A O1A 1_555 1_555
Zn1A_2 N3 1_555 1_555
Br1A C3A 1_555 1_555
Cl1A C5A 1_555 1_555
O1A C2A 1_555 1_555
N1A Zn1A 1_555 1_555
N2A Zn1A 1_555 1_555
N3_2 Zn1A 1_555 1_555
N6A N7 1_555 1_555
C1A C2A 1_555 1_555
C2A C3A 1_555 1_555
C3A C4A 1_555 1_555
C4A H1A 1_555 1_555
C5A C4A 1_555 1_555
C6A C1A 1_555 1_555
H2A C6A 1_555 1_555
C7A N1A 1_555 1_555
H3A C7A 1_555 1_555
C8A N1A 1_555 1_555
H4A C8A 1_555 1_555
H5A C8A 1_555 1_555
C9A N2A 1_555 1_555
H6A C9A 1_555 1_555
H7A C9A 1_555 1_555
C10A N2A 1_555 1_555
H8A C10A 1_555 1_555
C11A C10A 1_555 1_555
H9A C11A 1_555 1_555
H10A C11A 1_555 1_555
H11A C11A 1_555 1_555
C12A C10A 1_555 1_555
H12A C12A 1_555 1_555
H13A C12A 1_555 1_555
H14A C12A 1_555 1_555
H15A N2A 1_555 1_555
C1 C7 1_555 1_555
C5 C6 1_555 1_555
C8 C9 1_555 1_555
Zn1A N6A 1_555 1_555
C1A C7A 1_555 1_555
C5A C6A 1_555 1_555
C8A C9A 1_555 1_555

#END
