
#######################################################################
#
#                 Cambridge Crystallographic Data Centre
#                                CCDC 
#
#######################################################################
#
# If this CIF has been generated from an entry in the Cambridge 
# Structural Database, then it will include bibliographic, chemical, 
# crystal, experimental, refinement or atomic coordinate data resulting 
# from the CCDC's data processing and validation procedures.
#
#######################################################################

data_EYANIC
_symmetry_cell_setting           orthorhombic
_symmetry_space_group_name_H-M   'P c c a'
_symmetry_Int_Tables_number      54
_space_group_name_Hall           '-P 2a 2ac'
loop_
_symmetry_equiv_pos_site_id
_symmetry_equiv_pos_as_xyz
1 x,y,z
2 1/2-x,-y,z
3 1/2+x,-y,1/2-z
4 -x,y,1/2-z
5 -x,-y,-z
6 1/2+x,y,-z
7 1/2-x,y,1/2+z
8 x,-y,1/2+z
_cell_length_a                   22.536(4)
_cell_length_b                   8.4090(17)
_cell_length_c                   17.531(3)
_cell_angle_alpha                90
_cell_angle_beta                 90
_cell_angle_gamma                90
_cell_volume                     3322.22
loop_
_atom_site_label
_atom_site_type_symbol
_atom_site_fract_x
_atom_site_fract_y
_atom_site_fract_z
Zn1 Zn 0.27692(3) 0.31336(8) 0.42683(4)
Br1 Br 0.06375(3) 0.17324(11) 0.42772(5)
Br2 Br 0.08951(5) -0.07204(12) 0.72616(5)
O1 O 0.18919(18) 0.2793(5) 0.4553(2)
N1 N 0.2931(2) 0.3123(6) 0.5419(3)
N2 N 0.3714(2) 0.3829(6) 0.4260(3)
N3 N 0.2500 0.5000 0.3617(4)
N4 N 0.2835(3) 0.1072(7) 0.3669(3)
N5 N 0.2500 0.0000 0.3677(4)
C1 C 0.2023(3) 0.1824(8) 0.5829(4)
C2 C 0.1696(3) 0.2054(7) 0.5146(4)
C3 C 0.1113(3) 0.1414(7) 0.5164(4)
C4 C 0.0876(3) 0.0616(8) 0.5775(4)
H1 H 0.0491 0.0222 0.5755
C5 C 0.1221(4) 0.0404(8) 0.6425(4)
C6 C 0.1771(3) 0.1029(8) 0.6459(4)
H2 H 0.1989 0.0934 0.6907
C7 C 0.2608(3) 0.2473(8) 0.5928(4)
H3 H 0.2769 0.2412 0.6416
C8 C 0.3497(3) 0.3797(8) 0.5632(4)
H4 H 0.3624 0.3362 0.6118
H5 H 0.3461 0.4941 0.5686
C9 C 0.3945(3) 0.3411(8) 0.5029(4)
H6 H 0.4308 0.3997 0.5127
H7 H 0.4037 0.2284 0.5047
C10 C 0.4106(3) 0.3255(9) 0.3635(5)
H8 H 0.4087 0.2091 0.3638
C11 C 0.4755(3) 0.3708(11) 0.3707(5)
H9 H 0.4795 0.4841 0.3661
H10 H 0.4979 0.3198 0.3310
H11 H 0.4902 0.3373 0.4195
C12 C 0.3856(3) 0.3801(11) 0.2882(4)
H12 H 0.3472 0.3336 0.2807
H13 H 0.4116 0.3476 0.2477
H14 H 0.3822 0.4939 0.2882
N6 N 0.2500 0.5000 0.2932(5)
N7 N 0.2500 0.5000 0.2278(5)
H15 H 0.373(3) 0.4894(15) 0.429(4)
Zn1A Zn 0.22308(3) -0.31336(8) 0.42683(4)
Zn1A_2 Zn 0.22308(3) 0.68664(8) 0.42683(4)
Br1A Br 0.43625(3) -0.17324(11) 0.42772(5)
Br2A Br 0.41049(5) 0.07204(12) 0.72616(5)
O1A O 0.31081(18) -0.2793(5) 0.4553(2)
N1A N 0.2069(2) -0.3123(6) 0.5419(3)
N2A N 0.1286(2) -0.3829(6) 0.4260(3)
N3_2 N 0.2500 -0.5000 0.3617(4)
N4A N 0.2165(3) -0.1072(7) 0.3669(3)
C1A C 0.2977(3) -0.1824(8) 0.5829(4)
C2A C 0.3304(3) -0.2054(7) 0.5146(4)
C3A C 0.3887(3) -0.1414(7) 0.5164(4)
C4A C 0.4124(3) -0.0616(8) 0.5775(4)
H1A H 0.4509 -0.0222 0.5755
C5A C 0.3779(4) -0.0404(8) 0.6425(4)
C6A C 0.3229(3) -0.1029(8) 0.6459(4)
H2A H 0.3011 -0.0934 0.6907
C7A C 0.2392(3) -0.2473(8) 0.5928(4)
H3A H 0.2231 -0.2412 0.6416
C8A C 0.1503(3) -0.3797(8) 0.5632(4)
H4A H 0.1376 -0.3362 0.6118
H5A H 0.1539 -0.4941 0.5686
C9A C 0.1055(3) -0.3411(8) 0.5029(4)
H6A H 0.0692 -0.3997 0.5127
H7A H 0.0963 -0.2284 0.5047
C10A C 0.0894(3) -0.3255(9) 0.3635(5)
H8A H 0.0913 -0.2091 0.3638
C11A C 0.0245(3) -0.3708(11) 0.3707(5)
H9A H 0.0205 -0.4841 0.3661
H10A H 0.0021 -0.3198 0.3310
H11A H 0.0098 -0.3373 0.4195
C12A C 0.1144(3) -0.3801(11) 0.2882(4)
H12A H 0.1528 -0.3336 0.2807
H13A H 0.0884 -0.3476 0.2477
H14A H 0.1178 -0.4939 0.2882
H15A H 0.127(3) -0.4894(15) 0.429(4)
loop_
_geom_bond_atom_site_label_1
_geom_bond_atom_site_label_2
_geom_bond_site_symmetry_1
_geom_bond_site_symmetry_2
Zn1 O1 1_555 1_555
Br1 C3 1_555 1_555
Br2 C5 1_555 1_555
O1 C2 1_555 1_555
N1 Zn1 1_555 1_555
N2 Zn1 1_555 1_555
N3 Zn1 1_555 1_555
N4 Zn1 1_555 1_555
N5 N4 1_555 1_555
C1 C2 1_555 1_555
C2 C3 1_555 1_555
C3 C4 1_555 1_555
C4 H1 1_555 1_555
C5 C4 1_555 1_555
C6 C1 1_555 1_555
H2 C6 1_555 1_555
C7 N1 1_555 1_555
H3 C7 1_555 1_555
C8 N1 1_555 1_555
H4 C8 1_555 1_555
H5 C8 1_555 1_555
C9 N2 1_555 1_555
H6 C9 1_555 1_555
H7 C9 1_555 1_555
C10 N2 1_555 1_555
H8 C10 1_555 1_555
C11 C10 1_555 1_555
H9 C11 1_555 1_555
H10 C11 1_555 1_555
H11 C11 1_555 1_555
C12 C10 1_555 1_555
H12 C12 1_555 1_555
H13 C12 1_555 1_555
H14 C12 1_555 1_555
N6 N3 1_555 1_555
N7 N6 1_555 1_555
H15 N2 1_555 1_555
Zn1A O1A 1_555 1_555
Zn1A_2 N3 1_555 1_555
Br1A C3A 1_555 1_555
Br2A C5A 1_555 1_555
O1A C2A 1_555 1_555
N1A Zn1A 1_555 1_555
N2A Zn1A 1_555 1_555
N3_2 Zn1A 1_555 1_555
N4A N5 1_555 1_555
C1A C2A 1_555 1_555
C2A C3A 1_555 1_555
C3A C4A 1_555 1_555
C4A H1A 1_555 1_555
C5A C4A 1_555 1_555
C6A C1A 1_555 1_555
H2A C6A 1_555 1_555
C7A N1A 1_555 1_555
H3A C7A 1_555 1_555
C8A N1A 1_555 1_555
H4A C8A 1_555 1_555
H5A C8A 1_555 1_555
C9A N2A 1_555 1_555
H6A C9A 1_555 1_555
H7A C9A 1_555 1_555
C10A N2A 1_555 1_555
H8A C10A 1_555 1_555
C11A C10A 1_555 1_555
H9A C11A 1_555 1_555
H10A C11A 1_555 1_555
H11A C11A 1_555 1_555
C12A C10A 1_555 1_555
H12A C12A 1_555 1_555
H13A C12A 1_555 1_555
H14A C12A 1_555 1_555
H15A N2A 1_555 1_555
C1 C7 1_555 1_555
C5 C6 1_555 1_555
C8 C9 1_555 1_555
Zn1A N4A 1_555 1_555
C1A C7A 1_555 1_555
C5A C6A 1_555 1_555
C8A C9A 1_555 1_555

#END
