
#######################################################################
#
#                 Cambridge Crystallographic Data Centre
#                                CCDC 
#
#######################################################################
#
# If this CIF has been generated from an entry in the Cambridge 
# Structural Database, then it will include bibliographic, chemical, 
# crystal, experimental, refinement or atomic coordinate data resulting 
# from the CCDC's data processing and validation procedures.
#
#######################################################################

data_EYAQUQ
_symmetry_cell_setting           monoclinic
_symmetry_space_group_name_H-M   'C 2/c'
_symmetry_Int_Tables_number      15
_space_group_name_Hall           '-C 2yn'
loop_
_symmetry_equiv_pos_site_id
_symmetry_equiv_pos_as_xyz
1 x,y,z
2 1/2+x,1/2+y,z
3 x,-y,1/2+z
4 1/2+x,1/2-y,1/2+z
5 -x,-y,-z
6 1/2-x,1/2-y,-z
7 -x,y,1/2-z
8 1/2-x,1/2+y,1/2-z
_cell_length_a                   36.2556(5)
_cell_length_b                   10.50380(10)
_cell_length_c                   21.4214(3)
_cell_angle_alpha                90
_cell_angle_beta                 114.9280(10)
_cell_angle_gamma                90
_cell_volume                     7397.74
loop_
_atom_site_label
_atom_site_type_symbol
_atom_site_fract_x
_atom_site_fract_y
_atom_site_fract_z
Zn1 Zn 0.0000 0.0000 0.0000
Zn2 Zn -0.08063(2) 0.15437(6) -0.02433(4)
Zn3 Zn 0.00467(2) 0.19070(8) 0.12516(4)
Zn4 Zn -0.23033(2) 0.40637(6) -0.39544(4)
O1 O -0.26838(14) 0.4098(5) -0.4993(3)
H1 H -0.2812 0.3407 -0.5106
H2 H -0.263(3) 0.405(8) -0.536(4)
O2 O -0.01998(11) 0.1718(4) 0.0253(2)
O3 O -0.08786(13) -0.1004(4) -0.4316(2)
O4 O -0.02812(13) -0.0954(4) -0.3388(2)
O5 O -0.03367(13) 0.0031(4) -0.1136(2)
O6 O -0.06986(15) 0.1763(4) -0.1169(2)
O7 O -0.17704(13) 0.3291(4) -0.3247(2)
O8 O -0.18139(15) 0.2782(4) -0.4282(2)
O9 O -0.04781(12) -0.1090(4) 0.0068(2)
O10 O -0.10634(13) -0.0106(4) -0.0605(2)
O11 O -0.23436(13) -0.2276(4) -0.1187(3)
O12 O -0.23587(14) -0.4324(4) -0.0936(3)
O13 O -0.10946(13) -0.6855(4) -0.0403(2)
O14 O -0.05172(14) -0.5866(4) -0.0274(3)
N1 N 0.06029(17) 0.2817(5) 0.1712(3)
N2 N -0.01265(19) 0.3767(6) 0.1441(3)
N3 N -0.25358(16) 0.5449(5) -0.3474(3)
N4 N -0.20592(15) 0.5819(5) -0.4115(3)
C1 C -0.06535(18) -0.0624(6) -0.3728(3)
C2 C -0.05869(19) 0.0921(5) -0.1453(3)
C3 C -0.16462(18) 0.2683(6) -0.3633(3)
C4 C -0.08116(17) 0.0238(6) -0.3337(3)
C5 C -0.06204(18) 0.0228(6) -0.2625(3)
H3 H -0.0384 -0.0280 -0.2399
C6 C -0.07684(17) 0.0953(5) -0.2236(3)
C7 C -0.11079(18) 0.1733(6) -0.2577(3)
H4 H -0.1213 0.2232 -0.2318
C8 C -0.12930(18) 0.1782(6) -0.3293(3)
C9 C -0.11495(18) 0.1023(5) -0.3677(3)
H5 H -0.1280 0.1038 -0.4166
C10 C -0.0853(2) -0.1087(6) -0.0311(3)
C11 C -0.2180(2) -0.3356(6) -0.0987(4)
C12 C -0.08805(19) -0.5861(5) -0.0390(3)
C13 C -0.10849(18) -0.2317(5) -0.0445(3)
C14 C -0.15088(18) -0.2302(6) -0.0682(3)
H6 H -0.1647 -0.1509 -0.0761
C15 C -0.17312(18) -0.3423(5) -0.0804(3)
C16 C -0.15269(19) -0.4580(6) -0.0709(3)
H7 H -0.1675 -0.5356 -0.0789
C17 C -0.11066(18) -0.4608(5) -0.0497(3)
C18 C -0.08880(19) -0.3478(6) -0.0358(3)
H8 H -0.0601 -0.3500 -0.0201
C19 C 0.0973(2) 0.2260(7) 0.1900(4)
H9 H 0.0986 0.1371 0.1830
C20 C 0.1331(2) 0.2948(9) 0.2192(4)
H10 H 0.1586 0.2535 0.2324
C21 C 0.1313(3) 0.4226(9) 0.2287(5)
H11 H 0.1556 0.4711 0.2493
C22 C 0.0943(3) 0.4804(9) 0.2082(5)
H12 H 0.0928 0.5699 0.2131
C23 C 0.0585(2) 0.4087(7) 0.1800(4)
C24 C 0.0174(3) 0.4641(7) 0.1599(4)
C25 C 0.0096(3) 0.5924(8) 0.1596(6)
H13 H 0.0309 0.6525 0.1693
C26 C -0.0289(4) 0.6324(10) 0.1454(6)
H14 H -0.0348 0.7207 0.1444
C27 C -0.0592(3) 0.5429(10) 0.1323(5)
H15 H -0.0858 0.5684 0.1248
C28 C -0.0501(3) 0.4168(9) 0.1303(4)
H16 H -0.0713 0.3558 0.1188
C29 C -0.2760(2) 0.5182(7) -0.3128(4)
H17 H -0.2804 0.4318 -0.3047
C30 C -0.2930(3) 0.6132(8) -0.2883(5)
H18 H -0.3089 0.5918 -0.2641
C31 C -0.2869(3) 0.7369(8) -0.2994(5)
H19 H -0.2983 0.8029 -0.2828
C32 C -0.2633(2) 0.7669(7) -0.3358(4)
H20 H -0.2591 0.8529 -0.3448
C33 C -0.24660(19) 0.6681(6) -0.3580(3)
C34 C -0.2195(2) 0.6896(6) -0.3939(4)
C35 C -0.2092(2) 0.8084(6) -0.4081(4)
H21 H -0.2202 0.8827 -0.3969
C36 C -0.1824(2) 0.8181(7) -0.4393(4)
H22 H -0.1735 0.8990 -0.4473
C37 C -0.1689(2) 0.7074(7) -0.4585(4)
H23 H -0.1516 0.7114 -0.4817
C38 C -0.1809(2) 0.5924(6) -0.4433(4)
H24 H -0.1713 0.5168 -0.4558
O2D O 0.01998(11) -0.1718(4) -0.0253(2)
O3D O 0.08786(13) 0.1004(4) 0.4316(2)
O4D O 0.02812(13) 0.0954(4) 0.3388(2)
O5D O 0.03367(13) -0.0031(4) 0.1136(2)
O6D O 0.06986(15) -0.1763(4) 0.1169(2)
O7D O 0.17704(13) -0.3291(4) 0.3247(2)
O8D O 0.18139(15) -0.2782(4) 0.4282(2)
C1D C 0.06535(18) 0.0624(6) 0.3728(3)
C2D C 0.05869(19) -0.0921(5) 0.1453(3)
C3D C 0.16462(18) -0.2683(6) 0.3633(3)
C4D C 0.08116(17) -0.0238(6) 0.3337(3)
C5D C 0.06204(18) -0.0228(6) 0.2625(3)
H3D H 0.0384 0.0280 0.2399
C6D C 0.07684(17) -0.0953(5) 0.2236(3)
C7D C 0.11079(18) -0.1733(6) 0.2577(3)
H4D H 0.1213 -0.2232 0.2318
C8D C 0.12930(18) -0.1782(6) 0.3293(3)
C9D C 0.11495(18) -0.1023(5) 0.3677(3)
H5D H 0.1280 -0.1038 0.4166
O9D O 0.04781(12) 0.1090(4) -0.0068(2)
O10D O 0.10634(13) 0.0106(4) 0.0605(2)
O11D O 0.23436(13) 0.2276(4) 0.1187(3)
O12D O 0.23587(14) 0.4324(4) 0.0936(3)
O13D O 0.10946(13) 0.6855(4) 0.0403(2)
O14D O 0.05172(14) 0.5866(4) 0.0274(3)
C10D C 0.0853(2) 0.1087(6) 0.0311(3)
C11D C 0.2180(2) 0.3356(6) 0.0987(4)
C12D C 0.08805(19) 0.5861(5) 0.0390(3)
C13D C 0.10849(18) 0.2317(5) 0.0445(3)
C14D C 0.15088(18) 0.2302(6) 0.0682(3)
H6D H 0.1647 0.1509 0.0761
C15D C 0.17312(18) 0.3423(5) 0.0804(3)
C16D C 0.15269(19) 0.4580(6) 0.0709(3)
H7D H 0.1675 0.5356 0.0789
C17D C 0.11066(18) 0.4608(5) 0.0497(3)
C18D C 0.08880(19) 0.3478(6) 0.0358(3)
H8D H 0.0601 0.3500 0.0201
Zn2D Zn 0.08063(2) -0.15437(6) 0.02433(4)
Zn3D Zn -0.00467(2) -0.19070(8) -0.12516(4)
Zn4D Zn 0.23033(2) -0.40637(6) 0.39544(4)
N1D N -0.06029(17) -0.2817(5) -0.1712(3)
N2D N 0.01265(19) -0.3767(6) -0.1441(3)
C19D C -0.0973(2) -0.2260(7) -0.1900(4)
H9D H -0.0986 -0.1371 -0.1830
C20D C -0.1331(2) -0.2948(9) -0.2192(4)
H10D H -0.1586 -0.2535 -0.2324
C21D C -0.1313(3) -0.4226(9) -0.2287(5)
H11D H -0.1556 -0.4711 -0.2493
C22D C -0.0943(3) -0.4804(9) -0.2082(5)
H12D H -0.0928 -0.5699 -0.2131
C23D C -0.0585(2) -0.4087(7) -0.1800(4)
C24D C -0.0174(3) -0.4641(7) -0.1599(4)
C25D C -0.0096(3) -0.5924(8) -0.1596(6)
H13D H -0.0309 -0.6525 -0.1693
C26D C 0.0289(4) -0.6324(10) -0.1454(6)
H14D H 0.0348 -0.7207 -0.1444
C27D C 0.0592(3) -0.5429(10) -0.1323(5)
H15D H 0.0858 -0.5684 -0.1248
C28D C 0.0501(3) -0.4168(9) -0.1303(4)
H16D H 0.0713 -0.3558 -0.1188
O1D O 0.26838(14) -0.4098(5) 0.4993(3)
H1D H 0.2812 -0.3407 0.5106
H2D H 0.263(3) -0.405(8) 0.536(4)
N3D N 0.25358(16) -0.5449(5) 0.3474(3)
N4D N 0.20592(15) -0.5819(5) 0.4115(3)
C29D C 0.2760(2) -0.5182(7) 0.3128(4)
H17D H 0.2804 -0.4318 0.3047
C30D C 0.2930(3) -0.6132(8) 0.2883(5)
H18D H 0.3089 -0.5918 0.2641
C31D C 0.2869(3) -0.7369(8) 0.2994(5)
H19D H 0.2983 -0.8029 0.2828
C32D C 0.2633(2) -0.7669(7) 0.3358(4)
H20D H 0.2591 -0.8529 0.3448
C33D C 0.24660(19) -0.6681(6) 0.3580(3)
C34D C 0.2195(2) -0.6896(6) 0.3939(4)
C35D C 0.2092(2) -0.8084(6) 0.4081(4)
H21D H 0.2202 -0.8827 0.3969
C36D C 0.1824(2) -0.8181(7) 0.4393(4)
H22D H 0.1735 -0.8990 0.4473
C37D C 0.1689(2) -0.7074(7) 0.4585(4)
H23D H 0.1516 -0.7114 0.4817
C38D C 0.1809(2) -0.5924(6) 0.4433(4)
H24D H 0.1713 -0.5168 0.4558
O3B O -0.08786(13) 0.1004(4) 0.0684(2)
O13_2 O -0.10946(13) 0.3145(4) -0.0403(2)
O4B O -0.02812(13) 0.0954(4) 0.1612(2)
O11G O -0.26564(13) 0.2724(4) -0.3813(3)
Zn2B Zn -0.08063(2) -0.15437(6) -0.52433(4)
Zn3B Zn 0.00467(2) -0.19070(8) -0.37484(4)
Zn4G Zn -0.26967(2) -0.09363(6) -0.10456(4)
Zn2_2 Zn -0.08063(2) -0.84563(6) -0.02433(4)
Zn2F Zn 0.08063(2) 0.15437(6) 0.52433(4)
Zn3F Zn -0.00467(2) 0.19070(8) 0.37484(4)
Zn4C Zn 0.26967(2) 0.09363(6) 0.10456(4)
Zn2D_2 Zn 0.08063(2) 0.84563(6) 0.02433(4)
O3F O 0.08786(13) -0.1004(4) -0.0684(2)
O13D_2 O 0.10946(13) -0.3145(4) 0.0403(2)
O4F O 0.02812(13) -0.0954(4) -0.1612(2)
O11C O 0.26564(13) -0.2724(4) 0.3813(3)
loop_
_geom_bond_atom_site_label_1
_geom_bond_atom_site_label_2
_geom_bond_site_symmetry_1
_geom_bond_site_symmetry_2
Zn1 O2 1_555 1_555
Zn2 O2 1_555 1_555
Zn3 O2 1_555 1_555
Zn4 O1 1_555 1_555
O1 H1 1_555 1_555
H2 O1 1_555 1_555
O3 C1 1_555 1_555
O4 C1 1_555 1_555
O5 Zn1 1_555 1_555
O6 Zn2 1_555 1_555
O7 Zn4 1_555 1_555
O8 C3 1_555 1_555
O9 Zn1 1_555 1_555
O10 Zn2 1_555 1_555
O11 C11 1_555 1_555
O12 C11 1_555 1_555
O13 C12 1_555 1_555
O14 C12 1_555 1_555
N1 Zn3 1_555 1_555
N2 Zn3 1_555 1_555
N3 Zn4 1_555 1_555
N4 Zn4 1_555 1_555
C1 C4 1_555 1_555
C2 O5 1_555 1_555
C3 O7 1_555 1_555
C4 C5 1_555 1_555
C5 H3 1_555 1_555
C6 C2 1_555 1_555
C7 C6 1_555 1_555
H4 C7 1_555 1_555
C8 C3 1_555 1_555
C9 C4 1_555 1_555
H5 C9 1_555 1_555
C10 O9 1_555 1_555
C11 C15 1_555 1_555
C12 C17 1_555 1_555
C13 C10 1_555 1_555
C14 C13 1_555 1_555
H6 C14 1_555 1_555
C15 C14 1_555 1_555
C16 C15 1_555 1_555
H7 C16 1_555 1_555
C17 C16 1_555 1_555
C18 C13 1_555 1_555
H8 C18 1_555 1_555
C19 N1 1_555 1_555
H9 C19 1_555 1_555
C20 C19 1_555 1_555
H10 C20 1_555 1_555
C21 C20 1_555 1_555
H11 C21 1_555 1_555
C22 C21 1_555 1_555
H12 C22 1_555 1_555
C23 N1 1_555 1_555
C24 N2 1_555 1_555
C25 C24 1_555 1_555
H13 C25 1_555 1_555
C26 C25 1_555 1_555
H14 C26 1_555 1_555
C27 C26 1_555 1_555
H15 C27 1_555 1_555
C28 N2 1_555 1_555
H16 C28 1_555 1_555
C29 N3 1_555 1_555
H17 C29 1_555 1_555
C30 C29 1_555 1_555
H18 C30 1_555 1_555
C31 C30 1_555 1_555
H19 C31 1_555 1_555
C32 C31 1_555 1_555
H20 C32 1_555 1_555
C33 N3 1_555 1_555
C34 N4 1_555 1_555
C35 C34 1_555 1_555
H21 C35 1_555 1_555
C36 C35 1_555 1_555
H22 C36 1_555 1_555
C37 C36 1_555 1_555
H23 C37 1_555 1_555
C38 N4 1_555 1_555
H24 C38 1_555 1_555
O2D Zn1 1_555 1_555
O3D C1D 1_555 1_555
O4D C1D 1_555 1_555
O5D Zn1 1_555 1_555
O6D C2D 1_555 1_555
O7D C3D 1_555 1_555
O8D C3D 1_555 1_555
C1D C4D 1_555 1_555
C2D O5D 1_555 1_555
C3D C8D 1_555 1_555
C4D C5D 1_555 1_555
C5D H3D 1_555 1_555
C6D C2D 1_555 1_555
C7D C6D 1_555 1_555
H4D C7D 1_555 1_555
C8D C7D 1_555 1_555
C9D C4D 1_555 1_555
H5D C9D 1_555 1_555
O9D Zn1 1_555 1_555
O10D C10D 1_555 1_555
O11D C11D 1_555 1_555
O12D C11D 1_555 1_555
O13D C12D 1_555 1_555
O14D C12D 1_555 1_555
C10D O9D 1_555 1_555
C11D C15D 1_555 1_555
C12D C17D 1_555 1_555
C13D C10D 1_555 1_555
C14D C13D 1_555 1_555
H6D C14D 1_555 1_555
C15D C14D 1_555 1_555
C16D C15D 1_555 1_555
H7D C16D 1_555 1_555
C17D C16D 1_555 1_555
C18D C13D 1_555 1_555
H8D C18D 1_555 1_555
Zn2D O2D 1_555 1_555
Zn3D O5 1_555 1_555
Zn4D O7D 1_555 1_555
N1D Zn3D 1_555 1_555
N2D Zn3D 1_555 1_555
C19D N1D 1_555 1_555
H9D C19D 1_555 1_555
C20D C19D 1_555 1_555
H10D C20D 1_555 1_555
C21D C20D 1_555 1_555
H11D C21D 1_555 1_555
C22D C21D 1_555 1_555
H12D C22D 1_555 1_555
C23D N1D 1_555 1_555
C24D N2D 1_555 1_555
C25D C24D 1_555 1_555
H13D C25D 1_555 1_555
C26D C25D 1_555 1_555
H14D C26D 1_555 1_555
C27D C26D 1_555 1_555
H15D C27D 1_555 1_555
C28D N2D 1_555 1_555
H16D C28D 1_555 1_555
O1D Zn4D 1_555 1_555
H1D O1D 1_555 1_555
H2D O1D 1_555 1_555
N3D Zn4D 1_555 1_555
N4D Zn4D 1_555 1_555
C29D N3D 1_555 1_555
H17D C29D 1_555 1_555
C30D C29D 1_555 1_555
H18D C30D 1_555 1_555
C31D C30D 1_555 1_555
H19D C31D 1_555 1_555
C32D C31D 1_555 1_555
H20D C32D 1_555 1_555
C33D N3D 1_555 1_555
C34D N4D 1_555 1_555
C35D C34D 1_555 1_555
H21D C35D 1_555 1_555
C36D C35D 1_555 1_555
H22D C36D 1_555 1_555
C37D C36D 1_555 1_555
H23D C37D 1_555 1_555
C38D N4D 1_555 1_555
H24D C38D 1_555 1_555
O3B Zn2 1_555 1_555
O13_2 Zn2 1_555 1_555
O4B Zn3 1_555 1_555
O11G Zn4 1_555 1_555
Zn2B O3 1_555 1_555
Zn3B O4 1_555 1_555
Zn4G O11 1_555 1_555
Zn2_2 O13 1_555 1_555
Zn2F O3D 1_555 1_555
Zn3F O4D 1_555 1_555
Zn4C O11D 1_555 1_555
Zn2D_2 O13D 1_555 1_555
O3F Zn2D 1_555 1_555
O13D_2 Zn2D 1_555 1_555
O4F Zn3D 1_555 1_555
O11C Zn4D 1_555 1_555
Zn3 O5D 1_555 1_555
O6 C2 1_555 1_555
O10 C10 1_555 1_555
C5 C6 1_555 1_555
C7 C8 1_555 1_555
C8 C9 1_555 1_555
C17 C18 1_555 1_555
C22 C23 1_555 1_555
C23 C24 1_555 1_555
C27 C28 1_555 1_555
C32 C33 1_555 1_555
C33 C34 1_555 1_555
C37 C38 1_555 1_555
O2D Zn3D 1_555 1_555
O6D Zn2D 1_555 1_555
C5D C6D 1_555 1_555
C8D C9D 1_555 1_555
O10D Zn2D 1_555 1_555
C17D C18D 1_555 1_555
C22D C23D 1_555 1_555
C23D C24D 1_555 1_555
C27D C28D 1_555 1_555
C32D C33D 1_555 1_555
C33D C34D 1_555 1_555
C37D C38D 1_555 1_555

#END
