
#######################################################################
#
#                 Cambridge Crystallographic Data Centre
#                                CCDC 
#
#######################################################################
#
# If this CIF has been generated from an entry in the Cambridge 
# Structural Database, then it will include bibliographic, chemical, 
# crystal, experimental, refinement or atomic coordinate data resulting 
# from the CCDC's data processing and validation procedures.
#
#######################################################################

data_EYAQAW
_symmetry_cell_setting           triclinic
_symmetry_space_group_name_H-M   'P -1'
_symmetry_Int_Tables_number      2
_space_group_name_Hall           '-P 1'
loop_
_symmetry_equiv_pos_site_id
_symmetry_equiv_pos_as_xyz
1 x,y,z
2 -x,-y,-z
_cell_length_a                   8.321(3)
_cell_length_b                   13.926(5)
_cell_length_c                   14.229(5)
_cell_angle_alpha                70.801(7)
_cell_angle_beta                 77.216(7)
_cell_angle_gamma                81.299(7)
_cell_volume                     1513
loop_
_atom_site_label
_atom_site_type_symbol
_atom_site_fract_x
_atom_site_fract_y
_atom_site_fract_z
Ag1 Ag 0.24407(15) 0.13833(7) 0.94552(8)
Ag2 Ag 0.64138(14) -0.88979(7) 1.42896(10)
N1 N 0.2131(14) -0.0144(7) 1.0396(8)
N2 N 0.0278(12) -0.3343(6) 1.3202(8)
N3 N 0.0655(12) -0.4364(6) 1.3738(7)
N4 N 0.4893(12) -0.7464(7) 1.3984(8)
N5 N 0.2708(14) 0.2893(7) 0.8406(8)
N6 N 0.3265(11) 0.5906(6) 0.5202(7)
N7 N 0.2631(12) 0.6870(6) 0.4658(7)
N8 N -0.1869(13) 0.9798(7) 0.4662(9)
O1 O 0.2667(9) -0.3870(5) 1.2415(5)
O2 O 0.1194(8) 0.6431(5) 0.6219(5)
C1 C 0.3211(16) -0.0942(8) 1.0311(9)
H1 H 0.4114 -0.0833 0.9781
C2 C 0.3053(15) -0.1906(8) 1.0961(10)
H2 H 0.3870 -0.2427 1.0894
C3 C 0.1689(15) -0.2105(7) 1.1714(9)
C4 C 0.0526(14) -0.1296(8) 1.1778(8)
H3 H -0.0430 -0.1396 1.2270
C5 C 0.0797(17) -0.0346(8) 1.1110(10)
H4 H -0.0001 0.0189 1.1161
C6 C 0.1455(16) -0.3090(8) 1.2466(9)
C7 C 0.2031(14) -0.4632(7) 1.3255(8)
C8 C 0.3732(15) -0.7191(8) 1.4687(10)
H5 H 0.3560 -0.7632 1.5346
C9 C 0.2787(13) -0.6275(7) 1.4461(9)
H6 H 0.1993 -0.6100 1.4964
C10 C 0.3014(14) -0.5620(7) 1.3497(9)
C11 C 0.4218(15) -0.5902(9) 1.2781(10)
H7 H 0.4424 -0.5463 1.2123
C12 C 0.5113(15) -0.6825(9) 1.3036(10)
H8 H 0.5896 -0.7016 1.2538
C13 C 0.3688(15) 0.3036(8) 0.7498(9)
H9 H 0.4417 0.2500 0.7366
C14 C 0.3637(14) 0.3950(7) 0.6764(9)
H10 H 0.4352 0.4042 0.6144
C15 C 0.2525(14) 0.4743(7) 0.6936(8)
C16 C 0.1569(16) 0.4609(8) 0.7884(9)
H11 H 0.0857 0.5143 0.8034
C17 C 0.1682(15) 0.3682(9) 0.8596(9)
H12 H 0.1031 0.3590 0.9236
C18 C 0.2405(14) 0.5685(7) 0.6099(9)
C19 C 0.1444(14) 0.7156(7) 0.5283(9)
C20 C -0.1958(15) 0.9118(8) 0.5594(10)
H13 H -0.2787 0.9239 0.6110
C21 C -0.0909(14) 0.8271(8) 0.5819(9)
H14 H -0.1037 0.7823 0.6475
C22 C 0.0322(14) 0.8070(7) 0.5102(9)
C23 C 0.0479(15) 0.8758(8) 0.4151(9)
H15 H 0.1336 0.8660 0.3638
C24 C -0.0646(16) 0.9593(8) 0.3965(10)
H16 H -0.0545 1.0043 0.3310
N8_2 N 0.8131(13) -1.0202(7) 1.4662(9)
Ag2_2 Ag -0.35862(14) 1.11021(7) 0.42896(10)
B1 B 0.4586(16) 0.0285(8) 0.7302(10)
F1 F 0.4655(14) -0.0702(7) 0.7381(8)
F2 F 0.5441(16) 0.0441(8) 0.7886(9)
F3 F 0.5155(16) 0.0792(7) 0.6357(7)
F4 F 0.3051(12) 0.0657(9) 0.7550(12)
B2 B 0.944(2) 0.2542(11) 0.1400(11)
F5 F 0.8869(14) 0.1968(8) 0.2309(8)
F6 F 0.975(2) 0.2109(11) 0.0683(10)
F8 F 0.831(3) 0.3361(12) 0.1135(13)
F10 F 1.081(3) 0.294(2) 0.1432(18)
C25 C 0.428(5) 0.588(3) 0.007(3)
H17 H 0.5224 0.5490 -0.0189
H18 H 0.4495 0.6039 0.0634
H19 H 0.4053 0.6497 -0.0451
O4 O 0.244(6) 0.511(4) 0.050(4)
H22 H 0.1592 0.4771 0.0719
O3 O 0.635(4) 0.775(2) 0.898(2)
H20 H 0.6360 0.6867 0.9121
H21 H 0.7345 0.7836 0.8661
F7? F 1.104(4) 0.210(2) 0.113(2)
F9? F 0.882(5) 0.228(2) 0.0718(16)
F11? F 0.918(5) 0.3510(12) 0.1260(18)
loop_
_geom_bond_atom_site_label_1
_geom_bond_atom_site_label_2
_geom_bond_site_symmetry_1
_geom_bond_site_symmetry_2
Ag1 N1 1_555 1_555
Ag2 N4 1_555 1_555
N1 C1 1_555 1_555
N2 N3 1_555 1_555
N3 C7 1_555 1_555
N4 C8 1_555 1_555
N5 Ag1 1_555 1_555
N6 N7 1_555 1_555
N7 C19 1_555 1_555
N8 C20 1_555 1_555
O1 C6 1_555 1_555
O2 C18 1_555 1_555
C1 H1 1_555 1_555
C2 C1 1_555 1_555
H2 C2 1_555 1_555
C3 C2 1_555 1_555
C4 C3 1_555 1_555
H3 C4 1_555 1_555
C5 N1 1_555 1_555
H4 C5 1_555 1_555
C6 N2 1_555 1_555
C7 O1 1_555 1_555
C8 H5 1_555 1_555
C9 C8 1_555 1_555
H6 C9 1_555 1_555
C10 C7 1_555 1_555
C11 C10 1_555 1_555
H7 C11 1_555 1_555
C12 N4 1_555 1_555
H8 C12 1_555 1_555
C13 N5 1_555 1_555
H9 C13 1_555 1_555
C14 C13 1_555 1_555
H10 C14 1_555 1_555
C15 C14 1_555 1_555
C16 C15 1_555 1_555
H11 C16 1_555 1_555
C17 N5 1_555 1_555
H12 C17 1_555 1_555
C18 N6 1_555 1_555
C19 O2 1_555 1_555
C20 H13 1_555 1_555
C21 C20 1_555 1_555
H14 C21 1_555 1_555
C22 C19 1_555 1_555
C23 C22 1_555 1_555
H15 C23 1_555 1_555
C24 N8 1_555 1_555
H16 C24 1_555 1_555
B1 F1 1_555 1_555
F2 B1 1_555 1_555
F3 B1 1_555 1_555
F4 B1 1_555 1_555
B2 F5 1_555 1_555
F6 B2 1_555 1_555
F8 B2 1_555 1_555
F10 B2 1_555 1_555
C25 H17 1_555 1_555
H18 C25 1_555 1_555
H19 C25 1_555 1_555
O3 H20 1_555 1_555
H21 O3 1_555 1_555
O4 C25 1_555 1_555
H22 O4 1_555 1_555
N8_2 Ag2 1_555 1_555
Ag2_2 N8 1_555 1_555
C3 C6 1_555 1_555
C4 C5 1_555 1_555
C9 C10 1_555 1_555
C11 C12 1_555 1_555
C15 C18 1_555 1_555
C16 C17 1_555 1_555
C21 C22 1_555 1_555
C23 C24 1_555 1_555

#END
