
#######################################################################
#
#                 Cambridge Crystallographic Data Centre
#                                CCDC 
#
#######################################################################
#
# If this CIF has been generated from an entry in the Cambridge 
# Structural Database, then it will include bibliographic, chemical, 
# crystal, experimental, refinement or atomic coordinate data resulting 
# from the CCDC's data processing and validation procedures.
#
#######################################################################

data_EYAROL
_symmetry_cell_setting           triclinic
_symmetry_space_group_name_H-M   'P -1'
_symmetry_Int_Tables_number      2
_space_group_name_Hall           '-P 1'
loop_
_symmetry_equiv_pos_site_id
_symmetry_equiv_pos_as_xyz
1 x,y,z
2 -x,-y,-z
_cell_length_a                   12.535(3)
_cell_length_b                   14.796(3)
_cell_length_c                   10.381(2)
_cell_angle_alpha                100.24(3)
_cell_angle_beta                 101.15(3)
_cell_angle_gamma                78.40(3)
_cell_volume                     1830.99
loop_
_atom_site_label
_atom_site_type_symbol
_atom_site_fract_x
_atom_site_fract_y
_atom_site_fract_z
Zn1 Zn 0.14481(4) 0.31078(3) 0.97870(5)
Fe1 Fe -0.21134(6) 0.14762(5) 0.94647(7)
Fe2 Fe 0.40996(6) 0.26839(4) 1.44770(6)
N1 N 0.1442(3) 0.4235(2) 0.8921(3)
N2 N 0.0905(3) 0.5307(2) 0.7550(3)
N3 N 0.1640(3) 0.2077(2) 0.8173(3)
N4 N 0.1255(3) 0.1276(2) 0.6153(3)
O1 O 0.0448(3) 0.2651(3) 1.0728(3)
O2 O -0.0665(3) 0.3367(2) 0.9169(4)
O3 O 0.2876(3) 0.2894(2) 1.0993(3)
O4 O 0.2147(3) 0.4206(2) 1.2164(3)
C1 C -0.1203(10) 0.0861(9) 0.8042(11)
H1 H -0.0493 0.0995 0.7938
C2 C -0.1368(9) 0.0209(7) 0.8736(8)
H2 H -0.0779 -0.0191 0.9245
C3 C -0.2442(9) 0.0194(5) 0.8620(7)
H3 H -0.2765 -0.0214 0.9026
C4 C -0.3006(7) 0.0829(6) 0.7862(8)
H4 H -0.3812 0.0961 0.7624
C5 C -0.2272(13) 0.1282(5) 0.7473(6)
H5 H -0.2453 0.1764 0.6889
C6 C -0.1351(5) 0.1899(4) 1.1340(5)
H6 H -0.0665 0.1576 1.1809
C7 C -0.2435(6) 0.1770(5) 1.1372(6)
H7 H -0.2631 0.1337 1.1863
C8 C -0.3176(6) 0.2366(5) 1.0571(7)
H8 H -0.3981 0.2415 1.0406
C9 C -0.2574(5) 0.2871(4) 1.0013(6)
H9 H -0.2881 0.3339 0.9419
C10 C -0.1439(4) 0.2581(3) 1.0502(5)
C11 C -0.0512(5) 0.2889(3) 1.0095(6)
C12 C 0.2908(5) 0.2788(4) 1.5611(6)
H10 H 0.2490 0.3368 1.6010
C13 C 0.2610(5) 0.2294(3) 1.4321(6)
H11 H 0.1947 0.2465 1.3678
C14 C 0.3436(5) 0.1491(3) 1.4164(5)
H12 H 0.3455 0.1015 1.3377
C15 C 0.4240(5) 0.1502(3) 1.5327(5)
H13 H 0.4909 0.1037 1.5492
C16 C 0.3898(6) 0.2299(4) 1.6204(5)
H14 H 0.4298 0.2489 1.7089
C17 C 0.4855(4) 0.2686(3) 1.2906(4)
H15 H 0.4938 0.2183 1.2159
C18 C 0.5615(4) 0.2794(4) 1.4108(5)
H16 H 0.6312 0.2375 1.4341
C19 C 0.5180(4) 0.3614(3) 1.4919(5)
H17 H 0.5526 0.3850 1.5813
C20 C 0.4155(4) 0.4017(3) 1.4243(4)
H18 H 0.3673 0.4583 1.4574
C21 C 0.3942(4) 0.3443(3) 1.2984(4)
C22 C 0.2913(4) 0.3540(3) 1.1999(4)
C23 C 0.2379(4) 0.4478(3) 0.8615(4)
C24 C 0.3496(4) 0.4155(3) 0.9027(5)
H19 H 0.3729 0.3714 0.9604
C25 C 0.4244(4) 0.4520(4) 0.8537(5)
H20 H 0.4995 0.4314 0.8787
C26 C 0.3906(5) 0.5186(3) 0.7684(5)
H21 H 0.4433 0.5425 0.7391
C27 C 0.2802(5) 0.5499(3) 0.7266(5)
H22 H 0.2573 0.5936 0.6682
C28 C 0.2044(4) 0.5134(3) 0.7753(4)
C29 C 0.0597(4) 0.4743(3) 0.8258(4)
H23 H -0.0136 0.4717 0.8274
C30 C 0.0175(4) 0.5890(3) 0.6622(4)
H24 H 0.0398 0.6496 0.6766
H25 H -0.0574 0.5983 0.6800
C31 C 0.0195(5) 0.5460(3) 0.5181(5)
C32 C 0.2495(4) 0.1317(3) 0.8009(4)
C33 C 0.3461(4) 0.1041(3) 0.8843(4)
H26 H 0.3622 0.1362 0.9693
C34 C 0.4184(5) 0.0269(3) 0.8367(5)
H27 H 0.4854 0.0080 0.8894
C35 C 0.3915(5) -0.0233(3) 0.7092(5)
H28 H 0.4407 -0.0759 0.6814
C36 C 0.2967(4) 0.0020(3) 0.6255(5)
H29 H 0.2803 -0.0312 0.5415
C37 C 0.2248(4) 0.0815(3) 0.6734(4)
C38 C 0.0937(4) 0.2020(3) 0.7055(4)
H30 H 0.0288 0.2446 0.6898
C39 C 0.0669(4) 0.1053(3) 0.4790(4)
H31 H 0.1198 0.0718 0.4227
H32 H 0.0323 0.1628 0.4445
C40 C -0.0210(4) 0.0462(3) 0.4742(5)
H33 H -0.081(3) 0.085(3) 0.520(4)
H34 H -0.062(4) 0.039(3) 0.387(5)
H35 H -0.029(4) 0.594(3) 0.459(5)
H36 H 0.102(5) 0.527(3) 0.493(5)
C31A C -0.0195(5) 0.4540(3) 0.4819(5)
C30A C -0.0175(4) 0.4110(3) 0.3378(4)
N2A N -0.0905(3) 0.4693(2) 0.2450(3)
C28A C -0.2044(4) 0.4866(3) 0.2247(4)
C23A C -0.2379(4) 0.5522(3) 0.1385(4)
N1A N -0.1442(3) 0.5765(2) 0.1079(3)
C29A C -0.0597(4) 0.5257(3) 0.1742(4)
H23A H 0.0136 0.5283 0.1726
C24A C -0.3496(4) 0.5845(3) 0.0973(5)
H19A H -0.3729 0.6286 0.0396
C25A C -0.4244(4) 0.5480(4) 0.1463(5)
H20A H -0.4995 0.5686 0.1213
C26A C -0.3906(5) 0.4814(3) 0.2316(5)
H21A H -0.4433 0.4575 0.2609
C27A C -0.2802(5) 0.4501(3) 0.2734(5)
H22A H -0.2573 0.4064 0.3318
H24A H -0.0398 0.3504 0.3234
H25A H 0.0574 0.4017 0.3200
H35A H 0.029(4) 0.406(3) 0.541(5)
H36A H -0.102(5) 0.473(3) 0.507(5)
C40A C 0.0210(4) -0.0462(3) 0.5258(5)
C39A C -0.0669(4) -0.1053(3) 0.5210(4)
N4A N -0.1255(3) -0.1276(2) 0.3847(3)
C37A C -0.2248(4) -0.0815(3) 0.3266(4)
C32A C -0.2495(4) -0.1317(3) 0.1991(4)
N3A N -0.1640(3) -0.2077(2) 0.1827(3)
C38A C -0.0937(4) -0.2020(3) 0.2945(4)
H30A H -0.0288 -0.2446 0.3102
C33A C -0.3461(4) -0.1041(3) 0.1157(4)
H26A H -0.3622 -0.1362 0.0307
C34A C -0.4184(5) -0.0269(3) 0.1633(5)
H27A H -0.4854 -0.0080 0.1106
C35A C -0.3915(5) 0.0233(3) 0.2908(5)
H28A H -0.4407 0.0759 0.3186
C36A C -0.2967(4) -0.0020(3) 0.3745(5)
H29A H -0.2803 0.0312 0.4585
H31A H -0.1198 -0.0718 0.5773
H32A H -0.0323 -0.1628 0.5555
H33A H 0.081(3) -0.085(3) 0.480(4)
H34A H 0.062(4) -0.039(3) 0.613(5)
Zn1A Zn -0.14481(4) 0.68922(3) 0.02130(5)
O1A O -0.0448(3) 0.7349(3) -0.0728(3)
O2A O 0.0665(3) 0.6633(2) 0.0831(4)
C6A C 0.1351(5) 0.8101(4) -0.1340(5)
H6A H 0.0665 0.8424 -0.1809
C7A C 0.2435(6) 0.8230(5) -0.1372(6)
H7A H 0.2631 0.8663 -0.1863
C8A C 0.3176(6) 0.7634(5) -0.0571(7)
H8A H 0.3981 0.7585 -0.0406
C9A C 0.2574(5) 0.7129(4) -0.0013(6)
H9A H 0.2881 0.6661 0.0581
C10A C 0.1439(4) 0.7419(3) -0.0502(5)
C11A C 0.0512(5) 0.7111(3) -0.0095(6)
O3A O -0.2876(3) 0.7106(2) -0.0993(3)
O4A O -0.2147(3) 0.5794(2) -0.2164(3)
C17A C -0.4855(4) 0.7314(3) -0.2906(4)
H15A H -0.4938 0.7817 -0.2159
C18A C -0.5615(4) 0.7206(4) -0.4108(5)
H16A H -0.6312 0.7625 -0.4341
C19A C -0.5180(4) 0.6386(3) -0.4919(5)
H17A H -0.5526 0.6150 -0.5813
C20A C -0.4155(4) 0.5983(3) -0.4243(4)
H18A H -0.3673 0.5417 -0.4574
C21A C -0.3942(4) 0.6557(3) -0.2984(4)
C22A C -0.2913(4) 0.6460(3) -0.1999(4)
Fe1A Fe 0.21134(6) 0.85238(5) 0.05353(7)
Fe2A Fe -0.40996(6) 0.73161(4) -0.44770(6)
C1A C 0.1203(10) 0.9139(9) 0.1958(11)
H1A H 0.0493 0.9005 0.2062
C2A C 0.1368(9) 0.9791(7) 0.1264(8)
H2A H 0.0779 1.0191 0.0755
C3A C 0.2442(9) 0.9806(5) 0.1380(7)
H3A H 0.2765 1.0214 0.0974
C4A C 0.3006(7) 0.9171(6) 0.2138(8)
H4A H 0.3812 0.9039 0.2376
C5A C 0.2272(13) 0.8718(5) 0.2527(6)
H5A H 0.2453 0.8236 0.3111
C12A C -0.2908(5) 0.7212(4) -0.5611(6)
H10A H -0.2490 0.6632 -0.6010
C13A C -0.2610(5) 0.7706(3) -0.4321(6)
H11A H -0.1947 0.7535 -0.3678
C14A C -0.3436(5) 0.8509(3) -0.4164(5)
H12A H -0.3455 0.8985 -0.3377
C15A C -0.4240(5) 0.8498(3) -0.5327(5)
H13A H -0.4909 0.8963 -0.5492
C16A C -0.3898(6) 0.7701(4) -0.6204(5)
H14A H -0.4298 0.7511 -0.7089
Zn1A_2 Zn -0.14481(4) -0.31078(3) 0.02130(5)
N3A_2 N -0.1640(3) 0.7923(2) 0.1827(3)
O5 O -0.2332(5) 0.3918(4) 0.7117(6)
H37 H -0.226(9) 0.466(8) 0.736(10)
H38 H -0.174(5) 0.377(4) 0.765(5)
O6 O -0.1474(5) 0.2737(4) 0.5085(7)
H39 H -0.232(13) 0.264(9) 0.446(14)
H40 H -0.178(7) 0.312(6) 0.572(8)
loop_
_geom_bond_atom_site_label_1
_geom_bond_atom_site_label_2
_geom_bond_site_symmetry_1
_geom_bond_site_symmetry_2
Zn1 N1 1_555 1_555
Fe1 C1 1_555 1_555
Fe2 C12 1_555 1_555
N1 C23 1_555 1_555
N2 C28 1_555 1_555
N3 Zn1 1_555 1_555
N4 C37 1_555 1_555
O1 Zn1 1_555 1_555
O2 C11 1_555 1_555
O3 Zn1 1_555 1_555
O4 C22 1_555 1_555
O5 H37 1_555 1_555
O6 H39 1_555 1_555
C1 H1 1_555 1_555
C2 Fe1 1_555 1_555
H2 C2 1_555 1_555
C3 Fe1 1_555 1_555
H3 C3 1_555 1_555
C4 Fe1 1_555 1_555
H4 C4 1_555 1_555
C5 Fe1 1_555 1_555
H5 C5 1_555 1_555
C6 Fe1 1_555 1_555
H6 C6 1_555 1_555
C7 Fe1 1_555 1_555
H7 C7 1_555 1_555
C8 Fe1 1_555 1_555
H8 C8 1_555 1_555
C9 Fe1 1_555 1_555
H9 C9 1_555 1_555
C10 Fe1 1_555 1_555
C11 O1 1_555 1_555
C12 H10 1_555 1_555
C13 Fe2 1_555 1_555
H11 C13 1_555 1_555
C14 Fe2 1_555 1_555
H12 C14 1_555 1_555
C15 Fe2 1_555 1_555
H13 C15 1_555 1_555
C16 Fe2 1_555 1_555
H14 C16 1_555 1_555
C17 Fe2 1_555 1_555
H15 C17 1_555 1_555
C18 Fe2 1_555 1_555
H16 C18 1_555 1_555
C19 Fe2 1_555 1_555
H17 C19 1_555 1_555
C20 Fe2 1_555 1_555
H18 C20 1_555 1_555
C21 Fe2 1_555 1_555
C22 O3 1_555 1_555
C23 C24 1_555 1_555
C24 H19 1_555 1_555
C25 C24 1_555 1_555
H20 C25 1_555 1_555
C26 C25 1_555 1_555
H21 C26 1_555 1_555
C27 C26 1_555 1_555
H22 C27 1_555 1_555
C28 C23 1_555 1_555
C29 N1 1_555 1_555
H23 C29 1_555 1_555
C30 N2 1_555 1_555
H24 C30 1_555 1_555
H25 C30 1_555 1_555
C31 C30 1_555 1_555
C32 N3 1_555 1_555
C33 C32 1_555 1_555
H26 C33 1_555 1_555
C34 C33 1_555 1_555
H27 C34 1_555 1_555
C35 C34 1_555 1_555
H28 C35 1_555 1_555
C36 C35 1_555 1_555
H29 C36 1_555 1_555
C37 C32 1_555 1_555
C38 N3 1_555 1_555
H30 C38 1_555 1_555
C39 N4 1_555 1_555
H31 C39 1_555 1_555
H32 C39 1_555 1_555
C40 C39 1_555 1_555
H33 C40 1_555 1_555
H34 C40 1_555 1_555
H35 C31 1_555 1_555
H36 C31 1_555 1_555
H38 O5 1_555 1_555
H40 O6 1_555 1_555
C31A C31 1_555 1_555
C30A C31A 1_555 1_555
N2A C30A 1_555 1_555
C28A N2A 1_555 1_555
C23A C28A 1_555 1_555
N1A C23A 1_555 1_555
C29A N2A 1_555 1_555
H23A C29A 1_555 1_555
C24A C23A 1_555 1_555
H19A C24A 1_555 1_555
C25A C24A 1_555 1_555
H20A C25A 1_555 1_555
C26A C25A 1_555 1_555
H21A C26A 1_555 1_555
C27A C28A 1_555 1_555
H22A C27A 1_555 1_555
H24A C30A 1_555 1_555
H25A C30A 1_555 1_555
H35A C31A 1_555 1_555
H36A C31A 1_555 1_555
C40A C40 1_555 1_555
C39A C40A 1_555 1_555
N4A C39A 1_555 1_555
C37A N4A 1_555 1_555
C32A C37A 1_555 1_555
N3A C32A 1_555 1_555
C38A N4A 1_555 1_555
H30A C38A 1_555 1_555
C33A C32A 1_555 1_555
H26A C33A 1_555 1_555
C34A C33A 1_555 1_555
H27A C34A 1_555 1_555
C35A C34A 1_555 1_555
H28A C35A 1_555 1_555
C36A C37A 1_555 1_555
H29A C36A 1_555 1_555
H31A C39A 1_555 1_555
H32A C39A 1_555 1_555
H33A C40A 1_555 1_555
H34A C40A 1_555 1_555
Zn1A N1A 1_555 1_555
O1A Zn1A 1_555 1_555
O2A C11A 1_555 1_555
C6A H6A 1_555 1_555
C7A C6A 1_555 1_555
H7A C7A 1_555 1_555
C8A C7A 1_555 1_555
H8A C8A 1_555 1_555
C9A C8A 1_555 1_555
H9A C9A 1_555 1_555
C10A C6A 1_555 1_555
C11A O1A 1_555 1_555
O3A Zn1A 1_555 1_555
O4A C22A 1_555 1_555
C17A H15A 1_555 1_555
C18A C17A 1_555 1_555
H16A C18A 1_555 1_555
C19A C18A 1_555 1_555
H17A C19A 1_555 1_555
C20A C19A 1_555 1_555
H18A C20A 1_555 1_555
C21A C17A 1_555 1_555
C22A O3A 1_555 1_555
Fe1A C6A 1_555 1_555
Fe2A C17A 1_555 1_555
C1A Fe1A 1_555 1_555
H1A C1A 1_555 1_555
C2A Fe1A 1_555 1_555
H2A C2A 1_555 1_555
C3A Fe1A 1_555 1_555
H3A C3A 1_555 1_555
C4A Fe1A 1_555 1_555
H4A C4A 1_555 1_555
C5A Fe1A 1_555 1_555
H5A C5A 1_555 1_555
C12A Fe2A 1_555 1_555
H10A C12A 1_555 1_555
C13A Fe2A 1_555 1_555
H11A C13A 1_555 1_555
C14A Fe2A 1_555 1_555
H12A C14A 1_555 1_555
C15A Fe2A 1_555 1_555
H13A C15A 1_555 1_555
C16A Fe2A 1_555 1_555
H14A C16A 1_555 1_555
Zn1A_2 N3A 1_555 1_555
N3A_2 Zn1A 1_555 1_555
N2 C29 1_555 1_555
N4 C38 1_555 1_555
C1 C2 1_555 1_555
C1 C5 1_555 1_555
C2 C3 1_555 1_555
C3 C4 1_555 1_555
C4 C5 1_555 1_555
C6 C10 1_555 1_555
C6 C7 1_555 1_555
C7 C8 1_555 1_555
C8 C9 1_555 1_555
C9 C10 1_555 1_555
C10 C11 1_555 1_555
C12 C13 1_555 1_555
C12 C16 1_555 1_555
C13 C14 1_555 1_555
C14 C15 1_555 1_555
C15 C16 1_555 1_555
C17 C21 1_555 1_555
C17 C18 1_555 1_555
C18 C19 1_555 1_555
C19 C20 1_555 1_555
C20 C21 1_555 1_555
C21 C22 1_555 1_555
C27 C28 1_555 1_555
C36 C37 1_555 1_555
N1A C29A 1_555 1_555
C26A C27A 1_555 1_555
N3A C38A 1_555 1_555
C35A C36A 1_555 1_555
C7A Fe1A 1_555 1_555
C8A Fe1A 1_555 1_555
C9A Fe1A 1_555 1_555
C9A C10A 1_555 1_555
C10A Fe1A 1_555 1_555
C10A C11A 1_555 1_555
C18A Fe2A 1_555 1_555
C19A Fe2A 1_555 1_555
C20A Fe2A 1_555 1_555
C20A C21A 1_555 1_555
C21A Fe2A 1_555 1_555
C21A C22A 1_555 1_555
C1A C2A 1_555 1_555
C1A C5A 1_555 1_555
C2A C3A 1_555 1_555
C3A C4A 1_555 1_555
C4A C5A 1_555 1_555
C12A C13A 1_555 1_555
C12A C16A 1_555 1_555
C13A C14A 1_555 1_555
C14A C15A 1_555 1_555
C15A C16A 1_555 1_555

#END
