
#######################################################################
#
#                 Cambridge Crystallographic Data Centre
#                                CCDC 
#
#######################################################################
#
# If this CIF has been generated from an entry in the Cambridge 
# Structural Database, then it will include bibliographic, chemical, 
# crystal, experimental, refinement or atomic coordinate data resulting 
# from the CCDC's data processing and validation procedures.
#
#######################################################################

data_EYECAN
_symmetry_cell_setting           triclinic
_symmetry_space_group_name_H-M   'P -1'
_symmetry_Int_Tables_number      2
_space_group_name_Hall           '-P 1'
loop_
_symmetry_equiv_pos_site_id
_symmetry_equiv_pos_as_xyz
1 x,y,z
2 -x,-y,-z
_cell_length_a                   11.8914(13)
_cell_length_b                   13.0072(14)
_cell_length_c                   13.0452(14)
_cell_angle_alpha                83.984(2)
_cell_angle_beta                 63.3860(10)
_cell_angle_gamma                70.6180(10)
_cell_volume                     1699.42
loop_
_atom_site_label
_atom_site_type_symbol
_atom_site_fract_x
_atom_site_fract_y
_atom_site_fract_z
N5 N 0.016(5) -0.040(3) 1.075(5)
N6 N 0.033(5) -0.122(4) 1.001(4)
C16 C -0.031(4) 0.069(3) 1.098(4)
C17 C -0.064(4) 0.131(3) 1.191(3)
H13 H -0.0679 0.0977 1.2587
C18 C -0.091(4) 0.235(4) 1.188(4)
H14 H -0.1093 0.2745 1.2522
C19 C -0.094(4) 0.292(4) 1.091(4)
H15 H -0.1117 0.3668 1.0870
C20 C 0.066(5) -0.223(5) 1.000(5)
H16 H 0.0725 -0.2560 1.0641
N6A N -0.033(5) 0.122(4) 0.999(4)
C16A C 0.031(4) -0.069(3) 0.902(4)
C19A C 0.094(4) -0.292(4) 0.909(4)
C20A C -0.066(5) 0.223(5) 1.000(5)
O2 O 0.745(3) 0.105(3) 0.693(3)
W1 W 0.88700(12) 0.53285(10) 0.80141(10)
W2 W 0.90831(13) 0.75970(11) 0.62730(12)
W3 W 0.97906(13) 0.27347(11) 0.67183(12)
W4 W 0.77581(12) 0.60752(9) 0.37694(11)
W5 W 0.66227(13) 0.63897(10) 0.67854(12)
W6 W 0.75424(13) 0.37977(12) 0.54882(11)
P1 P 1.0000 0.5000 0.5000
N1 N 0.569(2) 0.8638(18) 0.194(2)
N2 N 0.424(2) 1.0253(18) 0.318(2)
N3 N 0.427(2) 0.8736(17) 0.4335(19)
N4 N 0.499(3) 0.676(2) 0.191(2)
Cu1 Cu 0.4738(3) 0.7725(2) 0.3101(3)
C1 C 0.673(3) 0.820(2) 0.090(3)
H1 H 0.7140 0.7447 0.0830
C2 C 0.719(4) 0.878(3) -0.002(3)
H2 H 0.7889 0.8455 -0.0713
C3 C 0.656(4) 0.992(3) 0.014(3)
H3 H 0.6761 1.0346 -0.0492
C4 C 0.568(3) 1.040(2) 0.119(3)
H4 H 0.5403 1.1150 0.1308
C5 C 0.516(2) 0.9729(19) 0.212(2)
C6 C 0.391(3) 0.982(2) 0.427(2)
C7 C 0.333(3) 1.058(2) 0.514(2)
H5 H 0.3101 1.1324 0.5023
C8 C 0.310(3) 1.019(2) 0.621(2)
H6 H 0.2665 1.0677 0.6849
C9 C 0.353(3) 0.906(2) 0.636(3)
H7 H 0.3464 0.8786 0.7069
C10 C 0.404(3) 0.837(2) 0.540(2)
H8 H 0.4240 0.7620 0.5487
C11 C 0.571(3) 0.569(2) 0.176(2)
H9 H 0.6185 0.5421 0.2188
C12 C 0.579(3) 0.497(2) 0.099(3)
H10 H 0.6327 0.4249 0.0883
C13 C 0.502(3) 0.538(2) 0.040(2)
C14 C 0.432(4) 0.647(3) 0.053(3)
H11 H 0.3827 0.6760 0.0118
C15 C 0.435(5) 0.714(3) 0.125(3)
H12 H 0.3908 0.7888 0.1295
O1 O 0.835(3) 0.551(2) 0.939(2)
O3 O 0.892(2) 0.3880(17) 0.788(2)
O4 O 0.5048(19) 0.7057(18) 0.759(2)
O5 O 0.906(2) 0.6692(18) 0.749(2)
O6 O 0.865(2) 0.8842(19) 0.689(2)
O7 O 0.736(2) 0.7528(17) 0.661(2)
O8 O 0.853(3) 0.526(3) 0.518(3)
O9 O 0.904(4) 0.573(3) 0.606(3)
O10 O 1.013(3) 0.453(2) 0.603(3)
O11 O 0.972(3) 0.390(3) 0.516(3)
O12 O 0.822(3) 0.308(2) 0.652(2)
O13 O 0.970(2) 0.1644(16) 0.750(2)
O14 O 1.073(3) 0.201(2) 0.523(2)
O15 O 1.095(3) 0.719(2) 0.569(3)
O16 O 0.678(3) 0.6632(19) 0.526(2)
O17 O 1.071(2) 0.4798(17) 0.748(2)
O18 O 0.666(2) 0.6595(16) 0.3207(17)
O19 O 1.138(2) 0.2871(17) 0.655(2)
O20 O 0.651(3) 0.5012(18) 0.655(2)
O21 O 0.734(2) 0.4759(19) 0.435(2)
O22 O 0.725(2) 0.5815(18) 0.7862(19)
O23 O 0.6372(18) 0.3200(14) 0.5760(16)
W2A W 1.09169(13) 0.24030(11) 0.37270(12)
W4A W 1.22419(12) 0.39248(9) 0.62306(11)
W6A W 1.24576(13) 0.62023(12) 0.45118(11)
Cu1A Cu 0.5262(3) 0.2275(2) 0.6899(3)
C13A C 0.498(3) 0.462(2) -0.040(2)
O8A O 1.147(3) 0.474(3) 0.482(3)
O9A O 1.096(4) 0.427(3) 0.394(3)
O10A O 0.987(3) 0.547(2) 0.397(3)
O11A O 1.028(3) 0.610(3) 0.484(3)
O14A O 0.927(3) 0.799(2) 0.477(2)
O15A O 0.905(3) 0.281(2) 0.431(3)
O17A O 0.929(2) 0.5202(17) 0.252(2)
O19A O 0.862(2) 0.7129(17) 0.345(2)
O23A O 0.3628(18) 0.6800(14) 0.4240(16)
C21? C -0.033(5) 0.122(4) 0.999(4)
N7? N -0.031(4) 0.069(3) 1.098(4)
C22? C -0.064(4) 0.131(3) 1.191(3)
H17? H -0.0679 0.0977 1.2587
C23? C -0.091(4) 0.235(4) 1.188(4)
H18? H -0.1093 0.2745 1.2522
C24? C -0.094(4) 0.292(4) 1.091(4)
H19? H -0.1117 0.3668 1.0870
C25? C -0.066(5) 0.223(5) 1.000(5)
H20? H -0.0725 0.2560 0.9359
V1? V 0.88700(12) 0.53285(10) 0.80141(10)
V2? V 0.90831(13) 0.75970(11) 0.62730(12)
V3? V 1.02094(13) 0.72653(11) 0.32817(12)
V4? V 0.77581(12) 0.60752(9) 0.37694(11)
V5? V 0.66227(13) 0.63897(10) 0.67854(12)
V6? V 0.75424(13) 0.37977(12) 0.54882(11)
loop_
_geom_bond_atom_site_label_1
_geom_bond_atom_site_label_2
_geom_bond_site_symmetry_1
_geom_bond_site_symmetry_2
W1 O1 1_555 1_555
W2 O5 1_555 1_555
W3 O3 1_555 1_555
W4 O8 1_555 1_555
W5 O4 1_555 1_555
W6 O8 1_555 1_555
P1 O8 1_555 1_555
N1 Cu1 1_555 1_555
N2 C5 1_555 1_555
N3 Cu1 1_555 1_555
N4 Cu1 1_555 1_555
N5 N6 1_555 1_555
Cu1 O18 1_555 1_555
C1 N1 1_555 1_555
H1 C1 1_555 1_555
C2 C1 1_555 1_555
H2 C2 1_555 1_555
C3 C2 1_555 1_555
H3 C3 1_555 1_555
C4 C3 1_555 1_555
H4 C4 1_555 1_555
C5 N1 1_555 1_555
C6 N2 1_555 1_555
C7 C6 1_555 1_555
H5 C7 1_555 1_555
C8 C7 1_555 1_555
H6 C8 1_555 1_555
C9 C8 1_555 1_555
H7 C9 1_555 1_555
C10 N3 1_555 1_555
H8 C10 1_555 1_555
C11 N4 1_555 1_555
H9 C11 1_555 1_555
C12 C11 1_555 1_555
H10 C12 1_555 1_555
C13 C12 1_555 1_555
C14 C13 1_555 1_555
H11 C14 1_555 1_555
C15 N4 1_555 1_555
H12 C15 1_555 1_555
N6 C20 1_555 1_555
C16 N5 1_555 1_555
C17 C16 1_555 1_555
H13 C17 1_555 1_555
C18 C17 1_555 1_555
H14 C18 1_555 1_555
C19 C18 1_555 1_555
H15 C19 1_555 1_555
C20 H16 1_555 1_555
O3 W1 1_555 1_555
O5 W1 1_555 1_555
O6 W2 1_555 1_555
O7 W2 1_555 1_555
O8 W5 1_555 1_555
O9 W1 1_555 1_555
O10 W1 1_555 1_555
O11 W3 1_555 1_555
O12 W3 1_555 1_555
O13 W3 1_555 1_555
O14 W3 1_555 1_555
O15 W2 1_555 1_555
O16 W4 1_555 1_555
O17 W1 1_555 1_555
O18 W4 1_555 1_555
O19 W3 1_555 1_555
O20 W5 1_555 1_555
O21 W4 1_555 1_555
O22 W1 1_555 1_555
O23 W6 1_555 1_555
W2A O11 1_555 1_555
W4A O10 1_555 1_555
W6A O15 1_555 1_555
Cu1A O23 1_555 1_555
C13A C13 1_555 1_555
N6A C16 1_555 1_555
C16A N6 1_555 1_555
C19A C20 1_555 1_555
C20A C19 1_555 1_555
O8A P1 1_555 1_555
O9A P1 1_555 1_555
O10A W4 1_555 1_555
O11A W2 1_555 1_555
O14A W2 1_555 1_555
O15A W6 1_555 1_555
O17A W4 1_555 1_555
O19A W4 1_555 1_555
O23A Cu1 1_555 1_555
W2 O9 1_555 1_555
W3 O10 1_555 1_555
W5 O7 1_555 1_555
W5 O9 1_555 1_555
W5 O16 1_555 1_555
W5 O22 1_555 1_555
W6 O11 1_555 1_555
W6 O12 1_555 1_555
W6 O20 1_555 1_555
W6 O21 1_555 1_555
P1 O9 1_555 1_555
P1 O10 1_555 1_555
P1 O11 1_555 1_555
P1 O10A 1_555 1_555
P1 O11A 1_555 1_555
N3 C6 1_555 1_555
C4 C5 1_555 1_555
C9 C10 1_555 1_555
C14 C15 1_555 1_555
O8 O9 1_555 1_555
O8 O10A 1_555 1_555
O9 O10 1_555 1_555
O9 O11A 1_555 1_555
O10 O11 1_555 1_555
O10 O8A 1_555 1_555
O11 O9A 1_555 1_555
O14 W2A 1_555 1_555
O17 W4A 1_555 1_555
O19 W4A 1_555 1_555
W2A O9A 1_555 1_555
W2A O15A 1_555 1_555
W4A O8A 1_555 1_555
W6A O8A 1_555 1_555
W6A O11A 1_555 1_555
N6A C20A 1_555 1_555
O8A O9A 1_555 1_555
O9A O10A 1_555 1_555
O10A O11A 1_555 1_555

#END
