
#######################################################################
#
#                 Cambridge Crystallographic Data Centre
#                                CCDC 
#
#######################################################################
#
# If this CIF has been generated from an entry in the Cambridge 
# Structural Database, then it will include bibliographic, chemical, 
# crystal, experimental, refinement or atomic coordinate data resulting 
# from the CCDC's data processing and validation procedures.
#
#######################################################################

data_EYEGOE
_symmetry_cell_setting           orthorhombic
_symmetry_space_group_name_H-M   'P 21 21 21'
_symmetry_Int_Tables_number      19
_space_group_name_Hall           'P 2ac 2ab'
loop_
_symmetry_equiv_pos_site_id
_symmetry_equiv_pos_as_xyz
1 x,y,z
2 1/2-x,-y,1/2+z
3 1/2+x,1/2-y,-z
4 -x,1/2+y,1/2-z
_cell_length_a                   10.133(5)
_cell_length_b                   11.911(5)
_cell_length_c                   14.074(5)
_cell_angle_alpha                90
_cell_angle_beta                 90
_cell_angle_gamma                90
_cell_volume                     1698.65
loop_
_atom_site_label
_atom_site_type_symbol
_atom_site_fract_x
_atom_site_fract_y
_atom_site_fract_z
Cu1 Cu 0.62938(10) 0.17786(8) 0.00047(8)
O1 O 0.7236(7) 0.3051(6) -0.0537(5)
O2 O 0.9240(7) 0.2514(5) -0.0047(8)
N1 N 1.1731(9) 0.2934(8) -0.1353(7)
N2 N 1.0347(8) 0.4599(6) -0.0568(6)
N3 N 1.0927(8) 0.3974(7) 0.1239(6)
C1 C 1.2076(12) 0.1937(12) -0.1737(9)
H1 H 1.2166 0.1298 -0.1364
C2 C 1.2293(13) 0.1901(16) -0.2721(11)
H2 H 1.2552 0.1226 -0.2996
C3 C 1.2149(15) 0.2750(16) -0.3246(11)
H3 H 1.2313 0.2683 -0.3894
C4 C 1.1759(12) 0.3770(12) -0.2888(9)
H4 H 1.1643 0.4395 -0.3275
C5 C 1.1554(10) 0.3812(10) -0.1947(8)
C6 C 1.1110(13) 0.4896(9) -0.1417(8)
H5 H 1.1880 0.5329 -0.1234
H6 H 1.0575 0.5354 -0.1836
C7 C 1.0364(11) 0.5473(8) 0.0176(7)
H7 H 1.1143 0.5936 0.0096
H8 H 0.9596 0.5951 0.0102
C8 C 1.0364(11) 0.4986(9) 0.1138(8)
C9 C 0.9897(11) 0.5540(11) 0.1924(8)
H9 H 0.9495 0.6237 0.1851
C10 C 1.0013(13) 0.5082(12) 0.2822(9)
H10 H 0.9693 0.5461 0.3352
C11 C 1.0603(13) 0.4065(11) 0.2913(9)
H11 H 1.0695 0.3737 0.3508
C12 C 1.1070(10) 0.3519(9) 0.2108(7)
H12 H 1.1488 0.2827 0.2170
C13 C 0.8474(9) 0.3188(8) -0.0413(7)
C14 C 0.8987(10) 0.4276(9) -0.0855(9)
H13 H 0.8963 0.4200 -0.1541
H14 H 0.8391 0.4881 -0.0684
O2B O 0.4240(7) 0.2486(5) 0.0047(8)
N1B N 0.6731(9) 0.2066(8) 0.1353(7)
N2B N 0.5347(8) 0.0401(6) 0.0568(6)
N3B N 0.5927(8) 0.1026(7) -0.1239(6)
Cu1B Cu 1.12938(10) 0.32214(8) -0.00047(8)
Cl1 Cl 0.1544(3) -0.1613(2) -0.0955(2)
O3 O 0.0445(13) -0.1835(15) -0.0429(12)
O4 O 0.265(2) -0.223(2) -0.071(2)
O5 O 0.1685(19) -0.0741(19) -0.1434(16)
O6 O 0.1282(19) -0.213(2) -0.189(2)
O7 O 0.8636(9) 0.0210(7) -0.0075(7)
loop_
_geom_bond_atom_site_label_1
_geom_bond_atom_site_label_2
_geom_bond_site_symmetry_1
_geom_bond_site_symmetry_2
Cu1 O1 1_555 1_555
Cl1 O3 1_555 1_555
O1 C13 1_555 1_555
O2 C13 1_555 1_555
O4 Cl1 1_555 1_555
O5 Cl1 1_555 1_555
O6 Cl1 1_555 1_555
N1 C1 1_555 1_555
N2 C6 1_555 1_555
N3 C8 1_555 1_555
C1 H1 1_555 1_555
C2 C1 1_555 1_555
H2 C2 1_555 1_555
C3 C2 1_555 1_555
H3 C3 1_555 1_555
C4 C3 1_555 1_555
H4 C4 1_555 1_555
C5 N1 1_555 1_555
C6 C5 1_555 1_555
H5 C6 1_555 1_555
H6 C6 1_555 1_555
C7 N2 1_555 1_555
H7 C7 1_555 1_555
H8 C7 1_555 1_555
C8 C7 1_555 1_555
C9 C8 1_555 1_555
H9 C9 1_555 1_555
C10 C9 1_555 1_555
H10 C10 1_555 1_555
C11 C10 1_555 1_555
H11 C11 1_555 1_555
C12 N3 1_555 1_555
H12 C12 1_555 1_555
C13 C14 1_555 1_555
C14 N2 1_555 1_555
H13 C14 1_555 1_555
H14 C14 1_555 1_555
O2B Cu1 1_555 1_555
N1B Cu1 1_555 1_555
N2B Cu1 1_555 1_555
N3B Cu1 1_555 1_555
Cu1B O2 1_555 1_555
N1 Cu1B 1_555 1_555
N2 Cu1B 1_555 1_555
N3 Cu1B 1_555 1_555
C4 C5 1_555 1_555
C11 C12 1_555 1_555

#END
