
#######################################################################
#
#                 Cambridge Crystallographic Data Centre
#                                CCDC 
#
#######################################################################
#
# If this CIF has been generated from an entry in the Cambridge 
# Structural Database, then it will include bibliographic, chemical, 
# crystal, experimental, refinement or atomic coordinate data resulting 
# from the CCDC's data processing and validation procedures.
#
#######################################################################

data_EYEGIZ
_symmetry_cell_setting           triclinic
_symmetry_space_group_name_H-M   'P -1'
_symmetry_Int_Tables_number      2
_space_group_name_Hall           '-P 1'
loop_
_symmetry_equiv_pos_site_id
_symmetry_equiv_pos_as_xyz
1 x,y,z
2 -x,-y,-z
_cell_length_a                   9.0584(4)
_cell_length_b                   9.1898(4)
_cell_length_c                   9.2714(4)
_cell_angle_alpha                103.067(4)
_cell_angle_beta                 107.469(4)
_cell_angle_gamma                109.856(4)
_cell_volume                     644.483
loop_
_atom_site_label
_atom_site_type_symbol
_atom_site_fract_x
_atom_site_fract_y
_atom_site_fract_z
Cd1 Cd 0.602385(18) 0.715949(17) 0.988000(18)
Cl1 Cl 0.32138(6) 0.44931(6) 0.81616(6)
N1 N 0.7510(2) 0.6302(2) 0.8469(2)
N2 N 0.8826(2) 0.9243(2) 1.1451(2)
N3 N 1.0219(2) 0.7625(2) 1.0724(2)
H1 H 1.1104 0.7453 1.1126
C1 C 0.6562(3) 0.5221(3) 0.6914(3)
H2 H 0.5430 0.5057 0.6423
C2 C 0.7143(3) 0.4356(3) 0.6016(3)
H3 H 0.6438 0.3633 0.4947
C3 C 0.8835(3) 0.4596(3) 0.6759(3)
H4 H 0.9276 0.4010 0.6198
C4 C 0.9839(3) 0.5697(3) 0.8316(3)
H5 H 1.0976 0.5880 0.8819
C5 C 0.9144(3) 0.6548(3) 0.9150(3)
C6 C 1.0195(3) 0.8923(2) 1.1805(3)
C7 C 1.1659(3) 0.9869(3) 1.3257(3)
H6 H 1.2568 0.9579 1.3495
C8 C 1.1751(3) 1.1216(3) 1.4323(3)
H7 H 1.2717 1.1854 1.5300
C9 C 1.0378(3) 1.1623(3) 1.3928(3)
H8 H 1.0421 1.2563 1.4612
C10 C 0.8976(3) 1.0616(3) 1.2523(3)
H9 H 0.8052 1.0885 1.2277
N4 N 0.5335(3) 0.8771(2) 0.8479(3)
C11 C 0.5361(3) 1.0000(3) 0.8347(3)
S1 S 0.54195(8) 1.17304(7) 0.80992(8)
Cd1A Cd 0.397615(18) 0.284051(17) 1.012000(18)
Cd1A_2 Cd 0.397615(18) 1.284051(17) 1.012000(18)
Cl1A Cl 0.67862(6) 0.55069(6) 1.18384(6)
S1A S 0.45805(8) 0.82696(7) 1.19008(8)
loop_
_geom_bond_atom_site_label_1
_geom_bond_atom_site_label_2
_geom_bond_site_symmetry_1
_geom_bond_site_symmetry_2
Cd1 Cl1 1_555 1_555
Cl1 Cd1A 1_555 1_555
N1 Cd1 1_555 1_555
N2 Cd1 1_555 1_555
N3 H1 1_555 1_555
C1 N1 1_555 1_555
H2 C1 1_555 1_555
C2 C1 1_555 1_555
H3 C2 1_555 1_555
C3 C2 1_555 1_555
H4 C3 1_555 1_555
C4 C3 1_555 1_555
H5 C4 1_555 1_555
C5 N1 1_555 1_555
C6 N2 1_555 1_555
C7 C6 1_555 1_555
H6 C7 1_555 1_555
C8 C7 1_555 1_555
H7 C8 1_555 1_555
C9 C8 1_555 1_555
H8 C9 1_555 1_555
C10 N2 1_555 1_555
H9 C10 1_555 1_555
N4 Cd1 1_555 1_555
C11 N4 1_555 1_555
S1 C11 1_555 1_555
Cd1A Cl1A 1_555 1_555
Cd1A_2 S1 1_555 1_555
Cl1A Cd1 1_555 1_555
S1A Cd1 1_555 1_555
N3 C5 1_555 1_555
N3 C6 1_555 1_555
C4 C5 1_555 1_555
C9 C10 1_555 1_555

#END
