
#######################################################################
#
#                 Cambridge Crystallographic Data Centre
#                                CCDC 
#
#######################################################################
#
# If this CIF has been generated from an entry in the Cambridge 
# Structural Database, then it will include bibliographic, chemical, 
# crystal, experimental, refinement or atomic coordinate data resulting 
# from the CCDC's data processing and validation procedures.
#
#######################################################################

data_EYEGEV
_symmetry_cell_setting           monoclinic
_symmetry_space_group_name_H-M   'P 21/c'
_symmetry_Int_Tables_number      14
_space_group_name_Hall           '-P 2ybc'
loop_
_symmetry_equiv_pos_site_id
_symmetry_equiv_pos_as_xyz
1 x,y,z
2 -x,1/2+y,1/2-z
3 -x,-y,-z
4 x,1/2-y,1/2+z
_cell_length_a                   5.7351(5)
_cell_length_b                   7.4036(11)
_cell_length_c                   20.4529(19)
_cell_angle_alpha                90
_cell_angle_beta                 91.941(10)
_cell_angle_gamma                90
_cell_volume                     867.94
loop_
_atom_site_label
_atom_site_type_symbol
_atom_site_fract_x
_atom_site_fract_y
_atom_site_fract_z
Cd1 Cd 0.0000 0.5000 0.0000
N1 N 0.1136(6) 0.4418(5) 0.10831(16)
N2 N -0.0101(6) 0.5014(5) 0.15853(16)
H1 H -0.1449 0.5518 0.1545
C1 C 0.3078(7) 0.3733(5) 0.13331(18)
H2 H 0.4244 0.3216 0.1090
C2 C 0.3159(6) 0.3886(5) 0.20131(17)
C3 C 0.4779(8) 0.3392(6) 0.2508(2)
H3 H 0.6178 0.2834 0.2411
C4 C 0.4241(9) 0.3755(6) 0.3135(2)
H4 H 0.5309 0.3460 0.3471
C5 C 0.2130(9) 0.4559(6) 0.3292(2)
H5 H 0.1812 0.4753 0.3729
C6 C 0.0516(8) 0.5068(6) 0.2818(2)
H6 H -0.0878 0.5623 0.2922
C7 C 0.1073(6) 0.4711(5) 0.21704(18)
N3 N -0.3189(6) 0.6541(5) 0.03644(19)
C8 C -0.4962(7) 0.7205(6) 0.02437(19)
S1 S -0.7515(2) 0.81509(16) 0.00909(6)
Cd1_2 Cd -1.0000 0.5000 0.0000
N1B N -0.1136(6) 0.5582(5) -0.10831(16)
N2B N 0.0101(6) 0.4986(5) -0.15853(16)
H1B H 0.1449 0.4482 -0.1545
C1B C -0.3078(7) 0.6267(5) -0.13331(18)
H2B H -0.4244 0.6784 -0.1090
C2B C -0.3159(6) 0.6114(5) -0.20131(17)
C3B C -0.4779(8) 0.6608(6) -0.2508(2)
H3B H -0.6178 0.7166 -0.2411
C4B C -0.4241(9) 0.6245(6) -0.3135(2)
H4B H -0.5309 0.6540 -0.3471
C5B C -0.2130(9) 0.5441(6) -0.3292(2)
H5B H -0.1812 0.5247 -0.3729
C6B C -0.0516(8) 0.4932(6) -0.2818(2)
H6B H 0.0878 0.4377 -0.2922
C7B C -0.1073(6) 0.5289(5) -0.21704(18)
N3B N -0.6811(6) 0.3459(5) -0.03644(19)
N3B_2 N 0.3189(6) 0.3459(5) -0.03644(19)
C8B C -0.5038(7) 0.2795(6) -0.02437(19)
S1B S -0.2485(2) 0.18491(16) -0.00909(6)
S1_2 S 0.2485(2) 0.81509(16) 0.00909(6)
loop_
_geom_bond_atom_site_label_1
_geom_bond_atom_site_label_2
_geom_bond_site_symmetry_1
_geom_bond_site_symmetry_2
Cd1 N1 1_555 1_555
N1 N2 1_555 1_555
N2 H1 1_555 1_555
C1 N1 1_555 1_555
H2 C1 1_555 1_555
C2 C1 1_555 1_555
C3 C2 1_555 1_555
H3 C3 1_555 1_555
C4 C3 1_555 1_555
H4 C4 1_555 1_555
C5 C4 1_555 1_555
H5 C5 1_555 1_555
C6 C5 1_555 1_555
H6 C6 1_555 1_555
C7 N2 1_555 1_555
N3 Cd1 1_555 1_555
C8 N3 1_555 1_555
S1 C8 1_555 1_555
Cd1_2 S1 1_555 1_555
N1B Cd1 1_555 1_555
N2B N1B 1_555 1_555
H1B N2B 1_555 1_555
C1B N1B 1_555 1_555
H2B C1B 1_555 1_555
C2B C1B 1_555 1_555
C3B C2B 1_555 1_555
H3B C3B 1_555 1_555
C4B C3B 1_555 1_555
H4B C4B 1_555 1_555
C5B C4B 1_555 1_555
H5B C5B 1_555 1_555
C6B C5B 1_555 1_555
H6B C6B 1_555 1_555
C7B N2B 1_555 1_555
N3B Cd1_2 1_555 1_555
N3B_2 Cd1 1_555 1_555
C8B N3B 1_555 1_555
S1B Cd1 1_555 1_555
S1_2 Cd1 1_555 1_555
C2 C7 1_555 1_555
C6 C7 1_555 1_555
C2B C7B 1_555 1_555
C6B C7B 1_555 1_555
C8B S1B 1_555 1_555

#END
