
#######################################################################
#
#                 Cambridge Crystallographic Data Centre
#                                CCDC 
#
#######################################################################
#
# If this CIF has been generated from an entry in the Cambridge 
# Structural Database, then it will include bibliographic, chemical, 
# crystal, experimental, refinement or atomic coordinate data resulting 
# from the CCDC's data processing and validation procedures.
#
#######################################################################

data_EYEHAR
_symmetry_cell_setting           orthorhombic
_symmetry_space_group_name_H-M   'P n a 21'
_symmetry_Int_Tables_number      33
_space_group_name_Hall           'P 2c -2n'
loop_
_symmetry_equiv_pos_site_id
_symmetry_equiv_pos_as_xyz
1 x,y,z
2 -x,-y,1/2+z
3 1/2-x,1/2+y,1/2+z
4 1/2+x,1/2-y,z
_cell_length_a                   17.165(3)
_cell_length_b                   10.2442(12)
_cell_length_c                   12.6288(12)
_cell_angle_alpha                90
_cell_angle_beta                 90
_cell_angle_gamma                90
_cell_volume                     2220.67
loop_
_atom_site_label
_atom_site_type_symbol
_atom_site_fract_x
_atom_site_fract_y
_atom_site_fract_z
Cu1 Cu 0.88567(4) 0.92707(7) 0.33693(6)
O1 O 0.8641(3) 0.8017(5) 0.4468(4)
O2 O 0.7413(3) 0.8403(5) 0.4112(4)
N1 N 0.6224(3) 0.5870(6) 0.9239(5)
N2 N 0.6029(3) 0.5568(5) 0.7173(4)
N3 N 0.6075(3) 0.2997(7) 0.7194(5)
C1 C 0.6474(5) 0.5961(8) 1.0249(7)
H1 H 0.6637 0.5210 1.0598
C2 C 0.6494(6) 0.7147(9) 1.0783(8)
H2 H 0.6656 0.7193 1.1484
C3 C 0.6272(6) 0.8229(9) 1.0254(8)
H3 H 0.6294 0.9035 1.0593
C4 C 0.6015(5) 0.8167(7) 0.9226(7)
H4 H 0.5855 0.8915 0.8870
C5 C 0.6001(4) 0.6973(7) 0.8738(6)
C6 C 0.5699(4) 0.6760(7) 0.7644(5)
H5 H 0.5831 0.7505 0.7206
H6 H 0.5136 0.6688 0.7666
C7 C 0.5529(4) 0.4922(7) 0.6376(5)
H7 H 0.4987 0.4976 0.6587
H8 H 0.5587 0.5346 0.5694
C8 C 0.5778(4) 0.3514(7) 0.6302(6)
C9 C 0.5687(4) 0.2793(8) 0.5410(6)
H9 H 0.5475 0.3167 0.4804
C10 C 0.5914(6) 0.1496(9) 0.5406(8)
H10 H 0.5862 0.0987 0.4800
C11 C 0.6216(5) 0.0984(8) 0.6314(8)
H11 H 0.6375 0.0117 0.6341
C12 C 0.6278(5) 0.1763(7) 0.7174(7)
H12 H 0.6478 0.1399 0.7792
C13 C 0.7913(4) 0.7832(6) 0.4622(5)
C14 C 0.7730(4) 0.6840(6) 0.5452(6)
H13 H 0.8056 0.7015 0.6063
H14 H 0.7876 0.5988 0.5182
C15 C 0.6891(4) 0.6769(6) 0.5824(5)
H15 H 0.6557 0.6496 0.5245
H16 H 0.6719 0.7623 0.6061
C16 C 0.6835(4) 0.5796(6) 0.6728(5)
H17 H 0.7039 0.4966 0.6483
H18 H 0.7169 0.6095 0.7298
O7 O 1.0218(3) 0.9006(4) 0.3666(4)
N1B N 0.8776(3) 1.0870(6) 0.4239(5)
N2B N 0.8971(3) 1.0568(5) 0.2173(4)
N3B N 0.8925(3) 0.7997(7) 0.2194(5)
Cu1B Cu 0.61433(4) 0.42707(7) 0.83693(6)
Cl1 Cl 0.80748(11) 0.8862(2) 0.80945(15)
O3 O 0.8083(7) 0.9578(8) 0.9030(7)
O4 O 0.7433(4) 0.9165(7) 0.7464(7)
O5 O 0.8762(4) 0.9079(10) 0.7540(8)
O6 O 0.8041(4) 0.7510(6) 0.8343(7)
O8 O 0.9774(3) 0.6515(6) 0.5477(5)
O9 O 0.9320(4) 0.5710(6) 0.7489(5)
H19 H 0.8841 0.5365 0.7191
H20 H 0.9669 0.5802 0.6813
O10 O 0.5834(3) 0.8491(5) 0.3767(4)
H21 H 0.6276 0.8604 0.3941
H22 H 0.5782 0.9079 0.3299
loop_
_geom_bond_atom_site_label_1
_geom_bond_atom_site_label_2
_geom_bond_site_symmetry_1
_geom_bond_site_symmetry_2
Cu1 O1 1_555 1_555
Cl1 O3 1_555 1_555
O1 C13 1_555 1_555
O2 C13 1_555 1_555
O4 Cl1 1_555 1_555
O5 Cl1 1_555 1_555
O6 Cl1 1_555 1_555
N1 C1 1_555 1_555
N2 C6 1_555 1_555
N3 C8 1_555 1_555
C1 H1 1_555 1_555
C2 C1 1_555 1_555
H2 C2 1_555 1_555
C3 C2 1_555 1_555
H3 C3 1_555 1_555
C4 C3 1_555 1_555
H4 C4 1_555 1_555
C5 N1 1_555 1_555
C6 C5 1_555 1_555
H5 C6 1_555 1_555
H6 C6 1_555 1_555
C7 N2 1_555 1_555
H7 C7 1_555 1_555
H8 C7 1_555 1_555
C8 C7 1_555 1_555
C9 C8 1_555 1_555
H9 C9 1_555 1_555
C10 C9 1_555 1_555
H10 C10 1_555 1_555
C11 C10 1_555 1_555
H11 C11 1_555 1_555
C12 N3 1_555 1_555
H12 C12 1_555 1_555
C13 C14 1_555 1_555
C14 H13 1_555 1_555
H14 C14 1_555 1_555
C15 C14 1_555 1_555
H15 C15 1_555 1_555
H16 C15 1_555 1_555
C16 N2 1_555 1_555
H17 C16 1_555 1_555
H18 C16 1_555 1_555
O7 Cu1 1_555 1_555
O9 H19 1_555 1_555
H20 O9 1_555 1_555
O10 H21 1_555 1_555
H22 O10 1_555 1_555
N1B Cu1 1_555 1_555
N2B Cu1 1_555 1_555
N3B Cu1 1_555 1_555
Cu1B N1 1_555 1_555
N2 Cu1B 1_555 1_555
N3 Cu1B 1_555 1_555
C4 C5 1_555 1_555
C11 C12 1_555 1_555
C15 C16 1_555 1_555

#END
