
#######################################################################
#
#                 Cambridge Crystallographic Data Centre
#                                CCDC 
#
#######################################################################
#
# If this CIF has been generated from an entry in the Cambridge 
# Structural Database, then it will include bibliographic, chemical, 
# crystal, experimental, refinement or atomic coordinate data resulting 
# from the CCDC's data processing and validation procedures.
#
#######################################################################

data_EYELUP
_symmetry_cell_setting           triclinic
_symmetry_space_group_name_H-M   'P -1'
_symmetry_Int_Tables_number      2
_space_group_name_Hall           '-P 1'
loop_
_symmetry_equiv_pos_site_id
_symmetry_equiv_pos_as_xyz
1 x,y,z
2 -x,-y,-z
_cell_length_a                   6.6981(4)
_cell_length_b                   8.6266(6)
_cell_length_c                   10.3659(7)
_cell_angle_alpha                96.286(3)
_cell_angle_beta                 107.42
_cell_angle_gamma                91.431(2)
_cell_volume                     567
loop_
_atom_site_label
_atom_site_type_symbol
_atom_site_fract_x
_atom_site_fract_y
_atom_site_fract_z
Cd1 Cd 0.79219(16) 0.30003(10) 0.50235(9)
C1 C 0.7419(19) 0.4769(14) 0.8950(12)
C2 C 0.7420(18) 0.3956(14) 1.0024(11)
H1 H 0.7306 0.2869 0.9910
C3 C 0.7599(19) 0.4814(14) 1.1307(12)
C4 C 0.7663(19) 0.6414(14) 1.1454(12)
H2 H 0.7735 0.6968 1.2290
C5 C 0.7619(19) 0.7218(13) 1.0336(12)
C6 C 0.7524(18) 0.6390(15) 0.9089(12)
H3 H 0.7531 0.6918 0.8354
C7 C 0.7322(17) 0.3889(13) 0.7589(11)
C8 C 0.7691(19) 0.3975(14) 1.2503(12)
C9 C 0.762(2) 0.8943(15) 1.0435(14)
C10 C 1.1081(19) 0.0454(13) 0.5148(12)
O1 O 0.7575(13) 0.4682(9) 0.6672(8)
O2 O 0.7094(16) 0.2444(9) 0.7405(9)
O3 O 0.7481(17) 0.2517(10) 1.2410(9)
O4 O 0.7901(16) 0.4805(10) 1.3621(8)
O5 O 0.7903(18) 0.9640(10) 1.1691(9)
O6 O 0.7293(15) 0.9667(10) 0.9471(9)
O7 O 1.1080(12) 0.1912(8) 0.5314(9)
O8 O 1.2658(14) -0.0309(10) 0.5241(9)
O9 O 0.4135(13) 0.2638(10) 0.4138(8)
C10A C 0.8919(19) -0.0454(13) 0.4852(12)
O7A O 0.8920(12) -0.1912(8) 0.4686(9)
O8A O 0.7342(14) 0.0309(10) 0.4759(9)
C1_2 C 0.7419(19) 0.4769(14) -0.1050(12)
C2_2 C 0.7420(18) 0.3956(14) 0.0024(11)
H1_2 H 0.7306 0.2869 -0.0090
C3_2 C 0.7599(19) 0.4814(14) 0.1307(12)
C4_2 C 0.7663(19) 0.6414(14) 0.1454(12)
H2_2 H 0.7735 0.6968 0.2290
C5_2 C 0.7619(19) 0.7218(13) 0.0336(12)
C6_2 C 0.7524(18) 0.6390(15) -0.0911(12)
H3_2 H 0.7531 0.6918 -0.1646
C7_2 C 0.7322(17) 0.3889(13) -0.2411(11)
C8_2 C 0.7691(19) 0.3975(14) 0.2503(12)
C9_2 C 0.762(2) 0.8943(15) 0.0435(14)
O1_2 O 0.7575(13) 0.4682(9) -0.3328(8)
O2_2 O 0.7094(16) 0.2444(9) -0.2595(9)
O3_2 O 0.7481(17) 0.2517(10) 0.2410(9)
O4_2 O 0.7901(16) 0.4805(10) 0.3621(8)
O5_2 O 0.7903(18) 0.9640(10) 0.1691(9)
O6_2 O 0.7293(15) 0.9667(10) -0.0529(9)
Cd1_2 Cd 0.79219(16) 0.30003(10) -0.49765(9)
O9_2 O 0.4135(13) 0.2638(10) -0.5862(8)
Cd1_3 Cd 0.79219(16) 0.30003(10) 1.50235(9)
Cd1A Cd 1.20781(16) -0.30003(10) 0.49765(9)
O3_3 O 0.7481(17) 0.2517(10) -0.7590(9)
O4_3 O 0.7901(16) 0.4805(10) -0.6379(8)
O7_2 O 1.1080(12) 0.1912(8) -0.4686(9)
O8A_2 O 0.7342(14) 0.0309(10) -0.5241(9)
Na1 Na 0.4138(10) 0.0069(6) 0.2864(5)
loop_
_geom_bond_atom_site_label_1
_geom_bond_atom_site_label_2
_geom_bond_site_symmetry_1
_geom_bond_site_symmetry_2
Cd1 O1 1_555 1_555
C1 C2 1_555 1_555
C2 H1 1_555 1_555
C3 C2 1_555 1_555
C4 C3 1_555 1_555
H2 C4 1_555 1_555
C5 C4 1_555 1_555
C6 C1 1_555 1_555
H3 C6 1_555 1_555
C7 C1 1_555 1_555
C8 C3 1_555 1_555
C9 C5 1_555 1_555
C10 O7 1_555 1_555
O1 C7 1_555 1_555
O2 C7 1_555 1_555
O3 C8 1_555 1_555
O4 C8 1_555 1_555
O5 C9 1_555 1_555
O6 C9 1_555 1_555
O7 Cd1 1_555 1_555
O8 C10 1_555 1_555
O9 Cd1 1_555 1_555
C10A C10 1_555 1_555
O7A C10A 1_555 1_555
O8A Cd1 1_555 1_555
C1_2 C2_2 1_555 1_555
C2_2 H1_2 1_555 1_555
C3_2 C2_2 1_555 1_555
C4_2 C3_2 1_555 1_555
H2_2 C4_2 1_555 1_555
C5_2 C4_2 1_555 1_555
C6_2 C1_2 1_555 1_555
H3_2 C6_2 1_555 1_555
C7_2 C1_2 1_555 1_555
C8_2 C3_2 1_555 1_555
C9_2 C5_2 1_555 1_555
O1_2 C7_2 1_555 1_555
O2_2 C7_2 1_555 1_555
O3_2 Cd1 1_555 1_555
O4_2 Cd1 1_555 1_555
O5_2 C9_2 1_555 1_555
O6_2 C9_2 1_555 1_555
Cd1_2 O1_2 1_555 1_555
O9_2 Cd1_2 1_555 1_555
Cd1_3 O3 1_555 1_555
Cd1A O8 1_555 1_555
O3_3 Cd1_2 1_555 1_555
O4_3 Cd1_2 1_555 1_555
O7_2 Cd1_2 1_555 1_555
O8A_2 Cd1_2 1_555 1_555
C5 C6 1_555 1_555
O4 Cd1_3 1_555 1_555
C10A O8A 1_555 1_555
O7A Cd1A 1_555 1_555
C5_2 C6_2 1_555 1_555
C8_2 O3_2 1_555 1_555
C8_2 O4_2 1_555 1_555

#END
