
#######################################################################
#
#                 Cambridge Crystallographic Data Centre
#                                CCDC 
#
#######################################################################
#
# If this CIF has been generated from an entry in the Cambridge 
# Structural Database, then it will include bibliographic, chemical, 
# crystal, experimental, refinement or atomic coordinate data resulting 
# from the CCDC's data processing and validation procedures.
#
#######################################################################

data_EYELID
_symmetry_cell_setting           orthorhombic
_symmetry_space_group_name_H-M   'P n a 21'
_symmetry_Int_Tables_number      33
_space_group_name_Hall           'P 2c -2n'
loop_
_symmetry_equiv_pos_site_id
_symmetry_equiv_pos_as_xyz
1 x,y,z
2 -x,-y,1/2+z
3 1/2-x,1/2+y,1/2+z
4 1/2+x,1/2-y,z
_cell_length_a                   26.918(1)
_cell_length_b                   7.9710(5)
_cell_length_c                   10.4560(7)
_cell_angle_alpha                90
_cell_angle_beta                 90
_cell_angle_gamma                90
_cell_volume                     2243.47
loop_
_atom_site_label
_atom_site_type_symbol
_atom_site_fract_x
_atom_site_fract_y
_atom_site_fract_z
Zn1 Zn 0.35651(1) 0.60647(5) 0.7819
Zn2 Zn 0.46942(2) 0.43698(5) 0.7828(2)
O1 O 0.3349(2) 0.8303(6) 0.8840(6)
O2 O 0.3324(2) 0.8290(7) 0.6773(5)
O3 O 0.3690(2) 0.4587(7) 0.6235(6)
O4 O 0.4434(3) 0.3315(10) 0.6267(7)
O5 O 0.3702(2) 0.4619(8) 0.9355(5)
O6 O 0.4402(3) 0.3375(9) 0.9341(8)
O7 O 0.4332(2) 0.6797(6) 0.794(1)
O8 O 0.5002(2) 0.6739(6) 0.7159(7)
N1 N 0.2814(1) 0.5150(4) 0.7833(9)
N2 N 0.0382(1) 0.1697(4) 0.779(1)
C1 C 0.2569(2) 0.4843(9) 0.8900(6)
C2 C 0.2112(3) 0.4117(10) 0.8955(8)
C3 C 0.1848(1) 0.3807(4) 0.7844(9)
C4 C 0.2081(2) 0.4197(9) 0.6685(6)
C5 C 0.2569(3) 0.479(1) 0.6734(7)
C6 C 0.0617(3) 0.197(1) 0.6816(8)
C7 C 0.1069(3) 0.283(1) 0.6651(7)
C8 C 0.1342(1) 0.3069(4) 0.776(1)
C9 C 0.1113(3) 0.260(1) 0.8899(8)
C10 C 0.0615(3) 0.2106(9) 0.8995(8)
C11 C 0.3254(2) 0.9013(5) 0.776(1)
C12 C 0.3053(3) 1.0764(6) 0.785(2)
C13 C 0.4013(3) 0.356(1) 0.578(1)
C14 C 0.3896(4) 0.255(2) 0.464(1)
C15 C 0.3984(3) 0.367(1) 0.9772(8)
C16 C 0.3841(4) 0.281(2) 1.102(1)
C17 C 0.4662(2) 0.7578(6) 0.765(1)
C18 C 0.4643(4) 0.9406(8) 0.763(3)
H1 H 0.2723 0.5148 0.9684
H2 H 0.1974 0.3821 0.9759
H3 H 0.1913 0.4061 0.5893
H4 H 0.2739 0.4962 0.5948
H5 H 0.0472 0.1548 0.6053
H6 H 0.1180 0.3212 0.5839
H7 H 0.1306 0.2615 0.9659
H8 H 0.0445 0.2044 0.9788
H9 H 0.3290 1.1466 0.8258
H10 H 0.2987 1.1176 0.7016
H11 H 0.2754 1.0759 0.8336
H12 H 0.3624 0.1831 0.4825
H13 H 0.3812 0.3273 0.3954
H14 H 0.4177 0.1894 0.4416
H15 H 0.3526 0.3207 1.1294
H16 H 0.3825 0.1632 1.0886
H17 H 0.4083 0.3051 1.1655
H18 H 0.4971 0.9840 0.7571
H19 H 0.4454 0.9770 0.6921
H20 H 0.4494 0.9799 0.8401
N2C N 0.5382(1) 0.3303(4) 0.779(1)
Zn2C Zn -0.03058(2) 0.06302(5) 0.7828(2)
loop_
_geom_bond_atom_site_label_1
_geom_bond_atom_site_label_2
_geom_bond_site_symmetry_1
_geom_bond_site_symmetry_2
Zn1 O1 1_555 1_555
Zn2 O4 1_555 1_555
O1 C11 1_555 1_555
O2 Zn1 1_555 1_555
O3 Zn1 1_555 1_555
O4 C13 1_555 1_555
O5 Zn1 1_555 1_555
O6 Zn2 1_555 1_555
O7 Zn1 1_555 1_555
O8 Zn2 1_555 1_555
N1 Zn1 1_555 1_555
N2 C6 1_555 1_555
C1 N1 1_555 1_555
C2 C1 1_555 1_555
C3 C2 1_555 1_555
C4 C3 1_555 1_555
C5 N1 1_555 1_555
C6 C7 1_555 1_555
C7 C8 1_555 1_555
C8 C3 1_555 1_555
C9 C8 1_555 1_555
C10 N2 1_555 1_555
C11 O2 1_555 1_555
C12 C11 1_555 1_555
C13 O3 1_555 1_555
C14 C13 1_555 1_555
C15 O5 1_555 1_555
C16 C15 1_555 1_555
C17 O7 1_555 1_555
C18 C17 1_555 1_555
H1 C1 1_555 1_555
H2 C2 1_555 1_555
H3 C4 1_555 1_555
H4 C5 1_555 1_555
H5 C6 1_555 1_555
H6 C7 1_555 1_555
H7 C9 1_555 1_555
H8 C10 1_555 1_555
H9 C12 1_555 1_555
H10 C12 1_555 1_555
H11 C12 1_555 1_555
H12 C14 1_555 1_555
H13 C14 1_555 1_555
H14 C14 1_555 1_555
H15 C16 1_555 1_555
H16 C16 1_555 1_555
H17 C16 1_555 1_555
H18 C18 1_555 1_555
H19 C18 1_555 1_555
H20 C18 1_555 1_555
N2C Zn2 1_555 1_555
Zn2C N2 1_555 1_555
Zn2 O7 1_555 1_555
O6 C15 1_555 1_555
O8 C17 1_555 1_555
C4 C5 1_555 1_555
C9 C10 1_555 1_555

#END
