
#######################################################################
#
#                 Cambridge Crystallographic Data Centre
#                                CCDC 
#
#######################################################################
#
# If this CIF has been generated from an entry in the Cambridge 
# Structural Database, then it will include bibliographic, chemical, 
# crystal, experimental, refinement or atomic coordinate data resulting 
# from the CCDC's data processing and validation procedures.
#
#######################################################################

data_EYEMIE
_symmetry_cell_setting           monoclinic
_symmetry_space_group_name_H-M   'P 21/c'
_symmetry_Int_Tables_number      14
_space_group_name_Hall           '-P 2ybc'
loop_
_symmetry_equiv_pos_site_id
_symmetry_equiv_pos_as_xyz
1 x,y,z
2 x,1/2-y,1/2+z
3 -x,-y,-z
4 -x,1/2+y,1/2-z
_cell_length_a                   9.4436(10)
_cell_length_b                   18.6660(18)
_cell_length_c                   10.3884(11)
_cell_angle_alpha                90
_cell_angle_beta                 92.744(2)
_cell_angle_gamma                90
_cell_volume                     1829.11
loop_
_atom_site_label
_atom_site_type_symbol
_atom_site_fract_x
_atom_site_fract_y
_atom_site_fract_z
Cd1 Cd -0.02251(10) 0.01719(6) 0.80498(10)
Cd2 Cd -0.00152(11) -0.19947(5) 0.38120(10)
N1 N 0.2489(13) -0.1995(7) 0.3791(13)
N2 N 0.2211(12) 0.0102(7) 0.8158(11)
C1 C 0.3290(18) -0.1606(10) 0.4599(16)
H1 H 0.2837 -0.1303 0.5159
C2 C 0.4755(18) -0.1617(10) 0.4670(17)
H2 H 0.5270 -0.1362 0.5304
C3 C 0.5426(15) -0.2020(9) 0.3768(14)
C4 C 0.4586(17) -0.2371(9) 0.2879(16)
H3 H 0.5016 -0.2618 0.2225
C5 C 0.3130(16) -0.2381(9) 0.2897(17)
H4 H 0.2598 -0.2651 0.2298
C6 C 0.7034(16) -0.2042(8) 0.3755(16)
C7 C 0.2802(18) -0.0535(9) 0.7913(19)
H5 H 0.2202 -0.0924 0.7755
C8 C 0.4223(17) -0.0649(11) 0.788(2)
H6 H 0.4576 -0.1102 0.7707
C9 C 0.5134(16) -0.0079(9) 0.8111(15)
C10 C 0.4564(16) 0.0570(8) 0.8402(16)
H7 H 0.5148 0.0961 0.8590
C11 C 0.3118(15) 0.0638(9) 0.8412(16)
H8 H 0.2747 0.1084 0.8608
C12 C 0.6725(15) -0.0176(9) 0.7996(15)
C13 C 0.0032(15) -0.0410(7) 0.5099(15)
C14 C -0.0076(13) 0.1814(7) 0.9150(12)
C15 C -0.0060(14) 0.1395(8) 1.0440(14)
O1 O 0.7572(11) -0.2350(6) 0.2818(11)
O2 O 0.7724(11) -0.1733(7) 0.4644(10)
O3 O 0.7139(13) -0.0787(7) 0.7704(14)
O4 O 0.7497(11) 0.0346(6) 0.8232(11)
O5 O -0.0071(11) -0.0650(5) 0.6191(9)
O6 O 0.0231(11) -0.0778(5) 0.4101(9)
O7 O -0.0177(10) 0.2485(5) 0.9152(9)
O8 O -0.0003(11) 0.1443(5) 0.8138(9)
O9 O -0.0121(10) 0.1754(5) 1.1447(8)
O10 O 0.0034(10) 0.0725(5) 1.0336(9)
C13B C -0.0032(15) 0.0410(7) 0.4901(15)
O5B O 0.0071(11) 0.0650(5) 0.3809(9)
O6B O -0.0231(11) 0.0778(5) 0.5899(9)
N2_2 N -0.7789(12) 0.0102(7) 0.8158(11)
C7_2 C -0.7198(18) -0.0535(9) 0.7913(19)
H5_2 H -0.7798 -0.0924 0.7755
C8_2 C -0.5777(17) -0.0649(11) 0.788(2)
H6_2 H -0.5424 -0.1102 0.7707
C9_2 C -0.4866(16) -0.0079(9) 0.8111(15)
C10_2 C -0.5436(16) 0.0570(8) 0.8402(16)
H7_2 H -0.4852 0.0961 0.8590
C11_2 C -0.6882(15) 0.0638(9) 0.8412(16)
H8_2 H -0.7253 0.1084 0.8608
C12_2 C -0.3275(15) -0.0176(9) 0.7996(15)
O3_2 O -0.2861(13) -0.0787(7) 0.7704(14)
O4_2 O -0.2503(11) 0.0346(6) 0.8232(11)
C14B C 0.0076(13) -0.1814(7) 1.0850(12)
C15B C 0.0060(14) -0.1395(8) 0.9560(14)
O7B O 0.0177(10) -0.2485(5) 1.0848(9)
O8B O 0.0003(11) -0.1443(5) 1.1862(9)
O9B O 0.0121(10) -0.1754(5) 0.8553(8)
O10B O -0.0034(10) -0.0725(5) 0.9664(9)
Cd1_2 Cd -1.02251(10) 0.01719(6) 0.80498(10)
Cd2B Cd 0.00152(11) 0.19947(5) 0.61880(10)
N1_2 N -0.7511(13) -0.1995(7) 0.3791(13)
C1_2 C -0.6710(18) -0.1606(10) 0.4599(16)
H1_2 H -0.7163 -0.1303 0.5159
C2_2 C -0.5245(18) -0.1617(10) 0.4670(17)
H2_2 H -0.4730 -0.1362 0.5304
C3_2 C -0.4574(15) -0.2020(9) 0.3768(14)
C4_2 C -0.5414(17) -0.2371(9) 0.2879(16)
H3_2 H -0.4984 -0.2618 0.2225
C5_2 C -0.6870(16) -0.2381(9) 0.2897(17)
H4_2 H -0.7402 -0.2651 0.2298
C6_2 C -0.2966(16) -0.2042(8) 0.3755(16)
O1_2 O -0.2428(11) -0.2350(6) 0.2818(11)
O2_2 O -0.2276(11) -0.1733(7) 0.4644(10)
O7C O 0.0177(10) -0.2515(5) 0.5848(9)
O8B_2 O 0.0003(11) -0.1443(5) 0.1862(9)
O9C O 0.0121(10) -0.3246(5) 0.3553(8)
Cd2_2 Cd 0.99848(11) -0.19947(5) 0.38120(10)
Cd1_3 Cd 0.97749(10) 0.01719(6) 0.80498(10)
Cd1B Cd 0.02251(10) -0.01719(6) 0.19502(10)
Cd2C Cd 0.00152(11) 0.30053(5) 1.11880(10)
Cd1B_2 Cd 0.02251(10) -0.01719(6) 1.19502(10)
Cd2A Cd -0.00152(11) -0.30053(5) 0.88120(10)
Cd2_3 Cd -0.00152(11) -0.19947(5) 1.38120(10)
O4_3 O -1.2503(11) 0.0346(6) 0.8232(11)
O5_2 O -1.0071(11) -0.0650(5) 0.6191(9)
O6B_2 O -1.0231(11) 0.0778(5) 0.5899(9)
O8_2 O -1.0003(11) 0.1443(5) 0.8138(9)
O10_2 O -0.9966(10) 0.0725(5) 1.0336(9)
O10B_2 O -1.0034(10) -0.0725(5) 0.9664(9)
N1B N -0.2489(13) 0.1995(7) 0.6209(13)
O1B O 0.2428(11) 0.2350(6) 0.7182(11)
O2B O 0.2276(11) 0.1733(7) 0.5356(10)
O7A O -0.0177(10) 0.2515(5) 0.4152(9)
O9A O -0.0121(10) 0.3246(5) 0.6447(8)
Cd2_4 Cd -1.00152(11) -0.19947(5) 0.38120(10)
Na1 Na 0.1513(6) 0.1635(3) 0.3205(5)
loop_
_geom_bond_atom_site_label_1
_geom_bond_atom_site_label_2
_geom_bond_site_symmetry_1
_geom_bond_site_symmetry_2
Cd1 N2 1_555 1_555
Cd2 N1 1_555 1_555
N1 C1 1_555 1_555
N2 C7 1_555 1_555
C1 H1 1_555 1_555
C2 C1 1_555 1_555
H2 C2 1_555 1_555
C3 C2 1_555 1_555
C4 C3 1_555 1_555
H3 C4 1_555 1_555
C5 N1 1_555 1_555
H4 C5 1_555 1_555
C6 C3 1_555 1_555
C7 H5 1_555 1_555
C8 C7 1_555 1_555
H6 C8 1_555 1_555
C9 C8 1_555 1_555
C10 C9 1_555 1_555
H7 C10 1_555 1_555
C11 N2 1_555 1_555
H8 C11 1_555 1_555
C12 C9 1_555 1_555
C13 O5 1_555 1_555
C14 C15 1_555 1_555
C15 O9 1_555 1_555
O1 C6 1_555 1_555
O2 C6 1_555 1_555
O3 C12 1_555 1_555
O4 C12 1_555 1_555
O5 Cd1 1_555 1_555
O6 Cd2 1_555 1_555
O7 C14 1_555 1_555
O8 Cd1 1_555 1_555
O9 Cd2C 1_555 1_555
O10 Cd1 1_555 1_555
C13B C13 1_555 1_555
O5B C13B 1_555 1_555
O6B Cd1 1_555 1_555
N2_2 C7_2 1_555 1_555
C7_2 H5_2 1_555 1_555
C8_2 C7_2 1_555 1_555
H6_2 C8_2 1_555 1_555
C9_2 C8_2 1_555 1_555
C10_2 C9_2 1_555 1_555
H7_2 C10_2 1_555 1_555
C11_2 N2_2 1_555 1_555
H8_2 C11_2 1_555 1_555
C12_2 C9_2 1_555 1_555
O3_2 C12_2 1_555 1_555
O4_2 Cd1 1_555 1_555
C14B C15B 1_555 1_555
C15B O9B 1_555 1_555
O7B C14B 1_555 1_555
O8B C14B 1_555 1_555
O9B Cd2A 1_555 1_555
O10B Cd1 1_555 1_555
Cd1_2 N2_2 1_555 1_555
Cd2B O8 1_555 1_555
N1_2 C1_2 1_555 1_555
C1_2 H1_2 1_555 1_555
C2_2 C1_2 1_555 1_555
H2_2 C2_2 1_555 1_555
C3_2 C2_2 1_555 1_555
C4_2 C3_2 1_555 1_555
H3_2 C4_2 1_555 1_555
C5_2 N1_2 1_555 1_555
H4_2 C5_2 1_555 1_555
C6_2 C3_2 1_555 1_555
O1_2 Cd2 1_555 1_555
O2_2 Cd2 1_555 1_555
O7C Cd2 1_555 1_555
O8B_2 Cd2 1_555 1_555
O9C Cd2 1_555 1_555
Cd2_2 O1 1_555 1_555
Cd1_3 O4 1_555 1_555
Cd1B O6 1_555 1_555
Cd2C O7 1_555 1_555
Cd1B_2 O10 1_555 1_555
Cd2A O7B 1_555 1_555
Cd2_3 O8B 1_555 1_555
O4_3 Cd1_2 1_555 1_555
O5_2 Cd1_2 1_555 1_555
O6B_2 Cd1_2 1_555 1_555
O8_2 Cd1_2 1_555 1_555
O10_2 Cd1_2 1_555 1_555
O10B_2 Cd1_2 1_555 1_555
N1B Cd2B 1_555 1_555
O1B Cd2B 1_555 1_555
O2B Cd2B 1_555 1_555
O7A Cd2B 1_555 1_555
O9A Cd2B 1_555 1_555
Cd2_4 N1_2 1_555 1_555
C4 C5 1_555 1_555
C10 C11 1_555 1_555
C13 O6 1_555 1_555
C14 O8 1_555 1_555
C15 O10 1_555 1_555
O2 Cd2_2 1_555 1_555
C13B O6B 1_555 1_555
O5B Cd1B 1_555 1_555
O6B Cd2B 1_555 1_555
C10_2 C11_2 1_555 1_555
C12_2 O4_2 1_555 1_555
C15B O10B 1_555 1_555
O8B Cd1B_2 1_555 1_555
O10B Cd1B_2 1_555 1_555
C4_2 C5_2 1_555 1_555
C6_2 O1_2 1_555 1_555
C6_2 O2_2 1_555 1_555
O8B_2 Cd1B 1_555 1_555

#END
