
#######################################################################
#
#                 Cambridge Crystallographic Data Centre
#                                CCDC 
#
#######################################################################
#
# If this CIF has been generated from an entry in the Cambridge 
# Structural Database, then it will include bibliographic, chemical, 
# crystal, experimental, refinement or atomic coordinate data resulting 
# from the CCDC's data processing and validation procedures.
#
#######################################################################

data_EYEMAW
_symmetry_cell_setting           monoclinic
_symmetry_space_group_name_H-M   'C 2/c'
_symmetry_Int_Tables_number      15
_space_group_name_Hall           '-C 2yn'
loop_
_symmetry_equiv_pos_site_id
_symmetry_equiv_pos_as_xyz
1 x,y,z
2 1/2+x,1/2+y,z
3 x,-y,1/2+z
4 1/2+x,1/2-y,1/2+z
5 -x,-y,-z
6 1/2-x,1/2-y,-z
7 -x,y,1/2-z
8 1/2-x,1/2+y,1/2-z
_cell_length_a                   14.7964(3)
_cell_length_b                   13.0218(7)
_cell_length_c                   15.6888(6)
_cell_angle_alpha                90
_cell_angle_beta                 115.508(2)
_cell_angle_gamma                90
_cell_volume                     2728.2
loop_
_atom_site_label
_atom_site_type_symbol
_atom_site_fract_x
_atom_site_fract_y
_atom_site_fract_z
Cd1 Cd 0.06814(5) 0.78464(6) 0.02727(5)
N1 N -0.0814(5) 0.7000(6) -0.0135(5)
N2 N 0.0972(6) 0.6474(6) 0.1278(5)
C1 C -0.1680(8) 0.7300(9) -0.0806(7)
H1 H -0.1689 0.7892 -0.1141
C2 C -0.2570(8) 0.6789(10) -0.1040(8)
H2 H -0.3162 0.7025 -0.1523
C3 C -0.2557(8) 0.5919(10) -0.0539(9)
H3 H -0.3144 0.5554 -0.0678
C4 C -0.1663(7) 0.5595(8) 0.0172(8)
H4 H -0.1642 0.5012 0.0523
C5 C -0.0792(7) 0.6145(7) 0.0359(7)
C6 C 0.0194(7) 0.5824(8) 0.1096(6)
C7 C 0.0334(9) 0.4891(8) 0.1552(8)
H5 H -0.0203 0.4444 0.1405
C8 C 0.1272(11) 0.4621(9) 0.2229(8)
H6 H 0.1372 0.3999 0.2549
C9 C 0.2048(9) 0.5284(10) 0.2417(8)
H7 H 0.2687 0.5127 0.2874
C10 C 0.1868(8) 0.6208(9) 0.1910(8)
H8 H 0.2402 0.6649 0.2024
C11 C 0.2199(7) 0.7134(7) -0.0432(6)
C12 C -0.0133(7) 0.9974(9) -0.0532(7)
O1 O 0.1294(5) 0.7016(5) -0.0647(5)
O2 O 0.2681(5) 0.6715(6) -0.0831(5)
O3 O -0.0015(6) 0.9106(6) -0.0838(5)
O4 O -0.0433(5) 1.0756(5) -0.1024(5)
C11E C 0.2801(7) 0.7866(7) 0.0432(6)
O1E O 0.3706(5) 0.7984(5) 0.0647(5)
O2E O 0.2319(5) 0.8285(6) 0.0831(5)
C12D C 0.0133(7) 1.0026(9) 0.0532(7)
O3D O 0.0015(6) 1.0894(6) 0.0838(5)
O4D O 0.0433(5) 0.9244(5) 0.1024(5)
Cd1E Cd 0.43186(5) 0.71536(6) -0.02727(5)
N1E N 0.5814(5) 0.8000(6) 0.0135(5)
N2E N 0.4028(6) 0.8526(6) -0.1278(5)
C1E C 0.6680(8) 0.7700(9) 0.0806(7)
H1E H 0.6689 0.7108 0.1141
C2E C 0.7570(8) 0.8211(10) 0.1040(8)
H2E H 0.8162 0.7975 0.1523
C3E C 0.7557(8) 0.9081(10) 0.0539(9)
H3E H 0.8144 0.9446 0.0678
C4E C 0.6663(7) 0.9405(8) -0.0172(8)
H4E H 0.6642 0.9988 -0.0523
C5E C 0.5792(7) 0.8855(7) -0.0359(7)
C6E C 0.4806(7) 0.9176(8) -0.1096(6)
C7E C 0.4666(9) 1.0109(8) -0.1552(8)
H5E H 0.5203 1.0556 -0.1405
C8E C 0.3728(11) 1.0379(9) -0.2229(8)
H6E H 0.3628 1.1001 -0.2549
C9E C 0.2952(9) 0.9716(10) -0.2417(8)
H7E H 0.2313 0.9873 -0.2874
C10E C 0.3132(8) 0.8792(9) -0.1910(8)
H8E H 0.2598 0.8351 -0.2024
Cd1D Cd -0.06814(5) 1.21536(6) -0.02727(5)
O3E O 0.5015(6) 0.5894(6) 0.0838(5)
O4A O 0.4567(5) 0.5756(5) -0.1024(5)
O5 O 0.4193(16) 0.623(3) 0.2218(16)
O6 O 0.5000 0.3346(10) 0.2500
loop_
_geom_bond_atom_site_label_1
_geom_bond_atom_site_label_2
_geom_bond_site_symmetry_1
_geom_bond_site_symmetry_2
Cd1 N1 1_555 1_555
N1 C1 1_555 1_555
N2 Cd1 1_555 1_555
C1 H1 1_555 1_555
C2 C1 1_555 1_555
H2 C2 1_555 1_555
C3 C2 1_555 1_555
H3 C3 1_555 1_555
C4 C3 1_555 1_555
H4 C4 1_555 1_555
C5 N1 1_555 1_555
C6 N2 1_555 1_555
C7 C6 1_555 1_555
H5 C7 1_555 1_555
C8 C7 1_555 1_555
H6 C8 1_555 1_555
C9 C8 1_555 1_555
H7 C9 1_555 1_555
C10 N2 1_555 1_555
H8 C10 1_555 1_555
C11 O1 1_555 1_555
C12 O3 1_555 1_555
O1 Cd1 1_555 1_555
O2 C11 1_555 1_555
O3 Cd1 1_555 1_555
O4 C12 1_555 1_555
C11E C11 1_555 1_555
O1E C11E 1_555 1_555
O2E Cd1 1_555 1_555
C12D C12 1_555 1_555
O3D C12D 1_555 1_555
O4D Cd1 1_555 1_555
Cd1E O2 1_555 1_555
N1E Cd1E 1_555 1_555
N2E Cd1E 1_555 1_555
C1E N1E 1_555 1_555
H1E C1E 1_555 1_555
C2E C1E 1_555 1_555
H2E C2E 1_555 1_555
C3E C2E 1_555 1_555
H3E C3E 1_555 1_555
C4E C3E 1_555 1_555
H4E C4E 1_555 1_555
C5E N1E 1_555 1_555
C6E N2E 1_555 1_555
C7E C6E 1_555 1_555
H5E C7E 1_555 1_555
C8E C7E 1_555 1_555
H6E C8E 1_555 1_555
C9E C8E 1_555 1_555
H7E C9E 1_555 1_555
C10E N2E 1_555 1_555
H8E C10E 1_555 1_555
Cd1D O4 1_555 1_555
O3E Cd1E 1_555 1_555
O4A Cd1E 1_555 1_555
C4 C5 1_555 1_555
C5 C6 1_555 1_555
C9 C10 1_555 1_555
C11E O2E 1_555 1_555
O1E Cd1E 1_555 1_555
C12D O4D 1_555 1_555
O3D Cd1D 1_555 1_555
C4E C5E 1_555 1_555
C5E C6E 1_555 1_555
C9E C10E 1_555 1_555

#END
