
#######################################################################
#
#                 Cambridge Crystallographic Data Centre
#                                CCDC 
#
#######################################################################
#
# If this CIF has been generated from an entry in the Cambridge 
# Structural Database, then it will include bibliographic, chemical, 
# crystal, experimental, refinement or atomic coordinate data resulting 
# from the CCDC's data processing and validation procedures.
#
#######################################################################

data_EYEQUU
_symmetry_cell_setting           triclinic
_symmetry_space_group_name_H-M   'P -1'
_symmetry_Int_Tables_number      2
_space_group_name_Hall           '-P 1'
loop_
_symmetry_equiv_pos_site_id
_symmetry_equiv_pos_as_xyz
1 x,y,z
2 -x,-y,-z
_cell_length_a                   8.123(3)
_cell_length_b                   9.910(3)
_cell_length_c                   10.126(3)
_cell_angle_alpha                89.479(7)
_cell_angle_beta                 76.330(5)
_cell_angle_gamma                77.675(6)
_cell_volume                     773.053
loop_
_atom_site_label
_atom_site_type_symbol
_atom_site_fract_x
_atom_site_fract_y
_atom_site_fract_z
Ni1 Ni 0.0000 0.5000 0.5000
P1 P 0.23730(8) 0.29931(7) 0.63391(6)
S1 S 0.08831(8) 0.24820(7) 0.51962(6)
S2 S 0.20770(8) 0.50427(7) 0.64302(6)
C1 C 0.1948(3) 0.2305(3) 0.8005(2)
C2 C 0.2986(4) 0.1108(3) 0.8337(3)
H1 H 0.3979 0.0646 0.7675
C3 C 0.2599(4) 0.0572(3) 0.9621(3)
H2 H 0.3326 -0.0243 0.9837
C4 C 0.1135(4) 0.1244(3) 1.0585(3)
C5 C 0.0069(4) 0.2436(3) 1.0260(3)
H3 H -0.0945 0.2882 1.0911
C6 C 0.0493(4) 0.2966(3) 0.8986(3)
H4 H -0.0219 0.3793 0.8777
O1 O 0.4352(2) 0.2204(2) 0.58097(17)
C7 C 0.1697(5) -0.0350(3) 1.2297(3)
H5 H 0.1819 -0.1141 1.1680
H6 H 0.1149 -0.0555 1.3226
H7 H 0.2846 -0.0174 1.2272
O2 O 0.0647(3) 0.0841(2) 1.18808(19)
C8 C 0.5224(4) 0.2267(3) 0.4383(3)
H8 H 0.5293 0.3232 0.4162
H9 H 0.4576 0.1929 0.3790
C9 C 0.7010(4) 0.1372(3) 0.4169(3)
H10 H 0.7656 0.1742 0.4730
H11 H 0.7616 0.1358 0.3208
H12 H 0.6925 0.0429 0.4428
N1 N -0.2037(3) 0.5114(2) 0.6797(2)
C10 C -0.2248(3) 0.6033(3) 0.7824(2)
H13 H -0.1581 0.6724 0.7681
C11 C -0.3379(3) 0.6026(3) 0.9073(2)
H14 H -0.3465 0.6695 0.9767
C12 C -0.4399(3) 0.5038(3) 0.9323(2)
C13 C -0.4231(3) 0.4124(3) 0.8238(2)
H15 H -0.4924 0.3452 0.8336
C14 C -0.3054(3) 0.4194(3) 0.7016(2)
H16 H -0.2964 0.3555 0.6295
C12A C -0.5601(3) 0.4962(3) 1.0677(2)
C11A C -0.6621(3) 0.3974(3) 1.0927(2)
C10A C -0.7752(3) 0.3967(3) 1.2176(2)
N1A N -0.7963(3) 0.4886(2) 1.3203(2)
C14A C -0.6946(3) 0.5806(3) 1.2984(2)
C13A C -0.5769(3) 0.5876(3) 1.1762(2)
H15A H -0.5076 0.6548 1.1664
H16A H -0.7036 0.6445 1.3705
H13A H -0.8419 0.3276 1.2319
H14A H -0.6535 0.3305 1.0233
P1A P -0.23730(8) 0.70069(7) 0.36609(6)
S1A S -0.08831(8) 0.75180(7) 0.48038(6)
S2A S -0.20770(8) 0.49573(7) 0.35698(6)
C1A C -0.1948(3) 0.7695(3) 0.1995(2)
C2A C -0.2986(4) 0.8892(3) 0.1663(3)
H1A H -0.3979 0.9354 0.2325
C3A C -0.2599(4) 0.9428(3) 0.0379(3)
H2A H -0.3326 1.0243 0.0163
C4A C -0.1135(4) 0.8756(3) -0.0585(3)
C5A C -0.0069(4) 0.7564(3) -0.0260(3)
H3A H 0.0945 0.7118 -0.0911
C6A C -0.0493(4) 0.7034(3) 0.1014(3)
H4A H 0.0219 0.6207 0.1223
O1A O -0.4352(2) 0.7796(2) 0.41903(17)
C7A C -0.1697(5) 1.0350(3) -0.2297(3)
H5A H -0.1819 1.1141 -0.1680
H6A H -0.1149 1.0555 -0.3226
H7A H -0.2846 1.0174 -0.2272
O2A O -0.0647(3) 0.9159(2) -0.18808(19)
C8A C -0.5224(4) 0.7733(3) 0.5617(3)
H8A H -0.5293 0.6768 0.5838
H9A H -0.4576 0.8071 0.6210
C9A C -0.7010(4) 0.8628(3) 0.5831(3)
H10A H -0.7656 0.8258 0.5270
H11A H -0.7616 0.8642 0.6792
H12A H -0.6925 0.9571 0.5572
N1A_2 N 0.2037(3) 0.4886(2) 0.3203(2)
Ni1_2 Ni -1.0000 0.5000 1.5000
loop_
_geom_bond_atom_site_label_1
_geom_bond_atom_site_label_2
_geom_bond_site_symmetry_1
_geom_bond_site_symmetry_2
Ni1 S1 1_555 1_555
P1 S1 1_555 1_555
S2 Ni1 1_555 1_555
C1 P1 1_555 1_555
C2 C1 1_555 1_555
H1 C2 1_555 1_555
C3 C2 1_555 1_555
H2 C3 1_555 1_555
C4 C3 1_555 1_555
C5 C4 1_555 1_555
H3 C5 1_555 1_555
C6 C1 1_555 1_555
H4 C6 1_555 1_555
O1 P1 1_555 1_555
C7 H5 1_555 1_555
H6 C7 1_555 1_555
H7 C7 1_555 1_555
O2 C4 1_555 1_555
C8 O1 1_555 1_555
H8 C8 1_555 1_555
H9 C8 1_555 1_555
C9 C8 1_555 1_555
H10 C9 1_555 1_555
H11 C9 1_555 1_555
H12 C9 1_555 1_555
N1 Ni1 1_555 1_555
C10 N1 1_555 1_555
H13 C10 1_555 1_555
C11 C10 1_555 1_555
H14 C11 1_555 1_555
C12 C11 1_555 1_555
C13 C12 1_555 1_555
H15 C13 1_555 1_555
C14 N1 1_555 1_555
H16 C14 1_555 1_555
C12A C12 1_555 1_555
C11A C12A 1_555 1_555
C10A C11A 1_555 1_555
N1A C10A 1_555 1_555
C14A N1A 1_555 1_555
C13A C12A 1_555 1_555
H15A C13A 1_555 1_555
H16A C14A 1_555 1_555
H13A C10A 1_555 1_555
H14A C11A 1_555 1_555
P1A S1A 1_555 1_555
S1A Ni1 1_555 1_555
S2A Ni1 1_555 1_555
C1A P1A 1_555 1_555
C2A C1A 1_555 1_555
H1A C2A 1_555 1_555
C3A C2A 1_555 1_555
H2A C3A 1_555 1_555
C4A C3A 1_555 1_555
C5A C4A 1_555 1_555
H3A C5A 1_555 1_555
C6A C1A 1_555 1_555
H4A C6A 1_555 1_555
O1A P1A 1_555 1_555
C7A H5A 1_555 1_555
H6A C7A 1_555 1_555
H7A C7A 1_555 1_555
O2A C4A 1_555 1_555
C8A O1A 1_555 1_555
H8A C8A 1_555 1_555
H9A C8A 1_555 1_555
C9A C8A 1_555 1_555
H10A C9A 1_555 1_555
H11A C9A 1_555 1_555
H12A C9A 1_555 1_555
N1A_2 Ni1 1_555 1_555
Ni1_2 N1A 1_555 1_555
P1 S2 1_555 1_555
C5 C6 1_555 1_555
C7 O2 1_555 1_555
C13 C14 1_555 1_555
C14A C13A 1_555 1_555
P1A S2A 1_555 1_555
C5A C6A 1_555 1_555
C7A O2A 1_555 1_555

#END
