
#######################################################################
#
#                 Cambridge Crystallographic Data Centre
#                                CCDC 
#
#######################################################################
#
# If this CIF has been generated from an entry in the Cambridge 
# Structural Database, then it will include bibliographic, chemical, 
# crystal, experimental, refinement or atomic coordinate data resulting 
# from the CCDC's data processing and validation procedures.
#
#######################################################################

data_EYEQOO
_symmetry_cell_setting           monoclinic
_symmetry_space_group_name_H-M   'P 21/n'
_symmetry_Int_Tables_number      14
_space_group_name_Hall           '-P 2yn'
loop_
_symmetry_equiv_pos_site_id
_symmetry_equiv_pos_as_xyz
1 x,y,z
2 1/2+x,1/2-y,1/2+z
3 -x,-y,-z
4 1/2-x,1/2+y,1/2-z
_cell_length_a                   10.016(2)
_cell_length_b                   16.724(3)
_cell_length_c                   11.412(2)
_cell_angle_alpha                90
_cell_angle_beta                 103.902(4)
_cell_angle_gamma                90
_cell_volume                     1855.6
loop_
_atom_site_label
_atom_site_type_symbol
_atom_site_fract_x
_atom_site_fract_y
_atom_site_fract_z
Ni1 Ni 0.5000 0.0000 0.0000
P1 P 0.62062(9) -0.01926(5) -0.21179(8)
S1 S 0.44788(8) -0.07289(5) -0.19700(8)
S2 S 0.66835(8) 0.06906(5) -0.09154(8)
C1 C 0.7599(3) -0.08919(19) -0.1999(3)
O1 O 0.6075(2) 0.01252(13) -0.3462(2)
C2 C 0.7383(4) -0.1646(2) -0.2541(3)
H1 H 0.6483 -0.1796 -0.2969
O2 O 1.0756(2) -0.25333(13) -0.1778(2)
C3 C 0.8453(4) -0.2174(2) -0.2462(3)
H2 H 0.8292 -0.2680 -0.2849
C4 C 0.9770(3) -0.1969(2) -0.1817(3)
C5 C 1.0003(3) -0.1229(2) -0.1257(3)
H3 H 1.0898 -0.1085 -0.0809
C6 C 0.8915(3) -0.0700(2) -0.1357(3)
H4 H 0.9077 -0.0192 -0.0975
C7 C 1.2090(3) -0.2395(2) -0.0999(3)
H5 H 1.2503 -0.1922 -0.1275
H6 H 1.2677 -0.2862 -0.1018
H7 H 1.2000 -0.2309 -0.0172
C8 C 0.5045(4) 0.0733(2) -0.3939(3)
H8 H 0.4124 0.0503 -0.4046
H9 H 0.5167 0.0923 -0.4719
H10 H 0.5152 0.1183 -0.3373
N1 N 0.3506(3) 0.08816(15) -0.0753(2)
C9 C 0.3788(3) 0.16636(18) -0.0553(3)
H11 H 0.4684 0.1812 -0.0114
C10 C 0.2833(3) 0.2260(2) -0.0955(3)
C11 C 0.1527(4) 0.2039(2) -0.1591(3)
H12 H 0.0841 0.2433 -0.1872
C12 C 0.1236(4) 0.1230(2) -0.1812(3)
H13 H 0.0348 0.1063 -0.2246
C13 C 0.2246(3) 0.0683(2) -0.1396(3)
H14 H 0.2047 0.0135 -0.1569
C14 C 0.3211(4) 0.3111(2) -0.0748(3)
H15 H 0.2507 0.3503 -0.0958
N2 N 0.4431(3) 0.33437(16) -0.0302(3)
C15 C 0.4681(3) 0.41866(19) -0.0148(3)
C16 C 0.3820(4) 0.4705(2) 0.0264(3)
H16 H 0.3013 0.4506 0.0461
C17 C 0.5872(4) 0.4485(2) -0.0391(3)
H17 H 0.6488 0.4132 -0.0649
C17B C 0.4128(4) 0.5515(2) 0.0391(3)
C15B C 0.5319(3) 0.58134(19) 0.0148(3)
N2B N 0.5569(3) 0.66563(16) 0.0302(3)
C14B C 0.6789(4) 0.6889(2) 0.0748(3)
C10B C 0.7167(3) 0.7740(2) 0.0955(3)
C9B C 0.6212(3) 0.83364(18) 0.0553(3)
N1B N 0.6494(3) 0.91184(15) 0.0753(2)
C13B C 0.7754(3) 0.9317(2) 0.1396(3)
C12B C 0.8764(4) 0.8770(2) 0.1812(3)
C11B C 0.8473(4) 0.7961(2) 0.1591(3)
H12B H 0.9159 0.7567 0.1872
H13B H 0.9652 0.8937 0.2246
H14B H 0.7953 0.9865 0.1569
H11B H 0.5316 0.8188 0.0114
H15B H 0.7493 0.6497 0.0958
C16B C 0.6180(4) 0.5295(2) -0.0264(3)
H16B H 0.6987 0.5494 -0.0461
H17B H 0.3512 0.5868 0.0649
P1B P 0.37938(9) 0.01926(5) 0.21179(8)
S1B S 0.55212(8) 0.07289(5) 0.19700(8)
S2B S 0.33165(8) -0.06906(5) 0.09154(8)
C1B C 0.2401(3) 0.08919(19) 0.1999(3)
O1B O 0.3925(2) -0.01252(13) 0.3462(2)
C2B C 0.2617(4) 0.1646(2) 0.2541(3)
H1B H 0.3517 0.1796 0.2969
O2B O -0.0756(2) 0.25333(13) 0.1778(2)
C3B C 0.1547(4) 0.2174(2) 0.2462(3)
H2B H 0.1708 0.2680 0.2849
C4B C 0.0230(3) 0.1969(2) 0.1817(3)
C5B C -0.0003(3) 0.1229(2) 0.1257(3)
H3B H -0.0898 0.1085 0.0809
C6B C 0.1085(3) 0.0700(2) 0.1357(3)
H4B H 0.0923 0.0192 0.0975
C7B C -0.2090(3) 0.2395(2) 0.0999(3)
H5B H -0.2503 0.1922 0.1275
H6B H -0.2677 0.2862 0.1018
H7B H -0.2000 0.2309 0.0172
C8B C 0.4955(4) -0.0733(2) 0.3939(3)
H8B H 0.5876 -0.0503 0.4046
H9B H 0.4833 -0.0923 0.4719
H10B H 0.4848 -0.1183 0.3373
N1B_2 N 0.6494(3) -0.08816(15) 0.0753(2)
Ni1_2 Ni 0.5000 1.0000 0.0000
loop_
_geom_bond_atom_site_label_1
_geom_bond_atom_site_label_2
_geom_bond_site_symmetry_1
_geom_bond_site_symmetry_2
Ni1 S1 1_555 1_555
P1 S1 1_555 1_555
S2 Ni1 1_555 1_555
C1 P1 1_555 1_555
O1 P1 1_555 1_555
C2 C1 1_555 1_555
H1 C2 1_555 1_555
O2 C4 1_555 1_555
C3 C2 1_555 1_555
H2 C3 1_555 1_555
C4 C3 1_555 1_555
C5 C4 1_555 1_555
H3 C5 1_555 1_555
C6 C1 1_555 1_555
H4 C6 1_555 1_555
C7 O2 1_555 1_555
H5 C7 1_555 1_555
H6 C7 1_555 1_555
H7 C7 1_555 1_555
C8 O1 1_555 1_555
H8 C8 1_555 1_555
H9 C8 1_555 1_555
H10 C8 1_555 1_555
N1 Ni1 1_555 1_555
C9 N1 1_555 1_555
H11 C9 1_555 1_555
C10 C9 1_555 1_555
C11 C10 1_555 1_555
H12 C11 1_555 1_555
C12 C11 1_555 1_555
H13 C12 1_555 1_555
C13 N1 1_555 1_555
H14 C13 1_555 1_555
C14 C10 1_555 1_555
H15 C14 1_555 1_555
N2 C14 1_555 1_555
C15 N2 1_555 1_555
C16 C15 1_555 1_555
H16 C16 1_555 1_555
C17 C15 1_555 1_555
H17 C17 1_555 1_555
C17B C16 1_555 1_555
C15B C17B 1_555 1_555
N2B C15B 1_555 1_555
C14B N2B 1_555 1_555
C10B C14B 1_555 1_555
C9B C10B 1_555 1_555
N1B C9B 1_555 1_555
C13B N1B 1_555 1_555
C12B C13B 1_555 1_555
C11B C10B 1_555 1_555
H12B C11B 1_555 1_555
H13B C12B 1_555 1_555
H14B C13B 1_555 1_555
H11B C9B 1_555 1_555
H15B C14B 1_555 1_555
C16B C17 1_555 1_555
H16B C16B 1_555 1_555
H17B C17B 1_555 1_555
P1B S1B 1_555 1_555
S1B Ni1 1_555 1_555
S2B Ni1 1_555 1_555
C1B P1B 1_555 1_555
O1B P1B 1_555 1_555
C2B C1B 1_555 1_555
H1B C2B 1_555 1_555
O2B C4B 1_555 1_555
C3B C2B 1_555 1_555
H2B C3B 1_555 1_555
C4B C3B 1_555 1_555
C5B C4B 1_555 1_555
H3B C5B 1_555 1_555
C6B C1B 1_555 1_555
H4B C6B 1_555 1_555
C7B O2B 1_555 1_555
H5B C7B 1_555 1_555
H6B C7B 1_555 1_555
H7B C7B 1_555 1_555
C8B O1B 1_555 1_555
H8B C8B 1_555 1_555
H9B C8B 1_555 1_555
H10B C8B 1_555 1_555
N1B_2 Ni1 1_555 1_555
Ni1_2 N1B 1_555 1_555
P1 S2 1_555 1_555
C5 C6 1_555 1_555
C12 C13 1_555 1_555
C15B C16B 1_555 1_555
C12B C11B 1_555 1_555
P1B S2B 1_555 1_555
C5B C6B 1_555 1_555

#END
