
#######################################################################
#
#                 Cambridge Crystallographic Data Centre
#                                CCDC 
#
#######################################################################
#
# If this CIF has been generated from an entry in the Cambridge 
# Structural Database, then it will include bibliographic, chemical, 
# crystal, experimental, refinement or atomic coordinate data resulting 
# from the CCDC's data processing and validation procedures.
#
#######################################################################

data_EYERUW
_symmetry_cell_setting           triclinic
_symmetry_space_group_name_H-M   'P -1'
_symmetry_Int_Tables_number      2
_space_group_name_Hall           '-P 1'
loop_
_symmetry_equiv_pos_site_id
_symmetry_equiv_pos_as_xyz
1 x,y,z
2 -x,-y,-z
_cell_length_a                   7.425(7)
_cell_length_b                   8.362(8)
_cell_length_c                   10.010(5)
_cell_angle_alpha                107.71(5)
_cell_angle_beta                 91.36(5)
_cell_angle_gamma                116.01(5)
_cell_volume                     523.043
loop_
_atom_site_label
_atom_site_type_symbol
_atom_site_fract_x
_atom_site_fract_y
_atom_site_fract_z
Cd1 Cd 0.74701(9) 0.49002(9) 0.05925(6)
Br1 Br 0.82908(14) 0.26116(14) -0.14102(10)
Br2 Br 0.67832(14) 0.75816(14) 0.03363(10)
C1 C 0.7012(14) 0.2341(13) 0.2351(10)
H1 H 0.6872 0.1539 0.1433
C2 C 0.6903(16) 0.1657(15) 0.3515(11)
H2 H 0.6702 0.0429 0.3347
C3 C 0.7086(15) 0.2764(15) 0.4814(10)
H3 H 0.6991 0.2311 0.5564
C4 C 0.7424(14) 0.4619(14) 0.5076(9)
C5 C 0.7702(15) 0.5937(16) 0.6489(9)
H4 H 0.7707 0.5564 0.7275
C6 C 0.7957(16) 0.7710(16) 0.6687(10)
H5 H 0.8096 0.8537 0.7594
C7 C 0.8008(16) 0.8279(14) 0.5467(10)
H6 H 0.8164 0.9485 0.5594
C8 C 0.7837(14) 0.7121(13) 0.4144(9)
H7 H 0.7914 0.7543 0.3378
C9 C 0.7546(12) 0.5282(12) 0.3920(9)
N1 N 0.7308(11) 0.4087(11) 0.2552(7)
Cd1A Cd 1.25299(9) 0.50998(9) -0.05925(6)
Cd1A_2 Cd 0.25299(9) 0.50998(9) -0.05925(6)
Br1A Br 1.17092(14) 0.73884(14) 0.14102(10)
Br2A Br 0.32168(14) 0.24184(14) -0.03363(10)
loop_
_geom_bond_atom_site_label_1
_geom_bond_atom_site_label_2
_geom_bond_site_symmetry_1
_geom_bond_site_symmetry_2
Cd1 Br1 1_555 1_555
Br1 Cd1A 1_555 1_555
Br2 Cd1 1_555 1_555
C1 H1 1_555 1_555
C2 C1 1_555 1_555
H2 C2 1_555 1_555
C3 C2 1_555 1_555
H3 C3 1_555 1_555
C4 C3 1_555 1_555
C5 C4 1_555 1_555
H4 C5 1_555 1_555
C6 C5 1_555 1_555
H5 C6 1_555 1_555
C7 C6 1_555 1_555
H6 C7 1_555 1_555
C8 C7 1_555 1_555
H7 C8 1_555 1_555
C9 C4 1_555 1_555
N1 Cd1 1_555 1_555
Cd1A Br1A 1_555 1_555
Cd1A_2 Br2 1_555 1_555
Br1A Cd1 1_555 1_555
Br2A Cd1 1_555 1_555
C1 N1 1_555 1_555
C8 C9 1_555 1_555
C9 N1 1_555 1_555
Cd1A_2 Br2A 1_555 1_555

#END
