
#######################################################################
#
#                 Cambridge Crystallographic Data Centre
#                                CCDC 
#
#######################################################################
#
# If this CIF has been generated from an entry in the Cambridge 
# Structural Database, then it will include bibliographic, chemical, 
# crystal, experimental, refinement or atomic coordinate data resulting 
# from the CCDC's data processing and validation procedures.
#
#######################################################################

data_EYESIL
_symmetry_cell_setting           monoclinic
_symmetry_space_group_name_H-M   'P 21/c'
_symmetry_Int_Tables_number      14
_space_group_name_Hall           '-P 2ybc'
loop_
_symmetry_equiv_pos_site_id
_symmetry_equiv_pos_as_xyz
1 x,y,z
2 -x,1/2+y,1/2-z
3 -x,-y,-z
4 x,1/2-y,1/2+z
_cell_length_a                   8.132(2)
_cell_length_b                   19.362(8)
_cell_length_c                   7.757(5)
_cell_angle_alpha                90
_cell_angle_beta                 90.36(4)
_cell_angle_gamma                90
_cell_volume                     1221.33
loop_
_atom_site_label
_atom_site_type_symbol
_atom_site_fract_x
_atom_site_fract_y
_atom_site_fract_z
Cd1 Cd 0.95040(8) 0.53300(3) 0.75618(8)
I1 I 0.89454(7) 0.40806(3) 0.57606(7)
I2 I 1.24717(7) 0.51129(4) 0.93265(8)
N1 N 0.8010(9) 0.6335(4) 0.7453(9)
C1 C 0.8587(11) 0.6943(5) 0.8052(12)
C2 C 1.0246(13) 0.6930(6) 0.8931(13)
H1 H 1.0189 0.6649 0.995
H2 H 1.0558 0.7392 0.9244
H3 H 1.1048 0.6741 0.8161
C3 C 0.7727(14) 0.7544(5) 0.7807(13)
H4 H 0.819 0.7958 0.8175
C4 C 0.6176(13) 0.7554(5) 0.7021(12)
C5 C 0.5239(17) 0.8202(6) 0.6714(15)
H5 H 0.466 0.817 0.5634
H6 H 0.5986 0.8586 0.668
H7 H 0.4465 0.8269 0.7629
C6 C 0.5583(12) 0.6915(5) 0.6501(12)
H8 H 0.4534 0.6884 0.6022
C7 C 0.6513(11) 0.6330(5) 0.6681(11)
C8 C 0.5904(12) 0.5652(5) 0.5993(12)
H9 H 0.6737 0.5446 0.5289
H10 H 0.4929 0.5726 0.5313
H11 H 0.5655 0.535 0.6937
Cd1B Cd 1.04960(8) 0.46700(3) 0.24382(8)
Cd1B_2 Cd 1.04960(8) 0.46700(3) 1.24382(8)
I1B I 1.10546(7) 0.59194(3) 0.42394(7)
I2B I 0.75283(7) 0.48871(4) 1.06735(8)
loop_
_geom_bond_atom_site_label_1
_geom_bond_atom_site_label_2
_geom_bond_site_symmetry_1
_geom_bond_site_symmetry_2
Cd1 I1 1_555 1_555
I1 Cd1B 1_555 1_555
I2 Cd1 1_555 1_555
N1 Cd1 1_555 1_555
C1 N1 1_555 1_555
C2 C1 1_555 1_555
H1 C2 1_555 1_555
H2 C2 1_555 1_555
H3 C2 1_555 1_555
C3 C1 1_555 1_555
H4 C3 1_555 1_555
C4 C3 1_555 1_555
C5 C4 1_555 1_555
H5 C5 1_555 1_555
H6 C5 1_555 1_555
H7 C5 1_555 1_555
C6 C4 1_555 1_555
H8 C6 1_555 1_555
C7 N1 1_555 1_555
C8 C7 1_555 1_555
H9 C8 1_555 1_555
H10 C8 1_555 1_555
H11 C8 1_555 1_555
Cd1B I1B 1_555 1_555
Cd1B_2 I2 1_555 1_555
I1B Cd1 1_555 1_555
I2B Cd1 1_555 1_555
C6 C7 1_555 1_555
Cd1B_2 I2B 1_555 1_555

#END
