
#######################################################################
#
#                 Cambridge Crystallographic Data Centre
#                                CCDC 
#
#######################################################################
#
# If this CIF has been generated from an entry in the Cambridge 
# Structural Database, then it will include bibliographic, chemical, 
# crystal, experimental, refinement or atomic coordinate data resulting 
# from the CCDC's data processing and validation procedures.
#
#######################################################################

data_EYETOS
_symmetry_cell_setting           tetragonal
_symmetry_space_group_name_H-M   'P -4 21 c'
_symmetry_Int_Tables_number      114
_space_group_name_Hall           'P -4 2n'
loop_
_symmetry_equiv_pos_site_id
_symmetry_equiv_pos_as_xyz
1 x,y,z
2 -x,-y,z
3 1/2+x,1/2-y,1/2-z
4 1/2-x,1/2+y,1/2-z
5 1/2+y,1/2+x,1/2+z
6 1/2-y,1/2-x,1/2+z
7 -y,x,-z
8 y,-x,-z
_cell_length_a                   15.07370(10)
_cell_length_b                   15.07370(10)
_cell_length_c                   7.42860(10)
_cell_angle_alpha                90
_cell_angle_beta                 90
_cell_angle_gamma                90
_cell_volume                     1687.9
loop_
_atom_site_label
_atom_site_type_symbol
_atom_site_fract_x
_atom_site_fract_y
_atom_site_fract_z
Cd1 Cd 0.50000 0.00000 0.216052(11)
Cl1 Cl 0.417301(15) -0.088005(15) 0.46425(3)
N1 N 0.39198(6) 0.12050(6) 0.20269(13)
C1 C 0.42977(7) 0.19936(7) 0.18483(15)
H1 H 0.4925 0.2028 0.1948
C2 C 0.38257(7) 0.27862(7) 0.15187(16)
H2 H 0.413 0.3336 0.1407
C3 C 0.29199(9) 0.27481(8) 0.13632(16)
H3 H 0.2588 0.327 0.1117
C4 C 0.24893(7) 0.19287(7) 0.15721(16)
C5 C 0.15473(8) 0.18385(8) 0.14469(18)
H4 H 0.1192 0.2346 0.1208
C6 C 0.11560(8) 0.10338(8) 0.16668(18)
H5 H 0.0529 0.0982 0.159
C7 C 0.16765(7) 0.02731(8) 0.20087(16)
H6 H 0.1395 -0.0286 0.2164
C8 C 0.25798(7) 0.03308(7) 0.21189(16)
H7 H 0.2921 -0.0188 0.2339
C9 C 0.30100(7) 0.11630(7) 0.19060(14)
Cd1D Cd 0.50000 0.00000 0.716052(11)
Cl1D Cl 0.411995(15) -0.082699(15) -0.03575(3)
Cl1E Cl 0.588005(15) 0.082699(15) -0.03575(3)
Cl1A Cl 0.582699(15) 0.088005(15) 0.46425(3)
N1A N 0.60802(6) -0.12050(6) 0.20269(13)
C1A C 0.57023(7) -0.19936(7) 0.18483(15)
H1A H 0.5075 -0.2028 0.1948
C2A C 0.61743(7) -0.27862(7) 0.15187(16)
H2A H 0.587 -0.3336 0.1407
C3A C 0.70801(9) -0.27481(8) 0.13632(16)
H3A H 0.7412 -0.327 0.1117
C4A C 0.75107(7) -0.19287(7) 0.15721(16)
C5A C 0.84527(8) -0.18385(8) 0.14469(18)
H4A H 0.8808 -0.2346 0.1208
C6A C 0.88440(8) -0.10338(8) 0.16668(18)
H5A H 0.9471 -0.0982 0.159
C7A C 0.83235(7) -0.02731(8) 0.20087(16)
H6A H 0.8605 0.0286 0.2164
C8A C 0.74202(7) -0.03308(7) 0.21189(16)
H7A H 0.7079 0.0188 0.2339
C9A C 0.69900(7) -0.11630(7) 0.19060(14)
loop_
_geom_bond_atom_site_label_1
_geom_bond_atom_site_label_2
_geom_bond_site_symmetry_1
_geom_bond_site_symmetry_2
Cd1 Cl1 1_555 1_555
Cl1 Cd1D 1_555 1_555
N1 Cd1 1_555 1_555
C1 N1 1_555 1_555
H1 C1 1_555 1_555
C2 C1 1_555 1_555
H2 C2 1_555 1_555
C3 C2 1_555 1_555
H3 C3 1_555 1_555
C4 C3 1_555 1_555
C5 C4 1_555 1_555
H4 C5 1_555 1_555
C6 C5 1_555 1_555
H5 C6 1_555 1_555
C7 C6 1_555 1_555
H6 C7 1_555 1_555
C8 C7 1_555 1_555
H7 C8 1_555 1_555
C9 N1 1_555 1_555
Cd1D Cl1A 1_555 1_555
Cl1D Cd1 1_555 1_555
Cl1E Cd1 1_555 1_555
Cl1A Cd1 1_555 1_555
N1A Cd1 1_555 1_555
C1A N1A 1_555 1_555
H1A C1A 1_555 1_555
C2A C1A 1_555 1_555
H2A C2A 1_555 1_555
C3A C2A 1_555 1_555
H3A C3A 1_555 1_555
C4A C3A 1_555 1_555
C5A C4A 1_555 1_555
H4A C5A 1_555 1_555
C6A C5A 1_555 1_555
H5A C6A 1_555 1_555
C7A C6A 1_555 1_555
H6A C7A 1_555 1_555
C8A C7A 1_555 1_555
H7A C8A 1_555 1_555
C9A N1A 1_555 1_555
C4 C9 1_555 1_555
C8 C9 1_555 1_555
C4A C9A 1_555 1_555
C8A C9A 1_555 1_555

#END
