
#######################################################################
#
#                 Cambridge Crystallographic Data Centre
#                                CCDC 
#
#######################################################################
#
# If this CIF has been generated from an entry in the Cambridge 
# Structural Database, then it will include bibliographic, chemical, 
# crystal, experimental, refinement or atomic coordinate data resulting 
# from the CCDC's data processing and validation procedures.
#
#######################################################################

data_EYEVOU
_symmetry_cell_setting           monoclinic
_symmetry_space_group_name_H-M   'C 2/c'
_symmetry_Int_Tables_number      15
_space_group_name_Hall           '-C 2yn'
loop_
_symmetry_equiv_pos_site_id
_symmetry_equiv_pos_as_xyz
1 x,y,z
2 -x,y,1/2-z
3 1/2+x,1/2+y,z
4 1/2-x,1/2+y,1/2-z
5 -x,-y,-z
6 x,-y,1/2+z
7 1/2-x,1/2-y,-z
8 1/2+x,1/2-y,1/2+z
_cell_length_a                   22.492(3)
_cell_length_b                   10.8855(16)
_cell_length_c                   18.331(3)
_cell_angle_alpha                90
_cell_angle_beta                 101.308(2)
_cell_angle_gamma                90
_cell_volume                     4400.97
loop_
_atom_site_label
_atom_site_type_symbol
_atom_site_fract_x
_atom_site_fract_y
_atom_site_fract_z
Ag1 Ag 0.733255(12) 0.67541(3) 0.780389(15)
C1 C 0.83295(15) 0.3910(3) 0.97952(16)
H1 H 0.8659 0.4280 1.0103
C2 C 0.78331(14) 0.4605(3) 0.94994(16)
C3 C 0.73304(14) 0.4037(3) 0.90273(16)
C4 C 0.67901(15) 0.4669(3) 0.87350(17)
H2 H 0.6760 0.5497 0.8847
C5 C 0.63099(15) 0.4108(3) 0.82931(19)
H3 H 0.5960 0.4553 0.8106
C6 C 0.63418(17) 0.2869(3) 0.8122(2)
H4 H 0.6014 0.2488 0.7818
C7 C 0.68544(15) 0.2205(3) 0.83991(17)
H5 H 0.6869 0.1376 0.8282
C8 C 0.73607(14) 0.2757(3) 0.88581(16)
C9 C 0.78825(14) 0.2070(3) 0.91852(16)
C10 C 0.83504(15) 0.2648(3) 0.96416(17)
H6 H 0.8691 0.2196 0.9856
C11 C 0.78223(15) 0.5944(3) 0.96942(17)
H7 H 0.8090 0.6070 1.0172
H8 H 0.7415 0.6155 0.9752
C12 C 0.79170(15) 0.0720(3) 0.90414(16)
H9 H 0.7521 0.0361 0.9034
H10 H 0.8198 0.0351 0.9452
C13 C 0.87873(14) 0.6477(3) 0.89913(17)
C14 C 0.89020(16) 0.5812(3) 0.83967(18)
H11 H 0.8585 0.5575 0.8017
C15 C 0.94907(19) 0.5501(4) 0.8369(2)
H12 H 0.9569 0.5063 0.7963
C16 C 0.99598(19) 0.5823(4) 0.8926(3)
H13 H 1.0356 0.5623 0.8896
C17 C 0.98424(19) 0.6446(4) 0.9534(3)
H14 H 1.0159 0.6638 0.9925
C18 C 0.92622(17) 0.6786(3) 0.9566(2)
H15 H 0.9186 0.7224 0.9974
C19 C 0.89431(14) 0.0706(3) 0.84064(16)
C20 C 0.91633(16) 0.1845(3) 0.8286(2)
H16 H 0.8900 0.2470 0.8082
C21 C 0.97802(18) 0.2058(4) 0.8471(2)
H17 H 0.9932 0.2826 0.8380
C22 C 1.01700(18) 0.1160(4) 0.8786(2)
H18 H 1.0584 0.1317 0.8917
C23 C 0.99482(19) 0.0034(4) 0.8905(3)
H19 H 1.0213 -0.0583 0.9117
C24 C 0.93353(18) -0.0205(4) 0.8717(2)
H20 H 0.9188 -0.0980 0.8800
N1 N 0.65146(12) 0.8612(2) 0.83267(15)
O1 O 0.68523(12) 0.8799(2) 0.78757(14)
O2 O 0.65367(13) 0.7609(2) 0.86454(16)
O3 O 0.61750(15) 0.9417(3) 0.84602(18)
S1 S 0.80473(4) 0.70088(6) 0.90208(4)
S2 S 0.81577(3) 0.03191(7) 0.81693(4)
Ag1C Ag 0.766745(12) 0.17541(3) 0.719611(15)
S2C S 0.68423(3) 0.53191(7) 0.68307(4)
loop_
_geom_bond_atom_site_label_1
_geom_bond_atom_site_label_2
_geom_bond_site_symmetry_1
_geom_bond_site_symmetry_2
Ag1 O1 1_555 1_555
C1 H1 1_555 1_555
C2 C1 1_555 1_555
C3 C2 1_555 1_555
C4 C3 1_555 1_555
H2 C4 1_555 1_555
C5 C4 1_555 1_555
H3 C5 1_555 1_555
C6 C5 1_555 1_555
H4 C6 1_555 1_555
C7 C6 1_555 1_555
H5 C7 1_555 1_555
C8 C3 1_555 1_555
C9 C8 1_555 1_555
C10 C1 1_555 1_555
H6 C10 1_555 1_555
C11 C2 1_555 1_555
H7 C11 1_555 1_555
H8 C11 1_555 1_555
C12 C9 1_555 1_555
H9 C12 1_555 1_555
H10 C12 1_555 1_555
C13 C14 1_555 1_555
C14 H11 1_555 1_555
C15 C14 1_555 1_555
H12 C15 1_555 1_555
C16 C15 1_555 1_555
H13 C16 1_555 1_555
C17 C16 1_555 1_555
H14 C17 1_555 1_555
C18 C13 1_555 1_555
H15 C18 1_555 1_555
C19 C20 1_555 1_555
C20 H16 1_555 1_555
C21 C20 1_555 1_555
H17 C21 1_555 1_555
C22 C21 1_555 1_555
H18 C22 1_555 1_555
C23 C22 1_555 1_555
H19 C23 1_555 1_555
C24 C19 1_555 1_555
H20 C24 1_555 1_555
N1 O1 1_555 1_555
O2 N1 1_555 1_555
O3 N1 1_555 1_555
S1 Ag1 1_555 1_555
S2 C12 1_555 1_555
Ag1C S2 1_555 1_555
S2C Ag1 1_555 1_555
C7 C8 1_555 1_555
C9 C10 1_555 1_555
C11 S1 1_555 1_555
C13 S1 1_555 1_555
C17 C18 1_555 1_555
C19 S2 1_555 1_555
C23 C24 1_555 1_555

#END
