
#######################################################################
#
#                 Cambridge Crystallographic Data Centre
#                                CCDC 
#
#######################################################################
#
# If this CIF has been generated from an entry in the Cambridge 
# Structural Database, then it will include bibliographic, chemical, 
# crystal, experimental, refinement or atomic coordinate data resulting 
# from the CCDC's data processing and validation procedures.
#
#######################################################################

data_EYEYIR
_symmetry_cell_setting           triclinic
_symmetry_space_group_name_H-M   'P -1'
_symmetry_Int_Tables_number      2
_space_group_name_Hall           '-P 1'
loop_
_symmetry_equiv_pos_site_id
_symmetry_equiv_pos_as_xyz
1 x,y,z
2 -x,-y,-z
_cell_length_a                   7.776(1)
_cell_length_b                   10.163(1)
_cell_length_c                   17.687(2)
_cell_angle_alpha                102.331(1)
_cell_angle_beta                 100.353(1)
_cell_angle_gamma                102.977(1)
_cell_volume                     1292.03
loop_
_atom_site_label
_atom_site_type_symbol
_atom_site_fract_x
_atom_site_fract_y
_atom_site_fract_z
Zn1 Zn 1.09959(3) 0.39223(2) -0.001536(12)
O1 O 0.4991(2) 0.09730(14) 0.35112(8)
O2 O 0.11249(19) -0.28306(15) 0.09942(8)
C1 C 1.2940(3) 0.0429(2) 0.03114(13)
H1 H 1.2579 -0.0285 0.0550
C2 C 0.7191(3) 0.33021(19) 0.14516(11)
C3 C 1.4438(2) 0.04994(18) -0.00226(11)
O3 O 0.6891(2) -0.26601(17) 0.46335(9)
H2 H 0.7244 -0.3180 0.4884
O4 O 0.7909(2) 0.49305(15) 0.07050(9)
C4 C 0.8231(3) 0.38776(19) 0.09055(11)
O5 O 0.5547(3) -0.46670(18) 0.37041(11)
O6 O 0.2495(2) -0.45340(15) 0.10099(8)
C5 C 1.3826(3) 0.2510(2) -0.03982(12)
H3 H 1.4133 0.3219 -0.0647
O7 O 0.9358(2) 0.32624(15) 0.06765(9)
N1 N 1.2415(2) 0.24553(16) -0.00588(9)
C6 C 0.4168(3) -0.3286(2) 0.26312(12)
H4 H 0.4024 -0.4241 0.2445
C7 C 0.4706(3) 0.3185(2) 0.20887(12)
H5 H 0.3668 0.3453 0.2164
C9 C 0.6745(3) 0.1793(2) 0.23254(12)
H6 H 0.7119 0.1150 0.2573
C10 C 0.3409(3) -0.25802(19) 0.21372(11)
C11 C 1.4842(3) 0.1564(2) -0.03958(12)
H7 H 1.5803 0.1637 -0.0645
C12 C 0.4191(3) 0.1783(2) 0.30551(13)
H8 H 0.4096 0.2612 0.3417
H9 H 0.2970 0.1237 0.2764
C13 C 0.5883(3) -0.3409(2) 0.39244(13)
C14 C 0.4655(3) -0.0434(2) 0.31794(12)
C15 C 0.2255(3) -0.33779(19) 0.13164(11)
C16 C 0.7691(3) 0.2308(2) 0.18119(12)
H10 H 0.8675 0.1986 0.1706
C17 C 0.5151(3) -0.2579(2) 0.34073(12)
C18 C 0.3643(3) -0.1139(2) 0.24123(11)
H11 H 0.3125 -0.0659 0.2083
C19 C 0.5684(3) 0.3741(2) 0.16001(12)
H12 H 0.5336 0.4410 0.1369
C20 C 0.5243(3) 0.22276(19) 0.24733(12)
C21 C 1.1997(3) 0.1417(2) 0.02870(13)
H13 H 1.1017 0.1360 0.0523
C28 C 0.5393(3) -0.1152(2) 0.36786(12)
H19 H 0.6050 -0.0674 0.4196
Zn1A Zn -0.09959(3) -0.39223(2) 0.001536(12)
Zn1A_2 Zn 0.90041(3) 0.60777(2) 0.001536(12)
Zn1_2 Zn 0.09959(3) -0.60777(2) -0.001536(12)
Zn1A_3 Zn 1.90041(3) -0.39223(2) 0.001536(12)
O1A O 0.5009(2) -0.09730(14) -0.35112(8)
O2A O 0.88751(19) 0.28306(15) -0.09942(8)
C1A C 1.7060(3) -0.0429(2) -0.03114(13)
H1A H 1.7421 0.0285 -0.0550
C2A C 0.2809(3) -0.33021(19) -0.14516(11)
C3A C 1.5562(2) -0.04994(18) 0.00226(11)
O3A O 0.3109(2) 0.26601(17) -0.46335(9)
H2A H 0.2756 0.3180 -0.4884
O4A O 0.2091(2) -0.49305(15) -0.07050(9)
O4A_2 O 1.2091(2) 0.50695(15) -0.07050(9)
O4_2 O -0.2091(2) -0.50695(15) 0.07050(9)
C4A C 0.1769(3) -0.38776(19) -0.09055(11)
O5A O 0.4453(3) 0.46670(18) -0.37041(11)
O6A O 0.7505(2) 0.45340(15) -0.10099(8)
O6_2 O 1.2495(2) 0.54660(15) 0.10099(8)
O6A_2 O -0.2495(2) -0.54660(15) -0.10099(8)
C5A C 1.6174(3) -0.2510(2) 0.03982(12)
H3A H 1.5867 -0.3219 0.0647
O7A O 0.0642(2) -0.32624(15) -0.06765(9)
N1A N 1.7585(2) -0.24553(16) 0.00588(9)
N1A_2 N -0.2415(2) -0.24553(16) 0.00588(9)
C6A C 0.5832(3) 0.3286(2) -0.26312(12)
H4A H 0.5976 0.4241 -0.2445
C7A C 0.5294(3) -0.3185(2) -0.20887(12)
H5A H 0.6332 -0.3453 -0.2164
C9A C 0.3255(3) -0.1793(2) -0.23254(12)
H6A H 0.2881 -0.1150 -0.2573
C10A C 0.6591(3) 0.25802(19) -0.21372(11)
C11A C 1.5158(3) -0.1564(2) 0.03958(12)
H7A H 1.4197 -0.1637 0.0645
C12A C 0.5809(3) -0.1783(2) -0.30551(13)
H8A H 0.5904 -0.2612 -0.3417
H9A H 0.7030 -0.1237 -0.2764
C13A C 0.4117(3) 0.3409(2) -0.39244(13)
C14A C 0.5345(3) 0.0434(2) -0.31794(12)
C15A C 0.7745(3) 0.33779(19) -0.13164(11)
C16A C 0.2309(3) -0.2308(2) -0.18119(12)
H10A H 0.1325 -0.1986 -0.1706
C17A C 0.4849(3) 0.2579(2) -0.34073(12)
C18A C 0.6357(3) 0.1139(2) -0.24123(11)
H11A H 0.6875 0.0659 -0.2083
C19A C 0.4316(3) -0.3741(2) -0.16001(12)
H12A H 0.4664 -0.4410 -0.1369
C20A C 0.4757(3) -0.22276(19) -0.24733(12)
C21A C 1.8003(3) -0.1417(2) -0.02870(13)
H13A H 1.8983 -0.1360 -0.0523
C28A C 0.4607(3) 0.1152(2) -0.36786(12)
H19A H 0.3950 0.0674 -0.4196
N2 N 0.1872(3) 0.4381(2) 0.45709(13)
C8 C 0.0325(3) 0.7608(2) 0.36167(13)
C22 C 0.2164(4) 0.6792(3) 0.46396(16)
H14 H 0.2752 0.7720 0.4915
N3 N -0.0521(3) 0.9764(3) 0.29804(15)
C23 C 0.0307(4) 0.9990(3) 0.37294(18)
H15 H 0.0623 1.0902 0.4051
C24 C -0.0565(4) 0.7357(3) 0.28267(15)
H16 H -0.0907 0.6457 0.2488
C25 C 0.2624(4) 0.5729(3) 0.49234(17)
H17 H 0.3521 0.5972 0.5393
C26 C 0.0835(3) 0.6488(2) 0.39484(13)
C27 C 0.0030(4) 0.5085(3) 0.35858(16)
H18 H -0.0891 0.4813 0.3122
C29 C 0.0743(4) 0.8978(3) 0.40749(16)
H20 H 0.1317 0.9213 0.4613
C30 C 0.0584(5) 0.4086(3) 0.39061(17)
H21 H 0.0024 0.3149 0.3642
C31 C -0.0940(4) 0.8456(3) 0.25460(17)
H22 H -0.1530 0.8259 0.2012
loop_
_geom_bond_atom_site_label_1
_geom_bond_atom_site_label_2
_geom_bond_site_symmetry_1
_geom_bond_site_symmetry_2
Zn1 O7 1_555 1_555
O1 C12 1_555 1_555
O2 C15 1_555 1_555
C1 H1 1_555 1_555
C2 C4 1_555 1_555
C3 C1 1_555 1_555
O3 H2 1_555 1_555
O4 C4 1_555 1_555
C4 O7 1_555 1_555
O5 C13 1_555 1_555
O6 C15 1_555 1_555
C5 H3 1_555 1_555
N1 Zn1 1_555 1_555
N2 C25 1_555 1_555
C6 H4 1_555 1_555
C7 H5 1_555 1_555
C8 C24 1_555 1_555
C9 H6 1_555 1_555
C10 C6 1_555 1_555
C11 C3 1_555 1_555
H7 C11 1_555 1_555
C12 H8 1_555 1_555
H9 C12 1_555 1_555
C13 O3 1_555 1_555
C14 O1 1_555 1_555
C15 C10 1_555 1_555
C16 C2 1_555 1_555
H10 C16 1_555 1_555
C17 C6 1_555 1_555
C18 C10 1_555 1_555
H11 C18 1_555 1_555
C19 C2 1_555 1_555
H12 C19 1_555 1_555
C20 C7 1_555 1_555
C21 C1 1_555 1_555
H13 C21 1_555 1_555
C22 H14 1_555 1_555
N3 C23 1_555 1_555
C23 H15 1_555 1_555
C24 H16 1_555 1_555
C25 C22 1_555 1_555
H17 C25 1_555 1_555
C26 C8 1_555 1_555
C27 C26 1_555 1_555
H18 C27 1_555 1_555
C28 C14 1_555 1_555
H19 C28 1_555 1_555
C29 C8 1_555 1_555
H20 C29 1_555 1_555
C30 N2 1_555 1_555
H21 C30 1_555 1_555
C31 N3 1_555 1_555
H22 C31 1_555 1_555
Zn1A O2 1_555 1_555
Zn1A_2 O4 1_555 1_555
Zn1_2 O6 1_555 1_555
Zn1A_3 N1A 1_555 1_555
O1A C12A 1_555 1_555
O2A Zn1 1_555 1_555
C1A H1A 1_555 1_555
C2A C4A 1_555 1_555
C3A C3 1_555 1_555
O3A H2A 1_555 1_555
O4A Zn1_2 1_555 1_555
O4A_2 Zn1 1_555 1_555
O4_2 Zn1A 1_555 1_555
C4A O4A 1_555 1_555
O5A C13A 1_555 1_555
O6A Zn1A_2 1_555 1_555
O6_2 Zn1 1_555 1_555
O6A_2 Zn1A 1_555 1_555
C5A H3A 1_555 1_555
O7A Zn1A 1_555 1_555
N1A C5A 1_555 1_555
N1A_2 Zn1A 1_555 1_555
C6A H4A 1_555 1_555
C7A H5A 1_555 1_555
C9A H6A 1_555 1_555
C10A C6A 1_555 1_555
C11A C3A 1_555 1_555
H7A C11A 1_555 1_555
C12A H8A 1_555 1_555
H9A C12A 1_555 1_555
C13A O3A 1_555 1_555
C14A O1A 1_555 1_555
C15A O2A 1_555 1_555
C16A C2A 1_555 1_555
H10A C16A 1_555 1_555
C17A C6A 1_555 1_555
C18A C10A 1_555 1_555
H11A C18A 1_555 1_555
C19A C2A 1_555 1_555
H12A C19A 1_555 1_555
C20A C7A 1_555 1_555
C21A C1A 1_555 1_555
H13A C21A 1_555 1_555
C28A C14A 1_555 1_555
H19A C28A 1_555 1_555
C5 N1 1_555 1_555
C5 C11 1_555 1_555
N1 C21 1_555 1_555
C7 C19 1_555 1_555
C9 C16 1_555 1_555
C9 C20 1_555 1_555
C12 C20 1_555 1_555
C13 C17 1_555 1_555
C14 C18 1_555 1_555
C17 C28 1_555 1_555
C22 C26 1_555 1_555
C23 C29 1_555 1_555
C24 C31 1_555 1_555
C27 C30 1_555 1_555
C1A C3A 1_555 1_555
C4A O7A 1_555 1_555
O6A C15A 1_555 1_555
C5A C11A 1_555 1_555
N1A C21A 1_555 1_555
C7A C19A 1_555 1_555
C9A C16A 1_555 1_555
C9A C20A 1_555 1_555
C10A C15A 1_555 1_555
C12A C20A 1_555 1_555
C13A C17A 1_555 1_555
C14A C18A 1_555 1_555
C17A C28A 1_555 1_555

#END
