
#######################################################################
#
#                 Cambridge Crystallographic Data Centre
#                                CCDC 
#
#######################################################################
#
# If this CIF has been generated from an entry in the Cambridge 
# Structural Database, then it will include bibliographic, chemical, 
# crystal, experimental, refinement or atomic coordinate data resulting 
# from the CCDC's data processing and validation procedures.
#
#######################################################################

data_EYEYAJ
_symmetry_cell_setting           monoclinic
_symmetry_space_group_name_H-M   'P 21/c'
_symmetry_Int_Tables_number      14
_space_group_name_Hall           '-P 2ybc'
loop_
_symmetry_equiv_pos_site_id
_symmetry_equiv_pos_as_xyz
1 x,y,z
2 -x,1/2+y,1/2-z
3 -x,-y,-z
4 x,1/2-y,1/2+z
_cell_length_a                   13.5827(7)
_cell_length_b                   16.4801(9)
_cell_length_c                   21.5506(8)
_cell_angle_alpha                90
_cell_angle_beta                 124.813(2)
_cell_angle_gamma                90
_cell_volume                     3960.58
loop_
_atom_site_label
_atom_site_type_symbol
_atom_site_fract_x
_atom_site_fract_y
_atom_site_fract_z
C1 C 1.0980(5) 0.7672(3) 1.0398(3)
C2 C 1.1360(5) 0.7699(4) 1.1155(3)
H1 H 1.2196 0.7712 1.1541
C3 C 1.0581(5) 0.7707(4) 1.1359(3)
H2 H 1.0874 0.7735 1.1877
C4 C 0.9357(5) 0.7674(4) 1.0809(3)
H3 H 0.8805 0.7684 1.0946
C5 C 0.8956(5) 0.7626(4) 1.0064(3)
H4 H 0.8116 0.7606 0.9689
C6 C 0.9731(5) 0.7606(3) 0.9831(3)
C7 C 0.9166(5) 0.7502(3) 0.9007(3)
C8 C 0.9767(5) 0.7678(4) 0.7673(3)
H5 H 0.9376 0.7615 0.7143
C9 C 0.3886(5) 0.7693(3) 0.4552(3)
C10 C 0.3475(5) 0.7764(4) 0.3796(3)
H6 H 0.2635 0.7766 0.3418
C11 C 0.4248(6) 0.7832(5) 0.3581(3)
H7 H 0.3941 0.7874 0.3061
C12 C 0.5478(5) 0.7840(5) 0.4123(3)
H8 H 0.6018 0.7903 0.3980
C13 C 0.5898(5) 0.7755(4) 0.4867(3)
H9 H 0.6740 0.7763 0.5237
C14 C 0.5138(5) 0.7658(3) 0.5106(3)
C15 C 0.5728(5) 0.7518(3) 0.5922(3)
C16 C 0.5151(5) 0.7530(4) 0.7276(3)
H10 H 0.5550 0.7421 0.7800
C17 C 0.6568(8) 0.5411(5) 0.7107(4)
H11 H 0.5817 0.5682 0.6855
C18 C 0.6579(9) 0.4560(5) 0.7094(5)
H12 H 0.5850 0.4261 0.6837
C19 C 0.7642(10) 0.4177(5) 0.7453(5)
H13 H 0.7681 0.3601 0.7456
C20 C 0.8633(9) 0.4619(6) 0.7801(5)
H14 H 0.9392 0.4358 0.8055
C21 C 0.8571(7) 0.5452(5) 0.7799(4)
H15 H 0.9299 0.5751 0.8058
C22 C 1.1407(8) 0.9681(5) 0.8855(4)
H16 H 1.0621 0.9541 0.8440
C23 C 1.1803(11) 1.0479(6) 0.8931(6)
H17 H 1.1284 1.0885 0.8585
C24 C 1.2934(11) 1.0662(6) 0.9504(6)
H18 H 1.3219 1.1201 0.9551
C25 C 1.3672(9) 1.0095(6) 1.0012(6)
H19 H 1.4464 1.0225 1.0425
C26 C 1.3222(7) 0.9319(4) 0.9905(4)
H20 H 1.3741 0.8909 1.0246
C27 C 1.1749(7) 0.5745(4) 1.0057(4)
H21 H 1.1301 0.6134 0.9666
C28 C 1.1258(9) 0.4983(6) 0.9963(6)
H22 H 1.0492 0.4850 0.9523
C29 C 1.1911(11) 0.4430(6) 1.0522(7)
H23 H 1.1609 0.3897 1.0473
C30 C 1.2986(10) 0.4638(6) 1.1146(6)
H24 H 1.3447 0.4259 1.1542
C31 C 1.3399(8) 0.5410(5) 1.1193(4)
H25 H 1.4155 0.5558 1.1634
N1 N 0.9804(4) 0.7644(3) 0.8736(2)
N2 N 0.9132(4) 0.7530(3) 0.7942(2)
N3 N 0.5088(4) 0.7587(3) 0.6210(2)
N4 N 0.5775(4) 0.7444(3) 0.6996(2)
N5 N 0.7559(5) 0.5851(3) 0.7457(3)
N6 N 1.2107(5) 0.9109(3) 0.9353(3)
N7 N 1.2793(5) 0.5963(3) 1.0651(3)
O1 O 1.1803(3) 0.7705(2) 1.02352(18)
O2 O 0.8074(3) 0.7274(2) 0.85977(19)
O3 O 1.0851(3) 0.7896(3) 0.8052(2)
O4 O 0.3076(3) 0.7658(2) 0.47259(18)
O5 O 0.6839(3) 0.7344(2) 0.6324(2)
O6 O 0.4069(4) 0.7743(3) 0.6920(2)
Zn1 Zn 0.74749(6) 0.71085(4) 0.74624(3)
Zn2 Zn 1.33867(5) 0.71311(4) 1.07779(3)
Zn3 Zn 1.15175(5) 0.79361(4) 0.91928(3)
N3C N 1.5088(4) 0.7413(3) 1.1210(2)
O4C O 1.3076(3) 0.7342(2) 0.97259(18)
O6C O 1.4069(4) 0.7257(3) 1.1920(2)
Zn2C Zn 0.33867(5) 0.78689(4) 0.57779(3)
Zn3C Zn 0.15175(5) 0.70639(4) 0.41928(3)
C32 C 0.3098(12) 0.4142(6) 0.6623(7)
H26 H 0.3974 0.4173 0.6960
H27 H 0.2862 0.3801 0.6186
H28 H 0.2787 0.3905 0.6896
C33 C 0.1414(9) 0.4996(7) 0.5750(6)
H29 H 0.1258 0.5562 0.5578
H30 H 0.0883 0.4841 0.5901
H31 H 0.1263 0.4644 0.5338
C34 C 0.3387(10) 0.5549(6) 0.6712(6)
H32 H 0.3092 0.6066 0.6483
N8 N 0.2630(7) 0.4914(5) 0.6378(4)
O7 O 0.4402(7) 0.5526(4) 0.7273(5)
N9 N 0.2781(12) 0.4966(8) 0.8470(10)
O8 O 0.0857(8) 0.5497(6) 0.7686(6)
C35 C 0.1875(14) 0.5443(10) 0.8037(13)
H33 H 0.2183 0.5944 0.7999
C36 C 0.2254(12) 0.4443(9) 0.8707(11)
H34 H 0.1530 0.4695 0.8618
H35 H 0.2821 0.4331 0.9248
H36 H 0.2039 0.3933 0.8423
C37 C 0.4054(11) 0.4978(8) 0.8936(10)
H37 H 0.4343 0.5450 0.8807
H38 H 0.4362 0.4480 0.8856
H39 H 0.4336 0.5013 0.9468
loop_
_geom_bond_atom_site_label_1
_geom_bond_atom_site_label_2
_geom_bond_site_symmetry_1
_geom_bond_site_symmetry_2
C1 C2 1_555 1_555
C2 H1 1_555 1_555
C3 C2 1_555 1_555
H2 C3 1_555 1_555
C4 C3 1_555 1_555
H3 C4 1_555 1_555
C5 C4 1_555 1_555
H4 C5 1_555 1_555
C6 C1 1_555 1_555
C7 C6 1_555 1_555
C8 H5 1_555 1_555
C9 C10 1_555 1_555
C10 H6 1_555 1_555
C11 C10 1_555 1_555
H7 C11 1_555 1_555
C12 C11 1_555 1_555
H8 C12 1_555 1_555
C13 C12 1_555 1_555
H9 C13 1_555 1_555
C14 C9 1_555 1_555
C15 C14 1_555 1_555
C16 H10 1_555 1_555
C17 H11 1_555 1_555
C18 C17 1_555 1_555
H12 C18 1_555 1_555
C19 C18 1_555 1_555
H13 C19 1_555 1_555
C20 C19 1_555 1_555
H14 C20 1_555 1_555
C21 C20 1_555 1_555
H15 C21 1_555 1_555
C22 H16 1_555 1_555
C23 C22 1_555 1_555
H17 C23 1_555 1_555
C24 C23 1_555 1_555
H18 C24 1_555 1_555
C25 C24 1_555 1_555
H19 C25 1_555 1_555
C26 C25 1_555 1_555
H20 C26 1_555 1_555
C27 H21 1_555 1_555
C28 C27 1_555 1_555
H22 C28 1_555 1_555
C29 C28 1_555 1_555
H23 C29 1_555 1_555
C30 C29 1_555 1_555
H24 C30 1_555 1_555
C31 C30 1_555 1_555
H25 C31 1_555 1_555
C32 H26 1_555 1_555
H27 C32 1_555 1_555
H28 C32 1_555 1_555
C33 H29 1_555 1_555
H30 C33 1_555 1_555
H31 C33 1_555 1_555
C34 H32 1_555 1_555
N1 C7 1_555 1_555
N2 C8 1_555 1_555
N3 C15 1_555 1_555
N4 C16 1_555 1_555
N5 C17 1_555 1_555
N6 C22 1_555 1_555
N7 C27 1_555 1_555
N8 C32 1_555 1_555
O1 C1 1_555 1_555
O2 C7 1_555 1_555
O3 C8 1_555 1_555
O4 C9 1_555 1_555
O5 C15 1_555 1_555
O6 C16 1_555 1_555
O7 C34 1_555 1_555
N9 C35 1_555 1_555
O8 C35 1_555 1_555
Zn1 N2 1_555 1_555
Zn2 N7 1_555 1_555
Zn3 N1 1_555 1_555
C35 H33 1_555 1_555
C36 N9 1_555 1_555
H34 C36 1_555 1_555
H35 C36 1_555 1_555
H36 C36 1_555 1_555
C37 N9 1_555 1_555
H37 C37 1_555 1_555
H38 C37 1_555 1_555
H39 C37 1_555 1_555
N3C Zn2 1_555 1_555
O4C Zn2 1_555 1_555
O6C Zn2 1_555 1_555
Zn2C N3 1_555 1_555
Zn3C O4 1_555 1_555
C5 C6 1_555 1_555
C13 C14 1_555 1_555
C21 N5 1_555 1_555
C26 N6 1_555 1_555
C31 N7 1_555 1_555
C33 N8 1_555 1_555
C34 N8 1_555 1_555
N1 N2 1_555 1_555
N3 N4 1_555 1_555
N4 Zn1 1_555 1_555
N5 Zn1 1_555 1_555
N6 Zn3 1_555 1_555
O1 Zn2 1_555 1_555
O1 Zn3 1_555 1_555
O2 Zn1 1_555 1_555
O3 Zn3 1_555 1_555
O4 Zn2C 1_555 1_555
O5 Zn1 1_555 1_555
O6 Zn2C 1_555 1_555
Zn3 O4C 1_555 1_555

#END
