
#######################################################################
#
#                 Cambridge Crystallographic Data Centre
#                                CCDC 
#
#######################################################################
#
# If this CIF has been generated from an entry in the Cambridge 
# Structural Database, then it will include bibliographic, chemical, 
# crystal, experimental, refinement or atomic coordinate data resulting 
# from the CCDC's data processing and validation procedures.
#
#######################################################################

data_EYEYUD
_symmetry_cell_setting           monoclinic
_symmetry_space_group_name_H-M   'P 21/n'
_symmetry_Int_Tables_number      14
_space_group_name_Hall           '-P 2yn'
loop_
_symmetry_equiv_pos_site_id
_symmetry_equiv_pos_as_xyz
1 x,y,z
2 1/2-x,1/2+y,1/2-z
3 -x,-y,-z
4 1/2+x,1/2-y,1/2+z
_cell_length_a                   9.168(5)
_cell_length_b                   21.121(5)
_cell_length_c                   12.064(5)
_cell_angle_alpha                90
_cell_angle_beta                 98.242(5)
_cell_angle_gamma                90
_cell_volume                     2311.91
loop_
_atom_site_label
_atom_site_type_symbol
_atom_site_fract_x
_atom_site_fract_y
_atom_site_fract_z
Zn1 Zn 0.2419(1) 0.1345 0.4369(1)
O1 O -0.5640(4) 0.2938(2) 0.2112(4)
O2 O 0.1979(6) -0.0804(2) -0.1223(4)
C1 C -0.1350(6) 0.2456(3) 0.3493(5)
O3 O 0.2796(6) 0.1052(2) 0.2905(4)
N1 N 0.1885(5) 0.0690(3) -0.4513(4)
C2 C -0.4261(6) 0.2743(3) 0.2578(5)
C3 C -0.8093(6) 0.2752(3) 0.1231(5)
C4 C -0.6656(6) 0.2457(4) 0.1779(7)
H1 H -0.6829 0.2209 0.2424
H2 H -0.6270 0.2177 0.1253
C5 C -0.2378(7) 0.1993(4) 0.3130(7)
H3 H -0.2092 0.1571 0.3200
O4 O 0.1077(6) 0.2680(3) 0.4288(7)
C6 C 0.3343(6) 0.0501(4) 0.2867(6)
C7 C 0.2393(7) -0.0437(4) -0.0277(6)
N2 N -1.0718(5) 0.3240(3) 0.0147(4)
C8 C 0.1146(7) -0.0127(4) -0.2847(5)
C9 C -0.9358(7) 0.2390(3) 0.1057(6)
H4 H -0.9344 0.1973 0.1307
C10 C 0.3170(7) 0.0184(3) 0.1751(6)
O5 O 0.3899(5) 0.0215(3) 0.3702(4)
C11 C 0.2562(7) -0.0110(4) -0.3136(6)
H5 H 0.3296 -0.0370 -0.2771
C12 C 0.2863(7) 0.0291(4) -0.3958(6)
H6 H 0.3812 0.0287 -0.4146
C13 C -1.0629(7) 0.2647(3) 0.0516(6)
H7 H -1.1470 0.2396 0.0401
C14 C 0.0201(7) 0.2290(4) 0.3962(6)
C15 C -0.8193(6) 0.3363(4) 0.0874(6)
H8 H -0.7371 0.3626 0.0996
C16 C 0.2534(9) 0.0506(3) 0.0804(6)
H9 H 0.2344 0.0937 0.0851
O6 O 0.0502(5) 0.1708(3) 0.3979(5)
C17 C 0.2174(8) 0.0197(4) -0.0213(6)
H10 H 0.1786 0.0423 -0.0849
C18 C 0.0136(7) 0.0277(4) -0.3436(7)
H11 H -0.0831 0.0278 -0.3286
C19 C 0.3466(7) -0.0455(4) 0.1653(6)
H12 H 0.3911 -0.0678 0.2276
C20 C 0.0713(8) -0.0569(4) -0.1976(6)
H13 H 0.0057 -0.0349 -0.1542
H14 H 0.0178 -0.0924 -0.2345
C21 C 0.0525(7) 0.0669(4) -0.4224(6)
H15 H -0.0188 0.0940 -0.4587
C22 C -0.3259(8) 0.3212(4) 0.2945(7)
H16 H -0.3540 0.3635 0.2870
C23 C 0.3106(9) -0.0770(4) 0.0633(6)
H17 H 0.3341 -0.1195 0.0566
C24 C -0.9517(7) 0.3595(4) 0.0328(6)
H18 H -0.9564 0.4012 0.0082
C25 C -0.3821(8) 0.2133(4) 0.2666(7)
H19 H -0.4476 0.1809 0.2420
C26 C -0.1856(8) 0.3062(4) 0.3417(7)
H20 H -0.1223 0.3386 0.3698
Zn1_2 Zn 0.2419(1) 0.1345 -0.5631(1)
Zn1C Zn -1.2581(1) 0.3655 -0.0631(1)
N1_2 N 0.1885(5) 0.0690(3) 0.5487(4)
N2C N 0.4282(5) 0.1760(3) 0.5147(4)
loop_
_geom_bond_atom_site_label_1
_geom_bond_atom_site_label_2
_geom_bond_site_symmetry_1
_geom_bond_site_symmetry_2
Zn1 O3 1_555 1_555
O1 C2 1_555 1_555
O2 C7 1_555 1_555
C1 C5 1_555 1_555
O3 C6 1_555 1_555
N1 C12 1_555 1_555
C2 C22 1_555 1_555
C3 C4 1_555 1_555
C4 O1 1_555 1_555
H1 C4 1_555 1_555
H2 C4 1_555 1_555
C5 H3 1_555 1_555
O4 C14 1_555 1_555
C6 C10 1_555 1_555
C7 C17 1_555 1_555
N2 C13 1_555 1_555
C8 C11 1_555 1_555
C9 C3 1_555 1_555
H4 C9 1_555 1_555
C10 C16 1_555 1_555
O5 C6 1_555 1_555
C11 H5 1_555 1_555
C12 C11 1_555 1_555
H6 C12 1_555 1_555
C13 C9 1_555 1_555
H7 C13 1_555 1_555
C14 C1 1_555 1_555
C15 C3 1_555 1_555
H8 C15 1_555 1_555
C16 H9 1_555 1_555
O6 Zn1 1_555 1_555
C17 C16 1_555 1_555
H10 C17 1_555 1_555
C18 C8 1_555 1_555
H11 C18 1_555 1_555
C19 C10 1_555 1_555
H12 C19 1_555 1_555
C20 O2 1_555 1_555
H13 C20 1_555 1_555
H14 C20 1_555 1_555
C21 N1 1_555 1_555
H15 C21 1_555 1_555
C22 H16 1_555 1_555
C23 C7 1_555 1_555
H17 C23 1_555 1_555
C24 N2 1_555 1_555
H18 C24 1_555 1_555
C25 C2 1_555 1_555
H19 C25 1_555 1_555
C26 C1 1_555 1_555
H20 C26 1_555 1_555
Zn1_2 N1 1_555 1_555
Zn1C N2 1_555 1_555
N1_2 Zn1 1_555 1_555
N2C Zn1 1_555 1_555
C5 C25 1_555 1_555
C8 C20 1_555 1_555
C14 O6 1_555 1_555
C15 C24 1_555 1_555
C18 C21 1_555 1_555
C19 C23 1_555 1_555
C22 C26 1_555 1_555

#END
