
#######################################################################
#
#                 Cambridge Crystallographic Data Centre
#                                CCDC 
#
#######################################################################
#
# If this CIF has been generated from an entry in the Cambridge 
# Structural Database, then it will include bibliographic, chemical, 
# crystal, experimental, refinement or atomic coordinate data resulting 
# from the CCDC's data processing and validation procedures.
#
#######################################################################

data_EYEYEN
_symmetry_cell_setting           monoclinic
_symmetry_space_group_name_H-M   'P 2/n'
_symmetry_Int_Tables_number      13
_space_group_name_Hall           '-P 2yac'
loop_
_symmetry_equiv_pos_site_id
_symmetry_equiv_pos_as_xyz
1 x,y,z
2 1/2-x,y,1/2-z
3 -x,-y,-z
4 1/2+x,-y,1/2+z
_cell_length_a                   13.454(2)
_cell_length_b                   8.092(3)
_cell_length_c                   27.122(2)
_cell_angle_alpha                90
_cell_angle_beta                 90.911(3)
_cell_angle_gamma                90
_cell_volume                     2952.39
loop_
_atom_site_label
_atom_site_type_symbol
_atom_site_fract_x
_atom_site_fract_y
_atom_site_fract_z
Zn1 Zn -0.44763(4) -0.28066(7) 0.00208(2)
Zn2 Zn 0.2500 1.06892(9) 0.2500
O1 O 0.3843(2) 0.4998(4) 0.00751(11)
N1 N 0.5244(3) 1.2801(5) 0.27206(15)
O2 O 0.0728(3) 0.3384(5) 0.10018(16)
C1 C 0.2976(3) 0.5874(6) 0.07863(17)
C2 C 0.2055(3) 0.6968(6) 0.14597(18)
C3 C 0.1465(4) 0.4560(7) 0.1036(2)
O3 O 0.2556(2) 0.9376(4) 0.18940(12)
N2 N 0.8882(3) 1.2117(5) 0.37360(16)
O4 O 0.4488(2) 0.7037(4) 0.05238(13)
C4 C 0.1914(4) 0.8231(6) 0.1863(2)
C5 C 0.7984(3) 1.2335(7) 0.34513(19)
C6 C 0.3828(3) 0.5952(6) 0.04411(18)
C7 C 0.2865(3) 0.7041(6) 0.11503(18)
H1 H 0.3334 0.7879 0.1189
O5 O 0.1187(3) 0.8122(5) 0.21238(17)
C8 C 0.6202(3) 1.2660(6) 0.29589(18)
O6 O -0.3030(3) -0.2671(6) 0.07655(17)
C9 C 0.4511(4) 1.1743(6) 0.27886(19)
H2 H 0.4553 1.0826 0.2995
C10 C 0.2276(3) 0.4619(7) 0.07251(19)
H3 H 0.2350 0.3831 0.0479
N3 N 0.9933(3) 1.2311(5) 0.43578(15)
O7 O -0.3422(2) -0.1219(5) 0.01064(15)
N4 N 0.3709(3) 1.2148(5) 0.25273(14)
C11 C 0.7544(4) 1.0986(7) 0.3241(2)
H4 H 0.7842 0.9952 0.3268
C12 C 0.1362(3) 0.5729(7) 0.1400(2)
H5 H 0.0819 0.5682 0.1608
C13 C -0.2855(4) -0.1550(7) 0.0466(2)
C14 C -0.1809(4) 0.0861(8) 0.0252(2)
H6 H -0.2319 0.1225 0.0043
C15 C 0.9080(3) 1.2824(7) 0.4173(2)
H7 H 0.8667 1.3582 0.4326
C16 C 0.4895(4) 1.3990(7) 0.2404(2)
H8 H 0.5238 1.4914 0.2294
C17 C -0.1917(4) -0.0547(7) 0.0515(2)
C18 C 0.7541(4) 1.3848(8) 0.3417(3)
H9 H 0.7842 1.4765 0.3562
C19 C 1.0303(4) 1.1237(7) 0.4017(2)
H10 H 1.0906 1.0681 0.4047
C20 C 0.6644(4) 1.1168(8) 0.2986(2)
H11 H 0.6348 1.0258 0.2835
C21 C -0.0159(4) 0.1238(10) 0.0595(3)
C22 C 0.3964(4) 1.3559(7) 0.2285(2)
H12 H 0.3549 1.4136 0.2068
C23 C 0.6642(4) 1.4018(8) 0.3164(3)
H13 H 0.6343 1.5050 0.3135
C24 C -0.0284(4) -0.0176(11) 0.0855(3)
H14 H 0.0230 -0.0556 0.1058
C25 C 0.9665(4) 1.1108(7) 0.3633(2)
H15 H 0.9741 1.0461 0.3352
C26 C 0.0802(4) 0.2208(10) 0.0611(3)
H16 H 0.1361 0.1474 0.0671
H17 H 0.0900 0.2769 0.0299
C27 C -0.0922(5) 0.1765(8) 0.0296(3)
H18 H -0.0852 0.2740 0.0119
C28 C -0.1160(4) -0.1069(9) 0.0823(2)
H19 H -0.1236 -0.2023 0.1010
Zn1A Zn 0.94763(4) -0.28066(7) 0.49792(2)
Zn1_2 Zn 0.55237(4) 0.71934(7) 0.00208(2)
Zn1A_2 Zn -0.05237(4) 0.71934(7) 0.49792(2)
Zn1B Zn -0.55237(4) 1.28066(7) -0.00208(2)
Zn1B_2 Zn 0.44763(4) 0.28066(7) -0.00208(2)
Zn1C Zn 0.05237(4) 0.28066(7) 0.50208(2)
Zn1C_2 Zn 1.05237(4) 1.28066(7) 0.50208(2)
O1A O 0.1157(2) 0.4998(4) 0.49249(11)
O1B O -0.3843(2) -0.4998(4) -0.00751(11)
O1C O 0.8843(2) -0.4998(4) 0.50751(11)
N1A N -0.0244(3) 1.2801(5) 0.22794(15)
O2A O 0.4272(3) 0.3384(5) 0.39982(16)
C1A C 0.2024(3) 0.5874(6) 0.42137(17)
C2A C 0.2945(3) 0.6968(6) 0.35403(18)
C3A C 0.3535(4) 0.4560(7) 0.3964(2)
O3A O 0.2444(2) 0.9376(4) 0.31060(12)
N2A N -0.3882(3) 1.2117(5) 0.12640(16)
O4A O 0.0512(2) 0.7037(4) 0.44762(13)
O4_2 O -0.5512(2) -0.2963(4) 0.05238(13)
O4A_2 O 1.0512(2) -0.2963(4) 0.44762(13)
C4A C 0.3086(4) 0.8231(6) 0.3137(2)
C5A C -0.2984(3) 1.2335(7) 0.15487(19)
C6A C 0.1172(3) 0.5952(6) 0.45589(18)
C7A C 0.2135(3) 0.7041(6) 0.38497(18)
H1A H 0.1666 0.7879 0.3811
O5A O 0.3813(3) 0.8122(5) 0.28762(17)
C8A C -0.1202(3) 1.2660(6) 0.20411(18)
O6A O 0.8030(3) -0.2671(6) 0.42345(17)
C9A C 0.0489(4) 1.1743(6) 0.22114(19)
H2A H 0.0447 1.0826 0.2005
C10A C 0.2724(3) 0.4619(7) 0.42749(19)
H3A H 0.2650 0.3831 0.4521
N3A N -0.4933(3) 1.2311(5) 0.06422(15)
N3B N 1.0067(3) -0.2311(5) 0.56422(15)
N3C N -0.5067(3) -0.2311(5) -0.06422(15)
O7A O 0.8422(2) -0.1219(5) 0.48936(15)
N4A N 0.1291(3) 1.2148(5) 0.24727(14)
C11A C -0.2544(4) 1.0986(7) 0.1759(2)
H4A H -0.2842 0.9952 0.1732
C12A C 0.3638(3) 0.5729(7) 0.3600(2)
H5A H 0.4181 0.5682 0.3392
C13A C 0.7855(4) -0.1550(7) 0.4534(2)
C14A C 0.6809(4) 0.0861(8) 0.4748(2)
H6A H 0.7319 0.1225 0.4957
C15A C -0.4080(3) 1.2824(7) 0.0827(2)
H7A H -0.3667 1.3582 0.0674
C16A C 0.0105(4) 1.3990(7) 0.2596(2)
H8A H -0.0238 1.4914 0.2706
C17A C 0.6917(4) -0.0547(7) 0.4485(2)
C18A C -0.2541(4) 1.3848(8) 0.1583(3)
H9A H -0.2842 1.4765 0.1438
C19A C -0.5303(4) 1.1237(7) 0.0983(2)
H10A H -0.5906 1.0681 0.0953
C20A C -0.1644(4) 1.1168(8) 0.2014(2)
H11A H -0.1348 1.0258 0.2165
C21A C 0.5159(4) 0.1238(10) 0.4405(3)
C22A C 0.1036(4) 1.3559(7) 0.2715(2)
H12A H 0.1451 1.4136 0.2932
C23A C -0.1642(4) 1.4018(8) 0.1836(3)
H13A H -0.1343 1.5050 0.1865
C24A C 0.5284(4) -0.0176(11) 0.4145(3)
H14A H 0.4770 -0.0556 0.3942
C25A C -0.4665(4) 1.1108(7) 0.1367(2)
H15A H -0.4741 1.0461 0.1648
C26A C 0.4198(4) 0.2208(10) 0.4389(3)
H16A H 0.3639 0.1474 0.4329
H17A H 0.4100 0.2769 0.4701
C27A C 0.5922(5) 0.1765(8) 0.4704(3)
H18A H 0.5852 0.2740 0.4881
C28A C 0.6160(4) -0.1069(9) 0.4177(2)
H19A H 0.6236 -0.2023 0.3990
O8 O -0.4399(4) -0.3248(7) 0.1472(2)
O9 O -0.0547(6) 0.8084(8) 0.2625(3)
O10 O -0.2500 0.7319(18) 0.2500
loop_
_geom_bond_atom_site_label_1
_geom_bond_atom_site_label_2
_geom_bond_site_symmetry_1
_geom_bond_site_symmetry_2
Zn1 O7 1_555 1_555
Zn2 O3 1_555 1_555
O1 C6 1_555 1_555
N1 C8 1_555 1_555
O2 C3 1_555 1_555
C1 C6 1_555 1_555
C2 C4 1_555 1_555
C3 C10 1_555 1_555
O3 C4 1_555 1_555
N2 C5 1_555 1_555
O4 C6 1_555 1_555
C4 O5 1_555 1_555
C5 C11 1_555 1_555
C7 C1 1_555 1_555
H1 C7 1_555 1_555
C8 C20 1_555 1_555
O6 C13 1_555 1_555
C9 N1 1_555 1_555
H2 C9 1_555 1_555
C10 C1 1_555 1_555
H3 C10 1_555 1_555
N3 C15 1_555 1_555
O7 C13 1_555 1_555
N4 Zn2 1_555 1_555
C11 H4 1_555 1_555
C12 C2 1_555 1_555
H5 C12 1_555 1_555
C13 C17 1_555 1_555
C14 H6 1_555 1_555
C15 N2 1_555 1_555
H7 C15 1_555 1_555
C16 N1 1_555 1_555
H8 C16 1_555 1_555
C17 C14 1_555 1_555
C18 C5 1_555 1_555
H9 C18 1_555 1_555
C19 N3 1_555 1_555
H10 C19 1_555 1_555
C20 C11 1_555 1_555
H11 C20 1_555 1_555
C21 C24 1_555 1_555
C22 N4 1_555 1_555
H12 C22 1_555 1_555
C23 C8 1_555 1_555
H13 C23 1_555 1_555
C24 H14 1_555 1_555
C25 N2 1_555 1_555
H15 C25 1_555 1_555
C26 O2 1_555 1_555
H16 C26 1_555 1_555
H17 C26 1_555 1_555
C27 C14 1_555 1_555
H18 C27 1_555 1_555
C28 C17 1_555 1_555
H19 C28 1_555 1_555
Zn1A O1C 1_555 1_555
Zn1_2 O4 1_555 1_555
Zn1A_2 O4A 1_555 1_555
Zn1B N3A 1_555 1_555
Zn1B_2 O1 1_555 1_555
Zn1C O1A 1_555 1_555
Zn1C_2 N3 1_555 1_555
O1A C6A 1_555 1_555
O1B Zn1 1_555 1_555
N1A C8A 1_555 1_555
O2A C3A 1_555 1_555
C1A C6A 1_555 1_555
C2A C4A 1_555 1_555
C3A C10A 1_555 1_555
O3A Zn2 1_555 1_555
N2A C5A 1_555 1_555
O4A C6A 1_555 1_555
O4_2 Zn1 1_555 1_555
O4A_2 Zn1A 1_555 1_555
C4A O3A 1_555 1_555
C5A C11A 1_555 1_555
C7A C1A 1_555 1_555
H1A C7A 1_555 1_555
O5A C4A 1_555 1_555
C8A C20A 1_555 1_555
O6A C13A 1_555 1_555
C9A N1A 1_555 1_555
H2A C9A 1_555 1_555
C10A C1A 1_555 1_555
H3A C10A 1_555 1_555
N3A C15A 1_555 1_555
N3B Zn1A 1_555 1_555
N3C Zn1 1_555 1_555
O7A Zn1A 1_555 1_555
N4A Zn2 1_555 1_555
C11A H4A 1_555 1_555
C12A C2A 1_555 1_555
H5A C12A 1_555 1_555
C13A O7A 1_555 1_555
C14A H6A 1_555 1_555
C15A N2A 1_555 1_555
H7A C15A 1_555 1_555
C16A N1A 1_555 1_555
H8A C16A 1_555 1_555
C17A C13A 1_555 1_555
C18A C5A 1_555 1_555
H9A C18A 1_555 1_555
C19A N3A 1_555 1_555
H10A C19A 1_555 1_555
C20A C11A 1_555 1_555
H11A C20A 1_555 1_555
C21A C24A 1_555 1_555
C22A N4A 1_555 1_555
H12A C22A 1_555 1_555
C23A C8A 1_555 1_555
H13A C23A 1_555 1_555
C24A H14A 1_555 1_555
C25A N2A 1_555 1_555
H15A C25A 1_555 1_555
C26A O2A 1_555 1_555
H16A C26A 1_555 1_555
H17A C26A 1_555 1_555
C27A C14A 1_555 1_555
H18A C27A 1_555 1_555
C28A C17A 1_555 1_555
H19A C28A 1_555 1_555
C2 C7 1_555 1_555
C3 C12 1_555 1_555
C9 N4 1_555 1_555
C16 C22 1_555 1_555
C18 C23 1_555 1_555
C19 C25 1_555 1_555
C21 C26 1_555 1_555
C21 C27 1_555 1_555
C24 C28 1_555 1_555
C2A C7A 1_555 1_555
C3A C12A 1_555 1_555
C9A N4A 1_555 1_555
C14A C17A 1_555 1_555
C16A C22A 1_555 1_555
C18A C23A 1_555 1_555
C19A C25A 1_555 1_555
C21A C26A 1_555 1_555
C21A C27A 1_555 1_555
C24A C28A 1_555 1_555

#END
