
#######################################################################
#
#                 Cambridge Crystallographic Data Centre
#                                CCDC 
#
#######################################################################
#
# If this CIF has been generated from an entry in the Cambridge 
# Structural Database, then it will include bibliographic, chemical, 
# crystal, experimental, refinement or atomic coordinate data resulting 
# from the CCDC's data processing and validation procedures.
#
#######################################################################

data_EYILON
_symmetry_cell_setting           monoclinic
_symmetry_space_group_name_H-M   'P 21/n'
_symmetry_Int_Tables_number      14
_space_group_name_Hall           '-P 2yn'
loop_
_symmetry_equiv_pos_site_id
_symmetry_equiv_pos_as_xyz
1 x,y,z
2 1/2+x,1/2-y,1/2+z
3 -x,-y,-z
4 1/2-x,1/2+y,1/2-z
_cell_length_a                   10.577(2)
_cell_length_b                   8.112(2)
_cell_length_c                   19.661(4)
_cell_angle_alpha                90
_cell_angle_beta                 105.60(3)
_cell_angle_gamma                90
_cell_volume                     1624.78
loop_
_atom_site_label
_atom_site_type_symbol
_atom_site_fract_x
_atom_site_fract_y
_atom_site_fract_z
Cd1 Cd 0.66495(2) 0.56488(2) 0.639830(10)
Cl1 Cl 1.08628(9) 0.62550(10) 0.57512(4)
Cl2 Cl 0.55744(8) -0.05524(8) 0.64947(4)
O1 O 0.8886(2) 0.5384(3) 0.6588(2)
O2 O 0.8511(2) 0.7805(3) 0.69850(10)
O3 O 0.6733(2) 0.2749(2) 0.64686(9)
O4 O 0.6454(2) 0.3743(2) 0.53950(10)
O5 O 0.4382(2) 0.5499(2) 0.60210(10)
H1 H 0.409(3) 0.577(4) 0.5591(6)
H2 H 0.401(3) 0.609(4) 0.6270(10)
O6 O 0.6377(2) 0.5898(3) 0.74940(10)
H3 H 0.640(3) 0.491(2) 0.764(2)
H4 H 0.701(2) 0.644(3) 0.7760(10)
N1 N 1.2807(2) 0.7104(4) 0.68010(10)
N2 N 0.6561(2) -0.2104(3) 0.56140(10)
C1 C 1.1523(3) 0.6872(4) 0.6624(2)
C2 C 1.0720(3) 0.7093(3) 0.7069(2)
C3 C 1.1323(3) 0.7639(4) 0.7744(2)
C4 C 1.2672(3) 0.7871(4) 0.7949(2)
C5 C 1.3379(3) 0.7585(4) 0.7468(2)
C6 C 0.9267(3) 0.6742(4) 0.6861(2)
C7 C 0.6357(3) -0.0593(3) 0.58250(10)
C8 C 0.6720(3) 0.0850(3) 0.55440(10)
C9 C 0.7286(4) 0.0649(4) 0.4987(2)
C10 C 0.7498(4) -0.0907(4) 0.4760(2)
C11 C 0.7142(3) -0.2252(4) 0.5090(2)
C12 C 0.6607(3) 0.2566(3) 0.58210(10)
H5 H 1.0827 0.7851 0.8059
H6 H 1.3092 0.8214 0.8405
H7 H 1.4284 0.7730 0.7608
H8 H 0.7521 0.1570 0.4767
H9 H 0.7878 -0.1044 0.4388
H10 H 0.7310 -0.3302 0.4944
N2_2 N 0.6561(2) 0.7896(3) 0.56140(10)
Cd1_2 Cd 0.66495(2) -0.43512(2) 0.639830(10)
loop_
_geom_bond_atom_site_label_1
_geom_bond_atom_site_label_2
_geom_bond_site_symmetry_1
_geom_bond_site_symmetry_2
Cd1 O1 1_555 1_555
Cl1 C1 1_555 1_555
Cl2 C7 1_555 1_555
O1 C6 1_555 1_555
O2 Cd1 1_555 1_555
O3 Cd1 1_555 1_555
O4 Cd1 1_555 1_555
O5 Cd1 1_555 1_555
H1 O5 1_555 1_555
H2 O5 1_555 1_555
O6 Cd1 1_555 1_555
H3 O6 1_555 1_555
H4 O6 1_555 1_555
N1 C1 1_555 1_555
N2 C7 1_555 1_555
C1 C2 1_555 1_555
C2 C3 1_555 1_555
C3 C4 1_555 1_555
C4 C5 1_555 1_555
C5 N1 1_555 1_555
C6 O2 1_555 1_555
C7 C8 1_555 1_555
C8 C9 1_555 1_555
C9 C10 1_555 1_555
C10 C11 1_555 1_555
C11 N2 1_555 1_555
C12 O3 1_555 1_555
H5 C3 1_555 1_555
H6 C4 1_555 1_555
H7 C5 1_555 1_555
H8 C9 1_555 1_555
H9 C10 1_555 1_555
H10 C11 1_555 1_555
N2_2 Cd1 1_555 1_555
Cd1_2 N2 1_555 1_555
O4 C12 1_555 1_555
C2 C6 1_555 1_555
C8 C12 1_555 1_555

#END
