
#######################################################################
#
#                 Cambridge Crystallographic Data Centre
#                                CCDC 
#
#######################################################################
#
# If this CIF has been generated from an entry in the Cambridge 
# Structural Database, then it will include bibliographic, chemical, 
# crystal, experimental, refinement or atomic coordinate data resulting 
# from the CCDC's data processing and validation procedures.
#
#######################################################################

data_EYIMEE
_symmetry_cell_setting           orthorhombic
_symmetry_space_group_name_H-M   'P b c n'
_symmetry_Int_Tables_number      60
_space_group_name_Hall           '-P 2n 2ab'
loop_
_symmetry_equiv_pos_site_id
_symmetry_equiv_pos_as_xyz
1 x,y,z
2 1/2+x,1/2+y,1/2-z
3 x,-y,1/2+z
4 1/2-x,1/2+y,z
5 -x,-y,-z
6 1/2-x,1/2-y,1/2+z
7 -x,y,1/2-z
8 1/2+x,1/2-y,-z
_cell_length_a                   21.6096(8)
_cell_length_b                   7.2160(2)
_cell_length_c                   17.6529(6)
_cell_angle_alpha                90
_cell_angle_beta                 90
_cell_angle_gamma                90
_cell_volume                     2752.7
loop_
_atom_site_label
_atom_site_type_symbol
_atom_site_fract_x
_atom_site_fract_y
_atom_site_fract_z
Cu1 Cu 0.16563(3) 0.25725(10) 0.05297(4)
O2 O 0.1644(2) 0.2896(8) 0.1766(3)
H3 H 0.153(4) 0.197(7) 0.199(4)
H4 H 0.188(3) 0.344(10) 0.205(4)
N1 N 0.07820(18) 0.2481(6) 0.0338(2)
N2 N -0.2471(2) 0.2442(6) -0.0326(2)
C1 C 0.0542(2) 0.2865(8) -0.0354(3)
H5 H 0.0813 0.3141 -0.0748
C2 C -0.0081(2) 0.2864(7) -0.0502(3)
H6 H -0.0224 0.3146 -0.0985
C3 C -0.0503(2) 0.2437(7) 0.0078(3)
C4 C -0.0255(2) 0.2003(8) 0.0784(3)
H7 H -0.0514 0.1685 0.1184
C5 C 0.0374(2) 0.2049(8) 0.0885(3)
H8 H 0.0528 0.1763 0.1363
C6 C -0.1186(2) 0.2443(7) -0.0058(3)
C7 C -0.1427(2) 0.2417(10) -0.0780(3)
H9 H -0.1162 0.2385 -0.1195
C8 C -0.2240(3) 0.2475(9) 0.0381(3)
H10 H -0.2514 0.2514 0.0787
C9 C -0.2061(2) 0.2437(10) -0.0894(3)
H11 H -0.2208 0.2449 -0.1388
C10 C -0.1612(2) 0.2452(9) 0.0528(3)
H12 H -0.1474 0.2442 0.1027
N1G N 0.57820(18) 0.2519(6) -0.0338(2)
N2G N 0.2529(2) 0.2558(6) 0.0326(2)
C1G C 0.5542(2) 0.2135(8) 0.0354(3)
H5G H 0.5813 0.1859 0.0748
C2G C 0.4919(2) 0.2136(7) 0.0502(3)
H6G H 0.4776 0.1854 0.0985
C3G C 0.4497(2) 0.2563(7) -0.0078(3)
C4G C 0.4745(2) 0.2997(8) -0.0784(3)
H7G H 0.4486 0.3315 -0.1184
C5G C 0.5374(2) 0.2951(8) -0.0885(3)
H8G H 0.5528 0.3237 -0.1363
C6G C 0.3814(2) 0.2557(7) 0.0058(3)
C7G C 0.3573(2) 0.2583(10) 0.0780(3)
H9G H 0.3838 0.2615 0.1195
C8G C 0.2760(3) 0.2525(9) -0.0381(3)
H10G H 0.2486 0.2486 -0.0787
C9G C 0.2939(2) 0.2563(10) 0.0894(3)
H11G H 0.2792 0.2551 0.1388
C10G C 0.3388(2) 0.2548(9) -0.0528(3)
H12G H 0.3526 0.2558 -0.1027
Cu1G Cu 0.66563(3) 0.24275(10) -0.05297(4)
O2G O 0.6644(2) 0.2104(8) -0.1766(3)
H3G H 0.653(4) 0.303(7) -0.199(4)
H4G H 0.688(3) 0.156(10) -0.205(4)
Cu1G_2 Cu -0.33437(3) 0.24275(10) -0.05297(4)
N2_2 N 0.7529(2) 0.2442(6) -0.0326(2)
O1 O 0.2284(3) 0.4897(9) 0.2792(4)
H1 H 0.214(4) 0.594(6) 0.283(6)
H2 H 0.2645(18) 0.454(14) 0.281(6)
O3 O 0.1090(3) -0.0642(8) -0.2277(3)
O4 O 0.1582(2) 0.1949(11) -0.1937(5)
C11 C 0.0000 0.5111(12) -0.2500
H13 H 0.0000 0.6400 -0.2500
C12 C 0.0537(3) 0.4150(9) -0.2345(3)
H14 H 0.0899 0.4800 -0.2242
C13 C 0.0545(3) 0.2218(8) -0.2343(3)
C14 C 0.0000 0.1291(11) -0.2500
H15 H 0.0000 0.0002 -0.2500
C15 C 0.1127(3) 0.1089(12) -0.2177(4)
C12F C -0.0537(3) 0.4150(9) -0.2655(3)
H14F H -0.0899 0.4800 -0.2758
C13F C -0.0545(3) 0.2218(8) -0.2657(3)
C15F C -0.1127(3) 0.1089(12) -0.2823(4)
O3F O -0.1090(3) -0.0642(8) -0.2723(3)
O4F O -0.1582(2) 0.1949(11) -0.3063(5)
loop_
_geom_bond_atom_site_label_1
_geom_bond_atom_site_label_2
_geom_bond_site_symmetry_1
_geom_bond_site_symmetry_2
Cu1 O2 1_555 1_555
O1 H1 1_555 1_555
H2 O1 1_555 1_555
O2 H3 1_555 1_555
H4 O2 1_555 1_555
O3 C15 1_555 1_555
O4 C15 1_555 1_555
N1 Cu1 1_555 1_555
N2 C8 1_555 1_555
C1 N1 1_555 1_555
H5 C1 1_555 1_555
C2 C1 1_555 1_555
H6 C2 1_555 1_555
C3 C2 1_555 1_555
C4 C3 1_555 1_555
H7 C4 1_555 1_555
C5 N1 1_555 1_555
H8 C5 1_555 1_555
C6 C3 1_555 1_555
C7 C6 1_555 1_555
H9 C7 1_555 1_555
C8 H10 1_555 1_555
C9 N2 1_555 1_555
H11 C9 1_555 1_555
C10 C6 1_555 1_555
H12 C10 1_555 1_555
C11 H13 1_555 1_555
C12 C11 1_555 1_555
H14 C12 1_555 1_555
C13 C12 1_555 1_555
C14 C13 1_555 1_555
H15 C14 1_555 1_555
C15 C13 1_555 1_555
C12F C11 1_555 1_555
H14F C12F 1_555 1_555
C13F C14 1_555 1_555
C15F C13F 1_555 1_555
O3F C15F 1_555 1_555
O4F C15F 1_555 1_555
N1G C1G 1_555 1_555
N2G Cu1 1_555 1_555
C1G H5G 1_555 1_555
C2G C1G 1_555 1_555
H6G C2G 1_555 1_555
C3G C2G 1_555 1_555
C4G C3G 1_555 1_555
H7G C4G 1_555 1_555
C5G N1G 1_555 1_555
H8G C5G 1_555 1_555
C6G C3G 1_555 1_555
C7G C6G 1_555 1_555
H9G C7G 1_555 1_555
C8G N2G 1_555 1_555
H10G C8G 1_555 1_555
C9G N2G 1_555 1_555
H11G C9G 1_555 1_555
C10G C6G 1_555 1_555
H12G C10G 1_555 1_555
Cu1G N1G 1_555 1_555
O2G Cu1G 1_555 1_555
H3G O2G 1_555 1_555
H4G O2G 1_555 1_555
Cu1G_2 N2 1_555 1_555
N2_2 Cu1G 1_555 1_555
C4 C5 1_555 1_555
C7 C9 1_555 1_555
C8 C10 1_555 1_555
C12F C13F 1_555 1_555
C4G C5G 1_555 1_555
C7G C9G 1_555 1_555
C8G C10G 1_555 1_555

#END
