
#######################################################################
#
#                 Cambridge Crystallographic Data Centre
#                                CCDC 
#
#######################################################################
#
# If this CIF has been generated from an entry in the Cambridge 
# Structural Database, then it will include bibliographic, chemical, 
# crystal, experimental, refinement or atomic coordinate data resulting 
# from the CCDC's data processing and validation procedures.
#
#######################################################################

data_EYINUV
_symmetry_cell_setting           monoclinic
_symmetry_space_group_name_H-M   'P 21/n'
_symmetry_Int_Tables_number      14
_space_group_name_Hall           '-P 2yn'
loop_
_symmetry_equiv_pos_site_id
_symmetry_equiv_pos_as_xyz
1 x,y,z
2 1/2-x,1/2+y,1/2-z
3 -x,-y,-z
4 1/2+x,1/2-y,1/2+z
_cell_length_a                   7.8620(3)
_cell_length_b                   12.6448(5)
_cell_length_c                   14.0134(2)
_cell_angle_alpha                90
_cell_angle_beta                 97.755(2)
_cell_angle_gamma                90
_cell_volume                     1380.38
loop_
_atom_site_label
_atom_site_type_symbol
_atom_site_fract_x
_atom_site_fract_y
_atom_site_fract_z
Cd1 Cd -0.24266(4) 0.00029(3) 1.15547(3)
O1 O -0.1949(7) 0.0978(4) 1.3007(4)
H1 H -0.275(8) 0.073(7) 1.325(6)
H2 H -0.152(11) 0.157(3) 1.298(6)
O2 O -0.5286(5) -0.0205(3) 1.1528(3)
O3 O -0.2717(6) -0.0845(4) 1.0061(3)
H3 H -0.184(6) -0.102(6) 0.984(6)
H4 H -0.359(6) -0.055(6) 0.981(5)
O4 O -0.4172(5) -0.1696(4) 1.2124(4)
O5 O -0.3052(6) 0.1592(3) 1.0797(3)
O6 O -0.0346(6) 0.1180(3) 1.0758(3)
N1 N -1.0108(5) -0.1011(3) 1.2121(3)
N2 N 0.0337(9) 0.3869(5) 0.9132(4)
C1 C -0.8562(7) -0.0808(4) 1.1879(4)
H5 H -0.8436 -0.0217 1.1500
C2 C -0.7137(6) -0.1424(4) 1.2157(4)
C3 C -0.7341(7) -0.2300(5) 1.2714(5)
H6 H -0.6416 -0.2747 1.2906
C4 C -0.8919(8) -0.2505(5) 1.2981(5)
H7 H -0.9074 -0.3086 1.3367
C5 C -1.0263(7) -0.1853(5) 1.2680(4)
H8 H -1.1329 -0.1998 1.2870
C6 C -0.5413(7) -0.1101(5) 1.1908(4)
C7 C 0.0092(9) 0.3008(5) 0.9647(5)
H9 H 0.1003 0.2537 0.9781
C8 C -0.1414(8) 0.2775(5) 0.9991(4)
C9 C -0.2795(10) 0.3460(6) 0.9785(5)
H10 H -0.3845 0.3322 0.9998
C10 C -0.2559(11) 0.4362(6) 0.9249(6)
H11 H -0.3450 0.4842 0.9090
C11 C -0.0980(13) 0.4523(7) 0.8960(6)
H12 H -0.0823 0.5139 0.8619
C12 C -0.1608(8) 0.1785(5) 1.0551(4)
N1_2 N -0.0108(5) -0.1011(3) 1.2121(3)
Cd1_2 Cd -1.24266(4) 0.00029(3) 1.15547(3)
loop_
_geom_bond_atom_site_label_1
_geom_bond_atom_site_label_2
_geom_bond_site_symmetry_1
_geom_bond_site_symmetry_2
Cd1 O1 1_555 1_555
O1 H1 1_555 1_555
H2 O1 1_555 1_555
O2 Cd1 1_555 1_555
O3 Cd1 1_555 1_555
H3 O3 1_555 1_555
H4 O3 1_555 1_555
O4 Cd1 1_555 1_555
O5 Cd1 1_555 1_555
O6 Cd1 1_555 1_555
N1 C1 1_555 1_555
N2 C7 1_555 1_555
C1 H5 1_555 1_555
C2 C1 1_555 1_555
C3 C2 1_555 1_555
H6 C3 1_555 1_555
C4 C3 1_555 1_555
H7 C4 1_555 1_555
C5 N1 1_555 1_555
H8 C5 1_555 1_555
C6 O2 1_555 1_555
C7 H9 1_555 1_555
C8 C7 1_555 1_555
C9 C8 1_555 1_555
H10 C9 1_555 1_555
C10 C9 1_555 1_555
H11 C10 1_555 1_555
C11 N2 1_555 1_555
H12 C11 1_555 1_555
C12 O5 1_555 1_555
N1_2 Cd1 1_555 1_555
Cd1_2 N1 1_555 1_555
O4 C6 1_555 1_555
O6 C12 1_555 1_555
C2 C6 1_555 1_555
C4 C5 1_555 1_555
C8 C12 1_555 1_555
C10 C11 1_555 1_555

#END
