
#######################################################################
#
#                 Cambridge Crystallographic Data Centre
#                                CCDC 
#
#######################################################################
#
# If this CIF has been generated from an entry in the Cambridge 
# Structural Database, then it will include bibliographic, chemical, 
# crystal, experimental, refinement or atomic coordinate data resulting 
# from the CCDC's data processing and validation procedures.
#
#######################################################################

data_EYIPEI
_symmetry_cell_setting           monoclinic
_symmetry_space_group_name_H-M   'P n'
_symmetry_Int_Tables_number      7
_space_group_name_Hall           'P -2yac'
loop_
_symmetry_equiv_pos_site_id
_symmetry_equiv_pos_as_xyz
1 x,y,z
2 1/2+x,-y,1/2+z
_cell_length_a                   11.343
_cell_length_b                   10.666
_cell_length_c                   15.164
_cell_angle_alpha                90
_cell_angle_beta                 97.90
_cell_angle_gamma                90
_cell_volume                     1817.2
loop_
_atom_site_label
_atom_site_type_symbol
_atom_site_fract_x
_atom_site_fract_y
_atom_site_fract_z
Eu1 Eu 0.554558(14) 0.21109(2) 0.181197(12)
O1 O 0.5670(5) 0.4248(4) 0.2320(4)
O2 O 0.6746(5) 0.0700(5) 0.1045(4)
O3 O 0.3995(7) 0.2339(6) 0.2766(5)
O4 O 0.5113(5) -0.0046(5) 0.2336(4)
O5 O 0.7769(6) 0.2677(5) 0.2155(4)
O6 O 0.6247(6) 0.3240(6) 0.0588(4)
O7 O 0.9081(5) -0.1181(5) 0.5636(4)
O8 O 0.8802(6) -0.3148(5) 0.5905(5)
O9 O 0.6462(5) 0.1024(5) 0.3190(4)
N1 N 0.5074(6) -0.4383(5) 0.3784(5)
H1 H 0.5246 -0.5042 0.4103
H2 H 0.4474 -0.4390 0.3370
C1 C 0.8500(8) -0.2151(5) 0.5466(6)
C2 C 0.7407(9) -0.2170(5) 0.4759(7)
C3 C 0.7112(7) -0.1097(7) 0.4274(6)
H3 H 0.7548 -0.0365 0.4402
C4 C 0.6748(6) -0.3251(7) 0.4604(5)
H4 H 0.6955 -0.3961 0.4946
C5 C 0.6153(6) -0.1116(6) 0.3589(5)
C6 C 0.5776(7) -0.3288(6) 0.3941(5)
C7 C 0.5481(9) -0.2216(5) 0.3411(7)
H5 H 0.4849 -0.2237 0.2950
C8 C 0.5894(7) 0.0011(7) 0.3017(6)
Eu1A Eu 1.054558(14) -0.21109(2) 0.681197(12)
O7A O 0.4081(5) 0.1181(5) 0.0636(4)
O8A O 0.3802(6) 0.3148(5) 0.0905(5)
Eu2 Eu 0.976602(14) 0.29007(2) 0.501718(12)
O10 O 0.9024(6) 0.1833(6) 0.6223(5)
O11 O 0.8529(6) 0.4357(4) 0.5698(5)
O12 O 0.9577(6) 0.0766(6) 0.4559(5)
O13 O 1.1229(6) 0.3817(5) 0.6190(4)
O14 O 0.7612(6) 0.2496(6) 0.4501(4)
O15 O 1.1321(7) 0.2663(6) 0.4105(5)
O16 O 1.5202(5) 0.4957(5) 0.9502(4)
O17 O 1.4038(6) 0.6040(5) 0.8532(4)
O18 O 1.1494(6) 0.1815(5) 0.5944(4)
N2 N 1.5159(6) 0.0554(5) 0.8140(5)
H6 H 1.5722 0.0542 0.8582
H7 H 1.4983 -0.0117 0.7835
C9 C 1.4490(7) 0.5005(7) 0.8784(6)
C10 C 1.4811(8) 0.2753(6) 0.8410(5)
H8 H 1.5449 0.2745 0.8866
C11 C 1.4528(7) 0.1664(7) 0.7917(5)
C12 C 1.2875(7) 0.2797(6) 0.7063(6)
C13 C 1.3197(7) 0.3877(7) 0.7568(6)
H9 H 1.2762 0.4612 0.7452
C14 C 1.3562(7) 0.1691(7) 0.7246(5)
H10 H 1.3362 0.0972 0.6911
C15 C 1.4156(8) 0.3854(5) 0.8233(6)
C16 C 1.1846(9) 0.2773(7) 0.6361(7)
Eu2A Eu 1.476602(14) 0.70993(2) 1.001718(12)
O16A O 1.0202(5) 0.5043(5) 0.4502(4)
O17A O 0.9038(6) 0.3960(5) 0.3532(4)
O19 O 0.5529(5) 0.3767(4) 0.5401(4)
O20 O 0.2775(4) 0.0676(4) 0.3645(3)
O21 O 0.2463(4) -0.1099(4) 0.4331(3)
O22 O 0.6906(4) 0.3060(4) 0.6441(3)
N3 N 0.6053(7) -0.1548(5) 0.6697(4)
H11 H 0.5739 -0.2283 0.6657
H12 H 0.6653 -0.1397 0.7095
C17 C 0.6048(5) 0.0612(5) 0.6219(4)
H13 H 0.6713 0.0772 0.6635
C18 C 0.6008(6) 0.2899(5) 0.5849(4)
C19 C 0.5525(5) 0.1585(4) 0.5706(4)
C20 C 0.4576(5) 0.1357(5) 0.5055(4)
H14 H 0.4240 0.2008 0.4698
C21 C 0.5598(5) -0.0616(4) 0.6126(4)
C22 C 0.4632(5) -0.0835(4) 0.5480(4)
H15 H 0.4318 -0.1639 0.5405
C23 C 0.4122(5) 0.0144(4) 0.4935(4)
C24 C 0.3051(5) -0.0118(5) 0.4237(4)
O23 O 0.2164(5) 0.4180(5) 0.2914(4)
O24 O 0.0377(7) 0.4223(5) 0.1520(5)
O25 O 0.3156(8) 0.4998(11) 0.5221(9)
O26 O 0.2663(4) 0.6752(4) 0.3245(4)
loop_
_geom_bond_atom_site_label_1
_geom_bond_atom_site_label_2
_geom_bond_site_symmetry_1
_geom_bond_site_symmetry_2
Eu1 O1 1_555 1_555
O2 Eu1 1_555 1_555
O3 Eu1 1_555 1_555
O4 Eu1 1_555 1_555
O5 Eu1 1_555 1_555
O6 Eu1 1_555 1_555
O7 C1 1_555 1_555
O8 C1 1_555 1_555
O9 Eu1 1_555 1_555
N1 H1 1_555 1_555
H2 N1 1_555 1_555
C1 C2 1_555 1_555
C2 C3 1_555 1_555
C3 H3 1_555 1_555
C4 C2 1_555 1_555
H4 C4 1_555 1_555
C5 C3 1_555 1_555
C6 N1 1_555 1_555
C7 C5 1_555 1_555
H5 C7 1_555 1_555
C8 O4 1_555 1_555
Eu2 O10 1_555 1_555
O11 Eu2 1_555 1_555
O12 Eu2 1_555 1_555
O13 Eu2 1_555 1_555
O14 Eu2 1_555 1_555
O15 Eu2 1_555 1_555
O16 C9 1_555 1_555
O17 C9 1_555 1_555
O18 Eu2 1_555 1_555
N2 H6 1_555 1_555
H7 N2 1_555 1_555
C9 C15 1_555 1_555
C10 H8 1_555 1_555
C11 N2 1_555 1_555
C12 C13 1_555 1_555
C13 H9 1_555 1_555
C14 C11 1_555 1_555
H10 C14 1_555 1_555
C15 C10 1_555 1_555
C16 O13 1_555 1_555
O19 C18 1_555 1_555
O20 C24 1_555 1_555
O21 C24 1_555 1_555
O22 C18 1_555 1_555
N3 H11 1_555 1_555
H12 N3 1_555 1_555
C17 H13 1_555 1_555
C18 C19 1_555 1_555
C19 C17 1_555 1_555
C20 C19 1_555 1_555
H14 C20 1_555 1_555
C21 N3 1_555 1_555
C22 C21 1_555 1_555
H15 C22 1_555 1_555
C23 C20 1_555 1_555
C24 C23 1_555 1_555
Eu1A O7 1_555 1_555
O7A Eu1 1_555 1_555
O8A Eu1 1_555 1_555
Eu2A O16 1_555 1_555
O16A Eu2 1_555 1_555
O17A Eu2 1_555 1_555
O8 Eu1A 1_555 1_555
O9 C8 1_555 1_555
C4 C6 1_555 1_555
C5 C8 1_555 1_555
C6 C7 1_555 1_555
O17 Eu2A 1_555 1_555
O18 C16 1_555 1_555
C10 C11 1_555 1_555
C12 C14 1_555 1_555
C12 C16 1_555 1_555
C13 C15 1_555 1_555
C17 C21 1_555 1_555
C22 C23 1_555 1_555

#END
