
#######################################################################
#
#                 Cambridge Crystallographic Data Centre
#                                CCDC 
#
#######################################################################
#
# If this CIF has been generated from an entry in the Cambridge 
# Structural Database, then it will include bibliographic, chemical, 
# crystal, experimental, refinement or atomic coordinate data resulting 
# from the CCDC's data processing and validation procedures.
#
#######################################################################

data_EYIQOS
_symmetry_cell_setting           monoclinic
_symmetry_space_group_name_H-M   'P 21/c'
_symmetry_Int_Tables_number      14
_space_group_name_Hall           '-P 2ybc'
loop_
_symmetry_equiv_pos_site_id
_symmetry_equiv_pos_as_xyz
1 x,y,z
2 x,1/2-y,1/2+z
3 -x,-y,-z
4 -x,1/2+y,1/2-z
_cell_length_a                   10.1039(10)
_cell_length_b                   11.3131(16)
_cell_length_c                   17.4278(19)
_cell_angle_alpha                90
_cell_angle_beta                 105.314(9)
_cell_angle_gamma                90
_cell_volume                     1921.38
loop_
_atom_site_label
_atom_site_type_symbol
_atom_site_fract_x
_atom_site_fract_y
_atom_site_fract_z
Au1 Au 0.40908(5) 0.49442(5) 0.21360(3)
Au2 Au 0.54151(5) 0.24807(4) 0.21452(3)
Br1 Br 0.31043(13) 0.42248(13) 0.31730(9)
Br2 Br 0.33317(14) 0.18068(13) 0.11993(8)
S1 S 0.4768(4) 0.5550(3) 0.10464(19)
S2 S 0.7551(3) 0.3001(3) 0.28887(18)
N1 N 0.7234(10) 0.5863(11) 0.2037(6)
H1 H 0.6849 0.5639 0.2398
C1 C 0.6441(12) 0.5897(10) 0.1310(6)
C2 C 0.7081(13) 0.6321(12) 0.0670(8)
H2 H 0.7469 0.7100 0.0812
H3 H 0.6371 0.6392 0.0174
C3 C 0.8201(17) 0.5502(14) 0.0543(9)
H4 H 0.7883 0.4693 0.0544
H5 H 0.8330 0.5658 0.0020
C4 C 0.9557(16) 0.5601(16) 0.1139(10)
H6 H 0.9900 0.6397 0.1112
H7 H 1.0189 0.5064 0.0985
C5 C 0.9585(14) 0.5347(15) 0.1994(9)
H8 H 0.9290 0.4539 0.2034
H9 H 1.0521 0.5416 0.2320
C6 C 0.8691(14) 0.6157(15) 0.2312(9)
H10 H 0.8970 0.6127 0.2888
H11 H 0.8825 0.6960 0.2152
N2 N 0.6388(10) 0.3478(9) 0.4047(6)
H12 H 0.5639 0.3273 0.3708
C7 C 0.7507(12) 0.3430(11) 0.3810(8)
C8 C 0.8859(12) 0.3751(13) 0.4393(8)
H13 H 0.9573 0.3735 0.4115
H14 H 0.8796 0.4554 0.4575
C9 C 0.9273(13) 0.2963(15) 0.5101(8)
H15 H 1.0256 0.3035 0.5326
H16 H 0.9085 0.2151 0.4926
C10 C 0.8563(15) 0.3211(14) 0.5754(8)
H17 H 0.8943 0.2686 0.6198
H18 H 0.8774 0.4015 0.5940
C11 C 0.7021(14) 0.3063(13) 0.5511(8)
H19 H 0.6809 0.2248 0.5351
H20 H 0.6675 0.3211 0.5971
C12 C 0.6278(13) 0.3853(13) 0.4848(7)
H21 H 0.5316 0.3879 0.4842
H22 H 0.6642 0.4648 0.4952
Au2C Au 0.45849(5) 0.74807(4) 0.28548(3)
Au1C Au 0.59092(5) -0.00558(5) 0.28640(3)
loop_
_geom_bond_atom_site_label_1
_geom_bond_atom_site_label_2
_geom_bond_site_symmetry_1
_geom_bond_site_symmetry_2
Au1 Au2 1_555 1_555
Au2 Br2 1_555 1_555
Br1 Au1 1_555 1_555
S1 Au1 1_555 1_555
S2 Au2 1_555 1_555
N1 H1 1_555 1_555
C1 S1 1_555 1_555
C2 C1 1_555 1_555
H2 C2 1_555 1_555
H3 C2 1_555 1_555
C3 C2 1_555 1_555
H4 C3 1_555 1_555
H5 C3 1_555 1_555
C4 C3 1_555 1_555
H6 C4 1_555 1_555
H7 C4 1_555 1_555
C5 C4 1_555 1_555
H8 C5 1_555 1_555
H9 C5 1_555 1_555
C6 N1 1_555 1_555
H10 C6 1_555 1_555
H11 C6 1_555 1_555
N2 H12 1_555 1_555
C7 S2 1_555 1_555
C8 C7 1_555 1_555
H13 C8 1_555 1_555
H14 C8 1_555 1_555
C9 C8 1_555 1_555
H15 C9 1_555 1_555
H16 C9 1_555 1_555
C10 C9 1_555 1_555
H17 C10 1_555 1_555
H18 C10 1_555 1_555
C11 C10 1_555 1_555
H19 C11 1_555 1_555
H20 C11 1_555 1_555
C12 N2 1_555 1_555
H21 C12 1_555 1_555
H22 C12 1_555 1_555
Au2C Au1 1_555 1_555
Au1C Au2 1_555 1_555
N1 C1 1_555 1_555
C5 C6 1_555 1_555
N2 C7 1_555 1_555
C11 C12 1_555 1_555

#END
