
#######################################################################
#
#                 Cambridge Crystallographic Data Centre
#                                CCDC 
#
#######################################################################
#
# If this CIF has been generated from an entry in the Cambridge 
# Structural Database, then it will include bibliographic, chemical, 
# crystal, experimental, refinement or atomic coordinate data resulting 
# from the CCDC's data processing and validation procedures.
#
#######################################################################

data_EYIQEI
_symmetry_cell_setting           triclinic
_symmetry_space_group_name_H-M   'P -1'
_symmetry_Int_Tables_number      2
_space_group_name_Hall           '-P 1'
loop_
_symmetry_equiv_pos_site_id
_symmetry_equiv_pos_as_xyz
1 x,y,z
2 -x,-y,-z
_cell_length_a                   8.582(2)
_cell_length_b                   9.0790(10)
_cell_length_c                   13.092(4)
_cell_angle_alpha                100.590(10)
_cell_angle_beta                 103.660(10)
_cell_angle_gamma                97.830(10)
_cell_volume                     956.953
loop_
_atom_site_label
_atom_site_type_symbol
_atom_site_fract_x
_atom_site_fract_y
_atom_site_fract_z
La1 La 0.749250(10) 0.980319(11) 0.002455(7)
O1 O 0.87079(19) 0.81489(19) 0.11802(12)
O2 O 0.8784(2) 0.5755(2) 0.05009(14)
O3 O 1.46480(15) 1.04292(18) 0.90033(10)
O4 O 1.63649(17) 0.9950(2) 0.80454(11)
O5 O 0.88275(16) 1.1578(2) 0.19201(11)
O6 O 1.05355(15) 1.12127(17) 0.09302(10)
O7 O 1.56729(19) 1.72928(19) 0.91111(14)
O8 O 1.6359(3) 1.5037(2) 0.89694(17)
H1 H 1.723(3) 1.558(5) 0.969(2)
C1 C 0.9249(2) 0.6965(2) 0.12373(15)
C2 C 1.0510(3) 0.6869(3) 0.22411(16)
H2 H 1.1502 0.6695 0.2045
H3 H 1.0109 0.5990 0.2494
C3 C 1.0932(3) 0.8264(3) 0.31637(15)
H4 H 1.1441 0.9128 0.2942
H5 H 0.9934 0.8499 0.3325
C4 C 1.2074(3) 0.8036(3) 0.41753(17)
H6 H 1.1593 0.7130 0.4366
H7 H 1.3094 0.7862 0.4023
C5 C 1.2431(2) 0.9372(3) 0.51283(15)
H8 H 1.1407 0.9563 0.5268
H9 H 1.2937 1.0272 0.4943
C6 C 1.3542(3) 0.9135(3) 0.61547(17)
H10 H 1.3068 0.8205 0.6320
H11 H 1.4590 0.9005 0.6029
C7 C 1.3813(3) 1.0446(3) 0.71186(16)
H12 H 1.4212 1.1390 0.6937
H13 H 1.2778 1.0527 0.7281
C8 C 1.5009(2) 1.0250(2) 0.81013(14)
C9 C 1.0241(2) 1.1770(2) 0.18295(14)
C10 C 1.1649(2) 1.2680(3) 0.27484(15)
H14 H 1.2015 1.3638 0.2573
H15 H 1.2544 1.2125 0.2809
C11 C 1.1285(2) 1.3028(3) 0.38381(15)
H16 H 1.0837 1.2083 0.3997
H17 H 1.0469 1.3672 0.3808
C12 C 1.2805(2) 1.3825(3) 0.47384(15)
H18 H 1.3229 1.4781 0.4584
H19 H 1.3632 1.3194 0.4743
C13 C 1.2519(2) 1.4152(3) 0.58578(16)
H20 H 1.1726 1.4817 0.5866
H21 H 1.2061 1.3202 0.6006
C14 C 1.4075(2) 1.4897(3) 0.67466(15)
H22 H 1.4520 1.5856 0.6605
H23 H 1.4875 1.4241 0.6728
C15 C 1.3803(2) 1.5197(3) 0.78707(15)
H24 H 1.3015 1.5864 0.7898
H25 H 1.3359 1.4242 0.8018
C16 C 1.5373(3) 1.5923(3) 0.87196(15)
O9 O 0.7704(2) 1.2610(2) -0.01016(15)
H26 H 0.8409 1.3510 0.0292
H27 H 0.6694 1.2727 -0.0476
O3_2 O 0.46480(15) 1.04292(18) -0.09967(10)
O3A O 0.53520(15) 0.95708(18) 0.09967(10)
O4_2 O 0.63649(17) 0.9950(2) -0.19546(11)
O6A O 0.94645(15) 0.87873(17) -0.09302(10)
O7_2 O 0.56729(19) 0.72928(19) -0.08889(14)
La1_2 La 1.749250(10) 0.980319(11) 1.002455(7)
La1A La 1.250750(10) 1.019681(11) 0.997545(7)
La1A_2 La 1.250750(10) 1.019681(11) -0.002455(7)
La1_3 La 1.749250(10) 1.980319(11) 1.002455(7)
loop_
_geom_bond_atom_site_label_1
_geom_bond_atom_site_label_2
_geom_bond_site_symmetry_1
_geom_bond_site_symmetry_2
La1 O1 1_555 1_555
O1 C1 1_555 1_555
O2 C1 1_555 1_555
O3 C8 1_555 1_555
O4 C8 1_555 1_555
O5 La1 1_555 1_555
O6 La1 1_555 1_555
O7 C16 1_555 1_555
O8 H1 1_555 1_555
C1 C2 1_555 1_555
C2 H2 1_555 1_555
H3 C2 1_555 1_555
C3 C2 1_555 1_555
H4 C3 1_555 1_555
H5 C3 1_555 1_555
C4 C3 1_555 1_555
H6 C4 1_555 1_555
H7 C4 1_555 1_555
C5 C4 1_555 1_555
H8 C5 1_555 1_555
H9 C5 1_555 1_555
C6 C5 1_555 1_555
H10 C6 1_555 1_555
H11 C6 1_555 1_555
C7 C6 1_555 1_555
H12 C7 1_555 1_555
H13 C7 1_555 1_555
C8 C7 1_555 1_555
C9 O5 1_555 1_555
C10 C9 1_555 1_555
H14 C10 1_555 1_555
H15 C10 1_555 1_555
C11 C10 1_555 1_555
H16 C11 1_555 1_555
H17 C11 1_555 1_555
C12 C11 1_555 1_555
H18 C12 1_555 1_555
H19 C12 1_555 1_555
C13 C12 1_555 1_555
H20 C13 1_555 1_555
H21 C13 1_555 1_555
C14 C13 1_555 1_555
H22 C14 1_555 1_555
H23 C14 1_555 1_555
C15 C14 1_555 1_555
H24 C15 1_555 1_555
H25 C15 1_555 1_555
C16 O8 1_555 1_555
O9 La1 1_555 1_555
H26 O9 1_555 1_555
H27 O9 1_555 1_555
O3_2 La1 1_555 1_555
O3A La1 1_555 1_555
O4_2 La1 1_555 1_555
O6A La1 1_555 1_555
O7_2 La1 1_555 1_555
La1_2 O3 1_555 1_555
La1A O3 1_555 1_555
La1A_2 O6 1_555 1_555
La1_3 O7 1_555 1_555
O4 La1_2 1_555 1_555
O6 C9 1_555 1_555
C15 C16 1_555 1_555
O6A La1A_2 1_555 1_555

#END
