
#######################################################################
#
#                 Cambridge Crystallographic Data Centre
#                                CCDC 
#
#######################################################################
#
# If this CIF has been generated from an entry in the Cambridge 
# Structural Database, then it will include bibliographic, chemical, 
# crystal, experimental, refinement or atomic coordinate data resulting 
# from the CCDC's data processing and validation procedures.
#
#######################################################################

data_EYIVUE
_symmetry_cell_setting           triclinic
_symmetry_space_group_name_H-M   'P -1'
_symmetry_Int_Tables_number      2
_space_group_name_Hall           '-P 1'
loop_
_symmetry_equiv_pos_site_id
_symmetry_equiv_pos_as_xyz
1 x,y,z
2 -x,-y,-z
_cell_length_a                   9.418(9)
_cell_length_b                   10.152(9)
_cell_length_c                   11.973(11)
_cell_angle_alpha                75.762(10)
_cell_angle_beta                 89.556(10)
_cell_angle_gamma                67.134(10)
_cell_volume                     1017.44
loop_
_atom_site_label
_atom_site_type_symbol
_atom_site_fract_x
_atom_site_fract_y
_atom_site_fract_z
Ni1 Ni 0.76956(5) -0.06711(5) 0.72917(4)
C1 C 0.6513(4) 0.0794(4) 0.4760(3)
H1 H 0.6223 -0.0004 0.4878
C2 C 0.6006(4) 0.1873(4) 0.3713(3)
C3 C 0.6501(4) 0.3020(4) 0.3519(3)
H2 H 0.6208 0.3745 0.2817
C4 C 0.7434(4) 0.3082(4) 0.4377(3)
C5 C 0.7836(4) 0.1971(4) 0.5403(3)
H3 H 0.8450 0.2017 0.5985
C6 C 0.7873(4) 0.4375(4) 0.4269(3)
C7 C 0.7120(4) 0.5385(4) 0.4897(4)
H4 H 0.6380 0.5233 0.5370
C8 C 0.7448(5) 0.6610(5) 0.4831(4)
H5 H 0.6945 0.7271 0.5265
C9 C 0.8524(5) 0.6849(5) 0.4119(4)
H6 H 0.8761 0.7668 0.4073
C10 C 0.9249(4) 0.5867(4) 0.3476(3)
H7 H 0.9959 0.6046 0.2983
C11 C 0.8950(4) 0.4619(4) 0.3542(3)
C12 C 0.4842(4) 0.1842(4) 0.2853(3)
C13 C 0.9844(4) 0.3587(4) 0.2824(3)
C14 C 1.0881(5) -0.0793(5) 0.8070(3)
H8 H 1.1320 -0.1628 0.7791
C15 C 1.1865(5) -0.0315(5) 0.8573(4)
H9 H 1.2933 -0.0840 0.8639
C16 C 1.1259(5) 0.0908(5) 0.8960(3)
H10 H 1.1906 0.1237 0.9290
C17 C 0.9645(5) 0.1686(5) 0.8864(3)
C18 C 0.8736(4) 0.1103(4) 0.8394(3)
C19 C 0.8878(6) 0.3016(5) 0.9224(4)
H11 H 0.9466 0.3448 0.9495
C20 C 0.7326(6) 0.3650(5) 0.9176(4)
H12 H 0.6856 0.4524 0.9400
C21 C 0.6391(5) 0.3004(5) 0.8789(3)
C22 C 0.7083(4) 0.1766(4) 0.8360(3)
C23 C 0.4773(5) 0.3531(5) 0.8810(4)
H13 H 0.4253 0.4353 0.9089
C24 C 0.3969(5) 0.2848(5) 0.8425(4)
H14 H 0.2905 0.3176 0.8460
C25 C 0.4761(5) 0.1648(5) 0.7978(4)
H15 H 0.4195 0.1212 0.7686
N1 N 0.7396(3) 0.0838(3) 0.5608(3)
N2 N 0.9363(4) -0.0116(3) 0.7973(3)
N3 N 0.6287(4) 0.1095(4) 0.7946(3)
O1 O 0.4621(3) 0.2654(3) 0.1861(2)
O2 O 0.4191(3) 0.0989(3) 0.3256(2)
O3 O 1.0693(3) 0.2283(3) 0.3350(2)
O4 O 0.9695(4) 0.4140(3) 0.1754(3)
O5 O 0.7851(3) -0.2187(3) 0.8888(2)
H16 H 0.877(2) -0.276(5) 0.885(5)
H17 H 0.710(3) -0.241(5) 0.875(5)
Ni1A Ni 0.23044(5) 0.06711(5) 0.27083(4)
Ni1A_2 Ni 1.23044(5) 0.06711(5) 0.27083(4)
O2A O 0.5809(3) -0.0989(3) 0.6744(2)
O3A O 0.9307(3) -0.2283(3) 0.6650(2)
loop_
_geom_bond_atom_site_label_1
_geom_bond_atom_site_label_2
_geom_bond_site_symmetry_1
_geom_bond_site_symmetry_2
Ni1 N1 1_555 1_555
C1 H1 1_555 1_555
C2 C1 1_555 1_555
C3 C2 1_555 1_555
H2 C3 1_555 1_555
C4 C3 1_555 1_555
C5 C4 1_555 1_555
H3 C5 1_555 1_555
C6 C4 1_555 1_555
C7 C6 1_555 1_555
H4 C7 1_555 1_555
C8 C7 1_555 1_555
H5 C8 1_555 1_555
C9 C8 1_555 1_555
H6 C9 1_555 1_555
C10 C9 1_555 1_555
H7 C10 1_555 1_555
C11 C6 1_555 1_555
C12 C2 1_555 1_555
C13 C11 1_555 1_555
C14 H8 1_555 1_555
C15 C14 1_555 1_555
H9 C15 1_555 1_555
C16 C15 1_555 1_555
H10 C16 1_555 1_555
C17 C16 1_555 1_555
C18 C17 1_555 1_555
C19 C17 1_555 1_555
H11 C19 1_555 1_555
C20 C19 1_555 1_555
H12 C20 1_555 1_555
C21 C20 1_555 1_555
C22 C18 1_555 1_555
C23 C21 1_555 1_555
H13 C23 1_555 1_555
C24 C23 1_555 1_555
H14 C24 1_555 1_555
C25 C24 1_555 1_555
H15 C25 1_555 1_555
N1 C1 1_555 1_555
N2 Ni1 1_555 1_555
N3 Ni1 1_555 1_555
O1 C12 1_555 1_555
O2 C12 1_555 1_555
O3 C13 1_555 1_555
O4 C13 1_555 1_555
O5 Ni1 1_555 1_555
H16 O5 1_555 1_555
H17 O5 1_555 1_555
Ni1A O2 1_555 1_555
Ni1A_2 O3 1_555 1_555
O2A Ni1 1_555 1_555
O3A Ni1 1_555 1_555
C5 N1 1_555 1_555
C10 C11 1_555 1_555
C14 N2 1_555 1_555
C18 N2 1_555 1_555
C21 C22 1_555 1_555
C22 N3 1_555 1_555
C25 N3 1_555 1_555

#END
