
#######################################################################
#
#                 Cambridge Crystallographic Data Centre
#                                CCDC 
#
#######################################################################
#
# If this CIF has been generated from an entry in the Cambridge 
# Structural Database, then it will include bibliographic, chemical, 
# crystal, experimental, refinement or atomic coordinate data resulting 
# from the CCDC's data processing and validation procedures.
#
#######################################################################

data_EYIVOY
_symmetry_cell_setting           triclinic
_symmetry_space_group_name_H-M   'P -1'
_symmetry_Int_Tables_number      2
_space_group_name_Hall           '-P 1'
loop_
_symmetry_equiv_pos_site_id
_symmetry_equiv_pos_as_xyz
1 x,y,z
2 -x,-y,-z
_cell_length_a                   9.350(6)
_cell_length_b                   10.258(6)
_cell_length_c                   12.477(8)
_cell_angle_alpha                76.843(6)
_cell_angle_beta                 89.011(7)
_cell_angle_gamma                67.376(6)
_cell_volume                     1072.32
loop_
_atom_site_label
_atom_site_type_symbol
_atom_site_fract_x
_atom_site_fract_y
_atom_site_fract_z
C1 C 0.3424(3) 0.9164(3) 0.5235(3)
H1 H 0.3709 0.9955 0.5132
C2 C 0.3882(3) 0.8137(3) 0.6233(2)
C3 C 0.3410(4) 0.6990(3) 0.6382(3)
H2 H 0.3669 0.6296 0.7050
C4 C 0.2551(3) 0.6867(3) 0.5540(3)
C5 C 0.2191(4) 0.7932(3) 0.4575(3)
H3 H 0.1635 0.7850 0.4000
C6 C 0.2151(3) 0.5564(3) 0.5651(3)
C7 C 0.1154(3) 0.5266(3) 0.6420(3)
C8 C 0.0892(4) 0.4001(3) 0.6515(3)
H4 H 0.0239 0.3786 0.7034
C9 C 0.1583(4) 0.3062(4) 0.5854(3)
H5 H 0.1391 0.2223 0.5921
C10 C 0.2558(4) 0.3368(4) 0.5093(3)
H6 H 0.3018 0.2741 0.4639
C11 C 0.2855(4) 0.4598(4) 0.5003(3)
H7 H 0.3539 0.4783 0.4500
C12 C -0.1084(4) 1.0724(4) 0.1743(3)
H8 H -0.1517 1.1566 0.1999
C13 C -0.2080(4) 1.0260(4) 0.1263(3)
H9 H -0.3147 1.0797 0.1185
C14 C -0.1465(4) 0.9010(4) 0.0911(3)
H10 H -0.2115 0.8675 0.0601
C15 C 0.0141(4) 0.8230(3) 0.1015(3)
C16 C 0.1070(3) 0.8799(3) 0.1479(2)
C17 C 0.0875(4) 0.6895(4) 0.0681(3)
H11 H 0.0265 0.6500 0.0397
C18 C 0.2415(4) 0.6208(4) 0.0770(3)
H12 H 0.2856 0.5327 0.0567
C19 C 0.3411(4) 0.6791(3) 0.1170(3)
C20 C 0.2740(4) 0.8076(3) 0.1536(3)
C21 C 0.5023(4) 0.6168(4) 0.1195(3)
H13 H 0.5507 0.5316 0.0958
C22 C 0.5898(4) 0.6799(4) 0.1565(3)
H14 H 0.6975 0.6403 0.1564
C23 C 0.5144(4) 0.8050(4) 0.1946(3)
H15 H 0.5745 0.8460 0.2221
C24 C 0.4949(4) 0.8218(3) 0.7086(3)
C25 C 0.0289(4) 0.6281(4) 0.7137(3)
Cd1 Cd 0.22345(3) 1.07183(3) 0.26614(2)
H16 H 0.305(3) 1.261(4) 0.122(3)
H17 H 0.140(3) 1.314(4) 0.129(4)
N1 N 0.2589(3) 0.9077(3) 0.4409(2)
N2 N 0.0444(3) 1.0027(3) 0.1853(2)
N3 N 0.3614(3) 0.8683(3) 0.1934(2)
O1 O 0.5496(3) 0.9180(2) 0.67887(19)
O2 O 0.5235(3) 0.7326(2) 0.79972(19)
O3 O -0.0386(3) 0.7596(2) 0.66599(19)
O4 O 0.0281(3) 0.5735(3) 0.8130(2)
O5 O 0.2232(3) 1.2491(3) 0.1091(2)
Cd1A Cd 0.77655(3) 0.92817(3) 0.73386(2)
Cd1A_2 Cd -0.22345(3) 0.92817(3) 0.73386(2)
O1A O 0.4504(3) 1.0820(2) 0.32113(19)
O3A O 0.0386(3) 1.2404(2) 0.33401(19)
loop_
_geom_bond_atom_site_label_1
_geom_bond_atom_site_label_2
_geom_bond_site_symmetry_1
_geom_bond_site_symmetry_2
C1 H1 1_555 1_555
C2 C1 1_555 1_555
C3 C2 1_555 1_555
H2 C3 1_555 1_555
C4 C3 1_555 1_555
C5 C4 1_555 1_555
H3 C5 1_555 1_555
C6 C4 1_555 1_555
C7 C6 1_555 1_555
C8 C7 1_555 1_555
H4 C8 1_555 1_555
C9 C8 1_555 1_555
H5 C9 1_555 1_555
C10 C9 1_555 1_555
H6 C10 1_555 1_555
C11 C6 1_555 1_555
H7 C11 1_555 1_555
C12 H8 1_555 1_555
C13 C12 1_555 1_555
H9 C13 1_555 1_555
C14 C13 1_555 1_555
H10 C14 1_555 1_555
C15 C14 1_555 1_555
C16 C15 1_555 1_555
C17 C15 1_555 1_555
H11 C17 1_555 1_555
C18 C17 1_555 1_555
H12 C18 1_555 1_555
C19 C18 1_555 1_555
C20 C16 1_555 1_555
C21 C19 1_555 1_555
H13 C21 1_555 1_555
C22 C21 1_555 1_555
H14 C22 1_555 1_555
C23 C22 1_555 1_555
H15 C23 1_555 1_555
C24 C2 1_555 1_555
C25 C7 1_555 1_555
Cd1 N1 1_555 1_555
H16 O5 1_555 1_555
H17 O5 1_555 1_555
N1 C1 1_555 1_555
N2 C12 1_555 1_555
N3 C20 1_555 1_555
O1 C24 1_555 1_555
O2 C24 1_555 1_555
O3 C25 1_555 1_555
O4 C25 1_555 1_555
O5 Cd1 1_555 1_555
Cd1A O1 1_555 1_555
Cd1A_2 O3 1_555 1_555
O1A Cd1 1_555 1_555
O3A Cd1 1_555 1_555
C5 N1 1_555 1_555
C10 C11 1_555 1_555
C16 N2 1_555 1_555
C19 C20 1_555 1_555
C23 N3 1_555 1_555
Cd1 N2 1_555 1_555
Cd1 N3 1_555 1_555

#END
