
#######################################################################
#
#                 Cambridge Crystallographic Data Centre
#                                CCDC 
#
#######################################################################
#
# If this CIF has been generated from an entry in the Cambridge 
# Structural Database, then it will include bibliographic, chemical, 
# crystal, experimental, refinement or atomic coordinate data resulting 
# from the CCDC's data processing and validation procedures.
#
#######################################################################

data_EYOLEJ
_symmetry_cell_setting           monoclinic
_symmetry_space_group_name_H-M   'C 2/c'
_symmetry_Int_Tables_number      15
_space_group_name_Hall           '-C 2yn'
loop_
_symmetry_equiv_pos_site_id
_symmetry_equiv_pos_as_xyz
1 x,y,z
2 1/2+x,1/2+y,z
3 x,-y,1/2+z
4 1/2+x,1/2-y,1/2+z
5 -x,-y,-z
6 1/2-x,1/2-y,-z
7 -x,y,1/2-z
8 1/2-x,1/2+y,1/2-z
_cell_length_a                   9.129(2)
_cell_length_b                   13.102(3)
_cell_length_c                   8.981(2)
_cell_angle_alpha                90
_cell_angle_beta                 99.19(3)
_cell_angle_gamma                90
_cell_volume                     1060.41
loop_
_atom_site_label
_atom_site_type_symbol
_atom_site_fract_x
_atom_site_fract_y
_atom_site_fract_z
U1 U 0.0000 0.16330(2) 0.2500
S1 S 0.0000 -0.2296(2) 0.2500
N1 N 0.0000 -0.0183(5) 0.2500
C1 C 0.0000 -0.1062(5) 0.2500
O1 O -0.2043(4) 0.1252(3) 0.0505(4)
O2 O -0.3806(4) 0.1866(3) -0.1280(4)
O3 O 0.1268(5) 0.1652(3) 0.1215(5)
C2 C -0.2741(5) 0.1953(3) -0.0227(5)
C2E C -0.2259(5) 0.3047(3) 0.0227(5)
O1E O -0.2957(4) 0.3748(3) -0.0505(4)
O2E O -0.1194(4) 0.3134(3) 0.1280(4)
O3F O -0.1268(5) 0.1652(3) 0.3785(5)
O1F O 0.2043(4) 0.1252(3) 0.4495(4)
O2C O 0.1194(4) 0.3134(3) 0.3720(4)
U1C U -0.5000 0.33670(2) -0.2500
N2 N 1.0000 0.5244(6) 0.2500
O4 O 1.1526(6) 0.4229(4) 0.0390(6)
loop_
_geom_bond_atom_site_label_1
_geom_bond_atom_site_label_2
_geom_bond_site_symmetry_1
_geom_bond_site_symmetry_2
U1 N1 1_555 1_555
S1 C1 1_555 1_555
N1 C1 1_555 1_555
O1 U1 1_555 1_555
O2 C2 1_555 1_555
O3 U1 1_555 1_555
C2 O1 1_555 1_555
C2E C2 1_555 1_555
O1E C2E 1_555 1_555
O2E U1 1_555 1_555
O3F U1 1_555 1_555
O1F U1 1_555 1_555
O2C U1 1_555 1_555
U1C O2 1_555 1_555
C2E O2E 1_555 1_555
O1E U1C 1_555 1_555

#END
