
#######################################################################
#
#                 Cambridge Crystallographic Data Centre
#                                CCDC 
#
#######################################################################
#
# If this CIF has been generated from an entry in the Cambridge 
# Structural Database, then it will include bibliographic, chemical, 
# crystal, experimental, refinement or atomic coordinate data resulting 
# from the CCDC's data processing and validation procedures.
#
#######################################################################

data_EYOLIN
_symmetry_cell_setting           monoclinic
_symmetry_space_group_name_H-M   'P 21/m'
_symmetry_Int_Tables_number      11
_space_group_name_Hall           '-P 2yb'
loop_
_symmetry_equiv_pos_site_id
_symmetry_equiv_pos_as_xyz
1 x,y,z
2 x,1/2-y,z
3 -x,-y,-z
4 -x,1/2+y,-z
_cell_length_a                   5.650(1)
_cell_length_b                   13.628(3)
_cell_length_c                   9.498(2)
_cell_angle_alpha                90
_cell_angle_beta                 96.64(3)
_cell_angle_gamma                90
_cell_volume                     726.423
loop_
_atom_site_label
_atom_site_type_symbol
_atom_site_fract_x
_atom_site_fract_y
_atom_site_fract_z
U1 U 0.21121(8) 0.08992(3) 0.23506(4)
O1 O 0.0113(16) 0.1209(6) 0.4410(9)
O2 O 0.4188(16) -0.0533(7) 0.1514(8)
O3 O 0.4729(16) 0.1270(7) 0.3376(10)
O4 O 0.1060(20) 0.2500 0.1855(11)
O5 O -0.0580(15) 0.0538(7) 0.1361(9)
O6 O 0.6135(16) -0.1166(6) -0.0151(8)
O7 O -0.1684(17) 0.0561(7) 0.6202(9)
C1 C -0.0433(21) 0.0505(10) 0.5189(12)
C2 C 0.5095(20) -0.0484(9) 0.0381(12)
C1B C 0.0433(21) -0.0505(10) 0.4811(12)
O1B O -0.0113(16) -0.1209(6) 0.5590(9)
O7B O 0.1684(17) -0.0561(7) 0.3798(9)
C2B C 0.4905(20) 0.0484(9) -0.0381(12)
O2B O 0.5812(16) 0.0533(7) -0.1514(8)
O6B O 0.3865(16) 0.1166(6) 0.0151(8)
U1B U -0.21121(8) -0.08992(3) 0.76494(4)
O3B O -0.4729(16) -0.1270(7) 0.6624(10)
O5B O 0.0580(15) -0.0538(7) 0.8639(9)
U1A U 0.21121(8) 0.41008(3) 0.23506(4)
U1B_2 U 0.78879(8) -0.08992(3) -0.23506(4)
O2B_2 O -0.4188(16) 0.0533(7) 0.8486(8)
O4B O -0.1060(20) -0.2500 0.8145(11)
O6_2 O -0.3865(16) -0.1166(6) 0.9849(8)
N1 N 0.2062(29) -0.2500 0.0553(21)
O8 O 0.2022(33) 0.2500 -0.2388(17)
O9 O -0.3807(38) 0.2500 0.6082(17)
loop_
_geom_bond_atom_site_label_1
_geom_bond_atom_site_label_2
_geom_bond_site_symmetry_1
_geom_bond_site_symmetry_2
U1 O1 1_555 1_555
O1 C1 1_555 1_555
O2 U1 1_555 1_555
O3 U1 1_555 1_555
O4 U1 1_555 1_555
O5 U1 1_555 1_555
O6 C2 1_555 1_555
O7 C1 1_555 1_555
C1 C1B 1_555 1_555
C2 O2 1_555 1_555
C1B O1B 1_555 1_555
O1B U1B 1_555 1_555
O7B U1 1_555 1_555
C2B C2 1_555 1_555
O2B C2B 1_555 1_555
O6B U1 1_555 1_555
U1B O7 1_555 1_555
O3B U1B 1_555 1_555
O5B U1B 1_555 1_555
U1A O4 1_555 1_555
U1B_2 O6 1_555 1_555
O2B_2 U1B 1_555 1_555
O4B U1B 1_555 1_555
O6_2 U1B 1_555 1_555
C1B O7B 1_555 1_555
C2B O6B 1_555 1_555
O2B U1B_2 1_555 1_555

#END
