
#######################################################################
#
#                 Cambridge Crystallographic Data Centre
#                                CCDC 
#
#######################################################################
#
# If this CIF has been generated from an entry in the Cambridge 
# Structural Database, then it will include bibliographic, chemical, 
# crystal, experimental, refinement or atomic coordinate data resulting 
# from the CCDC's data processing and validation procedures.
#
#######################################################################

data_EYONIQ
_symmetry_cell_setting           triclinic
_symmetry_space_group_name_H-M   'P -1'
_symmetry_Int_Tables_number      2
_space_group_name_Hall           '-P 1'
loop_
_symmetry_equiv_pos_site_id
_symmetry_equiv_pos_as_xyz
1 x,y,z
2 -x,-y,-z
_cell_length_a                   10.1750(3)
_cell_length_b                   13.2890(4)
_cell_length_c                   15.7120(7)
_cell_angle_alpha                109.992(3)
_cell_angle_beta                 94.333(3)
_cell_angle_gamma                90.490(2)
_cell_volume                     1989.44
loop_
_atom_site_label
_atom_site_type_symbol
_atom_site_fract_x
_atom_site_fract_y
_atom_site_fract_z
Cd1 Cd 0.5000 -0.5000 0.0000
Cd2 Cd -0.20219(4) 0.58437(3) -0.16781(2)
C1 C 0.2253(5) 0.0224(4) -0.3443(3)
C2 C 0.2624(6) 0.0838(5) -0.2558(4)
H1 H 0.3370 0.0665 -0.2263
C3 C 0.1912(6) 0.1710(5) -0.2095(4)
H2 H 0.2170 0.2110 -0.1492
C4 C 0.0826(5) 0.1980(4) -0.2528(4)
C5 C 0.0460(6) 0.1397(4) -0.3422(4)
H3 H -0.0266 0.1591 -0.3720
C6 C 0.1169(6) 0.0518(4) -0.3879(4)
H4 H 0.0915 0.0124 -0.4484
C7 C -0.0233(6) 0.3099(4) -0.1156(4)
H5 H -0.0012 0.2721 -0.0768
C8 C -0.0918(5) 0.4006(4) -0.0965(4)
H6 H -0.1241 0.4366 -0.0407
C9 C -0.0460(5) 0.3617(4) -0.2334(4)
H7 H -0.0399 0.3642 -0.2915
C10 C 0.3137(5) -0.1091(4) -0.4792(3)
C11 C 0.3364(6) -0.0396(4) -0.5248(4)
H8 H 0.3361 0.0339 -0.4943
C12 C 0.3597(5) -0.0783(4) -0.6160(4)
H9 H 0.3746 -0.0301 -0.6458
C13 C 0.3612(5) -0.1855(4) -0.6629(3)
C14 C 0.3369(7) -0.2547(4) -0.6181(4)
H10 H 0.3363 -0.3281 -0.6495
C15 C 0.3135(7) -0.2189(4) -0.5286(4)
H11 H 0.2972 -0.2680 -0.5001
C16 C 0.3677(6) -0.1761(4) -0.8192(4)
H12 H 0.3380 -0.1072 -0.8081
C17 C 0.4007(7) -0.2447(5) -0.8994(4)
H13 H 0.3981 -0.2305 -0.9535
C18 C 0.4286(5) -0.3241(4) -0.8032(4)
H14 H 0.4486 -0.3754 -0.7766
C19 C 0.2975(6) -0.1466(4) -0.3376(3)
C20 C 0.4185(6) -0.1809(4) -0.3117(4)
H15 H 0.4968 -0.1554 -0.3251
C21 C 0.4206(6) -0.2527(4) -0.2664(4)
H16 H 0.5010 -0.2763 -0.2498
C22 C 0.3054(5) -0.2902(4) -0.2450(4)
C23 C 0.1866(6) -0.2559(5) -0.2689(5)
H17 H 0.1089 -0.2804 -0.2538
C24 C 0.1828(6) -0.1841(5) -0.3161(5)
H18 H 0.1021 -0.1613 -0.3331
C25 C 0.2168(6) -0.4479(6) -0.2105(5)
H19 H 0.1405 -0.4641 -0.2499
C26 C 0.2585(6) -0.4996(5) -0.1548(4)
H20 H 0.2141 -0.5575 -0.1478
C27 C 0.4041(5) -0.3758(4) -0.1378(3)
H21 H 0.4799 -0.3317 -0.1187
C28 C -0.1283(7) 0.9871(5) -0.0364(5)
H22 H -0.2153 0.9797 -0.0611
C29 C -0.0540(7) 0.8988(4) -0.0520(4)
C30 C -0.0755(7) 1.0887(5) 0.0162(6)
H23 H -0.1278 1.1481 0.0271
C31 C -0.1096(8) 0.7886(5) -0.1082(4)
C32 C -0.5511(6) 0.4890(5) -0.4244(4)
H24 H -0.5856 0.4808 -0.3739
C33 C -0.4193(6) 0.5153(4) -0.4214(3)
C34 C -0.6316(6) 0.4748(5) -0.5024(4)
H25 H -0.7210 0.4584 -0.5039
C35 C -0.3309(6) 0.5331(4) -0.3358(4)
N1 N 0.2949(5) -0.0721(3) -0.3859(3)
N2 N 0.0067(4) 0.2849(3) -0.2038(3)
N3 N -0.1064(4) 0.4317(3) -0.1701(3)
N4 N 0.3859(4) -0.2265(3) -0.7573(3)
N5 N 0.4392(4) -0.3394(3) -0.8885(3)
N6 N 0.3083(4) -0.3657(3) -0.1990(3)
N7 N 0.3780(4) -0.4543(3) -0.1087(3)
O1 O -0.0400(4) 0.7105(3) -0.1108(3)
O2 O -0.2253(5) 0.7795(3) -0.1459(3)
O4 O -0.3846(4) 0.5343(3) -0.2660(3)
O6 O -0.2099(4) 0.5486(4) -0.3339(3)
Cl1 Cl 0.30011(12) -0.62146(10) 0.01675(8)
Cd1_2 Cd 0.5000 -0.5000 -1.0000
Cd1_3 Cd 0.5000 -0.5000 1.0000
Cd2A Cd 1.20219(4) -1.58437(3) 0.16781(2)
Cd2A_2 Cd 0.20219(4) -0.58437(3) 0.16781(2)
Cd2A_3 Cd 0.20219(4) 1.41563(3) 0.16781(2)
Cd2A_4 Cd -0.79781(4) 0.41563(3) -0.83219(2)
Cd2_2 Cd 0.79781(4) -0.41563(3) -0.16781(2)
C1A C 0.7747(5) -1.0224(4) 0.3443(3)
C2A C 0.7376(6) -1.0838(5) 0.2558(4)
H1A H 0.6630 -1.0665 0.2263
C3A C 0.8088(6) -1.1710(5) 0.2095(4)
H2A H 0.7830 -1.2110 0.1492
C4A C 0.9174(5) -1.1980(4) 0.2528(4)
C5A C 0.9540(6) -1.1397(4) 0.3422(4)
H3A H 1.0266 -1.1591 0.3720
C6A C 0.8831(6) -1.0518(4) 0.3879(4)
H4A H 0.9085 -1.0124 0.4484
C7A C 1.0233(6) -1.3099(4) 0.1156(4)
H5A H 1.0012 -1.2721 0.0768
C8A C 1.0918(5) -1.4006(4) 0.0965(4)
H6A H 1.1241 -1.4366 0.0407
C9A C 1.0460(5) -1.3617(4) 0.2334(4)
H7A H 1.0399 -1.3642 0.2915
C10A C 0.6863(5) -0.8909(4) 0.4792(3)
C11A C 0.6636(6) -0.9604(4) 0.5248(4)
H8A H 0.6639 -1.0339 0.4943
C12A C 0.6403(5) -0.9217(4) 0.6160(4)
H9A H 0.6254 -0.9699 0.6458
C13A C 0.6388(5) -0.8145(4) 0.6629(3)
C14A C 0.6631(7) -0.7453(4) 0.6181(4)
H10A H 0.6637 -0.6719 0.6495
C15A C 0.6865(7) -0.7811(4) 0.5286(4)
H11A H 0.7028 -0.7320 0.5001
C16A C 0.6323(6) -0.8239(4) 0.8192(4)
H12A H 0.6620 -0.8928 0.8081
C17A C 0.5993(7) -0.7553(5) 0.8994(4)
H13A H 0.6019 -0.7695 0.9535
C18A C 0.5714(5) -0.6759(4) 0.8032(4)
H14A H 0.5514 -0.6246 0.7766
C19A C 0.7025(6) -0.8534(4) 0.3376(3)
C20A C 0.5815(6) -0.8191(4) 0.3117(4)
H15A H 0.5032 -0.8446 0.3251
C21A C 0.5794(6) -0.7473(4) 0.2664(4)
H16A H 0.4990 -0.7237 0.2498
C22A C 0.6946(5) -0.7098(4) 0.2450(4)
C23A C 0.8134(6) -0.7441(5) 0.2689(5)
H17A H 0.8911 -0.7196 0.2538
C24A C 0.8172(6) -0.8159(5) 0.3161(5)
H18A H 0.8979 -0.8387 0.3331
C25A C 0.7832(6) -0.5521(6) 0.2105(5)
H19A H 0.8595 -0.5359 0.2499
C26A C 0.7415(6) -0.5004(5) 0.1548(4)
H20A H 0.7859 -0.4425 0.1478
C27A C 0.5959(5) -0.6242(4) 0.1378(3)
H21A H 0.5201 -0.6683 0.1187
C28A C 0.1283(7) 1.0129(5) 0.0364(5)
H22A H 0.2153 1.0203 0.0611
C29A C 0.0540(7) 1.1012(4) 0.0520(4)
C30A C 0.0755(7) 0.9113(5) -0.0162(6)
H23A H 0.1278 0.8519 -0.0271
C31A C 0.1096(8) 1.2114(5) 0.1082(4)
C32A C -0.4489(6) 0.5110(5) -0.5756(4)
H24A H -0.4144 0.5192 -0.6261
C33A C -0.5807(6) 0.4847(4) -0.5786(3)
C34A C -0.3684(6) 0.5252(5) -0.4976(4)
H25A H -0.2790 0.5416 -0.4961
C35A C -0.6691(6) 0.4669(4) -0.6642(4)
N1A N 0.7051(5) -0.9279(3) 0.3859(3)
N2A N 0.9933(4) -1.2849(3) 0.2038(3)
N3A N 1.1064(4) -1.4317(3) 0.1701(3)
N4A N 0.6141(4) -0.7735(3) 0.7573(3)
N5A N 0.5608(4) -0.6606(3) 0.8885(3)
N5A_2 N 0.5608(4) -0.6606(3) -0.1115(3)
N5_2 N 0.4392(4) -0.3394(3) 0.1115(3)
N6A N 0.6917(4) -0.6343(3) 0.1990(3)
N7A N 0.6220(4) -0.5457(3) 0.1087(3)
O1A O 0.0400(4) 1.2895(3) 0.1108(3)
O1A_2 O 1.0400(4) -1.7105(3) 0.1108(3)
O2A O 0.2253(5) 1.2205(3) 0.1459(3)
O2A_2 O 1.2253(5) -1.7795(3) 0.1459(3)
O4A O -0.6154(4) 0.4657(3) -0.7340(3)
O4A_2 O 1.3846(4) -1.5343(3) 0.2660(3)
O6A O -0.7901(4) 0.4514(4) -0.6661(3)
O6A_2 O 1.2099(4) -1.5486(4) 0.3339(3)
Cl1A Cl 0.69989(12) -0.37854(10) -0.01675(8)
Cl1A_2 Cl -0.30011(12) 0.62146(10) -0.01675(8)
Cl1_2 Cl 1.30011(12) -1.62146(10) 0.01675(8)
O3 O 0.7451(8) -0.1069(7) -0.2719(7)
O5 O -0.0008(9) 0.4341(11) -0.4320(8)
loop_
_geom_bond_atom_site_label_1
_geom_bond_atom_site_label_2
_geom_bond_site_symmetry_1
_geom_bond_site_symmetry_2
Cd1 N7 1_555 1_555
Cd2 N3 1_555 1_555
C1 C2 1_555 1_555
C2 H1 1_555 1_555
C3 C2 1_555 1_555
H2 C3 1_555 1_555
C4 C3 1_555 1_555
C5 C4 1_555 1_555
H3 C5 1_555 1_555
C6 C1 1_555 1_555
H4 C6 1_555 1_555
C7 H5 1_555 1_555
C8 C7 1_555 1_555
H6 C8 1_555 1_555
C9 H7 1_555 1_555
C10 C11 1_555 1_555
C11 H8 1_555 1_555
C12 C11 1_555 1_555
H9 C12 1_555 1_555
C13 C12 1_555 1_555
C14 C13 1_555 1_555
H10 C14 1_555 1_555
C15 C10 1_555 1_555
H11 C15 1_555 1_555
C16 H12 1_555 1_555
C17 C16 1_555 1_555
H13 C17 1_555 1_555
C18 H14 1_555 1_555
C19 C20 1_555 1_555
C20 H15 1_555 1_555
C21 C20 1_555 1_555
H16 C21 1_555 1_555
C22 C21 1_555 1_555
C23 C22 1_555 1_555
H17 C23 1_555 1_555
C24 C19 1_555 1_555
H18 C24 1_555 1_555
C25 H19 1_555 1_555
C26 C25 1_555 1_555
H20 C26 1_555 1_555
C27 H21 1_555 1_555
C28 H22 1_555 1_555
C29 C28 1_555 1_555
C30 C28 1_555 1_555
H23 C30 1_555 1_555
C31 C29 1_555 1_555
C32 H24 1_555 1_555
C33 C32 1_555 1_555
C34 C32 1_555 1_555
H25 C34 1_555 1_555
C35 C33 1_555 1_555
N1 C1 1_555 1_555
N2 C4 1_555 1_555
N3 C8 1_555 1_555
N4 C13 1_555 1_555
N5 C17 1_555 1_555
N6 C22 1_555 1_555
N7 C26 1_555 1_555
O1 Cd2 1_555 1_555
O2 Cd2 1_555 1_555
O4 Cd2 1_555 1_555
O6 Cd2 1_555 1_555
Cl1 Cd1 1_555 1_555
Cd1_2 N5 1_555 1_555
Cd1_3 N5A 1_555 1_555
Cd2A N3A 1_555 1_555
Cd2A_2 Cl1 1_555 1_555
Cd2A_3 O1A 1_555 1_555
Cd2A_4 O4A 1_555 1_555
Cd2_2 Cl1A 1_555 1_555
C1A C2A 1_555 1_555
C2A H1A 1_555 1_555
C3A C2A 1_555 1_555
H2A C3A 1_555 1_555
C4A C3A 1_555 1_555
C5A C4A 1_555 1_555
H3A C5A 1_555 1_555
C6A C1A 1_555 1_555
H4A C6A 1_555 1_555
C7A H5A 1_555 1_555
C8A C7A 1_555 1_555
H6A C8A 1_555 1_555
C9A H7A 1_555 1_555
C10A C11A 1_555 1_555
C11A H8A 1_555 1_555
C12A C11A 1_555 1_555
H9A C12A 1_555 1_555
C13A C12A 1_555 1_555
C14A C13A 1_555 1_555
H10A C14A 1_555 1_555
C15A C10A 1_555 1_555
H11A C15A 1_555 1_555
C16A H12A 1_555 1_555
C17A C16A 1_555 1_555
H13A C17A 1_555 1_555
C18A H14A 1_555 1_555
C19A C20A 1_555 1_555
C20A H15A 1_555 1_555
C21A C20A 1_555 1_555
H16A C21A 1_555 1_555
C22A C21A 1_555 1_555
C23A C22A 1_555 1_555
H17A C23A 1_555 1_555
C24A C19A 1_555 1_555
H18A C24A 1_555 1_555
C25A H19A 1_555 1_555
C26A C25A 1_555 1_555
H20A C26A 1_555 1_555
C27A H21A 1_555 1_555
C28A H22A 1_555 1_555
C29A C30 1_555 1_555
C30A C29 1_555 1_555
H23A C30A 1_555 1_555
C31A C29A 1_555 1_555
C32A H24A 1_555 1_555
C33A C34 1_555 1_555
C34A C33 1_555 1_555
H25A C34A 1_555 1_555
C35A C33A 1_555 1_555
N1A C1A 1_555 1_555
N2A C4A 1_555 1_555
N3A C8A 1_555 1_555
N4A C13A 1_555 1_555
N5A C17A 1_555 1_555
N5A_2 Cd1 1_555 1_555
N5_2 Cd1 1_555 1_555
N6A C22A 1_555 1_555
N7A Cd1 1_555 1_555
O1A C31A 1_555 1_555
O1A_2 Cd2A 1_555 1_555
O2A Cd2A_3 1_555 1_555
O2A_2 Cd2A 1_555 1_555
O4A C35A 1_555 1_555
O4A_2 Cd2A 1_555 1_555
O6A Cd2A_4 1_555 1_555
O6A_2 Cd2A 1_555 1_555
Cl1A Cd1 1_555 1_555
Cl1A_2 Cd2 1_555 1_555
Cl1_2 Cd2A 1_555 1_555
C5 C6 1_555 1_555
C7 N2 1_555 1_555
C9 N2 1_555 1_555
C9 N3 1_555 1_555
C10 N1 1_555 1_555
C14 C15 1_555 1_555
C16 N4 1_555 1_555
C18 N4 1_555 1_555
C18 N5 1_555 1_555
C19 N1 1_555 1_555
C23 C24 1_555 1_555
C25 N6 1_555 1_555
C27 N6 1_555 1_555
C27 N7 1_555 1_555
C31 O1 1_555 1_555
C31 O2 1_555 1_555
C35 O4 1_555 1_555
C35 O6 1_555 1_555
C5A C6A 1_555 1_555
C7A N2A 1_555 1_555
C9A N2A 1_555 1_555
C9A N3A 1_555 1_555
C10A N1A 1_555 1_555
C14A C15A 1_555 1_555
C16A N4A 1_555 1_555
C18A N4A 1_555 1_555
C18A N5A 1_555 1_555
C19A N1A 1_555 1_555
C23A C24A 1_555 1_555
C25A N6A 1_555 1_555
C26A N7A 1_555 1_555
C27A N6A 1_555 1_555
C27A N7A 1_555 1_555
C28A C29A 1_555 1_555
C28A C30A 1_555 1_555
C31A O2A 1_555 1_555
C32A C33A 1_555 1_555
C32A C34A 1_555 1_555
C35A O6A 1_555 1_555

#END
