
#######################################################################
#
#                 Cambridge Crystallographic Data Centre
#                                CCDC 
#
#######################################################################
#
# If this CIF has been generated from an entry in the Cambridge 
# Structural Database, then it will include bibliographic, chemical, 
# crystal, experimental, refinement or atomic coordinate data resulting 
# from the CCDC's data processing and validation procedures.
#
#######################################################################

data_EYOPOY
_symmetry_cell_setting           orthorhombic
_symmetry_space_group_name_H-M   'P c a 21'
_symmetry_Int_Tables_number      29
_space_group_name_Hall           'P 2c -2ac'
loop_
_symmetry_equiv_pos_site_id
_symmetry_equiv_pos_as_xyz
1 x,y,z
2 -x,-y,1/2+z
3 1/2+x,-y,z
4 1/2-x,y,1/2+z
_cell_length_a                   19.0367(16)
_cell_length_b                   8.2300(7)
_cell_length_c                   18.2963(15)
_cell_angle_alpha                90
_cell_angle_beta                 90
_cell_angle_gamma                90
_cell_volume                     2866.52
loop_
_atom_site_label
_atom_site_type_symbol
_atom_site_fract_x
_atom_site_fract_y
_atom_site_fract_z
Cd1 Cd 0.475830(10) 1.00444(3) 0.31786(5)
C1 C 0.61752(17) 1.2295(4) 0.3279(2)
H1 H 0.5943 1.3140 0.3514
C2 C 0.6386(2) 1.0026(5) 0.2717(3)
H2 H 0.6324 0.9022 0.2493
C3 C 0.6977(2) 1.0904(6) 0.2734(3)
H3 H 0.7407 1.0581 0.2541
C4 C 0.73278(16) 1.3653(4) 0.3148(4)
C5 C 0.80286(19) 1.3306(4) 0.3267(4)
H4 H 0.8179 1.2237 0.3318
C6 C 0.8506(2) 1.4586(4) 0.3310(3)
H5 H 0.8974 1.4381 0.3421
C7 C 0.82788(18) 1.6191(4) 0.3184(3)
C8 C 0.75838(19) 1.6489(4) 0.3077(4)
H6 H 0.7432 1.7558 0.3026
C9 C 0.7094(2) 1.5238(4) 0.3041(3)
H7 H 0.6623 1.5455 0.2948
C10 C 0.88133(18) 1.7558(4) 0.3205(3)
C11 C 0.4681(2) 0.7730(5) 0.4586(2)
H8 H 0.4952 0.6949 0.4351
C12 C 0.4103(2) 0.9899(5) 0.4800(2)
H9 H 0.3890 1.0905 0.4732
C13 C 0.4072(2) 0.9018(5) 0.5416(2)
H10 H 0.3852 0.9308 0.5851
C14 C 0.4546(2) 0.6281(5) 0.5771(2)
C15 C 0.4681(2) 0.6617(6) 0.6501(2)
H11 H 0.4693 0.7687 0.6664
C16 C 0.4797(2) 0.5349(5) 0.6985(3)
H12 H 0.4860 0.5569 0.7479
C17 C 0.48215(19) 0.3771(6) 0.6743(2)
C18 C 0.4711(2) 0.3457(5) 0.6004(3)
H13 H 0.4732 0.2391 0.5837
C19 C 0.4568(2) 0.4711(5) 0.5504(3)
H14 H 0.4492 0.4492 0.5012
C20 C 0.4976(2) 0.2431(5) 0.7254(2)
N1 N 0.58836(13) 1.0907(3) 0.3098(2)
N2 N 0.68547(14) 1.2332(3) 0.3077(2)
N3 N 0.44888(17) 0.9113(5) 0.42952(17)
N4 N 0.44317(17) 0.7590(4) 0.52735(17)
O1 O 0.86356(13) 1.8936(4) 0.29802(15)
O2 O 0.94198(14) 1.7254(3) 0.34441(16)
O3 O 0.49370(16) 0.2699(4) 0.79208(16)
O4 O 0.51451(15) 0.1049(4) 0.70060(17)
Cd1B Cd 0.975830(10) 1.99556(3) 0.31786(5)
Cd1A Cd 0.524170(10) -0.00444(3) 0.81786(5)
O1B O 0.36356(13) 1.1064(4) 0.29802(15)
O2B O 0.44198(14) 1.2746(3) 0.34441(16)
O3A O 0.50630(16) 0.7301(4) 0.29208(16)
O4A O 0.48549(15) 0.8951(4) 0.20060(17)
loop_
_geom_bond_atom_site_label_1
_geom_bond_atom_site_label_2
_geom_bond_site_symmetry_1
_geom_bond_site_symmetry_2
Cd1 N1 1_555 1_555
C1 H1 1_555 1_555
C2 H2 1_555 1_555
C3 C2 1_555 1_555
H3 C3 1_555 1_555
C4 C5 1_555 1_555
C5 H4 1_555 1_555
C6 C5 1_555 1_555
H5 C6 1_555 1_555
C7 C6 1_555 1_555
C8 C7 1_555 1_555
H6 C8 1_555 1_555
C9 C4 1_555 1_555
H7 C9 1_555 1_555
C10 C7 1_555 1_555
C11 H8 1_555 1_555
C12 H9 1_555 1_555
C13 C12 1_555 1_555
H10 C13 1_555 1_555
C14 C15 1_555 1_555
C15 H11 1_555 1_555
C16 C15 1_555 1_555
H12 C16 1_555 1_555
C17 C16 1_555 1_555
C18 C17 1_555 1_555
H13 C18 1_555 1_555
C19 C14 1_555 1_555
H14 C19 1_555 1_555
C20 C17 1_555 1_555
N1 C1 1_555 1_555
N2 C1 1_555 1_555
N3 Cd1 1_555 1_555
N4 C11 1_555 1_555
O1 C10 1_555 1_555
O2 C10 1_555 1_555
O3 C20 1_555 1_555
O4 C20 1_555 1_555
Cd1B O1 1_555 1_555
Cd1A O3 1_555 1_555
O1B Cd1 1_555 1_555
O2B Cd1 1_555 1_555
O3A Cd1 1_555 1_555
O4A Cd1 1_555 1_555
C2 N1 1_555 1_555
C3 N2 1_555 1_555
C4 N2 1_555 1_555
C8 C9 1_555 1_555
C11 N3 1_555 1_555
C12 N3 1_555 1_555
C13 N4 1_555 1_555
C14 N4 1_555 1_555
C18 C19 1_555 1_555
O2 Cd1B 1_555 1_555
O4 Cd1A 1_555 1_555

#END
