
#######################################################################
#
#                 Cambridge Crystallographic Data Centre
#                                CCDC 
#
#######################################################################
#
# If this CIF has been generated from an entry in the Cambridge 
# Structural Database, then it will include bibliographic, chemical, 
# crystal, experimental, refinement or atomic coordinate data resulting 
# from the CCDC's data processing and validation procedures.
#
#######################################################################

data_EYOQAL
_symmetry_cell_setting           tetragonal
_symmetry_space_group_name_H-M   'P 4 21 2'
_symmetry_Int_Tables_number      90
_space_group_name_Hall           'P 4ab 2ab'
loop_
_symmetry_equiv_pos_site_id
_symmetry_equiv_pos_as_xyz
1 x,y,z
2 -x,-y,z
3 1/2-y,1/2+x,z
4 1/2+y,1/2-x,z
5 1/2-x,1/2+y,-z
6 1/2+x,1/2-y,-z
7 y,x,-z
8 -y,-x,-z
_cell_length_a                   18.5718(9)
_cell_length_b                   18.5718(9)
_cell_length_c                   7.7776(8)
_cell_angle_alpha                90
_cell_angle_beta                 90
_cell_angle_gamma                90
_cell_volume                     2682.59
loop_
_atom_site_label
_atom_site_type_symbol
_atom_site_fract_x
_atom_site_fract_y
_atom_site_fract_z
Co1 Co -0.22345(2) 0.22345(2) -0.5000
C1 C -0.1223(3) 0.2314(2) -0.2832(6)
C2 C -0.0704(2) 0.2459(2) -0.1385(5)
C3 C -0.0942(2) 0.2484(2) 0.0308(6)
H1 H -0.1427 0.2405 0.0541
C4 C 0.0017(3) 0.2567(3) -0.1688(6)
H2 H 0.0189 0.2535 -0.2809
C5 C -0.0479(2) 0.2622(3) 0.1648(6)
H3 H -0.0647 0.2635 0.2774
C6 C 0.0492(2) 0.2720(3) -0.0376(6)
H4 H 0.0975 0.2808 -0.0619
C7 C 0.0251(2) 0.2743(3) 0.1290(6)
C8 C 0.0645(2) 0.3475(2) 0.3807(6)
H5 H 0.0256 0.3789 0.3872
C9 C 0.1347(2) 0.2561(2) 0.3055(5)
C10 C 0.1607(3) 0.1895(3) 0.2285(7)
H6 H 0.1278 0.1741 0.1408
H7 H 0.1643 0.1529 0.3155
H8 H 0.2073 0.1975 0.1786
C11 C 0.1239(2) 0.3486(2) 0.4795(6)
H9 H 0.1336 0.3823 0.5650
N1 N 0.07237(18) 0.2903(2) 0.2670(4)
N2 N 0.16909(16) 0.29086(16) 0.4331(4)
O1 O -0.10164(18) 0.22058(18) -0.4322(4)
O2 O -0.18908(19) 0.23509(18) -0.2484(4)
Co1B Co 0.27655(2) 0.27655(2) 0.5000
Co1C Co -0.27655(2) -0.27655(2) -1.5000
C1G C -0.2314(2) 0.1223(3) -0.7168(6)
C2G C -0.2459(2) 0.0704(2) -0.8615(5)
C3G C -0.2484(2) 0.0942(2) -1.0308(6)
H1G H -0.2405 0.1427 -1.0541
C4G C -0.2567(3) -0.0017(3) -0.8312(6)
H2G H -0.2535 -0.0189 -0.7191
C5G C -0.2622(3) 0.0479(2) -1.1648(6)
H3G H -0.2635 0.0647 -1.2774
C6G C -0.2720(3) -0.0492(2) -0.9624(6)
H4G H -0.2808 -0.0975 -0.9381
C7G C -0.2743(3) -0.0251(2) -1.1290(6)
C8G C -0.3475(2) -0.0645(2) -1.3807(6)
H5G H -0.3789 -0.0256 -1.3872
C9G C -0.2561(2) -0.1347(2) -1.3055(5)
C10G C -0.1895(3) -0.1607(3) -1.2285(7)
H6G H -0.1741 -0.1278 -1.1408
H7G H -0.1529 -0.1643 -1.3155
H8G H -0.1975 -0.2073 -1.1786
C11G C -0.3486(2) -0.1239(2) -1.4795(6)
H9G H -0.3823 -0.1336 -1.5650
N1G N -0.2903(2) -0.07237(18) -1.2670(4)
N2C N -0.20914(16) 0.33091(16) -0.5669(4)
N2E N -0.33091(16) 0.20914(16) -0.4331(4)
N2G N -0.29086(16) -0.16909(16) -1.4331(4)
O1G O -0.22058(18) 0.10164(18) -0.5678(4)
O2G O -0.23509(18) 0.18908(19) -0.7516(4)
loop_
_geom_bond_atom_site_label_1
_geom_bond_atom_site_label_2
_geom_bond_site_symmetry_1
_geom_bond_site_symmetry_2
Co1 O1 1_555 1_555
C1 C2 1_555 1_555
C2 C3 1_555 1_555
C3 H1 1_555 1_555
C4 C2 1_555 1_555
H2 C4 1_555 1_555
C5 C3 1_555 1_555
H3 C5 1_555 1_555
C6 C4 1_555 1_555
H4 C6 1_555 1_555
C7 C5 1_555 1_555
C8 H5 1_555 1_555
C9 C10 1_555 1_555
C10 H6 1_555 1_555
H7 C10 1_555 1_555
H8 C10 1_555 1_555
C11 C8 1_555 1_555
H9 C11 1_555 1_555
N1 C7 1_555 1_555
N2 C9 1_555 1_555
O1 C1 1_555 1_555
O2 Co1 1_555 1_555
Co1B N2 1_555 1_555
Co1C N2G 1_555 1_555
C1G C2G 1_555 1_555
C2G C3G 1_555 1_555
C3G H1G 1_555 1_555
C4G C2G 1_555 1_555
H2G C4G 1_555 1_555
C5G C3G 1_555 1_555
H3G C5G 1_555 1_555
C6G C4G 1_555 1_555
H4G C6G 1_555 1_555
C7G C5G 1_555 1_555
C8G H5G 1_555 1_555
C9G C10G 1_555 1_555
C10G H6G 1_555 1_555
H7G C10G 1_555 1_555
H8G C10G 1_555 1_555
C11G C8G 1_555 1_555
H9G C11G 1_555 1_555
N1G C7G 1_555 1_555
N2C Co1 1_555 1_555
N2E Co1 1_555 1_555
N2G C9G 1_555 1_555
O1G Co1 1_555 1_555
O2G Co1 1_555 1_555
C1 O2 1_555 1_555
C6 C7 1_555 1_555
C8 N1 1_555 1_555
C9 N1 1_555 1_555
C11 N2 1_555 1_555
C1G O1G 1_555 1_555
C1G O2G 1_555 1_555
C6G C7G 1_555 1_555
C8G N1G 1_555 1_555
C9G N1G 1_555 1_555
C11G N2G 1_555 1_555

#END
