
#######################################################################
#
#                 Cambridge Crystallographic Data Centre
#                                CCDC 
#
#######################################################################
#
# If this CIF has been generated from an entry in the Cambridge 
# Structural Database, then it will include bibliographic, chemical, 
# crystal, experimental, refinement or atomic coordinate data resulting 
# from the CCDC's data processing and validation procedures.
#
#######################################################################

data_EYOSAN
_symmetry_cell_setting           triclinic
_symmetry_space_group_name_H-M   'P -1'
_symmetry_Int_Tables_number      2
_space_group_name_Hall           '-P 1'
loop_
_symmetry_equiv_pos_site_id
_symmetry_equiv_pos_as_xyz
1 x,y,z
2 -x,-y,-z
_cell_length_a                   12.9829(12)
_cell_length_b                   14.2101(14)
_cell_length_c                   19.9969(19)
_cell_angle_alpha                91.3570(10)
_cell_angle_beta                 106.5730(10)
_cell_angle_gamma                101.9530(10)
_cell_volume                     3445.77
loop_
_atom_site_label
_atom_site_type_symbol
_atom_site_fract_x
_atom_site_fract_y
_atom_site_fract_z
Zn1 Zn 0.12094(3) 0.68771(2) 0.442161(17)
C1 C 0.2553(2) 0.7737(2) 0.34553(16)
H1 H 0.2973 0.7287 0.3616
C2 C 0.2859(2) 0.8361(2) 0.30002(16)
H2 H 0.3467 0.8322 0.2852
C3 C 0.1085(3) 0.8390(2) 0.34363(16)
H3 H 0.0470 0.8402 0.3583
C4 C 0.1337(2) 0.9040(2) 0.29766(16)
H4 H 0.0889 0.9469 0.2813
C5 C 0.2259(2) 0.9055(2) 0.27595(15)
C6 C 0.2591(2) 0.9784(2) 0.22952(15)
C7 C 0.3049(3) 0.9591(2) 0.17800(18)
H5 H 0.3147 0.8972 0.1702
C8 C 0.3361(3) 1.0300(2) 0.13824(17)
H6 H 0.3685 1.0148 0.1047
C9 C 0.2451(3) 1.0714(2) 0.23717(18)
H7 H 0.2143 1.0885 0.2710
C10 C 0.2772(3) 1.1384(2) 0.19431(18)
H8 H 0.2666 1.2005 0.2000
C11 C -0.0272(2) 0.5856(2) 0.30661(16)
H9 H 0.0285 0.6196 0.2900
C12 C -0.1182(2) 0.5284(2) 0.25924(16)
H10 H -0.1233 0.5245 0.2119
C13 C -0.0936(3) 0.5421(2) 0.39800(16)
H11 H -0.0854 0.5461 0.4458
C14 C -0.1865(2) 0.4821(2) 0.35379(15)
H12 H -0.2386 0.4454 0.3720
C15 C -0.2024(2) 0.4764(2) 0.28214(14)
C16 C -0.3051(2) 0.4197(2) 0.23258(15)
C17 C -0.3076(2) 0.3739(2) 0.16978(16)
H13 H -0.2431 0.3792 0.1573
C18 C -0.4053(3) 0.4100(2) 0.24649(17)
H14 H -0.4088 0.4402 0.2873
C19 C -0.4991(2) 0.3557(2) 0.19994(17)
H15 H -0.5652 0.3503 0.2107
C20 C -0.4050(2) 0.3214(2) 0.12650(16)
H16 H -0.4044 0.2913 0.0848
C21 C 0.2570(3) 0.5677(2) 0.46765(17)
C22 C 0.3339(2) 0.5084(2) 0.50813(15)
C23 C 0.3112(3) 0.4119(2) 0.49065(16)
H17 H 0.2495 0.3839 0.4536
C24 C 0.4297(2) 0.5502(2) 0.56401(15)
C25 C 0.4664(3) 0.6501(2) 0.58592(17)
H18 H 0.4240 0.6927 0.5648
C26 C 0.5620(3) 0.6845(3) 0.63706(19)
H19 H 0.5846 0.7503 0.6508
C27 C 0.6276(3) 0.6217(3) 0.66952(18)
H20 H 0.6932 0.6463 0.7046
C28 C 0.5962(3) 0.5255(3) 0.65022(16)
H21 H 0.6403 0.4846 0.6723
C29 C 0.4969(3) 0.4867(2) 0.59681(15)
C30 C 0.3796(2) 0.3528(2) 0.52771(16)
C31 C 0.3542(3) 0.2471(2) 0.50894(16)
C32 C 0.2531(3) 0.1968(3) 0.4660(2)
H22 H 0.1977 0.2297 0.4479
C33 C 0.2332(4) 0.0984(3) 0.4495(2)
H23 H 0.1637 0.0658 0.4219
C34 C 0.4334(3) 0.1944(3) 0.5347(2)
H24 H 0.5021 0.2257 0.5643
C35 C 0.4120(4) 0.0960(3) 0.5173(3)
H25 H 0.4661 0.0621 0.5364
C36 C 0.3139(3) 0.0476(2) 0.47300(16)
H26 H 0.3018 -0.0176 0.4590
C37 C 0.0699(3) 0.7695(2) 0.54008(16)
C38 C 0.0626(3) 0.8267(3) 0.60089(18)
C39 C 0.1026(3) 0.9230(3) 0.60956(18)
H27 H 0.1329 0.9529 0.5765
C40 C 0.0173(3) 0.7805(3) 0.65177(18)
C41 C -0.0287(3) 0.6794(3) 0.6514(2)
H28 H -0.0312 0.6370 0.6145
C42 C -0.0682(4) 0.6448(3) 0.7034(2)
H29 H -0.0968 0.5789 0.7020
C43 C -0.0673(4) 0.7050(3) 0.7587(2)
H30 H -0.0951 0.6798 0.7941
C44 C -0.0258(3) 0.8010(3) 0.76122(19)
H31 H -0.0250 0.8408 0.7990
C45 C 0.0161(3) 0.8422(3) 0.70875(17)
C46 C 0.0994(3) 0.9805(3) 0.66853(18)
C47 C 0.1492(3) 1.0869(3) 0.6823(2)
C48 C 0.1727(5) 1.1416(4) 0.6298(3)
H32 H 0.1564 1.1124 0.5847
C49 C 0.2197(6) 1.2386(4) 0.6436(4)
H33 H 0.2335 1.2750 0.6078
C50 C 0.1721(3) 1.1323(3) 0.7479(2)
H34 H 0.1539 1.0974 0.7832
C51 C 0.2215(4) 1.2291(3) 0.7620(3)
H35 H 0.2382 1.2588 0.8069
C52 C 0.2462(4) 1.2815(4) 0.7098(4)
H36 H 0.2811 1.3466 0.7195
C53 C -0.5867(3) 0.2092(3) -0.02932(18)
C54 C -0.5502(3) 0.2010(3) -0.09465(17)
C55 C -0.5795(3) 0.1143(3) -0.13249(17)
H37 H -0.6148 0.0604 -0.1157
C56 C -0.4919(3) 0.2827(2) -0.11893(16)
C57 C -0.4531(3) 0.3753(3) -0.08399(19)
H38 H -0.4677 0.3873 -0.0421
C58 C -0.3940(3) 0.4489(3) -0.1103(2)
H39 H -0.3673 0.5096 -0.0857
C59 C -0.3740(4) 0.4327(3) -0.1733(2)
H40 H -0.3346 0.4830 -0.1912
C60 C -0.4117(3) 0.3433(3) -0.2100(2)
H41 H -0.3987 0.3342 -0.2528
C61 C -0.4696(3) 0.2652(2) -0.18366(17)
C62 C -0.5569(3) 0.1046(3) -0.19730(17)
C63 C -0.5930(3) 0.0096(3) -0.24090(18)
C64 C -0.6466(4) -0.0729(3) -0.2203(2)
H42 H -0.6621 -0.0704 -0.1778
C65 C -0.6781(5) -0.1596(3) -0.2612(3)
H43 H -0.7144 -0.2145 -0.2460
C66 C -0.5744(4) 0.0028(4) -0.3051(2)
H44 H -0.5410 0.0578 -0.3218
C67 C -0.6048(4) -0.0852(4) -0.3452(3)
H45 H -0.5893 -0.0888 -0.3877
C68 C -0.6563(4) -0.1650(4) -0.3233(3)
H46 H -0.6768 -0.2236 -0.3506
C69 C -0.8384(3) 0.2579(2) 0.05983(17)
C70 C -0.9460(2) 0.2826(2) 0.05829(15)
C71 C -0.9479(2) 0.3765(2) 0.06952(14)
H47 H -0.8837 0.4237 0.0761
C72 C -1.0454(3) 0.2108(2) 0.04849(16)
C73 C -1.0538(3) 0.1097(3) 0.04011(19)
H48 H -0.9924 0.0863 0.0390
C74 C -1.1523(4) 0.0463(3) 0.0336(2)
H49 H -1.1567 -0.0199 0.0299
C75 C -1.2473(4) 0.0812(3) 0.0327(3)
H50 H -1.3143 0.0378 0.0262
C76 C -1.2414(3) 0.1766(3) 0.0410(2)
H51 H -1.3044 0.1982 0.0406
C77 C -1.1397(3) 0.2453(3) 0.05027(19)
C78 C -1.0457(3) 0.4041(2) 0.07137(15)
C79 C -1.0478(3) 0.5058(2) 0.08620(16)
C80 C -1.1468(3) 0.5361(3) 0.06862(17)
H52 H -1.2124 0.4922 0.0462
C81 C -1.1481(4) 0.6316(4) 0.0843(2)
H53 H -1.2148 0.6509 0.0721
C82 C -0.9525(4) 0.5742(3) 0.1194(2)
H54 H -0.8851 0.5563 0.1318
C83 C -0.9562(4) 0.6685(3) 0.1345(2)
H55 H -0.8913 0.7134 0.1569
C84 C -1.0544(5) 0.6967(3) 0.1169(2)
H56 H -1.0565 0.7602 0.1274
O1 O 0.2334(2) 0.6304(2) 0.50084(13)
O2 O -0.6187(2) 0.2828(2) -0.01700(13)
O3 O -0.5835(2) 0.14307(19) 0.00983(13)
O4 O -0.75061(17) 0.31154(15) 0.10076(12)
O5 O -0.83439(18) 0.18665(16) 0.02300(12)
N1 N 0.4704(2) 0.38957(18) 0.57940(12)
N2 N 0.0558(2) 0.9404(2) 0.71589(14)
N3 N -0.5025(2) 0.1779(2) -0.22152(14)
N4 N -1.1390(2) 0.3395(2) 0.06145(15)
N5 N -0.01431(19) 0.59516(17) 0.37507(12)
N6 N -0.50175(19) 0.31048(17) 0.14064(12)
N7 N 0.16769(19) 0.77462(17) 0.36802(12)
N8 N 0.3226(2) 1.11921(17) 0.14495(13)
Zn2 Zn -0.64966(3) 0.22526(2) 0.076176(17)
O6 O 0.2231(2) 0.55533(19) 0.40255(14)
O7 O 0.0305(4) 0.6852(3) 0.5243(2)
O8 O 0.1247(4) 0.8104(2) 0.50340(16)
N8_2 N -0.6774(2) 0.11921(17) 0.14495(13)
Zn2_2 Zn 0.35034(3) 1.22526(2) 0.076176(17)
loop_
_geom_bond_atom_site_label_1
_geom_bond_atom_site_label_2
_geom_bond_site_symmetry_1
_geom_bond_site_symmetry_2
Zn1 O1 1_555 1_555
C1 H1 1_555 1_555
C2 C1 1_555 1_555
H2 C2 1_555 1_555
C3 H3 1_555 1_555
C4 C3 1_555 1_555
H4 C4 1_555 1_555
C5 C2 1_555 1_555
C6 C5 1_555 1_555
C7 C6 1_555 1_555
H5 C7 1_555 1_555
C8 C7 1_555 1_555
H6 C8 1_555 1_555
C9 C6 1_555 1_555
H7 C9 1_555 1_555
C10 C9 1_555 1_555
H8 C10 1_555 1_555
C11 H9 1_555 1_555
C12 C11 1_555 1_555
H10 C12 1_555 1_555
C13 H11 1_555 1_555
C14 C13 1_555 1_555
H12 C14 1_555 1_555
C15 C12 1_555 1_555
C16 C15 1_555 1_555
C17 C16 1_555 1_555
H13 C17 1_555 1_555
C18 C16 1_555 1_555
H14 C18 1_555 1_555
C19 C18 1_555 1_555
H15 C19 1_555 1_555
C20 C17 1_555 1_555
H16 C20 1_555 1_555
C21 C22 1_555 1_555
C22 C23 1_555 1_555
C23 H17 1_555 1_555
C24 C22 1_555 1_555
C25 C24 1_555 1_555
H18 C25 1_555 1_555
C26 C25 1_555 1_555
H19 C26 1_555 1_555
C27 C26 1_555 1_555
H20 C27 1_555 1_555
C28 C27 1_555 1_555
H21 C28 1_555 1_555
C29 C24 1_555 1_555
C30 C23 1_555 1_555
C31 C30 1_555 1_555
C32 C31 1_555 1_555
H22 C32 1_555 1_555
C33 C32 1_555 1_555
H23 C33 1_555 1_555
C34 C31 1_555 1_555
H24 C34 1_555 1_555
C35 C34 1_555 1_555
H25 C35 1_555 1_555
C36 C33 1_555 1_555
H26 C36 1_555 1_555
C37 C38 1_555 1_555
C38 C39 1_555 1_555
C39 H27 1_555 1_555
C40 C38 1_555 1_555
C41 C40 1_555 1_555
H28 C41 1_555 1_555
C42 C41 1_555 1_555
H29 C42 1_555 1_555
C43 C42 1_555 1_555
H30 C43 1_555 1_555
C44 C43 1_555 1_555
H31 C44 1_555 1_555
C45 C40 1_555 1_555
C46 C39 1_555 1_555
C47 C46 1_555 1_555
C48 C47 1_555 1_555
H32 C48 1_555 1_555
C49 C48 1_555 1_555
H33 C49 1_555 1_555
C50 C47 1_555 1_555
H34 C50 1_555 1_555
C51 C50 1_555 1_555
H35 C51 1_555 1_555
C52 C49 1_555 1_555
H36 C52 1_555 1_555
C53 C54 1_555 1_555
C54 C55 1_555 1_555
C55 H37 1_555 1_555
C56 C54 1_555 1_555
C57 C56 1_555 1_555
H38 C57 1_555 1_555
C58 C57 1_555 1_555
H39 C58 1_555 1_555
C59 C58 1_555 1_555
H40 C59 1_555 1_555
C60 C59 1_555 1_555
H41 C60 1_555 1_555
C61 C56 1_555 1_555
C62 C55 1_555 1_555
C63 C62 1_555 1_555
C64 C63 1_555 1_555
H42 C64 1_555 1_555
C65 C64 1_555 1_555
H43 C65 1_555 1_555
C66 C63 1_555 1_555
H44 C66 1_555 1_555
C67 C66 1_555 1_555
H45 C67 1_555 1_555
C68 C65 1_555 1_555
H46 C68 1_555 1_555
C69 C70 1_555 1_555
C70 C71 1_555 1_555
C71 H47 1_555 1_555
C72 C70 1_555 1_555
C73 C72 1_555 1_555
H48 C73 1_555 1_555
C74 C73 1_555 1_555
H49 C74 1_555 1_555
C75 C74 1_555 1_555
H50 C75 1_555 1_555
C76 C75 1_555 1_555
H51 C76 1_555 1_555
C77 C72 1_555 1_555
C78 C71 1_555 1_555
C79 C78 1_555 1_555
C80 C79 1_555 1_555
H52 C80 1_555 1_555
C81 C80 1_555 1_555
H53 C81 1_555 1_555
C82 C79 1_555 1_555
H54 C82 1_555 1_555
C83 C82 1_555 1_555
H55 C83 1_555 1_555
C84 C81 1_555 1_555
H56 C84 1_555 1_555
O1 C21 1_555 1_555
O2 C53 1_555 1_555
O3 C53 1_555 1_555
O4 C69 1_555 1_555
O5 C69 1_555 1_555
N1 C29 1_555 1_555
N2 C45 1_555 1_555
N3 C61 1_555 1_555
N4 C77 1_555 1_555
N5 Zn1 1_555 1_555
N6 C19 1_555 1_555
N7 Zn1 1_555 1_555
N8 C8 1_555 1_555
Zn2 O2 1_555 1_555
O6 C21 1_555 1_555
O7 Zn1 1_555 1_555
O8 Zn1 1_555 1_555
N8_2 Zn2 1_555 1_555
Zn2_2 N8 1_555 1_555
C1 N7 1_555 1_555
C3 N7 1_555 1_555
C4 C5 1_555 1_555
C10 N8 1_555 1_555
C11 N5 1_555 1_555
C13 N5 1_555 1_555
C14 C15 1_555 1_555
C20 N6 1_555 1_555
C28 C29 1_555 1_555
C30 N1 1_555 1_555
C35 C36 1_555 1_555
C37 O7 1_555 1_555
C37 O8 1_555 1_555
C44 C45 1_555 1_555
C46 N2 1_555 1_555
C51 C52 1_555 1_555
C60 C61 1_555 1_555
C62 N3 1_555 1_555
C67 C68 1_555 1_555
C76 C77 1_555 1_555
C78 N4 1_555 1_555
C83 C84 1_555 1_555
O3 Zn2 1_555 1_555
O4 Zn2 1_555 1_555
O5 Zn2 1_555 1_555
N6 Zn2 1_555 1_555

#END
