
#######################################################################
#
#                 Cambridge Crystallographic Data Centre
#                                CCDC 
#
#######################################################################
#
# If this CIF has been generated from an entry in the Cambridge 
# Structural Database, then it will include bibliographic, chemical, 
# crystal, experimental, refinement or atomic coordinate data resulting 
# from the CCDC's data processing and validation procedures.
#
#######################################################################

data_EYOWUL
_symmetry_cell_setting           monoclinic
_symmetry_space_group_name_H-M   'P 21/c'
_symmetry_Int_Tables_number      14
_space_group_name_Hall           '-P 2ybc'
loop_
_symmetry_equiv_pos_site_id
_symmetry_equiv_pos_as_xyz
1 x,y,z
2 -x,1/2+y,1/2-z
3 -x,-y,-z
4 x,1/2-y,1/2+z
_cell_length_a                   20.535(4)
_cell_length_b                   12.214(2)
_cell_length_c                   28.938(6)
_cell_angle_alpha                90
_cell_angle_beta                 98.18(3)
_cell_angle_gamma                90
_cell_volume                     7184.23
loop_
_atom_site_label
_atom_site_type_symbol
_atom_site_fract_x
_atom_site_fract_y
_atom_site_fract_z
Ag1 Ag 0.16052(4) -0.06218(5) 0.23776(3)
Ag2 Ag 0.34305(4) 0.04644(5) 0.28121(2)
Ag3 Ag 0.18188(4) 0.42525(6) 0.18004(3)
Ag4 Ag 0.17660(4) 0.44433(6) 0.30061(3)
Ag5 Ag 0.32106(4) 0.54131(6) 0.21706(3)
Ag6 Ag 0.31473(4) 0.55636(6) 0.33892(3)
N1 N 0.1595(4) 0.5966(6) 0.2077(3)
N2 N 0.1654(4) 0.5952(5) 0.2558(3)
N3 N 0.1554(4) 0.7674(5) 0.2301(2)
N4 N 0.1657(4) 0.2801(6) 0.2208(3)
N5 N 0.1742(4) 0.2806(5) 0.2682(3)
N6 N 0.1683(4) 0.1073(5) 0.2448(3)
N7 N 0.3247(4) -0.2946(6) 0.2502(3)
N8 N 0.3345(4) -0.2961(6) 0.2977(3)
N9 N 0.3356(4) -0.1233(5) 0.2742(3)
N10 N 0.3326(4) 0.3893(5) 0.2611(3)
N11 N 0.3373(4) 0.3879(5) 0.3095(3)
N12 N 0.3462(4) 0.2166(6) 0.2857(3)
N13 N 0.1859(5) 0.4985(6) 0.3753(3)
N14 N 0.2450(5) 0.5500(6) 0.3910(3)
N15 N 0.1721(5) 0.5950(6) 0.4387(3)
N16 N 0.2496(4) 0.4335(6) 0.1268(3)
N17 N 0.3074(5) 0.4917(6) 0.1413(3)
N18 N 0.3198(5) 0.4029(6) 0.0766(3)
C1 C 0.1668(5) 0.7405(7) 0.3175(3)
H1 H 0.1593 0.6802 0.3373
H2 H 0.1338 0.7955 0.3190
H3 H 0.2095 0.7712 0.3277
C2 C 0.1637(5) 0.7018(7) 0.2690(3)
C3 C 0.1538(5) 0.7009(7) 0.1928(3)
C4 C 0.1446(5) 0.7343(7) 0.1450(3)
C5 C 0.1200(6) 0.8381(7) 0.1313(4)
H4 H 0.1085 0.8866 0.1536
C6 C 0.1126(6) 0.8692(9) 0.0842(4)
H5 H 0.0961 0.9383 0.0756
C7 C 0.1288(6) 0.8011(10) 0.0513(4)
H6 H 0.1244 0.8235 0.0203
C8 C 0.1520(6) 0.6985(10) 0.0635(4)
H7 H 0.1625 0.6508 0.0406
C9 C 0.1598(6) 0.6658(8) 0.1091(3)
H8 H 0.1758 0.5958 0.1166
C10 C 0.3568(6) -0.1579(8) 0.3610(3)
H9 H 0.3403 -0.2115 0.3807
H10 H 0.3363 -0.0886 0.3650
H11 H 0.4035 -0.1512 0.3695
C11 C 0.3417(5) -0.1926(7) 0.3117(3)
C12 C 0.3248(5) -0.1909(7) 0.2370(3)
C13 C 0.3185(5) -0.1542(7) 0.1886(3)
C14 C 0.3271(7) -0.0488(10) 0.1777(4)
H12 H 0.3388 0.0022 0.2013
C15 C 0.3186(8) -0.0149(12) 0.1302(5)
H13 H 0.3174 0.0595 0.1232
C16 C 0.3122(6) -0.0873(10) 0.0956(4)
H14 H 0.3106 -0.0651 0.0647
C17 C 0.3083(7) -0.1913(8) 0.1065(4)
H15 H 0.3039 -0.2436 0.0829
C18 C 0.3107(6) -0.2245(8) 0.1519(4)
H16 H 0.3067 -0.2988 0.1579
C19 C 0.1522(6) 0.1389(7) 0.1578(3)
H17 H 0.1537 0.2011 0.1377
H18 H 0.1103 0.1032 0.1507
H19 H 0.1866 0.0886 0.1530
C20 C 0.1618(5) 0.1759(8) 0.2077(3)
C21 C 0.1754(5) 0.1746(7) 0.2817(4)
C22 C 0.1835(5) 0.1403(7) 0.3303(3)
C23 C 0.2020(7) 0.0350(9) 0.3436(4)
H20 H 0.2101 -0.0156 0.3212
C24 C 0.2084(7) 0.0038(9) 0.3898(5)
H21 H 0.2226 -0.0671 0.3973
C25 C 0.1955(6) 0.0697(9) 0.4248(4)
H22 H 0.1976 0.0445 0.4553
C26 C 0.1792(6) 0.1753(9) 0.4130(4)
H23 H 0.1720 0.2249 0.4361
C27 C 0.1733(5) 0.2097(8) 0.3668(3)
H24 H 0.1620 0.2822 0.3600
C28 C 0.3353(5) 0.2474(7) 0.1996(3)
H25 H 0.2912 0.2254 0.1879
H26 H 0.3645 0.1864 0.1984
H27 H 0.3483 0.3062 0.1810
C29 C 0.3382(5) 0.2840(7) 0.2481(4)
C30 C 0.3457(5) 0.2839(7) 0.3230(3)
C31 C 0.3563(5) 0.2460(7) 0.3708(3)
C32 C 0.3942(6) 0.1537(8) 0.3840(4)
H28 H 0.4133 0.1148 0.3618
C33 C 0.4036(7) 0.1197(9) 0.4298(4)
H29 H 0.4295 0.0583 0.4380
C34 C 0.3761(7) 0.1735(11) 0.4633(4)
H30 H 0.3821 0.1487 0.4940
C35 C 0.3389(6) 0.2664(11) 0.4507(4)
H31 H 0.3198 0.3049 0.4731
C36 C 0.3303(6) 0.3009(9) 0.4055(4)
H32 H 0.3059 0.3641 0.3978
C37 C 0.4138(6) 0.5219(9) 0.1126(4)
H33 H 0.4168 0.5859 0.1320
H34 H 0.4212 0.5419 0.0817
H35 H 0.4464 0.4696 0.1254
C38 C 0.3460(6) 0.4717(8) 0.1105(4)
C39 C 0.2607(6) 0.3834(7) 0.0883(3)
C40 C 0.2136(7) 0.3060(8) 0.0629(3)
C41 C 0.2340(6) 0.2082(9) 0.0460(3)
H36 H 0.2788 0.1928 0.0489
C42 C 0.1893(9) 0.1324(11) 0.0248(4)
H37 H 0.2042 0.0662 0.0144
C43 C 0.1241(9) 0.1542(13) 0.0190(5)
H38 H 0.0940 0.1039 0.0043
C44 C 0.1032(7) 0.2519(13) 0.0352(5)
H39 H 0.0585 0.2683 0.0309
C45 C 0.1476(7) 0.3266(10) 0.0578(4)
H40 H 0.1324 0.3912 0.0695
C46 C 0.0775(6) 0.4881(8) 0.4006(4)
H41 H 0.0748 0.4154 0.3878
H42 H 0.0494 0.5361 0.3804
H43 H 0.0637 0.4871 0.4309
C47 C 0.1460(6) 0.5273(7) 0.4047(4)
C48 C 0.2338(6) 0.6068(8) 0.4284(3)
C49 C 0.2839(7) 0.6782(8) 0.4537(4)
C50 C 0.3488(8) 0.6510(10) 0.4576(4)
H44 H 0.3611 0.5844 0.4459
C51 C 0.3963(7) 0.7218(12) 0.4788(4)
H45 H 0.4404 0.7027 0.4808
C52 C 0.3794(8) 0.8194(12) 0.4969(4)
H46 H 0.4119 0.8666 0.5110
C53 C 0.3140(8) 0.8474(10) 0.4940(4)
H47 H 0.3019 0.9137 0.5060
C54 C 0.2665(7) 0.7761(9) 0.4730(3)
H48 H 0.2222 0.7939 0.4719
Ag1_2 Ag 0.16052(4) 0.93782(5) 0.23776(3)
Ag5_2 Ag 0.32106(4) -0.45869(6) 0.21706(3)
Ag6_2 Ag 0.31473(4) -0.44364(6) 0.33892(3)
N3_2 N 0.1554(4) -0.2326(5) 0.2301(2)
N7_2 N 0.3247(4) 0.7054(6) 0.2502(3)
N8_2 N 0.3345(4) 0.7039(6) 0.2977(3)
Ag7 Ag 0.00028(5) -0.49617(6) 0.24943(3)
N19 N 0.0035(4) -0.8352(6) 0.2269(3)
N20 N -0.0033(4) -0.8063(7) 0.1810(3)
N21 N 0.0037(4) -0.6566(6) 0.2255(3)
C55 C 0.0149(6) -0.7438(8) 0.3045(4)
H49 H -0.0277 -0.7487 0.3144
H50 H 0.0357 -0.6766 0.3156
H51 H 0.0415 -0.8045 0.3170
C56 C 0.0077(5) -0.7463(8) 0.2534(4)
C57 C -0.0034(5) -0.6976(8) 0.1810(4)
C58 C -0.0115(5) -0.6330(8) 0.1382(4)
C59 C -0.0469(6) -0.6751(9) 0.0986(4)
H52 H -0.0637 -0.7458 0.0988
C60 C -0.0576(7) -0.6142(12) 0.0587(4)
H53 H -0.0812 -0.6447 0.0320
C61 C -0.0350(7) -0.5111(12) 0.0571(5)
H54 H -0.0432 -0.4696 0.0300
C62 C 0.0001(6) -0.4702(10) 0.0964(5)
H55 H 0.0162 -0.3992 0.0958
C63 C 0.0127(6) -0.5278(8) 0.1364(4)
H56 H 0.0375 -0.4970 0.1626
Ag7A Ag -0.00028(5) -0.99617(6) 0.25057(3)
N19A N -0.0035(4) -0.3352(6) 0.2731(3)
Ag8 Ag 0.50495(4) 0.02194(5) 0.25191(3)
N22 N 0.4989(4) 0.3602(6) 0.2266(3)
N23 N 0.4944(4) 0.3290(6) 0.1813(3)
N24 N 0.5054(4) 0.1819(6) 0.2275(3)
C64 C 0.5114(5) 0.2738(8) 0.3048(3)
H57 H 0.5016 0.3460 0.3150
H58 H 0.5553 0.2540 0.3183
H59 H 0.4807 0.2225 0.3146
C65 C 0.5064(5) 0.2721(7) 0.2546(4)
C66 C 0.4978(5) 0.2203(8) 0.1835(3)
C67 C 0.4921(5) 0.1514(7) 0.1417(4)
C68 C 0.4546(6) 0.1846(9) 0.1021(4)
H60 H 0.4341 0.2526 0.1017
C69 C 0.4456(7) 0.1231(11) 0.0629(5)
H61 H 0.4195 0.1486 0.0362
C70 C 0.4761(7) 0.0209(11) 0.0629(4)
H62 H 0.4702 -0.0224 0.0362
C71 C 0.5157(6) -0.0163(9) 0.1036(4)
H63 H 0.5363 -0.0843 0.1048
C72 C 0.5225(5) 0.0507(9) 0.1406(4)
H64 H 0.5495 0.0278 0.1674
Ag8A Ag 0.49505(4) 0.52194(5) 0.24809(3)
N22A N 0.5011(4) -0.1398(6) 0.2734(3)
loop_
_geom_bond_atom_site_label_1
_geom_bond_atom_site_label_2
_geom_bond_site_symmetry_1
_geom_bond_site_symmetry_2
Ag1 N6 1_555 1_555
Ag2 N9 1_555 1_555
Ag3 N1 1_555 1_555
Ag4 N2 1_555 1_555
Ag5 N10 1_555 1_555
Ag6 N11 1_555 1_555
Ag7 N21 1_555 1_555
Ag8 N24 1_555 1_555
N1 N2 1_555 1_555
N2 C2 1_555 1_555
N3 C2 1_555 1_555
N4 Ag3 1_555 1_555
N5 Ag4 1_555 1_555
N6 C20 1_555 1_555
N7 N8 1_555 1_555
N8 C11 1_555 1_555
N9 C11 1_555 1_555
N10 N11 1_555 1_555
N11 C30 1_555 1_555
N12 Ag2 1_555 1_555
N13 Ag4 1_555 1_555
N14 Ag6 1_555 1_555
N15 C47 1_555 1_555
N16 Ag3 1_555 1_555
N17 Ag5 1_555 1_555
N18 C38 1_555 1_555
N19 N20 1_555 1_555
N20 C57 1_555 1_555
N21 C56 1_555 1_555
N22 N23 1_555 1_555
N23 C66 1_555 1_555
N24 C65 1_555 1_555
C1 H1 1_555 1_555
H2 C1 1_555 1_555
H3 C1 1_555 1_555
C2 C1 1_555 1_555
C3 N1 1_555 1_555
C4 C3 1_555 1_555
C5 C4 1_555 1_555
H4 C5 1_555 1_555
C6 C5 1_555 1_555
H5 C6 1_555 1_555
C7 C6 1_555 1_555
H6 C7 1_555 1_555
C8 C7 1_555 1_555
H7 C8 1_555 1_555
C9 C4 1_555 1_555
H8 C9 1_555 1_555
C10 H9 1_555 1_555
H10 C10 1_555 1_555
H11 C10 1_555 1_555
C11 C10 1_555 1_555
C12 N7 1_555 1_555
C13 C12 1_555 1_555
C14 C13 1_555 1_555
H12 C14 1_555 1_555
C15 C14 1_555 1_555
H13 C15 1_555 1_555
C16 C15 1_555 1_555
H14 C16 1_555 1_555
C17 C16 1_555 1_555
H15 C17 1_555 1_555
C18 C13 1_555 1_555
H16 C18 1_555 1_555
C19 H17 1_555 1_555
H18 C19 1_555 1_555
H19 C19 1_555 1_555
C20 N4 1_555 1_555
C21 N5 1_555 1_555
C22 C21 1_555 1_555
C23 C22 1_555 1_555
H20 C23 1_555 1_555
C24 C23 1_555 1_555
H21 C24 1_555 1_555
C25 C24 1_555 1_555
H22 C25 1_555 1_555
C26 C25 1_555 1_555
H23 C26 1_555 1_555
C27 C22 1_555 1_555
H24 C27 1_555 1_555
C28 H25 1_555 1_555
H26 C28 1_555 1_555
H27 C28 1_555 1_555
C29 N10 1_555 1_555
C30 N12 1_555 1_555
C31 C30 1_555 1_555
C32 C31 1_555 1_555
H28 C32 1_555 1_555
C33 C32 1_555 1_555
H29 C33 1_555 1_555
C34 C33 1_555 1_555
H30 C34 1_555 1_555
C35 C34 1_555 1_555
H31 C35 1_555 1_555
C36 C31 1_555 1_555
H32 C36 1_555 1_555
C37 H33 1_555 1_555
H34 C37 1_555 1_555
H35 C37 1_555 1_555
C38 N17 1_555 1_555
C39 N16 1_555 1_555
C40 C39 1_555 1_555
C41 C40 1_555 1_555
H36 C41 1_555 1_555
C42 C41 1_555 1_555
H37 C42 1_555 1_555
C43 C42 1_555 1_555
H38 C43 1_555 1_555
C44 C43 1_555 1_555
H39 C44 1_555 1_555
C45 C40 1_555 1_555
H40 C45 1_555 1_555
C46 H41 1_555 1_555
H42 C46 1_555 1_555
H43 C46 1_555 1_555
C47 N13 1_555 1_555
C48 N14 1_555 1_555
C49 C48 1_555 1_555
C50 C49 1_555 1_555
H44 C50 1_555 1_555
C51 C50 1_555 1_555
H45 C51 1_555 1_555
C52 C51 1_555 1_555
H46 C52 1_555 1_555
C53 C52 1_555 1_555
H47 C53 1_555 1_555
C54 C49 1_555 1_555
H48 C54 1_555 1_555
C55 H49 1_555 1_555
H50 C55 1_555 1_555
H51 C55 1_555 1_555
C56 N19 1_555 1_555
C57 N21 1_555 1_555
C58 C57 1_555 1_555
C59 C58 1_555 1_555
H52 C59 1_555 1_555
C60 C59 1_555 1_555
H53 C60 1_555 1_555
C61 C60 1_555 1_555
H54 C61 1_555 1_555
C62 C61 1_555 1_555
H55 C62 1_555 1_555
C63 C58 1_555 1_555
H56 C63 1_555 1_555
C64 H57 1_555 1_555
H58 C64 1_555 1_555
H59 C64 1_555 1_555
C65 N22 1_555 1_555
C66 N24 1_555 1_555
C67 C66 1_555 1_555
C68 C67 1_555 1_555
H60 C68 1_555 1_555
C69 C68 1_555 1_555
H61 C69 1_555 1_555
C70 C69 1_555 1_555
H62 C70 1_555 1_555
C71 C70 1_555 1_555
H63 C71 1_555 1_555
C72 C67 1_555 1_555
H64 C72 1_555 1_555
Ag1_2 N3 1_555 1_555
Ag5_2 N7 1_555 1_555
Ag6_2 N8 1_555 1_555
Ag7A N19 1_555 1_555
Ag8A N22 1_555 1_555
N3_2 Ag1 1_555 1_555
N7_2 Ag5 1_555 1_555
N8_2 Ag6 1_555 1_555
N19A Ag7 1_555 1_555
N22A Ag8 1_555 1_555
N3 C3 1_555 1_555
N4 N5 1_555 1_555
N6 C21 1_555 1_555
N9 C12 1_555 1_555
N12 C29 1_555 1_555
N13 N14 1_555 1_555
N15 C48 1_555 1_555
N16 N17 1_555 1_555
N18 C39 1_555 1_555
C8 C9 1_555 1_555
C17 C18 1_555 1_555
C19 C20 1_555 1_555
C26 C27 1_555 1_555
C28 C29 1_555 1_555
C35 C36 1_555 1_555
C37 C38 1_555 1_555
C44 C45 1_555 1_555
C46 C47 1_555 1_555
C53 C54 1_555 1_555
C55 C56 1_555 1_555
C62 C63 1_555 1_555
C64 C65 1_555 1_555
C71 C72 1_555 1_555
N7_2 N8_2 1_555 1_555

#END
