
#######################################################################
#
#                 Cambridge Crystallographic Data Centre
#                                CCDC 
#
#######################################################################
#
# If this CIF has been generated from an entry in the Cambridge 
# Structural Database, then it will include bibliographic, chemical, 
# crystal, experimental, refinement or atomic coordinate data resulting 
# from the CCDC's data processing and validation procedures.
#
#######################################################################

data_EYOYOH
_symmetry_cell_setting           triclinic
_symmetry_space_group_name_H-M   'P -1'
_symmetry_Int_Tables_number      2
_space_group_name_Hall           '-P 1'
loop_
_symmetry_equiv_pos_site_id
_symmetry_equiv_pos_as_xyz
1 x,y,z
2 -x,-y,-z
_cell_length_a                   10.392(2)
_cell_length_b                   10.987(2)
_cell_length_c                   12.651(3)
_cell_angle_alpha                71.173(2)
_cell_angle_beta                 86.730(3)
_cell_angle_gamma                86.647(3)
_cell_volume                     1363.72
loop_
_atom_site_label
_atom_site_type_symbol
_atom_site_fract_x
_atom_site_fract_y
_atom_site_fract_z
Cu1 Cu 0.87011(8) 0.68404(8) -0.10420(7)
Cu2 Cu 0.98072(7) 0.53921(7) 0.36156(6)
Br1 Br 1.43550(8) 1.04809(9) -0.37480(7)
Br2 Br 1.32440(7) 1.11247(7) 0.01367(6)
O1 O 1.0244(5) 0.7418(4) -0.0642(4)
O2 O 1.1480(4) 0.6134(4) 0.3401(3)
N1 N 0.8712(5) 0.8167(5) -0.2496(4)
N2 N 0.7003(6) 0.6369(6) -0.1543(5)
N3 N 0.8975(5) 0.6994(5) 0.2705(4)
N4 N 0.7961(5) 0.4811(5) 0.4076(4)
N5 N 0.8367(6) 0.5685(6) 0.0498(5)
N6 N 0.9218(6) 0.5232(5) 0.1122(5)
N7 N 1.0005(6) 0.4769(6) 0.1769(5)
N8 N 1.0619(5) 0.3766(5) 0.4547(4)
N9 N 1.0118(6) 0.2746(6) 0.4884(4)
N10 N 0.9681(6) 0.1749(6) 0.5231(5)
C1 C 1.0901(7) 0.8799(6) -0.2477(5)
C2 C 1.1094(7) 0.8111(7) -0.1345(6)
C3 C 1.2340(7) 0.8177(7) -0.0966(6)
H1 H 1.2516 0.7742 -0.0223
C4 C 1.3298(7) 0.8868(7) -0.1671(6)
H2 H 1.4110 0.8888 -0.1404
C5 C 1.3045(7) 0.9522(7) -0.2763(6)
C6 C 1.1854(7) 0.9487(7) -0.3154(6)
H3 H 1.1690 0.9941 -0.3896
C7 C 0.9666(7) 0.8845(6) -0.2973(6)
H4 H 0.9562 0.9411 -0.3692
C8 C 0.7476(7) 0.8317(8) -0.3066(6)
H5 H 0.7615 0.8688 -0.3868
H6 H 0.6866 0.8873 -0.2808
C9 C 0.6974(8) 0.6972(8) -0.2768(6)
H7 H 0.6099 0.7017 -0.3011
H8 H 0.7511 0.6466 -0.3137
C10 C 0.6736(8) 0.5012(8) -0.1191(6)
H9 H 0.6868 0.4644 -0.0396
H10 H 0.7347 0.4582 -0.1574
C11 C 0.5364(7) 0.4747(8) -0.1420(7)
H11 H 0.4752 0.5254 -0.1124
H12 H 0.5208 0.3850 -0.1069
H13 H 0.5272 0.4969 -0.2212
C12 C 1.0909(6) 0.8159(6) 0.2038(5)
C13 C 1.1796(6) 0.7238(6) 0.2685(5)
C14 C 1.3096(6) 0.7541(6) 0.2556(5)
H14 H 1.3690 0.6960 0.2998
C15 C 1.3536(7) 0.8678(7) 0.1793(6)
H15 H 1.4412 0.8837 0.1702
C16 C 1.2648(7) 0.9558(6) 0.1179(5)
C17 C 1.1363(6) 0.9338(6) 0.1287(5)
H16 H 1.0781 0.9959 0.0870
C18 C 0.9544(6) 0.8004(6) 0.2115(5)
H17 H 0.9030 0.8696 0.1702
C19 C 0.7583(6) 0.6941(6) 0.2712(5)
H18 H 0.7336 0.6648 0.2109
H19 H 0.7182 0.7788 0.2612
C20 C 0.7152(6) 0.6009(6) 0.3831(5)
H20 H 0.7227 0.6395 0.4414
H21 H 0.6255 0.5819 0.3813
C21 C 0.7502(6) 0.3861(6) 0.3602(5)
H22 H 0.8215 0.3276 0.3538
H23 H 0.7207 0.4306 0.2856
C22 C 0.6414(7) 0.3091(7) 0.4303(6)
H24 H 0.6731 0.2557 0.5008
H25 H 0.6084 0.2560 0.3917
H26 H 0.5736 0.3668 0.4427
H27 H 0.809(7) 0.452(7) 0.4815(15)
H28 H 0.629(4) 0.669(7) -0.128(6)
Cu1A Cu 1.12989(8) 0.31596(8) 0.10420(7)
Cu2A Cu 1.01928(7) 0.46079(7) 0.63844(6)
N7A N 0.9995(6) 0.5231(6) -0.1769(5)
N8A N 0.9381(5) 0.6234(5) 0.5453(4)
loop_
_geom_bond_atom_site_label_1
_geom_bond_atom_site_label_2
_geom_bond_site_symmetry_1
_geom_bond_site_symmetry_2
Cu1 O1 1_555 1_555
Cu2 O2 1_555 1_555
Br1 C5 1_555 1_555
Br2 C16 1_555 1_555
O1 C2 1_555 1_555
O2 C13 1_555 1_555
N1 Cu1 1_555 1_555
N2 Cu1 1_555 1_555
N3 Cu2 1_555 1_555
N4 Cu2 1_555 1_555
N5 Cu1 1_555 1_555
N6 N5 1_555 1_555
N7 Cu2 1_555 1_555
N8 Cu2 1_555 1_555
N9 N8 1_555 1_555
N10 N9 1_555 1_555
C1 C2 1_555 1_555
C2 C3 1_555 1_555
C3 H1 1_555 1_555
C4 C3 1_555 1_555
H2 C4 1_555 1_555
C5 C4 1_555 1_555
C6 C1 1_555 1_555
H3 C6 1_555 1_555
C7 N1 1_555 1_555
H4 C7 1_555 1_555
C8 N1 1_555 1_555
H5 C8 1_555 1_555
H6 C8 1_555 1_555
C9 N2 1_555 1_555
H7 C9 1_555 1_555
H8 C9 1_555 1_555
C10 N2 1_555 1_555
H9 C10 1_555 1_555
H10 C10 1_555 1_555
C11 C10 1_555 1_555
H11 C11 1_555 1_555
H12 C11 1_555 1_555
H13 C11 1_555 1_555
C12 C13 1_555 1_555
C13 C14 1_555 1_555
C14 H14 1_555 1_555
C15 C14 1_555 1_555
H15 C15 1_555 1_555
C16 C15 1_555 1_555
C17 C12 1_555 1_555
H16 C17 1_555 1_555
C18 N3 1_555 1_555
H17 C18 1_555 1_555
C19 N3 1_555 1_555
H18 C19 1_555 1_555
H19 C19 1_555 1_555
C20 N4 1_555 1_555
H20 C20 1_555 1_555
H21 C20 1_555 1_555
C21 N4 1_555 1_555
H22 C21 1_555 1_555
H23 C21 1_555 1_555
C22 C21 1_555 1_555
H24 C22 1_555 1_555
H25 C22 1_555 1_555
H26 C22 1_555 1_555
H27 N4 1_555 1_555
H28 N2 1_555 1_555
Cu1A N7 1_555 1_555
Cu2A N8 1_555 1_555
N7A Cu1 1_555 1_555
N8A Cu2 1_555 1_555
N6 N7 1_555 1_555
C1 C7 1_555 1_555
C5 C6 1_555 1_555
C8 C9 1_555 1_555
C12 C18 1_555 1_555
C16 C17 1_555 1_555
C19 C20 1_555 1_555
Cu2A N8A 1_555 1_555

#END
