
#######################################################################
#
#                 Cambridge Crystallographic Data Centre
#                                CCDC 
#
#######################################################################
#
# If this CIF has been generated from an entry in the Cambridge 
# Structural Database, then it will include bibliographic, chemical, 
# crystal, experimental, refinement or atomic coordinate data resulting 
# from the CCDC's data processing and validation procedures.
#
#######################################################################

data_EYUBOQ
_symmetry_cell_setting           rhombohedral
_symmetry_space_group_name_H-M   'R -3'
_symmetry_Int_Tables_number      148
_space_group_name_Hall           '-R 3'
loop_
_symmetry_equiv_pos_site_id
_symmetry_equiv_pos_as_xyz
1 x,y,z
2 -y,x-y,z
3 -x+y,-x,z
4 2/3+x,1/3+y,1/3+z
5 2/3-y,1/3+x-y,1/3+z
6 2/3-x+y,1/3-x,1/3+z
7 1/3+x,2/3+y,2/3+z
8 1/3-y,2/3+x-y,2/3+z
9 1/3-x+y,2/3-x,2/3+z
10 -x,-y,-z
11 y,-x+y,-z
12 x-y,x,-z
13 1/3-x,2/3-y,2/3-z
14 1/3+y,2/3-x+y,2/3-z
15 1/3+x-y,2/3+x,2/3-z
16 2/3-x,1/3-y,1/3-z
17 2/3+y,1/3-x+y,1/3-z
18 2/3+x-y,1/3+x,1/3-z
_cell_length_a                   23.6196(7)
_cell_length_b                   23.6196(7)
_cell_length_c                   9.5024(3)
_cell_angle_alpha                90
_cell_angle_beta                 90
_cell_angle_gamma                120
_cell_volume                     4591.02
loop_
_atom_site_label
_atom_site_type_symbol
_atom_site_fract_x
_atom_site_fract_y
_atom_site_fract_z
Fe1 Fe 0.0000 0.0000 0.5000
Fe2 Fe 0.0000 0.0000 0.0000
P1 P 0.10372(3) 0.01317(3) 0.24197(6)
N1 N 0.19576(12) -0.05775(12) 0.2874(3)
H1 H 0.2186 -0.0306 0.2160
O1 O 0.07450(9) 0.01133(9) 0.38229(17)
O2 O 0.07979(8) 0.03515(8) 0.11873(16)
O3 O 0.17932(8) 0.05843(9) 0.25651(19)
H2 H 0.1980 0.0828 0.1979
C1 C 0.09396(13) -0.06601(13) 0.2068(3)
H3 H 0.0470 -0.0994 0.2117
H4 H 0.1095 -0.0665 0.1103
C2 C 0.13113(14) -0.08300(13) 0.3096(3)
C3 C 0.10433(15) -0.12090(15) 0.4265(3)
H5 H 0.0591 -0.1389 0.4462
C4 C 0.14348(16) -0.13293(16) 0.5164(3)
H6 H 0.1247 -0.1594 0.5974
C5 C 0.20853(16) -0.10718(16) 0.4897(3)
H7 H 0.2352 -0.1158 0.5507
C6 C 0.23458(15) -0.06855(15) 0.3728(3)
H8 H 0.2799 -0.0496 0.3526
Fe2_2 Fe 0.0000 0.0000 1.0000
P1I P -0.10372(3) -0.01317(3) 0.75803(6)
P1A P -0.01317(3) 0.09055(4) 0.24197(6)
P1B P -0.09055(4) -0.10372(3) 0.24197(6)
P1J P 0.01317(3) -0.09055(4) 0.75803(6)
P1K P 0.09055(4) 0.10372(3) 0.75803(6)
N1I N -0.19576(12) 0.05775(12) 0.7126(3)
N1A N 0.05775(12) 0.25351(17) 0.2874(3)
N1B N -0.25351(17) -0.19576(12) 0.2874(3)
N1J N -0.05775(12) -0.25351(17) 0.7126(3)
N1K N 0.25351(17) 0.19576(12) 0.7126(3)
H1I H -0.2186 0.0306 0.7840
H1A H 0.0306 0.2492 0.2160
H1B H -0.2492 -0.2186 0.2160
H1J H -0.0306 -0.2492 0.7840
H1K H 0.2492 0.2186 0.7840
O1I O -0.07450(9) -0.01133(9) 0.61771(17)
O1A O -0.01133(9) 0.06317(13) 0.38229(17)
O1B O -0.06317(13) -0.07450(9) 0.38229(17)
O1J O 0.01133(9) -0.06317(13) 0.61771(17)
O1K O 0.06317(13) 0.07450(9) 0.61771(17)
O2I O -0.07979(8) -0.03515(8) 0.88127(16)
O2A O -0.03515(8) 0.04464(11) 0.11873(16)
O2B O -0.04464(11) -0.07979(8) 0.11873(16)
O2J O 0.03515(8) -0.04464(11) 0.88127(16)
O2K O 0.04464(11) 0.07979(8) 0.88127(16)
O2I_2 O -0.07979(8) -0.03515(8) -0.11873(16)
O2J_2 O 0.03515(8) -0.04464(11) -0.11873(16)
O2K_2 O 0.04464(11) 0.07979(8) -0.11873(16)
O3I O -0.17932(8) -0.05843(9) 0.74349(19)
O3A O -0.05843(9) 0.12089(12) 0.25651(19)
O3B O -0.12089(12) -0.17932(8) 0.25651(19)
O3J O 0.05843(9) -0.12089(12) 0.74349(19)
O3K O 0.12089(12) 0.17932(8) 0.74349(19)
H2I H -0.1980 -0.0828 0.8021
H2A H -0.0828 0.1152 0.1979
H2B H -0.1152 -0.1980 0.1979
H2J H 0.0828 -0.1152 0.8021
H2K H 0.1152 0.1980 0.8021
C1I C -0.09396(13) 0.06601(13) 0.7932(3)
C1A C 0.06601(13) 0.15997(18) 0.2068(3)
C1B C -0.15997(18) -0.09396(13) 0.2068(3)
C1J C -0.06601(13) -0.15997(18) 0.7932(3)
C1K C 0.15997(18) 0.09396(13) 0.7932(3)
H3I H -0.0470 0.0994 0.7883
H3A H 0.0994 0.1464 0.2117
H3B H -0.1464 -0.0470 0.2117
H3J H -0.0994 -0.1464 0.7883
H3K H 0.1464 0.0470 0.7883
H4I H -0.1095 0.0665 0.8897
H4A H 0.0665 0.1760 0.1103
H4B H -0.1760 -0.1095 0.1103
H4J H -0.0665 -0.1760 0.8897
H4K H 0.1760 0.1095 0.8897
C2I C -0.13113(14) 0.08300(13) 0.6904(3)
C2A C 0.08300(13) 0.21413(19) 0.3096(3)
C2B C -0.21413(19) -0.13113(14) 0.3096(3)
C2J C -0.08300(13) -0.21413(19) 0.6904(3)
C2K C 0.21413(19) 0.13113(14) 0.6904(3)
C3I C -0.10433(15) 0.12090(15) 0.5735(3)
C3A C 0.12090(15) 0.22523(21) 0.4265(3)
C3B C -0.22523(21) -0.10433(15) 0.4265(3)
C3J C -0.12090(15) -0.22523(21) 0.5735(3)
C3K C 0.22523(21) 0.10433(15) 0.5735(3)
H5I H -0.0591 0.1389 0.5538
H5A H 0.1389 0.1980 0.4462
H5B H -0.1980 -0.0591 0.4462
H5J H -0.1389 -0.1980 0.5538
H5K H 0.1980 0.0591 0.5538
C4I C -0.14348(16) 0.13293(16) 0.4836(3)
C4A C 0.13293(16) 0.27641(23) 0.5164(3)
C4B C -0.27641(23) -0.14348(16) 0.5164(3)
C4J C -0.13293(16) -0.27641(23) 0.4836(3)
C4K C 0.27641(23) 0.14348(16) 0.4836(3)
H6I H -0.1247 0.1594 0.4026
H6A H 0.1594 0.2841 0.5974
H6B H -0.2841 -0.1247 0.5974
H6J H -0.1594 -0.2841 0.4026
H6K H 0.2841 0.1247 0.4026
C5I C -0.20853(16) 0.10718(16) 0.5103(3)
C5A C 0.10718(16) 0.31571(23) 0.4897(3)
C5B C -0.31571(23) -0.20853(16) 0.4897(3)
C5J C -0.10718(16) -0.31571(23) 0.5103(3)
C5K C 0.31571(23) 0.20853(16) 0.5103(3)
H7I H -0.2352 0.1158 0.4493
H7A H 0.1158 0.3510 0.5507
H7B H -0.3510 -0.2352 0.5507
H7J H -0.1158 -0.3510 0.4493
H7K H 0.3510 0.2352 0.4493
C6I C -0.23458(15) 0.06855(15) 0.6272(3)
C6A C 0.06855(15) 0.30313(21) 0.3728(3)
C6B C -0.30313(21) -0.23458(15) 0.3728(3)
C6J C -0.06855(15) -0.30313(21) 0.6272(3)
C6K C 0.30313(21) 0.23458(15) 0.6272(3)
H8I H -0.2799 0.0496 0.6474
H8A H 0.0496 0.3295 0.3526
H8B H -0.3295 -0.2799 0.3526
H8J H -0.0496 -0.3295 0.6474
H8K H 0.3295 0.2799 0.6474
Cl1 Cl 0.21721(3) -0.04952(4) -0.09742(7)
O4 O 0.26525(13) -0.06743(16) -0.0836(4)
O5 O 0.15364(10) -0.10634(10) -0.0740(2)
O6 O 0.22780(14) -0.00138(12) 0.0070(3)
O7 O 0.21894(13) -0.02266(13) -0.2311(2)
loop_
_geom_bond_atom_site_label_1
_geom_bond_atom_site_label_2
_geom_bond_site_symmetry_1
_geom_bond_site_symmetry_2
Fe1 O1 1_555 1_555
Fe2 O2 1_555 1_555
Cl1 O4 1_555 1_555
P1 O1 1_555 1_555
N1 H1 1_555 1_555
O2 P1 1_555 1_555
O3 P1 1_555 1_555
H2 O3 1_555 1_555
O5 Cl1 1_555 1_555
O6 Cl1 1_555 1_555
O7 Cl1 1_555 1_555
C1 P1 1_555 1_555
H3 C1 1_555 1_555
H4 C1 1_555 1_555
C2 N1 1_555 1_555
C3 C2 1_555 1_555
H5 C3 1_555 1_555
C4 C3 1_555 1_555
H6 C4 1_555 1_555
C5 C4 1_555 1_555
H7 C5 1_555 1_555
C6 N1 1_555 1_555
H8 C6 1_555 1_555
Fe2_2 O2I 1_555 1_555
P1I O1I 1_555 1_555
P1A O1A 1_555 1_555
P1B O1B 1_555 1_555
P1J O1J 1_555 1_555
P1K O1K 1_555 1_555
N1I H1I 1_555 1_555
N1A H1A 1_555 1_555
N1B H1B 1_555 1_555
N1J H1J 1_555 1_555
N1K H1K 1_555 1_555
O1I Fe1 1_555 1_555
O1A Fe1 1_555 1_555
O1B Fe1 1_555 1_555
O1J Fe1 1_555 1_555
O1K Fe1 1_555 1_555
O2I P1I 1_555 1_555
O2A Fe2 1_555 1_555
O2B Fe2 1_555 1_555
O2J Fe2_2 1_555 1_555
O2K Fe2_2 1_555 1_555
O2I_2 Fe2 1_555 1_555
O2J_2 Fe2 1_555 1_555
O2K_2 Fe2 1_555 1_555
O3I P1I 1_555 1_555
O3A P1A 1_555 1_555
O3B P1B 1_555 1_555
O3J P1J 1_555 1_555
O3K P1K 1_555 1_555
H2I O3I 1_555 1_555
H2A O3A 1_555 1_555
H2B O3B 1_555 1_555
H2J O3J 1_555 1_555
H2K O3K 1_555 1_555
C1I P1I 1_555 1_555
C1A P1A 1_555 1_555
C1B P1B 1_555 1_555
C1J P1J 1_555 1_555
C1K P1K 1_555 1_555
H3I C1I 1_555 1_555
H3A C1A 1_555 1_555
H3B C1B 1_555 1_555
H3J C1J 1_555 1_555
H3K C1K 1_555 1_555
H4I C1I 1_555 1_555
H4A C1A 1_555 1_555
H4B C1B 1_555 1_555
H4J C1J 1_555 1_555
H4K C1K 1_555 1_555
C2I N1I 1_555 1_555
C2A N1A 1_555 1_555
C2B N1B 1_555 1_555
C2J N1J 1_555 1_555
C2K N1K 1_555 1_555
C3I C2I 1_555 1_555
C3A C2A 1_555 1_555
C3B C2B 1_555 1_555
C3J C2J 1_555 1_555
C3K C2K 1_555 1_555
H5I C3I 1_555 1_555
H5A C3A 1_555 1_555
H5B C3B 1_555 1_555
H5J C3J 1_555 1_555
H5K C3K 1_555 1_555
C4I C3I 1_555 1_555
C4A C3A 1_555 1_555
C4B C3B 1_555 1_555
C4J C3J 1_555 1_555
C4K C3K 1_555 1_555
H6I C4I 1_555 1_555
H6A C4A 1_555 1_555
H6B C4B 1_555 1_555
H6J C4J 1_555 1_555
H6K C4K 1_555 1_555
C5I C4I 1_555 1_555
C5A C4A 1_555 1_555
C5B C4B 1_555 1_555
C5J C4J 1_555 1_555
C5K C4K 1_555 1_555
H7I C5I 1_555 1_555
H7A C5A 1_555 1_555
H7B C5B 1_555 1_555
H7J C5J 1_555 1_555
H7K C5K 1_555 1_555
C6I N1I 1_555 1_555
C6A N1A 1_555 1_555
C6B N1B 1_555 1_555
C6J N1J 1_555 1_555
C6K N1K 1_555 1_555
H8I C6I 1_555 1_555
H8A C6A 1_555 1_555
H8B C6B 1_555 1_555
H8J C6J 1_555 1_555
H8K C6K 1_555 1_555
C1 C2 1_555 1_555
C5 C6 1_555 1_555
P1A O2A 1_555 1_555
P1B O2B 1_555 1_555
P1J O2J 1_555 1_555
P1K O2K 1_555 1_555
C1I C2I 1_555 1_555
C1A C2A 1_555 1_555
C1B C2B 1_555 1_555
C1J C2J 1_555 1_555
C1K C2K 1_555 1_555
C5I C6I 1_555 1_555
C5A C6A 1_555 1_555
C5B C6B 1_555 1_555
C5J C6J 1_555 1_555
C5K C6K 1_555 1_555

#END
