
#######################################################################
#
#                 Cambridge Crystallographic Data Centre
#                                CCDC 
#
#######################################################################
#
# If this CIF has been generated from an entry in the Cambridge 
# Structural Database, then it will include bibliographic, chemical, 
# crystal, experimental, refinement or atomic coordinate data resulting 
# from the CCDC's data processing and validation procedures.
#
#######################################################################

data_EYUBEG
_symmetry_cell_setting           monoclinic
_symmetry_space_group_name_H-M   'P 21/c'
_symmetry_Int_Tables_number      14
_space_group_name_Hall           '-P 2ybc'
loop_
_symmetry_equiv_pos_site_id
_symmetry_equiv_pos_as_xyz
1 x,y,z
2 -x,1/2+y,1/2-z
3 -x,-y,-z
4 x,1/2-y,1/2+z
_cell_length_a                   13.398(3)
_cell_length_b                   8.2442(19)
_cell_length_c                   10.040(2)
_cell_angle_alpha                90
_cell_angle_beta                 97.348(4)
_cell_angle_gamma                90
_cell_volume                     1099.87
loop_
_atom_site_label
_atom_site_type_symbol
_atom_site_fract_x
_atom_site_fract_y
_atom_site_fract_z
Co1 Co 0.5000 0.0000 0.5000
P1 P 0.45135(7) 0.30888(11) 0.70790(9)
O1 O 0.44632(19) 0.1354(3) 0.6587(2)
O2 O 0.5605(2) 0.3713(4) 0.6924(3)
H1 H 0.572(4) 0.463(3) 0.722(6)
O3 O 0.4269(2) 0.3360(3) 0.8487(3)
O4 O 0.6355(2) 0.1306(4) 0.5160(3)
H2 H 0.672(4) 0.126(7) 0.466(5)
H3 H 0.649(4) 0.187(6) 0.573(5)
N1 N 0.2485(3) 0.2376(5) 0.4808(4)
H4 H 0.305(2) 0.207(7) 0.448(5)
C1 C 0.3693(4) 0.4300(5) 0.5893(4)
H5 H 0.3673 0.5408 0.6241
H6 H 0.3982 0.4350 0.5045
C2 C 0.2650(4) 0.3676(5) 0.5619(4)
C3 C 0.1840(4) 0.4327(7) 0.6139(5)
H7 H 0.1927 0.5242 0.6701
C4 C 0.0907(5) 0.3650(10) 0.5844(7)
H8 H 0.0355 0.4099 0.6205
C5 C 0.0775(4) 0.2323(11) 0.5024(6)
H9 H 0.0135 0.1850 0.4824
C6 C 0.1587(4) 0.1687(8) 0.4497(5)
H10 H 0.1509 0.0780 0.3925
Co1A Co 0.5000 -0.5000 0.0000
Co1A_2 Co 0.5000 0.5000 1.0000
P1B P 0.54865(7) -0.30888(11) 0.29210(9)
O1B O 0.55368(19) -0.1354(3) 0.3413(2)
O2B O 0.4395(2) -0.3713(4) 0.3076(3)
H1B H 0.428(4) -0.463(3) 0.278(6)
O3B O 0.5731(2) -0.3360(3) 0.1513(3)
O3A O 0.5731(2) -0.1640(3) 0.6513(3)
O3C O 0.4269(2) 0.1640(3) 0.3487(3)
O4B O 0.3645(2) -0.1306(4) 0.4840(3)
H2B H 0.328(4) -0.126(7) 0.534(5)
H3B H 0.351(4) -0.187(6) 0.427(5)
N1B N 0.7515(3) -0.2376(5) 0.5192(4)
H4B H 0.695(2) -0.207(7) 0.552(5)
C1B C 0.6307(4) -0.4300(5) 0.4107(4)
H5B H 0.6327 -0.5408 0.3759
H6B H 0.6018 -0.4350 0.4955
C2B C 0.7350(4) -0.3676(5) 0.4381(4)
C3B C 0.8160(4) -0.4327(7) 0.3861(5)
H7B H 0.8073 -0.5242 0.3299
C4B C 0.9093(5) -0.3650(10) 0.4156(7)
H8B H 0.9645 -0.4099 0.3795
C5B C 0.9225(4) -0.2323(11) 0.4976(6)
H9B H 0.9865 -0.1850 0.5176
C6B C 0.8413(4) -0.1687(8) 0.5503(5)
H10B H 0.8491 -0.0780 0.6075
Cl1 Cl 0.82428(8) 0.09529(15) 0.26300(10)
O5 O 0.9218(3) 0.0278(6) 0.2668(5)
O6 O 0.8029(4) 0.2044(7) 0.1598(5)
O7 O 0.7548(3) -0.0421(5) 0.2437(4)
O8 O 0.8109(3) 0.1613(5) 0.3904(4)
loop_
_geom_bond_atom_site_label_1
_geom_bond_atom_site_label_2
_geom_bond_site_symmetry_1
_geom_bond_site_symmetry_2
Co1 O1 1_555 1_555
Cl1 O5 1_555 1_555
P1 O1 1_555 1_555
O2 P1 1_555 1_555
H1 O2 1_555 1_555
O3 P1 1_555 1_555
O4 Co1 1_555 1_555
H2 O4 1_555 1_555
H3 O4 1_555 1_555
O6 Cl1 1_555 1_555
O7 Cl1 1_555 1_555
O8 Cl1 1_555 1_555
N1 H4 1_555 1_555
C1 P1 1_555 1_555
H5 C1 1_555 1_555
H6 C1 1_555 1_555
C2 N1 1_555 1_555
C3 C2 1_555 1_555
H7 C3 1_555 1_555
C4 C3 1_555 1_555
H8 C4 1_555 1_555
C5 C4 1_555 1_555
H9 C5 1_555 1_555
C6 N1 1_555 1_555
H10 C6 1_555 1_555
Co1A O3B 1_555 1_555
Co1A_2 O3 1_555 1_555
P1B O1B 1_555 1_555
O1B Co1 1_555 1_555
O2B P1B 1_555 1_555
H1B O2B 1_555 1_555
O3B P1B 1_555 1_555
O3A Co1 1_555 1_555
O3C Co1 1_555 1_555
O4B Co1 1_555 1_555
H2B O4B 1_555 1_555
H3B O4B 1_555 1_555
N1B H4B 1_555 1_555
C1B P1B 1_555 1_555
H5B C1B 1_555 1_555
H6B C1B 1_555 1_555
C2B N1B 1_555 1_555
C3B C2B 1_555 1_555
H7B C3B 1_555 1_555
C4B C3B 1_555 1_555
H8B C4B 1_555 1_555
C5B C4B 1_555 1_555
H9B C5B 1_555 1_555
C6B N1B 1_555 1_555
H10B C6B 1_555 1_555
C1 C2 1_555 1_555
C5 C6 1_555 1_555
C1B C2B 1_555 1_555
C5B C6B 1_555 1_555

#END
