
#######################################################################
#
#                 Cambridge Crystallographic Data Centre
#                                CCDC 
#
#######################################################################
#
# If this CIF has been generated from an entry in the Cambridge 
# Structural Database, then it will include bibliographic, chemical, 
# crystal, experimental, refinement or atomic coordinate data resulting 
# from the CCDC's data processing and validation procedures.
#
#######################################################################

data_EYUBUW
_symmetry_cell_setting           monoclinic
_symmetry_space_group_name_H-M   'P 21/c'
_symmetry_Int_Tables_number      14
_space_group_name_Hall           '-P 2ybc'
loop_
_symmetry_equiv_pos_site_id
_symmetry_equiv_pos_as_xyz
1 x,y,z
2 -x,1/2+y,1/2-z
3 -x,-y,-z
4 x,1/2-y,1/2+z
_cell_length_a                   13.5170(8)
_cell_length_b                   8.2636(4)
_cell_length_c                   10.3910(4)
_cell_angle_alpha                90
_cell_angle_beta                 97.108(4)
_cell_angle_gamma                90
_cell_volume                     1151.75
loop_
_atom_site_label
_atom_site_type_symbol
_atom_site_fract_x
_atom_site_fract_y
_atom_site_fract_z
Fe1 Fe 0.0000 0.0000 0.0000
P1 P -0.06557(11) 0.32196(18) 0.19943(13)
O1 O -0.0631(3) 0.1478(5) 0.1578(4)
O2 O 0.0400(4) 0.3935(7) 0.1846(5)
H1 H 0.0508 0.4745 0.2331
O3 O -0.0935(3) 0.3527(5) 0.3332(3)
O4 O 0.1419(4) 0.1633(6) 0.0022(5)
N1 N -0.2603(4) 0.2327(6) -0.0330(4)
H2 H -0.2082 0.1995 -0.0686
C1 C -0.2486(5) 0.3578(8) 0.0486(5)
C2 C -0.3310(8) 0.4117(12) 0.0995(7)
H3 H -0.3258 0.5025 0.1561
C3 C -0.4202(9) 0.337(2) 0.0699(11)
H4 H -0.4767 0.3745 0.1070
C4 C -0.4295(6) 0.209(2) -0.0118(10)
H5 H -0.4919 0.1562 -0.0332
C5 C -0.3456(6) 0.1557(11) -0.0633(7)
H6 H -0.3492 0.0650 -0.1199
C6 C -0.1468(6) 0.4293(8) 0.0772(6)
H7 H -0.1532 0.5426 0.1060
H8 H -0.1153 0.4316 -0.0039
H9 H 0.187(3) 0.151(8) -0.049(6)
H10 H 0.163(4) 0.226(9) 0.066(5)
Fe1A Fe 0.0000 0.5000 0.5000
Fe1A_2 Fe 0.0000 -0.5000 -0.5000
P1B P 0.06557(11) -0.32196(18) -0.19943(13)
O1B O 0.0631(3) -0.1478(5) -0.1578(4)
O2B O -0.0400(4) -0.3935(7) -0.1846(5)
H1B H -0.0508 -0.4745 -0.2331
O3B O 0.0935(3) -0.3527(5) -0.3332(3)
O3A O 0.0935(3) -0.1473(5) 0.1668(3)
O3C O -0.0935(3) 0.1473(5) -0.1668(3)
O4B O -0.1419(4) -0.1633(6) -0.0022(5)
N1B N 0.2603(4) -0.2327(6) 0.0330(4)
H2B H 0.2082 -0.1995 0.0686
C1B C 0.2486(5) -0.3578(8) -0.0486(5)
C2B C 0.3310(8) -0.4117(12) -0.0995(7)
H3B H 0.3258 -0.5025 -0.1561
C3B C 0.4202(9) -0.337(2) -0.0699(11)
H4B H 0.4767 -0.3745 -0.1070
C4B C 0.4295(6) -0.209(2) 0.0118(10)
H5B H 0.4919 -0.1562 0.0332
C5B C 0.3456(6) -0.1557(11) 0.0633(7)
H6B H 0.3492 -0.0650 0.1199
C6B C 0.1468(6) -0.4293(8) -0.0772(6)
H7B H 0.1532 -0.5426 -0.1060
H8B H 0.1153 -0.4316 0.0039
H9B H -0.187(3) -0.151(8) 0.049(6)
H10B H -0.163(4) -0.226(9) -0.066(5)
Cl1 Cl -0.32842(12) -0.1169(2) 0.24342(14)
O5 O -0.4115(5) -0.0201(11) 0.2519(7)
O6 O -0.3204(4) -0.1645(9) 0.1130(5)
O7 O -0.238(3) -0.034(6) 0.290(3)
O10 O -0.3024(13) -0.230(2) 0.3342(16)
O8? O -0.2411(15) -0.084(2) 0.324(2)
O9? O -0.3668(10) -0.2735(16) 0.3038(12)
O11? O -0.2537(15) 0.028(2) 0.2506(18)
loop_
_geom_bond_atom_site_label_1
_geom_bond_atom_site_label_2
_geom_bond_site_symmetry_1
_geom_bond_site_symmetry_2
Fe1 O1 1_555 1_555
Cl1 O5 1_555 1_555
P1 O1 1_555 1_555
O2 P1 1_555 1_555
H1 O2 1_555 1_555
O3 P1 1_555 1_555
O4 Fe1 1_555 1_555
O6 Cl1 1_555 1_555
O7 Cl1 1_555 1_555
N1 H2 1_555 1_555
C1 N1 1_555 1_555
C2 C1 1_555 1_555
H3 C2 1_555 1_555
C3 C2 1_555 1_555
H4 C3 1_555 1_555
C4 C3 1_555 1_555
H5 C4 1_555 1_555
C5 N1 1_555 1_555
H6 C5 1_555 1_555
C6 P1 1_555 1_555
H7 C6 1_555 1_555
H8 C6 1_555 1_555
H9 O4 1_555 1_555
H10 O4 1_555 1_555
O10 Cl1 1_555 1_555
Fe1A O3 1_555 1_555
Fe1A_2 O3B 1_555 1_555
P1B O1B 1_555 1_555
O1B Fe1 1_555 1_555
O2B P1B 1_555 1_555
H1B O2B 1_555 1_555
O3B P1B 1_555 1_555
O3A Fe1 1_555 1_555
O3C Fe1 1_555 1_555
O4B Fe1 1_555 1_555
N1B H2B 1_555 1_555
C1B N1B 1_555 1_555
C2B C1B 1_555 1_555
H3B C2B 1_555 1_555
C3B C2B 1_555 1_555
H4B C3B 1_555 1_555
C4B C3B 1_555 1_555
H5B C4B 1_555 1_555
C5B N1B 1_555 1_555
H6B C5B 1_555 1_555
C6B P1B 1_555 1_555
H7B C6B 1_555 1_555
H8B C6B 1_555 1_555
H9B O4B 1_555 1_555
H10B O4B 1_555 1_555
C1 C6 1_555 1_555
C4 C5 1_555 1_555
C1B C6B 1_555 1_555
C4B C5B 1_555 1_555

#END
