
#######################################################################
#
#                 Cambridge Crystallographic Data Centre
#                                CCDC 
#
#######################################################################
#
# If this CIF has been generated from an entry in the Cambridge 
# Structural Database, then it will include bibliographic, chemical, 
# crystal, experimental, refinement or atomic coordinate data resulting 
# from the CCDC's data processing and validation procedures.
#
#######################################################################

data_EYUCIL
_symmetry_cell_setting           triclinic
_symmetry_space_group_name_H-M   'P -1'
_symmetry_Int_Tables_number      2
_space_group_name_Hall           '-P 1'
loop_
_symmetry_equiv_pos_site_id
_symmetry_equiv_pos_as_xyz
1 x,y,z
2 -x,-y,-z
_cell_length_a                   5.4028(4)
_cell_length_b                   10.1360(8)
_cell_length_c                   11.8724(9)
_cell_angle_alpha                73.6130(10)
_cell_angle_beta                 84.5320(10)
_cell_angle_gamma                82.5930(10)
_cell_volume                     617.362
loop_
_atom_site_label
_atom_site_type_symbol
_atom_site_fract_x
_atom_site_fract_y
_atom_site_fract_z
Pb1 Pb 0.78172(4) 0.01999(2) 0.33768(2)
P1 P 0.8352(3) 0.32299(18) 0.09697(16)
O1 O 1.1281(10) 0.3122(6) 0.0866(5)
O2 O 0.7446(10) 0.2360(5) 0.2152(4)
O3 O 0.7283(9) 0.4736(5) 0.0712(4)
O4 O 0.2811(9) 0.0426(6) 0.2985(5)
O5 O 0.5236(11) -0.0230(7) 0.1620(5)
O6 O 0.1183(11) -0.0105(6) 0.1591(5)
O7 O 0.9168(10) 0.1568(6) 0.4720(5)
O8 O 0.6755(13) 0.2679(7) 0.5782(6)
O9 O 0.5148(10) 0.1639(6) 0.4707(5)
N1 N 0.6958(12) 0.4551(6) -0.1856(5)
C1 C 1.0580(14) 0.3041(8) -0.1975(7)
H1 H 1.1608 0.2222 -0.1659
N2 N 0.3085(11) 0.0029(6) 0.2048(5)
N3 N 0.7007(12) 0.1987(7) 0.5087(6)
C2 C 0.7514(14) 0.2530(8) -0.0181(6)
H2 H 0.8290 0.1576 -0.0056
H3 H 0.5696 0.2518 -0.0138
C3 C 0.8351(13) 0.3372(7) -0.1368(6)
C4 C 1.1267(16) 0.3935(9) -0.3054(8)
H4 H 1.2757 0.3715 -0.3472
C5 C 0.9772(17) 0.5137(9) -0.3507(7)
H5 H 1.0229 0.5747 -0.4232
C6 C 0.7583(16) 0.5436(8) -0.2880(7)
H6 H 0.6543 0.6258 -0.3172
H7 H 0.554(16) 0.485(9) -0.141(8)
H8 H 1.176(16) 0.376(10) 0.045(8)
Pb1_2 Pb -0.21828(4) 0.01999(2) 0.33768(2)
O4_2 O 1.2811(9) 0.0426(6) 0.2985(5)
O6_2 O 1.1183(11) -0.0105(6) 0.1591(5)
loop_
_geom_bond_atom_site_label_1
_geom_bond_atom_site_label_2
_geom_bond_site_symmetry_1
_geom_bond_site_symmetry_2
Pb1 O2 1_555 1_555
P1 O1 1_555 1_555
O1 H8 1_555 1_555
O2 P1 1_555 1_555
O3 P1 1_555 1_555
O4 Pb1 1_555 1_555
O5 N2 1_555 1_555
O6 N2 1_555 1_555
O7 Pb1 1_555 1_555
O8 N3 1_555 1_555
O9 Pb1 1_555 1_555
N1 C3 1_555 1_555
C1 H1 1_555 1_555
N2 O4 1_555 1_555
N3 O7 1_555 1_555
C2 P1 1_555 1_555
H2 C2 1_555 1_555
H3 C2 1_555 1_555
C3 C1 1_555 1_555
C4 C1 1_555 1_555
H4 C4 1_555 1_555
C5 C4 1_555 1_555
H5 C5 1_555 1_555
C6 N1 1_555 1_555
H6 C6 1_555 1_555
H7 N1 1_555 1_555
Pb1_2 O4 1_555 1_555
O4_2 Pb1 1_555 1_555
O6_2 Pb1 1_555 1_555
O6 Pb1_2 1_555 1_555
O9 N3 1_555 1_555
C2 C3 1_555 1_555
C5 C6 1_555 1_555

#END
