
#######################################################################
#
#                 Cambridge Crystallographic Data Centre
#                                CCDC 
#
#######################################################################
#
# If this CIF has been generated from an entry in the Cambridge 
# Structural Database, then it will include bibliographic, chemical, 
# crystal, experimental, refinement or atomic coordinate data resulting 
# from the CCDC's data processing and validation procedures.
#
#######################################################################

data_EYUCEH
_symmetry_cell_setting           monoclinic
_symmetry_space_group_name_H-M   'P 21/c'
_symmetry_Int_Tables_number      14
_space_group_name_Hall           '-P 2ybc'
loop_
_symmetry_equiv_pos_site_id
_symmetry_equiv_pos_as_xyz
1 x,y,z
2 -x,1/2+y,1/2-z
3 -x,-y,-z
4 x,1/2-y,1/2+z
_cell_length_a                   13.144(10)
_cell_length_b                   9.394(8)
_cell_length_c                   16.244(13)
_cell_angle_alpha                90
_cell_angle_beta                 108.812(15)
_cell_angle_gamma                90
_cell_volume                     1898.58
loop_
_atom_site_label
_atom_site_type_symbol
_atom_site_fract_x
_atom_site_fract_y
_atom_site_fract_z
Ag1 Ag 0.52438(7) 0.35428(8) 0.18204(5)
Ag2 Ag 0.43212(8) -0.12963(8) -0.02456(5)
Ag3 Ag 0.51397(7) -0.29299(7) 0.16033(5)
S1 S 0.3445(2) -0.5014(2) -0.02999(14)
S2 S 0.7597(2) -0.0846(3) 0.21133(15)
P1 P 0.40905(19) 0.0442(2) 0.14183(13)
O1 O 0.4073(5) -0.1029(5) 0.1022(3)
O2 O 0.4939(5) 0.1418(6) 0.1272(3)
O3 O 0.4152(5) 0.0369(5) 0.2367(3)
O4 O 0.3685(6) -0.3777(7) -0.0720(4)
O5 O 0.3740(5) -0.4893(7) 0.0630(4)
O6 O 0.3699(6) -0.6330(6) -0.0612(4)
O7 O 0.6728(7) -0.1342(9) 0.2385(5)
O8 O 0.7317(6) -0.0339(7) 0.1248(4)
O9 O 0.8514(6) -0.1747(8) 0.2365(5)
N1 N 0.1396(7) 0.0886(9) 0.1502(5)
H1 H 0.1626 0.1653 0.1792
F1 F 0.1603(5) -0.3827(7) -0.0431(5)
F2 F 0.1585(5) -0.6066(7) -0.0342(5)
F3 F 0.1599(6) -0.5089(8) -0.1507(4)
F4 F 0.8856(7) 0.1342(9) 0.2602(6)
F5 F 0.8446(8) 0.0377(10) 0.3594(5)
F6 F 0.7320(6) 0.1617(8) 0.2730(5)
C1 C 0.2797(7) 0.1238(8) 0.0842(5)
H2 H 0.2776 0.2196 0.1059
H3 H 0.2720 0.1307 0.0229
C2 C 0.1890(8) 0.0424(10) 0.0939(5)
C3 C 0.1505(8) -0.0796(10) 0.0489(6)
H4 H 0.1813 -0.1135 0.0086
C4 C 0.0657(8) -0.1536(11) 0.0626(7)
H5 H 0.0423 -0.2384 0.0331
C5 C 0.0164(9) -0.1027(13) 0.1194(7)
H6 H -0.0416 -0.1502 0.1277
C6 C 0.0553(10) 0.0192(14) 0.1629(7)
H7 H 0.0237 0.0558 0.2020
C7 C 0.1976(9) -0.4990(10) -0.0665(7)
C8 C 0.8078(11) 0.0725(13) 0.2774(8)
Ag1A Ag 0.47562(7) -0.14572(8) 0.31796(5)
Ag1_2 Ag 0.52438(7) -0.64572(8) 0.18204(5)
Ag2B Ag 0.56788(8) 0.12963(8) 0.02456(5)
Ag3A Ag 0.48603(7) 0.20701(7) 0.33967(5)
Ag3_2 Ag 0.51397(7) 0.70701(7) 0.16033(5)
O2B O 0.5061(5) -0.1418(6) -0.1272(3)
O3A O 0.5848(5) 0.5369(5) 0.2633(3)
O3A_2 O 0.5848(5) -0.4631(5) 0.2633(3)
loop_
_geom_bond_atom_site_label_1
_geom_bond_atom_site_label_2
_geom_bond_site_symmetry_1
_geom_bond_site_symmetry_2
Ag1 O2 1_555 1_555
Ag2 Ag3 1_555 1_555
Ag3 O1 1_555 1_555
S1 O4 1_555 1_555
S2 O7 1_555 1_555
P1 O1 1_555 1_555
O1 Ag2 1_555 1_555
O2 P1 1_555 1_555
O3 P1 1_555 1_555
O4 Ag2 1_555 1_555
O5 S1 1_555 1_555
O6 S1 1_555 1_555
O7 Ag3 1_555 1_555
O8 S2 1_555 1_555
O9 S2 1_555 1_555
N1 H1 1_555 1_555
F1 C7 1_555 1_555
F2 C7 1_555 1_555
F3 C7 1_555 1_555
F4 C8 1_555 1_555
F5 C8 1_555 1_555
F6 C8 1_555 1_555
C1 P1 1_555 1_555
H2 C1 1_555 1_555
H3 C1 1_555 1_555
C2 N1 1_555 1_555
C3 C2 1_555 1_555
H4 C3 1_555 1_555
C4 C3 1_555 1_555
H5 C4 1_555 1_555
C5 C4 1_555 1_555
H6 C5 1_555 1_555
C6 N1 1_555 1_555
H7 C6 1_555 1_555
C7 S1 1_555 1_555
C8 S2 1_555 1_555
Ag1A Ag3 1_555 1_555
Ag1_2 Ag3 1_555 1_555
Ag2B Ag2 1_555 1_555
Ag3A Ag1 1_555 1_555
Ag3_2 Ag1 1_555 1_555
O2B Ag2 1_555 1_555
O3A Ag1 1_555 1_555
O3A_2 Ag3 1_555 1_555
O2 Ag2B 1_555 1_555
O3 Ag1A 1_555 1_555
O3 Ag3A 1_555 1_555
C1 C2 1_555 1_555
C5 C6 1_555 1_555
Ag1A Ag3A 1_555 1_555
Ag1_2 O3A_2 1_555 1_555
Ag3_2 O3A 1_555 1_555

#END
