
#######################################################################
#
#                 Cambridge Crystallographic Data Centre
#                                CCDC 
#
#######################################################################
#
# If this CIF has been generated from an entry in the Cambridge 
# Structural Database, then it will include bibliographic, chemical, 
# crystal, experimental, refinement or atomic coordinate data resulting 
# from the CCDC's data processing and validation procedures.
#
#######################################################################

data_EYUCAD
_symmetry_cell_setting           monoclinic
_symmetry_space_group_name_H-M   'P 21/c'
_symmetry_Int_Tables_number      14
_space_group_name_Hall           '-P 2ybc'
loop_
_symmetry_equiv_pos_site_id
_symmetry_equiv_pos_as_xyz
1 x,y,z
2 -x,1/2+y,1/2-z
3 -x,-y,-z
4 x,1/2-y,1/2+z
_cell_length_a                   13.9027(19)
_cell_length_b                   9.8255(14)
_cell_length_c                   7.9178(11)
_cell_angle_alpha                90
_cell_angle_beta                 104.871(2)
_cell_angle_gamma                90
_cell_volume                     1045.35
loop_
_atom_site_label
_atom_site_type_symbol
_atom_site_fract_x
_atom_site_fract_y
_atom_site_fract_z
Pb1 Pb 0.45330(3) 0.77920(3) 0.48718(4)
Ag1 Ag 0.71307(7) 0.62761(8) 1.24762(10)
P1 P 0.61336(19) 0.5448(2) 0.8153(3)
O1 O 0.5684(6) 0.6762(8) 0.7291(9)
O2 O 0.5626(5) 0.4145(7) 0.7352(8)
O3 O 0.6121(5) 0.5475(7) 1.0104(8)
O4 O 0.1765(7) 0.6041(9) 0.5677(12)
O5 O 0.2493(6) 0.7595(8) 0.4516(11)
O6 O 0.3381(6) 0.6061(8) 0.6227(9)
N1 N 0.8262(7) 0.7468(9) 0.9246(11)
N2 N 0.2517(6) 0.6577(8) 0.5471(10)
C1 C 0.7415(7) 0.5367(9) 0.7967(12)
H1 H 0.7603 0.4405 0.7973
H2 H 0.7427 0.5738 0.6823
C2 C 0.8198(8) 0.6082(10) 0.9320(13)
C3 C 0.8880(9) 0.5375(12) 1.0589(14)
H3 H 0.8801 0.4431 1.0696
C4 C 0.9671(9) 0.6019(12) 1.1701(15)
H4 H 1.0140 0.5524 1.2544
C5 C 0.9762(9) 0.7417(12) 1.1550(15)
H5 H 1.0302 0.7894 1.2260
C6 C 0.9038(9) 0.8069(11) 1.0333(13)
H6 H 0.9091 0.9019 1.0252
Pb1A Pb 0.54670(3) 0.27920(3) 1.01282(4)
Pb1B Pb 0.54670(3) 0.22080(3) 0.51282(4)
Pb1C Pb 0.45330(3) 0.72080(3) 0.98718(4)
Ag1C Ag 0.71307(7) 0.87239(8) 0.74762(10)
O2A O 0.4374(5) 0.9145(7) 0.7648(8)
O2B O 0.4374(5) 0.5855(7) 0.2648(8)
O3C O 0.6121(5) 0.9525(7) 0.5104(8)
N1C N 0.8262(7) 0.7532(9) 1.4246(11)
loop_
_geom_bond_atom_site_label_1
_geom_bond_atom_site_label_2
_geom_bond_site_symmetry_1
_geom_bond_site_symmetry_2
Pb1 O1 1_555 1_555
Ag1 O3 1_555 1_555
P1 O1 1_555 1_555
O2 P1 1_555 1_555
O3 P1 1_555 1_555
O4 N2 1_555 1_555
O5 N2 1_555 1_555
O6 Pb1 1_555 1_555
N1 C2 1_555 1_555
N2 O6 1_555 1_555
C1 P1 1_555 1_555
H1 C1 1_555 1_555
H2 C1 1_555 1_555
C2 C1 1_555 1_555
C3 C2 1_555 1_555
H3 C3 1_555 1_555
C4 C3 1_555 1_555
H4 C4 1_555 1_555
C5 C4 1_555 1_555
H5 C5 1_555 1_555
C6 N1 1_555 1_555
H6 C6 1_555 1_555
Pb1A O2 1_555 1_555
Pb1B O2 1_555 1_555
Pb1C O3 1_555 1_555
Ag1C N1 1_555 1_555
O2A Pb1 1_555 1_555
O2B Pb1 1_555 1_555
O3C Pb1 1_555 1_555
N1C Ag1 1_555 1_555
C5 C6 1_555 1_555
Pb1C O2A 1_555 1_555
Ag1C O3C 1_555 1_555

#END
