
#######################################################################
#
#                 Cambridge Crystallographic Data Centre
#                                CCDC 
#
#######################################################################
#
# If this CIF has been generated from an entry in the Cambridge 
# Structural Database, then it will include bibliographic, chemical, 
# crystal, experimental, refinement or atomic coordinate data resulting 
# from the CCDC's data processing and validation procedures.
#
#######################################################################

data_EYUDOS
_symmetry_cell_setting           triclinic
_symmetry_space_group_name_H-M   'P -1'
_symmetry_Int_Tables_number      2
_space_group_name_Hall           '-P 1'
loop_
_symmetry_equiv_pos_site_id
_symmetry_equiv_pos_as_xyz
1 x,y,z
2 -x,-y,-z
_cell_length_a                   6.4816(12)
_cell_length_b                   15.332(3)
_cell_length_c                   17.077(3)
_cell_angle_alpha                82.835(2)
_cell_angle_beta                 81.416(2)
_cell_angle_gamma                85.914(2)
_cell_volume                     1662.53
loop_
_atom_site_label
_atom_site_type_symbol
_atom_site_fract_x
_atom_site_fract_y
_atom_site_fract_z
C1 C 1.2071(4) 0.44884(17) 0.12303(17)
H1 H 1.1898 0.4202 0.1747
C2 C 1.2366(4) 0.39780(18) 0.05903(18)
H2 H 1.2384 0.3367 0.0682
C3 C 1.2627(4) 0.43962(19) -0.01714(18)
H3 H 1.2829 0.4068 -0.0602
C4 C 1.2592(4) 0.53136(18) -0.03042(16)
C5 C 1.2290(3) 0.57710(16) 0.03754(14)
C6 C 1.2240(3) 0.67133(16) 0.02679(14)
C7 C 1.1891(4) 0.80146(16) 0.08345(15)
H4 H 1.1674 0.8307 0.1287
C8 C 1.2164(4) 0.85159(18) 0.00884(17)
H5 H 1.2133 0.9127 0.0046
C9 C 1.2474(4) 0.80917(19) -0.05699(17)
H6 H 1.2665 0.8416 -0.1071
C10 C 1.2512(4) 0.71705(18) -0.05106(15)
C11 C 1.2799(4) 0.6678(2) -0.11795(16)
H7 H 1.2965 0.6973 -0.1693
C12 C 1.2829(4) 0.5796(2) -0.10739(16)
H8 H 1.3012 0.5491 -0.1519
C13 C 1.6294(3) 0.66146(15) 0.20601(12)
C14 C 1.6241(3) 0.75868(14) 0.17828(12)
C15 C 1.5454(3) 0.82022(15) 0.23117(12)
C16 C 1.4909(3) 0.79155(15) 0.31907(12)
C17 C 1.5294(3) 0.90857(15) 0.20378(13)
H9 H 1.4743 0.9489 0.2388
C18 C 1.5947(3) 0.93773(15) 0.12449(13)
H10 H 1.5867 0.9976 0.1066
C19 C 1.6718(3) 0.87746(15) 0.07186(12)
C20 C 1.6878(3) 0.78806(14) 0.09889(12)
H11 H 1.7415 0.7479 0.0635
C21 C 1.8138(3) 0.89350(16) -0.13920(12)
C22 C 1.9293(4) 0.96766(16) -0.16192(13)
H12 H 1.9622 1.0004 -0.1236
C23 C 1.7659(4) 0.84405(17) -0.19576(13)
H13 H 1.6912 0.7937 -0.1800
C24 C 1.8297(4) 0.86956(16) -0.27656(13)
C25 C 1.9956(4) 0.99259(16) -0.24235(13)
H14 H 2.0718 1.0425 -0.2579
C26 C 1.9481(3) 0.94293(15) -0.29986(12)
C27 C 2.0410(3) 0.96590(17) -0.38604(12)
C28 C 1.7617(4) 0.81726(19) -0.33699(15)
Mn1 Mn 1.13208(5) 0.62938(2) 0.21145(2)
Mn2 Mn 1.20608(6) 0.87021(2) 0.461350(18)
N1 N 1.2027(3) 0.53583(13) 0.11306(12)
N2 N 1.1927(3) 0.71417(12) 0.09289(11)
N3 N 1.7341(3) 0.91357(13) -0.00886(11)
N4 N 1.7433(3) 0.85933(13) -0.05825(11)
O1 O 1.0962(4) 0.52471(17) 0.30705(13)
H15 H 0.999(5) 0.4902(19) 0.3102(16)
H16 H 1.086(6) 0.5412(16) 0.3535(7)
O2 O 1.0309(3) 0.73990(14) 0.27713(11)
H17 H 0.913(2) 0.737(2) 0.3031(16)
H18 H 1.101(4) 0.7731(19) 0.2961(18)
O3 O 1.8013(2) 0.61870(10) 0.20090(10)
O4 O 1.4573(2) 0.62801(11) 0.23098(10)
O5 O 1.6290(3) 0.74996(13) 0.35405(9)
O6 O 1.3096(2) 0.81352(12) 0.35098(9)
O7 O 1.6593(4) 0.85778(15) -0.38688(13)
O8 O 1.8188(4) 0.73828(15) -0.33542(15)
O9 O 2.0372(3) 1.04493(12) -0.41552(10)
O10 O 2.1247(3) 0.90276(12) -0.42012(9)
O11 O 1.4458(3) 0.96955(15) 0.41673(14)
H19 H 1.567(3) 0.960(2) 0.426(2)
H20 H 1.423(5) 1.0240(8) 0.407(2)
O12 O 0.9945(4) 0.76068(14) 0.49133(12)
H21 H 1.047(6) 0.7114(12) 0.4838(19)
H22 H 0.930(5) 0.760(2) 0.5366(11)
O13 O 1.4653(3) 0.78976(15) 0.50791(11)
H23 H 1.557(3) 0.771(2) 0.4726(11)
H24 H 1.529(4) 0.807(2) 0.5416(14)
Mn1_2 Mn 2.13208(5) 0.62938(2) 0.21145(2)
Mn2A Mn 1.79392(6) 1.12979(2) -0.461350(18)
Mn2_2 Mn 2.20608(6) 0.87021(2) -0.538650(18)
O3_2 O 0.8013(2) 0.61870(10) 0.20090(10)
O9A O 0.9628(3) 0.95507(12) 0.41552(10)
O10_2 O 1.1247(3) 0.90276(12) 0.57988(9)
O14 O 0.7497(13) 0.2874(7) 0.3121(4)
O15 O 0.687(2) 0.4761(11) 0.3425(9)
O16 O 0.366(2) 0.4064(5) 0.3730(7)
O17 O 0.559(5) 0.5865(10) 0.4711(10)
O18 O 0.051(4) 0.5861(11) 0.4607(9)
O19? O 0.179(4) 0.6000(10) 0.4625(14)
loop_
_geom_bond_atom_site_label_1
_geom_bond_atom_site_label_2
_geom_bond_site_symmetry_1
_geom_bond_site_symmetry_2
C1 H1 1_555 1_555
C2 C1 1_555 1_555
H2 C2 1_555 1_555
C3 C2 1_555 1_555
H3 C3 1_555 1_555
C4 C3 1_555 1_555
C5 C4 1_555 1_555
C6 C5 1_555 1_555
C7 H4 1_555 1_555
C8 C7 1_555 1_555
H5 C8 1_555 1_555
C9 C8 1_555 1_555
H6 C9 1_555 1_555
C10 C6 1_555 1_555
C11 C10 1_555 1_555
H7 C11 1_555 1_555
C12 C4 1_555 1_555
H8 C12 1_555 1_555
C13 C14 1_555 1_555
C14 C15 1_555 1_555
C15 C16 1_555 1_555
C16 O5 1_555 1_555
C17 C15 1_555 1_555
H9 C17 1_555 1_555
C18 C17 1_555 1_555
H10 C18 1_555 1_555
C19 C18 1_555 1_555
C20 C14 1_555 1_555
H11 C20 1_555 1_555
C21 C22 1_555 1_555
C22 H12 1_555 1_555
C23 C21 1_555 1_555
H13 C23 1_555 1_555
C24 C23 1_555 1_555
C25 C22 1_555 1_555
H14 C25 1_555 1_555
C26 C24 1_555 1_555
C27 C26 1_555 1_555
C28 C24 1_555 1_555
Mn1 N1 1_555 1_555
Mn2 O6 1_555 1_555
N1 C1 1_555 1_555
N2 C6 1_555 1_555
N3 C19 1_555 1_555
N4 C21 1_555 1_555
O1 Mn1 1_555 1_555
H15 O1 1_555 1_555
H16 O1 1_555 1_555
O2 Mn1 1_555 1_555
H17 O2 1_555 1_555
H18 O2 1_555 1_555
O3 C13 1_555 1_555
O4 C13 1_555 1_555
O6 C16 1_555 1_555
O7 C28 1_555 1_555
O8 C28 1_555 1_555
O9 C27 1_555 1_555
O10 C27 1_555 1_555
O11 Mn2 1_555 1_555
H19 O11 1_555 1_555
H20 O11 1_555 1_555
O12 Mn2 1_555 1_555
H21 O12 1_555 1_555
H22 O12 1_555 1_555
O13 Mn2 1_555 1_555
H23 O13 1_555 1_555
H24 O13 1_555 1_555
Mn1_2 O3 1_555 1_555
Mn2A O9 1_555 1_555
Mn2_2 O10 1_555 1_555
O3_2 Mn1 1_555 1_555
O9A Mn2 1_555 1_555
O10_2 Mn2 1_555 1_555
C5 N1 1_555 1_555
C7 N2 1_555 1_555
C9 C10 1_555 1_555
C11 C12 1_555 1_555
C19 C20 1_555 1_555
C25 C26 1_555 1_555
Mn1 N2 1_555 1_555
Mn1 O4 1_555 1_555
N3 N4 1_555 1_555

#END
