
#######################################################################
#
#                 Cambridge Crystallographic Data Centre
#                                CCDC 
#
#######################################################################
#
# If this CIF has been generated from an entry in the Cambridge 
# Structural Database, then it will include bibliographic, chemical, 
# crystal, experimental, refinement or atomic coordinate data resulting 
# from the CCDC's data processing and validation procedures.
#
#######################################################################

data_EYUDIM
_symmetry_cell_setting           triclinic
_symmetry_space_group_name_H-M   'P -1'
_symmetry_Int_Tables_number      2
_space_group_name_Hall           '-P 1'
loop_
_symmetry_equiv_pos_site_id
_symmetry_equiv_pos_as_xyz
1 x,y,z
2 -x,-y,-z
_cell_length_a                   8.6640(17)
_cell_length_b                   9.1640(18)
_cell_length_c                   11.372(2)
_cell_angle_alpha                90.21(3)
_cell_angle_beta                 98.07(3)
_cell_angle_gamma                101.86(3)
_cell_volume                     874.384
loop_
_atom_site_label
_atom_site_type_symbol
_atom_site_fract_x
_atom_site_fract_y
_atom_site_fract_z
Tb1 Tb 0.76003(2) 0.73369(2) 0.257023(17)
O1 O 0.7809(4) 0.6577(4) 0.0602(3)
H1 H 0.859(3) 0.656(6) 0.040(5)
O2 O 0.9345(4) 0.9767(3) 0.2733(3)
H2 H 0.940(6) 1.010(6) 0.203(2)
O3 O 0.6646(4) 0.8934(4) 0.1018(3)
H3 H 0.698(7) 0.983(3) 0.089(5)
O4 O 0.9030(4) 0.8078(3) 0.4550(3)
H4 H 0.927(7) 0.756(5) 0.511(3)
O5 O 0.8102(4) 0.4873(4) 0.2795(4)
O6 O 0.6072(5) 0.6048(4) 0.3931(3)
O7 O 1.0397(4) 0.7344(4) 0.2590(3)
H5 H 1.099(5) 0.671(2) 0.224(3)
O8 O 0.5974(5) 0.8858(4) 0.3284(3)
O9 O 0.5156(4) 0.6030(4) 0.1408(3)
H6 H 0.423(3) 0.594(6) 0.152(5)
C1 C 0.5038(5) 0.5827(5) 0.0132(4)
H7 H 0.4070 0.6117 -0.0262
C2 C 1.0304(5) 0.9354(5) 0.4728(4)
H8 H 1.1204 0.9123 0.5266
C3 C 1.0798(5) 0.9737(5) 0.3510(4)
H9 H 1.1496 1.0729 0.3559
C4 C 0.6485(6) 0.6822(5) -0.0231(4)
H10 H 0.6618 0.6515 -0.1031
C5 C 0.6469(6) 0.8456(5) -0.0204(4)
H11 H 0.7338 0.9009 -0.0580
H12 H 0.5473 0.8627 -0.0627
C6 C 1.1608(6) 0.8629(5) 0.2990(4)
H13 H 1.2127 0.9055 0.2331
H14 H 1.2406 0.8358 0.3588
H15 H 0.900(4) 0.474(6) 0.273(5)
H16 H 0.745(6) 0.413(4) 0.244(4)
H17 H 0.571(7) 0.908(5) 0.389(2)
H18 H 0.584(3) 0.954(2) 0.275(2)
H19 H 0.5301 0.6417 0.4082
H20 H 0.6183 0.5154 0.4148
Tb1A Tb 0.23997(2) 0.26631(2) -0.257023(17)
Tb1A_2 Tb 1.23997(2) 1.26631(2) 0.742977(17)
O1A O 0.2191(4) 0.3423(4) -0.0602(3)
H1A H 0.141(3) 0.344(6) -0.040(5)
O2A O 1.0655(4) 1.0233(3) 0.7267(3)
O2A_2 O 0.0655(4) 0.0233(3) -0.2733(3)
H2A H 1.060(6) 0.990(6) 0.797(2)
O3A O 0.3354(4) 0.1066(4) -0.1018(3)
H3A H 0.302(7) 0.017(3) -0.089(5)
O4A O 1.0970(4) 1.1922(3) 0.5450(3)
O4A_2 O 0.0970(4) 0.1922(3) -0.4550(3)
H4A H 1.073(7) 1.244(5) 0.489(3)
O5A O 0.1898(4) 0.5127(4) -0.2795(4)
O6A O 0.3928(5) 0.3952(4) -0.3931(3)
O7A O 0.9603(4) 1.2656(4) 0.7410(3)
O7A_2 O -0.0397(4) 0.2656(4) -0.2590(3)
H5A H 0.901(5) 1.329(2) 0.776(3)
O8A O 0.4026(5) 0.1142(4) -0.3284(3)
O9A O 0.4844(4) 0.3970(4) -0.1408(3)
H6A H 0.577(3) 0.406(6) -0.152(5)
C1A C 0.4962(5) 0.4173(5) -0.0132(4)
H7A H 0.5930 0.3883 0.0262
C2A C 0.9696(5) 1.0646(5) 0.5272(4)
H8A H 0.8796 1.0877 0.4734
C3A C 0.9202(5) 1.0263(5) 0.6490(4)
H9A H 0.8504 0.9271 0.6441
C4A C 0.3515(6) 0.3178(5) 0.0231(4)
H10A H 0.3382 0.3485 0.1031
C5A C 0.3531(6) 0.1544(5) 0.0204(4)
H11A H 0.2662 0.0991 0.0580
H12A H 0.4527 0.1373 0.0627
C6A C 0.8392(6) 1.1371(5) 0.7010(4)
H13A H 0.7873 1.0945 0.7669
H14A H 0.7594 1.1642 0.6412
H15A H 0.100(4) 0.526(6) -0.273(5)
H16A H 0.255(6) 0.587(4) -0.244(4)
H17A H 0.429(7) 0.092(5) -0.389(2)
H18A H 0.416(3) 0.046(2) -0.275(2)
H19A H 0.4699 0.3583 -0.4082
H20A H 0.3817 0.4846 -0.4148
N1 N 0.2028(5) 0.4197(5) 0.3050(4)
O10 O 0.2171(5) 0.5271(4) 0.2351(3)
O11 O 0.2980(5) 0.3382(5) 0.3138(4)
O12 O 0.0875(5) 0.3961(5) 0.3625(4)
N2 N 0.4463(5) 0.7858(4) 0.5962(4)
O13 O 0.5502(5) 0.8882(4) 0.5673(3)
O14 O 0.3894(5) 0.6771(4) 0.5258(3)
O15 O 0.3994(6) 0.7929(5) 0.6949(4)
N3 N 0.1069(5) 0.7664(5) 0.9336(4)
O16 O 0.2446(5) 0.8120(4) 0.9126(4)
O17 O 0.0740(6) 0.6584(5) 0.9948(4)
O18 O -0.0013(5) 0.8316(6) 0.8931(4)
loop_
_geom_bond_atom_site_label_1
_geom_bond_atom_site_label_2
_geom_bond_site_symmetry_1
_geom_bond_site_symmetry_2
Tb1 O1 1_555 1_555
O1 H1 1_555 1_555
O2 Tb1 1_555 1_555
H2 O2 1_555 1_555
O3 Tb1 1_555 1_555
H3 O3 1_555 1_555
O4 Tb1 1_555 1_555
H4 O4 1_555 1_555
O5 Tb1 1_555 1_555
O6 Tb1 1_555 1_555
O7 Tb1 1_555 1_555
H5 O7 1_555 1_555
O8 Tb1 1_555 1_555
O9 Tb1 1_555 1_555
H6 O9 1_555 1_555
C1 O9 1_555 1_555
H7 C1 1_555 1_555
C2 O4 1_555 1_555
H8 C2 1_555 1_555
C3 O2 1_555 1_555
H9 C3 1_555 1_555
C4 O1 1_555 1_555
H10 C4 1_555 1_555
C5 O3 1_555 1_555
H11 C5 1_555 1_555
H12 C5 1_555 1_555
C6 O7 1_555 1_555
H13 C6 1_555 1_555
H14 C6 1_555 1_555
H15 O5 1_555 1_555
H16 O5 1_555 1_555
H17 O8 1_555 1_555
H18 O8 1_555 1_555
H19 O6 1_555 1_555
H20 O6 1_555 1_555
N1 O10 1_555 1_555
O11 N1 1_555 1_555
O12 N1 1_555 1_555
N2 O13 1_555 1_555
O14 N2 1_555 1_555
O15 N2 1_555 1_555
N3 O16 1_555 1_555
O17 N3 1_555 1_555
O18 N3 1_555 1_555
Tb1A O1A 1_555 1_555
Tb1A_2 O2A 1_555 1_555
O1A H1A 1_555 1_555
O2A H2A 1_555 1_555
O2A_2 Tb1A 1_555 1_555
O3A Tb1A 1_555 1_555
H3A O3A 1_555 1_555
O4A Tb1A_2 1_555 1_555
O4A_2 Tb1A 1_555 1_555
H4A O4A 1_555 1_555
O5A Tb1A 1_555 1_555
O6A Tb1A 1_555 1_555
O7A Tb1A_2 1_555 1_555
O7A_2 Tb1A 1_555 1_555
H5A O7A 1_555 1_555
O8A Tb1A 1_555 1_555
O9A Tb1A 1_555 1_555
H6A O9A 1_555 1_555
C1A C1 1_555 1_555
H7A C1A 1_555 1_555
C2A C2 1_555 1_555
H8A C2A 1_555 1_555
C3A O2A 1_555 1_555
H9A C3A 1_555 1_555
C4A O1A 1_555 1_555
H10A C4A 1_555 1_555
C5A O3A 1_555 1_555
H11A C5A 1_555 1_555
H12A C5A 1_555 1_555
C6A O7A 1_555 1_555
H13A C6A 1_555 1_555
H14A C6A 1_555 1_555
H15A O5A 1_555 1_555
H16A O5A 1_555 1_555
H17A O8A 1_555 1_555
H18A O8A 1_555 1_555
H19A O6A 1_555 1_555
H20A O6A 1_555 1_555
C1 C4 1_555 1_555
C2 C3 1_555 1_555
C3 C6 1_555 1_555
C4 C5 1_555 1_555
O4A C2A 1_555 1_555
O9A C1A 1_555 1_555
C1A C4A 1_555 1_555
C2A C3A 1_555 1_555
C3A C6A 1_555 1_555
C4A C5A 1_555 1_555

#END
