
#######################################################################
#
#                 Cambridge Crystallographic Data Centre
#                                CCDC 
#
#######################################################################
#
# If this CIF has been generated from an entry in the Cambridge 
# Structural Database, then it will include bibliographic, chemical, 
# crystal, experimental, refinement or atomic coordinate data resulting 
# from the CCDC's data processing and validation procedures.
#
#######################################################################

data_EYUDAE
_symmetry_cell_setting           monoclinic
_symmetry_space_group_name_H-M   'P 21/c'
_symmetry_Int_Tables_number      14
_space_group_name_Hall           '-P 2ybc'
loop_
_symmetry_equiv_pos_site_id
_symmetry_equiv_pos_as_xyz
1 x,y,z
2 -x,1/2+y,1/2-z
3 -x,-y,-z
4 x,1/2-y,1/2+z
_cell_length_a                   8.9837(18)
_cell_length_b                   14.112(3)
_cell_length_c                   11.582(2)
_cell_angle_alpha                90
_cell_angle_beta                 92.30(3)
_cell_angle_gamma                90
_cell_volume                     1467.16
loop_
_atom_site_label
_atom_site_type_symbol
_atom_site_fract_x
_atom_site_fract_y
_atom_site_fract_z
Tb1 Tb 0.26553(4) 0.98045(2) 0.75750(3)
O1 O 0.5124(6) 1.0342(4) 0.8171(4)
H1 H 0.546(6) 1.034(5) 0.886(2)
O2 O 0.0570(6) 1.0855(4) 0.7085(4)
H2 H 0.032(9) 1.105(6) 0.641(3)
O3 O 0.3586(5) 1.1026(3) 0.6386(4)
H3 H 0.318(8) 1.156(3) 0.645(7)
O4 O 0.4496(5) 0.9260(3) 0.6224(4)
H4 H 0.506(3) 0.882(3) 0.648(6)
O5 O 0.0479(5) 0.9432(4) 0.8658(4)
H5 H -0.011(4) 0.925(5) 0.813(4)
O6 O 0.3564(6) 0.9319(4) 0.9645(4)
O7 O 0.1484(6) 0.9621(4) 0.5475(5)
O8 O 0.2133(6) 1.0963(4) 0.9068(5)
H6 H 0.250(9) 1.150(3) 0.911(7)
O9 O 0.1354(6) 0.8471(4) 0.6680(4)
O10 O 0.3563(7) 0.8256(4) 0.8323(4)
N1 N 0.1066(7) 0.8796(5) 0.5668(5)
N2 N 0.3840(9) 0.8476(5) 0.9370(6)
C1 C -0.0146(8) 1.0147(5) 0.9377(6)
H7 H -0.1224 1.0172 0.9216
C2 C 0.5327(8) 0.9974(5) 0.5616(6)
H8 H 0.6380 0.9796 0.5610
O11 O 0.0398(8) 0.8305(4) 0.4939(5)
C3 C 0.5162(7) 1.0912(5) 0.6240(6)
H9 H 0.5529 1.1428 0.5762
C4 C 0.5953(8) 1.0934(5) 0.7420(6)
H10 H 0.6963 1.0699 0.7370
H11 H 0.5996 1.1578 0.7714
C5 C 0.0525(8) 1.1115(5) 0.9100(6)
H12 H 0.0302 1.1574 0.9705
C6 C 0.0027(8) 1.1494(5) 0.7930(6)
H13 H -0.1052 1.1529 0.7866
H14 H 0.0428 1.2124 0.7818
O12 O 0.4410(13) 0.7927(5) 1.0069(6)
Tb1B Tb 0.73447(4) 1.01955(2) 0.24250(3)
Tb1B_2 Tb -0.26553(4) 1.01955(2) 1.24250(3)
O1B O 0.4876(6) 0.9658(4) 0.1829(4)
H1B H 0.454(6) 0.966(5) 0.114(2)
O2B O -0.0570(6) 0.9145(4) 1.2915(4)
O2B_2 O 0.9430(6) 0.9145(4) 0.2915(4)
H2B H -0.032(9) 0.895(6) 1.359(3)
H2B_2 H 0.968(9) 0.895(6) 0.359(3)
O3B O 0.6414(5) 0.8974(3) 0.3614(4)
H3B H 0.682(8) 0.844(3) 0.355(7)
O4B O 0.5504(5) 1.0740(3) 0.3776(4)
H4B H 0.494(3) 1.118(3) 0.352(6)
O5B O -0.0479(5) 1.0568(4) 1.1342(4)
O5B_2 O 0.9521(5) 1.0568(4) 0.1342(4)
H5B H 0.011(4) 1.075(5) 1.187(4)
H5B_2 H 1.011(4) 1.075(5) 0.187(4)
O6B O 0.6436(6) 1.0681(4) 0.0355(4)
O7B O 0.8516(6) 1.0379(4) 0.4525(5)
O8B O -0.2133(6) 0.9037(4) 1.0932(5)
O8B_2 O 0.7867(6) 0.9037(4) 0.0932(5)
H6B H -0.250(9) 0.850(3) 1.089(7)
H6B_2 H 0.750(9) 0.850(3) 0.089(7)
O9B O 0.8646(6) 1.1529(4) 0.3320(4)
O10B O 0.6437(7) 1.1744(4) 0.1677(4)
N1B N 0.8934(7) 1.1204(5) 0.4332(5)
N2B N 0.6160(9) 1.1524(5) 0.0630(6)
C1B C 0.0146(8) 0.9853(5) 1.0623(6)
H7B H 0.1224 0.9828 1.0784
C2B C 0.4673(8) 1.0026(5) 0.4384(6)
H8B H 0.3620 1.0204 0.4390
O11B O 0.9602(8) 1.1695(4) 0.5061(5)
C3B C 0.4838(7) 0.9088(5) 0.3760(6)
H9B H 0.4471 0.8572 0.4238
C4B C 0.4047(8) 0.9066(5) 0.2580(6)
H10B H 0.3037 0.9301 0.2630
H11B H 0.4004 0.8422 0.2286
C5B C -0.0525(8) 0.8885(5) 1.0900(6)
H12B H -0.0302 0.8426 1.0295
C6B C -0.0027(8) 0.8506(5) 1.2070(6)
H13B H 0.1052 0.8471 1.2134
H14B H -0.0428 0.7876 1.2182
O12B O 0.5590(13) 1.2073(5) -0.0069(6)
O13 O 0.3573(7) 0.2854(4) 0.8063(6)
O14 O 0.2395(7) 0.2813(4) 0.6389(6)
N3 N 0.2674(7) 0.3219(5) 0.7338(7)
O15 O 0.2025(7) 0.3970(4) 0.7566(6)
loop_
_geom_bond_atom_site_label_1
_geom_bond_atom_site_label_2
_geom_bond_site_symmetry_1
_geom_bond_site_symmetry_2
Tb1 O1 1_555 1_555
O1 H1 1_555 1_555
O2 Tb1 1_555 1_555
H2 O2 1_555 1_555
O3 Tb1 1_555 1_555
H3 O3 1_555 1_555
O4 Tb1 1_555 1_555
H4 O4 1_555 1_555
O5 Tb1 1_555 1_555
H5 O5 1_555 1_555
O6 Tb1 1_555 1_555
O7 Tb1 1_555 1_555
O8 Tb1 1_555 1_555
H6 O8 1_555 1_555
O9 Tb1 1_555 1_555
O10 Tb1 1_555 1_555
N1 O7 1_555 1_555
N2 O6 1_555 1_555
C1 O5 1_555 1_555
H7 C1 1_555 1_555
C2 O4 1_555 1_555
H8 C2 1_555 1_555
O11 N1 1_555 1_555
C3 O3 1_555 1_555
H9 C3 1_555 1_555
C4 O1 1_555 1_555
H10 C4 1_555 1_555
H11 C4 1_555 1_555
C5 O8 1_555 1_555
H12 C5 1_555 1_555
C6 O2 1_555 1_555
H13 C6 1_555 1_555
H14 C6 1_555 1_555
O12 N2 1_555 1_555
O13 N3 1_555 1_555
O14 N3 1_555 1_555
N3 O15 1_555 1_555
Tb1B O1B 1_555 1_555
Tb1B_2 O2B 1_555 1_555
O1B H1B 1_555 1_555
O2B H2B 1_555 1_555
O2B_2 Tb1B 1_555 1_555
H2B_2 O2B_2 1_555 1_555
O3B Tb1B 1_555 1_555
H3B O3B 1_555 1_555
O4B Tb1B 1_555 1_555
H4B O4B 1_555 1_555
O5B Tb1B_2 1_555 1_555
O5B_2 Tb1B 1_555 1_555
H5B O5B 1_555 1_555
H5B_2 O5B_2 1_555 1_555
O6B Tb1B 1_555 1_555
O7B Tb1B 1_555 1_555
O8B Tb1B_2 1_555 1_555
O8B_2 Tb1B 1_555 1_555
H6B O8B 1_555 1_555
H6B_2 O8B_2 1_555 1_555
O9B Tb1B 1_555 1_555
O10B Tb1B 1_555 1_555
N1B O7B 1_555 1_555
N2B O6B 1_555 1_555
C1B C1 1_555 1_555
H7B C1B 1_555 1_555
C2B C2 1_555 1_555
H8B C2B 1_555 1_555
O11B N1B 1_555 1_555
C3B O3B 1_555 1_555
H9B C3B 1_555 1_555
C4B O1B 1_555 1_555
H10B C4B 1_555 1_555
H11B C4B 1_555 1_555
C5B O8B 1_555 1_555
H12B C5B 1_555 1_555
C6B O2B 1_555 1_555
H13B C6B 1_555 1_555
H14B C6B 1_555 1_555
O12B N2B 1_555 1_555
O9 N1 1_555 1_555
O10 N2 1_555 1_555
C1 C5 1_555 1_555
C2 C3 1_555 1_555
C3 C4 1_555 1_555
C5 C6 1_555 1_555
O4B C2B 1_555 1_555
O5B C1B 1_555 1_555
O9B N1B 1_555 1_555
O10B N2B 1_555 1_555
C1B C5B 1_555 1_555
C2B C3B 1_555 1_555
C3B C4B 1_555 1_555
C5B C6B 1_555 1_555

#END
