
#######################################################################
#
#                 Cambridge Crystallographic Data Centre
#                                CCDC 
#
#######################################################################
#
# If this CIF has been generated from an entry in the Cambridge 
# Structural Database, then it will include bibliographic, chemical, 
# crystal, experimental, refinement or atomic coordinate data resulting 
# from the CCDC's data processing and validation procedures.
#
#######################################################################

data_EYUGOV
_symmetry_cell_setting           monoclinic
_symmetry_space_group_name_H-M   'P 21/a'
_symmetry_Int_Tables_number      14
_space_group_name_Hall           '-P 2yab'
loop_
_symmetry_equiv_pos_site_id
_symmetry_equiv_pos_as_xyz
1 x,y,z
2 1/2-x,1/2+y,-z
3 -x,-y,-z
4 1/2+x,1/2-y,z
_cell_length_a                   8.1123(10)
_cell_length_b                   9.3629(11)
_cell_length_c                   13.4620(18)
_cell_angle_alpha                90
_cell_angle_beta                 94.880(7)
_cell_angle_gamma                90
_cell_volume                     1018.8
loop_
_atom_site_label
_atom_site_type_symbol
_atom_site_fract_x
_atom_site_fract_y
_atom_site_fract_z
Mn1 Mn 0.04928(14) -0.33845(12) 0.97700(9)
Mn2 Mn 0.11907(14) 0.01651(12) 0.90504(9)
O1 O -0.1669(6) -0.4493(6) 1.0033(4)
O2 O 0.1889(7) -0.3128(6) 0.1198(4)
O3 O -0.0490(7) -0.1355(6) 0.9627(4)
O4 O 0.1490(7) -0.3377(6) 0.8391(4)
O5 O 0.0604(8) -0.1338(6) 0.1910(4)
O6 O 0.1614(8) -0.1158(7) 0.7773(5)
C1 C 0.1824(13) -0.3163(10) 0.2967(6)
H1 H 0.1046 -0.394 0.3025
H2 H 0.2919 -0.3582 0.2975
C2 C 0.1868(13) -0.3084(10) 0.4843(7)
H3 H 0.094 -0.3741 0.4811
H4 H 0.2873 -0.365 0.4887
C3 C 0.1644(10) -0.2475(9) 0.7689(6)
C4 C 0.1880(12) -0.3167(10) 0.6694(6)
H5 H 0.1025 -0.3884 0.6567
H6 H 0.2934 -0.3663 0.6753
C5 C 0.1844(12) -0.2194(9) 0.5789(6)
H7 H 0.2797 -0.1564 0.5849
H8 H 0.0854 -0.161 0.5753
C6 C 0.1781(12) -0.2219(10) 0.3882(6)
H9 H 0.0769 -0.1662 0.3827
H10 H 0.2706 -0.1559 0.3908
C7 C 0.1425(10) -0.2446(9) 0.1957(6)
H11 H -0.202(13) -0.412(11) 1.055(5)
H12 H -0.106(12) -0.141(11) 0.907(4)
Mn1B Mn -0.04928(14) -0.66155(12) 1.02300(9)
Mn1_2 Mn 0.04928(14) -0.33845(12) -0.02300(9)
Mn2C Mn -0.38093(14) -0.51651(12) 0.90504(9)
Mn2A Mn 0.38093(14) -0.48349(12) 0.09496(9)
Mn2B Mn -0.11907(14) -0.01651(12) 1.09496(9)
Mn2B_2 Mn -0.11907(14) -0.01651(12) 0.09496(9)
O1B O 0.1669(6) -0.5507(6) 0.9967(4)
O1C O 0.3331(6) -0.0507(6) 1.0033(4)
O2_2 O 0.1889(7) -0.3128(6) 1.1198(4)
O2A O 0.3111(7) 0.1872(6) 0.8802(4)
O3B O 0.0490(7) 0.1355(6) 1.0373(4)
O5B O -0.0604(8) 0.1338(6) 0.8090(4)
H11B H 0.202(13) -0.588(11) 0.945(5)
H11C H 0.298(13) -0.088(11) 1.055(5)
H12B H 0.106(12) 0.141(11) 1.093(4)
loop_
_geom_bond_atom_site_label_1
_geom_bond_atom_site_label_2
_geom_bond_site_symmetry_1
_geom_bond_site_symmetry_2
Mn1 O1 1_555 1_555
Mn2 O3 1_555 1_555
O1 H11 1_555 1_555
O2 C7 1_555 1_555
O3 Mn1 1_555 1_555
O4 Mn1 1_555 1_555
O5 C7 1_555 1_555
O6 Mn2 1_555 1_555
C1 H1 1_555 1_555
H2 C1 1_555 1_555
C2 H3 1_555 1_555
H4 C2 1_555 1_555
C3 O4 1_555 1_555
C4 C3 1_555 1_555
H5 C4 1_555 1_555
H6 C4 1_555 1_555
C5 C2 1_555 1_555
H7 C5 1_555 1_555
H8 C5 1_555 1_555
C6 C1 1_555 1_555
H9 C6 1_555 1_555
H10 C6 1_555 1_555
C7 C1 1_555 1_555
H12 O3 1_555 1_555
Mn1B O1 1_555 1_555
Mn1_2 O2 1_555 1_555
Mn2C O1 1_555 1_555
Mn2A O2 1_555 1_555
Mn2B O3 1_555 1_555
Mn2B_2 O5 1_555 1_555
O1B Mn1 1_555 1_555
O1C Mn2 1_555 1_555
O2_2 Mn1 1_555 1_555
O2A Mn2 1_555 1_555
O3B Mn2 1_555 1_555
O5B Mn2 1_555 1_555
H11B O1B 1_555 1_555
H11C O1C 1_555 1_555
H12B O3B 1_555 1_555
O6 C3 1_555 1_555
C2 C6 1_555 1_555
C4 C5 1_555 1_555
Mn1B O1B 1_555 1_555
Mn2B O3B 1_555 1_555

#END
