
#######################################################################
#
#                 Cambridge Crystallographic Data Centre
#                                CCDC 
#
#######################################################################
#
# If this CIF has been generated from an entry in the Cambridge 
# Structural Database, then it will include bibliographic, chemical, 
# crystal, experimental, refinement or atomic coordinate data resulting 
# from the CCDC's data processing and validation procedures.
#
#######################################################################

data_EYUGUB
_symmetry_cell_setting           triclinic
_symmetry_space_group_name_H-M   'P -1'
_symmetry_Int_Tables_number      2
_space_group_name_Hall           '-P 1'
loop_
_symmetry_equiv_pos_site_id
_symmetry_equiv_pos_as_xyz
1 x,y,z
2 -x,-y,-z
_cell_length_a                   5.0589(2)
_cell_length_b                   10.5756(6)
_cell_length_c                   19.1948(8)
_cell_angle_alpha                79.883(3)
_cell_angle_beta                 87.442(3)
_cell_angle_gamma                85.762(3)
_cell_volume                     1007.68
loop_
_atom_site_label
_atom_site_type_symbol
_atom_site_fract_x
_atom_site_fract_y
_atom_site_fract_z
Mn1 Mn 0.63834(19) 0.33225(9) 0.36208(5)
Mn2 Mn 1.88003(18) -0.15220(9) 0.67805(5)
Mn3 Mn 0.60623(18) 0.36318(9) 0.18748(5)
O1 O 0.8551(9) 0.4901(4) 0.1219(2)
O2 O 1.6106(9) -0.0163(4) 0.6187(2)
O3 O 0.1318(10) 0.9756(4) 0.1688(2)
O4 O 1.2545(9) 0.3838(4) 0.1232(2)
O5 O 0.3457(9) 0.4912(4) 0.2436(2)
O6 O 0.8728(9) 0.3568(4) 0.4449(2)
C1 C 1.2291(13) 0.1018(6) 0.5648(3)
H1 H 1.1545 0.0856 0.5218
H2 H 1.0836 0.126 0.5955
O7 O 1.2462(9) 0.2841(4) 0.3962(2)
O8 O -0.0899(9) 1.0354(4) 0.2611(2)
O9 O 1.5878(9) -0.1931(4) 0.7613(2)
H3 H 1.462(11) -0.135(5) 0.756(4)
O10 O 0.5096(10) 0.5298(4) 0.3436(2)
O11 O 1.2472(9) -0.1235(4) 0.6127(2)
O12 O 0.8855(9) 0.3231(4) 0.2712(2)
H4 H 0.989(12) 0.384(5) 0.267(4)
C2 C 1.0934(13) 0.4840(6) 0.1051(3)
C3 C 1.2110(12) 0.6007(6) 0.0603(3)
H5 H 1.3407 0.6322 0.0877
H6 H 1.3031 0.5746 0.0192
C4 C -0.1828(13) 0.8342(6) 0.2303(3)
H7 H -0.3142 0.8429 0.1942
H8 H -0.2763 0.8253 0.276
C5 C -0.0329(12) 0.9552(6) 0.2195(3)
C6 C 1.3740(13) -0.0200(6) 0.6012(3)
Mn4 Mn 0.19626(19) 1.17602(9) 0.14898(5)
O13 O 1.5368(9) 0.8484(4) -0.0658(2)
O14 O 1.1983(9) 0.7778(4) -0.1147(2)
C7 C 1.3016(13) 0.8203(6) -0.0639(3)
C8 C 1.1248(13) 0.8359(6) 0.0002(3)
H9 H 1.2271 0.8669 0.0345
H10 H 0.9819 0.9002 -0.0141
C9 C 0.3545(13) 0.5581(6) 0.2925(3)
C10 C 1.0056(13) 0.7098(6) 0.0355(3)
H11 H 0.8928 0.6825 0.0022
H12 H 0.8947 0.7264 0.0759
C11 C -0.0032(13) 0.7123(6) 0.2272(3)
H13 H -0.1118 0.642 0.2236
H14 H 0.1119 0.7262 0.1852
C12 C 0.1640(13) 0.6753(6) 0.2917(3)
H15 H 0.0463 0.6602 0.3331
H16 H 0.2651 0.7478 0.2959
C13 C 1.2577(13) 0.3394(6) 0.5127(3)
H17 H 1.1289 0.3656 0.5473
H18 H 1.3807 0.4066 0.5007
C14 C 1.4107(13) 0.2141(6) 0.5461(3)
H19 H 1.5506 0.192 0.5132
H20 H 1.4928 0.2275 0.5887
C15 C 1.1163(13) 0.3266(6) 0.4474(3)
Mn1_2 Mn 1.63834(19) 0.33225(9) 0.36208(5)
Mn1A Mn 1.36166(19) -0.33225(9) 0.63792(5)
Mn2A Mn 1.11997(18) 0.15220(9) 0.32195(5)
Mn2A_2 Mn 0.11997(18) 1.15220(9) 0.32195(5)
Mn2_2 Mn 0.88003(18) -0.15220(9) 0.67805(5)
Mn3_2 Mn 1.60623(18) 0.36318(9) 0.18748(5)
Mn3A Mn 1.39377(18) -0.36318(9) 0.81252(5)
Mn3A_2 Mn 1.39377(18) 0.63682(9) -0.18748(5)
O4_2 O 0.2545(9) 0.3838(4) 0.1232(2)
O4_3 O 0.2545(9) 1.3838(4) 0.1232(2)
O7_2 O 0.2462(9) 0.2841(4) 0.3962(2)
O7A O 1.7538(9) -0.2841(4) 0.6038(2)
O8A O 2.0899(9) -0.0354(4) 0.7389(2)
O9A O 0.4122(9) 0.1931(4) 0.2387(2)
O9A_2 O 0.4122(9) 1.1931(4) 0.2387(2)
H3A H 0.538(11) 0.135(5) 0.244(4)
H3A_2 H 0.538(11) 1.135(5) 0.244(4)
O11A O 0.7528(9) 0.1235(4) 0.3873(2)
O11_2 O 2.2472(9) -0.1235(4) 0.6127(2)
O12A O 2.1145(9) -0.3231(4) 0.7288(2)
H4A H 2.011(12) -0.384(5) 0.733(4)
Mn4_2 Mn 1.19626(19) 0.17602(9) 0.14898(5)
Mn4A Mn 1.80374(19) -0.17602(9) 0.85102(5)
Mn4A_2 Mn 1.80374(19) 0.82398(9) -0.14898(5)
Mn4A_3 Mn 0.80374(19) 0.82398(9) -0.14898(5)
O13A O 0.4632(9) 1.1516(4) 0.0658(2)
O14A O 0.8017(9) 0.2222(4) 0.1147(2)
O14A_2 O -0.1983(9) 1.2222(4) 0.1147(2)
loop_
_geom_bond_atom_site_label_1
_geom_bond_atom_site_label_2
_geom_bond_site_symmetry_1
_geom_bond_site_symmetry_2
Mn1 O6 1_555 1_555
Mn2 O2 1_555 1_555
Mn3 O1 1_555 1_555
O1 C2 1_555 1_555
O2 C6 1_555 1_555
O3 C5 1_555 1_555
O4 C2 1_555 1_555
O5 Mn3 1_555 1_555
O6 C15 1_555 1_555
C1 H1 1_555 1_555
H2 C1 1_555 1_555
O7 C15 1_555 1_555
O8 C5 1_555 1_555
O9 Mn2 1_555 1_555
H3 O9 1_555 1_555
O10 Mn1 1_555 1_555
O11 C6 1_555 1_555
O12 Mn1 1_555 1_555
H4 O12 1_555 1_555
C2 C3 1_555 1_555
C3 H5 1_555 1_555
H6 C3 1_555 1_555
C4 H7 1_555 1_555
H8 C4 1_555 1_555
C5 C4 1_555 1_555
C6 C1 1_555 1_555
Mn4 O3 1_555 1_555
O13 C7 1_555 1_555
O14 C7 1_555 1_555
C7 C8 1_555 1_555
C8 H9 1_555 1_555
H10 C8 1_555 1_555
C9 O5 1_555 1_555
C10 C3 1_555 1_555
H11 C10 1_555 1_555
H12 C10 1_555 1_555
C11 C4 1_555 1_555
H13 C11 1_555 1_555
H14 C11 1_555 1_555
C12 C9 1_555 1_555
H15 C12 1_555 1_555
H16 C12 1_555 1_555
C13 H17 1_555 1_555
H18 C13 1_555 1_555
C14 C1 1_555 1_555
H19 C14 1_555 1_555
H20 C14 1_555 1_555
C15 C13 1_555 1_555
Mn1_2 O7 1_555 1_555
Mn1A O11 1_555 1_555
Mn2A O7 1_555 1_555
Mn2A_2 O8 1_555 1_555
Mn2_2 O11 1_555 1_555
Mn3_2 O4 1_555 1_555
Mn3A O9 1_555 1_555
Mn3A_2 O14 1_555 1_555
O4_2 Mn3 1_555 1_555
O4_3 Mn4 1_555 1_555
O7_2 Mn1 1_555 1_555
O7A Mn2 1_555 1_555
O8A Mn2 1_555 1_555
O9A Mn3 1_555 1_555
O9A_2 Mn4 1_555 1_555
H3A O9A 1_555 1_555
H3A_2 O9A_2 1_555 1_555
O11A Mn1 1_555 1_555
O11_2 Mn2 1_555 1_555
O12A Mn2 1_555 1_555
H4A O12A 1_555 1_555
Mn4_2 O4 1_555 1_555
Mn4A O9 1_555 1_555
Mn4A_2 O13 1_555 1_555
Mn4A_3 O14 1_555 1_555
O13A Mn4 1_555 1_555
O14A Mn3 1_555 1_555
O14A_2 Mn4 1_555 1_555
Mn3 O12 1_555 1_555
O10 C9 1_555 1_555
O12 Mn2A 1_555 1_555
C8 C10 1_555 1_555
C11 C12 1_555 1_555
C13 C14 1_555 1_555
Mn1A O7A 1_555 1_555
Mn2A O11A 1_555 1_555
Mn2A_2 O9A_2 1_555 1_555
Mn4_2 O14A 1_555 1_555

#END
