
#######################################################################
#
#                 Cambridge Crystallographic Data Centre
#                                CCDC 
#
#######################################################################
#
# If this CIF has been generated from an entry in the Cambridge 
# Structural Database, then it will include bibliographic, chemical, 
# crystal, experimental, refinement or atomic coordinate data resulting 
# from the CCDC's data processing and validation procedures.
#
#######################################################################

data_EYUTUO
_symmetry_cell_setting           monoclinic
_symmetry_space_group_name_H-M   'P 21/n'
_symmetry_Int_Tables_number      14
_space_group_name_Hall           '-P 2yn'
loop_
_symmetry_equiv_pos_site_id
_symmetry_equiv_pos_as_xyz
1 x,y,z
2 1/2-x,1/2+y,1/2-z
3 -x,-y,-z
4 1/2+x,1/2-y,1/2+z
_cell_length_a                   14.419(5)
_cell_length_b                   13.931(5)
_cell_length_c                   14.571(5)
_cell_angle_alpha                90
_cell_angle_beta                 109.095(5)
_cell_angle_gamma                90
_cell_volume                     2765.85
loop_
_atom_site_label
_atom_site_type_symbol
_atom_site_fract_x
_atom_site_fract_y
_atom_site_fract_z
C1 C -0.2850(2) 0.0200(2) -0.0996(2)
H1 H -0.3307 -0.0277 -0.1274
C2 C -0.1915(2) 0.0129(2) -0.1084(2)
H2 H -0.1759 -0.0385 -0.1414
C3 C -0.1234(2) 0.0823(2) -0.0677(2)
H3 H -0.0611 0.0790 -0.0733
C4 C -0.14845(18) 0.15839(19) -0.0177(2)
C5 C -0.24397(17) 0.16087(18) -0.01203(18)
C6 C -0.27492(17) 0.23954(17) 0.03665(18)
C7 C -0.40113(19) 0.3118(2) 0.0754(2)
H4 H -0.4655 0.3103 0.0758
C8 C -0.3436(2) 0.3917(2) 0.1144(2)
H5 H -0.3698 0.4431 0.1384
C9 C -0.2478(2) 0.3932(2) 0.1169(2)
H6 H -0.2080 0.4456 0.1435
C10 C -0.20991(18) 0.31576(18) 0.07932(18)
C11 C -0.11249(18) 0.30793(19) 0.07603(19)
C12 C -0.08332(18) 0.2347(2) 0.0288(2)
C13 C 0.04071(19) 0.3308(2) 0.0795(2)
C14 C 0.1397(2) 0.3695(2) 0.0949(2)
C15 C 0.1689(2) 0.4675(2) 0.1214(2)
C16 C 0.2680(2) 0.4952(3) 0.1351(2)
C17 C 0.3343(2) 0.4269(3) 0.1203(3)
H7 H 0.3987 0.4450 0.1294
C18 C 0.3060(2) 0.3359(3) 0.0933(3)
H8 H 0.3509 0.2924 0.0839
C19 C 0.2085(2) 0.3066(3) 0.0793(3)
C20 C 0.1062(2) 0.5416(2) 0.1328(2)
H9 H 0.0398 0.5283 0.1186
C21 C 0.1390(3) 0.6309(3) 0.1635(3)
H10 H 0.0959 0.6761 0.1735
C22 C 0.2373(3) 0.6560(3) 0.1804(3)
H11 H 0.2599 0.7170 0.2026
C23 C 0.2987(3) 0.5901(3) 0.1638(3)
H12 H 0.3630 0.6077 0.1714
C24 C -0.59581(18) 0.22469(18) -0.1250(2)
C25 C -0.67817(18) 0.29286(17) -0.17487(19)
C26 C -0.66845(17) 0.36794(18) -0.23775(19)
C27 C -0.5785(2) 0.3901(2) -0.2530(2)
H13 H -0.5241 0.3514 -0.2251
C28 C -0.5702(2) 0.4668(2) -0.3076(2)
H14 H -0.5100 0.4804 -0.3154
C29 C -0.6517(2) 0.5258(2) -0.3524(2)
H15 H -0.6452 0.5784 -0.3891
C30 C -0.74034(19) 0.50568(19) -0.3418(2)
H16 H -0.7941 0.5444 -0.3726
C31 C -0.75220(17) 0.42699(17) -0.28487(18)
C32 C -0.76486(19) 0.2804(2) -0.1570(2)
H17 H -0.7694 0.2331 -0.1136
C33 C -0.84733(19) 0.33778(19) -0.2033(2)
H18 H -0.9055 0.3282 -0.1901
C34 C -0.84248(17) 0.40759(17) -0.26756(18)
C35 C -0.93408(17) 0.46519(17) -0.31517(18)
N1 N -0.36845(15) 0.23758(15) 0.03747(16)
N2 N -0.31146(15) 0.09166(15) -0.05337(16)
N3 N -0.03285(16) 0.36767(17) 0.10996(17)
H19 H -0.0295 0.4188 0.1440
N4 N 0.01157(16) 0.24895(18) 0.03077(18)
O1 O -0.97879(14) 0.49998(15) -0.26415(14)
O2 O -0.96195(12) 0.47539(12) -0.40821(12)
O3 O -0.59304(13) 0.18983(14) -0.04431(15)
O4 O -0.53377(16) 0.20137(16) -0.16452(16)
O5 O 0.18874(18) 0.21470(18) 0.0501(2)
Mn1 Mn -0.45840(2) 0.10785(3) -0.03495(3)
H20 H 0.118(4) 0.211(4) 0.034(4)
O2C O -0.46195(12) 0.02461(12) 0.09179(12)
O2A O -0.53805(12) -0.02461(12) -0.09179(12)
Mn1A Mn -1.04160(2) 0.60785(3) -0.46505(3)
Mn1C Mn -0.95840(2) 0.39215(3) -0.53495(3)
loop_
_geom_bond_atom_site_label_1
_geom_bond_atom_site_label_2
_geom_bond_site_symmetry_1
_geom_bond_site_symmetry_2
C1 H1 1_555 1_555
C2 C1 1_555 1_555
H2 C2 1_555 1_555
C3 C2 1_555 1_555
H3 C3 1_555 1_555
C4 C3 1_555 1_555
C5 C4 1_555 1_555
C6 C5 1_555 1_555
C7 H4 1_555 1_555
C8 C7 1_555 1_555
H5 C8 1_555 1_555
C9 C8 1_555 1_555
H6 C9 1_555 1_555
C10 C6 1_555 1_555
C11 C10 1_555 1_555
C12 C4 1_555 1_555
C13 C14 1_555 1_555
C14 C15 1_555 1_555
C15 C16 1_555 1_555
C16 C17 1_555 1_555
C17 H7 1_555 1_555
C18 C17 1_555 1_555
H8 C18 1_555 1_555
C19 C14 1_555 1_555
C20 C15 1_555 1_555
H9 C20 1_555 1_555
C21 C20 1_555 1_555
H10 C21 1_555 1_555
C22 C21 1_555 1_555
H11 C22 1_555 1_555
C23 C16 1_555 1_555
H12 C23 1_555 1_555
C24 C25 1_555 1_555
C25 C26 1_555 1_555
C26 C27 1_555 1_555
C27 H13 1_555 1_555
C28 C27 1_555 1_555
H14 C28 1_555 1_555
C29 C28 1_555 1_555
H15 C29 1_555 1_555
C30 C29 1_555 1_555
H16 C30 1_555 1_555
C31 C26 1_555 1_555
C32 C25 1_555 1_555
H17 C32 1_555 1_555
C33 C32 1_555 1_555
H18 C33 1_555 1_555
C34 C31 1_555 1_555
C35 C34 1_555 1_555
N1 C6 1_555 1_555
N2 C1 1_555 1_555
N3 C11 1_555 1_555
H19 N3 1_555 1_555
N4 C12 1_555 1_555
O1 C35 1_555 1_555
O2 C35 1_555 1_555
O3 C24 1_555 1_555
O4 C24 1_555 1_555
O5 C19 1_555 1_555
Mn1 N1 1_555 1_555
H20 O5 1_555 1_555
O2C Mn1 1_555 1_555
O2A Mn1 1_555 1_555
Mn1A O2 1_555 1_555
Mn1C O2 1_555 1_555
C5 N2 1_555 1_555
C7 N1 1_555 1_555
C9 C10 1_555 1_555
C11 C12 1_555 1_555
C13 N3 1_555 1_555
C13 N4 1_555 1_555
C18 C19 1_555 1_555
C22 C23 1_555 1_555
C30 C31 1_555 1_555
C33 C34 1_555 1_555
N2 Mn1 1_555 1_555
O3 Mn1 1_555 1_555
O4 Mn1 1_555 1_555

#END
