
#######################################################################
#
#                 Cambridge Crystallographic Data Centre
#                                CCDC 
#
#######################################################################
#
# If this CIF has been generated from an entry in the Cambridge 
# Structural Database, then it will include bibliographic, chemical, 
# crystal, experimental, refinement or atomic coordinate data resulting 
# from the CCDC's data processing and validation procedures.
#
#######################################################################

data_EYUVIE
_symmetry_cell_setting           triclinic
_symmetry_space_group_name_H-M   'P -1'
_symmetry_Int_Tables_number      2
_space_group_name_Hall           '-P 1'
loop_
_symmetry_equiv_pos_site_id
_symmetry_equiv_pos_as_xyz
1 x,y,z
2 -x,-y,-z
_cell_length_a                   8.7264(17)
_cell_length_b                   10.968(2)
_cell_length_c                   11.069(2)
_cell_angle_alpha                81.81(3)
_cell_angle_beta                 69.64(3)
_cell_angle_gamma                77.91(3)
_cell_volume                     968.407
loop_
_atom_site_label
_atom_site_type_symbol
_atom_site_fract_x
_atom_site_fract_y
_atom_site_fract_z
Co1 Co 0.0000 1.0000 0.0000
O1 O 0.16812(16) 0.87976(12) 0.07578(12)
O2 O 0.2780(2) 1.00610(14) 0.15076(17)
O3 O -0.06260(17) 0.84568(12) -0.05771(13)
N1 N -0.19035(19) 0.99330(14) 0.18794(14)
C1 C 0.2656(2) 0.90068(19) 0.12956(18)
C2 C 0.3791(3) 0.7872(2) 0.1668(2)
H1 H 0.4188 0.8097 0.2310
H2 H 0.4748 0.7659 0.0912
C3 C 0.2970(3) 0.6714(2) 0.2211(2)
H3 H 0.2535 0.6537 0.1561
C4 C 0.4270(3) 0.5572(2) 0.2358(2)
C5 C 0.4575(4) 0.4555(2) 0.1666(3)
H4 H 0.3961 0.4554 0.1127
C6 C 0.5780(4) 0.3527(2) 0.1750(3)
H5 H 0.5961 0.2848 0.1272
C7 C 0.6700(4) 0.3506(3) 0.2530(3)
H6 H 0.7504 0.2815 0.2588
C8 C 0.6430(4) 0.4507(3) 0.3225(3)
H7 H 0.7051 0.4500 0.3760
C9 C 0.5223(4) 0.5542(2) 0.3134(3)
H8 H 0.5057 0.6224 0.3605
C10 C 0.1498(3) 0.6913(2) 0.3453(2)
C11 C 0.1485(3) 0.7537(2) 0.4445(2)
H9 H 0.2404 0.7888 0.4355
C12 C 0.0134(4) 0.7662(3) 0.5587(3)
H10 H 0.0153 0.8094 0.6245
C13 C -0.1207(4) 0.7145(3) 0.5726(3)
H11 H -0.2101 0.7212 0.6491
C14 C -0.1261(4) 0.6532(3) 0.4766(4)
H12 H -0.2192 0.6189 0.4871
C15 C 0.0096(4) 0.6413(3) 0.3604(3)
H13 H 0.0052 0.6001 0.2942
C16 C -0.1523(2) 0.9856(2) 0.29685(18)
H14 H -0.0412 0.9776 0.2894
C17 C -0.2679(2) 0.9890(2) 0.41838(18)
H15 H -0.2343 0.9846 0.4901
C18 C -0.4357(2) 0.99895(16) 0.43455(16)
C19 C -0.4754(2) 1.0080(2) 0.32191(18)
H16 H -0.5856 1.0165 0.3267
C20 C -0.3519(2) 1.00427(19) 0.20322(18)
H17 H -0.3823 1.0097 0.1297
C21 C -0.1433(4) 0.6450(3) -0.0461(3)
H18 H -0.1675 0.5715 0.0105
H19 H -0.0513 0.6221 -0.1221
H20 H -0.2388 0.6839 -0.0704
C22 C -0.1009(3) 0.7337(2) 0.0214(2)
H21 H -0.1937 0.7554 0.0988
H22 H -0.0063 0.6932 0.0476
H23 H -0.1394 0.8768 -0.0944
Co1_2 Co -1.0000 1.0000 1.0000
O1A O -0.16812(16) 1.12024(12) -0.07578(12)
O2A O -0.2780(2) 0.99390(14) -0.15076(17)
O3A O 0.06260(17) 1.15432(12) 0.05771(13)
N1A N -0.80965(19) 1.00670(14) 0.81206(14)
N1A_2 N 0.19035(19) 1.00670(14) -0.18794(14)
C1A C -0.2656(2) 1.09932(19) -0.12956(18)
C2A C -0.3791(3) 1.2128(2) -0.1668(2)
H1A H -0.4188 1.1903 -0.2310
H2A H -0.4748 1.2341 -0.0912
C3A C -0.2970(3) 1.3286(2) -0.2211(2)
H3A H -0.2535 1.3463 -0.1561
C4A C -0.4270(3) 1.4428(2) -0.2358(2)
C5A C -0.4575(4) 1.5445(2) -0.1666(3)
H4A H -0.3961 1.5446 -0.1127
C6A C -0.5780(4) 1.6473(2) -0.1750(3)
H5A H -0.5961 1.7152 -0.1272
C7A C -0.6700(4) 1.6494(3) -0.2530(3)
H6A H -0.7504 1.7185 -0.2588
C8A C -0.6430(4) 1.5493(3) -0.3225(3)
H7A H -0.7051 1.5500 -0.3760
C9A C -0.5223(4) 1.4458(2) -0.3134(3)
H8A H -0.5057 1.3776 -0.3605
C10A C -0.1498(3) 1.3087(2) -0.3453(2)
C11A C -0.1485(3) 1.2463(2) -0.4445(2)
H9A H -0.2404 1.2112 -0.4355
C12A C -0.0134(4) 1.2338(3) -0.5587(3)
H10A H -0.0153 1.1906 -0.6245
C13A C 0.1207(4) 1.2855(3) -0.5726(3)
H11A H 0.2101 1.2788 -0.6491
C14A C 0.1261(4) 1.3468(3) -0.4766(4)
H12A H 0.2192 1.3811 -0.4871
C15A C -0.0096(4) 1.3587(3) -0.3604(3)
H13A H -0.0052 1.3999 -0.2942
C16A C -0.8477(2) 1.0144(2) 0.70315(18)
H14A H -0.9588 1.0224 0.7106
C17A C -0.7321(2) 1.0110(2) 0.58162(18)
H15A H -0.7657 1.0154 0.5099
C18A C -0.5643(2) 1.00105(16) 0.56545(16)
C19A C -0.5246(2) 0.9920(2) 0.67809(18)
H16A H -0.4144 0.9835 0.6733
C20A C -0.6481(2) 0.99573(19) 0.79678(18)
H17A H -0.6177 0.9903 0.8703
C21A C 0.1433(4) 1.3550(3) 0.0461(3)
H18A H 0.1675 1.4285 -0.0105
H19A H 0.0513 1.3779 0.1221
H20A H 0.2388 1.3161 0.0704
C22A C 0.1009(3) 1.2663(2) -0.0214(2)
H21A H 0.1937 1.2446 -0.0988
H22A H 0.0063 1.3068 -0.0476
H23A H 0.1394 1.1232 0.0944
loop_
_geom_bond_atom_site_label_1
_geom_bond_atom_site_label_2
_geom_bond_site_symmetry_1
_geom_bond_site_symmetry_2
Co1 O1 1_555 1_555
O1 C1 1_555 1_555
O2 C1 1_555 1_555
O3 Co1 1_555 1_555
N1 Co1 1_555 1_555
C1 C2 1_555 1_555
C2 H1 1_555 1_555
H2 C2 1_555 1_555
C3 C2 1_555 1_555
H3 C3 1_555 1_555
C4 C3 1_555 1_555
C5 C4 1_555 1_555
H4 C5 1_555 1_555
C6 C5 1_555 1_555
H5 C6 1_555 1_555
C7 C6 1_555 1_555
H6 C7 1_555 1_555
C8 C7 1_555 1_555
H7 C8 1_555 1_555
C9 C4 1_555 1_555
H8 C9 1_555 1_555
C10 C3 1_555 1_555
C11 C10 1_555 1_555
H9 C11 1_555 1_555
C12 C11 1_555 1_555
H10 C12 1_555 1_555
C13 C12 1_555 1_555
H11 C13 1_555 1_555
C14 C13 1_555 1_555
H12 C14 1_555 1_555
C15 C10 1_555 1_555
H13 C15 1_555 1_555
C16 N1 1_555 1_555
H14 C16 1_555 1_555
C17 C16 1_555 1_555
H15 C17 1_555 1_555
C18 C17 1_555 1_555
C19 C18 1_555 1_555
H16 C19 1_555 1_555
C20 N1 1_555 1_555
H17 C20 1_555 1_555
C21 H18 1_555 1_555
H19 C21 1_555 1_555
H20 C21 1_555 1_555
C22 O3 1_555 1_555
H21 C22 1_555 1_555
H22 C22 1_555 1_555
H23 O3 1_555 1_555
Co1_2 N1A 1_555 1_555
O1A Co1 1_555 1_555
O2A C1A 1_555 1_555
O3A Co1 1_555 1_555
N1A C16A 1_555 1_555
N1A_2 Co1 1_555 1_555
C1A O1A 1_555 1_555
C2A C1A 1_555 1_555
H1A C2A 1_555 1_555
H2A C2A 1_555 1_555
C3A C2A 1_555 1_555
H3A C3A 1_555 1_555
C4A C3A 1_555 1_555
C5A C4A 1_555 1_555
H4A C5A 1_555 1_555
C6A C5A 1_555 1_555
H5A C6A 1_555 1_555
C7A C6A 1_555 1_555
H6A C7A 1_555 1_555
C8A C7A 1_555 1_555
H7A C8A 1_555 1_555
C9A C4A 1_555 1_555
H8A C9A 1_555 1_555
C10A C3A 1_555 1_555
C11A C10A 1_555 1_555
H9A C11A 1_555 1_555
C12A C11A 1_555 1_555
H10A C12A 1_555 1_555
C13A C12A 1_555 1_555
H11A C13A 1_555 1_555
C14A C13A 1_555 1_555
H12A C14A 1_555 1_555
C15A C10A 1_555 1_555
H13A C15A 1_555 1_555
C16A H14A 1_555 1_555
C17A C16A 1_555 1_555
H15A C17A 1_555 1_555
C18A C18 1_555 1_555
C19A C18A 1_555 1_555
H16A C19A 1_555 1_555
C20A N1A 1_555 1_555
H17A C20A 1_555 1_555
C21A H18A 1_555 1_555
H19A C21A 1_555 1_555
H20A C21A 1_555 1_555
C22A O3A 1_555 1_555
H21A C22A 1_555 1_555
H22A C22A 1_555 1_555
H23A O3A 1_555 1_555
C8 C9 1_555 1_555
C14 C15 1_555 1_555
C19 C20 1_555 1_555
C21 C22 1_555 1_555
C8A C9A 1_555 1_555
C14A C15A 1_555 1_555
C17A C18A 1_555 1_555
C19A C20A 1_555 1_555
C21A C22A 1_555 1_555

#END
