
#######################################################################
#
#                 Cambridge Crystallographic Data Centre
#                                CCDC 
#
#######################################################################
#
# If this CIF has been generated from an entry in the Cambridge 
# Structural Database, then it will include bibliographic, chemical, 
# crystal, experimental, refinement or atomic coordinate data resulting 
# from the CCDC's data processing and validation procedures.
#
#######################################################################

data_EYUVUQ
_symmetry_cell_setting           monoclinic
_symmetry_space_group_name_H-M   'C 2/c'
_symmetry_Int_Tables_number      15
_space_group_name_Hall           '-C 2yn'
loop_
_symmetry_equiv_pos_site_id
_symmetry_equiv_pos_as_xyz
1 x,y,z
2 -x,y,1/2-z
3 1/2+x,1/2+y,z
4 1/2-x,1/2+y,1/2-z
5 -x,-y,-z
6 x,-y,1/2+z
7 1/2-x,1/2-y,-z
8 1/2+x,1/2-y,1/2+z
_cell_length_a                   28.260(6)
_cell_length_b                   6.0533(12)
_cell_length_c                   22.265(5)
_cell_angle_alpha                90
_cell_angle_beta                 119.90(3)
_cell_angle_gamma                90
_cell_volume                     3301.83
loop_
_atom_site_label
_atom_site_type_symbol
_atom_site_fract_x
_atom_site_fract_y
_atom_site_fract_z
Cu1 Cu 0.5000 -0.13204(16) 0.7500
O1 O 0.57885(13) -0.1380(8) 0.80588(17)
N1 N 0.50528(16) -0.0887(7) 0.66100(19)
C1 C 0.6032(2) 0.0424(12) 0.8329(3)
O2 O 0.58001(17) 0.2188(8) 0.8267(2)
C2 C 0.5286(2) 0.1208(11) 0.5895(3)
H1 H 0.5465 0.2439 0.5855
O3 O 0.5000 -0.4916(11) 0.7500
C3 C 0.50147(19) -0.0200(9) 0.5339(2)
C4 C 0.5295(2) 0.0805(10) 0.6513(3)
H2 H 0.5482 0.1788 0.6877
C5 C 0.4796(2) -0.2295(10) 0.6088(3)
H3 H 0.4627 -0.3524 0.6150
C6 C 0.7579(2) 0.1910(12) 0.9188(3)
C7 C 0.4770(2) -0.2003(10) 0.5455(3)
H4 H 0.4587 -0.3033 0.5103
C8 C 0.7892(3) 0.3640(14) 0.9221(4)
H5 H 0.7726 0.4880 0.8950
C9 C 0.6809(2) 0.2726(11) 0.7986(3)
C10 C 0.6970(3) 0.1565(15) 0.7605(4)
H6 H 0.7162 0.0254 0.7780
C11 C 0.8705(3) 0.1836(13) 1.0047(3)
H7 H 0.9082 0.1829 1.0333
C12 C 0.7839(2) 0.0063(12) 0.9589(3)
H8 H 0.7635 -0.1174 0.9564
C13 C 0.6520(2) 0.4629(11) 0.7714(3)
H9 H 0.6400 0.5436 0.7968
C14 C 0.6962(2) 0.2084(12) 0.8726(3)
H10 H 0.6855 0.3354 0.8905
C15 C 0.8402(2) 0.0056(13) 1.0026(3)
H11 H 0.8572 -0.1166 1.0304
C16 C 0.8450(3) 0.3620(15) 0.9646(4)
H12 H 0.8655 0.4841 0.9657
C17 C 0.6650(2) 0.0241(12) 0.8765(3)
H13 H 0.6746 0.0052 0.9245
H14 H 0.6762 -0.1087 0.8626
C18 C 0.6582(4) 0.414(3) 0.6693(5)
H15 H 0.6511 0.4599 0.6258
C19 C 0.6857(4) 0.228(2) 0.6968(5)
H16 H 0.6974 0.1440 0.6717
C20 C 0.6403(3) 0.5379(16) 0.7063(5)
H17 H 0.6209 0.6681 0.6881
H18 H 0.470(2) -0.579(10) 0.724(3)
Cu1D Cu 0.5000 0.13204(16) 0.2500
O1A O 0.42115(13) -0.1380(8) 0.69412(17)
N1D N 0.49472(16) 0.0887(7) 0.33900(19)
N1A N 0.49472(16) -0.0887(7) 0.83900(19)
C1A C 0.3968(2) 0.0424(12) 0.6671(3)
O2A O 0.41999(17) 0.2188(8) 0.6733(2)
C2D C 0.4714(2) -0.1208(11) 0.4105(3)
H1D H 0.4535 -0.2439 0.4145
C3D C 0.49853(19) 0.0200(9) 0.4661(2)
C4D C 0.4705(2) -0.0805(10) 0.3487(3)
H2D H 0.4518 -0.1788 0.3123
C5D C 0.5204(2) 0.2295(10) 0.3912(3)
H3D H 0.5373 0.3524 0.3850
C6A C 0.2421(2) 0.1910(12) 0.5812(3)
C7D C 0.5230(2) 0.2003(10) 0.4545(3)
H4D H 0.5413 0.3033 0.4897
C8A C 0.2108(3) 0.3640(14) 0.5779(4)
H5A H 0.2274 0.4880 0.6050
C9A C 0.3191(2) 0.2726(11) 0.7014(3)
C10A C 0.3030(3) 0.1565(15) 0.7395(4)
H6A H 0.2838 0.0254 0.7220
C11A C 0.1295(3) 0.1836(13) 0.4953(3)
H7A H 0.0918 0.1829 0.4667
C12A C 0.2161(2) 0.0063(12) 0.5411(3)
H8A H 0.2365 -0.1174 0.5436
C13A C 0.3480(2) 0.4629(11) 0.7286(3)
H9A H 0.3600 0.5436 0.7032
C14A C 0.3038(2) 0.2084(12) 0.6274(3)
H10A H 0.3145 0.3354 0.6095
C15A C 0.1598(2) 0.0056(13) 0.4974(3)
H11A H 0.1428 -0.1166 0.4696
C16A C 0.1550(3) 0.3620(15) 0.5354(4)
H12A H 0.1345 0.4841 0.5343
C17A C 0.3350(2) 0.0241(12) 0.6235(3)
H13A H 0.3254 0.0052 0.5755
H14A H 0.3238 -0.1087 0.6374
C18A C 0.3418(4) 0.414(3) 0.8307(5)
H15A H 0.3489 0.4599 0.8742
C19A C 0.3143(4) 0.228(2) 0.8032(5)
H16A H 0.3026 0.1440 0.8283
C20A C 0.3597(3) 0.5379(16) 0.7937(5)
H17A H 0.3791 0.6681 0.8119
H18A H 0.530(2) -0.579(10) 0.776(3)
loop_
_geom_bond_atom_site_label_1
_geom_bond_atom_site_label_2
_geom_bond_site_symmetry_1
_geom_bond_site_symmetry_2
Cu1 O1 1_555 1_555
O1 C1 1_555 1_555
N1 Cu1 1_555 1_555
C1 O2 1_555 1_555
C2 H1 1_555 1_555
O3 Cu1 1_555 1_555
C3 C2 1_555 1_555
C4 N1 1_555 1_555
H2 C4 1_555 1_555
C5 N1 1_555 1_555
H3 C5 1_555 1_555
C6 C8 1_555 1_555
C7 C3 1_555 1_555
H4 C7 1_555 1_555
C8 H5 1_555 1_555
C9 C10 1_555 1_555
C10 H6 1_555 1_555
C11 H7 1_555 1_555
C12 C6 1_555 1_555
H8 C12 1_555 1_555
C13 C9 1_555 1_555
H9 C13 1_555 1_555
C14 C6 1_555 1_555
H10 C14 1_555 1_555
C15 C11 1_555 1_555
H11 C15 1_555 1_555
C16 C8 1_555 1_555
H12 C16 1_555 1_555
C17 C1 1_555 1_555
H13 C17 1_555 1_555
H14 C17 1_555 1_555
C18 H15 1_555 1_555
C19 C10 1_555 1_555
H16 C19 1_555 1_555
C20 C13 1_555 1_555
H17 C20 1_555 1_555
H18 O3 1_555 1_555
Cu1D N1D 1_555 1_555
O1A Cu1 1_555 1_555
N1D C4D 1_555 1_555
N1A Cu1 1_555 1_555
C1A O1A 1_555 1_555
O2A C1A 1_555 1_555
C2D H1D 1_555 1_555
C3D C3 1_555 1_555
C4D C2D 1_555 1_555
H2D C4D 1_555 1_555
C5D N1D 1_555 1_555
H3D C5D 1_555 1_555
C6A C8A 1_555 1_555
C7D C3D 1_555 1_555
H4D C7D 1_555 1_555
C8A H5A 1_555 1_555
C9A C10A 1_555 1_555
C10A H6A 1_555 1_555
C11A H7A 1_555 1_555
C12A C6A 1_555 1_555
H8A C12A 1_555 1_555
C13A C9A 1_555 1_555
H9A C13A 1_555 1_555
C14A C6A 1_555 1_555
H10A C14A 1_555 1_555
C15A C11A 1_555 1_555
H11A C15A 1_555 1_555
C16A C8A 1_555 1_555
H12A C16A 1_555 1_555
C17A C1A 1_555 1_555
H13A C17A 1_555 1_555
H14A C17A 1_555 1_555
C18A H15A 1_555 1_555
C19A C10A 1_555 1_555
H16A C19A 1_555 1_555
C20A C13A 1_555 1_555
H17A C20A 1_555 1_555
H18A O3 1_555 1_555
C2 C4 1_555 1_555
C5 C7 1_555 1_555
C9 C14 1_555 1_555
C11 C16 1_555 1_555
C12 C15 1_555 1_555
C14 C17 1_555 1_555
C18 C19 1_555 1_555
C18 C20 1_555 1_555
C2D C3D 1_555 1_555
C5D C7D 1_555 1_555
C9A C14A 1_555 1_555
C11A C16A 1_555 1_555
C12A C15A 1_555 1_555
C14A C17A 1_555 1_555
C18A C19A 1_555 1_555
C18A C20A 1_555 1_555

#END
