
#######################################################################
#
#                 Cambridge Crystallographic Data Centre
#                                CCDC 
#
#######################################################################
#
# If this CIF has been generated from an entry in the Cambridge 
# Structural Database, then it will include bibliographic, chemical, 
# crystal, experimental, refinement or atomic coordinate data resulting 
# from the CCDC's data processing and validation procedures.
#
#######################################################################

data_EYUVAV
_symmetry_cell_setting           tetragonal
_symmetry_space_group_name_H-M   'I 41/a c d'
_symmetry_Int_Tables_number      142
_space_group_name_Hall           '-I 4bd 2c'
loop_
_symmetry_equiv_pos_site_id
_symmetry_equiv_pos_as_xyz
1 x,y,z
2 1/4-y,3/4+x,1/4+z
3 x,-y,1/2-z
4 1/2-x,-y,1/2+z
5 1/4+y,3/4+x,3/4-z
6 1/4+y,1/4-x,3/4+z
7 1/2-x,y,-z
8 1/4-y,1/4-x,1/4-z
9 1/2+x,1/2+y,1/2+z
10 3/4-y,1/4+x,3/4+z
11 1/2+x,1/2-y,-z
12 -x,1/2-y,z
13 3/4+y,1/4+x,1/4-z
14 3/4+y,3/4-x,1/4+z
15 -x,1/2+y,1/2-z
16 3/4-y,3/4-x,3/4-z
17 -x,-y,-z
18 3/4+y,1/4-x,3/4-z
19 -x,y,1/2+z
20 1/2+x,y,1/2-z
21 3/4-y,1/4-x,1/4+z
22 3/4-y,3/4+x,1/4-z
23 1/2+x,-y,z
24 3/4+y,3/4+x,3/4+z
25 1/2-x,1/2-y,1/2-z
26 1/4+y,3/4-x,1/4-z
27 1/2-x,1/2+y,z
28 x,1/2+y,-z
29 1/4-y,3/4-x,3/4+z
30 1/4-y,1/4+x,3/4-z
31 x,1/2-y,1/2+z
32 1/4+y,1/4+x,1/4+z
_cell_length_a                   14.0686(5)
_cell_length_b                   14.0686(5)
_cell_length_c                   38.759(2)
_cell_angle_alpha                90
_cell_angle_beta                 90
_cell_angle_gamma                90
_cell_volume                     7671.39
loop_
_atom_site_label
_atom_site_type_symbol
_atom_site_fract_x
_atom_site_fract_y
_atom_site_fract_z
Cu1 Cu 0.0674(1) 0.8212(1) 0.0167(1)
S1 S 0.1007(1) 0.6572(1) 0.0314(1)
N1 N 0.0890(3) 0.8379(3) -0.0334(1)
N2 N 0.1268(3) 0.8937(3) 0.0550(1)
C1 C 0.0935(3) 0.8427(3) -0.1061(1)
C2 C 0.0469(3) 0.9118(3) -0.0870(1)
C3 C 0.0472(3) 0.9069(3) -0.0512(1)
C4 C 0.1357(4) 0.7723(3) -0.0518(1)
C5 C 0.1392(4) 0.7727(3) -0.0875(1)
C6 C 0.2113(3) 0.9911(3) 0.1106(1)
C7 C 0.2246(3) 1.0190(3) 0.0769(1)
C8 C 0.1817(3) 0.9699(3) 0.0505(1)
C9 C 0.1128(3) 0.8668(4) 0.0883(1)
C10 C 0.1520(3) 0.9124(3) 0.1158(1)
C1D C 0.0927(3) 0.8435(3) -0.1439(1)
C2D C 0.1618(3) 0.7969(3) -0.1630(1)
C3D C 0.1569(3) 0.7972(3) -0.1988(1)
N1D N 0.0879(3) 0.8390(3) -0.2166(1)
C4D C 0.0223(3) 0.8857(4) -0.1982(1)
C5D C 0.0227(3) 0.8892(4) -0.1625(1)
C6G C 0.2589(3) 1.0387(3) 0.1394(1)
C7G C 0.2310(3) 1.0254(3) 0.1731(1)
C8G C 0.2801(3) 1.0683(3) 0.1995(1)
N2G N 0.3563(3) 1.1232(3) 0.1950(1)
C9G C 0.3832(4) 1.1372(3) 0.1617(1)
C10G C 0.3376(3) 1.0980(3) 0.1342(1)
S1K S -0.1007(1) 0.8428(1) 0.0314(1)
Cu1K Cu -0.0674(1) 0.6788(1) 0.0167(1)
Cu1D Cu 0.0712(1) 0.8174(1) -0.2667(1)
Cu1G Cu 0.4288(1) 1.1826(1) 0.2333(1)
N1K N -0.0890(3) 0.6621(3) -0.0334(1)
N2K N -0.1268(3) 0.6063(3) 0.0550(1)
loop_
_geom_bond_atom_site_label_1
_geom_bond_atom_site_label_2
_geom_bond_site_symmetry_1
_geom_bond_site_symmetry_2
Cu1 S1 1_555 1_555
S1 Cu1K 1_555 1_555
N1 Cu1 1_555 1_555
N2 Cu1 1_555 1_555
C1 C2 1_555 1_555
C2 C3 1_555 1_555
C3 N1 1_555 1_555
C4 N1 1_555 1_555
C5 C1 1_555 1_555
C6 C7 1_555 1_555
C7 C8 1_555 1_555
C8 N2 1_555 1_555
C9 N2 1_555 1_555
C10 C6 1_555 1_555
C1D C1 1_555 1_555
C2D C1D 1_555 1_555
C3D C2D 1_555 1_555
N1D C3D 1_555 1_555
C4D N1D 1_555 1_555
C5D C1D 1_555 1_555
C6G C6 1_555 1_555
C7G C6G 1_555 1_555
C8G C7G 1_555 1_555
N2G C8G 1_555 1_555
C9G N2G 1_555 1_555
C10G C6G 1_555 1_555
S1K Cu1 1_555 1_555
Cu1K Cu1 1_555 1_555
Cu1D N1D 1_555 1_555
Cu1G N2G 1_555 1_555
N1K Cu1K 1_555 1_555
N2K Cu1K 1_555 1_555
C4 C5 1_555 1_555
C9 C10 1_555 1_555
C4D C5D 1_555 1_555
C9G C10G 1_555 1_555
S1K Cu1K 1_555 1_555

#END
