
#######################################################################
#
#                 Cambridge Crystallographic Data Centre
#                                CCDC 
#
#######################################################################
#
# If this CIF has been generated from an entry in the Cambridge 
# Structural Database, then it will include bibliographic, chemical, 
# crystal, experimental, refinement or atomic coordinate data resulting 
# from the CCDC's data processing and validation procedures.
#
#######################################################################

data_EYUVOK
_symmetry_cell_setting           triclinic
_symmetry_space_group_name_H-M   'P -1'
_symmetry_Int_Tables_number      2
_space_group_name_Hall           '-P 1'
loop_
_symmetry_equiv_pos_site_id
_symmetry_equiv_pos_as_xyz
1 x,y,z
2 -x,-y,-z
_cell_length_a                   8.2093(16)
_cell_length_b                   11.020(2)
_cell_length_c                   11.264(2)
_cell_angle_alpha                83.30(3)
_cell_angle_beta                 85.15(3)
_cell_angle_gamma                70.74(3)
_cell_volume                     954.258
loop_
_atom_site_label
_atom_site_type_symbol
_atom_site_fract_x
_atom_site_fract_y
_atom_site_fract_z
Ni1 Ni 1.0000 0.5000 0.0000
O1 O 0.8339(3) 0.4200(2) 0.0992(2)
O2 O 0.7036(4) 0.3614(3) -0.0397(2)
O3 O 0.9236(4) 0.4585(3) -0.1574(2)
N1 N 0.8054(3) 0.6835(2) -0.0054(2)
C1 C 0.7257(4) 0.3728(3) 0.0658(3)
C2 C 0.5626(4) 0.9335(3) -0.0014(3)
C3 C 0.5814(5) 0.2525(3) 0.3843(3)
C4 C 0.8394(5) 0.1326(3) 0.2609(3)
C5 C 0.6102(4) 0.3325(3) 0.1655(3)
H1 H 0.5588 0.2754 0.1352
H2 H 0.5172 0.4087 0.1871
C6 C 0.7062(4) 0.2640(3) 0.2785(3)
H3 H 0.7695 0.3189 0.3003
C7 C 0.6928(5) 0.9024(3) -0.0894(4)
H4 H 0.7027 0.9651 -0.1498
C8 C 0.5692(6) 0.3185(4) 0.4834(4)
H5 H 0.6362 0.3720 0.4844
C9 C 0.5546(5) 0.8331(3) 0.0816(3)
H6 H 0.4669 0.8471 0.1415
C10 C 0.8086(5) 0.7786(3) -0.0884(4)
H7 H 0.8940 0.7609 -0.1496
C11 C 0.6751(5) 0.7123(3) 0.0768(3)
H8 H 0.6652 0.6469 0.1342
C12 C 0.8377(6) 0.0591(4) 0.1700(4)
H9 H 0.7546 0.0918 0.1131
C13 C 0.3681(6) 0.1638(5) 0.4844(5)
H10 H 0.2992 0.1116 0.4845
C14 C 0.9691(6) 0.0810(5) 0.3418(4)
H11 H 0.9755 0.1291 0.4028
C15 C 0.4786(6) 0.1745(4) 0.3850(4)
H12 H 0.4831 0.1293 0.3194
C16 C 0.3608(7) 0.2294(6) 0.5812(5)
H13 H 0.2881 0.2212 0.6474
C17 C 1.0838(7) -0.1128(4) 0.2436(5)
H14 H 1.1641 -0.1946 0.2380
C18 C 0.4602(7) 0.3071(6) 0.5809(4)
H15 H 0.4544 0.3525 0.6466
C19 C 1.0901(6) -0.0415(5) 0.3333(5)
H16 H 1.1751 -0.0746 0.3889
C20 C 0.9588(7) -0.0632(5) 0.1624(5)
H17 H 0.9543 -0.1116 0.1011
C21 C 0.8568(7) 0.4597(5) -0.3608(4)
H18 H 0.8449 0.5175 -0.4326
H19 H 0.7474 0.4482 -0.3366
H20 H 0.9406 0.3778 -0.3755
C22 C 0.9121(11) 0.5126(9) -0.2683(5)
H21 H 1.0254 0.5181 -0.2942
H22 H 0.8349 0.6006 -0.2654
H23 H 0.8524 0.4207 -0.1260
Ni1_2 Ni 0.0000 1.5000 0.0000
O1A O 1.1661(3) 0.5800(2) -0.0992(2)
O2A O 1.2964(4) 0.6386(3) 0.0397(2)
O3A O 1.0764(4) 0.5415(3) 0.1574(2)
N1A N 0.1946(3) 1.3165(2) 0.0054(2)
N1A_2 N 1.1946(3) 0.3165(2) 0.0054(2)
C1A C 1.2743(4) 0.6272(3) -0.0658(3)
C2A C 0.4374(4) 1.0665(3) 0.0014(3)
C3A C 1.4186(5) 0.7475(3) -0.3843(3)
C4A C 1.1606(5) 0.8674(3) -0.2609(3)
C5A C 1.3898(4) 0.6675(3) -0.1655(3)
H1A H 1.4412 0.7246 -0.1352
H2A H 1.4828 0.5913 -0.1871
C6A C 1.2938(4) 0.7360(3) -0.2785(3)
H3A H 1.2305 0.6811 -0.3003
C7A C 0.3072(5) 1.0976(3) 0.0894(4)
H4A H 0.2973 1.0349 0.1498
C8A C 1.4308(6) 0.6815(4) -0.4834(4)
H5A H 1.3638 0.6280 -0.4844
C9A C 0.4454(5) 1.1669(3) -0.0816(3)
H6A H 0.5331 1.1529 -0.1415
C10A C 0.1914(5) 1.2214(3) 0.0884(4)
H7A H 0.1060 1.2391 0.1496
C11A C 0.3249(5) 1.2877(3) -0.0768(3)
H8A H 0.3348 1.3531 -0.1342
C12A C 1.1623(6) 0.9409(4) -0.1700(4)
H9A H 1.2454 0.9082 -0.1131
C13A C 1.6319(6) 0.8362(5) -0.4844(5)
H10A H 1.7008 0.8884 -0.4845
C14A C 1.0309(6) 0.9190(5) -0.3418(4)
H11A H 1.0245 0.8709 -0.4028
C15A C 1.5214(6) 0.8255(4) -0.3850(4)
H12A H 1.5169 0.8707 -0.3194
C16A C 1.6392(7) 0.7706(6) -0.5812(5)
H13A H 1.7119 0.7788 -0.6474
C17A C 0.9162(7) 1.1128(4) -0.2436(5)
H14A H 0.8359 1.1946 -0.2380
C18A C 1.5398(7) 0.6929(6) -0.5809(4)
H15A H 1.5456 0.6475 -0.6466
C19A C 0.9099(6) 1.0415(5) -0.3333(5)
H16A H 0.8249 1.0746 -0.3889
C20A C 1.0412(7) 1.0632(5) -0.1624(5)
H17A H 1.0457 1.1116 -0.1011
C21A C 1.1432(7) 0.5403(5) 0.3608(4)
H18A H 1.1551 0.4825 0.4326
H19A H 1.2526 0.5518 0.3366
H20A H 1.0594 0.6222 0.3755
C22A C 1.0879(11) 0.4874(9) 0.2683(5)
H21A H 0.9746 0.4819 0.2942
H22A H 1.1651 0.3994 0.2654
H23A H 1.1476 0.5793 0.1260
loop_
_geom_bond_atom_site_label_1
_geom_bond_atom_site_label_2
_geom_bond_site_symmetry_1
_geom_bond_site_symmetry_2
Ni1 O1 1_555 1_555
O1 C1 1_555 1_555
O2 C1 1_555 1_555
O3 Ni1 1_555 1_555
N1 Ni1 1_555 1_555
C1 C5 1_555 1_555
C2 C7 1_555 1_555
C3 C6 1_555 1_555
C4 C6 1_555 1_555
C5 H1 1_555 1_555
H2 C5 1_555 1_555
C6 C5 1_555 1_555
H3 C6 1_555 1_555
C7 H4 1_555 1_555
C8 C3 1_555 1_555
H5 C8 1_555 1_555
C9 C2 1_555 1_555
H6 C9 1_555 1_555
C10 N1 1_555 1_555
H7 C10 1_555 1_555
C11 N1 1_555 1_555
H8 C11 1_555 1_555
C12 C4 1_555 1_555
H9 C12 1_555 1_555
C13 H10 1_555 1_555
C14 C4 1_555 1_555
H11 C14 1_555 1_555
C15 C3 1_555 1_555
H12 C15 1_555 1_555
C16 C13 1_555 1_555
H13 C16 1_555 1_555
C17 H14 1_555 1_555
C18 C8 1_555 1_555
H15 C18 1_555 1_555
C19 C14 1_555 1_555
H16 C19 1_555 1_555
C20 C12 1_555 1_555
H17 C20 1_555 1_555
C21 H18 1_555 1_555
H19 C21 1_555 1_555
H20 C21 1_555 1_555
C22 O3 1_555 1_555
H21 C22 1_555 1_555
H22 C22 1_555 1_555
H23 O3 1_555 1_555
Ni1_2 N1A 1_555 1_555
O1A Ni1 1_555 1_555
O2A C1A 1_555 1_555
O3A Ni1 1_555 1_555
N1A C10A 1_555 1_555
N1A_2 Ni1 1_555 1_555
C1A O1A 1_555 1_555
C2A C2 1_555 1_555
C3A C6A 1_555 1_555
C4A C6A 1_555 1_555
C5A C1A 1_555 1_555
H1A C5A 1_555 1_555
H2A C5A 1_555 1_555
C6A C5A 1_555 1_555
H3A C6A 1_555 1_555
C7A C2A 1_555 1_555
H4A C7A 1_555 1_555
C8A C3A 1_555 1_555
H5A C8A 1_555 1_555
C9A C2A 1_555 1_555
H6A C9A 1_555 1_555
C10A C7A 1_555 1_555
H7A C10A 1_555 1_555
C11A N1A 1_555 1_555
H8A C11A 1_555 1_555
C12A C4A 1_555 1_555
H9A C12A 1_555 1_555
C13A H10A 1_555 1_555
C14A C4A 1_555 1_555
H11A C14A 1_555 1_555
C15A C3A 1_555 1_555
H12A C15A 1_555 1_555
C16A C13A 1_555 1_555
H13A C16A 1_555 1_555
C17A H14A 1_555 1_555
C18A C8A 1_555 1_555
H15A C18A 1_555 1_555
C19A C14A 1_555 1_555
H16A C19A 1_555 1_555
C20A C12A 1_555 1_555
H17A C20A 1_555 1_555
C21A H18A 1_555 1_555
H19A C21A 1_555 1_555
H20A C21A 1_555 1_555
C22A O3A 1_555 1_555
H21A C22A 1_555 1_555
H22A C22A 1_555 1_555
H23A O3A 1_555 1_555
C7 C10 1_555 1_555
C9 C11 1_555 1_555
C13 C15 1_555 1_555
C16 C18 1_555 1_555
C17 C19 1_555 1_555
C17 C20 1_555 1_555
C21 C22 1_555 1_555
C9A C11A 1_555 1_555
C13A C15A 1_555 1_555
C16A C18A 1_555 1_555
C17A C19A 1_555 1_555
C17A C20A 1_555 1_555
C21A C22A 1_555 1_555

#END
