
#######################################################################
#
#                 Cambridge Crystallographic Data Centre
#                                CCDC 
#
#######################################################################
#
# If this CIF has been generated from an entry in the Cambridge 
# Structural Database, then it will include bibliographic, chemical, 
# crystal, experimental, refinement or atomic coordinate data resulting 
# from the CCDC's data processing and validation procedures.
#
#######################################################################

data_EYUVEZ
_symmetry_cell_setting           monoclinic
_symmetry_space_group_name_H-M   'C 2/c'
_symmetry_Int_Tables_number      15
_space_group_name_Hall           '-C 2yn'
loop_
_symmetry_equiv_pos_site_id
_symmetry_equiv_pos_as_xyz
1 x,y,z
2 -x,y,1/2-z
3 1/2+x,1/2+y,z
4 1/2-x,1/2+y,1/2-z
5 -x,-y,-z
6 x,-y,1/2+z
7 1/2-x,1/2-y,-z
8 1/2+x,1/2-y,1/2+z
_cell_length_a                   23.900(5)
_cell_length_b                   8.581(2)
_cell_length_c                   19.833(4)
_cell_angle_alpha                90
_cell_angle_beta                 106.51(3)
_cell_angle_gamma                90
_cell_volume                     3899.77
loop_
_atom_site_label
_atom_site_type_symbol
_atom_site_fract_x
_atom_site_fract_y
_atom_site_fract_z
Mn1 Mn 0.3738(1) 0.1840(1) 0.5011(1)
Mn2 Mn 0.1293(1) -0.1490(1) 0.6850(1)
N1 N 0.2858(1) 0.0479(3) 0.4673(1)
N2 N 0.4223(1) -0.0480(3) 0.5228(1)
O1 O 0.3357(1) 0.1966(3) 0.5873(1)
O2 O 0.2682(1) 0.1120(3) 0.6356(1)
O3 O 0.1399(1) 0.1033(2) 0.5568(1)
O4 O 0.1666(1) -0.1361(2) 0.5969(1)
O5 O 0.3858(1) 0.1026(1) 0.4017(1)
O6 O 0.3963(1) -0.1049(2) 0.3406(1)
O7 O 0.4631(1) -0.3827(2) 0.3679(1)
O8 O 0.5501(1) -0.2852(3) 0.4223(1)
O9 O 0.2157(1) -0.2098(3) 0.7492(1)
O10 O 0.1345(1) 0.1045(3) 0.6944(1)
O11 O 0.1036(1) -0.1791(4) 0.7816(1)
C1 C 0.2576(1) 0.0430(3) 0.5171(1)
C2 C 0.2043(1) -0.0321(5) 0.5077(1)
C3 C 0.1810(2) -0.1121(4) 0.4444(2)
C4 C 0.2109(2) -0.1114(4) 0.3943(2)
C5 C 0.2618(1) -0.0281(4) 0.4067(2)
C6 C 0.2892(1) 0.1248(3) 0.5852(1)
C7 C 0.1686(1) -0.0205(3) 0.5594(1)
C8 C 0.4349(1) -0.1131(3) 0.4669(1)
C9 C 0.4743(1) -0.2366(3) 0.4743(1)
C10 C 0.4987(1) -0.2956(4) 0.5421(2)
C11 C 0.4835(2) -0.2344(4) 0.5983(2)
C12 C 0.4457(1) -0.1090(4) 0.5869(2)
C13 C 0.4036(1) -0.0330(3) 0.3976(2)
C14 C 0.4964(1) -0.3046(3) 0.4160(2)
N1F N 0.2142(1) 0.4521(3) 0.5327(1)
O1F O 0.1643(1) 0.3034(3) 0.4127(1)
O2F O 0.2318(1) 0.3880(3) 0.3644(1)
O3F O 0.3601(1) 0.3967(2) 0.4432(1)
O4F O 0.3334(1) 0.6361(2) 0.4031(1)
C1F C 0.2424(1) 0.4570(3) 0.4829(1)
C2F C 0.2957(1) 0.5321(5) 0.4923(1)
C3F C 0.3190(2) 0.6121(4) 0.5556(2)
C4F C 0.2891(2) 0.6114(4) 0.6057(2)
C5F C 0.2382(1) 0.5281(4) 0.5933(2)
C6F C 0.2108(1) 0.3752(3) 0.4148(1)
C7F C 0.3314(1) 0.5205(3) 0.4406(1)
N2D N 0.5777(1) 0.0480(3) 0.4772(1)
O5D O 0.6142(1) -0.1026(1) 0.5983(1)
O6D O 0.6037(1) 0.1049(2) 0.6594(1)
O7D O 0.5369(1) 0.3827(2) 0.6321(1)
O8D O 0.4499(1) 0.2852(3) 0.5777(1)
C8D C 0.5651(1) 0.1131(3) 0.5331(1)
C9D C 0.5257(1) 0.2366(3) 0.5257(1)
C10D C 0.5013(1) 0.2956(4) 0.4579(2)
C11D C 0.5165(2) 0.2344(4) 0.4017(2)
C12D C 0.5543(1) 0.1090(4) 0.4131(2)
C13D C 0.5964(1) 0.0330(3) 0.6024(2)
C14D C 0.5036(1) 0.3046(3) 0.5840(2)
Mn1F Mn 0.1262(1) 0.3160(1) 0.4989(1)
Mn2F Mn 0.3707(1) 0.6490(1) 0.3150(1)
O9F O 0.2843(1) 0.7098(3) 0.2508(1)
O10F O 0.3655(1) 0.3955(3) 0.3056(1)
O11F O 0.3964(1) 0.6791(4) 0.2184(1)
O6F O 0.1037(1) -0.3951(2) 0.6594(1)
O7F O 0.0369(1) -0.1173(2) 0.6321(1)
Mn2F_2 Mn 0.3707(1) -0.3510(1) 0.3150(1)
Mn1D Mn 0.6262(1) -0.1840(1) 0.4989(1)
Mn2B Mn 0.6293(1) 0.3510(1) 0.6850(1)
N2F N 0.0777(1) 0.5480(3) 0.4772(1)
O5F O 0.1142(1) 0.3974(1) 0.5983(1)
O8B O 0.0501(1) 0.2148(3) 0.4223(1)
O6_2 O 0.3963(1) 0.8951(2) 0.3406(1)
O7_2 O 0.4631(1) 0.6173(2) 0.3679(1)
O12 O 0.0000 -0.3886(6) 0.7500
O13 O 0.0000 0.0227(5) 0.7500
O14 O 0.3252(1) -0.1059(3) 0.7375(1)
loop_
_geom_bond_atom_site_label_1
_geom_bond_atom_site_label_2
_geom_bond_site_symmetry_1
_geom_bond_site_symmetry_2
Mn1 N1 1_555 1_555
Mn2 O4 1_555 1_555
N1 C1 1_555 1_555
N2 Mn1 1_555 1_555
O1 Mn1 1_555 1_555
O2 C6 1_555 1_555
O3 C7 1_555 1_555
O4 C7 1_555 1_555
O5 Mn1 1_555 1_555
O6 C13 1_555 1_555
O7 C14 1_555 1_555
O8 C14 1_555 1_555
O9 Mn2 1_555 1_555
O10 Mn2 1_555 1_555
O11 Mn2 1_555 1_555
C1 C2 1_555 1_555
C2 C3 1_555 1_555
C3 C4 1_555 1_555
C4 C5 1_555 1_555
C5 N1 1_555 1_555
C6 O1 1_555 1_555
C7 C2 1_555 1_555
C8 N2 1_555 1_555
C9 C8 1_555 1_555
C10 C9 1_555 1_555
C11 C10 1_555 1_555
C12 N2 1_555 1_555
C13 O5 1_555 1_555
C14 C9 1_555 1_555
N1F C1F 1_555 1_555
O1F C6F 1_555 1_555
O2F C6F 1_555 1_555
O3F Mn1 1_555 1_555
O4F C7F 1_555 1_555
C1F C2F 1_555 1_555
C2F C3F 1_555 1_555
C3F C4F 1_555 1_555
C4F C5F 1_555 1_555
C5F N1F 1_555 1_555
C6F C1F 1_555 1_555
C7F O3F 1_555 1_555
N2D C8D 1_555 1_555
O5D C13D 1_555 1_555
O6D C13D 1_555 1_555
O7D C14D 1_555 1_555
O8D Mn1 1_555 1_555
C8D C9D 1_555 1_555
C9D C10D 1_555 1_555
C10D C11D 1_555 1_555
C11D C12D 1_555 1_555
C12D N2D 1_555 1_555
C13D C8D 1_555 1_555
C14D O8D 1_555 1_555
Mn1F O3 1_555 1_555
Mn2F O4F 1_555 1_555
O9F Mn2F 1_555 1_555
O10F Mn2F 1_555 1_555
O11F Mn2F 1_555 1_555
O6F Mn2 1_555 1_555
O7F Mn2 1_555 1_555
Mn2F_2 O6 1_555 1_555
Mn1D O8 1_555 1_555
Mn2B O6D 1_555 1_555
N2F Mn1F 1_555 1_555
O5F Mn1F 1_555 1_555
O8B Mn1F 1_555 1_555
O6_2 Mn2F 1_555 1_555
O7_2 Mn2F 1_555 1_555
O7 Mn2F_2 1_555 1_555
C1 C6 1_555 1_555
C8 C13 1_555 1_555
C11 C12 1_555 1_555
N1F Mn1F 1_555 1_555
O1F Mn1F 1_555 1_555
C2F C7F 1_555 1_555
N2D Mn1D 1_555 1_555
O5D Mn1D 1_555 1_555
O7D Mn2B 1_555 1_555
C9D C14D 1_555 1_555

#END
