
#######################################################################
#
#                 Cambridge Crystallographic Data Centre
#                                CCDC 
#
#######################################################################
#
# If this CIF has been generated from an entry in the Cambridge 
# Structural Database, then it will include bibliographic, chemical, 
# crystal, experimental, refinement or atomic coordinate data resulting 
# from the CCDC's data processing and validation procedures.
#
#######################################################################

data_EYUVEA
_symmetry_cell_setting           triclinic
_symmetry_space_group_name_H-M   'P -1'
_symmetry_Int_Tables_number      2
_space_group_name_Hall           '-P 1'
loop_
_symmetry_equiv_pos_site_id
_symmetry_equiv_pos_as_xyz
1 x,y,z
2 -x,-y,-z
_cell_length_a                   8.6975(17)
_cell_length_b                   10.961(2)
_cell_length_c                   11.011(2)
_cell_angle_alpha                81.72(3)
_cell_angle_beta                 69.64(3)
_cell_angle_gamma                77.72(3)
_cell_volume                     958.804
loop_
_atom_site_label
_atom_site_type_symbol
_atom_site_fract_x
_atom_site_fract_y
_atom_site_fract_z
Zn1 Zn 1.0000 0.0000 0.5000
O1 O 0.7208(2) -0.00610(14) 0.34972(17)
O2 O 0.83096(15) 0.12020(12) 0.42410(12)
O3 O 1.06162(17) 0.15639(12) 0.55871(13)
N1 N 0.80871(18) -0.00676(14) 0.68817(14)
C1 C 0.7334(2) 0.09925(19) 0.37038(18)
C2 C 0.6207(3) 0.2123(2) 0.3322(2)
H1 H 0.5236 0.2335 0.4076
H2 H 0.5824 0.1900 0.2668
C3 C 0.7027(3) 0.32843(19) 0.2790(2)
H3 H 0.7455 0.3458 0.3449
C4 C 0.5730(3) 0.4421(2) 0.2640(2)
C5 C 0.5437(3) 0.5438(2) 0.3331(3)
H4 H 0.6063 0.5438 0.3865
C6 C 0.4224(4) 0.6467(2) 0.3251(3)
H5 H 0.4041 0.7144 0.3736
C7 C 0.3303(4) 0.6494(2) 0.2472(3)
H6 H 0.2497 0.7188 0.2414
C8 C 0.3570(4) 0.5495(3) 0.1775(3)
H7 H 0.2943 0.5505 0.1239
C9 C 0.4775(3) 0.4460(2) 0.1860(3)
H8 H 0.4941 0.3781 0.1384
C10 C 0.8502(3) 0.30917(19) 0.1552(2)
C11 C 0.8511(3) 0.2463(2) 0.0551(2)
H9 H 0.7591 0.2110 0.0642
C12 C 0.9857(4) 0.2345(3) -0.0587(3)
H10 H 0.9833 0.1919 -0.1250
C13 C 1.1215(4) 0.2853(3) -0.0732(3)
H11 H 1.2115 0.2782 -0.1499
C14 C 1.1253(4) 0.3464(3) 0.0243(3)
H12 H 1.2187 0.3804 0.0145
C15 C 0.9906(3) 0.3586(3) 0.1386(3)
H13 H 0.9949 0.4004 0.2047
C16 C 0.8475(2) -0.0145(2) 0.79646(18)
H14 H 0.9590 -0.0223 0.7886
C17 C 0.7319(2) -0.0116(2) 0.91868(18)
H15 H 0.7658 -0.0166 0.9908
C18 C 0.5643(2) -0.00112(17) 0.93464(16)
C19 C 0.5241(2) 0.00797(19) 0.82193(18)
H16 H 0.4134 0.0164 0.8269
C20 C 0.6472(2) 0.00457(19) 0.70316(18)
H17 H 0.6167 0.0105 0.6292
C21 C 1.1447(4) 0.3558(2) 0.5463(3)
H18 H 1.1684 0.4295 0.4895
H19 H 1.2415 0.3159 0.5690
H20 H 1.0539 0.3788 0.6236
C22 C 1.0988(3) 0.2680(2) 0.4795(2)
H21 H 1.0024 0.3093 0.4549
H22 H 1.1901 0.2463 0.4006
H23 H 1.1454 0.1255 0.5842
Zn1_2 Zn 0.0000 0.0000 1.5000
O1A O 1.2792(2) 0.00610(14) 0.65028(17)
O2A O 1.16904(15) -0.12020(12) 0.57590(12)
O3A O 0.93838(17) -0.15639(12) 0.44129(13)
N1A N 0.19129(18) 0.00676(14) 1.31183(14)
N1A_2 N 1.19129(18) 0.00676(14) 0.31183(14)
C1A C 1.2666(2) -0.09925(19) 0.62962(18)
C2A C 1.3793(3) -0.2123(2) 0.6678(2)
H1A H 1.4764 -0.2335 0.5924
H2A H 1.4176 -0.1900 0.7332
C3A C 1.2973(3) -0.32843(19) 0.7210(2)
H3A H 1.2545 -0.3458 0.6551
C4A C 1.4270(3) -0.4421(2) 0.7360(2)
C5A C 1.4563(3) -0.5438(2) 0.6669(3)
H4A H 1.3937 -0.5438 0.6135
C6A C 1.5776(4) -0.6467(2) 0.6749(3)
H5A H 1.5959 -0.7144 0.6264
C7A C 1.6697(4) -0.6494(2) 0.7528(3)
H6A H 1.7503 -0.7188 0.7586
C8A C 1.6430(4) -0.5495(3) 0.8225(3)
H7A H 1.7057 -0.5505 0.8761
C9A C 1.5225(3) -0.4460(2) 0.8140(3)
H8A H 1.5059 -0.3781 0.8616
C10A C 1.1498(3) -0.30917(19) 0.8448(2)
C11A C 1.1489(3) -0.2463(2) 0.9449(2)
H9A H 1.2409 -0.2110 0.9358
C12A C 1.0143(4) -0.2345(3) 1.0587(3)
H10A H 1.0167 -0.1919 1.1250
C13A C 0.8785(4) -0.2853(3) 1.0732(3)
H11A H 0.7885 -0.2782 1.1499
C14A C 0.8747(4) -0.3464(3) 0.9757(3)
H12A H 0.7813 -0.3804 0.9855
C15A C 1.0094(3) -0.3586(3) 0.8614(3)
H13A H 1.0051 -0.4004 0.7953
C16A C 0.1525(2) 0.0145(2) 1.20354(18)
H14A H 0.0410 0.0223 1.2114
C17A C 0.2681(2) 0.0116(2) 1.08132(18)
H15A H 0.2342 0.0166 1.0092
C18A C 0.4357(2) 0.00112(17) 1.06536(16)
C19A C 0.4759(2) -0.00797(19) 1.17807(18)
H16A H 0.5866 -0.0164 1.1731
C20A C 0.3528(2) -0.00457(19) 1.29684(18)
H17A H 0.3833 -0.0105 1.3708
C21A C 0.8553(4) -0.3558(2) 0.4537(3)
H18A H 0.8316 -0.4295 0.5105
H19A H 0.7585 -0.3159 0.4310
H20A H 0.9461 -0.3788 0.3764
C22A C 0.9012(3) -0.2680(2) 0.5205(2)
H21A H 0.9976 -0.3093 0.5451
H22A H 0.8099 -0.2463 0.5994
H23A H 0.8546 -0.1255 0.4158
loop_
_geom_bond_atom_site_label_1
_geom_bond_atom_site_label_2
_geom_bond_site_symmetry_1
_geom_bond_site_symmetry_2
Zn1 O2 1_555 1_555
O1 C1 1_555 1_555
O2 C1 1_555 1_555
O3 Zn1 1_555 1_555
N1 Zn1 1_555 1_555
C1 C2 1_555 1_555
C2 H1 1_555 1_555
H2 C2 1_555 1_555
C3 C2 1_555 1_555
H3 C3 1_555 1_555
C4 C3 1_555 1_555
C5 C4 1_555 1_555
H4 C5 1_555 1_555
C6 C5 1_555 1_555
H5 C6 1_555 1_555
C7 C6 1_555 1_555
H6 C7 1_555 1_555
C8 C7 1_555 1_555
H7 C8 1_555 1_555
C9 C4 1_555 1_555
H8 C9 1_555 1_555
C10 C3 1_555 1_555
C11 C10 1_555 1_555
H9 C11 1_555 1_555
C12 C11 1_555 1_555
H10 C12 1_555 1_555
C13 C12 1_555 1_555
H11 C13 1_555 1_555
C14 C13 1_555 1_555
H12 C14 1_555 1_555
C15 C10 1_555 1_555
H13 C15 1_555 1_555
C16 N1 1_555 1_555
H14 C16 1_555 1_555
C17 C16 1_555 1_555
H15 C17 1_555 1_555
C18 C17 1_555 1_555
C19 C18 1_555 1_555
H16 C19 1_555 1_555
C20 N1 1_555 1_555
H17 C20 1_555 1_555
C21 H18 1_555 1_555
H19 C21 1_555 1_555
H20 C21 1_555 1_555
C22 O3 1_555 1_555
H21 C22 1_555 1_555
H22 C22 1_555 1_555
H23 O3 1_555 1_555
Zn1_2 N1A 1_555 1_555
O1A C1A 1_555 1_555
O2A Zn1 1_555 1_555
O3A Zn1 1_555 1_555
N1A C16A 1_555 1_555
N1A_2 Zn1 1_555 1_555
C1A O2A 1_555 1_555
C2A C1A 1_555 1_555
H1A C2A 1_555 1_555
H2A C2A 1_555 1_555
C3A C2A 1_555 1_555
H3A C3A 1_555 1_555
C4A C3A 1_555 1_555
C5A C4A 1_555 1_555
H4A C5A 1_555 1_555
C6A C5A 1_555 1_555
H5A C6A 1_555 1_555
C7A C6A 1_555 1_555
H6A C7A 1_555 1_555
C8A C7A 1_555 1_555
H7A C8A 1_555 1_555
C9A C4A 1_555 1_555
H8A C9A 1_555 1_555
C10A C3A 1_555 1_555
C11A C10A 1_555 1_555
H9A C11A 1_555 1_555
C12A C11A 1_555 1_555
H10A C12A 1_555 1_555
C13A C12A 1_555 1_555
H11A C13A 1_555 1_555
C14A C13A 1_555 1_555
H12A C14A 1_555 1_555
C15A C10A 1_555 1_555
H13A C15A 1_555 1_555
C16A H14A 1_555 1_555
C17A C16A 1_555 1_555
H15A C17A 1_555 1_555
C18A C18 1_555 1_555
C19A C18A 1_555 1_555
H16A C19A 1_555 1_555
C20A N1A 1_555 1_555
H17A C20A 1_555 1_555
C21A H18A 1_555 1_555
H19A C21A 1_555 1_555
H20A C21A 1_555 1_555
C22A O3A 1_555 1_555
H21A C22A 1_555 1_555
H22A C22A 1_555 1_555
H23A O3A 1_555 1_555
C8 C9 1_555 1_555
C14 C15 1_555 1_555
C19 C20 1_555 1_555
C21 C22 1_555 1_555
C8A C9A 1_555 1_555
C14A C15A 1_555 1_555
C17A C18A 1_555 1_555
C19A C20A 1_555 1_555
C21A C22A 1_555 1_555

#END
