
#######################################################################
#
#                 Cambridge Crystallographic Data Centre
#                                CCDC 
#
#######################################################################
#
# If this CIF has been generated from an entry in the Cambridge 
# Structural Database, then it will include bibliographic, chemical, 
# crystal, experimental, refinement or atomic coordinate data resulting 
# from the CCDC's data processing and validation procedures.
#
#######################################################################

data_EYUVAW
_symmetry_cell_setting           triclinic
_symmetry_space_group_name_H-M   'P -1'
_symmetry_Int_Tables_number      2
_space_group_name_Hall           '-P 1'
loop_
_symmetry_equiv_pos_site_id
_symmetry_equiv_pos_as_xyz
1 x,y,z
2 -x,-y,-z
_cell_length_a                   8.5068(11)
_cell_length_b                   11.8200(14)
_cell_length_c                   15.1764(18)
_cell_angle_alpha                68.027(2)
_cell_angle_beta                 80.182(2)
_cell_angle_gamma                82.745(2)
_cell_volume                     1391.16
loop_
_atom_site_label
_atom_site_type_symbol
_atom_site_fract_x
_atom_site_fract_y
_atom_site_fract_z
Mn1 Mn 0.95657(5) 0.02151(4) 0.22238(3)
O1 O 1.1622(2) -0.04651(17) 0.11318(14)
O2 O 1.1121(2) -0.15342(18) 0.26582(14)
N1 N 1.2512(3) 0.3537(2) 0.43992(17)
O3 O 1.7454(3) -0.1000(2) 0.27682(15)
O4 O 1.8215(2) -0.03962(19) 0.12403(15)
N2 N 1.0307(3) 0.2889(2) 0.54161(15)
H1 H 0.9573 0.2791 0.5900
F1 F 1.2709(3) 0.6406(2) 0.72004(16)
C1 C 1.1839(3) 0.4319(2) 0.5731(2)
N3 N 0.8822(3) 0.0597(2) 0.35942(16)
C2 C 1.6249(3) -0.1880(2) 0.18743(19)
H2 H 1.6904 -0.2603 0.1824
C3 C 1.3367(4) 0.5812(3) 0.5869(2)
H3 H 1.4197 0.6333 0.5635
O5 O 1.0111(3) -0.18727(17) 0.01721(14)
O6 O 1.0950(3) -0.19886(17) -0.12710(15)
C4 C 0.9773(3) 0.1287(2) 0.38009(19)
N4 N 1.1649(3) 0.1167(2) 0.24589(17)
C5 C 1.1773(3) 0.2782(3) 0.4117(2)
C6 C 0.7925(3) 0.1236(3) 0.5215(2)
H4 H 0.7619 0.1442 0.5757
C7 C 1.2277(3) 0.2381(3) 0.3322(2)
C8 C 0.9344(3) 0.1628(2) 0.46134(19)
C9 C 1.1859(3) -0.1428(2) 0.1847(2)
C10 C 1.3022(3) -0.2464(2) 0.1727(2)
H5 H 1.2397 -0.3053 0.1647
C11 C 1.1191(4) 0.4957(3) 0.7081(2)
H6 H 1.0555 0.4926 0.7652
C12 C 1.1265(3) 0.1629(2) 0.31704(19)
C13 C 1.4283(3) -0.2055(3) 0.0844(2)
H7 H 1.4845 -0.2771 0.0740
H8 H 1.3757 -0.1586 0.0286
C14 C 1.0416(3) 0.2380(2) 0.47326(19)
C15 C 1.3046(3) 0.5117(3) 0.5371(2)
H9 H 1.3653 0.5188 0.4784
C16 C 1.1581(3) 0.3580(3) 0.5183(2)
C17 C 0.6998(4) 0.0547(3) 0.4993(2)
H10 H 0.6046 0.0281 0.5382
C18 C 0.7483(3) 0.0242(3) 0.4180(2)
H11 H 0.6838 -0.0233 0.4042
C19 C 1.7361(3) -0.1044(2) 0.1971(2)
C20 C 1.4984(3) -0.2327(3) 0.2744(2)
H12 H 1.4378 -0.1627 0.2851
H13 H 1.5507 -0.2785 0.3305
C21 C 1.3838(4) -0.3136(3) 0.2622(2)
H14 H 1.3033 -0.3374 0.3182
H15 H 1.4424 -0.3873 0.2572
C22 C 1.3736(4) 0.2626(3) 0.2718(2)
H16 H 1.4436 0.3114 0.2797
C23 C 1.5490(3) -0.1278(3) 0.09515(19)
H17 H 1.6328 -0.1119 0.0408
H18 H 1.4958 -0.0498 0.0939
C24 C 1.0907(4) 0.4244(3) 0.6589(2)
H19 H 1.0088 0.3714 0.6835
C25 C 1.4127(4) 0.2144(4) 0.2011(3)
H20 H 1.5094 0.2291 0.1609
C26 C 0.8708(5) -0.4081(3) -0.0055(4)
H21 H 0.7908 -0.3656 0.0268
H22 H 0.8574 -0.3763 -0.0728
C27 C 1.0313(5) -0.3828(3) 0.0042(2)
H23 H 1.0387 -0.4098 0.0729
C28 C 1.2427(4) 0.5709(3) 0.6713(2)
C29 C 1.3037(4) 0.1425(3) 0.1908(2)
H24 H 1.3305 0.1107 0.1422
C30 C 1.0479(4) -0.2449(2) -0.0386(2)
Mn2 Mn 1.0000 0.0000 0.0000
C31 C 1.1572(5) -0.4542(3) -0.0369(4)
H25 H 1.2605 -0.4423 -0.0241
H26 H 1.1587 -0.4246 -0.1059
Mn1_2 Mn -0.04343(5) 0.02151(4) 0.22238(3)
Mn1_3 Mn 1.95657(5) 0.02151(4) 0.22238(3)
Mn1A Mn 1.04343(5) -0.02151(4) -0.22238(3)
Mn1_4 Mn 0.95657(5) -0.97849(4) 0.22238(3)
O1_2 O 0.1622(2) -0.04651(17) 0.11318(14)
O1A O 0.8378(2) 0.04651(17) -0.11318(14)
O2_2 O 0.1121(2) -0.15342(18) 0.26582(14)
N1_2 N 0.2512(3) 0.3537(2) 0.43992(17)
O3_2 O 0.7454(3) -0.1000(2) 0.27682(15)
O3_3 O -0.2546(3) -0.1000(2) 0.27682(15)
O4_2 O 0.8215(2) -0.03962(19) 0.12403(15)
O4A O 1.1785(2) 0.03962(19) -0.12403(15)
O4_3 O -0.1785(2) -0.03962(19) 0.12403(15)
N2_2 N 0.0307(3) 0.2889(2) 0.54161(15)
H1_2 H -0.0427 0.2791 0.5900
F1_2 F 0.2709(3) 0.6406(2) 0.72004(16)
C1_2 C 0.1839(3) 0.4319(2) 0.5731(2)
N3_2 N -0.1178(3) 0.0597(2) 0.35942(16)
C2_2 C 0.6249(3) -0.1880(2) 0.18743(19)
H2_2 H 0.6904 -0.2603 0.1824
C3_2 C 0.3367(4) 0.5812(3) 0.5869(2)
H3_2 H 0.4197 0.6333 0.5635
O5A O 0.9889(3) -0.81273(17) -0.01721(14)
O5A_2 O 0.9889(3) 0.18727(17) -0.01721(14)
O6A O 0.9050(3) -0.80114(17) 0.12710(15)
O6A_2 O 0.9050(3) 0.19886(17) 0.12710(15)
O6A_3 O -0.0950(3) 0.19886(17) 0.12710(15)
C4_2 C -0.0227(3) 0.1287(2) 0.38009(19)
N4_2 N 0.1649(3) 0.1167(2) 0.24589(17)
C5_2 C 0.1773(3) 0.2782(3) 0.4117(2)
C6_2 C -0.2075(3) 0.1236(3) 0.5215(2)
H4_2 H -0.2381 0.1442 0.5757
C7_2 C 0.2277(3) 0.2381(3) 0.3322(2)
C8_2 C -0.0656(3) 0.1628(2) 0.46134(19)
C9_2 C 0.1859(3) -0.1428(2) 0.1847(2)
C10_2 C 0.3022(3) -0.2464(2) 0.1727(2)
H5_2 H 0.2397 -0.3053 0.1647
C11_2 C 0.1191(4) 0.4957(3) 0.7081(2)
H6_2 H 0.0555 0.4926 0.7652
C12_2 C 0.1265(3) 0.1629(2) 0.31704(19)
C13_2 C 0.4283(3) -0.2055(3) 0.0844(2)
H7_2 H 0.4845 -0.2771 0.0740
H8_2 H 0.3757 -0.1586 0.0286
C14_2 C 0.0416(3) 0.2380(2) 0.47326(19)
C15_2 C 0.3046(3) 0.5117(3) 0.5371(2)
H9_2 H 0.3653 0.5188 0.4784
C16_2 C 0.1581(3) 0.3580(3) 0.5183(2)
C17_2 C -0.3002(4) 0.0547(3) 0.4993(2)
H10_2 H -0.3954 0.0281 0.5382
C18_2 C -0.2517(3) 0.0242(3) 0.4180(2)
H11_2 H -0.3162 -0.0233 0.4042
C19_2 C 0.7361(3) -0.1044(2) 0.1971(2)
C20_2 C 0.4984(3) -0.2327(3) 0.2744(2)
H12_2 H 0.4378 -0.1627 0.2851
H13_2 H 0.5507 -0.2785 0.3305
C21_2 C 0.3838(4) -0.3136(3) 0.2622(2)
H14_2 H 0.3033 -0.3374 0.3182
H15_2 H 0.4424 -0.3873 0.2572
C22_2 C 0.3736(4) 0.2626(3) 0.2718(2)
H16_2 H 0.4436 0.3114 0.2797
C23_2 C 0.5490(3) -0.1278(3) 0.09515(19)
H17_2 H 0.6328 -0.1119 0.0408
H18_2 H 0.4958 -0.0498 0.0939
C24_2 C 0.0907(4) 0.4244(3) 0.6589(2)
H19_2 H 0.0088 0.3714 0.6835
C25_2 C 0.4127(4) 0.2144(4) 0.2011(3)
H20_2 H 0.5094 0.2291 0.1609
C26A C 1.1292(5) -0.5919(3) 0.0055(4)
H21A H 1.2092 -0.6344 -0.0268
H22A H 1.1426 -0.6237 0.0728
C27A C 0.9687(5) -0.6172(3) -0.0042(2)
H23A H 0.9613 -0.5902 -0.0729
C28_2 C 0.2427(4) 0.5709(3) 0.6713(2)
C29_2 C 0.3037(4) 0.1425(3) 0.1908(2)
H24_2 H 0.3305 0.1107 0.1422
C30A C 0.9521(4) -0.7551(2) 0.0386(2)
Mn2_2 Mn 2.0000 0.0000 0.0000
Mn2_3 Mn 1.0000 -1.0000 0.0000
Mn2_4 Mn 0.0000 0.0000 0.0000
C31A C 0.8428(5) -0.5458(3) 0.0369(4)
H25A H 0.7395 -0.5577 0.0241
H26A H 0.8413 -0.5754 0.1059
loop_
_geom_bond_atom_site_label_1
_geom_bond_atom_site_label_2
_geom_bond_site_symmetry_1
_geom_bond_site_symmetry_2
Mn1 O1 1_555 1_555
O1 C9 1_555 1_555
O2 Mn1 1_555 1_555
N1 C5 1_555 1_555
O3 C19 1_555 1_555
O4 C19 1_555 1_555
N2 H1 1_555 1_555
F1 C28 1_555 1_555
C1 C15 1_555 1_555
N3 Mn1 1_555 1_555
C2 H2 1_555 1_555
C3 H3 1_555 1_555
O5 C30 1_555 1_555
O6 C30 1_555 1_555
C4 N3 1_555 1_555
N4 Mn1 1_555 1_555
C5 C7 1_555 1_555
C6 H4 1_555 1_555
C7 C12 1_555 1_555
C8 C4 1_555 1_555
C9 O2 1_555 1_555
C10 C9 1_555 1_555
H5 C10 1_555 1_555
C11 H6 1_555 1_555
C12 C4 1_555 1_555
C13 C10 1_555 1_555
H7 C13 1_555 1_555
H8 C13 1_555 1_555
C14 N2 1_555 1_555
C15 C3 1_555 1_555
H9 C15 1_555 1_555
C16 N1 1_555 1_555
C17 C6 1_555 1_555
H10 C17 1_555 1_555
C18 N3 1_555 1_555
H11 C18 1_555 1_555
C19 C2 1_555 1_555
C20 C2 1_555 1_555
H12 C20 1_555 1_555
H13 C20 1_555 1_555
C21 C10 1_555 1_555
H14 C21 1_555 1_555
H15 C21 1_555 1_555
C22 C7 1_555 1_555
H16 C22 1_555 1_555
C23 C2 1_555 1_555
H17 C23 1_555 1_555
H18 C23 1_555 1_555
C24 C1 1_555 1_555
H19 C24 1_555 1_555
C25 C22 1_555 1_555
H20 C25 1_555 1_555
C26 H21 1_555 1_555
H22 C26 1_555 1_555
C27 C26 1_555 1_555
H23 C27 1_555 1_555
C28 C3 1_555 1_555
C29 N4 1_555 1_555
H24 C29 1_555 1_555
C30 C27 1_555 1_555
Mn2 O1 1_555 1_555
C31 C27 1_555 1_555
H25 C31 1_555 1_555
H26 C31 1_555 1_555
Mn1_2 O1_2 1_555 1_555
Mn1_3 O3 1_555 1_555
Mn1A O6 1_555 1_555
Mn1_4 O6A 1_555 1_555
O1_2 C9_2 1_555 1_555
O1A Mn2 1_555 1_555
O2_2 Mn1_2 1_555 1_555
N1_2 C5_2 1_555 1_555
O3_2 Mn1 1_555 1_555
O3_3 Mn1_2 1_555 1_555
O4_2 Mn1 1_555 1_555
O4A Mn2 1_555 1_555
O4_3 Mn1_2 1_555 1_555
N2_2 H1_2 1_555 1_555
F1_2 C28_2 1_555 1_555
C1_2 C15_2 1_555 1_555
N3_2 Mn1_2 1_555 1_555
C2_2 H2_2 1_555 1_555
C3_2 H3_2 1_555 1_555
O5A C30A 1_555 1_555
O5A_2 Mn2 1_555 1_555
O6A C30A 1_555 1_555
O6A_2 Mn1 1_555 1_555
O6A_3 Mn1_2 1_555 1_555
C4_2 N3_2 1_555 1_555
N4_2 Mn1_2 1_555 1_555
C5_2 C7_2 1_555 1_555
C6_2 H4_2 1_555 1_555
C7_2 C12_2 1_555 1_555
C8_2 C4_2 1_555 1_555
C9_2 O2_2 1_555 1_555
C10_2 C9_2 1_555 1_555
H5_2 C10_2 1_555 1_555
C11_2 H6_2 1_555 1_555
C12_2 C4_2 1_555 1_555
C13_2 C10_2 1_555 1_555
H7_2 C13_2 1_555 1_555
H8_2 C13_2 1_555 1_555
C14_2 N2_2 1_555 1_555
C15_2 C3_2 1_555 1_555
H9_2 C15_2 1_555 1_555
C16_2 N1_2 1_555 1_555
C17_2 C6_2 1_555 1_555
H10_2 C17_2 1_555 1_555
C18_2 N3_2 1_555 1_555
H11_2 C18_2 1_555 1_555
C19_2 O3_2 1_555 1_555
C20_2 C2_2 1_555 1_555
H12_2 C20_2 1_555 1_555
H13_2 C20_2 1_555 1_555
C21_2 C10_2 1_555 1_555
H14_2 C21_2 1_555 1_555
H15_2 C21_2 1_555 1_555
C22_2 C7_2 1_555 1_555
H16_2 C22_2 1_555 1_555
C23_2 C2_2 1_555 1_555
H17_2 C23_2 1_555 1_555
H18_2 C23_2 1_555 1_555
C24_2 C1_2 1_555 1_555
H19_2 C24_2 1_555 1_555
C25_2 C22_2 1_555 1_555
H20_2 C25_2 1_555 1_555
C26A C31 1_555 1_555
H21A C26A 1_555 1_555
H22A C26A 1_555 1_555
C27A C26A 1_555 1_555
H23A C27A 1_555 1_555
C28_2 C3_2 1_555 1_555
C29_2 N4_2 1_555 1_555
H24_2 C29_2 1_555 1_555
C30A C27A 1_555 1_555
Mn2_2 O4 1_555 1_555
Mn2_3 O5A 1_555 1_555
Mn2_4 O1_2 1_555 1_555
C31A C26 1_555 1_555
H25A C31A 1_555 1_555
H26A C31A 1_555 1_555
O4 Mn1_3 1_555 1_555
N2 C16 1_555 1_555
C1 C16 1_555 1_555
O5 Mn2 1_555 1_555
N4 C12 1_555 1_555
C5 C14 1_555 1_555
C6 C8 1_555 1_555
C8 C14 1_555 1_555
C11 C24 1_555 1_555
C11 C28 1_555 1_555
C13 C23 1_555 1_555
C17 C18 1_555 1_555
C20 C21 1_555 1_555
C25 C29 1_555 1_555
Mn2 O4_2 1_555 1_555
Mn1A O1A 1_555 1_555
Mn1A O4A 1_555 1_555
O4_2 C19_2 1_555 1_555
O4_3 Mn2_4 1_555 1_555
N2_2 C16_2 1_555 1_555
C1_2 C16_2 1_555 1_555
C2_2 C19_2 1_555 1_555
N4_2 C12_2 1_555 1_555
C5_2 C14_2 1_555 1_555
C6_2 C8_2 1_555 1_555
C8_2 C14_2 1_555 1_555
C11_2 C24_2 1_555 1_555
C11_2 C28_2 1_555 1_555
C13_2 C23_2 1_555 1_555
C17_2 C18_2 1_555 1_555
C20_2 C21_2 1_555 1_555
C25_2 C29_2 1_555 1_555
C27A C31A 1_555 1_555

#END
