
#######################################################################
#
#                 Cambridge Crystallographic Data Centre
#                                CCDC 
#
#######################################################################
#
# If this CIF has been generated from an entry in the Cambridge 
# Structural Database, then it will include bibliographic, chemical, 
# crystal, experimental, refinement or atomic coordinate data resulting 
# from the CCDC's data processing and validation procedures.
#
#######################################################################

data_EYUWAW
_symmetry_cell_setting           orthorhombic
_symmetry_space_group_name_H-M   'P b c a'
_symmetry_Int_Tables_number      61
_space_group_name_Hall           '-P 2ac 2ab'
loop_
_symmetry_equiv_pos_site_id
_symmetry_equiv_pos_as_xyz
1 x,y,z
2 1/2-x,-y,1/2+z
3 1/2+x,1/2-y,-z
4 -x,1/2+y,1/2-z
5 -x,-y,-z
6 1/2+x,y,1/2-z
7 1/2-x,1/2+y,z
8 x,1/2-y,1/2+z
_cell_length_a                   18.334(2)
_cell_length_b                   16.046(17)
_cell_length_c                   23.706(3)
_cell_angle_alpha                90
_cell_angle_beta                 90
_cell_angle_gamma                90
_cell_volume                     6974.01
loop_
_atom_site_label
_atom_site_type_symbol
_atom_site_fract_x
_atom_site_fract_y
_atom_site_fract_z
Mn1 Mn 0.1770(1) 0.8146(1) 0.4019(1)
Mn2 Mn 0.2949(1) 1.0013(1) 0.4190(1)
O1 O 0.2236(1) 0.9927(1) 0.3484(1)
O2 O 0.1907(1) 0.8661(1) 0.3202(1)
O3 O 0.2874(1) 0.7660(1) 0.3924(1)
O4 O 0.3474(1) 0.8856(1) 0.4011(1)
O5 O 0.2252(1) 1.1066(1) 0.4413(1)
O6 O 0.0732(1) 0.8837(1) 0.4062(1)
O7 O 0.3664(1) 1.0277(1) 0.4909(1)
O8 O 0.3258(1) 1.2001(1) -0.0051(1)
O9 O 0.2819(1) 1.0791(1) -0.0315(1)
O10 O 0.6247(1) 0.5615(1) 0.1347(1)
O11 O 0.6370(1) 0.6961(1) 0.1166(1)
N1 N 0.0103(1) 1.0038(1) 0.4152(1)
N2 N 0.4403(1) 1.1110(1) 0.5418(1)
C1 C 0.2530(1) 1.0397(1) 0.2377(1)
C2 C 0.2215(1) 0.9649(1) 0.2503(1)
C3 C 0.2004(1) 0.9105(1) 0.2068(1)
C4 C 0.2111(1) 0.9322(1) 0.1517(1)
C5 C 0.2566(1) 1.0324(1) 0.0808(1)
C6 C 0.2868(1) 1.1072(1) 0.0673(1)
C7 C 0.3075(1) 1.1623(1) 0.1109(1)
C8 C 0.2978(1) 1.1406(2) 0.1661(1)
C9 C 0.2651(1) 1.0639(1) 0.1810(1)
C10 C 0.2441(1) 1.0086(1) 0.1372(1)
C11 C 0.2113(1) 0.9390(1) 0.3110(1)
C12 C 0.2988(1) 1.1305(1) 0.0068(1)
C13 C 0.4338(1) 0.8558(1) 0.3099(1)
C14 C 0.3911(1) 0.7917(1) 0.3337(1)
C15 C 0.3998(1) 0.7115(1) 0.3160(1)
C16 C 0.4645(1) 0.6085(1) 0.2554(1)
C17 C 0.5155(1) 0.5914(1) 0.2154(1)
C18 C 0.5583(1) 0.6557(1) 0.1916(1)
C19 C 0.5491(1) 0.7353(1) 0.2103(1)
C20 C 0.4855(1) 0.8377(1) 0.2703(1)
C21 C 0.4533(1) 0.6906(1) 0.2751(1)
C22 C 0.4972(1) 0.7551(1) 0.2522(1)
C23 C 0.3376(1) 0.8157(1) 0.3789(1)
C24 C 0.6112(1) 0.6366(1) 0.1444(1)
C25 C 0.0697(1) 0.9598(2) 0.4154(1)
C26 C 0.0096(2) 1.0920(2) 0.4281(1)
C27 C -0.0582(2) 0.9662(3) 0.4019(3)
C28 C 0.3895(1) 1.0972(1) 0.5033(1)
C29 C 0.4648(2) 1.1945(2) 0.5548(1)
C30 C 0.4716(2) 1.0432(2) 0.5736(1)
O8A O 0.1742(1) 0.7999(1) 0.4949(1)
O9A O 0.2181(1) 0.9209(1) 0.4685(1)
O11E O 0.1370(1) 0.6961(1) 0.3834(1)
O10C O 0.3753(1) 1.0615(1) 0.3653(1)
Mn1A Mn 0.3230(1) 1.1854(1) -0.0981(1)
Mn2A Mn 0.2051(1) 0.9987(1) -0.0810(1)
Mn2C Mn 0.7051(1) 0.5013(1) 0.0810(1)
Mn1E Mn 0.6770(1) 0.8146(1) 0.0981(1)
O12 O 0.1960(1) 0.3408(1) 0.0454(1)
N3 N 0.1306(1) 0.2382(2) 0.0841(1)
C31 C 0.1630(2) 0.2740(2) 0.0417(1)
C32 C 0.1334(2) 0.2729(3) 0.1411(2)
C33 C 0.0929(2) 0.1596(2) 0.0788(2)
loop_
_geom_bond_atom_site_label_1
_geom_bond_atom_site_label_2
_geom_bond_site_symmetry_1
_geom_bond_site_symmetry_2
Mn1 O2 1_555 1_555
Mn2 O1 1_555 1_555
O1 C11 1_555 1_555
O2 C11 1_555 1_555
O3 Mn1 1_555 1_555
O4 Mn2 1_555 1_555
O5 Mn2 1_555 1_555
O6 Mn1 1_555 1_555
O7 Mn2 1_555 1_555
O8 C12 1_555 1_555
O9 C12 1_555 1_555
O10 C24 1_555 1_555
O11 C24 1_555 1_555
O12 C31 1_555 1_555
N1 C25 1_555 1_555
N2 C28 1_555 1_555
N3 C31 1_555 1_555
C1 C2 1_555 1_555
C2 C3 1_555 1_555
C3 C4 1_555 1_555
C4 C10 1_555 1_555
C5 C6 1_555 1_555
C6 C7 1_555 1_555
C7 C8 1_555 1_555
C8 C9 1_555 1_555
C9 C1 1_555 1_555
C10 C5 1_555 1_555
C11 C2 1_555 1_555
C12 C6 1_555 1_555
C13 C14 1_555 1_555
C14 C15 1_555 1_555
C15 C21 1_555 1_555
C16 C17 1_555 1_555
C17 C18 1_555 1_555
C18 C19 1_555 1_555
C19 C22 1_555 1_555
C20 C13 1_555 1_555
C21 C16 1_555 1_555
C22 C20 1_555 1_555
C23 O3 1_555 1_555
C24 C18 1_555 1_555
C25 O6 1_555 1_555
C26 N1 1_555 1_555
C27 N1 1_555 1_555
C28 O7 1_555 1_555
C29 N2 1_555 1_555
C30 N2 1_555 1_555
C32 N3 1_555 1_555
C33 N3 1_555 1_555
O8A Mn1 1_555 1_555
O9A Mn1 1_555 1_555
O11E Mn1 1_555 1_555
O10C Mn2 1_555 1_555
Mn1A O8 1_555 1_555
Mn2A O9 1_555 1_555
Mn2C O10 1_555 1_555
Mn1E O11 1_555 1_555
Mn2 O9A 1_555 1_555
O4 C23 1_555 1_555
O9 Mn1A 1_555 1_555
C9 C10 1_555 1_555
C14 C23 1_555 1_555
C21 C22 1_555 1_555

#END
