
#######################################################################
#
#                 Cambridge Crystallographic Data Centre
#                                CCDC 
#
#######################################################################
#
# If this CIF has been generated from an entry in the Cambridge 
# Structural Database, then it will include bibliographic, chemical, 
# crystal, experimental, refinement or atomic coordinate data resulting 
# from the CCDC's data processing and validation procedures.
#
#######################################################################

data_EYUXUS
_symmetry_cell_setting           monoclinic
_symmetry_space_group_name_H-M   'P 21/c'
_symmetry_Int_Tables_number      14
_space_group_name_Hall           '-P 2ybc'
loop_
_symmetry_equiv_pos_site_id
_symmetry_equiv_pos_as_xyz
1 x,y,z
2 -x,1/2+y,1/2-z
3 -x,-y,-z
4 x,1/2-y,1/2+z
_cell_length_a                   14.2400(13)
_cell_length_b                   13.6510(14)
_cell_length_c                   25.338(3)
_cell_angle_alpha                90
_cell_angle_beta                 93.315(2)
_cell_angle_gamma                90
_cell_volume                     4917.22
loop_
_atom_site_label
_atom_site_type_symbol
_atom_site_fract_x
_atom_site_fract_y
_atom_site_fract_z
Co1 Co 0.83015(11) 0.65220(11) -0.01607(6)
Er1 Er 1.36265(4) 0.64236(3) 0.321590(19)
Er2 Er 1.34923(4) 0.87745(3) 0.207900(19)
C1 C 1.1155(8) 0.6461(8) 0.2009(4)
C2 C 1.0877(8) 0.5569(8) 0.2201(5)
H1 H 1.1140 0.5335 0.2521
C3 C 1.0195(9) 0.5014(8) 0.1911(5)
H2 H 1.0021 0.4397 0.2026
C4 C 0.9793(9) 0.5406(8) 0.1455(5)
H3 H 0.9342 0.5040 0.1262
C5 C 1.0025(8) 0.6312(8) 0.1269(5)
C6 C 1.0712(8) 0.6849(8) 0.1563(4)
H4 H 1.0868 0.7476 0.1455
C7 C 1.1928(8) 0.7025(8) 0.2314(5)
C8 C 0.9547(8) 0.6786(10) 0.0783(5)
C9 C 1.4313(7) 0.9409(7) 0.3595(4)
C10 C 1.4176(8) 0.9742(8) 0.4108(4)
H5 H 1.3851 0.9360 0.4340
C11 C 1.4531(10) 1.0644(9) 0.4264(5)
H6 H 1.4435 1.0877 0.4601
C12 C 1.5018(8) 1.1192(8) 0.3927(5)
H7 H 1.5259 1.1795 0.4040
C13 C 1.5163(8) 1.0884(7) 0.3431(4)
C14 C 1.4838(8) 0.9979(7) 0.3267(4)
H8 H 1.4970 0.9748 0.2934
C15 C 1.5710(8) 1.1509(7) 0.3058(4)
C16 C 1.3915(8) 0.8420(8) 0.3425(4)
C17 C 1.2411(9) 0.5264(7) 0.5566(4)
C18 C 1.1562(9) 0.4798(8) 0.5503(5)
H9 H 1.1247 0.4613 0.5798
C19 C 1.1163(8) 0.4596(8) 0.4995(5)
H10 H 1.0605 0.4241 0.4953
C20 C 1.1601(9) 0.4925(8) 0.4562(5)
H11 H 1.1316 0.4834 0.4226
C21 C 1.2460(8) 0.5390(8) 0.4620(4)
C22 C 1.2858(8) 0.5554(7) 0.5113(4)
H12 H 1.3439 0.5865 0.5150
C23 C 1.2822(9) 0.5528(8) 0.6108(4)
C24 C 1.2933(9) 0.5752(8) 0.4145(5)
C25 C 1.2817(8) 0.1575(7) 0.2686(4)
C26 C 1.1927(8) 0.1779(8) 0.2846(5)
H13 H 1.1472 0.1290 0.2836
C27 C 1.1709(9) 0.2716(9) 0.3023(5)
H14 H 1.1103 0.2854 0.3120
C28 C 1.2384(8) 0.3436(8) 0.3055(5)
H15 H 1.2239 0.4056 0.3179
C29 C 1.3291(8) 0.3233(7) 0.2900(4)
C30 C 1.3502(8) 0.2319(6) 0.2702(4)
H16 H 1.4093 0.2198 0.2579
C31 C 1.3049(8) 0.0584(8) 0.2499(4)
C32 C 1.4048(8) 0.4008(8) 0.2979(4)
C33 C 0.7119(10) 0.7798(9) 0.0486(5)
H17 H 0.7643 0.7782 0.0722
C34 C 0.6352(11) 0.8328(10) 0.0612(6)
H18 H 0.6366 0.8678 0.0927
C35 C 0.5570(11) 0.8350(9) 0.0282(6)
H19 H 0.5044 0.8705 0.0370
C36 C 0.5568(10) 0.7834(10) -0.0188(6)
H20 H 0.5041 0.7833 -0.0422
C37 C 0.6378(9) 0.7312(9) -0.0303(5)
C38 C 0.6452(9) 0.6679(10) -0.0779(5)
H21 H 0.6196 0.6036 -0.0709
H22 H 0.6081 0.6962 -0.1074
C39 C 0.7947(9) 0.4387(10) 0.0083(7)
H23 H 0.8161 0.4555 0.0425
C40 C 0.7656(11) 0.3423(11) -0.0027(8)
H24 H 0.7636 0.2962 0.0242
C41 C 0.7403(12) 0.3179(12) -0.0534(9)
H25 H 0.7229 0.2540 -0.0621
C42 C 0.7408(10) 0.3874(11) -0.0908(7)
H26 H 0.7247 0.3711 -0.1258
C43 C 0.7644(9) 0.4810(10) -0.0783(6)
C44 C 0.7596(10) 0.5629(10) -0.1175(5)
H27 H 0.8183 0.5659 -0.1350
H28 H 0.7094 0.5500 -0.1441
C45 C 1.0084(10) 0.7313(10) -0.0578(6)
H29 H 1.0353 0.7082 -0.0258
C46 C 1.0658(11) 0.7786(12) -0.0926(7)
H30 H 1.1296 0.7874 -0.0837
C47 C 1.0276(12) 0.8113(12) -0.1395(7)
H31 H 1.0651 0.8420 -0.1634
C48 C 0.9327(12) 0.7990(11) -0.1516(6)
H32 H 0.9049 0.8217 -0.1834
C49 C 0.8794(9) 0.7512(9) -0.1147(6)
C50 C 0.7745(9) 0.7411(11) -0.1230(6)
H33 H 0.7441 0.8006 -0.1119
H34 H 0.7575 0.7310 -0.1603
N1 N 0.7140(7) 0.7307(6) 0.0038(4)
N2 N 0.7921(7) 0.5059(7) -0.0293(5)
N3 N 0.9172(7) 0.7182(7) -0.0684(4)
N4 N 0.7427(7) 0.6575(8) -0.0922(4)
O1 O 1.2299(6) 0.6637(6) 0.2716(3)
O2 O 1.2172(6) 0.7828(5) 0.2124(3)
O3 O 0.9043(6) 0.6187(6) 0.0488(3)
O4 O 0.9621(7) 0.7655(6) 0.0689(4)
O5 O 1.3915(5) 0.8177(5) 0.2938(3)
O6 O 1.3651(6) 0.7846(5) 0.3760(3)
O7 O 1.5760(6) 1.1225(5) 0.2592(3)
O8 O 1.6071(6) 1.2283(5) 0.3241(3)
O9 O 1.3802(5) 0.5897(5) 0.4152(3)
O10 O 1.2406(5) 0.5919(6) 0.3732(3)
O11 O 1.3651(6) 0.5826(6) 0.6168(3)
O12 O 1.2302(6) 0.5462(6) 0.6490(3)
O13 O 1.3739(5) 0.0481(5) 0.2203(3)
O14 O 1.2607(6) -0.0157(5) 0.2640(3)
O15 O 1.4870(6) 0.3799(5) 0.2877(3)
O16 O 1.3812(6) 0.4819(5) 0.3158(3)
O17 O 1.5260(5) 0.6409(5) 0.3470(3)
Er1A Er 1.63735(4) 1.14236(3) 0.178410(19)
Er2A Er 1.65077(4) 1.37745(3) 0.292100(19)
Er2C Er 1.34923(4) 0.62255(3) 0.707900(19)
Er2_2 Er 1.34923(4) -0.12255(3) 0.207900(19)
Er2A_2 Er 1.65077(4) 0.37745(3) 0.292100(19)
O7A O 1.4240(6) 0.6225(5) 0.2408(3)
O8A O 1.3929(6) 0.7283(5) 0.1759(3)
O11C O 1.3651(6) 0.9174(6) 0.1168(3)
O12C O 1.2302(6) 0.9538(6) 0.1490(3)
O13_2 O 1.3739(5) 1.0481(5) 0.2203(3)
O14_2 O 1.2607(6) 0.9843(5) 0.2640(3)
O15A O 1.5130(6) 0.8799(5) 0.2123(3)
O18 O 0.838(3) 0.373(2) 0.162(2)
O19 O 0.9872(9) 0.4311(9) 0.3484(7)
loop_
_geom_bond_atom_site_label_1
_geom_bond_atom_site_label_2
_geom_bond_site_symmetry_1
_geom_bond_site_symmetry_2
Co1 N1 1_555 1_555
Er1 O1 1_555 1_555
Er2 O2 1_555 1_555
C1 C2 1_555 1_555
C2 H1 1_555 1_555
C3 C2 1_555 1_555
H2 C3 1_555 1_555
C4 C3 1_555 1_555
H3 C4 1_555 1_555
C5 C4 1_555 1_555
C6 C1 1_555 1_555
H4 C6 1_555 1_555
C7 C1 1_555 1_555
C8 C5 1_555 1_555
C9 C10 1_555 1_555
C10 H5 1_555 1_555
C11 C10 1_555 1_555
H6 C11 1_555 1_555
C12 C11 1_555 1_555
H7 C12 1_555 1_555
C13 C12 1_555 1_555
C14 C9 1_555 1_555
H8 C14 1_555 1_555
C15 C13 1_555 1_555
C16 C9 1_555 1_555
C17 C18 1_555 1_555
C18 H9 1_555 1_555
C19 C18 1_555 1_555
H10 C19 1_555 1_555
C20 C19 1_555 1_555
H11 C20 1_555 1_555
C21 C20 1_555 1_555
C22 C17 1_555 1_555
H12 C22 1_555 1_555
C23 C17 1_555 1_555
C24 C21 1_555 1_555
C25 C26 1_555 1_555
C26 H13 1_555 1_555
C27 C26 1_555 1_555
H14 C27 1_555 1_555
C28 C27 1_555 1_555
H15 C28 1_555 1_555
C29 C28 1_555 1_555
C30 C25 1_555 1_555
H16 C30 1_555 1_555
C31 C25 1_555 1_555
C32 C29 1_555 1_555
C33 H17 1_555 1_555
C34 C33 1_555 1_555
H18 C34 1_555 1_555
C35 C34 1_555 1_555
H19 C35 1_555 1_555
C36 C35 1_555 1_555
H20 C36 1_555 1_555
C37 C36 1_555 1_555
C38 C37 1_555 1_555
H21 C38 1_555 1_555
H22 C38 1_555 1_555
C39 H23 1_555 1_555
C40 C39 1_555 1_555
H24 C40 1_555 1_555
C41 C40 1_555 1_555
H25 C41 1_555 1_555
C42 C41 1_555 1_555
H26 C42 1_555 1_555
C43 C42 1_555 1_555
C44 C43 1_555 1_555
H27 C44 1_555 1_555
H28 C44 1_555 1_555
C45 H29 1_555 1_555
C46 C45 1_555 1_555
H30 C46 1_555 1_555
C47 C46 1_555 1_555
H31 C47 1_555 1_555
C48 C47 1_555 1_555
H32 C48 1_555 1_555
C49 C48 1_555 1_555
C50 C49 1_555 1_555
H33 C50 1_555 1_555
H34 C50 1_555 1_555
N1 C33 1_555 1_555
N2 Co1 1_555 1_555
N3 Co1 1_555 1_555
N4 Co1 1_555 1_555
O1 C7 1_555 1_555
O2 C7 1_555 1_555
O3 Co1 1_555 1_555
O4 C8 1_555 1_555
O5 Er1 1_555 1_555
O6 Er1 1_555 1_555
O7 C15 1_555 1_555
O8 C15 1_555 1_555
O9 Er1 1_555 1_555
O10 Er1 1_555 1_555
O11 C23 1_555 1_555
O12 C23 1_555 1_555
O13 C31 1_555 1_555
O14 C31 1_555 1_555
O15 C32 1_555 1_555
O16 Er1 1_555 1_555
O17 Er1 1_555 1_555
Er1A O7 1_555 1_555
Er2A O8 1_555 1_555
Er2C O11 1_555 1_555
Er2_2 O13 1_555 1_555
Er2A_2 O15 1_555 1_555
O7A Er1 1_555 1_555
O8A Er2 1_555 1_555
O11C Er2 1_555 1_555
O12C Er2 1_555 1_555
O13_2 Er2 1_555 1_555
O14_2 Er2 1_555 1_555
O15A Er2 1_555 1_555
Er2 O5 1_555 1_555
C5 C6 1_555 1_555
C8 O3 1_555 1_555
C13 C14 1_555 1_555
C16 O5 1_555 1_555
C16 O6 1_555 1_555
C21 C22 1_555 1_555
C24 O9 1_555 1_555
C24 O10 1_555 1_555
C29 C30 1_555 1_555
C32 O16 1_555 1_555
C37 N1 1_555 1_555
C38 N4 1_555 1_555
C39 N2 1_555 1_555
C43 N2 1_555 1_555
C44 N4 1_555 1_555
C45 N3 1_555 1_555
C49 N3 1_555 1_555
C50 N4 1_555 1_555
O12 Er2C 1_555 1_555
O14 Er2_2 1_555 1_555

#END
