
#######################################################################
#
#                 Cambridge Crystallographic Data Centre
#                                CCDC 
#
#######################################################################
#
# If this CIF has been generated from an entry in the Cambridge 
# Structural Database, then it will include bibliographic, chemical, 
# crystal, experimental, refinement or atomic coordinate data resulting 
# from the CCDC's data processing and validation procedures.
#
#######################################################################

data_EYUXIG
_symmetry_cell_setting           monoclinic
_symmetry_space_group_name_H-M   'P 21/c'
_symmetry_Int_Tables_number      14
_space_group_name_Hall           '-P 2ybc'
loop_
_symmetry_equiv_pos_site_id
_symmetry_equiv_pos_as_xyz
1 x,y,z
2 -x,1/2+y,1/2-z
3 -x,-y,-z
4 x,1/2-y,1/2+z
_cell_length_a                   14.2770(7)
_cell_length_b                   13.6710(8)
_cell_length_c                   25.3300(13)
_cell_angle_alpha                90
_cell_angle_beta                 93.470(1)
_cell_angle_gamma                90
_cell_volume                     4934.87
loop_
_atom_site_label
_atom_site_type_symbol
_atom_site_fract_x
_atom_site_fract_y
_atom_site_fract_z
Co1 Co 0.83048(5) 0.65183(5) -0.01574(3)
Y1 Y 1.36332(3) 0.64183(3) 0.322056(16)
Y2 Y 1.34938(3) 0.87722(3) 0.207840(16)
C1 C 1.1161(3) 0.6474(3) 0.20200(18)
C2 C 1.0884(4) 0.5572(4) 0.2195(2)
H1 H 1.1156 0.5321 0.2509
C3 C 1.0208(4) 0.5033(4) 0.1911(2)
H2 H 1.0034 0.4420 0.2031
C4 C 0.9792(4) 0.5413(4) 0.1447(2)
H3 H 0.9345 0.5047 0.1252
C5 C 1.0033(3) 0.6327(4) 0.12731(18)
C6 C 1.0724(3) 0.6854(4) 0.15571(18)
H4 H 1.0898 0.7467 0.1437
C7 C 1.1934(3) 0.7032(4) 0.23079(18)
C8 C 0.9540(4) 0.6795(5) 0.0786(2)
C9 C 1.4337(3) 0.9395(3) 0.35958(17)
C10 C 1.4189(4) 0.9734(4) 0.41008(19)
H5 H 1.3849 0.9358 0.4328
C11 C 1.4549(4) 1.0634(4) 0.4268(2)
H6 H 1.4463 1.0851 0.4610
C12 C 1.5029(4) 1.1201(4) 0.39292(19)
H7 H 1.5248 1.1813 0.4039
C13 C 1.5190(3) 1.0873(3) 0.34275(17)
C14 C 1.4845(3) 0.9971(3) 0.32618(18)
H8 H 1.4953 0.9748 0.2924
C15 C 1.5716(3) 1.1498(3) 0.30560(18)
C16 C 1.3953(3) 0.8434(3) 0.34227(18)
C17 C 1.2410(4) 0.5265(4) 0.55632(18)
C18 C 1.1542(4) 0.4792(4) 0.55017(19)
H9 H 1.1224 0.4615 0.5797
C19 C 1.1159(4) 0.4587(4) 0.4997(2)
H10 H 1.0606 0.4229 0.4953
C20 C 1.1603(3) 0.4920(4) 0.45579(19)
H11 H 1.1322 0.4823 0.4221
C21 C 1.2458(3) 0.5393(3) 0.46168(18)
C22 C 1.2875(4) 0.5547(3) 0.51213(18)
H12 H 1.3464 0.5838 0.5162
C23 C 1.2806(4) 0.5527(4) 0.61078(19)
C24 C 1.2925(4) 0.5762(3) 0.41432(17)
C25 C 1.2828(3) 0.1580(3) 0.26906(17)
C26 C 1.1943(4) 0.1791(4) 0.2854(2)
H13 H 1.1489 0.1302 0.2848
C27 C 1.1725(4) 0.2706(4) 0.3024(2)
H14 H 1.1119 0.2841 0.3119
C28 C 1.2401(4) 0.3436(4) 0.3058(2)
H15 H 1.2254 0.4055 0.3181
C29 C 1.3298(3) 0.3235(3) 0.29074(18)
C30 C 1.3498(3) 0.2319(3) 0.27091(17)
H16 H 1.4088 0.2197 0.2587
C31 C 1.3052(3) 0.0586(3) 0.25035(17)
C32 C 1.4060(3) 0.4003(3) 0.29826(17)
C33 C 0.7103(4) 0.7809(4) 0.0487(2)
H17 H 0.7627 0.7822 0.0723
C34 C 0.6324(4) 0.8318(4) 0.0607(3)
H18 H 0.6316 0.8661 0.0924
C35 C 0.5558(5) 0.8323(5) 0.0259(3)
H19 H 0.5030 0.8686 0.0331
C36 C 0.5572(4) 0.7786(5) -0.0199(3)
H20 H 0.5048 0.7769 -0.0436
C37 C 0.6376(4) 0.7269(4) -0.0305(2)
C38 C 0.6448(4) 0.6636(5) -0.0784(2)
H21 H 0.6192 0.5994 -0.0716
H22 H 0.6081 0.6922 -0.1080
C39 C 0.7929(4) 0.4392(5) 0.0113(3)
H23 H 0.8121 0.4571 0.0456
C40 C 0.7651(5) 0.3450(5) 0.0013(4)
H24 H 0.7633 0.2999 0.0288
C41 C 0.7401(5) 0.3177(6) -0.0498(4)
H25 H 0.7227 0.2534 -0.0574
C42 C 0.7407(4) 0.3842(6) -0.0886(3)
H26 H 0.7253 0.3661 -0.1234
C43 C 0.7642(4) 0.4789(5) -0.0767(3)
C44 C 0.7622(4) 0.5592(5) -0.1167(2)
H27 H 0.8222 0.5623 -0.1327
H28 H 0.7141 0.5456 -0.1445
C45 C 1.0082(4) 0.7352(5) -0.0571(2)
H29 H 1.0364 0.7132 -0.0253
C46 C 1.0615(5) 0.7827(6) -0.0916(3)
H30 H 1.1246 0.7943 -0.0825
C47 C 1.0241(5) 0.8130(6) -0.1384(3)
H31 H 1.0609 0.8436 -0.1625
C48 C 0.9294(5) 0.7977(5) -0.1500(3)
H32 H 0.9015 0.8192 -0.1820
C49 C 0.8776(4) 0.7515(5) -0.1146(2)
C50 C 0.7740(4) 0.7374(5) -0.1227(2)
H33 H 0.7420 0.7960 -0.1119
H34 H 0.7575 0.7266 -0.1600
N1 N 0.7141(3) 0.7286(3) 0.00360(17)
N2 N 0.7930(3) 0.5067(3) -0.02747(18)
N3 N 0.9156(3) 0.7186(3) -0.06740(17)
N4 N 0.7429(3) 0.6537(4) -0.09205(17)
O1 O 1.2311(2) 0.6651(3) 0.27171(13)
O2 O 1.2172(2) 0.7842(3) 0.21300(14)
O3 O 0.9045(3) 0.6198(3) 0.04916(14)
O4 O 0.9623(3) 0.7667(3) 0.06988(17)
O5 O 1.3933(2) 0.8173(2) 0.29357(11)
O6 O 1.3682(3) 0.7845(2) 0.37589(12)
O7 O 1.5769(3) 1.1217(3) 0.25929(13)
O8 O 1.6073(2) 1.2274(2) 0.32410(13)
O9 O 1.3797(2) 0.5891(3) 0.41602(12)
O10 O 1.2416(2) 0.5935(3) 0.37311(13)
O11 O 1.3631(3) 0.5852(3) 0.61649(14)
O12 O 1.2311(2) 0.5453(3) 0.64914(13)
O13 O 1.3737(2) 0.0480(2) 0.22011(13)
O14 O 1.2619(2) -0.0153(2) 0.26409(12)
O15 O 1.4880(2) 0.3791(2) 0.28798(13)
O16 O 1.3817(3) 0.4804(2) 0.31658(14)
O17 O 1.5274(2) 0.6417(3) 0.34728(13)
Y1A Y 1.63668(3) 1.14183(3) 0.177944(16)
Y2A Y 1.65062(3) 1.37722(3) 0.292160(16)
Y2C Y 1.34938(3) 0.62278(3) 0.707840(16)
Y2_2 Y 1.34938(3) -0.12278(3) 0.207840(16)
Y2A_2 Y 1.65062(3) 0.37722(3) 0.292160(16)
O7A O 1.4231(3) 0.6217(3) 0.24071(13)
O8A O 1.3927(2) 0.7274(2) 0.17590(13)
O11C O 1.3631(3) 0.9148(3) 0.11649(14)
O12C O 1.2311(2) 0.9547(3) 0.14914(13)
O13_2 O 1.3737(2) 1.0480(2) 0.22011(13)
O14_2 O 1.2619(2) 0.9847(2) 0.26409(12)
O15A O 1.5120(2) 0.8791(2) 0.21202(13)
O18 O 0.8216(7) 0.3776(8) 0.1533(4)
O19 O 0.9884(4) 0.4297(4) 0.3494(3)
loop_
_geom_bond_atom_site_label_1
_geom_bond_atom_site_label_2
_geom_bond_site_symmetry_1
_geom_bond_site_symmetry_2
Co1 N1 1_555 1_555
Y1 O1 1_555 1_555
Y2 O2 1_555 1_555
C1 C2 1_555 1_555
C2 H1 1_555 1_555
C3 C2 1_555 1_555
H2 C3 1_555 1_555
C4 C3 1_555 1_555
H3 C4 1_555 1_555
C5 C4 1_555 1_555
C6 C1 1_555 1_555
H4 C6 1_555 1_555
C7 C1 1_555 1_555
C8 C5 1_555 1_555
C9 C10 1_555 1_555
C10 H5 1_555 1_555
C11 C10 1_555 1_555
H6 C11 1_555 1_555
C12 C11 1_555 1_555
H7 C12 1_555 1_555
C13 C12 1_555 1_555
C14 C9 1_555 1_555
H8 C14 1_555 1_555
C15 C13 1_555 1_555
C16 C9 1_555 1_555
C17 C18 1_555 1_555
C18 H9 1_555 1_555
C19 C18 1_555 1_555
H10 C19 1_555 1_555
C20 C19 1_555 1_555
H11 C20 1_555 1_555
C21 C20 1_555 1_555
C22 C17 1_555 1_555
H12 C22 1_555 1_555
C23 C17 1_555 1_555
C24 C21 1_555 1_555
C25 C26 1_555 1_555
C26 H13 1_555 1_555
C27 C26 1_555 1_555
H14 C27 1_555 1_555
C28 C27 1_555 1_555
H15 C28 1_555 1_555
C29 C28 1_555 1_555
C30 C25 1_555 1_555
H16 C30 1_555 1_555
C31 C25 1_555 1_555
C32 C29 1_555 1_555
C33 H17 1_555 1_555
C34 C33 1_555 1_555
H18 C34 1_555 1_555
C35 C34 1_555 1_555
H19 C35 1_555 1_555
C36 C35 1_555 1_555
H20 C36 1_555 1_555
C37 C36 1_555 1_555
C38 C37 1_555 1_555
H21 C38 1_555 1_555
H22 C38 1_555 1_555
C39 H23 1_555 1_555
C40 C39 1_555 1_555
H24 C40 1_555 1_555
C41 C40 1_555 1_555
H25 C41 1_555 1_555
C42 C41 1_555 1_555
H26 C42 1_555 1_555
C43 C42 1_555 1_555
C44 C43 1_555 1_555
H27 C44 1_555 1_555
H28 C44 1_555 1_555
C45 H29 1_555 1_555
C46 C45 1_555 1_555
H30 C46 1_555 1_555
C47 C46 1_555 1_555
H31 C47 1_555 1_555
C48 C47 1_555 1_555
H32 C48 1_555 1_555
C49 C48 1_555 1_555
C50 C49 1_555 1_555
H33 C50 1_555 1_555
H34 C50 1_555 1_555
N1 C33 1_555 1_555
N2 Co1 1_555 1_555
N3 Co1 1_555 1_555
N4 Co1 1_555 1_555
O1 C7 1_555 1_555
O2 C7 1_555 1_555
O3 Co1 1_555 1_555
O4 C8 1_555 1_555
O5 Y1 1_555 1_555
O6 Y1 1_555 1_555
O7 C15 1_555 1_555
O8 C15 1_555 1_555
O9 Y1 1_555 1_555
O10 Y1 1_555 1_555
O11 C23 1_555 1_555
O12 C23 1_555 1_555
O13 C31 1_555 1_555
O14 C31 1_555 1_555
O15 C32 1_555 1_555
O16 Y1 1_555 1_555
O17 Y1 1_555 1_555
Y1A O7 1_555 1_555
Y2A O8 1_555 1_555
Y2C O11 1_555 1_555
Y2_2 O13 1_555 1_555
Y2A_2 O15 1_555 1_555
O7A Y1 1_555 1_555
O8A Y2 1_555 1_555
O11C Y2 1_555 1_555
O12C Y2 1_555 1_555
O13_2 Y2 1_555 1_555
O14_2 Y2 1_555 1_555
O15A Y2 1_555 1_555
Y2 O5 1_555 1_555
C5 C6 1_555 1_555
C8 O3 1_555 1_555
C13 C14 1_555 1_555
C16 O5 1_555 1_555
C16 O6 1_555 1_555
C21 C22 1_555 1_555
C24 O9 1_555 1_555
C24 O10 1_555 1_555
C29 C30 1_555 1_555
C32 O16 1_555 1_555
C37 N1 1_555 1_555
C38 N4 1_555 1_555
C39 N2 1_555 1_555
C43 N2 1_555 1_555
C44 N4 1_555 1_555
C45 N3 1_555 1_555
C49 N3 1_555 1_555
C50 N4 1_555 1_555
O12 Y2C 1_555 1_555
O14 Y2_2 1_555 1_555

#END
