
#######################################################################
#
#                 Cambridge Crystallographic Data Centre
#                                CCDC 
#
#######################################################################
#
# If this CIF has been generated from an entry in the Cambridge 
# Structural Database, then it will include bibliographic, chemical, 
# crystal, experimental, refinement or atomic coordinate data resulting 
# from the CCDC's data processing and validation procedures.
#
#######################################################################

data_EYUYON
_symmetry_cell_setting           monoclinic
_symmetry_space_group_name_H-M   'P 21/c'
_symmetry_Int_Tables_number      14
_space_group_name_Hall           '-P 2ybc'
loop_
_symmetry_equiv_pos_site_id
_symmetry_equiv_pos_as_xyz
1 x,y,z
2 -x,1/2+y,1/2-z
3 -x,-y,-z
4 x,1/2-y,1/2+z
_cell_length_a                   16.504(3)
_cell_length_b                   25.010(5)
_cell_length_c                   26.843(9)
_cell_angle_alpha                90
_cell_angle_beta                 116.46(2)
_cell_angle_gamma                90
_cell_volume                     9919.19
loop_
_atom_site_label
_atom_site_type_symbol
_atom_site_fract_x
_atom_site_fract_y
_atom_site_fract_z
N1 N 0.9622(10) 0.1456(6) 1.0521(7)
N2 N 1.0393(12) 0.1626(6) 1.0459(6)
C1 C 1.0888(10) 0.1988(7) 1.0897(8)
H1 H 1.1423 0.2160 1.0956
C2 C 1.0423(14) 0.2042(8) 1.1230(7)
H2 H 1.0599 0.2256 1.1545
C3 C 0.9640(12) 0.1713(7) 1.0997(8)
H3 H 0.9215 0.1673 1.1133
C4 C 0.9305(13) 0.1151(7) 1.0138(8)
H4 H 0.9368 0.1329 0.9836
H5 H 0.8662 0.1148 1.0034
C5 C 0.953(2) 0.0600(12) 1.0102(13)
C6 C 0.993(2) 0.0158(13) 1.0461(14)
H6 H 0.9954 0.0172 1.0813
C7 C 0.9664(14) 0.0344(9) 0.9683(10)
H7 H 0.9412 0.0558 0.9367
C8 C 1.5006(10) 0.4444(5) 1.3705(7)
H8 H 1.4965 0.4546 1.4026
C9 C 1.5772(10) 0.4233(6) 1.3707(8)
H9 H 1.6327 0.4176 1.4014
C10 C 1.5545(9) 0.4122(6) 1.3159(8)
H10 H 1.5915 0.3968 1.3019
C11 C 1.4207(9) 0.4321(7) 1.2255(7)
H11 H 1.4277 0.4681 1.2144
H12 H 1.4489 0.4077 1.2098
C12 C 1.3227(10) 0.4194(6) 1.2024(6)
C13 C 1.2609(10) 0.4609(6) 1.1888(7)
H13 H 1.2809 0.4961 1.1954
C14 C 1.1695(11) 0.4496(7) 1.1654(7)
H14 H 1.1289 0.4779 1.1558
C15 C 1.1363(10) 0.3995(7) 1.1559(7)
C16 C 1.1977(12) 0.3578(6) 1.1679(7)
H15 H 1.1759 0.3230 1.1593
C17 C 1.2913(10) 0.3664(6) 1.1928(6)
H16 H 1.3315 0.3378 1.2027
C18 C 1.0357(12) 0.3893(9) 1.1324(8)
H17 H 1.0039 0.4231 1.1213
H18 H 1.0229 0.3742 1.1614
C19 C 0.9341(9) 0.3171(7) 1.0722(7)
H19 H 0.9066 0.3078 1.0946
C20 C 0.9148(12) 0.2976(9) 1.0208(8)
H20 H 0.8704 0.2728 1.0004
C21 C 0.9739(10) 0.3219(8) 1.0055(6)
H21 H 0.9760 0.3154 0.9720
C22 C 1.3127(10) 0.4180(6) 1.0681(7)
H22 H 1.3361 0.3917 1.0954
C23 C 1.3631(11) 0.4535(7) 1.0536(8)
H23 H 1.4258 0.4546 1.0678
C24 C 1.3043(12) 0.4854(7) 1.0156(9)
H24 H 1.3188 0.5147 0.9998
C25 C 1.1330(11) 0.4877(8) 0.9582(8)
H25 H 1.1420 0.5215 0.9437
H26 H 1.1114 0.4619 0.9280
C26 C 1.0630(10) 0.4944(6) 0.9801(7)
C27 C 1.0820(10) 0.5268(6) 1.0231(8)
H27 H 1.1361 0.5457 1.0386
C28 C 0.9826(10) 0.4677(6) 0.9543(7)
H28 H 0.9697 0.4467 0.9231
C29 C 1.1480(10) 0.4816(7) 1.3222(7)
H29 H 1.1533 0.5186 1.3240
C30 C 1.0807(11) 0.4546(8) 1.3267(8)
H30 H 1.0327 0.4686 1.3318
C31 C 1.0990(12) 0.4029(7) 1.3220(8)
H31 H 1.0646 0.3740 1.3233
C32 C 1.2185(11) 0.3524(5) 1.3081(6)
H32 H 1.1812 0.3212 1.3041
H33 H 1.2250 0.3562 1.2741
C33 C 1.3107(11) 0.3435(5) 1.3560(6)
C34 C 1.3278(11) 0.3503(6) 1.4103(7)
H34 H 1.2823 0.3638 1.4182
C35 C 1.4112(11) 0.3377(6) 1.4540(7)
H35 H 1.4217 0.3431 1.4907
C36 C 1.4779(10) 0.3171(5) 1.4421(6)
C37 C 1.4640(11) 0.3103(5) 1.3886(6)
H36 H 1.5102 0.2977 1.3808
C38 C 1.3796(12) 0.3226(5) 1.3458(7)
H37 H 1.3690 0.3165 1.3092
C39 C 1.5716(10) 0.3039(6) 1.4893(7)
H38 H 1.5742 0.3158 1.5244
H39 H 1.6174 0.3232 1.4833
C40 C 1.6567(11) 0.2221(8) 1.4843(7)
H40 H 1.6974 0.2379 1.4735
C41 C 1.6523(12) 0.1701(8) 1.4947(7)
H41 H 1.6906 0.1430 1.4942
C42 C 1.5809(11) 0.1651(7) 1.5060(7)
H42 H 1.5610 0.1325 1.5132
C43 C 1.3091(10) 0.2272(6) 1.5589(8)
H43 H 1.3535 0.2327 1.5951
C44 C 1.2194(10) 0.2216(6) 1.5441(8)
H44 H 1.1925 0.2211 1.5680
C45 C 1.1768(10) 0.2168(6) 1.4883(8)
H45 H 1.1148 0.2136 1.4661
C46 C 1.2254(12) 0.2164(7) 1.4143(8)
H46 H 1.1623 0.2082 1.3907
H47 H 1.2375 0.2517 1.4041
C47 C 1.2846(12) 0.1756(6) 1.4034(7)
C48 C 1.3380(12) 0.1917(6) 1.3798(8)
H48 H 1.3373 0.2274 1.3699
C49 C 1.3949(12) 0.1552(7) 1.3699(8)
H49 H 1.4314 0.1664 1.3537
C50 C 1.3949(13) 0.1020(6) 1.3851(7)
C51 C 1.3401(15) 0.0869(8) 1.4079(8)
H50 H 1.3381 0.0511 1.4167
C52 C 1.2869(13) 0.1234(7) 1.4184(8)
H51 H 1.2523 0.1122 1.4359
C53 C 1.4568(16) 0.0623(8) 1.3776(10)
H52 H 1.4410 0.0270 1.3855
H53 H 1.5180 0.0698 1.4054
C54 C 1.5151(15) 0.0759(8) 1.3047(13)
H54 H 1.5678 0.0949 1.3257
C55 C 1.4878(15) 0.0611(8) 1.2508(12)
H55 H 1.5170 0.0665 1.2286
C56 C 1.4065(12) 0.0361(7) 1.2374(9)
H56 H 1.3691 0.0225 1.2024
C57 C 1.207(2) 0.0592(14) 0.9781(12)
H57 H 1.1605 0.0551 0.9424
C58 C 1.281(3) 0.0278(14) 1.000(2)
H58 H 1.2950 -0.0016 0.9845
C59 C 1.3298(16) 0.0497(10) 1.0518(14)
H59 H 1.3854 0.0372 1.0782
C60 C 1.3157(13) 0.1260(9) 1.1046(8)
H60 H 1.3078 0.1623 1.0904
H61 H 1.3801 0.1205 1.1272
C61 C 1.2709(10) 0.1219(6) 1.1413(7)
C62 C 1.2072(9) 0.0825(6) 1.1370(6)
H62 H 1.1913 0.0565 1.1095
C63 C 1.1678(10) 0.0818(5) 1.1728(7)
H63 H 1.1257 0.0554 1.1690
C64 C 1.1910(11) 0.1206(6) 1.2151(8)
C65 C 1.2547(13) 0.1592(6) 1.2193(9)
H64 H 1.2712 0.1852 1.2468
C66 C 1.2941(11) 0.1594(7) 1.1829(9)
H65 H 1.3368 0.1854 1.1868
C67 C 1.1444(14) 0.1251(6) 1.2524(9)
H66 H 1.1866 0.1410 1.2873
H67 H 1.0939 0.1496 1.2351
C68 C 1.0347(11) 0.0706(7) 1.2703(8)
H68 H 0.9881 0.0955 1.2599
C69 C 1.0368(11) 0.0216(7) 1.2937(7)
H69 H 0.9938 0.0062 1.3029
C70 C 1.1185(11) 0.0005(6) 1.3005(7)
H70 H 1.1391 -0.0333 1.3151
Cu1 Cu 1.31097(11) 0.46304(7) 1.30381(9)
Cu2 Cu 1.12293(15) 0.39588(10) 1.04099(11)
Cu3 Cu 1.43572(13) 0.22289(8) 1.51206(10)
Cu4 Cu 1.11016(15) 0.13860(12) 1.00734(11)
Cu5 Cu 1.27253(14) 0.02308(8) 1.27741(12)
N3 N 1.4326(7) 0.4488(4) 1.3196(5)
N4 N 1.4674(7) 0.4284(4) 1.2862(5)
N5 N 1.0283(8) 0.3558(6) 1.0435(6)
N6 N 1.0007(8) 0.3524(6) 1.0838(5)
N7 N 1.2248(9) 0.4279(6) 1.0365(6)
N8 N 1.2206(9) 0.4690(6) 1.0036(6)
N9 N 1.2067(7) 0.4489(4) 1.3149(6)
N10 N 1.1727(7) 0.3997(5) 1.3153(5)
N11 N 1.5423(8) 0.2114(5) 1.5059(5)
N12 N 1.5910(8) 0.2474(5) 1.4925(5)
N13 N 1.3244(7) 0.2240(4) 1.5153(5)
N14 N 1.2403(8) 0.2176(4) 1.4715(6)
N15 N 1.4578(9) 0.0599(5) 1.3233(7)
N16 N 1.3878(8) 0.0338(4) 1.2805(6)
N17 N 1.2094(10) 0.0966(6) 1.0133(7)
N18 N 1.2871(9) 0.0908(6) 1.0586(6)
N19 N 1.1634(8) 0.0331(5) 1.2841(6)
N20 N 1.1113(8) 0.0767(4) 1.2647(5)
N1B N 1.0378(10) -0.1456(6) 0.9479(7)
N2B N 0.9607(12) -0.1626(6) 0.9541(6)
C1B C 0.9112(10) -0.1988(7) 0.9103(8)
H1B H 0.8577 -0.2160 0.9044
C2B C 0.9577(14) -0.2042(8) 0.8770(7)
H2B H 0.9401 -0.2256 0.8455
C3B C 1.0360(12) -0.1713(7) 0.9003(8)
H3B H 1.0785 -0.1673 0.8867
C4B C 1.0695(13) -0.1151(7) 0.9862(8)
H4B H 1.0632 -0.1329 1.0164
H5B H 1.1338 -0.1148 0.9966
C5B C 1.047(2) -0.0600(12) 0.9898(13)
C6B C 1.007(2) -0.0158(13) 0.9539(14)
H6B H 1.0046 -0.0172 0.9187
C7B C 1.0336(14) -0.0344(9) 1.0317(10)
H7B H 1.0588 -0.0558 1.0633
C8B C 0.4994(10) 0.5556(5) 0.6295(7)
H8B H 0.5035 0.5454 0.5974
C9B C 0.4228(10) 0.5767(6) 0.6293(8)
H9B H 0.3673 0.5824 0.5986
C10B C 0.4455(9) 0.5878(6) 0.6841(8)
H10B H 0.4085 0.6032 0.6981
C11B C 0.5793(9) 0.5679(7) 0.7745(7)
H11B H 0.5723 0.5319 0.7856
H12B H 0.5511 0.5923 0.7902
C12B C 0.6773(10) 0.5806(6) 0.7976(6)
C13B C 0.7391(10) 0.5391(6) 0.8112(7)
H13B H 0.7191 0.5039 0.8046
C14B C 0.8305(11) 0.5504(7) 0.8346(7)
H14B H 0.8711 0.5221 0.8442
C15B C 0.8637(10) 0.6005(7) 0.8441(7)
C16B C 0.8023(12) 0.6422(6) 0.8321(7)
H15B H 0.8241 0.6770 0.8407
C17B C 0.7087(10) 0.6336(6) 0.8072(6)
H16B H 0.6685 0.6622 0.7973
C18B C 0.9643(12) 0.6107(9) 0.8676(8)
H17B H 0.9961 0.5769 0.8787
H18B H 0.9771 0.6258 0.8386
C19B C 1.0659(9) 0.6829(7) 0.9278(7)
H19B H 1.0934 0.6922 0.9054
C20B C 1.0852(12) 0.7024(9) 0.9792(8)
H20B H 1.1296 0.7272 0.9996
C21B C 1.0261(10) 0.6781(8) 0.9945(6)
H21B H 1.0240 0.6846 1.0280
C22B C 0.6873(10) 0.5820(6) 0.9319(7)
H22B H 0.6639 0.6083 0.9046
C23B C 0.6369(11) 0.5465(7) 0.9464(8)
H23B H 0.5742 0.5454 0.9322
C24B C 0.6957(12) 0.5146(7) 0.9844(9)
H24B H 0.6812 0.4853 1.0002
C25B C 0.8670(11) 0.5123(8) 1.0418(8)
H25B H 0.8580 0.4785 1.0563
H26B H 0.8886 0.5381 1.0720
C26B C 0.9370(10) 0.5056(6) 1.0199(7)
C27B C 0.9180(10) 0.4732(6) 0.9769(8)
H27B H 0.8639 0.4543 0.9614
C28B C 1.0174(10) 0.5323(6) 1.0457(7)
H28B H 1.0303 0.5533 1.0769
C29B C 0.8520(10) 0.5184(7) 0.6778(7)
H29B H 0.8467 0.4814 0.6760
C30B C 0.9193(11) 0.5454(8) 0.6733(8)
H30B H 0.9673 0.5314 0.6682
C31B C 0.9010(12) 0.5971(7) 0.6780(8)
H31B H 0.9354 0.6260 0.6767
C32B C 0.7815(11) 0.6476(5) 0.6919(6)
H32B H 0.8188 0.6788 0.6959
H33B H 0.7750 0.6438 0.7259
C33B C 0.6893(11) 0.6565(5) 0.6440(6)
C34B C 0.6722(11) 0.6497(6) 0.5897(7)
H34B H 0.7177 0.6362 0.5818
C35B C 0.5888(11) 0.6623(6) 0.5460(7)
H35B H 0.5783 0.6569 0.5093
C36B C 0.5221(10) 0.6829(5) 0.5579(6)
C37B C 0.5360(11) 0.6897(5) 0.6114(6)
H36B H 0.4898 0.7023 0.6192
C38B C 0.6204(12) 0.6774(5) 0.6542(7)
H37B H 0.6310 0.6835 0.6908
C39B C 0.4284(10) 0.6961(6) 0.5107(7)
H38B H 0.4258 0.6842 0.4756
H39B H 0.3826 0.6768 0.5167
C40B C 0.3433(11) 0.7779(8) 0.5157(7)
H40B H 0.3026 0.7621 0.5265
C41B C 0.3477(12) 0.8299(8) 0.5053(7)
H41B H 0.3094 0.8570 0.5058
C42B C 0.4191(11) 0.8349(7) 0.4940(7)
H42B H 0.4390 0.8675 0.4868
C43B C 0.6909(10) 0.7728(6) 0.4411(8)
H43B H 0.6465 0.7673 0.4049
C44B C 0.7806(10) 0.7784(6) 0.4559(8)
H44B H 0.8075 0.7789 0.4320
C45B C 0.8232(10) 0.7832(6) 0.5117(8)
H45B H 0.8852 0.7864 0.5339
C46B C 0.7746(12) 0.7836(7) 0.5857(8)
H46B H 0.8377 0.7918 0.6093
H47B H 0.7625 0.7483 0.5959
C47B C 0.7154(12) 0.8244(6) 0.5966(7)
C48B C 0.6620(12) 0.8083(6) 0.6202(8)
H48B H 0.6627 0.7726 0.6301
C49B C 0.6051(12) 0.8448(7) 0.6301(8)
H49B H 0.5686 0.8336 0.6463
C50B C 0.6051(13) 0.8980(6) 0.6149(7)
C51B C 0.6599(15) 0.9131(8) 0.5921(8)
H50B H 0.6619 0.9489 0.5833
C52B C 0.7131(13) 0.8766(7) 0.5816(8)
H51B H 0.7477 0.8878 0.5641
C53B C 0.5432(16) 0.9377(8) 0.6224(10)
H52B H 0.5590 0.9730 0.6145
H53B H 0.4820 0.9302 0.5946
C54B C 0.4849(15) 0.9241(8) 0.6953(13)
H54B H 0.4322 0.9051 0.6743
C55B C 0.5122(15) 0.9389(8) 0.7492(12)
H55B H 0.4830 0.9335 0.7714
C56B C 0.5935(12) 0.9639(7) 0.7626(9)
H56B H 0.6309 0.9775 0.7976
C57B C 0.793(2) -0.0592(14) 1.0219(12)
H57B H 0.8395 -0.0551 1.0576
C58B C 0.719(3) -0.0278(14) 1.000(2)
H58B H 0.7050 0.0016 1.0155
C59B C 0.6702(16) -0.0497(10) 0.9482(14)
H59B H 0.6146 -0.0372 0.9218
C60B C 0.6843(13) -0.1260(9) 0.8954(8)
H60B H 0.6922 -0.1623 0.9096
H61B H 0.6199 -0.1205 0.8728
C61B C 0.7291(10) -0.1219(6) 0.8587(7)
C62B C 0.7928(9) -0.0825(6) 0.8630(6)
H62B H 0.8087 -0.0565 0.8905
C63B C 0.8322(10) -0.0818(5) 0.8272(7)
H63B H 0.8743 -0.0554 0.8310
C64B C 0.8090(11) -0.1206(6) 0.7849(8)
C65B C 0.7453(13) -0.1592(6) 0.7807(9)
H64B H 0.7288 -0.1852 0.7532
C66B C 0.7059(11) -0.1594(7) 0.8171(9)
H65B H 0.6632 -0.1854 0.8132
C67B C 0.8556(14) -0.1251(6) 0.7476(9)
H66B H 0.8134 -0.1410 0.7127
H67B H 0.9061 -0.1496 0.7649
C68B C 0.9653(11) -0.0706(7) 0.7297(8)
H68B H 1.0119 -0.0955 0.7401
C69B C 0.9632(11) -0.0216(7) 0.7063(7)
H69B H 1.0062 -0.0062 0.6971
C70B C 0.8815(11) -0.0005(6) 0.6995(7)
H70B H 0.8609 0.0333 0.6849
Cu1B Cu 0.68903(11) 0.53696(7) 0.69619(9)
Cu2B Cu 0.87707(15) 0.60412(10) 0.95901(11)
Cu3B Cu 0.56428(13) 0.77711(8) 0.48794(10)
Cu4B Cu 0.88984(15) -0.13860(12) 0.99266(11)
Cu5B Cu 0.72747(14) 0.97692(8) 0.72259(12)
Cu5B_2 Cu 0.72747(14) -0.02308(8) 0.72259(12)
N3B N 0.5674(7) 0.5512(4) 0.6804(5)
N4B N 0.5326(7) 0.5716(4) 0.7138(5)
N5B N 0.9717(8) 0.6442(6) 0.9565(6)
N6B N 0.9993(8) 0.6476(6) 0.9162(5)
N7B N 0.7752(9) 0.5721(6) 0.9635(6)
N8B N 0.7794(9) 0.5310(6) 0.9964(6)
N9B N 0.7933(7) 0.5511(4) 0.6851(6)
N10B N 0.8273(7) 0.6003(5) 0.6847(5)
N11B N 0.4577(8) 0.7886(5) 0.4941(5)
N12B N 0.4090(8) 0.7526(5) 0.5075(5)
N13B N 0.6756(7) 0.7760(4) 0.4847(5)
N14B N 0.7597(8) 0.7824(4) 0.5285(6)
N15B N 0.5422(9) 0.9401(5) 0.6767(7)
N16B N 0.6122(8) 0.9662(4) 0.7195(6)
N17B N 0.7906(10) -0.0966(6) 0.9867(7)
N18B N 0.7129(9) -0.0908(6) 0.9414(6)
N19B N 0.8366(8) -0.0331(5) 0.7159(6)
N19B_2 N 0.8366(8) 0.9669(5) 0.7159(6)
N20B N 0.8887(8) -0.0767(4) 0.7353(5)
B1 B 0.7655(10) 0.2507(6) 0.7622(7)
O1 O 0.7540(5) 0.1264(3) 0.8515(3)
O2 O 0.9817(5) 0.2077(3) 0.8139(3)
O3 O 0.9671(5) 0.3105(3) 0.7935(3)
O4 O 0.7145(5) 0.3970(3) 0.8010(4)
O5 O 0.7899(5) 0.3578(3) 0.6930(4)
O6 O 0.8634(6) 0.3580(3) 0.8849(4)
O7 O 1.0775(5) 0.2500(3) 0.7611(4)
O8 O 0.7642(5) 0.2727(3) 0.8874(3)
O9 O 0.6617(5) 0.2453(3) 0.7277(3)
O10 O 0.7884(6) 0.0467(3) 0.7925(4)
O11 O 0.8710(6) 0.3984(3) 0.7945(4)
O12 O 0.5044(5) 0.2931(3) 0.6967(3)
O13 O 0.6685(6) 0.1302(3) 0.7413(3)
O14 O 0.9562(5) 0.2731(3) 0.8810(3)
O15 O 1.0561(5) 0.1800(3) 0.9268(3)
O16 O 0.6339(5) 0.2091(3) 0.8234(3)
O17 O 0.6604(5) 0.2920(3) 0.6287(4)
O18 O 0.7109(7) 0.3748(3) 0.9004(4)
O19 O 0.8222(5) 0.1285(3) 0.7352(3)
O20 O 0.4613(6) 0.2555(4) 0.7767(4)
O21 O 0.7867(5) 0.3071(3) 0.7885(3)
O22 O 0.9290(5) 0.1867(3) 0.7053(3)
O23 O 0.6769(6) 0.1673(3) 0.6533(4)
O24 O 0.8832(5) 0.1941(3) 0.9159(3)
O25 O 0.5210(5) 0.1891(3) 0.7178(3)
O26 O 0.8100(5) 0.2446(3) 0.7239(3)
O27 O 0.8006(5) 0.2086(3) 0.8078(3)
O28 O 0.5196(6) 0.1177(3) 0.6394(4)
O29 O 0.8051(6) 0.1173(3) 0.6284(4)
O30 O 0.9139(5) 0.2922(3) 0.6854(3)
O31 O 1.0305(6) 0.3741(3) 0.8880(4)
O32 O 0.9116(5) 0.1269(3) 0.8477(3)
O33 O 0.6328(5) 0.3572(3) 0.6963(4)
O34 O 0.7249(6) 0.4520(3) 0.7155(4)
O35 O 0.6219(5) 0.3122(3) 0.8054(3)
O36 O 0.4870(6) 0.3306(4) 0.5949(4)
O37 O 0.5294(6) 0.2268(3) 0.6273(4)
O38 O 0.7758(6) 0.3329(4) 0.5895(4)
O39 O 0.7818(5) 0.2271(3) 0.6209(3)
O40 O 0.7333(6) 0.1807(3) 0.9343(3)
W1 W 0.75196(3) 0.196841(19) 0.87820(2)
W2 W 0.78478(3) 0.29914(2) 0.64683(2)
W3 W 0.95112(3) 0.198257(19) 0.87447(2)
W4 W 0.56774(3) 0.29835(2) 0.65139(2)
W5 W 0.79016(3) 0.114690(18) 0.79286(2)
W6 W 0.73849(3) 0.34064(2) 0.85460(2)
W7 W 0.80075(4) 0.16845(2) 0.66967(2)
W8 W 0.58655(3) 0.16870(2) 0.67894(2)
W9 W 0.96789(3) 0.248294(19) 0.75143(2)
W10 W 0.74591(4) 0.388568(18) 0.74131(2)
W11 W 0.93277(3) 0.341325(19) 0.84471(2)
W12 W 0.55313(3) 0.25385(2) 0.76386(2)
O41 O 0.6354(11) 0.0511(5) 0.5956(8)
H71 H 0.6008 0.0698 0.6044
H72 H 0.6861 0.0670 0.6077
loop_
_geom_bond_atom_site_label_1
_geom_bond_atom_site_label_2
_geom_bond_site_symmetry_1
_geom_bond_site_symmetry_2
N1 N2 1_555 1_555
N2 C1 1_555 1_555
C1 H1 1_555 1_555
C2 C1 1_555 1_555
H2 C2 1_555 1_555
C3 N1 1_555 1_555
H3 C3 1_555 1_555
C4 N1 1_555 1_555
H4 C4 1_555 1_555
H5 C4 1_555 1_555
C5 C4 1_555 1_555
C6 C5 1_555 1_555
H6 C6 1_555 1_555
C7 C5 1_555 1_555
H7 C7 1_555 1_555
B1 O9 1_555 1_555
C8 H8 1_555 1_555
C9 C8 1_555 1_555
H9 C9 1_555 1_555
C10 C9 1_555 1_555
H10 C10 1_555 1_555
C11 H11 1_555 1_555
H12 C11 1_555 1_555
C12 C11 1_555 1_555
C13 C12 1_555 1_555
H13 C13 1_555 1_555
C14 C13 1_555 1_555
H14 C14 1_555 1_555
C15 C14 1_555 1_555
C16 C15 1_555 1_555
H15 C16 1_555 1_555
C17 C12 1_555 1_555
H16 C17 1_555 1_555
C18 C15 1_555 1_555
H17 C18 1_555 1_555
H18 C18 1_555 1_555
C19 H19 1_555 1_555
C20 C19 1_555 1_555
H20 C20 1_555 1_555
C21 C20 1_555 1_555
H21 C21 1_555 1_555
C22 H22 1_555 1_555
C23 C22 1_555 1_555
H23 C23 1_555 1_555
C24 C23 1_555 1_555
H24 C24 1_555 1_555
C25 H25 1_555 1_555
H26 C25 1_555 1_555
C26 C25 1_555 1_555
C27 C26 1_555 1_555
H27 C27 1_555 1_555
C28 C26 1_555 1_555
H28 C28 1_555 1_555
C29 H29 1_555 1_555
C30 C29 1_555 1_555
H30 C30 1_555 1_555
C31 C30 1_555 1_555
H31 C31 1_555 1_555
C32 H32 1_555 1_555
H33 C32 1_555 1_555
C33 C32 1_555 1_555
C34 C33 1_555 1_555
H34 C34 1_555 1_555
C35 C34 1_555 1_555
H35 C35 1_555 1_555
C36 C35 1_555 1_555
C37 C36 1_555 1_555
H36 C37 1_555 1_555
C38 C33 1_555 1_555
H37 C38 1_555 1_555
C39 C36 1_555 1_555
H38 C39 1_555 1_555
H39 C39 1_555 1_555
C40 H40 1_555 1_555
C41 C40 1_555 1_555
H41 C41 1_555 1_555
C42 C41 1_555 1_555
H42 C42 1_555 1_555
C43 H43 1_555 1_555
C44 C43 1_555 1_555
H44 C44 1_555 1_555
C45 C44 1_555 1_555
H45 C45 1_555 1_555
C46 H46 1_555 1_555
H47 C46 1_555 1_555
C47 C46 1_555 1_555
C48 C47 1_555 1_555
H48 C48 1_555 1_555
C49 C48 1_555 1_555
H49 C49 1_555 1_555
C50 C49 1_555 1_555
C51 C50 1_555 1_555
H50 C51 1_555 1_555
C52 C47 1_555 1_555
H51 C52 1_555 1_555
C53 C50 1_555 1_555
H52 C53 1_555 1_555
H53 C53 1_555 1_555
C54 H54 1_555 1_555
C55 C54 1_555 1_555
H55 C55 1_555 1_555
C56 C55 1_555 1_555
H56 C56 1_555 1_555
C57 H57 1_555 1_555
C58 C57 1_555 1_555
H58 C58 1_555 1_555
C59 C58 1_555 1_555
H59 C59 1_555 1_555
C60 H60 1_555 1_555
H61 C60 1_555 1_555
C61 C60 1_555 1_555
C62 C61 1_555 1_555
H62 C62 1_555 1_555
C63 C62 1_555 1_555
H63 C63 1_555 1_555
C64 C63 1_555 1_555
C65 C64 1_555 1_555
H64 C65 1_555 1_555
C66 C61 1_555 1_555
H65 C66 1_555 1_555
C67 C64 1_555 1_555
H66 C67 1_555 1_555
H67 C67 1_555 1_555
C68 H68 1_555 1_555
C69 C68 1_555 1_555
H69 C69 1_555 1_555
C70 C69 1_555 1_555
H70 C70 1_555 1_555
Cu1 N3 1_555 1_555
Cu2 N5 1_555 1_555
Cu3 N11 1_555 1_555
Cu4 N2 1_555 1_555
Cu5 N16 1_555 1_555
N3 C8 1_555 1_555
N4 C10 1_555 1_555
N5 C21 1_555 1_555
N6 C18 1_555 1_555
N7 C22 1_555 1_555
N8 C24 1_555 1_555
N9 C29 1_555 1_555
N10 C31 1_555 1_555
N11 C42 1_555 1_555
N12 C39 1_555 1_555
N13 C43 1_555 1_555
N14 C45 1_555 1_555
N15 C53 1_555 1_555
N16 C56 1_555 1_555
N17 C57 1_555 1_555
N18 C59 1_555 1_555
N19 C70 1_555 1_555
N20 C67 1_555 1_555
O1 W1 1_555 1_555
O2 W3 1_555 1_555
O3 W9 1_555 1_555
O4 W6 1_555 1_555
O5 W2 1_555 1_555
O6 W6 1_555 1_555
O7 W9 1_555 1_555
O8 W1 1_555 1_555
O9 W4 1_555 1_555
O10 W5 1_555 1_555
O11 W10 1_555 1_555
O12 W4 1_555 1_555
O13 W5 1_555 1_555
O14 W3 1_555 1_555
O15 W3 1_555 1_555
O16 W1 1_555 1_555
O17 W2 1_555 1_555
O18 W6 1_555 1_555
O19 W5 1_555 1_555
O20 W12 1_555 1_555
O21 B1 1_555 1_555
O22 W7 1_555 1_555
O23 W7 1_555 1_555
O24 W1 1_555 1_555
O25 W8 1_555 1_555
O26 B1 1_555 1_555
O27 B1 1_555 1_555
O28 W8 1_555 1_555
O29 W7 1_555 1_555
O30 W2 1_555 1_555
O31 W11 1_555 1_555
O32 W3 1_555 1_555
O33 W4 1_555 1_555
O34 W10 1_555 1_555
O35 W6 1_555 1_555
O36 W4 1_555 1_555
O37 W4 1_555 1_555
O38 W2 1_555 1_555
O39 W2 1_555 1_555
O40 W1 1_555 1_555
O41 H71 1_555 1_555
H72 O41 1_555 1_555
W1 O27 1_555 1_555
W2 O26 1_555 1_555
W3 O24 1_555 1_555
W4 O17 1_555 1_555
W5 O1 1_555 1_555
W6 O8 1_555 1_555
W7 O19 1_555 1_555
W8 O9 1_555 1_555
W9 O2 1_555 1_555
W10 O4 1_555 1_555
W11 O3 1_555 1_555
W12 O9 1_555 1_555
N1B N2B 1_555 1_555
N2B C1B 1_555 1_555
C1B H1B 1_555 1_555
C2B C1B 1_555 1_555
H2B C2B 1_555 1_555
C3B N1B 1_555 1_555
H3B C3B 1_555 1_555
C4B N1B 1_555 1_555
H4B C4B 1_555 1_555
H5B C4B 1_555 1_555
C5B C4B 1_555 1_555
C6B C7 1_555 1_555
H6B C6B 1_555 1_555
C7B C6 1_555 1_555
H7B C7B 1_555 1_555
C8B H8B 1_555 1_555
C9B C8B 1_555 1_555
H9B C9B 1_555 1_555
C10B C9B 1_555 1_555
H10B C10B 1_555 1_555
C11B H11B 1_555 1_555
H12B C11B 1_555 1_555
C12B C11B 1_555 1_555
C13B C12B 1_555 1_555
H13B C13B 1_555 1_555
C14B C13B 1_555 1_555
H14B C14B 1_555 1_555
C15B C14B 1_555 1_555
C16B C15B 1_555 1_555
H15B C16B 1_555 1_555
C17B C12B 1_555 1_555
H16B C17B 1_555 1_555
C18B C15B 1_555 1_555
H17B C18B 1_555 1_555
H18B C18B 1_555 1_555
C19B H19B 1_555 1_555
C20B C19B 1_555 1_555
H20B C20B 1_555 1_555
C21B C20B 1_555 1_555
H21B C21B 1_555 1_555
C22B H22B 1_555 1_555
C23B C22B 1_555 1_555
H23B C23B 1_555 1_555
C24B C23B 1_555 1_555
H24B C24B 1_555 1_555
C25B H25B 1_555 1_555
H26B C25B 1_555 1_555
C26B C25B 1_555 1_555
C27B C28 1_555 1_555
H27B C27B 1_555 1_555
C28B C27 1_555 1_555
H28B C28B 1_555 1_555
C29B H29B 1_555 1_555
C30B C29B 1_555 1_555
H30B C30B 1_555 1_555
C31B C30B 1_555 1_555
H31B C31B 1_555 1_555
C32B H32B 1_555 1_555
H33B C32B 1_555 1_555
C33B C32B 1_555 1_555
C34B C33B 1_555 1_555
H34B C34B 1_555 1_555
C35B C34B 1_555 1_555
H35B C35B 1_555 1_555
C36B C35B 1_555 1_555
C37B C36B 1_555 1_555
H36B C37B 1_555 1_555
C38B C33B 1_555 1_555
H37B C38B 1_555 1_555
C39B C36B 1_555 1_555
H38B C39B 1_555 1_555
H39B C39B 1_555 1_555
C40B H40B 1_555 1_555
C41B C40B 1_555 1_555
H41B C41B 1_555 1_555
C42B C41B 1_555 1_555
H42B C42B 1_555 1_555
C43B H43B 1_555 1_555
C44B C43B 1_555 1_555
H44B C44B 1_555 1_555
C45B C44B 1_555 1_555
H45B C45B 1_555 1_555
C46B H46B 1_555 1_555
H47B C46B 1_555 1_555
C47B C46B 1_555 1_555
C48B C47B 1_555 1_555
H48B C48B 1_555 1_555
C49B C48B 1_555 1_555
H49B C49B 1_555 1_555
C50B C49B 1_555 1_555
C51B C50B 1_555 1_555
H50B C51B 1_555 1_555
C52B C47B 1_555 1_555
H51B C52B 1_555 1_555
C53B C50B 1_555 1_555
H52B C53B 1_555 1_555
H53B C53B 1_555 1_555
C54B H54B 1_555 1_555
C55B C54B 1_555 1_555
H55B C55B 1_555 1_555
C56B C55B 1_555 1_555
H56B C56B 1_555 1_555
C57B H57B 1_555 1_555
C58B C57B 1_555 1_555
H58B C58B 1_555 1_555
C59B C58B 1_555 1_555
H59B C59B 1_555 1_555
C60B H60B 1_555 1_555
H61B C60B 1_555 1_555
C61B C60B 1_555 1_555
C62B C61B 1_555 1_555
H62B C62B 1_555 1_555
C63B C62B 1_555 1_555
H63B C63B 1_555 1_555
C64B C63B 1_555 1_555
C65B C64B 1_555 1_555
H64B C65B 1_555 1_555
C66B C61B 1_555 1_555
H65B C66B 1_555 1_555
C67B C64B 1_555 1_555
H66B C67B 1_555 1_555
H67B C67B 1_555 1_555
C68B H68B 1_555 1_555
C69B C68B 1_555 1_555
H69B C69B 1_555 1_555
C70B C69B 1_555 1_555
H70B C70B 1_555 1_555
Cu1B N3B 1_555 1_555
Cu2B N5B 1_555 1_555
Cu3B N11B 1_555 1_555
Cu4B N2B 1_555 1_555
Cu5B N16B 1_555 1_555
Cu5B_2 N19B 1_555 1_555
N3B C8B 1_555 1_555
N4B C10B 1_555 1_555
N5B C21B 1_555 1_555
N6B C18B 1_555 1_555
N7B C22B 1_555 1_555
N8B C24B 1_555 1_555
N9B C29B 1_555 1_555
N10B C31B 1_555 1_555
N11B C42B 1_555 1_555
N12B C39B 1_555 1_555
N13B C43B 1_555 1_555
N14B C45B 1_555 1_555
N15B C53B 1_555 1_555
N16B C56B 1_555 1_555
N17B C57B 1_555 1_555
N18B C59B 1_555 1_555
N19B C70B 1_555 1_555
N19B_2 Cu5B 1_555 1_555
N20B C67B 1_555 1_555
C2 C3 1_555 1_555
C11 N4 1_555 1_555
C16 C17 1_555 1_555
C19 N6 1_555 1_555
C25 N8 1_555 1_555
C32 N10 1_555 1_555
C37 C38 1_555 1_555
C40 N12 1_555 1_555
C46 N14 1_555 1_555
C51 C52 1_555 1_555
C54 N15 1_555 1_555
C60 N18 1_555 1_555
C65 C66 1_555 1_555
C68 N20 1_555 1_555
Cu1 N9 1_555 1_555
Cu2 N7 1_555 1_555
Cu3 N13 1_555 1_555
Cu4 N17 1_555 1_555
Cu5 N19 1_555 1_555
N3 N4 1_555 1_555
N5 N6 1_555 1_555
N7 N8 1_555 1_555
N9 N10 1_555 1_555
N11 N12 1_555 1_555
N13 N14 1_555 1_555
N15 N16 1_555 1_555
N17 N18 1_555 1_555
N19 N20 1_555 1_555
O5 W10 1_555 1_555
O6 W11 1_555 1_555
O11 W11 1_555 1_555
O12 W12 1_555 1_555
O13 W8 1_555 1_555
O14 W11 1_555 1_555
O16 W12 1_555 1_555
O21 W6 1_555 1_555
O21 W10 1_555 1_555
O21 W11 1_555 1_555
O22 W9 1_555 1_555
O23 W8 1_555 1_555
O25 W12 1_555 1_555
O26 W7 1_555 1_555
O26 W9 1_555 1_555
O27 W3 1_555 1_555
O27 W5 1_555 1_555
O30 W9 1_555 1_555
O32 W5 1_555 1_555
O33 W10 1_555 1_555
O35 W12 1_555 1_555
O37 W8 1_555 1_555
O39 W7 1_555 1_555
C2B C3B 1_555 1_555
C5B C6B 1_555 1_555
C5B C7B 1_555 1_555
C11B N4B 1_555 1_555
C16B C17B 1_555 1_555
C19B N6B 1_555 1_555
C25B N8B 1_555 1_555
C26B C27B 1_555 1_555
C26B C28B 1_555 1_555
C32B N10B 1_555 1_555
C37B C38B 1_555 1_555
C40B N12B 1_555 1_555
C46B N14B 1_555 1_555
C51B C52B 1_555 1_555
C54B N15B 1_555 1_555
C60B N18B 1_555 1_555
C65B C66B 1_555 1_555
C68B N20B 1_555 1_555
Cu1B N9B 1_555 1_555
Cu2B N7B 1_555 1_555
Cu3B N13B 1_555 1_555
Cu4B N17B 1_555 1_555
N3B N4B 1_555 1_555
N5B N6B 1_555 1_555
N7B N8B 1_555 1_555
N9B N10B 1_555 1_555
N11B N12B 1_555 1_555
N13B N14B 1_555 1_555
N15B N16B 1_555 1_555
N17B N18B 1_555 1_555
N19B N20B 1_555 1_555

#END
