
#######################################################################
#
#                 Cambridge Crystallographic Data Centre
#                                CCDC 
#
#######################################################################
#
# If this CIF has been generated from an entry in the Cambridge 
# Structural Database, then it will include bibliographic, chemical, 
# crystal, experimental, refinement or atomic coordinate data resulting 
# from the CCDC's data processing and validation procedures.
#
#######################################################################

data_EYUYIH
_symmetry_cell_setting           triclinic
_symmetry_space_group_name_H-M   'P -1'
_symmetry_Int_Tables_number      2
_space_group_name_Hall           '-P 1'
loop_
_symmetry_equiv_pos_site_id
_symmetry_equiv_pos_as_xyz
1 x,y,z
2 -x,-y,-z
_cell_length_a                   13.5520(8)
_cell_length_b                   17.7940(10)
_cell_length_c                   19.5140(11)
_cell_angle_alpha                73.946(1)
_cell_angle_beta                 81.002(1)
_cell_angle_gamma                86.582(1)
_cell_volume                     4465.86
loop_
_atom_site_label
_atom_site_type_symbol
_atom_site_fract_x
_atom_site_fract_y
_atom_site_fract_z
Ni1 Ni 0.6623(5) -0.5992(4) 0.3889(3)
Ni2 Ni 0.7456(5) -0.5909(4) -0.1347(3)
Y1 Y 0.7856(4) -0.0352(3) 0.0602(2)
Y2 Y 0.5806(4) -0.0468(3) -0.3902(3)
C1 C 0.685(4) -0.654(3) 0.245(3)
C2 C 0.774(4) -0.622(4) 0.204(3)
H1 H 0.8101 -0.5879 0.2185
C3 C 0.806(5) -0.644(4) 0.142(3)
H2 H 0.8648 -0.6230 0.1128
C4 C 0.753(5) -0.696(4) 0.121(3)
H3 H 0.7778 -0.7100 0.0791
C5 C 0.665(5) -0.728(3) 0.160(3)
H4 H 0.6304 -0.7635 0.1462
C6 C 0.632(4) -0.705(3) 0.222(3)
C7 C 0.558(4) -0.689(3) 0.326(3)
C8 C 0.488(4) -0.697(3) 0.394(3)
H5 H 0.4362 -0.6561 0.3863
H6 H 0.4559 -0.7471 0.4084
C9 C 0.855(4) -0.704(3) 0.429(3)
C10 C 0.935(5) -0.657(4) 0.395(3)
H7 H 0.9271 -0.6067 0.3665
C11 C 1.030(5) -0.689(4) 0.406(3)
H8 H 1.0858 -0.6591 0.3840
C12 C 1.042(5) -0.765(4) 0.449(4)
H9 H 1.1060 -0.7841 0.4544
C13 C 0.963(5) -0.812(4) 0.483(3)
H10 H 0.9714 -0.8620 0.5125
C14 C 0.869(4) -0.780(3) 0.472(3)
C15 C 0.708(4) -0.753(3) 0.470(3)
C16 C 0.598(4) -0.763(3) 0.481(3)
H11 H 0.5744 -0.7814 0.5326
H12 H 0.5834 -0.8028 0.4591
C17 C 0.666(4) -0.522(3) 0.518(3)
C18 C 0.748(5) -0.472(3) 0.495(3)
H13 H 0.7849 -0.4647 0.4490
C19 C 0.772(5) -0.435(4) 0.544(4)
H14 H 0.8255 -0.4016 0.5305
C20 C 0.717(5) -0.447(4) 0.612(4)
H15 H 0.7361 -0.4217 0.6440
C21 C 0.634(5) -0.494(3) 0.635(3)
H16 H 0.5969 -0.5015 0.6802
C22 C 0.611(4) -0.531(3) 0.586(3)
C23 C 0.549(4) -0.603(3) 0.527(3)
C24 C 0.486(4) -0.656(3) 0.507(3)
H17 H 0.4275 -0.6277 0.4888
H18 H 0.4628 -0.6986 0.5486
C25 C 0.706(4) -0.464(3) 0.305(3)
C26 C 0.753(4) -0.393(3) 0.251(3)
C27 C 0.696(4) -0.337(3) 0.208(3)
H19 H 0.6274 -0.3410 0.2150
C28 C 0.742(4) -0.273(3) 0.156(3)
C29 C 0.845(4) -0.268(3) 0.148(3)
H20 H 0.8769 -0.2257 0.1127
C30 C 0.901(4) -0.322(3) 0.189(3)
H21 H 0.9700 -0.3166 0.1841
C31 C 0.856(4) -0.386(3) 0.240(3)
H22 H 0.8942 -0.4246 0.2675
C32 C 0.681(5) -0.214(3) 0.108(3)
C33 C 0.817(4) 0.029(3) -0.091(3)
C34 C 0.826(4) 0.058(3) -0.172(3)
C35 C 0.898(5) 0.113(4) -0.209(3)
H23 H 0.9418 0.1306 -0.1852
C36 C 0.904(5) 0.140(4) -0.284(3)
H24 H 0.9534 0.1757 -0.3101
C37 C 0.838(5) 0.115(4) -0.319(3)
H25 H 0.8415 0.1344 -0.3690
C38 C 0.766(4) 0.061(3) -0.283(3)
C39 C 0.762(4) 0.033(3) -0.208(3)
H26 H 0.7145 -0.0048 -0.1828
C40 C 0.693(5) 0.032(3) -0.320(3)
C41 C 0.905(4) 0.070(3) 0.135(3)
C42 C 0.865(4) 0.084(3) 0.206(3)
C43 C 0.929(5) 0.098(4) 0.248(3)
H27 H 0.9980 0.0955 0.2335
C44 C 0.893(5) 0.115(6) 0.313(4)
H28 H 0.9378 0.1244 0.3415
C45 C 0.792(5) 0.117(5) 0.336(3)
H29 H 0.7670 0.1303 0.3780
C46 C 0.726(4) 0.099(3) 0.295(3)
C47 C 0.763(4) 0.084(3) 0.229(3)
H30 H 0.7187 0.0754 0.2002
C48 C 0.616(4) 0.093(3) 0.323(3)
C49 C 0.761(4) -0.099(3) 0.210(3)
C50 C 0.747(4) -0.134(3) 0.289(3)
C51 C 0.671(4) -0.107(3) 0.334(2)
H31 H 0.6252 -0.0706 0.3129
C52 C 0.662(4) -0.135(3) 0.408(3)
C53 C 0.729(5) -0.192(4) 0.438(3)
H32 H 0.7234 -0.2115 0.4873
C54 C 0.803(5) -0.221(4) 0.394(3)
H33 H 0.8464 -0.2602 0.4147
C55 C 0.813(5) -0.192(4) 0.319(3)
H34 H 0.8634 -0.2107 0.2901
C56 C 0.587(4) -0.099(3) 0.456(3)
C57 C 0.709(4) -0.168(3) -0.335(3)
C58 C 0.773(4) -0.229(3) -0.292(3)
C59 C 0.863(5) -0.209(3) -0.278(3)
H35 H 0.8841 -0.1576 -0.2969
C60 C 0.921(5) -0.264(3) -0.237(4)
H36 H 0.9808 -0.2496 -0.2271
C61 C 0.891(5) -0.341(3) -0.212(3)
H37 H 0.9312 -0.3783 -0.1853
C62 C 0.801(4) -0.363(3) -0.225(3)
C63 C 0.742(4) -0.306(3) -0.265(3)
H38 H 0.6805 -0.3197 -0.2742
C64 C 0.768(4) -0.446(3) -0.196(3)
C65 C 0.837(4) -0.610(3) -0.293(3)
C66 C 0.920(4) -0.562(3) -0.317(3)
H39 H 0.9390 -0.5322 -0.2890
C67 C 0.972(5) -0.560(4) -0.385(4)
H40 H 1.0277 -0.5278 -0.4026
C68 C 0.943(6) -0.604(5) -0.426(4)
H41 H 0.9803 -0.6013 -0.4712
C69 C 0.861(6) -0.651(4) -0.404(3)
H42 H 0.8425 -0.6809 -0.4318
C70 C 0.809(5) -0.653(3) -0.336(3)
C71 C 0.708(4) -0.675(3) -0.233(3)
C72 C 0.625(4) -0.705(3) -0.174(3)
H43 H 0.6106 -0.7588 -0.1713
H44 H 0.5646 -0.6737 -0.1814
C73 C 0.924(4) -0.658(3) -0.048(3)
C74 C 0.977(4) -0.593(3) -0.051(3)
H45 H 0.9605 -0.5435 -0.0787
C75 C 1.055(5) -0.603(4) -0.013(3)
H46 H 1.0922 -0.5603 -0.0140
C76 C 1.082(5) -0.678(4) 0.029(3)
H47 H 1.1356 -0.6833 0.0541
C77 C 1.028(4) -0.744(3) 0.033(3)
H48 H 1.0452 -0.7929 0.0605
C78 C 0.948(4) -0.732(3) -0.006(3)
C79 C 0.817(4) -0.738(3) -0.058(3)
C80 C 0.730(4) -0.767(3) -0.082(3)
H49 H 0.7540 -0.7899 -0.1212
H50 H 0.6967 -0.8075 -0.0422
C81 C 0.648(4) -0.531(3) 0.002(3)
C82 C 0.702(4) -0.466(3) 0.000(3)
H51 H 0.7521 -0.4463 -0.0377
C83 C 0.677(5) -0.432(4) 0.057(4)
H52 H 0.7115 -0.3890 0.0576
C84 C 0.599(5) -0.462(4) 0.113(4)
H53 H 0.5844 -0.4386 0.1507
C85 C 0.545(5) -0.525(4) 0.115(3)
H54 H 0.4933 -0.5446 0.1529
C86 C 0.570(4) -0.558(3) 0.058(3)
C87 C 0.590(4) -0.633(3) -0.016(3)
C88 C 0.574(4) -0.698(3) -0.048(3)
H55 H 0.5690 -0.7471 -0.0110
H56 H 0.5118 -0.6886 -0.0684
N1 N 0.636(3) -0.645(2) 0.310(2)
N2 N 0.550(3) -0.725(2) 0.275(2)
H57 H 0.5027 -0.7550 0.2748
N3 N 0.753(3) -0.689(2) 0.430(2)
N4 N 0.773(4) -0.808(3) 0.497(2)
H58 H 0.7587 -0.8543 0.5245
N5 N 0.627(3) -0.568(2) 0.482(2)
N6 N 0.537(3) -0.583(2) 0.590(2)
H59 H 0.4916 -0.6000 0.6262
N7 N 0.545(3) -0.688(2) 0.450(2)
N8 N 0.773(3) -0.625(3) -0.228(2)
N9 N 0.725(4) -0.694(3) -0.296(2)
H60 H 0.6903 -0.7250 -0.3088
N10 N 0.841(3) -0.664(2) -0.080(2)
N11 N 0.879(3) -0.782(2) -0.014(2)
H61 H 0.8764 -0.8319 0.0046
N12 N 0.658(3) -0.579(3) -0.044(2)
N13 N 0.534(3) -0.623(3) 0.045(2)
H62 H 0.4848 -0.6511 0.0700
N14 N 0.658(3) -0.702(2) -0.105(2)
O1 O 0.764(3) -0.519(2) 0.3330(18)
O2 O 0.613(3) -0.470(2) 0.321(2)
O3 O 0.723(3) -0.151(2) 0.0709(19)
O4 O 0.593(3) -0.229(3) 0.107(3)
O5 O 0.856(3) 0.064(2) -0.0556(17)
O6 O 0.766(3) -0.032(2) -0.0599(18)
O7 O 0.690(4) 0.063(2) -0.386(2)
O8 O 0.634(3) -0.021(3) -0.286(2)
O9 O 0.842(3) 0.0644(19) 0.0938(17)
O10 O 0.997(3) 0.069(2) 0.1157(19)
O11 O 0.556(3) 0.075(2) 0.2872(18)
O12 O 0.585(3) 0.101(2) 0.3856(18)
O13 O 0.845(3) -0.103(2) 0.1727(17)
O14 O 0.688(3) -0.063(2) 0.1794(17)
O15 O 0.519(3) -0.058(2) 0.4285(18)
O16 O 0.596(3) -0.115(2) 0.5211(19)
O17 O 0.746(3) -0.107(2) -0.3786(19)
O18 O 0.615(3) -0.178(2) -0.3244(19)
O19 O 0.686(3) -0.467(2) -0.206(2)
O20 O 0.829(3) -0.494(2) -0.1621(19)
O21 O 0.945(3) -0.0828(19) 0.0257(18)
H63 H 0.964(9) -0.071(6) -0.02(2)
H64 H 0.99(2) -0.081(2) 0.042(7)
O22 O 0.642(3) 0.041(2) 0.0431(19)
H65 H 0.609(6) 0.053(3) 0.002(7)
H66 H 0.616(5) 0.059(4) 0.074(5)
O23 O 0.677(4) 0.025(3) -0.503(2)
H67 H 0.654(5) 0.048(4) -0.549(7)
H68 H 0.745(11) 0.021(3) -0.508(3)
Y2A Y 0.4194(4) 0.0468(3) 0.3902(3)
Y2_2 Y 0.5806(4) -0.0468(3) 0.6098(3)
O11A O 0.444(3) -0.075(2) -0.2872(18)
O12A O 0.415(3) -0.101(2) -0.3856(18)
O15A O 0.481(3) 0.058(2) -0.4285(18)
O16_2 O 0.596(3) -0.115(2) -0.4789(19)
O24 O 0.488(3) -0.085(3) 0.211(2)
O25 O 0.549(4) 0.103(3) -0.075(2)
H69 H 0.499(12) 0.131(7) -0.062(4)
H70 H 0.537(5) 0.091(4) -0.115(10)
O26 O 0.533(4) 0.106(3) 0.139(3)
H71 H 0.543(4) 0.096(4) 0.186(8)
H72 H 0.471(10) 0.127(4) 0.136(3)
O27 O 0.644(5) -0.154(3) -0.062(3)
H73 H 0.681(11) -0.114(10) -0.067(3)
H74 H 0.667(8) -0.173(6) -0.099(10)
O28 O 0.418(6) -0.213(3) 0.327(4)
H75 H 0.396(8) -0.171(11) 0.298(8)
O29 O 0.616(5) -0.268(4) -0.122(3)
O30 O 0.887(6) -0.009(5) 0.516(6)
loop_
_geom_bond_atom_site_label_1
_geom_bond_atom_site_label_2
_geom_bond_site_symmetry_1
_geom_bond_site_symmetry_2
Ni1 N1 1_555 1_555
Ni2 N8 1_555 1_555
Y1 O3 1_555 1_555
Y2 O7 1_555 1_555
C1 C2 1_555 1_555
C2 H1 1_555 1_555
C3 C2 1_555 1_555
H2 C3 1_555 1_555
C4 C3 1_555 1_555
H3 C4 1_555 1_555
C5 C4 1_555 1_555
H4 C5 1_555 1_555
C6 C1 1_555 1_555
C7 C8 1_555 1_555
C8 H5 1_555 1_555
H6 C8 1_555 1_555
C9 C10 1_555 1_555
C10 H7 1_555 1_555
C11 C10 1_555 1_555
H8 C11 1_555 1_555
C12 C11 1_555 1_555
H9 C12 1_555 1_555
C13 C12 1_555 1_555
H10 C13 1_555 1_555
C14 C9 1_555 1_555
C15 C16 1_555 1_555
C16 H11 1_555 1_555
H12 C16 1_555 1_555
C17 C18 1_555 1_555
C18 H13 1_555 1_555
C19 C18 1_555 1_555
H14 C19 1_555 1_555
C20 C19 1_555 1_555
H15 C20 1_555 1_555
C21 C20 1_555 1_555
H16 C21 1_555 1_555
C22 C17 1_555 1_555
C23 C24 1_555 1_555
C24 H17 1_555 1_555
H18 C24 1_555 1_555
C25 C26 1_555 1_555
C26 C27 1_555 1_555
C27 H19 1_555 1_555
C28 C27 1_555 1_555
C29 C28 1_555 1_555
H20 C29 1_555 1_555
C30 C29 1_555 1_555
H21 C30 1_555 1_555
C31 C26 1_555 1_555
H22 C31 1_555 1_555
C32 C28 1_555 1_555
C33 C34 1_555 1_555
C34 C35 1_555 1_555
C35 H23 1_555 1_555
C36 C35 1_555 1_555
H24 C36 1_555 1_555
C37 C36 1_555 1_555
H25 C37 1_555 1_555
C38 C37 1_555 1_555
C39 C34 1_555 1_555
H26 C39 1_555 1_555
C40 C38 1_555 1_555
C41 C42 1_555 1_555
C42 C43 1_555 1_555
C43 H27 1_555 1_555
C44 C43 1_555 1_555
H28 C44 1_555 1_555
C45 C44 1_555 1_555
H29 C45 1_555 1_555
C46 C45 1_555 1_555
C47 C42 1_555 1_555
H30 C47 1_555 1_555
C48 C46 1_555 1_555
C49 C50 1_555 1_555
C50 C51 1_555 1_555
C51 H31 1_555 1_555
C52 C51 1_555 1_555
C53 C52 1_555 1_555
H32 C53 1_555 1_555
C54 C53 1_555 1_555
H33 C54 1_555 1_555
C55 C50 1_555 1_555
H34 C55 1_555 1_555
C56 C52 1_555 1_555
C57 C58 1_555 1_555
C58 C59 1_555 1_555
C59 H35 1_555 1_555
C60 C59 1_555 1_555
H36 C60 1_555 1_555
C61 C60 1_555 1_555
H37 C61 1_555 1_555
C62 C61 1_555 1_555
C63 C58 1_555 1_555
H38 C63 1_555 1_555
C64 C62 1_555 1_555
C65 C66 1_555 1_555
C66 H39 1_555 1_555
C67 C66 1_555 1_555
H40 C67 1_555 1_555
C68 C67 1_555 1_555
H41 C68 1_555 1_555
C69 C68 1_555 1_555
H42 C69 1_555 1_555
C70 C65 1_555 1_555
C71 C72 1_555 1_555
C72 H43 1_555 1_555
H44 C72 1_555 1_555
C73 C74 1_555 1_555
C74 H45 1_555 1_555
C75 C74 1_555 1_555
H46 C75 1_555 1_555
C76 C75 1_555 1_555
H47 C76 1_555 1_555
C77 C76 1_555 1_555
H48 C77 1_555 1_555
C78 C73 1_555 1_555
C79 C80 1_555 1_555
C80 H49 1_555 1_555
H50 C80 1_555 1_555
C81 C82 1_555 1_555
C82 H51 1_555 1_555
C83 C82 1_555 1_555
H52 C83 1_555 1_555
C84 C83 1_555 1_555
H53 C84 1_555 1_555
C85 C84 1_555 1_555
H54 C85 1_555 1_555
C86 C81 1_555 1_555
C87 C88 1_555 1_555
C88 H55 1_555 1_555
H56 C88 1_555 1_555
N1 C1 1_555 1_555
N2 C6 1_555 1_555
H57 N2 1_555 1_555
N3 Ni1 1_555 1_555
N4 C14 1_555 1_555
H58 N4 1_555 1_555
N5 Ni1 1_555 1_555
N6 C22 1_555 1_555
H59 N6 1_555 1_555
N7 Ni1 1_555 1_555
N8 C65 1_555 1_555
N9 C70 1_555 1_555
H60 N9 1_555 1_555
N10 Ni2 1_555 1_555
N11 C78 1_555 1_555
H61 N11 1_555 1_555
N12 Ni2 1_555 1_555
N13 C86 1_555 1_555
H62 N13 1_555 1_555
N14 Ni2 1_555 1_555
O1 Ni1 1_555 1_555
O2 C25 1_555 1_555
O3 C32 1_555 1_555
O4 C32 1_555 1_555
O5 Y1 1_555 1_555
O6 Y1 1_555 1_555
O7 C40 1_555 1_555
O8 Y2 1_555 1_555
O9 Y1 1_555 1_555
O10 C41 1_555 1_555
O11 C48 1_555 1_555
O12 C48 1_555 1_555
O13 Y1 1_555 1_555
O14 Y1 1_555 1_555
O15 C56 1_555 1_555
O16 C56 1_555 1_555
O17 Y2 1_555 1_555
O18 Y2 1_555 1_555
O19 C64 1_555 1_555
O20 Ni2 1_555 1_555
O21 Y1 1_555 1_555
H63 O21 1_555 1_555
H64 O21 1_555 1_555
O22 Y1 1_555 1_555
H65 O22 1_555 1_555
H66 O22 1_555 1_555
O23 Y2 1_555 1_555
H67 O23 1_555 1_555
H68 O23 1_555 1_555
O25 H69 1_555 1_555
H70 O25 1_555 1_555
O26 H71 1_555 1_555
H72 O26 1_555 1_555
O27 H73 1_555 1_555
H74 O27 1_555 1_555
O28 H75 1_555 1_555
Y2A O11 1_555 1_555
Y2_2 O16 1_555 1_555
O11A Y2 1_555 1_555
O12A Y2 1_555 1_555
O15A Y2 1_555 1_555
O16_2 Y2 1_555 1_555
C5 C6 1_555 1_555
C7 N1 1_555 1_555
C7 N2 1_555 1_555
C8 N7 1_555 1_555
C9 N3 1_555 1_555
C13 C14 1_555 1_555
C15 N3 1_555 1_555
C15 N4 1_555 1_555
C16 N7 1_555 1_555
C17 N5 1_555 1_555
C21 C22 1_555 1_555
C23 N5 1_555 1_555
C23 N6 1_555 1_555
C24 N7 1_555 1_555
C25 O1 1_555 1_555
C30 C31 1_555 1_555
C33 O5 1_555 1_555
C33 O6 1_555 1_555
C38 C39 1_555 1_555
C40 O8 1_555 1_555
C41 O9 1_555 1_555
C46 C47 1_555 1_555
C49 O13 1_555 1_555
C49 O14 1_555 1_555
C54 C55 1_555 1_555
C57 O17 1_555 1_555
C57 O18 1_555 1_555
C62 C63 1_555 1_555
C64 O20 1_555 1_555
C69 C70 1_555 1_555
C71 N8 1_555 1_555
C71 N9 1_555 1_555
C72 N14 1_555 1_555
C73 N10 1_555 1_555
C77 C78 1_555 1_555
C79 N10 1_555 1_555
C79 N11 1_555 1_555
C80 N14 1_555 1_555
C81 N12 1_555 1_555
C85 C86 1_555 1_555
C87 N12 1_555 1_555
C87 N13 1_555 1_555
C88 N14 1_555 1_555
O12 Y2A 1_555 1_555
O15 Y2A 1_555 1_555

#END
