
#######################################################################
#
#                 Cambridge Crystallographic Data Centre
#                                CCDC 
#
#######################################################################
#
# If this CIF has been generated from an entry in the Cambridge 
# Structural Database, then it will include bibliographic, chemical, 
# crystal, experimental, refinement or atomic coordinate data resulting 
# from the CCDC's data processing and validation procedures.
#
#######################################################################

data_EYUYAZ
_symmetry_cell_setting           monoclinic
_symmetry_space_group_name_H-M   'P 21/c'
_symmetry_Int_Tables_number      14
_space_group_name_Hall           '-P 2ybc'
loop_
_symmetry_equiv_pos_site_id
_symmetry_equiv_pos_as_xyz
1 x,y,z
2 -x,1/2+y,1/2-z
3 -x,-y,-z
4 x,1/2-y,1/2+z
_cell_length_a                   14.294(3)
_cell_length_b                   13.645(2)
_cell_length_c                   25.265(5)
_cell_angle_alpha                90
_cell_angle_beta                 93.582(9)
_cell_angle_gamma                90
_cell_volume                     4918.1
loop_
_atom_site_label
_atom_site_type_symbol
_atom_site_fract_x
_atom_site_fract_y
_atom_site_fract_z
Zn1 Zn 0.83199(4) 0.65299(4) -0.01541(2)
Er1 Er 1.364509(13) 0.641174(12) 0.322147(7)
Er2 Er 1.350452(13) 0.876593(12) 0.208167(7)
C1 C 1.1170(3) 0.6476(3) 0.20227(16)
C2 C 1.0895(3) 0.5566(3) 0.22068(19)
H1 H 1.1166 0.5315 0.2523
C3 C 1.0217(4) 0.5040(4) 0.1917(2)
H2 H 1.0042 0.4425 0.2035
C4 C 0.9794(3) 0.5415(3) 0.1453(2)
H3 H 0.9342 0.5052 0.1259
C5 C 1.0046(3) 0.6338(3) 0.12790(17)
C6 C 1.0740(3) 0.6865(3) 0.15620(17)
H4 H 1.0916 0.7478 0.1443
C7 C 1.1953(3) 0.7033(3) 0.23093(17)
C8 C 0.9554(3) 0.6795(4) 0.07880(19)
C9 C 1.4337(3) 0.9390(3) 0.35958(16)
C10 C 1.4194(3) 0.9725(3) 0.41028(17)
H5 H 1.3862 0.9342 0.4331
C11 C 1.4541(4) 1.0625(4) 0.42703(19)
H6 H 1.4444 1.0844 0.4611
C12 C 1.5029(3) 1.1197(3) 0.39353(18)
H7 H 1.5249 1.1808 0.4048
C13 C 1.5195(3) 1.0871(3) 0.34315(15)
C14 C 1.4854(3) 0.9965(3) 0.32634(15)
H8 H 1.4970 0.9739 0.2927
C15 C 1.5718(3) 1.1503(3) 0.30606(17)
C16 C 1.3964(3) 0.8419(3) 0.34261(16)
C17 C 1.2428(3) 0.5266(3) 0.55693(17)
C18 C 1.1560(3) 0.4795(3) 0.55015(18)
H9 H 1.1241 0.4614 0.5796
C19 C 1.1176(3) 0.4600(4) 0.49987(19)
H10 H 1.0617 0.4251 0.4955
C20 C 1.1619(3) 0.4921(3) 0.45595(18)
H11 H 1.1338 0.4823 0.4221
C21 C 1.2480(3) 0.5389(3) 0.46223(16)
C22 C 1.2893(3) 0.5533(3) 0.51256(17)
H12 H 1.3487 0.5810 0.5167
C23 C 1.2826(3) 0.5526(3) 0.61076(17)
C24 C 1.2947(3) 0.5747(3) 0.41488(16)
C25 C 1.2836(3) 0.1576(3) 0.26963(16)
C26 C 1.1943(3) 0.1775(3) 0.28622(19)
H13 H 1.1494 0.1281 0.2859
C27 C 1.1727(3) 0.2697(3) 0.3029(2)
H14 H 1.1125 0.2832 0.3128
C28 C 1.2398(3) 0.3429(3) 0.3052(2)
H15 H 1.2246 0.4053 0.3169
C29 C 1.3305(3) 0.3234(3) 0.29008(16)
C30 C 1.3505(3) 0.2310(3) 0.27096(16)
H16 H 1.4095 0.2183 0.2589
C31 C 1.3062(3) 0.0568(3) 0.25090(17)
C32 C 1.4061(3) 0.3997(3) 0.29774(15)
C33 C 0.7104(3) 0.7798(4) 0.0495(2)
H17 H 0.7624 0.7798 0.0735
C34 C 0.6318(4) 0.8322(4) 0.0615(2)
H18 H 0.6302 0.8670 0.0931
C35 C 0.5563(4) 0.8311(4) 0.0251(3)
H19 H 0.5028 0.8666 0.0319
C36 C 0.5585(4) 0.7789(4) -0.0204(3)
H20 H 0.5067 0.7776 -0.0446
C37 C 0.6389(3) 0.7278(4) -0.0304(2)
C38 C 0.6449(3) 0.6641(4) -0.0790(2)
H21 H 0.6191 0.6000 -0.0721
H22 H 0.6077 0.6931 -0.1084
C39 C 0.7939(4) 0.4399(4) 0.0120(3)
H23 H 0.8137 0.4592 0.0462
C40 C 0.7654(5) 0.3440(5) 0.0033(4)
H24 H 0.7642 0.2994 0.0311
C41 C 0.7394(5) 0.3173(5) -0.0472(4)
H25 H 0.7211 0.2529 -0.0541
C42 C 0.7395(4) 0.3831(5) -0.0882(3)
H26 H 0.7231 0.3639 -0.1229
C43 C 0.7645(3) 0.4786(4) -0.0763(2)
C44 C 0.7613(4) 0.5581(5) -0.1177(2)
H27 H 0.8207 0.5605 -0.1343
H28 H 0.7125 0.5436 -0.1449
C45 C 1.0087(4) 0.7384(4) -0.0562(2)
H29 H 1.0362 0.7182 -0.0236
C46 C 1.0624(4) 0.7854(5) -0.0909(3)
H30 H 1.1253 0.7978 -0.0817
C47 C 1.0249(5) 0.8140(5) -0.1386(3)
H31 H 1.0619 0.8448 -0.1626
C48 C 0.9304(5) 0.7973(5) -0.1516(2)
H32 H 0.9028 0.8165 -0.1843
C49 C 0.8788(4) 0.7511(4) -0.1143(2)
C50 C 0.7744(4) 0.7367(5) -0.1239(2)
H33 H 0.7419 0.7953 -0.1135
H34 H 0.7594 0.7259 -0.1614
N1 N 0.7144(3) 0.7287(3) 0.00414(16)
N2 N 0.7939(3) 0.5057(3) -0.02708(18)
N3 N 0.9167(3) 0.7203(3) -0.06759(16)
N4 N 0.7429(3) 0.6531(3) -0.09379(16)
O1 O 1.2321(2) 0.6652(3) 0.27249(13)
O2 O 1.2183(2) 0.7841(2) 0.21312(13)
O3 O 0.9058(3) 0.6202(3) 0.04957(14)
O4 O 0.9627(3) 0.7664(3) 0.07035(16)
O5 O 1.3943(2) 0.81651(19) 0.29402(11)
O6 O 1.3708(2) 0.7827(2) 0.37649(12)
O7 O 1.5763(3) 1.1218(2) 0.25945(13)
O8 O 1.6073(2) 1.2276(2) 0.32402(12)
O9 O 1.3818(2) 0.5872(2) 0.41605(12)
O10 O 1.2437(2) 0.5929(2) 0.37337(12)
O11 O 1.3659(3) 0.5838(3) 0.61752(13)
O12 O 1.2324(2) 0.5465(3) 0.64948(12)
O13 O 1.3746(2) 0.0466(2) 0.22093(12)
O14 O 1.2626(2) -0.0163(2) 0.26481(12)
O15 O 1.4874(2) 0.3785(2) 0.28745(12)
O16 O 1.3815(2) 0.4806(2) 0.31596(14)
O17 O 1.5275(2) 0.6399(2) 0.34720(12)
Er1A Er 1.635491(13) 1.141174(12) 0.177853(7)
Er2A Er 1.649548(13) 1.376593(12) 0.291833(7)
Er2C Er 1.350452(13) 0.623407(12) 0.708167(7)
Er2_2 Er 1.350452(13) -0.123407(12) 0.208167(7)
Er2A_2 Er 1.649548(13) 0.376593(12) 0.291833(7)
O7A O 1.4237(3) 0.6218(2) 0.24055(13)
O8A O 1.3927(2) 0.7276(2) 0.17598(12)
O11C O 1.3659(3) 0.9162(3) 0.11752(13)
O12C O 1.2324(2) 0.9535(3) 0.14948(12)
O13_2 O 1.3746(2) 1.0466(2) 0.22093(12)
O14_2 O 1.2626(2) 0.9837(2) 0.26481(12)
O15A O 1.5126(2) 0.8785(2) 0.21255(12)
O18 O 0.8234(7) 0.3760(7) 0.1541(4)
O19 O 0.9877(4) 0.4297(4) 0.3494(3)
loop_
_geom_bond_atom_site_label_1
_geom_bond_atom_site_label_2
_geom_bond_site_symmetry_1
_geom_bond_site_symmetry_2
Zn1 N1 1_555 1_555
Er1 O1 1_555 1_555
Er2 O2 1_555 1_555
C1 C2 1_555 1_555
C2 H1 1_555 1_555
C3 C2 1_555 1_555
H2 C3 1_555 1_555
C4 C3 1_555 1_555
H3 C4 1_555 1_555
C5 C4 1_555 1_555
C6 C1 1_555 1_555
H4 C6 1_555 1_555
C7 C1 1_555 1_555
C8 C5 1_555 1_555
C9 C10 1_555 1_555
C10 H5 1_555 1_555
C11 C10 1_555 1_555
H6 C11 1_555 1_555
C12 C11 1_555 1_555
H7 C12 1_555 1_555
C13 C12 1_555 1_555
C14 C9 1_555 1_555
H8 C14 1_555 1_555
C15 C13 1_555 1_555
C16 C9 1_555 1_555
C17 C18 1_555 1_555
C18 H9 1_555 1_555
C19 C18 1_555 1_555
H10 C19 1_555 1_555
C20 C19 1_555 1_555
H11 C20 1_555 1_555
C21 C20 1_555 1_555
C22 C17 1_555 1_555
H12 C22 1_555 1_555
C23 C17 1_555 1_555
C24 C21 1_555 1_555
C25 C26 1_555 1_555
C26 H13 1_555 1_555
C27 C26 1_555 1_555
H14 C27 1_555 1_555
C28 C27 1_555 1_555
H15 C28 1_555 1_555
C29 C28 1_555 1_555
C30 C25 1_555 1_555
H16 C30 1_555 1_555
C31 C25 1_555 1_555
C32 C29 1_555 1_555
C33 H17 1_555 1_555
C34 C33 1_555 1_555
H18 C34 1_555 1_555
C35 C34 1_555 1_555
H19 C35 1_555 1_555
C36 C35 1_555 1_555
H20 C36 1_555 1_555
C37 C36 1_555 1_555
C38 C37 1_555 1_555
H21 C38 1_555 1_555
H22 C38 1_555 1_555
C39 H23 1_555 1_555
C40 C39 1_555 1_555
H24 C40 1_555 1_555
C41 C40 1_555 1_555
H25 C41 1_555 1_555
C42 C41 1_555 1_555
H26 C42 1_555 1_555
C43 C42 1_555 1_555
C44 C43 1_555 1_555
H27 C44 1_555 1_555
H28 C44 1_555 1_555
C45 H29 1_555 1_555
C46 C45 1_555 1_555
H30 C46 1_555 1_555
C47 C46 1_555 1_555
H31 C47 1_555 1_555
C48 C47 1_555 1_555
H32 C48 1_555 1_555
C49 C48 1_555 1_555
C50 C49 1_555 1_555
H33 C50 1_555 1_555
H34 C50 1_555 1_555
N1 C33 1_555 1_555
N2 Zn1 1_555 1_555
N3 Zn1 1_555 1_555
N4 Zn1 1_555 1_555
O1 C7 1_555 1_555
O2 C7 1_555 1_555
O3 Zn1 1_555 1_555
O4 C8 1_555 1_555
O5 Er1 1_555 1_555
O6 Er1 1_555 1_555
O7 C15 1_555 1_555
O8 C15 1_555 1_555
O9 Er1 1_555 1_555
O10 Er1 1_555 1_555
O11 C23 1_555 1_555
O12 C23 1_555 1_555
O13 C31 1_555 1_555
O14 C31 1_555 1_555
O15 C32 1_555 1_555
O16 Er1 1_555 1_555
O17 Er1 1_555 1_555
Er1A O7 1_555 1_555
Er2A O8 1_555 1_555
Er2C O11 1_555 1_555
Er2_2 O13 1_555 1_555
Er2A_2 O15 1_555 1_555
O7A Er1 1_555 1_555
O8A Er2 1_555 1_555
O11C Er2 1_555 1_555
O12C Er2 1_555 1_555
O13_2 Er2 1_555 1_555
O14_2 Er2 1_555 1_555
O15A Er2 1_555 1_555
Er2 O5 1_555 1_555
C5 C6 1_555 1_555
C8 O3 1_555 1_555
C13 C14 1_555 1_555
C16 O5 1_555 1_555
C16 O6 1_555 1_555
C21 C22 1_555 1_555
C24 O9 1_555 1_555
C24 O10 1_555 1_555
C29 C30 1_555 1_555
C32 O16 1_555 1_555
C37 N1 1_555 1_555
C38 N4 1_555 1_555
C39 N2 1_555 1_555
C43 N2 1_555 1_555
C44 N4 1_555 1_555
C45 N3 1_555 1_555
C49 N3 1_555 1_555
C50 N4 1_555 1_555
O12 Er2C 1_555 1_555
O14 Er2_2 1_555 1_555

#END
