
#######################################################################
#
#                 Cambridge Crystallographic Data Centre
#                                CCDC 
#
#######################################################################
#
# If this CIF has been generated from an entry in the Cambridge 
# Structural Database, then it will include bibliographic, chemical, 
# crystal, experimental, refinement or atomic coordinate data resulting 
# from the CCDC's data processing and validation procedures.
#
#######################################################################

data_EYUZAZ
_symmetry_cell_setting           monoclinic
_symmetry_space_group_name_H-M   'C 2/c'
_symmetry_Int_Tables_number      15
_space_group_name_Hall           '-C 2yn'
loop_
_symmetry_equiv_pos_site_id
_symmetry_equiv_pos_as_xyz
1 x,y,z
2 -x,y,1/2-z
3 1/2+x,1/2+y,z
4 1/2-x,1/2+y,1/2-z
5 -x,-y,-z
6 x,-y,1/2+z
7 1/2-x,1/2-y,-z
8 1/2+x,1/2-y,1/2+z
_cell_length_a                   18.547(5)
_cell_length_b                   10.376(3)
_cell_length_c                   25.983(7)
_cell_angle_alpha                90
_cell_angle_beta                 109.526(4)
_cell_angle_gamma                90
_cell_volume                     4712.7
loop_
_atom_site_label
_atom_site_type_symbol
_atom_site_fract_x
_atom_site_fract_y
_atom_site_fract_z
Ag1 Ag 0.1636(1) 0.5263(1) 0.2258(1)
S1 S 0.2737(1) 0.5846(1) 0.1934(1)
S2 S 0.4071(1) 0.2359(1) 0.2678(1)
S3 S 0.0916(1) 0.3191(2) 0.2130(1)
C1 C 0.3526(3) 0.4791(4) 0.2314(2)
C2 C 0.3270(2) 0.3454(4) 0.2393(2)
C3 C 0.0340(6) 0.2662(11) 0.2501(5)
C4 C 0.2517(3) 0.5285(5) 0.1249(2)
C5 C 0.2095(3) 0.4187(6) 0.1064(7)
C6 C 0.1956(3) 0.3761(6) 0.0535(2)
C7 C 0.2229(4) 0.4424(7) 0.0195(2)
C8 C 0.2639(4) 0.5531(7) 0.0368(2)
C9 C 0.2795(3) 0.5977(6) 0.0902(2)
C10 C 0.4524(2) 0.2908(4) 0.3361(2)
C11 C 0.5307(3) 0.2807(5) 0.3571(2)
C12 C 0.5694(3) 0.3143(6) 0.4102(2)
C13 C 0.5309(4) 0.3584(6) 0.4425(2)
C14 C 0.4516(4) 0.3696(6) 0.4218(2)
C15 C 0.4128(3) 0.3348(5) 0.3688(2)
C16 C 0.0290(3) 0.3244(5) 0.1445(2)
C17 C 0.0080(4) 0.4381(7) 0.1173(3)
C18 C 0.0058(4) 0.2131(7) 0.1166(3)
C19 C -0.0398(4) 0.4401(8) 0.0629(3)
C20 C -0.0409(5) 0.2170(8) 0.0624(3)
C21 C -0.0626(4) 0.3291(9) 0.0364(3)
C3A C -0.0340(6) 0.2662(11) 0.2499(5)
S3A S -0.0916(1) 0.3191(2) 0.2870(1)
C16A C -0.0290(3) 0.3244(5) 0.3555(2)
C17A C -0.0080(4) 0.4381(7) 0.3827(3)
C19A C 0.0398(4) 0.4401(8) 0.4371(3)
C21A C 0.0626(4) 0.3291(9) 0.4636(3)
C20A C 0.0409(5) 0.2170(8) 0.4376(3)
C18A C -0.0058(4) 0.2131(7) 0.3834(3)
S1C S 0.2263(1) 1.0846(1) 0.3066(1)
S2C S 0.0929(1) 0.7359(1) 0.2322(1)
C1C C 0.1474(3) 0.9791(4) 0.2686(2)
C2C C 0.1730(2) 0.8454(4) 0.2607(2)
C4C C 0.2483(3) 1.0285(5) 0.3751(2)
C5C C 0.2905(3) 0.9187(6) 0.3936(7)
C6C C 0.3044(3) 0.8761(6) 0.4465(2)
C7C C 0.2771(4) 0.9424(7) 0.4805(2)
C8C C 0.2361(4) 1.0531(7) 0.4632(2)
C9C C 0.2205(3) 1.0977(6) 0.4098(2)
C10C C 0.0476(2) 0.7908(4) 0.1639(2)
C11C C -0.0307(3) 0.7807(5) 0.1429(2)
C12C C -0.0694(3) 0.8143(6) 0.0898(2)
C13C C -0.0309(4) 0.8584(6) 0.0575(2)
C14C C 0.0484(4) 0.8696(6) 0.0782(2)
C15C C 0.0872(3) 0.8348(5) 0.1312(2)
Ag1C Ag 0.3364(1) 1.0263(1) 0.2742(1)
Ag1C_2 Ag 0.3364(1) 0.0263(1) 0.2742(1)
Ag1A Ag -0.1636(1) 0.5263(1) 0.2742(1)
S2_2 S 0.4071(1) 1.2359(1) 0.2678(1)
S3C S 0.4084(1) 0.8191(2) 0.2870(1)
Cl1 Cl 0.2357(1) 0.5308(2) 0.3628(1)
O1 O 0.1818(3) 0.6190(5) 0.3649(2)
O2 O 0.2866(3) 0.5054(7) 0.4130(2)
O3 O 0.2730(3) 0.5769(7) 0.3273(2)
O4 O 0.2063(5) 0.4184(8) 0.3367(4)
loop_
_geom_bond_atom_site_label_1
_geom_bond_atom_site_label_2
_geom_bond_site_symmetry_1
_geom_bond_site_symmetry_2
Ag1 S1 1_555 1_555
S1 C1 1_555 1_555
S2 C2 1_555 1_555
S3 Ag1 1_555 1_555
C1 C2 1_555 1_555
C3 S3 1_555 1_555
C4 S1 1_555 1_555
C5 C4 1_555 1_555
C6 C5 1_555 1_555
C7 C6 1_555 1_555
C8 C7 1_555 1_555
C9 C4 1_555 1_555
C10 S2 1_555 1_555
C11 C10 1_555 1_555
C12 C11 1_555 1_555
C13 C12 1_555 1_555
C14 C13 1_555 1_555
C15 C10 1_555 1_555
C16 S3 1_555 1_555
C17 C16 1_555 1_555
C18 C16 1_555 1_555
C19 C17 1_555 1_555
C20 C18 1_555 1_555
C21 C19 1_555 1_555
Cl1 O1 1_555 1_555
O2 Cl1 1_555 1_555
O3 Cl1 1_555 1_555
O4 Cl1 1_555 1_555
C3A C3 1_555 1_555
S3A C3A 1_555 1_555
C16A S3A 1_555 1_555
C17A C16A 1_555 1_555
C19A C17A 1_555 1_555
C21A C19A 1_555 1_555
C20A C21A 1_555 1_555
C18A C16A 1_555 1_555
S1C C1C 1_555 1_555
S2C Ag1 1_555 1_555
C1C C2C 1_555 1_555
C2C S2C 1_555 1_555
C4C S1C 1_555 1_555
C5C C4C 1_555 1_555
C6C C5C 1_555 1_555
C7C C6C 1_555 1_555
C8C C7C 1_555 1_555
C9C C4C 1_555 1_555
C10C S2C 1_555 1_555
C11C C10C 1_555 1_555
C12C C11C 1_555 1_555
C13C C12C 1_555 1_555
C14C C13C 1_555 1_555
C15C C10C 1_555 1_555
Ag1C S1C 1_555 1_555
Ag1C_2 S2 1_555 1_555
Ag1A S3A 1_555 1_555
S2_2 Ag1C 1_555 1_555
S3C Ag1C 1_555 1_555
C8 C9 1_555 1_555
C14 C15 1_555 1_555
C20 C21 1_555 1_555
C20A C18A 1_555 1_555
C8C C9C 1_555 1_555
C14C C15C 1_555 1_555

#END
