
#######################################################################
#
#                 Cambridge Crystallographic Data Centre
#                                CCDC 
#
#######################################################################
#
# If this CIF has been generated from an entry in the Cambridge 
# Structural Database, then it will include bibliographic, chemical, 
# crystal, experimental, refinement or atomic coordinate data resulting 
# from the CCDC's data processing and validation procedures.
#
#######################################################################

data_EYUZOO
_symmetry_cell_setting           triclinic
_symmetry_space_group_name_H-M   'P -1'
_symmetry_Int_Tables_number      2
_space_group_name_Hall           '-P 1'
loop_
_symmetry_equiv_pos_site_id
_symmetry_equiv_pos_as_xyz
1 x,y,z
2 -x,-y,-z
_cell_length_a                   9.824(5)
_cell_length_b                   10.017(6)
_cell_length_c                   11.360(7)
_cell_angle_alpha                111.68(2)
_cell_angle_beta                 96.45(2)
_cell_angle_gamma                94.56(2)
_cell_volume                     1023.35
loop_
_atom_site_label
_atom_site_type_symbol
_atom_site_fract_x
_atom_site_fract_y
_atom_site_fract_z
C1 C 0.4570(5) 0.3411(6) 0.6675(5)
H1 H 0.4852 0.3473 0.7505
C2 C 0.5452(5) 0.3370(6) 0.5794(5)
H2 H 0.6406 0.3382 0.5905
C3 C 0.4613(5) 0.3308(5) 0.4730(5)
H3 H 0.4899 0.3279 0.3969
C4 C 0.2060(5) 0.3071(6) 0.4067(5)
H4 H 0.1627 0.2081 0.3811
H5 H 0.2309 0.3191 0.3307
C5 C 0.1012(4) 0.4092(5) 0.4594(4)
C6 C -0.0384(5) 0.3588(5) 0.4168(4)
H6 H -0.0651 0.2632 0.3604
C7 C 0.1391(5) 0.5512(5) 0.5429(4)
H7 H 0.2321 0.5870 0.5724
C8 C -0.0365(6) 0.5204(6) 0.8331(5)
H8 H 0.0052 0.6097 0.8391
C9 C -0.1607(6) 0.4999(7) 0.8733(6)
H9 H -0.2170 0.5695 0.9103
C10 C -0.1825(5) 0.3575(7) 0.8474(5)
H10 H -0.2591 0.3097 0.8632
C11 C -0.0457(6) 0.1480(6) 0.7639(5)
H11 H -0.1219 0.0927 0.7801
H12 H 0.0362 0.1491 0.8207
C12 C -0.0228(5) 0.0721(5) 0.6265(4)
C13 C 0.1034(5) 0.0288(6) 0.5989(5)
H13 H 0.1751 0.0489 0.6663
C14 C -0.1277(5) 0.0440(6) 0.5259(5)
H14 H -0.2137 0.0732 0.5412
Cu1 Cu 0.17034(6) 0.36422(8) 0.70000(6)
N1 N 0.3270(4) 0.3349(4) 0.6171(4)
N2 N 0.3310(4) 0.3296(4) 0.4966(3)
N3 N 0.0159(4) 0.3984(4) 0.7853(4)
N4 N -0.0752(4) 0.2935(4) 0.7942(3)
C1A C -0.4570(5) 0.6589(6) 0.3325(5)
H1A H -0.4852 0.6527 0.2495
C2A C -0.5452(5) 0.6630(6) 0.4206(5)
H2A H -0.6406 0.6618 0.4095
C3A C -0.4613(5) 0.6692(5) 0.5270(5)
H3A H -0.4899 0.6721 0.6031
C4A C -0.2060(5) 0.6929(6) 0.5933(5)
H4A H -0.1627 0.7919 0.6189
H5A H -0.2309 0.6809 0.6693
C5A C -0.1012(4) 0.5908(5) 0.5406(4)
C6A C 0.0384(5) 0.6412(5) 0.5832(4)
H6A H 0.0651 0.7368 0.6396
C7A C -0.1391(5) 0.4488(5) 0.4571(4)
H7A H -0.2321 0.4130 0.4276
C8A C 0.0365(6) -0.5204(6) 0.1669(5)
H8A H -0.0052 -0.6097 0.1609
C9A C 0.1607(6) -0.4999(7) 0.1267(6)
H9A H 0.2170 -0.5695 0.0897
C10A C 0.1825(5) -0.3575(7) 0.1526(5)
H10A H 0.2591 -0.3097 0.1368
C11A C 0.0457(6) -0.1480(6) 0.2361(5)
H11A H 0.1219 -0.0927 0.2199
H12A H -0.0362 -0.1491 0.1793
C12A C 0.0228(5) -0.0721(5) 0.3735(4)
C13A C -0.1034(5) -0.0288(6) 0.4011(5)
H13A H -0.1751 -0.0489 0.3337
C14A C 0.1277(5) -0.0440(6) 0.4741(5)
H14A H 0.2137 -0.0732 0.4588
Cu1A Cu -0.17034(6) 0.63578(8) 0.30000(6)
Cu1A_2 Cu -0.17034(6) -0.36422(8) 0.30000(6)
N1A N -0.3270(4) 0.6651(4) 0.3829(4)
N2A N -0.3310(4) 0.6704(4) 0.5034(3)
N3A N -0.0159(4) -0.3984(4) 0.2147(4)
N3A_2 N -0.0159(4) 0.6016(4) 0.2147(4)
N4A N 0.0752(4) -0.2935(4) 0.2058(3)
Mo1 Mo 0.46300(4) 1.00218(4) 0.79644(3)
Mo2 Mo 0.59710(4) 1.24013(4) 1.08003(4)
Mo3 Mo 0.71724(3) 0.92818(4) 0.96571(3)
O1 O 0.5452(3) 1.1957(4) 0.8986(3)
O2 O 0.4306(4) 1.0031(5) 0.6494(3)
O3 O 0.6381(3) 0.9408(3) 0.8027(3)
O4 O 0.3809(3) 0.8104(4) 0.7731(3)
O5 O 0.5000 1.0000 1.0000
O6 O 0.2925(3) 1.0626(4) 0.8681(3)
O7 O 0.4083(3) 1.2558(3) 1.0982(3)
O8 O 0.7535(3) 1.1328(3) 1.0286(3)
O9 O 0.6730(4) 1.4120(4) 1.1327(4)
O10 O 0.8700(3) 0.8679(4) 0.9328(3)
Mo1A Mo 0.53700(4) 0.99782(4) 1.20356(3)
Mo2A Mo 0.40290(4) 0.75987(4) 0.91997(4)
Mo3A Mo 0.28276(3) 1.07182(4) 1.03429(3)
O1A O 0.4548(3) 0.8043(4) 1.1014(3)
O2A O 0.5694(4) 0.9969(5) 1.3506(3)
O3A O 0.3619(3) 1.0592(3) 1.1973(3)
O4A O 0.6191(3) 1.1896(4) 1.2269(3)
O6A O 0.7075(3) 0.9374(4) 1.1319(3)
O7A O 0.5917(3) 0.7442(3) 0.9018(3)
O8A O 0.2465(3) 0.8672(3) 0.9714(3)
O9A O 0.3270(4) 0.5880(4) 0.8673(4)
O10A O 0.1300(3) 1.1321(4) 1.0672(3)
loop_
_geom_bond_atom_site_label_1
_geom_bond_atom_site_label_2
_geom_bond_site_symmetry_1
_geom_bond_site_symmetry_2
C1 H1 1_555 1_555
C2 C1 1_555 1_555
H2 C2 1_555 1_555
C3 C2 1_555 1_555
H3 C3 1_555 1_555
C4 H4 1_555 1_555
H5 C4 1_555 1_555
C5 C4 1_555 1_555
C6 C5 1_555 1_555
H6 C6 1_555 1_555
C7 C5 1_555 1_555
H7 C7 1_555 1_555
C8 H8 1_555 1_555
C9 C8 1_555 1_555
H9 C9 1_555 1_555
C10 C9 1_555 1_555
H10 C10 1_555 1_555
C11 H11 1_555 1_555
H12 C11 1_555 1_555
C12 C11 1_555 1_555
C13 C12 1_555 1_555
H13 C13 1_555 1_555
C14 C12 1_555 1_555
H14 C14 1_555 1_555
Cu1 N1 1_555 1_555
Mo1 O1 1_555 1_555
Mo2 O1 1_555 1_555
Mo3 O3 1_555 1_555
N1 C1 1_555 1_555
N2 C3 1_555 1_555
N3 C8 1_555 1_555
N4 C10 1_555 1_555
O2 Mo1 1_555 1_555
O3 Mo1 1_555 1_555
O4 Mo1 1_555 1_555
O5 Mo1 1_555 1_555
O6 Mo1 1_555 1_555
O7 Mo2 1_555 1_555
O8 Mo2 1_555 1_555
O9 Mo2 1_555 1_555
O10 Mo3 1_555 1_555
C1A H1A 1_555 1_555
C2A C1A 1_555 1_555
H2A C2A 1_555 1_555
C3A C2A 1_555 1_555
H3A C3A 1_555 1_555
C4A H4A 1_555 1_555
H5A C4A 1_555 1_555
C5A C4A 1_555 1_555
C6A C7 1_555 1_555
H6A C6A 1_555 1_555
C7A C6 1_555 1_555
H7A C7A 1_555 1_555
C8A H8A 1_555 1_555
C9A C8A 1_555 1_555
H9A C9A 1_555 1_555
C10A C9A 1_555 1_555
H10A C10A 1_555 1_555
C11A H11A 1_555 1_555
H12A C11A 1_555 1_555
C12A C11A 1_555 1_555
C13A C14 1_555 1_555
H13A C13A 1_555 1_555
C14A C13 1_555 1_555
H14A C14A 1_555 1_555
Cu1A N1A 1_555 1_555
Cu1A_2 N3A 1_555 1_555
Mo1A O5 1_555 1_555
Mo2A O4 1_555 1_555
Mo3A O5 1_555 1_555
N1A C1A 1_555 1_555
N2A C3A 1_555 1_555
N3A C8A 1_555 1_555
N3A_2 Cu1A 1_555 1_555
N4A C10A 1_555 1_555
O1A Mo1A 1_555 1_555
O2A Mo1A 1_555 1_555
O3A Mo1A 1_555 1_555
O4A Mo2 1_555 1_555
O6A Mo3 1_555 1_555
O7A Mo3 1_555 1_555
O8A Mo2A 1_555 1_555
O9A Mo2A 1_555 1_555
O10A Mo3A 1_555 1_555
C4 N2 1_555 1_555
C11 N4 1_555 1_555
Cu1 N3 1_555 1_555
Mo2 O5 1_555 1_555
Mo3 O5 1_555 1_555
Mo3 O8 1_555 1_555
N1 N2 1_555 1_555
N3 N4 1_555 1_555
O5 Mo2A 1_555 1_555
O6 Mo3A 1_555 1_555
O7 Mo3A 1_555 1_555
C4A N2A 1_555 1_555
C5A C6A 1_555 1_555
C5A C7A 1_555 1_555
C11A N4A 1_555 1_555
C12A C13A 1_555 1_555
C12A C14A 1_555 1_555
Mo1A O4A 1_555 1_555
Mo1A O6A 1_555 1_555
Mo2A O1A 1_555 1_555
Mo2A O7A 1_555 1_555
Mo3A O3A 1_555 1_555
Mo3A O8A 1_555 1_555
N1A N2A 1_555 1_555
N3A N4A 1_555 1_555

#END
