
#######################################################################
#
#                 Cambridge Crystallographic Data Centre
#                                CCDC 
#
#######################################################################
#
# If this CIF has been generated from an entry in the Cambridge 
# Structural Database, then it will include bibliographic, chemical, 
# crystal, experimental, refinement or atomic coordinate data resulting 
# from the CCDC's data processing and validation procedures.
#
#######################################################################

data_EZABOX
_symmetry_cell_setting           orthorhombic
_symmetry_space_group_name_H-M   'P n m a'
_symmetry_Int_Tables_number      62
_space_group_name_Hall           '-P 2ac 2n'
loop_
_symmetry_equiv_pos_site_id
_symmetry_equiv_pos_as_xyz
1 x,y,z
2 1/2-x,-y,1/2+z
3 1/2+x,1/2-y,1/2-z
4 -x,1/2+y,-z
5 -x,-y,-z
6 1/2+x,y,1/2-z
7 1/2-x,1/2+y,1/2+z
8 x,1/2-y,z
_cell_length_a                   16.562(7)
_cell_length_b                   10.103(4)
_cell_length_c                   7.904(3)
_cell_angle_alpha                90
_cell_angle_beta                 90
_cell_angle_gamma                90
_cell_volume                     1322.54
loop_
_atom_site_label
_atom_site_type_symbol
_atom_site_fract_x
_atom_site_fract_y
_atom_site_fract_z
Cd1 Cd 0.230079(19) 0.2500 -0.10997(4)
Cd2 Cd 0.461414(19) 0.2500 -0.03966(4)
Cl1 Cl 0.36764(7) 0.2500 -0.30756(15)
C1 C 0.39159(19) -0.0270(3) 0.1675(4)
C2 C 0.2666(2) -0.0035(3) 0.1374(4)
H1 H 0.2111 -0.0164 0.1455
C3 C 0.0484(3) 0.2500 0.0204(5)
H2 H 0.0336 0.2500 -0.0931
C4 C 0.1189(3) 0.2500 0.2517(6)
N1 N 0.29955(16) 0.0929(3) 0.0494(4)
N2 N 0.38237(16) 0.0782(3) 0.0687(4)
N3 N 0.32141(17) -0.0822(3) 0.2151(4)
N4 N 0.46733(17) -0.0799(3) 0.2100(4)
N5 N 0.0002(3) 0.2500 0.1497(7)
N6 N 0.0404(2) 0.2500 0.3009(5)
N7 N 0.1258(3) 0.2500 0.0839(5)
N8 N 0.1825(3) 0.2500 0.3599(7)
H3 H 0.228(3) 0.2500 0.319(7)
H4 H 0.505(3) -0.020(4) 0.199(5)
H5 H 0.461(3) -0.113(5) 0.302(6)
H6 H 0.184(4) 0.2500 0.464(9)
Cd1A Cd 0.269921(19) -0.2500 0.39003(4)
Cd1A_2 Cd 0.269921(19) -0.2500 -0.60997(4)
Cd2C Cd 0.538586(19) -0.2500 0.03966(4)
Cd2B Cd -0.038586(19) 0.2500 0.53966(4)
Cd2A Cd 0.038586(19) -0.2500 -0.53966(4)
Cd2B_2 Cd -0.038586(19) 0.2500 -0.46034(4)
C1A C 0.10841(19) 0.0270(3) -0.3325(4)
C2A C 0.2334(2) 0.0035(3) -0.3626(4)
H1A H 0.2889 0.0164 -0.3545
N1A N 0.20045(16) -0.0929(3) -0.4506(4)
N1G N 0.29955(16) 0.4071(3) 0.0494(4)
N2A N 0.11763(16) -0.0782(3) -0.4313(4)
N2G N 0.38237(16) 0.4218(3) 0.0687(4)
N3A N 0.17859(17) 0.0822(3) -0.2849(4)
N3F N 0.17859(17) 0.4178(3) -0.2849(4)
N4A N 0.03267(17) 0.0799(3) -0.2900(4)
N4C N 0.53267(17) 0.4201(3) -0.2100(4)
N4D N 0.53267(17) 0.0799(3) -0.2100(4)
N6B N 0.5404(2) 0.2500 0.1991(5)
H4A H -0.005(3) 0.020(4) -0.301(5)
H4C H 0.495(3) 0.480(4) -0.199(5)
H4D H 0.495(3) 0.020(4) -0.199(5)
H5A H 0.039(3) 0.113(5) -0.198(6)
H5C H 0.539(3) 0.387(5) -0.302(6)
H5D H 0.539(3) 0.113(5) -0.302(6)
loop_
_geom_bond_atom_site_label_1
_geom_bond_atom_site_label_2
_geom_bond_site_symmetry_1
_geom_bond_site_symmetry_2
Cd1 Cl1 1_555 1_555
Cd2 Cl1 1_555 1_555
C1 N2 1_555 1_555
C2 H1 1_555 1_555
C3 H2 1_555 1_555
C4 N6 1_555 1_555
N1 Cd1 1_555 1_555
N2 Cd2 1_555 1_555
N3 C1 1_555 1_555
N4 C1 1_555 1_555
N5 C3 1_555 1_555
N6 N5 1_555 1_555
N7 Cd1 1_555 1_555
N8 C4 1_555 1_555
H3 N8 1_555 1_555
H4 N4 1_555 1_555
H5 N4 1_555 1_555
H6 N8 1_555 1_555
Cd1A N3 1_555 1_555
Cd1A_2 N1A 1_555 1_555
Cd2C N4 1_555 1_555
Cd2B N6 1_555 1_555
Cd2A N2A 1_555 1_555
Cd2B_2 N4A 1_555 1_555
C1A N2A 1_555 1_555
C2A H1A 1_555 1_555
N1A C2A 1_555 1_555
N1G Cd1 1_555 1_555
N2A N1A 1_555 1_555
N2G Cd2 1_555 1_555
N3A Cd1 1_555 1_555
N3F Cd1 1_555 1_555
N4A C1A 1_555 1_555
N4C Cd2 1_555 1_555
N4D Cd2 1_555 1_555
N6B Cd2 1_555 1_555
H4A N4A 1_555 1_555
H4C N4C 1_555 1_555
H4D N4D 1_555 1_555
H5A N4A 1_555 1_555
H5C N4C 1_555 1_555
H5D N4D 1_555 1_555
C2 N1 1_555 1_555
C2 N3 1_555 1_555
C3 N7 1_555 1_555
C4 N7 1_555 1_555
N1 N2 1_555 1_555
C1A N3A 1_555 1_555
C2A N3A 1_555 1_555
N1G N2G 1_555 1_555

#END
