
#######################################################################
#
#                 Cambridge Crystallographic Data Centre
#                                CCDC 
#
#######################################################################
#
# If this CIF has been generated from an entry in the Cambridge 
# Structural Database, then it will include bibliographic, chemical, 
# crystal, experimental, refinement or atomic coordinate data resulting 
# from the CCDC's data processing and validation procedures.
#
#######################################################################

data_EZABIR
_symmetry_cell_setting           orthorhombic
_symmetry_space_group_name_H-M   'I m m a'
_symmetry_Int_Tables_number      74
_space_group_name_Hall           '-I 2b 2'
loop_
_symmetry_equiv_pos_site_id
_symmetry_equiv_pos_as_xyz
1 x,y,z
2 -x,1/2-y,z
3 x,-y,-z
4 -x,1/2+y,-z
5 1/2+x,1/2+y,1/2+z
6 1/2-x,-y,1/2+z
7 1/2+x,1/2-y,1/2-z
8 1/2-x,y,1/2-z
9 -x,-y,-z
10 x,1/2+y,-z
11 -x,y,z
12 x,1/2-y,z
13 1/2-x,1/2-y,1/2-z
14 1/2+x,y,1/2-z
15 1/2-x,1/2+y,1/2+z
16 1/2+x,-y,1/2+z
_cell_length_a                   7.09(2)
_cell_length_b                   7.24(2)
_cell_length_c                   11.96(3)
_cell_angle_alpha                90
_cell_angle_beta                 90
_cell_angle_gamma                90
_cell_volume                     613.926
loop_
_atom_site_label
_atom_site_type_symbol
_atom_site_fract_x
_atom_site_fract_y
_atom_site_fract_z
Cd1 Cd -0.2500 0.7500 -0.2500
Cl1 Cl 0.0000 0.5058(4) -0.3196(3)
N1 N -0.0997(12) 0.7500 -0.0799(8)
N2 N 0.0000 0.7500 0.0891(14)
H1 H 0.0000 0.7500 0.1610
C1 C -0.153(2) 0.7500 0.0244(12)
H2 H -0.2771 0.7500 0.0496
Cd1A Cd 0.2500 0.7500 -0.2500
Cl1A Cl 0.0000 0.9942(4) -0.3196(3)
Cl1F Cl -0.5000 0.9942(4) -0.1804(3)
Cl1G Cl -0.5000 0.5058(4) -0.1804(3)
N1A N 0.0997(12) 0.7500 -0.0799(8)
N1G N -0.4003(12) 0.7500 -0.4201(8)
C1A C 0.153(2) 0.7500 0.0244(12)
H2A H 0.2771 0.7500 0.0496
O1 O -0.5000 0.7500 -0.002(7)
O2 O 0.2500 0.7500 0.2500
loop_
_geom_bond_atom_site_label_1
_geom_bond_atom_site_label_2
_geom_bond_site_symmetry_1
_geom_bond_site_symmetry_2
Cd1 Cl1 1_555 1_555
Cl1 Cd1A 1_555 1_555
N1 Cd1 1_555 1_555
N2 H1 1_555 1_555
C1 N1 1_555 1_555
H2 C1 1_555 1_555
Cd1A Cl1A 1_555 1_555
Cl1A Cd1 1_555 1_555
Cl1F Cd1 1_555 1_555
Cl1G Cd1 1_555 1_555
N1A N1 1_555 1_555
N1G Cd1 1_555 1_555
C1A N2 1_555 1_555
H2A C1A 1_555 1_555
N2 C1 1_555 1_555
Cd1A N1A 1_555 1_555
N1A C1A 1_555 1_555

#END
