
#######################################################################
#
#                 Cambridge Crystallographic Data Centre
#                                CCDC 
#
#######################################################################
#
# If this CIF has been generated from an entry in the Cambridge 
# Structural Database, then it will include bibliographic, chemical, 
# crystal, experimental, refinement or atomic coordinate data resulting 
# from the CCDC's data processing and validation procedures.
#
#######################################################################

data_EZABAJ
_symmetry_cell_setting           orthorhombic
_symmetry_space_group_name_H-M   'P n m a'
_symmetry_Int_Tables_number      62
_space_group_name_Hall           '-P 2ac 2n'
loop_
_symmetry_equiv_pos_site_id
_symmetry_equiv_pos_as_xyz
1 x,y,z
2 1/2-x,-y,1/2+z
3 1/2+x,1/2-y,1/2-z
4 -x,1/2+y,-z
5 -x,-y,-z
6 1/2+x,y,1/2-z
7 1/2-x,1/2+y,1/2+z
8 x,1/2-y,z
_cell_length_a                   7.663(3)
_cell_length_b                   10.104(4)
_cell_length_c                   17.426(8)
_cell_angle_alpha                90
_cell_angle_beta                 90
_cell_angle_gamma                90
_cell_volume                     1349.24
loop_
_atom_site_label
_atom_site_type_symbol
_atom_site_fract_x
_atom_site_fract_y
_atom_site_fract_z
Zn1 Zn 0.15692(6) -0.2500 -0.08445(2)
Zn2 Zn 0.00750(5) -0.2500 0.26119(2)
N1 N 0.1500(3) -0.5971(2) -0.20757(13)
N2 N 0.3258(3) -0.5983(2) -0.19236(13)
N3 N 0.2123(3) -0.4164(2) -0.14095(13)
N4 N 0.3390(4) -0.2500 0.14161(17)
N5 N 0.1621(4) -0.2500 0.15229(17)
N6 N 0.2130(4) -0.2500 0.02704(17)
C1 C 0.0894(4) -0.4883(3) -0.17613(16)
H1 H -0.0275 -0.4636 -0.1781
C2 C 0.3576(3) -0.4889(3) -0.15323(16)
H2 H 0.4679 -0.4645 -0.1360
C3 C 0.3633(5) -0.2500 0.0668(2)
H3 H 0.4729 -0.2500 0.0439
C4 C 0.0931(5) -0.2500 0.0832(2)
H4 H -0.0266 -0.2500 0.0742
C5 C -0.2252(15) -0.0891(11) -0.0332(7)
H5 H -0.1048 -0.0656 -0.0266
H6 H -0.2800 -0.0966 0.0162
H7 H -0.2831 -0.0220 -0.0627
C6 C -0.2374(9) -0.2197(6) -0.0746(5)
O1 O -0.1005(5) -0.2500 -0.0897(2)
O2 O -0.3850(6) -0.2500 -0.0834(3)
Zn1C Zn -0.15692(6) -0.7500 0.08445(2)
Zn2A Zn 0.49250(5) -0.7500 -0.23881(2)
Zn2B Zn -0.49250(5) -0.2500 0.23881(2)
Zn2B_2 Zn 0.50750(5) -0.2500 0.23881(2)
Zn2C Zn -0.00750(5) -0.7500 -0.26119(2)
N1D N -0.1500(3) -0.4029(2) 0.20757(13)
N1C N -0.1500(3) -0.0971(2) 0.20757(13)
N2D N -0.3258(3) -0.4017(2) 0.19236(13)
N2A N 0.1742(3) -0.4017(2) 0.30764(13)
N2F N 0.1742(3) -0.0983(2) 0.30764(13)
N3D N -0.2123(3) -0.5836(2) 0.14095(13)
N3G N 0.2123(3) -0.0836(2) -0.14095(13)
N4B N -0.1610(4) -0.2500 0.35839(17)
C1D C -0.0894(4) -0.5117(3) 0.17613(16)
H1D H 0.0275 -0.5364 0.1781
C2D C -0.3576(3) -0.5111(3) 0.15323(16)
H2D H -0.4679 -0.5355 0.1360
C5G C -0.2252(15) -0.4109(11) -0.0332(7)
H5G H -0.1048 -0.4344 -0.0266
H6G H -0.2800 -0.4034 0.0162
H7G H -0.2831 -0.4780 -0.0627
C6G C -0.2374(9) -0.2803(6) -0.0746(5)
loop_
_geom_bond_atom_site_label_1
_geom_bond_atom_site_label_2
_geom_bond_site_symmetry_1
_geom_bond_site_symmetry_2
Zn1 N3 1_555 1_555
Zn2 N5 1_555 1_555
N1 N2 1_555 1_555
N2 C2 1_555 1_555
N3 C1 1_555 1_555
N4 N5 1_555 1_555
N5 C4 1_555 1_555
N6 Zn1 1_555 1_555
C1 N1 1_555 1_555
H1 C1 1_555 1_555
C2 N3 1_555 1_555
H2 C2 1_555 1_555
C3 N4 1_555 1_555
H3 C3 1_555 1_555
C4 N6 1_555 1_555
H4 C4 1_555 1_555
C5 H5 1_555 1_555
H6 C5 1_555 1_555
H7 C5 1_555 1_555
C6 C5 1_555 1_555
O1 Zn1 1_555 1_555
O2 C6 1_555 1_555
Zn1C N3D 1_555 1_555
Zn2A N2 1_555 1_555
Zn2B N2D 1_555 1_555
Zn2B_2 N4 1_555 1_555
Zn2C N1 1_555 1_555
N1D Zn2 1_555 1_555
N1C Zn2 1_555 1_555
N2D N1D 1_555 1_555
N2A Zn2 1_555 1_555
N2F Zn2 1_555 1_555
N3D C1D 1_555 1_555
N3G Zn1 1_555 1_555
N4B Zn2 1_555 1_555
C1D N1D 1_555 1_555
H1D C1D 1_555 1_555
C2D N2D 1_555 1_555
H2D C2D 1_555 1_555
C5G H5G 1_555 1_555
H6G C5G 1_555 1_555
H7G C5G 1_555 1_555
C6G C6 1_555 1_555
N6 C3 1_555 1_555
C6 O1 1_555 1_555
O1 C6G 1_555 1_555
O2 C6G 1_555 1_555
N3D C2D 1_555 1_555
C5G C6G 1_555 1_555

#END
