
#######################################################################
#
#                 Cambridge Crystallographic Data Centre
#                                CCDC 
#
#######################################################################
#
# If this CIF has been generated from an entry in the Cambridge 
# Structural Database, then it will include bibliographic, chemical, 
# crystal, experimental, refinement or atomic coordinate data resulting 
# from the CCDC's data processing and validation procedures.
#
#######################################################################

data_EZAMUN
_symmetry_cell_setting           triclinic
_symmetry_space_group_name_H-M   'P -1'
_symmetry_Int_Tables_number      2
_space_group_name_Hall           '-P 1'
loop_
_symmetry_equiv_pos_site_id
_symmetry_equiv_pos_as_xyz
1 x,y,z
2 -x,-y,-z
_cell_length_a                   4.388(2)
_cell_length_b                   11.856(5)
_cell_length_c                   11.482(5)
_cell_angle_alpha                74.795(11)
_cell_angle_beta                 81.55(1)
_cell_angle_gamma                77.453(13)
_cell_volume                     560.092
loop_
_atom_site_label
_atom_site_type_symbol
_atom_site_fract_x
_atom_site_fract_y
_atom_site_fract_z
I1 I 0.27737(4) 0.423750(10) 0.659350(10)
Cu1 Cu -0.15262(9) 0.39623(3) 0.53239(4)
S1 S -0.0399(2) 0.20594(6) 0.50808(7)
S2 S 0.3675(2) 0.07006(6) 0.34278(7)
S3 S 0.3747(2) 0.32011(6) 0.29879(7)
S4 S 0.8300(2) 0.04028(8) 0.12304(8)
S5 S 0.8563(2) 0.32137(7) 0.08134(7)
C1 C 0.2234(7) 0.2012(2) 0.3881(3)
C2 C 0.6106(7) 0.1278(3) 0.2176(3)
C3 C 0.6177(7) 0.2447(3) 0.1980(3)
C4 C 0.7061(10) -0.0999(3) 0.1816(4)
C5 C 0.6342(8) 0.3538(4) -0.0485(3)
H1 H 0.4867(10) -0.0887(3) 0.1771(4)
H2 H 0.8133(10) -0.1547(3) 0.1351(4)
H3 H 0.7508(10) -0.1304(3) 0.2637(4)
H4 H 0.4344(8) 0.4007(4) -0.0330(3)
H5 H 0.7445(8) 0.3962(4) -0.1177(3)
H6 H 0.6078(8) 0.2813(4) -0.0628(3)
Cu1_2 Cu 0.84738(9) 0.39623(3) 0.53239(4)
Cu1A Cu 0.15262(9) 0.60377(3) 0.46761(4)
I1_2 I -0.72263(4) 0.423750(10) 0.659350(10)
I1A I -0.27737(4) 0.576250(10) 0.340650(10)
loop_
_geom_bond_atom_site_label_1
_geom_bond_atom_site_label_2
_geom_bond_site_symmetry_1
_geom_bond_site_symmetry_2
I1 Cu1 1_555 1_555
Cu1 S1 1_555 1_555
S1 C1 1_555 1_555
S2 C1 1_555 1_555
S3 C1 1_555 1_555
S4 C2 1_555 1_555
S5 C3 1_555 1_555
C2 S2 1_555 1_555
C3 S3 1_555 1_555
C4 S4 1_555 1_555
C5 S5 1_555 1_555
H1 C4 1_555 1_555
H2 C4 1_555 1_555
H3 C4 1_555 1_555
H4 C5 1_555 1_555
H5 C5 1_555 1_555
H6 C5 1_555 1_555
Cu1_2 I1 1_555 1_555
Cu1A I1 1_555 1_555
I1_2 Cu1 1_555 1_555
I1A Cu1 1_555 1_555
C2 C3 1_555 1_555
Cu1A I1A 1_555 1_555

#END
