
#######################################################################
#
#                 Cambridge Crystallographic Data Centre
#                                CCDC 
#
#######################################################################
#
# If this CIF has been generated from an entry in the Cambridge 
# Structural Database, then it will include bibliographic, chemical, 
# crystal, experimental, refinement or atomic coordinate data resulting 
# from the CCDC's data processing and validation procedures.
#
#######################################################################

data_EZAQEC
_symmetry_cell_setting           monoclinic
_symmetry_space_group_name_H-M   'P 21/n'
_symmetry_Int_Tables_number      14
_space_group_name_Hall           '-P 2yn'
loop_
_symmetry_equiv_pos_site_id
_symmetry_equiv_pos_as_xyz
1 x,y,z
2 1/2-x,1/2+y,1/2-z
3 -x,-y,-z
4 1/2+x,1/2-y,1/2+z
_cell_length_a                   15.392(3)
_cell_length_b                   24.981(5)
_cell_length_c                   23.017(5)
_cell_angle_alpha                90
_cell_angle_beta                 100.94(3)
_cell_angle_gamma                90
_cell_volume                     8689.37
loop_
_atom_site_label
_atom_site_type_symbol
_atom_site_fract_x
_atom_site_fract_y
_atom_site_fract_z
W1 W 0.70293(8) 0.34797(5) 0.87710(5)
W2 W 1.46268(8) 0.36903(5) 0.88137(5)
W3 W 0.42060(8) 0.51811(5) 0.61932(5)
W4 W 0.49815(8) 0.51403(5) 0.88773(5)
W5 W 0.40769(8) 0.30777(5) 0.74995(5)
W6 W 0.71671(8) 0.56406(5) 0.75892(5)
W7 W 0.38948(8) 0.38564(5) 0.61264(5)
W8 W 0.73766(8) 0.49299(5) 0.88499(5)
W9 W 0.62892(8) 0.36342(5) 0.60944(5)
W10 W 1.21913(8) 0.40123(5) 0.70675(5)
W11 W 0.47867(8) 0.58634(5) 0.76257(5)
W12 W 1.27197(8) 0.46103(5) 0.84082(5)
W13 W 0.65954(8) 0.49640(5) 0.61557(5)
W14 W 1.25249(8) 0.53388(5) 0.71500(5)
W15 W 0.90300(8) 0.40473(5) 0.83366(5)
W16 W 0.64773(8) 0.28651(5) 0.74686(5)
W17 W 0.84944(8) 0.34204(5) 0.70216(6)
W18 W 0.88184(8) 0.47595(5) 0.70768(5)
P1 P 0.6910(5) 0.4248(3) 0.7491(3)
P2 P 1.4354(5) 0.4474(3) 0.7521(3)
Cu1 Cu 0.7427(3) 0.62453(19) 0.5599(2)
Cu2 Cu 0.7880(3) 0.26049(18) 1.0235(2)
Cu3 Cu 1.4826(3) 0.35267(19) 1.0584(2)
O1 O 0.7021(12) 0.4207(7) 0.8954(8)
O2 O 0.5077(12) 0.5389(7) 0.9573(8)
O3 O 0.6426(12) 0.4299(7) 0.6844(8)
O4 O 0.5060(14) 0.3818(8) 0.6013(9)
O5 O 0.9201(13) 0.3493(7) 0.7788(9)
O6 O 0.7380(14) 0.3197(8) 0.9462(9)
O7 O 0.3729(14) 0.2459(8) 0.7361(10)
O8 O 0.8167(14) 0.3589(8) 0.8598(9)
O9 O 1.4591(14) 0.3437(8) 0.9495(10)
O10 O 1.1247(13) 0.3669(8) 0.6787(9)
O11 O 0.6126(15) 0.3164(9) 0.6697(9)
O12 O 0.6579(12) 0.3751(7) 0.7799(8)
O13 O 0.8435(13) 0.4618(8) 0.8628(9)
O14 O 0.3773(13) 0.4541(8) 0.5791(8)
O15 O 0.9912(15) 0.3959(9) 0.8861(10)
O16 O 0.6700(14) 0.5421(8) 0.6807(10)
O17 O 0.6500(14) 0.4294(8) 0.5740(9)
O18 O 1.1823(15) 0.4726(9) 0.6863(10)
O19 O 0.6250(15) 0.3213(9) 0.5494(10)
O20 O 0.9075(15) 0.2952(9) 0.6725(10)
O21 O 0.5779(12) 0.3477(7) 0.8774(8)
O22 O 0.6236(13) 0.5142(8) 0.8841(8)
O23 O 0.9008(14) 0.4054(9) 0.6790(9)
O24 O 1.4467(13) 0.4464(8) 0.6880(8)
O25 O 0.8260(13) 0.5271(8) 0.7453(9)
O26 O 0.3942(15) 0.5642(9) 0.5641(10)
O27 O 0.3750(14) 0.5017(8) 0.8709(9)
O28 O 0.6830(12) 0.4743(7) 0.7834(8)
O29 O 0.6051(13) 0.5767(8) 0.7720(9)
O30 O 1.1999(14) 0.4146(8) 0.7852(9)
O31 O 0.6451(14) 0.2205(8) 0.7308(10)
O32 O 0.7808(14) 0.4811(8) 0.6447(9)
O33 O 0.2955(13) 0.3446(8) 0.7411(9)
O34 O 0.4143(13) 0.3340(8) 0.6718(9)
O35 O 0.5342(12) 0.5005(7) 0.6085(8)
O36 O 1.3123(14) 0.5257(8) 0.6504(10)
O37 O 0.5298(14) 0.2925(8) 0.7594(9)
O38 O 1.3477(12) 0.4008(7) 0.8653(8)
O39 O 1.3565(14) 0.5704(8) 0.7526(9)
O40 O 1.4852(11) 0.4931(7) 0.7876(8)
O41 O 0.4721(15) 0.6533(8) 0.7542(10)
O42 O 0.6693(13) 0.5390(8) 0.5598(9)
O43 O 0.6873(14) 0.2836(8) 0.8302(9)
O44 O 1.5071(13) 0.4390(8) 0.8992(9)
O45 O 0.7604(13) 0.5552(8) 0.8429(9)
O46 O 0.2827(14) 0.3991(8) 0.6434(9)
O47 O 1.3341(12) 0.4575(7) 0.7535(8)
O48 O 0.7502(13) 0.3547(8) 0.6396(9)
O49 O 0.4871(12) 0.5804(7) 0.8461(8)
O50 O 0.9485(12) 0.4547(8) 0.7826(9)
O51 O 0.4724(12) 0.5616(7) 0.6845(9)
O52 O 0.7914(12) 0.4149(7) 0.7488(8)
O53 O 1.4117(12) 0.3089(7) 0.8339(8)
O54 O 1.4598(12) 0.3932(7) 0.7818(8)
O55 O 0.7859(15) 0.5109(8) 0.9552(9)
O56 O 0.7505(15) 0.6279(9) 0.7503(10)
O57 O 1.2250(14) 0.5212(8) 0.7912(9)
O58 O 0.9618(14) 0.5116(8) 0.6836(9)
O59 O 0.3378(17) 0.3490(9) 0.5539(11)
O60 O 0.7651(14) 0.3014(8) 0.7351(9)
O61 O 1.1793(16) 0.5838(9) 0.6910(11)
O62 O 1.2143(15) 0.4664(9) 0.8962(10)
N1 N 0.649(2) 0.6627(12) 0.5858(14)
N2 N 0.295(2) 0.8037(14) 0.6662(16)
N3 N 0.8391(19) 0.5877(11) 0.5375(13)
N4 N 0.264(2) 0.1006(12) 0.9902(14)
N5 N 0.6731(19) 0.2307(11) 1.0172(12)
N6 N 0.9065(16) 0.2849(9) 1.0376(11)
N7 N 1.3594(18) 0.3453(11) 1.0613(12)
N8 N 1.6066(16) 0.3573(10) 1.0718(11)
N9 N 2.054(2) 0.4343(14) 1.1495(17)
C1 C 0.564(2) 0.6496(14) 0.5606(16)
H1 H 0.5552 0.6218 0.5332
C2 C 0.493(3) 0.6755(15) 0.5741(16)
H2 H 0.4358 0.6667 0.5553
C3 C 0.509(2) 0.7172(13) 0.6187(15)
C4 C 0.596(3) 0.7290(15) 0.6441(17)
H3 H 0.6081 0.7572 0.6708
C5 C 0.668(3) 0.6979(14) 0.6294(17)
H4 H 0.7261 0.7024 0.6499
C6 C 0.291(3) 0.7861(15) 0.6090(18)
H5 H 0.2427 0.7946 0.5799
C7 C 0.357(3) 0.7571(16) 0.5953(19)
H6 H 0.3514 0.7446 0.5567
C8 C 0.432(2) 0.7445(14) 0.6352(16)
C9 C 0.439(3) 0.7655(16) 0.6917(19)
H7 H 0.4913 0.7622 0.7191
C10 C 0.367(3) 0.7915(17) 0.707(2)
H8 H 0.3685 0.8006 0.7467
C11 C 0.829(4) 0.568(2) 0.484(2)
H9 H 0.7792 0.5765 0.4555
C12 C 0.893(3) 0.5326(19) 0.470(2)
H10 H 0.8826 0.5184 0.4321
C13 C 0.968(2) 0.5175(13) 0.5066(15)
C14 C 0.974(3) 0.5410(18) 0.561(2)
H11 H 1.0226 0.5315 0.5897
C15 C 0.916(2) 0.5775(15) 0.5756(16)
H12 H 0.9290 0.5952 0.6118
C16 C 0.278(3) 0.1310(17) 0.948(2)
H13 H 0.2342 0.1335 0.9138
C17 C 0.354(2) 0.1596(15) 0.9496(17)
H14 H 0.3609 0.1807 0.9175
C18 C 0.423(2) 0.1575(13) 1.0003(15)
C19 C 0.407(2) 0.1253(13) 1.0444(16)
H15 H 0.4473 0.1242 1.0800
C20 C 0.3312(19) 0.0938(12) 1.0377(13)
H16 H 0.3263 0.0678 1.0658
C21 C 0.619(2) 0.2293(12) 0.9662(15)
H17 H 0.6378 0.2433 0.9333
C22 C 0.535(3) 0.2082(14) 0.9584(17)
H18 H 0.4972 0.2093 0.9216
C23 C 0.508(2) 0.1857(13) 1.0062(15)
C24 C 0.557(3) 0.1906(15) 1.0601(17)
H19 H 0.5367 0.1798 1.0938
C25 C 0.644(3) 0.2133(15) 1.0635(18)
H20 H 0.6809 0.2158 1.1004
C26 C 0.936(2) 0.3091(13) 0.9941(16)
H21 H 0.8964 0.3139 0.9584
C27 C 1.024(3) 0.3283(14) 0.9990(17)
H22 H 1.0399 0.3491 0.9691
C28 C 1.087(2) 0.3153(12) 1.0497(13)
C29 C 1.052(3) 0.2898(15) 1.0937(18)
H23 H 1.0894 0.2843 1.1302
C30 C 0.966(2) 0.2723(14) 1.0859(16)
H24 H 0.9492 0.2511 1.1150
C31 C 1.303(2) 0.3734(11) 1.0222(13)
H25 H 1.3232 0.3980 0.9975
C32 C 1.213(2) 0.3655(12) 1.0187(14)
H26 H 1.1728 0.3846 0.9908
C33 C 1.180(2) 0.3294(13) 1.0563(14)
C34 C 1.244(2) 0.2984(14) 1.0952(16)
H27 H 1.2283 0.2702 1.1176
C35 C 1.330(3) 0.3136(16) 1.0971(19)
H28 H 1.3719 0.2994 1.1277
C36 C 1.6459(19) 0.3885(12) 1.0375(13)
H29 H 1.6121 0.4006 1.0021
C37 C 1.731(2) 0.4035(12) 1.0507(14)
H30 H 1.7541 0.4243 1.0236
C38 C 1.7864(19) 0.3892(11) 1.1031(13)
C39 C 1.746(3) 0.3544(15) 1.1381(17)
H31 H 1.7798 0.3399 1.1721
C40 C 1.656(2) 0.3408(14) 1.1240(17)
H32 H 1.6306 0.3205 1.1502
C41 C 2.001(3) 0.4550(18) 1.101(2)
H33 H 2.0230 0.4812 1.0785
C42 C 1.916(3) 0.4377(17) 1.084(2)
H34 H 1.8838 0.4483 1.0476
C43 C 1.879(2) 0.4062(12) 1.1185(14)
C44 C 1.928(3) 0.393(2) 1.170(2)
H35 H 1.9029 0.3756 1.1985
C45 C 2.016(4) 0.405(2) 1.182(3)
H36 H 2.0503 0.3916 1.2162
W1B W 1.29707(8) 0.65203(5) 0.12290(5)
W1_2 W 1.70293(8) 0.34797(5) 0.87710(5)
W2_2 W 0.46268(8) 0.36903(5) 0.88137(5)
W2B W 0.53732(8) 0.63097(5) 0.11863(5)
W3B W 1.57940(8) 0.48189(5) 0.38068(5)
W3_2 W 1.42060(8) 0.51811(5) 0.61932(5)
W4B W 1.50185(8) 0.48597(5) 0.11227(5)
W4_2 W 1.49815(8) 0.51403(5) 0.88773(5)
W5B W 1.59231(8) 0.69223(5) 0.25005(5)
W5_2 W 1.40769(8) 0.30777(5) 0.74995(5)
W6B W 1.28329(8) 0.43594(5) 0.24108(5)
W7B W 1.61052(8) 0.61436(5) 0.38736(5)
W7_2 W 1.38948(8) 0.38564(5) 0.61264(5)
W8B W 1.26234(8) 0.50701(5) 0.11501(5)
W9B W 1.37108(8) 0.63658(5) 0.39056(5)
W10_2 W 0.21913(8) 0.40123(5) 0.70675(5)
W10B W 1.78087(8) 0.59877(5) 0.29325(5)
W11B W 1.52133(8) 0.41366(5) 0.23743(5)
W11_2 W 1.47867(8) 0.58634(5) 0.76257(5)
W12_2 W 0.27197(8) 0.46103(5) 0.84082(5)
W13B W 1.34046(8) 0.50360(5) 0.38443(5)
W14_2 W 0.25249(8) 0.53388(5) 0.71500(5)
W15B W 1.09700(8) 0.59527(5) 0.16634(5)
W16B W 1.35227(8) 0.71349(5) 0.25314(5)
W17B W 1.15056(8) 0.65796(5) 0.29784(6)
W18B W 1.11816(8) 0.52405(5) 0.29232(5)
P1B P 1.3090(5) 0.5752(3) 0.2509(3)
P2_2 P 0.4354(5) 0.4474(3) 0.7521(3)
Cu1B Cu 1.2573(3) 0.37547(19) 0.4401(2)
Cu2B Cu 1.2120(3) 0.73951(18) -0.0235(2)
Cu3B Cu 0.5174(3) 0.64733(19) -0.0584(2)
O1B O 1.2979(12) 0.5793(7) 0.1046(8)
O2B O 1.4923(12) 0.4611(7) 0.0427(8)
O3B O 1.3574(12) 0.5701(7) 0.3156(8)
O4B O 1.4940(14) 0.6182(8) 0.3987(9)
O5B O 1.0799(13) 0.6507(7) 0.2212(9)
O6B O 1.2620(14) 0.6803(8) 0.0538(9)
O7B O 1.6271(14) 0.7541(8) 0.2639(10)
O8B O 1.1833(14) 0.6411(8) 0.1402(9)
O9B O 0.5409(14) 0.6563(8) 0.0505(10)
O9_2 O 0.4591(14) 0.3437(8) 0.9495(10)
O10_2 O 0.1247(13) 0.3669(8) 0.6787(9)
O11B O 1.3874(15) 0.6836(9) 0.3303(9)
O12B O 1.3421(12) 0.6249(7) 0.2201(8)
O13B O 1.1565(13) 0.5382(8) 0.1372(9)
O14B O 1.6227(13) 0.5459(8) 0.4209(8)
O15B O 1.0088(15) 0.6041(9) 0.1139(10)
O16B O 1.3300(14) 0.4579(8) 0.3193(10)
O17B O 1.3500(14) 0.5706(8) 0.4260(9)
O18_2 O 0.1823(15) 0.4726(9) 0.6863(10)
O19B O 1.3750(15) 0.6787(9) 0.4506(10)
O20B O 1.0925(15) 0.7048(9) 0.3275(10)
O21_2 O 1.5779(12) 0.3477(7) 0.8774(8)
O21B O 1.4221(12) 0.6523(7) 0.1226(8)
O22B O 1.3764(13) 0.4858(8) 0.1159(8)
O23B O 1.0992(14) 0.5946(9) 0.3210(9)
O24_2 O 0.4467(13) 0.4464(8) 0.6880(8)
O24B O 1.5533(13) 0.5536(8) 0.3120(8)
O25B O 1.1740(13) 0.4729(8) 0.2547(9)
O26B O 1.6058(15) 0.4358(9) 0.4359(10)
O27_2 O 1.3750(14) 0.5017(8) 0.8709(9)
O27B O 1.6250(14) 0.4983(8) 0.1291(9)
O28B O 1.3170(12) 0.5257(7) 0.2166(8)
O29B O 1.3949(13) 0.4233(8) 0.2280(9)
O30_2 O 0.1999(14) 0.4146(8) 0.7852(9)
O31B O 1.3549(14) 0.7795(8) 0.2692(10)
O32B O 1.2192(14) 0.5189(8) 0.3553(9)
O33B O 1.7045(13) 0.6554(8) 0.2589(9)
O33_2 O 1.2955(13) 0.3446(8) 0.7411(9)
O34B O 1.5857(13) 0.6660(8) 0.3282(9)
O35B O 1.4658(12) 0.4995(7) 0.3915(8)
O36_2 O 0.3123(14) 0.5257(8) 0.6504(10)
O36B O 1.6877(14) 0.4743(8) 0.3496(10)
O37B O 1.4702(14) 0.7075(8) 0.2406(9)
O38_2 O 0.3477(12) 0.4008(7) 0.8653(8)
O39_2 O 0.3565(14) 0.5704(8) 0.7526(9)
O39B O 1.6435(14) 0.4296(8) 0.2474(9)
O40_2 O 0.4852(11) 0.4931(7) 0.7876(8)
O40B O 1.5148(11) 0.5069(7) 0.2124(8)
O41B O 1.5279(15) 0.3467(8) 0.2458(10)
O42B O 1.3307(13) 0.4610(8) 0.4402(9)
O43B O 1.3127(14) 0.7164(8) 0.1698(9)
O44_2 O 0.5071(13) 0.4390(8) 0.8992(9)
O44B O 1.4929(13) 0.5610(8) 0.1008(9)
O45B O 1.2396(13) 0.4448(8) 0.1571(9)
O46_2 O 1.2827(14) 0.3991(8) 0.6434(9)
O46B O 1.7173(14) 0.6009(8) 0.3566(9)
O47_2 O 0.3341(12) 0.4575(7) 0.7535(8)
O48B O 1.2498(13) 0.6453(8) 0.3604(9)
O49B O 1.5129(12) 0.4196(7) 0.1539(8)
O50B O 1.0515(12) 0.5453(8) 0.2174(9)
O51B O 1.5276(12) 0.4384(7) 0.3155(9)
O52B O 1.2086(12) 0.5851(7) 0.2512(8)
O53_2 O 0.4117(12) 0.3089(7) 0.8339(8)
O53B O 1.5883(12) 0.6911(7) 0.1661(8)
O54_2 O 0.4598(12) 0.3932(7) 0.7818(8)
O54B O 1.5402(12) 0.6068(7) 0.2182(8)
O55B O 1.2141(15) 0.4891(8) 0.0448(9)
O56B O 1.2495(15) 0.3721(9) 0.2497(10)
O57_2 O 0.2250(14) 0.5212(8) 0.7912(9)
O58B O 1.0382(14) 0.4884(8) 0.3164(9)
O59B O 1.6622(17) 0.6510(9) 0.4461(11)
O60B O 1.2349(14) 0.6986(8) 0.2649(9)
O61_2 O 0.1793(16) 0.5838(9) 0.6910(11)
O62_2 O 0.2143(15) 0.4664(9) 0.8962(10)
N1B N 1.351(2) 0.3373(12) 0.4142(14)
N2B N 1.705(2) 0.1963(14) 0.3338(16)
N3B N 1.1609(19) 0.4123(11) 0.4625(13)
N4B N 1.736(2) 0.8994(12) 0.0098(14)
N5B N 1.3269(19) 0.7693(11) -0.0172(12)
N6B N 1.0935(16) 0.7151(9) -0.0376(11)
N7B N 0.6406(18) 0.6547(11) -0.0613(12)
N8B N 0.3934(16) 0.6427(10) -0.0718(11)
N9B N -0.054(2) 0.5657(14) -0.1495(17)
C1B C 1.436(2) 0.3504(14) 0.4394(16)
H1B H 1.4448 0.3782 0.4668
C2B C 1.507(3) 0.3245(15) 0.4259(16)
H2B H 1.5642 0.3333 0.4447
C3B C 1.491(2) 0.2828(13) 0.3813(15)
C4B C 1.404(3) 0.2710(15) 0.3559(17)
H3B H 1.3919 0.2428 0.3292
C5B C 1.332(3) 0.3021(14) 0.3706(17)
H4B H 1.2739 0.2976 0.3501
C6B C 1.709(3) 0.2139(15) 0.3910(18)
H5B H 1.7573 0.2054 0.4201
C7B C 1.643(3) 0.2429(16) 0.4047(19)
H6B H 1.6486 0.2554 0.4433
C8B C 1.568(2) 0.2555(14) 0.3648(16)
C9B C 1.561(3) 0.2345(16) 0.3083(19)
H7B H 1.5087 0.2378 0.2809
C10B C 1.633(3) 0.2085(17) 0.293(2)
H8B H 1.6315 0.1994 0.2533
C11B C 1.171(4) 0.432(2) 0.516(2)
H9B H 1.2208 0.4235 0.5445
C12B C 1.107(3) 0.4674(19) 0.530(2)
H10B H 1.1174 0.4816 0.5679
C13B C 1.032(2) 0.4825(13) 0.4934(15)
C14B C 1.026(3) 0.4590(18) 0.439(2)
H11B H 0.9774 0.4685 0.4103
C15B C 1.084(2) 0.4225(15) 0.4244(16)
H12B H 1.0710 0.4048 0.3882
C16B C 1.722(3) 0.8690(17) 0.052(2)
H13B H 1.7658 0.8665 0.0862
C17B C 1.646(2) 0.8404(15) 0.0504(17)
H14B H 1.6391 0.8193 0.0825
C18B C 1.577(2) 0.8425(13) -0.0003(15)
C19B C 1.593(2) 0.8747(13) -0.0444(16)
H15B H 1.5527 0.8758 -0.0800
C20B C 1.6688(19) 0.9062(12) -0.0377(13)
H16B H 1.6737 0.9322 -0.0658
C21B C 1.381(2) 0.7707(12) 0.0338(15)
H17B H 1.3622 0.7567 0.0667
C22B C 1.465(3) 0.7918(14) 0.0416(17)
H18B H 1.5028 0.7907 0.0784
C23B C 1.492(2) 0.8143(13) -0.0062(15)
C24B C 1.443(3) 0.8094(15) -0.0601(17)
H19B H 1.4633 0.8202 -0.0938
C25B C 1.356(3) 0.7867(15) -0.0635(18)
H20B H 1.3191 0.7842 -0.1004
C26B C 1.064(2) 0.6909(13) 0.0059(16)
H21B H 1.1036 0.6861 0.0416
C27B C 0.976(3) 0.6717(14) 0.0010(17)
H22B H 0.9601 0.6509 0.0309
C28B C 0.913(2) 0.6847(12) -0.0497(13)
C29B C 0.948(3) 0.7102(15) -0.0937(18)
H23B H 0.9106 0.7157 -0.1302
C30B C 1.034(2) 0.7277(14) -0.0859(16)
H24B H 1.0508 0.7489 -0.1150
C31B C 0.697(2) 0.6266(11) -0.0222(13)
H25B H 0.6768 0.6020 0.0025
C32B C 0.787(2) 0.6345(12) -0.0187(14)
H26B H 0.8272 0.6154 0.0092
C33B C 0.820(2) 0.6706(13) -0.0563(14)
C34B C 0.756(2) 0.7016(14) -0.0952(16)
H27B H 0.7717 0.7298 -0.1176
C35B C 0.670(3) 0.6864(16) -0.0971(19)
H28B H 0.6281 0.7006 -0.1277
C36B C 0.3541(19) 0.6115(12) -0.0375(13)
H29B H 0.3879 0.5994 -0.0021
C37B C 0.269(2) 0.5965(12) -0.0507(14)
H30B H 0.2459 0.5757 -0.0236
C38B C 0.2136(19) 0.6108(11) -0.1031(13)
C39B C 0.254(3) 0.6456(15) -0.1381(17)
H31B H 0.2202 0.6601 -0.1721
C40B C 0.344(2) 0.6592(14) -0.1240(17)
H32B H 0.3694 0.6795 -0.1502
C41B C -0.001(3) 0.5450(18) -0.101(2)
H33B H -0.0230 0.5188 -0.0785
C42B C 0.084(3) 0.5623(17) -0.084(2)
H34B H 0.1162 0.5517 -0.0476
C43B C 0.121(2) 0.5938(12) -0.1185(14)
C44B C 0.072(3) 0.607(2) -0.170(2)
H35B H 0.0971 0.6244 -0.1985
C45B C -0.016(4) 0.595(2) -0.182(3)
H36B H -0.0503 0.6084 -0.2162
O63 O 0.875(6) 0.651(3) 0.667(4)
O64 O 0.045(4) 0.665(2) 0.682(3)
loop_
_geom_bond_atom_site_label_1
_geom_bond_atom_site_label_2
_geom_bond_site_symmetry_1
_geom_bond_site_symmetry_2
W1 O1 1_555 1_555
W2 O9 1_555 1_555
W3 O14 1_555 1_555
W4 O2 1_555 1_555
W5 O7 1_555 1_555
W6 O16 1_555 1_555
W7 O4 1_555 1_555
W8 O1 1_555 1_555
W9 O3 1_555 1_555
W10 O10 1_555 1_555
W11 O29 1_555 1_555
W12 O30 1_555 1_555
W13 O3 1_555 1_555
W14 O18 1_555 1_555
W15 O5 1_555 1_555
W16 O11 1_555 1_555
W17 O5 1_555 1_555
W18 O23 1_555 1_555
P1 O3 1_555 1_555
P2 O24 1_555 1_555
Cu1 O42 1_555 1_555
Cu2 O6 1_555 1_555
Cu3 O9 1_555 1_555
O4 W9 1_555 1_555
O6 W1 1_555 1_555
O8 W1 1_555 1_555
O11 W9 1_555 1_555
O12 W1 1_555 1_555
O13 W8 1_555 1_555
O14 W7 1_555 1_555
O15 W15 1_555 1_555
O16 W13 1_555 1_555
O17 W9 1_555 1_555
O18 W10 1_555 1_555
O19 W9 1_555 1_555
O20 W17 1_555 1_555
O21 W1 1_555 1_555
O22 W4 1_555 1_555
O23 W17 1_555 1_555
O24 W3_2 1_555 1_555
O25 W6 1_555 1_555
O26 W3 1_555 1_555
O27 W4 1_555 1_555
O28 W6 1_555 1_555
O29 W6 1_555 1_555
O30 W10 1_555 1_555
O31 W16 1_555 1_555
O32 W13 1_555 1_555
O33 W5 1_555 1_555
O34 W5 1_555 1_555
O35 W3 1_555 1_555
O36 W14 1_555 1_555
O37 W5 1_555 1_555
O38 W2 1_555 1_555
O39 W14 1_555 1_555
O40 P2 1_555 1_555
O41 W11 1_555 1_555
O42 W13 1_555 1_555
O43 W1 1_555 1_555
O44 W2 1_555 1_555
O45 W6 1_555 1_555
O46 W7 1_555 1_555
O47 W10 1_555 1_555
O48 W9 1_555 1_555
O49 W4 1_555 1_555
O50 W15 1_555 1_555
O51 W3 1_555 1_555
O52 W15 1_555 1_555
O53 W2 1_555 1_555
O54 W2 1_555 1_555
O55 W8 1_555 1_555
O56 W6 1_555 1_555
O57 W12 1_555 1_555
O58 W18 1_555 1_555
O59 W7 1_555 1_555
O60 W16 1_555 1_555
O61 W14 1_555 1_555
O62 W12 1_555 1_555
N1 Cu1 1_555 1_555
N2 C6 1_555 1_555
N3 Cu1 1_555 1_555
N4 C16 1_555 1_555
N5 Cu2 1_555 1_555
N6 Cu2 1_555 1_555
N7 Cu3 1_555 1_555
N8 Cu3 1_555 1_555
N9 C41 1_555 1_555
C1 N1 1_555 1_555
H1 C1 1_555 1_555
C2 C1 1_555 1_555
H2 C2 1_555 1_555
C3 C2 1_555 1_555
C4 C3 1_555 1_555
H3 C4 1_555 1_555
C5 N1 1_555 1_555
H4 C5 1_555 1_555
C6 H5 1_555 1_555
C7 C6 1_555 1_555
H6 C7 1_555 1_555
C8 C3 1_555 1_555
C9 C8 1_555 1_555
H7 C9 1_555 1_555
C10 N2 1_555 1_555
H8 C10 1_555 1_555
C11 N3 1_555 1_555
H9 C11 1_555 1_555
C12 C11 1_555 1_555
H10 C12 1_555 1_555
C13 C12 1_555 1_555
C14 C13 1_555 1_555
H11 C14 1_555 1_555
C15 N3 1_555 1_555
H12 C15 1_555 1_555
C16 H13 1_555 1_555
C17 C16 1_555 1_555
H14 C17 1_555 1_555
C18 C17 1_555 1_555
C19 C18 1_555 1_555
H15 C19 1_555 1_555
C20 N4 1_555 1_555
H16 C20 1_555 1_555
C21 N5 1_555 1_555
H17 C21 1_555 1_555
C22 C21 1_555 1_555
H18 C22 1_555 1_555
C23 C18 1_555 1_555
C24 C23 1_555 1_555
H19 C24 1_555 1_555
C25 N5 1_555 1_555
H20 C25 1_555 1_555
C26 N6 1_555 1_555
H21 C26 1_555 1_555
C27 C26 1_555 1_555
H22 C27 1_555 1_555
C28 C27 1_555 1_555
C29 C28 1_555 1_555
H23 C29 1_555 1_555
C30 N6 1_555 1_555
H24 C30 1_555 1_555
C31 N7 1_555 1_555
H25 C31 1_555 1_555
C32 C31 1_555 1_555
H26 C32 1_555 1_555
C33 C28 1_555 1_555
C34 C33 1_555 1_555
H27 C34 1_555 1_555
C35 N7 1_555 1_555
H28 C35 1_555 1_555
C36 N8 1_555 1_555
H29 C36 1_555 1_555
C37 C36 1_555 1_555
H30 C37 1_555 1_555
C38 C37 1_555 1_555
C39 C38 1_555 1_555
H31 C39 1_555 1_555
C40 N8 1_555 1_555
H32 C40 1_555 1_555
C41 H33 1_555 1_555
C42 C41 1_555 1_555
H34 C42 1_555 1_555
C43 C38 1_555 1_555
C44 C43 1_555 1_555
H35 C44 1_555 1_555
C45 N9 1_555 1_555
H36 C45 1_555 1_555
W1B O1B 1_555 1_555
W1_2 O21_2 1_555 1_555
W2_2 O21 1_555 1_555
W2B O9B 1_555 1_555
W3B O14B 1_555 1_555
W3_2 O36 1_555 1_555
W4B O2B 1_555 1_555
W4_2 O40 1_555 1_555
W5B O7B 1_555 1_555
W5_2 O53 1_555 1_555
W6B O16B 1_555 1_555
W7B O4B 1_555 1_555
W7_2 O24 1_555 1_555
W8B O1B 1_555 1_555
W9B O3B 1_555 1_555
W10_2 O33 1_555 1_555
W10B O33B 1_555 1_555
W11B O29B 1_555 1_555
W11_2 O39 1_555 1_555
W12_2 O27 1_555 1_555
W13B O3B 1_555 1_555
W14_2 O18_2 1_555 1_555
W15B O5B 1_555 1_555
W16B O11B 1_555 1_555
W17B O5B 1_555 1_555
W18B O23B 1_555 1_555
P1B O3B 1_555 1_555
P2_2 O24_2 1_555 1_555
Cu1B O42B 1_555 1_555
Cu2B O6B 1_555 1_555
Cu3B O9B 1_555 1_555
O4B W9B 1_555 1_555
O6B W1B 1_555 1_555
O8B W1B 1_555 1_555
O9_2 W2_2 1_555 1_555
O10_2 W10_2 1_555 1_555
O11B W9B 1_555 1_555
O12B W1B 1_555 1_555
O13B W8B 1_555 1_555
O14B W7B 1_555 1_555
O15B W15B 1_555 1_555
O16B W13B 1_555 1_555
O17B W9B 1_555 1_555
O18_2 W10_2 1_555 1_555
O19B W9B 1_555 1_555
O20B W17B 1_555 1_555
O21_2 W2 1_555 1_555
O21B W1B 1_555 1_555
O22B W4B 1_555 1_555
O23B W17B 1_555 1_555
O24_2 W3 1_555 1_555
O24B W3B 1_555 1_555
O25B W6B 1_555 1_555
O26B W3B 1_555 1_555
O27_2 W12 1_555 1_555
O27B W4B 1_555 1_555
O28B W6B 1_555 1_555
O29B W6B 1_555 1_555
O30_2 W10_2 1_555 1_555
O31B W16B 1_555 1_555
O32B W13B 1_555 1_555
O33B W5B 1_555 1_555
O33_2 W10 1_555 1_555
O34B W5B 1_555 1_555
O35B W3B 1_555 1_555
O36_2 W3 1_555 1_555
O36B W3B 1_555 1_555
O37B W5B 1_555 1_555
O38_2 W2_2 1_555 1_555
O39_2 W11 1_555 1_555
O39B W11B 1_555 1_555
O40_2 W4 1_555 1_555
O40B W4B 1_555 1_555
O41B W11B 1_555 1_555
O42B W13B 1_555 1_555
O43B W1B 1_555 1_555
O44_2 W4 1_555 1_555
O44B W4B 1_555 1_555
O45B W6B 1_555 1_555
O46_2 W10 1_555 1_555
O46B W7B 1_555 1_555
O47_2 W10_2 1_555 1_555
O48B W9B 1_555 1_555
O49B W4B 1_555 1_555
O50B W15B 1_555 1_555
O51B W3B 1_555 1_555
O52B W15B 1_555 1_555
O53_2 W5 1_555 1_555
O53B W5B 1_555 1_555
O54_2 W5 1_555 1_555
O54B W5B 1_555 1_555
O55B W8B 1_555 1_555
O56B W6B 1_555 1_555
O57_2 W12_2 1_555 1_555
O58B W18B 1_555 1_555
O59B W7B 1_555 1_555
O60B W16B 1_555 1_555
O61_2 W14_2 1_555 1_555
O62_2 W12_2 1_555 1_555
N1B Cu1B 1_555 1_555
N2B C6B 1_555 1_555
N3B Cu1B 1_555 1_555
N4B C16B 1_555 1_555
N5B Cu2B 1_555 1_555
N6B Cu2B 1_555 1_555
N7B Cu3B 1_555 1_555
N8B Cu3B 1_555 1_555
N9B C41B 1_555 1_555
C1B N1B 1_555 1_555
H1B C1B 1_555 1_555
C2B C1B 1_555 1_555
H2B C2B 1_555 1_555
C3B C2B 1_555 1_555
C4B C3B 1_555 1_555
H3B C4B 1_555 1_555
C5B N1B 1_555 1_555
H4B C5B 1_555 1_555
C6B H5B 1_555 1_555
C7B C6B 1_555 1_555
H6B C7B 1_555 1_555
C8B C3B 1_555 1_555
C9B C8B 1_555 1_555
H7B C9B 1_555 1_555
C10B N2B 1_555 1_555
H8B C10B 1_555 1_555
C11B N3B 1_555 1_555
H9B C11B 1_555 1_555
C12B C11B 1_555 1_555
H10B C12B 1_555 1_555
C13B C13 1_555 1_555
C14B C13B 1_555 1_555
H11B C14B 1_555 1_555
C15B N3B 1_555 1_555
H12B C15B 1_555 1_555
C16B H13B 1_555 1_555
C17B C16B 1_555 1_555
H14B C17B 1_555 1_555
C18B C17B 1_555 1_555
C19B C18B 1_555 1_555
H15B C19B 1_555 1_555
C20B N4B 1_555 1_555
H16B C20B 1_555 1_555
C21B N5B 1_555 1_555
H17B C21B 1_555 1_555
C22B C21B 1_555 1_555
H18B C22B 1_555 1_555
C23B C18B 1_555 1_555
C24B C23B 1_555 1_555
H19B C24B 1_555 1_555
C25B N5B 1_555 1_555
H20B C25B 1_555 1_555
C26B N6B 1_555 1_555
H21B C26B 1_555 1_555
C27B C26B 1_555 1_555
H22B C27B 1_555 1_555
C28B C27B 1_555 1_555
C29B C28B 1_555 1_555
H23B C29B 1_555 1_555
C30B N6B 1_555 1_555
H24B C30B 1_555 1_555
C31B N7B 1_555 1_555
H25B C31B 1_555 1_555
C32B C31B 1_555 1_555
H26B C32B 1_555 1_555
C33B C28B 1_555 1_555
C34B C33B 1_555 1_555
H27B C34B 1_555 1_555
C35B N7B 1_555 1_555
H28B C35B 1_555 1_555
C36B N8B 1_555 1_555
H29B C36B 1_555 1_555
C37B C36B 1_555 1_555
H30B C37B 1_555 1_555
C38B C37B 1_555 1_555
C39B C38B 1_555 1_555
H31B C39B 1_555 1_555
C40B N8B 1_555 1_555
H32B C40B 1_555 1_555
C41B H33B 1_555 1_555
C42B C41B 1_555 1_555
H34B C42B 1_555 1_555
C43B C38B 1_555 1_555
C44B C43B 1_555 1_555
H35B C44B 1_555 1_555
C45B N9B 1_555 1_555
H36B C45B 1_555 1_555
W7 O34 1_555 1_555
W7 O24_2 1_555 1_555
W8 O22 1_555 1_555
W8 O28 1_555 1_555
W8 O45 1_555 1_555
W11 O49 1_555 1_555
W11 O51 1_555 1_555
W11 O40_2 1_555 1_555
W12 O38 1_555 1_555
W12 O47 1_555 1_555
W13 O17 1_555 1_555
W13 O35 1_555 1_555
W14 O47 1_555 1_555
W14 O57 1_555 1_555
W15 O8 1_555 1_555
W15 O13 1_555 1_555
W16 O12 1_555 1_555
W16 O37 1_555 1_555
W16 O43 1_555 1_555
W17 O48 1_555 1_555
W17 O52 1_555 1_555
W17 O60 1_555 1_555
W18 O25 1_555 1_555
W18 O32 1_555 1_555
W18 O50 1_555 1_555
W18 O52 1_555 1_555
P1 O12 1_555 1_555
P1 O28 1_555 1_555
P1 O52 1_555 1_555
P2 O47 1_555 1_555
P2 O54 1_555 1_555
O40 W11_2 1_555 1_555
O44 W4_2 1_555 1_555
O46 W10_2 1_555 1_555
O54 W5_2 1_555 1_555
C4 C5 1_555 1_555
C7 C8 1_555 1_555
C9 C10 1_555 1_555
C14 C15 1_555 1_555
C19 C20 1_555 1_555
C22 C23 1_555 1_555
C24 C25 1_555 1_555
C29 C30 1_555 1_555
C32 C33 1_555 1_555
C34 C35 1_555 1_555
C39 C40 1_555 1_555
C42 C43 1_555 1_555
C44 C45 1_555 1_555
W2_2 O44_2 1_555 1_555
W2_2 O53_2 1_555 1_555
W2_2 O54_2 1_555 1_555
W4_2 O27_2 1_555 1_555
W5_2 O33_2 1_555 1_555
W7B O24B 1_555 1_555
W7B O34B 1_555 1_555
W7_2 O46_2 1_555 1_555
W8B O22B 1_555 1_555
W8B O28B 1_555 1_555
W8B O45B 1_555 1_555
W10B O46B 1_555 1_555
W11B O40B 1_555 1_555
W11B O49B 1_555 1_555
W11B O51B 1_555 1_555
W12_2 O30_2 1_555 1_555
W12_2 O38_2 1_555 1_555
W12_2 O47_2 1_555 1_555
W13B O17B 1_555 1_555
W13B O35B 1_555 1_555
W14_2 O36_2 1_555 1_555
W14_2 O39_2 1_555 1_555
W14_2 O47_2 1_555 1_555
W14_2 O57_2 1_555 1_555
W15B O8B 1_555 1_555
W15B O13B 1_555 1_555
W16B O12B 1_555 1_555
W16B O37B 1_555 1_555
W16B O43B 1_555 1_555
W17B O48B 1_555 1_555
W17B O52B 1_555 1_555
W17B O60B 1_555 1_555
W18B O25B 1_555 1_555
W18B O32B 1_555 1_555
W18B O50B 1_555 1_555
W18B O52B 1_555 1_555
P1B O12B 1_555 1_555
P1B O28B 1_555 1_555
P1B O52B 1_555 1_555
P2_2 O40_2 1_555 1_555
P2_2 O47_2 1_555 1_555
P2_2 O54_2 1_555 1_555
C4B C5B 1_555 1_555
C7B C8B 1_555 1_555
C9B C10B 1_555 1_555
C12B C13B 1_555 1_555
C14B C15B 1_555 1_555
C19B C20B 1_555 1_555
C22B C23B 1_555 1_555
C24B C25B 1_555 1_555
C29B C30B 1_555 1_555
C32B C33B 1_555 1_555
C34B C35B 1_555 1_555
C39B C40B 1_555 1_555
C42B C43B 1_555 1_555
C44B C45B 1_555 1_555

#END
