
#######################################################################
#
#                 Cambridge Crystallographic Data Centre
#                                CCDC 
#
#######################################################################
#
# If this CIF has been generated from an entry in the Cambridge 
# Structural Database, then it will include bibliographic, chemical, 
# crystal, experimental, refinement or atomic coordinate data resulting 
# from the CCDC's data processing and validation procedures.
#
#######################################################################

data_EZATOP
_symmetry_cell_setting           orthorhombic
_symmetry_space_group_name_H-M   'P c c n'
_symmetry_Int_Tables_number      56
_space_group_name_Hall           '-P 2ab 2ac'
loop_
_symmetry_equiv_pos_site_id
_symmetry_equiv_pos_as_xyz
1 x,y,z
2 1/2-x,1/2-y,z
3 -x,1/2+y,1/2-z
4 1/2+x,-y,1/2-z
5 -x,-y,-z
6 1/2+x,1/2+y,-z
7 x,1/2-y,1/2+z
8 1/2-x,y,1/2+z
_cell_length_a                   12.3182(17)
_cell_length_b                   26.208(4)
_cell_length_c                   6.9648(9)
_cell_angle_alpha                90
_cell_angle_beta                 90
_cell_angle_gamma                90
_cell_volume                     2248.48
loop_
_atom_site_label
_atom_site_type_symbol
_atom_site_fract_x
_atom_site_fract_y
_atom_site_fract_z
Mn1 Mn 0.70070(3) 0.327017(12) 0.26136(5)
C1 C 0.59401(17) 0.27930(8) -0.0945(3)
C2 C 0.48102(16) 0.29384(8) -0.0429(3)
C3 C 0.39943(17) 0.25748(8) -0.0527(3)
H1 H 0.4157 0.2246 -0.0937
C4 C 0.29324(17) 0.26980(8) -0.0019(3)
C5 C 0.27017(18) 0.31958(9) 0.0535(4)
H2 H 0.1994 0.3285 0.0856
C6 C 0.35142(19) 0.35598(9) 0.0614(4)
H3 H 0.3349 0.3892 0.0981
C7 C 0.45667(18) 0.34323(8) 0.0152(3)
H4 H 0.5113 0.3676 0.0228
C8 C 0.8843(2) 0.39318(9) 0.0642(4)
C9 C 0.96472(19) 0.42965(8) 0.1482(3)
C10 C 0.94026(19) 0.45388(8) 0.3196(3)
H5 H 0.8738 0.4475 0.3783
C11 C 1.01296(18) 0.48760(8) 0.4063(3)
C12 C 1.1103(2) 0.49668(10) 0.3104(4)
H6 H 1.1595 0.5198 0.3620
C13 C 1.1354(2) 0.47208(10) 0.1404(4)
H7 H 1.2016 0.4784 0.0807
C14 C 1.0630(2) 0.43835(9) 0.0590(4)
H8 H 1.0802 0.4216 -0.0548
O1 O 0.67183(12) 0.30887(6) -0.0384(2)
O2 O 0.61099(13) 0.24092(7) -0.1929(3)
O3 O 0.79659(15) 0.38587(7) 0.1526(3)
O4 O 0.90764(15) 0.37218(7) -0.0922(3)
Mn1A Mn -0.20070(3) 0.172983(12) 0.26136(5)
Mn1G Mn 0.79930(3) 0.327017(12) -0.23864(5)
Mn1F Mn 0.70070(3) 0.172983(12) -0.23864(5)
Mn1F_2 Mn -0.29930(3) 0.172983(12) -0.23864(5)
Mn1G_2 Mn -0.20070(3) 0.327017(12) -0.23864(5)
Mn1D Mn 1.29930(3) 0.672983(12) 0.73864(5)
Mn1C Mn 1.20070(3) 0.672983(12) 1.23864(5)
C1A C -0.09401(17) 0.22070(8) -0.0945(3)
C2A C 0.01898(16) 0.20616(8) -0.0429(3)
C3A C 0.10057(17) 0.24252(8) -0.0527(3)
H1A H 0.0843 0.2754 -0.0937
C4A C 0.20676(17) 0.23020(8) -0.0019(3)
C5A C 0.22983(18) 0.18042(9) 0.0535(4)
H2A H 0.3006 0.1715 0.0856
C6A C 0.14858(19) 0.14402(9) 0.0614(4)
H3A H 0.1651 0.1108 0.0981
C7A C 0.04333(18) 0.15677(8) 0.0152(3)
H4A H -0.0113 0.1324 0.0228
C8D C 1.1157(2) 0.60682(9) 0.9358(4)
C9D C 1.03528(19) 0.57035(8) 0.8518(3)
C10D C 1.05974(19) 0.54612(8) 0.6804(3)
H5D H 1.1262 0.5525 0.6217
C11D C 0.98704(18) 0.51240(8) 0.5937(3)
C12D C 0.8897(2) 0.50332(10) 0.6896(4)
H6D H 0.8405 0.4802 0.6380
C13D C 0.8646(2) 0.52792(10) 0.8596(4)
H7D H 0.7984 0.5216 0.9193
C14D C 0.9370(2) 0.56165(9) 0.9410(4)
H8D H 0.9198 0.5784 1.0548
O1A O -0.17183(12) 0.19113(6) -0.0384(2)
O1G O 0.82817(12) 0.30887(6) 0.4616(2)
O1F O -0.32817(12) 0.19113(6) 0.4616(2)
O2A O -0.11099(13) 0.25908(7) -0.1929(3)
O2F O 0.61099(13) 0.25908(7) 0.3071(3)
O2G O -0.11099(13) 0.24092(7) 0.3071(3)
O3D O 1.20341(15) 0.61413(7) 0.8474(3)
O3A O -0.29659(15) 0.11413(7) 0.1526(3)
O4D O 1.09236(15) 0.62782(7) 1.0922(3)
O4G O 0.59236(15) 0.37218(7) 0.4078(3)
O4F O -0.09236(15) 0.12782(7) 0.4078(3)
loop_
_geom_bond_atom_site_label_1
_geom_bond_atom_site_label_2
_geom_bond_site_symmetry_1
_geom_bond_site_symmetry_2
Mn1 O1 1_555 1_555
C1 C2 1_555 1_555
C2 C3 1_555 1_555
C3 H1 1_555 1_555
C4 C3 1_555 1_555
C5 C4 1_555 1_555
H2 C5 1_555 1_555
C6 C5 1_555 1_555
H3 C6 1_555 1_555
C7 C2 1_555 1_555
H4 C7 1_555 1_555
C8 C9 1_555 1_555
C9 C10 1_555 1_555
C10 H5 1_555 1_555
C11 C10 1_555 1_555
C12 C11 1_555 1_555
H6 C12 1_555 1_555
C13 C12 1_555 1_555
H7 C13 1_555 1_555
C14 C9 1_555 1_555
H8 C14 1_555 1_555
O1 C1 1_555 1_555
O2 C1 1_555 1_555
O3 Mn1 1_555 1_555
O4 C8 1_555 1_555
Mn1A O1A 1_555 1_555
Mn1G O1 1_555 1_555
Mn1F O2 1_555 1_555
Mn1F_2 O1A 1_555 1_555
Mn1G_2 O2A 1_555 1_555
Mn1D O3D 1_555 1_555
Mn1C O4D 1_555 1_555
C1A C2A 1_555 1_555
C2A C3A 1_555 1_555
C3A H1A 1_555 1_555
C4A C4 1_555 1_555
C5A C4A 1_555 1_555
H2A C5A 1_555 1_555
C6A C5A 1_555 1_555
H3A C6A 1_555 1_555
C7A C2A 1_555 1_555
H4A C7A 1_555 1_555
C8D C9D 1_555 1_555
C9D C10D 1_555 1_555
C10D H5D 1_555 1_555
C11D C11 1_555 1_555
C12D C11D 1_555 1_555
H6D C12D 1_555 1_555
C13D C12D 1_555 1_555
H7D C13D 1_555 1_555
C14D C9D 1_555 1_555
H8D C14D 1_555 1_555
O1A C1A 1_555 1_555
O1G Mn1 1_555 1_555
O1F Mn1A 1_555 1_555
O2A C1A 1_555 1_555
O2F Mn1 1_555 1_555
O2G Mn1A 1_555 1_555
O3D C8D 1_555 1_555
O3A Mn1A 1_555 1_555
O4D C8D 1_555 1_555
O4G Mn1 1_555 1_555
O4F Mn1A 1_555 1_555
C6 C7 1_555 1_555
C8 O3 1_555 1_555
C13 C14 1_555 1_555
O4 Mn1G 1_555 1_555
C3A C4A 1_555 1_555
C6A C7A 1_555 1_555
C10D C11D 1_555 1_555
C13D C14D 1_555 1_555

#END
