
#######################################################################
#
#                 Cambridge Crystallographic Data Centre
#                                CCDC 
#
#######################################################################
#
# If this CIF has been generated from an entry in the Cambridge 
# Structural Database, then it will include bibliographic, chemical, 
# crystal, experimental, refinement or atomic coordinate data resulting 
# from the CCDC's data processing and validation procedures.
#
#######################################################################

data_EZATIJ
_symmetry_cell_setting           monoclinic
_symmetry_space_group_name_H-M   'P 21/c'
_symmetry_Int_Tables_number      14
_space_group_name_Hall           '-P 2ybc'
loop_
_symmetry_equiv_pos_site_id
_symmetry_equiv_pos_as_xyz
1 x,y,z
2 -x,1/2+y,1/2-z
3 -x,-y,-z
4 x,1/2-y,1/2+z
_cell_length_a                   8.811(5)
_cell_length_b                   20.210(12)
_cell_length_c                   9.600(6)
_cell_angle_alpha                90
_cell_angle_beta                 102.534(6)
_cell_angle_gamma                90
_cell_volume                     1668.73
loop_
_atom_site_label
_atom_site_type_symbol
_atom_site_fract_x
_atom_site_fract_y
_atom_site_fract_z
Mn1 Mn 0.38086(5) 0.50106(2) 1.09112(4)
C1 C 0.8523(4) 0.77140(14) 1.1827(3)
C2 C 0.8111(3) 0.70673(14) 1.1410(3)
H1 H 0.8731 0.6826 1.0923
C3 C 0.6788(4) 0.67763(14) 1.1708(3)
C4 C 0.5880(4) 0.71312(16) 1.2443(4)
H2 H 0.5005 0.6936 1.2662
C5 C 0.6263(4) 0.77743(17) 1.2855(4)
H3 H 0.5637 0.8016 1.3335
C6 C 0.7574(4) 0.80569(16) 1.2554(3)
H4 H 0.7830 0.8489 1.2845
C7 C 0.6343(4) 0.60894(15) 1.1192(4)
C8 C 0.9957(4) 0.80121(14) 1.1522(3)
C9 C 1.0856(3) 0.84590(13) 1.2469(3)
H5 H 1.0542 0.8580 1.3298
C10 C 1.2209(4) 0.87233(14) 1.2188(3)
C11 C 1.2682(4) 0.85450(17) 1.0971(4)
H6 H 1.3600 0.8716 1.0789
C12 C 1.1797(5) 0.81107(19) 1.0013(4)
H7 H 1.2110 0.7994 0.9181
C13 C 1.0453(4) 0.78523(18) 1.0297(4)
H8 H 0.9862 0.7562 0.9645
C14 C 1.3147(4) 0.91978(15) 1.3235(4)
C15 C 0.0949(4) 0.52853(18) 1.2192(4)
H9 H 0.0581 0.5478 1.1303
C16 C 0.0004(4) 0.52890(18) 1.3147(3)
H10 H -0.0974 0.5483 1.2898
C17 C 0.0489(3) 0.50078(15) 1.4474(3)
C18 C 0.1970(4) 0.47360(17) 1.4752(3)
H11 H 0.2371 0.4539 1.5631
C19 C 0.2837(4) 0.47572(17) 1.3740(3)
H12 H 0.3828 0.4573 1.3961
N1 N 0.2359(3) 0.50238(12) 1.2460(2)
O1 O 0.5255(3) 0.58182(11) 1.1637(2)
O2 O 0.7052(3) 0.58274(10) 1.0327(2)
O3 O 1.2625(3) 0.93686(11) 1.4294(2)
O4 O 1.4416(3) 0.93915(11) 1.2978(2)
Mn1B Mn -0.38086(5) 0.49894(2) 1.90888(4)
Mn1B_2 Mn 0.61914(5) 0.49894(2) 0.90888(4)
Mn1C Mn 1.38086(5) 0.99894(2) 1.59112(4)
Mn1A Mn 1.61914(5) 1.00106(2) 1.40888(4)
Mn1A_2 Mn -0.38086(5) 0.00106(2) 0.40888(4)
Mn1C_2 Mn -0.61914(5) -0.00106(2) 0.59112(4)
C1B C 0.1477(4) 0.22860(14) 0.8173(3)
C2B C 0.1889(3) 0.29327(14) 0.8590(3)
H1B H 0.1269 0.3174 0.9077
C3B C 0.3212(4) 0.32237(14) 0.8292(3)
C4B C 0.4120(4) 0.28688(16) 0.7557(4)
H2B H 0.4995 0.3064 0.7338
C5B C 0.3737(4) 0.22257(17) 0.7145(4)
H3B H 0.4363 0.1984 0.6665
C6B C 0.2426(4) 0.19431(16) 0.7446(3)
H4B H 0.2170 0.1511 0.7155
C7B C 0.3657(4) 0.39106(15) 0.8808(4)
C8B C 0.0043(4) 0.19879(14) 0.8478(3)
C9B C -0.0856(3) 0.15410(13) 0.7531(3)
H5B H -0.0542 0.1420 0.6702
C10B C -0.2209(4) 0.12767(14) 0.7812(3)
C11B C -0.2682(4) 0.14550(17) 0.9029(4)
H6B H -0.3600 0.1284 0.9211
C12B C -0.1797(5) 0.18893(19) 0.9987(4)
H7B H -0.2110 0.2006 1.0819
C13B C -0.0453(4) 0.21477(18) 0.9703(4)
H8B H 0.0138 0.2438 1.0355
C14B C -0.3147(4) 0.08022(15) 0.6765(4)
C15B C -0.0949(4) 0.47147(18) 1.7808(4)
H9B H -0.0581 0.4522 1.8697
C16B C -0.0004(4) 0.47110(18) 1.6853(3)
H10B H 0.0974 0.4517 1.7102
C17B C -0.0489(3) 0.49922(15) 1.5526(3)
C18B C -0.1970(4) 0.52640(17) 1.5248(3)
H11B H -0.2371 0.5461 1.4369
C19B C -0.2837(4) 0.52428(17) 1.6260(3)
H12B H -0.3828 0.5427 1.6039
N1B N -0.2359(3) 0.49762(12) 1.7540(2)
O1B O 0.4745(3) 0.41818(11) 0.8363(2)
O1B_2 O -0.5255(3) 0.41818(11) 1.8363(2)
O2B O 0.2948(3) 0.41726(10) 0.9673(2)
O2_2 O -0.2948(3) 0.58274(10) 2.0327(2)
O3B O -0.2625(3) 0.06314(11) 0.5706(2)
O3C O 0.2625(3) 0.56314(11) 0.9294(2)
O3A O -0.2625(3) 0.43686(11) 2.0706(2)
O4B O -0.4416(3) 0.06085(11) 0.7022(2)
O4A O 0.5584(3) 0.43915(11) 1.2022(2)
O4C O -0.5584(3) 0.56085(11) 1.7978(2)
loop_
_geom_bond_atom_site_label_1
_geom_bond_atom_site_label_2
_geom_bond_site_symmetry_1
_geom_bond_site_symmetry_2
Mn1 N1 1_555 1_555
C1 C2 1_555 1_555
C2 H1 1_555 1_555
C3 C2 1_555 1_555
C4 C3 1_555 1_555
H2 C4 1_555 1_555
C5 C4 1_555 1_555
H3 C5 1_555 1_555
C6 C1 1_555 1_555
H4 C6 1_555 1_555
C7 C3 1_555 1_555
C8 C1 1_555 1_555
C9 C8 1_555 1_555
H5 C9 1_555 1_555
C10 C9 1_555 1_555
C11 C10 1_555 1_555
H6 C11 1_555 1_555
C12 C11 1_555 1_555
H7 C12 1_555 1_555
C13 C8 1_555 1_555
H8 C13 1_555 1_555
C14 C10 1_555 1_555
C15 H9 1_555 1_555
C16 C15 1_555 1_555
H10 C16 1_555 1_555
C17 C16 1_555 1_555
C18 C17 1_555 1_555
H11 C18 1_555 1_555
C19 C18 1_555 1_555
H12 C19 1_555 1_555
N1 C15 1_555 1_555
O1 Mn1 1_555 1_555
O2 C7 1_555 1_555
O3 C14 1_555 1_555
O4 C14 1_555 1_555
Mn1B N1B 1_555 1_555
Mn1B_2 O2 1_555 1_555
Mn1C O3 1_555 1_555
Mn1A O4 1_555 1_555
Mn1A_2 O3B 1_555 1_555
Mn1C_2 O4B 1_555 1_555
C1B C2B 1_555 1_555
C2B H1B 1_555 1_555
C3B C2B 1_555 1_555
C4B C3B 1_555 1_555
H2B C4B 1_555 1_555
C5B C4B 1_555 1_555
H3B C5B 1_555 1_555
C6B C1B 1_555 1_555
H4B C6B 1_555 1_555
C7B C3B 1_555 1_555
C8B C1B 1_555 1_555
C9B C8B 1_555 1_555
H5B C9B 1_555 1_555
C10B C9B 1_555 1_555
C11B C10B 1_555 1_555
H6B C11B 1_555 1_555
C12B C11B 1_555 1_555
H7B C12B 1_555 1_555
C13B C8B 1_555 1_555
H8B C13B 1_555 1_555
C14B C10B 1_555 1_555
C15B H9B 1_555 1_555
C16B C15B 1_555 1_555
H10B C16B 1_555 1_555
C17B C17 1_555 1_555
C18B C17B 1_555 1_555
H11B C18B 1_555 1_555
C19B C18B 1_555 1_555
H12B C19B 1_555 1_555
N1B C15B 1_555 1_555
O1B Mn1B_2 1_555 1_555
O1B_2 Mn1B 1_555 1_555
O2B Mn1 1_555 1_555
O2_2 Mn1B 1_555 1_555
O3B C14B 1_555 1_555
O3C Mn1 1_555 1_555
O3A Mn1B 1_555 1_555
O4B C14B 1_555 1_555
O4A Mn1 1_555 1_555
O4C Mn1B 1_555 1_555
C5 C6 1_555 1_555
C7 O1 1_555 1_555
C12 C13 1_555 1_555
C19 N1 1_555 1_555
C5B C6B 1_555 1_555
C7B O1B 1_555 1_555
C7B O2B 1_555 1_555
C12B C13B 1_555 1_555
C16B C17B 1_555 1_555
C19B N1B 1_555 1_555

#END
