
#######################################################################
#
#                 Cambridge Crystallographic Data Centre
#                                CCDC 
#
#######################################################################
#
# If this CIF has been generated from an entry in the Cambridge 
# Structural Database, then it will include bibliographic, chemical, 
# crystal, experimental, refinement or atomic coordinate data resulting 
# from the CCDC's data processing and validation procedures.
#
#######################################################################

data_EZAWIL
_symmetry_cell_setting           orthorhombic
_symmetry_space_group_name_H-M   'F d d 2'
_symmetry_Int_Tables_number      43
_space_group_name_Hall           'F 2 -2d'
loop_
_symmetry_equiv_pos_site_id
_symmetry_equiv_pos_as_xyz
1 x,y,z
2 -x,-y,z
3 1/4+x,1/4-y,1/4+z
4 1/4-x,1/4+y,1/4+z
5 x,1/2+y,1/2+z
6 -x,1/2-y,1/2+z
7 1/4+x,3/4-y,3/4+z
8 1/4-x,3/4+y,3/4+z
9 1/2+x,y,1/2+z
10 1/2-x,-y,1/2+z
11 3/4+x,1/4-y,3/4+z
12 3/4-x,1/4+y,3/4+z
13 1/2+x,1/2+y,z
14 1/2-x,1/2-y,z
15 3/4+x,3/4-y,1/4+z
16 3/4-x,3/4+y,1/4+z
_cell_length_a                   27.328(6)
_cell_length_b                   32.125(6)
_cell_length_c                   18.424(4)
_cell_angle_alpha                90
_cell_angle_beta                 90
_cell_angle_gamma                90
_cell_volume                     16174.7
loop_
_atom_site_label
_atom_site_type_symbol
_atom_site_fract_x
_atom_site_fract_y
_atom_site_fract_z
Fe1 Fe 0.5000 0.0000 0.22526(14)
Fe2 Fe 0.5000 0.0000 -0.18891(17)
O1 O 0.4707(3) 0.0369(3) 0.1430(5)
O2 O 0.4366(3) -0.0308(3) 0.2055(5)
O3 O 0.4071(3) 0.0396(3) 0.0678(6)
O4 O 0.3717(3) -0.0312(3) 0.1288(5)
Cl1 Cl 0.52569(16) -0.04681(13) 0.3107(2)
Cl2 Cl 0.47579(19) -0.0460(2) -0.2768(3)
C1 C 0.4106(4) -0.0164(4) 0.1535(7)
C2 C 0.4306(5) 0.0242(4) 0.1175(8)
O5 O 0.4694(4) -0.0354(3) -0.1090(6)
O6 O 0.4369(3) 0.0311(3) -0.1701(6)
O7 O 0.4081(4) -0.0361(3) -0.0305(6)
O8 O 0.3757(4) 0.0359(3) -0.0913(5)
C3 C 0.4313(4) -0.0218(4) -0.0823(8)
C4 C 0.4121(5) 0.0187(4) -0.1164(8)
Fe3 Fe 0.19276(6) 0.08050(5) 0.20407(9)
Fe4 Fe 0.20435(6) -0.08500(5) -0.17724(9)
Fe5 Fe 0.33880(8) 0.00110(8) 0.01721(17)
Cl3 Cl 0.15039(12) 0.05348(11) 0.29853(19)
Cl4 Cl 0.15800(12) -0.06084(11) -0.2713(2)
O9 O 0.2217(3) 0.0244(3) 0.1801(5)
O10 O 0.2341(3) 0.0943(3) 0.1108(5)
O11 O 0.2720(3) -0.0089(3) 0.1033(6)
O12 O 0.2928(3) 0.0660(3) 0.0432(6)
C5 C 0.2516(4) 0.0229(4) 0.1277(7)
C6 C 0.2616(4) 0.0647(4) 0.0894(7)
O13 O 0.1015(3) 0.1737(3) 0.1477(5)
O14 O 0.0748(3) 0.1059(2) 0.0765(5)
O15 O 0.1626(3) 0.1389(3) 0.1989(5)
O16 O 0.1351(3) 0.0711(3) 0.1297(5)
C7 C 0.1257(4) 0.1421(4) 0.1588(7)
C8 C 0.1111(4) 0.1028(4) 0.1187(7)
O17 O 0.2280(3) -0.0273(3) -0.1548(5)
O18 O 0.2473(3) -0.0972(3) -0.0879(5)
O19 O 0.2752(4) 0.0073(3) -0.0754(6)
O20 O 0.3014(3) -0.0656(3) -0.0152(5)
C9 C 0.2567(4) -0.0251(4) -0.0994(7)
C10 C 0.2702(4) -0.0658(3) -0.0649(7)
O21 O 0.2442(3) 0.1058(3) 0.2612(6)
O1A O 0.5293(3) -0.0369(3) 0.1430(5)
O2A O 0.5634(3) 0.0308(3) 0.2055(5)
O3A O 0.5929(3) -0.0396(3) 0.0678(6)
O4A O 0.6283(3) 0.0312(3) 0.1288(5)
C1A C 0.5894(4) 0.0164(4) 0.1535(7)
C2A C 0.5694(5) -0.0242(4) 0.1175(8)
Cl1A Cl 0.47431(16) 0.04681(13) 0.3107(2)
Fe5A Fe 0.66120(8) -0.00110(8) 0.01721(17)
O5A O 0.5306(4) 0.0354(3) -0.1090(6)
O6A O 0.5631(3) -0.0311(3) -0.1701(6)
O7A O 0.5919(4) 0.0361(3) -0.0305(6)
O8A O 0.6243(4) -0.0359(3) -0.0913(5)
C3A C 0.5687(4) 0.0218(4) -0.0823(8)
C4A C 0.5879(5) -0.0187(4) -0.1164(8)
O9A O 0.7783(3) -0.0244(3) 0.1801(5)
O10A O 0.7659(3) -0.0943(3) 0.1108(5)
O11A O 0.7280(3) 0.0089(3) 0.1033(6)
O12A O 0.7072(3) -0.0660(3) 0.0432(6)
C5A C 0.7484(4) -0.0229(4) 0.1277(7)
C6A C 0.7384(4) -0.0647(4) 0.0894(7)
O17A O 0.7720(3) 0.0273(3) -0.1548(5)
O18A O 0.7527(3) 0.0972(3) -0.0879(5)
O19A O 0.7248(4) -0.0073(3) -0.0754(6)
O20A O 0.6986(3) 0.0656(3) -0.0152(5)
C9A C 0.7433(4) 0.0251(4) -0.0994(7)
C10A C 0.7298(4) 0.0658(3) -0.0649(7)
Fe3A Fe 0.80724(6) -0.08050(5) 0.20407(9)
Fe4A Fe 0.79565(6) 0.08500(5) -0.17724(9)
Cl2A Cl 0.52421(19) 0.0460(2) -0.2768(3)
O13G O 0.1485(3) -0.0763(3) -0.1023(5)
O14G O 0.1752(3) -0.1441(2) -0.1735(5)
O15G O 0.0874(3) -0.1111(3) -0.0511(5)
O16G O 0.1149(3) -0.1789(3) -0.1203(5)
C7G C 0.1243(4) -0.1079(4) -0.0912(7)
C8G C 0.1389(4) -0.1472(4) -0.1313(7)
O21I O 0.2558(3) -0.1058(3) -0.2388(6)
Cl3A Cl 0.84961(12) -0.05348(11) 0.29853(19)
Cl4A Cl 0.84200(12) 0.06084(11) -0.2713(2)
Fe4C Fe 0.04565(6) 0.16500(5) 0.07276(9)
Fe4I Fe 0.29565(6) 0.08500(5) 0.32276(9)
O15A O 0.8374(3) -0.1389(3) 0.1989(5)
O16A O 0.8649(3) -0.0711(3) 0.1297(5)
O21A O 0.7558(3) -0.1058(3) 0.2612(6)
O13J O 0.8515(3) 0.0763(3) -0.1023(5)
O14J O 0.8248(3) 0.1441(2) -0.1735(5)
O21H O 0.7442(3) 0.1058(3) -0.2388(6)
Fe3G Fe 0.05724(6) -0.16950(5) -0.04593(9)
Fe3I Fe 0.30724(6) -0.08050(5) -0.29593(9)
Fe6 Fe 0.50473(11) -0.15742(7) 0.01657(19)
O22 O 0.5653(4) -0.1178(3) 0.0228(8)
O23 O 0.4454(4) -0.2024(3) 0.0194(6)
O24 O 0.5008(5) -0.1640(4) 0.1284(7)
O25 O 0.4531(6) -0.1102(4) 0.0220(10)
O26 O 0.5556(4) -0.2092(3) 0.0087(7)
O27 O 0.5032(6) -0.1619(4) -0.0956(7)
N1 N 0.6539(8) -0.1683(6) 0.1679(10)
C11 C 0.6212(15) -0.2314(7) 0.2130(19)
C12 C 0.6374(11) -0.2085(10) 0.1545(12)
O28 O 0.6615(4) -0.1429(3) 0.0230(8)
O29 O 0.2469(5) -0.1875(4) -0.2758(9)
O30 O 0.3730(6) -0.1250(4) 0.1080(9)
O31 O 0.3395(9) -0.1533(5) -0.0304(12)
O32 O 0.4438(8) -0.1271(7) -0.1902(13)
O33 O 0.5629(5) -0.1272(3) 0.2314(8)
loop_
_geom_bond_atom_site_label_1
_geom_bond_atom_site_label_2
_geom_bond_site_symmetry_1
_geom_bond_site_symmetry_2
Fe1 O1 1_555 1_555
Fe2 Cl2 1_555 1_555
O1 C2 1_555 1_555
O2 Fe1 1_555 1_555
O3 C2 1_555 1_555
O4 C1 1_555 1_555
Cl1 Fe1 1_555 1_555
C1 O2 1_555 1_555
C2 C1 1_555 1_555
O5 Fe2 1_555 1_555
O6 Fe2 1_555 1_555
O7 C3 1_555 1_555
O8 C4 1_555 1_555
C3 O5 1_555 1_555
C4 O6 1_555 1_555
Fe3 Cl3 1_555 1_555
Fe4 Cl4 1_555 1_555
Fe5 O3 1_555 1_555
O9 Fe3 1_555 1_555
O10 Fe3 1_555 1_555
O11 Fe5 1_555 1_555
O12 Fe5 1_555 1_555
C5 O9 1_555 1_555
C6 O10 1_555 1_555
O13 C7 1_555 1_555
O14 C8 1_555 1_555
O15 Fe3 1_555 1_555
O16 Fe3 1_555 1_555
C7 O15 1_555 1_555
C8 O16 1_555 1_555
O17 Fe4 1_555 1_555
O18 Fe4 1_555 1_555
O19 Fe5 1_555 1_555
O20 Fe5 1_555 1_555
C9 O17 1_555 1_555
C10 O18 1_555 1_555
O21 Fe3 1_555 1_555
Fe6 O22 1_555 1_555
O23 Fe6 1_555 1_555
O24 Fe6 1_555 1_555
O25 Fe6 1_555 1_555
O26 Fe6 1_555 1_555
O27 Fe6 1_555 1_555
N1 C12 1_555 1_555
C11 C12 1_555 1_555
O1A Fe1 1_555 1_555
O2A Fe1 1_555 1_555
O3A C2A 1_555 1_555
O4A C1A 1_555 1_555
C1A O2A 1_555 1_555
C2A O1A 1_555 1_555
Cl1A Fe1 1_555 1_555
Fe5A O3A 1_555 1_555
O5A Fe2 1_555 1_555
O6A Fe2 1_555 1_555
O7A Fe5A 1_555 1_555
O8A Fe5A 1_555 1_555
C3A O5A 1_555 1_555
C4A O6A 1_555 1_555
O9A C5A 1_555 1_555
O10A C6A 1_555 1_555
O11A Fe5A 1_555 1_555
O12A Fe5A 1_555 1_555
C5A O11A 1_555 1_555
C6A O12A 1_555 1_555
O17A C9A 1_555 1_555
O18A C10A 1_555 1_555
O19A Fe5A 1_555 1_555
O20A Fe5A 1_555 1_555
C9A O19A 1_555 1_555
C10A O20A 1_555 1_555
Fe3A O9A 1_555 1_555
Fe4A O17A 1_555 1_555
Cl2A Fe2 1_555 1_555
O13G Fe4 1_555 1_555
O14G Fe4 1_555 1_555
O15G C7G 1_555 1_555
O16G C8G 1_555 1_555
C7G O13G 1_555 1_555
C8G O14G 1_555 1_555
O21I Fe4 1_555 1_555
Cl3A Fe3A 1_555 1_555
Cl4A Fe4A 1_555 1_555
Fe4C O13 1_555 1_555
Fe4I O21 1_555 1_555
O15A Fe3A 1_555 1_555
O16A Fe3A 1_555 1_555
O21A Fe3A 1_555 1_555
O13J Fe4A 1_555 1_555
O14J Fe4A 1_555 1_555
O21H Fe4A 1_555 1_555
Fe3G O15G 1_555 1_555
Fe3I O21I 1_555 1_555
O4 Fe5 1_555 1_555
O7 Fe5 1_555 1_555
O8 Fe5 1_555 1_555
C3 C4 1_555 1_555
O11 C5 1_555 1_555
O12 C6 1_555 1_555
C5 C6 1_555 1_555
O14 Fe4C 1_555 1_555
C7 C8 1_555 1_555
O19 C9 1_555 1_555
O20 C10 1_555 1_555
C9 C10 1_555 1_555
O4A Fe5A 1_555 1_555
C1A C2A 1_555 1_555
O7A C3A 1_555 1_555
O8A C4A 1_555 1_555
C3A C4A 1_555 1_555
O10A Fe3A 1_555 1_555
C5A C6A 1_555 1_555
O18A Fe4A 1_555 1_555
C9A C10A 1_555 1_555
O16G Fe3G 1_555 1_555
C7G C8G 1_555 1_555

#END
