
#######################################################################
#
#                 Cambridge Crystallographic Data Centre
#                                CCDC 
#
#######################################################################
#
# If this CIF has been generated from an entry in the Cambridge 
# Structural Database, then it will include bibliographic, chemical, 
# crystal, experimental, refinement or atomic coordinate data resulting 
# from the CCDC's data processing and validation procedures.
#
#######################################################################

data_EZAXEI
_symmetry_cell_setting           triclinic
_symmetry_space_group_name_H-M   'P -1'
_symmetry_Int_Tables_number      2
_space_group_name_Hall           '-P 1'
loop_
_symmetry_equiv_pos_site_id
_symmetry_equiv_pos_as_xyz
1 x,y,z
2 -x,-y,-z
_cell_length_a                   17.3348(3)
_cell_length_b                   18.0854(2)
_cell_length_c                   20.76920(10)
_cell_angle_alpha                106.9130(10)
_cell_angle_beta                 100.5850(10)
_cell_angle_gamma                105.8490(10)
_cell_volume                     5742.67
loop_
_atom_site_label
_atom_site_type_symbol
_atom_site_fract_x
_atom_site_fract_y
_atom_site_fract_z
Na1 Na -0.7884(9) 0.0332(12) -0.8862(10)
Cl2 Cl 0.1687(3) 0.6367(3) -0.1740(3)
O70 O 0.1503(11) 0.7065(9) -0.1842(10)
O71 O 0.1861(10) 0.6515(12) -0.1016(8)
O72 O 0.2430(9) 0.6360(10) -0.1966(9)
O73 O 0.1009(9) 0.5674(9) -0.2150(9)
Cl3 Cl -0.1696(3) 0.6063(3) 0.0696(3)
O74 O -0.2418(10) 0.5468(14) 0.0191(9)
O75 O -0.1826(12) 0.6266(12) 0.1365(9)
O76 O -0.1444(12) 0.6789(13) 0.0543(12)
O77 O -0.1029(9) 0.5738(10) 0.0683(9)
Cl4 Cl -0.4141(3) 0.0782(3) -0.6405(2)
O78 O -0.4328(11) 0.1436(10) -0.6577(8)
O79 O -0.4826(10) 0.0036(10) -0.6832(8)
O80 O -0.3419(10) 0.0719(12) -0.6599(9)
O81 O -0.4060(9) 0.0912(10) -0.5696(7)
Cl5 Cl -0.9087(3) -0.5406(3) -0.8552(3)
O82 O -0.9197(11) -0.6207(10) -0.8525(11)
O83 O -0.8354(11) -0.5119(12) -0.8743(10)
O84 O -0.9000(11) -0.4840(10) -0.7885(8)
O85 O -0.9789(11) -0.5422(12) -0.9042(10)
Cl6 Cl -0.0658(4) 0.1133(4) -0.2027(3)
O86 O -0.0233(19) 0.170(2) -0.228(2)
O87 O -0.1011(15) 0.0351(16) -0.2555(11)
O88 O -0.0072(10) 0.1128(13) -0.1466(10)
O89 O -0.1321(8) 0.1371(8) -0.1783(7)
Cl7 Cl -0.2153(4) 0.9776(5) -0.4911(3)
O90 O -0.1668(17) 0.944(2) -0.5257(11)
O91 O -0.2643(17) 1.004(2) -0.530(2)
O92 O -0.2673(15) 0.9259(14) -0.4655(12)
O93 O -0.1566(18) 1.036(3) -0.4293(17)
Cl8 Cl -0.4123(3) 0.6730(3) -0.9293(3)
O94 O -0.4225(17) 0.662(2) -0.9984(12)
O95 O -0.4822(10) 0.6905(10) -0.9085(9)
O96 O -0.3434(16) 0.7474(15) -0.9022(19)
O97 O -0.396(2) 0.6179(19) -0.912(2)
Cl9 Cl 0.1515(3) 0.3030(3) 0.6665(2)
O98 O 0.1195(10) 0.2820(10) 0.5934(8)
O99 O 0.2330(9) 0.2989(9) 0.6822(10)
O100 O 0.1589(10) 0.3871(8) 0.7029(8)
O101 O 0.0968(9) 0.2474(9) 0.6883(8)
Cl10 Cl 0.2292(4) 1.2360(4) 0.2704(4)
O102 O 0.179(2) 1.233(2) 0.2111(19)
O103 O 0.1853(19) 1.254(2) 0.316(2)
O104 O 0.2339(16) 1.1597(14) 0.260(2)
O105 O 0.3026(12) 1.2968(12) 0.2782(13)
Cl11 Cl -0.0665(5) 0.4446(7) -0.4212(5)
O106 O -0.025(3) 0.536(3) -0.402(2)
O107 O -0.112(3) 0.425(2) -0.4823(17)
O108 O -0.018(2) 0.407(3) -0.412(3)
O109 O -0.115(3) 0.430(3) -0.379(2)
Cl13 Cl -0.5426(8) 0.2919(11) -0.4871(13)
O110 O -0.588(4) 0.314(6) -0.529(5)
O111 O -0.460(3) 0.362(5) -0.412(5)
O112 O -0.593(2) 0.268(3) -0.442(2)
O113 O -0.505(3) 0.247(5) -0.515(4)
O47 O -0.1572(8) 0.0829(8) 0.3837(6)
O48 O -0.9995(10) -0.2318(15) -1.2565(9)
O49 O -0.063(3) 0.611(2) -0.288(2)
O50 O -0.240(3) 0.213(2) -0.447(2)
O51 O -0.299(2) 0.3374(18) -0.3587(16)
O52 O 0.009(3) 0.078(3) 0.555(3)
O53 O 0.1594(9) 1.1752(9) -0.1849(8)
O54 O -0.071(2) 0.204(3) 0.5224(13)
O55 O -0.5018(16) 0.408(2) -0.6163(11)
O56 O -0.237(2) 0.525(2) -0.319(2)
O57 O -0.580(3) 0.610(2) -0.832(3)
O58 O -0.289(3) 0.538(3) -0.4494(16)
O59 O -0.0206(8) 0.9312(9) -0.1972(8)
O60 O -0.7070(10) 0.6411(10) -0.7851(10)
O61 O -0.4336(9) 0.2910(10) -0.6064(7)
Er1 Er -0.65461(3) -0.16958(3) -0.88924(3)
Er2 Er -1.23554(3) -0.97034(3) -1.84366(3)
Er3 Er -0.49002(3) -0.24658(3) -1.17110(3)
Cu1 Cu -0.70281(9) -0.09568(9) -1.02008(8)
Cu2 Cu -0.36649(9) -0.10381(9) -1.01016(8)
Cu3 Cu -0.57505(9) 0.03608(9) -0.86094(8)
Cu4 Cu -1.44515(9) -1.07088(9) -1.87209(8)
Cu5 Cu -1.37687(9) -0.86894(9) -1.84054(8)
Cu6 Cu -0.56878(9) -0.20143(9) -1.02957(8)
Cu7 Cu -0.85877(10) -0.27778(11) -0.89173(9)
Cu8 Cu -0.74183(10) -0.15905(10) -0.74750(9)
Cu9 Cu -1.08480(10) -0.83955(10) -1.68116(9)
Cu10 Cu -1.14944(10) -1.03347(11) -1.71208(9)
Cu11 Cu -0.56470(11) -0.46555(10) -1.22572(10)
Cu12 Cu -0.36938(12) -0.37750(11) -1.19791(11)
Cu13 Cu -0.5000 0.0000 -0.5000
Cu14 Cu -0.81103(12) -0.64743(12) -1.48537(11)
Cl1 Cl -0.5000(9) 0.0000(12) -1.0000(10)
N1 N -0.9651(7) -0.2955(9) -0.9575(7)
H1 H -0.9865 -0.3480 -0.9878
H2 H -1.0020 -0.2864 -0.9336
N2 N -0.2546(9) -0.3546(9) -1.1425(9)
H3 H -0.2191 -0.3462 -1.1685
H4 H -0.2522 -0.3982 -1.1308
N3 N -0.7357(8) -0.0600(7) -0.6721(6)
H5 H -0.7877 -0.0626 -0.6699
H6 H -0.7068 -0.0582 -0.6306
N4 N -1.2062(7) -1.1199(8) -1.6803(7)
H7 H -1.1922 -1.1007 -1.6330
H8 H -1.1894 -1.1633 -1.6944
N5 N -1.0818(8) -0.7329(8) -1.6200(7)
H9 H -1.0370 -0.6929 -1.6193
H10 H -1.0759 -0.7326 -1.5759
N6 N -0.6433(8) -0.5319(7) -1.1894(7)
H11 H -0.6222 -0.5680 -1.1776
H12 H -0.6920 -0.5609 -1.2234
N7 N -1.0256(8) -0.3996(8) -0.7789(8)
N8 N -0.4481(11) -0.0828(11) -0.5313(9)
H13 H -0.3937 -0.0576 -0.5265
H14 H -0.4512 -0.1143 -0.5048
N9 N -0.7728(8) -0.7422(9) -1.5153(9)
H15 H -0.7492 -0.7516 -1.4775
H16 H -0.7343 -0.7312 -1.5382
N10 N -0.8566(10) -0.5582(9) -1.4544(9)
H17 H -0.9054 -0.5783 -1.4456
H18 H -0.8662 -0.5379 -1.4886
C1 C -0.8585(8) -0.2023(8) -0.9898(7)
C2 C -0.9509(9) -0.2388(11) -0.9964(9)
H19 H -0.9718 -0.1948 -0.9783
H20 H -0.9818 -0.2685 -1.0456
C3 C -0.2918(8) -0.2382(9) -1.0768(8)
C4 C -0.2295(12) -0.2814(12) -1.0787(10)
H21 H -0.2222 -0.2977 -1.0381
H22 H -0.1760 -0.2433 -1.0755
C5 C -0.6675(9) -0.0047(8) -0.7501(7)
C6 C -0.6949(11) 0.0147(10) -0.6847(9)
H23 H -0.6466 0.0503 -0.6448
H24 H -0.7335 0.0443 -0.6888
C7 C -1.3223(8) -1.1040(7) -1.7570(7)
C8 C -1.2966(10) -1.1462(12) -1.7085(10)
H25 H -1.3187 -1.2053 -1.7338
H26 H -1.3211 -1.1346 -1.6699
C9 C -1.2176(8) -0.7846(8) -1.7085(7)
C10 C -1.1572(10) -0.7157(11) -1.6430(9)
H27 H -1.1842 -0.7081 -1.6059
H28 H -1.1421 -0.6648 -1.6523
C11 C -0.6107(9) -0.3907(8) -1.1095(7)
C12 C -0.6587(12) -0.4812(9) -1.1289(10)
H29 H -0.7181 -0.4901 -1.1387
H30 H -0.6427 -0.4976 -1.0894
C13 C -0.8885(8) -0.2925(8) -0.7622(7)
C14 C -0.9514(9) -0.3289(9) -0.7263(8)
H31 H -0.9239 -0.3478 -0.6926
H32 H -0.9703 -0.2864 -0.7010
C15 C -0.5767(10) -0.1278(11) -0.6292(8)
C16 C -0.4916(13) -0.1342(14) -0.6050(11)
H33 H -0.4985 -0.1912 -0.6114
H34 H -0.4574 -0.1179 -0.6340
C17 C -0.9163(9) -0.7893(9) -1.5871(8)
C18 C -0.8449(10) -0.8151(11) -1.5617(10)
H35 H -0.8298 -0.8450 -1.6015
H36 H -0.8616 -0.8514 -1.5364
C19 C -0.7210(9) -0.5144(9) -1.3667(8)
C20 C -0.7964(11) -0.4924(9) -1.3906(9)
H37 H -0.7785 -0.4417 -1.3999
H38 H -0.8234 -0.4830 -1.3535
O1 O -0.8071(5) -0.2156(5) -0.9450(5)
O2 O -0.8384(6) -0.1597(6) -1.0251(5)
O3 O -0.3612(5) -0.2742(6) -1.1276(5)
O4 O -0.2761(6) -0.1760(6) -1.0270(5)
O5 O -0.6785(5) -0.0809(6) -0.7846(5)
O6 O -0.6327(6) 0.0534(6) -0.7672(5)
O7 O -1.2619(5) -1.0521(5) -1.7666(5)
O8 O -1.3969(6) -1.1204(6) -1.7842(5)
O9 O -1.1933(5) -0.8452(6) -1.7357(5)
O10 O -1.2854(6) -0.7794(6) -1.7333(5)
O11 O -0.5663(5) -0.3709(5) -1.1496(5)
O12 O -0.6150(6) -0.3401(6) -1.0569(5)
O13 O -0.8231(6) -0.2365(6) -0.7227(5)
O14 O -0.9096(6) -0.3230(6) -0.8287(5)
O15 O -0.5927(7) -0.0696(8) -0.5823(6)
O16 O -0.6237(7) -0.1722(7) -0.6852(5)
O17 O -0.9123(6) -0.7181(6) -1.5615(6)
O18 O -0.9805(7) -0.8478(7) -1.6327(6)
O19 O -0.7149(6) -0.5800(7) -1.4027(6)
O20 O -0.6669(7) -0.4637(6) -1.3112(6)
O21 O -0.6732(5) -0.1908(5) -1.0108(4)
O22 O -0.6773(5) -0.0578(5) -0.9168(4)
O23 O -0.7312(5) -0.0002(5) -1.0301(4)
O24 O -0.7198(5) -0.1304(5) -1.1219(4)
O25 O -0.6176(5) 0.1151(5) -0.8908(4)
O26 O -0.5331(5) -0.1784(5) -0.9280(4)
O27 O -0.6045(5) -0.2205(5) -1.1302(5)
O28 O -0.4749(5) 0.1340(5) -0.8047(5)
O29 O -1.3604(5) -0.9609(5) -1.8153(5)
O30 O -0.3547(5) -0.0926(5) -0.9121(4)
O31 O -0.5346(5) -0.0460(5) -0.8348(4)
O32 O -0.4625(5) -0.2074(5) -1.0476(4)
O33 O -0.7440(5) -0.2420(5) -0.8336(4)
O34 O -1.1137(5) -0.9506(5) -1.7528(4)
O35 O -0.4805(6) -0.3791(5) -1.2409(5)
O36 O -0.5662(5) -0.1947(6) -0.8005(5)
O37 O -0.6851(6) -0.3145(6) -0.9473(5)
O38 O -1.1181(5) -0.8841(6) -1.8620(5)
O39 O -1.1786(6) -1.0735(6) -1.8888(5)
O40 O -0.6066(5) -0.3044(5) -1.2734(5)
O41 O -0.4251(7) -0.2207(6) -1.2572(6)
O42 O -0.8506(8) -0.4059(8) -0.9650(8)
O43 O -0.5609(9) -0.5609(7) -1.3013(7)
O44 O -1.0341(6) -1.0176(7) -1.6626(6)
O45 O -0.3734(8) -0.4745(8) -1.2742(7)
O46 O -0.4373(8) -0.4580(7) -1.1363(7)
O62 O -0.5570(9) 0.0202(10) -0.9687(7)
O64 O -0.5639(9) -0.0721(10) -1.0417(7)
Cu4_2 Cu -0.44515(9) -0.07088(9) -0.87209(8)
O8_2 O -0.3969(6) -0.1204(6) -0.7842(5)
C7_2 C -0.3223(8) -0.1040(7) -0.7570(7)
C8_2 C -0.2966(10) -0.1462(12) -0.7085(10)
N4_2 N -0.2062(7) -0.1199(8) -0.6803(7)
Cu10_2 Cu -0.14944(10) -0.03347(11) -0.71208(9)
O7_2 O -0.2619(5) -0.0521(5) -0.7666(5)
Er2_2 Er -0.23554(3) 0.02966(3) -0.84366(3)
O9_2 O -0.1933(5) 0.1548(6) -0.7357(5)
Cu9_2 Cu -0.08480(10) 0.16045(10) -0.68116(9)
N5_2 N -0.0818(8) 0.2671(8) -0.6200(7)
H9_2 H -0.0370 0.3071 -0.6193
H10_2 H -0.0759 0.2674 -0.5759
C10_2 C -0.1572(10) 0.2843(11) -0.6430(9)
C9_2 C -0.2176(8) 0.2154(8) -0.7085(7)
O10_2 O -0.2854(6) 0.2206(6) -0.7333(5)
Cu5_2 Cu -0.37687(9) 0.13106(9) -0.84054(8)
O24A O -0.2802(5) 0.1304(5) -0.8781(4)
O23A O -0.2688(5) 0.0002(5) -0.9699(4)
Cu1A Cu -0.29719(9) 0.09568(9) -0.97992(8)
O2A O -0.1616(6) 0.1597(6) -0.9749(5)
C1A C -0.1415(8) 0.2023(8) -1.0102(7)
C2A C -0.0491(9) 0.2388(11) -1.0036(9)
N1A N -0.0349(7) 0.2955(9) -1.0425(7)
Cu7A Cu -0.14123(10) 0.27778(11) -1.10827(9)
O1A O -0.1929(5) 0.2156(5) -1.0550(5)
Er1A Er -0.34539(3) 0.16958(3) -1.11076(3)
O5A O -0.3215(5) 0.0809(6) -1.2154(5)
Cu8A Cu -0.25817(10) 0.15905(10) -1.25250(9)
N3A N -0.2643(8) 0.0600(7) -1.3279(6)
H5A H -0.2123 0.0626 -1.3301
H6A H -0.2932 0.0582 -1.3694
C6A C -0.3051(11) -0.0147(10) -1.3153(9)
C5A C -0.3325(9) 0.0047(8) -1.2499(7)
O6A O -0.3673(6) -0.0534(6) -1.2328(5)
Cu3A Cu -0.42495(9) -0.03608(9) -1.13906(8)
O22A O -0.3227(5) 0.0578(5) -1.0832(4)
O21A O -0.3268(5) 0.1908(5) -0.9892(4)
Cu6A Cu -0.43122(9) 0.20143(9) -0.97043(8)
O12A O -0.3850(6) 0.3401(6) -0.9431(5)
C11A C -0.3893(9) 0.3907(8) -0.8905(7)
C12A C -0.3413(12) 0.4812(9) -0.8711(10)
N6A N -0.3567(8) 0.5319(7) -0.8106(7)
Cu11A Cu -0.43530(11) 0.46555(10) -0.77428(10)
O11A O -0.4337(5) 0.3709(5) -0.8504(5)
Er3A Er -0.50998(3) 0.24658(3) -0.82890(3)
O3A O -0.6388(5) 0.2742(6) -0.8724(5)
Cu12A Cu -0.63062(12) 0.37750(11) -0.80209(11)
N2A N -0.7454(9) 0.3546(9) -0.8575(9)
H3A H -0.7809 0.3462 -0.8315
H4A H -0.7478 0.3982 -0.8692
C4A C -0.7705(12) 0.2814(12) -0.9213(10)
C3A C -0.7082(8) 0.2382(9) -0.9232(8)
O4A O -0.7239(6) 0.1760(6) -0.9730(5)
Cu2A Cu -0.63351(9) 0.10381(9) -0.98984(8)
Er2A Er -0.76446(3) -0.02966(3) -1.15634(3)
O7A O -0.7381(5) 0.0521(5) -1.2334(5)
Cu10A Cu -0.85056(10) 0.03347(11) -1.28792(9)
N4A N -0.7938(7) 0.1199(8) -1.3197(7)
H7A H -0.8078 0.1007 -1.3670
H8A H -0.8106 0.1633 -1.3056
C8A C -0.7034(10) 0.1462(12) -1.2915(10)
C7A C -0.6777(8) 0.1040(7) -1.2430(7)
O8A O -0.6031(6) 0.1204(6) -1.2158(5)
Cu4A Cu -0.55485(9) 0.07088(9) -1.12791(8)
O26A O -0.4669(5) 0.1784(5) -1.0720(4)
O31A O -0.4654(5) 0.0460(5) -1.1652(4)
O25A O -0.3824(5) -0.1151(5) -1.1092(4)
O29_2 O -0.3604(5) 0.0391(5) -0.8153(5)
N8A N -0.5519(11) 0.0828(11) -0.4687(9)
H13A H -0.6063 0.0576 -0.4735
H14A H -0.5488 0.1143 -0.4952
C16A C -0.5084(13) 0.1342(14) -0.3950(11)
C15A C -0.4233(10) 0.1278(11) -0.3708(8)
O15A O -0.4073(7) 0.0696(8) -0.4177(6)
O16A O -0.3763(7) 0.1722(7) -0.3148(5)
Cu8A_2 Cu -0.25817(10) 0.15905(10) -0.25250(9)
N3A_2 N -0.2643(8) 0.0600(7) -0.3279(6)
O5A_2 O -0.3215(5) 0.0809(6) -0.2154(5)
O13A O -0.1769(6) 0.2365(6) -0.2773(5)
C13A C -0.1115(8) 0.2925(8) -0.2378(7)
C14A C -0.0486(9) 0.3289(9) -0.2737(8)
N7A N 0.0256(8) 0.3996(8) -0.2211(8)
H31A H -0.0761 0.3478 -0.3074
H32A H -0.0297 0.2864 -0.2990
O14A O -0.0904(6) 0.3230(6) -0.1713(5)
Cu7A_2 Cu -0.14123(10) 0.27778(11) -0.10827(9)
N1A_2 N -0.0349(7) 0.2955(9) -0.0425(7)
O1A_2 O -0.1929(5) 0.2156(5) -0.0550(5)
O33A O -0.2560(5) 0.2420(5) -0.1664(4)
Er1A_2 Er -0.34539(3) 0.16958(3) -0.11076(3)
O21A_2 O -0.3268(5) 0.1908(5) 0.0108(4)
O22A_2 O -0.3227(5) 0.0578(5) -0.0832(4)
O26A_2 O -0.4669(5) 0.1784(5) -0.0720(4)
O31A_2 O -0.4654(5) 0.0460(5) -0.1652(4)
O36A O -0.4338(5) 0.1947(6) -0.1995(5)
O37A O -0.3149(6) 0.3145(6) -0.0527(5)
O42A O -0.1494(8) 0.4059(8) -0.0350(8)
H33A H -0.5015 0.1912 -0.3886
H34A H -0.5426 0.1179 -0.3660
O27A O -0.3955(5) 0.2205(5) -0.8698(5)
O32A O -0.5375(5) 0.2074(5) -0.9524(4)
O30A O -0.6453(5) 0.0926(5) -1.0879(4)
O9A O -0.8067(5) -0.1548(6) -1.2643(5)
Cu9A Cu -0.91520(10) -0.16045(10) -1.31884(9)
N5A N -0.9182(8) -0.2671(8) -1.3800(7)
H9A H -0.9630 -0.3071 -1.3807
H10A H -0.9241 -0.2674 -1.4241
C10A C -0.8428(10) -0.2843(11) -1.3570(9)
C9A C -0.7824(8) -0.2154(8) -1.2915(7)
O10A O -0.7146(6) -0.2206(6) -1.2667(5)
Cu5A Cu -0.62313(9) -0.13106(9) -1.15946(8)
O29A O -0.6396(5) -0.0391(5) -1.1847(5)
O28A O -0.5251(5) -0.1340(5) -1.1953(5)
O62A O -0.4430(9) -0.0202(10) -1.0313(7)
O64A O -0.4361(9) 0.0721(10) -0.9583(7)
O23A_2 O -1.2688(5) -0.9998(5) -1.9699(4)
O24A_2 O -1.2802(5) -0.8696(5) -1.8781(4)
O30_2 O -1.3547(5) -1.0926(5) -1.9121(4)
O34A O -0.8863(5) -0.0494(5) -1.2472(4)
O18A O -1.0195(7) -0.1522(7) -1.3673(6)
C17A C -1.0837(9) -0.2107(9) -1.4129(8)
C18A C -1.1551(10) -0.1849(11) -1.4383(10)
N9A N -1.2272(8) -0.2578(9) -1.4847(9)
Cu14A Cu -1.18897(12) -0.35257(12) -1.51463(11)
N10A N -1.1434(10) -0.4418(9) -1.5456(9)
H17A H -1.0946 -0.4217 -1.5544
H18A H -1.1338 -0.4621 -1.5114
C20A C -1.2036(11) -0.5076(9) -1.6094(9)
C19A C -1.2790(9) -0.4856(9) -1.6333(8)
O19A O -1.2851(6) -0.4200(7) -1.5973(6)
O17A O -1.0877(6) -0.2819(6) -1.4385(6)
O20A O -1.3331(7) -0.5363(6) -1.6888(6)
Cu11A_2 Cu -1.43530(11) -0.53445(10) -1.77428(10)
N6A_2 N -1.3567(8) -0.4681(7) -1.8106(7)
O11A_2 O -1.4337(5) -0.6291(5) -1.8504(5)
O35A O -1.5195(6) -0.6209(5) -1.7591(5)
Er3A_2 Er -1.50998(3) -0.75342(3) -1.82890(3)
O3A_2 O -1.6388(5) -0.7258(6) -1.8724(5)
O25_2 O -1.6176(5) -0.8849(5) -1.8908(4)
O27A_2 O -1.3955(5) -0.7795(5) -1.8698(5)
O28_2 O -1.4749(5) -0.8660(5) -1.8047(5)
O32A_2 O -1.5375(5) -0.7926(5) -1.9524(4)
O40A O -1.3934(5) -0.6956(5) -1.7266(5)
O41A O -1.5749(7) -0.7793(6) -1.7428(6)
Cu12A_2 Cu -1.63062(12) -0.62250(11) -1.80209(11)
N2A_2 N -1.7454(9) -0.6454(9) -1.8575(9)
O45A O -1.6266(8) -0.5255(8) -1.7258(7)
O46A O -1.5627(8) -0.5420(7) -1.8637(7)
O43A O -1.4391(9) -0.4391(7) -1.6987(7)
H37A H -1.2215 -0.5583 -1.6001
H38A H -1.1766 -0.5170 -1.6465
H15A H -1.2508 -0.2484 -1.5225
H16A H -1.2657 -0.2688 -1.4618
H35A H -1.1702 -0.1550 -1.3985
H36A H -1.1384 -0.1486 -1.4636
O44A O -0.9659(6) 0.0176(7) -1.3374(6)
O38A O -0.8819(5) -0.1159(6) -1.1380(5)
O39A O -0.8214(6) 0.0735(6) -1.1112(5)
H27A H -0.8158 -0.2919 -1.3941
H28A H -0.8579 -0.3352 -1.3477
O35A_2 O -0.5195(6) 0.3791(5) -0.7591(5)
O40A_2 O -0.3934(5) 0.3044(5) -0.7266(5)
O41A_2 O -0.5749(7) 0.2207(6) -0.7428(6)
O34_2 O -0.1137(5) 0.0494(5) -0.7528(4)
O38_2 O -0.1181(5) 0.1159(6) -0.8620(5)
O39_2 O -0.1786(6) -0.0735(6) -0.8888(5)
O33A_2 O -0.2560(5) 0.2420(5) -1.1664(4)
O36A_2 O -0.4338(5) 0.1947(6) -1.1995(5)
O37A_2 O -0.3149(6) 0.3145(6) -1.0527(5)
H25A H -0.6813 0.2053 -1.2662
H26A H -0.6789 0.1346 -1.3301
H21A H -0.7778 0.2977 -0.9619
H22A H -0.8240 0.2433 -0.9245
O45A_2 O -0.6266(8) 0.4745(8) -0.7258(7)
O46A_2 O -0.5627(8) 0.4580(7) -0.8637(7)
O20A_2 O -0.3331(7) 0.4637(6) -0.6888(6)
O43A_2 O -0.4391(9) 0.5609(7) -0.6987(7)
H11A H -0.3778 0.5680 -0.8224
H12A H -0.3080 0.5609 -0.7766
H29A H -0.2819 0.4901 -0.8613
H30A H -0.3573 0.4976 -0.9106
H23A H -0.3534 -0.0503 -1.3552
H24A H -0.2665 -0.0443 -1.3112
O13A_2 O -0.1769(6) 0.2365(6) -1.2773(5)
O16A_2 O -0.3763(7) 0.1722(7) -1.3148(5)
O14A_2 O -0.0904(6) 0.3230(6) -1.1713(5)
O42A_2 O -0.1494(8) 0.4059(8) -1.0350(8)
H1A H -0.0135 0.3480 -1.0122
H2A H 0.0020 0.2864 -1.0664
H19A H -0.0282 0.1948 -1.0217
H20A H -0.0182 0.2685 -0.9544
H27_2 H -0.1842 0.2919 -0.6059
H28_2 H -0.1421 0.3352 -0.6523
O18_2 O 0.0195(7) 0.1522(7) -0.6327(6)
O44_2 O -0.0341(6) -0.0176(7) -0.6626(6)
H7_2 H -0.1922 -0.1007 -0.6330
H8_2 H -0.1894 -0.1633 -0.6944
H25_2 H -0.3187 -0.2053 -0.7338
H26_2 H -0.3211 -0.1346 -0.6699
O26_2 O -1.5331(5) -1.1784(5) -1.9280(4)
O31_2 O -1.5346(5) -1.0460(5) -1.8348(4)
O64A_2 O -1.4361(9) -0.9279(10) -1.9583(7)
Cl12? Cl -1.0000(5) 0.0000(7) -1.0000(5)
O63? O -0.4686(9) -0.0524(10) -0.9746(7)
O65? O -0.5122(9) -0.0077(10) -1.0667(7)
O66? O -0.9170(9) 0.0296(10) -0.9365(7)
O67? O -1.0153(9) 0.0365(10) -1.0475(7)
O68? O -1.0282(9) -0.0850(10) -1.0593(7)
O69? O -1.0827(9) -0.0113(10) -0.9880(7)
loop_
_geom_bond_atom_site_label_1
_geom_bond_atom_site_label_2
_geom_bond_site_symmetry_1
_geom_bond_site_symmetry_2
Er1 O1 1_555 1_555
Er2 O7 1_555 1_555
Er3 O3 1_555 1_555
Cu1 O2 1_555 1_555
Cu2 O4 1_555 1_555
Cu3 O6 1_555 1_555
Cu4 O8 1_555 1_555
Cu5 O10 1_555 1_555
Cu6 O12 1_555 1_555
Cu7 N1 1_555 1_555
Cu8 N3 1_555 1_555
Cu9 N5 1_555 1_555
Cu10 N4 1_555 1_555
Cu11 N6 1_555 1_555
Cu12 N2 1_555 1_555
Cu13 N8 1_555 1_555
Cu14 N9 1_555 1_555
Cl1 O62 1_555 1_555
Cl2 O70 1_555 1_555
Cl3 O74 1_555 1_555
Cl4 O78 1_555 1_555
Cl5 O82 1_555 1_555
Cl6 O86 1_555 1_555
Cl7 O90 1_555 1_555
Cl8 O94 1_555 1_555
Cl9 O98 1_555 1_555
Cl10 O102 1_555 1_555
Cl11 O106 1_555 1_555
Cl13 O110 1_555 1_555
N1 H1 1_555 1_555
H2 N1 1_555 1_555
N2 H3 1_555 1_555
H4 N2 1_555 1_555
N3 H5 1_555 1_555
H6 N3 1_555 1_555
N4 H7 1_555 1_555
H8 N4 1_555 1_555
N5 H9 1_555 1_555
H10 N5 1_555 1_555
N6 H11 1_555 1_555
H12 N6 1_555 1_555
N7 C14 1_555 1_555
N8 H13 1_555 1_555
H14 N8 1_555 1_555
N9 H15 1_555 1_555
H16 N9 1_555 1_555
N10 Cu14 1_555 1_555
H17 N10 1_555 1_555
H18 N10 1_555 1_555
C1 C2 1_555 1_555
C2 N1 1_555 1_555
H19 C2 1_555 1_555
H20 C2 1_555 1_555
C3 C4 1_555 1_555
C4 N2 1_555 1_555
H21 C4 1_555 1_555
H22 C4 1_555 1_555
C5 C6 1_555 1_555
C6 N3 1_555 1_555
H23 C6 1_555 1_555
H24 C6 1_555 1_555
C7 C8 1_555 1_555
C8 N4 1_555 1_555
H25 C8 1_555 1_555
H26 C8 1_555 1_555
C9 C10 1_555 1_555
C10 N5 1_555 1_555
H27 C10 1_555 1_555
H28 C10 1_555 1_555
C11 C12 1_555 1_555
C12 N6 1_555 1_555
H29 C12 1_555 1_555
H30 C12 1_555 1_555
C13 C14 1_555 1_555
C14 H31 1_555 1_555
H32 C14 1_555 1_555
C15 C16 1_555 1_555
C16 N8 1_555 1_555
H33 C16 1_555 1_555
H34 C16 1_555 1_555
C17 C18 1_555 1_555
C18 N9 1_555 1_555
H35 C18 1_555 1_555
H36 C18 1_555 1_555
C19 C20 1_555 1_555
C20 N10 1_555 1_555
H37 C20 1_555 1_555
H38 C20 1_555 1_555
O1 Cu7 1_555 1_555
O2 C1 1_555 1_555
O3 Cu12 1_555 1_555
O4 C3 1_555 1_555
O5 Er1 1_555 1_555
O6 C5 1_555 1_555
O7 Cu10 1_555 1_555
O8 C7 1_555 1_555
O9 Er2 1_555 1_555
O10 C9 1_555 1_555
O11 Er3 1_555 1_555
O12 C11 1_555 1_555
O13 Cu8 1_555 1_555
O14 Cu7 1_555 1_555
O15 Cu13 1_555 1_555
O16 Cu8 1_555 1_555
O17 Cu14 1_555 1_555
O18 Cu9 1_555 1_555
O19 Cu14 1_555 1_555
O20 Cu11 1_555 1_555
O21 Er1 1_555 1_555
O22 Er1 1_555 1_555
O23 Cu1 1_555 1_555
O24 Cu1 1_555 1_555
O25 Cu3 1_555 1_555
O26 Er1 1_555 1_555
O27 Er3 1_555 1_555
O28 Cu3 1_555 1_555
O29 Er2 1_555 1_555
O30 Cu2 1_555 1_555
O31 Er1 1_555 1_555
O32 Er3 1_555 1_555
O33 Er1 1_555 1_555
O34 Er2 1_555 1_555
O35 Er3 1_555 1_555
O36 Er1 1_555 1_555
O37 Er1 1_555 1_555
O38 Er2 1_555 1_555
O39 Er2 1_555 1_555
O40 Er3 1_555 1_555
O41 Er3 1_555 1_555
O42 Cu7 1_555 1_555
O43 Cu11 1_555 1_555
O44 Cu10 1_555 1_555
O45 Cu12 1_555 1_555
O46 Cu12 1_555 1_555
O62 Cu3 1_555 1_555
O64 Cu6 1_555 1_555
O71 Cl2 1_555 1_555
O72 Cl2 1_555 1_555
O73 Cl2 1_555 1_555
O75 Cl3 1_555 1_555
O76 Cl3 1_555 1_555
O77 Cl3 1_555 1_555
O79 Cl4 1_555 1_555
O80 Cl4 1_555 1_555
O81 Cl4 1_555 1_555
O83 Cl5 1_555 1_555
O84 Cl5 1_555 1_555
O85 Cl5 1_555 1_555
O87 Cl6 1_555 1_555
O88 Cl6 1_555 1_555
O89 Cl6 1_555 1_555
O91 Cl7 1_555 1_555
O92 Cl7 1_555 1_555
O93 Cl7 1_555 1_555
O95 Cl8 1_555 1_555
O96 Cl8 1_555 1_555
O97 Cl8 1_555 1_555
O99 Cl9 1_555 1_555
O100 Cl9 1_555 1_555
O101 Cl9 1_555 1_555
O103 Cl10 1_555 1_555
O104 Cl10 1_555 1_555
O105 Cl10 1_555 1_555
O107 Cl11 1_555 1_555
O108 Cl11 1_555 1_555
O109 Cl11 1_555 1_555
O111 Cl13 1_555 1_555
O112 Cl13 1_555 1_555
O113 Cl13 1_555 1_555
Cu4_2 O26 1_555 1_555
O8_2 Cu4_2 1_555 1_555
C7_2 O8_2 1_555 1_555
C8_2 C7_2 1_555 1_555
N4_2 C8_2 1_555 1_555
Cu10_2 N4_2 1_555 1_555
O7_2 C7_2 1_555 1_555
Er2_2 O30 1_555 1_555
O9_2 Er2_2 1_555 1_555
Cu9_2 O9_2 1_555 1_555
N5_2 Cu9_2 1_555 1_555
H9_2 N5_2 1_555 1_555
H10_2 N5_2 1_555 1_555
C10_2 N5_2 1_555 1_555
C9_2 O9_2 1_555 1_555
O10_2 C9_2 1_555 1_555
Cu5_2 O28 1_555 1_555
O24A Er2_2 1_555 1_555
O23A Cu2 1_555 1_555
Cu1A O24A 1_555 1_555
O2A Cu1A 1_555 1_555
C1A O2A 1_555 1_555
C2A C1A 1_555 1_555
N1A C2A 1_555 1_555
Cu7A N1A 1_555 1_555
O1A C1A 1_555 1_555
Er1A O1A 1_555 1_555
O5A Er1A 1_555 1_555
Cu8A O5A 1_555 1_555
N3A Cu8A 1_555 1_555
H5A N3A 1_555 1_555
H6A N3A 1_555 1_555
C6A N3A 1_555 1_555
C5A O5A 1_555 1_555
O6A C5A 1_555 1_555
Cu3A O6A 1_555 1_555
O22A Cu1A 1_555 1_555
O21A Cu1A 1_555 1_555
Cu6A O21A 1_555 1_555
O12A Cu6A 1_555 1_555
C11A O12A 1_555 1_555
C12A C11A 1_555 1_555
N6A C12A 1_555 1_555
Cu11A N6A 1_555 1_555
O11A C11A 1_555 1_555
Er3A O25 1_555 1_555
O3A Er3A 1_555 1_555
Cu12A O3A 1_555 1_555
N2A Cu12A 1_555 1_555
H3A N2A 1_555 1_555
H4A N2A 1_555 1_555
C4A N2A 1_555 1_555
C3A O3A 1_555 1_555
O4A C3A 1_555 1_555
Cu2A O23 1_555 1_555
Er2A O23 1_555 1_555
O7A Er2A 1_555 1_555
Cu10A O7A 1_555 1_555
N4A Cu10A 1_555 1_555
H7A N4A 1_555 1_555
H8A N4A 1_555 1_555
C8A N4A 1_555 1_555
C7A O7A 1_555 1_555
O8A C7A 1_555 1_555
Cu4A O8A 1_555 1_555
O26A Er1A 1_555 1_555
O31A Er1A 1_555 1_555
O25A Er3 1_555 1_555
O29_2 Cu4_2 1_555 1_555
N8A Cu13 1_555 1_555
H13A N8A 1_555 1_555
H14A N8A 1_555 1_555
C16A N8A 1_555 1_555
C15A C16A 1_555 1_555
O15A Cu13 1_555 1_555
O16A C15A 1_555 1_555
Cu8A_2 O16A 1_555 1_555
N3A_2 Cu8A_2 1_555 1_555
O5A_2 Cu8A_2 1_555 1_555
O13A Cu8A_2 1_555 1_555
C13A O13A 1_555 1_555
C14A C13A 1_555 1_555
N7A C14A 1_555 1_555
H31A C14A 1_555 1_555
H32A C14A 1_555 1_555
O14A C13A 1_555 1_555
Cu7A_2 O14A 1_555 1_555
N1A_2 Cu7A_2 1_555 1_555
O1A_2 Cu7A_2 1_555 1_555
O33A Cu8A_2 1_555 1_555
Er1A_2 O5A_2 1_555 1_555
O21A_2 Er1A_2 1_555 1_555
O22A_2 Er1A_2 1_555 1_555
O26A_2 Er1A_2 1_555 1_555
O31A_2 Er1A_2 1_555 1_555
O36A Er1A_2 1_555 1_555
O37A Er1A_2 1_555 1_555
O42A Cu7A_2 1_555 1_555
H33A C16A 1_555 1_555
H34A C16A 1_555 1_555
O27A Cu5_2 1_555 1_555
O32A Cu6A 1_555 1_555
O30A Cu2A 1_555 1_555
O9A Er2A 1_555 1_555
Cu9A O9A 1_555 1_555
N5A Cu9A 1_555 1_555
H9A N5A 1_555 1_555
H10A N5A 1_555 1_555
C10A N5A 1_555 1_555
C9A O9A 1_555 1_555
O10A C9A 1_555 1_555
Cu5A O24 1_555 1_555
O29A Er2A 1_555 1_555
O28A Er3 1_555 1_555
O62A Cu2 1_555 1_555
O64A Cl1 1_555 1_555
O23A_2 Er2 1_555 1_555
O24A_2 Er2 1_555 1_555
O30_2 Er2 1_555 1_555
O34A Er2A 1_555 1_555
O18A Cu9A 1_555 1_555
C17A O18A 1_555 1_555
C18A C17A 1_555 1_555
N9A C18A 1_555 1_555
Cu14A N9A 1_555 1_555
N10A Cu14A 1_555 1_555
H17A N10A 1_555 1_555
H18A N10A 1_555 1_555
C20A N10A 1_555 1_555
C19A C20A 1_555 1_555
O19A Cu14A 1_555 1_555
O17A C17A 1_555 1_555
O20A C19A 1_555 1_555
Cu11A_2 O20A 1_555 1_555
N6A_2 Cu11A_2 1_555 1_555
O11A_2 Cu11A_2 1_555 1_555
O35A Cu11A_2 1_555 1_555
Er3A_2 O11A_2 1_555 1_555
O3A_2 Er3A_2 1_555 1_555
O25_2 Er3A_2 1_555 1_555
O27A_2 Cu5 1_555 1_555
O28_2 Cu5 1_555 1_555
O32A_2 Er3A_2 1_555 1_555
O40A Er3A_2 1_555 1_555
O41A Er3A_2 1_555 1_555
Cu12A_2 O35A 1_555 1_555
N2A_2 Cu12A_2 1_555 1_555
O45A Cu12A_2 1_555 1_555
O46A Cu12A_2 1_555 1_555
O43A Cu11A_2 1_555 1_555
H37A C20A 1_555 1_555
H38A C20A 1_555 1_555
H15A N9A 1_555 1_555
H16A N9A 1_555 1_555
H35A C18A 1_555 1_555
H36A C18A 1_555 1_555
O44A Cu10A 1_555 1_555
O38A Er2A 1_555 1_555
O39A Er2A 1_555 1_555
H27A C10A 1_555 1_555
H28A C10A 1_555 1_555
O35A_2 Cu11A 1_555 1_555
O40A_2 Er3A 1_555 1_555
O41A_2 Er3A 1_555 1_555
O34_2 Cu10_2 1_555 1_555
O38_2 Er2_2 1_555 1_555
O39_2 Er2_2 1_555 1_555
O33A_2 Cu7A 1_555 1_555
O36A_2 Er1A 1_555 1_555
O37A_2 Er1A 1_555 1_555
H25A C8A 1_555 1_555
H26A C8A 1_555 1_555
H21A C4A 1_555 1_555
H22A C4A 1_555 1_555
O45A_2 Cu12A 1_555 1_555
O46A_2 Cu12A 1_555 1_555
O20A_2 Cu11A 1_555 1_555
O43A_2 Cu11A 1_555 1_555
H11A N6A 1_555 1_555
H12A N6A 1_555 1_555
H29A C12A 1_555 1_555
H30A C12A 1_555 1_555
H23A C6A 1_555 1_555
H24A C6A 1_555 1_555
O13A_2 Cu8A 1_555 1_555
O16A_2 Cu8A 1_555 1_555
O14A_2 Cu7A 1_555 1_555
O42A_2 Cu7A 1_555 1_555
H1A N1A 1_555 1_555
H2A N1A 1_555 1_555
H19A C2A 1_555 1_555
H20A C2A 1_555 1_555
H27_2 C10_2 1_555 1_555
H28_2 C10_2 1_555 1_555
O18_2 Cu9_2 1_555 1_555
O44_2 Cu10_2 1_555 1_555
H7_2 N4_2 1_555 1_555
H8_2 N4_2 1_555 1_555
H25_2 C8_2 1_555 1_555
H26_2 C8_2 1_555 1_555
O26_2 Cu4 1_555 1_555
O31_2 Cu4 1_555 1_555
O64A_2 Cu5 1_555 1_555
Cu1 O21 1_555 1_555
Cu1 O22 1_555 1_555
Cu2 O25A 1_555 1_555
Cu2 O32 1_555 1_555
Cu3 O22 1_555 1_555
Cu3 O31 1_555 1_555
Cu4 O29 1_555 1_555
Cu4 O30_2 1_555 1_555
Cu5 O24A_2 1_555 1_555
Cu5 O29 1_555 1_555
Cu6 O32 1_555 1_555
Cu6 O21 1_555 1_555
Cu6 O26 1_555 1_555
Cu6 O27 1_555 1_555
Cu7 O33 1_555 1_555
Cu8 O5 1_555 1_555
Cu8 O33 1_555 1_555
Cu9 O9 1_555 1_555
Cu9 O34 1_555 1_555
Cu10 O34 1_555 1_555
Cu11 O11 1_555 1_555
Cu11 O35 1_555 1_555
Cu12 O35 1_555 1_555
Cl1 O62A 1_555 1_555
Cl1 O64 1_555 1_555
C1 O1 1_555 1_555
C3 O3 1_555 1_555
C5 O5 1_555 1_555
C7 O7 1_555 1_555
C9 O9 1_555 1_555
C11 O11 1_555 1_555
C13 O14 1_555 1_555
C13 O13 1_555 1_555
C15 O16 1_555 1_555
C15 O15 1_555 1_555
C17 O17 1_555 1_555
C17 O18 1_555 1_555
C19 O20 1_555 1_555
C19 O19 1_555 1_555
O24 Er2A 1_555 1_555
O25 Cu2A 1_555 1_555
O27 Cu5A 1_555 1_555
O28 Er3A 1_555 1_555
O30 Cu4_2 1_555 1_555
O31 Cu4_2 1_555 1_555
O62 O64A 1_555 1_555
O62 Cu2A 1_555 1_555
O62 O64 1_555 1_555
O64 Cu5A 1_555 1_555
O64 O62A 1_555 1_555
Cu10_2 O7_2 1_555 1_555
O7_2 Er2_2 1_555 1_555
Er2_2 O23A 1_555 1_555
Er2_2 O29_2 1_555 1_555
Er2_2 O34_2 1_555 1_555
Cu9_2 O34_2 1_555 1_555
C10_2 C9_2 1_555 1_555
O10_2 Cu5_2 1_555 1_555
Cu5_2 O24A 1_555 1_555
Cu5_2 O64A 1_555 1_555
Cu5_2 O29_2 1_555 1_555
O23A Cu1A 1_555 1_555
Cu7A O1A 1_555 1_555
Er1A O21A 1_555 1_555
Er1A O33A_2 1_555 1_555
Er1A O22A 1_555 1_555
Cu8A O33A_2 1_555 1_555
C6A C5A 1_555 1_555
Cu3A O22A 1_555 1_555
Cu3A O25A 1_555 1_555
Cu3A O62A 1_555 1_555
Cu3A O31A 1_555 1_555
Cu3A O28A 1_555 1_555
Cu6A O64A 1_555 1_555
Cu6A O26A 1_555 1_555
Cu6A O27A 1_555 1_555
Cu11A O11A 1_555 1_555
O11A Er3A 1_555 1_555
Er3A O27A 1_555 1_555
Er3A O32A 1_555 1_555
Er3A O35A_2 1_555 1_555
Cu12A O35A_2 1_555 1_555
C4A C3A 1_555 1_555
O4A Cu2A 1_555 1_555
Cu2A O32A 1_555 1_555
Er2A O30A 1_555 1_555
Cu10A O34A 1_555 1_555
C8A C7A 1_555 1_555
Cu4A O26A 1_555 1_555
Cu4A O29A 1_555 1_555
Cu4A O30A 1_555 1_555
Cu4A O31A 1_555 1_555
C15A O15A 1_555 1_555
Cu7A_2 O33A 1_555 1_555
O1A_2 Er1A_2 1_555 1_555
O33A Er1A_2 1_555 1_555
Cu9A O34A 1_555 1_555
C10A C9A 1_555 1_555
O10A Cu5A 1_555 1_555
Cu5A O29A 1_555 1_555
Cu5A O28A 1_555 1_555
O62A O64A 1_555 1_555
Cu14A O17A 1_555 1_555
C19A O19A 1_555 1_555
O35A Er3A_2 1_555 1_555
Er3A_2 O27A_2 1_555 1_555
Er3A_2 O28_2 1_555 1_555
O3A_2 Cu12A_2 1_555 1_555

#END
