
#######################################################################
#
#                 Cambridge Crystallographic Data Centre
#                                CCDC 
#
#######################################################################
#
# If this CIF has been generated from an entry in the Cambridge 
# Structural Database, then it will include bibliographic, chemical, 
# crystal, experimental, refinement or atomic coordinate data resulting 
# from the CCDC's data processing and validation procedures.
#
#######################################################################

data_EZECES
_symmetry_cell_setting           monoclinic
_symmetry_space_group_name_H-M   'P 21'
_symmetry_Int_Tables_number      4
_space_group_name_Hall           'P 2yb'
loop_
_symmetry_equiv_pos_site_id
_symmetry_equiv_pos_as_xyz
1 x,y,z
2 -x,1/2+y,-z
_cell_length_a                   7.1493(14)
_cell_length_b                   16.137(3)
_cell_length_c                   17.010(3)
_cell_angle_alpha                90
_cell_angle_beta                 92.95(3)
_cell_angle_gamma                90
_cell_volume                     1959.81
loop_
_atom_site_label
_atom_site_type_symbol
_atom_site_fract_x
_atom_site_fract_y
_atom_site_fract_z
Ag1 Ag 0.93558(4) 0.267458(16) 0.277491(16)
S1 S 1.06916(17) 0.41944(7) 0.28743(6)
S2 S 0.74536(17) 0.34191(7) 0.15887(6)
P1 P 0.77758(15) 0.23400(6) 0.39844(6)
P2 P 0.10029(15) 0.14039(6) 0.24491(6)
P3 P 0.89644(17) 0.44060(6) 0.19358(6)
C1 C 0.6657(6) 0.3153(2) 0.4529(2)
C2 C 0.5576(7) 0.3740(3) 0.4110(3)
H1 H 0.5513 0.3729 0.3550
C3 C 0.4599(8) 0.4336(3) 0.4498(3)
H2 H 0.3831 0.4721 0.4207
C4 C 0.4735(8) 0.4375(3) 0.5301(3)
H3 H 0.4045 0.4782 0.5567
C5 C 0.5867(8) 0.3827(3) 0.5729(3)
H4 H 0.6006 0.3875 0.6286
C6 C 0.6790(7) 0.3214(3) 0.5347(2)
H5 H 0.7531 0.2826 0.5645
C7 C 0.9449(6) 0.1878(3) 0.4702(2)
C8 C 0.9285(7) 0.1090(3) 0.4999(3)
H6 H 0.8208 0.0769 0.4855
C9 C 1.0680(8) 0.0754(4) 0.5510(3)
H7 H 1.0567 0.0203 0.5697
C10 C 1.2194(8) 0.1217(4) 0.5739(3)
H8 H 1.3128 0.0994 0.6096
C11 C 1.2378(7) 0.2005(4) 0.5454(3)
H9 H 1.3440 0.2327 0.5618
C12 C 1.1040(6) 0.2336(3) 0.4934(3)
H10 H 1.1201 0.2878 0.4731
C13 C 0.2016(6) 0.1364(2) 0.1496(2)
C14 C 0.2914(6) 0.2072(3) 0.1246(2)
H11 H 0.2956 0.2549 0.1574
C15 C 0.3751(7) 0.2099(3) 0.0527(3)
H12 H 0.4388 0.2582 0.0369
C16 C 0.3638(6) 0.1407(3) 0.0048(3)
H13 H 0.4201 0.1418 -0.0445
C17 C 0.1931(6) 0.0673(3) 0.1003(2)
H14 H 0.1332 0.0180 0.1163
C18 C 0.2730(7) 0.0709(3) 0.0274(3)
H15 H 0.2643 0.0244 -0.0069
C19 C -0.0589(5) 0.0526(2) 0.2446(2)
C20 C -0.2186(6) 0.0556(3) 0.1934(2)
H16 H -0.2370 0.1017 0.1591
C21 C -0.3494(7) -0.0070(3) 0.1918(3)
H17 H -0.4560 -0.0041 0.1562
C22 C -0.3262(7) -0.0743(3) 0.2420(3)
H18 H -0.4162 -0.1176 0.2408
C23 C -0.1717(7) -0.0778(3) 0.2935(3)
H19 H -0.1560 -0.1236 0.3284
C24 C -0.0380(6) -0.0148(3) 0.2950(3)
H20 H 0.0681 -0.0181 0.3309
C25 C 1.1751(7) 0.4315(3) 0.0975(3)
H21 H 1.1344 0.3794 0.0711
H22 H 1.2597 0.4174 0.1435
C26 C 1.2751(8) 0.4856(4) 0.0414(3)
H23 H 1.3846 0.4561 0.0231
H24 H 1.3159 0.5367 0.0683
H25 H 1.1902 0.4993 -0.0038
C27 C 0.7469(6) 0.5282(3) 0.2090(2)
C28 C 0.5653(7) 0.5178(3) 0.2302(2)
H26 H 0.5160 0.4633 0.2330
C29 C 0.4509(7) 0.5847(3) 0.2476(2)
H27 H 0.3251 0.5760 0.2610
C30 C 0.5245(6) 0.6645(3) 0.2449(2)
C31 C 0.7067(7) 0.6760(3) 0.2225(3)
H28 H 0.7564 0.7304 0.2196
C32 C 0.8154(7) 0.6092(3) 0.2046(3)
H29 H 0.9394 0.6181 0.1889
C33 C 0.5942(6) 0.1550(3) 0.3855(2)
H30 H 0.6516 0.1025 0.3687
H31 H 0.5388 0.1449 0.4368
C34 C 0.4398(6) 0.1793(2) 0.3256(2)
H32 H 0.4948 0.1912 0.2746
H33 H 0.3780 0.2304 0.3433
C35 C 0.2939(5) 0.1103(2) 0.3145(2)
H34 H 0.2431 0.0968 0.3661
H35 H 0.3551 0.0599 0.2948
C36 C 0.2363(7) 0.7284(3) 0.2725(3)
H36 H 0.1866 0.7826 0.2867
H37 H 0.2107 0.6881 0.3137
H38 H 0.1761 0.7102 0.2224
O1 O 1.0128(4) 0.47708(19) 0.12311(17)
O2 O 0.4314(5) 0.73445(19) 0.26493(19)
Ag1_2 Ag -0.06442(4) 0.267458(16) 0.277491(16)
P2_2 P 1.10029(15) 0.14039(6) 0.24491(6)
Cl1 Cl -0.1357(2) 0.19776(9) -0.03697(11)
Cl2 Cl -0.3657(2) 0.33509(9) -0.08913(8)
Cl3 Cl 0.0353(2) 0.34327(9) -0.09900(8)
C37 C -0.1503(8) 0.3042(3) -0.0446(3)
H39 H -0.1390 0.3283 0.0096
loop_
_geom_bond_atom_site_label_1
_geom_bond_atom_site_label_2
_geom_bond_site_symmetry_1
_geom_bond_site_symmetry_2
Ag1 S1 1_555 1_555
Cl1 C37 1_555 1_555
Cl2 C37 1_555 1_555
Cl3 C37 1_555 1_555
S1 P3 1_555 1_555
S2 Ag1 1_555 1_555
P1 Ag1 1_555 1_555
P2 C13 1_555 1_555
P3 S2 1_555 1_555
C1 P1 1_555 1_555
C2 C1 1_555 1_555
H1 C2 1_555 1_555
C3 C2 1_555 1_555
H2 C3 1_555 1_555
C4 C3 1_555 1_555
H3 C4 1_555 1_555
C5 C4 1_555 1_555
H4 C5 1_555 1_555
C6 C1 1_555 1_555
H5 C6 1_555 1_555
C7 P1 1_555 1_555
C8 C7 1_555 1_555
H6 C8 1_555 1_555
C9 C8 1_555 1_555
H7 C9 1_555 1_555
C10 C9 1_555 1_555
H8 C10 1_555 1_555
C11 C10 1_555 1_555
H9 C11 1_555 1_555
C12 C7 1_555 1_555
H10 C12 1_555 1_555
C13 C14 1_555 1_555
C14 H11 1_555 1_555
C15 C14 1_555 1_555
H12 C15 1_555 1_555
C16 C15 1_555 1_555
H13 C16 1_555 1_555
C17 C13 1_555 1_555
H14 C17 1_555 1_555
C18 C16 1_555 1_555
H15 C18 1_555 1_555
C19 P2 1_555 1_555
C20 C19 1_555 1_555
H16 C20 1_555 1_555
C21 C20 1_555 1_555
H17 C21 1_555 1_555
C22 C21 1_555 1_555
H18 C22 1_555 1_555
C23 C22 1_555 1_555
H19 C23 1_555 1_555
C24 C19 1_555 1_555
H20 C24 1_555 1_555
C25 H21 1_555 1_555
H22 C25 1_555 1_555
C26 C25 1_555 1_555
H23 C26 1_555 1_555
H24 C26 1_555 1_555
H25 C26 1_555 1_555
C27 P3 1_555 1_555
C28 C27 1_555 1_555
H26 C28 1_555 1_555
C29 C28 1_555 1_555
H27 C29 1_555 1_555
C30 C29 1_555 1_555
C31 C30 1_555 1_555
H28 C31 1_555 1_555
C32 C27 1_555 1_555
H29 C32 1_555 1_555
C33 P1 1_555 1_555
H30 C33 1_555 1_555
H31 C33 1_555 1_555
C34 C33 1_555 1_555
H32 C34 1_555 1_555
H33 C34 1_555 1_555
C35 P2 1_555 1_555
H34 C35 1_555 1_555
H35 C35 1_555 1_555
C36 H36 1_555 1_555
H37 C36 1_555 1_555
H38 C36 1_555 1_555
C37 H39 1_555 1_555
O1 P3 1_555 1_555
O2 C30 1_555 1_555
Ag1_2 P2 1_555 1_555
P2_2 Ag1 1_555 1_555
C5 C6 1_555 1_555
C11 C12 1_555 1_555
C17 C18 1_555 1_555
C23 C24 1_555 1_555
C25 O1 1_555 1_555
C31 C32 1_555 1_555
C34 C35 1_555 1_555
C36 O2 1_555 1_555

#END
