
#######################################################################
#
#                 Cambridge Crystallographic Data Centre
#                                CCDC 
#
#######################################################################
#
# If this CIF has been generated from an entry in the Cambridge 
# Structural Database, then it will include bibliographic, chemical, 
# crystal, experimental, refinement or atomic coordinate data resulting 
# from the CCDC's data processing and validation procedures.
#
#######################################################################

data_EZECAO
_symmetry_cell_setting           monoclinic
_symmetry_space_group_name_H-M   'P 21/n'
_symmetry_Int_Tables_number      14
_space_group_name_Hall           '-P 2yn'
loop_
_symmetry_equiv_pos_site_id
_symmetry_equiv_pos_as_xyz
1 x,y,z
2 1/2-x,1/2+y,1/2-z
3 -x,-y,-z
4 1/2+x,1/2-y,1/2+z
_cell_length_a                   10.640(2)
_cell_length_b                   9.2720(19)
_cell_length_c                   19.194(4)
_cell_angle_alpha                90
_cell_angle_beta                 99.55(3)
_cell_angle_gamma                90
_cell_volume                     1867.32
loop_
_atom_site_label
_atom_site_type_symbol
_atom_site_fract_x
_atom_site_fract_y
_atom_site_fract_z
Ag1 Ag 0.455371(19) 0.624463(19) 0.542728(9)
N1 N 0.50747(19) 0.7807(2) 0.47167(10)
N2 N 0.89809(19) 1.0048(2) 0.12405(10)
C1 C 0.4456(2) 0.7965(2) 0.40516(12)
H1 H 0.3739 0.7369 0.3893
C2 C 0.4822(2) 0.8963(2) 0.35890(12)
H2 H 0.4354 0.9046 0.3124
C3 C 0.5874(2) 0.9846(2) 0.38001(11)
C4 C 0.6500(2) 0.9683(2) 0.44929(12)
H3 H 0.7215 1.0270 0.4667
C5 C 0.6077(2) 0.8666(2) 0.49267(12)
H4 H 0.6519 0.8573 0.5397
C6 C 0.6282(2) 1.0906(3) 0.32836(12)
H5 H 0.5618 1.1660 0.3183
H6 H 0.6317 1.0392 0.2835
C7 C 0.7561(2) 1.1643(2) 0.35204(12)
H7 H 0.8221 1.0898 0.3660
H8 H 0.7507 1.2245 0.3940
C8 C 0.7961(2) 1.2594(2) 0.29392(12)
H9 H 0.7252 1.3255 0.2755
H10 H 0.8703 1.3188 0.3145
C9 C 0.8303(2) 1.1719(2) 0.23389(11)
C10 C 0.9413(2) 1.0900(3) 0.24266(12)
H11 H 0.9964 1.0899 0.2870
C11 C 0.9719(2) 1.0094(2) 0.18824(12)
H12 H 1.0484 0.9545 0.1960
C12 C 0.7913(2) 1.0835(3) 0.11507(12)
H13 H 0.7382 1.0821 0.0701
C13 C 0.7541(2) 1.1667(2) 0.16777(12)
H14 H 0.6768 1.2200 0.1589
Ag1C Ag -0.044629(19) 0.875537(19) 1.042728(9)
Ag1C_2 Ag 0.955371(19) 0.875537(19) 0.042728(9)
N1C N 0.00747(19) 0.7193(2) 0.97167(10)
N2C N 0.39809(19) 0.4952(2) 0.62405(10)
N2_2 N -0.10191(19) 1.0048(2) 1.12405(10)
C1C C -0.0544(2) 0.7035(2) 0.90516(12)
H1C H -0.1261 0.7631 0.8893
C2C C -0.0178(2) 0.6037(2) 0.85890(12)
H2C H -0.0646 0.5954 0.8124
C3C C 0.0874(2) 0.5154(2) 0.88001(11)
C4C C 0.1500(2) 0.5317(2) 0.94929(12)
H3C H 0.2215 0.4730 0.9667
C5C C 0.1077(2) 0.6334(2) 0.99267(12)
H4C H 0.1519 0.6427 1.0397
C6C C 0.1282(2) 0.4094(3) 0.82836(12)
H5C H 0.0618 0.3340 0.8183
H6C H 0.1317 0.4608 0.7835
C7C C 0.2561(2) 0.3357(2) 0.85204(12)
H7C H 0.3221 0.4102 0.8660
H8C H 0.2507 0.2755 0.8940
C8C C 0.2961(2) 0.2406(2) 0.79392(12)
H9C H 0.2252 0.1745 0.7755
H10C H 0.3703 0.1812 0.8145
C9C C 0.3303(2) 0.3281(2) 0.73389(11)
C10C C 0.4413(2) 0.4100(3) 0.74266(12)
H11C H 0.4964 0.4101 0.7870
C11C C 0.4719(2) 0.4906(2) 0.68824(12)
H12C H 0.5484 0.5455 0.6960
C12C C 0.2913(2) 0.4165(3) 0.61507(12)
H13C H 0.2382 0.4179 0.5701
C13C C 0.2541(2) 0.3333(2) 0.66777(12)
H14C H 0.1768 0.2800 0.6589
O1 O 0.21665(17) 0.25635(17) 0.35755(8)
O2 O 0.29815(15) 0.47979(17) 0.41289(9)
O3 O 0.11503(16) 0.48200(17) 0.31876(8)
C14 C 0.0845(2) 0.3843(2) 0.44168(10)
C15 C 0.0555(2) 0.2488(2) 0.46246(11)
H15 H 0.0869 0.1666 0.4412
C16 C -0.0212(2) 0.2306(2) 0.51544(11)
H16 H -0.0411 0.1361 0.5294
C17 C -0.0668(2) 0.3470(2) 0.54672(11)
H17 H -0.1180 0.3329 0.5822
C18 C 0.03842(19) 0.5103(2) 0.47328(10)
S1 S 0.18676(5) 0.40246(5) 0.37745(3)
O1B O -0.21665(17) 0.74365(17) 0.64245(8)
O2B O -0.29815(15) 0.52021(17) 0.58711(9)
O3B O -0.11503(16) 0.51800(17) 0.68124(8)
C14B C -0.0845(2) 0.6157(2) 0.55832(10)
C15B C -0.0555(2) 0.7512(2) 0.53754(11)
H15B H -0.0869 0.8334 0.5588
C16B C 0.0212(2) 0.7694(2) 0.48456(11)
H16B H 0.0411 0.8639 0.4706
C17B C 0.0668(2) 0.6530(2) 0.45328(11)
H17B H 0.1180 0.6671 0.4178
C18B C -0.03842(19) 0.4897(2) 0.52672(10)
S1B S -0.18676(5) 0.59754(5) 0.62255(3)
O4 O 0.16149(18) -0.04413(18) 0.37627(9)
H18 H 0.1796 0.0418 0.3661
H19 H 0.1704 -0.0986 0.3418
O5 O 0.1826(2) 0.75097(18) 0.27239(10)
H20 H 0.2119 0.7462 0.2339
H21 H 0.1638 0.6662 0.2841
loop_
_geom_bond_atom_site_label_1
_geom_bond_atom_site_label_2
_geom_bond_site_symmetry_1
_geom_bond_site_symmetry_2
Ag1 N1 1_555 1_555
N1 C1 1_555 1_555
N2 C11 1_555 1_555
C1 H1 1_555 1_555
C2 C1 1_555 1_555
H2 C2 1_555 1_555
C3 C2 1_555 1_555
C4 C3 1_555 1_555
H3 C4 1_555 1_555
C5 N1 1_555 1_555
H4 C5 1_555 1_555
C6 C3 1_555 1_555
H5 C6 1_555 1_555
H6 C6 1_555 1_555
C7 C6 1_555 1_555
H7 C7 1_555 1_555
H8 C7 1_555 1_555
C8 C7 1_555 1_555
H9 C8 1_555 1_555
H10 C8 1_555 1_555
C9 C8 1_555 1_555
C10 C9 1_555 1_555
H11 C10 1_555 1_555
C11 C10 1_555 1_555
H12 C11 1_555 1_555
C12 N2 1_555 1_555
H13 C12 1_555 1_555
C13 C9 1_555 1_555
H14 C13 1_555 1_555
O1 S1 1_555 1_555
O2 S1 1_555 1_555
O3 S1 1_555 1_555
C14 C15 1_555 1_555
C15 H15 1_555 1_555
C16 C15 1_555 1_555
H16 C16 1_555 1_555
C17 C16 1_555 1_555
H17 C17 1_555 1_555
C18 C14 1_555 1_555
S1 C14 1_555 1_555
O4 H18 1_555 1_555
H19 O4 1_555 1_555
O5 H20 1_555 1_555
H21 O5 1_555 1_555
Ag1C N1C 1_555 1_555
Ag1C_2 N2 1_555 1_555
N1C C1C 1_555 1_555
N2C Ag1 1_555 1_555
N2_2 Ag1C 1_555 1_555
C1C H1C 1_555 1_555
C2C C1C 1_555 1_555
H2C C2C 1_555 1_555
C3C C2C 1_555 1_555
C4C C3C 1_555 1_555
H3C C4C 1_555 1_555
C5C N1C 1_555 1_555
H4C C5C 1_555 1_555
C6C C3C 1_555 1_555
H5C C6C 1_555 1_555
H6C C6C 1_555 1_555
C7C C6C 1_555 1_555
H7C C7C 1_555 1_555
H8C C7C 1_555 1_555
C8C C7C 1_555 1_555
H9C C8C 1_555 1_555
H10C C8C 1_555 1_555
C9C C8C 1_555 1_555
C10C C9C 1_555 1_555
H11C C10C 1_555 1_555
C11C N2C 1_555 1_555
H12C C11C 1_555 1_555
C12C N2C 1_555 1_555
H13C C12C 1_555 1_555
C13C C9C 1_555 1_555
H14C C13C 1_555 1_555
O1B S1B 1_555 1_555
O2B S1B 1_555 1_555
O3B S1B 1_555 1_555
C14B C15B 1_555 1_555
C15B H15B 1_555 1_555
C16B C15B 1_555 1_555
H16B C16B 1_555 1_555
C17B C18 1_555 1_555
H17B C17B 1_555 1_555
C18B C17 1_555 1_555
S1B C14B 1_555 1_555
C4 C5 1_555 1_555
C12 C13 1_555 1_555
C18 C18B 1_555 1_555
C4C C5C 1_555 1_555
C10C C11C 1_555 1_555
C12C C13C 1_555 1_555
C14B C18B 1_555 1_555
C16B C17B 1_555 1_555

#END
