
#######################################################################
#
#                 Cambridge Crystallographic Data Centre
#                                CCDC 
#
#######################################################################
#
# If this CIF has been generated from an entry in the Cambridge 
# Structural Database, then it will include bibliographic, chemical, 
# crystal, experimental, refinement or atomic coordinate data resulting 
# from the CCDC's data processing and validation procedures.
#
#######################################################################

data_EZENAY
_symmetry_cell_setting           monoclinic
_symmetry_space_group_name_H-M   'P 21/c'
_symmetry_Int_Tables_number      14
_space_group_name_Hall           '-P 2ybc'
loop_
_symmetry_equiv_pos_site_id
_symmetry_equiv_pos_as_xyz
1 x,y,z
2 x,1/2-y,1/2+z
3 -x,-y,-z
4 -x,1/2+y,1/2-z
_cell_length_a                   17.0884(2)
_cell_length_b                   12.28390(10)
_cell_length_c                   17.9456(4)
_cell_angle_alpha                90.00
_cell_angle_beta                 104.1920(10)
_cell_angle_gamma                90.00
_cell_volume                     3652.03
loop_
_atom_site_label
_atom_site_type_symbol
_atom_site_fract_x
_atom_site_fract_y
_atom_site_fract_z
In1 In 0.25577(2) 0.00043(5) 0.27828(2)
C11 C 0.3618(4) -0.0133(7) 0.4517(4)
H10 H 0.4038 -0.0125 0.4271
N3 N 0.2864(3) -0.0002(5) 0.4097(3)
C12 C 0.3796(4) -0.0278(6) 0.5299(4)
H11 H 0.4332 -0.0336 0.5575
N4 N 0.3654(4) -0.0988(5) 0.8095(3)
C13 C 0.3187(4) -0.0339(6) 0.5676(4)
C14 C 0.3349(4) -0.0571(6) 0.6520(4)
C15 C 0.4021(4) -0.0153(6) 0.7030(4)
H12 H 0.4387 0.0274 0.6852
C16 C 0.4147(5) -0.0374(7) 0.7803(4)
H13 H 0.4601 -0.0078 0.8138
C17 C 0.3011(5) -0.1396(6) 0.7599(4)
H14 H 0.2660 -0.1830 0.7791
C18 C 0.2833(4) -0.1212(6) 0.6815(4)
H15 H 0.2374 -0.1514 0.6493
C19 C 0.2403(4) -0.0182(6) 0.5235(4)
H16 H 0.1972 -0.0194 0.5466
C20 C 0.2270(4) -0.0011(7) 0.4466(3)
H17 H 0.1743 0.0104 0.4183
C21 C 0.1253(4) 0.1143(5) 0.2196(4)
O2 O 0.1708(3) 0.0800(4) 0.1782(3)
C22 C -0.1141(4) 0.3390(6) 0.2363(4)
O3 O 0.1460(3) 0.1035(4) 0.2911(3)
C23 C -0.0905(5) 0.1970(7) -0.0182(4)
O4 O -0.0781(3) 0.3716(5) 0.3010(3)
C24 C 0.0471(4) 0.1675(6) 0.1818(4)
O5 O -0.1878(3) 0.3617(4) 0.2033(3)
C25 C 0.0040(4) 0.2254(5) 0.2249(4)
H18 H 0.0246 0.2327 0.2777
O6 O -0.1486(4) 0.2418(7) -0.0517(4)
C26 C -0.0704(4) 0.2728(6) 0.1895(4)
O7 O -0.0492(5) 0.1312(7) -0.0509(4)
H19 H -0.077(4) 0.116(5) -0.085(4)
C27 C -0.0995(4) 0.2608(6) 0.1111(4)
H20 H -0.1492 0.2911 0.0872
C28 C -0.0563(4) 0.2045(6) 0.0669(4)
C29 C 0.0173(4) 0.1576(6) 0.1024(4)
H21 H 0.0466 0.1198 0.0735
C30 C 0.3630(4) -0.1121(6) 0.2269(4)
O8 O 0.3767(3) -0.1004(4) 0.2980(3)
C31 C 0.4554(5) -0.1923(7) -0.0108(5)
O9 O 0.2987(3) -0.0740(4) 0.1836(3)
C32 C 0.6171(4) -0.3266(6) 0.2425(4)
O10 O 0.3906(4) -0.1381(6) -0.0445(3)
H22 H 0.387(5) -0.129(8) -0.094(5)
C33 C 0.4221(4) -0.1660(5) 0.1898(4)
O11 O 0.5016(4) -0.2312(6) -0.0445(3)
C34 C 0.4104(4) -0.1589(6) 0.1109(4)
H23 H 0.3646 -0.1242 0.0820
O12 O 0.6660(3) -0.3609(4) 0.2048(3)
C35 C 0.4655(4) -0.2025(6) 0.0741(4)
O13 O 0.6252(3) -0.3387(6) 0.3122(3)
C36 C 0.5326(4) -0.2569(6) 0.1181(4)
H24 H 0.5700 -0.2872 0.0941
C37 C 0.5447(4) -0.2665(5) 0.1970(4)
C38 C 0.4888(4) -0.2203(5) 0.2328(4)
H25 H 0.4965 -0.2260 0.2858
O5C O 0.1878(3) -0.1383(4) 0.2967(3)
O12C O 0.3340(3) 0.1391(4) 0.2952(3)
In1C In -0.25577(2) 0.50043(5) 0.22172(2)
In1C_2 In 0.74423(2) -0.49957(5) 0.22172(2)
O1 O 0.0333(13) 0.4642(18) -0.0161(13)
C1 C 0.3044(7) 0.1722(13) 0.0009(6)
H1 H 0.3459 0.2213 0.0199
N1 N 0.2797(4) 0.1098(7) 0.0484(4)
H2 H 0.306(5) 0.117(7) 0.103(6)
C2 C 0.2711(7) 0.1684(11) -0.0767(6)
H3 H 0.2892 0.2162 -0.1091
N2 N 0.1110(5) 0.0615(7) -0.3500(4)
C3 C 0.2125(4) 0.0960(6) -0.1067(4)
C4 C 0.1770(4) 0.0845(6) -0.1905(4)
C5 C 0.2098(5) 0.1364(6) -0.2439(4)
H4 H 0.2549 0.1807 -0.2277
C6 C 0.1757(6) 0.1227(7) -0.3213(5)
H5 H 0.1994 0.1586 -0.3557
C7 C 0.0787(6) 0.0136(8) -0.2986(5)
H6 H 0.0328 -0.0288 -0.3166
C8 C 0.1087(5) 0.0225(7) -0.2196(5)
H7 H 0.0830 -0.0130 -0.1864
C9 C 0.1882(6) 0.0330(9) -0.0535(5)
H8 H 0.1472 -0.0177 -0.0704
C10 C 0.2225(7) 0.0421(10) 0.0239(5)
H9 H 0.2040 -0.0010 0.0585
loop_
_geom_bond_atom_site_label_1
_geom_bond_atom_site_label_2
_geom_bond_site_symmetry_1
_geom_bond_site_symmetry_2
In1 N3 1_555 1_555
C1 H1 1_555 1_555
N1 C1 1_555 1_555
H2 N1 1_555 1_555
C2 C1 1_555 1_555
H3 C2 1_555 1_555
N2 C6 1_555 1_555
C3 C2 1_555 1_555
C4 C3 1_555 1_555
C5 C4 1_555 1_555
H4 C5 1_555 1_555
C6 C5 1_555 1_555
H5 C6 1_555 1_555
C7 N2 1_555 1_555
H6 C7 1_555 1_555
C8 C4 1_555 1_555
H7 C8 1_555 1_555
C9 C3 1_555 1_555
H8 C9 1_555 1_555
C10 N1 1_555 1_555
H9 C10 1_555 1_555
C11 H10 1_555 1_555
N3 C11 1_555 1_555
C12 C11 1_555 1_555
H11 C12 1_555 1_555
N4 C16 1_555 1_555
C13 C12 1_555 1_555
C14 C13 1_555 1_555
C15 C14 1_555 1_555
H12 C15 1_555 1_555
C16 C15 1_555 1_555
H13 C16 1_555 1_555
C17 N4 1_555 1_555
H14 C17 1_555 1_555
C18 C14 1_555 1_555
H15 C18 1_555 1_555
C19 C13 1_555 1_555
H16 C19 1_555 1_555
C20 N3 1_555 1_555
H17 C20 1_555 1_555
C21 O2 1_555 1_555
O2 In1 1_555 1_555
C22 O4 1_555 1_555
O3 In1 1_555 1_555
C23 O6 1_555 1_555
C24 C21 1_555 1_555
O5 C22 1_555 1_555
C25 C24 1_555 1_555
H18 C25 1_555 1_555
C26 C22 1_555 1_555
O7 C23 1_555 1_555
H19 O7 1_555 1_555
C27 C26 1_555 1_555
H20 C27 1_555 1_555
C28 C23 1_555 1_555
C29 C24 1_555 1_555
H21 C29 1_555 1_555
C30 O8 1_555 1_555
O8 In1 1_555 1_555
C31 O10 1_555 1_555
O9 In1 1_555 1_555
C32 O12 1_555 1_555
O10 H22 1_555 1_555
C33 C30 1_555 1_555
O11 C31 1_555 1_555
C34 C33 1_555 1_555
H23 C34 1_555 1_555
O12 In1C_2 1_555 1_555
C35 C31 1_555 1_555
O13 C32 1_555 1_555
C36 C35 1_555 1_555
H24 C36 1_555 1_555
C37 C32 1_555 1_555
C38 C33 1_555 1_555
H25 C38 1_555 1_555
O5C In1 1_555 1_555
O12C In1 1_555 1_555
In1C O5 1_555 1_555
C7 C8 1_555 1_555
C9 C10 1_555 1_555
C17 C18 1_555 1_555
C19 C20 1_555 1_555
C21 O3 1_555 1_555
C25 C26 1_555 1_555
C27 C28 1_555 1_555
C28 C29 1_555 1_555
C30 O9 1_555 1_555
C34 C35 1_555 1_555
C36 C37 1_555 1_555
C37 C38 1_555 1_555

#END
