
#######################################################################
#
#                 Cambridge Crystallographic Data Centre
#                                CCDC 
#
#######################################################################
#
# If this CIF has been generated from an entry in the Cambridge 
# Structural Database, then it will include bibliographic, chemical, 
# crystal, experimental, refinement or atomic coordinate data resulting 
# from the CCDC's data processing and validation procedures.
#
#######################################################################

data_EZIGEZ
_symmetry_cell_setting           monoclinic
_symmetry_space_group_name_H-M   'C 2/c'
_symmetry_Int_Tables_number      15
_space_group_name_Hall           '-C 2yn'
loop_
_symmetry_equiv_pos_site_id
_symmetry_equiv_pos_as_xyz
1 x,y,z
2 1/2+x,1/2+y,z
3 x,-y,1/2+z
4 1/2+x,1/2-y,1/2+z
5 -x,-y,-z
6 1/2-x,1/2-y,-z
7 -x,y,1/2-z
8 1/2-x,1/2+y,1/2-z
_cell_length_a                   35.578(4)
_cell_length_b                   10.232(1)
_cell_length_c                   16.211(1)
_cell_angle_alpha                90
_cell_angle_beta                 108.913(2)
_cell_angle_gamma                90
_cell_volume                     5582.75
loop_
_atom_site_label
_atom_site_type_symbol
_atom_site_fract_x
_atom_site_fract_y
_atom_site_fract_z
Cd1 Cd 0.0000 -0.40566(7) -0.2500
Cd2 Cd 0.196120(13) -0.08042(4) -0.12121(3)
S1 S 0.04944(5) -0.61009(16) -0.06316(11)
O1 O 0.14524(13) -0.2224(4) -0.0949(3)
O2 O 0.19909(12) -0.3098(4) -0.1089(3)
O3 O -0.20385(15) -0.8092(5) -0.3682(4)
O4 O -0.16260(13) -0.9189(4) -0.4183(3)
O5 O 0.02363(12) -0.5701(5) -0.1498(3)
O6 O 0.04661(14) -0.5262(5) 0.0057(3)
O7 O 0.04487(14) -0.7475(5) -0.0506(4)
O8 O 0.23182(13) -0.0698(4) 0.0269(3)
N1 N 0.01839(15) -0.2397(5) -0.1435(3)
N2 N 0.15020(16) 0.0426(5) 0.2375(4)
N3 N 0.05936(15) -0.4435(5) -0.2860(3)
N4 N 0.24589(15) -0.5689(5) -0.3413(3)
C1 C 0.09808(17) -0.5897(6) -0.0688(4)
C2 C 0.11957(18) -0.6999(6) -0.0732(4)
H1 H 0.1097 -0.7820 -0.0667
C3 C 0.15584(18) -0.6893(6) -0.0873(4)
C4 C 0.17049(17) -0.5662(6) -0.0952(4)
H2 H 0.1944 -0.5584 -0.1064
C5 C 0.15004(18) -0.4542(6) -0.0868(4)
C6 C 0.11361(18) -0.4670(6) -0.0735(4)
H3 H 0.0996 -0.3928 -0.0677
C7 C -0.1757(2) -0.8133(6) -0.3994(5)
C8 C 0.1653(2) -0.3196(6) -0.0965(4)
C9 C 0.01581(18) -0.2649(7) -0.0649(4)
H4 H 0.0018 -0.3290 -0.4404
C10 C -0.0423(2) -0.1417(7) -0.3500(4)
H5 H -0.0428 -0.1183 -0.2949
C11 C 0.0382(2) -0.1996(7) 0.0087(4)
H6 H -0.0352 -0.2195 -0.5622
C12 C -0.0662(2) -0.0743(7) -0.4212(4)
H7 H -0.0830 -0.0090 -0.4139
C13 C 0.06516(18) -0.1041(6) 0.0041(4)
C14 C 0.09363(18) -0.0469(6) 0.0831(4)
C15 C 0.0846(2) -0.0301(7) 0.1596(4)
H8 H -0.0592 -0.0485 -0.6609
C16 C -0.1317(2) -0.0149(7) -0.5860(4)
H9 H -0.1391 -0.0225 -0.5362
C17 C 0.11349(19) 0.0141(7) 0.2338(5)
H10 H -0.1067 0.0244 -0.7842
C18 C -0.1587(2) 0.0283(7) -0.6631(5)
H11 H -0.1843 0.0486 -0.6637
C19 C 0.07185(18) -0.5664(6) -0.2878(4)
H12 H 0.0561 -0.6343 -0.2795
C20 C 0.08197(19) -0.3488(6) -0.3025(4)
H13 H 0.0731 -0.2630 -0.3043
C21 C 0.10695(18) -0.5962(6) -0.3014(4)
H14 H 0.1146 -0.6830 -0.3015
C22 C 0.11715(19) -0.3710(6) -0.3168(5)
H15 H 0.1317 -0.3015 -0.3276
C23 C 0.13103(18) -0.4981(6) -0.3151(4)
C24 C 0.17025(18) -0.5244(6) -0.3249(4)
C25 C 0.20185(19) -0.4390(7) -0.2916(4)
H16 H 0.1983 -0.3639 -0.2626
C26 C 0.17824(19) -0.6360(7) -0.3645(5)
H17 H 0.1586 -0.6986 -0.3862
C27 C 0.23828(19) -0.4637(6) -0.3009(4)
H18 H 0.2587 -0.4038 -0.2778
C28 C 0.21532(19) -0.6540(6) -0.3718(4)
H19 H 0.2197 -0.7295 -0.3993
Cd2B Cd 0.196120(13) 0.08042(4) 0.37879(3)
O4F O 0.16260(13) 0.0811(4) -0.0817(3)
N2B N 0.15020(16) -0.0426(5) -0.2625(4)
Cd2D Cd -0.196120(13) 0.08042(4) -0.87879(3)
N2F N -0.15020(16) 0.0426(5) -0.7375(4)
C17F C -0.11349(19) 0.0141(7) -0.7338(5)
C15F C -0.0846(2) -0.0301(7) -0.6596(4)
C14F C -0.09363(18) -0.0469(6) -0.5831(4)
C13F C -0.06516(18) -0.1041(6) -0.5041(4)
C11F C -0.0382(2) -0.1996(7) -0.5087(4)
C9F C -0.01581(18) -0.2649(7) -0.4351(4)
N1F N -0.01839(15) -0.2397(5) -0.3565(3)
O5F O -0.02363(12) -0.5701(5) -0.3502(3)
S1F S -0.04944(5) -0.61009(16) -0.43684(11)
O6F O -0.04661(14) -0.5262(5) -0.5057(3)
O7F O -0.04487(14) -0.7475(5) -0.4494(4)
C1F C -0.09808(17) -0.5897(6) -0.4312(4)
C2F C -0.11957(18) -0.6999(6) -0.4268(4)
H1F H -0.1097 -0.7820 -0.4333
C3F C -0.15584(18) -0.6893(6) -0.4127(4)
C4F C -0.17049(17) -0.5662(6) -0.4048(4)
H2F H -0.1944 -0.5584 -0.3936
C5F C -0.15004(18) -0.4542(6) -0.4132(4)
C6F C -0.11361(18) -0.4670(6) -0.4265(4)
H3F H -0.0996 -0.3928 -0.4323
C8F C -0.1653(2) -0.3196(6) -0.4035(4)
O1F O -0.14524(13) -0.2224(4) -0.4051(3)
Cd2F Cd -0.196120(13) -0.08042(4) -0.37879(3)
O2F O -0.19909(12) -0.3098(4) -0.3911(3)
O4_2 O -0.16260(13) 0.0811(4) -0.4183(3)
O8F O -0.23182(13) -0.0698(4) -0.5269(3)
N2D N -0.15020(16) -0.0426(5) -0.2375(4)
N4A N -0.25411(15) -0.0689(5) -0.3413(3)
N3F N -0.05936(15) -0.4435(5) -0.2140(3)
N4G N 0.25411(15) -0.0689(5) -0.1587(3)
C7F C 0.1757(2) -0.8133(6) -0.1006(5)
C10F C 0.0423(2) -0.1417(7) -0.1500(4)
H5F H 0.0428 -0.1183 -0.2051
C12F C 0.0662(2) -0.0743(7) -0.0788(4)
H7F H 0.0830 -0.0090 -0.0861
H4F H -0.0018 -0.3290 -0.0596
H6F H 0.0352 -0.2195 0.0622
C16F C 0.1317(2) -0.0149(7) 0.0860(4)
H9F H 0.1391 -0.0225 0.0362
C18F C 0.1587(2) 0.0283(7) 0.1631(5)
H11F H 0.1843 0.0486 0.1637
H8F H 0.0592 -0.0485 0.1609
H10F H 0.1067 0.0244 0.2842
C19F C -0.07185(18) -0.5664(6) -0.2122(4)
C20F C -0.08197(19) -0.3488(6) -0.1975(4)
O3F O 0.20385(15) -0.8092(5) -0.1318(4)
O4F_2 O 0.16260(13) -0.9189(4) -0.0817(3)
Cd2F_2 Cd -0.196120(13) -1.08042(4) -0.37879(3)
H12F H -0.0561 -0.6343 -0.2205
C21F C -0.10695(18) -0.5962(6) -0.1986(4)
H13F H -0.0731 -0.2630 -0.1957
C22F C -0.11715(19) -0.3710(6) -0.1832(5)
Cd2_2 Cd 0.196120(13) -1.08042(4) -0.12121(3)
H14F H -0.1146 -0.6830 -0.1985
C23F C -0.13103(18) -0.4981(6) -0.1849(4)
H15F H -0.1317 -0.3015 -0.1724
C24F C -0.17025(18) -0.5244(6) -0.1751(4)
C25F C -0.20185(19) -0.4390(7) -0.2084(4)
C26F C -0.17824(19) -0.6360(7) -0.1355(5)
H16F H -0.1983 -0.3639 -0.2374
C27F C -0.23828(19) -0.4637(6) -0.1991(4)
H17F H -0.1586 -0.6986 -0.1138
C28F C -0.21532(19) -0.6540(6) -0.1282(4)
Cd2A Cd -0.303880(13) -0.58042(4) -0.12121(3)
N4F N -0.24589(15) -0.5689(5) -0.1587(3)
H18F H -0.2587 -0.4038 -0.2222
H19F H -0.2197 -0.7295 -0.1007
Cd2G Cd 0.303880(13) -0.58042(4) -0.37879(3)
O9 O 0.27028(16) -0.3316(5) 0.3957(4)
O10 O 0.0000 0.8506(10) 0.2500
loop_
_geom_bond_atom_site_label_1
_geom_bond_atom_site_label_2
_geom_bond_site_symmetry_1
_geom_bond_site_symmetry_2
Cd1 O5 1_555 1_555
Cd2 O1 1_555 1_555
S1 O5 1_555 1_555
O1 C8 1_555 1_555
O2 Cd2 1_555 1_555
O3 C7 1_555 1_555
O4 C7 1_555 1_555
O6 S1 1_555 1_555
O7 S1 1_555 1_555
O8 Cd2 1_555 1_555
N1 Cd1 1_555 1_555
N2 C17 1_555 1_555
N3 Cd1 1_555 1_555
N4 C27 1_555 1_555
C1 S1 1_555 1_555
C2 C1 1_555 1_555
H1 C2 1_555 1_555
C3 C2 1_555 1_555
C4 C3 1_555 1_555
H2 C4 1_555 1_555
C5 C4 1_555 1_555
C6 C1 1_555 1_555
H3 C6 1_555 1_555
C7 C3F 1_555 1_555
C8 O2 1_555 1_555
C9 N1 1_555 1_555
H4 C9F 1_555 1_555
C10 H5 1_555 1_555
C11 C9 1_555 1_555
H6 C11F 1_555 1_555
C12 C10 1_555 1_555
H7 C12 1_555 1_555
C13 C11 1_555 1_555
C14 C13 1_555 1_555
C15 C14 1_555 1_555
H8 C15F 1_555 1_555
C16 H9 1_555 1_555
C17 C15 1_555 1_555
H10 C17F 1_555 1_555
C18 C16 1_555 1_555
H11 C18 1_555 1_555
C19 N3 1_555 1_555
H12 C19 1_555 1_555
C20 N3 1_555 1_555
H13 C20 1_555 1_555
C21 C19 1_555 1_555
H14 C21 1_555 1_555
C22 C20 1_555 1_555
H15 C22 1_555 1_555
C23 C21 1_555 1_555
C24 C23 1_555 1_555
C25 C24 1_555 1_555
H16 C25 1_555 1_555
C26 C24 1_555 1_555
H17 C26 1_555 1_555
C27 C25 1_555 1_555
H18 C27 1_555 1_555
C28 N4 1_555 1_555
H19 C28 1_555 1_555
Cd2B N2 1_555 1_555
O4F Cd2 1_555 1_555
N2B Cd2 1_555 1_555
Cd2D N2F 1_555 1_555
N2F C18 1_555 1_555
C17F N2F 1_555 1_555
C15F C17F 1_555 1_555
C14F C16 1_555 1_555
C13F C12 1_555 1_555
C11F C13F 1_555 1_555
C9F C11F 1_555 1_555
N1F Cd1 1_555 1_555
O5F Cd1 1_555 1_555
S1F O5F 1_555 1_555
O6F S1F 1_555 1_555
O7F S1F 1_555 1_555
C1F S1F 1_555 1_555
C2F C1F 1_555 1_555
H1F C2F 1_555 1_555
C3F C2F 1_555 1_555
C4F C3F 1_555 1_555
H2F C4F 1_555 1_555
C5F C4F 1_555 1_555
C6F C1F 1_555 1_555
H3F C6F 1_555 1_555
C8F C5F 1_555 1_555
O1F C8F 1_555 1_555
Cd2F O1F 1_555 1_555
O2F C8F 1_555 1_555
O4_2 Cd2F 1_555 1_555
O8F Cd2F 1_555 1_555
N2D Cd2F 1_555 1_555
N4A Cd2F 1_555 1_555
N3F Cd1 1_555 1_555
N4G Cd2 1_555 1_555
C7F C3 1_555 1_555
C10F N1 1_555 1_555
H5F C10F 1_555 1_555
C12F C13 1_555 1_555
H7F C12F 1_555 1_555
H4F C9 1_555 1_555
H6F C11 1_555 1_555
C16F C14 1_555 1_555
H9F C16F 1_555 1_555
C18F N2 1_555 1_555
H11F C18F 1_555 1_555
H8F C15 1_555 1_555
H10F C17 1_555 1_555
C19F N3F 1_555 1_555
C20F N3F 1_555 1_555
O3F C7F 1_555 1_555
O4F_2 C7F 1_555 1_555
Cd2F_2 O4 1_555 1_555
H12F C19F 1_555 1_555
C21F C19F 1_555 1_555
H13F C20F 1_555 1_555
C22F C20F 1_555 1_555
Cd2_2 O4F_2 1_555 1_555
H14F C21F 1_555 1_555
C23F C21F 1_555 1_555
H15F C22F 1_555 1_555
C24F C23F 1_555 1_555
C25F C24F 1_555 1_555
C26F C24F 1_555 1_555
H16F C25F 1_555 1_555
C27F C25F 1_555 1_555
H17F C26F 1_555 1_555
C28F C26F 1_555 1_555
Cd2A N4F 1_555 1_555
N4F C27F 1_555 1_555
H18F C27F 1_555 1_555
H19F C28F 1_555 1_555
Cd2G N4 1_555 1_555
C5 C6 1_555 1_555
C5 C8 1_555 1_555
C10 N1F 1_555 1_555
C22 C23 1_555 1_555
C26 C28 1_555 1_555
C15F C14F 1_555 1_555
C14F C13F 1_555 1_555
C9F N1F 1_555 1_555
C5F C6F 1_555 1_555
Cd2F O2F 1_555 1_555
C10F C12F 1_555 1_555
C16F C18F 1_555 1_555
C22F C23F 1_555 1_555
C28F N4F 1_555 1_555

#END
