
#######################################################################
#
#                 Cambridge Crystallographic Data Centre
#                                CCDC 
#
#######################################################################
#
# If this CIF has been generated from an entry in the Cambridge 
# Structural Database, then it will include bibliographic, chemical, 
# crystal, experimental, refinement or atomic coordinate data resulting 
# from the CCDC's data processing and validation procedures.
#
#######################################################################

data_EZILEF
_symmetry_cell_setting           triclinic
_symmetry_space_group_name_H-M   'P -1'
_symmetry_Int_Tables_number      2
_space_group_name_Hall           '-P 1'
loop_
_symmetry_equiv_pos_site_id
_symmetry_equiv_pos_as_xyz
1 x,y,z
2 -x,-y,-z
_cell_length_a                   6.4151(9)
_cell_length_b                   12.6371(9)
_cell_length_c                   15.6834(16)
_cell_angle_alpha                96.703(2)
_cell_angle_beta                 95.498(9)
_cell_angle_gamma                98.239(10)
_cell_volume                     1241.48
loop_
_atom_site_label
_atom_site_type_symbol
_atom_site_fract_x
_atom_site_fract_y
_atom_site_fract_z
Fe1 Fe 0.9908(2) 1.13617(11) 0.85293(9)
Fe2 Fe 1.1668(2) 1.32579(11) 0.84999(9)
Na1 Na 0.7748(5) 0.4646(3) 0.4109(2)
S1 S 1.3078(3) 1.17668(18) 0.80474(14)
S2 S 0.8776(3) 1.24569(18) 0.75832(15)
S3 S 0.5990(4) 0.68854(18) 0.51483(15)
O1 O 0.7776(11) 0.9169(6) 0.7840(5)
O2 O 1.2288(11) 1.0724(6) 1.0020(5)
O3 O 0.6710(11) 1.1860(6) 0.9653(5)
O4 O 1.4414(12) 1.3696(6) 1.0154(5)
O5 O 0.8717(13) 1.4639(7) 0.9163(5)
O6 O 1.4080(13) 1.4745(6) 0.7509(6)
O7 O 0.3930(11) 0.7106(6) 0.4784(6)
O8 O 0.7184(12) 0.6403(5) 0.4505(4)
O9 O 0.5781(10) 0.6267(5) 0.5865(4)
N1 N 1.0808(11) 1.1287(6) 0.6406(5)
C1 C 0.8629(14) 1.0021(9) 0.8071(6)
C2 C 1.1351(15) 1.0967(9) 0.9444(7)
C3 C 0.7920(15) 1.1658(8) 0.9181(6)
C4 C 1.3408(16) 1.3506(8) 0.9523(7)
C5 C 0.9896(18) 1.4108(10) 0.8932(7)
C6 C 1.3139(16) 1.4173(8) 0.7889(7)
C7 C 1.2920(14) 1.1505(7) 0.6854(6)
H1 H 1.3705 1.2140 0.6646
H2 H 1.3647 1.0882 0.6699
C8 C 0.9682(14) 1.2186(7) 0.6505(6)
H3 H 0.8432 1.2054 0.6063
H4 H 1.0612 1.2839 0.6393
C9 C 0.9696(13) 1.0246(7) 0.6162(6)
O10 O 0.8166(10) 0.3365(5) 0.2969(4)
C10 C 0.7475(13) 1.0060(7) 0.5918(6)
H5 H 0.6717 1.0653 0.5966
O11 O 0.8657(10) 0.4787(5) 0.5837(5)
H6 H 0.8331 0.4082 0.6050
H7 H 0.7936 0.5327 0.6153
C11 C 0.6395(14) 0.9057(7) 0.5617(6)
H8 H 0.4912 0.8965 0.5445
C12 C 0.7448(14) 0.8167(7) 0.5560(6)
C13 C 0.9599(14) 0.8305(7) 0.5825(6)
H9 H 1.0316 0.7697 0.5807
C14 C 1.0708(14) 0.9320(7) 0.6116(6)
H10 H 1.2189 0.9400 0.6288
C15 C 0.6429(16) 0.2582(8) 0.2540(7)
H11 H 0.5880 0.2097 0.2947
H12 H 0.5264 0.2946 0.2316
C16 C 0.7247(17) 0.1948(9) 0.1809(7)
H13 H 0.7840 0.1321 0.1998
H14 H 0.6128 0.1697 0.1318
C17 C 0.8954(16) 0.2786(9) 0.1580(7)
H15 H 0.8340 0.3267 0.1204
H16 H 1.0022 0.2441 0.1280
C18 C 0.9914(15) 0.3395(9) 0.2430(6)
H17 H 1.0492 0.4148 0.2367
H18 H 1.1071 0.3048 0.2685
Na1A Na 0.2252(5) 0.5354(3) 0.5891(2)
Na1A_2 Na 1.2252(5) 0.5354(3) 0.5891(2)
O9A O 0.4219(10) 0.3733(5) 0.4135(4)
O11A O 1.1343(10) 0.5213(5) 0.4163(5)
H6A H 1.1669 0.5918 0.3950
H7A H 1.2064 0.4673 0.3847
loop_
_geom_bond_atom_site_label_1
_geom_bond_atom_site_label_2
_geom_bond_site_symmetry_1
_geom_bond_site_symmetry_2
Fe1 Fe2 1_555 1_555
Fe2 S1 1_555 1_555
Na1 O8 1_555 1_555
S1 Fe1 1_555 1_555
S2 Fe1 1_555 1_555
S3 O7 1_555 1_555
O1 C1 1_555 1_555
O2 C2 1_555 1_555
O3 C3 1_555 1_555
O4 C4 1_555 1_555
O5 C5 1_555 1_555
O6 C6 1_555 1_555
O8 S3 1_555 1_555
O9 S3 1_555 1_555
N1 C7 1_555 1_555
C1 Fe1 1_555 1_555
C2 Fe1 1_555 1_555
C3 Fe1 1_555 1_555
C4 Fe2 1_555 1_555
C5 Fe2 1_555 1_555
C6 Fe2 1_555 1_555
C7 S1 1_555 1_555
H1 C7 1_555 1_555
H2 C7 1_555 1_555
C8 S2 1_555 1_555
H3 C8 1_555 1_555
H4 C8 1_555 1_555
C9 N1 1_555 1_555
O10 Na1 1_555 1_555
C10 C9 1_555 1_555
H5 C10 1_555 1_555
O11 Na1 1_555 1_555
H6 O11 1_555 1_555
H7 O11 1_555 1_555
C11 C10 1_555 1_555
H8 C11 1_555 1_555
C12 S3 1_555 1_555
C13 C12 1_555 1_555
H9 C13 1_555 1_555
C14 C9 1_555 1_555
H10 C14 1_555 1_555
C15 O10 1_555 1_555
H11 C15 1_555 1_555
H12 C15 1_555 1_555
C16 C15 1_555 1_555
H13 C16 1_555 1_555
H14 C16 1_555 1_555
C17 C16 1_555 1_555
H15 C17 1_555 1_555
H16 C17 1_555 1_555
C18 O10 1_555 1_555
H17 C18 1_555 1_555
H18 C18 1_555 1_555
Na1A O9 1_555 1_555
Na1A_2 O11 1_555 1_555
O9A Na1 1_555 1_555
O11A Na1 1_555 1_555
H6A O11A 1_555 1_555
H7A O11A 1_555 1_555
Fe2 S2 1_555 1_555
N1 C8 1_555 1_555
C11 C12 1_555 1_555
C13 C14 1_555 1_555
C17 C18 1_555 1_555
Na1A_2 O11A 1_555 1_555

#END
