
#######################################################################
#
#                 Cambridge Crystallographic Data Centre
#                                CCDC 
#
#######################################################################
#
# If this CIF has been generated from an entry in the Cambridge 
# Structural Database, then it will include bibliographic, chemical, 
# crystal, experimental, refinement or atomic coordinate data resulting 
# from the CCDC's data processing and validation procedures.
#
#######################################################################

data_EZILUV
_symmetry_cell_setting           rhombohedral
_symmetry_space_group_name_H-M   'R -3 c'
_symmetry_Int_Tables_number      167
_space_group_name_Hall           '-R 3 2"c'
loop_
_symmetry_equiv_pos_site_id
_symmetry_equiv_pos_as_xyz
1 x,y,z
2 -y,x-y,z
3 -x+y,-x,z
4 y,x,1/2-z
5 x-y,-y,1/2-z
6 -x,-x+y,1/2-z
7 2/3+x,1/3+y,1/3+z
8 2/3-y,1/3+x-y,1/3+z
9 2/3-x+y,1/3-x,1/3+z
10 2/3+y,1/3+x,5/6-z
11 2/3+x-y,1/3-y,5/6-z
12 2/3-x,1/3-x+y,5/6-z
13 1/3+x,2/3+y,2/3+z
14 1/3-y,2/3+x-y,2/3+z
15 1/3-x+y,2/3-x,2/3+z
16 1/3+y,2/3+x,1/6-z
17 1/3+x-y,2/3-y,1/6-z
18 1/3-x,2/3-x+y,1/6-z
19 -x,-y,-z
20 y,-x+y,-z
21 x-y,x,-z
22 -y,-x,1/2+z
23 -x+y,y,1/2+z
24 x,x-y,1/2+z
25 1/3-x,2/3-y,2/3-z
26 1/3+y,2/3-x+y,2/3-z
27 1/3+x-y,2/3+x,2/3-z
28 1/3-y,2/3-x,1/6+z
29 1/3-x+y,2/3+y,1/6+z
30 1/3+x,2/3+x-y,1/6+z
31 2/3-x,1/3-y,1/3-z
32 2/3+y,1/3-x+y,1/3-z
33 2/3+x-y,1/3+x,1/3-z
34 2/3-y,1/3-x,5/6+z
35 2/3-x+y,1/3+y,5/6+z
36 2/3+x,1/3+x-y,5/6+z
_cell_length_a                   18.249(3)
_cell_length_b                   18.249(3)
_cell_length_c                   72.569(15)
_cell_angle_alpha                90
_cell_angle_beta                 90
_cell_angle_gamma                120
_cell_volume                     20929.6
loop_
_atom_site_label
_atom_site_type_symbol
_atom_site_fract_x
_atom_site_fract_y
_atom_site_fract_z
Cu1 Cu 0.792188(19) 1.177395(19) 0.931121(4)
O1 O 0.68754(13) 1.13387(14) 0.91743(3)
O2 O 0.72831(13) 1.08984(14) 0.89261(3)
O3 O 0.44087(13) 1.15989(15) 0.91604(3)
O4 O 0.35371(12) 1.11607(15) 0.89163(3)
N1 N 0.40690(16) 0.86966(13) 0.78883(3)
C1 C 0.43688(17) 0.90591(16) 0.80504(4)
H1 H 0.4887 0.9582 0.8053
C2 C 0.3327(2) 0.79529(18) 0.78853(4)
H2 H 0.3103 0.7695 0.7770
C3 C 0.2883(2) 0.7552(2) 0.80430(5)
H3 H 0.2370 0.7026 0.8036
C4 C 0.3204(2) 0.7936(2) 0.82120(5)
H4 H 0.2913 0.7676 0.8323
C5 C 0.3959(2) 0.87088(18) 0.82169(4)
C6 C 0.4311(2) 0.9161(2) 0.83859(4)
C7 C 0.4602(2) 0.9584(2) 0.85228(4)
C8 C 0.48955(19) 1.0094(2) 0.86854(4)
C9 C 0.56690(19) 1.0291(2) 0.87666(4)
H5 H 0.6011 1.0090 0.8713
C10 C 0.59355(17) 1.07798(17) 0.89252(4)
C11 C 0.54359(16) 1.10798(17) 0.90035(4)
H6 H 0.5615 1.1406 0.9113
C12 C 0.46754(16) 1.08997(17) 0.89203(4)
C13 C 0.44079(18) 1.0412(2) 0.87616(4)
H7 H 0.3892 1.0294 0.8704
C14 C 0.67552(17) 1.10152(17) 0.90151(3)
C15 C 0.41678(16) 1.12522(17) 0.90053(4)
Cu1I Cu 0.844062(19) 1.125521(19) 0.902212(4)
Cu1B Cu 0.385207(27) 1.207812(19) 0.931121(4)
Cu1J Cu 0.281460(27) 1.155938(19) 0.902212(4)
Cu1IA Cu 0.458855(19) 0.948126(27) 0.764454(4)
O2I O 0.75651(14) 1.06164(13) 0.94072(3)
O3A O 0.84011(15) 1.28098(20) 0.91604(3)
O4J O 0.90431(19) 1.21726(15) 0.94170(3)
N1CA N 0.74023(16) 1.20391(21) 0.95550(3)
loop_
_geom_bond_atom_site_label_1
_geom_bond_atom_site_label_2
_geom_bond_site_symmetry_1
_geom_bond_site_symmetry_2
Cu1 O1 1_555 1_555
O1 C14 1_555 1_555
O2 C14 1_555 1_555
O3 C15 1_555 1_555
O4 C15 1_555 1_555
N1 C1 1_555 1_555
C1 H1 1_555 1_555
C2 N1 1_555 1_555
H2 C2 1_555 1_555
C3 C2 1_555 1_555
H3 C3 1_555 1_555
C4 C3 1_555 1_555
H4 C4 1_555 1_555
C5 C1 1_555 1_555
C6 C5 1_555 1_555
C7 C6 1_555 1_555
C8 C7 1_555 1_555
C9 C8 1_555 1_555
H5 C9 1_555 1_555
C10 C9 1_555 1_555
C11 C10 1_555 1_555
H6 C11 1_555 1_555
C12 C11 1_555 1_555
C13 C8 1_555 1_555
H7 C13 1_555 1_555
C14 C10 1_555 1_555
C15 C12 1_555 1_555
Cu1I O2 1_555 1_555
Cu1B O3 1_555 1_555
Cu1J O4 1_555 1_555
Cu1IA N1 1_555 1_555
O2I Cu1 1_555 1_555
O3A Cu1 1_555 1_555
O4J Cu1 1_555 1_555
N1CA Cu1 1_555 1_555
C4 C5 1_555 1_555
C12 C13 1_555 1_555

#END
