
#######################################################################
#
#                 Cambridge Crystallographic Data Centre
#                                CCDC 
#
#######################################################################
#
# If this CIF has been generated from an entry in the Cambridge 
# Structural Database, then it will include bibliographic, chemical, 
# crystal, experimental, refinement or atomic coordinate data resulting 
# from the CCDC's data processing and validation procedures.
#
#######################################################################

data_EZIWUG
_symmetry_cell_setting           monoclinic
_symmetry_space_group_name_H-M   'C 2/c'
_symmetry_Int_Tables_number      15
_space_group_name_Hall           '-C 2yn'
loop_
_symmetry_equiv_pos_site_id
_symmetry_equiv_pos_as_xyz
1 x,y,z
2 -x,y,1/2-z
3 1/2+x,1/2+y,z
4 1/2-x,1/2+y,1/2-z
5 -x,-y,-z
6 x,-y,1/2+z
7 1/2-x,1/2-y,-z
8 1/2+x,1/2-y,1/2+z
_cell_length_a                   24.288(8)
_cell_length_b                   20.8952(17)
_cell_length_c                   15.376(8)
_cell_angle_alpha                90
_cell_angle_beta                 127.919(9)
_cell_angle_gamma                90
_cell_volume                     6155.92
loop_
_atom_site_label
_atom_site_type_symbol
_atom_site_fract_x
_atom_site_fract_y
_atom_site_fract_z
Hg1 Hg 0.282773(9) -0.025946(11) 0.075390(14)
Cl1 Cl 0.29997(6) -0.13495(6) 0.15015(9)
Cl2 Cl 0.22508(6) -0.02326(7) -0.12162(9)
Cl3 Cl 0.23548(5) 0.04395(7) 0.14467(8)
Cl4 Cl 0.40594(5) 0.01867(6) 0.16408(8)
Sm1 Sm 0.881122(9) 0.243862(11) 0.616671(15)
N1 N 0.96980(17) 0.04679(18) 1.0715(3)
H1 H 0.9640 0.0248 1.1126
N2 N 0.82191(16) 0.30069(17) 0.9769(2)
H2 H 0.8377 0.3118 1.0423
N3 N 1.03129(16) 0.44783(17) 0.4381(2)
H3 H 1.0354 0.4704 0.3956
C1 C 1.0396(2) 0.0962(2) 1.0396(3)
H4 H 1.0841 0.1063 1.0629
C2 C 1.0329(2) 0.0616(2) 1.1107(3)
H5 H 1.0713 0.0500 1.1814
C3 C 0.9141(2) 0.0632(3) 0.9732(4)
H6 H 0.8706 0.0506 0.9515
C4 C 0.91744(18) 0.0982(2) 0.9011(3)
H7 H 0.8777 0.1095 0.8314
C5 C 0.98407(18) 0.1155(2) 0.9387(3)
C6 C 0.99151(17) 0.1572(2) 0.8662(3)
C7 C 0.84279(19) 0.2625(2) 0.8572(3)
H8 H 0.8737 0.2464 0.8460
C8 C 0.8656(2) 0.2770(2) 0.9626(3)
H9 H 0.9118 0.2698 1.0230
C9 C 0.75572(19) 0.3083(2) 0.8971(3)
H10 H 0.7262 0.3229 0.9122
C10 C 0.72931(17) 0.2948(2) 0.7902(3)
H11 H 0.6821 0.3008 0.7327
C11 C 0.77386(16) 0.2722(2) 0.7695(2)
C12 C 0.74824(15) 0.2583(2) 0.6549(2)
C13 C 0.96503(19) 0.3806(2) 0.4646(3)
H12 H 0.9235 0.3594 0.4365
C14 C 0.9710(2) 0.4190(2) 0.3958(3)
H13 H 0.9333 0.4241 0.3217
C15 C 1.08432(18) 0.4431(2) 0.5417(3)
H14 H 1.1249 0.4652 0.5674
C16 C 1.08332(18) 0.4058(2) 0.6174(3)
H15 H 1.1217 0.4026 0.6914
C17 C 1.02115(16) 0.37468(18) 0.5734(3)
C18 C 1.01937(16) 0.33152(19) 0.6494(3)
O1 O 0.93701(11) 0.18384(13) 0.78366(19)
O2 O 1.05350(11) 0.16173(13) 0.89584(19)
O3 O 0.79089(10) 0.24898(15) 0.63620(16)
O4 O 0.68194(11) 0.26028(14) 0.57841(18)
O5 O 0.96028(12) 0.30462(13) 0.60512(19)
O6 O 1.07407(12) 0.32164(14) 0.74301(18)
O9 O 0.81743(12) 0.13931(13) 0.5530(2)
H16 H 0.7769 0.1449 0.5292
O10 O 0.82680(11) 0.35282(12) 0.53667(19)
H17 H 0.8169 0.3563 0.4754
Sm1A Sm 1.118878(9) 0.243862(11) 0.883329(15)
Sm1F Sm 0.618878(9) 0.256138(11) 0.383329(15)
O2A O 0.94650(11) 0.16173(13) 0.60416(19)
O4F O 0.81806(11) 0.23972(14) 0.42159(18)
O6A O 0.92593(12) 0.32164(14) 0.75699(18)
O7 O 0.27977(9) 0.10327(13) 0.83094(12)
H18 H 0.27348(12) 0.0851(2) 0.87141(16)
O8 O 0.42145(10) 0.47218(8) 0.1703(2)
H19 H 0.44109(19) 0.50698(10) 0.1863(15)
Hg2? Hg 0.485485(19) 0.28971(2) 0.77175(3)
Cl5? Cl 0.5000 0.17587(12) 0.7500
Cl6? Cl 0.60464(7) 0.34909(8) 0.86671(13)
Cl7? Cl 0.46536(11) 0.26322(12) 0.90417(17)
loop_
_geom_bond_atom_site_label_1
_geom_bond_atom_site_label_2
_geom_bond_site_symmetry_1
_geom_bond_site_symmetry_2
Hg1 Cl1 1_555 1_555
Sm1 O1 1_555 1_555
Cl2 Hg1 1_555 1_555
Cl3 Hg1 1_555 1_555
Cl4 Hg1 1_555 1_555
N1 H1 1_555 1_555
N2 H2 1_555 1_555
N3 H3 1_555 1_555
C1 H4 1_555 1_555
C2 N1 1_555 1_555
H5 C2 1_555 1_555
C3 N1 1_555 1_555
H6 C3 1_555 1_555
C4 C3 1_555 1_555
H7 C4 1_555 1_555
C5 C1 1_555 1_555
C6 C5 1_555 1_555
C7 H8 1_555 1_555
C8 N2 1_555 1_555
H9 C8 1_555 1_555
C9 N2 1_555 1_555
H10 C9 1_555 1_555
C10 C9 1_555 1_555
H11 C10 1_555 1_555
C11 C7 1_555 1_555
C12 C11 1_555 1_555
C13 H12 1_555 1_555
C14 N3 1_555 1_555
H13 C14 1_555 1_555
C15 N3 1_555 1_555
H14 C15 1_555 1_555
C16 C15 1_555 1_555
H15 C16 1_555 1_555
C17 C13 1_555 1_555
C18 C17 1_555 1_555
O1 C6 1_555 1_555
O2 C6 1_555 1_555
O3 Sm1 1_555 1_555
O4 C12 1_555 1_555
O5 Sm1 1_555 1_555
O6 C18 1_555 1_555
O7 H18 1_555 1_555
O8 H19 1_555 1_555
O9 Sm1 1_555 1_555
H16 O9 1_555 1_555
O10 Sm1 1_555 1_555
H17 O10 1_555 1_555
Sm1A O2 1_555 1_555
Sm1F O4 1_555 1_555
O2A Sm1 1_555 1_555
O4F Sm1 1_555 1_555
O6A Sm1 1_555 1_555
C1 C2 1_555 1_555
C4 C5 1_555 1_555
C7 C8 1_555 1_555
C10 C11 1_555 1_555
C12 O3 1_555 1_555
C13 C14 1_555 1_555
C16 C17 1_555 1_555
C18 O5 1_555 1_555
O6 Sm1A 1_555 1_555

#END
