
#######################################################################
#
#                 Cambridge Crystallographic Data Centre
#                                CCDC 
#
#######################################################################
#
# If this CIF has been generated from an entry in the Cambridge 
# Structural Database, then it will include bibliographic, chemical, 
# crystal, experimental, refinement or atomic coordinate data resulting 
# from the CCDC's data processing and validation procedures.
#
#######################################################################

data_EZIXUH
_symmetry_cell_setting           monoclinic
_symmetry_space_group_name_H-M   'P 21/c'
_symmetry_Int_Tables_number      14
_space_group_name_Hall           '-P 2ybc'
loop_
_symmetry_equiv_pos_site_id
_symmetry_equiv_pos_as_xyz
1 x,y,z
2 -x,1/2+y,1/2-z
3 -x,-y,-z
4 x,1/2-y,1/2+z
_cell_length_a                   6.7611(2)
_cell_length_b                   10.9365(2)
_cell_length_c                   24.6156(8)
_cell_angle_alpha                90
_cell_angle_beta                 93.187(3)
_cell_angle_gamma                90
_cell_volume                     1817.33
loop_
_atom_site_label
_atom_site_type_symbol
_atom_site_fract_x
_atom_site_fract_y
_atom_site_fract_z
Cd1 Cd 0.32062(5) 0.50894(3) 0.267965(15)
S1 S 0.81555(18) 0.52018(12) 0.23786(5)
O1 O 0.7570(6) 0.4170(4) 0.20254(17)
O2 O 0.2446(7) 0.7099(4) 0.2376(2)
O3 O 0.3863(7) 0.3113(4) 0.29642(18)
O4 O 0.6481(5) 0.5576(4) 0.26987(16)
O5 O 0.8766(6) 0.6256(4) 0.20500(16)
O6 O 0.9818(5) 0.4850(4) 0.27553(15)
O7 O 0.2162(7) 0.4311(4) -0.02345(17)
C1 C 0.2587(9) 0.5058(6) 0.4498(2)
H1 H 0.2204 0.4455 0.4737
O8 O 0.0934(8) 0.2487(5) -0.00179(19)
O9 O 0.2314(7) 0.5706(5) 0.55672(17)
N1 N 0.2795(7) 0.4472(4) 0.17784(18)
N2 N 0.3190(7) 0.5649(4) 0.35867(18)
C2 C 0.2253(11) 0.5960(9) 0.6146(2)
H2 H 0.1521 0.6699 0.6198
H3 H 0.3579 0.6055 0.6301
H4 H 0.1619 0.5294 0.6322
C3 C 0.3607(9) 0.7091(6) 0.4310(2)
H5 H 0.3930 0.7881 0.4423
C4 C 0.3145(9) 0.6546(6) 0.5273(2)
C5 C 0.2073(8) 0.3825(5) 0.0694(2)
C6 C 0.3094(8) 0.6222(5) 0.4685(2)
C7 C 0.3049(10) 0.4901(6) 0.0835(2)
H6 H 0.3479 0.5423 0.0567
C8 C 0.2664(9) 0.4822(5) 0.3951(2)
H7 H 0.2332 0.4040 0.3828
O10 O 0.3883(8) 0.7472(5) 0.5448(2)
C9 C 0.1640(9) 0.3458(6) 0.0112(3)
C10 C 0.1861(9) 0.3420(6) 0.1638(2)
H8 H 0.1446 0.2912 0.1913
C11 C 0.3638(9) 0.6778(6) 0.3766(3)
H9 H 0.3980 0.7370 0.3517
C12 C 0.1493(9) 0.3062(6) 0.1102(3)
H10 H 0.0867 0.2323 0.1018
C13 C 0.3371(9) 0.5184(6) 0.1379(2)
H11 H 0.4025 0.5909 0.1470
C14 C 0.1886(11) 0.4001(7) -0.0807(3)
H12 H 0.0513 0.3826 -0.0894
H13 H 0.2668 0.3294 -0.0882
H14 H 0.2295 0.4676 -0.1024
H15 H 0.131(12) 0.689(7) 0.226(3)
H16 H 0.301(13) 0.248(8) 0.292(3)
H17 H 0.475(13) 0.287(8) 0.287(3)
H18 H 0.249(16) 0.766(10) 0.254(4)
Cd1_2 Cd 1.32062(5) 0.50894(3) 0.267965(15)
O6_2 O -0.0182(5) 0.4850(4) 0.27553(15)
loop_
_geom_bond_atom_site_label_1
_geom_bond_atom_site_label_2
_geom_bond_site_symmetry_1
_geom_bond_site_symmetry_2
Cd1 O2 1_555 1_555
S1 O1 1_555 1_555
O2 H15 1_555 1_555
O3 Cd1 1_555 1_555
O4 Cd1 1_555 1_555
O5 S1 1_555 1_555
O6 S1 1_555 1_555
O7 C9 1_555 1_555
C1 H1 1_555 1_555
O8 C9 1_555 1_555
O9 C2 1_555 1_555
N1 Cd1 1_555 1_555
N2 Cd1 1_555 1_555
C2 H2 1_555 1_555
H3 C2 1_555 1_555
H4 C2 1_555 1_555
C3 H5 1_555 1_555
C4 O9 1_555 1_555
C5 C7 1_555 1_555
C6 C1 1_555 1_555
C7 H6 1_555 1_555
C8 C1 1_555 1_555
H7 C8 1_555 1_555
O10 C4 1_555 1_555
C9 C5 1_555 1_555
C10 N1 1_555 1_555
H8 C10 1_555 1_555
C11 N2 1_555 1_555
H9 C11 1_555 1_555
C12 C5 1_555 1_555
H10 C12 1_555 1_555
C13 N1 1_555 1_555
H11 C13 1_555 1_555
C14 O7 1_555 1_555
H12 C14 1_555 1_555
H13 C14 1_555 1_555
H14 C14 1_555 1_555
H16 O3 1_555 1_555
H17 O3 1_555 1_555
H18 O2 1_555 1_555
Cd1_2 O6 1_555 1_555
O6_2 Cd1 1_555 1_555
S1 O4 1_555 1_555
N2 C8 1_555 1_555
C3 C6 1_555 1_555
C3 C11 1_555 1_555
C4 C6 1_555 1_555
C7 C13 1_555 1_555
C10 C12 1_555 1_555

#END
