
#######################################################################
#
#                 Cambridge Crystallographic Data Centre
#                                CCDC 
#
#######################################################################
#
# If this CIF has been generated from an entry in the Cambridge 
# Structural Database, then it will include bibliographic, chemical, 
# crystal, experimental, refinement or atomic coordinate data resulting 
# from the CCDC's data processing and validation procedures.
#
#######################################################################

data_EZIYUH
_symmetry_cell_setting           monoclinic
_symmetry_space_group_name_H-M   'P 21/c'
_symmetry_Int_Tables_number      14
_space_group_name_Hall           '-P 2ybc'
loop_
_symmetry_equiv_pos_site_id
_symmetry_equiv_pos_as_xyz
1 x,y,z
2 x,1/2-y,1/2+z
3 -x,-y,-z
4 -x,1/2+y,1/2-z
_cell_length_a                   8.1360(10)
_cell_length_b                   13.511(2)
_cell_length_c                   16.703(3)
_cell_angle_alpha                90
_cell_angle_beta                 90.941(9)
_cell_angle_gamma                90
_cell_volume                     1835.84
loop_
_atom_site_label
_atom_site_type_symbol
_atom_site_fract_x
_atom_site_fract_y
_atom_site_fract_z
Zn1 Zn 0.46931(5) 0.04300(3) 0.84735(2)
O1 O 0.3931(3) -0.06767(18) 0.77903(14)
O2 O 0.2824(3) -0.02490(18) 0.92498(14)
O3 O 0.0095(3) -0.32541(19) 0.76684(15)
O4 O 0.3515(3) -0.36953(16) 0.69520(12)
O5 O 0.5057(3) -0.35570(16) 0.55484(13)
O6 O 0.1257(4) -0.05452(19) 0.64966(15)
O7 O 0.6512(4) -0.0559(2) 0.90119(17)
O8 O 0.3047(4) 0.1364(2) 0.78791(19)
C1 C 0.2743(4) -0.1204(2) 0.80796(18)
C2 C 0.2179(4) -0.0962(2) 0.89160(18)
C3 C 0.0910(4) -0.1573(2) 0.93070(18)
C4 C 0.0417(4) -0.1378(3) 1.0100(2)
C5 C -0.0721(5) -0.1984(3) 1.0468(2)
C6 C -0.1375(5) -0.2786(3) 1.0062(2)
C7 C -0.0896(4) -0.2987(3) 0.9268(2)
C8 C 0.0250(4) -0.2378(2) 0.88931(19)
C9 C 0.0746(4) -0.2573(2) 0.80328(19)
C10 C 0.1977(4) -0.1953(2) 0.76608(18)
C11 C 0.2474(4) -0.2072(2) 0.68107(17)
C12 C 0.3289(4) -0.2899(2) 0.65426(17)
C13 C 0.4112(4) -0.2872(2) 0.57229(18)
C14 C 0.3861(4) -0.2031(2) 0.51879(18)
C15 C 0.4569(4) -0.2016(3) 0.4423(2)
C16 C 0.4284(5) -0.1226(3) 0.3922(2)
C17 C 0.3270(6) -0.0457(3) 0.4181(2)
C18 C 0.2548(5) -0.0469(3) 0.4940(2)
C19 C 0.2854(4) -0.1253(2) 0.54502(19)
C20 C 0.2129(4) -0.1250(2) 0.62803(19)
H1 H 0.0869 -0.0819 1.0382
H2 H -0.1045 -0.1848 1.1005
H3 H -0.2150 -0.3211 1.0318
H4 H -0.1368 -0.3536 0.8981
H5 H 0.5244 -0.2556 0.4252
H6 H 0.4793 -0.1190 0.3412
H7 H 0.3053 0.0086 0.3826
H8 H 0.1830 0.0061 0.5100
H9 H 0.711(5) -0.061(3) 0.879(3)
H10 H 0.660(5) -0.055(3) 0.960(2)
H11 H 0.235(5) 0.118(3) 0.772(2)
H12 H 0.323(5) 0.189(3) 0.784(2)
O4C O 0.6485(3) 0.13047(16) 0.80480(12)
O5C O 0.4943(3) 0.14430(16) 0.94516(13)
Zn1C Zn 0.53069(5) -0.45700(3) 0.65265(2)
O9 O 0.8891(4) -0.0284(2) 0.7766(2)
H13 H 0.946(6) -0.042(3) 0.753(3)
H14 H 0.912(14) 0.043(2) 0.781(7)
O10 O 0.3403(4) 0.3330(2) 0.7937(2)
H15 H 0.417(5) 0.356(3) 0.774(2)
H16 H 0.272(5) 0.352(3) 0.783(3)
loop_
_geom_bond_atom_site_label_1
_geom_bond_atom_site_label_2
_geom_bond_site_symmetry_1
_geom_bond_site_symmetry_2
Zn1 O1 1_555 1_555
O1 C1 1_555 1_555
O2 Zn1 1_555 1_555
O3 C9 1_555 1_555
O4 C12 1_555 1_555
O5 C13 1_555 1_555
O6 C20 1_555 1_555
O7 Zn1 1_555 1_555
O8 Zn1 1_555 1_555
O9 H13 1_555 1_555
O10 H15 1_555 1_555
C1 C2 1_555 1_555
C2 O2 1_555 1_555
C3 C2 1_555 1_555
C4 C3 1_555 1_555
C5 C4 1_555 1_555
C6 C5 1_555 1_555
C7 C6 1_555 1_555
C8 C3 1_555 1_555
C9 C8 1_555 1_555
C10 C1 1_555 1_555
C11 C10 1_555 1_555
C12 C11 1_555 1_555
C13 C12 1_555 1_555
C14 C13 1_555 1_555
C15 C14 1_555 1_555
C16 C15 1_555 1_555
C17 C16 1_555 1_555
C18 C17 1_555 1_555
C19 C14 1_555 1_555
C20 C11 1_555 1_555
H1 C4 1_555 1_555
H2 C5 1_555 1_555
H3 C6 1_555 1_555
H4 C7 1_555 1_555
H5 C15 1_555 1_555
H6 C16 1_555 1_555
H7 C17 1_555 1_555
H8 C18 1_555 1_555
H9 O7 1_555 1_555
H10 O7 1_555 1_555
H11 O8 1_555 1_555
H12 O8 1_555 1_555
H14 O9 1_555 1_555
H16 O10 1_555 1_555
O4C Zn1 1_555 1_555
O5C Zn1 1_555 1_555
Zn1C O4 1_555 1_555
O5 Zn1C 1_555 1_555
C7 C8 1_555 1_555
C9 C10 1_555 1_555
C18 C19 1_555 1_555
C19 C20 1_555 1_555

#END
