
#######################################################################
#
#                 Cambridge Crystallographic Data Centre
#                                CCDC 
#
#######################################################################
#
# If this CIF has been generated from an entry in the Cambridge 
# Structural Database, then it will include bibliographic, chemical, 
# crystal, experimental, refinement or atomic coordinate data resulting 
# from the CCDC's data processing and validation procedures.
#
#######################################################################

data_EZIZOC
_symmetry_cell_setting           orthorhombic
_symmetry_space_group_name_H-M   'P 21 21 21'
_symmetry_Int_Tables_number      19
_space_group_name_Hall           'P 2ac 2ab'
loop_
_symmetry_equiv_pos_site_id
_symmetry_equiv_pos_as_xyz
1 x,y,z
2 1/2+x,1/2-y,-z
3 -x,1/2+y,1/2-z
4 1/2-x,-y,1/2+z
_cell_length_a                   9.117(8)
_cell_length_b                   12.672(3)
_cell_length_c                   23.012(5)
_cell_angle_alpha                90
_cell_angle_beta                 90
_cell_angle_gamma                90
_cell_volume                     2658.59
loop_
_atom_site_label
_atom_site_type_symbol
_atom_site_fract_x
_atom_site_fract_y
_atom_site_fract_z
Zn1 Zn -0.58744(11) -0.17131(7) -0.08721(4)
O1 O -0.7037(6) -0.3019(4) -0.0672(2)
O2 O -0.7148(6) -0.1877(4) -0.1645(2)
O3 O -1.0907(7) -0.5073(4) -0.1405(2)
O4 O -0.9971(6) -0.3555(4) 0.0097(2)
O5 O -0.9915(6) -0.4848(4) 0.1005(2)
O6 O -0.7733(6) -0.6205(4) -0.1014(2)
O7 O -0.7785(7) -0.0688(5) -0.0620(3)
O8 O -0.4113(11) -0.2320(5) -0.1303(3)
C1 C -0.7998(8) -0.3280(6) -0.1056(3)
C2 C -0.8069(9) -0.2573(6) -0.1595(3)
C3 C -0.9174(10) -0.2763(5) -0.2026(3)
C4 C -0.9346(10) -0.2080(6) -0.2503(3)
C5 C -1.0470(11) -0.2244(7) -0.2901(3)
C6 C -1.1419(11) -0.3069(7) -0.2821(3)
C7 C -1.1261(9) -0.3747(6) -0.2351(4)
C8 C -1.0156(9) -0.3601(6) -0.1964(3)
C9 C -1.0053(8) -0.4334(5) -0.1451(3)
C10 C -0.8941(9) -0.4125(5) -0.1016(3)
C11 C -0.8853(8) -0.4815(5) -0.0492(3)
C12 C -0.9398(9) -0.4479(5) 0.0019(3)
C13 C -0.9354(9) -0.5173(6) 0.0549(3)
C14 C -0.8597(8) -0.6200(5) 0.0521(3)
C15 C -0.8409(9) -0.6804(6) 0.1018(3)
C16 C -0.7626(10) -0.7729(6) 0.0981(3)
C17 C -0.7026(10) -0.8038(6) 0.0464(4)
C18 C -0.7204(10) -0.7439(6) -0.0029(4)
C19 C -0.7997(8) -0.6525(5) -0.0008(3)
C20 C -0.8185(8) -0.5863(6) -0.0551(3)
C21 C -0.8477(14) 0.0057(10) -0.0988(5)
C22 C -0.9851(13) 0.0307(9) -0.0762(6)
C23 C -0.9794(10) 0.0046(8) -0.0118(5)
C24 C -0.8574(11) -0.0733(7) -0.0079(4)
H1 H -0.8681 -0.1508 -0.2543
H2 H -1.0613 -0.1767 -0.3203
H3 H -1.2145 -0.3188 -0.3101
H4 H -1.1996 -0.4260 -0.2269
H5 H -0.8825 -0.6566 0.1370
H6 H -0.7519 -0.8167 0.1314
H7 H -0.6470 -0.8657 0.0434
H8 H -0.6865 -0.7676 -0.0399
H9 H -0.8496 -0.0224 -0.1390
H10 H -0.7939 0.0665 -0.0982
H11 H -1.0510 -0.0183 -0.0941
H12 H -1.0169 0.0998 -0.0827
H13 H -1.0677 -0.0248 0.0033
H14 H -0.9547 0.0663 0.0075
H15 H -0.8953 -0.1421 -0.0018
H16 H -0.7937 -0.0541 0.0222
H17 H -0.401(14) -0.273(7) -0.142(4)
H18 H -0.345(9) -0.220(5) -0.098(3)
O4A O -0.4971(6) -0.1445(4) -0.0097(2)
O5A O -0.4915(6) -0.0152(4) -0.1005(2)
Zn1A Zn -1.08744(11) -0.32869(7) 0.08721(4)
O9 O -0.4903(8) -0.4054(5) -0.1910(3)
C25 C -0.5543(13) -0.4201(9) -0.2470(4)
C26 C -0.6218(15) -0.5252(12) -0.2480(5)
C27 C -0.5246(16) -0.5858(8) -0.2061(6)
C28 C -0.4797(12) -0.5061(9) -0.1632(4)
H19 H -0.4831 -0.4163 -0.2755
H20 H -0.6290 -0.3694 -0.2523
H21 H -0.6242 -0.5588 -0.2849
H22 H -0.7183 -0.5245 -0.2320
H23 H -0.4403 -0.6088 -0.2277
H24 H -0.5724 -0.6440 -0.1900
H25 H -0.3840 -0.5160 -0.1484
H26 H -0.5475 -0.5068 -0.1305
O10 O -1.1751(7) -0.2206(5) -0.0598(3)
H27 H -1.216(6) -0.207(4) -0.025(2)
H28 H -1.115(10) -0.260(7) -0.065(4)
loop_
_geom_bond_atom_site_label_1
_geom_bond_atom_site_label_2
_geom_bond_site_symmetry_1
_geom_bond_site_symmetry_2
Zn1 O1 1_555 1_555
O1 C1 1_555 1_555
O2 Zn1 1_555 1_555
O3 C9 1_555 1_555
O4 C12 1_555 1_555
O5 C13 1_555 1_555
O6 C20 1_555 1_555
O7 Zn1 1_555 1_555
O8 Zn1 1_555 1_555
O9 C25 1_555 1_555
O10 H27 1_555 1_555
C1 C2 1_555 1_555
C2 O2 1_555 1_555
C3 C2 1_555 1_555
C4 C3 1_555 1_555
C5 C4 1_555 1_555
C6 C5 1_555 1_555
C7 C6 1_555 1_555
C8 C3 1_555 1_555
C9 C8 1_555 1_555
C10 C1 1_555 1_555
C11 C10 1_555 1_555
C12 C11 1_555 1_555
C13 C12 1_555 1_555
C14 C13 1_555 1_555
C15 C14 1_555 1_555
C16 C15 1_555 1_555
C17 C16 1_555 1_555
C18 C17 1_555 1_555
C19 C14 1_555 1_555
C20 C11 1_555 1_555
C21 O7 1_555 1_555
C22 C21 1_555 1_555
C23 C22 1_555 1_555
C24 O7 1_555 1_555
C25 C26 1_555 1_555
C26 C27 1_555 1_555
C27 C28 1_555 1_555
C28 O9 1_555 1_555
H1 C4 1_555 1_555
H2 C5 1_555 1_555
H3 C6 1_555 1_555
H4 C7 1_555 1_555
H5 C15 1_555 1_555
H6 C16 1_555 1_555
H7 C17 1_555 1_555
H8 C18 1_555 1_555
H9 C21 1_555 1_555
H10 C21 1_555 1_555
H11 C22 1_555 1_555
H12 C22 1_555 1_555
H13 C23 1_555 1_555
H14 C23 1_555 1_555
H15 C24 1_555 1_555
H16 C24 1_555 1_555
H17 O8 1_555 1_555
H18 O8 1_555 1_555
H19 C25 1_555 1_555
H20 C25 1_555 1_555
H21 C26 1_555 1_555
H22 C26 1_555 1_555
H23 C27 1_555 1_555
H24 C27 1_555 1_555
H25 C28 1_555 1_555
H26 C28 1_555 1_555
H28 O10 1_555 1_555
O4A Zn1 1_555 1_555
O5A Zn1 1_555 1_555
Zn1A O4 1_555 1_555
O5 Zn1A 1_555 1_555
C7 C8 1_555 1_555
C9 C10 1_555 1_555
C18 C19 1_555 1_555
C19 C20 1_555 1_555
C23 C24 1_555 1_555

#END
