
#######################################################################
#
#                 Cambridge Crystallographic Data Centre
#                                CCDC 
#
#######################################################################
#
# If this CIF has been generated from an entry in the Cambridge 
# Structural Database, then it will include bibliographic, chemical, 
# crystal, experimental, refinement or atomic coordinate data resulting 
# from the CCDC's data processing and validation procedures.
#
#######################################################################

data_EZIZIW
_symmetry_cell_setting           monoclinic
_symmetry_space_group_name_H-M   'P 21/n'
_symmetry_Int_Tables_number      14
_space_group_name_Hall           '-P 2yn'
loop_
_symmetry_equiv_pos_site_id
_symmetry_equiv_pos_as_xyz
1 x,y,z
2 1/2+x,1/2-y,1/2+z
3 -x,-y,-z
4 1/2-x,1/2+y,1/2-z
_cell_length_a                   24.363(3)
_cell_length_b                   8.0217(14)
_cell_length_c                   13.7451(18)
_cell_angle_alpha                90
_cell_angle_beta                 100.075(11)
_cell_angle_gamma                90
_cell_volume                     2644.82
loop_
_atom_site_label
_atom_site_type_symbol
_atom_site_fract_x
_atom_site_fract_y
_atom_site_fract_z
Zn1 Zn 0.169139(18) 0.89498(6) 0.31175(3)
O1 O 0.24224(10) 0.7834(3) 0.36436(17)
O2 O 0.15386(10) 0.7917(3) 0.45209(18)
O3 O 0.33711(12) 0.4882(4) 0.6385(2)
O4 O 0.31128(10) 0.4955(3) 0.31286(17)
O5 O 0.40768(11) 0.5124(4) 0.25190(19)
O6 O 0.38983(12) 0.8091(4) 0.5915(2)
O7 O 0.19105(13) 1.1221(4) 0.3924(2)
O8 O 0.13155(13) 0.6795(4) 0.2447(2)
C1 C 0.24663(14) 0.7108(4) 0.4485(2)
C2 C 0.19467(14) 0.7158(4) 0.4949(2)
C3 C 0.19473(15) 0.6317(5) 0.5905(2)
C4 C 0.14642(17) 0.6290(5) 0.6320(3)
C5 C 0.14693(19) 0.5487(6) 0.7217(3)
C6 C 0.1944(2) 0.4704(7) 0.7671(3)
C7 C 0.24270(18) 0.4716(5) 0.7269(3)
C8 C 0.24259(16) 0.5533(5) 0.6373(3)
C9 C 0.29568(15) 0.5566(5) 0.5941(3)
C10 C 0.29464(14) 0.6400(4) 0.4987(2)
C11 C 0.34732(14) 0.6445(4) 0.4588(2)
C12 C 0.39430(15) 0.7304(5) 0.5164(3)
C13 C 0.44988(15) 0.7255(5) 0.4832(3)
C14 C 0.49605(16) 0.7973(5) 0.5405(3)
C15 C 0.54730(17) 0.7888(5) 0.5109(3)
C16 C 0.55291(16) 0.7094(6) 0.4239(3)
C17 C 0.50710(16) 0.6405(5) 0.3658(3)
C18 C 0.45502(15) 0.6488(4) 0.3940(3)
C19 C 0.40601(15) 0.5742(4) 0.3330(3)
C20 C 0.35083(14) 0.5702(4) 0.3699(2)
C21 C 0.2278(2) 1.1518(7) 0.4826(3)
C22 C 0.2881(2) 1.1521(7) 0.4731(4)
H1 H 0.1860(18) 1.207(6) 0.355(3)
H2 H 0.102(2) 0.672(7) 0.254(4)
H3 H 0.151(2) 0.595(7) 0.249(4)
H8 H 0.1117 0.6760 0.6031
H9 H 0.1117 0.5295 0.7632
H10 H 0.1974 0.4294 0.8237
H11 H 0.2756 0.4061 0.7556
H12 H 0.4919 0.8552 0.6005
H13 H 0.5796 0.8367 0.5521
H14 H 0.5884 0.7042 0.4025
H15 H 0.5103 0.5838 0.3055
H16 H 0.2343 1.0805 0.5439
H17 H 0.2226 1.2489 0.5238
H18 H 0.2980 1.0438 0.4511
H19 H 0.3105 1.1756 0.5363
H20 H 0.2946 1.2347 0.4262
O4C O 0.18872(10) 0.9955(3) 0.18714(17)
O5C O 0.09232(11) 1.0124(4) 0.24810(19)
Zn1C Zn 0.330861(18) 0.39498(6) 0.18825(3)
O9 O 0.29940(12) 0.9019(4) 0.2233(2)
H4 H 0.297(2) 0.862(7) 0.271(4)
H5 H 0.270(2) 0.944(7) 0.205(4)
O10 O 0.0330(2) 0.6243(7) 0.3008(4)
C23 C 0.0211(4) 0.4950(17) 0.3550(10)
C24 C 0.0612(5) 0.3804(13) 0.3815(9)
H6 H -0.001(3) 0.695(9) 0.287(5)
H21 H -0.0113 0.4320 0.3177
H22 H 0.0092 0.5301 0.4145
H23 H 0.0450 0.2745 0.3914
H24 H 0.0832 0.3705 0.3298
H25 H 0.0849 0.4154 0.4412
O11 O -0.05685(19) 0.8260(7) 0.2773(3)
C25 C -0.0793(5) 0.9273(14) 0.3466(6)
C26 C -0.1127(8) 0.882(2) 0.3957(14)
H7 H -0.077(3) 0.775(9) 0.250(5)
C27? C -0.0467(8) 0.969(2) 0.4263(14)
loop_
_geom_bond_atom_site_label_1
_geom_bond_atom_site_label_2
_geom_bond_site_symmetry_1
_geom_bond_site_symmetry_2
Zn1 O1 1_555 1_555
O1 C1 1_555 1_555
O2 Zn1 1_555 1_555
O3 C9 1_555 1_555
O4 C20 1_555 1_555
O5 C19 1_555 1_555
O6 C12 1_555 1_555
O7 Zn1 1_555 1_555
O8 Zn1 1_555 1_555
O9 H4 1_555 1_555
O10 C23 1_555 1_555
O11 C25 1_555 1_555
C1 C2 1_555 1_555
C2 O2 1_555 1_555
C3 C2 1_555 1_555
C4 C3 1_555 1_555
C5 C4 1_555 1_555
C6 C5 1_555 1_555
C7 C6 1_555 1_555
C8 C3 1_555 1_555
C9 C8 1_555 1_555
C10 C1 1_555 1_555
C11 C10 1_555 1_555
C12 C11 1_555 1_555
C13 C12 1_555 1_555
C14 C13 1_555 1_555
C15 C14 1_555 1_555
C16 C15 1_555 1_555
C17 C16 1_555 1_555
C18 C13 1_555 1_555
C19 C18 1_555 1_555
C20 C11 1_555 1_555
C21 O7 1_555 1_555
C22 C21 1_555 1_555
C23 C24 1_555 1_555
C24 H23 1_555 1_555
C25 C26 1_555 1_555
H1 O7 1_555 1_555
H2 O8 1_555 1_555
H3 O8 1_555 1_555
H5 O9 1_555 1_555
H6 O10 1_555 1_555
H7 O11 1_555 1_555
H8 C4 1_555 1_555
H9 C5 1_555 1_555
H10 C6 1_555 1_555
H11 C7 1_555 1_555
H12 C14 1_555 1_555
H13 C15 1_555 1_555
H14 C16 1_555 1_555
H15 C17 1_555 1_555
H16 C21 1_555 1_555
H17 C21 1_555 1_555
H18 C22 1_555 1_555
H19 C22 1_555 1_555
H20 C22 1_555 1_555
H21 C23 1_555 1_555
H22 C23 1_555 1_555
H24 C24 1_555 1_555
H25 C24 1_555 1_555
O4C Zn1 1_555 1_555
O5C Zn1 1_555 1_555
Zn1C O4 1_555 1_555
O5 Zn1C 1_555 1_555
C7 C8 1_555 1_555
C9 C10 1_555 1_555
C17 C18 1_555 1_555
C19 C20 1_555 1_555

#END
