
#######################################################################
#
#                 Cambridge Crystallographic Data Centre
#                                CCDC 
#
#######################################################################
#
# If this CIF has been generated from an entry in the Cambridge 
# Structural Database, then it will include bibliographic, chemical, 
# crystal, experimental, refinement or atomic coordinate data resulting 
# from the CCDC's data processing and validation procedures.
#
#######################################################################

data_EZOBIF01
_symmetry_cell_setting           monoclinic
_symmetry_space_group_name_H-M   'P 21/n'
_symmetry_Int_Tables_number      14
_space_group_name_Hall           '-P 2yn'
loop_
_symmetry_equiv_pos_site_id
_symmetry_equiv_pos_as_xyz
1 x,y,z
2 1/2-x,1/2+y,1/2-z
3 -x,-y,-z
4 1/2+x,1/2-y,1/2+z
_cell_length_a                   15.1227(2)
_cell_length_b                   12.0542(1)
_cell_length_c                   20.8771(3)
_cell_angle_alpha                90
_cell_angle_beta                 93.1804(5)
_cell_angle_gamma                90
_cell_volume                     3799.87
loop_
_atom_site_label
_atom_site_type_symbol
_atom_site_fract_x
_atom_site_fract_y
_atom_site_fract_z
Cu1 Cu 0.11360(3) -0.51113(4) 0.29060(2)
Cu2 Cu 0.5000 0.0000 0.5000
O1 O 0.24464(18) -0.4149(3) 0.29376(13)
O2 O 0.10629(19) -0.4681(3) 0.38075(13)
O3 O 0.18864(19) -0.6386(3) 0.32053(14)
O4 O 0.0007(2) -0.6318(3) 0.29539(17)
O5 O 0.5328(2) 0.1320(3) 0.45320(13)
O6 O 0.4115(2) 0.0796(3) 0.54593(14)
O7 O 0.04515(16) -0.3819(2) 0.25884(11)
N1 N 0.3578(2) -0.0473(3) 0.30113(14)
N2 N -0.0090(2) -0.3302(3) 0.29415(15)
N3 N 0.3912(2) -0.0552(3) 0.41302(15)
C1 C 0.3879(3) -0.3961(5) 0.3379(3)
C2 C 0.2881(3) -0.4136(3) 0.3451(2)
C3 C 0.2587(3) -0.4267(4) 0.4072(2)
H1 H 0.2995 -0.4179 0.4419
C4 C 0.1724(3) -0.4520(4) 0.41949(19)
C5 C 0.1494(4) -0.4673(6) 0.4892(3)
C6 C 0.2429(4) -0.7749(5) 0.3886(3)
C7 C 0.1646(3) -0.7205(4) 0.3525(2)
C8 C 0.0821(4) -0.7634(4) 0.3580(2)
H2 H 0.0760 -0.8266 0.3829
C9 C 0.0062(4) -0.7170(5) 0.3279(2)
C10 C -0.0793(5) -0.7796(8) 0.3339(4)
C11 C 0.5586(6) 0.3174(5) 0.4296(3)
C12 C 0.5106(3) 0.2285(4) 0.4677(2)
C13 C 0.4521(4) 0.2595(4) 0.5127(2)
H3 H 0.4432 0.3346 0.5200
C14 C 0.4065(3) 0.1841(5) 0.5472(2)
C15 C 0.3412(5) 0.2252(7) 0.5943(3)
C16 C 0.2764(3) -0.0852(3) 0.31063(18)
H4 H 0.2371 -0.0948 0.2752
C17 C 0.4119(3) -0.0331(3) 0.35335(17)
H5 H 0.4683 -0.0056 0.3474
C18 C 0.3105(3) -0.0944(4) 0.42097(19)
H6 H 0.2952 -0.1119 0.4623
C19 C 0.2480(2) -0.1105(3) 0.37076(17)
C20 C 0.1564(3) -0.1494(3) 0.37875(18)
C21 C 0.1145(2) -0.2178(3) 0.33331(18)
H7 H 0.1443 -0.2397 0.2976
C22 C 0.0283(3) -0.2544(4) 0.34035(19)
C23 C -0.0171(3) -0.2201(5) 0.3932(2)
H8 H -0.0752 -0.2427 0.3979
C24 C 0.0249(3) -0.1526(5) 0.4383(2)
H9 H -0.0050 -0.1305 0.4739
C25 C 0.1108(3) -0.1167(4) 0.4319(2)
H10 H 0.1381 -0.0709 0.4629
C26 C -0.1077(3) -0.3494(5) 0.2803(2)
C27 C -0.1184(3) -0.4156(6) 0.2172(2)
H11 H -0.0902 -0.4865 0.2228
H12 H -0.0914 -0.3755 0.1837
H13 H -0.1802 -0.4259 0.2059
C28 C -0.1527(3) -0.2372(6) 0.2721(3)
H14 H -0.1273 -0.1974 0.2378
H15 H -0.1444 -0.1956 0.3112
H16 H -0.2149 -0.2478 0.2621
C29 C -0.1437(3) -0.4199(5) 0.3346(3)
H17 H -0.1127 -0.4894 0.3373
H18 H -0.2057 -0.4333 0.3258
H19 H -0.1350 -0.3810 0.3746
F1 F 0.4189(3) -0.4672(5) 0.2986(3)
F2 F 0.4365(2) -0.4115(7) 0.3890(2)
F3 F 0.4050(3) -0.3014(4) 0.3152(4)
F4 F 0.2142(3) -0.4555(6) 0.53050(16)
F5 F 0.0826(4) -0.4059(5) 0.50381(19)
F6 F 0.1198(4) -0.5685(4) 0.49895(18)
F7 F 0.3033(3) -0.8085(5) 0.3507(2)
F8 F 0.2223(3) -0.8630(4) 0.4233(2)
F9 F 0.2807(3) -0.7064(4) 0.4293(2)
F10 F -0.1023(5) -0.8366(7) 0.2863(4)
F11 F -0.0863(4) -0.8346(7) 0.3848(3)
F12 F -0.1488(4) -0.7165(6) 0.3350(4)
F13 F 0.5208(4) 0.3195(4) 0.37062(17)
F14 F 0.6418(3) 0.2938(4) 0.4240(3)
F15 F 0.5539(4) 0.4164(3) 0.4543(2)
F16 F 0.3629(4) 0.1963(6) 0.65152(19)
F17 F 0.2628(3) 0.1923(6) 0.5796(3)
F18 F 0.3358(4) 0.3345(5) 0.5960(3)
Cu1B Cu 0.88640(3) 0.51113(4) 0.70940(2)
Cu1A Cu 0.38640(3) -0.01113(4) 0.20940(2)
Cu1C Cu 0.61360(3) 0.01113(4) 0.79060(2)
O1B O 0.75536(18) 0.4149(3) 0.70624(13)
O2B O 0.89371(19) 0.4681(3) 0.61925(13)
O3B O 0.81136(19) 0.6386(3) 0.67947(14)
O4B O 0.9993(2) 0.6318(3) 0.70461(17)
O5B O 0.4672(2) -0.1320(3) 0.54680(13)
O6B O 0.5885(2) -0.0796(3) 0.45407(14)
O7B O 0.95485(16) 0.3819(2) 0.74116(11)
N1B N 0.6422(2) 0.0473(3) 0.69887(14)
N1A N 0.1422(2) -0.5473(3) 0.19887(14)
N1C N 0.8578(2) 0.5473(3) 0.80113(14)
N2B N 1.0090(2) 0.3302(3) 0.70585(15)
N3B N 0.6088(2) 0.0552(3) 0.58698(15)
C1B C 0.6121(3) 0.3961(5) 0.6621(3)
C2B C 0.7119(3) 0.4136(3) 0.6549(2)
C3B C 0.7413(3) 0.4267(4) 0.5928(2)
H1B H 0.7005 0.4179 0.5581
C4B C 0.8276(3) 0.4520(4) 0.58051(19)
C5B C 0.8506(4) 0.4673(6) 0.5108(3)
C6B C 0.7571(4) 0.7749(5) 0.6114(3)
C7B C 0.8354(3) 0.7205(4) 0.6475(2)
C8B C 0.9179(4) 0.7634(4) 0.6420(2)
H2B H 0.9240 0.8266 0.6171
C9B C 0.9938(4) 0.7170(5) 0.6721(2)
C10B C 1.0793(5) 0.7796(8) 0.6661(4)
C11B C 0.4414(6) -0.3174(5) 0.5704(3)
C12B C 0.4894(3) -0.2285(4) 0.5323(2)
C13B C 0.5479(4) -0.2595(4) 0.4873(2)
H3B H 0.5568 -0.3346 0.4800
C14B C 0.5935(3) -0.1841(5) 0.4528(2)
C15B C 0.6588(5) -0.2252(7) 0.4057(3)
C16B C 0.7236(3) 0.0852(3) 0.68937(18)
H4B H 0.7629 0.0948 0.7248
C17B C 0.5881(3) 0.0331(3) 0.64665(17)
H5B H 0.5317 0.0056 0.6526
C18B C 0.6895(3) 0.0944(4) 0.57903(19)
H6B H 0.7048 0.1119 0.5377
C19B C 0.7520(2) 0.1105(3) 0.62924(17)
C20B C 0.8436(3) 0.1494(3) 0.62125(18)
C21B C 0.8855(2) 0.2178(3) 0.66669(18)
H7B H 0.8557 0.2397 0.7024
C22B C 0.9717(3) 0.2544(4) 0.65965(19)
C23B C 1.0171(3) 0.2201(5) 0.6068(2)
H8B H 1.0752 0.2427 0.6021
C24B C 0.9751(3) 0.1526(5) 0.5617(2)
H9B H 1.0050 0.1305 0.5261
C25B C 0.8892(3) 0.1167(4) 0.5681(2)
H10B H 0.8619 0.0709 0.5371
C26B C 1.1077(3) 0.3494(5) 0.7197(2)
C27B C 1.1184(3) 0.4156(6) 0.7828(2)
H11B H 1.0902 0.4865 0.7772
H12B H 1.0914 0.3755 0.8163
H13B H 1.1802 0.4259 0.7941
C28B C 1.1527(3) 0.2372(6) 0.7279(3)
H14B H 1.1273 0.1974 0.7622
H15B H 1.1444 0.1956 0.6888
H16B H 1.2149 0.2478 0.7379
C29B C 1.1437(3) 0.4199(5) 0.6654(3)
H17B H 1.1127 0.4894 0.6627
H18B H 1.2057 0.4333 0.6742
H19B H 1.1350 0.3810 0.6254
F1B F 0.5811(3) 0.4672(5) 0.7014(3)
F2B F 0.5635(2) 0.4115(7) 0.6110(2)
F3B F 0.5950(3) 0.3014(4) 0.6848(4)
F4B F 0.7858(3) 0.4555(6) 0.46950(16)
F5B F 0.9174(4) 0.4059(5) 0.49619(19)
F6B F 0.8802(4) 0.5685(4) 0.50105(18)
F7B F 0.6967(3) 0.8085(5) 0.6493(2)
F8B F 0.7777(3) 0.8630(4) 0.5767(2)
F9B F 0.7193(3) 0.7064(4) 0.5707(2)
F10B F 1.1023(5) 0.8366(7) 0.7137(4)
F11B F 1.0863(4) 0.8346(7) 0.6152(3)
F12B F 1.1488(4) 0.7165(6) 0.6650(4)
F13B F 0.4792(4) -0.3195(4) 0.62938(17)
F14B F 0.3582(3) -0.2938(4) 0.5760(3)
F15B F 0.4461(4) -0.4164(3) 0.5457(2)
F16B F 0.6371(4) -0.1963(6) 0.34848(19)
F17B F 0.7372(3) -0.1923(6) 0.4204(3)
F18B F 0.6642(4) -0.3345(5) 0.4040(3)
loop_
_geom_bond_atom_site_label_1
_geom_bond_atom_site_label_2
_geom_bond_site_symmetry_1
_geom_bond_site_symmetry_2
Cu1 O1 1_555 1_555
Cu2 O5 1_555 1_555
O1 C2 1_555 1_555
O2 Cu1 1_555 1_555
O3 Cu1 1_555 1_555
O4 Cu1 1_555 1_555
O5 C12 1_555 1_555
O6 Cu2 1_555 1_555
O7 Cu1 1_555 1_555
N1 C16 1_555 1_555
N2 O7 1_555 1_555
N3 Cu2 1_555 1_555
C1 C2 1_555 1_555
C2 C3 1_555 1_555
C3 H1 1_555 1_555
C4 O2 1_555 1_555
C5 C4 1_555 1_555
C6 C7 1_555 1_555
C7 O3 1_555 1_555
C8 C7 1_555 1_555
H2 C8 1_555 1_555
C9 O4 1_555 1_555
C10 C9 1_555 1_555
C11 C12 1_555 1_555
C12 C13 1_555 1_555
C13 H3 1_555 1_555
C14 O6 1_555 1_555
C15 C14 1_555 1_555
C16 H4 1_555 1_555
C17 N1 1_555 1_555
H5 C17 1_555 1_555
C18 N3 1_555 1_555
H6 C18 1_555 1_555
C19 C16 1_555 1_555
C20 C19 1_555 1_555
C21 C20 1_555 1_555
H7 C21 1_555 1_555
C22 N2 1_555 1_555
C23 C22 1_555 1_555
H8 C23 1_555 1_555
C24 C23 1_555 1_555
H9 C24 1_555 1_555
C25 C20 1_555 1_555
H10 C25 1_555 1_555
C26 N2 1_555 1_555
C27 C26 1_555 1_555
H11 C27 1_555 1_555
H12 C27 1_555 1_555
H13 C27 1_555 1_555
C28 C26 1_555 1_555
H14 C28 1_555 1_555
H15 C28 1_555 1_555
H16 C28 1_555 1_555
C29 C26 1_555 1_555
H17 C29 1_555 1_555
H18 C29 1_555 1_555
H19 C29 1_555 1_555
F1 C1 1_555 1_555
F2 C1 1_555 1_555
F3 C1 1_555 1_555
F4 C5 1_555 1_555
F5 C5 1_555 1_555
F6 C5 1_555 1_555
F7 C6 1_555 1_555
F8 C6 1_555 1_555
F9 C6 1_555 1_555
F10 C10 1_555 1_555
F11 C10 1_555 1_555
F12 C10 1_555 1_555
F13 C11 1_555 1_555
F14 C11 1_555 1_555
F15 C11 1_555 1_555
F16 C15 1_555 1_555
F17 C15 1_555 1_555
F18 C15 1_555 1_555
Cu1B O1B 1_555 1_555
Cu1A N1 1_555 1_555
Cu1C N1B 1_555 1_555
O1B C2B 1_555 1_555
O2B Cu1B 1_555 1_555
O3B Cu1B 1_555 1_555
O4B Cu1B 1_555 1_555
O5B Cu2 1_555 1_555
O6B Cu2 1_555 1_555
O7B Cu1B 1_555 1_555
N1B C16B 1_555 1_555
N1A Cu1 1_555 1_555
N1C Cu1B 1_555 1_555
N2B O7B 1_555 1_555
N3B Cu2 1_555 1_555
C1B C2B 1_555 1_555
C2B C3B 1_555 1_555
C3B H1B 1_555 1_555
C4B O2B 1_555 1_555
C5B C4B 1_555 1_555
C6B C7B 1_555 1_555
C7B O3B 1_555 1_555
C8B C7B 1_555 1_555
H2B C8B 1_555 1_555
C9B O4B 1_555 1_555
C10B C9B 1_555 1_555
C11B C12B 1_555 1_555
C12B O5B 1_555 1_555
C13B C12B 1_555 1_555
H3B C13B 1_555 1_555
C14B O6B 1_555 1_555
C15B C14B 1_555 1_555
C16B H4B 1_555 1_555
C17B N1B 1_555 1_555
H5B C17B 1_555 1_555
C18B N3B 1_555 1_555
H6B C18B 1_555 1_555
C19B C16B 1_555 1_555
C20B C19B 1_555 1_555
C21B C20B 1_555 1_555
H7B C21B 1_555 1_555
C22B N2B 1_555 1_555
C23B C22B 1_555 1_555
H8B C23B 1_555 1_555
C24B C23B 1_555 1_555
H9B C24B 1_555 1_555
C25B C20B 1_555 1_555
H10B C25B 1_555 1_555
C26B N2B 1_555 1_555
C27B C26B 1_555 1_555
H11B C27B 1_555 1_555
H12B C27B 1_555 1_555
H13B C27B 1_555 1_555
C28B C26B 1_555 1_555
H14B C28B 1_555 1_555
H15B C28B 1_555 1_555
H16B C28B 1_555 1_555
C29B C26B 1_555 1_555
H17B C29B 1_555 1_555
H18B C29B 1_555 1_555
H19B C29B 1_555 1_555
F1B C1B 1_555 1_555
F2B C1B 1_555 1_555
F3B C1B 1_555 1_555
F4B C5B 1_555 1_555
F5B C5B 1_555 1_555
F6B C5B 1_555 1_555
F7B C6B 1_555 1_555
F8B C6B 1_555 1_555
F9B C6B 1_555 1_555
F10B C10B 1_555 1_555
F11B C10B 1_555 1_555
F12B C10B 1_555 1_555
F13B C11B 1_555 1_555
F14B C11B 1_555 1_555
F15B C11B 1_555 1_555
F16B C15B 1_555 1_555
F17B C15B 1_555 1_555
F18B C15B 1_555 1_555
N3 C17 1_555 1_555
C3 C4 1_555 1_555
C8 C9 1_555 1_555
C13 C14 1_555 1_555
C18 C19 1_555 1_555
C21 C22 1_555 1_555
C24 C25 1_555 1_555
N3B C17B 1_555 1_555
C3B C4B 1_555 1_555
C8B C9B 1_555 1_555
C13B C14B 1_555 1_555
C18B C19B 1_555 1_555
C21B C22B 1_555 1_555
C24B C25B 1_555 1_555

#END
