
#######################################################################
#
#                 Cambridge Crystallographic Data Centre
#                                CCDC 
#
#######################################################################
#
# If this CIF has been generated from an entry in the Cambridge 
# Structural Database, then it will include bibliographic, chemical, 
# crystal, experimental, refinement or atomic coordinate data resulting 
# from the CCDC's data processing and validation procedures.
#
#######################################################################

data_EZOBIE
_symmetry_cell_setting           orthorhombic
_symmetry_space_group_name_H-M   'P 21 21 21'
_symmetry_Int_Tables_number      19
_space_group_name_Hall           'P 2ac 2ab'
loop_
_symmetry_equiv_pos_site_id
_symmetry_equiv_pos_as_xyz
1 x,y,z
2 1/2+x,1/2-y,-z
3 -x,1/2+y,1/2-z
4 1/2-x,-y,1/2+z
_cell_length_a                   7.946(3)
_cell_length_b                   13.625(4)
_cell_length_c                   22.132(6)
_cell_angle_alpha                90
_cell_angle_beta                 90
_cell_angle_gamma                90
_cell_volume                     2396.1
loop_
_atom_site_label
_atom_site_type_symbol
_atom_site_fract_x
_atom_site_fract_y
_atom_site_fract_z
Co1 Co 0.69072(6) 0.34119(4) 0.41263(2)
O1 O 0.5773(3) 0.36848(17) 0.49334(11)
O2 O 0.5752(3) 0.48121(19) 0.39831(11)
O3 O 0.2681(4) 0.6098(2) 0.59704(13)
O4 O 0.2944(4) 0.29161(17) 0.56705(10)
O5 O 0.3151(4) 0.19572(18) 0.66975(11)
O6 O 0.5994(4) 0.5503(2) 0.65568(13)
O7 O 0.4760(4) 0.2804(3) 0.37653(14)
O8 O 0.9115(4) 0.4143(2) 0.43656(13)
C1 C 0.4999(5) 0.4508(3) 0.49878(16)
C2 C 0.5000(5) 0.5134(3) 0.44261(17)
C3 C 0.4144(5) 0.6094(3) 0.44285(18)
C4 C 0.4142(6) 0.6676(3) 0.39086(17)
C5 C 0.3343(6) 0.7576(3) 0.3924(2)
C6 C 0.2550(6) 0.7884(3) 0.4440(2)
C7 C 0.2564(5) 0.7318(3) 0.4960(2)
C8 C 0.3390(5) 0.6411(3) 0.49562(18)
C9 C 0.3416(5) 0.5795(3) 0.55259(18)
C10 C 0.4304(5) 0.4864(3) 0.55131(17)
C11 C 0.4411(5) 0.4283(3) 0.60798(16)
C12 C 0.3720(4) 0.3347(3) 0.61068(15)
C13 C 0.3838(5) 0.2776(3) 0.66834(16)
C14 C 0.4677(5) 0.3181(3) 0.72108(15)
C15 C 0.4775(6) 0.2664(3) 0.77477(18)
C16 C 0.5587(7) 0.3066(3) 0.82420(18)
C17 C 0.6272(7) 0.3990(4) 0.8203(2)
C18 C 0.6177(6) 0.4531(3) 0.76718(19)
C19 C 0.5392(5) 0.4127(3) 0.71757(17)
C20 C 0.5291(5) 0.4700(3) 0.65948(17)
C21 C 0.9374(6) 0.4941(3) 0.4781(2)
C22 C 0.9427(6) 0.4630(4) 0.5432(2)
H1 H 0.4683 0.6452 0.3548
H2 H 0.3342 0.7982 0.3577
H3 H 0.1976 0.8493 0.4441
H4 H 0.2013 0.7540 0.5314
H5 H 0.4286 0.2046 0.7777
H6 H 0.5667 0.2712 0.8606
H7 H 0.6841 0.4259 0.8542
H8 H 0.6649 0.5164 0.7655
H9 H 1.0401 0.5259 0.4681
H10 H 0.8468 0.5399 0.4727
H11 H 0.8408 0.4298 0.5531
H12 H 1.0351 0.4204 0.5493
H13 H 0.9540 0.5193 0.5682
H14 H 0.475(7) 0.231(4) 0.345(2)
H15 H 0.384(7) 0.281(4) 0.394(2)
H16 H 1.003(6) 0.380(3) 0.4376(19)
O4A O 0.7944(4) 0.20839(17) 0.43295(10)
O5A O 0.8151(4) 0.30428(18) 0.33025(11)
Co1A Co 0.19072(6) 0.15881(4) 0.58737(2)
O9 O 0.6919(4) 0.2040(2) 0.55134(12)
H17 H 0.723(9) 0.173(5) 0.524(3)
H18 H 0.653(6) 0.256(3) 0.5459(19)
O10 O 0.4873(9) 0.1457(6) 0.2900(3)
O11 O 0.5788(14) -0.0362(6) 0.3041(3)
C23 C 0.5857(17) -0.1013(12) 0.2570(5)
C24 C 0.7311(18) -0.0713(9) 0.2186(6)
loop_
_geom_bond_atom_site_label_1
_geom_bond_atom_site_label_2
_geom_bond_site_symmetry_1
_geom_bond_site_symmetry_2
Co1 O1 1_555 1_555
O1 C1 1_555 1_555
O2 Co1 1_555 1_555
O3 C9 1_555 1_555
O4 C12 1_555 1_555
O5 C13 1_555 1_555
O6 C20 1_555 1_555
O7 Co1 1_555 1_555
O8 Co1 1_555 1_555
O9 H17 1_555 1_555
O11 C23 1_555 1_555
C1 C2 1_555 1_555
C2 O2 1_555 1_555
C3 C2 1_555 1_555
C4 C3 1_555 1_555
C5 C4 1_555 1_555
C6 C5 1_555 1_555
C7 C6 1_555 1_555
C8 C3 1_555 1_555
C9 C8 1_555 1_555
C10 C1 1_555 1_555
C11 C10 1_555 1_555
C12 C11 1_555 1_555
C13 C12 1_555 1_555
C14 C13 1_555 1_555
C15 C14 1_555 1_555
C16 C15 1_555 1_555
C17 C16 1_555 1_555
C18 C17 1_555 1_555
C19 C14 1_555 1_555
C20 C11 1_555 1_555
C21 O8 1_555 1_555
C22 C21 1_555 1_555
C23 C24 1_555 1_555
H1 C4 1_555 1_555
H2 C5 1_555 1_555
H3 C6 1_555 1_555
H4 C7 1_555 1_555
H5 C15 1_555 1_555
H6 C16 1_555 1_555
H7 C17 1_555 1_555
H8 C18 1_555 1_555
H9 C21 1_555 1_555
H10 C21 1_555 1_555
H11 C22 1_555 1_555
H12 C22 1_555 1_555
H13 C22 1_555 1_555
H14 O7 1_555 1_555
H15 O7 1_555 1_555
H16 O8 1_555 1_555
H18 O9 1_555 1_555
O4A Co1 1_555 1_555
O5A Co1 1_555 1_555
Co1A O4 1_555 1_555
O5 Co1A 1_555 1_555
C7 C8 1_555 1_555
C9 C10 1_555 1_555
C18 C19 1_555 1_555
C19 C20 1_555 1_555

#END
