
#######################################################################
#
#                 Cambridge Crystallographic Data Centre
#                                CCDC 
#
#######################################################################
#
# If this CIF has been generated from an entry in the Cambridge 
# Structural Database, then it will include bibliographic, chemical, 
# crystal, experimental, refinement or atomic coordinate data resulting 
# from the CCDC's data processing and validation procedures.
#
#######################################################################

data_EZOBEA
_symmetry_cell_setting           monoclinic
_symmetry_space_group_name_H-M   'P 21/n'
_symmetry_Int_Tables_number      14
_space_group_name_Hall           '-P 2yn'
loop_
_symmetry_equiv_pos_site_id
_symmetry_equiv_pos_as_xyz
1 x,y,z
2 1/2+x,1/2-y,1/2+z
3 -x,-y,-z
4 1/2-x,1/2+y,1/2-z
_cell_length_a                   11.401(2)
_cell_length_b                   18.465(3)
_cell_length_c                   13.131(3)
_cell_angle_alpha                90
_cell_angle_beta                 92.081(17)
_cell_angle_gamma                90
_cell_volume                     2762.51
loop_
_atom_site_label
_atom_site_type_symbol
_atom_site_fract_x
_atom_site_fract_y
_atom_site_fract_z
Cu1 Cu 0.0000 0.0000 0.0000
Cu2 Cu 0.0000 0.0000 0.5000
O1 O 0.0901(5) 0.0601(3) 0.1022(4)
O2 O -0.0486(3) -0.0625(2) 0.1097(3)
O3 O 0.1454(4) -0.0891(2) 0.0072(3)
O4 O 0.0525(4) -0.2559(2) 0.3247(3)
O5 O -0.2283(4) -0.2266(3) 0.1806(3)
O6 O -0.1963(3) -0.04705(19) 0.4973(3)
O7 O -0.0076(3) -0.06681(18) 0.3847(3)
O8 O -0.0573(4) 0.0787(2) 0.4108(3)
C1 C 0.0134(5) -0.1173(3) 0.1360(4)
C2 C 0.1225(5) -0.1310(3) 0.0768(4)
C3 C 0.1974(5) -0.1939(3) 0.1019(4)
C4 C 0.2949(5) -0.2080(3) 0.0443(5)
C5 C 0.3652(5) -0.2665(4) 0.0721(5)
C6 C 0.3396(6) -0.3089(3) 0.1544(5)
C7 C 0.2450(5) -0.2948(3) 0.2111(5)
C8 C 0.1728(5) -0.2363(3) 0.1850(4)
C9 C 0.0684(5) -0.2207(3) 0.2467(4)
C10 C -0.0093(4) -0.1621(3) 0.2164(4)
C11 C -0.1117(4) -0.1492(3) 0.2804(4)
C12 C -0.2182(5) -0.1884(3) 0.2585(4)
C13 C -0.3160(5) -0.1839(3) 0.3289(4)
C14 C -0.4144(6) -0.2286(4) 0.3161(6)
C15 C -0.5056(6) -0.2232(5) 0.3831(6)
C16 C -0.4994(5) -0.1759(5) 0.4632(6)
C17 C -0.4026(5) -0.1320(4) 0.4760(5)
C18 C -0.3110(4) -0.1357(3) 0.4113(4)
C19 C -0.2046(4) -0.0910(3) 0.4285(4)
C20 C -0.1026(4) -0.1028(3) 0.3612(4)
H1 H 0.134(7) 0.037(5) 0.162(5)
H2 H 0.146(6) 0.088(3) 0.079(5)
H3 H -0.090(6) 0.068(4) 0.348(5)
H4 H -0.095(5) 0.102(3) 0.434(4)
H10 H 0.3143 -0.1782 -0.0102
H11 H 0.4313 -0.2784 0.0334
H12 H 0.3893 -0.3501 0.1729
H13 H 0.2287 -0.3238 0.2678
H14 H -0.4220 -0.2602 0.2572
H15 H -0.5707 -0.2564 0.3759
H16 H -0.5600 -0.1753 0.5133
H17 H -0.3997 -0.0970 0.5302
O1B O -0.0901(5) -0.0601(3) -0.1022(4)
H1B H -0.134(7) -0.037(5) -0.162(5)
H2B H -0.146(6) -0.088(3) -0.079(5)
O2B O 0.0486(3) 0.0625(2) -0.1097(3)
O3B O -0.1454(4) 0.0891(2) -0.0072(3)
O4B O -0.0525(4) 0.2559(2) -0.3247(3)
O5B O 0.2283(4) 0.2266(3) -0.1806(3)
O6B O 0.1963(3) 0.04705(19) -0.4973(3)
O7B O 0.0076(3) 0.06681(18) -0.3847(3)
C1B C -0.0134(5) 0.1173(3) -0.1360(4)
C2B C -0.1225(5) 0.1310(3) -0.0768(4)
C3B C -0.1974(5) 0.1939(3) -0.1019(4)
C4B C -0.2949(5) 0.2080(3) -0.0443(5)
C5B C -0.3652(5) 0.2665(4) -0.0721(5)
C6B C -0.3396(6) 0.3089(3) -0.1544(5)
C7B C -0.2450(5) 0.2948(3) -0.2111(5)
C8B C -0.1728(5) 0.2363(3) -0.1850(4)
C9B C -0.0684(5) 0.2207(3) -0.2467(4)
C10B C 0.0093(4) 0.1621(3) -0.2164(4)
C11B C 0.1117(4) 0.1492(3) -0.2804(4)
C12B C 0.2182(5) 0.1884(3) -0.2585(4)
C13B C 0.3160(5) 0.1839(3) -0.3289(4)
C14B C 0.4144(6) 0.2286(4) -0.3161(6)
C15B C 0.5056(6) 0.2232(5) -0.3831(6)
C16B C 0.4994(5) 0.1759(5) -0.4632(6)
C17B C 0.4026(5) 0.1320(4) -0.4760(5)
C18B C 0.3110(4) 0.1357(3) -0.4113(4)
C19B C 0.2046(4) 0.0910(3) -0.4285(4)
C20B C 0.1026(4) 0.1028(3) -0.3612(4)
H10B H -0.3143 0.1782 0.0102
H11B H -0.4313 0.2784 -0.0334
H12B H -0.3893 0.3501 -0.1729
H13B H -0.2287 0.3238 -0.2678
H14B H 0.4220 0.2602 -0.2572
H15B H 0.5707 0.2564 -0.3759
H16B H 0.5600 0.1753 -0.5133
H17B H 0.3997 0.0970 -0.5302
O8B O 0.0573(4) -0.0787(2) 0.5892(3)
H3B H 0.090(6) -0.068(4) 0.652(5)
H4B H 0.095(5) -0.102(3) 0.566(4)
O6B_2 O 0.1963(3) 0.04705(19) 0.5027(3)
O7B_2 O 0.0076(3) 0.06681(18) 0.6153(3)
Cu2_2 Cu 0.0000 0.0000 -0.5000
O9 O 0.1753(4) -0.0164(4) 0.2617(4)
C21 C 0.2808(7) -0.0481(6) 0.3068(6)
C22 C 0.3836(10) -0.0385(9) 0.2494(11)
H5 H 0.136(5) -0.025(3) 0.281(5)
H18 H 0.2677 -0.1010 0.3145
H19 H 0.2942 -0.0305 0.3753
H20 H 0.3686 -0.0580 0.1834
H21 H 0.4484 -0.0599 0.2816
H22 H 0.3946 0.0128 0.2438
O10 O -0.1806(5) 0.0330(3) 0.2468(4)
C23 C -0.2791(10) 0.0676(7) 0.2146(7)
C24 C -0.3598(9) 0.0875(6) 0.2867(10)
H6 H -0.134(7) 0.008(4) 0.211(6)
H23 H -0.3242 0.0372 0.1663
H24 H -0.2610 0.1112 0.1786
H25 H -0.3864 0.0460 0.3289
H26 H -0.4304 0.1117 0.2644
H27 H -0.3240 0.1203 0.3405
O11 O -0.1810(5) 0.1893(3) 0.4884(5)
H7 H -0.135(8) 0.209(5) 0.465(7)
H8 H -0.163(6) 0.211(4) 0.539(5)
O12 O 0.2555(8) 0.1442(4) 0.0183(6)
C25 C 0.3292(13) 0.0877(8) -0.0193(19)
C26 C 0.4492(11) 0.1100(10) -0.013(2)
H9 H 0.271(7) 0.188(2) -0.029(5)
H28 H 0.3208 0.0458 0.0211
H29 H 0.3085 0.0779 -0.0880
H30 H 0.4915 0.0689 -0.0350
H31 H 0.4621 0.1069 0.0662
H32 H 0.4659 0.1514 -0.0338
loop_
_geom_bond_atom_site_label_1
_geom_bond_atom_site_label_2
_geom_bond_site_symmetry_1
_geom_bond_site_symmetry_2
Cu1 O1 1_555 1_555
Cu2 O6 1_555 1_555
O1 H1 1_555 1_555
O2 Cu1 1_555 1_555
O3 Cu1 1_555 1_555
O4 C9 1_555 1_555
O5 C12 1_555 1_555
O6 C19 1_555 1_555
O7 Cu2 1_555 1_555
O8 Cu2 1_555 1_555
O9 C21 1_555 1_555
O10 C23 1_555 1_555
O11 H7 1_555 1_555
O12 C25 1_555 1_555
C1 O2 1_555 1_555
C2 O3 1_555 1_555
C3 C2 1_555 1_555
C4 C3 1_555 1_555
C5 C4 1_555 1_555
C6 C5 1_555 1_555
C7 C6 1_555 1_555
C8 C3 1_555 1_555
C9 C8 1_555 1_555
C10 C1 1_555 1_555
C11 C10 1_555 1_555
C12 C11 1_555 1_555
C13 C12 1_555 1_555
C14 C13 1_555 1_555
C15 C14 1_555 1_555
C16 C15 1_555 1_555
C17 C16 1_555 1_555
C18 C13 1_555 1_555
C19 C18 1_555 1_555
C20 O7 1_555 1_555
C21 C22 1_555 1_555
C22 H20 1_555 1_555
C23 C24 1_555 1_555
C24 H25 1_555 1_555
C25 C26 1_555 1_555
C26 H30 1_555 1_555
H2 O1 1_555 1_555
H3 O8 1_555 1_555
H4 O8 1_555 1_555
H5 O9 1_555 1_555
H6 O10 1_555 1_555
H8 O11 1_555 1_555
H9 O12 1_555 1_555
H10 C4 1_555 1_555
H11 C5 1_555 1_555
H12 C6 1_555 1_555
H13 C7 1_555 1_555
H14 C14 1_555 1_555
H15 C15 1_555 1_555
H16 C16 1_555 1_555
H17 C17 1_555 1_555
H18 C21 1_555 1_555
H19 C21 1_555 1_555
H21 C22 1_555 1_555
H22 C22 1_555 1_555
H23 C23 1_555 1_555
H24 C23 1_555 1_555
H26 C24 1_555 1_555
H27 C24 1_555 1_555
H28 C25 1_555 1_555
H29 C25 1_555 1_555
H31 C26 1_555 1_555
H32 C26 1_555 1_555
O1B Cu1 1_555 1_555
H1B O1B 1_555 1_555
H2B O1B 1_555 1_555
O2B Cu1 1_555 1_555
O3B Cu1 1_555 1_555
O4B C9B 1_555 1_555
O5B C12B 1_555 1_555
O6B C19B 1_555 1_555
O7B C20B 1_555 1_555
C1B O2B 1_555 1_555
C2B O3B 1_555 1_555
C3B C2B 1_555 1_555
C4B C3B 1_555 1_555
C5B C4B 1_555 1_555
C6B C5B 1_555 1_555
C7B C6B 1_555 1_555
C8B C3B 1_555 1_555
C9B C8B 1_555 1_555
C10B C1B 1_555 1_555
C11B C10B 1_555 1_555
C12B C11B 1_555 1_555
C13B C12B 1_555 1_555
C14B C13B 1_555 1_555
C15B C14B 1_555 1_555
C16B C15B 1_555 1_555
C17B C16B 1_555 1_555
C18B C13B 1_555 1_555
C19B C18B 1_555 1_555
C20B C11B 1_555 1_555
H10B C4B 1_555 1_555
H11B C5B 1_555 1_555
H12B C6B 1_555 1_555
H13B C7B 1_555 1_555
H14B C14B 1_555 1_555
H15B C15B 1_555 1_555
H16B C16B 1_555 1_555
H17B C17B 1_555 1_555
O8B Cu2 1_555 1_555
H3B O8B 1_555 1_555
H4B O8B 1_555 1_555
O6B_2 Cu2 1_555 1_555
O7B_2 Cu2 1_555 1_555
Cu2_2 O6B 1_555 1_555
C1 C2 1_555 1_555
C7 C8 1_555 1_555
C9 C10 1_555 1_555
C11 C20 1_555 1_555
C17 C18 1_555 1_555
C19 C20 1_555 1_555
O7B Cu2_2 1_555 1_555
C1B C2B 1_555 1_555
C7B C8B 1_555 1_555
C9B C10B 1_555 1_555
C17B C18B 1_555 1_555
C19B C20B 1_555 1_555

#END
