
#######################################################################
#
#                 Cambridge Crystallographic Data Centre
#                                CCDC 
#
#######################################################################
#
# If this CIF has been generated from an entry in the Cambridge 
# Structural Database, then it will include bibliographic, chemical, 
# crystal, experimental, refinement or atomic coordinate data resulting 
# from the CCDC's data processing and validation procedures.
#
#######################################################################

data_EZOKEK
_symmetry_cell_setting           monoclinic
_symmetry_space_group_name_H-M   'P 21'
_symmetry_Int_Tables_number      4
_space_group_name_Hall           'P 2yb'
loop_
_symmetry_equiv_pos_site_id
_symmetry_equiv_pos_as_xyz
1 x,y,z
2 -x,1/2+y,-z
_cell_length_a                   12.486(2)
_cell_length_b                   6.439(2)
_cell_length_c                   30.611(5)
_cell_angle_alpha                90
_cell_angle_beta                 96.536(5)
_cell_angle_gamma                90
_cell_volume                     2445.05
loop_
_atom_site_label
_atom_site_type_symbol
_atom_site_fract_x
_atom_site_fract_y
_atom_site_fract_z
S1 S 0.5597(2) -0.0118(7) 0.61635(11)
Na1 Na 0.4111(3) 0.2078(9) 0.52805(14)
O1 O 0.4074(4) 0.4748(10) 0.9932(2)
H1 H 0.4125 0.4711 1.0201
O2 O 0.2734(5) 0.4979(11) 1.0586(2)
H2 H 0.2448 0.4150 1.0405
O3 O 0.3114(5) 1.1156(11) 0.9765(2)
O4 O 0.3247(5) 1.0410(10) 1.0469(2)
O5 O 0.2278(6) 0.7801(14) 1.1384(2)
O6 O 0.3056(5) 0.7208(13) 0.71908(19)
O7 O 0.1904(4) 0.5867(11) 0.63668(19)
O8 O 0.3203(5) 0.3535(14) 0.5830(2)
O9 O 0.4495(5) 0.0565(12) 0.6326(2)
O10 O 0.4298(5) 0.4745(14) 0.7130(2)
O11 O 0.1563(5) 0.6076(12) 0.5445(2)
O12 O -0.0336(5) 0.8429(11) 0.5116(2)
O13 O -0.0607(5) 1.2111(13) 0.5588(2)
O14 O 0.0974(5) 0.8848(13) 0.6414(2)
O15 O 0.5651(6) 0.0933(16) 0.5751(3)
O16 O 0.5466(8) -0.2342(14) 0.6115(3)
O17 O 0.6435(6) 0.0461(17) 0.6498(3)
O18 O 0.3109(7) -0.1229(17) 0.5113(3)
O19 O 0.2807(6) 0.3512(17) 0.4753(3)
O20 O 0.4887(6) 0.5822(15) 0.5288(3)
C1 C 0.3907(7) 0.768(2) 0.8406(3)
H3 H 0.3948 0.6199 0.8467
H4 H 0.4534 0.8325 0.8566
C2 C 0.3957(7) 0.801(2) 0.7909(3)
H5 H 0.3972 0.9480 0.7844
H6 H 0.4608 0.7381 0.7823
C3 C 0.2992(7) 0.703(2) 0.7661(3)
H7 H 0.2998 0.5553 0.7736
C4 C 0.1906(7) 0.7982(17) 0.7782(3)
C5 C 0.1904(6) 0.7711(18) 0.8281(3)
C6 C 0.0892(7) 0.855(2) 0.8440(3)
H8 H 0.0921 1.0057 0.8448
H9 H 0.0272 0.8143 0.8239
C7 C 0.0779(7) 0.7728(19) 0.8891(3)
H10 H 0.0691 0.6232 0.8875
H11 H 0.0137 0.8313 0.8993
C8 C 0.1759(6) 0.8251(18) 0.9221(3)
H12 H 0.1729 0.9752 0.9271
C9 C 0.2816(6) 0.7843(15) 0.9044(3)
C10 C 0.2917(7) 0.8527(17) 0.8573(3)
C11 C 0.3645(7) 0.7073(17) 0.9309(3)
H13 H 0.4235 0.6669 0.9169
C12 C 0.3765(6) 0.6769(17) 0.9785(3)
H14 H 0.4365 0.7671 0.9899
C13 C 0.2762(6) 0.7657(17) 0.9980(3)
C14 C 0.1709(6) 0.7241(18) 0.9664(3)
C15 C 0.0863(7) 0.8066(18) 0.9944(3)
H15 H 0.0841 0.9571 0.9939
H16 H 0.0153 0.7534 0.9840
C16 C 0.1237(6) 0.7271(18) 1.0402(3)
H17 H 0.0902 0.5943 1.0450
H18 H 0.1034 0.8243 1.0621
C17 C 0.2470(6) 0.7033(17) 1.0444(3)
C18 C 0.3014(7) 0.9850(19) 1.0045(4)
C19 C 0.3027(8) 1.0928(18) 0.8596(3)
H19 H 0.3362 1.1413 0.8348
H20 H 0.3461 1.1313 0.8863
H21 H 0.2325 1.1542 0.8591
C20 C 0.3126(7) 0.8587(19) 1.0762(3)
C21 C 0.4242(7) 0.7761(18) 1.0911(3)
H22 H 0.4698 0.8882 1.1025
H23 H 0.4537 0.7139 1.0666
H24 H 0.4199 0.6739 1.1137
C22 C 0.2541(10) 0.948(2) 1.1120(3)
H25 H 0.1874 1.0131 1.0988
C23 C 0.3143(10) 1.101(2) 1.1439(4)
H26 H 0.3915 1.0763 1.1466
H27 H 0.2998 1.2429 1.1348
C24 C 0.270(2) 1.055(4) 1.1854(5)
H28 H 0.3262 1.0697 1.2100
H29 H 0.2127 1.1518 1.1896
C25 C 0.2288(9) 0.842(3) 1.1833(4)
C26 C 0.2917(17) 0.691(5) 1.2101(5)
H30 H 0.3662 0.7317 1.2133
H31 H 0.2841 0.5574 1.1964
H32 H 0.2667 0.6850 1.2386
C27 C 0.1208(12) 0.819(4) 1.1980(6)
H33 H 0.0811 0.9456 1.1926
H34 H 0.1280 0.7877 1.2289
H35 H 0.0830 0.7076 1.1820
C28 C 0.1010(8) 0.664(2) 0.7536(3)
H36 H 0.0320 0.7242 0.7566
H37 H 0.1040 0.5261 0.7657
H38 H 0.1112 0.6569 0.7230
C29 C 0.1772(8) 1.024(2) 0.7602(3)
H39 H 0.1236 1.0950 0.7747
H40 H 0.1550 1.0201 0.7292
H41 H 0.2447 1.0961 0.7657
C30 C 0.1537(7) 0.4875(18) 0.9605(3)
H42 H 0.2109 0.4300 0.9458
H43 H 0.0858 0.4621 0.9433
H44 H 0.1538 0.4234 0.9889
C31 C 0.3207(7) 0.5297(19) 0.6998(3)
H45 H 0.2717 0.4257 0.7099
C32 C 0.3035(7) 0.5490(18) 0.6507(3)
H46 H 0.3488 0.6588 0.6403
C33 C 0.3261(7) 0.3446(18) 0.6307(3)
H47 H 0.2738 0.2423 0.6389
C34 C 0.4398(8) 0.2718(19) 0.6480(3)
H48 H 0.4942 0.3610 0.6368
C35 C 0.4521(8) 0.272(2) 0.6968(3)
H49 H 0.4030 0.1717 0.7073
H50 H 0.5251 0.2316 0.7078
C36 C 0.1588(7) 0.7722(18) 0.6139(3)
H51 H 0.2217 0.8521 0.6072
C37 C 0.0888(7) 0.7113(17) 0.5724(3)
H52 H 0.0321 0.6165 0.5796
C38 C 0.0381(7) 0.9034(17) 0.5499(3)
H53 H 0.0953 0.9913 0.5405
C39 C -0.0208(7) 1.0216(17) 0.5803(3)
H54 H -0.0819 0.9389 0.5879
C40 C 0.0531(8) 1.0701(18) 0.6216(3)
H55 H 0.1125 1.1562 0.6135
C41 C -0.0023(10) 1.186(2) 0.6551(4)
H56 H 0.0484 1.2142 0.6803
H57 H -0.0602 1.1026 0.6637
H58 H -0.0306 1.3138 0.6426
Na1A Na 0.5889(3) 0.7078(9) 0.47195(14)
O20A O 0.5113(6) 0.0822(15) 0.4712(3)
O21 O 0.7557(6) 0.3666(16) 0.5836(3)
O22 O -0.2082(11) 0.685(3) 0.6429(5)
C42 C -0.193(3) 0.643(7) 0.6885(9)
loop_
_geom_bond_atom_site_label_1
_geom_bond_atom_site_label_2
_geom_bond_site_symmetry_1
_geom_bond_site_symmetry_2
S1 O9 1_555 1_555
Na1 O8 1_555 1_555
O1 H1 1_555 1_555
O2 H2 1_555 1_555
O3 C18 1_555 1_555
O4 C18 1_555 1_555
O5 C22 1_555 1_555
O6 C3 1_555 1_555
O7 C32 1_555 1_555
O8 C33 1_555 1_555
O9 C34 1_555 1_555
O10 C31 1_555 1_555
O11 C37 1_555 1_555
O12 C38 1_555 1_555
O13 C39 1_555 1_555
O14 C36 1_555 1_555
O15 S1 1_555 1_555
O16 S1 1_555 1_555
O17 S1 1_555 1_555
O18 Na1 1_555 1_555
O19 Na1 1_555 1_555
O20 Na1 1_555 1_555
C1 H3 1_555 1_555
H4 C1 1_555 1_555
C2 C1 1_555 1_555
H5 C2 1_555 1_555
H6 C2 1_555 1_555
C3 C2 1_555 1_555
H7 C3 1_555 1_555
C4 C3 1_555 1_555
C5 C4 1_555 1_555
C6 C5 1_555 1_555
H8 C6 1_555 1_555
H9 C6 1_555 1_555
C7 C6 1_555 1_555
H10 C7 1_555 1_555
H11 C7 1_555 1_555
C8 C7 1_555 1_555
H12 C8 1_555 1_555
C9 C8 1_555 1_555
C10 C1 1_555 1_555
C11 C9 1_555 1_555
H13 C11 1_555 1_555
C12 O1 1_555 1_555
H14 C12 1_555 1_555
C13 C12 1_555 1_555
C14 C8 1_555 1_555
C15 C14 1_555 1_555
H15 C15 1_555 1_555
H16 C15 1_555 1_555
C16 C15 1_555 1_555
H17 C16 1_555 1_555
H18 C16 1_555 1_555
C17 O2 1_555 1_555
C18 C13 1_555 1_555
C19 C10 1_555 1_555
H19 C19 1_555 1_555
H20 C19 1_555 1_555
H21 C19 1_555 1_555
C20 O4 1_555 1_555
C21 C20 1_555 1_555
H22 C21 1_555 1_555
H23 C21 1_555 1_555
H24 C21 1_555 1_555
C22 C20 1_555 1_555
H25 C22 1_555 1_555
C23 C22 1_555 1_555
H26 C23 1_555 1_555
H27 C23 1_555 1_555
C24 C23 1_555 1_555
H28 C24 1_555 1_555
H29 C24 1_555 1_555
C25 O5 1_555 1_555
C26 C25 1_555 1_555
H30 C26 1_555 1_555
H31 C26 1_555 1_555
H32 C26 1_555 1_555
C27 C25 1_555 1_555
H33 C27 1_555 1_555
H34 C27 1_555 1_555
H35 C27 1_555 1_555
C28 C4 1_555 1_555
H36 C28 1_555 1_555
H37 C28 1_555 1_555
H38 C28 1_555 1_555
C29 C4 1_555 1_555
H39 C29 1_555 1_555
H40 C29 1_555 1_555
H41 C29 1_555 1_555
C30 C14 1_555 1_555
H42 C30 1_555 1_555
H43 C30 1_555 1_555
H44 C30 1_555 1_555
C31 O6 1_555 1_555
H45 C31 1_555 1_555
C32 C31 1_555 1_555
H46 C32 1_555 1_555
C33 C32 1_555 1_555
H47 C33 1_555 1_555
C34 C33 1_555 1_555
H48 C34 1_555 1_555
C35 O10 1_555 1_555
H49 C35 1_555 1_555
H50 C35 1_555 1_555
C36 O7 1_555 1_555
H51 C36 1_555 1_555
C37 C36 1_555 1_555
H52 C37 1_555 1_555
C38 C37 1_555 1_555
H53 C38 1_555 1_555
C39 C38 1_555 1_555
H54 C39 1_555 1_555
C40 O14 1_555 1_555
H55 C40 1_555 1_555
C41 C40 1_555 1_555
H56 C41 1_555 1_555
H57 C41 1_555 1_555
H58 C41 1_555 1_555
O22 C42 1_555 1_555
Na1A O20 1_555 1_555
O20A Na1 1_555 1_555
Na1 O15 1_555 1_555
C5 C10 1_555 1_555
C9 C10 1_555 1_555
C11 C12 1_555 1_555
C13 C14 1_555 1_555
C13 C17 1_555 1_555
C16 C17 1_555 1_555
C17 C20 1_555 1_555
C24 C25 1_555 1_555
C34 C35 1_555 1_555
C39 C40 1_555 1_555

#END
