
#######################################################################
#
#                 Cambridge Crystallographic Data Centre
#                                CCDC 
#
#######################################################################
#
# If this CIF has been generated from an entry in the Cambridge 
# Structural Database, then it will include bibliographic, chemical, 
# crystal, experimental, refinement or atomic coordinate data resulting 
# from the CCDC's data processing and validation procedures.
#
#######################################################################

data_EZOXUN
_symmetry_cell_setting           monoclinic
_symmetry_space_group_name_H-M   'P 21/c'
_symmetry_Int_Tables_number      14
_space_group_name_Hall           '-P 2ybc'
loop_
_symmetry_equiv_pos_site_id
_symmetry_equiv_pos_as_xyz
1 x,y,z
2 -x,1/2+y,1/2-z
3 -x,-y,-z
4 x,1/2-y,1/2+z
_cell_length_a                   13.7449(3)
_cell_length_b                   7.9023(2)
_cell_length_c                   24.6315(6)
_cell_angle_alpha                90
_cell_angle_beta                 101.2280(10)
_cell_angle_gamma                90
_cell_volume                     2624.18
loop_
_atom_site_label
_atom_site_type_symbol
_atom_site_fract_x
_atom_site_fract_y
_atom_site_fract_z
Mn1 Mn 0.20631(2) 0.13734(4) 0.177178(12)
B1 B 0.38274(16) 0.0975(3) 0.10833(9)
H1 H 0.4378 0.0850 0.0874
N1 N 0.20221(11) 0.0082(2) 0.09644(6)
N2 N 0.28805(11) 0.0118(2) 0.07541(6)
N3 N 0.35122(11) 0.0144(2) 0.20304(6)
N4 N 0.41334(11) 0.0131(2) 0.16548(7)
N5 N 0.29365(11) 0.3380(2) 0.14611(7)
N6 N 0.36285(11) 0.2875(2) 0.11598(7)
C1 C 0.03361(15) -0.1096(3) 0.07101(9)
H2 H 0.0145 -0.0165 0.0931
H3 H 0.0335 -0.2161 0.0914
H4 H -0.0138 -0.1171 0.0358
C2 C 0.13526(15) -0.0775(3) 0.06001(8)
C3 C 0.17675(16) -0.1277(3) 0.01526(9)
H5 H 0.1450 -0.1892 -0.0164
C4 C 0.27331(15) -0.0700(3) 0.02636(8)
C5 C 0.35213(17) -0.0889(3) -0.00768(9)
H6 H 0.4102 -0.1451 0.0144
H7 H 0.3713 0.0232 -0.0191
H8 H 0.3264 -0.1570 -0.0406
C6 C 0.35274(16) -0.0834(3) 0.29798(9)
H9 H 0.2809 -0.0668 0.2871
H10 H 0.3804 0.0009 0.3259
H11 H 0.3662 -0.1972 0.3134
C7 C 0.39944(15) -0.0640(3) 0.24858(8)
C8 C 0.49248(15) -0.1174(3) 0.24077(9)
H12 H 0.5412 -0.1764 0.2665
C9 C 0.49919(14) -0.0669(3) 0.18821(9)
C10 C 0.58267(15) -0.0933(3) 0.15811(10)
H13 H 0.6039 0.0162 0.1458
H14 H 0.5604 -0.1663 0.1259
H15 H 0.6385 -0.1472 0.1829
C11 C 0.23353(17) 0.6064(3) 0.17931(10)
H16 H 0.1660 0.5607 0.1714
H17 H 0.2324 0.7250 0.1676
H18 H 0.2603 0.5990 0.2191
C12 C 0.29732(14) 0.5068(3) 0.14863(8)
C13 C 0.36862(15) 0.5668(3) 0.11982(8)
H19 H 0.3859 0.6815 0.1150
C14 C 0.40850(14) 0.4254(3) 0.09990(8)
C15 C 0.48638(16) 0.4128(3) 0.06528(9)
H20 H 0.5378 0.3329 0.0824
H21 H 0.5161 0.5244 0.0626
H22 H 0.4562 0.3728 0.0282
O1 O 0.19818(9) 0.26712(18) 0.25316(6)
O2 O 0.06349(10) 0.26628(18) 0.15072(5)
C16 C 0.14226(17) 0.3684(4) 0.33151(9)
H23 H 0.2005 0.3081 0.3517
H24 H 0.0839 0.3373 0.3467
H25 H 0.1534 0.4906 0.3354
C17 C 0.12536(14) 0.3208(3) 0.27120(8)
C18 C 0.02834(14) 0.3422(2) 0.23792(8)
C19 C 0.00417(14) 0.3200(3) 0.17911(8)
C20 C -0.09854(17) 0.3672(4) 0.14896(10)
H26 H -0.1059 0.3378 0.1097
H27 H -0.1086 0.4891 0.1526
H28 H -0.1479 0.3053 0.1650
C21 C -0.04829(14) 0.3983(2) 0.26511(8)
N7 N -0.10997(12) 0.4411(2) 0.28756(7)
Mn1A Mn -0.20631(2) 0.63734(4) 0.322822(12)
N7A N 0.10997(12) -0.0589(2) 0.21244(7)
N8 N 0.2791(2) 0.3591(4) -0.05288(12)
C22 C 0.1624(2) 0.3964(3) 0.01703(11)
C23 C 0.2279(2) 0.3751(4) -0.02216(12)
H29 H 0.1581 0.2829 0.0400
H30 H 0.0990 0.4286 0.0005
H31 H 0.1823 0.4803 0.0441
loop_
_geom_bond_atom_site_label_1
_geom_bond_atom_site_label_2
_geom_bond_site_symmetry_1
_geom_bond_site_symmetry_2
Mn1 N1 1_555 1_555
B1 H1 1_555 1_555
N1 N2 1_555 1_555
N2 B1 1_555 1_555
N3 Mn1 1_555 1_555
N4 B1 1_555 1_555
N5 Mn1 1_555 1_555
N6 B1 1_555 1_555
C1 H2 1_555 1_555
H3 C1 1_555 1_555
H4 C1 1_555 1_555
C2 N1 1_555 1_555
C3 C2 1_555 1_555
H5 C3 1_555 1_555
C4 N2 1_555 1_555
C5 C4 1_555 1_555
H6 C5 1_555 1_555
H7 C5 1_555 1_555
H8 C5 1_555 1_555
C6 H9 1_555 1_555
H10 C6 1_555 1_555
H11 C6 1_555 1_555
C7 N3 1_555 1_555
C8 C7 1_555 1_555
H12 C8 1_555 1_555
C9 N4 1_555 1_555
C10 C9 1_555 1_555
H13 C10 1_555 1_555
H14 C10 1_555 1_555
H15 C10 1_555 1_555
C11 H16 1_555 1_555
H17 C11 1_555 1_555
H18 C11 1_555 1_555
C12 N5 1_555 1_555
C13 C12 1_555 1_555
H19 C13 1_555 1_555
C14 N6 1_555 1_555
C15 C14 1_555 1_555
H20 C15 1_555 1_555
H21 C15 1_555 1_555
H22 C15 1_555 1_555
O1 Mn1 1_555 1_555
O2 Mn1 1_555 1_555
C16 H23 1_555 1_555
H24 C16 1_555 1_555
H25 C16 1_555 1_555
C17 O1 1_555 1_555
C18 C17 1_555 1_555
C19 O2 1_555 1_555
C20 C19 1_555 1_555
H26 C20 1_555 1_555
H27 C20 1_555 1_555
H28 C20 1_555 1_555
C21 C18 1_555 1_555
N7 C21 1_555 1_555
N8 C23 1_555 1_555
C22 C23 1_555 1_555
H29 C22 1_555 1_555
H30 C22 1_555 1_555
H31 C22 1_555 1_555
Mn1A N7 1_555 1_555
N7A Mn1 1_555 1_555
N3 N4 1_555 1_555
N5 N6 1_555 1_555
C1 C2 1_555 1_555
C3 C4 1_555 1_555
C6 C7 1_555 1_555
C8 C9 1_555 1_555
C11 C12 1_555 1_555
C13 C14 1_555 1_555
C16 C17 1_555 1_555
C18 C19 1_555 1_555

#END
