
#######################################################################
#
#                 Cambridge Crystallographic Data Centre
#                                CCDC 
#
#######################################################################
#
# If this CIF has been generated from an entry in the Cambridge 
# Structural Database, then it will include bibliographic, chemical, 
# crystal, experimental, refinement or atomic coordinate data resulting 
# from the CCDC's data processing and validation procedures.
#
#######################################################################

data_EZURAS
_symmetry_cell_setting           triclinic
_symmetry_space_group_name_H-M   'P -1'
_symmetry_Int_Tables_number      2
_space_group_name_Hall           '-P 1'
loop_
_symmetry_equiv_pos_site_id
_symmetry_equiv_pos_as_xyz
1 x,y,z
2 -x,-y,-z
_cell_length_a                   7.4181(10)
_cell_length_b                   8.5999(14)
_cell_length_c                   11.2007(19)
_cell_angle_alpha                93.671(14)
_cell_angle_beta                 109.310(13)
_cell_angle_gamma                115.573(13)
_cell_volume                     590.072
loop_
_atom_site_label
_atom_site_type_symbol
_atom_site_fract_x
_atom_site_fract_y
_atom_site_fract_z
Fe1 Fe 0.0000 0.0000 0.0000
N1 N 0.1918(7) 0.1896(5) 0.1925(4)
N2 N 0.1673(8) -0.1484(6) 0.0676(4)
C1 C 0.4346(8) 0.4347(6) 0.4351(5)
N3 N 0.7518(8) -0.1491(6) 0.0683(5)
C2 C 0.4045(10) 0.4879(7) 0.3212(5)
H1 H 0.448(12) 0.611(10) 0.312(7)
C3 C 0.3075(10) -0.1821(7) 0.0988(6)
C4 C 0.6103(9) -0.1823(7) 0.0994(5)
C5 C 0.2190(11) 0.1396(8) 0.3014(6)
H2 H 0.146(10) 0.006(9) 0.294(6)
C6 C 0.2840(10) 0.3647(7) 0.2029(6)
H3 H 0.268(7) 0.398(5) 0.124(5)
N4 N 0.4571(10) -0.2290(9) 0.1425(7)
C7 C 0.3380(12) 0.2536(8) 0.4237(6)
H4 H 0.339(9) 0.201(8) 0.483(6)
C1A C 0.5654(8) 0.5653(6) 0.5649(5)
C2A C 0.5955(10) 0.5121(7) 0.6788(5)
H1A H 0.552(12) 0.389(10) 0.688(7)
C6A C 0.7160(10) 0.6353(7) 0.7971(6)
N1A N 0.8082(7) 0.8104(5) 0.8075(4)
C5A C 0.7810(11) 0.8604(8) 0.6986(6)
H2A H 0.854(10) 0.994(9) 0.706(6)
C7A C 0.6620(12) 0.7464(8) 0.5763(6)
H4A H 0.661(9) 0.799(8) 0.517(6)
H3A H 0.732(7) 0.602(5) 0.876(5)
N2A N -0.1673(8) 0.1484(6) -0.0676(4)
N3A N -0.7518(8) 0.1491(6) -0.0683(5)
C3A C -0.3075(10) 0.1821(7) -0.0988(6)
C4A C -0.6103(9) 0.1823(7) -0.0994(5)
N4A N -0.4571(10) 0.2290(9) -0.1425(7)
N1A_2 N -0.1918(7) -0.1896(5) -0.1925(4)
N3_2 N -0.2482(8) -0.1491(6) 0.0683(5)
N3A_2 N 0.2482(8) 0.1491(6) -0.0683(5)
Fe1_2 Fe 1.0000 0.0000 0.0000
Fe1_3 Fe 1.0000 1.0000 1.0000
Fe1_4 Fe -1.0000 0.0000 0.0000
S1 S 0.0051(4) -0.6445(3) -0.3453(2)
N5 N 0.1603(9) -0.3152(7) -0.3635(6)
C8 C 0.0489(9) -0.4747(8) -0.4284(6)
C9 C 0.2346(15) -0.3015(12) -0.2251(9)
H5 H 0.363(11) -0.250(9) -0.197(6)
H6 H 0.193(14) -0.227(12) -0.186(9)
C10 C 0.1649(18) -0.4792(11) -0.1906(9)
H7 H 0.067(13) -0.502(10) -0.151(8)
H8 H 0.296(17) -0.496(13) -0.139(10)
C8A C -0.0489(9) -0.5253(8) -0.5716(6)
S1A S -0.0051(4) -0.3555(3) -0.6547(2)
C10A C -0.1649(18) -0.5208(11) -0.8094(9)
C9A C -0.2346(15) -0.6985(12) -0.7749(9)
N5A N -0.1603(9) -0.6848(7) -0.6365(6)
H5A H -0.363(11) -0.750(9) -0.803(6)
H6A H -0.193(14) -0.773(12) -0.814(9)
H7A H -0.067(13) -0.498(10) -0.849(8)
H8A H -0.296(17) -0.504(13) -0.861(10)
loop_
_geom_bond_atom_site_label_1
_geom_bond_atom_site_label_2
_geom_bond_site_symmetry_1
_geom_bond_site_symmetry_2
Fe1 N1 1_555 1_555
N1 C5 1_555 1_555
N2 Fe1 1_555 1_555
C1 C2 1_555 1_555
N3 C4 1_555 1_555
C2 H1 1_555 1_555
C3 N2 1_555 1_555
C4 N4 1_555 1_555
C5 H2 1_555 1_555
C6 N1 1_555 1_555
H3 C6 1_555 1_555
N4 C3 1_555 1_555
C7 C1 1_555 1_555
H4 C7 1_555 1_555
S1 C8 1_555 1_555
N5 C8 1_555 1_555
C8 C8A 1_555 1_555
C9 N5 1_555 1_555
H5 C9 1_555 1_555
H6 C9 1_555 1_555
C10 S1 1_555 1_555
H7 C10 1_555 1_555
H8 C10 1_555 1_555
C1A C1 1_555 1_555
C2A C1A 1_555 1_555
H1A C2A 1_555 1_555
C6A C2A 1_555 1_555
N1A C6A 1_555 1_555
C5A N1A 1_555 1_555
H2A C5A 1_555 1_555
C7A C1A 1_555 1_555
H4A C7A 1_555 1_555
H3A C6A 1_555 1_555
C8A S1A 1_555 1_555
S1A C10A 1_555 1_555
C10A C9A 1_555 1_555
C9A N5A 1_555 1_555
N5A C8A 1_555 1_555
H5A C9A 1_555 1_555
H6A C9A 1_555 1_555
H7A C10A 1_555 1_555
H8A C10A 1_555 1_555
N2A Fe1 1_555 1_555
N3A C4A 1_555 1_555
C3A N2A 1_555 1_555
C4A N4A 1_555 1_555
N4A C3A 1_555 1_555
N1A_2 Fe1 1_555 1_555
N3_2 Fe1 1_555 1_555
N3A_2 Fe1 1_555 1_555
Fe1_2 N3 1_555 1_555
Fe1_3 N1A 1_555 1_555
Fe1_4 N3A 1_555 1_555
C2 C6 1_555 1_555
C5 C7 1_555 1_555
C9 C10 1_555 1_555
C5A C7A 1_555 1_555

#END
