
#######################################################################
#
#                 Cambridge Crystallographic Data Centre
#                                CCDC 
#
#######################################################################
#
# If this CIF has been generated from an entry in the Cambridge 
# Structural Database, then it will include bibliographic, chemical, 
# crystal, experimental, refinement or atomic coordinate data resulting 
# from the CCDC's data processing and validation procedures.
#
#######################################################################

data_EZUREW
_symmetry_cell_setting           monoclinic
_symmetry_space_group_name_H-M   'C c'
_symmetry_Int_Tables_number      9
_space_group_name_Hall           'C -2yc'
loop_
_symmetry_equiv_pos_site_id
_symmetry_equiv_pos_as_xyz
1 x,y,z
2 x,-y,1/2+z
3 1/2+x,1/2+y,z
4 1/2+x,1/2-y,1/2+z
_cell_length_a                   15.7206(19)
_cell_length_b                   11.1428(13)
_cell_length_c                   6.7889(8)
_cell_angle_alpha                90
_cell_angle_beta                 102.051(2)
_cell_angle_gamma                90
_cell_volume                     1163.01
loop_
_atom_site_label
_atom_site_type_symbol
_atom_site_fract_x
_atom_site_fract_y
_atom_site_fract_z
Mo1 Mo 0.48730(7) 0.87531(8) 0.37346(10)
V1 V 0.41352(11) 1.16425(15) 0.3335(2)
O1 O 0.3214(6) 1.0951(8) 0.3067(13)
O2 O 0.5016(5) 1.0335(7) 0.3685(14)
O3 O 0.4403(6) 0.8149(7) 0.1319(11)
O4 O 0.5880(6) 0.8122(8) 0.4449(15)
O5 O 0.4215(5) 0.8279(7) 0.5436(10)
N1 N 0.5225(6) 1.3057(8) 0.3610(13)
N2 N 0.3523(6) 1.3395(8) 0.2991(13)
C1 C 0.6079(7) 1.2784(11) 0.3916(16)
H1 H 0.6246 1.1982 0.4024
C2 C 0.6705(9) 1.3650(11) 0.4071(19)
H2 H 0.7291 1.3446 0.4285
C3 C 0.6442(8) 1.4851(12) 0.3900(19)
H3 H 0.6856 1.5457 0.4025
C4 C 0.5581(8) 1.5135(11) 0.3552(18)
H4 H 0.5405 1.5934 0.3442
C5 C 0.4962(7) 1.4211(10) 0.3361(15)
C6 C 0.4000(6) 1.4382(9) 0.3016(14)
C7 C 0.3648(8) 1.5523(11) 0.2696(18)
H5 H 0.3995 1.6198 0.2680
C8 C 0.2742(8) 1.5604(11) 0.2400(18)
H6 H 0.2474 1.6352 0.2217
C9 C 0.2244(9) 1.4585(12) 0.2377(19)
H7 H 0.1641 1.4639 0.2158
C10 C 0.2648(8) 1.3495(10) 0.2682(17)
H8 H 0.2314 1.2807 0.2677
O3A O 0.4403(6) 1.1851(7) 0.6319(11)
O5A O 0.4215(5) 1.1721(7) 0.0436(10)
V1A V 0.41352(11) 0.83575(15) -0.1665(2)
V1A_2 V 0.41352(11) 0.83575(15) 0.8335(2)
loop_
_geom_bond_atom_site_label_1
_geom_bond_atom_site_label_2
_geom_bond_site_symmetry_1
_geom_bond_site_symmetry_2
Mo1 O2 1_555 1_555
V1 O1 1_555 1_555
O2 V1 1_555 1_555
O3 Mo1 1_555 1_555
O4 Mo1 1_555 1_555
O5 Mo1 1_555 1_555
N1 V1 1_555 1_555
N2 V1 1_555 1_555
C1 N1 1_555 1_555
H1 C1 1_555 1_555
C2 C1 1_555 1_555
H2 C2 1_555 1_555
C3 C2 1_555 1_555
H3 C3 1_555 1_555
C4 C3 1_555 1_555
H4 C4 1_555 1_555
C5 N1 1_555 1_555
C6 N2 1_555 1_555
C7 C6 1_555 1_555
H5 C7 1_555 1_555
C8 C7 1_555 1_555
H6 C8 1_555 1_555
C9 C8 1_555 1_555
H7 C9 1_555 1_555
C10 N2 1_555 1_555
H8 C10 1_555 1_555
O3A V1 1_555 1_555
O5A V1 1_555 1_555
V1A O3 1_555 1_555
V1A_2 O5 1_555 1_555
C4 C5 1_555 1_555
C5 C6 1_555 1_555
C9 C10 1_555 1_555

#END
