
#######################################################################
#
#                 Cambridge Crystallographic Data Centre
#                                CCDC 
#
#######################################################################
#
# If this CIF has been generated from an entry in the Cambridge 
# Structural Database, then it will include bibliographic, chemical, 
# crystal, experimental, refinement or atomic coordinate data resulting 
# from the CCDC's data processing and validation procedures.
#
#######################################################################

data_EZUXON
_symmetry_cell_setting           triclinic
_symmetry_space_group_name_H-M   'P 1'
_symmetry_Int_Tables_number      1
_space_group_name_Hall           'P 1'
loop_
_symmetry_equiv_pos_site_id
_symmetry_equiv_pos_as_xyz
1 x,y,z
_cell_length_a                   7.6594(9)
_cell_length_b                   10.1820(13)
_cell_length_c                   13.1317(16)
_cell_angle_alpha                69.7640(10)
_cell_angle_beta                 84.0400(10)
_cell_angle_gamma                69.9990(10)
_cell_volume                     902.826
loop_
_atom_site_label
_atom_site_type_symbol
_atom_site_fract_x
_atom_site_fract_y
_atom_site_fract_z
Mn1 Mn -0.11134(6) 0.33871(5) 0.53511(4)
Mn2 Mn 0.12168(6) -0.25587(5) 0.60045(4)
S1 S 0.46543(13) 0.11932(11) 0.78880(8)
S2 S -0.46082(12) 0.06933(10) 0.34846(7)
O1 O 0.0042(3) 0.1004(3) 0.5568(2)
O2 O 0.2335(4) -0.1097(3) 0.6331(2)
O3 O 0.4569(6) 0.0756(5) 0.9040(3)
O4 O 0.6357(5) 0.0429(5) 0.7477(4)
O5 O 0.4250(5) 0.2770(4) 0.7379(3)
O6 O -0.0049(4) -0.4018(3) 0.5678(2)
O7 O -0.2580(3) -0.4315(3) 0.5258(2)
O8 O -0.6378(5) 0.0619(4) 0.3961(3)
O9 O -0.4619(5) 0.1133(4) 0.2316(3)
O10 O -0.3910(5) 0.1585(4) 0.3873(3)
O11 O -0.3780(4) 0.3083(3) 0.5196(2)
O12 O -0.1614(4) 0.2758(3) 0.7114(2)
O13 O 0.1779(5) -0.1504(4) 0.4296(2)
O14 O 0.3883(4) -0.4291(3) 0.6130(3)
N1 N 0.1950(4) 0.2735(3) 0.5632(3)
H1 H 0.2512 0.2962 0.4988
H2 H 0.2153 0.3253 0.6013
N2 N -0.1859(4) -0.1218(3) 0.5682(2)
H3 H -0.2403 -0.1151 0.6312
H4 H -0.1973 -0.0294 0.5235
N3 N -0.0751(5) 0.4097(4) 0.3530(3)
N4 N 0.0775(5) 0.6537(4) -0.2153(3)
C1 C 0.1613(5) 0.0294(4) 0.6014(3)
C2 C 0.2772(5) 0.1131(4) 0.6228(3)
H5 H 0.4036 0.0770 0.5972
C3 C 0.2843(5) 0.0791(4) 0.7450(3)
H6 H 0.2998 -0.0251 0.7810
H7 H 0.1664 0.1360 0.7673
C4 C -0.1732(5) -0.3533(4) 0.5409(3)
C5 C -0.2830(5) -0.1881(4) 0.5192(3)
H8 H -0.4072 -0.1777 0.5500
C6 C -0.2998(6) -0.1150(4) 0.3952(3)
H9 H -0.3371 -0.1762 0.3651
H10 H -0.1782 -0.1130 0.3671
C7 C -0.0212(8) 0.3154(6) 0.2974(4)
H11 H -0.0047 0.2158 0.3346
C8 C 0.0110(9) 0.3580(6) 0.1882(4)
H12 H 0.0495 0.2872 0.1536
C9 C -0.0128(6) 0.5043(5) 0.1288(3)
C10 C -0.0687(11) 0.6015(6) 0.1839(4)
H13 H -0.0890 0.7019 0.1477
C11 C -0.0954(11) 0.5505(6) 0.2943(4)
H14 H -0.1302 0.6194 0.3305
C12 C 0.0196(6) 0.5555(5) 0.0093(3)
C13 C 0.0869(8) 0.4587(6) -0.0502(4)
H15 H 0.1141 0.3573 -0.0153
C14 C 0.1131(8) 0.5116(6) -0.1590(4)
H16 H 0.1587 0.4438 -0.1958
C15 C 0.0134(7) 0.7488(5) -0.1612(3)
H17 H -0.0123 0.8493 -0.1993
C16 C -0.0172(7) 0.7046(5) -0.0499(4)
H18 H -0.0623 0.7751 -0.0153
H27 H -0.3570 0.2653 0.4720
H30 H -0.3966 0.2534 0.5826
H31 H 0.2229 -0.1887 0.3807
H32 H 0.2175 -0.0843 0.4343
H33 H 0.4884 -0.4117 0.5910
H34 H 0.4005 -0.5183 0.6511
H35 H -0.2043 0.3458 0.7378
H36 H -0.2115 0.2086 0.7292
Mn1_2 Mn -0.11134(6) -0.66129(5) 0.53511(4)
Mn2_2 Mn 0.12168(6) 0.74413(5) -0.39955(4)
O7_2 O -0.2580(3) 0.5685(3) 0.5258(2)
N4_2 N 0.0775(5) -0.3463(4) 0.7847(3)
O15 O 0.7286(6) 0.9775(5) 0.0723(4)
H28 H 0.8499 0.9279 0.0743
H29 H 0.6989 1.0511 0.0939
N5 N 0.3170(9) 0.7193(6) 0.2773(4)
N6 N 0.6640(7) 0.4511(6) -0.1624(3)
C17 C 0.3866(9) 0.5792(7) 0.2904(4)
H19 H 0.3908 0.5132 0.3606
C18 C 0.4551(8) 0.5199(6) 0.2086(4)
H20 H 0.5023 0.4177 0.2246
C19 C 0.4529(7) 0.6134(5) 0.1029(4)
C20 C 0.3750(13) 0.7646(7) 0.0862(5)
H21 H 0.3637 0.8342 0.0170
C21 C 0.3152(14) 0.8076(8) 0.1765(6)
H22 H 0.2691 0.9089 0.1648
C22 C 0.5232(6) 0.5580(5) 0.0113(3)
C23 C 0.5673(10) 0.4113(7) 0.0214(5)
H23 H 0.5505 0.3438 0.0874
C24 C 0.6352(11) 0.3641(7) -0.0642(5)
H24 H 0.6637 0.2638 -0.0535
C25 C 0.6200(8) 0.5918(7) -0.1716(4)
H25 H 0.6357 0.6572 -0.2390
C26 C 0.5526(8) 0.6492(6) -0.0892(4)
H26 H 0.5270 0.7496 -0.1016
loop_
_geom_bond_atom_site_label_1
_geom_bond_atom_site_label_2
_geom_bond_site_symmetry_1
_geom_bond_site_symmetry_2
Mn1 O1 1_555 1_555
Mn2 O2 1_555 1_555
S1 O3 1_555 1_555
S2 O8 1_555 1_555
O1 C1 1_555 1_555
O2 C1 1_555 1_555
O4 S1 1_555 1_555
O5 S1 1_555 1_555
O6 Mn2 1_555 1_555
O7 C4 1_555 1_555
O9 S2 1_555 1_555
O10 S2 1_555 1_555
O11 Mn1 1_555 1_555
O12 Mn1 1_555 1_555
O13 Mn2 1_555 1_555
O14 Mn2 1_555 1_555
O15 H28 1_555 1_555
N1 Mn1 1_555 1_555
H1 N1 1_555 1_555
H2 N1 1_555 1_555
N2 Mn2 1_555 1_555
H3 N2 1_555 1_555
H4 N2 1_555 1_555
N3 Mn1 1_555 1_555
N4 C14 1_555 1_555
N5 C17 1_555 1_555
N6 C24 1_555 1_555
C1 C2 1_555 1_555
C2 N1 1_555 1_555
H5 C2 1_555 1_555
C3 S1 1_555 1_555
H6 C3 1_555 1_555
H7 C3 1_555 1_555
C4 O6 1_555 1_555
C5 N2 1_555 1_555
H8 C5 1_555 1_555
C6 S2 1_555 1_555
H9 C6 1_555 1_555
H10 C6 1_555 1_555
C7 N3 1_555 1_555
H11 C7 1_555 1_555
C8 C7 1_555 1_555
H12 C8 1_555 1_555
C9 C8 1_555 1_555
C10 C9 1_555 1_555
H13 C10 1_555 1_555
C11 N3 1_555 1_555
H14 C11 1_555 1_555
C12 C9 1_555 1_555
C13 C12 1_555 1_555
H15 C13 1_555 1_555
C14 C13 1_555 1_555
H16 C14 1_555 1_555
C15 N4 1_555 1_555
H17 C15 1_555 1_555
C16 C12 1_555 1_555
H18 C16 1_555 1_555
C17 H19 1_555 1_555
C18 C17 1_555 1_555
H20 C18 1_555 1_555
C19 C18 1_555 1_555
C20 C19 1_555 1_555
H21 C20 1_555 1_555
C21 N5 1_555 1_555
H22 C21 1_555 1_555
C22 C19 1_555 1_555
C23 C22 1_555 1_555
H23 C23 1_555 1_555
C24 C23 1_555 1_555
H24 C24 1_555 1_555
C25 N6 1_555 1_555
H25 C25 1_555 1_555
C26 C22 1_555 1_555
H26 C26 1_555 1_555
H27 O11 1_555 1_555
H29 O15 1_555 1_555
H30 O11 1_555 1_555
H31 O13 1_555 1_555
H32 O13 1_555 1_555
H33 O14 1_555 1_555
H34 O14 1_555 1_555
H35 O12 1_555 1_555
H36 O12 1_555 1_555
Mn1_2 O7 1_555 1_555
Mn2_2 N4 1_555 1_555
O7_2 Mn1 1_555 1_555
N4_2 Mn2 1_555 1_555
C2 C3 1_555 1_555
C4 C5 1_555 1_555
C5 C6 1_555 1_555
C10 C11 1_555 1_555
C15 C16 1_555 1_555
C20 C21 1_555 1_555
C25 C26 1_555 1_555

#END
