
#######################################################################
#
#                 Cambridge Crystallographic Data Centre
#                                CCDC 
#
#######################################################################
#
# If this CIF has been generated from an entry in the Cambridge 
# Structural Database, then it will include bibliographic, chemical, 
# crystal, experimental, refinement or atomic coordinate data resulting 
# from the CCDC's data processing and validation procedures.
#
#######################################################################

data_EZUXED
_symmetry_cell_setting           orthorhombic
_symmetry_space_group_name_H-M   'P 21 21 21'
_symmetry_Int_Tables_number      19
_space_group_name_Hall           'P 2ac 2ab'
loop_
_symmetry_equiv_pos_site_id
_symmetry_equiv_pos_as_xyz
1 x,y,z
2 1/2-x,-y,1/2+z
3 -x,1/2+y,1/2-z
4 1/2+x,1/2-y,-z
_cell_length_a                   8.6066(7)
_cell_length_b                   11.7541(10)
_cell_length_c                   19.7762(17)
_cell_angle_alpha                90
_cell_angle_beta                 90
_cell_angle_gamma                90
_cell_volume                     2000.62
loop_
_atom_site_label
_atom_site_type_symbol
_atom_site_fract_x
_atom_site_fract_y
_atom_site_fract_z
Cd1 Cd 0.46668(6) 0.72943(4) 0.45015(3)
S1 S 0.1668(4) 0.5418(3) 0.25558(15)
O1 O 0.6780(6) 0.7163(6) 0.3767(3)
O2 O 0.1983(6) 0.7524(5) 0.4694(2)
O3 O -0.0375(6) 0.7631(5) 0.4289(3)
O4 O 0.0971(13) 0.6177(11) 0.2084(4)
O5 O 0.1027(14) 0.4309(9) 0.2512(5)
O6 O 0.3328(9) 0.5412(8) 0.2518(4)
N1 N 0.4732(10) 0.5323(5) 0.4607(3)
N2 N 0.4788(8) -0.0702(5) 0.4567(3)
N3 N 0.3315(7) 0.7369(7) 0.3454(3)
H1 H 0.3479 0.8055 0.3264
H2 H 0.3718 0.6841 0.3175
C1 C 0.4973(13) 0.4712(7) 0.4043(4)
H3 H 0.5148 0.5099 0.3640
C2 C 0.4974(13) 0.3545(7) 0.4033(4)
H4 H 0.5096 0.3159 0.3626
C3 C 0.4794(10) 0.2942(6) 0.4631(4)
C4 C 0.4635(14) 0.3563(7) 0.5213(4)
H5 H 0.4544 0.3195 0.5627
C5 C 0.4608(14) 0.4742(7) 0.5185(4)
H6 H 0.4498 0.5146 0.5586
C6 C 0.4809(10) 0.1679(6) 0.4621(4)
C7 C 0.5652(13) 0.1099(7) 0.4136(5)
H7 H 0.6231 0.1491 0.3815
C8 C 0.5614(11) -0.0101(7) 0.4141(5)
H8 H 0.6210 -0.0488 0.3823
C9 C 0.3981(11) -0.0127(7) 0.5031(4)
H9 H 0.3385 -0.0540 0.5338
C10 C 0.3979(11) 0.1026(7) 0.5083(5)
H10 H 0.3422 0.1379 0.5428
C11 C 0.1056(9) 0.7483(6) 0.4215(4)
C12 C 0.1617(9) 0.7178(8) 0.3508(4)
H11 H 0.1082 0.7660 0.3177
C13 C 0.1206(9) 0.5937(7) 0.3375(4)
H12 H 0.0099 0.5840 0.3447
H13 H 0.1740 0.5470 0.3705
H14 H 0.6621 0.7199 0.3352
H15 H 0.7723 0.7339 0.3827
Cd1C Cd -0.03332(6) 0.77057(4) 0.54985(3)
Cd1_2 Cd 0.46668(6) -0.27057(4) 0.45015(3)
O3C O 0.4625(6) 0.7369(5) 0.5711(3)
N2_2 N 0.4788(8) 0.9298(5) 0.4567(3)
O7 O 0.1641(12) 0.8501(9) 0.1800(5)
H16 H 0.0696 0.8550 0.1685
H17 H 0.1770 0.7836 0.1985
O8 O 0.6516(15) 0.7486(10) 0.2452(5)
H18 H 0.6903 0.8178 0.2386
H19 H 0.6996 0.7080 0.2198
O9 O 0.6452(14) 0.4607(12) 0.2268(6)
H20 H 0.5505 0.4793 0.2352
H21 H 0.7041 0.4230 0.2570
O10 O 0.7917 0.6223 0.1697
H22 H 0.8729 0.6228 0.1961
H23 H 0.7423 0.5674 0.1888
loop_
_geom_bond_atom_site_label_1
_geom_bond_atom_site_label_2
_geom_bond_site_symmetry_1
_geom_bond_site_symmetry_2
Cd1 O1 1_555 1_555
S1 O4 1_555 1_555
O1 H14 1_555 1_555
O2 Cd1 1_555 1_555
O3 C11 1_555 1_555
O5 S1 1_555 1_555
O6 S1 1_555 1_555
O7 H16 1_555 1_555
O8 H18 1_555 1_555
O9 H20 1_555 1_555
O10 H22 1_555 1_555
N1 Cd1 1_555 1_555
N2 C8 1_555 1_555
N3 Cd1 1_555 1_555
H1 N3 1_555 1_555
H2 N3 1_555 1_555
C1 N1 1_555 1_555
H3 C1 1_555 1_555
C2 C1 1_555 1_555
H4 C2 1_555 1_555
C3 C2 1_555 1_555
C4 C3 1_555 1_555
H5 C4 1_555 1_555
C5 N1 1_555 1_555
H6 C5 1_555 1_555
C6 C3 1_555 1_555
C7 C6 1_555 1_555
H7 C7 1_555 1_555
C8 C7 1_555 1_555
H8 C8 1_555 1_555
C9 N2 1_555 1_555
H9 C9 1_555 1_555
C10 C6 1_555 1_555
H10 C10 1_555 1_555
C11 O2 1_555 1_555
C12 N3 1_555 1_555
H11 C12 1_555 1_555
C13 S1 1_555 1_555
H12 C13 1_555 1_555
H13 C13 1_555 1_555
H15 O1 1_555 1_555
H17 O7 1_555 1_555
H19 O8 1_555 1_555
H21 O9 1_555 1_555
H23 O10 1_555 1_555
Cd1C O3 1_555 1_555
Cd1_2 N2 1_555 1_555
O3C Cd1 1_555 1_555
N2_2 Cd1 1_555 1_555
C4 C5 1_555 1_555
C9 C10 1_555 1_555
C11 C12 1_555 1_555
C12 C13 1_555 1_555

#END
