
#######################################################################
#
#                 Cambridge Crystallographic Data Centre
#                                CCDC 
#
#######################################################################
#
# If this CIF has been generated from an entry in the Cambridge 
# Structural Database, then it will include bibliographic, chemical, 
# crystal, experimental, refinement or atomic coordinate data resulting 
# from the CCDC's data processing and validation procedures.
#
#######################################################################

data_EZUXIH
_symmetry_cell_setting           orthorhombic
_symmetry_space_group_name_H-M   'P b c a'
_symmetry_Int_Tables_number      61
_space_group_name_Hall           '-P 2ac 2ab'
loop_
_symmetry_equiv_pos_site_id
_symmetry_equiv_pos_as_xyz
1 x,y,z
2 1/2-x,-y,1/2+z
3 -x,1/2+y,1/2-z
4 1/2+x,1/2-y,-z
5 -x,-y,-z
6 1/2+x,y,1/2-z
7 x,1/2-y,1/2+z
8 1/2-x,1/2+y,z
_cell_length_a                   19.244(3)
_cell_length_b                   18.468(3)
_cell_length_c                   19.444(3)
_cell_angle_alpha                90
_cell_angle_beta                 90
_cell_angle_gamma                90
_cell_volume                     6910.36
loop_
_atom_site_label
_atom_site_type_symbol
_atom_site_fract_x
_atom_site_fract_y
_atom_site_fract_z
Ni1 Ni 0.62423(3) 0.46314(3) 0.21903(3)
Ni2 Ni 0.24244(3) 0.87763(3) 0.02538(3)
C1 C 0.5448(3) 0.5483(3) 0.1137(3)
H1 H 0.5727 0.5232 0.0827
C2 C 0.4990(3) 0.6001(3) 0.0875(3)
H2 H 0.4966 0.6084 0.0403
C3 C 0.4568(2) 0.6396(2) 0.1326(2)
C4 C 0.4635(3) 0.6226(3) 0.2007(2)
H3 H 0.4365 0.6466 0.2331
C5 C 0.5103(3) 0.5699(3) 0.2217(3)
H4 H 0.5133 0.5600 0.2685
C6 C 0.4068(2) 0.6970(2) 0.1083(2)
C7 C 0.3551(2) 0.7257(2) 0.1493(3)
H5 H 0.3514 0.7106 0.1948
C8 C 0.3087(2) 0.7764(2) 0.1240(2)
H6 H 0.2744 0.7940 0.1534
C9 C 0.3607(3) 0.7754(3) 0.0204(3)
H7 H 0.3636 0.7922 -0.0246
C10 C 0.4095(3) 0.7245(3) 0.0423(3)
H8 H 0.4440 0.7089 0.0122
C11 C 0.8005(3) 0.5227(3) 0.4866(2)
C12 C 0.7555(3) 0.5240(3) 0.4223(3)
H9 H 0.7876 0.5179 0.3836
C13 C 0.7215(4) 0.5936(3) 0.4112(3)
H10 H 0.7546 0.6315 0.4222
H11 H 0.6834 0.5976 0.4436
C14 C 0.5400(3) 0.4208(3) 0.3396(3)
H12 H 0.5642 0.4586 0.3601
C15 C 0.4934(3) 0.3822(3) 0.3794(3)
H13 H 0.4877 0.3938 0.4256
C16 C 0.4543(2) 0.3252(2) 0.3501(2)
C17 C 0.4663(3) 0.3127(3) 0.2821(3)
H14 H 0.4413 0.2772 0.2589
C18 C 0.5155(3) 0.3530(3) 0.2479(3)
H15 H 0.5239 0.3413 0.2021
C19 C 0.4027(2) 0.2822(2) 0.3907(2)
C20 C 0.3962(3) 0.2896(3) 0.4606(3)
H16 H 0.4226 0.3240 0.4838
C21 C 0.3508(3) 0.2464(3) 0.4963(3)
H17 H 0.3469 0.2537 0.5435
H18 H 0.2888 0.1534 0.3791
H19 H 0.3605 0.2238 0.3126
C22 C 0.3164(3) 0.1880(3) 0.4006(3)
C23 C 0.3600(3) 0.2302(3) 0.3600(2)
C24 C 0.7574(3) 0.4060(3) 0.2340(3)
C25 C 0.7681(2) 0.4593(3) 0.1747(3)
H20 H 0.7681 0.4300 0.1326
C26 C 0.8363(3) 0.4946(3) 0.1774(3)
H21 H 0.8704 0.4580 0.1892
H22 H 0.8355 0.5292 0.2149
N1 N 0.3105(2) 0.80128(19) 0.06003(18)
N2 N 0.55100(18) 0.53269(19) 0.17976(18)
N3 N 0.7102(2) 0.45712(19) 0.4224(2)
H23 H 0.7022 0.4427 0.3789
H24 H 0.6690 0.4673 0.4421
N4 N 0.55217(19) 0.4072(2) 0.27449(19)
N5 N 0.3116(2) 0.1945(2) 0.46789(19)
N6 N 0.70569(18) 0.5076(2) 0.16961(19)
H25 H 0.6948 0.5145 0.1251
H26 H 0.7155 0.5510 0.1883
O1 O 0.80842(16) 0.46028(16) 0.51623(15)
O2 O 0.8275(2) 0.5797(2) 0.5063(2)
O3 O 0.7432(2) 0.6142(2) 0.2777(2)
O4 O 0.63918(17) 0.55150(17) 0.31397(17)
O5 O 0.6536(2) 0.6807(2) 0.3370(2)
O6 O 0.69794(17) 0.40547(18) 0.26214(17)
O7 O 0.8066(2) 0.3662(2) 0.2507(2)
O8 O 0.8665(2) 0.4907(2) 0.0461(2)
O9 O 0.9362(2) 0.5636(2) 0.1228(3)
O10 O 0.81964(18) 0.60215(18) 0.0915(2)
O11 O 0.1602(2) 0.8726(2) 0.1142(2)
H27 H 0.1633 0.8932 0.1525
H28 H 0.1205 0.8779 0.0982
H29 H 0.6470 0.3820 0.0955
H30 H 0.6098 0.3317 0.1283
O12 O 0.61578(19) 0.37525(19) 0.12353(18)
S1 S 0.68832(7) 0.61058(6) 0.32744(7)
S2 S 0.86675(7) 0.54074(8) 0.10228(8)
Ni2B Ni 0.75756(3) 0.37763(3) 0.47462(3)
Ni2A Ni 0.25756(3) 0.12237(3) 0.52538(3)
N3B N 0.2898(2) 0.95712(19) 0.0776(2)
H23B H 0.2978 0.9427 0.1211
H24B H 0.3310 0.9673 0.0579
N5A N 0.1884(2) 0.8055(2) -0.03211(19)
O1B O 0.19158(16) 0.96028(16) -0.01623(15)
O13 O 0.8431(5) 0.7626(3) 0.6728(3)
H31 H 0.8339 0.7964 0.6470
H32 H 0.8848 0.7535 0.6732
O14 O 0.4839(3) 0.3060(3) 0.6222(3)
H33 H 0.4411 0.3082 0.6311
H34 H 0.4913 0.3256 0.5834
O15 O 0.4768(2) 0.1602(3) 0.5785(2)
H35 H 0.4850 0.2092 0.5633
H36 H 0.5169 0.1483 0.5930
loop_
_geom_bond_atom_site_label_1
_geom_bond_atom_site_label_2
_geom_bond_site_symmetry_1
_geom_bond_site_symmetry_2
Ni1 N2 1_555 1_555
Ni2 N1 1_555 1_555
C1 H1 1_555 1_555
C2 C1 1_555 1_555
H2 C2 1_555 1_555
C3 C2 1_555 1_555
C4 C3 1_555 1_555
H3 C4 1_555 1_555
C5 C4 1_555 1_555
H4 C5 1_555 1_555
C6 C3 1_555 1_555
C7 C6 1_555 1_555
H5 C7 1_555 1_555
C8 C7 1_555 1_555
H6 C8 1_555 1_555
C9 H7 1_555 1_555
C10 C6 1_555 1_555
H8 C10 1_555 1_555
C11 C12 1_555 1_555
C12 H9 1_555 1_555
C13 C12 1_555 1_555
H10 C13 1_555 1_555
H11 C13 1_555 1_555
C14 H12 1_555 1_555
C15 C14 1_555 1_555
H13 C15 1_555 1_555
C16 C15 1_555 1_555
C17 C16 1_555 1_555
H14 C17 1_555 1_555
C18 C17 1_555 1_555
H15 C18 1_555 1_555
C19 C16 1_555 1_555
C20 C19 1_555 1_555
H16 C20 1_555 1_555
C21 C20 1_555 1_555
H17 C21 1_555 1_555
H18 C22 1_555 1_555
H19 C23 1_555 1_555
C22 C23 1_555 1_555
C23 C19 1_555 1_555
C24 C25 1_555 1_555
C25 H20 1_555 1_555
C26 C25 1_555 1_555
H21 C26 1_555 1_555
H22 C26 1_555 1_555
N1 C8 1_555 1_555
N2 C1 1_555 1_555
N3 C12 1_555 1_555
H23 N3 1_555 1_555
H24 N3 1_555 1_555
N4 Ni1 1_555 1_555
N5 C21 1_555 1_555
N6 Ni1 1_555 1_555
H25 N6 1_555 1_555
H26 N6 1_555 1_555
O1 C11 1_555 1_555
O2 C11 1_555 1_555
O3 S1 1_555 1_555
O4 Ni1 1_555 1_555
O5 S1 1_555 1_555
O6 Ni1 1_555 1_555
O7 C24 1_555 1_555
O8 S2 1_555 1_555
O9 S2 1_555 1_555
O10 S2 1_555 1_555
O11 Ni2 1_555 1_555
H27 O11 1_555 1_555
H28 O11 1_555 1_555
H29 O12 1_555 1_555
H30 O12 1_555 1_555
O12 Ni1 1_555 1_555
O13 H31 1_555 1_555
H32 O13 1_555 1_555
O14 H33 1_555 1_555
H34 O14 1_555 1_555
O15 H35 1_555 1_555
H36 O15 1_555 1_555
S1 C13 1_555 1_555
S2 C26 1_555 1_555
Ni2B N3 1_555 1_555
Ni2A N5 1_555 1_555
N3B Ni2 1_555 1_555
H23B N3B 1_555 1_555
H24B N3B 1_555 1_555
N5A Ni2 1_555 1_555
O1B Ni2 1_555 1_555
C5 N2 1_555 1_555
C9 C10 1_555 1_555
C9 N1 1_555 1_555
C14 N4 1_555 1_555
C18 N4 1_555 1_555
C22 N5 1_555 1_555
C24 O6 1_555 1_555
C25 N6 1_555 1_555
O1 Ni2B 1_555 1_555
O4 S1 1_555 1_555

#END
