
#######################################################################
#
#                 Cambridge Crystallographic Data Centre
#                                CCDC 
#
#######################################################################
#
# If this CIF has been generated from an entry in the Cambridge 
# Structural Database, then it will include bibliographic, chemical, 
# crystal, experimental, refinement or atomic coordinate data resulting 
# from the CCDC's data processing and validation procedures.
#
#######################################################################

data_EZUZOO
_symmetry_cell_setting           monoclinic
_symmetry_space_group_name_H-M   'P 21/n'
_symmetry_Int_Tables_number      14
_space_group_name_Hall           '-P 2yn'
loop_
_symmetry_equiv_pos_site_id
_symmetry_equiv_pos_as_xyz
1 x,y,z
2 1/2+x,1/2-y,1/2+z
3 -x,-y,-z
4 1/2-x,1/2+y,1/2-z
_cell_length_a                   11.1165(7)
_cell_length_b                   24.5625(17)
_cell_length_c                   11.4332(8)
_cell_angle_alpha                90
_cell_angle_beta                 111.6840(10)
_cell_angle_gamma                90
_cell_volume                     2900.91
loop_
_atom_site_label
_atom_site_type_symbol
_atom_site_fract_x
_atom_site_fract_y
_atom_site_fract_z
Cu1 Cu 0.72801(4) 0.153216(18) 0.50223(4)
Cu2 Cu 1.00874(4) 0.152125(18) 0.77228(4)
O1 O 0.7025(3) 0.19570(14) 0.6357(3)
O2 O 0.8835(3) 0.19843(13) 0.8089(3)
O3 O 0.5311(3) 0.29867(13) 1.1473(3)
O4 O 0.3502(3) 0.29539(13) 0.9752(3)
N1 N 0.9867(4) 0.09522(16) 0.8894(4)
N2 N 1.1248(4) 0.09639(18) 0.7377(4)
N3 N 1.1883(4) 0.17338(18) 0.9358(4)
N4 N 0.6164(4) 0.09392(16) 0.5301(4)
N5 N 0.5455(4) 0.17698(19) 0.3459(4)
N6 N 0.7482(4) 0.10109(19) 0.3750(4)
H1 H 0.9061(17) 0.097(2) 0.882(5)
H2 H 1.116(6) 0.091(3) 0.660(2)
H3 H 1.222(6) 0.2057(12) 0.946(6)
H4 H 0.627(6) 0.092(3) 0.6096(18)
H5 H 0.502(10) 0.207(3) 0.339(11)
H6 H 0.827(2) 0.106(2) 0.379(6)
C1 C 0.7641(4) 0.20454(16) 0.7504(4)
C2 C 0.6866(4) 0.22408(16) 0.8255(4)
C3 C 0.5557(4) 0.2345(2) 0.7663(4)
H7 H 0.5159 0.2293 0.6799
C4 C 0.4839(4) 0.2526(2) 0.8347(4)
H8 H 0.3957 0.2592 0.7943
C5 C 0.5426(4) 0.26099(15) 0.9631(3)
C6 C 0.6723(4) 0.2495(2) 1.0217(4)
H9 H 0.7122 0.2547 1.1081
C7 C 0.7444(4) 0.2305(2) 0.9542(4)
H10 H 0.8315 0.2221 0.9954
C8 C 0.4684(4) 0.28690(16) 1.0339(4)
C9 C 1.0058(7) 0.0424(2) 0.8389(7)
H11 H 1.0269 0.0155 0.9055
H12 H 0.9252 0.0314 0.7734
C10 C 1.1076(7) 0.0428(2) 0.7874(7)
H13 H 1.0872 0.0161 0.7204
H14 H 1.1886 0.0321 0.8528
C11 C 1.2561(6) 0.1181(3) 0.7896(7)
H15 H 1.3163 0.0892 0.7918
H16 H 1.2648 0.1462 0.7337
C12 C 1.2915(5) 0.1405(3) 0.9143(6)
H17 H 1.3672 0.1634 0.9312
H18 H 1.3157 0.1109 0.9746
C13 C 1.1515(7) 0.1551(3) 1.0400(5)
H19 H 1.2296 0.1508 1.1142
H20 H 1.0999 0.1834 1.0579
C14 C 1.0791(7) 0.1044(3) 1.0189(5)
H21 H 1.0319 0.1034 1.0752
H22 H 1.1404 0.0745 1.0418
C15 C 0.4817(5) 0.1100(3) 0.4716(10)
H23 H 0.4316 0.0772 0.4398
H24 H 0.4550 0.1242 0.5374
C16 C 0.4456(5) 0.1478(3) 0.3742(7)
H25 H 0.3913 0.1748 0.3927
H26 H 0.3919 0.1291 0.2981
C17 C 0.5677(9) 0.1581(4) 0.2365(6)
H27 H 0.4857 0.1450 0.1769
H28 H 0.5917 0.1895 0.1983
C18 C 0.6594(11) 0.1178(5) 0.2493(6)
H29 H 0.7121 0.1296 0.2027
H30 H 0.6132 0.0855 0.2074
C19 C 0.7218(8) 0.0463(2) 0.4089(10)
H31 H 0.6799 0.0259 0.3319
H32 H 0.8039 0.0287 0.4545
C20 C 0.6439(8) 0.0426(2) 0.4826(8)
H33 H 0.6868 0.0188 0.5536
H34 H 0.5624 0.0256 0.4322
O4A O 0.8502(3) 0.20461(13) 0.4752(3)
O3A O 1.0311(3) 0.20133(13) 0.6473(3)
Cu2A Cu 0.50874(4) 0.347875(18) 1.27228(4)
Cu1A Cu 0.22801(4) 0.346784(18) 1.00223(4)
Cl1 Cl 0.09821(12) 0.08943(5) 0.38860(12)
O5 O 0.1667(5) 0.05630(19) 0.3345(5)
O6 O 0.1871(6) 0.1240(3) 0.4796(6)
O7 O 0.0408(6) 0.0569(3) 0.4565(5)
O8 O -0.0041(6) 0.1156(3) 0.2944(6)
Cl2 Cl 0.63739(14) 0.04723(7) 0.86613(14)
O9 O 0.7002(7) 0.0811(4) 0.8090(7)
O10 O 0.5772(10) 0.0717(5) 0.9365(10)
O11 O 0.5200(7) 0.0423(6) 0.7611(8)
O12 O 0.674(3) -0.0062(5) 0.896(2)
O13? O 0.628(3) -0.0032(11) 0.829(2)
O14? O 0.7497(14) 0.0452(7) 0.9817(14)
loop_
_geom_bond_atom_site_label_1
_geom_bond_atom_site_label_2
_geom_bond_site_symmetry_1
_geom_bond_site_symmetry_2
Cu1 O1 1_555 1_555
Cu2 O2 1_555 1_555
O1 C1 1_555 1_555
O2 C1 1_555 1_555
O3 C8 1_555 1_555
O4 C8 1_555 1_555
N1 Cu2 1_555 1_555
N2 Cu2 1_555 1_555
N3 Cu2 1_555 1_555
N4 Cu1 1_555 1_555
N5 Cu1 1_555 1_555
N6 Cu1 1_555 1_555
H1 N1 1_555 1_555
H2 N2 1_555 1_555
H3 N3 1_555 1_555
H4 N4 1_555 1_555
H5 N5 1_555 1_555
H6 N6 1_555 1_555
C1 C2 1_555 1_555
C2 C3 1_555 1_555
C3 H7 1_555 1_555
C4 C3 1_555 1_555
H8 C4 1_555 1_555
C5 C4 1_555 1_555
C6 C5 1_555 1_555
H9 C6 1_555 1_555
C7 C2 1_555 1_555
H10 C7 1_555 1_555
C8 C5 1_555 1_555
C9 N1 1_555 1_555
H11 C9 1_555 1_555
H12 C9 1_555 1_555
C10 N2 1_555 1_555
H13 C10 1_555 1_555
H14 C10 1_555 1_555
C11 N2 1_555 1_555
H15 C11 1_555 1_555
H16 C11 1_555 1_555
C12 N3 1_555 1_555
H17 C12 1_555 1_555
H18 C12 1_555 1_555
C13 N3 1_555 1_555
H19 C13 1_555 1_555
H20 C13 1_555 1_555
C14 N1 1_555 1_555
H21 C14 1_555 1_555
H22 C14 1_555 1_555
C15 N4 1_555 1_555
H23 C15 1_555 1_555
H24 C15 1_555 1_555
C16 N5 1_555 1_555
H25 C16 1_555 1_555
H26 C16 1_555 1_555
C17 N5 1_555 1_555
H27 C17 1_555 1_555
H28 C17 1_555 1_555
C18 N6 1_555 1_555
H29 C18 1_555 1_555
H30 C18 1_555 1_555
C19 N6 1_555 1_555
H31 C19 1_555 1_555
H32 C19 1_555 1_555
C20 N4 1_555 1_555
H33 C20 1_555 1_555
H34 C20 1_555 1_555
Cl1 O5 1_555 1_555
O6 Cl1 1_555 1_555
O7 Cl1 1_555 1_555
O8 Cl1 1_555 1_555
Cl2 O9 1_555 1_555
O10 Cl2 1_555 1_555
O11 Cl2 1_555 1_555
O12 Cl2 1_555 1_555
O4A Cu1 1_555 1_555
O3A Cu2 1_555 1_555
Cu2A O3 1_555 1_555
Cu1A O4 1_555 1_555
C6 C7 1_555 1_555
C9 C10 1_555 1_555
C11 C12 1_555 1_555
C13 C14 1_555 1_555
C15 C16 1_555 1_555
C17 C18 1_555 1_555
C19 C20 1_555 1_555

#END
