
#######################################################################
#
#                 Cambridge Crystallographic Data Centre
#                                CCDC 
#
#######################################################################
#
# If this CIF has been generated from an entry in the Cambridge 
# Structural Database, then it will include bibliographic, chemical, 
# crystal, experimental, refinement or atomic coordinate data resulting 
# from the CCDC's data processing and validation procedures.
#
#######################################################################

data_EZUZUU
_symmetry_cell_setting           monoclinic
_symmetry_space_group_name_H-M   'P c'
_symmetry_Int_Tables_number      7
_space_group_name_Hall           'P -2yc'
loop_
_symmetry_equiv_pos_site_id
_symmetry_equiv_pos_as_xyz
1 x,y,z
2 x,-y,1/2+z
_cell_length_a                   7.1711(14)
_cell_length_b                   7.5961(15)
_cell_length_c                   17.751(4)
_cell_angle_alpha                90.00
_cell_angle_beta                 90.10(3)
_cell_angle_gamma                90.00
_cell_volume                     966.938
loop_
_atom_site_label
_atom_site_type_symbol
_atom_site_fract_x
_atom_site_fract_y
_atom_site_fract_z
Cu1 Cu 0.3018(3) 0.09698(16) 0.91302(15)
O1 O 0.2522(16) 0.2738(14) 0.8395(6)
O2 O 0.483(2) 0.284(3) 0.7721(8)
O3 O 0.5077(19) 0.723(4) 0.5572(8)
O4 O 0.2436(17) 0.7399(15) 0.4883(9)
N1 N 0.0389(11) -0.0480(10) 0.9133(4)
H1 H -0.0578 0.0296 0.9139
N2 N 0.3691(18) -0.0990(14) 0.8322(6)
H2 H 0.4435 -0.0510 0.7961
N3 N 0.3668(19) -0.1037(17) 0.9926(8)
H3 H 0.4367 -0.0522 1.0293
C1 C 0.3144(19) 0.3129(17) 0.7826(6)
C2 C 0.2302(17) 0.4100(18) 0.7199(7)
C3 C 0.032(3) 0.419(2) 0.7204(13)
H4 H -0.0352 0.3711 0.7602
C4 C -0.056(3) 0.497(3) 0.6639(19)
H5 H -0.1845 0.4835 0.6603
C5 C 0.036(2) 0.598(3) 0.6087(14)
H6 H -0.0301 0.6680 0.5751
C6 C 0.2335(18) 0.5894(16) 0.6063(6)
C7 C 0.364(6) 0.667(3) 0.5452(14)
C8 C 0.311(3) 0.503(3) 0.6629(12)
H7 H 0.4408 0.5059 0.6640
C9 C 0.0278(19) -0.1529(18) 0.8466(7)
H8 H -0.0719 -0.1063 0.8155
H9 H -0.0079 -0.2711 0.8613
C10 C 0.205(2) -0.166(4) 0.7977(14)
H10 H 0.2250 -0.2887 0.7849
H11 H 0.1831 -0.1025 0.7511
C11 C 0.466(3) -0.239(3) 0.8682(8)
H12 H 0.5905 -0.2463 0.8468
H13 H 0.4029 -0.3486 0.8563
C12 C 0.486(3) -0.2262(19) 0.9551(9)
H14 H 0.4627 -0.3420 0.9762
H15 H 0.6138 -0.1955 0.9668
C13 C 0.1999(19) -0.164(2) 1.0277(10)
H16 H 0.1763 -0.0914 1.0717
H17 H 0.2188 -0.2835 1.0448
C14 C 0.027(2) -0.159(2) 0.9768(7)
H18 H 0.0023 -0.2777 0.9595
H19 H -0.0784 -0.1218 1.0069
O4A O 0.2436(17) 0.2601(15) 0.9883(9)
Cu1A Cu 0.3018(3) 0.90302(16) 0.41302(15)
O5 O 0.705(3) 0.213(3) 0.936(2)
C15 C 0.787(5) 0.351(3) 0.9054(18)
O6 O 0.766(5) 0.187(3) 0.8696(14)
loop_
_geom_bond_atom_site_label_1
_geom_bond_atom_site_label_2
_geom_bond_site_symmetry_1
_geom_bond_site_symmetry_2
Cu1 O1 1_555 1_555
O1 C1 1_555 1_555
O2 C1 1_555 1_555
O3 C7 1_555 1_555
O4 C7 1_555 1_555
N1 Cu1 1_555 1_555
H1 N1 1_555 1_555
N2 Cu1 1_555 1_555
H2 N2 1_555 1_555
N3 Cu1 1_555 1_555
H3 N3 1_555 1_555
C1 C2 1_555 1_555
C2 C3 1_555 1_555
C3 H4 1_555 1_555
C4 C3 1_555 1_555
H5 C4 1_555 1_555
C5 C4 1_555 1_555
H6 C5 1_555 1_555
C6 C5 1_555 1_555
C7 C6 1_555 1_555
C8 C2 1_555 1_555
H7 C8 1_555 1_555
C9 N1 1_555 1_555
H8 C9 1_555 1_555
H9 C9 1_555 1_555
C10 N2 1_555 1_555
H10 C10 1_555 1_555
H11 C10 1_555 1_555
C11 N2 1_555 1_555
H12 C11 1_555 1_555
H13 C11 1_555 1_555
C12 N3 1_555 1_555
H14 C12 1_555 1_555
H15 C12 1_555 1_555
C13 N3 1_555 1_555
H16 C13 1_555 1_555
H17 C13 1_555 1_555
C14 N1 1_555 1_555
H18 C14 1_555 1_555
H19 C14 1_555 1_555
O5 C15 1_555 1_555
O4A Cu1 1_555 1_555
Cu1A O4 1_555 1_555
C6 C8 1_555 1_555
C9 C10 1_555 1_555
C11 C12 1_555 1_555
C13 C14 1_555 1_555

#END
