
#######################################################################
#
#                 Cambridge Crystallographic Data Centre
#                                CCDC 
#
#######################################################################
#
# If this CIF has been generated from an entry in the Cambridge 
# Structural Database, then it will include bibliographic, chemical, 
# crystal, experimental, refinement or atomic coordinate data resulting 
# from the CCDC's data processing and validation procedures.
#
#######################################################################

data_FABBIV
_symmetry_cell_setting           monoclinic
_symmetry_space_group_name_H-M   'P 21/c'
_symmetry_Int_Tables_number      14
_space_group_name_Hall           '-P 2ybc'
loop_
_symmetry_equiv_pos_site_id
_symmetry_equiv_pos_as_xyz
1 x,y,z
2 -x,1/2+y,1/2-z
3 -x,-y,-z
4 x,1/2-y,1/2+z
_cell_length_a                   10.0693(13)
_cell_length_b                   30.178(4)
_cell_length_c                   17.323(2)
_cell_angle_alpha                90
_cell_angle_beta                 102.872(2)
_cell_angle_gamma                90
_cell_volume                     5131.68
loop_
_atom_site_label
_atom_site_type_symbol
_atom_site_fract_x
_atom_site_fract_y
_atom_site_fract_z
Co1 Co 0.38321(3) 0.063702(12) 0.84575(2)
Co2 Co 0.63065(3) 0.063691(12) 0.68761(2)
S1 S 0.35235(7) 0.31288(2) 0.80465(4)
S2 S 0.56139(8) 0.31233(3) 0.64863(5)
O1 O 0.57805(16) 0.06205(6) 0.91169(11)
O2 O 0.66566(18) 0.05330(6) 0.80640(11)
O3 O 1.17044(17) 0.06454(7) 0.84089(11)
O4 O 1.30331(17) 0.05906(7) 0.95840(11)
O5 O 0.43645(16) 0.06760(6) 0.62049(10)
O6 O 0.34941(17) 0.07170(7) 0.72667(11)
O7 O -0.15502(18) 0.06648(7) 0.69436(12)
O8 O -0.28858(17) 0.06469(7) 0.57742(12)
N1 N 0.3913(2) 0.13464(8) 0.85480(13)
N2 N 0.4731(3) 0.29318(9) 0.94533(15)
N3 N 0.4721(3) 0.33831(9) 0.94225(15)
N4 N 0.3890(2) 0.49266(8) 0.82724(13)
N5 N 0.6289(2) 0.13449(8) 0.70135(13)
N6 N 0.6801(3) 0.29433(8) 0.79099(15)
N7 N 0.6763(2) 0.33935(8) 0.78609(15)
N8 N 0.6118(2) 0.49305(8) 0.66943(13)
C1 C 0.8178(2) 0.05712(8) 0.93197(15)
C2 C 0.9323(2) 0.05911(8) 0.89942(15)
H1 H 0.9227 0.0603 0.8448
C3 C 1.0617(2) 0.05935(9) 0.94962(15)
C4 C 1.0751(2) 0.05710(9) 1.03067(16)
H2 H 1.1618 0.0571 1.0635
C5 C 0.9617(3) 0.05482(10) 1.06444(16)
C6 C 0.8338(2) 0.05529(9) 1.01350(16)
H3 H 0.7568 0.0543 1.0347
C7 C 0.6775(2) 0.05753(8) 0.87904(15)
C8 C 1.1864(2) 0.06112(9) 0.91461(16)
C9 C 0.9761(3) 0.05135(11) 1.15292(17)
H4 H 0.8908 0.0585 1.1659
H5 H 1.0449 0.0716 1.1792
H6 H 1.0018 0.0217 1.1699
C10 C 0.1964(2) 0.06642(9) 0.60120(15)
C11 C 0.0820(2) 0.06763(9) 0.63417(16)
H7 H 0.0922 0.0701 0.6887
C12 C -0.0474(2) 0.06512(9) 0.58472(16)
C13 C -0.0621(3) 0.06076(10) 0.50380(17)
H8 H -0.1490 0.0591 0.4714
C14 C 0.0512(3) 0.05878(10) 0.46961(16)
C15 C 0.1796(2) 0.06179(9) 0.51992(16)
H9 H 0.2563 0.0607 0.4984
C16 C 0.3373(2) 0.06877(8) 0.65362(15)
C17 C -0.1713(2) 0.06574(9) 0.62020(17)
C18 C 0.0362(3) 0.05302(12) 0.38172(17)
H10 H 0.0212 0.0814 0.3562
H11 H -0.0400 0.0340 0.3613
H12 H 0.1177 0.0400 0.3716
C19 C 0.4598(3) 0.15457(10) 0.92060(17)
H13 H 0.5032 0.1368 0.9625
C20 C 0.4698(3) 0.19955(10) 0.92996(17)
H14 H 0.5189 0.2117 0.9771
C21 C 0.4063(3) 0.22686(10) 0.86864(17)
C22 C 0.3362(3) 0.20675(10) 0.79917(17)
H15 H 0.2935 0.2238 0.7560
C23 C 0.3312(3) 0.16115(10) 0.79553(17)
H16 H 0.2831 0.1481 0.7491
C24 C 0.4155(3) 0.27518(10) 0.87802(17)
C25 C 0.4136(3) 0.35359(10) 0.87260(17)
C26 C 0.4624(3) 0.47557(10) 0.89515(16)
H17 H 0.5086 0.4951 0.9333
C27 C 0.4731(3) 0.43116(9) 0.91146(17)
H18 H 0.5258 0.4211 0.9594
C28 C 0.4046(3) 0.40129(10) 0.85581(16)
C29 C 0.3296(3) 0.41841(10) 0.78495(17)
H19 H 0.2828 0.3995 0.7459
C30 C 0.3249(3) 0.46355(10) 0.77281(17)
H20 H 0.2751 0.4744 0.7248
C31 C 0.6811(3) 0.15539(10) 0.76940(16)
H21 H 0.7206 0.1383 0.8131
C32 C 0.6801(3) 0.20034(10) 0.77878(17)
H22 H 0.7176 0.2131 0.8277
C33 C 0.6225(3) 0.22668(9) 0.71446(17)
C34 C 0.5683(3) 0.20554(10) 0.64333(17)
H23 H 0.5287 0.2220 0.5987
C35 C 0.5737(3) 0.16030(10) 0.63936(17)
H24 H 0.5372 0.1467 0.5911
C36 C 0.6249(3) 0.27533(10) 0.72356(17)
C37 C 0.6191(3) 0.35410(10) 0.71588(17)
C38 C 0.6851(3) 0.47469(10) 0.73625(17)
H25 H 0.7378 0.4934 0.7736
C39 C 0.6870(3) 0.43042(9) 0.75266(18)
H26 H 0.7387 0.4196 0.8003
C40 C 0.6109(3) 0.40169(9) 0.69746(17)
C41 C 0.5340(3) 0.41979(10) 0.62831(17)
H27 H 0.4807 0.4017 0.5902
C42 C 0.5373(3) 0.46510(10) 0.61651(16)
H28 H 0.4855 0.4768 0.5697
Co1_2 Co 1.38321(3) 0.063702(12) 0.84575(2)
Co1A Co 0.61679(3) 0.563702(12) 0.65425(2)
Co2_2 Co -0.36935(3) 0.063691(12) 0.68761(2)
Co2A Co 0.36935(3) 0.563691(12) 0.81239(2)
O3_2 O 0.17044(17) 0.06454(7) 0.84089(11)
O4_2 O 0.30331(17) 0.05906(7) 0.95840(11)
O7_2 O 0.84498(18) 0.06648(7) 0.69436(12)
O8_2 O 0.71142(17) 0.06469(7) 0.57742(12)
N4A N 0.6110(2) -0.00734(8) 0.67276(13)
N8A N 0.3882(2) -0.00695(8) 0.83057(13)
S3 S 0.00496(9) 0.24781(3) 0.28773(6)
N9 N 0.2231(4) 0.24002(17) 0.6034(3)
N10 N 0.0359(3) 0.16808(11) 0.3362(2)
N11 N -0.0115(3) 0.16548(11) 0.2559(2)
N12 N -0.1902(4) 0.21783(16) -0.0261(2)
C43 C 0.1926(6) 0.1992(2) 0.5790(3)
H29 H 0.2106 0.1767 0.6166
C44 C 0.1357(5) 0.18729(16) 0.5016(3)
H30 H 0.1168 0.1578 0.4880
C45 C 0.1076(3) 0.22025(14) 0.4446(2)
C46 C 0.1381(4) 0.26283(15) 0.4693(2)
H31 H 0.1205 0.2861 0.4334
C47 C 0.1963(4) 0.27104(18) 0.5498(3)
H32 H 0.2167 0.3002 0.5655
C48 C 0.0499(3) 0.20883(13) 0.3610(2)
C49 C -0.0323(3) 0.20435(13) 0.2222(2)
C50 C -0.1539(5) 0.17943(18) 0.0079(3)
H33 H -0.1649 0.1544 -0.0243
C51 C -0.1006(4) 0.17346(15) 0.0879(2)
H34 H -0.0754 0.1454 0.1081
C52 C -0.0855(3) 0.20986(13) 0.1371(2)
C53 C -0.1238(3) 0.25035(14) 0.1025(2)
H35 H -0.1153 0.2759 0.1332
C54 C -0.1757(4) 0.25255(16) 0.0207(3)
H36 H -0.2014 0.2801 -0.0018
O9 O 0.0066(3) 0.14421(11) 0.7733(2)
H37 H 0.0716 0.1277 0.7943
H38 H -0.0540 0.1291 0.7437
loop_
_geom_bond_atom_site_label_1
_geom_bond_atom_site_label_2
_geom_bond_site_symmetry_1
_geom_bond_site_symmetry_2
Co1 O1 1_555 1_555
Co2 O2 1_555 1_555
S1 C24 1_555 1_555
S2 C36 1_555 1_555
O1 C7 1_555 1_555
O2 C7 1_555 1_555
O3 C8 1_555 1_555
O4 C8 1_555 1_555
O5 Co2 1_555 1_555
O6 Co1 1_555 1_555
O7 C17 1_555 1_555
O8 C17 1_555 1_555
N1 Co1 1_555 1_555
N2 N3 1_555 1_555
N3 C25 1_555 1_555
N4 C26 1_555 1_555
N5 Co2 1_555 1_555
N6 N7 1_555 1_555
N7 C37 1_555 1_555
N8 C38 1_555 1_555
C1 C2 1_555 1_555
C2 H1 1_555 1_555
C3 C2 1_555 1_555
C4 C3 1_555 1_555
H2 C4 1_555 1_555
C5 C4 1_555 1_555
C6 C1 1_555 1_555
H3 C6 1_555 1_555
C7 C1 1_555 1_555
C8 C3 1_555 1_555
C9 C5 1_555 1_555
H4 C9 1_555 1_555
H5 C9 1_555 1_555
H6 C9 1_555 1_555
C10 C11 1_555 1_555
C11 H7 1_555 1_555
C12 C11 1_555 1_555
C13 C12 1_555 1_555
H8 C13 1_555 1_555
C14 C13 1_555 1_555
C15 C10 1_555 1_555
H9 C15 1_555 1_555
C16 O5 1_555 1_555
C17 C12 1_555 1_555
C18 C14 1_555 1_555
H10 C18 1_555 1_555
H11 C18 1_555 1_555
H12 C18 1_555 1_555
C19 N1 1_555 1_555
H13 C19 1_555 1_555
C20 C19 1_555 1_555
H14 C20 1_555 1_555
C21 C20 1_555 1_555
C22 C21 1_555 1_555
H15 C22 1_555 1_555
C23 N1 1_555 1_555
H16 C23 1_555 1_555
C24 N2 1_555 1_555
C25 S1 1_555 1_555
C26 H17 1_555 1_555
C27 C26 1_555 1_555
H18 C27 1_555 1_555
C28 C25 1_555 1_555
C29 C28 1_555 1_555
H19 C29 1_555 1_555
C30 N4 1_555 1_555
H20 C30 1_555 1_555
C31 N5 1_555 1_555
H21 C31 1_555 1_555
C32 C31 1_555 1_555
H22 C32 1_555 1_555
C33 C32 1_555 1_555
C34 C33 1_555 1_555
H23 C34 1_555 1_555
C35 N5 1_555 1_555
H24 C35 1_555 1_555
C36 N6 1_555 1_555
C37 S2 1_555 1_555
C38 H25 1_555 1_555
C39 C38 1_555 1_555
H26 C39 1_555 1_555
C40 C37 1_555 1_555
C41 C40 1_555 1_555
H27 C41 1_555 1_555
C42 N8 1_555 1_555
H28 C42 1_555 1_555
S3 C48 1_555 1_555
N9 C43 1_555 1_555
N10 N11 1_555 1_555
N11 C49 1_555 1_555
N12 C50 1_555 1_555
C43 H29 1_555 1_555
C44 C43 1_555 1_555
H30 C44 1_555 1_555
C45 C44 1_555 1_555
C46 C45 1_555 1_555
H31 C46 1_555 1_555
C47 N9 1_555 1_555
H32 C47 1_555 1_555
C48 N10 1_555 1_555
C49 S3 1_555 1_555
C50 H33 1_555 1_555
C51 C50 1_555 1_555
H34 C51 1_555 1_555
C52 C49 1_555 1_555
C53 C52 1_555 1_555
H35 C53 1_555 1_555
C54 N12 1_555 1_555
H36 C54 1_555 1_555
O9 H37 1_555 1_555
H38 O9 1_555 1_555
Co1_2 O3 1_555 1_555
Co1A N8 1_555 1_555
Co2_2 O7 1_555 1_555
Co2A N4 1_555 1_555
O3_2 Co1 1_555 1_555
O4_2 Co1 1_555 1_555
O7_2 Co2 1_555 1_555
O8_2 Co2 1_555 1_555
N4A Co2 1_555 1_555
N8A Co1 1_555 1_555
O4 Co1_2 1_555 1_555
O6 C16 1_555 1_555
O8 Co2_2 1_555 1_555
C5 C6 1_555 1_555
C10 C16 1_555 1_555
C14 C15 1_555 1_555
C21 C24 1_555 1_555
C22 C23 1_555 1_555
C27 C28 1_555 1_555
C29 C30 1_555 1_555
C33 C36 1_555 1_555
C34 C35 1_555 1_555
C39 C40 1_555 1_555
C41 C42 1_555 1_555
C45 C48 1_555 1_555
C46 C47 1_555 1_555
C51 C52 1_555 1_555
C53 C54 1_555 1_555

#END
