
#######################################################################
#
#                 Cambridge Crystallographic Data Centre
#                                CCDC 
#
#######################################################################
#
# If this CIF has been generated from an entry in the Cambridge 
# Structural Database, then it will include bibliographic, chemical, 
# crystal, experimental, refinement or atomic coordinate data resulting 
# from the CCDC's data processing and validation procedures.
#
#######################################################################

data_FABBUH
_symmetry_cell_setting           monoclinic
_symmetry_space_group_name_H-M   'P 21/c'
_symmetry_Int_Tables_number      14
_space_group_name_Hall           '-P 2ybc'
loop_
_symmetry_equiv_pos_site_id
_symmetry_equiv_pos_as_xyz
1 x,y,z
2 -x,1/2+y,1/2-z
3 -x,-y,-z
4 x,1/2-y,1/2+z
_cell_length_a                   10.1889(9)
_cell_length_b                   30.705(3)
_cell_length_c                   17.2285(15)
_cell_angle_alpha                90
_cell_angle_beta                 102.4240(10)
_cell_angle_gamma                90
_cell_volume                     5263.72
loop_
_atom_site_label
_atom_site_type_symbol
_atom_site_fract_x
_atom_site_fract_y
_atom_site_fract_z
Mn1 Mn 0.36867(5) 0.936608(17) 0.81333(3)
Mn2 Mn 0.61141(4) 0.936712(17) 0.65446(3)
S1 S 0.57139(11) 1.18799(3) 0.64870(6)
S2 S 0.64008(10) 0.68747(3) 0.69623(6)
O1 O 0.3310(2) 0.94591(9) 0.68869(14)
O2 O 0.4143(2) 0.93965(8) 0.58080(14)
O3 O -0.1701(2) 0.93396(10) 0.65747(15)
O4 O -0.3001(2) 0.93968(10) 0.53954(15)
O5 O 0.5652(2) 0.93144(8) 0.88808(13)
O6 O 0.6480(2) 0.92912(8) 0.77970(14)
O7 O 1.2794(2) 0.93868(10) 0.92571(15)
O8 O 1.1490(2) 0.93335(10) 0.80851(16)
N1 N 0.6074(3) 1.01015(9) 0.67146(17)
N2 N 0.6846(3) 1.16137(10) 0.7866(2)
N3 N 0.6890(3) 1.20560(10) 0.79127(19)
N4 N 0.6291(3) 1.36291(9) 0.70119(17)
N5 N 0.5954(3) 0.86290(10) 0.64650(17)
N6 N 0.5209(4) 0.70706(11) 0.55515(19)
N7 N 0.5224(4) 0.66241(11) 0.55819(19)
N8 N 0.6007(3) 0.51068(9) 0.67386(16)
C1 C 0.3172(3) 0.94288(10) 0.6151(2)
C2 C 0.1778(3) 0.94300(11) 0.56361(19)
C3 C 0.0654(3) 0.94018(11) 0.59718(19)
H1 H 0.0755 0.9384 0.6520
C4 C -0.0624(3) 0.94010(12) 0.5478(2)
C5 C -0.0768(3) 0.94360(12) 0.4661(2)
H2 H -0.1626 0.9437 0.4337
C6 C 0.0340(3) 0.94699(13) 0.4314(2)
C7 C 0.1611(3) 0.94631(12) 0.4815(2)
H3 H 0.2367 0.9481 0.4595
C8 C -0.1855(3) 0.93772(12) 0.5835(2)
C9 C 0.0194(4) 0.95140(16) 0.3423(2)
H4 H 0.1067 0.9511 0.3298
H5 H -0.0248 0.9784 0.3248
H6 H -0.0330 0.9276 0.3160
C10 C 0.6618(3) 0.93149(10) 0.8535(2)
C11 C 0.8022(3) 0.93441(11) 0.90496(19)
C12 C 0.8196(3) 0.93898(12) 0.9864(2)
H7 H 0.7443 0.9398 1.0088
C13 C 0.9468(3) 0.94241(13) 1.0358(2)
C14 C 1.0571(3) 0.94126(13) 1.0006(2)
H8 H 1.1430 0.9435 1.0324
C15 C 1.0421(3) 0.93689(12) 0.9189(2)
C16 C 0.9143(3) 0.93392(11) 0.8702(2)
H9 H 0.9036 0.9316 0.8153
C17 C 1.1648(3) 0.93622(12) 0.8827(2)
C18 C 0.9624(4) 0.94764(15) 1.1244(2)
H10 H 0.8798 0.9582 1.1356
H11 H 1.0332 0.9680 1.1440
H12 H 0.9843 0.9200 1.1499
C19 C 0.6797(3) 1.02769(12) 0.7384(2)
H13 H 0.7281 1.0090 0.7765
C20 C 0.6869(4) 1.07147(12) 0.7543(2)
H14 H 0.7385 1.0818 0.8019
C21 C 0.6161(3) 1.10004(11) 0.6984(2)
C22 C 0.5402(4) 1.08270(13) 0.6291(2)
H15 H 0.4907 1.1009 0.5905
C23 C 0.5384(4) 1.03815(12) 0.6175(2)
H16 H 0.4874 1.0270 0.5704
C24 C 0.6275(4) 1.14706(12) 0.7161(2)
C25 C 0.6345(4) 1.22417(12) 0.7237(2)
C26 C 0.6306(3) 1.27238(12) 0.7144(2)
C27 C 0.5715(4) 1.29285(13) 0.6438(2)
H17 H 0.5313 1.2765 0.5996
C28 C 0.5730(4) 1.33749(13) 0.6401(2)
H18 H 0.5327 1.3508 0.5924
C29 C 0.6863(4) 1.34266(12) 0.7687(2)
H19 H 0.7267 1.3597 0.8119
C30 C 0.6891(4) 1.29838(12) 0.7784(2)
H20 H 0.7294 1.2860 0.8269
C31 C 0.6578(4) 0.83667(13) 0.7058(2)
H21 H 0.7060 0.8496 0.7520
C32 C 0.6548(4) 0.79201(13) 0.7021(2)
H22 H 0.6984 0.7753 0.7450
C33 C 0.5849(4) 0.77236(12) 0.6327(2)
C34 C 0.5194(4) 0.79889(13) 0.5720(2)
H23 H 0.4704 0.7867 0.5253
C35 C 0.5269(4) 0.84328(13) 0.5810(2)
H24 H 0.4821 0.8606 0.5393
C36 C 0.5774(4) 0.72451(12) 0.6228(2)
C37 C 0.5800(4) 0.64748(12) 0.6280(2)
C38 C 0.5883(4) 0.60021(12) 0.6447(2)
C39 C 0.6617(4) 0.58348(13) 0.7158(2)
H25 H 0.7087 0.6021 0.7546
C40 C 0.6645(3) 0.53917(12) 0.7285(2)
H26 H 0.7125 0.5285 0.7768
C41 C 0.5295(4) 0.52739(12) 0.6058(2)
H27 H 0.4836 0.5082 0.5677
C42 C 0.5203(4) 0.57111(12) 0.5891(2)
H28 H 0.4690 0.5810 0.5411
Mn1_2 Mn 1.36867(5) 0.936608(17) 0.81333(3)
Mn1A Mn 0.63133(5) 0.436608(17) 0.68667(3)
Mn1A_2 Mn 0.63133(5) 1.436608(17) 0.68667(3)
Mn2_2 Mn -0.38859(4) 0.936712(17) 0.65446(3)
O3_2 O 0.8299(2) 0.93396(10) 0.65747(15)
O4_2 O 0.6999(2) 0.93968(10) 0.53954(15)
O7_2 O 0.2794(2) 0.93868(10) 0.92571(15)
O8_2 O 0.1490(2) 0.93335(10) 0.80851(16)
N4A N 0.3709(3) 0.86291(9) 0.79881(17)
N8A N 0.3993(3) 1.01068(9) 0.82614(16)
S3 S 0.01335(12) 0.24559(4) 0.78759(8)
N9 N 0.2244(6) 0.2383(3) 1.1048(4)
N10 N 0.0454(5) 0.16727(16) 0.8370(3)
N11 N -0.0015(4) 0.16457(15) 0.7563(3)
N12 N -0.1789(5) 0.2145(2) 0.4731(3)
C43 C 0.1884(9) 0.1979(3) 1.0810(5)
H29 H 0.1986 0.1761 1.1193
C44 C 0.1370(7) 0.1866(2) 1.0029(4)
H30 H 0.1179 0.1577 0.9890
C45 C 0.1141(5) 0.2189(2) 0.9457(3)
C46 C 0.1470(5) 0.2606(2) 0.9693(3)
H31 H 0.1324 0.2834 0.9328
C47 C 0.2035(6) 0.2686(3) 1.0499(4)
H32 H 0.2274 0.2970 1.0653
C48 C 0.0577(4) 0.20765(18) 0.8617(3)
C49 C -0.0228(4) 0.20275(17) 0.7223(3)
C50 C -0.0761(4) 0.20757(17) 0.6369(3)
C51 C -0.0886(6) 0.17153(19) 0.5883(3)
H33 H -0.0628 0.1441 0.6092
C52 C -0.1404(7) 0.1769(2) 0.5077(4)
H34 H -0.1486 0.1522 0.4757
C53 C -0.1672(5) 0.2487(2) 0.5198(4)
H35 H -0.1946 0.2755 0.4968
C54 C -0.1157(5) 0.24740(18) 0.6025(3)
H36 H -0.1086 0.2726 0.6330
O9 O 0.0136(4) 0.14415(14) 0.2692(3)
H37 H 0.0585 0.1223 0.2905
H38 H -0.0323 0.1226 0.2475
loop_
_geom_bond_atom_site_label_1
_geom_bond_atom_site_label_2
_geom_bond_site_symmetry_1
_geom_bond_site_symmetry_2
Mn1 O1 1_555 1_555
Mn2 O2 1_555 1_555
S1 C24 1_555 1_555
S2 C36 1_555 1_555
O1 C1 1_555 1_555
O2 C1 1_555 1_555
O3 C8 1_555 1_555
O4 C8 1_555 1_555
O5 Mn1 1_555 1_555
O6 Mn2 1_555 1_555
O7 C17 1_555 1_555
O8 C17 1_555 1_555
N1 Mn2 1_555 1_555
N2 N3 1_555 1_555
N3 C25 1_555 1_555
N4 C28 1_555 1_555
N5 Mn2 1_555 1_555
N6 N7 1_555 1_555
N7 C37 1_555 1_555
N8 C40 1_555 1_555
C1 C2 1_555 1_555
C2 C3 1_555 1_555
C3 H1 1_555 1_555
C4 C3 1_555 1_555
C5 C4 1_555 1_555
H2 C5 1_555 1_555
C6 C5 1_555 1_555
C7 C2 1_555 1_555
H3 C7 1_555 1_555
C8 C4 1_555 1_555
C9 C6 1_555 1_555
H4 C9 1_555 1_555
H5 C9 1_555 1_555
H6 C9 1_555 1_555
C10 O5 1_555 1_555
C11 C10 1_555 1_555
C12 C11 1_555 1_555
H7 C12 1_555 1_555
C13 C12 1_555 1_555
C14 C13 1_555 1_555
H8 C14 1_555 1_555
C15 C14 1_555 1_555
C16 C11 1_555 1_555
H9 C16 1_555 1_555
C17 C15 1_555 1_555
C18 C13 1_555 1_555
H10 C18 1_555 1_555
H11 C18 1_555 1_555
H12 C18 1_555 1_555
C19 N1 1_555 1_555
H13 C19 1_555 1_555
C20 C19 1_555 1_555
H14 C20 1_555 1_555
C21 C20 1_555 1_555
C22 C21 1_555 1_555
H15 C22 1_555 1_555
C23 N1 1_555 1_555
H16 C23 1_555 1_555
C24 N2 1_555 1_555
C25 S1 1_555 1_555
C26 C25 1_555 1_555
C27 C26 1_555 1_555
H17 C27 1_555 1_555
C28 C27 1_555 1_555
H18 C28 1_555 1_555
C29 N4 1_555 1_555
H19 C29 1_555 1_555
C30 C26 1_555 1_555
H20 C30 1_555 1_555
C31 N5 1_555 1_555
H21 C31 1_555 1_555
C32 C31 1_555 1_555
H22 C32 1_555 1_555
C33 C32 1_555 1_555
C34 C33 1_555 1_555
H23 C34 1_555 1_555
C35 N5 1_555 1_555
H24 C35 1_555 1_555
C36 N6 1_555 1_555
C37 S2 1_555 1_555
C38 C37 1_555 1_555
C39 C38 1_555 1_555
H25 C39 1_555 1_555
C40 C39 1_555 1_555
H26 C40 1_555 1_555
C41 N8 1_555 1_555
H27 C41 1_555 1_555
C42 C38 1_555 1_555
H28 C42 1_555 1_555
S3 C48 1_555 1_555
N9 C43 1_555 1_555
N10 N11 1_555 1_555
N11 C49 1_555 1_555
N12 C52 1_555 1_555
C43 H29 1_555 1_555
C44 C43 1_555 1_555
H30 C44 1_555 1_555
C45 C44 1_555 1_555
C46 C45 1_555 1_555
H31 C46 1_555 1_555
C47 N9 1_555 1_555
H32 C47 1_555 1_555
C48 N10 1_555 1_555
C49 S3 1_555 1_555
C50 C49 1_555 1_555
C51 C50 1_555 1_555
H33 C51 1_555 1_555
C52 C51 1_555 1_555
H34 C52 1_555 1_555
C53 N12 1_555 1_555
H35 C53 1_555 1_555
C54 C50 1_555 1_555
H36 C54 1_555 1_555
O9 H37 1_555 1_555
H38 O9 1_555 1_555
Mn1_2 O7 1_555 1_555
Mn1A N8 1_555 1_555
Mn1A_2 N4 1_555 1_555
Mn2_2 O3 1_555 1_555
O3_2 Mn2 1_555 1_555
O4_2 Mn2 1_555 1_555
O7_2 Mn1 1_555 1_555
O8_2 Mn1 1_555 1_555
N4A Mn1 1_555 1_555
N8A Mn1 1_555 1_555
O4 Mn2_2 1_555 1_555
O6 C10 1_555 1_555
O8 Mn1_2 1_555 1_555
C6 C7 1_555 1_555
C15 C16 1_555 1_555
C21 C24 1_555 1_555
C22 C23 1_555 1_555
C29 C30 1_555 1_555
C33 C36 1_555 1_555
C34 C35 1_555 1_555
C41 C42 1_555 1_555
C45 C48 1_555 1_555
C46 C47 1_555 1_555
C53 C54 1_555 1_555

#END
