
#######################################################################
#
#                 Cambridge Crystallographic Data Centre
#                                CCDC 
#
#######################################################################
#
# If this CIF has been generated from an entry in the Cambridge 
# Structural Database, then it will include bibliographic, chemical, 
# crystal, experimental, refinement or atomic coordinate data resulting 
# from the CCDC's data processing and validation procedures.
#
#######################################################################

data_FABBER
_symmetry_cell_setting           triclinic
_symmetry_space_group_name_H-M   'P -1'
_symmetry_Int_Tables_number      2
_space_group_name_Hall           '-P 1'
loop_
_symmetry_equiv_pos_site_id
_symmetry_equiv_pos_as_xyz
1 x,y,z
2 -x,-y,-z
_cell_length_a                   11.9487(6)
_cell_length_b                   12.0469(6)
_cell_length_c                   14.9025(5)
_cell_angle_alpha                97.406(4)
_cell_angle_beta                 102.509(4)
_cell_angle_gamma                107.112(4)
_cell_volume                     1958.39
loop_
_atom_site_label
_atom_site_type_symbol
_atom_site_fract_x
_atom_site_fract_y
_atom_site_fract_z
C1 C 0.3306(4) 0.4800(4) 0.3204(3)
H1 H 0.3348 0.4743 0.2585
C2 C 0.3253(5) 0.5841(4) 0.3665(3)
H2 H 0.3264 0.6474 0.3365
C3 C 0.3183(4) 0.5924(4) 0.4580(3)
H3 H 0.3147 0.6618 0.4908
C4 C 0.3240(4) 0.3962(4) 0.4499(3)
H4 H 0.3249 0.3322 0.4786
C5 C 0.3168(4) 0.4967(4) 0.5009(3)
C6 C 0.3068(4) 0.4987(4) 0.6010(3)
H5 H 0.3209 0.4294 0.6212
H6 H 0.3686 0.5687 0.6425
C7 C 0.1587(4) 0.4699(4) 0.6972(3)
H7 H 0.2126 0.5330 0.7494
H8 H 0.1754 0.3974 0.7061
C8 C 0.0282(4) 0.4538(4) 0.6972(3)
H9 H -0.0252 0.3850 0.6495
H10 H 0.0088 0.5227 0.6811
C9 C 0.0051(4) 0.4377(4) 0.7919(3)
H11 H -0.0749 0.4416 0.7915
H12 H 0.0643 0.5025 0.8404
C10 C 0.0124(4) 0.3205(4) 0.8160(3)
H13 H -0.0477 0.2550 0.7685
H14 H 0.0921 0.3157 0.8166
C11 C 0.0001(4) 0.1993(4) 0.9388(3)
H15 H 0.0691 0.1839 0.9222
H16 H -0.0725 0.1335 0.9046
C12 C 0.0161(4) 0.2075(4) 1.0428(3)
C13 C 0.1254(4) 0.2139(4) 1.0999(3)
H17 H 0.1874 0.2102 1.0724
C14 C 0.0591(4) 0.2329(4) 1.2328(3)
H18 H 0.0740 0.2427 1.2977
C15 C -0.0539(5) 0.2267(5) 1.1807(3)
H19 H -0.1141 0.2312 1.2100
C16 C -0.0762(5) 0.2137(5) 1.0847(3)
H20 H -0.1518 0.2092 1.0482
C17 C 0.2407(4) 0.0587(4) 0.4044(3)
C18 C 0.1379(4) -0.0327(4) 0.4225(3)
C19 C 0.1598(4) -0.1081(4) 0.4827(3)
H21 H 0.2395 -0.1020 0.5108
C20 C 0.0653(4) -0.1916(3) 0.5011(3)
C21 C 0.0840(4) -0.2811(4) 0.5600(2)
C22 C -0.0531(4) -0.1977(3) 0.4609(3)
H22 H -0.1171 -0.2524 0.4745
C23 C -0.0781(4) -0.1232(4) 0.4004(3)
C24 C -0.2093(4) -0.1363(4) 0.3581(3)
C25 C 0.0181(4) -0.0422(4) 0.3813(3)
H23 H 0.0027 0.0068 0.3402
C26 C 0.4842(4) 0.2906(4) 0.1559(3)
C27 C 0.5569(4) 0.3829(3) 0.1136(2)
C28 C 0.6253(4) 0.3519(4) 0.0555(3)
H24 H 0.6250 0.2741 0.0438
C29 C 0.6933(4) 0.4351(3) 0.0155(3)
C30 C 0.7739(4) 0.4073(4) -0.0437(3)
C31 C 0.6942(4) 0.5506(4) 0.0343(3)
H25 H 0.7396 0.6068 0.0072
C32 C 0.6287(4) 0.5848(3) 0.0930(3)
C33 C 0.6392(4) 0.7134(4) 0.1134(3)
C34 C 0.5597(4) 0.5001(4) 0.1319(2)
H26 H 0.5149 0.5217 0.1706
N1 N 0.3300(3) 0.3873(3) 0.3599(2)
N2 N 0.1478(3) 0.2253(3) 1.1939(2)
N3 N 0.1840(3) 0.4994(3) 0.6075(2)
N4 N -0.0101(3) 0.3109(3) 0.9105(2)
O1 O 0.3465(3) 0.0638(4) 0.4424(3)
O2 O 0.2158(3) 0.1283(3) 0.3543(2)
O3 O -0.2278(3) -0.0639(3) 0.30813(19)
O4 O -0.2879(3) -0.2156(3) 0.3766(3)
O5 O 0.2909(3) 0.0644(3) 0.1877(2)
O6 O -0.0053(3) -0.3688(3) 0.55421(19)
O7 O 0.4732(3) 0.2178(3) 0.3644(2)
O8 O 0.1893(3) -0.2660(2) 0.60917(19)
H27 H 0.2370 -0.2052 0.6022
O9 O 0.5216(3) 0.8434(3) 0.3260(2)
O10 O 0.5002(3) 0.1908(3) 0.1496(2)
O11 O 0.4364(3) 0.8999(3) 0.1409(2)
O12 O 0.4105(3) 0.3179(2) 0.19587(19)
O13 O 0.6174(3) 1.0890(2) 0.28250(19)
O14 O 0.7541(3) 0.2999(3) -0.0802(2)
H28 H 0.6964 0.2570 -0.0658
O15 O 0.6952(3) 0.9840(3) 0.1299(2)
O16 O 0.8580(3) 0.4912(3) -0.0514(2)
O17 O 0.7108(3) 0.7834(3) 0.0790(3)
O18 O 0.5779(3) 0.7427(2) 0.1649(2)
Ni1 Ni 0.31312(5) 0.22544(5) 0.27699(3)
Ni2 Ni 0.60459(5) 0.91342(5) 0.22692(4)
H29 H 0.184(4) 0.569(2) 0.608(3)
H30 H 0.040(3) 0.372(3) 0.950(3)
N2_2 N 0.1478(3) 0.2253(3) 0.1939(2)
O3_2 O 0.7722(3) 0.9361(3) 0.30813(19)
Ni1_2 Ni 0.31312(5) 0.22544(5) 1.27699(3)
Ni2_2 Ni -0.39541(5) -0.08658(5) 0.22692(4)
O19 O 0.2669(5) -0.1448(5) 0.2657(5)
H31 H 0.239(7) -0.227(3) 0.239(6)
H32 H 0.329(6) -0.151(7) 0.315(5)
O20 O 0.5000 1.0000 0.0000
H33 H 0.575(8) 1.064(9) 0.031(9)
H33A H 0.425(8) 0.936(9) -0.031(9)
loop_
_geom_bond_atom_site_label_1
_geom_bond_atom_site_label_2
_geom_bond_site_symmetry_1
_geom_bond_site_symmetry_2
C1 H1 1_555 1_555
C2 C1 1_555 1_555
H2 C2 1_555 1_555
C3 C2 1_555 1_555
H3 C3 1_555 1_555
C4 H4 1_555 1_555
C5 C3 1_555 1_555
C6 C5 1_555 1_555
H5 C6 1_555 1_555
H6 C6 1_555 1_555
C7 H7 1_555 1_555
H8 C7 1_555 1_555
C8 C7 1_555 1_555
H9 C8 1_555 1_555
H10 C8 1_555 1_555
C9 C8 1_555 1_555
H11 C9 1_555 1_555
H12 C9 1_555 1_555
C10 C9 1_555 1_555
H13 C10 1_555 1_555
H14 C10 1_555 1_555
C11 H15 1_555 1_555
H16 C11 1_555 1_555
C12 C11 1_555 1_555
C13 C12 1_555 1_555
H17 C13 1_555 1_555
C14 H18 1_555 1_555
C15 C14 1_555 1_555
H19 C15 1_555 1_555
C16 C12 1_555 1_555
H20 C16 1_555 1_555
C17 C18 1_555 1_555
C18 C19 1_555 1_555
C19 H21 1_555 1_555
C20 C19 1_555 1_555
C21 C20 1_555 1_555
C22 C20 1_555 1_555
H22 C22 1_555 1_555
C23 C22 1_555 1_555
C24 C23 1_555 1_555
C25 C18 1_555 1_555
H23 C25 1_555 1_555
C26 C27 1_555 1_555
C27 C28 1_555 1_555
C28 H24 1_555 1_555
C29 C28 1_555 1_555
C30 C29 1_555 1_555
C31 C29 1_555 1_555
H25 C31 1_555 1_555
C32 C31 1_555 1_555
C33 C32 1_555 1_555
C34 C27 1_555 1_555
H26 C34 1_555 1_555
N1 C1 1_555 1_555
N2 C13 1_555 1_555
N3 C6 1_555 1_555
N4 C10 1_555 1_555
O1 C17 1_555 1_555
O2 C17 1_555 1_555
O3 C24 1_555 1_555
O4 C24 1_555 1_555
O5 Ni1 1_555 1_555
O6 C21 1_555 1_555
O7 Ni1 1_555 1_555
O8 C21 1_555 1_555
H27 O8 1_555 1_555
O9 Ni2 1_555 1_555
O10 C26 1_555 1_555
O11 Ni2 1_555 1_555
O12 C26 1_555 1_555
O13 Ni2 1_555 1_555
O14 C30 1_555 1_555
H28 O14 1_555 1_555
O15 Ni2 1_555 1_555
O16 C30 1_555 1_555
O17 C33 1_555 1_555
O18 C33 1_555 1_555
Ni1 N1 1_555 1_555
Ni2 O18 1_555 1_555
H29 N3 1_555 1_555
H30 N4 1_555 1_555
O19 H31 1_555 1_555
H32 O19 1_555 1_555
O20 H33 1_555 1_555
N2_2 Ni1 1_555 1_555
O3_2 Ni2 1_555 1_555
Ni1_2 N2 1_555 1_555
Ni2_2 O3 1_555 1_555
H33A O20 1_555 1_555
C4 C5 1_555 1_555
C4 N1 1_555 1_555
C7 N3 1_555 1_555
C11 N4 1_555 1_555
C14 N2 1_555 1_555
C15 C16 1_555 1_555
C23 C25 1_555 1_555
C32 C34 1_555 1_555
O2 Ni1 1_555 1_555
O12 Ni1 1_555 1_555

#END
