
#######################################################################
#
#                 Cambridge Crystallographic Data Centre
#                                CCDC 
#
#######################################################################
#
# If this CIF has been generated from an entry in the Cambridge 
# Structural Database, then it will include bibliographic, chemical, 
# crystal, experimental, refinement or atomic coordinate data resulting 
# from the CCDC's data processing and validation procedures.
#
#######################################################################

data_FABCUI
_symmetry_cell_setting           monoclinic
_symmetry_space_group_name_H-M   'C c'
_symmetry_Int_Tables_number      9
_space_group_name_Hall           'C -2yc'
loop_
_symmetry_equiv_pos_site_id
_symmetry_equiv_pos_as_xyz
1 x,y,z
2 x,-y,1/2+z
3 1/2+x,1/2+y,z
4 1/2+x,1/2-y,1/2+z
_cell_length_a                   31.154(4)
_cell_length_b                   18.385(3)
_cell_length_c                   26.034(4)
_cell_angle_alpha                90
_cell_angle_beta                 114.274(9)
_cell_angle_gamma                90
_cell_volume                     13593.1
loop_
_atom_site_label
_atom_site_type_symbol
_atom_site_fract_x
_atom_site_fract_y
_atom_site_fract_z
Cu1 Cu 0.499983(13) 0.01811(2) 0.499994(15)
Cu2 Cu 0.562893(14) 0.13566(2) 0.565675(17)
Cu3 Cu 0.714371(13) 0.26266(2) 1.088956(16)
Cu4 Cu 0.653166(15) 0.38685(2) 1.027447(17)
Cu5 Cu 0.487875(14) 0.49250(2) 1.001269(15)
Cu6 Cu 0.545811(17) 0.37333(2) 1.069194(17)
Cu7 Cu 0.720881(13) 0.23442(2) 1.588704(15)
Cu8 Cu 0.663557(17) 0.11891(3) 1.514170(19)
Cl1 Cl 0.57634(2) 0.04813(4) 0.49772(3)
Cl2 Cl 0.63662(2) 0.29848(4) 1.08829(3)
Cl3 Cl 0.56878(2) 0.45322(4) 1.00643(3)
Cl4 Cl 0.64343(2) 0.19994(4) 1.58669(3)
N1 N 0.45417(8) 0.06940(14) 0.43654(11)
N2 N 0.19599(9) -0.03902(15) 0.07655(11)
N3 N 0.51534(9) -0.05677(15) 0.55635(11)
N4 N 0.64004(9) -0.16909(15) 0.94209(11)
N5 N 0.57888(9) 0.08716(14) 0.63870(11)
N6 N 0.69662(9) 0.18955(14) 1.03050(11)
N7 N 0.75981(9) 0.31334(15) 1.15350(11)
N8 N 1.00460(10) 0.20029(14) 1.51996(11)
N9 N 0.63581(9) 0.34186(15) 0.95327(11)
N10 N 0.50678(9) 0.43260(15) 0.55749(11)
N11 N 0.44479(9) 0.43924(15) 0.93748(11)
N12 N 0.20507(10) 0.54784(16) 0.56569(12)
N13 N 0.57001(9) 0.42081(14) 1.14241(11)
N14 N 0.70457(9) 0.31021(15) 1.53273(11)
N15 N 0.76494(9) 0.18228(15) 1.65304(11)
N16 N 1.02052(9) 0.29161(15) 2.01478(11)
C1 C 0.46683(10) 0.10572(18) 0.40027(13)
H25 H 0.4995 0.1108 0.4093
C2 C 0.43541(11) 0.13617(18) 0.35073(13)
H26 H 0.4464 0.1617 0.3268
C3 C 0.38755(10) 0.12917(17) 0.33625(14)
C4 C 0.37435(10) 0.0938(2) 0.37447(17)
H27 H 0.3419 0.0895 0.3669
C5 C 0.40766(11) 0.06494(18) 0.42306(15)
H28 H 0.3975 0.0407 0.4483
C6 C 0.24151(13) -0.0371(2) 0.08618(15)
H29 H 0.2530 -0.0722 0.0682
C7 C 0.27277(12) 0.0135(2) 0.12101(16)
H30 H 0.3049 0.0122 0.1268
C8 C 0.25719(11) 0.06609(18) 0.14745(14)
C9 C 0.20997(12) 0.06395(19) 0.13747(15)
H31 H 0.1975 0.0989 0.1545
C10 C 0.18074(11) 0.01077(19) 0.10254(14)
H32 H 0.1486 0.0098 0.0969
C11 C 0.35141(11) 0.15674(18) 0.28019(15)
H33 H 0.3676 0.1847 0.2609
H34 H 0.3292 0.1898 0.2869
C12 C 0.32379(11) 0.09355(19) 0.24211(14)
H35 H 0.3057 0.0674 0.2600
H36 H 0.3459 0.0588 0.2370
C13 C 0.28981(12) 0.12383(19) 0.18438(15)
H37 H 0.2708 0.1635 0.1903
H38 H 0.3084 0.1447 0.1649
C14 C 0.55978(11) -0.08344(18) 0.58084(14)
H39 H 0.5835 -0.0623 0.5715
C15 C 0.57174(12) -0.14038(19) 0.61893(15)
H40 H 0.6034 -0.1567 0.6360
C16 C 0.53808(13) -0.17350(17) 0.63236(13)
C17 C 0.49290(12) -0.1454(2) 0.60784(16)
H41 H 0.4687 -0.1657 0.6167
C18 C 0.48284(12) -0.0876(2) 0.57022(15)
H42 H 0.4516 -0.0693 0.5538
C19 C 0.66872(11) -0.2008(2) 0.92167(15)
H43 H 0.7017 -0.1999 0.9439
C20 C 0.65196(11) -0.23483(18) 0.86937(14)
H44 H 0.6734 -0.2562 0.8563
C21 C 0.60385(11) -0.23760(16) 0.83618(14)
C22 C 0.57464(11) -0.2053(2) 0.85771(15)
H45 H 0.5415 -0.2058 0.8366
C23 C 0.59379(12) -0.1723(2) 0.91007(15)
H46 H 0.5730 -0.1508 0.9240
C24 C 0.55077(14) -0.23532(18) 0.67386(15)
H47 H 0.5742 -0.2670 0.6684
H48 H 0.5224 -0.2649 0.6670
C25 C 0.57106(13) -0.20687(17) 0.73456(14)
H49 H 0.5475 -0.1753 0.7399
H50 H 0.5993 -0.1770 0.7412
C26 C 0.58455(12) -0.26899(17) 0.77779(14)
H51 H 0.5565 -0.2991 0.7716
H52 H 0.6085 -0.3005 0.7732
C27 C 0.62424(11) 0.0756(2) 0.67332(15)
H53 H 0.6478 0.0907 0.6612
C28 C 0.63847(12) 0.0429(2) 0.72546(16)
H54 H 0.6710 0.0361 0.7483
C29 C 0.60505(11) 0.01988(17) 0.74450(13)
C30 C 0.55836(11) 0.0316(2) 0.70831(14)
H55 H 0.5341 0.0164 0.7190
C31 C 0.54681(11) 0.0651(2) 0.65680(14)
H56 H 0.5145 0.0728 0.6332
C32 C 0.72658(12) 0.1621(2) 1.01085(16)
H57 H 0.7576 0.1813 1.0249
C33 C 0.71476(12) 0.1070(2) 0.97107(15)
H58 H 0.7372 0.0899 0.9579
C34 C 0.67035(12) 0.07727(17) 0.95077(13)
C35 C 0.63898(12) 0.1053(2) 0.97180(16)
H59 H 0.6081 0.0859 0.9595
C36 C 0.65331(12) 0.1609(2) 1.01037(15)
H60 H 0.6313 0.1800 1.0235
C37 C 0.61985(12) -0.01236(17) 0.80232(14)
H61 H 0.6453 -0.0483 0.8091
H62 H 0.5928 -0.0379 0.8049
C38 C 0.63747(12) 0.04792(18) 0.84756(13)
H63 H 0.6635 0.0748 0.8436
H64 H 0.6115 0.0827 0.8413
C39 C 0.65482(13) 0.01720(17) 0.90733(14)
H65 H 0.6292 -0.0110 0.9111
H66 H 0.6815 -0.0162 0.9142
C40 C 0.74659(10) 0.3490(2) 1.18919(14)
H67 H 0.7139 0.3534 1.1799
C41 C 0.77775(11) 0.3798(2) 1.23870(14)
H68 H 0.7664 0.4049 1.2626
C42 C 0.82577(10) 0.37398(17) 1.25348(13)
C43 C 0.83915(10) 0.33958(18) 1.21528(15)
H69 H 0.8716 0.3362 1.2229
C44 C 0.80616(11) 0.31004(18) 1.16620(15)
H70 H 0.8165 0.2867 1.1407
C45 C 0.95945(12) 0.20854(19) 1.50964(14)
H71 H 0.9463 0.1766 1.5281
C46 C 0.93026(11) 0.26049(18) 1.47382(15)
H72 H 0.8981 0.2631 1.4679
C47 C 0.94807(10) 0.30872(17) 1.44659(13)
C48 C 0.99536(11) 0.30082(18) 1.45739(14)
H73 H 1.0094 0.3326 1.4400
C49 C 1.02209(11) 0.24676(19) 1.49348(14)
H74 H 1.0543 0.2423 1.4998
C50 C 0.86131(11) 0.40179(18) 1.30891(15)
H75 H 0.8454 0.4336 1.3263
H76 H 0.8852 0.4313 1.3024
C51 C 0.88608(11) 0.33892(18) 1.34972(14)
H77 H 0.8621 0.3066 1.3534
H78 H 0.9047 0.3099 1.3341
C52 C 0.91865(12) 0.36803(18) 1.40790(15)
H79 H 0.9398 0.4053 1.4034
H80 H 0.8994 0.3917 1.4253
C53 C 0.66720(11) 0.31582(19) 0.93527(13)
H81 H 0.6997 0.3205 0.9592
C54 C 0.65472(11) 0.28216(19) 0.88326(14)
H82 H 0.6784 0.2638 0.8726
C55 C 0.60736(11) 0.27545(16) 0.84675(13)
C56 C 0.57500(11) 0.30374(17) 0.86477(14)
H83 H 0.5423 0.3018 0.8409
C57 C 0.59007(11) 0.33498(18) 0.91773(14)
H84 H 0.5669 0.3525 0.9296
C58 C 0.55000(11) 0.40193(19) 0.57492(14)
H85 H 0.5708 0.4185 0.5590
C59 C 0.56481(12) 0.3479(2) 0.61464(14)
H86 H 0.5956 0.3283 0.6259
C60 C 0.53594(12) 0.32160(17) 0.63853(13)
C61 C 0.49115(12) 0.35207(19) 0.62060(14)
H87 H 0.4699 0.3360 0.6360
C62 C 0.47794(11) 0.40651(19) 0.57976(14)
H88 H 0.4471 0.4261 0.5671
C63 C 0.55226(13) 0.26396(17) 0.68343(13)
H89 H 0.5766 0.2335 0.6788
H90 H 0.5254 0.2322 0.6795
C64 C 0.57278(12) 0.29907(17) 0.74275(13)
H91 H 0.5985 0.3329 0.7458
H92 H 0.5479 0.3276 0.7479
C65 C 0.59187(11) 0.24179(16) 0.78915(13)
H93 H 0.5671 0.2051 0.7838
H94 H 0.6189 0.2166 0.7864
C66 C 0.46033(10) 0.40201(19) 0.90405(14)
H95 H 0.4934 0.3967 0.9160
C67 C 0.43091(11) 0.37092(18) 0.85319(14)
H96 H 0.4437 0.3449 0.8312
C68 C 0.38253(11) 0.37830(17) 0.83474(14)
C69 C 0.36651(11) 0.41487(19) 0.86991(16)
H97 H 0.3336 0.4197 0.8594
C70 C 0.39774(11) 0.44439(18) 0.91998(15)
H98 H 0.3856 0.4694 0.9431
C71 C 0.24933(15) 0.5367(3) 0.57297(17)
H99 H 0.2617 0.5659 0.5521
C72 C 0.27882(15) 0.4844(3) 0.6098(2)
H100 H 0.3103 0.4789 0.6137
C73 C 0.26169(13) 0.4412(2) 0.64011(17)
C74 C 0.21619(14) 0.4533(2) 0.63312(18)
H101 H 0.2031 0.4256 0.6539
C75 C 0.18913(12) 0.5066(2) 0.59526(18)
H102 H 0.1575 0.5133 0.5907
C76 C 0.29104(15) 0.3825(2) 0.67953(18)
H103 H 0.3106 0.3585 0.6626
H104 H 0.2699 0.3453 0.6840
C77 C 0.32326(12) 0.4123(2) 0.73778(16)
H105 H 0.3042 0.4399 0.7537
H106 H 0.3466 0.4460 0.7340
C78 C 0.34904(12) 0.34982(18) 0.77781(15)
H107 H 0.3257 0.3173 0.7827
H108 H 0.3669 0.3210 0.7610
C79 C 0.61652(11) 0.42479(18) 1.17384(14)
H109 H 0.6372 0.4054 1.1587
C80 C 0.63606(11) 0.45544(18) 1.22691(15)
H110 H 0.6693 0.4564 1.2475
C81 C 0.60694(11) 0.48478(16) 1.24993(13)
C82 C 0.55899(11) 0.48135(18) 1.21724(14)
H111 H 0.5376 0.5013 1.2310
C83 C 0.54202(11) 0.44928(18) 1.16490(14)
H112 H 0.5089 0.4472 1.1437
C84 C 0.73670(12) 0.3433(2) 1.51929(15)
H113 H 0.7685 0.3275 1.5370
C85 C 0.72563(12) 0.3992(2) 1.48086(14)
H114 H 0.7495 0.4207 1.4720
C86 C 0.68009(12) 0.42409(17) 1.45531(13)
C87 C 0.64665(12) 0.3905(2) 1.46967(15)
H115 H 0.6148 0.4061 1.4531
C88 C 0.66022(11) 0.33445(19) 1.50816(14)
H116 H 0.6370 0.3119 1.5177
C89 C 0.62642(12) 0.51582(16) 1.30859(14)
H117 H 0.6017 0.5443 1.3141
H118 H 0.6529 0.5490 1.3136
C90 C 0.64381(12) 0.45451(17) 1.35281(13)
H119 H 0.6170 0.4225 1.3487
H120 H 0.6675 0.4248 1.3462
C91 C 0.66559(13) 0.48533(18) 1.41268(14)
H121 H 0.6935 0.5152 1.4176
H122 H 0.6424 0.5170 1.4189
C92 C 0.81174(12) 0.1874(2) 1.66883(16)
H123 H 0.8233 0.2111 1.6447
C93 C 0.84349(11) 0.1589(2) 1.71965(17)
H124 H 0.8763 0.1637 1.7296
C94 C 0.82850(10) 0.12402(17) 1.75569(14)
C95 C 0.78033(11) 0.11701(19) 1.73846(14)
H125 H 0.7680 0.0915 1.7612
C96 C 0.75032(10) 0.1475(2) 1.68784(14)
H126 H 0.7174 0.1435 1.6773
C97 C 1.03409(11) 0.2494(2) 1.98198(14)
H127 H 1.0649 0.2556 1.9837
C98 C 1.00506(12) 0.19728(19) 1.94563(15)
H128 H 1.0159 0.1692 1.9227
C99 C 0.96037(12) 0.18645(18) 1.94292(15)
C100 C 0.94625(12) 0.23031(19) 1.97637(15)
H129 H 0.9156 0.2251 1.9755
C101 C 0.97678(12) 0.28160(19) 2.01096(14)
H130 H 0.9662 0.3114 2.0332
C102 C 0.86294(11) 0.09702(19) 1.81226(16)
H131 H 0.8837 0.0601 1.8067
H132 H 0.8454 0.0733 1.8319
C103 C 0.89310(12) 0.15831(19) 1.84911(15)
H133 H 0.8725 0.1947 1.8558
H134 H 0.9103 0.1828 1.8294
C104 C 0.92837(14) 0.1284(2) 1.90559(17)
H135 H 0.9109 0.1053 1.9256
H136 H 0.9478 0.0904 1.8985
Cu2_2 Cu 0.562893(14) 0.13566(2) 1.565675(17)
Cu2C Cu 1.062893(14) 0.36434(2) 2.065675(17)
Cu4B Cu 0.153166(15) -0.11315(2) 0.027447(17)
Cu5A Cu 0.487875(14) 0.50750(2) 0.501269(15)
Cu6C Cu 1.045811(17) 0.12667(2) 1.569194(17)
Cu8_2 Cu 0.663557(17) 0.11891(3) 0.514170(19)
Cu8A Cu 0.663557(17) -0.11891(3) 1.014170(19)
Cu8B Cu 0.163557(17) 0.61891(3) 0.514170(19)
Cl1_2 Cl 0.57634(2) 0.04813(4) 1.49772(3)
Cl4_2 Cl 0.64343(2) 0.19994(4) 0.58669(3)
N2B N 0.69599(9) 0.46098(15) 1.07655(11)
N4A N 0.64004(9) 0.16909(15) 1.44209(11)
N8C N 0.50460(10) 0.29971(14) 1.01996(11)
N10A N 0.50678(9) 0.56740(15) 1.05749(11)
N12B N 0.70507(10) 0.04784(16) 1.56569(12)
N16C N 0.52052(9) 0.20839(15) 0.51478(11)
O1 O 0.43503(8) 0.61168(11) 1.21356(10)
H1 H 0.4488(14) 0.6471(15) 1.2344(15)
O2 O 0.48812(8) 0.55077(12) 1.28658(10)
O3 O 0.46903(9) 0.27675(12) 1.27560(10)
O4 O 0.44257(11) 0.22573(12) 1.19040(10)
C105 C 0.45682(10) 0.55274(16) 1.23883(13)
C106 C 0.44104(9) 0.48501(15) 1.20327(12)
C107 C 0.41456(10) 0.48992(16) 1.14529(13)
H137 H 0.4043 0.5361 1.1283
C108 C 0.40304(11) 0.42760(17) 1.11230(14)
H138 H 0.3857 0.4314 1.0727
C109 C 0.41678(11) 0.35931(17) 1.13706(13)
H139 H 0.4089 0.3167 1.1144
C110 C 0.44204(10) 0.35410(16) 1.19508(13)
C111 C 0.45485(10) 0.41734(16) 1.22820(14)
H140 H 0.4730 0.4138 1.2677
C112 C 0.45315(11) 0.28162(17) 1.22427(15)
O5 O 0.46623(10) 0.11168(12) 1.24166(11)
H2 H 0.4513(15) 0.1448(18) 1.2181(16)
O6 O 0.41079(10) 0.05209(12) 1.17089(10)
O7 O 0.42963(9) -0.22523(12) 1.18130(9)
O8 O 0.46523(8) -0.27328(11) 1.26669(9)
C113 C 0.44409(12) 0.05408(16) 1.21764(14)
C114 C 0.46238(10) -0.01412(14) 1.25182(12)
C115 C 0.49332(11) -0.00865(16) 1.30840(13)
H141 H 0.5033 0.0379 1.3247
C116 C 0.50965(11) -0.07078(17) 1.34119(13)
H142 H 0.5297 -0.0667 1.3801
C117 C 0.49643(10) -0.13876(16) 1.31671(13)
H143 H 0.5078 -0.1813 1.3390
C118 C 0.46654(9) -0.14536(15) 1.25955(12)
C119 C 0.44925(10) -0.08269(15) 1.22747(13)
H144 H 0.4284 -0.0867 1.1888
C120 C 0.45280(10) -0.21943(16) 1.23279(13)
O9 O 0.24887(8) 1.01011(12) 0.82748(10)
O10 O 0.28429(9) 0.95968(12) 0.91242(10)
O11 O 0.30143(9) 0.68322(12) 0.92101(10)
O12 O 0.24895(10) 0.62375(12) 0.84762(10)
H3 H 0.2588(16) 0.5819(12) 0.8614(18)
C121 C 0.26125(11) 0.95591(17) 0.86082(15)
C122 C 0.24667(10) 0.88159(16) 0.83381(12)
C123 C 0.21475(11) 0.87609(17) 0.77765(13)
H145 H 0.2027 0.9189 0.7561
C124 C 0.20039(11) 0.80805(17) 0.75294(14)
H146 H 0.1786 0.8047 0.7146
C125 C 0.21780(11) 0.74508(17) 0.78409(14)
H147 H 0.2072 0.6988 0.7675
C126 C 0.25086(10) 0.75008(16) 0.83982(13)
C127 C 0.26464(10) 0.81818(17) 0.86408(13)
H148 H 0.2868 0.8215 0.9022
C128 C 0.26946(12) 0.68100(17) 0.87310(13)
O13 O 0.27221(10) 0.50973(13) 0.90114(11)
O14 O 0.23585(11) 0.45670(14) 0.81796(12)
O15 O 0.22312(9) 0.18396(13) 0.81147(11)
O16 O 0.27889(9) 0.12409(13) 0.88202(11)
H4 H 0.2635(15) 0.0888(17) 0.8609(17)
C129 C 0.25735(12) 0.45448(19) 0.86867(16)
C130 C 0.27085(11) 0.38198(17) 0.89903(15)
C131 C 0.29743(11) 0.37817(18) 0.95683(15)
H149 H 0.3058 0.4215 0.9786
C132 C 0.31184(12) 0.31047(18) 0.98297(16)
H150 H 0.3298 0.3076 1.0225
C133 C 0.29956(11) 0.24722(18) 0.95032(15)
H151 H 0.3103 0.2014 0.9678
C134 C 0.27204(10) 0.25031(18) 0.89316(15)
C135 C 0.25779(11) 0.31799(18) 0.86679(16)
H152 H 0.2394 0.3206 0.8273
C136 C 0.25601(12) 0.18302(18) 0.85830(16)
O17 O 0.53480(13) 0.45954(16) 1.38376(13)
H5 H 0.547(2) 0.4959(17) 1.4051(17)
H6 H 0.5175(18) 0.477(2) 1.3513(10)
O18 O 0.36037(12) 0.66372(17) 1.09799(13)
H7 H 0.3797(17) 0.677(2) 1.1299(9)
H8 H 0.356(2) 0.6980(19) 1.0750(15)
O19 O 0.35558(13) 0.5587(2) 1.01052(16)
H9 H 0.339(2) 0.576(3) 0.9782(10)
H10 H 0.351(2) 0.585(3) 1.0344(17)
O20 O 0.34076(12) 0.76698(15) 1.01451(12)
H11 H 0.3306(16) 0.748(3) 0.9821(10)
H12 H 0.3175(11) 0.790(3) 1.016(2)
O21 O 0.29044(10) 0.89050(15) 1.00759(11)
H13 H 0.2892(15) 0.905(2) 0.9761(8)
H14 H 0.3137(11) 0.911(2) 1.0332(11)
O22 O 0.35861(14) 0.1767(2) 1.08202(18)
H15 H 0.372(2) 0.168(3) 1.1167(6)
H16 H 0.352(2) 0.1374(17) 1.0640(19)
O23 O 0.35538(12) 0.07149(19) 0.99488(15)
H17 H 0.3342(16) 0.059(3) 0.9634(10)
H18 H 0.3539(19) 0.043(3) 1.0197(14)
O24 O 0.37159(11) -0.03228(16) 1.07706(13)
H19 H 0.3876(15) -0.007(2) 1.1058(15)
H20 H 0.3884(14) -0.0689(18) 1.077(2)
O25 O 0.42201(10) -0.15643(15) 1.08534(11)
H21 H 0.4259(16) -0.176(2) 1.1162(8)
H22 H 0.4017(13) -0.180(2) 1.0588(11)
O26 O 0.1796(3) 0.2836(4) 0.7133(3)
H23 H 0.1692 0.2607 0.6826
H24 H 0.1915 0.2536 0.7397
loop_
_geom_bond_atom_site_label_1
_geom_bond_atom_site_label_2
_geom_bond_site_symmetry_1
_geom_bond_site_symmetry_2
Cu1 Cl1 1_555 1_555
Cu2 Cl1 1_555 1_555
Cu3 Cl2 1_555 1_555
Cu4 Cl2 1_555 1_555
Cu5 Cl3 1_555 1_555
Cu6 Cl3 1_555 1_555
Cu7 Cl4 1_555 1_555
Cu8 Cl4 1_555 1_555
Cl1 Cu8_2 1_555 1_555
Cl3 Cu4 1_555 1_555
Cl4 Cu2_2 1_555 1_555
O1 H1 1_555 1_555
O2 C105 1_555 1_555
O3 C112 1_555 1_555
O4 C112 1_555 1_555
O5 H2 1_555 1_555
O6 C113 1_555 1_555
O7 C120 1_555 1_555
O8 C120 1_555 1_555
O9 C121 1_555 1_555
O10 C121 1_555 1_555
O11 C128 1_555 1_555
O12 H3 1_555 1_555
O13 C129 1_555 1_555
O14 C129 1_555 1_555
O15 C136 1_555 1_555
O16 H4 1_555 1_555
O17 H5 1_555 1_555
H6 O17 1_555 1_555
O18 H7 1_555 1_555
H8 O18 1_555 1_555
O19 H9 1_555 1_555
H10 O19 1_555 1_555
O20 H11 1_555 1_555
H12 O20 1_555 1_555
O21 H13 1_555 1_555
H14 O21 1_555 1_555
O22 H15 1_555 1_555
H16 O22 1_555 1_555
O23 H17 1_555 1_555
H18 O23 1_555 1_555
O24 H19 1_555 1_555
H20 O24 1_555 1_555
O25 H21 1_555 1_555
H22 O25 1_555 1_555
O26 H23 1_555 1_555
H24 O26 1_555 1_555
N1 Cu1 1_555 1_555
N2 C6 1_555 1_555
N3 Cu1 1_555 1_555
N4 C19 1_555 1_555
N5 Cu2 1_555 1_555
N6 Cu3 1_555 1_555
N7 Cu3 1_555 1_555
N8 C45 1_555 1_555
N9 Cu4 1_555 1_555
N10 C58 1_555 1_555
N11 Cu5 1_555 1_555
N12 C71 1_555 1_555
N13 Cu6 1_555 1_555
N14 Cu7 1_555 1_555
N15 Cu7 1_555 1_555
N16 C97 1_555 1_555
C1 N1 1_555 1_555
H25 C1 1_555 1_555
C2 C1 1_555 1_555
H26 C2 1_555 1_555
C3 C2 1_555 1_555
C4 C3 1_555 1_555
H27 C4 1_555 1_555
C5 N1 1_555 1_555
H28 C5 1_555 1_555
C6 H29 1_555 1_555
C7 C6 1_555 1_555
H30 C7 1_555 1_555
C8 C7 1_555 1_555
C9 C8 1_555 1_555
H31 C9 1_555 1_555
C10 N2 1_555 1_555
H32 C10 1_555 1_555
C11 C3 1_555 1_555
H33 C11 1_555 1_555
H34 C11 1_555 1_555
C12 C11 1_555 1_555
H35 C12 1_555 1_555
H36 C12 1_555 1_555
C13 C8 1_555 1_555
H37 C13 1_555 1_555
H38 C13 1_555 1_555
C14 N3 1_555 1_555
H39 C14 1_555 1_555
C15 C14 1_555 1_555
H40 C15 1_555 1_555
C16 C15 1_555 1_555
C17 C16 1_555 1_555
H41 C17 1_555 1_555
C18 N3 1_555 1_555
H42 C18 1_555 1_555
C19 H43 1_555 1_555
C20 C19 1_555 1_555
H44 C20 1_555 1_555
C21 C20 1_555 1_555
C22 C21 1_555 1_555
H45 C22 1_555 1_555
C23 N4 1_555 1_555
H46 C23 1_555 1_555
C24 C16 1_555 1_555
H47 C24 1_555 1_555
H48 C24 1_555 1_555
C25 C24 1_555 1_555
H49 C25 1_555 1_555
H50 C25 1_555 1_555
C26 C21 1_555 1_555
H51 C26 1_555 1_555
H52 C26 1_555 1_555
C27 N5 1_555 1_555
H53 C27 1_555 1_555
C28 C27 1_555 1_555
H54 C28 1_555 1_555
C29 C28 1_555 1_555
C30 C29 1_555 1_555
H55 C30 1_555 1_555
C31 N5 1_555 1_555
H56 C31 1_555 1_555
C32 N6 1_555 1_555
H57 C32 1_555 1_555
C33 C32 1_555 1_555
H58 C33 1_555 1_555
C34 C33 1_555 1_555
C35 C34 1_555 1_555
H59 C35 1_555 1_555
C36 N6 1_555 1_555
H60 C36 1_555 1_555
C37 C29 1_555 1_555
H61 C37 1_555 1_555
H62 C37 1_555 1_555
C38 C37 1_555 1_555
H63 C38 1_555 1_555
H64 C38 1_555 1_555
C39 C34 1_555 1_555
H65 C39 1_555 1_555
H66 C39 1_555 1_555
C40 N7 1_555 1_555
H67 C40 1_555 1_555
C41 C40 1_555 1_555
H68 C41 1_555 1_555
C42 C41 1_555 1_555
C43 C42 1_555 1_555
H69 C43 1_555 1_555
C44 N7 1_555 1_555
H70 C44 1_555 1_555
C45 H71 1_555 1_555
C46 C45 1_555 1_555
H72 C46 1_555 1_555
C47 C46 1_555 1_555
C48 C47 1_555 1_555
H73 C48 1_555 1_555
C49 N8 1_555 1_555
H74 C49 1_555 1_555
C50 C42 1_555 1_555
H75 C50 1_555 1_555
H76 C50 1_555 1_555
C51 C50 1_555 1_555
H77 C51 1_555 1_555
H78 C51 1_555 1_555
C52 C47 1_555 1_555
H79 C52 1_555 1_555
H80 C52 1_555 1_555
C53 N9 1_555 1_555
H81 C53 1_555 1_555
C54 C53 1_555 1_555
H82 C54 1_555 1_555
C55 C54 1_555 1_555
C56 C55 1_555 1_555
H83 C56 1_555 1_555
C57 N9 1_555 1_555
H84 C57 1_555 1_555
C58 H85 1_555 1_555
C59 C58 1_555 1_555
H86 C59 1_555 1_555
C60 C59 1_555 1_555
C61 C60 1_555 1_555
H87 C61 1_555 1_555
C62 N10 1_555 1_555
H88 C62 1_555 1_555
C63 C60 1_555 1_555
H89 C63 1_555 1_555
H90 C63 1_555 1_555
C64 C63 1_555 1_555
H91 C64 1_555 1_555
H92 C64 1_555 1_555
C65 C55 1_555 1_555
H93 C65 1_555 1_555
H94 C65 1_555 1_555
C66 N11 1_555 1_555
H95 C66 1_555 1_555
C67 C66 1_555 1_555
H96 C67 1_555 1_555
C68 C67 1_555 1_555
C69 C68 1_555 1_555
H97 C69 1_555 1_555
C70 N11 1_555 1_555
H98 C70 1_555 1_555
C71 H99 1_555 1_555
C72 C71 1_555 1_555
H100 C72 1_555 1_555
C73 C72 1_555 1_555
C74 C73 1_555 1_555
H101 C74 1_555 1_555
C75 N12 1_555 1_555
H102 C75 1_555 1_555
C76 C73 1_555 1_555
H103 C76 1_555 1_555
H104 C76 1_555 1_555
C77 C76 1_555 1_555
H105 C77 1_555 1_555
H106 C77 1_555 1_555
C78 C68 1_555 1_555
H107 C78 1_555 1_555
H108 C78 1_555 1_555
C79 N13 1_555 1_555
H109 C79 1_555 1_555
C80 C79 1_555 1_555
H110 C80 1_555 1_555
C81 C80 1_555 1_555
C82 C81 1_555 1_555
H111 C82 1_555 1_555
C83 N13 1_555 1_555
H112 C83 1_555 1_555
C84 N14 1_555 1_555
H113 C84 1_555 1_555
C85 C84 1_555 1_555
H114 C85 1_555 1_555
C86 C85 1_555 1_555
C87 C86 1_555 1_555
H115 C87 1_555 1_555
C88 N14 1_555 1_555
H116 C88 1_555 1_555
C89 C81 1_555 1_555
H117 C89 1_555 1_555
H118 C89 1_555 1_555
C90 C89 1_555 1_555
H119 C90 1_555 1_555
H120 C90 1_555 1_555
C91 C86 1_555 1_555
H121 C91 1_555 1_555
H122 C91 1_555 1_555
C92 N15 1_555 1_555
H123 C92 1_555 1_555
C93 C92 1_555 1_555
H124 C93 1_555 1_555
C94 C93 1_555 1_555
C95 C94 1_555 1_555
H125 C95 1_555 1_555
C96 N15 1_555 1_555
H126 C96 1_555 1_555
C97 H127 1_555 1_555
C98 C97 1_555 1_555
H128 C98 1_555 1_555
C99 C98 1_555 1_555
C100 C99 1_555 1_555
H129 C100 1_555 1_555
C101 N16 1_555 1_555
H130 C101 1_555 1_555
C102 C94 1_555 1_555
H131 C102 1_555 1_555
H132 C102 1_555 1_555
C103 C102 1_555 1_555
H133 C103 1_555 1_555
H134 C103 1_555 1_555
C104 C99 1_555 1_555
H135 C104 1_555 1_555
H136 C104 1_555 1_555
C105 O1 1_555 1_555
C106 C105 1_555 1_555
C107 C106 1_555 1_555
H137 C107 1_555 1_555
C108 C107 1_555 1_555
H138 C108 1_555 1_555
C109 C108 1_555 1_555
H139 C109 1_555 1_555
C110 C109 1_555 1_555
C111 C106 1_555 1_555
H140 C111 1_555 1_555
C112 C110 1_555 1_555
C113 O5 1_555 1_555
C114 C113 1_555 1_555
C115 C114 1_555 1_555
H141 C115 1_555 1_555
C116 C115 1_555 1_555
H142 C116 1_555 1_555
C117 C116 1_555 1_555
H143 C117 1_555 1_555
C118 C117 1_555 1_555
C119 C114 1_555 1_555
H144 C119 1_555 1_555
C120 C118 1_555 1_555
C121 C122 1_555 1_555
C122 C123 1_555 1_555
C123 H145 1_555 1_555
C124 C123 1_555 1_555
H146 C124 1_555 1_555
C125 C124 1_555 1_555
H147 C125 1_555 1_555
C126 C125 1_555 1_555
C127 C122 1_555 1_555
H148 C127 1_555 1_555
C128 O12 1_555 1_555
C129 C130 1_555 1_555
C130 C131 1_555 1_555
C131 H149 1_555 1_555
C132 C131 1_555 1_555
H150 C132 1_555 1_555
C133 C132 1_555 1_555
H151 C133 1_555 1_555
C134 C133 1_555 1_555
C135 C130 1_555 1_555
H152 C135 1_555 1_555
C136 O16 1_555 1_555
Cu2_2 Cl1_2 1_555 1_555
Cu2C N16 1_555 1_555
Cu4B N2 1_555 1_555
Cu5A N10 1_555 1_555
Cu6C N8 1_555 1_555
Cu8_2 Cl4_2 1_555 1_555
Cu8A N4 1_555 1_555
Cu8B N12 1_555 1_555
Cl1_2 Cu8 1_555 1_555
Cl4_2 Cu2 1_555 1_555
N2B Cu4 1_555 1_555
N4A Cu8 1_555 1_555
N8C Cu6 1_555 1_555
N10A Cu5 1_555 1_555
N12B Cu8 1_555 1_555
N16C Cu2 1_555 1_555
C4 C5 1_555 1_555
C9 C10 1_555 1_555
C12 C13 1_555 1_555
C17 C18 1_555 1_555
C22 C23 1_555 1_555
C25 C26 1_555 1_555
C30 C31 1_555 1_555
C35 C36 1_555 1_555
C38 C39 1_555 1_555
C43 C44 1_555 1_555
C48 C49 1_555 1_555
C51 C52 1_555 1_555
C56 C57 1_555 1_555
C61 C62 1_555 1_555
C64 C65 1_555 1_555
C69 C70 1_555 1_555
C74 C75 1_555 1_555
C77 C78 1_555 1_555
C82 C83 1_555 1_555
C87 C88 1_555 1_555
C90 C91 1_555 1_555
C95 C96 1_555 1_555
C100 C101 1_555 1_555
C103 C104 1_555 1_555
C110 C111 1_555 1_555
C118 C119 1_555 1_555
C126 C127 1_555 1_555
C126 C128 1_555 1_555
C134 C135 1_555 1_555
C134 C136 1_555 1_555

#END
