
#######################################################################
#
#                 Cambridge Crystallographic Data Centre
#                                CCDC 
#
#######################################################################
#
# If this CIF has been generated from an entry in the Cambridge 
# Structural Database, then it will include bibliographic, chemical, 
# crystal, experimental, refinement or atomic coordinate data resulting 
# from the CCDC's data processing and validation procedures.
#
#######################################################################

data_FABCOC
_symmetry_cell_setting           monoclinic
_symmetry_space_group_name_H-M   'P 21/m'
_symmetry_Int_Tables_number      11
_space_group_name_Hall           '-P 2yb'
loop_
_symmetry_equiv_pos_site_id
_symmetry_equiv_pos_as_xyz
1 x,y,z
2 -x,1/2+y,-z
3 -x,-y,-z
4 x,1/2-y,z
_cell_length_a                   6.7298(13)
_cell_length_b                   17.056(3)
_cell_length_c                   11.582(2)
_cell_angle_alpha                90
_cell_angle_beta                 94.72(3)
_cell_angle_gamma                90
_cell_volume                     1324.91
loop_
_atom_site_label
_atom_site_type_symbol
_atom_site_fract_x
_atom_site_fract_y
_atom_site_fract_z
Cd1 Cd 0.38364(3) 0.576514(12) 0.858605(17)
Cd2 Cd 0.36930(4) 0.7500 0.36152(2)
Cd3 Cd 0.58572(4) 0.7500 0.66161(2)
Cl1 Cl 0.37830(15) 0.7500 0.84315(9)
C1 C 0.8608(6) 0.7500 0.3303(4)
H1 H 0.8437 0.7500 0.2498
C2 C 0.0995(5) 0.48488(19) 0.4833(3)
H2 H 0.0771 0.4513 0.4159
H3 H 0.1604 0.4533 0.5463
C3 C 0.2436(5) 0.55023(19) 0.4561(3)
H4 H 0.3529 0.5270 0.4184
H5 H 0.1745 0.5857 0.4010
C4 C 0.4610(5) 0.40205(18) 0.7688(3)
H6 H 0.3807 0.4120 0.7012
C5 C 0.9701(4) 0.64608(18) 0.7652(3)
H7 H 1.0499 0.6765 0.7210
C6 C 0.6750(5) 0.35297(18) 0.8874(3)
H8 H 0.7759 0.3210 0.9207
C7 C 0.3307(4) 0.59799(17) 0.5583(2)
C8 C 0.9912(6) 0.7500 0.5001(4)
H9 H 1.0850 0.7500 0.5637
C9 C 0.8776(4) 0.5642(2) 0.8821(3)
H10 H 0.8775 0.5249 0.9378
N1 N 0.4492(4) 0.44239(15) 0.8647(2)
N2 N 1.0441(4) 0.59186(15) 0.8404(2)
N3 N 0.7963(5) 0.7500 0.5093(3)
N4 N 0.7134(4) 0.59870(16) 0.8359(2)
N5 N 0.7115(5) 0.7500 0.3979(3)
N6 N 1.0399(5) 0.7500 0.3910(3)
N7 N 0.7751(3) 0.65260(14) 0.7591(2)
N8 N 0.5934(4) 0.40972(15) 0.9435(2)
N9 N 0.5986(4) 0.34551(15) 0.7770(2)
O1 O 0.3971(3) 0.66629(12) 0.53616(17)
O2 O 0.3383(3) 0.56904(12) 0.65666(18)
Cd1B Cd -0.38364(3) 0.423486(12) 0.141395(17)
Cd1_2 Cd -0.61636(3) 0.576514(12) -0.141395(17)
Cd1_3 Cd 1.38364(3) 0.576514(12) 0.858605(17)
Cd1B_2 Cd -1.38364(3) 0.423486(12) 0.141395(17)
Cd1B_3 Cd 0.61636(3) 0.423486(12) 1.141395(17)
Cd1C Cd 0.38364(3) 0.923486(12) 0.858605(17)
Cd2_2 Cd -0.63070(4) 0.7500 0.36152(2)
Cd2_3 Cd 1.36930(4) 0.7500 0.36152(2)
Cd2A Cd -0.36930(4) 0.2500 0.63848(2)
Cd2A_2 Cd 0.63070(4) 0.2500 0.63848(2)
Cd3A Cd -0.58572(4) 0.2500 0.33839(2)
Cl1A Cl -0.37830(15) 0.2500 0.15685(9)
C2B C -0.0995(5) 0.51512(19) 0.5167(3)
H2B H -0.0771 0.5487 0.5841
H3B H -0.1604 0.5467 0.4537
C3B C -0.2436(5) 0.44977(19) 0.5439(3)
H4B H -0.3529 0.4730 0.5816
H5B H -0.1745 0.4143 0.5990
C4B C -0.4610(5) 0.59795(18) 0.2312(3)
H6B H -0.3807 0.5880 0.2988
C5B C -0.9701(4) 0.35392(18) 0.2348(3)
H7B H -1.0499 0.3235 0.2790
C6B C -0.6750(5) 0.64703(18) 0.1126(3)
H8B H -0.7759 0.6790 0.0793
C7B C -0.3307(4) 0.40201(17) 0.4417(2)
C9B C -0.8776(4) 0.4358(2) 0.1179(3)
H10B H -0.8775 0.4751 0.0622
N1B N -0.4492(4) 0.55761(15) 0.1353(2)
N2B N -1.0441(4) 0.40814(15) 0.1596(2)
N2_2 N 0.0441(4) 0.59186(15) 0.8404(2)
N2B_2 N -0.0441(4) 0.40814(15) 0.1596(2)
N4B N -0.7134(4) 0.40130(16) 0.1641(2)
N6_2 N 0.0399(5) 0.7500 0.3910(3)
N7B N -0.7751(3) 0.34740(14) 0.2409(2)
N7C N 0.7751(3) 0.84740(14) 0.7591(2)
N8B N -0.5934(4) 0.59028(15) 0.0565(2)
N8_2 N -0.4066(4) 0.40972(15) -0.0565(2)
N8B_2 N 0.4066(4) 0.59028(15) 1.0565(2)
N9B N -0.5986(4) 0.65449(15) 0.2230(2)
N9A N 0.4014(4) 0.84551(15) 0.2230(2)
N9B_2 N 0.4014(4) 0.65449(15) 0.2230(2)
O1B O -0.3971(3) 0.33371(12) 0.46384(17)
O1C O 0.3971(3) 0.83371(12) 0.53616(17)
O2B O -0.3383(3) 0.43096(12) 0.34334(18)
O3 O 0.8299(13) 0.7500 0.0361(6)
H11 H 0.72(4) 0.7500 0.05(2)
H12 H 0.85(2) 0.7500 -0.038(15)
loop_
_geom_bond_atom_site_label_1
_geom_bond_atom_site_label_2
_geom_bond_site_symmetry_1
_geom_bond_site_symmetry_2
Cd1 Cl1 1_555 1_555
Cd2 N5 1_555 1_555
Cd3 Cl1 1_555 1_555
Cl1 Cd1C 1_555 1_555
C1 H1 1_555 1_555
C2 H2 1_555 1_555
H3 C2 1_555 1_555
C3 C2 1_555 1_555
H4 C3 1_555 1_555
H5 C3 1_555 1_555
C4 H6 1_555 1_555
C5 H7 1_555 1_555
C6 H8 1_555 1_555
C7 C3 1_555 1_555
C8 H9 1_555 1_555
C9 H10 1_555 1_555
N1 Cd1 1_555 1_555
N2 C5 1_555 1_555
N3 Cd3 1_555 1_555
N4 Cd1 1_555 1_555
N5 C1 1_555 1_555
N6 C1 1_555 1_555
N7 Cd3 1_555 1_555
N8 C6 1_555 1_555
N9 C4 1_555 1_555
O1 Cd2 1_555 1_555
O2 Cd1 1_555 1_555
O3 H11 1_555 1_555
H12 O3 1_555 1_555
Cd1B Cl1A 1_555 1_555
Cd1_2 N8B 1_555 1_555
Cd1_3 N2 1_555 1_555
Cd1B_2 N2B 1_555 1_555
Cd1B_3 N8 1_555 1_555
Cd2_2 N9B 1_555 1_555
Cd2_3 N6 1_555 1_555
Cd2A O1B 1_555 1_555
Cd2A_2 N9 1_555 1_555
Cd3A Cl1A 1_555 1_555
C2B C2 1_555 1_555
H2B C2B 1_555 1_555
H3B C2B 1_555 1_555
C3B C2B 1_555 1_555
H4B C3B 1_555 1_555
H5B C3B 1_555 1_555
C4B H6B 1_555 1_555
C5B H7B 1_555 1_555
C6B H8B 1_555 1_555
C7B C3B 1_555 1_555
C9B H10B 1_555 1_555
N1B Cd1B 1_555 1_555
N2B C5B 1_555 1_555
N2_2 Cd1 1_555 1_555
N2B_2 Cd1B 1_555 1_555
N4B Cd1B 1_555 1_555
N6_2 Cd2 1_555 1_555
N7B Cd3A 1_555 1_555
N7C Cd3 1_555 1_555
N8B C6B 1_555 1_555
N8_2 Cd1B 1_555 1_555
N8B_2 Cd1 1_555 1_555
N9B C4B 1_555 1_555
N9A Cd2 1_555 1_555
N9B_2 Cd2 1_555 1_555
O1B Cd3A 1_555 1_555
O1C Cd2 1_555 1_555
O2B Cd1B 1_555 1_555
Cd3 O1 1_555 1_555
Cd3 O1C 1_555 1_555
C4 N1 1_555 1_555
C5 N7 1_555 1_555
C6 N9 1_555 1_555
C7 O1 1_555 1_555
C7 O2 1_555 1_555
C8 N3 1_555 1_555
C8 N6 1_555 1_555
C9 N2 1_555 1_555
C9 N4 1_555 1_555
N1 N8 1_555 1_555
N3 N5 1_555 1_555
N4 N7 1_555 1_555
C4B N1B 1_555 1_555
C5B N7B 1_555 1_555
C6B N9B 1_555 1_555
C7B O1B 1_555 1_555
C7B O2B 1_555 1_555
C9B N2B 1_555 1_555
C9B N4B 1_555 1_555
N1B N8B 1_555 1_555
N4B N7B 1_555 1_555

#END
