
#######################################################################
#
#                 Cambridge Crystallographic Data Centre
#                                CCDC 
#
#######################################################################
#
# If this CIF has been generated from an entry in the Cambridge 
# Structural Database, then it will include bibliographic, chemical, 
# crystal, experimental, refinement or atomic coordinate data resulting 
# from the CCDC's data processing and validation procedures.
#
#######################################################################

data_FABFOF
_symmetry_cell_setting           monoclinic
_symmetry_space_group_name_H-M   'C 2/c'
_symmetry_Int_Tables_number      15
_space_group_name_Hall           '-C 2yn'
loop_
_symmetry_equiv_pos_site_id
_symmetry_equiv_pos_as_xyz
1 x,y,z
2 -x,y,1/2-z
3 1/2+x,1/2+y,z
4 1/2-x,1/2+y,1/2-z
5 -x,-y,-z
6 x,-y,1/2+z
7 1/2-x,1/2-y,-z
8 1/2+x,1/2-y,1/2+z
_cell_length_a                   11.548(2)
_cell_length_b                   15.319(3)
_cell_length_c                   11.021(2)
_cell_angle_alpha                90
_cell_angle_beta                 92.36(3)
_cell_angle_gamma                90
_cell_volume                     1948
loop_
_atom_site_label
_atom_site_type_symbol
_atom_site_fract_x
_atom_site_fract_y
_atom_site_fract_z
N1 N 0.2261(3) 0.4246(2) 0.5050(3)
C1 C 0.8051(2) 0.30559(15) 0.4197(2)
C2 C 0.8595(2) 0.36456(17) 0.3290(2)
C3 C 0.8323(2) 0.31049(15) 0.5440(2)
C4 C 0.7770(2) 0.25511(16) 0.6221(2)
H1 H 0.7952 0.2585 0.7050
C5 C 0.9220(2) 0.37056(16) 0.6000(2)
O1 O 0.90931(16) 0.43252(11) 0.37085(16)
O2 O 0.8524(2) 0.34606(16) 0.22005(19)
O3 O 1.02589(16) 0.34842(13) 0.60042(19)
O4 O 0.88438(15) 0.43822(11) 0.65131(16)
Zn1 Zn 1.0000 0.49461(2) 0.2500
C1F C 0.6949(2) 0.19441(15) 0.5803(2)
C2F C 0.6405(2) 0.13544(17) 0.6710(2)
C3F C 0.6677(2) 0.18951(15) 0.4560(2)
C4F C 0.7230(2) 0.24489(16) 0.3779(2)
H1F H 0.7048 0.2415 0.2950
C5F C 0.5780(2) 0.12944(16) 0.4000(2)
O1F O 0.59069(16) 0.06748(11) 0.62915(16)
O1A O 1.09069(16) 0.43252(11) 0.12915(16)
O2F O 0.6476(2) 0.15394(16) 0.77995(19)
O3F O 0.47411(16) 0.15158(13) 0.39958(19)
O4F O 0.61562(15) 0.06178(11) 0.34869(16)
O4D O 1.11562(15) 0.56178(11) 0.34869(16)
O4E O 0.88438(15) 0.56178(11) 0.15131(16)
Zn1B Zn 0.5000 -0.00539(2) 0.2500
Zn1D Zn 1.0000 0.50539(2) 0.7500
Zn1F Zn 0.5000 0.00539(2) 0.7500
loop_
_geom_bond_atom_site_label_1
_geom_bond_atom_site_label_2
_geom_bond_site_symmetry_1
_geom_bond_site_symmetry_2
C1 C2 1_555 1_555
C2 O1 1_555 1_555
C3 C1 1_555 1_555
C4 C3 1_555 1_555
H1 C4 1_555 1_555
C5 C3 1_555 1_555
O1 Zn1 1_555 1_555
O2 C2 1_555 1_555
O3 C5 1_555 1_555
O4 C5 1_555 1_555
Zn1 O1A 1_555 1_555
C1F C4 1_555 1_555
C2F C1F 1_555 1_555
C3F C1F 1_555 1_555
C4F C1 1_555 1_555
H1F C4F 1_555 1_555
C5F C3F 1_555 1_555
O1F C2F 1_555 1_555
O2F C2F 1_555 1_555
O3F C5F 1_555 1_555
O4F C5F 1_555 1_555
O4D Zn1 1_555 1_555
O4E Zn1 1_555 1_555
Zn1B O4F 1_555 1_555
Zn1D O4 1_555 1_555
Zn1F O1F 1_555 1_555
C3F C4F 1_555 1_555

#END
