
#######################################################################
#
#                 Cambridge Crystallographic Data Centre
#                                CCDC 
#
#######################################################################
#
# If this CIF has been generated from an entry in the Cambridge 
# Structural Database, then it will include bibliographic, chemical, 
# crystal, experimental, refinement or atomic coordinate data resulting 
# from the CCDC's data processing and validation procedures.
#
#######################################################################

data_FABHOH
_symmetry_cell_setting           monoclinic
_symmetry_space_group_name_H-M   'P 21/n'
_symmetry_Int_Tables_number      14
_space_group_name_Hall           '-P 2yn'
loop_
_symmetry_equiv_pos_site_id
_symmetry_equiv_pos_as_xyz
1 x,y,z
2 1/2-x,1/2+y,1/2-z
3 -x,-y,-z
4 1/2+x,1/2-y,1/2+z
_cell_length_a                   6.6189(13)
_cell_length_b                   8.6598(17)
_cell_length_c                   13.853(3)
_cell_angle_alpha                90
_cell_angle_beta                 93.30(3)
_cell_angle_gamma                90
_cell_volume                     792.714
loop_
_atom_site_label
_atom_site_type_symbol
_atom_site_fract_x
_atom_site_fract_y
_atom_site_fract_z
Sm1 Sm 0.24604(3) 0.24025(2) 0.911586(12)
S1 S 0.76118(11) 0.16627(9) 1.02484(5)
O1 O 0.5647(6) 0.2381(3) 0.9997(2)
O2 O 0.9112(6) 0.2351(3) 0.9627(3)
O3 O 0.4467(4) 0.4462(3) 0.84204(17)
O4 O 0.2363(4) 0.4195(3) 1.04719(18)
O5 O 0.0460(4) 0.4466(3) 0.82859(16)
O6 O 0.7509(4) -0.0015(3) 1.00508(18)
O7 O 0.0466(4) 0.6056(3) 0.70140(17)
O8 O 0.4526(4) 0.6241(3) 0.72481(16)
C1 C 0.3634(5) 0.5351(4) 0.7794(2)
C2 C 0.1315(5) 0.5294(4) 0.7690(2)
O9 O 0.8184(5) 0.1923(4) 1.12649(18)
H4 H 0.343(7) 0.484(6) 1.061(4)
H5 H 0.140(7) 0.486(6) 1.072(4)
Sm1B Sm 0.75396(3) -0.24025(2) 1.088414(12)
Sm1_2 Sm 1.24604(3) 0.24025(2) 0.911586(12)
Sm1A Sm 0.25396(3) 0.74025(2) 0.588414(12)
Sm1B_2 Sm -0.24604(3) -0.24025(2) 1.088414(12)
Sm1C Sm 0.74604(3) -0.74025(2) 1.411586(12)
S1B S 0.23882(11) -0.16627(9) 0.97516(5)
O1B O 0.4353(6) -0.2381(3) 1.0003(2)
O2B O 0.0888(6) -0.2351(3) 1.0373(3)
O2_2 O -0.0888(6) 0.2351(3) 0.9627(3)
O2B_2 O 1.0888(6) -0.2351(3) 1.0373(3)
O3B O 0.5533(4) -0.4462(3) 1.15796(17)
O4B O 0.7637(4) -0.4195(3) 0.95281(18)
O5B O 0.9540(4) -0.4466(3) 1.17141(16)
O6B O 0.2491(4) 0.0015(3) 0.99492(18)
O7B O 0.9534(4) -0.6056(3) 1.29860(17)
O7A O 0.4534(4) 0.1056(3) 0.79860(17)
O7C O 0.5466(4) -0.1056(3) 1.20140(17)
O8B O 0.5474(4) -0.6241(3) 1.27519(16)
O8A O 0.0474(4) 0.1241(3) 0.77519(16)
O8C O 0.9526(4) -0.1241(3) 1.22481(16)
C1B C 0.6366(5) -0.5351(4) 1.2206(2)
C2B C 0.8685(5) -0.5294(4) 1.2310(2)
O9B O 0.1816(5) -0.1923(4) 0.87351(18)
H4B H 0.657(7) -0.484(6) 0.939(4)
H5B H 0.860(7) -0.486(6) 0.928(4)
N1 N 0.7316(5) 0.3433(4) 0.6927(2)
H1 H 0.624(7) 0.296(8) 0.675(5)
H2 H 0.747(9) 0.336(8) 0.752(2)
H3 H 0.71(4) 0.438(6) 0.69(3)
H6 H 0.830(8) 0.309(11) 0.662(5)
loop_
_geom_bond_atom_site_label_1
_geom_bond_atom_site_label_2
_geom_bond_site_symmetry_1
_geom_bond_site_symmetry_2
Sm1 O1 1_555 1_555
S1 O1 1_555 1_555
O2 S1 1_555 1_555
O3 Sm1 1_555 1_555
O4 Sm1 1_555 1_555
O5 Sm1 1_555 1_555
O6 S1 1_555 1_555
O7 C2 1_555 1_555
O8 C1 1_555 1_555
C1 O3 1_555 1_555
C2 O5 1_555 1_555
N1 H1 1_555 1_555
O9 S1 1_555 1_555
H2 N1 1_555 1_555
H3 N1 1_555 1_555
H4 O4 1_555 1_555
H5 O4 1_555 1_555
H6 N1 1_555 1_555
Sm1B O6 1_555 1_555
Sm1_2 O2 1_555 1_555
Sm1A O7 1_555 1_555
Sm1B_2 O2B 1_555 1_555
Sm1C O7B 1_555 1_555
S1B O1B 1_555 1_555
O1B Sm1B 1_555 1_555
O2B S1B 1_555 1_555
O2_2 Sm1 1_555 1_555
O2B_2 Sm1B 1_555 1_555
O3B Sm1B 1_555 1_555
O4B Sm1B 1_555 1_555
O5B Sm1B 1_555 1_555
O6B Sm1 1_555 1_555
O7B C2B 1_555 1_555
O7A Sm1 1_555 1_555
O7C Sm1B 1_555 1_555
O8B Sm1C 1_555 1_555
O8A Sm1 1_555 1_555
O8C Sm1B 1_555 1_555
C1B O3B 1_555 1_555
C2B O5B 1_555 1_555
O9B S1B 1_555 1_555
H4B O4B 1_555 1_555
H5B O4B 1_555 1_555
O8 Sm1A 1_555 1_555
C1 C2 1_555 1_555
S1B O6B 1_555 1_555
O8B C1B 1_555 1_555
C1B C2B 1_555 1_555

#END
