
#######################################################################
#
#                 Cambridge Crystallographic Data Centre
#                                CCDC 
#
#######################################################################
#
# If this CIF has been generated from an entry in the Cambridge 
# Structural Database, then it will include bibliographic, chemical, 
# crystal, experimental, refinement or atomic coordinate data resulting 
# from the CCDC's data processing and validation procedures.
#
#######################################################################

data_FABHIB
_symmetry_cell_setting           monoclinic
_symmetry_space_group_name_H-M   'P 21/n'
_symmetry_Int_Tables_number      14
_space_group_name_Hall           '-P 2yn'
loop_
_symmetry_equiv_pos_site_id
_symmetry_equiv_pos_as_xyz
1 x,y,z
2 1/2-x,1/2+y,1/2-z
3 -x,-y,-z
4 1/2+x,1/2-y,1/2+z
_cell_length_a                   6.5341(13)
_cell_length_b                   8.5266(17)
_cell_length_c                   13.745(3)
_cell_angle_alpha                90
_cell_angle_beta                 92.87(3)
_cell_angle_gamma                90
_cell_volume                     764.824
loop_
_atom_site_label
_atom_site_type_symbol
_atom_site_fract_x
_atom_site_fract_y
_atom_site_fract_z
Y1 Y 0.25414(4) 0.74023(3) 0.59017(2)
S1 S 0.25961(11) 0.33328(9) 0.52504(6)
O1 O 0.2517(4) 0.5051(3) 0.50808(18)
O2 O 0.3090(4) 0.3014(3) 0.62791(18)
O3 O 0.0604(4) 0.2628(3) 0.49600(19)
O4 O 0.4159(4) 0.2653(3) 0.4643(2)
O5 O 0.0517(4) 0.9427(3) 0.65958(17)
O6 O 0.0457(4) 1.1198(3) 0.77988(17)
O7 O 0.4566(4) 0.9422(3) 0.67218(17)
O8 O 0.4551(4) 1.1060(3) 0.79995(17)
O9 O 0.2624(4) 0.9209(3) 0.45929(19)
C1 C 0.1350(5) 1.0316(4) 0.7229(2)
C2 C 0.3691(5) 1.0277(4) 0.7328(2)
H1 H 0.165(9) 0.966(8) 0.433(5)
H2 H 0.362(8) 0.960(8) 0.436(5)
Y1B Y -0.25414(4) 0.25977(3) 0.40983(2)
Y1_2 Y -0.74586(4) 0.74023(3) 0.59017(2)
Y1A Y 0.24586(4) 1.24023(3) 0.90983(2)
Y1B_2 Y 0.74586(4) 0.25977(3) 0.40983(2)
Y1C Y -0.24586(4) -0.24023(3) 0.09017(2)
S1B S -0.25961(11) 0.66672(9) 0.47496(6)
O1B O -0.2517(4) 0.4949(3) 0.49192(18)
O2B O -0.3090(4) 0.6986(3) 0.37209(18)
O3B O -0.0604(4) 0.7372(3) 0.50400(19)
O4B O -0.4159(4) 0.7347(3) 0.5357(2)
O4_2 O -0.5841(4) 0.2653(3) 0.4643(2)
O4B_2 O 0.5841(4) 0.7347(3) 0.5357(2)
O5B O -0.0517(4) 0.0573(3) 0.34042(17)
O6B O -0.0457(4) -0.1198(3) 0.22012(17)
O6A O 0.4543(4) 0.6198(3) 0.72012(17)
O6C O -0.4543(4) 0.3802(3) 0.27988(17)
O7B O -0.4566(4) 0.0578(3) 0.32782(17)
O8B O -0.4551(4) -0.1060(3) 0.20005(17)
O8A O 0.0449(4) 0.6060(3) 0.70005(17)
O8C O -0.0449(4) 0.3940(3) 0.29995(17)
O9B O -0.2624(4) 0.0791(3) 0.54071(19)
C1B C -0.1350(5) -0.0316(4) 0.2771(2)
C2B C -0.3691(5) -0.0277(4) 0.2672(2)
H1B H -0.165(9) 0.034(8) 0.567(5)
H2B H -0.362(8) 0.040(8) 0.564(5)
N1 N 0.7663(5) 0.8386(4) 0.8096(3)
H3 H 0.893(7) 0.819(9) 0.828(5)
H4 H 0.681(10) 0.762(7) 0.789(6)
H5 H 0.783(11) 0.861(8) 0.750(3)
H6 H 0.725(9) 0.907(6) 0.843(4)
loop_
_geom_bond_atom_site_label_1
_geom_bond_atom_site_label_2
_geom_bond_site_symmetry_1
_geom_bond_site_symmetry_2
Y1 O1 1_555 1_555
S1 O1 1_555 1_555
O2 S1 1_555 1_555
O3 S1 1_555 1_555
O4 S1 1_555 1_555
O5 Y1 1_555 1_555
O6 C1 1_555 1_555
O7 Y1 1_555 1_555
O8 C2 1_555 1_555
O9 Y1 1_555 1_555
N1 H3 1_555 1_555
C1 O5 1_555 1_555
C2 O7 1_555 1_555
H1 O9 1_555 1_555
H2 O9 1_555 1_555
H4 N1 1_555 1_555
H5 N1 1_555 1_555
H6 N1 1_555 1_555
Y1B O3 1_555 1_555
Y1_2 O4B 1_555 1_555
Y1A O6 1_555 1_555
Y1B_2 O4 1_555 1_555
Y1C O6B 1_555 1_555
S1B O1B 1_555 1_555
O1B Y1B 1_555 1_555
O2B S1B 1_555 1_555
O3B Y1 1_555 1_555
O4B S1B 1_555 1_555
O4_2 Y1B 1_555 1_555
O4B_2 Y1 1_555 1_555
O5B Y1B 1_555 1_555
O6B C1B 1_555 1_555
O6A Y1 1_555 1_555
O6C Y1B 1_555 1_555
O7B Y1B 1_555 1_555
O8B Y1C 1_555 1_555
O8A Y1 1_555 1_555
O8C Y1B 1_555 1_555
O9B Y1B 1_555 1_555
C1B O5B 1_555 1_555
C2B O7B 1_555 1_555
H1B O9B 1_555 1_555
H2B O9B 1_555 1_555
O8 Y1A 1_555 1_555
C1 C2 1_555 1_555
S1B O3B 1_555 1_555
O8B C2B 1_555 1_555
C1B C2B 1_555 1_555

#END
