
#######################################################################
#
#                 Cambridge Crystallographic Data Centre
#                                CCDC 
#
#######################################################################
#
# If this CIF has been generated from an entry in the Cambridge 
# Structural Database, then it will include bibliographic, chemical, 
# crystal, experimental, refinement or atomic coordinate data resulting 
# from the CCDC's data processing and validation procedures.
#
#######################################################################

data_FABHEX
_symmetry_cell_setting           orthorhombic
_symmetry_space_group_name_H-M   'P n n m'
_symmetry_Int_Tables_number      58
_space_group_name_Hall           '-P 2 2n'
loop_
_symmetry_equiv_pos_site_id
_symmetry_equiv_pos_as_xyz
1 x,y,z
2 -x,-y,z
3 1/2-x,1/2+y,1/2-z
4 1/2+x,1/2-y,1/2-z
5 -x,-y,-z
6 x,y,-z
7 1/2+x,1/2-y,1/2+z
8 1/2-x,1/2+y,1/2+z
_cell_length_a                   14.361(8)
_cell_length_b                   5.085(3)
_cell_length_c                   6.141(3)
_cell_angle_alpha                90
_cell_angle_beta                 90
_cell_angle_gamma                90
_cell_volume                     448.451
loop_
_atom_site_label
_atom_site_type_symbol
_atom_site_fract_x
_atom_site_fract_y
_atom_site_fract_z
Mn1 Mn 0.26684(3) 0.11697(9) 0.0000
V1 V 0.12349(3) 0.55586(10) 0.0000
O1 O 0.17748(9) 0.4167(3) 0.2201(2)
O2 O 0.14651(15) -0.1229(4) 0.0000
O3 O 0.0000 0.5000 0.0000
C1 C 0.4710(2) 0.3753(6) 0.0000
N1 N 0.37064(17) 0.4319(5) 0.0000
H1 H 0.3621(18) 0.528(6) 0.108(4)
H2 H 0.4863(19) 0.270(6) 0.138(5)
Mn1B Mn 0.23316(3) -0.38303(9) 0.5000
Mn1B_2 Mn 0.23316(3) 0.61697(9) 0.5000
Mn1A Mn 0.73316(3) 0.88303(9) 0.0000
Mn1B_3 Mn 0.23316(3) 0.61697(9) -0.5000
Mn1B_4 Mn 0.23316(3) -0.38303(9) -0.5000
Mn1_2 Mn 0.26684(3) 1.11697(9) 0.0000
V1B V 0.37651(3) 0.05586(10) 0.5000
V1_2 V 0.12349(3) -0.44414(10) 0.0000
V1A V -0.12349(3) 0.44414(10) 0.0000
V1B_2 V 0.37651(3) 0.05586(10) -0.5000
O1B O 0.32252(9) -0.0833(3) 0.2799(2)
O1E O 0.17748(9) 0.4167(3) -0.2201(2)
O1G O 0.32252(9) -0.0833(3) -0.2799(2)
O1_2 O 0.17748(9) -0.5833(3) 0.2201(2)
O1G_2 O 0.32252(9) -0.0833(3) 0.7201(2)
O1E_2 O 0.17748(9) -0.5833(3) 0.7799(2)
O2_2 O 0.14651(15) 0.8771(4) 0.0000
O2B O 0.35349(15) -0.6229(4) 0.5000
O2B_2 O 0.35349(15) 0.3771(4) 0.5000
O3B O 0.5000 0.0000 0.5000
C1A C 0.5290(2) 0.6247(6) 0.0000
N1A N 0.62936(17) 0.5681(5) 0.0000
N1B N 0.12936(17) -0.0681(5) 0.5000
H1A H 0.6379(18) 0.472(6) 0.108(4)
H1D H 0.6379(18) 0.472(6) -0.108(4)
H1E H 0.3621(18) 0.528(6) -0.108(4)
H1B H 0.1379(18) 0.028(6) 0.392(4)
H1G H 0.1379(18) 0.028(6) 0.608(4)
H2A H 0.5137(19) 0.730(6) 0.138(5)
H2D H 0.5137(19) 0.730(6) -0.138(5)
H2E H 0.4863(19) 0.270(6) -0.138(5)
loop_
_geom_bond_atom_site_label_1
_geom_bond_atom_site_label_2
_geom_bond_site_symmetry_1
_geom_bond_site_symmetry_2
Mn1 O1 1_555 1_555
V1 O1 1_555 1_555
O1 Mn1B_2 1_555 1_555
O2 Mn1 1_555 1_555
O3 V1 1_555 1_555
C1 N1 1_555 1_555
N1 Mn1 1_555 1_555
H1 N1 1_555 1_555
H2 C1 1_555 1_555
Mn1B O1B 1_555 1_555
Mn1B_2 O2B_2 1_555 1_555
Mn1A N1A 1_555 1_555
Mn1B_3 O1E 1_555 1_555
Mn1B_4 O1G 1_555 1_555
Mn1_2 O2_2 1_555 1_555
V1B O1B 1_555 1_555
V1_2 O2 1_555 1_555
V1A O3 1_555 1_555
V1B_2 O1G 1_555 1_555
O1B Mn1 1_555 1_555
O1E Mn1 1_555 1_555
O1G Mn1 1_555 1_555
O1_2 Mn1B 1_555 1_555
O1G_2 Mn1B 1_555 1_555
O1E_2 Mn1B 1_555 1_555
O2_2 V1 1_555 1_555
O2B Mn1B 1_555 1_555
O2B_2 V1B 1_555 1_555
O3B V1B 1_555 1_555
C1A C1 1_555 1_555
N1A C1A 1_555 1_555
N1B Mn1B 1_555 1_555
H1A N1A 1_555 1_555
H1D N1A 1_555 1_555
H1E N1 1_555 1_555
H1B N1B 1_555 1_555
H1G N1B 1_555 1_555
H2A C1A 1_555 1_555
H2D C1A 1_555 1_555
H2E C1 1_555 1_555
V1 O1E 1_555 1_555
V1B O1G_2 1_555 1_555
V1_2 O1_2 1_555 1_555

#END
