
#######################################################################
#
#                 Cambridge Crystallographic Data Centre
#                                CCDC 
#
#######################################################################
#
# If this CIF has been generated from an entry in the Cambridge 
# Structural Database, then it will include bibliographic, chemical, 
# crystal, experimental, refinement or atomic coordinate data resulting 
# from the CCDC's data processing and validation procedures.
#
#######################################################################

data_FABHUN
_symmetry_cell_setting           monoclinic
_symmetry_space_group_name_H-M   'P 21/n'
_symmetry_Int_Tables_number      14
_space_group_name_Hall           '-P 2yn'
loop_
_symmetry_equiv_pos_site_id
_symmetry_equiv_pos_as_xyz
1 x,y,z
2 1/2-x,1/2+y,1/2-z
3 -x,-y,-z
4 1/2+x,1/2-y,1/2+z
_cell_length_a                   6.6294(13)
_cell_length_b                   8.6727(17)
_cell_length_c                   13.867(3)
_cell_angle_alpha                90
_cell_angle_beta                 93.35(3)
_cell_angle_gamma                90
_cell_volume                     795.918
loop_
_atom_site_label
_atom_site_type_symbol
_atom_site_fract_x
_atom_site_fract_y
_atom_site_fract_z
La1 La 0.24594(9) 0.74012(7) 0.91160(4)
S1 S 0.7612(4) 0.6664(3) 1.0250(2)
O1 O 0.5644(15) 0.7376(11) 1.0001(8)
O2 O 0.9105(17) 0.7353(12) 0.9639(9)
O3 O 0.0429(15) 0.9462(11) 0.8283(7)
O4 O 0.2351(16) 0.9198(12) 1.0471(7)
O5 O 0.4480(14) 0.9465(11) 0.8422(7)
O6 O 0.4528(14) 1.1236(12) 0.7248(7)
O7 O 0.7504(15) 0.4984(10) 1.0044(7)
O8 O 0.0457(15) 1.1048(11) 0.7014(7)
C1 C 0.3627(19) 1.0349(14) 0.7788(8)
C2 C 0.131(2) 1.0296(14) 0.7687(8)
O9 O 0.8192(18) 0.6926(14) 1.1263(8)
H4 H 0.359(15) 0.96(2) 1.067(14)
H5 H 0.119(15) 0.966(19) 1.069(12)
La1B La 0.75406(9) 0.25988(7) 1.08840(4)
La1_2 La 1.24594(9) 0.74012(7) 0.91160(4)
La1A La 0.25406(9) 1.24012(7) 0.58840(4)
La1B_2 La -0.24594(9) 0.25988(7) 1.08840(4)
La1C La 0.74594(9) -0.24012(7) 1.41160(4)
S1B S 0.2388(4) 0.3336(3) 0.9750(2)
O1B O 0.4356(15) 0.2624(11) 0.9999(8)
O2B O 0.0895(17) 0.2647(12) 1.0361(9)
O2_2 O -0.0895(17) 0.7353(12) 0.9639(9)
O2B_2 O 1.0895(17) 0.2647(12) 1.0361(9)
O3B O 0.9571(15) 0.0538(11) 1.1717(7)
O4B O 0.7649(16) 0.0802(12) 0.9529(7)
O5B O 0.5520(14) 0.0535(11) 1.1578(7)
O6B O 0.5472(14) -0.1236(12) 1.2752(7)
O6A O 0.0472(14) 0.6236(12) 0.7752(7)
O6C O 0.9528(14) 0.3764(12) 1.2248(7)
O7B O 0.2496(15) 0.5016(10) 0.9956(7)
O8B O 0.9543(15) -0.1048(11) 1.2986(7)
O8A O 0.4543(15) 0.6048(11) 0.7986(7)
O8C O 0.5457(15) 0.3952(11) 1.2014(7)
C1B C 0.6373(19) -0.0349(14) 1.2212(8)
C2B C 0.869(2) -0.0296(14) 1.2313(8)
O9B O 0.1808(18) 0.3074(14) 0.8737(8)
H4B H 0.641(15) 0.04(2) 0.933(14)
H5B H 0.881(15) 0.034(19) 0.931(12)
N1 N 0.231(2) 0.6542(18) 0.1927(10)
H1 H 0.121(11) 0.681(17) 0.167(10)
H2 H 0.22(5) 0.574(12) 0.160(9)
H3 H 0.22(2) 0.642(15) 0.252(3)
H6 H 0.328(17) 0.71(2) 0.179(10)
loop_
_geom_bond_atom_site_label_1
_geom_bond_atom_site_label_2
_geom_bond_site_symmetry_1
_geom_bond_site_symmetry_2
La1 O1 1_555 1_555
S1 O1 1_555 1_555
O2 S1 1_555 1_555
O3 La1 1_555 1_555
O4 La1 1_555 1_555
O5 La1 1_555 1_555
O6 C1 1_555 1_555
O7 S1 1_555 1_555
O8 C2 1_555 1_555
C1 O5 1_555 1_555
C2 O3 1_555 1_555
O9 S1 1_555 1_555
N1 H1 1_555 1_555
H2 N1 1_555 1_555
H3 N1 1_555 1_555
H4 O4 1_555 1_555
H5 O4 1_555 1_555
H6 N1 1_555 1_555
La1B O7 1_555 1_555
La1_2 O2 1_555 1_555
La1A O6 1_555 1_555
La1B_2 O2B 1_555 1_555
La1C O6B 1_555 1_555
S1B O1B 1_555 1_555
O1B La1B 1_555 1_555
O2B S1B 1_555 1_555
O2_2 La1 1_555 1_555
O2B_2 La1B 1_555 1_555
O3B La1B 1_555 1_555
O4B La1B 1_555 1_555
O5B La1B 1_555 1_555
O6B C1B 1_555 1_555
O6A La1 1_555 1_555
O6C La1B 1_555 1_555
O7B La1 1_555 1_555
O8B La1C 1_555 1_555
O8A La1 1_555 1_555
O8C La1B 1_555 1_555
C1B O5B 1_555 1_555
C2B O3B 1_555 1_555
O9B S1B 1_555 1_555
H4B O4B 1_555 1_555
H5B O4B 1_555 1_555
O8 La1A 1_555 1_555
C1 C2 1_555 1_555
S1B O7B 1_555 1_555
O8B C2B 1_555 1_555
C1B C2B 1_555 1_555

#END
