
#######################################################################
#
#                 Cambridge Crystallographic Data Centre
#                                CCDC 
#
#######################################################################
#
# If this CIF has been generated from an entry in the Cambridge 
# Structural Database, then it will include bibliographic, chemical, 
# crystal, experimental, refinement or atomic coordinate data resulting 
# from the CCDC's data processing and validation procedures.
#
#######################################################################

data_FABQEG
_symmetry_cell_setting           monoclinic
_symmetry_space_group_name_H-M   'C 2/c'
_symmetry_Int_Tables_number      15
_space_group_name_Hall           '-C 2yn'
loop_
_symmetry_equiv_pos_site_id
_symmetry_equiv_pos_as_xyz
1 x,y,z
2 -x,y,1/2-z
3 1/2+x,1/2+y,z
4 1/2-x,1/2+y,1/2-z
5 -x,-y,-z
6 x,-y,1/2+z
7 1/2-x,1/2-y,-z
8 1/2+x,1/2-y,1/2+z
_cell_length_a                   18.8759(17)
_cell_length_b                   13.2698(6)
_cell_length_c                   19.4794(17)
_cell_angle_alpha                90
_cell_angle_beta                 118.670(12)
_cell_angle_gamma                90
_cell_volume                     4280.99
loop_
_atom_site_label
_atom_site_type_symbol
_atom_site_fract_x
_atom_site_fract_y
_atom_site_fract_z
C1 C 1.1979(2) 0.2298(3) 0.8483(2)
H1 H 1.1905 0.1777 0.8135
C2 C 1.2761(2) 0.2526(3) 0.9053(2)
H2 H 1.3197 0.2157 0.9090
C3 C 1.2879(2) 0.3305(3) 0.9560(2)
H3 H 1.3397 0.3482 0.9939
C4 C 1.22116(11) 0.38251(16) 0.94987(14)
C5 C 1.14389(14) 0.35473(14) 0.89108(12)
C6 C 1.07126(11) 0.40572(17) 0.88316(12)
C7 C 1.07862(11) 0.48728(15) 0.93317(14)
C8 C 1.15674(14) 0.51285(14) 0.99264(12)
C9 C 1.22442(11) 0.46264(17) 1.00080(12)
C10 C 0.9335(2) 0.4164(3) 0.8206(2)
H4 H 0.8836 0.3919 0.7832
C11 C 0.9350(2) 0.4984(3) 0.8659(2)
H5 H 0.8871 0.5286 0.8577
C12 C 1.0068(2) 0.5337(3) 0.9220(2)
H6 H 1.0088 0.5881 0.9529
C13 C 1.2584(2) 0.5752(3) 1.0939(2)
C14 C 1.30942(17) 0.6276(2) 1.16794(15)
C15 C 1.3504(2) 0.7150(2) 1.1728(2)
C16 C 1.3994(2) 0.7144(3) 1.31117(18)
H7 H 1.4307 0.7425 1.3604
C17 C 1.3603(2) 0.6315(3) 1.30833(15)
H8 H 1.3626 0.6040 1.3533
C18 C 1.3167(2) 0.5878(2) 1.2382(2)
C19 C 1.3991(2) 0.7645(2) 1.2486(3)
H9 H 1.4273 0.8241 1.2542
C20 C 0.9950(2) 0.0933(3) 0.6335(2)
C21 C 0.9954(2) 0.0459(2) 0.5627(2)
C22 C 1.0297(2) 0.0971(3) 0.5229(2)
C23 C 1.0503(3) 0.2072(3) 0.5365(2)
C24 C 0.9659(2) -0.0503(3) 0.5389(2)
H10 H 0.9426 -0.0846 0.5647
O1 O 0.93714(16) 0.0717(2) 0.64595(16)
O2 O 1.05052(17) 0.15158(18) 0.67494(15)
O3 O 1.12623(16) 0.2265(2) 0.56025(17)
H11 H 1.1340 0.2874 0.5667
O4 O 0.99811(17) 0.2698(2) 0.52021(17)
Cd1 Cd 1.0000 0.22723(3) 0.7500
Cl1 Cl 1.34515(12) 0.76356(13) 1.09262(10)
F1 F 1.27811(16) 0.50210(17) 1.24087(16)
N1 N 0.9992(2) 0.3717(2) 0.82789(19)
N2 N 1.13315(18) 0.2785(2) 0.84107(17)
N3 N 1.2882(2) 0.5024(2) 1.06528(19)
H12 H 1.3380 0.4849 1.0844
N4 N 1.17919(19) 0.5843(2) 1.05178(19)
C1A C 0.8021(2) 0.2298(3) 0.6517(2)
H1A H 0.8095 0.1777 0.6865
C2A C 0.7239(2) 0.2526(3) 0.5947(2)
H2A H 0.6803 0.2157 0.5910
C3A C 0.7121(2) 0.3305(3) 0.5440(2)
H3A H 0.6603 0.3482 0.5061
C4A C 0.77884(11) 0.38251(16) 0.55013(14)
C5A C 0.85611(14) 0.35473(14) 0.60892(12)
C6A C 0.92874(11) 0.40572(17) 0.61684(12)
C7A C 0.92138(11) 0.48728(15) 0.56683(14)
C8A C 0.84326(14) 0.51285(14) 0.50736(12)
C9A C 0.77558(11) 0.46264(17) 0.49920(12)
C10A C 1.0665(2) 0.4164(3) 0.6794(2)
H4A H 1.1164 0.3919 0.7168
C11A C 1.0650(2) 0.4984(3) 0.6341(2)
H5A H 1.1129 0.5286 0.6423
C12A C 0.9932(2) 0.5337(3) 0.5780(2)
H6A H 0.9912 0.5881 0.5471
C13A C 0.7416(2) 0.5752(3) 0.4061(2)
C14A C 0.69058(17) 0.6276(2) 0.33206(15)
C15A C 0.6496(2) 0.7150(2) 0.3272(2)
C16A C 0.6006(2) 0.7144(3) 0.18883(18)
H7A H 0.5693 0.7425 0.1396
C17A C 0.6397(2) 0.6315(3) 0.19167(15)
H8A H 0.6374 0.6040 0.1467
C18A C 0.6833(2) 0.5878(2) 0.2618(2)
C19A C 0.6009(2) 0.7645(2) 0.2514(3)
H9A H 0.5727 0.8241 0.2458
C20D C 1.0050(2) -0.0933(3) 0.3665(2)
C21D C 1.0046(2) -0.0459(2) 0.4373(2)
C22D C 0.9703(2) -0.0971(3) 0.4771(2)
C23D C 0.9497(3) -0.2072(3) 0.4635(2)
C24D C 1.0341(2) 0.0503(3) 0.4611(2)
H10D H 1.0574 0.0846 0.4353
O1D O 1.06286(16) -0.0717(2) 0.35405(16)
O1A O 1.06286(16) 0.0717(2) 0.85405(16)
O2D O 0.94948(17) -0.15158(18) 0.32506(15)
O2A O 0.94948(17) 0.15158(18) 0.82506(15)
O3D O 0.87377(16) -0.2265(2) 0.43975(17)
H11D H 0.8660 -0.2874 0.4333
O4D O 1.00189(17) -0.2698(2) 0.47979(17)
Cd1D Cd 1.0000 -0.22723(3) 0.2500
Cl1A Cl 0.65485(12) 0.76356(13) 0.40738(10)
F1A F 0.72189(16) 0.50210(17) 0.25913(16)
N1A N 1.0008(2) 0.3717(2) 0.67211(19)
N2A N 0.86685(18) 0.2785(2) 0.65893(17)
N3A N 0.7118(2) 0.5024(2) 0.43472(19)
H12A H 0.6620 0.4849 0.4156
N4A N 0.82081(19) 0.5843(2) 0.44822(19)
loop_
_geom_bond_atom_site_label_1
_geom_bond_atom_site_label_2
_geom_bond_site_symmetry_1
_geom_bond_site_symmetry_2
C1 H1 1_555 1_555
C2 C1 1_555 1_555
H2 C2 1_555 1_555
C3 C2 1_555 1_555
H3 C3 1_555 1_555
C4 C3 1_555 1_555
C5 C4 1_555 1_555
C6 C5 1_555 1_555
C7 C6 1_555 1_555
C8 C7 1_555 1_555
C9 C4 1_555 1_555
C10 H4 1_555 1_555
C11 C10 1_555 1_555
H5 C11 1_555 1_555
C12 C7 1_555 1_555
H6 C12 1_555 1_555
C13 C14 1_555 1_555
C14 C15 1_555 1_555
C15 C19 1_555 1_555
C16 H7 1_555 1_555
C17 C16 1_555 1_555
H8 C17 1_555 1_555
C18 C14 1_555 1_555
C19 C16 1_555 1_555
H9 C19 1_555 1_555
C20 C21 1_555 1_555
C21 C22 1_555 1_555
C22 C23 1_555 1_555
C23 O3 1_555 1_555
C24 C21 1_555 1_555
H10 C24 1_555 1_555
O1 C20 1_555 1_555
O2 C20 1_555 1_555
O3 H11 1_555 1_555
O4 C23 1_555 1_555
Cd1 O1 1_555 1_555
Cl1 C15 1_555 1_555
F1 C18 1_555 1_555
N1 C6 1_555 1_555
N2 C1 1_555 1_555
N3 C9 1_555 1_555
H12 N3 1_555 1_555
N4 C8 1_555 1_555
C1A H1A 1_555 1_555
C2A C1A 1_555 1_555
H2A C2A 1_555 1_555
C3A C2A 1_555 1_555
H3A C3A 1_555 1_555
C4A C3A 1_555 1_555
C5A C4A 1_555 1_555
C6A C5A 1_555 1_555
C7A C6A 1_555 1_555
C8A C7A 1_555 1_555
C9A C4A 1_555 1_555
C10A H4A 1_555 1_555
C11A C10A 1_555 1_555
H5A C11A 1_555 1_555
C12A C7A 1_555 1_555
H6A C12A 1_555 1_555
C13A C14A 1_555 1_555
C14A C15A 1_555 1_555
C15A C19A 1_555 1_555
C16A H7A 1_555 1_555
C17A C16A 1_555 1_555
H8A C17A 1_555 1_555
C18A C14A 1_555 1_555
C19A C16A 1_555 1_555
H9A C19A 1_555 1_555
C20D C21D 1_555 1_555
C21D C22D 1_555 1_555
C22D C24 1_555 1_555
C23D C22D 1_555 1_555
C24D C22 1_555 1_555
H10D C24D 1_555 1_555
O1D C20D 1_555 1_555
O1A Cd1 1_555 1_555
O2D C20D 1_555 1_555
O2A Cd1 1_555 1_555
O3D C23D 1_555 1_555
H11D O3D 1_555 1_555
O4D C23D 1_555 1_555
Cd1D O1D 1_555 1_555
Cl1A C15A 1_555 1_555
F1A C18A 1_555 1_555
N1A Cd1 1_555 1_555
N2A Cd1 1_555 1_555
N3A C9A 1_555 1_555
H12A N3A 1_555 1_555
N4A C8A 1_555 1_555
C5 N2 1_555 1_555
C8 C9 1_555 1_555
C10 N1 1_555 1_555
C11 C12 1_555 1_555
C13 N3 1_555 1_555
C13 N4 1_555 1_555
C17 C18 1_555 1_555
O2 Cd1 1_555 1_555
Cd1 N1 1_555 1_555
Cd1 N2 1_555 1_555
C1A N2A 1_555 1_555
C5A N2A 1_555 1_555
C6A N1A 1_555 1_555
C8A C9A 1_555 1_555
C10A N1A 1_555 1_555
C11A C12A 1_555 1_555
C13A N3A 1_555 1_555
C13A N4A 1_555 1_555
C17A C18A 1_555 1_555
C21D C24D 1_555 1_555
O2D Cd1D 1_555 1_555

#END
