
#######################################################################
#
#                 Cambridge Crystallographic Data Centre
#                                CCDC 
#
#######################################################################
#
# If this CIF has been generated from an entry in the Cambridge 
# Structural Database, then it will include bibliographic, chemical, 
# crystal, experimental, refinement or atomic coordinate data resulting 
# from the CCDC's data processing and validation procedures.
#
#######################################################################

data_FABQOQ
_symmetry_cell_setting           triclinic
_symmetry_space_group_name_H-M   'P -1'
_symmetry_Int_Tables_number      2
_space_group_name_Hall           '-P 1'
loop_
_symmetry_equiv_pos_site_id
_symmetry_equiv_pos_as_xyz
1 x,y,z
2 -x,-y,-z
_cell_length_a                   10.110(3)
_cell_length_b                   11.154(4)
_cell_length_c                   14.710(5)
_cell_angle_alpha                69.240(4)
_cell_angle_beta                 82.439(4)
_cell_angle_gamma                63.212(4)
_cell_volume                     1383.85
loop_
_atom_site_label
_atom_site_type_symbol
_atom_site_fract_x
_atom_site_fract_y
_atom_site_fract_z
Ni1 Ni 0.64562(6) 0.58895(5) 0.63962(4)
S1 S 0.58898(14) 1.14564(12) 0.15364(8)
O1 O 0.4216(3) 0.6856(3) 0.6386(2)
O2 O 0.3756(3) 0.5227(3) 0.6105(3)
O3 O -0.1280(3) 0.5491(3) 0.6523(2)
O4 O -0.3112(3) 0.7315(3) 0.6835(2)
O5 O 0.6678(4) 0.4273(3) 0.5902(2)
H1 H 0.7049 0.4623 0.5400
H2 H 0.5767 0.4636 0.5828
N1 N 0.6525(4) 0.7150(3) 0.4961(2)
N2 N 0.8434(5) 0.9355(4) 0.1788(3)
N3 N 0.8437(5) 1.0278(4) 0.0881(3)
N4 N 0.6568(4) 1.4505(3) -0.2198(3)
C1 C 0.1750(5) 0.7176(4) 0.6416(3)
C2 C 0.0783(5) 0.6555(4) 0.6512(3)
H3 H 0.1150 0.5632 0.6499
C3 C -0.0717(5) 0.7309(4) 0.6624(3)
C4 C -0.1268(5) 0.8697(5) 0.6627(4)
H4 H -0.2276 0.9197 0.6705
C5 C -0.0332(5) 0.9354(5) 0.6515(4)
C6 C 0.1162(5) 0.8583(5) 0.6421(4)
H5 H 0.1797 0.9002 0.6359
C7 C 0.3369(5) 0.6356(4) 0.6288(3)
C8 C -0.1758(5) 0.6661(4) 0.6682(3)
C9 C -0.0972(7) 1.0875(6) 0.6503(6)
H6 H -0.0792 1.0879 0.7127
H7 H -0.2020 1.1329 0.6364
H8 H -0.0509 1.1382 0.6011
C10 C 0.7718(5) 0.6685(4) 0.4442(3)
H9 H 0.8428 0.5748 0.4697
C11 C 0.7957(5) 0.7510(5) 0.3554(3)
H10 H 0.8801 0.7130 0.3217
C12 C 0.6916(5) 0.8932(4) 0.3159(3)
C13 C 0.5685(5) 0.9421(5) 0.3691(3)
H11 H 0.4970 1.0361 0.3462
C14 C 0.5522(5) 0.8496(4) 0.4574(3)
H12 H 0.4668 0.8833 0.4914
C15 C 0.7191(5) 0.9805(4) 0.2214(3)
C16 C 0.7182(5) 1.1414(5) 0.0646(3)
C17 C 0.7844(5) 1.3300(5) -0.1892(3)
H13 H 0.8616 1.3146 -0.2322
C18 C 0.8066(6) 1.2285(5) -0.0975(3)
H14 H 0.8963 1.1473 -0.0800
C19 C 0.6929(5) 1.2500(4) -0.0324(3)
C20 C 0.5618(5) 1.3728(4) -0.0629(3)
H15 H 0.4829 1.3907 -0.0213
C21 C 0.5490(5) 1.4693(5) -0.1569(3)
H16 H 0.4600 1.5510 -0.1763
Ni1_2 Ni -0.35438(6) 0.58895(5) 0.63962(4)
Ni1_3 Ni 0.64562(6) 1.58895(5) -0.36038(4)
O3_2 O 0.8720(3) 0.5491(3) 0.6523(2)
O4_2 O 0.6888(3) 0.7315(3) 0.6835(2)
N4_2 N 0.6568(4) 0.4505(3) 0.7802(3)
C8_2 C 0.8242(5) 0.6661(4) 0.6682(3)
loop_
_geom_bond_atom_site_label_1
_geom_bond_atom_site_label_2
_geom_bond_site_symmetry_1
_geom_bond_site_symmetry_2
Ni1 O1 1_555 1_555
S1 C15 1_555 1_555
O1 C7 1_555 1_555
O2 C7 1_555 1_555
O3 C8 1_555 1_555
O4 C8 1_555 1_555
O5 Ni1 1_555 1_555
H1 O5 1_555 1_555
H2 O5 1_555 1_555
N1 Ni1 1_555 1_555
N2 N3 1_555 1_555
N3 C16 1_555 1_555
N4 C17 1_555 1_555
C1 C2 1_555 1_555
C2 H3 1_555 1_555
C3 C2 1_555 1_555
C4 C3 1_555 1_555
H4 C4 1_555 1_555
C5 C4 1_555 1_555
C6 C1 1_555 1_555
H5 C6 1_555 1_555
C7 C1 1_555 1_555
C8 C3 1_555 1_555
C9 C5 1_555 1_555
H6 C9 1_555 1_555
H7 C9 1_555 1_555
H8 C9 1_555 1_555
C10 N1 1_555 1_555
H9 C10 1_555 1_555
C11 C10 1_555 1_555
H10 C11 1_555 1_555
C12 C11 1_555 1_555
C13 C12 1_555 1_555
H11 C13 1_555 1_555
C14 N1 1_555 1_555
H12 C14 1_555 1_555
C15 N2 1_555 1_555
C16 S1 1_555 1_555
C17 H13 1_555 1_555
C18 C17 1_555 1_555
H14 C18 1_555 1_555
C19 C16 1_555 1_555
C20 C19 1_555 1_555
H15 C20 1_555 1_555
C21 N4 1_555 1_555
H16 C21 1_555 1_555
Ni1_2 O3 1_555 1_555
Ni1_3 N4 1_555 1_555
O3_2 Ni1 1_555 1_555
O4_2 Ni1 1_555 1_555
N4_2 Ni1 1_555 1_555
C8_2 O3_2 1_555 1_555
O4 Ni1_2 1_555 1_555
C5 C6 1_555 1_555
C12 C15 1_555 1_555
C13 C14 1_555 1_555
C18 C19 1_555 1_555
C20 C21 1_555 1_555
O4_2 C8_2 1_555 1_555

#END
