
#######################################################################
#
#                 Cambridge Crystallographic Data Centre
#                                CCDC 
#
#######################################################################
#
# If this CIF has been generated from an entry in the Cambridge 
# Structural Database, then it will include bibliographic, chemical, 
# crystal, experimental, refinement or atomic coordinate data resulting 
# from the CCDC's data processing and validation procedures.
#
#######################################################################

data_FABROR
_symmetry_cell_setting           triclinic
_symmetry_space_group_name_H-M   'P -1'
_symmetry_Int_Tables_number      2
_space_group_name_Hall           '-P 1'
loop_
_symmetry_equiv_pos_site_id
_symmetry_equiv_pos_as_xyz
1 x,y,z
2 -x,-y,-z
_cell_length_a                   7.099(4)
_cell_length_b                   7.586(4)
_cell_length_c                   10.214(6)
_cell_angle_alpha                75.318(8)
_cell_angle_beta                 71.139(10)
_cell_angle_gamma                87.917(9)
_cell_volume                     502.899
loop_
_atom_site_label
_atom_site_type_symbol
_atom_site_fract_x
_atom_site_fract_y
_atom_site_fract_z
Y1 Y 0.31330(8) 0.22026(5) 0.51398(5)
O1 O 0.2421(7) 0.1363(5) 0.3283(4)
O2 O 0.4754(6) -0.0383(4) 0.3751(4)
O3 O 0.6152(7) 0.3350(4) 0.3456(4)
O4 O 0.6975(7) 0.6208(5) 0.3275(4)
O5 O 0.2497(8) 0.5110(5) 0.3938(5)
O6 O 0.0269(7) 0.7287(4) 0.4093(4)
O7 O 0.1365(6) -0.0471(4) 0.6615(4)
H1 H 0.0188 -0.0453 0.6575
H2 H 0.1918 -0.1467 0.6831
C1 C 0.3813(10) 0.0330(6) 0.2901(6)
C2 C 0.4404(10) 0.0099(6) 0.1415(6)
C3 C 0.3238(11) 0.0748(8) 0.0555(7)
H3 H 0.2053 0.1285 0.0925
C4 C 0.6205(12) -0.0616(8) 0.0822(7)
H4 H 0.7040 -0.1008 0.1366
C5 C 0.7173(10) 0.4831(6) 0.2778(6)
C6 C 0.8622(10) 0.4943(7) 0.1340(6)
C7 C 1.0329(11) 0.6069(7) 0.0825(7)
H5 H 1.0551 0.6801 0.1371
C8 C 0.8292(11) 0.3888(7) 0.0498(7)
H6 H 0.7134 0.3147 0.0826
C9 C 0.0826(11) 0.5693(6) 0.4421(6)
Y1A Y -0.31330(8) 0.77974(5) 0.48602(5)
Y1_2 Y 0.31330(8) 0.22026(5) -0.48602(5)
Y1_3 Y 1.31330(8) 0.22026(5) -0.48602(5)
Y1A_2 Y 0.68670(8) -0.22026(5) -0.51398(5)
Y1A_3 Y 0.68670(8) -0.22026(5) 0.48602(5)
Y1A_4 Y 0.68670(8) 0.77974(5) 0.48602(5)
Y1A_5 Y 1.68670(8) 0.77974(5) -0.51398(5)
O1A O 0.7579(7) -0.1363(5) -0.3283(4)
O1A_2 O -0.2421(7) 0.8637(5) 0.6717(4)
O2A O 0.5246(6) 0.0383(4) -0.3751(4)
O2_2 O -0.5246(6) 0.9617(4) 0.3751(4)
O2A_2 O 0.5246(6) 0.0383(4) 0.6249(4)
O2A_3 O -0.4754(6) 1.0383(4) 0.6249(4)
O3A O 1.3848(7) 0.6650(4) -0.3456(4)
O3A_2 O -0.6152(7) 0.6650(4) 0.6544(4)
O4A O 1.3025(7) 0.3792(5) -0.3275(4)
O4_2 O -0.3025(7) 0.6208(5) 0.3275(4)
O4A_2 O 0.3025(7) 0.3792(5) 0.6725(4)
O5A O -0.2497(8) 0.4890(5) 0.6062(5)
O6A O -0.0269(7) 0.2713(4) 0.5907(4)
O7A O -0.1365(6) 1.0471(4) 0.3385(4)
H1A H -0.0188 1.0453 0.3425
H2A H -0.1918 1.1467 0.3169
C1A C 0.6187(10) -0.0330(6) -0.2901(6)
C1A_2 C -0.3813(10) 0.9670(6) 0.7099(6)
C2A C 0.5596(10) -0.0099(6) -0.1415(6)
C3A C 0.6762(11) -0.0748(8) -0.0555(7)
H3A H 0.7947 -0.1285 -0.0925
C4A C 0.3795(12) 0.0616(8) -0.0822(7)
H4A H 0.2960 0.1008 -0.1366
C5A C 1.2827(10) 0.5169(6) -0.2778(6)
C6A C 1.1378(10) 0.5057(7) -0.1340(6)
C7A C 0.9671(11) 0.3931(7) -0.0825(7)
H5A H 0.9449 0.3199 -0.1371
C8A C 1.1708(11) 0.6112(7) -0.0498(7)
H6A H 1.2866 0.6853 -0.0826
C9A C -0.0826(11) 0.4307(6) 0.5579(6)
loop_
_geom_bond_atom_site_label_1
_geom_bond_atom_site_label_2
_geom_bond_site_symmetry_1
_geom_bond_site_symmetry_2
Y1 O1 1_555 1_555
O1 C1 1_555 1_555
O2 Y1 1_555 1_555
O3 Y1 1_555 1_555
O4 C5 1_555 1_555
O5 Y1 1_555 1_555
O6 C9 1_555 1_555
O7 Y1 1_555 1_555
H1 O7 1_555 1_555
H2 O7 1_555 1_555
C1 O2 1_555 1_555
C2 C1 1_555 1_555
C3 C2 1_555 1_555
H3 C3 1_555 1_555
C4 C2 1_555 1_555
H4 C4 1_555 1_555
C5 O3 1_555 1_555
C6 C5 1_555 1_555
C7 C6 1_555 1_555
H5 C7 1_555 1_555
C8 C6 1_555 1_555
H6 C8 1_555 1_555
C9 O5 1_555 1_555
Y1A O6 1_555 1_555
Y1_2 O2A 1_555 1_555
Y1_3 O4A 1_555 1_555
Y1A_2 O1A 1_555 1_555
Y1A_3 O2 1_555 1_555
Y1A_4 O4 1_555 1_555
Y1A_5 O3A 1_555 1_555
O1A C1A 1_555 1_555
O1A_2 Y1A 1_555 1_555
O2A Y1A_2 1_555 1_555
O2_2 Y1A 1_555 1_555
O2A_2 Y1 1_555 1_555
O2A_3 Y1A 1_555 1_555
O3A C5A 1_555 1_555
O3A_2 Y1A 1_555 1_555
O4A C5A 1_555 1_555
O4_2 Y1A 1_555 1_555
O4A_2 Y1 1_555 1_555
O5A Y1A 1_555 1_555
O6A Y1 1_555 1_555
O7A Y1A 1_555 1_555
H1A O7A 1_555 1_555
H2A O7A 1_555 1_555
C1A O2A 1_555 1_555
C1A_2 O1A_2 1_555 1_555
C2A C1A 1_555 1_555
C3A C4 1_555 1_555
H3A C3A 1_555 1_555
C4A C3 1_555 1_555
H4A C4A 1_555 1_555
C5A C6A 1_555 1_555
C6A C7A 1_555 1_555
C7A C8 1_555 1_555
H5A C7A 1_555 1_555
C8A C7 1_555 1_555
H6A C8A 1_555 1_555
C9A C9 1_555 1_555
Y1A_3 O2A_2 1_555 1_555
O2A_3 C1A_2 1_555 1_555
O5A C9A 1_555 1_555
O6A C9A 1_555 1_555
C2A C3A 1_555 1_555
C2A C4A 1_555 1_555
C6A C8A 1_555 1_555

#END
