
#######################################################################
#
#                 Cambridge Crystallographic Data Centre
#                                CCDC 
#
#######################################################################
#
# If this CIF has been generated from an entry in the Cambridge 
# Structural Database, then it will include bibliographic, chemical, 
# crystal, experimental, refinement or atomic coordinate data resulting 
# from the CCDC's data processing and validation procedures.
#
#######################################################################

data_FABVUA
_symmetry_cell_setting           triclinic
_symmetry_space_group_name_H-M   'P -1'
_symmetry_Int_Tables_number      2
_space_group_name_Hall           '-P 1'
loop_
_symmetry_equiv_pos_site_id
_symmetry_equiv_pos_as_xyz
1 x,y,z
2 -x,-y,-z
_cell_length_a                   14.1027(7)
_cell_length_b                   14.2985(7)
_cell_length_c                   14.3500(9)
_cell_angle_alpha                63.154(2)
_cell_angle_beta                 63.508(2)
_cell_angle_gamma                88.398(3)
_cell_volume                     2255.49
loop_
_atom_site_label
_atom_site_type_symbol
_atom_site_fract_x
_atom_site_fract_y
_atom_site_fract_z
Au1 Au 0.3098(1) 0.2261(1) 0.3425(1)
P1 P 0.3943(2) 0.2286(1) 0.1558(2)
P2 P 0.1365(1) 0.2616(1) 0.3638(2)
P3 P 0.3862(2) 0.2240(2) 0.4579(2)
C1 C 0.0539(6) 0.1525(6) 0.3830(7)
C2 C 0.0380(5) 0.0457(5) 0.4893(7)
C3 C 0.4547(6) 0.0310(6) 0.5024(7)
C4 C 0.4908(6) 0.1478(6) 0.4638(7)
C5 C 0.4837(6) 0.4418(5) 0.0501(7)
C6 C 0.4220(6) 0.3669(5) 0.0377(7)
C7 C 0.2913(6) 0.1777(6) 0.6154(7)
C8 C 0.2094(6) 0.0863(6) 0.6782(8)
C9 C 0.1349(7) 0.0493(7) 0.7995(8)
C10 C 0.1416(8) 0.1065(8) 0.8521(9)
C11 C 0.2195(10) 0.1978(10) 0.7902(10)
C12 C 0.2975(8) 0.2310(8) 0.6718(9)
C13 C 0.0455(6) 0.2913(6) 0.4801(7)
C14 C 0.0674(7) 0.2800(7) 0.5691(8)
C15 C -0.0026(9) 0.3032(8) 0.6571(9)
C16 C -0.0944(8) 0.3380(7) 0.6575(9)
C17 C -0.1187(8) 0.3481(8) 0.5707(10)
C18 C -0.0480(6) 0.3265(7) 0.4809(8)
C19 C 0.3045(5) 0.1444(6) 0.1506(7)
C20 C 0.2767(6) 0.0355(6) 0.2314(7)
C21 C 0.2019(6) -0.0334(6) 0.2414(8)
C22 C 0.1527(6) 0.0054(7) 0.1718(9)
C23 C 0.1803(7) 0.1159(8) 0.0890(8)
C24 C 0.2580(6) 0.1842(6) 0.0781(7)
C25 C 0.5254(6) 0.1904(5) 0.1008(7)
C26 C 0.5695(6) 0.1894(6) -0.0070(8)
C27 C 0.6685(7) 0.1605(7) -0.0489(8)
C28 C 0.7219(7) 0.1333(7) 0.0171(9)
C29 C 0.6790(7) 0.1352(7) 0.1221(9)
C30 C 0.5803(6) 0.1631(6) 0.1642(8)
C31 C 0.4476(6) 0.3637(6) 0.3946(7)
C32 C 0.5558(8) 0.4003(7) 0.3541(11)
C33 C 0.5972(8) 0.5084(7) 0.2999(12)
C34 C 0.5340(8) 0.5805(7) 0.2894(10)
C35 C 0.4276(7) 0.5481(7) 0.3267(10)
C36 C 0.3838(6) 0.4389(6) 0.3790(8)
C37 C 0.1540(5) 0.3785(6) 0.2281(7)
C38 C 0.2042(6) 0.4769(6) 0.1975(7)
C39 C 0.2244(7) 0.5678(6) 0.0916(8)
C40 C 0.1955(7) 0.5600(8) 0.0158(9)
C41 C 0.1435(7) 0.4634(7) 0.0440(9)
C42 C 0.1229(6) 0.3728(6) 0.1502(7)
H1 H -0.0178 0.1691 0.3946
H2 H 0.0892 0.1463 0.3095
H3 H 0.0072 0.0532 0.5619
H4 H 0.1094 0.0268 0.4752
H5 H 0.4285 0.0284 0.4499
H6 H 0.3932 -0.0045 0.5851
H7 H 0.5561 0.1818 0.3839
H8 H 0.5110 0.1505 0.5205
H9 H 0.5498 0.4167 0.0500
H10 H 0.4379 0.4388 0.1279
H11 H 0.4655 0.3720 -0.0415
H12 H 0.3528 0.3879 0.0440
H13 H 0.2039 0.0493 0.6394
H14 H 0.0806 -0.0146 0.8442
H15 H 0.0909 0.0820 0.9337
H16 H 0.2206 0.2384 0.8271
H17 H 0.3553 0.2911 0.6303
H18 H 0.1307 0.2563 0.5699
H19 H 0.0133 0.2948 0.7178
H20 H -0.1409 0.3550 0.7173
H21 H -0.1834 0.3698 0.5721
H22 H -0.0637 0.3357 0.4197
H23 H 0.3097 0.0079 0.2807
H24 H 0.1842 -0.1080 0.2966
H25 H 0.1004 -0.0419 0.1794
H26 H 0.1462 0.1438 0.0409
H27 H 0.2788 0.2584 0.0205
H28 H 0.5319 0.2083 -0.0516
H29 H 0.6992 0.1596 -0.1223
H30 H 0.7895 0.1129 -0.0110
H31 H 0.7171 0.1172 0.1661
H32 H 0.5502 0.1634 0.2379
H33 H 0.6014 0.3507 0.3637
H34 H 0.6723 0.5327 0.2692
H35 H 0.5636 0.6541 0.2558
H36 H 0.3832 0.5992 0.3175
H37 H 0.3098 0.4162 0.4038
H38 H 0.2253 0.4828 0.2493
H39 H 0.2583 0.6354 0.0718
H40 H 0.2117 0.6222 -0.0575
H41 H 0.1220 0.4589 -0.0081
H42 H 0.0872 0.3057 0.1704
C5A C 0.5163(6) 0.5582(5) -0.0501(7)
C6A C 0.5780(6) 0.6331(5) -0.0377(7)
P1A P 0.6057(2) 0.7714(1) -0.1558(2)
C19A C 0.6955(5) 0.8556(6) -0.1506(7)
C20A C 0.7233(6) 0.9645(6) -0.2314(7)
C21A C 0.7981(6) 1.0334(6) -0.2414(8)
C22A C 0.8473(6) 0.9946(7) -0.1718(9)
C23A C 0.8197(7) 0.8841(8) -0.0890(8)
C24A C 0.7420(6) 0.8158(6) -0.0781(7)
H27A H 0.7212 0.7416 -0.0205
H26A H 0.8538 0.8562 -0.0409
H25A H 0.8996 1.0419 -0.1794
H24A H 0.8158 1.1080 -0.2966
H23A H 0.6903 0.9921 -0.2807
C25A C 0.4746(6) 0.8096(5) -0.1008(7)
C26A C 0.4305(6) 0.8106(6) 0.0070(8)
C27A C 0.3315(7) 0.8395(7) 0.0489(8)
C28A C 0.2781(7) 0.8667(7) -0.0171(9)
C29A C 0.3210(7) 0.8648(7) -0.1221(9)
C30A C 0.4197(6) 0.8369(6) -0.1642(8)
H32A H 0.4498 0.8366 -0.2379
H31A H 0.2829 0.8828 -0.1661
H30A H 0.2105 0.8871 0.0110
H29A H 0.3008 0.8404 0.1223
H28A H 0.4681 0.7917 0.0516
H11A H 0.5345 0.6280 0.0415
H12A H 0.6472 0.6121 -0.0440
H9A H 0.4502 0.5833 -0.0500
H10A H 0.5621 0.5612 -0.1279
C2A C -0.0380(5) -0.0457(5) 0.5107(7)
C1A C -0.0539(6) -0.1525(6) 0.6170(7)
P2A P -0.1365(1) -0.2616(1) 0.6362(2)
C13A C -0.0455(6) -0.2913(6) 0.5199(7)
C14A C -0.0674(7) -0.2800(7) 0.4309(8)
C15A C 0.0026(9) -0.3032(8) 0.3429(9)
C16A C 0.0944(8) -0.3380(7) 0.3425(9)
C17A C 0.1187(8) -0.3481(8) 0.4293(10)
C18A C 0.0480(6) -0.3265(7) 0.5191(8)
H22A H 0.0637 -0.3357 0.5803
H21A H 0.1834 -0.3698 0.4279
H20A H 0.1409 -0.3550 0.2827
H19A H -0.0133 -0.2948 0.2822
H18A H -0.1307 -0.2563 0.4301
C37A C -0.1540(5) -0.3785(6) 0.7719(7)
C38A C -0.2042(6) -0.4769(6) 0.8025(7)
C39A C -0.2244(7) -0.5678(6) 0.9084(8)
C40A C -0.1955(7) -0.5600(8) 0.9842(9)
C41A C -0.1435(7) -0.4634(7) 0.9560(9)
C42A C -0.1229(6) -0.3728(6) 0.8498(7)
H42A H -0.0872 -0.3057 0.8296
H41A H -0.1220 -0.4589 1.0081
H40A H -0.2117 -0.6222 1.0575
H39A H -0.2583 -0.6354 0.9282
H38A H -0.2253 -0.4828 0.7507
H1A H 0.0178 -0.1691 0.6054
H2A H -0.0892 -0.1463 0.6905
H3A H -0.0072 -0.0532 0.4381
H4A H -0.1094 -0.0268 0.5248
C3A C 0.5453(6) -0.0310(6) 0.4976(7)
C4A C 0.5092(6) -0.1478(6) 0.5362(7)
P3A P 0.6138(2) -0.2240(2) 0.5421(2)
C7A C 0.7087(6) -0.1777(6) 0.3846(7)
C8A C 0.7906(6) -0.0863(6) 0.3218(8)
C9A C 0.8651(7) -0.0493(7) 0.2005(8)
C10A C 0.8584(8) -0.1065(8) 0.1479(9)
C11A C 0.7805(10) -0.1978(10) 0.2098(10)
C12A C 0.7025(8) -0.2310(8) 0.3282(9)
H17A H 0.6447 -0.2911 0.3697
H16A H 0.7794 -0.2384 0.1729
H15A H 0.9091 -0.0820 0.0663
H14A H 0.9194 0.0146 0.1558
H13A H 0.7961 -0.0493 0.3606
C31A C 0.5524(6) -0.3637(6) 0.6054(7)
C32A C 0.4442(8) -0.4003(7) 0.6459(11)
C33A C 0.4028(8) -0.5084(7) 0.7001(12)
C34A C 0.4660(8) -0.5805(7) 0.7106(10)
C35A C 0.5724(7) -0.5481(7) 0.6733(10)
C36A C 0.6162(6) -0.4389(6) 0.6210(8)
H37A H 0.6902 -0.4162 0.5962
H36A H 0.6168 -0.5992 0.6825
H35A H 0.4364 -0.6541 0.7442
H34A H 0.3277 -0.5327 0.7308
H33A H 0.3986 -0.3507 0.6363
H7A H 0.4439 -0.1818 0.6161
H8A H 0.4890 -0.1505 0.4795
H5A H 0.5715 -0.0284 0.5501
H6A H 0.6068 0.0045 0.4149
Au1A Au 0.6902(1) 0.7739(1) -0.3425(1)
Au1A_2 Au -0.3098(1) -0.2261(1) 0.6575(1)
Au1A_3 Au 0.6902(1) -0.2261(1) 0.6575(1)
P2A_2 P 0.8635(1) 0.7384(1) -0.3638(2)
P3A_2 P 0.6138(2) 0.7760(2) -0.4579(2)
Au2 Au -0.1664(1) 0.2060(1) 0.2878(1)
C45 C -0.0765(8) 0.2274(8) 0.1248(12)
C46 C -0.2498(9) 0.1934(9) 0.4438(13)
N1 N -0.3020(8) 0.1832(8) 0.5397(11)
N2 N -0.0238(8) 0.2395(8) 0.0305(10)
C43 C -0.5155(9) 0.1080(8) 0.8263(12)
O1 O -0.4313(7) 0.1982(5) 0.7545(8)
H43 H -0.5115 0.0605 0.8989
H44 H -0.5093 0.0697 0.7826
H45 H -0.5852 0.1301 0.8482
H49 H -0.3883 0.1982 0.6910
C44 C 0.1369(8) 0.4101(9) -0.1868(13)
O2 O 0.1196(9) 0.5033(13) -0.2531(12)
H46 H 0.1473 0.4147 -0.1257
H47 H 0.2020 0.3950 -0.2381
H48 H 0.0742 0.3524 -0.1481
H50 H 0.0642 0.4916 -0.2577
loop_
_geom_bond_atom_site_label_1
_geom_bond_atom_site_label_2
_geom_bond_site_symmetry_1
_geom_bond_site_symmetry_2
Au1 P1 1_555 1_555
Au2 C45 1_555 1_555
P1 C6 1_555 1_555
P2 Au1 1_555 1_555
P3 Au1 1_555 1_555
C1 P2 1_555 1_555
C2 C1 1_555 1_555
C3 C4 1_555 1_555
C4 P3 1_555 1_555
C5 C6 1_555 1_555
C6 H11 1_555 1_555
C7 P3 1_555 1_555
C8 C7 1_555 1_555
C9 C8 1_555 1_555
C10 C9 1_555 1_555
C11 C10 1_555 1_555
C12 C7 1_555 1_555
C13 P2 1_555 1_555
C14 C13 1_555 1_555
C15 C14 1_555 1_555
C16 C15 1_555 1_555
C17 C16 1_555 1_555
C18 C13 1_555 1_555
C19 P1 1_555 1_555
C20 C19 1_555 1_555
C21 C20 1_555 1_555
C22 C21 1_555 1_555
C23 C22 1_555 1_555
C24 C19 1_555 1_555
C25 P1 1_555 1_555
C26 C25 1_555 1_555
C27 C26 1_555 1_555
C28 C27 1_555 1_555
C29 C28 1_555 1_555
C30 C25 1_555 1_555
C31 P3 1_555 1_555
C32 C31 1_555 1_555
C33 C32 1_555 1_555
C34 C33 1_555 1_555
C35 C34 1_555 1_555
C36 C31 1_555 1_555
C37 P2 1_555 1_555
C38 C37 1_555 1_555
C39 C38 1_555 1_555
C40 C39 1_555 1_555
C41 C40 1_555 1_555
C42 C37 1_555 1_555
C43 O1 1_555 1_555
C44 O2 1_555 1_555
C45 N2 1_555 1_555
C46 Au2 1_555 1_555
N1 C46 1_555 1_555
O1 H49 1_555 1_555
O2 H50 1_555 1_555
H1 C1 1_555 1_555
H2 C1 1_555 1_555
H3 C2 1_555 1_555
H4 C2 1_555 1_555
H5 C3 1_555 1_555
H6 C3 1_555 1_555
H7 C4 1_555 1_555
H8 C4 1_555 1_555
H9 C5 1_555 1_555
H10 C5 1_555 1_555
H12 C6 1_555 1_555
H13 C8 1_555 1_555
H14 C9 1_555 1_555
H15 C10 1_555 1_555
H16 C11 1_555 1_555
H17 C12 1_555 1_555
H18 C14 1_555 1_555
H19 C15 1_555 1_555
H20 C16 1_555 1_555
H21 C17 1_555 1_555
H22 C18 1_555 1_555
H23 C20 1_555 1_555
H24 C21 1_555 1_555
H25 C22 1_555 1_555
H26 C23 1_555 1_555
H27 C24 1_555 1_555
H28 C26 1_555 1_555
H29 C27 1_555 1_555
H30 C28 1_555 1_555
H31 C29 1_555 1_555
H32 C30 1_555 1_555
H33 C32 1_555 1_555
H34 C33 1_555 1_555
H35 C34 1_555 1_555
H36 C35 1_555 1_555
H37 C36 1_555 1_555
H38 C38 1_555 1_555
H39 C39 1_555 1_555
H40 C40 1_555 1_555
H41 C41 1_555 1_555
H42 C42 1_555 1_555
H43 C43 1_555 1_555
H44 C43 1_555 1_555
H45 C43 1_555 1_555
H46 C44 1_555 1_555
H47 C44 1_555 1_555
H48 C44 1_555 1_555
C5A C5 1_555 1_555
C6A C5A 1_555 1_555
P1A C6A 1_555 1_555
C19A P1A 1_555 1_555
C20A C19A 1_555 1_555
C21A C20A 1_555 1_555
C22A C21A 1_555 1_555
C23A C22A 1_555 1_555
C24A C19A 1_555 1_555
H27A C24A 1_555 1_555
H26A C23A 1_555 1_555
H25A C22A 1_555 1_555
H24A C21A 1_555 1_555
H23A C20A 1_555 1_555
C25A P1A 1_555 1_555
C26A C25A 1_555 1_555
C27A C26A 1_555 1_555
C28A C27A 1_555 1_555
C29A C28A 1_555 1_555
C30A C25A 1_555 1_555
H32A C30A 1_555 1_555
H31A C29A 1_555 1_555
H30A C28A 1_555 1_555
H29A C27A 1_555 1_555
H28A C26A 1_555 1_555
H11A C6A 1_555 1_555
H12A C6A 1_555 1_555
H9A C5A 1_555 1_555
H10A C5A 1_555 1_555
C2A C2 1_555 1_555
C1A C2A 1_555 1_555
P2A C1A 1_555 1_555
C13A P2A 1_555 1_555
C14A C13A 1_555 1_555
C15A C14A 1_555 1_555
C16A C15A 1_555 1_555
C17A C16A 1_555 1_555
C18A C13A 1_555 1_555
H22A C18A 1_555 1_555
H21A C17A 1_555 1_555
H20A C16A 1_555 1_555
H19A C15A 1_555 1_555
H18A C14A 1_555 1_555
C37A P2A 1_555 1_555
C38A C37A 1_555 1_555
C39A C38A 1_555 1_555
C40A C39A 1_555 1_555
C41A C40A 1_555 1_555
C42A C37A 1_555 1_555
H42A C42A 1_555 1_555
H41A C41A 1_555 1_555
H40A C40A 1_555 1_555
H39A C39A 1_555 1_555
H38A C38A 1_555 1_555
H1A C1A 1_555 1_555
H2A C1A 1_555 1_555
H3A C2A 1_555 1_555
H4A C2A 1_555 1_555
C3A C3 1_555 1_555
C4A C3A 1_555 1_555
P3A C4A 1_555 1_555
C7A P3A 1_555 1_555
C8A C7A 1_555 1_555
C9A C8A 1_555 1_555
C10A C9A 1_555 1_555
C11A C10A 1_555 1_555
C12A C7A 1_555 1_555
H17A C12A 1_555 1_555
H16A C11A 1_555 1_555
H15A C10A 1_555 1_555
H14A C9A 1_555 1_555
H13A C8A 1_555 1_555
C31A P3A 1_555 1_555
C32A C31A 1_555 1_555
C33A C32A 1_555 1_555
C34A C33A 1_555 1_555
C35A C34A 1_555 1_555
C36A C31A 1_555 1_555
H37A C36A 1_555 1_555
H36A C35A 1_555 1_555
H35A C34A 1_555 1_555
H34A C33A 1_555 1_555
H33A C32A 1_555 1_555
H7A C4A 1_555 1_555
H8A C4A 1_555 1_555
H5A C3A 1_555 1_555
H6A C3A 1_555 1_555
Au1A P1A 1_555 1_555
Au1A_2 P2A 1_555 1_555
Au1A_3 P3A 1_555 1_555
P2A_2 Au1A 1_555 1_555
P3A_2 Au1A 1_555 1_555
C11 C12 1_555 1_555
C17 C18 1_555 1_555
C23 C24 1_555 1_555
C29 C30 1_555 1_555
C35 C36 1_555 1_555
C41 C42 1_555 1_555
C23A C24A 1_555 1_555
C29A C30A 1_555 1_555
C17A C18A 1_555 1_555
C41A C42A 1_555 1_555
C11A C12A 1_555 1_555
C35A C36A 1_555 1_555

#END
