
#######################################################################
#
#                 Cambridge Crystallographic Data Centre
#                                CCDC 
#
#######################################################################
#
# If this CIF has been generated from an entry in the Cambridge 
# Structural Database, then it will include bibliographic, chemical, 
# crystal, experimental, refinement or atomic coordinate data resulting 
# from the CCDC's data processing and validation procedures.
#
#######################################################################

data_FABVOU
_symmetry_cell_setting           monoclinic
_symmetry_space_group_name_H-M   'C 2/c'
_symmetry_Int_Tables_number      15
_space_group_name_Hall           '-C 2yn'
loop_
_symmetry_equiv_pos_site_id
_symmetry_equiv_pos_as_xyz
1 x,y,z
2 -x,y,1/2-z
3 1/2+x,1/2+y,z
4 1/2-x,1/2+y,1/2-z
5 -x,-y,-z
6 x,-y,1/2+z
7 1/2-x,1/2-y,-z
8 1/2+x,1/2-y,1/2+z
_cell_length_a                   21.7919(4)
_cell_length_b                   13.5308(3)
_cell_length_c                   26.4892(6)
_cell_angle_alpha                90
_cell_angle_beta                 99.6930(10)
_cell_angle_gamma                90
_cell_volume                     7699.15
loop_
_atom_site_label
_atom_site_type_symbol
_atom_site_fract_x
_atom_site_fract_y
_atom_site_fract_z
Au1 Au 0.5402(1) 0.4172(1) 0.8763(1)
P1 P 0.5096(1) 0.5720(1) 0.8359(1)
P2 P 0.5813(1) 0.3233(1) 0.8131(1)
P3 P 0.5637(1) 0.3984(1) 0.9651(1)
C1 C 0.5216(3) 0.5796(3) 0.7706(2)
C2 C 0.5307(2) 0.3242(4) 0.7517(2)
C3 C 0.5238(2) 0.4712(4) 1.0080(2)
C7 C 0.4307(2) 0.6142(4) 0.8335(2)
C8 C 0.3860(3) 0.5526(5) 0.8503(3)
C9 C 0.3265(3) 0.5791(5) 0.8505(4)
C10 C 0.3085(3) 0.6762(7) 0.8303(3)
C11 C 0.3503(4) 0.7372(6) 0.8148(3)
C12 C 0.4118(3) 0.7073(5) 0.8169(2)
C13 C 0.6068(2) 0.1956(4) 0.8215(2)
C14 C 0.6362(3) 0.1663(5) 0.8683(2)
C15 C 0.6600(4) 0.0703(5) 0.8762(3)
C16 C 0.6518(3) 0.0055(5) 0.8370(3)
C17 C 0.6216(3) 0.0334(5) 0.7889(3)
C18 C 0.5998(3) 0.1292(4) 0.7808(2)
C19 C 0.6440(2) 0.4412(4) 0.9800(2)
C20 C 0.6935(2) 0.3752(4) 0.9798(2)
C21 C 0.7526(3) 0.4097(5) 0.9816(3)
C22 C 0.7651(3) 0.5078(5) 0.9840(2)
C23 C 0.7176(3) 0.5739(4) 0.9851(3)
C24 C 0.6569(3) 0.5401(4) 0.9832(2)
C25 C 0.5597(2) 0.6677(4) 0.8673(2)
C26 C 0.6192(3) 0.6829(5) 0.8563(3)
C27 C 0.6602(3) 0.7475(5) 0.8836(3)
C28 C 0.6418(4) 0.8011(5) 0.9238(3)
C29 C 0.5826(4) 0.7881(5) 0.9346(3)
C30 C 0.5430(3) 0.7212(5) 0.9064(3)
C31 C 0.6517(2) 0.3866(4) 0.8025(2)
C32 C 0.6755(3) 0.3751(6) 0.7573(2)
C33 C 0.7306(3) 0.4243(6) 0.7516(3)
C34 C 0.7609(3) 0.4812(5) 0.7893(3)
C35 C 0.7391(3) 0.4909(5) 0.8347(3)
C36 C 0.6851(3) 0.4446(5) 0.8405(3)
C37 C 0.5667(2) 0.2730(4) 0.9906(2)
C38 C 0.5956(3) 0.2514(4) 1.0409(2)
C39 C 0.5995(3) 0.1572(5) 1.0586(2)
C40 C 0.5752(3) 0.0812(4) 1.0260(3)
C41 C 0.5475(3) 0.1009(4) 0.9773(3)
C42 C 0.5420(3) 0.1972(4) 0.9588(2)
H1 H 0.5635 0.5841 0.7653
H2 H 0.5484 0.3246 0.7213
H3 H 0.5384 0.4670 1.0438
H7 H 0.3987 0.4883 0.8621
H8 H 0.2980 0.5365 0.8631
H9 H 0.2665 0.6972 0.8280
H10 H 0.3378 0.8012 0.8024
H11 H 0.4411 0.7518 0.8067
H12 H 0.6407 0.2115 0.8962
H13 H 0.6817 0.0510 0.9088
H14 H 0.6669 -0.0601 0.8424
H15 H 0.6160 -0.0130 0.7615
H16 H 0.5801 0.1495 0.7476
H17 H 0.6858 0.3060 0.9785
H18 H 0.7857 0.3641 0.9812
H19 H 0.8064 0.5307 0.9848
H20 H 0.7261 0.6427 0.9873
H21 H 0.6242 0.5861 0.9840
H22 H 0.6317 0.6473 0.8288
H23 H 0.7007 0.7558 0.8755
H24 H 0.6698 0.8460 0.9434
H25 H 0.5692 0.8248 0.9613
H26 H 0.5025 0.7122 0.9145
H27 H 0.6547 0.3343 0.7306
H28 H 0.7467 0.4172 0.7207
H29 H 0.7978 0.5150 0.7845
H30 H 0.7613 0.5294 0.8618
H31 H 0.6699 0.4525 0.8718
H32 H 0.6126 0.3036 1.0629
H33 H 0.6185 0.1434 1.0928
H34 H 0.5780 0.0149 1.0380
H35 H 0.5315 0.0479 0.9554
H36 H 0.5216 0.2105 0.9249
C1A C 0.4784(3) 0.5796(3) 0.7294(2)
P1A P 0.4904(1) 0.5720(1) 0.6641(1)
C7A C 0.5693(2) 0.6142(4) 0.6665(2)
C8A C 0.6140(3) 0.5526(5) 0.6497(3)
C9A C 0.6735(3) 0.5791(5) 0.6495(4)
C10A C 0.6915(3) 0.6762(7) 0.6697(3)
C11A C 0.6497(4) 0.7372(6) 0.6852(3)
C12A C 0.5882(3) 0.7073(5) 0.6831(2)
H11A H 0.5589 0.7518 0.6933
H10A H 0.6622 0.8012 0.6976
H9A H 0.7335 0.6972 0.6720
H8A H 0.7020 0.5365 0.6369
H7A H 0.6013 0.4883 0.6379
C25A C 0.4403(2) 0.6677(4) 0.6327(2)
C26A C 0.3808(3) 0.6829(5) 0.6437(3)
C27A C 0.3398(3) 0.7475(5) 0.6164(3)
C28A C 0.3582(4) 0.8011(5) 0.5762(3)
C29A C 0.4174(4) 0.7881(5) 0.5654(3)
C30A C 0.4570(3) 0.7212(5) 0.5936(3)
H26A H 0.4975 0.7122 0.5855
H25A H 0.4308 0.8248 0.5387
H24A H 0.3302 0.8460 0.5566
H23A H 0.2993 0.7558 0.6245
H22A H 0.3683 0.6473 0.6712
H1A H 0.4365 0.5841 0.7347
C2A C 0.4693(2) 0.3242(4) 0.7483(2)
P2A P 0.4187(1) 0.3233(1) 0.6869(1)
C13A C 0.3932(2) 0.1956(4) 0.6785(2)
C14A C 0.3638(3) 0.1663(5) 0.6317(2)
C15A C 0.3400(4) 0.0703(5) 0.6238(3)
C16A C 0.3482(3) 0.0055(5) 0.6630(3)
C17A C 0.3784(3) 0.0334(5) 0.7111(3)
C18A C 0.4002(3) 0.1292(4) 0.7192(2)
H16A H 0.4199 0.1495 0.7524
H15A H 0.3840 -0.0130 0.7385
H14A H 0.3331 -0.0601 0.6576
H13A H 0.3183 0.0510 0.5912
H12A H 0.3593 0.2115 0.6038
C31A C 0.3483(2) 0.3866(4) 0.6975(2)
C32A C 0.3245(3) 0.3751(6) 0.7427(2)
C33A C 0.2694(3) 0.4243(6) 0.7484(3)
C34A C 0.2391(3) 0.4812(5) 0.7107(3)
C35A C 0.2609(3) 0.4909(5) 0.6653(3)
C36A C 0.3149(3) 0.4446(5) 0.6595(3)
H31A H 0.3301 0.4525 0.6282
H30A H 0.2387 0.5294 0.6382
H29A H 0.2022 0.5150 0.7155
H28A H 0.2533 0.4172 0.7793
H27A H 0.3453 0.3343 0.7694
H2A H 0.4516 0.3246 0.7787
C3D C 0.4762(2) 0.5288(4) 0.9920(2)
P3D P 0.4363(1) 0.6016(1) 1.0349(1)
C19D C 0.3560(2) 0.5588(4) 1.0200(2)
C20D C 0.3065(2) 0.6248(4) 1.0202(2)
C21D C 0.2474(3) 0.5903(5) 1.0184(3)
C22D C 0.2349(3) 0.4922(5) 1.0160(2)
C23D C 0.2824(3) 0.4261(4) 1.0149(3)
C24D C 0.3431(3) 0.4599(4) 1.0168(2)
H21D H 0.3758 0.4139 1.0160
H20D H 0.2739 0.3573 1.0127
H19D H 0.1936 0.4693 1.0152
H18D H 0.2143 0.6359 1.0188
H17D H 0.3142 0.6940 1.0215
C37D C 0.4333(2) 0.7270(4) 1.0094(2)
C38D C 0.4044(3) 0.7486(4) 0.9591(2)
C39D C 0.4005(3) 0.8428(5) 0.9414(2)
C40D C 0.4248(3) 0.9188(4) 0.9740(3)
C41D C 0.4525(3) 0.8991(4) 1.0227(3)
C42D C 0.4580(3) 0.8028(4) 1.0412(2)
H36D H 0.4784 0.7895 1.0751
H35D H 0.4685 0.9521 1.0446
H34D H 0.4220 0.9851 0.9620
H33D H 0.3815 0.8566 0.9072
H32D H 0.3874 0.6964 0.9371
H3D H 0.4616 0.5330 0.9562
Au1A Au 0.4598(1) 0.4172(1) 0.6237(1)
Au1D Au 0.4598(1) 0.5828(1) 1.1237(1)
P3A P 0.4363(1) 0.3984(1) 0.5349(1)
C4 C 0.6072(4) 0.7912(11) 1.1237(3)
C5 C 0.6445(4) 0.7394(7) 1.0961(4)
F1 F 0.5972(3) 0.6691(5) 1.0678(3)
F2 F 0.6699(2) 0.7742(4) 1.0606(2)
F3 F 0.6856(2) 0.6750(4) 1.1192(3)
O1 O 0.5763(3) 0.7630(6) 1.1508(2)
O2 O 0.6197(4) 0.8902(6) 1.1136(4)
C6 C 0.5155(4) 1.0289(6) 1.1652(3)
O3 O 0.5792(3) 1.0315(5) 1.1673(2)
H4 H 0.5035 1.0771 1.1894
H5 H 0.5030 0.9625 1.1743
H6 H 0.4948 1.0452 1.1304
H37 H 0.5894 0.9912 1.1461
loop_
_geom_bond_atom_site_label_1
_geom_bond_atom_site_label_2
_geom_bond_site_symmetry_1
_geom_bond_site_symmetry_2
Au1 P1 1_555 1_555
P1 C1 1_555 1_555
P2 Au1 1_555 1_555
P3 Au1 1_555 1_555
C1 H1 1_555 1_555
C2 P2 1_555 1_555
C3 P3 1_555 1_555
C4 C5 1_555 1_555
C5 F1 1_555 1_555
C6 O3 1_555 1_555
C7 P1 1_555 1_555
C8 C7 1_555 1_555
C9 C8 1_555 1_555
C10 C9 1_555 1_555
C11 C10 1_555 1_555
C12 C7 1_555 1_555
C13 P2 1_555 1_555
C14 C13 1_555 1_555
C15 C14 1_555 1_555
C16 C15 1_555 1_555
C17 C16 1_555 1_555
C18 C13 1_555 1_555
C19 P3 1_555 1_555
C20 C19 1_555 1_555
C21 C20 1_555 1_555
C22 C21 1_555 1_555
C23 C22 1_555 1_555
C24 C19 1_555 1_555
C25 P1 1_555 1_555
C26 C25 1_555 1_555
C27 C26 1_555 1_555
C28 C27 1_555 1_555
C29 C28 1_555 1_555
C30 C25 1_555 1_555
C31 P2 1_555 1_555
C32 C31 1_555 1_555
C33 C32 1_555 1_555
C34 C33 1_555 1_555
C35 C34 1_555 1_555
C36 C31 1_555 1_555
C37 P3 1_555 1_555
C38 C37 1_555 1_555
C39 C38 1_555 1_555
C40 C39 1_555 1_555
C41 C40 1_555 1_555
C42 C37 1_555 1_555
F2 C5 1_555 1_555
F3 C5 1_555 1_555
O1 C4 1_555 1_555
O2 C4 1_555 1_555
O3 H37 1_555 1_555
H2 C2 1_555 1_555
H3 C3 1_555 1_555
H4 C6 1_555 1_555
H5 C6 1_555 1_555
H6 C6 1_555 1_555
H7 C8 1_555 1_555
H8 C9 1_555 1_555
H9 C10 1_555 1_555
H10 C11 1_555 1_555
H11 C12 1_555 1_555
H12 C14 1_555 1_555
H13 C15 1_555 1_555
H14 C16 1_555 1_555
H15 C17 1_555 1_555
H16 C18 1_555 1_555
H17 C20 1_555 1_555
H18 C21 1_555 1_555
H19 C22 1_555 1_555
H20 C23 1_555 1_555
H21 C24 1_555 1_555
H22 C26 1_555 1_555
H23 C27 1_555 1_555
H24 C28 1_555 1_555
H25 C29 1_555 1_555
H26 C30 1_555 1_555
H27 C32 1_555 1_555
H28 C33 1_555 1_555
H29 C34 1_555 1_555
H30 C35 1_555 1_555
H31 C36 1_555 1_555
H32 C38 1_555 1_555
H33 C39 1_555 1_555
H34 C40 1_555 1_555
H35 C41 1_555 1_555
H36 C42 1_555 1_555
C1A C1 1_555 1_555
P1A C1A 1_555 1_555
C7A P1A 1_555 1_555
C8A C7A 1_555 1_555
C9A C8A 1_555 1_555
C10A C9A 1_555 1_555
C11A C10A 1_555 1_555
C12A C7A 1_555 1_555
H11A C12A 1_555 1_555
H10A C11A 1_555 1_555
H9A C10A 1_555 1_555
H8A C9A 1_555 1_555
H7A C8A 1_555 1_555
C25A P1A 1_555 1_555
C26A C25A 1_555 1_555
C27A C26A 1_555 1_555
C28A C27A 1_555 1_555
C29A C28A 1_555 1_555
C30A C25A 1_555 1_555
H26A C30A 1_555 1_555
H25A C29A 1_555 1_555
H24A C28A 1_555 1_555
H23A C27A 1_555 1_555
H22A C26A 1_555 1_555
H1A C1A 1_555 1_555
C2A C2 1_555 1_555
P2A C2A 1_555 1_555
C13A P2A 1_555 1_555
C14A C13A 1_555 1_555
C15A C14A 1_555 1_555
C16A C15A 1_555 1_555
C17A C16A 1_555 1_555
C18A C13A 1_555 1_555
H16A C18A 1_555 1_555
H15A C17A 1_555 1_555
H14A C16A 1_555 1_555
H13A C15A 1_555 1_555
H12A C14A 1_555 1_555
C31A P2A 1_555 1_555
C32A C31A 1_555 1_555
C33A C32A 1_555 1_555
C34A C33A 1_555 1_555
C35A C34A 1_555 1_555
C36A C31A 1_555 1_555
H31A C36A 1_555 1_555
H30A C35A 1_555 1_555
H29A C34A 1_555 1_555
H28A C33A 1_555 1_555
H27A C32A 1_555 1_555
H2A C2A 1_555 1_555
C3D C3 1_555 1_555
P3D C3D 1_555 1_555
C19D P3D 1_555 1_555
C20D C19D 1_555 1_555
C21D C20D 1_555 1_555
C22D C21D 1_555 1_555
C23D C22D 1_555 1_555
C24D C19D 1_555 1_555
H21D C24D 1_555 1_555
H20D C23D 1_555 1_555
H19D C22D 1_555 1_555
H18D C21D 1_555 1_555
H17D C20D 1_555 1_555
C37D P3D 1_555 1_555
C38D C37D 1_555 1_555
C39D C38D 1_555 1_555
C40D C39D 1_555 1_555
C41D C40D 1_555 1_555
C42D C37D 1_555 1_555
H36D C42D 1_555 1_555
H35D C41D 1_555 1_555
H34D C40D 1_555 1_555
H33D C39D 1_555 1_555
H32D C38D 1_555 1_555
H3D C3D 1_555 1_555
Au1A P1A 1_555 1_555
Au1D P3D 1_555 1_555
P3A Au1A 1_555 1_555
C11 C12 1_555 1_555
C17 C18 1_555 1_555
C23 C24 1_555 1_555
C29 C30 1_555 1_555
C35 C36 1_555 1_555
C41 C42 1_555 1_555
C11A C12A 1_555 1_555
C29A C30A 1_555 1_555
P2A Au1A 1_555 1_555
C17A C18A 1_555 1_555
C35A C36A 1_555 1_555
C23D C24D 1_555 1_555
C41D C42D 1_555 1_555

#END
