
#######################################################################
#
#                 Cambridge Crystallographic Data Centre
#                                CCDC 
#
#######################################################################
#
# If this CIF has been generated from an entry in the Cambridge 
# Structural Database, then it will include bibliographic, chemical, 
# crystal, experimental, refinement or atomic coordinate data resulting 
# from the CCDC's data processing and validation procedures.
#
#######################################################################

data_FABXUD
_symmetry_cell_setting           triclinic
_symmetry_space_group_name_H-M   'P -1'
_symmetry_Int_Tables_number      2
_space_group_name_Hall           '-P 1'
loop_
_symmetry_equiv_pos_site_id
_symmetry_equiv_pos_as_xyz
1 x,y,z
2 -x,-y,-z
_cell_length_a                   7.5869(5)
_cell_length_b                   8.3754(6)
_cell_length_c                   8.7363(5)
_cell_angle_alpha                82.1342(18)
_cell_angle_beta                 73.0606(18)
_cell_angle_gamma                81.3654(19)
_cell_volume                     522.479
loop_
_atom_site_label
_atom_site_type_symbol
_atom_site_fract_x
_atom_site_fract_y
_atom_site_fract_z
Cu1 Cu 0.86439(6) 0.28149(5) 0.27694(5)
Cu2 Cu 0.84939(6) 0.06661(5) -0.05639(5)
Cl1 Cl 0.67374(12) 0.16340(11) 0.17207(10)
Cl2 Cl 1.15999(12) 0.16771(10) 0.15369(10)
N1 N 0.7183(4) 0.2940(3) 0.5163(3)
N2 N 0.8800(4) 0.5238(3) 0.2974(3)
N3 N 0.9880(4) 0.7825(3) 0.2184(3)
C1 C 0.6304(5) 0.1784(4) 0.6200(4)
C2 C 0.5275(5) 0.2029(4) 0.7763(4)
C3 C 0.5124(5) 0.3540(4) 0.8280(4)
C4 C 0.5989(4) 0.4773(4) 0.7228(4)
C5 C 0.7008(4) 0.4427(4) 0.5680(3)
C6 C 0.7960(4) 0.5672(4) 0.4475(4)
C7 C 0.9727(4) 0.6338(4) 0.1905(4)
C8 C 0.9009(5) 0.8264(4) 0.3659(4)
C9 C 0.8025(5) 0.7232(4) 0.4856(4)
H1 H 0.6391 0.0767 0.5852
H2 H 0.4700 0.1192 0.8448
H3 H 0.4447 0.3734 0.9324
H4 H 0.5891 0.5804 0.7551
H5 H 1.0315 0.6036 0.0877
H6 H 0.9071 0.9305 0.3881
H7 H 0.7428 0.7554 0.5876
Cu2A Cu 1.15061(6) -0.06661(5) 0.05639(5)
Cu2A_2 Cu 1.15061(6) 0.93339(5) 0.05639(5)
Cl2A Cl 0.84001(12) -0.16771(10) -0.15369(10)
N3A N 1.0120(4) 0.2175(3) -0.2184(3)
loop_
_geom_bond_atom_site_label_1
_geom_bond_atom_site_label_2
_geom_bond_site_symmetry_1
_geom_bond_site_symmetry_2
Cu1 Cl1 1_555 1_555
Cu2 Cl1 1_555 1_555
Cl2 Cu1 1_555 1_555
N1 Cu1 1_555 1_555
N2 Cu1 1_555 1_555
N3 C7 1_555 1_555
C1 N1 1_555 1_555
C2 C1 1_555 1_555
C3 C2 1_555 1_555
C4 C3 1_555 1_555
C5 N1 1_555 1_555
C6 N2 1_555 1_555
C7 N2 1_555 1_555
C8 N3 1_555 1_555
C9 C6 1_555 1_555
H1 C1 1_555 1_555
H2 C2 1_555 1_555
H3 C3 1_555 1_555
H4 C4 1_555 1_555
H5 C7 1_555 1_555
H6 C8 1_555 1_555
H7 C9 1_555 1_555
Cu2A Cl2 1_555 1_555
Cu2A_2 N3 1_555 1_555
Cl2A Cu2 1_555 1_555
N3A Cu2 1_555 1_555
C4 C5 1_555 1_555
C5 C6 1_555 1_555
C8 C9 1_555 1_555

#END
