
#######################################################################
#
#                 Cambridge Crystallographic Data Centre
#                                CCDC 
#
#######################################################################
#
# If this CIF has been generated from an entry in the Cambridge 
# Structural Database, then it will include bibliographic, chemical, 
# crystal, experimental, refinement or atomic coordinate data resulting 
# from the CCDC's data processing and validation procedures.
#
#######################################################################

data_FABYUE
_symmetry_cell_setting           monoclinic
_symmetry_space_group_name_H-M   'P 21/c'
_symmetry_Int_Tables_number      14
_space_group_name_Hall           '-P 2ybc'
loop_
_symmetry_equiv_pos_site_id
_symmetry_equiv_pos_as_xyz
1 x,y,z
2 -x,1/2+y,1/2-z
3 -x,-y,-z
4 x,1/2-y,1/2+z
_cell_length_a                   10.7998(15)
_cell_length_b                   9.6915(15)
_cell_length_c                   8.8039(12)
_cell_angle_alpha                90
_cell_angle_beta                 98.168(7)
_cell_angle_gamma                90
_cell_volume                     912.124
loop_
_atom_site_label
_atom_site_type_symbol
_atom_site_fract_x
_atom_site_fract_y
_atom_site_fract_z
Co1 Co 0.14864(5) 0.22838(6) 0.85697(7)
N1 N 0.0116(3) 0.3672(4) 0.8427(4)
C1 C 0.0035(4) 0.4846(5) 0.7621(5)
H1 H 0.0712 0.5190 0.7152
N2 N -0.1053(3) 0.5499(4) 0.7518(4)
C2 C -0.1772(4) 0.4685(5) 0.8358(5)
C3 C -0.2997(4) 0.4845(5) 0.8663(5)
H2 H -0.3500 0.5601 0.8260
C4 C -0.3450(5) 0.3853(6) 0.9579(6)
H3 H -0.4279 0.3932 0.9813
C5 C -0.2711(5) 0.2741(5) 1.0163(6)
H4 H -0.3047 0.2085 1.0795
C6 C -0.1510(5) 0.2570(5) 0.9847(6)
H5 H -0.1014 0.1806 1.0241
C7 C -0.1048(4) 0.3565(4) 0.8923(5)
O1 O 0.3055(3) 0.3133(3) 0.8034(3)
O2 O 0.1902(3) 0.3137(3) 0.5781(4)
C8 C 0.2923(4) 0.3395(5) 0.6615(5)
C9 C 0.3988(5) 0.4011(6) 0.5949(6)
H6 H 0.4004 0.3638 0.4918
H7 H 0.4774 0.3785 0.6602
H8 H 0.3887 0.5015 0.5890
Co1A Co -0.14864(5) 0.72838(6) 0.64303(7)
Co1C Co 0.14864(5) 0.27162(6) 0.35697(7)
N2A N 0.1053(3) 0.0499(4) 0.7482(4)
O2C O 0.1902(3) 0.1863(3) 1.0781(4)
loop_
_geom_bond_atom_site_label_1
_geom_bond_atom_site_label_2
_geom_bond_site_symmetry_1
_geom_bond_site_symmetry_2
Co1 N1 1_555 1_555
N1 C1 1_555 1_555
C1 H1 1_555 1_555
N2 C1 1_555 1_555
C2 N2 1_555 1_555
C3 C2 1_555 1_555
H2 C3 1_555 1_555
C4 C3 1_555 1_555
H3 C4 1_555 1_555
C5 C4 1_555 1_555
H4 C5 1_555 1_555
C6 C5 1_555 1_555
H5 C6 1_555 1_555
C7 N1 1_555 1_555
O1 Co1 1_555 1_555
O2 C8 1_555 1_555
C8 O1 1_555 1_555
C9 C8 1_555 1_555
H6 C9 1_555 1_555
H7 C9 1_555 1_555
H8 C9 1_555 1_555
Co1A N2 1_555 1_555
Co1C O2 1_555 1_555
N2A Co1 1_555 1_555
O2C Co1 1_555 1_555
C2 C7 1_555 1_555
C6 C7 1_555 1_555

#END
