
#######################################################################
#
#                 Cambridge Crystallographic Data Centre
#                                CCDC 
#
#######################################################################
#
# If this CIF has been generated from an entry in the Cambridge 
# Structural Database, then it will include bibliographic, chemical, 
# crystal, experimental, refinement or atomic coordinate data resulting 
# from the CCDC's data processing and validation procedures.
#
#######################################################################

data_FABYAK
_symmetry_cell_setting           triclinic
_symmetry_space_group_name_H-M   'P -1'
_symmetry_Int_Tables_number      2
_space_group_name_Hall           '-P 1'
loop_
_symmetry_equiv_pos_site_id
_symmetry_equiv_pos_as_xyz
1 x,y,z
2 -x,-y,-z
_cell_length_a                   7.8625(10)
_cell_length_b                   8.4847(11)
_cell_length_c                   8.9310(12)
_cell_angle_alpha                80.582(7)
_cell_angle_beta                 73.840(7)
_cell_angle_gamma                80.875(8)
_cell_volume                     560.509
loop_
_atom_site_label
_atom_site_type_symbol
_atom_site_fract_x
_atom_site_fract_y
_atom_site_fract_z
C1 C 0.5231(8) 0.8658(7) 0.8069(7)
H1 H 0.4646 0.8960 0.9082
C2 C 0.6963(7) 0.9311(7) 0.5567(6)
C3 C 0.6895(8) 0.7787(7) 0.5220(7)
H2 H 0.7492 0.7472 0.4214
C4 C 0.5928(8) 0.6746(7) 0.6385(7)
H3 H 0.5874 0.5696 0.6174
C5 C 0.8600(8) 1.3156(7) 0.3900(8)
H4 H 0.8498 1.4180 0.4238
C6 C 0.9633(8) 1.2932(8) 0.2394(7)
H5 H 1.0215 1.3783 0.1720
C7 C 0.9794(9) 1.1438(8) 0.1900(7)
H6 H 1.0494 1.1242 0.0879
C8 C 0.8906(8) 1.0225(7) 0.2930(7)
H7 H 0.8985 0.9192 0.2617
C9 C 0.7901(7) 1.0551(7) 0.4428(7)
N1 N 0.5060(6) 0.7180(6) 0.7813(6)
N2 N 0.6143(7) 0.9733(6) 0.7035(5)
N3 N 0.7741(7) 1.2009(6) 0.4899(6)
Cu1 Cu 0.63159(10) 1.21187(9) 0.72281(9)
Cu2 Cu 0.35314(10) 0.56801(9) 0.94035(8)
Br1 Br 0.82801(8) 1.33068(7) 0.82881(7)
Br2 Br 0.33183(8) 1.32437(7) 0.85042(7)
Cu2A Cu 0.64686(10) 1.43199(9) 1.05965(8)
Cu2_2 Cu 0.35314(10) 1.56801(9) 0.94035(8)
Br1A Br 0.17199(8) 0.66932(7) 1.17119(7)
Br2_2 Br 0.33183(8) 0.32437(7) 0.85042(7)
loop_
_geom_bond_atom_site_label_1
_geom_bond_atom_site_label_2
_geom_bond_site_symmetry_1
_geom_bond_site_symmetry_2
C1 H1 1_555 1_555
C2 C3 1_555 1_555
C3 H2 1_555 1_555
C4 C3 1_555 1_555
H3 C4 1_555 1_555
C5 H4 1_555 1_555
C6 C5 1_555 1_555
H5 C6 1_555 1_555
C7 C6 1_555 1_555
H6 C7 1_555 1_555
C8 C7 1_555 1_555
H7 C8 1_555 1_555
C9 C2 1_555 1_555
N1 C1 1_555 1_555
N2 C1 1_555 1_555
N3 C5 1_555 1_555
Cu1 N2 1_555 1_555
Cu2 N1 1_555 1_555
Br1 Cu1 1_555 1_555
Br2 Cu1 1_555 1_555
Cu2A Br1 1_555 1_555
Cu2_2 Br2 1_555 1_555
Br1A Cu2 1_555 1_555
Br2_2 Cu2 1_555 1_555
C2 N2 1_555 1_555
C4 N1 1_555 1_555
C8 C9 1_555 1_555
C9 N3 1_555 1_555
N3 Cu1 1_555 1_555

#END
