
#######################################################################
#
#                 Cambridge Crystallographic Data Centre
#                                CCDC 
#
#######################################################################
#
# If this CIF has been generated from an entry in the Cambridge 
# Structural Database, then it will include bibliographic, chemical, 
# crystal, experimental, refinement or atomic coordinate data resulting 
# from the CCDC's data processing and validation procedures.
#
#######################################################################

data_FACLAX
_symmetry_cell_setting           orthorhombic
_symmetry_space_group_name_H-M   'P b c a'
_symmetry_Int_Tables_number      61
_space_group_name_Hall           '-P 2ac 2ab'
loop_
_symmetry_equiv_pos_site_id
_symmetry_equiv_pos_as_xyz
1 x,y,z
2 1/2-x,-y,1/2+z
3 1/2+x,1/2-y,-z
4 -x,1/2+y,1/2-z
5 -x,-y,-z
6 1/2+x,y,1/2-z
7 1/2-x,1/2+y,z
8 x,1/2-y,1/2+z
_cell_length_a                   14.411(1)
_cell_length_b                   13.897(2)
_cell_length_c                   14.860(1)
_cell_angle_alpha                90
_cell_angle_beta                 90
_cell_angle_gamma                90
_cell_volume                     2976.01
loop_
_atom_site_label
_atom_site_type_symbol
_atom_site_fract_x
_atom_site_fract_y
_atom_site_fract_z
Cd1 Cd -0.3036(1) -0.3544(1) 0.4563(1)
O1 O -0.0182(2) -0.3986(2) 0.0509(2)
O2 O 0.0860(2) -0.3400(2) 0.1468(2)
O3 O -0.2655(2) -0.3983(3) 0.6763(2)
O4 O -0.1857(2) -0.3604(2) 0.5531(2)
O5 O -0.3893(2) -0.2441(2) 0.5544(2)
O6 O -0.2891(2) -0.1770(2) 0.4672(2)
O7 O -0.3702(3) -0.0897(3) 0.5582(3)
N1 N -0.1955(2) -0.3588(3) 0.3400(2)
N2 N 0.0590(2) -0.3856(3) 0.7821(2)
N3 N -0.3503(2) -0.1697(3) 0.5279(2)
C1 C 0.0049(2) -0.3681(3) 0.1255(3)
C2 C -0.0654(2) -0.3641(3) 0.2004(3)
C3 C -0.1593(3) -0.3617(4) 0.1832(3)
C4 C -0.2210(3) -0.3584(4) 0.2540(3)
C5 C -0.1042(3) -0.3596(4) 0.3565(3)
C6 C -0.0375(2) -0.3623(4) 0.2893(3)
C7 C -0.1933(3) -0.3814(3) 0.6338(3)
C8 C -0.1032(3) -0.3872(3) 0.6872(3)
C9 C -0.0186(3) -0.3845(3) 0.6429(3)
C10 C 0.0620(3) -0.3844(4) 0.6923(3)
C11 C -0.0205(3) -0.3882(3) 0.8265(3)
C12 C -0.1040(3) -0.3898(3) 0.7800(3)
O8 O -0.3322(2) -0.5132(3) 0.4754(2)
Cd1E Cd 0.1964(1) -0.3544(1) 0.0437(1)
O2E O -0.4140(2) -0.3400(2) 0.3532(2)
loop_
_geom_bond_atom_site_label_1
_geom_bond_atom_site_label_2
_geom_bond_site_symmetry_1
_geom_bond_site_symmetry_2
Cd1 O4 1_555 1_555
O1 C1 1_555 1_555
O2 C1 1_555 1_555
O3 C7 1_555 1_555
O4 C7 1_555 1_555
O5 Cd1 1_555 1_555
O6 Cd1 1_555 1_555
O7 N3 1_555 1_555
N1 Cd1 1_555 1_555
N2 C10 1_555 1_555
N3 O5 1_555 1_555
C1 C2 1_555 1_555
C2 C3 1_555 1_555
C3 C4 1_555 1_555
C4 N1 1_555 1_555
C5 N1 1_555 1_555
C6 C2 1_555 1_555
C7 C8 1_555 1_555
C8 C9 1_555 1_555
C9 C10 1_555 1_555
C11 N2 1_555 1_555
C12 C8 1_555 1_555
O8 Cd1 1_555 1_555
Cd1E O2 1_555 1_555
O2E Cd1 1_555 1_555
O6 N3 1_555 1_555
C5 C6 1_555 1_555
C11 C12 1_555 1_555

#END
