
#######################################################################
#
#                 Cambridge Crystallographic Data Centre
#                                CCDC 
#
#######################################################################
#
# If this CIF has been generated from an entry in the Cambridge 
# Structural Database, then it will include bibliographic, chemical, 
# crystal, experimental, refinement or atomic coordinate data resulting 
# from the CCDC's data processing and validation procedures.
#
#######################################################################

data_FADBIX
_symmetry_cell_setting           triclinic
_symmetry_space_group_name_H-M   'P -1'
_symmetry_Int_Tables_number      2
_space_group_name_Hall           '-P 1'
loop_
_symmetry_equiv_pos_site_id
_symmetry_equiv_pos_as_xyz
1 x,y,z
2 -x,-y,-z
_cell_length_a                   9.8719(5)
_cell_length_b                   11.9062(11)
_cell_length_c                   15.5073(14)
_cell_angle_alpha                74.156(8)
_cell_angle_beta                 82.416(6)
_cell_angle_gamma                76.483(6)
_cell_volume                     1700.33
loop_
_atom_site_label
_atom_site_type_symbol
_atom_site_fract_x
_atom_site_fract_y
_atom_site_fract_z
Zn1 Zn 0.5000 0.0000 0.5000
Zn2 Zn -0.48093(4) 0.72151(4) 0.39618(3)
C1 C 0.6336(3) 0.2322(3) 0.4438(2)
C2 C 0.7137(3) 0.2821(3) 0.3576(2)
C3 C 0.6494(4) 0.3869(3) 0.3025(2)
H1 H 0.5625 0.4264 0.3215
C4 C 0.7114(4) 0.4361(4) 0.2180(3)
H2 H 0.6646 0.5060 0.1811
C5 C 0.8405(4) 0.3809(4) 0.1904(3)
H3 H 0.8810 0.4133 0.1342
C6 C 0.9130(3) 0.2760(3) 0.2455(2)
C7 C 1.0481(4) 0.2189(3) 0.2180(2)
H4 H 1.0884 0.2506 0.1616
C8 C 1.1195(4) 0.1199(4) 0.2717(2)
C9 C 1.0604(4) 0.0699(3) 0.3565(2)
H5 H 1.1106 0.0021 0.3937
C10 C 0.9290(3) 0.1206(3) 0.3848(2)
H6 H 0.8908 0.0862 0.4412
C11 C 0.8499(3) 0.2236(3) 0.3307(2)
C12 C 0.4192(3) 0.0432(3) 0.6959(2)
C13 C 0.3804(3) -0.0158(3) 0.7919(2)
C14 C 0.3698(3) 0.0425(3) 0.8639(2)
C15 C 0.4116(3) 0.1510(3) 0.8553(2)
H7 H 0.4447 0.1914 0.7991
C16 C 0.4050(4) 0.1984(3) 0.9270(2)
H8 H 0.4349 0.2692 0.9193
C17 C 0.3536(3) 0.1412(3) 1.0117(2)
C18 C 0.3089(4) 0.0382(4) 1.0233(2)
H9 H 0.2715 0.0020 1.0795
C19 C 0.3185(3) -0.0149(3) 0.9506(2)
C20 C 0.2794(4) -0.1254(4) 0.9642(3)
H10 H 0.2434 -0.1618 1.0207
C21 C 0.2936(4) -0.1797(4) 0.8957(3)
H11 H 0.2695 -0.2535 0.9060
C22 C 0.3449(4) -0.1240(4) 0.8094(3)
H12 H 0.3547 -0.1620 0.7633
C23 C -0.6817(3) 0.7432(4) 0.2990(2)
C24 C -0.7941(3) 0.7452(3) 0.2407(2)
C25 C -0.7889(3) 0.6586(3) 0.1905(2)
C26 C -0.6779(4) 0.5603(4) 0.1874(3)
H13 H -0.6013 0.5478 0.2204
C27 C -0.6806(4) 0.4827(4) 0.1367(3)
H14 H -0.6064 0.4182 0.1365
C28 C -0.7940(4) 0.4995(4) 0.0852(3)
C29 C -0.9037(4) 0.6743(3) 0.1373(2)
C30 C -0.9078(4) 0.8378(4) 0.2371(3)
H15 H -0.9112 0.8929 0.2703
C31 C 0.3086(3) 0.2280(3) 0.4002(2)
H16 H 0.3830 0.2290 0.3566
C32 C 0.1923(3) 0.3195(3) 0.3851(2)
H17 H 0.1903 0.3804 0.3325
C33 C 0.0781(3) 0.3210(3) 0.4482(2)
C34 C -0.0497(3) 0.4163(3) 0.4350(2)
C35 C -0.0687(4) 0.5074(3) 0.3581(2)
H18 H 0.0017 0.5116 0.3119
C36 C -0.1915(4) 0.5930(3) 0.3488(3)
H19 H -0.2012 0.6530 0.2957
C37 C -0.2794(3) 0.5061(3) 0.4881(3)
H20 H -0.3509 0.5044 0.5336
C38 C -0.1605(3) 0.4192(3) 0.5011(2)
H21 H -0.1532 0.3608 0.5551
C39 C 0.0900(3) 0.2262(3) 0.5236(2)
H22 H 0.0162 0.2217 0.5676
C40 C 0.2095(3) 0.1386(3) 0.5344(2)
H23 H 0.2142 0.0763 0.5861
C41 C -1.0190(4) 0.8517(4) 0.1850(3)
H24 H -1.0942 0.9158 0.1834
C42 C -1.0172(4) 0.7722(4) 0.1370(3)
H25 H -1.0920 0.7819 0.1032
C43 C -0.9026(4) 0.5932(4) 0.0858(3)
H26 H -0.9776 0.6041 0.0517
N1 N 0.3197(3) 0.1390(3) 0.47363(18)
N2 N -0.2971(3) 0.5934(3) 0.41254(19)
O1 O 0.6421(2) 0.1231(2) 0.47276(16)
O2 O 0.5573(2) 0.3111(2) 0.48098(16)
O3 O 0.4728(2) -0.0206(2) 0.64306(16)
O4 O 0.3854(2) 0.1563(2) 0.67387(16)
O5 O -0.5831(2) 0.6540(2) 0.31893(17)
O6 O -0.6884(3) 0.8324(2) 0.32926(18)
O7 O 1.2517(2) 0.0687(2) 0.24245(17)
H27 H 1.2696 -0.0024 0.2684
O8 O -0.7973(3) 0.4248(3) 0.0321(2)
H28 H -0.7492 0.3588 0.0526
O9 O 0.3525(3) 0.1955(2) 1.08023(18)
H29 H 0.3263 0.1534 1.1279
Zn2A Zn 1.48093(4) -0.72151(4) 0.60382(3)
Zn2A_2 Zn 0.48093(4) 0.27849(4) 0.60382(3)
Zn2_2 Zn 0.51907(4) -0.27849(4) 0.39618(3)
C1A C 0.3664(3) -0.2322(3) 0.5562(2)
C2A C 0.2863(3) -0.2821(3) 0.6424(2)
C3A C 0.3506(4) -0.3869(3) 0.6975(2)
H1A H 0.4375 -0.4264 0.6785
C4A C 0.2886(4) -0.4361(4) 0.7820(3)
H2A H 0.3354 -0.5060 0.8189
C5A C 0.1595(4) -0.3809(4) 0.8096(3)
H3A H 0.1190 -0.4133 0.8658
C6A C 0.0870(3) -0.2760(3) 0.7545(2)
C7A C -0.0481(4) -0.2189(3) 0.7820(2)
H4A H -0.0884 -0.2506 0.8384
C8A C -0.1195(4) -0.1199(4) 0.7283(2)
C9A C -0.0604(4) -0.0699(3) 0.6435(2)
H5A H -0.1106 -0.0021 0.6063
C10A C 0.0710(3) -0.1206(3) 0.6152(2)
H6A H 0.1092 -0.0862 0.5588
C11A C 0.1501(3) -0.2236(3) 0.6693(2)
C12A C 0.5808(3) -0.0432(3) 0.3041(2)
C13A C 0.6196(3) 0.0158(3) 0.2081(2)
C14A C 0.6302(3) -0.0425(3) 0.1361(2)
C15A C 0.5884(3) -0.1510(3) 0.1447(2)
H7A H 0.5553 -0.1914 0.2009
C16A C 0.5950(4) -0.1984(3) 0.0730(2)
H8A H 0.5651 -0.2692 0.0807
C17A C 0.6464(3) -0.1412(3) -0.0117(2)
C18A C 0.6911(4) -0.0382(4) -0.0233(2)
H9A H 0.7285 -0.0020 -0.0795
C19A C 0.6815(3) 0.0149(3) 0.0494(2)
C20A C 0.7206(4) 0.1254(4) 0.0358(3)
H10A H 0.7566 0.1618 -0.0207
C21A C 0.7064(4) 0.1797(4) 0.1043(3)
H11A H 0.7305 0.2535 0.0940
C22A C 0.6551(4) 0.1240(4) 0.1906(3)
H12A H 0.6453 0.1620 0.2367
C23A C 1.6817(3) -0.7432(4) 0.7010(2)
C24A C 1.7941(3) -0.7452(3) 0.7593(2)
C25A C 1.7889(3) -0.6586(3) 0.8095(2)
C26A C 1.6779(4) -0.5603(4) 0.8126(3)
H13A H 1.6013 -0.5478 0.7796
C27A C 1.6806(4) -0.4827(4) 0.8633(3)
H14A H 1.6064 -0.4182 0.8635
C28A C 1.7940(4) -0.4995(4) 0.9148(3)
C29A C 1.9037(4) -0.6743(3) 0.8627(2)
C30A C 1.9078(4) -0.8378(4) 0.7629(3)
H15A H 1.9112 -0.8929 0.7297
C31A C 0.6914(3) -0.2280(3) 0.5998(2)
H16A H 0.6170 -0.2290 0.6434
C32A C 0.8077(3) -0.3195(3) 0.6149(2)
H17A H 0.8097 -0.3804 0.6675
C33A C 0.9219(3) -0.3210(3) 0.5518(2)
C34A C 1.0497(3) -0.4163(3) 0.5650(2)
C35A C 1.0687(4) -0.5074(3) 0.6419(2)
H18A H 0.9983 -0.5116 0.6881
C36A C 1.1915(4) -0.5930(3) 0.6512(3)
H19A H 1.2012 -0.6530 0.7043
C37A C 1.2794(3) -0.5061(3) 0.5119(3)
H20A H 1.3509 -0.5044 0.4664
C38A C 1.1605(3) -0.4192(3) 0.4989(2)
H21A H 1.1532 -0.3608 0.4449
C39A C 0.9100(3) -0.2262(3) 0.4764(2)
H22A H 0.9838 -0.2217 0.4324
C40A C 0.7905(3) -0.1386(3) 0.4656(2)
H23A H 0.7858 -0.0763 0.4139
C41A C 2.0190(4) -0.8517(4) 0.8150(3)
H24A H 2.0942 -0.9158 0.8166
C42A C 2.0172(4) -0.7722(4) 0.8630(3)
H25A H 2.0920 -0.7819 0.8968
C43A C 1.9026(4) -0.5932(4) 0.9142(3)
H26A H 1.9776 -0.6041 0.9483
N1A N 0.6803(3) -0.1390(3) 0.52637(18)
N2A N 1.2971(3) -0.5934(3) 0.58746(19)
O1A O 0.3579(2) -0.1231(2) 0.52724(16)
O2A O 0.4427(2) -0.3111(2) 0.51902(16)
O2A_2 O -0.5573(2) 0.6889(2) 0.51902(16)
O2_2 O 1.5573(2) -0.6889(2) 0.48098(16)
O3A O 0.5272(2) 0.0206(2) 0.35694(16)
O4A O 0.6146(2) -0.1563(2) 0.32613(16)
O4A_2 O -0.3854(2) 0.8437(2) 0.32613(16)
O4_2 O 1.3854(2) -0.8437(2) 0.67387(16)
O5A O 1.5831(2) -0.6540(2) 0.68107(17)
O6A O 1.6884(3) -0.8324(2) 0.67074(18)
O7A O -0.2517(2) -0.0687(2) 0.75755(17)
H27A H -0.2696 0.0024 0.7316
O8A O 1.7973(3) -0.4248(3) 0.9679(2)
H28A H 1.7492 -0.3588 0.9474
O9A O 0.6475(3) -0.1955(2) -0.08023(18)
H29A H 0.6737 -0.1534 -0.1279
loop_
_geom_bond_atom_site_label_1
_geom_bond_atom_site_label_2
_geom_bond_site_symmetry_1
_geom_bond_site_symmetry_2
Zn1 N1 1_555 1_555
Zn2 N2 1_555 1_555
C1 C2 1_555 1_555
C2 C3 1_555 1_555
C3 H1 1_555 1_555
C4 C3 1_555 1_555
H2 C4 1_555 1_555
C5 C4 1_555 1_555
H3 C5 1_555 1_555
C6 C5 1_555 1_555
C7 C6 1_555 1_555
H4 C7 1_555 1_555
C8 C7 1_555 1_555
C9 C8 1_555 1_555
H5 C9 1_555 1_555
C10 C9 1_555 1_555
H6 C10 1_555 1_555
C11 C2 1_555 1_555
C12 C13 1_555 1_555
C13 C14 1_555 1_555
C14 C15 1_555 1_555
C15 H7 1_555 1_555
C16 C15 1_555 1_555
H8 C16 1_555 1_555
C17 C16 1_555 1_555
C18 C17 1_555 1_555
H9 C18 1_555 1_555
C19 C14 1_555 1_555
C20 C19 1_555 1_555
H10 C20 1_555 1_555
C21 C20 1_555 1_555
H11 C21 1_555 1_555
C22 C13 1_555 1_555
H12 C22 1_555 1_555
C23 C24 1_555 1_555
C24 C25 1_555 1_555
C25 C26 1_555 1_555
C26 H13 1_555 1_555
C27 C26 1_555 1_555
H14 C27 1_555 1_555
C28 C27 1_555 1_555
C29 C25 1_555 1_555
C30 C24 1_555 1_555
H15 C30 1_555 1_555
C31 H16 1_555 1_555
C32 C31 1_555 1_555
H17 C32 1_555 1_555
C33 C32 1_555 1_555
C34 C33 1_555 1_555
C35 C34 1_555 1_555
H18 C35 1_555 1_555
C36 C35 1_555 1_555
H19 C36 1_555 1_555
C37 H20 1_555 1_555
C38 C34 1_555 1_555
H21 C38 1_555 1_555
C39 C33 1_555 1_555
H22 C39 1_555 1_555
C40 C39 1_555 1_555
H23 C40 1_555 1_555
C41 C30 1_555 1_555
H24 C41 1_555 1_555
C42 C29 1_555 1_555
H25 C42 1_555 1_555
C43 C28 1_555 1_555
H26 C43 1_555 1_555
N1 C31 1_555 1_555
N2 C36 1_555 1_555
O1 Zn1 1_555 1_555
O2 C1 1_555 1_555
O3 Zn1 1_555 1_555
O4 C12 1_555 1_555
O5 Zn2 1_555 1_555
O6 Zn2 1_555 1_555
O7 C8 1_555 1_555
H27 O7 1_555 1_555
O8 C28 1_555 1_555
H28 O8 1_555 1_555
O9 C17 1_555 1_555
H29 O9 1_555 1_555
Zn2A N2A 1_555 1_555
Zn2A_2 O2 1_555 1_555
Zn2_2 O2A 1_555 1_555
C1A C2A 1_555 1_555
C2A C3A 1_555 1_555
C3A H1A 1_555 1_555
C4A C3A 1_555 1_555
H2A C4A 1_555 1_555
C5A C4A 1_555 1_555
H3A C5A 1_555 1_555
C6A C5A 1_555 1_555
C7A C6A 1_555 1_555
H4A C7A 1_555 1_555
C8A C7A 1_555 1_555
C9A C8A 1_555 1_555
H5A C9A 1_555 1_555
C10A C9A 1_555 1_555
H6A C10A 1_555 1_555
C11A C2A 1_555 1_555
C12A C13A 1_555 1_555
C13A C14A 1_555 1_555
C14A C15A 1_555 1_555
C15A H7A 1_555 1_555
C16A C15A 1_555 1_555
H8A C16A 1_555 1_555
C17A C16A 1_555 1_555
C18A C17A 1_555 1_555
H9A C18A 1_555 1_555
C19A C14A 1_555 1_555
C20A C19A 1_555 1_555
H10A C20A 1_555 1_555
C21A C20A 1_555 1_555
H11A C21A 1_555 1_555
C22A C13A 1_555 1_555
H12A C22A 1_555 1_555
C23A C24A 1_555 1_555
C24A C25A 1_555 1_555
C25A C26A 1_555 1_555
C26A H13A 1_555 1_555
C27A C26A 1_555 1_555
H14A C27A 1_555 1_555
C28A C27A 1_555 1_555
C29A C25A 1_555 1_555
C30A C24A 1_555 1_555
H15A C30A 1_555 1_555
C31A H16A 1_555 1_555
C32A C31A 1_555 1_555
H17A C32A 1_555 1_555
C33A C32A 1_555 1_555
C34A C33A 1_555 1_555
C35A C34A 1_555 1_555
H18A C35A 1_555 1_555
C36A C35A 1_555 1_555
H19A C36A 1_555 1_555
C37A H20A 1_555 1_555
C38A C34A 1_555 1_555
H21A C38A 1_555 1_555
C39A C33A 1_555 1_555
H22A C39A 1_555 1_555
C40A C39A 1_555 1_555
H23A C40A 1_555 1_555
C41A C30A 1_555 1_555
H24A C41A 1_555 1_555
C42A C29A 1_555 1_555
H25A C42A 1_555 1_555
C43A C28A 1_555 1_555
H26A C43A 1_555 1_555
N1A Zn1 1_555 1_555
N2A C36A 1_555 1_555
O1A Zn1 1_555 1_555
O2A C1A 1_555 1_555
O2A_2 Zn2 1_555 1_555
O2_2 Zn2A 1_555 1_555
O3A Zn1 1_555 1_555
O4A Zn2_2 1_555 1_555
O4A_2 Zn2 1_555 1_555
O4_2 Zn2A 1_555 1_555
O5A Zn2A 1_555 1_555
O6A Zn2A 1_555 1_555
O7A C8A 1_555 1_555
H27A O7A 1_555 1_555
O8A C28A 1_555 1_555
H28A O8A 1_555 1_555
O9A C17A 1_555 1_555
H29A O9A 1_555 1_555
C1 O1 1_555 1_555
C6 C11 1_555 1_555
C10 C11 1_555 1_555
C12 O3 1_555 1_555
C18 C19 1_555 1_555
C21 C22 1_555 1_555
C23 O5 1_555 1_555
C23 O6 1_555 1_555
C29 C43 1_555 1_555
C37 C38 1_555 1_555
C37 N2 1_555 1_555
C40 N1 1_555 1_555
C41 C42 1_555 1_555
O4 Zn2A_2 1_555 1_555
C1A O1A 1_555 1_555
C6A C11A 1_555 1_555
C10A C11A 1_555 1_555
C12A O3A 1_555 1_555
C12A O4A 1_555 1_555
C18A C19A 1_555 1_555
C21A C22A 1_555 1_555
C23A O5A 1_555 1_555
C23A O6A 1_555 1_555
C29A C43A 1_555 1_555
C31A N1A 1_555 1_555
C37A C38A 1_555 1_555
C37A N2A 1_555 1_555
C40A N1A 1_555 1_555
C41A C42A 1_555 1_555

#END
