
#######################################################################
#
#                 Cambridge Crystallographic Data Centre
#                                CCDC 
#
#######################################################################
#
# If this CIF has been generated from an entry in the Cambridge 
# Structural Database, then it will include bibliographic, chemical, 
# crystal, experimental, refinement or atomic coordinate data resulting 
# from the CCDC's data processing and validation procedures.
#
#######################################################################

data_FADKEC
_symmetry_cell_setting           monoclinic
_symmetry_space_group_name_H-M   'P 2/c'
_symmetry_Int_Tables_number      13
_space_group_name_Hall           '-P 2yc'
loop_
_symmetry_equiv_pos_site_id
_symmetry_equiv_pos_as_xyz
1 x,y,z
2 -x,y,1/2-z
3 -x,-y,-z
4 x,-y,1/2+z
_cell_length_a                   9.7117(3)
_cell_length_b                   10.2821(2)
_cell_length_c                   10.9564(4)
_cell_angle_alpha                90
_cell_angle_beta                 113.107(4)
_cell_angle_gamma                90
_cell_volume                     1006.3
loop_
_atom_site_label
_atom_site_type_symbol
_atom_site_fract_x
_atom_site_fract_y
_atom_site_fract_z
O1 O 0.5000 0.7243(4) 0.2500
O2 O -0.4617(4) 0.3662(3) 0.0030(4)
C1 C -0.2101(4) -0.0254(4) 0.2682(4)
C2 C -0.2891(4) -0.0064(4) 0.1175(4)
H1 H -0.2672 -0.0836 0.0726
C3 C -0.4591(4) 0.0035(4) 0.0752(4)
H2 H -0.4928 -0.0711 0.1152
C4 C 0.1826(5) 0.3044(5) 0.1227(5)
H3 H 0.2122 0.2221 0.1019
C5 C 0.2380(5) 0.4169(5) 0.0868(5)
H4 H 0.3051 0.4108 0.0431
C6 C 0.1952(5) 0.5358(5) 0.1150(5)
H5 H 0.2303 0.6130 0.0890
C7 C 0.0988(5) 0.5433(5) 0.1826(5)
C8 C 0.0499(4) 0.4259(4) 0.2157(4)
C9 C 0.0469(6) 0.6626(5) 0.2177(6)
H6 H 0.0789 0.7431 0.1953
N1 N 0.0895(4) 0.3087(3) 0.1852(3)
O3 O -0.0891(3) 0.0323(3) 0.3308(3)
O4 O -0.2688(3) -0.1029(3) 0.3225(3)
O5 O -0.2305(3) 0.1054(3) 0.0800(3)
H7 H -0.2275 0.0931 0.0053
O6 O -0.4971(3) 0.1217(3) 0.1229(3)
Cu1 Cu 0.0000 0.15973(8) 0.2500
C1B C -0.7899(4) 0.0254(4) -0.2682(4)
C2B C -0.7109(4) 0.0064(4) -0.1175(4)
H1B H -0.7328 0.0836 -0.0726
C3B C -0.5409(4) -0.0035(4) -0.0752(4)
H2B H -0.5072 0.0711 -0.1152
C4A C -0.1826(5) 0.3044(5) 0.3773(5)
H3A H -0.2122 0.2221 0.3981
C5A C -0.2380(5) 0.4169(5) 0.4132(5)
H4A H -0.3051 0.4108 0.4569
C6A C -0.1952(5) 0.5358(5) 0.3850(5)
H5A H -0.2303 0.6130 0.4110
C7A C -0.0988(5) 0.5433(5) 0.3174(5)
C8A C -0.0499(4) 0.4259(4) 0.2843(4)
C9A C -0.0469(6) 0.6626(5) 0.2823(6)
H6A H -0.0789 0.7431 0.3047
N1A N -0.0895(4) 0.3087(3) 0.3148(3)
O3B O -0.9109(3) -0.0323(3) -0.3308(3)
O3A O 0.0891(3) 0.0323(3) 0.1692(3)
O4B O -0.7312(3) 0.1029(3) -0.3225(3)
O5B O -0.7695(3) -0.1054(3) -0.0800(3)
O5A O 0.2305(3) 0.1054(3) 0.4200(3)
H7B H -0.7725 -0.0931 -0.0053
O6B O -0.5029(3) -0.1217(3) -0.1229(3)
Cu1B Cu -1.0000 -0.15973(8) -0.2500
loop_
_geom_bond_atom_site_label_1
_geom_bond_atom_site_label_2
_geom_bond_site_symmetry_1
_geom_bond_site_symmetry_2
C1 C2 1_555 1_555
C2 H1 1_555 1_555
C3 C2 1_555 1_555
H2 C3 1_555 1_555
C4 H3 1_555 1_555
C5 C4 1_555 1_555
H4 C5 1_555 1_555
C6 C5 1_555 1_555
H5 C6 1_555 1_555
C7 C6 1_555 1_555
C8 C7 1_555 1_555
C9 C7 1_555 1_555
H6 C9 1_555 1_555
N1 C4 1_555 1_555
O3 C1 1_555 1_555
O4 C1 1_555 1_555
O5 C2 1_555 1_555
H7 O5 1_555 1_555
O6 C3 1_555 1_555
Cu1 N1 1_555 1_555
C1B C2B 1_555 1_555
C2B H1B 1_555 1_555
C3B C3 1_555 1_555
H2B C3B 1_555 1_555
C4A H3A 1_555 1_555
C5A C4A 1_555 1_555
H4A C5A 1_555 1_555
C6A C5A 1_555 1_555
H5A C6A 1_555 1_555
C7A C6A 1_555 1_555
C8A C8 1_555 1_555
C9A C9 1_555 1_555
H6A C9A 1_555 1_555
N1A Cu1 1_555 1_555
O3B C1B 1_555 1_555
O3A Cu1 1_555 1_555
O4B C1B 1_555 1_555
O5B C2B 1_555 1_555
O5A Cu1 1_555 1_555
H7B O5B 1_555 1_555
O6B C3B 1_555 1_555
Cu1B O3B 1_555 1_555
C8 N1 1_555 1_555
O3 Cu1 1_555 1_555
O5 Cu1 1_555 1_555
C2B C3B 1_555 1_555
C4A N1A 1_555 1_555
C7A C8A 1_555 1_555
C7A C9A 1_555 1_555
C8A N1A 1_555 1_555
O5B Cu1B 1_555 1_555

#END
