
#######################################################################
#
#                 Cambridge Crystallographic Data Centre
#                                CCDC 
#
#######################################################################
#
# If this CIF has been generated from an entry in the Cambridge 
# Structural Database, then it will include bibliographic, chemical, 
# crystal, experimental, refinement or atomic coordinate data resulting 
# from the CCDC's data processing and validation procedures.
#
#######################################################################

data_FADTEL
_symmetry_cell_setting           triclinic
_symmetry_space_group_name_H-M   'P -1'
_symmetry_Int_Tables_number      2
_space_group_name_Hall           '-P 1'
loop_
_symmetry_equiv_pos_site_id
_symmetry_equiv_pos_as_xyz
1 x,y,z
2 -x,-y,-z
_cell_length_a                   7.8884(16)
_cell_length_b                   8.2028(16)
_cell_length_c                   15.5763(16)
_cell_angle_alpha                75.15(3)
_cell_angle_beta                 80.71(3)
_cell_angle_gamma                87.58(3)
_cell_volume                     961.453
loop_
_atom_site_label
_atom_site_type_symbol
_atom_site_fract_x
_atom_site_fract_y
_atom_site_fract_z
C1 C -0.0514(5) 0.4960(5) 0.2726(2)
C2 C -0.0210(5) 0.6649(5) 0.2307(3)
H1 H 0.0182 0.7341 0.2622
C3 C -0.0477(5) 0.7330(5) 0.1432(3)
H2 H -0.0267 0.8463 0.1150
C4 C -0.1069(5) 0.6255(5) 0.0991(3)
C5 C -0.1460(5) 0.4591(5) 0.1399(2)
H3 H -0.1921 0.3928 0.1090
C6 C -0.1160(5) 0.3902(5) 0.2278(2)
C7 C -0.0044(5) 0.4357(5) 0.3665(3)
C8 C -0.1540(5) 0.2091(5) 0.2758(3)
C9 C 0.5542(5) 0.2514(5) 0.7340(2)
C10 C 0.6280(5) 0.0971(5) 0.7734(2)
C11 C 0.6646(5) 0.0693(5) 0.8607(2)
H4 H 0.7136 -0.0319 0.8880
C12 C 0.6272(5) 0.1937(5) 0.9062(3)
C13 C 0.5650(5) 0.3499(5) 0.8666(3)
H5 H 0.5480 0.4341 0.8974
C14 C 0.5289(5) 0.3779(5) 0.7805(3)
H6 H 0.4870 0.4825 0.7526
C15 C 0.4833(5) 0.2844(5) 0.6474(2)
C16 C 0.6732(5) -0.0283(5) 0.7183(3)
Ca1 Ca 0.28187(10) 0.36943(10) 0.50073(5)
H7 H -0.251(7) 0.143(7) 0.185(4)
H8 H 0.707(9) -0.224(9) 0.824(5)
H9 H 0.585(4) 0.229(9) 0.425(5)
H10 H -0.052(10) 0.189(9) 0.552(5)
H11 H -0.265(8) 0.006(8) 0.268(4)
H12 H 0.737(6) -0.263(6) 0.725(3)
H13 H 0.448(7) 0.119(6) 0.417(4)
H14 H 0.074(8) 0.067(9) 0.584(5)
N1 N -0.1273(5) 0.6936(5) 0.0044(2)
N2 N -0.2224(7) 0.1110(6) 0.2352(3)
N3 N 0.6530(5) 0.1570(5) 1.0003(2)
N4 N 0.7027(6) -0.1868(5) 0.7596(3)
O1 O 0.1474(4) 0.3949(4) 0.37024(19)
O2 O -0.1176(5) 0.4465(4) 0.4315(2)
O3 O -0.1257(6) 0.1553(4) 0.3529(2)
O4 O -0.2306(5) 0.6265(5) -0.0261(2)
O5 O -0.0393(5) 0.8134(4) -0.0400(2)
O6 O 0.5454(4) 0.4013(4) 0.58195(19)
O7 O 0.3533(4) 0.2045(4) 0.64667(19)
O8 O 0.6842(5) 0.0209(4) 0.6359(2)
O9 O 0.7058(5) 0.0182(5) 1.0348(2)
O10 O 0.6142(6) 0.2650(5) 1.0415(2)
O11 O 0.4825(8) 0.1983(7) 0.4357(4)
O12 O 0.0541(7) 0.1716(6) 0.5606(3)
Ca1A Ca -0.28187(10) 0.63057(10) 0.49927(5)
Ca1A_2 Ca 0.71813(10) 0.63057(10) 0.49927(5)
O2A O 0.1176(5) 0.5535(4) 0.5685(2)
O6A O 0.4546(4) 0.5987(4) 0.41805(19)
loop_
_geom_bond_atom_site_label_1
_geom_bond_atom_site_label_2
_geom_bond_site_symmetry_1
_geom_bond_site_symmetry_2
C1 C2 1_555 1_555
C2 H1 1_555 1_555
C3 C2 1_555 1_555
H2 C3 1_555 1_555
C4 C3 1_555 1_555
C5 C4 1_555 1_555
H3 C5 1_555 1_555
C6 C1 1_555 1_555
C7 C1 1_555 1_555
C8 C6 1_555 1_555
C9 C10 1_555 1_555
C10 C11 1_555 1_555
C11 H4 1_555 1_555
C12 C11 1_555 1_555
C13 C12 1_555 1_555
H5 C13 1_555 1_555
C14 C9 1_555 1_555
H6 C14 1_555 1_555
C15 C9 1_555 1_555
C16 C10 1_555 1_555
Ca1 O1 1_555 1_555
H7 N2 1_555 1_555
H8 N4 1_555 1_555
H9 O11 1_555 1_555
H10 O12 1_555 1_555
H11 N2 1_555 1_555
H12 N4 1_555 1_555
H13 O11 1_555 1_555
H14 O12 1_555 1_555
N1 C4 1_555 1_555
N2 C8 1_555 1_555
N3 C12 1_555 1_555
N4 C16 1_555 1_555
O1 C7 1_555 1_555
O2 C7 1_555 1_555
O3 C8 1_555 1_555
O4 N1 1_555 1_555
O5 N1 1_555 1_555
O6 C15 1_555 1_555
O7 C15 1_555 1_555
O8 C16 1_555 1_555
O9 N3 1_555 1_555
O10 N3 1_555 1_555
O11 Ca1 1_555 1_555
O12 Ca1 1_555 1_555
Ca1A O2 1_555 1_555
Ca1A_2 O6 1_555 1_555
O2A Ca1 1_555 1_555
O6A Ca1 1_555 1_555
C5 C6 1_555 1_555
C13 C14 1_555 1_555
Ca1 O6 1_555 1_555
Ca1 O7 1_555 1_555
Ca1A_2 O6A 1_555 1_555

#END
