
#######################################################################
#
#                 Cambridge Crystallographic Data Centre
#                                CCDC 
#
#######################################################################
#
# If this CIF has been generated from an entry in the Cambridge 
# Structural Database, then it will include bibliographic, chemical, 
# crystal, experimental, refinement or atomic coordinate data resulting 
# from the CCDC's data processing and validation procedures.
#
#######################################################################

data_FADVUD
_symmetry_cell_setting           triclinic
_symmetry_space_group_name_H-M   'P -1'
_symmetry_Int_Tables_number      2
_space_group_name_Hall           '-P 1'
loop_
_symmetry_equiv_pos_site_id
_symmetry_equiv_pos_as_xyz
1 x,y,z
2 -x,-y,-z
_cell_length_a                   7.5171(15)
_cell_length_b                   7.7188(15)
_cell_length_c                   15.521(3)
_cell_angle_alpha                90.02(3)
_cell_angle_beta                 91.75(3)
_cell_angle_gamma                114.57(3)
_cell_volume                     818.565
loop_
_atom_site_label
_atom_site_type_symbol
_atom_site_fract_x
_atom_site_fract_y
_atom_site_fract_z
Pb1 Pb 0.81493(2) 0.15625(2) -0.020591(10)
O1 O 0.7788(5) 0.2489(5) 0.1262(2)
O2 O 1.0771(5) 0.4337(6) 0.0856(2)
O3 O 1.3477(6) 1.0043(7) 0.5773(3)
O4 O 0.8415(7) 0.8537(8) 0.7150(3)
O5 O 0.8474(5) -0.1129(5) 0.0548(2)
O6 O 0.5470(5) -0.1450(5) 0.0380(2)
O7 O 0.6257(8) -0.0705(8) -0.1590(4)
N1 N 1.1132(6) 0.7770(6) 0.4635(3)
H1 H 1.2327 0.8507 0.4773
N2 N 0.9735(6) 0.7566(6) 0.5161(3)
C1 C 0.9470(7) 0.3829(7) 0.1402(3)
C2 C 0.9878(7) 0.4858(6) 0.2256(3)
C3 C 1.1701(7) 0.6285(7) 0.2451(3)
H2 H 1.2678 0.6604 0.2050
C4 C 1.2096(7) 0.7249(8) 0.3234(3)
H3 H 1.3324 0.8221 0.3357
C5 C 0.8440(7) 0.4405(7) 0.2863(3)
H4 H 0.7198 0.3459 0.2736
C6 C 0.8821(7) 0.5337(7) 0.3654(3)
H5 H 0.7855 0.5010 0.4060
C7 C 1.0657(7) 0.6760(7) 0.3831(3)
C8 C 1.0111(7) 0.8467(7) 0.5905(3)
C9 C 0.8326(8) 0.7957(9) 0.6419(4)
C10 C 0.6392(9) 0.6685(12) 0.6010(5)
H6 H 0.6469 0.5566 0.5778
H7 H 0.6061 0.7351 0.5555
H8 H 0.5405 0.6321 0.6435
C11 C 1.2073(8) 0.9766(8) 0.6228(3)
C12 C 1.2409(8) 1.0778(8) 0.7076(3)
H9 H 1.2040 0.9864 0.7530
H10 H 1.1634 1.1501 0.7093
H11 H 1.3769 1.1622 0.7151
C13 C 0.6662(7) -0.2109(7) 0.0626(3)
C14 C 0.5964(8) -0.4044(7) 0.1021(4)
H12 H 0.4561 -0.4606 0.1029
H13 H 0.6495 -0.3926 0.1599
H14 H 0.6391 -0.4838 0.0686
H15 H 0.497(12) -0.153(11) -0.163(5)
H16 H 0.670(11) -0.152(10) -0.172(5)
Pb1A Pb 0.18507(2) -0.15625(2) 0.020591(10)
O6A O 0.4530(5) 0.1450(5) -0.0380(2)
loop_
_geom_bond_atom_site_label_1
_geom_bond_atom_site_label_2
_geom_bond_site_symmetry_1
_geom_bond_site_symmetry_2
Pb1 O1 1_555 1_555
O1 C1 1_555 1_555
O2 Pb1 1_555 1_555
O3 C11 1_555 1_555
O4 C9 1_555 1_555
O5 Pb1 1_555 1_555
O6 Pb1 1_555 1_555
O7 Pb1 1_555 1_555
N1 H1 1_555 1_555
N2 N1 1_555 1_555
C1 O2 1_555 1_555
C2 C1 1_555 1_555
C3 C2 1_555 1_555
H2 C3 1_555 1_555
C4 C3 1_555 1_555
H3 C4 1_555 1_555
C5 C2 1_555 1_555
H4 C5 1_555 1_555
C6 C5 1_555 1_555
H5 C6 1_555 1_555
C7 N1 1_555 1_555
C8 N2 1_555 1_555
C9 C8 1_555 1_555
C10 C9 1_555 1_555
H6 C10 1_555 1_555
H7 C10 1_555 1_555
H8 C10 1_555 1_555
C11 C8 1_555 1_555
C12 C11 1_555 1_555
H9 C12 1_555 1_555
H10 C12 1_555 1_555
H11 C12 1_555 1_555
C13 O5 1_555 1_555
C14 C13 1_555 1_555
H12 C14 1_555 1_555
H13 C14 1_555 1_555
H14 C14 1_555 1_555
H15 O7 1_555 1_555
H16 O7 1_555 1_555
Pb1A O6 1_555 1_555
O6A Pb1 1_555 1_555
O6 C13 1_555 1_555
C4 C7 1_555 1_555
C6 C7 1_555 1_555
Pb1A O6A 1_555 1_555

#END
