
#######################################################################
#
#                 Cambridge Crystallographic Data Centre
#                                CCDC 
#
#######################################################################
#
# If this CIF has been generated from an entry in the Cambridge 
# Structural Database, then it will include bibliographic, chemical, 
# crystal, experimental, refinement or atomic coordinate data resulting 
# from the CCDC's data processing and validation procedures.
#
#######################################################################

data_FADWAK
_symmetry_cell_setting           monoclinic
_symmetry_space_group_name_H-M   'P 2/c'
_symmetry_Int_Tables_number      13
_space_group_name_Hall           '-P 2yc'
loop_
_symmetry_equiv_pos_site_id
_symmetry_equiv_pos_as_xyz
1 x,y,z
2 -x,y,1/2-z
3 -x,-y,-z
4 x,-y,1/2+z
_cell_length_a                   14.227(3)
_cell_length_b                   7.9061(16)
_cell_length_c                   32.366(9)
_cell_angle_alpha                90
_cell_angle_beta                 114.51(3)
_cell_angle_gamma                90
_cell_volume                     3312.48
loop_
_atom_site_label
_atom_site_type_symbol
_atom_site_fract_x
_atom_site_fract_y
_atom_site_fract_z
Zn1 Zn 0.5000 0.26632(19) 0.2500
Zn2 Zn 0.0000 1.35040(19) 0.2500
O1 O 0.5230(8) 0.1084(12) 0.2975(3)
O2 O 0.5852(8) 0.3052(13) 0.3508(3)
O3 O 0.6505(15) -0.447(2) 0.6196(5)
O4 O 0.6116(10) -0.6526(14) 0.4962(4)
O5 O -0.0132(7) 1.5060(10) 0.2022(3)
O6 O -0.0520(7) 1.2964(9) 0.1516(3)
O7 O -0.1915(8) 2.0489(13) -0.1254(3)
O8 O -0.1332(9) 2.2619(11) 0.0009(3)
N1 N 0.3905(7) 0.4410(10) 0.2489(3)
N2 N 0.1129(8) 1.1739(11) 0.2601(3)
N3 N 0.6063(8) -0.3441(14) 0.4715(3)
N4 N 0.6297(8) -0.3097(15) 0.5135(4)
H1 H 0.6363 -0.2048 0.5212
N5 N -0.1137(8) 1.9541(13) 0.0257(3)
N6 N -0.1268(6) 1.9112(11) -0.0152(3)
H2 H -0.1244 1.8063 -0.0217
C1 C 0.3501(10) 0.5510(17) 0.2134(4)
H3 H 0.3601 0.5285 0.1873
C2 C 0.3691(9) 0.4718(14) 0.2837(3)
H4 H 0.3927 0.3960 0.3079
C3 C 0.3147(9) 0.6074(14) 0.2865(4)
H5 H 0.3010 0.6206 0.3120
C4 C 0.2958(11) 0.6924(16) 0.2142(4)
H6 H 0.2704 0.7643 0.1892
C5 C 0.2787(8) 0.7280(13) 0.2522(3)
C6 C 0.2235(8) 0.8828(14) 0.2560(3)
C7 C 0.2219(10) 1.0258(16) 0.2313(4)
H7 H 0.2589 1.0286 0.2134
C8 C 0.1721(10) 0.8879(16) 0.2842(4)
C9 C 0.1202(10) 1.0356(17) 0.2853(4)
H8 H 0.0879 1.0389 0.3050
C10 C 0.1637(8) 1.1679(13) 0.2334(4)
H9 H 0.1606 1.2613 0.2154
C11 C 0.5592(10) 0.1579(16) 0.3390(4)
C12 C 0.5689(9) 0.0282(16) 0.3739(4)
C13 C 0.5505(10) -0.1429(19) 0.3634(4)
H10 H 0.5287 -0.1764 0.3333
C14 C 0.5989(10) 0.0735(18) 0.4190(4)
H11 H 0.6113 0.1868 0.4272
C15 C 0.6105(9) -0.0445(18) 0.4514(4)
H12 H 0.6300 -0.0121 0.4815
C16 C 0.5632(10) -0.2618(18) 0.3951(4)
H13 H 0.5517 -0.3753 0.3870
C17 C 0.5930(9) -0.2135(15) 0.4391(4)
C18 C 0.6442(9) -0.4227(18) 0.5456(5)
C19 C 0.6593(13) -0.358(2) 0.5904(5)
C20 C 0.6800(14) -0.177(2) 0.6003(5)
H14 H 0.6284 -0.1112 0.5768
H15 H 0.7470 -0.1493 0.6017
H16 H 0.6781 -0.1510 0.6290
C21 C 0.6378(10) -0.613(2) 0.5362(5)
C22 C 0.6658(12) -0.7363(18) 0.5715(6)
H17 H 0.6065 -0.8038 0.5675
H18 H 0.6903 -0.6804 0.6005
H19 H 0.7193 -0.8077 0.5704
C23 C -0.0378(9) 1.4482(16) 0.1619(4)
C24 C -0.0532(8) 1.5829(13) 0.1264(3)
C25 C -0.0399(8) 1.7544(14) 0.1368(4)
H20 H -0.0175 1.7879 0.1669
C26 C -0.0911(8) 1.5343(14) 0.0806(4)
H21 H -0.1049 1.4209 0.0727
C27 C -0.0589(8) 1.8748(15) 0.1042(4)
H22 H -0.0489 1.9890 0.1116
C28 C -0.1081(9) 1.6546(13) 0.0470(3)
H23 H -0.1287 1.6221 0.0169
C29 C -0.0942(9) 1.8198(14) 0.0588(4)
C30 C -0.1442(9) 2.0300(15) -0.0476(3)
C31 C -0.1620(9) 1.9564(16) -0.0921(4)
C32 C -0.1435(12) 1.7757(18) -0.0966(5)
H24 H -0.1537 1.7524 -0.1273
H25 H -0.1907 1.7092 -0.0892
H26 H -0.0738 1.7477 -0.0763
C33 C -0.1488(9) 2.2089(14) -0.0384(4)
C34 C -0.1672(12) 2.3383(17) -0.0747(5)
H27 H -0.1615 2.4495 -0.0620
H28 H -0.2351 2.3234 -0.0984
H29 H -0.1167 2.3252 -0.0870
Zn2_2 Zn 1.0000 1.35040(19) 0.2500
O1A O 0.4770(8) 0.1084(12) 0.2025(3)
O2A O 0.4148(8) 0.3052(13) 0.1492(3)
O3A O 0.3495(15) -0.447(2) -0.1196(5)
O4A O 0.3884(10) -0.6526(14) 0.0038(4)
O5A O 0.0132(7) 1.5060(10) 0.2978(3)
O6A O 0.0520(7) 1.2964(9) 0.3484(3)
O7A O 0.1915(8) 2.0489(13) 0.6254(3)
O8A O 0.1332(9) 2.2619(11) 0.4991(3)
N1A N 0.6095(7) 0.4410(10) 0.2511(3)
N2A N 0.8871(8) 1.1739(11) 0.2399(3)
N2A_2 N -0.1129(8) 1.1739(11) 0.2399(3)
N3A N 0.3937(8) -0.3441(14) 0.0285(3)
N4A N 0.3703(8) -0.3097(15) -0.0135(4)
H1A H 0.3637 -0.2048 -0.0212
N5A N 0.1137(8) 1.9541(13) 0.4743(3)
N6A N 0.1268(6) 1.9112(11) 0.5152(3)
H2A H 0.1244 1.8063 0.5217
C1A C 0.6499(10) 0.5510(17) 0.2866(4)
H3A H 0.6399 0.5285 0.3127
C2A C 0.6309(9) 0.4718(14) 0.2163(3)
H4A H 0.6073 0.3960 0.1921
C3A C 0.6853(9) 0.6074(14) 0.2135(4)
H5A H 0.6990 0.6206 0.1880
C4A C 0.7042(11) 0.6924(16) 0.2858(4)
H6A H 0.7296 0.7643 0.3108
C5A C 0.7213(8) 0.7280(13) 0.2478(3)
C6A C 0.7765(8) 0.8828(14) 0.2440(3)
C7A C 0.7781(10) 1.0258(16) 0.2687(4)
H7A H 0.7411 1.0286 0.2866
C8A C 0.8279(10) 0.8879(16) 0.2158(4)
C9A C 0.8798(10) 1.0356(17) 0.2147(4)
H8A H 0.9121 1.0389 0.1950
C10A C 0.8363(8) 1.1679(13) 0.2666(4)
H9A H 0.8394 1.2613 0.2846
C11A C 0.4408(10) 0.1579(16) 0.1610(4)
C12A C 0.4311(9) 0.0282(16) 0.1261(4)
C13A C 0.4495(10) -0.1429(19) 0.1366(4)
H10A H 0.4713 -0.1764 0.1667
C14A C 0.4011(10) 0.0735(18) 0.0810(4)
H11A H 0.3887 0.1868 0.0728
C15A C 0.3895(9) -0.0445(18) 0.0486(4)
H12A H 0.3700 -0.0121 0.0185
C16A C 0.4368(10) -0.2618(18) 0.1049(4)
H13A H 0.4483 -0.3753 0.1130
C17A C 0.4070(9) -0.2135(15) 0.0609(4)
C18A C 0.3558(9) -0.4227(18) -0.0456(5)
C19A C 0.3407(13) -0.358(2) -0.0904(5)
C20A C 0.3200(14) -0.177(2) -0.1003(5)
H14A H 0.3716 -0.1112 -0.0768
H15A H 0.2530 -0.1493 -0.1017
H16A H 0.3219 -0.1510 -0.1290
C21A C 0.3622(10) -0.613(2) -0.0362(5)
C22A C 0.3342(12) -0.7363(18) -0.0715(6)
H17A H 0.3935 -0.8038 -0.0675
H18A H 0.3097 -0.6804 -0.1005
H19A H 0.2807 -0.8077 -0.0704
C23A C 0.0378(9) 1.4482(16) 0.3381(4)
C24A C 0.0532(8) 1.5829(13) 0.3736(3)
C25A C 0.0399(8) 1.7544(14) 0.3632(4)
H20A H 0.0175 1.7879 0.3331
C26A C 0.0911(8) 1.5343(14) 0.4194(4)
H21A H 0.1049 1.4209 0.4273
C27A C 0.0589(8) 1.8748(15) 0.3958(4)
H22A H 0.0489 1.9890 0.3884
C28A C 0.1081(9) 1.6546(13) 0.4530(3)
H23A H 0.1287 1.6221 0.4831
C29A C 0.0942(9) 1.8198(14) 0.4412(4)
C30A C 0.1442(9) 2.0300(15) 0.5476(3)
C31A C 0.1620(9) 1.9564(16) 0.5921(4)
C32A C 0.1435(12) 1.7757(18) 0.5966(5)
H24A H 0.1537 1.7524 0.6273
H25A H 0.1907 1.7092 0.5892
H26A H 0.0738 1.7477 0.5763
C33A C 0.1488(9) 2.2089(14) 0.5384(4)
C34A C 0.1672(12) 2.3383(17) 0.5747(5)
H27A H 0.1615 2.4495 0.5620
H28A H 0.2351 2.3234 0.5984
H29A H 0.1167 2.3252 0.5870
loop_
_geom_bond_atom_site_label_1
_geom_bond_atom_site_label_2
_geom_bond_site_symmetry_1
_geom_bond_site_symmetry_2
Zn1 O1 1_555 1_555
Zn2 O5 1_555 1_555
O1 C11 1_555 1_555
O2 C11 1_555 1_555
O3 C19 1_555 1_555
O4 C21 1_555 1_555
O5 C23 1_555 1_555
O6 C23 1_555 1_555
O7 C31 1_555 1_555
O8 C33 1_555 1_555
N1 Zn1 1_555 1_555
N2 Zn2 1_555 1_555
N3 N4 1_555 1_555
N4 H1 1_555 1_555
N5 N6 1_555 1_555
N6 H2 1_555 1_555
C1 N1 1_555 1_555
H3 C1 1_555 1_555
C2 N1 1_555 1_555
H4 C2 1_555 1_555
C3 C2 1_555 1_555
H5 C3 1_555 1_555
C4 C1 1_555 1_555
H6 C4 1_555 1_555
C5 C3 1_555 1_555
C6 C5 1_555 1_555
C7 C6 1_555 1_555
H7 C7 1_555 1_555
C8 C6 1_555 1_555
C9 N2 1_555 1_555
H8 C9 1_555 1_555
C10 N2 1_555 1_555
H9 C10 1_555 1_555
C11 C12 1_555 1_555
C12 C13 1_555 1_555
C13 H10 1_555 1_555
C14 C12 1_555 1_555
H11 C14 1_555 1_555
C15 C14 1_555 1_555
H12 C15 1_555 1_555
C16 C13 1_555 1_555
H13 C16 1_555 1_555
C17 N3 1_555 1_555
C18 N4 1_555 1_555
C19 C18 1_555 1_555
C20 C19 1_555 1_555
H14 C20 1_555 1_555
H15 C20 1_555 1_555
H16 C20 1_555 1_555
C21 C18 1_555 1_555
C22 C21 1_555 1_555
H17 C22 1_555 1_555
H18 C22 1_555 1_555
H19 C22 1_555 1_555
C23 C24 1_555 1_555
C24 C25 1_555 1_555
C25 H20 1_555 1_555
C26 C24 1_555 1_555
H21 C26 1_555 1_555
C27 C25 1_555 1_555
H22 C27 1_555 1_555
C28 C26 1_555 1_555
H23 C28 1_555 1_555
C29 N5 1_555 1_555
C30 N6 1_555 1_555
C31 C30 1_555 1_555
C32 C31 1_555 1_555
H24 C32 1_555 1_555
H25 C32 1_555 1_555
H26 C32 1_555 1_555
C33 C30 1_555 1_555
C34 C33 1_555 1_555
H27 C34 1_555 1_555
H28 C34 1_555 1_555
H29 C34 1_555 1_555
Zn2_2 N2A 1_555 1_555
O1A Zn1 1_555 1_555
O2A C11A 1_555 1_555
O3A C19A 1_555 1_555
O4A C21A 1_555 1_555
O5A Zn2 1_555 1_555
O6A C23A 1_555 1_555
O7A C31A 1_555 1_555
O8A C33A 1_555 1_555
N1A Zn1 1_555 1_555
N2A C9A 1_555 1_555
N2A_2 Zn2 1_555 1_555
N3A N4A 1_555 1_555
N4A H1A 1_555 1_555
N5A N6A 1_555 1_555
N6A H2A 1_555 1_555
C1A N1A 1_555 1_555
H3A C1A 1_555 1_555
C2A N1A 1_555 1_555
H4A C2A 1_555 1_555
C3A C2A 1_555 1_555
H5A C3A 1_555 1_555
C4A C1A 1_555 1_555
H6A C4A 1_555 1_555
C5A C3A 1_555 1_555
C6A C5A 1_555 1_555
C7A C6A 1_555 1_555
H7A C7A 1_555 1_555
C8A C6A 1_555 1_555
C9A C8A 1_555 1_555
H8A C9A 1_555 1_555
C10A N2A 1_555 1_555
H9A C10A 1_555 1_555
C11A O1A 1_555 1_555
C12A C11A 1_555 1_555
C13A C12A 1_555 1_555
H10A C13A 1_555 1_555
C14A C12A 1_555 1_555
H11A C14A 1_555 1_555
C15A C14A 1_555 1_555
H12A C15A 1_555 1_555
C16A C13A 1_555 1_555
H13A C16A 1_555 1_555
C17A N3A 1_555 1_555
C18A N4A 1_555 1_555
C19A C18A 1_555 1_555
C20A C19A 1_555 1_555
H14A C20A 1_555 1_555
H15A C20A 1_555 1_555
H16A C20A 1_555 1_555
C21A C18A 1_555 1_555
C22A C21A 1_555 1_555
H17A C22A 1_555 1_555
H18A C22A 1_555 1_555
H19A C22A 1_555 1_555
C23A O5A 1_555 1_555
C24A C23A 1_555 1_555
C25A C24A 1_555 1_555
H20A C25A 1_555 1_555
C26A C24A 1_555 1_555
H21A C26A 1_555 1_555
C27A C25A 1_555 1_555
H22A C27A 1_555 1_555
C28A C26A 1_555 1_555
H23A C28A 1_555 1_555
C29A N5A 1_555 1_555
C30A N6A 1_555 1_555
C31A C30A 1_555 1_555
C32A C31A 1_555 1_555
H24A C32A 1_555 1_555
H25A C32A 1_555 1_555
H26A C32A 1_555 1_555
C33A C30A 1_555 1_555
C34A C33A 1_555 1_555
H27A C34A 1_555 1_555
H28A C34A 1_555 1_555
H29A C34A 1_555 1_555
C4 C5 1_555 1_555
C7 C10 1_555 1_555
C8 C9 1_555 1_555
C15 C17 1_555 1_555
C16 C17 1_555 1_555
C27 C29 1_555 1_555
C28 C29 1_555 1_555
C4A C5A 1_555 1_555
C7A C10A 1_555 1_555
C15A C17A 1_555 1_555
C16A C17A 1_555 1_555
C27A C29A 1_555 1_555
C28A C29A 1_555 1_555

#END
