
#######################################################################
#
#                 Cambridge Crystallographic Data Centre
#                                CCDC 
#
#######################################################################
#
# If this CIF has been generated from an entry in the Cambridge 
# Structural Database, then it will include bibliographic, chemical, 
# crystal, experimental, refinement or atomic coordinate data resulting 
# from the CCDC's data processing and validation procedures.
#
#######################################################################

data_FADXUF
_symmetry_cell_setting           orthorhombic
_symmetry_space_group_name_H-M   'P c a 21'
_symmetry_Int_Tables_number      29
_space_group_name_Hall           'P 2c -2ac'
loop_
_symmetry_equiv_pos_site_id
_symmetry_equiv_pos_as_xyz
1 x,y,z
2 -x,-y,1/2+z
3 1/2-x,y,1/2+z
4 1/2+x,-y,z
_cell_length_a                   15.5149(12)
_cell_length_b                   10.4907(8)
_cell_length_c                   11.5892(9)
_cell_angle_alpha                90
_cell_angle_beta                 90
_cell_angle_gamma                90
_cell_volume                     1886.28
loop_
_atom_site_label
_atom_site_type_symbol
_atom_site_fract_x
_atom_site_fract_y
_atom_site_fract_z
C1 C 0.5018(3) 0.0691(4) 0.4042(5)
C2 C 0.4842(3) 0.2784(4) 0.6636(4)
C3 C 0.4098(3) 0.1313(4) 0.5493(4)
C4 C 0.4348(3) 0.2517(4) 0.4749(5)
C5 C 0.3155(3) 0.1162(4) 0.5763(4)
C6 C 0.2901(4) 0.0324(6) 0.6638(6)
H1 H 0.3310 -0.0133 0.7054
C7 C 0.2045(4) 0.0189(7) 0.6871(6)
H2 H 0.1862 -0.0367 0.7447
C8 C 0.1438(4) 0.0903(6) 0.6228(6)
H3 H 0.0855 0.0824 0.6402
C9 C 0.2517(3) 0.1830(4) 0.5148(4)
C10 C 0.2767(3) 0.2746(3) 0.4215(7)
C11 C 0.3627(3) 0.3089(4) 0.4047(5)
C12 C 0.3816(4) 0.3973(5) 0.3185(5)
H4 H 0.4380 0.4240 0.3061
C13 C 0.3148(4) 0.4449(6) 0.2516(6)
H5 H 0.3256 0.5028 0.1926
C14 C 0.2327(4) 0.4048(6) 0.2743(6)
H6 H 0.1884 0.4375 0.2291
N1 N 0.4418(3) 0.0291(3) 0.4799(4)
H7 H 0.4248 -0.0486 0.4858
N2 N 0.5031(2) 0.1979(3) 0.4029(4)
H8 H 0.5396 0.2426 0.3644
N3 N 0.4611(3) 0.1550(4) 0.6523(3)
H9 H 0.4752 0.0966 0.7008
N4 N 0.4668(3) 0.3396(3) 0.5620(3)
H10 H 0.4739 0.4200 0.5510
N5 N 0.1677(3) 0.1678(4) 0.5387(4)
N6 N 0.2120(3) 0.3212(4) 0.3575(4)
N7 N -0.0547(3) 0.3241(4) 0.6223(4)
O1 O 0.5138(2) 0.3306(4) 0.7500(3)
O2 O 0.5482(3) -0.0022(4) 0.3451(4)
O3 O -0.0339(3) 0.3889(4) 0.5340(4)
O4 O -0.0434(4) 0.2084(4) 0.6241(5)
O5 O -0.0845(3) 0.3794(5) 0.7074(4)
Ag1 Ag 0.06852(2) 0.27106(4) 0.42045(5)
O1B O -0.0138(2) 0.3306(4) 0.2500(3)
Ag1B Ag 0.43148(2) 0.27106(4) 0.92045(5)
O6 O 0.2732(9) -0.3172(13) 1.0009(12)
C15 C 0.2493(7) -0.2328(9) 0.9076(15)
C16 C 0.1602(5) -0.2021(6) 0.8914(6)
loop_
_geom_bond_atom_site_label_1
_geom_bond_atom_site_label_2
_geom_bond_site_symmetry_1
_geom_bond_site_symmetry_2
C1 N1 1_555 1_555
C2 N3 1_555 1_555
C3 C4 1_555 1_555
C4 C11 1_555 1_555
C5 C3 1_555 1_555
C6 C5 1_555 1_555
H1 C6 1_555 1_555
C7 C6 1_555 1_555
H2 C7 1_555 1_555
C8 C7 1_555 1_555
H3 C8 1_555 1_555
C9 C5 1_555 1_555
C10 C9 1_555 1_555
C11 C10 1_555 1_555
C12 C11 1_555 1_555
H4 C12 1_555 1_555
C13 C12 1_555 1_555
H5 C13 1_555 1_555
C14 C13 1_555 1_555
H6 C14 1_555 1_555
N1 C3 1_555 1_555
H7 N1 1_555 1_555
N2 C1 1_555 1_555
H8 N2 1_555 1_555
N3 C3 1_555 1_555
H9 N3 1_555 1_555
N4 C2 1_555 1_555
H10 N4 1_555 1_555
N5 C8 1_555 1_555
N6 C10 1_555 1_555
N7 O3 1_555 1_555
O1 C2 1_555 1_555
O2 C1 1_555 1_555
O3 Ag1 1_555 1_555
O4 N7 1_555 1_555
O5 N7 1_555 1_555
Ag1 N5 1_555 1_555
O6 C15 1_555 1_555
C15 C16 1_555 1_555
O1B Ag1 1_555 1_555
Ag1B O1 1_555 1_555
C4 N2 1_555 1_555
C4 N4 1_555 1_555
C9 N5 1_555 1_555
C14 N6 1_555 1_555
N6 Ag1 1_555 1_555

#END
