
#######################################################################
#
#                 Cambridge Crystallographic Data Centre
#                                CCDC 
#
#######################################################################
#
# If this CIF has been generated from an entry in the Cambridge 
# Structural Database, then it will include bibliographic, chemical, 
# crystal, experimental, refinement or atomic coordinate data resulting 
# from the CCDC's data processing and validation procedures.
#
#######################################################################

data_FADZAL
_symmetry_cell_setting           monoclinic
_symmetry_space_group_name_H-M   'P 1 1 21/b'
_symmetry_Int_Tables_number      14
_space_group_name_Hall           '-P 2bc'
loop_
_symmetry_equiv_pos_site_id
_symmetry_equiv_pos_as_xyz
1 x,y,z
2 -x,1/2-y,1/2+z
3 -x,-y,-z
4 x,1/2+y,1/2-z
_cell_length_a                   13.430(5)
_cell_length_b                   17.100(5)
_cell_length_c                   22.270(8)
_cell_angle_alpha                90
_cell_angle_beta                 90
_cell_angle_gamma                128.30(2)
_cell_volume                     4013.64
loop_
_atom_site_label
_atom_site_type_symbol
_atom_site_fract_x
_atom_site_fract_y
_atom_site_fract_z
Cu1 Cu 0.0312(1) 0.3789(1) 0.7045(1)
Cu2 Cu 0.4682(1) 0.7528(1) 0.7908(1)
Cu3 Cu -0.1178(1) 0.4475(1) 0.7071(1)
O1 O -0.0547(7) 0.4055(6) 0.6460(3)
O2 O -0.0230(5) 0.4288(4) 0.7624(3)
O3 O 0.2319(7) 0.5164(6) 0.6954(4)
O4 O 0.4138(7) 0.6514(6) 0.7301(4)
O5 O 0.5159(8) 0.7001(6) 0.8519(4)
O6 O 0.6845(7) 0.8045(6) 0.7970(4)
O7 O 0.7023(7) 0.7442(6) 0.8812(3)
O8 O 0.2347(6) 0.5942(5) 0.7772(3)
N1 N 0.0704(7) 0.3144(6) 0.7666(3)
N2 N 0.0618(7) 0.3013(6) 0.6492(3)
N3 N -0.1652(7) 0.5056(6) 0.7677(3)
N4 N -0.1709(8) 0.5080(7) 0.6518(4)
N5 N 0.4590(7) 0.8404(6) 0.7331(3)
N6 N 0.4617(7) 0.8376(6) 0.8495(3)
C1 C 0.2901(8) 0.5849(7) 0.7346(4)
C2 C 0.6373(8) 0.7494(7) 0.8431(4)
C3 C 0.0659(10) 0.3238(8) 0.8256(5)
C4 C 0.0967(9) 0.2785(8) 0.8651(5)
C5 C 0.1295(10) 0.2225(8) 0.8411(5)
C6 C 0.1327(9) 0.2119(8) 0.7805(4)
C7 C 0.1041(9) 0.2598(8) 0.7432(5)
C8 C 0.1006(8) 0.2551(7) 0.6775(4)
C9 C 0.1296(10) 0.2019(8) 0.6450(4)
C10 C 0.1188(10) 0.1982(9) 0.5832(5)
C11 C 0.0780(10) 0.2457(7) 0.5539(4)
C12 C 0.0527(10) 0.3001(9) 0.5886(5)
C13 C -0.1662(10) 0.4895(8) 0.8271(5)
C14 C -0.2036(10) 0.5322(9) 0.8675(5)
C15 C -0.2396(10) 0.5849(9) 0.8445(5)
C16 C -0.2398(9) 0.5984(8) 0.7828(4)
C17 C -0.2054(9) 0.5557(7) 0.7458(4)
C18 C -0.2086(10) 0.5573(8) 0.6803(5)
C19 C -0.2456(10) 0.6043(8) 0.6468(5)
C20 C -0.2483(11) 0.5954(9) 0.5840(5)
C21 C -0.2146(11) 0.5461(9) 0.5552(5)
C22 C -0.1761(11) 0.5040(9) 0.5923(5)
C23 C 0.4614(10) 0.8312(8) 0.6739(4)
C24 C 0.4492(11) 0.8944(9) 0.6357(5)
C25 C 0.4336(11) 0.9585(9) 0.6632(5)
C26 C 0.4270(10) 0.9612(8) 0.7243(5)
C27 C 0.4421(8) 0.9018(7) 0.7593(4)
C28 C 0.4373(8) 0.8981(7) 0.8251(4)
C29 C 0.4142(9) 0.9518(8) 0.8609(4)
C30 C 0.4125(10) 0.9416(8) 0.9217(5)
C31 C 0.4369(10) 0.8829(9) 0.9477(5)
C32 C 0.4599(10) 0.8316(8) 0.9099(5)
H1 H -0.110(8) 0.351(7) 0.622(4)
H2 H 0.053(8) 0.498(7) 0.766(4)
H3 H 0.060(8) 0.383(7) 0.840(4)
H4 H 0.125(8) 0.167(7) 0.874(4)
H5 H 0.155(14) 0.164(11) 0.758(7)
H6 H 0.120(11) 0.141(9) 0.546(5)
H7 H -0.271(8) 0.623(7) 0.873(4)
H8 H -0.276(10) 0.639(8) 0.555(5)
H9 H -0.176(9) 0.457(8) 0.568(5)
H10 H 0.476(8) 0.787(7) 0.643(4)
H11 H 0.438(9) 1.013(8) 0.635(5)
H12 H 0.446(10) 1.028(9) 0.742(5)
H13 H 0.425(9) 1.004(8) 0.836(5)
H14 H 0.407(11) 0.984(9) 0.951(5)
H15 H 0.402(14) 0.857(11) 0.981(7)
H16 H 0.497(7) 0.801(6) 0.932(3)
O6C O -0.3155(7) 0.3045(6) 0.7030(4)
Cu3C Cu 0.8822(1) 0.9475(1) 0.7929(1)
O9 O -0.3536(9) 0.7196(8) 0.6871(4)
O10 O 0.0838(10) 0.0334(8) 0.9495(4)
O11 O 0.3160(10) 0.5830(9) 0.5800(4)
O12 O 0.5301(14) 0.2703(11) 0.9569(6)
O13 O -0.2252(13) -0.0562(10) 0.3971(5)
O14 O -0.2548(15) 0.7886(11) 0.5733(6)
O15 O 0.4487(17) 0.6040(11) 0.9630(6)
O16 O 0.1982(14) 0.2329(11) 1.0023(5)
O17 O -0.0309(48) 0.0726(36) 0.4625(18)
O18 O 0.2380(33) 0.4142(23) 0.9936(9)
O19 O 0.3916(33) 0.4419(24) 1.0041(15)
loop_
_geom_bond_atom_site_label_1
_geom_bond_atom_site_label_2
_geom_bond_site_symmetry_1
_geom_bond_site_symmetry_2
Cu1 O1 1_555 1_555
Cu2 O4 1_555 1_555
Cu3 O1 1_555 1_555
O1 H1 1_555 1_555
O2 Cu1 1_555 1_555
O3 Cu1 1_555 1_555
O4 C1 1_555 1_555
O5 Cu2 1_555 1_555
O6 Cu2 1_555 1_555
O7 C2 1_555 1_555
O8 Cu2 1_555 1_555
N1 Cu1 1_555 1_555
N2 Cu1 1_555 1_555
N3 Cu3 1_555 1_555
N4 Cu3 1_555 1_555
N5 Cu2 1_555 1_555
N6 Cu2 1_555 1_555
C1 O3 1_555 1_555
C2 O5 1_555 1_555
C3 N1 1_555 1_555
C4 C3 1_555 1_555
C5 C4 1_555 1_555
C6 C5 1_555 1_555
C7 N1 1_555 1_555
C8 N2 1_555 1_555
C9 C8 1_555 1_555
C10 C9 1_555 1_555
C11 C10 1_555 1_555
C12 N2 1_555 1_555
C13 N3 1_555 1_555
C14 C13 1_555 1_555
C15 C14 1_555 1_555
C16 C15 1_555 1_555
C17 N3 1_555 1_555
C18 N4 1_555 1_555
C19 C18 1_555 1_555
C20 C19 1_555 1_555
C21 C20 1_555 1_555
C22 N4 1_555 1_555
C23 N5 1_555 1_555
C24 C23 1_555 1_555
C25 C24 1_555 1_555
C26 C25 1_555 1_555
C27 N5 1_555 1_555
C28 N6 1_555 1_555
C29 C28 1_555 1_555
C30 C29 1_555 1_555
C31 C30 1_555 1_555
C32 N6 1_555 1_555
H2 O2 1_555 1_555
H3 C3 1_555 1_555
H4 C5 1_555 1_555
H5 C6 1_555 1_555
H6 C10 1_555 1_555
H7 C15 1_555 1_555
H8 C20 1_555 1_555
H9 C22 1_555 1_555
H10 C23 1_555 1_555
H11 C25 1_555 1_555
H12 C26 1_555 1_555
H13 C29 1_555 1_555
H14 C30 1_555 1_555
H15 C31 1_555 1_555
H16 C32 1_555 1_555
O6C Cu3 1_555 1_555
Cu3C O6 1_555 1_555
Cu3 O2 1_555 1_555
O6 C2 1_555 1_555
O8 C1 1_555 1_555
C6 C7 1_555 1_555
C7 C8 1_555 1_555
C11 C12 1_555 1_555
C16 C17 1_555 1_555
C17 C18 1_555 1_555
C21 C22 1_555 1_555
C26 C27 1_555 1_555
C27 C28 1_555 1_555
C31 C32 1_555 1_555

#END
