
#######################################################################
#
#                 Cambridge Crystallographic Data Centre
#                                CCDC 
#
#######################################################################
#
# If this CIF has been generated from an entry in the Cambridge 
# Structural Database, then it will include bibliographic, chemical, 
# crystal, experimental, refinement or atomic coordinate data resulting 
# from the CCDC's data processing and validation procedures.
#
#######################################################################

data_FAFCOG
_symmetry_cell_setting           triclinic
_symmetry_space_group_name_H-M   'P -1'
_symmetry_Int_Tables_number      2
_space_group_name_Hall           '-P 1'
loop_
_symmetry_equiv_pos_site_id
_symmetry_equiv_pos_as_xyz
1 x,y,z
2 -x,-y,-z
_cell_length_a                   7.3390(12)
_cell_length_b                   10.0486(17)
_cell_length_c                   12.6313(19)
_cell_angle_alpha                72.917(5)
_cell_angle_beta                 83.391(7)
_cell_angle_gamma                83.719(7)
_cell_volume                     881.693
loop_
_atom_site_label
_atom_site_type_symbol
_atom_site_fract_x
_atom_site_fract_y
_atom_site_fract_z
Gd1 Gd -0.24297(9) 0.95554(7) -0.04674(6)
O1 O -0.1419(13) 0.7142(10) 0.0811(9)
O2 O 0.0699(14) 0.8664(11) 0.0137(9)
O3 O 0.4665(12) 0.8598(11) 0.0249(10)
O4 O 0.5105(16) 0.6609(10) -0.0244(9)
O5 O 0.6203(16) 0.4233(12) 0.4253(10)
O6 O 0.5802(14) 0.0205(12) 0.7987(9)
O7 O 0.2779(13) 0.0519(11) 0.8498(8)
O8 O 0.3063(16) -0.1988(10) 0.7659(10)
H1 H 0.2826 -0.2652 0.8165
O9 O 0.0897(19) -0.1888(12) 0.6575(11)
O10 O -0.0530(14) 1.0545(11) -0.2118(9)
H2 H 0.0490 1.0741 -0.2002
H3 H -0.0389 1.0566 -0.2853
O11 O -0.1820(15) 0.7749(11) -0.1441(10)
H4 H -0.2583 0.6980 -0.1370
H5 H -0.1056 0.7730 -0.1947
C1 C 0.141(2) 0.6534(15) 0.1579(15)
C2 C 0.330(2) 0.6560(15) 0.1400(14)
C3 C 0.443(2) 0.5660(13) 0.2266(12)
H8 H 0.5702 0.5672 0.2177
C4 C 0.357(2) 0.4786(14) 0.3223(15)
C5 C 0.165(2) 0.4767(15) 0.3386(15)
H9 H 0.1094 0.4171 0.4022
C6 C 0.057(2) 0.5675(15) 0.2564(13)
H10 H -0.0706 0.5702 0.2676
C7 C 0.014(2) 0.7440(15) 0.0852(16)
C8 C 0.442(2) 0.7252(17) 0.0366(16)
C9 C 0.473(3) 0.3901(17) 0.4124(15)
C10 C 0.406(2) 0.2531(18) 0.4807(15)
C11 C 0.435(2) 0.2053(16) 0.5937(13)
H11 H 0.4945 0.2595 0.6251
C12 C 0.3755(19) 0.0785(16) 0.6598(11)
C13 C 0.283(2) -0.0022(14) 0.6139(14)
C14 C 0.260(2) 0.0438(17) 0.5006(15)
H12 H 0.2047 -0.0119 0.4684
C15 C 0.318(2) 0.1726(18) 0.4346(13)
H13 H 0.2974 0.2036 0.3597
C16 C 0.415(2) 0.0442(14) 0.7811(11)
C17 C 0.218(2) -0.1429(14) 0.6830(14)
Gd1A Gd 0.24297(9) 0.04446(7) 1.04674(6)
Gd1_2 Gd -0.24297(9) -0.04446(7) 0.95326(6)
Gd1_3 Gd 0.75703(9) -0.04446(7) 0.95326(6)
Gd1_4 Gd 0.75703(9) 0.95554(7) -0.04674(6)
Gd1A_2 Gd -0.75703(9) 0.04446(7) 1.04674(6)
Gd1A_3 Gd -0.75703(9) 1.04446(7) 0.04674(6)
Gd1A_4 Gd 0.24297(9) 1.04446(7) 0.04674(6)
O1A O 0.1419(13) 0.2858(10) 0.9189(9)
O2A O -0.0699(14) 0.1336(11) 0.9863(9)
O2_2 O 0.0699(14) -0.1336(11) 1.0137(9)
O2A_2 O -0.0699(14) 1.1336(11) -0.0137(9)
O3A O -0.4665(12) 0.1402(11) 0.9751(10)
O3_2 O -0.5335(12) 0.8598(11) 0.0249(10)
O3_3 O 0.4665(12) -0.1402(11) 1.0249(10)
O3A_2 O -0.4665(12) 1.1402(11) -0.0249(10)
O3A_3 O 0.5335(12) 0.1402(11) 0.9751(10)
O4A O -0.5105(16) 0.3391(10) 1.0244(9)
O5A O -0.6203(16) 0.5767(12) 0.5747(10)
O6A O -0.5802(14) 0.9795(12) 0.2013(9)
O6_2 O -0.4198(14) 1.0205(12) -0.2013(9)
O6A_2 O 0.4198(14) -0.0205(12) 1.2013(9)
O7A O -0.2779(13) 0.9481(11) 0.1502(8)
O8A O -0.3063(16) 1.1988(10) 0.2341(10)
H1A H -0.2826 1.2652 0.1835
O9A O -0.0897(19) 1.1888(12) 0.3425(11)
O10A O 0.0530(14) -0.0545(11) 1.2118(9)
H2A H -0.0490 -0.0741 1.2002
H3A H 0.0389 -0.0566 1.2853
O11A O 0.1820(15) 0.2251(11) 1.1441(10)
H4A H 0.2583 0.3020 1.1370
H5A H 0.1056 0.2270 1.1947
C1A C -0.141(2) 0.3466(15) 0.8421(15)
C2A C -0.330(2) 0.3440(15) 0.8600(14)
C3A C -0.443(2) 0.4340(13) 0.7734(12)
H8A H -0.5702 0.4328 0.7823
C4A C -0.357(2) 0.5214(14) 0.6777(15)
C5A C -0.165(2) 0.5233(15) 0.6614(15)
H9A H -0.1094 0.5829 0.5978
C6A C -0.057(2) 0.4325(15) 0.7436(13)
H10A H 0.0706 0.4298 0.7324
C7A C -0.014(2) 0.2560(15) 0.9148(16)
C8A C -0.442(2) 0.2748(17) 0.9634(16)
C9A C -0.473(3) 0.6099(17) 0.5876(15)
C10A C -0.406(2) 0.7469(18) 0.5193(15)
C11A C -0.435(2) 0.7947(16) 0.4063(13)
H11A H -0.4945 0.7405 0.3749
C12A C -0.3755(19) 0.9215(16) 0.3402(11)
C13A C -0.283(2) 1.0022(14) 0.3861(14)
C14A C -0.260(2) 0.9562(17) 0.4994(15)
H12A H -0.2047 1.0119 0.5316
C15A C -0.318(2) 0.8274(18) 0.5654(13)
H13A H -0.2974 0.7964 0.6403
C16A C -0.415(2) 0.9558(14) 0.2189(11)
C17A C -0.218(2) 1.1429(14) 0.3170(14)
O12 O -0.0980(18) 1.2370(13) -0.4313(11)
H6 H -0.2035 1.2434 -0.4119
H7 H -0.0792 1.1986 -0.4802
O13 O 0.1983(16) -0.4313(11) 0.9161(10)
loop_
_geom_bond_atom_site_label_1
_geom_bond_atom_site_label_2
_geom_bond_site_symmetry_1
_geom_bond_site_symmetry_2
Gd1 O1 1_555 1_555
O1 C7 1_555 1_555
O2 Gd1 1_555 1_555
O3 C8 1_555 1_555
O4 C8 1_555 1_555
O5 C9 1_555 1_555
O6 C16 1_555 1_555
O7 C16 1_555 1_555
O8 H1 1_555 1_555
O9 C17 1_555 1_555
O10 Gd1 1_555 1_555
H2 O10 1_555 1_555
H3 O10 1_555 1_555
O11 Gd1 1_555 1_555
H4 O11 1_555 1_555
H5 O11 1_555 1_555
O12 H6 1_555 1_555
H7 O12 1_555 1_555
C1 C2 1_555 1_555
C2 C3 1_555 1_555
C3 H8 1_555 1_555
C4 C3 1_555 1_555
C5 C4 1_555 1_555
H9 C5 1_555 1_555
C6 C1 1_555 1_555
H10 C6 1_555 1_555
C7 O2 1_555 1_555
C8 C2 1_555 1_555
C9 C4 1_555 1_555
C10 C9 1_555 1_555
C11 C10 1_555 1_555
H11 C11 1_555 1_555
C12 C11 1_555 1_555
C13 C12 1_555 1_555
C14 C13 1_555 1_555
H12 C14 1_555 1_555
C15 C10 1_555 1_555
H13 C15 1_555 1_555
C16 C12 1_555 1_555
C17 O8 1_555 1_555
Gd1A O7 1_555 1_555
Gd1_2 O2A 1_555 1_555
Gd1_3 O6 1_555 1_555
Gd1_4 O3 1_555 1_555
Gd1A_2 O3A 1_555 1_555
Gd1A_3 O3_2 1_555 1_555
Gd1A_4 O2 1_555 1_555
O1A Gd1A 1_555 1_555
O2A Gd1A 1_555 1_555
O2_2 Gd1A 1_555 1_555
O2A_2 Gd1 1_555 1_555
O3A Gd1_2 1_555 1_555
O3_2 Gd1 1_555 1_555
O3_3 Gd1A 1_555 1_555
O3A_2 Gd1 1_555 1_555
O3A_3 Gd1A 1_555 1_555
O4A C8A 1_555 1_555
O5A C9A 1_555 1_555
O6A Gd1A_3 1_555 1_555
O6_2 Gd1 1_555 1_555
O6A_2 Gd1A 1_555 1_555
O7A Gd1 1_555 1_555
O8A H1A 1_555 1_555
O9A C17A 1_555 1_555
O10A Gd1A 1_555 1_555
H2A O10A 1_555 1_555
H3A O10A 1_555 1_555
O11A Gd1A 1_555 1_555
H4A O11A 1_555 1_555
H5A O11A 1_555 1_555
C1A C2A 1_555 1_555
C2A C3A 1_555 1_555
C3A H8A 1_555 1_555
C4A C3A 1_555 1_555
C5A C4A 1_555 1_555
H9A C5A 1_555 1_555
C6A C1A 1_555 1_555
H10A C6A 1_555 1_555
C7A O1A 1_555 1_555
C8A O3A 1_555 1_555
C9A C4A 1_555 1_555
C10A C9A 1_555 1_555
C11A C10A 1_555 1_555
H11A C11A 1_555 1_555
C12A C11A 1_555 1_555
C13A C12A 1_555 1_555
C14A C13A 1_555 1_555
H12A C14A 1_555 1_555
C15A C10A 1_555 1_555
H13A C15A 1_555 1_555
C16A O6A 1_555 1_555
C17A O8A 1_555 1_555
O3 Gd1A_4 1_555 1_555
C1 C7 1_555 1_555
C5 C6 1_555 1_555
C13 C17 1_555 1_555
C14 C15 1_555 1_555
Gd1_2 O2_2 1_555 1_555
Gd1_3 O3_3 1_555 1_555
Gd1_3 O3A_3 1_555 1_555
Gd1A_3 O3A_2 1_555 1_555
Gd1A_4 O2A_2 1_555 1_555
O2A C7A 1_555 1_555
O7A C16A 1_555 1_555
C1A C7A 1_555 1_555
C2A C8A 1_555 1_555
C5A C6A 1_555 1_555
C12A C16A 1_555 1_555
C13A C17A 1_555 1_555
C14A C15A 1_555 1_555

#END
