
#######################################################################
#
#                 Cambridge Crystallographic Data Centre
#                                CCDC 
#
#######################################################################
#
# If this CIF has been generated from an entry in the Cambridge 
# Structural Database, then it will include bibliographic, chemical, 
# crystal, experimental, refinement or atomic coordinate data resulting 
# from the CCDC's data processing and validation procedures.
#
#######################################################################

data_FAFCEW
_symmetry_cell_setting           orthorhombic
_symmetry_space_group_name_H-M   'P n m a'
_symmetry_Int_Tables_number      62
_space_group_name_Hall           '-P 2ac 2n'
loop_
_symmetry_equiv_pos_site_id
_symmetry_equiv_pos_as_xyz
1 x,y,z
2 1/2-x,-y,1/2+z
3 -x,1/2+y,-z
4 1/2+x,1/2-y,1/2-z
5 -x,-y,-z
6 1/2+x,y,1/2-z
7 x,1/2-y,z
8 1/2-x,1/2+y,1/2+z
_cell_length_a                   15.4000(10)
_cell_length_b                   6.7287(3)
_cell_length_c                   14.2520(10)
_cell_angle_alpha                90
_cell_angle_beta                 90
_cell_angle_gamma                90
_cell_volume                     1476.82
loop_
_atom_site_label
_atom_site_type_symbol
_atom_site_fract_x
_atom_site_fract_y
_atom_site_fract_z
Eu1 Eu 0.80335(4) 0.2500 0.37641(4)
K1 K 0.7328(3) 0.2500 -0.3095(2)
O1 O 0.3492(5) 0.2500 -0.0365(6)
O2 O 0.4508(6) 0.2500 -0.1499(6)
O3 O 0.3952(7) 0.2500 0.2615(6)
O4 O 0.5240(10) 0.2500 0.3331(8)
O5 O 0.7100(6) 0.4083(11) 0.2510(7)
O6 O 0.6481(5) 0.4137(9) -0.1389(5)
O7 O 0.6949(9) 0.043(3) 0.4401(11)
O8 O 0.5880(19) 0.410(4) -0.3999(16)
O9 O 0.9044(10) 0.2500 -0.1617(8)
H1 H 0.9415 0.1480 -0.1522
N1 N 0.4666(6) 0.2500 0.0948(6)
N2 N 0.6421(6) 0.2500 0.0635(8)
C1 C 0.4967(7) 0.2500 0.0074(7)
C2 C 0.5201(7) 0.2500 0.1674(7)
C3 C 0.6096(8) 0.2500 0.1508(9)
C4 C 0.5867(7) 0.2500 -0.0076(7)
C5 C 0.4277(7) 0.2500 -0.0683(7)
C6 C 0.4773(11) 0.2500 0.2623(7)
C7 C 0.6767(10) 0.2500 0.2272(11)
C8 C 0.6284(8) 0.2500 -0.1041(9)
Eu1C Eu 0.30335(4) 0.2500 0.12359(4)
Eu1A Eu 0.69665(4) 0.7500 -0.12359(4)
Eu1A_2 Eu 0.69665(4) -0.2500 -0.12359(4)
K1C K 0.2328(3) 0.2500 -0.1905(2)
K1A K 0.7672(3) 0.7500 0.1905(2)
K1A_2 K 0.7672(3) -0.2500 0.1905(2)
O1C O 0.8492(5) 0.2500 0.5365(6)
O1C_2 O 0.8492(5) 0.2500 -0.4635(6)
O3C O 0.8952(7) 0.2500 0.2385(6)
O5F O 0.7100(6) 0.0917(11) 0.2510(7)
O5G O 0.7900(6) -0.0917(11) -0.2490(7)
O5A O 0.7900(6) 0.5917(11) -0.2490(7)
O6F O 0.6481(5) 0.0863(9) -0.1389(5)
O6A O 0.8519(5) 0.5863(9) 0.3611(5)
O6G O 0.8519(5) -0.0863(9) 0.3611(5)
O7F O 0.6949(9) 0.457(3) 0.4401(11)
O8F O 0.5880(19) 0.090(4) -0.3999(16)
H1F H 0.9415 0.3520 -0.1522
N1C N 0.9666(6) 0.2500 0.4052(6)
loop_
_geom_bond_atom_site_label_1
_geom_bond_atom_site_label_2
_geom_bond_site_symmetry_1
_geom_bond_site_symmetry_2
Eu1 O5 1_555 1_555
K1 O6 1_555 1_555
O1 C5 1_555 1_555
O2 C5 1_555 1_555
O3 C6 1_555 1_555
O4 C6 1_555 1_555
O5 C7 1_555 1_555
O6 C8 1_555 1_555
O7 Eu1 1_555 1_555
O8 K1 1_555 1_555
O9 K1 1_555 1_555
H1 O9 1_555 1_555
N1 C1 1_555 1_555
N2 C3 1_555 1_555
C1 C4 1_555 1_555
C2 N1 1_555 1_555
C3 C2 1_555 1_555
C4 N2 1_555 1_555
C5 C1 1_555 1_555
C6 C2 1_555 1_555
C7 C3 1_555 1_555
C8 C4 1_555 1_555
Eu1C O1 1_555 1_555
Eu1A O6 1_555 1_555
Eu1A_2 O5G 1_555 1_555
K1C O1 1_555 1_555
K1A O5 1_555 1_555
K1A_2 O5F 1_555 1_555
O1C Eu1 1_555 1_555
O1C_2 K1 1_555 1_555
O3C Eu1 1_555 1_555
O5F Eu1 1_555 1_555
O5G K1 1_555 1_555
O5A K1 1_555 1_555
O6F K1 1_555 1_555
O6A Eu1 1_555 1_555
O6G Eu1 1_555 1_555
O7F Eu1 1_555 1_555
O8F K1 1_555 1_555
H1F O9 1_555 1_555
N1C Eu1 1_555 1_555
O3 Eu1C 1_555 1_555
N1 Eu1C 1_555 1_555
C7 O5F 1_555 1_555
C8 O6F 1_555 1_555
Eu1A O5A 1_555 1_555
Eu1A_2 O6F 1_555 1_555
K1A O6A 1_555 1_555
K1A_2 O6G 1_555 1_555

#END
