
#######################################################################
#
#                 Cambridge Crystallographic Data Centre
#                                CCDC 
#
#######################################################################
#
# If this CIF has been generated from an entry in the Cambridge 
# Structural Database, then it will include bibliographic, chemical, 
# crystal, experimental, refinement or atomic coordinate data resulting 
# from the CCDC's data processing and validation procedures.
#
#######################################################################

data_FAFCUM
_symmetry_cell_setting           triclinic
_symmetry_space_group_name_H-M   'P -1'
_symmetry_Int_Tables_number      2
_space_group_name_Hall           '-P 1'
loop_
_symmetry_equiv_pos_site_id
_symmetry_equiv_pos_as_xyz
1 x,y,z
2 -x,-y,-z
_cell_length_a                   7.3207(7)
_cell_length_b                   10.0387(12)
_cell_length_c                   12.6282(18)
_cell_angle_alpha                72.998(6)
_cell_angle_beta                 83.552(7)
_cell_angle_gamma                83.817(7)
_cell_volume                     879.134
loop_
_atom_site_label
_atom_site_type_symbol
_atom_site_fract_x
_atom_site_fract_y
_atom_site_fract_z
Tb1 Tb -0.24334(7) 0.95600(5) -0.04621(5)
O1 O -0.1445(11) 0.7159(8) 0.0784(8)
O2 O 0.0709(11) 0.8645(8) 0.0160(7)
O3 O 0.4685(11) 0.8571(8) 0.0263(7)
O4 O 0.5082(13) 0.6618(9) -0.0247(8)
O5 O 0.6216(13) 0.4255(10) 0.4255(9)
O6 O 0.5818(11) 0.0210(9) 0.7982(7)
O7 O 0.2785(11) 0.0528(9) 0.8510(7)
O8 O 0.3054(14) -0.1998(9) 0.7665(8)
H1 H 0.2653 -0.2687 0.8057
O9 O 0.0900(15) -0.1859(11) 0.6544(10)
O10 O -0.0546(12) 1.0520(9) -0.2105(7)
H2 H 0.0607 1.0803 -0.2012
H3 H -0.0719 1.0889 -0.2791
O11 O -0.1822(13) 0.7772(9) -0.1432(8)
H4 H -0.2695 0.7424 -0.1533
H5 H -0.0972 0.7868 -0.1924
C1 C 0.1412(16) 0.6524(11) 0.1582(11)
C2 C 0.3333(18) 0.6529(11) 0.1422(11)
C3 C 0.4406(17) 0.5658(12) 0.2276(10)
H8 H 0.5683 0.5671 0.2188
C4 C 0.3571(18) 0.4786(12) 0.3243(11)
C5 C 0.1665(18) 0.4785(12) 0.3397(12)
H9 H 0.1104 0.4210 0.4041
C6 C 0.0574(18) 0.5671(12) 0.2560(12)
H10 H -0.0705 0.5684 0.2666
C7 C 0.0169(17) 0.7459(12) 0.0805(11)
C8 C 0.4416(17) 0.7276(12) 0.0395(10)
C9 C 0.4717(19) 0.3896(14) 0.4115(12)
C10 C 0.4059(18) 0.2541(13) 0.4820(11)
C11 C 0.4380(17) 0.2085(12) 0.5917(11)
H11 H 0.5007 0.2629 0.6216
C12 C 0.3774(18) 0.0795(13) 0.6608(10)
C13 C 0.2861(18) -0.0014(13) 0.6141(11)
C14 C 0.2598(17) 0.0437(12) 0.5015(12)
H12 H 0.2042 -0.0125 0.4696
C15 C 0.3162(19) 0.1726(13) 0.4360(12)
H13 H 0.2935 0.2038 0.3613
C16 C 0.4158(17) 0.0447(12) 0.7805(10)
C17 C 0.2186(18) -0.1397(13) 0.6798(12)
Tb1A Tb 0.24334(7) 0.04400(5) 1.04621(5)
Tb1_2 Tb -0.24334(7) -0.04400(5) 0.95379(5)
Tb1_3 Tb 0.75666(7) -0.04400(5) 0.95379(5)
Tb1_4 Tb 0.75666(7) 0.95600(5) -0.04621(5)
Tb1A_2 Tb -0.75666(7) 0.04400(5) 1.04621(5)
Tb1A_3 Tb -0.75666(7) 1.04400(5) 0.04621(5)
Tb1A_4 Tb 0.24334(7) 1.04400(5) 0.04621(5)
O1A O 0.1445(11) 0.2841(8) 0.9216(8)
O2A O -0.0709(11) 0.1355(8) 0.9840(7)
O2_2 O 0.0709(11) -0.1355(8) 1.0160(7)
O2A_2 O -0.0709(11) 1.1355(8) -0.0160(7)
O3A O -0.4685(11) 0.1429(8) 0.9737(7)
O3_2 O -0.5315(11) 0.8571(8) 0.0263(7)
O3_3 O 0.4685(11) -0.1429(8) 1.0263(7)
O3A_2 O -0.4685(11) 1.1429(8) -0.0263(7)
O3A_3 O 0.5315(11) 0.1429(8) 0.9737(7)
O4A O -0.5082(13) 0.3382(9) 1.0247(8)
O5A O -0.6216(13) 0.5745(10) 0.5745(9)
O6A O -0.5818(11) 0.9790(9) 0.2018(7)
O6_2 O -0.4182(11) 1.0210(9) -0.2018(7)
O6A_2 O 0.4182(11) -0.0210(9) 1.2018(7)
O7A O -0.2785(11) 0.9472(9) 0.1490(7)
O8A O -0.3054(14) 1.1998(9) 0.2335(8)
H1A H -0.2653 1.2687 0.1943
O9A O -0.0900(15) 1.1859(11) 0.3456(10)
O10A O 0.0546(12) -0.0520(9) 1.2105(7)
H2A H -0.0607 -0.0803 1.2012
H3A H 0.0719 -0.0889 1.2791
O11A O 0.1822(13) 0.2228(9) 1.1432(8)
H4A H 0.2695 0.2576 1.1533
H5A H 0.0972 0.2132 1.1924
C1A C -0.1412(16) 0.3476(11) 0.8418(11)
C2A C -0.3333(18) 0.3471(11) 0.8578(11)
C3A C -0.4406(17) 0.4342(12) 0.7724(10)
H8A H -0.5683 0.4329 0.7812
C4A C -0.3571(18) 0.5214(12) 0.6757(11)
C5A C -0.1665(18) 0.5215(12) 0.6603(12)
H9A H -0.1104 0.5790 0.5959
C6A C -0.0574(18) 0.4329(12) 0.7440(12)
H10A H 0.0705 0.4316 0.7334
C7A C -0.0169(17) 0.2541(12) 0.9195(11)
C8A C -0.4416(17) 0.2724(12) 0.9605(10)
C9A C -0.4717(19) 0.6104(14) 0.5885(12)
C10A C -0.4059(18) 0.7459(13) 0.5180(11)
C11A C -0.4380(17) 0.7915(12) 0.4083(11)
H11A H -0.5007 0.7371 0.3784
C12A C -0.3774(18) 0.9205(13) 0.3392(10)
C13A C -0.2861(18) 1.0014(13) 0.3859(11)
C14A C -0.2598(17) 0.9563(12) 0.4985(12)
H12A H -0.2042 1.0125 0.5304
C15A C -0.3162(19) 0.8274(13) 0.5640(12)
H13A H -0.2935 0.7962 0.6387
C16A C -0.4158(17) 0.9553(12) 0.2195(10)
C17A C -0.2186(18) 1.1397(13) 0.3202(12)
O12 O -0.0961(16) 1.2364(11) -0.4309(10)
H6 H -0.2087 1.2888 -0.4466
H7 H -0.0621 1.2190 -0.5034
O13 O 0.1991(14) -0.4312(9) 0.9155(8)
loop_
_geom_bond_atom_site_label_1
_geom_bond_atom_site_label_2
_geom_bond_site_symmetry_1
_geom_bond_site_symmetry_2
Tb1 O1 1_555 1_555
O1 C7 1_555 1_555
O2 Tb1 1_555 1_555
O3 C8 1_555 1_555
O4 C8 1_555 1_555
O5 C9 1_555 1_555
O6 C16 1_555 1_555
O7 C16 1_555 1_555
O8 H1 1_555 1_555
O9 C17 1_555 1_555
O10 Tb1 1_555 1_555
H2 O10 1_555 1_555
H3 O10 1_555 1_555
O11 Tb1 1_555 1_555
H4 O11 1_555 1_555
H5 O11 1_555 1_555
O12 H6 1_555 1_555
H7 O12 1_555 1_555
C1 C2 1_555 1_555
C2 C3 1_555 1_555
C3 H8 1_555 1_555
C4 C3 1_555 1_555
C5 C4 1_555 1_555
H9 C5 1_555 1_555
C6 C1 1_555 1_555
H10 C6 1_555 1_555
C7 O2 1_555 1_555
C8 C2 1_555 1_555
C9 C4 1_555 1_555
C10 C9 1_555 1_555
C11 C10 1_555 1_555
H11 C11 1_555 1_555
C12 C11 1_555 1_555
C13 C12 1_555 1_555
C14 C13 1_555 1_555
H12 C14 1_555 1_555
C15 C10 1_555 1_555
H13 C15 1_555 1_555
C16 C12 1_555 1_555
C17 O8 1_555 1_555
Tb1A O7 1_555 1_555
Tb1_2 O2A 1_555 1_555
Tb1_3 O6 1_555 1_555
Tb1_4 O3 1_555 1_555
Tb1A_2 O3A 1_555 1_555
Tb1A_3 O3_2 1_555 1_555
Tb1A_4 O2 1_555 1_555
O1A Tb1A 1_555 1_555
O2A Tb1A 1_555 1_555
O2_2 Tb1A 1_555 1_555
O2A_2 Tb1 1_555 1_555
O3A Tb1_2 1_555 1_555
O3_2 Tb1 1_555 1_555
O3_3 Tb1A 1_555 1_555
O3A_2 Tb1 1_555 1_555
O3A_3 Tb1A 1_555 1_555
O4A C8A 1_555 1_555
O5A C9A 1_555 1_555
O6A Tb1A_3 1_555 1_555
O6_2 Tb1 1_555 1_555
O6A_2 Tb1A 1_555 1_555
O7A Tb1 1_555 1_555
O8A H1A 1_555 1_555
O9A C17A 1_555 1_555
O10A Tb1A 1_555 1_555
H2A O10A 1_555 1_555
H3A O10A 1_555 1_555
O11A Tb1A 1_555 1_555
H4A O11A 1_555 1_555
H5A O11A 1_555 1_555
C1A C2A 1_555 1_555
C2A C3A 1_555 1_555
C3A H8A 1_555 1_555
C4A C3A 1_555 1_555
C5A C4A 1_555 1_555
H9A C5A 1_555 1_555
C6A C1A 1_555 1_555
H10A C6A 1_555 1_555
C7A O1A 1_555 1_555
C8A O3A 1_555 1_555
C9A C4A 1_555 1_555
C10A C9A 1_555 1_555
C11A C10A 1_555 1_555
H11A C11A 1_555 1_555
C12A C11A 1_555 1_555
C13A C12A 1_555 1_555
C14A C13A 1_555 1_555
H12A C14A 1_555 1_555
C15A C10A 1_555 1_555
H13A C15A 1_555 1_555
C16A O6A 1_555 1_555
C17A O8A 1_555 1_555
O3 Tb1A_4 1_555 1_555
C1 C7 1_555 1_555
C5 C6 1_555 1_555
C13 C17 1_555 1_555
C14 C15 1_555 1_555
Tb1_2 O2_2 1_555 1_555
Tb1_3 O3_3 1_555 1_555
Tb1_3 O3A_3 1_555 1_555
Tb1A_3 O3A_2 1_555 1_555
Tb1A_4 O2A_2 1_555 1_555
O2A C7A 1_555 1_555
O7A C16A 1_555 1_555
C1A C7A 1_555 1_555
C2A C8A 1_555 1_555
C5A C6A 1_555 1_555
C12A C16A 1_555 1_555
C13A C17A 1_555 1_555
C14A C15A 1_555 1_555

#END
