
#######################################################################
#
#                 Cambridge Crystallographic Data Centre
#                                CCDC 
#
#######################################################################
#
# If this CIF has been generated from an entry in the Cambridge 
# Structural Database, then it will include bibliographic, chemical, 
# crystal, experimental, refinement or atomic coordinate data resulting 
# from the CCDC's data processing and validation procedures.
#
#######################################################################

data_FAFCIA
_symmetry_cell_setting           triclinic
_symmetry_space_group_name_H-M   'P -1'
_symmetry_Int_Tables_number      2
_space_group_name_Hall           '-P 1'
loop_
_symmetry_equiv_pos_site_id
_symmetry_equiv_pos_as_xyz
1 x,y,z
2 -x,-y,-z
_cell_length_a                   7.3656(8)
_cell_length_b                   10.0285(14)
_cell_length_c                   12.687(2)
_cell_angle_alpha                73.074(7)
_cell_angle_beta                 83.655(9)
_cell_angle_gamma                83.857(9)
_cell_volume                     888.286
loop_
_atom_site_label
_atom_site_type_symbol
_atom_site_fract_x
_atom_site_fract_y
_atom_site_fract_z
Eu1 Eu -0.24297(6) 0.95468(5) -0.04673(4)
O1 O -0.1432(10) 0.7140(8) 0.0793(7)
O2 O 0.0718(10) 0.8610(8) 0.0168(6)
O3 O 0.4688(9) 0.8562(7) 0.0277(6)
O4 O 0.5091(12) 0.6600(9) -0.0247(7)
O5 O 0.6198(12) 0.4255(11) 0.4247(8)
O6 O 0.5807(10) 0.0162(10) 0.7972(6)
O7 O 0.2769(10) 0.0540(8) 0.8502(6)
O8 O 0.3057(12) -0.2005(9) 0.7663(7)
H1 H 0.2790 -0.2882 0.8148
O9 O 0.0901(15) -0.1883(12) 0.6555(10)
O10 O -0.0550(10) 1.0552(9) -0.2134(7)
H2 H 0.0563 1.0585 -0.2083
H3 H -0.0866 1.1047 -0.2917
O11 O -0.1812(12) 0.7700(10) -0.1458(7)
H4 H -0.2841 0.7365 -0.1433
H5 H -0.1351 0.7797 -0.2183
C1 C 0.1411(16) 0.6508(11) 0.1600(10)
C2 C 0.3333(15) 0.6531(11) 0.1429(10)
C3 C 0.4400(16) 0.5661(12) 0.2271(9)
H8 H 0.5668 0.5677 0.2185
C4 C 0.3562(17) 0.4774(13) 0.3235(10)
C5 C 0.1649(16) 0.4759(13) 0.3392(11)
H9 H 0.1091 0.4180 0.4031
C6 C 0.0577(17) 0.5647(13) 0.2554(11)
H10 H -0.0693 0.5650 0.2646
C7 C 0.0167(15) 0.7464(12) 0.0807(10)
C8 C 0.4419(14) 0.7271(12) 0.0374(9)
C9 C 0.4688(16) 0.3871(14) 0.4127(10)
C10 C 0.4051(16) 0.2525(14) 0.4806(10)
C11 C 0.4349(16) 0.2096(14) 0.5916(11)
H11 H 0.4927 0.2662 0.6218
C12 C 0.3773(16) 0.0796(12) 0.6591(9)
C13 C 0.2861(16) -0.0012(13) 0.6127(10)
C14 C 0.2591(16) 0.0417(13) 0.5011(11)
H12 H 0.2027 -0.0156 0.4708
C15 C 0.3157(17) 0.1702(14) 0.4333(10)
H13 H 0.2945 0.2001 0.3588
C16 C 0.4146(16) 0.0442(13) 0.7788(10)
C17 C 0.2177(18) -0.1410(14) 0.6788(11)
Eu1A Eu 0.24297(6) 0.04532(5) 1.04673(4)
Eu1_2 Eu -0.24297(6) -0.04532(5) 0.95327(4)
Eu1_3 Eu 0.75703(6) -0.04532(5) 0.95327(4)
Eu1_4 Eu 0.75703(6) 0.95468(5) -0.04673(4)
Eu1A_2 Eu -0.75703(6) 0.04532(5) 1.04673(4)
Eu1A_3 Eu -0.75703(6) 1.04532(5) 0.04673(4)
Eu1A_4 Eu 0.24297(6) 1.04532(5) 0.04673(4)
O1A O 0.1432(10) 0.2860(8) 0.9207(7)
O2A O -0.0718(10) 0.1390(8) 0.9832(6)
O2_2 O 0.0718(10) -0.1390(8) 1.0168(6)
O2A_2 O -0.0718(10) 1.1390(8) -0.0168(6)
O3A O -0.4688(9) 0.1438(7) 0.9723(6)
O3_2 O -0.5312(9) 0.8562(7) 0.0277(6)
O3_3 O 0.4688(9) -0.1438(7) 1.0277(6)
O3A_2 O -0.4688(9) 1.1438(7) -0.0277(6)
O3A_3 O 0.5312(9) 0.1438(7) 0.9723(6)
O4A O -0.5091(12) 0.3400(9) 1.0247(7)
O5A O -0.6198(12) 0.5745(11) 0.5753(8)
O6A O -0.5807(10) 0.9838(10) 0.2028(6)
O6_2 O -0.4193(10) 1.0162(10) -0.2028(6)
O6A_2 O 0.4193(10) -0.0162(10) 1.2028(6)
O7A O -0.2769(10) 0.9460(8) 0.1498(6)
O8A O -0.3057(12) 1.2005(9) 0.2337(7)
H1A H -0.2790 1.2882 0.1852
O9A O -0.0901(15) 1.1883(12) 0.3445(10)
O10A O 0.0550(10) -0.0552(9) 1.2134(7)
H2A H -0.0563 -0.0585 1.2083
H3A H 0.0866 -0.1047 1.2917
O11A O 0.1812(12) 0.2300(10) 1.1458(7)
H4A H 0.2841 0.2635 1.1433
H5A H 0.1351 0.2203 1.2183
C1A C -0.1411(16) 0.3492(11) 0.8400(10)
C2A C -0.3333(15) 0.3469(11) 0.8571(10)
C3A C -0.4400(16) 0.4339(12) 0.7729(9)
H8A H -0.5668 0.4323 0.7815
C4A C -0.3562(17) 0.5226(13) 0.6765(10)
C5A C -0.1649(16) 0.5241(13) 0.6608(11)
H9A H -0.1091 0.5820 0.5969
C6A C -0.0577(17) 0.4353(13) 0.7446(11)
H10A H 0.0693 0.4350 0.7354
C7A C -0.0167(15) 0.2536(12) 0.9193(10)
C8A C -0.4419(14) 0.2729(12) 0.9626(9)
C9A C -0.4688(16) 0.6129(14) 0.5873(10)
C10A C -0.4051(16) 0.7475(14) 0.5194(10)
C11A C -0.4349(16) 0.7904(14) 0.4084(11)
H11A H -0.4927 0.7338 0.3782
C12A C -0.3773(16) 0.9204(12) 0.3409(9)
C13A C -0.2861(16) 1.0012(13) 0.3873(10)
C14A C -0.2591(16) 0.9583(13) 0.4989(11)
H12A H -0.2027 1.0156 0.5292
C15A C -0.3157(17) 0.8298(14) 0.5667(10)
H13A H -0.2945 0.7999 0.6412
C16A C -0.4146(16) 0.9558(13) 0.2212(10)
C17A C -0.2177(18) 1.1410(14) 0.3212(11)
O12 O -0.0983(14) 1.2396(10) -0.4310(8)
H6 H -0.2038 1.2730 -0.4406
H7 H -0.0582 1.2236 -0.5042
O13 O 0.1991(13) -0.4304(9) 0.9149(7)
loop_
_geom_bond_atom_site_label_1
_geom_bond_atom_site_label_2
_geom_bond_site_symmetry_1
_geom_bond_site_symmetry_2
Eu1 O1 1_555 1_555
O1 C7 1_555 1_555
O2 Eu1 1_555 1_555
O3 C8 1_555 1_555
O4 C8 1_555 1_555
O5 C9 1_555 1_555
O6 C16 1_555 1_555
O7 C16 1_555 1_555
O8 H1 1_555 1_555
O9 C17 1_555 1_555
O10 Eu1 1_555 1_555
H2 O10 1_555 1_555
H3 O10 1_555 1_555
O11 Eu1 1_555 1_555
H4 O11 1_555 1_555
H5 O11 1_555 1_555
O12 H6 1_555 1_555
H7 O12 1_555 1_555
C1 C2 1_555 1_555
C2 C3 1_555 1_555
C3 H8 1_555 1_555
C4 C3 1_555 1_555
C5 C4 1_555 1_555
H9 C5 1_555 1_555
C6 C1 1_555 1_555
H10 C6 1_555 1_555
C7 O2 1_555 1_555
C8 C2 1_555 1_555
C9 C4 1_555 1_555
C10 C9 1_555 1_555
C11 C10 1_555 1_555
H11 C11 1_555 1_555
C12 C11 1_555 1_555
C13 C12 1_555 1_555
C14 C13 1_555 1_555
H12 C14 1_555 1_555
C15 C10 1_555 1_555
H13 C15 1_555 1_555
C16 C12 1_555 1_555
C17 O8 1_555 1_555
Eu1A O7 1_555 1_555
Eu1_2 O2A 1_555 1_555
Eu1_3 O6 1_555 1_555
Eu1_4 O3 1_555 1_555
Eu1A_2 O3A 1_555 1_555
Eu1A_3 O3_2 1_555 1_555
Eu1A_4 O2 1_555 1_555
O1A Eu1A 1_555 1_555
O2A Eu1A 1_555 1_555
O2_2 Eu1A 1_555 1_555
O2A_2 Eu1 1_555 1_555
O3A Eu1_2 1_555 1_555
O3_2 Eu1 1_555 1_555
O3_3 Eu1A 1_555 1_555
O3A_2 Eu1 1_555 1_555
O3A_3 Eu1A 1_555 1_555
O4A C8A 1_555 1_555
O5A C9A 1_555 1_555
O6A Eu1A_3 1_555 1_555
O6_2 Eu1 1_555 1_555
O6A_2 Eu1A 1_555 1_555
O7A Eu1 1_555 1_555
O8A H1A 1_555 1_555
O9A C17A 1_555 1_555
O10A Eu1A 1_555 1_555
H2A O10A 1_555 1_555
H3A O10A 1_555 1_555
O11A Eu1A 1_555 1_555
H4A O11A 1_555 1_555
H5A O11A 1_555 1_555
C1A C2A 1_555 1_555
C2A C3A 1_555 1_555
C3A H8A 1_555 1_555
C4A C3A 1_555 1_555
C5A C4A 1_555 1_555
H9A C5A 1_555 1_555
C6A C1A 1_555 1_555
H10A C6A 1_555 1_555
C7A O1A 1_555 1_555
C8A O3A 1_555 1_555
C9A C4A 1_555 1_555
C10A C9A 1_555 1_555
C11A C10A 1_555 1_555
H11A C11A 1_555 1_555
C12A C11A 1_555 1_555
C13A C12A 1_555 1_555
C14A C13A 1_555 1_555
H12A C14A 1_555 1_555
C15A C10A 1_555 1_555
H13A C15A 1_555 1_555
C16A O6A 1_555 1_555
C17A O8A 1_555 1_555
O3 Eu1A_4 1_555 1_555
C1 C7 1_555 1_555
C5 C6 1_555 1_555
C13 C17 1_555 1_555
C14 C15 1_555 1_555
Eu1_2 O2_2 1_555 1_555
Eu1_3 O3_3 1_555 1_555
Eu1_3 O3A_3 1_555 1_555
Eu1A_3 O3A_2 1_555 1_555
Eu1A_4 O2A_2 1_555 1_555
O2A C7A 1_555 1_555
O7A C16A 1_555 1_555
C1A C7A 1_555 1_555
C2A C8A 1_555 1_555
C5A C6A 1_555 1_555
C12A C16A 1_555 1_555
C13A C17A 1_555 1_555
C14A C15A 1_555 1_555

#END
