
#######################################################################
#
#                 Cambridge Crystallographic Data Centre
#                                CCDC 
#
#######################################################################
#
# If this CIF has been generated from an entry in the Cambridge 
# Structural Database, then it will include bibliographic, chemical, 
# crystal, experimental, refinement or atomic coordinate data resulting 
# from the CCDC's data processing and validation procedures.
#
#######################################################################

data_FAFCAS
_symmetry_cell_setting           rhombohedral
_symmetry_space_group_name_H-M   'R -3'
_symmetry_Int_Tables_number      148
_space_group_name_Hall           '-R 3'
loop_
_symmetry_equiv_pos_site_id
_symmetry_equiv_pos_as_xyz
1 x,y,z
2 -y,x-y,z
3 -x+y,-x,z
4 2/3+x,1/3+y,1/3+z
5 2/3-y,1/3+x-y,1/3+z
6 2/3-x+y,1/3-x,1/3+z
7 1/3+x,2/3+y,2/3+z
8 1/3-y,2/3+x-y,2/3+z
9 1/3-x+y,2/3-x,2/3+z
10 -x,-y,-z
11 y,-x+y,-z
12 x-y,x,-z
13 1/3-x,2/3-y,2/3-z
14 1/3+y,2/3-x+y,2/3-z
15 1/3+x-y,2/3+x,2/3-z
16 2/3-x,1/3-y,1/3-z
17 2/3+y,1/3-x+y,1/3-z
18 2/3+x-y,1/3+x,1/3-z
_cell_length_a                   13.5399(6)
_cell_length_b                   13.5399(6)
_cell_length_c                   17.0465(14)
_cell_angle_alpha                90
_cell_angle_beta                 90
_cell_angle_gamma                120
_cell_volume                     2706.43
loop_
_atom_site_label
_atom_site_type_symbol
_atom_site_fract_x
_atom_site_fract_y
_atom_site_fract_z
Tb1 Tb 0.3333 0.6667 0.98621(3)
O1 O 0.2651(3) 0.5165(3) 1.0787(2)
O2 O 0.2642(3) 0.3800(3) 1.1488(2)
H1 H 0.3149 0.3546 1.1609
O3 O 0.5195(3) 0.2828(3) 1.1049(2)
O4 O 0.3803(4) 0.2940(4) 1.1652(3)
N1 N 0.4378(4) 0.5532(4) 0.9923(3)
C1 C 0.4085(4) 0.4714(4) 1.0473(3)
C2 C 0.4716(4) 0.4163(4) 1.0546(3)
C3 C 0.3054(5) 0.4542(5) 1.0952(3)
C4 C 0.4555(5) 0.3237(5) 1.1126(3)
Tb1I Tb 0.6667 0.3333 1.01379(3)
Tb1J Tb 0.6667 1.3334 1.01379(3)
Tb1K Tb -0.3334 0.3333 1.01379(3)
O1I O 0.7349(3) 0.4835(3) 0.9213(2)
O1A O 0.4835(3) 0.7486(4) 1.0787(2)
O1J O 0.5165(3) 1.2514(4) 0.9213(2)
O1B O 0.2514(4) 0.7349(3) 1.0787(2)
O1K O -0.2514(4) 0.2651(3) 0.9213(2)
O1J_2 O 0.5165(3) 0.2514(4) 0.9213(2)
O1K_2 O 0.7486(4) 0.2651(3) 0.9213(2)
O2I O 0.7358(3) 0.6200(3) 0.8512(2)
O2A O 0.6200(3) 0.8842(4) 1.1488(2)
O2J O 0.3800(3) 1.1158(4) 0.8512(2)
O2B O 0.1158(4) 0.7358(3) 1.1488(2)
O2K O -0.1158(4) 0.2642(3) 0.8512(2)
H1I H 0.6851 0.6454 0.8391
H1A H 0.6454 0.9603 1.1609
H1J H 0.3546 1.0397 0.8391
H1B H 0.0397 0.6851 1.1609
H1K H -0.0397 0.3149 0.8391
O3I O 0.4805(3) 0.7172(3) 0.8951(2)
O3A O 0.7172(3) 1.2367(4) 1.1049(2)
O3J O 0.2828(3) 0.7633(4) 0.8951(2)
O3B O -0.2367(4) 0.4805(3) 1.1049(2)
O3K O 0.2367(4) 0.5195(3) 0.8951(2)
O3A_2 O 0.7172(3) 0.2367(4) 1.1049(2)
O3B_2 O 0.7633(4) 0.4805(3) 1.1049(2)
O4I O 0.6197(4) 0.7060(4) 0.8348(3)
O4A O 0.7060(4) 1.0863(6) 1.1652(3)
O4J O 0.2940(4) 0.9137(6) 0.8348(3)
O4B O -0.0863(6) 0.6197(4) 1.1652(3)
O4K O 0.0863(6) 0.3803(4) 0.8348(3)
N1I N 0.5622(4) 0.4468(4) 1.0077(3)
N1A N 0.4468(4) 0.8846(6) 0.9923(3)
N1J N 0.5532(4) 1.1154(6) 1.0077(3)
N1B N 0.1154(6) 0.5622(4) 0.9923(3)
N1K N -0.1154(6) 0.4378(4) 1.0077(3)
N1J_2 N 0.5532(4) 0.1154(6) 1.0077(3)
N1K_2 N 0.8846(6) 0.4378(4) 1.0077(3)
C1I C 0.5915(4) 0.5286(4) 0.9527(3)
C1A C 0.5286(4) 0.9371(6) 1.0473(3)
C1J C 0.4714(4) 1.0629(6) 0.9527(3)
C1B C 0.0629(6) 0.5915(4) 1.0473(3)
C1K C -0.0629(6) 0.4085(4) 0.9527(3)
C2I C 0.5284(4) 0.5837(4) 0.9454(3)
C2A C 0.5837(4) 1.0553(6) 1.0546(3)
C2J C 0.4163(4) 0.9447(6) 0.9454(3)
C2B C -0.0553(6) 0.5284(4) 1.0546(3)
C2K C 0.0553(6) 0.4716(4) 0.9454(3)
C3I C 0.6946(5) 0.5458(5) 0.9048(3)
C3A C 0.5458(5) 0.8512(7) 1.0952(3)
C3J C 0.4542(5) 1.1488(7) 0.9048(3)
C3B C 0.1488(7) 0.6946(5) 1.0952(3)
C3K C -0.1488(7) 0.3054(5) 0.9048(3)
C4I C 0.5445(5) 0.6763(5) 0.8874(3)
C4A C 0.6763(5) 1.1318(7) 1.1126(3)
C4J C 0.3237(5) 0.8682(7) 0.8874(3)
C4B C -0.1318(7) 0.5445(5) 1.1126(3)
C4K C 0.1318(7) 0.4555(5) 0.8874(3)
O5 O 0.5797(7) 0.7557(8) 0.6789(4)
O6 O 0.3333 0.6667 0.6667
loop_
_geom_bond_atom_site_label_1
_geom_bond_atom_site_label_2
_geom_bond_site_symmetry_1
_geom_bond_site_symmetry_2
Tb1 O1 1_555 1_555
O1 C3 1_555 1_555
O2 H1 1_555 1_555
O3 C4 1_555 1_555
O4 C4 1_555 1_555
N1 Tb1 1_555 1_555
C1 N1 1_555 1_555
C2 C1 1_555 1_555
C3 O2 1_555 1_555
C4 C2 1_555 1_555
Tb1I O3 1_555 1_555
Tb1J O1J 1_555 1_555
Tb1K O1K 1_555 1_555
O1I Tb1I 1_555 1_555
O1A Tb1 1_555 1_555
O1J C3J 1_555 1_555
O1B Tb1 1_555 1_555
O1K C3K 1_555 1_555
O1J_2 Tb1I 1_555 1_555
O1K_2 Tb1I 1_555 1_555
O2I H1I 1_555 1_555
O2A H1A 1_555 1_555
O2J H1J 1_555 1_555
O2B H1B 1_555 1_555
O2K H1K 1_555 1_555
O3I Tb1 1_555 1_555
O3A Tb1J 1_555 1_555
O3J Tb1 1_555 1_555
O3B Tb1K 1_555 1_555
O3K Tb1 1_555 1_555
O3A_2 Tb1I 1_555 1_555
O3B_2 Tb1I 1_555 1_555
O4I C4I 1_555 1_555
O4A C4A 1_555 1_555
O4J C4J 1_555 1_555
O4B C4B 1_555 1_555
O4K C4K 1_555 1_555
N1I C2 1_555 1_555
N1A Tb1 1_555 1_555
N1J Tb1J 1_555 1_555
N1B Tb1 1_555 1_555
N1K Tb1K 1_555 1_555
N1J_2 Tb1I 1_555 1_555
N1K_2 Tb1I 1_555 1_555
C1I N1I 1_555 1_555
C1A N1A 1_555 1_555
C1J N1J 1_555 1_555
C1B N1B 1_555 1_555
C1K N1K 1_555 1_555
C2I N1 1_555 1_555
C2A N1J 1_555 1_555
C2J N1A 1_555 1_555
C2B N1K 1_555 1_555
C2K N1B 1_555 1_555
C3I O1I 1_555 1_555
C3A O1A 1_555 1_555
C3J O2J 1_555 1_555
C3B O1B 1_555 1_555
C3K O2K 1_555 1_555
C4I O3I 1_555 1_555
C4A O3A 1_555 1_555
C4J O3J 1_555 1_555
C4B O3B 1_555 1_555
C4K O3K 1_555 1_555
C1 C3 1_555 1_555
Tb1I N1I 1_555 1_555
O2I C3I 1_555 1_555
O2A C3A 1_555 1_555
O2B C3B 1_555 1_555
C1I C2I 1_555 1_555
C1I C3I 1_555 1_555
C1A C2A 1_555 1_555
C1A C3A 1_555 1_555
C1J C2J 1_555 1_555
C1J C3J 1_555 1_555
C1B C2B 1_555 1_555
C1B C3B 1_555 1_555
C1K C2K 1_555 1_555
C1K C3K 1_555 1_555
C2I C4I 1_555 1_555
C2A C4A 1_555 1_555
C2J C4J 1_555 1_555
C2B C4B 1_555 1_555
C2K C4K 1_555 1_555

#END
