
#######################################################################
#
#                 Cambridge Crystallographic Data Centre
#                                CCDC 
#
#######################################################################
#
# If this CIF has been generated from an entry in the Cambridge 
# Structural Database, then it will include bibliographic, chemical, 
# crystal, experimental, refinement or atomic coordinate data resulting 
# from the CCDC's data processing and validation procedures.
#
#######################################################################

data_FAFJAZ
_symmetry_cell_setting           monoclinic
_symmetry_space_group_name_H-M   'C 2/c'
_symmetry_Int_Tables_number      15
_space_group_name_Hall           '-C 2yn'
loop_
_symmetry_equiv_pos_site_id
_symmetry_equiv_pos_as_xyz
1 x,y,z
2 1/2+x,1/2+y,z
3 -x,y,1/2-z
4 1/2-x,1/2+y,1/2-z
5 -x,-y,-z
6 1/2-x,1/2-y,-z
7 x,-y,1/2+z
8 1/2+x,1/2-y,1/2+z
_cell_length_a                   22.295(12)
_cell_length_b                   3.534(2)
_cell_length_c                   13.657(9)
_cell_angle_alpha                90
_cell_angle_beta                 90.59(2)
_cell_angle_gamma                90
_cell_volume                     1075.99
loop_
_atom_site_label
_atom_site_type_symbol
_atom_site_fract_x
_atom_site_fract_y
_atom_site_fract_z
Cu1 Cu 0.0000 0.11046(8) 0.2500
Cl1 Cl 0.186575(16) 0.53895(11) 0.18769(3)
N1 N 0.04773(6) 0.3029(4) 0.13984(10)
N2 N 0.06422(6) 0.1282(4) -0.16360(10)
C1 C 0.08247(7) 0.2850(5) 0.07814(11)
C2 C 0.12151(7) 0.2460(5) -0.00235(11)
C3 C 0.18529(7) 0.2512(5) 0.00161(11)
C4 C 0.22069(7) 0.3713(4) 0.08289(11)
C5 C 0.28201(7) 0.3719(4) 0.08123(11)
H1 H 0.3030 0.4557 0.1362
C6 C 0.09098(7) 0.1752(5) -0.09209(12)
Cu1F Cu 0.0000 -0.11046(8) -0.2500
Cu1G Cu 0.5000 0.38954(8) -0.2500
Cu1A Cu 0.5000 0.61046(8) 0.2500
Cl1E Cl 0.313425(16) -0.03895(11) -0.18769(3)
N1E N 0.45227(6) 0.1971(4) -0.13984(10)
N1B N -0.04773(6) 0.3029(4) 0.36016(10)
N2E N 0.43578(6) 0.3718(4) 0.16360(10)
N2D N -0.06422(6) -0.1282(4) 0.16360(10)
N2F N 0.06422(6) -0.1282(4) 0.33640(10)
C1E C 0.41753(7) 0.2150(5) -0.07814(11)
C2E C 0.37849(7) 0.2540(5) 0.00235(11)
C3E C 0.31471(7) 0.2488(5) -0.00161(11)
C4E C 0.27931(7) 0.1287(4) -0.08289(11)
C5E C 0.21799(7) 0.1281(4) -0.08123(11)
H1E H 0.1970 0.0443 -0.1362
C6E C 0.40902(7) 0.3248(5) 0.09209(12)
loop_
_geom_bond_atom_site_label_1
_geom_bond_atom_site_label_2
_geom_bond_site_symmetry_1
_geom_bond_site_symmetry_2
Cu1 N1 1_555 1_555
Cl1 C4 1_555 1_555
N1 C1 1_555 1_555
N2 C6 1_555 1_555
C1 C2 1_555 1_555
C2 C3 1_555 1_555
C3 C4 1_555 1_555
C4 C5 1_555 1_555
C5 H1 1_555 1_555
C6 C2 1_555 1_555
Cu1F N2 1_555 1_555
Cu1G N1E 1_555 1_555
Cu1A N2E 1_555 1_555
Cl1E C4E 1_555 1_555
N1E C1E 1_555 1_555
N1B Cu1 1_555 1_555
N2E C6E 1_555 1_555
N2D Cu1 1_555 1_555
N2F Cu1 1_555 1_555
C1E C2E 1_555 1_555
C2E C3E 1_555 1_555
C3E C5 1_555 1_555
C4E C3E 1_555 1_555
C5E C3 1_555 1_555
H1E C5E 1_555 1_555
C6E C2E 1_555 1_555
C4E C5E 1_555 1_555

#END
