
#######################################################################
#
#                 Cambridge Crystallographic Data Centre
#                                CCDC 
#
#######################################################################
#
# If this CIF has been generated from an entry in the Cambridge 
# Structural Database, then it will include bibliographic, chemical, 
# crystal, experimental, refinement or atomic coordinate data resulting 
# from the CCDC's data processing and validation procedures.
#
#######################################################################

data_FAFJIH
_symmetry_cell_setting           monoclinic
_symmetry_space_group_name_H-M   'C 2/c'
_symmetry_Int_Tables_number      15
_space_group_name_Hall           '-C 2yn'
loop_
_symmetry_equiv_pos_site_id
_symmetry_equiv_pos_as_xyz
1 x,y,z
2 -x,y,1/2-z
3 1/2+x,1/2+y,z
4 1/2-x,1/2+y,1/2-z
5 -x,-y,-z
6 x,-y,1/2+z
7 1/2-x,1/2-y,-z
8 1/2+x,1/2-y,1/2+z
_cell_length_a                   13.1669(14)
_cell_length_b                   21.227(2)
_cell_length_c                   18.254(2)
_cell_angle_alpha                90
_cell_angle_beta                 106.787(7)
_cell_angle_gamma                90
_cell_volume                     4884.46
loop_
_atom_site_label
_atom_site_type_symbol
_atom_site_fract_x
_atom_site_fract_y
_atom_site_fract_z
B1 B 0.1273(11) -0.1568(7) 0.0500(8)
Zn1 Zn 0.5000 -0.25145(12) 0.2500
Zn2 Zn 0.26938(10) 0.07156(7) -0.04091(7)
O1 O 0.2369(7) 0.1127(7) 0.1123(5)
O2 O 0.3554(6) 0.1187(4) 0.0463(5)
O3 O 0.2427(6) 0.0366(4) -0.2072(5)
O4 O 0.3660(6) 0.0719(4) -0.1027(5)
N1 N -0.1182(7) -0.0938(4) 0.0794(5)
N2 N 0.0422(7) -0.1233(5) 0.0774(5)
N3 N 0.2579(7) -0.0199(4) -0.0143(5)
N4 N 0.1950(7) -0.1096(5) 0.0178(5)
N5 N -0.0057(7) -0.2323(5) -0.1372(6)
N6 N 0.0743(7) -0.2030(5) -0.0167(5)
N7 N 0.2037(7) -0.1909(5) 0.1208(5)
N8 N 0.3497(7) -0.2217(5) 0.2102(5)
C1 C 0.0539(10) -0.0880(7) 0.1446(8)
H1 H 0.116(9) -0.085(5) 0.180(7)
C2 C -0.0441(10) -0.0704(7) 0.1452(7)
H2 H -0.076(9) -0.040(5) 0.169(7)
C3 C -0.0634(9) -0.1243(6) 0.0396(7)
H3 H -0.096(9) -0.142(5) -0.009(7)
C4 C 0.3081(10) -0.0693(7) -0.0382(7)
H4 H 0.357(9) -0.062(5) -0.072(6)
C5 C 0.2716(10) -0.1239(8) -0.0193(7)
H5 H 0.292(8) -0.172(5) -0.039(6)
C6 C 0.1901(9) -0.0462(7) 0.0192(6)
H6 H 0.133(9) -0.029(5) 0.036(6)
C7 C 0.0548(9) -0.1879(6) -0.0923(7)
H7 H 0.073(8) -0.140(5) -0.118(6)
C8 C -0.0293(11) -0.2733(9) -0.0870(9)
H8 H -0.054(12) -0.301(7) -0.110(9)
C9 C 0.0213(9) -0.2574(7) -0.0131(8)
H9 H 0.012(7) -0.280(4) 0.037(6)
C10 C 0.1754(9) -0.2232(6) 0.1776(7)
H10 H 0.1063 -0.2312 0.1784
C11 C 0.2628(11) -0.2409(7) 0.2308(7)
H11 H 0.271(10) -0.247(6) 0.274(7)
C12 C 0.3106(9) -0.1921(7) 0.1445(7)
H12 H 0.335(8) -0.152(5) 0.111(6)
C13 C 0.3275(11) 0.1209(7) 0.1092(7)
C14 C 0.3975(11) 0.1279(6) 0.2534(7)
H13 H 0.336(9) 0.129(5) 0.260(7)
C15 C 0.4182(9) 0.1265(6) 0.1834(7)
C16 C 0.5205(11) 0.1277(6) 0.1805(7)
H14 H 0.531(8) 0.114(5) 0.130(6)
C17 C 0.3342(11) 0.0525(6) -0.1725(8)
C18 C 0.4211(8) 0.0500(5) -0.2122(6)
C19 C 0.3944(10) 0.0458(6) -0.2922(7)
H15 H 0.313(9) 0.048(5) -0.315(6)
C20 C 0.5265(9) 0.0478(6) -0.1693(6)
O5 O 0.5000 -0.3593(11) 0.2500
B1G B 0.6273(11) -0.3432(7) 0.5500(8)
Zn1F Zn 0.0000 -0.24855(12) -0.2500
Zn1F_2 Zn 1.0000 -0.24855(12) 0.7500
Zn2A Zn 0.73062(10) 0.07156(7) 0.54091(7)
Zn2D Zn -0.26938(10) -0.07156(7) 0.04091(7)
Zn2A_2 Zn 0.73062(10) 0.07156(7) -0.45909(7)
Zn2C Zn 0.23062(10) -0.42844(7) 0.54091(7)
Zn2G Zn 0.76938(10) -0.57156(7) 0.45909(7)
O1A O 0.7631(7) 0.1127(7) 0.3877(5)
O2A O 0.6446(6) 0.1187(4) 0.4537(5)
O2C O 0.1446(6) -0.3813(4) 0.4537(5)
O3A O 0.7573(6) 0.0366(4) -0.2928(5)
O4A O 0.6340(6) 0.0719(4) -0.3973(5)
O4C O 0.1340(6) -0.4281(4) 0.6027(5)
N1D N 0.1182(7) 0.0938(4) -0.0794(5)
N1G N 0.3818(7) -0.4062(4) 0.5794(5)
N2G N 0.5422(7) -0.3767(5) 0.5774(5)
N3G N 0.7579(7) -0.4801(4) 0.4857(5)
N3C N 0.2421(7) -0.5199(4) 0.5143(5)
N4G N 0.6950(7) -0.3904(5) 0.5178(5)
N5F N 0.5057(7) -0.2677(5) 0.1372(6)
N5G N 0.4943(7) -0.2677(5) 0.3628(6)
N6G N 0.5743(7) -0.2970(5) 0.4833(5)
N7G N 0.7037(7) -0.3091(5) 0.6208(5)
N8A N 0.6503(7) -0.2217(5) 0.2898(5)
N8G N 0.8497(7) -0.2783(5) 0.7102(5)
C1G C 0.5539(10) -0.4120(7) 0.6446(8)
H1G H 0.616(9) -0.415(5) 0.680(7)
C2G C 0.4559(10) -0.4296(7) 0.6452(7)
H2G H 0.424(9) -0.460(5) 0.669(7)
C3G C 0.4366(9) -0.3757(6) 0.5396(7)
H3G H 0.404(9) -0.358(5) 0.491(7)
C4G C 0.8081(10) -0.4307(7) 0.4618(7)
H4G H 0.857(9) -0.438(5) 0.428(6)
C5G C 0.7716(10) -0.3761(8) 0.4807(7)
H5G H 0.792(8) -0.328(5) 0.461(6)
C6G C 0.6901(9) -0.4538(7) 0.5192(6)
H6G H 0.633(9) -0.471(5) 0.536(6)
C7G C 0.5548(9) -0.3121(6) 0.4077(7)
H7G H 0.573(8) -0.360(5) 0.382(6)
C8G C 0.4707(11) -0.2267(9) 0.4130(9)
H8G H 0.446(12) -0.199(7) 0.390(9)
C9G C 0.5213(9) -0.2426(7) 0.4869(8)
H9G H 0.512(7) -0.220(4) 0.537(6)
C10G C 0.6754(9) -0.2768(6) 0.6776(7)
H10G H 0.6063 -0.2688 0.6784
C11G C 0.7628(11) -0.2591(7) 0.7308(7)
H11G H 0.771(10) -0.253(6) 0.774(7)
C12G C 0.8106(9) -0.3079(7) 0.6445(7)
H12G H 0.835(8) -0.348(5) 0.611(6)
C13A C 0.6725(11) 0.1209(7) 0.3908(7)
C14A C 0.6025(11) 0.1279(6) 0.2466(7)
H13A H 0.664(9) 0.129(5) 0.240(7)
C15A C 0.5818(9) 0.1265(6) 0.3166(7)
C16A C 0.4795(11) 0.1277(6) 0.3195(7)
H14A H 0.469(8) 0.114(5) 0.370(6)
C17A C 0.6658(11) 0.0525(6) -0.3275(8)
C18A C 0.5789(8) 0.0500(5) -0.2878(6)
C19A C 0.6056(10) 0.0458(6) -0.2078(7)
H15A H 0.687(9) 0.048(5) -0.185(6)
C20A C 0.4735(9) 0.0478(6) -0.3307(6)
O6 O 1.1354(18) 0.0680(13) 0.2064(15)
loop_
_geom_bond_atom_site_label_1
_geom_bond_atom_site_label_2
_geom_bond_site_symmetry_1
_geom_bond_site_symmetry_2
B1 N2 1_555 1_555
Zn1 N8 1_555 1_555
Zn2 O2 1_555 1_555
O1 C13 1_555 1_555
O2 C13 1_555 1_555
O3 C17 1_555 1_555
O4 Zn2 1_555 1_555
N1 C2 1_555 1_555
N2 C1 1_555 1_555
N3 Zn2 1_555 1_555
N4 B1 1_555 1_555
N5 C7 1_555 1_555
N6 B1 1_555 1_555
N7 B1 1_555 1_555
N8 C11 1_555 1_555
C1 H1 1_555 1_555
C2 C1 1_555 1_555
H2 C2 1_555 1_555
C3 N1 1_555 1_555
H3 C3 1_555 1_555
C4 N3 1_555 1_555
H4 C4 1_555 1_555
C5 N4 1_555 1_555
H5 C5 1_555 1_555
C6 N3 1_555 1_555
H6 C6 1_555 1_555
C7 N6 1_555 1_555
H7 C7 1_555 1_555
C8 N5 1_555 1_555
H8 C8 1_555 1_555
C9 N6 1_555 1_555
H9 C9 1_555 1_555
C10 N7 1_555 1_555
H10 C10 1_555 1_555
C11 C10 1_555 1_555
H11 C11 1_555 1_555
C12 N7 1_555 1_555
H12 C12 1_555 1_555
C13 C15 1_555 1_555
C14 H13 1_555 1_555
C15 C14 1_555 1_555
C16 C15 1_555 1_555
H14 C16 1_555 1_555
C17 O4 1_555 1_555
C18 C17 1_555 1_555
C19 C18 1_555 1_555
H15 C19 1_555 1_555
C20 C18 1_555 1_555
O5 Zn1 1_555 1_555
B1G N2G 1_555 1_555
Zn1F N5 1_555 1_555
Zn1F_2 N8G 1_555 1_555
Zn2A O2A 1_555 1_555
Zn2D N1 1_555 1_555
Zn2A_2 O4A 1_555 1_555
Zn2C O2C 1_555 1_555
Zn2G N3G 1_555 1_555
O1A C13A 1_555 1_555
O2A C13A 1_555 1_555
O3A C17A 1_555 1_555
O4A C17A 1_555 1_555
O4C Zn2C 1_555 1_555
N1D Zn2 1_555 1_555
N1G Zn2C 1_555 1_555
N2G C1G 1_555 1_555
N3G C4G 1_555 1_555
N3C Zn2C 1_555 1_555
N4G B1G 1_555 1_555
N5F Zn1 1_555 1_555
N5G Zn1 1_555 1_555
N6G B1G 1_555 1_555
N7G B1G 1_555 1_555
N8A Zn1 1_555 1_555
N8G C11G 1_555 1_555
C1G H1G 1_555 1_555
C2G N1G 1_555 1_555
H2G C2G 1_555 1_555
C3G N1G 1_555 1_555
H3G C3G 1_555 1_555
C4G H4G 1_555 1_555
C5G N4G 1_555 1_555
H5G C5G 1_555 1_555
C6G N3G 1_555 1_555
H6G C6G 1_555 1_555
C7G N5G 1_555 1_555
H7G C7G 1_555 1_555
C8G N5G 1_555 1_555
H8G C8G 1_555 1_555
C9G N6G 1_555 1_555
H9G C9G 1_555 1_555
C10G N7G 1_555 1_555
H10G C10G 1_555 1_555
C11G C10G 1_555 1_555
H11G C11G 1_555 1_555
C12G N7G 1_555 1_555
H12G C12G 1_555 1_555
C13A C15A 1_555 1_555
C14A C16 1_555 1_555
H13A C14A 1_555 1_555
C15A C14A 1_555 1_555
C16A C14 1_555 1_555
H14A C16A 1_555 1_555
C17A C18A 1_555 1_555
C18A C19A 1_555 1_555
C19A C20 1_555 1_555
H15A C19A 1_555 1_555
C20A C19 1_555 1_555
N2 C3 1_555 1_555
N4 C6 1_555 1_555
N8 C12 1_555 1_555
C4 C5 1_555 1_555
C8 C9 1_555 1_555
N2G C3G 1_555 1_555
N4G C6G 1_555 1_555
N6G C7G 1_555 1_555
N8G C12G 1_555 1_555
C1G C2G 1_555 1_555
C4G C5G 1_555 1_555
C8G C9G 1_555 1_555
C15A C16A 1_555 1_555
C18A C20A 1_555 1_555

#END
