
#######################################################################
#
#                 Cambridge Crystallographic Data Centre
#                                CCDC 
#
#######################################################################
#
# If this CIF has been generated from an entry in the Cambridge 
# Structural Database, then it will include bibliographic, chemical, 
# crystal, experimental, refinement or atomic coordinate data resulting 
# from the CCDC's data processing and validation procedures.
#
#######################################################################

data_FAFKEE
_symmetry_cell_setting           triclinic
_symmetry_space_group_name_H-M   'P -1'
_symmetry_Int_Tables_number      2
_space_group_name_Hall           '-P 1'
loop_
_symmetry_equiv_pos_site_id
_symmetry_equiv_pos_as_xyz
1 x,y,z
2 -x,-y,-z
_cell_length_a                   10.2508(2)
_cell_length_b                   11.1655(3)
_cell_length_c                   14.7606(4)
_cell_angle_alpha                79.5944(12)
_cell_angle_beta                 82.1510(12)
_cell_angle_gamma                69.9402(17)
_cell_volume                     1555.74
loop_
_atom_site_label
_atom_site_type_symbol
_atom_site_fract_x
_atom_site_fract_y
_atom_site_fract_z
La1 La -0.01271(2) -0.18754(2) 0.164737(15)
La2 La 0.27791(2) 0.68201(2) 0.368677(15)
C1 C -0.1622(4) 0.1341(4) 0.2239(3)
C2 C -0.1260(4) 0.1276(4) 0.3124(3)
C3 C -0.0883(4) 0.2291(4) 0.3312(3)
H1 H -0.0650 0.2281 0.3915
C4 C -0.0845(4) 0.3304(4) 0.2633(3)
C5 C -0.1203(5) 0.3360(4) 0.1741(3)
C6 C -0.1599(5) 0.2366(4) 0.1551(3)
H2 H -0.1854 0.2386 0.0952
O1 O -0.1955(3) 0.0308(3) 0.2035(2)
C7 C -0.3343(5) 0.0646(4) 0.1743(3)
H3 H -0.3410 0.1178 0.1127
H4 H -0.4033 0.1153 0.2185
C8 C -0.3644(5) -0.0571(4) 0.1704(3)
O2 O -0.4758(4) -0.0471(3) 0.1426(2)
O3 O -0.2697(3) -0.1635(3) 0.1960(2)
C9 C -0.1268(4) 0.0148(4) 0.3865(3)
H5 H -0.2071 -0.0125 0.3803
H6 H -0.1398 0.0430 0.4479
C10 C 0.0057(4) -0.0995(4) 0.3814(3)
O4 O 0.0619(3) -0.1294(3) 0.3019(2)
O5 O 0.0598(3) -0.1639(3) 0.45328(19)
O6 O -0.0452(4) 0.4320(3) 0.2750(2)
C11 C -0.0140(5) 0.4403(4) 0.3647(3)
H7 H 0.0684 0.3667 0.3847
H8 H -0.0940 0.4394 0.4105
C12 C 0.0153(4) 0.5667(4) 0.3565(3)
O7 O -0.0590(3) 0.6636(3) 0.3064(2)
O8 O 0.1095(3) 0.5653(3) 0.4034(2)
C13 C -0.1016(5) 0.4405(4) 0.0977(3)
H9 H -0.0023 0.4156 0.0740
H10 H -0.1563 0.4440 0.0464
C14 C -0.1437(5) 0.5730(4) 0.1238(3)
O9 O -0.2706(3) 0.6174(3) 0.1611(2)
H11 H -0.2766 0.7035 0.1746
O10 O -0.0637(3) 0.6367(3) 0.1045(2)
C15 C 0.3786(4) 0.3580(4) 0.2885(3)
C16 C 0.3683(4) 0.3818(4) 0.1940(3)
C17 C 0.3203(5) 0.3018(4) 0.1542(3)
H12 H 0.3128 0.3163 0.0894
C18 C 0.2833(4) 0.2004(4) 0.2092(3)
C19 C 0.2958(4) 0.1776(4) 0.3048(3)
C20 C 0.3432(4) 0.2578(4) 0.3435(3)
H13 H 0.3514 0.2437 0.4082
O11 O 0.4243(3) 0.4408(3) 0.3298(2)
C21 C 0.5502(5) 0.3727(4) 0.3742(3)
H14 H 0.6238 0.3288 0.3292
H15 H 0.5342 0.3066 0.4248
C22 C 0.5958(4) 0.4669(4) 0.4125(3)
O12 O 0.6873(3) 0.4222(3) 0.46879(19)
O13 O 0.5383(3) 0.5860(3) 0.3862(2)
C23 C 0.3982(5) 0.4968(4) 0.1346(3)
H16 H 0.4241 0.4799 0.0699
H17 H 0.4770 0.5118 0.1573
C24 C 0.2685(4) 0.6150(4) 0.1391(3)
O14 O 0.2174(3) 0.6453(3) 0.21916(19)
O15 O 0.2113(3) 0.6777(3) 0.0681(2)
O16 O 0.2319(3) 0.1198(3) 0.1767(2)
C25 C 0.2226(5) 0.1351(4) 0.0796(3)
H18 H 0.3172 0.1151 0.0474
H19 H 0.1689 0.2255 0.0572
C26 C 0.1514(5) 0.0458(4) 0.0583(3)
O17 O 0.1411(3) -0.0471(3) 0.1173(2)
O18 O 0.1086(3) 0.0722(3) -0.0210(2)
C27 C 0.2572(5) 0.0688(4) 0.3650(3)
H20 H 0.1928 0.0456 0.3325
H21 H 0.2057 0.1003 0.4225
C28 C 0.3772(5) -0.0517(4) 0.3911(3)
O19 O 0.3563(3) -0.1534(3) 0.4255(2)
O20 O 0.5010(3) -0.0408(3) 0.3770(2)
H22 H 0.5610 -0.1134 0.3899
O21 O 0.3572(3) 0.8184(3) 0.2314(2)
H23 H 0.4088 0.8589 0.2195
H24 H 0.3004 0.8634 0.1957
La1A La 0.01271(2) 0.18754(2) -0.164737(15)
La1_2 La -0.01271(2) 0.81246(2) 0.164737(15)
La2_2 La 0.27791(2) -0.31799(2) 0.368677(15)
La2A La 0.72209(2) 0.31799(2) 0.631323(15)
O4_2 O 0.0619(3) 0.8706(3) 0.3019(2)
O5_2 O 0.0598(3) 0.8361(3) 0.45328(19)
O7_2 O -0.0590(3) -0.3364(3) 0.3064(2)
O10_2 O -0.0637(3) -0.3633(3) 0.1045(2)
O12A O 0.3127(3) 0.5778(3) 0.53121(19)
O14_2 O 0.2174(3) -0.3547(3) 0.21916(19)
O15_2 O 0.2113(3) -0.3223(3) 0.0681(2)
O18A O -0.1086(3) -0.0722(3) 0.0210(2)
O19_2 O 0.3563(3) 0.8466(3) 0.4255(2)
O22 O 0.6828(3) -0.2582(3) 0.4140(2)
H25 H 0.7559 -0.2754 0.3705
H26 H 0.6404 -0.3157 0.4098
loop_
_geom_bond_atom_site_label_1
_geom_bond_atom_site_label_2
_geom_bond_site_symmetry_1
_geom_bond_site_symmetry_2
La1 O1 1_555 1_555
La2 O8 1_555 1_555
C1 C2 1_555 1_555
C2 C3 1_555 1_555
C3 H1 1_555 1_555
C4 C3 1_555 1_555
C5 C4 1_555 1_555
C6 C1 1_555 1_555
H2 C6 1_555 1_555
O1 C1 1_555 1_555
C7 O1 1_555 1_555
H3 C7 1_555 1_555
H4 C7 1_555 1_555
C8 C7 1_555 1_555
O2 C8 1_555 1_555
O3 La1 1_555 1_555
C9 C2 1_555 1_555
H5 C9 1_555 1_555
H6 C9 1_555 1_555
C10 C9 1_555 1_555
O4 La1 1_555 1_555
O5 C10 1_555 1_555
O6 C4 1_555 1_555
C11 O6 1_555 1_555
H7 C11 1_555 1_555
H8 C11 1_555 1_555
C12 C11 1_555 1_555
O7 C12 1_555 1_555
O8 C12 1_555 1_555
C13 C5 1_555 1_555
H9 C13 1_555 1_555
H10 C13 1_555 1_555
C14 C13 1_555 1_555
O9 C14 1_555 1_555
H11 O9 1_555 1_555
O10 C14 1_555 1_555
C15 C16 1_555 1_555
C16 C17 1_555 1_555
C17 H12 1_555 1_555
C18 C17 1_555 1_555
C19 C18 1_555 1_555
C20 C15 1_555 1_555
H13 C20 1_555 1_555
O11 La2 1_555 1_555
C21 O11 1_555 1_555
H14 C21 1_555 1_555
H15 C21 1_555 1_555
C22 C21 1_555 1_555
O12 C22 1_555 1_555
O13 La2 1_555 1_555
C23 C16 1_555 1_555
H16 C23 1_555 1_555
H17 C23 1_555 1_555
C24 C23 1_555 1_555
O14 La2 1_555 1_555
O15 C24 1_555 1_555
O16 C18 1_555 1_555
C25 O16 1_555 1_555
H18 C25 1_555 1_555
H19 C25 1_555 1_555
C26 C25 1_555 1_555
O17 La1 1_555 1_555
O18 C26 1_555 1_555
C27 C19 1_555 1_555
H20 C27 1_555 1_555
H21 C27 1_555 1_555
C28 C27 1_555 1_555
O19 C28 1_555 1_555
O20 C28 1_555 1_555
H22 O20 1_555 1_555
O21 La2 1_555 1_555
H23 O21 1_555 1_555
H24 O21 1_555 1_555
O22 H25 1_555 1_555
H26 O22 1_555 1_555
La1A O18 1_555 1_555
La1_2 O7 1_555 1_555
La2_2 O4 1_555 1_555
La2A O12 1_555 1_555
O4_2 La2 1_555 1_555
O5_2 La2 1_555 1_555
O7_2 La1 1_555 1_555
O10_2 La1 1_555 1_555
O12A La2 1_555 1_555
O14_2 La1 1_555 1_555
O15_2 La1 1_555 1_555
O18A La1 1_555 1_555
O19_2 La2 1_555 1_555
C5 C6 1_555 1_555
C8 O3 1_555 1_555
C10 O4 1_555 1_555
O5 La2_2 1_555 1_555
O10 La1_2 1_555 1_555
C15 O11 1_555 1_555
C19 C20 1_555 1_555
C22 O13 1_555 1_555
C24 O14 1_555 1_555
O14 La1_2 1_555 1_555
O15 La1_2 1_555 1_555
C26 O17 1_555 1_555
O19 La2_2 1_555 1_555
La1_2 O4_2 1_555 1_555
La2_2 O14_2 1_555 1_555

#END
