
#######################################################################
#
#                 Cambridge Crystallographic Data Centre
#                                CCDC 
#
#######################################################################
#
# If this CIF has been generated from an entry in the Cambridge 
# Structural Database, then it will include bibliographic, chemical, 
# crystal, experimental, refinement or atomic coordinate data resulting 
# from the CCDC's data processing and validation procedures.
#
#######################################################################

data_FAFKOO
_symmetry_cell_setting           triclinic
_symmetry_space_group_name_H-M   'P -1'
_symmetry_Int_Tables_number      2
_space_group_name_Hall           '-P 1'
loop_
_symmetry_equiv_pos_site_id
_symmetry_equiv_pos_as_xyz
1 x,y,z
2 -x,-y,-z
_cell_length_a                   7.7218(4)
_cell_length_b                   8.3520(5)
_cell_length_c                   10.7204(6)
_cell_angle_alpha                108.621(3)
_cell_angle_beta                 94.915(3)
_cell_angle_gamma                92.412(3)
_cell_volume                     651.015
loop_
_atom_site_label
_atom_site_type_symbol
_atom_site_fract_x
_atom_site_fract_y
_atom_site_fract_z
Zn1 Zn 0.64853(5) 0.35334(5) 0.67884(4)
C1 C 1.0378(4) 0.1350(4) -0.0481(3)
C2 C 0.9607(4) 0.1625(4) 0.0693(3)
H1 H 0.9340 0.2739 0.1176
C3 C 0.9220(4) 0.0295(4) 0.1168(3)
O1 O 0.8396(3) 0.0465(3) 0.2291(2)
C4 C 0.8222(4) 0.2147(4) 0.3107(3)
H2 H 0.7530 0.2747 0.2599
H3 H 0.9387 0.2759 0.3397
C5 C 0.7325(4) 0.2128(4) 0.4305(3)
O2 O 0.7171(3) 0.3634(3) 0.5098(2)
O3 O 0.6809(4) 0.0844(3) 0.4519(2)
C6 C 1.0814(4) 0.2794(4) -0.0984(3)
H4 H 1.1850 0.2524 -0.1476
H5 H 1.1151 0.3818 -0.0209
C7 C 0.9401(5) 0.3233(4) -0.1874(3)
O4 O 0.7855(3) 0.2555(3) -0.2018(2)
O5 O 0.9777(3) 0.4316(3) -0.2403(2)
O6 O 0.4125(3) 0.2444(3) 0.6720(2)
H6 H 0.3919 0.1362 0.6293
H7 H 0.3323 0.2822 0.6100
N1 N 0.5879(3) 0.5959(3) 0.7833(3)
C8 C 0.4943(4) 0.6114(4) 0.8861(3)
H8 H 0.4500 0.5111 0.8996
C9 C 0.4594(4) 0.7656(4) 0.9733(3)
H9 H 0.3957 0.7698 1.0461
C10 C 0.5181(4) 0.9151(4) 0.9538(3)
C11 C 0.6101(4) 0.8997(4) 0.8445(3)
H10 H 0.6494 0.9979 0.8255
C12 C 0.6437(4) 0.7397(4) 0.7635(3)
H11 H 0.7091 0.7316 0.6909
Zn1A Zn 0.35147(5) 1.64666(5) 1.32116(4)
Zn1_2 Zn 0.64853(5) 0.35334(5) -0.32116(4)
Zn1A_2 Zn 1.35147(5) -0.35334(5) -0.67884(4)
Zn1A_3 Zn 1.35147(5) -0.35334(5) 0.32116(4)
C1A C 0.9622(4) -0.1350(4) 0.0481(3)
C2A C 1.0393(4) -0.1625(4) -0.0693(3)
H1A H 1.0660 -0.2739 -0.1176
C3A C 1.0780(4) -0.0295(4) -0.1168(3)
O1A O 1.1604(3) -0.0465(3) -0.2291(2)
C4A C 1.1778(4) -0.2147(4) -0.3107(3)
H2A H 1.2470 -0.2747 -0.2599
H3A H 1.0613 -0.2759 -0.3397
C5A C 1.2675(4) -0.2128(4) -0.4305(3)
O2A O 1.2829(3) -0.3634(3) -0.5098(2)
O2A_2 O 0.2829(3) 1.6366(3) 1.4902(2)
O3A O 1.3191(4) -0.0844(3) -0.4519(2)
C6A C 0.9186(4) -0.2794(4) 0.0984(3)
H4A H 0.8150 -0.2524 0.1476
H5A H 0.8849 -0.3818 0.0209
C7A C 1.0599(5) -0.3233(4) 0.1874(3)
O4A O 1.2145(3) -0.2555(3) 0.2018(2)
O4_2 O 0.7855(3) 0.2555(3) 0.7982(2)
O4A_2 O 0.2145(3) 1.7445(3) 1.2018(2)
O5A O 1.0223(3) -0.4316(3) 0.2403(2)
O6A O 0.5875(3) 1.7556(3) 1.3280(2)
H6A H 0.6081 1.8638 1.3707
H7A H 0.6677 1.7178 1.3900
N1A N 0.4121(3) 1.4041(3) 1.2167(3)
C8A C 0.5057(4) 1.3886(4) 1.1139(3)
H8A H 0.5500 1.4889 1.1004
C9A C 0.5406(4) 1.2344(4) 1.0267(3)
H9A H 0.6043 1.2302 0.9539
C10A C 0.4819(4) 1.0849(4) 1.0462(3)
C11A C 0.3899(4) 1.1003(4) 1.1555(3)
H10A H 0.3506 1.0021 1.1745
C12A C 0.3563(4) 1.2603(4) 1.2365(3)
H11A H 0.2909 1.2684 1.3091
O7 O 0.8341(3) 0.6429(3) 0.4561(2)
H12 H 0.7952 0.5501 0.4734
H13 H 0.8955 0.6185 0.3855
loop_
_geom_bond_atom_site_label_1
_geom_bond_atom_site_label_2
_geom_bond_site_symmetry_1
_geom_bond_site_symmetry_2
Zn1 O2 1_555 1_555
C1 C2 1_555 1_555
C2 H1 1_555 1_555
C3 C2 1_555 1_555
O1 C3 1_555 1_555
C4 O1 1_555 1_555
H2 C4 1_555 1_555
H3 C4 1_555 1_555
C5 C4 1_555 1_555
O2 C5 1_555 1_555
O3 C5 1_555 1_555
C6 C1 1_555 1_555
H4 C6 1_555 1_555
H5 C6 1_555 1_555
C7 C6 1_555 1_555
O4 C7 1_555 1_555
O5 C7 1_555 1_555
O6 Zn1 1_555 1_555
H6 O6 1_555 1_555
H7 O6 1_555 1_555
N1 Zn1 1_555 1_555
C8 N1 1_555 1_555
H8 C8 1_555 1_555
C9 C8 1_555 1_555
H9 C9 1_555 1_555
C10 C9 1_555 1_555
C11 C10 1_555 1_555
H10 C11 1_555 1_555
C12 N1 1_555 1_555
H11 C12 1_555 1_555
O7 H12 1_555 1_555
H13 O7 1_555 1_555
Zn1A O2A_2 1_555 1_555
Zn1_2 O4 1_555 1_555
Zn1A_2 O2A 1_555 1_555
Zn1A_3 O4A 1_555 1_555
C1A C3 1_555 1_555
C2A C1A 1_555 1_555
H1A C2A 1_555 1_555
C3A C1 1_555 1_555
O1A C3A 1_555 1_555
C4A O1A 1_555 1_555
H2A C4A 1_555 1_555
H3A C4A 1_555 1_555
C5A C4A 1_555 1_555
O2A C5A 1_555 1_555
O3A C5A 1_555 1_555
C6A C1A 1_555 1_555
H4A C6A 1_555 1_555
H5A C6A 1_555 1_555
C7A C6A 1_555 1_555
O4A C7A 1_555 1_555
O4_2 Zn1 1_555 1_555
O4A_2 Zn1A 1_555 1_555
O5A C7A 1_555 1_555
O6A Zn1A 1_555 1_555
H6A O6A 1_555 1_555
H7A O6A 1_555 1_555
N1A Zn1A 1_555 1_555
C8A N1A 1_555 1_555
H8A C8A 1_555 1_555
C9A C8A 1_555 1_555
H9A C9A 1_555 1_555
C10A C10 1_555 1_555
C11A C10A 1_555 1_555
H10A C11A 1_555 1_555
C12A N1A 1_555 1_555
H11A C12A 1_555 1_555
C11 C12 1_555 1_555
C2A C3A 1_555 1_555
C9A C10A 1_555 1_555
C11A C12A 1_555 1_555

#END
