
#######################################################################
#
#                 Cambridge Crystallographic Data Centre
#                                CCDC 
#
#######################################################################
#
# If this CIF has been generated from an entry in the Cambridge 
# Structural Database, then it will include bibliographic, chemical, 
# crystal, experimental, refinement or atomic coordinate data resulting 
# from the CCDC's data processing and validation procedures.
#
#######################################################################

data_FAFKII
_symmetry_cell_setting           monoclinic
_symmetry_space_group_name_H-M   'P 21/c'
_symmetry_Int_Tables_number      14
_space_group_name_Hall           '-P 2ybc'
loop_
_symmetry_equiv_pos_site_id
_symmetry_equiv_pos_as_xyz
1 x,y,z
2 -x,1/2+y,1/2-z
3 -x,-y,-z
4 x,1/2-y,1/2+z
_cell_length_a                   8.9186(4)
_cell_length_b                   12.2656(7)
_cell_length_c                   16.3199(8)
_cell_angle_alpha                90
_cell_angle_beta                 91.384(4)
_cell_angle_gamma                90
_cell_volume                     1784.75
loop_
_atom_site_label
_atom_site_type_symbol
_atom_site_fract_x
_atom_site_fract_y
_atom_site_fract_z
Zn1 Zn -0.43579(7) 0.23131(6) 0.70375(4)
C1 C -0.1194(6) 0.3255(5) 0.4548(4)
C2 C -0.0477(7) 0.3433(5) 0.3837(3)
C3 C 0.0954(7) 0.3774(5) 0.3867(3)
H1 H 0.1454 0.3903 0.3369
C4 C 0.1723(6) 0.3942(5) 0.4604(4)
C5 C 0.0953(7) 0.3729(5) 0.5346(3)
C6 C -0.0499(7) 0.3386(5) 0.5279(3)
H2 H -0.1032 0.3236 0.5764
O1 O -0.2719(4) 0.2925(4) 0.4452(2)
C7 C -0.3490(7) 0.2658(5) 0.5170(4)
H3 H -0.4582 0.2706 0.5052
H4 H -0.3237 0.3204 0.5598
C8 C -0.3136(8) 0.1542(6) 0.5501(4)
O2 O -0.3531(5) 0.1321(3) 0.6221(2)
O3 O -0.2576(7) 0.0843(4) 0.5031(3)
C9 C -0.1290(7) 0.3210(6) 0.3009(3)
H5 H -0.2272 0.3587 0.3002
H6 H -0.0691 0.3522 0.2564
C10 C -0.1547(7) 0.2007(6) 0.2839(4)
O4 O -0.2702(4) 0.1757(3) 0.2403(2)
O5 O -0.0643(5) 0.1327(4) 0.3119(3)
O6 O 0.3215(5) 0.4255(4) 0.4703(2)
C11 C 0.3945(7) 0.4502(5) 0.3985(3)
H7 H 0.4880 0.4901 0.4129
H8 H 0.3299 0.4996 0.3652
C12 C 0.4340(7) 0.3520(6) 0.3466(3)
O7 O 0.4951(5) 0.3787(4) 0.2786(2)
O8 O 0.4103(6) 0.2567(4) 0.3682(3)
C13 C 0.1813(7) 0.3894(6) 0.6153(4)
H9 H 0.1095 0.3857 0.6605
H10 H 0.2249 0.4637 0.6156
C14 C 0.3063(7) 0.3081(6) 0.6325(4)
O9 O 0.4192(4) 0.3426(3) 0.6753(2)
O10 O 0.2967(6) 0.2143(4) 0.6058(3)
Zn1C Zn -0.43579(7) 0.26869(6) 0.20375(4)
Zn1C_2 Zn 0.56421(7) 0.26869(6) 0.20375(4)
Zn1_2 Zn 0.56421(7) 0.23131(6) 0.70375(4)
O4C O -0.2702(4) 0.3243(3) 0.7403(2)
O7C O -0.5049(5) 0.1213(4) 0.7786(2)
O9_2 O -0.5808(4) 0.3426(3) 0.6753(2)
loop_
_geom_bond_atom_site_label_1
_geom_bond_atom_site_label_2
_geom_bond_site_symmetry_1
_geom_bond_site_symmetry_2
Zn1 O2 1_555 1_555
C1 C2 1_555 1_555
C2 C3 1_555 1_555
C3 H1 1_555 1_555
C4 C3 1_555 1_555
C5 C4 1_555 1_555
C6 C1 1_555 1_555
H2 C6 1_555 1_555
O1 C1 1_555 1_555
C7 O1 1_555 1_555
H3 C7 1_555 1_555
H4 C7 1_555 1_555
C8 C7 1_555 1_555
O2 C8 1_555 1_555
O3 C8 1_555 1_555
C9 C2 1_555 1_555
H5 C9 1_555 1_555
H6 C9 1_555 1_555
C10 C9 1_555 1_555
O4 C10 1_555 1_555
O5 C10 1_555 1_555
O6 C4 1_555 1_555
C11 O6 1_555 1_555
H7 C11 1_555 1_555
H8 C11 1_555 1_555
C12 C11 1_555 1_555
O7 C12 1_555 1_555
O8 C12 1_555 1_555
C13 C5 1_555 1_555
H9 C13 1_555 1_555
H10 C13 1_555 1_555
C14 C13 1_555 1_555
O9 C14 1_555 1_555
O10 C14 1_555 1_555
Zn1C O4 1_555 1_555
Zn1C_2 O7 1_555 1_555
Zn1_2 O9 1_555 1_555
O4C Zn1 1_555 1_555
O7C Zn1 1_555 1_555
O9_2 Zn1 1_555 1_555
C5 C6 1_555 1_555

#END
