
#######################################################################
#
#                 Cambridge Crystallographic Data Centre
#                                CCDC 
#
#######################################################################
#
# If this CIF has been generated from an entry in the Cambridge 
# Structural Database, then it will include bibliographic, chemical, 
# crystal, experimental, refinement or atomic coordinate data resulting 
# from the CCDC's data processing and validation procedures.
#
#######################################################################

data_FAFMII
_symmetry_cell_setting           orthorhombic
_symmetry_space_group_name_H-M   'P 21 21 21'
_symmetry_Int_Tables_number      19
_space_group_name_Hall           'P 2ac 2ab'
loop_
_symmetry_equiv_pos_site_id
_symmetry_equiv_pos_as_xyz
1 x,y,z
2 1/2-x,-y,1/2+z
3 1/2+x,1/2-y,-z
4 -x,1/2+y,1/2-z
_cell_length_a                   7.718(2)
_cell_length_b                   7.963(2)
_cell_length_c                   14.785(5)
_cell_angle_alpha                90
_cell_angle_beta                 90
_cell_angle_gamma                90
_cell_volume                     908.663
loop_
_atom_site_label
_atom_site_type_symbol
_atom_site_fract_x
_atom_site_fract_y
_atom_site_fract_z
Co1 Co 0.6885(1) 0.3712(1) 0.3229(1)
O1 O 0.6412(7) 0.1292(7) 0.3734(3)
O2 O 0.4220(7) 0.4203(7) 0.3193(4)
N1 N 0.9538(7) 0.3300(9) 0.3127(3)
O3 O 0.7423(6) 0.6224(6) 0.2922(3)
N2 N 0.7192(7) 0.4770(6) 0.4520(3)
C1 C 0.6977(10) 0.4033(7) 0.5341(4)
O4 O 0.6440(8) 0.2548(6) 0.5419(3)
N3 N 0.7347(7) 0.4926(7) 0.6111(3)
C2 C 0.7977(8) 0.6536(7) 0.6136(4)
O5 O 0.6687(7) 0.2780(6) 0.1882(3)
C3 C 0.8180(10) 0.7302(8) 0.5266(4)
C4 C 0.7791(7) 0.6398(7) 0.4519(4)
C5 C 0.7952(8) 0.7137(7) 0.3569(4)
O6 O 0.8614(7) 0.8551(5) 0.3480(3)
H1 H 0.737(7) 0.433(7) 0.658(4)
H2 H 0.872(9) 0.838(9) 0.528(4)
H3 H 0.329(14) 0.332(13) 0.311(7)
H4 H 0.397(16) 0.532(15) 0.315(8)
H5 H 1.005 0.380 0.356
H6 H 1.000 0.364 0.258
H7 H 0.972 0.223 0.319
H8 H 0.639(14) 0.148(13) 0.420(6)
O5A O 0.8313(7) 0.7220(6) 0.6882(3)
C2A C 0.7023(8) 0.3464(7) 0.1136(4)
Co1A Co 0.8115(1) 0.6288(1) 0.8229(1)
N3A N 0.7653(7) 0.5074(7) 0.1111(3)
C3A C 0.6820(10) 0.2698(8) 0.0266(4)
O1A O 0.8588(7) 0.8708(7) 0.8734(3)
O2A O 1.0780(7) 0.5797(7) 0.8193(4)
N1A N 0.5462(7) 0.6700(9) 0.8127(3)
O3A O 0.7577(6) 0.3776(6) 0.7922(3)
N2A N 0.7808(7) 0.5230(6) 0.9520(3)
C1A C 0.8023(10) 0.5967(7) 0.0341(4)
H1A H 0.763(7) 0.567(7) 0.158(4)
C4A C 0.7209(7) 0.3602(7) -0.0481(4)
H2A H 0.628(9) 0.162(9) 0.028(4)
H8A H 0.861(14) 0.852(13) 0.920(6)
H3A H 1.171(14) 0.668(13) 0.811(7)
H4A H 1.103(16) 0.468(15) 0.815(8)
H5A H 0.495 0.620 0.856
H6A H 0.500 0.636 0.758
H7A H 0.528 0.777 0.819
N2A_2 N 0.7808(7) 0.5230(6) -0.0480(3)
O4A O 0.8560(8) 0.7452(6) 0.0419(3)
C5A C 0.7048(8) 0.2863(7) -0.1431(4)
Co1A_2 Co 0.8115(1) 0.6288(1) -0.1771(1)
O3A_2 O 0.7577(6) 0.3776(6) -0.2078(3)
O6A O 0.6386(7) 0.1449(5) -0.1520(3)
loop_
_geom_bond_atom_site_label_1
_geom_bond_atom_site_label_2
_geom_bond_site_symmetry_1
_geom_bond_site_symmetry_2
Co1 O1 1_555 1_555
O1 H8 1_555 1_555
O2 Co1 1_555 1_555
N1 Co1 1_555 1_555
O3 Co1 1_555 1_555
N2 Co1 1_555 1_555
C1 N2 1_555 1_555
O4 C1 1_555 1_555
N3 C1 1_555 1_555
C2 N3 1_555 1_555
O5 Co1 1_555 1_555
C3 C2 1_555 1_555
C4 N2 1_555 1_555
C5 O3 1_555 1_555
O6 C5 1_555 1_555
H1 N3 1_555 1_555
H2 C3 1_555 1_555
H3 O2 1_555 1_555
H4 O2 1_555 1_555
H5 N1 1_555 1_555
H6 N1 1_555 1_555
H7 N1 1_555 1_555
O5A C2 1_555 1_555
C2A O5 1_555 1_555
Co1A O5A 1_555 1_555
N3A C2A 1_555 1_555
C3A C2A 1_555 1_555
O1A Co1A 1_555 1_555
O2A Co1A 1_555 1_555
N1A Co1A 1_555 1_555
O3A Co1A 1_555 1_555
N2A Co1A 1_555 1_555
C1A N3A 1_555 1_555
H1A N3A 1_555 1_555
C4A C3A 1_555 1_555
H2A C3A 1_555 1_555
H8A O1A 1_555 1_555
H3A O2A 1_555 1_555
H4A O2A 1_555 1_555
H5A N1A 1_555 1_555
H6A N1A 1_555 1_555
H7A N1A 1_555 1_555
N2A_2 C1A 1_555 1_555
O4A C1A 1_555 1_555
C5A C4A 1_555 1_555
Co1A_2 N2A_2 1_555 1_555
O3A_2 C5A 1_555 1_555
O6A C5A 1_555 1_555
C3 C4 1_555 1_555
C4 C5 1_555 1_555
C4A N2A_2 1_555 1_555
Co1A_2 O3A_2 1_555 1_555

#END
