
#######################################################################
#
#                 Cambridge Crystallographic Data Centre
#                                CCDC 
#
#######################################################################
#
# If this CIF has been generated from an entry in the Cambridge 
# Structural Database, then it will include bibliographic, chemical, 
# crystal, experimental, refinement or atomic coordinate data resulting 
# from the CCDC's data processing and validation procedures.
#
#######################################################################

data_FAFMOO
_symmetry_cell_setting           orthorhombic
_symmetry_space_group_name_H-M   'P 21 21 21'
_symmetry_Int_Tables_number      19
_space_group_name_Hall           'P 2ac 2ab'
loop_
_symmetry_equiv_pos_site_id
_symmetry_equiv_pos_as_xyz
1 x,y,z
2 1/2+x,1/2-y,-z
3 -x,1/2+y,1/2-z
4 1/2-x,-y,1/2+z
_cell_length_a                   7.789(7)
_cell_length_b                   8.145(8)
_cell_length_c                   14.811(5)
_cell_angle_alpha                90
_cell_angle_beta                 90
_cell_angle_gamma                90
_cell_volume                     939.631
loop_
_atom_site_label
_atom_site_type_symbol
_atom_site_fract_x
_atom_site_fract_y
_atom_site_fract_z
Ni1 Ni -0.3097(3) 0.3730(3) 0.3234(2)
O1 O -0.3552(19) 0.1319(18) 0.3685(9)
O2 O -0.5728(19) 0.4192(20) 0.3261(10)
N1 N -0.0462(20) 0.3214(23) 0.3108(8)
O3 O -0.2556(16) 0.6159(17) 0.2922(8)
N2 N -0.2724(18) 0.4719(18) 0.4512(9)
C1 C -0.2967(25) 0.3992(28) 0.5340(12)
O4 O -0.3445(24) 0.2484(20) 0.5400(9)
N3 N -0.2572(22) 0.4850(22) 0.6101(10)
C2 C -0.2034(31) 0.6427(23) 0.6143(10)
O5 O -0.1715(20) 0.7088(17) 0.6889(8)
C3 C -0.1810(29) 0.7174(21) 0.5266(11)
C4 C -0.2199(18) 0.6313(26) 0.4511(10)
C5 C -0.2044(25) 0.7042(21) 0.3562(10)
O6 O -0.1370(22) 0.8462(16) 0.3490(8)
H1 H -0.268 0.434 0.661
H2 H -0.194 0.844 0.527
H3 H -0.650 0.368 0.272
H4 H -0.674 0.382 0.384
H5 H 0.017 0.359 0.360
H6 H 0.000 0.357 0.260
H7 H -0.041 0.194 0.300
H8 H -0.341 0.131 0.438
H9 H -0.326 0.013 0.360
O5C O -0.3285(20) 0.2912(17) 0.1889(8)
Ni1C Ni -0.1903(3) 0.6270(3) 0.8234(2)
loop_
_geom_bond_atom_site_label_1
_geom_bond_atom_site_label_2
_geom_bond_site_symmetry_1
_geom_bond_site_symmetry_2
Ni1 O1 1_555 1_555
O1 H8 1_555 1_555
O2 Ni1 1_555 1_555
N1 Ni1 1_555 1_555
O3 Ni1 1_555 1_555
N2 Ni1 1_555 1_555
C1 N2 1_555 1_555
O4 C1 1_555 1_555
N3 C1 1_555 1_555
C2 N3 1_555 1_555
O5 C2 1_555 1_555
C3 C2 1_555 1_555
C4 N2 1_555 1_555
C5 O3 1_555 1_555
O6 C5 1_555 1_555
H1 N3 1_555 1_555
H2 C3 1_555 1_555
H3 O2 1_555 1_555
H4 O2 1_555 1_555
H5 N1 1_555 1_555
H6 N1 1_555 1_555
H7 N1 1_555 1_555
H9 O1 1_555 1_555
O5C Ni1 1_555 1_555
Ni1C O5 1_555 1_555
C3 C4 1_555 1_555
C4 C5 1_555 1_555

#END
