
#######################################################################
#
#                 Cambridge Crystallographic Data Centre
#                                CCDC 
#
#######################################################################
#
# If this CIF has been generated from an entry in the Cambridge 
# Structural Database, then it will include bibliographic, chemical, 
# crystal, experimental, refinement or atomic coordinate data resulting 
# from the CCDC's data processing and validation procedures.
#
#######################################################################

data_FAFPUX
_symmetry_cell_setting           orthorhombic
_symmetry_space_group_name_H-M   'P b c a'
_symmetry_Int_Tables_number      61
_space_group_name_Hall           '-P 2ac 2ab'
loop_
_symmetry_equiv_pos_site_id
_symmetry_equiv_pos_as_xyz
1 x,y,z
2 1/2-x,1/2+y,z
3 x,1/2-y,1/2+z
4 1/2-x,-y,1/2+z
5 -x,-y,-z
6 1/2+x,1/2-y,-z
7 -x,1/2+y,1/2-z
8 1/2+x,y,1/2-z
_cell_length_a                   9.749(8)
_cell_length_b                   20.905(9)
_cell_length_c                   18.301(5)
_cell_angle_alpha                90
_cell_angle_beta                 90
_cell_angle_gamma                90
_cell_volume                     3729.8
loop_
_atom_site_label
_atom_site_type_symbol
_atom_site_fract_x
_atom_site_fract_y
_atom_site_fract_z
Ru1 Ru 0.1538(1) 0.03043(4) 0.18460(6)
Ru2 Ru -0.10031(9) 0.07397(4) 0.18343(5)
O1 O 0.1957(8) 0.1040(4) 0.2626(4)
O2 O -0.0231(8) 0.1335(4) 0.2677(5)
O3 O 0.0812(8) -0.0251(4) 0.2737(5)
O4 O -0.1365(8) 0.0048(4) 0.2672(4)
O5 O 0.266(1) 0.1112(6) 0.0649(6)
O6 O 0.085(1) -0.0670(5) 0.0716(5)
O7 O -0.040(1) 0.1681(5) 0.0664(6)
O8 O -0.217(1) -0.0090(5) 0.0655(6)
C1 C 0.101(1) 0.1418(5) 0.2830(6)
C2 C -0.041(1) -0.0304(5) 0.2930(6)
C3 C 0.220(1) 0.0795(8) 0.1115(7)
C4 C 0.114(1) -0.0310(6) 0.1151(7)
C5 C -0.064(1) 0.1332(6) 0.1128(7)
C6 C -0.171(1) 0.0221(7) 0.1119(6)
C7 C 0.133(1) 0.2028(6) 0.3215(7)
C8 C 0.038(2) 0.2303(6) 0.3674(7)
C9 C 0.066(2) 0.2879(7) 0.4014(8)
C10 C 0.190(2) 0.3175(7) 0.3900(9)
C11 C 0.285(2) 0.2910(7) 0.344(1)
C12 C 0.257(1) 0.2333(6) 0.3099(8)
C13 C -0.080(1) -0.0804(6) 0.3480(7)
C14 C -0.158(2) -0.1318(7) 0.3222(9)
C15 C -0.190(2) -0.1809(7) 0.370(1)
C16 C -0.144(2) -0.1793(9) 0.439(1)
C17 C -0.069(2) -0.130(1) 0.4640(8)
C18 C -0.033(2) -0.0797(8) 0.4180(8)
H1 H -0.0501 0.2089 0.3758
H2 H -0.0014 0.3079 0.4329
H3 H 0.2113 0.3574 0.4147
H4 H 0.3728 0.3123 0.3352
H5 H 0.3248 0.2137 0.2782
H6 H -0.1888 -0.1329 0.2710
H7 H -0.2441 -0.2167 0.3529
H8 H -0.1676 -0.2141 0.4716
H9 H -0.0411 -0.1293 0.5146
H10 H 0.0260 -0.0447 0.4353
O1G O -0.3043(8) 0.1040(4) 0.2374(4)
O4G O 0.3635(8) 0.0048(4) 0.2328(4)
Ru2G Ru 0.39969(9) 0.07397(4) 0.31657(5)
Ru1G Ru -0.3462(1) 0.03043(4) 0.31540(6)
loop_
_geom_bond_atom_site_label_1
_geom_bond_atom_site_label_2
_geom_bond_site_symmetry_1
_geom_bond_site_symmetry_2
Ru1 Ru2 1_555 1_555
Ru2 O2 1_555 1_555
O1 Ru1 1_555 1_555
O2 C1 1_555 1_555
O3 Ru1 1_555 1_555
O4 Ru2 1_555 1_555
O5 C3 1_555 1_555
O6 C4 1_555 1_555
O7 C5 1_555 1_555
O8 C6 1_555 1_555
C1 O1 1_555 1_555
C2 O3 1_555 1_555
C3 Ru1 1_555 1_555
C4 Ru1 1_555 1_555
C5 Ru2 1_555 1_555
C6 Ru2 1_555 1_555
C7 C1 1_555 1_555
C8 C7 1_555 1_555
C9 C8 1_555 1_555
C10 C9 1_555 1_555
C11 C10 1_555 1_555
C12 C7 1_555 1_555
C13 C2 1_555 1_555
C14 C13 1_555 1_555
C15 C14 1_555 1_555
C16 C15 1_555 1_555
C17 C16 1_555 1_555
C18 C13 1_555 1_555
H1 C8 1_555 1_555
H2 C9 1_555 1_555
H3 C10 1_555 1_555
H4 C11 1_555 1_555
H5 C12 1_555 1_555
H6 C14 1_555 1_555
H7 C15 1_555 1_555
H8 C16 1_555 1_555
H9 C17 1_555 1_555
H10 C18 1_555 1_555
O1G Ru2 1_555 1_555
O4G Ru1 1_555 1_555
Ru2G O1 1_555 1_555
Ru1G O4 1_555 1_555
O4 C2 1_555 1_555
C11 C12 1_555 1_555
C17 C18 1_555 1_555
O1G Ru1G 1_555 1_555
O4G Ru2G 1_555 1_555

#END
