
#######################################################################
#
#                 Cambridge Crystallographic Data Centre
#                                CCDC 
#
#######################################################################
#
# If this CIF has been generated from an entry in the Cambridge 
# Structural Database, then it will include bibliographic, chemical, 
# crystal, experimental, refinement or atomic coordinate data resulting 
# from the CCDC's data processing and validation procedures.
#
#######################################################################

data_FAFXUG
_symmetry_cell_setting           monoclinic
_symmetry_space_group_name_H-M   'C 2/c'
_symmetry_Int_Tables_number      15
_space_group_name_Hall           '-C 2yn'
loop_
_symmetry_equiv_pos_site_id
_symmetry_equiv_pos_as_xyz
1 x,y,z
2 -x,y,1/2-z
3 1/2+x,1/2+y,z
4 1/2-x,1/2+y,1/2-z
5 -x,-y,-z
6 x,-y,1/2+z
7 1/2-x,1/2-y,-z
8 1/2+x,1/2-y,1/2+z
_cell_length_a                   22.417(2)
_cell_length_b                   11.4647(12)
_cell_length_c                   7.3938(6)
_cell_angle_alpha                90
_cell_angle_beta                 101.614(8)
_cell_angle_gamma                90
_cell_volume                     1861.33
loop_
_atom_site_label
_atom_site_type_symbol
_atom_site_fract_x
_atom_site_fract_y
_atom_site_fract_z
Ba1 Ba -0.5000 0.295840(12) -0.7500
O1 O -0.46355(8) 0.10157(14) -0.9312(3)
H1 H -0.4383(10) 0.1144(17) -0.998(3)
H2 H -0.4547(12) 0.0435(15) -0.863(3)
N1 N -0.43437(7) 0.30612(15) -0.3199(2)
S1 S -0.384860(19) 0.21258(4) -0.35023(6)
S2 S -0.409940(19) 0.38701(4) -0.14554(6)
O2 O -0.38927(6) 0.19768(13) -0.54675(19)
O3 O -0.38605(7) 0.10566(12) -0.2477(2)
O4 O -0.43380(7) 0.50291(13) -1.1748(2)
O5 O -0.41611(6) 0.33437(13) -0.97268(19)
C1 C -0.31764(8) 0.29038(14) -0.2521(2)
C2 C -0.33145(8) 0.38457(15) -0.1508(2)
C3 C -0.28669(8) 0.46015(16) -0.0615(2)
H3 H -0.2965 0.5240 0.0091
C4 C -0.22716(9) 0.43928(17) -0.0791(3)
H4 H -0.1957 0.4906 -0.0221
C5 C -0.21296(8) 0.34366(18) -0.1796(3)
H5 H -0.1719 0.3305 -0.1891
C6 C -0.25794(8) 0.26752(16) -0.2657(2)
H6 H -0.2481 0.2017 -0.3321
O1A O -0.53645(8) 0.10157(14) -0.5688(3)
H1A H -0.5617(10) 0.1144(17) -0.502(3)
H2A H -0.5453(12) 0.0435(15) -0.637(3)
N1A N -0.56563(7) 0.30612(15) -1.1801(2)
O2A O -0.61073(6) 0.19768(13) -0.95325(19)
Ba1D Ba -0.5000 0.704160(12) -0.2500
Ba1D_2 Ba -0.5000 0.704160(12) -1.2500
O4D O -0.56620(7) 0.49709(13) -0.8252(2)
S2_2 S -0.409940(19) 0.38701(4) -1.14554(6)
N1_2 N -0.43437(7) 0.30612(15) -1.3199(2)
Ba1_2 Ba -0.5000 0.295840(12) -1.7500
S1_2 S -0.384860(19) 0.21258(4) -1.35023(6)
O4E O -0.43380(7) 0.49709(13) -0.6748(2)
O4_2 O -0.43380(7) 0.50291(13) -0.1748(2)
Ba1_3 Ba -0.5000 0.295840(12) 0.2500
O5A O -0.58389(6) 0.33437(13) -0.52732(19)
C2_2 C -0.33145(8) 0.38457(15) -1.1508(2)
C1_2 C -0.31764(8) 0.29038(14) -1.2521(2)
O2_2 O -0.38927(6) 0.19768(13) -1.54675(19)
O3_2 O -0.38605(7) 0.10566(12) -1.2477(2)
C6_2 C -0.25794(8) 0.26752(16) -1.2657(2)
C5_2 C -0.21296(8) 0.34366(18) -1.1796(3)
C4_2 C -0.22716(9) 0.43928(17) -1.0791(3)
C3_2 C -0.28669(8) 0.46015(16) -1.0615(2)
H3_2 H -0.2965 0.5240 -0.9909
H4_2 H -0.1957 0.4906 -1.0221
H5_2 H -0.1719 0.3305 -1.1891
H6_2 H -0.2481 0.2017 -1.3321
O5_2 O -0.41611(6) 0.33437(13) 0.02732(19)
loop_
_geom_bond_atom_site_label_1
_geom_bond_atom_site_label_2
_geom_bond_site_symmetry_1
_geom_bond_site_symmetry_2
Ba1 O1 1_555 1_555
O1 H1 1_555 1_555
H2 O1 1_555 1_555
N1 Ba1 1_555 1_555
S1 N1 1_555 1_555
S2 N1 1_555 1_555
O2 Ba1 1_555 1_555
O3 S1 1_555 1_555
O4 Ba1D_2 1_555 1_555
O5 Ba1 1_555 1_555
C1 S1 1_555 1_555
C2 S2 1_555 1_555
C3 C2 1_555 1_555
H3 C3 1_555 1_555
C4 C3 1_555 1_555
H4 C4 1_555 1_555
C5 C4 1_555 1_555
H5 C5 1_555 1_555
C6 C1 1_555 1_555
H6 C6 1_555 1_555
O1A Ba1 1_555 1_555
H1A O1A 1_555 1_555
H2A O1A 1_555 1_555
N1A Ba1 1_555 1_555
O2A Ba1 1_555 1_555
Ba1D O4_2 1_555 1_555
O4D Ba1 1_555 1_555
S2_2 O4 1_555 1_555
N1_2 S2_2 1_555 1_555
Ba1_2 N1_2 1_555 1_555
S1_2 N1_2 1_555 1_555
O4E Ba1 1_555 1_555
O4_2 S2 1_555 1_555
Ba1_3 O5_2 1_555 1_555
O5A Ba1 1_555 1_555
C2_2 S2_2 1_555 1_555
C1_2 S1_2 1_555 1_555
O2_2 Ba1_2 1_555 1_555
O3_2 S1_2 1_555 1_555
C6_2 C1_2 1_555 1_555
C5_2 C6_2 1_555 1_555
C4_2 C5_2 1_555 1_555
C3_2 C2_2 1_555 1_555
H3_2 C3_2 1_555 1_555
H4_2 C4_2 1_555 1_555
H5_2 C5_2 1_555 1_555
H6_2 C6_2 1_555 1_555
O5_2 S2 1_555 1_555
S1 O2 1_555 1_555
O5 S2_2 1_555 1_555
C1 C2 1_555 1_555
C5 C6 1_555 1_555
S1_2 O2_2 1_555 1_555
C2_2 C1_2 1_555 1_555
C4_2 C3_2 1_555 1_555

#END
