
#######################################################################
#
#                 Cambridge Crystallographic Data Centre
#                                CCDC 
#
#######################################################################
#
# If this CIF has been generated from an entry in the Cambridge 
# Structural Database, then it will include bibliographic, chemical, 
# crystal, experimental, refinement or atomic coordinate data resulting 
# from the CCDC's data processing and validation procedures.
#
#######################################################################

data_FAGBIZ
_symmetry_cell_setting           monoclinic
_symmetry_space_group_name_H-M   'C 2/c'
_symmetry_Int_Tables_number      15
_space_group_name_Hall           '-C 2yn'
loop_
_symmetry_equiv_pos_site_id
_symmetry_equiv_pos_as_xyz
1 x,y,z
2 1/2+x,1/2+y,z
3 x,-y,1/2+z
4 1/2+x,1/2-y,1/2+z
5 -x,-y,-z
6 1/2-x,1/2-y,-z
7 -x,y,1/2-z
8 1/2-x,1/2+y,1/2-z
_cell_length_a                   25.278(8)
_cell_length_b                   14.288(6)
_cell_length_c                   14.198(6)
_cell_angle_alpha                90
_cell_angle_beta                 99.97(3)
_cell_angle_gamma                90
_cell_volume                     5050.48
loop_
_atom_site_label
_atom_site_type_symbol
_atom_site_fract_x
_atom_site_fract_y
_atom_site_fract_z
Ag1 Ag 0.10302(2) 0.71031(4) 0.18541(3)
N1 N 0.1342(2) 0.7092(5) 0.3480(4)
C1 C 0.1565(3) 0.6347(6) 0.3946(5)
H1 H 0.1534 0.5774 0.3631
C2 C 0.1838(3) 0.6380(6) 0.4874(5)
H2 H 0.1991 0.5838 0.5166
C3 C 0.1888(3) 0.7210(6) 0.5369(5)
C4 C 0.1656(3) 0.7985(7) 0.4889(5)
H3 H 0.1677 0.8564 0.5194
C5 C 0.1392(3) 0.7906(6) 0.3958(5)
H4 H 0.1242 0.8441 0.3647
C6 C 0.2219(3) 0.7298(7) 0.6352(4)
H5 H 0.2406 0.7894 0.6395
H6 H 0.2488 0.6807 0.6436
C7 C 0.1897(2) 0.7238(6) 0.7161(3)
H7 H 0.1707 0.6646 0.7129
H8 H 0.1634 0.7739 0.7100
C8 C 0.2275(2) 0.7319(6) 0.8116(4)
H9 H 0.2539 0.6821 0.8163
H10 H 0.2465 0.7910 0.8136
N2 N 0.14887(18) 0.7167(4) 1.0578(3)
C9 C 0.1677(3) 0.6415(5) 1.0199(5)
H11 H 0.1640 0.5840 1.0488
C10 C 0.1922(3) 0.6427(5) 0.9410(5)
H12 H 0.2042 0.5872 0.9177
C11 C 0.1990(2) 0.7264(5) 0.8963(4)
C12 C 0.1794(2) 0.8055(5) 0.9344(4)
H13 H 0.1830 0.8636 0.9068
C13 C 0.1546(2) 0.7986(5) 1.0132(4)
H14 H 0.1411 0.8528 1.0367
N3 N 0.0523(2) 0.5712(4) 0.1509(4)
C14 C 0.0811(3) 0.4919(5) 0.1547(5)
H15 H 0.1183 0.4964 0.1698
C15 C 0.0587(2) 0.4045(4) 0.1376(5)
H16 H 0.0808 0.3521 0.1403
C16 C 0.0040(2) 0.3945(4) 0.1166(4)
C17 C -0.0258(2) 0.4754(4) 0.1143(4)
H17 H -0.0631 0.4726 0.1015
C18 C -0.0004(2) 0.5605(4) 0.1310(4)
H18 H -0.0217 0.6139 0.1281
C19 C -0.0233(2) 0.3004(4) 0.0987(5)
H19 H -0.0403 0.2977 0.0320
H20 H -0.0516 0.2969 0.1367
C20 C 0.0120(2) 0.2142(3) 0.1203(4)
H21 H 0.0317 0.2181 0.1852
H22 H 0.0378 0.2121 0.0771
C21 C -0.0216(2) 0.1253(4) 0.1093(5)
H23 H -0.0474 0.1294 0.1523
H24 H -0.0417 0.1235 0.0446
N4 N 0.0578(2) -0.1416(3) 0.1638(4)
C22 C 0.0047(3) -0.1332(5) 0.1363(5)
H25 H -0.0160 -0.1873 0.1292
C23 C -0.0204(2) -0.0494(4) 0.1180(4)
H26 H -0.0574 -0.0480 0.0982
C24 C 0.0081(2) 0.0340(4) 0.1282(4)
C25 C 0.0630(2) 0.0246(4) 0.1565(5)
H27 H 0.0846 0.0776 0.1642
C26 C 0.0857(3) -0.0615(4) 0.1731(5)
H28 H 0.1227 -0.0650 0.1920
N2_2 N 0.14887(18) 0.7167(4) 0.0578(3)
Ag1_2 Ag 0.10302(2) 0.71031(4) 1.18541(3)
N4_2 N 0.0578(2) 0.8584(3) 0.1638(4)
Ag1_3 Ag 0.10302(2) -0.28969(4) 0.18541(3)
N5 N 0.2627(3) 0.5110(6) 0.2505(6)
O1 O 0.2842(4) 0.5147(7) 0.3328(7)
O2 O 0.2147(3) 0.5172(6) 0.2290(6)
O3 O 0.2910(4) 0.4994(7) 0.1918(8)
loop_
_geom_bond_atom_site_label_1
_geom_bond_atom_site_label_2
_geom_bond_site_symmetry_1
_geom_bond_site_symmetry_2
Ag1 N1 1_555 1_555
N1 C1 1_555 1_555
C1 H1 1_555 1_555
C2 C1 1_555 1_555
H2 C2 1_555 1_555
C3 C2 1_555 1_555
C4 C3 1_555 1_555
H3 C4 1_555 1_555
C5 N1 1_555 1_555
H4 C5 1_555 1_555
C6 C3 1_555 1_555
H5 C6 1_555 1_555
H6 C6 1_555 1_555
C7 C6 1_555 1_555
H7 C7 1_555 1_555
H8 C7 1_555 1_555
C8 C7 1_555 1_555
H9 C8 1_555 1_555
H10 C8 1_555 1_555
N2 C9 1_555 1_555
C9 H11 1_555 1_555
C10 C9 1_555 1_555
H12 C10 1_555 1_555
C11 C8 1_555 1_555
C12 C11 1_555 1_555
H13 C12 1_555 1_555
C13 N2 1_555 1_555
H14 C13 1_555 1_555
N3 Ag1 1_555 1_555
C14 N3 1_555 1_555
H15 C14 1_555 1_555
C15 C14 1_555 1_555
H16 C15 1_555 1_555
C16 C15 1_555 1_555
C17 C16 1_555 1_555
H17 C17 1_555 1_555
C18 N3 1_555 1_555
H18 C18 1_555 1_555
C19 C16 1_555 1_555
H19 C19 1_555 1_555
H20 C19 1_555 1_555
C20 C19 1_555 1_555
H21 C20 1_555 1_555
H22 C20 1_555 1_555
C21 C20 1_555 1_555
H23 C21 1_555 1_555
H24 C21 1_555 1_555
N4 C22 1_555 1_555
C22 H25 1_555 1_555
C23 C22 1_555 1_555
H26 C23 1_555 1_555
C24 C21 1_555 1_555
C25 C24 1_555 1_555
H27 C25 1_555 1_555
C26 N4 1_555 1_555
H28 C26 1_555 1_555
N5 O1 1_555 1_555
O2 N5 1_555 1_555
O3 N5 1_555 1_555
N2_2 Ag1 1_555 1_555
Ag1_2 N2 1_555 1_555
N4_2 Ag1 1_555 1_555
Ag1_3 N4 1_555 1_555
C4 C5 1_555 1_555
C10 C11 1_555 1_555
C12 C13 1_555 1_555
C17 C18 1_555 1_555
C23 C24 1_555 1_555
C25 C26 1_555 1_555

#END
