
#######################################################################
#
#                 Cambridge Crystallographic Data Centre
#                                CCDC 
#
#######################################################################
#
# If this CIF has been generated from an entry in the Cambridge 
# Structural Database, then it will include bibliographic, chemical, 
# crystal, experimental, refinement or atomic coordinate data resulting 
# from the CCDC's data processing and validation procedures.
#
#######################################################################

data_FAGBOF
_symmetry_cell_setting           tetragonal
_symmetry_space_group_name_H-M   'I 41/a c d'
_symmetry_Int_Tables_number      142
_space_group_name_Hall           '-I 4bd 2c'
loop_
_symmetry_equiv_pos_site_id
_symmetry_equiv_pos_as_xyz
1 x,y,z
2 1/4-y,1/4-x,1/4-z
3 3/4+y,1/4+x,1/4-z
4 1/4+y,1/4-x,3/4+z
5 1/4-y,3/4+x,1/4+z
6 1/2+x,1/2+y,1/2+z
7 1/4+y,3/4+x,3/4-z
8 3/4+y,3/4-x,1/4+z
9 3/4-y,1/4+x,3/4+z
10 x,1/2+y,-z
11 -x,y,1/2+z
12 1/2+x,-y,z
13 1/2+x,y,1/2-z
14 1/2-x,1/2+y,z
15 x,1/2-y,1/2+z
16 1/4+y,1/4+x,1/4+z
17 -x,-y,-z
18 3/4+y,3/4+x,3/4+z
19 1/4-y,3/4-x,3/4+z
20 3/4-y,3/4+x,1/4-z
21 3/4+y,1/4-x,3/4-z
22 1/2-x,1/2-y,1/2-z
23 3/4-y,1/4-x,1/4+z
24 1/4-y,1/4+x,3/4-z
25 1/4+y,3/4-x,1/4-z
26 -x,1/2-y,z
27 x,-y,1/2-z
28 1/2-x,y,-z
29 1/2-x,-y,1/2+z
30 1/2+x,1/2-y,-z
31 -x,1/2+y,1/2-z
32 3/4-y,3/4-x,3/4-z
_cell_length_a                   14.703(4)
_cell_length_b                   14.703(4)
_cell_length_c                   24.304(4)
_cell_angle_alpha                90
_cell_angle_beta                 90
_cell_angle_gamma                90
_cell_volume                     5254
loop_
_atom_site_label
_atom_site_type_symbol
_atom_site_fract_x
_atom_site_fract_y
_atom_site_fract_z
Ag1 Ag 1.0000 0.2500 0.3750
N1 N 0.8827(3) 0.1945(3) 0.32092(15)
C1 C 0.9005(3) 0.1581(3) 0.27211(18)
H1 H 0.9602 0.1596 0.2596
C2 C 0.8362(3) 0.1184(3) 0.23913(19)
H2 H 0.8529 0.0929 0.2056
C3 C 0.7467(5) 0.1165(3) 0.2559(2)
C4 C 0.7272(3) 0.1554(3) 0.30629(18)
H3 H 0.6679 0.1557 0.3197
C5 C 0.7958(4) 0.1935(3) 0.33611(19)
H4 H 0.7808 0.2206 0.3695
C6 C 0.6748(4) 0.0725(4) 0.22088(18)
H5 H 0.7039 0.0450 0.1892
H6 H 0.6341 0.1195 0.2074
C7 C 0.6181(6) 0.0000 0.2500
H7 H 0.5792 0.0294 0.2768
H8 H 0.5792 -0.0294 0.2232
N1T N 0.9445(3) 0.3673(3) 0.42908(15)
N1W N 1.0555(3) 0.1327(3) 0.42908(15)
N1Y N 1.1173(3) 0.3055(3) 0.32092(15)
C6Z C 0.6748(4) -0.0725(4) 0.27912(18)
C3Z C 0.7467(5) -0.1165(3) 0.2441(2)
H5Z H 0.7039 -0.0450 0.3108
H6Z H 0.6341 -0.1195 0.2926
C2Z C 0.8362(3) -0.1184(3) 0.26087(19)
C4Z C 0.7272(3) -0.1554(3) 0.19371(18)
C1Z C 0.9005(3) -0.1581(3) 0.22789(18)
H2Z H 0.8529 -0.0929 0.2944
H3Z H 0.6679 -0.1557 0.1803
C5Z C 0.7958(4) -0.1935(3) 0.16389(19)
N1Z N 0.8827(3) -0.1945(3) 0.17908(15)
H1Z H 0.9602 -0.1596 0.2404
H4Z H 0.7808 -0.2206 0.1305
Ag1Q Ag 1.0000 -0.2500 0.1250
C1T C 0.9081(3) 0.3495(3) 0.47789(18)
C5T C 0.9435(3) 0.4542(4) 0.41389(19)
H1T H 0.9096 0.2898 0.4904
C2T C 0.8684(3) 0.4138(3) 0.51087(19)
C4T C 0.9054(3) 0.5228(3) 0.44371(18)
H4T H 0.9706 0.4692 0.3805
H2T H 0.8429 0.3971 0.5444
C3T C 0.8665(3) 0.5033(5) 0.4941(2)
H3T H 0.9057 0.5821 0.4303
C6T C 0.8225(4) 0.5752(4) 0.52912(18)
H5T H 0.7950 0.5461 0.5608
H6T H 0.8695 0.6159 0.5426
C7T C 0.7500 0.6319(6) 0.5000
C6V C 0.6775(4) 0.5752(4) 0.47088(18)
H7T H 0.7794 0.6708 0.4732
H7V H 0.7206 0.6708 0.5268
C3V C 0.6335(3) 0.5033(5) 0.5059(2)
H5V H 0.7050 0.5461 0.4392
H6V H 0.6305 0.6159 0.4574
C2V C 0.6316(3) 0.4138(3) 0.48913(19)
C4V C 0.5946(3) 0.5228(3) 0.55629(18)
C1V C 0.5919(3) 0.3495(3) 0.52211(18)
H2V H 0.6571 0.3971 0.4556
H3V H 0.5943 0.5821 0.5697
C5V C 0.5565(3) 0.4542(4) 0.58611(19)
N1V N 0.5555(3) 0.3673(3) 0.57092(15)
H1V H 0.5904 0.2898 0.5096
H4V H 0.5294 0.4692 0.6195
Ag1O Ag 0.5000 0.2500 0.6250
B1 B 1.0000 0.2500 0.1250
F1 F 1.0762(2) 0.2489(3) 0.09362(12)
F1A F 1.0011(3) 0.1738(2) 0.15638(12)
F1B F 0.9989(3) 0.3262(2) 0.15638(12)
F1Y F 0.9238(2) 0.2511(3) 0.09362(12)
loop_
_geom_bond_atom_site_label_1
_geom_bond_atom_site_label_2
_geom_bond_site_symmetry_1
_geom_bond_site_symmetry_2
Ag1 N1 1_555 1_555
N1 C1 1_555 1_555
C1 H1 1_555 1_555
C2 C1 1_555 1_555
H2 C2 1_555 1_555
C3 C2 1_555 1_555
C4 C3 1_555 1_555
H3 C4 1_555 1_555
C5 N1 1_555 1_555
H4 C5 1_555 1_555
C6 C3 1_555 1_555
H5 C6 1_555 1_555
H6 C6 1_555 1_555
C7 C6 1_555 1_555
H7 C7 1_555 1_555
H8 C7 1_555 1_555
B1 F1 1_555 1_555
N1T Ag1 1_555 1_555
N1W Ag1 1_555 1_555
N1Y Ag1 1_555 1_555
C6Z C7 1_555 1_555
F1A B1 1_555 1_555
F1B B1 1_555 1_555
F1Y B1 1_555 1_555
C3Z C6Z 1_555 1_555
H5Z C6Z 1_555 1_555
H6Z C6Z 1_555 1_555
C2Z C3Z 1_555 1_555
C4Z C3Z 1_555 1_555
C1Z C2Z 1_555 1_555
H2Z C2Z 1_555 1_555
H3Z C4Z 1_555 1_555
C5Z C4Z 1_555 1_555
N1Z C1Z 1_555 1_555
H1Z C1Z 1_555 1_555
H4Z C5Z 1_555 1_555
Ag1Q N1Z 1_555 1_555
C1T N1T 1_555 1_555
C5T N1T 1_555 1_555
H1T C1T 1_555 1_555
C2T C1T 1_555 1_555
C4T C5T 1_555 1_555
H4T C5T 1_555 1_555
H2T C2T 1_555 1_555
C3T C2T 1_555 1_555
H3T C4T 1_555 1_555
C6T C3T 1_555 1_555
H5T C6T 1_555 1_555
H6T C6T 1_555 1_555
C7T C6T 1_555 1_555
C6V C7T 1_555 1_555
H7T C7T 1_555 1_555
H7V C7T 1_555 1_555
C3V C6V 1_555 1_555
H5V C6V 1_555 1_555
H6V C6V 1_555 1_555
C2V C3V 1_555 1_555
C4V C3V 1_555 1_555
C1V C2V 1_555 1_555
H2V C2V 1_555 1_555
H3V C4V 1_555 1_555
C5V C4V 1_555 1_555
N1V C1V 1_555 1_555
H1V C1V 1_555 1_555
H4V C5V 1_555 1_555
Ag1O N1V 1_555 1_555
C4 C5 1_555 1_555
C5Z N1Z 1_555 1_555
C4T C3T 1_555 1_555
C5V N1V 1_555 1_555

#END
