
#######################################################################
#
#                 Cambridge Crystallographic Data Centre
#                                CCDC 
#
#######################################################################
#
# If this CIF has been generated from an entry in the Cambridge 
# Structural Database, then it will include bibliographic, chemical, 
# crystal, experimental, refinement or atomic coordinate data resulting 
# from the CCDC's data processing and validation procedures.
#
#######################################################################

data_FAGBUL
_symmetry_cell_setting           tetragonal
_symmetry_space_group_name_H-M   'I 41/a c d'
_symmetry_Int_Tables_number      142
_space_group_name_Hall           '-I 4bd 2c'
loop_
_symmetry_equiv_pos_site_id
_symmetry_equiv_pos_as_xyz
1 x,y,z
2 1/4-y,1/4-x,1/4-z
3 3/4+y,1/4+x,1/4-z
4 1/4+y,1/4-x,3/4+z
5 1/4-y,3/4+x,1/4+z
6 1/2+x,1/2+y,1/2+z
7 1/4+y,3/4+x,3/4-z
8 3/4+y,3/4-x,1/4+z
9 3/4-y,1/4+x,3/4+z
10 x,1/2+y,-z
11 -x,y,1/2+z
12 1/2+x,-y,z
13 1/2+x,y,1/2-z
14 1/2-x,1/2+y,z
15 x,1/2-y,1/2+z
16 1/4+y,1/4+x,1/4+z
17 -x,-y,-z
18 3/4+y,3/4+x,3/4+z
19 1/4-y,3/4-x,3/4+z
20 3/4-y,3/4+x,1/4-z
21 3/4+y,1/4-x,3/4-z
22 1/2-x,1/2-y,1/2-z
23 3/4-y,1/4-x,1/4+z
24 1/4-y,1/4+x,3/4-z
25 1/4+y,3/4-x,1/4-z
26 -x,1/2-y,z
27 x,-y,1/2-z
28 1/2-x,y,-z
29 1/2-x,-y,1/2+z
30 1/2+x,1/2-y,-z
31 -x,1/2+y,1/2-z
32 3/4-y,3/4-x,3/4-z
_cell_length_a                   14.734(2)
_cell_length_b                   14.734(2)
_cell_length_c                   24.784(4)
_cell_angle_alpha                90
_cell_angle_beta                 90
_cell_angle_gamma                90
_cell_volume                     5380.38
loop_
_atom_site_label
_atom_site_type_symbol
_atom_site_fract_x
_atom_site_fract_y
_atom_site_fract_z
Ag1 Ag 0.0000 -0.2500 0.1250
N1 N -0.1162(3) 0.1924(3) 0.32153(16)
C1 C -0.0985(4) 0.1576(4) 0.2728(2)
H1 H -0.0391 0.1603 0.2601
C2 C -0.1622(3) 0.1184(3) 0.2407(2)
H2 H -0.1456 0.0935 0.2077
C3 C -0.2514(5) 0.1156(4) 0.2571(2)
C4 C -0.2712(3) 0.1532(4) 0.3067(2)
H3 H -0.3305 0.1527 0.3196
C5 C -0.2032(4) 0.1912(4) 0.3369(2)
H4 H -0.2183 0.2176 0.3698
C6 C -0.3230(4) 0.0729(4) 0.2220(2)
H5 H -0.2937 0.0461 0.1907
H6 H -0.3633 0.1202 0.2091
C7 C -0.3795(6) 0.0000 0.2500
H7 H -0.4184 -0.0289 0.2235
H8 H -0.4184 0.0289 0.2765
C6Z C -0.3230(4) -0.0729(4) 0.2780(2)
C3Z C -0.2514(5) -0.1156(4) 0.2429(2)
C2Z C -0.1622(3) -0.1184(3) 0.2593(2)
C1Z C -0.0985(4) -0.1576(4) 0.2272(2)
N1Z N -0.1162(3) -0.1924(3) 0.17847(16)
Ag1O Ag 0.0000 0.2500 0.3750
N1Q N -0.0576(3) -0.3662(3) 0.07153(16)
C1Q C -0.0924(4) -0.3485(4) 0.0228(2)
H1Q H -0.0897 -0.2891 0.0101
C2Q C -0.1316(3) -0.4122(3) -0.0093(2)
H2Q H -0.1565 -0.3956 -0.0423
C3Q C -0.1344(4) -0.5014(5) 0.0071(2)
C4Q C -0.0968(4) -0.5212(3) 0.0567(2)
H3Q H -0.0973 -0.5805 0.0696
C5Q C -0.0588(4) -0.4532(4) 0.0869(2)
H4Q H -0.0324 -0.4683 0.1198
C6Q C -0.1771(4) -0.5730(4) -0.0280(2)
H5Q H -0.2039 -0.5437 -0.0593
H6Q H -0.1298 -0.6133 -0.0409
C7Q C -0.2500 -0.6295(6) 0.0000
C6S C -0.3229(4) -0.5730(4) 0.0280(2)
C3S C -0.3656(4) -0.5014(5) -0.0071(2)
C2S C -0.3684(3) -0.4122(3) 0.0093(2)
C1S C -0.4076(4) -0.3485(4) -0.0228(2)
N1S N -0.4424(3) -0.3662(3) -0.07153(16)
Ag1Q Ag -0.5000 -0.2500 -0.1250
C5S C -0.4412(4) -0.4532(4) -0.0869(2)
C4S C -0.4032(4) -0.5212(3) -0.0567(2)
H3S H -0.4027 -0.5805 -0.0696
H4S H -0.4676 -0.4683 -0.1198
H1S H -0.4103 -0.2891 -0.0101
H2S H -0.3435 -0.3956 0.0423
H5S H -0.2961 -0.5437 0.0593
H6S H -0.3702 -0.6133 0.0409
H7Q H -0.2789 -0.6684 -0.0265
H7S H -0.2211 -0.6684 0.0265
N1R N 0.0576(3) -0.1338(3) 0.07153(16)
N1DA N 0.1162(3) -0.3076(3) 0.17847(16)
C5Z C -0.2032(4) -0.1912(4) 0.1631(2)
C4Z C -0.2712(3) -0.1532(4) 0.1933(2)
H3Z H -0.3305 -0.1527 0.1804
H4Z H -0.2183 -0.2176 0.1302
H1Z H -0.0391 -0.1603 0.2399
H2Z H -0.1456 -0.0935 0.2923
H5Z H -0.2937 -0.0461 0.3093
H6Z H -0.3633 -0.1202 0.2909
Cl1 Cl 0.0000 0.2500 0.1250
O1 O 0.0788(3) 0.2495(4) 0.09299(18)
O1A O 0.0005(4) 0.1712(3) 0.15701(18)
O1B O -0.0005(4) 0.3288(3) 0.15701(18)
O1Y O -0.0788(3) 0.2505(4) 0.09299(18)
loop_
_geom_bond_atom_site_label_1
_geom_bond_atom_site_label_2
_geom_bond_site_symmetry_1
_geom_bond_site_symmetry_2
Ag1 N1Z 1_555 1_555
N1 C1 1_555 1_555
C1 H1 1_555 1_555
C2 C1 1_555 1_555
H2 C2 1_555 1_555
C3 C2 1_555 1_555
C4 C3 1_555 1_555
H3 C4 1_555 1_555
C5 N1 1_555 1_555
H4 C5 1_555 1_555
C6 C3 1_555 1_555
H5 C6 1_555 1_555
H6 C6 1_555 1_555
C7 C6 1_555 1_555
H7 C7 1_555 1_555
H8 C7 1_555 1_555
Cl1 O1 1_555 1_555
C6Z C7 1_555 1_555
C3Z C6Z 1_555 1_555
C2Z C3Z 1_555 1_555
C1Z C2Z 1_555 1_555
N1Z C1Z 1_555 1_555
Ag1O N1 1_555 1_555
N1Q Ag1 1_555 1_555
C1Q N1Q 1_555 1_555
H1Q C1Q 1_555 1_555
C2Q C1Q 1_555 1_555
H2Q C2Q 1_555 1_555
C3Q C2Q 1_555 1_555
C4Q C3Q 1_555 1_555
H3Q C4Q 1_555 1_555
C5Q N1Q 1_555 1_555
H4Q C5Q 1_555 1_555
C6Q C3Q 1_555 1_555
H5Q C6Q 1_555 1_555
H6Q C6Q 1_555 1_555
C7Q C6Q 1_555 1_555
C6S C7Q 1_555 1_555
C3S C6S 1_555 1_555
C2S C3S 1_555 1_555
C1S C2S 1_555 1_555
N1S C1S 1_555 1_555
Ag1Q N1S 1_555 1_555
C5S N1S 1_555 1_555
C4S C3S 1_555 1_555
H3S C4S 1_555 1_555
H4S C5S 1_555 1_555
H1S C1S 1_555 1_555
H2S C2S 1_555 1_555
H5S C6S 1_555 1_555
H6S C6S 1_555 1_555
H7Q C7Q 1_555 1_555
H7S C7Q 1_555 1_555
N1R Ag1 1_555 1_555
N1DA Ag1 1_555 1_555
C5Z N1Z 1_555 1_555
C4Z C3Z 1_555 1_555
H3Z C4Z 1_555 1_555
H4Z C5Z 1_555 1_555
H1Z C1Z 1_555 1_555
H2Z C2Z 1_555 1_555
H5Z C6Z 1_555 1_555
H6Z C6Z 1_555 1_555
O1A Cl1 1_555 1_555
O1B Cl1 1_555 1_555
O1Y Cl1 1_555 1_555
C4 C5 1_555 1_555
C4Q C5Q 1_555 1_555
C5S C4S 1_555 1_555
C5Z C4Z 1_555 1_555

#END
