
#######################################################################
#
#                 Cambridge Crystallographic Data Centre
#                                CCDC 
#
#######################################################################
#
# If this CIF has been generated from an entry in the Cambridge 
# Structural Database, then it will include bibliographic, chemical, 
# crystal, experimental, refinement or atomic coordinate data resulting 
# from the CCDC's data processing and validation procedures.
#
#######################################################################

data_FAGCAS
_symmetry_cell_setting           monoclinic
_symmetry_space_group_name_H-M   'C 2'
_symmetry_Int_Tables_number      5
_space_group_name_Hall           'C 2y'
loop_
_symmetry_equiv_pos_site_id
_symmetry_equiv_pos_as_xyz
1 x,y,z
2 -x,y,-z
3 1/2+x,1/2+y,z
4 1/2-x,1/2+y,-z
_cell_length_a                   22.988(4)
_cell_length_b                   14.452(4)
_cell_length_c                   12.882(5)
_cell_angle_alpha                90
_cell_angle_beta                 96.20(2)
_cell_angle_gamma                90
_cell_volume                     4254.66
loop_
_atom_site_label
_atom_site_type_symbol
_atom_site_fract_x
_atom_site_fract_y
_atom_site_fract_z
Ag1 Ag -1.0000 -0.5868(5) 0.0000
N1 N -0.5517(7) -0.2101(14) -0.1082(13)
C1 C -0.5729(9) -0.2772(15) -0.054(2)
H1 H -0.5593 -0.2836 0.0166
C2 C -0.6145(10) -0.3374(18) -0.0976(15)
H2 H -0.6280 -0.3847 -0.0575
C3 C -0.6363(8) -0.3284(14) -0.2004(15)
C4 C -0.6120(8) -0.2601(12) -0.2555(16)
H3 H -0.6225 -0.2552 -0.3271
C5 C -0.5726(8) -0.1988(15) -0.2070(13)
H4 H -0.5603 -0.1485 -0.2441
C6 C -0.6808(9) -0.3931(18) -0.2516(17)
H5 H -0.6633 -0.4539 -0.2557
H6 H -0.6923 -0.3720 -0.3224
C7 C -0.7346(9) -0.401(2) -0.195(2)
H7 H -0.7237 -0.4256 -0.1255
H8 H -0.7512 -0.3399 -0.1876
C8 C -0.7801(9) -0.463(2) -0.2519(19)
H9 H -0.7932 -0.4344 -0.3185
H10 H -0.7616 -0.5211 -0.2663
C9 C -0.9103(7) -0.5860(14) -0.1599(16)
H11 H -0.9301 -0.6413 -0.1753
C10 C -0.8640(8) -0.5630(14) -0.2135(18)
H12 H -0.8535 -0.6039 -0.2640
C11 C -0.8325(8) -0.4830(13) -0.1967(15)
C12 C -0.8494(7) -0.4317(15) -0.1158(15)
H13 H -0.8278 -0.3794 -0.0942
C13 C -0.8970(7) -0.4545(13) -0.0655(16)
H14 H -0.9083 -0.4147 -0.0147
N2 N -0.9272(8) -0.5312(12) -0.0869(15)
Ag1B Ag -0.5000 -0.0868(5) 0.0000
N1B N -1.0517(7) -0.7101(14) -0.1082(13)
N1C N -0.9483(7) -0.7101(14) 0.1082(13)
C1C C -0.9271(9) -0.7772(15) 0.054(2)
H1C H -0.9407 -0.7836 -0.0166
C2C C -0.8855(10) -0.8374(18) 0.0976(15)
H2C H -0.8720 -0.8847 0.0575
C3C C -0.8637(8) -0.8284(14) 0.2004(15)
C4C C -0.8880(8) -0.7601(12) 0.2555(16)
H3C H -0.8775 -0.7552 0.3271
C5C C -0.9274(8) -0.6988(15) 0.2070(13)
H4C H -0.9397 -0.6485 0.2441
C6C C -0.8192(9) -0.8931(18) 0.2516(17)
H5C H -0.8367 -0.9539 0.2557
H6C H -0.8077 -0.8720 0.3224
C7C C -0.7654(9) -0.901(2) 0.195(2)
H7C H -0.7763 -0.9256 0.1255
H8C H -0.7488 -0.8399 0.1876
C8C C -0.7199(9) -0.963(2) 0.2519(19)
H9C H -0.7068 -0.9344 0.3185
H10C H -0.7384 -1.0211 0.2663
C11C C -0.6675(8) -0.9830(13) 0.1967(15)
C10C C -0.6360(8) -1.0630(14) 0.2135(18)
C9C C -0.5897(7) -1.0860(14) 0.1599(16)
H11C H -0.5699 -1.1413 0.1753
N2C N -0.5728(8) -1.0312(12) 0.0869(15)
Ag1B_2 Ag -0.5000 -1.0868(5) 0.0000
C13C C -0.6030(7) -0.9545(13) 0.0655(16)
C12C C -0.6506(7) -0.9317(15) 0.1158(15)
H13C H -0.6722 -0.8794 0.0942
H14C H -0.5917 -0.9147 0.0147
H12C H -0.6465 -1.1039 0.2640
N2A N -1.0728(8) -0.5312(12) 0.0869(15)
Ag2 Ag -0.34361(8) -0.7208(5) -0.50905(16)
N3 N -0.7745(7) -0.2783(14) -0.6071(13)
C14 C -0.7254(7) -0.3127(18) -0.5597(19)
H15 H -0.7224 -0.3152 -0.4872
C15 C -0.6786(11) -0.345(2) -0.6060(17)
H16 H -0.6484 -0.3775 -0.5678
C16 C -0.6778(7) -0.3286(18) -0.7105(16)
C17 C -0.7283(6) -0.2926(15) -0.7609(16)
H17 H -0.7315 -0.2867 -0.8331
C18 C -0.7741(9) -0.2651(18) -0.7085(14)
H18 H -0.8060 -0.2362 -0.7456
C19 C -0.6272(11) -0.353(2) -0.767(2)
H19 H -0.6064 -0.2959 -0.7782
H20 H -0.6423 -0.3763 -0.8348
C20 C -0.5837(9) -0.4211(18) -0.7182(18)
H21 H -0.6023 -0.4813 -0.7192
H22 H -0.5737 -0.4040 -0.6456
C21 C -0.5278(10) -0.430(2) -0.769(2)
H23 H -0.5380 -0.4506 -0.8401
H24 H -0.5109 -0.3685 -0.7722
C22 C -0.4167(10) -0.617(2) -0.7153(17)
H25 H -0.3980 -0.6602 -0.7539
C23 C -0.4586(10) -0.5639(15) -0.770(2)
H26 H -0.4708 -0.5762 -0.8400
C24 C -0.4822(9) -0.4920(15) -0.7195(17)
C25 C -0.4606(10) -0.482(2) -0.6168(18)
H27 H -0.4740 -0.4331 -0.5788
C26 C -0.4200(12) -0.5413(16) -0.568(2)
H28 H -0.4059 -0.5295 -0.4992
N4 N -0.3996(9) -0.6145(14) -0.6141(16)
N5 N -0.2769(7) -0.6230(14) -0.4013(14)
C27 C -0.2381(8) -0.5790(19) -0.4516(19)
H29 H -0.2420 -0.5777 -0.5242
C28 C -0.1921(11) -0.5355(19) -0.3954(16)
H30 H -0.1626 -0.5136 -0.4330
C29 C -0.1847(7) -0.5207(15) -0.2897(15)
C30 C -0.2277(8) -0.5676(16) -0.2457(19)
H31 H -0.2254 -0.5680 -0.1732
C31 C -0.2736(10) -0.6141(17) -0.2987(15)
H32 H -0.3025 -0.6395 -0.2623
C32 C -0.1361(8) -0.4710(16) -0.2299(15)
H33 H -0.1177 -0.5133 -0.1779
H34 H -0.1528 -0.4209 -0.1927
C33 C -0.0888(8) -0.4309(17) -0.2882(16)
H35 H -0.0768 -0.4778 -0.3353
H36 H -0.1055 -0.3801 -0.3307
C34 C -0.0353(8) -0.3961(18) -0.2234(17)
H37 H -0.0468 -0.3485 -0.1766
H38 H -0.0183 -0.4466 -0.1807
C35 C 0.0741(9) -0.241(2) -0.327(2)
H39 H 0.0876 -0.1810 -0.3151
C36 C 0.0340(10) -0.2720(14) -0.264(2)
H40 H 0.0234 -0.2360 -0.2093
C37 C 0.0099(9) -0.3577(13) -0.2839(17)
C38 C 0.0332(10) -0.4093(17) -0.3585(17)
H41 H 0.0198 -0.4693 -0.3716
C39 C 0.0758(10) -0.3746(19) -0.4142(19)
H42 H 0.0916 -0.4132 -0.4617
N6 N 0.0962(8) -0.2862(15) -0.4032(15)
Ag2B Ag -0.84361(8) -0.2208(5) -0.50905(16)
N3B N -0.2745(7) -0.7783(14) -0.6071(13)
Ag2B_2 Ag 0.15639(8) -0.2208(5) -0.50905(16)
N6B N -0.4038(8) -0.7862(15) -0.4032(15)
As1 As -0.15525(15) -0.1377(8) -0.9956(2)
F1 F -0.1251(8) -0.2330(12) -1.0404(15)
F2 F -0.0926(7) -0.0807(15) -1.0031(15)
F3 F -0.1317(8) -0.1680(15) -0.8740(10)
F4 F -0.2172(7) -0.1944(15) -0.9876(15)
F5 F -0.1780(8) -0.1072(16) -1.1175(10)
F6 F -0.1850(9) -0.0419(12) -0.9518(15)
As2 As 0.0000 -0.6835(7) -0.5000
F13 F -0.0481(4) -0.6032(10) -0.4753(14)
F14 F -0.0462(4) -0.7662(10) -0.4693(13)
F15 F -0.0284(8) -0.6896(14) -0.6244(9)
F13A F 0.0481(4) -0.6032(10) -0.5247(14)
F14A F 0.0462(4) -0.7662(10) -0.5307(13)
F15A F 0.0284(8) -0.6896(14) -0.3756(9)
F7? F -0.173(2) -0.213(3) -0.905(3)
F8? F -0.2252(10) -0.107(4) -1.018(4)
F9? F -0.144(2) -0.056(3) -0.904(3)
F10? F -0.0852(10) -0.169(4) -0.973(4)
F11? F -0.166(2) -0.219(3) -1.087(3)
F12? F -0.138(2) -0.063(3) -1.085(3)
loop_
_geom_bond_atom_site_label_1
_geom_bond_atom_site_label_2
_geom_bond_site_symmetry_1
_geom_bond_site_symmetry_2
Ag1 N2 1_555 1_555
N1 C1 1_555 1_555
C1 H1 1_555 1_555
C2 C1 1_555 1_555
H2 C2 1_555 1_555
C3 C2 1_555 1_555
C4 C3 1_555 1_555
H3 C4 1_555 1_555
C5 N1 1_555 1_555
H4 C5 1_555 1_555
C6 C3 1_555 1_555
H5 C6 1_555 1_555
H6 C6 1_555 1_555
C7 C6 1_555 1_555
H7 C7 1_555 1_555
H8 C7 1_555 1_555
C8 C7 1_555 1_555
H9 C8 1_555 1_555
H10 C8 1_555 1_555
C9 H11 1_555 1_555
C10 C9 1_555 1_555
H12 C10 1_555 1_555
C11 C8 1_555 1_555
C12 C11 1_555 1_555
H13 C12 1_555 1_555
C13 C12 1_555 1_555
H14 C13 1_555 1_555
N2 C9 1_555 1_555
Ag2 N4 1_555 1_555
N3 C14 1_555 1_555
C14 H15 1_555 1_555
C15 C14 1_555 1_555
H16 C15 1_555 1_555
C16 C15 1_555 1_555
C17 C16 1_555 1_555
H17 C17 1_555 1_555
C18 N3 1_555 1_555
H18 C18 1_555 1_555
C19 C16 1_555 1_555
H19 C19 1_555 1_555
H20 C19 1_555 1_555
C20 C19 1_555 1_555
H21 C20 1_555 1_555
H22 C20 1_555 1_555
C21 C20 1_555 1_555
H23 C21 1_555 1_555
H24 C21 1_555 1_555
C22 H25 1_555 1_555
C23 C22 1_555 1_555
H26 C23 1_555 1_555
C24 C21 1_555 1_555
C25 C24 1_555 1_555
H27 C25 1_555 1_555
C26 C25 1_555 1_555
H28 C26 1_555 1_555
N4 C22 1_555 1_555
N5 Ag2 1_555 1_555
C27 N5 1_555 1_555
H29 C27 1_555 1_555
C28 C27 1_555 1_555
H30 C28 1_555 1_555
C29 C28 1_555 1_555
C30 C29 1_555 1_555
H31 C30 1_555 1_555
C31 N5 1_555 1_555
H32 C31 1_555 1_555
C32 C29 1_555 1_555
H33 C32 1_555 1_555
H34 C32 1_555 1_555
C33 C32 1_555 1_555
H35 C33 1_555 1_555
H36 C33 1_555 1_555
C34 C33 1_555 1_555
H37 C34 1_555 1_555
H38 C34 1_555 1_555
C35 H39 1_555 1_555
C36 C35 1_555 1_555
H40 C36 1_555 1_555
C37 C34 1_555 1_555
C38 C37 1_555 1_555
H41 C38 1_555 1_555
C39 C38 1_555 1_555
H42 C39 1_555 1_555
N6 C35 1_555 1_555
As1 F1 1_555 1_555
F2 As1 1_555 1_555
F3 As1 1_555 1_555
F4 As1 1_555 1_555
F5 As1 1_555 1_555
F6 As1 1_555 1_555
As2 F13 1_555 1_555
F14 As2 1_555 1_555
F15 As2 1_555 1_555
Ag1B N1 1_555 1_555
N1B Ag1 1_555 1_555
N1C Ag1 1_555 1_555
C1C N1C 1_555 1_555
H1C C1C 1_555 1_555
C2C C1C 1_555 1_555
H2C C2C 1_555 1_555
C3C C2C 1_555 1_555
C4C C3C 1_555 1_555
H3C C4C 1_555 1_555
C5C N1C 1_555 1_555
H4C C5C 1_555 1_555
C6C C3C 1_555 1_555
H5C C6C 1_555 1_555
H6C C6C 1_555 1_555
C7C C6C 1_555 1_555
H7C C7C 1_555 1_555
H8C C7C 1_555 1_555
C8C C7C 1_555 1_555
H9C C8C 1_555 1_555
H10C C8C 1_555 1_555
C11C C8C 1_555 1_555
C10C C11C 1_555 1_555
C9C C10C 1_555 1_555
H11C C9C 1_555 1_555
N2C C9C 1_555 1_555
Ag1B_2 N2C 1_555 1_555
C13C N2C 1_555 1_555
C12C C11C 1_555 1_555
H13C C12C 1_555 1_555
H14C C13C 1_555 1_555
H12C C10C 1_555 1_555
N2A Ag1 1_555 1_555
Ag2B N3 1_555 1_555
N3B Ag2 1_555 1_555
Ag2B_2 N6 1_555 1_555
N6B Ag2 1_555 1_555
F13A As2 1_555 1_555
F14A As2 1_555 1_555
F15A As2 1_555 1_555
C4 C5 1_555 1_555
C10 C11 1_555 1_555
C13 N2 1_555 1_555
C17 C18 1_555 1_555
C23 C24 1_555 1_555
C26 N4 1_555 1_555
C30 C31 1_555 1_555
C36 C37 1_555 1_555
C39 N6 1_555 1_555
C4C C5C 1_555 1_555
C13C C12C 1_555 1_555

#END
