
#######################################################################
#
#                 Cambridge Crystallographic Data Centre
#                                CCDC 
#
#######################################################################
#
# If this CIF has been generated from an entry in the Cambridge 
# Structural Database, then it will include bibliographic, chemical, 
# crystal, experimental, refinement or atomic coordinate data resulting 
# from the CCDC's data processing and validation procedures.
#
#######################################################################

data_FAGCEW
_symmetry_cell_setting           monoclinic
_symmetry_space_group_name_H-M   'C 2'
_symmetry_Int_Tables_number      5
_space_group_name_Hall           'C 2y'
loop_
_symmetry_equiv_pos_site_id
_symmetry_equiv_pos_as_xyz
1 x,y,z
2 -x,y,-z
3 1/2+x,1/2+y,z
4 1/2-x,1/2+y,-z
_cell_length_a                   23.073(7)
_cell_length_b                   14.339(6)
_cell_length_c                   12.784(2)
_cell_angle_alpha                90
_cell_angle_beta                 96.43(2)
_cell_angle_gamma                90
_cell_volume                     4202.9
loop_
_atom_site_label
_atom_site_type_symbol
_atom_site_fract_x
_atom_site_fract_y
_atom_site_fract_z
Ag1 Ag -1.0000 -0.5841(6) 0.0000
N1 N -0.5526(6) -0.2070(12) -0.1098(11)
C1 C -0.5730(8) -0.2737(13) -0.0532(17)
H1 H -0.5600 -0.2780 0.0181
C2 C -0.6131(8) -0.3370(15) -0.0981(12)
H2 H -0.6243 -0.3861 -0.0574
C3 C -0.6374(7) -0.3301(11) -0.2012(11)
C4 C -0.6118(7) -0.2625(11) -0.2569(14)
H3 H -0.6224 -0.2585 -0.3292
C5 C -0.5712(7) -0.2004(13) -0.2108(11)
H4 H -0.5568 -0.1536 -0.2511
C6 C -0.6796(8) -0.3984(15) -0.2531(15)
H5 H -0.6619 -0.4598 -0.2514
H6 H -0.6896 -0.3809 -0.3262
C7 C -0.7347(8) -0.4017(17) -0.1978(18)
H7 H -0.7248 -0.4206 -0.1251
H8 H -0.7519 -0.3400 -0.1979
C8 C -0.7784(8) -0.4691(17) -0.2516(17)
H9 H -0.7915 -0.4456 -0.3214
H10 H -0.7592 -0.5284 -0.2599
C9 C -0.9113(7) -0.5873(14) -0.1618(15)
H11 H -0.9326 -0.6409 -0.1807
C10 C -0.8631(7) -0.5651(14) -0.2110(17)
H12 H -0.8516 -0.6075 -0.2597
C11 C -0.8305(7) -0.4851(12) -0.1940(14)
C12 C -0.8518(6) -0.4302(13) -0.1187(13)
H13 H -0.8334 -0.3735 -0.1025
C13 C -0.8984(6) -0.4539(11) -0.0659(14)
H14 H -0.9098 -0.4142 -0.0144
N2 N -0.9272(7) -0.5322(11) -0.0876(13)
Ag1B Ag -0.5000 -0.0841(6) 0.0000
N1B N -1.0526(6) -0.7070(12) -0.1098(11)
N1C N -0.9474(6) -0.7070(12) 0.1098(11)
C1C C -0.9270(8) -0.7737(13) 0.0532(17)
H1C H -0.9400 -0.7780 -0.0181
C2C C -0.8869(8) -0.8370(15) 0.0981(12)
H2C H -0.8757 -0.8861 0.0574
C3C C -0.8626(7) -0.8301(11) 0.2012(11)
C4C C -0.8882(7) -0.7625(11) 0.2569(14)
H3C H -0.8776 -0.7585 0.3292
C5C C -0.9288(7) -0.7004(13) 0.2108(11)
H4C H -0.9432 -0.6536 0.2511
C6C C -0.8204(8) -0.8984(15) 0.2531(15)
H5C H -0.8381 -0.9598 0.2514
H6C H -0.8104 -0.8809 0.3262
C7C C -0.7653(8) -0.9017(17) 0.1978(18)
H7C H -0.7752 -0.9206 0.1251
H8C H -0.7481 -0.8400 0.1979
C8C C -0.7216(8) -0.9691(17) 0.2516(17)
H9C H -0.7085 -0.9456 0.3214
H10C H -0.7408 -1.0284 0.2599
C11C C -0.6695(7) -0.9851(12) 0.1940(14)
C10C C -0.6369(7) -1.0651(14) 0.2110(17)
C9C C -0.5887(7) -1.0873(14) 0.1618(15)
H11C H -0.5674 -1.1409 0.1807
N2C N -0.5728(7) -1.0322(11) 0.0876(13)
Ag1B_2 Ag -0.5000 -1.0841(6) 0.0000
C13C C -0.6016(6) -0.9539(11) 0.0659(14)
C12C C -0.6482(6) -0.9302(13) 0.1187(13)
H13C H -0.6666 -0.8735 0.1025
H14C H -0.5902 -0.9142 0.0144
H12C H -0.6484 -1.1075 0.2597
N2A N -1.0728(7) -0.5322(11) 0.0876(13)
Ag2 Ag -0.34428(7) -0.7226(6) -0.51031(13)
N3 N -0.7737(6) -0.2794(13) -0.6089(12)
C14 C -0.7235(7) -0.3078(17) -0.5599(18)
H15 H -0.7189 -0.3046 -0.4868
C15 C -0.6775(10) -0.3418(19) -0.6081(14)
H16 H -0.6461 -0.3713 -0.5698
C16 C -0.6798(6) -0.3305(15) -0.7154(14)
C17 C -0.7288(6) -0.2895(15) -0.7669(15)
H17 H -0.7312 -0.2776 -0.8388
C18 C -0.7743(8) -0.2663(16) -0.7110(13)
H18 H -0.8074 -0.2398 -0.7474
C19 C -0.6283(8) -0.3527(17) -0.7716(17)
H19 H -0.6100 -0.2942 -0.7871
H20 H -0.6426 -0.3810 -0.8384
C20 C -0.5818(8) -0.4154(17) -0.7182(16)
H21 H -0.5697 -0.3905 -0.6486
H22 H -0.5989 -0.4763 -0.7090
C21 C -0.5283(8) -0.4284(17) -0.7737(16)
H23 H -0.5407 -0.4531 -0.8433
H24 H -0.5117 -0.3673 -0.7832
C22 C -0.4187(8) -0.6223(16) -0.7164(14)
H25 H -0.4033 -0.6708 -0.7530
C23 C -0.4584(8) -0.5642(12) -0.7718(16)
H26 H -0.4698 -0.5759 -0.8427
C24 C -0.4816(8) -0.4891(13) -0.7240(15)
C25 C -0.4631(10) -0.481(2) -0.6183(16)
H27 H -0.4791 -0.4350 -0.5786
C26 C -0.4210(10) -0.5398(13) -0.571(2)
H28 H -0.4055 -0.5260 -0.5027
N4 N -0.4007(7) -0.6143(12) -0.6153(13)
N5 N -0.2786(7) -0.6221(13) -0.4004(13)
C27 C -0.2386(8) -0.5811(17) -0.4501(17)
H29 H -0.2408 -0.5864 -0.5229
C28 C -0.1935(9) -0.5306(17) -0.3980(13)
H30 H -0.1668 -0.5026 -0.4374
C29 C -0.1861(6) -0.5198(13) -0.2905(12)
C30 C -0.2261(7) -0.5687(14) -0.2401(16)
H31 H -0.2224 -0.5708 -0.1670
C31 C -0.2716(9) -0.6145(17) -0.2971(14)
H32 H -0.2995 -0.6421 -0.2599
C32 C -0.1377(7) -0.4700(16) -0.2273(14)
H33 H -0.1196 -0.5123 -0.1742
H34 H -0.1540 -0.4185 -0.1910
C33 C -0.0906(7) -0.4320(15) -0.2903(15)
H35 H -0.0789 -0.4810 -0.3358
H36 H -0.1072 -0.3818 -0.3350
C34 C -0.0370(8) -0.3958(18) -0.2235(16)
H37 H -0.0489 -0.3471 -0.1778
H38 H -0.0206 -0.4462 -0.1788
C35 C 0.0773(7) -0.2447(17) -0.3263(16)
H39 H 0.0956 -0.1880 -0.3091
C36 C 0.0339(8) -0.2709(11) -0.2670(15)
H40 H 0.0212 -0.2308 -0.2171
C37 C 0.0096(7) -0.3580(10) -0.2836(13)
C38 C 0.0304(8) -0.4107(14) -0.3611(14)
H41 H 0.0149 -0.4698 -0.3760
C39 C 0.0737(8) -0.3779(16) -0.4171(16)
H42 H 0.0885 -0.4171 -0.4656
N6 N 0.0956(7) -0.2906(13) -0.4039(13)
Ag2B Ag -0.84428(7) -0.2226(6) -0.51031(13)
N3B N -0.2737(6) -0.7794(13) -0.6089(12)
Ag2B_2 Ag 0.15572(7) -0.2226(6) -0.51031(13)
N6B N -0.4044(7) -0.7906(13) -0.4039(13)
P1 P -0.1549(3) -0.1368(7) -0.9936(5)
F1 F -0.1271(7) -0.2260(11) -1.0398(13)
F2 F -0.0975(7) -0.0811(14) -1.0062(14)
F3 F -0.1294(8) -0.1658(14) -0.8802(10)
F4 F -0.2118(6) -0.1929(13) -0.9813(14)
F5 F -0.1802(8) -0.1089(14) -1.1082(10)
F6 F -0.1825(8) -0.0473(11) -0.9500(14)
P2 P 0.0000 -0.6835(7) -0.5000
F13 F -0.0432(4) -0.6067(9) -0.4706(12)
F14 F -0.0445(4) -0.7610(9) -0.4752(11)
F15 F -0.0266(7) -0.6842(12) -0.6174(8)
F13A F 0.0432(4) -0.6067(9) -0.5294(12)
F14A F 0.0445(4) -0.7610(9) -0.5248(11)
F15A F 0.0266(7) -0.6842(12) -0.3826(8)
F7? F -0.169(2) -0.205(2) -0.904(3)
F8? F -0.2214(8) -0.114(4) -1.018(3)
F9? F -0.148(2) -0.055(2) -0.912(3)
F10? F -0.0885(8) -0.161(4) -0.968(3)
F11? F -0.162(2) -0.220(2) -1.074(3)
F12? F -0.141(2) -0.069(2) -1.083(3)
loop_
_geom_bond_atom_site_label_1
_geom_bond_atom_site_label_2
_geom_bond_site_symmetry_1
_geom_bond_site_symmetry_2
Ag1 N2 1_555 1_555
N1 C1 1_555 1_555
C1 H1 1_555 1_555
C2 C1 1_555 1_555
H2 C2 1_555 1_555
C3 C2 1_555 1_555
C4 C3 1_555 1_555
H3 C4 1_555 1_555
C5 N1 1_555 1_555
H4 C5 1_555 1_555
C6 C3 1_555 1_555
H5 C6 1_555 1_555
H6 C6 1_555 1_555
C7 C6 1_555 1_555
H7 C7 1_555 1_555
H8 C7 1_555 1_555
C8 C7 1_555 1_555
H9 C8 1_555 1_555
H10 C8 1_555 1_555
C9 H11 1_555 1_555
C10 C9 1_555 1_555
H12 C10 1_555 1_555
C11 C8 1_555 1_555
C12 C11 1_555 1_555
H13 C12 1_555 1_555
C13 C12 1_555 1_555
H14 C13 1_555 1_555
N2 C9 1_555 1_555
Ag2 N4 1_555 1_555
N3 C14 1_555 1_555
C14 H15 1_555 1_555
C15 C14 1_555 1_555
H16 C15 1_555 1_555
C16 C15 1_555 1_555
C17 C16 1_555 1_555
H17 C17 1_555 1_555
C18 N3 1_555 1_555
H18 C18 1_555 1_555
C19 C16 1_555 1_555
H19 C19 1_555 1_555
H20 C19 1_555 1_555
C20 C19 1_555 1_555
H21 C20 1_555 1_555
H22 C20 1_555 1_555
C21 C20 1_555 1_555
H23 C21 1_555 1_555
H24 C21 1_555 1_555
C22 H25 1_555 1_555
C23 C22 1_555 1_555
H26 C23 1_555 1_555
C24 C21 1_555 1_555
C25 C24 1_555 1_555
H27 C25 1_555 1_555
C26 C25 1_555 1_555
H28 C26 1_555 1_555
N4 C22 1_555 1_555
N5 Ag2 1_555 1_555
C27 N5 1_555 1_555
H29 C27 1_555 1_555
C28 C27 1_555 1_555
H30 C28 1_555 1_555
C29 C28 1_555 1_555
C30 C29 1_555 1_555
H31 C30 1_555 1_555
C31 N5 1_555 1_555
H32 C31 1_555 1_555
C32 C29 1_555 1_555
H33 C32 1_555 1_555
H34 C32 1_555 1_555
C33 C32 1_555 1_555
H35 C33 1_555 1_555
H36 C33 1_555 1_555
C34 C33 1_555 1_555
H37 C34 1_555 1_555
H38 C34 1_555 1_555
C35 H39 1_555 1_555
C36 C35 1_555 1_555
H40 C36 1_555 1_555
C37 C34 1_555 1_555
C38 C37 1_555 1_555
H41 C38 1_555 1_555
C39 C38 1_555 1_555
H42 C39 1_555 1_555
N6 C35 1_555 1_555
P1 F1 1_555 1_555
F2 P1 1_555 1_555
F3 P1 1_555 1_555
F4 P1 1_555 1_555
F5 P1 1_555 1_555
F6 P1 1_555 1_555
P2 F13 1_555 1_555
F14 P2 1_555 1_555
F15 P2 1_555 1_555
Ag1B N1 1_555 1_555
N1B Ag1 1_555 1_555
N1C Ag1 1_555 1_555
C1C N1C 1_555 1_555
H1C C1C 1_555 1_555
C2C C1C 1_555 1_555
H2C C2C 1_555 1_555
C3C C2C 1_555 1_555
C4C C3C 1_555 1_555
H3C C4C 1_555 1_555
C5C N1C 1_555 1_555
H4C C5C 1_555 1_555
C6C C3C 1_555 1_555
H5C C6C 1_555 1_555
H6C C6C 1_555 1_555
C7C C6C 1_555 1_555
H7C C7C 1_555 1_555
H8C C7C 1_555 1_555
C8C C7C 1_555 1_555
H9C C8C 1_555 1_555
H10C C8C 1_555 1_555
C11C C8C 1_555 1_555
C10C C11C 1_555 1_555
C9C C10C 1_555 1_555
H11C C9C 1_555 1_555
N2C C9C 1_555 1_555
Ag1B_2 N2C 1_555 1_555
C13C N2C 1_555 1_555
C12C C11C 1_555 1_555
H13C C12C 1_555 1_555
H14C C13C 1_555 1_555
H12C C10C 1_555 1_555
N2A Ag1 1_555 1_555
Ag2B N3 1_555 1_555
N3B Ag2 1_555 1_555
Ag2B_2 N6 1_555 1_555
N6B Ag2 1_555 1_555
F13A P2 1_555 1_555
F14A P2 1_555 1_555
F15A P2 1_555 1_555
C4 C5 1_555 1_555
C10 C11 1_555 1_555
C13 N2 1_555 1_555
C17 C18 1_555 1_555
C23 C24 1_555 1_555
C26 N4 1_555 1_555
C30 C31 1_555 1_555
C36 C37 1_555 1_555
C39 N6 1_555 1_555
C4C C5C 1_555 1_555
C13C C12C 1_555 1_555

#END
