
#######################################################################
#
#                 Cambridge Crystallographic Data Centre
#                                CCDC 
#
#######################################################################
#
# If this CIF has been generated from an entry in the Cambridge 
# Structural Database, then it will include bibliographic, chemical, 
# crystal, experimental, refinement or atomic coordinate data resulting 
# from the CCDC's data processing and validation procedures.
#
#######################################################################

data_FAGGAX
_symmetry_cell_setting           triclinic
_symmetry_space_group_name_H-M   'P -1'
_symmetry_Int_Tables_number      2
_space_group_name_Hall           '-P 1'
loop_
_symmetry_equiv_pos_site_id
_symmetry_equiv_pos_as_xyz
1 x,y,z
2 -x,-y,-z
_cell_length_a                   8.2948(7)
_cell_length_b                   9.4737(10)
_cell_length_c                   9.7296(8)
_cell_angle_alpha                102.028(6)
_cell_angle_beta                 100.085(6)
_cell_angle_gamma                106.708(6)
_cell_volume                     693.313
loop_
_atom_site_label
_atom_site_type_symbol
_atom_site_fract_x
_atom_site_fract_y
_atom_site_fract_z
Cr1 Cr 0.13468(4) 0.01171(4) 0.13171(4)
K1 K 0.08665(8) 0.40164(7) 0.14948(7)
K2 K 0.36500(8) 0.30783(6) -0.18024(7)
C1 C 0.4444(3) 0.2696(2) 0.1484(2)
C2 C 0.5538(3) 0.1937(3) 0.2295(3)
H1 H 0.6739 0.2387 0.2275
H2 H 0.5486 0.2171 0.3302
C3 C 0.4999(3) 0.0223(3) 0.1706(2)
O1 O 0.2795(2) 0.20906(18) 0.11348(18)
O2 O 0.33872(19) -0.05679(18) 0.15089(17)
O3 O 0.5187(2) 0.38909(19) 0.1207(2)
O4 O 0.6082(2) -0.0385(2) 0.1470(2)
C4 C 0.0342(3) -0.2317(3) 0.2729(3)
C5 C 0.1764(4) -0.1271(3) 0.4049(3)
H3 H 0.2864 -0.1353 0.3903
H4 H 0.1564 -0.1643 0.4881
C6 C 0.1937(4) 0.0408(3) 0.4416(3)
O5 O 0.0006(2) -0.18349(18) 0.16134(17)
O6 O 0.1827(2) 0.1069(2) 0.34014(18)
O7 O -0.0462(3) -0.3626(2) 0.2762(2)
O8 O 0.2163(6) 0.1102(4) 0.5688(3)
O9 O 0.06805(18) -0.07682(17) -0.08142(16)
H5 H 0.1506 -0.0429 -0.1148
O10 O 0.2312(3) 0.6275(2) 0.0317(2)
O11 O 0.1474(6) 0.3934(4) 0.4539(4)
O12 O 0.4196(6) 0.6079(5) 0.3928(4)
Cr1A Cr -0.13468(4) -0.01171(4) -0.13171(4)
K1A K -0.08665(8) -0.40164(7) -0.14948(7)
K1_2 K 0.08665(8) -0.59836(7) 0.14948(7)
K1A_2 K -0.08665(8) 0.59836(7) -0.14948(7)
K2A K 0.63500(8) 0.69217(6) 0.18024(7)
K2A_2 K 0.63500(8) -0.30783(6) 0.18024(7)
K2A_3 K -0.36500(8) -0.30783(6) 0.18024(7)
K2_2 K 0.36500(8) 0.30783(6) 0.81976(7)
O3A O 0.4813(2) 0.61091(19) -0.1207(2)
O4A O 0.3918(2) 0.0385(2) -0.1470(2)
O5A O -0.0006(2) 0.18349(18) -0.16134(17)
O7_2 O -0.0462(3) 0.6374(2) 0.2762(2)
O7A O 0.0462(3) 0.3626(2) -0.2762(2)
O8_2 O 0.2163(6) 0.1102(4) -0.4312(3)
O9A O -0.06805(18) 0.07682(17) 0.08142(16)
H5A H -0.1506 0.0429 0.1148
O10A O -0.2312(3) 0.3725(2) -0.0317(2)
O10A_2 O 0.7688(3) 0.3725(2) -0.0317(2)
O12A O 0.5804(6) 0.3921(5) -0.3928(4)
loop_
_geom_bond_atom_site_label_1
_geom_bond_atom_site_label_2
_geom_bond_site_symmetry_1
_geom_bond_site_symmetry_2
Cr1 O1 1_555 1_555
K1 O1 1_555 1_555
K2 O3 1_555 1_555
C1 C2 1_555 1_555
C2 H1 1_555 1_555
H2 C2 1_555 1_555
C3 C2 1_555 1_555
O1 C1 1_555 1_555
O2 Cr1 1_555 1_555
O3 C1 1_555 1_555
O4 C3 1_555 1_555
C4 C5 1_555 1_555
C5 H3 1_555 1_555
H4 C5 1_555 1_555
C6 C5 1_555 1_555
O5 Cr1 1_555 1_555
O6 Cr1 1_555 1_555
O7 C4 1_555 1_555
O8 C6 1_555 1_555
O9 Cr1 1_555 1_555
H5 O9 1_555 1_555
O10 K1 1_555 1_555
O11 K1 1_555 1_555
O12 K1 1_555 1_555
Cr1A O9 1_555 1_555
K1A O5 1_555 1_555
K1_2 O7 1_555 1_555
K1A_2 O10 1_555 1_555
K2A O3 1_555 1_555
K2A_2 O4 1_555 1_555
K2A_3 O5 1_555 1_555
K2_2 O8 1_555 1_555
O3A K2 1_555 1_555
O4A K2 1_555 1_555
O5A K1 1_555 1_555
O7_2 K1 1_555 1_555
O7A K2 1_555 1_555
O8_2 K2 1_555 1_555
O9A Cr1 1_555 1_555
H5A O9A 1_555 1_555
O10A K1 1_555 1_555
O10A_2 K2 1_555 1_555
O12A K2 1_555 1_555
K1 O9A 1_555 1_555
K2 O5A 1_555 1_555
C3 O2 1_555 1_555
C4 O5 1_555 1_555
C6 O6 1_555 1_555
O7 K2A_3 1_555 1_555
O9 K1A 1_555 1_555
O10 K2A 1_555 1_555
O12 K2A 1_555 1_555
Cr1A O5A 1_555 1_555
Cr1A O9A 1_555 1_555
K1A_2 O7A 1_555 1_555
K1A_2 O10A 1_555 1_555
K2A O3A 1_555 1_555

#END
