
#######################################################################
#
#                 Cambridge Crystallographic Data Centre
#                                CCDC 
#
#######################################################################
#
# If this CIF has been generated from an entry in the Cambridge 
# Structural Database, then it will include bibliographic, chemical, 
# crystal, experimental, refinement or atomic coordinate data resulting 
# from the CCDC's data processing and validation procedures.
#
#######################################################################

data_FAGHOM
_symmetry_cell_setting           triclinic
_symmetry_space_group_name_H-M   'P -1'
_symmetry_Int_Tables_number      2
_space_group_name_Hall           '-P 1'
loop_
_symmetry_equiv_pos_site_id
_symmetry_equiv_pos_as_xyz
1 x,y,z
2 -x,-y,-z
_cell_length_a                   11.590(3)
_cell_length_b                   13.984(4)
_cell_length_c                   20.498(6)
_cell_angle_alpha                105.457(6)
_cell_angle_beta                 105.167(6)
_cell_angle_gamma                91.229(7)
_cell_volume                     3075.63
loop_
_atom_site_label
_atom_site_type_symbol
_atom_site_fract_x
_atom_site_fract_y
_atom_site_fract_z
B1 B 0.3317(8) 0.3714(7) 0.3366(5)
H1 H 0.3597 0.3875 0.3891
B2 B 0.2890(10) 0.8767(8) 0.3424(5)
H2 H 0.3507 0.8921 0.3891
C1 C 0.1503(6) 0.3930(5) 0.1156(4)
C2 C 0.1448(6) 0.2070(5) 0.1096(4)
C3 C 0.3484(7) 0.3032(5) 0.1145(4)
C4 C 0.3722(7) 0.5523(6) 0.1640(4)
H3 H 0.3922 0.4966 0.1295
H4 H 0.4230 0.6128 0.1703
H5 H 0.2876 0.5631 0.1471
C5 C 0.3935(7) 0.5285(6) 0.2335(4)
C6 C 0.4620(8) 0.5867(6) 0.2996(4)
H6 H 0.5058 0.6496 0.3100
C7 C 0.4533(8) 0.5347(6) 0.3467(4)
C8 C 0.5132(9) 0.5597(7) 0.4224(5)
H7 H 0.4532 0.5570 0.4480
H8 H 0.5547 0.6271 0.4383
H9 H 0.5716 0.5119 0.4315
C9 C -0.0719(7) 0.3110(6) 0.1606(4)
H10 H -0.0659 0.3622 0.1367
H11 H -0.1522 0.3067 0.1676
H12 H -0.0583 0.2464 0.1317
C10 C 0.0207(7) 0.3378(5) 0.2306(4)
C11 C -0.0012(9) 0.3603(6) 0.2959(5)
H13 H -0.0773 0.3633 0.3054
C12 C 0.1080(8) 0.3773(6) 0.3435(4)
C13 C 0.1391(10) 0.4069(7) 0.4246(5)
H14 H 0.1937 0.3614 0.4425
H15 H 0.0653 0.4028 0.4390
H16 H 0.1779 0.4752 0.4439
C14 C 0.3581(7) 0.0793(5) 0.1408(4)
H17 H 0.2732 0.0541 0.1195
H18 H 0.4068 0.0231 0.1421
H19 H 0.3833 0.1180 0.1126
C15 C 0.3745(7) 0.1436(6) 0.2131(4)
C16 C 0.4303(7) 0.1224(6) 0.2761(4)
H20 H 0.4659 0.0630 0.2804
C17 C 0.4248(7) 0.2028(6) 0.3307(4)
C18 C 0.4748(10) 0.2208(8) 0.4089(5)
H21 H 0.5325 0.2804 0.4281
H22 H 0.5151 0.1631 0.4184
H23 H 0.4091 0.2308 0.4313
C19 C 0.0808(7) 0.8969(5) 0.1290(4)
C20 C -0.0659(9) 0.8268(6) 0.1885(4)
C21 C 0.0727(7) 0.7115(6) 0.1227(4)
C22 C -0.0076(10) 1.0725(7) 0.2309(5)
H24 H 0.0273 1.0779 0.1932
H25 H -0.0344 1.1368 0.2514
H26 H -0.0764 1.0215 0.2115
C23 C 0.0828(9) 1.0446(6) 0.2855(5)
C24 C 0.1324(11) 1.1011(7) 0.3562(5)
H27 H 0.1139 1.1657 0.3777
C25 C 0.2109(10) 1.0463(7) 0.3874(4)
C26 C 0.2835(11) 1.0712(8) 0.4629(5)
H28 H 0.2435 1.0378 0.4886
H29 H 0.2909 1.1435 0.4840
H30 H 0.3636 1.0487 0.4654
C27 C 0.0666(8) 0.6624(6) 0.2700(4)
C28 C 0.1199(9) 0.6424(7) 0.3328(5)
H31 H 0.0990 0.5871 0.3475
C29 C 0.2073(9) 0.7169(7) 0.3691(5)
C30 C 0.2917(10) 0.7363(9) 0.4421(5)
H32 H 0.2744 0.6842 0.4631
H33 H 0.2807 0.8015 0.4714
H34 H 0.3748 0.7359 0.4393
C31 C 0.3125(8) 0.7871(6) 0.0947(5)
H35 H 0.2563 0.7268 0.0786
H36 H 0.3819 0.7731 0.0760
H37 H 0.2723 0.8405 0.0780
C32 C 0.3534(8) 0.8185(5) 0.1725(5)
C33 C 0.4726(8) 0.8356(7) 0.2153(6)
H38 H 0.5434 0.8308 0.2000
C34 C 0.4664(8) 0.8604(6) 0.2827(5)
C35 C 0.5659(9) 0.8872(9) 0.3511(6)
H39 H 0.5649 0.9571 0.3767
H40 H 0.6435 0.8777 0.3409
H41 H 0.5536 0.8443 0.3799
C36 C 0.3376(11) 0.8997(8) -0.0928(7)
H42 H 0.4189 0.8901 -0.0676
H43 H 0.3292 0.8811 -0.1435
H44 H 0.2788 0.8578 -0.0832
C37 C 0.3931(9) 1.0791(8) -0.0803(6)
H45 H 0.3787 1.0704 -0.1309
H46 H 0.4777 1.0721 -0.0594
H47 H 0.3738 1.1456 -0.0578
C38 C 0.2242(8) 1.0269(7) -0.0429(4)
H48 H 0.2104 1.0952 -0.0296
C39 C -0.3955(8) 0.6283(7) 0.0749(5)
H49 H -0.3698 0.6701 0.1238
H50 H -0.4792 0.6008 0.0636
H51 H -0.3889 0.6687 0.0433
C40 C -0.3364(9) 0.4676(8) 0.0961(6)
H52 H -0.3748 0.4075 0.0583
H53 H -0.3874 0.4871 0.1278
H54 H -0.2580 0.4539 0.1226
C41 C -0.2304(7) 0.5507(6) 0.0373(4)
H55 H -0.2185 0.6069 0.0212
C42 C -0.0378(8) 0.6005(7) 0.2120(5)
H56 H -0.0916 0.6446 0.1917
H57 H -0.0819 0.5596 0.2314
H58 H -0.0077 0.5570 0.1753
Fe1 Fe 0.10372(10) 0.82827(8) 0.19956(5)
Fe2 Fe 0.0000 0.5000 0.0000
Fe3 Fe 0.24415(9) 0.32101(7) 0.17441(5)
Fe4 Fe 0.0000 1.0000 0.0000
N1 N 0.0924(5) 0.4314(4) 0.0767(3)
N2 N 0.0905(6) 0.1386(5) 0.0692(3)
N3 N 0.4126(7) 0.2911(6) 0.0780(4)
N4 N 0.3447(5) 0.4448(4) 0.2396(3)
N5 N 0.3840(6) 0.4511(4) 0.3105(3)
N6 N 0.1380(6) 0.3406(4) 0.2384(3)
N7 N 0.1926(6) 0.3664(4) 0.3103(3)
N8 N 0.3356(5) 0.2348(5) 0.2298(3)
N9 N 0.3674(6) 0.2704(4) 0.3021(3)
N10 N 0.0622(6) 0.9327(4) 0.0830(3)
N11 N -0.1671(8) 0.8257(6) 0.1836(5)
N12 N 0.0517(5) 0.6411(5) 0.0764(3)
N13 N 0.1308(7) 0.9561(5) 0.2768(3)
N14 N 0.2124(7) 0.9605(5) 0.3392(3)
N15 N 0.1204(6) 0.7478(5) 0.2687(3)
N16 N 0.2101(7) 0.7793(5) 0.3293(3)
N17 N 0.2789(6) 0.8320(5) 0.2137(3)
N18 N 0.3512(7) 0.8575(5) 0.2816(4)
N19 N 0.3167(6) 1.0032(5) -0.0693(4)
N20 N -0.3200(6) 0.5479(5) 0.0658(3)
O1 O 0.1559(5) 0.9660(4) -0.0348(3)
O2 O -0.1615(5) 0.4855(4) 0.0302(3)
B1A B -0.3317(8) 0.6286(7) -0.3366(5)
H1A H -0.3597 0.6125 -0.3891
B2A B -0.2890(10) 0.1233(8) -0.3424(5)
H2A H -0.3507 0.1079 -0.3891
C1A C -0.1503(6) 0.6070(5) -0.1156(4)
C2A C -0.1448(6) 0.7930(5) -0.1096(4)
C3A C -0.3484(7) 0.6968(5) -0.1145(4)
C4A C -0.3722(7) 0.4477(6) -0.1640(4)
H3A H -0.3922 0.5034 -0.1295
H4A H -0.4230 0.3872 -0.1703
H5A H -0.2876 0.4369 -0.1471
C5A C -0.3935(7) 0.4715(6) -0.2335(4)
C6A C -0.4620(8) 0.4133(6) -0.2996(4)
H6A H -0.5058 0.3504 -0.3100
C7A C -0.4533(8) 0.4653(6) -0.3467(4)
C8A C -0.5132(9) 0.4403(7) -0.4224(5)
H7A H -0.4532 0.4430 -0.4480
H8A H -0.5547 0.3729 -0.4383
H9A H -0.5716 0.4881 -0.4315
C9A C 0.0719(7) 0.6890(6) -0.1606(4)
H10A H 0.0659 0.6378 -0.1367
H11A H 0.1522 0.6933 -0.1676
H12A H 0.0583 0.7536 -0.1317
C10A C -0.0207(7) 0.6622(5) -0.2306(4)
C11A C 0.0012(9) 0.6397(6) -0.2959(5)
H13A H 0.0773 0.6367 -0.3054
C12A C -0.1080(8) 0.6227(6) -0.3435(4)
C13A C -0.1391(10) 0.5931(7) -0.4246(5)
H14A H -0.1937 0.6386 -0.4425
H15A H -0.0653 0.5972 -0.4390
H16A H -0.1779 0.5248 -0.4439
C14A C -0.3581(7) 0.9207(5) -0.1408(4)
H17A H -0.2732 0.9459 -0.1195
H18A H -0.4068 0.9769 -0.1421
H19A H -0.3833 0.8820 -0.1126
C15A C -0.3745(7) 0.8564(6) -0.2131(4)
C16A C -0.4303(7) 0.8776(6) -0.2761(4)
H20A H -0.4659 0.9370 -0.2804
C17A C -0.4248(7) 0.7972(6) -0.3307(4)
C18A C -0.4748(10) 0.7792(8) -0.4089(5)
H21A H -0.5325 0.7196 -0.4281
H22A H -0.5151 0.8369 -0.4184
H23A H -0.4091 0.7692 -0.4313
C19A C -0.0808(7) 0.1031(5) -0.1290(4)
C20A C 0.0659(9) 0.1732(6) -0.1885(4)
C21A C -0.0727(7) 0.2885(6) -0.1227(4)
C22A C 0.0076(10) -0.0725(7) -0.2309(5)
H24A H -0.0273 -0.0779 -0.1932
H25A H 0.0344 -0.1368 -0.2514
H26A H 0.0764 -0.0215 -0.2115
C23A C -0.0828(9) -0.0446(6) -0.2855(5)
C24A C -0.1324(11) -0.1011(7) -0.3562(5)
H27A H -0.1139 -0.1657 -0.3777
C25A C -0.2109(10) -0.0463(7) -0.3874(4)
C26A C -0.2835(11) -0.0712(8) -0.4629(5)
H28A H -0.2435 -0.0378 -0.4886
H29A H -0.2909 -0.1435 -0.4840
H30A H -0.3636 -0.0487 -0.4654
C27A C -0.0666(8) 0.3376(6) -0.2700(4)
C28A C -0.1199(9) 0.3576(7) -0.3328(5)
H31A H -0.0990 0.4129 -0.3475
C29A C -0.2073(9) 0.2831(7) -0.3691(5)
C30A C -0.2917(10) 0.2637(9) -0.4421(5)
H32A H -0.2744 0.3158 -0.4631
H33A H -0.2807 0.1985 -0.4714
H34A H -0.3748 0.2641 -0.4393
C31A C -0.3125(8) 0.2129(6) -0.0947(5)
H35A H -0.2563 0.2732 -0.0786
H36A H -0.3819 0.2269 -0.0760
H37A H -0.2723 0.1595 -0.0780
C32A C -0.3534(8) 0.1815(5) -0.1725(5)
C33A C -0.4726(8) 0.1644(7) -0.2153(6)
H38A H -0.5434 0.1692 -0.2000
C34A C -0.4664(8) 0.1396(6) -0.2827(5)
C35A C -0.5659(9) 0.1128(9) -0.3511(6)
H39A H -0.5649 0.0429 -0.3767
H40A H -0.6435 0.1223 -0.3409
H41A H -0.5536 0.1557 -0.3799
C36A C -0.3376(11) 1.1003(8) 0.0928(7)
H42A H -0.4189 1.1099 0.0676
H43A H -0.3292 1.1189 0.1435
H44A H -0.2788 1.1422 0.0832
C37A C -0.3931(9) 0.9209(8) 0.0803(6)
H45A H -0.3787 0.9296 0.1309
H46A H -0.4777 0.9279 0.0594
H47A H -0.3738 0.8544 0.0578
C38A C -0.2242(8) 0.9731(7) 0.0429(4)
H48A H -0.2104 0.9048 0.0296
C39A C 0.3955(8) 0.3717(7) -0.0749(5)
H49A H 0.3698 0.3299 -0.1238
H50A H 0.4792 0.3992 -0.0636
H51A H 0.3889 0.3313 -0.0433
C40A C 0.3364(9) 0.5324(8) -0.0961(6)
H52A H 0.3748 0.5925 -0.0583
H53A H 0.3874 0.5129 -0.1278
H54A H 0.2580 0.5461 -0.1226
C41A C 0.2304(7) 0.4493(6) -0.0373(4)
H55A H 0.2185 0.3931 -0.0212
C42A C 0.0378(8) 0.3995(7) -0.2120(5)
H56A H 0.0916 0.3554 -0.1917
H57A H 0.0819 0.4404 -0.2314
H58A H 0.0077 0.4430 -0.1753
Fe1A Fe -0.10372(10) 0.17173(8) -0.19956(5)
Fe3A Fe -0.24415(9) 0.67899(7) -0.17441(5)
Fe4_2 Fe 0.0000 0.0000 0.0000
N1A N -0.0924(5) 0.5686(4) -0.0767(3)
N2A N -0.0905(6) 0.8614(5) -0.0692(3)
N2_2 N 0.0905(6) 1.1386(5) 0.0692(3)
N3A N -0.4126(7) 0.7089(6) -0.0780(4)
N4A N -0.3447(5) 0.5552(4) -0.2396(3)
N5A N -0.3840(6) 0.5489(4) -0.3105(3)
N6A N -0.1380(6) 0.6594(4) -0.2384(3)
N7A N -0.1926(6) 0.6336(4) -0.3103(3)
N8A N -0.3356(5) 0.7652(5) -0.2298(3)
N9A N -0.3674(6) 0.7296(4) -0.3021(3)
N10A N -0.0622(6) 0.0673(4) -0.0830(3)
N10A_2 N -0.0622(6) 1.0673(4) -0.0830(3)
N11A N 0.1671(8) 0.1743(6) -0.1836(5)
N12A N -0.0517(5) 0.3589(5) -0.0764(3)
N13A N -0.1308(7) 0.0439(5) -0.2768(3)
N14A N -0.2124(7) 0.0395(5) -0.3392(3)
N15A N -0.1204(6) 0.2522(5) -0.2687(3)
N16A N -0.2101(7) 0.2207(5) -0.3293(3)
N17A N -0.2789(6) 0.1680(5) -0.2137(3)
N18A N -0.3512(7) 0.1425(5) -0.2816(4)
N19A N -0.3167(6) 0.9968(5) 0.0693(4)
N20A N 0.3200(6) 0.4521(5) -0.0658(3)
O1A O -0.1559(5) 1.0340(4) 0.0348(3)
O2A O 0.1615(5) 0.5145(4) -0.0302(3)
loop_
_geom_bond_atom_site_label_1
_geom_bond_atom_site_label_2
_geom_bond_site_symmetry_1
_geom_bond_site_symmetry_2
B1 H1 1_555 1_555
B2 H2 1_555 1_555
C1 Fe3 1_555 1_555
C2 Fe3 1_555 1_555
C3 Fe3 1_555 1_555
C4 H3 1_555 1_555
H4 C4 1_555 1_555
H5 C4 1_555 1_555
C5 C4 1_555 1_555
C6 C5 1_555 1_555
H6 C6 1_555 1_555
C7 C6 1_555 1_555
C8 C7 1_555 1_555
H7 C8 1_555 1_555
H8 C8 1_555 1_555
H9 C8 1_555 1_555
C9 H10 1_555 1_555
H11 C9 1_555 1_555
H12 C9 1_555 1_555
C10 C9 1_555 1_555
C11 C10 1_555 1_555
H13 C11 1_555 1_555
C12 C11 1_555 1_555
C13 C12 1_555 1_555
H14 C13 1_555 1_555
H15 C13 1_555 1_555
H16 C13 1_555 1_555
C14 H17 1_555 1_555
H18 C14 1_555 1_555
H19 C14 1_555 1_555
C15 C14 1_555 1_555
C16 C15 1_555 1_555
H20 C16 1_555 1_555
C17 C16 1_555 1_555
C18 C17 1_555 1_555
H21 C18 1_555 1_555
H22 C18 1_555 1_555
H23 C18 1_555 1_555
C19 Fe1 1_555 1_555
C20 Fe1 1_555 1_555
C21 Fe1 1_555 1_555
C22 H24 1_555 1_555
H25 C22 1_555 1_555
H26 C22 1_555 1_555
C23 C22 1_555 1_555
C24 C23 1_555 1_555
H27 C24 1_555 1_555
C25 C24 1_555 1_555
C26 C25 1_555 1_555
H28 C26 1_555 1_555
H29 C26 1_555 1_555
H30 C26 1_555 1_555
C27 C28 1_555 1_555
C28 H31 1_555 1_555
C29 C28 1_555 1_555
C30 C29 1_555 1_555
H32 C30 1_555 1_555
H33 C30 1_555 1_555
H34 C30 1_555 1_555
C31 H35 1_555 1_555
H36 C31 1_555 1_555
H37 C31 1_555 1_555
C32 C31 1_555 1_555
C33 C32 1_555 1_555
H38 C33 1_555 1_555
C34 C33 1_555 1_555
C35 C34 1_555 1_555
H39 C35 1_555 1_555
H40 C35 1_555 1_555
H41 C35 1_555 1_555
C36 H42 1_555 1_555
H43 C36 1_555 1_555
H44 C36 1_555 1_555
C37 H45 1_555 1_555
H46 C37 1_555 1_555
H47 C37 1_555 1_555
C38 H48 1_555 1_555
C39 H49 1_555 1_555
H50 C39 1_555 1_555
H51 C39 1_555 1_555
C40 H52 1_555 1_555
H53 C40 1_555 1_555
H54 C40 1_555 1_555
C41 H55 1_555 1_555
C42 C27 1_555 1_555
H56 C42 1_555 1_555
H57 C42 1_555 1_555
H58 C42 1_555 1_555
Fe1 N13 1_555 1_555
Fe2 N1 1_555 1_555
Fe3 N4 1_555 1_555
Fe4 N10 1_555 1_555
N1 C1 1_555 1_555
N2 C2 1_555 1_555
N3 C3 1_555 1_555
N4 C5 1_555 1_555
N5 B1 1_555 1_555
N6 C10 1_555 1_555
N7 B1 1_555 1_555
N8 C15 1_555 1_555
N9 B1 1_555 1_555
N10 C19 1_555 1_555
N11 C20 1_555 1_555
N12 C21 1_555 1_555
N13 C23 1_555 1_555
N14 B2 1_555 1_555
N15 C27 1_555 1_555
N16 B2 1_555 1_555
N17 C32 1_555 1_555
N18 B2 1_555 1_555
N19 C36 1_555 1_555
N20 C39 1_555 1_555
O1 C38 1_555 1_555
O2 C41 1_555 1_555
B1A H1A 1_555 1_555
B2A H2A 1_555 1_555
C1A Fe3A 1_555 1_555
C2A Fe3A 1_555 1_555
C3A Fe3A 1_555 1_555
C4A H3A 1_555 1_555
H4A C4A 1_555 1_555
H5A C4A 1_555 1_555
C5A C4A 1_555 1_555
C6A C5A 1_555 1_555
H6A C6A 1_555 1_555
C7A C6A 1_555 1_555
C8A C7A 1_555 1_555
H7A C8A 1_555 1_555
H8A C8A 1_555 1_555
H9A C8A 1_555 1_555
C9A H10A 1_555 1_555
H11A C9A 1_555 1_555
H12A C9A 1_555 1_555
C10A C9A 1_555 1_555
C11A C10A 1_555 1_555
H13A C11A 1_555 1_555
C12A C11A 1_555 1_555
C13A C12A 1_555 1_555
H14A C13A 1_555 1_555
H15A C13A 1_555 1_555
H16A C13A 1_555 1_555
C14A H17A 1_555 1_555
H18A C14A 1_555 1_555
H19A C14A 1_555 1_555
C15A C14A 1_555 1_555
C16A C15A 1_555 1_555
H20A C16A 1_555 1_555
C17A C16A 1_555 1_555
C18A C17A 1_555 1_555
H21A C18A 1_555 1_555
H22A C18A 1_555 1_555
H23A C18A 1_555 1_555
C19A Fe1A 1_555 1_555
C20A Fe1A 1_555 1_555
C21A Fe1A 1_555 1_555
C22A H24A 1_555 1_555
H25A C22A 1_555 1_555
H26A C22A 1_555 1_555
C23A C22A 1_555 1_555
C24A C23A 1_555 1_555
H27A C24A 1_555 1_555
C25A C24A 1_555 1_555
C26A C25A 1_555 1_555
H28A C26A 1_555 1_555
H29A C26A 1_555 1_555
H30A C26A 1_555 1_555
C27A C28A 1_555 1_555
C28A H31A 1_555 1_555
C29A C28A 1_555 1_555
C30A C29A 1_555 1_555
H32A C30A 1_555 1_555
H33A C30A 1_555 1_555
H34A C30A 1_555 1_555
C31A H35A 1_555 1_555
H36A C31A 1_555 1_555
H37A C31A 1_555 1_555
C32A C31A 1_555 1_555
C33A C32A 1_555 1_555
H38A C33A 1_555 1_555
C34A C33A 1_555 1_555
C35A C34A 1_555 1_555
H39A C35A 1_555 1_555
H40A C35A 1_555 1_555
H41A C35A 1_555 1_555
C36A H42A 1_555 1_555
H43A C36A 1_555 1_555
H44A C36A 1_555 1_555
C37A H45A 1_555 1_555
H46A C37A 1_555 1_555
H47A C37A 1_555 1_555
C38A H48A 1_555 1_555
C39A H49A 1_555 1_555
H50A C39A 1_555 1_555
H51A C39A 1_555 1_555
C40A H52A 1_555 1_555
H53A C40A 1_555 1_555
H54A C40A 1_555 1_555
C41A H55A 1_555 1_555
C42A C27A 1_555 1_555
H56A C42A 1_555 1_555
H57A C42A 1_555 1_555
H58A C42A 1_555 1_555
Fe1A N13A 1_555 1_555
Fe3A N4A 1_555 1_555
Fe4_2 N2 1_555 1_555
N1A Fe2 1_555 1_555
N2A Fe4 1_555 1_555
N2_2 Fe4 1_555 1_555
N3A C3A 1_555 1_555
N4A C5A 1_555 1_555
N5A B1A 1_555 1_555
N6A C10A 1_555 1_555
N7A B1A 1_555 1_555
N8A C15A 1_555 1_555
N9A B1A 1_555 1_555
N10A C19A 1_555 1_555
N10A_2 Fe4 1_555 1_555
N11A C20A 1_555 1_555
N12A Fe2 1_555 1_555
N13A C23A 1_555 1_555
N14A B2A 1_555 1_555
N15A C27A 1_555 1_555
N16A B2A 1_555 1_555
N17A C32A 1_555 1_555
N18A B2A 1_555 1_555
N19A C36A 1_555 1_555
N20A C39A 1_555 1_555
O1A Fe4 1_555 1_555
O2A Fe2 1_555 1_555
C7 N5 1_555 1_555
C12 N7 1_555 1_555
C17 N9 1_555 1_555
C25 N14 1_555 1_555
C29 N16 1_555 1_555
C34 N18 1_555 1_555
C37 N19 1_555 1_555
C38 N19 1_555 1_555
C40 N20 1_555 1_555
C41 N20 1_555 1_555
Fe1 N15 1_555 1_555
Fe1 N17 1_555 1_555
Fe2 N12 1_555 1_555
Fe2 O2 1_555 1_555
Fe3 N6 1_555 1_555
Fe3 N8 1_555 1_555
Fe4 O1 1_555 1_555
N4 N5 1_555 1_555
N6 N7 1_555 1_555
N8 N9 1_555 1_555
N13 N14 1_555 1_555
N15 N16 1_555 1_555
N17 N18 1_555 1_555
C1A N1A 1_555 1_555
C2A N2A 1_555 1_555
C7A N5A 1_555 1_555
C12A N7A 1_555 1_555
C17A N9A 1_555 1_555
C21A N12A 1_555 1_555
C25A N14A 1_555 1_555
C29A N16A 1_555 1_555
C34A N18A 1_555 1_555
C37A N19A 1_555 1_555
C38A N19A 1_555 1_555
C38A O1A 1_555 1_555
C40A N20A 1_555 1_555
C41A N20A 1_555 1_555
C41A O2A 1_555 1_555
Fe1A N15A 1_555 1_555
Fe1A N17A 1_555 1_555
Fe3A N6A 1_555 1_555
Fe3A N8A 1_555 1_555
Fe4_2 N10A 1_555 1_555
N4A N5A 1_555 1_555
N6A N7A 1_555 1_555
N8A N9A 1_555 1_555
N13A N14A 1_555 1_555
N15A N16A 1_555 1_555
N17A N18A 1_555 1_555

#END
