
#######################################################################
#
#                 Cambridge Crystallographic Data Centre
#                                CCDC 
#
#######################################################################
#
# If this CIF has been generated from an entry in the Cambridge 
# Structural Database, then it will include bibliographic, chemical, 
# crystal, experimental, refinement or atomic coordinate data resulting 
# from the CCDC's data processing and validation procedures.
#
#######################################################################

data_FAGHUS
_symmetry_cell_setting           orthorhombic
_symmetry_space_group_name_H-M   'A b a 2'
_symmetry_Int_Tables_number      41
_space_group_name_Hall           'A 2 -2ab'
loop_
_symmetry_equiv_pos_site_id
_symmetry_equiv_pos_as_xyz
1 x,y,z
2 -x,-y,z
3 1/2+x,1/2-y,z
4 1/2-x,1/2+y,z
5 x,1/2+y,1/2+z
6 -x,1/2-y,1/2+z
7 1/2+x,-y,1/2+z
8 1/2-x,y,1/2+z
_cell_length_a                   29.812(6)
_cell_length_b                   9.6688(19)
_cell_length_c                   18.052(4)
_cell_angle_alpha                90
_cell_angle_beta                 90
_cell_angle_gamma                90
_cell_volume                     5203.42
loop_
_atom_site_label
_atom_site_type_symbol
_atom_site_fract_x
_atom_site_fract_y
_atom_site_fract_z
Zn1 Zn 0.894259(10) 0.63928(3) 0.73317(3)
N1 N 0.89063(9) 0.5694(3) 0.62599(14)
C1 C 0.85541(12) 0.5784(4) 0.50851(17)
H1 H 0.8328 0.6159 0.4793
C2 C 0.85922(13) 0.6188(4) 0.58136(19)
H2 H 0.8390 0.6833 0.5999
C3 C 0.91817(14) 0.4763(4) 0.5976(2)
H3 H 0.9401 0.4386 0.6282
C4 C 0.91627(14) 0.4324(5) 0.5255(2)
H4 H 0.9367 0.3671 0.5084
C5 C 0.88425(12) 0.4844(4) 0.47843(17)
C6 C 0.88314(13) 0.4423(4) 0.39849(18)
H5 H 0.8548 0.4704 0.3768
H6 H 0.8852 0.3424 0.3951
C7 C 0.92189(12) 0.5079(4) 0.35457(18)
H7 H 0.9495 0.4965 0.3825
H8 H 0.9253 0.4586 0.3081
C8 C 0.91536(11) 0.6595(4) 0.33820(19)
H9 H 0.8917 0.6704 0.3018
H10 H 0.9062 0.7070 0.3831
C9 C 0.95773(11) 0.7230(4) 0.30929(19)
C10 C 0.98590(12) 0.7956(4) 0.3550(2)
H11 H 0.9772 0.8131 0.4035
C11 C 1.02678(13) 0.8430(4) 0.3307(2)
H12 H 1.0450 0.8918 0.3633
C12 C 1.01383(11) 0.7521(4) 0.21618(16)
H13 H 1.0232 0.7366 0.1677
C13 C 0.97270(9) 0.7030(4) 0.2375(2)
H14 H 0.9548 0.6561 0.2037
N2 N 1.04104(9) 0.8209(3) 0.26151(14)
O1 O 0.85396(7) 0.7974(2) 0.73547(17)
O2 O 0.90110(8) 0.9069(3) 0.66092(15)
C14 C 0.86486(12) 0.8996(4) 0.69473(18)
C15 C 0.83125(11) 1.0140(3) 0.68690(17)
C16 C 0.84112(14) 1.1299(4) 0.64518(18)
H15 H 0.8696 1.1414 0.6250
C17 C 0.80796(17) 1.2296(4) 0.6337(2)
H16 H 0.8145 1.3093 0.6070
C18 C 0.76548(18) 1.2093(6) 0.6621(3)
H17 H 0.7429 1.2729 0.6520
C19 C 0.75656(14) 1.0977(5) 0.7044(2)
H18 H 0.7280 1.0860 0.7243
C20 C 0.78944(11) 1.0007(4) 0.71846(18)
H19 H 0.7833 0.9260 0.7493
O3 O 0.86111(8) 0.4975(3) 0.78575(12)
O4 O 0.88137(11) 0.5772(4) 0.89495(17)
C21 C 0.85675(12) 0.5071(4) 0.85550(19)
C22 C 0.81849(11) 0.4307(4) 0.88971(17)
C23 C 0.80557(14) 0.4621(4) 0.96202(19)
H20 H 0.8222 0.5255 0.9893
C24 C 0.76898(15) 0.4016(5) 0.9934(2)
H21 H 0.7604 0.4248 1.0414
C25 C 0.74465(17) 0.3056(5) 0.9537(3)
H22 H 0.7194 0.2645 0.9746
C26 C 0.75776(14) 0.2707(5) 0.8830(2)
H23 H 0.7419 0.2040 0.8567
C27 C 0.79446(13) 0.3345(4) 0.8510(2)
H24 H 0.8028 0.3118 0.8028
Zn1E Zn 1.105741(10) 0.86072(3) 0.23317(3)
N2E N 0.95896(9) 0.6791(3) 0.76151(14)
O5 O 0.9316(2) 1.0196(7) 0.5259(4)
H25 H 0.9139 1.0348 0.4893
H26 H 0.9208 0.9591 0.5578
O6 O 0.99296(19) 0.6829(7) 0.0423(3)
H27 H 0.9705 0.6312 0.0371
H28 H 1.0167 0.6421 0.0324
O7? O 0.9254(2) 0.9374(7) 0.5126(3)
loop_
_geom_bond_atom_site_label_1
_geom_bond_atom_site_label_2
_geom_bond_site_symmetry_1
_geom_bond_site_symmetry_2
Zn1 N1 1_555 1_555
N1 C2 1_555 1_555
C1 H1 1_555 1_555
C2 C1 1_555 1_555
H2 C2 1_555 1_555
C3 N1 1_555 1_555
H3 C3 1_555 1_555
C4 C3 1_555 1_555
H4 C4 1_555 1_555
C5 C1 1_555 1_555
C6 C5 1_555 1_555
H5 C6 1_555 1_555
H6 C6 1_555 1_555
C7 C6 1_555 1_555
H7 C7 1_555 1_555
H8 C7 1_555 1_555
C8 C7 1_555 1_555
H9 C8 1_555 1_555
H10 C8 1_555 1_555
C9 C8 1_555 1_555
C10 C9 1_555 1_555
H11 C10 1_555 1_555
C11 C10 1_555 1_555
H12 C11 1_555 1_555
C12 H13 1_555 1_555
C13 C9 1_555 1_555
H14 C13 1_555 1_555
N2 C11 1_555 1_555
O1 Zn1 1_555 1_555
O2 C14 1_555 1_555
C14 O1 1_555 1_555
C15 C14 1_555 1_555
C16 C15 1_555 1_555
H15 C16 1_555 1_555
C17 C16 1_555 1_555
H16 C17 1_555 1_555
C18 C17 1_555 1_555
H17 C18 1_555 1_555
C19 C18 1_555 1_555
H18 C19 1_555 1_555
C20 C15 1_555 1_555
H19 C20 1_555 1_555
O3 Zn1 1_555 1_555
O4 C21 1_555 1_555
C21 O3 1_555 1_555
C22 C21 1_555 1_555
C23 C22 1_555 1_555
H20 C23 1_555 1_555
C24 C23 1_555 1_555
H21 C24 1_555 1_555
C25 C24 1_555 1_555
H22 C25 1_555 1_555
C26 C25 1_555 1_555
H23 C26 1_555 1_555
C27 C22 1_555 1_555
H24 C27 1_555 1_555
O5 H25 1_555 1_555
H26 O5 1_555 1_555
O6 H27 1_555 1_555
H28 O6 1_555 1_555
Zn1E N2 1_555 1_555
N2E Zn1 1_555 1_555
C4 C5 1_555 1_555
C12 C13 1_555 1_555
C12 N2 1_555 1_555
C19 C20 1_555 1_555
C26 C27 1_555 1_555

#END
