
#######################################################################
#
#                 Cambridge Crystallographic Data Centre
#                                CCDC 
#
#######################################################################
#
# If this CIF has been generated from an entry in the Cambridge 
# Structural Database, then it will include bibliographic, chemical, 
# crystal, experimental, refinement or atomic coordinate data resulting 
# from the CCDC's data processing and validation procedures.
#
#######################################################################

data_FAGJEE
_symmetry_cell_setting           monoclinic
_symmetry_space_group_name_H-M   'P 21'
_symmetry_Int_Tables_number      4
_space_group_name_Hall           'P 2yb'
loop_
_symmetry_equiv_pos_site_id
_symmetry_equiv_pos_as_xyz
1 x,y,z
2 -x,1/2+y,-z
_cell_length_a                   12.030(2)
_cell_length_b                   13.949(3)
_cell_length_c                   12.384(3)
_cell_angle_alpha                90
_cell_angle_beta                 91.30(3)
_cell_angle_gamma                90
_cell_volume                     2077.58
loop_
_atom_site_label
_atom_site_type_symbol
_atom_site_fract_x
_atom_site_fract_y
_atom_site_fract_z
Zn1 Zn -0.07724(7) 0.62520(6) 0.13979(7)
N1 N -0.1275(5) 0.5512(5) 0.2708(5)
C1 C -0.1156(9) 0.4259(7) 0.4000(8)
H1 H -0.0741 0.3750 0.4280
C2 C -0.0697(8) 0.4824(7) 0.3158(8)
H2 H 0.0020 0.4700 0.2929
C3 C -0.2294(9) 0.5701(7) 0.3084(8)
H3 H -0.2706 0.6199 0.2776
C4 C -0.2748(8) 0.5171(7) 0.3920(8)
H4 H -0.3457 0.5315 0.4158
C5 C -0.2150(8) 0.4432(6) 0.4399(6)
C6 C -0.2625(9) 0.3906(7) 0.5329(7)
H5 H -0.2416 0.3235 0.5303
H6 H -0.3429 0.3949 0.5307
C7 C -0.2148(11) 0.4379(7) 0.6375(8)
H7 H -0.1343 0.4391 0.6351
H8 H -0.2409 0.5035 0.6416
C8 C -0.2496(9) 0.3843(8) 0.7361(6)
H9 H -0.2176 0.3204 0.7361
H10 H -0.3299 0.3781 0.7360
C9 C -0.2103(8) 0.4379(6) 0.8352(7)
C10 C -0.1125(9) 0.4131(6) 0.8910(7)
H11 H -0.0713 0.3602 0.8696
C11 C -0.0778(8) 0.4669(6) 0.9769(7)
H12 H -0.0125 0.4487 1.0129
C12 C -0.2216(9) 0.5684(8) 0.9567(8)
H13 H -0.2614 0.6216 0.9793
C13 C -0.2578(9) 0.5209(9) 0.8704(9)
H14 H -0.3187 0.5452 0.8317
N2 N -0.1305(6) 0.5429(5) 1.0126(5)
Zn2 Zn -0.33727(7) 0.87477(7) 0.57708(7)
N3 N -0.4741(5) 0.7924(5) 0.6118(6)
C14 C -0.6102(8) 0.6768(6) 0.5690(8)
H15 H -0.6334 0.6283 0.5221
C15 C -0.5131(7) 0.7231(6) 0.5492(7)
H16 H -0.4728 0.7052 0.4893
C16 C -0.5323(8) 0.8160(8) 0.6991(8)
H17 H -0.5060 0.8640 0.7452
C17 C -0.6294(8) 0.7705(8) 0.7211(9)
H18 H -0.6669 0.7880 0.7829
C18 C -0.6751(7) 0.6988(7) 0.6551(8)
C19 C -0.7879(7) 0.6561(8) 0.6678(8)
H19 H -0.8381 0.6854 0.6150
H20 H -0.7838 0.5883 0.6509
C20 C -0.8362(8) 0.6666(9) 0.7754(9)
H21 H -0.8394 0.7342 0.7933
H22 H -0.7877 0.6356 0.8283
C21 C -0.9499(7) 0.6251(9) 0.7831(8)
H23 H -0.9664 0.6161 0.8588
H24 H -0.9505 0.5624 0.7492
C22 C -1.0403(7) 0.6849(6) 0.7317(8)
C23 C -1.0720(7) 0.6730(6) 0.6242(8)
H25 H -1.0379 0.6268 0.5823
C24 C -1.1542(7) 0.7303(7) 0.5802(7)
H26 H -1.1753 0.7206 0.5083
C25 C -1.1701(7) 0.8120(7) 0.7392(8)
H27 H -1.2020 0.8606 0.7794
C26 C -1.0908(9) 0.7572(7) 0.7868(8)
H28 H -1.0700 0.7688 0.8584
N4 N -1.2056(5) 0.7996(5) 0.6356(6)
O1 O -0.1850(5) 0.7279(4) 0.1227(5)
O2 O -0.1172(5) 0.8084(5) 0.2649(5)
O3 O -0.3404(6) 0.9294(5) 0.4349(5)
O4 O -0.3335(5) 0.7800(4) 0.3750(5)
C27 C -0.1857(6) 0.7980(5) 0.1889(7)
C28 C -0.2715(6) 0.8705(6) 0.1661(6)
C29 C -0.2846(9) 0.9063(7) 0.0626(7)
H29 H -0.2395 0.8838 0.0082
C30 C -0.3636(9) 0.9749(8) 0.0390(9)
H30 H -0.3731 0.9967 -0.0316
C31 C -0.4281(9) 1.0112(7) 0.1188(9)
H31 H -0.4808 1.0582 0.1031
C32 C -0.4146(8) 0.9779(7) 0.2208(9)
H32 H -0.4579 1.0041 0.2747
C33 C -0.3405(6) 0.9078(5) 0.2478(6)
C34 C -0.3376(6) 0.8681(7) 0.3594(6)
O5 O 0.3678(5) 0.4724(5) 0.3171(6)
O6 O 0.2201(5) 0.5596(5) 0.3607(5)
O7 O 0.0709(5) 0.6782(4) 0.1289(6)
O8 O 0.1245(5) 0.5251(4) 0.1403(5)
C35 C 0.3026(6) 0.5455(6) 0.3065(6)
C36 C 0.3386(7) 0.6150(6) 0.2187(6)
C37 C 0.4471(6) 0.6452(6) 0.2175(7)
H33 H 0.4983 0.6219 0.2685
C38 C 0.4805(7) 0.7105(7) 0.1403(9)
H34 H 0.5539 0.7314 0.1403
C39 C 0.4077(9) 0.7438(6) 0.0655(7)
H35 H 0.4317 0.7868 0.0137
C40 C 0.2957(7) 0.7146(6) 0.0643(7)
H36 H 0.2454 0.7383 0.0129
C41 C 0.2622(6) 0.6491(5) 0.1425(6)
C42 C 0.1456(6) 0.6120(6) 0.1354(6)
Zn1_2 Zn -0.07724(7) 0.62520(6) 1.13979(7)
N2_2 N -0.1305(6) 0.5429(5) 0.0126(5)
Zn2_2 Zn -1.33727(7) 0.87477(7) 0.57708(7)
Zn2A Zn 0.33727(7) 0.37477(7) 0.42292(7)
N4_2 N -0.2056(5) 0.7996(5) 0.6356(6)
O5A O -0.3678(5) 0.9724(5) 0.6829(6)
O9 O 0.0770(9) 0.4532(10) 0.5722(12)
H37 H 0.1431 0.4596 0.5490
H38 H 0.0754 0.4076 0.6201
O10 O 0.0616(7) 0.7109(6) 0.4056(6)
H39 H 0.0894 0.6556 0.3918
H40 H 0.0181 0.7461 0.3677
loop_
_geom_bond_atom_site_label_1
_geom_bond_atom_site_label_2
_geom_bond_site_symmetry_1
_geom_bond_site_symmetry_2
Zn1 N1 1_555 1_555
N1 C2 1_555 1_555
C1 H1 1_555 1_555
C2 C1 1_555 1_555
H2 C2 1_555 1_555
C3 N1 1_555 1_555
H3 C3 1_555 1_555
C4 C3 1_555 1_555
H4 C4 1_555 1_555
C5 C1 1_555 1_555
C6 C5 1_555 1_555
H5 C6 1_555 1_555
H6 C6 1_555 1_555
C7 C6 1_555 1_555
H7 C7 1_555 1_555
H8 C7 1_555 1_555
C8 C7 1_555 1_555
H9 C8 1_555 1_555
H10 C8 1_555 1_555
C9 C8 1_555 1_555
C10 C9 1_555 1_555
H11 C10 1_555 1_555
C11 C10 1_555 1_555
H12 C11 1_555 1_555
C12 H13 1_555 1_555
C13 C9 1_555 1_555
H14 C13 1_555 1_555
N2 C11 1_555 1_555
Zn2 N3 1_555 1_555
N3 C15 1_555 1_555
C14 H15 1_555 1_555
C15 C14 1_555 1_555
H16 C15 1_555 1_555
C16 N3 1_555 1_555
H17 C16 1_555 1_555
C17 C16 1_555 1_555
H18 C17 1_555 1_555
C18 C14 1_555 1_555
C19 C18 1_555 1_555
H19 C19 1_555 1_555
H20 C19 1_555 1_555
C20 C19 1_555 1_555
H21 C20 1_555 1_555
H22 C20 1_555 1_555
C21 C20 1_555 1_555
H23 C21 1_555 1_555
H24 C21 1_555 1_555
C22 C21 1_555 1_555
C23 C22 1_555 1_555
H25 C23 1_555 1_555
C24 C23 1_555 1_555
H26 C24 1_555 1_555
C25 H27 1_555 1_555
C26 C22 1_555 1_555
H28 C26 1_555 1_555
N4 C24 1_555 1_555
O1 Zn1 1_555 1_555
O2 C27 1_555 1_555
O3 Zn2 1_555 1_555
O4 C34 1_555 1_555
C27 O1 1_555 1_555
C28 C27 1_555 1_555
C29 C28 1_555 1_555
H29 C29 1_555 1_555
C30 C29 1_555 1_555
H30 C30 1_555 1_555
C31 C30 1_555 1_555
H31 C31 1_555 1_555
C32 C31 1_555 1_555
H32 C32 1_555 1_555
C33 C28 1_555 1_555
C34 O3 1_555 1_555
O5 C35 1_555 1_555
O6 C35 1_555 1_555
O7 Zn1 1_555 1_555
O8 C42 1_555 1_555
C35 C36 1_555 1_555
C36 C37 1_555 1_555
C37 H33 1_555 1_555
C38 C37 1_555 1_555
H34 C38 1_555 1_555
C39 C38 1_555 1_555
H35 C39 1_555 1_555
C40 C39 1_555 1_555
H36 C40 1_555 1_555
C41 C36 1_555 1_555
C42 O7 1_555 1_555
O9 H37 1_555 1_555
H38 O9 1_555 1_555
O10 H39 1_555 1_555
H40 O10 1_555 1_555
Zn1_2 N2 1_555 1_555
N2_2 Zn1 1_555 1_555
Zn2_2 N4 1_555 1_555
Zn2A O5 1_555 1_555
N4_2 Zn2 1_555 1_555
O5A Zn2 1_555 1_555
C4 C5 1_555 1_555
C12 C13 1_555 1_555
C12 N2 1_555 1_555
C17 C18 1_555 1_555
C25 C26 1_555 1_555
C25 N4 1_555 1_555
C32 C33 1_555 1_555
C33 C34 1_555 1_555
C40 C41 1_555 1_555
C41 C42 1_555 1_555

#END
