
#######################################################################
#
#                 Cambridge Crystallographic Data Centre
#                                CCDC 
#
#######################################################################
#
# If this CIF has been generated from an entry in the Cambridge 
# Structural Database, then it will include bibliographic, chemical, 
# crystal, experimental, refinement or atomic coordinate data resulting 
# from the CCDC's data processing and validation procedures.
#
#######################################################################

data_FAGJII
_symmetry_cell_setting           orthorhombic
_symmetry_space_group_name_H-M   'C 2 2 21'
_symmetry_Int_Tables_number      20
_space_group_name_Hall           'C 2n 2'
loop_
_symmetry_equiv_pos_site_id
_symmetry_equiv_pos_as_xyz
1 x,y,z
2 -x,-y,1/2+z
3 -x,y,1/2-z
4 x,-y,-z
5 1/2+x,1/2+y,z
6 1/2-x,1/2-y,1/2+z
7 1/2-x,1/2+y,1/2-z
8 1/2+x,1/2-y,-z
_cell_length_a                   10.504(2)
_cell_length_b                   15.411(3)
_cell_length_c                   20.264(4)
_cell_angle_alpha                90
_cell_angle_beta                 90
_cell_angle_gamma                90
_cell_volume                     3280.28
loop_
_atom_site_label
_atom_site_type_symbol
_atom_site_fract_x
_atom_site_fract_y
_atom_site_fract_z
Zn1 Zn 0.27158(4) 0.78287(3) 0.07109(2)
O1 O -0.1222(3) 0.8259(3) 0.37386(16)
O2 O -0.2255(4) 0.7317(3) 0.31317(17)
C1 C -0.1354(5) 0.7822(4) 0.3237(2)
C2 C -0.0384(4) 0.7903(3) 0.27157(19)
O3 O 0.1460(4) 0.6562(3) 0.0304(2)
O4 O 0.3494(3) 0.6692(2) 0.04624(16)
C3 C 0.2552(5) 0.6271(3) 0.0293(2)
C4 C 0.2742(5) 0.5369(3) 0.0077(2)
N1 N 0.2434(3) 0.1579(2) 0.01818(14)
N2 N 0.5710(3) -0.1550(2) 0.39417(16)
C5 C 0.1406(4) 0.1114(3) 0.0309(2)
H1 H 0.0825 0.1018 -0.0029
C6 C 0.3236(4) 0.1729(3) 0.0681(2)
H2 H 0.3965 0.2054 0.0600
C7 C 0.1158(4) 0.0763(3) 0.0925(2)
H3 H 0.0443 0.0416 0.0988
C8 C 0.3029(4) 0.1424(3) 0.1305(2)
H4 H 0.3604 0.1551 0.1640
C9 C 0.1963(4) 0.0925(3) 0.14399(19)
C10 C 0.1691(4) 0.0597(4) 0.2129(2)
H5 H 0.1496 0.1089 0.2410
H6 H 0.0942 0.0229 0.2115
C11 C 0.2770(4) 0.0093(3) 0.24343(18)
H7 H 0.3522 0.0458 0.2449
H8 H 0.2964 -0.0403 0.2157
C12 C 0.2471(4) -0.0225(3) 0.31289(17)
H9 H 0.2249 0.0266 0.3405
H10 H 0.1744 -0.0613 0.3114
C13 C 0.3583(4) -0.0690(3) 0.34226(19)
C14 C 0.3806(5) -0.1562(4) 0.3296(2)
H11 H 0.3243 -0.1878 0.3035
C15 C 0.4459(4) -0.0274(3) 0.3815(2)
H12 H 0.4357 0.0311 0.3914
C16 C 0.4871(5) -0.1957(3) 0.3561(2)
H13 H 0.5008 -0.2541 0.3467
C17 C 0.5490(4) -0.0722(3) 0.4063(2)
H14 H 0.6061 -0.0425 0.4331
Zn1B Zn -0.27158(4) 0.78287(3) 0.42891(2)
Zn1C Zn 0.27158(4) 0.21713(3) -0.07109(2)
Zn1B_2 Zn 0.72842(4) -0.21713(3) 0.42891(2)
Zn1A Zn 0.72842(4) 1.21713(3) -0.42891(2)
O1B O 0.1222(3) 0.8259(3) 0.12614(16)
O1A O 0.1222(3) 0.1741(3) -0.12614(16)
O2B O 0.2255(4) 0.7317(3) 0.18683(17)
C1B C 0.1354(5) 0.7822(4) 0.1763(2)
C2B C 0.0384(4) 0.7903(3) 0.22843(19)
O3C O 0.1460(4) 0.3438(3) -0.0304(2)
O4C O 0.3494(3) 0.3308(2) -0.04624(16)
C3C C 0.2552(5) 0.3729(3) -0.0293(2)
C4C C 0.2742(5) 0.4631(3) -0.0077(2)
N1C N 0.2434(3) 0.8421(2) -0.01818(14)
N2A N 0.4290(3) 0.1550(2) -0.10583(16)
N2C N 0.5710(3) 1.1550(2) -0.39417(16)
N2B N 0.4290(3) 0.8450(2) 0.10583(16)
C5C C 0.1406(4) 0.8886(3) -0.0309(2)
H1C H 0.0825 0.8982 0.0029
C6C C 0.3236(4) 0.8271(3) -0.0681(2)
H2C H 0.3965 0.7946 -0.0600
C7C C 0.1158(4) 0.9237(3) -0.0925(2)
H3C H 0.0443 0.9584 -0.0988
C8C C 0.3029(4) 0.8576(3) -0.1305(2)
H4C H 0.3604 0.8449 -0.1640
C9C C 0.1963(4) 0.9075(3) -0.14399(19)
C10C C 0.1691(4) 0.9403(4) -0.2129(2)
H5C H 0.1496 0.8911 -0.2410
H6C H 0.0942 0.9771 -0.2115
C11C C 0.2770(4) 0.9907(3) -0.24343(18)
H7C H 0.3522 0.9542 -0.2449
H8C H 0.2964 1.0403 -0.2157
C12C C 0.2471(4) 1.0225(3) -0.31289(17)
H9C H 0.2249 0.9734 -0.3405
H10C H 0.1744 1.0613 -0.3114
C13C C 0.3583(4) 1.0690(3) -0.34226(19)
C14C C 0.3806(5) 1.1562(4) -0.3296(2)
H11C H 0.3243 1.1878 -0.3035
C15C C 0.4459(4) 1.0274(3) -0.3815(2)
H12C H 0.4357 0.9689 -0.3914
C16C C 0.4871(5) 1.1957(3) -0.3561(2)
H13C H 0.5008 1.2541 -0.3467
C17C C 0.5490(4) 1.0722(3) -0.4063(2)
H14C H 0.6061 1.0425 -0.4331
loop_
_geom_bond_atom_site_label_1
_geom_bond_atom_site_label_2
_geom_bond_site_symmetry_1
_geom_bond_site_symmetry_2
Zn1 O4 1_555 1_555
O1 C1 1_555 1_555
O2 C1 1_555 1_555
C1 C2 1_555 1_555
C2 C2B 1_555 1_555
O3 C3 1_555 1_555
O4 C3 1_555 1_555
C3 C4 1_555 1_555
C4 C4C 1_555 1_555
N1 C5 1_555 1_555
N2 C16 1_555 1_555
C5 H1 1_555 1_555
C6 N1 1_555 1_555
H2 C6 1_555 1_555
C7 C5 1_555 1_555
H3 C7 1_555 1_555
C8 C6 1_555 1_555
H4 C8 1_555 1_555
C9 C7 1_555 1_555
C10 C9 1_555 1_555
H5 C10 1_555 1_555
H6 C10 1_555 1_555
C11 C10 1_555 1_555
H7 C11 1_555 1_555
H8 C11 1_555 1_555
C12 C11 1_555 1_555
H9 C12 1_555 1_555
H10 C12 1_555 1_555
C13 C12 1_555 1_555
C14 C13 1_555 1_555
H11 C14 1_555 1_555
C15 C13 1_555 1_555
H12 C15 1_555 1_555
C16 C14 1_555 1_555
H13 C16 1_555 1_555
C17 N2 1_555 1_555
H14 C17 1_555 1_555
Zn1B O1 1_555 1_555
Zn1C N1 1_555 1_555
Zn1B_2 N2 1_555 1_555
Zn1A N2C 1_555 1_555
O1B Zn1 1_555 1_555
O1A Zn1C 1_555 1_555
O2B C1B 1_555 1_555
C1B O1B 1_555 1_555
C2B C1B 1_555 1_555
O3C C3C 1_555 1_555
O4C Zn1C 1_555 1_555
C3C O4C 1_555 1_555
C4C C3C 1_555 1_555
N1C Zn1 1_555 1_555
N2A Zn1C 1_555 1_555
N2C C16C 1_555 1_555
N2B Zn1 1_555 1_555
C5C N1C 1_555 1_555
H1C C5C 1_555 1_555
C6C N1C 1_555 1_555
H2C C6C 1_555 1_555
C7C C5C 1_555 1_555
H3C C7C 1_555 1_555
C8C C6C 1_555 1_555
H4C C8C 1_555 1_555
C9C C7C 1_555 1_555
C10C C9C 1_555 1_555
H5C C10C 1_555 1_555
H6C C10C 1_555 1_555
C11C C10C 1_555 1_555
H7C C11C 1_555 1_555
H8C C11C 1_555 1_555
C12C C11C 1_555 1_555
H9C C12C 1_555 1_555
H10C C12C 1_555 1_555
C13C C12C 1_555 1_555
C14C C13C 1_555 1_555
H11C C14C 1_555 1_555
C15C C13C 1_555 1_555
H12C C15C 1_555 1_555
C16C C14C 1_555 1_555
H13C C16C 1_555 1_555
C17C N2C 1_555 1_555
H14C C17C 1_555 1_555
C8 C9 1_555 1_555
C15 C17 1_555 1_555
C8C C9C 1_555 1_555
C15C C17C 1_555 1_555

#END
