
#######################################################################
#
#                 Cambridge Crystallographic Data Centre
#                                CCDC 
#
#######################################################################
#
# If this CIF has been generated from an entry in the Cambridge 
# Structural Database, then it will include bibliographic, chemical, 
# crystal, experimental, refinement or atomic coordinate data resulting 
# from the CCDC's data processing and validation procedures.
#
#######################################################################

data_FAGJUU
_symmetry_cell_setting           triclinic
_symmetry_space_group_name_H-M   'P -1'
_symmetry_Int_Tables_number      2
_space_group_name_Hall           '-P 1'
loop_
_symmetry_equiv_pos_site_id
_symmetry_equiv_pos_as_xyz
1 x,y,z
2 -x,-y,-z
_cell_length_a                   9.2955(18)
_cell_length_b                   13.604(3)
_cell_length_c                   18.883(4)
_cell_angle_alpha                80.997(3)
_cell_angle_beta                 88.164(3)
_cell_angle_gamma                81.838(3)
_cell_volume                     2334.44
loop_
_atom_site_label
_atom_site_type_symbol
_atom_site_fract_x
_atom_site_fract_y
_atom_site_fract_z
Co1 Co 0.5000 1.0000 0.0000
Cl1 Cl 0.38989(15) 0.95818(10) 0.12067(7)
N1 N 0.5922(5) 0.8410(3) 0.0017(2)
N2 N 0.2695(5) 0.3804(3) 0.2137(2)
N3 N 0.1988(5) 0.2735(3) 0.3920(2)
N4 N 0.1077(5) 0.1064(4) 0.5439(2)
N5 N 0.2976(5) -0.0307(3) 0.9511(2)
C1 C 0.5308(6) 0.7676(4) 0.0405(3)
H1 H 0.4561 0.7858 0.0718
C2 C 0.5692(6) 0.6662(4) 0.0379(3)
C3 C 0.6825(7) 0.6410(4) -0.0077(3)
H2 H 0.7123 0.5740 -0.0121
C4 C 0.7521(7) 0.7159(5) -0.0468(3)
H3 H 0.8309 0.6996 -0.0764
C5 C 0.7029(7) 0.8138(5) -0.0413(3)
H4 H 0.7485 0.8638 -0.0686
C6 C 0.4906(6) 0.5915(4) 0.0828(3)
C7 C 0.3439(6) 0.6124(4) 0.0978(3)
H5 H 0.2939 0.6739 0.0773
C8 C 0.2682(6) 0.5464(4) 0.1418(3)
C9 C 0.3446(7) 0.4547(4) 0.1715(3)
C10 C 0.4940(6) 0.4296(4) 0.1565(3)
C11 C 0.5629(7) 0.4993(4) 0.1115(3)
H6 H 0.6608 0.4833 0.1004
C12 C 0.1065(7) 0.5727(5) 0.1569(4)
H7 H 0.0893 0.5507 0.2080
C13 C 0.0512(10) 0.6838(6) 0.1405(6)
H8 H 0.1182 0.7212 0.1586
H9 H -0.0421 0.6972 0.1630
H10 H 0.0423 0.7036 0.0896
C14 C 0.0148(9) 0.5171(8) 0.1142(6)
H11 H 0.0082 0.5499 0.0653
H12 H -0.0809 0.5180 0.1350
H13 H 0.0599 0.4489 0.1157
C15 C 0.5773(8) 0.3281(5) 0.1890(4)
H14 H 0.5079 0.2879 0.2157
C16 C 0.6861(18) 0.3411(9) 0.2384(9)
H15 H 0.6410 0.3510 0.2836
H16 H 0.7320 0.3986 0.2193
H17 H 0.7578 0.2823 0.2450
C17 C 0.6447(18) 0.2732(8) 0.1319(6)
H18 H 0.7394 0.2919 0.1203
H19 H 0.5850 0.2900 0.0899
H20 H 0.6533 0.2022 0.1482
C18 C 0.3186(10) 0.4420(6) 0.3277(4)
H21 H 0.3422 0.5014 0.2977
H22 H 0.4043 0.4067 0.3520
H23 H 0.2460 0.4605 0.3624
C19 C 0.2602(7) 0.3740(4) 0.2816(3)
C20 C 0.1861(7) 0.2894(4) 0.3210(3)
C21 C 0.1167(8) 0.2316(5) 0.2840(3)
H24 H 0.1120 0.2445 0.2343
C22 C 0.0531(8) 0.1525(5) 0.3231(3)
H25 H 0.0016 0.1128 0.3003
C23 C 0.0689(7) 0.1351(5) 0.3960(3)
H26 H 0.0308 0.0816 0.4233
C24 C 0.1410(7) 0.1968(4) 0.4289(3)
C25 C 0.1620(7) 0.1790(5) 0.5076(3)
C26 C 0.2441(10) 0.2512(6) 0.5406(4)
H27 H 0.2175 0.2493 0.5903
H28 H 0.2191 0.3183 0.5156
H29 H 0.3469 0.2310 0.5364
C27 C 0.1221(7) 0.0830(4) 0.6196(3)
C28 C 0.2443(7) 0.0194(5) 0.6481(3)
C29 C 0.2519(6) -0.0076(5) 0.7231(3)
H30 H 0.3345 -0.0477 0.7431
C30 C 0.1384(6) 0.0242(4) 0.7683(3)
C31 C 0.0170(6) 0.0839(4) 0.7370(3)
H31 H -0.0608 0.1038 0.7662
C32 C 0.0077(7) 0.1150(5) 0.6635(3)
C33 C 0.3661(8) -0.0231(6) 0.5994(4)
H32 H 0.3823 0.0312 0.5607
C34 C 0.3231(12) -0.1046(9) 0.5665(6)
H33 H 0.4066 -0.1385 0.5447
H34 H 0.2513 -0.0776 0.5306
H35 H 0.2833 -0.1514 0.6026
C35 C 0.5109(10) -0.0570(11) 0.6400(6)
H36 H 0.5169 -0.0159 0.6764
H37 H 0.5908 -0.0503 0.6069
H38 H 0.5150 -0.1260 0.6618
C36 C -0.1274(8) 0.1836(6) 0.6321(4)
H39 H -0.1107 0.1942 0.5801
C37 C -0.1400(17) 0.2880(8) 0.6541(9)
H40 H -0.0534 0.3171 0.6398
H41 H -0.1519 0.2824 0.7052
H42 H -0.2225 0.3300 0.6312
C38 C -0.2578(13) 0.1330(11) 0.6431(10)
H43 H -0.3048 0.1464 0.6872
H44 H -0.2303 0.0619 0.6452
H45 H -0.3233 0.1578 0.6040
C39 C 0.1501(6) -0.0097(4) 0.8452(3)
C40 C 0.0450(6) -0.0578(5) 0.8856(3)
H46 H -0.0408 -0.0660 0.8646
C41 C 0.0706(7) -0.0935(5) 0.9580(3)
H47 H 0.0024 -0.1268 0.9856
C42 C 0.1954(6) -0.0795(4) 0.9880(3)
H48 H 0.2111 -0.1046 1.0363
C43 C 0.2719(6) 0.0019(4) 0.8822(3)
H49 H 0.3417 0.0357 0.8563
Co1_2 Co 0.5000 0.0000 1.0000
Co1_3 Co 0.5000 2.0000 -1.0000
Cl1A Cl 0.61011(15) 1.04182(10) -0.12067(7)
N1_2 N 0.5922(5) 1.8410(3) -0.9983(2)
N1A N 0.4078(5) 1.1590(3) -0.0017(2)
N2_2 N 0.2695(5) 1.3804(3) -0.7863(2)
N3_2 N 0.1988(5) 1.2735(3) -0.6080(2)
N4_2 N 0.1077(5) 1.1064(4) -0.4561(2)
N5_2 N 0.2976(5) 0.9693(3) -0.0489(2)
N5A N 0.7024(5) 1.0307(3) 0.0489(2)
C1_2 C 0.5308(6) 1.7676(4) -0.9595(3)
H1_2 H 0.4561 1.7858 -0.9282
C2_2 C 0.5692(6) 1.6662(4) -0.9621(3)
C3_2 C 0.6825(7) 1.6410(4) -1.0077(3)
H2_2 H 0.7123 1.5740 -1.0121
C4_2 C 0.7521(7) 1.7159(5) -1.0468(3)
H3_2 H 0.8309 1.6996 -1.0764
C5_2 C 0.7029(7) 1.8138(5) -1.0413(3)
H4_2 H 0.7485 1.8638 -1.0686
C6_2 C 0.4906(6) 1.5915(4) -0.9172(3)
C7_2 C 0.3439(6) 1.6124(4) -0.9022(3)
H5_2 H 0.2939 1.6739 -0.9227
C8_2 C 0.2682(6) 1.5464(4) -0.8582(3)
C9_2 C 0.3446(7) 1.4547(4) -0.8285(3)
C10_2 C 0.4940(6) 1.4296(4) -0.8435(3)
C11_2 C 0.5629(7) 1.4993(4) -0.8885(3)
H6_2 H 0.6608 1.4833 -0.8996
C12_2 C 0.1065(7) 1.5727(5) -0.8431(4)
H7_2 H 0.0893 1.5507 -0.7920
C13_2 C 0.0512(10) 1.6838(6) -0.8595(6)
H8_2 H 0.1182 1.7212 -0.8414
H9_2 H -0.0421 1.6972 -0.8370
H10_2 H 0.0423 1.7036 -0.9104
C14_2 C 0.0148(9) 1.5171(8) -0.8858(6)
H11_2 H 0.0082 1.5499 -0.9347
H12_2 H -0.0809 1.5180 -0.8650
H13_2 H 0.0599 1.4489 -0.8843
C15_2 C 0.5773(8) 1.3281(5) -0.8110(4)
H14_2 H 0.5079 1.2879 -0.7843
C16_2 C 0.6861(18) 1.3411(9) -0.7616(9)
H15_2 H 0.6410 1.3510 -0.7164
H16_2 H 0.7320 1.3986 -0.7807
H17_2 H 0.7578 1.2823 -0.7550
C17_2 C 0.6447(18) 1.2732(8) -0.8681(6)
H18_2 H 0.7394 1.2919 -0.8797
H19_2 H 0.5850 1.2900 -0.9101
H20_2 H 0.6533 1.2022 -0.8518
C18_2 C 0.3186(10) 1.4420(6) -0.6723(4)
H21_2 H 0.3422 1.5014 -0.7023
H22_2 H 0.4043 1.4067 -0.6480
H23_2 H 0.2460 1.4605 -0.6376
C19_2 C 0.2602(7) 1.3740(4) -0.7184(3)
C20_2 C 0.1861(7) 1.2894(4) -0.6790(3)
C21_2 C 0.1167(8) 1.2316(5) -0.7160(3)
H24_2 H 0.1120 1.2445 -0.7657
C22_2 C 0.0531(8) 1.1525(5) -0.6769(3)
H25_2 H 0.0016 1.1128 -0.6997
C23_2 C 0.0689(7) 1.1351(5) -0.6040(3)
H26_2 H 0.0308 1.0816 -0.5767
C24_2 C 0.1410(7) 1.1968(4) -0.5711(3)
C25_2 C 0.1620(7) 1.1790(5) -0.4924(3)
C26_2 C 0.2441(10) 1.2512(6) -0.4594(4)
H27_2 H 0.2175 1.2493 -0.4097
H28_2 H 0.2191 1.3183 -0.4844
H29_2 H 0.3469 1.2310 -0.4636
C27_2 C 0.1221(7) 1.0830(4) -0.3804(3)
C28_2 C 0.2443(7) 1.0194(5) -0.3519(3)
C29_2 C 0.2519(6) 0.9924(5) -0.2769(3)
H30_2 H 0.3345 0.9523 -0.2569
C30_2 C 0.1384(6) 1.0242(4) -0.2317(3)
C31_2 C 0.0170(6) 1.0839(4) -0.2630(3)
H31_2 H -0.0608 1.1038 -0.2338
C32_2 C 0.0077(7) 1.1150(5) -0.3365(3)
C33_2 C 0.3661(8) 0.9769(6) -0.4006(4)
H32_2 H 0.3823 1.0312 -0.4393
C34_2 C 0.3231(12) 0.8954(9) -0.4335(6)
H33_2 H 0.4066 0.8615 -0.4553
H34_2 H 0.2513 0.9224 -0.4694
H35_2 H 0.2833 0.8486 -0.3974
C35_2 C 0.5109(10) 0.9430(11) -0.3600(6)
H36_2 H 0.5169 0.9841 -0.3236
H37_2 H 0.5908 0.9497 -0.3931
H38_2 H 0.5150 0.8740 -0.3382
C36_2 C -0.1274(8) 1.1836(6) -0.3679(4)
H39_2 H -0.1107 1.1942 -0.4199
C37_2 C -0.1400(17) 1.2880(8) -0.3459(9)
H40_2 H -0.0534 1.3171 -0.3602
H41_2 H -0.1519 1.2824 -0.2948
H42_2 H -0.2225 1.3300 -0.3688
C38_2 C -0.2578(13) 1.1330(11) -0.3569(10)
H43_2 H -0.3048 1.1464 -0.3128
H44_2 H -0.2303 1.0619 -0.3548
H45_2 H -0.3233 1.1578 -0.3960
C39_2 C 0.1501(6) 0.9903(4) -0.1548(3)
C40_2 C 0.0450(6) 0.9422(5) -0.1144(3)
H46_2 H -0.0408 0.9340 -0.1354
C41_2 C 0.0706(7) 0.9065(5) -0.0420(3)
H47_2 H 0.0024 0.8732 -0.0144
C42_2 C 0.1954(6) 0.9205(4) -0.0120(3)
H48_2 H 0.2111 0.8954 0.0363
C43_2 C 0.2719(6) 1.0019(4) -0.1178(3)
H49_2 H 0.3417 1.0357 -0.1437
C44 C 0.821(3) 0.379(2) 0.4246(15)
H50 H 0.8091 0.4039 0.3739
H51 H 0.8766 0.3119 0.4304
Cl2 Cl 0.907(2) 0.4616(18) 0.4686(13)
Cl3 Cl 0.6556(18) 0.3784(15) 0.4687(10)
C45 C 0.283(4) 0.374(2) 0.719(3)
H52 H 0.1986 0.3830 0.6887
H53 H 0.2730 0.4228 0.7518
Cl4 Cl 0.333(2) 0.2441(15) 0.7634(10)
Cl5 Cl 0.455(2) 0.3682(17) 0.6691(11)
loop_
_geom_bond_atom_site_label_1
_geom_bond_atom_site_label_2
_geom_bond_site_symmetry_1
_geom_bond_site_symmetry_2
Co1 Cl1 1_555 1_555
N1 Co1 1_555 1_555
N2 C9 1_555 1_555
N3 C20 1_555 1_555
N4 C25 1_555 1_555
N5 C42 1_555 1_555
C1 N1 1_555 1_555
H1 C1 1_555 1_555
C2 C1 1_555 1_555
C3 C2 1_555 1_555
H2 C3 1_555 1_555
C4 C3 1_555 1_555
H3 C4 1_555 1_555
C5 N1 1_555 1_555
H4 C5 1_555 1_555
C6 C2 1_555 1_555
C7 C6 1_555 1_555
H5 C7 1_555 1_555
C8 C7 1_555 1_555
C9 C8 1_555 1_555
C10 C9 1_555 1_555
C11 C6 1_555 1_555
H6 C11 1_555 1_555
C12 C8 1_555 1_555
H7 C12 1_555 1_555
C13 C12 1_555 1_555
H8 C13 1_555 1_555
H9 C13 1_555 1_555
H10 C13 1_555 1_555
C14 C12 1_555 1_555
H11 C14 1_555 1_555
H12 C14 1_555 1_555
H13 C14 1_555 1_555
C15 C10 1_555 1_555
H14 C15 1_555 1_555
C16 C15 1_555 1_555
H15 C16 1_555 1_555
H16 C16 1_555 1_555
H17 C16 1_555 1_555
C17 C15 1_555 1_555
H18 C17 1_555 1_555
H19 C17 1_555 1_555
H20 C17 1_555 1_555
C18 H21 1_555 1_555
H22 C18 1_555 1_555
H23 C18 1_555 1_555
C19 N2 1_555 1_555
C20 C19 1_555 1_555
C21 C20 1_555 1_555
H24 C21 1_555 1_555
C22 C21 1_555 1_555
H25 C22 1_555 1_555
C23 C22 1_555 1_555
H26 C23 1_555 1_555
C24 N3 1_555 1_555
C25 C24 1_555 1_555
C26 C25 1_555 1_555
H27 C26 1_555 1_555
H28 C26 1_555 1_555
H29 C26 1_555 1_555
C27 N4 1_555 1_555
C28 C27 1_555 1_555
C29 C28 1_555 1_555
H30 C29 1_555 1_555
C30 C29 1_555 1_555
C31 C30 1_555 1_555
H31 C31 1_555 1_555
C32 C27 1_555 1_555
C33 C28 1_555 1_555
H32 C33 1_555 1_555
C34 C33 1_555 1_555
H33 C34 1_555 1_555
H34 C34 1_555 1_555
H35 C34 1_555 1_555
C35 C33 1_555 1_555
H36 C35 1_555 1_555
H37 C35 1_555 1_555
H38 C35 1_555 1_555
C36 C32 1_555 1_555
H39 C36 1_555 1_555
C37 C36 1_555 1_555
H40 C37 1_555 1_555
H41 C37 1_555 1_555
H42 C37 1_555 1_555
C38 C36 1_555 1_555
H43 C38 1_555 1_555
H44 C38 1_555 1_555
H45 C38 1_555 1_555
C39 C30 1_555 1_555
C40 C39 1_555 1_555
H46 C40 1_555 1_555
C41 C40 1_555 1_555
H47 C41 1_555 1_555
C42 C41 1_555 1_555
H48 C42 1_555 1_555
C43 N5 1_555 1_555
H49 C43 1_555 1_555
C44 H50 1_555 1_555
H51 C44 1_555 1_555
Cl2 C44 1_555 1_555
Cl3 C44 1_555 1_555
C45 H52 1_555 1_555
H53 C45 1_555 1_555
Cl4 C45 1_555 1_555
Cl5 C45 1_555 1_555
Co1_2 N5 1_555 1_555
Co1_3 N1_2 1_555 1_555
Cl1A Co1 1_555 1_555
N1_2 C1_2 1_555 1_555
N1A Co1 1_555 1_555
N2_2 C9_2 1_555 1_555
N3_2 C20_2 1_555 1_555
N4_2 C25_2 1_555 1_555
N5_2 Co1 1_555 1_555
N5A Co1 1_555 1_555
C1_2 H1_2 1_555 1_555
C2_2 C1_2 1_555 1_555
C3_2 C2_2 1_555 1_555
H2_2 C3_2 1_555 1_555
C4_2 C3_2 1_555 1_555
H3_2 C4_2 1_555 1_555
C5_2 N1_2 1_555 1_555
H4_2 C5_2 1_555 1_555
C6_2 C2_2 1_555 1_555
C7_2 C6_2 1_555 1_555
H5_2 C7_2 1_555 1_555
C8_2 C7_2 1_555 1_555
C9_2 C8_2 1_555 1_555
C10_2 C9_2 1_555 1_555
C11_2 C6_2 1_555 1_555
H6_2 C11_2 1_555 1_555
C12_2 C8_2 1_555 1_555
H7_2 C12_2 1_555 1_555
C13_2 C12_2 1_555 1_555
H8_2 C13_2 1_555 1_555
H9_2 C13_2 1_555 1_555
H10_2 C13_2 1_555 1_555
C14_2 C12_2 1_555 1_555
H11_2 C14_2 1_555 1_555
H12_2 C14_2 1_555 1_555
H13_2 C14_2 1_555 1_555
C15_2 C10_2 1_555 1_555
H14_2 C15_2 1_555 1_555
C16_2 C15_2 1_555 1_555
H15_2 C16_2 1_555 1_555
H16_2 C16_2 1_555 1_555
H17_2 C16_2 1_555 1_555
C17_2 C15_2 1_555 1_555
H18_2 C17_2 1_555 1_555
H19_2 C17_2 1_555 1_555
H20_2 C17_2 1_555 1_555
C18_2 H21_2 1_555 1_555
H22_2 C18_2 1_555 1_555
H23_2 C18_2 1_555 1_555
C19_2 N2_2 1_555 1_555
C20_2 C19_2 1_555 1_555
C21_2 C20_2 1_555 1_555
H24_2 C21_2 1_555 1_555
C22_2 C21_2 1_555 1_555
H25_2 C22_2 1_555 1_555
C23_2 C22_2 1_555 1_555
H26_2 C23_2 1_555 1_555
C24_2 N3_2 1_555 1_555
C25_2 C24_2 1_555 1_555
C26_2 C25_2 1_555 1_555
H27_2 C26_2 1_555 1_555
H28_2 C26_2 1_555 1_555
H29_2 C26_2 1_555 1_555
C27_2 N4_2 1_555 1_555
C28_2 C27_2 1_555 1_555
C29_2 C28_2 1_555 1_555
H30_2 C29_2 1_555 1_555
C30_2 C29_2 1_555 1_555
C31_2 C30_2 1_555 1_555
H31_2 C31_2 1_555 1_555
C32_2 C27_2 1_555 1_555
C33_2 C28_2 1_555 1_555
H32_2 C33_2 1_555 1_555
C34_2 C33_2 1_555 1_555
H33_2 C34_2 1_555 1_555
H34_2 C34_2 1_555 1_555
H35_2 C34_2 1_555 1_555
C35_2 C33_2 1_555 1_555
H36_2 C35_2 1_555 1_555
H37_2 C35_2 1_555 1_555
H38_2 C35_2 1_555 1_555
C36_2 C32_2 1_555 1_555
H39_2 C36_2 1_555 1_555
C37_2 C36_2 1_555 1_555
H40_2 C37_2 1_555 1_555
H41_2 C37_2 1_555 1_555
H42_2 C37_2 1_555 1_555
C38_2 C36_2 1_555 1_555
H43_2 C38_2 1_555 1_555
H44_2 C38_2 1_555 1_555
H45_2 C38_2 1_555 1_555
C39_2 C30_2 1_555 1_555
C40_2 C39_2 1_555 1_555
H46_2 C40_2 1_555 1_555
C41_2 C40_2 1_555 1_555
H47_2 C41_2 1_555 1_555
C42_2 N5_2 1_555 1_555
H48_2 C42_2 1_555 1_555
C43_2 N5_2 1_555 1_555
H49_2 C43_2 1_555 1_555
C4 C5 1_555 1_555
C10 C11 1_555 1_555
C18 C19 1_555 1_555
C23 C24 1_555 1_555
C31 C32 1_555 1_555
C39 C43 1_555 1_555
C4_2 C5_2 1_555 1_555
C10_2 C11_2 1_555 1_555
C18_2 C19_2 1_555 1_555
C23_2 C24_2 1_555 1_555
C31_2 C32_2 1_555 1_555
C39_2 C43_2 1_555 1_555
C41_2 C42_2 1_555 1_555

#END
