
#######################################################################
#
#                 Cambridge Crystallographic Data Centre
#                                CCDC 
#
#######################################################################
#
# If this CIF has been generated from an entry in the Cambridge 
# Structural Database, then it will include bibliographic, chemical, 
# crystal, experimental, refinement or atomic coordinate data resulting 
# from the CCDC's data processing and validation procedures.
#
#######################################################################

data_FAGJAA
_symmetry_cell_setting           monoclinic
_symmetry_space_group_name_H-M   'P 21/n'
_symmetry_Int_Tables_number      14
_space_group_name_Hall           '-P 2yn'
loop_
_symmetry_equiv_pos_site_id
_symmetry_equiv_pos_as_xyz
1 x,y,z
2 1/2-x,1/2+y,1/2-z
3 -x,-y,-z
4 1/2+x,1/2-y,1/2+z
_cell_length_a                   11.703(2)
_cell_length_b                   18.550(4)
_cell_length_c                   11.954(2)
_cell_angle_alpha                90
_cell_angle_beta                 99.55(3)
_cell_angle_gamma                90
_cell_volume                     2559.14
loop_
_atom_site_label
_atom_site_type_symbol
_atom_site_fract_x
_atom_site_fract_y
_atom_site_fract_z
Zn1 Zn 0.60787(4) 0.05961(3) 0.74702(5)
N1 N 0.6106(3) -0.0508(2) 0.7571(3)
C1 C 0.5583(4) -0.0839(3) 0.8358(4)
H1 H 0.5273 -0.0554 0.8873
C2 C 0.5489(4) -0.1576(3) 0.8432(4)
H2 H 0.5131 -0.1777 0.8997
C3 C 0.5923(4) -0.2016(3) 0.7677(4)
C4 C 0.6450(4) -0.1682(3) 0.6868(4)
H3 H 0.6752 -0.1957 0.6335
C5 C 0.6531(4) -0.0941(3) 0.6845(4)
H4 H 0.6901 -0.0731 0.6296
C6 C 0.5808(4) -0.2824(3) 0.7746(4)
H5 H 0.6245 -0.2993 0.8459
H6 H 0.6135 -0.3047 0.7136
C7 C 0.4551(4) -0.3052(3) 0.7663(5)
H7 H 0.4222 -0.2803 0.8249
H8 H 0.4131 -0.2895 0.6936
C8 C 0.4362(4) -0.3849(3) 0.7781(5)
H9 H 0.4785 -0.4017 0.8501
H10 H 0.4653 -0.4105 0.7179
C9 C 0.3085(4) -0.4005(3) 0.7719(5)
C10 C 0.2535(4) -0.3931(3) 0.8647(4)
H11 H 0.2960 -0.3804 0.9347
C11 C 0.1375(4) -0.4042(3) 0.8546(4)
H12 H 0.1032 -0.3991 0.9190
N2 N 0.0696(3) -0.4222(2) 0.7570(3)
C12 C 0.1236(4) -0.4290(3) 0.6673(4)
H13 H 0.0794 -0.4415 0.5980
C13 C 0.2404(4) -0.4188(3) 0.6716(5)
H14 H 0.2732 -0.4244 0.6064
O1 O 0.7034(4) 0.1211(3) 0.8570(4)
O2 O 0.6244(4) 0.0564(3) 0.9767(4)
C14 C 0.7015(4) 0.0793(3) 0.5538(5)
C15 C 0.7029(4) 0.1079(3) 0.4332(4)
H15 H 0.6741 0.0704 0.3794
H16 H 0.6498 0.1483 0.4197
C16 C 0.8195(4) 0.1319(3) 0.4102(4)
C17 C 0.8422(5) 0.2038(3) 0.3973(5)
H17 H 0.7857 0.2380 0.4042
C18 C 0.9506(6) 0.2257(4) 0.3737(5)
H18 H 0.9658 0.2745 0.3653
C19 C 1.0335(5) 0.1757(5) 0.3630(5)
H19 H 1.1051 0.1904 0.3469
C20 C 1.0117(5) 0.1047(4) 0.3758(5)
H20 H 1.0682 0.0707 0.3683
C21 C 0.9058(5) 0.0829(3) 0.4000(5)
H21 H 0.8923 0.0340 0.4096
O3 O 0.6096(3) 0.0923(2) 0.5929(3)
O4 O 0.7833(4) 0.0458(2) 0.6051(4)
C22 C 0.6901(5) 0.1047(4) 0.9566(5)
C23 C 0.7542(5) 0.1470(5) 1.0556(6)
H22 H 0.7259 0.1962 1.0505
H23 H 0.7360 0.1266 1.1253
C24 C 0.8837(4) 0.1483(3) 1.0631(4)
C25 C 0.9469(7) 0.0873(4) 1.0729(6)
H24 H 0.9093 0.0433 1.0752
C26 C 1.0632(9) 0.0882(6) 1.0796(7)
H25 H 1.1043 0.0451 1.0848
C27 C 1.1180(8) 0.1489(9) 1.0788(8)
H26 H 1.1980 0.1482 1.0827
C28 C 1.0626(11) 0.2134(7) 1.0723(7)
H27 H 1.1032 0.2566 1.0746
C29 C 0.9408(7) 0.2118(4) 1.0620(5)
H28 H 0.8992 0.2548 1.0544
Zn1A Zn -0.10787(4) -0.44039(3) 0.75298(5)
N2A N 0.4304(3) 0.0778(2) 0.7430(3)
loop_
_geom_bond_atom_site_label_1
_geom_bond_atom_site_label_2
_geom_bond_site_symmetry_1
_geom_bond_site_symmetry_2
Zn1 N1 1_555 1_555
N1 C1 1_555 1_555
C1 H1 1_555 1_555
C2 C1 1_555 1_555
H2 C2 1_555 1_555
C3 C2 1_555 1_555
C4 C3 1_555 1_555
H3 C4 1_555 1_555
C5 N1 1_555 1_555
H4 C5 1_555 1_555
C6 C3 1_555 1_555
H5 C6 1_555 1_555
H6 C6 1_555 1_555
C7 C6 1_555 1_555
H7 C7 1_555 1_555
H8 C7 1_555 1_555
C8 C7 1_555 1_555
H9 C8 1_555 1_555
H10 C8 1_555 1_555
C9 C8 1_555 1_555
C10 C9 1_555 1_555
H11 C10 1_555 1_555
C11 C10 1_555 1_555
H12 C11 1_555 1_555
N2 C11 1_555 1_555
C12 N2 1_555 1_555
H13 C12 1_555 1_555
C13 C9 1_555 1_555
H14 C13 1_555 1_555
O1 Zn1 1_555 1_555
O2 C22 1_555 1_555
C14 C15 1_555 1_555
C15 H15 1_555 1_555
H16 C15 1_555 1_555
C16 C15 1_555 1_555
C17 C16 1_555 1_555
H17 C17 1_555 1_555
C18 C17 1_555 1_555
H18 C18 1_555 1_555
C19 C18 1_555 1_555
H19 C19 1_555 1_555
C20 C19 1_555 1_555
H20 C20 1_555 1_555
C21 C16 1_555 1_555
H21 C21 1_555 1_555
O3 Zn1 1_555 1_555
O4 C14 1_555 1_555
C22 O1 1_555 1_555
C23 C22 1_555 1_555
H22 C23 1_555 1_555
H23 C23 1_555 1_555
C24 C23 1_555 1_555
C25 C24 1_555 1_555
H24 C25 1_555 1_555
C26 C25 1_555 1_555
H25 C26 1_555 1_555
C27 C26 1_555 1_555
H26 C27 1_555 1_555
C28 C27 1_555 1_555
H27 C28 1_555 1_555
C29 C24 1_555 1_555
H28 C29 1_555 1_555
Zn1A N2 1_555 1_555
N2A Zn1 1_555 1_555
C4 C5 1_555 1_555
C12 C13 1_555 1_555
C14 O3 1_555 1_555
C20 C21 1_555 1_555
C28 C29 1_555 1_555

#END
