
#######################################################################
#
#                 Cambridge Crystallographic Data Centre
#                                CCDC 
#
#######################################################################
#
# If this CIF has been generated from an entry in the Cambridge 
# Structural Database, then it will include bibliographic, chemical, 
# crystal, experimental, refinement or atomic coordinate data resulting 
# from the CCDC's data processing and validation procedures.
#
#######################################################################

data_FAGKAB
_symmetry_cell_setting           triclinic
_symmetry_space_group_name_H-M   'P -1'
_symmetry_Int_Tables_number      2
_space_group_name_Hall           '-P 1'
loop_
_symmetry_equiv_pos_site_id
_symmetry_equiv_pos_as_xyz
1 x,y,z
2 -x,-y,-z
_cell_length_a                   9.3682(18)
_cell_length_b                   13.489(3)
_cell_length_c                   19.188(4)
_cell_angle_alpha                98.737(3)
_cell_angle_beta                 91.191(4)
_cell_angle_gamma                97.732(4)
_cell_volume                     2372.71
loop_
_atom_site_label
_atom_site_type_symbol
_atom_site_fract_x
_atom_site_fract_y
_atom_site_fract_z
Co1 Co 0.5000 0.0000 -0.5000
N1 N 0.6976(3) -0.0231(2) -0.44678(15)
N2 N 0.8863(4) 0.1123(2) -0.03878(16)
N3 N 0.7960(4) 0.2736(2) 0.11273(16)
N4 N 0.7257(4) 0.3748(2) 0.28757(16)
N5 N 0.4150(3) 0.8408(2) 0.49641(15)
N6 N 0.3433(6) 0.0517(4) -0.3476(2)
O1 O 0.4043(4) 0.0387(2) -0.40074(15)
O2 O 0.3161(12) -0.0039(7) -0.3095(3)
O3 O 0.2782(7) 0.1340(4) -0.3425(3)
C1 C 0.8025(4) -0.0701(3) -0.4796(2)
H1 H 0.7896 -0.0955 -0.5275
C2 C 0.9270(5) -0.0814(3) -0.4446(2)
H2 H 0.9963 -0.1146 -0.4687
C3 C 0.9497(5) -0.0441(3) -0.3740(2)
H3 H 1.0356 -0.0497 -0.3506
C4 C 0.8430(4) 0.0024(3) -0.33765(18)
C5 C 0.7207(4) 0.0121(3) -0.37726(19)
H4 H 0.6501 0.0452 -0.3541
C6 C 0.8529(4) 0.0362(3) -0.26057(19)
C7 C 0.7408(5) 0.0008(3) -0.21947(19)
H5 H 0.6595 -0.0399 -0.2415
C8 C 0.7490(5) 0.0259(3) -0.1457(2)
C9 C 0.8709(5) 0.0910(3) -0.11389(19)
C10 C 0.9842(5) 0.1288(3) -0.1541(2)
C11 C 0.9720(5) 0.0987(3) -0.2273(2)
H6 H 1.0466 0.1216 -0.2546
C12 C 0.6309(6) -0.0192(4) -0.1014(2)
H7 H 0.6143 0.0345 -0.0632
C13 C 0.6755(9) -0.1022(6) -0.0687(4)
H8 H 0.7626 -0.0782 -0.0405
H9 H 0.6922 -0.1564 -0.1049
H10 H 0.6009 -0.1264 -0.0394
C14 C 0.4838(7) -0.0567(7) -0.1434(4)
H11 H 0.4143 -0.0835 -0.1127
H12 H 0.4968 -0.1085 -0.1820
H13 H 0.4501 -0.0009 -0.1614
C15 C 1.1141(6) 0.1993(3) -0.1197(2)
H14 H 1.0950 0.2184 -0.0698
C16 C 1.2457(8) 0.1453(7) -0.1233(5)
H15 H 1.2227 0.0810 -0.1077
H16 H 1.3223 0.1857 -0.0935
H17 H 1.2758 0.1351 -0.1711
C17 C 1.1424(11) 0.2953(5) -0.1518(6)
H18 H 1.0620 0.3324 -0.1444
H19 H 1.1550 0.2783 -0.2015
H20 H 1.2281 0.3361 -0.1299
C18 C 0.8312(5) 0.1840(3) -0.00347(19)
C19 C 0.7506(8) 0.2563(4) -0.0331(3)
H21 H 0.7481 0.2419 -0.0837
H22 H 0.7975 0.3242 -0.0177
H23 H 0.6539 0.2498 -0.0170
C20 C 0.8544(5) 0.1970(3) 0.07582(19)
C21 C 0.9271(5) 0.1328(3) 0.1074(2)
H24 H 0.9684 0.0817 0.0805
C22 C 0.9374(6) 0.1461(4) 0.1802(2)
H25 H 0.9855 0.1033 0.2029
C23 C 0.8760(6) 0.2234(3) 0.2194(2)
H26 H 0.8813 0.2331 0.2685
C24 C 0.8064(5) 0.2858(3) 0.18307(19)
C25 C 0.7346(5) 0.3709(3) 0.2215(2)
C26 C 0.6805(7) 0.4424(4) 0.1779(2)
H27 H 0.6366 0.4925 0.2078
H28 H 0.6106 0.4054 0.1429
H29 H 0.7597 0.4752 0.1551
C27 C 0.6538(5) 0.4498(2) 0.32880(19)
C28 C 0.7336(4) 0.5430(3) 0.35905(19)
C29 C 0.6601(4) 0.6112(2) 0.40239(19)
H30 H 0.7103 0.6735 0.4227
C30 C 0.5150(4) 0.5891(2) 0.41596(19)
C31 C 0.4416(4) 0.4941(2) 0.3862(2)
H31 H 0.3451 0.4777 0.3956
C32 C 0.5087(5) 0.4241(2) 0.34304(19)
C33 C 0.8930(5) 0.5697(3) 0.3464(2)
H32 H 0.9055 0.5475 0.2961
C34 C 0.9856(6) 0.5109(5) 0.3869(4)
H33 H 0.9501 0.4399 0.3764
H34 H 0.9813 0.5334 0.4366
H35 H 1.0837 0.5224 0.3731
C35 C 0.9477(7) 0.6832(4) 0.3613(4)
H36 H 1.0485 0.6944 0.3521
H37 H 0.9337 0.7088 0.4098
H38 H 0.8952 0.7178 0.3313
C36 C 0.4216(5) 0.3222(3) 0.3099(2)
H39 H 0.4896 0.2776 0.2897
C37 C 0.3379(9) 0.2708(4) 0.3659(4)
H40 H 0.2871 0.2065 0.3443
H41 H 0.2701 0.3131 0.3863
H42 H 0.4041 0.2607 0.4022
C38 C 0.3166(11) 0.3309(6) 0.2530(4)
H43 H 0.3661 0.3627 0.2171
H44 H 0.2454 0.3711 0.2722
H45 H 0.2702 0.2646 0.2327
C39 C 0.4381(4) 0.6642(2) 0.45999(19)
C40 C 0.3292(5) 0.6362(3) 0.5036(2)
H46 H 0.3007 0.5684 0.5070
C41 C 0.2637(5) 0.7119(3) 0.5421(3)
H47 H 0.1885 0.6951 0.5709
C42 C 0.3102(5) 0.8118(3) 0.5376(2)
H48 H 0.2661 0.8613 0.5646
C43 C 0.4767(4) 0.7674(2) 0.45813(19)
H49 H 0.5495 0.7864 0.4286
Co1_2 Co 0.5000 -1.0000 -1.5000
Co1_3 Co 0.5000 1.0000 0.5000
N1A N 0.3024(3) 0.0231(2) -0.55322(15)
N2A N 0.1137(4) -0.1123(2) -0.96122(16)
N3A N 0.2040(4) -0.2736(2) -1.11273(16)
N4A N 0.2743(4) -0.3748(2) -1.28757(16)
N5A N 0.5850(3) -0.8408(2) -1.49641(15)
N5_2 N 0.4150(3) -0.1592(2) -0.50359(15)
N5A_2 N 0.5850(3) 0.1592(2) -0.49641(15)
N6A N 0.6567(6) -0.0517(4) -0.6524(2)
O1A O 0.5957(4) -0.0387(2) -0.59926(15)
O2A O 0.6839(12) 0.0039(7) -0.6905(3)
O3A O 0.7218(7) -0.1340(4) -0.6575(3)
C1A C 0.1975(4) 0.0701(3) -0.5204(2)
H1A H 0.2104 0.0955 -0.4725
C2A C 0.0730(5) 0.0814(3) -0.5554(2)
H2A H 0.0037 0.1146 -0.5313
C3A C 0.0503(5) 0.0441(3) -0.6260(2)
H3A H -0.0356 0.0497 -0.6494
C4A C 0.1570(4) -0.0024(3) -0.66235(18)
C5A C 0.2793(4) -0.0121(3) -0.62274(19)
H4A H 0.3499 -0.0452 -0.6459
C6A C 0.1471(4) -0.0362(3) -0.73943(19)
C7A C 0.2592(5) -0.0008(3) -0.78053(19)
H5A H 0.3405 0.0399 -0.7585
C8A C 0.2510(5) -0.0259(3) -0.8543(2)
C9A C 0.1291(5) -0.0910(3) -0.88611(19)
C10A C 0.0158(5) -0.1288(3) -0.8459(2)
C11A C 0.0280(5) -0.0987(3) -0.7727(2)
H6A H -0.0466 -0.1216 -0.7454
C12A C 0.3691(6) 0.0192(4) -0.8986(2)
H7A H 0.3857 -0.0345 -0.9368
C13A C 0.3245(9) 0.1022(6) -0.9313(4)
H8A H 0.2374 0.0782 -0.9595
H9A H 0.3078 0.1564 -0.8951
H10A H 0.3991 0.1264 -0.9606
C14A C 0.5162(7) 0.0567(7) -0.8566(4)
H11A H 0.5857 0.0835 -0.8873
H12A H 0.5032 0.1085 -0.8180
H13A H 0.5499 0.0009 -0.8386
C15A C -0.1141(6) -0.1993(3) -0.8803(2)
H14A H -0.0950 -0.2184 -0.9302
C16A C -0.2457(8) -0.1453(7) -0.8767(5)
H15A H -0.2227 -0.0810 -0.8923
H16A H -0.3223 -0.1857 -0.9065
H17A H -0.2758 -0.1351 -0.8289
C17A C -0.1424(11) -0.2953(5) -0.8482(6)
H18A H -0.0620 -0.3324 -0.8556
H19A H -0.1550 -0.2783 -0.7985
H20A H -0.2281 -0.3361 -0.8701
C18A C 0.1688(5) -0.1840(3) -0.99653(19)
C19A C 0.2494(8) -0.2563(4) -0.9669(3)
H21A H 0.2519 -0.2419 -0.9163
H22A H 0.2025 -0.3242 -0.9823
H23A H 0.3461 -0.2498 -0.9830
C20A C 0.1456(5) -0.1970(3) -1.07582(19)
C21A C 0.0729(5) -0.1328(3) -1.1074(2)
H24A H 0.0316 -0.0817 -1.0805
C22A C 0.0626(6) -0.1461(4) -1.1802(2)
H25A H 0.0145 -0.1033 -1.2029
C23A C 0.1240(6) -0.2234(3) -1.2194(2)
H26A H 0.1187 -0.2331 -1.2685
C24A C 0.1936(5) -0.2858(3) -1.18307(19)
C25A C 0.2654(5) -0.3709(3) -1.2215(2)
C26A C 0.3195(7) -0.4424(4) -1.1779(2)
H27A H 0.3634 -0.4925 -1.2078
H28A H 0.3894 -0.4054 -1.1429
H29A H 0.2403 -0.4752 -1.1551
C27A C 0.3462(5) -0.4498(2) -1.32880(19)
C28A C 0.2664(4) -0.5430(3) -1.35905(19)
C29A C 0.3399(4) -0.6112(2) -1.40239(19)
H30A H 0.2897 -0.6735 -1.4227
C30A C 0.4850(4) -0.5891(2) -1.41596(19)
C31A C 0.5584(4) -0.4941(2) -1.3862(2)
H31A H 0.6549 -0.4777 -1.3956
C32A C 0.4913(5) -0.4241(2) -1.34304(19)
C33A C 0.1070(5) -0.5697(3) -1.3464(2)
H32A H 0.0945 -0.5475 -1.2961
C34A C 0.0144(6) -0.5109(5) -1.3869(4)
H33A H 0.0499 -0.4399 -1.3764
H34A H 0.0187 -0.5334 -1.4366
H35A H -0.0837 -0.5224 -1.3731
C35A C 0.0523(7) -0.6832(4) -1.3613(4)
H36A H -0.0485 -0.6944 -1.3521
H37A H 0.0663 -0.7088 -1.4098
H38A H 0.1048 -0.7178 -1.3313
C36A C 0.5784(5) -0.3222(3) -1.3099(2)
H39A H 0.5104 -0.2776 -1.2897
C37A C 0.6621(9) -0.2708(4) -1.3659(4)
H40A H 0.7129 -0.2065 -1.3443
H41A H 0.7299 -0.3131 -1.3863
H42A H 0.5959 -0.2607 -1.4022
C38A C 0.6834(11) -0.3309(6) -1.2530(4)
H43A H 0.6339 -0.3627 -1.2171
H44A H 0.7546 -0.3711 -1.2722
H45A H 0.7298 -0.2646 -1.2327
C39A C 0.5619(4) -0.6642(2) -1.45999(19)
C40A C 0.6708(5) -0.6362(3) -1.5036(2)
H46A H 0.6993 -0.5684 -1.5070
C41A C 0.7363(5) -0.7119(3) -1.5421(3)
H47A H 0.8115 -0.6951 -1.5709
C42A C 0.6898(5) -0.8118(3) -1.5376(2)
H48A H 0.7339 -0.8613 -1.5646
C43A C 0.5233(4) -0.7674(2) -1.45813(19)
H49A H 0.4505 -0.7864 -1.4286
C44 C 0.391(4) 0.660(5) 0.2428(17)
H50 H 0.3905 0.7328 0.2550
H51 H 0.4502 0.6378 0.2778
Cl1 Cl 0.4532(13) 0.6294(9) 0.1576(6)
Cl2 Cl 0.215(2) 0.5940(17) 0.2358(11)
C45 C 0.186(3) 0.368(2) 0.0703(17)
H52 H 0.1422 0.3018 0.0474
H53 H 0.2011 0.3655 0.1200
Cl3 Cl 0.350(2) 0.4001(18) 0.0340(13)
Cl4 Cl 0.070(3) 0.454(2) 0.0613(17)
loop_
_geom_bond_atom_site_label_1
_geom_bond_atom_site_label_2
_geom_bond_site_symmetry_1
_geom_bond_site_symmetry_2
Co1 N1 1_555 1_555
N1 C1 1_555 1_555
N2 C9 1_555 1_555
N3 C20 1_555 1_555
N4 C25 1_555 1_555
N5 C42 1_555 1_555
N6 O1 1_555 1_555
O1 Co1 1_555 1_555
O2 N6 1_555 1_555
O3 N6 1_555 1_555
C1 H1 1_555 1_555
C2 C1 1_555 1_555
H2 C2 1_555 1_555
C3 C2 1_555 1_555
H3 C3 1_555 1_555
C4 C3 1_555 1_555
C5 N1 1_555 1_555
H4 C5 1_555 1_555
C6 C4 1_555 1_555
C7 C6 1_555 1_555
H5 C7 1_555 1_555
C8 C7 1_555 1_555
C9 C8 1_555 1_555
C10 C9 1_555 1_555
C11 C6 1_555 1_555
H6 C11 1_555 1_555
C12 C8 1_555 1_555
H7 C12 1_555 1_555
C13 C12 1_555 1_555
H8 C13 1_555 1_555
H9 C13 1_555 1_555
H10 C13 1_555 1_555
C14 C12 1_555 1_555
H11 C14 1_555 1_555
H12 C14 1_555 1_555
H13 C14 1_555 1_555
C15 C10 1_555 1_555
H14 C15 1_555 1_555
C16 C15 1_555 1_555
H15 C16 1_555 1_555
H16 C16 1_555 1_555
H17 C16 1_555 1_555
C17 C15 1_555 1_555
H18 C17 1_555 1_555
H19 C17 1_555 1_555
H20 C17 1_555 1_555
C18 N2 1_555 1_555
C19 C18 1_555 1_555
H21 C19 1_555 1_555
H22 C19 1_555 1_555
H23 C19 1_555 1_555
C20 C18 1_555 1_555
C21 C20 1_555 1_555
H24 C21 1_555 1_555
C22 C21 1_555 1_555
H25 C22 1_555 1_555
C23 C22 1_555 1_555
H26 C23 1_555 1_555
C24 N3 1_555 1_555
C25 C24 1_555 1_555
C26 C25 1_555 1_555
H27 C26 1_555 1_555
H28 C26 1_555 1_555
H29 C26 1_555 1_555
C27 N4 1_555 1_555
C28 C27 1_555 1_555
C29 C28 1_555 1_555
H30 C29 1_555 1_555
C30 C29 1_555 1_555
C31 C30 1_555 1_555
H31 C31 1_555 1_555
C32 C27 1_555 1_555
C33 C28 1_555 1_555
H32 C33 1_555 1_555
C34 C33 1_555 1_555
H33 C34 1_555 1_555
H34 C34 1_555 1_555
H35 C34 1_555 1_555
C35 C33 1_555 1_555
H36 C35 1_555 1_555
H37 C35 1_555 1_555
H38 C35 1_555 1_555
C36 C32 1_555 1_555
H39 C36 1_555 1_555
C37 C36 1_555 1_555
H40 C37 1_555 1_555
H41 C37 1_555 1_555
H42 C37 1_555 1_555
C38 C36 1_555 1_555
H43 C38 1_555 1_555
H44 C38 1_555 1_555
H45 C38 1_555 1_555
C39 C30 1_555 1_555
C40 C39 1_555 1_555
H46 C40 1_555 1_555
C41 C40 1_555 1_555
H47 C41 1_555 1_555
C42 C41 1_555 1_555
H48 C42 1_555 1_555
C43 N5 1_555 1_555
H49 C43 1_555 1_555
C44 H50 1_555 1_555
H51 C44 1_555 1_555
Cl1 C44 1_555 1_555
Cl2 C44 1_555 1_555
C45 H52 1_555 1_555
H53 C45 1_555 1_555
Cl3 C45 1_555 1_555
Cl4 C45 1_555 1_555
Co1_2 N5A 1_555 1_555
Co1_3 N5 1_555 1_555
N1A Co1 1_555 1_555
N2A C9A 1_555 1_555
N3A C20A 1_555 1_555
N4A C25A 1_555 1_555
N5A C42A 1_555 1_555
N5_2 Co1 1_555 1_555
N5A_2 Co1 1_555 1_555
N6A O1A 1_555 1_555
O1A Co1 1_555 1_555
O2A N6A 1_555 1_555
O3A N6A 1_555 1_555
C1A N1A 1_555 1_555
H1A C1A 1_555 1_555
C2A C1A 1_555 1_555
H2A C2A 1_555 1_555
C3A C2A 1_555 1_555
H3A C3A 1_555 1_555
C4A C3A 1_555 1_555
C5A N1A 1_555 1_555
H4A C5A 1_555 1_555
C6A C4A 1_555 1_555
C7A C6A 1_555 1_555
H5A C7A 1_555 1_555
C8A C7A 1_555 1_555
C9A C8A 1_555 1_555
C10A C9A 1_555 1_555
C11A C6A 1_555 1_555
H6A C11A 1_555 1_555
C12A C8A 1_555 1_555
H7A C12A 1_555 1_555
C13A C12A 1_555 1_555
H8A C13A 1_555 1_555
H9A C13A 1_555 1_555
H10A C13A 1_555 1_555
C14A C12A 1_555 1_555
H11A C14A 1_555 1_555
H12A C14A 1_555 1_555
H13A C14A 1_555 1_555
C15A C10A 1_555 1_555
H14A C15A 1_555 1_555
C16A C15A 1_555 1_555
H15A C16A 1_555 1_555
H16A C16A 1_555 1_555
H17A C16A 1_555 1_555
C17A C15A 1_555 1_555
H18A C17A 1_555 1_555
H19A C17A 1_555 1_555
H20A C17A 1_555 1_555
C18A N2A 1_555 1_555
C19A C18A 1_555 1_555
H21A C19A 1_555 1_555
H22A C19A 1_555 1_555
H23A C19A 1_555 1_555
C20A C18A 1_555 1_555
C21A C20A 1_555 1_555
H24A C21A 1_555 1_555
C22A C21A 1_555 1_555
H25A C22A 1_555 1_555
C23A C22A 1_555 1_555
H26A C23A 1_555 1_555
C24A N3A 1_555 1_555
C25A C24A 1_555 1_555
C26A C25A 1_555 1_555
H27A C26A 1_555 1_555
H28A C26A 1_555 1_555
H29A C26A 1_555 1_555
C27A N4A 1_555 1_555
C28A C27A 1_555 1_555
C29A C28A 1_555 1_555
H30A C29A 1_555 1_555
C30A C29A 1_555 1_555
C31A C30A 1_555 1_555
H31A C31A 1_555 1_555
C32A C27A 1_555 1_555
C33A C28A 1_555 1_555
H32A C33A 1_555 1_555
C34A C33A 1_555 1_555
H33A C34A 1_555 1_555
H34A C34A 1_555 1_555
H35A C34A 1_555 1_555
C35A C33A 1_555 1_555
H36A C35A 1_555 1_555
H37A C35A 1_555 1_555
H38A C35A 1_555 1_555
C36A C32A 1_555 1_555
H39A C36A 1_555 1_555
C37A C36A 1_555 1_555
H40A C37A 1_555 1_555
H41A C37A 1_555 1_555
H42A C37A 1_555 1_555
C38A C36A 1_555 1_555
H43A C38A 1_555 1_555
H44A C38A 1_555 1_555
H45A C38A 1_555 1_555
C39A C30A 1_555 1_555
C40A C39A 1_555 1_555
H46A C40A 1_555 1_555
C41A C40A 1_555 1_555
H47A C41A 1_555 1_555
C42A C41A 1_555 1_555
H48A C42A 1_555 1_555
C43A N5A 1_555 1_555
H49A C43A 1_555 1_555
C4 C5 1_555 1_555
C10 C11 1_555 1_555
C23 C24 1_555 1_555
C31 C32 1_555 1_555
C39 C43 1_555 1_555
C4A C5A 1_555 1_555
C10A C11A 1_555 1_555
C23A C24A 1_555 1_555
C31A C32A 1_555 1_555
C39A C43A 1_555 1_555

#END
