
#######################################################################
#
#                 Cambridge Crystallographic Data Centre
#                                CCDC 
#
#######################################################################
#
# If this CIF has been generated from an entry in the Cambridge 
# Structural Database, then it will include bibliographic, chemical, 
# crystal, experimental, refinement or atomic coordinate data resulting 
# from the CCDC's data processing and validation procedures.
#
#######################################################################

data_FAGKIJ
_symmetry_cell_setting           monoclinic
_symmetry_space_group_name_H-M   'P 21/c'
_symmetry_Int_Tables_number      14
_space_group_name_Hall           '-P 2ybc'
loop_
_symmetry_equiv_pos_site_id
_symmetry_equiv_pos_as_xyz
1 x,y,z
2 -x,1/2+y,1/2-z
3 -x,-y,-z
4 x,1/2-y,1/2+z
_cell_length_a                   13.3784(13)
_cell_length_b                   24.485(2)
_cell_length_c                   18.8723(18)
_cell_angle_alpha                90
_cell_angle_beta                 100.633(2)
_cell_angle_gamma                90
_cell_volume                     6075.85
loop_
_atom_site_label
_atom_site_type_symbol
_atom_site_fract_x
_atom_site_fract_y
_atom_site_fract_z
Co1 Co 0.47621(4) 0.46887(2) 0.75817(3)
Co2 Co -0.03350(4) 0.21987(2) 0.48292(3)
O1 O 0.1152(3) 0.23309(17) 0.4479(2)
O2 O 0.0316(3) 0.30218(15) 0.46988(19)
O3 O 0.1723(3) 0.3137(2) 0.4294(2)
O4 O -0.1871(3) 0.20228(18) 0.5005(2)
O5 O -0.3041(3) 0.2530(3) 0.5271(3)
O6 O -0.1588(4) 0.28398(19) 0.5200(2)
O7 O -0.0242(2) 0.13711(12) 0.46909(17)
O8 O 0.1250(2) 0.12765(14) 0.53632(19)
O9 O 0.0406(3) 0.05878(16) 0.4951(3)
O10 O 0.3465(3) 0.47501(17) 0.6812(2)
O11 O 0.3305(2) 0.47137(13) 0.79169(19)
O12 O 0.1969(3) 0.4801(3) 0.7109(3)
N1 N 0.0248(2) 0.21639(14) 0.59476(18)
N2 N 0.4895(2) 0.38373(12) 0.79086(16)
N3 N 0.6065(2) 0.46495(13) 0.83406(15)
N4 N 0.5068(2) 0.55282(13) 0.79482(16)
N5 N 0.0994(2) 0.77141(14) 0.6299(2)
N6 N 0.1086(3) 0.2836(2) 0.4475(2)
N7 N -0.2192(3) 0.2464(3) 0.5168(2)
N8 N 0.0495(3) 0.10661(17) 0.5018(2)
N9 N 0.2876(3) 0.4757(2) 0.7283(3)
C1 C 0.1046(3) 0.24543(17) 0.6250(2)
H1 H 0.1297 0.2711 0.5964
C2 C 0.1537(3) 0.24061(17) 0.6959(2)
C3 C 0.1144(3) 0.20417(19) 0.7391(2)
H2 H 0.1445 0.1997 0.7872
C4 C 0.0288(3) 0.1742(2) 0.7094(3)
H3 H -0.0005 0.1499 0.7375
C5 C -0.0119(3) 0.18118(18) 0.6372(3)
H4 H -0.0679 0.1602 0.6172
C6 C 0.2447(3) 0.27524(16) 0.7228(2)
C7 C 0.3146(3) 0.28607(16) 0.6789(2)
H5 H 0.3055 0.2702 0.6334
C8 C 0.3980(3) 0.32007(17) 0.7008(2)
C9 C 0.4097(3) 0.34337(16) 0.76940(19)
C10 C 0.3428(3) 0.33240(16) 0.8156(2)
C11 C 0.2601(3) 0.29756(16) 0.7910(2)
H6 H 0.2148 0.2894 0.8214
C12 C 0.4737(3) 0.3273(2) 0.6515(2)
H7 H 0.5266 0.3524 0.6750
C13 C 0.5252(4) 0.2729(3) 0.6395(4)
H8 H 0.5541 0.2572 0.6853
H9 H 0.5780 0.2792 0.6123
H10 H 0.4757 0.2483 0.6135
C14 C 0.4263(4) 0.3518(3) 0.5800(3)
H11 H 0.3797 0.3261 0.5533
H12 H 0.4786 0.3605 0.5531
H13 H 0.3903 0.3845 0.5879
C15 C 0.3553(3) 0.35408(19) 0.8925(2)
H14 H 0.4133 0.3792 0.9006
C16 C 0.3785(4) 0.3071(2) 0.9464(2)
H15 H 0.3263 0.2798 0.9357
H16 H 0.3805 0.3207 0.9944
H17 H 0.4431 0.2913 0.9430
C17 C 0.2608(4) 0.3855(2) 0.9047(3)
H18 H 0.2043 0.3608 0.9010
H19 H 0.2452 0.4136 0.8690
H20 H 0.2738 0.4017 0.9519
C18 C 0.6060(3) 0.31372(17) 0.8529(3)
H21 H 0.5487 0.2897 0.8409
H22 H 0.6299 0.3133 0.9040
H23 H 0.6593 0.3018 0.8288
C19 C 0.5751(3) 0.36973(15) 0.8296(2)
C20 C 0.6456(2) 0.41574(16) 0.85395(19)
C21 C 0.7425(3) 0.41217(17) 0.8964(2)
H24 H 0.7708 0.3783 0.9108
C22 C 0.7954(3) 0.45929(17) 0.9165(2)
H25 H 0.8606 0.4573 0.9440
C23 C 0.7533(3) 0.50919(18) 0.8967(2)
H26 H 0.7886 0.5412 0.9114
C24 C 0.6566(3) 0.51105(16) 0.8542(2)
C25 C 0.5969(3) 0.56143(16) 0.8307(2)
C26 C 0.6440(3) 0.61595(17) 0.8504(3)
H27 H 0.6947 0.6232 0.8216
H28 H 0.6751 0.6160 0.9005
H29 H 0.5924 0.6437 0.8417
C27 C 0.4359(3) 0.59766(15) 0.7758(2)
C28 C 0.4330(3) 0.62663(17) 0.7128(2)
C29 C 0.3596(3) 0.66675(17) 0.6955(2)
H30 H 0.3564 0.6863 0.6528
C30 C 0.2903(3) 0.67871(17) 0.7404(2)
C31 C 0.2963(3) 0.64859(17) 0.8035(2)
H31 H 0.2515 0.6566 0.8343
C32 C 0.3665(3) 0.60705(15) 0.8220(2)
C33 C 0.5066(3) 0.61585(19) 0.6622(2)
H32 H 0.5555 0.5883 0.6845
C34 C 0.4521(5) 0.5936(3) 0.5905(3)
H33 H 0.4172 0.5605 0.5984
H34 H 0.5008 0.5861 0.5602
H35 H 0.4039 0.6201 0.5676
C35 C 0.5667(4) 0.6683(3) 0.6504(4)
H36 H 0.5227 0.6932 0.6200
H37 H 0.6231 0.6589 0.6279
H38 H 0.5915 0.6854 0.6961
C36 C 0.3680(3) 0.57488(18) 0.8903(2)
H39 H 0.4034 0.5404 0.8853
C37 C 0.2604(3) 0.5604(2) 0.9030(3)
H40 H 0.2311 0.5916 0.9221
H41 H 0.2648 0.5307 0.9367
H42 H 0.2186 0.5498 0.8582
C38 C 0.4275(4) 0.6045(2) 0.9565(2)
H43 H 0.4950 0.6125 0.9487
H44 H 0.4314 0.5817 0.9982
H45 H 0.3935 0.6380 0.9638
C39 C 0.2142(3) 0.72307(17) 0.7214(2)
C40 C 0.1890(3) 0.75832(19) 0.7729(3)
H46 H 0.2189 0.7542 0.8212
C41 C 0.1194(4) 0.7994(2) 0.7521(3)
H47 H 0.1011 0.8231 0.7861
C42 C 0.0773(3) 0.8048(2) 0.6802(3)
H48 H 0.0315 0.8331 0.6663
C43 C 0.1663(3) 0.73091(17) 0.6505(2)
H49 H 0.1810 0.7070 0.6156
N10 N 0.5692(3) 0.46593(18) 0.6822(2)
C44 C 0.7063(9) 0.4191(9) 0.5980(7)
H50 H 0.6704 0.3897 0.5707
H51 H 0.7682 0.4054 0.6264
H52 H 0.7220 0.4468 0.5658
C45 C 0.6346(10) 0.4454(6) 0.6517(6)
Co2B Co 0.03350(4) 0.78013(2) 0.51708(3)
N5B N -0.0994(2) 0.22859(14) 0.3701(2)
loop_
_geom_bond_atom_site_label_1
_geom_bond_atom_site_label_2
_geom_bond_site_symmetry_1
_geom_bond_site_symmetry_2
Co1 O10 1_555 1_555
Co2 O1 1_555 1_555
O1 N6 1_555 1_555
O2 Co2 1_555 1_555
O3 N6 1_555 1_555
O4 Co2 1_555 1_555
O5 N7 1_555 1_555
O6 N7 1_555 1_555
O7 Co2 1_555 1_555
O8 N8 1_555 1_555
O9 N8 1_555 1_555
O10 N9 1_555 1_555
O11 Co1 1_555 1_555
O12 N9 1_555 1_555
N1 Co2 1_555 1_555
N2 Co1 1_555 1_555
N3 Co1 1_555 1_555
N4 Co1 1_555 1_555
N5 C42 1_555 1_555
N6 O2 1_555 1_555
N7 O4 1_555 1_555
N8 O7 1_555 1_555
N9 O11 1_555 1_555
C1 N1 1_555 1_555
H1 C1 1_555 1_555
C2 C1 1_555 1_555
C3 C2 1_555 1_555
H2 C3 1_555 1_555
C4 C3 1_555 1_555
H3 C4 1_555 1_555
C5 N1 1_555 1_555
H4 C5 1_555 1_555
C6 C2 1_555 1_555
C7 C6 1_555 1_555
H5 C7 1_555 1_555
C8 C7 1_555 1_555
C9 N2 1_555 1_555
C10 C9 1_555 1_555
C11 C6 1_555 1_555
H6 C11 1_555 1_555
C12 C8 1_555 1_555
H7 C12 1_555 1_555
C13 C12 1_555 1_555
H8 C13 1_555 1_555
H9 C13 1_555 1_555
H10 C13 1_555 1_555
C14 C12 1_555 1_555
H11 C14 1_555 1_555
H12 C14 1_555 1_555
H13 C14 1_555 1_555
C15 C10 1_555 1_555
H14 C15 1_555 1_555
C16 C15 1_555 1_555
H15 C16 1_555 1_555
H16 C16 1_555 1_555
H17 C16 1_555 1_555
C17 C15 1_555 1_555
H18 C17 1_555 1_555
H19 C17 1_555 1_555
H20 C17 1_555 1_555
C18 H21 1_555 1_555
H22 C18 1_555 1_555
H23 C18 1_555 1_555
C19 N2 1_555 1_555
C20 N3 1_555 1_555
C21 C20 1_555 1_555
H24 C21 1_555 1_555
C22 C21 1_555 1_555
H25 C22 1_555 1_555
C23 C22 1_555 1_555
H26 C23 1_555 1_555
C24 N3 1_555 1_555
C25 N4 1_555 1_555
C26 C25 1_555 1_555
H27 C26 1_555 1_555
H28 C26 1_555 1_555
H29 C26 1_555 1_555
C27 N4 1_555 1_555
C28 C27 1_555 1_555
C29 C28 1_555 1_555
H30 C29 1_555 1_555
C30 C29 1_555 1_555
C31 C30 1_555 1_555
H31 C31 1_555 1_555
C32 C27 1_555 1_555
C33 C28 1_555 1_555
H32 C33 1_555 1_555
C34 C33 1_555 1_555
H33 C34 1_555 1_555
H34 C34 1_555 1_555
H35 C34 1_555 1_555
C35 C33 1_555 1_555
H36 C35 1_555 1_555
H37 C35 1_555 1_555
H38 C35 1_555 1_555
C36 C32 1_555 1_555
H39 C36 1_555 1_555
C37 C36 1_555 1_555
H40 C37 1_555 1_555
H41 C37 1_555 1_555
H42 C37 1_555 1_555
C38 C36 1_555 1_555
H43 C38 1_555 1_555
H44 C38 1_555 1_555
H45 C38 1_555 1_555
C39 C30 1_555 1_555
C40 C39 1_555 1_555
H46 C40 1_555 1_555
C41 C40 1_555 1_555
H47 C41 1_555 1_555
C42 C41 1_555 1_555
H48 C42 1_555 1_555
C43 N5 1_555 1_555
H49 C43 1_555 1_555
N10 Co1 1_555 1_555
C44 H50 1_555 1_555
H51 C44 1_555 1_555
H52 C44 1_555 1_555
C45 N10 1_555 1_555
Co2B N5 1_555 1_555
N5B Co2 1_555 1_555
C4 C5 1_555 1_555
C8 C9 1_555 1_555
C10 C11 1_555 1_555
C18 C19 1_555 1_555
C19 C20 1_555 1_555
C23 C24 1_555 1_555
C24 C25 1_555 1_555
C31 C32 1_555 1_555
C39 C43 1_555 1_555
C44 C45 1_555 1_555

#END
