
#######################################################################
#
#                 Cambridge Crystallographic Data Centre
#                                CCDC 
#
#######################################################################
#
# If this CIF has been generated from an entry in the Cambridge 
# Structural Database, then it will include bibliographic, chemical, 
# crystal, experimental, refinement or atomic coordinate data resulting 
# from the CCDC's data processing and validation procedures.
#
#######################################################################

data_FAGKEF
_symmetry_cell_setting           orthorhombic
_symmetry_space_group_name_H-M   'C m c m'
_symmetry_Int_Tables_number      63
_space_group_name_Hall           '-C 2n 2'
loop_
_symmetry_equiv_pos_site_id
_symmetry_equiv_pos_as_xyz
1 x,y,z
2 -x,-y,1/2+z
3 -x,y,1/2-z
4 x,-y,-z
5 1/2+x,1/2+y,z
6 1/2-x,1/2-y,1/2+z
7 1/2-x,1/2+y,1/2-z
8 1/2+x,1/2-y,-z
9 -x,-y,-z
10 x,y,1/2-z
11 x,-y,1/2+z
12 -x,y,z
13 1/2-x,1/2-y,-z
14 1/2+x,1/2+y,1/2-z
15 1/2+x,1/2-y,1/2+z
16 1/2-x,1/2+y,z
_cell_length_a                   23.382(3)
_cell_length_b                   22.002(3)
_cell_length_c                   21.936(3)
_cell_angle_alpha                90
_cell_angle_beta                 90
_cell_angle_gamma                90
_cell_volume                     11285
loop_
_atom_site_label
_atom_site_type_symbol
_atom_site_fract_x
_atom_site_fract_y
_atom_site_fract_z
Co1 Co 0.30667(4) 0.33745(4) 0.2500
Co2 Co 0.0000 0.45934(5) -0.07344(5)
Cl1 Cl 0.39478(9) 0.38312(11) 0.2500
Cl2 Cl 0.23863(10) 0.40894(9) 0.2500
Cl3 Cl 0.0000 0.56397(10) -0.04303(10)
Cl4 Cl 0.0000 0.35683(18) -0.0943(2)
Cl5 Cl 0.0000 0.4613(3) -0.1842(2)
N1 N 0.09266(17) 0.46110(17) -0.07621(19)
N2 N 0.30183(16) 0.30598(16) 0.15469(15)
N3 N 0.3395(2) 0.2505(2) 0.2500
C1 C 0.1244(2) 0.4308(2) -0.0352(2)
H1 H 0.1053 0.4101 -0.0044
C2 C 0.18267(18) 0.42796(19) -0.03559(19)
C3 C 0.2104(2) 0.4581(2) -0.0836(2)
H2 H 0.2500 0.4561 -0.0876
C4 C 0.1787(2) 0.4903(3) -0.1241(2)
H3 H 0.1965 0.5118 -0.1553
C5 C 0.1207(2) 0.4908(2) -0.1188(2)
H4 H 0.0998 0.5134 -0.1469
C6 C 0.21490(18) 0.39602(18) 0.01278(18)
C7 C 0.1877(2) 0.3532(2) 0.0506(2)
H5 H 0.1494 0.3443 0.0438
C8 C 0.2158(2) 0.3239(2) 0.09727(19)
C9 C 0.2730(2) 0.33675(19) 0.10686(18)
C10 C 0.30232(19) 0.38044(19) 0.0717(2)
C11 C 0.27157(19) 0.40810(19) 0.0261(2)
H6 H 0.2902 0.4370 0.0024
C12 C 0.1835(3) 0.2778(3) 0.1359(3)
H7 H 0.2081 0.2661 0.1700
C13 C 0.1298(3) 0.3022(4) 0.1612(3)
H8 H 0.1356 0.3435 0.1737
H9 H 0.1185 0.2782 0.1957
H10 H 0.1004 0.3006 0.1307
C14 C 0.1706(4) 0.2204(3) 0.0987(4)
H11 H 0.1487 0.2312 0.0632
H12 H 0.1492 0.1924 0.1232
H13 H 0.2059 0.2018 0.0862
C15 C 0.3632(2) 0.3978(2) 0.0834(2)
H14 H 0.3776 0.3710 0.1157
C16 C 0.3666(3) 0.4623(3) 0.1071(3)
H15 H 0.3551 0.4900 0.0756
H16 H 0.4052 0.4711 0.1192
H17 H 0.3416 0.4666 0.1416
C17 C 0.4017(2) 0.3892(4) 0.0282(3)
H18 H 0.4047 0.3466 0.0189
H19 H 0.4390 0.4051 0.0370
H20 H 0.3857 0.4103 -0.0061
C18 C 0.3397(3) 0.2311(3) 0.0822(2)
H21 H 0.3254 0.2584 0.0517
H22 H 0.3203 0.1928 0.0791
H23 H 0.3800 0.2250 0.0761
C19 C 0.3299(2) 0.2573(2) 0.1430(2)
C20 C 0.3517(2) 0.2237(2) 0.1978(2)
C21 C 0.3786(3) 0.1670(2) 0.1963(3)
H24 H 0.3875 0.1486 0.1593
C22 C 0.3915(4) 0.1393(4) 0.2500
H25 H 0.4092 0.1014 0.2500
Co2C Co 0.0000 0.54066(5) 0.07344(5)
Co2B Co 0.0000 0.45934(5) 0.57344(5)
Cl3C Cl 0.0000 0.43603(10) 0.04303(10)
N1I N 0.09266(17) 0.46110(17) 0.57621(19)
N1K N -0.09266(17) 0.46110(17) -0.07621(19)
N2I N 0.30183(16) 0.30598(16) 0.34531(15)
C1I C 0.1244(2) 0.4308(2) 0.5352(2)
H1I H 0.1053 0.4101 0.5044
C2I C 0.18267(18) 0.42796(19) 0.53559(19)
C3I C 0.2104(2) 0.4581(2) 0.5836(2)
H2I H 0.2500 0.4561 0.5876
C4I C 0.1787(2) 0.4903(3) 0.6241(2)
H3I H 0.1965 0.5118 0.6553
C5I C 0.1207(2) 0.4908(2) 0.6188(2)
H4I H 0.0998 0.5134 0.6469
C6I C 0.21490(18) 0.39602(18) 0.48722(18)
C7I C 0.1877(2) 0.3532(2) 0.4494(2)
H5I H 0.1494 0.3443 0.4562
C8I C 0.2158(2) 0.3239(2) 0.40273(19)
C9I C 0.2730(2) 0.33675(19) 0.39314(18)
C10I C 0.30232(19) 0.38044(19) 0.4283(2)
C11I C 0.27157(19) 0.40810(19) 0.4739(2)
H6I H 0.2902 0.4370 0.4976
C12I C 0.1835(3) 0.2778(3) 0.3641(3)
H7I H 0.2081 0.2661 0.3300
C13I C 0.1298(3) 0.3022(4) 0.3388(3)
H8I H 0.1356 0.3435 0.3263
H9I H 0.1185 0.2782 0.3043
H10I H 0.1004 0.3006 0.3693
C14I C 0.1706(4) 0.2204(3) 0.4013(4)
H11I H 0.1487 0.2312 0.4368
H12I H 0.1492 0.1924 0.3768
H13I H 0.2059 0.2018 0.4138
C15I C 0.3632(2) 0.3978(2) 0.4166(2)
H14I H 0.3776 0.3710 0.3843
C16I C 0.3666(3) 0.4623(3) 0.3929(3)
H15I H 0.3551 0.4900 0.4244
H16I H 0.4052 0.4711 0.3808
H17I H 0.3416 0.4666 0.3584
C17I C 0.4017(2) 0.3892(4) 0.4718(3)
H18I H 0.4047 0.3466 0.4811
H19I H 0.4390 0.4051 0.4630
H20I H 0.3857 0.4103 0.5061
C18I C 0.3397(3) 0.2311(3) 0.4178(2)
H21I H 0.3254 0.2584 0.4483
H22I H 0.3203 0.1928 0.4209
H23I H 0.3800 0.2250 0.4239
C19I C 0.3299(2) 0.2573(2) 0.3570(2)
C20I C 0.3517(2) 0.2237(2) 0.3022(2)
C21I C 0.3786(3) 0.1670(2) 0.3037(3)
H24I H 0.3875 0.1486 0.3407
loop_
_geom_bond_atom_site_label_1
_geom_bond_atom_site_label_2
_geom_bond_site_symmetry_1
_geom_bond_site_symmetry_2
Co1 Cl1 1_555 1_555
Co2 Cl3 1_555 1_555
Cl2 Co1 1_555 1_555
Cl3 Co2C 1_555 1_555
Cl4 Co2 1_555 1_555
Cl5 Co2 1_555 1_555
N1 Co2 1_555 1_555
N2 Co1 1_555 1_555
N3 Co1 1_555 1_555
C1 N1 1_555 1_555
H1 C1 1_555 1_555
C2 C1 1_555 1_555
C3 C2 1_555 1_555
H2 C3 1_555 1_555
C4 C3 1_555 1_555
H3 C4 1_555 1_555
C5 N1 1_555 1_555
H4 C5 1_555 1_555
C6 C2 1_555 1_555
C7 C6 1_555 1_555
H5 C7 1_555 1_555
C8 C7 1_555 1_555
C9 N2 1_555 1_555
C10 C9 1_555 1_555
C11 C6 1_555 1_555
H6 C11 1_555 1_555
C12 C8 1_555 1_555
H7 C12 1_555 1_555
C13 C12 1_555 1_555
H8 C13 1_555 1_555
H9 C13 1_555 1_555
H10 C13 1_555 1_555
C14 C12 1_555 1_555
H11 C14 1_555 1_555
H12 C14 1_555 1_555
H13 C14 1_555 1_555
C15 C10 1_555 1_555
H14 C15 1_555 1_555
C16 C15 1_555 1_555
H15 C16 1_555 1_555
H16 C16 1_555 1_555
H17 C16 1_555 1_555
C17 C15 1_555 1_555
H18 C17 1_555 1_555
H19 C17 1_555 1_555
H20 C17 1_555 1_555
C18 H21 1_555 1_555
H22 C18 1_555 1_555
H23 C18 1_555 1_555
C19 N2 1_555 1_555
C20 N3 1_555 1_555
C21 C20 1_555 1_555
H24 C21 1_555 1_555
C22 C21 1_555 1_555
H25 C22 1_555 1_555
Co2C Cl3C 1_555 1_555
Co2B N1I 1_555 1_555
Cl3C Co2 1_555 1_555
N1I C1I 1_555 1_555
N1K Co2 1_555 1_555
N2I Co1 1_555 1_555
C1I H1I 1_555 1_555
C2I C1I 1_555 1_555
C3I C2I 1_555 1_555
H2I C3I 1_555 1_555
C4I C3I 1_555 1_555
H3I C4I 1_555 1_555
C5I N1I 1_555 1_555
H4I C5I 1_555 1_555
C6I C2I 1_555 1_555
C7I C6I 1_555 1_555
H5I C7I 1_555 1_555
C8I C7I 1_555 1_555
C9I N2I 1_555 1_555
C10I C9I 1_555 1_555
C11I C6I 1_555 1_555
H6I C11I 1_555 1_555
C12I C8I 1_555 1_555
H7I C12I 1_555 1_555
C13I C12I 1_555 1_555
H8I C13I 1_555 1_555
H9I C13I 1_555 1_555
H10I C13I 1_555 1_555
C14I C12I 1_555 1_555
H11I C14I 1_555 1_555
H12I C14I 1_555 1_555
H13I C14I 1_555 1_555
C15I C10I 1_555 1_555
H14I C15I 1_555 1_555
C16I C15I 1_555 1_555
H15I C16I 1_555 1_555
H16I C16I 1_555 1_555
H17I C16I 1_555 1_555
C17I C15I 1_555 1_555
H18I C17I 1_555 1_555
H19I C17I 1_555 1_555
H20I C17I 1_555 1_555
C18I H21I 1_555 1_555
H22I C18I 1_555 1_555
H23I C18I 1_555 1_555
C19I N2I 1_555 1_555
C20I N3 1_555 1_555
C21I C22 1_555 1_555
H24I C21I 1_555 1_555
C4 C5 1_555 1_555
C8 C9 1_555 1_555
C10 C11 1_555 1_555
C18 C19 1_555 1_555
C19 C20 1_555 1_555
C4I C5I 1_555 1_555
C8I C9I 1_555 1_555
C10I C11I 1_555 1_555
C18I C19I 1_555 1_555
C19I C20I 1_555 1_555
C20I C21I 1_555 1_555

#END
