
#######################################################################
#
#                 Cambridge Crystallographic Data Centre
#                                CCDC 
#
#######################################################################
#
# If this CIF has been generated from an entry in the Cambridge 
# Structural Database, then it will include bibliographic, chemical, 
# crystal, experimental, refinement or atomic coordinate data resulting 
# from the CCDC's data processing and validation procedures.
#
#######################################################################

data_FAGKAZ10
_symmetry_cell_setting           orthorhombic
_symmetry_space_group_name_H-M   'P 21 21 21'
_symmetry_Int_Tables_number      19
_space_group_name_Hall           'P 2ac 2ab'
loop_
_symmetry_equiv_pos_site_id
_symmetry_equiv_pos_as_xyz
1 x,y,z
2 1/2+x,1/2-y,-z
3 -x,1/2+y,1/2-z
4 1/2-x,-y,1/2+z
_cell_length_a                   12.351(7)
_cell_length_b                   21.156(11)
_cell_length_c                   5.073(10)
_cell_angle_alpha                90
_cell_angle_beta                 90
_cell_angle_gamma                90
_cell_volume                     1325.56
loop_
_atom_site_label
_atom_site_type_symbol
_atom_site_fract_x
_atom_site_fract_y
_atom_site_fract_z
Cu1 Cu 0.5510(1) 0.16877(6) 0.4152(3)
Mn1 Mn 0.5310(1) -0.08258(8) 0.2625(4)
O1 O 0.4655(6) -0.0103(4) 0.520(2)
O2 O 0.6232(6) 0.0000(4) 0.149(2)
O3 O 0.6344(6) 0.1035(4) 0.225(2)
O4 O 0.5996(6) 0.2366(3) 0.170(2)
O5 O 0.4137(6) 0.3390(4) 0.483(2)
O6 O 0.5618(6) 0.3379(3) 0.084(2)
O7 O 0.2613(7) 0.1587(4) 0.456(2)
O8 O 0.6576(7) -0.1132(4) 0.545(2)
O9 O 0.4003(7) -0.0645(4) -0.022(2)
O10 O 0.6960(7) 0.2084(4) 0.689(2)
N1 N 0.4719(7) 0.0987(4) 0.561(2)
N2 N 0.4548(8) 0.2335(4) 0.549(2)
C1 C 0.5922(9) 0.0478(5) 0.266(3)
C2 C 0.5041(9) 0.0442(6) 0.469(3)
C3 C 0.382(1) 0.1015(6) 0.746(3)
C4 C 0.3137(9) 0.1605(5) 0.719(3)
C5 C 0.3731(9) 0.2225(5) 0.755(3)
C6 C 0.4670(8) 0.2869(5) 0.435(2)
C7 C 0.5484(9) 0.2885(5) 0.212(2)
H1 H 0.4118 0.0996 0.9240
H2 H 0.3373 0.0644 0.7264
H3 H 0.2461 0.1680 0.8750
H4 H 0.3228 0.2570 0.7567
H5 H 0.4090 0.2219 0.9240
H6 H 0.2187 0.2070 0.4570
H7 H 0.3555 -0.0937 -0.0430
H8 H 0.3828 -0.0312 -0.1250
H9 H 0.7539 0.1777 0.7090
H10 H 0.7187 0.2402 0.7930
O5B O 0.5863(6) -0.1610(4) 0.017(2)
O6B O 0.4382(6) -0.1621(3) 0.416(2)
Mn1B Mn 0.4690(1) 0.41742(8) 0.2375(4)
loop_
_geom_bond_atom_site_label_1
_geom_bond_atom_site_label_2
_geom_bond_site_symmetry_1
_geom_bond_site_symmetry_2
Cu1 O3 1_555 1_555
Mn1 O1 1_555 1_555
O1 C2 1_555 1_555
O2 Mn1 1_555 1_555
O3 C1 1_555 1_555
O4 Cu1 1_555 1_555
O5 C6 1_555 1_555
O6 C7 1_555 1_555
O7 C4 1_555 1_555
O8 Mn1 1_555 1_555
O9 Mn1 1_555 1_555
O10 Cu1 1_555 1_555
N1 Cu1 1_555 1_555
N2 Cu1 1_555 1_555
C1 O2 1_555 1_555
C2 N1 1_555 1_555
C3 N1 1_555 1_555
C4 C3 1_555 1_555
C5 N2 1_555 1_555
C6 N2 1_555 1_555
C7 O4 1_555 1_555
H1 C3 1_555 1_555
H2 C3 1_555 1_555
H3 C4 1_555 1_555
H4 C5 1_555 1_555
H5 C5 1_555 1_555
H6 O7 1_555 1_555
H7 O9 1_555 1_555
H8 O9 1_555 1_555
H9 O10 1_555 1_555
H10 O10 1_555 1_555
O5B Mn1 1_555 1_555
O6B Mn1 1_555 1_555
Mn1B O5 1_555 1_555
O6 Mn1B 1_555 1_555
C1 C2 1_555 1_555
C4 C5 1_555 1_555
C6 C7 1_555 1_555

#END
