
#######################################################################
#
#                 Cambridge Crystallographic Data Centre
#                                CCDC 
#
#######################################################################
#
# If this CIF has been generated from an entry in the Cambridge 
# Structural Database, then it will include bibliographic, chemical, 
# crystal, experimental, refinement or atomic coordinate data resulting 
# from the CCDC's data processing and validation procedures.
#
#######################################################################

data_FAGKAZ
_symmetry_cell_setting           orthorhombic
_symmetry_space_group_name_H-M   'P 21 21 21'
_symmetry_Int_Tables_number      19
_space_group_name_Hall           'P 2ac 2ab'
loop_
_symmetry_equiv_pos_site_id
_symmetry_equiv_pos_as_xyz
1 x,y,z
2 1/2+x,1/2-y,-z
3 -x,1/2+y,1/2-z
4 1/2-x,-y,1/2+z
_cell_length_a                   12.351(7)
_cell_length_b                   21.156(11)
_cell_length_c                   5.073(10)
_cell_angle_alpha                90
_cell_angle_beta                 90
_cell_angle_gamma                90
_cell_volume                     1325.56
loop_
_atom_site_label
_atom_site_type_symbol
_atom_site_fract_x
_atom_site_fract_y
_atom_site_fract_z
Cu1 Cu -0.4490(1) 0.16877(6) 0.4152(3)
Mn1 Mn -0.4690(1) -0.08258(8) 0.2625(4)
O1 O -0.5345(6) -0.0103(4) 0.520(2)
O2 O -0.36232(6) 0.0000(4) 0.149(2)
O3 O -0.3656(6) 0.1035(4) 0.225(2)
O4 O -0.4004(6) 0.2366(3) 0.170(2)
O5 O -0.5863(6) 0.3390(4) 0.483(2)
O6 O -0.4382(6) 0.3379(3) 0.084(2)
O7 O -0.7387(7) 0.1587(4) 0.456(2)
O8 O -0.3424(7) -0.1132(4) 0.545(2)
O9 O -0.5997(7) -0.0645(4) -0.022(2)
O10 O -0.3040(7) 0.2084(4) 0.689(2)
N1 N -0.5281(7) 0.0987(4) 0.561(2)
N2 N -0.5452(8) 0.2335(4) 0.549(2)
C1 C -0.4078(9) 0.0476(5) 0.266(3)
C2 C -0.4959(9) 0.0442(6) 0.469(3)
C3 C -0.618(1) 0.1015(6) 0.746(3)
C4 C -0.6863(9) 0.1605(5) 0.719(3)
C5 C -0.6269(9) 0.2225(5) 0.755(3)
C6 C -0.5330(8) 0.2869(5) 0.435(2)
C7 C -0.4516(9) 0.2885(5) 0.212(2)
O5B O -0.4137(6) -0.1610(4) 0.017(2)
O6B O -0.5618(6) -0.1621(3) 0.416(2)
Mn1B Mn -0.5310(1) 0.41742(8) 0.2375(4)
loop_
_geom_bond_atom_site_label_1
_geom_bond_atom_site_label_2
_geom_bond_site_symmetry_1
_geom_bond_site_symmetry_2
Cu1 O3 1_555 1_555
Mn1 O1 1_555 1_555
O1 C2 1_555 1_555
O2 Mn1 1_555 1_555
O3 C1 1_555 1_555
O4 Cu1 1_555 1_555
O5 C6 1_555 1_555
O6 C7 1_555 1_555
O7 C4 1_555 1_555
O8 Mn1 1_555 1_555
O9 Mn1 1_555 1_555
O10 Cu1 1_555 1_555
N1 Cu1 1_555 1_555
N2 Cu1 1_555 1_555
C1 O2 1_555 1_555
C2 N1 1_555 1_555
C3 N1 1_555 1_555
C4 C3 1_555 1_555
C5 N2 1_555 1_555
C6 N2 1_555 1_555
C7 O4 1_555 1_555
O5B Mn1 1_555 1_555
O6B Mn1 1_555 1_555
Mn1B O5 1_555 1_555
O6 Mn1B 1_555 1_555
C1 C2 1_555 1_555
C4 C5 1_555 1_555
C6 C7 1_555 1_555

#END
