
#######################################################################
#
#                 Cambridge Crystallographic Data Centre
#                                CCDC 
#
#######################################################################
#
# If this CIF has been generated from an entry in the Cambridge 
# Structural Database, then it will include bibliographic, chemical, 
# crystal, experimental, refinement or atomic coordinate data resulting 
# from the CCDC's data processing and validation procedures.
#
#######################################################################

data_FAGSUC
_symmetry_cell_setting           monoclinic
_symmetry_space_group_name_H-M   'P 21/n'
_symmetry_Int_Tables_number      14
_space_group_name_Hall           '-P 2yn'
loop_
_symmetry_equiv_pos_site_id
_symmetry_equiv_pos_as_xyz
1 x,y,z
2 1/2+x,1/2-y,1/2+z
3 -x,-y,-z
4 1/2-x,1/2+y,1/2-z
_cell_length_a                   10.6994(15)
_cell_length_b                   8.3352(15)
_cell_length_c                   18.8774(13)
_cell_angle_alpha                90
_cell_angle_beta                 96.774(9)
_cell_angle_gamma                90
_cell_volume                     1671.77
loop_
_atom_site_label
_atom_site_type_symbol
_atom_site_fract_x
_atom_site_fract_y
_atom_site_fract_z
La1 La 0.31128(3) 0.07484(4) 0.238733(17)
O1 O 0.1404(4) 0.2758(5) 0.1989(2)
O2 O 0.0409(4) 0.4900(6) 0.1558(2)
O3 O 0.4379(5) 0.2794(5) 0.1754(3)
O4 O 0.3416(4) 0.5136(6) 0.1802(3)
O5 O -0.2633(5) 0.0113(6) -0.1101(2)
O6 O 0.5158(5) 0.9427(6) 0.1994(3)
O7 O -0.1772(4) 0.1742(5) -0.1810(2)
O8 O 0.5984(7) 1.0954(7) 0.1222(4)
H1 H 0.544(9) 1.172(11) 0.140(5)
C1 C 0.4327(7) 0.4303(7) 0.1671(4)
C2 C 0.5456(6) 0.5178(8) 0.1442(4)
H2 H 0.599(6) 0.439(7) 0.128(3)
C3 C 0.6138(7) 0.6005(9) 0.2108(5)
H3 H 0.5534 0.6625 0.2338
H4 H 0.6488 0.5193 0.2442
C4 C 0.7198(7) 0.7115(9) 0.1925(6)
H5 H 0.7536 0.7688 0.2352
H6 H 0.7870 0.6466 0.1773
C5 C 0.6776(7) 0.8325(9) 0.1344(5)
H7 H 0.745(8) 0.887(9) 0.126(4)
C6 C 0.6138(8) 0.7446(9) 0.0683(5)
H8 H 0.5837 0.8228 0.0322
H9 H 0.6752 0.6770 0.0488
C7 C 0.5031(7) 0.6411(8) 0.0861(4)
H10 H 0.4387 0.7095 0.1021
H11 H 0.4666 0.5856 0.0434
C8 C 0.5896(7) 0.9617(8) 0.1560(4)
C9 C -0.1999(6) 0.1341(8) -0.1184(3)
C10 C -0.1445(6) 0.2337(8) -0.0548(3)
H12 H -0.158(7) 0.349(9) -0.070(4)
C11 C -0.0009(5) 0.2081(8) -0.0444(3)
H13 H 0.0346 0.2525 -0.0851
H14 H 0.0163 0.0938 -0.0431
C12 C 0.0646(6) 0.2845(8) 0.0236(3)
H15 H 0.1505 0.2456 0.0316
H16 H 0.0677 0.3998 0.0169
C13 C -0.0011(6) 0.2489(8) 0.0905(3)
H17 H 0.003(7) 0.141(10) 0.100(4)
C14 C -0.1416(6) 0.2862(9) 0.0768(3)
H18 H -0.1814 0.2588 0.1188
H19 H -0.1533 0.4002 0.0680
C15 C -0.2036(6) 0.1918(8) 0.0128(3)
H20 H -0.1941 0.0778 0.0223
H21 H -0.2929 0.2159 0.0056
C16 C 0.0630(5) 0.3439(7) 0.1515(3)
O1C O 0.3596(4) -0.2242(5) 0.3011(2)
O2C O 0.4591(4) -0.0100(6) 0.3442(2)
O4C O 0.1584(4) 0.0136(6) 0.3198(3)
O5B O 0.2633(5) -0.0113(6) 0.1101(2)
O6_2 O 0.5158(5) -0.0573(6) 0.1994(3)
O7A O 0.3228(4) 0.3258(5) 0.3190(2)
O7B O 0.1772(4) -0.1742(5) 0.1810(2)
La1C La 0.18872(3) 0.57484(4) 0.261267(17)
La1B La -0.31128(3) -0.07484(4) -0.238733(17)
La1_2 La 0.31128(3) 1.07484(4) 0.238733(17)
La1A La -0.18872(3) 0.42516(4) -0.261267(17)
loop_
_geom_bond_atom_site_label_1
_geom_bond_atom_site_label_2
_geom_bond_site_symmetry_1
_geom_bond_site_symmetry_2
La1 O1 1_555 1_555
O1 C16 1_555 1_555
O2 C16 1_555 1_555
O3 La1 1_555 1_555
O4 C1 1_555 1_555
O5 C9 1_555 1_555
O6 C8 1_555 1_555
O7 C9 1_555 1_555
O8 H1 1_555 1_555
C1 O3 1_555 1_555
C2 C1 1_555 1_555
H2 C2 1_555 1_555
C3 C2 1_555 1_555
H3 C3 1_555 1_555
H4 C3 1_555 1_555
C4 C3 1_555 1_555
H5 C4 1_555 1_555
H6 C4 1_555 1_555
C5 C4 1_555 1_555
H7 C5 1_555 1_555
C6 C5 1_555 1_555
H8 C6 1_555 1_555
H9 C6 1_555 1_555
C7 C2 1_555 1_555
H10 C7 1_555 1_555
H11 C7 1_555 1_555
C8 O8 1_555 1_555
C9 C10 1_555 1_555
C10 H12 1_555 1_555
C11 C10 1_555 1_555
H13 C11 1_555 1_555
H14 C11 1_555 1_555
C12 C11 1_555 1_555
H15 C12 1_555 1_555
H16 C12 1_555 1_555
C13 C12 1_555 1_555
H17 C13 1_555 1_555
C14 C13 1_555 1_555
H18 C14 1_555 1_555
H19 C14 1_555 1_555
C15 C10 1_555 1_555
H20 C15 1_555 1_555
H21 C15 1_555 1_555
C16 C13 1_555 1_555
O1C La1 1_555 1_555
O2C La1 1_555 1_555
O4C La1 1_555 1_555
O5B La1 1_555 1_555
O6_2 La1 1_555 1_555
O7A La1 1_555 1_555
O7B La1 1_555 1_555
La1C O1 1_555 1_555
La1B O5 1_555 1_555
La1_2 O6 1_555 1_555
La1A O7 1_555 1_555
O2 La1C 1_555 1_555
O4 La1C 1_555 1_555
O7 La1B 1_555 1_555
C5 C8 1_555 1_555
C6 C7 1_555 1_555
C14 C15 1_555 1_555
O7A La1C 1_555 1_555

#END
