
#######################################################################
#
#                 Cambridge Crystallographic Data Centre
#                                CCDC 
#
#######################################################################
#
# If this CIF has been generated from an entry in the Cambridge 
# Structural Database, then it will include bibliographic, chemical, 
# crystal, experimental, refinement or atomic coordinate data resulting 
# from the CCDC's data processing and validation procedures.
#
#######################################################################

data_FAGTUD
_symmetry_cell_setting           monoclinic
_symmetry_space_group_name_H-M   'P 21/n'
_symmetry_Int_Tables_number      14
_space_group_name_Hall           '-P 2yn'
loop_
_symmetry_equiv_pos_site_id
_symmetry_equiv_pos_as_xyz
1 x,y,z
2 1/2+x,1/2-y,1/2+z
3 -x,-y,-z
4 1/2-x,1/2+y,1/2-z
_cell_length_a                   14.3092(4)
_cell_length_b                   7.4605(2)
_cell_length_c                   15.4260(5)
_cell_angle_alpha                90
_cell_angle_beta                 115.4540(10)
_cell_angle_gamma                90
_cell_volume                     1486.93
loop_
_atom_site_label
_atom_site_type_symbol
_atom_site_fract_x
_atom_site_fract_y
_atom_site_fract_z
Ni1 Ni 0.144162(14) 0.71402(2) 0.151861(13)
O1 O 0.26728(8) 0.74167(15) 0.28590(8)
O2 O 0.23348(8) 0.54064(13) 0.11765(7)
O3 O 0.02760(10) 0.68405(19) 0.01504(10)
O4 O 0.20328(8) 0.93293(14) 0.11014(8)
O5 O 0.44097(8) 0.37893(14) 0.30593(7)
O6 O 0.35402(8) 0.73249(14) 0.11649(9)
O7 O 0.08126(10) 0.49768(17) 0.19746(9)
O8 O 0.57926(9) 0.42352(17) 0.44422(8)
C1 C 0.31447(12) 0.2805(2) 0.03716(10)
C2 C 0.48139(11) 0.40058(19) 0.14558(10)
C3 C 0.37361(11) 0.41918(18) 0.09596(10)
C4 C 0.31797(11) 0.57807(19) 0.11127(10)
C5 C 0.55136(11) 0.54544(18) 0.20723(10)
C6 C 0.64407(12) 0.7016(2) 0.35763(11)
C7 C 0.67043(12) 0.7876(2) 0.22027(12)
C8 C 0.52611(12) 0.2379(2) 0.13854(11)
C9 C 0.57408(11) 0.56748(19) 0.30471(10)
C10 C 0.52772(11) 0.44903(19) 0.35502(10)
C11 C 0.36062(12) 0.1216(2) 0.02919(11)
C12 C 0.46602(13) 0.0987(2) 0.08197(12)
C13 C 0.69088(12) 0.8120(2) 0.31566(12)
C14 C 0.60136(11) 0.6545(2) 0.16645(11)
H1 H 0.2423(14) 0.299(2) 0.0037(13)
H2 H 0.3202(14) 0.031(2) -0.0120(13)
H3 H 0.5957(14) 0.219(2) 0.1740(13)
H4 H 0.5865(13) 0.639(2) 0.0993(13)
H5 H 0.4967(14) -0.012(2) 0.0817(13)
H6 H 0.2563(15) 0.817(3) 0.3157(14)
H7 H 0.2714(17) 0.659(3) 0.3128(16)
H8 H 0.1644(16) 0.967(3) 0.0544(15)
H9 H 0.6574(16) 0.716(3) 0.4214(15)
H10 H 0.7022(13) 0.859(2) 0.1893(13)
H11 H 0.7343(14) 0.902(3) 0.3533(13)
H12 H 0.0595(18) 0.521(3) 0.2374(18)
H13 H 0.1114(18) 0.408(3) 0.2131(18)
H14 H -0.016(2) 0.754(4) 0.014(2)
H15 H 0.2597(19) 0.885(3) 0.1099(18)
H16 H 0.007(3) 0.617(4) -0.0256(3)
O5C O 0.05903(8) 0.87893(14) 0.19407(7)
Ni1C Ni 0.355838(14) 0.21402(2) 0.348139(13)
loop_
_geom_bond_atom_site_label_1
_geom_bond_atom_site_label_2
_geom_bond_site_symmetry_1
_geom_bond_site_symmetry_2
Ni1 O1 1_555 1_555
O1 H6 1_555 1_555
O2 Ni1 1_555 1_555
O3 Ni1 1_555 1_555
O4 Ni1 1_555 1_555
O5 C10 1_555 1_555
O6 C4 1_555 1_555
O7 Ni1 1_555 1_555
O8 C10 1_555 1_555
C1 C3 1_555 1_555
C2 C3 1_555 1_555
C3 C4 1_555 1_555
C4 O2 1_555 1_555
C5 C2 1_555 1_555
C6 C9 1_555 1_555
C7 C13 1_555 1_555
C8 C2 1_555 1_555
C9 C5 1_555 1_555
C10 C9 1_555 1_555
C11 C1 1_555 1_555
C12 C8 1_555 1_555
C13 C6 1_555 1_555
C14 C5 1_555 1_555
H1 C1 1_555 1_555
H2 C11 1_555 1_555
H3 C8 1_555 1_555
H4 C14 1_555 1_555
H5 C12 1_555 1_555
H7 O1 1_555 1_555
H8 O4 1_555 1_555
H9 C6 1_555 1_555
H10 C7 1_555 1_555
H11 C13 1_555 1_555
H12 O7 1_555 1_555
H13 O7 1_555 1_555
H14 O3 1_555 1_555
H15 O4 1_555 1_555
H16 O3 1_555 1_555
O5C Ni1 1_555 1_555
Ni1C O5 1_555 1_555
C7 C14 1_555 1_555
C11 C12 1_555 1_555

#END
