
#######################################################################
#
#                 Cambridge Crystallographic Data Centre
#                                CCDC 
#
#######################################################################
#
# If this CIF has been generated from an entry in the Cambridge 
# Structural Database, then it will include bibliographic, chemical, 
# crystal, experimental, refinement or atomic coordinate data resulting 
# from the CCDC's data processing and validation procedures.
#
#######################################################################

data_FAGTUD01
_symmetry_cell_setting           monoclinic
_symmetry_space_group_name_H-M   'P 21/n'
_symmetry_Int_Tables_number      14
_space_group_name_Hall           '-P 2yn'
loop_
_symmetry_equiv_pos_site_id
_symmetry_equiv_pos_as_xyz
1 x,y,z
2 1/2-x,1/2+y,1/2-z
3 -x,-y,-z
4 1/2+x,1/2-y,1/2+z
_cell_length_a                   14.304(1)
_cell_length_b                   7.4861(6)
_cell_length_c                   15.570(1)
_cell_angle_alpha                90
_cell_angle_beta                 115.756(1)
_cell_angle_gamma                90
_cell_volume                     1501.62
loop_
_atom_site_label
_atom_site_type_symbol
_atom_site_fract_x
_atom_site_fract_y
_atom_site_fract_z
Ni1 Ni 0.64313(3) 0.21587(6) 0.65200(3)
O1 O 0.5578(2) 0.3781(3) 0.6939(1)
O2 O 0.4219(2) 0.4295(4) 0.5579(2)
O3 O 0.7677(2) 0.5434(3) 0.8816(1)
O4 O 0.6484(2) 0.7341(3) 0.8838(2)
O5 O 0.5802(2) 0.0001(4) 0.6970(2)
O6 O 0.7665(2) 0.2435(3) 0.7855(2)
O7 O 0.7015(2) 0.4348(3) 0.6107(2)
O8 O 0.5253(2) 0.1858(5) 0.5172(2)
C1 C 0.4730(2) 0.4514(4) 0.6457(2)
C2 C 0.4274(2) 0.5701(4) 0.6962(2)
C3 C 0.3573(3) 0.7025(5) 0.6438(3)
C4 C 0.3110(3) 0.8116(5) 0.6849(3)
C5 C 0.3324(3) 0.7873(6) 0.7790(3)
C6 C 0.4008(3) 0.6570(5) 0.8319(3)
C7 C 0.4505(2) 0.5477(4) 0.7924(2)
C8 C 0.5205(2) 0.4045(4) 0.8539(2)
C9 C 0.4768(3) 0.2445(5) 0.8623(3)
C10 C 0.5359(3) 0.1079(5) 0.9190(3)
C11 C 0.6407(3) 0.1301(5) 0.9711(3)
C12 C 0.6863(3) 0.2867(5) 0.9622(2)
C13 C 0.6283(2) 0.4234(4) 0.9031(2)
C14 C 0.6838(2) 0.5812(4) 0.8882(2)
H1 H 0.346(2) 0.711(4) 0.581(2)
H2 H 0.265(2) 0.895(4) 0.646(2)
H3 H 0.301(2) 0.861(4) 0.809(2)
H4 H 0.416(2) 0.635(4) 0.895(2)
H5 H 0.406(2) 0.237(4) 0.828(2)
H6 H 0.503(2) 0.001(4) 0.924(2)
H7 H 0.677(2) 0.043(4) 1.006(2)
H8 H 0.753(2) 0.300(4) 0.994(2)
H9 H 0.562(3) 0.032(5) 0.734(3)
H10 H 0.609(3) -0.091(5) 0.701(3)
H11 H 0.758(2) 0.326(4) 0.823(2)
H12 H 0.777(3) 0.154(4) 0.814(2)
H13 H 0.760(2) 0.380(4) 0.612(2)
H14 H 0.665(2) 0.468(4) 0.553(2)
H15 H 0.524(3) 0.179(6) 0.483(3)
H16 H 0.477(2) 0.267(4) 0.519(2)
O3A O 0.7323(2) 0.0434(3) 0.6184(1)
Ni1A Ni 0.85687(3) 0.71587(6) 0.84800(3)
loop_
_geom_bond_atom_site_label_1
_geom_bond_atom_site_label_2
_geom_bond_site_symmetry_1
_geom_bond_site_symmetry_2
Ni1 O1 1_555 1_555
O1 C1 1_555 1_555
O2 C1 1_555 1_555
O3 C14 1_555 1_555
O4 C14 1_555 1_555
O5 Ni1 1_555 1_555
O6 Ni1 1_555 1_555
O7 Ni1 1_555 1_555
O8 Ni1 1_555 1_555
C1 C2 1_555 1_555
C2 C3 1_555 1_555
C3 C4 1_555 1_555
C4 C5 1_555 1_555
C5 C6 1_555 1_555
C6 C7 1_555 1_555
C7 C2 1_555 1_555
C8 C7 1_555 1_555
C9 C8 1_555 1_555
C10 C9 1_555 1_555
C11 C10 1_555 1_555
C12 C11 1_555 1_555
C13 C8 1_555 1_555
C14 C13 1_555 1_555
H1 C3 1_555 1_555
H2 C4 1_555 1_555
H3 C5 1_555 1_555
H4 C6 1_555 1_555
H5 C9 1_555 1_555
H6 C10 1_555 1_555
H7 C11 1_555 1_555
H8 C12 1_555 1_555
H9 O5 1_555 1_555
H10 O5 1_555 1_555
H11 O6 1_555 1_555
H12 O6 1_555 1_555
H13 O7 1_555 1_555
H14 O7 1_555 1_555
H15 O8 1_555 1_555
H16 O8 1_555 1_555
O3A Ni1 1_555 1_555
Ni1A O3 1_555 1_555
C12 C13 1_555 1_555

#END
