
#######################################################################
#
#                 Cambridge Crystallographic Data Centre
#                                CCDC 
#
#######################################################################
#
# If this CIF has been generated from an entry in the Cambridge 
# Structural Database, then it will include bibliographic, chemical, 
# crystal, experimental, refinement or atomic coordinate data resulting 
# from the CCDC's data processing and validation procedures.
#
#######################################################################

data_FAGTAJ
_symmetry_cell_setting           triclinic
_symmetry_space_group_name_H-M   'P -1'
_symmetry_Int_Tables_number      2
_space_group_name_Hall           '-P 1'
loop_
_symmetry_equiv_pos_site_id
_symmetry_equiv_pos_as_xyz
1 x,y,z
2 -x,-y,-z
_cell_length_a                   8.085(2)
_cell_length_b                   9.0746(8)
_cell_length_c                   10.606(3)
_cell_angle_alpha                71.981(13)
_cell_angle_beta                 83.635(14)
_cell_angle_gamma                83.845(12)
_cell_volume                     733.224
loop_
_atom_site_label
_atom_site_type_symbol
_atom_site_fract_x
_atom_site_fract_y
_atom_site_fract_z
La1 La 0.25497(3) 0.04409(3) 0.97191(2)
O1 O 0.0096(4) -0.0356(4) 0.8719(3)
O2 O 0.3358(5) 0.1883(5) 1.1121(4)
O3 O 0.2241(4) 0.7794(4) 1.1465(4)
O4 O 0.6098(5) 0.1524(5) 1.1309(4)
O5 O 0.1741(5) 0.1304(5) 0.7316(4)
O6 O 0.4777(4) 0.8504(4) 1.1362(3)
O7 O 0.0690(5) 0.3131(5) 0.9208(4)
C1 C 0.4671(6) 0.2137(5) 1.1542(5)
C2 C 0.4538(6) 0.3225(5) 1.2390(5)
H1 H 0.4759(6) 0.2578(5) 1.3292(5)
C3 C 0.5872(6) 0.4410(6) 1.1942(5)
H2 H 0.6969(6) 0.3869(6) 1.1900(5)
H3 H 0.5682(6) 0.5101(6) 1.1060(5)
C4 C 0.5805(7) 0.5355(6) 1.2917(5)
H4 H 0.6615(7) 0.6130(6) 1.2598(5)
H5 H 0.6108(7) 0.4671(6) 1.3775(5)
C5 C 0.4066(6) 0.6166(5) 1.3085(5)
H6 H 0.4069(6) 0.6583(5) 1.3834(5)
C6 C 0.2736(7) 0.4992(6) 1.3467(5)
H7 H 0.2890(7) 0.4292(6) 1.4353(5)
H8 H 0.1641(7) 0.5541(6) 1.3490(5)
C7 C 0.2811(6) 0.4044(6) 1.2493(5)
H9 H 0.1987(6) 0.3281(6) 1.2795(5)
H10 H 0.2550(6) 0.4727(6) 1.1624(5)
C8 C 0.3684(6) 0.7541(5) 1.1871(5)
C9 C 0.0617(6) 0.0397(6) 0.7519(5)
C10 C -0.0117(7) 0.0098(7) 0.6376(5)
H11 H -0.1254(7) -0.0210(7) 0.6678(5)
C11 C -0.0221(10) 0.1565(7) 0.5170(6)
H12 H 0.0879(10) 0.1948(7) 0.4905(6)
H13 H -0.0955(10) 0.2367(7) 0.5416(6)
C12 C 0.0883(8) -0.1226(7) 0.6012(6)
H14 H 0.0851(8) -0.2151(7) 0.6775(6)
H15 H 0.2037(8) -0.0979(7) 0.5785(6)
H16 H 0.1211(8) 0.3768(7) 0.9591(6)
H17 H 0.0386(8) 0.3272(7) 0.8259(6)
C12A C -0.0883(8) 0.1226(7) 0.3988(6)
C10A C 0.0117(7) -0.0098(7) 0.3624(5)
C9A C -0.0617(6) -0.0397(6) 0.2481(5)
O1A O -0.0096(4) 0.0356(4) 0.1281(3)
O5A O -0.1741(5) -0.1304(5) 0.2684(4)
H11A H 0.1254(7) 0.0210(7) 0.3322(5)
C11A C 0.0221(10) -0.1565(7) 0.4830(6)
H12A H -0.0879(10) -0.1948(7) 0.5095(6)
H13A H 0.0955(10) -0.2367(7) 0.4584(6)
H14A H -0.0851(8) 0.2151(7) 0.3225(6)
H15A H -0.2037(8) 0.0979(7) 0.4215(6)
O2_2 O 0.3358(5) -0.8117(5) 1.1121(4)
O3_2 O 0.2241(4) -0.2206(4) 1.1465(4)
O4_2 O 0.6098(5) -0.8476(5) 1.1309(4)
O6_2 O 0.4777(4) -0.1496(4) 1.1362(3)
C1_2 C 0.4671(6) -0.7863(5) 1.1542(5)
C2_2 C 0.4538(6) -0.6775(5) 1.2390(5)
H1_2 H 0.4759(6) -0.7422(5) 1.3292(5)
C3_2 C 0.5872(6) -0.5590(6) 1.1942(5)
H2_2 H 0.6969(6) -0.6131(6) 1.1900(5)
H3_2 H 0.5682(6) -0.4899(6) 1.1060(5)
C4_2 C 0.5805(7) -0.4645(6) 1.2917(5)
H4_2 H 0.6615(7) -0.3870(6) 1.2598(5)
H5_2 H 0.6108(7) -0.5329(6) 1.3775(5)
C5_2 C 0.4066(6) -0.3834(5) 1.3085(5)
H6_2 H 0.4069(6) -0.3417(5) 1.3834(5)
C6_2 C 0.2736(7) -0.5008(6) 1.3467(5)
H7_2 H 0.2890(7) -0.5708(6) 1.4353(5)
H8_2 H 0.1641(7) -0.4459(6) 1.3490(5)
C7_2 C 0.2811(6) -0.5956(6) 1.2493(5)
H9_2 H 0.1987(6) -0.6719(6) 1.2795(5)
H10_2 H 0.2550(6) -0.5273(6) 1.1624(5)
C8_2 C 0.3684(6) -0.2459(5) 1.1871(5)
La1A La -0.25497(3) -0.04409(3) 0.02809(2)
O7A O -0.0690(5) -0.3131(5) 0.0792(4)
H16A H -0.1211(8) -0.3768(7) 0.0409(6)
H17A H -0.0386(8) -0.3272(7) 0.1741(6)
O1A_2 O -0.0096(4) 0.0356(4) 1.1281(3)
O4A O 0.3902(5) -0.1524(5) 0.8691(4)
O6A O 0.5223(4) 0.1496(4) 0.8638(3)
La1A_2 La -0.25497(3) -0.04409(3) 1.02809(2)
La1_2 La 0.25497(3) 1.04409(3) 0.97191(2)
La1A_3 La 0.74503(3) -0.04409(3) 1.02809(2)
La1A_4 La 0.74503(3) 0.95591(3) 1.02809(2)
La1_3 La 0.25497(3) 0.04409(3) -0.02809(2)
La1_4 La 0.25497(3) -0.95591(3) 0.97191(2)
La1A_5 La 0.74503(3) -1.04409(3) 1.02809(2)
O1_2 O 0.0096(4) -0.0356(4) -0.1281(3)
O2A O -0.3358(5) -0.1883(5) -0.1121(4)
O3A O -0.2241(4) 0.2206(4) -0.1465(4)
O4_3 O -0.3902(5) 0.1524(5) 0.1309(4)
O6_3 O -0.5223(4) -0.1496(4) 0.1362(3)
O6A_2 O -0.4777(4) 0.1496(4) -0.1362(3)
O8 O 0.4959(25) 0.0998(18) 0.5779(16)
loop_
_geom_bond_atom_site_label_1
_geom_bond_atom_site_label_2
_geom_bond_site_symmetry_1
_geom_bond_site_symmetry_2
La1 O1 1_555 1_555
O1 C9 1_555 1_555
O2 La1 1_555 1_555
O3 C8 1_555 1_555
O4 C1 1_555 1_555
O5 La1 1_555 1_555
O6 C8 1_555 1_555
O7 La1 1_555 1_555
C1 O2 1_555 1_555
C2 C1 1_555 1_555
H1 C2 1_555 1_555
C3 C2 1_555 1_555
H2 C3 1_555 1_555
H3 C3 1_555 1_555
C4 C3 1_555 1_555
H4 C4 1_555 1_555
H5 C4 1_555 1_555
C5 C4 1_555 1_555
H6 C5 1_555 1_555
C6 C5 1_555 1_555
H7 C6 1_555 1_555
H8 C6 1_555 1_555
C7 C2 1_555 1_555
H9 C7 1_555 1_555
H10 C7 1_555 1_555
C8 C5 1_555 1_555
C9 O5 1_555 1_555
C10 C9 1_555 1_555
H11 C10 1_555 1_555
C11 C10 1_555 1_555
H12 C11 1_555 1_555
H13 C11 1_555 1_555
C12 C10 1_555 1_555
H14 C12 1_555 1_555
H15 C12 1_555 1_555
H16 O7 1_555 1_555
H17 O7 1_555 1_555
C12A C11 1_555 1_555
C10A C12A 1_555 1_555
C9A C10A 1_555 1_555
O1A C9A 1_555 1_555
O5A C9A 1_555 1_555
H11A C10A 1_555 1_555
C11A C12 1_555 1_555
H12A C11A 1_555 1_555
H13A C11A 1_555 1_555
H14A C12A 1_555 1_555
H15A C12A 1_555 1_555
O2_2 C1_2 1_555 1_555
O3_2 La1 1_555 1_555
O4_2 C1_2 1_555 1_555
O6_2 La1 1_555 1_555
C1_2 C2_2 1_555 1_555
C2_2 H1_2 1_555 1_555
C3_2 C2_2 1_555 1_555
H2_2 C3_2 1_555 1_555
H3_2 C3_2 1_555 1_555
C4_2 C3_2 1_555 1_555
H4_2 C4_2 1_555 1_555
H5_2 C4_2 1_555 1_555
C5_2 C4_2 1_555 1_555
H6_2 C5_2 1_555 1_555
C6_2 C5_2 1_555 1_555
H7_2 C6_2 1_555 1_555
H8_2 C6_2 1_555 1_555
C7_2 C2_2 1_555 1_555
H9_2 C7_2 1_555 1_555
H10_2 C7_2 1_555 1_555
C8_2 O3_2 1_555 1_555
La1A O1A 1_555 1_555
O7A La1A 1_555 1_555
H16A O7A 1_555 1_555
H17A O7A 1_555 1_555
O1A_2 La1 1_555 1_555
O4A La1 1_555 1_555
O6A La1 1_555 1_555
La1A_2 O1 1_555 1_555
La1_2 O3 1_555 1_555
La1A_3 O4 1_555 1_555
La1A_4 O6 1_555 1_555
La1_3 O1A 1_555 1_555
La1_4 O2_2 1_555 1_555
La1A_5 O4_2 1_555 1_555
O1_2 La1A 1_555 1_555
O2A La1A 1_555 1_555
O3A La1A 1_555 1_555
O4_3 La1A 1_555 1_555
O6_3 La1A 1_555 1_555
O6A_2 La1A 1_555 1_555
O6 La1_2 1_555 1_555
C6 C7 1_555 1_555
C10A C11A 1_555 1_555
O5A La1A 1_555 1_555
O6_2 C8_2 1_555 1_555
O6_2 La1A_3 1_555 1_555
C5_2 C8_2 1_555 1_555
C6_2 C7_2 1_555 1_555
O1A_2 La1A_2 1_555 1_555
O6A La1A_3 1_555 1_555
La1_3 O1_2 1_555 1_555

#END
