
#######################################################################
#
#                 Cambridge Crystallographic Data Centre
#                                CCDC 
#
#######################################################################
#
# If this CIF has been generated from an entry in the Cambridge 
# Structural Database, then it will include bibliographic, chemical, 
# crystal, experimental, refinement or atomic coordinate data resulting 
# from the CCDC's data processing and validation procedures.
#
#######################################################################

data_FAGVEP
_symmetry_cell_setting           monoclinic
_symmetry_space_group_name_H-M   'P 21/n'
_symmetry_Int_Tables_number      14
_space_group_name_Hall           '-P 2yn'
loop_
_symmetry_equiv_pos_site_id
_symmetry_equiv_pos_as_xyz
1 x,y,z
2 1/2+x,1/2-y,1/2+z
3 -x,-y,-z
4 1/2-x,1/2+y,1/2-z
_cell_length_a                   10.7660(10)
_cell_length_b                   13.0305(12)
_cell_length_c                   20.5973(19)
_cell_angle_alpha                90
_cell_angle_beta                 95.239(2)
_cell_angle_gamma                90
_cell_volume                     2877.45
loop_
_atom_site_label
_atom_site_type_symbol
_atom_site_fract_x
_atom_site_fract_y
_atom_site_fract_z
Fe1 Fe 0.61776(7) 0.33206(6) 0.61369(4)
O1 O 0.7766(3) 0.4051(3) 0.61014(18)
O2 O 0.7422(4) 0.1149(4) 0.7545(2)
O3 O 0.5445(3) 0.4437(3) 0.66118(19)
O4 O 0.3889(4) 0.3563(3) 0.4394(2)
N1 N 0.7299(4) 0.2462(4) 0.6801(2)
N2 N 0.4946(4) 0.2144(4) 0.6488(2)
N3 N 0.4799(4) 0.3800(4) 0.5445(2)
N4 N 0.6477(5) 0.2406(4) 0.5288(3)
Na1 Na 0.7170(2) 0.56618(18) 0.64325(11)
C1 C 0.8748(5) 0.3617(5) 0.6450(3)
C2 C 0.9958(5) 0.4007(5) 0.6412(3)
H1 H 1.0098 0.4567 0.6132
C3 C 1.0944(5) 0.3556(5) 0.6790(3)
H2 H 1.1765 0.3812 0.6766
C4 C 1.0758(6) 0.2755(6) 0.7195(3)
H3 H 1.1445 0.2461 0.7452
C5 C 0.9567(5) 0.2368(5) 0.7232(3)
H4 H 0.9435 0.1815 0.7518
C6 C 0.8561(5) 0.2794(5) 0.6846(3)
C7 C 0.6870(5) 0.1704(5) 0.7131(3)
C8 C 0.5479(5) 0.1518(5) 0.6948(3)
C9 C 0.4842(5) 0.0765(5) 0.7235(3)
H5 H 0.5253 0.0330 0.7556
C10 C 0.3575(5) 0.0647(5) 0.7046(3)
H6 H 0.3095 0.0148 0.7248
C11 C 0.3034(6) 0.1271(5) 0.6559(3)
H7 H 0.2183 0.1181 0.6404
C12 C 0.3716(6) 0.2007(5) 0.6305(3)
H8 H 0.3321 0.2449 0.5983
C13 C 0.4342(5) 0.4804(5) 0.6335(3)
C14 C 0.3622(5) 0.5465(5) 0.6663(3)
H9 H 0.3864 0.5650 0.7102
C15 C 0.2520(6) 0.5862(6) 0.6336(4)
H10 H 0.2021 0.6327 0.6555
C16 C 0.2166(5) 0.5583(5) 0.5709(4)
H11 H 0.1420 0.5858 0.5496
C17 C 0.2869(5) 0.4907(5) 0.5376(3)
H12 H 0.2606 0.4721 0.4939
C18 C 0.3972(5) 0.4498(4) 0.5687(3)
C19 C 0.4685(6) 0.3399(5) 0.4858(3)
C20 C 0.5697(6) 0.2622(5) 0.4761(3)
C21 C 0.5813(7) 0.2143(6) 0.4180(4)
H13 H 0.5234 0.2282 0.3814
C22 C 0.6772(8) 0.1458(7) 0.4125(4)
H14 H 0.6886 0.1140 0.3720
C23 C 0.7560(8) 0.1247(7) 0.4672(4)
H15 H 0.8216 0.0764 0.4651
C24 C 0.7400(6) 0.1728(5) 0.5243(4)
H16 H 0.7954 0.1581 0.5617
N5 N 0.9044(6) 0.6701(5) 0.6081(4)
C25 C 0.9130(6) 0.7099(6) 0.5589(4)
C26 C 0.9206(8) 0.7586(8) 0.4953(4)
H17 H 1.0031 0.7459 0.4805
H18 H 0.9074 0.8326 0.4992
H19 H 0.8564 0.7297 0.4638
Na1C Na 0.7830(2) 0.06618(18) 0.85675(11)
Na1B Na 0.2830(2) 0.43382(18) 0.35675(11)
O2C O 0.7578(4) 0.6149(4) 0.7455(2)
O4B O 0.6111(4) 0.6437(3) 0.5606(2)
N6 N -0.0155(12) 0.0072(10) 0.6002(6)
C27 C -0.0695(14) -0.0382(11) 0.6395(7)
C28 C -0.1399(14) -0.0923(11) 0.6876(6)
N7? N 0.023(2) -0.0096(18) 0.6225(11)
C29? C 0.042(3) -0.0736(18) 0.6612(12)
C30? C 0.056(3) -0.1552(18) 0.7098(11)
N8? N 0.709(2) -0.093(2) 0.5465(11)
C31? C 0.711(3) -0.100(2) 0.6030(11)
C32? C 0.726(3) -0.114(2) 0.6735(11)
N9? N 0.697(5) -0.110(5) 0.526(3)
C33? C 0.612(4) -0.055(5) 0.529(3)
C34? C 0.5000 0.0000 0.5000
loop_
_geom_bond_atom_site_label_1
_geom_bond_atom_site_label_2
_geom_bond_site_symmetry_1
_geom_bond_site_symmetry_2
Fe1 O1 1_555 1_555
O1 Na1 1_555 1_555
O2 C7 1_555 1_555
O3 Fe1 1_555 1_555
O4 C19 1_555 1_555
N1 Fe1 1_555 1_555
N2 Fe1 1_555 1_555
N3 Fe1 1_555 1_555
N4 Fe1 1_555 1_555
Na1 O3 1_555 1_555
C1 O1 1_555 1_555
C2 C1 1_555 1_555
H1 C2 1_555 1_555
C3 C2 1_555 1_555
H2 C3 1_555 1_555
C4 C3 1_555 1_555
H3 C4 1_555 1_555
C5 C4 1_555 1_555
H4 C5 1_555 1_555
C6 N1 1_555 1_555
C7 N1 1_555 1_555
C8 N2 1_555 1_555
C9 C8 1_555 1_555
H5 C9 1_555 1_555
C10 C9 1_555 1_555
H6 C10 1_555 1_555
C11 C10 1_555 1_555
H7 C11 1_555 1_555
C12 N2 1_555 1_555
H8 C12 1_555 1_555
C13 O3 1_555 1_555
C14 C13 1_555 1_555
H9 C14 1_555 1_555
C15 C14 1_555 1_555
H10 C15 1_555 1_555
C16 C15 1_555 1_555
H11 C16 1_555 1_555
C17 C16 1_555 1_555
H12 C17 1_555 1_555
C18 N3 1_555 1_555
C19 N3 1_555 1_555
C20 N4 1_555 1_555
C21 C20 1_555 1_555
H13 C21 1_555 1_555
C22 C21 1_555 1_555
H14 C22 1_555 1_555
C23 C22 1_555 1_555
H15 C23 1_555 1_555
C24 N4 1_555 1_555
H16 C24 1_555 1_555
N5 Na1 1_555 1_555
C25 N5 1_555 1_555
C26 C25 1_555 1_555
H17 C26 1_555 1_555
H18 C26 1_555 1_555
H19 C26 1_555 1_555
N6 C27 1_555 1_555
C27 C28 1_555 1_555
Na1C O2 1_555 1_555
Na1B O4 1_555 1_555
O2C Na1 1_555 1_555
O4B Na1 1_555 1_555
C1 C6 1_555 1_555
C5 C6 1_555 1_555
C7 C8 1_555 1_555
C11 C12 1_555 1_555
C13 C18 1_555 1_555
C17 C18 1_555 1_555
C19 C20 1_555 1_555
C23 C24 1_555 1_555

#END
