
#######################################################################
#
#                 Cambridge Crystallographic Data Centre
#                                CCDC 
#
#######################################################################
#
# If this CIF has been generated from an entry in the Cambridge 
# Structural Database, then it will include bibliographic, chemical, 
# crystal, experimental, refinement or atomic coordinate data resulting 
# from the CCDC's data processing and validation procedures.
#
#######################################################################

data_FAGVUF
_symmetry_cell_setting           orthorhombic
_symmetry_space_group_name_H-M   'P n a 21'
_symmetry_Int_Tables_number      33
_space_group_name_Hall           'P 2c -2n'
loop_
_symmetry_equiv_pos_site_id
_symmetry_equiv_pos_as_xyz
1 x,y,z
2 -x,-y,1/2+z
3 1/2+x,1/2-y,z
4 1/2-x,1/2+y,1/2+z
_cell_length_a                   7.2670(15)
_cell_length_b                   16.534(3)
_cell_length_c                   10.373(2)
_cell_angle_alpha                90
_cell_angle_beta                 90
_cell_angle_gamma                90
_cell_volume                     1246.34
loop_
_atom_site_label
_atom_site_type_symbol
_atom_site_fract_x
_atom_site_fract_y
_atom_site_fract_z
Eu1 Eu 0.890376(18) 0.418064(9) 0.26251(4)
O1 O 0.5575(4) 0.44895(18) 0.2715(4)
H1 H 0.5921 0.4849 0.3248
H2 H 0.4910 0.4659 0.2097
O2 O 1.1651(4) 0.4477(2) 0.1347(3)
H3 H 1.1567 0.4880 0.0842
H4 H 1.2253 0.4073 0.1067
O3 O 1.1615(6) 0.41570(16) 0.3962(4)
H5 H 1.2024 0.3682 0.4094
H6 H 1.1908 0.4505 0.4529
O4 O 1.0551(4) 0.29355(16) 0.2171(3)
H7 H 1.0150 0.2559 0.1689
H8 H 1.1189 0.2756 0.2795
O5 O 0.7653(4) 0.35990(19) 0.0668(3)
O6 O 0.5666(4) 0.44975(18) -0.0511(3)
O7 O 0.4423(4) 0.33002(17) 0.0506(3)
O8 O 0.5906(5) 0.0569(2) -0.1516(4)
O9 O 0.6641(5) 0.0487(2) -0.3554(3)
O10 O 0.7518(4) 0.30342(15) -0.6087(3)
O11 O 0.7918(4) 0.41748(14) -0.5092(3)
C1 C 0.6350(5) 0.0906(2) -0.2563(6)
C2 C 0.7515(5) 0.3436(2) -0.5074(4)
S1 S 0.60007(11) 0.36671(6) -0.01220(10)
C3 C 0.6384(5) 0.3098(2) -0.1549(4)
C4 C 0.6234(5) 0.2261(3) -0.1483(4)
H9 H 0.5948 0.2005 -0.0710
C5 C 0.6528(5) 0.1812(2) -0.2614(4)
C6 C 0.6943(5) 0.2200(2) -0.3755(4)
H10 H 0.7151 0.1899 -0.4498
C7 C 0.7052(5) 0.3042(2) -0.3803(4)
C8 C 0.6816(5) 0.3489(2) -0.2686(3)
H11 H 0.6967 0.4070 -0.2760
O8C O 0.9094(5) 0.5569(2) 0.3484(4)
O9C O 0.8359(5) 0.5487(2) 0.1446(3)
O10_2 O 0.7518(4) 0.30342(15) 0.3913(3)
O11_2 O 0.7918(4) 0.41748(14) 0.4908(3)
Eu1C Eu 0.609624(18) -0.081936(9) -0.23749(4)
Eu1_2 Eu 0.890376(18) 0.418064(9) -0.73749(4)
loop_
_geom_bond_atom_site_label_1
_geom_bond_atom_site_label_2
_geom_bond_site_symmetry_1
_geom_bond_site_symmetry_2
Eu1 O1 1_555 1_555
O1 H1 1_555 1_555
H2 O1 1_555 1_555
O2 Eu1 1_555 1_555
H3 O2 1_555 1_555
H4 O2 1_555 1_555
O3 Eu1 1_555 1_555
H5 O3 1_555 1_555
H6 O3 1_555 1_555
O4 Eu1 1_555 1_555
H7 O4 1_555 1_555
H8 O4 1_555 1_555
O5 Eu1 1_555 1_555
O6 S1 1_555 1_555
O7 S1 1_555 1_555
O8 C1 1_555 1_555
O9 C1 1_555 1_555
O10 C2 1_555 1_555
O11 C2 1_555 1_555
C1 C5 1_555 1_555
C2 C7 1_555 1_555
S1 O5 1_555 1_555
C3 S1 1_555 1_555
C4 C3 1_555 1_555
H9 C4 1_555 1_555
C5 C4 1_555 1_555
C6 C5 1_555 1_555
H10 C6 1_555 1_555
C7 C6 1_555 1_555
C8 C3 1_555 1_555
H11 C8 1_555 1_555
O8C Eu1 1_555 1_555
O9C Eu1 1_555 1_555
O10_2 Eu1 1_555 1_555
O11_2 Eu1 1_555 1_555
Eu1C O8 1_555 1_555
Eu1_2 O10 1_555 1_555
O9 Eu1C 1_555 1_555
O11 Eu1_2 1_555 1_555
C7 C8 1_555 1_555

#END
