
#######################################################################
#
#                 Cambridge Crystallographic Data Centre
#                                CCDC 
#
#######################################################################
#
# If this CIF has been generated from an entry in the Cambridge 
# Structural Database, then it will include bibliographic, chemical, 
# crystal, experimental, refinement or atomic coordinate data resulting 
# from the CCDC's data processing and validation procedures.
#
#######################################################################

data_FAGWER01
_symmetry_cell_setting           monoclinic
_symmetry_space_group_name_H-M   'P 21'
_symmetry_Int_Tables_number      4
_space_group_name_Hall           'P 2yb'
loop_
_symmetry_equiv_pos_site_id
_symmetry_equiv_pos_as_xyz
1 x,y,z
2 -x,1/2+y,-z
_cell_length_a                   7.7559(19)
_cell_length_b                   11.598(3)
_cell_length_c                   17.588(5)
_cell_angle_alpha                90
_cell_angle_beta                 102.640(2)
_cell_angle_gamma                90
_cell_volume                     1543.75
loop_
_atom_site_label
_atom_site_type_symbol
_atom_site_fract_x
_atom_site_fract_y
_atom_site_fract_z
Zn1 Zn 0.18727(6) 0.35828(3) 0.69611(2)
Zn2 Zn 0.31301(6) 0.64305(3) 0.80341(3)
O1 O -0.3215(5) 0.6870(3) 0.36642(18)
O2 O -0.2250(5) 0.8582(4) 0.40930(18)
O3 O 0.1341(5) 0.6536(4) 0.70791(19)
O4 O 0.0101(5) 0.4831(3) 0.6892(2)
O5 O 0.8393(5) 0.3145(3) 1.13330(19)
O6 O 0.7305(5) 0.1463(4) 1.09265(17)
O7 O 0.4958(5) 0.5214(3) 0.8166(2)
O8 O 0.3841(5) 0.3487(4) 0.7846(2)
N1 N 0.0231(5) 0.2329(4) 0.7207(2)
N2 N -0.5285(6) -0.2244(4) 0.7851(2)
C1 C -0.2987(6) 0.7248(4) 0.5025(3)
C2 C -0.1591(5) 0.6294(4) 0.5373(2)
C3 C -0.1523(6) 0.6412(6) 0.6258(2)
H1 H -0.2548 0.5993 0.6358
C4 C -0.1840(11) 0.7675(5) 0.6391(3)
H2 H -0.2697 0.7756 0.6715
H3 H -0.0747 0.8038 0.6656
C5 C -0.2513(8) 0.8241(4) 0.5621(3)
H4 H -0.1613 0.8733 0.5488
H5 H -0.3548 0.8704 0.5633
C6 C -0.2814(6) 0.7557(5) 0.4200(3)
C7 C 0.0090(7) 0.5887(4) 0.6780(2)
C8 C -0.4892(7) 0.6834(7) 0.4971(4)
H6 H -0.5700 0.7437 0.4755
H7 H -0.5051 0.6642 0.5482
H8 H -0.5114 0.6166 0.4642
C9 C -0.2126(8) 0.5077(5) 0.5086(3)
H9 H -0.1219 0.4543 0.5322
H10 H -0.2281 0.5048 0.4530
H11 H -0.3215 0.4873 0.5227
C10 C 0.0203(7) 0.6556(8) 0.5199(3)
H12 H 0.1026 0.5963 0.5420
H13 H 0.0617 0.7287 0.5422
H14 H 0.0099 0.6581 0.4645
C11 C 0.8011(6) 0.2729(5) 0.9960(3)
C12 C 0.6115(5) 0.2926(3) 0.9449(2)
C13 C 0.6564(6) 0.3571(6) 0.8740(2)
H15 H 0.6996 0.2987 0.8425
C14 C 0.8126(7) 0.4341(6) 0.9077(3)
H16 H 0.7734 0.5129 0.9114
H17 H 0.8973 0.4329 0.8745
C15 C 0.8969(6) 0.3877(5) 0.9883(3)
H18 H 0.8810 0.4416 1.0284
H19 H 1.0224 0.3748 0.9931
C16 C 0.7943(6) 0.2446(5) 1.0802(3)
C17 C 0.4991(6) 0.4143(4) 0.8212(3)
C18 C 0.8957(9) 0.1688(6) 0.9662(3)
H20 H 1.0117 0.1597 0.9987
H21 H 0.9053 0.1830 0.9135
H22 H 0.8284 0.0998 0.9681
C19 C 0.5079(8) 0.3720(7) 0.9877(3)
H23 H 0.3913 0.3837 0.9564
H24 H 0.5674 0.4448 0.9974
H25 H 0.4997 0.3374 1.0364
C20 C 0.5057(8) 0.1835(4) 0.9222(3)
H26 H 0.3913 0.2030 0.8914
H27 H 0.4923 0.1436 0.9684
H28 H 0.5663 0.1348 0.8925
C21 C -0.1527(5) 0.2461(4) 0.7044(2)
H29 H -0.2001 0.3160 0.6838
C22 C -0.2663(5) 0.1605(3) 0.7170(2)
H30 H -0.3878 0.1720 0.7034
C23 C -0.1976(5) 0.0562(4) 0.7503(2)
C24 C -0.0158(6) 0.0446(4) 0.7680(3)
H31 H 0.0358 -0.0235 0.7900
C25 C 0.0880(6) 0.1335(5) 0.7529(3)
H32 H 0.2100 0.1241 0.7658
C26 C -0.3625(6) -0.2152(4) 0.8250(2)
H33 H -0.3179 -0.2734 0.8602
C27 C -0.2537(5) -0.1257(4) 0.8175(2)
H34 H -0.1390 -0.1233 0.8475
C28 C -0.3155(6) -0.0382(4) 0.7647(2)
C29 C -0.4920(6) -0.0449(4) 0.7240(3)
H35 H -0.5405 0.0129 0.6892
C30 C -0.5926(6) -0.1375(6) 0.7362(3)
H36 H -0.7102 -0.1405 0.7096
Zn1A Zn -0.18727(6) 0.85828(3) 0.30389(2)
Zn2A Zn 0.68699(6) 0.14305(3) 1.19659(3)
Zn2_2 Zn -0.68699(6) -0.35695(3) 0.80341(3)
O2A O 0.2250(5) 0.3582(4) 0.59070(18)
O6A O 0.2695(5) 0.6463(4) 0.90735(17)
N2_2 N 0.4715(6) 0.7756(4) 0.7851(2)
loop_
_geom_bond_atom_site_label_1
_geom_bond_atom_site_label_2
_geom_bond_site_symmetry_1
_geom_bond_site_symmetry_2
Zn1 O4 1_555 1_555
Zn2 O3 1_555 1_555
O1 C6 1_555 1_555
O2 C6 1_555 1_555
O3 C7 1_555 1_555
O4 C7 1_555 1_555
O5 C16 1_555 1_555
O6 C16 1_555 1_555
O7 Zn2 1_555 1_555
O8 Zn1 1_555 1_555
N1 Zn1 1_555 1_555
N2 C26 1_555 1_555
C1 C2 1_555 1_555
C2 C3 1_555 1_555
C3 H1 1_555 1_555
C4 C3 1_555 1_555
H2 C4 1_555 1_555
H3 C4 1_555 1_555
C5 C1 1_555 1_555
H4 C5 1_555 1_555
H5 C5 1_555 1_555
C6 C1 1_555 1_555
C7 C3 1_555 1_555
C8 C1 1_555 1_555
H6 C8 1_555 1_555
H7 C8 1_555 1_555
H8 C8 1_555 1_555
C9 C2 1_555 1_555
H9 C9 1_555 1_555
H10 C9 1_555 1_555
H11 C9 1_555 1_555
C10 C2 1_555 1_555
H12 C10 1_555 1_555
H13 C10 1_555 1_555
H14 C10 1_555 1_555
C11 C12 1_555 1_555
C12 C13 1_555 1_555
C13 H15 1_555 1_555
C14 C13 1_555 1_555
H16 C14 1_555 1_555
H17 C14 1_555 1_555
C15 C11 1_555 1_555
H18 C15 1_555 1_555
H19 C15 1_555 1_555
C16 C11 1_555 1_555
C17 O7 1_555 1_555
C18 C11 1_555 1_555
H20 C18 1_555 1_555
H21 C18 1_555 1_555
H22 C18 1_555 1_555
C19 C12 1_555 1_555
H23 C19 1_555 1_555
H24 C19 1_555 1_555
H25 C19 1_555 1_555
C20 C12 1_555 1_555
H26 C20 1_555 1_555
H27 C20 1_555 1_555
H28 C20 1_555 1_555
C21 N1 1_555 1_555
H29 C21 1_555 1_555
C22 C21 1_555 1_555
H30 C22 1_555 1_555
C23 C22 1_555 1_555
C24 C23 1_555 1_555
H31 C24 1_555 1_555
C25 N1 1_555 1_555
H32 C25 1_555 1_555
C26 H33 1_555 1_555
C27 C26 1_555 1_555
H34 C27 1_555 1_555
C28 C23 1_555 1_555
C29 C28 1_555 1_555
H35 C29 1_555 1_555
C30 N2 1_555 1_555
H36 C30 1_555 1_555
Zn1A O2 1_555 1_555
Zn2A O6 1_555 1_555
Zn2_2 N2 1_555 1_555
O2A Zn1 1_555 1_555
O6A Zn2 1_555 1_555
N2_2 Zn2 1_555 1_555
O8 C17 1_555 1_555
C4 C5 1_555 1_555
C13 C17 1_555 1_555
C14 C15 1_555 1_555
C24 C25 1_555 1_555
C27 C28 1_555 1_555
C29 C30 1_555 1_555

#END
