
#######################################################################
#
#                 Cambridge Crystallographic Data Centre
#                                CCDC 
#
#######################################################################
#
# If this CIF has been generated from an entry in the Cambridge 
# Structural Database, then it will include bibliographic, chemical, 
# crystal, experimental, refinement or atomic coordinate data resulting 
# from the CCDC's data processing and validation procedures.
#
#######################################################################

data_FAGWER
_symmetry_cell_setting           monoclinic
_symmetry_space_group_name_H-M   'P 21'
_symmetry_Int_Tables_number      4
_space_group_name_Hall           'P 2yb'
loop_
_symmetry_equiv_pos_site_id
_symmetry_equiv_pos_as_xyz
1 x,y,z
2 -x,1/2+y,-z
_cell_length_a                   7.7056(15)
_cell_length_b                   11.588(2)
_cell_length_c                   17.604(4)
_cell_angle_alpha                90
_cell_angle_beta                 102.37(3)
_cell_angle_gamma                90
_cell_volume                     1535.41
loop_
_atom_site_label
_atom_site_type_symbol
_atom_site_fract_x
_atom_site_fract_y
_atom_site_fract_z
C1 C 0.3052(12) 0.0663(9) 0.6718(6)
H1 H 0.3131 0.1234 0.6340
C2 C 0.2910(11) 0.4971(11) 0.6263(6)
C3 C 0.4254(11) -0.0221(8) 0.6818(6)
H2 H 0.5167 -0.0237 0.6531
C4 C 0.3095(12) 0.5801(9) 0.5049(6)
C5 C 0.4128(14) -0.1089(9) 0.7339(6)
C6 C -0.3045(14) 0.1276(10) 0.9977(7)
C7 C 0.2760(11) -0.1033(9) 0.7737(6)
H3 H 0.2595 -0.1632 0.8084
C8 C -0.2920(12) 0.2184(11) 0.8733(6)
C9 C 0.1636(11) -0.0083(10) 0.7618(6)
H4 H 0.0725 -0.0041 0.7905
C10 C -0.1791(12) 0.2656(9) 0.8200(7)
C11 C 0.5527(11) -0.2018(9) 0.7523(6)
C12 C 0.7107(12) -0.1920(9) 0.7297(6)
H5 H 0.7352 -0.1249 0.7029
C13 C 0.8371(11) -0.2806(10) 0.7460(6)
H6 H 0.9490 -0.2713 0.7324
C14 C 0.5083(12) -0.3077(9) 0.7837(7)
H7 H 0.3947 -0.3211 0.7949
C15 C 0.6441(13) -0.3920(9) 0.7974(7)
H8 H 0.6197 -0.4630 0.8200
C16 C -0.2008(12) 0.0992(10) 1.0794(7)
C17 C 0.1834(11) 0.4375(8) 0.6792(7)
C18 C 0.2206(12) 0.6118(9) 0.4207(6)
C19 C 0.1775(12) 0.5576(8) 0.5561(6)
C20 C 0.4110(13) 0.4157(10) 0.5935(7)
H9 H 0.3623 0.3363 0.5897
H10 H 0.5315 0.4144 0.6273
C21 C 0.4179(13) 0.4629(10) 0.5108(6)
H11 H 0.3616 0.4081 0.4697
H12 H 0.5420 0.4769 0.5062
C22 C 0.0263(14) 0.4792(11) 0.5128(6)
H13 H 0.0773 0.4115 0.4923
H14 H -0.0474 0.5222 0.4697
H15 H -0.0470 0.4540 0.5488
C23 C 0.0872(16) 0.6678(9) 0.5788(7)
H16 H -0.0188 0.6463 0.5978
H17 H 0.0530 0.7177 0.5331
H18 H 0.1703 0.7091 0.6197
C24 C -0.3116(14) 0.0298(9) 0.9364(6)
H19 H -0.1970 -0.0120 0.9448
H20 H -0.4072 -0.0260 0.9393
C25 C -0.3493(16) 0.0920(10) 0.8579(7)
H21 H -0.4774 0.0877 0.8335
H22 H -0.2815 0.0557 0.8224
C26 C -0.2008(12) 0.2260(9) 0.9589(6)
C27 C 0.4375(15) 0.6807(10) 0.5361(7)
H23 H 0.3701 0.7529 0.5330
H24 H 0.5275 0.6874 0.5046
H25 H 0.4957 0.6655 0.5903
C28 C -0.4872(14) 0.1687(12) 1.0031(8)
H26 H -0.5413 0.1126 1.0327
H27 H -0.5614 0.1764 0.9507
H28 H -0.4777 0.2436 1.0295
C29 C -0.2243(16) 0.3464(10) 0.9911(8)
H29 H -0.1587 0.3510 1.0453
H30 H -0.3507 0.3607 0.9887
H31 H -0.1785 0.4044 0.9600
C30 C -0.0020(11) 0.1944(12) 0.9744(6)
H32 H 0.0573 0.2420 0.9415
H33 H 0.0108 0.1127 0.9622
H34 H 0.0524 0.2084 1.0292
N1 N 0.8019(10) -0.3793(8) 0.7810(5)
N2 N 0.1758(11) 0.0777(7) 0.7124(6)
O1 O -0.1365(8) -0.0074(7) 1.0897(4)
O2 O -0.1800(8) 0.3729(6) 0.8100(4)
O3 O -0.1845(9) 0.1667(6) 1.1345(4)
O4 O -0.0868(9) 0.1989(7) 0.7881(4)
O5 O 0.1790(9) 0.3304(6) 0.6823(5)
O6 O 0.1041(9) 0.5065(8) 0.7178(4)
O7 O 0.2095(9) 0.5377(6) 0.3683(5)
O8 O 0.1455(8) 0.7087(7) 0.4081(4)
Zn1 Zn 0.00258(13) 0.20972(7) 0.69495(7)
Zn2 Zn 0.99209(13) -0.50444(6) 0.80499(7)
O1A O 1.1365(8) -0.5074(7) 0.9103(4)
O2_2 O 0.8200(8) -0.6271(6) 0.8100(4)
O6_2 O 1.1041(9) -0.4935(8) 0.7178(4)
O8A O -0.1455(8) 0.2087(7) 0.5919(4)
Zn1A Zn -0.00258(13) 0.70972(7) 0.30505(7)
Zn2A Zn 0.00791(13) -0.00444(6) 1.19501(7)
Zn2_2 Zn -0.00791(13) 0.49556(6) 0.80499(7)
loop_
_geom_bond_atom_site_label_1
_geom_bond_atom_site_label_2
_geom_bond_site_symmetry_1
_geom_bond_site_symmetry_2
C1 H1 1_555 1_555
C2 C17 1_555 1_555
C3 C1 1_555 1_555
H2 C3 1_555 1_555
C4 C18 1_555 1_555
C5 C3 1_555 1_555
C6 C16 1_555 1_555
C7 C5 1_555 1_555
H3 C7 1_555 1_555
C8 C10 1_555 1_555
C9 C7 1_555 1_555
H4 C9 1_555 1_555
C10 O2 1_555 1_555
C11 C5 1_555 1_555
C12 C11 1_555 1_555
H5 C12 1_555 1_555
C13 C12 1_555 1_555
H6 C13 1_555 1_555
C14 C11 1_555 1_555
H7 C14 1_555 1_555
C15 C14 1_555 1_555
H8 C15 1_555 1_555
C16 O1 1_555 1_555
C17 O5 1_555 1_555
C18 O7 1_555 1_555
C19 C2 1_555 1_555
C20 C2 1_555 1_555
H9 C20 1_555 1_555
H10 C20 1_555 1_555
C21 C4 1_555 1_555
H11 C21 1_555 1_555
H12 C21 1_555 1_555
C22 C19 1_555 1_555
H13 C22 1_555 1_555
H14 C22 1_555 1_555
H15 C22 1_555 1_555
C23 C19 1_555 1_555
H16 C23 1_555 1_555
H17 C23 1_555 1_555
H18 C23 1_555 1_555
C24 C6 1_555 1_555
H19 C24 1_555 1_555
H20 C24 1_555 1_555
C25 C8 1_555 1_555
H21 C25 1_555 1_555
H22 C25 1_555 1_555
C26 C6 1_555 1_555
C27 C4 1_555 1_555
H23 C27 1_555 1_555
H24 C27 1_555 1_555
H25 C27 1_555 1_555
C28 C6 1_555 1_555
H26 C28 1_555 1_555
H27 C28 1_555 1_555
H28 C28 1_555 1_555
C29 C26 1_555 1_555
H29 C29 1_555 1_555
H30 C29 1_555 1_555
H31 C29 1_555 1_555
C30 C26 1_555 1_555
H32 C30 1_555 1_555
H33 C30 1_555 1_555
H34 C30 1_555 1_555
N1 C13 1_555 1_555
N2 C1 1_555 1_555
O1 Zn2A 1_555 1_555
O2 Zn2_2 1_555 1_555
O3 C16 1_555 1_555
O4 C10 1_555 1_555
O5 Zn1 1_555 1_555
O6 C17 1_555 1_555
O8 C18 1_555 1_555
Zn1 N2 1_555 1_555
Zn2 N1 1_555 1_555
O1A Zn2 1_555 1_555
O2_2 Zn2 1_555 1_555
O6_2 Zn2 1_555 1_555
O8A Zn1 1_555 1_555
Zn1A O8 1_555 1_555
Zn2_2 O6 1_555 1_555
C4 C19 1_555 1_555
C8 C26 1_555 1_555
C9 N2 1_555 1_555
C15 N1 1_555 1_555
C20 C21 1_555 1_555
C24 C25 1_555 1_555
O4 Zn1 1_555 1_555

#END
