
#######################################################################
#
#                 Cambridge Crystallographic Data Centre
#                                CCDC 
#
#######################################################################
#
# If this CIF has been generated from an entry in the Cambridge 
# Structural Database, then it will include bibliographic, chemical, 
# crystal, experimental, refinement or atomic coordinate data resulting 
# from the CCDC's data processing and validation procedures.
#
#######################################################################

data_FAGXOB
_symmetry_cell_setting           monoclinic
_symmetry_space_group_name_H-M   'C 2/c'
_symmetry_Int_Tables_number      15
_space_group_name_Hall           '-C 2yn'
loop_
_symmetry_equiv_pos_site_id
_symmetry_equiv_pos_as_xyz
1 x,y,z
2 1/2+x,1/2+y,z
3 x,-y,1/2+z
4 1/2+x,1/2-y,1/2+z
5 -x,-y,-z
6 1/2-x,1/2-y,-z
7 -x,y,1/2-z
8 1/2-x,1/2+y,1/2-z
_cell_length_a                   13.6180(10)
_cell_length_b                   9.5850(10)
_cell_length_c                   15.1650(10)
_cell_angle_alpha                90
_cell_angle_beta                 96.780(8)
_cell_angle_gamma                90
_cell_volume                     1965.62
loop_
_atom_site_label
_atom_site_type_symbol
_atom_site_fract_x
_atom_site_fract_y
_atom_site_fract_z
Zn1 Zn 0.0000 0.72423(3) 0.2500
N1 N 0.09542(15) 0.8890(2) 0.28412(12)
C1 C 0.1900(2) 0.8856(5) 0.31804(19)
C2 C 0.2444(3) 1.0083(7) 0.3352(2)
C3 C 0.2021(4) 1.1334(6) 0.3194(3)
C4 C 0.1011(4) 1.1421(4) 0.2845(2)
C5 C 0.0483(6) 1.2677(4) 0.2656(5)
C6 C 0.0518(2) 1.0138(3) 0.26786(15)
C7 C -0.04444(16) 0.5732(3) 0.10819(14)
C8 C -0.0424(3) 0.4939(6) 0.0230(3)
O1 O 0.03428(11) 0.63183(18) 0.14231(10)
O2 O -0.12191(13) 0.5785(2) 0.14448(11)
H2 H 0.218(4) 0.823(6) 0.331(3)
H3 H 0.305(4) 1.007(6) 0.373(4)
H4 H 0.240(5) 1.222(6) 0.328(4)
H5 H 0.075(4) 1.346(6) 0.270(4)
H6 H -0.024(6) 0.426(11) 0.042(6)
H7 H -0.092(3) 0.452(5) 0.008(3)
C5F C -0.0483(6) 1.2677(4) 0.2344(5)
C4F C -0.1011(4) 1.1421(4) 0.2155(2)
C3F C -0.2021(4) 1.1334(6) 0.1806(3)
C2F C -0.2444(3) 1.0083(7) 0.1648(2)
C1F C -0.1900(2) 0.8856(5) 0.18196(19)
N1F N -0.09542(15) 0.8890(2) 0.21588(12)
C6F C -0.0518(2) 1.0138(3) 0.23214(15)
H2F H -0.218(4) 0.823(6) 0.169(3)
H3F H -0.305(4) 1.007(6) 0.127(4)
H4F H -0.240(5) 1.222(6) 0.172(4)
H5F H -0.075(4) 1.346(6) 0.230(4)
C8D C 0.0424(3) 0.5061(6) -0.0230(3)
C7D C 0.04444(16) 0.4268(3) -0.10819(14)
O1D O -0.03428(11) 0.36817(18) -0.14231(10)
O2D O 0.12191(13) 0.4215(2) -0.14448(11)
H6D H 0.024(6) 0.574(11) -0.042(6)
H7D H 0.092(3) 0.548(5) -0.008(3)
O1F O -0.03428(11) 0.63183(18) 0.35769(10)
Zn1B Zn 0.0000 0.27577(3) -0.2500
C9 C 0.13319(18) 1.0388(3) 0.05431(16)
C10 C 0.04480(17) 0.9554(3) 0.01453(17)
O3 O 0.13390(18) 1.1635(3) 0.0636(2)
O4 O 0.20946(17) 0.9591(3) 0.07912(19)
H1 H 0.247(4) 0.997(6) 0.092(3)
H8 H 0.028(3) 0.883(4) 0.065(2)
H9 H 0.064(3) 0.900(4) -0.036(2)
C10D C -0.04480(17) 1.0446(3) -0.01453(17)
C9D C -0.13319(18) 0.9612(3) -0.05431(16)
O3D O -0.13390(18) 0.8365(3) -0.0636(2)
O4D O -0.20946(17) 1.0409(3) -0.07912(19)
H1D H -0.247(4) 1.003(6) -0.092(3)
H8D H -0.028(3) 1.117(4) -0.065(2)
H9D H -0.064(3) 1.100(4) 0.036(2)
loop_
_geom_bond_atom_site_label_1
_geom_bond_atom_site_label_2
_geom_bond_site_symmetry_1
_geom_bond_site_symmetry_2
Zn1 N1 1_555 1_555
N1 C1 1_555 1_555
C1 C2 1_555 1_555
C2 C3 1_555 1_555
C3 C4 1_555 1_555
C4 C5 1_555 1_555
C5 H5 1_555 1_555
C6 N1 1_555 1_555
C7 C8 1_555 1_555
C8 H6 1_555 1_555
C9 C10 1_555 1_555
C10 H8 1_555 1_555
O1 Zn1 1_555 1_555
O2 C7 1_555 1_555
O3 C9 1_555 1_555
O4 C9 1_555 1_555
H1 O4 1_555 1_555
H2 C1 1_555 1_555
H3 C2 1_555 1_555
H4 C3 1_555 1_555
H7 C8 1_555 1_555
H9 C10 1_555 1_555
C5F C5 1_555 1_555
C4F C5F 1_555 1_555
C3F C4F 1_555 1_555
C2F C3F 1_555 1_555
C1F C2F 1_555 1_555
N1F Zn1 1_555 1_555
C6F C6 1_555 1_555
H2F C1F 1_555 1_555
H3F C2F 1_555 1_555
H4F C3F 1_555 1_555
H5F C5F 1_555 1_555
C8D C8 1_555 1_555
C7D C8D 1_555 1_555
O1D C7D 1_555 1_555
O2D C7D 1_555 1_555
H6D C8D 1_555 1_555
H7D C8D 1_555 1_555
C10D C10 1_555 1_555
C9D C10D 1_555 1_555
O3D C9D 1_555 1_555
O4D C9D 1_555 1_555
H1D O4D 1_555 1_555
H8D C10D 1_555 1_555
H9D C10D 1_555 1_555
O1F Zn1 1_555 1_555
Zn1B O1D 1_555 1_555
C4 C6 1_555 1_555
C7 O1 1_555 1_555
C4F C6F 1_555 1_555
C1F N1F 1_555 1_555
N1F C6F 1_555 1_555

#END
