
#######################################################################
#
#                 Cambridge Crystallographic Data Centre
#                                CCDC 
#
#######################################################################
#
# If this CIF has been generated from an entry in the Cambridge 
# Structural Database, then it will include bibliographic, chemical, 
# crystal, experimental, refinement or atomic coordinate data resulting 
# from the CCDC's data processing and validation procedures.
#
#######################################################################

data_FAGZAO
_symmetry_cell_setting           trigonal
_symmetry_space_group_name_H-M   'P -3 1 m'
_symmetry_Int_Tables_number      162
_space_group_name_Hall           "-P 3 2'"
loop_
_symmetry_equiv_pos_site_id
_symmetry_equiv_pos_as_xyz
1 x,y,z
2 -y,x-y,z
3 -x+y,-x,z
4 -y,-x,-z
5 -x+y,y,-z
6 x,x-y,-z
7 -x,-y,-z
8 y,-x+y,-z
9 x-y,x,-z
10 y,x,z
11 x-y,-y,z
12 -x,-x+y,z
_cell_length_a                   14.150(2)
_cell_length_b                   14.150(2)
_cell_length_c                   6.565(2)
_cell_angle_alpha                90
_cell_angle_beta                 90
_cell_angle_gamma                120
_cell_volume                     1138.36
loop_
_atom_site_label
_atom_site_type_symbol
_atom_site_fract_x
_atom_site_fract_y
_atom_site_fract_z
Mn1 Mn 0.3333 0.6667 0.0000
C1 C 0.4321(4) 0.5295(4) 0.1084(6)
C2 C 0.4607(5) 0.4607(5) 0.2075(10)
O1 O 0.3712(3) 0.5630(3) 0.1850(5)
C1C C 0.4705(4) 0.5679(4) -0.1084(6)
C2C C 0.5393(5) 0.5393(5) -0.2075(10)
C1F C 0.5679(4) 0.4705(4) -0.1084(6)
C1I C 0.5295(4) 0.4321(4) 0.1084(6)
O1I O 0.5630(3) 0.3712(3) 0.1850(5)
O1F O 0.6288(3) 0.4370(3) -0.1850(5)
O1C O 0.4370(3) 0.6288(3) -0.1850(5)
C1A C 0.4705(4) 0.9026(6) 0.1084(6)
C2A C 0.5393(5) 1.0000(7) 0.2075(10)
O1A O 0.4370(3) 0.8082(4) 0.1850(5)
C1E C 0.4321(4) 0.9026(6) -0.1084(6)
C2E C 0.4607(5) 1.0000(7) -0.2075(10)
C1G C 0.5295(4) 1.0974(6) -0.1084(6)
C1K C 0.5679(4) 1.0974(6) 0.1084(6)
O1K O 0.6288(3) 1.1918(4) 0.1850(5)
O1G O 0.5630(3) 1.1918(4) -0.1850(5)
O1E O 0.3712(3) 0.8082(4) -0.1850(5)
C1B C 0.0974(6) 0.5679(4) 0.1084(6)
C2B C 0.0000(7) 0.5393(5) 0.2075(10)
O1B O 0.1918(4) 0.6288(3) 0.1850(5)
C1D C 0.0974(6) 0.5295(4) -0.1084(6)
C2D C 0.0000(7) 0.4607(5) -0.2075(10)
C1H C -0.0974(6) 0.4321(4) -0.1084(6)
C1J C -0.0974(6) 0.4705(4) 0.1084(6)
O1J O -0.1918(4) 0.4370(3) 0.1850(5)
O1H O -0.1918(4) 0.3712(3) -0.1850(5)
O1D O 0.1918(4) 0.5630(3) -0.1850(5)
Mn1I Mn 0.6667 0.3333 0.0000
Mn1I_2 Mn 0.6667 1.3333 0.0000
Mn1I_3 Mn -0.3333 0.3333 0.0000
O1J_2 O 0.8082(4) 0.4370(3) 0.1850(5)
O1K_2 O 0.6288(3) 0.1918(4) 0.1850(5)
O1G_2 O 0.5630(3) 0.1918(4) -0.1850(5)
O1H_2 O 0.8082(4) 0.3712(3) -0.1850(5)
Na1 Na 0.0000 0.0000 0.0000
Na2 Na 0.0000 0.0000 0.5000
O2 O 0.2301(2) 0.7699(2) 0.5000
O3 O 0.0000 0.1265(4) 0.7448(9)
O4 O 0.3191(3) 0.2059(4) 0.8153(6)
loop_
_geom_bond_atom_site_label_1
_geom_bond_atom_site_label_2
_geom_bond_site_symmetry_1
_geom_bond_site_symmetry_2
Mn1 O1 1_555 1_555
C1 C2 1_555 1_555
C2 C1I 1_555 1_555
O1 C1 1_555 1_555
C1C C1 1_555 1_555
C2C C1C 1_555 1_555
C1F C2C 1_555 1_555
C1I C1F 1_555 1_555
O1I C1I 1_555 1_555
O1F C1F 1_555 1_555
O1C Mn1 1_555 1_555
C1A C2A 1_555 1_555
C2A C1K 1_555 1_555
O1A Mn1 1_555 1_555
C1E C1A 1_555 1_555
C2E C1E 1_555 1_555
C1G C2E 1_555 1_555
C1K C1G 1_555 1_555
O1K C1K 1_555 1_555
O1G C1G 1_555 1_555
O1E Mn1 1_555 1_555
C1B C2B 1_555 1_555
C2B C1J 1_555 1_555
O1B Mn1 1_555 1_555
C1D C1B 1_555 1_555
C2D C1D 1_555 1_555
C1H C2D 1_555 1_555
C1J C1H 1_555 1_555
O1J C1J 1_555 1_555
O1H C1H 1_555 1_555
O1D Mn1 1_555 1_555
Mn1I O1I 1_555 1_555
Mn1I_2 O1K 1_555 1_555
Mn1I_3 O1J 1_555 1_555
O1J_2 Mn1I 1_555 1_555
O1K_2 Mn1I 1_555 1_555
O1G_2 Mn1I 1_555 1_555
O1H_2 Mn1I 1_555 1_555
C1C O1C 1_555 1_555
O1F Mn1I 1_555 1_555
C1A O1A 1_555 1_555
C1E O1E 1_555 1_555
O1G Mn1I_2 1_555 1_555
C1B O1B 1_555 1_555
C1D O1D 1_555 1_555
O1H Mn1I_3 1_555 1_555

#END
