
#######################################################################
#
#                 Cambridge Crystallographic Data Centre
#                                CCDC 
#
#######################################################################
#
# If this CIF has been generated from an entry in the Cambridge 
# Structural Database, then it will include bibliographic, chemical, 
# crystal, experimental, refinement or atomic coordinate data resulting 
# from the CCDC's data processing and validation procedures.
#
#######################################################################

data_FAGZES
_symmetry_cell_setting           trigonal
_symmetry_space_group_name_H-M   'P -3 1 m'
_symmetry_Int_Tables_number      162
_space_group_name_Hall           "-P 3 2'"
loop_
_symmetry_equiv_pos_site_id
_symmetry_equiv_pos_as_xyz
1 x,y,z
2 -y,x-y,z
3 -x+y,-x,z
4 -y,-x,-z
5 -x+y,y,-z
6 x,x-y,-z
7 -x,-y,-z
8 y,-x+y,-z
9 x-y,x,-z
10 y,x,z
11 x-y,-y,z
12 -x,-x+y,z
_cell_length_a                   14.445(2)
_cell_length_b                   14.445(2)
_cell_length_c                   6.474(2)
_cell_angle_alpha                90
_cell_angle_beta                 90
_cell_angle_gamma                120
_cell_volume                     1169.87
loop_
_atom_site_label
_atom_site_type_symbol
_atom_site_fract_x
_atom_site_fract_y
_atom_site_fract_z
Cd1 Cd 0.3333 0.6667 0.0000
C1 C 0.4324(3) 0.5285(3) -0.1099(8)
C2 C 0.4632(5) 0.4632(5) -0.2082(12)
O1 O 0.3745(3) 0.5616(3) -0.1931(6)
C1C C 0.4715(3) 0.5676(3) 0.1099(8)
C2C C 0.5368(5) 0.5368(5) 0.2082(12)
C1F C 0.5676(3) 0.4715(3) 0.1099(8)
C1I C 0.5285(3) 0.4324(3) -0.1099(8)
O1I O 0.5616(3) 0.3745(3) -0.1931(6)
O1F O 0.6255(3) 0.4384(3) 0.1931(6)
O1C O 0.4384(3) 0.6255(3) 0.1931(6)
C1A C 0.4715(3) 0.9039(4) -0.1099(8)
C2A C 0.5368(5) 1.0000(7) -0.2082(12)
O1A O 0.4384(3) 0.8129(4) -0.1931(6)
C1E C 0.4324(3) 0.9039(4) 0.1099(8)
C2E C 0.4632(5) 1.0000(7) 0.2082(12)
C1G C 0.5285(3) 1.0961(4) 0.1099(8)
C1K C 0.5676(3) 1.0961(4) -0.1099(8)
O1K O 0.6255(3) 1.1871(4) -0.1931(6)
O1G O 0.5616(3) 1.1871(4) 0.1931(6)
O1E O 0.3745(3) 0.8129(4) 0.1931(6)
C1B C 0.0961(4) 0.5676(3) -0.1099(8)
C2B C 0.0000(7) 0.5368(5) -0.2082(12)
O1B O 0.1871(4) 0.6255(3) -0.1931(6)
C1D C 0.0961(4) 0.5285(3) 0.1099(8)
C2D C 0.0000(7) 0.4632(5) 0.2082(12)
C1H C -0.0961(4) 0.4324(3) 0.1099(8)
C1J C -0.0961(4) 0.4715(3) -0.1099(8)
O1J O -0.1871(4) 0.4384(3) -0.1931(6)
O1H O -0.1871(4) 0.3745(3) 0.1931(6)
O1D O 0.1871(4) 0.5616(3) 0.1931(6)
Cd1I Cd 0.6667 0.3333 0.0000
Cd1I_2 Cd 0.6667 1.3333 0.0000
Cd1I_3 Cd -0.3333 0.3333 0.0000
O1J_2 O 0.8129(4) 0.4384(3) -0.1931(6)
O1K_2 O 0.6255(3) 0.1871(4) -0.1931(6)
O1G_2 O 0.5616(3) 0.1871(4) 0.1931(6)
O1H_2 O 0.8129(4) 0.3745(3) 0.1931(6)
Na1 Na 0.0000 0.0000 0.0000
Na2 Na 0.0000 0.0000 0.5000
O2 O 0.2276(2) 0.7724(2) 0.5000
O3 O 0.0000 0.1241(4) 0.2508(10)
O4 O 0.3122(4) 0.2000(4) 0.1872(4)
loop_
_geom_bond_atom_site_label_1
_geom_bond_atom_site_label_2
_geom_bond_site_symmetry_1
_geom_bond_site_symmetry_2
Cd1 O1 1_555 1_555
C1 C2 1_555 1_555
C2 C1I 1_555 1_555
O1 C1 1_555 1_555
C1C C1 1_555 1_555
C2C C1C 1_555 1_555
C1F C2C 1_555 1_555
C1I C1F 1_555 1_555
O1I C1I 1_555 1_555
O1F C1F 1_555 1_555
O1C Cd1 1_555 1_555
C1A C2A 1_555 1_555
C2A C1K 1_555 1_555
O1A Cd1 1_555 1_555
C1E C1A 1_555 1_555
C2E C1E 1_555 1_555
C1G C2E 1_555 1_555
C1K C1G 1_555 1_555
O1K C1K 1_555 1_555
O1G C1G 1_555 1_555
O1E Cd1 1_555 1_555
C1B C2B 1_555 1_555
C2B C1J 1_555 1_555
O1B Cd1 1_555 1_555
C1D C1B 1_555 1_555
C2D C1D 1_555 1_555
C1H C2D 1_555 1_555
C1J C1H 1_555 1_555
O1J C1J 1_555 1_555
O1H C1H 1_555 1_555
O1D Cd1 1_555 1_555
Cd1I O1I 1_555 1_555
Cd1I_2 O1K 1_555 1_555
Cd1I_3 O1J 1_555 1_555
O1J_2 Cd1I 1_555 1_555
O1K_2 Cd1I 1_555 1_555
O1G_2 Cd1I 1_555 1_555
O1H_2 Cd1I 1_555 1_555
C1C O1C 1_555 1_555
O1F Cd1I 1_555 1_555
C1A O1A 1_555 1_555
C1E O1E 1_555 1_555
O1G Cd1I_2 1_555 1_555
C1B O1B 1_555 1_555
C1D O1D 1_555 1_555
O1H Cd1I_3 1_555 1_555

#END
