
#######################################################################
#
#                 Cambridge Crystallographic Data Centre
#                                CCDC 
#
#######################################################################
#
# If this CIF has been generated from an entry in the Cambridge 
# Structural Database, then it will include bibliographic, chemical, 
# crystal, experimental, refinement or atomic coordinate data resulting 
# from the CCDC's data processing and validation procedures.
#
#######################################################################

data_FAHDIC
_symmetry_cell_setting           triclinic
_symmetry_space_group_name_H-M   'P -1'
_symmetry_Int_Tables_number      2
_space_group_name_Hall           '-P 1'
loop_
_symmetry_equiv_pos_site_id
_symmetry_equiv_pos_as_xyz
1 x,y,z
2 -x,-y,-z
_cell_length_a                   5.1295(5)
_cell_length_b                   5.9118(6)
_cell_length_c                   12.1815(12)
_cell_angle_alpha                92.071(2)
_cell_angle_beta                 96.540(2)
_cell_angle_gamma                106.322(2)
_cell_volume                     351.303
loop_
_atom_site_label
_atom_site_type_symbol
_atom_site_fract_x
_atom_site_fract_y
_atom_site_fract_z
Ag1 Ag 0.22548(7) -0.01362(7) 0.07622(3)
O1 O 0.0981(6) 0.2644(5) 0.1597(2)
O2 O -0.2617(6) 0.2888(5) 0.0421(2)
O3 O 0.1660(6) 0.7797(6) 0.4764(2)
O4 O -0.4788(6) 0.9741(5) 0.2440(2)
N1 N 0.0254(6) 0.5722(6) 0.3094(3)
H1 H 0.1302 0.4837 0.3248
N2 N -0.1568(7) 0.8710(6) 0.3576(3)
H2 H -0.1652 0.9781 0.4056
C1 C 0.0208(8) 0.7430(7) 0.3869(3)
C2 C -0.3227(8) 0.8452(7) 0.2589(3)
C3 C -0.3008(8) 0.6675(7) 0.1806(3)
H3 H -0.4041 0.6426 0.1110
C4 C -0.1308(8) 0.5367(7) 0.2078(3)
C5 C -0.0958(8) 0.3457(7) 0.1295(3)
Ag1A Ag -0.22548(7) 0.01362(7) -0.07622(3)
Ag1A_2 Ag 0.77452(7) 0.01362(7) -0.07622(3)
O2A O 0.2617(6) -0.2888(5) -0.0421(2)
O4_2 O 0.5212(6) -0.0259(5) 0.2440(2)
Ag1_2 Ag -0.77452(7) 0.98638(7) 0.07622(3)
O5 O -0.4086(7) -0.3347(7) -0.3887(3)
H4 H -0.500(9) -0.320(9) -0.444(3)
H5 H -0.43(2) -0.245(15) -0.339(5)
loop_
_geom_bond_atom_site_label_1
_geom_bond_atom_site_label_2
_geom_bond_site_symmetry_1
_geom_bond_site_symmetry_2
Ag1 O1 1_555 1_555
O1 C5 1_555 1_555
O2 C5 1_555 1_555
O3 C1 1_555 1_555
O4 C2 1_555 1_555
N1 H1 1_555 1_555
N2 H2 1_555 1_555
C1 N1 1_555 1_555
C2 N2 1_555 1_555
C3 C2 1_555 1_555
H3 C3 1_555 1_555
C4 N1 1_555 1_555
C5 C4 1_555 1_555
O5 H4 1_555 1_555
H5 O5 1_555 1_555
Ag1A Ag1 1_555 1_555
Ag1A_2 Ag1 1_555 1_555
O2A Ag1 1_555 1_555
O4_2 Ag1 1_555 1_555
Ag1_2 O4 1_555 1_555
O2 Ag1A 1_555 1_555
N2 C1 1_555 1_555
C3 C4 1_555 1_555

#END
