
#######################################################################
#
#                 Cambridge Crystallographic Data Centre
#                                CCDC 
#
#######################################################################
#
# If this CIF has been generated from an entry in the Cambridge 
# Structural Database, then it will include bibliographic, chemical, 
# crystal, experimental, refinement or atomic coordinate data resulting 
# from the CCDC's data processing and validation procedures.
#
#######################################################################

data_FAHGEC
_symmetry_cell_setting           monoclinic
_symmetry_space_group_name_H-M   'C 2/m'
_symmetry_Int_Tables_number      12
_space_group_name_Hall           '-C 2y'
loop_
_symmetry_equiv_pos_site_id
_symmetry_equiv_pos_as_xyz
1 x,y,z
2 -x,y,-z
3 1/2+x,1/2+y,z
4 1/2-x,1/2+y,-z
5 -x,-y,-z
6 x,-y,z
7 1/2-x,1/2-y,-z
8 1/2+x,1/2-y,z
_cell_length_a                   25.745(6)
_cell_length_b                   9.538(2)
_cell_length_c                   3.9843(10)
_cell_angle_alpha                90
_cell_angle_beta                 95.716(4)
_cell_angle_gamma                90
_cell_volume                     973.503
loop_
_atom_site_label
_atom_site_type_symbol
_atom_site_fract_x
_atom_site_fract_y
_atom_site_fract_z
Br1 Br 1.0000 0.78905(15) 0.5000
Br2 Br 1.11683(6) 1.0000 0.1050(3)
Cu1 Cu 1.05823(10) 1.0000 0.5768(6)
Cu2 Cu 0.93080(17) 0.7868(4) -0.0767(12)
N1 N 0.8989(4) 0.6154(11) -0.044(2)
C1 C 0.8534(4) 0.5738(11) 0.071(2)
C2 C 0.8120(4) 0.6489(13) 0.181(3)
H1 H 0.8121 0.7464 0.1808
C3 C 0.9255(6) 0.5000 -0.125(4)
H2 H 0.9570 0.5000 -0.2219
C4 C 0.7696(4) 0.5721(12) 0.294(3)
H3 H 0.7415 0.6202 0.3694
Br1D Br 1.0000 1.21095(15) 0.5000
Br1_2 Br 1.0000 0.78905(15) -0.5000
Br1_3 Br 1.0000 0.78905(15) 1.5000
Br2_2 Br 1.11683(6) 1.0000 1.1050(3)
Br2A Br 0.88317(6) 1.0000 -0.1050(3)
Br2A_2 Br 0.88317(6) 1.0000 0.8950(3)
Cu1A Cu 0.94177(10) 1.0000 0.4232(6)
Cu1_2 Cu 1.05823(10) 1.0000 -0.4232(6)
Cu2_2 Cu 0.93080(17) 0.7868(4) 0.9233(12)
Cu2A Cu 1.06920(17) 0.7868(4) 0.0767(12)
Cu2A_2 Cu 1.06920(17) 0.7868(4) 1.0767(12)
Cu2D Cu 1.06920(17) 1.2132(4) 0.0767(12)
Cu2E Cu 0.93080(17) 0.2132(4) -0.0767(12)
N1E N 0.8989(4) 0.3846(11) -0.044(2)
N1_2 N 0.8989(4) 0.6154(11) 0.956(2)
C1E C 0.8534(4) 0.4262(11) 0.071(2)
C2E C 0.8120(4) 0.3511(13) 0.181(3)
H1E H 0.8121 0.2536 0.1808
C4E C 0.7696(4) 0.4279(12) 0.294(3)
H3E H 0.7415 0.3798 0.3694
loop_
_geom_bond_atom_site_label_1
_geom_bond_atom_site_label_2
_geom_bond_site_symmetry_1
_geom_bond_site_symmetry_2
Br1 Cu1 1_555 1_555
Br2 Cu1 1_555 1_555
Cu1 Br1D 1_555 1_555
Cu2 Br1 1_555 1_555
N1 Cu2 1_555 1_555
C1 N1 1_555 1_555
C2 C1 1_555 1_555
H1 C2 1_555 1_555
C3 N1 1_555 1_555
H2 C3 1_555 1_555
C4 C2 1_555 1_555
H3 C4 1_555 1_555
Br1D Cu1A 1_555 1_555
Br1_2 Cu2 1_555 1_555
Br1_3 Cu2_2 1_555 1_555
Br2_2 Cu1 1_555 1_555
Br2A Cu2 1_555 1_555
Br2A_2 Cu1A 1_555 1_555
Cu1A Br1 1_555 1_555
Cu1_2 Br2 1_555 1_555
Cu2_2 Br1 1_555 1_555
Cu2A Br1 1_555 1_555
Cu2A_2 Br1 1_555 1_555
Cu2D Br2 1_555 1_555
Cu2E N1E 1_555 1_555
N1E C3 1_555 1_555
N1_2 Cu2_2 1_555 1_555
C1E C1 1_555 1_555
C2E C1E 1_555 1_555
H1E C2E 1_555 1_555
C4E C4 1_555 1_555
H3E C4E 1_555 1_555
Br2 Cu2A 1_555 1_555
Br1D Cu2D 1_555 1_555
Br1_2 Cu1_2 1_555 1_555
Br1_2 Cu2A 1_555 1_555
Br1_3 Cu2A_2 1_555 1_555
Br2_2 Cu2A_2 1_555 1_555
Br2A Cu1A 1_555 1_555
Br2A_2 Cu2_2 1_555 1_555
N1E C1E 1_555 1_555
C2E C4E 1_555 1_555

#END
