
#######################################################################
#
#                 Cambridge Crystallographic Data Centre
#                                CCDC 
#
#######################################################################
#
# If this CIF has been generated from an entry in the Cambridge 
# Structural Database, then it will include bibliographic, chemical, 
# crystal, experimental, refinement or atomic coordinate data resulting 
# from the CCDC's data processing and validation procedures.
#
#######################################################################

data_FAHHUT
_symmetry_cell_setting           triclinic
_symmetry_space_group_name_H-M   'P -1'
_symmetry_Int_Tables_number      2
_space_group_name_Hall           '-P 1'
loop_
_symmetry_equiv_pos_site_id
_symmetry_equiv_pos_as_xyz
1 x,y,z
2 -x,-y,-z
_cell_length_a                   10.253(5)
_cell_length_b                   10.665(5)
_cell_length_c                   10.740(5)
_cell_angle_alpha                94.601(5)
_cell_angle_beta                 113.788(5)
_cell_angle_gamma                110.685(5)
_cell_volume                     970.741
loop_
_atom_site_label
_atom_site_type_symbol
_atom_site_fract_x
_atom_site_fract_y
_atom_site_fract_z
Zn1 Zn 0.0000 0.5000 0.0000
Zn2 Zn -0.38658(3) 0.25312(3) -0.06642(3)
O1 O -0.4079(2) 0.3800(2) -0.18427(19)
O2 O -0.3271(2) 0.0981(2) -0.0866(2)
O3 O -0.1776(2) 0.50850(18) -0.17747(18)
O4 O -0.1205(2) 0.28507(18) -0.0473(2)
O5 O -1.1828(2) 0.0670(2) -0.3745(2)
C1 C -0.4145(3) 0.4831(2) -0.3690(2)
C2 C -0.1843(3) 0.1589(3) -0.0571(3)
O6 O -0.2908(2) 0.3291(2) 0.13446(19)
C3 C -0.0889(3) 0.0762(3) -0.0295(3)
O7 O -0.1038(2) 0.51846(19) 0.13498(18)
C4 C -0.1631(3) -0.0678(3) -0.0717(3)
H1 H -0.2723 -0.1132 -0.1196
C5 C -0.5747(3) 0.4411(3) -0.4238(3)
H2 H -0.6257 0.4012 -0.3728
C6 C -0.7066(3) 0.0131(3) -0.2052(3)
H3 H -0.6519 -0.0421 -0.1930
C7 C -1.4531(3) -0.1024(3) -0.5250(3)
H4 H -1.4219 -0.1712 -0.5416
C8 C -1.3430(3) 0.0277(3) -0.4399(3)
N1 N -0.6256(2) 0.1510(2) -0.1477(2)
C9 C -0.9525(3) 0.0309(3) -0.2995(3)
C10 C -1.3887(3) 0.1296(3) -0.4143(3)
H5 H -1.3134 0.2170 -0.3561
C11 C 0.0565(3) 0.5915(3) 0.4307(3)
H6 H 0.0945 0.6533 0.3841
C12 C -0.3391(3) 0.5422(3) -0.4452(3)
H7 H -0.2312 0.5706 -0.4090
C13 C -0.1371(3) 0.3803(3) 0.4246(3)
H8 H -0.2294 0.2997 0.3740
C14 C -0.8680(3) -0.0486(3) -0.2813(3)
H9 H -0.9206 -0.1440 -0.3207
C15 C -1.1288(3) -0.0355(3) -0.3830(3)
H10 H -1.1601 -0.0751 -0.4806
H11 H -1.1735 -0.1092 -0.3452
C16 C -0.0807(3) 0.4719(3) 0.3544(2)
C17 C -0.7082(3) 0.2268(3) -0.1637(3)
H12 H -0.6536 0.3220 -0.1228
C18 C 0.0742(3) 0.1434(3) 0.0424(3)
H13 H 0.1238 0.2399 0.0709
C19 C -0.3231(3) 0.4572(2) -0.2312(2)
C20 C -0.1634(3) 0.4393(3) 0.1956(3)
C21 C -0.8691(3) 0.1718(3) -0.2371(3)
H14 H -0.9214 0.2287 -0.2448
Zn1_2 Zn -1.0000 0.5000 -1.0000
Zn1_3 Zn 0.0000 -0.5000 0.0000
Zn1_4 Zn 0.0000 0.5000 1.0000
Zn2A Zn -0.61342(3) 0.74688(3) -0.93358(3)
Zn2A_2 Zn 0.38658(3) -0.25312(3) 0.06642(3)
Zn2A_3 Zn -2.61342(3) -0.25312(3) -0.93358(3)
Zn2A_4 Zn 0.38658(3) 0.74688(3) 1.06642(3)
O1A O -0.5921(2) 0.6200(2) -0.81573(19)
O2A O 0.3271(2) -0.0981(2) 0.0866(2)
O2A_2 O -0.6729(2) 0.9019(2) -0.9134(2)
O3A O -0.8224(2) 0.49150(18) -0.82253(18)
O3A_2 O 0.1776(2) 0.49150(18) 0.17747(18)
O4A O 0.1205(2) -0.28507(18) 0.0473(2)
O4A_2 O 0.1205(2) 0.71493(18) 0.0473(2)
O5A O -1.8172(2) -0.0670(2) -0.6255(2)
C1A C -0.5855(3) 0.5169(2) -0.6310(2)
C2A C 0.1843(3) -0.1589(3) 0.0571(3)
O6A O 0.2908(2) 0.6709(2) 0.86554(19)
O6A_2 O -0.7092(2) 0.6709(2) -1.13446(19)
C3A C 0.0889(3) -0.0762(3) 0.0295(3)
O7A O 0.1038(2) 0.48154(19) 0.86502(18)
O7A_2 O 0.1038(2) 0.48154(19) -0.13498(18)
C4A C 0.1631(3) 0.0678(3) 0.0717(3)
H1A H 0.2723 0.1132 0.1196
C5A C -0.4253(3) 0.5589(3) -0.5762(3)
H2A H -0.3743 0.5988 -0.6272
C6A C -2.2934(3) -0.0131(3) -0.7948(3)
H3A H -2.3481 0.0421 -0.8070
C7A C -1.5469(3) 0.1024(3) -0.4750(3)
H4A H -1.5781 0.1712 -0.4584
C8A C -1.6570(3) -0.0277(3) -0.5601(3)
N1A N -2.3744(2) -0.1510(2) -0.8523(2)
N1A_2 N -0.3744(2) 0.8490(2) -0.8523(2)
C9A C -2.0475(3) -0.0309(3) -0.7005(3)
C10A C -1.6113(3) -0.1296(3) -0.5857(3)
H5A H -1.6866 -0.2170 -0.6439
C11A C -0.0565(3) 0.4085(3) 0.5693(3)
H6A H -0.0945 0.3467 0.6159
C12A C -0.6609(3) 0.4578(3) -0.5548(3)
H7A H -0.7688 0.4294 -0.5910
C13A C 0.1371(3) 0.6197(3) 0.5754(3)
H8A H 0.2294 0.7003 0.6260
C14A C -2.1320(3) 0.0486(3) -0.7187(3)
H9A H -2.0794 0.1440 -0.6793
C15A C -1.8712(3) 0.0355(3) -0.6170(3)
H10A H -1.8399 0.0751 -0.5194
H11A H -1.8265 0.1092 -0.6548
C16A C 0.0807(3) 0.5281(3) 0.6456(2)
C17A C -2.2918(3) -0.2268(3) -0.8363(3)
H12A H -2.3464 -0.3220 -0.8772
C18A C -0.0742(3) -0.1434(3) -0.0424(3)
H13A H -0.1238 -0.2399 -0.0709
C19A C -0.6769(3) 0.5428(2) -0.7688(2)
C20A C 0.1634(3) 0.5607(3) 0.8044(3)
C21A C -2.1309(3) -0.1718(3) -0.7629(3)
H14A H -2.0786 -0.2287 -0.7552
loop_
_geom_bond_atom_site_label_1
_geom_bond_atom_site_label_2
_geom_bond_site_symmetry_1
_geom_bond_site_symmetry_2
Zn1 O3 1_555 1_555
Zn2 O1 1_555 1_555
O1 C19 1_555 1_555
O2 Zn2 1_555 1_555
O3 C19 1_555 1_555
O4 Zn1 1_555 1_555
O5 C8 1_555 1_555
C1 C5 1_555 1_555
C2 O2 1_555 1_555
O6 Zn2 1_555 1_555
C3 C2 1_555 1_555
O7 Zn1 1_555 1_555
C4 C3 1_555 1_555
H1 C4 1_555 1_555
C5 H2 1_555 1_555
C6 H3 1_555 1_555
C7 H4 1_555 1_555
C8 C7 1_555 1_555
N1 Zn2 1_555 1_555
C9 C14 1_555 1_555
C10 C8 1_555 1_555
H5 C10 1_555 1_555
C11 H6 1_555 1_555
C12 C1 1_555 1_555
H7 C12 1_555 1_555
C13 H8 1_555 1_555
C14 C6 1_555 1_555
H9 C14 1_555 1_555
C15 O5 1_555 1_555
H10 C15 1_555 1_555
H11 C15 1_555 1_555
C16 C11 1_555 1_555
C17 N1 1_555 1_555
H12 C17 1_555 1_555
C18 C3 1_555 1_555
H13 C18 1_555 1_555
C19 C1 1_555 1_555
C20 O6 1_555 1_555
C21 C9 1_555 1_555
H14 C21 1_555 1_555
Zn1_2 O3A 1_555 1_555
Zn1_3 O4A 1_555 1_555
Zn1_4 O7A 1_555 1_555
Zn2A O1A 1_555 1_555
Zn2A_2 O2A 1_555 1_555
Zn2A_3 N1A 1_555 1_555
Zn2A_4 O6A 1_555 1_555
O1A C19A 1_555 1_555
O2A C2A 1_555 1_555
O2A_2 Zn2A 1_555 1_555
O3A C19A 1_555 1_555
O3A_2 Zn1 1_555 1_555
O4A C2A 1_555 1_555
O4A_2 Zn1 1_555 1_555
O5A C8A 1_555 1_555
C1A C5A 1_555 1_555
C2A C3A 1_555 1_555
O6A C20A 1_555 1_555
O6A_2 Zn2A 1_555 1_555
C3A C4A 1_555 1_555
O7A C20A 1_555 1_555
O7A_2 Zn1 1_555 1_555
C4A C18 1_555 1_555
H1A C4A 1_555 1_555
C5A C12 1_555 1_555
H2A C5A 1_555 1_555
C6A H3A 1_555 1_555
C7A C10 1_555 1_555
H4A C7A 1_555 1_555
C8A C7A 1_555 1_555
N1A C6A 1_555 1_555
N1A_2 Zn2A 1_555 1_555
C9A C14A 1_555 1_555
C10A C7 1_555 1_555
H5A C10A 1_555 1_555
C11A C13 1_555 1_555
H6A C11A 1_555 1_555
C12A C5 1_555 1_555
H7A C12A 1_555 1_555
C13A C11 1_555 1_555
H8A C13A 1_555 1_555
C14A C6A 1_555 1_555
H9A C14A 1_555 1_555
C15A O5A 1_555 1_555
H10A C15A 1_555 1_555
H11A C15A 1_555 1_555
C16A C11A 1_555 1_555
C17A N1A 1_555 1_555
H12A C17A 1_555 1_555
C18A C4 1_555 1_555
H13A C18A 1_555 1_555
C19A C1A 1_555 1_555
C20A C16A 1_555 1_555
C21A C9A 1_555 1_555
H14A C21A 1_555 1_555
O4 C2 1_555 1_555
O7 C20 1_555 1_555
C6 N1 1_555 1_555
C9 C15 1_555 1_555
C13 C16 1_555 1_555
C16 C20 1_555 1_555
C17 C21 1_555 1_555
C1A C12A 1_555 1_555
C3A C18A 1_555 1_555
C8A C10A 1_555 1_555
C9A C15A 1_555 1_555
C13A C16A 1_555 1_555
C17A C21A 1_555 1_555

#END
