
#######################################################################
#
#                 Cambridge Crystallographic Data Centre
#                                CCDC 
#
#######################################################################
#
# If this CIF has been generated from an entry in the Cambridge 
# Structural Database, then it will include bibliographic, chemical, 
# crystal, experimental, refinement or atomic coordinate data resulting 
# from the CCDC's data processing and validation procedures.
#
#######################################################################

data_FAHJUV
_symmetry_cell_setting           triclinic
_symmetry_space_group_name_H-M   'P -1'
_symmetry_Int_Tables_number      2
_space_group_name_Hall           '-P 1'
loop_
_symmetry_equiv_pos_site_id
_symmetry_equiv_pos_as_xyz
1 x,y,z
2 -x,-y,-z
_cell_length_a                   9.2235(10)
_cell_length_b                   9.8300(10)
_cell_length_c                   10.5498(13)
_cell_angle_alpha                84.376(7)
_cell_angle_beta                 65.630(6)
_cell_angle_gamma                86.336(8)
_cell_volume                     866.808
loop_
_atom_site_label
_atom_site_type_symbol
_atom_site_fract_x
_atom_site_fract_y
_atom_site_fract_z
U1 U 0.578463(17) 0.953032(17) 0.720525(15)
O1 O 0.7149(4) 1.0779(4) 0.7055(4)
O2 O 0.4352(4) 0.8375(4) 0.7348(4)
O3 O 0.7185(4) 0.9196(4) 0.4794(3)
O4 O 0.5501(4) 0.8889(4) 0.3827(3)
O5 O 0.5992(4) 0.9380(4) 0.0826(3)
O6 O 0.5750(4) 0.8177(4) -0.0757(3)
O7 O 0.7984(4) 0.7883(4) 0.6767(4)
H1 H 0.8059 0.7446 0.7495
H2 H 0.8703 0.7686 0.6019
N1 N 0.9288(5) 0.7257(5) 0.0460(4)
N2 N 0.6451(5) 0.5703(4) 0.2986(4)
C1 C 1.0681(6) 0.7834(6) 0.0104(5)
H9 H 1.1508 0.7634 -0.0738
C2 C 1.0969(6) 0.8703(6) 0.0903(5)
H10 H 1.1971 0.9066 0.0620
C3 C 0.9738(5) 0.9030(6) 0.2141(5)
H11 H 0.9901 0.9616 0.2708
C4 C 0.8264(5) 0.8476(5) 0.2525(5)
C5 C 0.8077(5) 0.7574(5) 0.1667(4)
C6 C 0.6642(5) 0.6757(5) 0.2033(5)
C7 C 0.5655(5) 0.6994(5) 0.1318(5)
C8 C 0.4496(6) 0.6074(6) 0.1555(5)
H12 H 0.3855 0.6187 0.1063
C9 C 0.4290(6) 0.4975(6) 0.2533(5)
H13 H 0.3508 0.4340 0.2718
C10 C 0.5283(6) 0.4849(6) 0.3228(5)
H14 H 0.5127 0.4126 0.3904
C11 C 0.6886(6) 0.8884(5) 0.3808(5)
C12 C 0.5824(5) 0.8274(5) 0.0384(5)
U1A U 0.421537(17) 1.046968(17) 0.279475(15)
U1_2 U 0.578463(17) 0.953032(17) -0.279475(15)
O4A O 0.4499(4) 1.1111(4) 0.6173(3)
O5A O 0.4008(4) 1.0620(4) 0.9174(3)
O6_2 O 0.5750(4) 0.8177(4) 0.9243(3)
O8 O 0.8609(4) 0.5977(4) -0.1559(4)
H3 H 0.8933 0.6363 -0.0998
H4 H 0.9392 0.5632 -0.2092
O9 O 1.0564(4) 0.7046(4) 0.4511(4)
H5 H 1.1354 0.7621 0.3964
H6 H 1.0898 0.6569 0.4906
O10 O 0.8931(4) 0.5139(4) 0.3842(4)
H7 H 0.7957 0.5159 0.3846
H8 H 0.8933 0.5924 0.4077
loop_
_geom_bond_atom_site_label_1
_geom_bond_atom_site_label_2
_geom_bond_site_symmetry_1
_geom_bond_site_symmetry_2
U1 O1 1_555 1_555
O2 U1 1_555 1_555
O3 U1 1_555 1_555
O4 C11 1_555 1_555
O5 C12 1_555 1_555
O6 C12 1_555 1_555
O7 U1 1_555 1_555
H1 O7 1_555 1_555
H2 O7 1_555 1_555
O8 H3 1_555 1_555
H4 O8 1_555 1_555
O9 H5 1_555 1_555
H6 O9 1_555 1_555
O10 H7 1_555 1_555
H8 O10 1_555 1_555
N1 C1 1_555 1_555
N2 C6 1_555 1_555
C1 H9 1_555 1_555
C2 C1 1_555 1_555
H10 C2 1_555 1_555
C3 C2 1_555 1_555
H11 C3 1_555 1_555
C4 C3 1_555 1_555
C5 N1 1_555 1_555
C6 C5 1_555 1_555
C7 C6 1_555 1_555
C8 C7 1_555 1_555
H12 C8 1_555 1_555
C9 C8 1_555 1_555
H13 C9 1_555 1_555
C10 N2 1_555 1_555
H14 C10 1_555 1_555
C11 O3 1_555 1_555
C12 C7 1_555 1_555
U1A O4 1_555 1_555
U1_2 O6 1_555 1_555
O4A U1 1_555 1_555
O5A U1 1_555 1_555
O6_2 U1 1_555 1_555
O5 U1A 1_555 1_555
C4 C5 1_555 1_555
C4 C11 1_555 1_555
C9 C10 1_555 1_555

#END
