
#######################################################################
#
#                 Cambridge Crystallographic Data Centre
#                                CCDC 
#
#######################################################################
#
# If this CIF has been generated from an entry in the Cambridge 
# Structural Database, then it will include bibliographic, chemical, 
# crystal, experimental, refinement or atomic coordinate data resulting 
# from the CCDC's data processing and validation procedures.
#
#######################################################################

data_FAHJIJ
_symmetry_cell_setting           monoclinic
_symmetry_space_group_name_H-M   'P 21/c'
_symmetry_Int_Tables_number      14
_space_group_name_Hall           '-P 2ybc'
loop_
_symmetry_equiv_pos_site_id
_symmetry_equiv_pos_as_xyz
1 x,y,z
2 -x,1/2+y,1/2-z
3 -x,-y,-z
4 x,1/2-y,1/2+z
_cell_length_a                   8.359(5)
_cell_length_b                   16.453(5)
_cell_length_c                   25.367(5)
_cell_angle_alpha                90
_cell_angle_beta                 94.624(5)
_cell_angle_gamma                90
_cell_volume                     3477.38
loop_
_atom_site_label
_atom_site_type_symbol
_atom_site_fract_x
_atom_site_fract_y
_atom_site_fract_z
O1 O -0.0818(3) -0.25357(14) 0.78746(10)
O2 O 0.1243(3) -0.31914(14) 0.83043(10)
C1 C 0.0613(4) -0.25907(19) 0.80622(13)
C2 C -0.5873(4) -0.3448(2) 0.74093(13)
H1 H -0.5774 -0.3894 0.7635
C3 C -1.1652(5) -0.2895(3) 0.56333(18)
H2 H -1.0855 -0.2579 0.5500
C4 C -0.7220(4) -0.3393(2) 0.70601(14)
H3 H -0.8003 -0.3796 0.7052
C5 C -0.7395(4) -0.2735(2) 0.67233(14)
C6 C -0.6188(4) -0.2156(2) 0.67512(15)
H4 H -0.6262 -0.1707 0.6528
C7 C -0.4872(4) -0.2249(2) 0.71130(14)
H5 H -0.4078 -0.1852 0.7131
C8 C -0.8827(5) -0.2640(3) 0.63254(17)
H6 H -0.9250 -0.2092 0.6341
H7 H -0.8510 -0.2735 0.5971
C9 C -1.1411(4) -0.3238(2) 0.61220(15)
C10 C -1.2627(5) -0.3679(3) 0.63263(17)
H8 H -1.2474 -0.3898 0.6665
C11 C -1.4062(5) -0.3794(4) 0.60306(18)
H9 H -1.4872 -0.4096 0.6168
C12 C -1.3113(5) -0.3023(3) 0.53342(18)
H10 H -1.3274 -0.2806 0.4996
C13 C -1.4300(4) -0.3466(3) 0.55364(17)
C14 C -1.5970(11) -0.3520(6) 0.4743(4)
H11 H -1.5188 -0.3869 0.4593
H12 H -1.5777 -0.2967 0.4633
C15 C -1.7644(9) -0.3777(5) 0.4534(3)
C16 C -1.8034(12) -0.4530(6) 0.4342(4)
H13 H -1.7280 -0.4946 0.4379
C17 C -1.9511(13) -0.4682(7) 0.4099(5)
H14 H -1.9686 -0.5172 0.3920
C18 C -2.0185(6) -0.3437(3) 0.42266(19)
H15 H -2.0967 -0.3042 0.4153
C19 C -1.8852(13) -0.3145(9) 0.4424(5)
H16 H -1.8673 -0.2595 0.4489
C20 C 0.5944(4) -0.1251(2) 0.84454(15)
C21 C 0.4251(4) -0.1214(2) 0.82022(13)
C22 C 0.3257(4) -0.1885(2) 0.82385(13)
H17 H 0.3636 -0.2345 0.8421
C23 C 0.1694(4) -0.18684(19) 0.80025(12)
C24 C 0.1147(4) -0.11959(19) 0.77108(13)
H18 H 0.0114 -0.1190 0.7545
C25 C 0.2157(4) -0.05296(19) 0.76688(13)
C26 C 0.1629(4) 0.01796(19) 0.73251(13)
C27 C 0.3679(4) -0.0531(2) 0.79263(13)
H19 H 0.4324 -0.0072 0.7915
C28 C -0.2799(4) -0.3683(2) 0.89945(13)
C29 C -0.3365(3) -0.38441(19) 0.95289(12)
C30 C -0.4971(4) -0.37393(19) 0.96186(12)
H20 H -0.5698 -0.3553 0.9349
C31 C -0.5483(3) -0.3915(2) 1.01139(12)
C32 C -0.7216(4) -0.3837(2) 1.02051(14)
C33 C -0.4417(4) -0.4228(2) 1.05087(12)
H21 H -0.4777 -0.4369 1.0834
C34 C -0.2808(3) -0.43313(19) 1.04192(12)
C35 C -0.2274(4) -0.4120(2) 0.99355(12)
H22 H -0.1189 -0.4161 0.9881
C36 C -0.1706(4) -0.4744(2) 1.08264(13)
N1 N -0.4698(3) -0.28910(16) 0.74396(10)
N2 N -2.0685(4) -0.4169(2) 0.41065(16)
O3 O -1.0001(3) -0.3200(2) 0.64431(11)
O4 O -1.5785(4) -0.3565(3) 0.52568(14)
O5 O -0.3799(3) -0.35285(17) 0.86188(9)
O6 O -0.1310(3) -0.3686(2) 0.89517(10)
O7 O -0.7516(3) -0.40656(18) 1.06854(10)
H23 H -0.8477 -0.4015 1.0721
O8 O -0.2290(3) -0.52343(15) 1.11362(9)
O9 O -0.0250(7) -0.4419(6) 1.0915(3)
O10 O 0.6717(3) -0.18951(18) 0.84480(14)
O11 O -0.8234(3) -0.3606(2) 0.98766(11)
O12 O 0.6514(3) -0.05884(17) 0.86285(14)
H24 H 0.7439 -0.0660 0.8753
O13 O 0.2516(3) 0.07847(14) 0.73324(10)
O14 O 0.0329(3) 0.01056(16) 0.70470(11)
Zn1 Zn -0.28378(4) -0.30746(2) 0.799230(14)
Zn2 Zn 0.03286(4) -0.41962(2) 0.854760(15)
O8B O 0.2290(3) -0.47657(15) 0.88638(9)
O10_2 O -0.3283(3) -0.18951(18) 0.84480(14)
O13A O -0.2516(3) -0.42153(14) 0.76676(10)
O14A O -0.0329(3) -0.48944(16) 0.79530(11)
Zn1_2 Zn 0.71622(4) -0.30746(2) 0.799230(14)
Zn1A Zn 0.28378(4) 0.19254(2) 0.700770(14)
Zn2B Zn -0.03286(4) -0.58038(2) 1.145240(15)
Zn2A Zn -0.03286(4) 0.08038(2) 0.645240(15)
O15 O 0.5393(10) 0.9794(5) 0.6830(3)
C37? C 1.629(2) 0.0782(11) 0.9890(7)
C38? C 1.7945(13) 0.0811(7) 1.0237(5)
C39? C 1.8643(16) 0.0163(9) 1.0342(5)
C40? C 2.0013(13) 0.0169(7) 1.0643(5)
C41? C 1.8537(15) 0.1577(9) 1.0419(5)
H25? H 1.6409 0.0445 0.9582
H26? H 1.5494 0.0525 1.0094
H27? H 1.8211 -0.0325 1.0211
H28? H 2.0562 -0.0321 1.0686
H29? H 1.7990 0.2058 1.0335
O16? O 0.6862(12) 0.9605(6) 0.7176(4)
O17? O 0.0239(5) 0.0217(4) 0.4210(2)
loop_
_geom_bond_atom_site_label_1
_geom_bond_atom_site_label_2
_geom_bond_site_symmetry_1
_geom_bond_site_symmetry_2
O1 C1 1_555 1_555
O2 C1 1_555 1_555
C1 C23 1_555 1_555
C2 H1 1_555 1_555
C3 H2 1_555 1_555
C4 C2 1_555 1_555
H3 C4 1_555 1_555
C5 C4 1_555 1_555
C6 C5 1_555 1_555
H4 C6 1_555 1_555
C7 C6 1_555 1_555
H5 C7 1_555 1_555
C8 C5 1_555 1_555
H6 C8 1_555 1_555
H7 C8 1_555 1_555
C9 C3 1_555 1_555
C10 C9 1_555 1_555
H8 C10 1_555 1_555
C11 C10 1_555 1_555
H9 C11 1_555 1_555
C12 C3 1_555 1_555
H10 C12 1_555 1_555
C13 C11 1_555 1_555
C14 H11 1_555 1_555
H12 C14 1_555 1_555
C15 C14 1_555 1_555
C16 C15 1_555 1_555
H13 C16 1_555 1_555
C17 C16 1_555 1_555
H14 C17 1_555 1_555
C18 H15 1_555 1_555
C19 C15 1_555 1_555
H16 C19 1_555 1_555
C20 C21 1_555 1_555
C21 C22 1_555 1_555
C22 H17 1_555 1_555
C23 C22 1_555 1_555
C24 C23 1_555 1_555
H18 C24 1_555 1_555
C25 C24 1_555 1_555
C26 C25 1_555 1_555
C27 C21 1_555 1_555
H19 C27 1_555 1_555
C28 C29 1_555 1_555
C29 C30 1_555 1_555
C30 H20 1_555 1_555
C31 C30 1_555 1_555
C32 C31 1_555 1_555
C33 C31 1_555 1_555
H21 C33 1_555 1_555
C34 C33 1_555 1_555
C35 C29 1_555 1_555
H22 C35 1_555 1_555
C36 C34 1_555 1_555
N1 C2 1_555 1_555
N2 C17 1_555 1_555
O3 C8 1_555 1_555
O4 C13 1_555 1_555
O5 C28 1_555 1_555
O6 C28 1_555 1_555
O7 C32 1_555 1_555
H23 O7 1_555 1_555
O8 C36 1_555 1_555
O9 C36 1_555 1_555
O10 C20 1_555 1_555
O11 C32 1_555 1_555
O12 C20 1_555 1_555
H24 O12 1_555 1_555
O13 C26 1_555 1_555
O14 C26 1_555 1_555
Zn1 O1 1_555 1_555
Zn2 O2 1_555 1_555
O8B Zn2 1_555 1_555
O10_2 Zn1 1_555 1_555
O13A Zn1 1_555 1_555
O14A Zn2 1_555 1_555
Zn1_2 O10 1_555 1_555
Zn1A O13 1_555 1_555
Zn2B O8 1_555 1_555
Zn2A O14 1_555 1_555
C7 N1 1_555 1_555
C9 O3 1_555 1_555
C12 C13 1_555 1_555
C14 O4 1_555 1_555
C18 C19 1_555 1_555
C18 N2 1_555 1_555
C25 C27 1_555 1_555
C34 C35 1_555 1_555
N1 Zn1 1_555 1_555
O5 Zn1 1_555 1_555
O6 Zn2 1_555 1_555

#END
