
#######################################################################
#
#                 Cambridge Crystallographic Data Centre
#                                CCDC 
#
#######################################################################
#
# If this CIF has been generated from an entry in the Cambridge 
# Structural Database, then it will include bibliographic, chemical, 
# crystal, experimental, refinement or atomic coordinate data resulting 
# from the CCDC's data processing and validation procedures.
#
#######################################################################

data_FAHJAB
_symmetry_cell_setting           monoclinic
_symmetry_space_group_name_H-M   'C 2/c'
_symmetry_Int_Tables_number      15
_space_group_name_Hall           '-C 2yn'
loop_
_symmetry_equiv_pos_site_id
_symmetry_equiv_pos_as_xyz
1 x,y,z
2 -x,y,1/2-z
3 1/2+x,1/2+y,z
4 1/2-x,1/2+y,1/2-z
5 -x,-y,-z
6 x,-y,1/2+z
7 1/2-x,1/2-y,-z
8 1/2+x,1/2-y,1/2+z
_cell_length_a                   15.236(5)
_cell_length_b                   13.873(5)
_cell_length_c                   15.344(5)
_cell_angle_alpha                90
_cell_angle_beta                 109.954(5)
_cell_angle_gamma                90
_cell_volume                     3048.54
loop_
_atom_site_label
_atom_site_type_symbol
_atom_site_fract_x
_atom_site_fract_y
_atom_site_fract_z
Zn1 Zn 0.33302(3) 0.15132(3) 0.03487(3)
O1 O 0.35246(19) 0.0192(2) 0.1598(2)
O2 O 0.2326(2) 0.0673(2) 0.04130(19)
O3 O 0.28639(17) -0.18300(19) 0.40133(16)
O4 O 0.14527(16) -0.24837(18) 0.36851(17)
O5 O 0.8074(2) 0.1478(3) 0.1818(2)
N1 N 0.4667(2) 0.1262(2) 0.0438(2)
C1 C 0.4991(3) 0.1425(3) -0.0262(3)
H1 H 0.4565 0.1548 -0.0850
C2 C 0.5927(3) 0.1416(3) -0.0142(3)
H2 H 0.6124 0.1518 -0.0645
C3 C 0.6241(3) 0.1059(3) 0.1430(3)
H3 H 0.6654 0.0926 0.2022
C4 C 0.5299(3) 0.1060(3) 0.1261(3)
H4 H 0.5089 0.0912 0.1748
C5 C 0.6573(3) 0.1254(3) 0.0728(3)
C6 C 0.9033(3) 0.1460(3) 0.2117(3)
C7 C 0.9452(3) 0.1461(4) 0.3050(4)
H5 H 0.9093 0.1468 0.3433
C8 C 0.9564(3) 0.1453(4) 0.1560(4)
H6 H 0.9277 0.1442 0.0919
C9 C 0.7608(3) 0.1287(4) 0.0892(3)
H7 H 0.7813 0.0674 0.0725
H8 H 0.7742 0.1786 0.0512
C10 C 0.2042(3) -0.0485(3) 0.1418(2)
C11 C 0.2344(2) -0.0956(2) 0.2265(2)
H9 H 0.2961 -0.0889 0.2653
C12 C 0.1130(3) -0.0601(3) 0.0834(3)
H10 H 0.0920 -0.0273 0.0272
C13 C 0.0524(3) -0.1203(3) 0.1082(3)
H11 H -0.0082 -0.1298 0.0677
C14 C 0.0827(3) -0.1657(3) 0.1929(3)
H12 H 0.0420 -0.2056 0.2096
C15 C 0.1739(2) -0.1526(2) 0.2543(2)
C16 C 0.2044(2) -0.1980(2) 0.3476(2)
C17 C 0.2691(3) 0.0164(3) 0.1142(3)
Zn1E Zn 0.33302(3) -0.15132(3) -0.46513(3)
Zn1E_2 Zn 0.33302(3) -0.15132(3) 0.53487(3)
Zn1C Zn 0.16698(3) -0.34868(3) 0.46513(3)
Zn1A Zn 1.66698(3) 0.15132(3) 0.46513(3)
Zn1F Zn 0.16698(3) 0.34868(3) -0.03487(3)
O1E O 0.35246(19) -0.0192(2) -0.3402(2)
O2E O 0.2326(2) -0.0673(2) -0.45870(19)
O3E O 0.28639(17) 0.18300(19) -0.09867(16)
O3_2 O 0.28639(17) -0.18300(19) -0.59867(16)
O4E O 0.14527(16) 0.24837(18) -0.13149(17)
O4C O 0.35473(16) 0.25163(18) 0.13149(17)
O4F O 0.35473(16) -0.25163(18) -0.36851(17)
O5A O 1.1926(2) 0.1478(3) 0.3182(2)
N1A N 1.5333(2) 0.1262(2) 0.4562(2)
N1E N 0.4667(2) -0.1262(2) -0.4562(2)
C1A C 1.5009(3) 0.1425(3) 0.5262(3)
H1A H 1.5435 0.1548 0.5850
C2A C 1.4073(3) 0.1416(3) 0.5142(3)
H2A H 1.3876 0.1518 0.5645
C3A C 1.3759(3) 0.1059(3) 0.3570(3)
H3A H 1.3346 0.0926 0.2978
C4A C 1.4701(3) 0.1060(3) 0.3739(3)
H4A H 1.4911 0.0912 0.3252
C5A C 1.3427(3) 0.1254(3) 0.4272(3)
C6A C 1.0967(3) 0.1460(3) 0.2883(3)
C7A C 1.0548(3) 0.1461(4) 0.1950(4)
H5A H 1.0907 0.1468 0.1567
C8A C 1.0436(3) 0.1453(4) 0.3440(4)
H6A H 1.0723 0.1442 0.4081
C9A C 1.2392(3) 0.1287(4) 0.4108(3)
H7A H 1.2187 0.0674 0.4275
H8A H 1.2258 0.1786 0.4488
C10E C 0.2042(3) 0.0485(3) -0.3582(2)
C11E C 0.2344(2) 0.0956(2) -0.2735(2)
H9E H 0.2961 0.0889 -0.2347
C12E C 0.1130(3) 0.0601(3) -0.4166(3)
H10E H 0.0920 0.0273 -0.4728
C13E C 0.0524(3) 0.1203(3) -0.3918(3)
H11E H -0.0082 0.1298 -0.4323
C14E C 0.0827(3) 0.1657(3) -0.3071(3)
H12E H 0.0420 0.2056 -0.2904
C15E C 0.1739(2) 0.1526(2) -0.2457(2)
C16E C 0.2044(2) 0.1980(2) -0.1524(2)
C17E C 0.2691(3) -0.0164(3) -0.3858(3)
O6 O 0.0000 0.3858(8) 0.2500
loop_
_geom_bond_atom_site_label_1
_geom_bond_atom_site_label_2
_geom_bond_site_symmetry_1
_geom_bond_site_symmetry_2
Zn1 O1 1_555 1_555
O1 C17 1_555 1_555
O2 Zn1 1_555 1_555
O3 C16 1_555 1_555
O4 C16 1_555 1_555
O5 C6 1_555 1_555
N1 Zn1 1_555 1_555
C1 N1 1_555 1_555
H1 C1 1_555 1_555
C2 C1 1_555 1_555
H2 C2 1_555 1_555
C3 H3 1_555 1_555
C4 N1 1_555 1_555
H4 C4 1_555 1_555
C5 C2 1_555 1_555
C6 C7 1_555 1_555
C7 H5 1_555 1_555
C8 C6 1_555 1_555
H6 C8 1_555 1_555
C9 O5 1_555 1_555
H7 C9 1_555 1_555
H8 C9 1_555 1_555
C10 C11 1_555 1_555
C11 H9 1_555 1_555
C12 C10 1_555 1_555
H10 C12 1_555 1_555
C13 C12 1_555 1_555
H11 C13 1_555 1_555
C14 C13 1_555 1_555
H12 C14 1_555 1_555
C15 C11 1_555 1_555
C16 C15 1_555 1_555
C17 O2 1_555 1_555
Zn1E O1E 1_555 1_555
Zn1E_2 O3 1_555 1_555
Zn1C O4 1_555 1_555
Zn1A N1A 1_555 1_555
Zn1F O4E 1_555 1_555
O1E C17E 1_555 1_555
O2E Zn1E 1_555 1_555
O3E Zn1 1_555 1_555
O3_2 Zn1E 1_555 1_555
O4E C16E 1_555 1_555
O4C Zn1 1_555 1_555
O4F Zn1E 1_555 1_555
O5A C6A 1_555 1_555
N1A C1A 1_555 1_555
N1E Zn1E 1_555 1_555
C1A H1A 1_555 1_555
C2A C1A 1_555 1_555
H2A C2A 1_555 1_555
C3A H3A 1_555 1_555
C4A N1A 1_555 1_555
H4A C4A 1_555 1_555
C5A C2A 1_555 1_555
C6A C7A 1_555 1_555
C7A C8 1_555 1_555
H5A C7A 1_555 1_555
C8A C7 1_555 1_555
H6A C8A 1_555 1_555
C9A O5A 1_555 1_555
H7A C9A 1_555 1_555
H8A C9A 1_555 1_555
C10E C11E 1_555 1_555
C11E H9E 1_555 1_555
C12E C10E 1_555 1_555
H10E C12E 1_555 1_555
C13E C12E 1_555 1_555
H11E C13E 1_555 1_555
C14E C13E 1_555 1_555
H12E C14E 1_555 1_555
C15E C11E 1_555 1_555
C16E O3E 1_555 1_555
C17E O2E 1_555 1_555
C3 C4 1_555 1_555
C3 C5 1_555 1_555
C5 C9 1_555 1_555
C10 C17 1_555 1_555
C14 C15 1_555 1_555
C3A C4A 1_555 1_555
C3A C5A 1_555 1_555
C5A C9A 1_555 1_555
C6A C8A 1_555 1_555
C10E C17E 1_555 1_555
C14E C15E 1_555 1_555
C15E C16E 1_555 1_555

#END
