
#######################################################################
#
#                 Cambridge Crystallographic Data Centre
#                                CCDC 
#
#######################################################################
#
# If this CIF has been generated from an entry in the Cambridge 
# Structural Database, then it will include bibliographic, chemical, 
# crystal, experimental, refinement or atomic coordinate data resulting 
# from the CCDC's data processing and validation procedures.
#
#######################################################################

data_FAHJEF
_symmetry_cell_setting           monoclinic
_symmetry_space_group_name_H-M   'P 21/c'
_symmetry_Int_Tables_number      14
_space_group_name_Hall           '-P 2ybc'
loop_
_symmetry_equiv_pos_site_id
_symmetry_equiv_pos_as_xyz
1 x,y,z
2 -x,1/2+y,1/2-z
3 -x,-y,-z
4 x,1/2-y,1/2+z
_cell_length_a                   26.912(5)
_cell_length_b                   14.301(5)
_cell_length_c                   13.659(5)
_cell_angle_alpha                90
_cell_angle_beta                 98.357(5)
_cell_angle_gamma                90
_cell_volume                     5201.1
loop_
_atom_site_label
_atom_site_type_symbol
_atom_site_fract_x
_atom_site_fract_y
_atom_site_fract_z
C1 C 0.3848(5) 0.7870(12) -0.0367(10)
H1 H 0.4046 0.8289 -0.0659
C2 C 0.2437(5) 1.2654(12) -0.4825(11)
H2 H 0.2784 1.2590 -0.4769
C3 C 0.3038(5) 0.7389(11) -0.0032(10)
H3 H 0.2692 0.7465 -0.0118
C4 C 0.3328(5) 0.7971(12) -0.0527(10)
C5 C 0.2165(5) 1.2052(12) -0.4289(11)
C6 C 0.2200(5) 1.3335(12) -0.5430(11)
C7 C 0.3261(5) 0.6689(11) 0.0596(10)
C8 C 0.2956(5) 0.6090(12) 0.1196(11)
C9 C 0.4076(5) 0.7156(12) 0.0220(10)
C10 C 0.1644(5) 1.2180(12) -0.4380(11)
H4 H 0.1458 1.1783 -0.4035
C11 C 0.6309(5) 1.0799(13) -0.1853(12)
C12 C 0.1678(5) 1.3445(13) -0.5497(11)
H5 H 0.1516 1.3907 -0.5903
C13 C 0.2476(5) 1.3939(13) -0.6074(11)
C14 C 0.3777(5) 0.6560(12) 0.0707(10)
H6 H 0.3925 0.6079 0.1105
C15 C 0.3090(5) 0.8721(12) -0.1189(10)
C16 C 0.4629(5) 0.7008(12) 0.0312(11)
C17 C 0.7340(5) 1.0864(14) -0.1644(12)
C18 C -0.3213(6) 0.8818(15) -0.3397(14)
C19 C 0.1401(5) 1.2866(13) -0.4956(11)
C20 C 0.6544(5) 1.1364(14) -0.2454(12)
H7 H 0.6357 1.1722 -0.2943
C21 C 0.4950(5) 1.1134(15) -0.2442(12)
C22 C 0.2412(5) 1.1304(13) -0.3636(11)
C23 C 0.7107(5) 1.0291(13) -0.1059(12)
H8 H 0.7298 0.9922 -0.0585
C24 C -0.2657(5) 0.8686(15) -0.3095(13)
H9 H -0.2567 0.8040 -0.3194
H10 H -0.2566 0.8836 -0.2400
C25 C 0.8659(11) 1.118(3) -0.070(2)
C26 C 0.4568(5) 1.1429(14) -0.3173(12)
H11 H 0.4645 1.1714 -0.3744
C27 C -0.1879(6) 0.9225(18) -0.3513(15)
C28 C 0.4080(5) 1.1297(14) -0.3046(12)
H12 H 0.3828 1.1503 -0.3537
C29 C 0.6589(5) 1.0249(14) -0.1161(12)
H13 H 0.6432 0.9851 -0.0763
C30 C 0.7064(5) 1.1397(14) -0.2325(12)
H14 H 0.7224 1.1795 -0.2718
C31 C -0.1118(6) 0.9773(18) -0.3958(15)
H15 H -0.0949 1.0182 -0.4323
C32 C 0.0846(6) 1.2983(13) -0.5022(12)
C33 C 0.5482(5) 1.1284(15) -0.2583(12)
H16 H 0.5573 1.1936 -0.2471
H17 H 0.5528 1.1122 -0.3253
C34 C -0.3422(6) 0.9346(15) -0.4156(14)
H18 H -0.3218 0.9663 -0.4540
C35 C 0.4814(5) 1.0703(14) -0.1635(13)
H19 H 0.5059 1.0481 -0.1138
C36 C -0.3529(5) 0.8402(15) -0.2812(14)
H20 H -0.3399 0.8080 -0.2239
C37 C 0.4308(5) 1.0592(15) -0.1551(13)
H21 H 0.4223 1.0303 -0.0988
C38 C -0.1616(6) 0.8586(18) -0.2893(15)
H22 H -0.1784 0.8165 -0.2539
C39 C -0.1638(6) 0.9814(18) -0.4075(15)
H23 H -0.1817 1.0228 -0.4519
C40 C 0.1183(19) 0.976(5) -0.278(6)
H24 H 0.1287 1.0380 -0.2830
C41 C -0.3948(6) 0.9425(15) -0.4377(14)
H25 H -0.4085 0.9810 -0.4896
C42 C -0.1090(6) 0.8576(18) -0.2798(15)
H26 H -0.0909 0.8159 -0.2360
C43 C -0.4043(6) 0.8477(15) -0.3103(14)
H27 H -0.4254 0.8161 -0.2733
C44 C -0.0844(6) 0.9161(18) -0.3331(15)
C45 C -0.0061(8) 0.849(2) -0.2779(19)
H28 H -0.0128 0.8457 -0.2101
H29 H -0.0149 0.7890 -0.3098
C46 C 0.0512(9) 0.874(2) -0.282(2)
C47 C 0.0678(19) 0.958(5) -0.276(5)
H30 H 0.0458 1.0069 -0.2703
C48 C 0.8877(11) 1.065(2) -0.126(2)
H31 H 0.8690 1.0315 -0.1769
C49 C 0.941(2) 1.057(7) -0.108(7)
H32 H 0.9558 1.0035 -0.1293
C50 C 0.1374(9) 0.826(2) -0.2479(18)
H33 H 0.1614 0.7801 -0.2284
N1 N 0.1528(4) 0.9065(11) -0.2743(11)
N2 N -0.4253(4) 0.8970(11) -0.3872(11)
C51 C 0.8063(18) 1.134(8) -0.081(4)
H34 H 0.7988 1.1998 -0.0860
H35 H 0.7939 1.1096 -0.0224
N3 N 0.3946(4) 1.0877(10) -0.2233(9)
N4 N 0.9671(8) 1.119(2) -0.0642(19)
O1 O 0.2860(3) 1.1441(8) -0.3251(7)
O2 O 0.2148(4) 1.0610(9) -0.3506(8)
O3 O 0.2241(4) 1.4610(9) -0.6472(8)
O4 O 0.2917(4) 1.3725(8) -0.6158(7)
O5 O 0.2642(4) 0.8590(8) -0.1600(7)
O6 O 0.3353(4) 0.9427(9) -0.1312(8)
O7 O 0.3186(4) 0.5417(9) 0.1633(8)
O8 O 0.2515(4) 0.6323(8) 0.1268(7)
O9 O 0.4780(4) 0.6240(10) 0.0781(10)
H36 H 0.5086 0.6193 0.0811
O10 O 0.4906(4) 0.7528(9) -0.0037(9)
O11 O 0.0603(4) 1.2533(12) -0.4520(11)
O12 O 0.0655(4) 1.3623(12) -0.5650(11)
H37 H 0.0351 1.3652 -0.5652
O13 O -0.0329(5) 0.9227(14) -0.3301(12)
O14 O -0.2397(4) 0.9280(10) -0.3675(9)
O15 O 0.5791(3) 1.0708(10) -0.1894(8)
O16 O 0.7855(4) 1.0919(11) -0.1561(9)
Zn1 Zn 0.32155(5) 1.05456(14) -0.22207(11)
Zn2 Zn 0.22663(5) 0.94393(14) -0.26398(11)
C52 C 0.9468(11) 1.182(3) -0.010(2)
H38 H 0.9675 1.2236 0.0291
C53 C 0.0865(8) 0.802(2) -0.2467(17)
H39 H 0.0767 0.7443 -0.2247
C54 C 0.8911(11) 1.187(3) -0.013(2)
H40 H 0.8752 1.2321 0.0208
O3C O 0.2241(4) 1.0390(9) -0.1472(8)
O4C O 0.2917(4) 1.1275(8) -0.1158(7)
O7C O 0.3186(4) 0.9583(9) -0.3367(8)
O8C O 0.2515(4) 0.8677(8) -0.3732(7)
Zn1C Zn 0.32155(5) 1.44544(14) -0.72207(11)
Zn1C_2 Zn 0.32155(5) 0.44544(14) 0.27793(11)
Zn2C Zn 0.22663(5) 1.55607(14) -0.76398(11)
Zn2C_2 Zn 0.22663(5) 0.55607(14) 0.23602(11)
O17 O 0.3922(11) 0.204(3) 0.0249(19)
C55? C 0.118(2) 0.545(5) 0.172(7)
C56? C 0.064(2) 0.565(5) 0.168(6)
C57? C 0.943(3) 0.413(8) 0.348(10)
C58? C 0.811(3) 0.425(15) 0.431(7)
H41? H 0.1279 0.4950 0.1350
H42? H 0.0408 0.5313 0.1258
H43? H 0.9555 0.4210 0.2886
H44? H 0.7947 0.3951 0.4818
H45? H 0.8127 0.4915 0.4432
loop_
_geom_bond_atom_site_label_1
_geom_bond_atom_site_label_2
_geom_bond_site_symmetry_1
_geom_bond_site_symmetry_2
C1 H1 1_555 1_555
C2 H2 1_555 1_555
C3 H3 1_555 1_555
C4 C1 1_555 1_555
C5 C2 1_555 1_555
C6 C2 1_555 1_555
C7 C3 1_555 1_555
C8 C7 1_555 1_555
C9 C1 1_555 1_555
C10 C5 1_555 1_555
H4 C10 1_555 1_555
C11 C20 1_555 1_555
C12 C6 1_555 1_555
H5 C12 1_555 1_555
C13 C6 1_555 1_555
C14 C7 1_555 1_555
H6 C14 1_555 1_555
C15 C4 1_555 1_555
C16 C9 1_555 1_555
C17 C23 1_555 1_555
C18 C24 1_555 1_555
C19 C10 1_555 1_555
C20 H7 1_555 1_555
C21 C26 1_555 1_555
C22 C5 1_555 1_555
C23 H8 1_555 1_555
C24 H9 1_555 1_555
H10 C24 1_555 1_555
C25 C48 1_555 1_555
C26 H11 1_555 1_555
C27 C38 1_555 1_555
C28 C26 1_555 1_555
H12 C28 1_555 1_555
C29 C11 1_555 1_555
H13 C29 1_555 1_555
C30 C17 1_555 1_555
H14 C30 1_555 1_555
C31 H15 1_555 1_555
C32 C19 1_555 1_555
C33 C21 1_555 1_555
H16 C33 1_555 1_555
H17 C33 1_555 1_555
C34 C18 1_555 1_555
H18 C34 1_555 1_555
C35 C21 1_555 1_555
H19 C35 1_555 1_555
C36 C18 1_555 1_555
H20 C36 1_555 1_555
C37 C35 1_555 1_555
H21 C37 1_555 1_555
C38 H22 1_555 1_555
C39 C27 1_555 1_555
H23 C39 1_555 1_555
C40 H24 1_555 1_555
C41 C34 1_555 1_555
H25 C41 1_555 1_555
C42 C38 1_555 1_555
H26 C42 1_555 1_555
C43 C36 1_555 1_555
H27 C43 1_555 1_555
C44 C31 1_555 1_555
C45 H28 1_555 1_555
H29 C45 1_555 1_555
C46 C45 1_555 1_555
C47 C40 1_555 1_555
H30 C47 1_555 1_555
C48 H31 1_555 1_555
C49 C48 1_555 1_555
H32 C49 1_555 1_555
C50 H33 1_555 1_555
N1 C40 1_555 1_555
N2 C41 1_555 1_555
C51 C25 1_555 1_555
H34 C51 1_555 1_555
H35 C51 1_555 1_555
N3 C28 1_555 1_555
N4 C49 1_555 1_555
O1 C22 1_555 1_555
O2 C22 1_555 1_555
O3 C13 1_555 1_555
O4 C13 1_555 1_555
O5 C15 1_555 1_555
O6 C15 1_555 1_555
O7 C8 1_555 1_555
O8 C8 1_555 1_555
O9 C16 1_555 1_555
H36 O9 1_555 1_555
O10 C16 1_555 1_555
O11 C32 1_555 1_555
O12 C32 1_555 1_555
H37 O12 1_555 1_555
O13 C44 1_555 1_555
O14 C24 1_555 1_555
O15 C11 1_555 1_555
O16 C17 1_555 1_555
Zn1 N3 1_555 1_555
Zn2 N1 1_555 1_555
C52 N4 1_555 1_555
H38 C52 1_555 1_555
C53 C46 1_555 1_555
H39 C53 1_555 1_555
C54 C25 1_555 1_555
H40 C54 1_555 1_555
O3C Zn2 1_555 1_555
O4C Zn1 1_555 1_555
O7C Zn1 1_555 1_555
O8C Zn2 1_555 1_555
Zn1C O4 1_555 1_555
Zn1C_2 O7 1_555 1_555
Zn2C O3 1_555 1_555
Zn2C_2 O8 1_555 1_555
C3 C4 1_555 1_555
C9 C14 1_555 1_555
C12 C19 1_555 1_555
C20 C30 1_555 1_555
C23 C29 1_555 1_555
C27 O14 1_555 1_555
C31 C39 1_555 1_555
C33 O15 1_555 1_555
C37 N3 1_555 1_555
C42 C44 1_555 1_555
C43 N2 1_555 1_555
C45 O13 1_555 1_555
C46 C47 1_555 1_555
C50 N1 1_555 1_555
C50 C53 1_555 1_555
C51 O16 1_555 1_555
O1 Zn1 1_555 1_555
O2 Zn2 1_555 1_555
O5 Zn2 1_555 1_555
O6 Zn1 1_555 1_555
C52 C54 1_555 1_555

#END
