
#######################################################################
#
#                 Cambridge Crystallographic Data Centre
#                                CCDC 
#
#######################################################################
#
# If this CIF has been generated from an entry in the Cambridge 
# Structural Database, then it will include bibliographic, chemical, 
# crystal, experimental, refinement or atomic coordinate data resulting 
# from the CCDC's data processing and validation procedures.
#
#######################################################################

data_FAHJOP
_symmetry_cell_setting           triclinic
_symmetry_space_group_name_H-M   'P -1'
_symmetry_Int_Tables_number      2
_space_group_name_Hall           '-P 1'
loop_
_symmetry_equiv_pos_site_id
_symmetry_equiv_pos_as_xyz
1 x,y,z
2 -x,-y,-z
_cell_length_a                   8.536(5)
_cell_length_b                   11.784(5)
_cell_length_c                   17.045(5)
_cell_angle_alpha                78.081(5)
_cell_angle_beta                 78.047(5)
_cell_angle_gamma                78.722(5)
_cell_volume                     1620.15
loop_
_atom_site_label
_atom_site_type_symbol
_atom_site_fract_x
_atom_site_fract_y
_atom_site_fract_z
C1 C 0.0906(5) 0.7069(4) 0.2490(3)
C2 C 0.2617(5) 0.7215(3) 0.2469(2)
C3 C 0.3893(5) 0.6535(3) 0.2042(2)
H1 H 0.3676 0.6004 0.1760
C4 C 0.5476(5) 0.6641(3) 0.2031(2)
C5 C 0.6855(5) 0.5856(3) 0.1594(2)
C6 C 0.5792(5) 0.7456(3) 0.2445(2)
H2 H 0.6855 0.7550 0.2430
C7 C 0.4511(5) 0.8126(3) 0.2879(2)
C8 C 0.4883(5) 0.8930(3) 0.3370(2)
C9 C 0.2933(5) 0.8000(3) 0.2896(2)
H3 H 0.2082 0.8441 0.3194
C19 C 0.5196(5) 0.7286(3) -0.3135(2)
C20 C 0.6595(4) 0.7393(3) -0.2768(2)
C21 C 0.7582(5) 0.8230(3) -0.3154(2)
H12 H 0.7336 0.8739 -0.3622
C22 C 0.8929(5) 0.8309(3) -0.2844(2)
C23 C 0.6957(4) 0.6648(3) -0.2057(2)
H13 H 0.6307 0.6084 -0.1800
C24 C 0.8271(4) 0.6739(3) -0.1730(2)
C25 C 0.8669(4) 0.5982(3) -0.0951(2)
C26 C 0.6921(5) 0.1908(3) 0.1109(2)
H14 H 0.7695 0.1741 0.1446
C27 C 0.5886(5) 0.1107(3) 0.1193(2)
H15 H 0.5975 0.0419 0.1575
C28 C 0.4708(5) 0.1344(3) 0.0700(2)
C29 C 0.4672(5) 0.2370(3) 0.0131(2)
H16 H 0.3918 0.2555 -0.0217
C30 C 0.5752(5) 0.3111(3) 0.0085(2)
H17 H 0.5705 0.3793 -0.0304
C31 C 0.3500(5) 0.0533(4) 0.0786(3)
H18 H 0.4052 -0.0270 0.0794
H19 H 0.2733 0.0569 0.1291
C32 C 0.1342(5) 0.0417(4) 0.0095(3)
C33 C 0.0834(6) -0.0532(4) 0.0629(3)
H20 H 0.1385 -0.0897 0.1054
C34 C 0.0519(6) 0.0944(4) -0.0526(3)
H21 H 0.0869 0.1589 -0.0886
C35 C 0.9248(5) 0.7575(3) -0.2132(2)
H22 H 1.0136 0.7639 -0.1916
C36 C 1.0077(5) 0.9129(3) -0.3307(2)
N1 N 0.6872(4) 0.2915(3) 0.05659(19)
O1 O 0.2681(4) 0.0896(3) 0.0117(2)
O2 O 0.0804(4) 0.6499(3) 0.1923(2)
H23 H -0.0145 0.6432 0.1950
O3 O -0.0230(4) 0.7400(4) 0.2975(2)
O4 O 0.6460(3) 0.5267(2) 0.11468(16)
O5 O 0.8262(3) 0.5823(3) 0.1685(2)
O6 O 0.4019(4) 0.9064(3) 0.40268(18)
O7 O 0.6116(4) 0.9428(3) 0.30468(18)
O8 O 0.4823(3) 0.8099(2) -0.37311(16)
O9 O 0.4500(4) 0.6438(3) -0.28790(19)
H24 H 0.3762 0.6488 -0.3132
O11 O 0.7866(3) 0.5171(2) -0.06322(15)
O12 O 0.9743(3) 0.6253(2) -0.06459(16)
O13 O 1.1329(4) 0.9056(3) -0.30026(18)
O14 O 0.9799(4) 0.9753(3) -0.39581(19)
O15 O 0.7286(4) 0.9751(3) 0.47304(18)
Zn1 Zn 0.80644(5) 0.42951(4) 0.04750(3)
Zn2 Zn 0.66889(6) 1.04366(4) 0.36514(3)
H25 H 0.684(5) 1.010(4) 0.512(2)
H26 H 0.829(2) 0.975(4) 0.465(3)
C1A C -0.0906(5) -0.7069(4) -0.2490(3)
C2A C -0.2617(5) -0.7215(3) -0.2469(2)
C3A C -0.3893(5) -0.6535(3) -0.2042(2)
H1A H -0.3676 -0.6004 -0.1760
C4A C -0.5476(5) -0.6641(3) -0.2031(2)
C5A C -0.6855(5) -0.5856(3) -0.1594(2)
C6A C -0.5792(5) -0.7456(3) -0.2445(2)
H2A H -0.6855 -0.7550 -0.2430
C7A C -0.4511(5) -0.8126(3) -0.2879(2)
C8A C -0.4883(5) -0.8930(3) -0.3370(2)
C9A C -0.2933(5) -0.8000(3) -0.2896(2)
H3A H -0.2082 -0.8441 -0.3194
C19A C 1.4804(5) 0.2714(3) 0.3135(2)
C20A C 1.3405(4) 0.2607(3) 0.2768(2)
C21A C 1.2418(5) 0.1770(3) 0.3154(2)
H12A H 1.2664 0.1261 0.3622
C22A C 1.1071(5) 0.1691(3) 0.2844(2)
C23A C 1.3043(4) 0.3352(3) 0.2057(2)
H13A H 1.3693 0.3916 0.1800
C24A C 1.1729(4) 0.3261(3) 0.1730(2)
C25A C 1.1331(4) 0.4018(3) 0.0951(2)
C26A C -0.6921(5) -0.1908(3) -0.1109(2)
H14A H -0.7695 -0.1741 -0.1446
C27A C -0.5886(5) -0.1107(3) -0.1193(2)
H15A H -0.5975 -0.0419 -0.1575
C28A C -0.4708(5) -0.1344(3) -0.0700(2)
C29A C -0.4672(5) -0.2370(3) -0.0131(2)
H16A H -0.3918 -0.2555 0.0217
C30A C -0.5752(5) -0.3111(3) -0.0085(2)
H17A H -0.5705 -0.3793 0.0304
C31A C -0.3500(5) -0.0533(4) -0.0786(3)
H18A H -0.4052 0.0270 -0.0794
H19A H -0.2733 -0.0569 -0.1291
C32A C -0.1342(5) -0.0417(4) -0.0095(3)
C33A C -0.0834(6) 0.0532(4) -0.0629(3)
H20A H -0.1385 0.0897 -0.1054
C34A C -0.0519(6) -0.0944(4) 0.0526(3)
H21A H -0.0869 -0.1589 0.0886
C35A C 1.0752(5) 0.2425(3) 0.2132(2)
H22A H 0.9864 0.2361 0.1916
C36A C 0.9923(5) 0.0871(3) 0.3307(2)
N1A N -0.6872(4) -0.2915(3) -0.05659(19)
O1A O -0.2681(4) -0.0896(3) -0.0117(2)
O2A O -0.0804(4) -0.6499(3) -0.1923(2)
H23A H 0.0145 -0.6432 -0.1950
O3A O 0.0230(4) -0.7400(4) -0.2975(2)
O4A O -0.6460(3) -0.5267(2) -0.11468(16)
O5A O -0.8262(3) -0.5823(3) -0.1685(2)
O6A O -0.4019(4) -0.9064(3) -0.40268(18)
O7A O -0.6116(4) -0.9428(3) -0.30468(18)
O7A_2 O 0.3884(4) 1.0572(3) -0.30468(18)
O8A O 1.5177(3) 0.1901(2) 0.37311(16)
O8A_2 O 0.5177(3) 1.1901(2) 0.37311(16)
O9A O 1.5500(4) 0.3562(3) 0.28790(19)
H24A H 1.6238 0.3512 0.3132
O11A O 1.2134(3) 0.4829(2) 0.06322(15)
O11A_2 O -0.7866(3) -0.5171(2) 0.06322(15)
O12A O 1.0257(3) 0.3747(2) 0.06459(16)
O12_2 O -1.0257(3) -0.3747(2) -0.06459(16)
O13A O 0.8671(4) 0.0944(3) 0.30026(18)
O13A_2 O 0.8671(4) 1.0944(3) 0.30026(18)
O13_2 O 0.1329(4) 0.9056(3) -0.30026(18)
O14A O 1.0201(4) 0.0247(3) 0.39581(19)
O15A O 0.2714(4) 1.0249(3) -0.47304(18)
Zn1A Zn -0.80644(5) -0.42951(4) -0.04750(3)
Zn1A_2 Zn 1.19356(5) 0.57049(4) -0.04750(3)
Zn2A Zn 0.33111(6) 0.95634(4) -0.36514(3)
Zn2A_2 Zn 1.33111(6) 0.95634(4) -0.36514(3)
Zn2_2 Zn 1.66889(6) 0.04366(4) 0.36514(3)
Zn2_3 Zn 0.66889(6) 0.04366(4) 0.36514(3)
Zn2A_3 Zn -0.66889(6) -1.04366(4) -0.36514(3)
H25A H 0.316(5) 0.990(4) -0.512(2)
H26A H 0.171(2) 1.025(4) -0.465(3)
C10 C 0.8777(5) 1.4176(4) 0.3453(3)
H4 H 0.8637 1.4671 0.2963
C11 C 1.0062(5) 1.4204(4) 0.3808(3)
H5 H 1.0793 1.4716 0.3560
C12 C 1.0272(5) 1.3469(3) 0.4537(2)
C13 C 0.9155(5) 1.2726(4) 0.4891(3)
H6 H 0.9269 1.2221 0.5380
C14 C 0.7874(5) 1.2739(4) 0.4513(3)
H7 H 0.7107 1.2252 0.4754
C15 C 1.1684(5) 1.3453(4) 0.4939(2)
H8 H 1.1308 1.3595 0.5493
H9 H 1.2386 1.2698 0.4953
C16 C 1.3755(5) 1.4629(3) 0.4763(2)
C17 C 1.4541(5) 1.5507(4) 0.4263(2)
H10 H 1.4235 1.5842 0.3762
C18 C 1.4229(5) 1.4110(3) 0.5503(2)
H11 H 1.3722 1.3509 0.5837
N2 N 0.7724(4) 1.3448(3) 0.3802(2)
O10 O 1.2529(4) 1.4356(3) 0.44699(18)
C10A C 2.1223(5) 1.5824(4) 0.6547(3)
H4A H 2.1363 1.5329 0.7037
C11A C 1.9938(5) 1.5796(4) 0.6192(3)
H5A H 1.9207 1.5284 0.6440
C12A C 1.9728(5) 1.6531(3) 0.5463(2)
C13A C 2.0845(5) 1.7274(4) 0.5109(3)
H6A H 2.0731 1.7779 0.4620
C14A C 2.2126(5) 1.7261(4) 0.5487(3)
H7A H 2.2893 1.7748 0.5246
C15A C 1.8316(5) 1.6547(4) 0.5061(2)
H8A H 1.8692 1.6405 0.4507
H9A H 1.7614 1.7302 0.5047
C16A C 1.6245(5) 1.5371(3) 0.5237(2)
C17A C 1.5459(5) 1.4493(4) 0.5737(2)
H10A H 1.5765 1.4158 0.6238
C18A C 1.5771(5) 1.5890(3) 0.4497(2)
H11A H 1.6278 1.6491 0.4163
N2A N 2.2276(4) 1.6552(3) 0.6198(2)
O10A O 1.7471(4) 1.5644(3) 0.55301(18)
loop_
_geom_bond_atom_site_label_1
_geom_bond_atom_site_label_2
_geom_bond_site_symmetry_1
_geom_bond_site_symmetry_2
C1 C2 1_555 1_555
C2 C3 1_555 1_555
C3 H1 1_555 1_555
C4 C3 1_555 1_555
C5 C4 1_555 1_555
C6 C4 1_555 1_555
H2 C6 1_555 1_555
C7 C6 1_555 1_555
C8 C7 1_555 1_555
C9 C2 1_555 1_555
H3 C9 1_555 1_555
C10 H4 1_555 1_555
C11 C10 1_555 1_555
H5 C11 1_555 1_555
C12 C11 1_555 1_555
C13 C12 1_555 1_555
H6 C13 1_555 1_555
C14 C13 1_555 1_555
H7 C14 1_555 1_555
C15 C12 1_555 1_555
H8 C15 1_555 1_555
H9 C15 1_555 1_555
C16 C17 1_555 1_555
C17 H10 1_555 1_555
C18 C16 1_555 1_555
H11 C18 1_555 1_555
C19 C20 1_555 1_555
C20 C21 1_555 1_555
C21 H12 1_555 1_555
C22 C21 1_555 1_555
C23 C20 1_555 1_555
H13 C23 1_555 1_555
C24 C23 1_555 1_555
C25 C24 1_555 1_555
C26 H14 1_555 1_555
C27 C26 1_555 1_555
H15 C27 1_555 1_555
C28 C27 1_555 1_555
C29 C28 1_555 1_555
H16 C29 1_555 1_555
C30 C29 1_555 1_555
H17 C30 1_555 1_555
C31 C28 1_555 1_555
H18 C31 1_555 1_555
H19 C31 1_555 1_555
C32 C33 1_555 1_555
C33 H20 1_555 1_555
C34 C32 1_555 1_555
H21 C34 1_555 1_555
C35 C22 1_555 1_555
H22 C35 1_555 1_555
C36 C22 1_555 1_555
N1 C26 1_555 1_555
N2 C10 1_555 1_555
O1 C31 1_555 1_555
O2 C1 1_555 1_555
H23 O2 1_555 1_555
O3 C1 1_555 1_555
O4 C5 1_555 1_555
O5 C5 1_555 1_555
O6 C8 1_555 1_555
O7 C8 1_555 1_555
O8 C19 1_555 1_555
O9 C19 1_555 1_555
H24 O9 1_555 1_555
O10 C15 1_555 1_555
O11 C25 1_555 1_555
O12 C25 1_555 1_555
O13 C36 1_555 1_555
O14 C36 1_555 1_555
O15 Zn2 1_555 1_555
Zn1 N1 1_555 1_555
Zn2 O7 1_555 1_555
H25 O15 1_555 1_555
H26 O15 1_555 1_555
C1A C2A 1_555 1_555
C2A C3A 1_555 1_555
C3A H1A 1_555 1_555
C4A C3A 1_555 1_555
C5A C4A 1_555 1_555
C6A C4A 1_555 1_555
H2A C6A 1_555 1_555
C7A C6A 1_555 1_555
C8A C7A 1_555 1_555
C9A C2A 1_555 1_555
H3A C9A 1_555 1_555
C10A H4A 1_555 1_555
C11A C10A 1_555 1_555
H5A C11A 1_555 1_555
C12A C11A 1_555 1_555
C13A C12A 1_555 1_555
H6A C13A 1_555 1_555
C14A C13A 1_555 1_555
H7A C14A 1_555 1_555
C15A C12A 1_555 1_555
H8A C15A 1_555 1_555
H9A C15A 1_555 1_555
C16A C17A 1_555 1_555
C17A C18 1_555 1_555
H10A C17A 1_555 1_555
C18A C17 1_555 1_555
H11A C18A 1_555 1_555
C19A C20A 1_555 1_555
C20A C21A 1_555 1_555
C21A H12A 1_555 1_555
C22A C21A 1_555 1_555
C23A C20A 1_555 1_555
H13A C23A 1_555 1_555
C24A C23A 1_555 1_555
C25A C24A 1_555 1_555
C26A H14A 1_555 1_555
C27A C26A 1_555 1_555
H15A C27A 1_555 1_555
C28A C27A 1_555 1_555
C29A C28A 1_555 1_555
H16A C29A 1_555 1_555
C30A C29A 1_555 1_555
H17A C30A 1_555 1_555
C31A C28A 1_555 1_555
H18A C31A 1_555 1_555
H19A C31A 1_555 1_555
C32A C33A 1_555 1_555
C33A C34 1_555 1_555
H20A C33A 1_555 1_555
C34A C33 1_555 1_555
H21A C34A 1_555 1_555
C35A C22A 1_555 1_555
H22A C35A 1_555 1_555
C36A C22A 1_555 1_555
N1A C26A 1_555 1_555
N2A C10A 1_555 1_555
O1A C31A 1_555 1_555
O2A C1A 1_555 1_555
H23A O2A 1_555 1_555
O3A C1A 1_555 1_555
O4A C5A 1_555 1_555
O5A C5A 1_555 1_555
O6A C8A 1_555 1_555
O7A C8A 1_555 1_555
O7A_2 Zn2A 1_555 1_555
O8A C19A 1_555 1_555
O8A_2 Zn2 1_555 1_555
O9A C19A 1_555 1_555
H24A O9A 1_555 1_555
O10A C15A 1_555 1_555
O11A C25A 1_555 1_555
O11A_2 Zn1A 1_555 1_555
O12A Zn1 1_555 1_555
O12_2 Zn1A 1_555 1_555
O13A C36A 1_555 1_555
O13A_2 Zn2 1_555 1_555
O13_2 Zn2A 1_555 1_555
O14A C36A 1_555 1_555
O15A Zn2A 1_555 1_555
Zn1A N1A 1_555 1_555
Zn1A_2 O12 1_555 1_555
Zn2A O8 1_555 1_555
Zn2A_2 O13 1_555 1_555
Zn2_2 O8A 1_555 1_555
Zn2_3 O13A 1_555 1_555
Zn2A_3 O7A 1_555 1_555
H25A O15A 1_555 1_555
H26A O15A 1_555 1_555
C7 C9 1_555 1_555
C14 N2 1_555 1_555
C16 O10 1_555 1_555
C24 C35 1_555 1_555
C30 N1 1_555 1_555
C32 O1 1_555 1_555
O4 Zn1 1_555 1_555
O11 Zn1 1_555 1_555
C7A C9A 1_555 1_555
C14A N2A 1_555 1_555
C16A C18A 1_555 1_555
C16A O10A 1_555 1_555
C24A C35A 1_555 1_555
C25A O12A 1_555 1_555
C30A N1A 1_555 1_555
C32A C34A 1_555 1_555
C32A O1A 1_555 1_555
O4A Zn1A 1_555 1_555
O11A Zn1A_2 1_555 1_555

#END
