
#######################################################################
#
#                 Cambridge Crystallographic Data Centre
#                                CCDC 
#
#######################################################################
#
# If this CIF has been generated from an entry in the Cambridge 
# Structural Database, then it will include bibliographic, chemical, 
# crystal, experimental, refinement or atomic coordinate data resulting 
# from the CCDC's data processing and validation procedures.
#
#######################################################################

data_FAHJED
_symmetry_cell_setting           rhombohedral
_symmetry_space_group_name_H-M   'R 3 c'
_symmetry_Int_Tables_number      161
_space_group_name_Hall           'R 3 -2"c'
loop_
_symmetry_equiv_pos_site_id
_symmetry_equiv_pos_as_xyz
1 x,y,z
2 1/3+x,2/3+y,2/3+z
3 2/3+x,1/3+y,1/3+z
4 -y,x-y,z
5 -x+y,-x,z
6 1/3-y,2/3+x-y,2/3+z
7 1/3-x+y,2/3-x,2/3+z
8 2/3-y,1/3+x-y,1/3+z
9 2/3-x+y,1/3-x,1/3+z
10 -y,-x,1/2+z
11 1/3-y,2/3-x,1/6+z
12 2/3-y,1/3-x,5/6+z
13 -x+y,y,1/2+z
14 x,x-y,1/2+z
15 1/3-x+y,2/3+y,1/6+z
16 1/3+x,2/3+x-y,1/6+z
17 2/3-x+y,1/3+y,5/6+z
18 2/3+x,1/3+x-y,5/6+z
_cell_length_a                   21.200(4)
_cell_length_b                   21.200(4)
_cell_length_c                   31.258(5)
_cell_angle_alpha                90
_cell_angle_beta                 90
_cell_angle_gamma                120
_cell_volume                     12166.4
loop_
_atom_site_label
_atom_site_type_symbol
_atom_site_fract_x
_atom_site_fract_y
_atom_site_fract_z
Pt1 Pt -0.2880(1) -0.0930(1) 0.2182
Pd1 Pd -0.1931(2) 0.0941(2) 0.1282(2)
Cl1 Cl -0.3658(6) -0.2206(5) 0.2144(4)
Cl2 Cl -0.2959(6) -0.1063(5) 0.2959(4)
P1 P -0.2713(6) -0.0611(6) 0.1490(4)
P2 P -0.2248(6) 0.0286(6) 0.2158(5)
C1 C -0.2207(17) -0.0870(16) 0.1133(13)
C2 C -0.1744(22) -0.0489(22) 0.0844(17)
C3 C -0.1298(37) -0.0572(38) 0.0647(26)
C4 C -0.1495(30) -0.1435(29) 0.0662(23)
C5 C -0.1928(26) -0.1795(26) 0.0908(20)
C6 C -0.2477(29) -0.1482(28) 0.1183(22)
C7 C -0.3560(21) -0.0770(20) 0.1209(16)
C8 C -0.3630(24) -0.0818(24) 0.0718(18)
C9 C -0.4173(24) -0.0911(23) 0.0507(18)
C10 C -0.4692(27) -0.0990(28) 0.0749(21)
C11 C -0.4720(31) -0.1011(30) 0.1235(24)
C12 C -0.4071(22) -0.0873(22) 0.1427(17)
C13 C -0.2822(20) 0.0689(20) 0.2331(15)
C14 C -0.2794(23) 0.0778(23) 0.2739(18)
C15 C -0.3246(21) 0.1046(21) 0.2954(16)
C16 C -0.3772(26) 0.1034(25) 0.2650(19)
C17 C -0.3794(23) 0.0888(24) 0.2206(19)
C18 C -0.3335(23) 0.0705(23) 0.2052(17)
C19 C -0.1366(25) 0.0790(25) 0.2461(20)
C20 C -0.0756(18) 0.1619(18) 0.2278(13)
C21 C -0.0209(21) 0.1897(21) 0.2516(17)
C22 C -0.0077(27) 0.1498(27) 0.2805(21)
C23 C -0.0566(23) 0.0842(23) 0.2930(17)
C24 C -0.1176(23) 0.0494(23) 0.2723(18)
C25 C -0.2163(24) 0.0315(22) 0.1650(17)
Pd1N Pd -0.3795(3) -0.2392(2) 0.2949(2)
Cl1P Cl -0.1881(8) 0.1127(5) 0.0477(4)
Cl2P Cl -0.1437(8) 0.2270(5) 0.1292(4)
loop_
_geom_bond_atom_site_label_1
_geom_bond_atom_site_label_2
_geom_bond_site_symmetry_1
_geom_bond_site_symmetry_2
Pt1 Cl1 1_555 1_555
Pd1 C25 1_555 1_555
Cl1 Pd1N 1_555 1_555
Cl2 Pt1 1_555 1_555
P1 Pt1 1_555 1_555
P2 Pt1 1_555 1_555
C1 P1 1_555 1_555
C2 C1 1_555 1_555
C3 C2 1_555 1_555
C4 C3 1_555 1_555
C5 C4 1_555 1_555
C6 C1 1_555 1_555
C7 P1 1_555 1_555
C8 C7 1_555 1_555
C9 C8 1_555 1_555
C10 C9 1_555 1_555
C11 C10 1_555 1_555
C12 C7 1_555 1_555
C13 P2 1_555 1_555
C14 C13 1_555 1_555
C15 C14 1_555 1_555
C16 C15 1_555 1_555
C17 C16 1_555 1_555
C18 C13 1_555 1_555
C19 P2 1_555 1_555
C20 C19 1_555 1_555
C21 C20 1_555 1_555
C22 C21 1_555 1_555
C23 C22 1_555 1_555
C24 C19 1_555 1_555
C25 P1 1_555 1_555
Pd1N Cl2 1_555 1_555
Cl1P Pd1 1_555 1_555
Cl2P Pd1 1_555 1_555
P2 C25 1_555 1_555
C5 C6 1_555 1_555
C11 C12 1_555 1_555
C17 C18 1_555 1_555
C23 C24 1_555 1_555

#END
