
#######################################################################
#
#                 Cambridge Crystallographic Data Centre
#                                CCDC 
#
#######################################################################
#
# If this CIF has been generated from an entry in the Cambridge 
# Structural Database, then it will include bibliographic, chemical, 
# crystal, experimental, refinement or atomic coordinate data resulting 
# from the CCDC's data processing and validation procedures.
#
#######################################################################

data_FAHKIK
_symmetry_cell_setting           triclinic
_symmetry_space_group_name_H-M   'P -1'
_symmetry_Int_Tables_number      2
_space_group_name_Hall           '-P 1'
loop_
_symmetry_equiv_pos_site_id
_symmetry_equiv_pos_as_xyz
1 x,y,z
2 -x,-y,-z
_cell_length_a                   5.5628(3)
_cell_length_b                   6.5429(3)
_cell_length_c                   13.8049(9)
_cell_angle_alpha                99.877(4)
_cell_angle_beta                 91.181(4)
_cell_angle_gamma                111.977(3)
_cell_volume                     457.055
loop_
_atom_site_label
_atom_site_type_symbol
_atom_site_fract_x
_atom_site_fract_y
_atom_site_fract_z
U1 U 0.5000 0.5000 0.5000
O1 O 0.4069(5) 0.7123(6) 0.4677(2)
O2 O 0.3676(5) 0.2993(6) 0.3282(2)
O3 O 0.7786(5) 0.5189(6) 0.3588(2)
O4 O 0.7618(5) 0.0500(6) 0.2865(2)
O5 O 0.9888(5) -0.0143(6) 0.1607(2)
H1 H 1.0289 -0.0960 0.2005
O6 O 0.9454(5) 0.7797(6) 0.5352(2)
H2 H 1.0831 0.8018 0.5003
H3 H 1.0431 0.8609 0.5979
C1 C 0.6202(7) 0.3454(8) 0.1895(3)
C2 C 0.7527(7) 0.2119(8) 0.1457(3)
C3 C 0.7909(7) 0.2025(8) 0.0463(3)
H6 H 0.8829 0.1189 0.0172
C4 C 0.6954(7) 0.3145(8) -0.0104(3)
H7 H 0.7243 0.3054 -0.0768
C5 C 0.5549(7) 0.4421(8) 0.0309(3)
C6 C 0.5195(7) 0.4538(8) 0.1318(3)
H8 H 0.4262 0.5364 0.1606
C7 C 0.5884(7) 0.3862(8) 0.2975(3)
C8 C 0.8366(7) 0.0767(8) 0.2055(3)
U1_2 U 0.5000 0.5000 -0.5000
O1A O 0.5931(5) 0.2877(6) 0.5323(2)
O2A O 0.6324(5) 0.7007(6) -0.3282(2)
O2A_2 O 0.6324(5) 0.7007(6) 0.6718(2)
O3A O 0.2214(5) 0.4811(6) -0.3588(2)
O3A_2 O 0.2214(5) 0.4811(6) 0.6412(2)
O4A O 0.2382(5) 0.9500(6) -0.2865(2)
O5A O 0.0112(5) 1.0143(6) -0.1607(2)
H1A H -0.0289 1.0960 -0.2005
O6A O 0.0546(5) 0.2203(6) 0.4648(2)
H2A H -0.0831 0.1982 0.4997
H3A H -0.0431 0.1391 0.4021
C1A C 0.3798(7) 0.6546(8) -0.1895(3)
C2A C 0.2473(7) 0.7881(8) -0.1457(3)
C3A C 0.2091(7) 0.7975(8) -0.0463(3)
H6A H 0.1171 0.8811 -0.0172
C4A C 0.3046(7) 0.6855(8) 0.0104(3)
H7A H 0.2757 0.6946 0.0768
C5A C 0.4451(7) 0.5579(8) -0.0309(3)
C6A C 0.4805(7) 0.5462(8) -0.1318(3)
H8A H 0.5738 0.4636 -0.1606
C7A C 0.4116(7) 0.6138(8) -0.2975(3)
C8A C 0.1634(7) 0.9233(8) -0.2055(3)
O7 O 1.1911(5) -0.2251(6) 0.2614(2)
H4 H 1.0857 -0.2978 0.2995
H5 H 1.3571 -0.1370 0.3014
loop_
_geom_bond_atom_site_label_1
_geom_bond_atom_site_label_2
_geom_bond_site_symmetry_1
_geom_bond_site_symmetry_2
U1 O1 1_555 1_555
O2 U1 1_555 1_555
O3 U1 1_555 1_555
O4 C8 1_555 1_555
O5 H1 1_555 1_555
O6 U1 1_555 1_555
H2 O6 1_555 1_555
H3 O6 1_555 1_555
O7 H4 1_555 1_555
H5 O7 1_555 1_555
C1 C2 1_555 1_555
C2 C3 1_555 1_555
C3 H6 1_555 1_555
C4 C3 1_555 1_555
H7 C4 1_555 1_555
C5 C4 1_555 1_555
C6 C1 1_555 1_555
H8 C6 1_555 1_555
C7 O2 1_555 1_555
C8 O5 1_555 1_555
U1_2 O2A 1_555 1_555
O1A U1 1_555 1_555
O2A C7A 1_555 1_555
O2A_2 U1 1_555 1_555
O3A U1_2 1_555 1_555
O3A_2 U1 1_555 1_555
O4A C8A 1_555 1_555
O5A H1A 1_555 1_555
O6A U1 1_555 1_555
H2A O6A 1_555 1_555
H3A O6A 1_555 1_555
C1A C2A 1_555 1_555
C2A C3A 1_555 1_555
C3A H6A 1_555 1_555
C4A C3A 1_555 1_555
H7A C4A 1_555 1_555
C5A C5 1_555 1_555
C6A C1A 1_555 1_555
H8A C6A 1_555 1_555
C7A O3A 1_555 1_555
C8A O5A 1_555 1_555
O3 C7 1_555 1_555
C1 C7 1_555 1_555
C2 C8 1_555 1_555
C5 C6 1_555 1_555
C1A C7A 1_555 1_555
C2A C8A 1_555 1_555
C4A C5A 1_555 1_555
C5A C6A 1_555 1_555

#END
