
#######################################################################
#
#                 Cambridge Crystallographic Data Centre
#                                CCDC 
#
#######################################################################
#
# If this CIF has been generated from an entry in the Cambridge 
# Structural Database, then it will include bibliographic, chemical, 
# crystal, experimental, refinement or atomic coordinate data resulting 
# from the CCDC's data processing and validation procedures.
#
#######################################################################

data_FAHKEG
_symmetry_cell_setting           monoclinic
_symmetry_space_group_name_H-M   'P 21/c'
_symmetry_Int_Tables_number      14
_space_group_name_Hall           '-P 2ybc'
loop_
_symmetry_equiv_pos_site_id
_symmetry_equiv_pos_as_xyz
1 x,y,z
2 -x,1/2+y,1/2-z
3 -x,-y,-z
4 x,1/2-y,1/2+z
_cell_length_a                   8.9172(6)
_cell_length_b                   27.7936(18)
_cell_length_c                   10.6743(5)
_cell_angle_alpha                90
_cell_angle_beta                 113.777(4)
_cell_angle_gamma                90
_cell_volume                     2420.98
loop_
_atom_site_label
_atom_site_type_symbol
_atom_site_fract_x
_atom_site_fract_y
_atom_site_fract_z
U1 U 0.957276(14) 0.526744(4) 0.235424(11)
O1 O 1.1507(3) 0.54854(8) 0.2547(2)
O2 O 0.7702(3) 0.50109(8) 0.2224(2)
O3 O 1.0181(3) 0.46153(7) 0.1186(2)
O4 O 1.1881(3) 0.46102(7) 0.0113(2)
O5 O 1.0888(3) 0.47256(7) 0.4187(2)
O6 O 1.0076(3) 0.43051(7) 0.5591(2)
O7 O 0.8525(3) 0.60465(7) 0.1814(2)
O8 O 0.8355(3) 0.67624(8) 0.2675(2)
O9 O 0.3761(3) 0.80012(8) 0.0768(2)
H1 H 0.3416 0.8077 0.0008
O10 O 0.4142(3) 0.72614(8) 0.0123(2)
N1 N 1.3816(3) 0.39212(9) 0.4505(2)
N2 N 1.0729(3) 0.34531(9) 0.2016(2)
N3 N 0.3361(3) 0.65164(9) 0.1813(3)
N4 N 0.6594(3) 0.69538(9) 0.4343(2)
H4 H 0.6663 0.6684 0.4656
C1 C 1.5307(4) 0.41255(11) 0.4900(3)
H5 H 1.6115 0.4038 0.5743
C2 C 1.5695(4) 0.44580(12) 0.4118(3)
H6 H 1.6737 0.4593 0.4432
C3 C 1.4513(4) 0.45867(12) 0.2865(3)
H7 H 1.4754 0.4803 0.2306
C4 C 1.2949(4) 0.43894(10) 0.2443(3)
C5 C 1.2641(4) 0.40596(11) 0.3290(3)
C6 C 1.1050(4) 0.38130(11) 0.2937(3)
C7 C 1.0045(4) 0.39169(10) 0.3619(3)
C8 C 0.8693(4) 0.36238(11) 0.3381(3)
H8 H 0.8030 0.3676 0.3853
C9 C 0.8342(4) 0.32541(12) 0.2434(3)
H9 H 0.7437 0.3056 0.2249
C10 C 0.9373(4) 0.31885(11) 0.1772(3)
H10 H 0.9117 0.2947 0.1117
C11 C 1.1566(4) 0.45502(11) 0.1144(3)
C12 C 1.0363(4) 0.43464(11) 0.4543(3)
C13 C 0.2647(4) 0.61479(12) 0.0958(3)
H11 H 0.1532 0.6096 0.0705
C14 C 0.3475(4) 0.58450(11) 0.0442(3)
H12 H 0.2925 0.5600 -0.0162
C15 C 0.5130(4) 0.59105(11) 0.0833(3)
H13 H 0.5716 0.5705 0.0509
C16 C 0.5933(4) 0.62881(11) 0.1723(3)
C17 C 0.4968(4) 0.65827(11) 0.2154(3)
C18 C 0.5685(4) 0.70203(11) 0.3005(3)
C19 C 0.5476(4) 0.74808(12) 0.2468(3)
C20 C 0.6352(4) 0.78556(11) 0.3317(3)
H14 H 0.6212 0.8169 0.2982
C21 C 0.7424(4) 0.77663(11) 0.4648(3)
H15 H 0.8095 0.8008 0.5188
C22 C 0.7472(4) 0.73108(12) 0.5157(3)
H16 H 0.8119 0.7249 0.6073
C23 C 0.7734(4) 0.63755(12) 0.2125(3)
C24 C 0.4380(4) 0.75654(12) 0.0990(3)
U1B U 1.042724(14) 0.473256(4) -0.235424(11)
U1B_2 U 1.042724(14) 0.473256(4) 0.764576(11)
O4B O 0.8119(3) 0.53898(7) -0.0113(2)
O6B O 0.9924(3) 0.56949(7) 0.4409(2)
O11 O 0.1651(3) 0.80839(9) -0.1678(2)
H2 H 0.2076 0.8257 -0.2202
H3 H 0.0730 0.8204 -0.1735
loop_
_geom_bond_atom_site_label_1
_geom_bond_atom_site_label_2
_geom_bond_site_symmetry_1
_geom_bond_site_symmetry_2
U1 O1 1_555 1_555
O2 U1 1_555 1_555
O3 U1 1_555 1_555
O4 C11 1_555 1_555
O5 U1 1_555 1_555
O6 C12 1_555 1_555
O7 U1 1_555 1_555
O8 C23 1_555 1_555
O9 H1 1_555 1_555
O10 C24 1_555 1_555
O11 H2 1_555 1_555
H3 O11 1_555 1_555
N1 C1 1_555 1_555
N2 C6 1_555 1_555
N3 C13 1_555 1_555
N4 H4 1_555 1_555
C1 H5 1_555 1_555
C2 C1 1_555 1_555
H6 C2 1_555 1_555
C3 C2 1_555 1_555
H7 C3 1_555 1_555
C4 C3 1_555 1_555
C5 N1 1_555 1_555
C6 C5 1_555 1_555
C7 C6 1_555 1_555
C8 C7 1_555 1_555
H8 C8 1_555 1_555
C9 C8 1_555 1_555
H9 C9 1_555 1_555
C10 N2 1_555 1_555
H10 C10 1_555 1_555
C11 O3 1_555 1_555
C12 O5 1_555 1_555
C13 H11 1_555 1_555
C14 C13 1_555 1_555
H12 C14 1_555 1_555
C15 C14 1_555 1_555
H13 C15 1_555 1_555
C16 C15 1_555 1_555
C17 N3 1_555 1_555
C18 N4 1_555 1_555
C19 C18 1_555 1_555
C20 C19 1_555 1_555
H14 C20 1_555 1_555
C21 C20 1_555 1_555
H15 C21 1_555 1_555
C22 N4 1_555 1_555
H16 C22 1_555 1_555
C23 O7 1_555 1_555
C24 O9 1_555 1_555
U1B O4 1_555 1_555
U1B_2 O6 1_555 1_555
O4B U1 1_555 1_555
O6B U1 1_555 1_555
C4 C5 1_555 1_555
C4 C11 1_555 1_555
C7 C12 1_555 1_555
C9 C10 1_555 1_555
C16 C17 1_555 1_555
C16 C23 1_555 1_555
C17 C18 1_555 1_555
C19 C24 1_555 1_555
C21 C22 1_555 1_555

#END
