
#######################################################################
#
#                 Cambridge Crystallographic Data Centre
#                                CCDC 
#
#######################################################################
#
# If this CIF has been generated from an entry in the Cambridge 
# Structural Database, then it will include bibliographic, chemical, 
# crystal, experimental, refinement or atomic coordinate data resulting 
# from the CCDC's data processing and validation procedures.
#
#######################################################################

data_FAHKOQ
_symmetry_cell_setting           monoclinic
_symmetry_space_group_name_H-M   'P 21/n'
_symmetry_Int_Tables_number      14
_space_group_name_Hall           '-P 2yn'
loop_
_symmetry_equiv_pos_site_id
_symmetry_equiv_pos_as_xyz
1 x,y,z
2 1/2-x,1/2+y,1/2-z
3 -x,-y,-z
4 1/2+x,1/2-y,1/2+z
_cell_length_a                   13.2312(4)
_cell_length_b                   12.9824(7)
_cell_length_c                   25.0960(13)
_cell_angle_alpha                90
_cell_angle_beta                 96.853(3)
_cell_angle_gamma                90
_cell_volume                     4280.01
loop_
_atom_site_label
_atom_site_type_symbol
_atom_site_fract_x
_atom_site_fract_y
_atom_site_fract_z
U1 U 0.989626(15) 0.04294(2) 0.240242(9)
U2 U 1.0000 0.0000 0.0000
O1 O 1.0182(3) 0.1523(4) 0.20260(16)
O2 O 0.9610(3) -0.0663(3) 0.27705(16)
O3 O 1.0774(3) 0.0171(4) 0.06111(18)
O4 O 0.9245(3) -0.0597(3) 0.15744(15)
O5 O 0.8141(3) 0.0318(4) 0.19423(17)
O6 O 0.9175(3) -0.1480(4) 0.03904(16)
O7 O 0.8421(3) 0.0006(4) 0.04640(17)
O8 O 0.5959(3) -0.4472(4) 0.04461(18)
H1 H 0.5759 -0.5121 0.0467
O9 O 0.6837(3) -0.4721(4) 0.12463(19)
O10 O 0.6402(3) -0.3428(4) 0.22851(16)
O11 O 0.5026(3) -0.3614(4) 0.17192(16)
O12 O 1.1624(3) 0.0617(4) 0.28852(16)
H2 H 1.1662 0.1325 0.2891
H3 H 1.1595 0.0429 0.3191
O13 O 1.1209(3) -0.0557(4) 0.20162(16)
H4 H 1.0790 -0.1008 0.1774
H5 H 1.1484 -0.0199 0.1845
O14 O 0.9258(4) 0.1720(5) 0.0094(2)
H6 H 0.8832 0.2084 0.0351
H7 H 0.8728 0.1660 -0.0183
C1 C 0.7458(4) -0.0995(5) 0.1349(2)
H8 H 0.6853 -0.0554 0.1310
C2 C 0.7599(4) -0.1443(6) 0.0792(2)
H9 H 0.6977 -0.1272 0.0557
C3 C 0.7638(4) -0.2641(6) 0.0820(2)
H10 H 0.7826 -0.2934 0.0486
C4 C 0.6546(4) -0.2991(5) 0.0920(2)
H11 H 0.6063 -0.2716 0.0628
C5 C 0.6306(4) -0.2479(5) 0.1455(2)
H12 H 0.5778 -0.1959 0.1361
C6 C 0.7265(4) -0.1906(5) 0.1724(2)
H13 H 0.7155 -0.1655 0.2081
C7 C 0.8339(4) -0.0384(6) 0.1618(2)
C8 C 0.8454(4) -0.0942(6) 0.0546(2)
C9 C 0.6474(4) -0.4146(6) 0.0901(3)
C10 C 0.5903(4) -0.3213(5) 0.1835(2)
C11 C 0.8181(4) -0.2612(5) 0.1760(3)
H14 H 0.8569 -0.2771 0.2083
C12 C 0.8380(4) -0.2979(5) 0.1299(2)
H15 H 0.8930 -0.3411 0.1266
U1B U 1.010374(15) -0.04294(2) -0.240242(9)
U1A U 0.510374(15) -0.45706(2) 0.259758(9)
U1C U 1.489626(15) 0.45706(2) -0.259758(9)
O1B O 0.9818(3) -0.1523(4) -0.20260(16)
O2B O 1.0390(3) 0.0663(3) -0.27705(16)
O3B O 0.9226(3) -0.0171(4) -0.06111(18)
O4B O 1.0755(3) 0.0597(3) -0.15744(15)
O5B O 1.1859(3) -0.0318(4) -0.19423(17)
O6B O 1.0825(3) 0.1480(4) -0.03904(16)
O7B O 1.1579(3) -0.0006(4) -0.04640(17)
O8B O 1.4041(3) 0.4472(4) -0.04461(18)
H1B H 1.4241 0.5121 -0.0467
O9B O 1.3163(3) 0.4721(4) -0.12463(19)
O10B O 1.3598(3) 0.3428(4) -0.22851(16)
O10A O 0.8598(3) 0.1572(4) 0.27149(16)
O10C O 1.1402(3) -0.1572(4) -0.27149(16)
O11B O 1.4974(3) 0.3614(4) -0.17192(16)
O11A O 0.9974(3) 0.1386(4) 0.32808(16)
O11C O 1.0026(3) -0.1386(4) -0.32808(16)
O12B O 0.8376(3) -0.0617(4) -0.28852(16)
H2B H 0.8338 -0.1325 -0.2891
H3B H 0.8405 -0.0429 -0.3191
O13B O 0.8791(3) 0.0557(4) -0.20162(16)
H4B H 0.9210 0.1008 -0.1774
H5B H 0.8516 0.0199 -0.1845
O14B O 1.0742(4) -0.1720(5) -0.0094(2)
H6B H 1.1168 -0.2084 -0.0351
H7B H 1.1272 -0.1660 0.0183
C1B C 1.2542(4) 0.0995(5) -0.1349(2)
H8B H 1.3147 0.0554 -0.1310
C2B C 1.2401(4) 0.1443(6) -0.0792(2)
H9B H 1.3023 0.1272 -0.0557
C3B C 1.2362(4) 0.2641(6) -0.0820(2)
H10B H 1.2174 0.2934 -0.0486
C4B C 1.3454(4) 0.2991(5) -0.0920(2)
H11B H 1.3937 0.2716 -0.0628
C5B C 1.3694(4) 0.2479(5) -0.1455(2)
H12B H 1.4222 0.1959 -0.1361
C6B C 1.2735(4) 0.1906(5) -0.1724(2)
H13B H 1.2845 0.1655 -0.2081
C7B C 1.1661(4) 0.0384(6) -0.1618(2)
C8B C 1.1546(4) 0.0942(6) -0.0546(2)
C9B C 1.3526(4) 0.4146(6) -0.0901(3)
C10B C 1.4097(4) 0.3213(5) -0.1835(2)
C11B C 1.1819(4) 0.2612(5) -0.1760(3)
H14B H 1.1431 0.2771 -0.2083
C12B C 1.1620(4) 0.2979(5) -0.1299(2)
H15B H 1.1070 0.3411 -0.1266
U3 U 0.481906(16) 0.00137(2) 0.250139(9)
U4 U 0.5000 0.0000 0.0000
O15 O 0.5005(3) -0.1161(4) 0.21712(16)
O16 O 0.4627(3) 0.1165(3) 0.28437(16)
O17 O 0.5253(3) -0.0773(4) 0.05781(16)
O18 O 0.4333(3) 0.0924(4) 0.16134(16)
O19 O 0.3103(3) 0.0229(4) 0.19971(16)
O20 O 0.3437(3) 0.0352(4) 0.03995(16)
O21 O 0.4492(3) 0.1658(4) 0.04395(15)
O22 O 0.2837(4) 0.5072(4) 0.0581(2)
H16 H 0.3186 0.5350 0.0838
O23 O 0.1640(4) 0.5334(5) 0.1103(2)
O24 O 0.1622(3) 0.4156(4) 0.21344(16)
O25 O 0.0172(3) 0.4058(4) 0.16304(16)
O26 O 0.6528(3) -0.0229(4) 0.29833(16)
H17 H 0.6545 -0.0894 0.3024
H18 H 0.7118 0.0038 0.2834
O27 O 0.6203(3) 0.0818(4) 0.20937(16)
H19 H 0.6880 0.0553 0.2086
H20 H 0.6015 0.1293 0.1778
O28 O 0.6478(3) 0.0997(4) 0.04019(17)
H21 H 0.7058 0.0736 0.0437
H22 H 0.6386 0.1150 0.0812
C13 C 0.2596(4) 0.1486(5) 0.1316(2)
H23 H 0.1968 0.1082 0.1250
C14 C 0.2860(4) 0.1905(6) 0.0769(2)
H24 H 0.2237 0.1815 0.0521
C15 C 0.3035(4) 0.3060(6) 0.0796(2)
H25 H 0.3323 0.3307 0.0477
C16 C 0.1999(4) 0.3578(5) 0.0846(2)
H26 H 0.1538 0.3417 0.0522
C17 C 0.1549(4) 0.3101(5) 0.1332(2)
H27 H 0.1004 0.2631 0.1187
C18 C 0.2386(4) 0.2430(5) 0.1661(2)
H28 H 0.2169 0.2216 0.2004
C19 C 0.3401(4) 0.0827(6) 0.1645(2)
C20 C 0.3657(4) 0.1262(6) 0.0535(2)
C21 C 0.2134(5) 0.4734(6) 0.0874(3)
C22 C 0.1102(4) 0.3824(5) 0.1709(3)
C23 C 0.3381(4) 0.3047(5) 0.1750(3)
H29 H 0.3712 0.3198 0.2089
C24 C 0.3721(4) 0.3340(5) 0.1308(2)
H30 H 0.4332 0.3692 0.1305
U3B U 0.518094(16) -0.00137(2) -0.250139(9)
U3A U 0.018094(16) 0.50137(2) 0.249861(9)
U3C U 0.981906(16) -0.50137(2) -0.249861(9)
O15B O 0.4995(3) 0.1161(4) -0.21712(16)
O16B O 0.5373(3) -0.1165(3) -0.28437(16)
O17B O 0.4747(3) 0.0773(4) -0.05781(16)
O18B O 0.5667(3) -0.0924(4) -0.16134(16)
O19B O 0.6897(3) -0.0229(4) -0.19971(16)
O20B O 0.6563(3) -0.0352(4) -0.03995(16)
O21B O 0.5508(3) -0.1658(4) -0.04395(15)
O22B O 0.7163(4) -0.5072(4) -0.0581(2)
H16B H 0.6814 -0.5350 -0.0838
O23B O 0.8360(4) -0.5334(5) -0.1103(2)
O24B O 0.8378(3) -0.4156(4) -0.21344(16)
O24A O 0.3378(3) -0.0844(4) 0.28656(16)
O24C O 0.6622(3) 0.0844(4) -0.28656(16)
O25B O 0.9828(3) -0.4058(4) -0.16304(16)
O25A O 0.4828(3) -0.0942(4) 0.33696(16)
O25C O 0.5172(3) 0.0942(4) -0.33696(16)
O26B O 0.3472(3) 0.0229(4) -0.29833(16)
H17B H 0.3455 0.0894 -0.3024
H18B H 0.2882 -0.0038 -0.2834
O27B O 0.3797(3) -0.0818(4) -0.20937(16)
H19B H 0.3120 -0.0553 -0.2086
H20B H 0.3985 -0.1293 -0.1778
O28B O 0.3522(3) -0.0997(4) -0.04019(17)
H21B H 0.2942 -0.0736 -0.0437
H22B H 0.3614 -0.1150 -0.0812
C13B C 0.7404(4) -0.1486(5) -0.1316(2)
H23B H 0.8032 -0.1082 -0.1250
C14B C 0.7140(4) -0.1905(6) -0.0769(2)
H24B H 0.7763 -0.1815 -0.0521
C15B C 0.6965(4) -0.3060(6) -0.0796(2)
H25B H 0.6677 -0.3307 -0.0477
C16B C 0.8001(4) -0.3578(5) -0.0846(2)
H26B H 0.8462 -0.3417 -0.0522
C17B C 0.8451(4) -0.3101(5) -0.1332(2)
H27B H 0.8996 -0.2631 -0.1187
C18B C 0.7614(4) -0.2430(5) -0.1661(2)
H28B H 0.7831 -0.2216 -0.2004
C19B C 0.6599(4) -0.0827(6) -0.1645(2)
C20B C 0.6343(4) -0.1262(6) -0.0535(2)
C21B C 0.7866(5) -0.4734(6) -0.0874(3)
C22B C 0.8898(4) -0.3824(5) -0.1709(3)
C23B C 0.6619(4) -0.3047(5) -0.1750(3)
H29B H 0.6288 -0.3198 -0.2089
C24B C 0.6279(4) -0.3340(5) -0.1308(2)
H30B H 0.5668 -0.3692 -0.1305
O29 O 0.5899(3) -0.6537(4) 0.02623(18)
H31 H 0.6586 -0.6646 0.0393
H32 H 0.5641 -0.7070 0.0464
O30 O 1.2164(3) 0.2605(4) 0.30434(18)
H33 H 1.1787 0.3048 0.2830
H34 H 1.2081 0.2769 0.3370
O31 O 1.0790(3) -0.2145(4) 0.13010(18)
H35 H 1.0744 -0.2700 0.1562
H36 H 1.1301 -0.2299 0.1111
O32 O 0.7046(3) -0.2171(4) 0.32113(19)
H37 H 0.7105 -0.2686 0.2966
H38 H 0.6798 -0.2497 0.3505
O33 O 0.3761(3) -0.3175(4) 0.07863(18)
H39 H 0.3946 -0.3118 0.1172
H40 H 0.3739 -0.2548 0.0697
O34 O 1.0195(4) -0.3595(4) 0.0277(2)
H41 H 1.0700 -0.3806 0.0565
H42 H 1.0287 -0.4028 0.0042
O35 O 0.7976(4) 0.2904(5) 0.0638(2)
O36 O 0.6088(3) 0.2206(4) 0.12968(19)
O37 O 0.2688(3) -0.1395(4) 0.09131(19)
O38 O -0.0752(4) 0.4600(5) 0.0629(2)
loop_
_geom_bond_atom_site_label_1
_geom_bond_atom_site_label_2
_geom_bond_site_symmetry_1
_geom_bond_site_symmetry_2
U1 O1 1_555 1_555
U2 O3 1_555 1_555
O2 U1 1_555 1_555
O4 U1 1_555 1_555
O5 U1 1_555 1_555
O6 U2 1_555 1_555
O7 U2 1_555 1_555
O8 H1 1_555 1_555
O9 C9 1_555 1_555
O10 C10 1_555 1_555
O11 C10 1_555 1_555
O12 U1 1_555 1_555
H2 O12 1_555 1_555
H3 O12 1_555 1_555
O13 U1 1_555 1_555
H4 O13 1_555 1_555
H5 O13 1_555 1_555
O14 U2 1_555 1_555
H6 O14 1_555 1_555
H7 O14 1_555 1_555
C1 H8 1_555 1_555
C2 C1 1_555 1_555
H9 C2 1_555 1_555
C3 C2 1_555 1_555
H10 C3 1_555 1_555
C4 C3 1_555 1_555
H11 C4 1_555 1_555
C5 C4 1_555 1_555
H12 C5 1_555 1_555
C6 C1 1_555 1_555
H13 C6 1_555 1_555
C7 O4 1_555 1_555
C8 O6 1_555 1_555
C9 O8 1_555 1_555
C10 C5 1_555 1_555
C11 C6 1_555 1_555
H14 C11 1_555 1_555
C12 C3 1_555 1_555
H15 C12 1_555 1_555
U3 O15 1_555 1_555
U4 O17 1_555 1_555
O16 U3 1_555 1_555
O18 U3 1_555 1_555
O19 U3 1_555 1_555
O20 U4 1_555 1_555
O21 U4 1_555 1_555
O22 H16 1_555 1_555
O23 C21 1_555 1_555
O24 C22 1_555 1_555
O25 C22 1_555 1_555
O26 U3 1_555 1_555
H17 O26 1_555 1_555
H18 O26 1_555 1_555
O27 U3 1_555 1_555
H19 O27 1_555 1_555
H20 O27 1_555 1_555
O28 U4 1_555 1_555
H21 O28 1_555 1_555
H22 O28 1_555 1_555
C13 H23 1_555 1_555
C14 C13 1_555 1_555
H24 C14 1_555 1_555
C15 C14 1_555 1_555
H25 C15 1_555 1_555
C16 C15 1_555 1_555
H26 C16 1_555 1_555
C17 C16 1_555 1_555
H27 C17 1_555 1_555
C18 C13 1_555 1_555
H28 C18 1_555 1_555
C19 O18 1_555 1_555
C20 O20 1_555 1_555
C21 O22 1_555 1_555
C22 C17 1_555 1_555
C23 C18 1_555 1_555
H29 C23 1_555 1_555
C24 C15 1_555 1_555
H30 C24 1_555 1_555
O29 H31 1_555 1_555
H32 O29 1_555 1_555
O30 H33 1_555 1_555
H34 O30 1_555 1_555
O31 H35 1_555 1_555
H36 O31 1_555 1_555
O32 H37 1_555 1_555
H38 O32 1_555 1_555
O33 H39 1_555 1_555
H40 O33 1_555 1_555
O34 H41 1_555 1_555
H42 O34 1_555 1_555
U1B O1B 1_555 1_555
U1A O10 1_555 1_555
U1C O10B 1_555 1_555
O2B U1B 1_555 1_555
O3B U2 1_555 1_555
O4B U1B 1_555 1_555
O5B U1B 1_555 1_555
O6B U2 1_555 1_555
O7B U2 1_555 1_555
O8B H1B 1_555 1_555
O9B C9B 1_555 1_555
O10B C10B 1_555 1_555
O10A U1 1_555 1_555
O10C U1B 1_555 1_555
O11B U1C 1_555 1_555
O11A U1 1_555 1_555
O11C U1B 1_555 1_555
O12B U1B 1_555 1_555
H2B O12B 1_555 1_555
H3B O12B 1_555 1_555
O13B U1B 1_555 1_555
H4B O13B 1_555 1_555
H5B O13B 1_555 1_555
O14B U2 1_555 1_555
H6B O14B 1_555 1_555
H7B O14B 1_555 1_555
C1B H8B 1_555 1_555
C2B C1B 1_555 1_555
H9B C2B 1_555 1_555
C3B C2B 1_555 1_555
H10B C3B 1_555 1_555
C4B C3B 1_555 1_555
H11B C4B 1_555 1_555
C5B C4B 1_555 1_555
H12B C5B 1_555 1_555
C6B C1B 1_555 1_555
H13B C6B 1_555 1_555
C7B O4B 1_555 1_555
C8B O6B 1_555 1_555
C9B O8B 1_555 1_555
C10B O11B 1_555 1_555
C11B C6B 1_555 1_555
H14B C11B 1_555 1_555
C12B C3B 1_555 1_555
H15B C12B 1_555 1_555
U3B O15B 1_555 1_555
U3A O24 1_555 1_555
U3C O24B 1_555 1_555
O16B U3B 1_555 1_555
O17B U4 1_555 1_555
O18B U3B 1_555 1_555
O19B U3B 1_555 1_555
O20B U4 1_555 1_555
O21B U4 1_555 1_555
O22B H16B 1_555 1_555
O23B C21B 1_555 1_555
O24B C22B 1_555 1_555
O24A U3 1_555 1_555
O24C U3B 1_555 1_555
O25B U3C 1_555 1_555
O25A U3 1_555 1_555
O25C U3B 1_555 1_555
O26B U3B 1_555 1_555
H17B O26B 1_555 1_555
H18B O26B 1_555 1_555
O27B U3B 1_555 1_555
H19B O27B 1_555 1_555
H20B O27B 1_555 1_555
O28B U4 1_555 1_555
H21B O28B 1_555 1_555
H22B O28B 1_555 1_555
C13B H23B 1_555 1_555
C14B C13B 1_555 1_555
H24B C14B 1_555 1_555
C15B C14B 1_555 1_555
H25B C15B 1_555 1_555
C16B C15B 1_555 1_555
H26B C16B 1_555 1_555
C17B C16B 1_555 1_555
H27B C17B 1_555 1_555
C18B C13B 1_555 1_555
H28B C18B 1_555 1_555
C19B O18B 1_555 1_555
C20B O20B 1_555 1_555
C21B O22B 1_555 1_555
C22B O25B 1_555 1_555
C23B C18B 1_555 1_555
H29B C23B 1_555 1_555
C24B C15B 1_555 1_555
H30B C24B 1_555 1_555
O5 C7 1_555 1_555
O7 C8 1_555 1_555
O11 U1A 1_555 1_555
C1 C7 1_555 1_555
C2 C8 1_555 1_555
C4 C9 1_555 1_555
C5 C6 1_555 1_555
C11 C12 1_555 1_555
O19 C19 1_555 1_555
O21 C20 1_555 1_555
O25 U3A 1_555 1_555
C13 C19 1_555 1_555
C14 C20 1_555 1_555
C16 C21 1_555 1_555
C17 C18 1_555 1_555
C23 C24 1_555 1_555
O5B C7B 1_555 1_555
O7B C8B 1_555 1_555
C1B C7B 1_555 1_555
C2B C8B 1_555 1_555
C4B C9B 1_555 1_555
C5B C6B 1_555 1_555
C5B C10B 1_555 1_555
C11B C12B 1_555 1_555
O19B C19B 1_555 1_555
O21B C20B 1_555 1_555
C13B C19B 1_555 1_555
C14B C20B 1_555 1_555
C16B C21B 1_555 1_555
C17B C18B 1_555 1_555
C17B C22B 1_555 1_555
C23B C24B 1_555 1_555

#END
