
#######################################################################
#
#                 Cambridge Crystallographic Data Centre
#                                CCDC 
#
#######################################################################
#
# If this CIF has been generated from an entry in the Cambridge 
# Structural Database, then it will include bibliographic, chemical, 
# crystal, experimental, refinement or atomic coordinate data resulting 
# from the CCDC's data processing and validation procedures.
#
#######################################################################

data_FAHMOS
_symmetry_cell_setting           triclinic
_symmetry_space_group_name_H-M   'P -1'
_symmetry_Int_Tables_number      2
_space_group_name_Hall           '-P 1'
loop_
_symmetry_equiv_pos_site_id
_symmetry_equiv_pos_as_xyz
1 x,y,z
2 -x,-y,-z
_cell_length_a                   9.955(5)
_cell_length_b                   10.550(4)
_cell_length_c                   14.073(3)
_cell_angle_alpha                88.346(2)
_cell_angle_beta                 69.302(3)
_cell_angle_gamma                64.514(5)
_cell_volume                     1234.72
loop_
_atom_site_label
_atom_site_type_symbol
_atom_site_fract_x
_atom_site_fract_y
_atom_site_fract_z
Zn1 Zn -1.11104(2) 0.587481(19) 1.308253(14)
C1 C -0.96377(18) -0.26790(17) 0.59944(12)
C2 C -1.05645(18) -0.15152(16) 0.68824(12)
C3 C -1.1187(2) -0.18248(18) 0.78583(13)
H1 H -1.0925 -0.2762 0.7963
C4 C -1.2197(2) -0.07389(19) 0.86761(13)
H2 H -1.2608 -0.0953 0.9329
C5 C -1.26010(19) 0.06615(17) 0.85326(12)
C6 C -1.1935(2) 0.09608(18) 0.75632(13)
H3 H -1.2168 0.1896 0.7464
C7 C -1.0929(2) -0.01142(17) 0.67420(13)
H4 H -1.0494 0.0100 0.6093
C8 C -1.3791(2) 0.18479(19) 0.94102(14)
H5 H -1.4369 0.1491 0.9969
H6 H -1.4565 0.2587 0.9186
C9 C -1.38114(18) 0.33885(16) 1.06212(12)
C10 C -1.54569(17) 0.39064(16) 1.11506(11)
H7 H -1.6055 0.3636 1.0897
C11 C -1.62044(17) 0.48361(15) 1.20667(11)
C12 C -1.53188(18) 0.52382(16) 1.24461(12)
H8 H -1.5816 0.5827 1.3072
C13 C -1.36814(18) 0.47600(16) 1.18904(12)
C14 C -1.29356(18) 0.38412(17) 1.09800(12)
H9 H -1.1843 0.3525 1.0607
C15 C -1.79821(18) 0.53826(15) 1.26620(11)
C16 C -1.2718(2) 0.52215(18) 1.22864(15)
C17 C -1.1217(3) 0.8237(2) 1.16482(16)
H10 H -1.0762 0.7523 1.1098
C18 C -1.1515(3) 0.9618(3) 1.1452(2)
H11 H -1.1258 0.9813 1.0780
C19 C -1.2183(3) 1.0675(2) 1.2246(2)
H12 H -1.2391 1.1598 1.2120
C20 C -1.2559(2) 1.03723(19) 1.32586(16)
C21 C -1.22168(18) 0.89549(17) 1.33873(14)
C22 C -1.3285(2) 1.14126(19) 1.41466(19)
H13 H -1.3514 1.2352 1.4064
C23 C -1.3640(2) 1.10608(19) 1.50933(17)
H14 H -1.4112 1.1761 1.5656
C24 C -1.33087(18) 0.96262(17) 1.52584(14)
C25 C -1.25900(17) 0.85742(16) 1.44063(13)
C26 C -1.3675(2) 0.9200(2) 1.62305(14)
H15 H -1.4157 0.9861 1.6818
C27 C -1.3319(2) 0.7811(2) 1.63113(14)
H16 H -1.3561 0.7520 1.6954
C28 C -1.2593(2) 0.68309(18) 1.54263(13)
H17 H -1.2356 0.5886 1.5492
N1 N -1.22281(14) 0.71937(13) 1.44948(10)
N2 N -1.15603(16) 0.79097(16) 1.25919(11)
O1 O -1.13567(15) 0.50449(15) 1.16961(12)
O2 O -1.32915(19) 0.57735(17) 1.32002(11)
O3 O -1.86221(14) 0.61897(14) 1.34785(9)
O4 O -1.87471(12) 0.49860(12) 1.22910(9)
O5 O -1.29427(13) 0.24107(13) 0.97504(9)
O6 O -0.92552(14) -0.39242(12) 0.60701(9)
O7 O -0.93363(16) -0.22095(13) 0.51089(9)
H18 H -0.8826 -0.2882 0.4643
Zn1_2 Zn -2.11104(2) 0.587481(19) 1.308253(14)
O4_2 O -0.87471(12) 0.49860(12) 1.22910(9)
O8 O 0.1946(2) 0.3463(2) 1.00429(14)
H19 H 0.160(4) 0.400(3) 0.956(2)
H20 H 0.091(2) 0.398(3) 1.049(2)
O9? O 0.5494(7) 0.4837(6) 0.5166(4)
H21? H 0.440(6) 0.487(5) 0.545(2)
loop_
_geom_bond_atom_site_label_1
_geom_bond_atom_site_label_2
_geom_bond_site_symmetry_1
_geom_bond_site_symmetry_2
Zn1 N1 1_555 1_555
C1 C2 1_555 1_555
C2 C3 1_555 1_555
C3 H1 1_555 1_555
C4 C3 1_555 1_555
H2 C4 1_555 1_555
C5 C4 1_555 1_555
C6 C5 1_555 1_555
H3 C6 1_555 1_555
C7 C2 1_555 1_555
H4 C7 1_555 1_555
C8 C5 1_555 1_555
H5 C8 1_555 1_555
H6 C8 1_555 1_555
C9 C10 1_555 1_555
C10 H7 1_555 1_555
C11 C10 1_555 1_555
C12 C11 1_555 1_555
H8 C12 1_555 1_555
C13 C12 1_555 1_555
C14 C9 1_555 1_555
H9 C14 1_555 1_555
C15 C11 1_555 1_555
C16 C13 1_555 1_555
C17 H10 1_555 1_555
C18 C17 1_555 1_555
H11 C18 1_555 1_555
C19 C18 1_555 1_555
H12 C19 1_555 1_555
C20 C19 1_555 1_555
C21 C20 1_555 1_555
C22 C20 1_555 1_555
H13 C22 1_555 1_555
C23 C22 1_555 1_555
H14 C23 1_555 1_555
C24 C23 1_555 1_555
C25 C21 1_555 1_555
C26 C24 1_555 1_555
H15 C26 1_555 1_555
C27 C26 1_555 1_555
H16 C27 1_555 1_555
C28 C27 1_555 1_555
H17 C28 1_555 1_555
N1 C25 1_555 1_555
N2 Zn1 1_555 1_555
O1 Zn1 1_555 1_555
O2 Zn1 1_555 1_555
O3 C15 1_555 1_555
O4 C15 1_555 1_555
O5 C8 1_555 1_555
O6 C1 1_555 1_555
O7 C1 1_555 1_555
H18 O7 1_555 1_555
O8 H19 1_555 1_555
H20 O8 1_555 1_555
Zn1_2 O4 1_555 1_555
O4_2 Zn1 1_555 1_555
C6 C7 1_555 1_555
C9 O5 1_555 1_555
C13 C14 1_555 1_555
C16 O1 1_555 1_555
C16 O2 1_555 1_555
C17 N2 1_555 1_555
C21 N2 1_555 1_555
C24 C25 1_555 1_555
C28 N1 1_555 1_555

#END
