
#######################################################################
#
#                 Cambridge Crystallographic Data Centre
#                                CCDC 
#
#######################################################################
#
# If this CIF has been generated from an entry in the Cambridge 
# Structural Database, then it will include bibliographic, chemical, 
# crystal, experimental, refinement or atomic coordinate data resulting 
# from the CCDC's data processing and validation procedures.
#
#######################################################################

data_FAHMIM
_symmetry_cell_setting           monoclinic
_symmetry_space_group_name_H-M   'P 21/c'
_symmetry_Int_Tables_number      14
_space_group_name_Hall           '-P 2ybc'
loop_
_symmetry_equiv_pos_site_id
_symmetry_equiv_pos_as_xyz
1 x,y,z
2 -x,1/2+y,1/2-z
3 -x,-y,-z
4 x,1/2-y,1/2+z
_cell_length_a                   11.9530(7)
_cell_length_b                   7.2717(3)
_cell_length_c                   17.7746(8)
_cell_angle_alpha                90
_cell_angle_beta                 104.482(5)
_cell_angle_gamma                90
_cell_volume                     1495.86
loop_
_atom_site_label
_atom_site_type_symbol
_atom_site_fract_x
_atom_site_fract_y
_atom_site_fract_z
Zn1 Zn 0.95673(3) 0.04771(4) 0.801138(16)
C1 C 0.67531(19) 0.1011(3) 0.71359(14)
C2 C 0.58367(19) 0.2172(3) 0.66380(14)
C3 C 0.5047(2) 0.1484(3) 0.59946(15)
H1 H 0.5070 0.0248 0.5866
C4 C 0.4220(2) 0.2629(3) 0.55389(15)
H2 H 0.3702 0.2159 0.5101
C5 C 0.41609(18) 0.4462(3) 0.57310(14)
C6 C 0.4954(2) 0.5143(3) 0.63719(16)
H3 H 0.4924 0.6377 0.6504
C7 C 0.5789(2) 0.4022(3) 0.68190(16)
H4 H 0.6324 0.4508 0.7245
C8 C 0.3259(2) 0.5706(3) 0.52347(15)
H5 H 0.3538 0.6221 0.4812
H6 H 0.2554 0.5027 0.5017
C9 C 0.23526(19) 0.8550(3) 0.54291(14)
C10 C 0.18566(18) 0.8843(3) 0.46515(14)
H7 H 0.1973 0.8005 0.4283
C11 C 0.11765(17) 1.0407(3) 0.44179(12)
C12 C 0.10102(17) 1.1668(3) 0.49652(13)
H8 H 0.0572 1.2721 0.4809
C13 C 0.15050(17) 1.1343(3) 0.57521(13)
C14 C 0.21635(19) 0.9790(3) 0.59786(13)
H9 H 0.2484 0.9571 0.6504
C15 C 0.06244(17) 1.0666(3) 0.35755(13)
C16 C 0.13288(19) 1.2635(3) 0.63662(14)
O1 O 0.66095(14) -0.0758(2) 0.70002(12)
H10 H 0.7138 -0.1326 0.7290
O2 O 0.75761(13) 0.1649(2) 0.76190(10)
O3 O 0.30546(17) 0.7114(3) 0.57303(11)
O4 O 0.08180(13) 0.9432(2) 0.31204(9)
O5 O -0.00098(14) 1.2019(2) 0.33523(10)
O6 O 0.17708(14) 1.2290(2) 0.70702(10)
O7 O 0.07164(14) 1.4048(2) 0.61419(10)
O8 O 1.13149(17) -0.0231(3) 0.81527(12)
H11 H 1.136(3) -0.136(3) 0.8064(19)
H12 H 1.158(3) 0.034(4) 0.783(2)
Zn1B Zn 0.04327(3) 0.95229(4) 0.198862(16)
Zn1C Zn -0.04327(3) 1.45229(4) 0.301138(16)
Zn1A Zn 0.04327(3) 1.54771(4) 0.698862(16)
O4B O 0.91820(13) 0.0568(2) 0.68796(9)
O5C O 0.99902(14) 0.2981(2) 0.83523(10)
O7A O 0.92836(14) -0.0952(2) 0.88581(10)
loop_
_geom_bond_atom_site_label_1
_geom_bond_atom_site_label_2
_geom_bond_site_symmetry_1
_geom_bond_site_symmetry_2
Zn1 O2 1_555 1_555
C1 C2 1_555 1_555
C2 C3 1_555 1_555
C3 H1 1_555 1_555
C4 C3 1_555 1_555
H2 C4 1_555 1_555
C5 C4 1_555 1_555
C6 C5 1_555 1_555
H3 C6 1_555 1_555
C7 C2 1_555 1_555
H4 C7 1_555 1_555
C8 C5 1_555 1_555
H5 C8 1_555 1_555
H6 C8 1_555 1_555
C9 C10 1_555 1_555
C10 H7 1_555 1_555
C11 C10 1_555 1_555
C12 C11 1_555 1_555
H8 C12 1_555 1_555
C13 C12 1_555 1_555
C14 C9 1_555 1_555
H9 C14 1_555 1_555
C15 C11 1_555 1_555
C16 C13 1_555 1_555
O1 C1 1_555 1_555
H10 O1 1_555 1_555
O2 C1 1_555 1_555
O3 C8 1_555 1_555
O4 C15 1_555 1_555
O5 C15 1_555 1_555
O6 C16 1_555 1_555
O7 C16 1_555 1_555
O8 Zn1 1_555 1_555
H11 O8 1_555 1_555
H12 O8 1_555 1_555
Zn1B O4 1_555 1_555
Zn1C O5 1_555 1_555
Zn1A O7 1_555 1_555
O4B Zn1 1_555 1_555
O5C Zn1 1_555 1_555
O7A Zn1 1_555 1_555
C6 C7 1_555 1_555
C9 O3 1_555 1_555
C13 C14 1_555 1_555

#END
