
#######################################################################
#
#                 Cambridge Crystallographic Data Centre
#                                CCDC 
#
#######################################################################
#
# If this CIF has been generated from an entry in the Cambridge 
# Structural Database, then it will include bibliographic, chemical, 
# crystal, experimental, refinement or atomic coordinate data resulting 
# from the CCDC's data processing and validation procedures.
#
#######################################################################

data_FAHMUY
_symmetry_cell_setting           triclinic
_symmetry_space_group_name_H-M   'P -1'
_symmetry_Int_Tables_number      2
_space_group_name_Hall           '-P 1'
loop_
_symmetry_equiv_pos_site_id
_symmetry_equiv_pos_as_xyz
1 x,y,z
2 -x,-y,-z
_cell_length_a                   8.6590(3)
_cell_length_b                   9.9594(4)
_cell_length_c                   12.8686(6)
_cell_angle_alpha                94.713(4)
_cell_angle_beta                 101.475(3)
_cell_angle_gamma                92.540(3)
_cell_volume                     1081.82
loop_
_atom_site_label
_atom_site_type_symbol
_atom_site_fract_x
_atom_site_fract_y
_atom_site_fract_z
Zn1 Zn 0.37963(3) 0.23925(3) 0.37936(2)
C1 C 0.2688(3) 0.3363(3) 0.5345(2)
C2 C 0.1897(3) 0.4128(3) 0.6174(2)
C3 C 0.1605(3) 0.5466(3) 0.6116(2)
H1 H 0.1881 0.5919 0.5570
C4 C 0.0902(3) 0.6146(3) 0.6865(2)
H2 H 0.0722 0.7055 0.6822
C5 C 0.0470(2) 0.5491(3) 0.76705(19)
C6 C 0.0724(3) 0.4148(3) 0.7705(2)
H3 H 0.0401 0.3681 0.8229
C7 C 0.1445(3) 0.3481(3) 0.6977(2)
H4 H 0.1633 0.2574 0.7029
C8 C -0.0280(3) 0.6216(3) 0.8489(2)
H5 H -0.0992 0.6855 0.8159
H6 H -0.0883 0.5576 0.8803
C9 C 0.0454(2) 0.7762(2) 1.00443(18)
C10 C -0.1108(2) 0.7911(2) 1.00945(18)
H7 H -0.1903 0.7394 0.9617
C11 C -0.3206(3) 0.8948(3) 1.0878(2)
C12 C -0.1493(2) 0.8829(2) 1.08554(18)
C13 C -0.0325(2) 0.9605(2) 1.15615(18)
H8 H -0.0592 1.0228 1.2066
C14 C 0.1258(2) 0.9458(2) 1.15215(18)
C15 C 0.1641(2) 0.8528(2) 1.07701(19)
H9 H 0.2695 0.8414 1.0749
C16 C 0.2520(2) 1.0370(2) 1.22588(19)
C17 C 0.5024(2) 0.3480(3) 0.18689(19)
H10 H 0.5399 0.2670 0.1640
C18 C 0.6548(3) 0.1849(3) 0.5531(2)
H11 H 0.6064 0.2232 0.6057
C19 C 0.5661(3) 0.4871(3) 0.04477(19)
H12 H 0.6210 0.4101 0.0232
H13 H 0.6410 0.5650 0.0609
C20 C 0.6875(3) 0.1044(3) 0.4063(2)
H14 H 0.6711 0.0724 0.3348
C21 C 0.9661(3) 0.0418(3) 0.4573(2)
H15 H 1.0408 0.1163 0.4547
H16 H 0.9473 -0.0122 0.3892
C22 C 0.4029(3) 0.4973(3) 0.2714(2)
H17 H 0.3560 0.5402 0.3230
N1 N 0.4378(2) 0.3669(2) 0.27144(15)
N2 N 0.4405(3) 0.5588(2) 0.19286(19)
N3 N 0.5058(2) 0.4609(2) 0.13959(16)
N4 N 0.7997(3) 0.1458(3) 0.5734(2)
N5 N 0.5824(2) 0.1649(2) 0.45020(16)
N6 N 0.8184(2) 0.0943(2) 0.47520(18)
O1 O 0.2908(3) 0.2153(3) 0.5474(2)
O2 O 0.3010(2) 0.3914(2) 0.46598(18)
O3 O 0.09430(17) 0.69156(18) 0.92982(14)
O4 O -0.42536(18) 0.8266(2) 1.02938(15)
O5 O -0.34474(18) 0.9870(2) 1.16040(16)
H18 H -0.4398 0.9896 1.1584
O6 O 0.39240(17) 1.0312(2) 1.21791(15)
O7 O 0.20815(16) 1.11908(16) 1.29115(13)
Zn1A Zn 0.62037(3) 0.76075(3) -0.37936(2)
Zn1_2 Zn 0.37963(3) 1.23925(3) 1.37936(2)
Zn1A_2 Zn 1.62037(3) -0.23925(3) 0.62064(2)
Zn1_3 Zn 0.37963(3) -0.76075(3) -0.62064(2)
C1_2 C 0.2688(3) -0.6637(3) -0.4655(2)
C2_2 C 0.1897(3) -0.5872(3) -0.3826(2)
C3_2 C 0.1605(3) -0.4534(3) -0.3884(2)
H1_2 H 0.1881 -0.4081 -0.4430
C4_2 C 0.0902(3) -0.3854(3) -0.3135(2)
H2_2 H 0.0722 -0.2945 -0.3178
C5_2 C 0.0470(2) -0.4509(3) -0.23295(19)
C6_2 C 0.0724(3) -0.5852(3) -0.2295(2)
H3_2 H 0.0401 -0.6319 -0.1771
C7_2 C 0.1445(3) -0.6519(3) -0.3023(2)
H4_2 H 0.1633 -0.7426 -0.2971
C8_2 C -0.0280(3) -0.3784(3) -0.1511(2)
H5_2 H -0.0992 -0.3145 -0.1841
H6_2 H -0.0883 -0.4424 -0.1197
C9_2 C 0.0454(2) -0.2238(2) 0.00443(18)
C10_2 C -0.1108(2) -0.2089(2) 0.00945(18)
H7_2 H -0.1903 -0.2606 -0.0383
C11_2 C -0.3206(3) -0.1052(3) 0.0878(2)
C12_2 C -0.1493(2) -0.1171(2) 0.08554(18)
C13_2 C -0.0325(2) -0.0395(2) 0.15615(18)
H8_2 H -0.0592 0.0228 0.2066
C14_2 C 0.1258(2) -0.0542(2) 0.15215(18)
C15_2 C 0.1641(2) -0.1472(2) 0.07701(19)
H9_2 H 0.2695 -0.1586 0.0749
C16_2 C 0.2520(2) 0.0370(2) 0.22588(19)
C17A C 0.4976(2) 0.6520(3) -0.18689(19)
H10A H 0.4601 0.7330 -0.1640
C18A C 1.3452(3) -0.1849(3) 0.4469(2)
H11A H 1.3936 -0.2232 0.3943
C19A C 0.4339(3) 0.5129(3) -0.04477(19)
H12A H 0.3790 0.5899 -0.0232
H13A H 0.3590 0.4350 -0.0609
C20A C 1.3125(3) -0.1044(3) 0.5937(2)
H14A H 1.3289 -0.0724 0.6652
C21A C 1.0339(3) -0.0418(3) 0.5427(2)
H15A H 0.9592 -0.1163 0.5453
H16A H 1.0527 0.0122 0.6108
C22A C 0.5971(3) 0.5027(3) -0.2714(2)
H17A H 0.6440 0.4598 -0.3230
N1A N 0.5622(2) 0.6331(2) -0.27144(15)
N2A N 0.5595(3) 0.4412(2) -0.19286(19)
N3A N 0.4942(2) 0.5391(2) -0.13959(16)
N4A N 1.2003(3) -0.1458(3) 0.4266(2)
N5A N 1.4176(2) -0.1649(2) 0.54980(16)
N5A_2 N 0.4176(2) 0.8351(2) -0.45020(16)
N6A N 1.1816(2) -0.0943(2) 0.52480(18)
O1_2 O 0.2908(3) -0.7847(3) -0.4526(2)
O1A O 0.7092(3) 0.7847(3) -0.5474(2)
O2_2 O 0.3010(2) -0.6086(2) -0.53402(18)
O2A O 0.6990(2) 0.6086(2) -0.46598(18)
O3_2 O 0.09430(17) -0.30844(18) -0.07018(14)
O4_2 O -0.42536(18) -0.1734(2) 0.02938(15)
O5_2 O -0.34474(18) -0.0130(2) 0.16040(16)
H18_2 H -0.4398 -0.0104 0.1584
O6_2 O 0.39240(17) 0.0312(2) 0.21791(15)
O7_2 O 0.20815(16) 0.11908(16) 0.29115(13)
O7A O 0.79185(16) 0.88092(16) -0.29115(13)
loop_
_geom_bond_atom_site_label_1
_geom_bond_atom_site_label_2
_geom_bond_site_symmetry_1
_geom_bond_site_symmetry_2
Zn1 N1 1_555 1_555
C1 C2 1_555 1_555
C2 C3 1_555 1_555
C3 H1 1_555 1_555
C4 C3 1_555 1_555
H2 C4 1_555 1_555
C5 C4 1_555 1_555
C6 C5 1_555 1_555
H3 C6 1_555 1_555
C7 C2 1_555 1_555
H4 C7 1_555 1_555
C8 C5 1_555 1_555
H5 C8 1_555 1_555
H6 C8 1_555 1_555
C9 C10 1_555 1_555
C10 H7 1_555 1_555
C11 C12 1_555 1_555
C12 C10 1_555 1_555
C13 C12 1_555 1_555
H8 C13 1_555 1_555
C14 C13 1_555 1_555
C15 C9 1_555 1_555
H9 C15 1_555 1_555
C16 C14 1_555 1_555
C17 H10 1_555 1_555
C18 H11 1_555 1_555
C19 H12 1_555 1_555
H13 C19 1_555 1_555
C20 H14 1_555 1_555
C21 H15 1_555 1_555
H16 C21 1_555 1_555
C22 H17 1_555 1_555
N1 C17 1_555 1_555
N2 C22 1_555 1_555
N3 C17 1_555 1_555
N4 C18 1_555 1_555
N5 Zn1 1_555 1_555
N6 C20 1_555 1_555
O1 Zn1 1_555 1_555
O2 Zn1 1_555 1_555
O3 C8 1_555 1_555
O4 C11 1_555 1_555
O5 C11 1_555 1_555
H18 O5 1_555 1_555
O6 C16 1_555 1_555
O7 C16 1_555 1_555
Zn1A N1A 1_555 1_555
Zn1_2 O7 1_555 1_555
Zn1A_2 N5A 1_555 1_555
Zn1_3 O1_2 1_555 1_555
C1_2 C2_2 1_555 1_555
C2_2 C3_2 1_555 1_555
C3_2 H1_2 1_555 1_555
C4_2 C3_2 1_555 1_555
H2_2 C4_2 1_555 1_555
C5_2 C4_2 1_555 1_555
C6_2 C5_2 1_555 1_555
H3_2 C6_2 1_555 1_555
C7_2 C2_2 1_555 1_555
H4_2 C7_2 1_555 1_555
C8_2 C5_2 1_555 1_555
H5_2 C8_2 1_555 1_555
H6_2 C8_2 1_555 1_555
C9_2 C10_2 1_555 1_555
C10_2 H7_2 1_555 1_555
C11_2 C12_2 1_555 1_555
C12_2 C10_2 1_555 1_555
C13_2 C12_2 1_555 1_555
H8_2 C13_2 1_555 1_555
C14_2 C13_2 1_555 1_555
C15_2 C9_2 1_555 1_555
H9_2 C15_2 1_555 1_555
C16_2 C14_2 1_555 1_555
C17A H10A 1_555 1_555
C18A H11A 1_555 1_555
C19A C19 1_555 1_555
H12A C19A 1_555 1_555
H13A C19A 1_555 1_555
C20A H14A 1_555 1_555
C21A C21 1_555 1_555
H15A C21A 1_555 1_555
H16A C21A 1_555 1_555
C22A H17A 1_555 1_555
N1A C17A 1_555 1_555
N2A C22A 1_555 1_555
N3A C17A 1_555 1_555
N4A C18A 1_555 1_555
N5A C18A 1_555 1_555
N5A_2 Zn1A 1_555 1_555
N6A C20A 1_555 1_555
O1_2 C1_2 1_555 1_555
O1A Zn1A 1_555 1_555
O2_2 Zn1_3 1_555 1_555
O2A Zn1A 1_555 1_555
O3_2 C8_2 1_555 1_555
O4_2 C11_2 1_555 1_555
O5_2 C11_2 1_555 1_555
H18_2 O5_2 1_555 1_555
O6_2 C16_2 1_555 1_555
O7_2 Zn1 1_555 1_555
O7A Zn1A 1_555 1_555
C1 O1 1_555 1_555
C1 O2 1_555 1_555
C6 C7 1_555 1_555
C9 O3 1_555 1_555
C14 C15 1_555 1_555
C18 N5 1_555 1_555
C19 N3 1_555 1_555
C20 N5 1_555 1_555
C21 N6 1_555 1_555
C22 N1 1_555 1_555
N2 N3 1_555 1_555
N4 N6 1_555 1_555
C1_2 O2_2 1_555 1_555
C6_2 C7_2 1_555 1_555
C9_2 O3_2 1_555 1_555
C14_2 C15_2 1_555 1_555
C16_2 O7_2 1_555 1_555
C19A N3A 1_555 1_555
C20A N5A 1_555 1_555
C21A N6A 1_555 1_555
C22A N1A 1_555 1_555
N2A N3A 1_555 1_555
N4A N6A 1_555 1_555

#END
