
#######################################################################
#
#                 Cambridge Crystallographic Data Centre
#                                CCDC 
#
#######################################################################
#
# If this CIF has been generated from an entry in the Cambridge 
# Structural Database, then it will include bibliographic, chemical, 
# crystal, experimental, refinement or atomic coordinate data resulting 
# from the CCDC's data processing and validation procedures.
#
#######################################################################

data_FAHNIN
_symmetry_cell_setting           orthorhombic
_symmetry_space_group_name_H-M   'P 21 21 2'
_symmetry_Int_Tables_number      18
_space_group_name_Hall           'P 2 2ab'
loop_
_symmetry_equiv_pos_site_id
_symmetry_equiv_pos_as_xyz
1 x,y,z
2 -x,-y,z
3 1/2+x,1/2-y,-z
4 1/2-x,1/2+y,-z
_cell_length_a                   14.9780(5)
_cell_length_b                   32.6149(11)
_cell_length_c                   6.3668(2)
_cell_angle_alpha                90
_cell_angle_beta                 90
_cell_angle_gamma                90
_cell_volume                     3110.22
loop_
_atom_site_label
_atom_site_type_symbol
_atom_site_fract_x
_atom_site_fract_y
_atom_site_fract_z
Zn1 Zn 0.89589(2) 0.276565(8) -0.02057(5)
C1 C 0.92492(16) 0.22671(9) 0.3758(4)
H1 H 0.8748 0.2369 0.4444
C2 C 1.02784(17) 0.21688(9) 0.1644(4)
H2 H 1.0648 0.2197 0.0479
C3 C 0.9641(2) 0.17156(8) 0.6335(5)
H3 H 0.9194 0.1843 0.7225
H4 H 1.0205 0.1723 0.7083
C4 C 0.93807(18) 0.12730(9) 0.5971(5)
C5 C 0.8985(2) 0.11386(8) 0.4172(4)
H5 H 0.8871 0.1323 0.3089
C6 C 0.8749(2) 0.07280(8) 0.3941(4)
H6 H 0.8485 0.0641 0.2697
C7 C 0.8902(2) 0.04497(8) 0.5522(5)
C8 C 0.9296(2) 0.05896(9) 0.7340(5)
H7 H 0.9401 0.0409 0.8442
C9 C 0.9537(2) 0.09975(9) 0.7544(5)
H8 H 0.9812 0.1085 0.8775
C10 C 0.86380(16) 0.00080(8) 0.5286(5)
C11 C 0.8771(2) -0.01990(9) 0.3437(5)
H9 H 0.9034 -0.0064 0.2308
C12 C 0.8520(2) -0.06062(9) 0.3223(5)
H10 H 0.8622 -0.0742 0.1962
C13 C 0.81210(15) -0.08105(7) 0.4873(5)
C14 C 0.7983(2) -0.06085(9) 0.6679(5)
H11 H 0.7709 -0.0743 0.7793
C15 C 0.82422(19) -0.02012(9) 0.6920(5)
H12 H 0.8147 -0.0069 0.8195
C16 C 0.78382(17) -0.12512(7) 0.4502(4)
H13 H 0.7343 -0.1254 0.3520
H14 H 0.8330 -0.1398 0.3856
C17 C 0.76975(18) -0.17676(7) 0.9252(4)
H15 H 0.7931 -0.1870 1.0500
C18 C 0.67935(18) -0.16361(8) 0.6842(5)
H16 H 0.6287 -0.1616 0.6005
C19 C 0.5107(2) 0.19866(10) -0.7139(5)
C20 C 0.57683(15) 0.18838(7) -0.5477(4)
C21 C 0.63928(13) 0.21757(7) -0.4857(4)
H17 H 0.6431 0.2424 -0.5567
C22 C 0.69562(17) 0.20957(8) -0.3187(4)
C23 C 0.76203(18) 0.24181(8) -0.2525(5)
C24 C 0.69015(17) 0.17245(8) -0.2135(4)
H18 H 0.7270 0.1673 -0.0989
C25 C 0.62998(18) 0.14310(8) -0.2788(5)
C26 C 0.57328(16) 0.15099(7) -0.4440(4)
H19 H 0.5324 0.1312 -0.4864
C27 C 0.66691(17) 0.09662(7) -0.0045(5)
H20 H 0.6502 0.1155 0.1064
H21 H 0.7305 0.0993 -0.0297
C28 C 0.64505(17) 0.05329(8) 0.0595(5)
C29 C 0.6278(2) 0.02423(9) -0.0871(5)
H22 H 0.6280 0.0313 -0.2285
C30 C 0.6096(2) -0.01650(8) -0.0286(5)
H23 H 0.5975 -0.0360 -0.1314
C31 C 0.6097(2) -0.02757(8) 0.1768(5)
C32 C 0.58972(19) -0.07001(9) 0.2507(6)
C33 C 0.6247(2) 0.00182(9) 0.3242(5)
H24 H 0.6227 -0.0051 0.4659
C34 C 0.64280(19) 0.04219(9) 0.2654(5)
H25 H 0.6535 0.0618 0.3684
N1 N 0.97267(16) 0.19531(6) 0.4432(4)
N2 N 0.95714(14) 0.24176(6) 0.1990(4)
N3 N 1.04053(15) 0.18826(7) 0.3082(4)
N4 N 0.75710(16) -0.14675(6) 0.6404(4)
N5 N 0.81638(15) -0.15472(7) 0.7958(4)
N6 N 0.68360(14) -0.18371(6) 0.8638(4)
O1 O 0.81056(12) 0.23297(5) -0.0973(3)
O2 O 0.76730(12) 0.27455(6) -0.3481(3)
O3 O 0.50508(13) 0.23473(6) -0.7762(3)
O4 O 0.45826(13) 0.17245(6) -0.7876(3)
O5 O 0.61933(14) 0.10558(5) -0.1878(3)
O6 O 0.58096(14) -0.09585(5) 0.0918(3)
H26 H 0.5700 -0.1188 0.1371
O7 O 0.58221(14) -0.07951(6) 0.4306(4)
Zn1C Zn 0.60411(2) -0.223435(8) 1.02057(5)
Zn1B Zn 0.39589(2) 0.223435(8) -0.97943(5)
N6C N 0.81640(14) 0.31629(6) 0.1362(4)
O3B O 1.00508(13) 0.26527(6) -0.2238(3)
O4B O 0.95826(13) 0.32755(6) -0.2124(3)
loop_
_geom_bond_atom_site_label_1
_geom_bond_atom_site_label_2
_geom_bond_site_symmetry_1
_geom_bond_site_symmetry_2
Zn1 N2 1_555 1_555
C1 H1 1_555 1_555
C2 H2 1_555 1_555
C3 H3 1_555 1_555
H4 C3 1_555 1_555
C4 C3 1_555 1_555
C5 C4 1_555 1_555
H5 C5 1_555 1_555
C6 C5 1_555 1_555
H6 C6 1_555 1_555
C7 C6 1_555 1_555
C8 C7 1_555 1_555
H7 C8 1_555 1_555
C9 C4 1_555 1_555
H8 C9 1_555 1_555
C10 C7 1_555 1_555
C11 C10 1_555 1_555
H9 C11 1_555 1_555
C12 C11 1_555 1_555
H10 C12 1_555 1_555
C13 C12 1_555 1_555
C14 C13 1_555 1_555
H11 C14 1_555 1_555
C15 C10 1_555 1_555
H12 C15 1_555 1_555
C16 C13 1_555 1_555
H13 C16 1_555 1_555
H14 C16 1_555 1_555
C17 H15 1_555 1_555
C18 H16 1_555 1_555
C19 C20 1_555 1_555
C20 C21 1_555 1_555
C21 H17 1_555 1_555
C22 C21 1_555 1_555
C23 C22 1_555 1_555
C24 C22 1_555 1_555
H18 C24 1_555 1_555
C25 C24 1_555 1_555
C26 C20 1_555 1_555
H19 C26 1_555 1_555
C27 H20 1_555 1_555
H21 C27 1_555 1_555
C28 C27 1_555 1_555
C29 C28 1_555 1_555
H22 C29 1_555 1_555
C30 C29 1_555 1_555
H23 C30 1_555 1_555
C31 C30 1_555 1_555
C32 C31 1_555 1_555
C33 C31 1_555 1_555
H24 C33 1_555 1_555
C34 C28 1_555 1_555
H25 C34 1_555 1_555
N1 C1 1_555 1_555
N2 C1 1_555 1_555
N3 C2 1_555 1_555
N4 C16 1_555 1_555
N5 C17 1_555 1_555
N6 C17 1_555 1_555
O1 Zn1 1_555 1_555
O2 C23 1_555 1_555
O3 C19 1_555 1_555
O4 C19 1_555 1_555
O5 C25 1_555 1_555
O6 C32 1_555 1_555
H26 O6 1_555 1_555
O7 C32 1_555 1_555
Zn1C N6 1_555 1_555
Zn1B O3 1_555 1_555
N6C Zn1 1_555 1_555
O3B Zn1 1_555 1_555
O4B Zn1 1_555 1_555
C2 N2 1_555 1_555
C3 N1 1_555 1_555
C8 C9 1_555 1_555
C14 C15 1_555 1_555
C18 N4 1_555 1_555
C18 N6 1_555 1_555
C23 O1 1_555 1_555
C25 C26 1_555 1_555
C27 O5 1_555 1_555
C33 C34 1_555 1_555
N1 N3 1_555 1_555
N4 N5 1_555 1_555
O4 Zn1B 1_555 1_555

#END
