
#######################################################################
#
#                 Cambridge Crystallographic Data Centre
#                                CCDC 
#
#######################################################################
#
# If this CIF has been generated from an entry in the Cambridge 
# Structural Database, then it will include bibliographic, chemical, 
# crystal, experimental, refinement or atomic coordinate data resulting 
# from the CCDC's data processing and validation procedures.
#
#######################################################################

data_FAHNEJ
_symmetry_cell_setting           monoclinic
_symmetry_space_group_name_H-M   'P 21/c'
_symmetry_Int_Tables_number      14
_space_group_name_Hall           '-P 2ybc'
loop_
_symmetry_equiv_pos_site_id
_symmetry_equiv_pos_as_xyz
1 x,y,z
2 -x,1/2+y,1/2-z
3 -x,-y,-z
4 x,1/2-y,1/2+z
_cell_length_a                   15.1240(7)
_cell_length_b                   13.8252(5)
_cell_length_c                   9.5104(4)
_cell_angle_alpha                90
_cell_angle_beta                 102.674(4)
_cell_angle_gamma                90
_cell_volume                     1940.1
loop_
_atom_site_label
_atom_site_type_symbol
_atom_site_fract_x
_atom_site_fract_y
_atom_site_fract_z
Zn1 Zn 0.974070(16) 0.288370(15) 0.95179(2)
C1 C 0.93562(12) -0.19591(13) 0.7870(2)
C2 C 0.88147(12) -0.13383(12) 0.86642(19)
C3 C 0.81864(13) -0.17642(14) 0.9336(2)
H1 H 0.8107 -0.2432 0.9303
C4 C 0.76753(13) -0.11891(13) 1.0060(2)
C5 C 0.78279(13) -0.01995(13) 1.0167(2)
H2 H 0.7495 0.0185 1.0666
C6 C 0.84810(12) 0.02181(12) 0.95270(19)
C7 C 0.89539(12) -0.03479(13) 0.87424(19)
H3 H 0.9364 -0.0064 0.8269
C8 C 0.86900(13) 0.12802(13) 0.9740(2)
C9 C 0.64597(13) -0.10419(14) 1.1238(2)
H4 H 0.6202 -0.0550 1.0541
H5 H 0.6818 -0.0719 1.2078
C10 C 0.57095(13) -0.15957(14) 1.1668(2)
C11 C 0.58400(14) -0.24791(15) 1.2349(2)
H6 H 0.6406 -0.2775 1.2511
C12 C 0.48656(15) -0.11787(15) 1.1449(3)
H7 H 0.4770 -0.0582 1.0989
C13 C 0.41529(15) -0.16229(15) 1.1895(2)
H8 H 0.3589 -0.1323 1.1746
C14 C 0.42843(14) -0.25072(14) 1.2559(2)
C15 C 0.51311(15) -0.29260(15) 1.2789(2)
H9 H 0.5227 -0.3522 1.3251
C16 C 0.35390(15) -0.30352(16) 1.3034(2)
C17 C 0.83606(14) 0.41420(15) 1.0421(2)
H10 H 0.8275 0.3704 1.1121
C18 C 0.88317(14) 0.48464(14) 0.8786(2)
H11 H 0.9167 0.4981 0.8098
C19 C 0.71302(14) 0.53201(17) 1.0632(2)
H12 H 0.7070 0.6010 1.0451
H13 H 0.7236 0.5220 1.1665
C20 C 0.62633(14) 0.48214(15) 0.9908(2)
H14 H 0.6302 0.4143 1.0173
H15 H 0.6194 0.4862 0.8871
C21 C 0.54336(13) 0.52642(16) 1.0322(2)
H16 H 0.5522 0.5261 1.1363
H17 H 0.5376 0.5933 1.0004
N1 N 0.89553(11) 0.40371(11) 0.96015(17)
N2 N 0.79068(11) 0.49545(12) 1.01065(18)
N3 N 0.82024(12) 0.54237(13) 0.90445(19)
O1 O 0.96621(9) -0.27518(9) 0.84007(13)
O2 O 0.94667(9) -0.16271(9) 0.66828(13)
O3 O 0.70334(9) -0.16599(9) 1.06260(15)
O4 O 0.35815(11) -0.38774(11) 1.3335(2)
O5 O 0.28351(11) -0.24892(11) 1.30983(19)
H18 H 0.2450 -0.2817 1.3365
O6 O 0.83949(10) 0.17484(10) 1.06435(17)
O7 O 0.92053(9) 0.16299(9) 0.89692(14)
Zn1B Zn 0.025930(16) 0.711630(15) 1.04821(2)
Zn1_2 Zn -0.025930(16) 1.288370(15) 0.95179(2)
Zn1A Zn 1.025930(16) -0.211630(15) 0.54821(2)
Zn1B_2 Zn 1.025930(16) -0.288370(15) 1.04821(2)
Zn1C Zn -0.025930(16) 1.211630(15) 1.45179(2)
C1B C 0.06438(12) 1.19591(13) 1.2130(2)
C2B C 0.11853(12) 1.13383(12) 1.13358(19)
C3B C 0.18136(13) 1.17642(14) 1.0664(2)
H1B H 0.1893 1.2432 1.0697
C4B C 0.23247(13) 1.11891(13) 0.9940(2)
C5B C 0.21721(13) 1.01995(13) 0.9833(2)
H2B H 0.2505 0.9815 0.9334
C6B C 0.15190(12) 0.97819(12) 1.04730(19)
C7B C 0.10461(12) 1.03479(13) 1.12576(19)
H3B H 0.0636 1.0064 1.1731
C8B C 0.13100(13) 0.87198(13) 1.0260(2)
C9B C 0.35403(13) 1.10419(14) 0.8762(2)
H4B H 0.3798 1.0550 0.9459
H5B H 0.3182 1.0719 0.7922
C10B C 0.42905(13) 1.15957(14) 0.8332(2)
C11B C 0.41600(14) 1.24791(15) 0.7651(2)
H6B H 0.3594 1.2775 0.7489
C12B C 0.51344(15) 1.11787(15) 0.8551(3)
H7B H 0.5230 1.0582 0.9011
C13B C 0.58471(15) 1.16229(15) 0.8105(2)
H8B H 0.6411 1.1323 0.8254
C14B C 0.57157(14) 1.25072(14) 0.7441(2)
C15B C 0.48689(15) 1.29260(15) 0.7211(2)
H9B H 0.4773 1.3522 0.6749
C16B C 0.64610(15) 1.30352(16) 0.6966(2)
C17B C 0.16394(14) 0.58580(15) 0.9579(2)
H10B H 0.1725 0.6296 0.8879
C18B C 0.11683(14) 0.51536(14) 1.1214(2)
H11B H 0.0833 0.5019 1.1902
C19B C 0.28698(14) 0.46799(17) 0.9368(2)
H12B H 0.2930 0.3990 0.9549
H13B H 0.2764 0.4780 0.8335
C20B C 0.37367(14) 0.51786(15) 1.0092(2)
H14B H 0.3698 0.5857 0.9827
H15B H 0.3806 0.5138 1.1129
C21B C 0.45664(13) 0.47358(16) 0.9678(2)
H16B H 0.4478 0.4739 0.8637
H17B H 0.4624 0.4067 0.9996
N1B N 0.10447(11) 0.59629(11) 1.03985(17)
N2B N 0.20932(11) 0.50455(12) 0.98935(18)
N3B N 0.17976(12) 0.45763(13) 1.09555(19)
O1B O 0.03379(9) 1.27518(9) 1.15993(13)
O1_2 O -0.03379(9) 0.72482(9) 0.84007(13)
O1B_2 O 1.03379(9) 0.27518(9) 1.15993(13)
O2B O 0.05333(9) 1.16271(9) 1.33172(13)
O2A O 1.05333(9) 0.33729(9) 0.83172(13)
O2C O -0.05333(9) 0.66271(9) 1.16828(13)
O3B O 0.29666(9) 1.16599(9) 0.93740(15)
O4B O 0.64185(11) 1.38774(11) 0.6665(2)
O5B O 0.71649(11) 1.24892(11) 0.69017(19)
H18B H 0.7550 1.2817 0.6635
O6B O 0.16051(10) 0.82516(10) 0.93565(17)
O7B O 0.07947(9) 0.83701(9) 1.10308(14)
loop_
_geom_bond_atom_site_label_1
_geom_bond_atom_site_label_2
_geom_bond_site_symmetry_1
_geom_bond_site_symmetry_2
Zn1 N1 1_555 1_555
C1 C2 1_555 1_555
C2 C3 1_555 1_555
C3 H1 1_555 1_555
C4 C3 1_555 1_555
C5 C4 1_555 1_555
H2 C5 1_555 1_555
C6 C5 1_555 1_555
C7 C2 1_555 1_555
H3 C7 1_555 1_555
C8 C6 1_555 1_555
C9 H4 1_555 1_555
H5 C9 1_555 1_555
C10 C9 1_555 1_555
C11 C10 1_555 1_555
H6 C11 1_555 1_555
C12 C10 1_555 1_555
H7 C12 1_555 1_555
C13 C12 1_555 1_555
H8 C13 1_555 1_555
C14 C13 1_555 1_555
C15 C11 1_555 1_555
H9 C15 1_555 1_555
C16 C14 1_555 1_555
C17 H10 1_555 1_555
C18 H11 1_555 1_555
C19 H12 1_555 1_555
H13 C19 1_555 1_555
C20 C19 1_555 1_555
H14 C20 1_555 1_555
H15 C20 1_555 1_555
C21 C20 1_555 1_555
H16 C21 1_555 1_555
H17 C21 1_555 1_555
N1 C17 1_555 1_555
N2 C17 1_555 1_555
N3 C18 1_555 1_555
O1 C1 1_555 1_555
O2 C1 1_555 1_555
O3 C4 1_555 1_555
O4 C16 1_555 1_555
O5 C16 1_555 1_555
H18 O5 1_555 1_555
O6 C8 1_555 1_555
O7 Zn1 1_555 1_555
Zn1B N1B 1_555 1_555
Zn1_2 O1B 1_555 1_555
Zn1A O2 1_555 1_555
Zn1B_2 O1 1_555 1_555
Zn1C O2B 1_555 1_555
C1B C2B 1_555 1_555
C2B C3B 1_555 1_555
C3B H1B 1_555 1_555
C4B C3B 1_555 1_555
C5B C4B 1_555 1_555
H2B C5B 1_555 1_555
C6B C5B 1_555 1_555
C7B C2B 1_555 1_555
H3B C7B 1_555 1_555
C8B C6B 1_555 1_555
C9B H4B 1_555 1_555
H5B C9B 1_555 1_555
C10B C9B 1_555 1_555
C11B C10B 1_555 1_555
H6B C11B 1_555 1_555
C12B C10B 1_555 1_555
H7B C12B 1_555 1_555
C13B C12B 1_555 1_555
H8B C13B 1_555 1_555
C14B C13B 1_555 1_555
C15B C11B 1_555 1_555
H9B C15B 1_555 1_555
C16B C14B 1_555 1_555
C17B H10B 1_555 1_555
C18B H11B 1_555 1_555
C19B H12B 1_555 1_555
H13B C19B 1_555 1_555
C20B C19B 1_555 1_555
H14B C20B 1_555 1_555
H15B C20B 1_555 1_555
C21B C21 1_555 1_555
H16B C21B 1_555 1_555
H17B C21B 1_555 1_555
N1B C17B 1_555 1_555
N2B C17B 1_555 1_555
N3B C18B 1_555 1_555
O1B C1B 1_555 1_555
O1_2 Zn1B 1_555 1_555
O1B_2 Zn1 1_555 1_555
O2B C1B 1_555 1_555
O2A Zn1 1_555 1_555
O2C Zn1B 1_555 1_555
O3B C4B 1_555 1_555
O4B C16B 1_555 1_555
O5B C16B 1_555 1_555
H18B O5B 1_555 1_555
O6B C8B 1_555 1_555
O7B Zn1B 1_555 1_555
C6 C7 1_555 1_555
C8 O7 1_555 1_555
C9 O3 1_555 1_555
C14 C15 1_555 1_555
C18 N1 1_555 1_555
C19 N2 1_555 1_555
N2 N3 1_555 1_555
C6B C7B 1_555 1_555
C8B O7B 1_555 1_555
C9B O3B 1_555 1_555
C14B C15B 1_555 1_555
C18B N1B 1_555 1_555
C19B N2B 1_555 1_555
C20B C21B 1_555 1_555
N2B N3B 1_555 1_555

#END
