
#######################################################################
#
#                 Cambridge Crystallographic Data Centre
#                                CCDC 
#
#######################################################################
#
# If this CIF has been generated from an entry in the Cambridge 
# Structural Database, then it will include bibliographic, chemical, 
# crystal, experimental, refinement or atomic coordinate data resulting 
# from the CCDC's data processing and validation procedures.
#
#######################################################################

data_FAHNAF
_symmetry_cell_setting           triclinic
_symmetry_space_group_name_H-M   'P -1'
_symmetry_Int_Tables_number      2
_space_group_name_Hall           '-P 1'
loop_
_symmetry_equiv_pos_site_id
_symmetry_equiv_pos_as_xyz
1 x,y,z
2 -x,-y,-z
_cell_length_a                   11.8109(6)
_cell_length_b                   13.7859(5)
_cell_length_c                   16.9387(6)
_cell_angle_alpha                67.887(4)
_cell_angle_beta                 87.405(4)
_cell_angle_gamma                71.034(4)
_cell_volume                     2407.07
loop_
_atom_site_label
_atom_site_type_symbol
_atom_site_fract_x
_atom_site_fract_y
_atom_site_fract_z
Zn1 Zn 0.67467(2) 0.202377(19) 0.203323(18)
Zn2 Zn 0.84193(3) 0.820307(19) 0.289191(18)
C1 C 1.0005(3) -0.5487(2) -0.13149(19)
C2 C 0.9313(3) -0.44062(19) -0.12492(18)
C3 C 0.8087(3) -0.4037(2) -0.1312(2)
H1 H 0.7670 -0.4492 -0.1343
C4 C 0.7456(3) -0.2977(2) -0.1329(2)
H2 H 0.6620 -0.2729 -0.1376
C5 C 0.8058(2) -0.22970(19) -0.12777(18)
C6 C 0.9314(3) -0.2700(2) -0.1182(2)
H3 H 0.9732 -0.2266 -0.1113
C7 C 0.9937(3) -0.3723(2) -0.11888(19)
H4 H 1.0773 -0.3966 -0.1153
C8 C 0.7385(3) -0.11563(18) -0.13073(19)
H5 H 0.7603 -0.0613 -0.1790
H6 H 0.6529 -0.1009 -0.1388
C9 C 0.8801(2) 0.01940(15) -0.11576(15)
H7 H 0.9033 -0.0078 -0.1587
C10 C 0.8044(2) -0.02099(16) -0.05727(15)
C11 C 0.7707(2) 0.02011(15) 0.00676(14)
H8 H 0.7182 -0.0054 0.0452
C12 C 0.81411(19) 0.09841(15) 0.01394(14)
C13 C 0.88901(19) 0.13873(15) -0.04487(14)
H9 H 0.9180 0.1919 -0.0405
C14 C 0.9215(2) 0.10072(15) -0.11046(14)
C15 C 1.0037(2) 0.14568(16) -0.17218(15)
C16 C 0.7804(2) 0.14304(16) 0.08352(15)
C17 C 0.6598(2) 0.43320(18) 0.07238(16)
H10 H 0.7284 0.4031 0.0488
C18 C 0.5175(2) 0.44504(17) 0.15151(16)
H11 H 0.4652 0.4291 0.1934
C19 C 0.4175(2) 0.65241(18) 0.08598(18)
H12 H 0.3456 0.6392 0.1107
H13 H 0.3965 0.6978 0.0255
C20 C 0.4593(2) 0.71588(18) 0.12822(17)
H14 H 0.4965 0.6653 0.1851
H15 H 0.3897 0.7730 0.1344
C21 C 0.5479(2) 0.76976(19) 0.07893(18)
H16 H 0.6147 0.7143 0.0681
H17 H 0.5088 0.8262 0.0242
C22 C 0.5899(2) 0.92121(18) 0.19259(17)
H18 H 0.5643 0.9761 0.2150
C23 C 0.7012(2) 0.78751(17) 0.16491(16)
H19 H 0.7663 0.7294 0.1617
C24 C 0.8632(2) 0.58251(18) 0.41211(16)
H20 H 0.7923 0.6090 0.4351
C25 C 1.0092(2) 0.58006(17) 0.33703(16)
H21 H 1.0637 0.5998 0.2980
C26 C 1.0609(2) 0.30852(18) 0.35288(17)
H22 H 1.0192 0.3591 0.2972
H23 H 1.1283 0.2516 0.3443
C27 C 0.9764(2) 0.25463(19) 0.40705(17)
H24 H 1.0194 0.1992 0.4610
H25 H 0.9117 0.3103 0.4194
C28 C 1.1085(2) 0.37203(18) 0.39182(18)
H26 H 1.1367 0.3258 0.4513
H27 H 1.1766 0.3879 0.3622
C29 C 0.8224(2) 0.24271(18) 0.31841(16)
H28 H 0.7646 0.3110 0.3104
C30 C 0.9169(3) 0.0883(2) 0.31418(19)
H29 H 0.9366 0.0257 0.3007
C31 C 0.2829(2) 0.14030(17) 0.58456(16)
C32 C 0.3206(2) 0.10697(16) 0.50980(14)
C33 C 0.3953(2) 0.15579(15) 0.45552(15)
H30 H 0.4233 0.2049 0.4676
C34 C 0.4285(2) 0.13223(16) 0.38349(15)
C35 C 0.3884(2) 0.05739(16) 0.36725(15)
H31 H 0.4101 0.0412 0.3190
C36 C 0.3162(2) 0.00649(17) 0.42211(16)
C37 C 0.2803(2) 0.03270(16) 0.49279(15)
H32 H 0.2294 0.0004 0.5286
C38 C 0.5104(2) 0.18356(17) 0.32552(16)
C39 C 0.2373(3) -0.14226(18) 0.46134(18)
H33 H 0.2766 -0.1679 0.5180
H34 H 0.1521 -0.1059 0.4623
C40 C 0.2576(2) -0.23834(18) 0.43362(19)
C41 C 0.2229(3) -0.2189(2) 0.3507(2)
H35 H 0.1795 -0.1472 0.3138
C42 C 0.2517(2) -0.3042(2) 0.32191(19)
H36 H 0.2298 -0.2898 0.2655
C43 C 0.3136(2) -0.41171(19) 0.37745(18)
C44 C 0.3436(2) -0.43250(19) 0.46121(18)
H37 H 0.3828 -0.5049 0.4989
C45 C 0.3153(2) -0.34581(19) 0.48964(17)
H38 H 0.3354 -0.3602 0.5464
C46 C 0.3520(3) -0.5022(2) 0.3435(2)
N1 N 0.81145(17) 0.17223(14) 0.28522(12)
N2 N 0.9892(2) 0.10120(16) 0.36227(16)
N3 N 0.92597(19) 0.20233(15) 0.36399(13)
N4 N 1.01738(18) 0.47663(14) 0.38691(13)
N5 N 0.92369(19) 0.47678(14) 0.43594(14)
N6 N 0.91164(17) 0.65091(13) 0.35129(12)
N7 N 0.5192(2) 0.90819(15) 0.14426(15)
N8 N 0.70430(17) 0.84889(13) 0.20839(12)
N9 N 0.5930(2) 0.82020(15) 0.12682(14)
N10 N 0.50830(19) 0.54556(14) 0.09548(13)
N11 N 0.5998(2) 0.53966(15) 0.04434(14)
N12 N 0.61299(17) 0.37053(13) 0.13884(12)
O1 O 0.93675(19) -0.61489(14) -0.11799(14)
H39 H 0.9784 -0.6731 -0.1221
O2 O 1.1038(2) -0.57075(16) -0.15032(16)
O3 O 0.76459(17) -0.10469(12) -0.05393(11)
O4 O 1.04267(14) 0.10388(11) -0.22730(10)
O5 O 1.03266(15) 0.22384(11) -0.16908(11)
O6 O 0.69612(15) 0.11970(11) 0.12783(10)
O7 O 0.83162(16) 0.20275(13) 0.09325(11)
O8 O 0.19882(15) 0.11094(11) 0.62504(10)
O9 O 0.33132(17) 0.19809(13) 0.60168(11)
O10 O 0.53637(15) 0.26014(12) 0.33379(11)
O11 O 0.54995(14) 0.14639(12) 0.26776(11)
O12 O 0.28763(17) -0.06876(13) 0.40037(12)
O13 O 0.3135(2) -0.49079(16) 0.27463(16)
O14 O 0.42970(19) -0.59343(14) 0.39570(13)
H40 H 0.4475 -0.6402 0.3743
Zn2A Zn 1.15807(3) 0.179693(19) -0.289191(18)
Zn2A_2 Zn 0.15807(3) 0.179693(19) 0.710809(18)
O4A O 0.95733(14) 0.89612(11) 0.22730(10)
O8A O 0.80118(15) 0.88906(11) 0.37496(10)
O15 O 1.2855(3) -0.50243(17) -0.2743(2)
H41 H 1.241(4) -0.518(3) -0.232(2)
H42 H 1.326(4) -0.548(3) -0.295(3)
O16 O 0.5689(2) 0.67486(18) 0.34220(17)
H43 H 0.580(4) 0.724(3) 0.361(2)
H44 H 0.493(2) 0.704(3) 0.351(3)
loop_
_geom_bond_atom_site_label_1
_geom_bond_atom_site_label_2
_geom_bond_site_symmetry_1
_geom_bond_site_symmetry_2
Zn1 N1 1_555 1_555
Zn2 N6 1_555 1_555
C1 C2 1_555 1_555
C2 C3 1_555 1_555
C3 H1 1_555 1_555
C4 C3 1_555 1_555
H2 C4 1_555 1_555
C5 C4 1_555 1_555
C6 C5 1_555 1_555
H3 C6 1_555 1_555
C7 C2 1_555 1_555
H4 C7 1_555 1_555
C8 C5 1_555 1_555
H5 C8 1_555 1_555
H6 C8 1_555 1_555
C9 H7 1_555 1_555
C10 C9 1_555 1_555
C11 C10 1_555 1_555
H8 C11 1_555 1_555
C12 C11 1_555 1_555
C13 C12 1_555 1_555
H9 C13 1_555 1_555
C14 C9 1_555 1_555
C15 C14 1_555 1_555
C16 C12 1_555 1_555
C17 H10 1_555 1_555
C18 H11 1_555 1_555
C19 H12 1_555 1_555
H13 C19 1_555 1_555
C20 C19 1_555 1_555
H14 C20 1_555 1_555
H15 C20 1_555 1_555
C21 C20 1_555 1_555
H16 C21 1_555 1_555
H17 C21 1_555 1_555
C22 H18 1_555 1_555
C23 H19 1_555 1_555
C24 H20 1_555 1_555
C25 H21 1_555 1_555
C26 H22 1_555 1_555
H23 C26 1_555 1_555
C27 C26 1_555 1_555
H24 C27 1_555 1_555
H25 C27 1_555 1_555
C28 C26 1_555 1_555
H26 C28 1_555 1_555
H27 C28 1_555 1_555
C29 H28 1_555 1_555
C30 H29 1_555 1_555
C31 C32 1_555 1_555
C32 C33 1_555 1_555
C33 H30 1_555 1_555
C34 C33 1_555 1_555
C35 C34 1_555 1_555
H31 C35 1_555 1_555
C36 C35 1_555 1_555
C37 C32 1_555 1_555
H32 C37 1_555 1_555
C38 C34 1_555 1_555
C39 H33 1_555 1_555
H34 C39 1_555 1_555
C40 C39 1_555 1_555
C41 C40 1_555 1_555
H35 C41 1_555 1_555
C42 C41 1_555 1_555
H36 C42 1_555 1_555
C43 C42 1_555 1_555
C44 C43 1_555 1_555
H37 C44 1_555 1_555
C45 C40 1_555 1_555
H38 C45 1_555 1_555
C46 C43 1_555 1_555
N1 C29 1_555 1_555
N2 C30 1_555 1_555
N3 C27 1_555 1_555
N4 C25 1_555 1_555
N5 C24 1_555 1_555
N6 C24 1_555 1_555
N7 C22 1_555 1_555
N8 Zn2 1_555 1_555
N9 C21 1_555 1_555
N10 C18 1_555 1_555
N11 C17 1_555 1_555
N12 Zn1 1_555 1_555
O1 C1 1_555 1_555
H39 O1 1_555 1_555
O2 C1 1_555 1_555
O3 C8 1_555 1_555
O4 C15 1_555 1_555
O5 C15 1_555 1_555
O6 Zn1 1_555 1_555
O7 C16 1_555 1_555
O8 C31 1_555 1_555
O9 C31 1_555 1_555
O10 C38 1_555 1_555
O11 Zn1 1_555 1_555
O12 C36 1_555 1_555
O13 C46 1_555 1_555
O14 C46 1_555 1_555
H40 O14 1_555 1_555
O15 H41 1_555 1_555
H42 O15 1_555 1_555
O16 H43 1_555 1_555
H44 O16 1_555 1_555
Zn2A O4 1_555 1_555
Zn2A_2 O8 1_555 1_555
O4A Zn2 1_555 1_555
O8A Zn2 1_555 1_555
C6 C7 1_555 1_555
C10 O3 1_555 1_555
C13 C14 1_555 1_555
C16 O6 1_555 1_555
C17 N12 1_555 1_555
C18 N12 1_555 1_555
C19 N10 1_555 1_555
C22 N8 1_555 1_555
C23 N8 1_555 1_555
C23 N9 1_555 1_555
C25 N6 1_555 1_555
C28 N4 1_555 1_555
C29 N3 1_555 1_555
C30 N1 1_555 1_555
C36 C37 1_555 1_555
C38 O11 1_555 1_555
C39 O12 1_555 1_555
C44 C45 1_555 1_555
N2 N3 1_555 1_555
N4 N5 1_555 1_555
N7 N9 1_555 1_555
N10 N11 1_555 1_555

#END
