
#######################################################################
#
#                 Cambridge Crystallographic Data Centre
#                                CCDC 
#
#######################################################################
#
# If this CIF has been generated from an entry in the Cambridge 
# Structural Database, then it will include bibliographic, chemical, 
# crystal, experimental, refinement or atomic coordinate data resulting 
# from the CCDC's data processing and validation procedures.
#
#######################################################################

data_FAHPUB
_symmetry_cell_setting           monoclinic
_symmetry_space_group_name_H-M   'P 21/n'
_symmetry_Int_Tables_number      14
_space_group_name_Hall           '-P 2yn'
loop_
_symmetry_equiv_pos_site_id
_symmetry_equiv_pos_as_xyz
1 x,y,z
2 1/2-x,1/2+y,1/2-z
3 -x,-y,-z
4 1/2+x,1/2-y,1/2+z
_cell_length_a                   15.3310(2)
_cell_length_b                   17.9570(3)
_cell_length_c                   16.5330(3)
_cell_angle_alpha                90
_cell_angle_beta                 117.704(1)
_cell_angle_gamma                90
_cell_volume                     4029.73
loop_
_atom_site_label
_atom_site_type_symbol
_atom_site_fract_x
_atom_site_fract_y
_atom_site_fract_z
Co1 Co 0.76893(4) -0.05885(3) -0.16769(4)
Co2 Co 1.0000 0.0000 0.0000
O1 O 0.7367(2) 0.01819(19) -0.0946(2)
O2 O 0.8865(2) 0.03371(19) 0.0261(2)
O3 O 0.2711(3) 0.4640(2) 0.2473(2)
O4 O 0.4061(2) 0.51162(18) 0.3564(2)
O5 O 0.8215(2) -0.13624(17) -0.0675(2)
O6 O 0.9831(2) -0.11203(17) 0.0163(2)
O7 O 0.6219(3) -0.0849(2) -0.2319(3)
O8 O 0.7898(3) -0.1406(2) -0.2528(3)
N1 N 0.4668(4) -0.0392(4) -0.3013(4)
N2 N 0.8886(5) -0.2385(3) -0.2479(4)
C1 C 0.7953(4) 0.0435(3) -0.0174(4)
C2 C 0.7498(4) 0.0908(3) 0.0290(4)
C3 C 0.6502(4) 0.1046(3) -0.0132(4)
H1 H 0.6098 0.0841 -0.0719
C4 C 0.6077(4) 0.1480(4) 0.0282(4)
H2 H 0.5387 0.1568 -0.0016
C5 C 0.6672(5) 0.1791(4) 0.1147(5)
C6 C 0.7659(5) 0.1631(5) 0.1571(5)
H3 H 0.8068 0.1825 0.2164
C7 C 0.8074(5) 0.1186(4) 0.1142(5)
H4 H 0.8759 0.1078 0.1447
C8 C 0.6232(5) 0.2267(4) 0.1550(5)
C9 C 0.5830(5) 0.2670(4) 0.1844(5)
C10 C 0.5301(4) 0.3143(4) 0.2176(4)
C11 C 0.4344(5) 0.2956(4) 0.2010(4)
H5 H 0.4059 0.2498 0.1723
C12 C 0.3817(4) 0.3444(4) 0.2266(4)
H6 H 0.3161 0.3324 0.2136
C13 C 0.4238(4) 0.4105(3) 0.2711(3)
C14 C 0.5197(4) 0.4263(3) 0.2923(4)
H7 H 0.5498 0.4703 0.3255
C15 C 0.5728(4) 0.3790(4) 0.2658(4)
H8 H 0.6390 0.3908 0.2806
C16 C 0.3629(4) 0.4639(3) 0.2924(3)
C17 C 0.9103(4) -0.1545(2) -0.0192(3)
C18 C 0.9307(4) -0.2374(3) -0.0056(3)
C19 C 0.8572(4) -0.2880(3) -0.0548(4)
H9 H 0.7916 -0.2709 -0.0908
C20 C 0.8774(4) -0.3632(3) -0.0524(4)
H10 H 0.8265 -0.3970 -0.0886
C21 C 0.9714(4) -0.3893(3) 0.0021(3)
C22 C 1.0468(4) -0.3391(3) 0.0556(4)
H11 H 1.1113 -0.3568 0.0948
C23 C 1.0262(4) -0.2637(3) 0.0506(4)
H12 H 1.0772 -0.2295 0.0855
C24 C 0.9921(4) -0.4673(3) 0.0016(4)
C25 C 0.5637(5) -0.0333(4) -0.2680(5)
H13 H 0.5897 0.0136 -0.2724
C26 C 0.3991(7) 0.0226(6) -0.3502(7)
H14 H 0.4369 0.0648 -0.3551
H15 H 0.3639 0.0380 -0.3164
H16 H 0.3515 0.0060 -0.4115
C27 C 0.4219(7) -0.1075(6) -0.3015(8)
H17 H 0.4689 -0.1481 -0.2900
H18 H 0.3642 -0.1149 -0.3611
H19 H 0.4012 -0.1071 -0.2536
C28 C 0.8711(5) -0.1717(3) -0.2220(4)
H20 H 0.9259 -0.1460 -0.1759
C29 C 0.9821(6) -0.2714(5) -0.2057(6)
H21 H 1.0228 -0.2465 -0.1473
H22 H 1.0133 -0.2664 -0.2454
H23 H 0.9757 -0.3243 -0.1948
C30 C 0.8104(6) -0.2848(5) -0.3110(7)
H24 H 0.7472 -0.2663 -0.3178
H25 H 0.8206 -0.3361 -0.2879
H26 H 0.8099 -0.2839 -0.3705
Co1B Co 1.23107(4) 0.05885(3) 0.16769(4)
Co1C Co 0.26893(4) 0.55885(3) 0.33231(4)
Co1B_2 Co 1.23107(4) -0.94115(3) 0.16769(4)
Co1A Co 1.73107(4) -0.55885(3) -0.33231(4)
Co2A Co 0.5000 0.5000 0.5000
Co2_2 Co 1.0000 -1.0000 0.0000
Co2A_2 Co 1.5000 -0.5000 -0.5000
O1B O 1.2633(2) -0.01819(19) 0.0946(2)
O2B O 1.1135(2) -0.03371(19) -0.0261(2)
O3B O 1.7289(3) -0.4640(2) -0.2473(2)
O3C O 0.7711(3) 0.0360(2) -0.2527(2)
O3A O 1.2289(3) -0.0360(2) 0.2527(2)
O4B O 1.5939(2) -0.51162(18) -0.3564(2)
O4C O 0.9061(2) -0.01162(18) -0.1436(2)
O4A O 1.0939(2) 0.01162(18) 0.1436(2)
O5B O 1.1785(2) -0.86376(17) 0.0675(2)
O5B_2 O 1.1785(2) 0.13624(17) 0.0675(2)
O6B O 1.0169(2) -0.88797(17) -0.0163(2)
O6B_2 O 1.0169(2) 0.11203(17) -0.0163(2)
O7B O 1.3781(3) 0.0849(2) 0.2319(3)
O8B O 1.2102(3) 0.1406(2) 0.2528(3)
N1B N 1.5332(4) 0.0392(4) 0.3013(4)
N2B N 1.1114(5) 0.2385(3) 0.2479(4)
C1B C 1.2047(4) -0.0435(3) 0.0174(4)
C2B C 1.2502(4) -0.0908(3) -0.0290(4)
C3B C 1.3498(4) -0.1046(3) 0.0132(4)
H1B H 1.3902 -0.0841 0.0719
C4B C 1.3923(4) -0.1480(4) -0.0282(4)
H2B H 1.4613 -0.1568 0.0016
C5B C 1.3328(5) -0.1791(4) -0.1147(5)
C6B C 1.2341(5) -0.1631(5) -0.1571(5)
H3B H 1.1932 -0.1825 -0.2164
C7B C 1.1926(5) -0.1186(4) -0.1142(5)
H4B H 1.1241 -0.1078 -0.1447
C8B C 1.3768(5) -0.2267(4) -0.1550(5)
C9B C 1.4170(5) -0.2670(4) -0.1844(5)
C10B C 1.4699(4) -0.3143(4) -0.2176(4)
C11B C 1.5656(5) -0.2956(4) -0.2010(4)
H5B H 1.5941 -0.2498 -0.1723
C12B C 1.6183(4) -0.3444(4) -0.2266(4)
H6B H 1.6839 -0.3324 -0.2136
C13B C 1.5762(4) -0.4105(3) -0.2711(3)
C14B C 1.4803(4) -0.4263(3) -0.2923(4)
H7B H 1.4502 -0.4703 -0.3255
C15B C 1.4272(4) -0.3790(4) -0.2658(4)
H8B H 1.3610 -0.3908 -0.2806
C16B C 1.6371(4) -0.4639(3) -0.2924(3)
C17B C 1.0897(4) -0.8455(2) 0.0192(3)
C18B C 1.0693(4) -0.7626(3) 0.0056(3)
C19B C 1.1428(4) -0.7120(3) 0.0548(4)
H9B H 1.2084 -0.7291 0.0908
C20B C 1.1226(4) -0.6368(3) 0.0524(4)
H10B H 1.1735 -0.6030 0.0886
C21B C 1.0286(4) -0.6107(3) -0.0021(3)
C22B C 0.9532(4) -0.6609(3) -0.0556(4)
H11B H 0.8887 -0.6432 -0.0948
C23B C 0.9738(4) -0.7363(3) -0.0506(4)
H12B H 0.9228 -0.7705 -0.0855
C24B C 1.0079(4) -0.5327(3) -0.0016(4)
C25B C 1.4363(5) 0.0333(4) 0.2680(5)
H13B H 1.4103 -0.0136 0.2724
C26B C 1.6009(7) -0.0226(6) 0.3502(7)
H14B H 1.5631 -0.0648 0.3551
H15B H 1.6361 -0.0380 0.3164
H16B H 1.6485 -0.0060 0.4115
C27B C 1.5781(7) 0.1075(6) 0.3015(8)
H17B H 1.5311 0.1481 0.2900
H18B H 1.6358 0.1149 0.3611
H19B H 1.5988 0.1071 0.2536
C28B C 1.1289(5) 0.1717(3) 0.2220(4)
H20B H 1.0741 0.1460 0.1759
C29B C 1.0179(6) 0.2714(5) 0.2057(6)
H21B H 0.9772 0.2465 0.1473
H22B H 0.9867 0.2664 0.2454
H23B H 1.0243 0.3243 0.1948
C30B C 1.1896(6) 0.2848(5) 0.3110(7)
H24B H 1.2528 0.2663 0.3178
H25B H 1.1794 0.3361 0.2879
H26B H 1.1901 0.2839 0.3705
O9 O -0.0153(9) 0.1515(8) -0.6497(10)
N3 N 0.1446(12) 0.1256(9) -0.5567(11)
C31 C 0.1576(13) 0.0550(9) -0.5826(14)
H27 H 0.1562 0.0184 -0.5392
H28 H 0.2212 0.0524 -0.5831
H29 H 0.1045 0.0441 -0.6439
C32 C 0.2232(12) 0.1602(11) -0.4847(12)
H30 H 0.2247 0.2129 -0.4993
H31 H 0.2849 0.1363 -0.4747
H32 H 0.2154 0.1559 -0.4293
C36 C 0.0595(11) 0.1663(11) -0.5942(13)
H40 H 0.0648 0.2147 -0.5691
O10 O 0.6332(8) -0.1212(6) 0.1942(7)
N4 N 0.6646(8) -0.1613(6) 0.0881(8)
C33 C 0.6487(10) -0.1703(8) 0.1584(9)
H33 H 0.6500 -0.2193 0.1807
C34 C 0.6666(10) -0.1029(7) 0.0368(8)
H34 H 0.6571 -0.0564 0.0628
H35 H 0.6138 -0.1085 -0.0259
H36 H 0.7304 -0.1016 0.0366
C35 C 0.6887(11) -0.2309(7) 0.0603(9)
H37 H 0.7605 -0.2356 0.0867
H38 H 0.6593 -0.2325 -0.0065
H39 H 0.6629 -0.2721 0.0817
loop_
_geom_bond_atom_site_label_1
_geom_bond_atom_site_label_2
_geom_bond_site_symmetry_1
_geom_bond_site_symmetry_2
Co1 O1 1_555 1_555
Co2 O2 1_555 1_555
O1 C1 1_555 1_555
O2 C1 1_555 1_555
O3 C16 1_555 1_555
O4 C16 1_555 1_555
O5 Co1 1_555 1_555
O6 Co2 1_555 1_555
O7 Co1 1_555 1_555
O8 Co1 1_555 1_555
O9 C36 1_555 1_555
O10 C33 1_555 1_555
N1 C25 1_555 1_555
N2 C28 1_555 1_555
N3 C31 1_555 1_555
N4 C33 1_555 1_555
C1 C2 1_555 1_555
C2 C3 1_555 1_555
C3 H1 1_555 1_555
C4 C3 1_555 1_555
H2 C4 1_555 1_555
C5 C4 1_555 1_555
C6 C5 1_555 1_555
H3 C6 1_555 1_555
C7 C2 1_555 1_555
H4 C7 1_555 1_555
C8 C5 1_555 1_555
C9 C8 1_555 1_555
C10 C9 1_555 1_555
C11 C10 1_555 1_555
H5 C11 1_555 1_555
C12 C11 1_555 1_555
H6 C12 1_555 1_555
C13 C12 1_555 1_555
C14 C13 1_555 1_555
H7 C14 1_555 1_555
C15 C10 1_555 1_555
H8 C15 1_555 1_555
C16 C13 1_555 1_555
C17 O5 1_555 1_555
C18 C17 1_555 1_555
C19 C18 1_555 1_555
H9 C19 1_555 1_555
C20 C19 1_555 1_555
H10 C20 1_555 1_555
C21 C20 1_555 1_555
C22 C21 1_555 1_555
H11 C22 1_555 1_555
C23 C18 1_555 1_555
H12 C23 1_555 1_555
C24 C21 1_555 1_555
C25 O7 1_555 1_555
H13 C25 1_555 1_555
C26 N1 1_555 1_555
H14 C26 1_555 1_555
H15 C26 1_555 1_555
H16 C26 1_555 1_555
C27 N1 1_555 1_555
H17 C27 1_555 1_555
H18 C27 1_555 1_555
H19 C27 1_555 1_555
C28 O8 1_555 1_555
H20 C28 1_555 1_555
C29 N2 1_555 1_555
H21 C29 1_555 1_555
H22 C29 1_555 1_555
H23 C29 1_555 1_555
C30 N2 1_555 1_555
H24 C30 1_555 1_555
H25 C30 1_555 1_555
H26 C30 1_555 1_555
C31 H27 1_555 1_555
H28 C31 1_555 1_555
H29 C31 1_555 1_555
C32 N3 1_555 1_555
H30 C32 1_555 1_555
H31 C32 1_555 1_555
H32 C32 1_555 1_555
C33 H33 1_555 1_555
C34 N4 1_555 1_555
H34 C34 1_555 1_555
H35 C34 1_555 1_555
H36 C34 1_555 1_555
C35 N4 1_555 1_555
H37 C35 1_555 1_555
H38 C35 1_555 1_555
H39 C35 1_555 1_555
C36 N3 1_555 1_555
H40 C36 1_555 1_555
Co1B O1B 1_555 1_555
Co1C O3 1_555 1_555
Co1B_2 O5B 1_555 1_555
Co1A O3B 1_555 1_555
Co2A O4 1_555 1_555
Co2_2 O6B 1_555 1_555
Co2A_2 O4B 1_555 1_555
O1B C1B 1_555 1_555
O2B Co2 1_555 1_555
O3B C16B 1_555 1_555
O3C Co1 1_555 1_555
O3A Co1B 1_555 1_555
O4B Co1A 1_555 1_555
O4C Co1 1_555 1_555
O4A Co2 1_555 1_555
O5B C17B 1_555 1_555
O5B_2 Co1B 1_555 1_555
O6B C17B 1_555 1_555
O6B_2 Co2 1_555 1_555
O7B Co1B 1_555 1_555
O8B Co1B 1_555 1_555
N1B C25B 1_555 1_555
N2B C28B 1_555 1_555
C1B O2B 1_555 1_555
C2B C1B 1_555 1_555
C3B C2B 1_555 1_555
H1B C3B 1_555 1_555
C4B C3B 1_555 1_555
H2B C4B 1_555 1_555
C5B C4B 1_555 1_555
C6B C5B 1_555 1_555
H3B C6B 1_555 1_555
C7B C2B 1_555 1_555
H4B C7B 1_555 1_555
C8B C5B 1_555 1_555
C9B C8B 1_555 1_555
C10B C9B 1_555 1_555
C11B C10B 1_555 1_555
H5B C11B 1_555 1_555
C12B C11B 1_555 1_555
H6B C12B 1_555 1_555
C13B C12B 1_555 1_555
C14B C13B 1_555 1_555
H7B C14B 1_555 1_555
C15B C10B 1_555 1_555
H8B C15B 1_555 1_555
C16B O4B 1_555 1_555
C17B C18B 1_555 1_555
C18B C19B 1_555 1_555
C19B H9B 1_555 1_555
C20B C19B 1_555 1_555
H10B C20B 1_555 1_555
C21B C20B 1_555 1_555
C22B C21B 1_555 1_555
H11B C22B 1_555 1_555
C23B C18B 1_555 1_555
H12B C23B 1_555 1_555
C24B C24 1_555 1_555
C25B O7B 1_555 1_555
H13B C25B 1_555 1_555
C26B N1B 1_555 1_555
H14B C26B 1_555 1_555
H15B C26B 1_555 1_555
H16B C26B 1_555 1_555
C27B N1B 1_555 1_555
H17B C27B 1_555 1_555
H18B C27B 1_555 1_555
H19B C27B 1_555 1_555
C28B O8B 1_555 1_555
H20B C28B 1_555 1_555
C29B N2B 1_555 1_555
H21B C29B 1_555 1_555
H22B C29B 1_555 1_555
H23B C29B 1_555 1_555
C30B N2B 1_555 1_555
H24B C30B 1_555 1_555
H25B C30B 1_555 1_555
H26B C30B 1_555 1_555
Co2 O4C 1_555 1_555
O4 Co1C 1_555 1_555
O6 C17 1_555 1_555
C6 C7 1_555 1_555
C14 C15 1_555 1_555
C22 C23 1_555 1_555
Co1B O4A 1_555 1_555
C6B C7B 1_555 1_555
C13B C16B 1_555 1_555
C14B C15B 1_555 1_555
C21B C24B 1_555 1_555
C22B C23B 1_555 1_555

#END
