
#######################################################################
#
#                 Cambridge Crystallographic Data Centre
#                                CCDC 
#
#######################################################################
#
# If this CIF has been generated from an entry in the Cambridge 
# Structural Database, then it will include bibliographic, chemical, 
# crystal, experimental, refinement or atomic coordinate data resulting 
# from the CCDC's data processing and validation procedures.
#
#######################################################################

data_FAHPIO
_symmetry_cell_setting           triclinic
_symmetry_space_group_name_H-M   'P -1'
_symmetry_Int_Tables_number      2
_space_group_name_Hall           '-P 1'
loop_
_symmetry_equiv_pos_site_id
_symmetry_equiv_pos_as_xyz
1 x,y,z
2 -x,-y,-z
_cell_length_a                   9.317(1)
_cell_length_b                   10.773(1)
_cell_length_c                   14.761(2)
_cell_angle_alpha                87.90(1)
_cell_angle_beta                 72.84(1)
_cell_angle_gamma                69.79(1)
_cell_volume                     1324.96
loop_
_atom_site_label
_atom_site_type_symbol
_atom_site_fract_x
_atom_site_fract_y
_atom_site_fract_z
Cd1 Cd 0.35728(5) 0.24027(4) 0.26328(3)
Cl1 Cl -0.25867(16) 0.39513(13) 0.46410(10)
Cl2 Cl 0.85341(18) -0.11144(18) 0.01385(12)
O1 O 0.5676(4) 0.0757(3) 0.1490(2)
O2 O 0.0875(4) 0.3135(3) 0.3576(2)
O3 O -0.3070(4) 0.5983(3) 0.6114(2)
O4 O 0.7306(4) -0.1830(3) -0.1353(2)
N1 N 0.5240(5) 0.1068(4) 0.3594(3)
N2 N 0.3049(6) 0.0332(4) 0.3101(3)
N3 N 0.5701(5) 0.3343(4) 0.1918(3)
N4 N 0.2573(6) 0.4536(4) 0.1943(3)
C1 C 0.6292(6) -0.0971(4) -0.0710(3)
C2 C 0.0404(6) 0.3991(4) 0.4248(3)
C3 C 0.5426(6) 0.0385(4) 0.0783(3)
C4 C -0.1161(6) 0.4507(4) 0.4849(3)
C5 C 0.6598(6) -0.0511(5) 0.0057(3)
C6 C -0.1661(6) 0.5489(4) 0.5586(3)
C7 C 0.6215(7) 0.1431(6) 0.3922(4)
H1 H 0.6082 0.2326 0.3941
C8 C 0.3631(7) 0.5136(5) 0.1536(3)
C9 C 0.7424(8) 0.0566(7) 0.4242(4)
H2 H 0.8071 0.0875 0.4476
C10 C 0.5406(6) -0.0233(5) 0.3586(3)
C11 C 0.8393(7) 0.3337(6) 0.1518(4)
H3 H 0.9440 0.2915 0.1534
C12 C 0.7231(7) 0.2770(6) 0.1893(4)
H4 H 0.7536 0.1946 0.2141
C13 C 0.5263(7) 0.4535(5) 0.1538(3)
C14 C 0.6635(7) -0.1182(5) 0.3874(4)
C15 C 0.4250(7) -0.0621(5) 0.3332(3)
C16 C 0.1882(8) 0.0022(6) 0.2953(4)
H5 H 0.1035 0.0686 0.2819
C17 C 0.7639(8) -0.0733(7) 0.4203(4)
H6 H 0.8462 -0.1337 0.4397
C18 C 0.4334(8) -0.1961(5) 0.3367(4)
C19 C 0.3177(8) 0.6361(6) 0.1115(4)
C20 C 0.1069(8) 0.5120(6) 0.1956(5)
H7 H 0.0336 0.4707 0.2235
C21 C 0.7971(8) 0.4509(7) 0.1130(4)
H8 H 0.8740 0.4894 0.0868
C22 C 0.1877(9) -0.1278(7) 0.2990(5)
H9 H 0.1043 -0.1471 0.2878
C23 C 0.6406(8) 0.5150(6) 0.1118(4)
C24 C 0.0526(9) 0.6340(6) 0.1565(5)
H10 H -0.0547 0.6726 0.1591
C25 C 0.5874(10) 0.6377(7) 0.0711(5)
H11 H 0.6601 0.6803 0.0452
C26 C 0.1574(10) 0.6938(6) 0.1155(5)
H12 H 0.1226 0.7747 0.0894
C27 C 0.3088(10) -0.2243(7) 0.3190(4)
H13 H 0.3094 -0.3109 0.3211
C28 C 0.5654(9) -0.2906(6) 0.3604(4)
H14 H 0.5761 -0.3796 0.3590
C29 C 0.6751(9) -0.2551(6) 0.3847(4)
H15 H 0.7593 -0.3196 0.3999
C30 C 0.4370(11) 0.6938(7) 0.0688(5)
H16 H 0.4087 0.7721 0.0388
Cd1A Cd 0.64272(5) -0.24027(4) -0.26328(3)
Cd1A_2 Cd -0.35728(5) 0.75973(4) 0.73672(3)
Cl1A Cl 0.25867(16) 0.60487(13) 0.53590(10)
Cl2A Cl 0.14659(18) 0.11144(18) -0.01385(12)
O1A O 0.4324(4) -0.0757(3) -0.1490(2)
O2A O -0.0875(4) 0.6865(3) 0.6424(2)
O2A_2 O 0.9125(4) -0.3135(3) -0.3576(2)
O3A O 0.3070(4) 0.4017(3) 0.3886(2)
O3_2 O 0.6930(4) -0.4017(3) -0.3886(2)
O4A O 0.2694(4) 0.1830(3) 0.1353(2)
N1A N 0.4760(5) -0.1068(4) -0.3594(3)
N2A N 0.6951(6) -0.0332(4) -0.3101(3)
N3A N 0.4299(5) -0.3343(4) -0.1918(3)
N4A N 0.7427(6) -0.4536(4) -0.1943(3)
C1A C 0.3708(6) 0.0971(4) 0.0710(3)
C2A C -0.0404(6) 0.6009(4) 0.5752(3)
C3A C 0.4574(6) -0.0385(4) -0.0783(3)
C4A C 0.1161(6) 0.5493(4) 0.5151(3)
C5A C 0.3402(6) 0.0511(5) -0.0057(3)
C6A C 0.1661(6) 0.4511(4) 0.4414(3)
C7A C 0.3785(7) -0.1431(6) -0.3922(4)
H1A H 0.3918 -0.2326 -0.3941
C8A C 0.6369(7) -0.5136(5) -0.1536(3)
C9A C 0.2576(8) -0.0566(7) -0.4242(4)
H2A H 0.1929 -0.0875 -0.4476
C10A C 0.4594(6) 0.0233(5) -0.3586(3)
C11A C 0.1607(7) -0.3337(6) -0.1518(4)
H3A H 0.0560 -0.2915 -0.1534
C12A C 0.2769(7) -0.2770(6) -0.1893(4)
H4A H 0.2464 -0.1946 -0.2141
C13A C 0.4737(7) -0.4535(5) -0.1538(3)
C14A C 0.3365(7) 0.1182(5) -0.3874(4)
C15A C 0.5750(7) 0.0621(5) -0.3332(3)
C16A C 0.8118(8) -0.0022(6) -0.2953(4)
H5A H 0.8965 -0.0686 -0.2819
C17A C 0.2361(8) 0.0733(7) -0.4203(4)
H6A H 0.1538 0.1337 -0.4397
C18A C 0.5666(8) 0.1961(5) -0.3367(4)
C19A C 0.6823(8) -0.6361(6) -0.1115(4)
C20A C 0.8931(8) -0.5120(6) -0.1956(5)
H7A H 0.9664 -0.4707 -0.2235
C21A C 0.2029(8) -0.4509(7) -0.1130(4)
H8A H 0.1260 -0.4894 -0.0868
C22A C 0.8123(9) 0.1278(7) -0.2990(5)
H9A H 0.8957 0.1471 -0.2878
C23A C 0.3594(8) -0.5150(6) -0.1118(4)
C24A C 0.9474(9) -0.6340(6) -0.1565(5)
H10A H 1.0547 -0.6726 -0.1591
C25A C 0.4126(10) -0.6377(7) -0.0711(5)
H11A H 0.3399 -0.6803 -0.0452
C26A C 0.8426(10) -0.6938(6) -0.1155(5)
H12A H 0.8774 -0.7747 -0.0894
C27A C 0.6912(10) 0.2243(7) -0.3190(4)
H13A H 0.6906 0.3109 -0.3211
C28A C 0.4346(9) 0.2906(6) -0.3604(4)
H14A H 0.4239 0.3796 -0.3590
C29A C 0.3249(9) 0.2551(6) -0.3847(4)
H15A H 0.2407 0.3196 -0.3999
C30A C 0.5630(11) -0.6938(7) -0.0688(5)
H16A H 0.5913 -0.7721 -0.0388
loop_
_geom_bond_atom_site_label_1
_geom_bond_atom_site_label_2
_geom_bond_site_symmetry_1
_geom_bond_site_symmetry_2
Cd1 O1 1_555 1_555
Cl1 C4 1_555 1_555
Cl2 C5 1_555 1_555
O1 C3 1_555 1_555
O2 Cd1 1_555 1_555
O3 C6 1_555 1_555
O4 C1 1_555 1_555
N1 Cd1 1_555 1_555
N2 Cd1 1_555 1_555
N3 Cd1 1_555 1_555
N4 Cd1 1_555 1_555
C1 C5 1_555 1_555
C2 O2 1_555 1_555
C3 C5 1_555 1_555
C4 C2 1_555 1_555
C6 C4 1_555 1_555
C7 N1 1_555 1_555
H1 C7 1_555 1_555
C8 N4 1_555 1_555
C9 C7 1_555 1_555
H2 C9 1_555 1_555
C10 N1 1_555 1_555
C11 H3 1_555 1_555
C12 N3 1_555 1_555
H4 C12 1_555 1_555
C13 N3 1_555 1_555
C14 C10 1_555 1_555
C15 N2 1_555 1_555
C16 N2 1_555 1_555
H5 C16 1_555 1_555
C17 C9 1_555 1_555
H6 C17 1_555 1_555
C18 C15 1_555 1_555
C19 C8 1_555 1_555
C20 N4 1_555 1_555
H7 C20 1_555 1_555
C21 C11 1_555 1_555
H8 C21 1_555 1_555
C22 C16 1_555 1_555
H9 C22 1_555 1_555
C23 C13 1_555 1_555
C24 C20 1_555 1_555
H10 C24 1_555 1_555
C25 C23 1_555 1_555
H11 C25 1_555 1_555
C26 C19 1_555 1_555
H12 C26 1_555 1_555
C27 C18 1_555 1_555
H13 C27 1_555 1_555
C28 C18 1_555 1_555
H14 C28 1_555 1_555
C29 C14 1_555 1_555
H15 C29 1_555 1_555
C30 C19 1_555 1_555
H16 C30 1_555 1_555
Cd1A O4 1_555 1_555
Cd1A_2 O3 1_555 1_555
Cl1A C4A 1_555 1_555
Cl2A C5A 1_555 1_555
O1A Cd1A 1_555 1_555
O2A Cd1A_2 1_555 1_555
O2A_2 Cd1A 1_555 1_555
O3A Cd1 1_555 1_555
O3_2 Cd1A 1_555 1_555
O4A Cd1 1_555 1_555
N1A Cd1A 1_555 1_555
N2A Cd1A 1_555 1_555
N3A Cd1A 1_555 1_555
N4A Cd1A 1_555 1_555
C1A C3 1_555 1_555
C2A C6 1_555 1_555
C3A C1 1_555 1_555
C4A C2A 1_555 1_555
C5A C1A 1_555 1_555
C6A C2 1_555 1_555
C7A N1A 1_555 1_555
H1A C7A 1_555 1_555
C8A N4A 1_555 1_555
C9A C7A 1_555 1_555
H2A C9A 1_555 1_555
C10A N1A 1_555 1_555
C11A H3A 1_555 1_555
C12A N3A 1_555 1_555
H4A C12A 1_555 1_555
C13A N3A 1_555 1_555
C14A C10A 1_555 1_555
C15A N2A 1_555 1_555
C16A N2A 1_555 1_555
H5A C16A 1_555 1_555
C17A C9A 1_555 1_555
H6A C17A 1_555 1_555
C18A C15A 1_555 1_555
C19A C8A 1_555 1_555
C20A N4A 1_555 1_555
H7A C20A 1_555 1_555
C21A C11A 1_555 1_555
H8A C21A 1_555 1_555
C22A C16A 1_555 1_555
H9A C22A 1_555 1_555
C23A C13A 1_555 1_555
C24A C20A 1_555 1_555
H10A C24A 1_555 1_555
C25A C23A 1_555 1_555
H11A C25A 1_555 1_555
C26A C19A 1_555 1_555
H12A C26A 1_555 1_555
C27A C18A 1_555 1_555
H13A C27A 1_555 1_555
C28A C18A 1_555 1_555
H14A C28A 1_555 1_555
C29A C14A 1_555 1_555
H15A C29A 1_555 1_555
C30A C19A 1_555 1_555
H16A C30A 1_555 1_555
C8 C13 1_555 1_555
C10 C15 1_555 1_555
C11 C12 1_555 1_555
C14 C17 1_555 1_555
C21 C23 1_555 1_555
C22 C27 1_555 1_555
C24 C26 1_555 1_555
C25 C30 1_555 1_555
C28 C29 1_555 1_555
O1A C3A 1_555 1_555
O2A C2A 1_555 1_555
O3A C6A 1_555 1_555
O4A C1A 1_555 1_555
C3A C5A 1_555 1_555
C4A C6A 1_555 1_555
C8A C13A 1_555 1_555
C10A C15A 1_555 1_555
C11A C12A 1_555 1_555
C14A C17A 1_555 1_555
C21A C23A 1_555 1_555
C22A C27A 1_555 1_555
C24A C26A 1_555 1_555
C25A C30A 1_555 1_555
C28A C29A 1_555 1_555

#END
