
#######################################################################
#
#                 Cambridge Crystallographic Data Centre
#                                CCDC 
#
#######################################################################
#
# If this CIF has been generated from an entry in the Cambridge 
# Structural Database, then it will include bibliographic, chemical, 
# crystal, experimental, refinement or atomic coordinate data resulting 
# from the CCDC's data processing and validation procedures.
#
#######################################################################

data_FAHQEM
_symmetry_cell_setting           orthorhombic
_symmetry_space_group_name_H-M   'P n m a'
_symmetry_Int_Tables_number      62
_space_group_name_Hall           '-P 2ac 2n'
loop_
_symmetry_equiv_pos_site_id
_symmetry_equiv_pos_as_xyz
1 x,y,z
2 1/2-x,-y,1/2+z
3 -x,1/2+y,-z
4 1/2+x,1/2-y,1/2-z
5 -x,-y,-z
6 1/2+x,y,1/2-z
7 x,1/2-y,z
8 1/2-x,1/2+y,1/2+z
_cell_length_a                   5.9716(12)
_cell_length_b                   28.516(6)
_cell_length_c                   7.5076(15)
_cell_angle_alpha                90
_cell_angle_beta                 90
_cell_angle_gamma                90
_cell_volume                     1278.44
loop_
_atom_site_label
_atom_site_type_symbol
_atom_site_fract_x
_atom_site_fract_y
_atom_site_fract_z
In1 In 0.02292(7) 0.7500 0.08696(5)
O1 O -0.0065(6) 0.67099(17) 0.0904(6)
O2 O 0.3011(7) 0.69899(11) -0.0245(5)
O3 O 0.1864(7) 0.7500 0.3300(6)
H1 H 0.082(18) 0.7500 0.408(15)
O4 O -0.0994(11) 0.7500 -0.1870(7)
H2 H -0.085(14) 0.7265(17) -0.255(8)
C1 C 0.1852(9) 0.66435(15) 0.0281(7)
C2 C 0.2782(8) 0.61573(14) 0.0146(6)
C3 C 0.4849(9) 0.6075(2) -0.0620(8)
H3 H 0.5673 0.6324 -0.1080
C4 C 0.5703(10) 0.56220(18) -0.0706(7)
H4 H 0.7080 0.5570 -0.1251
C5 C 0.4527(8) 0.52428(15) 0.0014(6)
C6 C 0.2452(9) 0.53351(17) 0.0792(6)
H5 H 0.1635 0.5089 0.1284
C7 C 0.1583(9) 0.57866(17) 0.0848(6)
H6 H 0.0188 0.5840 0.1360
In1B In 0.97708(7) 0.2500 -0.08696(5)
In1C In 0.52292(7) 0.7500 0.41304(5)
O1D O 1.0065(6) 0.32901(17) -0.0904(6)
O1F O -0.0065(6) 0.82901(17) 0.0904(6)
O2D O 0.6989(7) 0.30101(11) 0.0245(5)
O2F O 0.3011(7) 0.80101(11) -0.0245(5)
O3C O -0.3136(7) 0.7500 0.1700(6)
H2F H -0.085(14) 0.7735(17) -0.255(8)
C1D C 0.8148(9) 0.33565(15) -0.0281(7)
C2D C 0.7218(8) 0.38427(14) -0.0146(6)
C3D C 0.5151(9) 0.3925(2) 0.0620(8)
H3D H 0.4327 0.3676 0.1080
C4D C 0.4297(10) 0.43780(18) 0.0706(7)
H4D H 0.2920 0.4430 0.1251
C5D C 0.5473(8) 0.47572(15) -0.0014(6)
C6D C 0.7548(9) 0.46649(17) -0.0792(6)
H5D H 0.8365 0.4911 -0.1284
C7D C 0.8417(9) 0.42134(17) -0.0848(6)
H6D H 0.9812 0.4160 -0.1360
loop_
_geom_bond_atom_site_label_1
_geom_bond_atom_site_label_2
_geom_bond_site_symmetry_1
_geom_bond_site_symmetry_2
In1 O1 1_555 1_555
O1 C1 1_555 1_555
O2 In1 1_555 1_555
O3 In1 1_555 1_555
H1 O3 1_555 1_555
O4 In1 1_555 1_555
H2 O4 1_555 1_555
C1 O2 1_555 1_555
C2 C1 1_555 1_555
C3 C2 1_555 1_555
H3 C3 1_555 1_555
C4 C3 1_555 1_555
H4 C4 1_555 1_555
C5 C4 1_555 1_555
C6 C5 1_555 1_555
H5 C6 1_555 1_555
C7 C2 1_555 1_555
H6 C7 1_555 1_555
In1B O1D 1_555 1_555
In1C O3 1_555 1_555
O1D C1D 1_555 1_555
O1F In1 1_555 1_555
O2D In1B 1_555 1_555
O2F In1 1_555 1_555
O3C In1 1_555 1_555
H2F O4 1_555 1_555
C1D O2D 1_555 1_555
C2D C1D 1_555 1_555
C3D C2D 1_555 1_555
H3D C3D 1_555 1_555
C4D C3D 1_555 1_555
H4D C4D 1_555 1_555
C5D C5 1_555 1_555
C6D C5D 1_555 1_555
H5D C6D 1_555 1_555
C7D C2D 1_555 1_555
H6D C7D 1_555 1_555
C6 C7 1_555 1_555
C4D C5D 1_555 1_555
C6D C7D 1_555 1_555

#END
