
#######################################################################
#
#                 Cambridge Crystallographic Data Centre
#                                CCDC 
#
#######################################################################
#
# If this CIF has been generated from an entry in the Cambridge 
# Structural Database, then it will include bibliographic, chemical, 
# crystal, experimental, refinement or atomic coordinate data resulting 
# from the CCDC's data processing and validation procedures.
#
#######################################################################

data_FAHQIQ
_symmetry_cell_setting           orthorhombic
_symmetry_space_group_name_H-M   'F d d d'
_symmetry_Int_Tables_number      70
_space_group_name_Hall           '-F 2uv 2vw'
loop_
_symmetry_equiv_pos_site_id
_symmetry_equiv_pos_as_xyz
1 x,y,z
2 3/4-x,3/4-y,z
3 3/4-x,y,3/4-z
4 x,3/4-y,3/4-z
5 x,1/2+y,1/2+z
6 3/4-x,1/4-y,1/2+z
7 3/4-x,1/2+y,1/4-z
8 x,1/4-y,1/4-z
9 1/2+x,y,1/2+z
10 1/4-x,3/4-y,1/2+z
11 1/4-x,y,1/4-z
12 1/2+x,3/4-y,1/4-z
13 1/2+x,1/2+y,z
14 1/4-x,1/4-y,z
15 1/4-x,1/2+y,3/4-z
16 1/2+x,1/4-y,3/4-z
17 -x,-y,-z
18 1/4+x,1/4+y,-z
19 1/4+x,-y,1/4+z
20 -x,1/4+y,1/4+z
21 -x,1/2-y,1/2-z
22 1/4+x,3/4+y,1/2-z
23 1/4+x,1/2-y,3/4+z
24 -x,3/4+y,3/4+z
25 1/2-x,-y,1/2-z
26 3/4+x,1/4+y,1/2-z
27 3/4+x,-y,3/4+z
28 1/2-x,1/4+y,3/4+z
29 1/2-x,1/2-y,-z
30 3/4+x,3/4+y,-z
31 3/4+x,1/2-y,1/4+z
32 1/2-x,3/4+y,1/4+z
_cell_length_a                   23.129(5)
_cell_length_b                   39.470(8)
_cell_length_c                   40.610(8)
_cell_angle_alpha                90
_cell_angle_beta                 90
_cell_angle_gamma                90
_cell_volume                     37072.9
loop_
_atom_site_label
_atom_site_type_symbol
_atom_site_fract_x
_atom_site_fract_y
_atom_site_fract_z
In1 In -0.1250 0.248659(8) 0.3750
O5 O -0.05246(15) 0.27871(7) 0.39685(7)
O6 O -0.13314(16) 0.28670(8) 0.41831(8)
O7 O 0.13825(13) 0.45873(7) 0.58373(7)
O8 O 0.05225(13) 0.47103(6) 0.60078(6)
C15 C 0.0017(2) 0.32227(14) 0.44189(14)
H9 H 0.0254 0.3124 0.4261
C16 C 0.0243(3) 0.34400(13) 0.46505(13)
H10 H 0.0642 0.3471 0.4649
C17 C -0.00650(18) 0.36133(9) 0.48809(10)
C18 C -0.0625(2) 0.35117(13) 0.48942(13)
H11 H -0.0860 0.3602 0.5058
C19 C -0.0863(3) 0.32807(13) 0.46772(12)
H12 H -0.1244 0.3211 0.4708
C20 C -0.0560(2) 0.31548(10) 0.44236(10)
C21 C 0.0939(2) 0.41897(12) 0.53203(12)
H13 H 0.1323 0.4258 0.5301
C22 C 0.0710(2) 0.39655(11) 0.50912(12)
H14 H 0.0939 0.3890 0.4918
C23 C 0.0152(2) 0.38545(10) 0.51183(10)
C24 C -0.0171(2) 0.39745(9) 0.53715(10)
H15 H -0.0549 0.3897 0.5395
C25 C 0.0044(2) 0.42116(10) 0.56013(10)
H16 H -0.0194 0.4297 0.5766
C26 C 0.0604(2) 0.43134(9) 0.55774(10)
C27 C -0.0821(2) 0.29217(9) 0.41779(10)
C28 C 0.0844(2) 0.45553(9) 0.58232(9)
In1Q In 0.1250 0.498659(8) 0.6250
In1Y In -0.3750 0.498659(8) 0.1250
O5B O -0.19754(15) 0.27871(7) 0.35315(7)
O6B O -0.11686(16) 0.28670(8) 0.33169(8)
O7B O -0.38825(13) 0.45873(7) 0.16627(7)
O7W O -0.13825(13) 0.20873(7) 0.33373(7)
O7CA O -0.11175(13) 0.20873(7) 0.41627(7)
O8B O -0.30225(13) 0.47103(6) 0.14922(6)
O8W O -0.05225(13) 0.22103(6) 0.35078(6)
O8CA O -0.19775(13) 0.22103(6) 0.39922(6)
C15B C -0.2517(2) 0.32227(14) 0.30811(14)
H9B H -0.2754 0.3124 0.3239
C16B C -0.2743(3) 0.34400(13) 0.28495(13)
H10B H -0.3142 0.3471 0.2851
C17B C -0.24350(18) 0.36133(9) 0.26191(10)
C18B C -0.1875(2) 0.35117(13) 0.26058(13)
H11B H -0.1640 0.3602 0.2442
C19B C -0.1637(3) 0.32807(13) 0.28228(12)
H12B H -0.1256 0.3211 0.2792
C20B C -0.1940(2) 0.31548(10) 0.30764(10)
C21B C -0.3439(2) 0.41897(12) 0.21797(12)
H13B H -0.3823 0.4258 0.2199
C22B C -0.3210(2) 0.39655(11) 0.24088(12)
H14B H -0.3439 0.3890 0.2582
C23B C -0.2652(2) 0.38545(10) 0.23817(10)
C24B C -0.2329(2) 0.39745(9) 0.21285(10)
H15B H -0.1951 0.3897 0.2105
C25B C -0.2544(2) 0.42116(10) 0.18987(10)
H16B H -0.2306 0.4297 0.1734
C26B C -0.3104(2) 0.43134(9) 0.19226(10)
C27B C -0.1679(2) 0.29217(9) 0.33221(10)
C28B C -0.3344(2) 0.45553(9) 0.16768(9)
In2 In -0.3750 -0.3750 0.387266(8)
O1 O -0.37597(14) -0.33511(7) 0.34804(7)
O2 O -0.29151(13) -0.35229(6) 0.36414(6)
O3 O -0.10289(15) -0.16403(7) 0.18099(7)
O4 O -0.18868(14) -0.15677(6) 0.16256(7)
C1 C -0.3288(2) -0.28681(11) 0.30564(12)
H1 H -0.3686 -0.2862 0.3091
C2 C -0.3036(3) -0.26481(11) 0.28359(13)
H2 H -0.3268 -0.2493 0.2726
C3 C -0.2449(2) -0.26509(10) 0.27726(11)
C4 C -0.2119(2) -0.28872(11) 0.29398(11)
H3 H -0.1724 -0.2903 0.2900
C5 C -0.2373(2) -0.30966(11) 0.31635(11)
H4 H -0.2139 -0.3247 0.3280
C6 C -0.2951(2) -0.30979(9) 0.32261(10)
C7 C -0.1409(2) -0.20779(12) 0.23157(12)
H5 H -0.1027 -0.2008 0.2331
C8 C -0.1647(2) -0.23007(11) 0.25446(12)
H6 H -0.1415 -0.2378 0.2716
C9 C -0.2210(2) -0.24119(9) 0.25296(11)
C10 C -0.2547(2) -0.22951(10) 0.22680(11)
H7 H -0.2926 -0.2370 0.2246
C11 C -0.2323(2) -0.20673(9) 0.20394(11)
H8 H -0.2557 -0.1986 0.1871
C12 C -0.1768(2) -0.19633(10) 0.20610(10)
C13 C -0.3214(2) -0.33404(9) 0.34654(10)
C14 C -0.1535(2) -0.17128(10) 0.18262(11)
In2V In -0.1250 -0.1250 0.137266(8)
In2W In -0.6250 -0.6250 0.137266(8)
O1M O -0.37403(14) -0.41489(7) 0.34804(7)
O2M O -0.45849(13) -0.39771(6) 0.36414(6)
O3M O -0.64711(15) -0.58597(7) 0.18099(7)
O3DA O -0.35289(15) -0.33597(7) 0.43099(7)
O3EA O -0.39711(15) -0.41403(7) 0.43099(7)
O4M O -0.56132(14) -0.59323(6) 0.16256(7)
O4DA O -0.43868(14) -0.34323(6) 0.41256(7)
O4EA O -0.31132(14) -0.40677(6) 0.41256(7)
C1M C -0.4212(2) -0.46319(11) 0.30564(12)
H1M H -0.3814 -0.4638 0.3091
C2M C -0.4464(3) -0.48519(11) 0.28359(13)
H2M H -0.4232 -0.5007 0.2726
C3M C -0.5051(2) -0.48491(10) 0.27726(11)
C4M C -0.5381(2) -0.46128(11) 0.29398(11)
H3M H -0.5776 -0.4597 0.2900
C5M C -0.5127(2) -0.44034(11) 0.31635(11)
H4M H -0.5361 -0.4253 0.3280
C6M C -0.4549(2) -0.44021(9) 0.32261(10)
C7M C -0.6091(2) -0.54221(12) 0.23157(12)
H5M H -0.6473 -0.5492 0.2331
C8M C -0.5853(2) -0.51993(11) 0.25446(12)
H6M H -0.6085 -0.5122 0.2716
C9M C -0.5290(2) -0.50881(9) 0.25296(11)
C10M C -0.4953(2) -0.52049(10) 0.22680(11)
H7M H -0.4574 -0.5130 0.2246
C11M C -0.5177(2) -0.54327(9) 0.20394(11)
H8M H -0.4943 -0.5514 0.1871
C12M C -0.5732(2) -0.55367(10) 0.20610(10)
C13M C -0.4286(2) -0.41596(9) 0.34654(10)
C14M C -0.5965(2) -0.57872(10) 0.18262(11)
N2 N 0.4622(6) 0.1089(3) -0.0786(2)
H17 H 0.4426 0.0892 -0.0786
H18 H 0.4977 0.1050 -0.0867
C31 C 0.4317(7) 0.1338(3) -0.0996(3)
H19 H 0.4342 0.1268 -0.1222
H20 H 0.4494 0.1556 -0.0972
H21 H 0.3919 0.1351 -0.0932
C32 C 0.4669(8) 0.1215(4) -0.0450(3)
H22 H 0.4850 0.1046 -0.0315
H23 H 0.4291 0.1264 -0.0366
H24 H 0.4899 0.1417 -0.0449
O9 O 0.1250 0.1250 0.1250
O10 O 0.3195(7) -0.0055(4) 0.1251(3)
N1? N 0.1970(5) 0.0092(3) 0.2490(2)
C29? C 0.2540(6) 0.0096(4) 0.2372(4)
C30? C 0.2000(8) -0.0038(3) 0.2826(3)
O11? O 0.3044(9) 0.0226(4) 0.1477(4)
loop_
_geom_bond_atom_site_label_1
_geom_bond_atom_site_label_2
_geom_bond_site_symmetry_1
_geom_bond_site_symmetry_2
In1 O5 1_555 1_555
In2 O1 1_555 1_555
O1 C13 1_555 1_555
O2 In2 1_555 1_555
O3 C14 1_555 1_555
O4 C14 1_555 1_555
O5 C27 1_555 1_555
O6 In1 1_555 1_555
O7 C28 1_555 1_555
O8 C28 1_555 1_555
C1 H1 1_555 1_555
C2 C1 1_555 1_555
H2 C2 1_555 1_555
C3 C2 1_555 1_555
C4 C3 1_555 1_555
H3 C4 1_555 1_555
C5 C4 1_555 1_555
H4 C5 1_555 1_555
C6 C1 1_555 1_555
C7 H5 1_555 1_555
C8 C7 1_555 1_555
H6 C8 1_555 1_555
C9 C3 1_555 1_555
C10 C9 1_555 1_555
H7 C10 1_555 1_555
C11 C10 1_555 1_555
H8 C11 1_555 1_555
C12 C7 1_555 1_555
C13 O2 1_555 1_555
C14 C12 1_555 1_555
C15 H9 1_555 1_555
C16 C15 1_555 1_555
H10 C16 1_555 1_555
C17 C16 1_555 1_555
C18 C17 1_555 1_555
H11 C18 1_555 1_555
C19 C18 1_555 1_555
H12 C19 1_555 1_555
C20 C15 1_555 1_555
C21 H13 1_555 1_555
C22 C21 1_555 1_555
H14 C22 1_555 1_555
C23 C17 1_555 1_555
C24 C23 1_555 1_555
H15 C24 1_555 1_555
C25 C24 1_555 1_555
H16 C25 1_555 1_555
C26 C21 1_555 1_555
C27 O6 1_555 1_555
C28 C26 1_555 1_555
N2 H17 1_555 1_555
H18 N2 1_555 1_555
C31 N2 1_555 1_555
H19 C31 1_555 1_555
H20 C31 1_555 1_555
H21 C31 1_555 1_555
C32 N2 1_555 1_555
H22 C32 1_555 1_555
H23 C32 1_555 1_555
H24 C32 1_555 1_555
In1Q O7 1_555 1_555
In1Y O7B 1_555 1_555
In2V O3 1_555 1_555
In2W O3M 1_555 1_555
O1M In2 1_555 1_555
O2M In2 1_555 1_555
O3M C14M 1_555 1_555
O3DA In2 1_555 1_555
O3EA In2 1_555 1_555
O4M In2W 1_555 1_555
O4DA In2 1_555 1_555
O4EA In2 1_555 1_555
O5B In1 1_555 1_555
O6B In1 1_555 1_555
O7B C28B 1_555 1_555
O7W In1 1_555 1_555
O7CA In1 1_555 1_555
O8B In1Y 1_555 1_555
O8W In1 1_555 1_555
O8CA In1 1_555 1_555
C1M H1M 1_555 1_555
C2M C1M 1_555 1_555
H2M C2M 1_555 1_555
C3M C2M 1_555 1_555
C4M C3M 1_555 1_555
H3M C4M 1_555 1_555
C5M C4M 1_555 1_555
H4M C5M 1_555 1_555
C6M C1M 1_555 1_555
C7M H5M 1_555 1_555
C8M C7M 1_555 1_555
H6M C8M 1_555 1_555
C9M C3M 1_555 1_555
C10M C9M 1_555 1_555
H7M C10M 1_555 1_555
C11M C10M 1_555 1_555
H8M C11M 1_555 1_555
C12M C7M 1_555 1_555
C13M O1M 1_555 1_555
C14M O4M 1_555 1_555
C15B H9B 1_555 1_555
C16B C15B 1_555 1_555
H10B C16B 1_555 1_555
C17B C16B 1_555 1_555
C18B C17B 1_555 1_555
H11B C18B 1_555 1_555
C19B C18B 1_555 1_555
H12B C19B 1_555 1_555
C20B C15B 1_555 1_555
C21B H13B 1_555 1_555
C22B C21B 1_555 1_555
H14B C22B 1_555 1_555
C23B C17B 1_555 1_555
C24B C23B 1_555 1_555
H15B C24B 1_555 1_555
C25B C24B 1_555 1_555
H16B C25B 1_555 1_555
C26B C21B 1_555 1_555
C27B O5B 1_555 1_555
C28B O8B 1_555 1_555
O4 In2V 1_555 1_555
O8 In1Q 1_555 1_555
C5 C6 1_555 1_555
C6 C13 1_555 1_555
C8 C9 1_555 1_555
C11 C12 1_555 1_555
C19 C20 1_555 1_555
C20 C27 1_555 1_555
C22 C23 1_555 1_555
C25 C26 1_555 1_555
O2M C13M 1_555 1_555
O6B C27B 1_555 1_555
C5M C6M 1_555 1_555
C6M C13M 1_555 1_555
C8M C9M 1_555 1_555
C11M C12M 1_555 1_555
C12M C14M 1_555 1_555
C19B C20B 1_555 1_555
C20B C27B 1_555 1_555
C22B C23B 1_555 1_555
C25B C26B 1_555 1_555
C26B C28B 1_555 1_555

#END
