
#######################################################################
#
#                 Cambridge Crystallographic Data Centre
#                                CCDC 
#
#######################################################################
#
# If this CIF has been generated from an entry in the Cambridge 
# Structural Database, then it will include bibliographic, chemical, 
# crystal, experimental, refinement or atomic coordinate data resulting 
# from the CCDC's data processing and validation procedures.
#
#######################################################################

data_FAHVER
_symmetry_cell_setting           monoclinic
_symmetry_space_group_name_H-M   'P 21/c'
_symmetry_Int_Tables_number      14
_space_group_name_Hall           '-P 2ybc'
loop_
_symmetry_equiv_pos_site_id
_symmetry_equiv_pos_as_xyz
1 x,y,z
2 -x,1/2+y,1/2-z
3 -x,-y,-z
4 x,1/2-y,1/2+z
_cell_length_a                   10.953(5)
_cell_length_b                   17.082(8)
_cell_length_c                   23.293(9)
_cell_angle_alpha                90
_cell_angle_beta                 116.581(17)
_cell_angle_gamma                90
_cell_volume                     3897.46
loop_
_atom_site_label
_atom_site_type_symbol
_atom_site_fract_x
_atom_site_fract_y
_atom_site_fract_z
Ce1 Ce 0.521125(16) 0.351339(10) 0.241382(7)
O1 O 0.7528(2) 0.38100(13) 0.32061(10)
O2 O 0.3743(2) 0.32115(13) 0.12757(10)
O3 O 0.4245(2) 0.47778(12) 0.18678(10)
N1 N 0.3610(3) 0.65574(14) 0.23405(13)
O4 O 0.5170(2) 0.44348(13) 0.32157(10)
N2 N 0.3754(3) 0.54174(15) 0.19690(12)
O5 O 0.6375(2) 0.38460(13) 0.17480(10)
O6 O 0.3928(2) 0.72108(12) 0.26513(11)
C1 C 0.6660(3) 0.64856(18) 0.32406(16)
H1 H 0.6161 0.6736 0.3421
O7 O 0.2974(2) 0.32853(14) 0.23503(11)
O8 O 0.5408(2) 0.27185(14) 0.33482(11)
C2 C 0.3692(3) 0.34479(19) 0.07562(15)
C3 C 0.6038(3) 0.46852(19) 0.37465(15)
C4 C 0.4500(3) 0.60180(18) 0.23420(15)
C5 C 0.8077(3) 0.41597(19) 0.37301(15)
C6 C 0.5976(3) 0.60683(18) 0.26654(15)
C7 C 0.5969(3) 0.39790(18) 0.11622(15)
C8 C 0.8065(3) 0.65280(19) 0.35408(16)
H2 H 0.8510 0.6806 0.3922
O9 O 1.0189(2) 0.61528(16) 0.35289(12)
C9 C 0.2144(3) 0.63083(19) 0.19905(17)
C10 C 0.6741(3) 0.57035(19) 0.23980(16)
H3 H 0.6300 0.5432 0.2013
F1 F 0.4623(2) 0.57267(13) 0.37473(10)
F2 F 0.5046(3) 0.14248(15) 0.41926(13)
C11 C 1.0973(4) 0.6467(2) 0.41624(18)
H4 H 1.0676 0.6242 0.4461
H5 H 1.0866 0.7031 0.4160
C12 C 0.2271(3) 0.5602(2) 0.15939(17)
C13 C 0.8139(3) 0.5743(2) 0.26993(17)
H6 H 0.8641 0.5494 0.2519
F3 F 0.6355(2) 0.54903(17) 0.46469(11)
F4 F 0.6602(3) 0.23067(15) 0.45560(11)
F5 F 0.2257(3) 0.3511(2) -0.03769(12)
C14 C 0.8815(3) 0.6155(2) 0.32733(16)
F6 F 1.0225(2) 0.46763(16) 0.44674(13)
C15 C 0.5429(4) 0.5157(2) 0.41161(17)
C16 C 0.2500(4) 0.3039(2) 0.27123(18)
F7 F 0.0323(2) 0.30633(18) 0.18170(15)
C17 C 0.7441(3) 0.4583(2) 0.40313(15)
H7 H 0.7970 0.4803 0.4432
F8 F 0.4674(3) 0.46957(15) 0.42841(13)
F9 F 0.1308(3) 0.3443(3) 0.02477(15)
C18 C 0.4685(3) 0.3839(2) 0.06574(15)
H8 H 0.4493 0.4012 0.0247
F10 F 0.6562(3) 0.4662(2) 0.04330(15)
C19 C 0.7049(4) 0.4322(2) 0.09885(16)
F11 F 0.9941(3) 0.34618(18) 0.44646(19)
C20 C 0.9629(4) 0.4083(2) 0.40872(17)
C21 C 0.1298(3) 0.6986(2) 0.15832(18)
H9 H 0.1297 0.7405 0.1858
H10 H 0.0379 0.6813 0.1324
H11 H 0.1685 0.7168 0.1310
C22 C 0.4613(4) 0.2586(2) 0.35885(17)
F12 F 1.0168(3) 0.3981(3) 0.37101(15)
C23 C 0.2064(4) 0.5811(3) 0.09166(18)
H12 H 0.2574 0.6275 0.0934
H13 H 0.1111 0.5903 0.0645
H14 H 0.2375 0.5387 0.0746
F13 F 0.0654(3) 0.38292(19) 0.25913(15)
F14 F 0.4740(3) 0.24712(19) 0.46351(13)
C24 C 1.2438(4) 0.6256(3) 0.4352(2)
H15 H 1.2511 0.5701 0.4311
H16 H 1.2995 0.6409 0.4789
H17 H 1.2743 0.6523 0.4077
C25 C 0.1706(4) 0.6087(3) 0.2501(2)
H18 H 0.2242 0.5653 0.2745
H19 H 0.0758 0.5944 0.2299
H20 H 0.1838 0.6525 0.2780
C26 C 0.2355(4) 0.3252(3) 0.01706(18)
F15 F 0.7937(4) 0.4735(3) 0.14275(15)
C27 C 0.3221(4) 0.2717(2) 0.33185(19)
H21 H 0.2751 0.2585 0.3552
F16 F 0.7758(4) 0.3743(2) 0.0901(2)
C28 C 0.5268(5) 0.2197(3) 0.4255(2)
C29 C 0.1431(4) 0.4894(2) 0.1571(3)
H22 H 0.1621 0.4479 0.1346
H23 H 0.0479 0.5026 0.1353
H24 H 0.1657 0.4728 0.2001
F17 F 0.0429(3) 0.2604(2) 0.2689(2)
F18 F 0.2253(4) 0.2479(2) 0.00914(16)
C30 C 0.0956(4) 0.3132(3) 0.2449(2)
Ce1A Ce 0.478875(16) 0.851339(10) 0.258618(7)
O6A O 0.6072(2) 0.22108(12) 0.23487(11)
loop_
_geom_bond_atom_site_label_1
_geom_bond_atom_site_label_2
_geom_bond_site_symmetry_1
_geom_bond_site_symmetry_2
Ce1 O1 1_555 1_555
O1 C5 1_555 1_555
O2 Ce1 1_555 1_555
O3 Ce1 1_555 1_555
N1 O6 1_555 1_555
O4 Ce1 1_555 1_555
N2 O3 1_555 1_555
O5 Ce1 1_555 1_555
O6 Ce1A 1_555 1_555
C1 H1 1_555 1_555
O7 Ce1 1_555 1_555
O8 Ce1 1_555 1_555
C2 O2 1_555 1_555
C3 O4 1_555 1_555
C4 N1 1_555 1_555
C5 C17 1_555 1_555
C6 C1 1_555 1_555
C7 O5 1_555 1_555
C8 C1 1_555 1_555
H2 C8 1_555 1_555
O9 C11 1_555 1_555
C9 N1 1_555 1_555
C10 C6 1_555 1_555
H3 C10 1_555 1_555
F1 C15 1_555 1_555
F2 C28 1_555 1_555
C11 H4 1_555 1_555
H5 C11 1_555 1_555
C12 N2 1_555 1_555
C13 C10 1_555 1_555
H6 C13 1_555 1_555
F3 C15 1_555 1_555
F4 C28 1_555 1_555
F5 C26 1_555 1_555
C14 C8 1_555 1_555
F6 C20 1_555 1_555
C15 C3 1_555 1_555
C16 O7 1_555 1_555
F7 C30 1_555 1_555
C17 C3 1_555 1_555
H7 C17 1_555 1_555
F8 C15 1_555 1_555
F9 C26 1_555 1_555
C18 C2 1_555 1_555
H8 C18 1_555 1_555
F10 C19 1_555 1_555
C19 C7 1_555 1_555
F11 C20 1_555 1_555
C20 C5 1_555 1_555
C21 C9 1_555 1_555
H9 C21 1_555 1_555
H10 C21 1_555 1_555
H11 C21 1_555 1_555
C22 O8 1_555 1_555
F12 C20 1_555 1_555
C23 C12 1_555 1_555
H12 C23 1_555 1_555
H13 C23 1_555 1_555
H14 C23 1_555 1_555
F13 C30 1_555 1_555
F14 C28 1_555 1_555
C24 C11 1_555 1_555
H15 C24 1_555 1_555
H16 C24 1_555 1_555
H17 C24 1_555 1_555
C25 C9 1_555 1_555
H18 C25 1_555 1_555
H19 C25 1_555 1_555
H20 C25 1_555 1_555
C26 C2 1_555 1_555
F15 C19 1_555 1_555
C27 C16 1_555 1_555
H21 C27 1_555 1_555
F16 C19 1_555 1_555
C28 C22 1_555 1_555
C29 C12 1_555 1_555
H22 C29 1_555 1_555
H23 C29 1_555 1_555
H24 C29 1_555 1_555
F17 C30 1_555 1_555
F18 C26 1_555 1_555
C30 C16 1_555 1_555
O6A Ce1 1_555 1_555
N2 C4 1_555 1_555
C4 C6 1_555 1_555
C7 C18 1_555 1_555
O9 C14 1_555 1_555
C9 C12 1_555 1_555
C13 C14 1_555 1_555
C22 C27 1_555 1_555

#END
