
#######################################################################
#
#                 Cambridge Crystallographic Data Centre
#                                CCDC 
#
#######################################################################
#
# If this CIF has been generated from an entry in the Cambridge 
# Structural Database, then it will include bibliographic, chemical, 
# crystal, experimental, refinement or atomic coordinate data resulting 
# from the CCDC's data processing and validation procedures.
#
#######################################################################

data_FAHYET
_symmetry_cell_setting           monoclinic
_symmetry_space_group_name_H-M   'P 21/c'
_symmetry_Int_Tables_number      14
_space_group_name_Hall           '-P 2ybc'
loop_
_symmetry_equiv_pos_site_id
_symmetry_equiv_pos_as_xyz
1 x,y,z
2 -x,1/2+y,1/2-z
3 -x,-y,-z
4 x,1/2-y,1/2+z
_cell_length_a                   13.802(3)
_cell_length_b                   6.2005(13)
_cell_length_c                   22.587(5)
_cell_angle_alpha                90
_cell_angle_beta                 103.509(3)
_cell_angle_gamma                90
_cell_volume                     1879.5
loop_
_atom_site_label
_atom_site_type_symbol
_atom_site_fract_x
_atom_site_fract_y
_atom_site_fract_z
Bi1 Bi 0.164328(17) 0.11564(4) 0.492792(9)
N1 N -0.0916(4) 0.0607(7) 0.3306(2)
N2 N 0.4360(4) 0.0356(7) 0.4191(2)
N3 N 0.2096(4) 0.5970(9) 0.5671(2)
O1 O 0.1529(3) 0.5507(6) 0.5186(2)
O2 O 0.2541(4) 0.4502(7) 0.6006(2)
O3 O 0.2243(4) 0.7908(7) 0.58162(19)
S1 S 0.05763(13) 0.2946(2) 0.39421(7)
S2 S 0.01332(11) -0.1491(2) 0.42847(6)
S3 S 0.26601(11) -0.1297(2) 0.43373(7)
S4 S 0.33199(12) 0.3158(2) 0.46874(7)
C1 C -0.0162(4) 0.0667(8) 0.3793(2)
C2 C -0.1220(5) 0.2447(10) 0.2912(3)
H1 H -0.0691 0.3511 0.2990
H2 H -0.1804 0.3097 0.3008
C3 C -0.1457(5) 0.1868(10) 0.2251(3)
H3 H -0.1731 0.3122 0.2013
H4 H -0.0846 0.1472 0.2137
C4 C -0.2178(5) 0.0057(11) 0.2102(3)
H5 H -0.2246 -0.0371 0.1681
H6 H -0.2826 0.0524 0.2150
C5 C -0.1831(5) -0.1823(9) 0.2510(3)
H7 H -0.1232 -0.2416 0.2418
H8 H -0.2339 -0.2935 0.2433
C6 C -0.1615(4) -0.1192(11) 0.3170(3)
H9 H -0.2233 -0.0791 0.3276
H10 H -0.1340 -0.2422 0.3418
C7 C 0.3551(4) 0.0743(8) 0.4389(2)
C8 C 0.5118(5) 0.2009(10) 0.4175(3)
H11 H 0.5759 0.1530 0.4415
H12 H 0.4944 0.3336 0.4353
C9 C 0.5191(6) 0.2419(13) 0.3541(3)
H13 H 0.5723 0.3443 0.3542
H14 H 0.4573 0.3048 0.3313
C10 C 0.5396(7) 0.0361(13) 0.3235(4)
H15 H 0.6050 -0.0180 0.3435
H16 H 0.5394 0.0655 0.2813
C11 C 0.4619(6) -0.1327(12) 0.3264(3)
H17 H 0.4787 -0.2668 0.3091
H18 H 0.3974 -0.0855 0.3028
C12 C 0.4569(5) -0.1688(9) 0.3919(3)
H19 H 0.4049 -0.2723 0.3935
H20 H 0.5198 -0.2270 0.4148
Bi1_2 Bi 0.164328(17) 1.11564(4) 0.492792(9)
O3_2 O 0.2243(4) -0.2092(7) 0.58162(19)
loop_
_geom_bond_atom_site_label_1
_geom_bond_atom_site_label_2
_geom_bond_site_symmetry_1
_geom_bond_site_symmetry_2
Bi1 O1 1_555 1_555
N1 C1 1_555 1_555
N2 C7 1_555 1_555
N3 O1 1_555 1_555
O2 N3 1_555 1_555
O3 N3 1_555 1_555
S1 Bi1 1_555 1_555
S2 Bi1 1_555 1_555
S3 Bi1 1_555 1_555
S4 Bi1 1_555 1_555
C1 S1 1_555 1_555
C2 N1 1_555 1_555
H1 C2 1_555 1_555
H2 C2 1_555 1_555
C3 C2 1_555 1_555
H3 C3 1_555 1_555
H4 C3 1_555 1_555
C4 C3 1_555 1_555
H5 C4 1_555 1_555
H6 C4 1_555 1_555
C5 C4 1_555 1_555
H7 C5 1_555 1_555
H8 C5 1_555 1_555
C6 N1 1_555 1_555
H9 C6 1_555 1_555
H10 C6 1_555 1_555
C7 S3 1_555 1_555
C8 N2 1_555 1_555
H11 C8 1_555 1_555
H12 C8 1_555 1_555
C9 C8 1_555 1_555
H13 C9 1_555 1_555
H14 C9 1_555 1_555
C10 C9 1_555 1_555
H15 C10 1_555 1_555
H16 C10 1_555 1_555
C11 C10 1_555 1_555
H17 C11 1_555 1_555
H18 C11 1_555 1_555
C12 N2 1_555 1_555
H19 C12 1_555 1_555
H20 C12 1_555 1_555
Bi1_2 O3 1_555 1_555
O3_2 Bi1 1_555 1_555
S2 C1 1_555 1_555
S4 C7 1_555 1_555
C5 C6 1_555 1_555
C11 C12 1_555 1_555

#END
