
#######################################################################
#
#                 Cambridge Crystallographic Data Centre
#                                CCDC 
#
#######################################################################
#
# If this CIF has been generated from an entry in the Cambridge 
# Structural Database, then it will include bibliographic, chemical, 
# crystal, experimental, refinement or atomic coordinate data resulting 
# from the CCDC's data processing and validation procedures.
#
#######################################################################

data_FAJBUO
_symmetry_cell_setting           monoclinic
_symmetry_space_group_name_H-M   'P 21/c'
_symmetry_Int_Tables_number      14
_space_group_name_Hall           '-P 2ybc'
loop_
_symmetry_equiv_pos_site_id
_symmetry_equiv_pos_as_xyz
1 x,y,z
2 -x,1/2+y,1/2-z
3 -x,-y,-z
4 x,1/2-y,1/2+z
_cell_length_a                   10.267(6)
_cell_length_b                   17.115(9)
_cell_length_c                   7.145(4)
_cell_angle_alpha                90.00
_cell_angle_beta                 90.48(7)
_cell_angle_gamma                90.00
_cell_volume                     1255.47
loop_
_atom_site_label
_atom_site_type_symbol
_atom_site_fract_x
_atom_site_fract_y
_atom_site_fract_z
C1 C 0.3891(16) 0.8402(9) 0.014(2)
C2 C 0.2453(16) 0.9438(9) 0.014(2)
C3 C 0.1608(16) 0.8200(9) 0.035(2)
C4 C 0.0882(17) 0.6927(10) 0.063(2)
C5 C 0.3095(14) 0.7106(8) 0.031(2)
C6 C 0.5301(15) 0.7349(9) 0.0128(19)
N1 N 0.2848(13) 0.7911(7) 0.0283(16)
N2 N 0.3697(11) 0.9171(8) 0.0154(16)
N3 N 0.1388(12) 0.8957(7) 0.0313(15)
N4 N 0.0602(11) 0.7701(7) 0.0503(14)
N5 N 0.2082(12) 0.6603(7) 0.0507(16)
N6 N 0.4315(12) 0.6814(7) 0.0203(15)
N7 N 0.5112(13) 0.8141(7) 0.0107(17)
O1 O 0.6422(9) 0.7092(5) 0.0082(13)
O2 O 0.2197(9) 1.0161(6) 0.0136(13)
O3 O -0.0078(10) 0.6434(6) 0.0823(13)
O4 O 0.4472(11) 1.0484(6) 0.3133(14)
H1 H 0.499(11) 1.083(6) 0.355(14)
H2 H 0.455(13) 1.048(7) 0.195(3)
O5 O 0.7847(10) 1.0053(6) 0.5285(15)
H3 H 0.715(7) 0.979(6) 0.525(16)
H4 H 0.783(11) 1.036(5) 0.435(12)
O6 O 0.8551(11) 0.8387(7) 0.2367(15)
H5 H 0.883(12) 0.802(5) 0.169(11)
H6 H 0.885(11) 0.831(7) 0.347(6)
K1 K 0.6205(3) 0.9201(2) 0.2696(5)
K2 K -0.0182(3) 0.9925(2) 0.2555(5)
K3 K 0.7789(4) 0.6687(2) 0.3315(5)
O1C O 0.6422(9) 0.7908(5) 0.5082(13)
O2B O 0.7803(9) 0.9839(6) -0.0136(13)
O2B_2 O -0.2197(9) 0.9839(6) -0.0136(13)
O2A O 0.7803(9) 0.5161(6) 0.4864(13)
O3A O 0.0078(10) 1.1434(6) 0.4177(13)
O3_2 O 0.9922(10) 0.6434(6) 0.0823(13)
O5_2 O -0.2153(10) 1.0053(6) 0.5285(15)
O5B O 0.2153(10) 0.9947(6) 0.4715(15)
H3_2 H -0.285(7) 0.979(6) 0.525(16)
H3B H 0.285(7) 1.021(6) 0.475(16)
H4_2 H -0.217(11) 1.036(5) 0.435(12)
H4B H 0.217(11) 0.964(5) 0.565(12)
K1C K 0.6205(3) 0.5799(2) -0.2304(5)
K1B K 0.3795(3) 1.0799(2) -0.2696(5)
K1_2 K -0.3795(3) 0.9201(2) 0.2696(5)
K2B K 0.0182(3) 1.0075(2) -0.2555(5)
K2A K 0.0182(3) 0.4925(2) 0.2445(5)
K2_2 K 0.9818(3) 0.9925(2) 0.2555(5)
K2B_2 K 1.0182(3) 1.0075(2) 0.7445(5)
K2B_3 K 0.0182(3) 1.0075(2) 0.7445(5)
K3C K 0.7789(4) 0.8313(2) -0.1685(5)
K3A K 0.2211(4) 1.1687(2) 0.1685(5)
K3_2 K -0.2211(4) 0.6687(2) 0.3315(5)
loop_
_geom_bond_atom_site_label_1
_geom_bond_atom_site_label_2
_geom_bond_site_symmetry_1
_geom_bond_site_symmetry_2
C1 N1 1_555 1_555
C2 N2 1_555 1_555
C3 N1 1_555 1_555
C4 N4 1_555 1_555
C5 N1 1_555 1_555
C6 N6 1_555 1_555
N2 C1 1_555 1_555
N3 C2 1_555 1_555
N4 C3 1_555 1_555
N5 C4 1_555 1_555
N6 C5 1_555 1_555
N7 C1 1_555 1_555
O1 C6 1_555 1_555
O2 C2 1_555 1_555
O3 C4 1_555 1_555
O4 H1 1_555 1_555
H2 O4 1_555 1_555
O5 H3 1_555 1_555
H4 O5 1_555 1_555
O6 H5 1_555 1_555
H6 O6 1_555 1_555
K1 N7 1_555 1_555
K2 N3 1_555 1_555
K3 O1 1_555 1_555
O1C K1 1_555 1_555
O2B K1 1_555 1_555
O2B_2 K2 1_555 1_555
O2A K3 1_555 1_555
O3A K2 1_555 1_555
O3_2 K3 1_555 1_555
O5_2 K2 1_555 1_555
O5B K2 1_555 1_555
H3_2 O5_2 1_555 1_555
H3B O5B 1_555 1_555
H4_2 O5_2 1_555 1_555
H4B O5B 1_555 1_555
K1C O1 1_555 1_555
K1B O2 1_555 1_555
K1_2 O2B_2 1_555 1_555
K2B O2 1_555 1_555
K2A O3 1_555 1_555
K2_2 O5 1_555 1_555
K2B_2 O5 1_555 1_555
K2B_3 O5_2 1_555 1_555
K3C O1 1_555 1_555
K3A O2 1_555 1_555
K3_2 O3 1_555 1_555
C3 N3 1_555 1_555
C5 N5 1_555 1_555
C6 N7 1_555 1_555
O4 K1 1_555 1_555
O5 K1 1_555 1_555
O6 K1 1_555 1_555
K3 O1C 1_555 1_555
O2B K2_2 1_555 1_555
O2B K3C 1_555 1_555
O3A K3A 1_555 1_555
O5_2 K1_2 1_555 1_555
O5B K2B_3 1_555 1_555

#END
