
#######################################################################
#
#                 Cambridge Crystallographic Data Centre
#                                CCDC 
#
#######################################################################
#
# If this CIF has been generated from an entry in the Cambridge 
# Structural Database, then it will include bibliographic, chemical, 
# crystal, experimental, refinement or atomic coordinate data resulting 
# from the CCDC's data processing and validation procedures.
#
#######################################################################

data_FAJBOI
_symmetry_cell_setting           monoclinic
_symmetry_space_group_name_H-M   'C 2/c'
_symmetry_Int_Tables_number      15
_space_group_name_Hall           '-C 2yn'
loop_
_symmetry_equiv_pos_site_id
_symmetry_equiv_pos_as_xyz
1 x,y,z
2 1/2+x,1/2+y,z
3 -x,y,1/2-z
4 1/2-x,1/2+y,1/2-z
5 -x,-y,-z
6 1/2-x,1/2-y,-z
7 x,-y,1/2+z
8 1/2+x,1/2-y,1/2+z
_cell_length_a                   18.028(3)
_cell_length_b                   7.007(2)
_cell_length_c                   21.158(3)
_cell_angle_alpha                90
_cell_angle_beta                 101.860(10)
_cell_angle_gamma                90
_cell_volume                     2615.67
loop_
_atom_site_label
_atom_site_type_symbol
_atom_site_fract_x
_atom_site_fract_y
_atom_site_fract_z
C1 C 0.6213(2) 0.2766(6) 0.55539(19)
C2 C 0.6026(2) 0.1494(6) 0.4528(2)
C3 C 0.4955(2) 0.2337(5) 0.49094(19)
C4 C 0.3931(2) 0.3289(6) 0.5343(2)
C5 C 0.5121(2) 0.3524(6) 0.5999(2)
C6 C 0.6339(2) 0.3783(6) 0.66017(19)
N1 N 0.54378(18) 0.2867(5) 0.54889(16)
N2 N 0.65111(18) 0.2109(5) 0.50750(17)
N3 N 0.52534(18) 0.1622(5) 0.44390(16)
N4 N 0.42207(18) 0.2563(5) 0.48394(17)
N5 N 0.43895(18) 0.3746(5) 0.59272(17)
N6 N 0.55839(18) 0.3913(5) 0.65621(16)
N7 N 0.66779(18) 0.3333(5) 0.60983(17)
O1 O 0.67699(16) 0.4092(5) 0.71479(14)
O2 O 0.63122(16) 0.0843(4) 0.40805(13)
O3 O 0.32366(16) 0.3552(4) 0.52713(15)
O4 O 0.5000 -0.1695(7) 0.2500
H1 H 0.475(3) -0.244(8) 0.271(2)
O5 O 0.63131(19) 0.4189(5) 0.31857(15)
H2 H 0.644(2) 0.480(6) 0.2880(16)
H3 H 0.602(2) 0.490(5) 0.335(2)
O6 O 0.69133(18) -0.0766(5) 0.29396(19)
H4 H 0.7338(17) -0.027(7) 0.291(2)
H5 H 0.685(3) -0.169(5) 0.267(2)
O7 O 0.5441(2) 0.2023(5) 0.18656(16)
H6 H 0.534(3) 0.166(6) 0.1474(9)
H7 H 0.545(3) 0.3235(16) 0.186(2)
O8 O 0.80875(17) 0.6333(5) 0.38308(16)
H8 H 0.8463(16) 0.662(8) 0.4131(13)
H9 H 0.826(2) 0.629(8) 0.3486(10)
Na1 Na 0.58263(9) 0.0955(3) 0.29520(8)
Na2 Na 0.72700(9) 0.3860(3) 0.41471(9)
Na3 Na 0.76319(10) 0.6142(3) 0.58321(9)
C1E C 0.8787(2) 0.2234(6) 0.44461(19)
C2E C 0.8974(2) 0.3506(6) 0.5472(2)
C3E C 1.0045(2) 0.2663(5) 0.50906(19)
C4E C 1.1069(2) 0.1711(6) 0.4657(2)
C5E C 0.9879(2) 0.1476(6) 0.4001(2)
C6E C 0.8661(2) 0.1217(6) 0.33983(19)
N1E N 0.95622(18) 0.2133(5) 0.45111(16)
N2E N 0.84889(18) 0.2891(5) 0.49250(17)
N3E N 0.97466(18) 0.3378(5) 0.55610(16)
N4E N 1.07793(18) 0.2437(5) 0.51606(17)
N5E N 1.06105(18) 0.1254(5) 0.40728(17)
N6E N 0.94161(18) 0.1087(5) 0.34379(16)
N7E N 0.83221(18) 0.1667(5) 0.39017(17)
O1E O 0.82301(16) 0.0908(5) 0.28521(14)
O2E O 0.86878(16) 0.4157(4) 0.59195(13)
O2B O 0.36878(16) 0.0843(4) 0.09195(13)
O3E O 1.17634(16) 0.1448(4) 0.47287(15)
O3D O 0.67634(16) 0.6448(4) 0.47287(15)
O3A O 0.82366(16) 0.8552(4) 0.52713(15)
O3A_2 O 0.82366(16) -0.1448(4) 0.52713(15)
O3D_2 O 0.67634(16) -0.3552(4) 0.47287(15)
H1B H 0.525(3) -0.244(8) 0.229(2)
O5B O 0.36869(19) 0.4189(5) 0.18143(15)
O5E O 0.86869(19) 0.0811(5) 0.68143(15)
H2B H 0.356(2) 0.480(6) 0.2120(16)
H2E H 0.856(2) 0.020(6) 0.7120(16)
H3B H 0.398(2) 0.490(5) 0.165(2)
H3E H 0.898(2) 0.010(5) 0.665(2)
O6E O 0.80867(18) 0.5766(5) 0.70604(19)
O6B O 0.30867(18) -0.0766(5) 0.20604(19)
H4E H 0.7662(17) 0.527(7) 0.709(2)
H4B H 0.2662(17) -0.027(7) 0.209(2)
H5E H 0.815(3) 0.669(5) 0.733(2)
H5B H 0.315(3) -0.169(5) 0.233(2)
O7B O 0.4559(2) 0.2023(5) 0.31344(16)
H6B H 0.466(3) 0.166(6) 0.3526(9)
H7B H 0.455(3) 0.3235(16) 0.314(2)
O8E O 0.69125(17) 0.8667(5) 0.61692(16)
O8E_2 O 0.69125(17) -0.1333(5) 0.61692(16)
O8_2 O 0.80875(17) -0.3667(5) 0.38308(16)
H8E H 0.6537(16) 0.838(8) 0.5869(13)
H8E_2 H 0.6537(16) -0.162(8) 0.5869(13)
H8_2 H 0.8463(16) -0.338(8) 0.4131(13)
H9E H 0.674(2) 0.871(8) 0.6514(10)
H9E_2 H 0.674(2) -0.129(8) 0.6514(10)
H9_2 H 0.826(2) -0.371(8) 0.3486(10)
Na1B Na 0.41737(9) 0.0955(3) 0.20480(8)
Na1E Na 0.91737(9) 0.4045(3) 0.70480(8)
Na2E Na 0.77300(9) 0.1140(3) 0.58529(9)
Na2D Na 0.27300(9) 0.6140(3) 0.58529(9)
Na2E_2 Na 0.77300(9) 1.1140(3) 0.58529(9)
Na2B Na 0.27300(9) 0.3860(3) 0.08529(9)
Na2_2 Na 0.72700(9) -0.6140(3) 0.41471(9)
Na2A Na 1.22700(9) -0.1140(3) 0.41471(9)
Na3E Na 0.73681(10) -0.1142(3) 0.41679(9)
Na3A Na 0.26319(10) 0.1142(3) 0.58321(9)
Na3D Na 0.23681(10) 0.3858(3) 0.41679(9)
Na3E_2 Na 0.73681(10) 0.8858(3) 0.41679(9)
Na3G Na 0.26319(10) -0.1142(3) 0.08321(9)
Na3_2 Na 0.76319(10) -0.3858(3) 0.58321(9)
Na3A_2 Na 1.26319(10) 0.1142(3) 0.58321(9)
Na3D_2 Na 1.23681(10) 0.3858(3) 0.41679(9)
loop_
_geom_bond_atom_site_label_1
_geom_bond_atom_site_label_2
_geom_bond_site_symmetry_1
_geom_bond_site_symmetry_2
C1 N1 1_555 1_555
C2 N2 1_555 1_555
C3 N1 1_555 1_555
C4 N4 1_555 1_555
C5 N1 1_555 1_555
C6 N6 1_555 1_555
N2 C1 1_555 1_555
N3 C2 1_555 1_555
N4 C3 1_555 1_555
N5 C4 1_555 1_555
N6 C5 1_555 1_555
N7 C1 1_555 1_555
O1 C6 1_555 1_555
O2 C2 1_555 1_555
O3 C4 1_555 1_555
O4 H1 1_555 1_555
O5 H2 1_555 1_555
H3 O5 1_555 1_555
O6 H4 1_555 1_555
H5 O6 1_555 1_555
O7 H6 1_555 1_555
H7 O7 1_555 1_555
O8 H8 1_555 1_555
H9 O8 1_555 1_555
Na1 O2 1_555 1_555
Na2 N2 1_555 1_555
Na3 N7 1_555 1_555
C1E N1E 1_555 1_555
C2E N2E 1_555 1_555
C3E N1E 1_555 1_555
C4E N4E 1_555 1_555
C5E N1E 1_555 1_555
C6E N6E 1_555 1_555
N2E Na2 1_555 1_555
N3E C2E 1_555 1_555
N4E C3E 1_555 1_555
N5E C4E 1_555 1_555
N6E C5E 1_555 1_555
N7E Na2 1_555 1_555
O1E C6E 1_555 1_555
O2E Na3 1_555 1_555
O2B Na1B 1_555 1_555
O3E C4E 1_555 1_555
O3D Na2 1_555 1_555
O3A Na3 1_555 1_555
O3A_2 Na2E 1_555 1_555
O3D_2 Na2_2 1_555 1_555
H1B O4 1_555 1_555
O5B H2B 1_555 1_555
O5E H2E 1_555 1_555
H3B O5B 1_555 1_555
H3E O5E 1_555 1_555
O6E Na3 1_555 1_555
O6B H4B 1_555 1_555
H4E O6E 1_555 1_555
H5E O6E 1_555 1_555
H5B O6B 1_555 1_555
O7B Na1 1_555 1_555
H6B O7B 1_555 1_555
H7B O7B 1_555 1_555
O8E Na3 1_555 1_555
O8E_2 H8E_2 1_555 1_555
O8_2 H8_2 1_555 1_555
H8E O8E 1_555 1_555
H9E O8E 1_555 1_555
H9E_2 O8E_2 1_555 1_555
H9_2 O8_2 1_555 1_555
Na1B O4 1_555 1_555
Na1E O2E 1_555 1_555
Na2E N2 1_555 1_555
Na2D O3 1_555 1_555
Na2E_2 O3A 1_555 1_555
Na2B O2B 1_555 1_555
Na2_2 O8_2 1_555 1_555
Na2A O3E 1_555 1_555
Na3E O2 1_555 1_555
Na3A O3 1_555 1_555
Na3D O3 1_555 1_555
Na3E_2 O8 1_555 1_555
Na3G O2B 1_555 1_555
Na3_2 O3A_2 1_555 1_555
Na3A_2 O3E 1_555 1_555
Na3D_2 O3E 1_555 1_555
C3 N3 1_555 1_555
C5 N5 1_555 1_555
C6 N7 1_555 1_555
N7 Na2E 1_555 1_555
O2 Na2 1_555 1_555
O4 Na1 1_555 1_555
O5 Na1 1_555 1_555
O5 Na2 1_555 1_555
O6 Na1 1_555 1_555
O6 Na3E 1_555 1_555
O7 Na1 1_555 1_555
O7 Na1B 1_555 1_555
O8 Na2 1_555 1_555
Na3 O3D 1_555 1_555
C1E N2E 1_555 1_555
C1E N7E 1_555 1_555
C2E O2E 1_555 1_555
C3E N3E 1_555 1_555
C5E N5E 1_555 1_555
C6E N7E 1_555 1_555
N2E Na2E 1_555 1_555
N7E Na3E 1_555 1_555
O2E Na2E 1_555 1_555
O3D Na3E_2 1_555 1_555
O3A Na3E_2 1_555 1_555
O3A_2 Na3E 1_555 1_555
O3D_2 Na3E 1_555 1_555
O3D_2 Na3_2 1_555 1_555
O5B Na1B 1_555 1_555
O5B Na2B 1_555 1_555
O5E Na1E 1_555 1_555
O5E Na2E 1_555 1_555
O6E Na1E 1_555 1_555
O6B Na1B 1_555 1_555
O6B Na3G 1_555 1_555
O7B Na1B 1_555 1_555
O8E Na2E_2 1_555 1_555
O8E_2 Na2E 1_555 1_555
O8E_2 Na3_2 1_555 1_555
O8_2 Na3E 1_555 1_555

#END
