
#######################################################################
#
#                 Cambridge Crystallographic Data Centre
#                                CCDC 
#
#######################################################################
#
# If this CIF has been generated from an entry in the Cambridge 
# Structural Database, then it will include bibliographic, chemical, 
# crystal, experimental, refinement or atomic coordinate data resulting 
# from the CCDC's data processing and validation procedures.
#
#######################################################################

data_FAJNUA01
_symmetry_cell_setting           triclinic
_symmetry_space_group_name_H-M   'P -1'
_symmetry_Int_Tables_number      2
_space_group_name_Hall           '-P 1'
loop_
_symmetry_equiv_pos_site_id
_symmetry_equiv_pos_as_xyz
1 x,y,z
2 -x,-y,-z
_cell_length_a                   14.8580(8)
_cell_length_b                   20.1452(11)
_cell_length_c                   28.5113(16)
_cell_angle_alpha                96.7340(10)
_cell_angle_beta                 94.6110(10)
_cell_angle_gamma                93.6480(10)
_cell_volume                     8424.59
loop_
_atom_site_label
_atom_site_type_symbol
_atom_site_fract_x
_atom_site_fract_y
_atom_site_fract_z
Tl1 Tl -0.30077(3) 0.26370(3) 0.108076(17)
Tl2 Tl -0.07074(3) 0.29736(2) 0.052416(17)
Tl3 Tl 0.11023(3) 0.35178(3) 0.266746(17)
Tl4 Tl -0.05493(3) 0.20329(3) 0.284280(17)
Tl5 Tl -0.77583(3) 0.36395(3) -0.517190(17)
Tl6 Tl -0.80556(3) 0.16803(3) -0.530640(17)
Tl7 Tl -0.64252(3) 0.36051(3) -0.302290(17)
Tl8 Tl -0.52543(3) 0.20460(3) -0.341570(18)
Tl9 Tl -0.47573(3) 0.33055(3) -0.092850(17)
Tl10 Tl -0.27528(3) 0.25321(3) -0.149610(17)
Cu1 Cu -0.07689(8) 0.28752(7) 0.17896(4)
Cu2 Cu 0.11952(8) 0.26858(7) 0.37587(4)
Cu3 Cu -0.69421(8) 0.27275(7) -0.42200(4)
Cu4 Cu -0.48355(8) 0.29227(7) -0.22056(4)
Cu5 Cu -0.28864(8) 0.28143(7) -0.02026(5)
O1 O -0.1520(5) 0.3456(4) 0.1481(3)
O2 O -0.1110(5) 0.2243(3) 0.1229(3)
O3 O -0.0674(5) 0.3341(4) 0.2434(3)
O4 O 0.0252(5) 0.2435(4) 0.2034(3)
O5 O 0.0166(5) 0.3084(4) 0.3482(2)
O6 O 0.1405(5) 0.2422(4) 0.3104(3)
O7 O -0.9120(5) 0.2750(4) -0.5590(3)
O8 O -0.7623(5) 0.2543(4) -0.5953(3)
O9 O -0.8149(5) 0.2580(5) -0.4518(2)
O10 O -0.6635(5) 0.2777(4) -0.4859(2)
O11 O -0.7155(5) 0.2506(5) -0.3600(3)
O12 O -0.5778(5) 0.3058(4) -0.3902(3)
O13 O -0.5903(5) 0.2497(4) -0.2569(2)
O14 O -0.4677(5) 0.3294(4) -0.2796(3)
O15 O -0.4828(5) 0.2404(4) -0.1679(3)
O16 O -0.3955(5) 0.3492(4) -0.1786(2)
O17 O -0.3575(5) 0.2243(4) -0.0708(3)
O18 O -0.3002(5) 0.3464(4) -0.0649(3)
O19 O -0.2513(6) 0.2160(4) 0.0195(3)
O20 O -0.2456(5) 0.3432(4) 0.0344(3)
C1 C -0.1463(7) 0.4105(6) 0.1612(4)
C2 C -0.2230(8) 0.4448(6) 0.1708(4)
C3 C -0.2204(9) 0.5120(7) 0.1853(5)
C4 C -0.1419(11) 0.5503(6) 0.1919(6)
C5 C -0.0640(9) 0.5188(7) 0.1812(5)
C6 C -0.0643(7) 0.4495(6) 0.1671(4)
C7 C -0.1069(8) 0.1598(6) 0.1239(4)
C8 C -0.0665(7) 0.1204(6) 0.0885(4)
C9 C -0.0617(8) 0.0518(7) 0.0865(5)
C10 C -0.0991(11) 0.0197(7) 0.1211(6)
C11 C -0.1402(9) 0.0543(8) 0.1555(6)
C12 C -0.1453(8) 0.1241(7) 0.1558(5)
C13 C -0.1307(8) 0.3695(6) 0.2606(4)
C14 C -0.2207(8) 0.3456(7) 0.2610(5)
C15 C -0.2836(9) 0.3835(8) 0.2781(5)
C16 C -0.2635(11) 0.4480(8) 0.2968(5)
C17 C -0.1751(10) 0.4758(7) 0.2976(4)
C18 C -0.1107(9) 0.4357(7) 0.2799(4)
C19 C 0.0844(8) 0.2152(8) 0.1743(5)
C20 C 0.1304(9) 0.2519(10) 0.1447(5)
C21 C 0.1977(11) 0.2224(10) 0.1175(6)
C22 C 0.2129(12) 0.1592(12) 0.1217(7)
C23 C 0.1691(11) 0.1185(11) 0.1486(6)
C24 C 0.1031(11) 0.1489(10) 0.1763(6)
C25 C -0.0253(8) 0.3544(6) 0.3725(4)
C26 C -0.1208(10) 0.3464(7) 0.3763(4)
C27 C -0.1655(11) 0.3949(8) 0.3999(5)
C28 C -0.1198(13) 0.4499(10) 0.4214(6)
C29 C -0.0259(13) 0.4613(8) 0.4186(6)
C30 C 0.0180(10) 0.4129(7) 0.3941(5)
C31 C 0.1852(8) 0.1914(8) 0.2958(4)
C32 C 0.2518(9) 0.1946(8) 0.2637(5)
C33 C 0.2990(11) 0.1453(11) 0.2474(6)
C34 C 0.2798(15) 0.0827(13) 0.2621(6)
C35 C 0.2132(13) 0.0735(9) 0.2915(7)
C36 C 0.1707(11) 0.1280(8) 0.3092(5)
C37 C -0.9960(7) 0.2698(6) -0.5460(4)
C38 C -1.0527(9) 0.2106(7) -0.5578(5)
C39 C -1.1353(9) 0.2028(8) -0.5424(5)
C40 C -1.1659(9) 0.2547(10) -0.5131(5)
C41 C -1.1097(10) 0.3132(8) -0.4991(5)
C42 C -1.0279(8) 0.3170(7) -0.5165(5)
C43 C -0.6915(8) 0.2502(7) -0.6192(4)
C44 C -0.6579(8) 0.3050(8) -0.6410(4)
C45 C -0.5826(10) 0.3022(9) -0.6646(5)
C46 C -0.5388(9) 0.2477(10) -0.6675(5)
C47 C -0.5651(9) 0.1937(8) -0.6480(5)
C48 C -0.6431(8) 0.1958(7) -0.6235(4)
C49 C -0.8914(8) 0.2643(8) -0.4314(4)
C50 C -0.9602(8) 0.2131(7) -0.4367(4)
C51 C -1.0376(8) 0.2201(9) -0.4167(5)
C52 C -1.0553(9) 0.2791(11) -0.3920(6)
C53 C -0.9903(10) 0.3310(10) -0.3849(5)
C54 C -0.9116(8) 0.3239(8) -0.4051(4)
C55 C -0.5864(8) 0.2624(7) -0.5031(4)
C56 C -0.5403(9) 0.3073(10) -0.5283(5)
C57 C -0.4633(11) 0.2895(16) -0.5506(5)
C58 C -0.4328(16) 0.2302(17) -0.5494(9)
C59 C -0.4791(15) 0.1832(14) -0.5253(7)
C60 C -0.5524(11) 0.2019(10) -0.5018(6)
C61 C -0.7858(8) 0.2116(9) -0.3517(5)
C62 C -0.8021(13) 0.1459(10) -0.3733(7)
C63 C -0.8751(17) 0.1080(13) -0.3617(11)
C64 C -0.9350(17) 0.1277(16) -0.3348(9)
C65 C -0.9213(13) 0.1940(18) -0.3132(7)
C66 C -0.8504(10) 0.2359(11) -0.3212(5)
C67 C -0.5259(8) 0.3536(7) -0.4069(4)
C68 C -0.5589(8) 0.4117(7) -0.4190(5)
C69 C -0.5055(11) 0.4619(8) -0.4339(6)
C70 C -0.4126(10) 0.4543(9) -0.4360(6)
C71 C -0.3809(9) 0.3969(9) -0.4240(5)
C72 C -0.4325(9) 0.3439(8) -0.4102(5)
C73 C -0.6627(8) 0.2247(7) -0.2374(4)
C74 C -0.7006(8) 0.1619(7) -0.2520(5)
C75 C -0.7749(9) 0.1339(8) -0.2348(6)
C76 C -0.8138(10) 0.1713(10) -0.2013(7)
C77 C -0.7796(10) 0.2369(9) -0.1828(5)
C78 C -0.7027(9) 0.2617(7) -0.2014(4)
C79 C -0.3901(10) 0.3623(7) -0.2876(4)
C80 C -0.3917(11) 0.4243(8) -0.3001(5)
C81 C -0.3112(15) 0.4609(9) -0.3078(6)
C82 C -0.2324(15) 0.4353(12) -0.3021(6)
C83 C -0.2275(13) 0.3731(10) -0.2896(6)
C84 C -0.3101(11) 0.3360(8) -0.2818(5)
C85 C -0.5189(7) 0.1776(6) -0.1719(4)
C86 C -0.4930(8) 0.1264(7) -0.2023(5)
C87 C -0.5281(9) 0.0617(7) -0.2038(5)
C88 C -0.5934(9) 0.0460(7) -0.1749(5)
C89 C -0.6218(8) 0.0965(7) -0.1445(5)
C90 C -0.5839(8) 0.1587(6) -0.1418(4)
C91 C -0.3778(7) 0.4134(6) -0.1841(4)
C92 C -0.4460(7) 0.4554(7) -0.1892(5)
C93 C -0.4297(10) 0.5197(7) -0.1946(6)
C94 C -0.3419(10) 0.5473(7) -0.1941(6)
C95 C -0.2729(8) 0.5092(6) -0.1873(4)
C96 C -0.2916(7) 0.4410(6) -0.1827(4)
C97 C -0.4007(8) 0.1669(6) -0.0645(4)
C98 C -0.3845(7) 0.1069(6) -0.0908(4)
C99 C -0.4294(9) 0.0460(6) -0.0862(5)
C100 C -0.4927(8) 0.0448(7) -0.0554(5)
C101 C -0.5137(9) 0.1018(8) -0.0292(5)
C102 C -0.4656(9) 0.1627(6) -0.0346(4)
C103 C -0.2427(7) 0.4007(6) -0.0622(4)
C104 C -0.2732(7) 0.4632(6) -0.0667(4)
C105 C -0.2176(8) 0.5186(6) -0.0647(4)
C106 C -0.1242(9) 0.5135(7) -0.0590(5)
C107 C -0.0920(8) 0.4539(7) -0.0552(5)
C108 C -0.1512(8) 0.3991(6) -0.0569(4)
C109 C -0.2345(8) 0.1545(7) 0.0056(5)
C110 C -0.1847(9) 0.1373(7) -0.0323(6)
C111 C -0.1648(10) 0.0760(8) -0.0455(6)
C112 C -0.1909(10) 0.0228(7) -0.0237(6)
C113 C -0.2435(10) 0.0357(7) 0.0147(6)
C114 C -0.2643(9) 0.1007(7) 0.0276(6)
C115 C -0.2728(7) 0.4038(6) 0.0427(4)
C116 C -0.3619(8) 0.4191(7) 0.0419(5)
C117 C -0.3873(9) 0.4845(9) 0.0521(6)
C118 C -0.3218(12) 0.5352(8) 0.0636(6)
C119 C -0.2337(10) 0.5224(7) 0.0653(5)
C120 C -0.2113(8) 0.4598(5) 0.0545(4)
F1 F -0.3047(4) 0.4105(4) 0.1650(3)
F2 F -0.2940(6) 0.5410(5) 0.1957(4)
F3 F -0.1341(7) 0.6144(4) 0.2048(4)
F4 F 0.0193(6) 0.5540(4) 0.1860(4)
F5 F 0.0093(5) 0.4212(4) 0.1589(3)
F6 F -0.0265(5) 0.1536(4) 0.0551(2)
F7 F -0.0242(6) 0.0192(4) 0.0516(3)
F8 F -0.0964(7) -0.0452(4) 0.1183(4)
F9 F -0.1747(6) 0.0243(5) 0.1894(4)
F10 F -0.1855(5) 0.1578(4) 0.1911(3)
F11 F -0.2425(5) 0.2827(4) 0.2417(3)
F12 F -0.3678(6) 0.3586(5) 0.2772(4)
F13 F -0.3252(6) 0.4866(5) 0.3145(3)
F14 F -0.1552(6) 0.5396(4) 0.3144(3)
F15 F -0.0254(5) 0.4639(4) 0.2813(3)
F16 F 0.1126(6) 0.3134(5) 0.1420(3)
F17 F 0.2412(7) 0.2596(7) 0.0912(4)
F18 F 0.2769(7) 0.1335(7) 0.0962(4)
F19 F 0.1878(8) 0.0579(5) 0.1537(5)
F20 F 0.0594(6) 0.1126(4) 0.2046(4)
F21 F -0.1649(5) 0.2911(4) 0.3566(3)
F22 F -0.2541(6) 0.3860(5) 0.4041(4)
F23 F -0.1579(9) 0.4999(6) 0.4475(4)
F24 F 0.0221(8) 0.5157(5) 0.4400(4)
F25 F 0.1087(6) 0.4228(4) 0.3919(3)
F26 F 0.2683(5) 0.2558(6) 0.2491(3)
F27 F 0.3582(7) 0.1473(7) 0.2170(4)
F28 F 0.3195(10) 0.0281(8) 0.2460(4)
F29 F 0.1969(10) 0.0136(6) 0.3071(4)
F30 F 0.1081(6) 0.1197(4) 0.3403(3)
F31 F -1.0220(5) 0.1597(5) -0.5856(3)
F32 F -1.1862(6) 0.1466(5) -0.5531(4)
F33 F -1.2448(5) 0.2478(6) -0.4951(3)
F34 F -1.1400(6) 0.3622(5) -0.4722(3)
F35 F -0.9765(5) 0.3748(4) -0.5026(3)
F36 F -0.7046(6) 0.3614(5) -0.6374(3)
F37 F -0.5536(7) 0.3543(6) -0.6864(4)
F38 F -0.4630(6) 0.2436(6) -0.6928(4)
F39 F -0.5220(6) 0.1367(5) -0.6512(3)
F40 F -0.6687(5) 0.1417(4) -0.6040(3)
F41 F -0.9467(5) 0.1550(4) -0.4617(3)
F42 F -1.1037(6) 0.1700(5) -0.4228(3)
F43 F -1.1355(6) 0.2864(7) -0.3729(4)
F44 F -1.0076(7) 0.3916(7) -0.3622(4)
F45 F -0.8463(6) 0.3743(5) -0.4003(3)
F46 F -0.5732(7) 0.3665(6) -0.5320(3)
F47 F -0.4254(7) 0.3374(8) -0.5747(4)
F48 F -0.3638(7) 0.2165(9) -0.5738(4)
F49 F -0.4468(10) 0.1262(9) -0.5262(4)
F50 F -0.5936(8) 0.1572(5) -0.4799(4)
F51 F -0.7455(8) 0.1215(5) -0.4002(4)
F52 F -0.8901(10) 0.0471(7) -0.3811(5)
F53 F -1.0060(10) 0.0945(11) -0.3227(5)
F54 F -0.9776(8) 0.2198(12) -0.2839(4)
F55 F -0.8367(6) 0.2973(7) -0.3009(3)
F56 F -0.6465(5) 0.4189(4) -0.4172(3)
F57 F -0.5404(7) 0.5165(5) -0.4444(4)
F58 F -0.3588(7) 0.5023(6) -0.4491(4)
F59 F -0.2902(5) 0.3889(6) -0.4251(4)
F60 F -0.3979(5) 0.2913(4) -0.3987(3)
F61 F -0.6644(5) 0.1235(4) -0.2868(3)
F62 F -0.8085(6) 0.0733(5) -0.2505(4)
F63 F -0.8881(6) 0.1444(6) -0.1839(4)
F64 F -0.8167(7) 0.2712(6) -0.1501(4)
F65 F -0.6677(5) 0.3209(4) -0.1849(3)
F66 F -0.4689(7) 0.4541(5) -0.3050(4)
F67 F -0.3192(9) 0.5240(6) -0.3199(5)
F68 F -0.1561(8) 0.4720(6) -0.3094(4)
F69 F -0.1490(7) 0.3491(7) -0.2833(4)
F70 F -0.3023(5) 0.2762(4) -0.2696(3)
F71 F -0.4299(5) 0.1410(4) -0.2324(3)
F72 F -0.5001(6) 0.0136(4) -0.2356(4)
F73 F -0.6287(6) -0.0167(4) -0.1769(3)
F74 F -0.6851(5) 0.0807(4) -0.1162(3)
F75 F -0.6119(5) 0.2067(4) -0.1110(3)
F76 F -0.5318(5) 0.4293(4) -0.1924(4)
F77 F -0.4989(7) 0.5582(5) -0.2031(5)
F78 F -0.3267(7) 0.6124(4) -0.2000(4)
F79 F -0.1891(5) 0.5339(4) -0.1864(3)
F80 F -0.2215(4) 0.4042(4) -0.1768(2)
F81 F -0.3229(5) 0.1076(4) -0.1231(3)
F82 F -0.4118(6) -0.0090(4) -0.1132(3)
F83 F -0.5399(6) -0.0127(4) -0.0511(3)
F84 F -0.5765(6) 0.1007(5) 0.0010(3)
F85 F -0.4862(5) 0.2180(4) -0.0081(3)
F86 F -0.3627(4) 0.4690(3) -0.0716(3)
F87 F -0.2498(6) 0.5787(4) -0.0697(3)
F88 F -0.0694(5) 0.5698(4) -0.0577(3)
F89 F -0.0036(5) 0.4486(4) -0.0491(4)
F90 F -0.1163(4) 0.3388(3) -0.0527(3)
F91 F -0.1521(5) 0.1873(4) -0.0555(3)
F92 F -0.1128(7) 0.0628(5) -0.0825(4)
F93 F -0.1662(7) -0.0395(4) -0.0358(4)
F94 F -0.2683(6) -0.0127(4) 0.0395(4)
F95 F -0.3123(6) 0.1126(4) 0.0656(3)
F96 F -0.4265(5) 0.3688(5) 0.0307(4)
F97 F -0.4731(7) 0.4937(7) 0.0516(5)
F98 F -0.3463(8) 0.5983(5) 0.0751(5)
F99 F -0.1712(6) 0.5740(4) 0.0775(3)
F100 F -0.1233(4) 0.4494(3) 0.0571(2)
O21 O 0.0646(8) 0.2419(6) -0.0088(4)
C127 C 0.1208(14) 0.2902(10) -0.0216(8)
H1 H 0.1291 0.3284 0.0034
H2 H 0.0951 0.3058 -0.0508
C128 C 0.2113(14) 0.2617(10) -0.0297(7)
H3 H 0.2360 0.2770 -0.0578
H4 H 0.2553 0.2748 -0.0021
C129 C 0.1894(16) 0.1888(10) -0.0367(9)
H5 H 0.2349 0.1661 -0.0189
H6 H 0.1876 0.1714 -0.0703
C130 C 0.0993(12) 0.1780(8) -0.0189(7)
H7 H 0.0585 0.1496 -0.0429
H8 H 0.1048 0.1558 0.0099
O22 O -0.1951(9) 0.1354(7) 0.3193(7)
C131 C -0.1855(13) 0.0686(9) 0.3275(9)
H9 H -0.1465 0.0659 0.3565
H10 H -0.1619 0.0423 0.3007
C132 C -0.2797(16) 0.0473(15) 0.3325(12)
H11 H -0.2923 0.0006 0.3183
H12 H -0.2892 0.0496 0.3662
C133 C -0.338(2) 0.0865(18) 0.3110(19)
H13 H -0.3910 0.0937 0.3291
H14 H -0.3591 0.0667 0.2786
C134 C -0.2819(17) 0.1485(13) 0.3115(11)
H15 H -0.2916 0.1661 0.2810
H16 H -0.2977 0.1822 0.3365
Cu2_2 Cu -0.88048(8) 0.26858(7) -0.62413(4)
O7_2 O 0.0880(5) 0.2750(4) 0.4410(3)
O8_2 O 0.2377(5) 0.2543(4) 0.4047(3)
C121 C -0.5334(11) 0.2374(13) 0.1032(8)
D1 D -0.5637 0.2431 0.0739
C122 C -0.5020(12) 0.1762(10) 0.1117(7)
D2 D -0.5121 0.1395 0.0879
C123 C -0.4587(13) 0.1688(10) 0.1522(8)
D3 D -0.4366 0.1272 0.1569
C124 C -0.4453(11) 0.2214(11) 0.1879(6)
D4 D -0.4143 0.2172 0.2173
C125 C -0.4799(11) 0.2809(9) 0.1782(7)
D5 D -0.4743 0.3176 0.2021
C126 C -0.5189(12) 0.2875(10) 0.1381(7)
D6 D -0.5383 0.3297 0.1327
C135 C 0.1022(10) 0.0007(9) 0.4592(7)
D7 D 0.0386 -0.0029 0.4554
C136 C 0.1464(14) 0.0039(9) 0.5034(6)
D8 D 0.1132 0.0025 0.5300
C137 C 0.2389(14) 0.0090(9) 0.5089(6)
D9 D 0.2693 0.0112 0.5393
C138 C 0.2872(10) 0.0110(8) 0.4702(7)
D10 D 0.3508 0.0146 0.4740
C139 C 0.2430(12) 0.0078(8) 0.4260(6)
D11 D 0.2762 0.0092 0.3994
C140 C 0.1505(12) 0.0027(8) 0.4205(5)
D12 D 0.1201 0.0005 0.3901
C141 C 0.5880(16) 0.0579(11) 0.6635(8)
D13 D 0.5769 0.0332 0.6887
C142 C 0.5384(13) 0.0454(8) 0.6220(9)
D14 D 0.4940 0.0092 0.6176
C143 C 0.5485(13) 0.0813(11) 0.5866(7)
D15 D 0.5062 0.0755 0.5598
C144 C 0.6182(17) 0.1250(11) 0.5894(6)
D16 D 0.6317 0.1462 0.5629
C145 C 0.6727(13) 0.1398(10) 0.6322(9)
D17 D 0.7217 0.1725 0.6357
C146 C 0.6523(16) 0.1057(13) 0.6679(6)
D18 D 0.6859 0.1168 0.6975
C147 C 0.9499(12) 0.2620(9) 0.8396(7)
D19 D 0.9808 0.2998 0.8578
C148 C 0.9420(12) 0.2009(11) 0.8584(6)
D20 D 0.9676 0.1977 0.8892
C149 C 0.8959(12) 0.1445(9) 0.8313(7)
D21 D 0.8906 0.1035 0.8439
C150 C 0.8576(11) 0.1493(9) 0.7854(7)
D22 D 0.8267 0.1115 0.7672
C151 C 0.8655(11) 0.2104(10) 0.7665(5)
D23 D 0.8399 0.2137 0.7357
C152 C 0.9116(12) 0.2668(9) 0.7936(7)
D24 D 0.9169 0.3078 0.7810
loop_
_geom_bond_atom_site_label_1
_geom_bond_atom_site_label_2
_geom_bond_site_symmetry_1
_geom_bond_site_symmetry_2
Tl1 Tl2 1_555 1_555
Tl2 O1 1_555 1_555
Tl3 Tl4 1_555 1_555
Tl4 O3 1_555 1_555
Tl5 Tl6 1_555 1_555
Tl6 O7 1_555 1_555
Tl7 Tl8 1_555 1_555
Tl8 O11 1_555 1_555
Tl9 Tl10 1_555 1_555
Tl10 O15 1_555 1_555
Cu1 O1 1_555 1_555
Cu2 O5 1_555 1_555
Cu3 O9 1_555 1_555
Cu4 O13 1_555 1_555
Cu5 O17 1_555 1_555
O1 Tl1 1_555 1_555
O2 Tl1 1_555 1_555
O3 Tl3 1_555 1_555
O4 Tl3 1_555 1_555
O5 Tl3 1_555 1_555
O6 Tl3 1_555 1_555
O7 Tl5 1_555 1_555
O8 Tl5 1_555 1_555
O9 Tl5 1_555 1_555
O10 Tl5 1_555 1_555
O11 Tl7 1_555 1_555
O12 Tl7 1_555 1_555
O13 Tl7 1_555 1_555
O14 Tl7 1_555 1_555
O15 Tl9 1_555 1_555
O16 Tl9 1_555 1_555
O17 Tl9 1_555 1_555
O18 Tl9 1_555 1_555
O19 Tl1 1_555 1_555
O20 Tl1 1_555 1_555
C1 O1 1_555 1_555
C2 C1 1_555 1_555
C3 C2 1_555 1_555
C4 C3 1_555 1_555
C5 C4 1_555 1_555
C6 C1 1_555 1_555
C7 O2 1_555 1_555
C8 C7 1_555 1_555
C9 C8 1_555 1_555
C10 C9 1_555 1_555
C11 C10 1_555 1_555
C12 C7 1_555 1_555
C13 O3 1_555 1_555
C14 C13 1_555 1_555
C15 C14 1_555 1_555
C16 C15 1_555 1_555
C17 C16 1_555 1_555
C18 C13 1_555 1_555
C19 O4 1_555 1_555
C20 C19 1_555 1_555
C21 C20 1_555 1_555
C22 C21 1_555 1_555
C23 C22 1_555 1_555
C24 C19 1_555 1_555
C25 O5 1_555 1_555
C26 C25 1_555 1_555
C27 C26 1_555 1_555
C28 C27 1_555 1_555
C29 C28 1_555 1_555
C30 C25 1_555 1_555
C31 O6 1_555 1_555
C32 C31 1_555 1_555
C33 C32 1_555 1_555
C34 C33 1_555 1_555
C35 C34 1_555 1_555
C36 C31 1_555 1_555
C37 O7 1_555 1_555
C38 C37 1_555 1_555
C39 C38 1_555 1_555
C40 C39 1_555 1_555
C41 C40 1_555 1_555
C42 C37 1_555 1_555
C43 O8 1_555 1_555
C44 C43 1_555 1_555
C45 C44 1_555 1_555
C46 C45 1_555 1_555
C47 C46 1_555 1_555
C48 C43 1_555 1_555
C49 O9 1_555 1_555
C50 C49 1_555 1_555
C51 C50 1_555 1_555
C52 C51 1_555 1_555
C53 C52 1_555 1_555
C54 C49 1_555 1_555
C55 O10 1_555 1_555
C56 C55 1_555 1_555
C57 C56 1_555 1_555
C58 C57 1_555 1_555
C59 C58 1_555 1_555
C60 C55 1_555 1_555
C61 O11 1_555 1_555
C62 C61 1_555 1_555
C63 C62 1_555 1_555
C64 C63 1_555 1_555
C65 C64 1_555 1_555
C66 C61 1_555 1_555
C67 O12 1_555 1_555
C68 C67 1_555 1_555
C69 C68 1_555 1_555
C70 C69 1_555 1_555
C71 C70 1_555 1_555
C72 C67 1_555 1_555
C73 O13 1_555 1_555
C74 C73 1_555 1_555
C75 C74 1_555 1_555
C76 C75 1_555 1_555
C77 C76 1_555 1_555
C78 C73 1_555 1_555
C79 O14 1_555 1_555
C80 C79 1_555 1_555
C81 C80 1_555 1_555
C82 C81 1_555 1_555
C83 C82 1_555 1_555
C84 C79 1_555 1_555
C85 O15 1_555 1_555
C86 C85 1_555 1_555
C87 C86 1_555 1_555
C88 C87 1_555 1_555
C89 C88 1_555 1_555
C90 C85 1_555 1_555
C91 O16 1_555 1_555
C92 C91 1_555 1_555
C93 C92 1_555 1_555
C94 C93 1_555 1_555
C95 C94 1_555 1_555
C96 C91 1_555 1_555
C97 O17 1_555 1_555
C98 C97 1_555 1_555
C99 C98 1_555 1_555
C100 C99 1_555 1_555
C101 C100 1_555 1_555
C102 C97 1_555 1_555
C103 O18 1_555 1_555
C104 C103 1_555 1_555
C105 C104 1_555 1_555
C106 C105 1_555 1_555
C107 C106 1_555 1_555
C108 C103 1_555 1_555
C109 O19 1_555 1_555
C110 C109 1_555 1_555
C111 C110 1_555 1_555
C112 C111 1_555 1_555
C113 C112 1_555 1_555
C114 C109 1_555 1_555
C115 O20 1_555 1_555
C116 C115 1_555 1_555
C117 C116 1_555 1_555
C118 C117 1_555 1_555
C119 C118 1_555 1_555
C120 C115 1_555 1_555
F1 C2 1_555 1_555
F2 C3 1_555 1_555
F3 C4 1_555 1_555
F4 C5 1_555 1_555
F5 C6 1_555 1_555
F6 C8 1_555 1_555
F7 C9 1_555 1_555
F8 C10 1_555 1_555
F9 C11 1_555 1_555
F10 C12 1_555 1_555
F11 C14 1_555 1_555
F12 C15 1_555 1_555
F13 C16 1_555 1_555
F14 C17 1_555 1_555
F15 C18 1_555 1_555
F16 C20 1_555 1_555
F17 C21 1_555 1_555
F18 C22 1_555 1_555
F19 C23 1_555 1_555
F20 C24 1_555 1_555
F21 C26 1_555 1_555
F22 C27 1_555 1_555
F23 C28 1_555 1_555
F24 C29 1_555 1_555
F25 C30 1_555 1_555
F26 C32 1_555 1_555
F27 C33 1_555 1_555
F28 C34 1_555 1_555
F29 C35 1_555 1_555
F30 C36 1_555 1_555
F31 C38 1_555 1_555
F32 C39 1_555 1_555
F33 C40 1_555 1_555
F34 C41 1_555 1_555
F35 C42 1_555 1_555
F36 C44 1_555 1_555
F37 C45 1_555 1_555
F38 C46 1_555 1_555
F39 C47 1_555 1_555
F40 C48 1_555 1_555
F41 C50 1_555 1_555
F42 C51 1_555 1_555
F43 C52 1_555 1_555
F44 C53 1_555 1_555
F45 C54 1_555 1_555
F46 C56 1_555 1_555
F47 C57 1_555 1_555
F48 C58 1_555 1_555
F49 C59 1_555 1_555
F50 C60 1_555 1_555
F51 C62 1_555 1_555
F52 C63 1_555 1_555
F53 C64 1_555 1_555
F54 C65 1_555 1_555
F55 C66 1_555 1_555
F56 C68 1_555 1_555
F57 C69 1_555 1_555
F58 C70 1_555 1_555
F59 C71 1_555 1_555
F60 C72 1_555 1_555
F61 C74 1_555 1_555
F62 C75 1_555 1_555
F63 C76 1_555 1_555
F64 C77 1_555 1_555
F65 C78 1_555 1_555
F66 C80 1_555 1_555
F67 C81 1_555 1_555
F68 C82 1_555 1_555
F69 C83 1_555 1_555
F70 C84 1_555 1_555
F71 C86 1_555 1_555
F72 C87 1_555 1_555
F73 C88 1_555 1_555
F74 C89 1_555 1_555
F75 C90 1_555 1_555
F76 C92 1_555 1_555
F77 C93 1_555 1_555
F78 C94 1_555 1_555
F79 C95 1_555 1_555
F80 C96 1_555 1_555
F81 C98 1_555 1_555
F82 C99 1_555 1_555
F83 C100 1_555 1_555
F84 C101 1_555 1_555
F85 C102 1_555 1_555
F86 C104 1_555 1_555
F87 C105 1_555 1_555
F88 C106 1_555 1_555
F89 C107 1_555 1_555
F90 C108 1_555 1_555
F91 C110 1_555 1_555
F92 C111 1_555 1_555
F93 C112 1_555 1_555
F94 C113 1_555 1_555
F95 C114 1_555 1_555
F96 C116 1_555 1_555
F97 C117 1_555 1_555
F98 C118 1_555 1_555
F99 C119 1_555 1_555
F100 C120 1_555 1_555
C121 D1 1_555 1_555
C122 C121 1_555 1_555
D2 C122 1_555 1_555
C123 C122 1_555 1_555
D3 C123 1_555 1_555
C124 C123 1_555 1_555
D4 C124 1_555 1_555
C125 C124 1_555 1_555
D5 C125 1_555 1_555
C126 C121 1_555 1_555
D6 C126 1_555 1_555
O21 Tl2 1_555 1_555
C127 O21 1_555 1_555
H1 C127 1_555 1_555
H2 C127 1_555 1_555
C128 C127 1_555 1_555
H3 C128 1_555 1_555
H4 C128 1_555 1_555
C129 C128 1_555 1_555
H5 C129 1_555 1_555
H6 C129 1_555 1_555
C130 O21 1_555 1_555
H7 C130 1_555 1_555
H8 C130 1_555 1_555
O22 Tl4 1_555 1_555
C131 O22 1_555 1_555
H9 C131 1_555 1_555
H10 C131 1_555 1_555
C132 C131 1_555 1_555
H11 C132 1_555 1_555
H12 C132 1_555 1_555
C133 C132 1_555 1_555
H13 C133 1_555 1_555
H14 C133 1_555 1_555
C134 O22 1_555 1_555
H15 C134 1_555 1_555
H16 C134 1_555 1_555
C135 D7 1_555 1_555
C136 C135 1_555 1_555
D8 C136 1_555 1_555
C137 C136 1_555 1_555
D9 C137 1_555 1_555
C138 C137 1_555 1_555
D10 C138 1_555 1_555
C139 C138 1_555 1_555
D11 C139 1_555 1_555
C140 C135 1_555 1_555
D12 C140 1_555 1_555
C141 D13 1_555 1_555
C142 C141 1_555 1_555
D14 C142 1_555 1_555
C143 C142 1_555 1_555
D15 C143 1_555 1_555
C144 C143 1_555 1_555
D16 C144 1_555 1_555
C145 C144 1_555 1_555
D17 C145 1_555 1_555
C146 C141 1_555 1_555
D18 C146 1_555 1_555
C147 D19 1_555 1_555
C148 C147 1_555 1_555
D20 C148 1_555 1_555
C149 C148 1_555 1_555
D21 C149 1_555 1_555
C150 C149 1_555 1_555
D22 C150 1_555 1_555
C151 C150 1_555 1_555
D23 C151 1_555 1_555
C152 C147 1_555 1_555
D24 C152 1_555 1_555
Cu2_2 O7 1_555 1_555
O7_2 Cu2 1_555 1_555
O8_2 Cu2 1_555 1_555
Tl2 O2 1_555 1_555
Tl2 O19 1_555 1_555
Tl2 O20 1_555 1_555
Tl4 O4 1_555 1_555
Tl4 O5 1_555 1_555
Tl4 O6 1_555 1_555
Tl6 O8 1_555 1_555
Tl6 O9 1_555 1_555
Tl6 O10 1_555 1_555
Tl8 O12 1_555 1_555
Tl8 O13 1_555 1_555
Tl8 O14 1_555 1_555
Tl10 O16 1_555 1_555
Tl10 O17 1_555 1_555
Tl10 O18 1_555 1_555
Cu1 O2 1_555 1_555
Cu1 O3 1_555 1_555
Cu1 O4 1_555 1_555
Cu2 O6 1_555 1_555
Cu3 O10 1_555 1_555
Cu3 O11 1_555 1_555
Cu3 O12 1_555 1_555
Cu4 O14 1_555 1_555
Cu4 O15 1_555 1_555
Cu4 O16 1_555 1_555
Cu5 O18 1_555 1_555
Cu5 O19 1_555 1_555
Cu5 O20 1_555 1_555
O8 Cu2_2 1_555 1_555
C5 C6 1_555 1_555
C11 C12 1_555 1_555
C17 C18 1_555 1_555
C23 C24 1_555 1_555
C29 C30 1_555 1_555
C35 C36 1_555 1_555
C41 C42 1_555 1_555
C47 C48 1_555 1_555
C53 C54 1_555 1_555
C59 C60 1_555 1_555
C65 C66 1_555 1_555
C71 C72 1_555 1_555
C77 C78 1_555 1_555
C83 C84 1_555 1_555
C89 C90 1_555 1_555
C95 C96 1_555 1_555
C101 C102 1_555 1_555
C107 C108 1_555 1_555
C113 C114 1_555 1_555
C119 C120 1_555 1_555
C125 C126 1_555 1_555
C129 C130 1_555 1_555
C133 C134 1_555 1_555
C139 C140 1_555 1_555
C145 C146 1_555 1_555
C151 C152 1_555 1_555

#END
