
#######################################################################
#
#                 Cambridge Crystallographic Data Centre
#                                CCDC 
#
#######################################################################
#
# If this CIF has been generated from an entry in the Cambridge 
# Structural Database, then it will include bibliographic, chemical, 
# crystal, experimental, refinement or atomic coordinate data resulting 
# from the CCDC's data processing and validation procedures.
#
#######################################################################

data_FAJNUZ
_symmetry_cell_setting           orthorhombic
_symmetry_space_group_name_H-M   'P m m n'
_symmetry_Int_Tables_number      59
_space_group_name_Hall           '-P 2ab 2a'
loop_
_symmetry_equiv_pos_site_id
_symmetry_equiv_pos_as_xyz
1 x,y,z
2 1/2-x,y,z
3 x,1/2-y,z
4 1/2-x,1/2-y,z
5 -x,-y,-z
6 1/2+x,-y,-z
7 -x,1/2+y,-z
8 1/2+x,1/2+y,-z
_cell_length_a                   12.446(5)
_cell_length_b                   8.680(4)
_cell_length_c                   5.000(3)
_cell_angle_alpha                90
_cell_angle_beta                 90
_cell_angle_gamma                90
_cell_volume                     540.156
loop_
_atom_site_label
_atom_site_type_symbol
_atom_site_fract_x
_atom_site_fract_y
_atom_site_fract_z
Hg1 Hg 0.75000 0.25000 0.02427(14)
Cl1 Cl 0.9367(3) 0.2500 -0.0117(6)
S1 S 0.7500 0.4600(4) 0.4954(4)
C1 C 0.6893(6) 0.7500 0.3854(17)
C2 C 0.6407(8) 0.6000(11) 0.4773(15)
C3 C 0.7500 0.7500 0.1220(26)
H1 H 0.581(9) 0.569(17) 0.343(28)
H2 H 0.617(7) 0.621(10) 0.695(17)
H3 H 0.750 0.894(12) 0.113(19)
Cl1A Cl 0.5633(3) 0.2500 -0.0117(6)
S1_2 S 0.7500 0.4600(4) -0.5046(4)
S1B S 0.7500 0.0400(4) -0.5046(4)
S1B_2 S 0.7500 0.0400(4) 0.4954(4)
C2A C 0.8593(8) 0.6000(11) 0.4773(15)
Hg1_2 Hg 0.75000 0.25000 1.02427(14)
C1A C 0.8107(6) 0.7500 0.3854(17)
C2B C 0.6407(8) 0.9000(11) 0.4773(15)
H3B H 0.750 0.606(12) 0.113(19)
H1A H 0.919(9) 0.569(17) 0.343(28)
H2A H 0.883(7) 0.621(10) 0.695(17)
C2C C 0.8593(8) 0.9000(11) 0.4773(15)
S1B_3 S 0.7500 1.0400(4) 0.4954(4)
H1B H 0.581(9) 0.931(17) 0.343(28)
H2B H 0.617(7) 0.879(10) 0.695(17)
H1C H 0.919(9) 0.931(17) 0.343(28)
H2C H 0.883(7) 0.879(10) 0.695(17)
Hg1_3 Hg 0.75000 1.25000 0.02427(14)
Hg1_4 Hg 0.75000 1.25000 1.02427(14)
loop_
_geom_bond_atom_site_label_1
_geom_bond_atom_site_label_2
_geom_bond_site_symmetry_1
_geom_bond_site_symmetry_2
Hg1 Cl1 1_555 1_555
S1 Hg1 1_555 1_555
C1 C2 1_555 1_555
C2 S1 1_555 1_555
C3 C1 1_555 1_555
H1 C2 1_555 1_555
H2 C2 1_555 1_555
H3 C3 1_555 1_555
Cl1A Hg1 1_555 1_555
S1_2 Hg1 1_555 1_555
S1B Hg1 1_555 1_555
S1B_2 Hg1 1_555 1_555
C2A S1 1_555 1_555
Hg1_2 S1 1_555 1_555
C1A C1 1_555 1_555
C2B C1 1_555 1_555
H3B C3 1_555 1_555
H1A C2A 1_555 1_555
H2A C2A 1_555 1_555
C2C C1A 1_555 1_555
S1B_3 C2B 1_555 1_555
H1B C2B 1_555 1_555
H2B C2B 1_555 1_555
H1C C2C 1_555 1_555
H2C C2C 1_555 1_555
Hg1_3 S1B_3 1_555 1_555
Hg1_4 S1B_3 1_555 1_555
C3 C1A 1_555 1_555
S1B_2 Hg1_2 1_555 1_555
C2A C1A 1_555 1_555
C2C S1B_3 1_555 1_555

#END
