
#######################################################################
#
#                 Cambridge Crystallographic Data Centre
#                                CCDC 
#
#######################################################################
#
# If this CIF has been generated from an entry in the Cambridge 
# Structural Database, then it will include bibliographic, chemical, 
# crystal, experimental, refinement or atomic coordinate data resulting 
# from the CCDC's data processing and validation procedures.
#
#######################################################################

data_FAJPAH
_symmetry_cell_setting           triclinic
_symmetry_space_group_name_H-M   'P -1'
_symmetry_Int_Tables_number      2
_space_group_name_Hall           '-P 1'
loop_
_symmetry_equiv_pos_site_id
_symmetry_equiv_pos_as_xyz
1 x,y,z
2 -x,-y,-z
_cell_length_a                   11.765(5)
_cell_length_b                   8.701(4)
_cell_length_c                   7.552(4)
_cell_angle_alpha                115.33(5)
_cell_angle_beta                 103.97(5)
_cell_angle_gamma                83.18(5)
_cell_volume                     677.98
loop_
_atom_site_label
_atom_site_type_symbol
_atom_site_fract_x
_atom_site_fract_y
_atom_site_fract_z
Hg1 Hg -0.06870(5) -0.21232(10) 1.01725(10)
Cl1 Cl -0.1453(3) 0.0827(3) 1.1168(4)
Cl2 Cl 0.0829(2) -0.2987(4) 1.2336(4)
S1 S -0.0848(2) -0.3377(3) 0.6405(3)
S2 S -0.2654(2) -0.3298(3) 0.0537(4)
C1 C -0.2804(9) -0.4139(11) 0.3483(14)
C2 C -0.2142(9) -0.4740(13) 0.5100(15)
C3 C -0.1473(10) -0.1713(12) 0.5538(14)
C4 C -0.2740(9) -0.2172(12) 0.4475(15)
C5 C -0.3110(9) -0.1597(14) 0.2734(16)
C6 C -0.2168(10) -0.4747(12) 0.1753(13)
C7 C -0.4039(10) -0.4782(16) 0.2706(18)
C8 C -0.4893(10) -0.3694(20) 0.3895(22)
C9 C -0.4690(11) -0.2157(19) 0.5378(24)
C10 C -0.3500(10) -0.1327(15) 0.6028(18)
H1 H -0.187 -0.606 0.442
H2 H -0.268 -0.459 0.613
H3 H -0.144 -0.049 0.680
H4 H -0.099 -0.167 0.451
H5 H -0.268 -0.043 0.313
H6 H -0.405 -0.140 0.241
H7 H -0.240 -0.604 0.072
H8 H -0.123 -0.468 0.232
H9 H -0.433 -0.487 0.120
H10 H -0.403 -0.603 0.270
H11 H -0.576 -0.419 0.352
H12 H -0.539 -0.149 0.614
H13 H -0.364 -0.001 0.627
H14 H -0.304 -0.140 0.741
S2_2 S -0.2654(2) -0.3298(3) 1.0537(4)
Hg1_2 Hg -0.06870(5) -0.21232(10) 0.01725(10)
loop_
_geom_bond_atom_site_label_1
_geom_bond_atom_site_label_2
_geom_bond_site_symmetry_1
_geom_bond_site_symmetry_2
Hg1 Cl1 1_555 1_555
Cl2 Hg1 1_555 1_555
S1 Hg1 1_555 1_555
S2 C5 1_555 1_555
C1 C2 1_555 1_555
C2 S1 1_555 1_555
C3 S1 1_555 1_555
C4 C1 1_555 1_555
C5 C4 1_555 1_555
C6 S2 1_555 1_555
C7 C1 1_555 1_555
C8 C7 1_555 1_555
C9 C8 1_555 1_555
C10 C4 1_555 1_555
H1 C2 1_555 1_555
H2 C2 1_555 1_555
H3 C3 1_555 1_555
H4 C3 1_555 1_555
H5 C5 1_555 1_555
H6 C5 1_555 1_555
H7 C6 1_555 1_555
H8 C6 1_555 1_555
H9 C7 1_555 1_555
H10 C7 1_555 1_555
H11 C8 1_555 1_555
H12 C9 1_555 1_555
H13 C10 1_555 1_555
H14 C10 1_555 1_555
S2_2 Hg1 1_555 1_555
Hg1_2 S2 1_555 1_555
C1 C6 1_555 1_555
C3 C4 1_555 1_555
C9 C10 1_555 1_555

#END
