
#######################################################################
#
#                 Cambridge Crystallographic Data Centre
#                                CCDC 
#
#######################################################################
#
# If this CIF has been generated from an entry in the Cambridge 
# Structural Database, then it will include bibliographic, chemical, 
# crystal, experimental, refinement or atomic coordinate data resulting 
# from the CCDC's data processing and validation procedures.
#
#######################################################################

data_FAJTAN
_symmetry_cell_setting           monoclinic
_symmetry_space_group_name_H-M   'P 21/c'
_symmetry_Int_Tables_number      14
_space_group_name_Hall           '-P 2ybc'
loop_
_symmetry_equiv_pos_site_id
_symmetry_equiv_pos_as_xyz
1 x,y,z
2 -x,1/2+y,1/2-z
3 -x,-y,-z
4 x,1/2-y,1/2+z
_cell_length_a                   9.5135(19)
_cell_length_b                   20.601(4)
_cell_length_c                   16.168(5)
_cell_angle_alpha                90
_cell_angle_beta                 112.72(2)
_cell_angle_gamma                90
_cell_volume                     2922.85
loop_
_atom_site_label
_atom_site_type_symbol
_atom_site_fract_x
_atom_site_fract_y
_atom_site_fract_z
Cd1 Cd -0.46260(4) 0.408401(14) -0.03367(2)
Cd2 Cd -0.45813(4) 0.409445(14) -0.44845(2)
O1 O -0.4993(4) 0.52767(16) -0.4273(2)
O2 O -0.5326(6) 0.59829(17) -0.3337(3)
O3 O -0.5385(5) 0.59843(16) -0.1820(3)
H1 H -0.5344 0.5991 -0.2317
O4 O -0.5194(4) 0.52661(16) -0.0770(2)
O5 O -0.2044(4) 0.42531(19) -0.4062(3)
O6 O -0.7230(4) 0.38772(16) -0.0739(3)
O7 O -0.8872(4) 0.3109(2) -0.0775(4)
H2 H -0.8857 0.2720 -0.0665
O8 O -0.8870(4) 0.1940(2) -0.0490(4)
O9 O -0.7209(4) 0.11352(16) -0.0054(3)
O10 O -0.2058(4) 0.42061(18) 0.0311(3)
N1 N -0.4721(5) 0.42675(17) -0.1740(2)
N2 N -0.4635(5) 0.42687(18) -0.3102(3)
N3 N 0.0102(5) 0.4828(3) -0.3711(4)
N4 N -0.4801(4) 0.30249(17) -0.0086(2)
N5 N -0.4789(4) 0.19594(17) 0.0183(2)
N6 N 0.0115(5) 0.4741(2) 0.1105(3)
C1 C -0.4565(6) 0.3903(3) -0.2391(3)
C2 C -0.4889(4) 0.4879(2) -0.2900(2)
C3 C -0.4939(4) 0.4879(2) -0.2055(2)
C4 C -0.4462(9) 0.3185(4) -0.2360(5)
H3 H -0.3851 0.3042 -0.1756
H4 H -0.3985 0.3032 -0.2757
C5 C -0.6180(15) 0.2896(7) -0.2676(10)
H5 H -0.6623 0.3054 -0.2265
H6 H -0.6780 0.3071 -0.3264
C6 C -0.632(3) 0.2241(9) -0.2719(15)
H7 H -0.7376 0.2126 -0.2910
H8 H -0.5760 0.2059 -0.2138
H9 H -0.5924 0.2076 -0.3141
C7 C -0.5089(5) 0.5412(2) -0.3537(3)
C8 C -0.5196(5) 0.5412(2) -0.1526(3)
C9 C -0.1366(6) 0.4767(3) -0.4010(4)
H10 H -0.1949 0.5141 -0.4199
C10 C 0.0833(11) 0.5460(4) -0.3640(7)
H11 H 0.0067 0.5790 -0.3870
H12 H 0.1465 0.5456 -0.3981
H13 H 0.1447 0.5549 -0.3023
C11 C 0.1083(8) 0.4271(4) -0.3388(7)
H14 H 0.0473 0.3886 -0.3479
H15 H 0.1686 0.4323 -0.2760
H16 H 0.1742 0.4234 -0.3710
C12 C -0.3942(5) 0.2490(2) 0.0193(3)
C13 C -0.6278(5) 0.2834(2) -0.0292(3)
C14 C -0.6261(5) 0.2173(2) -0.0123(3)
C15 C -0.2261(6) 0.2470(3) 0.0473(5)
H17 H -0.2015 0.2120 0.0151
H18 H -0.1941 0.2872 0.0287
C16 C -0.1368(10) 0.2381(4) 0.1425(6)
H19 H -0.1698 0.1986 0.1625
H20 H -0.0304 0.2328 0.1519
C17 C -0.1508(14) 0.2912(6) 0.1954(9)
H21 H -0.0896 0.2831 0.2574
H22 H -0.2555 0.2960 0.1877
H23 H -0.1166 0.3303 0.1767
C18 C -0.7525(6) 0.3304(2) -0.0622(4)
C19 C -0.7514(5) 0.1717(2) -0.0230(4)
C20 C -0.1363(6) 0.4684(2) 0.0725(3)
H24 H -0.1941 0.5036 0.0771
C21 C 0.0827(7) 0.5339(4) 0.1544(5)
H25 H 0.0054 0.5641 0.1537
H26 H 0.1410 0.5523 0.1231
H27 H 0.1489 0.5248 0.2153
C22 C 0.1097(8) 0.4214(4) 0.1049(6)
H28 H 0.0481 0.3851 0.0744
H29 H 0.1759 0.4085 0.1643
H30 H 0.1696 0.4359 0.0724
Cd1B Cd -0.53740(4) 0.591599(14) 0.03367(2)
Cd2B Cd -0.54187(4) 0.590555(14) -0.55155(2)
Cd2C Cd -0.45813(4) 0.090555(14) 0.05155(2)
O1B O -0.5007(4) 0.47233(16) -0.5727(2)
O4B O -0.4806(4) 0.47339(16) 0.0770(2)
O9C O -0.7209(4) 0.38648(16) -0.5054(3)
N5C N -0.4789(4) 0.30406(17) -0.4817(2)
loop_
_geom_bond_atom_site_label_1
_geom_bond_atom_site_label_2
_geom_bond_site_symmetry_1
_geom_bond_site_symmetry_2
Cd1 O4 1_555 1_555
Cd2 O1 1_555 1_555
O1 C7 1_555 1_555
O2 C7 1_555 1_555
O3 H1 1_555 1_555
O4 C8 1_555 1_555
O5 Cd2 1_555 1_555
O6 Cd1 1_555 1_555
O7 H2 1_555 1_555
O8 C19 1_555 1_555
O9 C19 1_555 1_555
O10 Cd1 1_555 1_555
N1 Cd1 1_555 1_555
N2 Cd2 1_555 1_555
N3 C9 1_555 1_555
N4 Cd1 1_555 1_555
N5 C12 1_555 1_555
N6 C20 1_555 1_555
C1 N1 1_555 1_555
C2 N2 1_555 1_555
C3 N1 1_555 1_555
C4 C1 1_555 1_555
H3 C4 1_555 1_555
H4 C4 1_555 1_555
C5 C4 1_555 1_555
H5 C5 1_555 1_555
H6 C5 1_555 1_555
C6 C5 1_555 1_555
H7 C6 1_555 1_555
H8 C6 1_555 1_555
H9 C6 1_555 1_555
C7 C2 1_555 1_555
C8 O3 1_555 1_555
C9 O5 1_555 1_555
H10 C9 1_555 1_555
C10 N3 1_555 1_555
H11 C10 1_555 1_555
H12 C10 1_555 1_555
H13 C10 1_555 1_555
C11 N3 1_555 1_555
H14 C11 1_555 1_555
H15 C11 1_555 1_555
H16 C11 1_555 1_555
C12 N4 1_555 1_555
C13 N4 1_555 1_555
C14 N5 1_555 1_555
C15 C12 1_555 1_555
H17 C15 1_555 1_555
H18 C15 1_555 1_555
C16 C15 1_555 1_555
H19 C16 1_555 1_555
H20 C16 1_555 1_555
C17 C16 1_555 1_555
H21 C17 1_555 1_555
H22 C17 1_555 1_555
H23 C17 1_555 1_555
C18 O6 1_555 1_555
C19 C14 1_555 1_555
C20 O10 1_555 1_555
H24 C20 1_555 1_555
C21 N6 1_555 1_555
H25 C21 1_555 1_555
H26 C21 1_555 1_555
H27 C21 1_555 1_555
C22 N6 1_555 1_555
H28 C22 1_555 1_555
H29 C22 1_555 1_555
H30 C22 1_555 1_555
Cd1B O4 1_555 1_555
Cd2B O1 1_555 1_555
Cd2C O9 1_555 1_555
O1B Cd2 1_555 1_555
O4B Cd1 1_555 1_555
O9C Cd2 1_555 1_555
N5C Cd2 1_555 1_555
O7 C18 1_555 1_555
N2 C1 1_555 1_555
N5 Cd2C 1_555 1_555
C2 C3 1_555 1_555
C3 C8 1_555 1_555
C13 C14 1_555 1_555
C13 C18 1_555 1_555
Cd1B O4B 1_555 1_555
Cd2B O1B 1_555 1_555

#END
