
#######################################################################
#
#                 Cambridge Crystallographic Data Centre
#                                CCDC 
#
#######################################################################
#
# If this CIF has been generated from an entry in the Cambridge 
# Structural Database, then it will include bibliographic, chemical, 
# crystal, experimental, refinement or atomic coordinate data resulting 
# from the CCDC's data processing and validation procedures.
#
#######################################################################

data_FAJXUL
_symmetry_cell_setting           triclinic
_symmetry_space_group_name_H-M   'P -1'
_symmetry_Int_Tables_number      2
_space_group_name_Hall           '-P 1'
loop_
_symmetry_equiv_pos_site_id
_symmetry_equiv_pos_as_xyz
1 x,y,z
2 -x,-y,-z
_cell_length_a                   10.7208(4)
_cell_length_b                   12.7765(4)
_cell_length_c                   14.3962(5)
_cell_angle_alpha                83.7410(10)
_cell_angle_beta                 74.8490(10)
_cell_angle_gamma                65.9100(10)
_cell_volume                     1737.59
loop_
_atom_site_label
_atom_site_type_symbol
_atom_site_fract_x
_atom_site_fract_y
_atom_site_fract_z
Cd1 Cd 0.75479(2) -0.22417(2) 0.415193(17)
Cd2 Cd -1.0000 0.5000 0.5000
O1 O 0.0671(3) 0.1380(2) 0.1027(2)
O2 O -0.3681(2) 0.6386(2) 0.02095(18)
O3 O 0.0288(2) 0.5988(2) -0.23286(16)
O4 O -1.0393(3) 0.7927(2) 0.31547(19)
O5 O -1.0289(2) 0.6230(2) 0.37007(16)
O6 O 0.6013(3) -0.0525(2) 0.36884(18)
O7 O 0.6515(3) -0.20303(19) 0.28324(17)
O8 O 0.7783(3) 0.5277(3) -0.48773(19)
O9 O 0.6182(3) 0.7066(2) -0.4845(2)
O10 O 0.7962(3) -0.1398(2) 0.53109(18)
O11 O -0.9351(3) 0.3511(2) 0.3986(2)
H1 H -0.9698 0.3762 0.3499
N1 N -0.4140(3) 0.4839(2) 0.08598(19)
H2 H -0.3780 0.4084 0.0871
N2 N 0.2481(3) 0.1957(2) 0.0553(2)
H3 H 0.2827 0.2395 0.0150
N3 N 0.2374(3) 0.4455(2) -0.24845(19)
H4 H 0.2737 0.3719 -0.2350
N4 N 0.8008(4) 0.0181(3) 0.5835(2)
C1 C 0.0388(3) 0.3003(3) -0.0024(2)
C2 C 0.1076(3) 0.3407(3) -0.0845(2)
H5 H 0.2056 0.3004 -0.1102
C3 C 0.0325(3) 0.4406(3) -0.1290(2)
C4 C -0.1097(3) 0.4987(3) -0.0904(2)
H6 H -0.1605 0.5681 -0.1194
C5 C -0.1801(3) 0.4569(3) -0.0092(2)
C6 C -0.1050(3) 0.3564(3) 0.0340(2)
H7 H -0.1519 0.3262 0.0884
C7 C 0.1187(4) 0.2028(3) 0.0559(3)
C8 C 0.0991(3) 0.5008(3) -0.2098(2)
C9 C -0.3297(3) 0.5343(3) 0.0328(2)
C10 C 0.3313(3) 0.1206(3) 0.1169(2)
C11 C 0.3640(4) 0.1667(3) 0.1843(3)
H8 H 0.3297 0.2476 0.1898
C12 C 0.4463(4) 0.0966(3) 0.2442(3)
H9 H 0.4678 0.1294 0.2909
C13 C 0.4975(3) -0.0217(3) 0.2361(2)
C14 C 0.4635(4) -0.0680(3) 0.1682(3)
H10 H 0.4977 -0.1489 0.1624
C15 C 0.3805(4) 0.0024(3) 0.1092(3)
H11 H 0.3569 -0.0299 0.0633
C16 C -0.5538(3) 0.5390(3) 0.1399(2)
C17 C -0.6321(4) 0.6575(3) 0.1396(2)
H12 H -0.5931 0.7060 0.0993
C18 C -0.7654(4) 0.7032(3) 0.1976(2)
H13 H -0.8174 0.7838 0.1977
C19 C -0.8260(3) 0.6340(3) 0.2562(2)
C20 C -0.7500(3) 0.5160(3) 0.2545(2)
H14 H -0.7907 0.4675 0.2931
C21 C -0.6151(3) 0.4690(3) 0.1969(2)
H15 H -0.5638 0.3883 0.1961
C22 C 0.3326(4) 0.4901(3) -0.3080(2)
C23 C 0.2996(4) 0.6052(3) -0.3280(3)
H16 H 0.2060 0.6597 -0.3065
C24 C 0.4042(4) 0.6402(3) -0.3796(3)
H17 H 0.3815 0.7195 -0.3923
C25 C 0.5408(4) 0.5630(3) -0.4131(2)
C26 C 0.5726(4) 0.4465(3) -0.3951(2)
H18 H 0.6655 0.3918 -0.4187
C27 C 0.4693(4) 0.4108(3) -0.3430(2)
H19 H 0.4916 0.3314 -0.3308
C28 C 0.5889(4) -0.0973(3) 0.2998(2)
C29 C -0.9713(4) 0.6869(3) 0.3174(2)
C30 C 0.6556(4) 0.6003(3) -0.4660(2)
C31 C 0.7441(7) 0.1424(4) 0.5880(4)
H20 H 0.6708 0.1750 0.5520
H21 H 0.8196 0.1691 0.5599
H22 H 0.7037 0.1669 0.6553
C32 C 0.9031(5) -0.0446(5) 0.6390(4)
H23 H 0.9611 -0.1211 0.6113
H24 H 0.8543 -0.0519 0.7057
H25 H 0.9632 -0.0035 0.6377
C33 C 0.7549(4) -0.0341(3) 0.5355(3)
H26 H 0.6854 0.0118 0.5019
Cd1A Cd -2.75479(2) 1.22417(2) 0.584807(17)
Cd1_2 Cd -1.24521(2) 0.77583(2) 0.415193(17)
Cd1_3 Cd 0.75479(2) 0.77583(2) -0.584807(17)
Cd1A_2 Cd -2.75479(2) 0.22417(2) 1.584807(17)
Cd1A_3 Cd -0.75479(2) 0.22417(2) 0.584807(17)
Cd2_2 Cd -3.0000 0.5000 1.5000
Cd2_3 Cd 1.0000 0.5000 -0.5000
O1A O -2.0671(3) 0.8620(2) 0.8973(2)
O2A O -1.6319(2) 0.3614(2) 0.97905(18)
O3A O -2.0288(2) 0.4012(2) 1.23286(16)
O4A O -0.9607(3) 0.2073(2) 0.68453(19)
O4_2 O 0.9607(3) -0.2073(2) 0.31547(19)
O4A_2 O -2.9607(3) 1.2073(2) 0.68453(19)
O5A O -0.9711(2) 0.3770(2) 0.62993(16)
O5_2 O 0.9711(2) -0.3770(2) 0.37007(16)
O5A_2 O -2.9711(2) 1.3770(2) 0.62993(16)
O6A O -2.6013(3) 1.0525(2) 0.63116(18)
O7A O -2.6515(3) 1.20303(19) 0.71676(17)
O8A O -2.7783(3) 0.4723(3) 1.48773(19)
O8_2 O -1.2217(3) 0.5277(3) 0.51227(19)
O8A_2 O -0.7783(3) 0.4723(3) 0.48773(19)
O9A O -2.6182(3) 0.2934(2) 1.4845(2)
O9_2 O 0.6182(3) -0.2934(2) 0.5155(2)
O9A_2 O -2.6182(3) 1.2934(2) 0.4845(2)
O10A O -2.7962(3) 1.1398(2) 0.46891(18)
O11A O -1.0649(3) 0.6489(2) 0.6014(2)
H1A H -1.0302 0.6238 0.6501
N1A N -1.5860(3) 0.5161(2) 0.91402(19)
H2A H -1.6220 0.5916 0.9129
N2A N -2.2481(3) 0.8043(2) 0.9447(2)
H3A H -2.2827 0.7605 0.9850
N3A N -2.2374(3) 0.5545(2) 1.24845(19)
H4A H -2.2737 0.6281 1.2350
N4A N -2.8008(4) 0.9819(3) 0.4165(2)
C1A C -2.0388(3) 0.6997(3) 1.0024(2)
C2A C -2.1076(3) 0.6593(3) 1.0845(2)
H5A H -2.2056 0.6996 1.1102
C3A C -2.0325(3) 0.5594(3) 1.1290(2)
C4A C -1.8903(3) 0.5013(3) 1.0904(2)
H6A H -1.8395 0.4319 1.1194
C5A C -1.8199(3) 0.5431(3) 1.0092(2)
C6A C -1.8950(3) 0.6436(3) 0.9660(2)
H7A H -1.8481 0.6738 0.9116
C7A C -2.1187(4) 0.7972(3) 0.9441(3)
C8A C -2.0991(3) 0.4992(3) 1.2098(2)
C9A C -1.6703(3) 0.4657(3) 0.9672(2)
C10A C -2.3313(3) 0.8794(3) 0.8831(2)
C11A C -2.3640(4) 0.8333(3) 0.8157(3)
H8A H -2.3297 0.7524 0.8102
C12A C -2.4463(4) 0.9034(3) 0.7558(3)
H9A H -2.4678 0.8706 0.7091
C13A C -2.4975(3) 1.0217(3) 0.7639(2)
C14A C -2.4635(4) 1.0680(3) 0.8318(3)
H10A H -2.4977 1.1489 0.8376
C15A C -2.3805(4) 0.9976(3) 0.8908(3)
H11A H -2.3569 1.0299 0.9367
C16A C -1.4462(3) 0.4610(3) 0.8601(2)
C17A C -1.3679(4) 0.3425(3) 0.8604(2)
H12A H -1.4069 0.2940 0.9007
C18A C -1.2346(4) 0.2968(3) 0.8024(2)
H13A H -1.1826 0.2162 0.8023
C19A C -1.1740(3) 0.3660(3) 0.7438(2)
C20A C -1.2500(3) 0.4840(3) 0.7455(2)
H14A H -1.2093 0.5325 0.7069
C21A C -1.3849(3) 0.5310(3) 0.8031(2)
H15A H -1.4362 0.6117 0.8039
C22A C -2.3326(4) 0.5099(3) 1.3080(2)
C23A C -2.2996(4) 0.3948(3) 1.3280(3)
H16A H -2.2060 0.3403 1.3065
C24A C -2.4042(4) 0.3598(3) 1.3796(3)
H17A H -2.3815 0.2805 1.3923
C25A C -2.5408(4) 0.4370(3) 1.4131(2)
C26A C -2.5726(4) 0.5535(3) 1.3951(2)
H18A H -2.6655 0.6082 1.4187
C27A C -2.4693(4) 0.5892(3) 1.3430(2)
H19A H -2.4916 0.6686 1.3308
C28A C -2.5889(4) 1.0973(3) 0.7002(2)
C29A C -1.0287(4) 0.3131(3) 0.6826(2)
C29_2 C 1.0287(4) -0.3131(3) 0.3174(2)
C29A_2 C -3.0287(4) 1.3131(3) 0.6826(2)
C30A C -2.6556(4) 0.3997(3) 1.4660(2)
C31A C -2.7441(7) 0.8576(4) 0.4120(4)
H20A H -2.6708 0.8250 0.4480
H21A H -2.8196 0.8309 0.4401
H22A H -2.7037 0.8331 0.3447
C32A C -2.9031(5) 1.0446(5) 0.3610(4)
H23A H -2.9611 1.1211 0.3887
H24A H -2.8543 1.0519 0.2943
H25A H -2.9632 1.0035 0.3623
C33A C -2.7549(4) 1.0341(3) 0.4645(3)
H26A H -2.6854 0.9882 0.4981
O12 O 0.6660(4) 0.2428(3) 0.1102(4)
N5 N 0.8061(4) 0.0668(3) 0.1483(3)
C34 C 0.9036(8) -0.0468(4) 0.1183(4)
H27 H 0.9073 -0.0576 0.0512
H28 H 0.8731 -0.1027 0.1591
H29 H 0.9973 -0.0579 0.1241
C35 C 0.7975(6) 0.0961(5) 0.2439(4)
H30 H 0.7166 0.1686 0.2629
H31 H 0.8839 0.1043 0.2453
H32 H 0.7859 0.0354 0.2887
C36 C 0.7410(5) 0.1442(4) 0.0883(4)
loop_
_geom_bond_atom_site_label_1
_geom_bond_atom_site_label_2
_geom_bond_site_symmetry_1
_geom_bond_site_symmetry_2
Cd1 O6 1_555 1_555
Cd2 O5 1_555 1_555
O1 C7 1_555 1_555
O2 C9 1_555 1_555
O3 C8 1_555 1_555
O4 C29 1_555 1_555
O5 C29 1_555 1_555
O6 C28 1_555 1_555
O7 Cd1 1_555 1_555
O8 C30 1_555 1_555
O9 C30 1_555 1_555
O10 Cd1 1_555 1_555
O11 Cd2 1_555 1_555
H1 O11 1_555 1_555
N1 H2 1_555 1_555
N2 H3 1_555 1_555
N3 H4 1_555 1_555
N4 C31 1_555 1_555
C1 C2 1_555 1_555
C2 H5 1_555 1_555
C3 C2 1_555 1_555
C4 C3 1_555 1_555
H6 C4 1_555 1_555
C5 C4 1_555 1_555
C6 C1 1_555 1_555
H7 C6 1_555 1_555
C7 N2 1_555 1_555
C8 N3 1_555 1_555
C9 N1 1_555 1_555
C10 N2 1_555 1_555
C11 C10 1_555 1_555
H8 C11 1_555 1_555
C12 C11 1_555 1_555
H9 C12 1_555 1_555
C13 C12 1_555 1_555
C14 C13 1_555 1_555
H10 C14 1_555 1_555
C15 C10 1_555 1_555
H11 C15 1_555 1_555
C16 N1 1_555 1_555
C17 C16 1_555 1_555
H12 C17 1_555 1_555
C18 C17 1_555 1_555
H13 C18 1_555 1_555
C19 C18 1_555 1_555
C20 C19 1_555 1_555
H14 C20 1_555 1_555
C21 C16 1_555 1_555
H15 C21 1_555 1_555
C22 N3 1_555 1_555
C23 C22 1_555 1_555
H16 C23 1_555 1_555
C24 C23 1_555 1_555
H17 C24 1_555 1_555
C25 C24 1_555 1_555
C26 C25 1_555 1_555
H18 C26 1_555 1_555
C27 C22 1_555 1_555
H19 C27 1_555 1_555
C28 O7 1_555 1_555
C29 C19 1_555 1_555
C30 C25 1_555 1_555
C31 H20 1_555 1_555
H21 C31 1_555 1_555
H22 C31 1_555 1_555
C32 N4 1_555 1_555
H23 C32 1_555 1_555
H24 C32 1_555 1_555
H25 C32 1_555 1_555
C33 O10 1_555 1_555
H26 C33 1_555 1_555
O12 C36 1_555 1_555
N5 C34 1_555 1_555
C34 H27 1_555 1_555
H28 C34 1_555 1_555
H29 C34 1_555 1_555
C35 N5 1_555 1_555
H30 C35 1_555 1_555
H31 C35 1_555 1_555
H32 C35 1_555 1_555
C36 N5 1_555 1_555
Cd1A O4A_2 1_555 1_555
Cd1_2 O4 1_555 1_555
Cd1_3 O9 1_555 1_555
Cd1A_2 O9A 1_555 1_555
Cd1A_3 O4A 1_555 1_555
Cd2_2 O8A 1_555 1_555
Cd2_3 O8 1_555 1_555
O1A C7A 1_555 1_555
O2A C9A 1_555 1_555
O3A C8A 1_555 1_555
O4A C29A 1_555 1_555
O4_2 Cd1 1_555 1_555
O4A_2 C29A_2 1_555 1_555
O5A Cd2 1_555 1_555
O5_2 Cd1 1_555 1_555
O5A_2 Cd1A 1_555 1_555
O6A Cd1A 1_555 1_555
O7A Cd1A 1_555 1_555
O8A C30A 1_555 1_555
O8_2 Cd2 1_555 1_555
O8A_2 Cd2 1_555 1_555
O9A C30A 1_555 1_555
O9_2 Cd1 1_555 1_555
O9A_2 Cd1A 1_555 1_555
O10A Cd1A 1_555 1_555
O11A Cd2 1_555 1_555
H1A O11A 1_555 1_555
N1A H2A 1_555 1_555
N2A H3A 1_555 1_555
N3A H4A 1_555 1_555
N4A C31A 1_555 1_555
C1A C2A 1_555 1_555
C2A H5A 1_555 1_555
C3A C2A 1_555 1_555
C4A C3A 1_555 1_555
H6A C4A 1_555 1_555
C5A C4A 1_555 1_555
C6A C1A 1_555 1_555
H7A C6A 1_555 1_555
C7A N2A 1_555 1_555
C8A N3A 1_555 1_555
C9A N1A 1_555 1_555
C10A N2A 1_555 1_555
C11A C10A 1_555 1_555
H8A C11A 1_555 1_555
C12A C11A 1_555 1_555
H9A C12A 1_555 1_555
C13A C12A 1_555 1_555
C14A C13A 1_555 1_555
H10A C14A 1_555 1_555
C15A C10A 1_555 1_555
H11A C15A 1_555 1_555
C16A N1A 1_555 1_555
C17A C16A 1_555 1_555
H12A C17A 1_555 1_555
C18A C17A 1_555 1_555
H13A C18A 1_555 1_555
C19A C18A 1_555 1_555
C20A C19A 1_555 1_555
H14A C20A 1_555 1_555
C21A C16A 1_555 1_555
H15A C21A 1_555 1_555
C22A N3A 1_555 1_555
C23A C22A 1_555 1_555
H16A C23A 1_555 1_555
C24A C23A 1_555 1_555
H17A C24A 1_555 1_555
C25A C24A 1_555 1_555
C26A C25A 1_555 1_555
H18A C26A 1_555 1_555
C27A C22A 1_555 1_555
H19A C27A 1_555 1_555
C28A O6A 1_555 1_555
C29A O5A 1_555 1_555
C29_2 O4_2 1_555 1_555
C29A_2 O5A_2 1_555 1_555
C30A C25A 1_555 1_555
C31A H20A 1_555 1_555
H21A C31A 1_555 1_555
H22A C31A 1_555 1_555
C32A N4A 1_555 1_555
H23A C32A 1_555 1_555
H24A C32A 1_555 1_555
H25A C32A 1_555 1_555
C33A O10A 1_555 1_555
H26A C33A 1_555 1_555
O5 Cd1_2 1_555 1_555
N4 C33 1_555 1_555
C1 C7 1_555 1_555
C3 C8 1_555 1_555
C5 C6 1_555 1_555
C5 C9 1_555 1_555
C13 C28 1_555 1_555
C14 C15 1_555 1_555
C20 C21 1_555 1_555
C26 C27 1_555 1_555
Cd1A_3 O5A 1_555 1_555
O5_2 C29_2 1_555 1_555
O7A C28A 1_555 1_555
N4A C33A 1_555 1_555
C1A C7A 1_555 1_555
C3A C8A 1_555 1_555
C5A C6A 1_555 1_555
C5A C9A 1_555 1_555
C13A C28A 1_555 1_555
C14A C15A 1_555 1_555
C19A C29A 1_555 1_555
C20A C21A 1_555 1_555
C26A C27A 1_555 1_555

#END
