
#######################################################################
#
#                 Cambridge Crystallographic Data Centre
#                                CCDC 
#
#######################################################################
#
# If this CIF has been generated from an entry in the Cambridge 
# Structural Database, then it will include bibliographic, chemical, 
# crystal, experimental, refinement or atomic coordinate data resulting 
# from the CCDC's data processing and validation procedures.
#
#######################################################################

data_FAJXOF
_symmetry_cell_setting           triclinic
_symmetry_space_group_name_H-M   'P -1'
_symmetry_Int_Tables_number      2
_space_group_name_Hall           '-P 1'
loop_
_symmetry_equiv_pos_site_id
_symmetry_equiv_pos_as_xyz
1 x,y,z
2 -x,-y,-z
_cell_length_a                   10.7005(7)
_cell_length_b                   12.7457(9)
_cell_length_c                   14.3124(10)
_cell_angle_alpha                84.334(2)
_cell_angle_beta                 74.103(2)
_cell_angle_gamma                65.560(2)
_cell_volume                     1708.89
loop_
_atom_site_label
_atom_site_type_symbol
_atom_site_fract_x
_atom_site_fract_y
_atom_site_fract_z
Co1 Co 0.0000 1.0000 0.0000
Co2 Co -0.03394(6) 1.27707(5) 0.08355(4)
O1 O -1.8152(4) 1.0195(3) 0.9857(3)
O3 O -0.1507(4) 1.3499(3) -0.0245(3)
N2 N -0.3086(6) 1.5046(5) -0.0807(4)
C4 C -0.2142(7) 1.4557(5) -0.0308(4)
H8 H -0.1929 1.5042 0.0029
C5 C -0.3455(8) 1.4378(7) -0.1361(5)
H9 H -0.2933 1.3555 -0.1266
H10 H -0.3205 1.4553 -0.2052
H11 H -0.4479 1.4574 -0.1141
C6 C -0.3776(10) 1.6300(7) -0.0868(6)
H12 H -0.3447 1.6660 -0.0467
H13 H -0.4808 1.6552 -0.0634
H14 H -0.3535 1.6530 -0.1545
O4 O -1.8387(4) 1.2023(4) 0.9915(3)
O5 O -1.1364(4) 1.1039(3) 0.7364(3)
O6 O -0.2384(4) 1.2927(4) 0.1849(3)
O7 O -0.0896(4) 1.1249(3) 0.1188(3)
O8 O -0.7690(4) 1.1424(3) 0.4812(3)
O9 O -1.0423(4) 0.4366(3) 0.1250(3)
O10 O -0.9480(4) 0.2881(3) 0.2122(3)
O11 O -0.7069(4) 0.6369(4) 0.3951(3)
N3 N -1.1905(4) 0.9479(4) 0.7515(3)
H15 H -1.1524 0.8735 0.7380
N4 N -0.9457(5) 0.6938(4) 0.4436(3)
H16 H -1.0248 0.7374 0.4848
N5 N -0.5694(4) 0.9864(4) 0.4134(3)
H17 H -0.5312 0.9105 0.4116
C7 C -0.8425(5) 0.8007(5) 0.5018(4)
C8 C -0.9536(5) 0.8433(4) 0.5851(4)
H18 H -1.0125 0.8028 0.6106
C9 C -0.9796(5) 0.9437(4) 0.6313(3)
C10 C -0.8916(5) 1.0014(4) 0.5924(3)
H19 H -0.9093 1.0710 0.6226
C11 C -0.7779(5) 0.9592(4) 0.5100(3)
C12 C -0.7531(5) 0.8581(4) 0.4664(4)
H20 H -0.6743 0.8273 0.4117
C13 C -1.1066(5) 1.0048(4) 0.7120(3)
C14 C -1.3306(5) 0.9913(5) 0.8115(4)
C15 C -1.4156(6) 1.1075(5) 0.8305(4)
H21 H -1.3780 1.1638 0.8081
C16 C -1.5562(6) 1.1404(5) 0.8828(4)
H22 H -1.6146 1.2200 0.8955
C17 C -1.6140(5) 1.0601(5) 0.9172(4)
C18 C -1.5269(6) 0.9450(5) 0.8989(4)
H23 H -1.5640 0.8885 0.9221
C19 C -1.3875(5) 0.9110(5) 0.8477(4)
H24 H -1.3289 0.8312 0.8368
C20 C -1.7683(6) 1.0969(5) 0.9695(4)
C21 C -0.7046(5) 1.0372(5) 0.4680(4)
C22 C -0.4829(5) 1.0417(4) 0.3590(4)
C23 C -0.5220(6) 1.1606(5) 0.3582(4)
H25 H -0.6106 1.2102 0.3980
C24 C -0.4311(6) 1.2058(5) 0.2993(4)
H26 H -0.4579 1.2867 0.2993
C25 C -0.3007(5) 1.1348(5) 0.2399(4)
C26 C -0.2622(5) 1.0168(5) 0.2437(4)
H27 H -0.1726 0.9671 0.2050
C27 C -0.3501(5) 0.9703(5) 0.3019(4)
H28 H -0.3209 0.8891 0.3036
C28 C -0.2066(5) 1.1863(4) 0.1785(4)
C29 C -0.8233(6) 0.7026(5) 0.4427(4)
C30 C -0.9514(5) 0.6169(5) 0.3808(4)
C31 C -0.8825(6) 0.4985(5) 0.3879(4)
H29 H -0.8267 0.4671 0.4333
C32 C -0.8953(6) 0.4262(5) 0.3285(4)
H30 H -0.8500 0.3450 0.3342
C33 C -0.9745(5) 0.4721(4) 0.2599(4)
C34 C -1.0415(6) 0.5903(5) 0.2518(4)
H31 H -1.0941 0.6221 0.2047
C35 C -1.0306(6) 0.6623(5) 0.3141(4)
H32 H -1.0784 0.7435 0.3103
C36 C -0.9888(5) 0.3943(4) 0.1951(4)
O12 O 0.0684(4) 0.8657(3) 0.0980(3)
Co1_2 Co -2.0000 1.0000 1.0000
Co2A Co -1.96606(6) 0.72293(5) 0.91645(4)
Co2_2 Co -2.03394(6) 1.27707(5) 1.08355(4)
Co2_3 Co -1.03394(6) 0.27707(5) 0.08355(4)
Co2A_2 Co -0.96606(6) 1.72293(5) 0.91645(4)
Co2A_3 Co 0.03394(6) 0.72293(5) -0.08355(4)
O1A O -0.1848(4) 0.9805(3) 0.0143(3)
O1_2 O 0.1848(4) 1.0195(3) -0.0143(3)
O3A O -1.8493(4) 0.6501(3) 1.0245(3)
N2A N -1.6914(6) 0.4954(5) 1.0807(4)
C4A C -1.7858(7) 0.5443(5) 1.0308(4)
H8A H -1.8071 0.4958 0.9971
C5A C -1.6545(8) 0.5622(7) 1.1361(5)
H9A H -1.7067 0.6445 1.1266
H10A H -1.6795 0.5447 1.2052
H11A H -1.5521 0.5426 1.1141
C6A C -1.6224(10) 0.3700(7) 1.0868(6)
H12A H -1.6553 0.3340 1.0467
H13A H -1.5192 0.3448 1.0634
H14A H -1.6465 0.3470 1.1545
O4A O -0.1613(4) 0.7977(4) 0.0085(3)
O4_2 O 0.1613(4) 1.2023(4) -0.0085(3)
O4A_2 O -2.1613(4) 0.7977(4) 1.0085(3)
O5A O -0.8636(4) 0.8961(3) 0.2636(3)
O6A O -1.7616(4) 0.7073(4) 0.8151(3)
O7A O -1.9104(4) 0.8751(3) 0.8812(3)
O7A_2 O 0.0896(4) 0.8751(3) -0.1188(3)
O8A O -1.2310(4) 0.8576(3) 0.5188(3)
O9A O -0.9577(4) 1.5634(3) 0.8750(3)
O9_2 O -0.0423(4) 1.4366(3) 0.1250(3)
O9A_2 O -1.9577(4) 0.5634(3) 0.8750(3)
O10A O -1.0520(4) 1.7119(3) 0.7878(3)
O10_2 O 0.0520(4) 1.2881(3) 0.2122(3)
O10A_2 O -2.0520(4) 0.7119(3) 0.7878(3)
O11A O -1.2931(4) 1.3631(4) 0.6049(3)
N3A N -0.8095(4) 1.0521(4) 0.2485(3)
H15A H -0.8476 1.1265 0.2620
N4A N -1.0543(5) 1.3062(4) 0.5564(3)
H16A H -0.9752 1.2626 0.5152
N5A N -1.4306(4) 1.0136(4) 0.5866(3)
H17A H -1.4688 1.0895 0.5884
C7A C -1.1575(5) 1.1993(5) 0.4982(4)
C8A C -1.0464(5) 1.1567(4) 0.4149(4)
H18A H -0.9875 1.1972 0.3894
C9A C -1.0204(5) 1.0563(4) 0.3687(3)
C10A C -1.1084(5) 0.9986(4) 0.4076(3)
H19A H -1.0907 0.9290 0.3774
C11A C -1.2221(5) 1.0408(4) 0.4900(3)
C12A C -1.2469(5) 1.1419(4) 0.5336(4)
H20A H -1.3257 1.1727 0.5883
C13A C -0.8934(5) 0.9952(4) 0.2880(3)
C14A C -0.6694(5) 1.0087(5) 0.1885(4)
C15A C -0.5844(6) 0.8925(5) 0.1695(4)
H21A H -0.6220 0.8362 0.1919
C16A C -0.4438(6) 0.8596(5) 0.1172(4)
H22A H -0.3854 0.7800 0.1045
C17A C -0.3860(5) 0.9399(5) 0.0828(4)
C18A C -0.4731(6) 1.0550(5) 0.1011(4)
H23A H -0.4360 1.1115 0.0779
C19A C -0.6125(5) 1.0890(5) 0.1523(4)
H24A H -0.6711 1.1688 0.1632
C20A C -0.2317(6) 0.9031(5) 0.0305(4)
C21A C -1.2954(5) 0.9628(5) 0.5320(4)
C22A C -1.5171(5) 0.9583(4) 0.6410(4)
C23A C -1.4780(6) 0.8394(5) 0.6418(4)
H25A H -1.3894 0.7898 0.6020
C24A C -1.5689(6) 0.7942(5) 0.7007(4)
H26A H -1.5421 0.7133 0.7007
C25A C -1.6993(5) 0.8652(5) 0.7601(4)
C26A C -1.7378(5) 0.9832(5) 0.7563(4)
H27A H -1.8274 1.0329 0.7950
C27A C -1.6499(5) 1.0297(5) 0.6981(4)
H28A H -1.6791 1.1109 0.6964
C28A C -1.7934(5) 0.8137(4) 0.8215(4)
C29A C -1.1767(6) 1.2974(5) 0.5573(4)
C30A C -1.0486(5) 1.3831(5) 0.6192(4)
C31A C -1.1175(6) 1.5015(5) 0.6121(4)
H29A H -1.1733 1.5329 0.5667
C32A C -1.1047(6) 1.5738(5) 0.6715(4)
H30A H -1.1500 1.6550 0.6658
C33A C -1.0255(5) 1.5279(4) 0.7401(4)
C34A C -0.9585(6) 1.4097(5) 0.7482(4)
H31A H -0.9059 1.3779 0.7953
C35A C -0.9694(6) 1.3377(5) 0.6859(4)
H32A H -0.9216 1.2565 0.6897
C36A C -1.0112(5) 1.6057(4) 0.8049(4)
O12A O -0.0684(4) 1.1343(3) -0.0980(3)
O2 O -0.4112(6) 0.7463(4) 0.3845(5)
N1 N -0.3707(6) 0.5645(4) 0.3520(4)
C1 C -0.3852(7) 0.6465(6) 0.4089(6)
H1 H -0.3746 0.6265 0.4729
C2 C -0.3541(14) 0.4516(7) 0.3851(7)
H2 H -0.3393 0.4424 0.4505
H3 H -0.2717 0.3946 0.3408
H4 H -0.4396 0.4401 0.3866
C3 C -0.3933(8) 0.5896(8) 0.2566(5)
H5 H -0.4036 0.6687 0.2401
H6 H -0.4798 0.5813 0.2551
H7 H -0.3119 0.5358 0.2093
loop_
_geom_bond_atom_site_label_1
_geom_bond_atom_site_label_2
_geom_bond_site_symmetry_1
_geom_bond_site_symmetry_2
Co1 O7 1_555 1_555
Co2 O3 1_555 1_555
O1 C20 1_555 1_555
O2 C1 1_555 1_555
N1 C1 1_555 1_555
C1 H1 1_555 1_555
C2 N1 1_555 1_555
H2 C2 1_555 1_555
H3 C2 1_555 1_555
H4 C2 1_555 1_555
C3 N1 1_555 1_555
H5 C3 1_555 1_555
H6 C3 1_555 1_555
H7 C3 1_555 1_555
O3 C4 1_555 1_555
N2 C4 1_555 1_555
C4 H8 1_555 1_555
C5 N2 1_555 1_555
H9 C5 1_555 1_555
H10 C5 1_555 1_555
H11 C5 1_555 1_555
C6 N2 1_555 1_555
H12 C6 1_555 1_555
H13 C6 1_555 1_555
H14 C6 1_555 1_555
O4 C20 1_555 1_555
O5 C13 1_555 1_555
O6 Co2 1_555 1_555
O7 Co2 1_555 1_555
O8 C21 1_555 1_555
O9 C36 1_555 1_555
O10 C36 1_555 1_555
O11 C29 1_555 1_555
N3 H15 1_555 1_555
N4 H16 1_555 1_555
N5 H17 1_555 1_555
C7 C8 1_555 1_555
C8 H18 1_555 1_555
C9 C8 1_555 1_555
C10 C9 1_555 1_555
H19 C10 1_555 1_555
C11 C10 1_555 1_555
C12 C7 1_555 1_555
H20 C12 1_555 1_555
C13 N3 1_555 1_555
C14 N3 1_555 1_555
C15 C14 1_555 1_555
H21 C15 1_555 1_555
C16 C15 1_555 1_555
H22 C16 1_555 1_555
C17 C16 1_555 1_555
C18 C17 1_555 1_555
H23 C18 1_555 1_555
C19 C14 1_555 1_555
H24 C19 1_555 1_555
C20 C17 1_555 1_555
C21 N5 1_555 1_555
C22 N5 1_555 1_555
C23 C22 1_555 1_555
H25 C23 1_555 1_555
C24 C23 1_555 1_555
H26 C24 1_555 1_555
C25 C24 1_555 1_555
C26 C25 1_555 1_555
H27 C26 1_555 1_555
C27 C22 1_555 1_555
H28 C27 1_555 1_555
C28 O6 1_555 1_555
C29 N4 1_555 1_555
C30 N4 1_555 1_555
C31 C30 1_555 1_555
H29 C31 1_555 1_555
C32 C31 1_555 1_555
H30 C32 1_555 1_555
C33 C32 1_555 1_555
C34 C33 1_555 1_555
H31 C34 1_555 1_555
C35 C30 1_555 1_555
H32 C35 1_555 1_555
C36 C33 1_555 1_555
O12 Co1 1_555 1_555
Co1_2 O1 1_555 1_555
Co2A O3A 1_555 1_555
Co2_2 O4 1_555 1_555
Co2_3 O9 1_555 1_555
Co2A_2 O9A 1_555 1_555
Co2A_3 O4A 1_555 1_555
O1A Co1 1_555 1_555
O1_2 Co1 1_555 1_555
O3A C4A 1_555 1_555
N2A C4A 1_555 1_555
C4A H8A 1_555 1_555
C5A N2A 1_555 1_555
H9A C5A 1_555 1_555
H10A C5A 1_555 1_555
H11A C5A 1_555 1_555
C6A N2A 1_555 1_555
H12A C6A 1_555 1_555
H13A C6A 1_555 1_555
H14A C6A 1_555 1_555
O4A C20A 1_555 1_555
O4_2 Co2 1_555 1_555
O4A_2 Co2A 1_555 1_555
O5A C13A 1_555 1_555
O6A Co2A 1_555 1_555
O7A Co1_2 1_555 1_555
O7A_2 Co1 1_555 1_555
O8A C21A 1_555 1_555
O9A C36A 1_555 1_555
O9_2 Co2 1_555 1_555
O9A_2 Co2A 1_555 1_555
O10A Co2A_2 1_555 1_555
O10_2 Co2 1_555 1_555
O10A_2 Co2A 1_555 1_555
O11A C29A 1_555 1_555
N3A H15A 1_555 1_555
N4A H16A 1_555 1_555
N5A H17A 1_555 1_555
C7A C8A 1_555 1_555
C8A H18A 1_555 1_555
C9A C8A 1_555 1_555
C10A C9A 1_555 1_555
H19A C10A 1_555 1_555
C11A C10A 1_555 1_555
C12A C7A 1_555 1_555
H20A C12A 1_555 1_555
C13A N3A 1_555 1_555
C14A N3A 1_555 1_555
C15A C14A 1_555 1_555
H21A C15A 1_555 1_555
C16A C15A 1_555 1_555
H22A C16A 1_555 1_555
C17A C16A 1_555 1_555
C18A C17A 1_555 1_555
H23A C18A 1_555 1_555
C19A C14A 1_555 1_555
H24A C19A 1_555 1_555
C20A O1A 1_555 1_555
C21A N5A 1_555 1_555
C22A N5A 1_555 1_555
C23A C22A 1_555 1_555
H25A C23A 1_555 1_555
C24A C23A 1_555 1_555
H26A C24A 1_555 1_555
C25A C24A 1_555 1_555
C26A C25A 1_555 1_555
H27A C26A 1_555 1_555
C27A C22A 1_555 1_555
H28A C27A 1_555 1_555
C28A O6A 1_555 1_555
C29A N4A 1_555 1_555
C30A N4A 1_555 1_555
C31A C30A 1_555 1_555
H29A C31A 1_555 1_555
C32A C31A 1_555 1_555
H30A C32A 1_555 1_555
C33A C32A 1_555 1_555
C34A C33A 1_555 1_555
H31A C34A 1_555 1_555
C35A C30A 1_555 1_555
H32A C35A 1_555 1_555
C36A O10A 1_555 1_555
O12A Co1 1_555 1_555
O7 C28 1_555 1_555
O10 Co2_3 1_555 1_555
C7 C29 1_555 1_555
C9 C13 1_555 1_555
C11 C12 1_555 1_555
C11 C21 1_555 1_555
C18 C19 1_555 1_555
C25 C28 1_555 1_555
C26 C27 1_555 1_555
C34 C35 1_555 1_555
Co2A O7A 1_555 1_555
Co2A_3 O7A_2 1_555 1_555
O7A C28A 1_555 1_555
C7A C29A 1_555 1_555
C9A C13A 1_555 1_555
C11A C12A 1_555 1_555
C11A C21A 1_555 1_555
C17A C20A 1_555 1_555
C18A C19A 1_555 1_555
C25A C28A 1_555 1_555
C26A C27A 1_555 1_555
C33A C36A 1_555 1_555
C34A C35A 1_555 1_555

#END
