
#######################################################################
#
#                 Cambridge Crystallographic Data Centre
#                                CCDC 
#
#######################################################################
#
# If this CIF has been generated from an entry in the Cambridge 
# Structural Database, then it will include bibliographic, chemical, 
# crystal, experimental, refinement or atomic coordinate data resulting 
# from the CCDC's data processing and validation procedures.
#
#######################################################################

data_FAJYUM
_symmetry_cell_setting           orthorhombic
_symmetry_space_group_name_H-M   'P 21 21 21'
_symmetry_Int_Tables_number      19
_space_group_name_Hall           'P 2ac 2ab'
loop_
_symmetry_equiv_pos_site_id
_symmetry_equiv_pos_as_xyz
1 x,y,z
2 1/2-x,-y,1/2+z
3 -x,1/2+y,1/2-z
4 1/2+x,1/2-y,-z
_cell_length_a                   15.3067(11)
_cell_length_b                   17.7804(12)
_cell_length_c                   22.6353(16)
_cell_angle_alpha                90
_cell_angle_beta                 90
_cell_angle_gamma                90
_cell_volume                     6160.41
loop_
_atom_site_label
_atom_site_type_symbol
_atom_site_fract_x
_atom_site_fract_y
_atom_site_fract_z
Cd1 Cd 1.06181(2) 0.081579(19) 0.385051(15)
Cd2 Cd 0.81161(3) 0.32994(2) 0.285247(16)
C5 C 0.5983(5) 0.3614(5) 0.2964(3)
H2 H 0.6030 0.3846 0.3330
C6 C 1.0198(4) 0.1404(4) 0.5218(3)
H3 H 1.0655 0.1749 0.5206
C7 C 1.2157(4) 0.0659(4) 0.4868(2)
H4 H 1.1766 0.0396 0.5106
C9 C 1.1040(4) 0.2678(3) 0.3772(3)
H6 H 1.1564 0.2543 0.3951
C10 C 1.0524(5) -0.1025(3) 0.4107(3)
H7 H 1.0265 -0.0881 0.4461
C11 C 1.0876(4) 0.3419(3) 0.3665(3)
H8 H 1.1281 0.3788 0.3762
C12 C 1.0706(5) -0.1780(3) 0.4005(3)
H9 H 1.0588 -0.2144 0.4289
C13 C 0.6346(4) 0.3019(3) 0.2199(3)
C14 C 0.9328(4) 0.0554(3) 0.4956(2)
C15 C 1.2685(4) 0.1218(3) 0.4124(2)
C16 C 1.0096(4) 0.3601(3) 0.3410(3)
H10 H 0.9963 0.4102 0.3337
C17 C 1.1064(5) -0.1969(4) 0.3472(3)
H11 H 1.1175 -0.2472 0.3390
C18 C 0.6273(6) 0.2431(4) 0.1334(4)
C19 C 0.8210(4) -0.0263(3) 0.4953(3)
C20 C 1.3637(5) 0.1822(4) 0.3543(3)
C21 C 0.5416(6) 0.2654(4) 0.1261(3)
H12 H 0.5126 0.2532 0.0913
C22 C 0.7985(4) -0.0041(4) 0.5535(3)
H13 H 0.7517 -0.0272 0.5726
C23 C 1.4261(5) 0.1832(4) 0.3998(4)
H14 H 1.4797 0.2066 0.3936
C24 C 0.9733(3) 0.2351(3) 0.3385(2)
C25 C 1.1082(3) -0.0744(3) 0.3202(2)
C26 C 0.4992(5) 0.3038(5) 0.1678(4)
C27 C 0.8447(4) 0.0506(4) 0.5819(3)
C28 C 1.4093(4) 0.1510(4) 0.4518(3)
C29 C 0.9079(3) 0.1765(3) 0.3230(2)
C30 C 1.1322(3) -0.0155(3) 0.2757(2)
C31 C 0.8683(4) 0.0532(3) 0.3226(3)
H15 H 0.8804 0.0034 0.3320
C32 C 1.1496(4) 0.1079(3) 0.2526(2)
H16 H 1.1445 0.1584 0.2625
C33 C 0.7910(4) 0.0699(3) 0.2946(3)
H17 H 0.7506 0.0329 0.2848
C34 C 1.1846(5) 0.0892(4) 0.1988(2)
H18 H 1.2034 0.1256 0.1722
C35 C 0.7768(4) 0.1458(3) 0.2816(3)
H19 H 0.7256 0.1598 0.2625
C36 C 1.1903(5) 0.0147(3) 0.1867(2)
H20 H 1.2130 0.0001 0.1504
C37 C 0.6740(9) 0.1990(6) 0.0846(5)
H21 H 0.7017 0.2335 0.0579
H22 H 0.6322 0.1691 0.0634
H23 H 0.7173 0.1668 0.1019
C38 C 0.7699(6) -0.0876(5) 0.4640(4)
H24 H 0.7590 -0.0727 0.4239
H25 H 0.7153 -0.0954 0.4840
H26 H 0.8030 -0.1334 0.4644
C39 C 1.3817(7) 0.2176(5) 0.2959(4)
H27 H 1.4304 0.1929 0.2775
H28 H 1.3952 0.2699 0.3014
H29 H 1.3311 0.2130 0.2710
C41 C 0.4071(5) 0.3312(7) 0.1665(4)
H33 H 0.3997 0.3654 0.1340
H34 H 0.3941 0.3566 0.2029
H35 H 0.3683 0.2892 0.1617
C42 C 0.8303(5) 0.0798(6) 0.6433(3)
H36 H 0.8856 0.0849 0.6630
H37 H 0.7941 0.0452 0.6648
H38 H 0.8021 0.1279 0.6414
C43 C 1.4661(5) 0.1523(6) 0.5054(4)
H39 H 1.4438 0.1884 0.5331
H40 H 1.5245 0.1660 0.4943
H41 H 1.4665 0.1033 0.5234
N3 N 0.5253(4) 0.3612(4) 0.2663(3)
N4 N 0.9683(4) 0.1335(3) 0.5672(2)
N5 N 1.2946(3) 0.0835(3) 0.5047(2)
N7 N 1.0470(3) 0.2142(2) 0.36267(19)
N8 N 1.0719(3) -0.0503(2) 0.37013(18)
N9 N 0.6667(3) 0.3256(3) 0.2706(2)
N10 N 1.0011(3) 0.0932(3) 0.47661(19)
N11 N 1.1950(3) 0.0886(3) 0.43118(19)
N13 N 0.6761(4) 0.2612(3) 0.1794(3)
N14 N 0.8872(3) 0.0014(3) 0.4664(2)
N15 N 1.2837(3) 0.1540(3) 0.3604(2)
N16 N 0.9520(3) 0.3068(2) 0.32637(19)
N17 N 1.1259(3) -0.1450(2) 0.3066(2)
N18 N 0.5496(3) 0.3214(3) 0.2165(2)
N19 N 0.9120(3) 0.0790(3) 0.55020(19)
N20 N 1.3296(3) 0.1189(3) 0.4569(2)
N21 N 0.9268(3) 0.1063(2) 0.33670(19)
N22 N 1.1228(3) 0.0564(2) 0.29098(19)
N23 N 1.1648(3) -0.0389(2) 0.22441(18)
N24 N 0.8349(3) 0.1989(2) 0.2961(2)
O1 O 0.7664(4) 0.3539(3) 0.3814(2)
H45 H 0.785(5) 0.380(4) 0.402(3)
H46 H 0.748(6) 0.311(3) 0.400(4)
Cd2B Cd 1.18839(3) -0.17006(2) 0.214753(16)
N17B N 0.8741(3) 0.3550(2) 0.1934(2)
N23B N 0.8352(3) 0.4611(2) 0.27559(18)
Cl1 Cl 0.93394(13) 0.07768(10) 0.13977(9)
O2 O 0.9891(12) 0.0318(6) 0.1148(6)
O7 O 0.9596(7) 0.1126(8) 0.1912(5)
O11 O 0.8649(8) 0.0341(10) 0.1519(6)
O15 O 0.9115(12) 0.1292(5) 0.0999(5)
Cl2 Cl 0.73413(13) 0.19239(9) 0.46749(8)
O3 O 0.8170(5) 0.1945(7) 0.4438(4)
O8 O 0.7026(9) 0.1245(5) 0.4752(8)
O12 O 0.7416(11) 0.2285(11) 0.5186(6)
O16 O 0.6782(5) 0.2343(5) 0.4320(6)
Cl3 Cl 0.92598(13) 0.42949(11) 0.89124(8)
O4 O 1.0021(9) 0.4492(8) 0.8593(7)
O9 O 0.9582(9) 0.4028(8) 0.9423(4)
O13 O 0.8719(5) 0.4910(5) 0.8980(4)
O17 O 0.8883(6) 0.3782(5) 0.8578(5)
Cl4 Cl 0.84655(15) 0.82756(14) 0.29820(10)
O5 O 0.9177(7) 0.8725(6) 0.2945(6)
O10 O 0.8303(10) 0.7833(6) 0.3479(5)
O14 O 0.7846(8) 0.8802(11) 0.2959(13)
O18 O 0.8537(19) 0.7849(6) 0.2588(6)
C1 C 0.6511(4) 0.4545(4) 0.1299(3)
N1 N 0.6872(4) 0.4166(4) 0.0820(4)
C2 C 0.6388(7) 0.4072(5) 0.0306(4)
C3 C 0.5544(7) 0.4356(5) 0.0270(3)
H1 H 0.5221 0.4293 -0.0074
C4 C 0.5183(4) 0.4735(4) 0.0748(4)
N2 N 0.5666(4) 0.4829(4) 0.1263(3)
C8 C 0.6243(7) 0.5033(7) 0.2041(7)
H5 H 0.6360 0.5221 0.2416
C40 C 0.687(2) 0.3722(16) -0.0147(11)
H30 H 0.7447 0.3614 -0.0009
H31 H 0.6899 0.4051 -0.0483
H32 H 0.6584 0.3261 -0.0259
C44 C 0.4209(9) 0.5190(11) 0.0840(9)
H42 H 0.4227 0.5483 0.1196
H43 H 0.3746 0.4827 0.0867
H44 H 0.4106 0.5515 0.0509
N6 N 0.5464(8) 0.5152(7) 0.1804(7)
N12 N 0.6875(6) 0.4646(5) 0.1753(5)
O6 O 0.0797(6) 0.3884(9) 0.7539(5)
H47 H 0.051(8) 0.420(6) 0.719(5)
H48 H 0.13(5) 0.37(3) 0.726(8)
loop_
_geom_bond_atom_site_label_1
_geom_bond_atom_site_label_2
_geom_bond_site_symmetry_1
_geom_bond_site_symmetry_2
Cd1 N7 1_555 1_555
Cd2 N9 1_555 1_555
Cl1 O2 1_555 1_555
Cl2 O3 1_555 1_555
Cl3 O4 1_555 1_555
Cl4 O5 1_555 1_555
C1 N1 1_555 1_555
N1 C2 1_555 1_555
C2 C3 1_555 1_555
C3 H1 1_555 1_555
C4 C3 1_555 1_555
N2 C1 1_555 1_555
C5 H2 1_555 1_555
C6 H3 1_555 1_555
C7 H4 1_555 1_555
C8 H5 1_555 1_555
C9 H6 1_555 1_555
C10 H7 1_555 1_555
C11 C9 1_555 1_555
H8 C11 1_555 1_555
C12 C10 1_555 1_555
H9 C12 1_555 1_555
C13 N9 1_555 1_555
C14 N10 1_555 1_555
C15 N11 1_555 1_555
C16 C11 1_555 1_555
H10 C16 1_555 1_555
C17 C12 1_555 1_555
H11 C17 1_555 1_555
C18 C21 1_555 1_555
C19 C22 1_555 1_555
C20 C23 1_555 1_555
C21 H12 1_555 1_555
C22 H13 1_555 1_555
C23 H14 1_555 1_555
C24 C29 1_555 1_555
C25 C30 1_555 1_555
C26 C21 1_555 1_555
C27 C22 1_555 1_555
C28 C23 1_555 1_555
C29 N21 1_555 1_555
C30 N22 1_555 1_555
C31 H15 1_555 1_555
C32 H16 1_555 1_555
C33 C31 1_555 1_555
H17 C33 1_555 1_555
C34 C32 1_555 1_555
H18 C34 1_555 1_555
C35 C33 1_555 1_555
H19 C35 1_555 1_555
C36 C34 1_555 1_555
H20 C36 1_555 1_555
C37 C18 1_555 1_555
H21 C37 1_555 1_555
H22 C37 1_555 1_555
H23 C37 1_555 1_555
C38 C19 1_555 1_555
H24 C38 1_555 1_555
H25 C38 1_555 1_555
H26 C38 1_555 1_555
C39 C20 1_555 1_555
H27 C39 1_555 1_555
H28 C39 1_555 1_555
H29 C39 1_555 1_555
C40 C2 1_555 1_555
H30 C40 1_555 1_555
H31 C40 1_555 1_555
H32 C40 1_555 1_555
C41 C26 1_555 1_555
H33 C41 1_555 1_555
H34 C41 1_555 1_555
H35 C41 1_555 1_555
C42 C27 1_555 1_555
H36 C42 1_555 1_555
H37 C42 1_555 1_555
H38 C42 1_555 1_555
C43 C28 1_555 1_555
H39 C43 1_555 1_555
H40 C43 1_555 1_555
H41 C43 1_555 1_555
C44 C4 1_555 1_555
H42 C44 1_555 1_555
H43 C44 1_555 1_555
H44 C44 1_555 1_555
N3 C5 1_555 1_555
N4 C6 1_555 1_555
N5 C7 1_555 1_555
N6 N2 1_555 1_555
N7 C9 1_555 1_555
N8 Cd1 1_555 1_555
N9 C5 1_555 1_555
N10 Cd1 1_555 1_555
N11 Cd1 1_555 1_555
N12 C1 1_555 1_555
N13 C13 1_555 1_555
N14 C14 1_555 1_555
N15 C15 1_555 1_555
N16 Cd2 1_555 1_555
N17 C17 1_555 1_555
N18 C13 1_555 1_555
N19 C14 1_555 1_555
N20 C15 1_555 1_555
N21 Cd1 1_555 1_555
N22 Cd1 1_555 1_555
N23 C30 1_555 1_555
N24 Cd2 1_555 1_555
O1 Cd2 1_555 1_555
O6 H47 1_555 1_555
O7 Cl1 1_555 1_555
O8 Cl2 1_555 1_555
O9 Cl3 1_555 1_555
O10 Cl4 1_555 1_555
O11 Cl1 1_555 1_555
O12 Cl2 1_555 1_555
O13 Cl3 1_555 1_555
O14 Cl4 1_555 1_555
O15 Cl1 1_555 1_555
O16 Cl2 1_555 1_555
O17 Cl3 1_555 1_555
O18 Cl4 1_555 1_555
H45 O1 1_555 1_555
H46 O1 1_555 1_555
H48 O6 1_555 1_555
Cd2B N17 1_555 1_555
N17B Cd2 1_555 1_555
N23B Cd2 1_555 1_555
C4 N2 1_555 1_555
C6 N10 1_555 1_555
C7 N11 1_555 1_555
C8 N6 1_555 1_555
C8 N12 1_555 1_555
C10 N8 1_555 1_555
C16 N16 1_555 1_555
C18 N13 1_555 1_555
C19 N14 1_555 1_555
C20 N15 1_555 1_555
C24 N7 1_555 1_555
C24 N16 1_555 1_555
C25 N8 1_555 1_555
C25 N17 1_555 1_555
C26 N18 1_555 1_555
C27 N19 1_555 1_555
C28 N20 1_555 1_555
C29 N24 1_555 1_555
C31 N21 1_555 1_555
C32 N22 1_555 1_555
C35 N24 1_555 1_555
C36 N23 1_555 1_555
N3 N18 1_555 1_555
N4 N19 1_555 1_555
N5 N20 1_555 1_555
N23 Cd2B 1_555 1_555

#END
