
#######################################################################
#
#                 Cambridge Crystallographic Data Centre
#                                CCDC 
#
#######################################################################
#
# If this CIF has been generated from an entry in the Cambridge 
# Structural Database, then it will include bibliographic, chemical, 
# crystal, experimental, refinement or atomic coordinate data resulting 
# from the CCDC's data processing and validation procedures.
#
#######################################################################

data_FAJZOH
_symmetry_cell_setting           monoclinic
_symmetry_space_group_name_H-M   'C 2/m'
_symmetry_Int_Tables_number      12
_space_group_name_Hall           '-C 2y'
loop_
_symmetry_equiv_pos_site_id
_symmetry_equiv_pos_as_xyz
1 x,y,z
2 -x,y,-z
3 1/2+x,1/2+y,z
4 1/2-x,1/2+y,-z
5 -x,-y,-z
6 x,-y,z
7 1/2-x,1/2-y,-z
8 1/2+x,1/2-y,z
_cell_length_a                   10.5461(6)
_cell_length_b                   12.4184(6)
_cell_length_c                   10.0248(6)
_cell_angle_alpha                90
_cell_angle_beta                 115.426(2)
_cell_angle_gamma                90
_cell_volume                     1185.74
loop_
_atom_site_label
_atom_site_type_symbol
_atom_site_fract_x
_atom_site_fract_y
_atom_site_fract_z
Cu1 Cu 0.11314(4) 0.5000 0.68984(4)
Cl1 Cl 0.13687(8) 0.5000 0.44447(9)
Cl2 Cl 0.32682(9) 0.5000 0.88561(10)
N1 N 0.1118(2) 0.33968(17) 0.7024(2)
N2 N 0.0754(2) 0.28545(17) 0.7977(2)
C1 C 0.0000 0.2728(3) 1.0000
C2 C 0.0355(3) 0.3459(2) 0.8991(3)
C3 C 0.0929(3) 0.1781(2) 0.7883(3)
C4 C 0.1432(3) 0.1635(2) 0.6837(3)
C5 C 0.1529(3) 0.2657(2) 0.6331(3)
H1 H -0.079(3) 0.229(2) 0.938(3)
H2 H 0.118(3) 0.393(2) 0.957(3)
H3 H -0.042(3) 0.386(3) 0.841(3)
H4 H 0.068(4) 0.129(3) 0.847(4)
H5 H 0.163(3) 0.098(3) 0.650(4)
H6 H 0.180(3) 0.293(2) 0.560(3)
Cu1A Cu -0.11314(4) 0.5000 0.31016(4)
Cl1A Cl -0.13687(8) 0.5000 0.55553(9)
C2A C -0.0355(3) 0.3459(2) 1.1009(3)
N2A N -0.0754(2) 0.28545(17) 1.2023(2)
N1A N -0.1118(2) 0.33968(17) 1.2976(2)
Cu1A_2 Cu -0.11314(4) 0.5000 1.31016(4)
Cl1A_2 Cl -0.13687(8) 0.5000 1.55553(9)
Cl1_2 Cl 0.13687(8) 0.5000 1.44447(9)
Cl2A Cl -0.32682(9) 0.5000 1.11439(10)
N1D N -0.1118(2) 0.66032(17) 1.2976(2)
N2D N -0.0754(2) 0.71455(17) 1.2023(2)
C2D C -0.0355(3) 0.6541(2) 1.1009(3)
C1D C 0.0000 0.7272(3) 1.0000
C2E C 0.0355(3) 0.6541(2) 0.8991(3)
N2E N 0.0754(2) 0.71455(17) 0.7977(2)
N1E N 0.1118(2) 0.66032(17) 0.7024(2)
C5E C 0.1529(3) 0.7343(2) 0.6331(3)
C4E C 0.1432(3) 0.8365(2) 0.6837(3)
C3E C 0.0929(3) 0.8219(2) 0.7883(3)
H4E H 0.068(4) 0.871(3) 0.847(4)
H5E H 0.163(3) 0.902(3) 0.650(4)
H6E H 0.180(3) 0.707(2) 0.560(3)
H2E H 0.118(3) 0.607(2) 0.957(3)
H3E H -0.042(3) 0.614(3) 0.841(3)
H1D H 0.079(3) 0.771(2) 1.062(3)
H1E H -0.079(3) 0.771(2) 0.938(3)
H2D H -0.118(3) 0.607(2) 1.043(3)
H3D H 0.042(3) 0.614(3) 1.159(3)
C3D C -0.0929(3) 0.8219(2) 1.2117(3)
C4D C -0.1432(3) 0.8365(2) 1.3163(3)
C5D C -0.1529(3) 0.7343(2) 1.3669(3)
H6D H -0.180(3) 0.707(2) 1.440(3)
H5D H -0.163(3) 0.902(3) 1.350(4)
H4D H -0.068(4) 0.871(3) 1.153(4)
C5A C -0.1529(3) 0.2657(2) 1.3669(3)
C4A C -0.1432(3) 0.1635(2) 1.3163(3)
C3A C -0.0929(3) 0.1781(2) 1.2117(3)
H4A H -0.068(4) 0.129(3) 1.153(4)
H5A H -0.163(3) 0.098(3) 1.350(4)
H6A H -0.180(3) 0.293(2) 1.440(3)
H2A H -0.118(3) 0.393(2) 1.043(3)
H3A H 0.042(3) 0.386(3) 1.159(3)
H1A H 0.079(3) 0.229(2) 1.062(3)
loop_
_geom_bond_atom_site_label_1
_geom_bond_atom_site_label_2
_geom_bond_site_symmetry_1
_geom_bond_site_symmetry_2
Cu1 Cl1 1_555 1_555
Cl1 Cu1A 1_555 1_555
Cl2 Cu1 1_555 1_555
N1 Cu1 1_555 1_555
N2 N1 1_555 1_555
C1 C2 1_555 1_555
C2 N2 1_555 1_555
C3 N2 1_555 1_555
C4 C3 1_555 1_555
C5 N1 1_555 1_555
H1 C1 1_555 1_555
H2 C2 1_555 1_555
H3 C2 1_555 1_555
H4 C3 1_555 1_555
H5 C4 1_555 1_555
H6 C5 1_555 1_555
Cu1A Cl1A 1_555 1_555
Cl1A Cu1 1_555 1_555
C2A C1 1_555 1_555
N2A C2A 1_555 1_555
N1A N2A 1_555 1_555
Cu1A_2 N1A 1_555 1_555
Cl1A_2 Cu1A_2 1_555 1_555
Cl1_2 Cu1A_2 1_555 1_555
Cl2A Cu1A_2 1_555 1_555
N1D Cu1A_2 1_555 1_555
N2D N1D 1_555 1_555
C2D N2D 1_555 1_555
C1D C2D 1_555 1_555
C2E C1D 1_555 1_555
N2E C2E 1_555 1_555
N1E Cu1 1_555 1_555
C5E N1E 1_555 1_555
C4E C5E 1_555 1_555
C3E N2E 1_555 1_555
H4E C3E 1_555 1_555
H5E C4E 1_555 1_555
H6E C5E 1_555 1_555
H2E C2E 1_555 1_555
H3E C2E 1_555 1_555
H1D C1D 1_555 1_555
H1E C1D 1_555 1_555
H2D C2D 1_555 1_555
H3D C2D 1_555 1_555
C3D N2D 1_555 1_555
C4D C3D 1_555 1_555
C5D N1D 1_555 1_555
H6D C5D 1_555 1_555
H5D C4D 1_555 1_555
H4D C3D 1_555 1_555
C5A N1A 1_555 1_555
C4A C5A 1_555 1_555
C3A N2A 1_555 1_555
H4A C3A 1_555 1_555
H5A C4A 1_555 1_555
H6A C5A 1_555 1_555
H2A C2A 1_555 1_555
H3A C2A 1_555 1_555
H1A C1 1_555 1_555
C4 C5 1_555 1_555
N2E N1E 1_555 1_555
C4E C3E 1_555 1_555
C4D C5D 1_555 1_555
C4A C3A 1_555 1_555

#END
