
#######################################################################
#
#                 Cambridge Crystallographic Data Centre
#                                CCDC 
#
#######################################################################
#
# If this CIF has been generated from an entry in the Cambridge 
# Structural Database, then it will include bibliographic, chemical, 
# crystal, experimental, refinement or atomic coordinate data resulting 
# from the CCDC's data processing and validation procedures.
#
#######################################################################

data_FAKGOP
_symmetry_cell_setting           monoclinic
_symmetry_space_group_name_H-M   'P 21/n'
_symmetry_Int_Tables_number      14
_space_group_name_Hall           '-P 2yn'
loop_
_symmetry_equiv_pos_site_id
_symmetry_equiv_pos_as_xyz
1 x,y,z
2 1/2-x,1/2+y,1/2-z
3 -x,-y,-z
4 1/2+x,1/2-y,1/2+z
_cell_length_a                   13.3464(6)
_cell_length_b                   13.8945(4)
_cell_length_c                   14.5650(6)
_cell_angle_alpha                90
_cell_angle_beta                 114.553(5)
_cell_angle_gamma                90
_cell_volume                     2456.73
loop_
_atom_site_label
_atom_site_type_symbol
_atom_site_fract_x
_atom_site_fract_y
_atom_site_fract_z
Ni1 Ni 0.52330(3) 0.40123(2) 0.76308(2)
Ni2 Ni 1.34173(3) 0.26583(2) 1.57491(2)
C1 C 1.3056(2) 0.47432(19) 1.6274(2)
O1 O 0.89883(17) 0.69038(15) 1.15280(13)
O2 O 1.06609(19) 0.67792(16) 1.35431(14)
O3 O 0.62226(18) 0.51594(15) 0.75405(14)
C2 C 1.2291(2) 0.5596(2) 1.5917(2)
C3 C 0.7408(2) 0.60498(19) 0.89846(19)
O4 O 1.38641(16) 0.48206(14) 1.71216(14)
O5 O 0.61408(17) 0.48078(15) 0.89550(14)
O6 O 1.28269(16) 0.40234(13) 1.57060(14)
C4 C 1.1094(2) 0.6607(2) 1.45679(19)
C5 C 0.9690(3) 0.7683(2) 1.2062(2)
H1 H 0.9330 0.8294 1.1806
H2 H 1.0372 0.7663 1.1974
C6 C 1.1335(2) 0.6907(2) 1.62693(19)
C7 C 1.0843(2) 0.7146(2) 1.5241(2)
H3 H 1.0355 0.7661 1.5016
C8 C 1.2065(2) 0.6147(2) 1.6608(2)
H4 H 1.2404 0.6004 1.7293
C9 C 1.1810(3) 0.5838(2) 1.4899(2)
H5 H 1.1971 0.5480 1.4439
C10 C 0.9032(2) 0.7423(2) 0.9939(2)
H6 H 0.9577 0.7879 1.0258
C11 C 0.7827(2) 0.6168(2) 1.0028(2)
H7 H 0.7568 0.5785 1.0407
C12 C 0.8630(2) 0.6854(2) 1.04980(19)
C13 C 0.7795(2) 0.6618(2) 0.84203(19)
H8 H 0.7510 0.6543 0.7723
C14 C 0.6547(2) 0.5303(2) 0.84715(19)
C15 C 0.9924(3) 0.7577(2) 1.3155(2)
H9 H 1.0259 0.8160 1.3520
H10 H 0.9246 0.7461 1.3231
C16 C 0.8609(2) 0.73002(19) 0.88949(19)
C17 C 1.1048(2) 0.74647(19) 1.7005(2)
O7 O 1.02617(17) 0.80635(15) 1.66446(13)
O8 O 1.15734(18) 0.72904(15) 1.79210(14)
C18 C 0.9026(2) 0.78927(19) 0.8280(2)
O9 O 0.99931(15) 0.82678(13) 0.86790(13)
O10 O 0.84433(16) 0.80583(15) 0.73676(13)
O11 O 1.32556(18) 0.29103(15) 1.42966(14)
O12 O 1.18273(18) 0.21183(17) 1.52066(15)
O13 O 1.3987(2) 0.13102(16) 1.56370(17)
Ni1_2 Ni 1.52330(3) 0.40123(2) 1.76308(2)
Ni1A Ni 0.97670(3) 0.90123(2) 1.73692(2)
Ni1A_2 Ni 0.97670(3) 0.90123(2) 0.73692(2)
Ni2A Ni 1.15827(3) 0.76583(2) 1.92509(2)
Ni2A_2 Ni 1.15827(3) 0.76583(2) 0.92509(2)
O4_2 O 0.38641(16) 0.48206(14) 0.71216(14)
O7A O 0.47383(17) 0.30635(15) 0.83554(13)
O8A O 1.34266(18) 0.22904(15) 1.70790(14)
O9A O 0.50069(15) 0.32678(13) 0.63210(13)
O9A_2 O 1.50069(15) 0.32678(13) 1.63210(13)
O10A O 0.65567(16) 0.30583(15) 0.76324(13)
O14 O 0.3669(2) 0.0961(2) 0.3637(2)
O15 O 0.1128(3) 0.0498(2) 0.5901(2)
O16 O 0.4994(3) 0.0044(2) 0.7162(2)
O17 O 0.1100(3) 0.3784(3) 0.3744(3)
O18 O -0.3911(5) 0.5177(3) -0.4363(3)
loop_
_geom_bond_atom_site_label_1
_geom_bond_atom_site_label_2
_geom_bond_site_symmetry_1
_geom_bond_site_symmetry_2
Ni1 O3 1_555 1_555
Ni2 O6 1_555 1_555
C1 C2 1_555 1_555
O1 C5 1_555 1_555
O2 C4 1_555 1_555
O3 C14 1_555 1_555
C2 C8 1_555 1_555
C3 C11 1_555 1_555
O4 C1 1_555 1_555
O5 Ni1 1_555 1_555
O6 C1 1_555 1_555
C4 C7 1_555 1_555
C5 H1 1_555 1_555
H2 C5 1_555 1_555
C6 C7 1_555 1_555
C7 H3 1_555 1_555
C8 C6 1_555 1_555
H4 C8 1_555 1_555
C9 C2 1_555 1_555
H5 C9 1_555 1_555
C10 H6 1_555 1_555
C11 H7 1_555 1_555
C12 O1 1_555 1_555
C13 C3 1_555 1_555
H8 C13 1_555 1_555
C14 C3 1_555 1_555
C15 O2 1_555 1_555
H9 C15 1_555 1_555
H10 C15 1_555 1_555
C16 C10 1_555 1_555
C17 C6 1_555 1_555
O7 C17 1_555 1_555
O8 C17 1_555 1_555
C18 C16 1_555 1_555
O9 C18 1_555 1_555
O10 C18 1_555 1_555
O11 Ni2 1_555 1_555
O12 Ni2 1_555 1_555
O13 Ni2 1_555 1_555
Ni1_2 O4 1_555 1_555
Ni1A O7 1_555 1_555
Ni1A_2 O9 1_555 1_555
Ni2A O8 1_555 1_555
Ni2A_2 O9 1_555 1_555
O4_2 Ni1 1_555 1_555
O7A Ni1 1_555 1_555
O8A Ni2 1_555 1_555
O9A Ni1 1_555 1_555
O9A_2 Ni2 1_555 1_555
O10A Ni1 1_555 1_555
O5 C14 1_555 1_555
C4 C9 1_555 1_555
C5 C15 1_555 1_555
C10 C12 1_555 1_555
C11 C12 1_555 1_555
C13 C16 1_555 1_555
O10 Ni1A_2 1_555 1_555
Ni1_2 O9A_2 1_555 1_555

#END
