
#######################################################################
#
#                 Cambridge Crystallographic Data Centre
#                                CCDC 
#
#######################################################################
#
# If this CIF has been generated from an entry in the Cambridge 
# Structural Database, then it will include bibliographic, chemical, 
# crystal, experimental, refinement or atomic coordinate data resulting 
# from the CCDC's data processing and validation procedures.
#
#######################################################################

data_FAKHEG
_symmetry_cell_setting           orthorhombic
_symmetry_space_group_name_H-M   'P b c n'
_symmetry_Int_Tables_number      60
_space_group_name_Hall           '-P 2n 2ab'
loop_
_symmetry_equiv_pos_site_id
_symmetry_equiv_pos_as_xyz
1 x,y,z
2 1/2-x,1/2-y,1/2+z
3 1/2+x,1/2-y,-z
4 -x,y,1/2-z
5 -x,-y,-z
6 1/2+x,1/2+y,1/2-z
7 1/2-x,1/2+y,z
8 x,-y,1/2+z
_cell_length_a                   17.930(5)
_cell_length_b                   20.008(5)
_cell_length_c                   22.662(5)
_cell_angle_alpha                90
_cell_angle_beta                 90
_cell_angle_gamma                90
_cell_volume                     8129.84
loop_
_atom_site_label
_atom_site_type_symbol
_atom_site_fract_x
_atom_site_fract_y
_atom_site_fract_z
Co1 Co 0.39186(4) 0.56652(3) 0.36378(3)
Co2 Co 0.25890(4) 0.44158(3) 0.31688(3)
C1 C 0.3160(3) 0.4680(2) 0.4440(2)
C2 C 0.4320(3) 0.4572(3) 0.6461(2)
C3 C 0.3656(3) 0.4471(3) 0.6057(2)
C4 C 0.3003(3) 0.4193(3) 0.6273(2)
H1 H 0.2964 0.4096 0.6673
C5 C 0.2414(3) 0.4058(3) 0.5907(2)
C6 C 0.2469(3) 0.4203(3) 0.5304(2)
H2 H 0.2075 0.4101 0.5052
C7 C 0.3099(3) 0.4493(3) 0.5084(2)
C8 C 0.3696(3) 0.4627(3) 0.5467(2)
H3 H 0.4126 0.4826 0.5320
C9 C 0.1713(3) 0.3548(3) 0.6674(2)
H4 H 0.1720 0.3921 0.6948
H5 H 0.2134 0.3260 0.6760
C10 C 0.0996(3) 0.3167(3) 0.6731(3)
H6 H 0.0936 0.2869 0.6397
H7 H 0.1003 0.2900 0.7088
C11 C -0.0312(3) 0.3368(2) 0.6760(2)
C12 C -0.0898(3) 0.3819(2) 0.6751(2)
H8 H -0.0798 0.4275 0.6765
C13 C -0.1631(3) 0.3601(2) 0.6721(2)
C14 C -0.1770(3) 0.2918(2) 0.6714(2)
H9 H -0.2257 0.2764 0.6677
C15 C -0.1190(3) 0.2464(2) 0.6763(2)
C16 C -0.0459(3) 0.2688(2) 0.6783(2)
H10 H -0.0069 0.2384 0.6811
C17 C -0.1348(3) 0.1720(2) 0.6791(2)
C18 C -0.2252(3) 0.4102(2) 0.6694(2)
C19 C 0.4714(3) 0.6422(3) 0.4619(3)
H11 H 0.4992 0.6038 0.4691
C20 C 0.3935(4) 0.7073(3) 0.4303(3)
H12 H 0.3532 0.7246 0.4094
C21 C 0.5408(4) 0.7174(3) 0.5297(3)
H13 H 0.5620 0.6771 0.5467
H14 H 0.5184 0.7429 0.5615
C22 C 0.6030(3) 0.7584(3) 0.5021(2)
C23 C 0.6395(4) 0.7366(3) 0.4525(3)
H15 H 0.6263 0.6960 0.4354
C24 C 0.6958(4) 0.7748(3) 0.4278(3)
H16 H 0.7193 0.7603 0.3936
C25 C 0.7172(3) 0.8337(3) 0.4535(2)
C26 C 0.6811(3) 0.8548(3) 0.5031(2)
H17 H 0.6950 0.8948 0.5209
C27 C 0.6244(3) 0.8175(3) 0.5272(2)
H18 H 0.6003 0.8326 0.5610
C28 C 0.7774(4) 0.8765(3) 0.4259(2)
H19 H 0.7900 0.9128 0.4524
H20 H 0.8219 0.8497 0.4200
C29 C 0.7854(3) 0.9014(3) 0.3169(3)
H21 H 0.8305 0.8801 0.3095
C30 C 0.6877(3) 0.9558(3) 0.3090(3)
H22 H 0.6497 0.9813 0.2926
C31 C 0.1077(3) 0.4211(3) 0.3762(2)
H23 H 0.1216 0.4522 0.4046
C32 C 0.1070(4) 0.3574(3) 0.3041(3)
H24 H 0.1219 0.3349 0.2702
C33 C -0.0192(3) 0.3918(3) 0.4169(3)
H25 H -0.0223 0.3496 0.4379
H26 H -0.0655 0.3980 0.3955
C34 C -0.0097(3) 0.4472(3) 0.4602(3)
C35 C -0.0385(3) 0.5107(3) 0.4483(3)
H27 H -0.0648 0.5181 0.4136
C36 C -0.0282(3) 0.5624(3) 0.4873(3)
H28 H -0.0471 0.6044 0.4784
N1 N 0.4154(3) 0.6451(2) 0.42411(19)
N2 N 0.4323(3) 0.7438(3) 0.4681(3)
N3 N 0.4832(3) 0.6989(3) 0.4878(2)
N4 N 0.7529(3) 0.9043(2) 0.3687(2)
N5 N 0.6889(3) 0.9396(3) 0.3645(2)
N6 N 0.7454(2) 0.9329(2) 0.27687(18)
N7 N 0.1499(2) 0.4022(2) 0.33121(19)
N8 N 0.0414(3) 0.3475(3) 0.3292(3)
N9 N 0.0434(2) 0.3896(2) 0.3750(2)
O1 O 0.3695(2) 0.5052(2) 0.43157(16)
O2 O 0.2685(2) 0.44662(19) 0.40872(15)
O3 O 0.37124(17) 0.48606(15) 0.30161(14)
O4 O 0.4951(2) 0.46648(19) 0.62256(15)
O5 O 0.4265(2) 0.62838(19) 0.29374(16)
O6 O 0.4205(2) 0.4528(2) 0.70071(17)
O8 O 0.1755(2) 0.3787(2) 0.60792(17)
O10 O 0.03911(18) 0.36322(16) 0.67508(16)
O12 O -0.0801(2) 0.13330(18) 0.6777(2)
O13 O -0.20047(19) 0.15463(16) 0.68455(17)
O14 O -0.2868(2) 0.39110(18) 0.64975(17)
O15 O -0.2097(2) 0.46710(16) 0.68754(17)
Co1D Co -0.39186(4) 0.43348(3) 0.63622(3)
Co1_2 Co -0.60814(4) 0.56652(3) 0.36378(3)
Co1D_2 Co 0.60814(4) 0.43348(3) 0.63622(3)
Co2D Co -0.25890(4) 0.55842(3) 0.68312(3)
Co2A Co -0.75890(4) 0.05842(3) 0.81688(3)
Co2B Co -0.24110(4) 0.05842(3) 0.68312(3)
Co2E Co 0.75890(4) 0.94158(3) 0.18312(3)
Co2F Co 0.24110(4) 0.94158(3) 0.31688(3)
C1D C -0.3160(3) 0.5320(2) 0.5560(2)
C2D C -0.4320(3) 0.5428(3) 0.3539(2)
C3D C -0.3656(3) 0.5529(3) 0.3943(2)
C4D C -0.3003(3) 0.5807(3) 0.3727(2)
H1D H -0.2964 0.5904 0.3327
C5D C -0.2414(3) 0.5942(3) 0.4093(2)
C6D C -0.2469(3) 0.5797(3) 0.4696(2)
H2D H -0.2075 0.5899 0.4948
C7D C -0.3099(3) 0.5507(3) 0.4916(2)
C8D C -0.3696(3) 0.5373(3) 0.4533(2)
H3D H -0.4126 0.5174 0.4680
C9D C -0.1713(3) 0.6452(3) 0.3326(2)
H4D H -0.1720 0.6079 0.3052
H5D H -0.2134 0.6740 0.3240
C10D C -0.0996(3) 0.6833(3) 0.3269(3)
H6D H -0.0936 0.7131 0.3603
H7D H -0.1003 0.7100 0.2912
C11D C 0.0312(3) 0.6632(2) 0.3240(2)
C12D C 0.0898(3) 0.6181(2) 0.3249(2)
H8D H 0.0798 0.5725 0.3235
C13D C 0.1631(3) 0.6399(2) 0.3279(2)
C14D C 0.1770(3) 0.7082(2) 0.3286(2)
H9D H 0.2257 0.7236 0.3323
C15D C 0.1190(3) 0.7536(2) 0.3237(2)
C16D C 0.0459(3) 0.7312(2) 0.3217(2)
H10D H 0.0069 0.7616 0.3189
C17D C 0.1348(3) 0.8280(2) 0.3209(2)
C18D C 0.2252(3) 0.5898(2) 0.3306(2)
C19D C -0.4714(3) 0.3578(3) 0.5381(3)
H11D H -0.4992 0.3962 0.5309
C20D C -0.3935(4) 0.2927(3) 0.5697(3)
H12D H -0.3532 0.2754 0.5906
C21D C -0.5408(4) 0.2826(3) 0.4703(3)
H13D H -0.5620 0.3229 0.4533
H14D H -0.5184 0.2571 0.4385
C22D C -0.6030(3) 0.2416(3) 0.4979(2)
C23D C -0.6395(4) 0.2634(3) 0.5475(3)
H15D H -0.6263 0.3040 0.5646
C24D C -0.6958(4) 0.2252(3) 0.5722(3)
H16D H -0.7193 0.2397 0.6064
C25D C -0.7172(3) 0.1663(3) 0.5465(2)
C26D C -0.6811(3) 0.1452(3) 0.4969(2)
H17D H -0.6950 0.1052 0.4791
C27D C -0.6244(3) 0.1825(3) 0.4728(2)
H18D H -0.6003 0.1674 0.4390
C28D C -0.7774(4) 0.1235(3) 0.5741(2)
H19D H -0.7900 0.0872 0.5476
H20D H -0.8219 0.1503 0.5800
C29D C -0.7854(3) 0.0986(3) 0.6831(3)
H21D H -0.8305 0.1199 0.6905
C30D C -0.6877(3) 0.0442(3) 0.6910(3)
H22D H -0.6497 0.0187 0.7074
C31D C -0.1077(3) 0.5789(3) 0.6238(2)
H23D H -0.1216 0.5478 0.5954
C32D C -0.1070(4) 0.6426(3) 0.6959(3)
H24D H -0.1219 0.6651 0.7298
C33D C 0.0192(3) 0.6082(3) 0.5831(3)
H25D H 0.0223 0.6504 0.5621
H26D H 0.0655 0.6020 0.6045
C34D C 0.0097(3) 0.5528(3) 0.5398(3)
C35D C 0.0385(3) 0.4893(3) 0.5517(3)
H27D H 0.0648 0.4819 0.5864
C36D C 0.0282(3) 0.4376(3) 0.5127(3)
H28D H 0.0471 0.3956 0.5216
N1D N -0.4154(3) 0.3549(2) 0.57589(19)
N2D N -0.4323(3) 0.2562(3) 0.5319(3)
N3D N -0.4832(3) 0.3011(3) 0.5122(2)
N4D N -0.7529(3) 0.0957(2) 0.6313(2)
N5D N -0.6889(3) 0.0604(3) 0.6355(2)
N6D N -0.7454(2) 0.0671(2) 0.72313(18)
N6A N -0.2454(2) 0.5671(2) 0.77687(18)
N6E N 0.2454(2) 0.4329(2) 0.22313(18)
N7D N -0.1499(2) 0.5978(2) 0.66879(19)
N8D N -0.0414(3) 0.6525(3) 0.6708(3)
N9D N -0.0434(2) 0.6104(2) 0.6250(2)
O1D O -0.3695(2) 0.4948(2) 0.56843(16)
O2D O -0.2685(2) 0.55338(19) 0.59128(15)
O3D O -0.37124(17) 0.51394(15) 0.69839(14)
O4D O -0.4951(2) 0.53352(19) 0.37744(15)
O4_2 O -0.5049(2) 0.46648(19) 0.62256(15)
O4D_2 O 0.5049(2) 0.53352(19) 0.37744(15)
O5D O -0.4265(2) 0.37162(19) 0.70626(16)
O6D O -0.4205(2) 0.5472(2) 0.29929(17)
O8D O -0.1755(2) 0.6213(2) 0.39208(17)
O10D O -0.03911(18) 0.63678(16) 0.32492(16)
O12D O 0.0801(2) 0.86670(18) 0.3223(2)
O13D O 0.20047(19) 0.84537(16) 0.31545(17)
O13B O 0.29953(19) 0.34537(16) 0.31545(17)
O13F O -0.29953(19) 0.65463(16) 0.68455(17)
O14D O 0.2868(2) 0.60890(18) 0.35025(17)
O15D O 0.2097(2) 0.53290(16) 0.31246(17)
O7 O 0.4507(3) 0.6152(3) 0.6180(3)
O9 O 0.4626(3) 0.2796(2) 0.6774(2)
O11 O 0.3202(4) 0.2751(4) 0.7358(3)
loop_
_geom_bond_atom_site_label_1
_geom_bond_atom_site_label_2
_geom_bond_site_symmetry_1
_geom_bond_site_symmetry_2
Co1 N1 1_555 1_555
Co2 N7 1_555 1_555
C1 C7 1_555 1_555
C2 C3 1_555 1_555
C3 C4 1_555 1_555
C4 H1 1_555 1_555
C5 C4 1_555 1_555
C6 C5 1_555 1_555
H2 C6 1_555 1_555
C7 C6 1_555 1_555
C8 C3 1_555 1_555
H3 C8 1_555 1_555
C9 H4 1_555 1_555
H5 C9 1_555 1_555
C10 C9 1_555 1_555
H6 C10 1_555 1_555
H7 C10 1_555 1_555
C11 C12 1_555 1_555
C12 H8 1_555 1_555
C13 C12 1_555 1_555
C14 C13 1_555 1_555
H9 C14 1_555 1_555
C15 C14 1_555 1_555
C16 C11 1_555 1_555
H10 C16 1_555 1_555
C17 C15 1_555 1_555
C18 C13 1_555 1_555
C19 H11 1_555 1_555
C20 H12 1_555 1_555
C21 H13 1_555 1_555
H14 C21 1_555 1_555
C22 C21 1_555 1_555
C23 C22 1_555 1_555
H15 C23 1_555 1_555
C24 C23 1_555 1_555
H16 C24 1_555 1_555
C25 C24 1_555 1_555
C26 C25 1_555 1_555
H17 C26 1_555 1_555
C27 C22 1_555 1_555
H18 C27 1_555 1_555
C28 C25 1_555 1_555
H19 C28 1_555 1_555
H20 C28 1_555 1_555
C29 H21 1_555 1_555
C30 H22 1_555 1_555
C31 H23 1_555 1_555
C32 H24 1_555 1_555
C33 H25 1_555 1_555
H26 C33 1_555 1_555
C34 C33 1_555 1_555
C35 C34 1_555 1_555
H27 C35 1_555 1_555
C36 C35 1_555 1_555
H28 C36 1_555 1_555
N1 C19 1_555 1_555
N2 C20 1_555 1_555
N3 C19 1_555 1_555
N4 C28 1_555 1_555
N5 C30 1_555 1_555
N6 C29 1_555 1_555
N7 C31 1_555 1_555
N8 C32 1_555 1_555
N9 C31 1_555 1_555
O1 Co1 1_555 1_555
O2 Co2 1_555 1_555
O3 Co1 1_555 1_555
O4 C2 1_555 1_555
O5 Co1 1_555 1_555
O6 C2 1_555 1_555
O8 C5 1_555 1_555
O10 C10 1_555 1_555
O12 C17 1_555 1_555
O13 C17 1_555 1_555
O14 C18 1_555 1_555
O15 C18 1_555 1_555
Co1D O14 1_555 1_555
Co1_2 O4D 1_555 1_555
Co1D_2 O4 1_555 1_555
Co2D O15 1_555 1_555
Co2A N6D 1_555 1_555
Co2B O13 1_555 1_555
Co2E N6 1_555 1_555
Co2F O13D 1_555 1_555
C1D C7D 1_555 1_555
C2D C3D 1_555 1_555
C3D C4D 1_555 1_555
C4D H1D 1_555 1_555
C5D C4D 1_555 1_555
C6D C5D 1_555 1_555
H2D C6D 1_555 1_555
C7D C6D 1_555 1_555
C8D C3D 1_555 1_555
H3D C8D 1_555 1_555
C9D H4D 1_555 1_555
H5D C9D 1_555 1_555
C10D C9D 1_555 1_555
H6D C10D 1_555 1_555
H7D C10D 1_555 1_555
C11D C12D 1_555 1_555
C12D H8D 1_555 1_555
C13D C12D 1_555 1_555
C14D C13D 1_555 1_555
H9D C14D 1_555 1_555
C15D C14D 1_555 1_555
C16D C11D 1_555 1_555
H10D C16D 1_555 1_555
C17D C15D 1_555 1_555
C18D C13D 1_555 1_555
C19D H11D 1_555 1_555
C20D H12D 1_555 1_555
C21D H13D 1_555 1_555
H14D C21D 1_555 1_555
C22D C21D 1_555 1_555
C23D C22D 1_555 1_555
H15D C23D 1_555 1_555
C24D C23D 1_555 1_555
H16D C24D 1_555 1_555
C25D C24D 1_555 1_555
C26D C25D 1_555 1_555
H17D C26D 1_555 1_555
C27D C22D 1_555 1_555
H18D C27D 1_555 1_555
C28D C25D 1_555 1_555
H19D C28D 1_555 1_555
H20D C28D 1_555 1_555
C29D H21D 1_555 1_555
C30D H22D 1_555 1_555
C31D H23D 1_555 1_555
C32D H24D 1_555 1_555
C33D H25D 1_555 1_555
H26D C33D 1_555 1_555
C34D C36 1_555 1_555
C35D C34D 1_555 1_555
H27D C35D 1_555 1_555
C36D C34 1_555 1_555
H28D C36D 1_555 1_555
N1D Co1D 1_555 1_555
N2D C20D 1_555 1_555
N3D C19D 1_555 1_555
N4D C28D 1_555 1_555
N5D C30D 1_555 1_555
N6D C29D 1_555 1_555
N6A Co2D 1_555 1_555
N6E Co2 1_555 1_555
N7D Co2D 1_555 1_555
N8D C32D 1_555 1_555
N9D C31D 1_555 1_555
O1D Co1D 1_555 1_555
O2D Co2D 1_555 1_555
O3D Co1D 1_555 1_555
O4D C2D 1_555 1_555
O4_2 Co1D 1_555 1_555
O4D_2 Co1 1_555 1_555
O5D Co1D 1_555 1_555
O6D C2D 1_555 1_555
O8D C5D 1_555 1_555
O10D C10D 1_555 1_555
O12D C17D 1_555 1_555
O13D C17D 1_555 1_555
O13B Co2 1_555 1_555
O13F Co2D 1_555 1_555
O14D Co1 1_555 1_555
O15D Co2 1_555 1_555
Co2 O3 1_555 1_555
C1 O1 1_555 1_555
C1 O2 1_555 1_555
C7 C8 1_555 1_555
C9 O8 1_555 1_555
C11 O10 1_555 1_555
C15 C16 1_555 1_555
C20 N1 1_555 1_555
C21 N3 1_555 1_555
C26 C27 1_555 1_555
C29 N4 1_555 1_555
C30 N6 1_555 1_555
C32 N7 1_555 1_555
C33 N9 1_555 1_555
N2 N3 1_555 1_555
N4 N5 1_555 1_555
N8 N9 1_555 1_555
Co2D O3D 1_555 1_555
C1D O1D 1_555 1_555
C1D O2D 1_555 1_555
C7D C8D 1_555 1_555
C9D O8D 1_555 1_555
C11D O10D 1_555 1_555
C15D C16D 1_555 1_555
C18D O14D 1_555 1_555
C18D O15D 1_555 1_555
C19D N1D 1_555 1_555
C20D N1D 1_555 1_555
C21D N3D 1_555 1_555
C26D C27D 1_555 1_555
C29D N4D 1_555 1_555
C30D N6D 1_555 1_555
C31D N7D 1_555 1_555
C32D N7D 1_555 1_555
C33D C34D 1_555 1_555
C33D N9D 1_555 1_555
C35D C36D 1_555 1_555
N2D N3D 1_555 1_555
N4D N5D 1_555 1_555
N8D N9D 1_555 1_555

#END
