
#######################################################################
#
#                 Cambridge Crystallographic Data Centre
#                                CCDC 
#
#######################################################################
#
# If this CIF has been generated from an entry in the Cambridge 
# Structural Database, then it will include bibliographic, chemical, 
# crystal, experimental, refinement or atomic coordinate data resulting 
# from the CCDC's data processing and validation procedures.
#
#######################################################################

data_FAKHOQ
_symmetry_cell_setting           triclinic
_symmetry_space_group_name_H-M   'P -1'
_symmetry_Int_Tables_number      2
_space_group_name_Hall           '-P 1'
loop_
_symmetry_equiv_pos_site_id
_symmetry_equiv_pos_as_xyz
1 x,y,z
2 -x,-y,-z
_cell_length_a                   9.536(5)
_cell_length_b                   10.243(5)
_cell_length_c                   15.501(5)
_cell_angle_alpha                89.398(5)
_cell_angle_beta                 76.990(5)
_cell_angle_gamma                88.190(5)
_cell_volume                     1474.48
loop_
_atom_site_label
_atom_site_type_symbol
_atom_site_fract_x
_atom_site_fract_y
_atom_site_fract_z
Zn1 Zn 0.09115(6) 0.12418(6) 0.31701(4)
Zn2 Zn 0.22301(6) 0.93201(5) -0.56227(4)
Zn3 Zn -0.06921(6) 0.29488(6) 0.18206(4)
O1 O -0.0767(4) 0.2116(3) 0.2966(3)
O2 O 0.4293(4) 0.4017(3) -0.3115(3)
C1 C 0.5120(6) 1.0571(6) -0.6255(4)
H1 H 0.4946 1.1183 -0.5801
C2 C 0.2442(5) 0.6926(5) -0.5202(4)
O3 O 0.2326(5) 0.7007(4) -0.5974(3)
O4 O 0.2392(4) 0.7945(3) -0.4721(2)
O5 O 0.8518(4) 0.3627(4) 0.0294(3)
O6 O 0.4430(4) 0.4004(4) -0.1371(3)
C3 C 0.3627(5) 0.2375(5) 0.0750(4)
N1 N 0.6163(5) 0.9421(4) -0.7395(3)
C4 C 0.4702(6) 0.3465(6) -0.0613(4)
C5 C 0.4953(5) 0.2323(5) 0.0981(4)
H2 H 0.5049 0.1911 0.1503
N2 N 0.9924(5) 0.6919(4) -0.8238(4)
C6 C 0.2676(6) 0.5622(5) -0.4800(4)
O7 O 0.7580(4) 0.2449(4) 0.1462(3)
C7 C 0.2439(5) 0.3288(4) -0.4835(4)
C8 C 0.3604(6) 0.4244(5) -0.3789(4)
C9 C 0.6136(5) 0.2888(5) 0.0432(4)
O8 O 0.2449(4) 0.1426(4) 0.2100(3)
C10 C 0.3132(6) 0.3155(5) -0.4148(4)
H3 H 0.3284 0.2329 -0.3925
C11 C 0.3364(5) 0.5499(5) -0.4104(4)
H4 H 0.3659 0.6232 -0.3853
C12 C 0.2210(6) 0.4536(5) -0.5172(4)
H5 H 0.1751 0.4634 -0.5639
O9 O 0.1118(3) 0.2077(4) 0.1156(3)
N3 N 0.9702(5) 0.4816(4) -0.8034(3)
N4 N 0.4169(4) 0.9665(4) -0.6397(3)
C13 C 0.7534(6) 0.3001(6) 0.0735(4)
O10 O 0.0750(4) -0.0464(3) 0.3697(2)
C14 C 0.4896(7) 0.5089(6) -0.2739(4)
H6 H 0.4150 0.5739 -0.2504
H7 H 0.5626 0.5499 -0.3188
C15 C 0.3503(6) 0.2956(5) -0.0038(4)
H8 H 0.2611 0.3010 -0.0186
C16 C 0.6010(6) 0.3446(5) -0.0369(4)
H9 H 0.6808 0.3807 -0.0742
C17 C 1.0226(6) 0.5340(6) -0.7353(5)
H10 H 1.0438 0.4868 -0.6880
C18 C 0.2296(6) 0.1918(5) 0.1375(4)
C19 C 0.5551(6) 0.4539(6) -0.2007(4)
H11 H 0.6278 0.3871 -0.2238
H12 H 0.5999 0.5225 -0.1747
C20 C 0.6341(6) 1.0429(6) -0.6879(5)
H13 H 0.7156 1.0929 -0.6943
C21 C 0.8753(6) 0.9124(6) -0.8080(5)
H14 H 0.8840 0.9061 -0.7470
H15 H 0.8940 1.0017 -0.8276
C22 C 0.7237(6) 0.8813(6) -0.8125(5)
H16 H 0.7058 0.9121 -0.8686
H17 H 0.7133 0.7873 -0.8101
C23 C 1.0384(7) 0.6640(6) -0.7477(5)
H18 H 1.0731 0.7220 -0.7124
C24 C 0.9880(6) 0.8220(5) -0.8645(5)
H19 H 0.9666 0.8131 -0.9224
H20 H 1.0818 0.8602 -0.8725
C25 C 0.9537(6) 0.5819(5) -0.8550(4)
H21 H 0.9195 0.5761 -0.9064
C26 C 0.4838(6) 0.8985(5) -0.7087(4)
H22 H 0.4445 0.8295 -0.7329
C27 C 0.1982(5) 0.2136(5) -0.5268(4)
O11 O 0.1999(4) 0.1020(3) -0.4898(2)
O12 O 0.1655(5) 0.2341(3) -0.5999(3)
Zn1_2 Zn 0.09115(6) 0.12418(6) -0.68299(4)
Zn2_2 Zn 0.22301(6) -0.06799(5) 0.43773(4)
Zn2_3 Zn 0.22301(6) -0.06799(5) -0.56227(4)
Zn3_2 Zn 0.93079(6) 0.29488(6) 0.18206(4)
Zn3_3 Zn 0.93079(6) 0.29488(6) -0.81794(4)
O7_2 O -0.2420(4) 0.2449(4) 0.1462(3)
N3_2 N -0.0298(5) 0.4816(4) 0.1966(3)
O10_2 O 0.0750(4) 0.9536(3) -0.6303(2)
O11_2 O 0.1999(4) 1.1020(3) -0.4898(2)
O12_2 O 0.1655(5) 0.2341(3) 0.4001(3)
loop_
_geom_bond_atom_site_label_1
_geom_bond_atom_site_label_2
_geom_bond_site_symmetry_1
_geom_bond_site_symmetry_2
Zn1 O1 1_555 1_555
Zn2 O3 1_555 1_555
Zn3 O1 1_555 1_555
O2 C8 1_555 1_555
C1 H1 1_555 1_555
C2 O3 1_555 1_555
O4 Zn2 1_555 1_555
O5 C13 1_555 1_555
O6 C4 1_555 1_555
C3 C5 1_555 1_555
N1 C20 1_555 1_555
C4 C15 1_555 1_555
C5 H2 1_555 1_555
N2 C23 1_555 1_555
C6 C2 1_555 1_555
O7 C13 1_555 1_555
C7 C10 1_555 1_555
C8 C10 1_555 1_555
C9 C5 1_555 1_555
O8 Zn1 1_555 1_555
C10 H3 1_555 1_555
C11 C6 1_555 1_555
H4 C11 1_555 1_555
C12 C6 1_555 1_555
H5 C12 1_555 1_555
O9 Zn3 1_555 1_555
N3 C17 1_555 1_555
N4 Zn2 1_555 1_555
C13 C9 1_555 1_555
O10 Zn1 1_555 1_555
C14 O2 1_555 1_555
H6 C14 1_555 1_555
H7 C14 1_555 1_555
C15 C3 1_555 1_555
H8 C15 1_555 1_555
C16 C4 1_555 1_555
H9 C16 1_555 1_555
C17 H10 1_555 1_555
C18 C3 1_555 1_555
C19 O6 1_555 1_555
H11 C19 1_555 1_555
H12 C19 1_555 1_555
C20 C1 1_555 1_555
H13 C20 1_555 1_555
C21 H14 1_555 1_555
H15 C21 1_555 1_555
C22 N1 1_555 1_555
H16 C22 1_555 1_555
H17 C22 1_555 1_555
C23 C17 1_555 1_555
H18 C23 1_555 1_555
C24 N2 1_555 1_555
H19 C24 1_555 1_555
H20 C24 1_555 1_555
C25 N2 1_555 1_555
H21 C25 1_555 1_555
C26 N1 1_555 1_555
H22 C26 1_555 1_555
C27 C7 1_555 1_555
O11 C27 1_555 1_555
O12 C27 1_555 1_555
Zn1_2 O12 1_555 1_555
Zn2_2 O10 1_555 1_555
Zn2_3 O11 1_555 1_555
Zn3_2 O7 1_555 1_555
Zn3_3 N3 1_555 1_555
O7_2 Zn3 1_555 1_555
N3_2 Zn3 1_555 1_555
O10_2 Zn2 1_555 1_555
O11_2 Zn2 1_555 1_555
O12_2 Zn1 1_555 1_555
C1 N4 1_555 1_555
C2 O4 1_555 1_555
C7 C12 1_555 1_555
C8 C11 1_555 1_555
C9 C16 1_555 1_555
O8 C18 1_555 1_555
O9 C18 1_555 1_555
N3 C25 1_555 1_555
N4 C26 1_555 1_555
C14 C19 1_555 1_555
C21 C22 1_555 1_555
C21 C24 1_555 1_555

#END
