
#######################################################################
#
#                 Cambridge Crystallographic Data Centre
#                                CCDC 
#
#######################################################################
#
# If this CIF has been generated from an entry in the Cambridge 
# Structural Database, then it will include bibliographic, chemical, 
# crystal, experimental, refinement or atomic coordinate data resulting 
# from the CCDC's data processing and validation procedures.
#
#######################################################################

data_FAKHAC
_symmetry_cell_setting           triclinic
_symmetry_space_group_name_H-M   'P -1'
_symmetry_Int_Tables_number      2
_space_group_name_Hall           '-P 1'
loop_
_symmetry_equiv_pos_site_id
_symmetry_equiv_pos_as_xyz
1 x,y,z
2 -x,-y,-z
_cell_length_a                   12.6861(8)
_cell_length_b                   13.3872(10)
_cell_length_c                   13.4602(8)
_cell_angle_alpha                91.588(5)
_cell_angle_beta                 100.888(5)
_cell_angle_gamma                115.561(7)
_cell_volume                     2009.66
loop_
_atom_site_label
_atom_site_type_symbol
_atom_site_fract_x
_atom_site_fract_y
_atom_site_fract_z
Co1 Co 0.57937(7) 0.00961(6) 0.59650(5)
Co2 Co 0.75711(6) 0.54076(5) 0.06451(5)
O1 O 0.7339(3) 0.4180(3) 0.1533(2)
O2 O 0.8961(3) 0.5646(3) 0.2341(2)
O3 O 0.7027(3) 0.1119(2) 0.5186(2)
N1 N 0.7222(4) 0.6599(3) 0.1251(3)
N2 N 0.8978(4) 1.3117(3) -0.0107(3)
N3 N 1.0893(4) 1.3996(3) -0.0119(3)
N4 N 0.6434(4) 0.7761(4) 0.1383(4)
N5 N 0.6800(4) -0.0583(3) 0.6726(3)
C1 C 0.7792(4) 0.2407(4) 0.4042(3)
C2 C 0.7190(4) 1.1436(4) -0.0051(4)
C3 C 0.6228(5) 1.0337(5) 0.1167(4)
H1 H 0.5886 1.0282 0.1729
C4 C 0.7967(5) -0.0234(5) 0.6960(4)
H2 H 0.8517 0.0457 0.6838
C5 C 0.8479(4) 0.3946(4) 0.3056(3)
C6 C 0.7276(5) 0.7970(5) 0.2251(4)
H3 H 0.7489 0.8517 0.2793
C7 C 0.7542(4) 0.3009(4) 0.3253(3)
H4 H 0.6764 0.2778 0.2877
N6 N 0.8282(5) -0.1003(4) 0.7404(3)
C8 C 0.8943(5) 0.2746(4) 0.4553(3)
H5 H 0.9102 0.2352 0.5071
C9 C 1.0769(5) 1.4007(5) 0.0867(4)
H6 H 1.1392 1.4330 0.1442
C10 C 0.6252(4) 0.9422(5) 0.0729(4)
C11 C 0.8247(5) 0.4641(5) 0.2267(4)
C12 C 0.6438(5) 0.6940(4) 0.0807(4)
H7 H 0.5944 0.6641 0.0162
C13 C 0.9896(4) 0.3665(4) 0.4325(3)
C14 C 0.7695(4) 1.2535(4) -0.0475(4)
H8 H 0.7503 1.2405 -0.1213
H9 H 0.7332 1.2992 -0.0272
C15 C 0.9797(5) 1.3445(4) -0.0667(4)
H10 H 0.9613 1.3299 -0.1374
C16 C 0.7208(5) 1.0516(5) -0.0493(4)
H11 H 0.7545 1.0572 -0.1058
C17 C 0.6319(5) -0.1634(4) 0.7024(4)
H12 H 0.5506 -0.2093 0.6954
C18 C 0.6737(5) 0.9509(4) -0.0119(4)
H13 H 0.6745 0.8887 -0.0436
C19 C 0.9645(5) 0.4285(4) 0.3584(3)
H14 H 1.0261 0.4926 0.3447
C20 C 0.6705(4) 1.1346(4) 0.0788(3)
H15 H 0.6697 1.1969 0.1104
C21 C 0.9585(5) 1.3468(5) 0.0867(4)
H16 H 0.9253 1.3360 0.1438
C22 C 0.7753(5) 0.7246(5) 0.2194(4)
H17 H 0.8332 0.7191 0.2697
C23 C 0.9789(5) -0.0389(6) 0.9001(4)
C24 C 0.5645(5) 0.8291(4) 0.1105(4)
H18 H 0.5344 0.8387 0.1693
H19 H 0.4963 0.7798 0.0574
C25 C 0.6775(5) 0.1446(4) 0.4331(4)
C26 C 1.0337(5) 0.0724(6) 0.9321(5)
H20 H 1.0572 0.1224 0.8848
C27 C 0.9447(5) -0.1131(5) 0.9677(5)
H21 H 0.9076 -0.1895 0.9469
C28 C 0.7216(6) -0.1895(5) 0.7438(4)
H22 H 0.7126 -0.2557 0.7697
C29 C 0.9509(5) -0.0830(5) 0.7893(4)
H23 H 1.0086 -0.0303 0.7554
H24 H 0.9561 -0.1531 0.7834
O4 O 0.5764(3) 0.1037(3) 0.3729(2)
O5 O 1.3390(3) 0.4092(3) 0.5269(2)
O6 O 1.1020(3) 0.3897(3) 0.4885(3)
C30 C 1.2040(5) 0.4861(4) 0.4717(4)
H25 H 1.1914 0.5522 0.4785
H26 H 1.2158 0.4762 0.4036
C31 C 1.3125(5) 0.4983(5) 0.5510(4)
H27 H 1.3804 0.5692 0.5503
H28 H 1.2955 0.4957 0.6184
C32 C 1.4845(4) 0.4632(4) 0.6926(3)
H29 H 1.4753 0.5268 0.7075
C33 C 1.4213(5) 0.3939(4) 0.5987(4)
C34 C 1.6200(4) 0.5048(4) 0.8624(3)
C35 C 1.5751(4) 0.3426(4) 0.7363(3)
H30 H 1.6266 0.3248 0.7828
C36 C 1.4378(4) 0.3012(4) 0.5751(4)
H31 H 1.3967 0.2561 0.5133
C37 C 1.5596(4) 0.4355(4) 0.7613(3)
C38 C 1.5160(4) 0.2757(4) 0.6443(4)
C39 C 1.5304(4) 0.1728(4) 0.6182(4)
O7 O 1.6445(3) 0.4524(2) 0.9352(2)
O8 O 1.5995(3) 0.1487(3) 0.6835(2)
O9 O 1.4715(3) 0.1130(3) 0.5361(2)
O10 O 1.6450(3) 0.6031(3) 0.8712(2)
Co1A Co 0.42063(7) -0.00961(6) 0.40350(5)
Co1_2 Co 1.57937(7) 0.00961(6) 0.59650(5)
Co1A_2 Co 1.42063(7) -0.00961(6) 0.40350(5)
Co1A_3 Co 1.42063(7) -0.00961(6) 1.40350(5)
Co1A_4 Co -0.57937(7) -0.00961(6) 0.40350(5)
Co1_3 Co -0.42063(7) 0.00961(6) 0.59650(5)
Co2A Co 0.24289(6) -0.54076(5) 0.93549(5)
Co2A_2 Co 1.24289(6) 1.45924(5) -0.06451(5)
Co2_2 Co 1.75711(6) 0.54076(5) 1.06451(5)
Co2A_3 Co -0.75711(6) -0.54076(5) -0.06451(5)
O1A O 0.2661(3) -0.4180(3) 0.8467(2)
O2A O 0.1039(3) -0.5646(3) 0.7659(2)
O3A O 0.2973(3) -0.1119(2) 0.4814(2)
N1A N 1.2778(4) 1.3401(3) -0.1251(3)
N1A_2 N 0.2778(4) -0.6599(3) 0.8749(3)
N2A N 1.1022(4) 0.6883(3) 0.0107(3)
N3A N 0.9107(4) 0.6004(3) 0.0119(3)
N3_2 N 0.0893(4) -0.6004(3) 0.9881(3)
N4A N 1.3566(4) 1.2239(4) -0.1383(4)
N5A N 1.3200(4) 0.0583(3) 1.3274(3)
N5A_2 N 0.3200(4) 0.0583(3) 0.3274(3)
C1A C 0.2208(4) -0.2407(4) 0.5958(3)
C2A C 1.2810(4) 0.8564(4) 0.0051(4)
C3A C 1.3772(5) 0.9663(5) -0.1167(4)
H1A H 1.4114 0.9718 -0.1729
C4A C 1.2033(5) 0.0234(5) 1.3040(4)
H2A H 1.1483 -0.0457 1.3162
C5A C 0.1521(4) -0.3946(4) 0.6944(3)
C6A C 1.2724(5) 1.2030(5) -0.2251(4)
H3A H 1.2511 1.1483 -0.2793
C7A C 0.2458(4) -0.3009(4) 0.6747(3)
H4A H 0.3236 -0.2778 0.7123
N6A N 1.1718(5) 0.1003(4) 1.2596(3)
C8A C 0.1057(5) -0.2746(4) 0.5447(3)
H5A H 0.0898 -0.2352 0.4929
C9A C 0.9231(5) 0.5993(5) -0.0867(4)
H6A H 0.8608 0.5670 -0.1442
C10A C 1.3748(4) 1.0578(5) -0.0729(4)
C11A C 0.1753(5) -0.4641(5) 0.7733(4)
C12A C 1.3562(5) 1.3060(4) -0.0807(4)
H7A H 1.4056 1.3359 -0.0162
C13A C 0.0104(4) -0.3665(4) 0.5675(3)
C14A C 1.2305(4) 0.7465(4) 0.0475(4)
H8A H 1.2497 0.7595 0.1213
H9A H 1.2668 0.7008 0.0272
C15A C 1.0203(5) 0.6555(4) 0.0667(4)
H10A H 1.0387 0.6701 0.1374
C16A C 1.2792(5) 0.9484(5) 0.0493(4)
H11A H 1.2455 0.9428 0.1058
C17A C 1.3681(5) 0.1634(4) 1.2976(4)
H12A H 1.4494 0.2093 1.3046
C18A C 1.3263(5) 1.0491(4) 0.0119(4)
H13A H 1.3255 1.1113 0.0436
C19A C 0.0355(5) -0.4285(4) 0.6416(3)
H14A H -0.0261 -0.4926 0.6553
C20A C 1.3295(4) 0.8654(4) -0.0788(3)
H15A H 1.3303 0.8031 -0.1104
C21A C 1.0415(5) 0.6532(5) -0.0867(4)
H16A H 1.0747 0.6640 -0.1438
C22A C 1.2247(5) 1.2754(5) -0.2194(4)
H17A H 1.1668 1.2809 -0.2697
C23A C 1.0211(5) 0.0389(6) 1.0999(4)
C24A C 1.4355(5) 1.1709(4) -0.1105(4)
H18A H 1.4656 1.1613 -0.1693
H19A H 1.5037 1.2202 -0.0574
C25A C 0.3225(5) -0.1446(4) 0.5669(4)
C26A C 0.9663(5) -0.0724(6) 1.0679(5)
H20A H 0.9428 -0.1224 1.1152
C27A C 1.0553(5) 0.1131(5) 1.0323(5)
H21A H 1.0924 0.1895 1.0531
C28A C 1.2784(6) 0.1895(5) 1.2562(4)
H22A H 1.2874 0.2557 1.2303
C29A C 1.0491(5) 0.0830(5) 1.2107(4)
H23A H 0.9914 0.0303 1.2446
H24A H 1.0439 0.1531 1.2166
O4A O 0.4236(3) -0.1037(3) 0.6271(2)
O5A O -0.3390(3) -0.4092(3) 0.4731(2)
O6A O -0.1020(3) -0.3897(3) 0.5115(3)
C30A C -0.2040(5) -0.4861(4) 0.5283(4)
H25A H -0.1914 -0.5522 0.5215
H26A H -0.2158 -0.4762 0.5964
C31A C -0.3125(5) -0.4983(5) 0.4490(4)
H27A H -0.3804 -0.5692 0.4497
H28A H -0.2955 -0.4957 0.3816
C32A C -0.4845(4) -0.4632(4) 0.3074(3)
H29A H -0.4753 -0.5268 0.2925
C33A C -0.4213(5) -0.3939(4) 0.4013(4)
C34A C -0.6200(4) -0.5048(4) 0.1376(3)
C35A C -0.5751(4) -0.3426(4) 0.2637(3)
H30A H -0.6266 -0.3248 0.2172
C36A C -0.4378(4) -0.3012(4) 0.4249(4)
H31A H -0.3967 -0.2561 0.4867
C37A C -0.5596(4) -0.4355(4) 0.2387(3)
C38A C -0.5160(4) -0.2757(4) 0.3557(4)
C39A C -0.5304(4) -0.1728(4) 0.3818(4)
O7A O -0.6445(3) -0.4524(2) 0.0648(2)
O7_2 O 0.6445(3) 0.4524(2) -0.0648(2)
O7A_2 O 0.3555(3) -0.4524(2) 1.0648(2)
O8A O -0.5995(3) -0.1487(3) 0.3165(2)
O8_2 O 0.5995(3) 0.1487(3) 0.6835(2)
O8A_2 O 0.4005(3) -0.1487(3) 0.3165(2)
O9A O -0.4715(3) -0.1130(3) 0.4639(2)
O9_2 O 0.4715(3) 0.1130(3) 0.5361(2)
O9A_2 O 0.5285(3) -0.1130(3) 0.4639(2)
O10A O -0.6450(3) -0.6031(3) 0.1288(2)
O11 O 0.8320(4) -0.0139(4) 0.4410(3)
O12 O 0.0794(5) 0.1541(5) 0.4882(5)
O13 O 0.1255(6) 0.7365(7) 0.3024(4)
loop_
_geom_bond_atom_site_label_1
_geom_bond_atom_site_label_2
_geom_bond_site_symmetry_1
_geom_bond_site_symmetry_2
Co1 O3 1_555 1_555
Co2 O1 1_555 1_555
O1 C11 1_555 1_555
O2 C11 1_555 1_555
O3 C25 1_555 1_555
N1 Co2 1_555 1_555
N2 C14 1_555 1_555
N3 C9 1_555 1_555
N4 C6 1_555 1_555
N5 Co1 1_555 1_555
C1 C7 1_555 1_555
C2 C14 1_555 1_555
C3 H1 1_555 1_555
C4 N5 1_555 1_555
H2 C4 1_555 1_555
C5 C7 1_555 1_555
C6 H3 1_555 1_555
C7 H4 1_555 1_555
N6 C4 1_555 1_555
C8 C1 1_555 1_555
H5 C8 1_555 1_555
C9 H6 1_555 1_555
C10 C3 1_555 1_555
C11 C5 1_555 1_555
C12 N1 1_555 1_555
H7 C12 1_555 1_555
C13 C8 1_555 1_555
C14 H8 1_555 1_555
H9 C14 1_555 1_555
C15 N2 1_555 1_555
H10 C15 1_555 1_555
C16 C2 1_555 1_555
H11 C16 1_555 1_555
C17 N5 1_555 1_555
H12 C17 1_555 1_555
C18 C10 1_555 1_555
H13 C18 1_555 1_555
C19 C5 1_555 1_555
H14 C19 1_555 1_555
C20 C2 1_555 1_555
H15 C20 1_555 1_555
C21 N2 1_555 1_555
H16 C21 1_555 1_555
C22 N1 1_555 1_555
H17 C22 1_555 1_555
C23 C26 1_555 1_555
C24 N4 1_555 1_555
H18 C24 1_555 1_555
H19 C24 1_555 1_555
C25 C1 1_555 1_555
C26 H20 1_555 1_555
C27 C23 1_555 1_555
H21 C27 1_555 1_555
C28 N6 1_555 1_555
H22 C28 1_555 1_555
C29 N6 1_555 1_555
H23 C29 1_555 1_555
H24 C29 1_555 1_555
O4 C25 1_555 1_555
O5 C31 1_555 1_555
O6 C13 1_555 1_555
C30 O6 1_555 1_555
H25 C30 1_555 1_555
H26 C30 1_555 1_555
C31 C30 1_555 1_555
H27 C31 1_555 1_555
H28 C31 1_555 1_555
C32 H29 1_555 1_555
C33 O5 1_555 1_555
C34 C37 1_555 1_555
C35 H30 1_555 1_555
C36 C33 1_555 1_555
H31 C36 1_555 1_555
C37 C32 1_555 1_555
C38 C35 1_555 1_555
C39 C38 1_555 1_555
O7 C34 1_555 1_555
O8 C39 1_555 1_555
O9 C39 1_555 1_555
O10 C34 1_555 1_555
Co1A O4 1_555 1_555
Co1_2 O8 1_555 1_555
Co1A_2 O9 1_555 1_555
Co1A_3 N5A 1_555 1_555
Co1A_4 O8A 1_555 1_555
Co1_3 O9A 1_555 1_555
Co2A O1A 1_555 1_555
Co2A_2 N3 1_555 1_555
Co2_2 O7 1_555 1_555
Co2A_3 O7A 1_555 1_555
O1A C11A 1_555 1_555
O2A C11A 1_555 1_555
O3A Co1A 1_555 1_555
N1A Co2A_2 1_555 1_555
N1A_2 Co2A 1_555 1_555
N2A C14A 1_555 1_555
N3A Co2 1_555 1_555
N3_2 Co2A 1_555 1_555
N4A C6A 1_555 1_555
N5A C4A 1_555 1_555
N5A_2 Co1A 1_555 1_555
C1A C7A 1_555 1_555
C2A C14A 1_555 1_555
C3A H1A 1_555 1_555
C4A H2A 1_555 1_555
C5A C7A 1_555 1_555
C6A H3A 1_555 1_555
C7A H4A 1_555 1_555
N6A C4A 1_555 1_555
C8A C1A 1_555 1_555
H5A C8A 1_555 1_555
C9A N3A 1_555 1_555
H6A C9A 1_555 1_555
C10A C3A 1_555 1_555
C11A C5A 1_555 1_555
C12A N1A 1_555 1_555
H7A C12A 1_555 1_555
C13A C8A 1_555 1_555
C14A H8A 1_555 1_555
H9A C14A 1_555 1_555
C15A N2A 1_555 1_555
H10A C15A 1_555 1_555
C16A C2A 1_555 1_555
H11A C16A 1_555 1_555
C17A N5A 1_555 1_555
H12A C17A 1_555 1_555
C18A C10A 1_555 1_555
H13A C18A 1_555 1_555
C19A C5A 1_555 1_555
H14A C19A 1_555 1_555
C20A C2A 1_555 1_555
H15A C20A 1_555 1_555
C21A N2A 1_555 1_555
H16A C21A 1_555 1_555
C22A N1A 1_555 1_555
H17A C22A 1_555 1_555
C23A C26A 1_555 1_555
C24A N4A 1_555 1_555
H18A C24A 1_555 1_555
H19A C24A 1_555 1_555
C25A O3A 1_555 1_555
C26A C27 1_555 1_555
H20A C26A 1_555 1_555
C27A C26 1_555 1_555
H21A C27A 1_555 1_555
C28A N6A 1_555 1_555
H22A C28A 1_555 1_555
C29A N6A 1_555 1_555
H23A C29A 1_555 1_555
H24A C29A 1_555 1_555
O4A Co1 1_555 1_555
O5A C31A 1_555 1_555
O6A C13A 1_555 1_555
C30A O6A 1_555 1_555
H25A C30A 1_555 1_555
H26A C30A 1_555 1_555
C31A C30A 1_555 1_555
H27A C31A 1_555 1_555
H28A C31A 1_555 1_555
C32A H29A 1_555 1_555
C33A O5A 1_555 1_555
C34A C37A 1_555 1_555
C35A H30A 1_555 1_555
C36A C33A 1_555 1_555
H31A C36A 1_555 1_555
C37A C32A 1_555 1_555
C38A C35A 1_555 1_555
C39A C38A 1_555 1_555
O7A C34A 1_555 1_555
O7_2 Co2 1_555 1_555
O7A_2 Co2A 1_555 1_555
O8A C39A 1_555 1_555
O8_2 Co1 1_555 1_555
O8A_2 Co1A 1_555 1_555
O9A Co1A_4 1_555 1_555
O9_2 Co1 1_555 1_555
O9A_2 Co1 1_555 1_555
O10A C34A 1_555 1_555
N3 C15 1_555 1_555
N4 C12 1_555 1_555
C3 C20 1_555 1_555
C6 C22 1_555 1_555
C9 C21 1_555 1_555
C10 C24 1_555 1_555
C13 C19 1_555 1_555
C16 C18 1_555 1_555
C17 C28 1_555 1_555
C23 C29 1_555 1_555
C32 C33 1_555 1_555
C35 C37 1_555 1_555
C36 C38 1_555 1_555
O9 Co1_2 1_555 1_555
Co1A O9_2 1_555 1_555
Co1A O9A_2 1_555 1_555
N3A C15A 1_555 1_555
N4A C12A 1_555 1_555
C1A C25A 1_555 1_555
C3A C20A 1_555 1_555
C6A C22A 1_555 1_555
C9A C21A 1_555 1_555
C10A C24A 1_555 1_555
C13A C19A 1_555 1_555
C16A C18A 1_555 1_555
C17A C28A 1_555 1_555
C23A C27A 1_555 1_555
C23A C29A 1_555 1_555
C25A O4A 1_555 1_555
C32A C33A 1_555 1_555
C35A C37A 1_555 1_555
C36A C38A 1_555 1_555
C39A O9A 1_555 1_555

#END
