
#######################################################################
#
#                 Cambridge Crystallographic Data Centre
#                                CCDC 
#
#######################################################################
#
# If this CIF has been generated from an entry in the Cambridge 
# Structural Database, then it will include bibliographic, chemical, 
# crystal, experimental, refinement or atomic coordinate data resulting 
# from the CCDC's data processing and validation procedures.
#
#######################################################################

data_FAKJAE
_symmetry_cell_setting           monoclinic
_symmetry_space_group_name_H-M   'P 21/n'
_symmetry_Int_Tables_number      14
_space_group_name_Hall           '-P 2yn'
loop_
_symmetry_equiv_pos_site_id
_symmetry_equiv_pos_as_xyz
1 x,y,z
2 1/2-x,1/2+y,1/2-z
3 -x,-y,-z
4 1/2+x,1/2-y,1/2+z
_cell_length_a                   13.088(5)
_cell_length_b                   16.376(5)
_cell_length_c                   18.092(5)
_cell_angle_alpha                90
_cell_angle_beta                 101.446(5)
_cell_angle_gamma                90
_cell_volume                     3800.52
loop_
_atom_site_label
_atom_site_type_symbol
_atom_site_fract_x
_atom_site_fract_y
_atom_site_fract_z
Zn1 Zn 0.40146(4) 0.20157(4) 0.18385(3)
Zn2 Zn 0.44739(4) 0.28433(4) -0.30769(3)
C1 C 0.3349(4) 0.2523(3) 0.0436(3)
C2 C 0.3166(4) 0.3600(3) -0.2171(3)
C3 C 0.2794(4) 0.3627(3) -0.1429(2)
C4 C 0.3243(4) 0.3107(3) -0.0848(2)
H1 H 0.3796 0.2771 -0.0903
C5 C 0.2866(4) 0.3091(3) -0.0188(2)
C6 C 0.2060(4) 0.3607(3) -0.0093(3)
H2 H 0.1819 0.3598 0.0357
C7 C 0.1612(4) 0.4133(3) -0.0664(3)
C8 C 0.1992(4) 0.4136(3) -0.1332(2)
H3 H 0.1699 0.4488 -0.1719
C9 C 0.0449(3) 0.4704(3) 0.0062(2)
H4 H 0.1004 0.4897 0.0462
H5 H 0.0223 0.4172 0.0203
C10 C 0.3054(5) 0.1546(4) 0.2889(3)
C11 C 0.3804(5) 0.2061(3) 0.5661(3)
C12 C 0.2806(4) 0.1396(3) 0.3665(3)
C13 C 0.3406(4) 0.1748(3) 0.4299(3)
H6 H 0.3987 0.2059 0.4257
C14 C 0.3145(4) 0.1641(3) 0.5001(3)
C15 C 0.2293(4) 0.1165(3) 0.5062(3)
H7 H 0.2111 0.1096 0.5529
C16 C 0.1713(4) 0.0793(3) 0.4433(3)
C17 C 0.1980(4) 0.0912(3) 0.3730(3)
H8 H 0.1594 0.0659 0.3304
C18 C 0.0481(4) 0.0254(4) 0.5098(3)
H9 H 0.0318 0.0794 0.5262
H10 H 0.0985 0.0000 0.5497
C19 C 0.5228(4) 0.0606(4) 0.1311(3)
H11 H 0.5343 0.0872 0.0881
C20 C 0.4769(4) 0.0310(4) 0.2323(3)
H12 H 0.4480 0.0357 0.2751
C21 C 0.6100(4) -0.0736(4) 0.1136(3)
H13 H 0.6104 -0.0547 0.0628
H14 H 0.5733 -0.1253 0.1097
C22 C 0.7223(4) -0.0872(4) 0.1547(3)
H15 H 0.7568 -0.1226 0.1244
H16 H 0.7585 -0.0352 0.1598
C23 C 0.7310(4) -0.1242(4) 0.2312(3)
H17 H 0.7058 -0.0856 0.2642
H18 H 0.6876 -0.1727 0.2275
C24 C 0.8859(4) -0.2169(4) 0.2730(3)
H19 H 0.8520 -0.2663 0.2603
C25 C 0.9965(5) -0.1298(4) 0.3119(4)
H20 H 1.0598 -0.1051 0.3323
C26 C 0.6144(4) 0.2031(3) -0.1917(3)
H21 H 0.5921 0.2268 -0.1510
N1 N 0.7061(4) 0.1295(4) -0.2562(3)
C27 C 0.7687(4) 0.1216(4) -0.1216(3)
H22 H 0.7691 0.1564 -0.0782
H23 H 0.8380 0.1227 -0.1331
C28 C 0.7431(4) 0.0356(3) -0.1023(3)
H24 H 0.7259 0.0038 -0.1484
H25 H 0.6822 0.0363 -0.0792
C29 C 0.8332(4) -0.0056(4) -0.0486(3)
H26 H 0.8664 0.0336 -0.0112
H27 H 0.8065 -0.0500 -0.0223
C30 C 0.9279(4) -0.1127(4) -0.1069(3)
H28 H 0.8957 -0.1582 -0.0911
C31 C 1.0208(4) -0.0362(4) -0.1576(3)
H29 H 1.0687 -0.0186 -0.1859
N2 N 0.4733(3) 0.0925(3) 0.1816(2)
N3 N 0.5237(3) -0.0348(3) 0.2166(3)
N4 N 0.5532(3) -0.0144(3) 0.1507(2)
N5 N 0.8401(3) -0.1463(3) 0.2639(2)
N6 N 0.9098(4) -0.0886(3) 0.2900(3)
N7 N 0.9851(3) -0.2103(3) 0.3023(2)
N8 N 0.5704(3) 0.2151(3) -0.2613(3)
C32 C 0.6302(5) 0.1695(4) -0.3001(4)
H30 H 0.6182 0.1670 -0.3524
N9 N 0.6946(3) 0.1535(3) -0.1856(3)
N10 N 0.9099(3) -0.0374(3) -0.0896(2)
N11 N 0.9705(4) 0.0141(3) -0.1221(3)
N12 N 0.9984(3) -0.1152(3) -0.1504(2)
O1 O 0.2986(2) 0.2526(2) 0.10346(18)
O2 O 0.4098(3) 0.2083(3) 0.03621(19)
O3 O 0.3943(3) 0.3133(2) -0.21807(17)
O4 O 0.2679(3) 0.3981(2) -0.27164(18)
O5 O 0.0806(2) 0.4653(2) -0.06329(17)
O6 O 0.3786(3) 0.2041(3) 0.28767(19)
O7 O 0.2574(3) 0.1188(3) 0.2337(2)
O8 O 0.4709(3) 0.2249(3) 0.5641(2)
O9 O 0.3380(3) 0.2215(2) 0.62285(19)
O10 O 0.0876(3) 0.0300(3) 0.4423(2)
Zn1A Zn 1.09854(4) 0.70157(4) 0.31615(3)
Zn1A_2 Zn 1.09854(4) -0.29843(4) 0.31615(3)
Zn1B Zn -0.40146(4) -0.20157(4) 0.81615(3)
Zn1B_2 Zn -0.40146(4) 0.79843(4) -0.18385(3)
Zn2B Zn -0.44739(4) -0.28433(4) 0.30769(3)
Zn2_2 Zn 0.44739(4) 0.28433(4) 0.69231(3)
Zn2A Zn 1.05261(4) -0.21567(4) -0.19231(3)
Zn2B_2 Zn -0.44739(4) 0.71567(4) 0.30769(3)
Zn2C Zn -1.05261(4) 0.21567(4) 0.19231(3)
C1B C -0.3349(4) 0.7477(3) -0.0436(3)
C2B C -0.3166(4) 0.6400(3) 0.2171(3)
C3B C -0.2794(4) 0.6373(3) 0.1429(2)
C4B C -0.3243(4) 0.6893(3) 0.0848(2)
H1B H -0.3796 0.7229 0.0903
C5B C -0.2866(4) 0.6909(3) 0.0188(2)
C6B C -0.2060(4) 0.6393(3) 0.0093(3)
H2B H -0.1819 0.6402 -0.0357
C7B C -0.1612(4) 0.5867(3) 0.0664(3)
C8B C -0.1992(4) 0.5864(3) 0.1332(2)
H3B H -0.1699 0.5512 0.1719
C9B C -0.0449(3) 0.5296(3) -0.0062(2)
H4B H -0.1004 0.5103 -0.0462
H5B H -0.0223 0.5828 -0.0203
C10B C -0.3054(5) -0.1546(4) 0.7111(3)
C11B C -0.3804(5) -0.2061(3) 0.4339(3)
C12B C -0.2806(4) -0.1396(3) 0.6335(3)
C13B C -0.3406(4) -0.1748(3) 0.5701(3)
H6B H -0.3987 -0.2059 0.5743
C14B C -0.3145(4) -0.1641(3) 0.4999(3)
C15B C -0.2293(4) -0.1165(3) 0.4938(3)
H7B H -0.2111 -0.1096 0.4471
C16B C -0.1713(4) -0.0793(3) 0.5567(3)
C17B C -0.1980(4) -0.0912(3) 0.6270(3)
H8B H -0.1594 -0.0659 0.6696
C18B C -0.0481(4) -0.0254(4) 0.4902(3)
H9B H -0.0318 -0.0794 0.4738
H10B H -0.0985 0.0000 0.4503
C19A C 0.9772(4) 0.5606(4) 0.3689(3)
H11A H 0.9657 0.5872 0.4119
C20A C 1.0231(4) 0.5310(4) 0.2677(3)
H12A H 1.0520 0.5357 0.2249
C21A C 0.8900(4) 0.4264(4) 0.3864(3)
H13A H 0.8896 0.4453 0.4372
H14A H 0.9267 0.3747 0.3903
C22A C 0.7777(4) 0.4128(4) 0.3453(3)
H15A H 0.7432 0.3774 0.3756
H16A H 0.7415 0.4648 0.3402
C23A C 0.7690(4) 0.3758(4) 0.2688(3)
H17A H 0.7942 0.4144 0.2358
H18A H 0.8124 0.3273 0.2725
C24A C 0.6141(4) 0.2831(4) 0.2270(3)
H19A H 0.6480 0.2337 0.2397
C25A C 0.5035(5) 0.3702(4) 0.1881(4)
H20A H 0.4402 0.3949 0.1677
C26B C -0.6144(4) -0.2031(3) 0.1917(3)
H21B H -0.5921 -0.2268 0.1510
N1B N -0.7061(4) -0.1295(4) 0.2562(3)
C27B C -0.7687(4) -0.1216(4) 0.1216(3)
H22B H -0.7691 -0.1564 0.0782
H23B H -0.8380 -0.1227 0.1331
C28B C -0.7431(4) -0.0356(3) 0.1023(3)
H24B H -0.7259 -0.0038 0.1484
H25B H -0.6822 -0.0363 0.0792
C29B C -0.8332(4) 0.0056(4) 0.0486(3)
H26B H -0.8664 -0.0336 0.0112
H27B H -0.8065 0.0500 0.0223
C30B C -0.9279(4) 0.1127(4) 0.1069(3)
H28B H -0.8957 0.1582 0.0911
C31B C -1.0208(4) 0.0362(4) 0.1576(3)
H29B H -1.0687 0.0186 0.1859
N2A N 1.0267(3) 0.5925(3) 0.3184(2)
N3A N 0.9763(3) 0.4652(3) 0.2834(3)
N4A N 0.9468(3) 0.4856(3) 0.3493(2)
N5A N 0.6599(3) 0.3537(3) 0.2361(2)
N6A N 0.5902(4) 0.4114(3) 0.2100(3)
N7A N 0.5149(3) 0.2897(3) 0.1977(2)
N7_2 N 0.9851(3) 0.7897(3) 0.3023(2)
N8B N -0.5704(3) -0.2151(3) 0.2613(3)
C32B C -0.6302(5) -0.1695(4) 0.3001(4)
H30B H -0.6182 -0.1670 0.3524
N9B N -0.6946(3) -0.1535(3) 0.1856(3)
N10B N -0.9099(3) 0.0374(3) 0.0896(2)
N11B N -0.9705(4) -0.0141(3) 0.1221(3)
N12B N -0.9984(3) 0.1152(3) 0.1504(2)
N12A N 0.5016(3) 0.3848(3) -0.3496(2)
N12C N -0.5016(3) -0.3848(3) 0.3496(2)
O1B O -0.2986(2) 0.7474(2) -0.10346(18)
O1A O 1.2014(2) 0.7526(2) 0.39654(18)
O2B O -0.4098(3) 0.7917(3) -0.03621(19)
O3B O -0.3943(3) 0.6867(2) 0.21807(17)
O3B_2 O -0.3943(3) -0.3133(2) 0.21807(17)
O4B O -0.2679(3) 0.6019(2) 0.27164(18)
O5B O -0.0806(2) 0.5347(2) 0.06329(17)
O6B O -0.3786(3) -0.2041(3) 0.71233(19)
O6A O 1.1214(3) 0.7041(3) 0.21233(19)
O7B O -0.2574(3) -0.1188(3) 0.7663(2)
O8B O -0.4709(3) -0.2249(3) 0.4359(2)
O9B O -0.3380(3) -0.2215(2) 0.37715(19)
O9_2 O 0.3380(3) 0.2215(2) -0.37715(19)
O10B O -0.0876(3) -0.0300(3) 0.5577(2)
O11 O 0.2298(4) 0.3959(4) -0.4309(3)
O12 O 0.5902(4) 0.2122(4) -0.0139(3)
O13 O 1.0702(5) 0.1784(5) -0.0804(5)
loop_
_geom_bond_atom_site_label_1
_geom_bond_atom_site_label_2
_geom_bond_site_symmetry_1
_geom_bond_site_symmetry_2
Zn1 N2 1_555 1_555
Zn2 N8 1_555 1_555
C1 C5 1_555 1_555
C2 C3 1_555 1_555
C3 C4 1_555 1_555
C4 H1 1_555 1_555
C5 C4 1_555 1_555
C6 C5 1_555 1_555
H2 C6 1_555 1_555
C7 C6 1_555 1_555
C8 C3 1_555 1_555
H3 C8 1_555 1_555
C9 H4 1_555 1_555
H5 C9 1_555 1_555
C10 C12 1_555 1_555
C11 C14 1_555 1_555
C12 C13 1_555 1_555
C13 H6 1_555 1_555
C14 C13 1_555 1_555
C15 C14 1_555 1_555
H7 C15 1_555 1_555
C16 C15 1_555 1_555
C17 C12 1_555 1_555
H8 C17 1_555 1_555
C18 H9 1_555 1_555
H10 C18 1_555 1_555
C19 H11 1_555 1_555
C20 H12 1_555 1_555
C21 H13 1_555 1_555
H14 C21 1_555 1_555
C22 C21 1_555 1_555
H15 C22 1_555 1_555
H16 C22 1_555 1_555
C23 C22 1_555 1_555
H17 C23 1_555 1_555
H18 C23 1_555 1_555
C24 H19 1_555 1_555
C25 H20 1_555 1_555
C26 H21 1_555 1_555
N1 C32 1_555 1_555
C27 H22 1_555 1_555
H23 C27 1_555 1_555
C28 C27 1_555 1_555
H24 C28 1_555 1_555
H25 C28 1_555 1_555
C29 C28 1_555 1_555
H26 C29 1_555 1_555
H27 C29 1_555 1_555
C30 H28 1_555 1_555
C31 H29 1_555 1_555
N2 C19 1_555 1_555
N3 C20 1_555 1_555
N4 C19 1_555 1_555
N5 C23 1_555 1_555
N6 C25 1_555 1_555
N7 C24 1_555 1_555
N8 C26 1_555 1_555
C32 N8 1_555 1_555
H30 C32 1_555 1_555
N9 C26 1_555 1_555
N10 C29 1_555 1_555
N11 C31 1_555 1_555
N12 C30 1_555 1_555
O1 Zn1 1_555 1_555
O2 C1 1_555 1_555
O3 Zn2 1_555 1_555
O4 C2 1_555 1_555
O5 C7 1_555 1_555
O6 Zn1 1_555 1_555
O7 C10 1_555 1_555
O8 C11 1_555 1_555
O9 C11 1_555 1_555
O10 C16 1_555 1_555
Zn1A N2A 1_555 1_555
Zn1A_2 N7 1_555 1_555
Zn1B O6B 1_555 1_555
Zn1B_2 O1B 1_555 1_555
Zn2B N8B 1_555 1_555
Zn2_2 O9 1_555 1_555
Zn2A N12 1_555 1_555
Zn2B_2 O3B 1_555 1_555
Zn2C N12B 1_555 1_555
C1B C5B 1_555 1_555
C2B C3B 1_555 1_555
C3B C4B 1_555 1_555
C4B H1B 1_555 1_555
C5B C4B 1_555 1_555
C6B C5B 1_555 1_555
H2B C6B 1_555 1_555
C7B C6B 1_555 1_555
C8B C3B 1_555 1_555
H3B C8B 1_555 1_555
C9B C9 1_555 1_555
H4B C9B 1_555 1_555
H5B C9B 1_555 1_555
C10B C12B 1_555 1_555
C11B C14B 1_555 1_555
C12B C13B 1_555 1_555
C13B H6B 1_555 1_555
C14B C13B 1_555 1_555
C15B C14B 1_555 1_555
H7B C15B 1_555 1_555
C16B C15B 1_555 1_555
C17B C12B 1_555 1_555
H8B C17B 1_555 1_555
C18B C18 1_555 1_555
H9B C18B 1_555 1_555
H10B C18B 1_555 1_555
C19A H11A 1_555 1_555
C20A H12A 1_555 1_555
C21A H13A 1_555 1_555
H14A C21A 1_555 1_555
C22A C21A 1_555 1_555
H15A C22A 1_555 1_555
H16A C22A 1_555 1_555
C23A C22A 1_555 1_555
H17A C23A 1_555 1_555
H18A C23A 1_555 1_555
C24A H19A 1_555 1_555
C25A H20A 1_555 1_555
C26B H21B 1_555 1_555
N1B C32B 1_555 1_555
C27B H22B 1_555 1_555
H23B C27B 1_555 1_555
C28B C27B 1_555 1_555
H24B C28B 1_555 1_555
H25B C28B 1_555 1_555
C29B C28B 1_555 1_555
H26B C29B 1_555 1_555
H27B C29B 1_555 1_555
C30B H28B 1_555 1_555
C31B H29B 1_555 1_555
N2A C19A 1_555 1_555
N3A C20A 1_555 1_555
N4A C19A 1_555 1_555
N5A C23A 1_555 1_555
N6A C25A 1_555 1_555
N7A Zn1 1_555 1_555
N7_2 Zn1A 1_555 1_555
N8B C26B 1_555 1_555
C32B N8B 1_555 1_555
H30B C32B 1_555 1_555
N9B C26B 1_555 1_555
N10B C29B 1_555 1_555
N11B C31B 1_555 1_555
N12B C30B 1_555 1_555
N12A Zn2 1_555 1_555
N12C Zn2B 1_555 1_555
O1B C1B 1_555 1_555
O1A Zn1A 1_555 1_555
O2B C1B 1_555 1_555
O3B C2B 1_555 1_555
O3B_2 Zn2B 1_555 1_555
O4B C2B 1_555 1_555
O5B C7B 1_555 1_555
O6B C10B 1_555 1_555
O6A Zn1A 1_555 1_555
O7B C10B 1_555 1_555
O8B C11B 1_555 1_555
O9B Zn2B 1_555 1_555
O9_2 Zn2 1_555 1_555
O10B C16B 1_555 1_555
C1 O1 1_555 1_555
C2 O3 1_555 1_555
C7 C8 1_555 1_555
C9 O5 1_555 1_555
C10 O6 1_555 1_555
C16 C17 1_555 1_555
C18 O10 1_555 1_555
C20 N2 1_555 1_555
C21 N4 1_555 1_555
C24 N5 1_555 1_555
C25 N7 1_555 1_555
N1 N9 1_555 1_555
C27 N9 1_555 1_555
C30 N10 1_555 1_555
C31 N12 1_555 1_555
N3 N4 1_555 1_555
N5 N6 1_555 1_555
N10 N11 1_555 1_555
C7B C8B 1_555 1_555
C9B O5B 1_555 1_555
C11B O9B 1_555 1_555
C16B C17B 1_555 1_555
C18B O10B 1_555 1_555
C20A N2A 1_555 1_555
C21A N4A 1_555 1_555
C24A N5A 1_555 1_555
C24A N7A 1_555 1_555
C25A N7A 1_555 1_555
N1B N9B 1_555 1_555
C27B N9B 1_555 1_555
C30B N10B 1_555 1_555
C31B N12B 1_555 1_555
N3A N4A 1_555 1_555
N5A N6A 1_555 1_555
N10B N11B 1_555 1_555

#END
