
#######################################################################
#
#                 Cambridge Crystallographic Data Centre
#                                CCDC 
#
#######################################################################
#
# If this CIF has been generated from an entry in the Cambridge 
# Structural Database, then it will include bibliographic, chemical, 
# crystal, experimental, refinement or atomic coordinate data resulting 
# from the CCDC's data processing and validation procedures.
#
#######################################################################

data_FAKJIM
_symmetry_cell_setting           monoclinic
_symmetry_space_group_name_H-M   'C 2/c'
_symmetry_Int_Tables_number      15
_space_group_name_Hall           '-C 2yn'
loop_
_symmetry_equiv_pos_site_id
_symmetry_equiv_pos_as_xyz
1 x,y,z
2 -x,y,1/2-z
3 1/2+x,1/2+y,z
4 1/2-x,1/2+y,1/2-z
5 -x,-y,-z
6 x,-y,1/2+z
7 1/2-x,1/2-y,-z
8 1/2+x,1/2-y,1/2+z
_cell_length_a                   21.092(5)
_cell_length_b                   15.132(5)
_cell_length_c                   12.318(5)
_cell_angle_alpha                90
_cell_angle_beta                 100.208(5)
_cell_angle_gamma                90
_cell_volume                     3869.23
loop_
_atom_site_label
_atom_site_type_symbol
_atom_site_fract_x
_atom_site_fract_y
_atom_site_fract_z
Zn1 Zn 0.63298(4) 0.20364(7) 0.54675(9)
C1 C 0.8195(3) 0.0345(6) 0.5736(7)
H1 H 0.8092 0.0754 0.5169
O1 O 0.9185(3) 0.0150(4) 0.5145(5)
N1 N 0.5565(3) 0.1176(6) -0.0172(8)
C2 C 0.7771(3) 0.0186(6) 0.6429(7)
O2 O 0.6887(3) 0.0781(5) 0.7114(6)
O3 O 0.7020(2) 0.1183(4) 0.5470(6)
C3 C 0.7164(4) 0.0725(6) 0.6337(9)
C4 C 0.8789(3) -0.0105(6) 0.5872(8)
C5 C 0.6671(4) 0.1665(7) 0.0477(8)
H2 H 0.7113 0.1550 0.0402
H3 H 0.6617 0.1467 0.1204
O4 O 0.8212(3) -0.1962(4) 0.8637(6)
N2 N 0.5898(3) 0.3219(6) 0.2294(7)
N3 N 0.6524(3) 0.2949(6) 0.2340(7)
C6 C 0.7911(3) -0.0471(6) 0.7218(7)
H4 H 0.7622 -0.0586 0.7690
N4 N 0.6288(3) 0.2536(5) 0.3918(6)
C7 C 0.8476(4) -0.0960(6) 0.7315(8)
C8 C 0.8921(4) -0.0751(6) 0.6655(8)
H5 H 0.9311 -0.1052 0.6744
N5 N 0.5424(4) 0.0810(6) 0.0777(9)
C9 C 0.8632(6) -0.1714(7) 0.8106(9)
N6 N 0.4558(3) 0.1500(5) -0.0199(7)
C10 C 0.6233(4) 0.1138(7) -0.0373(9)
H6 H 0.6250 0.1370 -0.1101
H7 H 0.6376 0.0528 -0.0348
C11 C 0.6551(4) 0.2637(7) 0.0391(8)
H8 H 0.6727 0.2867 -0.0228
H9 H 0.6090 0.2742 0.0243
C12 C 0.5056(4) 0.1572(6) -0.0703(8)
H10 H 0.5046 0.1873 -0.1364
O5 O 0.9154(4) -0.2092(5) 0.8182(7)
C13 C 0.4802(4) 0.1003(6) 0.0707(10)
H11 H 0.4557 0.0818 0.1223
C14 C 0.5783(4) 0.2973(7) 0.3249(9)
H12 H 0.5391 0.3081 0.3471
C15 C 0.9822(4) -0.0221(7) 0.5371(9)
H13 H 0.9807 -0.0853 0.5236
H14 H 1.0021 -0.0116 0.6132
C16 C 0.6722(4) 0.2548(6) 0.3294(9)
H15 H 0.7129 0.2300 0.3495
C17 C 0.6842(4) 0.3131(7) 0.1414(9)
H16 H 0.7293 0.2973 0.1611
H17 H 0.6818 0.3760 0.1260
Zn1D Zn 1.36702(4) -0.20364(7) 0.45325(9)
Zn1C Zn 0.86702(4) -0.29636(7) 0.95325(9)
Zn1A Zn 0.36702(4) 0.20364(7) -0.04675(9)
Zn1G Zn 1.13298(4) 0.29636(7) 0.04675(9)
C1D C 1.1805(3) -0.0345(6) 0.4264(7)
H1D H 1.1908 -0.0754 0.4831
O1D O 1.0815(3) -0.0150(4) 0.4855(5)
N1A N 0.4435(3) 0.1176(6) 0.5172(8)
C2D C 1.2229(3) -0.0186(6) 0.3571(7)
O2D O 1.3113(3) -0.0781(5) 0.2886(6)
O3D O 1.2980(2) -0.1183(4) 0.4530(6)
O3A O 0.2980(2) 0.1183(4) -0.0470(6)
C3D C 1.2836(4) -0.0725(6) 0.3663(9)
C4D C 1.1211(3) 0.0105(6) 0.4128(8)
C5A C 0.3329(4) 0.1665(7) 0.4523(8)
H2A H 0.2887 0.1550 0.4598
H3A H 0.3383 0.1467 0.3796
O4D O 1.1788(3) 0.1962(4) 0.1363(6)
O4C O 0.6788(3) 0.3038(4) 0.6363(6)
O4B O 0.3212(3) 0.3038(4) -0.1363(6)
N2A N 0.4102(3) 0.3219(6) 0.2706(7)
N3A N 0.3476(3) 0.2949(6) 0.2660(7)
C6D C 1.2089(3) 0.0471(6) 0.2782(7)
H4D H 1.2378 0.0586 0.2310
N4A N 0.3712(3) 0.2536(5) 0.1082(6)
C7D C 1.1524(4) 0.0960(6) 0.2685(8)
C8D C 1.1079(4) 0.0751(6) 0.3345(8)
H5D H 1.0689 0.1052 0.3256
N5A N 0.4576(4) 0.0810(6) 0.4223(9)
C9D C 1.1368(6) 0.1714(7) 0.1894(9)
C9C C 0.6368(6) 0.3286(7) 0.6894(9)
C9B C 0.3632(6) 0.3286(7) -0.1894(9)
N6A N 0.5442(3) 0.1500(5) 0.5199(7)
C10A C 0.3767(4) 0.1138(7) 0.5373(9)
H6A H 0.3750 0.1370 0.6101
H7A H 0.3624 0.0528 0.5348
C11A C 0.3449(4) 0.2637(7) 0.4609(8)
H8A H 0.3273 0.2867 0.5228
H9A H 0.3910 0.2742 0.4757
C12A C 0.4944(4) 0.1572(6) 0.5703(8)
H10A H 0.4954 0.1873 0.6364
O5D O 1.0846(4) 0.2092(5) 0.1818(7)
O5C O 0.5846(4) 0.2908(5) 0.6818(7)
O5B O 0.4154(4) 0.2908(5) -0.1818(7)
C13A C 0.5198(4) 0.1003(6) 0.4293(10)
H11A H 0.5443 0.0818 0.3777
C14A C 0.4217(4) 0.2973(7) 0.1751(9)
H12A H 0.4609 0.3081 0.1529
C15D C 1.0178(4) 0.0221(7) 0.4629(9)
H13D H 1.0193 0.0853 0.4764
H14D H 0.9979 0.0116 0.3868
C16A C 0.3278(4) 0.2548(6) 0.1706(9)
H15A H 0.2871 0.2300 0.1505
C17A C 0.3158(4) 0.3131(7) 0.3586(9)
H16A H 0.2707 0.2973 0.3389
H17A H 0.3182 0.3760 0.3740
O6 O 0.6238(8) 0.0505(13) 0.2919(15)
loop_
_geom_bond_atom_site_label_1
_geom_bond_atom_site_label_2
_geom_bond_site_symmetry_1
_geom_bond_site_symmetry_2
Zn1 O3 1_555 1_555
C1 H1 1_555 1_555
O1 C4 1_555 1_555
N1 N5 1_555 1_555
C2 C1 1_555 1_555
O2 C3 1_555 1_555
O3 C3 1_555 1_555
C3 C2 1_555 1_555
C4 C1 1_555 1_555
C5 H2 1_555 1_555
H3 C5 1_555 1_555
O4 C9 1_555 1_555
N2 N3 1_555 1_555
N3 C16 1_555 1_555
C6 C2 1_555 1_555
H4 C6 1_555 1_555
N4 Zn1 1_555 1_555
C7 C6 1_555 1_555
C8 C4 1_555 1_555
H5 C8 1_555 1_555
N5 C13 1_555 1_555
C9 C7 1_555 1_555
N6 C12 1_555 1_555
C10 N1 1_555 1_555
H6 C10 1_555 1_555
H7 C10 1_555 1_555
C11 C5 1_555 1_555
H8 C11 1_555 1_555
H9 C11 1_555 1_555
C12 N1 1_555 1_555
H10 C12 1_555 1_555
O5 C9 1_555 1_555
C13 N6 1_555 1_555
H11 C13 1_555 1_555
C14 N2 1_555 1_555
H12 C14 1_555 1_555
C15 O1 1_555 1_555
H13 C15 1_555 1_555
H14 C15 1_555 1_555
C16 N4 1_555 1_555
H15 C16 1_555 1_555
C17 N3 1_555 1_555
H16 C17 1_555 1_555
H17 C17 1_555 1_555
Zn1D O3D 1_555 1_555
Zn1C O4 1_555 1_555
Zn1A N6 1_555 1_555
Zn1G O4D 1_555 1_555
C1D H1D 1_555 1_555
O1D C4D 1_555 1_555
N1A N5A 1_555 1_555
C2D C1D 1_555 1_555
O2D C3D 1_555 1_555
O3D C3D 1_555 1_555
O3A Zn1A 1_555 1_555
C3D C2D 1_555 1_555
C4D C1D 1_555 1_555
C5A H2A 1_555 1_555
H3A C5A 1_555 1_555
O4D C9D 1_555 1_555
O4C Zn1 1_555 1_555
O4B Zn1A 1_555 1_555
N2A N3A 1_555 1_555
N3A C16A 1_555 1_555
C6D C2D 1_555 1_555
H4D C6D 1_555 1_555
N4A Zn1A 1_555 1_555
C7D C6D 1_555 1_555
C8D C4D 1_555 1_555
H5D C8D 1_555 1_555
N5A C13A 1_555 1_555
C9D C7D 1_555 1_555
C9C O4C 1_555 1_555
C9B O4B 1_555 1_555
N6A Zn1 1_555 1_555
C10A N1A 1_555 1_555
H6A C10A 1_555 1_555
H7A C10A 1_555 1_555
C11A C5A 1_555 1_555
H8A C11A 1_555 1_555
H9A C11A 1_555 1_555
C12A N1A 1_555 1_555
H10A C12A 1_555 1_555
O5D Zn1G 1_555 1_555
O5C Zn1 1_555 1_555
O5B Zn1A 1_555 1_555
C13A N6A 1_555 1_555
H11A C13A 1_555 1_555
C14A N2A 1_555 1_555
H12A C14A 1_555 1_555
C15D C15 1_555 1_555
H13D C15D 1_555 1_555
H14D C15D 1_555 1_555
C16A N4A 1_555 1_555
H15A C16A 1_555 1_555
C17A N3A 1_555 1_555
H16A C17A 1_555 1_555
H17A C17A 1_555 1_555
C5 C10 1_555 1_555
N4 C14 1_555 1_555
C7 C8 1_555 1_555
C11 C17 1_555 1_555
O5 Zn1C 1_555 1_555
O1D C15D 1_555 1_555
C5A C10A 1_555 1_555
N4A C14A 1_555 1_555
C7D C8D 1_555 1_555
C9D O5D 1_555 1_555
C9C O5C 1_555 1_555
C9B O5B 1_555 1_555
N6A C12A 1_555 1_555
C11A C17A 1_555 1_555

#END
