
#######################################################################
#
#                 Cambridge Crystallographic Data Centre
#                                CCDC 
#
#######################################################################
#
# If this CIF has been generated from an entry in the Cambridge 
# Structural Database, then it will include bibliographic, chemical, 
# crystal, experimental, refinement or atomic coordinate data resulting 
# from the CCDC's data processing and validation procedures.
#
#######################################################################

data_FAKNEM
_symmetry_cell_setting           monoclinic
_symmetry_space_group_name_H-M   'P 21/c'
_symmetry_Int_Tables_number      14
_space_group_name_Hall           '-P 2ybc'
loop_
_symmetry_equiv_pos_site_id
_symmetry_equiv_pos_as_xyz
1 x,y,z
2 -x,1/2+y,1/2-z
3 -x,-y,-z
4 x,1/2-y,1/2+z
_cell_length_a                   15.3667(10)
_cell_length_b                   9.0896(6)
_cell_length_c                   24.9074(12)
_cell_angle_alpha                90
_cell_angle_beta                 126.332(3)
_cell_angle_gamma                90
_cell_volume                     2802.67
loop_
_atom_site_label
_atom_site_type_symbol
_atom_site_fract_x
_atom_site_fract_y
_atom_site_fract_z
Ni1 Ni 0.08465(2) 0.55365(3) 0.891858(14)
Ni2 Ni -0.32533(2) 0.47250(3) 0.723514(14)
N1 N -0.01609(15) 0.4482(2) 0.89546(9)
N2 N -0.02926(14) 0.6761(2) 0.82985(9)
N3 N 0.18548(14) 0.6531(2) 0.88555(9)
N4 N 0.19890(15) 0.4311(2) 0.95293(9)
O1 O -0.19972(12) 0.39744(18) 0.81641(8)
O2 O -0.21490(12) 0.64192(18) 0.75208(8)
O3 O 0.24774(12) 0.86991(18) 0.81030(8)
O4 O 0.34395(14) 0.9191(2) 0.91976(9)
O5 O 0.35787(17) 0.4341(2) 1.10557(10)
O6 O 0.35726(14) 0.2006(2) 1.07847(9)
O7 O -0.43642(14) 0.5630(2) 0.63324(9)
H1 H -0.4223 0.5258 0.6079
H2 H -0.4812 0.6339 0.6176
O8 O -0.38780(15) 0.5684(2) 0.76828(10)
H3 H -0.4532 0.5966 0.7428
H4 H -0.3650 0.5377 0.8068
O9 O -0.42280(13) 0.2933(2) 0.69560(9)
H5 H -0.4118 0.2408 0.7273
H6 H -0.4877 0.3013 0.6611
C1 C -0.11497(17) 0.4689(2) 0.83936(11)
C2 C -0.12372(17) 0.6065(2) 0.80142(11)
C3 C -0.02050(18) 0.8229(3) 0.81603(11)
C4 C 0.08188(18) 0.8796(3) 0.83938(12)
C5 C 0.0917(2) 1.0321(3) 0.83316(14)
H7 H 0.1588 1.0701 0.8482
C6 C 0.0057(2) 1.1253(3) 0.80580(14)
H8 H 0.0149 1.2260 0.8042
C7 C -0.0953(2) 1.0680(3) 0.78038(14)
H9 H -0.1547 1.1304 0.7605
C8 C -0.1087(2) 0.9193(3) 0.78425(13)
H10 H -0.1776 0.8824 0.7654
C9 C 0.17752(18) 0.7882(3) 0.86610(11)
C10 C 0.26674(18) 0.8650(3) 0.86649(12)
C11 C 0.27573(18) 0.5588(3) 0.90688(11)
C12 C 0.28391(18) 0.4394(3) 0.94535(11)
C13 C 0.36213(19) 0.3328(3) 0.96557(13)
H11 H 0.3671 0.2525 0.9904
C14 C 0.4323(2) 0.3464(3) 0.94871(13)
H12 H 0.4861 0.2763 0.9633
C15 C 0.4238(2) 0.4623(3) 0.91055(13)
H13 H 0.4713 0.4695 0.8991
C16 C 0.34539(19) 0.5684(3) 0.88896(13)
H14 H 0.3393 0.6458 0.8625
C17 C 0.20737(18) 0.3606(3) 1.00149(11)
C18 C 0.3190(2) 0.3264(3) 1.06714(13)
C19 C 0.11439(19) 0.3213(3) 1.00002(12)
C20 C 0.00570(19) 0.3531(3) 0.94662(11)
C21 C -0.0764(2) 0.2973(3) 0.94921(13)
H15 H -0.1479 0.3187 0.9148
C22 C -0.0537(2) 0.2109(3) 1.00178(14)
H16 H -0.1099 0.1737 1.0020
C23 C 0.0515(2) 0.1797(3) 1.05378(14)
H17 H 0.0667 0.1211 1.0890
C24 C 0.1332(2) 0.2353(3) 1.05322(13)
H18 H 0.2042 0.2159 1.0892
Ni2A Ni 0.32533(2) 0.97250(3) 0.776486(14)
O3A O -0.24774(12) 0.36991(18) 0.68970(8)
C25 C 0.3268(3) 0.5408(4) 0.68186(18)
H19 H 0.3111 0.4940 0.6420
H20 H 0.2603 0.5826 0.6713
C26 C 0.3683(3) 0.4314(4) 0.7349(2)
H21 H 0.4376 0.3972 0.7481
H22 H 0.3191 0.3500 0.7188
H23 H 0.3756 0.4753 0.7724
O12 O 0.40426(15) 0.6540(2) 0.70256(9)
H26 H 0.3888 0.7015 0.6700
O10 O 0.6109(3) 0.2677(4) 0.90009(18)
O11 O 0.6944(3) 0.4373(3) 0.48515(16)
H24 H 0.6498 0.4427 0.4947
H25 H 0.7263 0.3555 0.4922
O13? O 0.6852(5) 0.2938(7) 0.9114(3)
loop_
_geom_bond_atom_site_label_1
_geom_bond_atom_site_label_2
_geom_bond_site_symmetry_1
_geom_bond_site_symmetry_2
Ni1 N1 1_555 1_555
Ni2 O1 1_555 1_555
N1 C1 1_555 1_555
N2 Ni1 1_555 1_555
N3 Ni1 1_555 1_555
N4 Ni1 1_555 1_555
O1 C1 1_555 1_555
O2 Ni2 1_555 1_555
O3 C10 1_555 1_555
O4 C10 1_555 1_555
O5 C18 1_555 1_555
O6 C18 1_555 1_555
O7 Ni2 1_555 1_555
H1 O7 1_555 1_555
H2 O7 1_555 1_555
O8 Ni2 1_555 1_555
H3 O8 1_555 1_555
H4 O8 1_555 1_555
O9 Ni2 1_555 1_555
H5 O9 1_555 1_555
H6 O9 1_555 1_555
C1 C2 1_555 1_555
C2 N2 1_555 1_555
C3 N2 1_555 1_555
C4 C3 1_555 1_555
C5 C4 1_555 1_555
H7 C5 1_555 1_555
C6 C5 1_555 1_555
H8 C6 1_555 1_555
C7 C6 1_555 1_555
H9 C7 1_555 1_555
C8 C3 1_555 1_555
H10 C8 1_555 1_555
C9 N3 1_555 1_555
C10 C9 1_555 1_555
C11 N3 1_555 1_555
C12 N4 1_555 1_555
C13 C12 1_555 1_555
H11 C13 1_555 1_555
C14 C13 1_555 1_555
H12 C14 1_555 1_555
C15 C14 1_555 1_555
H13 C15 1_555 1_555
C16 C11 1_555 1_555
H14 C16 1_555 1_555
C17 N4 1_555 1_555
C18 C17 1_555 1_555
C19 C17 1_555 1_555
C20 N1 1_555 1_555
C21 C20 1_555 1_555
H15 C21 1_555 1_555
C22 C21 1_555 1_555
H16 C22 1_555 1_555
C23 C22 1_555 1_555
H17 C23 1_555 1_555
C24 C19 1_555 1_555
H18 C24 1_555 1_555
C25 H19 1_555 1_555
H20 C25 1_555 1_555
C26 C25 1_555 1_555
H21 C26 1_555 1_555
H22 C26 1_555 1_555
H23 C26 1_555 1_555
O11 H24 1_555 1_555
H25 O11 1_555 1_555
O12 C25 1_555 1_555
H26 O12 1_555 1_555
Ni2A O3 1_555 1_555
O3A Ni2 1_555 1_555
O2 C2 1_555 1_555
C4 C9 1_555 1_555
C7 C8 1_555 1_555
C11 C12 1_555 1_555
C15 C16 1_555 1_555
C19 C20 1_555 1_555
C23 C24 1_555 1_555

#END
