
#######################################################################
#
#                 Cambridge Crystallographic Data Centre
#                                CCDC 
#
#######################################################################
#
# If this CIF has been generated from an entry in the Cambridge 
# Structural Database, then it will include bibliographic, chemical, 
# crystal, experimental, refinement or atomic coordinate data resulting 
# from the CCDC's data processing and validation procedures.
#
#######################################################################

data_FAKNIQ
_symmetry_cell_setting           triclinic
_symmetry_space_group_name_H-M   'P -1'
_symmetry_Int_Tables_number      2
_space_group_name_Hall           '-P 1'
loop_
_symmetry_equiv_pos_site_id
_symmetry_equiv_pos_as_xyz
1 x,y,z
2 -x,-y,-z
_cell_length_a                   8.9653(18)
_cell_length_b                   15.482(3)
_cell_length_c                   19.932(4)
_cell_angle_alpha                90.78(3)
_cell_angle_beta                 91.84(3)
_cell_angle_gamma                91.97(3)
_cell_volume                     2763.22
loop_
_atom_site_label
_atom_site_type_symbol
_atom_site_fract_x
_atom_site_fract_y
_atom_site_fract_z
Zn1 Zn 0.89740(8) 0.43782(5) 0.28176(4)
Zn2 Zn 0.44194(8) 1.04247(5) 0.21283(4)
Ni1 Ni 0.52921(9) 0.80419(5) 0.39014(4)
Ni2 Ni 1.00674(9) 0.67110(5) 0.10444(4)
O1 O 0.6103(5) 0.9590(3) 0.2447(2)
O2 O 0.3691(5) 1.0083(3) 0.3115(2)
O3 O 0.1388(5) 0.7216(3) 0.5631(2)
O4 O 0.3791(5) 0.7173(3) 0.5983(2)
O5 O 0.8866(5) 0.5760(3) 0.4209(2)
O6 O 0.8299(5) 0.5612(3) 0.3100(2)
O7 O 0.8376(5) 0.4678(3) 0.1843(2)
O8 O 1.0954(5) 0.5145(3) 0.2509(2)
O9 O 1.3712(5) 0.9053(3) 0.0717(2)
O10 O 1.3286(5) 0.9242(3) 0.1821(2)
O11 O 0.8004(5) 0.7544(3) -0.1064(2)
O12 O 0.5756(5) 0.7268(3) -0.0637(2)
O13 O 0.5696(5) 1.1444(3) 0.2500(2)
H1 H 0.5731 1.1555 0.2919
H2 H 0.6192 1.1760 0.2236
O14 O 0.4967(6) 1.0577(3) 0.1153(2)
H3 H 0.4713 1.0188 0.0862
H4 H 0.5447 1.1031 0.1035
O15 O 0.2524(5) 1.1126(3) 0.1978(2)
H5 H 0.1886 1.1153 0.2283
H6 H 0.2381 1.1387 0.1610
O16 O 0.6871(5) 0.3848(3) 0.2958(2)
H7 H 0.6120 0.4051 0.2752
H8 H 0.6755 0.3426 0.3222
O17 O 0.9825(5) 0.4185(3) 0.3760(2)
H9 H 1.0683 0.4397 0.3877
H10 H 0.9321 0.3893 0.4038
O18 O 0.9773(5) 0.3209(3) 0.2503(2)
H11 H 1.0621 0.3192 0.2326
H12 H 0.9253 0.2746 0.2550
N1 N 0.6502(6) 0.8572(3) 0.3281(2)
N2 N 0.4320(6) 0.9082(3) 0.3938(2)
N3 N 0.4016(5) 0.7503(3) 0.4501(2)
N4 N 0.6236(6) 0.6985(3) 0.3839(2)
N5 N 0.9045(6) 0.5651(4) 0.1010(2)
N6 N 1.1287(6) 0.6239(3) 0.1710(2)
N7 N 1.1045(6) 0.7802(3) 0.1102(2)
N8 N 0.8765(6) 0.7197(3) 0.0413(2)
C1 C 0.5799(7) 0.9199(4) 0.2968(3)
C2 C 0.4443(7) 0.9493(4) 0.3355(3)
C3 C 0.3456(7) 0.9383(4) 0.4470(3)
C4 C 0.3123(7) 1.0255(4) 0.4530(3)
H13 H 0.3446 1.0646 0.4197
C5 C 0.2336(8) 1.0566(5) 0.5063(3)
H14 H 0.2099 1.1158 0.5088
C6 C 0.1892(8) 0.9996(5) 0.5564(4)
H15 H 0.1344 1.0201 0.5930
C7 C 0.2248(8) 0.9149(5) 0.5525(3)
H16 H 0.1953 0.8774 0.5874
C8 C 0.3048(7) 0.8802(4) 0.4981(3)
C9 C 0.3289(7) 0.7886(4) 0.4972(3)
C10 C 0.2753(8) 0.7360(4) 0.5583(3)
C11 C 0.4051(7) 0.6586(4) 0.4420(3)
C12 C 0.2902(7) 0.6009(4) 0.4601(3)
H17 H 0.2042 0.6215 0.4810
C13 C 0.3037(7) 0.5127(4) 0.4471(3)
H18 H 0.2283 0.4726 0.4606
C14 C 0.4261(7) 0.4840(4) 0.4148(3)
H19 H 0.4356 0.4238 0.4072
C15 C 0.5355(7) 0.5410(4) 0.3932(3)
H20 H 0.6170 0.5201 0.3692
C16 C 0.5261(7) 0.6292(4) 0.4066(3)
C17 C 0.7576(7) 0.6872(4) 0.3636(3)
C18 C 0.8309(7) 0.6005(4) 0.3659(3)
C19 C 0.8519(7) 0.7565(4) 0.3360(3)
C20 C 1.0047(7) 0.7396(4) 0.3283(3)
H21 H 1.0416 0.6857 0.3423
C21 C 1.1016(7) 0.8002(5) 0.3006(3)
H22 H 1.2048 0.7892 0.2976
C22 C 1.0458(7) 0.8772(5) 0.2775(3)
H23 H 1.1112 0.9182 0.2574
C23 C 0.8978(7) 0.8952(4) 0.2829(3)
H24 H 0.8619 0.9479 0.2661
C24 C 0.7977(7) 0.8356(4) 0.3136(3)
C25 C 0.9189(7) 0.5260(4) 0.1605(3)
C26 C 1.0592(7) 0.5569(4) 0.2001(3)
C27 C 1.2781(7) 0.6500(4) 0.1869(3)
C28 C 1.3758(8) 0.5971(5) 0.2217(3)
H25 H 1.3374 0.5469 0.2431
C29 C 1.5290(8) 0.6166(5) 0.2257(3)
H26 H 1.5945 0.5784 0.2477
C30 C 1.5858(8) 0.6919(5) 0.1976(3)
H27 H 1.6903 0.7043 0.1991
C31 C 1.4908(7) 0.7482(5) 0.1677(3)
H28 H 1.5300 0.8013 0.1512
C32 C 1.3353(7) 0.7291(4) 0.1609(3)
C33 C 1.2418(7) 0.7948(4) 0.1308(3)
C34 C 1.3209(7) 0.8839(4) 0.1280(3)
C35 C 1.0085(7) 0.8449(4) 0.0863(3)
C36 C 1.0190(7) 0.9336(4) 0.1017(3)
H29 H 1.1000 0.9563 0.1292
C37 C 0.9125(8) 0.9878(4) 0.0772(3)
H30 H 0.9231 1.0482 0.0861
C38 C 0.7896(8) 0.9551(4) 0.0398(3)
H31 H 0.7166 0.9931 0.0232
C39 C 0.7730(8) 0.8676(4) 0.0265(3)
H32 H 0.6863 0.8449 0.0029
C40 C 0.8837(7) 0.8129(4) 0.0479(3)
C41 C 0.7895(7) 0.6790(4) -0.0041(3)
C42 C 0.7149(8) 0.7258(4) -0.0627(3)
C43 C 0.7633(7) 0.5851(4) -0.0040(3)
C44 C 0.6743(8) 0.5463(5) -0.0570(3)
H33 H 0.6439 0.5810 -0.0936
C45 C 0.6307(8) 0.4615(4) -0.0575(3)
H34 H 0.5665 0.4384 -0.0926
C46 C 0.6814(8) 0.4081(5) -0.0057(3)
H35 H 0.6540 0.3483 -0.0065
C47 C 0.7708(8) 0.4425(4) 0.0464(3)
H36 H 0.8059 0.4060 0.0810
C48 C 0.8102(7) 0.5309(4) 0.0483(3)
Zn2_2 Zn 1.44194(8) 1.04247(5) 0.21283(4)
O10_2 O 0.3286(5) 0.9242(3) 0.1821(2)
O19 O 0.3299(5) 0.8227(3) 0.9512(2)
H37 H 0.3981 0.7865 0.9453
H38 H 0.3295 0.8463 0.9902
O20 O 0.5035(5) 0.3036(3) 0.2003(2)
H39 H 0.5042 0.2992 0.1562
H40 H 0.4030 0.3136 0.2095
O21 O 0.6862(5) 0.7447(3) 0.6127(2)
H41 H 0.5890 0.7420 0.6114
H42 H 0.7650 0.7463 0.5743
O22 O 0.1311(6) 0.1287(3) 0.3222(2)
H43 H 0.1795 0.1719 0.3399
H44 H 0.1666 0.0789 0.3290
O23 O 0.8574(6) 0.7214(3) 0.5069(2)
H45 H 0.8338 0.6747 0.5099
H46 H 0.9309 0.7463 0.5195
O24 O 0.2703(6) 0.3543(3) 0.2774(3)
H47 H 0.2654 0.4058 0.2922
H48 H 0.2870 0.3154 0.3063
O25 O 0.0938(6) 0.7689(4) 0.8669(3)
H49 H 0.0057 0.7625 0.8815
H50 H 0.1660 0.7793 0.8941
O26 O 0.8620(7) 0.1166(4) 0.2436(3)
H51 H 0.8452 0.1568 0.2738
H52 H 0.9536 0.0990 0.2482
loop_
_geom_bond_atom_site_label_1
_geom_bond_atom_site_label_2
_geom_bond_site_symmetry_1
_geom_bond_site_symmetry_2
Zn1 O6 1_555 1_555
Zn2 O1 1_555 1_555
Ni1 N1 1_555 1_555
Ni2 N5 1_555 1_555
O1 C1 1_555 1_555
O2 Zn2 1_555 1_555
O3 C10 1_555 1_555
O4 C10 1_555 1_555
O5 C18 1_555 1_555
O6 C18 1_555 1_555
O7 Zn1 1_555 1_555
O8 Zn1 1_555 1_555
O9 C34 1_555 1_555
O10 C34 1_555 1_555
O11 C42 1_555 1_555
O12 C42 1_555 1_555
O13 Zn2 1_555 1_555
H1 O13 1_555 1_555
H2 O13 1_555 1_555
O14 Zn2 1_555 1_555
H3 O14 1_555 1_555
H4 O14 1_555 1_555
O15 Zn2 1_555 1_555
H5 O15 1_555 1_555
H6 O15 1_555 1_555
O16 Zn1 1_555 1_555
H7 O16 1_555 1_555
H8 O16 1_555 1_555
O17 Zn1 1_555 1_555
H9 O17 1_555 1_555
H10 O17 1_555 1_555
O18 Zn1 1_555 1_555
H11 O18 1_555 1_555
H12 O18 1_555 1_555
N1 C1 1_555 1_555
N2 Ni1 1_555 1_555
N3 Ni1 1_555 1_555
N4 Ni1 1_555 1_555
N5 C25 1_555 1_555
N6 Ni2 1_555 1_555
N7 Ni2 1_555 1_555
N8 Ni2 1_555 1_555
C1 C2 1_555 1_555
C2 O2 1_555 1_555
C3 N2 1_555 1_555
C4 C3 1_555 1_555
H13 C4 1_555 1_555
C5 C4 1_555 1_555
H14 C5 1_555 1_555
C6 C5 1_555 1_555
H15 C6 1_555 1_555
C7 C6 1_555 1_555
H16 C7 1_555 1_555
C8 C3 1_555 1_555
C9 N3 1_555 1_555
C10 C9 1_555 1_555
C11 N3 1_555 1_555
C12 C11 1_555 1_555
H17 C12 1_555 1_555
C13 C12 1_555 1_555
H18 C13 1_555 1_555
C14 C13 1_555 1_555
H19 C14 1_555 1_555
C15 C14 1_555 1_555
H20 C15 1_555 1_555
C16 N4 1_555 1_555
C17 N4 1_555 1_555
C18 C17 1_555 1_555
C19 C17 1_555 1_555
C20 C19 1_555 1_555
H21 C20 1_555 1_555
C21 C20 1_555 1_555
H22 C21 1_555 1_555
C22 C21 1_555 1_555
H23 C22 1_555 1_555
C23 C22 1_555 1_555
H24 C23 1_555 1_555
C24 N1 1_555 1_555
C25 O7 1_555 1_555
C26 O8 1_555 1_555
C27 N6 1_555 1_555
C28 C27 1_555 1_555
H25 C28 1_555 1_555
C29 C28 1_555 1_555
H26 C29 1_555 1_555
C30 C29 1_555 1_555
H27 C30 1_555 1_555
C31 C30 1_555 1_555
H28 C31 1_555 1_555
C32 C27 1_555 1_555
C33 N7 1_555 1_555
C34 C33 1_555 1_555
C35 N7 1_555 1_555
C36 C35 1_555 1_555
H29 C36 1_555 1_555
C37 C36 1_555 1_555
H30 C37 1_555 1_555
C38 C37 1_555 1_555
H31 C38 1_555 1_555
C39 C38 1_555 1_555
H32 C39 1_555 1_555
C40 N8 1_555 1_555
C41 N8 1_555 1_555
C42 C41 1_555 1_555
C43 C41 1_555 1_555
C44 C43 1_555 1_555
H33 C44 1_555 1_555
C45 C44 1_555 1_555
H34 C45 1_555 1_555
C46 C45 1_555 1_555
H35 C46 1_555 1_555
C47 C46 1_555 1_555
H36 C47 1_555 1_555
C48 N5 1_555 1_555
O19 H37 1_555 1_555
H38 O19 1_555 1_555
O20 H39 1_555 1_555
H40 O20 1_555 1_555
O21 H41 1_555 1_555
H42 O21 1_555 1_555
O22 H43 1_555 1_555
H44 O22 1_555 1_555
O23 H45 1_555 1_555
H46 O23 1_555 1_555
O24 H47 1_555 1_555
H48 O24 1_555 1_555
O25 H49 1_555 1_555
H50 O25 1_555 1_555
O26 H51 1_555 1_555
H52 O26 1_555 1_555
Zn2_2 O10 1_555 1_555
O10_2 Zn2 1_555 1_555
N2 C2 1_555 1_555
N6 C26 1_555 1_555
C7 C8 1_555 1_555
C8 C9 1_555 1_555
C11 C16 1_555 1_555
C15 C16 1_555 1_555
C19 C24 1_555 1_555
C23 C24 1_555 1_555
C25 C26 1_555 1_555
C31 C32 1_555 1_555
C32 C33 1_555 1_555
C35 C40 1_555 1_555
C39 C40 1_555 1_555
C43 C48 1_555 1_555
C47 C48 1_555 1_555

#END
