
#######################################################################
#
#                 Cambridge Crystallographic Data Centre
#                                CCDC 
#
#######################################################################
#
# If this CIF has been generated from an entry in the Cambridge 
# Structural Database, then it will include bibliographic, chemical, 
# crystal, experimental, refinement or atomic coordinate data resulting 
# from the CCDC's data processing and validation procedures.
#
#######################################################################

data_FAKNOW
_symmetry_cell_setting           monoclinic
_symmetry_space_group_name_H-M   'P 21/n'
_symmetry_Int_Tables_number      14
_space_group_name_Hall           '-P 2yn'
loop_
_symmetry_equiv_pos_site_id
_symmetry_equiv_pos_as_xyz
1 x,y,z
2 1/2-x,1/2+y,1/2-z
3 -x,-y,-z
4 1/2+x,1/2-y,1/2+z
_cell_length_a                   11.1075(17)
_cell_length_b                   14.004(2)
_cell_length_c                   19.542(3)
_cell_angle_alpha                90
_cell_angle_beta                 92.756(3)
_cell_angle_gamma                90
_cell_volume                     3036.23
loop_
_atom_site_label
_atom_site_type_symbol
_atom_site_fract_x
_atom_site_fract_y
_atom_site_fract_z
Cd1 Cd 0.667040(10) 0.213220(8) 0.019689(6)
Ni1 Ni 0.648938(18) 0.286602(13) 0.294896(10)
O1 O 0.54166(11) 0.22242(7) 0.11024(6)
O2 O 0.77947(11) 0.27815(8) 0.11564(6)
O3 O 0.31037(11) 0.12215(8) 0.41210(6)
O4 O 0.33314(10) 0.27051(8) 0.45648(6)
O5 O 0.91840(11) 0.40471(8) 0.47883(6)
O6 O 1.04841(10) 0.31331(8) 0.42420(6)
O7 O 0.71846(12) 0.06329(9) 0.04668(8)
O8 O 0.61507(11) 0.36830(8) -0.00544(6)
N1 N 0.53519(12) 0.27210(9) 0.22351(7)
N2 N 0.54855(12) 0.23703(9) 0.36084(7)
N3 N 0.76889(12) 0.29269(8) 0.36497(7)
N4 N 0.75171(12) 0.32685(9) 0.22806(6)
C1 C 0.58728(14) 0.25544(11) 0.16421(8)
C2 C 0.71925(15) 0.28725(10) 0.16742(8)
C3 C 0.41003(14) 0.27489(10) 0.22915(8)
C4 C 0.33327(15) 0.29562(11) 0.17241(9)
H1 H 0.3646 0.3003 0.1293
C5 C 0.21152(15) 0.30919(12) 0.17956(9)
H2 H 0.1618 0.3248 0.1415
C6 C 0.16298(16) 0.29965(11) 0.24343(9)
H3 H 0.0808 0.3087 0.2481
C7 C 0.23561(15) 0.27698(11) 0.29935(9)
H4 H 0.2017 0.2698 0.3416
C8 C 0.36132(14) 0.26408(11) 0.29453(8)
C9 C 0.43116(15) 0.23524(10) 0.35604(8)
C10 C 0.35196(14) 0.20465(11) 0.41445(8)
C11 C 0.62077(15) 0.19804(10) 0.41665(8)
C12 C 0.58486(15) 0.12912(11) 0.46324(8)
H5 H 0.5043 0.1112 0.4641
C13 C 0.66985(15) 0.08767(11) 0.50815(8)
H6 H 0.6457 0.0422 0.5394
C14 C 0.78986(15) 0.11292(11) 0.50713(8)
H7 H 0.8461 0.0834 0.5369
C15 C 0.82706(15) 0.18230(11) 0.46188(8)
H8 H 0.9079 0.1993 0.4611
C16 C 0.74168(15) 0.22604(10) 0.41780(8)
C17 C 0.86244(14) 0.34880(11) 0.36684(8)
C18 C 0.94986(15) 0.35664(11) 0.42984(8)
C19 C 0.89451(14) 0.40623(11) 0.30751(8)
C20 C 0.98175(15) 0.47809(11) 0.31857(9)
H9 H 1.0079 0.4933 0.3632
C21 C 1.02933(15) 0.52651(11) 0.26471(9)
H10 H 1.0851 0.5752 0.2729
C22 C 0.99317(15) 0.50187(11) 0.19815(9)
H11 H 1.0286 0.5318 0.1617
C23 C 0.90543(14) 0.43360(11) 0.18522(8)
H12 H 0.8817 0.4185 0.1402
C24 C 0.85140(14) 0.38649(11) 0.23962(8)
H27 H 0.7888(10) 0.0409(15) 0.0580(12)
H28 H 0.6657(14) 0.0198(12) 0.0384(11)
H29 H 0.6718(14) 0.3882(12) -0.0297(8)
H30 H 0.5967(18) 0.4041(13) 0.0271(8)
Cd1C Cd 0.167040(10) 0.286780(8) 0.519689(6)
Cd1C_2 Cd 1.167040(10) 0.286780(8) 0.519689(6)
O4C O 0.83314(10) 0.22949(8) -0.04352(6)
O6C O 0.54841(10) 0.18669(8) -0.07580(6)
O9 O 0.95881(12) -0.03994(9) 0.39417(7)
N5 N 0.94676(15) 0.04474(10) 0.29509(8)
C25 C 0.90219(17) 0.00646(12) 0.35075(10)
H13 H 0.8206 0.0159 0.3571
C26 C 1.07411(19) 0.03482(15) 0.28243(11)
H14 H 1.1175 0.0170 0.3241
H15 H 1.1046 0.0945 0.2664
H16 H 1.0843 -0.0136 0.2484
C27 C 0.8702(2) 0.09066(17) 0.24312(12)
H17 H 0.7896 0.0951 0.2586
H18 H 0.8696 0.0538 0.2017
H19 H 0.9003 0.1536 0.2345
O10 O -0.07989(13) -0.03256(10) 0.08101(9)
N6 N 0.09229(14) 0.05648(11) 0.08966(7)
C28 C 0.02977(19) -0.02401(14) 0.09076(10)
H20 H 0.0732 -0.0797 0.0998
C29 C 0.22073(18) 0.05791(15) 0.10496(11)
H21 H 0.2497 -0.0063 0.1107
H22 H 0.2376 0.0933 0.1464
H23 H 0.2603 0.0878 0.0679
C30 C 0.0334(2) 0.14642(14) 0.07207(12)
H24 H -0.0383 0.1343 0.0440
H25 H 0.0872 0.1858 0.0474
H26 H 0.0124 0.1786 0.1132
loop_
_geom_bond_atom_site_label_1
_geom_bond_atom_site_label_2
_geom_bond_site_symmetry_1
_geom_bond_site_symmetry_2
Cd1 O1 1_555 1_555
Ni1 N1 1_555 1_555
O1 C1 1_555 1_555
O2 Cd1 1_555 1_555
O3 C10 1_555 1_555
O4 C10 1_555 1_555
O5 C18 1_555 1_555
O6 C18 1_555 1_555
O7 Cd1 1_555 1_555
O8 Cd1 1_555 1_555
N1 C1 1_555 1_555
N2 Ni1 1_555 1_555
N3 Ni1 1_555 1_555
N4 Ni1 1_555 1_555
C1 C2 1_555 1_555
C2 O2 1_555 1_555
C3 N1 1_555 1_555
C4 C3 1_555 1_555
H1 C4 1_555 1_555
C5 C4 1_555 1_555
H2 C5 1_555 1_555
C6 C5 1_555 1_555
H3 C6 1_555 1_555
C7 C6 1_555 1_555
H4 C7 1_555 1_555
C8 C3 1_555 1_555
C9 N2 1_555 1_555
C10 C9 1_555 1_555
C11 N2 1_555 1_555
C12 C11 1_555 1_555
H5 C12 1_555 1_555
C13 C12 1_555 1_555
H6 C13 1_555 1_555
C14 C13 1_555 1_555
H7 C14 1_555 1_555
C15 C14 1_555 1_555
H8 C15 1_555 1_555
C16 N3 1_555 1_555
C17 N3 1_555 1_555
C18 C17 1_555 1_555
C19 C17 1_555 1_555
C20 C19 1_555 1_555
H9 C20 1_555 1_555
C21 C20 1_555 1_555
H10 C21 1_555 1_555
C22 C21 1_555 1_555
H11 C22 1_555 1_555
C23 C22 1_555 1_555
H12 C23 1_555 1_555
C24 N4 1_555 1_555
O9 C25 1_555 1_555
O10 C28 1_555 1_555
N5 C25 1_555 1_555
N6 C28 1_555 1_555
C25 H13 1_555 1_555
C26 N5 1_555 1_555
H14 C26 1_555 1_555
H15 C26 1_555 1_555
H16 C26 1_555 1_555
C27 N5 1_555 1_555
H17 C27 1_555 1_555
H18 C27 1_555 1_555
H19 C27 1_555 1_555
C28 H20 1_555 1_555
C29 N6 1_555 1_555
H21 C29 1_555 1_555
H22 C29 1_555 1_555
H23 C29 1_555 1_555
C30 N6 1_555 1_555
H24 C30 1_555 1_555
H25 C30 1_555 1_555
H26 C30 1_555 1_555
H27 O7 1_555 1_555
H28 O7 1_555 1_555
H29 O8 1_555 1_555
H30 O8 1_555 1_555
Cd1C O4 1_555 1_555
Cd1C_2 O6 1_555 1_555
O4C Cd1 1_555 1_555
O6C Cd1 1_555 1_555
N4 C2 1_555 1_555
C7 C8 1_555 1_555
C8 C9 1_555 1_555
C11 C16 1_555 1_555
C15 C16 1_555 1_555
C19 C24 1_555 1_555
C23 C24 1_555 1_555

#END
