
#######################################################################
#
#                 Cambridge Crystallographic Data Centre
#                                CCDC 
#
#######################################################################
#
# If this CIF has been generated from an entry in the Cambridge 
# Structural Database, then it will include bibliographic, chemical, 
# crystal, experimental, refinement or atomic coordinate data resulting 
# from the CCDC's data processing and validation procedures.
#
#######################################################################

data_FAKNUC
_symmetry_cell_setting           monoclinic
_symmetry_space_group_name_H-M   'C 2/c'
_symmetry_Int_Tables_number      15
_space_group_name_Hall           '-C 2yn'
loop_
_symmetry_equiv_pos_site_id
_symmetry_equiv_pos_as_xyz
1 x,y,z
2 -x,y,1/2-z
3 1/2+x,1/2+y,z
4 1/2-x,1/2+y,1/2-z
5 -x,-y,-z
6 x,-y,1/2+z
7 1/2-x,1/2-y,-z
8 1/2+x,1/2-y,1/2+z
_cell_length_a                   11.3958(17)
_cell_length_b                   18.9334(17)
_cell_length_c                   22.595(3)
_cell_angle_alpha                90
_cell_angle_beta                 96.522(3)
_cell_angle_gamma                90
_cell_volume                     4843.57
loop_
_atom_site_label
_atom_site_type_symbol
_atom_site_fract_x
_atom_site_fract_y
_atom_site_fract_z
Cd1 Cd 0.45143(4) 1.11268(2) 0.62137(3)
Ni1 Ni 0.38763(6) 0.73906(3) 0.63730(3)
O1 O 0.3894(3) 1.00331(18) 0.63119(19)
O2 O 0.5133(3) 0.9702(2) 0.56683(19)
O3 O 0.0478(3) 0.7174(2) 0.6164(2)
O4 O 0.1497(4) 0.5929(2) 0.6484(2)
O5 O 0.7796(6) 0.6268(3) 0.7155(3)
O6 O 0.7701(4) 0.6612(3) 0.6218(3)
O7 O 0.4262(5) 1.1178(3) 0.5202(3)
H1 H 0.4460 1.0868 0.4961
N1 N 0.4382(3) 0.8338(2) 0.63435(19)
N2 N 0.2346(4) 0.7599(2) 0.6032(2)
N3 N 0.3340(4) 0.6463(2) 0.6468(2)
N4 N 0.5432(4) 0.7187(2) 0.6680(2)
C1 C 0.3857(4) 0.8847(3) 0.6023(2)
C2 C 0.2733(5) 0.8767(3) 0.5646(3)
C3 C 0.1980(5) 0.8178(3) 0.5673(3)
C4 C 0.0899(5) 0.8181(4) 0.5308(3)
H2 H 0.0398 0.7794 0.5315
C5 C 0.0562(6) 0.8734(4) 0.4942(3)
H3 H -0.0162 0.8719 0.4707
C6 C 0.1285(6) 0.9316(4) 0.4917(3)
H4 H 0.1049 0.9697 0.4672
C7 C 0.2351(5) 0.9321(3) 0.5259(3)
H5 H 0.2846 0.9708 0.5234
C8 C 0.1577(5) 0.7123(3) 0.6194(3)
C9 C 0.2154(5) 0.6434(3) 0.6417(3)
C10 C 0.4052(5) 0.5859(3) 0.6547(3)
C11 C 0.5295(5) 0.5916(3) 0.6547(2)
C12 C 0.5961(6) 0.5291(3) 0.6506(3)
H6 H 0.6768 0.5325 0.6482
C13 C 0.5446(6) 0.4643(3) 0.6500(3)
H7 H 0.5896 0.4241 0.6455
C14 C 0.4272(6) 0.4579(3) 0.6559(4)
H8 H 0.3937 0.4134 0.6585
C15 C 0.3581(6) 0.5177(3) 0.6582(4)
H9 H 0.2781 0.5126 0.6621
C16 C 0.7280(6) 0.6493(4) 0.6671(4)
C17 C 0.5940(5) 0.6575(3) 0.6637(2)
C18 C 0.6040(4) 0.7807(3) 0.6899(2)
C19 C 0.5447(4) 0.8441(3) 0.6739(2)
C20 C 0.5882(5) 0.9069(3) 0.6987(3)
H10 H 0.5484 0.9490 0.6889
C21 C 0.6899(5) 0.9078(3) 0.7381(3)
H11 H 0.7183 0.9502 0.7549
C22 C 0.7495(6) 0.8457(4) 0.7524(3)
H12 H 0.8198 0.8466 0.7777
C23 C 0.7059(5) 0.7821(3) 0.7296(3)
H13 H 0.7450 0.7403 0.7408
C24 C 0.4368(5) 0.9592(3) 0.6002(3)
C25 C 0.3620(7) 1.1723(4) 0.4853(4)
H14 H 0.4124 1.1926 0.4579
H15 H 0.3404 1.2095 0.5114
C26 C 0.2534(8) 1.1430(6) 0.4510(5)
H16 H 0.2751 1.1086 0.4230
H17 H 0.2099 1.1805 0.4299
H18 H 0.2051 1.1211 0.4779
Cd1B Cd -0.04857(4) 0.61268(2) 0.62137(3)
Cd1B_2 Cd 0.95143(4) 0.61268(2) 0.62137(3)
O3B O 0.5478(3) 1.2174(2) 0.6164(2)
O4B O 0.6497(4) 1.0929(2) 0.6484(2)
O6B O 0.2701(4) 1.1612(3) 0.6218(3)
O8 O 0.0000 0.5932(7) 0.7500
loop_
_geom_bond_atom_site_label_1
_geom_bond_atom_site_label_2
_geom_bond_site_symmetry_1
_geom_bond_site_symmetry_2
Cd1 O1 1_555 1_555
Ni1 N1 1_555 1_555
O1 C24 1_555 1_555
O2 C24 1_555 1_555
O3 C8 1_555 1_555
O4 C9 1_555 1_555
O5 C16 1_555 1_555
O6 C16 1_555 1_555
O7 Cd1 1_555 1_555
H1 O7 1_555 1_555
N1 C1 1_555 1_555
N2 Ni1 1_555 1_555
N3 Ni1 1_555 1_555
N4 Ni1 1_555 1_555
C1 C2 1_555 1_555
C2 C3 1_555 1_555
C3 N2 1_555 1_555
C4 C3 1_555 1_555
H2 C4 1_555 1_555
C5 C4 1_555 1_555
H3 C5 1_555 1_555
C6 C5 1_555 1_555
H4 C6 1_555 1_555
C7 C2 1_555 1_555
H5 C7 1_555 1_555
C8 N2 1_555 1_555
C9 N3 1_555 1_555
C10 N3 1_555 1_555
C11 C10 1_555 1_555
C12 C11 1_555 1_555
H6 C12 1_555 1_555
C13 C12 1_555 1_555
H7 C13 1_555 1_555
C14 C13 1_555 1_555
H8 C14 1_555 1_555
C15 C10 1_555 1_555
H9 C15 1_555 1_555
C16 C17 1_555 1_555
C17 N4 1_555 1_555
C18 N4 1_555 1_555
C19 N1 1_555 1_555
C20 C19 1_555 1_555
H10 C20 1_555 1_555
C21 C20 1_555 1_555
H11 C21 1_555 1_555
C22 C21 1_555 1_555
H12 C22 1_555 1_555
C23 C18 1_555 1_555
H13 C23 1_555 1_555
C24 C1 1_555 1_555
C25 O7 1_555 1_555
H14 C25 1_555 1_555
H15 C25 1_555 1_555
C26 C25 1_555 1_555
H16 C26 1_555 1_555
H17 C26 1_555 1_555
H18 C26 1_555 1_555
Cd1B O3 1_555 1_555
Cd1B_2 O6 1_555 1_555
O3B Cd1 1_555 1_555
O4B Cd1 1_555 1_555
O6B Cd1 1_555 1_555
O4 Cd1B 1_555 1_555
C6 C7 1_555 1_555
C8 C9 1_555 1_555
C11 C17 1_555 1_555
C14 C15 1_555 1_555
C18 C19 1_555 1_555
C22 C23 1_555 1_555

#END
