
#######################################################################
#
#                 Cambridge Crystallographic Data Centre
#                                CCDC 
#
#######################################################################
#
# If this CIF has been generated from an entry in the Cambridge 
# Structural Database, then it will include bibliographic, chemical, 
# crystal, experimental, refinement or atomic coordinate data resulting 
# from the CCDC's data processing and validation procedures.
#
#######################################################################

data_FAKPEO
_symmetry_cell_setting           monoclinic
_symmetry_space_group_name_H-M   'C 2/c'
_symmetry_Int_Tables_number      15
_space_group_name_Hall           '-C 2yn'
loop_
_symmetry_equiv_pos_site_id
_symmetry_equiv_pos_as_xyz
1 x,y,z
2 -x,y,1/2-z
3 1/2+x,1/2+y,z
4 1/2-x,1/2+y,1/2-z
5 -x,-y,-z
6 x,-y,1/2+z
7 1/2-x,1/2-y,-z
8 1/2+x,1/2-y,1/2+z
_cell_length_a                   25.317(12)
_cell_length_b                   9.877(5)
_cell_length_c                   26.864(12)
_cell_angle_alpha                90
_cell_angle_beta                 104.382(16)
_cell_angle_gamma                90
_cell_volume                     6506.99
loop_
_atom_site_label
_atom_site_type_symbol
_atom_site_fract_x
_atom_site_fract_y
_atom_site_fract_z
Ag1 Ag 0.65537(2) 0.92401(6) 0.66775(2)
Ag2 Ag 0.88491(2) 1.16003(7) 0.62867(2)
C1 C 0.8210(3) 1.1470(8) 0.3884(3)
C2 C 0.8582(3) 1.2422(8) 0.3856(3)
H1 H 0.8621 1.3190 0.4075
C3 C 0.8904(3) 1.2309(8) 0.3518(3)
H2 H 0.9162 1.3001 0.3508
C4 C 0.8865(3) 1.1236(9) 0.3197(3)
C5 C 0.8504(4) 1.0263(13) 0.3239(4)
H3 H 0.8474 0.9474 0.3031
C6 C 0.8177(5) 1.0402(12) 0.3582(4)
H4 H 0.7922 0.9709 0.3599
C7 C 0.7807(3) 1.1653(9) 0.4211(3)
H5 H 0.7508 1.2249 0.4027
H6 H 0.7647 1.0762 0.4257
C8 C 0.8050(3) 1.3553(9) 0.4841(3)
H7 H 0.7892 1.4275 0.4621
C9 C 0.8317(3) 1.3655(9) 0.5339(3)
H8 H 0.8379 1.4470 0.5533
C10 C 0.8320(3) 1.1541(8) 0.5129(3)
C11 C 0.8424(4) 1.0084(10) 0.5139(4)
H9 H 0.8608 0.9807 0.5490
H10 H 0.8657 0.9871 0.4908
H11 H 0.8078 0.9596 0.5028
C12 C 0.9187(3) 1.1153(9) 0.2801(3)
H12 H 0.9033 1.0432 0.2552
H13 H 0.9156 1.2021 0.2612
C13 C 1.0164(4) 1.1862(9) 0.3186(4)
H14 H 1.0117 1.2814 0.3147
C14 C 1.0606(4) 1.1249(9) 0.3392(3)
H15 H 1.0943 1.1684 0.3542
C15 C 1.0016(3) 0.9723(10) 0.3162(3)
C16 C 0.9734(5) 0.8397(11) 0.3060(5)
H16 H 0.9996 0.7701 0.3018
H17 H 0.9440 0.8457 0.2746
H18 H 0.9581 0.8158 0.3350
C17 C 0.4944(4) 0.5661(8) 0.5432(3)
H19 H 0.4911 0.6103 0.5737
C18 C 0.4919(3) 0.6409(7) 0.4995(3)
C19 C 0.5018(4) 0.4270(8) 0.5435(3)
H20 H 0.5024 0.3773 0.5739
C20 C 0.4829(3) 0.7911(8) 0.4986(3)
H21 H 0.4958 0.8307 0.4699
H22 H 0.4434 0.8095 0.4921
C21 C 0.4865(3) 0.9102(7) 0.5824(3)
H23 H 0.4484 0.9180 0.5795
C22 C 0.5268(3) 0.9485(7) 0.6222(3)
H24 H 0.5220 0.9899 0.6527
C23 C 0.5650(3) 0.8647(7) 0.5659(3)
C24 C 0.6058(4) 0.8194(10) 0.5387(4)
H25 H 0.6406 0.8645 0.5535
H26 H 0.5933 0.8425 0.5022
H27 H 0.6105 0.7211 0.5424
C25 C 0.7351(3) 1.2276(7) 0.7905(3)
H28 H 0.7275 1.2574 0.8216
C26 C 0.7003(3) 1.1390(6) 0.7592(3)
H29 H 0.6672 1.1150 0.7675
C27 C 0.7569(3) 1.1239(6) 0.7052(3)
C28 C 0.7895(2) 1.2276(6) 0.7338(2)
C29 C 0.7737(3) 1.0414(7) 0.6640(3)
C30 C 0.8352(3) 1.2990(7) 0.7164(3)
N1 N 0.8048(2) 1.2231(7) 0.4713(2)
N2 N 0.8484(2) 1.2387(7) 0.5522(2)
N3 N 0.9756(3) 1.0868(8) 0.3027(3)
N4 N 1.0528(3) 0.9834(8) 0.3367(3)
N5 N 0.5111(2) 0.8571(6) 0.5464(2)
N6 N 0.5762(2) 0.9185(6) 0.6122(2)
N7 N 0.7117(2) 1.0863(5) 0.7182(2)
N8 N 0.7800(2) 1.2729(5) 0.7772(2)
O1 O 0.7369(2) 0.9981(5) 0.6283(2)
O3 O 0.8231(2) 1.0189(5) 0.6716(2)
O5 O 0.82771(19) 1.3166(5) 0.66937(18)
O6 O 0.87450(19) 1.3366(5) 0.75126(19)
Ag1D Ag 0.34463(2) 0.07599(6) 0.33225(2)
Ag1C Ag 0.84463(2) 1.42401(6) 0.83225(2)
Ag1C_2 Ag 0.84463(2) 0.42401(6) 0.83225(2)
Ag2C Ag 0.61509(2) 0.66003(7) 0.87133(2)
Ag2D Ag 1.11509(2) 0.83997(7) 0.37133(2)
C1D C 1.1790(3) 0.8530(8) 0.6116(3)
C2D C 1.1418(3) 0.7578(8) 0.6144(3)
H1D H 1.1379 0.6810 0.5925
C3D C 1.1096(3) 0.7691(8) 0.6482(3)
H2D H 1.0838 0.6999 0.6492
C4D C 1.1135(3) 0.8764(9) 0.6803(3)
C5D C 1.1496(4) 0.9737(13) 0.6761(4)
H3D H 1.1526 1.0526 0.6969
C6D C 1.1823(5) 0.9598(12) 0.6418(4)
H4D H 1.2078 1.0291 0.6401
C7D C 1.2193(3) 0.8347(9) 0.5789(3)
H5D H 1.2492 0.7751 0.5973
H6D H 1.2353 0.9238 0.5743
C8D C 1.1950(3) 0.6447(9) 0.5159(3)
H7D H 1.2108 0.5725 0.5379
C9D C 1.1683(3) 0.6345(9) 0.4661(3)
H8D H 1.1621 0.5530 0.4467
C10D C 1.1680(3) 0.8459(8) 0.4871(3)
C11D C 1.1576(4) 0.9916(10) 0.4861(4)
H9D H 1.1392 1.0193 0.4510
H10D H 1.1343 1.0129 0.5092
H11D H 1.1922 1.0404 0.4972
C12D C 1.0813(3) 0.8847(9) 0.7199(3)
H12D H 1.0967 0.9568 0.7448
H13D H 1.0844 0.7979 0.7388
C13D C 0.9836(4) 0.8138(9) 0.6814(4)
H14D H 0.9883 0.7186 0.6853
C14D C 0.9394(4) 0.8751(9) 0.6608(3)
H15D H 0.9057 0.8316 0.6458
C15D C 0.9984(3) 1.0277(10) 0.6838(3)
C16D C 1.0266(5) 1.1603(11) 0.6940(5)
H16D H 1.0004 1.2299 0.6982
H17D H 1.0560 1.1543 0.7254
H18D H 1.0419 1.1842 0.6650
C17D C 0.5056(4) 0.4339(8) 0.4568(3)
H19D H 0.5089 0.3897 0.4263
C18D C 0.5081(3) 0.3591(7) 0.5005(3)
C19D C 0.4982(4) 0.5730(8) 0.4565(3)
H20D H 0.4976 0.6227 0.4261
C20D C 0.5171(3) 0.2089(8) 0.5014(3)
H21D H 0.5042 0.1693 0.5301
H22D H 0.5566 0.1905 0.5079
C21D C 0.5135(3) 0.0898(7) 0.4176(3)
H23D H 0.5516 0.0820 0.4205
C22D C 0.4732(3) 0.0515(7) 0.3778(3)
H24D H 0.4780 0.0101 0.3473
C23D C 0.4350(3) 0.1353(7) 0.4341(3)
C24D C 0.3942(4) 0.1806(10) 0.4613(4)
H25D H 0.3594 0.1355 0.4465
H26D H 0.4067 0.1575 0.4978
H27D H 0.3895 0.2789 0.4576
C25C C 0.7649(3) 0.7276(7) 0.7095(3)
H28C H 0.7725 0.7574 0.6784
C26C C 0.7997(3) 0.6390(6) 0.7408(3)
H29C H 0.8328 0.6150 0.7325
C27C C 0.7431(3) 0.6239(6) 0.7948(3)
C28C C 0.7105(2) 0.7276(6) 0.7662(2)
C29C C 0.7263(3) 0.5414(7) 0.8360(3)
C30C C 0.6648(3) 0.7990(7) 0.7836(3)
N1D N 1.1952(2) 0.7769(7) 0.5287(2)
N2D N 1.1516(2) 0.7613(7) 0.4478(2)
N2C N 0.6516(2) 0.7387(7) 0.9478(2)
N3D N 1.0244(3) 0.9132(8) 0.6973(3)
N4D N 0.9472(3) 1.0166(8) 0.6633(3)
N4G N 0.5528(3) 0.5166(8) 0.8367(3)
N5D N 0.4889(2) 0.1429(6) 0.4536(2)
N6D N 0.4238(2) 0.0815(6) 0.3878(2)
N7C N 0.7883(2) 0.5863(5) 0.7818(2)
N7D N 0.2883(2) -0.0863(5) 0.2818(2)
N8C N 0.7200(2) 0.7729(5) 0.7228(2)
N8G N 0.2800(2) 0.2271(5) 0.2772(2)
O1C O 0.7631(2) 0.4981(5) 0.8717(2)
O1D O 0.2631(2) 0.0019(5) 0.3717(2)
O3C O 0.6769(2) 0.5189(5) 0.8284(2)
O5C O 0.67229(19) 0.8166(5) 0.83063(18)
O6C O 0.62550(19) 0.8366(5) 0.74874(19)
O6G O 0.37450(19) 0.1634(5) 0.25126(19)
O2 O 0.5549(2) 1.0351(6) 0.7597(3)
H30 H 0.5722 0.9717 0.7493
H31 H 0.5717 1.0545 0.7903
O4 O 0.6255(4) 1.0514(8) 0.8576(3)
H32 H 0.6495 1.1092 0.8715
H33 H 0.6416 0.9816 0.8500
O7 O 0.6978(7) 1.2661(15) 0.9023(6)
O8? O 0.7640(11) 1.280(3) 0.9743(10)
loop_
_geom_bond_atom_site_label_1
_geom_bond_atom_site_label_2
_geom_bond_site_symmetry_1
_geom_bond_site_symmetry_2
Ag1 N6 1_555 1_555
Ag2 N2 1_555 1_555
C1 C2 1_555 1_555
C2 H1 1_555 1_555
C3 C2 1_555 1_555
H2 C3 1_555 1_555
C4 C3 1_555 1_555
C5 C4 1_555 1_555
H3 C5 1_555 1_555
C6 C1 1_555 1_555
H4 C6 1_555 1_555
C7 C1 1_555 1_555
H5 C7 1_555 1_555
H6 C7 1_555 1_555
C8 H7 1_555 1_555
C9 C8 1_555 1_555
H8 C9 1_555 1_555
C10 C11 1_555 1_555
C11 H9 1_555 1_555
H10 C11 1_555 1_555
H11 C11 1_555 1_555
C12 C4 1_555 1_555
H12 C12 1_555 1_555
H13 C12 1_555 1_555
C13 H14 1_555 1_555
C14 C13 1_555 1_555
H15 C14 1_555 1_555
C15 C16 1_555 1_555
C16 H16 1_555 1_555
H17 C16 1_555 1_555
H18 C16 1_555 1_555
C17 H19 1_555 1_555
C18 C17 1_555 1_555
C19 C17 1_555 1_555
H20 C19 1_555 1_555
C20 C18 1_555 1_555
H21 C20 1_555 1_555
H22 C20 1_555 1_555
C21 H23 1_555 1_555
C22 C21 1_555 1_555
H24 C22 1_555 1_555
C23 C24 1_555 1_555
C24 H25 1_555 1_555
H26 C24 1_555 1_555
H27 C24 1_555 1_555
C25 H28 1_555 1_555
C26 C25 1_555 1_555
H29 C26 1_555 1_555
C27 C28 1_555 1_555
C28 C30 1_555 1_555
C29 C27 1_555 1_555
C30 O5 1_555 1_555
N1 C7 1_555 1_555
N2 C9 1_555 1_555
N3 C12 1_555 1_555
N4 C14 1_555 1_555
N5 C20 1_555 1_555
N6 C22 1_555 1_555
N7 Ag1 1_555 1_555
N8 C25 1_555 1_555
O1 Ag1 1_555 1_555
O2 H30 1_555 1_555
H31 O2 1_555 1_555
O3 Ag2 1_555 1_555
O4 H32 1_555 1_555
H33 O4 1_555 1_555
O5 Ag2 1_555 1_555
O6 C30 1_555 1_555
Ag1D N6D 1_555 1_555
Ag1C N8 1_555 1_555
Ag1C_2 N7C 1_555 1_555
Ag2C N2C 1_555 1_555
Ag2D N4 1_555 1_555
C1D C2D 1_555 1_555
C2D H1D 1_555 1_555
C3D C2D 1_555 1_555
H2D C3D 1_555 1_555
C4D C3D 1_555 1_555
C5D C4D 1_555 1_555
H3D C5D 1_555 1_555
C6D C1D 1_555 1_555
H4D C6D 1_555 1_555
C7D C1D 1_555 1_555
H5D C7D 1_555 1_555
H6D C7D 1_555 1_555
C8D H7D 1_555 1_555
C9D C8D 1_555 1_555
H8D C9D 1_555 1_555
C10D C11D 1_555 1_555
C11D H9D 1_555 1_555
H10D C11D 1_555 1_555
H11D C11D 1_555 1_555
C12D C4D 1_555 1_555
H12D C12D 1_555 1_555
H13D C12D 1_555 1_555
C13D H14D 1_555 1_555
C14D C13D 1_555 1_555
H15D C14D 1_555 1_555
C15D C16D 1_555 1_555
C16D H16D 1_555 1_555
H17D C16D 1_555 1_555
H18D C16D 1_555 1_555
C17D H19D 1_555 1_555
C18D C19 1_555 1_555
C19D C18 1_555 1_555
H20D C19D 1_555 1_555
C20D C18D 1_555 1_555
H21D C20D 1_555 1_555
H22D C20D 1_555 1_555
C21D H23D 1_555 1_555
C22D C21D 1_555 1_555
H24D C22D 1_555 1_555
C23D C24D 1_555 1_555
C24D H25D 1_555 1_555
H26D C24D 1_555 1_555
H27D C24D 1_555 1_555
C25C H28C 1_555 1_555
C26C C25C 1_555 1_555
H29C C26C 1_555 1_555
C27C C28C 1_555 1_555
C28C C30C 1_555 1_555
C29C C27C 1_555 1_555
C30C O5C 1_555 1_555
N1D C7D 1_555 1_555
N2D Ag2D 1_555 1_555
N3D C12D 1_555 1_555
N4D Ag2 1_555 1_555
N4G Ag2C 1_555 1_555
N5D C20D 1_555 1_555
N6D C22D 1_555 1_555
N7C C26C 1_555 1_555
N7D Ag1D 1_555 1_555
N8C Ag1 1_555 1_555
N8G Ag1D 1_555 1_555
O1C Ag1C_2 1_555 1_555
O1D Ag1D 1_555 1_555
O3C Ag2C 1_555 1_555
O5C Ag2C 1_555 1_555
O6C Ag1 1_555 1_555
O6G Ag1D 1_555 1_555
C5 C6 1_555 1_555
C8 N1 1_555 1_555
C10 N1 1_555 1_555
C10 N2 1_555 1_555
C13 N3 1_555 1_555
C15 N3 1_555 1_555
C15 N4 1_555 1_555
C21 N5 1_555 1_555
C23 N5 1_555 1_555
C23 N6 1_555 1_555
C26 N7 1_555 1_555
C27 N7 1_555 1_555
C28 N8 1_555 1_555
C29 O1 1_555 1_555
C29 O3 1_555 1_555
O6 Ag1C 1_555 1_555
C5D C6D 1_555 1_555
C8D N1D 1_555 1_555
C9D N2D 1_555 1_555
C10D N1D 1_555 1_555
C10D N2D 1_555 1_555
C13D N3D 1_555 1_555
C14D N4D 1_555 1_555
C15D N3D 1_555 1_555
C15D N4D 1_555 1_555
C17D C18D 1_555 1_555
C17D C19D 1_555 1_555
C21D N5D 1_555 1_555
C23D N5D 1_555 1_555
C23D N6D 1_555 1_555
C25C N8C 1_555 1_555
C27C N7C 1_555 1_555
C28C N8C 1_555 1_555
C29C O1C 1_555 1_555
C29C O3C 1_555 1_555
C30C O6C 1_555 1_555

#END
