
#######################################################################
#
#                 Cambridge Crystallographic Data Centre
#                                CCDC 
#
#######################################################################
#
# If this CIF has been generated from an entry in the Cambridge 
# Structural Database, then it will include bibliographic, chemical, 
# crystal, experimental, refinement or atomic coordinate data resulting 
# from the CCDC's data processing and validation procedures.
#
#######################################################################

data_FAKQEN02
_symmetry_cell_setting           monoclinic
_symmetry_space_group_name_H-M   'C c'
_symmetry_Int_Tables_number      9
_space_group_name_Hall           'C -2yc'
loop_
_symmetry_equiv_pos_site_id
_symmetry_equiv_pos_as_xyz
1 x,y,z
2 x,-y,1/2+z
3 1/2+x,1/2+y,z
4 1/2+x,1/2-y,1/2+z
_cell_length_a                   10.244(1)
_cell_length_b                   19.886(3)
_cell_length_c                   7.505(1)
_cell_angle_alpha                90
_cell_angle_beta                 100.390(9)
_cell_angle_gamma                90
_cell_volume                     1503.79
loop_
_atom_site_label
_atom_site_type_symbol
_atom_site_fract_x
_atom_site_fract_y
_atom_site_fract_z
Cu1 Cu 0.59477(4) 0.228980(16) 0.52465(4)
S1 S 0.26337(8) 0.14669(4) 0.56673(11)
O1 O 0.5970(3) 0.22332(14) 0.2640(4)
O2 O 0.5649(3) 0.21738(14) 0.7767(4)
O3 O 0.7900(3) 0.27810(12) 0.6064(4)
O4 O 0.3557(2) 0.16928(12) 0.4497(3)
O5 O 0.2351(3) 0.07467(11) 0.5415(4)
O6 O 0.1367(2) 0.18453(12) 0.5227(4)
O7 O 0.3246(2) 0.16011(13) 0.7575(3)
N1 N 0.5018(3) 0.32135(14) 0.5056(4)
N2 N 0.1875(3) 0.63807(13) 0.5417(4)
C1 C 0.5653(4) 0.37809(18) 0.4851(8)
H1 H 0.6517 0.3755 0.4634
C2 C 0.5091(4) 0.44096(19) 0.4946(7)
H2 H 0.5588 0.4793 0.4832
C3 C 0.3795(3) 0.44706(16) 0.5210(5)
C4 C 0.3136(4) 0.38759(18) 0.5323(7)
H3 H 0.2250 0.3883 0.5454
C5 C 0.3767(4) 0.32704(19) 0.5246(7)
H4 H 0.3287 0.2879 0.5331
C6 C 0.1295(4) 0.58109(17) 0.5697(5)
H5 H 0.0434 0.5830 0.5931
C7 C 0.1874(4) 0.51892(17) 0.5666(6)
H6 H 0.1408 0.4805 0.5881
C8 C 0.3155(3) 0.51335(16) 0.5316(5)
C9 C 0.3788(4) 0.57329(18) 0.5070(6)
H7 H 0.4656 0.5728 0.4860
C10 C 0.3134(4) 0.63403(18) 0.5136(6)
H8 H 0.3584 0.6736 0.4979
H9 H 0.555(4) 0.1912(14) 0.218(5)
H10 H 0.631(6) 0.250(3) 0.204(8)
H11 H 0.580(4) 0.2499(14) 0.844(5)
H12 H 0.4903(19) 0.2023(19) 0.774(6)
H13 H 0.809(4) 0.2943(17) 0.708(2)
H14 H 0.807(5) 0.3030(16) 0.528(3)
N2B N 0.6875(3) 0.13807(13) 0.5417(4)
Cu1B Cu 0.09477(4) 0.728980(16) 0.52465(4)
O8 O 0.4792(3) 0.10842(14) 0.0979(4)
H15 H 0.447(3) 0.0809(14) 0.160(4)
H16 H 0.453(5) 0.100(2) -0.0100(16)
O9 O 0.3750(3) 0.01041(19) 0.2984(5)
H17 H 0.335(4) 0.028(2) 0.373(5)
H18 H 0.322(4) -0.013(3) 0.228(6)
loop_
_geom_bond_atom_site_label_1
_geom_bond_atom_site_label_2
_geom_bond_site_symmetry_1
_geom_bond_site_symmetry_2
Cu1 O1 1_555 1_555
S1 O4 1_555 1_555
O1 H9 1_555 1_555
O2 Cu1 1_555 1_555
O3 Cu1 1_555 1_555
O4 Cu1 1_555 1_555
O5 S1 1_555 1_555
O6 S1 1_555 1_555
O7 S1 1_555 1_555
N1 Cu1 1_555 1_555
N2 C6 1_555 1_555
C1 N1 1_555 1_555
H1 C1 1_555 1_555
C2 C1 1_555 1_555
H2 C2 1_555 1_555
C3 C2 1_555 1_555
C4 C3 1_555 1_555
H3 C4 1_555 1_555
C5 N1 1_555 1_555
H4 C5 1_555 1_555
C6 H5 1_555 1_555
C7 C6 1_555 1_555
H6 C7 1_555 1_555
C8 C3 1_555 1_555
C9 C8 1_555 1_555
H7 C9 1_555 1_555
C10 N2 1_555 1_555
H8 C10 1_555 1_555
H10 O1 1_555 1_555
H11 O2 1_555 1_555
H12 O2 1_555 1_555
H13 O3 1_555 1_555
H14 O3 1_555 1_555
O8 H15 1_555 1_555
H16 O8 1_555 1_555
O9 H17 1_555 1_555
H18 O9 1_555 1_555
N2B Cu1 1_555 1_555
Cu1B N2 1_555 1_555
C4 C5 1_555 1_555
C7 C8 1_555 1_555
C9 C10 1_555 1_555

#END
