
#######################################################################
#
#                 Cambridge Crystallographic Data Centre
#                                CCDC 
#
#######################################################################
#
# If this CIF has been generated from an entry in the Cambridge 
# Structural Database, then it will include bibliographic, chemical, 
# crystal, experimental, refinement or atomic coordinate data resulting 
# from the CCDC's data processing and validation procedures.
#
#######################################################################

data_FAKQEN01
_symmetry_cell_setting           hexagonal
_symmetry_space_group_name_H-M   'P 61'
_symmetry_Int_Tables_number      169
_space_group_name_Hall           'P 61'
loop_
_symmetry_equiv_pos_site_id
_symmetry_equiv_pos_as_xyz
1 x,y,z
2 -y,x-y,1/3+z
3 -x+y,-x,2/3+z
4 -x,-y,1/2+z
5 y,-x+y,5/6+z
6 x-y,x,1/6+z
_cell_length_a                   11.1870(4)
_cell_length_b                   11.1870(4)
_cell_length_c                   21.5775(10)
_cell_angle_alpha                90
_cell_angle_beta                 90
_cell_angle_gamma                120
_cell_volume                     2338.62
loop_
_atom_site_label
_atom_site_type_symbol
_atom_site_fract_x
_atom_site_fract_y
_atom_site_fract_z
Cu1 Cu 0.00150(5) 0.42733(4) 0.04860(3)
S1 S -0.39102(11) 0.23236(10) 0.02867(4)
O1 O -0.4722(3) 0.0841(3) 0.03835(15)
O2 O -0.4787(3) 0.2918(3) 0.04227(16)
O3 O -0.3425(3) 0.2621(3) -0.03588(12)
O4 O -0.2702(3) 0.2927(3) 0.07010(12)
O5 O -0.0607(3) 0.3818(3) -0.03767(13)
H1 H -0.1401 0.3621 -0.0462
H2 H -0.0006 0.4394 -0.0620
O6 O 0.0090(3) 0.4418(3) 0.14026(14)
H3 H -0.0274 0.4994 0.1521
H4 H 0.0807 0.4506 0.1618
O7 O 0.2253(2) 0.5377(3) 0.02743(13)
H5 H 0.2557 0.5533 -0.0141
H6 H 0.2935 0.5809 0.0540
N1 N 0.0041(3) 0.2462(3) 0.05496(18)
N2 N 0.0048(3) -0.3876(3) 0.0447(2)
C1 C 0.1220(4) 0.2426(4) 0.0560(2)
H7 H 0.2076 0.3283 0.0587
C2 C 0.1270(4) 0.1222(4) 0.0541(3)
H8 H 0.2147 0.1259 0.0542
C3 C 0.0063(5) -0.0037(4) 0.0506(3)
C4 C -0.1149(5) 0.0004(4) 0.0517(3)
H9 H -0.2016 -0.0844 0.0500
C5 C -0.1122(4) 0.1251(4) 0.0533(3)
H10 H -0.1983 0.1244 0.0551
C6 C -0.1107(4) -0.3832(4) 0.0436(3)
H11 H -0.1969 -0.4674 0.0384
C7 C -0.1115(5) -0.2599(4) 0.0453(4)
H12 H -0.1979 -0.2615 0.0470
C8 C 0.0058(4) -0.1376(4) 0.0479(3)
C9 C 0.1246(5) -0.1427(5) 0.0489(5)
H13 H 0.2118 -0.0592 0.0519
C10 C 0.1195(5) -0.2690(4) 0.0465(4)
H14 H 0.2051 -0.2694 0.0475
N2_2 N 0.0048(3) 0.6124(3) 0.0447(2)
Cu1_2 Cu 0.00150(5) -0.57267(4) 0.04860(3)
O8 O -0.1203(3) 0.5659(3) 0.19400(14)
H15 H -0.1367 0.5235 0.2276
H16 H -0.1953 0.5421 0.1660
O9 O -0.3727(4) 0.4838(4) 0.14204(18)
H17 H -0.3793 0.4443 0.1089
H18 H -0.4525 0.4771 0.1616
loop_
_geom_bond_atom_site_label_1
_geom_bond_atom_site_label_2
_geom_bond_site_symmetry_1
_geom_bond_site_symmetry_2
Cu1 O4 1_555 1_555
S1 O1 1_555 1_555
O2 S1 1_555 1_555
O3 S1 1_555 1_555
O4 S1 1_555 1_555
O5 Cu1 1_555 1_555
H1 O5 1_555 1_555
H2 O5 1_555 1_555
O6 Cu1 1_555 1_555
H3 O6 1_555 1_555
H4 O6 1_555 1_555
O7 Cu1 1_555 1_555
H5 O7 1_555 1_555
H6 O7 1_555 1_555
N1 Cu1 1_555 1_555
N2 C6 1_555 1_555
C1 N1 1_555 1_555
H7 C1 1_555 1_555
C2 C1 1_555 1_555
H8 C2 1_555 1_555
C3 C2 1_555 1_555
C4 C3 1_555 1_555
H9 C4 1_555 1_555
C5 N1 1_555 1_555
H10 C5 1_555 1_555
C6 H11 1_555 1_555
C7 C6 1_555 1_555
H12 C7 1_555 1_555
C8 C3 1_555 1_555
C9 C8 1_555 1_555
H13 C9 1_555 1_555
C10 N2 1_555 1_555
H14 C10 1_555 1_555
O8 H15 1_555 1_555
H16 O8 1_555 1_555
O9 H17 1_555 1_555
H18 O9 1_555 1_555
N2_2 Cu1 1_555 1_555
Cu1_2 N2 1_555 1_555
C4 C5 1_555 1_555
C7 C8 1_555 1_555
C9 C10 1_555 1_555

#END
