
#######################################################################
#
#                 Cambridge Crystallographic Data Centre
#                                CCDC 
#
#######################################################################
#
# If this CIF has been generated from an entry in the Cambridge 
# Structural Database, then it will include bibliographic, chemical, 
# crystal, experimental, refinement or atomic coordinate data resulting 
# from the CCDC's data processing and validation procedures.
#
#######################################################################

data_FAKQIR
_symmetry_cell_setting           monoclinic
_symmetry_space_group_name_H-M   'C 2/c'
_symmetry_Int_Tables_number      15
_space_group_name_Hall           '-C 2yn'
loop_
_symmetry_equiv_pos_site_id
_symmetry_equiv_pos_as_xyz
1 x,y,z
2 -x,y,1/2-z
3 1/2+x,1/2+y,z
4 1/2-x,1/2+y,1/2-z
5 -x,-y,-z
6 x,-y,1/2+z
7 1/2-x,1/2-y,-z
8 1/2+x,1/2-y,1/2+z
_cell_length_a                   22.9863(1)
_cell_length_b                   13.4707(1)
_cell_length_c                   13.4902(1)
_cell_angle_alpha                90
_cell_angle_beta                 106.030(1)
_cell_angle_gamma                90
_cell_volume                     4014.71
loop_
_atom_site_label
_atom_site_type_symbol
_atom_site_fract_x
_atom_site_fract_y
_atom_site_fract_z
O6 O 0.0820(2) 0.2482(3) -0.0002(3)
H15 H 0.0588(46) 0.2990(81) 0.0431(81)
H16 H 0.0932(24) 0.2833(40) -0.0323(42)
Cu1 Cu 0.0000 0.4269(1) 0.2500
Cu2 Cu 0.2500 0.2500 0.5000
S1 S 0.1228(1) 0.4630(1) 0.4344(1)
O1 O 0.0879(1) 0.4236(2) 0.3313(2)
O2 O 0.0893(1) 0.4394(2) 0.5112(2)
O3 O 0.1814(1) 0.4112(2) 0.4632(2)
O4 O 0.1308(1) 0.5696(2) 0.4283(2)
O5 O 0.0312(1) 0.4083(2) 0.0916(2)
N1 N 0.0000 0.5754(2) 0.2500
N2 N 0.0000 0.2764(2) 0.2500
N3 N 0.3204(1) 0.3396(2) 0.5060(2)
N4 N 0.2419(1) 0.2343(2) 0.3455(2)
C1 C -0.0444(2) 0.6271(3) 0.2726(3)
C2 C -0.0448(3) 0.7303(3) 0.2728(3)
C3 C 0.0000 0.7846(4) 0.2500
C4 C 0.0476(2) 0.2248(2) 0.2386(2)
C5 C 0.0500(3) 0.1216(3) 0.2375(3)
C6 C 0.0000 0.0650(8) 0.2500
C7 C 0.0220(3) -0.0410(5) 0.2471(5)
C8 C 0.0212(3) 0.8931(5) 0.2447(6)
C9 C 0.3184(1) 0.4393(2) 0.5114(2)
C10 C 0.3670(1) 0.4985(2) 0.5084(2)
C11 C 0.4208(1) 0.4555(2) 0.5004(2)
C12 C 0.4220(1) 0.3523(3) 0.4944(3)
C13 C 0.3719(2) 0.2982(3) 0.4970(3)
C14 C 0.4731(1) 0.5177(2) 0.5000(2)
C15 C 0.2597(5) 0.2132(7) 0.0386(8)
C16 C 0.2146(2) 0.3054(3) 0.2791(3)
C17 C 0.2165(2) 0.3069(4) 0.1768(3)
C18 C 0.2475(2) 0.2332(4) 0.1400(3)
C19 C 0.2741(2) 0.1602(4) 0.2088(3)
C20 C 0.2707(2) 0.1625(3) 0.3091(3)
H1 H -0.0758(2) 0.5930(3) 0.2887(3)
H2 H -0.0766(3) 0.7633(3) 0.2889(3)
H3 H 0.0809(2) 0.2600(2) 0.2309(2)
H4 H 0.2831(1) 0.4694(2) 0.5175(2)
H5 H 0.3638(1) 0.5672(2) 0.5117(2)
H6 H 0.4567(1) 0.3201(3) 0.4886(3)
H7 H 0.3737(2) 0.2294(3) 0.4924(3)
H8 H 0.4682(1) 0.5862(2) 0.4996(2)
H9 H 0.1938(2) 0.3555(3) 0.3022(3)
H10 H 0.1970(2) 0.3573(4) 0.1329(3)
H11 H 0.2945(2) 0.1085(4) 0.1873(3)
H12 H 0.2894(2) 0.1120(3) 0.3536(3)
H13 H -0.0043(22) 0.4155(34) 0.0532(37)
H14 H 0.0524(20) 0.4455(34) 0.0715(33)
O1A O -0.0879(1) 0.4236(2) 0.1687(2)
O5A O -0.0312(1) 0.4083(2) 0.4084(2)
O3F O 0.3186(1) 0.0888(2) 0.5368(2)
N3F N 0.1796(1) 0.1604(2) 0.4940(2)
N4F N 0.2581(1) 0.2657(2) 0.6545(2)
C1A C 0.0444(2) 0.6271(3) 0.2274(3)
C4A C -0.0476(2) 0.2248(2) 0.2614(2)
C8A C -0.0212(3) 0.8931(5) 0.2553(6)
C2A C 0.0448(3) 0.7303(3) 0.2272(3)
C7A C -0.0220(3) -0.0410(5) 0.2529(5)
C5A C -0.0500(3) 0.1216(3) 0.2625(3)
C8_2 C 0.0212(3) -0.1069(5) 0.2447(6)
C8A_2 C -0.0212(3) -0.1069(5) 0.2553(6)
C7_2 C 0.0220(3) 0.9590(5) 0.2471(5)
C7A_2 C -0.0220(3) 0.9590(5) 0.2529(5)
C14D C 0.5269(1) 0.4823(2) 0.5000(2)
C15F C 0.2403(5) 0.2868(7) -0.0386(8)
loop_
_geom_bond_atom_site_label_1
_geom_bond_atom_site_label_2
_geom_bond_site_symmetry_1
_geom_bond_site_symmetry_2
Cu1 O1 1_555 1_555
Cu2 O3 1_555 1_555
S1 O1 1_555 1_555
O2 S1 1_555 1_555
O3 S1 1_555 1_555
O4 S1 1_555 1_555
O5 Cu1 1_555 1_555
O6 H15 1_555 1_555
N1 Cu1 1_555 1_555
N2 Cu1 1_555 1_555
N3 Cu2 1_555 1_555
N4 Cu2 1_555 1_555
C1 N1 1_555 1_555
C2 C1 1_555 1_555
C3 C2 1_555 1_555
C4 N2 1_555 1_555
C5 C4 1_555 1_555
C6 C5 1_555 1_555
C7 C6 1_555 1_555
C8 C3 1_555 1_555
C9 N3 1_555 1_555
C10 C9 1_555 1_555
C11 C10 1_555 1_555
C12 C11 1_555 1_555
C13 N3 1_555 1_555
C14 C11 1_555 1_555
C15 C18 1_555 1_555
C16 N4 1_555 1_555
C17 C16 1_555 1_555
C18 C17 1_555 1_555
C19 C18 1_555 1_555
C20 N4 1_555 1_555
H1 C1 1_555 1_555
H2 C2 1_555 1_555
H3 C4 1_555 1_555
H4 C9 1_555 1_555
H5 C10 1_555 1_555
H6 C12 1_555 1_555
H7 C13 1_555 1_555
H8 C14 1_555 1_555
H9 C16 1_555 1_555
H10 C17 1_555 1_555
H11 C19 1_555 1_555
H12 C20 1_555 1_555
H13 O5 1_555 1_555
H14 O5 1_555 1_555
H16 O6 1_555 1_555
O1A Cu1 1_555 1_555
O5A Cu1 1_555 1_555
O3F Cu2 1_555 1_555
N3F Cu2 1_555 1_555
N4F Cu2 1_555 1_555
C1A N1 1_555 1_555
C4A N2 1_555 1_555
C8A C3 1_555 1_555
C2A C3 1_555 1_555
C7A C6 1_555 1_555
C5A C6 1_555 1_555
C8_2 C7 1_555 1_555
C8A_2 C7 1_555 1_555
C7_2 C8 1_555 1_555
C7A_2 C8 1_555 1_555
C14D C14 1_555 1_555
C15F C15 1_555 1_555
C7 C7A 1_555 1_555
C8 C8A 1_555 1_555
C12 C13 1_555 1_555
C19 C20 1_555 1_555
C1A C2A 1_555 1_555
C4A C5A 1_555 1_555
C8A C7A_2 1_555 1_555
C8A C7_2 1_555 1_555
C7A C8A_2 1_555 1_555
C7A C8_2 1_555 1_555
C8_2 C8A_2 1_555 1_555
C7_2 C7A_2 1_555 1_555

#END
