
#######################################################################
#
#                 Cambridge Crystallographic Data Centre
#                                CCDC 
#
#######################################################################
#
# If this CIF has been generated from an entry in the Cambridge 
# Structural Database, then it will include bibliographic, chemical, 
# crystal, experimental, refinement or atomic coordinate data resulting 
# from the CCDC's data processing and validation procedures.
#
#######################################################################

data_FAKQEN04
_symmetry_cell_setting           hexagonal
_symmetry_space_group_name_H-M   'P 65'
_symmetry_Int_Tables_number      170
_space_group_name_Hall           'P 65'
loop_
_symmetry_equiv_pos_site_id
_symmetry_equiv_pos_as_xyz
1 x,y,z
2 -y,x-y,2/3+z
3 -x+y,-x,1/3+z
4 -x,-y,1/2+z
5 y,-x+y,1/6+z
6 x-y,x,5/6+z
_cell_length_a                   11.2153(5)
_cell_length_b                   11.2153(5)
_cell_length_c                   21.4977(12)
_cell_angle_alpha                90
_cell_angle_beta                 90
_cell_angle_gamma                120
_cell_volume                     2341.77
loop_
_atom_site_label
_atom_site_type_symbol
_atom_site_fract_x
_atom_site_fract_y
_atom_site_fract_z
Cu1 Cu 0.57771(7) 1.00045(7) 0.77060(3)
N1 N 0.3939(5) 0.9984(6) 0.7651(3)
N2 N -0.2412(5) 0.9975(5) 0.7762(2)
O1 O 0.6220(5) 1.0613(5) 0.6822(2)
H1 H 0.6670 1.1487 0.6807
H2 H 0.6702 1.0296 0.6667
O2 O 0.5631(5) 0.9926(5) 0.8628(2)
H3 H 0.6027 1.0739 0.8774
H4 H 0.4787 0.9510 0.8732
O3 O 0.4674(5) 0.7781(5) 0.7492(2)
H5 H 0.5242 0.7489 0.7484
H6 H 0.4070 0.7351 0.7770
C1 C 0.2750(9) 0.8839(9) 0.7664(9)
H7 H 0.2760 0.8015 0.7663
C2 C 0.1475(8) 0.8760(9) 0.7677(9)
H8 H 0.0671 0.7908 0.7681
C3 C 0.1408(6) 0.9956(6) 0.7686(4)
C4 C 0.2675(8) 1.1164(8) 0.7627(7)
H9 H 0.2698 1.2003 0.7601
C5 C 0.3901(8) 1.1144(7) 0.7605(5)
H10 H 0.4723 1.1970 0.7556
C6 C -0.1195(7) 1.1146(7) 0.7761(4)
H11 H -0.1191 1.1975 0.7789
C7 C 0.0050(6) 1.1187(7) 0.7720(4)
H12 H 0.0865 1.2027 0.7695
C8 C 0.0082(7) 0.9970(7) 0.7718(4)
C9 C -0.1177(7) 0.8734(7) 0.7727(4)
H13 H -0.1199 0.7894 0.7716
C10 C -0.2390(7) 0.8777(6) 0.7751(4)
H14 H -0.3222 0.7951 0.7760
S1 S 0.76961(15) 1.39126(15) 0.75039(7)
O4 O 0.7102(4) 1.2694(5) 0.7913(2)
O5 O 0.9186(5) 1.4744(5) 0.7597(2)
O6 O 0.7063(6) 1.4759(6) 0.7640(3)
O7 O 0.7400(5) 1.3433(5) 0.6844(2)
Cu1_2 Cu -0.42229(7) 1.00045(7) 0.77060(3)
N2_2 N 0.7588(5) 0.9975(5) 0.7762(2)
O8 O 0.3158(5) 0.4359(5) 0.7485(2)
H15 H 0.3716 0.4425 0.7201
H16 H 0.3440 0.4240 0.7834
O9 O 0.1452(7) 0.5166(8) 0.6952(3)
H17 H 0.1983 0.4972 0.6749
H18 H 0.1228 0.4723 0.7293
loop_
_geom_bond_atom_site_label_1
_geom_bond_atom_site_label_2
_geom_bond_site_symmetry_1
_geom_bond_site_symmetry_2
Cu1 N1 1_555 1_555
N1 C1 1_555 1_555
N2 C6 1_555 1_555
O1 Cu1 1_555 1_555
H1 O1 1_555 1_555
H2 O1 1_555 1_555
O2 Cu1 1_555 1_555
H3 O2 1_555 1_555
H4 O2 1_555 1_555
O3 Cu1 1_555 1_555
H5 O3 1_555 1_555
H6 O3 1_555 1_555
C1 H7 1_555 1_555
C2 C1 1_555 1_555
H8 C2 1_555 1_555
C3 C2 1_555 1_555
C4 C3 1_555 1_555
H9 C4 1_555 1_555
C5 N1 1_555 1_555
H10 C5 1_555 1_555
C6 H11 1_555 1_555
C7 C6 1_555 1_555
H12 C7 1_555 1_555
C8 C3 1_555 1_555
C9 C8 1_555 1_555
H13 C9 1_555 1_555
C10 N2 1_555 1_555
H14 C10 1_555 1_555
S1 O4 1_555 1_555
O4 Cu1 1_555 1_555
O5 S1 1_555 1_555
O6 S1 1_555 1_555
O7 S1 1_555 1_555
O8 H15 1_555 1_555
H16 O8 1_555 1_555
O9 H17 1_555 1_555
H18 O9 1_555 1_555
Cu1_2 N2 1_555 1_555
N2_2 Cu1 1_555 1_555
C4 C5 1_555 1_555
C7 C8 1_555 1_555
C9 C10 1_555 1_555

#END
