
#######################################################################
#
#                 Cambridge Crystallographic Data Centre
#                                CCDC 
#
#######################################################################
#
# If this CIF has been generated from an entry in the Cambridge 
# Structural Database, then it will include bibliographic, chemical, 
# crystal, experimental, refinement or atomic coordinate data resulting 
# from the CCDC's data processing and validation procedures.
#
#######################################################################

data_FAKRUG
_symmetry_cell_setting           monoclinic
_symmetry_space_group_name_H-M   'P 21/c'
_symmetry_Int_Tables_number      14
_space_group_name_Hall           '-P 2ybc'
loop_
_symmetry_equiv_pos_site_id
_symmetry_equiv_pos_as_xyz
1 x,y,z
2 -x,1/2+y,1/2-z
3 -x,-y,-z
4 x,1/2-y,1/2+z
_cell_length_a                   11.5721(9)
_cell_length_b                   18.1584(10)
_cell_length_c                   13.8460(10)
_cell_angle_alpha                90
_cell_angle_beta                 110.258(6)
_cell_angle_gamma                90
_cell_volume                     2729.5
loop_
_atom_site_label
_atom_site_type_symbol
_atom_site_fract_x
_atom_site_fract_y
_atom_site_fract_z
Zn1 Zn 0.71253(3) 0.174361(17) 0.53838(2)
I1 I 0.934059(16) 0.214075(10) 0.569385(14)
I2 I 0.60583(2) 0.083162(12) 0.395173(15)
N1 N 0.6007(2) 0.26610(14) 0.51208(18)
N2 N 0.3564(2) 0.48537(13) 0.54499(17)
N3 N 0.2870(2) 0.63294(13) 0.82353(17)
C1 C 0.5261(3) 0.28307(17) 0.4170(2)
H1 H 0.5268 0.2527 0.3614
C2 C 0.4476(3) 0.34338(18) 0.3964(2)
H2 H 0.3965 0.3538 0.3276
C3 C 0.4435(2) 0.38831(14) 0.47572(19)
C4 C 0.5228(3) 0.37105(16) 0.5744(2)
H3 H 0.5244 0.4008 0.6313
C5 C 0.5985(3) 0.31081(17) 0.5889(2)
H4 H 0.6522 0.3001 0.6568
C6 C 0.3551(2) 0.45047(14) 0.45933(19)
C7 C 0.2713(3) 0.46818(16) 0.3622(2)
H5 H 0.2751 0.4434 0.3030
C8 C 0.1823(3) 0.52209(16) 0.3520(2)
C9 C 0.1856(3) 0.55797(16) 0.4424(2)
H6 H 0.1277 0.5958 0.4396
C10 C 0.2733(2) 0.53840(15) 0.53625(19)
C11 C 0.3496(3) 0.57166(17) 0.8194(2)
H7 H 0.3978 0.5487 0.8821
C12 C 0.3471(3) 0.54039(17) 0.7277(2)
H8 H 0.3928 0.4968 0.7282
C13 C 0.2777(2) 0.57276(15) 0.6347(2)
C14 C 0.2134(3) 0.63665(16) 0.6393(2)
H9 H 0.1654 0.6610 0.5777
C15 C 0.2198(3) 0.66455(16) 0.7339(2)
H10 H 0.1747 0.7080 0.7356
C16 C 0.0832(3) 0.54152(17) 0.2490(2)
C17 C 0.0876(4) 0.4901(2) 0.1623(2)
H11 H 0.1668 0.4959 0.1521
H12 H 0.0205 0.5027 0.0985
H13 H 0.0783 0.4390 0.1810
C18 C 0.1040(4) 0.62037(18) 0.2201(2)
H14 H 0.0996 0.6542 0.2739
H15 H 0.0405 0.6334 0.1545
H16 H 0.1854 0.6241 0.2135
C19 C -0.0437(3) 0.5354(3) 0.2596(3)
H17 H -0.0555 0.4853 0.2808
H18 H -0.1076 0.5466 0.1933
H19 H -0.0493 0.5705 0.3116
Zn1A Zn 0.28747(3) 0.674361(17) 0.96162(2)
N3A N 0.7130(2) 0.13294(13) 0.67647(17)
Cl1 Cl 0.38775(13) 0.17015(9) 0.62264(10)
Cl2 Cl 0.30078(14) 0.32047(9) 0.68928(9)
C20 C 0.2823(4) 0.2262(3) 0.5343(3)
C21 C 0.2435(4) 0.2899(3) 0.5637(3)
C22 C 0.1584(4) 0.3351(3) 0.4909(4)
H20 H 0.1309 0.3800 0.5108
C23 C 0.1155(4) 0.3120(3) 0.3883(3)
H21 H 0.0579 0.3416 0.3375
C24 C 0.1547(4) 0.2484(3) 0.3606(3)
H22 H 0.1243 0.2336 0.2904
C25 C 0.2388(5) 0.2040(3) 0.4330(3)
H23 H 0.2659 0.1590 0.4129
loop_
_geom_bond_atom_site_label_1
_geom_bond_atom_site_label_2
_geom_bond_site_symmetry_1
_geom_bond_site_symmetry_2
Zn1 I1 1_555 1_555
I2 Zn1 1_555 1_555
N1 Zn1 1_555 1_555
N2 C6 1_555 1_555
N3 C11 1_555 1_555
C1 N1 1_555 1_555
H1 C1 1_555 1_555
C2 C1 1_555 1_555
H2 C2 1_555 1_555
C3 C2 1_555 1_555
C4 C3 1_555 1_555
H3 C4 1_555 1_555
C5 N1 1_555 1_555
H4 C5 1_555 1_555
C6 C3 1_555 1_555
C7 C6 1_555 1_555
H5 C7 1_555 1_555
C8 C7 1_555 1_555
C9 C8 1_555 1_555
H6 C9 1_555 1_555
C10 N2 1_555 1_555
C11 H7 1_555 1_555
C12 C11 1_555 1_555
H8 C12 1_555 1_555
C13 C10 1_555 1_555
C14 C13 1_555 1_555
H9 C14 1_555 1_555
C15 N3 1_555 1_555
H10 C15 1_555 1_555
C16 C8 1_555 1_555
C17 C16 1_555 1_555
H11 C17 1_555 1_555
H12 C17 1_555 1_555
H13 C17 1_555 1_555
C18 C16 1_555 1_555
H14 C18 1_555 1_555
H15 C18 1_555 1_555
H16 C18 1_555 1_555
C19 C16 1_555 1_555
H17 C19 1_555 1_555
H18 C19 1_555 1_555
H19 C19 1_555 1_555
Cl1 C20 1_555 1_555
Cl2 C21 1_555 1_555
C20 C21 1_555 1_555
C21 C22 1_555 1_555
C22 H20 1_555 1_555
C23 C22 1_555 1_555
H21 C23 1_555 1_555
C24 C23 1_555 1_555
H22 C24 1_555 1_555
C25 C20 1_555 1_555
H23 C25 1_555 1_555
Zn1A N3 1_555 1_555
N3A Zn1 1_555 1_555
C4 C5 1_555 1_555
C9 C10 1_555 1_555
C12 C13 1_555 1_555
C14 C15 1_555 1_555
C24 C25 1_555 1_555

#END
