
#######################################################################
#
#                 Cambridge Crystallographic Data Centre
#                                CCDC 
#
#######################################################################
#
# If this CIF has been generated from an entry in the Cambridge 
# Structural Database, then it will include bibliographic, chemical, 
# crystal, experimental, refinement or atomic coordinate data resulting 
# from the CCDC's data processing and validation procedures.
#
#######################################################################

data_FAKRIU
_symmetry_cell_setting           monoclinic
_symmetry_space_group_name_H-M   'C 2'
_symmetry_Int_Tables_number      5
_space_group_name_Hall           'C 2y'
loop_
_symmetry_equiv_pos_site_id
_symmetry_equiv_pos_as_xyz
1 x,y,z
2 -x,y,-z
3 1/2+x,1/2+y,z
4 1/2-x,1/2+y,-z
_cell_length_a                   27.298(4)
_cell_length_b                   10.7049(12)
_cell_length_c                   15.889(3)
_cell_angle_alpha                90
_cell_angle_beta                 122.480(10)
_cell_angle_gamma                90
_cell_volume                     3916.84
loop_
_atom_site_label
_atom_site_type_symbol
_atom_site_fract_x
_atom_site_fract_y
_atom_site_fract_z
Co1 Co 0.500669(12) -0.02601(3) -0.76141(2)
N1 N 0.93906(9) 0.3503(2) -0.22538(16)
N2 N 0.76614(8) 0.0996(2) -0.30230(14)
N3 N 0.56896(8) 0.0143(2) -0.60128(15)
C1 C 0.95611(11) 0.2713(3) -0.1498(2)
H1 H 0.9961 0.2706 -0.0984
C2 C 0.91959(11) 0.1902(3) -0.1408(2)
H2 H 0.9344 0.1365 -0.0847
C3 C 0.86072(10) 0.1887(2) -0.21573(17)
C4 C 0.84225(10) 0.2747(3) -0.29199(18)
H3 H 0.8022 0.2804 -0.3430
C5 C 0.88197(11) 0.3520(3) -0.29384(19)
H4 H 0.8680 0.4102 -0.3471
C6 C 0.81757(10) 0.1029(2) -0.21620(16)
C7 C 0.83017(10) 0.0314(2) -0.13381(17)
H5 H 0.8671 0.0379 -0.0734
C8 C 0.78820(10) -0.0500(2) -0.14057(17)
C9 C 0.73541(10) -0.0557(2) -0.23205(17)
H6 H 0.7061 -0.1121 -0.2411
C10 C 0.72581(10) 0.0210(2) -0.30996(17)
C11 C 0.57616(11) -0.0617(3) -0.52923(19)
H7 H 0.5461 -0.1197 -0.5446
C12 C 0.62507(11) -0.0614(3) -0.43273(18)
H8 H 0.6279 -0.1179 -0.3842
C13 C 0.66985(10) 0.0222(2) -0.40794(17)
C14 C 0.66102(11) 0.1068(2) -0.48067(18)
H9 H 0.6894 0.1688 -0.4662
C15 C 0.61086(11) 0.1005(2) -0.57423(19)
H10 H 0.6055 0.1606 -0.6225
C16 C 0.79915(11) -0.1210(3) -0.04903(19)
C17 C 0.85937(15) -0.1788(4) 0.0061(3)
H11 H 0.8885 -0.1131 0.0249
H12 H 0.8621 -0.2396 -0.0372
H13 H 0.8663 -0.2209 0.0664
C18 C 0.7947(2) -0.0269(5) 0.0194(3)
H14 H 0.8265 0.0337 0.0445
H15 H 0.7973 -0.0712 0.0756
H16 H 0.7574 0.0170 -0.0184
C19 C 0.7551(2) -0.2252(5) -0.0764(3)
H17 H 0.7620 -0.2649 -0.0153
H18 H 0.7592 -0.2874 -0.1174
H19 H 0.7158 -0.1903 -0.1139
N4 N 0.43025(8) -0.0666(2) -0.91898(15)
N5 N 0.22830(8) -0.1569(2) -1.19915(15)
N6 N 0.05781(9) -0.3984(2) -1.25241(17)
C20 C 0.39139(11) -0.1585(2) -0.94239(18)
H20 H 0.4004 -0.2209 -0.8937
C21 C 0.33948(10) -0.1675(2) -1.03246(18)
H21 H 0.3134 -0.2337 -1.0442
C22 C 0.32535(10) -0.0792(2) -1.10634(16)
C23 C 0.36686(11) 0.0104(3) -1.08623(19)
H22 H 0.3606 0.0686 -1.1362
C24 C 0.41782(10) 0.0145(3) -0.9922(2)
H23 H 0.4453 0.0781 -0.9792
C25 C 0.26727(9) -0.0827(2) -1.20103(16)
C26 C 0.25411(10) -0.0121(3) -1.28355(17)
H24 H 0.2830 0.0396 -1.2815
C27 C 0.19865(9) -0.0163(3) -1.36965(15)
C28 C 0.15807(10) -0.0914(3) -1.36591(18)
H25 H 0.1194 -0.0962 -1.4220
C29 C 0.17418(10) -0.1587(2) -1.28050(17)
C30 C 0.03896(11) -0.2943(3) -1.3076(2)
H26 H -0.0010 -0.2739 -1.3393
C31 C 0.07402(11) -0.2141(3) -1.3215(2)
H27 H 0.0580 -0.1432 -1.3636
C32 C 0.13311(10) -0.2402(2) -1.27219(18)
C33 C 0.15345(10) -0.3451(3) -1.21208(18)
H28 H 0.1937 -0.3645 -1.1754
C34 C 0.11476(10) -0.4218(3) -1.20572(19)
H29 H 0.1294 -0.4951 -1.1660
C35 C 0.18535(11) 0.0538(3) -1.46268(19)
C36 C 0.12031(14) 0.0725(5) -1.5351(3)
H30 H 0.1011 -0.0090 -1.5565
H31 H 0.1135 0.1193 -1.5935
H32 H 0.1044 0.1193 -1.5020
C37 C 0.2090(2) -0.0208(5) -1.5140(3)
H33 H 0.1917 -0.1044 -1.5297
H34 H 0.2513 -0.0279 -1.4697
H35 H 0.1995 0.0215 -1.5757
C38 C 0.2136(2) 0.1814(4) -1.4360(3)
H36 H 0.2048 0.2248 -1.4970
H37 H 0.2558 0.1719 -1.3915
H38 H 0.1986 0.2301 -1.4024
N7 N 0.47005(10) -0.1691(2) -0.71580(16)
C39 C 0.44187(12) -0.2380(3) -0.7035(2)
S1 S 0.40007(5) -0.33675(9) -0.69191(8)
N8 N 0.53084(10) 0.1204(2) -0.80442(17)
C40 C 0.55705(15) 0.1986(3) -0.8127(3)
S2 S 0.59763(8) 0.30631(12) -0.81710(16)
Co1C Co -0.000669(12) -0.52601(3) -1.23859(2)
Co1C_2 Co 0.999331(12) 0.47399(3) -0.23859(2)
N1C N 0.56094(9) -0.1497(2) -0.77462(16)
N6C N 0.44219(9) 0.1016(2) -0.74759(17)
O1 O 0.97328(16) 0.0121(4) 0.0866(3)
H39 H 0.9979 -0.0337 0.0855
C41 C 0.9832(3) 0.0116(5) 0.1837(4)
H40 H 1.0239 0.0328 0.2325
H41 H 0.9748 -0.0717 0.1985
H42 H 0.9579 0.0732 0.1874
O2 O 0.0000 0.0080(9) -1.5000
loop_
_geom_bond_atom_site_label_1
_geom_bond_atom_site_label_2
_geom_bond_site_symmetry_1
_geom_bond_site_symmetry_2
Co1 N3 1_555 1_555
N1 C1 1_555 1_555
N2 C6 1_555 1_555
N3 C11 1_555 1_555
C1 H1 1_555 1_555
C2 C1 1_555 1_555
H2 C2 1_555 1_555
C3 C2 1_555 1_555
C4 C3 1_555 1_555
H3 C4 1_555 1_555
C5 N1 1_555 1_555
H4 C5 1_555 1_555
C6 C3 1_555 1_555
C7 C6 1_555 1_555
H5 C7 1_555 1_555
C8 C7 1_555 1_555
C9 C8 1_555 1_555
H6 C9 1_555 1_555
C10 N2 1_555 1_555
C11 H7 1_555 1_555
C12 C11 1_555 1_555
H8 C12 1_555 1_555
C13 C10 1_555 1_555
C14 C13 1_555 1_555
H9 C14 1_555 1_555
C15 N3 1_555 1_555
H10 C15 1_555 1_555
C16 C8 1_555 1_555
C17 C16 1_555 1_555
H11 C17 1_555 1_555
H12 C17 1_555 1_555
H13 C17 1_555 1_555
C18 C16 1_555 1_555
H14 C18 1_555 1_555
H15 C18 1_555 1_555
H16 C18 1_555 1_555
C19 C16 1_555 1_555
H17 C19 1_555 1_555
H18 C19 1_555 1_555
H19 C19 1_555 1_555
N4 Co1 1_555 1_555
N5 C25 1_555 1_555
N6 C30 1_555 1_555
C20 N4 1_555 1_555
H20 C20 1_555 1_555
C21 C20 1_555 1_555
H21 C21 1_555 1_555
C22 C21 1_555 1_555
C23 C22 1_555 1_555
H22 C23 1_555 1_555
C24 N4 1_555 1_555
H23 C24 1_555 1_555
C25 C22 1_555 1_555
C26 C25 1_555 1_555
H24 C26 1_555 1_555
C27 C26 1_555 1_555
C28 C27 1_555 1_555
H25 C28 1_555 1_555
C29 N5 1_555 1_555
C30 H26 1_555 1_555
C31 C30 1_555 1_555
H27 C31 1_555 1_555
C32 C29 1_555 1_555
C33 C32 1_555 1_555
H28 C33 1_555 1_555
C34 N6 1_555 1_555
H29 C34 1_555 1_555
C35 C27 1_555 1_555
C36 C35 1_555 1_555
H30 C36 1_555 1_555
H31 C36 1_555 1_555
H32 C36 1_555 1_555
C37 C35 1_555 1_555
H33 C37 1_555 1_555
H34 C37 1_555 1_555
H35 C37 1_555 1_555
C38 C35 1_555 1_555
H36 C38 1_555 1_555
H37 C38 1_555 1_555
H38 C38 1_555 1_555
N7 Co1 1_555 1_555
C39 N7 1_555 1_555
S1 C39 1_555 1_555
N8 Co1 1_555 1_555
C40 N8 1_555 1_555
S2 C40 1_555 1_555
O1 H39 1_555 1_555
C41 O1 1_555 1_555
H40 C41 1_555 1_555
H41 C41 1_555 1_555
H42 C41 1_555 1_555
Co1C N6 1_555 1_555
Co1C_2 N1 1_555 1_555
N1C Co1 1_555 1_555
N6C Co1 1_555 1_555
C4 C5 1_555 1_555
C9 C10 1_555 1_555
C12 C13 1_555 1_555
C14 C15 1_555 1_555
C23 C24 1_555 1_555
C28 C29 1_555 1_555
C31 C32 1_555 1_555
C33 C34 1_555 1_555

#END
