
#######################################################################
#
#                 Cambridge Crystallographic Data Centre
#                                CCDC 
#
#######################################################################
#
# If this CIF has been generated from an entry in the Cambridge 
# Structural Database, then it will include bibliographic, chemical, 
# crystal, experimental, refinement or atomic coordinate data resulting 
# from the CCDC's data processing and validation procedures.
#
#######################################################################

data_FAKTAN
_symmetry_cell_setting           monoclinic
_symmetry_space_group_name_H-M   'P 21/c'
_symmetry_Int_Tables_number      14
_space_group_name_Hall           '-P 2ybc'
loop_
_symmetry_equiv_pos_site_id
_symmetry_equiv_pos_as_xyz
1 x,y,z
2 -x,1/2+y,1/2-z
3 -x,-y,-z
4 x,1/2-y,1/2+z
_cell_length_a                   7.3438(7)
_cell_length_b                   14.1201(10)
_cell_length_c                   8.2696(6)
_cell_angle_alpha                90
_cell_angle_beta                 94.082(3)
_cell_angle_gamma                90
_cell_volume                     855.342
loop_
_atom_site_label
_atom_site_type_symbol
_atom_site_fract_x
_atom_site_fract_y
_atom_site_fract_z
Au1 Au 0.95611(6) 0.24833(3) -0.26689(4)
Cu1 Cu 0.5000 0.0000 -0.5000
N1 N 0.6612(13) 0.1078(6) -0.4178(9)
N2 N 0.2640(14) 0.1188(7) -0.6093(11)
N3 N 0.3841(11) -0.0036(5) -0.2875(8)
C1 C 0.7730(15) 0.1592(7) -0.3639(10)
C2 C 0.1473(16) 0.1659(8) -0.6669(12)
C3 C 0.3118(14) 0.0743(7) -0.2244(12)
C4 C 0.2384(16) 0.0731(8) -0.0755(13)
C5 C 0.2364(14) -0.0079(8) 0.0123(11)
C6 C 0.3143(15) -0.0868(8) -0.0508(12)
C7 C 0.3835(15) -0.0834(8) -0.2033(13)
H1 H 0.3131 0.1320 -0.2834
H2 H 0.1862 0.1291 -0.0351
H3 H 0.1846 -0.0099 0.1143
H4 H 0.3201 -0.1441 0.0096
H5 H 0.4321 -0.1394 -0.2472
Au1B Au 0.04389(6) -0.24833(3) -0.73311(4)
Au1C Au -0.04389(6) 0.25167(3) -0.76689(4)
Au1A Au 1.04389(6) -0.25167(3) -0.23311(4)
N1B N 0.3388(13) -0.1078(6) -0.5822(9)
N2B N 0.7360(14) -0.1188(7) -0.3907(11)
N3B N 0.6159(11) 0.0036(5) -0.7125(8)
C1B C 0.2270(15) -0.1592(7) -0.6361(10)
C2A C -0.1473(16) -0.3341(8) -0.8331(12)
C2C C 1.1473(16) 0.3341(8) -0.1669(12)
C2B C 0.8527(16) -0.1659(8) -0.3331(12)
C3B C 0.6882(14) -0.0743(7) -0.7756(12)
C4B C 0.7616(16) -0.0731(8) -0.9245(13)
C5B C 0.7636(14) 0.0079(8) -1.0123(11)
C6B C 0.6857(15) 0.0868(8) -0.9492(12)
C7B C 0.6165(15) 0.0834(8) -0.7967(13)
H1B H 0.6869 -0.1320 -0.7166
H2B H 0.8138 -0.1291 -0.9649
H3B H 0.8154 0.0099 -1.1143
H4B H 0.6799 0.1441 -1.0096
H5B H 0.5679 0.1394 -0.7528
loop_
_geom_bond_atom_site_label_1
_geom_bond_atom_site_label_2
_geom_bond_site_symmetry_1
_geom_bond_site_symmetry_2
Au1 C1 1_555 1_555
Cu1 N1 1_555 1_555
N1 C1 1_555 1_555
N2 Cu1 1_555 1_555
N3 Cu1 1_555 1_555
C2 N2 1_555 1_555
C3 N3 1_555 1_555
C4 C3 1_555 1_555
C5 C4 1_555 1_555
C6 C5 1_555 1_555
C7 N3 1_555 1_555
H1 C3 1_555 1_555
H2 C4 1_555 1_555
H3 C5 1_555 1_555
H4 C6 1_555 1_555
H5 C7 1_555 1_555
Au1B C1B 1_555 1_555
Au1C C2 1_555 1_555
Au1A C2B 1_555 1_555
N1B Cu1 1_555 1_555
N2B Cu1 1_555 1_555
N3B Cu1 1_555 1_555
C1B N1B 1_555 1_555
C2A Au1B 1_555 1_555
C2C Au1 1_555 1_555
C2B N2B 1_555 1_555
C3B N3B 1_555 1_555
C4B C3B 1_555 1_555
C5B C4B 1_555 1_555
C6B C5B 1_555 1_555
C7B N3B 1_555 1_555
H1B C3B 1_555 1_555
H2B C4B 1_555 1_555
H3B C5B 1_555 1_555
H4B C6B 1_555 1_555
H5B C7B 1_555 1_555
C6 C7 1_555 1_555
C6B C7B 1_555 1_555

#END
