
#######################################################################
#
#                 Cambridge Crystallographic Data Centre
#                                CCDC 
#
#######################################################################
#
# If this CIF has been generated from an entry in the Cambridge 
# Structural Database, then it will include bibliographic, chemical, 
# crystal, experimental, refinement or atomic coordinate data resulting 
# from the CCDC's data processing and validation procedures.
#
#######################################################################

data_FAKTUI
_symmetry_cell_setting           monoclinic
_symmetry_space_group_name_H-M   'C 2/c'
_symmetry_Int_Tables_number      15
_space_group_name_Hall           '-C 2yn'
loop_
_symmetry_equiv_pos_site_id
_symmetry_equiv_pos_as_xyz
1 x,y,z
2 1/2+x,1/2+y,z
3 -x,y,1/2-z
4 1/2-x,1/2+y,1/2-z
5 -x,-y,-z
6 1/2-x,1/2-y,-z
7 x,-y,1/2+z
8 1/2+x,1/2-y,1/2+z
_cell_length_a                   23.8597(8)
_cell_length_b                   7.2670(2)
_cell_length_c                   19.5048(8)
_cell_angle_alpha                90
_cell_angle_beta                 117.7130(10)
_cell_angle_gamma                90
_cell_volume                     2993.96
loop_
_atom_site_label
_atom_site_type_symbol
_atom_site_fract_x
_atom_site_fract_y
_atom_site_fract_z
Ag1 Ag 0.636574(9) 0.42937(3) 0.640723(12)
O1 O 0.43793(9) 0.3091(3) 0.58473(12)
O2 O 0.53677(10) 0.4187(3) 0.64522(12)
C1 C 0.73947(13) 0.6735(4) 0.78338(16)
C2 C 0.50105(12) 0.2735(4) 0.52226(15)
C3 C 0.45216(13) 0.1880(4) 0.45881(16)
H1 H 0.4126 0.1716 0.4587
C4 C 0.51503(16) 0.1539(5) 0.40203(18)
H2 H 0.5220 0.1130 0.3604
C5 C 0.56415(14) 0.2383(4) 0.46466(18)
H3 H 0.6035 0.2545 0.4644
C6 C 0.78182(14) 0.6104(4) 0.85753(16)
H4 H 0.8225 0.5668 0.8678
C7 C 0.76401(15) 0.6121(4) 0.91550(17)
H5 H 0.7925 0.5686 0.9657
C8 C 0.70470(16) 0.6772(5) 0.90078(19)
H6 H 0.6929 0.6782 0.9411
C9 C 0.66258(14) 0.7406(5) 0.82760(18)
H7 H 0.6222 0.7860 0.8180
C10 C 0.67936(13) 0.7376(4) 0.76884(16)
H8 H 0.6503 0.7789 0.7185
C11 C 0.73289(13) 0.6492(4) 0.59439(15)
C12 C 0.75855(12) 0.6759(4) 0.72167(15)
C13 C 0.83316(12) 0.7308(4) 0.68257(16)
C14 C 0.49106(13) 0.3385(4) 0.59019(16)
N1 N 0.55798(11) 0.2978(3) 0.52563(13)
N2 N 0.45842(12) 0.1278(4) 0.39786(14)
N3 N 0.71481(10) 0.6250(3) 0.65021(13)
N4 N 0.68967(11) 0.6249(4) 0.52083(13)
H9 H 0.7002 0.6391 0.4835
H10 H 0.6506 0.5946 0.5096
N5 N 0.89225(11) 0.7683(4) 0.70030(14)
H11 H 0.9042 0.7698 0.6638
H12 H 0.9199 0.7918 0.7486
N6 N 0.81725(10) 0.7314(3) 0.74151(13)
N7 N 0.79173(10) 0.6953(3) 0.60819(13)
Ag1C Ag 0.863426(9) -0.07063(3) 0.859277(12)
Ag1C_2 Ag 0.863426(9) 0.92937(3) 0.859277(12)
O1C O 1.06207(9) -0.1909(3) 0.91527(12)
O2C O 0.96323(10) -0.0813(3) 0.85478(12)
C1C C 0.76053(13) 0.1735(4) 0.71662(16)
C2C C 0.99895(12) -0.2265(4) 0.97774(15)
C3C C 1.04784(13) -0.3120(4) 1.04119(16)
H1C H 1.0874 -0.3284 1.0413
C4C C 0.98497(16) -0.3461(5) 1.09797(18)
H2C H 0.9780 -0.3870 1.1396
C5C C 0.93585(14) -0.2617(4) 1.03534(18)
H3C H 0.8965 -0.2455 1.0356
C6C C 0.71818(14) 0.1104(4) 0.64247(16)
H4C H 0.6775 0.0668 0.6322
C7C C 0.73599(15) 0.1121(4) 0.58450(17)
H5C H 0.7075 0.0686 0.5343
C8C C 0.79530(16) 0.1772(5) 0.59922(19)
H6C H 0.8071 0.1782 0.5589
C9C C 0.83742(14) 0.2406(5) 0.67240(18)
H7C H 0.8778 0.2860 0.6820
C10C C 0.82064(13) 0.2376(4) 0.73116(16)
H8C H 0.8497 0.2789 0.7815
C11C C 0.76711(13) 0.1492(4) 0.90561(15)
C12C C 0.74145(12) 0.1759(4) 0.77833(15)
C13C C 0.66684(12) 0.2308(4) 0.81743(16)
C14C C 1.00894(13) -0.1615(4) 0.90981(16)
N1C N 0.94202(11) -0.2022(3) 0.97437(13)
N2C N 1.04158(12) -0.3722(4) 1.10214(14)
N3C N 0.78519(10) 0.1250(3) 0.84979(13)
N4C N 0.81033(11) 0.1249(4) 0.97917(13)
H9C H 0.7998 0.1391 1.0165
H10C H 0.8494 0.0946 0.9904
N5C N 0.60775(11) 0.2683(4) 0.79970(14)
H11C H 0.5958 0.2698 0.8362
H12C H 0.5801 0.2918 0.7514
N6C N 0.68275(10) 0.2314(3) 0.75849(13)
N6_2 N 0.81725(10) -0.2686(3) 0.74151(13)
N7C N 0.70827(10) 0.1953(3) 0.89181(13)
O3 O 0.5000 0.6395(5) 0.7500
H13 H 0.5099 0.5711 0.7219
H13B H 0.4901 0.5711 0.7781
loop_
_geom_bond_atom_site_label_1
_geom_bond_atom_site_label_2
_geom_bond_site_symmetry_1
_geom_bond_site_symmetry_2
Ag1 O2 1_555 1_555
O1 C14 1_555 1_555
O2 C14 1_555 1_555
C1 C6 1_555 1_555
C2 C3 1_555 1_555
C3 H1 1_555 1_555
C4 H2 1_555 1_555
C5 C4 1_555 1_555
H3 C5 1_555 1_555
C6 H4 1_555 1_555
C7 C6 1_555 1_555
H5 C7 1_555 1_555
C8 C7 1_555 1_555
H6 C8 1_555 1_555
C9 C8 1_555 1_555
H7 C9 1_555 1_555
C10 C1 1_555 1_555
H8 C10 1_555 1_555
C11 N3 1_555 1_555
C12 C1 1_555 1_555
C13 N5 1_555 1_555
C14 C2 1_555 1_555
N1 Ag1 1_555 1_555
N2 C3 1_555 1_555
N3 Ag1 1_555 1_555
N4 C11 1_555 1_555
H9 N4 1_555 1_555
H10 N4 1_555 1_555
N5 H11 1_555 1_555
H12 N5 1_555 1_555
N6 C12 1_555 1_555
N7 C11 1_555 1_555
O3 H13 1_555 1_555
Ag1C O2C 1_555 1_555
Ag1C_2 N6 1_555 1_555
O1C C14C 1_555 1_555
O2C C14C 1_555 1_555
C1C C6C 1_555 1_555
C2C C3C 1_555 1_555
C3C H1C 1_555 1_555
C4C H2C 1_555 1_555
C5C C4C 1_555 1_555
H3C C5C 1_555 1_555
C6C H4C 1_555 1_555
C7C C6C 1_555 1_555
H5C C7C 1_555 1_555
C8C C7C 1_555 1_555
H6C C8C 1_555 1_555
C9C C8C 1_555 1_555
H7C C9C 1_555 1_555
C10C C1C 1_555 1_555
H8C C10C 1_555 1_555
C11C N3C 1_555 1_555
C12C C1C 1_555 1_555
C13C N5C 1_555 1_555
C14C C2C 1_555 1_555
N1C Ag1C 1_555 1_555
N2C C3C 1_555 1_555
N3C Ag1C 1_555 1_555
N4C C11C 1_555 1_555
H9C N4C 1_555 1_555
H10C N4C 1_555 1_555
N5C H11C 1_555 1_555
H12C N5C 1_555 1_555
N6C Ag1 1_555 1_555
N6_2 Ag1C 1_555 1_555
N7C C11C 1_555 1_555
H13B O3 1_555 1_555
C2 N1 1_555 1_555
C4 N2 1_555 1_555
C5 N1 1_555 1_555
C9 C10 1_555 1_555
C12 N3 1_555 1_555
C13 N6 1_555 1_555
C13 N7 1_555 1_555
C2C N1C 1_555 1_555
C4C N2C 1_555 1_555
C5C N1C 1_555 1_555
C9C C10C 1_555 1_555
C12C N3C 1_555 1_555
C12C N6C 1_555 1_555
C13C N6C 1_555 1_555
C13C N7C 1_555 1_555

#END
