
#######################################################################
#
#                 Cambridge Crystallographic Data Centre
#                                CCDC 
#
#######################################################################
#
# If this CIF has been generated from an entry in the Cambridge 
# Structural Database, then it will include bibliographic, chemical, 
# crystal, experimental, refinement or atomic coordinate data resulting 
# from the CCDC's data processing and validation procedures.
#
#######################################################################

data_FAKXIA
_symmetry_cell_setting           monoclinic
_symmetry_space_group_name_H-M   'P 21/n'
_symmetry_Int_Tables_number      14
_space_group_name_Hall           '-P 2yn'
loop_
_symmetry_equiv_pos_site_id
_symmetry_equiv_pos_as_xyz
1 x,y,z
2 1/2-x,1/2+y,1/2-z
3 -x,-y,-z
4 1/2+x,1/2-y,1/2+z
_cell_length_a                   8.8148(7)
_cell_length_b                   8.7643(7)
_cell_length_c                   11.7758(9)
_cell_angle_alpha                90
_cell_angle_beta                 102.6990(10)
_cell_angle_gamma                90
_cell_volume                     887.492
loop_
_atom_site_label
_atom_site_type_symbol
_atom_site_fract_x
_atom_site_fract_y
_atom_site_fract_z
Cu1 Cu 0.5000 0.0000 0.5000
C1 C 0.2181(4) 0.1556(4) 0.5392(3)
H1 H 0.2458 0.2283 0.4875
C2 C 0.0894(4) 0.1855(4) 0.5864(3)
C3 C 0.0457(4) 0.0746(5) 0.6570(3)
H2 H -0.0440 0.0888 0.6881
C4 C 0.1330(5) -0.0558(5) 0.6814(3)
H3 H 0.1052 -0.1326 0.7301
C5 C 0.2618(4) -0.0731(4) 0.6341(3)
H4 H 0.3234 -0.1624 0.6527
C6 C 0.0035(4) 0.3296(5) 0.5627(3)
H5 H -0.0887 0.3435 0.5908
C7 C 0.5794(4) 0.3135(4) 0.5825(3)
C8 C 0.5611(5) 0.4802(4) 0.5509(4)
H6 H 0.5406 0.5363 0.6189
H7 H 0.6615 0.5176 0.5371
N1 N 0.3038(3) 0.0302(3) 0.5632(2)
N2 N 0.0495(4) 0.4358(4) 0.5056(3)
O1 O 0.5303(2) 0.2217(3) 0.5006(2)
O2 O 0.6424(3) 0.2778(3) 0.6840(2)
O3 O 0.3722(4) 0.0332(4) 0.3053(3)
H8 H 0.354(4) -0.045(5) 0.296(3)
H9 H 0.308(5) 0.080(5) 0.274(4)
Cu1_2 Cu -0.5000 1.0000 0.5000
Cu1_3 Cu 0.5000 1.0000 0.5000
C1B C -0.2181(4) 0.8444(4) 0.4608(3)
H1B H -0.2458 0.7717 0.5125
C2B C -0.0894(4) 0.8145(4) 0.4136(3)
C3B C -0.0457(4) 0.9254(5) 0.3430(3)
H2B H 0.0440 0.9112 0.3119
C4B C -0.1330(5) 1.0558(5) 0.3186(3)
H3B H -0.1052 1.1326 0.2699
C5B C -0.2618(4) 1.0731(4) 0.3659(3)
H4B H -0.3234 1.1624 0.3473
C6B C -0.0035(4) 0.6704(5) 0.4373(3)
H5B H 0.0887 0.6565 0.4092
C7B C 0.4206(4) 0.6865(4) 0.4175(3)
C8B C 0.4389(5) 0.5198(4) 0.4491(4)
H6B H 0.4594 0.4637 0.3811
H7B H 0.3385 0.4824 0.4629
N1B N -0.3038(3) 0.9698(3) 0.4368(2)
N1B_2 N 0.6962(3) -0.0302(3) 0.4368(2)
N2B N -0.0495(4) 0.5642(4) 0.4944(3)
O1B O 0.4697(2) 0.7783(3) 0.4994(2)
O1B_2 O 0.4697(2) -0.2217(3) 0.4994(2)
O2B O 0.3576(3) 0.7222(3) 0.3160(2)
O3B O 0.6278(4) -0.0332(4) 0.6947(3)
H8B H 0.646(4) 0.045(5) 0.704(3)
H9B H 0.692(5) -0.080(5) 0.726(4)
loop_
_geom_bond_atom_site_label_1
_geom_bond_atom_site_label_2
_geom_bond_site_symmetry_1
_geom_bond_site_symmetry_2
Cu1 N1 1_555 1_555
C1 H1 1_555 1_555
C2 C1 1_555 1_555
C3 C2 1_555 1_555
H2 C3 1_555 1_555
C4 C3 1_555 1_555
H3 C4 1_555 1_555
C5 C4 1_555 1_555
H4 C5 1_555 1_555
C6 C2 1_555 1_555
H5 C6 1_555 1_555
C7 C8 1_555 1_555
C8 H6 1_555 1_555
H7 C8 1_555 1_555
N1 C1 1_555 1_555
N2 C6 1_555 1_555
O1 Cu1 1_555 1_555
O2 C7 1_555 1_555
O3 Cu1 1_555 1_555
H8 O3 1_555 1_555
H9 O3 1_555 1_555
Cu1_2 N1B 1_555 1_555
Cu1_3 O1B 1_555 1_555
C1B H1B 1_555 1_555
C2B C1B 1_555 1_555
C3B C2B 1_555 1_555
H2B C3B 1_555 1_555
C4B C3B 1_555 1_555
H3B C4B 1_555 1_555
C5B C4B 1_555 1_555
H4B C5B 1_555 1_555
C6B C2B 1_555 1_555
H5B C6B 1_555 1_555
C7B C8B 1_555 1_555
C8B C8 1_555 1_555
H6B C8B 1_555 1_555
H7B C8B 1_555 1_555
N1B C1B 1_555 1_555
N1B_2 Cu1 1_555 1_555
N2B N2 1_555 1_555
O1B C7B 1_555 1_555
O1B_2 Cu1 1_555 1_555
O2B C7B 1_555 1_555
O3B Cu1 1_555 1_555
H8B O3B 1_555 1_555
H9B O3B 1_555 1_555
C5 N1 1_555 1_555
C7 O1 1_555 1_555
C5B N1B 1_555 1_555
C6B N2B 1_555 1_555

#END
