
#######################################################################
#
#                 Cambridge Crystallographic Data Centre
#                                CCDC 
#
#######################################################################
#
# If this CIF has been generated from an entry in the Cambridge 
# Structural Database, then it will include bibliographic, chemical, 
# crystal, experimental, refinement or atomic coordinate data resulting 
# from the CCDC's data processing and validation procedures.
#
#######################################################################

data_FAKXEW
_symmetry_cell_setting           orthorhombic
_symmetry_space_group_name_H-M   'P n a 21'
_symmetry_Int_Tables_number      33
_space_group_name_Hall           'P 2c -2n'
loop_
_symmetry_equiv_pos_site_id
_symmetry_equiv_pos_as_xyz
1 x,y,z
2 -x,-y,1/2+z
3 1/2+x,1/2-y,z
4 1/2-x,1/2+y,1/2+z
_cell_length_a                   22.211(3)
_cell_length_b                   5.9543(7)
_cell_length_c                   18.038(2)
_cell_angle_alpha                90
_cell_angle_beta                 90
_cell_angle_gamma                90
_cell_volume                     2385.54
loop_
_atom_site_label
_atom_site_type_symbol
_atom_site_fract_x
_atom_site_fract_y
_atom_site_fract_z
Cu1 Cu 0.37145(4) 0.30016(11) 0.20812(9)
C1 C 0.4963(3) 0.4125(12) 0.2463(4)
H1 H 0.4891 0.5380 0.2150
C2 C 0.5533(3) 0.3870(13) 0.2781(4)
C3 C 0.5634(3) 0.2008(14) 0.3213(4)
H2 H 0.6020 0.1752 0.3424
C4 C 0.5171(3) 0.0516(13) 0.3337(4)
H3 H 0.5229 -0.0754 0.3648
C5 C 0.4622(3) 0.0896(14) 0.3003(4)
H4 H 0.4307 -0.0159 0.3077
C6 C 0.6027(3) 0.5477(13) 0.2616(4)
H5 H 0.6411 0.5271 0.2835
C7 C 0.6381(3) 1.0084(12) 0.1686(4)
H6 H 0.5988 1.0371 0.1499
C8 C 0.7451(3) 1.1222(13) 0.1757(4)
H7 H 0.7519 0.9915 0.2048
C9 C 0.6872(3) 1.1634(13) 0.1497(4)
C10 C 0.6774(4) 1.3492(14) 0.1082(4)
H8 H 0.6380 1.3820 0.0910
C11 C 0.7242(3) 1.4906(14) 0.0905(4)
H9 H 0.7184 1.6196 0.0604
C12 C 0.7805(3) 1.4358(12) 0.1189(4)
H10 H 0.8134 1.5313 0.1072
C13 C 0.4440(4) 0.1392(14) 0.0936(4)
C14 C 0.4936(3) 0.1889(14) 0.0362(4)
C15 C 0.4981(4) 0.3968(13) 0.0046(4)
H11 H 0.4695 0.5099 0.0164
C16 C 0.5451(4) 0.4435(13) -0.0454(4)
H12 H 0.5477 0.5874 -0.0679
C17 C 0.5871(3) 0.2830(13) -0.0618(4)
H13 H 0.6188 0.3148 -0.0957
C18 C 0.5833(4) 0.0801(14) -0.0296(4)
H14 H 0.6131 -0.0299 -0.0399
C19 C 0.5360(3) 0.0277(12) 0.0191(4)
H15 H 0.5333 -0.1181 0.0402
C20 C 0.3058(3) 0.1352(13) 0.3300(4)
C21 C 0.2564(3) 0.1786(13) 0.3861(4)
C22 C 0.2305(3) 0.3856(13) 0.3918(4)
H16 H 0.2458 0.5067 0.3632
C23 C 0.1811(3) 0.4221(14) 0.4396(4)
H17 H 0.1618 0.5642 0.4419
C24 C 0.1615(4) 0.2421(13) 0.4835(5)
H18 H 0.1286 0.2635 0.5164
C25 C 0.1885(3) 0.0375(13) 0.4798(4)
H19 H 0.1749 -0.0834 0.5098
C26 C 0.2359(3) 0.0094(13) 0.4318(4)
H20 H 0.2554 -0.1325 0.4301
N1 N 0.4519(3) 0.2674(9) 0.2583(4)
N2 N 0.5937(2) 0.7139(10) 0.2178(5)
N3 N 0.6465(2) 0.8364(10) 0.2096(6)
N4 N 0.7912(3) 1.2568(9) 0.1619(4)
O1 O 0.4122(2) 0.3000(9) 0.1120(3)
O2 O 0.4407(2) -0.0589(8) 0.1166(3)
O3 O 0.3301(2) 0.3103(10) 0.3040(3)
O4 O 0.3168(2) -0.0605(8) 0.3118(3)
O5 O 0.3689(2) 0.6743(6) 0.2038(5)
H21 H 0.344(2) 0.759(9) 0.229(3)
H22 H 0.389(3) 0.776(8) 0.179(3)
Cu1B Cu 0.87145(4) 1.19984(11) 0.20812(9)
N4B N 0.2912(3) 0.2432(9) 0.1619(4)
loop_
_geom_bond_atom_site_label_1
_geom_bond_atom_site_label_2
_geom_bond_site_symmetry_1
_geom_bond_site_symmetry_2
Cu1 N1 1_555 1_555
C1 H1 1_555 1_555
C2 C1 1_555 1_555
C3 C2 1_555 1_555
H2 C3 1_555 1_555
C4 C3 1_555 1_555
H3 C4 1_555 1_555
C5 C4 1_555 1_555
H4 C5 1_555 1_555
C6 C2 1_555 1_555
H5 C6 1_555 1_555
C7 H6 1_555 1_555
C8 H7 1_555 1_555
C9 C7 1_555 1_555
C10 C9 1_555 1_555
H8 C10 1_555 1_555
C11 C10 1_555 1_555
H9 C11 1_555 1_555
C12 C11 1_555 1_555
H10 C12 1_555 1_555
C13 C14 1_555 1_555
C14 C15 1_555 1_555
C15 H11 1_555 1_555
C16 C15 1_555 1_555
H12 C16 1_555 1_555
C17 C16 1_555 1_555
H13 C17 1_555 1_555
C18 C17 1_555 1_555
H14 C18 1_555 1_555
C19 C14 1_555 1_555
H15 C19 1_555 1_555
C20 C21 1_555 1_555
C21 C22 1_555 1_555
C22 H16 1_555 1_555
C23 C22 1_555 1_555
H17 C23 1_555 1_555
C24 C23 1_555 1_555
H18 C24 1_555 1_555
C25 C24 1_555 1_555
H19 C25 1_555 1_555
C26 C21 1_555 1_555
H20 C26 1_555 1_555
N1 C1 1_555 1_555
N2 C6 1_555 1_555
N3 C7 1_555 1_555
N4 C8 1_555 1_555
O1 Cu1 1_555 1_555
O2 C13 1_555 1_555
O3 Cu1 1_555 1_555
O4 C20 1_555 1_555
O5 Cu1 1_555 1_555
H21 O5 1_555 1_555
H22 O5 1_555 1_555
Cu1B N4 1_555 1_555
N4B Cu1 1_555 1_555
C5 N1 1_555 1_555
C8 C9 1_555 1_555
C12 N4 1_555 1_555
C13 O1 1_555 1_555
C18 C19 1_555 1_555
C20 O3 1_555 1_555
C25 C26 1_555 1_555
N2 N3 1_555 1_555

#END
