
#######################################################################
#
#                 Cambridge Crystallographic Data Centre
#                                CCDC 
#
#######################################################################
#
# If this CIF has been generated from an entry in the Cambridge 
# Structural Database, then it will include bibliographic, chemical, 
# crystal, experimental, refinement or atomic coordinate data resulting 
# from the CCDC's data processing and validation procedures.
#
#######################################################################

data_FALBAX
_symmetry_cell_setting           cubic
_symmetry_space_group_name_H-M   'F d -3 c'
_symmetry_Int_Tables_number      228
_space_group_name_Hall           '-F 4ud 2vw 3'
loop_
_symmetry_equiv_pos_site_id
_symmetry_equiv_pos_as_xyz
1 x,y,z
2 1/4+y,1/4+x,1/2-z
3 1/4+x,-z,3/4+y
4 -z,1/4+y,3/4+x
5 3/4+z,1/4+y,-x
6 1/4-z,x,1/4-y
7 1/4+x,3/4+z,-y
8 y,1/4-z,1/4-x
9 1/4+y,-x,3/4+z
10 x,1/4-y,1/4-z
11 1/4-x,1/4-y,z
12 1/2-y,-x,-z
13 -z,-y,1/2-x
14 z,1/4-x,1/4-y
15 x,1/2+y,1/2+z
16 1/4+y,3/4+x,-z
17 1/4+x,1/2-z,1/4+y
18 -z,3/4+y,1/4+x
19 3/4+z,3/4+y,1/2-x
20 1/4-z,1/2+x,3/4-y
21 1/4+x,1/4+z,1/2-y
22 y,3/4-z,3/4-x
23 1/4+y,1/2-x,1/4+z
24 x,3/4-y,3/4-z
25 1/4-x,3/4-y,1/2+z
26 1/2-y,1/2-x,1/2-z
27 -z,1/2-y,-x
28 z,3/4-x,3/4-y
29 1/2+x,y,1/2+z
30 3/4+y,1/4+x,-z
31 3/4+x,-z,1/4+y
32 1/2-z,1/4+y,1/4+x
33 1/4+z,1/4+y,1/2-x
34 3/4-z,x,3/4-y
35 3/4+x,3/4+z,1/2-y
36 1/2+y,1/4-z,3/4-x
37 3/4+y,-x,1/4+z
38 1/2+x,1/4-y,3/4-z
39 3/4-x,1/4-y,1/2+z
40 -y,-x,1/2-z
41 1/2-z,-y,-x
42 1/2+z,1/4-x,3/4-y
43 1/2+x,1/2+y,z
44 3/4+y,3/4+x,1/2-z
45 3/4+x,1/2-z,3/4+y
46 1/2-z,3/4+y,3/4+x
47 1/4+z,3/4+y,-x
48 3/4-z,1/2+x,1/4-y
49 3/4+x,1/4+z,-y
50 1/2+y,3/4-z,1/4-x
51 3/4+y,1/2-x,3/4+z
52 1/2+x,3/4-y,1/4-z
53 3/4-x,3/4-y,z
54 -y,1/2-x,-z
55 1/2-z,1/2-y,1/2-x
56 1/2+z,3/4-x,1/4-y
57 -x,1/2-z,-y
58 3/4-y,z,3/4-x
59 3/4-z,3/4-x,y
60 3/4-y,3/4-z,x
61 1/2-x,3/4+z,3/4+y
62 3/4+z,1/2-y,3/4+x
63 3/4-x,y,3/4-z
64 1/2-y,3/4+x,3/4+z
65 y,z,x
66 z,x,y
67 -x,-z,1/2-y
68 3/4-y,1/2+z,1/4-x
69 3/4-z,1/4-x,1/2+y
70 3/4-y,1/4-z,1/2+x
71 1/2-x,1/4+z,1/4+y
72 3/4+z,-y,1/4+x
73 3/4-x,1/2+y,1/4-z
74 1/2-y,1/4+x,1/4+z
75 y,1/2+z,1/2+x
76 z,1/2+x,1/2+y
77 1/2-x,1/2-z,1/2-y
78 1/4-y,z,1/4-x
79 1/4-z,3/4-x,1/2+y
80 1/4-y,3/4-z,1/2+x
81 -x,3/4+z,1/4+y
82 1/4+z,1/2-y,1/4+x
83 1/4-x,y,1/4-z
84 -y,3/4+x,1/4+z
85 1/2+y,z,1/2+x
86 1/2+z,x,1/2+y
87 1/2-x,-z,-y
88 1/4-y,1/2+z,3/4-x
89 1/4-z,1/4-x,y
90 1/4-y,1/4-z,x
91 -x,1/4+z,3/4+y
92 1/4+z,-y,3/4+x
93 1/4-x,1/2+y,3/4-z
94 -y,1/4+x,3/4+z
95 1/2+y,1/2+z,x
96 1/2+z,1/2+x,y
97 -x,-y,-z
98 3/4-y,3/4-x,1/2+z
99 3/4-x,z,1/4-y
100 z,3/4-y,1/4-x
101 1/4-z,3/4-y,x
102 3/4+z,-x,3/4+y
103 3/4-x,1/4-z,y
104 -y,3/4+z,3/4+x
105 3/4-y,x,1/4-z
106 -x,3/4+y,3/4+z
107 3/4+x,3/4+y,-z
108 1/2+y,x,z
109 z,y,1/2+x
110 -z,3/4+x,3/4+y
111 -x,1/2-y,1/2-z
112 3/4-y,1/4-x,z
113 3/4-x,1/2+z,3/4-y
114 z,1/4-y,3/4-x
115 1/4-z,1/4-y,1/2+x
116 3/4+z,1/2-x,1/4+y
117 3/4-x,3/4-z,1/2+y
118 -y,1/4+z,1/4+x
119 3/4-y,1/2+x,3/4-z
120 -x,1/4+y,1/4+z
121 3/4+x,1/4+y,1/2-z
122 1/2+y,1/2+x,1/2+z
123 z,1/2+y,x
124 -z,1/4+x,1/4+y
125 1/2-x,-y,1/2-z
126 1/4-y,3/4-x,z
127 1/4-x,z,3/4-y
128 1/2+z,3/4-y,3/4-x
129 3/4-z,3/4-y,1/2+x
130 1/4+z,-x,1/4+y
131 1/4-x,1/4-z,1/2+y
132 1/2-y,3/4+z,1/4+x
133 1/4-y,x,3/4-z
134 1/2-x,3/4+y,1/4+z
135 1/4+x,3/4+y,1/2-z
136 y,x,1/2+z
137 1/2+z,y,x
138 1/2-z,3/4+x,1/4+y
139 1/2-x,1/2-y,-z
140 1/4-y,1/4-x,1/2+z
141 1/4-x,1/2+z,1/4-y
142 1/2+z,1/4-y,1/4-x
143 3/4-z,1/4-y,x
144 1/4+z,1/2-x,3/4+y
145 1/4-x,3/4-z,y
146 1/2-y,1/4+z,3/4+x
147 1/4-y,1/2+x,1/4-z
148 1/2-x,1/4+y,3/4+z
149 1/4+x,1/4+y,-z
150 y,1/2+x,z
151 1/2+z,1/2+y,1/2+x
152 1/2-z,1/4+x,3/4+y
153 x,1/2+z,y
154 1/4+y,-z,1/4+x
155 1/4+z,1/4+x,-y
156 1/4+y,1/4+z,-x
157 1/2+x,1/4-z,1/4-y
158 1/4-z,1/2+y,1/4-x
159 1/4+x,-y,1/4+z
160 1/2+y,1/4-x,1/4-z
161 -y,-z,-x
162 -z,-x,-y
163 x,z,1/2+y
164 1/4+y,1/2-z,3/4+x
165 1/4+z,3/4+x,1/2-y
166 1/4+y,3/4+z,1/2-x
167 1/2+x,3/4-z,3/4-y
168 1/4-z,y,3/4-x
169 1/4+x,1/2-y,3/4+z
170 1/2+y,3/4-x,3/4-z
171 -y,1/2-z,1/2-x
172 -z,1/2-x,1/2-y
173 1/2+x,1/2+z,1/2+y
174 3/4+y,-z,3/4+x
175 3/4+z,1/4+x,1/2-y
176 3/4+y,1/4+z,1/2-x
177 x,1/4-z,3/4-y
178 3/4-z,1/2+y,3/4-x
179 3/4+x,-y,3/4+z
180 y,1/4-x,3/4-z
181 1/2-y,-z,1/2-x
182 1/2-z,-x,1/2-y
183 1/2+x,z,y
184 3/4+y,1/2-z,1/4+x
185 3/4+z,3/4+x,-y
186 3/4+y,3/4+z,-x
187 x,3/4-z,1/4-y
188 3/4-z,y,1/4-x
189 3/4+x,1/2-y,1/4+z
190 y,3/4-x,1/4-z
191 1/2-y,1/2-z,-x
192 1/2-z,1/2-x,-y
_cell_length_a                   74.992(3)
_cell_length_b                   74.992(3)
_cell_length_c                   74.992(3)
_cell_angle_alpha                90
_cell_angle_beta                 90
_cell_angle_gamma                90
_cell_volume                     421740
loop_
_atom_site_label
_atom_site_type_symbol
_atom_site_fract_x
_atom_site_fract_y
_atom_site_fract_z
O1 O 0.28805(11) 0.10206(10) 0.18766(9)
H17 H 0.2793 0.1071 0.1829
C27 C 0.29853(13) 0.09455(13) 0.17473(11)
C28 C 0.29386(11) 0.07891(12) 0.16662(12)
H18 H 0.2831 0.0730 0.1699
C29 C 0.30490(11) 0.07149(11) 0.15335(11)
H19 H 0.3015 0.0608 0.1475
C30 C 0.32090(10) 0.07985(10) 0.14873(10)
C31 C 0.32525(10) 0.09580(11) 0.15713(10)
H20 H 0.3361 0.1017 0.1541
C32 C 0.31386(12) 0.10334(11) 0.16998(10)
H21 H 0.3168 0.1144 0.1753
N11 N 0.33217(10) 0.07135(9) 0.13636(10)
H22 H 0.3311 0.0597 0.1355
C33 C 0.34468(11) 0.07910(10) 0.12550(11)
C34 C 0.35969(11) 0.06942(11) 0.12026(11)
H23 H 0.3612 0.0576 0.1246
C35 C 0.37239(11) 0.07652(13) 0.10892(12)
H24 H 0.3825 0.0697 0.1056
C36 C 0.37019(12) 0.09355(14) 0.10255(13)
H25 H 0.3788 0.0985 0.0947
C37 C 0.35588(11) 0.10341(12) 0.10733(12)
H26 H 0.3545 0.1152 0.1028
C38 C 0.34311(10) 0.09635(11) 0.11884(11)
H27 H 0.3332 0.1034 0.1222
O2 O 0.04090(11) -0.03660(9) 0.37257(11)
H28 H 0.0454 -0.0445 0.3791
C39 C 0.04677(14) -0.01987(14) 0.37805(16)
C40 C 0.0434(2) -0.00529(17) 0.36758(16)
H29 H 0.0368 -0.0066 0.3568
C41 C 0.04939(19) 0.01097(16) 0.37259(16)
H30 H 0.0482 0.0208 0.3646
C42 C 0.05742(11) 0.01361(13) 0.38951(14)
C43 C 0.05938(13) -0.00055(13) 0.40018(16)
H31 H 0.0644 0.0010 0.4117
C44 C 0.05413(13) -0.01743(13) 0.39462(16)
H32 H 0.0556 -0.0274 0.4023
N12 N 0.06332(9) 0.03087(10) 0.39465(11)
H33 H 0.0748 0.0331 0.3950
C45 C 0.05118(10) 0.04448(10) 0.39926(10)
C46 C 0.05827(11) 0.06044(11) 0.40641(11)
H34 H 0.0708 0.0620 0.4074
C47 C 0.04694(12) 0.07369(11) 0.41182(11)
H35 H 0.0518 0.0843 0.4168
C48 C 0.02880(12) 0.07201(11) 0.41022(12)
H36 H 0.0210 0.0812 0.4141
C49 C 0.02232(11) 0.05659(10) 0.40275(12)
H37 H 0.0098 0.0554 0.4012
C50 C 0.03318(11) 0.04294(11) 0.39756(11)
H38 H 0.0298(11) 0.0307(11) 0.3936(10)
C51 C 0.1092(2) 0.0516(2) 0.00983(18)
C52 C 0.12552(16) 0.04452(14) 0.00686(15)
H39 H 0.1312 0.0457 -0.0044
C53 C 0.13370(16) 0.03547(14) 0.02082(15)
H40 H 0.1450 0.0299 0.0190
C54 C 0.12544(16) 0.03455(14) 0.03738(15)
C55 C 0.10898(16) 0.04267(14) 0.03999(15)
H41 H 0.1033 0.0420 0.0513
C56 C 0.10079(16) 0.05171(14) 0.02603(15)
H42 H 0.0898 0.0577 0.0277
N13 N 0.1322(3) 0.0239(3) 0.0515(3)
H43 H 0.1237 0.0192 0.0582
C57 C 0.1495(2) 0.0193(3) 0.0572(3)
C58 C 0.16357(18) 0.02879(15) 0.04982(16)
H44 H 0.1613 0.0380 0.0414
C59 C 0.18099(18) 0.02480(15) 0.05472(16)
H45 H 0.1906 0.0317 0.0501
C60 C 0.18437(18) 0.01078(15) 0.06637(16)
H46 H 0.1963 0.0081 0.0697
C61 C 0.17032(18) 0.00075(15) 0.07312(16)
H47 H 0.1726 -0.0088 0.0811
C62 C 0.15289(18) 0.00474(15) 0.06822(16)
H48 H 0.1433 -0.0025 0.0723
O3 O 0.0996(3) 0.0582(4) -0.0047(2)
H49 H 0.1061 0.0582 -0.0138
S1 S 0.07361(3) -0.15310(3) 0.27726(3)
C1 C 0.08809(9) -0.14369(9) 0.26371(9)
N1 N 0.09818(7) -0.13705(6) 0.25434(6)
Co1 Co 0.117822(11) -0.117822(11) 0.2500
N2 N 0.10039(7) -0.10566(7) 0.23052(6)
C2 C 0.08907(8) -0.11508(9) 0.22061(8)
H1 H 0.0868 -0.1271 0.2240
C3 C 0.08053(8) -0.10849(9) 0.20579(8)
H2 H 0.0725 -0.1157 0.1992
C4 C 0.08387(9) -0.09101(8) 0.20068(8)
C5 C 0.09457(9) -0.08076(9) 0.21139(9)
H3 H 0.0967 -0.0686 0.2086
C6 C 0.10224(9) -0.08835(8) 0.22636(9)
H4 H 0.1091 -0.0810 0.2340
C7 C 0.07769(8) -0.08411(8) 0.18330(8)
N3 N 0.06455(7) -0.09282(7) 0.17496(7)
C8 C 0.06007(8) -0.08626(8) 0.15891(8)
N4 N 0.06792(7) -0.07214(7) 0.15100(7)
C9 C 0.08072(9) -0.06447(8) 0.16085(9)
N5 N 0.08584(7) -0.06968(7) 0.17702(7)
N6 N 0.01956(7) -0.11501(7) 0.13107(7)
C10 C 0.02383(10) -0.11846(10) 0.14800(9)
H5 H 0.0176 -0.1278 0.1539
C11 C 0.03661(10) -0.10944(10) 0.15750(10)
H6 H 0.0391 -0.1125 0.1695
C12 C 0.04580(8) -0.09567(8) 0.14914(8)
C13 C 0.04114(9) -0.09152(9) 0.13180(9)
H7 H 0.0468 -0.0819 0.1258
C14 C 0.02816(9) -0.10147(9) 0.12334(8)
H8 H 0.0252 -0.0985 0.1114
N7 N 0.10953(7) -0.02110(6) 0.13776(7)
C15 C 0.09245(9) -0.02438(8) 0.13357(9)
H9 H 0.0868 -0.0167 0.1252
C16 C 0.08264(9) -0.03799(8) 0.14058(9)
H10 H 0.0706 -0.0398 0.1370
C17 C 0.09053(8) -0.04916(8) 0.15311(8)
C18 C 0.10803(9) -0.04616(8) 0.15792(8)
H11 H 0.1137 -0.0535 0.1665
C19 C 0.11718(9) -0.03208(8) 0.14982(9)
H12 H 0.1293 -0.0301 0.1529
Co2 Co 0.1250 -0.000523(14) 0.1250
N8 N 0.10677(7) -0.00042(6) 0.10380(7)
C20 C 0.09923(13) 0.00202(10) 0.09117(13)
S2 S 0.09142(7) 0.00627(6) 0.07062(5)
N9 N 0.14017(8) 0.02040(7) 0.11176(8)
C21 C 0.15672(12) 0.02455(12) 0.11492(12)
H13 H 0.1630 0.0177 0.1235
C22 C 0.16558(13) 0.03807(14) 0.10659(13)
H14 H 0.1776 0.0405 0.1097
C23 C 0.15726(11) 0.04815(10) 0.09379(10)
C24 C 0.13980(15) 0.04419(15) 0.09025(15)
H15 H 0.1335 0.0505 0.0813
C25 C 0.13144(16) 0.03078(16) 0.09992(16)
H16 H 0.1191 0.0288 0.0981
C26 C 0.16545(11) 0.06348(10) 0.08504(10)
N10 N 0.18031(9) 0.07038(9) 0.09239(9)
S1MA S 0.15310(3) -0.07361(3) 0.22274(3)
S1UC S 0.27726(3) -0.09690(3) 0.17639(3)
S1GE S 0.22274(3) -0.17639(3) 0.09690(3)
S1WE S 0.09690(3) -0.27726(3) 0.32361(3)
S1JE S 0.17639(3) -0.22274(3) 0.40310(3)
C1MA C 0.14369(9) -0.08809(9) 0.23629(9)
C1UC C 0.26371(9) -0.10631(9) 0.16191(9)
C1GE C 0.23629(9) -0.16191(9) 0.10631(9)
C1WE C 0.10631(9) -0.26371(9) 0.33809(9)
C1JE C 0.16191(9) -0.23629(9) 0.39369(9)
N1MA N 0.13705(6) -0.09818(7) 0.24566(6)
N1UC N 0.25434(6) -0.11295(6) 0.15182(7)
N1GE N 0.24566(6) -0.15182(7) 0.11295(6)
N1WE N 0.11295(6) -0.25434(6) 0.34818(7)
N1JE N 0.15182(7) -0.24566(6) 0.38705(6)
Co1UC Co 0.2500 -0.132178(11) 0.132178(11)
Co1JE Co 0.132178(11) -0.2500 0.367822(11)
Co1VC Co 0.0000 -0.132178(11) 0.117822(11)
Co1ZD Co 0.132178(11) 0.0000 0.382178(11)
Co1H Co 0.132178(11) -0.117822(11) 0.0000
Co1HC Co 0.382178(11) -0.2500 0.117822(11)
N2MA N 0.10566(7) -0.10039(7) 0.26948(6)
N2UC N 0.23052(6) -0.14434(7) 0.14961(7)
N2WE N 0.14434(7) -0.23052(6) 0.35039(7)
N2DC N 0.14961(7) -0.10566(7) 0.01948(6)
N2GE N 0.26948(6) -0.14961(7) 0.14434(7)
N2JE N 0.14961(7) -0.26948(6) 0.35566(7)
C2MA C 0.11508(9) -0.08907(8) 0.27939(8)
C2UC C 0.22061(8) -0.13492(9) 0.16093(8)
C2WE C 0.13492(9) -0.22061(8) 0.33907(8)
C2DC C 0.16093(8) -0.11508(9) 0.02939(8)
C2GE C 0.27939(8) -0.16093(8) 0.13492(9)
H1MA H 0.1271 -0.0868 0.2760
H1UC H 0.2240 -0.1229 0.1632
H1WE H 0.1229 -0.2240 0.3368
H1DC H 0.1632 -0.1271 0.0260
H1GE H 0.2760 -0.1632 0.1229
C3MA C 0.10849(9) -0.08053(8) 0.29421(8)
C3UC C 0.20579(8) -0.14151(9) 0.16947(8)
C3WE C 0.14151(9) -0.20579(8) 0.33053(8)
C3DC C 0.16947(8) -0.10849(9) 0.04421(8)
C3GE C 0.29421(8) -0.16947(8) 0.14151(9)
H2MA H 0.1157 -0.0725 0.3008
H2UC H 0.1992 -0.1343 0.1775
H2WE H 0.1343 -0.1992 0.3225
H2DC H 0.1775 -0.1157 0.0508
H2GE H 0.3008 -0.1775 0.1343
C4MA C 0.09101(8) -0.08387(9) 0.29932(8)
C4UC C 0.20068(8) -0.15899(8) 0.16613(9)
C4WE C 0.15899(8) -0.20068(8) 0.33387(9)
C4DC C 0.16613(9) -0.09101(8) 0.04932(8)
C4GE C 0.29932(8) -0.16613(9) 0.15899(8)
C5MA C 0.08076(9) -0.09457(9) 0.28861(9)
C5UC C 0.21139(9) -0.16924(9) 0.15543(9)
C5WE C 0.16924(9) -0.21139(9) 0.34457(9)
C5DC C 0.15543(9) -0.08076(9) 0.03861(9)
C5GE C 0.28861(9) -0.15543(9) 0.16924(9)
H3MA H 0.0686 -0.0967 0.2914
H3UC H 0.2086 -0.1814 0.1533
H3WE H 0.1814 -0.2086 0.3467
H3DC H 0.1533 -0.0686 0.0414
H3GE H 0.2914 -0.1533 0.1814
C6MA C 0.08835(8) -0.10224(9) 0.27364(9)
C6UC C 0.22636(9) -0.16165(8) 0.14776(9)
C6WE C 0.16165(8) -0.22636(9) 0.35224(9)
C6DC C 0.14776(9) -0.08835(8) 0.02364(9)
C6GE C 0.27364(9) -0.14776(9) 0.16165(8)
H4MA H 0.0810 -0.1091 0.2660
H4UC H 0.2340 -0.1690 0.1409
H4WE H 0.1690 -0.2340 0.3591
H4DC H 0.1409 -0.0810 0.0160
H4GE H 0.2660 -0.1409 0.1690
C7MA C 0.08411(8) -0.07769(8) 0.31670(8)
C7UC C 0.18330(8) -0.16589(8) 0.17231(8)
C7WE C 0.16589(8) -0.18330(8) 0.32769(8)
C7DC C 0.17231(8) -0.08411(8) 0.06670(8)
C7GE C 0.31670(8) -0.17231(8) 0.16589(8)
N3MA N 0.09282(7) -0.06455(7) 0.32504(7)
N3UC N 0.17496(7) -0.15718(7) 0.18545(7)
N3WE N 0.15718(7) -0.17496(7) 0.31455(7)
N3DC N 0.18545(7) -0.09282(7) 0.07504(7)
N3GE N 0.32504(7) -0.18545(7) 0.15718(7)
C8MA C 0.08626(8) -0.06007(8) 0.34109(8)
C8UC C 0.15891(8) -0.16374(8) 0.18993(8)
C8WE C 0.16374(8) -0.15891(8) 0.31007(8)
C8DC C 0.18993(8) -0.08626(8) 0.09109(8)
C8GE C 0.34109(8) -0.18993(8) 0.16374(8)
N4MA N 0.07214(7) -0.06792(7) 0.34900(7)
N4UC N 0.15100(7) -0.17786(7) 0.18208(7)
N4WE N 0.17786(7) -0.15100(7) 0.31792(7)
N4DC N 0.18208(7) -0.07214(7) 0.09900(7)
N4GE N 0.34900(7) -0.18208(7) 0.17786(7)
C9MA C 0.06447(8) -0.08072(9) 0.33915(9)
C9UC C 0.16085(9) -0.18553(8) 0.16928(9)
C9WE C 0.18553(8) -0.16085(9) 0.33072(9)
C9DC C 0.16928(9) -0.06447(8) 0.08915(9)
C9GE C 0.33915(9) -0.16928(9) 0.18553(8)
N5MA N 0.06968(7) -0.08584(7) 0.32298(7)
N5UC N 0.17702(7) -0.18032(7) 0.16416(7)
N5WE N 0.18032(7) -0.17702(7) 0.33584(7)
N5DC N 0.16416(7) -0.06968(7) 0.07298(7)
N5GE N 0.32298(7) -0.16416(7) 0.18032(7)
N6MA N 0.11501(7) -0.01956(7) 0.36893(7)
N6UC N 0.13107(7) -0.13499(7) 0.23044(7)
N6WE N 0.13499(7) -0.13107(7) 0.26956(7)
N6DC N 0.23044(7) -0.11501(7) 0.11893(7)
N6GE N 0.36893(7) -0.23044(7) 0.13499(7)
N6F N 0.26956(7) -0.11893(7) 0.11501(7)
N6EC N 0.11501(7) -0.23044(7) 0.38107(7)
N6ZB N 0.11893(7) -0.26956(7) 0.38499(7)
C10MA C 0.11846(10) -0.02383(10) 0.35200(9)
C10UC C 0.14800(9) -0.13154(10) 0.22617(10)
C10WE C 0.13154(10) -0.14800(9) 0.27383(10)
C10DC C 0.22617(10) -0.11846(10) 0.10200(9)
C10GE C 0.35200(9) -0.22617(10) 0.13154(10)
H5MA H 0.1278 -0.0176 0.3461
H5UC H 0.1539 -0.1222 0.2324
H5WE H 0.1222 -0.1539 0.2676
H5DC H 0.2324 -0.1278 0.0961
H5GE H 0.3461 -0.2324 0.1222
C11MA C 0.10944(10) -0.03661(10) 0.34250(10)
C11UC C 0.15750(10) -0.14056(10) 0.21339(10)
C11WE C 0.14056(10) -0.15750(10) 0.28661(10)
C11DC C 0.21339(10) -0.10944(10) 0.09250(10)
C11GE C 0.34250(10) -0.21339(10) 0.14056(10)
H6MA H 0.1125 -0.0391 0.3305
H6UC H 0.1695 -0.1375 0.2109
H6WE H 0.1375 -0.1695 0.2891
H6DC H 0.2109 -0.1125 0.0805
H6GE H 0.3305 -0.2109 0.1375
C12MA C 0.09567(8) -0.04580(8) 0.35086(8)
C12UC C 0.14914(8) -0.15433(8) 0.20420(8)
C12WE C 0.15433(8) -0.14914(8) 0.29580(8)
C12DC C 0.20420(8) -0.09567(8) 0.10086(8)
C12GE C 0.35086(8) -0.20420(8) 0.15433(8)
C13MA C 0.09152(9) -0.04114(9) 0.36820(9)
C13UC C 0.13180(9) -0.15848(9) 0.20886(9)
C13WE C 0.15848(9) -0.13180(9) 0.29114(9)
C13DC C 0.20886(9) -0.09152(9) 0.11820(9)
C13GE C 0.36820(9) -0.20886(9) 0.15848(9)
H7MA H 0.0819 -0.0468 0.3742
H7UC H 0.1258 -0.1681 0.2032
H7WE H 0.1681 -0.1258 0.2968
H7DC H 0.2032 -0.0819 0.1242
H7GE H 0.3742 -0.2032 0.1681
C14MA C 0.10147(9) -0.02816(9) 0.37666(8)
C14UC C 0.12334(8) -0.14853(9) 0.22184(9)
C14WE C 0.14853(9) -0.12334(8) 0.27816(9)
C14DC C 0.22184(9) -0.10147(9) 0.12666(8)
C14GE C 0.37666(8) -0.22184(9) 0.14853(9)
H8MA H 0.0985 -0.0252 0.3886
H8UC H 0.1114 -0.1515 0.2248
H8WE H 0.1515 -0.1114 0.2752
H8DC H 0.2248 -0.0985 0.1386
H8GE H 0.3886 -0.2248 0.1515
N7MA N 0.02110(6) -0.10953(7) 0.36224(7)
N7UC N 0.13776(7) -0.22890(6) 0.14047(7)
N7WE N 0.22890(6) -0.13776(7) 0.35953(7)
N7DC N 0.14047(7) -0.02110(6) 0.11224(7)
N7GE N 0.36224(7) -0.14047(7) 0.22890(6)
N7EC N 0.02110(6) -0.14047(7) 0.38776(7)
N7VC N 0.11224(7) -0.22890(6) 0.10953(7)
C15MA C 0.02438(8) -0.09245(9) 0.36643(9)
C15UC C 0.13357(9) -0.22562(8) 0.15755(9)
C15WE C 0.22562(8) -0.13357(9) 0.34245(9)
C15DC C 0.15755(9) -0.02438(8) 0.11643(9)
C15GE C 0.36643(9) -0.15755(9) 0.22562(8)
H9MA H 0.0167 -0.0868 0.3748
H9UC H 0.1252 -0.2333 0.1632
H9WE H 0.2333 -0.1252 0.3368
H9DC H 0.1632 -0.0167 0.1248
H9GE H 0.3748 -0.1632 0.2333
C16MA C 0.03799(8) -0.08264(9) 0.35942(9)
C16UC C 0.14058(9) -0.21201(8) 0.16736(9)
C16WE C 0.21201(8) -0.14058(9) 0.33264(9)
C16DC C 0.16736(9) -0.03799(8) 0.10942(9)
C16GE C 0.35942(9) -0.16736(9) 0.21201(8)
H10MA H 0.0398 -0.0706 0.3630
H10UC H 0.1370 -0.2102 0.1794
H10WE H 0.2102 -0.1370 0.3206
H10DC H 0.1794 -0.0398 0.1130
H10GE H 0.3630 -0.1794 0.2102
C17MA C 0.04916(8) -0.09053(8) 0.34689(8)
C17UC C 0.15311(8) -0.20084(8) 0.15947(8)
C17WE C 0.20084(8) -0.15311(8) 0.34053(8)
C17DC C 0.15947(8) -0.04916(8) 0.09689(8)
C17GE C 0.34689(8) -0.15947(8) 0.20084(8)
C18MA C 0.04616(8) -0.10803(9) 0.34208(8)
C18UC C 0.15792(8) -0.20384(8) 0.14197(9)
C18WE C 0.20384(8) -0.15792(8) 0.35803(9)
C18DC C 0.14197(9) -0.04616(8) 0.09208(8)
C18GE C 0.34208(8) -0.14197(9) 0.20384(8)
H11MA H 0.0535 -0.1137 0.3335
H11UC H 0.1665 -0.1965 0.1363
H11WE H 0.1965 -0.1665 0.3637
H11DC H 0.1363 -0.0535 0.0835
H11GE H 0.3335 -0.1363 0.1965
C19MA C 0.03208(8) -0.11718(9) 0.35018(9)
C19UC C 0.14982(9) -0.21792(8) 0.13282(9)
C19WE C 0.21792(8) -0.14982(9) 0.36718(9)
C19DC C 0.13282(9) -0.03208(8) 0.10018(9)
C19GE C 0.35018(9) -0.13282(9) 0.21792(8)
H12MA H 0.0301 -0.1293 0.3471
H12UC H 0.1529 -0.2199 0.1207
H12WE H 0.2199 -0.1529 0.3793
H12DC H 0.1207 -0.0301 0.0971
H12GE H 0.3471 -0.1207 0.2199
Co2MA Co 0.000523(14) -0.1250 0.3750
Co2UC Co 0.1250 -0.249477(14) 0.1250
Co2YB Co 0.250523(14) 0.1250 0.1250
Co2MB Co 0.1250 0.1250 -0.000523(14)
Co2WE Co 0.249477(14) -0.1250 0.3750
Co2G Co -0.000523(14) 0.1250 0.1250
Co2E Co 0.1250 0.1250 0.250523(14)
Co2YD Co 0.3750 -0.1250 0.249477(14)
N8DC N 0.14323(7) -0.00042(6) 0.14620(7)
N8MA N 0.00042(6) -0.10677(7) 0.39620(7)
N8EC N 0.00042(6) -0.14323(7) 0.35380(7)
N8UC N 0.10380(7) -0.24958(6) 0.14323(7)
N8VC N 0.14620(7) -0.24958(6) 0.10677(7)
C20DC C 0.15077(13) 0.00202(10) 0.15883(13)
C20MA C -0.00202(10) -0.09923(13) 0.40883(13)
C20EC C -0.00202(10) -0.15077(13) 0.34117(13)
C20UC C 0.09117(13) -0.25202(10) 0.15077(13)
C20VC C 0.15883(13) -0.25202(10) 0.09923(13)
S2DC S 0.15858(7) 0.00627(6) 0.17938(5)
S2MA S -0.00627(6) -0.09142(7) 0.42938(5)
S2EC S -0.00627(6) -0.15858(7) 0.32062(5)
S2UC S 0.07062(5) -0.25627(6) 0.15858(7)
S2VC S 0.17938(5) -0.25627(6) 0.09142(7)
N9YB N 0.22960(7) 0.11176(8) 0.10983(8)
N9JC N 0.13824(8) 0.10983(8) 0.02040(7)
N9DC N 0.10983(8) 0.02040(7) 0.13824(8)
N9LB N 0.02040(7) 0.11176(8) 0.14017(8)
N9M N 0.11176(8) 0.10983(8) 0.22960(7)
N9MA N -0.02040(7) -0.14017(8) 0.38824(8)
N9EC N -0.02040(7) -0.10983(8) 0.36176(8)
N9UC N 0.11176(8) -0.27040(7) 0.10983(8)
N9VC N 0.13824(8) -0.27040(7) 0.14017(8)
C21YB C 0.22545(12) 0.11492(12) 0.09328(12)
C21JC C 0.13508(12) 0.09328(12) 0.02455(12)
C21DC C 0.09328(12) 0.02455(12) 0.13508(12)
C21LB C 0.02455(12) 0.11492(12) 0.15672(12)
C21M C 0.11492(12) 0.09328(12) 0.22545(12)
H13YB H 0.2323 0.1235 0.0870
H13JC H 0.1265 0.0870 0.0177
H13DC H 0.0870 0.0177 0.1265
H13LB H 0.0177 0.1235 0.1630
H13M H 0.1235 0.0870 0.2323
C22YB C 0.21193(14) 0.10659(13) 0.08442(13)
C22JC C 0.14341(13) 0.08442(13) 0.03807(14)
C22DC C 0.08442(13) 0.03807(14) 0.14341(13)
C22LB C 0.03807(14) 0.10659(13) 0.16558(13)
C22M C 0.10659(13) 0.08442(13) 0.21193(14)
H14YB H 0.2095 0.1097 0.0724
H14JC H 0.1403 0.0724 0.0405
H14DC H 0.0724 0.0405 0.1403
H14LB H 0.0405 0.1097 0.1776
H14M H 0.1097 0.0724 0.2095
C23YB C 0.20185(10) 0.09379(10) 0.09274(11)
C23JC C 0.15621(10) 0.09274(11) 0.04815(10)
C23DC C 0.09274(11) 0.04815(10) 0.15621(10)
C23LB C 0.04815(10) 0.09379(10) 0.15726(11)
C23M C 0.09379(10) 0.09274(11) 0.20185(10)
C24YB C 0.20581(15) 0.09025(15) 0.11020(15)
C24JC C 0.15975(15) 0.11020(15) 0.04419(15)
C24DC C 0.11020(15) 0.04419(15) 0.15975(15)
C24LB C 0.04419(15) 0.09025(15) 0.13980(15)
C24M C 0.09025(15) 0.11020(15) 0.20581(15)
H15YB H 0.1995 0.0813 0.1165
H15JC H 0.1687 0.1165 0.0505
H15DC H 0.1165 0.0505 0.1687
H15LB H 0.0505 0.0813 0.1335
H15M H 0.0813 0.1165 0.1995
C25YB C 0.21922(16) 0.09992(16) 0.11856(16)
C25JC C 0.15008(16) 0.11856(16) 0.03078(16)
C25DC C 0.11856(16) 0.03078(16) 0.15008(16)
C25LB C 0.03078(16) 0.09992(16) 0.13144(16)
C25M C 0.09992(16) 0.11856(16) 0.21922(16)
H16YB H 0.2212 0.0981 0.1309
H16JC H 0.1519 0.1309 0.0288
H16DC H 0.1309 0.0288 0.1519
H16LB H 0.0288 0.0981 0.1191
H16M H 0.0981 0.1309 0.2212
C26YB C 0.18652(10) 0.08504(10) 0.08455(11)
C26JC C 0.16496(10) 0.08455(11) 0.06348(10)
C26DC C 0.08455(11) 0.06348(10) 0.16496(10)
C26LB C 0.06348(10) 0.08504(10) 0.16545(11)
C26M C 0.08504(10) 0.08455(11) 0.18652(10)
N10YB N 0.17962(9) 0.09239(9) 0.06969(9)
N10JC N 0.15761(9) 0.06969(9) 0.07038(9)
N10DC N 0.06969(9) 0.07038(9) 0.15761(9)
N10LB N 0.07038(9) 0.09239(9) 0.18031(9)
N10M N 0.09239(9) 0.06969(9) 0.17962(9)
S3? S 0.0765(2) 0.00528(17) 0.0827(3)
loop_
_geom_bond_atom_site_label_1
_geom_bond_atom_site_label_2
_geom_bond_site_symmetry_1
_geom_bond_site_symmetry_2
S1 C1 1_555 1_555
C1 N1 1_555 1_555
N1 Co1 1_555 1_555
Co1 N2 1_555 1_555
N2 C2 1_555 1_555
C2 H1 1_555 1_555
C3 C2 1_555 1_555
H2 C3 1_555 1_555
C4 C3 1_555 1_555
C5 C4 1_555 1_555
H3 C5 1_555 1_555
C6 N2 1_555 1_555
H4 C6 1_555 1_555
C7 C4 1_555 1_555
N3 C7 1_555 1_555
C8 N3 1_555 1_555
N4 C8 1_555 1_555
C9 N4 1_555 1_555
N5 C7 1_555 1_555
N6 C10 1_555 1_555
C10 H5 1_555 1_555
C11 C10 1_555 1_555
H6 C11 1_555 1_555
C12 C8 1_555 1_555
C13 C12 1_555 1_555
H7 C13 1_555 1_555
C14 N6 1_555 1_555
H8 C14 1_555 1_555
N7 C15 1_555 1_555
C15 H9 1_555 1_555
C16 C15 1_555 1_555
H10 C16 1_555 1_555
C17 C9 1_555 1_555
C18 C17 1_555 1_555
H11 C18 1_555 1_555
C19 N7 1_555 1_555
H12 C19 1_555 1_555
Co2 N7 1_555 1_555
N8 Co2 1_555 1_555
C20 N8 1_555 1_555
S2 C20 1_555 1_555
N9 Co2 1_555 1_555
C21 N9 1_555 1_555
H13 C21 1_555 1_555
C22 C21 1_555 1_555
H14 C22 1_555 1_555
C23 C22 1_555 1_555
C24 C23 1_555 1_555
H15 C24 1_555 1_555
C25 N9 1_555 1_555
H16 C25 1_555 1_555
C26 C23 1_555 1_555
N10 C26 1_555 1_555
O1 H17 1_555 1_555
C27 O1 1_555 1_555
C28 C27 1_555 1_555
H18 C28 1_555 1_555
C29 C28 1_555 1_555
H19 C29 1_555 1_555
C30 C29 1_555 1_555
C31 C30 1_555 1_555
H20 C31 1_555 1_555
C32 C27 1_555 1_555
H21 C32 1_555 1_555
N11 C30 1_555 1_555
H22 N11 1_555 1_555
C33 N11 1_555 1_555
C34 C33 1_555 1_555
H23 C34 1_555 1_555
C35 C34 1_555 1_555
H24 C35 1_555 1_555
C36 C35 1_555 1_555
H25 C36 1_555 1_555
C37 C36 1_555 1_555
H26 C37 1_555 1_555
C38 C33 1_555 1_555
H27 C38 1_555 1_555
O2 H28 1_555 1_555
C39 O2 1_555 1_555
C40 C39 1_555 1_555
H29 C40 1_555 1_555
C41 C40 1_555 1_555
H30 C41 1_555 1_555
C42 C41 1_555 1_555
C43 C42 1_555 1_555
H31 C43 1_555 1_555
C44 C39 1_555 1_555
H32 C44 1_555 1_555
N12 C42 1_555 1_555
H33 N12 1_555 1_555
C45 N12 1_555 1_555
C46 C45 1_555 1_555
H34 C46 1_555 1_555
C47 C46 1_555 1_555
H35 C47 1_555 1_555
C48 C47 1_555 1_555
H36 C48 1_555 1_555
C49 C48 1_555 1_555
H37 C49 1_555 1_555
C50 C45 1_555 1_555
H38 C50 1_555 1_555
C51 C52 1_555 1_555
C52 H39 1_555 1_555
C53 C52 1_555 1_555
H40 C53 1_555 1_555
C54 C53 1_555 1_555
C55 C54 1_555 1_555
H41 C55 1_555 1_555
C56 C51 1_555 1_555
H42 C56 1_555 1_555
N13 C54 1_555 1_555
H43 N13 1_555 1_555
C57 N13 1_555 1_555
C58 C57 1_555 1_555
H44 C58 1_555 1_555
C59 C58 1_555 1_555
H45 C59 1_555 1_555
C60 C59 1_555 1_555
H46 C60 1_555 1_555
C61 C60 1_555 1_555
H47 C61 1_555 1_555
C62 C57 1_555 1_555
H48 C62 1_555 1_555
O3 C51 1_555 1_555
H49 O3 1_555 1_555
S1MA C1MA 1_555 1_555
S1UC C1UC 1_555 1_555
S1GE C1GE 1_555 1_555
S1WE C1WE 1_555 1_555
S1JE C1JE 1_555 1_555
C1MA N1MA 1_555 1_555
C1UC N1UC 1_555 1_555
C1GE N1GE 1_555 1_555
C1WE N1WE 1_555 1_555
C1JE N1JE 1_555 1_555
N1MA Co1 1_555 1_555
N1UC Co1UC 1_555 1_555
N1GE Co1UC 1_555 1_555
N1WE Co1JE 1_555 1_555
N1JE Co1JE 1_555 1_555
Co1UC N2UC 1_555 1_555
Co1JE N2WE 1_555 1_555
Co1VC N6 1_555 1_555
Co1ZD N6MA 1_555 1_555
Co1H N2DC 1_555 1_555
Co1HC N6GE 1_555 1_555
N2MA Co1 1_555 1_555
N2UC C2UC 1_555 1_555
N2WE C2WE 1_555 1_555
N2DC C2DC 1_555 1_555
N2GE Co1UC 1_555 1_555
N2JE Co1JE 1_555 1_555
C2MA N2MA 1_555 1_555
C2UC H1UC 1_555 1_555
C2WE H1WE 1_555 1_555
C2DC H1DC 1_555 1_555
C2GE N2GE 1_555 1_555
H1MA C2MA 1_555 1_555
H1GE C2GE 1_555 1_555
C3MA C2MA 1_555 1_555
C3UC C2UC 1_555 1_555
C3WE C2WE 1_555 1_555
C3DC C2DC 1_555 1_555
C3GE C2GE 1_555 1_555
H2MA C3MA 1_555 1_555
H2UC C3UC 1_555 1_555
H2WE C3WE 1_555 1_555
H2DC C3DC 1_555 1_555
H2GE C3GE 1_555 1_555
C4MA C3MA 1_555 1_555
C4UC C3UC 1_555 1_555
C4WE C3WE 1_555 1_555
C4DC C3DC 1_555 1_555
C4GE C3GE 1_555 1_555
C5MA C4MA 1_555 1_555
C5UC C4UC 1_555 1_555
C5WE C4WE 1_555 1_555
C5DC C4DC 1_555 1_555
C5GE C4GE 1_555 1_555
H3MA C5MA 1_555 1_555
H3UC C5UC 1_555 1_555
H3WE C5WE 1_555 1_555
H3DC C5DC 1_555 1_555
H3GE C5GE 1_555 1_555
C6MA N2MA 1_555 1_555
C6UC N2UC 1_555 1_555
C6WE N2WE 1_555 1_555
C6DC N2DC 1_555 1_555
C6GE N2GE 1_555 1_555
H4MA C6MA 1_555 1_555
H4UC C6UC 1_555 1_555
H4WE C6WE 1_555 1_555
H4DC C6DC 1_555 1_555
H4GE C6GE 1_555 1_555
C7MA C4MA 1_555 1_555
C7UC C4UC 1_555 1_555
C7WE C4WE 1_555 1_555
C7DC C4DC 1_555 1_555
C7GE C4GE 1_555 1_555
N3MA C7MA 1_555 1_555
N3UC C7UC 1_555 1_555
N3WE C7WE 1_555 1_555
N3DC C7DC 1_555 1_555
N3GE C7GE 1_555 1_555
C8MA N3MA 1_555 1_555
C8UC N3UC 1_555 1_555
C8WE N3WE 1_555 1_555
C8DC N3DC 1_555 1_555
C8GE N3GE 1_555 1_555
N4MA C8MA 1_555 1_555
N4UC C8UC 1_555 1_555
N4WE C8WE 1_555 1_555
N4DC C8DC 1_555 1_555
N4GE C8GE 1_555 1_555
C9MA N4MA 1_555 1_555
C9UC N4UC 1_555 1_555
C9WE N4WE 1_555 1_555
C9DC N4DC 1_555 1_555
C9GE N4GE 1_555 1_555
N5MA C7MA 1_555 1_555
N5UC C7UC 1_555 1_555
N5WE C7WE 1_555 1_555
N5DC C7DC 1_555 1_555
N5GE C7GE 1_555 1_555
N6MA C10MA 1_555 1_555
N6UC Co1 1_555 1_555
N6WE Co1 1_555 1_555
N6DC Co1UC 1_555 1_555
N6GE C10GE 1_555 1_555
N6F Co1UC 1_555 1_555
N6EC Co1JE 1_555 1_555
N6ZB Co1JE 1_555 1_555
C10MA H5MA 1_555 1_555
C10UC N6UC 1_555 1_555
C10WE N6WE 1_555 1_555
C10DC N6DC 1_555 1_555
C10GE H5GE 1_555 1_555
H5UC C10UC 1_555 1_555
H5WE C10WE 1_555 1_555
H5DC C10DC 1_555 1_555
C11MA C10MA 1_555 1_555
C11UC C10UC 1_555 1_555
C11WE C10WE 1_555 1_555
C11DC C10DC 1_555 1_555
C11GE C10GE 1_555 1_555
H6MA C11MA 1_555 1_555
H6UC C11UC 1_555 1_555
H6WE C11WE 1_555 1_555
H6DC C11DC 1_555 1_555
H6GE C11GE 1_555 1_555
C12MA C8MA 1_555 1_555
C12UC C8UC 1_555 1_555
C12WE C8WE 1_555 1_555
C12DC C8DC 1_555 1_555
C12GE C8GE 1_555 1_555
C13MA C12MA 1_555 1_555
C13UC C12UC 1_555 1_555
C13WE C12WE 1_555 1_555
C13DC C12DC 1_555 1_555
C13GE C12GE 1_555 1_555
H7MA C13MA 1_555 1_555
H7UC C13UC 1_555 1_555
H7WE C13WE 1_555 1_555
H7DC C13DC 1_555 1_555
H7GE C13GE 1_555 1_555
C14MA N6MA 1_555 1_555
C14UC N6UC 1_555 1_555
C14WE N6WE 1_555 1_555
C14DC N6DC 1_555 1_555
C14GE N6GE 1_555 1_555
H8MA C14MA 1_555 1_555
H8UC C14UC 1_555 1_555
H8WE C14WE 1_555 1_555
H8DC C14DC 1_555 1_555
H8GE C14GE 1_555 1_555
N7MA C15MA 1_555 1_555
N7UC C15UC 1_555 1_555
N7WE C15WE 1_555 1_555
N7DC Co2 1_555 1_555
N7GE C15GE 1_555 1_555
N7EC Co2MA 1_555 1_555
N7VC Co2UC 1_555 1_555
C15MA H9MA 1_555 1_555
C15UC H9UC 1_555 1_555
C15WE H9WE 1_555 1_555
C15DC N7DC 1_555 1_555
C15GE H9GE 1_555 1_555
H9DC C15DC 1_555 1_555
C16MA C15MA 1_555 1_555
C16UC C15UC 1_555 1_555
C16WE C15WE 1_555 1_555
C16DC C15DC 1_555 1_555
C16GE C15GE 1_555 1_555
H10MA C16MA 1_555 1_555
H10UC C16UC 1_555 1_555
H10WE C16WE 1_555 1_555
H10DC C16DC 1_555 1_555
H10GE C16GE 1_555 1_555
C17MA C9MA 1_555 1_555
C17UC C9UC 1_555 1_555
C17WE C9WE 1_555 1_555
C17DC C9DC 1_555 1_555
C17GE C9GE 1_555 1_555
C18MA C17MA 1_555 1_555
C18UC C17UC 1_555 1_555
C18WE C17WE 1_555 1_555
C18DC C17DC 1_555 1_555
C18GE C17GE 1_555 1_555
H11MA C18MA 1_555 1_555
H11UC C18UC 1_555 1_555
H11WE C18WE 1_555 1_555
H11DC C18DC 1_555 1_555
H11GE C18GE 1_555 1_555
C19MA N7MA 1_555 1_555
C19UC N7UC 1_555 1_555
C19WE N7WE 1_555 1_555
C19DC N7DC 1_555 1_555
C19GE N7GE 1_555 1_555
H12MA C19MA 1_555 1_555
H12UC C19UC 1_555 1_555
H12WE C19WE 1_555 1_555
H12DC C19DC 1_555 1_555
H12GE C19GE 1_555 1_555
Co2MA N7MA 1_555 1_555
Co2UC N7UC 1_555 1_555
Co2YB N9YB 1_555 1_555
Co2MB N9JC 1_555 1_555
Co2WE N7WE 1_555 1_555
Co2G N9LB 1_555 1_555
Co2E N9M 1_555 1_555
Co2YD N7GE 1_555 1_555
N8DC Co2 1_555 1_555
N8MA Co2MA 1_555 1_555
N8EC Co2MA 1_555 1_555
N8UC Co2UC 1_555 1_555
N8VC Co2UC 1_555 1_555
C20DC N8DC 1_555 1_555
C20MA N8MA 1_555 1_555
C20EC N8EC 1_555 1_555
C20UC N8UC 1_555 1_555
C20VC N8VC 1_555 1_555
S2DC C20DC 1_555 1_555
S2MA C20MA 1_555 1_555
S2EC C20EC 1_555 1_555
S2UC C20UC 1_555 1_555
S2VC C20VC 1_555 1_555
N9YB C21YB 1_555 1_555
N9JC C21JC 1_555 1_555
N9DC Co2 1_555 1_555
N9LB C21LB 1_555 1_555
N9M C21M 1_555 1_555
N9MA Co2MA 1_555 1_555
N9EC Co2MA 1_555 1_555
N9UC Co2UC 1_555 1_555
N9VC Co2UC 1_555 1_555
C21YB H13YB 1_555 1_555
C21JC H13JC 1_555 1_555
C21DC N9DC 1_555 1_555
C21LB H13LB 1_555 1_555
C21M H13M 1_555 1_555
H13DC C21DC 1_555 1_555
C22YB C21YB 1_555 1_555
C22JC C21JC 1_555 1_555
C22DC C21DC 1_555 1_555
C22LB C21LB 1_555 1_555
C22M C21M 1_555 1_555
H14YB C22YB 1_555 1_555
H14JC C22JC 1_555 1_555
H14DC C22DC 1_555 1_555
H14LB C22LB 1_555 1_555
H14M C22M 1_555 1_555
C23YB C22YB 1_555 1_555
C23JC C22JC 1_555 1_555
C23DC C22DC 1_555 1_555
C23LB C22LB 1_555 1_555
C23M C22M 1_555 1_555
C24YB C23YB 1_555 1_555
C24JC C23JC 1_555 1_555
C24DC C23DC 1_555 1_555
C24LB C23LB 1_555 1_555
C24M C23M 1_555 1_555
H15YB C24YB 1_555 1_555
H15JC C24JC 1_555 1_555
H15DC C24DC 1_555 1_555
H15LB C24LB 1_555 1_555
H15M C24M 1_555 1_555
C25YB N9YB 1_555 1_555
C25JC N9JC 1_555 1_555
C25DC N9DC 1_555 1_555
C25LB N9LB 1_555 1_555
C25M N9M 1_555 1_555
H16YB C25YB 1_555 1_555
H16JC C25JC 1_555 1_555
H16DC C25DC 1_555 1_555
H16LB C25LB 1_555 1_555
H16M C25M 1_555 1_555
C26YB N10 1_555 1_555
C26JC C23JC 1_555 1_555
C26DC C23DC 1_555 1_555
C26LB C23LB 1_555 1_555
C26M C23M 1_555 1_555
N10YB C26YB 1_555 1_555
N10JC C26 1_555 1_555
N10DC C26DC 1_555 1_555
N10LB C26LB 1_555 1_555
N10M C26DC 1_555 1_555
C5 C6 1_555 1_555
C9 N5 1_555 1_555
C11 C12 1_555 1_555
C13 C14 1_555 1_555
C16 C17 1_555 1_555
C18 C19 1_555 1_555
C24 C25 1_555 1_555
C31 C32 1_555 1_555
C37 C38 1_555 1_555
C43 C44 1_555 1_555
C49 C50 1_555 1_555
C55 C56 1_555 1_555
C61 C62 1_555 1_555
C5MA C6MA 1_555 1_555
C5UC C6UC 1_555 1_555
C5WE C6WE 1_555 1_555
C5DC C6DC 1_555 1_555
C5GE C6GE 1_555 1_555
C9MA N5MA 1_555 1_555
C9UC N5UC 1_555 1_555
C9WE N5WE 1_555 1_555
C9DC N5DC 1_555 1_555
C9GE N5GE 1_555 1_555
C11MA C12MA 1_555 1_555
C11UC C12UC 1_555 1_555
C11WE C12WE 1_555 1_555
C11DC C12DC 1_555 1_555
C11GE C12GE 1_555 1_555
C13MA C14MA 1_555 1_555
C13UC C14UC 1_555 1_555
C13WE C14WE 1_555 1_555
C13DC C14DC 1_555 1_555
C13GE C14GE 1_555 1_555
C16MA C17MA 1_555 1_555
C16UC C17UC 1_555 1_555
C16WE C17WE 1_555 1_555
C16DC C17DC 1_555 1_555
C16GE C17GE 1_555 1_555
C18MA C19MA 1_555 1_555
C18UC C19UC 1_555 1_555
C18WE C19WE 1_555 1_555
C18DC C19DC 1_555 1_555
C18GE C19GE 1_555 1_555
C23YB C26YB 1_555 1_555
C24YB C25YB 1_555 1_555
C24JC C25JC 1_555 1_555
C24DC C25DC 1_555 1_555
C24LB C25LB 1_555 1_555
C24M C25M 1_555 1_555
C26JC N10YB 1_555 1_555
C26JC N10JC 1_555 1_555
C26LB N10DC 1_555 1_555
C26M N10LB 1_555 1_555
C26M N10M 1_555 1_555

#END
