
#######################################################################
#
#                 Cambridge Crystallographic Data Centre
#                                CCDC 
#
#######################################################################
#
# If this CIF has been generated from an entry in the Cambridge 
# Structural Database, then it will include bibliographic, chemical, 
# crystal, experimental, refinement or atomic coordinate data resulting 
# from the CCDC's data processing and validation procedures.
#
#######################################################################

data_FALCUR
_symmetry_cell_setting           triclinic
_symmetry_space_group_name_H-M   'P -1'
_symmetry_Int_Tables_number      2
_space_group_name_Hall           '-P 1'
loop_
_symmetry_equiv_pos_site_id
_symmetry_equiv_pos_as_xyz
1 x,y,z
2 -x,-y,-z
_cell_length_a                   6.62200(10)
_cell_length_b                   7.7322(2)
_cell_length_c                   9.8897(4)
_cell_angle_alpha                80.5127(10)
_cell_angle_beta                 88.4579(11)
_cell_angle_gamma                70.5583(18)
_cell_volume                     470.761
loop_
_atom_site_label
_atom_site_type_symbol
_atom_site_fract_x
_atom_site_fract_y
_atom_site_fract_z
Cd1 Cd 0.21316(3) 0.10236(3) 0.95263(2)
C1 C 0.2965(5) 0.1889(5) 0.6254(4)
H1 H 0.3312 0.0607 0.6335
C2 C 0.3189(6) 0.2885(5) 0.4998(4)
H2 H 0.3658 0.2282 0.4251
C3 C 0.2715(5) 0.4761(5) 0.4865(3)
H3 H 0.2883 0.5453 0.4033
C4 C 0.1977(5) 0.5618(5) 0.5992(3)
H4 H 0.1641 0.6897 0.5929
C5 C 0.1750(4) 0.4548(4) 0.7206(3)
C6 C 0.0855(5) 0.5409(4) 0.8410(3)
H5 H 0.0584 0.6676 0.8375
N1 N 0.2272(4) 0.2685(3) 0.7354(3)
N2 N 0.0444(4) 0.4472(3) 0.9489(3)
N3 N -0.0474(5) 0.0033(4) 0.8614(3)
N4 N -0.1155(5) 0.0334(4) 0.7461(3)
N5 N -0.1770(6) 0.0580(6) 0.6343(4)
N6 N 0.5160(4) -0.1432(4) 0.9212(3)
N7 N 0.5250(4) -0.2805(4) 0.8772(3)
N8 N 0.5369(6) -0.4123(5) 0.8344(4)
Cd1A Cd -0.21316(3) -0.10236(3) 1.04737(2)
Cd1A_2 Cd 0.78684(3) -0.10236(3) 1.04737(2)
Cd1A_3 Cd -0.21316(3) 0.89764(3) 1.04737(2)
C1A C -0.2965(5) 0.8111(5) 1.3746(4)
H1A H -0.3312 0.9393 1.3665
C2A C -0.3189(6) 0.7115(5) 1.5002(4)
H2A H -0.3658 0.7718 1.5749
C3A C -0.2715(5) 0.5239(5) 1.5135(3)
H3A H -0.2883 0.4547 1.5967
C4A C -0.1977(5) 0.4382(5) 1.4008(3)
H4A H -0.1641 0.3103 1.4071
C5A C -0.1750(4) 0.5452(4) 1.2794(3)
C6A C -0.0855(5) 0.4591(4) 1.1590(3)
H5A H -0.0584 0.3324 1.1625
N1A N -0.2272(4) 0.7315(3) 1.2646(3)
N2A N -0.0444(4) 0.5528(3) 1.0511(3)
N3A N 0.0474(5) -0.0033(4) 1.1386(3)
N3_2 N -0.0474(5) 1.0033(4) 0.8614(3)
N3A_2 N 0.0474(5) 0.9967(4) 1.1386(3)
N4A N 0.1155(5) -0.0334(4) 1.2539(3)
N5A N 0.1770(6) -0.0580(6) 1.3657(4)
N6A N 0.4840(4) 0.1432(4) 1.0788(3)
N6_2 N -0.4840(4) 0.8568(4) 0.9212(3)
N6A_2 N -0.5160(4) 1.1432(4) 1.0788(3)
N7A N 0.4750(4) 0.2805(4) 1.1228(3)
N8A N 0.4631(6) 0.4123(5) 1.1656(4)
loop_
_geom_bond_atom_site_label_1
_geom_bond_atom_site_label_2
_geom_bond_site_symmetry_1
_geom_bond_site_symmetry_2
Cd1 N1 1_555 1_555
C1 H1 1_555 1_555
C2 C1 1_555 1_555
H2 C2 1_555 1_555
C3 C2 1_555 1_555
H3 C3 1_555 1_555
C4 C3 1_555 1_555
H4 C4 1_555 1_555
C5 C4 1_555 1_555
C6 C5 1_555 1_555
H5 C6 1_555 1_555
N1 C1 1_555 1_555
N2 Cd1 1_555 1_555
N3 Cd1 1_555 1_555
N4 N3 1_555 1_555
N5 N4 1_555 1_555
N6 Cd1 1_555 1_555
N7 N6 1_555 1_555
N8 N7 1_555 1_555
Cd1A N3 1_555 1_555
Cd1A_2 N6 1_555 1_555
Cd1A_3 N1A 1_555 1_555
C1A H1A 1_555 1_555
C2A C1A 1_555 1_555
H2A C2A 1_555 1_555
C3A C2A 1_555 1_555
H3A C3A 1_555 1_555
C4A C3A 1_555 1_555
H4A C4A 1_555 1_555
C5A C4A 1_555 1_555
C6A C5A 1_555 1_555
H5A C6A 1_555 1_555
N1A C1A 1_555 1_555
N2A N2 1_555 1_555
N3A Cd1 1_555 1_555
N3_2 Cd1A_3 1_555 1_555
N3A_2 Cd1A_3 1_555 1_555
N4A N3A 1_555 1_555
N5A N4A 1_555 1_555
N6A Cd1 1_555 1_555
N6_2 Cd1A_3 1_555 1_555
N6A_2 Cd1A_3 1_555 1_555
N7A N6A 1_555 1_555
N8A N7A 1_555 1_555
C5 N1 1_555 1_555
C6 N2 1_555 1_555
Cd1A N3A 1_555 1_555
Cd1A_2 N6A 1_555 1_555
Cd1A_3 N2A 1_555 1_555
C5A N1A 1_555 1_555
C6A N2A 1_555 1_555

#END
