
#######################################################################
#
#                 Cambridge Crystallographic Data Centre
#                                CCDC 
#
#######################################################################
#
# If this CIF has been generated from an entry in the Cambridge 
# Structural Database, then it will include bibliographic, chemical, 
# crystal, experimental, refinement or atomic coordinate data resulting 
# from the CCDC's data processing and validation procedures.
#
#######################################################################

data_FALDEC
_symmetry_cell_setting           monoclinic
_symmetry_space_group_name_H-M   'C 2/c'
_symmetry_Int_Tables_number      15
_space_group_name_Hall           '-C 2yn'
loop_
_symmetry_equiv_pos_site_id
_symmetry_equiv_pos_as_xyz
1 x,y,z
2 1/2+x,1/2+y,z
3 -x,y,1/2-z
4 1/2-x,1/2+y,1/2-z
5 -x,-y,-z
6 1/2-x,1/2-y,-z
7 x,-y,1/2+z
8 1/2+x,1/2-y,1/2+z
_cell_length_a                   13.3175(3)
_cell_length_b                   12.4223(4)
_cell_length_c                   13.3087(3)
_cell_angle_alpha                90
_cell_angle_beta                 118.3830(16)
_cell_angle_gamma                90
_cell_volume                     1937.04
loop_
_atom_site_label
_atom_site_type_symbol
_atom_site_fract_x
_atom_site_fract_y
_atom_site_fract_z
Cd1 Cd 0.083026(17) 0.454492(17) 0.427384(17)
N1 N -0.1814(3) 0.4300(2) 0.3270(3)
N2 N -0.0968(2) 0.4555(3) 0.4108(3)
N3 N -0.2621(3) 0.4040(4) 0.2465(3)
N4 N 0.0000 0.3641(3) 0.2500
N5 N 0.2558(2) 0.5407(2) 0.4690(2)
C1 C 0.3546(3) 0.5203(4) 0.5604(3)
H1 H 0.3574 0.4678 0.6115
N6 N 0.1846(2) 0.3003(2) 0.5165(2)
N7 N 0.0505(3) 0.6032(2) 0.3018(3)
C2 C 0.1395(4) 0.6370(3) 0.2967(3)
C3 C 0.2516(3) 0.6182(3) 0.3968(3)
C4 C 0.3488(4) 0.6725(4) 0.4129(4)
H2 H 0.3453 0.7234 0.3600
C5 C 0.4545(4) 0.5750(4) 0.5828(4)
H3 H 0.5226 0.5599 0.6481
N8 N 0.0000 0.2692(4) 0.2500
N9 N 0.0000 0.1771(4) 0.2500
N10 N 0.2500 0.2500 0.5000
N11 N 0.1251(6) 0.6895(5) 0.2152(5)
H4 H 0.0570 0.7035 0.1625
H5 H 0.1829 0.7131 0.2094
C6 C 0.4503(4) 0.6503(4) 0.5078(5)
H6 H 0.5163 0.6869 0.5205
Cd1D Cd -0.083026(17) 0.545508(17) 0.572616(17)
Cd1B Cd -0.083026(17) 0.454492(17) 0.072616(17)
Cd1E Cd 0.416974(17) 0.045508(17) 0.572616(17)
N1D N 0.1814(3) 0.5700(2) 0.6730(3)
N2D N 0.0968(2) 0.5445(3) 0.5892(3)
N3D N 0.2621(3) 0.5960(4) 0.7535(3)
N4F N 0.0000 0.6359(3) 0.7500
N5B N -0.2558(2) 0.5407(2) 0.0310(2)
N5D N -0.2558(2) 0.4593(2) 0.5310(2)
C1B C -0.3546(3) 0.5203(4) -0.0604(3)
H1B H -0.3574 0.4678 -0.1115
N6E N 0.3154(2) 0.1997(2) 0.4835(2)
N6D N -0.1846(2) 0.6997(2) 0.4835(2)
N7B N -0.0505(3) 0.6032(2) 0.1982(3)
N7D N -0.0505(3) 0.3968(2) 0.6982(3)
C2B C -0.1395(4) 0.6370(3) 0.2033(3)
C3B C -0.2516(3) 0.6182(3) 0.1032(3)
C4B C -0.3488(4) 0.6725(4) 0.0871(4)
H2B H -0.3453 0.7234 0.1400
C5B C -0.4545(4) 0.5750(4) -0.0828(4)
H3B H -0.5226 0.5599 -0.1481
N11B N -0.1251(6) 0.6895(5) 0.2848(5)
H4B H -0.0570 0.7035 0.3375
H5B H -0.1829 0.7131 0.2906
C6B C -0.4503(4) 0.6503(4) -0.0078(5)
H6B H -0.5163 0.6869 -0.0205
loop_
_geom_bond_atom_site_label_1
_geom_bond_atom_site_label_2
_geom_bond_site_symmetry_1
_geom_bond_site_symmetry_2
Cd1 N2 1_555 1_555
N1 N2 1_555 1_555
N2 Cd1D 1_555 1_555
N3 N1 1_555 1_555
N4 Cd1 1_555 1_555
N5 Cd1 1_555 1_555
C1 N5 1_555 1_555
H1 C1 1_555 1_555
N6 Cd1 1_555 1_555
N7 Cd1 1_555 1_555
C2 N7 1_555 1_555
C3 N5 1_555 1_555
C4 C3 1_555 1_555
H2 C4 1_555 1_555
C5 C1 1_555 1_555
H3 C5 1_555 1_555
N8 N4 1_555 1_555
N9 N8 1_555 1_555
N10 N6 1_555 1_555
N11 C2 1_555 1_555
H4 N11 1_555 1_555
H5 N11 1_555 1_555
C6 C4 1_555 1_555
H6 C6 1_555 1_555
Cd1D N2D 1_555 1_555
Cd1B N4 1_555 1_555
Cd1E N6E 1_555 1_555
N1D N2D 1_555 1_555
N2D Cd1 1_555 1_555
N3D N1D 1_555 1_555
N4F Cd1D 1_555 1_555
N5B Cd1B 1_555 1_555
N5D Cd1D 1_555 1_555
C1B N5B 1_555 1_555
H1B C1B 1_555 1_555
N6E N10 1_555 1_555
N6D Cd1D 1_555 1_555
N7B N7 1_555 1_555
N7D Cd1D 1_555 1_555
C2B N7B 1_555 1_555
C3B N5B 1_555 1_555
C4B C3B 1_555 1_555
H2B C4B 1_555 1_555
C5B C1B 1_555 1_555
H3B C5B 1_555 1_555
N11B C2B 1_555 1_555
H4B N11B 1_555 1_555
H5B N11B 1_555 1_555
C6B C4B 1_555 1_555
H6B C6B 1_555 1_555
C2 C3 1_555 1_555
C5 C6 1_555 1_555
Cd1B N7B 1_555 1_555
C2B C3B 1_555 1_555
C5B C6B 1_555 1_555

#END
