
#######################################################################
#
#                 Cambridge Crystallographic Data Centre
#                                CCDC 
#
#######################################################################
#
# If this CIF has been generated from an entry in the Cambridge 
# Structural Database, then it will include bibliographic, chemical, 
# crystal, experimental, refinement or atomic coordinate data resulting 
# from the CCDC's data processing and validation procedures.
#
#######################################################################

data_FALDAY
_symmetry_cell_setting           orthorhombic
_symmetry_space_group_name_H-M   'P n a 21'
_symmetry_Int_Tables_number      33
_space_group_name_Hall           'P 2c -2n'
loop_
_symmetry_equiv_pos_site_id
_symmetry_equiv_pos_as_xyz
1 x,y,z
2 -x,-y,1/2+z
3 1/2+x,1/2-y,z
4 1/2-x,1/2+y,1/2+z
_cell_length_a                   10.75430(10)
_cell_length_b                   15.5103(2)
_cell_length_c                   22.9109(4)
_cell_angle_alpha                90
_cell_angle_beta                 90
_cell_angle_gamma                90
_cell_volume                     3821.59
loop_
_atom_site_label
_atom_site_type_symbol
_atom_site_fract_x
_atom_site_fract_y
_atom_site_fract_z
Cd1 Cd 0.53816(4) 0.15825(3) 0.302450(17)
Cd2 Cd 0.54851(4) -0.14883(3) 0.315500(19)
C1 C 0.5975(8) 0.2483(5) 0.4257(5)
H1 H 0.5335 0.2854 0.4151
C2 C 0.6735(8) 0.2710(4) 0.4708(4)
H2 H 0.6621 0.3232 0.4900
C3 C 0.7678(7) 0.2156(5) 0.4878(4)
H3 H 0.8204 0.2300 0.5186
C4 C 0.7821(7) 0.1393(5) 0.4586(4)
H4 H 0.8435 0.1004 0.4695
C5 C 0.7023(6) 0.1211(4) 0.4120(3)
C6 C 0.7132(6) 0.0400(5) 0.3783(4)
C7 C 0.7223(7) -0.0319(5) 0.2401(4)
C8 C 0.7730(9) 0.0449(5) 0.2095(4)
H5 H 0.7730 0.0934 0.2356
H6 H 0.8566 0.0333 0.1970
H7 H 0.7223 0.0577 0.1761
C9 C 0.7153(6) -0.1126(4) 0.2058(4)
C10 C 0.7937(7) -0.1320(5) 0.1602(4)
H8 H 0.8533 -0.0923 0.1482
C11 C 0.7836(8) -0.2100(5) 0.1325(4)
H9 H 0.8385 -0.2238 0.1025
C12 C 0.6951(8) -0.2667(5) 0.1481(5)
H10 H 0.6861 -0.3193 0.1291
C13 C 0.6174(7) -0.2431(4) 0.1942(4)
H11 H 0.5544 -0.2809 0.2051
C14 C 0.4680(7) 0.2249(4) 0.1732(4)
H12 H 0.5198 0.2705 0.1832
C15 C 0.3985(10) 0.2291(5) 0.1241(5)
H13 H 0.4036 0.2783 0.1011
C16 C 0.3231(9) 0.1657(5) 0.1073(5)
H14 H 0.2790 0.1694 0.0725
C17 C 0.3119(7) 0.0946(5) 0.1428(4)
H15 H 0.2586 0.0495 0.1332
C18 C 0.3838(7) 0.0924(4) 0.1942(4)
C19 C 0.3782(9) 0.0210(5) 0.2376(4)
C20 C 0.3442(9) -0.0591(5) 0.2168(4)
H16 H 0.3438 -0.0998 0.2484
H17 H 0.2626 -0.0559 0.2000
H18 H 0.4026 -0.0774 0.1877
C21 C 0.3712(8) -0.0196(5) 0.3821(4)
C22 C 0.3861(6) -0.0916(5) 0.4221(4)
C23 C 0.3217(7) -0.0972(5) 0.4732(4)
H19 H 0.2685 -0.0526 0.4838
C24 C 0.3336(9) -0.1659(5) 0.5085(5)
H20 H 0.2848 -0.1701 0.5419
C25 C 0.4186(9) -0.2306(6) 0.4954(5)
H21 H 0.4305 -0.2779 0.5197
C26 C 0.4855(7) -0.2199(5) 0.4428(5)
H22 H 0.5440 -0.2615 0.4327
N1 N 0.6117(5) 0.1755(4) 0.3965(3)
N2 N 0.6836(4) 0.0464(3) 0.3227(3)
N3 N 0.6844(5) -0.0330(4) 0.2925(3)
N4 N 0.6286(5) -0.1689(3) 0.2237(3)
N5 N 0.7568(8) -0.0284(5) 0.4033(4)
H23 H 0.7686 -0.0745 0.3833
H24 H 0.7740 -0.0276 0.4400
N6 N 0.4623(5) 0.1556(3) 0.2075(4)
N7 N 0.4023(4) 0.0386(3) 0.2907(3)
N8 N 0.4074(4) -0.0331(3) 0.3289(3)
N9 N 0.4688(5) -0.1530(3) 0.4072(4)
N10 N 0.3189(11) 0.0594(5) 0.4010(4)
H25 H 0.3099 0.1013 0.3768
H26 H 0.2961 0.0655 0.4368
N11 N 0.1941(7) 0.2467(5) 0.2714(4)
N12 N 0.2867(7) 0.2503(4) 0.2971(4)
N13 N 0.3815(6) 0.2543(4) 0.3238(4)
N14 N 0.3836(6) -0.2392(5) 0.2900(4)
N15 N 0.3005(7) -0.2538(4) 0.3187(5)
N16 N 0.2132(7) -0.2681(6) 0.3485(4)
Cd1B Cd 0.03816(4) 0.34175(3) 0.302450(17)
Cd2B Cd 0.04851(4) -0.35117(3) 0.315500(19)
N11B N 0.6941(7) 0.2533(5) 0.2714(4)
N16B N 0.7132(7) -0.2319(6) 0.3485(4)
Cl1 Cl 0.0092(4) 0.01355(11) 0.05235(18)
O1 O 0.1152(7) 0.0527(5) 0.0288(4)
O2 O -0.0516(9) -0.0292(6) 0.0071(5)
O3 O 0.0476(10) -0.0547(8) 0.0832(6)
O4 O -0.0800(10) 0.0683(7) 0.0743(6)
Cl2 Cl 0.5046(3) 0.06059(11) 0.56045(14)
O5 O 0.5522(18) 0.0121(10) 0.5105(9)
O7 O 0.4377(12) 0.0216(12) 0.6028(7)
O9 O 0.625(2) 0.0933(11) 0.5901(8)
O11 O 0.450(2) 0.1349(13) 0.5303(8)
O13 O 0.5452(15) 0.5590(12) 0.3271(10)
O6? O 0.5877(19) -0.0008(9) 0.5262(9)
O8? O 0.4478(15) -0.0082(14) 0.5945(8)
O10? O 0.5744(17) 0.1123(9) 0.5965(7)
O12? O 0.3962(18) 0.1058(11) 0.5312(7)
O14? O 0.536(3) 0.459(2) 0.3282(17)
loop_
_geom_bond_atom_site_label_1
_geom_bond_atom_site_label_2
_geom_bond_site_symmetry_1
_geom_bond_site_symmetry_2
Cd1 N1 1_555 1_555
Cd2 N3 1_555 1_555
C1 H1 1_555 1_555
C2 C1 1_555 1_555
H2 C2 1_555 1_555
C3 C2 1_555 1_555
H3 C3 1_555 1_555
C4 C3 1_555 1_555
H4 C4 1_555 1_555
C5 C4 1_555 1_555
C6 C5 1_555 1_555
C7 C8 1_555 1_555
C8 H5 1_555 1_555
H6 C8 1_555 1_555
H7 C8 1_555 1_555
C9 C7 1_555 1_555
C10 C9 1_555 1_555
H8 C10 1_555 1_555
C11 C10 1_555 1_555
H9 C11 1_555 1_555
C12 C11 1_555 1_555
H10 C12 1_555 1_555
C13 C12 1_555 1_555
H11 C13 1_555 1_555
C14 H12 1_555 1_555
C15 C14 1_555 1_555
H13 C15 1_555 1_555
C16 C15 1_555 1_555
H14 C16 1_555 1_555
C17 C16 1_555 1_555
H15 C17 1_555 1_555
C18 C17 1_555 1_555
C19 C18 1_555 1_555
C20 C19 1_555 1_555
H16 C20 1_555 1_555
H17 C20 1_555 1_555
H18 C20 1_555 1_555
C21 C22 1_555 1_555
C22 C23 1_555 1_555
C23 H19 1_555 1_555
C24 C23 1_555 1_555
H20 C24 1_555 1_555
C25 C24 1_555 1_555
H21 C25 1_555 1_555
C26 C25 1_555 1_555
H22 C26 1_555 1_555
N1 C1 1_555 1_555
N2 Cd1 1_555 1_555
N3 C7 1_555 1_555
N4 Cd2 1_555 1_555
N5 C6 1_555 1_555
H23 N5 1_555 1_555
H24 N5 1_555 1_555
N6 Cd1 1_555 1_555
N7 Cd1 1_555 1_555
N8 Cd2 1_555 1_555
N9 Cd2 1_555 1_555
N10 C21 1_555 1_555
H25 N10 1_555 1_555
H26 N10 1_555 1_555
N11 N12 1_555 1_555
N12 N13 1_555 1_555
N13 Cd1 1_555 1_555
N14 Cd2 1_555 1_555
N15 N14 1_555 1_555
N16 N15 1_555 1_555
Cl1 O1 1_555 1_555
Cl2 O5 1_555 1_555
O2 Cl1 1_555 1_555
O3 Cl1 1_555 1_555
O4 Cl1 1_555 1_555
O7 Cl2 1_555 1_555
O9 Cl2 1_555 1_555
O11 Cl2 1_555 1_555
Cd1B N11 1_555 1_555
Cd2B N16 1_555 1_555
N11B Cd1 1_555 1_555
N16B Cd2 1_555 1_555
C5 N1 1_555 1_555
C6 N2 1_555 1_555
C9 N4 1_555 1_555
C13 N4 1_555 1_555
C14 N6 1_555 1_555
C18 N6 1_555 1_555
C19 N7 1_555 1_555
C21 N8 1_555 1_555
C22 N9 1_555 1_555
C26 N9 1_555 1_555
N2 N3 1_555 1_555
N7 N8 1_555 1_555

#END
