
#######################################################################
#
#                 Cambridge Crystallographic Data Centre
#                                CCDC 
#
#######################################################################
#
# If this CIF has been generated from an entry in the Cambridge 
# Structural Database, then it will include bibliographic, chemical, 
# crystal, experimental, refinement or atomic coordinate data resulting 
# from the CCDC's data processing and validation procedures.
#
#######################################################################

data_FALGEG
_symmetry_cell_setting           monoclinic
_symmetry_space_group_name_H-M   'C 2/c'
_symmetry_Int_Tables_number      15
_space_group_name_Hall           '-C 2yn'
loop_
_symmetry_equiv_pos_site_id
_symmetry_equiv_pos_as_xyz
1 x,y,z
2 -x,y,1/2-z
3 1/2+x,1/2+y,z
4 1/2-x,1/2+y,1/2-z
5 -x,-y,-z
6 x,-y,1/2+z
7 1/2-x,1/2-y,-z
8 1/2+x,1/2-y,1/2+z
_cell_length_a                   6.9366(11)
_cell_length_b                   31.607(5)
_cell_length_c                   6.2680(9)
_cell_angle_alpha                90
_cell_angle_beta                 96.467(2)
_cell_angle_gamma                90
_cell_volume                     1365.48
loop_
_atom_site_label
_atom_site_type_symbol
_atom_site_fract_x
_atom_site_fract_y
_atom_site_fract_z
C1 C 1.0000 0.92087(10) 0.2500
C2 C 1.0000 0.87376(10) 0.2500
C3 C 0.9539(4) 0.85135(8) 0.0599(4)
H1 H 0.9246 0.8659 -0.0686
C4 C 0.9514(4) 0.80773(8) 0.0612(4)
H2 H 0.9166 0.7932 -0.0664
C5 C 1.0000 0.78506(10) 0.2500
C6 C 1.0000 0.73805(10) 0.2500
C7 C 1.0575(4) 0.71523(8) 0.0769(4)
H3 H 1.0935 0.7297 -0.0416
C8 C 1.0617(4) 0.67152(7) 0.0792(4)
H4 H 1.1063 0.6570 -0.0346
C9 C 1.0000 0.64911(10) 0.2500
C10 C 1.0000 0.60167(10) 0.2500
O1 O 0.9890(3) 0.93921(5) 0.0704(3)
O2 O 1.1001(3) 0.58302(5) 0.1229(3)
O3 O 0.7886(3) 1.01242(5) 0.2206(3)
H5 H 0.707(4) 0.9927(6) 0.210(5)
H6 H 0.730(4) 1.0354(5) 0.201(4)
Zn1 Zn 1.0000 1.0000 0.0000
C3A C 1.0461(4) 0.85135(8) 0.4401(4)
H1A H 1.0754 0.8659 0.5686
C4A C 1.0486(4) 0.80773(8) 0.4388(4)
H2A H 1.0834 0.7932 0.5664
C7A C 0.9425(4) 0.71523(8) 0.4231(4)
H3A H 0.9065 0.7297 0.5416
C8A C 0.9383(4) 0.67152(7) 0.4208(4)
H4A H 0.8937 0.6570 0.5346
O1A O 1.0110(3) 0.93921(5) 0.4296(3)
O1D O 1.0110(3) 1.06079(5) -0.0704(3)
O2A O 0.8999(3) 0.58302(5) 0.3771(3)
O3A O 1.2114(3) 1.01242(5) 0.2794(3)
O3D O 1.2114(3) 0.98758(5) -0.2206(3)
O3E O 0.7886(3) 0.98758(5) -0.2794(3)
H5A H 1.293(4) 0.9927(6) 0.290(5)
H5D H 1.293(4) 1.0073(6) -0.210(5)
H5E H 0.707(4) 1.0073(6) -0.290(5)
H6A H 1.270(4) 1.0354(5) 0.299(4)
H6D H 1.270(4) 0.9646(5) -0.201(4)
H6E H 0.730(4) 0.9646(5) -0.299(4)
Zn1A Zn 1.0000 1.0000 0.5000
O4 O 1.0000 0.45652(9) 0.2500
H7 H 0.969(5) 0.4425(9) 0.145(4)
H7A H 1.031(5) 0.4425(9) 0.355(4)
loop_
_geom_bond_atom_site_label_1
_geom_bond_atom_site_label_2
_geom_bond_site_symmetry_1
_geom_bond_site_symmetry_2
C1 C2 1_555 1_555
C2 C3 1_555 1_555
C3 H1 1_555 1_555
C4 C3 1_555 1_555
H2 C4 1_555 1_555
C5 C4 1_555 1_555
C6 C5 1_555 1_555
C7 C6 1_555 1_555
H3 C7 1_555 1_555
C8 C7 1_555 1_555
H4 C8 1_555 1_555
C9 C8 1_555 1_555
C10 C9 1_555 1_555
O1 C1 1_555 1_555
O2 C10 1_555 1_555
O3 H5 1_555 1_555
H6 O3 1_555 1_555
O4 H7 1_555 1_555
Zn1 O1 1_555 1_555
C3A C2 1_555 1_555
H1A C3A 1_555 1_555
C4A C5 1_555 1_555
H2A C4A 1_555 1_555
C7A C6 1_555 1_555
H3A C7A 1_555 1_555
C8A C9 1_555 1_555
H4A C8A 1_555 1_555
O1A C1 1_555 1_555
O1D Zn1 1_555 1_555
O2A C10 1_555 1_555
O3A Zn1 1_555 1_555
O3D Zn1 1_555 1_555
O3E Zn1 1_555 1_555
H5A O3A 1_555 1_555
H5D O3D 1_555 1_555
H5E O3E 1_555 1_555
H6A O3A 1_555 1_555
H6D O3D 1_555 1_555
H6E O3E 1_555 1_555
H7A O4 1_555 1_555
Zn1A O3 1_555 1_555
O3 Zn1 1_555 1_555
C3A C4A 1_555 1_555
C7A C8A 1_555 1_555
O1A Zn1A 1_555 1_555
O3A Zn1A 1_555 1_555

#END
