
#######################################################################
#
#                 Cambridge Crystallographic Data Centre
#                                CCDC 
#
#######################################################################
#
# If this CIF has been generated from an entry in the Cambridge 
# Structural Database, then it will include bibliographic, chemical, 
# crystal, experimental, refinement or atomic coordinate data resulting 
# from the CCDC's data processing and validation procedures.
#
#######################################################################

data_FALHIL
_symmetry_cell_setting           monoclinic
_symmetry_space_group_name_H-M   'P 21/n'
_symmetry_Int_Tables_number      14
_space_group_name_Hall           '-P 2yn'
loop_
_symmetry_equiv_pos_site_id
_symmetry_equiv_pos_as_xyz
1 x,y,z
2 1/2-x,1/2+y,1/2-z
3 -x,-y,-z
4 1/2+x,1/2-y,1/2+z
_cell_length_a                   9.6130(10)
_cell_length_b                   6.3209(6)
_cell_length_c                   33.729(4)
_cell_angle_alpha                90
_cell_angle_beta                 95.104(2)
_cell_angle_gamma                90
_cell_volume                     2041.34
loop_
_atom_site_label
_atom_site_type_symbol
_atom_site_fract_x
_atom_site_fract_y
_atom_site_fract_z
Co1 Co 0.51587(3) 0.50031(5) 0.246162(9)
O1 O 0.42964(17) 0.1841(3) 0.26530(5)
O2 O 0.45835(19) -0.0471(3) 0.31622(6)
O3 O 0.8992(2) 0.0833(4) 0.41078(6)
H1 H 0.962(4) 0.054(8) 0.4316(10)
O4 O 0.9741(3) 0.4136(4) 0.41695(8)
O5 O 0.85463(18) 0.8492(3) 0.28965(5)
O6 O 0.65363(17) 0.7639(3) 0.25439(5)
O7 O 0.34750(19) 0.6360(3) 0.27378(6)
H2 H 0.375(2) 0.750(3) 0.2855(7)
H3 H 0.270(2) 0.655(4) 0.2601(9)
N1 N 0.6264(2) 0.4300(3) 0.29857(6)
N2 N 0.1002(3) 0.9039(4) 0.07612(7)
N3 N -0.0104(3) 0.8864(4) 0.04746(7)
N4 N 0.0256(2) 0.5754(3) 0.07517(6)
N5 N -0.0073(3) 0.3705(4) 0.08845(8)
H4 H 0.047(3) 0.279(4) 0.0764(9)
H5 H 0.009(3) 0.358(5) 0.1151(3)
N6 N 0.4068(2) 0.5823(4) 0.19205(6)
N7 N -0.3926(3) 0.5081(4) -0.03568(7)
C1 C 0.6082(2) 0.2488(4) 0.31753(7)
C2 C 0.6948(3) 0.1911(4) 0.35082(7)
H6 H 0.6841 0.0615 0.3632
C3 C 0.7985(3) 0.3326(5) 0.36520(8)
C4 C 0.8142(3) 0.5214(4) 0.34539(8)
H7 H 0.8814 0.6191 0.3549
C5 C 0.7283(2) 0.5622(4) 0.31123(7)
C6 C 0.4886(3) 0.1164(4) 0.29827(7)
C7 C 0.8995(3) 0.2810(5) 0.40073(8)
C8 C 0.7463(2) 0.7425(4) 0.28271(7)
C9 C 0.1207(3) 0.7156(4) 0.09221(7)
C10 C -0.0546(3) 0.6904(4) 0.04725(7)
C11 C 0.3754(3) 0.4350(4) 0.16436(8)
H8 H 0.4151 0.3014 0.1681
C12 C 0.2871(3) 0.4709(4) 0.13049(8)
H9 H 0.2684 0.3643 0.1118
C13 C 0.2272(3) 0.6682(4) 0.12501(7)
C14 C 0.2645(3) 0.8255(4) 0.15266(8)
H10 H 0.2291 0.9617 0.1491
C15 C 0.3545(3) 0.7771(4) 0.18535(8)
H11 H 0.3802 0.8837 0.2036
C16 C -0.3500(3) 0.7066(5) -0.03109(9)
H12 H -0.3966 0.8109 -0.0465
C17 C -0.2401(3) 0.7653(5) -0.00459(9)
H13 H -0.2124 0.9062 -0.0028
C18 C -0.1710(3) 0.6150(4) 0.01939(7)
C19 C -0.2132(3) 0.4082(5) 0.01455(9)
H14 H -0.1680 0.3009 0.0295
C20 C -0.3248(3) 0.3624(5) -0.01321(9)
H15 H -0.3535 0.2223 -0.0162
Co1A Co 0.98413(3) 1.00031(5) 0.253838(9)
O5A O 0.64537(18) 0.3492(3) 0.21035(5)
loop_
_geom_bond_atom_site_label_1
_geom_bond_atom_site_label_2
_geom_bond_site_symmetry_1
_geom_bond_site_symmetry_2
Co1 O1 1_555 1_555
O1 C6 1_555 1_555
O2 C6 1_555 1_555
O3 H1 1_555 1_555
O4 C7 1_555 1_555
O5 C8 1_555 1_555
O6 Co1 1_555 1_555
O7 Co1 1_555 1_555
H2 O7 1_555 1_555
H3 O7 1_555 1_555
N1 Co1 1_555 1_555
N2 N3 1_555 1_555
N3 C10 1_555 1_555
N4 N5 1_555 1_555
N5 H4 1_555 1_555
H5 N5 1_555 1_555
N6 Co1 1_555 1_555
N7 C16 1_555 1_555
C1 N1 1_555 1_555
C2 C1 1_555 1_555
H6 C2 1_555 1_555
C3 C2 1_555 1_555
C4 C3 1_555 1_555
H7 C4 1_555 1_555
C5 N1 1_555 1_555
C6 C1 1_555 1_555
C7 O3 1_555 1_555
C8 O6 1_555 1_555
C9 N2 1_555 1_555
C10 N4 1_555 1_555
C11 N6 1_555 1_555
H8 C11 1_555 1_555
C12 C11 1_555 1_555
H9 C12 1_555 1_555
C13 C9 1_555 1_555
C14 C13 1_555 1_555
H10 C14 1_555 1_555
C15 N6 1_555 1_555
H11 C15 1_555 1_555
C16 H12 1_555 1_555
C17 C16 1_555 1_555
H13 C17 1_555 1_555
C18 C10 1_555 1_555
C19 C18 1_555 1_555
H14 C19 1_555 1_555
C20 N7 1_555 1_555
H15 C20 1_555 1_555
Co1A O5 1_555 1_555
O5A Co1 1_555 1_555
N4 C9 1_555 1_555
C3 C7 1_555 1_555
C4 C5 1_555 1_555
C5 C8 1_555 1_555
C12 C13 1_555 1_555
C14 C15 1_555 1_555
C17 C18 1_555 1_555
C19 C20 1_555 1_555

#END
