
#######################################################################
#
#                 Cambridge Crystallographic Data Centre
#                                CCDC 
#
#######################################################################
#
# If this CIF has been generated from an entry in the Cambridge 
# Structural Database, then it will include bibliographic, chemical, 
# crystal, experimental, refinement or atomic coordinate data resulting 
# from the CCDC's data processing and validation procedures.
#
#######################################################################

data_FALJOT
_symmetry_cell_setting           triclinic
_symmetry_space_group_name_H-M   'P -1'
_symmetry_Int_Tables_number      2
_space_group_name_Hall           '-P 1'
loop_
_symmetry_equiv_pos_site_id
_symmetry_equiv_pos_as_xyz
1 x,y,z
2 -x,-y,-z
_cell_length_a                   8.724(3)
_cell_length_b                   10.5747(16)
_cell_length_c                   11.4406(17)
_cell_angle_alpha                112.891(2)
_cell_angle_beta                 106.006(3)
_cell_angle_gamma                95.766(3)
_cell_volume                     908.547
loop_
_atom_site_label
_atom_site_type_symbol
_atom_site_fract_x
_atom_site_fract_y
_atom_site_fract_z
C1 C 0.8026(5) 0.9900(4) 1.3725(4)
H1 H 0.8138 0.9610 1.2880
C2 C 0.8871(5) 1.1230(4) 1.4710(4)
H2 H 0.9550 1.1822 1.4539
C3 C 0.8690(5) 1.1663(4) 1.5946(4)
H3 H 0.9248 1.2557 1.6630
C4 C 0.7674(5) 1.0768(4) 1.6173(4)
H4 H 0.7521 1.1060 1.7003
C5 C 0.6883(4) 0.9424(4) 1.5150(4)
C6 C 0.5796(4) 0.8390(4) 1.5337(4)
C7 C 0.5531(5) 0.8697(4) 1.6553(4)
H5 H 0.5998 0.9585 1.7277
C8 C 0.4568(5) 0.7671(4) 1.6672(4)
H6 H 0.4401 0.7852 1.7485
C9 C 0.3852(5) 0.6370(4) 1.5577(4)
H7 H 0.3198 0.5662 1.5635
C10 C 0.4137(5) 0.6156(4) 1.4400(4)
H8 H 0.3636 0.5291 1.3652
C11 C 0.7426(5) 0.4685(4) 1.2182(4)
C12 C 0.8332(5) 0.3518(4) 1.1792(4)
H9 H 0.7583 0.2618 1.1517
C13 C 0.9842(5) 0.3706(5) 1.2940(4)
H10 H 1.0578 0.4610 1.3247
H11 H 0.9520 0.3715 1.3690
C14 C 1.0740(6) 0.2539(6) 1.2523(5)
H12 H 1.0050 0.1648 1.2318
H13 H 1.1731 0.2732 1.3271
C15 C 1.1190(6) 0.2414(5) 1.1298(5)
H14 H 1.2001 0.3254 1.1539
H15 H 1.1671 0.1608 1.1013
C16 C 0.9687(5) 0.2238(5) 1.0133(4)
H16 H 1.0020 0.2223 0.9387
H17 H 0.8930 0.1343 0.9823
C17 C 0.8814(5) 0.3448(4) 1.0568(4)
H18 H 0.9575 0.4341 1.0840
C18 C 0.7294(5) 0.3264(5) 0.9419(4)
Cd1 Cd 0.56567(3) 0.67237(3) 1.23062(3)
N1 N 0.7047(4) 0.8997(3) 1.3926(3)
N2 N 0.5097(4) 0.7125(3) 1.4274(3)
O1 O 0.8204(3) 0.5919(3) 1.2959(3)
O2 O 0.5871(3) 0.4372(3) 1.1664(3)
O3 O 0.7065(3) 0.4309(3) 0.9168(3)
O4 O 0.6276(4) 0.2098(3) 0.8769(3)
O5 O 0.6740(4) 0.6941(3) 1.0729(3)
H19 H 0.587(4) 0.681(4) 1.010(4)
H20 H 0.713(5) 0.621(3) 1.055(4)
Cd1A Cd 0.43433(3) 0.32763(3) 0.76938(3)
O3A O 0.2935(3) 0.5691(3) 1.0832(3)
O4A O 0.3724(4) 0.7902(3) 1.1231(3)
O6 O 0.4320(16) 0.0373(14) 0.9522(12)
H21 H 0.360(18) 0.05(2) 0.988(17)
H22? H 0.5000 0.0000 1.0000
loop_
_geom_bond_atom_site_label_1
_geom_bond_atom_site_label_2
_geom_bond_site_symmetry_1
_geom_bond_site_symmetry_2
C1 H1 1_555 1_555
C2 C1 1_555 1_555
H2 C2 1_555 1_555
C3 C2 1_555 1_555
H3 C3 1_555 1_555
C4 C3 1_555 1_555
H4 C4 1_555 1_555
C5 C4 1_555 1_555
C6 C5 1_555 1_555
C7 C6 1_555 1_555
H5 C7 1_555 1_555
C8 C7 1_555 1_555
H6 C8 1_555 1_555
C9 C8 1_555 1_555
H7 C9 1_555 1_555
C10 C9 1_555 1_555
H8 C10 1_555 1_555
C11 C12 1_555 1_555
C12 H9 1_555 1_555
C13 C12 1_555 1_555
H10 C13 1_555 1_555
H11 C13 1_555 1_555
C14 C13 1_555 1_555
H12 C14 1_555 1_555
H13 C14 1_555 1_555
C15 C14 1_555 1_555
H14 C15 1_555 1_555
H15 C15 1_555 1_555
C16 C15 1_555 1_555
H16 C16 1_555 1_555
H17 C16 1_555 1_555
C17 C12 1_555 1_555
H18 C17 1_555 1_555
C18 C17 1_555 1_555
Cd1 N1 1_555 1_555
N1 C1 1_555 1_555
N2 C6 1_555 1_555
O1 C11 1_555 1_555
O2 C11 1_555 1_555
O3 C18 1_555 1_555
O4 C18 1_555 1_555
O5 Cd1 1_555 1_555
H19 O5 1_555 1_555
H20 O5 1_555 1_555
O6 H21 1_555 1_555
Cd1A O3 1_555 1_555
O3A Cd1 1_555 1_555
O4A Cd1 1_555 1_555
C5 N1 1_555 1_555
C10 N2 1_555 1_555
C16 C17 1_555 1_555
Cd1 N2 1_555 1_555
Cd1 O1 1_555 1_555
Cd1 O2 1_555 1_555
O4 Cd1A 1_555 1_555

#END
