
#######################################################################
#
#                 Cambridge Crystallographic Data Centre
#                                CCDC 
#
#######################################################################
#
# If this CIF has been generated from an entry in the Cambridge 
# Structural Database, then it will include bibliographic, chemical, 
# crystal, experimental, refinement or atomic coordinate data resulting 
# from the CCDC's data processing and validation procedures.
#
#######################################################################

data_FALKIO
_symmetry_cell_setting           monoclinic
_symmetry_space_group_name_H-M   'P 21/c'
_symmetry_Int_Tables_number      14
_space_group_name_Hall           '-P 2ybc'
loop_
_symmetry_equiv_pos_site_id
_symmetry_equiv_pos_as_xyz
1 x,y,z
2 -x,1/2+y,1/2-z
3 -x,-y,-z
4 x,1/2-y,1/2+z
_cell_length_a                   10.6345(12)
_cell_length_b                   21.161(2)
_cell_length_c                   13.5798(14)
_cell_angle_alpha                90
_cell_angle_beta                 111.400(5)
_cell_angle_gamma                90
_cell_volume                     2845.26
loop_
_atom_site_label
_atom_site_type_symbol
_atom_site_fract_x
_atom_site_fract_y
_atom_site_fract_z
Cu1 Cu 0.34441(7) 0.13992(3) 0.36228(5)
N1 N 0.2191(5) 0.0835(2) 0.4039(4)
N2 N 0.4084(5) 0.2180(2) 0.3052(3)
N3 N 0.2717(5) 0.1208(2) 0.2117(4)
N4 N 0.2187(6) 0.1588(3) 0.0461(4)
H1 H 0.2185 0.1849 -0.0025
O1 O 0.4167(4) 0.32931(17) 0.0076(3)
O2 O 0.2412(5) 0.2655(2) -0.0326(3)
O3 O 0.1744(6) 0.0217(2) 0.1735(4)
O4 O 0.5262(5) 0.0778(2) 0.4062(4)
H2 H 0.5867 0.0934 0.4606
H3 H 0.5562 0.0786 0.3562
C1 C 0.3440(6) 0.2902(3) 0.0321(4)
C2 C 0.3899(5) 0.2772(3) 0.1497(4)
C3 C 0.4743(6) 0.3223(3) 0.2156(4)
H7 H 0.4962 0.3581 0.1855
C4 C 0.5271(7) 0.3158(3) 0.3250(5)
C5 C 0.4894(6) 0.2624(3) 0.3665(4)
H8 H 0.5215 0.2572 0.4395
C6 C 0.3589(5) 0.2245(2) 0.1988(4)
C7 C 0.6160(10) 0.3646(4) 0.3952(6)
H9 H 0.6435 0.3511 0.4675
H10 H 0.5676 0.4038 0.3865
H11 H 0.6944 0.3705 0.3770
C8 C 0.2821(6) 0.1680(3) 0.1483(4)
C9 C 0.1983(8) 0.0733(3) 0.1445(5)
C10 C 0.1480(9) 0.0973(3) 0.0268(6)
C11 C -0.0082(8) 0.1080(4) -0.0137(7)
H12 H -0.0295 0.1357 0.0341
H13 H -0.0529 0.0682 -0.0172
H14 H -0.0380 0.1268 -0.0828
C12 C 0.1908(11) 0.0548(4) -0.0408(7)
H15 H 0.1433 0.0147 -0.0450
C13 C 0.1474(13) 0.0811(5) -0.1527(7)
H16 H 0.1854 0.1224 -0.1507
H17 H 0.0506 0.0837 -0.1827
H18 H 0.1787 0.0536 -0.1952
C14 C 0.3393(11) 0.0414(4) 0.0095(8)
H19 H 0.3688 0.0190 -0.0396
H20 H 0.3560 0.0161 0.0717
H21 H 0.3880 0.0805 0.0287
C15 C 0.0901(7) 0.0850(3) 0.3562(5)
H22 H 0.0549 0.1089 0.2947
C16 C 0.0012(7) 0.0531(4) 0.3910(5)
H23 H -0.0912 0.0564 0.3533
C17 C 0.0464(6) 0.0171(3) 0.4791(4)
C18 C 0.1848(6) 0.0154(3) 0.5331(5)
H24 H 0.2218 -0.0074 0.5956
C19 C 0.2669(6) 0.0484(3) 0.4923(5)
H25 H 0.3599 0.0462 0.5278
Cu1B Cu -0.34441(7) -0.13992(3) 0.63772(5)
Cu1A Cu -0.34441(7) -0.36008(3) 1.13772(5)
Cu1C Cu 0.34441(7) 0.36008(3) -0.13772(5)
N1B N -0.2191(5) -0.0835(2) 0.5961(4)
N2B N -0.4084(5) -0.2180(2) 0.6948(3)
N3B N -0.2717(5) -0.1208(2) 0.7883(4)
N4B N -0.2187(6) -0.1588(3) 0.9539(4)
H1B H -0.2185 -0.1849 1.0025
O1B O -0.4167(4) -0.32931(17) 0.9924(3)
O1A O -0.4167(4) -0.17069(17) 0.4924(3)
O1C O 0.4167(4) 0.17069(17) 0.5076(3)
O2B O -0.2412(5) -0.2655(2) 1.0326(3)
O3B O -0.1744(6) -0.0217(2) 0.8265(4)
O4B O -0.5262(5) -0.0778(2) 0.5938(4)
H2B H -0.5867 -0.0934 0.5394
H3B H -0.5562 -0.0786 0.6438
C1B C -0.3440(6) -0.2902(3) 0.9679(4)
C2B C -0.3899(5) -0.2772(3) 0.8503(4)
C3B C -0.4743(6) -0.3223(3) 0.7844(4)
H7B H -0.4962 -0.3581 0.8145
C4B C -0.5271(7) -0.3158(3) 0.6750(5)
C5B C -0.4894(6) -0.2624(3) 0.6335(4)
H8B H -0.5215 -0.2572 0.5605
C6B C -0.3589(5) -0.2245(2) 0.8012(4)
C7B C -0.6160(10) -0.3646(4) 0.6048(6)
H9B H -0.6435 -0.3511 0.5325
H10B H -0.5676 -0.4038 0.6135
H11B H -0.6944 -0.3705 0.6230
C8B C -0.2821(6) -0.1680(3) 0.8517(4)
C9B C -0.1983(8) -0.0733(3) 0.8555(5)
C10B C -0.1480(9) -0.0973(3) 0.9732(6)
C11B C 0.0082(8) -0.1080(4) 1.0137(7)
H12B H 0.0295 -0.1357 0.9659
H13B H 0.0529 -0.0682 1.0172
H14B H 0.0380 -0.1268 1.0828
C12B C -0.1908(11) -0.0548(4) 1.0408(7)
H15B H -0.1433 -0.0147 1.0450
C13B C -0.1474(13) -0.0811(5) 1.1527(7)
H16B H -0.1854 -0.1224 1.1507
H17B H -0.0506 -0.0837 1.1827
H18B H -0.1787 -0.0536 1.1952
C14B C -0.3393(11) -0.0414(4) 0.9905(8)
H19B H -0.3688 -0.0190 1.0396
H20B H -0.3560 -0.0161 0.9283
H21B H -0.3880 -0.0805 0.9713
C15B C -0.0901(7) -0.0850(3) 0.6438(5)
H22B H -0.0549 -0.1089 0.7053
C16B C -0.0012(7) -0.0531(4) 0.6090(5)
H23B H 0.0912 -0.0564 0.6467
C17B C -0.0464(6) -0.0171(3) 0.5209(4)
C18B C -0.1848(6) -0.0154(3) 0.4669(5)
H24B H -0.2218 0.0074 0.4044
C19B C -0.2669(6) -0.0484(3) 0.5077(5)
H25B H -0.3599 -0.0462 0.4722
Cl1 Cl 0.6904(2) 0.35519(17) 0.70677(19)
O5 O 0.5801(8) 0.3300(5) 0.6250(6)
O6 O 0.731(3) 0.3110(12) 0.7873(15)
O7 O 0.650(2) 0.4092(14) 0.750(2)
O8 O 0.796(2) 0.3704(15) 0.676(2)
O9 O 0.826(2) 0.3247(11) 0.1757(18)
H4 H 0.8192 0.2973 0.2161
C20 C 0.985(3) 0.3116(16) 0.093(2)
H26 H 1.0292 0.3346 0.1578
H27 H 0.9802 0.3373 0.0341
H28 H 1.0343 0.2737 0.0936
C21 C 0.847(3) 0.2950(16) 0.086(2)
H29 H 0.7812 0.3105 0.0199
H30 H 0.8375 0.2495 0.0884
O10 O 0.6635(8) 0.4326(5) 0.1393(6)
H5 H 0.7099 0.3989 0.1495
H6 H 0.7041 0.4584 0.1887
O11? O 0.751(7) 0.403(4) 0.670(6)
O12? O 0.809(6) 0.306(3) 0.736(5)
O13? O 0.695(4) 0.369(3) 0.808(3)
loop_
_geom_bond_atom_site_label_1
_geom_bond_atom_site_label_2
_geom_bond_site_symmetry_1
_geom_bond_site_symmetry_2
Cu1 N1 1_555 1_555
Cl1 O5 1_555 1_555
N1 C15 1_555 1_555
N2 Cu1 1_555 1_555
N3 Cu1 1_555 1_555
N4 H1 1_555 1_555
O1 C1 1_555 1_555
O2 C1 1_555 1_555
O3 C9 1_555 1_555
O4 Cu1 1_555 1_555
H2 O4 1_555 1_555
H3 O4 1_555 1_555
O6 Cl1 1_555 1_555
O7 Cl1 1_555 1_555
O8 Cl1 1_555 1_555
O9 H4 1_555 1_555
O10 H5 1_555 1_555
H6 O10 1_555 1_555
C1 C2 1_555 1_555
C2 C3 1_555 1_555
C3 H7 1_555 1_555
C4 C3 1_555 1_555
C5 N2 1_555 1_555
H8 C5 1_555 1_555
C6 N2 1_555 1_555
C7 C4 1_555 1_555
H9 C7 1_555 1_555
H10 C7 1_555 1_555
H11 C7 1_555 1_555
C8 N3 1_555 1_555
C9 N3 1_555 1_555
C10 N4 1_555 1_555
C11 C10 1_555 1_555
H12 C11 1_555 1_555
H13 C11 1_555 1_555
H14 C11 1_555 1_555
C12 C10 1_555 1_555
H15 C12 1_555 1_555
C13 C12 1_555 1_555
H16 C13 1_555 1_555
H17 C13 1_555 1_555
H18 C13 1_555 1_555
C14 C12 1_555 1_555
H19 C14 1_555 1_555
H20 C14 1_555 1_555
H21 C14 1_555 1_555
C15 H22 1_555 1_555
C16 C15 1_555 1_555
H23 C16 1_555 1_555
C17 C16 1_555 1_555
C18 C17 1_555 1_555
H24 C18 1_555 1_555
C19 N1 1_555 1_555
H25 C19 1_555 1_555
C20 H26 1_555 1_555
H27 C20 1_555 1_555
H28 C20 1_555 1_555
C21 O9 1_555 1_555
H29 C21 1_555 1_555
H30 C21 1_555 1_555
Cu1B N1B 1_555 1_555
Cu1A O1B 1_555 1_555
Cu1C O1 1_555 1_555
N1B C15B 1_555 1_555
N2B Cu1B 1_555 1_555
N3B Cu1B 1_555 1_555
N4B H1B 1_555 1_555
O1B C1B 1_555 1_555
O1A Cu1B 1_555 1_555
O1C Cu1 1_555 1_555
O2B C1B 1_555 1_555
O3B C9B 1_555 1_555
O4B Cu1B 1_555 1_555
H2B O4B 1_555 1_555
H3B O4B 1_555 1_555
C1B C2B 1_555 1_555
C2B C3B 1_555 1_555
C3B H7B 1_555 1_555
C4B C3B 1_555 1_555
C5B N2B 1_555 1_555
H8B C5B 1_555 1_555
C6B N2B 1_555 1_555
C7B C4B 1_555 1_555
H9B C7B 1_555 1_555
H10B C7B 1_555 1_555
H11B C7B 1_555 1_555
C8B N3B 1_555 1_555
C9B N3B 1_555 1_555
C10B N4B 1_555 1_555
C11B C10B 1_555 1_555
H12B C11B 1_555 1_555
H13B C11B 1_555 1_555
H14B C11B 1_555 1_555
C12B C10B 1_555 1_555
H15B C12B 1_555 1_555
C13B C12B 1_555 1_555
H16B C13B 1_555 1_555
H17B C13B 1_555 1_555
H18B C13B 1_555 1_555
C14B C12B 1_555 1_555
H19B C14B 1_555 1_555
H20B C14B 1_555 1_555
H21B C14B 1_555 1_555
C15B H22B 1_555 1_555
C16B C15B 1_555 1_555
H23B C16B 1_555 1_555
C17B C17 1_555 1_555
C18B C17B 1_555 1_555
H24B C18B 1_555 1_555
C19B N1B 1_555 1_555
H25B C19B 1_555 1_555
N4 C8 1_555 1_555
C2 C6 1_555 1_555
C4 C5 1_555 1_555
C6 C8 1_555 1_555
C9 C10 1_555 1_555
C18 C19 1_555 1_555
C20 C21 1_555 1_555
N4B C8B 1_555 1_555
C2B C6B 1_555 1_555
C4B C5B 1_555 1_555
C6B C8B 1_555 1_555
C9B C10B 1_555 1_555
C16B C17B 1_555 1_555
C18B C19B 1_555 1_555

#END
