
#######################################################################
#
#                 Cambridge Crystallographic Data Centre
#                                CCDC 
#
#######################################################################
#
# If this CIF has been generated from an entry in the Cambridge 
# Structural Database, then it will include bibliographic, chemical, 
# crystal, experimental, refinement or atomic coordinate data resulting 
# from the CCDC's data processing and validation procedures.
#
#######################################################################

data_FALLIP
_symmetry_cell_setting           monoclinic
_symmetry_space_group_name_H-M   'P 21/n'
_symmetry_Int_Tables_number      14
_space_group_name_Hall           '-P 2yn'
loop_
_symmetry_equiv_pos_site_id
_symmetry_equiv_pos_as_xyz
1 x,y,z
2 1/2-x,1/2+y,1/2-z
3 -x,-y,-z
4 1/2+x,1/2-y,1/2+z
_cell_length_a                   10.5356(16)
_cell_length_b                   12.3550(18)
_cell_length_c                   17.973(3)
_cell_angle_alpha                90
_cell_angle_beta                 92.386(2)
_cell_angle_gamma                90
_cell_volume                     2337.47
loop_
_atom_site_label
_atom_site_type_symbol
_atom_site_fract_x
_atom_site_fract_y
_atom_site_fract_z
Zn1 Zn 0.32791(10) 0.62016(8) 0.19837(4)
O1 O 0.3616(7) 0.5133(5) 0.1230(3)
O2 O 0.1555(9) 0.4875(7) 0.1283(4)
C1 C 0.2546(12) 0.4755(9) 0.1014(5)
C2 C 0.2596(9) 0.4068(7) 0.0271(4)
C3 C 0.3717(11) 0.3861(7) -0.0075(5)
H1 H 0.4491 0.4150 0.0129
C4 C 0.3728(13) 0.3212(9) -0.0741(5)
H2 H 0.4494 0.3012 -0.0966
C5 C 0.2518(15) 0.2894(10) -0.1037(6)
H3 H 0.2472 0.2449 -0.1468
C6 C 0.1399(14) 0.3208(10) -0.0720(6)
H4 H 0.0602 0.3038 -0.0958
C7 C 0.1450(10) 0.3757(7) -0.0069(5)
H5 H 0.0681 0.3935 0.0160
O3 O 0.4613(6) 0.7215(5) 0.2340(3)
O4 O 0.5478(8) 0.5734(7) 0.2821(4)
C8 C 0.5478(9) 0.6723(8) 0.2703(4)
C9 C 0.6608(9) 0.7372(7) 0.3000(4)
C10 C 0.6434(13) 0.8449(9) 0.3169(6)
H6 H 0.5609 0.8761 0.3132
C11 C 0.7483(16) 0.9074(10) 0.3397(7)
H7 H 0.7372 0.9826 0.3486
C12 C 0.8617(14) 0.8649(13) 0.3490(7)
H8 H 0.9314 0.9081 0.3663
C13 C 0.8794(11) 0.7555(15) 0.3333(6)
H9 H 0.9620 0.7251 0.3394
C14 C 0.7791(11) 0.6906(10) 0.3089(5)
H10 H 0.7915 0.6160 0.2987
N1 N 0.2320(8) 0.7328(6) 0.1338(4)
C15 C 0.2434(10) 0.7352(8) 0.0595(4)
H11 H 0.2953 0.6817 0.0379
C16 C 0.1849(11) 0.8101(8) 0.0124(5)
H12 H 0.1986 0.8092 -0.0395
C17 C 0.1062(10) 0.8862(7) 0.0424(5)
C18 C 0.0919(10) 0.8891(7) 0.1212(5)
H13 H 0.0389 0.9403 0.1443
C19 C 0.1607(10) 0.8120(8) 0.1612(5)
H14 H 0.1571 0.8155 0.2139
C20 C 0.0399(10) 0.9635(8) -0.0103(5)
H15 H 0.0573 0.9590 -0.0617
N2 N 0.2282(8) 0.5936(6) 0.2916(4)
C21 C 0.2626(9) 0.6493(7) 0.3540(4)
H16 H 0.3262 0.7037 0.3523
C22 C 0.2049(9) 0.6270(7) 0.4213(4)
H17 H 0.2312 0.6655 0.4650
C23 C 0.1107(9) 0.5502(8) 0.4247(4)
C24 C 0.0770(11) 0.4941(9) 0.3598(5)
H18 H 0.0137 0.4393 0.3597
C25 C 0.1386(9) 0.5201(8) 0.2940(4)
H19 H 0.1142 0.4828 0.2495
C26 C 0.0507(9) 0.5295(7) 0.4956(5)
H20 H 0.0889 0.5618 0.5390
Zn1B Zn -0.32791(10) 1.37984(8) -0.19837(4)
Zn1B_2 Zn -0.32791(10) 0.37984(8) 0.80163(4)
O1B O -0.3616(7) 1.4867(5) -0.1230(3)
O2B O -0.1555(9) 1.5125(7) -0.1283(4)
C1B C -0.2546(12) 1.5245(9) -0.1014(5)
C2B C -0.2596(9) 1.5932(7) -0.0271(4)
C3B C -0.3717(11) 1.6139(7) 0.0075(5)
H1B H -0.4491 1.5850 -0.0129
C4B C -0.3728(13) 1.6788(9) 0.0741(5)
H2B H -0.4494 1.6988 0.0966
C5B C -0.2518(15) 1.7106(10) 0.1037(6)
H3B H -0.2472 1.7551 0.1468
C6B C -0.1399(14) 1.6792(10) 0.0720(6)
H4B H -0.0602 1.6962 0.0958
C7B C -0.1450(10) 1.6243(7) 0.0069(5)
H5B H -0.0681 1.6065 -0.0160
O3B O -0.4613(6) 1.2785(5) -0.2340(3)
O4B O -0.5478(8) 1.4266(7) -0.2821(4)
C8B C -0.5478(9) 1.3277(8) -0.2703(4)
C9B C -0.6608(9) 1.2628(7) -0.3000(4)
C10B C -0.6434(13) 1.1551(9) -0.3169(6)
H6B H -0.5609 1.1239 -0.3132
C11B C -0.7483(16) 1.0926(10) -0.3397(7)
H7B H -0.7372 1.0174 -0.3486
C12B C -0.8617(14) 1.1351(13) -0.3490(7)
H8B H -0.9314 1.0919 -0.3663
C13B C -0.8794(11) 1.2445(15) -0.3333(6)
H9B H -0.9620 1.2749 -0.3394
C14B C -0.7791(11) 1.3094(10) -0.3089(5)
H10B H -0.7915 1.3840 -0.2987
N1B N -0.2320(8) 1.2672(6) -0.1338(4)
C15B C -0.2434(10) 1.2648(8) -0.0595(4)
H11B H -0.2953 1.3183 -0.0379
C16B C -0.1849(11) 1.1899(8) -0.0124(5)
H12B H -0.1986 1.1908 0.0395
C17B C -0.1062(10) 1.1138(7) -0.0424(5)
C18B C -0.0919(10) 1.1109(7) -0.1212(5)
H13B H -0.0389 1.0597 -0.1443
C19B C -0.1607(10) 1.1880(8) -0.1612(5)
H14B H -0.1571 1.1845 -0.2139
C20B C -0.0399(10) 1.0365(8) 0.0103(5)
H15B H -0.0573 1.0410 0.0617
N2B N -0.2282(8) 0.4064(6) 0.7084(4)
N2B_2 N -0.2282(8) 1.4064(6) -0.2916(4)
C21B C -0.2626(9) 0.3507(7) 0.6460(4)
H16B H -0.3262 0.2963 0.6477
C22B C -0.2049(9) 0.3730(7) 0.5787(4)
H17B H -0.2312 0.3345 0.5350
C23B C -0.1107(9) 0.4498(8) 0.5753(4)
C24B C -0.0770(11) 0.5059(9) 0.6402(5)
H18B H -0.0137 0.5607 0.6403
C25B C -0.1386(9) 0.4799(8) 0.7060(4)
H19B H -0.1142 0.5172 0.7505
C26B C -0.0507(9) 0.4705(7) 0.5044(5)
H20B H -0.0889 0.4382 0.4610
O5 O 0.757(3) 0.432(2) 0.3324(15)
loop_
_geom_bond_atom_site_label_1
_geom_bond_atom_site_label_2
_geom_bond_site_symmetry_1
_geom_bond_site_symmetry_2
Zn1 O1 1_555 1_555
O1 C1 1_555 1_555
O2 C1 1_555 1_555
C1 C2 1_555 1_555
C2 C3 1_555 1_555
C3 H1 1_555 1_555
C4 C3 1_555 1_555
H2 C4 1_555 1_555
C5 C4 1_555 1_555
H3 C5 1_555 1_555
C6 C5 1_555 1_555
H4 C6 1_555 1_555
C7 C2 1_555 1_555
H5 C7 1_555 1_555
O3 Zn1 1_555 1_555
O4 C8 1_555 1_555
C8 O3 1_555 1_555
C9 C8 1_555 1_555
C10 C9 1_555 1_555
H6 C10 1_555 1_555
C11 C10 1_555 1_555
H7 C11 1_555 1_555
C12 C11 1_555 1_555
H8 C12 1_555 1_555
C13 C12 1_555 1_555
H9 C13 1_555 1_555
C14 C9 1_555 1_555
H10 C14 1_555 1_555
N1 Zn1 1_555 1_555
C15 N1 1_555 1_555
H11 C15 1_555 1_555
C16 C15 1_555 1_555
H12 C16 1_555 1_555
C17 C16 1_555 1_555
C18 C17 1_555 1_555
H13 C18 1_555 1_555
C19 N1 1_555 1_555
H14 C19 1_555 1_555
C20 C17 1_555 1_555
H15 C20 1_555 1_555
N2 Zn1 1_555 1_555
C21 N2 1_555 1_555
H16 C21 1_555 1_555
C22 C21 1_555 1_555
H17 C22 1_555 1_555
C23 C22 1_555 1_555
C24 C23 1_555 1_555
H18 C24 1_555 1_555
C25 N2 1_555 1_555
H19 C25 1_555 1_555
C26 C23 1_555 1_555
H20 C26 1_555 1_555
Zn1B O1B 1_555 1_555
Zn1B_2 N2B 1_555 1_555
O1B C1B 1_555 1_555
O2B C1B 1_555 1_555
C1B C2B 1_555 1_555
C2B C3B 1_555 1_555
C3B H1B 1_555 1_555
C4B C3B 1_555 1_555
H2B C4B 1_555 1_555
C5B C4B 1_555 1_555
H3B C5B 1_555 1_555
C6B C5B 1_555 1_555
H4B C6B 1_555 1_555
C7B C2B 1_555 1_555
H5B C7B 1_555 1_555
O3B Zn1B 1_555 1_555
O4B C8B 1_555 1_555
C8B O3B 1_555 1_555
C9B C8B 1_555 1_555
C10B C9B 1_555 1_555
H6B C10B 1_555 1_555
C11B C10B 1_555 1_555
H7B C11B 1_555 1_555
C12B C11B 1_555 1_555
H8B C12B 1_555 1_555
C13B C12B 1_555 1_555
H9B C13B 1_555 1_555
C14B C9B 1_555 1_555
H10B C14B 1_555 1_555
N1B Zn1B 1_555 1_555
C15B N1B 1_555 1_555
H11B C15B 1_555 1_555
C16B C15B 1_555 1_555
H12B C16B 1_555 1_555
C17B C16B 1_555 1_555
C18B C17B 1_555 1_555
H13B C18B 1_555 1_555
C19B N1B 1_555 1_555
H14B C19B 1_555 1_555
C20B C20 1_555 1_555
H15B C20B 1_555 1_555
N2B C21B 1_555 1_555
N2B_2 Zn1B 1_555 1_555
C21B H16B 1_555 1_555
C22B C21B 1_555 1_555
H17B C22B 1_555 1_555
C23B C22B 1_555 1_555
C24B C23B 1_555 1_555
H18B C24B 1_555 1_555
C25B N2B 1_555 1_555
H19B C25B 1_555 1_555
C26B C26 1_555 1_555
H20B C26B 1_555 1_555
C6 C7 1_555 1_555
C13 C14 1_555 1_555
C18 C19 1_555 1_555
C24 C25 1_555 1_555
C6B C7B 1_555 1_555
C13B C14B 1_555 1_555
C17B C20B 1_555 1_555
C18B C19B 1_555 1_555
C23B C26B 1_555 1_555
C24B C25B 1_555 1_555

#END
