
#######################################################################
#
#                 Cambridge Crystallographic Data Centre
#                                CCDC 
#
#######################################################################
#
# If this CIF has been generated from an entry in the Cambridge 
# Structural Database, then it will include bibliographic, chemical, 
# crystal, experimental, refinement or atomic coordinate data resulting 
# from the CCDC's data processing and validation procedures.
#
#######################################################################

data_FALLUB
_symmetry_cell_setting           monoclinic
_symmetry_space_group_name_H-M   'P 2/c'
_symmetry_Int_Tables_number      13
_space_group_name_Hall           '-P 2yc'
loop_
_symmetry_equiv_pos_site_id
_symmetry_equiv_pos_as_xyz
1 x,y,z
2 -x,y,1/2-z
3 -x,-y,-z
4 x,-y,1/2+z
_cell_length_a                   17.822(4)
_cell_length_b                   9.984(2)
_cell_length_c                   14.998(3)
_cell_angle_alpha                90
_cell_angle_beta                 93.393(5)
_cell_angle_gamma                90
_cell_volume                     2663.99
loop_
_atom_site_label
_atom_site_type_symbol
_atom_site_fract_x
_atom_site_fract_y
_atom_site_fract_z
Zn1 Zn 0.28309(6) 0.38589(11) 0.36862(6)
O1 O 0.3476(4) 0.2884(10) 0.2878(5)
O2 O 0.2530(5) 0.3401(9) 0.1971(5)
C1 C 0.3134(6) 0.2857(14) 0.2193(8)
C2 C 0.3494(6) 0.1883(13) 0.1468(7)
C3 C 0.4037(7) 0.1011(14) 0.1705(6)
H1 H 0.4246 0.1002 0.2302
C4 C 0.4296(6) 0.0120(15) 0.1088(9)
H2 H 0.4655 -0.0547 0.1264
C5 C 0.4021(7) 0.0223(13) 0.0206(8)
H3 H 0.4195 -0.0367 -0.0233
C6 C 0.3491(6) 0.1191(11) -0.0028(6)
H4 H 0.3311 0.1296 -0.0632
C7 C 0.3229(6) 0.2002(11) 0.0628(8)
H5 H 0.2854 0.2653 0.0477
O3 O 0.2108(5) 0.5529(11) 0.3702(6)
O4 O 0.3087(7) 0.6213(10) 0.3267(7)
C8 C 0.2467(8) 0.6303(13) 0.3373(8)
C9 C 0.2057(4) 0.7596(6) 0.3080(4)
C10 C 0.1310(4) 0.7807(7) 0.3260(4)
H6 H 0.1054 0.7171 0.3602
C11 C 0.0938(3) 0.8948(8) 0.2939(5)
H7 H 0.0427 0.9092 0.3062
C12 C 0.1312(5) 0.9878(6) 0.2438(5)
H8 H 0.1058 1.0658 0.2218
C13 C 0.2059(5) 0.9667(7) 0.2258(5)
H9 H 0.2315 1.0303 0.1915
C14 C 0.2432(3) 0.8526(8) 0.2579(5)
H10 H 0.2942 0.8382 0.2456
N1 N 0.3575(4) 0.3838(7) 0.4788(4)
C15 C 0.4287(5) 0.3509(10) 0.4747(5)
H11 H 0.4457 0.3274 0.4179
C16 C 0.4793(5) 0.3483(9) 0.5453(6)
H12 H 0.5300 0.3239 0.5373
C17 C 0.4565(5) 0.3820(9) 0.6309(5)
C18 C 0.3832(5) 0.4211(9) 0.6358(6)
H13 H 0.3652 0.4493 0.6912
C19 C 0.3351(5) 0.4193(9) 0.5590(5)
H14 H 0.2841 0.4444 0.5638
C20 C 0.5087(5) 0.3818(9) 0.7090(5)
H15 H 0.5608 0.3817 0.6985
N2 N 0.2001(4) 0.2624(7) 0.4078(4)
C21 C 0.2157(6) 0.1478(12) 0.4555(7)
H16 H 0.2670 0.1254 0.4685
C22 C 0.1640(6) 0.0659(12) 0.4847(6)
H17 H 0.1790 -0.0124 0.5171
C23 C 0.0911(7) 0.0924(11) 0.4690(6)
C24 C 0.0708(6) 0.2070(12) 0.4222(8)
H18 H 0.0194 0.2304 0.4109
C25 C 0.1290(5) 0.2886(10) 0.3916(6)
H19 H 0.1156 0.3662 0.3576
C26 C 0.0330(6) -0.0107(13) 0.5053(7)
H20 H 0.0504 -0.0894 0.5355
Zn1A Zn 0.71691(6) 0.38589(11) 1.13138(6)
Zn1B Zn -0.28309(6) -0.38589(11) 0.63138(6)
O1A O 0.6524(4) 0.2884(10) 1.2122(5)
O2A O 0.7470(5) 0.3401(9) 1.3029(5)
C1A C 0.6866(6) 0.2857(14) 1.2807(8)
C2A C 0.6506(6) 0.1883(13) 1.3532(7)
C3A C 0.5963(7) 0.1011(14) 1.3295(6)
H1A H 0.5754 0.1002 1.2698
C4A C 0.5704(6) 0.0120(15) 1.3912(9)
H2A H 0.5345 -0.0547 1.3736
C5A C 0.5979(7) 0.0223(13) 1.4794(8)
H3A H 0.5805 -0.0367 1.5233
C6A C 0.6509(6) 0.1191(11) 1.5028(6)
H4A H 0.6689 0.1296 1.5632
C7A C 0.6771(6) 0.2002(11) 1.4372(8)
H5A H 0.7146 0.2653 1.4523
O3A O 0.7892(5) 0.5529(11) 1.1298(6)
O4A O 0.6913(7) 0.6213(10) 1.1733(7)
C8A C 0.7533(8) 0.6303(13) 1.1627(8)
C9A C 0.7943(4) 0.7596(6) 1.1920(4)
C10A C 0.8690(4) 0.7807(7) 1.1740(4)
H6A H 0.8946 0.7171 1.1398
C11A C 0.9062(3) 0.8948(8) 1.2061(5)
H7A H 0.9573 0.9092 1.1938
C12A C 0.8688(5) 0.9878(6) 1.2562(5)
H8A H 0.8942 1.0658 1.2782
C13A C 0.7941(5) 0.9667(7) 1.2742(5)
H9A H 0.7685 1.0303 1.3085
C14A C 0.7568(3) 0.8526(8) 1.2421(5)
H10A H 0.7058 0.8382 1.2544
N1A N 0.6425(4) 0.3838(7) 1.0212(4)
C15A C 0.5713(5) 0.3509(10) 1.0253(5)
H11A H 0.5543 0.3274 1.0821
C16A C 0.5207(5) 0.3483(9) 0.9547(6)
H12A H 0.4700 0.3239 0.9627
C17A C 0.5435(5) 0.3820(9) 0.8691(5)
C18A C 0.6168(5) 0.4211(9) 0.8642(6)
H13A H 0.6348 0.4493 0.8088
C19A C 0.6649(5) 0.4193(9) 0.9410(5)
H14A H 0.7159 0.4444 0.9362
C20A C 0.4913(5) 0.3818(9) 0.7910(5)
H15A H 0.4392 0.3817 0.8015
N2B N -0.2001(4) -0.2624(7) 0.5922(4)
N2A N 0.7999(4) 0.2624(7) 1.0922(4)
C21B C -0.2157(6) -0.1478(12) 0.5445(7)
H16B H -0.2670 -0.1254 0.5315
C22B C -0.1640(6) -0.0659(12) 0.5153(6)
H17B H -0.1790 0.0124 0.4829
C23B C -0.0911(7) -0.0924(11) 0.5310(6)
C24B C -0.0708(6) -0.2070(12) 0.5778(8)
H18B H -0.0194 -0.2304 0.5891
C25B C -0.1290(5) -0.2886(10) 0.6084(6)
H19B H -0.1156 -0.3662 0.6424
C26B C -0.0330(6) 0.0107(13) 0.4947(7)
H20B H -0.0504 0.0894 0.4645
O5 O 0.1193(5) 0.2967(8) 0.0953(7)
H21 H 0.1463 0.3005 0.1430
C27 C 0.1009(10) 0.4176(18) 0.0694(11)
H22 H 0.0540 0.4089 0.0311
H23 H 0.1402 0.4473 0.0299
C28 C 0.0881(9) 0.5372(19) 0.1349(11)
H24 H 0.0598 0.5055 0.1849
H25 H 0.0596 0.6081 0.1029
H26 H 0.1368 0.5725 0.1577
loop_
_geom_bond_atom_site_label_1
_geom_bond_atom_site_label_2
_geom_bond_site_symmetry_1
_geom_bond_site_symmetry_2
Zn1 O1 1_555 1_555
O1 C1 1_555 1_555
O2 C1 1_555 1_555
C1 C2 1_555 1_555
C2 C3 1_555 1_555
C3 H1 1_555 1_555
C4 C3 1_555 1_555
H2 C4 1_555 1_555
C5 C4 1_555 1_555
H3 C5 1_555 1_555
C6 C5 1_555 1_555
H4 C6 1_555 1_555
C7 C2 1_555 1_555
H5 C7 1_555 1_555
O3 Zn1 1_555 1_555
O4 C8 1_555 1_555
C8 O3 1_555 1_555
C9 C8 1_555 1_555
C10 C9 1_555 1_555
H6 C10 1_555 1_555
C11 C10 1_555 1_555
H7 C11 1_555 1_555
C12 C11 1_555 1_555
H8 C12 1_555 1_555
C13 C12 1_555 1_555
H9 C13 1_555 1_555
C14 C9 1_555 1_555
H10 C14 1_555 1_555
N1 Zn1 1_555 1_555
C15 N1 1_555 1_555
H11 C15 1_555 1_555
C16 C15 1_555 1_555
H12 C16 1_555 1_555
C17 C16 1_555 1_555
C18 C17 1_555 1_555
H13 C18 1_555 1_555
C19 N1 1_555 1_555
H14 C19 1_555 1_555
C20 C17 1_555 1_555
H15 C20 1_555 1_555
N2 Zn1 1_555 1_555
C21 N2 1_555 1_555
H16 C21 1_555 1_555
C22 C21 1_555 1_555
H17 C22 1_555 1_555
C23 C22 1_555 1_555
C24 C23 1_555 1_555
H18 C24 1_555 1_555
C25 N2 1_555 1_555
H19 C25 1_555 1_555
C26 C23 1_555 1_555
H20 C26 1_555 1_555
O5 H21 1_555 1_555
C27 O5 1_555 1_555
H22 C27 1_555 1_555
H23 C27 1_555 1_555
C28 C27 1_555 1_555
H24 C28 1_555 1_555
H25 C28 1_555 1_555
H26 C28 1_555 1_555
Zn1A O1A 1_555 1_555
Zn1B N2B 1_555 1_555
O1A C1A 1_555 1_555
O2A C1A 1_555 1_555
C1A C2A 1_555 1_555
C2A C3A 1_555 1_555
C3A H1A 1_555 1_555
C4A C3A 1_555 1_555
H2A C4A 1_555 1_555
C5A C4A 1_555 1_555
H3A C5A 1_555 1_555
C6A C5A 1_555 1_555
H4A C6A 1_555 1_555
C7A C2A 1_555 1_555
H5A C7A 1_555 1_555
O3A Zn1A 1_555 1_555
O4A C8A 1_555 1_555
C8A O3A 1_555 1_555
C9A C8A 1_555 1_555
C10A C9A 1_555 1_555
H6A C10A 1_555 1_555
C11A C10A 1_555 1_555
H7A C11A 1_555 1_555
C12A C11A 1_555 1_555
H8A C12A 1_555 1_555
C13A C12A 1_555 1_555
H9A C13A 1_555 1_555
C14A C9A 1_555 1_555
H10A C14A 1_555 1_555
N1A Zn1A 1_555 1_555
C15A N1A 1_555 1_555
H11A C15A 1_555 1_555
C16A C15A 1_555 1_555
H12A C16A 1_555 1_555
C17A C16A 1_555 1_555
C18A C17A 1_555 1_555
H13A C18A 1_555 1_555
C19A N1A 1_555 1_555
H14A C19A 1_555 1_555
C20A C20 1_555 1_555
H15A C20A 1_555 1_555
N2B C21B 1_555 1_555
N2A Zn1A 1_555 1_555
C21B H16B 1_555 1_555
C22B C21B 1_555 1_555
H17B C22B 1_555 1_555
C23B C22B 1_555 1_555
C24B C23B 1_555 1_555
H18B C24B 1_555 1_555
C25B N2B 1_555 1_555
H19B C25B 1_555 1_555
C26B C26 1_555 1_555
H20B C26B 1_555 1_555
C6 C7 1_555 1_555
C13 C14 1_555 1_555
C18 C19 1_555 1_555
C24 C25 1_555 1_555
C6A C7A 1_555 1_555
C13A C14A 1_555 1_555
C17A C20A 1_555 1_555
C18A C19A 1_555 1_555
C23B C26B 1_555 1_555
C24B C25B 1_555 1_555

#END
