
#######################################################################
#
#                 Cambridge Crystallographic Data Centre
#                                CCDC 
#
#######################################################################
#
# If this CIF has been generated from an entry in the Cambridge 
# Structural Database, then it will include bibliographic, chemical, 
# crystal, experimental, refinement or atomic coordinate data resulting 
# from the CCDC's data processing and validation procedures.
#
#######################################################################

data_FALMOW
_symmetry_cell_setting           monoclinic
_symmetry_space_group_name_H-M   'P 21/c'
_symmetry_Int_Tables_number      14
_space_group_name_Hall           '-P 2ybc'
loop_
_symmetry_equiv_pos_site_id
_symmetry_equiv_pos_as_xyz
1 x,y,z
2 -x,1/2+y,1/2-z
3 -x,-y,-z
4 x,1/2-y,1/2+z
_cell_length_a                   7.6253(2)
_cell_length_b                   7.1141(2)
_cell_length_c                   27.1040(6)
_cell_angle_alpha                90
_cell_angle_beta                 91.206(2)
_cell_angle_gamma                90
_cell_volume                     1469.99
loop_
_atom_site_label
_atom_site_type_symbol
_atom_site_fract_x
_atom_site_fract_y
_atom_site_fract_z
Mn1 Mn 0.25248(4) 0.23664(4) 0.249577(9)
S1 S 0.59763(8) 0.63161(8) 0.431643(19)
S2 S -0.09560(8) -0.15005(8) 0.067367(18)
O1 O 0.46630(18) 0.2593(2) 0.30320(5)
O2 O 0.6396(2) 0.4612(2) 0.26466(5)
O3 O 0.03457(18) 0.2067(2) 0.19727(5)
O4 O -0.1436(2) 0.0126(2) 0.23704(5)
O5 O 0.0977(2) 0.1199(2) 0.30936(5)
H1 H 0.135(3) 0.091(3) 0.3378(5)
O6 O 0.4017(2) 0.3553(2) 0.18888(5)
H2 H 0.360(3) 0.379(3) 0.1607(5)
N1 N 0.6575(2) 0.2914(2) 0.38962(6)
N2 N 0.6451(3) 0.1053(3) 0.39999(6)
N3 N 0.5828(3) 0.0895(3) 0.44331(7)
N4 N 0.5576(3) 0.2653(2) 0.46049(6)
H3 H 0.5169 0.2899 0.4891
N5 N -0.1605(2) 0.1845(2) 0.11195(5)
N6 N -0.1512(3) 0.3715(3) 0.10288(6)
N7 N -0.0890(3) 0.3930(3) 0.05978(7)
N8 N -0.0612(3) 0.2200(3) 0.04110(6)
H4 H -0.0206 0.1994 0.0122
C1 C 0.6001(3) 0.3610(3) 0.30083(6)
C2 C 0.7304(3) 0.3597(3) 0.34397(6)
H5 H 0.8294 0.2813 0.3356
H6 H 0.7738 0.4865 0.3492
C3 C 0.6029(3) 0.3971(3) 0.42787(7)
C4 C -0.1009(3) 0.1098(3) 0.20039(7)
C5 C -0.2317(3) 0.1101(3) 0.15724(6)
H7 H -0.2715 -0.0176 0.1513
H8 H -0.3329 0.1846 0.1661
C6 C -0.1045(3) 0.0834(3) 0.07303(7)
H9 H 0.469(4) 0.427(4) 0.1992(11)
H10 H 0.026(4) 0.048(4) 0.2980(11)
Mn1A Mn 0.74752(4) 0.73664(4) 0.250423(9)
Mn1A_2 Mn -0.25248(4) -0.26336(4) 0.250423(9)
O2A O 0.3604(2) -0.0388(2) 0.23534(5)
O4A O 0.1436(2) 0.5126(2) 0.26296(5)
loop_
_geom_bond_atom_site_label_1
_geom_bond_atom_site_label_2
_geom_bond_site_symmetry_1
_geom_bond_site_symmetry_2
Mn1 O1 1_555 1_555
S1 C3 1_555 1_555
S2 C6 1_555 1_555
O1 C1 1_555 1_555
O2 C1 1_555 1_555
O3 Mn1 1_555 1_555
O4 C4 1_555 1_555
O5 Mn1 1_555 1_555
H1 O5 1_555 1_555
O6 Mn1 1_555 1_555
H2 O6 1_555 1_555
N1 N2 1_555 1_555
N2 N3 1_555 1_555
N3 N4 1_555 1_555
N4 H3 1_555 1_555
N5 N6 1_555 1_555
N6 N7 1_555 1_555
N7 N8 1_555 1_555
N8 H4 1_555 1_555
C1 C2 1_555 1_555
C2 N1 1_555 1_555
H5 C2 1_555 1_555
H6 C2 1_555 1_555
C3 N1 1_555 1_555
C4 O3 1_555 1_555
C5 N5 1_555 1_555
H7 C5 1_555 1_555
H8 C5 1_555 1_555
C6 N5 1_555 1_555
H9 O6 1_555 1_555
H10 O5 1_555 1_555
Mn1A O2 1_555 1_555
Mn1A_2 O4 1_555 1_555
O2A Mn1 1_555 1_555
O4A Mn1 1_555 1_555
N4 C3 1_555 1_555
N8 C6 1_555 1_555
C4 C5 1_555 1_555

#END
