
#######################################################################
#
#                 Cambridge Crystallographic Data Centre
#                                CCDC 
#
#######################################################################
#
# If this CIF has been generated from an entry in the Cambridge 
# Structural Database, then it will include bibliographic, chemical, 
# crystal, experimental, refinement or atomic coordinate data resulting 
# from the CCDC's data processing and validation procedures.
#
#######################################################################

data_FALMAI
_symmetry_cell_setting           triclinic
_symmetry_space_group_name_H-M   'P -1'
_symmetry_Int_Tables_number      2
_space_group_name_Hall           '-P 1'
loop_
_symmetry_equiv_pos_site_id
_symmetry_equiv_pos_as_xyz
1 x,y,z
2 -x,-y,-z
_cell_length_a                   10.754(3)
_cell_length_b                   10.971(3)
_cell_length_c                   12.175(3)
_cell_angle_alpha                96.535(5)
_cell_angle_beta                 106.416(4)
_cell_angle_gamma                104.760(5)
_cell_volume                     1305.4
loop_
_atom_site_label
_atom_site_type_symbol
_atom_site_fract_x
_atom_site_fract_y
_atom_site_fract_z
Zn1 Zn 0.88736(4) 0.88800(4) 0.56792(4)
N1 N 1.0572(3) 0.8847(3) 0.7173(3)
C1 C 1.0782(4) 0.9537(4) 0.8233(3)
H1 H 1.0231 1.0052 0.8300
C2 C 1.1776(4) 0.9510(4) 0.9218(3)
H2 H 1.1871 0.9989 0.9934
C3 C 1.2637(4) 0.8779(4) 0.9161(3)
C4 C 1.2438(4) 0.8090(4) 0.8060(3)
H3 H 1.3001 0.7596 0.7965
C5 C 1.1399(4) 0.8144(4) 0.7107(3)
H4 H 1.1273 0.7664 0.6383
C6 C 1.3737(4) 0.8710(4) 1.0167(3)
H5 H 1.4279 0.8217 1.0014
N2 N 1.7303(3) 0.9079(3) 1.4166(3)
C7 C 1.7078(4) 0.8462(4) 1.3082(3)
H6 H 1.7654 0.7991 1.2970
C8 C 1.6043(4) 0.8486(4) 1.2127(3)
H7 H 1.5928 0.8029 1.1395
C9 C 1.5170(4) 0.9186(4) 1.2245(3)
C10 C 1.5408(4) 0.9829(4) 1.3369(3)
H8 H 1.4857 1.0319 1.3504
C11 C 1.6457(4) 0.9743(4) 1.4282(3)
H9 H 1.6583 1.0175 1.5026
C12 C 1.4038(4) 0.9271(4) 1.1264(3)
H10 H 1.3497 0.9757 1.1433
O1 O 0.9415(3) 1.0807(2) 0.6220(2)
O2 O 1.0470(3) 1.2206(3) 0.5338(2)
C13 C 0.9707(4) 1.1871(4) 0.5947(3)
C14 C 0.9093(4) 1.2847(4) 0.6362(3)
C15 C 0.8157(4) 1.2507(4) 0.6932(4)
H11 H 0.7953 1.1693 0.7110
C16 C 0.7524(5) 1.3364(5) 0.7238(5)
H12 H 0.6888 1.3127 0.7618
C17 C 0.7826(6) 1.4570(5) 0.6986(5)
H13 H 0.7392 1.5148 0.7194
C18 C 0.8759(6) 1.4928(5) 0.6431(5)
H14 H 0.8961 1.5747 0.6262
C19 C 0.9403(5) 1.4066(4) 0.6122(4)
H15 H 1.0046 1.4310 0.5750
O3 O 0.7431(3) 0.7695(3) 0.6091(2)
O4 O 0.7619(3) 0.9070(3) 0.7657(3)
C20 C 0.7102(4) 0.8039(4) 0.6972(4)
C21 C 0.5953(4) 0.7030(4) 0.7142(4)
C22 C 0.4988(5) 0.6146(5) 0.6231(4)
H16 H 0.5009 0.6178 0.5476
C23 C 0.3960(5) 0.5185(5) 0.6404(5)
H17 H 0.3294 0.4593 0.5772
C24 C 0.3956(6) 0.5135(5) 0.7529(5)
H18 H 0.3300 0.4486 0.7661
C25 C 0.4907(5) 0.6028(5) 0.8446(5)
H19 H 0.4891 0.5989 0.9201
C26 C 0.5893(5) 0.6992(4) 0.8270(4)
H20 H 0.6519 0.7616 0.8900
Zn1_2 Zn 1.88736(4) 0.88800(4) 1.56792(4)
Zn1A Zn 1.11264(4) 1.11200(4) 0.43208(4)
N2_2 N 0.7303(3) 0.9079(3) 0.4166(3)
O2A O 0.9530(3) 0.7794(3) 0.4662(2)
O5 O 0.7879(4) 0.6984(4) 0.1059(3)
C27 C 0.8516(5) 0.6486(5) 0.0601(4)
C28 C 0.9470(6) 0.7256(5) 0.0057(5)
H21 H 0.9301 0.8068 -0.0005
H22 H 0.9325 0.6789 -0.0708
H23 H 1.0393 0.7401 0.0536
C29 C 0.8440(7) 0.5125(5) 0.0565(5)
H24 H 0.7855 0.4759 0.0987
H25 H 0.9333 0.5058 0.0917
H26 H 0.8082 0.4669 -0.0233
loop_
_geom_bond_atom_site_label_1
_geom_bond_atom_site_label_2
_geom_bond_site_symmetry_1
_geom_bond_site_symmetry_2
Zn1 N1 1_555 1_555
N1 C1 1_555 1_555
C1 H1 1_555 1_555
C2 C1 1_555 1_555
H2 C2 1_555 1_555
C3 C2 1_555 1_555
C4 C3 1_555 1_555
H3 C4 1_555 1_555
C5 N1 1_555 1_555
H4 C5 1_555 1_555
C6 C3 1_555 1_555
H5 C6 1_555 1_555
N2 C7 1_555 1_555
C7 H6 1_555 1_555
C8 C7 1_555 1_555
H7 C8 1_555 1_555
C9 C8 1_555 1_555
C10 C9 1_555 1_555
H8 C10 1_555 1_555
C11 N2 1_555 1_555
H9 C11 1_555 1_555
C12 C6 1_555 1_555
H10 C12 1_555 1_555
O1 Zn1 1_555 1_555
O2 C13 1_555 1_555
C13 O1 1_555 1_555
C14 C13 1_555 1_555
C15 C14 1_555 1_555
H11 C15 1_555 1_555
C16 C15 1_555 1_555
H12 C16 1_555 1_555
C17 C16 1_555 1_555
H13 C17 1_555 1_555
C18 C17 1_555 1_555
H14 C18 1_555 1_555
C19 C14 1_555 1_555
H15 C19 1_555 1_555
O3 Zn1 1_555 1_555
O4 C20 1_555 1_555
C20 O3 1_555 1_555
C21 C20 1_555 1_555
C22 C21 1_555 1_555
H16 C22 1_555 1_555
C23 C22 1_555 1_555
H17 C23 1_555 1_555
C24 C23 1_555 1_555
H18 C24 1_555 1_555
C25 C24 1_555 1_555
H19 C25 1_555 1_555
C26 C21 1_555 1_555
H20 C26 1_555 1_555
O5 C27 1_555 1_555
C27 C28 1_555 1_555
C28 H21 1_555 1_555
H22 C28 1_555 1_555
H23 C28 1_555 1_555
C29 C27 1_555 1_555
H24 C29 1_555 1_555
H25 C29 1_555 1_555
H26 C29 1_555 1_555
Zn1_2 N2 1_555 1_555
Zn1A O2 1_555 1_555
N2_2 Zn1 1_555 1_555
O2A Zn1 1_555 1_555
C4 C5 1_555 1_555
C9 C12 1_555 1_555
C10 C11 1_555 1_555
C18 C19 1_555 1_555
C25 C26 1_555 1_555

#END
