
#######################################################################
#
#                 Cambridge Crystallographic Data Centre
#                                CCDC 
#
#######################################################################
#
# If this CIF has been generated from an entry in the Cambridge 
# Structural Database, then it will include bibliographic, chemical, 
# crystal, experimental, refinement or atomic coordinate data resulting 
# from the CCDC's data processing and validation procedures.
#
#######################################################################

data_FALMEM
_symmetry_cell_setting           triclinic
_symmetry_space_group_name_H-M   'P -1'
_symmetry_Int_Tables_number      2
_space_group_name_Hall           '-P 1'
loop_
_symmetry_equiv_pos_site_id
_symmetry_equiv_pos_as_xyz
1 x,y,z
2 -x,-y,-z
_cell_length_a                   9.941(6)
_cell_length_b                   10.521(6)
_cell_length_c                   11.848(6)
_cell_angle_alpha                92.171(11)
_cell_angle_beta                 98.471(10)
_cell_angle_gamma                95.196(10)
_cell_volume                     1218.97
loop_
_atom_site_label
_atom_site_type_symbol
_atom_site_fract_x
_atom_site_fract_y
_atom_site_fract_z
Zn1 Zn 0.64583(5) 0.92787(5) 0.59003(4)
O1 O 0.7837(3) 0.8777(3) 0.7135(3)
O2 O 0.7607(3) 0.6662(3) 0.6869(3)
O3 O 0.3390(3) 1.1228(3) 0.5719(2)
O4 O 0.5335(3) 1.0556(3) 0.6567(3)
N1 N 0.4841(3) 0.7799(3) 0.6007(3)
N2 N -0.2061(3) 0.0953(3) 0.5771(3)
C1 C 0.8174(4) 0.7688(5) 0.7353(4)
C2 C 0.9398(4) 0.7626(4) 0.8268(4)
C3 C 0.9755(5) 0.6474(5) 0.8666(4)
H1 H 0.9241 0.5721 0.8370
C4 C 1.0865(5) 0.6426(5) 0.9499(5)
H2 H 1.1106 0.5637 0.9744
C5 C 1.1609(5) 0.7498(6) 0.9967(5)
H3 H 1.2336 0.7453 1.0551
C6 C 1.1288(6) 0.8658(6) 0.9575(6)
H4 H 1.1821 0.9402 0.9868
C7 C 1.0160(5) 0.8716(5) 0.8736(5)
H5 H 0.9923 0.9507 0.8490
C8 C 0.4220(4) 1.1027(4) 0.6576(4)
C9 C 0.3888(4) 1.1371(4) 0.7751(4)
C10 C 0.4801(5) 1.1258(4) 0.8705(4)
H6 H 0.5634 1.0949 0.8637
C11 C 0.4507(6) 1.1599(6) 0.9780(5)
H7 H 0.5136 1.1522 1.0431
C12 C 0.3287(7) 1.2043(6) 0.9862(5)
H8 H 0.3090 1.2282 1.0579
C13 C 0.2342(6) 1.2150(5) 0.8927(5)
H9 H 0.1507 1.2450 0.9004
C14 C 0.2635(5) 1.1812(5) 0.7863(4)
H10 H 0.1993 1.1877 0.7217
C15 C 0.4503(5) 0.6825(4) 0.5248(4)
H11 H 0.4981 0.6786 0.4632
C16 C 0.3485(5) 0.5863(4) 0.5317(4)
H12 H 0.3293 0.5202 0.4757
C17 C 0.2749(5) 0.5884(5) 0.6222(4)
C18 C 0.3101(5) 0.6883(5) 0.7039(4)
H13 H 0.2649 0.6932 0.7671
C19 C 0.4137(5) 0.7804(4) 0.6898(4)
H14 H 0.4364 0.8469 0.7452
C20 C 0.1603(5) 0.4900(5) 0.6358(5)
H15 H 0.1185 0.4983 0.7005
C21 C 0.1162(5) 0.3964(5) 0.5655(5)
H16 H 0.1598 0.3898 0.5016
C22 C 0.0017(4) 0.2946(5) 0.5732(4)
C23 C -0.0258(5) 0.1981(5) 0.4900(4)
H17 H 0.0250 0.1975 0.4301
C24 C -0.1274(5) 0.1027(4) 0.4946(4)
H18 H -0.1429 0.0387 0.4365
C25 C -0.1797(5) 0.1898(5) 0.6577(4)
H19 H -0.2324 0.1884 0.7164
C26 C -0.0783(5) 0.2905(4) 0.6598(4)
H20 H -0.0643 0.3540 0.7182
Zn1A Zn 0.35417(5) 1.07213(5) 0.40997(4)
Zn1_2 Zn -0.35417(5) -0.07213(5) 0.59003(4)
O3A O 0.6610(3) 0.8772(3) 0.4281(2)
N2_2 N 0.7939(3) 1.0953(3) 0.5771(3)
O5 O 0.6594(6) 0.4388(4) 0.7784(5)
H21 H 0.6851 0.5014 0.7452
C27 C 0.5667(7) 0.4713(6) 0.8448(7)
H22 H 0.6099 0.5333 0.9036
H23 H 0.5314 0.3966 0.8791
H24 H 0.4931 0.5070 0.7987
loop_
_geom_bond_atom_site_label_1
_geom_bond_atom_site_label_2
_geom_bond_site_symmetry_1
_geom_bond_site_symmetry_2
Zn1 O1 1_555 1_555
O1 C1 1_555 1_555
O2 C1 1_555 1_555
O3 C8 1_555 1_555
O4 Zn1 1_555 1_555
N1 Zn1 1_555 1_555
N2 C24 1_555 1_555
C1 C2 1_555 1_555
C2 C3 1_555 1_555
C3 H1 1_555 1_555
C4 C3 1_555 1_555
H2 C4 1_555 1_555
C5 C4 1_555 1_555
H3 C5 1_555 1_555
C6 C5 1_555 1_555
H4 C6 1_555 1_555
C7 C2 1_555 1_555
H5 C7 1_555 1_555
C8 O4 1_555 1_555
C9 C8 1_555 1_555
C10 C9 1_555 1_555
H6 C10 1_555 1_555
C11 C10 1_555 1_555
H7 C11 1_555 1_555
C12 C11 1_555 1_555
H8 C12 1_555 1_555
C13 C12 1_555 1_555
H9 C13 1_555 1_555
C14 C9 1_555 1_555
H10 C14 1_555 1_555
C15 N1 1_555 1_555
H11 C15 1_555 1_555
C16 C15 1_555 1_555
H12 C16 1_555 1_555
C17 C16 1_555 1_555
C18 C17 1_555 1_555
H13 C18 1_555 1_555
C19 N1 1_555 1_555
H14 C19 1_555 1_555
C20 C17 1_555 1_555
H15 C20 1_555 1_555
C21 C20 1_555 1_555
H16 C21 1_555 1_555
C22 C21 1_555 1_555
C23 C22 1_555 1_555
H17 C23 1_555 1_555
C24 C23 1_555 1_555
H18 C24 1_555 1_555
C25 N2 1_555 1_555
H19 C25 1_555 1_555
C26 C22 1_555 1_555
H20 C26 1_555 1_555
O5 H21 1_555 1_555
C27 O5 1_555 1_555
H22 C27 1_555 1_555
H23 C27 1_555 1_555
H24 C27 1_555 1_555
Zn1A O3 1_555 1_555
Zn1_2 N2 1_555 1_555
O3A Zn1 1_555 1_555
N2_2 Zn1 1_555 1_555
C6 C7 1_555 1_555
C13 C14 1_555 1_555
C18 C19 1_555 1_555
C25 C26 1_555 1_555

#END
