
#######################################################################
#
#                 Cambridge Crystallographic Data Centre
#                                CCDC 
#
#######################################################################
#
# If this CIF has been generated from an entry in the Cambridge 
# Structural Database, then it will include bibliographic, chemical, 
# crystal, experimental, refinement or atomic coordinate data resulting 
# from the CCDC's data processing and validation procedures.
#
#######################################################################

data_FALMUC
_symmetry_cell_setting           monoclinic
_symmetry_space_group_name_H-M   'P 21/c'
_symmetry_Int_Tables_number      14
_space_group_name_Hall           '-P 2ybc'
loop_
_symmetry_equiv_pos_site_id
_symmetry_equiv_pos_as_xyz
1 x,y,z
2 -x,1/2+y,1/2-z
3 -x,-y,-z
4 x,1/2-y,1/2+z
_cell_length_a                   6.6070(15)
_cell_length_b                   8.6313(19)
_cell_length_c                   12.808(3)
_cell_angle_alpha                90
_cell_angle_beta                 103.235(2)
_cell_angle_gamma                90
_cell_volume                     711.002
loop_
_atom_site_label
_atom_site_type_symbol
_atom_site_fract_x
_atom_site_fract_y
_atom_site_fract_z
Zn1 Zn 0.98346(4) 0.51593(3) 0.30294(2)
N1 N 1.3423(3) 0.6709(2) 0.09671(15)
N2 N 1.2848(3) 0.5286(2) 0.05748(17)
N3 N 1.1723(3) 0.4710(2) 0.11773(17)
N4 N 1.1559(3) 0.5723(2) 0.19658(15)
O1 O 1.7459(3) 0.7120(2) 0.20218(13)
O2 O 1.7971(3) 0.8966(2) 0.08826(13)
O3 O 0.9696(3) 0.6654(2) 0.41929(13)
H1 H 0.9035 0.6396 0.4662
H2 H 0.9215 0.7529 0.3951
S1 S 1.30561(10) 0.86452(8) 0.25981(5)
C1 C 1.6898(4) 0.7911(3) 0.12127(18)
C2 C 1.4732(4) 0.7713(3) 0.04933(18)
H3 H 1.4077 0.8721 0.0356
H4 H 1.4854 0.7282 -0.0189
C3 C 1.2617(3) 0.6992(3) 0.18280(18)
Zn1_2 Zn 1.98346(4) 0.51593(3) 0.30294(2)
Zn1A Zn 2.01654(4) 1.01593(3) 0.19706(2)
Zn1A_2 Zn 1.01654(4) 1.01593(3) 0.19706(2)
O1_2 O 0.7459(3) 0.7120(2) 0.20218(13)
O2A O 1.2029(3) 0.3966(2) 0.41174(13)
S1A S 0.69439(10) 0.36452(8) 0.24019(5)
loop_
_geom_bond_atom_site_label_1
_geom_bond_atom_site_label_2
_geom_bond_site_symmetry_1
_geom_bond_site_symmetry_2
Zn1 N4 1_555 1_555
N1 N2 1_555 1_555
N2 N3 1_555 1_555
N3 N4 1_555 1_555
N4 C3 1_555 1_555
O1 C1 1_555 1_555
O2 C1 1_555 1_555
O3 Zn1 1_555 1_555
H1 O3 1_555 1_555
H2 O3 1_555 1_555
S1 C3 1_555 1_555
C1 C2 1_555 1_555
C2 N1 1_555 1_555
H3 C2 1_555 1_555
H4 C2 1_555 1_555
C3 N1 1_555 1_555
Zn1_2 O1 1_555 1_555
Zn1A O2 1_555 1_555
Zn1A_2 S1 1_555 1_555
O1_2 Zn1 1_555 1_555
O2A Zn1 1_555 1_555
S1A Zn1 1_555 1_555

#END
