
#######################################################################
#
#                 Cambridge Crystallographic Data Centre
#                                CCDC 
#
#######################################################################
#
# If this CIF has been generated from an entry in the Cambridge 
# Structural Database, then it will include bibliographic, chemical, 
# crystal, experimental, refinement or atomic coordinate data resulting 
# from the CCDC's data processing and validation procedures.
#
#######################################################################

data_FALNIR
_symmetry_cell_setting           monoclinic
_symmetry_space_group_name_H-M   'P 21/c'
_symmetry_Int_Tables_number      14
_space_group_name_Hall           '-P 2ybc'
loop_
_symmetry_equiv_pos_site_id
_symmetry_equiv_pos_as_xyz
1 x,y,z
2 -x,1/2+y,1/2-z
3 -x,-y,-z
4 x,1/2-y,1/2+z
_cell_length_a                   8.5844(9)
_cell_length_b                   22.107(2)
_cell_length_c                   10.2952(11)
_cell_angle_alpha                90
_cell_angle_beta                 102.3130(10)
_cell_angle_gamma                90
_cell_volume                     1908.83
loop_
_atom_site_label
_atom_site_type_symbol
_atom_site_fract_x
_atom_site_fract_y
_atom_site_fract_z
C1 C 0.6222(3) -0.04756(12) 0.8838(3)
C2 C 0.6993(4) -0.05857(13) 0.4147(3)
C3 C 0.6891(3) -0.09012(12) 0.5430(3)
C4 C 0.6602(3) -0.05665(13) 0.6500(3)
H1 H 0.6462 -0.0150 0.6418
C5 C 0.6522(3) -0.08485(12) 0.7688(3)
C6 C 0.6736(4) -0.14749(13) 0.7809(3)
H2 H 0.6711 -0.1668 0.8607
C7 C 0.6983(4) -0.18041(13) 0.6732(3)
C8 C 0.7061(4) -0.15272(13) 0.5546(3)
H3 H 0.7226 -0.1757 0.4830
C9 C -0.0056(4) 0.09367(17) 0.8762(3)
H4 H 0.0431 0.0993 0.9651
C10 C -0.0461(4) 0.06324(14) 0.6807(3)
H5 H -0.0373 0.0441 0.6021
C11 C -0.3027(4) 0.11856(14) 0.5922(3)
H6 H -0.3925 0.1254 0.6338
H7 H -0.3317 0.0865 0.5272
C12 C -0.2692(4) 0.17626(14) 0.5216(3)
H8 H -0.1688 0.1715 0.4938
H9 H -0.3522 0.1813 0.4421
C13 C -0.2609(5) 0.23337(14) 0.6049(4)
H10 H -0.3624 0.2400 0.6296
H11 H -0.1797 0.2288 0.6857
C14 C -0.2218(5) 0.28674(14) 0.5275(4)
H12 H -0.1201 0.2797 0.5033
H13 H -0.3022 0.2903 0.4459
C15 C -0.2923(4) 0.39482(13) 0.5668(3)
H14 H -0.3710 0.4003 0.4903
C16 C -0.1278(5) 0.40753(15) 0.7466(4)
H15 H -0.0701 0.4263 0.8226
I1 I 0.71775(4) -0.275208(10) 0.68964(2)
N1 N 0.0582(3) 0.05818(12) 0.7945(3)
N2 N -0.1408(4) 0.11954(14) 0.8215(3)
N3 N -0.1649(3) 0.09915(11) 0.6937(3)
N4 N -0.2136(3) 0.34388(11) 0.6010(3)
N5 N -0.1047(4) 0.35108(14) 0.7175(3)
N6 N -0.2425(3) 0.43669(11) 0.6573(3)
O1 O 0.5601(3) 0.00364(9) 0.8598(2)
O2 O 0.6639(3) -0.07140(9) 0.99794(18)
O3 O 0.7506(3) -0.00590(10) 0.4195(2)
O4 O 0.6561(3) -0.08758(9) 0.30712(19)
Zn1 Zn 0.30650(4) 0.025915(14) 0.83044(3)
N6A N 0.2425(3) -0.06331(11) 0.8427(3)
O2B O 0.3361(3) 0.07140(9) 1.00206(18)
O4B O 0.3439(3) 0.08758(9) 0.69288(19)
Zn1A Zn -0.30650(4) 0.525915(14) 0.66956(3)
Zn1B Zn 0.69350(4) -0.025915(14) 1.16956(3)
Zn1B_2 Zn 0.69350(4) -0.025915(14) 0.16956(3)
loop_
_geom_bond_atom_site_label_1
_geom_bond_atom_site_label_2
_geom_bond_site_symmetry_1
_geom_bond_site_symmetry_2
C1 C5 1_555 1_555
C2 C3 1_555 1_555
C3 C4 1_555 1_555
C4 H1 1_555 1_555
C5 C4 1_555 1_555
C6 C5 1_555 1_555
H2 C6 1_555 1_555
C7 C6 1_555 1_555
C8 C3 1_555 1_555
H3 C8 1_555 1_555
C9 H4 1_555 1_555
C10 H5 1_555 1_555
C11 H6 1_555 1_555
H7 C11 1_555 1_555
C12 C11 1_555 1_555
H8 C12 1_555 1_555
H9 C12 1_555 1_555
C13 C12 1_555 1_555
H10 C13 1_555 1_555
H11 C13 1_555 1_555
C14 C13 1_555 1_555
H12 C14 1_555 1_555
H13 C14 1_555 1_555
C15 H14 1_555 1_555
C16 H15 1_555 1_555
I1 C7 1_555 1_555
N1 C9 1_555 1_555
N2 C9 1_555 1_555
N3 C10 1_555 1_555
N4 C14 1_555 1_555
N5 C16 1_555 1_555
N6 C15 1_555 1_555
O1 C1 1_555 1_555
O2 C1 1_555 1_555
O3 C2 1_555 1_555
O4 C2 1_555 1_555
Zn1 N1 1_555 1_555
N6A Zn1 1_555 1_555
O2B Zn1 1_555 1_555
O4B Zn1 1_555 1_555
Zn1A N6 1_555 1_555
Zn1B O2 1_555 1_555
Zn1B_2 O4 1_555 1_555
C7 C8 1_555 1_555
C10 N1 1_555 1_555
C11 N3 1_555 1_555
C15 N4 1_555 1_555
C16 N6 1_555 1_555
N2 N3 1_555 1_555
N4 N5 1_555 1_555
O1 Zn1 1_555 1_555

#END
