
#######################################################################
#
#                 Cambridge Crystallographic Data Centre
#                                CCDC 
#
#######################################################################
#
# If this CIF has been generated from an entry in the Cambridge 
# Structural Database, then it will include bibliographic, chemical, 
# crystal, experimental, refinement or atomic coordinate data resulting 
# from the CCDC's data processing and validation procedures.
#
#######################################################################

data_FALNEN
_symmetry_cell_setting           monoclinic
_symmetry_space_group_name_H-M   'P 21/c'
_symmetry_Int_Tables_number      14
_space_group_name_Hall           '-P 2ybc'
loop_
_symmetry_equiv_pos_site_id
_symmetry_equiv_pos_as_xyz
1 x,y,z
2 -x,1/2+y,1/2-z
3 -x,-y,-z
4 x,1/2-y,1/2+z
_cell_length_a                   10.1291(10)
_cell_length_b                   16.9901(17)
_cell_length_c                   12.3894(12)
_cell_angle_alpha                90
_cell_angle_beta                 107.6600(10)
_cell_angle_gamma                90
_cell_volume                     2031.67
loop_
_atom_site_label
_atom_site_type_symbol
_atom_site_fract_x
_atom_site_fract_y
_atom_site_fract_z
C1 C 0.8278(5) 0.5595(3) 0.6179(4)
C2 C 0.6794(4) 0.5829(3) 0.5586(4)
C3 C 0.6394(5) 0.6129(3) 0.4493(4)
H1 H 0.7037 0.6182 0.4099
C4 C 0.5027(5) 0.6348(3) 0.3994(4)
C5 C 0.4047(5) 0.6261(3) 0.4561(4)
H2 H 0.3128 0.6399 0.4211
C6 C 0.4456(4) 0.5964(3) 0.5662(4)
C7 C 0.5815(5) 0.5745(3) 0.6161(4)
H3 H 0.6082 0.5539 0.6891
C8 C 0.3389(5) 0.5839(3) 0.6286(4)
C9 C 1.2008(5) 0.4128(3) 0.8124(4)
H4 H 1.2733 0.4378 0.8660
C10 C 1.0333(5) 0.3878(3) 0.6689(4)
H5 H 0.9647 0.3941 0.5999
C11 C 1.2048(7) 0.2841(4) 0.9139(5)
H6 H 1.3046 0.2872 0.9470
H7 H 1.1819 0.2311 0.8853
C12 C 1.1355(6) 0.3008(3) 1.0051(5)
H8 H 1.1771 0.2677 1.0703
H9 H 1.1521 0.3553 1.0290
C13 C 0.9806(6) 0.2859(3) 0.9638(5)
H10 H 0.9404 0.3133 0.8927
H11 H 0.9636 0.2301 0.9503
C14 C 0.9638(6) 0.3579(3) 1.1370(4)
H12 H 1.0541 0.3769 1.1622
C15 C 0.7548(6) 0.3337(4) 1.1182(5)
H13 H 0.6688 0.3334 1.1309
I1 I 0.43664(4) 0.67722(3) 0.23200(3)
N1 N 1.1234(4) 0.4452(2) 0.7178(3)
N2 N 1.1607(5) 0.3399(2) 0.8201(3)
N3 N 1.0512(5) 0.3222(3) 0.7273(4)
N4 N 0.9139(5) 0.3130(2) 1.0471(3)
N5 N 0.7788(5) 0.2971(3) 1.0328(4)
N6 N 0.8666(4) 0.3721(3) 1.1864(3)
O1 O 0.9186(3) 0.5822(2) 0.5732(3)
O2 O 0.8529(4) 0.5226(2) 0.7077(3)
O3 O 0.3807(4) 0.5620(2) 0.7297(3)
O4 O 0.2158(3) 0.5934(2) 0.5753(3)
Zn1 Zn 1.10783(5) 0.56004(3) 0.67507(4)
N6B N 1.1334(4) 0.6279(3) 0.8136(3)
O4_2 O 1.2158(3) 0.5934(2) 0.5753(3)
Zn1B Zn 0.89217(5) 0.43996(3) 1.32493(4)
Zn1_2 Zn 0.10783(5) 0.56004(3) 0.67507(4)
O5 O 0.8602(5) 0.4855(3) 0.9294(4)
H14 H 0.8591 0.4884 0.8630
H15 H 0.7921 0.4609 0.9332
O6 O 0.5861(5) 0.5350(3) 0.9404(4)
H16 H 0.5306 0.5416 0.8774
H17 H 0.5965 0.5760 0.9770
loop_
_geom_bond_atom_site_label_1
_geom_bond_atom_site_label_2
_geom_bond_site_symmetry_1
_geom_bond_site_symmetry_2
C1 C2 1_555 1_555
C2 C3 1_555 1_555
C3 H1 1_555 1_555
C4 C3 1_555 1_555
C5 C4 1_555 1_555
H2 C5 1_555 1_555
C6 C5 1_555 1_555
C7 C2 1_555 1_555
H3 C7 1_555 1_555
C8 C6 1_555 1_555
C9 H4 1_555 1_555
C10 H5 1_555 1_555
C11 H6 1_555 1_555
H7 C11 1_555 1_555
C12 C11 1_555 1_555
H8 C12 1_555 1_555
H9 C12 1_555 1_555
C13 C12 1_555 1_555
H10 C13 1_555 1_555
H11 C13 1_555 1_555
C14 H12 1_555 1_555
C15 H13 1_555 1_555
I1 C4 1_555 1_555
N1 C9 1_555 1_555
N2 C9 1_555 1_555
N3 C10 1_555 1_555
N4 C13 1_555 1_555
N5 C15 1_555 1_555
N6 C14 1_555 1_555
O1 C1 1_555 1_555
O2 C1 1_555 1_555
O3 C8 1_555 1_555
O4 C8 1_555 1_555
O5 H14 1_555 1_555
H15 O5 1_555 1_555
O6 H16 1_555 1_555
H17 O6 1_555 1_555
Zn1 N1 1_555 1_555
N6B Zn1 1_555 1_555
O4_2 Zn1 1_555 1_555
Zn1B N6 1_555 1_555
Zn1_2 O4 1_555 1_555
C6 C7 1_555 1_555
C10 N1 1_555 1_555
C11 N2 1_555 1_555
C14 N4 1_555 1_555
C15 N6 1_555 1_555
N2 N3 1_555 1_555
N4 N5 1_555 1_555
O1 Zn1 1_555 1_555

#END
