
#######################################################################
#
#                 Cambridge Crystallographic Data Centre
#                                CCDC 
#
#######################################################################
#
# If this CIF has been generated from an entry in the Cambridge 
# Structural Database, then it will include bibliographic, chemical, 
# crystal, experimental, refinement or atomic coordinate data resulting 
# from the CCDC's data processing and validation procedures.
#
#######################################################################

data_FALNAJ
_symmetry_cell_setting           monoclinic
_symmetry_space_group_name_H-M   'P 21/c'
_symmetry_Int_Tables_number      14
_space_group_name_Hall           '-P 2ybc'
loop_
_symmetry_equiv_pos_site_id
_symmetry_equiv_pos_as_xyz
1 x,y,z
2 -x,1/2+y,1/2-z
3 -x,-y,-z
4 x,1/2-y,1/2+z
_cell_length_a                   7.8550(13)
_cell_length_b                   17.546(3)
_cell_length_c                   18.586(3)
_cell_angle_alpha                90
_cell_angle_beta                 111.626(6)
_cell_angle_gamma                90
_cell_volume                     2381.28
loop_
_atom_site_label
_atom_site_type_symbol
_atom_site_fract_x
_atom_site_fract_y
_atom_site_fract_z
C1 C 1.2127(6) 0.7496(2) -0.1347(2)
C2 C 1.3364(6) 0.8383(2) 0.1381(2)
C3 C 1.3864(6) 0.8362(2) 0.0667(2)
C4 C 1.5381(6) 0.8762(2) 0.0662(2)
H1 H 1.6066 0.9056 0.1086
C5 C 1.5868(6) 0.8719(3) 0.0016(2)
C6 C 1.4857(6) 0.8289(2) -0.0620(2)
H2 H 1.5222 0.8252 -0.1042
C7 C 1.3293(5) 0.7911(2) -0.0630(2)
C8 C 1.2805(5) 0.7948(2) 0.0016(2)
H3 H 1.1763 0.7695 0.0013
C9 C 0.8124(6) 0.7853(2) -0.3991(3)
H4 H 0.8634 0.7757 -0.4361
C10 C 0.7695(6) 0.7838(3) -0.2947(3)
H5 H 0.7772 0.7740 -0.2444
C11 C 0.5105(9) 0.8816(4) -0.3346(3)
H6 H 0.3911 0.8702 -0.3734
H7 H 0.5417 0.9336 -0.3427
C12 C 0.5021(9) 0.8749(4) -0.2579(4)
H8 H 0.4596 0.8243 -0.2519
H9 H 0.6243 0.8811 -0.2192
C13 C 0.3724(7) 0.9353(3) -0.2432(3)
H10 H 0.4269 0.9853 -0.2407
H11 H 0.3647 0.9251 -0.1932
C14 C 0.1816(8) 0.9370(3) -0.3034(4)
H12 H 0.1316 0.8858 -0.3129
H13 H 0.1837 0.9574 -0.3516
C15 C 0.0529(8) 1.0608(3) -0.2770(3)
H14 H 0.1098 1.0928 -0.3012
C16 C -0.1014(7) 1.0180(3) -0.2151(3)
H15 H -0.1774 1.0158 -0.1868
I1 I 1.81571(5) 0.93167(3) -0.00151(2)
N1 N 0.8796(5) 0.7540(2) -0.32715(19)
N2 N 0.6714(6) 0.8297(2) -0.4123(2)
N3 N 0.6478(5) 0.8291(2) -0.3441(2)
N4 N 0.0663(6) 0.9859(2) -0.2745(3)
N5 N -0.0304(7) 0.9571(2) -0.2345(3)
N6 N -0.0539(5) 1.0839(2) -0.2400(2)
O1 O 1.2783(4) 0.74447(18) -0.18816(15)
O2 O 1.0641(5) 0.7225(2) -0.14076(17)
O3 O 1.1984(4) 0.79961(19) 0.13475(16)
O4 O 1.4283(5) 0.8781(2) 0.19357(19)
Zn1 Zn 1.11216(6) 0.69163(3) -0.27951(2)
N6A N 1.0539(5) 0.5839(2) -0.2600(2)
O3C O 1.1984(4) 0.70039(19) -0.36525(16)
Zn1A Zn -0.11216(6) 1.19163(3) -0.22049(2)
Zn1C Zn 1.11216(6) 0.80837(3) 0.22049(2)
O5 O 0.5814(6) 0.9070(3) 0.3515(2)
H16 H 0.5665 0.9073 0.3951
H17 H 0.5479 0.8626 0.3301
O6 O 0.4285(8) 0.5706(3) 0.9658(3)
H18 H 0.4929 0.6027 0.9994
H19 H 0.3240 0.5664 0.9688
O7 O 0.8569(10) 0.6875(5) 0.9422(4)
H20 H 0.8015 0.7285 0.9221
H21 H 0.8044 0.6493 0.9115
O8 O 0.0951(12) 0.5626(5) 0.9938(5)
H22 H 0.0738 0.5280 0.9597
H23 H 0.0178 0.5981 0.9794
loop_
_geom_bond_atom_site_label_1
_geom_bond_atom_site_label_2
_geom_bond_site_symmetry_1
_geom_bond_site_symmetry_2
C1 C7 1_555 1_555
C2 C3 1_555 1_555
C3 C4 1_555 1_555
C4 H1 1_555 1_555
C5 C4 1_555 1_555
C6 C5 1_555 1_555
H2 C6 1_555 1_555
C7 C6 1_555 1_555
C8 C3 1_555 1_555
H3 C8 1_555 1_555
C9 H4 1_555 1_555
C10 H5 1_555 1_555
C11 H6 1_555 1_555
H7 C11 1_555 1_555
C12 C11 1_555 1_555
H8 C12 1_555 1_555
H9 C12 1_555 1_555
C13 C12 1_555 1_555
H10 C13 1_555 1_555
H11 C13 1_555 1_555
C14 C13 1_555 1_555
H12 C14 1_555 1_555
H13 C14 1_555 1_555
C15 H14 1_555 1_555
C16 H15 1_555 1_555
I1 C5 1_555 1_555
N1 C9 1_555 1_555
N2 C9 1_555 1_555
N3 C10 1_555 1_555
N4 C14 1_555 1_555
N5 C16 1_555 1_555
N6 C15 1_555 1_555
O1 C1 1_555 1_555
O2 C1 1_555 1_555
O3 C2 1_555 1_555
O4 C2 1_555 1_555
O5 H16 1_555 1_555
H17 O5 1_555 1_555
O6 H18 1_555 1_555
H19 O6 1_555 1_555
O7 H20 1_555 1_555
H21 O7 1_555 1_555
O8 H22 1_555 1_555
H23 O8 1_555 1_555
Zn1 N1 1_555 1_555
N6A Zn1 1_555 1_555
O3C Zn1 1_555 1_555
Zn1A N6 1_555 1_555
Zn1C O3 1_555 1_555
C7 C8 1_555 1_555
C10 N1 1_555 1_555
C11 N3 1_555 1_555
C15 N4 1_555 1_555
C16 N6 1_555 1_555
N2 N3 1_555 1_555
N4 N5 1_555 1_555
O1 Zn1 1_555 1_555

#END
