
#######################################################################
#
#                 Cambridge Crystallographic Data Centre
#                                CCDC 
#
#######################################################################
#
# If this CIF has been generated from an entry in the Cambridge 
# Structural Database, then it will include bibliographic, chemical, 
# crystal, experimental, refinement or atomic coordinate data resulting 
# from the CCDC's data processing and validation procedures.
#
#######################################################################

data_FALQAM
_symmetry_cell_setting           monoclinic
_symmetry_space_group_name_H-M   'P 21/c'
_symmetry_Int_Tables_number      14
_space_group_name_Hall           '-P 2ybc'
loop_
_symmetry_equiv_pos_site_id
_symmetry_equiv_pos_as_xyz
1 x,y,z
2 -x,1/2+y,1/2-z
3 -x,-y,-z
4 x,1/2-y,1/2+z
_cell_length_a                   14.862(4)
_cell_length_b                   6.2531(18)
_cell_length_c                   10.122(3)
_cell_angle_alpha                90
_cell_angle_beta                 90.938(4)
_cell_angle_gamma                90
_cell_volume                     940.548
loop_
_atom_site_label
_atom_site_type_symbol
_atom_site_fract_x
_atom_site_fract_y
_atom_site_fract_z
Mn1 Mn 0.191178(19) 1.06230(5) 0.00453(3)
O1 O 0.32683(10) 0.8882(2) 0.03470(13)
O2 O 0.23737(11) 1.2321(2) 0.18358(14)
C1 C 0.46612(14) 0.8177(4) 0.1254(2)
H1 H 0.5276 0.8420 0.1354
O3 O 0.07037(12) 1.2450(3) -0.00233(18)
C2 C 0.32512(13) 0.6783(3) 0.09816(19)
H2 H 0.2885 0.5696 0.0529
C3 C 0.39168(13) 0.9829(3) 0.1254(2)
H3 H 0.4105 1.1283 0.1028
C4 C 0.42511(15) 0.6305(4) 0.1083(2)
H4 H 0.4523 0.4968 0.1035
C5 C 0.34154(13) 0.9622(3) 0.25897(19)
H5 H 0.3855 0.9540 0.3320
C6 C 0.29480(13) 0.7384(3) 0.23965(18)
H6 H 0.3197 0.6359 0.3036
O5 O 0.14791(10) 0.8313(3) 0.15609(15)
O6 O 0.27492(12) 1.2206(2) 0.39720(15)
C7 C 0.27833(13) 1.1524(3) 0.28060(19)
O7 O 0.15546(9) 0.6511(2) 0.34389(14)
C8 C 0.19235(12) 0.7407(3) 0.24746(18)
Mn1C Mn 0.191178(19) 0.43770(5) 0.50453(3)
Mn1C_2 Mn 0.191178(19) 1.43770(5) 0.50453(3)
O6C O 0.27492(12) 1.2794(2) -0.10280(15)
O7C O 0.15546(9) 0.8489(2) -0.15611(14)
O4 O 0.00000(11) 0.4924(3) 0.20030(17)
loop_
_geom_bond_atom_site_label_1
_geom_bond_atom_site_label_2
_geom_bond_site_symmetry_1
_geom_bond_site_symmetry_2
Mn1 O1 1_555 1_555
O1 C2 1_555 1_555
O2 Mn1 1_555 1_555
C1 H1 1_555 1_555
O3 Mn1 1_555 1_555
C2 H2 1_555 1_555
C3 O1 1_555 1_555
H3 C3 1_555 1_555
C4 C1 1_555 1_555
H4 C4 1_555 1_555
C5 C3 1_555 1_555
H5 C5 1_555 1_555
C6 C2 1_555 1_555
H6 C6 1_555 1_555
O5 Mn1 1_555 1_555
O6 C7 1_555 1_555
C7 O2 1_555 1_555
O7 C8 1_555 1_555
C8 C6 1_555 1_555
Mn1C O7 1_555 1_555
Mn1C_2 O6 1_555 1_555
O6C Mn1 1_555 1_555
O7C Mn1 1_555 1_555
C1 C3 1_555 1_555
C2 C4 1_555 1_555
C5 C6 1_555 1_555
C5 C7 1_555 1_555
O5 C8 1_555 1_555

#END
