
#######################################################################
#
#                 Cambridge Crystallographic Data Centre
#                                CCDC 
#
#######################################################################
#
# If this CIF has been generated from an entry in the Cambridge 
# Structural Database, then it will include bibliographic, chemical, 
# crystal, experimental, refinement or atomic coordinate data resulting 
# from the CCDC's data processing and validation procedures.
#
#######################################################################

data_FALRER
_symmetry_cell_setting           triclinic
_symmetry_space_group_name_H-M   'P -1'
_symmetry_Int_Tables_number      2
_space_group_name_Hall           '-P 1'
loop_
_symmetry_equiv_pos_site_id
_symmetry_equiv_pos_as_xyz
1 x,y,z
2 -x,-y,-z
_cell_length_a                   6.9007(2)
_cell_length_b                   9.6327(4)
_cell_length_c                   14.1655(4)
_cell_angle_alpha                82.820(3)
_cell_angle_beta                 84.971(2)
_cell_angle_gamma                76.703(3)
_cell_volume                     907.491
loop_
_atom_site_label
_atom_site_type_symbol
_atom_site_fract_x
_atom_site_fract_y
_atom_site_fract_z
Nd1 Nd 0.28519(3) 0.40096(2) 0.096305(12)
Cu1 Cu 0.5000 0.5000 0.5000
O1 O 0.4561(3) 0.5190(3) 0.19791(16)
O2 O 0.3342(3) 0.3194(3) -0.07000(15)
O3 O 0.3242(4) 0.6707(3) 0.54449(17)
N1 N 0.5979(4) 0.1942(3) 0.17698(19)
O4 O 0.9476(3) 0.3958(3) 0.06064(16)
O5 O 0.6427(3) 0.3925(3) 0.03000(15)
O6 O 0.1404(4) 0.3475(3) 0.26256(17)
O7 O 0.0508(3) 0.6237(3) 0.14490(17)
O8 O 0.3361(4) 0.5109(3) 0.34963(17)
O9 O 0.2695(3) 0.1497(3) 0.10741(17)
C1 C 0.7924(5) 0.3493(4) 0.0801(2)
N2 N 0.6178(4) 0.6381(3) 0.40467(19)
O10 O 0.2470(4) 0.9079(3) 0.51430(18)
C2 C 0.4592(5) 0.5375(4) 0.2847(2)
C3 C 0.3392(5) 0.7870(4) 0.4950(2)
O11 O 0.4044(4) -0.0825(3) 0.10724(18)
C4 C 0.6179(5) 0.0767(4) 0.1181(3)
H1 H 0.7096 -0.0099 0.1468
H2 H 0.6749 0.1038 0.0536
C5 C 0.7819(5) 0.2465(4) 0.1679(2)
H3 H 0.8977 0.1641 0.1657
H4 H 0.7899 0.2949 0.2247
C6 C 0.5625(5) 0.1375(4) 0.2771(2)
H5 H 0.6810 0.0662 0.2979
H6 H 0.4478 0.0923 0.2825
H7 H 0.5351 0.2162 0.3174
C7 C 0.4155(5) 0.0445(4) 0.1106(2)
C8 C 0.6395(5) 0.5902(4) 0.3086(2)
H8 H 0.7600 0.5118 0.3042
H9 H 0.6590 0.6709 0.2609
C9 C 0.4741(6) 0.7786(4) 0.4049(2)
H10 H 0.3917 0.7938 0.3491
H11 H 0.5484 0.8561 0.3989
C10 C 0.8146(6) 0.6497(5) 0.4330(3)
H12 H 0.8692 0.7165 0.3860
H13 H 0.9059 0.5550 0.4360
H14 H 0.7990 0.6851 0.4958
Nd1A Nd 0.71481(3) 0.59904(2) 0.903695(12)
Nd1_2 Nd 1.28519(3) 0.40096(2) 0.096305(12)
Nd1A_2 Nd 0.71481(3) 0.59904(2) -0.096305(12)
Nd1_3 Nd -0.71481(3) 0.40096(2) 0.096305(12)
Nd1A_3 Nd -0.28519(3) 0.59904(2) -0.096305(12)
O1A O 0.5439(3) 0.4810(3) 0.80209(16)
O2A O 0.6658(3) 0.6806(3) 1.07000(15)
O3A O 0.6758(4) 0.3293(3) 0.45551(17)
N1_2 N -0.4021(4) 0.1942(3) 0.17698(19)
N1A N 0.4021(4) 0.8058(3) 0.82302(19)
O4_2 O -0.0524(3) 0.3958(3) 0.06064(16)
O4A O 1.0524(3) 0.6042(3) 0.93936(16)
O5_2 O -0.3573(3) 0.3925(3) 0.03000(15)
O5A O 0.3573(3) 0.6075(3) -0.03000(15)
O5A_2 O 0.3573(3) 0.6075(3) 0.97000(15)
O5_3 O 0.6427(3) 0.3925(3) 1.03000(15)
O6A O 0.8596(4) 0.6525(3) 0.73744(17)
O7A O 0.9492(3) 0.3763(3) 0.85510(17)
O8A O 0.6639(4) 0.4891(3) 0.65037(17)
O9_2 O -0.7305(3) 0.1497(3) 0.10741(17)
O9A O 0.7305(3) 0.8503(3) 0.89259(17)
C1_2 C -0.2076(5) 0.3493(4) 0.0801(2)
N2A N 0.3822(4) 0.3619(3) 0.59533(19)
O10A O 0.7530(4) 0.0921(3) 0.48570(18)
C2A C 0.5408(5) 0.4625(4) 0.7153(2)
C3A C 0.6608(5) 0.2130(4) 0.5050(2)
O11_2 O -0.5956(4) -0.0825(3) 0.10724(18)
C4_2 C -0.3821(5) 0.0767(4) 0.1181(3)
H1_2 H -0.2904 -0.0099 0.1468
H2_2 H -0.3251 0.1038 0.0536
C5_2 C -0.2181(5) 0.2465(4) 0.1679(2)
H3_2 H -0.1023 0.1641 0.1657
H4_2 H -0.2101 0.2949 0.2247
C6_2 C -0.4375(5) 0.1375(4) 0.2771(2)
H5_2 H -0.3190 0.0662 0.2979
H6_2 H -0.5522 0.0923 0.2825
H7_2 H -0.4649 0.2162 0.3174
C7_2 C -0.5845(5) 0.0445(4) 0.1106(2)
C8A C 0.3605(5) 0.4098(4) 0.6914(2)
H8A H 0.2400 0.4882 0.6958
H9A H 0.3410 0.3291 0.7391
C9A C 0.5259(6) 0.2214(4) 0.5951(2)
H10A H 0.6083 0.2062 0.6509
H11A H 0.4516 0.1439 0.6011
C10A C 0.1854(6) 0.3503(5) 0.5670(3)
H12A H 0.1308 0.2835 0.6140
H13A H 0.0941 0.4450 0.5640
H14A H 0.2010 0.3149 0.5042
O12 O 1.0784(4) 0.0885(3) 0.35995(18)
O13 O 0.0942(4) 0.8627(3) 0.2299(2)
loop_
_geom_bond_atom_site_label_1
_geom_bond_atom_site_label_2
_geom_bond_site_symmetry_1
_geom_bond_site_symmetry_2
Nd1 O1 1_555 1_555
Cu1 O3 1_555 1_555
O1 C2 1_555 1_555
O2 Nd1 1_555 1_555
O3 C3 1_555 1_555
N1 Nd1 1_555 1_555
O4 C1 1_555 1_555
O5 Nd1 1_555 1_555
O6 Nd1 1_555 1_555
O7 Nd1 1_555 1_555
O8 C2 1_555 1_555
O9 Nd1 1_555 1_555
C1 O5 1_555 1_555
N2 Cu1 1_555 1_555
O10 C3 1_555 1_555
C2 C8 1_555 1_555
C3 C9 1_555 1_555
O11 C7 1_555 1_555
C4 N1 1_555 1_555
H1 C4 1_555 1_555
H2 C4 1_555 1_555
C5 N1 1_555 1_555
H3 C5 1_555 1_555
H4 C5 1_555 1_555
C6 N1 1_555 1_555
H5 C6 1_555 1_555
H6 C6 1_555 1_555
H7 C6 1_555 1_555
C7 O9 1_555 1_555
C8 N2 1_555 1_555
H8 C8 1_555 1_555
H9 C8 1_555 1_555
C9 N2 1_555 1_555
H10 C9 1_555 1_555
H11 C9 1_555 1_555
C10 N2 1_555 1_555
H12 C10 1_555 1_555
H13 C10 1_555 1_555
H14 C10 1_555 1_555
Nd1A O1A 1_555 1_555
Nd1_2 O4 1_555 1_555
Nd1A_2 O5 1_555 1_555
Nd1_3 N1_2 1_555 1_555
Nd1A_3 O5_2 1_555 1_555
O1A C2A 1_555 1_555
O2A Nd1A 1_555 1_555
O3A Cu1 1_555 1_555
N1_2 C4_2 1_555 1_555
N1A Nd1A 1_555 1_555
O4_2 Nd1 1_555 1_555
O4A Nd1A 1_555 1_555
O5_2 Nd1_3 1_555 1_555
O5A Nd1 1_555 1_555
O5A_2 Nd1A 1_555 1_555
O5_3 Nd1A 1_555 1_555
O6A Nd1A 1_555 1_555
O7A Nd1A 1_555 1_555
O8A C2A 1_555 1_555
O9_2 Nd1_3 1_555 1_555
O9A Nd1A 1_555 1_555
C1_2 O4_2 1_555 1_555
N2A Cu1 1_555 1_555
O10A C3A 1_555 1_555
C2A C8A 1_555 1_555
C3A O3A 1_555 1_555
O11_2 C7_2 1_555 1_555
C4_2 H1_2 1_555 1_555
H2_2 C4_2 1_555 1_555
C5_2 N1_2 1_555 1_555
H3_2 C5_2 1_555 1_555
H4_2 C5_2 1_555 1_555
C6_2 N1_2 1_555 1_555
H5_2 C6_2 1_555 1_555
H6_2 C6_2 1_555 1_555
H7_2 C6_2 1_555 1_555
C7_2 O9_2 1_555 1_555
C8A N2A 1_555 1_555
H8A C8A 1_555 1_555
H9A C8A 1_555 1_555
C9A N2A 1_555 1_555
H10A C9A 1_555 1_555
H11A C9A 1_555 1_555
C10A N2A 1_555 1_555
H12A C10A 1_555 1_555
H13A C10A 1_555 1_555
H14A C10A 1_555 1_555
C1 C5 1_555 1_555
C4 C7 1_555 1_555
Nd1A_2 O5A 1_555 1_555
O5_2 C1_2 1_555 1_555
C1_2 C5_2 1_555 1_555
C3A C9A 1_555 1_555
C4_2 C7_2 1_555 1_555

#END
