
#######################################################################
#
#                 Cambridge Crystallographic Data Centre
#                                CCDC 
#
#######################################################################
#
# If this CIF has been generated from an entry in the Cambridge 
# Structural Database, then it will include bibliographic, chemical, 
# crystal, experimental, refinement or atomic coordinate data resulting 
# from the CCDC's data processing and validation procedures.
#
#######################################################################

data_FALRAN
_symmetry_cell_setting           triclinic
_symmetry_space_group_name_H-M   'P -1'
_symmetry_Int_Tables_number      2
_space_group_name_Hall           '-P 1'
loop_
_symmetry_equiv_pos_site_id
_symmetry_equiv_pos_as_xyz
1 x,y,z
2 -x,-y,-z
_cell_length_a                   6.9645(14)
_cell_length_b                   9.7081(19)
_cell_length_c                   14.259(3)
_cell_angle_alpha                82.88(3)
_cell_angle_beta                 85.24(3)
_cell_angle_gamma                76.75(3)
_cell_volume                     929.692
loop_
_atom_site_label
_atom_site_type_symbol
_atom_site_fract_x
_atom_site_fract_y
_atom_site_fract_z
Pr1 Pr 0.28469(4) 0.90118(2) 0.596311(16)
Cu1 Cu 0.5000 1.0000 1.0000
O1 O 0.3345(5) 0.8175(3) 0.4289(2)
O2 O 0.3575(5) 1.1079(3) 0.4692(2)
N1 N 0.3995(6) 1.3065(4) 0.3228(3)
O3 O 0.4575(5) 1.0194(3) 0.6991(2)
O4 O 0.0547(5) 1.1041(3) 0.4394(2)
O5 O 0.3243(6) 1.1688(4) 1.0429(2)
O6 O 0.1408(6) 0.8487(4) 0.7632(2)
O7 O 0.3375(6) 1.0113(4) 0.8489(2)
O8 O 0.7288(5) 1.3501(3) 0.3911(3)
C1 C 0.2080(6) 1.1508(4) 0.4198(3)
O9 O 0.0503(5) 1.1252(3) 0.6453(3)
O10 O 0.5952(6) 1.5811(3) 0.3922(3)
N2 N 0.6175(6) 1.1379(4) 0.9051(3)
C2 C 0.5835(7) 1.4542(5) 0.3885(3)
C3 C 0.3826(7) 1.4232(5) 0.3826(4)
H1 H 0.3297 1.3962 0.4455
H2 H 0.2928 1.5079 0.3555
C4 C 0.4592(7) 1.0372(5) 0.7849(3)
C5 C 0.2166(7) 1.2546(5) 0.3337(3)
H3 H 0.2050 1.2094 0.2781
H4 H 0.1050 1.3350 0.3374
C6 C 0.3385(9) 1.2855(6) 0.9943(4)
O11 O 0.2447(7) 1.4041(4) 1.0128(3)
C7 C 0.4349(8) 1.3608(6) 0.2230(3)
H5 H 0.4461 1.2857 0.1837
H6 H 0.5551 1.3946 0.2162
H7 H 0.3266 1.4375 0.2043
C8 C 0.6367(8) 1.0912(5) 0.8095(3)
H8 H 0.7545 1.0158 0.8046
H9 H 0.6539 1.1703 0.7633
C9 C 0.4746(9) 1.2771(5) 0.9062(4)
H10 H 0.3960 1.2930 0.8512
H11 H 0.5468 1.3522 0.9017
C10 C 0.8128(9) 1.1480(7) 0.9336(4)
H12 H 0.8660 1.2133 0.8883
H13 H 0.9006 1.0558 0.9360
H14 H 0.7985 1.1816 0.9949
Pr1A Pr 0.71531(4) 1.09882(2) 1.403689(16)
Pr1A_2 Pr 0.71531(4) 1.09882(2) 0.403689(16)
Pr1A_3 Pr -0.28469(4) 1.09882(2) 0.403689(16)
Pr1_2 Pr 1.28469(4) 0.90118(2) 0.596311(16)
O1A O 0.6655(5) 1.1825(3) 1.5711(2)
O2A O 0.6425(5) 0.8921(3) 0.5308(2)
O2A_2 O 0.6425(5) 0.8921(3) 1.5308(2)
O2_2 O 0.3575(5) 1.1079(3) 1.4692(2)
N1A N 0.6005(6) 0.6935(4) 0.6772(3)
N1_2 N 0.3995(6) 1.3065(4) 1.3228(3)
O3A O 0.5425(5) 0.9806(3) 1.3009(2)
O4A O 0.9453(5) 0.8959(3) 0.5606(2)
O4A_2 O -0.0547(5) 0.8959(3) 0.5606(2)
O4A_3 O 0.9453(5) 0.8959(3) 1.5606(2)
O4_2 O 1.0547(5) 1.1041(3) 1.4394(2)
O5A O 0.6757(6) 0.8312(4) 0.9571(2)
O6A O 0.8592(6) 1.1513(4) 1.2368(2)
O7A O 0.6625(6) 0.9887(4) 1.1511(2)
O8A O 0.2712(5) 0.6499(3) 0.6089(3)
O8_2 O 0.7288(5) 1.3501(3) 1.3911(3)
C1A C 0.7920(6) 0.8492(4) 0.5802(3)
O9A O 0.9497(5) 0.8748(3) 1.3547(3)
O10A O 0.4048(6) 0.4189(3) 0.6078(3)
N2A N 0.3825(6) 0.8621(4) 1.0949(3)
C2A C 0.4165(7) 0.5458(5) 0.6115(3)
C3A C 0.6174(7) 0.5768(5) 0.6174(4)
H1A H 0.6703 0.6038 0.5545
H2A H 0.7072 0.4921 0.6445
C4A C 0.5408(7) 0.9628(5) 1.2151(3)
C5A C 0.7834(7) 0.7454(5) 0.6663(3)
H3A H 0.7950 0.7906 0.7219
H4A H 0.8950 0.6650 0.6626
C6A C 0.6615(9) 0.7145(6) 1.0057(4)
O11A O 0.7553(7) 0.5959(4) 0.9872(3)
C7A C 0.5651(8) 0.6392(6) 0.7770(3)
H5A H 0.5539 0.7143 0.8163
H6A H 0.4449 0.6054 0.7838
H7A H 0.6734 0.5625 0.7957
C8A C 0.3633(8) 0.9088(5) 1.1905(3)
H8A H 0.2455 0.9842 1.1954
H9A H 0.3461 0.8297 1.2367
C9A C 0.5254(9) 0.7229(5) 1.0938(4)
H10A H 0.6040 0.7070 1.1488
H11A H 0.4532 0.6478 1.0983
C10A C 0.1872(9) 0.8520(7) 1.0664(4)
H12A H 0.1340 0.7867 1.1117
H13A H 0.0994 0.9442 1.0640
H14A H 0.2015 0.8184 1.0051
O12 O -0.0786(7) 1.4074(5) 1.1378(3)
O13 O 0.9077(8) 1.6355(5) 0.2718(3)
loop_
_geom_bond_atom_site_label_1
_geom_bond_atom_site_label_2
_geom_bond_site_symmetry_1
_geom_bond_site_symmetry_2
Pr1 O1 1_555 1_555
Cu1 O5 1_555 1_555
O2 Pr1 1_555 1_555
N1 C3 1_555 1_555
O3 Pr1 1_555 1_555
O4 Pr1 1_555 1_555
O5 C6 1_555 1_555
O6 Pr1 1_555 1_555
O7 C4 1_555 1_555
O8 C2 1_555 1_555
C1 O2 1_555 1_555
O9 Pr1 1_555 1_555
O10 C2 1_555 1_555
N2 Cu1 1_555 1_555
C2 C3 1_555 1_555
C3 H1 1_555 1_555
H2 C3 1_555 1_555
C4 O3 1_555 1_555
C5 N1 1_555 1_555
H3 C5 1_555 1_555
H4 C5 1_555 1_555
C6 O11 1_555 1_555
C7 N1 1_555 1_555
H5 C7 1_555 1_555
H6 C7 1_555 1_555
H7 C7 1_555 1_555
C8 N2 1_555 1_555
H8 C8 1_555 1_555
H9 C8 1_555 1_555
C9 N2 1_555 1_555
H10 C9 1_555 1_555
H11 C9 1_555 1_555
C10 N2 1_555 1_555
H12 C10 1_555 1_555
H13 C10 1_555 1_555
H14 C10 1_555 1_555
Pr1A O1A 1_555 1_555
Pr1A_2 O2 1_555 1_555
Pr1A_3 O4 1_555 1_555
Pr1_2 O4A 1_555 1_555
O2A Pr1 1_555 1_555
O2A_2 Pr1A 1_555 1_555
O2_2 Pr1A 1_555 1_555
N1A Pr1 1_555 1_555
N1_2 Pr1A 1_555 1_555
O3A Pr1A 1_555 1_555
O4A Pr1A_2 1_555 1_555
O4A_2 Pr1 1_555 1_555
O4A_3 Pr1A 1_555 1_555
O4_2 Pr1A 1_555 1_555
O5A Cu1 1_555 1_555
O6A Pr1A 1_555 1_555
O7A C4A 1_555 1_555
O8A Pr1 1_555 1_555
O8_2 Pr1A 1_555 1_555
C1A O2A 1_555 1_555
O9A Pr1A 1_555 1_555
O10A C2A 1_555 1_555
N2A Cu1 1_555 1_555
C2A O8A 1_555 1_555
C3A N1A 1_555 1_555
H1A C3A 1_555 1_555
H2A C3A 1_555 1_555
C4A O3A 1_555 1_555
C5A N1A 1_555 1_555
H3A C5A 1_555 1_555
H4A C5A 1_555 1_555
C6A O5A 1_555 1_555
O11A C6A 1_555 1_555
C7A N1A 1_555 1_555
H5A C7A 1_555 1_555
H6A C7A 1_555 1_555
H7A C7A 1_555 1_555
C8A N2A 1_555 1_555
H8A C8A 1_555 1_555
H9A C8A 1_555 1_555
C9A N2A 1_555 1_555
H10A C9A 1_555 1_555
H11A C9A 1_555 1_555
C10A N2A 1_555 1_555
H12A C10A 1_555 1_555
H13A C10A 1_555 1_555
H14A C10A 1_555 1_555
N1 Pr1A_2 1_555 1_555
O4 C1 1_555 1_555
O8 Pr1A_2 1_555 1_555
C1 C5 1_555 1_555
C4 C8 1_555 1_555
C6 C9 1_555 1_555
Pr1A_2 O2A 1_555 1_555
Pr1A_3 O4A_2 1_555 1_555
O4A C1A 1_555 1_555
C1A C5A 1_555 1_555
C2A C3A 1_555 1_555
C4A C8A 1_555 1_555
C6A C9A 1_555 1_555

#END
