
#######################################################################
#
#                 Cambridge Crystallographic Data Centre
#                                CCDC 
#
#######################################################################
#
# If this CIF has been generated from an entry in the Cambridge 
# Structural Database, then it will include bibliographic, chemical, 
# crystal, experimental, refinement or atomic coordinate data resulting 
# from the CCDC's data processing and validation procedures.
#
#######################################################################

data_FALVUL
_symmetry_cell_setting           monoclinic
_symmetry_space_group_name_H-M   'P 21/n'
_symmetry_Int_Tables_number      14
_space_group_name_Hall           '-P 2yn'
loop_
_symmetry_equiv_pos_site_id
_symmetry_equiv_pos_as_xyz
1 x,y,z
2 1/2-x,1/2+y,1/2-z
3 -x,-y,-z
4 1/2+x,1/2-y,1/2+z
_cell_length_a                   10.906(2)
_cell_length_b                   20.212(4)
_cell_length_c                   19.769(4)
_cell_angle_alpha                90
_cell_angle_beta                 99.22(3)
_cell_angle_gamma                90
_cell_volume                     4301.42
loop_
_atom_site_label
_atom_site_type_symbol
_atom_site_fract_x
_atom_site_fract_y
_atom_site_fract_z
Pr1 Pr -0.46760(2) 0.126313(13) 0.345064(13)
Pr2 Pr -0.66696(3) 0.376060(13) 0.582800(13)
Cu1 Cu -0.42798(6) 0.32735(3) 0.33172(3)
Cu2 Cu 0.28846(5) 0.17465(3) 0.58907(3)
C1 C -0.2618(5) 0.2610(3) 0.5215(2)
C2 C -0.2938(5) 0.2972(3) 0.5764(3)
C3 C -0.2196(5) 0.2935(3) 0.6407(2)
H1 H -0.2383 0.3194 0.6765
C4 C -0.1179(5) 0.2512(3) 0.6514(2)
C5 C -0.0859(5) 0.2144(3) 0.5969(2)
C6 C -0.1577(5) 0.2199(3) 0.5318(3)
H2 H -0.1360 0.1961 0.4952
C7 C -0.3321(4) 0.2683(3) 0.4500(2)
C8 C -0.4160(5) 0.3329(3) 0.5716(2)
C9 C -0.0515(4) 0.2412(3) 0.7227(2)
C10 C 0.0299(5) 0.1722(3) 0.6059(2)
C11 C -0.1264(5) -0.0139(3) 0.4871(3)
C12 C -0.0776(4) 0.0340(2) 0.4478(2)
C13 C -0.0490(5) -0.0470(3) 0.5393(3)
H3 H -0.0826 -0.0782 0.5657
C14 C -0.2617(5) -0.0320(3) 0.4751(3)
C15 C -0.1598(5) 0.0741(3) 0.3942(3)
C16 C -1.0506(5) 0.2943(3) 0.3265(2)
C17 C -1.0208(5) 0.2570(3) 0.2718(3)
C18 C -0.9184(5) 0.2143(3) 0.2830(3)
H4 H -0.9008 0.1881 0.2471
C19 C -0.8429(4) 0.2103(3) 0.3462(3)
C20 C -0.8727(4) 0.2484(3) 0.4008(2)
C21 C -0.9748(5) 0.2901(3) 0.3909(3)
H5 H -0.9933 0.3155 0.4272
C22 C -1.0904(5) 0.2652(3) 0.2007(3)
C23 C -0.7232(5) 0.1716(3) 0.3537(2)
C24 C -0.8043(4) 0.2416(3) 0.4728(2)
O1 O -0.3664(3) 0.21728(19) 0.41589(18)
O2 O -0.3465(4) 0.32689(19) 0.42729(18)
O3 O -0.5088(3) 0.30793(18) 0.53358(18)
O4 O -0.4263(4) 0.38292(19) 0.6079(2)
O5 O -0.0445(4) 0.28809(19) 0.76432(18)
O6 O -0.0091(3) 0.18401(19) 0.73727(18)
O7 O 0.1310(3) 0.20651(19) 0.61441(18)
O8 O 0.0239(4) 0.11182(19) 0.6021(2)
O9 O -0.3065(3) -0.06637(19) 0.42413(19)
O10 O -0.3239(3) -0.01214(19) 0.52025(19)
O11 O -0.2754(3) 0.07446(19) 0.39646(19)
O12 O -0.1088(4) 0.1058(2) 0.3516(2)
O13 O -1.2685(3) 0.30338(18) 0.30321(17)
O14 O -1.1612(4) 0.3930(2) 0.3436(2)
O15 O -1.1324(3) 0.32275(19) 0.18455(18)
O16 O -1.0988(3) 0.2169(2) 0.16028(19)
O17 O -0.7149(4) 0.11893(19) 0.3212(2)
O18 O -0.6292(3) 0.19740(19) 0.39071(18)
O19 O -0.7758(3) 0.29305(19) 0.50757(18)
O20 O -0.7871(3) 0.18286(18) 0.49410(18)
O21 O -0.4879(3) 0.08937(19) 0.46614(19)
O22 O -0.4948(4) 0.00112(19) 0.3450(2)
O23 O -0.4883(5) 0.0793(2) 0.2268(2)
O24 O -0.2920(3) 0.17205(18) 0.28557(18)
O25 O -0.8432(4) 0.3374(2) 0.64459(19)
O26 O -0.6340(6) 0.4237(2) 0.7043(2)
O27 O -0.6250(4) 0.49798(19) 0.5795(2)
O28 O -0.8602(4) 0.4380(2) 0.5380(2)
O29 O -0.6166(4) 0.4194(2) 0.4700(2)
O30 O -0.5919(4) 0.3262(2) 0.3664(2)
O31 O -0.4444(4) 0.4353(2) 0.3067(2)
O32 O 0.4593(3) 0.18074(19) 0.55983(18)
C25 C -1.1682(5) 0.3352(3) 0.3231(2)
Pr1C Pr -0.96760(2) 0.373687(13) -0.154936(13)
Pr1C_2 Pr 0.03240(2) 0.373687(13) 0.845064(13)
Pr1B Pr 0.46760(2) -0.126313(13) 0.654936(13)
Pr2C Pr -1.16696(3) 0.123940(13) 0.082800(13)
Pr2C_2 Pr -0.16696(3) 0.123940(13) 1.082800(13)
Cu1C Cu -0.92798(6) 0.17265(3) -0.16828(3)
Cu1C_2 Cu 0.07202(6) 0.17265(3) 0.83172(3)
Cu1_2 Cu -1.42798(6) 0.32735(3) 0.33172(3)
Cu1C_3 Cu -0.92798(6) 0.17265(3) 0.83172(3)
Cu2C Cu -0.21154(5) 0.32535(3) 0.08907(3)
Cu2B Cu -0.28846(5) -0.17465(3) 0.41093(3)
Cu2C_2 Cu -1.21154(5) 0.32535(3) 0.08907(3)
Cu2_2 Cu -0.71154(5) 0.17465(3) 0.58907(3)
Cu2C_3 Cu -0.21154(5) 0.32535(3) 1.08907(3)
C1C C -0.7618(5) 0.2390(3) 0.0215(2)
C2C C -0.7938(5) 0.2028(3) 0.0764(3)
C3C C -0.7196(5) 0.2065(3) 0.1407(2)
H1C H -0.7383 0.1806 0.1765
C4C C -0.6179(5) 0.2488(3) 0.1514(2)
C5C C -0.5859(5) 0.2856(3) 0.0969(2)
C6C C -0.6577(5) 0.2801(3) 0.0318(3)
H2C H -0.6360 0.3039 -0.0048
C7C C -0.8321(4) 0.2317(3) -0.0500(2)
C8C C -0.9160(5) 0.1671(3) 0.0716(2)
C9C C -0.5515(4) 0.2588(3) 0.2227(2)
C10C C -0.4701(5) 0.3278(3) 0.1059(2)
C11B C 0.1264(5) 0.0139(3) 0.5129(3)
C12B C 0.0776(4) -0.0340(2) 0.5522(2)
C13B C 0.0490(5) 0.0470(3) 0.4607(3)
H3B H 0.0826 0.0782 0.4343
C14B C 0.2617(5) 0.0320(3) 0.5249(3)
C15B C 0.1598(5) -0.0741(3) 0.6058(3)
C16C C -0.5506(5) 0.2057(3) 0.8265(2)
C17C C -0.5208(5) 0.2430(3) 0.7718(3)
C18C C -0.4184(5) 0.2857(3) 0.7830(3)
H4C H -0.4008 0.3119 0.7471
C19C C -0.3429(4) 0.2897(3) 0.8462(3)
C20C C -0.3727(4) 0.2516(3) 0.9008(2)
C21C C -0.4748(5) 0.2099(3) 0.8909(3)
H5C H -0.4933 0.1845 0.9272
C22C C -0.5904(5) 0.2348(3) 0.7007(3)
C23C C -0.2232(5) 0.3284(3) 0.8537(2)
C24C C -0.3043(4) 0.2584(3) 0.9728(2)
O1C O -0.8664(3) 0.28272(19) -0.08411(18)
O2C O -0.8465(4) 0.17311(19) -0.07271(18)
O3C O -1.0088(3) 0.19207(18) 0.03358(18)
O4C O -0.9263(4) 0.11708(19) 0.1079(2)
O5C O -0.5445(4) 0.21191(19) 0.26432(18)
O5_2 O -1.0445(4) 0.28809(19) -0.23568(18)
O6C O -0.5091(3) 0.31599(19) 0.23727(18)
O6_2 O -1.0091(3) 0.18401(19) -0.26273(18)
O7C O -0.3690(3) 0.29349(19) 0.11441(18)
O8C O -0.4761(4) 0.38818(19) 0.1021(2)
O9B O 0.3065(3) 0.06637(19) 0.57587(19)
O9A O -0.1935(3) 0.43363(19) 0.07587(19)
O10B O 0.3239(3) 0.01214(19) 0.47975(19)
O11B O 0.2754(3) -0.07446(19) 0.60354(19)
O11C O -0.7754(3) 0.42554(19) -0.10354(19)
O12B O 0.1088(4) -0.1058(2) 0.6484(2)
O13C O -0.7685(3) 0.19662(18) 0.80321(17)
O13_2 O -0.2685(3) 0.30338(18) 0.30321(17)
O13C_2 O -0.7685(3) 0.19662(18) -0.19679(17)
O14C O -0.6612(4) 0.1070(2) 0.8436(2)
O15C O -0.6324(3) 0.17725(19) 0.68455(18)
O15C_2 O 0.3676(3) 0.17725(19) 0.68455(18)
O15_2 O -0.1324(3) 0.32275(19) 0.18455(18)
O16C O -0.5988(3) 0.2831(2) 0.66028(19)
O17C O -0.2149(4) 0.38107(19) 0.8212(2)
O17C_2 O -1.2149(4) 0.38107(19) -0.1788(2)
O18C O -0.1292(3) 0.30260(19) 0.89071(18)
O18C_2 O -1.1292(3) 0.30260(19) -0.10929(18)
O19C O -0.2758(3) 0.20695(19) 1.00757(18)
O19C_2 O -1.2758(3) 0.20695(19) 0.00757(18)
O20C O -0.2871(3) 0.31714(18) 0.99410(18)
O20_2 O 0.2129(3) 0.18286(18) 0.49410(18)
O20C_2 O -0.2871(3) 0.31714(18) -0.00590(18)
O21C O -0.9879(3) 0.41063(19) -0.03386(19)
O22C O -0.9948(4) 0.49888(19) -0.1550(2)
O23C O -0.9883(5) 0.4207(2) -0.2732(2)
O24C O -0.7920(3) 0.32795(18) -0.21443(18)
O25C O -1.3432(4) 0.1626(2) 0.14459(19)
O26C O -1.1340(6) 0.0763(2) 0.2043(2)
O27C O -1.1250(4) 0.00202(19) 0.0795(2)
O28C O -1.3602(4) 0.0620(2) 0.0380(2)
O29C O -1.1166(4) 0.0806(2) -0.0300(2)
O30C O -1.0919(4) 0.1738(2) -0.1336(2)
O31C O -0.9444(4) 0.0647(2) -0.1933(2)
O32C O -0.0407(3) 0.31926(19) 0.05983(18)
C25C C -0.6682(5) 0.1648(3) 0.8231(2)
O33 O 0.7488(4) -0.0257(2) 0.9138(2)
O34 O 0.8088(4) 0.0596(2) 0.6234(3)
O35 O 0.6157(4) -0.0754(2) 1.0124(2)
O36 O 0.5478(5) 0.0366(2) 0.8371(3)
O37 O 0.1931(5) 0.0470(3) 0.7090(2)
O38 O 0.6279(5) 0.1248(3) 0.6641(3)
O39 O 0.8443(5) -0.0035(3) 0.7430(3)
O40 O 0.7289(5) 0.1083(3) 0.7925(3)
loop_
_geom_bond_atom_site_label_1
_geom_bond_atom_site_label_2
_geom_bond_site_symmetry_1
_geom_bond_site_symmetry_2
Pr1 O1 1_555 1_555
Pr2 O3 1_555 1_555
Cu1 O2 1_555 1_555
Cu2 O7 1_555 1_555
C1 C2 1_555 1_555
C2 C3 1_555 1_555
C3 H1 1_555 1_555
C4 C3 1_555 1_555
C5 C4 1_555 1_555
C6 C1 1_555 1_555
H2 C6 1_555 1_555
C7 C1 1_555 1_555
C8 C2 1_555 1_555
C9 C4 1_555 1_555
C10 C5 1_555 1_555
C11 C12 1_555 1_555
C12 C15 1_555 1_555
C13 C11 1_555 1_555
H3 C13 1_555 1_555
C14 C11 1_555 1_555
C15 O11 1_555 1_555
C16 C17 1_555 1_555
C17 C18 1_555 1_555
C18 H4 1_555 1_555
C19 C18 1_555 1_555
C20 C19 1_555 1_555
C21 C16 1_555 1_555
H5 C21 1_555 1_555
C22 C17 1_555 1_555
C23 C19 1_555 1_555
C24 C20 1_555 1_555
O1 C7 1_555 1_555
O2 C7 1_555 1_555
O3 C8 1_555 1_555
O4 Pr2 1_555 1_555
O5 C9 1_555 1_555
O6 C9 1_555 1_555
O7 C10 1_555 1_555
O8 C10 1_555 1_555
O9 C14 1_555 1_555
O10 C14 1_555 1_555
O11 Pr1 1_555 1_555
O12 C15 1_555 1_555
O13 C25 1_555 1_555
O14 C25 1_555 1_555
O15 C22 1_555 1_555
O16 C22 1_555 1_555
O17 Pr1 1_555 1_555
O18 Pr1 1_555 1_555
O19 Pr2 1_555 1_555
O20 C24 1_555 1_555
O21 Pr1 1_555 1_555
O22 Pr1 1_555 1_555
O23 Pr1 1_555 1_555
O24 Pr1 1_555 1_555
O25 Pr2 1_555 1_555
O26 Pr2 1_555 1_555
O27 Pr2 1_555 1_555
O28 Pr2 1_555 1_555
O29 Pr2 1_555 1_555
O30 Cu1 1_555 1_555
O31 Cu1 1_555 1_555
O32 Cu2 1_555 1_555
C25 C16 1_555 1_555
Pr1C O1C 1_555 1_555
Pr1C_2 O5 1_555 1_555
Pr1B O11B 1_555 1_555
Pr2C O16 1_555 1_555
Pr2C_2 O19C 1_555 1_555
Cu1C O2C 1_555 1_555
Cu1C_2 O6 1_555 1_555
Cu1_2 O13 1_555 1_555
Cu1C_3 O13C 1_555 1_555
Cu2C O7C 1_555 1_555
Cu2B O9 1_555 1_555
Cu2C_2 O15 1_555 1_555
Cu2_2 O20 1_555 1_555
Cu2C_3 O20C 1_555 1_555
C1C C2C 1_555 1_555
C2C C3C 1_555 1_555
C3C H1C 1_555 1_555
C4C C3C 1_555 1_555
C5C C4C 1_555 1_555
C6C C1C 1_555 1_555
H2C C6C 1_555 1_555
C7C C1C 1_555 1_555
C8C C2C 1_555 1_555
C9C C4C 1_555 1_555
C10C C5C 1_555 1_555
C11B C12B 1_555 1_555
C12B C13 1_555 1_555
C13B C12 1_555 1_555
H3B C13B 1_555 1_555
C14B C11B 1_555 1_555
C15B C12B 1_555 1_555
C16C C17C 1_555 1_555
C17C C18C 1_555 1_555
C18C H4C 1_555 1_555
C19C C18C 1_555 1_555
C20C C19C 1_555 1_555
C21C C16C 1_555 1_555
H5C C21C 1_555 1_555
C22C C17C 1_555 1_555
C23C C19C 1_555 1_555
C24C C20C 1_555 1_555
O1C C7C 1_555 1_555
O2C C7C 1_555 1_555
O3C Pr2C 1_555 1_555
O4C Pr2C 1_555 1_555
O5C Pr1 1_555 1_555
O5_2 Pr1C 1_555 1_555
O6C Cu1 1_555 1_555
O6_2 Cu1C 1_555 1_555
O7C C10C 1_555 1_555
O8C C10C 1_555 1_555
O9B Cu2 1_555 1_555
O9A Cu2C 1_555 1_555
O10B C14B 1_555 1_555
O11B C15B 1_555 1_555
O11C Pr1C 1_555 1_555
O12B C15B 1_555 1_555
O13C C25C 1_555 1_555
O13_2 Cu1 1_555 1_555
O13C_2 Cu1C 1_555 1_555
O14C C25C 1_555 1_555
O15C Cu2_2 1_555 1_555
O15C_2 Cu2 1_555 1_555
O15_2 Cu2C 1_555 1_555
O16C Pr2 1_555 1_555
O17C Pr1C_2 1_555 1_555
O17C_2 Pr1C 1_555 1_555
O18C Pr1C_2 1_555 1_555
O18C_2 Pr1C 1_555 1_555
O19C C24C 1_555 1_555
O19C_2 Pr2C 1_555 1_555
O20C C24C 1_555 1_555
O20_2 Cu2 1_555 1_555
O20C_2 Cu2C 1_555 1_555
O21C Pr1C 1_555 1_555
O22C Pr1C 1_555 1_555
O23C Pr1C 1_555 1_555
O24C Pr1C 1_555 1_555
O25C Pr2C 1_555 1_555
O26C Pr2C 1_555 1_555
O27C Pr2C 1_555 1_555
O28C Pr2C 1_555 1_555
O29C Pr2C 1_555 1_555
O30C Cu1C 1_555 1_555
O31C Cu1C 1_555 1_555
O32C Cu2C 1_555 1_555
C25C C16C 1_555 1_555
C5 C6 1_555 1_555
C8 O4 1_555 1_555
C20 C21 1_555 1_555
C23 O17 1_555 1_555
C23 O18 1_555 1_555
C24 O19 1_555 1_555
C5C C6C 1_555 1_555
C8C O3C 1_555 1_555
C8C O4C 1_555 1_555
C9C O5C 1_555 1_555
C9C O6C 1_555 1_555
C11B C13B 1_555 1_555
C14B O9B 1_555 1_555
C20C C21C 1_555 1_555
C22C O15C 1_555 1_555
C22C O16C 1_555 1_555
C23C O17C 1_555 1_555
C23C O18C 1_555 1_555

#END
