
#######################################################################
#
#                 Cambridge Crystallographic Data Centre
#                                CCDC 
#
#######################################################################
#
# If this CIF has been generated from an entry in the Cambridge 
# Structural Database, then it will include bibliographic, chemical, 
# crystal, experimental, refinement or atomic coordinate data resulting 
# from the CCDC's data processing and validation procedures.
#
#######################################################################

data_FALVUL02
_symmetry_cell_setting           monoclinic
_symmetry_space_group_name_H-M   'P 21/n'
_symmetry_Int_Tables_number      14
_space_group_name_Hall           '-P 2yn'
loop_
_symmetry_equiv_pos_site_id
_symmetry_equiv_pos_as_xyz
1 x,y,z
2 1/2-x,1/2+y,1/2-z
3 -x,-y,-z
4 1/2+x,1/2-y,1/2+z
_cell_length_a                   10.906(2)
_cell_length_b                   20.212(4)
_cell_length_c                   19.769(4)
_cell_angle_alpha                90
_cell_angle_beta                 99.22(3)
_cell_angle_gamma                90
_cell_volume                     4301.42
loop_
_atom_site_label
_atom_site_type_symbol
_atom_site_fract_x
_atom_site_fract_y
_atom_site_fract_z
Pr1 Pr -0.46760(2) 0.126313(13) 0.345064(13)
Pr2 Pr 0.83304(3) 0.123936(13) 1.082800(13)
Cu1 Cu 0.07202(6) 0.17265(3) 0.83172(3)
Cu2 Cu 0.28846(5) 0.17465(3) 0.58907(3)
C1 C -0.2618(5) 0.2610(3) 0.5215(2)
C2 C -0.2938(5) 0.2972(3) 0.5764(3)
C3 C -0.2196(5) 0.2935(3) 0.6407(2)
H1 H -0.2383 0.3194 0.6765
C4 C -0.1179(5) 0.2512(3) 0.6514(2)
C5 C -0.0859(5) 0.2144(3) 0.5969(2)
C6 C -0.1577(5) 0.2199(3) 0.5318(3)
H2 H -0.1360 0.1961 0.4952
C7 C -0.3321(4) 0.2683(3) 0.4500(2)
C8 C -0.4160(5) 0.3329(3) 0.5716(2)
C9 C -0.0515(4) 0.2412(3) 0.7227(2)
C10 C 0.0299(5) 0.1722(3) 0.6059(2)
C11 C -0.1264(5) -0.0139(3) 0.4871(3)
C12 C -0.0776(4) 0.0340(2) 0.4478(2)
C13 C 0.0490(5) 0.0470(3) 0.4607(3)
H3 H 0.0826 0.0782 0.4343
C14 C -0.2617(5) -0.0320(3) 0.4751(3)
C15 C -0.1598(5) 0.0741(3) 0.3942(3)
C16 C 0.4494(5) 0.2057(3) 0.8265(2)
C17 C 0.4792(5) 0.2430(3) 0.7718(3)
C18 C 0.5816(5) 0.2857(3) 0.7830(3)
H4 H 0.5992 0.3119 0.7471
C19 C 0.6571(4) 0.2897(3) 0.8462(3)
C20 C 0.6273(4) 0.2516(3) 0.9008(2)
C21 C 0.5252(5) 0.2099(3) 0.8909(3)
H5 H 0.5067 0.1845 0.9272
C22 C 0.3318(5) 0.1648(3) 0.8231(2)
C23 C 0.4096(5) 0.2348(3) 0.7007(3)
C24 C 0.7768(5) 0.3284(3) 0.8537(2)
C25 C 0.6957(4) 0.2584(3) 0.9728(2)
O1 O -0.3664(3) 0.21728(19) 0.41589(18)
O2 O -0.3465(4) 0.32689(19) 0.42729(18)
O3 O -0.5088(3) 0.30793(18) 0.53358(18)
O4 O -0.4263(4) 0.38292(19) 0.6079(2)
O5 O -0.0445(4) 0.28809(19) 0.76432(18)
O6 O -0.0091(3) 0.18401(19) 0.73727(18)
O7 O 0.1310(3) 0.20651(19) 0.61441(18)
O8 O 0.0239(4) 0.11182(19) 0.6021(2)
O9 O -0.3065(3) -0.06637(19) 0.42413(19)
O10 O -0.3239(3) -0.01214(19) 0.52025(19)
O11 O -0.2754(3) 0.07446(19) 0.39646(19)
O12 O -0.1088(4) 0.1058(2) 0.3516(2)
O13 O 0.2315(3) 0.19662(18) 0.80321(17)
O14 O 0.3388(4) 0.1070(2) 0.8436(2)
O15 O 0.3676(3) 0.17725(19) 0.68455(18)
O16 O 0.4012(3) 0.2831(2) 0.66028(19)
O17 O 0.7851(4) 0.38107(19) 0.8212(2)
O18 O 0.8708(3) 0.30260(19) 0.89071(18)
O19 O 0.7242(3) 0.20695(19) 1.00757(18)
O20 O 0.7129(3) 0.31714(18) 0.99410(18)
O21 O -0.4879(3) 0.08937(19) 0.46614(19)
O22 O -0.4948(4) 0.00112(19) 0.3450(2)
O23 O -0.4883(5) 0.0793(2) 0.2268(2)
O24 O -0.2920(3) 0.17205(18) 0.28557(18)
O25 O 0.6568(4) 0.1626(2) 1.14459(19)
O26 O 0.8660(6) 0.0763(2) 1.2043(2)
O27 O 0.8750(4) 0.00202(19) 1.0795(2)
O28 O 0.6398(4) 0.0620(2) 1.0380(2)
O29 O 0.8834(4) 0.0806(2) 0.9700(2)
O30 O -0.0919(4) 0.1738(2) 0.8664(2)
O31 O 0.0556(4) 0.0647(2) 0.8067(2)
O32 O 0.4593(3) 0.18074(19) 0.55983(18)
C11B C 0.1264(5) 0.0139(3) 0.5129(3)
C12B C 0.0776(4) -0.0340(2) 0.5522(2)
C13B C -0.0490(5) -0.0470(3) 0.5393(3)
H3B H -0.0826 -0.0782 0.5657
C14B C 0.2617(5) 0.0320(3) 0.5249(3)
C15B C 0.1598(5) -0.0741(3) 0.6058(3)
O9B O 0.3065(3) 0.06637(19) 0.57587(19)
O10B O 0.3239(3) 0.01214(19) 0.47975(19)
O11B O 0.2754(3) -0.07446(19) 0.60354(19)
O12B O 0.1088(4) -0.1058(2) 0.6484(2)
Pr1B Pr 0.46760(2) -0.126313(13) 0.654936(13)
Pr2B Pr -0.83304(3) -0.123936(13) -0.082800(13)
Cu1B Cu -0.07202(6) -0.17265(3) 0.16828(3)
Cu2B Cu -0.28846(5) -0.17465(3) 0.41093(3)
C1B C 0.2618(5) -0.2610(3) 0.4785(2)
C2B C 0.2938(5) -0.2972(3) 0.4236(3)
C3B C 0.2196(5) -0.2935(3) 0.3593(2)
H1B H 0.2383 -0.3194 0.3235
C4B C 0.1179(5) -0.2512(3) 0.3486(2)
C5B C 0.0859(5) -0.2144(3) 0.4031(2)
C6B C 0.1577(5) -0.2199(3) 0.4682(3)
H2B H 0.1360 -0.1961 0.5048
C7B C 0.3321(4) -0.2683(3) 0.5500(2)
C8B C 0.4160(5) -0.3329(3) 0.4284(2)
C9B C 0.0515(4) -0.2412(3) 0.2773(2)
C10B C -0.0299(5) -0.1722(3) 0.3941(2)
C16B C -0.4494(5) -0.2057(3) 0.1735(2)
C17B C -0.4792(5) -0.2430(3) 0.2282(3)
C18B C -0.5816(5) -0.2857(3) 0.2170(3)
H4B H -0.5992 -0.3119 0.2529
C19B C -0.6571(4) -0.2897(3) 0.1538(3)
C20B C -0.6273(4) -0.2516(3) 0.0992(2)
C21B C -0.5252(5) -0.2099(3) 0.1091(3)
H5B H -0.5067 -0.1845 0.0728
C22B C -0.3318(5) -0.1648(3) 0.1769(2)
C23B C -0.4096(5) -0.2348(3) 0.2993(3)
C24B C -0.7768(5) -0.3284(3) 0.1463(2)
C25B C -0.6957(4) -0.2584(3) 0.0272(2)
O1B O 0.3664(3) -0.21728(19) 0.58411(18)
O2B O 0.3465(4) -0.32689(19) 0.57271(18)
O3B O 0.5088(3) -0.30793(18) 0.46642(18)
O4B O 0.4263(4) -0.38292(19) 0.3921(2)
O5B O 0.0445(4) -0.28809(19) 0.23568(18)
O6B O 0.0091(3) -0.18401(19) 0.26273(18)
O7B O -0.1310(3) -0.20651(19) 0.38559(18)
O8B O -0.0239(4) -0.11182(19) 0.3979(2)
O13B O -0.2315(3) -0.19662(18) 0.19679(17)
O14B O -0.3388(4) -0.1070(2) 0.1564(2)
O15B O -0.3676(3) -0.17725(19) 0.31545(18)
O16B O -0.4012(3) -0.2831(2) 0.33972(19)
O17B O -0.7851(4) -0.38107(19) 0.1788(2)
O18B O -0.8708(3) -0.30260(19) 0.10929(18)
O19B O -0.7242(3) -0.20695(19) -0.00757(18)
O20B O -0.7129(3) -0.31714(18) 0.00590(18)
O21B O 0.4879(3) -0.08937(19) 0.53386(19)
O22B O 0.4948(4) -0.00112(19) 0.6550(2)
O23B O 0.4883(5) -0.0793(2) 0.7732(2)
O24B O 0.2920(3) -0.17205(18) 0.71443(18)
O25B O -0.6568(4) -0.1626(2) -0.14459(19)
O26B O -0.8660(6) -0.0763(2) -0.2043(2)
O27B O -0.8750(4) -0.00202(19) -0.0795(2)
O28B O -0.6398(4) -0.0620(2) -0.0380(2)
O29B O -0.8834(4) -0.0806(2) 0.0300(2)
O30B O 0.0919(4) -0.1738(2) 0.1336(2)
O31B O -0.0556(4) -0.0647(2) 0.1933(2)
O32B O -0.4593(3) -0.18074(19) 0.44017(18)
Pr1A Pr -1.03240(2) -0.373687(13) 0.154936(13)
Pr1A_2 Pr -0.03240(2) -0.373687(13) 0.154936(13)
Pr1C Pr 0.03240(2) 0.373687(13) 0.845064(13)
Pr1C_2 Pr 1.03240(2) 0.373687(13) 0.845064(13)
Pr2A Pr -0.33304(3) -0.376064(13) 0.417200(13)
Pr2A_2 Pr 0.66696(3) -0.376064(13) 0.417200(13)
Pr2C Pr -0.66696(3) 0.376064(13) 0.582800(13)
Pr2C_2 Pr 0.33304(3) 0.376064(13) 0.582800(13)
Cu1A Cu 0.42798(6) -0.32735(3) 0.66828(3)
Cu1C Cu -0.42798(6) 0.32735(3) 0.33172(3)
Cu2A Cu -0.78846(5) -0.32535(3) -0.08907(3)
Cu2C Cu 0.78846(5) 0.32535(3) 1.08907(3)
O1A O -0.1336(3) -0.28272(19) 0.08411(18)
O1C O 0.1336(3) 0.28272(19) 0.91589(18)
O2A O -0.1535(4) -0.17311(19) 0.07271(18)
O2C O 0.1535(4) 0.17311(19) 0.92729(18)
O3A O -0.9912(3) -0.19207(18) -0.03358(18)
O3C O 0.9912(3) 0.19207(18) 1.03358(18)
O4A O -1.0737(4) -0.11708(19) -0.1079(2)
O4C O 1.0737(4) 0.11708(19) 1.1079(2)
O5A O 0.5445(4) -0.21191(19) 0.73568(18)
O5C O -0.5445(4) 0.21191(19) 0.26432(18)
O16A O -0.9012(3) -0.2169(2) -0.16028(19)
O16C O 0.9012(3) 0.2169(2) 1.16028(19)
O17A O 0.7149(4) -0.11893(19) 0.6788(2)
O17C O -0.7149(4) 0.11893(19) 0.3212(2)
O18A O 0.6292(3) -0.19740(19) 0.60929(18)
O18C O -0.6292(3) 0.19740(19) 0.39071(18)
O20A O -0.2129(3) -0.18286(18) 0.50590(18)
O20C O 0.2129(3) 0.18286(18) 0.49410(18)
O33 O 0.7488(4) -0.0257(2) 0.9138(2)
O34 O 0.8088(4) 0.0596(2) 0.6234(3)
O35 O 0.6157(4) -0.0754(2) 1.0124(2)
O36 O 0.5478(5) 0.0366(2) 0.8371(3)
O37 O 0.1931(5) 0.0470(3) 0.7090(2)
O38 O 0.6279(5) 0.1248(3) 0.6641(3)
O39 O 0.8443(5) -0.0035(3) 0.7430(3)
O40 O 0.7289(5) 0.1083(3) 0.7925(3)
loop_
_geom_bond_atom_site_label_1
_geom_bond_atom_site_label_2
_geom_bond_site_symmetry_1
_geom_bond_site_symmetry_2
Pr1 O1 1_555 1_555
Pr2 O19 1_555 1_555
Cu1 O6 1_555 1_555
Cu2 O7 1_555 1_555
C1 C2 1_555 1_555
C2 C3 1_555 1_555
C3 H1 1_555 1_555
C4 C3 1_555 1_555
C5 C4 1_555 1_555
C6 C1 1_555 1_555
H2 C6 1_555 1_555
C7 C1 1_555 1_555
C8 C2 1_555 1_555
C9 C4 1_555 1_555
C10 C5 1_555 1_555
C11 C12 1_555 1_555
C12 C13 1_555 1_555
C13 H3 1_555 1_555
C14 C11 1_555 1_555
C15 C12 1_555 1_555
C16 C17 1_555 1_555
C17 C18 1_555 1_555
C18 H4 1_555 1_555
C19 C18 1_555 1_555
C20 C19 1_555 1_555
C21 C16 1_555 1_555
H5 C21 1_555 1_555
C22 C16 1_555 1_555
C23 C17 1_555 1_555
C24 C19 1_555 1_555
C25 C20 1_555 1_555
O1 C7 1_555 1_555
O2 C7 1_555 1_555
O3 C8 1_555 1_555
O4 C8 1_555 1_555
O5 C9 1_555 1_555
O6 C9 1_555 1_555
O7 C10 1_555 1_555
O8 C10 1_555 1_555
O9 C14 1_555 1_555
O10 C14 1_555 1_555
O11 Pr1 1_555 1_555
O12 C15 1_555 1_555
O13 Cu1 1_555 1_555
O14 C22 1_555 1_555
O15 Cu2 1_555 1_555
O16 Cu2 1_555 1_555
O17 C24 1_555 1_555
O18 C24 1_555 1_555
O19 C25 1_555 1_555
O20 C25 1_555 1_555
O21 Pr1 1_555 1_555
O22 Pr1 1_555 1_555
O23 Pr1 1_555 1_555
O24 Pr1 1_555 1_555
O25 Pr2 1_555 1_555
O26 Pr2 1_555 1_555
O27 Pr2 1_555 1_555
O28 Pr2 1_555 1_555
O29 Pr2 1_555 1_555
O30 Cu1 1_555 1_555
O31 Cu1 1_555 1_555
O32 Cu2 1_555 1_555
C11B C13 1_555 1_555
C12B C11B 1_555 1_555
C13B C11 1_555 1_555
H3B C13B 1_555 1_555
C14B C11B 1_555 1_555
C15B C12B 1_555 1_555
O9B Cu2 1_555 1_555
O10B C14B 1_555 1_555
O11B C15B 1_555 1_555
O12B C15B 1_555 1_555
Pr1B O11B 1_555 1_555
Pr2B O19B 1_555 1_555
Cu1B O6B 1_555 1_555
Cu2B O9 1_555 1_555
C1B C2B 1_555 1_555
C2B C3B 1_555 1_555
C3B H1B 1_555 1_555
C4B C3B 1_555 1_555
C5B C4B 1_555 1_555
C6B C1B 1_555 1_555
H2B C6B 1_555 1_555
C7B C1B 1_555 1_555
C8B C2B 1_555 1_555
C9B C4B 1_555 1_555
C10B C5B 1_555 1_555
C16B C17B 1_555 1_555
C17B C18B 1_555 1_555
C18B H4B 1_555 1_555
C19B C18B 1_555 1_555
C20B C19B 1_555 1_555
C21B C16B 1_555 1_555
H5B C21B 1_555 1_555
C22B C16B 1_555 1_555
C23B C17B 1_555 1_555
C24B C19B 1_555 1_555
C25B C20B 1_555 1_555
O1B Pr1B 1_555 1_555
O2B C7B 1_555 1_555
O3B C8B 1_555 1_555
O4B C8B 1_555 1_555
O5B C9B 1_555 1_555
O6B C9B 1_555 1_555
O7B Cu2B 1_555 1_555
O8B C10B 1_555 1_555
O13B Cu1B 1_555 1_555
O14B C22B 1_555 1_555
O15B Cu2B 1_555 1_555
O16B Cu2B 1_555 1_555
O17B C24B 1_555 1_555
O18B C24B 1_555 1_555
O19B C25B 1_555 1_555
O20B C25B 1_555 1_555
O21B Pr1B 1_555 1_555
O22B Pr1B 1_555 1_555
O23B Pr1B 1_555 1_555
O24B Pr1B 1_555 1_555
O25B Pr2B 1_555 1_555
O26B Pr2B 1_555 1_555
O27B Pr2B 1_555 1_555
O28B Pr2B 1_555 1_555
O29B Pr2B 1_555 1_555
O30B Cu1B 1_555 1_555
O31B Cu1B 1_555 1_555
O32B Cu2B 1_555 1_555
Pr1A O17B 1_555 1_555
Pr1A_2 O5B 1_555 1_555
Pr1C O5 1_555 1_555
Pr1C_2 O17 1_555 1_555
Pr2A O16B 1_555 1_555
Pr2A_2 O3B 1_555 1_555
Pr2C O3 1_555 1_555
Pr2C_2 O16 1_555 1_555
Cu1A O1B 1_555 1_555
Cu1C O1 1_555 1_555
Cu2A O20B 1_555 1_555
Cu2C O20 1_555 1_555
O1A Cu1B 1_555 1_555
O1C Cu1 1_555 1_555
O2A Cu1B 1_555 1_555
O2C Cu1 1_555 1_555
O3A Pr2B 1_555 1_555
O3C Pr2 1_555 1_555
O4A Pr2B 1_555 1_555
O4C Pr2 1_555 1_555
O5A Pr1B 1_555 1_555
O5C Pr1 1_555 1_555
O16A Pr2B 1_555 1_555
O16C Pr2 1_555 1_555
O17A Pr1B 1_555 1_555
O17C Pr1 1_555 1_555
O18A Pr1B 1_555 1_555
O18C Pr1 1_555 1_555
O20A Cu2B 1_555 1_555
O20C Cu2 1_555 1_555
C5 C6 1_555 1_555
C15 O11 1_555 1_555
C20 C21 1_555 1_555
C22 O13 1_555 1_555
C23 O15 1_555 1_555
C23 O16 1_555 1_555
O2 Cu1C 1_555 1_555
O4 Pr2C 1_555 1_555
O18 Pr1C_2 1_555 1_555
C12B C13B 1_555 1_555
C14B O9B 1_555 1_555
C5B C6B 1_555 1_555
C7B O1B 1_555 1_555
C10B O7B 1_555 1_555
C20B C21B 1_555 1_555
C22B O13B 1_555 1_555
C23B O15B 1_555 1_555
C23B O16B 1_555 1_555
O2B Cu1A 1_555 1_555
O4B Pr2A_2 1_555 1_555
O18B Pr1A 1_555 1_555
Pr1A_2 O1A 1_555 1_555
Pr1C O1C 1_555 1_555
Cu2A O16A 1_555 1_555
Cu2C O16C 1_555 1_555

#END
