
#######################################################################
#
#                 Cambridge Crystallographic Data Centre
#                                CCDC 
#
#######################################################################
#
# If this CIF has been generated from an entry in the Cambridge 
# Structural Database, then it will include bibliographic, chemical, 
# crystal, experimental, refinement or atomic coordinate data resulting 
# from the CCDC's data processing and validation procedures.
#
#######################################################################

data_FALVAR
_symmetry_cell_setting           monoclinic
_symmetry_space_group_name_H-M   'P 21/c'
_symmetry_Int_Tables_number      14
_space_group_name_Hall           '-P 2ybc'
loop_
_symmetry_equiv_pos_site_id
_symmetry_equiv_pos_as_xyz
1 x,y,z
2 -x,1/2+y,1/2-z
3 -x,-y,-z
4 x,1/2-y,1/2+z
_cell_length_a                   16.125(3)
_cell_length_b                   25.632(5)
_cell_length_c                   30.125(6)
_cell_angle_alpha                90
_cell_angle_beta                 95.55(3)
_cell_angle_gamma                90
_cell_volume                     12392.8
loop_
_atom_site_label
_atom_site_type_symbol
_atom_site_fract_x
_atom_site_fract_y
_atom_site_fract_z
Cu1 Cu 0.44749(3) 0.22632(2) -0.236220(19)
Cu2 Cu -0.05504(4) 0.24296(4) -0.486140(19)
Cu3 Cu 0.15734(4) -0.02326(2) -0.33278(2)
Ca1 Ca 0.11793(5) 0.19467(3) -0.31779(3)
Ca2 Ca 0.77950(5) 0.25919(3) -0.15977(3)
S1 S 0.10889(9) 0.26963(6) -0.22337(4)
S2 S 0.80515(11) 0.18393(7) -0.25536(5)
O2 O 0.2425(2) 0.24401(15) -0.31490(13)
O3 O 0.3719(2) 0.25501(15) -0.28375(13)
O4 O 0.2158(2) 0.17116(13) -0.25265(11)
O5 O 0.5327(2) 0.18931(13) -0.19761(11)
O6 O 0.6607(2) 0.20327(12) -0.16584(11)
O7 O 0.6714(2) 0.29113(14) -0.21471(13)
O8 O 0.0593(3) 0.24178(18) -0.45821(12)
O9 O 0.1273(2) 0.22984(15) -0.39146(11)
O10 O -0.0172(2) 0.20611(17) -0.35776(10)
O11 O -0.1675(3) 0.2563(2) -0.51467(12)
O12 O -0.2322(2) 0.26732(14) -0.58288(10)
O13 O -0.0877(2) 0.24746(15) -0.61824(10)
O14 O 0.1192(2) -0.08715(13) -0.30673(12)
O15 O 0.1481(2) -0.17261(13) -0.30536(10)
O16 O 0.2473(2) -0.15796(13) -0.37217(11)
O17 O 0.2014(3) 0.04041(13) -0.35680(13)
O18 O 0.1842(2) 0.12632(13) -0.35339(12)
O19 O 0.0613(2) 0.11246(12) -0.29919(11)
O20 O 0.0669(2) 0.25349(15) -0.26839(11)
O21 O 0.8304(3) 0.19989(15) -0.20945(11)
N1 N 0.3541(3) 0.18242(17) -0.22409(13)
N2 N 0.5333(3) 0.27872(17) -0.24090(16)
N3 N -0.0853(3) 0.2245(2) -0.42767(14)
N4 N -0.0224(3) 0.2446(2) -0.54676(13)
N5 N 0.2261(3) -0.06909(15) -0.36493(14)
N6 N 0.0854(3) 0.02405(14) -0.30339(13)
C3 C 0.3006(3) 0.2331(2) -0.28664(17)
C4 C 0.2865(3) 0.19176(18) -0.25182(15)
C5 C 0.3513(3) 0.1465(2) -0.18752(16)
C6 C 0.3612(3) 0.1671(3) -0.14409(17)
C7 C 0.3596(4) 0.1306(3) -0.10896(19)
H7 H 0.3667 0.1429 -0.0798
C8 C 0.3482(5) 0.0784(4) -0.1156(2)
H8 H 0.3451 0.0557 -0.0917
C9 C 0.3418(4) 0.0609(3) -0.1571(2)
H9 H 0.3366 0.0251 -0.1616
C10 C 0.3422(4) 0.0937(2) -0.19509(18)
C11 C 0.3377(4) 0.0710(2) -0.24136(19)
H10 H 0.3313 0.0338 -0.2398
H11 H 0.3881 0.0790 -0.2545
H12 H 0.2910 0.0856 -0.2593
C12 C 0.3773(4) 0.2231(3) -0.1358(2)
H13 H 0.3826 0.2296 -0.1043
H14 H 0.3319 0.2432 -0.1499
H15 H 0.4280 0.2329 -0.1480
C13 C 0.5995(3) 0.21504(18) -0.19195(15)
C14 C 0.6045(3) 0.26644(18) -0.21772(17)
C15 C 0.5253(3) 0.3272(2) -0.26495(19)
C16 C 0.5026(5) 0.3716(2) -0.2441(2)
C17 C 0.4932(6) 0.4192(3) -0.2676(3)
H16 H 0.4777 0.4492 -0.2531
C18 C 0.5068(5) 0.4210(3) -0.3109(3)
H17 H 0.5054 0.4526 -0.3261
C19 C 0.5226(8) 0.3759(4) -0.3321(3)
H18 H 0.5276 0.3772 -0.3626
C20 C 0.5318(7) 0.3273(3) -0.3105(3)
C21 C 0.4995(7) 0.3694(3) -0.1937(3)
H19 H 0.4849 0.4031 -0.1830
H20 H 0.5531 0.3593 -0.1796
H21 H 0.4585 0.3443 -0.1867
C22 C 0.5478(11) 0.2779(5) -0.3347(4)
H22 H 0.5251 0.2490 -0.3197
H23 H 0.6068 0.2732 -0.3352
H24 H 0.5219 0.2800 -0.3647
C23 C 0.0629(3) 0.2316(2) -0.41667(15)
C24 C -0.0202(3) 0.2190(2) -0.39752(15)
C25 C -0.1643(4) 0.2159(4) -0.41501(19)
C26 C -0.2214(4) 0.2616(4) -0.4117(2)
C27 C -0.2978(7) 0.2526(5) -0.4015(4)
H25 H -0.3346 0.2800 -0.3985
C28 C -0.3236(6) 0.1986(5) -0.3949(4)
H26 H -0.3786 0.1931 -0.3893
C29 C -0.2719(9) 0.1541(9) -0.3963(3)
H27 H -0.2895 0.1204 -0.3907
C30 C -0.1848(5) 0.1670(4) -0.4081(2)
C31 C -0.1316(8) 0.1199(4) -0.4103(2)
H28 H -0.1620 0.0896 -0.4024
H29 H -0.0824 0.1237 -0.3898
H30 H -0.1158 0.1159 -0.4400
C32 C -0.1928(6) 0.3138(4) -0.4207(3)
H31 H -0.1367 0.3122 -0.4288
H32 H -0.1943 0.3349 -0.3945
H33 H -0.2283 0.3288 -0.4448
C33 C -0.1696(3) 0.2583(2) -0.55704(15)
C34 C -0.0876(3) 0.24950(19) -0.57669(15)
C35 C 0.0570(3) 0.2326(3) -0.56176(16)
C36 C 0.1207(4) 0.2697(3) -0.5577(2)
C37 C 0.1961(4) 0.2565(3) -0.5746(2)
H34 H 0.2379 0.2815 -0.5744
C38 C 0.2101(4) 0.2077(4) -0.5915(2)
H35 H 0.2615 0.1996 -0.6013
C39 C 0.1475(4) 0.1711(3) -0.5937(2)
H36 H 0.1567 0.1384 -0.6055
C40 C 0.0710(3) 0.1821(3) -0.57856(16)
C41 C 0.0048(4) 0.1431(3) -0.5819(2)
H37 H -0.0439 0.1574 -0.5705
H38 H 0.0229 0.1129 -0.5649
H39 H -0.0082 0.1335 -0.6126
C42 C 0.1061(5) 0.3208(3) -0.5376(3)
H40 H 0.1555 0.3418 -0.5375
H41 H 0.0926 0.3159 -0.5075
H42 H 0.0607 0.3381 -0.5546
C43 C 0.1557(3) -0.12770(18) -0.31948(15)
C44 C 0.2153(3) -0.11951(18) -0.35654(15)
C45 C 0.2835(3) -0.05463(18) -0.39591(17)
C46 C 0.2640(4) -0.0623(2) -0.44149(18)
C47 C 0.3217(5) -0.0482(3) -0.4705(2)
H43 H 0.3106 -0.0545 -0.5009
C48 C 0.3966(5) -0.0246(2) -0.4543(3)
H44 H 0.4343 -0.0141 -0.4740
C49 C 0.4144(4) -0.0169(2) -0.4097(3)
H45 H 0.4651 -0.0019 -0.3993
C50 C 0.3591(4) -0.0308(2) -0.3792(2)
C51 C 0.3763(4) -0.0192(3) -0.3306(3)
H46 H 0.3309 -0.0315 -0.3151
H47 H 0.4268 -0.0364 -0.3191
H48 H 0.3824 0.0178 -0.3264
C52 C 0.1828(4) -0.0864(3) -0.45912(19)
H49 H 0.1801 -0.0887 -0.4910
H50 H 0.1786 -0.1208 -0.4468
H51 H 0.1376 -0.0653 -0.4508
C53 C 0.1673(3) 0.08174(19) -0.34315(16)
C54 C 0.0986(3) 0.07329(18) -0.31267(14)
C55 C 0.0262(3) 0.01072(19) -0.2731(2)
C56 C -0.0474(4) -0.0138(2) -0.2889(3)
C57 C -0.1029(5) -0.0273(2) -0.2574(3)
H52 H -0.1532 -0.0433 -0.2671
C58 C -0.0843(6) -0.0174(3) -0.2124(3)
H53 H -0.1216 -0.0273 -0.1922
C59 C -0.0123(6) 0.0066(3) -0.1974(3)
H54 H -0.0007 0.0138 -0.1672
C60 C 0.0456(4) 0.0211(2) -0.2280(2)
C61 C 0.1245(5) 0.0478(3) -0.2100(2)
H55 H 0.1570 0.0562 -0.2341
H56 H 0.1111 0.0793 -0.1950
H57 H 0.1559 0.0252 -0.1893
C62 C -0.0642(5) -0.0252(3) -0.3365(3)
H58 H -0.1176 -0.0418 -0.3419
H59 H -0.0644 0.0067 -0.3532
H60 H -0.0218 -0.0479 -0.3457
C63 C 0.0516(5) 0.3251(3) -0.2081(2)
H61 H 0.0646 0.3544 -0.2260
H62 H 0.0663 0.3330 -0.1772
H63 H -0.0070 0.3177 -0.2129
C64 C 0.0732(6) 0.2239(3) -0.1848(2)
H64 H 0.0986 0.1906 -0.1888
H65 H 0.0137 0.2206 -0.1900
H66 H 0.0879 0.2359 -0.1549
C65 C 0.8798(5) 0.1369(3) -0.2700(2)
H67 H 0.8519 0.1099 -0.2878
H68 H 0.9074 0.1219 -0.2433
H69 H 0.9201 0.1536 -0.2866
C66 C 0.8364(6) 0.2367(3) -0.2887(2)
H70 H 0.7906 0.2469 -0.3096
H71 H 0.8823 0.2258 -0.3046
H72 H 0.8533 0.2657 -0.2699
Ca2C Ca -0.22050(5) 0.24081(3) -0.65977(3)
Ca2A Ca 0.22050(5) -0.24081(3) -0.34023(3)
O12C O 0.7678(2) 0.23268(14) -0.08288(10)
O13C O 0.9123(2) 0.25254(15) -0.11824(10)
O15A O 0.8519(2) 0.32739(13) -0.19464(10)
O16A O 0.7527(2) 0.34204(13) -0.12783(11)
O1 O -0.2222(9) 0.0662(4) -0.8530(2)
C1 C -0.1073(11) 0.1189(4) -0.8020(3)
H1 H -0.0875 0.1537 -0.8059
H2 H -0.0791 0.0953 -0.8203
H3 H -0.0963 0.1089 -0.7712
S3 S -0.2362(3) 0.11579(14) -0.82062(11)
C2 C -0.2703(8) 0.0917(5) -0.7700(4)
H4 H -0.3216 0.1084 -0.7646
H5 H -0.2288 0.0990 -0.7458
H6 H -0.2787 0.0547 -0.7723
S4 S 0.4424(2) 0.8147(3) -0.47079(12)
O22 O 0.4772(8) 0.8542(7) -0.5038(4)
C67 C 0.4431(6) 0.8311(5) -0.4149(3)
H73 H 0.4996 0.8346 -0.4019
H74 H 0.4157 0.8043 -0.3995
H75 H 0.4144 0.8636 -0.4122
C68 C 0.3340(5) 0.8109(4) -0.4833(3)
H76 H 0.3215 0.8024 -0.5143
H77 H 0.3093 0.8438 -0.4772
H78 H 0.3120 0.7843 -0.4653
S5 S 0.2345(5) 0.37569(15) -0.3595(3)
O23 O 0.2582(11) 0.3861(7) -0.3117(6)
C69 C 0.1319(10) 0.3528(5) -0.3525(9)
H79 H 0.1331 0.3157 -0.3486
H80 H 0.0952 0.3616 -0.3784
H81 H 0.1125 0.3690 -0.3267
C70 C 0.2178(8) 0.4345(3) -0.3666(4)
H82 H 0.2516 0.4476 -0.3886
H83 H 0.2314 0.4527 -0.3390
H84 H 0.1601 0.4399 -0.3765
O24 O -0.1671(8) 0.0379(5) -0.9606(3)
O25 O 0.008(2) 0.3603(7) -0.4474(15)
N7 N 0.3097(3) 0.3514(2) 0.04067(16)
C71 C 0.3532(5) 0.3922(3) 0.0154(2)
H85 H 0.4129 0.3875 0.0216
H86 H 0.3393 0.4263 0.0264
C72 C 0.3311(5) 0.3908(4) -0.0348(2)
H87 H 0.2709 0.3912 -0.0410
H88 H 0.3515 0.3585 -0.0465
C73 C 0.3678(6) 0.4369(4) -0.0586(3)
H89 H 0.3480 0.4691 -0.0464
H90 H 0.4280 0.4363 -0.0525
C74 C 0.3464(7) 0.4371(6) -0.1076(3)
H91 H 0.3708 0.4671 -0.1203
H92 H 0.2870 0.4383 -0.1140
H93 H 0.3676 0.4059 -0.1201
C75 C 0.3345(5) 0.3598(3) 0.0913(2)
H94 H 0.3153 0.3941 0.0992
H95 H 0.3044 0.3345 0.1075
C76 C 0.4230(5) 0.3557(3) 0.1069(2)
H96 H 0.4548 0.3810 0.0916
H97 H 0.4435 0.3211 0.1008
C77 C 0.4325(6) 0.3664(4) 0.1576(3)
H98 H 0.4068 0.3997 0.1628
H99 H 0.4015 0.3399 0.1720
C78 C 0.5176(7) 0.3673(4) 0.1794(3)
H100 H 0.5161 0.3727 0.2109
H101 H 0.5481 0.3951 0.1672
H102 H 0.5444 0.3346 0.1745
C79 C 0.2172(4) 0.3528(3) 0.0335(2)
H103 H 0.1997 0.3381 0.0045
H104 H 0.1948 0.3309 0.0558
C80 C 0.1816(6) 0.4051(3) 0.0360(2)
H105 H 0.1930 0.4249 0.0099
H106 H 0.2078 0.4230 0.0621
C81 C 0.0870(5) 0.4027(4) 0.0387(3)
H107 H 0.0756 0.3819 0.0644
H108 H 0.0608 0.3857 0.0122
C82 C 0.0492(8) 0.4577(5) 0.0428(5)
H109 H -0.0096 0.4548 0.0450
H110 H 0.0587 0.4779 0.0169
H111 H 0.0751 0.4746 0.0690
C83 C 0.3389(5) 0.2955(3) 0.0286(3)
H112 H 0.3275 0.2911 -0.0034
H113 H 0.3989 0.2939 0.0354
C84 C 0.3033(7) 0.2518(4) 0.0499(4)
H114 H 0.2443 0.2500 0.0401
H115 H 0.3090 0.2574 0.0819
C85 C 0.3438(9) 0.2002(5) 0.0398(6)
H116 H 0.3436 0.1961 0.0078
H117 H 0.3119 0.1718 0.0509
C86 C 0.4337(11) 0.1978(8) 0.0617(10)
H118 H 0.4620 0.1689 0.0497
H119 H 0.4333 0.1936 0.0933
H120 H 0.4620 0.2296 0.0557
N8 N 0.3222(4) 0.56564(18) -0.38766(19)
C87 C 0.3507(5) 0.5772(2) -0.3401(2)
H121 H 0.3304 0.6116 -0.3331
H122 H 0.4111 0.5789 -0.3371
C88 C 0.3243(5) 0.5389(3) -0.3049(2)
H123 H 0.2640 0.5386 -0.3057
H124 H 0.3423 0.5040 -0.3119
C89 C 0.3613(6) 0.5539(4) -0.2594(3)
H125 H 0.3506 0.5907 -0.2549
H126 H 0.4213 0.5494 -0.2580
C90 C 0.3281(7) 0.5227(4) -0.2208(3)
H127 H 0.3558 0.5342 -0.1928
H128 H 0.3388 0.4862 -0.2246
H129 H 0.2692 0.5282 -0.2209
C91 C 0.3424(7) 0.6124(3) -0.4150(2)
H130 H 0.3175 0.6040 -0.4447
H131 H 0.3077 0.6398 -0.4044
C92 C 0.4208(8) 0.6402(6) -0.4232(5)
H132 H 0.4303 0.6629 -0.3975
H133 H 0.4627 0.6131 -0.4186
C93 C 0.4504(14) 0.6712(6) -0.4589(9)
H134 H 0.4611 0.7071 -0.4500
H135 H 0.4997 0.6563 -0.4699
C94 C 0.3784(8) 0.6663(4) -0.4902(3)
H136 H 0.3770 0.6945 -0.5112
H137 H 0.3291 0.6672 -0.4747
H138 H 0.3807 0.6337 -0.5059
C95 C 0.2290(5) 0.5576(3) -0.3941(2)
H139 H 0.2167 0.5248 -0.3801
H140 H 0.2131 0.5538 -0.4258
C96 C 0.1733(5) 0.5992(3) -0.3765(2)
H141 H 0.1884 0.6331 -0.3876
H142 H 0.1819 0.6000 -0.3442
C97 C 0.0817(5) 0.5884(3) -0.3910(2)
H143 H 0.0703 0.5519 -0.3859
H144 H 0.0712 0.5949 -0.4228
C98 C 0.0220(6) 0.6216(3) -0.3665(2)
H145 H -0.0344 0.6131 -0.3771
H146 H 0.0320 0.6579 -0.3719
H147 H 0.0309 0.6148 -0.3351
C99 C 0.3644(5) 0.5167(3) -0.4016(3)
H148 H 0.4240 0.5227 -0.3970
H149 H 0.3517 0.4893 -0.3811
C100 C 0.3472(9) 0.4976(5) -0.4439(4)
H150 H 0.3573 0.5240 -0.4658
H151 H 0.2894 0.4867 -0.4488
C101 C 0.4049(10) 0.4511(5) -0.4479(4)
H152 H 0.4613 0.4602 -0.4365
H153 H 0.3869 0.4220 -0.4306
C102 C 0.4025(18) 0.4365(7) -0.4945(4)
H154 H 0.4398 0.4078 -0.4976
H155 H 0.4191 0.4657 -0.5115
H156 H 0.3468 0.4263 -0.5052
C103? C -0.2703(8) 0.0917(5) -0.7700(4)
C104? C -0.1073(11) 0.1189(4) -0.8020(3)
C105? C 0.4509(7) 0.5065(5) -0.4078(5)
C106? C 0.4798(15) 0.4553(8) -0.4264(7)
C107? C 0.5728(19) 0.4509(9) -0.4296(9)
H157? H 0.4429 0.2258 0.0827
H158? H 0.4716 0.2012 0.0391
H159? H 0.4428 0.1651 0.0768
H160? H 0.5774 0.2858 -0.3601
H161? H 0.4957 0.2616 -0.3446
H162? H 0.5806 0.2548 -0.3151
H163? H -0.1269 0.1542 -0.8020
H164? H -0.0763 0.1134 -0.8272
H165? H -0.0720 0.1124 -0.7750
H166? H -0.3029 0.1205 -0.7823
H167? H -0.2458 0.1005 -0.7407
H168? H -0.3054 0.0617 -0.7683
H169? H 0.1771 0.4459 -0.3474
H170? H 0.1973 0.4407 -0.3971
H171? H 0.2687 0.4536 -0.3596
H172? H 0.3323 0.5063 -0.4290
H173? H 0.3548 0.4902 -0.3797
H174? H 0.4824 0.5113 -0.3790
H175? H 0.4685 0.5338 -0.4271
H176? H 0.4629 0.4271 -0.4078
H177? H 0.4514 0.4503 -0.4560
H178? H 0.5848 0.4186 -0.4437
H179? H 0.6016 0.4519 -0.4001
H180? H 0.5910 0.4795 -0.4468
S6? S 0.8787(4) 0.1918(3) -0.2407(2)
S7? S -0.1898(4) 0.07748(19) -0.80488(15)
loop_
_geom_bond_atom_site_label_1
_geom_bond_atom_site_label_2
_geom_bond_site_symmetry_1
_geom_bond_site_symmetry_2
Cu1 O3 1_555 1_555
Cu2 O8 1_555 1_555
Cu3 O14 1_555 1_555
Ca1 O2 1_555 1_555
Ca2 O6 1_555 1_555
S1 O20 1_555 1_555
S2 O21 1_555 1_555
O1 S3 1_555 1_555
C1 H1 1_555 1_555
H2 C1 1_555 1_555
H3 C1 1_555 1_555
S3 C1 1_555 1_555
C2 S3 1_555 1_555
H4 C2 1_555 1_555
H5 C2 1_555 1_555
H6 C2 1_555 1_555
S4 O22 1_555 1_555
S5 O23 1_555 1_555
O2 C3 1_555 1_555
O3 C3 1_555 1_555
O4 Ca1 1_555 1_555
O5 Cu1 1_555 1_555
O6 C13 1_555 1_555
O7 Ca2 1_555 1_555
O8 C23 1_555 1_555
O9 Ca1 1_555 1_555
O10 Ca1 1_555 1_555
O11 Cu2 1_555 1_555
O12 C33 1_555 1_555
O13 C34 1_555 1_555
O14 C43 1_555 1_555
O15 C43 1_555 1_555
O16 C44 1_555 1_555
O17 Cu3 1_555 1_555
O18 Ca1 1_555 1_555
O19 Ca1 1_555 1_555
O20 Ca1 1_555 1_555
O21 Ca2 1_555 1_555
N1 Cu1 1_555 1_555
N2 Cu1 1_555 1_555
N3 Cu2 1_555 1_555
N4 Cu2 1_555 1_555
N5 Cu3 1_555 1_555
N6 Cu3 1_555 1_555
C3 C4 1_555 1_555
C4 O4 1_555 1_555
C5 N1 1_555 1_555
C6 C5 1_555 1_555
C7 C6 1_555 1_555
H7 C7 1_555 1_555
C8 C7 1_555 1_555
H8 C8 1_555 1_555
C9 C8 1_555 1_555
H9 C9 1_555 1_555
C10 C5 1_555 1_555
C11 C10 1_555 1_555
H10 C11 1_555 1_555
H11 C11 1_555 1_555
H12 C11 1_555 1_555
C12 C6 1_555 1_555
H13 C12 1_555 1_555
H14 C12 1_555 1_555
H15 C12 1_555 1_555
C13 O5 1_555 1_555
C14 O7 1_555 1_555
C15 N2 1_555 1_555
C16 C15 1_555 1_555
C17 C16 1_555 1_555
H16 C17 1_555 1_555
C18 C17 1_555 1_555
H17 C18 1_555 1_555
C19 C18 1_555 1_555
H18 C19 1_555 1_555
C20 C15 1_555 1_555
C21 C16 1_555 1_555
H19 C21 1_555 1_555
H20 C21 1_555 1_555
H21 C21 1_555 1_555
C22 C20 1_555 1_555
H22 C22 1_555 1_555
H23 C22 1_555 1_555
H24 C22 1_555 1_555
C23 O9 1_555 1_555
C24 O10 1_555 1_555
C25 N3 1_555 1_555
C26 C25 1_555 1_555
C27 C26 1_555 1_555
H25 C27 1_555 1_555
C28 C27 1_555 1_555
H26 C28 1_555 1_555
C29 C28 1_555 1_555
H27 C29 1_555 1_555
C30 C25 1_555 1_555
C31 C30 1_555 1_555
H28 C31 1_555 1_555
H29 C31 1_555 1_555
H30 C31 1_555 1_555
C32 C26 1_555 1_555
H31 C32 1_555 1_555
H32 C32 1_555 1_555
H33 C32 1_555 1_555
C33 O11 1_555 1_555
C34 N4 1_555 1_555
C35 N4 1_555 1_555
C36 C35 1_555 1_555
C37 C36 1_555 1_555
H34 C37 1_555 1_555
C38 C37 1_555 1_555
H35 C38 1_555 1_555
C39 C38 1_555 1_555
H36 C39 1_555 1_555
C40 C35 1_555 1_555
C41 C40 1_555 1_555
H37 C41 1_555 1_555
H38 C41 1_555 1_555
H39 C41 1_555 1_555
C42 C36 1_555 1_555
H40 C42 1_555 1_555
H41 C42 1_555 1_555
H42 C42 1_555 1_555
C43 C44 1_555 1_555
C44 N5 1_555 1_555
C45 N5 1_555 1_555
C46 C45 1_555 1_555
C47 C46 1_555 1_555
H43 C47 1_555 1_555
C48 C47 1_555 1_555
H44 C48 1_555 1_555
C49 C48 1_555 1_555
H45 C49 1_555 1_555
C50 C45 1_555 1_555
C51 C50 1_555 1_555
H46 C51 1_555 1_555
H47 C51 1_555 1_555
H48 C51 1_555 1_555
C52 C46 1_555 1_555
H49 C52 1_555 1_555
H50 C52 1_555 1_555
H51 C52 1_555 1_555
C53 O17 1_555 1_555
C54 O19 1_555 1_555
C55 N6 1_555 1_555
C56 C55 1_555 1_555
C57 C56 1_555 1_555
H52 C57 1_555 1_555
C58 C57 1_555 1_555
H53 C58 1_555 1_555
C59 C58 1_555 1_555
H54 C59 1_555 1_555
C60 C55 1_555 1_555
C61 C60 1_555 1_555
H55 C61 1_555 1_555
H56 C61 1_555 1_555
H57 C61 1_555 1_555
C62 C56 1_555 1_555
H58 C62 1_555 1_555
H59 C62 1_555 1_555
H60 C62 1_555 1_555
C63 S1 1_555 1_555
H61 C63 1_555 1_555
H62 C63 1_555 1_555
H63 C63 1_555 1_555
C64 S1 1_555 1_555
H64 C64 1_555 1_555
H65 C64 1_555 1_555
H66 C64 1_555 1_555
C65 S2 1_555 1_555
H67 C65 1_555 1_555
H68 C65 1_555 1_555
H69 C65 1_555 1_555
C66 S2 1_555 1_555
H70 C66 1_555 1_555
H71 C66 1_555 1_555
H72 C66 1_555 1_555
C67 S4 1_555 1_555
H73 C67 1_555 1_555
H74 C67 1_555 1_555
H75 C67 1_555 1_555
C68 S4 1_555 1_555
H76 C68 1_555 1_555
H77 C68 1_555 1_555
H78 C68 1_555 1_555
C69 S5 1_555 1_555
H79 C69 1_555 1_555
H80 C69 1_555 1_555
H81 C69 1_555 1_555
C70 S5 1_555 1_555
H82 C70 1_555 1_555
H83 C70 1_555 1_555
H84 C70 1_555 1_555
N7 C71 1_555 1_555
C71 H85 1_555 1_555
H86 C71 1_555 1_555
C72 C71 1_555 1_555
H87 C72 1_555 1_555
H88 C72 1_555 1_555
C73 C72 1_555 1_555
H89 C73 1_555 1_555
H90 C73 1_555 1_555
C74 C73 1_555 1_555
H91 C74 1_555 1_555
H92 C74 1_555 1_555
H93 C74 1_555 1_555
C75 N7 1_555 1_555
H94 C75 1_555 1_555
H95 C75 1_555 1_555
C76 C75 1_555 1_555
H96 C76 1_555 1_555
H97 C76 1_555 1_555
C77 C76 1_555 1_555
H98 C77 1_555 1_555
H99 C77 1_555 1_555
C78 C77 1_555 1_555
H100 C78 1_555 1_555
H101 C78 1_555 1_555
H102 C78 1_555 1_555
C79 N7 1_555 1_555
H103 C79 1_555 1_555
H104 C79 1_555 1_555
C80 C79 1_555 1_555
H105 C80 1_555 1_555
H106 C80 1_555 1_555
C81 C80 1_555 1_555
H107 C81 1_555 1_555
H108 C81 1_555 1_555
C82 C81 1_555 1_555
H109 C82 1_555 1_555
H110 C82 1_555 1_555
H111 C82 1_555 1_555
C83 N7 1_555 1_555
H112 C83 1_555 1_555
H113 C83 1_555 1_555
C84 C83 1_555 1_555
H114 C84 1_555 1_555
H115 C84 1_555 1_555
C85 C84 1_555 1_555
H116 C85 1_555 1_555
H117 C85 1_555 1_555
C86 C85 1_555 1_555
H118 C86 1_555 1_555
H119 C86 1_555 1_555
H120 C86 1_555 1_555
N8 C87 1_555 1_555
C87 H121 1_555 1_555
H122 C87 1_555 1_555
C88 C87 1_555 1_555
H123 C88 1_555 1_555
H124 C88 1_555 1_555
C89 C88 1_555 1_555
H125 C89 1_555 1_555
H126 C89 1_555 1_555
C90 C89 1_555 1_555
H127 C90 1_555 1_555
H128 C90 1_555 1_555
H129 C90 1_555 1_555
C91 N8 1_555 1_555
H130 C91 1_555 1_555
H131 C91 1_555 1_555
C92 C91 1_555 1_555
H132 C92 1_555 1_555
H133 C92 1_555 1_555
C93 C92 1_555 1_555
H134 C93 1_555 1_555
H135 C93 1_555 1_555
C94 C93 1_555 1_555
H136 C94 1_555 1_555
H137 C94 1_555 1_555
H138 C94 1_555 1_555
C95 N8 1_555 1_555
H139 C95 1_555 1_555
H140 C95 1_555 1_555
C96 C95 1_555 1_555
H141 C96 1_555 1_555
H142 C96 1_555 1_555
C97 C96 1_555 1_555
H143 C97 1_555 1_555
H144 C97 1_555 1_555
C98 C97 1_555 1_555
H145 C98 1_555 1_555
H146 C98 1_555 1_555
H147 C98 1_555 1_555
C99 N8 1_555 1_555
H148 C99 1_555 1_555
H149 C99 1_555 1_555
C100 C99 1_555 1_555
H150 C100 1_555 1_555
H151 C100 1_555 1_555
C101 C100 1_555 1_555
H152 C101 1_555 1_555
H153 C101 1_555 1_555
C102 C101 1_555 1_555
H154 C102 1_555 1_555
H155 C102 1_555 1_555
H156 C102 1_555 1_555
Ca2C O12 1_555 1_555
Ca2A O15 1_555 1_555
O12C Ca2 1_555 1_555
O13C Ca2 1_555 1_555
O15A Ca2 1_555 1_555
O16A Ca2 1_555 1_555
O13 Ca2C 1_555 1_555
O16 Ca2A 1_555 1_555
O18 C53 1_555 1_555
N1 C4 1_555 1_555
N2 C14 1_555 1_555
N3 C24 1_555 1_555
N6 C54 1_555 1_555
C9 C10 1_555 1_555
C13 C14 1_555 1_555
C19 C20 1_555 1_555
C23 C24 1_555 1_555
C29 C30 1_555 1_555
C33 C34 1_555 1_555
C39 C40 1_555 1_555
C49 C50 1_555 1_555
C53 C54 1_555 1_555
C59 C60 1_555 1_555

#END
