
#######################################################################
#
#                 Cambridge Crystallographic Data Centre
#                                CCDC 
#
#######################################################################
#
# If this CIF has been generated from an entry in the Cambridge 
# Structural Database, then it will include bibliographic, chemical, 
# crystal, experimental, refinement or atomic coordinate data resulting 
# from the CCDC's data processing and validation procedures.
#
#######################################################################

data_FALVIZ
_symmetry_cell_setting           orthorhombic
_symmetry_space_group_name_H-M   'P b c a'
_symmetry_Int_Tables_number      61
_space_group_name_Hall           '-P 2ac 2ab'
loop_
_symmetry_equiv_pos_site_id
_symmetry_equiv_pos_as_xyz
1 x,y,z
2 1/2-x,-y,1/2+z
3 1/2+x,1/2-y,-z
4 -x,1/2+y,1/2-z
5 -x,-y,-z
6 1/2+x,y,1/2-z
7 1/2-x,1/2+y,z
8 x,1/2-y,1/2+z
_cell_length_a                   18.512(4)
_cell_length_b                   15.920(3)
_cell_length_c                   27.967(6)
_cell_angle_alpha                90
_cell_angle_beta                 90
_cell_angle_gamma                90
_cell_volume                     8242.18
loop_
_atom_site_label
_atom_site_type_symbol
_atom_site_fract_x
_atom_site_fract_y
_atom_site_fract_z
Cu1 Cu 0.25487(3) 0.24593(3) 0.500783(16)
Ba1 Ba 0.0000 0.0000 0.5000
N1 N 0.2108(2) 0.1687(2) 0.45572(12)
N2 N 0.1998(2) -0.1784(2) 0.54638(13)
O1 O 0.17904(18) 0.2085(2) 0.54391(11)
O2 O 0.08625(19) 0.1192(2) 0.54573(12)
O3 O 0.11343(18) 0.0776(2) 0.45243(11)
O4 O 0.17078(18) -0.2146(2) 0.45714(11)
O5 O 0.07856(18) -0.1242(2) 0.45498(12)
O6 O 0.09924(19) -0.0921(2) 0.55047(11)
C1 C 0.1374(2) 0.1537(3) 0.52532(16)
C2 C 0.1538(2) 0.1289(3) 0.47287(16)
C3 C 0.2354(2) 0.1475(3) 0.40856(15)
C4 C 0.2696(3) 0.0706(3) 0.40098(15)
C5 C 0.2948(3) 0.0510(3) 0.35506(18)
H1 H 0.3186 0.0003 0.3499
C6 C 0.2850(3) 0.1049(4) 0.31787(18)
H2 H 0.3011 0.0907 0.2874
C7 C 0.2520(4) 0.1791(4) 0.32546(18)
H3 H 0.2453 0.2153 0.2997
C8 C 0.2270(3) 0.2038(3) 0.37096(17)
C9 C 0.2812(3) 0.0105(3) 0.4411(2)
H4 H 0.3053 -0.0387 0.4294
H5 H 0.2354 -0.0051 0.4545
H6 H 0.3103 0.0367 0.4653
C10 C 0.1943(4) 0.2886(3) 0.3796(2)
H7 H 0.1819 0.3139 0.3496
H8 H 0.2286 0.3236 0.3960
H9 H 0.1516 0.2827 0.3988
C11 C 0.1286(2) -0.1600(3) 0.47595(16)
C12 C 0.1415(3) -0.1400(3) 0.52907(16)
C13 C 0.2194(2) -0.1608(3) 0.59475(15)
C14 C 0.2008(3) -0.2172(3) 0.63090(18)
C15 C 0.2215(4) -0.1981(4) 0.67803(19)
H10 H 0.2102 -0.2351 0.7026
C16 C 0.2576(3) -0.1266(4) 0.68791(18)
H11 H 0.2703 -0.1148 0.7194
C17 C 0.2761(3) -0.0706(4) 0.65251(17)
H12 H 0.3017 -0.0222 0.6601
C18 C 0.2564(3) -0.0866(3) 0.60498(15)
C19 C 0.1612(4) -0.2969(4) 0.6191(2)
H13 H 0.1526 -0.3281 0.6479
H14 H 0.1158 -0.2834 0.6043
H15 H 0.1898 -0.3300 0.5975
C20 C 0.2756(3) -0.0262(4) 0.5663(2)
H16 H 0.3009 0.0208 0.5798
H17 H 0.3059 -0.0537 0.5433
H18 H 0.2323 -0.0069 0.5509
Cu1D Cu -0.25487(3) -0.24593(3) 0.499217(16)
Cu1F Cu 0.24513(3) -0.25407(3) 0.500783(16)
Cu1B Cu -0.24513(3) 0.25407(3) 0.499217(16)
N1D N -0.2108(2) -0.1687(2) 0.54428(12)
N2D N -0.1998(2) 0.1784(2) 0.45362(13)
N2F N 0.3002(2) 0.3216(2) 0.54638(13)
N2B N -0.3002(2) -0.3216(2) 0.45362(13)
O1D O -0.17904(18) -0.2085(2) 0.45609(11)
O2D O -0.08625(19) -0.1192(2) 0.45427(12)
O3D O -0.11343(18) -0.0776(2) 0.54757(11)
O4D O -0.17078(18) 0.2146(2) 0.54286(11)
O4F O 0.32922(18) 0.2854(2) 0.45714(11)
O4B O -0.32922(18) -0.2854(2) 0.54286(11)
O5D O -0.07856(18) 0.1242(2) 0.54502(12)
O6D O -0.09924(19) 0.0921(2) 0.44953(11)
C1D C -0.1374(2) -0.1537(3) 0.47468(16)
C2D C -0.1538(2) -0.1289(3) 0.52713(16)
C3D C -0.2354(2) -0.1475(3) 0.59144(15)
C4D C -0.2696(3) -0.0706(3) 0.59902(15)
C5D C -0.2948(3) -0.0510(3) 0.64494(18)
H1D H -0.3186 -0.0003 0.6501
C6D C -0.2850(3) -0.1049(4) 0.68213(18)
H2D H -0.3011 -0.0907 0.7126
C7D C -0.2520(4) -0.1791(4) 0.67454(18)
H3D H -0.2453 -0.2153 0.7003
C8D C -0.2270(3) -0.2038(3) 0.62904(17)
C9D C -0.2812(3) -0.0105(3) 0.5589(2)
H4D H -0.3053 0.0387 0.5706
H5D H -0.2354 0.0051 0.5455
H6D H -0.3103 -0.0367 0.5347
C10D C -0.1943(4) -0.2886(3) 0.6204(2)
H7D H -0.1819 -0.3139 0.6504
H8D H -0.2286 -0.3236 0.6040
H9D H -0.1516 -0.2827 0.6012
C11D C -0.1286(2) 0.1600(3) 0.52405(16)
C12D C -0.1415(3) 0.1400(3) 0.47093(16)
C13D C -0.2194(2) 0.1608(3) 0.40525(15)
C14D C -0.2008(3) 0.2172(3) 0.36910(18)
C15D C -0.2215(4) 0.1981(4) 0.32197(19)
H10D H -0.2102 0.2351 0.2974
C16D C -0.2576(3) 0.1266(4) 0.31209(18)
H11D H -0.2703 0.1148 0.2806
C17D C -0.2761(3) 0.0706(4) 0.34749(17)
H12D H -0.3017 0.0222 0.3399
C18D C -0.2564(3) 0.0866(3) 0.39502(15)
C19D C -0.1612(4) 0.2969(4) 0.3809(2)
H13D H -0.1526 0.3281 0.3521
H14D H -0.1158 0.2834 0.3957
H15D H -0.1898 0.3300 0.4025
C20D C -0.2756(3) 0.0262(4) 0.4337(2)
H16D H -0.3009 -0.0208 0.4202
H17D H -0.3059 0.0537 0.4567
H18D H -0.2323 0.0069 0.4491
N3 N -0.0098(2) 0.7062(3) 0.35773(15)
C21 C -0.0411(3) 0.6250(3) 0.3394(2)
H19 H -0.0811 0.6094 0.3601
H20 H -0.0608 0.6351 0.3078
C22 C 0.0093(3) 0.5522(4) 0.3364(2)
H21 H 0.0459 0.5638 0.3124
H22 H 0.0335 0.5452 0.3669
C23 C -0.0285(4) 0.4728(4) 0.3238(3)
H23 H -0.0640 0.4611 0.3484
H24 H -0.0544 0.4815 0.2941
C24 C 0.0184(4) 0.3980(4) 0.3183(3)
H25 H -0.0110 0.3484 0.3170
H26 H 0.0507 0.3943 0.3451
H27 H 0.0459 0.4029 0.2894
C25 C 0.0204(4) 0.6972(4) 0.4072(2)
H28 H 0.0655 0.6666 0.4047
H29 H 0.0320 0.7531 0.4187
C26 C -0.0237(4) 0.6556(4) 0.4441(2)
H30 H -0.0298 0.5970 0.4355
H31 H -0.0711 0.6813 0.4447
C27 C 0.0078(5) 0.6600(6) 0.4928(2)
H32 H 0.0563 0.6371 0.4914
H33 H 0.0122 0.7188 0.5015
C28 C -0.0312(6) 0.6167(6) 0.5318(3)
H34 H -0.0055 0.6243 0.5613
H35 H -0.0346 0.5579 0.5246
H36 H -0.0789 0.6399 0.5347
C29 C -0.0732(4) 0.7693(4) 0.3605(2)
H37 H -0.1129 0.7426 0.3773
H38 H -0.0579 0.8170 0.3796
C30 C -0.1010(4) 0.8015(4) 0.3138(2)
H39 H -0.1190 0.7549 0.2949
H40 H -0.0617 0.8276 0.2962
C31 C -0.1612(4) 0.8653(4) 0.3211(3)
H41 H -0.1992 0.8393 0.3399
H42 H -0.1424 0.9122 0.3394
C32 C -0.1934(5) 0.8983(5) 0.2756(3)
H43 H -0.2285 0.9409 0.2830
H44 H -0.2165 0.8533 0.2587
H45 H -0.1560 0.9220 0.2561
C33 C 0.0467(3) 0.7381(4) 0.32417(19)
H46 H 0.0867 0.6988 0.3244
H47 H 0.0266 0.7380 0.2921
C34 C 0.0757(4) 0.8229(5) 0.3339(2)
H48 H 0.1043 0.8206 0.3629
H49 H 0.0355 0.8607 0.3398
C35 C 0.1211(4) 0.8587(5) 0.2950(3)
H50 H 0.0932 0.8577 0.2656
H51 H 0.1625 0.8222 0.2904
C36 C 0.1480(5) 0.9459(7) 0.3025(4)
H52 H 0.1998 0.9464 0.3006
H53 H 0.1332 0.9653 0.3335
H54 H 0.1283 0.9821 0.2784
S1 S 0.47585(11) 0.34444(12) 0.68465(6)
O7 O 0.5219(4) 0.3582(5) 0.7277(2)
C37 C 0.4337(4) 0.4398(5) 0.6709(3)
H55 H 0.3988 0.4530 0.6951
H56 H 0.4099 0.4353 0.6405
H57 H 0.4693 0.4836 0.6695
C38 C 0.5334(5) 0.3411(7) 0.6355(3)
H58 H 0.5614 0.2904 0.6365
H59 H 0.5651 0.3888 0.6363
H60 H 0.5054 0.3424 0.6066
loop_
_geom_bond_atom_site_label_1
_geom_bond_atom_site_label_2
_geom_bond_site_symmetry_1
_geom_bond_site_symmetry_2
Cu1 N1 1_555 1_555
Ba1 O2 1_555 1_555
N1 C2 1_555 1_555
N2 C12 1_555 1_555
N3 C21 1_555 1_555
O1 Cu1 1_555 1_555
O2 C1 1_555 1_555
O3 Ba1 1_555 1_555
O4 C11 1_555 1_555
O5 Ba1 1_555 1_555
O6 Ba1 1_555 1_555
C1 O1 1_555 1_555
C2 O3 1_555 1_555
C3 N1 1_555 1_555
C4 C3 1_555 1_555
C5 C4 1_555 1_555
H1 C5 1_555 1_555
C6 C5 1_555 1_555
H2 C6 1_555 1_555
C7 C6 1_555 1_555
H3 C7 1_555 1_555
C8 C3 1_555 1_555
C9 C4 1_555 1_555
H4 C9 1_555 1_555
H5 C9 1_555 1_555
H6 C9 1_555 1_555
C10 C8 1_555 1_555
H7 C10 1_555 1_555
H8 C10 1_555 1_555
H9 C10 1_555 1_555
C11 O5 1_555 1_555
C12 O6 1_555 1_555
C13 N2 1_555 1_555
C14 C13 1_555 1_555
C15 C14 1_555 1_555
H10 C15 1_555 1_555
C16 C15 1_555 1_555
H11 C16 1_555 1_555
C17 C16 1_555 1_555
H12 C17 1_555 1_555
C18 C13 1_555 1_555
C19 C14 1_555 1_555
H13 C19 1_555 1_555
H14 C19 1_555 1_555
H15 C19 1_555 1_555
C20 C18 1_555 1_555
H16 C20 1_555 1_555
H17 C20 1_555 1_555
H18 C20 1_555 1_555
C21 H19 1_555 1_555
H20 C21 1_555 1_555
C22 C21 1_555 1_555
H21 C22 1_555 1_555
H22 C22 1_555 1_555
C23 C22 1_555 1_555
H23 C23 1_555 1_555
H24 C23 1_555 1_555
C24 C23 1_555 1_555
H25 C24 1_555 1_555
H26 C24 1_555 1_555
H27 C24 1_555 1_555
C25 N3 1_555 1_555
H28 C25 1_555 1_555
H29 C25 1_555 1_555
C26 C25 1_555 1_555
H30 C26 1_555 1_555
H31 C26 1_555 1_555
C27 C26 1_555 1_555
H32 C27 1_555 1_555
H33 C27 1_555 1_555
C28 C27 1_555 1_555
H34 C28 1_555 1_555
H35 C28 1_555 1_555
H36 C28 1_555 1_555
C29 N3 1_555 1_555
H37 C29 1_555 1_555
H38 C29 1_555 1_555
C30 C29 1_555 1_555
H39 C30 1_555 1_555
H40 C30 1_555 1_555
C31 C30 1_555 1_555
H41 C31 1_555 1_555
H42 C31 1_555 1_555
C32 C31 1_555 1_555
H43 C32 1_555 1_555
H44 C32 1_555 1_555
H45 C32 1_555 1_555
C33 N3 1_555 1_555
H46 C33 1_555 1_555
H47 C33 1_555 1_555
C34 C33 1_555 1_555
H48 C34 1_555 1_555
H49 C34 1_555 1_555
C35 C34 1_555 1_555
H50 C35 1_555 1_555
H51 C35 1_555 1_555
C36 C35 1_555 1_555
H52 C36 1_555 1_555
H53 C36 1_555 1_555
H54 C36 1_555 1_555
S1 O7 1_555 1_555
C37 S1 1_555 1_555
H55 C37 1_555 1_555
H56 C37 1_555 1_555
H57 C37 1_555 1_555
C38 S1 1_555 1_555
H58 C38 1_555 1_555
H59 C38 1_555 1_555
H60 C38 1_555 1_555
Cu1D N1D 1_555 1_555
Cu1F N2 1_555 1_555
Cu1B N2D 1_555 1_555
N1D C2D 1_555 1_555
N2D C12D 1_555 1_555
N2F Cu1 1_555 1_555
N2B Cu1D 1_555 1_555
O1D Cu1D 1_555 1_555
O2D Ba1 1_555 1_555
O3D Ba1 1_555 1_555
O4D Cu1B 1_555 1_555
O4F Cu1 1_555 1_555
O4B Cu1D 1_555 1_555
O5D Ba1 1_555 1_555
O6D Ba1 1_555 1_555
C1D O1D 1_555 1_555
C2D O3D 1_555 1_555
C3D N1D 1_555 1_555
C4D C3D 1_555 1_555
C5D C4D 1_555 1_555
H1D C5D 1_555 1_555
C6D C5D 1_555 1_555
H2D C6D 1_555 1_555
C7D C6D 1_555 1_555
H3D C7D 1_555 1_555
C8D C3D 1_555 1_555
C9D C4D 1_555 1_555
H4D C9D 1_555 1_555
H5D C9D 1_555 1_555
H6D C9D 1_555 1_555
C10D C8D 1_555 1_555
H7D C10D 1_555 1_555
H8D C10D 1_555 1_555
H9D C10D 1_555 1_555
C11D O4D 1_555 1_555
C12D O6D 1_555 1_555
C13D N2D 1_555 1_555
C14D C13D 1_555 1_555
C15D C14D 1_555 1_555
H10D C15D 1_555 1_555
C16D C15D 1_555 1_555
H11D C16D 1_555 1_555
C17D C16D 1_555 1_555
H12D C17D 1_555 1_555
C18D C13D 1_555 1_555
C19D C14D 1_555 1_555
H13D C19D 1_555 1_555
H14D C19D 1_555 1_555
H15D C19D 1_555 1_555
C20D C18D 1_555 1_555
H16D C20D 1_555 1_555
H17D C20D 1_555 1_555
H18D C20D 1_555 1_555
O4 Cu1F 1_555 1_555
C1 C2 1_555 1_555
C7 C8 1_555 1_555
C11 C12 1_555 1_555
C17 C18 1_555 1_555
O2D C1D 1_555 1_555
O5D C11D 1_555 1_555
C1D C2D 1_555 1_555
C7D C8D 1_555 1_555
C11D C12D 1_555 1_555
C17D C18D 1_555 1_555

#END
