
#######################################################################
#
#                 Cambridge Crystallographic Data Centre
#                                CCDC 
#
#######################################################################
#
# If this CIF has been generated from an entry in the Cambridge 
# Structural Database, then it will include bibliographic, chemical, 
# crystal, experimental, refinement or atomic coordinate data resulting 
# from the CCDC's data processing and validation procedures.
#
#######################################################################

data_FALVOF01
_symmetry_cell_setting           monoclinic
_symmetry_space_group_name_H-M   'P 21/n'
_symmetry_Int_Tables_number      14
_space_group_name_Hall           '-P 2yn'
loop_
_symmetry_equiv_pos_site_id
_symmetry_equiv_pos_as_xyz
1 x,y,z
2 1/2-x,1/2+y,1/2-z
3 -x,-y,-z
4 1/2+x,1/2-y,1/2+z
_cell_length_a                   10.953(2)
_cell_length_b                   23.056(5)
_cell_length_c                   19.811(4)
_cell_angle_alpha                90
_cell_angle_beta                 99.88(3)
_cell_angle_gamma                90
_cell_volume                     4928.72
loop_
_atom_site_label
_atom_site_type_symbol
_atom_site_fract_x
_atom_site_fract_y
_atom_site_fract_z
Cu1 Cu 0.08994(5) 0.17742(3) 0.89995(3)
Cu2 Cu 0.30261(5) 0.17830(3) 0.65253(3)
Pr1 Pr -0.46065(2) 0.146151(10) 0.400194(12)
Pr2 Pr 0.85108(3) 0.145124(12) 1.147697(14)
O1 O -0.3538(3) 0.21738(18) 0.47913(18)
O2 O -0.3275(4) 0.31243(17) 0.49504(17)
O3 O -0.4945(3) 0.29128(17) 0.59869(17)
O4 O -0.4091(4) 0.35591(18) 0.6739(2)
O5 O -0.0271(4) 0.27101(17) 0.82813(18)
O6 O 0.0057(3) 0.17878(17) 0.80408(17)
O7 O 0.1439(3) 0.20242(16) 0.68006(17)
O8 O 0.0378(4) 0.12111(19) 0.6518(3)
O9 O -0.3300(4) -0.03949(19) 0.4623(2)
O10 O -0.2980(4) 0.01187(19) 0.5589(2)
O11 O -0.2741(3) 0.09020(18) 0.4410(2)
O12 O -0.1052(5) 0.1394(3) 0.4296(6)
O13 O 0.2473(3) 0.19603(17) 0.86812(18)
O14 O 0.3614(4) 0.1207(2) 0.9084(3)
O15 O 0.3856(3) 0.17996(17) 0.74821(17)
O16 O 0.4094(4) 0.27233(19) 0.72333(19)
O17 O 0.7951(4) 0.36132(18) 0.8786(2)
O18 O 0.8813(3) 0.29553(17) 0.95243(17)
O19 O 0.7398(4) 0.21654(18) 1.07177(19)
O20 O 0.7246(3) 0.31244(17) 1.05720(17)
O21 O -0.4765(4) 0.10304(17) 0.51878(19)
O22 O -0.5152(4) 0.03975(18) 0.3888(2)
O23 O -0.4802(5) 0.1095(2) 0.2781(2)
O24 O -0.2802(4) 0.18752(19) 0.3468(2)
O25 O 0.6605(5) 0.1778(2) 1.1968(3)
O26 O 0.8716(9) 0.1085(3) 1.2685(3)
O27 O 0.9189(8) 0.0400(3) 1.1620(3)
O28 O 0.6693(6) 0.0825(3) 1.1021(4)
O29 O 0.8915(6) 0.1048(2) 1.0370(3)
O30 O -0.0725(4) 0.18032(18) 0.93364(19)
O31 O 0.1057(9) 0.0814(3) 0.9093(4)
O32 O 0.2686(4) 0.0829(2) 0.6516(2)
O33 O 0.4706(3) 0.17821(17) 0.62167(19)
C1 C -0.2482(4) 0.2508(2) 0.5865(2)
C2 C -0.2808(4) 0.2802(2) 0.6431(2)
C3 C -0.2077(4) 0.2739(2) 0.7069(2)
H1 H -0.2280 0.2942 0.7440
C4 C -0.1044(4) 0.2377(2) 0.7167(2)
C5 C -0.0726(4) 0.2082(2) 0.6603(2)
C6 C -0.1442(4) 0.2150(2) 0.5957(2)
H2 H -0.1225 0.1956 0.5583
C7 C -0.3169(4) 0.2602(2) 0.5149(2)
C8 C -0.4011(4) 0.3122(2) 0.6376(2)
C9 C -0.0358(4) 0.2289(2) 0.7878(2)
C10 C 0.0449(4) 0.1734(2) 0.6658(2)
C11 C -0.1268(4) -0.0037(2) 0.5015(3)
C12 C -0.0780(5) 0.0465(2) 0.4764(3)
C13 C 0.0492(5) 0.0495(2) 0.4754(3)
H3 H 0.0821 0.0828 0.4590
C14 C -0.2611(4) -0.0098(2) 0.5082(3)
C15 C -0.1584(5) 0.0958(3) 0.4471(4)
C16 C 0.4632(4) 0.2089(2) 0.8915(2)
C17 C 0.4914(4) 0.2403(2) 0.8359(2)
C18 C 0.5917(4) 0.2780(2) 0.8453(2)
H4 H 0.6089 0.2995 0.8084
C19 C 0.6668(4) 0.2841(2) 0.9089(2)
C20 C 0.6389(4) 0.2529(2) 0.9653(2)
C21 C 0.5365(4) 0.2157(2) 0.9556(2)
H5 H 0.5172 0.1952 0.9928
C22 C 0.3495(5) 0.1712(2) 0.8882(2)
C23 C 0.4221(4) 0.2308(2) 0.7642(2)
C24 C 0.7873(4) 0.3170(2) 0.9142(2)
C25 C 0.7083(4) 0.2609(2) 1.0364(2)
O9B O 0.3300(4) 0.03949(19) 0.5377(2)
O10B O 0.2980(4) -0.01187(19) 0.4411(2)
O11B O 0.2741(3) -0.09020(18) 0.5590(2)
O12B O 0.1052(5) -0.1394(3) 0.5704(6)
C11B C 0.1268(4) 0.0037(2) 0.4985(3)
C12B C 0.0780(5) -0.0465(2) 0.5236(3)
C13B C -0.0492(5) -0.0495(2) 0.5246(3)
H3B H -0.0821 -0.0828 0.5410
C14B C 0.2611(4) 0.0098(2) 0.4918(3)
C15B C 0.1584(5) -0.0958(3) 0.5529(4)
Cu1B Cu -0.08994(5) -0.17742(3) 0.10005(3)
Cu2B Cu -0.30261(5) -0.17830(3) 0.34747(3)
Pr1B Pr 0.46065(2) -0.146151(10) 0.599806(12)
Pr2B Pr -0.85108(3) -0.145124(12) -0.147697(14)
O1B O 0.3538(3) -0.21738(18) 0.52087(18)
O2B O 0.3275(4) -0.31243(17) 0.50496(17)
O3B O 0.4945(3) -0.29128(17) 0.40131(17)
O4B O 0.4091(4) -0.35591(18) 0.3261(2)
O5B O 0.0271(4) -0.27101(17) 0.17187(18)
O6B O -0.0057(3) -0.17878(17) 0.19592(17)
O7B O -0.1439(3) -0.20242(16) 0.31994(17)
O8B O -0.0378(4) -0.12111(19) 0.3482(3)
O13B O -0.2473(3) -0.19603(17) 0.13188(18)
O14B O -0.3614(4) -0.1207(2) 0.0916(3)
O15B O -0.3856(3) -0.17996(17) 0.25179(17)
O16B O -0.4094(4) -0.27233(19) 0.27667(19)
O17B O -0.7951(4) -0.36132(18) 0.1214(2)
O18B O -0.8813(3) -0.29553(17) 0.04757(17)
O19B O -0.7398(4) -0.21654(18) -0.07177(19)
O20B O -0.7246(3) -0.31244(17) -0.05720(17)
O21B O 0.4765(4) -0.10304(17) 0.48122(19)
O22B O 0.5152(4) -0.03975(18) 0.6112(2)
O23B O 0.4802(5) -0.1095(2) 0.7219(2)
O24B O 0.2802(4) -0.18752(19) 0.6532(2)
O25B O -0.6605(5) -0.1778(2) -0.1968(3)
O26B O -0.8716(9) -0.1085(3) -0.2685(3)
O27B O -0.9189(8) -0.0400(3) -0.1620(3)
O28B O -0.6693(6) -0.0825(3) -0.1021(4)
O29B O -0.8915(6) -0.1048(2) -0.0370(3)
O30B O 0.0725(4) -0.18032(18) 0.06636(19)
O31B O -0.1057(9) -0.0814(3) 0.0907(4)
O32B O -0.2686(4) -0.0829(2) 0.3484(2)
O33B O -0.4706(3) -0.17821(17) 0.37833(19)
C1B C 0.2482(4) -0.2508(2) 0.4135(2)
C2B C 0.2808(4) -0.2802(2) 0.3569(2)
C3B C 0.2077(4) -0.2739(2) 0.2931(2)
H1B H 0.2280 -0.2942 0.2560
C4B C 0.1044(4) -0.2377(2) 0.2833(2)
C5B C 0.0726(4) -0.2082(2) 0.3397(2)
C6B C 0.1442(4) -0.2150(2) 0.4043(2)
H2B H 0.1225 -0.1956 0.4417
C7B C 0.3169(4) -0.2602(2) 0.4851(2)
C8B C 0.4011(4) -0.3122(2) 0.3624(2)
C9B C 0.0358(4) -0.2289(2) 0.2122(2)
C10B C -0.0449(4) -0.1734(2) 0.3342(2)
C16B C -0.4632(4) -0.2089(2) 0.1085(2)
C17B C -0.4914(4) -0.2403(2) 0.1641(2)
C18B C -0.5917(4) -0.2780(2) 0.1547(2)
H4B H -0.6089 -0.2995 0.1916
C19B C -0.6668(4) -0.2841(2) 0.0911(2)
C20B C -0.6389(4) -0.2529(2) 0.0347(2)
C21B C -0.5365(4) -0.2157(2) 0.0444(2)
H5B H -0.5172 -0.1952 0.0072
C22B C -0.3495(5) -0.1712(2) 0.1118(2)
C23B C -0.4221(4) -0.2308(2) 0.2358(2)
C24B C -0.7873(4) -0.3170(2) 0.0858(2)
C25B C -0.7083(4) -0.2609(2) -0.0364(2)
Cu1A Cu 0.41006(5) -0.32258(3) 0.60005(3)
Cu1C Cu -0.41006(5) 0.32258(3) 0.39995(3)
Cu2A Cu -0.80261(5) -0.32170(3) -0.15253(3)
Cu2C Cu 0.80261(5) 0.32170(3) 1.15253(3)
Pr1A Pr -1.03935(2) -0.353849(10) 0.099806(12)
Pr1A_2 Pr -0.03935(2) -0.353849(10) 0.099806(12)
Pr1C Pr 0.03935(2) 0.353849(10) 0.900194(12)
Pr1C_2 Pr 1.03935(2) 0.353849(10) 0.900194(12)
Pr2A Pr -0.35108(3) -0.354876(12) 0.352303(14)
Pr2A_2 Pr 0.64892(3) -0.354876(12) 0.352303(14)
Pr2C Pr -0.64892(3) 0.354876(12) 0.647697(14)
Pr2C_2 Pr 0.35108(3) 0.354876(12) 0.647697(14)
O2A O -0.1725(4) -0.18757(17) 0.00496(17)
O2C O 0.1725(4) 0.18757(17) 0.99504(17)
O3A O -1.0055(3) -0.20872(17) -0.09869(17)
O3C O 1.0055(3) 0.20872(17) 1.09869(17)
O4A O -1.0909(4) -0.14409(18) -0.1739(2)
O4C O 1.0909(4) 0.14409(18) 1.1739(2)
O5A O 0.5271(4) -0.22899(17) 0.67187(18)
O5C O -0.5271(4) 0.22899(17) 0.32813(18)
O16A O -0.9094(4) -0.22767(19) -0.22333(19)
O16C O 0.9094(4) 0.22767(19) 1.22333(19)
O17A O 0.7049(4) -0.13868(18) 0.6214(2)
O17C O -0.7049(4) 0.13868(18) 0.3786(2)
O18A O 0.6187(3) -0.20447(17) 0.54757(17)
O18C O -0.6187(3) 0.20447(17) 0.45243(17)
O20A O -0.2246(3) -0.18756(17) 0.44280(17)
O20C O 0.2246(3) 0.18756(17) 0.55720(17)
O34 O -0.1685(6) 0.0622(3) 0.6680(3)
O35 O -0.2584(7) 0.1263(4) 0.8574(4)
O36 O 0.6456(8) 0.1176(5) 0.7221(4)
O37 O 0.6059(10) 0.4356(4) 0.8073(5)
O38 O -0.7027(11) 0.0751(6) 0.1937(9)
O39 O 0.5849(13) 0.0632(7) 0.9297(14)
O40 O 0.4119(14) 0.1162(8) 1.0810(8)
loop_
_geom_bond_atom_site_label_1
_geom_bond_atom_site_label_2
_geom_bond_site_symmetry_1
_geom_bond_site_symmetry_2
Cu1 O5 1_555 1_555
Cu2 O7 1_555 1_555
Pr1 O1 1_555 1_555
Pr2 O19 1_555 1_555
O1 C7 1_555 1_555
O2 C7 1_555 1_555
O3 C8 1_555 1_555
O4 C8 1_555 1_555
O5 C9 1_555 1_555
O6 Cu1 1_555 1_555
O7 C10 1_555 1_555
O8 C10 1_555 1_555
O9 C14 1_555 1_555
O10 C14 1_555 1_555
O11 Pr1 1_555 1_555
O12 C15 1_555 1_555
O13 Cu1 1_555 1_555
O14 C22 1_555 1_555
O15 Cu2 1_555 1_555
O16 Cu2 1_555 1_555
O17 C24 1_555 1_555
O18 C24 1_555 1_555
O19 C25 1_555 1_555
O20 C25 1_555 1_555
O21 Pr1 1_555 1_555
O22 Pr1 1_555 1_555
O23 Pr1 1_555 1_555
O24 Pr1 1_555 1_555
O25 Pr2 1_555 1_555
O26 Pr2 1_555 1_555
O27 Pr2 1_555 1_555
O28 Pr2 1_555 1_555
O29 Pr2 1_555 1_555
O30 Cu1 1_555 1_555
O31 Cu1 1_555 1_555
O32 Cu2 1_555 1_555
O33 Cu2 1_555 1_555
C1 C2 1_555 1_555
C2 C3 1_555 1_555
C3 H1 1_555 1_555
C4 C3 1_555 1_555
C5 C4 1_555 1_555
C6 C1 1_555 1_555
H2 C6 1_555 1_555
C7 C1 1_555 1_555
C8 C2 1_555 1_555
C9 O6 1_555 1_555
C10 C5 1_555 1_555
C11 C12 1_555 1_555
C12 C13 1_555 1_555
C13 H3 1_555 1_555
C14 C11 1_555 1_555
C15 O11 1_555 1_555
C16 C17 1_555 1_555
C17 C18 1_555 1_555
C18 H4 1_555 1_555
C19 C18 1_555 1_555
C20 C19 1_555 1_555
C21 C16 1_555 1_555
H5 C21 1_555 1_555
C22 O13 1_555 1_555
C23 O15 1_555 1_555
C24 C19 1_555 1_555
C25 C20 1_555 1_555
O9B C14B 1_555 1_555
O10B C14B 1_555 1_555
O11B C15B 1_555 1_555
O12B C15B 1_555 1_555
C11B C13 1_555 1_555
C12B C11B 1_555 1_555
C13B C11 1_555 1_555
H3B C13B 1_555 1_555
C14B C11B 1_555 1_555
C15B C12B 1_555 1_555
Cu1B O5B 1_555 1_555
Cu2B O7B 1_555 1_555
Pr1B O11B 1_555 1_555
Pr2B O19B 1_555 1_555
O1B Pr1B 1_555 1_555
O2B C7B 1_555 1_555
O3B C8B 1_555 1_555
O4B C8B 1_555 1_555
O5B C9B 1_555 1_555
O6B Cu1B 1_555 1_555
O7B C10B 1_555 1_555
O8B C10B 1_555 1_555
O13B Cu1B 1_555 1_555
O14B C22B 1_555 1_555
O15B Cu2B 1_555 1_555
O16B Cu2B 1_555 1_555
O17B C24B 1_555 1_555
O18B C24B 1_555 1_555
O19B C25B 1_555 1_555
O20B C25B 1_555 1_555
O21B Pr1B 1_555 1_555
O22B Pr1B 1_555 1_555
O23B Pr1B 1_555 1_555
O24B Pr1B 1_555 1_555
O25B Pr2B 1_555 1_555
O26B Pr2B 1_555 1_555
O27B Pr2B 1_555 1_555
O28B Pr2B 1_555 1_555
O29B Pr2B 1_555 1_555
O30B Cu1B 1_555 1_555
O31B Cu1B 1_555 1_555
O32B Cu2B 1_555 1_555
O33B Cu2B 1_555 1_555
C1B C2B 1_555 1_555
C2B C3B 1_555 1_555
C3B H1B 1_555 1_555
C4B C3B 1_555 1_555
C5B C4B 1_555 1_555
C6B C1B 1_555 1_555
H2B C6B 1_555 1_555
C7B O1B 1_555 1_555
C8B C2B 1_555 1_555
C9B O6B 1_555 1_555
C10B C5B 1_555 1_555
C16B C17B 1_555 1_555
C17B C18B 1_555 1_555
C18B H4B 1_555 1_555
C19B C18B 1_555 1_555
C20B C19B 1_555 1_555
C21B C16B 1_555 1_555
H5B C21B 1_555 1_555
C22B O13B 1_555 1_555
C23B O15B 1_555 1_555
C24B C19B 1_555 1_555
C25B C20B 1_555 1_555
Cu1A O2B 1_555 1_555
Cu1C O2 1_555 1_555
Cu2A O20B 1_555 1_555
Cu2C O20 1_555 1_555
Pr1A O17B 1_555 1_555
Pr1A_2 O5B 1_555 1_555
Pr1C O5 1_555 1_555
Pr1C_2 O17 1_555 1_555
Pr2A O16B 1_555 1_555
Pr2A_2 O3B 1_555 1_555
Pr2C O3 1_555 1_555
Pr2C_2 O16 1_555 1_555
O2A Cu1B 1_555 1_555
O2C Cu1 1_555 1_555
O3A Pr2B 1_555 1_555
O3C Pr2 1_555 1_555
O4A Pr2B 1_555 1_555
O4C Pr2 1_555 1_555
O5A Pr1B 1_555 1_555
O5C Pr1 1_555 1_555
O16A Pr2B 1_555 1_555
O16C Pr2 1_555 1_555
O17A Pr1B 1_555 1_555
O17C Pr1 1_555 1_555
O18A Pr1B 1_555 1_555
O18C Pr1 1_555 1_555
O20A Cu2B 1_555 1_555
O20C Cu2 1_555 1_555
O4 Pr2C 1_555 1_555
O16 C23 1_555 1_555
O18 Pr1C_2 1_555 1_555
C4 C9 1_555 1_555
C5 C6 1_555 1_555
C12 C15 1_555 1_555
C16 C22 1_555 1_555
C17 C23 1_555 1_555
C20 C21 1_555 1_555
C12B C13B 1_555 1_555
O4B Pr2A_2 1_555 1_555
O16B C23B 1_555 1_555
O18B Pr1A 1_555 1_555
C1B C7B 1_555 1_555
C4B C9B 1_555 1_555
C5B C6B 1_555 1_555
C16B C22B 1_555 1_555
C17B C23B 1_555 1_555
C20B C21B 1_555 1_555
Cu1A O5A 1_555 1_555
Cu1C O5C 1_555 1_555
Cu2A O16A 1_555 1_555
Cu2C O16C 1_555 1_555

#END
