
#######################################################################
#
#                 Cambridge Crystallographic Data Centre
#                                CCDC 
#
#######################################################################
#
# If this CIF has been generated from an entry in the Cambridge 
# Structural Database, then it will include bibliographic, chemical, 
# crystal, experimental, refinement or atomic coordinate data resulting 
# from the CCDC's data processing and validation procedures.
#
#######################################################################

data_FALVUL01
_symmetry_cell_setting           monoclinic
_symmetry_space_group_name_H-M   'P 21/n'
_symmetry_Int_Tables_number      14
_space_group_name_Hall           '-P 2yn'
loop_
_symmetry_equiv_pos_site_id
_symmetry_equiv_pos_as_xyz
1 x,y,z
2 1/2-x,1/2+y,1/2-z
3 -x,-y,-z
4 1/2+x,1/2-y,1/2+z
_cell_length_a                   10.920(2)
_cell_length_b                   20.369(4)
_cell_length_c                   19.792(4)
_cell_angle_alpha                90
_cell_angle_beta                 99.59(3)
_cell_angle_gamma                90
_cell_volume                     4340.8
loop_
_atom_site_label
_atom_site_type_symbol
_atom_site_fract_x
_atom_site_fract_y
_atom_site_fract_z
Pr1 Pr -0.462756(17) 0.127530(9) 0.345159(10)
Pr2 Pr -0.660620(19) 0.373650(9) 0.581240(10)
Cu1 Cu -0.42145(4) 0.32662(2) 0.33025(2)
Cu2 Cu 0.29507(4) 0.17310(2) 0.58911(2)
C1 C -0.2559(3) 0.26067(19) 0.51998(17)
C2 C -0.2879(3) 0.29665(18) 0.57495(18)
C3 C -0.2139(3) 0.29288(19) 0.63881(18)
H1 H -0.2324 0.3185 0.6746
C4 C -0.1118(3) 0.25086(19) 0.64974(16)
C5 C -0.0798(3) 0.21468(19) 0.59537(18)
C6 C -0.1524(3) 0.2202(2) 0.53054(18)
H2 H -0.1312 0.1964 0.4941
C7 C -0.3266(3) 0.26787(18) 0.44879(18)
C8 C -0.4104(3) 0.33130(19) 0.56951(18)
C9 C -0.0445(3) 0.2414(2) 0.72115(17)
C10 C 0.0344(3) 0.17169(19) 0.60493(18)
C11 C -0.1270(3) -0.01263(18) 0.48738(19)
C12 C -0.0773(3) 0.03424(19) 0.44890(19)
C13 C -0.0494(3) -0.04653(19) 0.53858(19)
H3 H -0.0828 -0.0777 0.5647
C14 C -0.2622(3) -0.03017(18) 0.47661(19)
C15 C -0.1576(4) 0.0747(2) 0.3958(2)
C16 C -1.0442(3) 0.29263(19) 0.32613(17)
C17 C -1.0145(3) 0.25615(19) 0.27114(17)
C18 C -0.9121(3) 0.2140(2) 0.28210(18)
H4 H -0.8936 0.1886 0.2461
C19 C -0.8374(3) 0.20956(19) 0.34591(18)
C20 C -0.8671(3) 0.24696(19) 0.40045(17)
C21 C -0.9694(3) 0.28775(19) 0.39026(18)
H5 H -0.9887 0.3123 0.4267
C22 C -1.0835(3) 0.26581(19) 0.20004(18)
C23 C -0.7165(3) 0.17193(19) 0.35324(19)
C24 C -0.7982(3) 0.23996(19) 0.47244(17)
O1 O -0.3607(3) 0.21790(15) 0.41440(14)
O2 O -0.3430(3) 0.32583(14) 0.42641(13)
O3 O -0.5032(2) 0.30586(14) 0.53162(13)
O4 O -0.4211(3) 0.38131(15) 0.60519(17)
O5 O -0.0380(3) 0.28839(16) 0.76223(14)
O6 O -0.0019(3) 0.18529(15) 0.73615(13)
O7 O 0.1362(2) 0.20441(14) 0.61331(14)
O8 O 0.0245(3) 0.11220(16) 0.60178(18)
O9 O -0.3083(3) -0.06429(14) 0.42520(15)
O10 O -0.3236(3) -0.01061(16) 0.52169(15)
O11 O -0.2738(2) 0.07505(15) 0.39640(15)
O12 O -0.1070(3) 0.1073(2) 0.3543(2)
O13 O -1.2608(2) 0.30263(14) 0.30368(14)
O14 O -1.1514(3) 0.39138(16) 0.34093(19)
O15 O -1.1254(3) 0.32251(14) 0.18504(13)
O16 O -1.0924(3) 0.21885(15) 0.15864(14)
O17 O -0.7078(3) 0.11971(14) 0.32240(18)
O18 O -0.6228(2) 0.19950(14) 0.38895(14)
O19 O -0.7707(3) 0.29091(14) 0.50728(14)
O20 O -0.7782(3) 0.18231(13) 0.49350(13)
O21 O -0.4876(3) 0.08899(14) 0.46484(14)
O22 O -0.5009(4) 0.00282(16) 0.34465(18)
O23 O -0.4842(5) 0.0785(2) 0.2270(2)
O24 O -0.2869(3) 0.17131(14) 0.28436(14)
O25 O -0.8376(3) 0.33571(16) 0.64216(16)
O26 O -0.6166(5) 0.42060(19) 0.70146(19)
O27 O -0.6137(4) 0.49587(17) 0.57865(18)
O28 O -0.8548(3) 0.4378(2) 0.5382(2)
O29 O -0.6193(4) 0.41679(17) 0.46671(17)
O30 O -0.5898(3) 0.32753(15) 0.36130(15)
O31 O -0.4298(5) 0.43393(19) 0.3088(2)
O32 O 0.4666(3) 0.17776(14) 0.56217(15)
C25 C -1.1599(4) 0.33347(19) 0.32229(19)
Pr1C Pr -0.962756(17) 0.372470(9) -0.154841(10)
Pr1C_2 Pr 0.037244(17) 0.372470(9) 0.845159(10)
Pr1B Pr 0.462756(17) -0.127530(9) 0.654841(10)
Pr2C Pr -1.160620(19) 0.126350(9) 0.081240(10)
Pr2C_2 Pr -0.160620(19) 0.126350(9) 1.081240(10)
Cu1C Cu -0.92145(4) 0.17338(2) -0.16975(2)
Cu1C_2 Cu 0.07855(4) 0.17338(2) 0.83025(2)
Cu1_2 Cu -1.42145(4) 0.32662(2) 0.33025(2)
Cu1C_3 Cu -0.92145(4) 0.17338(2) 0.83025(2)
Cu2C Cu -0.20493(4) 0.32690(2) 0.08911(2)
Cu2B Cu -0.29507(4) -0.17310(2) 0.41089(2)
Cu2C_2 Cu -1.20493(4) 0.32690(2) 0.08911(2)
Cu2_2 Cu -0.70493(4) 0.17310(2) 0.58911(2)
Cu2C_3 Cu -0.20493(4) 0.32690(2) 1.08911(2)
C1C C -0.7559(3) 0.23933(19) 0.01998(17)
C2C C -0.7879(3) 0.20335(18) 0.07495(18)
C3C C -0.7139(3) 0.20712(19) 0.13881(18)
H1C H -0.7324 0.1815 0.1746
C4C C -0.6118(3) 0.24914(19) 0.14974(16)
C5C C -0.5798(3) 0.28532(19) 0.09537(18)
C6C C -0.6524(3) 0.2798(2) 0.03054(18)
H2C H -0.6312 0.3036 -0.0059
C7C C -0.8266(3) 0.23213(18) -0.05121(18)
C8C C -0.9104(3) 0.16870(19) 0.06951(18)
C9C C -0.5445(3) 0.2586(2) 0.22115(17)
C10C C -0.4656(3) 0.32831(19) 0.10493(18)
C11B C 0.1270(3) 0.01263(18) 0.51262(19)
C12B C 0.0773(3) -0.03424(19) 0.55110(19)
C13B C 0.0494(3) 0.04653(19) 0.46142(19)
H3B H 0.0828 0.0777 0.4353
C14B C 0.2622(3) 0.03017(18) 0.52339(19)
C15B C 0.1576(4) -0.0747(2) 0.6042(2)
C16C C -0.5442(3) 0.20737(19) 0.82613(17)
C17C C -0.5145(3) 0.24385(19) 0.77114(17)
C18C C -0.4121(3) 0.2860(2) 0.78210(18)
H4C H -0.3936 0.3114 0.7461
C19C C -0.3374(3) 0.29044(19) 0.84591(18)
C20C C -0.3671(3) 0.25304(19) 0.90045(17)
C21C C -0.4694(3) 0.21225(19) 0.89026(18)
H5C H -0.4887 0.1877 0.9267
C22C C -0.5835(3) 0.23419(19) 0.70004(18)
C23C C -0.2165(3) 0.32807(19) 0.85324(19)
C24C C -0.2982(3) 0.26004(19) 0.97244(17)
O1C O -0.8607(3) 0.28210(15) -0.08560(14)
O2C O -0.8430(3) 0.17417(14) -0.07359(13)
O3C O -1.0032(2) 0.19414(14) 0.03162(13)
O4C O -0.9211(3) 0.11869(15) 0.10519(17)
O5C O -0.5380(3) 0.21161(16) 0.26223(14)
O5_2 O -1.0380(3) 0.28839(16) -0.23777(14)
O6C O -0.5019(3) 0.31471(15) 0.23615(13)
O6_2 O -1.0019(3) 0.18529(15) -0.26385(13)
O7C O -0.3638(2) 0.29559(14) 0.11331(14)
O8C O -0.4755(3) 0.38780(16) 0.10178(18)
O9B O 0.3083(3) 0.06429(14) 0.57480(15)
O9A O -0.1917(3) 0.43571(14) 0.07480(15)
O10B O 0.3236(3) 0.01061(16) 0.47831(15)
O11B O 0.2738(2) -0.07505(15) 0.60360(15)
O11C O -0.7738(2) 0.42495(15) -0.10360(15)
O12B O 0.1070(3) -0.1073(2) 0.6457(2)
O13C O -0.7608(2) 0.19737(14) 0.80368(14)
O13_2 O -0.2608(2) 0.30263(14) 0.30368(14)
O13C_2 O -0.7608(2) 0.19737(14) -0.19632(14)
O14C O -0.6514(3) 0.10862(16) 0.84093(19)
O15C O -0.6254(3) 0.17749(14) 0.68504(13)
O15C_2 O 0.3746(3) 0.17749(14) 0.68504(13)
O15_2 O -0.1254(3) 0.32251(14) 0.18504(13)
O16C O -0.5924(3) 0.28115(15) 0.65864(14)
O17C O -0.2078(3) 0.38029(14) 0.82240(18)
O17C_2 O -1.2078(3) 0.38029(14) -0.17760(18)
O18C O -0.1228(2) 0.30050(14) 0.88895(14)
O18C_2 O -1.1228(2) 0.30050(14) -0.11105(14)
O19C O -0.2707(3) 0.20909(14) 1.00728(14)
O19C_2 O -1.2707(3) 0.20909(14) 0.00728(14)
O20C O -0.2782(3) 0.31769(13) 0.99350(13)
O20_2 O 0.2218(3) 0.18231(13) 0.49350(13)
O20C_2 O -0.2782(3) 0.31769(13) -0.00650(13)
O21C O -0.9876(3) 0.41101(14) -0.03516(14)
O22C O -1.0009(4) 0.49718(16) -0.15535(18)
O23C O -0.9842(5) 0.4215(2) -0.2730(2)
O24C O -0.7869(3) 0.32869(14) -0.21564(14)
O25C O -1.3376(3) 0.16429(16) 0.14216(16)
O26C O -1.1166(5) 0.07940(19) 0.20146(19)
O27C O -1.1137(4) 0.00413(17) 0.07865(18)
O28C O -1.3548(3) 0.0622(2) 0.0382(2)
O29C O -1.1193(4) 0.08321(17) -0.03329(17)
O30C O -1.0898(3) 0.17247(15) -0.13870(15)
O31C O -0.9298(5) 0.06607(19) -0.1912(2)
O32C O -0.0334(3) 0.32224(14) 0.06217(15)
C25C C -0.6599(4) 0.16653(19) 0.82229(19)
O33 O 0.7484(5) -0.0228(2) 0.9071(3)
O34 O 0.8093(5) 0.0610(2) 0.6317(2)
O35 O 0.6146(4) -0.0760(2) 1.0108(3)
O36 O 0.5596(5) 0.0440(3) 0.8171(4)
O37 O 0.1914(5) 0.0443(3) 0.7074(2)
O38 O 0.6504(18) 0.1251(8) 0.6789(15)
O39 O 0.8632(6) -0.0211(3) 0.7458(3)
O40 O 0.7318(10) 0.1215(7) 0.7669(8)
loop_
_geom_bond_atom_site_label_1
_geom_bond_atom_site_label_2
_geom_bond_site_symmetry_1
_geom_bond_site_symmetry_2
Pr1 O1 1_555 1_555
Pr2 O3 1_555 1_555
Cu1 O2 1_555 1_555
Cu2 O7 1_555 1_555
C1 C2 1_555 1_555
C2 C3 1_555 1_555
C3 H1 1_555 1_555
C4 C3 1_555 1_555
C5 C4 1_555 1_555
C6 C1 1_555 1_555
H2 C6 1_555 1_555
C7 C1 1_555 1_555
C8 C2 1_555 1_555
C9 C4 1_555 1_555
C10 C5 1_555 1_555
C11 C12 1_555 1_555
C12 C15 1_555 1_555
C13 C11 1_555 1_555
H3 C13 1_555 1_555
C14 C11 1_555 1_555
C15 O11 1_555 1_555
C16 C17 1_555 1_555
C17 C18 1_555 1_555
C18 H4 1_555 1_555
C19 C18 1_555 1_555
C20 C19 1_555 1_555
C21 C16 1_555 1_555
H5 C21 1_555 1_555
C22 C17 1_555 1_555
C23 C19 1_555 1_555
C24 C20 1_555 1_555
O1 C7 1_555 1_555
O2 C7 1_555 1_555
O3 C8 1_555 1_555
O4 Pr2 1_555 1_555
O5 C9 1_555 1_555
O6 C9 1_555 1_555
O7 C10 1_555 1_555
O8 C10 1_555 1_555
O9 C14 1_555 1_555
O10 C14 1_555 1_555
O11 Pr1 1_555 1_555
O12 C15 1_555 1_555
O13 C25 1_555 1_555
O14 C25 1_555 1_555
O15 C22 1_555 1_555
O16 C22 1_555 1_555
O17 Pr1 1_555 1_555
O18 Pr1 1_555 1_555
O19 Pr2 1_555 1_555
O20 C24 1_555 1_555
O21 Pr1 1_555 1_555
O22 Pr1 1_555 1_555
O23 Pr1 1_555 1_555
O24 Pr1 1_555 1_555
O25 Pr2 1_555 1_555
O26 Pr2 1_555 1_555
O27 Pr2 1_555 1_555
O28 Pr2 1_555 1_555
O29 Pr2 1_555 1_555
O30 Cu1 1_555 1_555
O31 Cu1 1_555 1_555
O32 Cu2 1_555 1_555
C25 C16 1_555 1_555
Pr1C O1C 1_555 1_555
Pr1C_2 O5 1_555 1_555
Pr1B O11B 1_555 1_555
Pr2C O16 1_555 1_555
Pr2C_2 O19C 1_555 1_555
Cu1C O2C 1_555 1_555
Cu1C_2 O6 1_555 1_555
Cu1_2 O13 1_555 1_555
Cu1C_3 O13C 1_555 1_555
Cu2C O7C 1_555 1_555
Cu2B O9 1_555 1_555
Cu2C_2 O15 1_555 1_555
Cu2_2 O20 1_555 1_555
Cu2C_3 O20C 1_555 1_555
C1C C2C 1_555 1_555
C2C C3C 1_555 1_555
C3C H1C 1_555 1_555
C4C C3C 1_555 1_555
C5C C4C 1_555 1_555
C6C C1C 1_555 1_555
H2C C6C 1_555 1_555
C7C C1C 1_555 1_555
C8C C2C 1_555 1_555
C9C C4C 1_555 1_555
C10C C5C 1_555 1_555
C11B C12B 1_555 1_555
C12B C13 1_555 1_555
C13B C12 1_555 1_555
H3B C13B 1_555 1_555
C14B C11B 1_555 1_555
C15B C12B 1_555 1_555
C16C C17C 1_555 1_555
C17C C18C 1_555 1_555
C18C H4C 1_555 1_555
C19C C18C 1_555 1_555
C20C C19C 1_555 1_555
C21C C16C 1_555 1_555
H5C C21C 1_555 1_555
C22C C17C 1_555 1_555
C23C C19C 1_555 1_555
C24C C20C 1_555 1_555
O1C C7C 1_555 1_555
O2C C7C 1_555 1_555
O3C Pr2C 1_555 1_555
O4C Pr2C 1_555 1_555
O5C Pr1 1_555 1_555
O5_2 Pr1C 1_555 1_555
O6C Cu1 1_555 1_555
O6_2 Cu1C 1_555 1_555
O7C C10C 1_555 1_555
O8C C10C 1_555 1_555
O9B Cu2 1_555 1_555
O9A Cu2C 1_555 1_555
O10B C14B 1_555 1_555
O11B C15B 1_555 1_555
O11C Pr1C 1_555 1_555
O12B C15B 1_555 1_555
O13C C25C 1_555 1_555
O13_2 Cu1 1_555 1_555
O13C_2 Cu1C 1_555 1_555
O14C C25C 1_555 1_555
O15C Cu2_2 1_555 1_555
O15C_2 Cu2 1_555 1_555
O15_2 Cu2C 1_555 1_555
O16C Pr2 1_555 1_555
O17C Pr1C_2 1_555 1_555
O17C_2 Pr1C 1_555 1_555
O18C Pr1C_2 1_555 1_555
O18C_2 Pr1C 1_555 1_555
O19C C24C 1_555 1_555
O19C_2 Pr2C 1_555 1_555
O20C C24C 1_555 1_555
O20_2 Cu2 1_555 1_555
O20C_2 Cu2C 1_555 1_555
O21C Pr1C 1_555 1_555
O22C Pr1C 1_555 1_555
O23C Pr1C 1_555 1_555
O24C Pr1C 1_555 1_555
O25C Pr2C 1_555 1_555
O26C Pr2C 1_555 1_555
O27C Pr2C 1_555 1_555
O28C Pr2C 1_555 1_555
O29C Pr2C 1_555 1_555
O30C Cu1C 1_555 1_555
O31C Cu1C 1_555 1_555
O32C Cu2C 1_555 1_555
C25C C16C 1_555 1_555
C5 C6 1_555 1_555
C8 O4 1_555 1_555
C20 C21 1_555 1_555
C23 O17 1_555 1_555
C23 O18 1_555 1_555
C24 O19 1_555 1_555
C5C C6C 1_555 1_555
C8C O3C 1_555 1_555
C8C O4C 1_555 1_555
C9C O5C 1_555 1_555
C9C O6C 1_555 1_555
C11B C13B 1_555 1_555
C14B O9B 1_555 1_555
C20C C21C 1_555 1_555
C22C O15C 1_555 1_555
C22C O16C 1_555 1_555
C23C O17C 1_555 1_555
C23C O18C 1_555 1_555

#END
