
#######################################################################
#
#                 Cambridge Crystallographic Data Centre
#                                CCDC 
#
#######################################################################
#
# If this CIF has been generated from an entry in the Cambridge 
# Structural Database, then it will include bibliographic, chemical, 
# crystal, experimental, refinement or atomic coordinate data resulting 
# from the CCDC's data processing and validation procedures.
#
#######################################################################

data_FALVEV
_symmetry_cell_setting           orthorhombic
_symmetry_space_group_name_H-M   'P b c a'
_symmetry_Int_Tables_number      61
_space_group_name_Hall           '-P 2ac 2ab'
loop_
_symmetry_equiv_pos_site_id
_symmetry_equiv_pos_as_xyz
1 x,y,z
2 1/2-x,-y,1/2+z
3 1/2+x,1/2-y,-z
4 -x,1/2+y,1/2-z
5 -x,-y,-z
6 1/2+x,y,1/2-z
7 1/2-x,1/2+y,z
8 x,1/2-y,1/2+z
_cell_length_a                   17.731(4)
_cell_length_b                   15.981(3)
_cell_length_c                   28.505(6)
_cell_angle_alpha                90
_cell_angle_beta                 90
_cell_angle_gamma                90
_cell_volume                     8077.15
loop_
_atom_site_label
_atom_site_type_symbol
_atom_site_fract_x
_atom_site_fract_y
_atom_site_fract_z
Cu1 Cu 0.251098(14) 0.247347(17) 0.499936(9)
Sr1 Sr 0.0000 0.0000 0.5000
N1 N 0.20746(11) 0.16571(12) 0.45644(7)
N2 N -0.20039(11) 0.17858(12) 0.45450(7)
O1 O 0.17325(10) 0.20829(11) 0.54314(6)
O2 O 0.07978(10) 0.11430(11) 0.54566(6)
O3 O 0.10218(10) 0.07983(11) 0.45349(6)
O4 O -0.17814(10) 0.20376(11) 0.54421(6)
O5 O -0.08415(10) 0.11034(11) 0.54623(6)
O6 O -0.09958(10) 0.08580(11) 0.45191(6)
C1 C 0.13064(13) 0.15176(15) 0.52527(8)
C2 C 0.14578(13) 0.12928(14) 0.47365(8)
C3 C 0.22919(12) 0.14094(14) 0.41029(8)
C4 C 0.26568(13) 0.06361(15) 0.40411(9)
C5 C 0.28357(14) 0.03759(17) 0.35869(9)
H1 H 0.3082 -0.0132 0.3543
C6 C 0.26526(15) 0.08605(18) 0.32034(9)
H2 H 0.2767 0.0676 0.2902
C7 C 0.22967(15) 0.16247(18) 0.32690(9)
H3 H 0.2170 0.1948 0.3009
C8 C 0.21246(13) 0.19173(16) 0.37181(9)
C9 C 0.28324(17) 0.00893(17) 0.44547(11)
H4 H 0.2674 0.0364 0.4738
H5 H 0.3366 -0.0013 0.4468
H6 H 0.2570 -0.0433 0.4424
C10 C 0.17432(17) 0.27466(17) 0.37864(10)
H7 H 0.1671 0.3011 0.3487
H8 H 0.2052 0.3097 0.3982
H9 H 0.1263 0.2662 0.3934
C11 C -0.13355(13) 0.14977(15) 0.52538(8)
C12 C -0.14323(13) 0.13505(14) 0.47232(8)
C13 C -0.22145(13) 0.16639(15) 0.40675(8)
C14 C -0.21063(15) 0.23048(16) 0.37407(9)
C15 C -0.23445(17) 0.21792(19) 0.32791(9)
H10 H -0.2277 0.2603 0.3059
C16 C -0.26784(17) 0.1436(2) 0.31435(9)
H11 H -0.2835 0.1362 0.2835
C17 C -0.27785(15) 0.08083(18) 0.34658(10)
H12 H -0.2995 0.0305 0.3372
C18 C -0.25604(14) 0.09136(16) 0.39332(9)
C19 C -0.17307(19) 0.31042(18) 0.38887(11)
H13 H -0.1702 0.3478 0.3626
H14 H -0.1231 0.2985 0.4000
H15 H -0.2018 0.3361 0.4135
C20 C -0.27078(18) 0.02367(18) 0.42866(11)
H16 H -0.2947 -0.0229 0.4135
H17 H -0.3032 0.0448 0.4529
H18 H -0.2239 0.0058 0.4422
Cu1D Cu -0.251098(14) -0.247347(17) 0.500064(9)
Cu1B Cu -0.248902(14) 0.252653(17) 0.500064(9)
Cu1F Cu 0.248902(14) -0.252653(17) 0.499936(9)
N1D N -0.20746(11) -0.16571(12) 0.54356(7)
N2D N 0.20039(11) -0.17858(12) 0.54550(7)
N2B N 0.29961(11) 0.32142(12) 0.54550(7)
N2F N -0.29961(11) -0.32142(12) 0.45450(7)
O1D O -0.17325(10) -0.20829(11) 0.45686(6)
O2D O -0.07978(10) -0.11430(11) 0.45434(6)
O3D O -0.10218(10) -0.07983(11) 0.54651(6)
O4D O 0.17814(10) -0.20376(11) 0.45579(6)
O4B O 0.32186(10) 0.29624(11) 0.45579(6)
O4F O -0.32186(10) -0.29624(11) 0.54421(6)
O5D O 0.08415(10) -0.11034(11) 0.45377(6)
O6D O 0.09958(10) -0.08580(11) 0.54809(6)
C1D C -0.13064(13) -0.15176(15) 0.47473(8)
C2D C -0.14578(13) -0.12928(14) 0.52635(8)
C3D C -0.22919(12) -0.14094(14) 0.58971(8)
C4D C -0.26568(13) -0.06361(15) 0.59589(9)
C5D C -0.28357(14) -0.03759(17) 0.64131(9)
H1D H -0.3082 0.0132 0.6457
C6D C -0.26526(15) -0.08605(18) 0.67966(9)
H2D H -0.2767 -0.0676 0.7098
C7D C -0.22967(15) -0.16247(18) 0.67310(9)
H3D H -0.2170 -0.1948 0.6991
C8D C -0.21246(13) -0.19173(16) 0.62819(9)
C9D C -0.28324(17) -0.00893(17) 0.55453(11)
H4D H -0.2674 -0.0364 0.5262
H5D H -0.3366 0.0013 0.5532
H6D H -0.2570 0.0433 0.5576
C10D C -0.17432(17) -0.27466(17) 0.62136(10)
H7D H -0.1671 -0.3011 0.6513
H8D H -0.2052 -0.3097 0.6018
H9D H -0.1263 -0.2662 0.6066
C11D C 0.13355(13) -0.14977(15) 0.47462(8)
C12D C 0.14323(13) -0.13505(14) 0.52768(8)
C13D C 0.22145(13) -0.16639(15) 0.59325(8)
C14D C 0.21063(15) -0.23048(16) 0.62593(9)
C15D C 0.23445(17) -0.21792(19) 0.67209(9)
H10D H 0.2277 -0.2603 0.6941
C16D C 0.26784(17) -0.1436(2) 0.68565(9)
H11D H 0.2835 -0.1362 0.7165
C17D C 0.27785(15) -0.08083(18) 0.65342(10)
H12D H 0.2995 -0.0305 0.6628
C18D C 0.25604(14) -0.09136(16) 0.60668(9)
C19D C 0.17307(19) -0.31042(18) 0.61113(11)
H13D H 0.1702 -0.3478 0.6374
H14D H 0.1231 -0.2985 0.6000
H15D H 0.2018 -0.3361 0.5865
C20D C 0.27078(18) -0.02367(18) 0.57134(11)
H16D H 0.2947 0.0229 0.5865
H17D H 0.3032 -0.0448 0.5471
H18D H 0.2239 -0.0058 0.5578
N3 N 0.00638(11) 0.71270(14) 0.35866(8)
C21 C -0.03203(15) 0.63417(16) 0.34167(10)
H19 H -0.0521 0.6445 0.3105
H20 H -0.0744 0.6224 0.3622
C22 C 0.01810(16) 0.55696(17) 0.33964(10)
H21 H 0.0503 0.5598 0.3122
H22 H 0.0501 0.5551 0.3672
C23 C -0.02984(17) 0.47851(18) 0.33743(12)
H23 H -0.0633 0.4820 0.3106
H24 H -0.0608 0.4753 0.3654
C24 C 0.01751(19) 0.39928(19) 0.33352(12)
H25 H -0.0151 0.3514 0.3323
H26 H 0.0500 0.3949 0.3603
H27 H 0.0475 0.4016 0.3055
C25 C 0.03923(14) 0.70146(17) 0.40752(9)
H28 H 0.0540 0.7559 0.4195
H29 H 0.0845 0.6676 0.4051
C26 C -0.01379(16) 0.66073(17) 0.44278(9)
H30 H -0.0624 0.6884 0.4419
H31 H -0.0212 0.6024 0.4346
C27 C 0.0192(2) 0.6670(2) 0.49194(11)
H32 H 0.0240 0.7255 0.5005
H33 H 0.0693 0.6425 0.4921
C28 C -0.0298(2) 0.6225(3) 0.52796(12)
H34 H -0.0073 0.6275 0.5584
H35 H -0.0342 0.5644 0.5198
H36 H -0.0791 0.6476 0.5284
C29 C -0.05200(15) 0.78283(16) 0.36129(9)
H37 H -0.0962 0.7616 0.3775
H38 H -0.0313 0.8277 0.3802
C30 C -0.07705(16) 0.81927(18) 0.31460(9)
H39 H -0.0999 0.7759 0.2955
H40 H -0.0338 0.8412 0.2978
C31 C -0.13403(17) 0.88926(18) 0.32338(10)
H41 H -0.1780 0.8664 0.3390
H42 H -0.1117 0.9308 0.3439
C32 C -0.1583(2) 0.9309(2) 0.27787(13)
H43 H -0.1940 0.9745 0.2846
H44 H -0.1812 0.8901 0.2577
H45 H -0.1150 0.9545 0.2626
C33 C 0.07036(15) 0.73508(17) 0.32532(9)
H46 H 0.0499 0.7412 0.2940
H47 H 0.1060 0.6890 0.3246
C34 C 0.11284(17) 0.81528(18) 0.33815(11)
H48 H 0.1420 0.8055 0.3664
H49 H 0.0766 0.8592 0.3449
C35 C 0.16590(19) 0.8449(2) 0.29900(11)
H50 H 0.1978 0.8892 0.3112
H51 H 0.1984 0.7988 0.2900
C36 C 0.1260(2) 0.8767(2) 0.25599(12)
H52 H 0.1624 0.8975 0.2340
H53 H 0.0922 0.9210 0.2647
H54 H 0.0979 0.8319 0.2419
O7 O 0.0403(3) 0.1246(3) 0.26727(11)
S1 S 0.03947(5) 0.13837(6) 0.31742(3)
C37 C 0.0619(2) 0.0419(2) 0.34497(14)
H55 H 0.0600 0.0486 0.3784
H56 H 0.1117 0.0248 0.3359
H57 H 0.0262 0.0000 0.3355
C38 C -0.0558(3) 0.1404(3) 0.3334(2)
H58 H -0.0664 0.1912 0.3501
H59 H -0.0667 0.0933 0.3532
H60 H -0.0865 0.1377 0.3057
loop_
_geom_bond_atom_site_label_1
_geom_bond_atom_site_label_2
_geom_bond_site_symmetry_1
_geom_bond_site_symmetry_2
Cu1 N1 1_555 1_555
Sr1 O2 1_555 1_555
N1 C2 1_555 1_555
N2 C12 1_555 1_555
N3 C21 1_555 1_555
O1 Cu1 1_555 1_555
O2 C1 1_555 1_555
O3 Sr1 1_555 1_555
O4 C11 1_555 1_555
O5 Sr1 1_555 1_555
O6 Sr1 1_555 1_555
O7 S1 1_555 1_555
S1 C37 1_555 1_555
C1 O1 1_555 1_555
C2 O3 1_555 1_555
C3 N1 1_555 1_555
C4 C3 1_555 1_555
C5 C4 1_555 1_555
H1 C5 1_555 1_555
C6 C5 1_555 1_555
H2 C6 1_555 1_555
C7 C6 1_555 1_555
H3 C7 1_555 1_555
C8 C3 1_555 1_555
C9 C4 1_555 1_555
H4 C9 1_555 1_555
H5 C9 1_555 1_555
H6 C9 1_555 1_555
C10 C8 1_555 1_555
H7 C10 1_555 1_555
H8 C10 1_555 1_555
H9 C10 1_555 1_555
C11 O5 1_555 1_555
C12 O6 1_555 1_555
C13 N2 1_555 1_555
C14 C13 1_555 1_555
C15 C14 1_555 1_555
H10 C15 1_555 1_555
C16 C15 1_555 1_555
H11 C16 1_555 1_555
C17 C16 1_555 1_555
H12 C17 1_555 1_555
C18 C13 1_555 1_555
C19 C14 1_555 1_555
H13 C19 1_555 1_555
H14 C19 1_555 1_555
H15 C19 1_555 1_555
C20 C18 1_555 1_555
H16 C20 1_555 1_555
H17 C20 1_555 1_555
H18 C20 1_555 1_555
C21 H19 1_555 1_555
H20 C21 1_555 1_555
C22 C21 1_555 1_555
H21 C22 1_555 1_555
H22 C22 1_555 1_555
C23 C22 1_555 1_555
H23 C23 1_555 1_555
H24 C23 1_555 1_555
C24 C23 1_555 1_555
H25 C24 1_555 1_555
H26 C24 1_555 1_555
H27 C24 1_555 1_555
C25 N3 1_555 1_555
H28 C25 1_555 1_555
H29 C25 1_555 1_555
C26 C25 1_555 1_555
H30 C26 1_555 1_555
H31 C26 1_555 1_555
C27 C26 1_555 1_555
H32 C27 1_555 1_555
H33 C27 1_555 1_555
C28 C27 1_555 1_555
H34 C28 1_555 1_555
H35 C28 1_555 1_555
H36 C28 1_555 1_555
C29 N3 1_555 1_555
H37 C29 1_555 1_555
H38 C29 1_555 1_555
C30 C29 1_555 1_555
H39 C30 1_555 1_555
H40 C30 1_555 1_555
C31 C30 1_555 1_555
H41 C31 1_555 1_555
H42 C31 1_555 1_555
C32 C31 1_555 1_555
H43 C32 1_555 1_555
H44 C32 1_555 1_555
H45 C32 1_555 1_555
C33 N3 1_555 1_555
H46 C33 1_555 1_555
H47 C33 1_555 1_555
C34 C33 1_555 1_555
H48 C34 1_555 1_555
H49 C34 1_555 1_555
C35 C34 1_555 1_555
H50 C35 1_555 1_555
H51 C35 1_555 1_555
C36 C35 1_555 1_555
H52 C36 1_555 1_555
H53 C36 1_555 1_555
H54 C36 1_555 1_555
C37 H55 1_555 1_555
H56 C37 1_555 1_555
H57 C37 1_555 1_555
C38 S1 1_555 1_555
H58 C38 1_555 1_555
H59 C38 1_555 1_555
H60 C38 1_555 1_555
Cu1D N1D 1_555 1_555
Cu1B N2 1_555 1_555
Cu1F N2D 1_555 1_555
N1D C2D 1_555 1_555
N2D C12D 1_555 1_555
N2B Cu1 1_555 1_555
N2F Cu1D 1_555 1_555
O1D Cu1D 1_555 1_555
O2D Sr1 1_555 1_555
O3D Sr1 1_555 1_555
O4D Cu1F 1_555 1_555
O4B Cu1 1_555 1_555
O4F Cu1D 1_555 1_555
O5D Sr1 1_555 1_555
O6D Sr1 1_555 1_555
C1D O1D 1_555 1_555
C2D O3D 1_555 1_555
C3D N1D 1_555 1_555
C4D C3D 1_555 1_555
C5D C4D 1_555 1_555
H1D C5D 1_555 1_555
C6D C5D 1_555 1_555
H2D C6D 1_555 1_555
C7D C6D 1_555 1_555
H3D C7D 1_555 1_555
C8D C3D 1_555 1_555
C9D C4D 1_555 1_555
H4D C9D 1_555 1_555
H5D C9D 1_555 1_555
H6D C9D 1_555 1_555
C10D C8D 1_555 1_555
H7D C10D 1_555 1_555
H8D C10D 1_555 1_555
H9D C10D 1_555 1_555
C11D O4D 1_555 1_555
C12D O6D 1_555 1_555
C13D N2D 1_555 1_555
C14D C13D 1_555 1_555
C15D C14D 1_555 1_555
H10D C15D 1_555 1_555
C16D C15D 1_555 1_555
H11D C16D 1_555 1_555
C17D C16D 1_555 1_555
H12D C17D 1_555 1_555
C18D C13D 1_555 1_555
C19D C14D 1_555 1_555
H13D C19D 1_555 1_555
H14D C19D 1_555 1_555
H15D C19D 1_555 1_555
C20D C18D 1_555 1_555
H16D C20D 1_555 1_555
H17D C20D 1_555 1_555
H18D C20D 1_555 1_555
O4 Cu1B 1_555 1_555
C1 C2 1_555 1_555
C7 C8 1_555 1_555
C11 C12 1_555 1_555
C17 C18 1_555 1_555
O2D C1D 1_555 1_555
O5D C11D 1_555 1_555
C1D C2D 1_555 1_555
C7D C8D 1_555 1_555
C11D C12D 1_555 1_555
C17D C18D 1_555 1_555

#END
