
#######################################################################
#
#                 Cambridge Crystallographic Data Centre
#                                CCDC 
#
#######################################################################
#
# If this CIF has been generated from an entry in the Cambridge 
# Structural Database, then it will include bibliographic, chemical, 
# crystal, experimental, refinement or atomic coordinate data resulting 
# from the CCDC's data processing and validation procedures.
#
#######################################################################

data_FALXUN
_symmetry_cell_setting           monoclinic
_symmetry_space_group_name_H-M   'P 2/c'
_symmetry_Int_Tables_number      13
_space_group_name_Hall           '-P 2yc'
loop_
_symmetry_equiv_pos_site_id
_symmetry_equiv_pos_as_xyz
1 x,y,z
2 -x,y,1/2-z
3 -x,-y,-z
4 x,-y,1/2+z
_cell_length_a                   29.5578(14)
_cell_length_b                   10.5995(6)
_cell_length_c                   7.5118(4)
_cell_angle_alpha                90
_cell_angle_beta                 91.337(4)
_cell_angle_gamma                90
_cell_volume                     2352.79
loop_
_atom_site_label
_atom_site_type_symbol
_atom_site_fract_x
_atom_site_fract_y
_atom_site_fract_z
C1 C 0.1765(3) 0.4744(10) 0.3735(14)
H1 H 0.2006 0.4206 0.3514
C2 C 0.1344(3) 0.4212(9) 0.4032(14)
H2 H 0.1310 0.3340 0.4035
C3 C 0.0982(3) 0.4965(9) 0.4316(11)
C4 C 0.1056(3) 0.6202(10) 0.4257(14)
H3 H 0.0814 0.6748 0.4410
C5 C 0.1487(3) 0.6712(11) 0.3973(16)
H4 H 0.1525 0.7583 0.3939
C6 C 0.0519(3) 0.4430(9) 0.4642(12)
C7 C 0.0449(4) 0.3017(12) 0.459(2)
H5 H 0.0138 0.2827 0.4829
H6 H 0.0641 0.2624 0.5474
H7 H 0.0522 0.2703 0.3433
C8 C 0.3337(3) 0.9522(9) 0.2549(11)
H8 H 0.3088 0.9939 0.3001
C9 C 0.3703(3) 1.0243(9) 0.2020(11)
H9 H 0.3695 1.1117 0.2111
C10 C 0.4076(3) 0.9650(8) 0.1361(10)
C11 C 0.4061(3) 0.8320(9) 0.1245(14)
H10 H 0.4307 0.7879 0.0808
C12 C 0.3691(3) 0.7686(10) 0.1766(17)
H11 H 0.3686 0.6812 0.1660
C13 C 0.4489(3) 1.0339(8) 0.0780(10)
C14 C 0.4482(3) 1.1792(9) 0.0926(16)
H12 H 0.4463 1.2032 0.2154
H13 H 0.4225 1.2118 0.0270
H14 H 0.4755 1.2130 0.0443
N1 N 0.1842(2) 0.5960(8) 0.3751(11)
N2 N 0.3323(3) 0.8286(8) 0.2448(11)
N3 N 0.0221(3) 0.5275(9) 0.4855(12)
N4 N 0.4809(2) 0.9676(6) 0.0270(9)
N5 N 0.2349(3) 0.8302(9) 0.0317(10)
N6 N 0.3146(3) 0.5855(7) 0.7166(11)
O1 O 0.2243(2) 0.8541(6) 0.1878(7)
O2 O 0.2263(4) 0.9069(9) -0.0851(10)
O3 O 0.2525(3) 0.7293(8) -0.0013(9)
O4 O 0.2760(2) 0.5493(6) 0.6704(8)
O5 O 0.3365(3) 0.5236(7) 0.8332(10)
O6 O 0.3319(3) 0.6766(7) 0.6407(10)
Pb1 Pb 0.267990(11) 0.67515(3) 0.36189(4)
O7 O 0.2384(3) 0.8428(6) 0.5614(8)
H15 H 0.2289(8) 0.8263(16) 0.6635(17)
H16 H 0.2217(7) 0.8983(15) 0.518(2)
C1B C -0.1765(3) 0.5256(10) 0.6265(14)
H1B H -0.2006 0.5794 0.6486
C2B C -0.1344(3) 0.5788(9) 0.5968(14)
H2B H -0.1310 0.6660 0.5965
C3B C -0.0982(3) 0.5035(9) 0.5684(11)
C4B C -0.1056(3) 0.3798(10) 0.5743(14)
H3B H -0.0814 0.3252 0.5590
C5B C -0.1487(3) 0.3288(11) 0.6027(16)
H4B H -0.1525 0.2417 0.6061
C6B C -0.0519(3) 0.5570(9) 0.5358(12)
C7B C -0.0449(4) 0.6983(12) 0.541(2)
H5B H -0.0138 0.7173 0.5171
H6B H -0.0641 0.7376 0.4526
H7B H -0.0522 0.7297 0.6567
C8B C 0.6663(3) 1.0478(9) -0.2549(11)
H8B H 0.6912 1.0061 -0.3001
C9B C 0.6297(3) 0.9757(9) -0.2020(11)
H9B H 0.6305 0.8883 -0.2111
C10B C 0.5924(3) 1.0350(8) -0.1361(10)
C11B C 0.5939(3) 1.1680(9) -0.1245(14)
H10B H 0.5693 1.2121 -0.0808
C12B C 0.6309(3) 1.2314(10) -0.1766(17)
H11B H 0.6314 1.3188 -0.1660
C13B C 0.5511(3) 0.9661(8) -0.0780(10)
C14B C 0.5518(3) 0.8208(9) -0.0926(16)
H12B H 0.5537 0.7968 -0.2154
H13B H 0.5775 0.7882 -0.0270
H14B H 0.5245 0.7870 -0.0443
N1B N -0.1842(2) 0.4040(8) 0.6249(11)
N2B N 0.6677(3) 1.1714(8) -0.2448(11)
N2B_2 N -0.3323(3) 0.1714(8) 0.7552(11)
N3B N -0.0221(3) 0.4725(9) 0.5145(12)
N4B N 0.5191(2) 1.0324(6) -0.0270(9)
N5B N -0.2349(3) 0.1698(9) 0.9683(10)
N6C N 0.3146(3) 0.4145(7) 0.2166(11)
O1B O -0.2243(2) 0.1459(6) 0.8122(7)
O2B O -0.2263(4) 0.0931(9) 1.0851(10)
O3B O -0.2525(3) 0.2707(8) 1.0013(9)
O4C O 0.2760(2) 0.4507(6) 0.1704(8)
O4B O -0.2760(2) 0.4507(6) 0.3296(8)
O4A O -0.2760(2) 0.5493(6) 0.8296(8)
O5C O 0.3365(3) 0.4764(7) 0.3332(10)
O6C O 0.3319(3) 0.3234(7) 0.1407(10)
O6B O -0.3319(3) 0.3234(7) 0.3593(10)
Pb1B Pb -0.267990(11) 0.32485(3) 0.63811(4)
Pb1C Pb 0.267990(11) 0.32485(3) 0.86189(4)
Pb1B_2 Pb 0.732010(11) 1.32485(3) -0.36189(4)
Pb1C_2 Pb 0.267990(11) 0.32485(3) -0.13811(4)
O7B O -0.2384(3) 0.1572(6) 0.4386(8)
H15B H -0.2289(8) 0.1737(16) 0.3365(17)
H16B H -0.2217(7) 0.1017(15) 0.482(2)
loop_
_geom_bond_atom_site_label_1
_geom_bond_atom_site_label_2
_geom_bond_site_symmetry_1
_geom_bond_site_symmetry_2
C1 H1 1_555 1_555
C2 C1 1_555 1_555
H2 C2 1_555 1_555
C3 C2 1_555 1_555
C4 C3 1_555 1_555
H3 C4 1_555 1_555
C5 C4 1_555 1_555
H4 C5 1_555 1_555
C6 C3 1_555 1_555
C7 C6 1_555 1_555
H5 C7 1_555 1_555
H6 C7 1_555 1_555
H7 C7 1_555 1_555
C8 H8 1_555 1_555
C9 C8 1_555 1_555
H9 C9 1_555 1_555
C10 C9 1_555 1_555
C11 C10 1_555 1_555
H10 C11 1_555 1_555
C12 C11 1_555 1_555
H11 C12 1_555 1_555
C13 C10 1_555 1_555
C14 C13 1_555 1_555
H12 C14 1_555 1_555
H13 C14 1_555 1_555
H14 C14 1_555 1_555
N1 C1 1_555 1_555
N2 C8 1_555 1_555
N3 C6 1_555 1_555
N4 C13 1_555 1_555
N5 O1 1_555 1_555
N6 O4 1_555 1_555
O1 Pb1 1_555 1_555
O2 N5 1_555 1_555
O3 N5 1_555 1_555
O4 Pb1 1_555 1_555
O5 N6 1_555 1_555
O6 N6 1_555 1_555
Pb1 N1 1_555 1_555
O7 Pb1 1_555 1_555
H15 O7 1_555 1_555
H16 O7 1_555 1_555
C1B H1B 1_555 1_555
C2B C1B 1_555 1_555
H2B C2B 1_555 1_555
C3B C2B 1_555 1_555
C4B C3B 1_555 1_555
H3B C4B 1_555 1_555
C5B C4B 1_555 1_555
H4B C5B 1_555 1_555
C6B C3B 1_555 1_555
C7B C6B 1_555 1_555
H5B C7B 1_555 1_555
H6B C7B 1_555 1_555
H7B C7B 1_555 1_555
C8B H8B 1_555 1_555
C9B C8B 1_555 1_555
H9B C9B 1_555 1_555
C10B C9B 1_555 1_555
C11B C10B 1_555 1_555
H10B C11B 1_555 1_555
C12B C11B 1_555 1_555
H11B C12B 1_555 1_555
C13B C10B 1_555 1_555
C14B C13B 1_555 1_555
H12B C14B 1_555 1_555
H13B C14B 1_555 1_555
H14B C14B 1_555 1_555
N1B C1B 1_555 1_555
N2B C8B 1_555 1_555
N2B_2 Pb1B 1_555 1_555
N3B N3 1_555 1_555
N4B N4 1_555 1_555
N5B O1B 1_555 1_555
N6C O4C 1_555 1_555
O1B Pb1B 1_555 1_555
O2B N5B 1_555 1_555
O3B N5B 1_555 1_555
O4C Pb1 1_555 1_555
O4B Pb1B 1_555 1_555
O4A Pb1B 1_555 1_555
O5C N6C 1_555 1_555
O6C N6C 1_555 1_555
O6B Pb1B 1_555 1_555
Pb1B N1B 1_555 1_555
Pb1C O4 1_555 1_555
Pb1B_2 N2B 1_555 1_555
Pb1C_2 O4C 1_555 1_555
O7B Pb1B 1_555 1_555
H15B O7B 1_555 1_555
H16B O7B 1_555 1_555
C5 N1 1_555 1_555
C12 N2 1_555 1_555
N2 Pb1 1_555 1_555
O3 Pb1 1_555 1_555
O6 Pb1 1_555 1_555
C5B N1B 1_555 1_555
C6B N3B 1_555 1_555
C12B N2B 1_555 1_555
C13B N4B 1_555 1_555
O3B Pb1B 1_555 1_555
O6C Pb1C_2 1_555 1_555

#END
