
#######################################################################
#
#                 Cambridge Crystallographic Data Centre
#                                CCDC 
#
#######################################################################
#
# If this CIF has been generated from an entry in the Cambridge 
# Structural Database, then it will include bibliographic, chemical, 
# crystal, experimental, refinement or atomic coordinate data resulting 
# from the CCDC's data processing and validation procedures.
#
#######################################################################

data_FALXOG
_symmetry_cell_setting           triclinic
_symmetry_space_group_name_H-M   'P -1'
_symmetry_Int_Tables_number      2
_space_group_name_Hall           '-P 1'
loop_
_symmetry_equiv_pos_site_id
_symmetry_equiv_pos_as_xyz
1 x,y,z
2 -x,-y,-z
_cell_length_a                   7.7137(3)
_cell_length_b                   9.0088(3)
_cell_length_c                   11.6670(4)
_cell_angle_alpha                83.7230(10)
_cell_angle_beta                 75.6610(10)
_cell_angle_gamma                82.8760(10)
_cell_volume                     776.822
loop_
_atom_site_label
_atom_site_type_symbol
_atom_site_fract_x
_atom_site_fract_y
_atom_site_fract_z
Cu1 Cu 0.44589(2) 0.37500(2) 0.299473(15)
V1 V 0.85783(3) 0.71909(3) -0.13222(2)
P1 P 0.76670(5) 0.46377(4) 0.08619(3)
P2 P 0.55629(5) 0.12972(4) 0.11934(3)
O1 O 0.82254(14) 0.61716(12) 0.02721(9)
O2 O 0.89802(14) 0.38936(12) 0.15964(9)
O3 O 0.57641(14) 0.48418(12) 0.16320(10)
O4 O 0.53918(15) 0.17877(12) 0.24176(9)
O5 O 0.57386(16) -0.04724(12) 0.13571(10)
O6 O 0.40023(14) 0.18864(12) 0.06182(9)
O7 O 0.19582(15) 0.35103(14) 0.24078(10)
O8 O 0.92506(15) 0.88420(13) -0.17628(11)
N1 N 0.34508(17) 0.56750(15) 0.37275(11)
N2 N 0.33595(17) 0.29256(14) 0.46446(11)
C1 C 0.3525(2) 0.70473(18) 0.31447(14)
C2 C 0.2584(2) 0.83150(18) 0.36650(15)
C3 C 0.1578(2) 0.81511(19) 0.48269(16)
C4 C 0.1539(2) 0.67396(18) 0.54406(15)
C5 C 0.2470(2) 0.55198(17) 0.48561(13)
C6 C 0.2452(2) 0.39552(17) 0.53894(13)
C7 C 0.1564(2) 0.35584(19) 0.65542(14)
C8 C 0.1649(2) 0.20532(19) 0.69631(14)
C9 C 0.2574(2) 0.09894(18) 0.62012(14)
C10 C 0.3397(2) 0.14669(17) 0.50446(14)
C11 C 0.75902(19) 0.17679(17) 0.01426(13)
C12 C 0.7672(2) 0.34419(17) -0.02857(13)
H1 H 0.424(3) 0.706(2) 0.236(2)
H2 H 0.265(4) 0.922(3) 0.323(2)
H3 H 0.092(3) 0.900(3) 0.520(2)
H4 H 0.096(3) 0.661(3) 0.616(2)
H5 H 0.585(4) -0.084(3) 0.082(2)
H6 H 0.090(3) 0.431(3) 0.705(2)
H7 H 0.107(3) 0.177(3) 0.777(2)
H8 H 0.267(3) 0.000(3) 0.642(2)
H9 H 0.399(3) 0.080(3) 0.450(2)
H10 H 0.771(3) 0.123(3) -0.051(2)
H11 H 0.857(3) 0.142(2) 0.0482(19)
H12 H 0.666(3) 0.380(3) -0.062(2)
H13 H 0.878(3) 0.358(2) -0.0900(19)
V1A V 1.14217(3) 0.28091(3) 0.13222(2)
V1A_2 V 0.14217(3) 0.28091(3) 0.13222(2)
O2A O 1.10198(14) 0.61064(12) -0.15964(9)
O6A O 0.59977(14) 0.81136(12) -0.06182(9)
O7A O 0.80418(15) 0.64897(14) -0.24078(10)
loop_
_geom_bond_atom_site_label_1
_geom_bond_atom_site_label_2
_geom_bond_site_symmetry_1
_geom_bond_site_symmetry_2
Cu1 O3 1_555 1_555
V1 O1 1_555 1_555
P1 O1 1_555 1_555
P2 O4 1_555 1_555
O2 P1 1_555 1_555
O3 P1 1_555 1_555
O4 Cu1 1_555 1_555
O5 P2 1_555 1_555
O6 P2 1_555 1_555
O7 Cu1 1_555 1_555
O8 V1 1_555 1_555
N1 Cu1 1_555 1_555
N2 Cu1 1_555 1_555
C1 N1 1_555 1_555
C2 C1 1_555 1_555
C3 C2 1_555 1_555
C4 C3 1_555 1_555
C5 N1 1_555 1_555
C6 N2 1_555 1_555
C7 C6 1_555 1_555
C8 C7 1_555 1_555
C9 C8 1_555 1_555
C10 N2 1_555 1_555
C11 P2 1_555 1_555
C12 P1 1_555 1_555
H1 C1 1_555 1_555
H2 C2 1_555 1_555
H3 C3 1_555 1_555
H4 C4 1_555 1_555
H5 O5 1_555 1_555
H6 C7 1_555 1_555
H7 C8 1_555 1_555
H8 C9 1_555 1_555
H9 C10 1_555 1_555
H10 C11 1_555 1_555
H11 C11 1_555 1_555
H12 C12 1_555 1_555
H13 C12 1_555 1_555
V1A O2 1_555 1_555
V1A_2 O6 1_555 1_555
O2A V1 1_555 1_555
O6A V1 1_555 1_555
O7A V1 1_555 1_555
O7 V1A_2 1_555 1_555
C4 C5 1_555 1_555
C5 C6 1_555 1_555
C9 C10 1_555 1_555
C11 C12 1_555 1_555

#END
