
#######################################################################
#
#                 Cambridge Crystallographic Data Centre
#                                CCDC 
#
#######################################################################
#
# If this CIF has been generated from an entry in the Cambridge 
# Structural Database, then it will include bibliographic, chemical, 
# crystal, experimental, refinement or atomic coordinate data resulting 
# from the CCDC's data processing and validation procedures.
#
#######################################################################

data_FALXIA
_symmetry_cell_setting           monoclinic
_symmetry_space_group_name_H-M   'C 2/c'
_symmetry_Int_Tables_number      15
_space_group_name_Hall           '-C 2yn'
loop_
_symmetry_equiv_pos_site_id
_symmetry_equiv_pos_as_xyz
1 x,y,z
2 1/2+x,1/2+y,z
3 -x,y,1/2-z
4 1/2-x,1/2+y,1/2-z
5 -x,-y,-z
6 1/2-x,1/2-y,-z
7 x,-y,1/2+z
8 1/2+x,1/2-y,1/2+z
_cell_length_a                   18.0380(13)
_cell_length_b                   13.1953(9)
_cell_length_c                   15.2335(11)
_cell_angle_alpha                90
_cell_angle_beta                 106.9280(10)
_cell_angle_gamma                90
_cell_volume                     3468.73
loop_
_atom_site_label
_atom_site_type_symbol
_atom_site_fract_x
_atom_site_fract_y
_atom_site_fract_z
Cu1 Cu 0.172090(11) 0.014990(14) 0.036840(12)
V1 V 0.208450(15) -0.407220(19) 0.084340(17)
P1 P 0.30592(2) 0.07878(3) 0.21229(3)
P2 P 0.27641(2) -0.17313(3) 0.11581(3)
O1 O 0.26263(8) -0.28287(9) 0.13876(8)
O2 O 0.25466(7) -0.50552(9) 0.05977(8)
O3 O 0.25020(7) 0.09675(9) 0.11864(8)
O4 O 0.35864(7) 0.17410(9) 0.24131(8)
O5 O 0.20446(7) -0.10804(9) 0.10730(8)
O6 O 0.30682(7) -0.16440(9) 0.03271(8)
O7 O 0.26460(7) 0.05223(9) 0.28312(8)
O8 O 0.11755(7) -0.43509(11) 0.06384(9)
N1 N 0.11647(8) 0.13985(10) -0.02032(9)
N2 N 0.07863(8) -0.04998(10) -0.04981(9)
C1 C 0.06459(9) -0.14989(12) -0.06044(11)
H1 H 0.1019 -0.1960 -0.0251
C2 C 0.02621(9) 0.01600(12) -0.10092(11)
C3 C 0.04753(9) 0.12396(12) -0.08380(11)
C4 C 0.37641(10) -0.01743(12) 0.21048(13)
H2 H 0.3922 -0.0080 0.1539
H3 H 0.4229 -0.0052 0.2632
C5 C -0.05718(10) -0.12048(14) -0.17291(12)
H4 H -0.1039 -0.1446 -0.2145
C6 C -0.04253(10) -0.01736(14) -0.16297(12)
H5 H -0.0789 0.0300 -0.1980
C7 C 0.00119(10) 0.20403(14) -0.12653(12)
H6 H -0.0471 0.1918 -0.1712
C8 C -0.00278(10) -0.18824(14) -0.12140(12)
H7 H -0.0114 -0.2593 -0.1276
C9 C 0.02646(10) 0.30237(14) -0.10303(13)
H8 H -0.0046 0.3583 -0.1312
C10 C 0.09727(10) 0.31833(13) -0.03816(13)
H9 H 0.1156 0.3851 -0.0212
C11 C 0.14090(10) 0.23485(12) 0.00149(11)
H10 H 0.1897 0.2454 0.0456
C12 C 0.35236(9) -0.12884(12) 0.21415(11)
H11 H 0.3986 -0.1720 0.2211
H12 H 0.3351 -0.1384 0.2696
H15 H 0.3366(15) 0.226(2) 0.2333(18)
Cu1E Cu 0.327910(11) -0.514990(14) -0.036840(12)
V1E V 0.291550(15) -0.092780(19) -0.084340(17)
V1C V 0.291550(15) 0.092780(19) 0.415660(17)
O2E O 0.24534(7) 0.00552(9) -0.05977(8)
O6E O 0.19318(7) -0.33560(9) -0.03271(8)
O7C O 0.23540(7) -0.44777(9) 0.21688(8)
O9 O 0.81733(8) -0.86173(10) -0.29071(10)
H13 H 0.7993(17) -0.885(2) -0.253(2)
H14 H 0.8030(17) -0.893(2) -0.329(2)
O10 O 0.4573(16) -0.0659(2) -0.5957(2)
H16 H 0.428(7) -0.003(10) -0.596(9)
H17 H 0.504(5) -0.071(6) -0.560(6)
loop_
_geom_bond_atom_site_label_1
_geom_bond_atom_site_label_2
_geom_bond_site_symmetry_1
_geom_bond_site_symmetry_2
Cu1 O3 1_555 1_555
V1 O1 1_555 1_555
P1 O3 1_555 1_555
P2 O1 1_555 1_555
O2 V1 1_555 1_555
O4 P1 1_555 1_555
O5 Cu1 1_555 1_555
O6 P2 1_555 1_555
O7 P1 1_555 1_555
O8 V1 1_555 1_555
N1 Cu1 1_555 1_555
N2 Cu1 1_555 1_555
C1 N2 1_555 1_555
H1 C1 1_555 1_555
C2 N2 1_555 1_555
C3 N1 1_555 1_555
C4 P1 1_555 1_555
H2 C4 1_555 1_555
H3 C4 1_555 1_555
C5 H4 1_555 1_555
C6 C2 1_555 1_555
H5 C6 1_555 1_555
C7 C3 1_555 1_555
H6 C7 1_555 1_555
C8 C1 1_555 1_555
H7 C8 1_555 1_555
C9 C7 1_555 1_555
H8 C9 1_555 1_555
C10 C9 1_555 1_555
H9 C10 1_555 1_555
C11 N1 1_555 1_555
H10 C11 1_555 1_555
C12 P2 1_555 1_555
H11 C12 1_555 1_555
H12 C12 1_555 1_555
O9 H13 1_555 1_555
O10 H16 1_555 1_555
H14 O9 1_555 1_555
H15 O4 1_555 1_555
H17 O10 1_555 1_555
Cu1E O2 1_555 1_555
V1E O6 1_555 1_555
V1C O7 1_555 1_555
O2E Cu1 1_555 1_555
O6E V1 1_555 1_555
O7C V1 1_555 1_555
P2 O5 1_555 1_555
C2 C3 1_555 1_555
C4 C12 1_555 1_555
C5 C6 1_555 1_555
C5 C8 1_555 1_555
C10 C11 1_555 1_555
V1E O2E 1_555 1_555

#END
