
#######################################################################
#
#                 Cambridge Crystallographic Data Centre
#                                CCDC 
#
#######################################################################
#
# If this CIF has been generated from an entry in the Cambridge 
# Structural Database, then it will include bibliographic, chemical, 
# crystal, experimental, refinement or atomic coordinate data resulting 
# from the CCDC's data processing and validation procedures.
#
#######################################################################

data_FALYIC
_symmetry_cell_setting           orthorhombic
_symmetry_space_group_name_H-M   'P 21 21 21'
_symmetry_Int_Tables_number      19
_space_group_name_Hall           'P 2ac 2ab'
loop_
_symmetry_equiv_pos_site_id
_symmetry_equiv_pos_as_xyz
1 x,y,z
2 1/2-x,-y,1/2+z
3 1/2+x,1/2-y,-z
4 -x,1/2+y,1/2-z
_cell_length_a                   15.3011(12)
_cell_length_b                   20.084(2)
_cell_length_c                   25.5200(19)
_cell_angle_alpha                90
_cell_angle_beta                 90
_cell_angle_gamma                90
_cell_volume                     7842.48
loop_
_atom_site_label
_atom_site_type_symbol
_atom_site_fract_x
_atom_site_fract_y
_atom_site_fract_z
Cu1 Cu 0.76798(6) 0.00631(6) 1.78628(4)
Cu2 Cu 1.57485(8) -0.20567(6) 1.54872(4)
Cu3 Cu -0.07037(8) 0.16750(7) 1.53783(4)
O1 O -0.0193(5) 0.0511(5) 1.6276(3)
O2 O 0.7818(4) 0.0050(3) 1.6950(2)
H1 H 0.7382 0.0235 1.6742
H2 H 0.8309 -0.0140 1.6795
O3 O 0.0039(4) 0.1520(5) 1.5985(3)
O4 O 0.6561(4) 0.0518(3) 1.7776(2)
O5 O 0.6334(4) 0.0456(5) 1.8635(2)
O6 O 0.2644(4) 0.1531(4) 1.7874(2)
O7 O 1.5031(5) -0.2058(4) 1.6083(2)
O8 O 1.5189(6) -0.1005(5) 1.6291(3)
O9 O 0.8798(4) -0.0415(3) 1.7825(2)
O10 O 0.8910(4) -0.0507(4) 1.8702(3)
O11 O 1.2471(4) -0.1867(4) 1.8019(2)
O12 O 1.8873(4) -0.7728(4) 1.4826(2)
O13 O 1.9848(4) -0.7096(4) 1.5211(2)
O14 O 1.6295(5) -0.2498(4) 1.4892(2)
O15 O 1.5494(5) -0.3214(4) 1.5292(3)
O16 O 1.7835(5) -0.5012(3) 1.3753(2)
N1 N 1.3115(6) 0.3096(4) 1.9164(3)
N2 N 0.8343(4) 0.0917(4) 1.8005(3)
N3 N 0.7028(4) -0.0780(4) 1.7967(3)
N4 N 0.1841(5) -0.3225(4) 1.9233(3)
N5 N 1.4927(6) -0.1542(5) 1.5015(3)
N6 N 1.0205(5) 0.1322(4) 1.4881(3)
C1 C 1.2358(10) 0.3302(7) 1.9457(5)
H3 H 1.2423 0.3303 1.9819
C2 C 1.1582(7) 0.3491(8) 1.9282(5)
H4 H 1.1142 0.3648 1.9500
C3 C 1.1488(7) 0.3433(7) 1.8748(5)
C4 C 1.2129(9) 0.3229(7) 1.8450(5)
H5 H 1.2040 0.3175 1.8092
C5 C 1.2943(7) 0.3091(6) 1.8667(4)
H6 H 1.3396 0.2989 1.8438
C6 C 0.9078(9) 0.1060(6) 1.7757(5)
H7 H 0.9255 0.0789 1.7481
C7 C 0.9562(10) 0.1568(10) 1.7887(8)
H8 H 1.0028 0.1665 1.7666
C8 C 0.9461(9) 0.1951(9) 1.8290(8)
C9 C 0.8719(11) 0.1771(7) 1.8548(5)
H9 H 0.8575 0.2006 1.8850
C10 C 0.8178(10) 0.1275(6) 1.8397(5)
H10 H 0.7670 0.1197 1.8588
C11 C 1.0065(11) 0.2456(9) 1.8495(8)
H11 H 0.9986 0.2475 1.8872
H12 H 1.0655 0.2299 1.8432
C12 C 1.0014(13) 0.3080(10) 1.8312(9)
H13 H 0.9413 0.3223 1.8357
H14 H 1.0119 0.3058 1.7937
C13 C 1.0596(11) 0.3636(7) 1.8528(7)
H15 H 1.0275 0.3863 1.8803
H16 H 1.0693 0.3957 1.8249
C14 C 0.6518(7) -0.1034(7) 1.7581(4)
H17 H 0.6446 -0.0796 1.7272
C15 C 0.6102(6) -0.1643(6) 1.7642(4)
H18 H 0.5789 -0.1821 1.7364
C16 C 0.6143(6) -0.1980(5) 1.8099(4)
C17 C 0.6584(8) -0.1724(5) 1.8477(4)
H19 H 0.6611 -0.1947 1.8796
C18 C 0.7020(7) -0.1126(7) 1.8421(4)
H20 H 0.7321 -0.0954 1.8708
C19 C 0.1975(7) -0.3405(5) 1.8715(4)
H21 H 0.1477 -0.3530 1.8531
C20 C 0.2686(6) -0.3423(6) 1.8454(3)
H22 H 0.2695 -0.3551 1.8104
C21 C 0.3464(8) -0.3237(5) 1.8722(4)
C22 C 0.3338(9) -0.3048(6) 1.9242(4)
H23 H 0.3817 -0.2908 1.9438
C23 C 0.2532(5) -0.3061(6) 1.9474(4)
H24 H 0.2489 -0.2944 1.9826
C24 C 0.5614(7) -0.2628(5) 1.8145(4)
H25 H 0.5480 -0.2784 1.7795
H26 H 0.5980 -0.2961 1.8310
C25 C 0.4787(6) -0.2579(5) 1.8444(4)
H27 H 0.4391 -0.2272 1.8272
H28 H 0.4903 -0.2415 1.8795
C26 C 0.4377(6) -0.3267(5) 1.8472(4)
H29 H 0.4748 -0.3559 1.8677
H30 H 0.4331 -0.3451 1.8121
C27 C 1.4084(8) -0.1769(7) 1.4892(5)
H31 H 1.3865 -0.2153 1.5048
C28 C 1.3612(8) -0.1438(7) 1.4558(5)
H32 H 1.3052 -0.1594 1.4486
C29 C 1.3894(7) -0.0862(6) 1.4298(4)
C30 C 1.4715(8) -0.0651(7) 1.4419(4)
H33 H 1.4943 -0.0266 1.4270
C31 C 1.5213(8) -0.1030(7) 1.4778(5)
H34 H 1.5785 -0.0897 1.4844
C32 C 0.9976(7) 0.0910(6) 1.4499(4)
H35 H 0.9385 0.0816 1.4456
C33 C 1.0522(8) 0.0632(6) 1.4183(4)
H36 H 1.0310 0.0362 1.3916
C34 C 1.1428(7) 0.0723(5) 1.4230(4)
C35 C 1.1658(6) 0.1148(6) 1.4618(3)
H37 H 1.2244 0.1251 1.4667
C36 C 1.1033(7) 0.1432(6) 1.4942(4)
H38 H 1.1214 0.1711 1.5211
C37 C 1.3336(8) -0.0485(6) 1.3918(4)
H39 H 1.3051 -0.0793 1.3680
H40 H 1.3695 -0.0184 1.3713
C38 C 1.2631(7) -0.0079(6) 1.4232(4)
H41 H 1.2267 -0.0389 1.4426
H42 H 1.2927 0.0202 1.4485
C39 C 1.2062(7) 0.0343(6) 1.3902(4)
H43 H 1.1746 0.0066 1.3655
H44 H 1.2419 0.0652 1.3703
C40 C 0.0813(7) 0.1199(7) 1.6710(3)
C41 C 0.1160(6) 0.0631(6) 1.7004(3)
H45 H 0.0977 0.0194 1.6950
C42 C 0.1833(7) 0.0823(7) 1.7395(4)
H46 H 0.2073 0.0491 1.7604
C43 C 0.2097(6) 0.1413(5) 1.7461(4)
C44 C 0.1786(6) 0.1924(5) 1.7194(3)
H47 H 0.1995 0.2350 1.7263
C45 C 0.1146(6) 0.1833(5) 1.6808(4)
H48 H 0.0943 0.2195 1.6617
C46 C 0.0156(7) 0.1043(6) 1.6269(4)
C47 C 0.5142(5) 0.0806(4) 1.8093(3)
C48 C 0.4724(6) 0.1123(5) 1.8467(4)
H49 H 0.4999 0.1181 1.8789
C49 C 0.3876(6) 0.1380(5) 1.8399(3)
H50 H 0.3602 0.1621 1.8664
C50 C 0.3458(6) 0.1259(5) 1.7920(3)
C51 C 0.3867(6) 0.0921(5) 1.7537(3)
H51 H 0.3579 0.0833 1.7224
C52 C 0.4730(5) 0.0703(5) 1.7610(3)
H52 H 0.5026 0.0490 1.7339
C53 C 0.6099(6) 0.0580(5) 1.8199(4)
C54 C 1.4231(6) -0.1621(6) 1.6799(3)
C55 C 1.4033(6) -0.1077(6) 1.7133(4)
H53 H 1.4305 -0.0667 1.7085
C56 C 1.3429(8) -0.1167(8) 1.7529(4)
H54 H 1.3303 -0.0815 1.7753
C57 C 1.3008(7) -0.1770(7) 1.7599(4)
C58 C 1.3206(7) -0.2268(6) 1.7280(4)
H55 H 1.2903 -0.2666 1.7319
C59 C 1.3834(8) -0.2234(6) 1.6892(4)
H56 H 1.3987 -0.2609 1.6698
C60 C 1.4862(7) -0.1544(6) 1.6348(4)
C61 C 1.0084(6) -0.0921(5) 1.8192(4)
C62 C 1.0451(6) -0.1325(6) 1.8581(3)
H57 H 1.0140 -0.1410 1.8886
C63 C 1.1239(6) -0.1586(6) 1.8518(4)
H58 H 1.1501 -0.1811 1.8795
C64 C 1.1671(7) -0.1529(6) 1.8052(4)
C65 C 1.1317(6) -0.1119(6) 1.7644(4)
H59 H 1.1619 -0.1061 1.7331
C66 C 1.0533(6) -0.0817(5) 1.7723(3)
H60 H 1.0298 -0.0542 1.7466
C67 C 0.9152(6) -0.0590(5) 1.8230(5)
C68 C 1.8888(6) -0.6606(5) 1.4600(3)
C69 C 1.9271(8) -0.5985(6) 1.4614(4)
H61 H 1.9768 -0.5922 1.4818
C70 C 1.8938(9) -0.5446(6) 1.4331(4)
H62 H 1.9199 -0.5028 1.4334
C71 C 1.8197(8) -0.5580(6) 1.4048(3)
C72 C 1.7812(7) -0.6155(5) 1.4013(4)
H63 H 1.7320 -0.6213 1.3804
C73 C 1.8150(7) -0.6658(5) 1.4289(4)
H64 H 1.7872 -0.7069 1.4271
C74 C 1.9231(6) -0.7154(5) 1.4894(3)
C75 C 1.6490(6) -0.3612(5) 1.4607(3)
C76 C 1.7105(8) -0.3425(6) 1.4274(4)
H65 H 1.7246 -0.2976 1.4244
C77 C 1.7554(9) -0.3901(6) 1.3963(5)
H66 H 1.7961 -0.3774 1.3711
C78 C 1.7349(8) -0.4573(5) 1.4053(3)
C79 C 1.6700(8) -0.4740(6) 1.4365(4)
H67 H 1.6529 -0.5183 1.4398
C80 C 1.6280(7) -0.4249(5) 1.4641(4)
H68 H 1.5824 -0.4370 1.4863
C81 C 1.6033(7) -0.3104(5) 1.4941(4)
Cu2C Cu 1.42515(8) 0.29433(6) 1.95128(4)
Cu3_2 Cu 1.92963(8) -0.83250(7) 1.53783(4)
Cu3C Cu 0.07037(8) -0.33250(7) 1.96217(4)
Cu3_3 Cu 0.92963(8) 0.16750(7) 1.53783(4)
O12_2 O -0.1127(4) 0.2272(4) 1.4826(2)
O13_2 O -0.0152(4) 0.2904(4) 1.5211(2)
N1C N 1.6885(6) -0.1904(4) 1.5836(3)
N4C N -0.1841(5) 0.1775(4) 1.5767(3)
N6_2 N 0.0205(5) 0.1322(4) 1.4881(3)
loop_
_geom_bond_atom_site_label_1
_geom_bond_atom_site_label_2
_geom_bond_site_symmetry_1
_geom_bond_site_symmetry_2
Cu1 O2 1_555 1_555
Cu2 O7 1_555 1_555
Cu3 O3 1_555 1_555
O1 C46 1_555 1_555
O2 H1 1_555 1_555
H2 O2 1_555 1_555
O3 C46 1_555 1_555
O4 Cu1 1_555 1_555
O5 C53 1_555 1_555
O6 C43 1_555 1_555
O7 C60 1_555 1_555
O8 C60 1_555 1_555
O9 Cu1 1_555 1_555
O10 C67 1_555 1_555
O11 C57 1_555 1_555
O12 C74 1_555 1_555
O13 C74 1_555 1_555
O14 Cu2 1_555 1_555
O15 Cu2 1_555 1_555
O16 C71 1_555 1_555
N1 C1 1_555 1_555
N2 Cu1 1_555 1_555
N3 Cu1 1_555 1_555
N4 C19 1_555 1_555
N5 Cu2 1_555 1_555
N6 C32 1_555 1_555
C1 H3 1_555 1_555
C2 C1 1_555 1_555
H4 C2 1_555 1_555
C3 C2 1_555 1_555
C4 C3 1_555 1_555
H5 C4 1_555 1_555
C5 N1 1_555 1_555
H6 C5 1_555 1_555
C6 N2 1_555 1_555
H7 C6 1_555 1_555
C7 C6 1_555 1_555
H8 C7 1_555 1_555
C8 C7 1_555 1_555
C9 C8 1_555 1_555
H9 C9 1_555 1_555
C10 N2 1_555 1_555
H10 C10 1_555 1_555
C11 C8 1_555 1_555
H11 C11 1_555 1_555
H12 C11 1_555 1_555
C12 C11 1_555 1_555
H13 C12 1_555 1_555
H14 C12 1_555 1_555
C13 C3 1_555 1_555
H15 C13 1_555 1_555
H16 C13 1_555 1_555
C14 N3 1_555 1_555
H17 C14 1_555 1_555
C15 C14 1_555 1_555
H18 C15 1_555 1_555
C16 C15 1_555 1_555
C17 C16 1_555 1_555
H19 C17 1_555 1_555
C18 N3 1_555 1_555
H20 C18 1_555 1_555
C19 H21 1_555 1_555
C20 C19 1_555 1_555
H22 C20 1_555 1_555
C21 C20 1_555 1_555
C22 C21 1_555 1_555
H23 C22 1_555 1_555
C23 N4 1_555 1_555
H24 C23 1_555 1_555
C24 C16 1_555 1_555
H25 C24 1_555 1_555
H26 C24 1_555 1_555
C25 C24 1_555 1_555
H27 C25 1_555 1_555
H28 C25 1_555 1_555
C26 C21 1_555 1_555
H29 C26 1_555 1_555
H30 C26 1_555 1_555
C27 N5 1_555 1_555
H31 C27 1_555 1_555
C28 C27 1_555 1_555
H32 C28 1_555 1_555
C29 C28 1_555 1_555
C30 C29 1_555 1_555
H33 C30 1_555 1_555
C31 N5 1_555 1_555
H34 C31 1_555 1_555
C32 H35 1_555 1_555
C33 C32 1_555 1_555
H36 C33 1_555 1_555
C34 C33 1_555 1_555
C35 C34 1_555 1_555
H37 C35 1_555 1_555
C36 N6 1_555 1_555
H38 C36 1_555 1_555
C37 C29 1_555 1_555
H39 C37 1_555 1_555
H40 C37 1_555 1_555
C38 C37 1_555 1_555
H41 C38 1_555 1_555
H42 C38 1_555 1_555
C39 C34 1_555 1_555
H43 C39 1_555 1_555
H44 C39 1_555 1_555
C40 C41 1_555 1_555
C41 H45 1_555 1_555
C42 C41 1_555 1_555
H46 C42 1_555 1_555
C43 C42 1_555 1_555
C44 C43 1_555 1_555
H47 C44 1_555 1_555
C45 C40 1_555 1_555
H48 C45 1_555 1_555
C46 C40 1_555 1_555
C47 C48 1_555 1_555
C48 H49 1_555 1_555
C49 C48 1_555 1_555
H50 C49 1_555 1_555
C50 O6 1_555 1_555
C51 C50 1_555 1_555
H51 C51 1_555 1_555
C52 C47 1_555 1_555
H52 C52 1_555 1_555
C53 O4 1_555 1_555
C54 C55 1_555 1_555
C55 H53 1_555 1_555
C56 C55 1_555 1_555
H54 C56 1_555 1_555
C57 C56 1_555 1_555
C58 C57 1_555 1_555
H55 C58 1_555 1_555
C59 C54 1_555 1_555
H56 C59 1_555 1_555
C60 C54 1_555 1_555
C61 C62 1_555 1_555
C62 H57 1_555 1_555
C63 C62 1_555 1_555
H58 C63 1_555 1_555
C64 O11 1_555 1_555
C65 C64 1_555 1_555
H59 C65 1_555 1_555
C66 C61 1_555 1_555
H60 C66 1_555 1_555
C67 O9 1_555 1_555
C68 C69 1_555 1_555
C69 H61 1_555 1_555
C70 C69 1_555 1_555
H62 C70 1_555 1_555
C71 C70 1_555 1_555
C72 C71 1_555 1_555
H63 C72 1_555 1_555
C73 C68 1_555 1_555
H64 C73 1_555 1_555
C74 C68 1_555 1_555
C75 C76 1_555 1_555
C76 H65 1_555 1_555
C77 C76 1_555 1_555
H66 C77 1_555 1_555
C78 O16 1_555 1_555
C79 C78 1_555 1_555
H67 C79 1_555 1_555
C80 C75 1_555 1_555
H68 C80 1_555 1_555
C81 O14 1_555 1_555
Cu2C N1 1_555 1_555
Cu3_2 O12 1_555 1_555
Cu3C N4 1_555 1_555
Cu3_3 N6 1_555 1_555
O12_2 Cu3 1_555 1_555
O13_2 Cu3 1_555 1_555
N1C Cu2 1_555 1_555
N4C Cu3 1_555 1_555
N6_2 Cu3 1_555 1_555
O13 Cu3_2 1_555 1_555
O15 C81 1_555 1_555
C4 C5 1_555 1_555
C9 C10 1_555 1_555
C12 C13 1_555 1_555
C17 C18 1_555 1_555
C22 C23 1_555 1_555
C25 C26 1_555 1_555
C30 C31 1_555 1_555
C35 C36 1_555 1_555
C38 C39 1_555 1_555
C44 C45 1_555 1_555
C47 C53 1_555 1_555
C49 C50 1_555 1_555
C51 C52 1_555 1_555
C58 C59 1_555 1_555
C61 C67 1_555 1_555
C63 C64 1_555 1_555
C65 C66 1_555 1_555
C72 C73 1_555 1_555
C75 C81 1_555 1_555
C77 C78 1_555 1_555
C79 C80 1_555 1_555

#END
