
#######################################################################
#
#                 Cambridge Crystallographic Data Centre
#                                CCDC 
#
#######################################################################
#
# If this CIF has been generated from an entry in the Cambridge 
# Structural Database, then it will include bibliographic, chemical, 
# crystal, experimental, refinement or atomic coordinate data resulting 
# from the CCDC's data processing and validation procedures.
#
#######################################################################

data_FALYIB
_symmetry_cell_setting           triclinic
_symmetry_space_group_name_H-M   'P -1'
_symmetry_Int_Tables_number      2
_space_group_name_Hall           '-P 1'
loop_
_symmetry_equiv_pos_site_id
_symmetry_equiv_pos_as_xyz
1 x,y,z
2 -x,-y,-z
_cell_length_a                   8.44010(1)
_cell_length_b                   9.3309(11)
_cell_length_c                   9.6996(10)
_cell_angle_alpha                96.910(4)
_cell_angle_beta                 110.860(2)
_cell_angle_gamma                98.595(4)
_cell_volume                     693.234
loop_
_atom_site_label
_atom_site_type_symbol
_atom_site_fract_x
_atom_site_fract_y
_atom_site_fract_z
As1 As -0.71739(3) -0.42095(2) -0.37562(2)
V1 V -0.46972(4) -0.18140(4) -0.47744(4)
V2 V -0.06031(4) -0.27873(4) -0.37707(4)
O1 O -0.5000 0.0000 -0.5000
O2 O -0.5332(2) -0.28674(19) -0.64004(19)
O3 O -0.2611(2) -0.17823(18) -0.38374(19)
O4 O -0.5953(2) -0.25599(18) -0.3733(2)
O5 O -0.7721(2) -0.53103(17) -0.54072(18)
O6 O -0.5848(3) -0.4951(2) -0.2363(2)
O7 O -0.8711(2) -0.39029(18) -0.31437(19)
O8 O -0.9677(2) -0.7776(2) -0.48258(19)
N1 N 0.1215(2) -0.0940(2) -0.2178(2)
N2 N -0.0653(2) -0.3029(2) -0.1490(2)
C1 C 0.2130(3) 0.0092(3) -0.2609(3)
H1 H 0.190(4) 0.003(3) -0.353(4)
C2 C 0.3401(4) 0.1233(3) -0.1597(3)
H2 H 0.386(5) 0.186(4) -0.198(4)
C3 C 0.3732(4) 0.1334(3) -0.0091(3)
H3 H 0.461(5) 0.202(4) 0.062(4)
C4 C 0.2810(4) 0.0275(3) 0.0370(3)
H4 H 0.310(4) 0.028(4) 0.136(4)
C5 C 0.1556(3) -0.0859(2) -0.0693(2)
C6 C 0.0502(3) -0.2038(2) -0.0305(2)
C7 C 0.0654(4) -0.2131(3) 0.1158(3)
H5 H 0.155(4) -0.144(4) 0.195(4)
C8 C -0.0449(4) -0.3250(3) 0.1389(3)
H6 H -0.031(4) -0.334(3) 0.239(4)
C9 C -0.1656(4) -0.4236(3) 0.0171(3)
H7 H -0.238(5) -0.495(4) 0.029(4)
C10 C -0.1710(3) -0.4108(3) -0.1253(3)
H8 H -0.250(4) -0.475(3) -0.215(3)
H9 H -0.560(5) -0.541(4) -0.271(4)
As1A As -0.28261(3) -0.57905(2) -0.62438(2)
V1A V -0.53028(4) 0.18140(4) -0.52256(4)
V1A_2 V -0.53028(4) -0.81860(4) -0.52256(4)
V2A V -0.93969(4) -0.72127(4) -0.62293(4)
V2_2 V -1.06031(4) -0.27873(4) -0.37707(4)
V2A_2 V 0.06031(4) -0.72127(4) -0.62293(4)
V2A_3 V -0.93969(4) 0.27873(4) -0.62293(4)
O2A O -0.4668(2) 0.28674(19) -0.35996(19)
O3A O -0.7389(2) 0.17823(18) -0.61626(19)
O3A_2 O -0.7389(2) -0.82177(18) -0.61626(19)
O4A O -0.4047(2) -0.74401(18) -0.6267(2)
O4A_2 O -0.4047(2) 0.25599(18) -0.6267(2)
O5A O -0.2279(2) -0.46897(17) -0.45928(18)
O6A O -0.4152(3) -0.5049(2) -0.7637(2)
O7A O -0.1289(2) -0.60971(18) -0.68563(19)
O7_2 O 0.1289(2) -0.39029(18) -0.31437(19)
O7A_2 O -1.1289(2) -0.60971(18) -0.68563(19)
O8A O -0.0323(2) -0.2224(2) -0.51742(19)
N1A N -1.1215(2) -0.9060(2) -0.7822(2)
N2A N -0.9347(2) -0.6971(2) -0.8510(2)
C1A C -1.2130(3) -1.0092(3) -0.7391(3)
H1A H -1.190(4) -1.003(3) -0.647(4)
C2A C -1.3401(4) -1.1233(3) -0.8403(3)
H2A H -1.386(5) -1.186(4) -0.802(4)
C3A C -1.3732(4) -1.1334(3) -0.9909(3)
H3A H -1.461(5) -1.202(4) -1.062(4)
C4A C -1.2810(4) -1.0275(3) -1.0370(3)
H4A H -1.310(4) -1.028(4) -1.136(4)
C5A C -1.1556(3) -0.9141(2) -0.9307(2)
C6A C -1.0502(3) -0.7962(2) -0.9695(2)
C7A C -1.0654(4) -0.7869(3) -1.1158(3)
H5A H -1.155(4) -0.856(4) -1.195(4)
C8A C -0.9551(4) -0.6750(3) -1.1389(3)
H6A H -0.969(4) -0.666(3) -1.239(4)
C9A C -0.8344(4) -0.5764(3) -1.0171(3)
H7A H -0.762(5) -0.505(4) -1.029(4)
C10A C -0.8290(3) -0.5892(3) -0.8747(3)
H8A H -0.750(4) -0.525(3) -0.785(3)
H9A H -0.440(5) -0.459(4) -0.729(4)
loop_
_geom_bond_atom_site_label_1
_geom_bond_atom_site_label_2
_geom_bond_site_symmetry_1
_geom_bond_site_symmetry_2
As1 O4 1_555 1_555
V1 O1 1_555 1_555
V2 O3 1_555 1_555
O1 V1A 1_555 1_555
O2 V1 1_555 1_555
O3 V1 1_555 1_555
O4 V1 1_555 1_555
O5 As1 1_555 1_555
O6 As1 1_555 1_555
O7 As1 1_555 1_555
O8 V2A 1_555 1_555
N1 V2 1_555 1_555
N2 V2 1_555 1_555
C1 N1 1_555 1_555
H1 C1 1_555 1_555
C2 C1 1_555 1_555
H2 C2 1_555 1_555
C3 C2 1_555 1_555
H3 C3 1_555 1_555
C4 C3 1_555 1_555
H4 C4 1_555 1_555
C5 N1 1_555 1_555
C6 N2 1_555 1_555
C7 C6 1_555 1_555
H5 C7 1_555 1_555
C8 C7 1_555 1_555
H6 C8 1_555 1_555
C9 C8 1_555 1_555
H7 C9 1_555 1_555
C10 N2 1_555 1_555
H8 C10 1_555 1_555
H9 O6 1_555 1_555
As1A O4A 1_555 1_555
V1A O2A 1_555 1_555
V1A_2 O3A_2 1_555 1_555
V2A O5 1_555 1_555
V2_2 O7 1_555 1_555
V2A_2 O7A 1_555 1_555
V2A_3 O3A 1_555 1_555
O3A V1A 1_555 1_555
O3A_2 V2A 1_555 1_555
O4A V1A_2 1_555 1_555
O4A_2 V1A 1_555 1_555
O5A V2 1_555 1_555
O6A As1A 1_555 1_555
O7A As1A 1_555 1_555
O7_2 V2 1_555 1_555
O7A_2 V2A 1_555 1_555
O8A V2 1_555 1_555
N1A V2A 1_555 1_555
N2A V2A 1_555 1_555
C1A N1A 1_555 1_555
H1A C1A 1_555 1_555
C2A C1A 1_555 1_555
H2A C2A 1_555 1_555
C3A C2A 1_555 1_555
H3A C3A 1_555 1_555
C4A C3A 1_555 1_555
H4A C4A 1_555 1_555
C5A N1A 1_555 1_555
C6A N2A 1_555 1_555
C7A C6A 1_555 1_555
H5A C7A 1_555 1_555
C8A C7A 1_555 1_555
H6A C8A 1_555 1_555
C9A C8A 1_555 1_555
H7A C9A 1_555 1_555
C10A N2A 1_555 1_555
H8A C10A 1_555 1_555
H9A O6A 1_555 1_555
C4 C5 1_555 1_555
C5 C6 1_555 1_555
C9 C10 1_555 1_555
As1A O5A 1_555 1_555
C4A C5A 1_555 1_555
C5A C6A 1_555 1_555
C9A C10A 1_555 1_555

#END
