
#######################################################################
#
#                 Cambridge Crystallographic Data Centre
#                                CCDC 
#
#######################################################################
#
# If this CIF has been generated from an entry in the Cambridge 
# Structural Database, then it will include bibliographic, chemical, 
# crystal, experimental, refinement or atomic coordinate data resulting 
# from the CCDC's data processing and validation procedures.
#
#######################################################################

data_FALYIA
_symmetry_cell_setting           triclinic
_symmetry_space_group_name_H-M   'P -1'
_symmetry_Int_Tables_number      2
_space_group_name_Hall           '-P 1'
loop_
_symmetry_equiv_pos_site_id
_symmetry_equiv_pos_as_xyz
1 x,y,z
2 -x,-y,-z
_cell_length_a                   11.648(8)
_cell_length_b                   4.328(3)
_cell_length_c                   10.198(4)
_cell_angle_alpha                77.64(5)
_cell_angle_beta                 68.45(4)
_cell_angle_gamma                104.25(5)
_cell_volume                     436.223
loop_
_atom_site_label
_atom_site_type_symbol
_atom_site_fract_x
_atom_site_fract_y
_atom_site_fract_z
I1 I 0.8687(1) 0.0095(2) 0.1973(1)
Cu1 Cu 0.9710(2) 0.3528(5) -0.0945(2)
N1 N 0.8418(11) 0.3062(30) -0.1897(12)
C1 C 0.7255(4) 0.3395(13) -0.1374(15)
C2 C 0.6427(16) 0.2925(39) -0.2056(18)
C3 C 0.6842(15) 0.2263(39) -0.3393(16)
C4 C 0.8017(16) 0.1896(43) -0.3931(17)
C5 C 0.8790(15) 0.2246(44) -0.3189(16)
C6 C 0.6861(16) 0.4279(44) 0.0035(19)
C7 C 0.5943(21) 0.1812(53) -0.4161(22)
H1 H 0.6222 0.4500 -0.2271
H2 H 0.8325 0.0781 -0.4643
H3 H 0.9644 0.1887 -0.3593
H4 H 0.6869 0.2387 0.0823
H5 H 0.7542 0.6308 -0.0115
H6 H 0.6021 0.4439 0.0452
H7 H 0.5102 -0.0035 -0.3467
H8 H 0.5729 0.3907 -0.4365
H9 H 0.6209 0.1380 -0.5110
Cu1A Cu 1.0290(2) -0.3528(5) 0.0945(2)
Cu1A_2 Cu 1.0290(2) 0.6472(5) 0.0945(2)
I1A I 1.1313(1) -0.0095(2) -0.1973(1)
I1A_2 I 1.1313(1) 0.9905(2) -0.1973(1)
I1_2 I 0.8687(1) -0.9905(2) 0.1973(1)
N1A N 1.1582(11) -0.3062(30) 0.1897(12)
Cu1_2 Cu 0.9710(2) -0.6472(5) -0.0945(2)
C1A C 1.2745(4) -0.3395(13) 0.1374(15)
C5A C 1.1210(15) -0.2246(44) 0.3189(16)
C2A C 1.3573(16) -0.2925(39) 0.2056(18)
C6A C 1.3139(16) -0.4279(44) -0.0035(19)
C4A C 1.1983(16) -0.1896(43) 0.3931(17)
H3A H 1.0356 -0.1887 0.3593
C3A C 1.3158(15) -0.2263(39) 0.3393(16)
H1A H 1.3778 -0.4500 0.2271
H4A H 1.3131 -0.2387 -0.0823
H5A H 1.2458 -0.6308 0.0115
H6A H 1.3979 -0.4439 -0.0452
H2A H 1.1675 -0.0781 0.4643
C7A C 1.4057(21) -0.1812(53) 0.4161(22)
H7A H 1.4898 0.0035 0.3467
H8A H 1.4271 -0.3907 0.4365
H9A H 1.3791 -0.1380 0.5110
loop_
_geom_bond_atom_site_label_1
_geom_bond_atom_site_label_2
_geom_bond_site_symmetry_1
_geom_bond_site_symmetry_2
I1 Cu1 1_555 1_555
Cu1 N1 1_555 1_555
N1 C1 1_555 1_555
C1 C2 1_555 1_555
C2 C3 1_555 1_555
C3 C4 1_555 1_555
C4 C5 1_555 1_555
C5 N1 1_555 1_555
C6 C1 1_555 1_555
C7 C3 1_555 1_555
H1 C2 1_555 1_555
H2 C4 1_555 1_555
H3 C5 1_555 1_555
H4 C6 1_555 1_555
H5 C6 1_555 1_555
H6 C6 1_555 1_555
H7 C7 1_555 1_555
H8 C7 1_555 1_555
H9 C7 1_555 1_555
Cu1A I1 1_555 1_555
Cu1A_2 I1 1_555 1_555
I1A Cu1 1_555 1_555
I1A_2 Cu1 1_555 1_555
I1_2 Cu1A 1_555 1_555
N1A Cu1A 1_555 1_555
Cu1_2 I1A 1_555 1_555
C1A N1A 1_555 1_555
C5A N1A 1_555 1_555
C2A C1A 1_555 1_555
C6A C1A 1_555 1_555
C4A C5A 1_555 1_555
H3A C5A 1_555 1_555
C3A C2A 1_555 1_555
H1A C2A 1_555 1_555
H4A C6A 1_555 1_555
H5A C6A 1_555 1_555
H6A C6A 1_555 1_555
H2A C4A 1_555 1_555
C7A C3A 1_555 1_555
H7A C7A 1_555 1_555
H8A C7A 1_555 1_555
H9A C7A 1_555 1_555
Cu1A I1A 1_555 1_555
C4A C3A 1_555 1_555

#END
