
#######################################################################
#
#                 Cambridge Crystallographic Data Centre
#                                CCDC 
#
#######################################################################
#
# If this CIF has been generated from an entry in the Cambridge 
# Structural Database, then it will include bibliographic, chemical, 
# crystal, experimental, refinement or atomic coordinate data resulting 
# from the CCDC's data processing and validation procedures.
#
#######################################################################

data_FAMBIG
_symmetry_cell_setting           triclinic
_symmetry_space_group_name_H-M   'P -1'
_symmetry_Int_Tables_number      2
_space_group_name_Hall           '-P 1'
loop_
_symmetry_equiv_pos_site_id
_symmetry_equiv_pos_as_xyz
1 x,y,z
2 -x,-y,-z
_cell_length_a                   7.664(2)
_cell_length_b                   7.924(2)
_cell_length_c                   19.461(5)
_cell_angle_alpha                85.113(3)
_cell_angle_beta                 88.303(4)
_cell_angle_gamma                88.893(4)
_cell_volume                     1176.88
loop_
_atom_site_label
_atom_site_type_symbol
_atom_site_fract_x
_atom_site_fract_y
_atom_site_fract_z
C1 C 0.2494(5) 0.0056(4) 0.31072(17)
C2 C 0.1756(5) -0.1498(5) 0.31234(19)
H1 H 0.1396 -0.2050 0.3543
C3 C 0.1539(5) -0.2263(5) 0.25160(19)
C4 C 0.1963(5) -0.1450(5) 0.18778(18)
H2 H 0.1746 -0.1942 0.1472
C5 C 0.2736(5) 0.0155(4) 0.18643(18)
C6 C 0.2970(5) 0.0898(4) 0.24627(19)
H3 H 0.3448 0.1971 0.2445
C7 C 0.0689(5) -0.3943(4) 0.25416(19)
C8 C 0.2791(5) 0.0872(5) 0.37531(19)
C9 C 0.3342(5) 0.0306(5) 0.06403(19)
H4 H 0.3877 -0.0809 0.0726
H5 H 0.4093 0.0964 0.0314
C10 C 0.1598(5) 0.0119(5) 0.03185(19)
C11 C 0.1446(5) -0.1011(5) -0.01603(18)
H6 H 0.2399 -0.1690 -0.0271
C12 C 0.0150(5) 0.1161(5) 0.04914(19)
H7 H 0.0253 0.1936 0.0820
C13 C 0.6034(5) 0.6633(5) 0.40128(16)
C14 C 0.6475(5) 0.7594(4) 0.33233(18)
C15 C 0.6106(5) 0.6892(4) 0.27306(17)
H8 H 0.5613 0.5825 0.2752
C16 C 0.6472(5) 0.7786(4) 0.20769(18)
C17 C 0.7218(4) 0.9404(5) 0.20537(18)
H9 H 0.7465 1.0019 0.1635
C18 C 0.7572(4) 1.0050(4) 0.26757(18)
C19 C 0.7214(5) 0.9181(4) 0.33053(18)
H10 H 0.7464 0.9651 0.3712
C20 C 0.8382(4) 1.1766(4) 0.26549(18)
C21 C 0.5471(5) 0.5534(4) 0.14339(19)
H11 H 0.4361 0.5424 0.1685
H12 H 0.6284 0.4697 0.1639
C22 C 0.5248(5) 0.5277(5) 0.0700(2)
C23 C 0.3614(6) 0.4893(5) 0.0458(2)
H13 H 0.2658 0.4832 0.0765
C24 C 0.6625(5) 0.5402(5) 0.02304(19)
H14 H 0.7722 0.5685 0.0372
O1 O 0.2384(4) 0.0189(4) 0.43195(14)
O2 O 0.3486(4) 0.2328(4) 0.36715(15)
O3 O 0.0322(4) -0.4672(3) 0.31761(15)
H15 H 0.0011 -0.5810 0.3104
O4 O 0.0461(3) -0.4579(4) 0.19666(13)
O5 O 0.3246(3) 0.1112(3) 0.12797(13)
O6 O 0.5419(4) 0.5233(4) 0.39939(13)
O7 O 0.6339(4) 0.7336(3) 0.45366(13)
O8 O 0.8699(3) 1.2335(4) 0.32378(13)
O9 O 0.8718(3) 1.2512(3) 0.20280(13)
H16 H 0.9201 1.3587 0.2105
O10 O 0.6152(3) 0.7251(3) 0.14631(12)
O11 O 0.1715(4) 0.4851(4) 0.44963(15)
H17 H 0.1885 0.5676 0.4195
H18 H 0.0944 0.4242 0.4338
O12 O 0.6560(4) 0.2086(4) 0.46107(15)
H19 H 0.7355 0.2519 0.4251
H20 H 0.7024 0.2263 0.5051
Zn1 Zn 0.41274(6) 0.33766(6) 0.44978(2)
C1A C -0.2494(5) -0.0056(4) -0.31072(17)
C2A C -0.1756(5) 0.1498(5) -0.31234(19)
H1A H -0.1396 0.2050 -0.3543
C3A C -0.1539(5) 0.2263(5) -0.25160(19)
C4A C -0.1963(5) 0.1450(5) -0.18778(18)
H2A H -0.1746 0.1942 -0.1472
C5A C -0.2736(5) -0.0155(4) -0.18643(18)
C6A C -0.2970(5) -0.0898(4) -0.24627(19)
H3A H -0.3448 -0.1971 -0.2445
C7A C -0.0689(5) 0.3943(4) -0.25416(19)
C8A C -0.2791(5) -0.0872(5) -0.37531(19)
C9A C -0.3342(5) -0.0306(5) -0.06403(19)
H4A H -0.3877 0.0809 -0.0726
H5A H -0.4093 -0.0964 -0.0314
C10A C -0.1598(5) -0.0119(5) -0.03185(19)
C11A C -0.1446(5) 0.1011(5) 0.01603(18)
H6A H -0.2399 0.1690 0.0271
C12A C -0.0150(5) -0.1161(5) -0.04914(19)
H7A H -0.0253 -0.1936 -0.0820
C13A C 0.3966(5) 0.3367(5) -0.40128(16)
C14A C 0.3525(5) 0.2406(4) -0.33233(18)
C15A C 0.3894(5) 0.3108(4) -0.27306(17)
H8A H 0.4387 0.4175 -0.2752
C16A C 0.3528(5) 0.2214(4) -0.20769(18)
C17A C 0.2782(4) 0.0596(5) -0.20537(18)
H9A H 0.2535 -0.0019 -0.1635
C18A C 0.2428(4) -0.0050(4) -0.26757(18)
C19A C 0.2786(5) 0.0819(4) -0.33053(18)
H10A H 0.2536 0.0349 -0.3712
C20A C 0.1618(4) -0.1766(4) -0.26549(18)
C21A C 0.4529(5) 0.4466(4) -0.14339(19)
H11A H 0.5639 0.4576 -0.1685
H12A H 0.3716 0.5303 -0.1639
C22A C 0.4752(5) 0.4723(5) -0.0700(2)
C23A C 0.6386(6) 0.5107(5) -0.0458(2)
H13A H 0.7342 0.5168 -0.0765
C24A C 0.3375(5) 0.4598(5) -0.02304(19)
H14A H 0.2278 0.4315 -0.0372
O1A O -0.2384(4) -0.0189(4) -0.43195(14)
O2A O -0.3486(4) -0.2328(4) -0.36715(15)
O3A O -0.0322(4) 0.4672(3) -0.31761(15)
H15A H -0.0011 0.5810 -0.3104
O4A O -0.0461(3) 0.4579(4) -0.19666(13)
O5A O -0.3246(3) -0.1112(3) -0.12797(13)
O6A O 0.4581(4) 0.4767(4) -0.39939(13)
O6A_2 O -0.5419(4) -0.5233(4) -0.39939(13)
O7A O 0.3661(4) 0.2664(3) -0.45366(13)
O7A_2 O 0.3661(4) 0.2664(3) 0.54634(13)
O7_2 O -0.3661(4) -0.2664(3) -0.54634(13)
O8A O 0.1301(3) -0.2335(4) -0.32378(13)
O9A O 0.1282(3) -0.2512(3) -0.20280(13)
H16A H 0.0799 -0.3587 -0.2105
O10A O 0.3848(3) 0.2749(3) -0.14631(12)
O11A O -0.1715(4) -0.4851(4) -0.44963(15)
H17A H -0.1885 -0.5676 -0.4195
H18A H -0.0944 -0.4242 -0.4338
O12A O -0.6560(4) -0.2086(4) -0.46107(15)
H19A H -0.7355 -0.2519 -0.4251
H20A H -0.7024 -0.2263 -0.5051
Zn1A Zn -0.41274(6) -0.33766(6) -0.44978(2)
Zn1A_2 Zn 0.58726(6) 0.66234(6) 0.55022(2)
Zn1A_3 Zn 0.58726(6) 0.66234(6) -0.44978(2)
Zn1_2 Zn 0.41274(6) 0.33766(6) -0.55022(2)
loop_
_geom_bond_atom_site_label_1
_geom_bond_atom_site_label_2
_geom_bond_site_symmetry_1
_geom_bond_site_symmetry_2
C1 C2 1_555 1_555
C2 H1 1_555 1_555
C3 C2 1_555 1_555
C4 C3 1_555 1_555
H2 C4 1_555 1_555
C5 C4 1_555 1_555
C6 C1 1_555 1_555
H3 C6 1_555 1_555
C7 C3 1_555 1_555
C8 C1 1_555 1_555
C9 H4 1_555 1_555
H5 C9 1_555 1_555
C10 C9 1_555 1_555
C11 C10 1_555 1_555
H6 C11 1_555 1_555
C12 C10 1_555 1_555
H7 C12 1_555 1_555
C13 C14 1_555 1_555
C14 C15 1_555 1_555
C15 H8 1_555 1_555
C16 C15 1_555 1_555
C17 C16 1_555 1_555
H9 C17 1_555 1_555
C18 C17 1_555 1_555
C19 C14 1_555 1_555
H10 C19 1_555 1_555
C20 C18 1_555 1_555
C21 H11 1_555 1_555
H12 C21 1_555 1_555
C22 C21 1_555 1_555
C23 C22 1_555 1_555
H13 C23 1_555 1_555
C24 C22 1_555 1_555
H14 C24 1_555 1_555
O1 C8 1_555 1_555
O2 C8 1_555 1_555
O3 C7 1_555 1_555
H15 O3 1_555 1_555
O4 C7 1_555 1_555
O5 C5 1_555 1_555
O6 C13 1_555 1_555
O7 C13 1_555 1_555
O8 C20 1_555 1_555
O9 C20 1_555 1_555
H16 O9 1_555 1_555
O10 C16 1_555 1_555
O11 H17 1_555 1_555
H18 O11 1_555 1_555
O12 H19 1_555 1_555
H20 O12 1_555 1_555
Zn1 O2 1_555 1_555
C1A C2A 1_555 1_555
C2A H1A 1_555 1_555
C3A C2A 1_555 1_555
C4A C3A 1_555 1_555
H2A C4A 1_555 1_555
C5A C4A 1_555 1_555
C6A C1A 1_555 1_555
H3A C6A 1_555 1_555
C7A C3A 1_555 1_555
C8A C1A 1_555 1_555
C9A H4A 1_555 1_555
H5A C9A 1_555 1_555
C10A C9A 1_555 1_555
C11A C12 1_555 1_555
H6A C11A 1_555 1_555
C12A C11 1_555 1_555
H7A C12A 1_555 1_555
C13A C14A 1_555 1_555
C14A C15A 1_555 1_555
C15A H8A 1_555 1_555
C16A C15A 1_555 1_555
C17A C16A 1_555 1_555
H9A C17A 1_555 1_555
C18A C17A 1_555 1_555
C19A C14A 1_555 1_555
H10A C19A 1_555 1_555
C20A C18A 1_555 1_555
C21A H11A 1_555 1_555
H12A C21A 1_555 1_555
C22A C21A 1_555 1_555
C23A C24 1_555 1_555
H13A C23A 1_555 1_555
C24A C23 1_555 1_555
H14A C24A 1_555 1_555
O1A C8A 1_555 1_555
O2A C8A 1_555 1_555
O3A C7A 1_555 1_555
H15A O3A 1_555 1_555
O4A C7A 1_555 1_555
O5A C5A 1_555 1_555
O6A C13A 1_555 1_555
O6A_2 Zn1A 1_555 1_555
O7A C13A 1_555 1_555
O7A_2 Zn1 1_555 1_555
O7_2 Zn1A 1_555 1_555
O8A C20A 1_555 1_555
O9A C20A 1_555 1_555
H16A O9A 1_555 1_555
O10A C16A 1_555 1_555
O11A H17A 1_555 1_555
H18A O11A 1_555 1_555
O12A H19A 1_555 1_555
H20A O12A 1_555 1_555
Zn1A O2A 1_555 1_555
Zn1A_2 O7 1_555 1_555
Zn1A_3 O6A 1_555 1_555
Zn1_2 O7A 1_555 1_555
C5 C6 1_555 1_555
C9 O5 1_555 1_555
C18 C19 1_555 1_555
C21 O10 1_555 1_555
O6 Zn1 1_555 1_555
O11 Zn1 1_555 1_555
O12 Zn1 1_555 1_555
C5A C6A 1_555 1_555
C9A O5A 1_555 1_555
C10A C11A 1_555 1_555
C10A C12A 1_555 1_555
C18A C19A 1_555 1_555
C21A O10A 1_555 1_555
C22A C23A 1_555 1_555
C22A C24A 1_555 1_555
O11A Zn1A 1_555 1_555
O12A Zn1A 1_555 1_555

#END
