
#######################################################################
#
#                 Cambridge Crystallographic Data Centre
#                                CCDC 
#
#######################################################################
#
# If this CIF has been generated from an entry in the Cambridge 
# Structural Database, then it will include bibliographic, chemical, 
# crystal, experimental, refinement or atomic coordinate data resulting 
# from the CCDC's data processing and validation procedures.
#
#######################################################################

data_FAMCON
_symmetry_cell_setting           orthorhombic
_symmetry_space_group_name_H-M   'C 2 2 21'
_symmetry_Int_Tables_number      20
_space_group_name_Hall           'C 2n 2'
loop_
_symmetry_equiv_pos_site_id
_symmetry_equiv_pos_as_xyz
1 x,y,z
2 -x,-y,1/2+z
3 -x,y,1/2-z
4 x,-y,-z
5 1/2+x,1/2+y,z
6 1/2-x,1/2-y,1/2+z
7 1/2-x,1/2+y,1/2-z
8 1/2+x,1/2-y,-z
_cell_length_a                   4.7998(19)
_cell_length_b                   23.277(18)
_cell_length_c                   30.22(2)
_cell_angle_alpha                90
_cell_angle_beta                 90
_cell_angle_gamma                90
_cell_volume                     3376.33
loop_
_atom_site_label
_atom_site_type_symbol
_atom_site_fract_x
_atom_site_fract_y
_atom_site_fract_z
Cd1 Cd 0.8239(2) 0.46278(4) 0.15223(7)
O1 O 1.4190(18) 0.5013(4) 0.1563(5)
O2 O 1.0298(19) 0.5492(4) 0.1415(6)
O3 O 1.0620(17) 0.8809(3) 0.1493(4)
O4 O 1.325(2) 0.8224(4) 0.1065(4)
O5 O 1.049(5) 0.4269(8) 0.0928(6)
O6 O 1.095(3) 0.4106(7) 0.2025(4)
N1 N 1.273(2) 0.6487(4) 0.1218(3)
N2 N 1.038(2) 0.7274(4) 0.1304(4)
C1 C 1.293(3) 0.5452(5) 0.1465(9)
C2 C 1.455(3) 0.5993(6) 0.1312(8)
H1 H 1.5870 0.6099 0.1540
H2 H 1.5596 0.5899 0.1047
C3 C 1.1183(16) 0.6539(3) 0.0847(3)
C4 C 1.082(2) 0.6220(3) 0.0463(3)
H3 H 1.1824 0.5884 0.0420
C5 C 0.894(2) 0.6405(4) 0.0142(3)
H4 H 0.8697 0.6191 -0.0115
C6 C 0.744(2) 0.6908(4) 0.0206(2)
H5 H 0.6183 0.7031 -0.0009
C7 C 0.7803(18) 0.7227(3) 0.0590(3)
H6 H 0.6796 0.7564 0.0633
C8 C 0.9677(18) 0.7043(3) 0.0911(2)
C9 C 1.219(3) 0.6936(5) 0.1487(7)
H7 H 1.3000 0.6994 0.1763
C10 C 0.947(2) 0.7828(4) 0.1482(3)
H8 H 0.9510 0.7814 0.1803
H9 H 0.7558 0.7899 0.1391
C11 C 1.131(3) 0.8318(5) 0.1322(5)
Cd1_2 Cd 1.8239(2) 0.46278(4) 0.15223(7)
Cd1D Cd 1.3239(2) 0.96278(4) 0.15223(7)
O1_2 O 0.4190(18) 0.5013(4) 0.1563(5)
O3D O 0.5620(17) 0.3809(3) 0.1493(4)
loop_
_geom_bond_atom_site_label_1
_geom_bond_atom_site_label_2
_geom_bond_site_symmetry_1
_geom_bond_site_symmetry_2
Cd1 O2 1_555 1_555
O1 C1 1_555 1_555
O2 C1 1_555 1_555
O3 C11 1_555 1_555
O4 C11 1_555 1_555
O5 Cd1 1_555 1_555
O6 Cd1 1_555 1_555
N1 C2 1_555 1_555
N2 C8 1_555 1_555
C1 C2 1_555 1_555
C2 H1 1_555 1_555
H2 C2 1_555 1_555
C3 N1 1_555 1_555
C4 C3 1_555 1_555
H3 C4 1_555 1_555
C5 C4 1_555 1_555
H4 C5 1_555 1_555
C6 C5 1_555 1_555
H5 C6 1_555 1_555
C7 C6 1_555 1_555
H6 C7 1_555 1_555
C8 C3 1_555 1_555
C9 N1 1_555 1_555
H7 C9 1_555 1_555
C10 N2 1_555 1_555
H8 C10 1_555 1_555
H9 C10 1_555 1_555
C11 C10 1_555 1_555
Cd1_2 O1 1_555 1_555
Cd1D O3 1_555 1_555
O1_2 Cd1 1_555 1_555
O3D Cd1 1_555 1_555
N2 C9 1_555 1_555
C7 C8 1_555 1_555

#END
