
#######################################################################
#
#                 Cambridge Crystallographic Data Centre
#                                CCDC 
#
#######################################################################
#
# If this CIF has been generated from an entry in the Cambridge 
# Structural Database, then it will include bibliographic, chemical, 
# crystal, experimental, refinement or atomic coordinate data resulting 
# from the CCDC's data processing and validation procedures.
#
#######################################################################

data_FAMDEE
_symmetry_cell_setting           triclinic
_symmetry_space_group_name_H-M   'P 1'
_symmetry_Int_Tables_number      1
_space_group_name_Hall           'P 1'
loop_
_symmetry_equiv_pos_site_id
_symmetry_equiv_pos_as_xyz
1 x,y,z
_cell_length_a                   7.0505(9)
_cell_length_b                   7.7448(9)
_cell_length_c                   8.4534(9)
_cell_angle_alpha                107.543(10)
_cell_angle_beta                 95.451(10)
_cell_angle_gamma                98.716(10)
_cell_volume                     430.171
loop_
_atom_site_label
_atom_site_type_symbol
_atom_site_fract_x
_atom_site_fract_y
_atom_site_fract_z
Zn1 Zn 0.08396(7) -0.11872(7) 0.80968(7)
O1 O -0.3028(9) -0.1760(8) 0.6166(9)
O2 O -0.0514(7) 0.0509(7) 0.7274(6)
O3 O -0.8720(7) 0.6881(6) 0.6101(5)
O4 O -0.7425(10) 0.5466(9) 0.7718(7)
O5 O 0.3335(7) 0.0491(7) 0.8941(6)
O6 O 0.4834(8) -0.0052(8) 1.1139(8)
O7 O 0.9457(7) 0.8003(7) 0.9718(6)
O8 O 1.0294(8) 1.0768(7) 1.1700(7)
N1 N -0.5579(8) 0.3544(8) 0.5333(7)
N2 N 0.7576(9) 0.6466(8) 1.1824(8)
C1 C -0.2254(10) -0.0139(10) 0.6576(9)
C2 C -0.3426(10) 0.1159(9) 0.6157(8)
C3 C -0.2654(11) 0.3044(10) 0.6505(10)
H1 H -0.1382 0.3523 0.7034
C4 C -0.3772(12) 0.4171(12) 0.6066(11)
H2 H -0.3240 0.5410 0.6290
C5 C -0.6361(12) 0.1776(11) 0.4997(10)
H3 H -0.7636 0.1340 0.4462
C6 C -0.5309(11) 0.0574(10) 0.5429(9)
H4 H -0.5899 -0.0648 0.5219
C7 C -0.6760(11) 0.4800(10) 0.4914(9)
H5 H -0.7757 0.4105 0.3970
H6 H -0.5943 0.5715 0.4581
C8 C -0.7716(9) 0.5775(9) 0.6394(9)
C9 C 0.4509(10) 0.0902(10) 1.0257(9)
C10 C 0.5677(10) 0.2857(10) 1.0786(9)
C11 C 0.7139(10) 0.3533(10) 1.2152(9)
H7 H 0.7486 0.2760 1.2740
C12 C 0.8073(10) 0.5325(10) 1.2638(8)
H8 H 0.9067 0.5761 1.3546
C13 C 0.6159(10) 0.5868(10) 1.0486(9)
H9 H 0.5816 0.6671 0.9931
C14 C 0.5231(12) 0.4052(13) 0.9957(10)
H10 H 0.4279 0.3625 0.9016
C15 C 0.8490(10) 0.8440(9) 1.2429(9)
H11 H 0.9422 0.8666 1.3423
H12 H 0.7496 0.9159 1.2760
C16 C 0.9508(9) 0.9130(10) 1.1186(9)
Zn1_2 Zn -0.91604(7) 0.88128(7) 0.80968(7)
Zn1_3 Zn 1.08396(7) 0.88128(7) 0.80968(7)
O3_2 O 0.1280(7) -0.3119(6) 0.6101(5)
O7_2 O -0.0543(7) -0.1997(7) 0.9718(6)
O9 O 0.2709(10) -0.2736(8) 1.2326(8)
H13 H 0.3288 -0.1992 1.1949
H14 H 0.2680 -0.3834 1.1965
O10 O 0.0745(11) -0.6201(10) 1.0340(8)
H15 H 0.0630 -0.5567 0.9720
H16 H 0.0422 -0.7120 0.9526
loop_
_geom_bond_atom_site_label_1
_geom_bond_atom_site_label_2
_geom_bond_site_symmetry_1
_geom_bond_site_symmetry_2
Zn1 O2 1_555 1_555
O1 C1 1_555 1_555
O2 C1 1_555 1_555
O3 C8 1_555 1_555
O4 C8 1_555 1_555
O5 Zn1 1_555 1_555
O6 C9 1_555 1_555
O7 C16 1_555 1_555
O8 C16 1_555 1_555
N1 C4 1_555 1_555
N2 C12 1_555 1_555
C1 C2 1_555 1_555
C2 C3 1_555 1_555
C3 H1 1_555 1_555
C4 C3 1_555 1_555
H2 C4 1_555 1_555
C5 N1 1_555 1_555
H3 C5 1_555 1_555
C6 C2 1_555 1_555
H4 C6 1_555 1_555
C7 N1 1_555 1_555
H5 C7 1_555 1_555
H6 C7 1_555 1_555
C8 C7 1_555 1_555
C9 O5 1_555 1_555
C10 C9 1_555 1_555
C11 C10 1_555 1_555
H7 C11 1_555 1_555
C12 C11 1_555 1_555
H8 C12 1_555 1_555
C13 N2 1_555 1_555
H9 C13 1_555 1_555
C14 C10 1_555 1_555
H10 C14 1_555 1_555
C15 N2 1_555 1_555
H11 C15 1_555 1_555
H12 C15 1_555 1_555
C16 C15 1_555 1_555
O9 H13 1_555 1_555
H14 O9 1_555 1_555
O10 H15 1_555 1_555
H16 O10 1_555 1_555
Zn1_2 O3 1_555 1_555
Zn1_3 O7 1_555 1_555
O3_2 Zn1 1_555 1_555
O7_2 Zn1 1_555 1_555
C5 C6 1_555 1_555
C13 C14 1_555 1_555

#END
