
#######################################################################
#
#                 Cambridge Crystallographic Data Centre
#                                CCDC 
#
#######################################################################
#
# If this CIF has been generated from an entry in the Cambridge 
# Structural Database, then it will include bibliographic, chemical, 
# crystal, experimental, refinement or atomic coordinate data resulting 
# from the CCDC's data processing and validation procedures.
#
#######################################################################

data_FAMDII
_symmetry_cell_setting           monoclinic
_symmetry_space_group_name_H-M   'P 2/c'
_symmetry_Int_Tables_number      13
_space_group_name_Hall           '-P 2yc'
loop_
_symmetry_equiv_pos_site_id
_symmetry_equiv_pos_as_xyz
1 x,y,z
2 -x,y,1/2-z
3 -x,-y,-z
4 x,-y,1/2+z
_cell_length_a                   7.8622(5)
_cell_length_b                   7.8443(4)
_cell_length_c                   14.2865(9)
_cell_angle_alpha                90
_cell_angle_beta                 102.523(6)
_cell_angle_gamma                90
_cell_volume                     860.136
loop_
_atom_site_label
_atom_site_type_symbol
_atom_site_fract_x
_atom_site_fract_y
_atom_site_fract_z
Cd1 Cd -0.5000 1.30076(7) 0.2500
O1 O -0.0881(6) 1.2621(5) 0.3783(4)
O2 O -0.3005(6) 1.1060(6) 0.2936(4)
O3 O 0.3311(6) 0.5169(5) 0.2999(3)
O4 O 0.4301(5) 0.3176(5) 0.4067(3)
N1 N 0.1386(6) 0.6710(5) 0.4139(3)
C1 C -0.1511(8) 1.1285(7) 0.3426(4)
C2 C -0.0437(7) 0.9677(7) 0.3639(4)
C3 C -0.1218(7) 0.8107(7) 0.3426(4)
H1 H -0.2383 0.8052 0.3111
C4 C -0.0298(7) 0.6623(6) 0.3672(4)
H2 H -0.0831 0.5571 0.3519
C5 C 0.2192(7) 0.8224(7) 0.4312(4)
H3 H 0.3371 0.8254 0.4602
C6 C 0.1321(7) 0.9717(8) 0.4073(4)
H4 H 0.1899 1.0753 0.4199
C7 C 0.2335(8) 0.5135(7) 0.4476(4)
H5 H 0.1508 0.4268 0.4569
H6 H 0.3111 0.5349 0.5092
C8 C 0.3395(7) 0.4464(7) 0.3782(4)
Cd1_2 Cd 0.5000 0.30076(7) 0.2500
Cd1_3 Cd -1.5000 0.30076(7) 0.2500
O1A O -0.9119(6) 1.2621(5) 0.1217(4)
O2A O -0.6995(6) 1.1060(6) 0.2064(4)
O3A O -1.3311(6) 0.5169(5) 0.2001(3)
O3_2 O -0.6689(6) 1.5169(5) 0.2999(3)
O3A_2 O -0.3311(6) 1.5169(5) 0.2001(3)
O4A O -1.4301(5) 0.3176(5) 0.0933(3)
O4_2 O -0.5699(5) 1.3176(5) 0.4067(3)
O4A_2 O -0.4301(5) 1.3176(5) 0.0933(3)
N1A N -1.1386(6) 0.6710(5) 0.0861(3)
C1A C -0.8489(8) 1.1285(7) 0.1574(4)
C2A C -0.9563(7) 0.9677(7) 0.1361(4)
C3A C -0.8782(7) 0.8107(7) 0.1574(4)
H1A H -0.7617 0.8052 0.1889
C4A C -0.9702(7) 0.6623(6) 0.1328(4)
H2A H -0.9169 0.5571 0.1481
C5A C -1.2192(7) 0.8224(7) 0.0688(4)
H3A H -1.3371 0.8254 0.0398
C6A C -1.1321(7) 0.9717(8) 0.0927(4)
H4A H -1.1899 1.0753 0.0801
C7A C -1.2335(8) 0.5135(7) 0.0524(4)
H5A H -1.1508 0.4268 0.0431
H6A H -1.3111 0.5349 -0.0092
C8A C -1.3395(7) 0.4464(7) 0.1218(4)
loop_
_geom_bond_atom_site_label_1
_geom_bond_atom_site_label_2
_geom_bond_site_symmetry_1
_geom_bond_site_symmetry_2
Cd1 O2 1_555 1_555
O1 C1 1_555 1_555
O2 C1 1_555 1_555
O3 C8 1_555 1_555
O4 C8 1_555 1_555
N1 C4 1_555 1_555
C1 C2 1_555 1_555
C2 C3 1_555 1_555
C3 H1 1_555 1_555
C4 C3 1_555 1_555
H2 C4 1_555 1_555
C5 N1 1_555 1_555
H3 C5 1_555 1_555
C6 C2 1_555 1_555
H4 C6 1_555 1_555
C7 N1 1_555 1_555
H5 C7 1_555 1_555
H6 C7 1_555 1_555
C8 C7 1_555 1_555
Cd1_2 O3 1_555 1_555
Cd1_3 O3A 1_555 1_555
O1A C1A 1_555 1_555
O2A Cd1 1_555 1_555
O3A C8A 1_555 1_555
O3_2 Cd1 1_555 1_555
O3A_2 Cd1 1_555 1_555
O4A Cd1_3 1_555 1_555
O4_2 Cd1 1_555 1_555
O4A_2 Cd1 1_555 1_555
N1A C4A 1_555 1_555
C1A O2A 1_555 1_555
C2A C1A 1_555 1_555
C3A C2A 1_555 1_555
H1A C3A 1_555 1_555
C4A C3A 1_555 1_555
H2A C4A 1_555 1_555
C5A N1A 1_555 1_555
H3A C5A 1_555 1_555
C6A C2A 1_555 1_555
H4A C6A 1_555 1_555
C7A N1A 1_555 1_555
H5A C7A 1_555 1_555
H6A C7A 1_555 1_555
C8A O4A 1_555 1_555
O4 Cd1_2 1_555 1_555
C5 C6 1_555 1_555
C5A C6A 1_555 1_555
C7A C8A 1_555 1_555

#END
