
#######################################################################
#
#                 Cambridge Crystallographic Data Centre
#                                CCDC 
#
#######################################################################
#
# If this CIF has been generated from an entry in the Cambridge 
# Structural Database, then it will include bibliographic, chemical, 
# crystal, experimental, refinement or atomic coordinate data resulting 
# from the CCDC's data processing and validation procedures.
#
#######################################################################

data_FAMDAA
_symmetry_cell_setting           monoclinic
_symmetry_space_group_name_H-M   'P 21/n'
_symmetry_Int_Tables_number      14
_space_group_name_Hall           '-P 2yn'
loop_
_symmetry_equiv_pos_site_id
_symmetry_equiv_pos_as_xyz
1 x,y,z
2 1/2-x,1/2+y,1/2-z
3 -x,-y,-z
4 1/2+x,1/2-y,1/2+z
_cell_length_a                   7.0378(10)
_cell_length_b                   13.4247(19)
_cell_length_c                   13.0933(18)
_cell_angle_alpha                90
_cell_angle_beta                 90.475(13)
_cell_angle_gamma                90
_cell_volume                     1237.02
loop_
_atom_site_label
_atom_site_type_symbol
_atom_site_fract_x
_atom_site_fract_y
_atom_site_fract_z
Cd1 Cd 0.13881(16) 0.44164(8) 0.58734(9)
Cl1 Cl 0.3545(7) 0.3353(3) 0.6869(3)
O1 O 0.251(2) 0.4318(12) 0.4292(10)
O2 O 0.0866(19) 0.5094(12) 0.3060(10)
O3 O 0.405(2) 0.1631(10) 0.0312(10)
O4 O 0.2425(19) 0.0953(9) -0.1003(10)
N1 N 0.2991(19) 0.4124(10) 0.1605(10)
N2 N 0.203(2) 0.3342(10) 0.0238(10)
C1 C 0.222(2) 0.4580(15) 0.3396(14)
C2 C 0.373(3) 0.4248(15) 0.2660(12)
H1 H 0.4744 0.4735 0.2658
H2 H 0.4254 0.3620 0.2892
C3 C 0.247(2) 0.3235(12) 0.1206(12)
H3 H 0.2428 0.2638 0.1565
C4 C 0.285(2) 0.4803(13) 0.0831(13)
C5 C 0.325(2) 0.5794(12) 0.0826(13)
H4 H 0.3725 0.6106 0.1409
C6 C 0.294(2) 0.6336(14) -0.0070(15)
H5 H 0.3167 0.7018 -0.0082
C7 C 0.227(2) 0.5848(13) -0.0956(14)
H6 H 0.2089 0.6211 -0.1554
C8 C 0.188(2) 0.4824(12) -0.0949(12)
H7 H 0.1428 0.4497 -0.1527
C9 C 0.221(2) 0.4314(12) -0.0024(12)
C10 C 0.147(2) 0.2505(12) -0.0460(13)
H8 H 0.1460 0.2743 -0.1159
H9 H 0.0195 0.2290 -0.0295
C11 C 0.280(3) 0.1631(12) -0.0375(14)
Cd1B Cd -0.13881(16) 0.55836(8) 0.41266(9)
Cd1C Cd 0.63881(16) 0.05836(8) 0.08734(9)
Cd1A Cd 0.36119(16) -0.05836(8) -0.08734(9)
O2B O -0.0866(19) 0.4906(12) 0.6940(10)
O3C O -0.095(2) 0.3369(10) 0.5312(10)
O4A O 0.2575(19) 0.5953(9) 0.6003(10)
loop_
_geom_bond_atom_site_label_1
_geom_bond_atom_site_label_2
_geom_bond_site_symmetry_1
_geom_bond_site_symmetry_2
Cd1 Cl1 1_555 1_555
O1 Cd1 1_555 1_555
O2 C1 1_555 1_555
O3 C11 1_555 1_555
O4 C11 1_555 1_555
N1 C2 1_555 1_555
N2 C3 1_555 1_555
C1 O1 1_555 1_555
C2 C1 1_555 1_555
H1 C2 1_555 1_555
H2 C2 1_555 1_555
C3 N1 1_555 1_555
H3 C3 1_555 1_555
C4 N1 1_555 1_555
C5 C4 1_555 1_555
H4 C5 1_555 1_555
C6 C5 1_555 1_555
H5 C6 1_555 1_555
C7 C6 1_555 1_555
H6 C7 1_555 1_555
C8 C7 1_555 1_555
H7 C8 1_555 1_555
C9 N2 1_555 1_555
C10 N2 1_555 1_555
H8 C10 1_555 1_555
H9 C10 1_555 1_555
C11 C10 1_555 1_555
Cd1B O2 1_555 1_555
Cd1C O3 1_555 1_555
Cd1A O4 1_555 1_555
O2B Cd1 1_555 1_555
O3C Cd1 1_555 1_555
O4A Cd1 1_555 1_555
C4 C9 1_555 1_555
C8 C9 1_555 1_555

#END
