
#######################################################################
#
#                 Cambridge Crystallographic Data Centre
#                                CCDC 
#
#######################################################################
#
# If this CIF has been generated from an entry in the Cambridge 
# Structural Database, then it will include bibliographic, chemical, 
# crystal, experimental, refinement or atomic coordinate data resulting 
# from the CCDC's data processing and validation procedures.
#
#######################################################################

data_FAMDUU
_symmetry_cell_setting           orthorhombic
_symmetry_space_group_name_H-M   'I b a m'
_symmetry_Int_Tables_number      72
_space_group_name_Hall           '-I 2 2c'
loop_
_symmetry_equiv_pos_site_id
_symmetry_equiv_pos_as_xyz
1 x,y,z
2 -x,-y,z
3 x,-y,1/2-z
4 -x,y,1/2-z
5 1/2+x,1/2+y,1/2+z
6 1/2-x,1/2-y,1/2+z
7 1/2+x,1/2-y,-z
8 1/2-x,1/2+y,-z
9 -x,-y,-z
10 x,y,-z
11 -x,y,1/2+z
12 x,-y,1/2+z
13 1/2-x,1/2-y,1/2-z
14 1/2+x,1/2+y,1/2-z
15 1/2-x,1/2+y,z
16 1/2+x,1/2-y,z
_cell_length_a                   9.2137(14)
_cell_length_b                   28.298(3)
_cell_length_c                   20.620(2)
_cell_angle_alpha                90
_cell_angle_beta                 90
_cell_angle_gamma                90
_cell_volume                     5376.24
loop_
_atom_site_label
_atom_site_type_symbol
_atom_site_fract_x
_atom_site_fract_y
_atom_site_fract_z
C1 C -0.7786(5) -0.89921(13) -0.61094(18)
C2 C -0.7801(8) -0.93306(19) -0.6683(2)
C3 C -0.8193(13) -0.9186(3) -0.7281(4)
C4 C -0.8061(18) -0.9483(4) -0.7830(5)
C5 C -0.7184(12) -0.9928(2) -0.7794(3)
C6 C -0.7052(11) -0.9752(2) -0.6636(3)
O1 O -0.6836(3) -0.90730(8) -0.56898(12)
O2 O -0.8661(4) -0.86589(12) -0.60991(18)
Co1 Co -0.60497(7) -0.86075(2) -0.5000
N1 N -0.4020(5) -0.89817(14) -0.5000
N2 N -0.5208(3) -0.81845(10) -0.58094(15)
O3 O -0.7960(4) -0.81894(11) -0.5000
H1 H -0.8333 -0.8304 -0.4671
C7 C -0.2721(7) -0.8776(2) -0.5000
H2 H -0.2688 -0.8447 -0.5000
C8 C -0.1428(7) -0.9016(2) -0.5000
H3 H -0.0555 -0.8851 -0.5000
C9 C -0.1431(6) -0.95079(19) -0.5000
C10 C -0.2776(6) -0.97202(18) -0.5000
H4 H -0.2850 -1.0048 -0.5000
C11 C -0.4001(6) -0.94494(18) -0.5000
H5 H -0.4890 -0.9605 -0.5000
C12 C -0.0067(6) -0.97634(19) -0.5000
H6 H 0.0782 -0.9586 -0.5000
C13 C -0.4476(6) -0.84083(16) -0.6278(3)
H7 H -0.4465 -0.8737 -0.6272
C14 C -0.3741(6) -0.81833(19) -0.6767(3)
H8 H -0.3260 -0.8358 -0.7083
C15 C -0.3722(5) -0.76900(16) -0.6787(2)
C16 C -0.4547(6) -0.74633(15) -0.63264(19)
H9 H -0.4626 -0.7136 -0.6333
C17 C -0.5253(5) -0.77187(13) -0.58565(18)
H10 H -0.5798 -0.7554 -0.5552
C18 C -0.2919(5) -0.74156(18) -0.7275(2)
H11 H -0.3020 -0.7089 -0.7259
C1B C -0.7786(5) -1.10079(13) -0.88906(18)
C1I C -0.7786(5) -0.89921(13) -0.38906(18)
C1K C -0.7786(5) -1.10079(13) -0.11094(18)
C2B C -0.7801(8) -1.06694(19) -0.8317(2)
C2I C -0.7801(8) -0.93306(19) -0.3317(2)
C2K C -0.7801(8) -1.06694(19) -0.1683(2)
C3B C -0.8193(13) -1.0814(3) -0.7719(4)
C3I C -0.8193(13) -0.9186(3) -0.2719(4)
C3K C -0.8193(13) -1.0814(3) -0.2281(4)
C4B C -0.8061(18) -1.0517(4) -0.7170(5)
C4I C -0.8061(18) -0.9483(4) -0.2170(5)
C4K C -0.8061(18) -1.0517(4) -0.2830(5)
C5B C -0.7184(12) -1.0072(2) -0.7206(3)
C5I C -0.7184(12) -0.9928(2) -0.2206(3)
C5K C -0.7184(12) -1.0072(2) -0.2794(3)
C6B C -0.7052(11) -1.0248(2) -0.8364(3)
C6I C -0.7052(11) -0.9752(2) -0.3364(3)
C6K C -0.7052(11) -1.0248(2) -0.1636(3)
O1B O -0.6836(3) -1.09270(8) -0.93102(12)
O1I O -0.6836(3) -0.90730(8) -0.43102(12)
O1K O -0.6836(3) -1.09270(8) -0.06898(12)
O1K_2 O -0.6836(3) -1.09270(8) -1.06898(12)
O2B O -0.8661(4) -1.13411(12) -0.89009(18)
O2I O -0.8661(4) -0.86589(12) -0.39009(18)
O2K O -0.8661(4) -1.13411(12) -0.10991(18)
Co1B Co -0.60497(7) -1.13925(2) -1.0000
Co1A Co 0.60497(7) -1.13925(2) -0.5000
Co1E Co 0.10497(7) -0.63925(2) -1.0000
Co1E_2 Co 0.10497(7) -0.63925(2) 0.0000
Co1B_2 Co -0.60497(7) -1.13925(2) 0.0000
N1A N 0.4020(5) -1.10183(14) -0.5000
N1B N -0.4020(5) -1.10183(14) -1.0000
N2L N 0.0208(3) -0.68155(10) -0.91906(15)
N2I N -0.5208(3) -0.81845(10) -0.41906(15)
N2E N 0.0208(3) -0.68155(10) -0.08094(15)
N2B N -0.5208(3) -1.18155(10) -0.91906(15)
N2K N -0.5208(3) -1.18155(10) -1.08094(15)
O3B O -0.7960(4) -1.18106(11) -1.0000
H1I H -0.8333 -0.8304 -0.5329
H1B H -0.8333 -1.1696 -1.0329
H1K H -0.8333 -1.1696 -0.9671
C7A C 0.2721(7) -1.1224(2) -0.5000
H2A H 0.2688 -1.1553 -0.5000
C8A C 0.1428(7) -1.0984(2) -0.5000
H3A H 0.0555 -1.1149 -0.5000
C9A C 0.1431(6) -1.04921(19) -0.5000
C10A C 0.2776(6) -1.02798(18) -0.5000
H4A H 0.2850 -0.9952 -0.5000
C11A C 0.4001(6) -1.05506(18) -0.5000
H5A H 0.4890 -1.0395 -0.5000
C12A C 0.0067(6) -1.02366(19) -0.5000
H6A H -0.0782 -1.0414 -0.5000
C13L C -0.0524(6) -0.65917(16) -0.8722(3)
C13I C -0.4476(6) -0.84083(16) -0.3722(3)
C13E C -0.0524(6) -0.65917(16) -0.1278(3)
H7L H -0.0535 -0.6263 -0.8728
H7I H -0.4465 -0.8737 -0.3728
H7E H -0.0535 -0.6263 -0.1272
C14L C -0.1259(6) -0.68167(19) -0.8233(3)
C14I C -0.3741(6) -0.81833(19) -0.3233(3)
C14E C -0.1259(6) -0.68167(19) -0.1767(3)
H8L H -0.1740 -0.6642 -0.7917
H8I H -0.3260 -0.8358 -0.2917
H8E H -0.1740 -0.6642 -0.2083
C15L C -0.1278(5) -0.73100(16) -0.8213(2)
C15I C -0.3722(5) -0.76900(16) -0.3213(2)
C15E C -0.1278(5) -0.73100(16) -0.1787(2)
C16L C -0.0453(6) -0.75367(15) -0.86736(19)
C16I C -0.4547(6) -0.74633(15) -0.36736(19)
C16E C -0.0453(6) -0.75367(15) -0.13264(19)
H9L H -0.0374 -0.7864 -0.8667
H9I H -0.4626 -0.7136 -0.3667
H9E H -0.0374 -0.7864 -0.1333
C17L C 0.0253(5) -0.72813(13) -0.91435(18)
C17I C -0.5253(5) -0.77187(13) -0.41435(18)
C17E C 0.0253(5) -0.72813(13) -0.08565(18)
H10L H 0.0798 -0.7446 -0.9448
H10I H -0.5798 -0.7554 -0.4448
H10E H 0.0798 -0.7446 -0.0552
C18L C -0.2081(5) -0.75844(18) -0.7725(2)
C18I C -0.2919(5) -0.74156(18) -0.2725(2)
C18E C -0.2081(5) -0.75844(18) -0.2275(2)
H11L H -0.1980 -0.7911 -0.7741
H11I H -0.3020 -0.7089 -0.2741
H11E H -0.1980 -0.7911 -0.2259
loop_
_geom_bond_atom_site_label_1
_geom_bond_atom_site_label_2
_geom_bond_site_symmetry_1
_geom_bond_site_symmetry_2
C1 C2 1_555 1_555
C2 C3 1_555 1_555
C3 C4 1_555 1_555
C4 C5 1_555 1_555
C5 C5B 1_555 1_555
C6 C2 1_555 1_555
O1 C1 1_555 1_555
O2 C1 1_555 1_555
Co1 O1 1_555 1_555
N1 Co1 1_555 1_555
N2 Co1 1_555 1_555
O3 Co1 1_555 1_555
H1 O3 1_555 1_555
C7 N1 1_555 1_555
H2 C7 1_555 1_555
C8 C7 1_555 1_555
H3 C8 1_555 1_555
C9 C8 1_555 1_555
C10 C9 1_555 1_555
H4 C10 1_555 1_555
C11 N1 1_555 1_555
H5 C11 1_555 1_555
C12 C9 1_555 1_555
H6 C12 1_555 1_555
C13 N2 1_555 1_555
H7 C13 1_555 1_555
C14 C13 1_555 1_555
H8 C14 1_555 1_555
C15 C14 1_555 1_555
C16 C15 1_555 1_555
H9 C16 1_555 1_555
C17 N2 1_555 1_555
H10 C17 1_555 1_555
C18 C15 1_555 1_555
H11 C18 1_555 1_555
C1B C2B 1_555 1_555
C1I C2I 1_555 1_555
C1K C2K 1_555 1_555
C2B C3B 1_555 1_555
C2I C3I 1_555 1_555
C2K C3K 1_555 1_555
C3B C4B 1_555 1_555
C3I C4I 1_555 1_555
C3K C4K 1_555 1_555
C4B C5B 1_555 1_555
C4I C5I 1_555 1_555
C4K C5K 1_555 1_555
C5B C6 1_555 1_555
C5I C5K 1_555 1_555
C5K C6I 1_555 1_555
C6B C5 1_555 1_555
C6I C2I 1_555 1_555
C6K C2K 1_555 1_555
O1B C1B 1_555 1_555
O1I Co1 1_555 1_555
O1K C1K 1_555 1_555
O1K_2 Co1B 1_555 1_555
O2B C1B 1_555 1_555
O2I C1I 1_555 1_555
O2K C1K 1_555 1_555
Co1B O1B 1_555 1_555
Co1A N1A 1_555 1_555
Co1E N2L 1_555 1_555
Co1E_2 N2E 1_555 1_555
Co1B_2 O1K 1_555 1_555
N1A C7A 1_555 1_555
N1B Co1B 1_555 1_555
N2L C13L 1_555 1_555
N2I Co1 1_555 1_555
N2E C13E 1_555 1_555
N2B Co1B 1_555 1_555
N2K Co1B 1_555 1_555
O3B Co1B 1_555 1_555
H1I O3 1_555 1_555
H1B O3B 1_555 1_555
H1K O3B 1_555 1_555
C7A H2A 1_555 1_555
C8A C7A 1_555 1_555
H3A C8A 1_555 1_555
C9A C8A 1_555 1_555
C10A C9A 1_555 1_555
H4A C10A 1_555 1_555
C11A N1A 1_555 1_555
H5A C11A 1_555 1_555
C12A C12 1_555 1_555
H6A C12A 1_555 1_555
C13L H7L 1_555 1_555
C13I N2I 1_555 1_555
C13E H7E 1_555 1_555
H7I C13I 1_555 1_555
C14L C13L 1_555 1_555
C14I C13I 1_555 1_555
C14E C13E 1_555 1_555
H8L C14L 1_555 1_555
H8I C14I 1_555 1_555
H8E C14E 1_555 1_555
C15L C14L 1_555 1_555
C15I C14I 1_555 1_555
C15E C14E 1_555 1_555
C16L C15L 1_555 1_555
C16I C15I 1_555 1_555
C16E C15E 1_555 1_555
H9L C16L 1_555 1_555
H9I C16I 1_555 1_555
H9E C16E 1_555 1_555
C17L N2L 1_555 1_555
C17I N2I 1_555 1_555
C17E N2E 1_555 1_555
H10L C17L 1_555 1_555
H10I C17I 1_555 1_555
H10E C17E 1_555 1_555
C18L C18 1_555 1_555
C18I C15I 1_555 1_555
C18E C15E 1_555 1_555
H11L C18L 1_555 1_555
H11I C18I 1_555 1_555
H11E C18E 1_555 1_555
C10 C11 1_555 1_555
C16 C17 1_555 1_555
C1I O1I 1_555 1_555
C2B C6B 1_555 1_555
C5I C6K 1_555 1_555
C9A C12A 1_555 1_555
C10A C11A 1_555 1_555
C15L C18L 1_555 1_555
C16L C17L 1_555 1_555
C16I C17I 1_555 1_555
C16E C17E 1_555 1_555
C18I C18E 1_555 1_555

#END
