
#######################################################################
#
#                 Cambridge Crystallographic Data Centre
#                                CCDC 
#
#######################################################################
#
# If this CIF has been generated from an entry in the Cambridge 
# Structural Database, then it will include bibliographic, chemical, 
# crystal, experimental, refinement or atomic coordinate data resulting 
# from the CCDC's data processing and validation procedures.
#
#######################################################################

data_FAMFAB
_symmetry_cell_setting           monoclinic
_symmetry_space_group_name_H-M   'P 21/n'
_symmetry_Int_Tables_number      14
_space_group_name_Hall           '-P 2yn'
loop_
_symmetry_equiv_pos_site_id
_symmetry_equiv_pos_as_xyz
1 x,y,z
2 1/2-x,1/2+y,1/2-z
3 -x,-y,-z
4 1/2+x,1/2-y,1/2+z
_cell_length_a                   10.7603(5)
_cell_length_b                   19.7598(9)
_cell_length_c                   13.2294(6)
_cell_angle_alpha                90
_cell_angle_beta                 94.8060(10)
_cell_angle_gamma                90
_cell_volume                     2802.96
loop_
_atom_site_label
_atom_site_type_symbol
_atom_site_fract_x
_atom_site_fract_y
_atom_site_fract_z
C1 C 1.0296(3) 0.28427(15) 0.8269(2)
H1 H 0.9664 0.2498 0.8329
H2 H 1.0541 0.2827 0.7580
C2 C 1.1445(3) 0.26673(17) 0.9008(2)
H3 H 1.2123 0.2973 0.8891
H4 H 1.1717 0.2210 0.8876
C3 C 0.7742(3) 0.43863(17) 0.5183(3)
C4 C 0.7542(3) 0.38909(15) 0.8589(2)
C5 C 0.6857(3) 0.33195(18) 0.8792(3)
H5 H 0.7253 0.2901 0.8836
C6 C 0.5598(3) 0.3358(2) 0.8932(3)
H6 H 0.5156 0.2969 0.9072
C7 C 0.5012(4) 0.3971(2) 0.8863(3)
H7 H 0.4171 0.4002 0.8972
C8 C 0.5648(4) 0.4532(2) 0.8637(3)
H8 H 0.5233 0.4944 0.8569
C9 C 0.6908(3) 0.45031(18) 0.8503(3)
H9 H 0.7333 0.4896 0.8355
C10 C 1.0549(3) 0.47076(14) 0.8359(2)
C11 C 1.1609(3) 0.48340(17) 0.9001(2)
H10 H 1.1818 0.4542 0.9540
C12 C 1.2363(3) 0.5391(2) 0.8854(3)
H11 H 1.3076 0.5466 0.9285
C13 C 1.2050(4) 0.58299(19) 0.8069(3)
H12 H 1.2559 0.6199 0.7963
C14 C 1.0994(4) 0.57254(18) 0.7443(3)
H13 H 1.0775 0.6030 0.6923
C15 C 1.0251(3) 0.51693(16) 0.7581(2)
H14 H 0.9537 0.5102 0.7147
C16 C 0.9465(3) 0.21643(15) 1.0961(2)
C17 C 0.9556(3) 0.14923(18) 1.1244(3)
H15 H 1.0337 0.1289 1.1333
C18 C 0.8501(4) 0.1114(2) 1.1397(3)
H16 H 0.8586 0.0662 1.1583
C19 C 0.7358(4) 0.1395(2) 1.1281(3)
H17 H 0.6657 0.1137 1.1387
C20 C 0.7232(4) 0.2061(2) 1.1006(3)
H18 H 0.6444 0.2256 1.0921
C21 C 0.8281(3) 0.24452(19) 1.0853(3)
H19 H 0.8187 0.2899 1.0676
C22 C 1.2245(3) 0.32337(14) 1.1664(2)
C23 C 1.1898(4) 0.33653(18) 1.2624(3)
H20 H 1.1109 0.3240 1.2795
C24 C 1.2733(7) 0.3689(2) 1.3349(4)
H21 H 1.2498 0.3778 1.3996
C25 C 1.3880(7) 0.3869(2) 1.3094(7)
H22 H 1.4426 0.4089 1.3568
C26 C 1.4245(5) 0.3734(2) 1.2160(6)
H23 H 1.5042 0.3851 1.2000
C27 C 1.3435(4) 0.3422(2) 1.1449(4)
H24 H 1.3691 0.3336 1.0808
O1 O 0.9997(3) 0.36478(13) 1.0091(2)
O2 O 0.9163(2) 0.38399(11) 0.66114(16)
O3 O 0.7320(2) 0.32366(10) 0.59793(17)
O4 O 0.9073(2) 0.33164(13) 0.49497(19)
F1 F 0.6988(2) 0.42538(13) 0.43715(17)
F2 F 0.8612(3) 0.48001(12) 0.49214(19)
F3 F 0.7095(3) 0.47003(11) 0.5843(2)
S1 S 0.84107(7) 0.36044(4) 0.57265(5)
Sn1 Sn 0.949575(17) 0.380609(9) 0.851626(15)
Sn2 Sn 1.102205(18) 0.274476(10) 1.055230(14)
H25 H 0.986(4) 0.3820(19) 1.036(3)
O3C O 1.2320(2) 0.17634(10) 1.09793(17)
Sn2C Sn 0.602205(18) 0.225524(10) 0.555230(14)
loop_
_geom_bond_atom_site_label_1
_geom_bond_atom_site_label_2
_geom_bond_site_symmetry_1
_geom_bond_site_symmetry_2
C1 H1 1_555 1_555
H2 C1 1_555 1_555
C2 C1 1_555 1_555
H3 C2 1_555 1_555
H4 C2 1_555 1_555
C3 F1 1_555 1_555
C4 C5 1_555 1_555
C5 H5 1_555 1_555
C6 C5 1_555 1_555
H6 C6 1_555 1_555
C7 C6 1_555 1_555
H7 C7 1_555 1_555
C8 C7 1_555 1_555
H8 C8 1_555 1_555
C9 C4 1_555 1_555
H9 C9 1_555 1_555
C10 C11 1_555 1_555
C11 H10 1_555 1_555
C12 C11 1_555 1_555
H11 C12 1_555 1_555
C13 C12 1_555 1_555
H12 C13 1_555 1_555
C14 C13 1_555 1_555
H13 C14 1_555 1_555
C15 C10 1_555 1_555
H14 C15 1_555 1_555
C16 C17 1_555 1_555
C17 H15 1_555 1_555
C18 C17 1_555 1_555
H16 C18 1_555 1_555
C19 C18 1_555 1_555
H17 C19 1_555 1_555
C20 C19 1_555 1_555
H18 C20 1_555 1_555
C21 C16 1_555 1_555
H19 C21 1_555 1_555
C22 C23 1_555 1_555
C23 H20 1_555 1_555
C24 C23 1_555 1_555
H21 C24 1_555 1_555
C25 C24 1_555 1_555
H22 C25 1_555 1_555
C26 C25 1_555 1_555
H23 C26 1_555 1_555
C27 C22 1_555 1_555
H24 C27 1_555 1_555
O1 Sn1 1_555 1_555
O2 S1 1_555 1_555
O3 S1 1_555 1_555
O4 S1 1_555 1_555
F2 C3 1_555 1_555
F3 C3 1_555 1_555
S1 C3 1_555 1_555
Sn1 C1 1_555 1_555
Sn2 C2 1_555 1_555
H25 O1 1_555 1_555
O3C Sn2 1_555 1_555
Sn2C O3 1_555 1_555
C4 Sn1 1_555 1_555
C8 C9 1_555 1_555
C10 Sn1 1_555 1_555
C14 C15 1_555 1_555
C16 Sn2 1_555 1_555
C20 C21 1_555 1_555
C22 Sn2 1_555 1_555
C26 C27 1_555 1_555
O1 Sn2 1_555 1_555
O2 Sn1 1_555 1_555

#END
