
#######################################################################
#
#                 Cambridge Crystallographic Data Centre
#                                CCDC 
#
#######################################################################
#
# If this CIF has been generated from an entry in the Cambridge 
# Structural Database, then it will include bibliographic, chemical, 
# crystal, experimental, refinement or atomic coordinate data resulting 
# from the CCDC's data processing and validation procedures.
#
#######################################################################

data_FAMHAE01
_symmetry_cell_setting           tetragonal
_symmetry_space_group_name_H-M   'P 41'
_symmetry_Int_Tables_number      76
_space_group_name_Hall           'P 4w'
loop_
_symmetry_equiv_pos_site_id
_symmetry_equiv_pos_as_xyz
1 x,y,z
2 -x,-y,1/2+z
3 -y,x,1/4+z
4 y,-x,3/4+z
_cell_length_a                   12.2640(17)
_cell_length_b                   12.2640(17)
_cell_length_c                   5.2535(11)
_cell_angle_alpha                90
_cell_angle_beta                 90
_cell_angle_gamma                90
_cell_volume                     790.156
loop_
_atom_site_label
_atom_site_type_symbol
_atom_site_fract_x
_atom_site_fract_y
_atom_site_fract_z
Co1 Co 0.17871(6) 0.51530(6) 0.21753(16)
S1 S 0.06093(14) 0.19272(13) 0.1529(4)
N1 N 0.1159(4) 0.3736(3) 0.4019(10)
H1 H 0.0909 0.3957 0.5267
C1 C 0.0244(5) 0.3302(4) 0.2529(13)
H2 H -0.0415 0.3279 0.3585
C2 C 0.0030(5) 0.3962(5) 0.0164(13)
C3 C 0.2035(4) 0.2936(4) 0.4350(14)
H3 H 0.2341 0.3024 0.6061
C4 C 0.2931(5) 0.3139(5) 0.2428(13)
C5 C 0.1545(5) 0.1812(4) 0.4156(14)
H4 H 0.1166 0.1617 0.5711
H5 H 0.2102 0.1270 0.3811
O1 O -0.0818(3) 0.3721(3) -0.1026(9)
O2 O 0.0698(3) 0.4677(3) -0.0540(10)
O3 O 0.2927(3) 0.3988(3) 0.1140(9)
O4 O 0.3674(3) 0.2434(3) 0.2208(10)
O5 O 0.2905(3) 0.5501(4) 0.5020(9)
H6 H 0.2588 0.5775 0.6237
H7 H 0.3583 0.5399 0.4687
Co1A Co -0.17871(6) 0.48470(6) -0.28247(16)
Co1B Co 0.48470(6) 0.17871(6) 0.46753(16)
O1A O 0.0818(3) 0.6279(3) 0.3974(9)
O4C O 0.2434(3) 0.6326(3) -0.0292(10)
O6 O 0.4872(18) 0.5046(13) 0.992(9)
loop_
_geom_bond_atom_site_label_1
_geom_bond_atom_site_label_2
_geom_bond_site_symmetry_1
_geom_bond_site_symmetry_2
Co1 N1 1_555 1_555
S1 C1 1_555 1_555
N1 H1 1_555 1_555
C1 N1 1_555 1_555
H2 C1 1_555 1_555
C2 C1 1_555 1_555
C3 N1 1_555 1_555
H3 C3 1_555 1_555
C4 C3 1_555 1_555
C5 S1 1_555 1_555
H4 C5 1_555 1_555
H5 C5 1_555 1_555
O1 C2 1_555 1_555
O2 Co1 1_555 1_555
O3 Co1 1_555 1_555
O4 C4 1_555 1_555
O5 Co1 1_555 1_555
H6 O5 1_555 1_555
H7 O5 1_555 1_555
Co1A O1 1_555 1_555
Co1B O4 1_555 1_555
O1A Co1 1_555 1_555
O4C Co1 1_555 1_555
C2 O2 1_555 1_555
C3 C5 1_555 1_555
C4 O3 1_555 1_555

#END
