
#######################################################################
#
#                 Cambridge Crystallographic Data Centre
#                                CCDC 
#
#######################################################################
#
# If this CIF has been generated from an entry in the Cambridge 
# Structural Database, then it will include bibliographic, chemical, 
# crystal, experimental, refinement or atomic coordinate data resulting 
# from the CCDC's data processing and validation procedures.
#
#######################################################################

data_FAMMIQ
_symmetry_cell_setting           monoclinic
_symmetry_space_group_name_H-M   'P 21/n'
_symmetry_Int_Tables_number      14
_space_group_name_Hall           '-P 2yn'
loop_
_symmetry_equiv_pos_site_id
_symmetry_equiv_pos_as_xyz
1 x,y,z
2 1/2-x,1/2+y,1/2-z
3 -x,-y,-z
4 1/2+x,1/2-y,1/2+z
_cell_length_a                   7.894(4)
_cell_length_b                   15.171(8)
_cell_length_c                   12.640(4)
_cell_angle_alpha                90
_cell_angle_beta                 94.45(3)
_cell_angle_gamma                90
_cell_volume                     1509.2
loop_
_atom_site_label
_atom_site_type_symbol
_atom_site_fract_x
_atom_site_fract_y
_atom_site_fract_z
Cr1 Cr 0.0264(1) 0.11121(5) 0.70729(6)
Mn1 Mn 0.5000 0.0000 0.5000
N1 N 0.2783(6) 0.0887(3) 0.5236(4)
N2 N 0.0322(7) 0.3199(4) 0.7147(4)
N3 N 0.6857(6) 0.1043(3) 0.5520(4)
N4 N 0.3878(8) 0.1031(4) 0.8362(5)
N5 N -0.1088(6) 0.1046(3) 0.8401(3)
N6 N -0.0001(5) -0.0229(3) 0.7243(3)
C1 C 0.1773(7) 0.1008(3) 0.5823(4)
C2 C 0.0339(7) 0.2454(4) 0.7077(4)
C3 C 0.8051(7) 0.1129(3) 0.6067(5)
C4 C 0.2542(7) 0.1079(4) 0.7969(4)
C5 C -0.1528(8) 0.1727(4) 0.8979(5)
C6 C -0.2436(8) 0.1631(4) 0.9858(5)
C7 C -0.2870(8) 0.0799(5) 1.0163(5)
C8 C -0.2401(7) 0.0101(4) 0.9583(5)
C9 C -0.1503(6) 0.0225(4) 0.8710(4)
C10 C -0.0887(6) -0.0490(4) 0.8059(4)
C11 C -0.1136(8) -0.1360(4) 0.8263(5)
C12 C -0.0465(9) -0.1991(4) 0.7636(6)
C13 C 0.0428(8) -0.1730(4) 0.6806(5)
C14 C 0.0622(7) -0.0844(4) 0.6625(5)
O1 O 0.5026(6) -0.0286(3) 0.6690(3)
H1 H -0.1185 0.2333 0.8768
H2 H -0.2774 0.2159 1.0267
H3 H -0.3522 0.0709 1.0801
H4 H -0.2713 -0.0510 0.9794
H5 H -0.1807 -0.1540 0.8867
H6 H -0.0627 -0.2632 0.7785
H7 H 0.0931 -0.2175 0.6338
H8 H 0.1254 -0.0652 0.6009
Cr1B Cr 0.9736(1) -0.11121(5) 0.29271(6)
Cr1_2 Cr 1.0264(1) 0.11121(5) 0.70729(6)
Cr1B_2 Cr -0.0264(1) -0.11121(5) 0.29271(6)
N1B N 0.7217(6) -0.0887(3) 0.4764(4)
N2B N 0.9678(7) -0.3199(4) 0.2853(4)
N3B N 0.3143(6) -0.1043(3) 0.4480(4)
N4B N 0.6122(8) -0.1031(4) 0.1638(5)
N5B N 1.1088(6) -0.1046(3) 0.1599(3)
N6B N 1.0001(5) 0.0229(3) 0.2757(3)
C1B C 0.8227(7) -0.1008(3) 0.4177(4)
C2B C 0.9661(7) -0.2454(4) 0.2923(4)
C3B C 0.1949(7) -0.1129(3) 0.3933(5)
C3_2 C -0.1949(7) 0.1129(3) 0.6067(5)
C3B_2 C 1.1949(7) -0.1129(3) 0.3933(5)
C4B C 0.7458(7) -0.1079(4) 0.2031(4)
C5B C 1.1528(8) -0.1727(4) 0.1021(5)
C6B C 1.2436(8) -0.1631(4) 0.0142(5)
C7B C 1.2870(8) -0.0799(5) -0.0163(5)
C8B C 1.2401(7) -0.0101(4) 0.0417(5)
C9B C 1.1503(6) -0.0225(4) 0.1290(4)
C10B C 1.0887(6) 0.0490(4) 0.1941(4)
C11B C 1.1136(8) 0.1360(4) 0.1737(5)
C12B C 1.0465(9) 0.1991(4) 0.2364(6)
C13B C 0.9572(8) 0.1730(4) 0.3194(5)
C14B C 0.9378(7) 0.0844(4) 0.3375(5)
O1B O 0.4974(6) 0.0286(3) 0.3310(3)
H1B H 1.1185 -0.2333 0.1232
H2B H 1.2774 -0.2159 -0.0267
H3B H 1.3522 -0.0709 -0.0801
H4B H 1.2713 0.0510 0.0206
H5B H 1.1807 0.1540 0.1133
H6B H 1.0627 0.2632 0.2215
H7B H 0.9069 0.2175 0.3662
H8B H 0.8746 0.0652 0.3991
loop_
_geom_bond_atom_site_label_1
_geom_bond_atom_site_label_2
_geom_bond_site_symmetry_1
_geom_bond_site_symmetry_2
Cr1 N5 1_555 1_555
Mn1 N1 1_555 1_555
N1 C1 1_555 1_555
N2 C2 1_555 1_555
N3 Mn1 1_555 1_555
N4 C4 1_555 1_555
N5 C5 1_555 1_555
N6 Cr1 1_555 1_555
C1 Cr1 1_555 1_555
C2 Cr1 1_555 1_555
C3 N3 1_555 1_555
C4 Cr1 1_555 1_555
C5 C6 1_555 1_555
C6 C7 1_555 1_555
C7 C8 1_555 1_555
C8 C9 1_555 1_555
C9 N5 1_555 1_555
C10 N6 1_555 1_555
C11 C10 1_555 1_555
C12 C11 1_555 1_555
C13 C12 1_555 1_555
C14 N6 1_555 1_555
O1 Mn1 1_555 1_555
H1 C5 1_555 1_555
H2 C6 1_555 1_555
H3 C7 1_555 1_555
H4 C8 1_555 1_555
H5 C11 1_555 1_555
H6 C12 1_555 1_555
H7 C13 1_555 1_555
H8 C14 1_555 1_555
Cr1B N5B 1_555 1_555
Cr1_2 C3 1_555 1_555
Cr1B_2 C3B 1_555 1_555
N1B Mn1 1_555 1_555
N2B C2B 1_555 1_555
N3B Mn1 1_555 1_555
N4B C4B 1_555 1_555
N5B C5B 1_555 1_555
N6B Cr1B 1_555 1_555
C1B Cr1B 1_555 1_555
C2B Cr1B 1_555 1_555
C3B N3B 1_555 1_555
C3_2 Cr1 1_555 1_555
C3B_2 Cr1B 1_555 1_555
C4B Cr1B 1_555 1_555
C5B C6B 1_555 1_555
C6B C7B 1_555 1_555
C7B C8B 1_555 1_555
C8B C9B 1_555 1_555
C9B N5B 1_555 1_555
C10B N6B 1_555 1_555
C11B C10B 1_555 1_555
C12B C11B 1_555 1_555
C13B C12B 1_555 1_555
C14B N6B 1_555 1_555
O1B Mn1 1_555 1_555
H1B C5B 1_555 1_555
H2B C6B 1_555 1_555
H3B C7B 1_555 1_555
H4B C8B 1_555 1_555
H5B C11B 1_555 1_555
H6B C12B 1_555 1_555
H7B C13B 1_555 1_555
H8B C14B 1_555 1_555
C9 C10 1_555 1_555
C13 C14 1_555 1_555
N1B C1B 1_555 1_555
C9B C10B 1_555 1_555
C13B C14B 1_555 1_555

#END
