
#######################################################################
#
#                 Cambridge Crystallographic Data Centre
#                                CCDC 
#
#######################################################################
#
# If this CIF has been generated from an entry in the Cambridge 
# Structural Database, then it will include bibliographic, chemical, 
# crystal, experimental, refinement or atomic coordinate data resulting 
# from the CCDC's data processing and validation procedures.
#
#######################################################################

data_FAMMOW
_symmetry_cell_setting           monoclinic
_symmetry_space_group_name_H-M   'P 21/n'
_symmetry_Int_Tables_number      14
_space_group_name_Hall           '-P 2yn'
loop_
_symmetry_equiv_pos_site_id
_symmetry_equiv_pos_as_xyz
1 x,y,z
2 1/2-x,1/2+y,1/2-z
3 -x,-y,-z
4 1/2+x,1/2-y,1/2+z
_cell_length_a                   20.232(4)
_cell_length_b                   7.608(2)
_cell_length_c                   21.486(4)
_cell_angle_alpha                90
_cell_angle_beta                 96.43(3)
_cell_angle_gamma                90
_cell_volume                     3286.43
loop_
_atom_site_label
_atom_site_type_symbol
_atom_site_fract_x
_atom_site_fract_y
_atom_site_fract_z
Cr1 Cr 0.66763(2) 0.77258(6) 0.10168(2)
Cr2 Cr 1.06173(3) 0.29543(6) 0.17242(2)
Mn1 Mn 0.90662(2) 0.76838(6) 0.24217(2)
O1 O 1.01341(17) 0.7265(4) 0.29977(15)
N1 N 0.81204(15) 0.7827(4) 0.18067(14)
N2 N 0.62090(15) 1.0518(4) 0.19869(14)
N3 N 0.62418(15) 0.4571(4) 0.18846(14)
N4 N 0.69538(16) 1.1118(4) 0.02168(16)
N5 N 0.94340(15) 0.5659(4) 0.17986(14)
N6 N 1.08494(19) 0.3461(6) 0.32070(17)
N7 N 0.96560(15) 0.9749(4) 0.20184(14)
N8 N 1.1442(2) 0.6494(5) 0.15691(19)
N9 N 0.57676(13) 0.7518(3) 0.04875(12)
N10 N 0.69142(13) 0.6254(3) 0.02668(12)
N11 N 1.04926(14) 0.2469(3) 0.07799(13)
N12 N 1.14640(15) 0.1524(4) 0.16140(15)
C1 C 0.76135(17) 0.7766(4) 0.15085(15)
C2 C 0.63610(16) 0.9462(4) 0.16547(15)
C3 C 0.64159(16) 0.5620(4) 0.15599(15)
C4 C 0.68807(16) 0.9906(4) 0.05135(16)
C5 C 0.98212(17) 0.4610(4) 0.17386(16)
C6 C 1.07831(18) 0.3242(5) 0.26758(18)
C7 C 1.00120(17) 1.0835(4) 0.18965(15)
C8 C 1.11566(18) 0.5214(5) 0.16093(17)
C9 C 0.51825(16) 0.8070(4) 0.06633(17)
H1 H 0.5175 0.8522 0.1065
C10 C 0.45984(18) 0.7990(5) 0.02721(18)
H2 H 0.4200 0.8356 0.0408
C11 C 0.4615(2) 0.7356(5) -0.03264(19)
H3 H 0.4230 0.7333 -0.0607
C12 C 0.52085(19) 0.6755(5) -0.05048(17)
H4 H 0.5225 0.6302 -0.0905
C13 C 0.57781(17) 0.6828(4) -0.00883(15)
C14 C 0.64301(17) 0.6133(4) -0.02156(16)
C15 C 0.6554(2) 0.5386(5) -0.07788(18)
H5 H 0.6218 0.5314 -0.1111
C16 C 0.7176(2) 0.4753(6) -0.0841(2)
H6 H 0.7267 0.4255 -0.1218
C17 C 0.7660(2) 0.4853(5) -0.0355(2)
H7 H 0.8083 0.4415 -0.0393
C18 C 0.75208(18) 0.5611(4) 0.01978(18)
H8 H 0.7855 0.5681 0.0532
C19 C 0.9964(2) 0.2934(5) 0.03837(18)
H9 H 0.9612 0.3506 0.0541
C20 C 0.9923(3) 0.2597(6) -0.0248(2)
H10 H 0.9547 0.2922 -0.0512
C21 C 1.0432(4) 0.1793(7) -0.0478(2)
H11 H 1.0414 0.1586 -0.0907
C22 C 1.0983(3) 0.1268(6) -0.0086(2)
H12 H 1.1335 0.0697 -0.0243
C23 C 1.0999(2) 0.1614(4) 0.05520(18)
C24 C 1.15478(19) 0.1109(5) 0.1018(2)
C25 C 1.2122(2) 0.0305(6) 0.0873(3)
H13 H 1.2166 0.0010 0.0459
C26 C 1.2619(3) -0.0054(7) 0.1323(4)
H14 H 1.3008 -0.0585 0.1225
C27 C 1.2542(2) 0.0373(7) 0.1926(3)
H15 H 1.2883 0.0148 0.2245
C28 C 1.1958(2) 0.1142(6) 0.2063(2)
H16 H 1.1906 0.1403 0.2478
Cr2_2 Cr 1.06173(3) 1.29543(6) 0.17242(2)
Mn1A Mn 0.59338(2) 1.26838(6) 0.25783(2)
Mn1A_2 Mn 0.59338(2) 0.26838(6) 0.25783(2)
N2A N 0.87910(15) 0.5518(4) 0.30131(14)
N3A N 0.87582(15) 0.9571(4) 0.31154(14)
C7_2 C 1.00120(17) 0.0835(4) 0.18965(15)
O2 O 0.1222(5) 0.8426(12) 0.2723(4)
N13 N 0.8518(2) 0.2311(6) 0.0793(3)
C29 C 0.7958(3) 0.2563(6) 0.1807(2)
C30 C 0.8279(2) 0.2414(6) 0.1236(3)
loop_
_geom_bond_atom_site_label_1
_geom_bond_atom_site_label_2
_geom_bond_site_symmetry_1
_geom_bond_site_symmetry_2
Cr1 N9 1_555 1_555
Cr2 N11 1_555 1_555
Mn1 O1 1_555 1_555
N1 Mn1 1_555 1_555
N2 C2 1_555 1_555
N3 C3 1_555 1_555
N4 C4 1_555 1_555
N5 Mn1 1_555 1_555
N6 C6 1_555 1_555
N7 Mn1 1_555 1_555
N8 C8 1_555 1_555
N9 C9 1_555 1_555
N10 Cr1 1_555 1_555
N11 C19 1_555 1_555
N12 Cr2 1_555 1_555
C1 Cr1 1_555 1_555
C2 Cr1 1_555 1_555
C3 Cr1 1_555 1_555
C4 Cr1 1_555 1_555
C5 Cr2 1_555 1_555
C6 Cr2 1_555 1_555
C7 N7 1_555 1_555
C8 Cr2 1_555 1_555
C9 H1 1_555 1_555
C10 C9 1_555 1_555
H2 C10 1_555 1_555
C11 C10 1_555 1_555
H3 C11 1_555 1_555
C12 C11 1_555 1_555
H4 C12 1_555 1_555
C13 N9 1_555 1_555
C14 N10 1_555 1_555
C15 C14 1_555 1_555
H5 C15 1_555 1_555
C16 C15 1_555 1_555
H6 C16 1_555 1_555
C17 C16 1_555 1_555
H7 C17 1_555 1_555
C18 N10 1_555 1_555
H8 C18 1_555 1_555
C19 H9 1_555 1_555
C20 C19 1_555 1_555
H10 C20 1_555 1_555
C21 C20 1_555 1_555
H11 C21 1_555 1_555
C22 C21 1_555 1_555
H12 C22 1_555 1_555
C23 N11 1_555 1_555
C24 N12 1_555 1_555
C25 C24 1_555 1_555
H13 C25 1_555 1_555
C26 C25 1_555 1_555
H14 C26 1_555 1_555
C27 C26 1_555 1_555
H15 C27 1_555 1_555
C28 N12 1_555 1_555
H16 C28 1_555 1_555
N13 C30 1_555 1_555
C29 C30 1_555 1_555
Cr2_2 C7 1_555 1_555
Mn1A N2 1_555 1_555
Mn1A_2 N3 1_555 1_555
N2A Mn1 1_555 1_555
N3A Mn1 1_555 1_555
C7_2 Cr2 1_555 1_555
N1 C1 1_555 1_555
N5 C5 1_555 1_555
C12 C13 1_555 1_555
C13 C14 1_555 1_555
C17 C18 1_555 1_555
C22 C23 1_555 1_555
C23 C24 1_555 1_555
C27 C28 1_555 1_555

#END
