
#######################################################################
#
#                 Cambridge Crystallographic Data Centre
#                                CCDC 
#
#######################################################################
#
# If this CIF has been generated from an entry in the Cambridge 
# Structural Database, then it will include bibliographic, chemical, 
# crystal, experimental, refinement or atomic coordinate data resulting 
# from the CCDC's data processing and validation procedures.
#
#######################################################################

data_FAMMIQ01
_symmetry_cell_setting           monoclinic
_symmetry_space_group_name_H-M   'P 21/n'
_symmetry_Int_Tables_number      14
_space_group_name_Hall           '-P 2yn'
loop_
_symmetry_equiv_pos_site_id
_symmetry_equiv_pos_as_xyz
1 x,y,z
2 1/2-x,1/2+y,1/2-z
3 -x,-y,-z
4 1/2+x,1/2-y,1/2+z
_cell_length_a                   7.94020(10)
_cell_length_b                   15.2698(3)
_cell_length_c                   12.7252(3)
_cell_angle_alpha                90
_cell_angle_beta                 94.4183(7)
_cell_angle_gamma                90
_cell_volume                     1538.29
loop_
_atom_site_label
_atom_site_type_symbol
_atom_site_fract_x
_atom_site_fract_y
_atom_site_fract_z
Cr1 Cr 0.02643(3) 0.388670(18) -0.29266(2)
Mn1 Mn 0.5000 0.5000 -0.5000
O1 O 0.5022(2) 0.52887(10) -0.33178(11)
N1 N 0.27850(19) 0.41144(11) -0.47625(13)
N2 N 0.3877(2) 0.39721(12) -0.16340(16)
N3 N -0.3140(2) 0.39547(10) -0.44758(13)
N4 N 0.0318(2) 0.18025(12) -0.28579(14)
N5 N -0.10834(19) 0.39526(9) -0.15941(12)
N6 N -0.00055(18) 0.52277(10) -0.27576(12)
C1 C 0.1778(2) 0.39869(11) -0.41792(15)
C2 C 0.2544(3) 0.39217(12) -0.20296(15)
C3 C -0.1941(2) 0.38702(11) -0.39304(15)
C4 C 0.0337(2) 0.25438(13) -0.29267(14)
C5 C -0.1541(3) 0.32709(14) -0.10207(15)
H1 H -0.1257 0.2709 -0.1227
C6 C -0.2419(3) 0.33699(15) -0.01358(16)
H2 H -0.2711 0.2885 0.0253
C7 C -0.2854(3) 0.42014(16) 0.01600(16)
H3 H -0.3453 0.4286 0.0752
C8 C -0.2399(2) 0.49017(14) -0.04223(16)
H4 H -0.2695 0.5466 -0.0232
C9 C -0.1497(2) 0.47696(12) -0.12957(14)
C10 C -0.0890(2) 0.54856(12) -0.19418(14)
C11 C -0.1140(2) 0.63637(13) -0.17393(17)
H5 H -0.1758 0.6533 -0.1181
C12 C -0.0468(3) 0.69867(14) -0.23691(19)
H6 H -0.0615 0.7579 -0.2234
C13 C 0.0419(3) 0.67268(13) -0.31953(19)
H7 H 0.0877 0.7139 -0.3630
C14 C 0.0622(2) 0.58450(13) -0.33712(17)
H8 H 0.1217 0.5670 -0.3937
H9 H 0.496(3) 0.4825(12) -0.2902(18)
H10 H 0.492(3) 0.5807(11) -0.2979(16)
Cr1B Cr 0.97357(3) 0.611330(18) -0.70734(2)
Mn1_2 Mn -0.5000 0.5000 -0.5000
Mn1_3 Mn 1.5000 0.5000 -0.5000
O1B O 0.4978(2) 0.47113(10) -0.66822(11)
N1B N 0.72150(19) 0.58856(11) -0.52375(13)
N2B N 0.6123(2) 0.60279(12) -0.83660(16)
N3B N 0.3140(2) 0.60453(10) -0.55242(13)
N3_2 N 0.6860(2) 0.39547(10) -0.44758(13)
N3B_2 N 1.3140(2) 0.60453(10) -0.55242(13)
N4B N 0.9682(2) 0.81975(12) -0.71421(14)
N5B N 1.10834(19) 0.60474(9) -0.84059(12)
N6B N 1.00055(18) 0.47723(10) -0.72424(12)
C1B C 0.8222(2) 0.60131(11) -0.58208(15)
C2B C 0.7456(3) 0.60783(12) -0.79704(15)
C3B C 1.1941(2) 0.61298(11) -0.60696(15)
C4B C 0.9663(2) 0.74562(13) -0.70733(14)
C5B C 1.1541(3) 0.67291(14) -0.89793(15)
H1B H 1.1257 0.7291 -0.8773
C6B C 1.2419(3) 0.66301(15) -0.98642(16)
H2B H 1.2711 0.7115 -1.0253
C7B C 1.2854(3) 0.57986(16) -1.01600(16)
H3B H 1.3453 0.5714 -1.0752
C8B C 1.2399(2) 0.50983(14) -0.95777(16)
H4B H 1.2695 0.4534 -0.9768
C9B C 1.1497(2) 0.52304(12) -0.87043(14)
C10B C 1.0890(2) 0.45144(12) -0.80582(14)
C11B C 1.1140(2) 0.36363(13) -0.82607(17)
H5B H 1.1758 0.3467 -0.8819
C12B C 1.0468(3) 0.30133(14) -0.76309(19)
H6B H 1.0615 0.2421 -0.7766
C13B C 0.9581(3) 0.32732(13) -0.68047(19)
H7B H 0.9123 0.2861 -0.6370
C14B C 0.9378(2) 0.41550(13) -0.66288(17)
H8B H 0.8783 0.4330 -0.6063
H9B H 0.504(3) 0.5175(12) -0.7098(18)
H10B H 0.508(3) 0.4193(11) -0.7021(16)
loop_
_geom_bond_atom_site_label_1
_geom_bond_atom_site_label_2
_geom_bond_site_symmetry_1
_geom_bond_site_symmetry_2
Cr1 N5 1_555 1_555
Mn1 O1 1_555 1_555
O1 H9 1_555 1_555
N1 Mn1 1_555 1_555
N2 C2 1_555 1_555
N3 C3 1_555 1_555
N4 C4 1_555 1_555
N5 C5 1_555 1_555
N6 Cr1 1_555 1_555
C1 Cr1 1_555 1_555
C2 Cr1 1_555 1_555
C3 Cr1 1_555 1_555
C4 Cr1 1_555 1_555
C5 H1 1_555 1_555
C6 C5 1_555 1_555
H2 C6 1_555 1_555
C7 C6 1_555 1_555
H3 C7 1_555 1_555
C8 C7 1_555 1_555
H4 C8 1_555 1_555
C9 N5 1_555 1_555
C10 N6 1_555 1_555
C11 C10 1_555 1_555
H5 C11 1_555 1_555
C12 C11 1_555 1_555
H6 C12 1_555 1_555
C13 C12 1_555 1_555
H7 C13 1_555 1_555
C14 N6 1_555 1_555
H8 C14 1_555 1_555
H10 O1 1_555 1_555
Cr1B N5B 1_555 1_555
Mn1_2 N3 1_555 1_555
Mn1_3 N3B_2 1_555 1_555
O1B Mn1 1_555 1_555
N1B Mn1 1_555 1_555
N2B C2B 1_555 1_555
N3B Mn1 1_555 1_555
N3_2 Mn1 1_555 1_555
N3B_2 C3B 1_555 1_555
N4B C4B 1_555 1_555
N5B C5B 1_555 1_555
N6B Cr1B 1_555 1_555
C1B Cr1B 1_555 1_555
C2B Cr1B 1_555 1_555
C3B Cr1B 1_555 1_555
C4B Cr1B 1_555 1_555
C5B H1B 1_555 1_555
C6B C5B 1_555 1_555
H2B C6B 1_555 1_555
C7B C6B 1_555 1_555
H3B C7B 1_555 1_555
C8B C7B 1_555 1_555
H4B C8B 1_555 1_555
C9B N5B 1_555 1_555
C10B N6B 1_555 1_555
C11B C10B 1_555 1_555
H5B C11B 1_555 1_555
C12B C11B 1_555 1_555
H6B C12B 1_555 1_555
C13B C12B 1_555 1_555
H7B C13B 1_555 1_555
C14B N6B 1_555 1_555
H8B C14B 1_555 1_555
H9B O1B 1_555 1_555
H10B O1B 1_555 1_555
N1 C1 1_555 1_555
C8 C9 1_555 1_555
C9 C10 1_555 1_555
C13 C14 1_555 1_555
N1B C1B 1_555 1_555
C8B C9B 1_555 1_555
C9B C10B 1_555 1_555
C13B C14B 1_555 1_555

#END
