
#######################################################################
#
#                 Cambridge Crystallographic Data Centre
#                                CCDC 
#
#######################################################################
#
# If this CIF has been generated from an entry in the Cambridge 
# Structural Database, then it will include bibliographic, chemical, 
# crystal, experimental, refinement or atomic coordinate data resulting 
# from the CCDC's data processing and validation procedures.
#
#######################################################################

data_FAMTAO
_symmetry_cell_setting           triclinic
_symmetry_space_group_name_H-M   'P -1'
_symmetry_Int_Tables_number      2
_space_group_name_Hall           '-P 1'
loop_
_symmetry_equiv_pos_site_id
_symmetry_equiv_pos_as_xyz
1 x,y,z
2 -x,-y,-z
_cell_length_a                   8.294(3)
_cell_length_b                   8.294(3)
_cell_length_c                   8.304(1)
_cell_angle_alpha                91.29(2)
_cell_angle_beta                 91.29(2)
_cell_angle_gamma                86.72(3)
_cell_volume                     570.027
loop_
_atom_site_label
_atom_site_type_symbol
_atom_site_fract_x
_atom_site_fract_y
_atom_site_fract_z
Mn1 Mn 0.5000 0.0000 0.0000
Mn2 Mn 0.0000 0.5000 0.0000
Mn3 Mn 0.0000 0.0000 0.5000
O1 O 0.4034(5) 0.2439(5) -0.0131(7)
O2 O 0.3977(5) -0.0105(6) 0.2407(5)
O3 O 0.0128(6) 0.4027(5) -0.2440(5)
O4 O 0.2413(5) 0.6027(5) -0.0113(7)
O5 O 0.0108(6) 0.2405(5) -0.6028(6)
O6 O 0.2435(5) 0.0128(6) 0.5968(6)
C1 C 0.4570(6) 0.3844(6) -0.0062(8)
C2 C 0.4539(6) -0.0046(8) 0.3822(8)
C3 C 0.0056(8) 0.4567(6) -0.3830(8)
C4 C 0.3829(6) 0.5450(6) -0.0045(8)
C5 C 0.0039(8) 0.3826(7) -0.5449(8)
C6 C 0.3831(7) 0.0053(8) 0.5419(8)
O7 O 0.2654(5) -0.0759(5) -0.0850(6)
O8 O 0.0850(5) 0.2657(5) 0.0758(6)
O9 O 0.0760(5) -0.0844(5) 0.2653(6)
C1A C 0.5430(6) 0.6156(6) 0.0062(8)
O1A O 0.5966(5) 0.7561(5) 0.0131(7)
C4A C 0.6171(6) 0.4550(6) 0.0045(8)
O4A O 0.7587(5) 0.3973(5) 0.0113(7)
C2A C 0.5461(6) 0.0046(8) 0.6178(8)
O2A O 0.6023(5) 0.0105(6) 0.7593(5)
C6A C 0.6169(7) -0.0053(8) 0.4581(8)
O6A O 0.7565(5) -0.0128(6) 0.4032(6)
C3A C -0.0056(8) 0.5433(6) -0.6170(8)
O3A O -0.0128(6) 0.5973(5) -0.7560(5)
C5A C -0.0039(8) 0.6174(7) -0.4551(8)
O5A O -0.0108(6) 0.7595(5) -0.3972(6)
O7A O 0.7346(5) 0.0759(5) 0.0850(6)
O8A O -0.0850(5) 0.7343(5) -0.0758(6)
O9A O -0.0760(5) 0.0844(5) 0.7347(6)
O1A_2 O 0.5966(5) -0.2439(5) 0.0131(7)
O2A_2 O 0.6023(5) 0.0105(6) -0.2407(5)
O3A_2 O -0.0128(6) 0.5973(5) 0.2440(5)
O4A_2 O -0.2413(5) 0.3973(5) 0.0113(7)
O5_2 O 0.0108(6) 0.2405(5) 0.3972(6)
O5A_2 O -0.0108(6) -0.2405(5) 0.6028(6)
O6A_2 O -0.2435(5) -0.0128(6) 0.4032(6)
Mn3_2 Mn 0.0000 0.0000 -0.5000
Mn1_2 Mn 0.5000 1.0000 0.0000
Mn2_2 Mn 1.0000 0.5000 0.0000
Mn1_3 Mn 0.5000 0.0000 1.0000
Mn3_3 Mn 1.0000 0.0000 0.5000
Mn2_3 Mn 0.0000 0.5000 -1.0000
Mn3_4 Mn 0.0000 1.0000 -0.5000
loop_
_geom_bond_atom_site_label_1
_geom_bond_atom_site_label_2
_geom_bond_site_symmetry_1
_geom_bond_site_symmetry_2
Mn1 O1 1_555 1_555
Mn2 O3 1_555 1_555
Mn3 O6 1_555 1_555
O1 C1 1_555 1_555
O2 Mn1 1_555 1_555
O3 C3 1_555 1_555
O4 Mn2 1_555 1_555
O5 C5 1_555 1_555
O6 C6 1_555 1_555
C1 C4 1_555 1_555
C2 O2 1_555 1_555
C3 C5 1_555 1_555
C4 O4 1_555 1_555
C5 C3A 1_555 1_555
C6 C2 1_555 1_555
O7 Mn1 1_555 1_555
O8 Mn2 1_555 1_555
O9 Mn3 1_555 1_555
C1A C4 1_555 1_555
O1A C1A 1_555 1_555
C4A C1 1_555 1_555
O4A C4A 1_555 1_555
C2A C6 1_555 1_555
O2A C2A 1_555 1_555
C6A C2 1_555 1_555
O6A C6A 1_555 1_555
C3A O3A 1_555 1_555
O3A Mn2_3 1_555 1_555
C5A C3 1_555 1_555
O5A C5A 1_555 1_555
O7A Mn1 1_555 1_555
O8A Mn2 1_555 1_555
O9A Mn3 1_555 1_555
O1A_2 Mn1 1_555 1_555
O2A_2 Mn1 1_555 1_555
O3A_2 Mn2 1_555 1_555
O4A_2 Mn2 1_555 1_555
O5_2 Mn3 1_555 1_555
O5A_2 Mn3 1_555 1_555
O6A_2 Mn3 1_555 1_555
Mn3_2 O5 1_555 1_555
Mn1_2 O1A 1_555 1_555
Mn2_2 O4A 1_555 1_555
Mn1_3 O2A 1_555 1_555
Mn3_3 O6A 1_555 1_555
Mn3_4 O5A 1_555 1_555
C1A C4A 1_555 1_555
C2A C6A 1_555 1_555
C3A C5A 1_555 1_555

#END
