
#######################################################################
#
#                 Cambridge Crystallographic Data Centre
#                                CCDC 
#
#######################################################################
#
# If this CIF has been generated from an entry in the Cambridge 
# Structural Database, then it will include bibliographic, chemical, 
# crystal, experimental, refinement or atomic coordinate data resulting 
# from the CCDC's data processing and validation procedures.
#
#######################################################################

data_FAMZOK
_symmetry_cell_setting           orthorhombic
_symmetry_space_group_name_H-M   'P 21 21 21'
_symmetry_Int_Tables_number      19
_space_group_name_Hall           'P 2ac 2ab'
loop_
_symmetry_equiv_pos_site_id
_symmetry_equiv_pos_as_xyz
1 x,y,z
2 1/2-x,-y,1/2+z
3 -x,1/2+y,1/2-z
4 1/2+x,1/2-y,-z
_cell_length_a                   10.786(7)
_cell_length_b                   14.300(9)
_cell_length_c                   24.280(16)
_cell_angle_alpha                90
_cell_angle_beta                 90
_cell_angle_gamma                90
_cell_volume                     3744.94
loop_
_atom_site_label
_atom_site_type_symbol
_atom_site_fract_x
_atom_site_fract_y
_atom_site_fract_z
Sn1 Sn 0.71254(16) 0.74729(16) 0.97160(6)
Sn2 Sn 0.4644(2) 0.97547(15) 0.75123(10)
O1 O 0.557(2) 0.7281(15) 0.9127(7)
O2 O 0.4075(16) 0.7473(17) 0.9757(8)
O3 O 0.401(2) 0.8579(18) 0.8052(10)
O4 O 0.584(2) 0.7858(15) 0.7795(9)
O5 O 0.489(2) 0.6347(14) 0.8178(8)
H1 H 0.5586 0.6553 0.8128
C1 C 0.673(3) 0.8816(13) 1.0037(10)
H2 H 0.6154 0.8737 1.0342
H3 H 0.7489 0.9068 1.0189
C2 C 0.618(3) 0.9549(13) 0.9652(9)
H4 H 0.5403 0.9325 0.9504
H5 H 0.6746 0.9653 0.9346
C3 C 0.597(3) 1.0481(15) 0.9960(10)
H6 H 0.5404 1.0383 1.0266
H7 H 0.6746 1.0714 1.0105
C4 C 0.542(4) 1.1188(17) 0.9558(12)
H8 H 0.5927 1.1222 0.9235
H9 H 0.5380 1.1792 0.9730
H10 H 0.4595 1.0995 0.9456
C5 C 0.662(3) 0.6317(13) 1.0200(10)
H11 H 0.7349 0.6120 1.0403
H12 H 0.6017 0.6530 1.0468
C6 C 0.609(3) 0.5468(14) 0.9919(9)
H13 H 0.6688 0.5253 0.9648
H14 H 0.5352 0.5656 0.9721
C7 C 0.576(3) 0.4641(15) 1.0291(9)
H15 H 0.5195 0.4844 1.0579
H16 H 0.6498 0.4391 1.0462
C8 C 0.513(3) 0.3889(18) 0.9933(11)
H17 H 0.4348 0.3724 1.0091
H18 H 0.5656 0.3345 0.9918
H19 H 0.5011 0.4128 0.9568
C9 C 0.836(2) 0.7763(19) 0.9071(9)
H20 H 0.8094 0.8355 0.8916
H21 H 0.9157 0.7879 0.9243
C10 C 0.862(2) 0.7135(19) 0.8590(9)
H22 H 0.8043 0.7317 0.8301
H23 H 0.8382 0.6509 0.8702
C11 C 0.987(2) 0.7053(17) 0.8322(12)
H24 H 0.9832 0.6504 0.8088
H25 H 1.0447 0.6902 0.8616
C12 C 1.050(3) 0.781(2) 0.7981(12)
H26 H 1.0745 0.8316 0.8217
H27 H 0.9929 0.8038 0.7708
H28 H 1.1216 0.7555 0.7802
C13 C 0.6452(16) 0.9898(16) 0.7178(10)
H29 H 0.6492 0.9524 0.6846
H30 H 0.6558 1.0546 0.7069
C14 C 0.7543(16) 0.9634(17) 0.7535(13)
H31 H 0.7941 0.9101 0.7362
H32 H 0.7212 0.9418 0.7884
C15 C 0.855(3) 1.0336(17) 0.7663(14)
H33 H 0.8186 1.0858 0.7862
H34 H 0.8885 1.0575 0.7321
C16 C 0.960(3) 0.991(2) 0.8008(14)
H35 H 1.0118 0.9538 0.7776
H36 H 0.9251 0.9530 0.8294
H37 H 1.0078 1.0407 0.8169
C17 C 0.412(2) 0.920(2) 0.6734(9)
H38 H 0.4361 0.9652 0.6455
H39 H 0.4607 0.8642 0.6672
C18 C 0.276(2) 0.8953(19) 0.6637(11)
H40 H 0.2422 0.8724 0.6981
H41 H 0.2323 0.9524 0.6545
C19 C 0.249(3) 0.823(2) 0.6191(10)
H42 H 0.3267 0.8021 0.6030
H43 H 0.2002 0.8519 0.5902
C20 C 0.179(3) 0.7397(19) 0.6435(15)
H44 H 0.1130 0.7220 0.6191
H45 H 0.1449 0.7568 0.6787
H46 H 0.2347 0.6880 0.6481
C21 C 0.303(2) 1.0521(18) 0.7810(12)
H47 H 0.2666 1.0864 0.7505
H48 H 0.2416 1.0077 0.7940
C22 C 0.333(2) 1.120(2) 0.8269(11)
H49 H 0.4084 1.1535 0.8183
H50 H 0.3452 1.0859 0.8610
C23 C 0.225(3) 1.190(2) 0.8337(13)
H51 H 0.2154 1.2271 0.8005
H52 H 0.1476 1.1564 0.8400
C24 C 0.253(3) 1.253(2) 0.8824(14)
H53 H 0.2265 1.3151 0.8745
H54 H 0.3412 1.2525 0.8890
H55 H 0.2110 1.2297 0.9144
C25 C 0.438(3) 0.729(2) 0.9274(13)
C26 C 0.353(3) 0.718(2) 0.8795(10)
H56 H 0.2949 0.7694 0.8808
H57 H 0.3052 0.6613 0.8860
C27 C 0.401(3) 0.7120(16) 0.8201(11)
H58 H 0.3326 0.7035 0.7939
C28 C 0.475(4) 0.797(3) 0.8070(16)
Sn1C Sn 0.21254(16) 0.75271(16) 1.02840(6)
O2C O 0.9075(16) 0.7527(17) 1.0243(8)
loop_
_geom_bond_atom_site_label_1
_geom_bond_atom_site_label_2
_geom_bond_site_symmetry_1
_geom_bond_site_symmetry_2
Sn1 O1 1_555 1_555
Sn2 O3 1_555 1_555
O1 C25 1_555 1_555
O2 C25 1_555 1_555
O3 C28 1_555 1_555
O4 C28 1_555 1_555
O5 H1 1_555 1_555
C1 Sn1 1_555 1_555
H2 C1 1_555 1_555
H3 C1 1_555 1_555
C2 C1 1_555 1_555
H4 C2 1_555 1_555
H5 C2 1_555 1_555
C3 C2 1_555 1_555
H6 C3 1_555 1_555
H7 C3 1_555 1_555
C4 C3 1_555 1_555
H8 C4 1_555 1_555
H9 C4 1_555 1_555
H10 C4 1_555 1_555
C5 Sn1 1_555 1_555
H11 C5 1_555 1_555
H12 C5 1_555 1_555
C6 C5 1_555 1_555
H13 C6 1_555 1_555
H14 C6 1_555 1_555
C7 C6 1_555 1_555
H15 C7 1_555 1_555
H16 C7 1_555 1_555
C8 C7 1_555 1_555
H17 C8 1_555 1_555
H18 C8 1_555 1_555
H19 C8 1_555 1_555
C9 Sn1 1_555 1_555
H20 C9 1_555 1_555
H21 C9 1_555 1_555
C10 C9 1_555 1_555
H22 C10 1_555 1_555
H23 C10 1_555 1_555
C11 C10 1_555 1_555
H24 C11 1_555 1_555
H25 C11 1_555 1_555
C12 C11 1_555 1_555
H26 C12 1_555 1_555
H27 C12 1_555 1_555
H28 C12 1_555 1_555
C13 Sn2 1_555 1_555
H29 C13 1_555 1_555
H30 C13 1_555 1_555
C14 C13 1_555 1_555
H31 C14 1_555 1_555
H32 C14 1_555 1_555
C15 C14 1_555 1_555
H33 C15 1_555 1_555
H34 C15 1_555 1_555
C16 C15 1_555 1_555
H35 C16 1_555 1_555
H36 C16 1_555 1_555
H37 C16 1_555 1_555
C17 Sn2 1_555 1_555
H38 C17 1_555 1_555
H39 C17 1_555 1_555
C18 C17 1_555 1_555
H40 C18 1_555 1_555
H41 C18 1_555 1_555
C19 C18 1_555 1_555
H42 C19 1_555 1_555
H43 C19 1_555 1_555
C20 C19 1_555 1_555
H44 C20 1_555 1_555
H45 C20 1_555 1_555
H46 C20 1_555 1_555
C21 Sn2 1_555 1_555
H47 C21 1_555 1_555
H48 C21 1_555 1_555
C22 C21 1_555 1_555
H49 C22 1_555 1_555
H50 C22 1_555 1_555
C23 C22 1_555 1_555
H51 C23 1_555 1_555
H52 C23 1_555 1_555
C24 C23 1_555 1_555
H53 C24 1_555 1_555
H54 C24 1_555 1_555
H55 C24 1_555 1_555
C25 C26 1_555 1_555
C26 H56 1_555 1_555
H57 C26 1_555 1_555
C27 O5 1_555 1_555
H58 C27 1_555 1_555
C28 C27 1_555 1_555
Sn1C O2 1_555 1_555
O2C Sn1 1_555 1_555
C26 C27 1_555 1_555

#END
