
#######################################################################
#
#                 Cambridge Crystallographic Data Centre
#                                CCDC 
#
#######################################################################
#
# If this CIF has been generated from an entry in the Cambridge 
# Structural Database, then it will include bibliographic, chemical, 
# crystal, experimental, refinement or atomic coordinate data resulting 
# from the CCDC's data processing and validation procedures.
#
#######################################################################

data_FAMZIE
_symmetry_cell_setting           monoclinic
_symmetry_space_group_name_H-M   'C 2'
_symmetry_Int_Tables_number      5
_space_group_name_Hall           'C 2y'
loop_
_symmetry_equiv_pos_site_id
_symmetry_equiv_pos_as_xyz
1 x,y,z
2 -x,y,-z
3 1/2+x,1/2+y,z
4 1/2-x,1/2+y,-z
_cell_length_a                   13.2228(15)
_cell_length_b                   10.0422(11)
_cell_length_c                   12.7355(12)
_cell_angle_alpha                90
_cell_angle_beta                 106.5470(10)
_cell_angle_gamma                90
_cell_volume                     1621.06
loop_
_atom_site_label
_atom_site_type_symbol
_atom_site_fract_x
_atom_site_fract_y
_atom_site_fract_z
C1 C 0.6325(11) 0.1727(12) 0.8591(10)
Sn1 Sn 0.70293(8) -0.10030(8) 0.96660(7)
Sn2 Sn 0.27971(7) 0.56168(8) 0.55244(7)
O1 O 0.3983(8) 0.4186(11) 0.6446(8)
O2 O 0.6082(7) 0.0476(12) 0.8508(8)
O3 O 0.5865(13) 0.3943(17) 0.8014(16)
H1 H 0.5498 0.4419 0.7531
C2 C 0.4795(19) 0.2147(19) 0.6913(14)
H2 H 0.4439 0.1400 0.7135
H3 H 0.5211 0.1785 0.6464
C3 C 0.3326(13) 0.5560(16) 0.4108(12)
H4 H 0.3719 0.6355 0.4072
H5 H 0.2730 0.5504 0.3469
H6 H 0.3771 0.4796 0.4140
C4 C 0.8431(13) -0.0690(17) 0.9224(14)
H7 H 0.8393 -0.1160 0.8558
H8 H 0.9022 -0.1012 0.9797
H9 H 0.8518 0.0245 0.9117
O4 O 0.7121(8) 0.2147(13) 0.9235(9)
C5 C 0.1471(12) 0.4569(15) 0.5683(16)
H10 H 0.0887 0.4716 0.5045
H11 H 0.1292 0.4877 0.6321
H12 H 0.1630 0.3634 0.5756
C6 C 0.3964(11) 0.2985(14) 0.6183(11)
O5 O 0.3360(8) 0.2482(11) 0.5331(8)
C7 C 0.6687(14) -0.0147(16) 1.1045(13)
H13 H 0.5941 0.0003 1.0883
H14 H 0.7054 0.0686 1.1221
H15 H 0.6912 -0.0741 1.1659
C8 C 0.3484(15) 0.7051(15) 0.6751(11)
H16 H 0.3488 0.6710 0.7457
H17 H 0.3079 0.7858 0.6607
H18 H 0.4195 0.7230 0.6742
C9 C 0.5502(13) 0.2635(15) 0.7852(19)
H19 H 0.5017 0.2673 0.8308
C10 C 0.6006(18) -0.2448(19) 0.8844(19)
H20 H 0.5605 -0.2783 0.9307
H21 H 0.6400 -0.3162 0.8648
H22 H 0.5537 -0.2073 0.8193
Sn1C Sn 0.79707(8) 0.39970(8) 1.03340(7)
Sn2C Sn 0.22029(7) 0.06168(8) 0.44756(7)
O4C O 0.7879(8) -0.2853(13) 1.0765(9)
O5C O 0.1640(8) 0.7482(11) 0.4669(8)
loop_
_geom_bond_atom_site_label_1
_geom_bond_atom_site_label_2
_geom_bond_site_symmetry_1
_geom_bond_site_symmetry_2
C1 O2 1_555 1_555
Sn1 O2 1_555 1_555
Sn2 O1 1_555 1_555
O1 C6 1_555 1_555
O3 H1 1_555 1_555
C2 H2 1_555 1_555
H3 C2 1_555 1_555
C3 Sn2 1_555 1_555
H4 C3 1_555 1_555
H5 C3 1_555 1_555
H6 C3 1_555 1_555
C4 Sn1 1_555 1_555
H7 C4 1_555 1_555
H8 C4 1_555 1_555
H9 C4 1_555 1_555
O4 C1 1_555 1_555
C5 Sn2 1_555 1_555
H10 C5 1_555 1_555
H11 C5 1_555 1_555
H12 C5 1_555 1_555
C6 C2 1_555 1_555
O5 C6 1_555 1_555
C7 Sn1 1_555 1_555
H13 C7 1_555 1_555
H14 C7 1_555 1_555
H15 C7 1_555 1_555
C8 Sn2 1_555 1_555
H16 C8 1_555 1_555
H17 C8 1_555 1_555
H18 C8 1_555 1_555
C9 C1 1_555 1_555
H19 C9 1_555 1_555
C10 Sn1 1_555 1_555
H20 C10 1_555 1_555
H21 C10 1_555 1_555
H22 C10 1_555 1_555
Sn1C O4 1_555 1_555
Sn2C O5 1_555 1_555
O4C Sn1 1_555 1_555
O5C Sn2 1_555 1_555
O3 C9 1_555 1_555
C2 C9 1_555 1_555

#END
