
#######################################################################
#
#                 Cambridge Crystallographic Data Centre
#                                CCDC 
#
#######################################################################
#
# If this CIF has been generated from an entry in the Cambridge 
# Structural Database, then it will include bibliographic, chemical, 
# crystal, experimental, refinement or atomic coordinate data resulting 
# from the CCDC's data processing and validation procedures.
#
#######################################################################

data_FANDII
_symmetry_cell_setting           monoclinic
_symmetry_space_group_name_H-M   'C 2/c'
_symmetry_Int_Tables_number      15
_space_group_name_Hall           '-C 2yn'
loop_
_symmetry_equiv_pos_site_id
_symmetry_equiv_pos_as_xyz
1 x,y,z
2 1/2+x,1/2+y,z
3 -x,y,1/2-z
4 1/2-x,1/2+y,1/2-z
5 -x,-y,-z
6 1/2-x,1/2-y,-z
7 x,-y,1/2+z
8 1/2+x,1/2-y,1/2+z
_cell_length_a                   19.971(4)
_cell_length_b                   11.523(2)
_cell_length_c                   16.138(3)
_cell_angle_alpha                90
_cell_angle_beta                 96.49(3)
_cell_angle_gamma                90
_cell_volume                     3689.97
loop_
_atom_site_label
_atom_site_type_symbol
_atom_site_fract_x
_atom_site_fract_y
_atom_site_fract_z
W1 W 0.339751(19) 0.25732(3) 0.10222(2)
W2 W 0.19011(3) 0.37458(4) 0.07430(3)
W3 W 0.29320(3) 0.40528(4) -0.06506(3)
Co1 Co 0.5000 0.27356(14) 0.2500
O1 O 0.2500 0.2500 0.0000
O2 O 0.3716(3) 0.1543(6) 0.0265(5)
O3 O 0.4061(4) 0.2682(7) 0.1801(5)
O4 O 0.2736(3) 0.3570(6) 0.1467(4)
O5 O 0.2866(3) 0.1325(6) 0.1406(4)
O6 O 0.3585(3) 0.3847(6) 0.0340(4)
O7 O 0.2360(3) 0.4755(6) 0.0077(4)
O8 O 0.1653(3) 0.2249(6) 0.1112(4)
O9 O 0.1487(4) 0.4628(7) 0.1312(5)
O10 O 0.3240(4) 0.5159(7) -0.1139(5)
N1 N 0.5000 0.4643(9) 0.2500
N2 N 0.5485(4) 0.2755(7) 0.1366(5)
N3 N 0.5000 1.0824(10) 0.2500
N4 N 0.7201(6) 0.2702(13) -0.2179(7)
C1 C 0.5455(5) 0.5252(8) 0.2135(6)
H1 H 0.5784 0.4847 0.1889
C2 C 0.5463(5) 0.6455(8) 0.2103(6)
H2 H 0.5777 0.6836 0.1816
C3 C 0.5000 0.7089(11) 0.2500
C4 C 0.5000 0.8386(11) 0.2500
C5 C 0.4968(7) 0.9007(9) 0.1756(7)
H3 H 0.4967 0.8624 0.1248
C6 C 0.4937(6) 1.0215(9) 0.1789(7)
H4 H 0.4868 1.0620 0.1289
C7 C 0.5243(5) 0.3322(9) 0.0678(6)
H5 H 0.4832 0.3701 0.0677
C8 C 0.5564(5) 0.3384(9) -0.0036(6)
H6 H 0.5396 0.3855 -0.0479
C9 C 0.6140(5) 0.2729(8) -0.0079(6)
C10 C 0.6394(5) 0.2085(9) 0.0630(6)
H7 H 0.6782 0.1641 0.0623
C11 C 0.6060(5) 0.2121(9) 0.1335(6)
H8 H 0.6232 0.1700 0.1803
C12 C 0.7021(6) 0.3689(13) -0.1902(7)
H9 H 0.7134 0.4371 -0.2160
C13 C 0.6662(6) 0.3736(10) -0.1225(6)
H10 H 0.6522 0.4447 -0.1034
C14 C 0.6509(5) 0.2712(9) -0.0826(6)
C15 C 0.6713(7) 0.1654(11) -0.1143(6)
H11 H 0.6619 0.0959 -0.0886
C16 C 0.7050(7) 0.1653(14) -0.1832(7)
H12 H 0.7176 0.0958 -0.2064
W1E W 0.160249(19) 0.24268(3) -0.10222(2)
W2E W 0.30989(3) 0.12542(4) -0.07430(3)
W3E W 0.20680(3) 0.09472(4) 0.06506(3)
Co1_2 Co 0.5000 1.27356(14) 0.2500
Co1G Co 0.0000 0.22644(14) -0.2500
O2E O 0.1284(3) 0.3457(6) -0.0265(5)
O3B O 0.5939(4) 0.2682(7) 0.3199(5)
O3E O 0.0939(4) 0.2318(7) -0.1801(5)
O4E O 0.2264(3) 0.1430(6) -0.1467(4)
O5E O 0.2134(3) 0.3675(6) -0.1406(4)
O6E O 0.1415(3) 0.1153(6) -0.0340(4)
O7E O 0.2640(3) 0.0245(6) -0.0077(4)
O8E O 0.3347(3) 0.2751(6) -0.1112(4)
O9E O 0.3513(4) 0.0372(7) -0.1312(5)
O10E O 0.1760(4) -0.0159(7) 0.1139(5)
N2B N 0.4515(4) 0.2755(7) 0.3634(5)
N3_2 N 0.5000 0.0824(10) 0.2500
N4B N 0.2799(6) 0.2702(13) 0.7179(7)
C1B C 0.4545(5) 0.5252(8) 0.2865(6)
H1B H 0.4216 0.4847 0.3111
C2B C 0.4537(5) 0.6455(8) 0.2897(6)
H2B H 0.4223 0.6836 0.3184
C5B C 0.5032(7) 0.9007(9) 0.3244(7)
H3B H 0.5033 0.8624 0.3752
C6B C 0.5063(6) 1.0215(9) 0.3211(7)
H4B H 0.5132 1.0620 0.3711
C7B C 0.4757(5) 0.3322(9) 0.4322(6)
H5B H 0.5168 0.3701 0.4323
C8B C 0.4436(5) 0.3384(9) 0.5036(6)
H6B H 0.4604 0.3855 0.5479
C9B C 0.3860(5) 0.2729(8) 0.5079(6)
C10B C 0.3606(5) 0.2085(9) 0.4370(6)
H7B H 0.3218 0.1641 0.4377
C11B C 0.3940(5) 0.2121(9) 0.3665(6)
H8B H 0.3768 0.1700 0.3197
C12B C 0.2979(6) 0.3689(13) 0.6902(7)
H9B H 0.2866 0.4371 0.7160
C13B C 0.3338(6) 0.3736(10) 0.6225(6)
H10B H 0.3478 0.4447 0.6034
C14B C 0.3491(5) 0.2712(9) 0.5826(6)
C15B C 0.3287(7) 0.1654(11) 0.6143(6)
H11B H 0.3381 0.0959 0.5886
C16B C 0.2950(7) 0.1653(14) 0.6832(7)
H12B H 0.2824 0.0958 0.7064
loop_
_geom_bond_atom_site_label_1
_geom_bond_atom_site_label_2
_geom_bond_site_symmetry_1
_geom_bond_site_symmetry_2
W1 O1 1_555 1_555
W2 O1 1_555 1_555
W3 O1 1_555 1_555
Co1 O3 1_555 1_555
O1 W1E 1_555 1_555
O2 W1 1_555 1_555
O3 W1 1_555 1_555
O4 W1 1_555 1_555
O5 W1 1_555 1_555
O6 W1 1_555 1_555
O7 W2 1_555 1_555
O8 W2 1_555 1_555
O9 W2 1_555 1_555
O10 W3 1_555 1_555
N1 Co1 1_555 1_555
N2 Co1 1_555 1_555
N3 C6 1_555 1_555
N4 C12 1_555 1_555
C1 N1 1_555 1_555
H1 C1 1_555 1_555
C2 C1 1_555 1_555
H2 C2 1_555 1_555
C3 C2 1_555 1_555
C4 C3 1_555 1_555
C5 C4 1_555 1_555
H3 C5 1_555 1_555
C6 C5 1_555 1_555
H4 C6 1_555 1_555
C7 N2 1_555 1_555
H5 C7 1_555 1_555
C8 C7 1_555 1_555
H6 C8 1_555 1_555
C9 C8 1_555 1_555
C10 C9 1_555 1_555
H7 C10 1_555 1_555
C11 N2 1_555 1_555
H8 C11 1_555 1_555
C12 H9 1_555 1_555
C13 C12 1_555 1_555
H10 C13 1_555 1_555
C14 C9 1_555 1_555
C15 C14 1_555 1_555
H11 C15 1_555 1_555
C16 N4 1_555 1_555
H12 C16 1_555 1_555
W1E O2E 1_555 1_555
W2E O1 1_555 1_555
W3E O1 1_555 1_555
Co1_2 N3 1_555 1_555
Co1G O3E 1_555 1_555
O2E W2 1_555 1_555
O3B Co1 1_555 1_555
O3E W1E 1_555 1_555
O4E W1E 1_555 1_555
O5E W3 1_555 1_555
O6E W1E 1_555 1_555
O7E W2E 1_555 1_555
O8E W3 1_555 1_555
O9E W2E 1_555 1_555
O10E W3E 1_555 1_555
N2B Co1 1_555 1_555
N3_2 Co1 1_555 1_555
N4B C12B 1_555 1_555
C1B N1 1_555 1_555
H1B C1B 1_555 1_555
C2B C3 1_555 1_555
H2B C2B 1_555 1_555
C5B C4 1_555 1_555
H3B C5B 1_555 1_555
C6B N3 1_555 1_555
H4B C6B 1_555 1_555
C7B N2B 1_555 1_555
H5B C7B 1_555 1_555
C8B C7B 1_555 1_555
H6B C8B 1_555 1_555
C9B C8B 1_555 1_555
C10B C9B 1_555 1_555
H7B C10B 1_555 1_555
C11B N2B 1_555 1_555
H8B C11B 1_555 1_555
C12B H9B 1_555 1_555
C13B C12B 1_555 1_555
H10B C13B 1_555 1_555
C14B C9B 1_555 1_555
C15B C14B 1_555 1_555
H11B C15B 1_555 1_555
C16B N4B 1_555 1_555
H12B C16B 1_555 1_555
W2 O4 1_555 1_555
W3 O6 1_555 1_555
W3 O7 1_555 1_555
O2 W2E 1_555 1_555
O5 W3E 1_555 1_555
O8 W3E 1_555 1_555
C10 C11 1_555 1_555
C13 C14 1_555 1_555
C15 C16 1_555 1_555
W1E O5E 1_555 1_555
W2E O4E 1_555 1_555
W2E O8E 1_555 1_555
W3E O6E 1_555 1_555
W3E O7E 1_555 1_555
C1B C2B 1_555 1_555
C5B C6B 1_555 1_555
C10B C11B 1_555 1_555
C13B C14B 1_555 1_555
C15B C16B 1_555 1_555

#END
