
#######################################################################
#
#                 Cambridge Crystallographic Data Centre
#                                CCDC 
#
#######################################################################
#
# If this CIF has been generated from an entry in the Cambridge 
# Structural Database, then it will include bibliographic, chemical, 
# crystal, experimental, refinement or atomic coordinate data resulting 
# from the CCDC's data processing and validation procedures.
#
#######################################################################

data_FANLIR
_symmetry_cell_setting           triclinic
_symmetry_space_group_name_H-M   'P -1'
_symmetry_Int_Tables_number      2
_space_group_name_Hall           '-P 1'
loop_
_symmetry_equiv_pos_site_id
_symmetry_equiv_pos_as_xyz
1 x,y,z
2 -x,-y,-z
_cell_length_a                   9.3202(2)
_cell_length_b                   11.3884(2)
_cell_length_c                   15.0678(5)
_cell_angle_alpha                77.526(12)
_cell_angle_beta                 83.585(13)
_cell_angle_gamma                69.775(10)
_cell_volume                     1464.09
loop_
_atom_site_label
_atom_site_type_symbol
_atom_site_fract_x
_atom_site_fract_y
_atom_site_fract_z
Ba1 Ba 0.26408(3) 0.23061(3) 0.457093(17)
S1 S 0.41943(11) 0.68820(10) -0.03849(7)
O1 O 0.2879(4) 0.9194(3) 0.0469(2)
H1 H 0.256(5) 0.980(5) 0.066(3)
N1 N 0.5645(5) 0.3717(5) 0.3790(3)
C1 C 0.2489(4) 0.8204(4) 0.0958(3)
S2 S 0.09055(10) 0.96974(9) 0.22032(6)
O2 O -0.0911(3) 1.2014(3) 0.0807(2)
H2 H 0.000(7) 1.173(6) 0.095(4)
N2 N 0.7639(4) 0.7667(3) -0.0028(2)
C2 C 0.3025(4) 0.7058(4) 0.0624(3)
S3 S 0.15479(14) 0.46463(11) 0.25678(7)
O3 O 0.0841(6) 0.4903(4) 0.3427(3)
C3 C 0.2715(4) 0.5998(4) 0.1120(3)
H3 H 0.3081 0.5239 0.0903
S4 S -0.47659(11) 0.94785(10) 0.32781(7)
O4 O 0.3085(5) 0.3664(4) 0.2735(3)
C4 C 0.1864(4) 0.6043(4) 0.1942(3)
O5 O 0.0712(4) 0.4266(4) 0.2014(2)
C5 C 0.1298(4) 0.7168(4) 0.2251(3)
H4 H 0.0715 0.7204 0.2794
O6 O -0.3786(3) 0.8225(3) 0.3690(2)
C6 C 0.1583(4) 0.8264(4) 0.1763(3)
O7 O -0.6005(4) 0.9429(4) 0.2818(2)
C7 C -0.1098(4) 1.0262(4) 0.2005(3)
O8 O -0.5244(5) 1.0287(4) 0.3951(3)
C8 C -0.2046(4) 0.9685(4) 0.2570(3)
H5 H -0.1625 0.8987 0.3025
O9 O 0.5216(5) 0.2971(4) 0.4514(2)
C9 C -0.3609(4) 1.0139(4) 0.2461(3)
O10 O 0.7930(3) 0.8430(3) -0.0786(2)
C10 C -0.4233(4) 1.1161(4) 0.1768(3)
H6 H -0.5280 1.1451 0.1683
O11 O 0.2086(5) 0.4396(4) 0.5538(3)
C11 C 0.3303(4) 0.8246(4) -0.1201(3)
O12 O 0.1707(8) 0.0156(5) 0.5305(4)
C12 C -0.1725(4) 1.1333(4) 0.1332(2)
O13 O -0.0237(4) 0.3030(4) 0.5402(3)
C13 C 0.4888(6) 0.4976(6) 0.3636(3)
H7 H 0.4085 0.5324 0.4029
O14 O 0.1185(5) 0.1811(4) 0.3198(3)
C14 C 0.5306(5) 0.5740(5) 0.2899(3)
H8 H 0.4775 0.6612 0.2794
C15 C 0.6500(5) 0.5250(4) 0.2307(3)
C16 C 0.6945(5) 0.6081(4) 0.1497(3)
C17 C 0.6488(7) 0.7392(5) 0.1432(3)
H9 H 0.5930 0.7753 0.1915
C18 C 0.6839(6) 0.8161(5) 0.0679(3)
H10 H 0.6521 0.9037 0.0654
C19 C 0.8123(5) 0.6404(4) 0.0003(3)
H11 H 0.8688 0.6072 -0.0488
C20 C 0.7787(5) 0.5594(4) 0.0758(3)
H12 H 0.8126 0.4720 0.0773
C21 C 0.7258(6) 0.3953(5) 0.2492(3)
H13 H 0.8077 0.3585 0.2115
C22 C 0.6795(7) 0.3204(6) 0.3239(4)
H14 H 0.7299 0.2328 0.3357
Ba1A Ba -0.26408(3) 1.76939(3) -0.457093(17)
Ba1A_2 Ba -0.26408(3) 0.76939(3) 0.542907(17)
Ba1_2 Ba -0.73592(3) 1.23061(3) 0.457093(17)
Ba1_3 Ba 0.26408(3) 1.23061(3) -0.542907(17)
Ba1A_3 Ba 0.73592(3) 0.76939(3) -0.457093(17)
S1A S -0.41943(11) 1.31180(10) 0.03849(7)
O1A O -0.2879(4) 1.0806(3) -0.0469(2)
H1A H -0.256(5) 1.020(5) -0.066(3)
N1A N -0.5645(5) 1.6283(5) -0.3790(3)
C1A C -0.2489(4) 1.1796(4) -0.0958(3)
S2A S -0.09055(10) 1.03026(9) -0.22032(6)
O2A O 0.0911(3) 0.7986(3) -0.0807(2)
H2A H 0.000(7) 0.827(6) -0.095(4)
N2A N -0.7639(4) 1.2333(3) 0.0028(2)
C2A C -0.3025(4) 1.2942(4) -0.0624(3)
S3A S -0.15479(14) 1.53537(11) -0.25678(7)
O3A O -0.0841(6) 1.5097(4) -0.3427(3)
C3A C -0.2715(4) 1.4002(4) -0.1120(3)
H3A H -0.3081 1.4761 -0.0903
S4A S 0.47659(11) 1.05215(10) -0.32781(7)
O4A O -0.3085(5) 1.6336(4) -0.2735(3)
C4A C -0.1864(4) 1.3957(4) -0.1942(3)
O5A O -0.0712(4) 1.5734(4) -0.2014(2)
C5A C -0.1298(4) 1.2832(4) -0.2251(3)
H4A H -0.0715 1.2796 -0.2794
O6A O 0.3786(3) 1.1775(3) -0.3690(2)
O6A_2 O 0.3786(3) 0.1775(3) 0.6310(2)
O6_2 O -0.3786(3) 1.8225(3) -0.6310(2)
C6A C -0.1583(4) 1.1736(4) -0.1763(3)
O7A O 0.6005(4) 1.0571(4) -0.2818(2)
C7A C 0.1098(4) 0.9738(4) -0.2005(3)
O8A O 0.5244(5) 0.9713(4) -0.3951(3)
O8_2 O 0.4756(5) 0.0287(4) 0.3951(3)
O8A_2 O -0.4756(5) 1.9713(4) -0.3951(3)
C8A C 0.2046(4) 1.0315(4) -0.2570(3)
H5A H 0.1625 1.1013 -0.3025
O9A O -0.5216(5) 1.7029(4) -0.4514(2)
C9A C 0.3609(4) 0.9861(4) -0.2461(3)
O10A O -0.7930(3) 1.1570(3) 0.0786(2)
C10A C 0.4233(4) 0.8839(4) -0.1768(3)
H6A H 0.5280 0.8549 -0.1683
O11A O -0.2086(5) 1.5604(4) -0.5538(3)
C11A C -0.3303(4) 1.1754(4) 0.1201(3)
O12A O -0.1707(8) 1.9844(5) -0.5305(4)
C12A C 0.1725(4) 0.8667(4) -0.1332(2)
O13A O 0.0237(4) 1.6970(4) -0.5402(3)
C13A C -0.4888(6) 1.5024(6) -0.3636(3)
H7A H -0.4085 1.4676 -0.4029
O14A O -0.1185(5) 1.8189(4) -0.3198(3)
C14A C -0.5306(5) 1.4260(5) -0.2899(3)
H8A H -0.4775 1.3388 -0.2794
C15A C -0.6500(5) 1.4750(4) -0.2307(3)
C16A C -0.6945(5) 1.3919(4) -0.1497(3)
C17A C -0.6488(7) 1.2608(5) -0.1432(3)
H9A H -0.5930 1.2247 -0.1915
C18A C -0.6839(6) 1.1839(5) -0.0679(3)
H10A H -0.6521 1.0963 -0.0654
C19A C -0.8123(5) 1.3596(4) -0.0003(3)
H11A H -0.8688 1.3928 0.0488
C20A C -0.7787(5) 1.4406(4) -0.0758(3)
H12A H -0.8126 1.5280 -0.0773
C21A C -0.7258(6) 1.6047(5) -0.2492(3)
H13A H -0.8077 1.6415 -0.2115
C22A C -0.6795(7) 1.6796(6) -0.3239(4)
H14A H -0.7299 1.7672 -0.3357
O15 O 0.7488(5) 0.1928(5) 0.5666(3)
loop_
_geom_bond_atom_site_label_1
_geom_bond_atom_site_label_2
_geom_bond_site_symmetry_1
_geom_bond_site_symmetry_2
Ba1 O3 1_555 1_555
S1 C2 1_555 1_555
O1 H1 1_555 1_555
N1 O9 1_555 1_555
C1 O1 1_555 1_555
S2 C6 1_555 1_555
O2 H2 1_555 1_555
N2 O10 1_555 1_555
C2 C1 1_555 1_555
S3 O3 1_555 1_555
C3 C2 1_555 1_555
H3 C3 1_555 1_555
S4 O6 1_555 1_555
O4 Ba1 1_555 1_555
C4 S3 1_555 1_555
O5 S3 1_555 1_555
C5 C4 1_555 1_555
H4 C5 1_555 1_555
O6 Ba1A_2 1_555 1_555
C6 C1 1_555 1_555
O7 S4 1_555 1_555
C7 S2 1_555 1_555
O8 S4 1_555 1_555
C8 C7 1_555 1_555
H5 C8 1_555 1_555
O9 Ba1 1_555 1_555
C9 S4 1_555 1_555
C10 C9 1_555 1_555
H6 C10 1_555 1_555
O11 Ba1 1_555 1_555
C11 S1 1_555 1_555
O12 Ba1 1_555 1_555
C12 O2 1_555 1_555
O13 Ba1 1_555 1_555
C13 N1 1_555 1_555
H7 C13 1_555 1_555
O14 Ba1 1_555 1_555
C14 C13 1_555 1_555
H8 C14 1_555 1_555
C15 C14 1_555 1_555
C16 C15 1_555 1_555
C17 C16 1_555 1_555
H9 C17 1_555 1_555
C18 N2 1_555 1_555
H10 C18 1_555 1_555
C19 N2 1_555 1_555
H11 C19 1_555 1_555
C20 C16 1_555 1_555
H12 C20 1_555 1_555
C21 C15 1_555 1_555
H13 C21 1_555 1_555
C22 N1 1_555 1_555
H14 C22 1_555 1_555
Ba1A O3A 1_555 1_555
Ba1_2 O8 1_555 1_555
Ba1_3 O6A 1_555 1_555
Ba1A_3 O8A 1_555 1_555
S1A C2A 1_555 1_555
O1A H1A 1_555 1_555
N1A O9A 1_555 1_555
C1A O1A 1_555 1_555
S2A C6A 1_555 1_555
O2A H2A 1_555 1_555
N2A O10A 1_555 1_555
C2A C1A 1_555 1_555
S3A O3A 1_555 1_555
C3A C2A 1_555 1_555
H3A C3A 1_555 1_555
S4A O6A 1_555 1_555
O4A Ba1A 1_555 1_555
C4A S3A 1_555 1_555
O5A S3A 1_555 1_555
C5A C4A 1_555 1_555
H4A C5A 1_555 1_555
O6A_2 Ba1 1_555 1_555
O6_2 Ba1A 1_555 1_555
C6A C1A 1_555 1_555
O7A S4A 1_555 1_555
C7A S2A 1_555 1_555
O8A S4A 1_555 1_555
O8_2 Ba1 1_555 1_555
O8A_2 Ba1A 1_555 1_555
C8A C7A 1_555 1_555
H5A C8A 1_555 1_555
O9A Ba1A 1_555 1_555
C9A S4A 1_555 1_555
C10A C11 1_555 1_555
H6A C10A 1_555 1_555
O11A Ba1A 1_555 1_555
C11A C10 1_555 1_555
O12A Ba1A 1_555 1_555
C12A C11 1_555 1_555
O13A Ba1A 1_555 1_555
C13A N1A 1_555 1_555
H7A C13A 1_555 1_555
O14A Ba1A 1_555 1_555
C14A C13A 1_555 1_555
H8A C14A 1_555 1_555
C15A C14A 1_555 1_555
C16A C15A 1_555 1_555
C17A C16A 1_555 1_555
H9A C17A 1_555 1_555
C18A N2A 1_555 1_555
H10A C18A 1_555 1_555
C19A N2A 1_555 1_555
H11A C19A 1_555 1_555
C20A C16A 1_555 1_555
H12A C20A 1_555 1_555
C21A C15A 1_555 1_555
H13A C21A 1_555 1_555
C22A N1A 1_555 1_555
H14A C22A 1_555 1_555
S3 O4 1_555 1_555
C3 C4 1_555 1_555
C5 C6 1_555 1_555
C7 C12 1_555 1_555
C8 C9 1_555 1_555
C12 C11A 1_555 1_555
C17 C18 1_555 1_555
C19 C20 1_555 1_555
C21 C22 1_555 1_555
S1A C11A 1_555 1_555
O2A C12A 1_555 1_555
S3A O4A 1_555 1_555
C3A C4A 1_555 1_555
C5A C6A 1_555 1_555
C7A C12A 1_555 1_555
C8A C9A 1_555 1_555
C9A C10A 1_555 1_555
C17A C18A 1_555 1_555
C19A C20A 1_555 1_555
C21A C22A 1_555 1_555

#END
