
#######################################################################
#
#                 Cambridge Crystallographic Data Centre
#                                CCDC 
#
#######################################################################
#
# If this CIF has been generated from an entry in the Cambridge 
# Structural Database, then it will include bibliographic, chemical, 
# crystal, experimental, refinement or atomic coordinate data resulting 
# from the CCDC's data processing and validation procedures.
#
#######################################################################

data_FANLOX
_symmetry_cell_setting           triclinic
_symmetry_space_group_name_H-M   'P -1'
_symmetry_Int_Tables_number      2
_space_group_name_Hall           '-P 1'
loop_
_symmetry_equiv_pos_site_id
_symmetry_equiv_pos_as_xyz
1 x,y,z
2 -x,-y,-z
_cell_length_a                   7.3605(15)
_cell_length_b                   10.169(2)
_cell_length_c                   18.260(4)
_cell_angle_alpha                76.05(3)
_cell_angle_beta                 85.53(3)
_cell_angle_gamma                81.31(3)
_cell_volume                     1309.98
loop_
_atom_site_label
_atom_site_type_symbol
_atom_site_fract_x
_atom_site_fract_y
_atom_site_fract_z
Cd1 Cd 0.25570(4) 1.01290(3) 0.46749(2)
S1 S 0.47840(14) 0.81918(11) 0.54235(7)
S2 S 0.00760(14) 1.16180(10) 0.52730(7)
S3 S 0.2920(3) 1.0068(2) 0.19617(11)
N1 N 0.2595(8) 0.7095(6) 0.8766(3)
N2 N -0.2383(6) 1.7005(4) 0.3100(3)
N3 N 0.2604(6) 1.0382(4) 0.3447(3)
C1 C 0.4020(6) 0.7851(4) 0.6380(3)
C2 C 0.2443(7) 0.8562(5) 0.6660(3)
H1 H 0.1693 0.9224 0.6320
C3 C 0.1962(7) 0.8314(6) 0.7423(3)
H2 H 0.0902 0.8809 0.7598
C4 C 0.3055(8) 0.7329(6) 0.7929(3)
C5 C 0.4597(8) 0.6598(6) 0.7663(3)
H3 H 0.5333 0.5926 0.8004
C6 C 0.5056(7) 0.6850(5) 0.6906(3)
H4 H 0.6100 0.6333 0.6735
C7 C 0.214(2) 0.8521(11) 0.8931(7)
H5 H 0.2007 0.8434 0.9473
H6 H 0.1001 0.8978 0.8699
H7 H 0.3129 0.9054 0.8725
C8 C 0.413(2) 0.636(2) 0.9228(10)
H8 H 0.3707 0.6144 0.9755
H9 H 0.5098 0.6934 0.9166
H10 H 0.4596 0.5525 0.9071
C9 C 0.085(2) 0.6488(19) 0.8882(8)
H11 H 0.1103 0.5552 0.8826
H12 H -0.0009 0.7016 0.8511
H13 H 0.0333 0.6498 0.9385
C10 C -0.0581(6) 1.3181(4) 0.4625(3)
C11 C -0.1828(7) 1.4176(4) 0.4878(3)
H14 H -0.2270 1.3999 0.5385
C12 C -0.2425(7) 1.5420(5) 0.4394(3)
H15 H -0.3267 1.6080 0.4569
C13 C -0.1766(7) 1.5672(4) 0.3655(3)
C14 C -0.0513(7) 1.4723(5) 0.3397(3)
H16 H -0.0053 1.4916 0.2893
C15 C 0.0072(7) 1.3479(5) 0.3880(3)
H17 H 0.0922 1.2830 0.3699
C16 C -0.3719(8) 1.7954(5) 0.3458(4)
H18 H -0.3148 1.8161 0.3870
H19 H -0.4803 1.7523 0.3650
H20 H -0.4070 1.8794 0.3084
C17 C -0.0743(9) 1.7740(6) 0.2784(4)
H21 H -0.0142 1.7932 0.3193
H22 H -0.1158 1.8593 0.2431
H23 H 0.0119 1.7167 0.2525
C18 C -0.3301(11) 1.6710(7) 0.2458(4)
H24 H -0.4350 1.6239 0.2655
H25 H -0.2431 1.6138 0.2200
H26 H -0.3712 1.7563 0.2105
C19 C 0.2740(7) 1.0288(5) 0.2820(3)
Cd1A Cd 0.74430(4) 0.98710(3) 0.53251(2)
Cd1A_2 Cd -0.25570(4) 0.98710(3) 0.53251(2)
S1A S 0.52160(14) 1.18082(11) 0.45765(7)
S2A S -0.00760(14) 0.83820(10) 0.47270(7)
N4 N 0.8102(16) 0.3912(16) 0.8770(5)
O1 O 0.644(3) 0.3554(16) 0.8900(8)
O2 O 0.912(2) 0.2951(19) 0.9126(8)
O3 O 0.825(2) 0.4290(13) 0.8278(9)
O4 O 0.351(5) 1.134(3) 0.9668(11)
C20 C 0.180(4) 1.103(2) 0.9216(19)
C21? C 0.078(2) 0.776(2) 0.8992(11)
C22? C 0.419(2) 0.742(2) 0.9129(11)
C23? C 0.261(3) 0.5550(11) 0.9078(9)
H27? H 0.0642 0.7556 0.9539
H28? H -0.0182 0.7419 0.8789
H29? H 0.0703 0.8742 0.8797
H30? H 0.3914 0.7298 0.9667
H31? H 0.4384 0.8355 0.8910
H32? H 0.5284 0.6805 0.9044
H33? H 0.2314 0.5366 0.9617
H34? H 0.3817 0.5075 0.8985
H35? H 0.1699 0.5234 0.8828
loop_
_geom_bond_atom_site_label_1
_geom_bond_atom_site_label_2
_geom_bond_site_symmetry_1
_geom_bond_site_symmetry_2
Cd1 S1 1_555 1_555
S1 C1 1_555 1_555
S2 Cd1 1_555 1_555
S3 C19 1_555 1_555
N1 C4 1_555 1_555
N2 C13 1_555 1_555
N3 Cd1 1_555 1_555
C1 C2 1_555 1_555
C2 H1 1_555 1_555
C3 C2 1_555 1_555
H2 C3 1_555 1_555
C4 C3 1_555 1_555
C5 C4 1_555 1_555
H3 C5 1_555 1_555
C6 C1 1_555 1_555
H4 C6 1_555 1_555
C7 N1 1_555 1_555
H5 C7 1_555 1_555
H6 C7 1_555 1_555
H7 C7 1_555 1_555
C8 N1 1_555 1_555
H8 C8 1_555 1_555
H9 C8 1_555 1_555
H10 C8 1_555 1_555
C9 N1 1_555 1_555
H11 C9 1_555 1_555
H12 C9 1_555 1_555
H13 C9 1_555 1_555
C10 S2 1_555 1_555
C11 C10 1_555 1_555
H14 C11 1_555 1_555
C12 C11 1_555 1_555
H15 C12 1_555 1_555
C13 C12 1_555 1_555
C14 C13 1_555 1_555
H16 C14 1_555 1_555
C15 C10 1_555 1_555
H17 C15 1_555 1_555
C16 N2 1_555 1_555
H18 C16 1_555 1_555
H19 C16 1_555 1_555
H20 C16 1_555 1_555
C17 N2 1_555 1_555
H21 C17 1_555 1_555
H22 C17 1_555 1_555
H23 C17 1_555 1_555
C18 N2 1_555 1_555
H24 C18 1_555 1_555
H25 C18 1_555 1_555
H26 C18 1_555 1_555
C19 N3 1_555 1_555
N4 O1 1_555 1_555
O2 N4 1_555 1_555
O3 N4 1_555 1_555
O4 C20 1_555 1_555
Cd1A S1 1_555 1_555
Cd1A_2 S2 1_555 1_555
S1A Cd1 1_555 1_555
S2A Cd1 1_555 1_555
C5 C6 1_555 1_555
C14 C15 1_555 1_555
Cd1A S1A 1_555 1_555
Cd1A_2 S2A 1_555 1_555

#END
