
#######################################################################
#
#                 Cambridge Crystallographic Data Centre
#                                CCDC 
#
#######################################################################
#
# If this CIF has been generated from an entry in the Cambridge 
# Structural Database, then it will include bibliographic, chemical, 
# crystal, experimental, refinement or atomic coordinate data resulting 
# from the CCDC's data processing and validation procedures.
#
#######################################################################

data_FANNIT
_symmetry_cell_setting           monoclinic
_symmetry_space_group_name_H-M   'P 2/m'
_symmetry_Int_Tables_number      10
_space_group_name_Hall           '-P 2y'
loop_
_symmetry_equiv_pos_site_id
_symmetry_equiv_pos_as_xyz
1 x,y,z
2 -x,y,-z
3 -x,-y,-z
4 x,-y,z
_cell_length_a                   20.923(4)
_cell_length_b                   5.963(4)
_cell_length_c                   20.425(3)
_cell_angle_alpha                90
_cell_angle_beta                 123.701(6)
_cell_angle_gamma                90
_cell_volume                     2120.05
loop_
_atom_site_label
_atom_site_type_symbol
_atom_site_fract_x
_atom_site_fract_y
_atom_site_fract_z
V1 V 0.5000 1.0000 0.2820(6)
V2 V 0.5000 1.5000 0.2769(6)
V3 V 1.0000 1.0000 0.8010(5)
V4 V 0.0000 1.5000 -0.1388(5)
O1 O 0.452(1) 1.255(1) 0.295(2)
O2 O 0.367(3) 1.205(4) 0.336(3)
O3 O 0.147(2) 1.168(4) -0.087(3)
O4 O 0.072(1) 1.318(1) -0.043(3)
O5 O 0.5692(3) 0.753(1) 0.299(1)
O6 O 0.682(2) 0.804(3) 0.294(3)
O7 O 0.910(3) 0.845(2) 0.700(3)
O8 O 0.801(4) 0.822(3) 0.696(3)
O9 O 0.4657(8) 1.244(1) 0.2114(6)
O10 O 1.004(7) 1.242(5) 0.839(3)
O11 O 1.0799(8) 1.0000 0.787(1)
H1 H 1.1017 1.0000 0.7547
O12 O -0.065(5) 1.5000 -0.113(6)
H2 H -0.1150 1.5000 -0.1431
C4 C 0.3191 1.2232 0.2007
C5 C 0.3327 1.2366 0.1444
H8 H 0.3829 1.2461 0.1576
C6 C 0.2483 1.2339 0.1831
H9 H 0.2387 1.2271 0.2225
C7 C 0.2729 1.2364 0.0676
H10 H 0.2818 1.2241 0.0279
C8 C 0.1908 1.2547 0.1079
H11 H 0.1410 1.2704 0.0954
C9 C 0.2021 1.2539 0.0501
C10 C 0.3785 1.2452 0.2776
C11 C 0.1404 1.2466 -0.0259
C12 C 0.6970 0.7478 0.4169
C13 C 0.6653 0.7242 0.4587
H12 H 0.6122 0.7190 0.4333
C14 C 0.7725 0.7550 0.4546
H13 H 0.7948 0.7622 0.4260
C15 C 0.7116 0.7080 0.5384
H14 H 0.6910 0.6705 0.5673
C16 C 0.8173 0.7522 0.5330
H15 H 0.8704 0.7545 0.5586
C17 C 0.7864 0.7460 0.5748
C18 C 0.6506 0.7729 0.3365
C19 C 0.8316 0.7665 0.6548
V2_2 V 0.5000 0.5000 0.2769(6)
V4_2 V 1.0000 1.5000 0.8612(5)
V4_3 V 0.0000 0.5000 -0.1388(5)
V4_4 V 1.0000 0.5000 0.8612(5)
O1C O 0.452(1) 0.745(1) 0.295(2)
O1C_2 O 0.452(1) 1.745(1) 0.295(2)
O2C O 0.367(3) 0.795(4) 0.336(3)
O3C O 0.147(2) 0.832(4) -0.087(3)
O4C O 0.072(1) 0.682(1) -0.043(3)
O4C_2 O 0.072(1) 1.682(1) -0.043(3)
O5C O 0.5692(3) 1.247(1) 0.299(1)
O5_2 O 0.5692(3) 1.753(1) 0.299(1)
O6C O 0.682(2) 1.196(3) 0.294(3)
O7C O 0.910(3) 1.155(2) 0.700(3)
O8C O 0.801(4) 1.178(3) 0.696(3)
O9C O 0.4657(8) 0.756(1) 0.2114(6)
O9C_2 O 0.4657(8) 1.756(1) 0.2114(6)
O10C O 1.004(7) 0.758(5) 0.839(3)
O10C_2 O 0.004(7) 1.758(5) -0.161(3)
O10_2 O 0.004(7) 1.242(5) -0.161(3)
C4C C 0.3191 0.7768 0.2007
C5C C 0.3327 0.7634 0.1444
H8C H 0.3829 0.7539 0.1576
C6C C 0.2483 0.7661 0.1831
H9C H 0.2387 0.7729 0.2225
C7C C 0.2729 0.7636 0.0676
H10C H 0.2818 0.7759 0.0279
C8C C 0.1908 0.7453 0.1079
H11C H 0.1410 0.7296 0.0954
C9C C 0.2021 0.7461 0.0501
C10C C 0.3785 0.7548 0.2776
C11C C 0.1404 0.7534 -0.0259
C12C C 0.6970 1.2522 0.4169
C13C C 0.6653 1.2758 0.4587
H12C H 0.6122 1.2810 0.4333
C14C C 0.7725 1.2450 0.4546
H13C H 0.7948 1.2378 0.4260
C15C C 0.7116 1.2920 0.5384
H14C H 0.6910 1.3295 0.5673
C16C C 0.8173 1.2478 0.5330
H15C H 0.8704 1.2455 0.5586
C17C C 0.7864 1.2540 0.5748
C18C C 0.6506 1.2271 0.3365
C19C C 0.8316 1.2335 0.6548
N1 N 0.2876(3) 0.0000 0.8607(3)
C1 C 0.3535(3) 0.0000 0.9004(4)
H3 H 0.4096 0.0000 0.9286
C2 C 0.233(1) 0.0000 0.872(2)
H4 H 0.2018 0.1315 0.8482
H5 H 0.2542 0.0000 0.9272
C3 C 0.280(1) 0.0000 0.7836(4)
H6 H 0.2700 0.1409 0.7556
H7 H 0.3342 0.0000 0.8200
O13 O 0.393(1) 0.0000 0.9944(4)
H4C H 0.2018 -0.1315 0.8482
H6C H 0.2700 -0.1409 0.7556
loop_
_geom_bond_atom_site_label_1
_geom_bond_atom_site_label_2
_geom_bond_site_symmetry_1
_geom_bond_site_symmetry_2
V1 O1 1_555 1_555
V2 O1 1_555 1_555
V3 O7 1_555 1_555
V4 O4 1_555 1_555
O1 C10 1_555 1_555
O2 C10 1_555 1_555
O3 C11 1_555 1_555
O4 C11 1_555 1_555
O5 V1 1_555 1_555
O6 C18 1_555 1_555
O7 C19 1_555 1_555
O8 C19 1_555 1_555
O9 V1 1_555 1_555
O10 V3 1_555 1_555
O11 V3 1_555 1_555
H1 O11 1_555 1_555
O12 V4 1_555 1_555
H2 O12 1_555 1_555
N1 C1 1_555 1_555
C1 H3 1_555 1_555
C2 N1 1_555 1_555
H4 C2 1_555 1_555
H5 C2 1_555 1_555
C3 N1 1_555 1_555
H6 C3 1_555 1_555
H7 C3 1_555 1_555
O13 C1 1_555 1_555
C4 C5 1_555 1_555
C5 H8 1_555 1_555
C6 C4 1_555 1_555
H9 C6 1_555 1_555
C7 C5 1_555 1_555
H10 C7 1_555 1_555
C8 C6 1_555 1_555
H11 C8 1_555 1_555
C9 C7 1_555 1_555
C10 C4 1_555 1_555
C11 C9 1_555 1_555
C12 C13 1_555 1_555
C13 H12 1_555 1_555
C14 C12 1_555 1_555
H13 C14 1_555 1_555
C15 C13 1_555 1_555
H14 C15 1_555 1_555
C16 C14 1_555 1_555
H15 C16 1_555 1_555
C17 C15 1_555 1_555
C18 O5 1_555 1_555
C19 C17 1_555 1_555
V2_2 O5 1_555 1_555
V4_2 O10 1_555 1_555
V4_3 O4C 1_555 1_555
V4_4 O10C 1_555 1_555
O1C V1 1_555 1_555
O1C_2 V2 1_555 1_555
O2C C10C 1_555 1_555
O3C C11C 1_555 1_555
O4C C11C 1_555 1_555
O4C_2 V4 1_555 1_555
O5C V1 1_555 1_555
O5_2 V2 1_555 1_555
O6C C18C 1_555 1_555
O7C V3 1_555 1_555
O8C C19C 1_555 1_555
O9C V1 1_555 1_555
O9C_2 V2 1_555 1_555
O10C V3 1_555 1_555
O10C_2 V4 1_555 1_555
O10_2 V4 1_555 1_555
H4C C2 1_555 1_555
H6C C3 1_555 1_555
C4C C5C 1_555 1_555
C5C H8C 1_555 1_555
C6C C4C 1_555 1_555
H9C C6C 1_555 1_555
C7C C5C 1_555 1_555
H10C C7C 1_555 1_555
C8C C6C 1_555 1_555
H11C C8C 1_555 1_555
C9C C7C 1_555 1_555
C10C O1C 1_555 1_555
C11C C9C 1_555 1_555
C12C C13C 1_555 1_555
C13C H12C 1_555 1_555
C14C C12C 1_555 1_555
H13C C14C 1_555 1_555
C15C C13C 1_555 1_555
H14C C15C 1_555 1_555
C16C C14C 1_555 1_555
H15C C16C 1_555 1_555
C17C C15C 1_555 1_555
C18C O5C 1_555 1_555
C19C O7C 1_555 1_555
V2 O9 1_555 1_555
V2 O5C 1_555 1_555
C8 C9 1_555 1_555
C12 C18 1_555 1_555
C16 C17 1_555 1_555
V2_2 O1C 1_555 1_555
V2_2 O9C 1_555 1_555
C4C C10C 1_555 1_555
C8C C9C 1_555 1_555
C12C C18C 1_555 1_555
C16C C17C 1_555 1_555
C17C C19C 1_555 1_555

#END
