
#######################################################################
#
#                 Cambridge Crystallographic Data Centre
#                                CCDC 
#
#######################################################################
#
# If this CIF has been generated from an entry in the Cambridge 
# Structural Database, then it will include bibliographic, chemical, 
# crystal, experimental, refinement or atomic coordinate data resulting 
# from the CCDC's data processing and validation procedures.
#
#######################################################################

data_FANSET
_symmetry_cell_setting           triclinic
_symmetry_space_group_name_H-M   'P -1'
_symmetry_Int_Tables_number      2
_space_group_name_Hall           '-P 1'
loop_
_symmetry_equiv_pos_site_id
_symmetry_equiv_pos_as_xyz
1 x,y,z
2 -x,-y,-z
_cell_length_a                   16.4340(14)
_cell_length_b                   19.9138(18)
_cell_length_c                   20.3375(18)
_cell_angle_alpha                71.255(2)
_cell_angle_beta                 70.065(2)
_cell_angle_gamma                74.827(2)
_cell_volume                     5837.83
loop_
_atom_site_label
_atom_site_type_symbol
_atom_site_fract_x
_atom_site_fract_y
_atom_site_fract_z
Ni1 Ni 0.22867(16) -0.07881(13) 0.32137(15)
N1 N 0.1885(14) -0.1108(11) 0.1849(12)
N2 N 0.2796(10) -0.0484(8) 0.2136(9)
H1 H 0.3290 -0.0812 0.2023
N3 N 0.2880(11) -0.0076(9) 0.3257(11)
H2 H 0.2461 0.0322 0.3301
N4 N 0.1765(12) -0.1043(9) 0.4305(10)
H3 H 0.1289 -0.0699 0.4408
N5 N 0.1655(10) -0.1507(8) 0.3178(10)
H4 H 0.2057 -0.1917 0.3147
C1 C 0.3576(18) -0.1418(17) 0.0332(17)
H5 H 0.4008 -0.1470 0.0553
C2 C 0.2068(18) -0.1391(15) 0.0412(18)
H6 H 0.1492 -0.1433 0.0684
C3 C 0.280(2) -0.1506(13) 0.0760(14)
C4 C 0.2551(15) -0.1684(12) 0.1579(12)
H7 H 0.2324 -0.2133 0.1783
H8 H 0.3071 -0.1746 0.1731
C5 C 0.2233(17) -0.0491(12) 0.1714(13)
H9 H 0.1742 -0.0098 0.1775
H10 H 0.2566 -0.0378 0.1208
C6 C 0.3087(15) 0.0196(12) 0.1965(12)
H11 H 0.2592 0.0589 0.1976
H12 H 0.3503 0.0288 0.1488
C7 C 0.3506(15) 0.0128(11) 0.2519(17)
H13 H 0.3677 0.0581 0.2451
H14 H 0.4030 -0.0237 0.2474
C8 C 0.3294(17) -0.0240(12) 0.3880(16)
H15 H 0.3774 -0.0645 0.3850
H16 H 0.3524 0.0173 0.3851
C9 C 0.257(2) -0.0419(16) 0.4597(14)
H17 H 0.2777 -0.0415 0.4989
H18 H 0.2058 -0.0045 0.4579
C10 C 0.2318(16) -0.1092(14) 0.4751(13)
H19 H 0.1999 -0.1235 0.5258
H20 H 0.2837 -0.1455 0.4656
C11 C 0.1417(16) -0.1745(12) 0.4459(14)
H21 H 0.1899 -0.2149 0.4457
H22 H 0.0994 -0.1830 0.4932
C12 C 0.0983(15) -0.1683(13) 0.3884(13)
H23 H 0.0803 -0.2133 0.3954
H24 H 0.0470 -0.1306 0.3906
C13 C 0.1307(17) -0.1292(12) 0.2523(17)
H25 H 0.1055 -0.1688 0.2539
H26 H 0.0831 -0.0887 0.2574
Ni2 Ni 0.27307(16) 0.58060(13) -0.32897(15)
N6 N 0.1329(13) 0.4899(10) -0.1910(14)
N7 N 0.1661(10) 0.5459(9) -0.3173(9)
H27 H 0.1213 0.5830 -0.3087
N8 N -0.2919(12) 0.4002(9) 0.4330(9)
H28 H -0.3301 0.4383 0.4477
N9 N -0.3814(10) 0.3896(8) 0.3391(11)
H29 H -0.4245 0.4281 0.3462
N10 N -0.2516(11) 0.4398(9) 0.2240(10)
H30 H -0.2141 0.4011 0.2101
C14 C 0.0350(18) 0.4484(14) -0.0337(19)
H31 H 0.0539 0.4113 -0.0568
C15 C 0.0161(19) 0.4301(17) 0.0394(17)
H32 H 0.0344 0.3828 0.0629
C16 C 0.0277(18) 0.5229(16) -0.0790(16)
C17 C 0.0570(17) 0.5392(14) -0.1574(13)
H33 H -0.0078 0.4593 0.1743
H34 H -0.0717 0.4128 0.1754
C18 C 0.1405(14) 0.4817(10) -0.2550(14)
H35 H -0.1844 0.5604 0.2630
H36 H -0.0849 0.5271 0.2545
C19 C -0.1700(15) 0.4613(12) 0.3882(14)
H37 H -0.2068 0.5062 0.3966
H38 H -0.1116 0.4606 0.3901
C20 C -0.2079(15) 0.3988(12) 0.4438(13)
H39 H -0.1686 0.3540 0.4379
H40 H -0.2166 0.4029 0.4921
C21 C -0.3297(13) 0.3324(13) 0.4799(12)
H41 H -0.2899 0.2907 0.4658
H42 H -0.3346 0.3273 0.5301
C22 C -0.4165(16) 0.3348(13) 0.4729(15)
H43 H -0.4541 0.3797 0.4808
H44 H -0.4433 0.2956 0.5096
C23 C -0.4099(14) 0.3290(13) 0.4003(16)
H45 H 0.3691 0.7145 -0.3921
H46 H 0.4669 0.6766 -0.4007
C24 C -0.3755(16) 0.3817(14) 0.2663(14)
H47 H -0.3397 0.3361 0.2592
H48 H -0.4335 0.3835 0.2631
C25 C -0.3346(17) 0.4427(14) 0.2102(14)
H49 H -0.3238 0.4373 0.1620
H50 H -0.3729 0.4883 0.2141
C26 C -0.207(2) 0.5053(12) 0.1809(12)
H51 H -0.1951 0.5083 0.1300
H52 H -0.2496 0.5476 0.1905
Ni3 Ni 0.26912(16) 0.07906(14) -0.31797(16)
N11 N 0.3546(14) -0.0196(10) -0.1824(11)
N12 N 0.3760(10) 0.0063(8) -0.3157(10)
H53 H 0.3617 -0.0367 -0.3102
N13 N 0.3167(12) 0.1014(9) -0.4220(10)
H54 H 0.3409 0.1415 -0.4339
N14 N 0.1594(12) 0.1525(9) -0.3171(13)
H55 H 0.1763 0.1947 -0.3234
N15 N 0.2211(11) 0.0559(10) -0.2103(11)
H56 H 0.1931 0.0178 -0.1974
C27 C 0.383(2) -0.1258(17) -0.0402(19)
H57 H 0.4413 -0.1231 -0.0653
C28 C 0.233(2) -0.1215(15) -0.0352(17)
H58 H 0.1902 -0.1149 -0.0583
C29 C 0.320(2) -0.1130(14) -0.0794(18)
C30 C 0.3318(17) -0.0917(12) -0.1586(14)
H59 H 0.3786 -0.1248 -0.1822
H60 H 0.2780 -0.0906 -0.1689
C31 C 0.4119(17) -0.0025(13) -0.2510(15)
H61 H 0.4306 0.0421 -0.2573
H62 H 0.4637 -0.0398 -0.2534
C32 C 0.4416(14) 0.0230(12) -0.3868(13)
H63 H 0.4870 -0.0187 -0.3930
H64 H 0.4688 0.0625 -0.3910
C33 C 0.3932(15) 0.0430(12) -0.4413(14)
H65 H 0.4312 0.0603 -0.4892
H66 H 0.3722 0.0016 -0.4409
C34 C 0.2567(16) 0.1197(12) -0.4685(13)
H67 H 0.2902 0.1315 -0.5190
H68 H 0.2302 0.0783 -0.4597
C35 C 0.186(2) 0.1827(13) -0.4529(17)
H69 H 0.1538 0.1983 -0.4890
H70 H 0.2128 0.2222 -0.4572
C36 C 0.1219(17) 0.1659(13) -0.3794(19)
H71 H 0.0730 0.2056 -0.3765
H72 H 0.0990 0.1236 -0.3738
C37 C 0.0998(14) 0.1402(16) -0.2474(18)
H73 H 0.0566 0.1832 -0.2419
H74 H 0.0692 0.1016 -0.2399
C38 C 0.1491(16) 0.1209(12) -0.1956(15)
H75 H 0.1755 0.1611 -0.2003
H76 H 0.1107 0.1085 -0.1468
C39 C 0.2879(16) 0.0340(13) -0.1655(13)
H77 H 0.2568 0.0191 -0.1146
H78 H 0.3124 0.0759 -0.1724
O1 O -0.3418(8) 0.8488(7) 0.3160(7)
O2 O -0.2623(10) 0.7419(8) 0.3492(13)
O3 O 0.3478(8) -0.1536(7) 0.3266(8)
O4 O 0.3184(9) -0.2500(8) 0.3165(11)
O5 O -0.3341(8) 0.5270(6) 0.3277(7)
O6 O -0.4770(8) 0.5203(7) 0.3593(8)
O7 O 0.1114(8) -0.0041(7) 0.3141(7)
O8 O 0.1353(12) 0.0918(9) 0.3306(14)
O9 O -0.2123(8) 1.3132(6) 0.3291(8)
O10 O -0.0715(10) 1.3172(8) 0.3111(12)
O11 O -0.1984(8) 0.9946(7) 0.3187(8)
O12 O -0.2904(10) 1.0978(8) 0.3105(12)
C40 C 0.0864(14) 0.0576(12) 0.3231(13)
C41 C -0.2173(14) 1.0598(13) 0.3151(13)
C42 C -0.1283(15) 1.2837(12) 0.3190(12)
C43 C -0.0053(11) 0.0954(9) 0.3211(10)
C44 C -0.0664(11) 0.0610(10) 0.3204(9)
H79 H -0.0521 0.0126 0.3205
C45 C -0.1484(11) 1.0979(9) 0.3195(10)
C46 C -0.1702(11) 1.1690(9) 0.3206(10)
H80 H -0.2275 1.1925 0.3224
C47 C -0.1118(11) 1.2054(9) 0.3191(11)
C48 C -0.0249(12) 0.1678(10) 0.3199(11)
H81 H 0.0173 0.1913 0.3197
C49 C -0.3291(14) 0.7821(12) 0.3315(13)
C50 C -0.4142(15) 0.5527(11) 0.3423(11)
C51 C 0.3675(12) -0.2165(9) 0.3217(11)
C52 C -0.3962(12) 0.7435(9) 0.3319(10)
C53 C -0.3779(12) 0.6703(9) 0.3375(10)
H82 H -0.3223 0.6453 0.3406
C54 C -0.4371(13) 0.6331(10) 0.3388(10)
C55 C -0.5208(11) 0.6722(9) 0.3340(9)
H83 H -0.5626 0.6480 0.3348
C56 C 0.4577(12) -0.2567(10) 0.3282(11)
C57 C -0.4800(12) 0.7809(11) 0.3268(11)
H84 H -0.4942 0.8302 0.3225
Ni1A Ni -0.22867(16) 1.07881(13) -0.32137(15)
Ni1_2 Ni 0.22867(16) 0.92119(13) 0.32137(15)
Ni1_3 Ni -0.77133(16) 0.92119(13) 0.32137(15)
N1A N -0.1885(14) 1.1108(11) -0.1849(12)
N2A N -0.2796(10) 1.0484(8) -0.2136(9)
H1A H -0.3290 1.0812 -0.2023
N3A N -0.2880(11) 1.0076(9) -0.3257(11)
H2A H -0.2461 0.9678 -0.3301
N4A N -0.1765(12) 1.1043(9) -0.4305(10)
H3A H -0.1289 1.0699 -0.4408
N5A N -0.1655(10) 1.1507(8) -0.3178(10)
H4A H -0.2057 1.1917 -0.3147
C1A C -0.3576(18) 1.1418(17) -0.0332(17)
H5A H -0.4008 1.1470 -0.0553
C2A C -0.2068(18) 1.1391(15) -0.0412(18)
H6A H -0.1492 1.1433 -0.0684
C3A C -0.280(2) 1.1506(13) -0.0760(14)
C4A C -0.2551(15) 1.1684(12) -0.1579(12)
H7A H -0.2324 1.2133 -0.1783
H8A H -0.3071 1.1746 -0.1731
C5A C -0.2233(17) 1.0491(12) -0.1714(13)
H9A H -0.1742 1.0098 -0.1775
H10A H -0.2566 1.0378 -0.1208
C6A C -0.3087(15) 0.9804(12) -0.1965(12)
H11A H -0.2592 0.9411 -0.1976
H12A H -0.3503 0.9712 -0.1488
C7A C -0.3506(15) 0.9872(11) -0.2519(17)
H13A H -0.3677 0.9419 -0.2451
H14A H -0.4030 1.0237 -0.2474
C8A C -0.3294(17) 1.0240(12) -0.3880(16)
H15A H -0.3774 1.0645 -0.3850
H16A H -0.3524 0.9827 -0.3851
C9A C -0.257(2) 1.0419(16) -0.4597(14)
H17A H -0.2777 1.0415 -0.4989
H18A H -0.2058 1.0045 -0.4579
C10A C -0.2318(16) 1.1092(14) -0.4751(13)
H19A H -0.1999 1.1235 -0.5258
H20A H -0.2837 1.1455 -0.4656
C11A C -0.1417(16) 1.1745(12) -0.4459(14)
H21A H -0.1899 1.2149 -0.4457
H22A H -0.0994 1.1830 -0.4932
C12A C -0.0983(15) 1.1683(13) -0.3884(13)
H23A H -0.0803 1.2133 -0.3954
H24A H -0.0470 1.1306 -0.3906
C13A C -0.1307(17) 1.1292(12) -0.2523(17)
H25A H -0.1055 1.1688 -0.2539
H26A H -0.0831 1.0887 -0.2574
Ni2A Ni -0.27307(16) 0.41940(13) 0.32897(15)
Ni2A_2 Ni -0.27307(16) 1.41940(13) 0.32897(15)
Ni2A_3 Ni 0.72693(16) -0.58060(13) 0.32897(15)
N6A N -0.1329(13) 0.5101(10) 0.1910(14)
N7A N -0.1661(10) 0.4541(9) 0.3173(9)
H27A H -0.1213 0.4170 0.3087
N8A N 0.2919(12) 0.5998(9) -0.4330(9)
H28A H 0.3301 0.5617 -0.4477
N9A N 0.3814(10) 0.6104(8) -0.3391(11)
H29A H 0.4245 0.5719 -0.3462
N10A N 0.2516(11) 0.5602(9) -0.2240(10)
H30A H 0.2141 0.5989 -0.2101
C14A C -0.0350(18) 0.5516(14) 0.0337(19)
H31A H -0.0539 0.5887 0.0568
C15A C -0.0161(19) 0.5699(17) -0.0394(17)
H32A H -0.0344 0.6172 -0.0629
C16A C -0.0277(18) 0.4771(16) 0.0790(16)
C17A C -0.0570(17) 0.4608(14) 0.1574(13)
H33A H 0.0078 0.5407 -0.1743
H34A H 0.0717 0.5872 -0.1754
C18A C -0.1405(14) 0.5183(10) 0.2550(14)
H35A H 0.1844 0.4396 -0.2630
H36A H 0.0849 0.4729 -0.2545
C19A C 0.1700(15) 0.5387(12) -0.3882(14)
H37A H 0.2068 0.4938 -0.3966
H38A H 0.1116 0.5394 -0.3901
C20A C 0.2079(15) 0.6012(12) -0.4438(13)
H39A H 0.1686 0.6460 -0.4379
H40A H 0.2166 0.5971 -0.4921
C21A C 0.3297(13) 0.6676(13) -0.4799(12)
H41A H 0.2899 0.7093 -0.4658
H42A H 0.3346 0.6727 -0.5301
C22A C 0.4165(16) 0.6652(13) -0.4729(15)
H43A H 0.4541 0.6203 -0.4808
H44A H 0.4433 0.7044 -0.5096
C23A C 0.4099(14) 0.6710(13) -0.4003(16)
H45A H -0.3691 0.2855 0.3921
H46A H -0.4669 0.3234 0.4007
C24A C 0.3755(16) 0.6183(14) -0.2663(14)
H47A H 0.3397 0.6639 -0.2592
H48A H 0.4335 0.6165 -0.2631
C25A C 0.3346(17) 0.5573(14) -0.2102(14)
H49A H 0.3238 0.5627 -0.1620
H50A H 0.3729 0.5117 -0.2141
C26A C 0.207(2) 0.4947(12) -0.1809(12)
H51A H 0.1951 0.4917 -0.1300
H52A H 0.2496 0.4524 -0.1905
Ni3A Ni -0.26912(16) 0.92094(14) 0.31797(16)
Ni3A_2 Ni -0.26912(16) -0.07906(14) 0.31797(16)
Ni3A_3 Ni 0.73088(16) -0.07906(14) 0.31797(16)
N11A N -0.3546(14) 1.0196(10) 0.1824(11)
N12A N -0.3760(10) 0.9937(8) 0.3157(10)
H53A H -0.3617 1.0367 0.3102
N13A N -0.3167(12) 0.8986(9) 0.4220(10)
H54A H -0.3409 0.8585 0.4339
N14A N -0.1594(12) 0.8475(9) 0.3171(13)
H55A H -0.1763 0.8053 0.3234
N15A N -0.2211(11) 0.9441(10) 0.2103(11)
H56A H -0.1931 0.9822 0.1974
C27A C -0.383(2) 1.1258(17) 0.0402(19)
H57A H -0.4413 1.1231 0.0653
C28A C -0.233(2) 1.1215(15) 0.0352(17)
H58A H -0.1902 1.1149 0.0583
C29A C -0.320(2) 1.1130(14) 0.0794(18)
C30A C -0.3318(17) 1.0917(12) 0.1586(14)
H59A H -0.3786 1.1248 0.1822
H60A H -0.2780 1.0906 0.1689
C31A C -0.4119(17) 1.0025(13) 0.2510(15)
H61A H -0.4306 0.9579 0.2573
H62A H -0.4637 1.0398 0.2534
C32A C -0.4416(14) 0.9770(12) 0.3868(13)
H63A H -0.4870 1.0187 0.3930
H64A H -0.4688 0.9375 0.3910
C33A C -0.3932(15) 0.9570(12) 0.4413(14)
H65A H -0.4312 0.9397 0.4892
H66A H -0.3722 0.9984 0.4409
C34A C -0.2567(16) 0.8803(12) 0.4685(13)
H67A H -0.2902 0.8685 0.5190
H68A H -0.2302 0.9217 0.4597
C35A C -0.186(2) 0.8173(13) 0.4529(17)
H69A H -0.1538 0.8017 0.4890
H70A H -0.2128 0.7778 0.4572
C36A C -0.1219(17) 0.8341(13) 0.3794(19)
H71A H -0.0730 0.7944 0.3765
H72A H -0.0990 0.8764 0.3738
C37A C -0.0998(14) 0.8598(16) 0.2474(18)
H73A H -0.0566 0.8168 0.2419
H74A H -0.0692 0.8984 0.2399
C38A C -0.1491(16) 0.8791(12) 0.1956(15)
H75A H -0.1755 0.8389 0.2003
H76A H -0.1107 0.8915 0.1468
C39A C -0.2879(16) 0.9660(13) 0.1655(13)
H77A H -0.2568 0.9809 0.1146
H78A H -0.3124 0.9241 0.1724
O1A O 0.3418(8) 0.1512(7) -0.3160(7)
O1_2 O 0.6582(8) -0.1512(7) 0.3160(7)
O2_2 O 0.7377(10) -0.2581(8) 0.3492(13)
O3A O -0.3478(8) 1.1536(7) -0.3266(8)
O3_2 O -0.6522(8) 0.8464(7) 0.3266(8)
O4_2 O -0.6816(9) 0.7500(8) 0.3165(11)
O5A O 0.3341(8) 0.4730(6) -0.3277(7)
O5_2 O 0.6659(8) -0.4730(6) 0.3277(7)
O6_2 O 0.5230(8) -0.4797(7) 0.3593(8)
O7A O -0.1114(8) 1.0041(7) -0.3141(7)
O7_2 O 0.1114(8) 0.9959(7) 0.3141(7)
O8_2 O 0.1353(12) 1.0918(9) 0.3306(14)
O9A O 0.2123(8) 0.6868(6) -0.3291(8)
O9_2 O -0.2123(8) 0.3132(6) 0.3291(8)
O10_2 O -0.0715(10) 0.3172(8) 0.3111(12)
O11A O 0.1984(8) 0.0054(7) -0.3187(8)
O11_2 O -0.1984(8) -0.0054(7) 0.3187(8)
O12_2 O -0.2904(10) 0.0978(8) 0.3105(12)
C40_2 C 0.0864(14) 1.0576(12) 0.3231(13)
C41_2 C -0.2173(14) 0.0598(13) 0.3151(13)
C42_2 C -0.1283(15) 0.2837(12) 0.3190(12)
C43_2 C -0.0053(11) 1.0954(9) 0.3211(10)
C44_2 C -0.0664(11) 1.0610(10) 0.3204(9)
H79_2 H -0.0521 1.0126 0.3205
C45_2 C -0.1484(11) 0.0979(9) 0.3195(10)
C46_2 C -0.1702(11) 0.1690(9) 0.3206(10)
H80_2 H -0.2275 0.1925 0.3224
C47_2 C -0.1118(11) 0.2054(9) 0.3191(11)
C48_2 C -0.0249(12) 1.1678(10) 0.3199(11)
H81_2 H 0.0173 1.1913 0.3197
C49_2 C 0.6709(14) -0.2179(12) 0.3315(13)
C50_2 C 0.5858(15) -0.4473(11) 0.3423(11)
C51_2 C -0.6325(12) 0.7835(9) 0.3217(11)
C52_2 C 0.6038(12) -0.2565(9) 0.3319(10)
C53_2 C 0.6221(12) -0.3297(9) 0.3375(10)
H82_2 H 0.6777 -0.3547 0.3406
C54_2 C 0.5629(13) -0.3669(10) 0.3388(10)
C55_2 C 0.4792(11) -0.3278(9) 0.3340(9)
H83_2 H 0.4374 -0.3520 0.3348
C56_2 C -0.5423(12) 0.7433(10) 0.3282(11)
C57_2 C 0.5200(12) -0.2191(11) 0.3268(11)
H84_2 H 0.5058 -0.1698 0.3225
I1 I 0.5000 -1.0000 0.0000
I2 I 0.52614(14) -1.11131(13) 0.12939(12)
I2A I 0.47386(14) -0.88869(13) -0.12939(12)
I3 I 0.0000 -1.0000 0.0000
I4 I -0.02284(16) -0.95449(13) 0.12861(13)
I4A I 0.02284(16) -1.04551(13) -0.12861(13)
I5 I 0.1148(8) -0.3267(6) 0.1928(10)
I6 I -0.0506(4) -0.3065(2) 0.1637(3)
I7 I -0.177(2) -0.235(2) 0.010(3)
I8 I -0.148(4) -0.202(2) -0.135(3)
I9 I 0.434(3) -0.7627(18) 0.2025(16)
I10 I 0.4638(12) -0.8117(6) 0.3315(8)
I11 I 0.5420(12) -0.8450(7) 0.4674(8)
O13 O 0.8445(18) -0.7166(14) 0.1209(12)
O14 O 0.3944(13) -0.5063(11) 0.4925(11)
O15 O 0.325(4) -0.629(2) 0.491(3)
O16 O 0.090(3) -0.859(2) 0.452(3)
O17 O 0.538(3) -0.342(2) 0.129(2)
O18 O 0.0000 -1.0000 0.5000
O19 O 0.014(2) -0.722(2) 0.435(2)
O20 O 0.560(4) -0.603(4) 0.077(3)
O21 O 0.026(4) -0.363(2) 0.460(3)
I12? I -0.2219(5) -0.2807(3) 0.1463(4)
O22? O 0.838(3) -0.6653(19) 0.1488(18)
loop_
_geom_bond_atom_site_label_1
_geom_bond_atom_site_label_2
_geom_bond_site_symmetry_1
_geom_bond_site_symmetry_2
Ni1 N2 1_555 1_555
N1 C4 1_555 1_555
N2 H1 1_555 1_555
N3 Ni1 1_555 1_555
H2 N3 1_555 1_555
N4 Ni1 1_555 1_555
H3 N4 1_555 1_555
N5 Ni1 1_555 1_555
H4 N5 1_555 1_555
C1 H5 1_555 1_555
C2 H6 1_555 1_555
C3 C1 1_555 1_555
C4 C3 1_555 1_555
H7 C4 1_555 1_555
H8 C4 1_555 1_555
C5 N1 1_555 1_555
H9 C5 1_555 1_555
H10 C5 1_555 1_555
C6 N2 1_555 1_555
H11 C6 1_555 1_555
H12 C6 1_555 1_555
C7 N3 1_555 1_555
H13 C7 1_555 1_555
H14 C7 1_555 1_555
C8 N3 1_555 1_555
H15 C8 1_555 1_555
H16 C8 1_555 1_555
C9 C8 1_555 1_555
H17 C9 1_555 1_555
H18 C9 1_555 1_555
C10 N4 1_555 1_555
H19 C10 1_555 1_555
H20 C10 1_555 1_555
C11 N4 1_555 1_555
H21 C11 1_555 1_555
H22 C11 1_555 1_555
C12 N5 1_555 1_555
H23 C12 1_555 1_555
H24 C12 1_555 1_555
C13 N1 1_555 1_555
H25 C13 1_555 1_555
H26 C13 1_555 1_555
Ni2 N7 1_555 1_555
N6 C17 1_555 1_555
N7 H27 1_555 1_555
N8 H28 1_555 1_555
N9 H29 1_555 1_555
N10 H30 1_555 1_555
C14 H31 1_555 1_555
C15 C14 1_555 1_555
H32 C15 1_555 1_555
C16 C14 1_555 1_555
C17 C16 1_555 1_555
H33 C17A 1_555 1_555
H34 C17A 1_555 1_555
C18 N6 1_555 1_555
H35 C18A 1_555 1_555
H36 C18A 1_555 1_555
C19 H37 1_555 1_555
H38 C19 1_555 1_555
C20 N8 1_555 1_555
H39 C20 1_555 1_555
H40 C20 1_555 1_555
C21 N8 1_555 1_555
H41 C21 1_555 1_555
H42 C21 1_555 1_555
C22 C21 1_555 1_555
H43 C22 1_555 1_555
H44 C22 1_555 1_555
C23 N9 1_555 1_555
H45 C23A 1_555 1_555
H46 C23A 1_555 1_555
C24 N9 1_555 1_555
H47 C24 1_555 1_555
H48 C24 1_555 1_555
C25 N10 1_555 1_555
H49 C25 1_555 1_555
H50 C25 1_555 1_555
C26 N10 1_555 1_555
H51 C26 1_555 1_555
H52 C26 1_555 1_555
Ni3 N12 1_555 1_555
N11 C30 1_555 1_555
N12 H53 1_555 1_555
N13 Ni3 1_555 1_555
H54 N13 1_555 1_555
N14 Ni3 1_555 1_555
H55 N14 1_555 1_555
N15 Ni3 1_555 1_555
H56 N15 1_555 1_555
C27 C1 1_555 1_555
H57 C27 1_555 1_555
C28 C2 1_555 1_555
H58 C28 1_555 1_555
C29 C27 1_555 1_555
C30 C29 1_555 1_555
H59 C30 1_555 1_555
H60 C30 1_555 1_555
C31 N11 1_555 1_555
H61 C31 1_555 1_555
H62 C31 1_555 1_555
C32 N12 1_555 1_555
H63 C32 1_555 1_555
H64 C32 1_555 1_555
C33 N13 1_555 1_555
H65 C33 1_555 1_555
H66 C33 1_555 1_555
C34 N13 1_555 1_555
H67 C34 1_555 1_555
H68 C34 1_555 1_555
C35 C34 1_555 1_555
H69 C35 1_555 1_555
H70 C35 1_555 1_555
C36 N14 1_555 1_555
H71 C36 1_555 1_555
H72 C36 1_555 1_555
C37 N14 1_555 1_555
H73 C37 1_555 1_555
H74 C37 1_555 1_555
C38 N15 1_555 1_555
H75 C38 1_555 1_555
H76 C38 1_555 1_555
C39 N11 1_555 1_555
H77 C39 1_555 1_555
H78 C39 1_555 1_555
O1 C49 1_555 1_555
O2 C49 1_555 1_555
O3 Ni1 1_555 1_555
O4 C51 1_555 1_555
O5 C50 1_555 1_555
O6 C50 1_555 1_555
O7 Ni1 1_555 1_555
O8 C40 1_555 1_555
O9 C42 1_555 1_555
O10 C42 1_555 1_555
O11 C41 1_555 1_555
O12 C41 1_555 1_555
C40 O7 1_555 1_555
C41 C45 1_555 1_555
C42 C47 1_555 1_555
C43 C40 1_555 1_555
C44 C43 1_555 1_555
H79 C44 1_555 1_555
C45 C46 1_555 1_555
C46 H80 1_555 1_555
C47 C46 1_555 1_555
C48 C43 1_555 1_555
H81 C48 1_555 1_555
C49 C52 1_555 1_555
C50 C54 1_555 1_555
C51 O3 1_555 1_555
C52 C53 1_555 1_555
C53 H82 1_555 1_555
C54 C53 1_555 1_555
C55 C54 1_555 1_555
H83 C55 1_555 1_555
C56 C51 1_555 1_555
C57 C52 1_555 1_555
H84 C57 1_555 1_555
I1 I2 1_555 1_555
I3 I4 1_555 1_555
I5 I6 1_555 1_555
I7 I8 1_555 1_555
I9 I10 1_555 1_555
I10 I11 1_555 1_555
Ni1A N2A 1_555 1_555
Ni1_2 O7_2 1_555 1_555
Ni1_3 O3_2 1_555 1_555
N1A C4A 1_555 1_555
N2A H1A 1_555 1_555
N3A Ni1A 1_555 1_555
H2A N3A 1_555 1_555
N4A Ni1A 1_555 1_555
H3A N4A 1_555 1_555
N5A Ni1A 1_555 1_555
H4A N5A 1_555 1_555
C1A H5A 1_555 1_555
C2A H6A 1_555 1_555
C3A C1A 1_555 1_555
C4A C3A 1_555 1_555
H7A C4A 1_555 1_555
H8A C4A 1_555 1_555
C5A N1A 1_555 1_555
H9A C5A 1_555 1_555
H10A C5A 1_555 1_555
C6A N2A 1_555 1_555
H11A C6A 1_555 1_555
H12A C6A 1_555 1_555
C7A N3A 1_555 1_555
H13A C7A 1_555 1_555
H14A C7A 1_555 1_555
C8A N3A 1_555 1_555
H15A C8A 1_555 1_555
H16A C8A 1_555 1_555
C9A C8A 1_555 1_555
H17A C9A 1_555 1_555
H18A C9A 1_555 1_555
C10A N4A 1_555 1_555
H19A C10A 1_555 1_555
H20A C10A 1_555 1_555
C11A N4A 1_555 1_555
H21A C11A 1_555 1_555
H22A C11A 1_555 1_555
C12A N5A 1_555 1_555
H23A C12A 1_555 1_555
H24A C12A 1_555 1_555
C13A N1A 1_555 1_555
H25A C13A 1_555 1_555
H26A C13A 1_555 1_555
Ni2A N8 1_555 1_555
Ni2A_2 O9 1_555 1_555
Ni2A_3 O5_2 1_555 1_555
N6A C26 1_555 1_555
N7A C19 1_555 1_555
H27A N7A 1_555 1_555
N8A Ni2 1_555 1_555
H28A N8A 1_555 1_555
N9A Ni2 1_555 1_555
H29A N9A 1_555 1_555
N10A Ni2 1_555 1_555
H30A N10A 1_555 1_555
C14A H31A 1_555 1_555
C15A C16 1_555 1_555
H32A C15A 1_555 1_555
C16A C15 1_555 1_555
C17A N6A 1_555 1_555
H33A C17 1_555 1_555
H34A C17 1_555 1_555
C18A N6A 1_555 1_555
H35A C18 1_555 1_555
H36A C18 1_555 1_555
C19A N7 1_555 1_555
H37A C19A 1_555 1_555
H38A C19A 1_555 1_555
C20A N8A 1_555 1_555
H39A C20A 1_555 1_555
H40A C20A 1_555 1_555
C21A N8A 1_555 1_555
H41A C21A 1_555 1_555
H42A C21A 1_555 1_555
C22A C21A 1_555 1_555
H43A C22A 1_555 1_555
H44A C22A 1_555 1_555
C23A N9A 1_555 1_555
H45A C23 1_555 1_555
H46A C23 1_555 1_555
C24A N9A 1_555 1_555
H47A C24A 1_555 1_555
H48A C24A 1_555 1_555
C25A N10A 1_555 1_555
H49A C25A 1_555 1_555
H50A C25A 1_555 1_555
C26A N6 1_555 1_555
H51A C26A 1_555 1_555
H52A C26A 1_555 1_555
Ni3A O1 1_555 1_555
Ni3A_2 O11_2 1_555 1_555
Ni3A_3 O1_2 1_555 1_555
N11A C30A 1_555 1_555
N12A Ni3A 1_555 1_555
H53A N12A 1_555 1_555
N13A Ni3A 1_555 1_555
H54A N13A 1_555 1_555
N14A Ni3A 1_555 1_555
H55A N14A 1_555 1_555
N15A Ni3A 1_555 1_555
H56A N15A 1_555 1_555
C27A C1A 1_555 1_555
H57A C27A 1_555 1_555
C28A C2A 1_555 1_555
H58A C28A 1_555 1_555
C29A C27A 1_555 1_555
C30A C29A 1_555 1_555
H59A C30A 1_555 1_555
H60A C30A 1_555 1_555
C31A N11A 1_555 1_555
H61A C31A 1_555 1_555
H62A C31A 1_555 1_555
C32A N12A 1_555 1_555
H63A C32A 1_555 1_555
H64A C32A 1_555 1_555
C33A N13A 1_555 1_555
H65A C33A 1_555 1_555
H66A C33A 1_555 1_555
C34A N13A 1_555 1_555
H67A C34A 1_555 1_555
H68A C34A 1_555 1_555
C35A C34A 1_555 1_555
H69A C35A 1_555 1_555
H70A C35A 1_555 1_555
C36A N14A 1_555 1_555
H71A C36A 1_555 1_555
H72A C36A 1_555 1_555
C37A N14A 1_555 1_555
H73A C37A 1_555 1_555
H74A C37A 1_555 1_555
C38A N15A 1_555 1_555
H75A C38A 1_555 1_555
H76A C38A 1_555 1_555
C39A N11A 1_555 1_555
H77A C39A 1_555 1_555
H78A C39A 1_555 1_555
O1A Ni3 1_555 1_555
O1_2 C49_2 1_555 1_555
O2_2 C49_2 1_555 1_555
O3A Ni1A 1_555 1_555
O3_2 C51_2 1_555 1_555
O4_2 C51_2 1_555 1_555
O5A Ni2 1_555 1_555
O5_2 C50_2 1_555 1_555
O6_2 C50_2 1_555 1_555
O7A Ni1A 1_555 1_555
O7_2 C40_2 1_555 1_555
O8_2 C40_2 1_555 1_555
O9A Ni2 1_555 1_555
O9_2 Ni2A 1_555 1_555
O10_2 C42_2 1_555 1_555
O11A Ni3 1_555 1_555
O11_2 C41_2 1_555 1_555
O12_2 C41_2 1_555 1_555
C40_2 C43_2 1_555 1_555
C41_2 C45_2 1_555 1_555
C42_2 O9_2 1_555 1_555
C43_2 C44_2 1_555 1_555
C44_2 C45 1_555 1_555
H79_2 C44_2 1_555 1_555
C45_2 C44 1_555 1_555
C46_2 C45_2 1_555 1_555
H80_2 C46_2 1_555 1_555
C47_2 C48 1_555 1_555
C48_2 C47 1_555 1_555
H81_2 C48_2 1_555 1_555
C49_2 C52_2 1_555 1_555
C50_2 C54_2 1_555 1_555
C51_2 C56_2 1_555 1_555
C52_2 C53_2 1_555 1_555
C53_2 H82_2 1_555 1_555
C54_2 C53_2 1_555 1_555
C55_2 C56 1_555 1_555
H83_2 C55_2 1_555 1_555
C56_2 C55 1_555 1_555
C57_2 C56 1_555 1_555
H84_2 C57_2 1_555 1_555
I2A I1 1_555 1_555
I4A I3 1_555 1_555
N2 C5 1_555 1_555
N5 C13 1_555 1_555
C2 C3 1_555 1_555
C6 C7 1_555 1_555
C9 C10 1_555 1_555
C11 C12 1_555 1_555
N7 C18 1_555 1_555
N9 Ni2A 1_555 1_555
N10 Ni2A 1_555 1_555
C19 C20 1_555 1_555
C22 C23 1_555 1_555
C24 C25 1_555 1_555
N12 C31 1_555 1_555
N15 C39 1_555 1_555
C28 C29 1_555 1_555
C32 C33 1_555 1_555
C35 C36 1_555 1_555
C37 C38 1_555 1_555
O5 Ni2A 1_555 1_555
O11 Ni3A 1_555 1_555
C57 C56_2 1_555 1_555
N2A C5A 1_555 1_555
N5A C13A 1_555 1_555
C2A C3A 1_555 1_555
C6A C7A 1_555 1_555
C9A C10A 1_555 1_555
C11A C12A 1_555 1_555
Ni2A N7A 1_555 1_555
N7A C18A 1_555 1_555
N10A C26A 1_555 1_555
C14A C15A 1_555 1_555
C14A C16A 1_555 1_555
C16A C17A 1_555 1_555
C19A C20A 1_555 1_555
C22A C23A 1_555 1_555
C24A C25A 1_555 1_555
N12A C31A 1_555 1_555
N15A C39A 1_555 1_555
C28A C29A 1_555 1_555
C32A C33A 1_555 1_555
C35A C36A 1_555 1_555
C37A C38A 1_555 1_555
C42_2 C47_2 1_555 1_555
C43_2 C48_2 1_555 1_555
C46_2 C47_2 1_555 1_555
C52_2 C57_2 1_555 1_555
C54_2 C55_2 1_555 1_555

#END
