
#######################################################################
#
#                 Cambridge Crystallographic Data Centre
#                                CCDC 
#
#######################################################################
#
# If this CIF has been generated from an entry in the Cambridge 
# Structural Database, then it will include bibliographic, chemical, 
# crystal, experimental, refinement or atomic coordinate data resulting 
# from the CCDC's data processing and validation procedures.
#
#######################################################################

data_FANWOI
_symmetry_cell_setting           trigonal
_symmetry_space_group_name_H-M   'P 3 1 c'
_symmetry_Int_Tables_number      159
_space_group_name_Hall           "P 3 -2'c"
loop_
_symmetry_equiv_pos_site_id
_symmetry_equiv_pos_as_xyz
1 x,y,z
2 -y,x-y,z
3 y,x,1/2+z
4 -x+y,-x,z
5 -x,-x+y,1/2+z
6 x-y,-y,1/2+z
_cell_length_a                   19.2401(8)
_cell_length_b                   19.2401(8)
_cell_length_c                   17.8208(9)
_cell_angle_alpha                90
_cell_angle_beta                 90
_cell_angle_gamma                120
_cell_volume                     5713.11
loop_
_atom_site_label
_atom_site_type_symbol
_atom_site_fract_x
_atom_site_fract_y
_atom_site_fract_z
C1 C 0.53193(17) 0.36212(17) 0.60689(15)
C2 C 0.49924(17) 0.40690(18) 0.65005(15)
C3 C 0.5322(3) 0.4389(3) 0.7196(3)
H1 H 0.5745 0.4321 0.7388
C4 C 0.5043(3) 0.4802(4) 0.7611(3)
H2 H 0.5266 0.5009 0.8090
C5 C 0.44335(18) 0.4916(2) 0.73239(18)
C6 C 0.4099(2) 0.4608(2) 0.66335(18)
H3 H 0.3682 0.4684 0.6439
C7 C 0.4384(2) 0.4180(2) 0.62212(18)
H4 H 0.4156 0.3963 0.5745
C8 C 0.3272(2) 0.4109(2) 0.8626(3)
H5 H 0.2913 0.4001 0.9055
H6 H 0.3699 0.3997 0.8766
H7 H 0.2965 0.3765 0.8204
C9 C 0.36327(17) 0.49660(17) 0.84022(16)
C10 C 0.43525(16) 0.61196(17) 0.78147(15)
C11 C 0.70296(18) 0.56446(19) 0.45654(17)
C12 C 0.65129(17) 0.60370(17) 0.45707(16)
C13 C 0.6817(2) 0.6808(2) 0.4277(2)
H8 H 0.7341 0.7078 0.4068
C14 C 0.6356(2) 0.7186(2) 0.4289(2)
H9 H 0.6570 0.7714 0.4095
C15 C 0.55894(17) 0.67889(17) 0.45849(16)
C16 C 0.52587(18) 0.60065(18) 0.48567(17)
H10 H 0.4725 0.5729 0.5045
C17 C 0.57288(18) 0.56396(17) 0.48465(17)
H11 H 0.5509 0.5108 0.5032
C18 C 0.4829(3) 0.7238(3) 0.3255(2)
H12 H 0.4470 0.7362 0.2968
H13 H 0.4658 0.6668 0.3198
H14 H 0.5379 0.7565 0.3069
C19 C 0.4798(2) 0.74197(19) 0.40624(18)
C20 C 0.49313(18) 0.74494(18) 0.52835(17)
C21 C 0.51951(19) 0.73580(19) 0.60423(17)
C22 C 0.5982(2) 0.7861(3) 0.6257(2)
H15 H 0.6354 0.8240 0.5911
C23 C 0.6230(3) 0.7813(4) 0.6972(3)
H16 H 0.6768 0.8172 0.7119
C24 C 0.5700(2) 0.7242(4) 0.7481(2)
H17 H 0.5877 0.7209 0.7971
C25 C 0.49118(18) 0.67231(19) 0.72671(16)
C26 C 0.46592(18) 0.67853(18) 0.65503(16)
H18 H 0.4118 0.6436 0.6405
N1 N 0.35576(13) 0.55240(13) 0.87471(12)
N2 N 0.40161(14) 0.62591(13) 0.83869(13)
N3 N 0.41226(16) 0.53101(15) 0.77927(15)
N4 N 0.4433(2) 0.77897(19) 0.43395(17)
N5 N 0.45178(18) 0.78020(19) 0.51280(16)
N6 N 0.51329(15) 0.71979(15) 0.46375(13)
O1 O 0.6667 0.3333 0.49218(16)
O2 O 0.58291(14) 0.35058(15) 0.64204(11)
O3 O 0.50717(12) 0.33915(12) 0.54142(11)
O4 O 0.67273(13) 0.49571(12) 0.48802(12)
O5 O 0.76942(15) 0.59887(17) 0.42559(15)
Zn1 Zn 0.6667 0.3333 0.60008(2)
Zn2 Zn 0.292230(16) 0.552720(16) 0.965170(15)
C1C C 0.83019(24) 0.46807(17) 0.60689(15)
C1A C 0.63788(17) 0.16981(24) 0.60689(15)
C2C C 0.90766(25) 0.50076(17) 0.65005(15)
C2A C 0.59310(18) 0.09234(25) 0.65005(15)
C3C C 0.9067(4) 0.4678(3) 0.7196(3)
C3A C 0.5611(3) 0.0933(4) 0.7196(3)
H1C H 0.8576 0.4255 0.7388
H1A H 0.5679 0.1424 0.7388
C4C C 0.9759(5) 0.4957(3) 0.7611(3)
C4A C 0.5198(4) 0.0241(5) 0.7611(3)
H2C H 0.9743 0.4734 0.8090
H2A H 0.4991 0.0257 0.8090
C5C C 1.04825(27) 0.55665(18) 0.73239(18)
C5A C 0.5084(2) -0.04825(27) 0.73239(18)
C6C C 1.0509(3) 0.5901(2) 0.66335(18)
C6A C 0.5392(2) -0.0509(3) 0.66335(18)
H3C H 1.1002 0.6318 0.6439
H3A H 0.5316 -0.1002 0.6439
C7C C 0.9796(3) 0.5616(2) 0.62212(18)
C7A C 0.5820(2) 0.0204(3) 0.62212(18)
H4C H 0.9807 0.5844 0.5745
H4A H 0.6037 0.0193 0.5745
C8C C 1.0837(3) 0.6728(2) 0.8626(3)
C8A C 0.5891(2) -0.0837(3) 0.8626(3)
H5C H 1.1088 0.7087 0.9055
H5A H 0.5999 -0.1088 0.9055
H6C H 1.0298 0.6301 0.8766
H6A H 0.6003 -0.0298 0.8766
H7C H 1.0800 0.7035 0.8204
H7A H 0.6235 -0.0800 0.8204
C9C C 1.13333(24) 0.63673(17) 0.84022(16)
C9A C 0.50340(17) -0.13333(24) 0.84022(16)
C10C C 1.17671(23) 0.56475(16) 0.78147(15)
C10A C 0.38804(17) -0.17671(23) 0.78147(15)
C11C C 0.86150(26) 0.29704(18) 0.45654(17)
C11A C 0.43554(19) 0.13850(26) 0.45654(17)
C12C C 0.95241(24) 0.34871(17) 0.45707(16)
C12A C 0.39630(17) 0.04759(24) 0.45707(16)
C13C C 0.9991(3) 0.3183(2) 0.4277(2)
C13A C 0.3192(2) 0.0009(3) 0.4277(2)
H8C H 0.9737 0.2659 0.4068
H8A H 0.2922 0.0263 0.4068
C14C C 1.0830(3) 0.3644(2) 0.4289(2)
C14A C 0.2814(2) -0.0830(3) 0.4289(2)
H9C H 1.1144 0.3430 0.4095
H9A H 0.2286 -0.1144 0.4095
C15C C 1.11995(24) 0.44106(17) 0.45849(16)
C15A C 0.32111(17) -0.11995(24) 0.45849(16)
C16C C 1.07478(25) 0.47413(18) 0.48567(17)
C16A C 0.39935(18) -0.07478(25) 0.48567(17)
H10C H 1.1004 0.5275 0.5045
H10A H 0.4271 -0.1004 0.5045
C17C C 0.99108(25) 0.42712(18) 0.48465(17)
C17A C 0.43604(17) 0.00892(25) 0.48465(17)
H11C H 0.9599 0.4491 0.5032
H11A H 0.4892 0.0401 0.5032
C18C C 1.2409(4) 0.5171(3) 0.3255(2)
C18A C 0.2762(3) -0.2409(4) 0.3255(2)
H12C H 1.2892 0.5530 0.2968
H12A H 0.2638 -0.2892 0.2968
H13C H 1.2010 0.5342 0.3198
H13A H 0.3332 -0.2010 0.3198
H14C H 1.2186 0.4621 0.3069
H14A H 0.2435 -0.2186 0.3069
C19C C 1.26217(28) 0.5202(2) 0.40624(18)
C19A C 0.25803(19) -0.26217(28) 0.40624(18)
C20C C 1.25181(25) 0.50687(18) 0.52835(17)
C20A C 0.25506(18) -0.25181(25) 0.52835(17)
C21C C 1.21629(27) 0.48049(19) 0.60423(17)
C21A C 0.26420(19) -0.21629(27) 0.60423(17)
C22C C 1.1879(4) 0.4018(2) 0.6257(2)
C22A C 0.2139(3) -0.1879(4) 0.6257(2)
H15C H 1.1886 0.3646 0.5911
H15A H 0.1760 -0.1886 0.5911
C23C C 1.1583(5) 0.3770(3) 0.6972(3)
C23A C 0.2187(4) -0.1583(5) 0.6972(3)
H16C H 1.1404 0.3232 0.7119
H16A H 0.1828 -0.1404 0.7119
C24C C 1.1542(4) 0.4300(2) 0.7481(2)
C24A C 0.2758(4) -0.1542(4) 0.7481(2)
H17C H 1.1332 0.4123 0.7971
H17A H 0.2791 -0.1332 0.7971
C25C C 1.18113(26) 0.50882(18) 0.72671(16)
C25A C 0.32769(19) -0.18113(26) 0.72671(16)
C26C C 1.21261(25) 0.53408(18) 0.65503(16)
C26A C 0.32147(18) -0.21261(25) 0.65503(16)
H18C H 1.2318 0.5882 0.6405
H18A H 0.3564 -0.2318 0.6405
N1C N 1.19664(18) 0.64424(13) 0.87471(12)
N1A N 0.44760(13) -0.19664(18) 0.87471(12)
N2C N 1.22430(19) 0.59839(14) 0.83869(13)
N2A N 0.37409(13) -0.22430(19) 0.83869(13)
N3C N 1.11875(22) 0.58774(16) 0.77927(15)
N3A N 0.46899(15) -0.11875(22) 0.77927(15)
N4C N 1.33567(28) 0.5567(2) 0.43395(17)
N4A N 0.22103(19) -0.33567(28) 0.43395(17)
N5C N 1.32842(26) 0.54822(18) 0.51280(16)
N5A N 0.21980(19) -0.32842(26) 0.51280(16)
N6C N 1.20650(21) 0.48671(15) 0.46375(13)
N6A N 0.28021(15) -0.20650(21) 0.46375(13)
O1E O 0.3334 0.6667 0.99218(16)
O1D O 1.3333 0.6666 0.99218(16)
O1B O 0.3333 -0.3333 0.99218(16)
O2C O 0.76767(21) 0.41709(14) 0.64204(11)
O2A O 0.64942(15) 0.23233(21) 0.64204(11)
O3C O 0.83198(17) 0.49283(12) 0.54142(11)
O3A O 0.66085(12) 0.16802(17) 0.54142(11)
O3B O 0.33915(12) 0.50717(12) 1.04142(11)
O3E O 1.16802(17) 0.66085(12) 1.04142(11)
O3D O 0.49283(12) -0.16802(17) 1.04142(11)
O4C O 0.82298(18) 0.32727(13) 0.48802(12)
O4A O 0.50429(12) 0.17702(18) 0.48802(12)
O4E O 0.17702(18) 0.50429(12) 0.98802(12)
O4D O 1.32727(13) 0.82298(18) 0.98802(12)
O4B O 0.49571(12) -0.32727(13) 0.98802(12)
O5C O 0.82945(23) 0.23058(15) 0.42559(15)
O5A O 0.40113(17) 0.17055(23) 0.42559(15)
Zn2C Zn 1.260490(23) 0.707770(16) 0.965170(15)
Zn2A Zn 0.447280(16) -0.260490(23) 0.965170(15)
Zn2E Zn 0.739510(23) 0.447280(16) 0.465170(15)
Zn2B Zn 0.552720(16) 0.292230(16) 0.465170(15)
Zn2D Zn 0.707770(16) 0.260490(23) 0.465170(15)
loop_
_geom_bond_atom_site_label_1
_geom_bond_atom_site_label_2
_geom_bond_site_symmetry_1
_geom_bond_site_symmetry_2
C1 C2 1_555 1_555
C2 C3 1_555 1_555
C3 H1 1_555 1_555
C4 C3 1_555 1_555
H2 C4 1_555 1_555
C5 C4 1_555 1_555
C6 C5 1_555 1_555
H3 C6 1_555 1_555
C7 C2 1_555 1_555
H4 C7 1_555 1_555
C8 H5 1_555 1_555
H6 C8 1_555 1_555
H7 C8 1_555 1_555
C9 C8 1_555 1_555
C10 C25 1_555 1_555
C11 C12 1_555 1_555
C12 C13 1_555 1_555
C13 H8 1_555 1_555
C14 C13 1_555 1_555
H9 C14 1_555 1_555
C15 C14 1_555 1_555
C16 C15 1_555 1_555
H10 C16 1_555 1_555
C17 C12 1_555 1_555
H11 C17 1_555 1_555
C18 H12 1_555 1_555
H13 C18 1_555 1_555
H14 C18 1_555 1_555
C19 C18 1_555 1_555
C20 C21 1_555 1_555
C21 C22 1_555 1_555
C22 H15 1_555 1_555
C23 C22 1_555 1_555
H16 C23 1_555 1_555
C24 C23 1_555 1_555
H17 C24 1_555 1_555
C25 C24 1_555 1_555
C26 C21 1_555 1_555
H18 C26 1_555 1_555
N1 C9 1_555 1_555
N2 C10 1_555 1_555
N3 C5 1_555 1_555
N4 C19 1_555 1_555
N5 C20 1_555 1_555
N6 C15 1_555 1_555
O1 Zn1 1_555 1_555
O2 C1 1_555 1_555
O3 C1 1_555 1_555
O4 C11 1_555 1_555
O5 C11 1_555 1_555
Zn1 O2 1_555 1_555
Zn2 N1 1_555 1_555
C1C C2C 1_555 1_555
C1A C2A 1_555 1_555
C2C C3C 1_555 1_555
C2A C3A 1_555 1_555
C3C H1C 1_555 1_555
C3A H1A 1_555 1_555
C4C C3C 1_555 1_555
C4A C3A 1_555 1_555
H2C C4C 1_555 1_555
H2A C4A 1_555 1_555
C5C C4C 1_555 1_555
C5A C4A 1_555 1_555
C6C C5C 1_555 1_555
C6A C5A 1_555 1_555
H3C C6C 1_555 1_555
H3A C6A 1_555 1_555
C7C C2C 1_555 1_555
C7A C2A 1_555 1_555
H4C C7C 1_555 1_555
H4A C7A 1_555 1_555
C8C H5C 1_555 1_555
C8A H5A 1_555 1_555
H6C C8C 1_555 1_555
H6A C8A 1_555 1_555
H7C C8C 1_555 1_555
H7A C8A 1_555 1_555
C9C C8C 1_555 1_555
C9A C8A 1_555 1_555
C10C C25C 1_555 1_555
C10A C25A 1_555 1_555
C11C C12C 1_555 1_555
C11A C12A 1_555 1_555
C12C C13C 1_555 1_555
C12A C13A 1_555 1_555
C13C H8C 1_555 1_555
C13A H8A 1_555 1_555
C14C C13C 1_555 1_555
C14A C13A 1_555 1_555
H9C C14C 1_555 1_555
H9A C14A 1_555 1_555
C15C C14C 1_555 1_555
C15A C14A 1_555 1_555
C16C C15C 1_555 1_555
C16A C15A 1_555 1_555
H10C C16C 1_555 1_555
H10A C16A 1_555 1_555
C17C C12C 1_555 1_555
C17A C12A 1_555 1_555
H11C C17C 1_555 1_555
H11A C17A 1_555 1_555
C18C H12C 1_555 1_555
C18A H12A 1_555 1_555
H13C C18C 1_555 1_555
H13A C18A 1_555 1_555
H14C C18C 1_555 1_555
H14A C18A 1_555 1_555
C19C C18C 1_555 1_555
C19A C18A 1_555 1_555
C20C C21C 1_555 1_555
C20A C21A 1_555 1_555
C21C C22C 1_555 1_555
C21A C22A 1_555 1_555
C22C H15C 1_555 1_555
C22A H15A 1_555 1_555
C23C C22C 1_555 1_555
C23A C22A 1_555 1_555
H16C C23C 1_555 1_555
H16A C23A 1_555 1_555
C24C C23C 1_555 1_555
C24A C23A 1_555 1_555
H17C C24C 1_555 1_555
H17A C24A 1_555 1_555
C25C C24C 1_555 1_555
C25A C24A 1_555 1_555
C26C C21C 1_555 1_555
C26A C21A 1_555 1_555
H18C C26C 1_555 1_555
H18A C26A 1_555 1_555
N1C C9C 1_555 1_555
N1A C9A 1_555 1_555
N2C C10C 1_555 1_555
N2A C10A 1_555 1_555
N3C C5C 1_555 1_555
N3A C5A 1_555 1_555
N4C C19C 1_555 1_555
N4A C19A 1_555 1_555
N5C C20C 1_555 1_555
N5A C20A 1_555 1_555
N6C C15C 1_555 1_555
N6A C15A 1_555 1_555
O1E Zn2 1_555 1_555
O1D Zn2C 1_555 1_555
O1B Zn2A 1_555 1_555
O2C Zn1 1_555 1_555
O2A Zn1 1_555 1_555
O3C C1C 1_555 1_555
O3A C1A 1_555 1_555
O3B Zn2 1_555 1_555
O3E Zn2C 1_555 1_555
O3D Zn2A 1_555 1_555
O4C C11C 1_555 1_555
O4A C11A 1_555 1_555
O4E Zn2 1_555 1_555
O4D Zn2C 1_555 1_555
O4B Zn2A 1_555 1_555
O5C C11C 1_555 1_555
O5A C11A 1_555 1_555
Zn2C N1C 1_555 1_555
Zn2A N1A 1_555 1_555
Zn2E O1 1_555 1_555
Zn2B O1 1_555 1_555
Zn2D O1 1_555 1_555
C6 C7 1_555 1_555
C9 N3 1_555 1_555
C10 N3 1_555 1_555
C16 C17 1_555 1_555
C19 N6 1_555 1_555
C20 N6 1_555 1_555
C25 C26 1_555 1_555
N1 N2 1_555 1_555
N4 N5 1_555 1_555
O3 Zn2B 1_555 1_555
O4 Zn2E 1_555 1_555
C1C O2C 1_555 1_555
C1A O2A 1_555 1_555
C6C C7C 1_555 1_555
C6A C7A 1_555 1_555
C9C N3C 1_555 1_555
C9A N3A 1_555 1_555
C10C N3C 1_555 1_555
C10A N3A 1_555 1_555
C16C C17C 1_555 1_555
C16A C17A 1_555 1_555
C19C N6C 1_555 1_555
C19A N6A 1_555 1_555
C20C N6C 1_555 1_555
C20A N6A 1_555 1_555
C25C C26C 1_555 1_555
C25A C26A 1_555 1_555
N1C N2C 1_555 1_555
N1A N2A 1_555 1_555
N4C N5C 1_555 1_555
N4A N5A 1_555 1_555
O3C Zn2E 1_555 1_555
O3A Zn2D 1_555 1_555
O4C Zn2D 1_555 1_555
O4A Zn2B 1_555 1_555

#END
