
#######################################################################
#
#                 Cambridge Crystallographic Data Centre
#                                CCDC 
#
#######################################################################
#
# If this CIF has been generated from an entry in the Cambridge 
# Structural Database, then it will include bibliographic, chemical, 
# crystal, experimental, refinement or atomic coordinate data resulting 
# from the CCDC's data processing and validation procedures.
#
#######################################################################

data_FANWIC
_symmetry_cell_setting           trigonal
_symmetry_space_group_name_H-M   'P 3 1 c'
_symmetry_Int_Tables_number      159
_space_group_name_Hall           "P 3 -2'c"
loop_
_symmetry_equiv_pos_site_id
_symmetry_equiv_pos_as_xyz
1 x,y,z
2 -y,x-y,z
3 y,x,1/2+z
4 -x+y,-x,z
5 -x,-x+y,1/2+z
6 x-y,-y,1/2+z
_cell_length_a                   18.9863(11)
_cell_length_b                   18.9863(11)
_cell_length_c                   18.0965(10)
_cell_angle_alpha                90
_cell_angle_beta                 90
_cell_angle_gamma                120
_cell_volume                     5649.45
loop_
_atom_site_label
_atom_site_type_symbol
_atom_site_fract_x
_atom_site_fract_y
_atom_site_fract_z
C1 C 0.5320(3) 0.3638(4) 0.6051(4)
C2 C 0.5028(3) 0.4112(3) 0.6496(4)
C3 C 0.5371(4) 0.4399(5) 0.7192(5)
H1 H 0.5778 0.4300 0.7373
C4 C 0.5104(5) 0.4833(6) 0.7615(6)
H2 H 0.5329 0.5033 0.8084
C5 C 0.4495(4) 0.4967(4) 0.7331(4)
C6 C 0.4166(4) 0.4694(4) 0.6660(4)
H3 H 0.3760 0.4796 0.6482
C7 C 0.4425(4) 0.4260(4) 0.6232(4)
H4 H 0.4195 0.4067 0.5764
C8 C 0.3350(5) 0.4136(4) 0.8631(6)
H5 H 0.2880 0.3974 0.8946
H6 H 0.3754 0.4064 0.8896
H7 H 0.3187 0.3803 0.8189
C9 C 0.3702(3) 0.5002(3) 0.8423(4)
C10 C 0.4410(3) 0.6174(3) 0.7854(4)
C11 C 0.7112(4) 0.5711(4) 0.4597(4)
C12 C 0.6586(3) 0.6119(3) 0.4608(4)
C13 C 0.6875(4) 0.6884(4) 0.4340(5)
H8 H 0.7400 0.7166 0.4136
C14 C 0.6410(4) 0.7250(4) 0.4362(5)
H9 H 0.6617 0.7776 0.4169
C15 C 0.5641(3) 0.6850(4) 0.4666(4)
C16 C 0.5328(4) 0.6075(4) 0.4913(4)
H10 H 0.4794 0.5791 0.5098
C17 C 0.5794(4) 0.5704(4) 0.4893(4)
H11 H 0.5579 0.5170 0.5071
C18 C 0.4852(6) 0.7290(6) 0.3369(5)
H12 H 0.4522 0.7452 0.3086
H13 H 0.4643 0.6712 0.3304
H14 H 0.5410 0.7590 0.3197
C19 C 0.4820(4) 0.7467(4) 0.4165(4)
C20 C 0.4965(4) 0.7500(4) 0.5359(4)
C21 C 0.5239(4) 0.7428(4) 0.6111(4)
C22 C 0.6038(5) 0.7948(6) 0.6321(5)
H15 H 0.6410 0.8322 0.5980
C23 C 0.6286(5) 0.7916(8) 0.7031(7)
H16 H 0.6823 0.8281 0.7178
C24 C 0.5752(5) 0.7355(6) 0.7522(5)
H17 H 0.5927 0.7349 0.8007
C25 C 0.4972(3) 0.6803(4) 0.7326(4)
C26 C 0.4716(4) 0.6848(4) 0.6610(4)
H18 H 0.4179 0.6479 0.6465
N1 N 0.3609(3) 0.5552(3) 0.8772(3)
N2 N 0.4062(3) 0.6294(3) 0.8422(3)
N3 N 0.4191(3) 0.5364(3) 0.7824(3)
N4 N 0.4436(4) 0.7821(4) 0.4438(4)
N5 N 0.4534(4) 0.7847(4) 0.5213(4)
N6 N 0.5170(3) 0.7256(3) 0.4716(3)
O1 O 0.6667 0.3333 0.4921(4)
O2 O 0.5809(3) 0.3480(3) 0.6401(3)
O3 O 0.5076(2) 0.3438(2) 0.5412(3)
O4 O 0.6795(2) 0.5008(2) 0.4883(3)
O5 O 0.7795(3) 0.6073(3) 0.4311(3)
Zn1 Zn 0.6667 0.3333 0.59782(6)
Zn2 Zn 0.29512(3) 0.55223(3) 0.96496(4)
C1C C 0.8318(5) 0.4680(3) 0.6051(4)
C1A C 0.6362(4) 0.1682(5) 0.6051(4)
C2C C 0.9084(4) 0.4972(3) 0.6496(4)
C2A C 0.5888(3) 0.0916(4) 0.6496(4)
C3C C 0.9028(6) 0.4629(4) 0.7192(5)
C3A C 0.5601(5) 0.0972(6) 0.7192(5)
H1C H 0.8522 0.4222 0.7373
H1A H 0.5700 0.1478 0.7373
C4C C 0.9729(8) 0.4896(5) 0.7615(6)
C4A C 0.5167(6) 0.0271(8) 0.7615(6)
H2C H 0.9704 0.4671 0.8084
H2A H 0.4967 0.0296 0.8084
C5C C 1.0472(6) 0.5505(4) 0.7331(4)
C5A C 0.5033(4) -0.0472(6) 0.7331(4)
C6C C 1.0528(6) 0.5834(4) 0.6660(4)
C6A C 0.5306(4) -0.0528(6) 0.6660(4)
H3C H 1.1036 0.6240 0.6482
H3A H 0.5204 -0.1036 0.6482
C7C C 0.9835(6) 0.5575(4) 0.6232(4)
C7A C 0.5740(4) 0.0165(6) 0.6232(4)
H4C H 0.9872 0.5805 0.5764
H4A H 0.5933 0.0128 0.5764
C8C C 1.0786(6) 0.6650(5) 0.8631(6)
C8A C 0.5864(4) -0.0786(6) 0.8631(6)
H5C H 1.1094 0.7120 0.8946
H5A H 0.6026 -0.1094 0.8946
H6C H 1.0310 0.6246 0.8896
H6A H 0.5936 -0.0310 0.8896
H7C H 1.0616 0.6813 0.8189
H7A H 0.6197 -0.0616 0.8189
C9C C 1.1300(4) 0.6298(3) 0.8423(4)
C9A C 0.4998(3) -0.1300(4) 0.8423(4)
C10C C 1.1764(4) 0.5590(3) 0.7854(4)
C10A C 0.3826(3) -0.1764(4) 0.7854(4)
C11C C 0.8599(6) 0.2888(4) 0.4597(4)
C11A C 0.4289(4) 0.1401(6) 0.4597(4)
C12C C 0.9533(4) 0.3414(3) 0.4608(4)
C12A C 0.3881(3) 0.0467(4) 0.4608(4)
C13C C 1.0009(6) 0.3125(4) 0.4340(5)
C13A C 0.3116(4) -0.0009(6) 0.4340(5)
H8C H 0.9766 0.2600 0.4136
H8A H 0.2834 0.0234 0.4136
C14C C 1.0840(6) 0.3590(4) 0.4362(5)
C14A C 0.2750(4) -0.0840(6) 0.4362(5)
H9C H 1.1159 0.3383 0.4169
H9A H 0.2224 -0.1159 0.4169
C15C C 1.1209(5) 0.4359(3) 0.4666(4)
C15A C 0.3150(4) -0.1209(5) 0.4666(4)
C16C C 1.0747(6) 0.4672(4) 0.4913(4)
C16A C 0.3925(4) -0.0747(6) 0.4913(4)
H10C H 1.0997 0.5206 0.5098
H10A H 0.4209 -0.0997 0.5098
C17C C 0.9910(6) 0.4206(4) 0.4893(4)
C17A C 0.4296(4) 0.0090(6) 0.4893(4)
H11C H 0.9591 0.4421 0.5071
H11A H 0.4830 0.0409 0.5071
C18C C 1.2438(8) 0.5148(6) 0.3369(5)
C18A C 0.2710(6) -0.2438(8) 0.3369(5)
H12C H 1.2930 0.5478 0.3086
H12A H 0.2548 -0.2930 0.3086
H13C H 1.2069 0.5357 0.3304
H13A H 0.3288 -0.2069 0.3304
H14C H 1.2180 0.4590 0.3197
H14A H 0.2410 -0.2180 0.3197
C19C C 1.2647(6) 0.5180(4) 0.4165(4)
C19A C 0.2533(4) -0.2647(6) 0.4165(4)
C20C C 1.2535(6) 0.5035(4) 0.5359(4)
C20A C 0.2500(4) -0.2535(6) 0.5359(4)
C21C C 1.2189(6) 0.4761(4) 0.6111(4)
C21A C 0.2572(4) -0.2189(6) 0.6111(4)
C22C C 1.1910(8) 0.3962(5) 0.6321(5)
C22A C 0.2052(6) -0.1910(8) 0.6321(5)
H15C H 1.1912 0.3590 0.5980
H15A H 0.1678 -0.1912 0.5980
C23C C 1.1630(9) 0.3714(5) 0.7031(7)
C23A C 0.2084(8) -0.1630(9) 0.7031(7)
H16C H 1.1458 0.3177 0.7178
H16A H 0.1719 -0.1458 0.7178
C24C C 1.1603(8) 0.4248(5) 0.7522(5)
C24A C 0.2645(6) -0.1603(8) 0.7522(5)
H17C H 1.1422 0.4073 0.8007
H17A H 0.2651 -0.1422 0.8007
C25C C 1.1831(5) 0.5028(3) 0.7326(4)
C25A C 0.3197(4) -0.1831(5) 0.7326(4)
C26C C 1.2132(6) 0.5284(4) 0.6610(4)
C26A C 0.3152(4) -0.2132(6) 0.6610(4)
H18C H 1.2300 0.5821 0.6465
H18A H 0.3521 -0.2300 0.6465
N1C N 1.1943(4) 0.6391(3) 0.8772(3)
N1A N 0.4448(3) -0.1943(4) 0.8772(3)
N2C N 1.2232(4) 0.5938(3) 0.8422(3)
N2A N 0.3706(3) -0.2232(4) 0.8422(3)
N3C N 1.1173(4) 0.5809(3) 0.7824(3)
N3A N 0.4636(3) -0.1173(4) 0.7824(3)
N4C N 1.3385(6) 0.5564(4) 0.4438(4)
N4A N 0.2179(4) -0.3385(6) 0.4438(4)
N5C N 1.3313(6) 0.5466(4) 0.5213(4)
N5A N 0.2153(4) -0.3313(6) 0.5213(4)
N6C N 1.2086(4) 0.4830(3) 0.4716(3)
N6A N 0.2744(3) -0.2086(4) 0.4716(3)
O1E O 0.3334 0.6667 0.9921(4)
O1D O 1.3333 0.6666 0.9921(4)
O1B O 0.3333 -0.3333 0.9921(4)
O2C O 0.7671(4) 0.4191(3) 0.6401(3)
O2A O 0.6520(3) 0.2329(4) 0.6401(3)
O3C O 0.8362(3) 0.4924(2) 0.5412(3)
O3A O 0.6562(2) 0.1638(3) 0.5412(3)
O3B O 0.3438(2) 0.5076(2) 1.0412(3)
O3E O 1.1638(3) 0.6562(2) 1.0412(3)
O3D O 0.4924(2) -0.1638(3) 1.0412(3)
O4C O 0.8213(3) 0.3205(2) 0.4883(3)
O4A O 0.4992(2) 0.1787(3) 0.4883(3)
O4E O 0.1787(3) 0.4992(2) 0.9883(3)
O4D O 1.3205(2) 0.8213(3) 0.9883(3)
O4B O 0.5008(2) -0.3205(2) 0.9883(3)
O5C O 0.8278(4) 0.2205(3) 0.4311(3)
O5A O 0.3927(3) 0.1722(4) 0.4311(3)
Zn2C Zn 1.25711(4) 0.70488(3) 0.96496(4)
Zn2A Zn 0.44777(3) -0.25711(4) 0.96496(4)
Zn2E Zn 0.74289(4) 0.44777(3) 0.46496(4)
Zn2B Zn 0.55223(3) 0.29512(3) 0.46496(4)
Zn2D Zn 0.70488(3) 0.25711(4) 0.46496(4)
loop_
_geom_bond_atom_site_label_1
_geom_bond_atom_site_label_2
_geom_bond_site_symmetry_1
_geom_bond_site_symmetry_2
C1 C2 1_555 1_555
C2 C3 1_555 1_555
C3 H1 1_555 1_555
C4 C3 1_555 1_555
H2 C4 1_555 1_555
C5 C4 1_555 1_555
C6 C5 1_555 1_555
H3 C6 1_555 1_555
C7 C2 1_555 1_555
H4 C7 1_555 1_555
C8 H5 1_555 1_555
H6 C8 1_555 1_555
H7 C8 1_555 1_555
C9 C8 1_555 1_555
C10 C25 1_555 1_555
C11 C12 1_555 1_555
C12 C13 1_555 1_555
C13 H8 1_555 1_555
C14 C13 1_555 1_555
H9 C14 1_555 1_555
C15 C14 1_555 1_555
C16 C15 1_555 1_555
H10 C16 1_555 1_555
C17 C12 1_555 1_555
H11 C17 1_555 1_555
C18 H12 1_555 1_555
H13 C18 1_555 1_555
H14 C18 1_555 1_555
C19 C18 1_555 1_555
C20 C21 1_555 1_555
C21 C22 1_555 1_555
C22 H15 1_555 1_555
C23 C22 1_555 1_555
H16 C23 1_555 1_555
C24 C23 1_555 1_555
H17 C24 1_555 1_555
C25 C24 1_555 1_555
C26 C21 1_555 1_555
H18 C26 1_555 1_555
N1 C9 1_555 1_555
N2 C10 1_555 1_555
N3 C5 1_555 1_555
N4 C19 1_555 1_555
N5 C20 1_555 1_555
N6 C15 1_555 1_555
O1 Zn1 1_555 1_555
O2 C1 1_555 1_555
O3 C1 1_555 1_555
O4 C11 1_555 1_555
O5 C11 1_555 1_555
Zn1 O2 1_555 1_555
Zn2 N1 1_555 1_555
C1C C2C 1_555 1_555
C1A C2A 1_555 1_555
C2C C3C 1_555 1_555
C2A C3A 1_555 1_555
C3C H1C 1_555 1_555
C3A H1A 1_555 1_555
C4C C3C 1_555 1_555
C4A C3A 1_555 1_555
H2C C4C 1_555 1_555
H2A C4A 1_555 1_555
C5C C4C 1_555 1_555
C5A C4A 1_555 1_555
C6C C5C 1_555 1_555
C6A C5A 1_555 1_555
H3C C6C 1_555 1_555
H3A C6A 1_555 1_555
C7C C2C 1_555 1_555
C7A C2A 1_555 1_555
H4C C7C 1_555 1_555
H4A C7A 1_555 1_555
C8C H5C 1_555 1_555
C8A H5A 1_555 1_555
H6C C8C 1_555 1_555
H6A C8A 1_555 1_555
H7C C8C 1_555 1_555
H7A C8A 1_555 1_555
C9C C8C 1_555 1_555
C9A C8A 1_555 1_555
C10C C25C 1_555 1_555
C10A C25A 1_555 1_555
C11C C12C 1_555 1_555
C11A C12A 1_555 1_555
C12C C13C 1_555 1_555
C12A C13A 1_555 1_555
C13C H8C 1_555 1_555
C13A H8A 1_555 1_555
C14C C13C 1_555 1_555
C14A C13A 1_555 1_555
H9C C14C 1_555 1_555
H9A C14A 1_555 1_555
C15C C14C 1_555 1_555
C15A C14A 1_555 1_555
C16C C15C 1_555 1_555
C16A C15A 1_555 1_555
H10C C16C 1_555 1_555
H10A C16A 1_555 1_555
C17C C12C 1_555 1_555
C17A C12A 1_555 1_555
H11C C17C 1_555 1_555
H11A C17A 1_555 1_555
C18C H12C 1_555 1_555
C18A H12A 1_555 1_555
H13C C18C 1_555 1_555
H13A C18A 1_555 1_555
H14C C18C 1_555 1_555
H14A C18A 1_555 1_555
C19C C18C 1_555 1_555
C19A C18A 1_555 1_555
C20C C21C 1_555 1_555
C20A C21A 1_555 1_555
C21C C22C 1_555 1_555
C21A C22A 1_555 1_555
C22C H15C 1_555 1_555
C22A H15A 1_555 1_555
C23C C22C 1_555 1_555
C23A C22A 1_555 1_555
H16C C23C 1_555 1_555
H16A C23A 1_555 1_555
C24C C23C 1_555 1_555
C24A C23A 1_555 1_555
H17C C24C 1_555 1_555
H17A C24A 1_555 1_555
C25C C24C 1_555 1_555
C25A C24A 1_555 1_555
C26C C21C 1_555 1_555
C26A C21A 1_555 1_555
H18C C26C 1_555 1_555
H18A C26A 1_555 1_555
N1C C9C 1_555 1_555
N1A C9A 1_555 1_555
N2C C10C 1_555 1_555
N2A C10A 1_555 1_555
N3C C5C 1_555 1_555
N3A C5A 1_555 1_555
N4C C19C 1_555 1_555
N4A C19A 1_555 1_555
N5C C20C 1_555 1_555
N5A C20A 1_555 1_555
N6C C15C 1_555 1_555
N6A C15A 1_555 1_555
O1E Zn2 1_555 1_555
O1D Zn2C 1_555 1_555
O1B Zn2A 1_555 1_555
O2C Zn1 1_555 1_555
O2A Zn1 1_555 1_555
O3C C1C 1_555 1_555
O3A C1A 1_555 1_555
O3B Zn2 1_555 1_555
O3E Zn2C 1_555 1_555
O3D Zn2A 1_555 1_555
O4C C11C 1_555 1_555
O4A C11A 1_555 1_555
O4E Zn2 1_555 1_555
O4D Zn2C 1_555 1_555
O4B Zn2A 1_555 1_555
O5C C11C 1_555 1_555
O5A C11A 1_555 1_555
Zn2C N1C 1_555 1_555
Zn2A N1A 1_555 1_555
Zn2E O1 1_555 1_555
Zn2B O1 1_555 1_555
Zn2D O1 1_555 1_555
C6 C7 1_555 1_555
C9 N3 1_555 1_555
C10 N3 1_555 1_555
C16 C17 1_555 1_555
C19 N6 1_555 1_555
C20 N6 1_555 1_555
C25 C26 1_555 1_555
N1 N2 1_555 1_555
N4 N5 1_555 1_555
O3 Zn2B 1_555 1_555
O4 Zn2E 1_555 1_555
C1C O2C 1_555 1_555
C1A O2A 1_555 1_555
C6C C7C 1_555 1_555
C6A C7A 1_555 1_555
C9C N3C 1_555 1_555
C9A N3A 1_555 1_555
C10C N3C 1_555 1_555
C10A N3A 1_555 1_555
C16C C17C 1_555 1_555
C16A C17A 1_555 1_555
C19C N6C 1_555 1_555
C19A N6A 1_555 1_555
C20C N6C 1_555 1_555
C20A N6A 1_555 1_555
C25C C26C 1_555 1_555
C25A C26A 1_555 1_555
N1C N2C 1_555 1_555
N1A N2A 1_555 1_555
N4C N5C 1_555 1_555
N4A N5A 1_555 1_555
O3C Zn2E 1_555 1_555
O3A Zn2D 1_555 1_555
O4C Zn2D 1_555 1_555
O4A Zn2B 1_555 1_555

#END
