
#######################################################################
#
#                 Cambridge Crystallographic Data Centre
#                                CCDC 
#
#######################################################################
#
# If this CIF has been generated from an entry in the Cambridge 
# Structural Database, then it will include bibliographic, chemical, 
# crystal, experimental, refinement or atomic coordinate data resulting 
# from the CCDC's data processing and validation procedures.
#
#######################################################################

data_FANZEA
_symmetry_cell_setting           triclinic
_symmetry_space_group_name_H-M   'P -1'
_symmetry_Int_Tables_number      2
_space_group_name_Hall           '-P 1'
loop_
_symmetry_equiv_pos_site_id
_symmetry_equiv_pos_as_xyz
1 x,y,z
2 -x,-y,-z
_cell_length_a                   6.632(3)
_cell_length_b                   8.104(3)
_cell_length_c                   10.516(4)
_cell_angle_alpha                87.07(2)
_cell_angle_beta                 76.05(2)
_cell_angle_gamma                69.68(2)
_cell_volume                     514.055
loop_
_atom_site_label
_atom_site_type_symbol
_atom_site_fract_x
_atom_site_fract_y
_atom_site_fract_z
Cu1 Cu 0.5000 0.0000 0.0000
Cu2 Cu 0.10917(8) 0.25957(7) 0.50625(6)
O1 O 0.0429(5) 0.4900(4) 0.3604(3)
O2 O 0.2717(5) 0.1610(4) 0.1954(3)
O3 O 0.4153(5) 0.2505(4) -0.0677(3)
O4 O 0.2471(5) 0.6433(4) -0.0828(3)
O5 O -0.0040(5) 0.7826(4) 0.1845(3)
C1 C 0.1142(6) 0.4788(5) 0.2387(4)
C2 C 0.2304(6) 0.3156(5) 0.1583(4)
C3 C 0.2990(6) 0.3636(5) 0.0233(4)
C4 C 0.2171(6) 0.5556(5) 0.0159(4)
C5 C 0.0941(6) 0.6261(5) 0.1496(4)
N1 N -0.1585(5) 0.2112(5) 0.5058(3)
N2 N -0.5838(5) 0.2161(5) 0.5047(3)
C6 C -0.3099(7) 0.2109(7) 0.6171(4)
H1 H -0.2719 0.2076 0.6970
C7 C -0.5171(7) 0.2152(7) 0.6165(4)
H2 H -0.6166 0.2176 0.6963
C8 C -0.4289(7) 0.2081(7) 0.3939(4)
H3 H -0.4635 0.2044 0.3137
C9 C -0.2202(7) 0.2053(7) 0.3949(4)
H4 H -0.1187 0.1990 0.3153
O6 O 0.2510(5) -0.0288(4) -0.0502(4)
H5 H 0.160(9) 0.059(5) -0.080(6)
H6 H 0.250(10) -0.133(3) -0.047(7)
Cu2A Cu 0.89083(8) -0.25957(7) -0.50625(6)
Cu2A_2 Cu -0.10917(8) 0.74043(7) 0.49375(6)
Cu2_2 Cu -0.89083(8) 0.25957(7) 0.50625(6)
Cu2_3 Cu 1.10917(8) -0.74043(7) -0.49375(6)
Cu2_4 Cu 1.10917(8) 0.25957(7) 0.50625(6)
O1A O 0.9571(5) -0.4900(4) -0.3604(3)
O1A_2 O -0.0429(5) 0.5100(4) 0.6396(3)
O1_2 O 1.0429(5) -0.5100(4) -0.6396(3)
O2A O 0.7283(5) -0.1610(4) -0.1954(3)
O3A O 0.5847(5) -0.2505(4) 0.0677(3)
O4A O 0.7529(5) -0.6433(4) 0.0828(3)
O5A O 1.0040(5) -0.7826(4) -0.1845(3)
C1A C 0.8858(6) -0.4788(5) -0.2387(4)
C2A C 0.7696(6) -0.3156(5) -0.1583(4)
C3A C 0.7010(6) -0.3636(5) -0.0233(4)
C4A C 0.7829(6) -0.5556(5) -0.0159(4)
C5A C 0.9059(6) -0.6261(5) -0.1496(4)
N1_2 N 0.8415(5) 0.2112(5) 0.5058(3)
N1A N 1.1585(5) -0.2112(5) -0.5058(3)
N2_2 N 0.4162(5) 0.2161(5) 0.5047(3)
N2A N 0.5838(5) -0.2161(5) -0.5047(3)
C6_2 C 0.6901(7) 0.2109(7) 0.6171(4)
H1_2 H 0.7281 0.2076 0.6970
C7_2 C 0.4829(7) 0.2152(7) 0.6165(4)
H2_2 H 0.3834 0.2176 0.6963
C8_2 C 0.5711(7) 0.2081(7) 0.3939(4)
H3_2 H 0.5365 0.2044 0.3137
C9_2 C 0.7798(7) 0.2053(7) 0.3949(4)
H4_2 H 0.8813 0.1990 0.3153
O6A O 0.7490(5) 0.0288(4) 0.0502(4)
H5A H 0.840(9) -0.059(5) 0.080(6)
H6A H 0.750(10) 0.133(3) 0.047(7)
loop_
_geom_bond_atom_site_label_1
_geom_bond_atom_site_label_2
_geom_bond_site_symmetry_1
_geom_bond_site_symmetry_2
Cu1 O2 1_555 1_555
Cu2 O1 1_555 1_555
O1 C1 1_555 1_555
O2 C2 1_555 1_555
O3 Cu1 1_555 1_555
O4 C4 1_555 1_555
O5 C5 1_555 1_555
C1 C2 1_555 1_555
C2 C3 1_555 1_555
C3 O3 1_555 1_555
C4 C3 1_555 1_555
C5 C1 1_555 1_555
N1 Cu2 1_555 1_555
N2 C7 1_555 1_555
C6 N1 1_555 1_555
H1 C6 1_555 1_555
C7 C6 1_555 1_555
H2 C7 1_555 1_555
C8 N2 1_555 1_555
H3 C8 1_555 1_555
C9 N1 1_555 1_555
H4 C9 1_555 1_555
O6 Cu1 1_555 1_555
H5 O6 1_555 1_555
H6 O6 1_555 1_555
Cu2A O1A 1_555 1_555
Cu2A_2 O1 1_555 1_555
Cu2_2 N2 1_555 1_555
Cu2_3 O1A 1_555 1_555
Cu2_4 N1_2 1_555 1_555
O1A C1A 1_555 1_555
O1A_2 Cu2 1_555 1_555
O1_2 Cu2A 1_555 1_555
O2A Cu1 1_555 1_555
O3A Cu1 1_555 1_555
O4A C4A 1_555 1_555
O5A C5A 1_555 1_555
C1A C2A 1_555 1_555
C2A O2A 1_555 1_555
C3A O3A 1_555 1_555
C4A C3A 1_555 1_555
C5A C1A 1_555 1_555
N1_2 C6_2 1_555 1_555
N1A Cu2A 1_555 1_555
N2_2 Cu2 1_555 1_555
N2A Cu2A 1_555 1_555
C6_2 H1_2 1_555 1_555
C7_2 N2_2 1_555 1_555
H2_2 C7_2 1_555 1_555
C8_2 N2_2 1_555 1_555
H3_2 C8_2 1_555 1_555
C9_2 N1_2 1_555 1_555
H4_2 C9_2 1_555 1_555
O6A Cu1 1_555 1_555
H5A O6A 1_555 1_555
H6A O6A 1_555 1_555
C4 C5 1_555 1_555
C8 C9 1_555 1_555
Cu2A_2 O1A_2 1_555 1_555
Cu2_3 O1_2 1_555 1_555
C2A C3A 1_555 1_555
C4A C5A 1_555 1_555
C6_2 C7_2 1_555 1_555
C8_2 C9_2 1_555 1_555

#END
