
#######################################################################
#
#                 Cambridge Crystallographic Data Centre
#                                CCDC 
#
#######################################################################
#
# If this CIF has been generated from an entry in the Cambridge 
# Structural Database, then it will include bibliographic, chemical, 
# crystal, experimental, refinement or atomic coordinate data resulting 
# from the CCDC's data processing and validation procedures.
#
#######################################################################

data_FAPCOO01
_symmetry_cell_setting           monoclinic
_symmetry_space_group_name_H-M   'C 2/c'
_symmetry_Int_Tables_number      15
_space_group_name_Hall           '-C 2yn'
loop_
_symmetry_equiv_pos_site_id
_symmetry_equiv_pos_as_xyz
1 x,y,z
2 -x,y,1/2-z
3 1/2+x,1/2+y,z
4 1/2-x,1/2+y,1/2-z
5 -x,-y,-z
6 x,-y,1/2+z
7 1/2-x,1/2-y,-z
8 1/2+x,1/2-y,1/2+z
_cell_length_a                   20.646
_cell_length_b                   9.284
_cell_length_c                   19.430
_cell_angle_alpha                90
_cell_angle_beta                 114.71
_cell_angle_gamma                90
_cell_volume                     3383.28
loop_
_atom_site_label
_atom_site_type_symbol
_atom_site_fract_x
_atom_site_fract_y
_atom_site_fract_z
Cd1 Cd 0.2500 0.2500 0.0000
S1 S 0.3378 0.4382 -0.0267
N1 N 0.4430 0.4675 0.1196
C1 C 0.3994 0.4562 0.0600
N2 N 0.5800 0.6494 0.2508
C2 C 0.6014 0.6610 0.1952
C3 C 0.6493 0.7638 0.1947
C4 C 0.6780 0.8585 0.2545
C5 C 0.6561 0.8450 0.3118
C6 C 0.6076 0.7424 0.3083
C7 C 0.7332 0.9782 0.2581
Cd2 Cd 0.5000 0.4684 0.2500
S2 S 0.4167 0.2640 0.2730
N3 N 0.3066 0.2727 0.1292
C8 C 0.3526 0.2698 0.1882
N4 N 0.3282 0.0592 0.0060
C9 C 0.3958 0.0565 0.0554
C10 C 0.4435 -0.0458 0.0528
C11 C 0.4210 -0.1526 -0.0026
C12 C 0.3499 -0.1503 -0.0518
C13 C 0.3061 -0.0447 -0.0456
C14 C 0.4702 -0.2638 -0.0098
N1A N 0.5570 0.4675 0.3804
S2A S 0.5833 0.2640 0.2270
N2A N 0.4200 0.6494 0.2492
S1F S 0.1622 0.0618 0.0267
N3F N 0.1934 0.2273 -0.1292
N4F N 0.1718 0.4408 -0.0060
loop_
_geom_bond_atom_site_label_1
_geom_bond_atom_site_label_2
_geom_bond_site_symmetry_1
_geom_bond_site_symmetry_2
Cd1 S1 1_555 1_555
S1 C1 1_555 1_555
N1 C1 1_555 1_555
N2 C2 1_555 1_555
C2 C3 1_555 1_555
C3 C4 1_555 1_555
C4 C5 1_555 1_555
C5 C6 1_555 1_555
C6 N2 1_555 1_555
C7 C4 1_555 1_555
Cd2 N1 1_555 1_555
S2 Cd2 1_555 1_555
N3 Cd1 1_555 1_555
C8 S2 1_555 1_555
N4 Cd1 1_555 1_555
C9 N4 1_555 1_555
C10 C9 1_555 1_555
C11 C10 1_555 1_555
C12 C11 1_555 1_555
C13 N4 1_555 1_555
C14 C11 1_555 1_555
N1A Cd2 1_555 1_555
S2A Cd2 1_555 1_555
N2A Cd2 1_555 1_555
S1F Cd1 1_555 1_555
N3F Cd1 1_555 1_555
N4F Cd1 1_555 1_555
N2 Cd2 1_555 1_555
N3 C8 1_555 1_555
C12 C13 1_555 1_555

#END
