
#######################################################################
#
#                 Cambridge Crystallographic Data Centre
#                                CCDC 
#
#######################################################################
#
# If this CIF has been generated from an entry in the Cambridge 
# Structural Database, then it will include bibliographic, chemical, 
# crystal, experimental, refinement or atomic coordinate data resulting 
# from the CCDC's data processing and validation procedures.
#
#######################################################################

data_FAPFAF
_symmetry_cell_setting           triclinic
_symmetry_space_group_name_H-M   'P -1'
_symmetry_Int_Tables_number      2
_space_group_name_Hall           '-P 1'
loop_
_symmetry_equiv_pos_site_id
_symmetry_equiv_pos_as_xyz
1 x,y,z
2 -x,-y,-z
_cell_length_a                   6.9128(4)
_cell_length_b                   9.2461(6)
_cell_length_c                   10.6609(7)
_cell_angle_alpha                108.162(5)
_cell_angle_beta                 91.352(5)
_cell_angle_gamma                103.857(5)
_cell_volume                     625.04
loop_
_atom_site_label
_atom_site_type_symbol
_atom_site_fract_x
_atom_site_fract_y
_atom_site_fract_z
Cd1 Cd 0.0000 0.5000 0.5000
Cd2 Cd 0.0000 1.0000 1.0000
Cd3 Cd 0.5000 0.5000 0.0000
S1 S 0.32033(9) 0.74957(7) 0.60476(5)
C1 C 0.2437(3) 0.8345(2) 0.7474(2)
N1 N 0.1910(3) 0.8957(2) 0.8471(2)
S2 S 0.32706(8) 0.26203(6) 0.09725(5)
C2 C 0.2339(3) 0.3642(2) 0.2264(2)
N2 N 0.1706(4) 0.4338(3) 0.3179(2)
S3 S 0.12315(11) 0.88844(7) 1.18645(6)
C3 C 0.1975(3) 0.7350(3) 1.0994(2)
N3 N 0.2529(3) 0.6267(3) 1.0421(2)
N4 N 0.1553(3) 0.3540(2) 0.59651(17)
C4 C 0.2389(3) 0.4161(2) 0.72145(19)
H1 H 0.2188 0.5128 0.7710
N5 N 0.3484(3) 0.3523(2) 0.78156(16)
C5 C 0.3719(3) 0.2115(3) 0.7106(2)
H2 H 0.4467 0.1626 0.7497
C6 C 0.2883(4) 0.1372(3) 0.5814(2)
H3 H 0.3033 0.0385 0.5328
C7 C 0.1819(4) 0.2144(3) 0.5268(2)
H4 H 0.1267 0.1680 0.4387
Cd2_2 Cd 0.0000 0.0000 0.0000
Cd3_2 Cd 0.5000 0.5000 1.0000
Cd3_3 Cd -0.5000 0.5000 1.0000
Cd3_4 Cd -0.5000 0.5000 0.0000
Cd3_5 Cd -0.5000 1.5000 1.0000
S1A S -0.32033(9) 0.25043(7) 0.39524(5)
C1A C -0.2437(3) 0.1655(2) 0.2526(2)
N1A N -0.1910(3) 0.1043(2) 0.1529(2)
N1A_2 N -0.1910(3) 1.1043(2) 1.1529(2)
S2A S -0.32706(8) 0.73797(6) 0.90275(5)
S2_2 S 0.32706(8) 1.26203(6) 1.09725(5)
S2A_2 S 0.67294(8) 0.73797(6) -0.09725(5)
C2A C -0.2339(3) 0.6358(2) 0.7736(2)
N2A N -0.1706(4) 0.5662(3) 0.6821(2)
S3A S -0.12315(11) 1.11156(7) 0.81355(6)
C3A C -0.1975(3) 1.2650(3) 0.9006(2)
N3A N -0.2529(3) 1.3733(3) 0.9579(2)
N3_2 N 0.2529(3) 0.6267(3) 0.0421(2)
N3A_2 N 0.7471(3) 0.3733(3) -0.0421(2)
N4A N -0.1553(3) 0.6460(2) 0.40349(17)
C4A C -0.2389(3) 0.5839(2) 0.27855(19)
H1A H -0.2188 0.4872 0.2290
N5A N -0.3484(3) 0.6477(2) 0.21844(16)
N5_2 N 0.3484(3) 0.3523(2) -0.21844(16)
N5A_2 N 0.6516(3) 0.6477(2) 0.21844(16)
C5A C -0.3719(3) 0.7885(3) 0.2894(2)
H2A H -0.4467 0.8374 0.2503
C6A C -0.2883(4) 0.8628(3) 0.4186(2)
H3A H -0.3033 0.9615 0.4672
C7A C -0.1819(4) 0.7856(3) 0.4732(2)
H4A H -0.1267 0.8320 0.5613
loop_
_geom_bond_atom_site_label_1
_geom_bond_atom_site_label_2
_geom_bond_site_symmetry_1
_geom_bond_site_symmetry_2
Cd1 S1 1_555 1_555
Cd2 N1 1_555 1_555
Cd3 S2 1_555 1_555
S1 C1 1_555 1_555
C1 N1 1_555 1_555
S2 C2 1_555 1_555
C2 N2 1_555 1_555
N2 Cd1 1_555 1_555
S3 Cd2 1_555 1_555
C3 S3 1_555 1_555
N3 C3 1_555 1_555
N4 Cd1 1_555 1_555
C4 N4 1_555 1_555
H1 C4 1_555 1_555
N5 C4 1_555 1_555
C5 N5 1_555 1_555
H2 C5 1_555 1_555
C6 C5 1_555 1_555
H3 C6 1_555 1_555
C7 N4 1_555 1_555
H4 C7 1_555 1_555
Cd2_2 S2 1_555 1_555
Cd3_2 N3 1_555 1_555
Cd3_3 S2A 1_555 1_555
Cd3_4 N5A 1_555 1_555
Cd3_5 N3A 1_555 1_555
S1A Cd1 1_555 1_555
C1A S1A 1_555 1_555
N1A Cd2_2 1_555 1_555
N1A_2 Cd2 1_555 1_555
S2A Cd2 1_555 1_555
S2_2 Cd2 1_555 1_555
S2A_2 Cd3 1_555 1_555
C2A S2A 1_555 1_555
N2A Cd1 1_555 1_555
S3A Cd2 1_555 1_555
C3A S3A 1_555 1_555
N3A C3A 1_555 1_555
N3_2 Cd3 1_555 1_555
N3A_2 Cd3 1_555 1_555
N4A Cd1 1_555 1_555
C4A N4A 1_555 1_555
H1A C4A 1_555 1_555
N5A C4A 1_555 1_555
N5_2 Cd3 1_555 1_555
N5A_2 Cd3 1_555 1_555
C5A N5A 1_555 1_555
H2A C5A 1_555 1_555
C6A C5A 1_555 1_555
H3A C6A 1_555 1_555
C7A N4A 1_555 1_555
H4A C7A 1_555 1_555
N5 Cd3_2 1_555 1_555
C6 C7 1_555 1_555
C1A N1A 1_555 1_555
C2A N2A 1_555 1_555
C6A C7A 1_555 1_555

#END
