
#######################################################################
#
#                 Cambridge Crystallographic Data Centre
#                                CCDC 
#
#######################################################################
#
# If this CIF has been generated from an entry in the Cambridge 
# Structural Database, then it will include bibliographic, chemical, 
# crystal, experimental, refinement or atomic coordinate data resulting 
# from the CCDC's data processing and validation procedures.
#
#######################################################################

data_FAPFEJ
_symmetry_cell_setting           monoclinic
_symmetry_space_group_name_H-M   'P 21/m'
_symmetry_Int_Tables_number      11
_space_group_name_Hall           '-P 2yb'
loop_
_symmetry_equiv_pos_site_id
_symmetry_equiv_pos_as_xyz
1 x,y,z
2 -x,1/2+y,-z
3 -x,-y,-z
4 x,1/2-y,z
_cell_length_a                   5.6358(9)
_cell_length_b                   12.4946(15)
_cell_length_c                   7.1516(13)
_cell_angle_alpha                90
_cell_angle_beta                 105.634(14)
_cell_angle_gamma                90
_cell_volume                     484.963
loop_
_atom_site_label
_atom_site_type_symbol
_atom_site_fract_x
_atom_site_fract_y
_atom_site_fract_z
Cd1 Cd 0.5000 0.5000 0.5000
S1 S 0.36039(10) 0.58526(5) 0.80117(8)
C1 C 0.0665(3) 0.59259(14) 0.6874(3)
N1 N -0.1418(3) 0.59545(14) 0.6098(3)
N2 N 0.3074(3) 0.65539(12) 0.3211(2)
C2 C 0.4022(5) 0.7500 0.3830(4)
H1 H 0.5503 0.7500 0.4798
C3 C 0.0937(4) 0.65654(15) 0.1812(3)
H2 H 0.0205 0.5919 0.1330
C4 C -0.0192(5) 0.7500 0.1078(4)
H3 H -0.1676 0.7500 0.0113
Cd1_2 Cd -0.5000 0.5000 0.5000
Cd1A Cd 0.5000 1.0000 0.5000
Cd1_3 Cd 1.5000 0.5000 0.5000
S1B S 0.63961(10) 0.41474(5) 0.19883(8)
C1B C 0.9335(3) 0.40741(14) 0.3126(3)
N1B N 1.1418(3) 0.40455(14) 0.3902(3)
N1_2 N 0.8582(3) 0.59545(14) 0.6098(3)
N1B_2 N 0.1418(3) 0.40455(14) 0.3902(3)
N2C N 0.3074(3) 0.84461(12) 0.3211(2)
N2B N 0.6926(3) 0.34461(12) 0.6789(2)
C3C C 0.0937(4) 0.84346(15) 0.1812(3)
H2C H 0.0205 0.9081 0.1330
loop_
_geom_bond_atom_site_label_1
_geom_bond_atom_site_label_2
_geom_bond_site_symmetry_1
_geom_bond_site_symmetry_2
Cd1 S1 1_555 1_555
S1 C1 1_555 1_555
C1 N1 1_555 1_555
N1 Cd1_2 1_555 1_555
N2 Cd1 1_555 1_555
C2 N2 1_555 1_555
H1 C2 1_555 1_555
C3 N2 1_555 1_555
H2 C3 1_555 1_555
C4 C3 1_555 1_555
H3 C4 1_555 1_555
Cd1A N2C 1_555 1_555
Cd1_3 N1B 1_555 1_555
S1B Cd1 1_555 1_555
C1B S1B 1_555 1_555
N1B C1B 1_555 1_555
N1_2 Cd1 1_555 1_555
N1B_2 Cd1 1_555 1_555
N2C C2 1_555 1_555
N2B Cd1 1_555 1_555
C3C C4 1_555 1_555
H2C C3C 1_555 1_555
N2C C3C 1_555 1_555

#END
