
#######################################################################
#
#                 Cambridge Crystallographic Data Centre
#                                CCDC 
#
#######################################################################
#
# If this CIF has been generated from an entry in the Cambridge 
# Structural Database, then it will include bibliographic, chemical, 
# crystal, experimental, refinement or atomic coordinate data resulting 
# from the CCDC's data processing and validation procedures.
#
#######################################################################

data_FAPFUZ
_symmetry_cell_setting           monoclinic
_symmetry_space_group_name_H-M   'C 2/c'
_symmetry_Int_Tables_number      15
_space_group_name_Hall           '-C 2yn'
loop_
_symmetry_equiv_pos_site_id
_symmetry_equiv_pos_as_xyz
1 x,y,z
2 -x,y,1/2-z
3 1/2+x,1/2+y,z
4 1/2-x,1/2+y,1/2-z
5 -x,-y,-z
6 x,-y,1/2+z
7 1/2-x,1/2-y,-z
8 1/2+x,1/2-y,1/2+z
_cell_length_a                   8.6778(3)
_cell_length_b                   16.7503(5)
_cell_length_c                   29.2877(8)
_cell_angle_alpha                90
_cell_angle_beta                 92.158(2)
_cell_angle_gamma                90
_cell_volume                     4254.12
loop_
_atom_site_label
_atom_site_type_symbol
_atom_site_fract_x
_atom_site_fract_y
_atom_site_fract_z
Cd1 Cd 0.51027(3) 0.329453(19) 0.628603(11)
Cd2 Cd 0.0000 0.5000 0.5000
Cd3 Cd 0.5000 0.01680(3) 0.7500
Se1 Se 0.25271(5) 0.23768(3) 0.642174(18)
C1 C 0.3461(5) 0.1633(3) 0.67851(17)
N1 N 0.4016(5) 0.1157(3) 0.70178(17)
Se2 Se 0.66390(7) 0.28824(3) 0.708181(19)
C2 C 0.8078(6) 0.3646(3) 0.70647(15)
N2 N 0.8988(6) 0.4143(3) 0.70673(16)
N3 N 0.3946(5) 0.3660(3) 0.55931(15)
C3 C 0.3469(5) 0.3927(3) 0.52577(17)
Se3 Se 0.27901(5) 0.43648(3) 0.472419(16)
N4 N -0.2858(4) 0.4103(3) 0.60538(14)
C4 C -0.1589(5) 0.4228(3) 0.59811(16)
Se4 Se 0.04152(6) 0.43468(5) 0.58657(2)
N5 N 0.1456(4) 0.7272(2) 0.58619(14)
N6 N 0.1427(4) 0.6207(3) 0.53266(15)
C5 C 0.0764(5) 0.6728(3) 0.55977(17)
H1 H -0.0306 0.6709 0.5603
C6 C 0.2944(6) 0.6259(4) 0.5314(3)
H2 H 0.3462 0.5922 0.5120
C7 C 0.3781(6) 0.6793(4) 0.5577(3)
H3 H 0.4849 0.6821 0.5564
C8 C 0.2989(6) 0.7286(4) 0.5862(2)
H4 H 0.3532 0.7633 0.6056
N7 N 0.4104(4) 0.4507(2) 0.66282(14)
N8 N 0.2319(4) 0.5156(2) 0.70922(14)
C9 C 0.2859(5) 0.4525(3) 0.68791(16)
H5 H 0.2317 0.4050 0.6907
C10 C 0.3096(7) 0.5825(3) 0.7054(3)
H6 H 0.2753 0.6281 0.7201
C11 C 0.4397(8) 0.5870(4) 0.6803(3)
H7 H 0.4942 0.6345 0.6779
C12 C 0.4854(7) 0.5196(4) 0.6593(3)
H8 H 0.5725 0.5215 0.6418
Cd1D Cd -0.51027(3) 0.670547(19) 0.371397(11)
Cd1_2 Cd -0.48973(3) 0.329453(19) 0.628603(11)
Cd1B Cd 0.01027(3) 0.829453(19) 0.628603(11)
Cd1D_2 Cd 0.48973(3) 0.670547(19) 0.371397(11)
Cd1F Cd -0.01027(3) 0.170547(19) 0.371397(11)
Cd3B Cd 1.0000 0.51680(3) 0.7500
Cd3B_2 Cd 0.0000 0.51680(3) 0.7500
Cd3D Cd -0.5000 0.98320(3) 0.2500
Cd3F Cd -1.0000 0.48320(3) 0.2500
Cd3F_2 Cd 0.0000 0.48320(3) 0.2500
Se1D Se -0.25271(5) 0.76232(3) 0.357826(18)
C1D C -0.3461(5) 0.8367(3) 0.32149(17)
N1D N -0.4016(5) 0.8843(3) 0.29822(17)
N1A N 0.5984(5) 0.1157(3) 0.79822(17)
Se2D Se -0.66390(7) 0.71176(3) 0.291819(19)
C2D C -0.8078(6) 0.6354(3) 0.29353(15)
N2D N -0.8988(6) 0.5857(3) 0.29327(16)
N2B N 0.3988(6) -0.0857(3) 0.70673(16)
N2C N 0.6012(6) -0.0857(3) 0.79327(16)
N3D N -0.3946(5) 0.6340(3) 0.44069(15)
C3D C -0.3469(5) 0.6073(3) 0.47423(17)
Se3D Se -0.27901(5) 0.56352(3) 0.527581(16)
N4D N 0.2858(4) 0.5897(3) 0.39462(14)
N4_2 N 0.7142(4) 0.4103(3) 0.60538(14)
N4D_2 N -0.7142(4) 0.5897(3) 0.39462(14)
C4D C 0.1589(5) 0.5772(3) 0.40189(16)
Se4D Se -0.04152(6) 0.56532(5) 0.41343(2)
N5D N -0.1456(4) 0.2728(2) 0.41381(14)
N5B N 0.6456(4) 0.2272(2) 0.58619(14)
N5F N -0.6456(4) 0.7728(2) 0.41381(14)
N6D N -0.1427(4) 0.3793(3) 0.46734(15)
C5D C -0.0764(5) 0.3272(3) 0.44023(17)
H1D H 0.0306 0.3291 0.4397
C6D C -0.2944(6) 0.3741(4) 0.4686(3)
H2D H -0.3462 0.4078 0.4880
C7D C -0.3781(6) 0.3207(4) 0.4423(3)
H3D H -0.4849 0.3179 0.4436
C8D C -0.2989(6) 0.2714(4) 0.4138(2)
H4D H -0.3532 0.2367 0.3944
N7D N -0.4104(4) 0.5493(2) 0.33718(14)
N8D N -0.2319(4) 0.4844(2) 0.29078(14)
N8B N 0.7319(4) 0.0156(2) 0.70922(14)
N8C N 0.2681(4) 0.0156(2) 0.79078(14)
C9D C -0.2859(5) 0.5475(3) 0.31209(16)
H5D H -0.2317 0.5950 0.3093
C10D C -0.3096(7) 0.4175(3) 0.2946(3)
H6D H -0.2753 0.3719 0.2799
C11D C -0.4397(8) 0.4130(4) 0.3197(3)
H7D H -0.4942 0.3655 0.3221
C12D C -0.4854(7) 0.4804(4) 0.3407(3)
H8D H -0.5725 0.4785 0.3582
loop_
_geom_bond_atom_site_label_1
_geom_bond_atom_site_label_2
_geom_bond_site_symmetry_1
_geom_bond_site_symmetry_2
Cd1 Se1 1_555 1_555
Cd2 Se3 1_555 1_555
Cd3 N1 1_555 1_555
Se1 C1 1_555 1_555
C1 N1 1_555 1_555
Se2 Cd1 1_555 1_555
C2 Se2 1_555 1_555
N2 C2 1_555 1_555
N3 Cd1 1_555 1_555
C3 N3 1_555 1_555
Se3 C3 1_555 1_555
N4 C4 1_555 1_555
C4 Se4 1_555 1_555
Se4 Cd2 1_555 1_555
N5 C5 1_555 1_555
N6 Cd2 1_555 1_555
C5 N6 1_555 1_555
H1 C5 1_555 1_555
C6 N6 1_555 1_555
H2 C6 1_555 1_555
C7 C6 1_555 1_555
H3 C7 1_555 1_555
C8 N5 1_555 1_555
H4 C8 1_555 1_555
N7 Cd1 1_555 1_555
N8 C9 1_555 1_555
C9 N7 1_555 1_555
H5 C9 1_555 1_555
C10 N8 1_555 1_555
H6 C10 1_555 1_555
C11 C10 1_555 1_555
H7 C11 1_555 1_555
C12 N7 1_555 1_555
H8 C12 1_555 1_555
Cd1D Se1D 1_555 1_555
Cd1_2 N4 1_555 1_555
Cd1B N5 1_555 1_555
Cd1D_2 N4D 1_555 1_555
Cd1F N5D 1_555 1_555
Cd3B N2 1_555 1_555
Cd3B_2 N8 1_555 1_555
Cd3D N1D 1_555 1_555
Cd3F N2D 1_555 1_555
Cd3F_2 N8D 1_555 1_555
Se1D C1D 1_555 1_555
C1D N1D 1_555 1_555
N1A Cd3 1_555 1_555
Se2D Cd1D 1_555 1_555
C2D Se2D 1_555 1_555
N2D C2D 1_555 1_555
N2B Cd3 1_555 1_555
N2C Cd3 1_555 1_555
N3D Cd1D 1_555 1_555
C3D N3D 1_555 1_555
Se3D Cd2 1_555 1_555
N4D C4D 1_555 1_555
N4_2 Cd1 1_555 1_555
N4D_2 Cd1D 1_555 1_555
C4D Se4D 1_555 1_555
Se4D Cd2 1_555 1_555
N5D C5D 1_555 1_555
N5B Cd1 1_555 1_555
N5F Cd1D 1_555 1_555
N6D Cd2 1_555 1_555
C5D N6D 1_555 1_555
H1D C5D 1_555 1_555
C6D N6D 1_555 1_555
H2D C6D 1_555 1_555
C7D C6D 1_555 1_555
H3D C7D 1_555 1_555
C8D N5D 1_555 1_555
H4D C8D 1_555 1_555
N7D Cd1D 1_555 1_555
N8D C9D 1_555 1_555
N8B Cd3 1_555 1_555
N8C Cd3 1_555 1_555
C9D N7D 1_555 1_555
H5D C9D 1_555 1_555
C10D N8D 1_555 1_555
H6D C10D 1_555 1_555
C11D C10D 1_555 1_555
H7D C11D 1_555 1_555
C12D N7D 1_555 1_555
H8D C12D 1_555 1_555
C7 C8 1_555 1_555
C11 C12 1_555 1_555
C3D Se3D 1_555 1_555
C7D C8D 1_555 1_555
C11D C12D 1_555 1_555

#END
