
#######################################################################
#
#                 Cambridge Crystallographic Data Centre
#                                CCDC 
#
#######################################################################
#
# If this CIF has been generated from an entry in the Cambridge 
# Structural Database, then it will include bibliographic, chemical, 
# crystal, experimental, refinement or atomic coordinate data resulting 
# from the CCDC's data processing and validation procedures.
#
#######################################################################

data_FAPFUX
_symmetry_cell_setting           monoclinic
_symmetry_space_group_name_H-M   'P 21'
_symmetry_Int_Tables_number      4
_space_group_name_Hall           'P 2yb'
loop_
_symmetry_equiv_pos_site_id
_symmetry_equiv_pos_as_xyz
1 x,y,z
2 -x,1/2+y,-z
_cell_length_a                   8.276(8)
_cell_length_b                   14.413(7)
_cell_length_c                   9.689(6)
_cell_angle_alpha                90
_cell_angle_beta                 96.68(5)
_cell_angle_gamma                90
_cell_volume                     1147.88
loop_
_atom_site_label
_atom_site_type_symbol
_atom_site_fract_x
_atom_site_fract_y
_atom_site_fract_z
Cu1 Cu 0.17253(4) -0.39310 0.08476(4)
Cl1 Cl 0.12788(11) -0.44877(8) -0.13046(9)
Cl2 Cl 0.21165(12) -0.26731(7) 0.21874(10)
O1 O -0.04194(24) -0.41856(17) 0.13487(26)
N1 N -0.20002(30) -0.56011(18) 0.24841(28)
H3 H -0.1444(59) -0.5640(40) 0.1737(56)
C1 C -0.30277(33) -0.49192(21) 0.25718(32)
C2 C -0.38459(35) -0.48531(22) 0.38407(32)
C3 C -0.46809(41) -0.40542(24) 0.41558(38)
H4 H -0.47042(41) -0.35213(24) 0.35594(38)
C4 C -0.54637(50) -0.40287(32) 0.53387(44)
H5 H -0.60669(50) -0.34878(32) 0.55477(44)
C5 C -0.53927(57) -0.47809(35) 0.62295(47)
H6 H -0.59624(57) -0.47651(35) 0.70375(47)
C6 C -0.45391(50) -0.55687(30) 0.59434(42)
H7 H -0.44622(50) -0.60845(30) 0.65745(42)
C7 C -0.37545(39) -0.56120(24) 0.47519(35)
C8 C -0.28550(41) -0.64694(23) 0.43997(37)
H8 H -0.35778(41) -0.68696(23) 0.38265(37)
H9 H -0.24888(41) -0.67975(23) 0.52404(37)
C9 C -0.13963(38) -0.62296(22) 0.36372(32)
C10 C -0.06987(51) -0.70934(28) 0.30134(39)
H10 H 0.00570(51) -0.69061(28) 0.23863(39)
H11 H -0.15605(51) -0.74344(28) 0.24919(39)
C11 C 0.01562(64) -0.77248(33) 0.41248(46)
H12 H 0.06438(64) -0.82368(33) 0.36932(46)
H13 H -0.06313(64) -0.79717(33) 0.46794(46)
C12 C 0.14732(59) -0.72175(41) 0.50399(51)
H14 H 0.23451(59) -0.70516(41) 0.45153(51)
H15 H 0.19059(59) -0.76225(41) 0.57785(51)
C13 C 0.08183(50) -0.63500(35) 0.56724(44)
H16 H 0.16981(50) -0.60170(35) 0.61833(44)
H17 H 0.00667(50) -0.65233(35) 0.63108(44)
C14 C -0.00400(41) -0.57169(27) 0.45546(38)
H18 H -0.05018(41) -0.51992(27) 0.49934(38)
H19 H 0.07431(41) -0.54799(27) 0.39873(38)
C15 C -0.32161(32) -0.42393(21) 0.14517(32)
C16 C -0.18064(30) -0.38754(28) 0.09324(29)
C17 C -0.19656(37) -0.31131(26) -0.01191(39)
H20 H -0.19110(37) -0.33735(26) -0.10245(39)
H21 H -0.10483(37) -0.27076(26) 0.00828(39)
C18 C -0.35180(35) -0.25344(22) -0.01700(33)
C19 C -0.49457(36) -0.32107(24) -0.02472(35)
H22 H -0.50554(36) -0.35062(24) -0.11412(35)
H23 H -0.59230(36) -0.28631(24) -0.01802(35)
C20 C -0.36781(48) -0.19169(33) -0.14604(44)
H24 H -0.46545(48) -0.15540(33) -0.14926(44)
H25 H -0.27539(48) -0.15113(33) -0.14223(44)
H26 H -0.37222(48) -0.22974(33) -0.22771(44)
C21 C -0.34912(58) -0.19203(29) 0.11148(45)
H27 H -0.44883(58) -0.15746(29) 0.10578(45)
H28 H -0.33928(58) -0.23003(29) 0.19340(45)
H29 H -0.25885(58) -0.14988(29) 0.11592(45)
C22 C -0.47861(28) -0.39481(28) 0.08558(27)
O3 O -0.60425(23) -0.43372(16) 0.11961(25)
O3_2 O 0.39575(23) -0.43372(16) 0.11961(25)
Cu1_2 Cu -0.82747(4) -0.39310 0.08476(4)
O2 O 0.10003(77) -0.10023(35) 0.01270(47)
H1 H 0.1761(38) -0.0776(26) 0.0308(39)
H2 H 0.090(13) -0.1379(97) 0.094(12)
loop_
_geom_bond_atom_site_label_1
_geom_bond_atom_site_label_2
_geom_bond_site_symmetry_1
_geom_bond_site_symmetry_2
Cu1 Cl1 1_555 1_555
Cl2 Cu1 1_555 1_555
O1 Cu1 1_555 1_555
O2 H1 1_555 1_555
H2 O2 1_555 1_555
N1 H3 1_555 1_555
C1 N1 1_555 1_555
C2 C1 1_555 1_555
C3 C2 1_555 1_555
H4 C3 1_555 1_555
C4 C3 1_555 1_555
H5 C4 1_555 1_555
C5 C4 1_555 1_555
H6 C5 1_555 1_555
C6 C5 1_555 1_555
H7 C6 1_555 1_555
C7 C2 1_555 1_555
C8 C7 1_555 1_555
H8 C8 1_555 1_555
H9 C8 1_555 1_555
C9 N1 1_555 1_555
C10 C9 1_555 1_555
H10 C10 1_555 1_555
H11 C10 1_555 1_555
C11 C10 1_555 1_555
H12 C11 1_555 1_555
H13 C11 1_555 1_555
C12 C11 1_555 1_555
H14 C12 1_555 1_555
H15 C12 1_555 1_555
C13 C12 1_555 1_555
H16 C13 1_555 1_555
H17 C13 1_555 1_555
C14 C9 1_555 1_555
H18 C14 1_555 1_555
H19 C14 1_555 1_555
C15 C1 1_555 1_555
C16 O1 1_555 1_555
C17 C16 1_555 1_555
H20 C17 1_555 1_555
H21 C17 1_555 1_555
C18 C17 1_555 1_555
C19 C18 1_555 1_555
H22 C19 1_555 1_555
H23 C19 1_555 1_555
C20 C18 1_555 1_555
H24 C20 1_555 1_555
H25 C20 1_555 1_555
H26 C20 1_555 1_555
C21 C18 1_555 1_555
H27 C21 1_555 1_555
H28 C21 1_555 1_555
H29 C21 1_555 1_555
C22 C15 1_555 1_555
O3 C22 1_555 1_555
O3_2 Cu1 1_555 1_555
Cu1_2 O3 1_555 1_555
C6 C7 1_555 1_555
C8 C9 1_555 1_555
C13 C14 1_555 1_555
C15 C16 1_555 1_555
C19 C22 1_555 1_555

#END
