
#######################################################################
#
#                 Cambridge Crystallographic Data Centre
#                                CCDC 
#
#######################################################################
#
# If this CIF has been generated from an entry in the Cambridge 
# Structural Database, then it will include bibliographic, chemical, 
# crystal, experimental, refinement or atomic coordinate data resulting 
# from the CCDC's data processing and validation procedures.
#
#######################################################################

data_FAPJEM
_symmetry_cell_setting           monoclinic
_symmetry_space_group_name_H-M   'P 21/n'
_symmetry_Int_Tables_number      14
_space_group_name_Hall           '-P 2yn'
loop_
_symmetry_equiv_pos_site_id
_symmetry_equiv_pos_as_xyz
1 x,y,z
2 1/2-x,1/2+y,1/2-z
3 -x,-y,-z
4 1/2+x,1/2-y,1/2+z
_cell_length_a                   6.8896(14)
_cell_length_b                   16.523(3)
_cell_length_c                   16.511(3)
_cell_angle_alpha                90
_cell_angle_beta                 95.20(3)
_cell_angle_gamma                90
_cell_volume                     1871.82
loop_
_atom_site_label
_atom_site_type_symbol
_atom_site_fract_x
_atom_site_fract_y
_atom_site_fract_z
Cu1 Cu 0.14548(6) -0.15846(2) -0.33399(3)
O1 O 0.4665(4) -0.1644(2) -0.29437(17)
H1 H 0.4826 -0.1664 -0.2446
H2 H 0.429(5) -0.2172(16) -0.2892(19)
O2 O 0.0590(3) -0.15227(15) -0.22594(14)
O3 O 0.3346(4) -0.16839(17) -0.14753(14)
O4 O 0.1416(4) -0.10863(15) 0.13570(14)
O5 O 0.2715(4) -0.26597(15) 0.14079(15)
O6 O 0.5807(4) -0.22635(13) 0.15405(14)
N1 N 0.1917(4) -0.14588(16) -0.45264(16)
N2 N 0.1679(4) -0.03547(16) -0.33835(18)
C1 C 0.1598(6) -0.1530(2) -0.1586(2)
C2 C 0.0511(5) -0.13053(18) -0.0861(2)
C3 C -0.1408(6) -0.1054(2) -0.0967(3)
H3 H -0.209(4) -0.1066(16) -0.1490(18)
C4 C -0.2336(6) -0.0835(2) -0.0286(3)
H4 H -0.369(4) -0.0683(17) -0.0404(17)
C5 C -0.1376(6) -0.0866(2) 0.0469(2)
H5 H -0.2023 -0.0721 0.0918
C6 C 0.0550(6) -0.1109(2) 0.0579(2)
C7 C 0.1470(6) -0.1337(2) -0.0095(2)
H6 H 0.267(4) -0.1509(17) -0.0050(17)
C8 C 0.3440(6) -0.1241(2) 0.1480(2)
H7 H 0.3936 -0.1011 0.1998
H8 H 0.4081 -0.0966 0.1058
C9 C 0.3978(6) -0.2132(2) 0.14716(19)
C10 C 0.2017(5) -0.2023(2) -0.5076(2)
H9 H 0.1838 -0.2559 -0.4930
C11 C 0.2382(6) -0.1846(3) -0.5872(2)
H10 H 0.2443 -0.2261 -0.6250
C12 C 0.2652(5) -0.1061(3) -0.6096(2)
H11 H 0.2885 -0.0937 -0.6628
C13 C 0.2574(5) -0.0446(2) -0.5518(2)
C14 C 0.2875(5) 0.0407(3) -0.5675(3)
H12 H 0.3111 0.0573 -0.6195
C15 C 0.2816(5) 0.0954(3) -0.5086(3)
H13 H 0.3042 0.1495 -0.5203
C16 C 0.2417(5) 0.0738(2) -0.4279(3)
C17 C 0.2330(6) 0.1281(2) -0.3637(3)
H14 H 0.2574 0.1828 -0.3714
C18 C 0.1891(6) 0.1011(3) -0.2903(3)
H15 H 0.1814 0.1370 -0.2473
C19 C 0.1553(5) 0.0187(2) -0.2799(2)
H16 H 0.1225 0.0009 -0.2295
C20 C 0.2114(4) -0.0083(2) -0.4115(2)
C21 C 0.2197(5) -0.0675(2) -0.4736(2)
Cu1C Cu 0.64548(6) -0.34154(2) 0.16601(3)
O6C O 0.0807(4) -0.27365(13) -0.34595(14)
loop_
_geom_bond_atom_site_label_1
_geom_bond_atom_site_label_2
_geom_bond_site_symmetry_1
_geom_bond_site_symmetry_2
Cu1 O1 1_555 1_555
O1 H1 1_555 1_555
H2 O1 1_555 1_555
O2 Cu1 1_555 1_555
O3 C1 1_555 1_555
O4 C6 1_555 1_555
O5 C9 1_555 1_555
O6 C9 1_555 1_555
N1 Cu1 1_555 1_555
N2 Cu1 1_555 1_555
C1 O2 1_555 1_555
C2 C1 1_555 1_555
C3 C2 1_555 1_555
H3 C3 1_555 1_555
C4 C3 1_555 1_555
H4 C4 1_555 1_555
C5 C4 1_555 1_555
H5 C5 1_555 1_555
C6 C5 1_555 1_555
C7 C2 1_555 1_555
H6 C7 1_555 1_555
C8 O4 1_555 1_555
H7 C8 1_555 1_555
H8 C8 1_555 1_555
C9 C8 1_555 1_555
C10 N1 1_555 1_555
H9 C10 1_555 1_555
C11 C10 1_555 1_555
H10 C11 1_555 1_555
C12 C11 1_555 1_555
H11 C12 1_555 1_555
C13 C12 1_555 1_555
C14 C13 1_555 1_555
H12 C14 1_555 1_555
C15 C14 1_555 1_555
H13 C15 1_555 1_555
C16 C15 1_555 1_555
C17 C16 1_555 1_555
H14 C17 1_555 1_555
C18 C17 1_555 1_555
H15 C18 1_555 1_555
C19 N2 1_555 1_555
H16 C19 1_555 1_555
C20 N2 1_555 1_555
C21 N1 1_555 1_555
Cu1C O6 1_555 1_555
O6C Cu1 1_555 1_555
C6 C7 1_555 1_555
C13 C21 1_555 1_555
C16 C20 1_555 1_555
C18 C19 1_555 1_555
C20 C21 1_555 1_555

#END
