
#######################################################################
#
#                 Cambridge Crystallographic Data Centre
#                                CCDC 
#
#######################################################################
#
# If this CIF has been generated from an entry in the Cambridge 
# Structural Database, then it will include bibliographic, chemical, 
# crystal, experimental, refinement or atomic coordinate data resulting 
# from the CCDC's data processing and validation procedures.
#
#######################################################################

data_FAPPIV
_symmetry_cell_setting           trigonal
_symmetry_space_group_name_H-M   'P 32 2 1'
_symmetry_Int_Tables_number      154
_space_group_name_Hall           'P 32 2"'
loop_
_symmetry_equiv_pos_site_id
_symmetry_equiv_pos_as_xyz
1 x,y,z
2 -y,x-y,2/3+z
3 -x+y,-x,1/3+z
4 y,x,-z
5 x-y,-y,1/3-z
6 -x,-x+y,2/3-z
_cell_length_a                   11.087(2)
_cell_length_b                   11.087(2)
_cell_length_c                   26.553(6)
_cell_angle_alpha                90
_cell_angle_beta                 90
_cell_angle_gamma                120
_cell_volume                     2826.65
loop_
_atom_site_label
_atom_site_type_symbol
_atom_site_fract_x
_atom_site_fract_y
_atom_site_fract_z
O2 O -0.117(2) -0.490(1) -0.1809(6)
O3 O -0.697(1) -0.158(2) -0.2448(5)
O4 O -0.479(2) -0.219(2) -0.2498(8)
O5 O -0.111(3) 0.295(3) -0.3380(8)
O6 O -0.03(1) -0.514(5) -0.074(2)
Zn1 Zn -0.07683(9) -0.07683 0.00000
P1 P -0.3882(2) -0.1639(2) -0.04546(6)
O7 O -0.436(1) -0.2964(6) -0.0701(3)
O8 O -0.5047(6) -0.1624(9) -0.0120(2)
C1 C -0.639(1) -0.216(2) -0.0345(6)
O9 O -0.2671(5) -0.1099(6) -0.0118(2)
C2 C -0.168(2) 0.141(2) -0.2003(3)
C3 C -0.2946 0.1533 -0.2177
C4 C -0.3788(8) 0.1153(9) -0.1672(3)
O10 O -0.4501 0.1853 -0.1748
C5 C -0.2694(6) 0.1649(7) -0.1263(2)
O11 O -0.1529(5) 0.1597(6) -0.1477(1)
C6 C -0.3094(7) 0.0879(7) -0.0774(2)
O12 O -0.3642(5) -0.0565(5) -0.0886(1)
N1 N -0.1398(6) 0.0293(7) -0.2146(2)
C7 C -0.0661(7) 0.0420(8) -0.2571(2)
O13 O -0.0295(5) 0.1442(5) -0.2858(1)
N2 N -0.0236(6) 0.0329(5) 0.0642(2)
C8 C -0.0944(8) 0.0814(8) 0.0932(2)
N3 N -0.2231(8) 0.0484(9) 0.0795(2)
C9 C -0.0296(9) 0.1628(9) 0.1363(2)
C10 C -0.1863(7) -0.094(1) -0.1849(3)
H1 H -0.6729 -0.3159 -0.03980
H2 H -0.6307 -0.1591 -0.06020
H3 H -0.7127 -0.2169 -0.0072
H4 H -0.1044 0.2320 -0.2206
H5 H -0.2619 0.2589 -0.2289
H6 H -0.3526 0.0830 -0.2479
H7 H -0.4428 0.0023 -0.1658
H8 H -0.2416 0.2692 -0.1195
H9 H -0.3909 0.0978 -0.0600
H10 H -0.2322 0.1235 -0.0523
H11 H -0.0778 0.1984 0.15943
H12 H -0.2449 -0.1005 -0.1551
O9C O -0.1099(6) -0.2671(5) 0.0118(2)
N2C N 0.0329(5) -0.0236(6) -0.0642(2)
N2A N -0.0329(5) -0.0565(8) -0.2691(2)
C7B C 0.1081(11) 0.0661(7) 0.0762(2)
C10B C 0.0923(12) 0.1863(7) 0.1484(3)
C9A C -0.1628(9) -0.1924(13) -0.1970(2)
O1 O -0.482(2) 0.00000 -0.3333
loop_
_geom_bond_atom_site_label_1
_geom_bond_atom_site_label_2
_geom_bond_site_symmetry_1
_geom_bond_site_symmetry_2
Zn1 O9 1_555 1_555
P1 O7 1_555 1_555
O8 P1 1_555 1_555
C1 O8 1_555 1_555
O9 P1 1_555 1_555
C2 C3 1_555 1_555
C3 C4 1_555 1_555
C4 O10 1_555 1_555
C5 C4 1_555 1_555
O11 C2 1_555 1_555
C6 C5 1_555 1_555
O12 P1 1_555 1_555
N1 C2 1_555 1_555
C7 N1 1_555 1_555
O13 C7 1_555 1_555
N2 Zn1 1_555 1_555
C8 N2 1_555 1_555
N3 C8 1_555 1_555
C9 C8 1_555 1_555
C10 N1 1_555 1_555
H1 C1 1_555 1_555
H2 C1 1_555 1_555
H3 C1 1_555 1_555
H4 C2 1_555 1_555
H5 C3 1_555 1_555
H6 C3 1_555 1_555
H7 C4 1_555 1_555
H8 C5 1_555 1_555
H9 C6 1_555 1_555
H10 C6 1_555 1_555
H11 C9 1_555 1_555
H12 C10 1_555 1_555
O9C Zn1 1_555 1_555
N2C Zn1 1_555 1_555
N2A C7 1_555 1_555
C7B N2 1_555 1_555
C10B C9 1_555 1_555
C9A C10 1_555 1_555
C5 O11 1_555 1_555
C6 O12 1_555 1_555

#END
