
#######################################################################
#
#                 Cambridge Crystallographic Data Centre
#                                CCDC 
#
#######################################################################
#
# If this CIF has been generated from an entry in the Cambridge 
# Structural Database, then it will include bibliographic, chemical, 
# crystal, experimental, refinement or atomic coordinate data resulting 
# from the CCDC's data processing and validation procedures.
#
#######################################################################

data_FAPREV
_symmetry_cell_setting           monoclinic
_symmetry_space_group_name_H-M   'P 21/n'
_symmetry_Int_Tables_number      14
_space_group_name_Hall           '-P 2yn'
loop_
_symmetry_equiv_pos_site_id
_symmetry_equiv_pos_as_xyz
1 x,y,z
2 1/2-x,1/2+y,1/2-z
3 -x,-y,-z
4 1/2+x,1/2-y,1/2+z
_cell_length_a                   10.340(2)
_cell_length_b                   9.7251(19)
_cell_length_c                   15.679(3)
_cell_angle_alpha                90
_cell_angle_beta                 101.02(3)
_cell_angle_gamma                90
_cell_volume                     1547.57
loop_
_atom_site_label
_atom_site_type_symbol
_atom_site_fract_x
_atom_site_fract_y
_atom_site_fract_z
Bi1 Bi 0.290643(12) 0.533586(13) 0.213906(8)
O1 O 0.1612(2) 0.7464(2) 0.22107(17)
O2 O 0.0319(2) 0.8788(2) 0.28373(16)
C1 C -0.1855(4) 0.6798(5) 0.2244(3)
H1 H -0.2262 0.7468 0.2525
C2 C 0.3984(3) 0.6659(4) 0.1341(2)
C3 C 0.4580(4) 0.7886(4) 0.1645(3)
H2 H 0.4535 0.8186 0.2202
C4 C 0.5241(5) 0.8671(5) 0.1130(3)
H3 H 0.5648 0.9486 0.1345
C5 C 0.5297(5) 0.8247(6) 0.0303(4)
H4 H 0.5751 0.8770 -0.0040
C6 C 0.4687(5) 0.7055(5) -0.0018(3)
H5 H 0.4714 0.6777 -0.0582
C7 C 0.4029(4) 0.6264(5) 0.0496(3)
H6 H 0.3612 0.5458 0.0273
C8 C 0.4037(4) 0.6095(4) 0.3417(2)
C9 C 0.3395(5) 0.6702(5) 0.4005(3)
H7 H 0.2485 0.6800 0.3870
C10 C 0.4080(7) 0.7172(7) 0.4798(3)
H8 H 0.3628 0.7584 0.5189
C11 C 0.5410(7) 0.7034(6) 0.5004(3)
H9 H 0.5872 0.7361 0.5533
C12 C 0.6060(5) 0.6416(5) 0.4435(3)
H10 H 0.6969 0.6305 0.4581
C13 C 0.5386(4) 0.5946(5) 0.3637(3)
H11 H 0.5844 0.5531 0.3250
C14 C 0.0527(3) 0.7714(3) 0.2424(2)
C15 C -0.0587(3) 0.6770(4) 0.2170(2)
C16 C -0.1521(4) 0.4944(4) 0.1520(3)
H12 H -0.1645 0.4119 0.1216
O3 O -0.0350(3) 0.5621(3) 0.17218(19)
C17 C -0.2459(4) 0.5616(5) 0.1814(3)
H13 H -0.3339 0.5361 0.1751
Bi1A Bi 0.209357(12) 1.033586(13) 0.286094(8)
O1A O 0.3388(2) 0.2464(2) 0.27893(17)
O2A O 0.4681(2) 0.3788(2) 0.21627(16)
loop_
_geom_bond_atom_site_label_1
_geom_bond_atom_site_label_2
_geom_bond_site_symmetry_1
_geom_bond_site_symmetry_2
Bi1 O1 1_555 1_555
O1 C14 1_555 1_555
O2 C14 1_555 1_555
C1 H1 1_555 1_555
C2 Bi1 1_555 1_555
C3 C2 1_555 1_555
H2 C3 1_555 1_555
C4 C3 1_555 1_555
H3 C4 1_555 1_555
C5 C4 1_555 1_555
H4 C5 1_555 1_555
C6 C5 1_555 1_555
H5 C6 1_555 1_555
C7 C2 1_555 1_555
H6 C7 1_555 1_555
C8 Bi1 1_555 1_555
C9 C8 1_555 1_555
H7 C9 1_555 1_555
C10 C9 1_555 1_555
H8 C10 1_555 1_555
C11 C10 1_555 1_555
H9 C11 1_555 1_555
C12 C11 1_555 1_555
H10 C12 1_555 1_555
C13 C8 1_555 1_555
H11 C13 1_555 1_555
C14 C15 1_555 1_555
C15 C1 1_555 1_555
C16 H12 1_555 1_555
O3 C15 1_555 1_555
C17 C1 1_555 1_555
H13 C17 1_555 1_555
Bi1A O1 1_555 1_555
O1A Bi1 1_555 1_555
O2A Bi1 1_555 1_555
O2 Bi1A 1_555 1_555
C6 C7 1_555 1_555
C12 C13 1_555 1_555
C16 O3 1_555 1_555
C16 C17 1_555 1_555

#END
