
#######################################################################
#
#                 Cambridge Crystallographic Data Centre
#                                CCDC 
#
#######################################################################
#
# If this CIF has been generated from an entry in the Cambridge 
# Structural Database, then it will include bibliographic, chemical, 
# crystal, experimental, refinement or atomic coordinate data resulting 
# from the CCDC's data processing and validation procedures.
#
#######################################################################

data_FAPYOM
_symmetry_cell_setting           orthorhombic
_symmetry_space_group_name_H-M   'P 21 21 21'
_symmetry_Int_Tables_number      19
_space_group_name_Hall           'P 2ac 2ab'
loop_
_symmetry_equiv_pos_site_id
_symmetry_equiv_pos_as_xyz
1 x,y,z
2 1/2-x,-y,1/2+z
3 -x,1/2+y,1/2-z
4 1/2+x,1/2-y,-z
_cell_length_a                   5.3065(14)
_cell_length_b                   9.363(3)
_cell_length_c                   21.302(6)
_cell_angle_alpha                90
_cell_angle_beta                 90
_cell_angle_gamma                90
_cell_volume                     1058.38
loop_
_atom_site_label
_atom_site_type_symbol
_atom_site_fract_x
_atom_site_fract_y
_atom_site_fract_z
Zn1 Zn 0.73110(12) 0.15342(6) 0.47876(2)
O1 O 0.5864(7) 0.3137(4) 0.52431(18)
H1 H 0.666(13) 0.343(7) 0.554(3)
O2 O 0.5241(7) 0.1589(4) 0.40320(16)
O3 O 0.7522(9) -0.0211(4) 0.36415(14)
N1 N -0.1875(9) 0.0172(4) 0.03765(17)
C1 C -0.0346(10) 0.0138(6) 0.0885(2)
H2 H 0.0706 -0.0662 0.0936
C2 C -0.0228(10) 0.1206(6) 0.1336(2)
C3 C -0.1778(10) 0.2399(6) 0.1233(2)
H3 H -0.1741 0.3168 0.1516
C4 C -0.3344(11) 0.2448(6) 0.0721(2)
H4 H -0.4390 0.3244 0.0654
C5 C -0.3369(10) 0.1319(6) 0.0305(2)
H5 H -0.4470 0.1354 -0.0040
C6 C 0.1375(11) 0.1062(5) 0.1908(2)
C7 C 0.3455(10) 0.0150(6) 0.1932(2)
H6 H 0.3887 -0.0391 0.1576
C8 C 0.4882(12) 0.0033(6) 0.2468(2)
H7 H 0.6286 -0.0579 0.2474
C9 C 0.4257(11) 0.0819(6) 0.3005(2)
C10 C 0.2187(10) 0.1699(5) 0.2986(2)
H8 H 0.1739 0.2223 0.3345
C11 C 0.0754(10) 0.1826(6) 0.2449(2)
H9 H -0.0655 0.2435 0.2447
C12 C 0.5873(11) 0.0683(6) 0.3595(2)
Zn1C Zn 0.23110(12) 0.34658(6) 0.52124(2)
Zn1A Zn -0.23110(12) -0.15342(6) -0.02124(2)
O1C O 1.0864(7) 0.1863(4) 0.47569(18)
H1C H 1.166(13) 0.157(7) 0.446(3)
N1A N 0.6875(9) -0.0172(4) 0.53765(17)
loop_
_geom_bond_atom_site_label_1
_geom_bond_atom_site_label_2
_geom_bond_site_symmetry_1
_geom_bond_site_symmetry_2
Zn1 O1 1_555 1_555
O1 H1 1_555 1_555
O2 Zn1 1_555 1_555
O3 C12 1_555 1_555
N1 C1 1_555 1_555
C1 H2 1_555 1_555
C2 C1 1_555 1_555
C3 C2 1_555 1_555
H3 C3 1_555 1_555
C4 C3 1_555 1_555
H4 C4 1_555 1_555
C5 N1 1_555 1_555
H5 C5 1_555 1_555
C6 C2 1_555 1_555
C7 C6 1_555 1_555
H6 C7 1_555 1_555
C8 C7 1_555 1_555
H7 C8 1_555 1_555
C9 C8 1_555 1_555
C10 C9 1_555 1_555
H8 C10 1_555 1_555
C11 C6 1_555 1_555
H9 C11 1_555 1_555
C12 O2 1_555 1_555
Zn1C O1 1_555 1_555
Zn1A N1 1_555 1_555
O1C Zn1 1_555 1_555
H1C O1C 1_555 1_555
N1A Zn1 1_555 1_555
C4 C5 1_555 1_555
C9 C12 1_555 1_555
C10 C11 1_555 1_555

#END
