
#######################################################################
#
#                 Cambridge Crystallographic Data Centre
#                                CCDC 
#
#######################################################################
#
# If this CIF has been generated from an entry in the Cambridge 
# Structural Database, then it will include bibliographic, chemical, 
# crystal, experimental, refinement or atomic coordinate data resulting 
# from the CCDC's data processing and validation procedures.
#
#######################################################################

data_FAPYEA08
_symmetry_cell_setting           tetragonal
_symmetry_space_group_name_H-M   'I 41/a'
_symmetry_Int_Tables_number      88
_space_group_name_Hall           '-I 4ad'
loop_
_symmetry_equiv_pos_site_id
_symmetry_equiv_pos_as_xyz
1 x,y,z
2 1/2+x,1/2+y,1/2+z
3 3/4-y,1/4+x,1/4+z
4 1/4-y,3/4+x,3/4+z
5 1/2-x,-y,1/2+z
6 -x,1/2-y,z
7 3/4+y,3/4-x,3/4+z
8 1/4+y,1/4-x,1/4+z
9 -x,-y,-z
10 1/2-x,1/2-y,1/2-z
11 1/4+y,3/4-x,3/4-z
12 3/4+y,1/4-x,1/4-z
13 1/2+x,y,1/2-z
14 x,1/2+y,-z
15 1/4-y,1/4+x,1/4-z
16 3/4-y,3/4+x,3/4-z
_cell_length_a                   21.619(2)
_cell_length_b                   21.619(2)
_cell_length_c                   3.8744(4)
_cell_angle_alpha                90
_cell_angle_beta                 90
_cell_angle_gamma                90
_cell_volume                     1810.82
loop_
_atom_site_label
_atom_site_type_symbol
_atom_site_fract_x
_atom_site_fract_y
_atom_site_fract_z
Cu1 Cu 0.0000 0.2500 0.6250
N1 N -0.0356(1) 0.3232(1) 0.8627(7)
N2 N -0.0714(1) 0.4224(1) 1.1039(6)
C1 C -0.0492(1) 0.3700(1) 0.9845(8)
C2 C -0.0360(1) 0.4593(1) 1.2978(7)
C3 C -0.0626(1) 0.5166(1) 1.4197(7)
C4 C 0.0269(1) 0.4447(1) 1.3869(8)
C5 C -0.1285(1) 0.5321(2) 1.3344(10)
H1 H 0.0444(19) 0.4103(20) 1.314(12)
D1 D -0.1414(20) 0.5262(20) 1.114(13)
D2 D -0.1563(20) 0.5044(22) 1.393(12)
D3 D -0.1410(20) 0.5659(21) 1.415(12)
C3K C 0.2666(1) 0.3126(1) -0.1697(7)
C2K C 0.2093(1) 0.2860(1) -0.0478(7)
C4B C 0.3053(1) 0.2769(1) -0.3631(8)
C5K C 0.2821(2) 0.3785(1) -0.0844(10)
C4K C 0.1947(1) 0.2231(1) -0.1369(8)
N2K N 0.1724(1) 0.3214(1) 0.1461(6)
C2B C 0.2907(1) 0.2140(1) -0.4522(7)
H1B H 0.3397(20) 0.2944(19) -0.436(12)
D3K D 0.3159(21) 0.3910(20) -0.165(12)
D1K D 0.2762(20) 0.3914(20) 0.136(13)
D2K D 0.2544(22) 0.4063(20) -0.143(12)
C3B C 0.2334(1) 0.1874(1) -0.3303(7)
H1K H 0.1603(20) 0.2056(19) -0.064(12)
C1K C 0.1200(1) 0.2992(1) 0.2655(8)
N2B N 0.3276(1) 0.1786(1) -0.6461(6)
C5B C 0.2179(2) 0.1215(1) -0.4156(10)
N1K N 0.0732(1) 0.2856(1) 0.3873(7)
C1B C 0.3800(1) 0.2008(1) -0.7655(8)
D3B D 0.1841(21) 0.1090(20) -0.335(12)
D1B D 0.2238(20) 0.1086(20) -0.636(13)
D2B D 0.2456(22) 0.0937(20) -0.357(12)
N1B N 0.4268(1) 0.2144(1) -0.8873(7)
N1N N -0.0732(1) 0.2144(1) 0.3873(7)
N1E N 0.0356(1) 0.1768(1) 0.8627(7)
Cu1B Cu 0.5000 0.2500 -1.1250
C1N C -0.1200(1) 0.2008(1) 0.2655(8)
C1E C 0.0492(1) 0.1300(1) 0.9845(8)
N1L N 0.4644(1) 0.3232(1) -1.3627(7)
N1G N 0.5732(1) 0.2856(1) -0.8873(7)
N1I N 0.5356(1) 0.1768(1) -1.3627(7)
N2N N -0.1724(1) 0.1786(1) 0.1461(6)
N2E N 0.0714(1) 0.0776(1) 1.1039(6)
C2N C -0.2093(1) 0.2140(1) -0.0478(7)
C2E C 0.0360(1) 0.0407(1) 1.2978(7)
C3N C -0.2666(1) 0.1874(1) -0.1697(7)
C4N C -0.1947(1) 0.2769(1) -0.1369(8)
C3E C 0.0626(1) -0.0166(1) 1.4197(7)
C4E C -0.0269(1) 0.0553(1) 1.3869(8)
C4G C -0.3053(1) 0.2231(1) -0.3631(8)
C5N C -0.2821(2) 0.1215(1) -0.0844(10)
C3G C -0.2334(1) 0.3126(1) -0.3303(7)
H1N H -0.1603(20) 0.2944(19) -0.064(12)
C4M C 0.0269(1) -0.0553(1) 1.6131(8)
C5E C 0.1285(1) -0.0321(2) 1.3344(10)
C3M C -0.0626(1) 0.0166(1) 1.5803(7)
H1E H -0.0444(19) 0.0897(20) 1.314(12)
C4H C -0.0269(1) 0.5553(1) 1.6131(8)
C3H C 0.0626(1) 0.4834(1) 1.5803(7)
C2G C -0.2907(1) 0.2860(1) -0.4522(7)
H1G H -0.3397(20) 0.2056(19) -0.436(12)
D3N D -0.3159(21) 0.1090(20) -0.165(12)
D1N D -0.2762(20) 0.1086(20) 0.136(13)
D2N D -0.2544(22) 0.0937(20) -0.143(12)
C5G C -0.2179(2) 0.3785(1) -0.4156(10)
C2M C -0.0360(1) -0.0407(1) 1.7022(7)
H1M H 0.0444(19) -0.0897(20) 1.686(12)
D3E D 0.1410(20) -0.0659(21) 1.415(12)
D1E D 0.1414(20) -0.0262(20) 1.114(13)
D2E D 0.1563(20) -0.0044(22) 1.393(12)
C5M C -0.1285(1) 0.0321(2) 1.6656(10)
C2H C 0.0360(1) 0.5407(1) 1.7022(7)
H1H H -0.0444(19) 0.5897(20) 1.686(12)
C5H C 0.1285(1) 0.4679(2) 1.6656(10)
N2G N -0.3276(1) 0.3214(1) -0.6461(6)
D3G D -0.1841(21) 0.3910(20) -0.335(12)
D1G D -0.2238(20) 0.3914(20) -0.636(13)
D2G D -0.2456(22) 0.4063(20) -0.357(12)
N2M N -0.0714(1) -0.0776(1) 1.8961(6)
D3M D -0.1410(20) 0.0659(21) 1.585(12)
D1M D -0.1414(20) 0.0262(20) 1.886(13)
D2M D -0.1563(20) 0.0044(22) 1.607(12)
N2H N 0.0714(1) 0.5776(1) 1.8961(6)
D3H D 0.1410(20) 0.4341(21) 1.585(12)
D1H D 0.1414(20) 0.4738(20) 1.886(13)
D2H D 0.1563(20) 0.4956(22) 1.607(12)
C1G C -0.3800(1) 0.2992(1) -0.7655(8)
C1M C -0.0492(1) -0.1300(1) 2.0155(8)
C1H C 0.0492(1) 0.6300(1) 2.0155(8)
N1G_2 N -0.4268(1) 0.2856(1) -0.8873(7)
N1M N -0.0356(1) -0.1768(1) 2.1373(7)
N1H N 0.0356(1) 0.6768(1) 2.1373(7)
Cu1B_2 Cu -0.5000 0.2500 -1.1250
Cu1C Cu 0.0000 -0.2500 2.3750
Cu1C_2 Cu 0.0000 0.7500 2.3750
loop_
_geom_bond_atom_site_label_1
_geom_bond_atom_site_label_2
_geom_bond_site_symmetry_1
_geom_bond_site_symmetry_2
Cu1 N1 1_555 1_555
N1 C1 1_555 1_555
N2 C1 1_555 1_555
C2 N2 1_555 1_555
C3 C2 1_555 1_555
C4 C2 1_555 1_555
C5 C3 1_555 1_555
H1 C4 1_555 1_555
D1 C5 1_555 1_555
D2 C5 1_555 1_555
D3 C5 1_555 1_555
C3K C2K 1_555 1_555
C2K C4K 1_555 1_555
C4B C3K 1_555 1_555
C5K C3K 1_555 1_555
C4K C3B 1_555 1_555
N2K C2K 1_555 1_555
C2B C4B 1_555 1_555
H1B C4B 1_555 1_555
D3K C5K 1_555 1_555
D1K C5K 1_555 1_555
D2K C5K 1_555 1_555
C3B C2B 1_555 1_555
H1K C4K 1_555 1_555
C1K N2K 1_555 1_555
N2B C2B 1_555 1_555
C5B C3B 1_555 1_555
N1K Cu1 1_555 1_555
C1B N2B 1_555 1_555
D3B C5B 1_555 1_555
D1B C5B 1_555 1_555
D2B C5B 1_555 1_555
N1B C1B 1_555 1_555
N1N Cu1 1_555 1_555
N1E Cu1 1_555 1_555
Cu1B N1B 1_555 1_555
C1N N1N 1_555 1_555
C1E N1E 1_555 1_555
N1L Cu1B 1_555 1_555
N1G Cu1B 1_555 1_555
N1I Cu1B 1_555 1_555
N2N C1N 1_555 1_555
N2E C1E 1_555 1_555
C2N N2N 1_555 1_555
C2E N2E 1_555 1_555
C3N C2N 1_555 1_555
C4N C2N 1_555 1_555
C3E C2E 1_555 1_555
C4E C2E 1_555 1_555
C4G C3N 1_555 1_555
C5N C3N 1_555 1_555
C3G C4N 1_555 1_555
H1N C4N 1_555 1_555
C4M C3E 1_555 1_555
C5E C3E 1_555 1_555
C3M C4E 1_555 1_555
H1E C4E 1_555 1_555
C4H C3 1_555 1_555
C3H C4 1_555 1_555
C2G C4G 1_555 1_555
H1G C4G 1_555 1_555
D3N C5N 1_555 1_555
D1N C5N 1_555 1_555
D2N C5N 1_555 1_555
C5G C3G 1_555 1_555
C2M C4M 1_555 1_555
H1M C4M 1_555 1_555
D3E C5E 1_555 1_555
D1E C5E 1_555 1_555
D2E C5E 1_555 1_555
C5M C3M 1_555 1_555
C2H C4H 1_555 1_555
H1H C4H 1_555 1_555
C5H C3H 1_555 1_555
N2G C2G 1_555 1_555
D3G C5G 1_555 1_555
D1G C5G 1_555 1_555
D2G C5G 1_555 1_555
N2M C2M 1_555 1_555
D3M C5M 1_555 1_555
D1M C5M 1_555 1_555
D2M C5M 1_555 1_555
N2H C2H 1_555 1_555
D3H C5H 1_555 1_555
D1H C5H 1_555 1_555
D2H C5H 1_555 1_555
C1G N2G 1_555 1_555
C1M N2M 1_555 1_555
C1H N2H 1_555 1_555
N1G_2 C1G 1_555 1_555
N1M C1M 1_555 1_555
N1H C1H 1_555 1_555
Cu1B_2 N1G_2 1_555 1_555
Cu1C N1M 1_555 1_555
Cu1C_2 N1H 1_555 1_555
C1K N1K 1_555 1_555
C3G C2G 1_555 1_555
C3M C2M 1_555 1_555
C3H C2H 1_555 1_555

#END
