
#######################################################################
#
#                 Cambridge Crystallographic Data Centre
#                                CCDC 
#
#######################################################################
#
# If this CIF has been generated from an entry in the Cambridge 
# Structural Database, then it will include bibliographic, chemical, 
# crystal, experimental, refinement or atomic coordinate data resulting 
# from the CCDC's data processing and validation procedures.
#
#######################################################################

data_FAPYEA10
_symmetry_cell_setting           tetragonal
_symmetry_space_group_name_H-M   'I 41/a'
_symmetry_Int_Tables_number      88
_space_group_name_Hall           '-I 4ad'
loop_
_symmetry_equiv_pos_site_id
_symmetry_equiv_pos_as_xyz
1 x,y,z
2 1/2+x,1/2+y,1/2+z
3 3/4-y,1/4+x,1/4+z
4 1/4-y,3/4+x,3/4+z
5 1/2-x,-y,1/2+z
6 -x,1/2-y,z
7 3/4+y,3/4-x,3/4+z
8 1/4+y,1/4-x,1/4+z
9 -x,-y,-z
10 1/2-x,1/2-y,1/2-z
11 1/4+y,3/4-x,3/4-z
12 3/4+y,1/4-x,1/4-z
13 1/2+x,y,1/2-z
14 x,1/2+y,-z
15 1/4-y,1/4+x,1/4-z
16 3/4-y,3/4+x,3/4-z
_cell_length_a                   21.693(3)
_cell_length_b                   21.693(3)
_cell_length_c                   3.776(1)
_cell_angle_alpha                90
_cell_angle_beta                 90
_cell_angle_gamma                90
_cell_volume                     1776.93
loop_
_atom_site_label
_atom_site_type_symbol
_atom_site_fract_x
_atom_site_fract_y
_atom_site_fract_z
Cu1 Cu 0.0000 0.2500 0.6250
N1 N -0.0368(1) 0.3229(1) 0.8510(5)
N2 N -0.0720(1) 0.4230(1) 1.0911(5)
C1 C -0.0500(1) 0.3705(1) 0.9700(5)
C2 C -0.0359(1) 0.4597(1) 1.2909(5)
C3 C -0.0627(1) 0.5170(1) 1.4168(5)
C4 C 0.0265(1) 0.4448(1) 1.3833(5)
C5 C -0.1285(1) 0.5320(1) 1.3291(5)
H1 H 0.041(1) 0.409(1) 1.303(9)
D1 D -0.135(1) 0.530(1) 1.098(10)
D2 D -0.154(1) 0.504(1) 1.422(10)
D3 D -0.138(1) 0.569(1) 1.426(9)
C3K C 0.2670(1) 0.3127(1) -0.1668(5)
C2K C 0.2097(1) 0.2859(1) -0.0409(5)
C4B C 0.3052(1) 0.2765(1) -0.3667(5)
C5K C 0.2820(1) 0.3785(1) -0.0791(5)
C4K C 0.1948(1) 0.2235(1) -0.1333(5)
N2K N 0.1730(1) 0.3220(1) 0.1589(5)
C2B C 0.2903(1) 0.2141(1) -0.4591(5)
H1B H 0.341(1) 0.291(1) -0.447(9)
D3K D 0.319(1) 0.388(1) -0.176(9)
D1K D 0.280(1) 0.385(1) 0.152(10)
D2K D 0.254(1) 0.404(1) -0.172(10)
C3B C 0.2330(1) 0.1873(1) -0.3332(5)
H1K H 0.159(1) 0.209(1) -0.053(9)
C1K C 0.1205(1) 0.3000(1) 0.2800(5)
N2B N 0.3270(1) 0.1780(1) -0.6589(5)
C5B C 0.2180(1) 0.1215(1) -0.4209(5)
N1K N 0.0729(1) 0.2868(1) 0.3990(5)
C1B C 0.3795(1) 0.2000(1) -0.7800(5)
D3B D 0.181(1) 0.112(1) -0.324(9)
D1B D 0.220(1) 0.115(1) -0.652(10)
D2B D 0.246(1) 0.096(1) -0.328(10)
N1B N 0.4271(1) 0.2132(1) -0.8990(5)
N1N N -0.0729(1) 0.2132(1) 0.3990(5)
N1E N 0.0368(1) 0.1771(1) 0.8510(5)
Cu1B Cu 0.5000 0.2500 -1.1250
C1N C -0.1205(1) 0.2000(1) 0.2800(5)
C1E C 0.0500(1) 0.1295(1) 0.9700(5)
N1L N 0.4632(1) 0.3229(1) -1.3510(5)
N1G N 0.5729(1) 0.2868(1) -0.8990(5)
N1I N 0.5368(1) 0.1771(1) -1.3510(5)
N2N N -0.1730(1) 0.1780(1) 0.1589(5)
N2E N 0.0720(1) 0.0770(1) 1.0911(5)
C2N C -0.2097(1) 0.2141(1) -0.0409(5)
C2E C 0.0359(1) 0.0403(1) 1.2909(5)
C3N C -0.2670(1) 0.1873(1) -0.1668(5)
C4N C -0.1948(1) 0.2765(1) -0.1333(5)
C3E C 0.0627(1) -0.0170(1) 1.4168(5)
C4E C -0.0265(1) 0.0552(1) 1.3833(5)
C4G C -0.3052(1) 0.2235(1) -0.3667(5)
C5N C -0.2820(1) 0.1215(1) -0.0791(5)
C3G C -0.2330(1) 0.3127(1) -0.3332(5)
H1N H -0.159(1) 0.291(1) -0.053(9)
C4M C 0.0265(1) -0.0552(1) 1.6167(5)
C5E C 0.1285(1) -0.0320(1) 1.3291(5)
C3M C -0.0627(1) 0.0170(1) 1.5832(5)
H1E H -0.041(1) 0.091(1) 1.303(9)
C4H C -0.0265(1) 0.5552(1) 1.6167(5)
C3H C 0.0627(1) 0.4830(1) 1.5832(5)
C2G C -0.2903(1) 0.2859(1) -0.4591(5)
H1G H -0.341(1) 0.209(1) -0.447(9)
D3N D -0.319(1) 0.112(1) -0.176(9)
D1N D -0.280(1) 0.115(1) 0.152(10)
D2N D -0.254(1) 0.096(1) -0.172(10)
C5G C -0.2180(1) 0.3785(1) -0.4209(5)
C2M C -0.0359(1) -0.0403(1) 1.7091(5)
H1M H 0.041(1) -0.091(1) 1.697(9)
D3E D 0.138(1) -0.069(1) 1.426(9)
D1E D 0.135(1) -0.030(1) 1.098(10)
D2E D 0.154(1) -0.004(1) 1.422(10)
C5M C -0.1285(1) 0.0320(1) 1.6709(5)
C2H C 0.0359(1) 0.5403(1) 1.7091(5)
H1H H -0.041(1) 0.591(1) 1.697(9)
C5H C 0.1285(1) 0.4680(1) 1.6709(5)
N2G N -0.3270(1) 0.3220(1) -0.6589(5)
D3G D -0.181(1) 0.388(1) -0.324(9)
D1G D -0.220(1) 0.385(1) -0.652(10)
D2G D -0.246(1) 0.404(1) -0.328(10)
N2M N -0.0720(1) -0.0770(1) 1.9089(5)
D3M D -0.138(1) 0.069(1) 1.574(9)
D1M D -0.135(1) 0.030(1) 1.902(10)
D2M D -0.154(1) 0.004(1) 1.578(10)
N2H N 0.0720(1) 0.5770(1) 1.9089(5)
D3H D 0.138(1) 0.431(1) 1.574(9)
D1H D 0.135(1) 0.470(1) 1.902(10)
D2H D 0.154(1) 0.496(1) 1.578(10)
C1G C -0.3795(1) 0.3000(1) -0.7800(5)
C1M C -0.0500(1) -0.1295(1) 2.0300(5)
C1H C 0.0500(1) 0.6295(1) 2.0300(5)
N1G_2 N -0.4271(1) 0.2868(1) -0.8990(5)
N1M N -0.0368(1) -0.1771(1) 2.1490(5)
N1H N 0.0368(1) 0.6771(1) 2.1490(5)
Cu1B_2 Cu -0.5000 0.2500 -1.1250
Cu1C Cu 0.0000 -0.2500 2.3750
Cu1C_2 Cu 0.0000 0.7500 2.3750
loop_
_geom_bond_atom_site_label_1
_geom_bond_atom_site_label_2
_geom_bond_site_symmetry_1
_geom_bond_site_symmetry_2
Cu1 N1 1_555 1_555
N1 C1 1_555 1_555
N2 C1 1_555 1_555
C2 N2 1_555 1_555
C3 C2 1_555 1_555
C4 C2 1_555 1_555
C5 C3 1_555 1_555
H1 C4 1_555 1_555
D1 C5 1_555 1_555
D2 C5 1_555 1_555
D3 C5 1_555 1_555
C3K C2K 1_555 1_555
C2K C4K 1_555 1_555
C4B C3K 1_555 1_555
C5K C3K 1_555 1_555
C4K C3B 1_555 1_555
N2K C2K 1_555 1_555
C2B C4B 1_555 1_555
H1B C4B 1_555 1_555
D3K C5K 1_555 1_555
D1K C5K 1_555 1_555
D2K C5K 1_555 1_555
C3B C2B 1_555 1_555
H1K C4K 1_555 1_555
C1K N2K 1_555 1_555
N2B C2B 1_555 1_555
C5B C3B 1_555 1_555
N1K Cu1 1_555 1_555
C1B N2B 1_555 1_555
D3B C5B 1_555 1_555
D1B C5B 1_555 1_555
D2B C5B 1_555 1_555
N1B C1B 1_555 1_555
N1N Cu1 1_555 1_555
N1E Cu1 1_555 1_555
Cu1B N1B 1_555 1_555
C1N N1N 1_555 1_555
C1E N1E 1_555 1_555
N1L Cu1B 1_555 1_555
N1G Cu1B 1_555 1_555
N1I Cu1B 1_555 1_555
N2N C1N 1_555 1_555
N2E C1E 1_555 1_555
C2N N2N 1_555 1_555
C2E N2E 1_555 1_555
C3N C2N 1_555 1_555
C4N C2N 1_555 1_555
C3E C2E 1_555 1_555
C4E C2E 1_555 1_555
C4G C3N 1_555 1_555
C5N C3N 1_555 1_555
C3G C4N 1_555 1_555
H1N C4N 1_555 1_555
C4M C3E 1_555 1_555
C5E C3E 1_555 1_555
C3M C4E 1_555 1_555
H1E C4E 1_555 1_555
C4H C3 1_555 1_555
C3H C4 1_555 1_555
C2G C4G 1_555 1_555
H1G C4G 1_555 1_555
D3N C5N 1_555 1_555
D1N C5N 1_555 1_555
D2N C5N 1_555 1_555
C5G C3G 1_555 1_555
C2M C4M 1_555 1_555
H1M C4M 1_555 1_555
D3E C5E 1_555 1_555
D1E C5E 1_555 1_555
D2E C5E 1_555 1_555
C5M C3M 1_555 1_555
C2H C4H 1_555 1_555
H1H C4H 1_555 1_555
C5H C3H 1_555 1_555
N2G C2G 1_555 1_555
D3G C5G 1_555 1_555
D1G C5G 1_555 1_555
D2G C5G 1_555 1_555
N2M C2M 1_555 1_555
D3M C5M 1_555 1_555
D1M C5M 1_555 1_555
D2M C5M 1_555 1_555
N2H C2H 1_555 1_555
D3H C5H 1_555 1_555
D1H C5H 1_555 1_555
D2H C5H 1_555 1_555
C1G N2G 1_555 1_555
C1M N2M 1_555 1_555
C1H N2H 1_555 1_555
N1G_2 C1G 1_555 1_555
N1M C1M 1_555 1_555
N1H C1H 1_555 1_555
Cu1B_2 N1G_2 1_555 1_555
Cu1C N1M 1_555 1_555
Cu1C_2 N1H 1_555 1_555
C1K N1K 1_555 1_555
C3G C2G 1_555 1_555
C3M C2M 1_555 1_555
C3H C2H 1_555 1_555

#END
