
#######################################################################
#
#                 Cambridge Crystallographic Data Centre
#                                CCDC 
#
#######################################################################
#
# If this CIF has been generated from an entry in the Cambridge 
# Structural Database, then it will include bibliographic, chemical, 
# crystal, experimental, refinement or atomic coordinate data resulting 
# from the CCDC's data processing and validation procedures.
#
#######################################################################

data_FAPYEA21
_symmetry_cell_setting           tetragonal
_symmetry_space_group_name_H-M   'I 41/a'
_symmetry_Int_Tables_number      88
_space_group_name_Hall           '-I 4ad'
loop_
_symmetry_equiv_pos_site_id
_symmetry_equiv_pos_as_xyz
1 x,y,z
2 1/2+x,1/2+y,1/2+z
3 3/4-y,1/4+x,1/4+z
4 1/4-y,3/4+x,3/4+z
5 1/2-x,-y,1/2+z
6 -x,1/2-y,z
7 3/4+y,3/4-x,3/4+z
8 1/4+y,1/4-x,1/4+z
9 -x,-y,-z
10 1/2-x,1/2-y,1/2-z
11 1/4+y,3/4-x,3/4-z
12 3/4+y,1/4-x,1/4-z
13 1/2+x,y,1/2-z
14 x,1/2+y,-z
15 1/4-y,1/4+x,1/4-z
16 3/4-y,3/4+x,3/4-z
_cell_length_a                   21.548(5)
_cell_length_b                   21.548(5)
_cell_length_c                   3.871(1)
_cell_angle_alpha                90
_cell_angle_beta                 90
_cell_angle_gamma                90
_cell_volume                     1797.37
loop_
_atom_site_label
_atom_site_type_symbol
_atom_site_fract_x
_atom_site_fract_y
_atom_site_fract_z
Cu1 Cu 0.5000 0.2500 -1.625
N1 N 0.0731(2) 0.2147(2) -0.1127(11)
N2 N 0.1726(2) 0.1783(2) -0.3539(11)
C1 C 0.2098(2) 0.2141(2) -0.5477(11)
C2 C 0.1949(2) 0.2773(2) -0.6376(13)
C3 C 0.2664(2) 0.1874(2) -0.6711(11)
C4 C 0.2819(2) 0.1210(2) -0.5805(13)
C5 C 0.1204(2) 0.2009(2) -0.2334(13)
H1 H 0.158(2) 0.293(2) -0.545(15)
H2 H 0.311(3) 0.103(3) -0.724(17)
H3 H 0.251(3) 0.092(3) -0.635(15)
H4 H 0.293(3) 0.116(3) -0.371(16)
C3I C 0.2336(2) 0.3126(2) -0.8289(11)
C2I C 0.3051(2) 0.2227(2) -0.8624(13)
C1I C 0.2902(2) 0.2859(2) -0.9523(11)
C4I C 0.2181(2) 0.3790(2) -0.9195(13)
H1I H 0.342(2) 0.207(2) -0.955(15)
N2I N 0.3274(2) 0.3217(2) -1.1461(11)
H2I H 0.189(3) 0.397(3) -0.776(17)
H3I H 0.249(3) 0.408(3) -0.865(15)
H4I H 0.207(3) 0.384(3) -1.129(16)
C5I C 0.3796(2) 0.2991(2) -1.2666(13)
N1I N 0.4269(2) 0.2853(2) -1.3873(11)
Cu1C Cu 0.0000 0.2500 0.125
N1B N 0.5353(2) 0.3231(2) -1.8627(11)
N1L N 0.5731(2) 0.2147(2) -1.3873(11)
N1G N 0.4647(2) 0.1769(2) -1.8627(11)
C5B C 0.5491(2) 0.3704(2) -1.9834(13)
N2B N 0.5717(2) 0.4226(2) -2.1039(11)
C1B C 0.5359(2) 0.4598(2) -2.2977(11)
C2B C 0.4727(2) 0.4449(2) -2.3876(13)
C3B C 0.5626(2) 0.5164(2) -2.4211(11)
C3J C 0.4374(2) 0.4836(2) -2.5789(11)
H1B H 0.457(2) 0.408(2) -2.295(15)
C2J C 0.5273(2) 0.5551(2) -2.6124(13)
C4B C 0.6290(2) 0.5319(2) -2.3305(13)
C1J C 0.4641(2) 0.5402(2) -2.7023(11)
C4J C 0.3710(2) 0.4681(2) -2.6695(13)
H1J H 0.543(2) 0.592(2) -2.705(15)
H2B H 0.647(3) 0.561(3) -2.474(17)
H3B H 0.658(3) 0.501(3) -2.385(15)
H4B H 0.634(3) 0.543(3) -2.121(16)
N2J N 0.4283(2) 0.5774(2) -2.8961(11)
H2J H 0.353(3) 0.439(3) -2.526(17)
H3J H 0.342(3) 0.499(3) -2.615(15)
H4J H 0.366(3) 0.457(3) -2.879(16)
C5J C 0.4509(2) 0.6296(2) -3.0166(13)
N1J N 0.4647(2) 0.6769(2) -3.1373(11)
Cu1B Cu 0.5000 0.7500 -3.375
loop_
_geom_bond_atom_site_label_1
_geom_bond_atom_site_label_2
_geom_bond_site_symmetry_1
_geom_bond_site_symmetry_2
Cu1 N1I 1_555 1_555
N1 C5 1_555 1_555
N2 C1 1_555 1_555
C1 C2 1_555 1_555
C2 H1 1_555 1_555
C3 C1 1_555 1_555
C4 C3 1_555 1_555
C5 N2 1_555 1_555
H2 C4 1_555 1_555
H3 C4 1_555 1_555
H4 C4 1_555 1_555
C3I C2 1_555 1_555
C2I C3 1_555 1_555
C1I C3I 1_555 1_555
C4I C3I 1_555 1_555
H1I C2I 1_555 1_555
N2I C1I 1_555 1_555
H2I C4I 1_555 1_555
H3I C4I 1_555 1_555
H4I C4I 1_555 1_555
C5I N2I 1_555 1_555
N1I C5I 1_555 1_555
Cu1C N1 1_555 1_555
N1B Cu1 1_555 1_555
N1L Cu1 1_555 1_555
N1G Cu1 1_555 1_555
C5B N1B 1_555 1_555
N2B C5B 1_555 1_555
C1B N2B 1_555 1_555
C2B C1B 1_555 1_555
C3B C1B 1_555 1_555
C3J C2B 1_555 1_555
H1B C2B 1_555 1_555
C2J C3B 1_555 1_555
C4B C3B 1_555 1_555
C1J C3J 1_555 1_555
C4J C3J 1_555 1_555
H1J C2J 1_555 1_555
H2B C4B 1_555 1_555
H3B C4B 1_555 1_555
H4B C4B 1_555 1_555
N2J C1J 1_555 1_555
H2J C4J 1_555 1_555
H3J C4J 1_555 1_555
H4J C4J 1_555 1_555
C5J N2J 1_555 1_555
N1J C5J 1_555 1_555
Cu1B N1J 1_555 1_555
C2I C1I 1_555 1_555
C2J C1J 1_555 1_555

#END
