
#######################################################################
#
#                 Cambridge Crystallographic Data Centre
#                                CCDC 
#
#######################################################################
#
# If this CIF has been generated from an entry in the Cambridge 
# Structural Database, then it will include bibliographic, chemical, 
# crystal, experimental, refinement or atomic coordinate data resulting 
# from the CCDC's data processing and validation procedures.
#
#######################################################################

data_FAPYEA02
_symmetry_cell_setting           tetragonal
_symmetry_space_group_name_H-M   'I 41/a'
_symmetry_Int_Tables_number      88
_space_group_name_Hall           '-I 4ad'
loop_
_symmetry_equiv_pos_site_id
_symmetry_equiv_pos_as_xyz
1 x,y,z
2 1/2+x,1/2+y,1/2+z
3 3/4-y,1/4+x,1/4+z
4 1/4-y,3/4+x,3/4+z
5 1/2-x,-y,1/2+z
6 -x,1/2-y,z
7 3/4+y,3/4-x,3/4+z
8 1/4+y,1/4-x,1/4+z
9 -x,-y,-z
10 1/2-x,1/2-y,1/2-z
11 1/4+y,3/4-x,3/4-z
12 3/4+y,1/4-x,1/4-z
13 1/2+x,y,1/2-z
14 x,1/2+y,-z
15 1/4-y,1/4+x,1/4-z
16 3/4-y,3/4+x,3/4-z
_cell_length_a                   21.566(5)
_cell_length_b                   21.566(5)
_cell_length_c                   3.801(1)
_cell_angle_alpha                90
_cell_angle_beta                 90
_cell_angle_gamma                90
_cell_volume                     1767.82
loop_
_atom_site_label
_atom_site_type_symbol
_atom_site_fract_x
_atom_site_fract_y
_atom_site_fract_z
Cu1 Cu 0.5000 0.2500 -1.625
N1 N 0.0726(1) 0.2133(1) -0.1104(4)
N2 N 0.1730(1) 0.1781(1) -0.3481(4)
C1 C 0.2096(1) 0.2138(1) -0.5449(4)
C2 C 0.1944(1) 0.2765(1) -0.6368(4)
C3 C 0.2671(1) 0.1874(1) -0.6662(4)
C4 C 0.2825(1) 0.1213(1) -0.5790(5)
C5 C 0.1203(1) 0.1999(1) -0.2282(4)
H1 H 0.158(1) 0.293(1) -0.547(7)
H2 H 0.316(1) 0.105(1) -0.703(8)
H3 H 0.252(1) 0.093(1) -0.649(7)
H4 H 0.287(1) 0.115(1) -0.352(7)
C3I C 0.2329(1) 0.3126(1) -0.8338(4)
C1I C 0.2904(1) 0.2862(1) -0.9551(4)
N2I N 0.3270(1) 0.3219(1) -1.1519(4)
C5I C 0.3797(1) 0.3001(1) -1.2718(4)
N1I N 0.4274(1) 0.2867(1) -1.3896(4)
Cu1C Cu 0.0000 0.2500 0.125
N1L N 0.5726(1) 0.2133(1) -1.3896(4)
C5L C 0.6203(1) 0.1999(1) -1.2718(4)
N2L N 0.6730(1) 0.1781(1) -1.1519(4)
C1L C 0.7096(1) 0.2138(1) -0.9551(4)
C2L C 0.6944(1) 0.2765(1) -0.8632(4)
C3E C 0.7329(1) 0.3126(1) -0.6662(4)
C1E C 0.7904(1) 0.2862(1) -0.5449(4)
N2E N 0.8270(1) 0.3219(1) -0.3481(4)
C5E C 0.8797(1) 0.3001(1) -0.2282(4)
N1E N 0.9274(1) 0.2867(1) -0.1104(4)
Cu1C_2 Cu 1.0000 0.2500 0.125
C2E C 0.8056(1) 0.2235(1) -0.6368(4)
C3L C 0.7671(1) 0.1874(1) -0.8338(4)
C4L C 0.7825(1) 0.1213(1) -0.9210(5)
H2L H 0.816(1) 0.105(1) -0.797(8)
H3L H 0.752(1) 0.093(1) -0.851(7)
H4L H 0.787(1) 0.115(1) -1.148(7)
H1E H 0.842(1) 0.207(1) -0.547(7)
C4E C 0.7175(1) 0.3787(1) -0.5790(5)
H2E H 0.684(1) 0.395(1) -0.703(8)
H3E H 0.748(1) 0.407(1) -0.649(7)
H4E H 0.713(1) 0.385(1) -0.352(7)
H1L H 0.658(1) 0.293(1) -0.953(7)
N1B N 0.5367(1) 0.3226(1) -1.8604(4)
N1G N 0.4633(1) 0.1774(1) -1.8604(4)
C2I C 0.3056(1) 0.2235(1) -0.8632(4)
H1I H 0.342(1) 0.207(1) -0.953(7)
C4I C 0.2175(1) 0.3787(1) -0.9210(5)
H2I H 0.184(1) 0.395(1) -0.797(8)
H3I H 0.248(1) 0.407(1) -0.851(7)
H4I H 0.213(1) 0.385(1) -1.148(7)
loop_
_geom_bond_atom_site_label_1
_geom_bond_atom_site_label_2
_geom_bond_site_symmetry_1
_geom_bond_site_symmetry_2
Cu1 N1I 1_555 1_555
N1 C5 1_555 1_555
N2 C1 1_555 1_555
C1 C2 1_555 1_555
C2 H1 1_555 1_555
C3 C1 1_555 1_555
C4 C3 1_555 1_555
C5 N2 1_555 1_555
H2 C4 1_555 1_555
H3 C4 1_555 1_555
H4 C4 1_555 1_555
C3I C2 1_555 1_555
C1I C3I 1_555 1_555
N2I C1I 1_555 1_555
C5I N2I 1_555 1_555
N1I C5I 1_555 1_555
Cu1C N1 1_555 1_555
N1L Cu1 1_555 1_555
C5L N1L 1_555 1_555
N2L C5L 1_555 1_555
C1L N2L 1_555 1_555
C2L C1L 1_555 1_555
C3E C2L 1_555 1_555
C1E C3E 1_555 1_555
N2E C1E 1_555 1_555
C5E N2E 1_555 1_555
N1E C5E 1_555 1_555
Cu1C_2 N1E 1_555 1_555
C2E C1E 1_555 1_555
C3L C1L 1_555 1_555
C4L C3L 1_555 1_555
H2L C4L 1_555 1_555
H3L C4L 1_555 1_555
H4L C4L 1_555 1_555
H1E C2E 1_555 1_555
C4E C3E 1_555 1_555
H2E C4E 1_555 1_555
H3E C4E 1_555 1_555
H4E C4E 1_555 1_555
H1L C2L 1_555 1_555
N1B Cu1 1_555 1_555
N1G Cu1 1_555 1_555
C2I C3 1_555 1_555
H1I C2I 1_555 1_555
C4I C3I 1_555 1_555
H2I C4I 1_555 1_555
H3I C4I 1_555 1_555
H4I C4I 1_555 1_555
C1I C2I 1_555 1_555
C2E C3L 1_555 1_555

#END
