
#######################################################################
#
#                 Cambridge Crystallographic Data Centre
#                                CCDC 
#
#######################################################################
#
# If this CIF has been generated from an entry in the Cambridge 
# Structural Database, then it will include bibliographic, chemical, 
# crystal, experimental, refinement or atomic coordinate data resulting 
# from the CCDC's data processing and validation procedures.
#
#######################################################################

data_FAPYEA05
_symmetry_cell_setting           tetragonal
_symmetry_space_group_name_H-M   'I 41/a'
_symmetry_Int_Tables_number      88
_space_group_name_Hall           '-I 4ad'
loop_
_symmetry_equiv_pos_site_id
_symmetry_equiv_pos_as_xyz
1 x,y,z
2 1/2+x,1/2+y,1/2+z
3 3/4-y,1/4+x,1/4+z
4 1/4-y,3/4+x,3/4+z
5 1/2-x,-y,1/2+z
6 -x,1/2-y,z
7 3/4+y,3/4-x,3/4+z
8 1/4+y,1/4-x,1/4+z
9 -x,-y,-z
10 1/2-x,1/2-y,1/2-z
11 1/4+y,3/4-x,3/4-z
12 3/4+y,1/4-x,1/4-z
13 1/2+x,y,1/2-z
14 x,1/2+y,-z
15 1/4-y,1/4+x,1/4-z
16 3/4-y,3/4+x,3/4-z
_cell_length_a                   21.654(5)
_cell_length_b                   21.654(5)
_cell_length_c                   3.792(1)
_cell_angle_alpha                90
_cell_angle_beta                 90
_cell_angle_gamma                90
_cell_volume                     1778.05
loop_
_atom_site_label
_atom_site_type_symbol
_atom_site_fract_x
_atom_site_fract_y
_atom_site_fract_z
Cu1 Cu 0.0000 0.2500 0.6250
N1 N -0.0369(1) 0.3224(1) 0.8597(3)
N2 N -0.0722(1) 0.4230(1) 1.0961(3)
C1 C -0.0502(1) 0.3702(1) 0.9772(4)
C2 C -0.0362(1) 0.4595(1) 1.2940(4)
C3 C -0.0626(1) 0.5173(1) 1.4160(4)
C4 C 0.0263(1) 0.4445(1) 1.3864(4)
C5 C -0.1285(1) 0.5327(1) 1.3286(4)
H1 H 0.0416(13) 0.4101(15) 1.3109(76)
H2 H -0.1346(14) 0.5317(15) 1.0820(76)
H3 H -0.1554(14) 0.5053(15) 1.4284(77)
H4 H -0.1405(14) 0.5687(15) 1.4380(77)
C3K C 0.2673(1) 0.3126(1) -0.1660(4)
C2K C 0.2095(1) 0.2862(1) -0.0440(4)
C4B C 0.3055(1) 0.2763(1) -0.3636(4)
C5K C 0.2827(1) 0.3785(1) -0.0786(4)
C4K C 0.1945(1) 0.2237(1) -0.1364(4)
N2K N 0.1730(1) 0.3222(1) 0.1539(3)
C2B C 0.2905(1) 0.2138(1) -0.4560(4)
H1B H 0.3399(15) 0.2916(13) -0.4391(76)
H4K H 0.3187(15) 0.3905(14) -0.1880(77)
H2K H 0.2817(15) 0.3846(14) 0.1680(76)
H3K H 0.2553(15) 0.4054(14) -0.1784(77)
C3B C 0.2327(1) 0.1874(1) -0.3340(4)
H1K H 0.1601(15) 0.2084(13) -0.0609(76)
C1K C 0.1202(1) 0.3002(1) 0.2728(4)
N2B N 0.3270(1) 0.1778(1) -0.6539(3)
C5B C 0.2173(1) 0.1215(1) -0.4214(4)
N1K N 0.0724(1) 0.2869(1) 0.3903(3)
C1B C 0.3798(1) 0.1998(1) -0.7728(4)
H4B H 0.1813(15) 0.1095(14) -0.3120(77)
H2B H 0.2183(15) 0.1154(14) -0.6680(76)
H3B H 0.2447(15) 0.0946(14) -0.3216(77)
N1B N 0.4276(1) 0.2131(1) -0.8903(3)
N1N N -0.0724(1) 0.2131(1) 0.3903(3)
N1E N 0.0369(1) 0.1776(1) 0.8597(3)
Cu1B Cu 0.5000 0.2500 -1.1250
C1N C -0.1202(1) 0.1998(1) 0.2728(4)
C1E C 0.0502(1) 0.1298(1) 0.9772(4)
N1L N 0.4631(1) 0.3224(1) -1.3597(3)
N1G N 0.5724(1) 0.2869(1) -0.8903(3)
N1I N 0.5369(1) 0.1776(1) -1.3597(3)
N2N N -0.1730(1) 0.1778(1) 0.1539(3)
N2E N 0.0722(1) 0.0770(1) 1.0961(3)
C2N C -0.2095(1) 0.2138(1) -0.0440(4)
C2E C 0.0362(1) 0.0405(1) 1.2940(4)
C3N C -0.2673(1) 0.1874(1) -0.1660(4)
C4N C -0.1945(1) 0.2763(1) -0.1364(4)
C3E C 0.0626(1) -0.0173(1) 1.4160(4)
C4E C -0.0263(1) 0.0555(1) 1.3864(4)
C4G C -0.3055(1) 0.2237(1) -0.3636(4)
C5N C -0.2827(1) 0.1215(1) -0.0786(4)
C3G C -0.2327(1) 0.3126(1) -0.3340(4)
H1N H -0.1601(15) 0.2916(13) -0.0609(76)
C4M C 0.0263(1) -0.0555(1) 1.6136(4)
C5E C 0.1285(1) -0.0327(1) 1.3286(4)
C3M C -0.0626(1) 0.0173(1) 1.5840(4)
H1E H -0.0416(13) 0.0899(15) 1.3109(76)
C4H C -0.0263(1) 0.5555(1) 1.6136(4)
C3H C 0.0626(1) 0.4827(1) 1.5840(4)
C2G C -0.2905(1) 0.2862(1) -0.4560(4)
H1G H -0.3399(15) 0.2084(13) -0.4391(76)
H4N H -0.3187(15) 0.1095(14) -0.1880(77)
H2N H -0.2817(15) 0.1154(14) 0.1680(76)
H3N H -0.2553(15) 0.0946(14) -0.1784(77)
C5G C -0.2173(1) 0.3785(1) -0.4214(4)
C2M C -0.0362(1) -0.0405(1) 1.7060(4)
H1M H 0.0416(13) -0.0899(15) 1.6891(76)
H4E H 0.1405(14) -0.0687(15) 1.4380(77)
H2E H 0.1346(14) -0.0317(15) 1.0820(76)
H3E H 0.1554(14) -0.0053(15) 1.4284(77)
C5M C -0.1285(1) 0.0327(1) 1.6714(4)
C2H C 0.0362(1) 0.5405(1) 1.7060(4)
H1H H -0.0416(13) 0.5899(15) 1.6891(76)
C5H C 0.1285(1) 0.4673(1) 1.6714(4)
N2G N -0.3270(1) 0.3222(1) -0.6539(3)
H4G H -0.1813(15) 0.3905(14) -0.3120(77)
H2G H -0.2183(15) 0.3846(14) -0.6680(76)
H3G H -0.2447(15) 0.4054(14) -0.3216(77)
N2M N -0.0722(1) -0.0770(1) 1.9039(3)
H4M H -0.1405(14) 0.0687(15) 1.5620(77)
H2M H -0.1346(14) 0.0317(15) 1.9180(76)
H3M H -0.1554(14) 0.0053(15) 1.5716(77)
N2H N 0.0722(1) 0.5770(1) 1.9039(3)
H4H H 0.1405(14) 0.4313(15) 1.5620(77)
H2H H 0.1346(14) 0.4683(15) 1.9180(76)
H3H H 0.1554(14) 0.4947(15) 1.5716(77)
C1G C -0.3798(1) 0.3002(1) -0.7728(4)
C1M C -0.0502(1) -0.1298(1) 2.0228(4)
C1H C 0.0502(1) 0.6298(1) 2.0228(4)
N1G_2 N -0.4276(1) 0.2869(1) -0.8903(3)
N1M N -0.0369(1) -0.1776(1) 2.1403(3)
N1H N 0.0369(1) 0.6776(1) 2.1403(3)
Cu1B_2 Cu -0.5000 0.2500 -1.1250
Cu1C Cu 0.0000 -0.2500 2.3750
Cu1C_2 Cu 0.0000 0.7500 2.3750
loop_
_geom_bond_atom_site_label_1
_geom_bond_atom_site_label_2
_geom_bond_site_symmetry_1
_geom_bond_site_symmetry_2
Cu1 N1 1_555 1_555
N1 C1 1_555 1_555
N2 C1 1_555 1_555
C2 N2 1_555 1_555
C3 C2 1_555 1_555
C4 C2 1_555 1_555
C5 C3 1_555 1_555
H1 C4 1_555 1_555
H2 C5 1_555 1_555
H3 C5 1_555 1_555
H4 C5 1_555 1_555
C3K C2K 1_555 1_555
C2K C4K 1_555 1_555
C4B C3K 1_555 1_555
C5K C3K 1_555 1_555
C4K C3B 1_555 1_555
N2K C2K 1_555 1_555
C2B C4B 1_555 1_555
H1B C4B 1_555 1_555
H4K C5K 1_555 1_555
H2K C5K 1_555 1_555
H3K C5K 1_555 1_555
C3B C2B 1_555 1_555
H1K C4K 1_555 1_555
C1K N2K 1_555 1_555
N2B C2B 1_555 1_555
C5B C3B 1_555 1_555
N1K Cu1 1_555 1_555
C1B N2B 1_555 1_555
H4B C5B 1_555 1_555
H2B C5B 1_555 1_555
H3B C5B 1_555 1_555
N1B C1B 1_555 1_555
N1N Cu1 1_555 1_555
N1E Cu1 1_555 1_555
Cu1B N1B 1_555 1_555
C1N N1N 1_555 1_555
C1E N1E 1_555 1_555
N1L Cu1B 1_555 1_555
N1G Cu1B 1_555 1_555
N1I Cu1B 1_555 1_555
N2N C1N 1_555 1_555
N2E C1E 1_555 1_555
C2N N2N 1_555 1_555
C2E N2E 1_555 1_555
C3N C2N 1_555 1_555
C4N C2N 1_555 1_555
C3E C2E 1_555 1_555
C4E C2E 1_555 1_555
C4G C3N 1_555 1_555
C5N C3N 1_555 1_555
C3G C4N 1_555 1_555
H1N C4N 1_555 1_555
C4M C3E 1_555 1_555
C5E C3E 1_555 1_555
C3M C4E 1_555 1_555
H1E C4E 1_555 1_555
C4H C3 1_555 1_555
C3H C4 1_555 1_555
C2G C4G 1_555 1_555
H1G C4G 1_555 1_555
H4N C5N 1_555 1_555
H2N C5N 1_555 1_555
H3N C5N 1_555 1_555
C5G C3G 1_555 1_555
C2M C4M 1_555 1_555
H1M C4M 1_555 1_555
H4E C5E 1_555 1_555
H2E C5E 1_555 1_555
H3E C5E 1_555 1_555
C5M C3M 1_555 1_555
C2H C4H 1_555 1_555
H1H C4H 1_555 1_555
C5H C3H 1_555 1_555
N2G C2G 1_555 1_555
H4G C5G 1_555 1_555
H2G C5G 1_555 1_555
H3G C5G 1_555 1_555
N2M C2M 1_555 1_555
H4M C5M 1_555 1_555
H2M C5M 1_555 1_555
H3M C5M 1_555 1_555
N2H C2H 1_555 1_555
H4H C5H 1_555 1_555
H2H C5H 1_555 1_555
H3H C5H 1_555 1_555
C1G N2G 1_555 1_555
C1M N2M 1_555 1_555
C1H N2H 1_555 1_555
N1G_2 C1G 1_555 1_555
N1M C1M 1_555 1_555
N1H C1H 1_555 1_555
Cu1B_2 N1G_2 1_555 1_555
Cu1C N1M 1_555 1_555
Cu1C_2 N1H 1_555 1_555
C1K N1K 1_555 1_555
C3G C2G 1_555 1_555
C3M C2M 1_555 1_555
C3H C2H 1_555 1_555

#END
