
#######################################################################
#
#                 Cambridge Crystallographic Data Centre
#                                CCDC 
#
#######################################################################
#
# If this CIF has been generated from an entry in the Cambridge 
# Structural Database, then it will include bibliographic, chemical, 
# crystal, experimental, refinement or atomic coordinate data resulting 
# from the CCDC's data processing and validation procedures.
#
#######################################################################

data_FAPYEA09
_symmetry_cell_setting           tetragonal
_symmetry_space_group_name_H-M   'I 41/a'
_symmetry_Int_Tables_number      88
_space_group_name_Hall           '-I 4ad'
loop_
_symmetry_equiv_pos_site_id
_symmetry_equiv_pos_as_xyz
1 x,y,z
2 1/2+x,1/2+y,1/2+z
3 3/4-y,1/4+x,1/4+z
4 1/4-y,3/4+x,3/4+z
5 1/2-x,-y,1/2+z
6 -x,1/2-y,z
7 3/4+y,3/4-x,3/4+z
8 1/4+y,1/4-x,1/4+z
9 -x,-y,-z
10 1/2-x,1/2-y,1/2-z
11 1/4+y,3/4-x,3/4-z
12 3/4+y,1/4-x,1/4-z
13 1/2+x,y,1/2-z
14 x,1/2+y,-z
15 1/4-y,1/4+x,1/4-z
16 3/4-y,3/4+x,3/4-z
_cell_length_a                   21.63(1)
_cell_length_b                   21.63(1)
_cell_length_c                   3.799(2)
_cell_angle_alpha                90
_cell_angle_beta                 90
_cell_angle_gamma                90
_cell_volume                     1777.39
loop_
_atom_site_label
_atom_site_type_symbol
_atom_site_fract_x
_atom_site_fract_y
_atom_site_fract_z
Cu1 Cu 0.0000 0.2500 0.6250
N1 N -0.0366(1) 0.1776(1) 0.8608(6)
N2 N -0.0720(1) 0.0773(1) 1.0981(6)
C1 C -0.0499(1) 0.1300(1) 0.9784(7)
C2 C -0.0362(1) 0.0406(1) 1.2963(6)
C3 C -0.0626(1) -0.0172(1) 1.4179(7)
C4 C 0.0268(1) 0.0554(1) 1.3858(7)
C5 C -0.1286(1) -0.0323(1) 1.3307(8)
H1 H 0.0413(20) 0.0910(21) 1.313(14)
D1 D -0.1381(21) -0.0312(21) 1.084(14)
D2 D -0.1551(21) -0.0045(23) 1.409(14)
D3 D -0.1399(21) -0.0670(22) 1.401(13)
C3K C -0.2672(1) 0.3126(1) -0.1679(7)
C2K C -0.2094(1) 0.2862(1) -0.0463(6)
C4B C -0.3054(1) 0.2768(1) -0.3642(7)
C5K C -0.2823(1) 0.3786(1) -0.0807(8)
C4K C -0.1946(1) 0.2232(1) -0.1358(7)
N2K N -0.1727(1) 0.3220(1) 0.1519(6)
C2B C -0.2906(1) 0.2138(1) -0.4537(6)
H1B H -0.3410(21) 0.2913(20) -0.437(14)
D3K D -0.3170(22) 0.3899(21) -0.151(13)
D1K D -0.2812(21) 0.3881(21) 0.166(14)
D2K D -0.2545(23) 0.4051(21) -0.159(14)
C3B C -0.2328(1) 0.1874(1) -0.3321(7)
H1K H -0.1590(21) 0.2087(20) -0.063(14)
C1K C -0.1200(1) 0.2999(1) 0.2716(7)
N2B N -0.3273(1) 0.1780(1) -0.6519(6)
C5B C -0.2177(1) 0.1214(1) -0.4193(8)
N1K N -0.0724(1) 0.2866(1) 0.3892(6)
C1B C -0.3800(1) 0.2001(1) -0.7716(7)
D3B D -0.1830(22) 0.1101(21) -0.349(13)
D1B D -0.2188(21) 0.1119(21) -0.666(14)
D2B D -0.2455(23) 0.0949(21) -0.341(14)
N1B N -0.4276(1) 0.2134(1) -0.8892(6)
N1N N 0.0724(1) 0.2134(1) 0.3892(6)
N1E N 0.0366(1) 0.3224(1) 0.8608(6)
Cu1B Cu -0.5000 0.2500 -1.1250
C1N C 0.1200(1) 0.2001(1) 0.2716(7)
C1E C 0.0499(1) 0.3700(1) 0.9784(7)
N1L N -0.5366(1) 0.1776(1) -1.3608(6)
N1G N -0.5724(1) 0.2866(1) -0.8892(6)
N1I N -0.4634(1) 0.3224(1) -1.3608(6)
N2N N 0.1727(1) 0.1780(1) 0.1519(6)
N2E N 0.0720(1) 0.4227(1) 1.0981(6)
C2N C 0.2094(1) 0.2138(1) -0.0463(6)
C2E C 0.0362(1) 0.4594(1) 1.2963(6)
C3N C 0.2672(1) 0.1874(1) -0.1679(7)
C4N C 0.1946(1) 0.2768(1) -0.1358(7)
C3E C 0.0626(1) 0.5172(1) 1.4179(7)
C4E C -0.0268(1) 0.4446(1) 1.3858(7)
C4G C 0.3054(1) 0.2232(1) -0.3642(7)
C5N C 0.2823(1) 0.1214(1) -0.0807(8)
C3G C 0.2328(1) 0.3126(1) -0.3321(7)
H1N H 0.1590(21) 0.2913(20) -0.063(14)
C4M C 0.0268(1) 0.5554(1) 1.6142(7)
C5E C 0.1286(1) 0.5323(1) 1.3307(8)
C3M C -0.0626(1) 0.4828(1) 1.5821(7)
H1E H -0.0413(20) 0.4090(21) 1.313(14)
C4H C -0.0268(1) -0.0554(1) 1.6142(7)
C3H C 0.0626(1) 0.0172(1) 1.5821(7)
C2G C 0.2906(1) 0.2862(1) -0.4537(6)
H1G H 0.3410(21) 0.2087(20) -0.437(14)
D3N D 0.3170(22) 0.1101(21) -0.151(13)
D1N D 0.2812(21) 0.1119(21) 0.166(14)
D2N D 0.2545(23) 0.0949(21) -0.159(14)
C5G C 0.2177(1) 0.3786(1) -0.4193(8)
C2M C -0.0362(1) 0.5406(1) 1.7037(6)
H1M H 0.0413(20) 0.5910(21) 1.687(14)
D3E D 0.1399(21) 0.5670(22) 1.401(13)
D1E D 0.1381(21) 0.5312(21) 1.084(14)
D2E D 0.1551(21) 0.5045(23) 1.409(14)
C5M C -0.1286(1) 0.4677(1) 1.6693(8)
C2H C 0.0362(1) -0.0406(1) 1.7037(6)
H1H H -0.0413(20) -0.0910(21) 1.687(14)
C5H C 0.1286(1) 0.0323(1) 1.6693(8)
N2G N 0.3273(1) 0.3220(1) -0.6519(6)
D3G D 0.1830(22) 0.3899(21) -0.349(13)
D1G D 0.2188(21) 0.3881(21) -0.666(14)
D2G D 0.2455(23) 0.4051(21) -0.341(14)
N2M N -0.0720(1) 0.5773(1) 1.9019(6)
D3M D -0.1399(21) 0.4330(22) 1.599(13)
D1M D -0.1381(21) 0.4688(21) 1.916(14)
D2M D -0.1551(21) 0.4955(23) 1.591(14)
N2H N 0.0720(1) -0.0773(1) 1.9019(6)
D3H D 0.1399(21) 0.0670(22) 1.599(13)
D1H D 0.1381(21) 0.0312(21) 1.916(14)
D2H D 0.1551(21) 0.0045(23) 1.591(14)
C1G C 0.3800(1) 0.2999(1) -0.7716(7)
C1M C -0.0499(1) 0.6300(1) 2.0216(7)
C1H C 0.0499(1) -0.1300(1) 2.0216(7)
N1G_2 N 0.4276(1) 0.2866(1) -0.8892(6)
N1M N -0.0366(1) 0.6776(1) 2.1392(6)
N1H N 0.0366(1) -0.1776(1) 2.1392(6)
Cu1B_2 Cu 0.5000 0.2500 -1.1250
Cu1C Cu 0.0000 0.7500 2.3750
Cu1C_2 Cu 0.0000 -0.2500 2.3750
loop_
_geom_bond_atom_site_label_1
_geom_bond_atom_site_label_2
_geom_bond_site_symmetry_1
_geom_bond_site_symmetry_2
Cu1 N1 1_555 1_555
N1 C1 1_555 1_555
N2 C1 1_555 1_555
C2 N2 1_555 1_555
C3 C2 1_555 1_555
C4 C2 1_555 1_555
C5 C3 1_555 1_555
H1 C4 1_555 1_555
D1 C5 1_555 1_555
D2 C5 1_555 1_555
D3 C5 1_555 1_555
C3K C2K 1_555 1_555
C2K C4K 1_555 1_555
C4B C3K 1_555 1_555
C5K C3K 1_555 1_555
C4K C3B 1_555 1_555
N2K C2K 1_555 1_555
C2B C4B 1_555 1_555
H1B C4B 1_555 1_555
D3K C5K 1_555 1_555
D1K C5K 1_555 1_555
D2K C5K 1_555 1_555
C3B C2B 1_555 1_555
H1K C4K 1_555 1_555
C1K N2K 1_555 1_555
N2B C2B 1_555 1_555
C5B C3B 1_555 1_555
N1K Cu1 1_555 1_555
C1B N2B 1_555 1_555
D3B C5B 1_555 1_555
D1B C5B 1_555 1_555
D2B C5B 1_555 1_555
N1B C1B 1_555 1_555
N1N Cu1 1_555 1_555
N1E Cu1 1_555 1_555
Cu1B N1B 1_555 1_555
C1N N1N 1_555 1_555
C1E N1E 1_555 1_555
N1L Cu1B 1_555 1_555
N1G Cu1B 1_555 1_555
N1I Cu1B 1_555 1_555
N2N C1N 1_555 1_555
N2E C1E 1_555 1_555
C2N N2N 1_555 1_555
C2E N2E 1_555 1_555
C3N C2N 1_555 1_555
C4N C2N 1_555 1_555
C3E C2E 1_555 1_555
C4E C2E 1_555 1_555
C4G C3N 1_555 1_555
C5N C3N 1_555 1_555
C3G C4N 1_555 1_555
H1N C4N 1_555 1_555
C4M C3E 1_555 1_555
C5E C3E 1_555 1_555
C3M C4E 1_555 1_555
H1E C4E 1_555 1_555
C4H C3 1_555 1_555
C3H C4 1_555 1_555
C2G C4G 1_555 1_555
H1G C4G 1_555 1_555
D3N C5N 1_555 1_555
D1N C5N 1_555 1_555
D2N C5N 1_555 1_555
C5G C3G 1_555 1_555
C2M C4M 1_555 1_555
H1M C4M 1_555 1_555
D3E C5E 1_555 1_555
D1E C5E 1_555 1_555
D2E C5E 1_555 1_555
C5M C3M 1_555 1_555
C2H C4H 1_555 1_555
H1H C4H 1_555 1_555
C5H C3H 1_555 1_555
N2G C2G 1_555 1_555
D3G C5G 1_555 1_555
D1G C5G 1_555 1_555
D2G C5G 1_555 1_555
N2M C2M 1_555 1_555
D3M C5M 1_555 1_555
D1M C5M 1_555 1_555
D2M C5M 1_555 1_555
N2H C2H 1_555 1_555
D3H C5H 1_555 1_555
D1H C5H 1_555 1_555
D2H C5H 1_555 1_555
C1G N2G 1_555 1_555
C1M N2M 1_555 1_555
C1H N2H 1_555 1_555
N1G_2 C1G 1_555 1_555
N1M C1M 1_555 1_555
N1H C1H 1_555 1_555
Cu1B_2 N1G_2 1_555 1_555
Cu1C N1M 1_555 1_555
Cu1C_2 N1H 1_555 1_555
C1K N1K 1_555 1_555
C3G C2G 1_555 1_555
C3M C2M 1_555 1_555
C3H C2H 1_555 1_555

#END
