
#######################################################################
#
#                 Cambridge Crystallographic Data Centre
#                                CCDC 
#
#######################################################################
#
# If this CIF has been generated from an entry in the Cambridge 
# Structural Database, then it will include bibliographic, chemical, 
# crystal, experimental, refinement or atomic coordinate data resulting 
# from the CCDC's data processing and validation procedures.
#
#######################################################################

data_FAPZOM
_symmetry_cell_setting           monoclinic
_symmetry_space_group_name_H-M   'P 21/a'
_symmetry_Int_Tables_number      14
_space_group_name_Hall           '-P 2yab'
loop_
_symmetry_equiv_pos_site_id
_symmetry_equiv_pos_as_xyz
1 x,y,z
2 1/2-x,1/2+y,-z
3 -x,-y,-z
4 1/2+x,1/2-y,z
_cell_length_a                   12.437(5)
_cell_length_b                   20.109(6)
_cell_length_c                   14.107(4)
_cell_angle_alpha                90
_cell_angle_beta                 106.52(5)
_cell_angle_gamma                90
_cell_volume                     3382.46
loop_
_atom_site_label
_atom_site_type_symbol
_atom_site_fract_x
_atom_site_fract_y
_atom_site_fract_z
Ag1 Ag 0.24576(3) -0.208667(18) -0.31021(3)
Pd1 Pd -0.08468(3) -0.372670(16) -0.35611(2)
P1 P 0.03665(9) -0.29705(5) -0.27276(9)
O1 O 0.0149(3) -0.36340(15) -0.4535(2)
N1 N 0.3086(3) -0.05474(19) -0.4452(3)
N2 N 0.1223(3) -0.28536(17) -0.3462(3)
C1 C 0.3221(4) -0.1076(2) -0.2620(3)
C2 C 0.3456(4) -0.1228(2) -0.1606(3)
H1 H 0.4042 -0.1516 -0.1317
C3 C 0.2827(4) -0.0956(3) -0.1029(4)
H2 H 0.2987 -0.1065 -0.0363
C4 C 0.1960(4) -0.0519(2) -0.1454(4)
H3 H 0.1536 -0.0338 -0.1070
C5 C 0.1719(4) -0.0349(2) -0.2442(4)
H4 H 0.1149 -0.0046 -0.2713
C6 C 0.2323(4) -0.0629(2) -0.3031(4)
C7 C 0.2039(4) -0.0492(2) -0.4130(4)
H5 H 0.1486 -0.0810 -0.4490
H6 H 0.1725 -0.0049 -0.4271
C8 C 0.2803(5) -0.0707(3) -0.5523(4)
H7 H 0.3480 -0.0742 -0.5718
H8 H 0.2340 -0.0361 -0.5897
H9 H 0.2405 -0.1122 -0.5646
C9 C 0.3720(5) 0.0097(3) -0.4254(4)
H10 H 0.4395 0.0058 -0.4451
H11 H 0.3906 0.0198 -0.3561
H12 H 0.3263 0.0447 -0.4625
C10 C 0.0956(4) -0.3210(2) -0.4301(3)
C11 C 0.1619(4) -0.3094(2) -0.5025(4)
H13 H 0.2193 -0.2770 -0.4761
H14 H 0.1958 -0.3503 -0.5140
H15 H 0.1129 -0.2933 -0.5637
C12 C -0.0172(3) -0.2144(2) -0.2614(3)
C13 C -0.0372(4) -0.1711(2) -0.3424(4)
H16 H -0.0166 -0.1837 -0.3983
C14 C -0.0872(4) -0.1097(3) -0.3403(4)
H17 H -0.0995 -0.0812 -0.3942
C15 C -0.1190(4) -0.0910(3) -0.2572(4)
H18 H -0.1530 -0.0500 -0.2556
C16 C -0.1001(4) -0.1332(3) -0.1771(4)
H19 H -0.1209 -0.1201 -0.1217
C17 C -0.0505(4) -0.1950(2) -0.1777(4)
H20 H -0.0393 -0.2233 -0.1236
C18 C 0.1258(4) -0.3208(2) -0.1518(3)
C19 C 0.1331(4) -0.3885(2) -0.1258(4)
H21 H 0.0910 -0.4199 -0.1690
C20 C 0.2037(4) -0.4078(3) -0.0349(4)
H22 H 0.2076 -0.4525 -0.0174
C21 C 0.2675(4) -0.3630(3) 0.0292(4)
H23 H 0.3148 -0.3771 0.0895
C22 C 0.2617(4) -0.2957(3) 0.0039(4)
H24 H 0.3058 -0.2652 0.0476
C23 C 0.1903(4) -0.2732(3) -0.0864(4)
H25 H 0.1857 -0.2282 -0.1027
Ag1C Ag -0.25424(3) -0.291333(18) -0.31021(3)
Pd1C Pd 0.41532(3) -0.127330(16) -0.35611(2)
N1C N -0.1914(3) -0.44526(19) -0.4452(3)
C1C C -0.1779(4) -0.3924(2) -0.2620(3)
S1 S 0.43284(12) -0.35142(7) -0.63745(10)
O2 O 0.3491(4) -0.3850(2) -0.6040(4)
O3 O 0.5354(4) -0.3377(2) -0.5606(3)
O4 O 0.4475(5) -0.3761(2) -0.7287(4)
C24 C 0.3735(5) -0.2687(3) -0.6688(5)
F1 F 0.4400(4) -0.2298(2) -0.7022(3)
F2 F 0.2766(4) -0.2712(3) -0.7387(4)
F3 F 0.3562(3) -0.23861(18) -0.5909(3)
C25 C 0.5725(6) -0.1249(3) -0.8218(5)
H26 H 0.6537 -0.1275 -0.8021
H27 H 0.5478 -0.1305 -0.7630
Cl1 Cl 0.53134(13) -0.04567(8) -0.87198(13)
Cl2 Cl 0.51816(14) -0.18964(8) -0.90405(12)
H29 H 0.1212 -0.1216 -0.7802
C27 C 0.1491(17) -0.1285(10) -0.8389(15)
H30 H 0.1680 -0.1751 -0.8267
Cl3 Cl 0.27211(17) -0.08378(15) -0.80956(17)
Cl5 Cl 0.0708(4) -0.1219(3) -0.9459(3)
C26? C 0.1355(13) -0.0917(5) -0.8292(5)
H28? H 0.1037 -0.0487 -0.8212
H31? H 0.1070 -0.1154 -0.7937
Cl4? Cl 0.0462(3) -0.0521(3) -0.9304(3)
loop_
_geom_bond_atom_site_label_1
_geom_bond_atom_site_label_2
_geom_bond_site_symmetry_1
_geom_bond_site_symmetry_2
Ag1 N2 1_555 1_555
Pd1 P1 1_555 1_555
P1 N2 1_555 1_555
O1 Pd1 1_555 1_555
N1 C7 1_555 1_555
N2 C10 1_555 1_555
C1 Ag1 1_555 1_555
C2 C1 1_555 1_555
H1 C2 1_555 1_555
C3 C2 1_555 1_555
H2 C3 1_555 1_555
C4 C3 1_555 1_555
H3 C4 1_555 1_555
C5 C4 1_555 1_555
H4 C5 1_555 1_555
C6 C1 1_555 1_555
C7 C6 1_555 1_555
H5 C7 1_555 1_555
H6 C7 1_555 1_555
C8 N1 1_555 1_555
H7 C8 1_555 1_555
H8 C8 1_555 1_555
H9 C8 1_555 1_555
C9 N1 1_555 1_555
H10 C9 1_555 1_555
H11 C9 1_555 1_555
H12 C9 1_555 1_555
C10 O1 1_555 1_555
C11 C10 1_555 1_555
H13 C11 1_555 1_555
H14 C11 1_555 1_555
H15 C11 1_555 1_555
C12 P1 1_555 1_555
C13 C12 1_555 1_555
H16 C13 1_555 1_555
C14 C13 1_555 1_555
H17 C14 1_555 1_555
C15 C14 1_555 1_555
H18 C15 1_555 1_555
C16 C15 1_555 1_555
H19 C16 1_555 1_555
C17 C12 1_555 1_555
H20 C17 1_555 1_555
C18 P1 1_555 1_555
C19 C18 1_555 1_555
H21 C19 1_555 1_555
C20 C19 1_555 1_555
H22 C20 1_555 1_555
C21 C20 1_555 1_555
H23 C21 1_555 1_555
C22 C21 1_555 1_555
H24 C22 1_555 1_555
C23 C18 1_555 1_555
H25 C23 1_555 1_555
S1 O2 1_555 1_555
O3 S1 1_555 1_555
O4 S1 1_555 1_555
C24 S1 1_555 1_555
F1 C24 1_555 1_555
F2 C24 1_555 1_555
F3 C24 1_555 1_555
C25 H26 1_555 1_555
H27 C25 1_555 1_555
Cl1 C25 1_555 1_555
Cl2 C25 1_555 1_555
H29 C27 1_555 1_555
C27 H30 1_555 1_555
Cl3 C27 1_555 1_555
Cl5 C27 1_555 1_555
Ag1C Pd1 1_555 1_555
Pd1C Ag1 1_555 1_555
N1C Pd1 1_555 1_555
C1C Pd1 1_555 1_555
N1 Pd1C 1_555 1_555
C1 Pd1C 1_555 1_555
C5 C6 1_555 1_555
C16 C17 1_555 1_555
C22 C23 1_555 1_555
Ag1C C1C 1_555 1_555

#END
