
#######################################################################
#
#                 Cambridge Crystallographic Data Centre
#                                CCDC 
#
#######################################################################
#
# If this CIF has been generated from an entry in the Cambridge 
# Structural Database, then it will include bibliographic, chemical, 
# crystal, experimental, refinement or atomic coordinate data resulting 
# from the CCDC's data processing and validation procedures.
#
#######################################################################

data_FAQBEE
_symmetry_cell_setting           rhombohedral
_symmetry_space_group_name_H-M   'R 3 c'
_symmetry_Int_Tables_number      161
_space_group_name_Hall           'R 3 -2"c'
loop_
_symmetry_equiv_pos_site_id
_symmetry_equiv_pos_as_xyz
1 x,y,z
2 -y,x-y,z
3 -y,-x,1/2+z
4 -x+y,-x,z
5 x,x-y,1/2+z
6 -x+y,y,1/2+z
7 1/3+x,2/3+y,2/3+z
8 1/3-y,2/3+x-y,2/3+z
9 1/3-y,2/3-x,1/6+z
10 1/3-x+y,2/3-x,2/3+z
11 1/3+x,2/3+x-y,1/6+z
12 1/3-x+y,2/3+y,1/6+z
13 2/3+x,1/3+y,1/3+z
14 2/3-y,1/3+x-y,1/3+z
15 2/3-y,1/3-x,5/6+z
16 2/3-x+y,1/3-x,1/3+z
17 2/3+x,1/3+x-y,5/6+z
18 2/3-x+y,1/3+y,5/6+z
_cell_length_a                   9.383(2)
_cell_length_b                   9.383(2)
_cell_length_c                   52.19(1)
_cell_angle_alpha                90
_cell_angle_beta                 90
_cell_angle_gamma                120
_cell_volume                     3979.25
loop_
_atom_site_label
_atom_site_type_symbol
_atom_site_fract_x
_atom_site_fract_y
_atom_site_fract_z
N1 N 0.0000 0.0000 0.1028(5)
C3 C 0.0000 0.0000 0.1315(6)
C4 C -0.008(12) 0.073(11) 0.1563(9)
C5 C 0.008(10) 0.0994(93) 0.1848(9)
C6 C 0.1025(36) -0.0417(45) 0.0870(5)
C7 C 0.2764(31) 0.0113(30) 0.0964(6)
C8 C 0.3779(35) -0.0620(42) 0.0850(7)
C9 C 0.5619(38) -0.0081(41) 0.0880(7)
C4A C -0.073(11) -0.081(16) 0.1563(9)
C4C C 0.081(16) 0.008(12) 0.1563(9)
C5A C -0.0994(93) -0.091(14) 0.1848(9)
C5C C 0.091(14) -0.008(10) 0.1848(9)
C6A C 0.0417(45) 0.1442(58) 0.0870(5)
C7A C -0.0113(30) 0.2651(43) 0.0964(6)
C8A C 0.0620(42) 0.4399(55) 0.0850(7)
C9A C 0.0081(41) 0.5700(56) 0.0880(7)
C6C C -0.1442(58) -0.1025(36) 0.0870(5)
C7C C -0.2651(43) -0.2764(31) 0.0964(6)
C8C C -0.4399(55) -0.3779(35) 0.0850(7)
C9C C -0.5700(56) -0.5619(38) 0.0880(7)
Cr1 Cr 0.0000 0.0000 -0.0003(1)
Mn1 Mn 0.3333 0.6667 -0.0002(1)
O1 O 0.1664(11) 0.1815(11) 0.0208(2)
O2 O 0.0144(11) 0.1831(9) -0.0196(2)
O3 O 0.3076(12) 0.4560(13) 0.0225(2)
O4 O 0.1544(10) 0.4616(10) -0.0217(2)
C1 C 0.2148(14) 0.3254(18) 0.0124(3)
C2 C 0.1267(16) 0.3300(14) -0.0130(2)
O3A O 0.5440(13) 0.8516(18) 0.0225(2)
C1A C 0.6746(18) 0.8894(23) 0.0124(3)
O1A O 0.8185(11) 0.9849(16) 0.0208(2)
Cr1A Cr 1.0000 1.0000 -0.0003(1)
Mn1A Mn 0.3333 -0.3334 -0.0002(1)
O3C O 0.1484(18) -0.3076(12) 0.0225(2)
C1C C 0.1106(23) -0.2148(14) 0.0124(3)
O1C O 0.0151(16) -0.1664(11) 0.0208(2)
C2C C 0.2033(21) -0.1267(16) -0.0130(2)
O2C O 0.1687(14) -0.0144(11) -0.0196(2)
O1A_2 O -0.1815(11) -0.0151(16) 0.0208(2)
O2A O -0.1831(9) -0.1687(14) -0.0196(2)
O3C_2 O 0.1484(18) 0.6924(12) 0.0225(2)
O4C O 0.3072(14) 0.8456(10) -0.0217(2)
O4A O 0.5384(10) 0.6928(14) -0.0217(2)
C2A C 0.6700(14) 0.7967(21) -0.0130(2)
O2A_2 O 0.8169(9) 0.8313(14) -0.0196(2)
O4C_2 O 0.3072(14) -0.1544(10) -0.0217(2)
loop_
_geom_bond_atom_site_label_1
_geom_bond_atom_site_label_2
_geom_bond_site_symmetry_1
_geom_bond_site_symmetry_2
Cr1 O1 1_555 1_555
Mn1 O3 1_555 1_555
O1 C1 1_555 1_555
O2 Cr1 1_555 1_555
O3 C1 1_555 1_555
O4 Mn1 1_555 1_555
C1 C2 1_555 1_555
C2 O2 1_555 1_555
N1 C3 1_555 1_555
C3 C4 1_555 1_555
C4 C5 1_555 1_555
C5 C5A 1_555 1_555
C6 N1 1_555 1_555
C7 C6 1_555 1_555
C8 C7 1_555 1_555
C9 C8 1_555 1_555
O3A Mn1 1_555 1_555
C1A O3A 1_555 1_555
O1A C1A 1_555 1_555
Cr1A O1A 1_555 1_555
Mn1A O3C 1_555 1_555
O3C C1C 1_555 1_555
C1C O1C 1_555 1_555
O1C Cr1 1_555 1_555
C2C C1C 1_555 1_555
O2C Cr1 1_555 1_555
O1A_2 Cr1 1_555 1_555
O2A Cr1 1_555 1_555
O3C_2 Mn1 1_555 1_555
O4C Mn1 1_555 1_555
O4A Mn1 1_555 1_555
C2A C1A 1_555 1_555
O2A_2 Cr1A 1_555 1_555
O4C_2 Mn1A 1_555 1_555
C4A C3 1_555 1_555
C4C C3 1_555 1_555
C5A C4A 1_555 1_555
C5C C5 1_555 1_555
C6A N1 1_555 1_555
C7A C6A 1_555 1_555
C8A C7A 1_555 1_555
C9A C8A 1_555 1_555
C6C N1 1_555 1_555
C7C C6C 1_555 1_555
C8C C7C 1_555 1_555
C9C C8C 1_555 1_555
O4 C2 1_555 1_555
C4 C4A 1_555 1_555
C4 C4C 1_555 1_555
C2C O2C 1_555 1_555
C2C O4C_2 1_555 1_555
O4A C2A 1_555 1_555
C2A O2A_2 1_555 1_555
C4A C4C 1_555 1_555
C4C C5C 1_555 1_555
C5A C5C 1_555 1_555

#END
