
#######################################################################
#
#                 Cambridge Crystallographic Data Centre
#                                CCDC 
#
#######################################################################
#
# If this CIF has been generated from an entry in the Cambridge 
# Structural Database, then it will include bibliographic, chemical, 
# crystal, experimental, refinement or atomic coordinate data resulting 
# from the CCDC's data processing and validation procedures.
#
#######################################################################

data_FAQBOO
_symmetry_cell_setting           rhombohedral
_symmetry_space_group_name_H-M   'R 3 c'
_symmetry_Int_Tables_number      161
_space_group_name_Hall           'R 3 -2"c'
loop_
_symmetry_equiv_pos_site_id
_symmetry_equiv_pos_as_xyz
1 x,y,z
2 -y,x-y,z
3 -y,-x,1/2+z
4 -x+y,-x,z
5 x,x-y,1/2+z
6 -x+y,y,1/2+z
7 1/3+x,2/3+y,2/3+z
8 1/3-y,2/3+x-y,2/3+z
9 1/3-y,2/3-x,1/6+z
10 1/3-x+y,2/3-x,2/3+z
11 1/3+x,2/3+x-y,1/6+z
12 1/3-x+y,2/3+y,1/6+z
13 2/3+x,1/3+y,1/3+z
14 2/3-y,1/3+x-y,1/3+z
15 2/3-y,1/3-x,5/6+z
16 2/3-x+y,1/3-x,1/3+z
17 2/3+x,1/3+x-y,5/6+z
18 2/3-x+y,1/3+y,5/6+z
_cell_length_a                   9.372(5)
_cell_length_b                   9.372(5)
_cell_length_c                   57.94(7)
_cell_angle_alpha                90
_cell_angle_beta                 90
_cell_angle_gamma                120
_cell_volume                     4407.31
loop_
_atom_site_label
_atom_site_type_symbol
_atom_site_fract_x
_atom_site_fract_y
_atom_site_fract_z
P1 P 0.0000 0.0000 0.1032(6)
C3 C 0.0000 0.0000 0.1330(5)
C4 C -0.028(14) 0.070(13) 0.1528(7)
C5 C 0.0000 0.0000 0.1731(9)
C6 C -0.1171(65) 0.0218(75) 0.1861(8)
C7 C -0.1804(27) -0.1790(26) 0.0928(4)
C8 C -0.1875(57) -0.2161(56) 0.0698(6)
C9 C -0.3205(50) -0.3612(54) 0.0607(7)
C10 C -0.4697(42) -0.4480(44) 0.0736(6)
C11 C -0.4754(62) -0.3866(59) 0.0950(7)
C12 C -0.3310(48) -0.2522(75) 0.1046(9)
C4A C -0.070(13) -0.098(19) 0.1528(7)
C4C C 0.098(19) 0.028(14) 0.1528(7)
C6A C -0.0218(75) -0.1389(99) 0.1861(8)
C6C C 0.1389(99) 0.1171(65) 0.1861(8)
C7A C 0.1790(26) -0.0014(37) 0.0928(4)
C8A C 0.2161(56) 0.0286(80) 0.0698(6)
C9A C 0.3612(54) 0.0407(74) 0.0607(7)
C10A C 0.4480(44) -0.0217(61) 0.0736(6)
C11A C 0.3866(59) -0.0888(86) 0.0950(7)
C12A C 0.2522(75) -0.0788(89) 0.1046(9)
C7C C 0.0014(37) 0.1804(27) 0.0928(4)
C8C C -0.0286(80) 0.1875(57) 0.0698(6)
C9C C -0.0407(74) 0.3205(50) 0.0607(7)
C10C C 0.0217(61) 0.4697(42) 0.0736(6)
C11C C 0.0888(86) 0.4754(62) 0.0950(7)
C12C C 0.0788(89) 0.3310(48) 0.1046(9)
Cr1 Cr 0.0000 0.0000 0.0001(1)
Mn1 Mn 0.3333 0.6666 -0.0001(1)
O1 O 0.1783(15) 0.1995(16) 0.0197(2)
O2 O 0.0185(19) 0.1962(16) -0.0185(2)
O3 O 0.3156(17) 0.4703(19) 0.0189(3)
O4 O 0.1628(19) 0.4702(22) -0.0189(2)
C1 C 0.2135(17) 0.3428(18) 0.0112(4)
C2 C 0.1279(25) 0.3481(29) -0.0105(3)
O3A O 0.5297(19) 0.8453(25) 0.0189(3)
C1A C 0.6572(18) 0.8707(25) 0.0112(4)
O1A O 0.8005(16) 0.9788(22) 0.0197(2)
Cr1A Cr 1.0000 1.0000 0.0001(1)
Mn1A Mn 0.3334 -0.3333 -0.0001(1)
O3C O 0.1547(25) -0.3156(17) 0.0189(3)
C1C C 0.1293(25) -0.2135(17) 0.0112(4)
O1C O 0.0212(22) -0.1783(15) 0.0197(2)
C2C C 0.2202(38) -0.1279(25) -0.0105(3)
O2C O 0.1777(25) -0.0185(19) -0.0185(2)
O1A_2 O -0.1995(16) -0.0212(22) 0.0197(2)
O2A O -0.1962(16) -0.1777(25) -0.0185(2)
O3C_2 O 0.1547(25) 0.6844(17) 0.0189(3)
O4C O 0.3074(29) 0.8372(19) -0.0189(2)
O4A O 0.5298(22) 0.6926(29) -0.0189(2)
C2A C 0.6519(29) 0.7798(38) -0.0105(3)
O2A_2 O 0.8038(16) 0.8223(25) -0.0185(2)
O4C_2 O 0.3074(29) -0.1628(19) -0.0189(2)
loop_
_geom_bond_atom_site_label_1
_geom_bond_atom_site_label_2
_geom_bond_site_symmetry_1
_geom_bond_site_symmetry_2
Cr1 O1 1_555 1_555
Mn1 O3 1_555 1_555
O1 C1 1_555 1_555
O2 Cr1 1_555 1_555
O3 C1 1_555 1_555
O4 Mn1 1_555 1_555
C1 C2 1_555 1_555
C2 O2 1_555 1_555
P1 C3 1_555 1_555
C3 C4 1_555 1_555
C4 C5 1_555 1_555
C5 C6 1_555 1_555
C7 P1 1_555 1_555
C8 C7 1_555 1_555
C9 C8 1_555 1_555
C10 C9 1_555 1_555
C11 C10 1_555 1_555
C12 C7 1_555 1_555
O3A Mn1 1_555 1_555
C1A O3A 1_555 1_555
O1A C1A 1_555 1_555
Cr1A O1A 1_555 1_555
Mn1A O3C 1_555 1_555
O3C C1C 1_555 1_555
C1C O1C 1_555 1_555
O1C Cr1 1_555 1_555
C2C C1C 1_555 1_555
O2C Cr1 1_555 1_555
O1A_2 Cr1 1_555 1_555
O2A Cr1 1_555 1_555
O3C_2 Mn1 1_555 1_555
O4C Mn1 1_555 1_555
O4A Mn1 1_555 1_555
C2A C1A 1_555 1_555
O2A_2 Cr1A 1_555 1_555
O4C_2 Mn1A 1_555 1_555
C4A C3 1_555 1_555
C4C C3 1_555 1_555
C6A C5 1_555 1_555
C6C C5 1_555 1_555
C7A P1 1_555 1_555
C8A C7A 1_555 1_555
C9A C8A 1_555 1_555
C10A C9A 1_555 1_555
C11A C10A 1_555 1_555
C12A C7A 1_555 1_555
C7C P1 1_555 1_555
C8C C7C 1_555 1_555
C9C C8C 1_555 1_555
C10C C9C 1_555 1_555
C11C C10C 1_555 1_555
C12C C7C 1_555 1_555
O4 C2 1_555 1_555
C4 C4A 1_555 1_555
C4 C4C 1_555 1_555
C5 C4C 1_555 1_555
C5 C4A 1_555 1_555
C11 C12 1_555 1_555
C2C O2C 1_555 1_555
C2C O4C_2 1_555 1_555
O4A C2A 1_555 1_555
C2A O2A_2 1_555 1_555
C4A C4C 1_555 1_555
C11A C12A 1_555 1_555
C11C C12C 1_555 1_555

#END
