
#######################################################################
#
#                 Cambridge Crystallographic Data Centre
#                                CCDC 
#
#######################################################################
#
# If this CIF has been generated from an entry in the Cambridge 
# Structural Database, then it will include bibliographic, chemical, 
# crystal, experimental, refinement or atomic coordinate data resulting 
# from the CCDC's data processing and validation procedures.
#
#######################################################################

data_FAQGIP
_symmetry_cell_setting           rhombohedral
_symmetry_space_group_name_H-M   'R -3 c'
_symmetry_Int_Tables_number      167
_space_group_name_Hall           '-R 3 2"c'
loop_
_symmetry_equiv_pos_site_id
_symmetry_equiv_pos_as_xyz
1 x,y,z
2 -y,x-y,z
3 -x+y,-x,z
4 y,x,1/2-z
5 x-y,-y,1/2-z
6 -x,-x+y,1/2-z
7 2/3+x,1/3+y,1/3+z
8 2/3-y,1/3+x-y,1/3+z
9 2/3-x+y,1/3-x,1/3+z
10 2/3+y,1/3+x,5/6-z
11 2/3+x-y,1/3-y,5/6-z
12 2/3-x,1/3-x+y,5/6-z
13 1/3+x,2/3+y,2/3+z
14 1/3-y,2/3+x-y,2/3+z
15 1/3-x+y,2/3-x,2/3+z
16 1/3+y,2/3+x,1/6-z
17 1/3+x-y,2/3-y,1/6-z
18 1/3-x,2/3-x+y,1/6-z
19 -x,-y,-z
20 y,-x+y,-z
21 x-y,x,-z
22 -y,-x,1/2+z
23 -x+y,y,1/2+z
24 x,x-y,1/2+z
25 1/3-x,2/3-y,2/3-z
26 1/3+y,2/3-x+y,2/3-z
27 1/3+x-y,2/3+x,2/3-z
28 1/3-y,2/3-x,1/6+z
29 1/3-x+y,2/3+y,1/6+z
30 1/3+x,2/3+x-y,1/6+z
31 2/3-x,1/3-y,1/3-z
32 2/3+y,1/3-x+y,1/3-z
33 2/3+x-y,1/3+x,1/3-z
34 2/3-y,1/3-x,5/6+z
35 2/3-x+y,1/3+y,5/6+z
36 2/3+x,1/3+x-y,5/6+z
_cell_length_a                   16.3455(5)
_cell_length_b                   16.3455(5)
_cell_length_c                   59.157(4)
_cell_angle_alpha                90
_cell_angle_beta                 90
_cell_angle_gamma                120
_cell_volume                     13687.8
loop_
_atom_site_label
_atom_site_type_symbol
_atom_site_fract_x
_atom_site_fract_y
_atom_site_fract_z
Mn1 Mn 0.79072(2) 0.02733(2) 0.072632(5)
S1 S 0.67027(4) -0.16628(4) 0.006370(9)
N1 N 0.91967(14) 0.01356(14) 0.06051(4)
N2 N 1.0000 0.0000 0.02713(6)
N3 N 0.9123(2) 0.2492(2) 0.12208(6)
O1 O 0.54925(12) -0.16134(13) 0.06291(3)
O2 O 0.70197(12) -0.09645(13) 0.05337(3)
O3 O 0.55098(15) -0.32911(19) -0.04561(3)
O4 O 0.69263(12) -0.19991(14) -0.04248(3)
O5 O 0.6667 0.04078(13) 0.0833
O6 O 0.88632(16) 0.15799(14) 0.09093(4)
C1 C 0.61521(17) -0.14612(16) 0.04980(3)
C2 C 0.58691(16) -0.19197(16) 0.02704(3)
C3 C 0.49921(17) -0.25602(19) 0.01968(4)
H1 H 0.4451 -0.2776 0.0285
C4 C 0.49853(18) -0.2865(2) -0.00271(4)
H2 H 0.4442 -0.3303 -0.0102
C5 C 0.58645(16) -0.24431(16) -0.01192(3)
C6 C 0.61238(17) -0.25920(17) -0.03526(4)
C7 C 0.90946(17) -0.07778(17) 0.06868(4)
H3 H 0.9092 -0.0781 0.0851
H4 H 0.8492 -0.1294 0.0636
C8 C 0.92347(19) 0.01272(19) 0.03541(4)
H5 H 0.8640 -0.0380 0.0297
H6 H 0.9315 0.0718 0.0296
C9 C 0.8762(3) 0.1718(2) 0.11088(6)
H7 H 0.8363 0.1179 0.1191
C10 C 0.9948(5) 0.3320(3) 0.11264(10)
H8 H 1.0274 0.3120 0.1025
H9 H 1.0365 0.3687 0.1247
H10 H 0.9748 0.3698 0.1045
C11 C 0.8922(5) 0.2583(5) 0.14505(9)
H11 H 0.8646 0.1978 0.1523
H12 H 0.8488 0.2817 0.1457
H13 H 0.9497 0.3017 0.1527
Mn1A Mn 0.97267(2) -0.23661(3) 0.072632(5)
Mn1B Mn 1.23661(3) 0.20928(2) 0.072632(5)
Mn1Q Mn 0.54261(2) -0.09672(3) 0.094035(5)
Mn1T Mn 0.76339(3) -0.20928(2) -0.072632(5)
Mn1HA Mn 0.90328(3) 0.36066(2) -0.094035(5)
Mn1S Mn 1.02733(2) 0.23661(3) -0.072632(5)
Mn1BA Mn 0.56994(3) -0.30600(2) 0.239299(5)
Mn1O Mn 1.36066(2) 0.45739(2) 0.094035(5)
S1S S 0.83372(4) 0.16345(6) -0.006370(9)
S1Q S 0.66306(4) -0.16988(6) 0.160297(9)
N1A N 0.98644(14) -0.09389(20) 0.06051(4)
N1B N 1.09389(20) 0.08033(14) 0.06051(4)
N3A N 0.7508(2) -0.3369(3) 0.12208(6)
N3B N 1.3369(3) 0.0877(2) 0.12208(6)
O1S O 0.83866(13) 0.28941(18) -0.06291(3)
O1Q O 0.78408(12) -0.04392(18) 0.10376(3)
O1P O 1.04392(18) -0.17199(13) 0.10376(3)
O1O O 1.17199(13) 0.21592(12) 0.10376(3)
O2S O 0.90355(13) 0.20158(18) -0.05337(3)
O2Q O 0.63136(12) -0.13175(18) 0.11330(3)
O2A O 1.09645(13) -0.20158(18) 0.05337(3)
O2B O 1.20158(18) 0.29803(12) 0.05337(3)
O3S O 0.67089(19) 0.11991(24) 0.04561(3)
O3Q O 0.78235(15) -0.21342(24) 0.21228(3)
O4S O 0.80009(14) 0.10746(18) 0.04248(3)
O4Q O 0.64070(12) -0.22587(18) 0.20915(3)
O4T O 0.89254(18) -0.30737(12) 0.04248(3)
O4R O 1.30737(12) 0.19991(14) 0.04248(3)
O5A O 0.95922(13) -0.37408(13) 0.0833
O5B O 1.37408(13) 0.3333 0.0833
O6A O 0.84201(14) -0.27167(21) 0.09093(4)
O6B O 1.27167(21) 0.11368(16) 0.09093(4)
C1S C 0.85388(16) 0.23867(23) -0.04980(3)
C1Q C 0.71812(17) -0.09466(23) 0.11687(3)
C2S C 0.80803(16) 0.22112(23) -0.02704(3)
C2Q C 0.74642(16) -0.11221(23) 0.13963(3)
C3S C 0.74398(19) 0.24477(25) -0.01968(4)
C3Q C 0.83412(17) -0.08856(25) 0.14699(4)
H1S H 0.7224 0.2773 -0.0285
H1Q H 0.8882 -0.0560 0.1382
C4S C 0.7135(2) 0.21497(27) 0.00271(4)
C4Q C 0.83480(18) -0.11836(27) 0.16938(4)
H2S H 0.6697 0.2255 0.0102
H2Q H 0.8891 -0.1078 0.1769
C5S C 0.75569(16) 0.16924(23) 0.01192(3)
C5Q C 0.74688(16) -0.16409(23) 0.17859(3)
C6S C 0.74080(17) 0.12842(24) 0.03526(4)
C6Q C 0.72095(17) -0.20491(24) 0.20193(4)
C7A C 1.07778(17) -0.01276(24) 0.06868(4)
C7B C 1.01276(24) 0.09054(17) 0.06868(4)
H3B H 1.0127 0.0908 0.0851
H3A H 1.0781 -0.0127 0.0851
H4B H 1.0214 0.1508 0.0636
H4A H 1.1294 -0.0214 0.0636
C8A C 0.98728(19) -0.08925(27) 0.03541(4)
C8B C 1.08925(27) 0.07653(19) 0.03541(4)
H5A H 1.0380 -0.0980 0.0297
H5B H 1.0980 0.1360 0.0297
H6A H 0.9282 -0.1403 0.0296
H6B H 1.1403 0.0685 0.0296
C9A C 0.8282(2) -0.2956(4) 0.11088(6)
C9B C 1.2956(4) 0.1238(3) 0.11088(6)
H7A H 0.8821 -0.2816 0.1191
H7B H 1.2816 0.1637 0.1191
C10A C 0.6680(3) -0.3372(6) 0.11264(10)
C10B C 1.3372(6) 0.0052(5) 0.11264(10)
H8A H 0.6880 -0.2846 0.1025
H8B H 1.2846 -0.0274 0.1025
H9A H 0.6313 -0.3322 0.1247
H9B H 1.3322 -0.0365 0.1247
H10A H 0.6302 -0.3950 0.1045
H10B H 1.3950 0.0252 0.1045
C11A C 0.7417(5) -0.3661(7) 0.14505(9)
C11B C 1.3661(7) 0.1078(5) 0.14505(9)
H11A H 0.8022 -0.3332 0.1523
H11B H 1.3332 0.1354 0.1523
H12A H 0.7183 -0.4329 0.1457
H12B H 1.4329 0.1512 0.1457
H13A H 0.6983 -0.3520 0.1527
H13B H 1.3520 0.0503 0.1527
O7 O 0.6667 0.3333 0.0833
loop_
_geom_bond_atom_site_label_1
_geom_bond_atom_site_label_2
_geom_bond_site_symmetry_1
_geom_bond_site_symmetry_2
Mn1 N1 1_555 1_555
S1 C2 1_555 1_555
N1 C7 1_555 1_555
N2 C8 1_555 1_555
N3 C9 1_555 1_555
O1 C1 1_555 1_555
O2 Mn1 1_555 1_555
O3 C6 1_555 1_555
O4 C6 1_555 1_555
O5 Mn1 1_555 1_555
O6 Mn1 1_555 1_555
C1 O2 1_555 1_555
C2 C1 1_555 1_555
C3 C2 1_555 1_555
H1 C3 1_555 1_555
C4 C3 1_555 1_555
H2 C4 1_555 1_555
C5 S1 1_555 1_555
C6 C5 1_555 1_555
C7 H3 1_555 1_555
H4 C7 1_555 1_555
C8 N1 1_555 1_555
H5 C8 1_555 1_555
H6 C8 1_555 1_555
C9 O6 1_555 1_555
H7 C9 1_555 1_555
C10 N3 1_555 1_555
H8 C10 1_555 1_555
H9 C10 1_555 1_555
H10 C10 1_555 1_555
C11 N3 1_555 1_555
H11 C11 1_555 1_555
H12 C11 1_555 1_555
H13 C11 1_555 1_555
Mn1A N1A 1_555 1_555
Mn1B N1B 1_555 1_555
Mn1Q O1 1_555 1_555
Mn1T O4 1_555 1_555
Mn1HA O1S 1_555 1_555
Mn1S O2S 1_555 1_555
Mn1BA O4Q 1_555 1_555
Mn1O O5B 1_555 1_555
S1S C2S 1_555 1_555
S1Q C2Q 1_555 1_555
N1A C7 1_555 1_555
N1B C7A 1_555 1_555
N3A C9A 1_555 1_555
N3B C9B 1_555 1_555
O1S C1S 1_555 1_555
O1Q Mn1 1_555 1_555
O1P Mn1A 1_555 1_555
O1O Mn1B 1_555 1_555
O2S C1S 1_555 1_555
O2Q Mn1Q 1_555 1_555
O2A Mn1A 1_555 1_555
O2B Mn1B 1_555 1_555
O3S C6S 1_555 1_555
O3Q C6Q 1_555 1_555
O4S Mn1 1_555 1_555
O4Q C6Q 1_555 1_555
O4T Mn1A 1_555 1_555
O4R Mn1B 1_555 1_555
O5A Mn1A 1_555 1_555
O5B Mn1B 1_555 1_555
O6A Mn1A 1_555 1_555
O6B Mn1B 1_555 1_555
C1S C2S 1_555 1_555
C1Q O1Q 1_555 1_555
C2S C3S 1_555 1_555
C2Q C1Q 1_555 1_555
C3S H1S 1_555 1_555
C3Q C2Q 1_555 1_555
H1Q C3Q 1_555 1_555
C4S C3S 1_555 1_555
C4Q C3Q 1_555 1_555
H2S C4S 1_555 1_555
H2Q C4Q 1_555 1_555
C5S S1S 1_555 1_555
C5Q S1Q 1_555 1_555
C6S O4S 1_555 1_555
C6Q C5Q 1_555 1_555
C7A N1A 1_555 1_555
C7B N1 1_555 1_555
H3B C7B 1_555 1_555
H3A C7A 1_555 1_555
H4B C7B 1_555 1_555
H4A C7A 1_555 1_555
C8A N2 1_555 1_555
C8B N2 1_555 1_555
H5A C8A 1_555 1_555
H5B C8B 1_555 1_555
H6A C8A 1_555 1_555
H6B C8B 1_555 1_555
C9A O6A 1_555 1_555
C9B O6B 1_555 1_555
H7A C9A 1_555 1_555
H7B C9B 1_555 1_555
C10A N3A 1_555 1_555
C10B N3B 1_555 1_555
H8A C10A 1_555 1_555
H8B C10B 1_555 1_555
H9A C10A 1_555 1_555
H9B C10B 1_555 1_555
H10A C10A 1_555 1_555
H10B C10B 1_555 1_555
C11A N3A 1_555 1_555
C11B N3B 1_555 1_555
H11A C11A 1_555 1_555
H11B C11B 1_555 1_555
H12A C11A 1_555 1_555
H12B C11B 1_555 1_555
H13A C11A 1_555 1_555
H13B C11B 1_555 1_555
O5 Mn1Q 1_555 1_555
C4 C5 1_555 1_555
N1A C8A 1_555 1_555
N1B C7B 1_555 1_555
N1B C8B 1_555 1_555
O2Q C1Q 1_555 1_555
C4S C5S 1_555 1_555
C4Q C5Q 1_555 1_555
C5S C6S 1_555 1_555

#END
