
#######################################################################
#
#                 Cambridge Crystallographic Data Centre
#                                CCDC 
#
#######################################################################
#
# If this CIF has been generated from an entry in the Cambridge 
# Structural Database, then it will include bibliographic, chemical, 
# crystal, experimental, refinement or atomic coordinate data resulting 
# from the CCDC's data processing and validation procedures.
#
#######################################################################

data_FAQGEL
_symmetry_cell_setting           rhombohedral
_symmetry_space_group_name_H-M   'R -3 c'
_symmetry_Int_Tables_number      167
_space_group_name_Hall           '-R 3 2"c'
loop_
_symmetry_equiv_pos_site_id
_symmetry_equiv_pos_as_xyz
1 x,y,z
2 -y,x-y,z
3 -x+y,-x,z
4 y,x,1/2-z
5 x-y,-y,1/2-z
6 -x,-x+y,1/2-z
7 2/3+x,1/3+y,1/3+z
8 2/3-y,1/3+x-y,1/3+z
9 2/3-x+y,1/3-x,1/3+z
10 2/3+y,1/3+x,5/6-z
11 2/3+x-y,1/3-y,5/6-z
12 2/3-x,1/3-x+y,5/6-z
13 1/3+x,2/3+y,2/3+z
14 1/3-y,2/3+x-y,2/3+z
15 1/3-x+y,2/3-x,2/3+z
16 1/3+y,2/3+x,1/6-z
17 1/3+x-y,2/3-y,1/6-z
18 1/3-x,2/3-x+y,1/6-z
19 -x,-y,-z
20 y,-x+y,-z
21 x-y,x,-z
22 -y,-x,1/2+z
23 -x+y,y,1/2+z
24 x,x-y,1/2+z
25 1/3-x,2/3-y,2/3-z
26 1/3+y,2/3-x+y,2/3-z
27 1/3+x-y,2/3+x,2/3-z
28 1/3-y,2/3-x,1/6+z
29 1/3-x+y,2/3+y,1/6+z
30 1/3+x,2/3+x-y,1/6+z
31 2/3-x,1/3-y,1/3-z
32 2/3+y,1/3-x+y,1/3-z
33 2/3+x-y,1/3+x,1/3-z
34 2/3-y,1/3-x,5/6+z
35 2/3-x+y,1/3+y,5/6+z
36 2/3+x,1/3+x-y,5/6+z
_cell_length_a                   16.3680(6)
_cell_length_b                   16.3680(6)
_cell_length_c                   60.285(4)
_cell_angle_alpha                90
_cell_angle_beta                 90
_cell_angle_gamma                120
_cell_volume                     13987.2
loop_
_atom_site_label
_atom_site_type_symbol
_atom_site_fract_x
_atom_site_fract_y
_atom_site_fract_z
Cd1 Cd 0.791256(14) 0.027748(14) 0.072886(3)
S1 S 0.66852(6) -0.16959(6) 0.006300(13)
N1 N 0.92062(16) 0.01295(17) 0.06045(4)
N2 N 1.0000 0.0000 0.02754(7)
N3 N 0.9139(3) 0.2517(3) 0.12254(7)
O1 O 0.69228(19) -0.1995(2) -0.04125(4)
O2 O 0.5508(2) -0.3278(3) -0.04544(5)
O3 O 0.69912(19) -0.1029(2) 0.05275(4)
O4 O 0.54575(19) -0.16481(18) 0.06145(4)
O5 O 0.6667 0.04917(18) 0.0833
O6 O 0.8934(2) 0.16458(18) 0.09181(5)
C1 C 0.6113(2) -0.2598(2) -0.03482(5)
C2 C 0.5850(2) -0.2470(2) -0.01188(5)
C3 C 0.4969(3) -0.2907(3) -0.00273(6)
C4 C 0.4975(3) -0.2611(3) 0.01948(6)
H1 H 0.441(4) -0.301(4) 0.0320(10)
C5 C 0.5847(2) -0.1963(2) 0.02649(5)
H2 H 0.436(3) -0.340(3) -0.0105(7)
C6 C 0.6128(2) -0.1502(2) 0.04890(5)
C7 C 0.9236(2) 0.0125(2) 0.03561(5)
H3 H 0.930(3) 0.063(3) 0.0302(7)
H4 H 0.864(2) -0.040(2) 0.0308(6)
C8 C 1.0127(2) 0.09036(19) 0.06846(5)
H5 H 1.023(2) 0.147(3) 0.0630(6)
H6 H 1.019(2) 0.091(2) 0.0839(6)
C9 C 0.8765(3) 0.1745(3) 0.11134(8)
H7 H 0.829(3) 0.127(3) 0.1224(8)
C10 C 0.9918(5) 0.3379(4) 0.11347(11)
H8 H 1.0267 0.3223 0.1032
H9 H 1.0326 0.3754 0.1253
H10 H 0.9675 0.3729 0.1059
C11 C 0.8890(7) 0.2580(6) 0.14490(13)
H11 H 0.918(4) 0.263(4) 0.1576(10)
H12 H 0.873(4) 0.287(4) 0.1419(10)
H13 H 0.848(5) 0.198(5) 0.1513(11)
Cd1A Cd 0.972252(14) -0.236492(20) 0.072886(3)
Cd1B Cd 1.236492(20) 0.208744(14) 0.072886(3)
Cd1T Cd 0.763508(20) -0.208744(14) -0.072886(3)
Cd1Q Cd 0.542077(14) -0.096841(20) 0.093781(3)
Cd1BA Cd 0.569825(20) -0.305585(14) 0.239553(3)
Cd1S Cd 1.027748(14) 0.236492(20) -0.072886(3)
Cd1HA Cd 0.903159(20) 0.361081(14) -0.093781(3)
Cd1O Cd 1.361081(14) 0.457923(14) 0.093781(3)
S1Q S 0.66481(6) -0.17144(8) 0.160367(13)
S1S S 0.83041(6) 0.16189(8) -0.006300(13)
N1A N 0.98705(17) -0.09233(23) 0.06045(4)
N1B N 1.09233(23) 0.07938(16) 0.06045(4)
N3A N 0.7483(3) -0.3378(4) 0.12254(7)
N3B N 1.3378(4) 0.0861(3) 0.12254(7)
O1Q O 0.64105(19) -0.22511(28) 0.20792(4)
O1S O 0.8005(2) 0.10822(28) 0.04125(4)
O1T O 0.89178(28) -0.30772(19) 0.04125(4)
O1R O 1.30772(19) 0.1995(2) 0.04125(4)
O2Q O 0.7825(2) -0.2119(4) 0.21211(5)
O2S O 0.6722(3) 0.1214(4) 0.04544(5)
O3Q O 0.63421(19) -0.13535(28) 0.11392(4)
O3S O 0.8971(2) 0.19798(28) -0.05275(4)
O3A O 1.1029(2) -0.19798(28) 0.05275(4)
O3B O 1.19798(28) 0.30088(19) 0.05275(4)
O4Q O 0.78758(19) -0.04389(26) 0.10522(4)
O4S O 0.83519(18) 0.28944(26) -0.06145(4)
O4P O 1.04389(26) -0.16852(18) 0.10522(4)
O4O O 1.16852(18) 0.21242(19) 0.10522(4)
O5A O 0.95083(18) -0.38247(18) 0.0833
O5B O 1.38247(18) 0.3333 0.0833
O6A O 0.83542(18) -0.27118(27) 0.09181(5)
O6B O 1.27118(27) 0.1066(2) 0.09181(5)
C1Q C 0.7220(2) -0.2044(3) 0.20149(5)
C1S C 0.7402(2) 0.1289(3) 0.03482(5)
C2Q C 0.7483(2) -0.1653(3) 0.17855(5)
C2S C 0.7530(2) 0.1680(3) 0.01188(5)
C3Q C 0.8364(3) -0.1209(4) 0.16940(6)
C3S C 0.7093(3) 0.2124(4) 0.00273(6)
C4Q C 0.8358(3) -0.0919(4) 0.14719(6)
C4S C 0.7389(3) 0.2414(4) -0.01948(6)
H1Q H 0.892(4) -0.075(6) 0.1347(10)
H1S H 0.699(4) 0.258(6) -0.0320(10)
C5Q C 0.7486(2) -0.1143(3) 0.14018(5)
C5S C 0.8037(2) 0.2190(3) -0.02649(5)
H2Q H 0.897(3) -0.109(4) 0.1772(7)
H2S H 0.660(3) 0.224(4) 0.0105(7)
C6Q C 0.7205(2) -0.0963(3) 0.11777(5)
C6S C 0.8498(2) 0.2370(3) -0.04890(5)
C7A C 0.9875(2) -0.0889(3) 0.03561(5)
C7B C 1.0889(3) 0.0764(2) 0.03561(5)
H3B H 1.133(4) 0.070(3) 0.0302(7)
H3A H 0.937(3) -0.133(4) 0.0302(7)
H4B H 1.096(3) 0.136(2) 0.0308(6)
H4A H 1.040(2) -0.096(3) 0.0308(6)
C8A C 0.90964(19) -0.07766(28) 0.06846(5)
C8B C 1.07766(28) -0.0127(2) 0.06846(5)
H5B H 1.124(4) -0.023(2) 0.0630(6)
H5A H 0.853(3) -0.124(4) 0.0630(6)
H6B H 1.072(3) -0.019(2) 0.0839(6)
H6A H 0.909(2) -0.072(3) 0.0839(6)
C9A C 0.8255(3) -0.2980(4) 0.11134(8)
C9B C 1.2980(4) 0.1235(3) 0.11134(8)
H7A H 0.873(3) -0.298(4) 0.1224(8)
H7B H 1.298(4) 0.171(3) 0.1224(8)
C10A C 0.6621(4) -0.3461(6) 0.11347(11)
C10B C 1.3461(6) 0.0082(5) 0.11347(11)
H8A H 0.6777 -0.2956 0.1032
H8B H 1.2956 -0.0267 0.1032
H9A H 0.6246 -0.3428 0.1253
H9B H 1.3428 -0.0326 0.1253
H10A H 0.6271 -0.4054 0.1059
H10B H 1.4054 0.0325 0.1059
C11A C 0.7420(6) -0.3690(9) 0.14490(13)
C11B C 1.3690(9) 0.1110(7) 0.14490(13)
H11A H 0.737(4) -0.345(6) 0.1576(10)
H11B H 1.345(6) 0.082(4) 0.1576(10)
H12A H 0.713(4) -0.414(6) 0.1419(10)
H12B H 1.414(6) 0.127(4) 0.1419(10)
H13A H 0.802(5) -0.350(7) 0.1513(11)
H13B H 1.350(7) 0.152(5) 0.1513(11)
O7 O 0.6667 0.3333 0.0833
loop_
_geom_bond_atom_site_label_1
_geom_bond_atom_site_label_2
_geom_bond_site_symmetry_1
_geom_bond_site_symmetry_2
Cd1 N1 1_555 1_555
S1 C2 1_555 1_555
N1 C7 1_555 1_555
N2 C7 1_555 1_555
N3 C9 1_555 1_555
O1 C1 1_555 1_555
O2 C1 1_555 1_555
O3 Cd1 1_555 1_555
O4 C6 1_555 1_555
O5 Cd1 1_555 1_555
O6 Cd1 1_555 1_555
C1 C2 1_555 1_555
C2 C3 1_555 1_555
C3 C4 1_555 1_555
C4 H1 1_555 1_555
C5 S1 1_555 1_555
H2 C3 1_555 1_555
C6 O3 1_555 1_555
C7 H3 1_555 1_555
H4 C7 1_555 1_555
C8 N1 1_555 1_555
H5 C8 1_555 1_555
H6 C8 1_555 1_555
C9 O6 1_555 1_555
H7 C9 1_555 1_555
C10 N3 1_555 1_555
H8 C10 1_555 1_555
H9 C10 1_555 1_555
H10 C10 1_555 1_555
C11 N3 1_555 1_555
H11 C11 1_555 1_555
H12 C11 1_555 1_555
H13 C11 1_555 1_555
Cd1A N1A 1_555 1_555
Cd1B N1B 1_555 1_555
Cd1T O1 1_555 1_555
Cd1Q O4 1_555 1_555
Cd1BA O1Q 1_555 1_555
Cd1S O3S 1_555 1_555
Cd1HA O4S 1_555 1_555
Cd1O O5B 1_555 1_555
S1Q C2Q 1_555 1_555
S1S C2S 1_555 1_555
N1A C7A 1_555 1_555
N1B C8 1_555 1_555
N3A C9A 1_555 1_555
N3B C9B 1_555 1_555
O1Q C1Q 1_555 1_555
O1S Cd1 1_555 1_555
O1T Cd1A 1_555 1_555
O1R Cd1B 1_555 1_555
O2Q C1Q 1_555 1_555
O2S C1S 1_555 1_555
O3Q Cd1Q 1_555 1_555
O3S C6S 1_555 1_555
O3A Cd1A 1_555 1_555
O3B Cd1B 1_555 1_555
O4Q Cd1 1_555 1_555
O4S C6S 1_555 1_555
O4P Cd1A 1_555 1_555
O4O Cd1B 1_555 1_555
O5A Cd1A 1_555 1_555
O5B Cd1B 1_555 1_555
O6A Cd1A 1_555 1_555
O6B Cd1B 1_555 1_555
C1Q C2Q 1_555 1_555
C1S O1S 1_555 1_555
C2Q C3Q 1_555 1_555
C2S C1S 1_555 1_555
C3Q C4Q 1_555 1_555
C3S C2S 1_555 1_555
C4Q H1Q 1_555 1_555
C4S C3S 1_555 1_555
H1S C4S 1_555 1_555
C5Q S1Q 1_555 1_555
C5S S1S 1_555 1_555
H2Q C3Q 1_555 1_555
H2S C3S 1_555 1_555
C6Q O3Q 1_555 1_555
C6S C5S 1_555 1_555
C7A N2 1_555 1_555
C7B N2 1_555 1_555
H3B C7B 1_555 1_555
H3A C7A 1_555 1_555
H4B C7B 1_555 1_555
H4A C7A 1_555 1_555
C8A N1 1_555 1_555
C8B N1A 1_555 1_555
H5B C8B 1_555 1_555
H5A C8A 1_555 1_555
H6B C8B 1_555 1_555
H6A C8A 1_555 1_555
C9A O6A 1_555 1_555
C9B O6B 1_555 1_555
H7A C9A 1_555 1_555
H7B C9B 1_555 1_555
C10A N3A 1_555 1_555
C10B N3B 1_555 1_555
H8A C10A 1_555 1_555
H8B C10B 1_555 1_555
H9A C10A 1_555 1_555
H9B C10B 1_555 1_555
H10A C10A 1_555 1_555
H10B C10B 1_555 1_555
C11A N3A 1_555 1_555
C11B N3B 1_555 1_555
H11A C11A 1_555 1_555
H11B C11B 1_555 1_555
H12A C11A 1_555 1_555
H12B C11B 1_555 1_555
H13A C11A 1_555 1_555
H13B C11B 1_555 1_555
O5 Cd1Q 1_555 1_555
C4 C5 1_555 1_555
C5 C6 1_555 1_555
N1A C8A 1_555 1_555
N1B C7B 1_555 1_555
N1B C8B 1_555 1_555
O4Q C6Q 1_555 1_555
C4Q C5Q 1_555 1_555
C4S C5S 1_555 1_555
C5Q C6Q 1_555 1_555

#END
