
#######################################################################
#
#                 Cambridge Crystallographic Data Centre
#                                CCDC 
#
#######################################################################
#
# If this CIF has been generated from an entry in the Cambridge 
# Structural Database, then it will include bibliographic, chemical, 
# crystal, experimental, refinement or atomic coordinate data resulting 
# from the CCDC's data processing and validation procedures.
#
#######################################################################

data_FAQHAI
_symmetry_cell_setting           monoclinic
_symmetry_space_group_name_H-M   'P 21/c'
_symmetry_Int_Tables_number      14
_space_group_name_Hall           '-P 2ybc'
loop_
_symmetry_equiv_pos_site_id
_symmetry_equiv_pos_as_xyz
1 x,y,z
2 -x,1/2+y,1/2-z
3 -x,-y,-z
4 x,1/2-y,1/2+z
_cell_length_a                   12.1463(16)
_cell_length_b                   14.544(2)
_cell_length_c                   16.438(2)
_cell_angle_alpha                90
_cell_angle_beta                 97.014(2)
_cell_angle_gamma                90
_cell_volume                     2882.14
loop_
_atom_site_label
_atom_site_type_symbol
_atom_site_fract_x
_atom_site_fract_y
_atom_site_fract_z
Co1 Co 0.79531(9) 0.85606(7) 0.10804(7)
Co2 Co 0.73582(9) 0.99459(7) 0.26457(7)
N1 N 0.3455(8) 0.8381(7) -0.0734(5)
H1 H 0.2938 0.8073 -0.1017
H2 H 0.3747 0.8847 -0.0948
N2 N 0.9537(6) 0.7934(5) 0.0760(4)
H3 H 0.9806 0.8355 0.1094
H4 H 0.9183 0.7478 0.0936
N3 N 0.7214(6) 0.8698(5) -0.0135(4)
N4 N 0.7121(6) 0.7269(5) 0.0825(5)
O1 O 0.6613(4) 0.9336(4) 0.1547(3)
O2 O 0.5745(5) 0.9130(5) 0.2614(4)
O3 O 0.3561(6) 0.6174(5) 0.2379(4)
O4 O 0.2603(7) 0.5785(5) 0.1224(4)
O5 O 1.1235(5) 1.0215(4) -0.1055(4)
O6 O 1.1309(5) 0.9437(4) -0.2235(4)
O7 O 0.8592(5) 0.6882(4) -0.2777(3)
O8 O 0.8161(5) 0.6074(4) -0.1715(4)
C1 C 0.3811(8) 0.8130(7) 0.0055(6)
C2 C 0.3368(8) 0.7376(7) 0.0439(6)
H9 H 0.2835 0.7015 0.0135
C3 C 0.3687(7) 0.7149(6) 0.1244(6)
C4 C 0.4469(7) 0.7698(6) 0.1713(6)
H10 H 0.4665 0.7566 0.2266
C5 C 0.4959(7) 0.8441(6) 0.1358(5)
C6 C 0.4632(7) 0.8660(6) 0.0524(6)
H11 H 0.4958 0.9153 0.0285
C7 C 0.5812(7) 0.9003(6) 0.1873(6)
C8 C 0.3250(7) 0.6327(6) 0.1634(6)
C9 C 0.9677(7) 0.7993(6) -0.0081(5)
C10 C 1.0236(7) 0.8708(6) -0.0388(5)
H12 H 1.0562 0.9155 -0.0032
C11 C 1.0324(7) 0.8779(6) -0.1217(5)
C12 C 0.9815(7) 0.8133(6) -0.1752(5)
H13 H 0.9869 0.8178 -0.2310
C13 C 0.9223(7) 0.7417(5) -0.1455(5)
C14 C 0.9182(7) 0.7324(6) -0.0625(5)
H14 H 0.8829 0.6820 -0.0425
C15 C 1.0994(7) 0.9540(6) -0.1532(5)
C16 C 0.8599(7) 0.6733(6) -0.2025(5)
C17 C 0.7176(9) 0.6556(7) 0.1336(7)
H15 H 0.7509 0.6641 0.1871
C18 C 0.6765(11) 0.5697(8) 0.1112(8)
H16 H 0.6775 0.5222 0.1491
C19 C 0.6340(10) 0.5571(8) 0.0309(9)
H17 H 0.6094 0.4992 0.0128
C20 C 0.6276(9) 0.6293(8) -0.0230(7)
H18 H 0.5974 0.6211 -0.0773
C21 C 0.6672(8) 0.7160(7) 0.0049(6)
C22 C 0.6660(7) 0.7959(6) -0.0471(6)
C23 C 0.6104(9) 0.7998(9) -0.1254(7)
H19 H 0.5729 0.7483 -0.1481
C24 C 0.6107(9) 0.8800(9) -0.1698(7)
H20 H 0.5716 0.8838 -0.2220
C25 C 0.6696(9) 0.9546(8) -0.1359(6)
H21 H 0.6733 1.0089 -0.1653
C26 C 0.7225(8) 0.9462(7) -0.0578(6)
H22 H 0.7612 0.9968 -0.0345
Co1B Co 1.20469(9) 1.14394(7) -0.10804(7)
Co1C Co 0.79531(9) 0.64394(7) -0.39196(7)
Co2A Co 0.26418(9) 0.49459(7) 0.23543(7)
Co2B Co 1.26418(9) 1.00541(7) -0.26457(7)
Co2C Co 0.73582(9) 0.50541(7) -0.23543(7)
O3A O 0.6439(6) 1.1174(5) 0.2621(4)
O4A O 0.7397(7) 1.0785(5) 0.3776(4)
O5B O 0.8765(5) 0.9785(4) 0.1055(4)
O6B O 0.8691(5) 1.0563(4) 0.2235(4)
O7C O 0.8592(5) 0.8118(4) 0.2223(3)
O8C O 0.8161(5) 0.8926(4) 0.3285(4)
O9 O 0.9828(7) 0.5917(6) 0.1157(5)
H5 H 0.9661 0.5482 0.1465
H6 H 1.0352 0.5848 0.0864
O10 O 0.8802(8) 0.0596(8) 0.5229(7)
H7 H 0.8374 0.0487 0.5590
H8 H 0.9284 0.0201 0.5131
loop_
_geom_bond_atom_site_label_1
_geom_bond_atom_site_label_2
_geom_bond_site_symmetry_1
_geom_bond_site_symmetry_2
Co1 N2 1_555 1_555
Co2 O1 1_555 1_555
N1 H1 1_555 1_555
H2 N1 1_555 1_555
N2 H3 1_555 1_555
H4 N2 1_555 1_555
N3 Co1 1_555 1_555
N4 Co1 1_555 1_555
O1 Co1 1_555 1_555
O2 Co2 1_555 1_555
O3 C8 1_555 1_555
O4 C8 1_555 1_555
O5 C15 1_555 1_555
O6 C15 1_555 1_555
O7 C16 1_555 1_555
O8 C16 1_555 1_555
O9 H5 1_555 1_555
H6 O9 1_555 1_555
O10 H7 1_555 1_555
H8 O10 1_555 1_555
C1 N1 1_555 1_555
C2 C1 1_555 1_555
H9 C2 1_555 1_555
C3 C2 1_555 1_555
C4 C3 1_555 1_555
H10 C4 1_555 1_555
C5 C4 1_555 1_555
C6 C1 1_555 1_555
H11 C6 1_555 1_555
C7 O1 1_555 1_555
C8 C3 1_555 1_555
C9 N2 1_555 1_555
C10 C9 1_555 1_555
H12 C10 1_555 1_555
C11 C10 1_555 1_555
C12 C11 1_555 1_555
H13 C12 1_555 1_555
C13 C12 1_555 1_555
C14 C9 1_555 1_555
H14 C14 1_555 1_555
C15 C11 1_555 1_555
C16 C13 1_555 1_555
C17 N4 1_555 1_555
H15 C17 1_555 1_555
C18 C17 1_555 1_555
H16 C18 1_555 1_555
C19 C18 1_555 1_555
H17 C19 1_555 1_555
C20 C19 1_555 1_555
H18 C20 1_555 1_555
C21 N4 1_555 1_555
C22 N3 1_555 1_555
C23 C22 1_555 1_555
H19 C23 1_555 1_555
C24 C23 1_555 1_555
H20 C24 1_555 1_555
C25 C24 1_555 1_555
H21 C25 1_555 1_555
C26 N3 1_555 1_555
H22 C26 1_555 1_555
Co1B O5 1_555 1_555
Co1C O7 1_555 1_555
Co2A O3 1_555 1_555
Co2B O6 1_555 1_555
Co2C O8 1_555 1_555
O3A Co2 1_555 1_555
O4A Co2 1_555 1_555
O5B Co1 1_555 1_555
O6B Co2 1_555 1_555
O7C Co1 1_555 1_555
O8C Co2 1_555 1_555
O2 C7 1_555 1_555
O4 Co2A 1_555 1_555
C5 C6 1_555 1_555
C5 C7 1_555 1_555
C13 C14 1_555 1_555
C20 C21 1_555 1_555
C21 C22 1_555 1_555
C25 C26 1_555 1_555

#END
