
#######################################################################
#
#                 Cambridge Crystallographic Data Centre
#                                CCDC 
#
#######################################################################
#
# If this CIF has been generated from an entry in the Cambridge 
# Structural Database, then it will include bibliographic, chemical, 
# crystal, experimental, refinement or atomic coordinate data resulting 
# from the CCDC's data processing and validation procedures.
#
#######################################################################

data_FAQLIU
_symmetry_cell_setting           triclinic
_symmetry_space_group_name_H-M   'P 1'
_symmetry_Int_Tables_number      1
_space_group_name_Hall           'P 1'
loop_
_symmetry_equiv_pos_site_id
_symmetry_equiv_pos_as_xyz
1 x,y,z
_cell_length_a                   7.3902(3)
_cell_length_b                   11.2945(7)
_cell_length_c                   14.9602(9)
_cell_angle_alpha                110.183(6)
_cell_angle_beta                 96.516(4)
_cell_angle_gamma                99.838(4)
_cell_volume                     1134.54
loop_
_atom_site_label
_atom_site_type_symbol
_atom_site_fract_x
_atom_site_fract_y
_atom_site_fract_z
Cu1 Cu -0.17125(11) 0.13563(9) 0.22029(6)
C1 C -0.0106(19) 0.2349(17) -0.0458(11)
H1 H 0.0303 0.2505 -0.0980
C2 C -0.5271(18) -0.2189(14) -0.0584(10)
H2 H -0.6057 -0.2793 -0.1144
C3 C 0.0444(18) 0.3244(15) 0.0449(13)
H3 H 0.1213 0.4034 0.0536
C4 C -0.5200(18) -0.2331(12) 0.0312(11)
H4 H -0.5859 -0.3078 0.0361
C5 C -0.1286(18) 0.1202(16) -0.0588(9)
H5 H -0.1719 0.0579 -0.1209
C6 C -0.4081(14) -0.1291(11) 0.1151(7)
H6 H -0.4107 -0.1345 0.1757
C7 C -0.4070(17) -0.1068(16) -0.0584(10)
H7 H -0.4004 -0.0954 -0.1167
C8 C -0.0049(15) 0.3060(12) 0.1217(12)
H8 H 0.0400 0.3707 0.1827
C9 C -0.1845(15) 0.0961(12) 0.0213(8)
C10 C -0.3021(13) -0.0166(11) 0.0243(8)
C11 C -0.140(3) 0.5209(18) 0.4001(19)
H9 H -0.1652 0.5976 0.3973
C12 C -0.0486(19) 0.4956(18) 0.5100(12)
H10 H -0.0213 0.5565 0.5731
C13 C -0.0680(17) -0.0478(12) 0.3154(10)
H11 H -0.1027 -0.1105 0.2531
C14 C 0.055(3) -0.006(3) 0.469(2)
H12 H 0.1022 -0.0322 0.5174
C15 C 0.0029(19) -0.082(2) 0.3860(18)
H13 H 0.0126 -0.1678 0.3713
C16 C 0.040(2) 0.139(3) 0.4907(11)
H14 H 0.0808 0.2044 0.5517
C17 C -0.163(2) 0.4105(16) 0.3256(13)
H15 H -0.2083 0.4086 0.2644
C18 C -0.0371(17) 0.1586(16) 0.4124(9)
C19 C -0.0618(14) 0.2926(19) 0.4177(5)
C39 C -0.034(3) 0.404(2) 0.4895(13)
H31 H 0.0239 0.3948 0.5443
N1 N -0.1182(13) 0.1960(9) 0.1134(7)
N2 N -0.3001(11) -0.0248(9) 0.1099(7)
N3 N -0.0921(13) 0.0686(15) 0.3280(8)
N4 N -0.1265(13) 0.3010(10) 0.3319(8)
O1 O -0.4981(12) 0.1823(9) 0.2097(8)
O2 O -0.6968(10) -0.0032(7) 0.2243(6)
O3 O -0.7624(16) 0.0570(10) 0.1028(6)
O4 O -0.7874(10) 0.1985(8) 0.2518(5)
S1 S -0.6806(3) 0.1121(3) 0.19729(18)
Cu1_2 Cu -1.17125(11) 0.13563(9) 0.22029(6)
O4_2 O 0.2126(10) 0.1985(8) 0.2518(5)
C20 C -0.523(3) 0.584(3) -0.4316(18)
H16 H -0.5388 0.6654 -0.4274
C21 C -0.4445(17) 0.559(2) -0.3455(11)
H17 H -0.4180 0.6260 -0.2850
C22 C -0.431(2) -0.0108(15) -0.5056(12)
H18 H -0.4558 -0.0955 -0.5500
C23 C -0.4835(18) 0.118(2) -0.5396(10)
H19 H -0.5248 0.1172 -0.6008
C24 C -0.383(3) 0.0096(18) -0.4469(17)
H20 H -0.3420 -0.0599 -0.4383
C25 C -0.572(2) 0.476(4) -0.5203(18)
H21 H -0.6242 0.4842 -0.5768
C26 C -0.343(2) 0.1172(15) -0.3566(14)
H22 H -0.2911 0.1099 -0.2997
C27 C -0.3849(15) 0.4160(15) 0.0286(9)
H23 H -0.3420 0.4864 0.0868
C28 C -0.5699(18) 0.2032(17) -0.0647(13)
H24 H -0.6477 0.1257 -0.0708
C29 C -0.5201(15) 0.2273(12) -0.1485(8)
H25 H -0.5713 0.1652 -0.2099
C30 C -0.4752(17) 0.341(2) -0.4452(10)
C31 C -0.0028(17) 0.7554(13) -0.0653(13)
H26 H 0.0771 0.8257 -0.0695
C32 C -0.1046(17) 0.6458(13) 0.0327(8)
H27 H -0.0955 0.6398 0.0935
C33 C -0.4954(19) 0.3024(17) 0.0267(11)
H28 H -0.5194 0.2921 0.0836
C34 C -0.1110(17) 0.6623(12) -0.1461(10)
H29 H -0.1105 0.6696 -0.2062
C35 C -0.4429(18) 0.2284(14) -0.4418(14)
C36 C -0.011(2) 0.7460(16) 0.0210(13)
H30 H 0.0543 0.8157 0.0761
C37 C -0.3390(13) 0.4240(11) -0.0561(7)
C38 C -0.2199(14) 0.5467(12) -0.0493(8)
C40 C -0.549(2) 0.382(3) -0.5216(14)
H32 H -0.5822 0.3170 -0.5829
N5 N -0.4128(13) 0.4519(11) -0.3514(8)
N6 N -0.3817(15) 0.2226(14) -0.3558(8)
N7 N -0.4027(11) 0.3360(10) -0.1406(7)
N8 N -0.2197(12) 0.5587(9) -0.1388(6)
O5 O -0.0235(12) 0.3623(12) -0.2560(9)
O6 O 0.2206(16) 0.4608(10) -0.1250(5)
O7 O 0.138(3) 0.5041(16) -0.2661(9)
O8 O 0.2651(13) 0.3346(11) -0.2785(6)
S2 S 0.1624(3) 0.4184(3) -0.22799(18)
Cu2 Cu -0.34924(11) 0.39429(9) -0.24846(6)
O8_2 O -0.7349(13) 0.3346(11) -0.2785(6)
Cu2_2 Cu 0.65076(11) 0.39429(9) -0.24846(6)
O9 O -1.134(8) 0.840(3) 0.7175(14)
O10 O -1.007(5) 0.8238(12) 0.6097(10)
O11 O -0.829(4) 0.910(2) 0.7935(9)
O12 O -0.946(4) 1.0058(18) 0.7141(13)
S3 S -0.9385(13) 0.8947(4) 0.7056(3)
O13 O 0.284(2) 0.650(2) 0.3365(12)
O14 O 0.298(5) 0.678(4) 0.206(3)
O15 O 0.4131(15) 0.5065(10) 0.2442(9)
O16 O 0.5490(15) 0.690(2) 0.2846(15)
S4 S 0.3891(7) 0.6414(5) 0.2629(4)
loop_
_geom_bond_atom_site_label_1
_geom_bond_atom_site_label_2
_geom_bond_site_symmetry_1
_geom_bond_site_symmetry_2
Cu1 N1 1_555 1_555
C1 H1 1_555 1_555
C2 H2 1_555 1_555
C3 C1 1_555 1_555
H3 C3 1_555 1_555
C4 C2 1_555 1_555
H4 C4 1_555 1_555
C5 C1 1_555 1_555
H5 C5 1_555 1_555
C6 C4 1_555 1_555
H6 C6 1_555 1_555
C7 C2 1_555 1_555
H7 C7 1_555 1_555
C8 C3 1_555 1_555
H8 C8 1_555 1_555
C9 C5 1_555 1_555
C10 C7 1_555 1_555
C11 H9 1_555 1_555
C12 C11 1_555 1_555
H10 C12 1_555 1_555
C13 H11 1_555 1_555
C14 H12 1_555 1_555
C15 C13 1_555 1_555
H13 C15 1_555 1_555
C16 C14 1_555 1_555
H14 C16 1_555 1_555
C17 C11 1_555 1_555
H15 C17 1_555 1_555
C18 C16 1_555 1_555
C19 C18 1_555 1_555
C20 H16 1_555 1_555
C21 C20 1_555 1_555
H17 C21 1_555 1_555
C22 H18 1_555 1_555
C23 C22 1_555 1_555
H19 C23 1_555 1_555
C24 C22 1_555 1_555
H20 C24 1_555 1_555
C25 C20 1_555 1_555
H21 C25 1_555 1_555
C26 C24 1_555 1_555
H22 C26 1_555 1_555
C27 H23 1_555 1_555
C28 H24 1_555 1_555
C29 C28 1_555 1_555
H25 C29 1_555 1_555
C30 C35 1_555 1_555
C31 H26 1_555 1_555
C32 H27 1_555 1_555
C33 C27 1_555 1_555
H28 C33 1_555 1_555
C34 C31 1_555 1_555
H29 C34 1_555 1_555
C35 C23 1_555 1_555
C36 C31 1_555 1_555
H30 C36 1_555 1_555
C37 C27 1_555 1_555
C38 C32 1_555 1_555
C39 C12 1_555 1_555
H31 C39 1_555 1_555
C40 C25 1_555 1_555
H32 C40 1_555 1_555
N1 C8 1_555 1_555
N2 Cu1 1_555 1_555
N3 Cu1 1_555 1_555
N4 Cu1 1_555 1_555
N5 C21 1_555 1_555
N6 C26 1_555 1_555
N7 C29 1_555 1_555
N8 C34 1_555 1_555
O1 Cu1 1_555 1_555
O2 S1 1_555 1_555
O3 S1 1_555 1_555
O4 S1 1_555 1_555
O5 S2 1_555 1_555
O6 S2 1_555 1_555
O7 S2 1_555 1_555
O8 S2 1_555 1_555
O9 S3 1_555 1_555
O10 S3 1_555 1_555
O11 S3 1_555 1_555
O12 S3 1_555 1_555
O13 S4 1_555 1_555
O14 S4 1_555 1_555
O15 S4 1_555 1_555
O16 S4 1_555 1_555
S1 O1 1_555 1_555
Cu2 N5 1_555 1_555
Cu1_2 O4 1_555 1_555
O4_2 Cu1 1_555 1_555
O8_2 Cu2 1_555 1_555
Cu2_2 O8 1_555 1_555
C6 N2 1_555 1_555
C9 C10 1_555 1_555
C9 N1 1_555 1_555
C10 N2 1_555 1_555
C13 N3 1_555 1_555
C14 C15 1_555 1_555
C17 N4 1_555 1_555
C18 N3 1_555 1_555
C19 C39 1_555 1_555
C19 N4 1_555 1_555
C28 C33 1_555 1_555
C30 C40 1_555 1_555
C30 N5 1_555 1_555
C32 C36 1_555 1_555
C35 N6 1_555 1_555
C37 C38 1_555 1_555
C37 N7 1_555 1_555
C38 N8 1_555 1_555
N6 Cu2 1_555 1_555
N7 Cu2 1_555 1_555
N8 Cu2 1_555 1_555
O5 Cu2 1_555 1_555

#END
