
#######################################################################
#
#                 Cambridge Crystallographic Data Centre
#                                CCDC 
#
#######################################################################
#
# If this CIF has been generated from an entry in the Cambridge 
# Structural Database, then it will include bibliographic, chemical, 
# crystal, experimental, refinement or atomic coordinate data resulting 
# from the CCDC's data processing and validation procedures.
#
#######################################################################

data_FAQSIA
_symmetry_cell_setting           triclinic
_symmetry_space_group_name_H-M   'P -1'
_symmetry_Int_Tables_number      2
_space_group_name_Hall           '-P 1'
loop_
_symmetry_equiv_pos_site_id
_symmetry_equiv_pos_as_xyz
1 x,y,z
2 -x,-y,-z
_cell_length_a                   11.698(2)
_cell_length_b                   11.1620(13)
_cell_length_c                   8.1056(10)
_cell_angle_alpha                93.635(9)
_cell_angle_beta                 84.236(1)
_cell_angle_gamma                113.962(1)
_cell_volume                     961.97
loop_
_atom_site_label
_atom_site_type_symbol
_atom_site_fract_x
_atom_site_fract_y
_atom_site_fract_z
Cu1 Cu 1.54447(3) 1.39148(3) 1.70292(4)
Cu2 Cu 1.35622(3) 0.60690(3) 0.90982(4)
Cu3 Cu 0.68369(4) 0.67903(4) 1.03337(5)
Cu4 Cu 1.00000 1.00000 1.00000
Cl1 Cl 1.71298(7) 1.54252(7) 1.81901(8)
Cl2 Cl 1.38488(6) 1.46191(6) 1.71403(8)
Cl3 Cl 1.53864(6) 0.76081(7) 0.99988(9)
Cl4 Cl 0.88061(7) 0.80471(7) 1.11658(9)
O1 O 1.3769(2) 1.0171(2) 1.4503(2)
O2 O 1.1991(2) 0.8946(2) 0.9598(2)
O3 O 1.0716(2) 1.1442(2) 1.3155(2)
N1 N 1.2912(2) 0.9483(2) 1.2089(3)
N2 N 1.1339(2) 1.0163(2) 1.1404(3)
N3 N 1.2294(2) 1.0917(2) 1.3932(3)
C1 C 1.2966(2) 1.0210(3) 1.3486(3)
C2 C 1.2109(2) 0.9534(3) 1.1079(3)
C3 C 1.1481(2) 1.0838(3) 1.2856(3)
C4 C 1.4047(3) 1.1123(3) 1.5908(3)
C5 C 1.4979(3) 1.2414(3) 1.5248(3)
C6 C 1.6223(3) 1.2872(3) 1.5482(4)
C7 C 1.2838(3) 0.8293(3) 0.9067(3)
C8 C 1.2309(3) 0.6943(3) 0.9761(3)
C9 C 1.1726(3) 0.5832(3) 0.8841(4)
C10 C 1.0904(3) 1.2298(3) 1.4643(3)
C11 C 1.0098(3) 1.3040(3) 1.4594(4)
C12 C 0.9514(3) 1.3325(3) 1.5951(4)
H1 H 1.333(3) 1.120(3) 1.639(4)
H2 H 1.436(3) 1.073(3) 1.663(4)
H3 H 1.465(4) 1.275(4) 1.447(5)
H4 H 1.649(3) 1.241(3) 1.616(4)
H5 H 1.687(5) 1.364(5) 1.495(6)
H6 H 1.364(4) 0.881(4) 0.942(5)
H7 H 1.281(3) 0.817(3) 0.794(4)
H8 H 1.229(4) 0.696(4) 1.096(5)
H9 H 1.154(4) 0.589(5) 0.769(6)
H10 H 1.124(4) 0.504(4) 0.932(5)
H11 H 1.170(4) 1.283(4) 1.460(5)
H12 H 1.074(4) 1.179(4) 1.565(5)
H13 H 1.009(4) 1.338(4) 1.357(5)
H14 H 0.943(4) 1.288(4) 1.703(5)
H15 H 0.918(5) 1.390(5) 1.599(6)
Cu1A Cu 0.45553(3) 0.60852(3) 0.29708(4)
Cu1A_2 Cu 1.45553(3) 0.60852(3) 1.29708(4)
Cu1_2 Cu 1.54447(3) 0.39148(3) 0.70292(4)
Cu2A Cu 0.64378(3) 1.39310(3) 1.09018(4)
Cu2A_2 Cu 1.64378(3) 1.39310(3) 2.09018(4)
Cu2_2 Cu 1.35622(3) 1.60690(3) 1.90982(4)
Cu2_3 Cu 0.35622(3) 0.60690(3) 0.90982(4)
Cu3A Cu 1.31631(4) 1.32097(4) 0.96663(5)
Cu3_2 Cu 1.68369(4) 1.67903(4) 2.03337(5)
Cu3A_2 Cu 1.31631(4) 1.32097(4) 1.96663(5)
Cu3_3 Cu 1.68369(4) 0.67903(4) 1.03337(5)
Cu3A_3 Cu 1.31631(4) 0.32097(4) 0.96663(5)
Cl1A Cl 1.28702(7) 0.45748(7) 1.18099(8)
Cl1_2 Cl 0.71298(7) 0.54252(7) 0.81901(8)
Cl1A_2 Cl 0.28702(7) 0.45748(7) 0.18099(8)
Cl1_3 Cl 0.71298(7) 1.54252(7) 0.81901(8)
Cl1A_3 Cl 1.28702(7) 1.45748(7) 1.18099(8)
Cl2_2 Cl 1.38488(6) 0.46191(6) 0.71403(8)
Cl2A Cl 0.61512(6) 0.53809(6) 1.28597(8)
Cl2A_2 Cl 0.61512(6) 0.53809(6) 0.28597(8)
Cl2A_3 Cl 0.61512(6) 1.53809(6) 1.28597(8)
Cl2_3 Cl 1.38488(6) 1.46191(6) 0.71403(8)
Cl3_2 Cl 0.53864(6) 0.76081(7) 0.99988(9)
Cl3A Cl 0.46136(6) 1.23919(7) 1.00012(9)
Cl3A_2 Cl 1.46136(6) 1.23919(7) 1.00012(9)
Cl4A Cl 1.11939(7) 1.19529(7) 0.88342(9)
O1A O 0.6231(2) 0.9829(2) 0.5497(2)
O2A O 0.8009(2) 1.1054(2) 1.0402(2)
O3A O 0.9284(2) 0.8558(2) 0.6845(2)
N1A N 0.7088(2) 1.0517(2) 0.7911(3)
N2A N 0.8661(2) 0.9837(2) 0.8596(3)
N3A N 0.7706(2) 0.9083(2) 0.6068(3)
C1A C 0.7034(2) 0.9790(3) 0.6514(3)
C2A C 0.7891(2) 1.0466(3) 0.8921(3)
C3A C 0.8519(2) 0.9162(3) 0.7144(3)
C4A C 0.5953(3) 0.8877(3) 0.4092(3)
C5A C 0.5021(3) 0.7586(3) 0.4752(3)
C6A C 0.3777(3) 0.7128(3) 0.4518(4)
C7A C 0.7162(3) 1.1707(3) 1.0933(3)
C8A C 0.7691(3) 1.3057(3) 1.0239(3)
C9A C 0.8274(3) 1.4168(3) 1.1159(4)
C10A C 0.9096(3) 0.7702(3) 0.5357(3)
C11A C 0.9902(3) 0.6960(3) 0.5406(4)
C12A C 1.0486(3) 0.6675(3) 0.4049(4)
H1A H 0.667(3) 0.880(3) 0.361(4)
H2A H 0.564(3) 0.927(3) 0.337(4)
H3A H 0.535(4) 0.725(4) 0.553(5)
H4A H 0.351(3) 0.759(3) 0.384(4)
H5A H 0.313(5) 0.636(5) 0.505(6)
H6A H 0.636(4) 1.119(4) 1.058(5)
H7A H 0.719(3) 1.183(3) 1.206(4)
H8A H 0.771(4) 1.304(4) 0.904(5)
H9A H 0.846(4) 1.411(5) 1.231(6)
H10A H 0.876(4) 1.496(4) 1.068(5)
H11A H 0.830(4) 0.717(4) 0.540(5)
H12A H 0.926(4) 0.821(4) 0.435(5)
H13A H 0.991(4) 0.662(4) 0.643(5)
H14A H 1.057(4) 0.712(4) 0.297(5)
H15A H 1.082(5) 0.610(5) 0.401(6)
loop_
_geom_bond_atom_site_label_1
_geom_bond_atom_site_label_2
_geom_bond_site_symmetry_1
_geom_bond_site_symmetry_2
Cu1 Cl1 1_555 1_555
Cu2 Cl3 1_555 1_555
Cu3 Cl4 1_555 1_555
Cu4 Cl4 1_555 1_555
Cl1 Cu2A_2 1_555 1_555
Cl2 Cu1 1_555 1_555
Cl3 Cu3_3 1_555 1_555
O1 C1 1_555 1_555
O2 C2 1_555 1_555
O3 C3 1_555 1_555
N1 C1 1_555 1_555
N2 Cu4 1_555 1_555
N3 C1 1_555 1_555
C2 N1 1_555 1_555
C3 N2 1_555 1_555
C4 O1 1_555 1_555
C5 Cu1 1_555 1_555
C6 Cu1 1_555 1_555
C7 O2 1_555 1_555
C8 Cu2 1_555 1_555
C9 Cu2 1_555 1_555
C10 O3 1_555 1_555
C11 C10 1_555 1_555
C12 C11 1_555 1_555
H1 C4 1_555 1_555
H2 C4 1_555 1_555
H3 C5 1_555 1_555
H4 C6 1_555 1_555
H5 C6 1_555 1_555
H6 C7 1_555 1_555
H7 C7 1_555 1_555
H8 C8 1_555 1_555
H9 C9 1_555 1_555
H10 C9 1_555 1_555
H11 C10 1_555 1_555
H12 C10 1_555 1_555
H13 C11 1_555 1_555
H14 C12 1_555 1_555
H15 C12 1_555 1_555
Cu1A Cl1A_2 1_555 1_555
Cu1A_2 Cl1A 1_555 1_555
Cu1_2 Cl2_2 1_555 1_555
Cu2A Cl1_3 1_555 1_555
Cu2_2 Cl2 1_555 1_555
Cu2_3 Cl3_2 1_555 1_555
Cu3A Cl1A_3 1_555 1_555
Cu3_2 Cl1 1_555 1_555
Cu3A_2 Cl2 1_555 1_555
Cu3A_3 Cl1A 1_555 1_555
Cl1A Cu2 1_555 1_555
Cl1_2 Cu3 1_555 1_555
Cl2_2 Cu2 1_555 1_555
Cl2A Cu3 1_555 1_555
Cl2A_2 Cu1A 1_555 1_555
Cl2A_3 Cu2A 1_555 1_555
Cl2_3 Cu3A 1_555 1_555
Cl3_2 Cu3 1_555 1_555
Cl3A Cu2A 1_555 1_555
Cl3A_2 Cu3A 1_555 1_555
Cl4A Cu4 1_555 1_555
O1A C1A 1_555 1_555
O2A C2A 1_555 1_555
O3A C3A 1_555 1_555
N1A C1A 1_555 1_555
N2A Cu4 1_555 1_555
N3A C1A 1_555 1_555
C2A N1A 1_555 1_555
C3A N2A 1_555 1_555
C4A O1A 1_555 1_555
C5A Cu1A 1_555 1_555
C6A Cu1A 1_555 1_555
C7A O2A 1_555 1_555
C8A Cu2A 1_555 1_555
C9A Cu2A 1_555 1_555
C10A O3A 1_555 1_555
C11A C10A 1_555 1_555
C12A C11A 1_555 1_555
H1A C4A 1_555 1_555
H2A C4A 1_555 1_555
H3A C5A 1_555 1_555
H4A C6A 1_555 1_555
H5A C6A 1_555 1_555
H6A C7A 1_555 1_555
H7A C7A 1_555 1_555
H8A C8A 1_555 1_555
H9A C9A 1_555 1_555
H10A C9A 1_555 1_555
H11A C10A 1_555 1_555
H12A C10A 1_555 1_555
H13A C11A 1_555 1_555
H14A C12A 1_555 1_555
H15A C12A 1_555 1_555
N2 C2 1_555 1_555
N3 C3 1_555 1_555
C4 C5 1_555 1_555
C5 C6 1_555 1_555
C7 C8 1_555 1_555
C8 C9 1_555 1_555
Cu3A Cl4A 1_555 1_555
Cu3A_3 Cl2_2 1_555 1_555
N2A C2A 1_555 1_555
N3A C3A 1_555 1_555
C4A C5A 1_555 1_555
C5A C6A 1_555 1_555
C7A C8A 1_555 1_555
C8A C9A 1_555 1_555

#END
