
#######################################################################
#
#                 Cambridge Crystallographic Data Centre
#                                CCDC 
#
#######################################################################
#
# If this CIF has been generated from an entry in the Cambridge 
# Structural Database, then it will include bibliographic, chemical, 
# crystal, experimental, refinement or atomic coordinate data resulting 
# from the CCDC's data processing and validation procedures.
#
#######################################################################

data_FAQSEW
_symmetry_cell_setting           orthorhombic
_symmetry_space_group_name_H-M   'C m c a'
_symmetry_Int_Tables_number      64
_space_group_name_Hall           '-C 2ac 2'
loop_
_symmetry_equiv_pos_site_id
_symmetry_equiv_pos_as_xyz
1 x,y,z
2 1/2+x,1/2+y,z
3 -x,1/2-y,1/2+z
4 -x,1/2+y,1/2-z
5 x,-y,-z
6 1/2-x,-y,1/2+z
7 1/2-x,y,1/2-z
8 1/2+x,1/2-y,-z
9 -x,-y,-z
10 1/2-x,1/2-y,-z
11 x,1/2+y,1/2-z
12 x,1/2-y,1/2+z
13 -x,y,z
14 1/2+x,y,1/2-z
15 1/2+x,-y,1/2+z
16 1/2-x,1/2+y,z
_cell_length_a                   11.6964(19)
_cell_length_b                   15.554(16)
_cell_length_c                   15.874(3)
_cell_angle_alpha                90
_cell_angle_beta                 90
_cell_angle_gamma                90
_cell_volume                     2887.89
loop_
_atom_site_label
_atom_site_type_symbol
_atom_site_fract_x
_atom_site_fract_y
_atom_site_fract_z
Cd1 Cd 1.0000 -0.41429(2) 0.59097(2)
O1 O 1.0000 -0.2659(3) 0.6054(3)
O2 O 1.0000 -0.3346(3) 0.7251(3)
O3 O 1.0000 -0.0302(2) 0.8207(2)
O4 O 1.0000 -0.0917(3) 0.9448(3)
N1 N 0.8033(3) -0.41638(19) 0.5806(2)
C1 C 0.7453(4) -0.3710(4) 0.5251(4)
H1 H 0.7862 -0.3399 0.4852
C2 C 0.6270(4) -0.3669(4) 0.5227(4)
H2 H 0.5906 -0.3345 0.4814
C3 C 0.5635(3) -0.4110(2) 0.5814(2)
C4 C 0.6237(4) -0.4574(4) 0.6396(4)
H3 H 0.5851 -0.4880 0.6812
C5 C 0.7415(4) -0.4589(4) 0.6367(3)
H4 H 0.7799 -0.4919 0.6766
C6 C 1.0000 -0.2680(3) 0.6842(3)
C7 C 1.0000 -0.1814(4) 0.7294(4)
H5 H 1.0668 -0.1495 0.7112
H6 H 0.9332 -0.1495 0.7112
C8 C 1.0000 -0.1841(4) 0.8234(4)
H7 H 1.0669 -0.2157 0.8420
H8 H 0.9331 -0.2157 0.8420
C9 C 1.0000 -0.0964(3) 0.8662(3)
Cd1J Cd 1.0000 0.08571(2) 0.90903(2)
Cd1K Cd 1.0000 -0.08571(2) 1.09097(2)
Cd1_2 Cd 0.0000 -0.41429(2) 0.59097(2)
O3J O 1.0000 -0.5302(2) 0.6793(2)
O4K O 1.0000 -0.4083(3) 0.4448(3)
N1L N 0.1967(3) -0.41638(19) 0.5806(2)
N1L_2 N 1.1967(3) -0.41638(19) 0.5806(2)
C1L C 0.2547(4) -0.3710(4) 0.5251(4)
H1L H 0.2138 -0.3399 0.4852
C2L C 0.3730(4) -0.3669(4) 0.5227(4)
H2L H 0.4094 -0.3345 0.4814
C3L C 0.4365(3) -0.4110(2) 0.5814(2)
C4L C 0.3763(4) -0.4574(4) 0.6396(4)
H3L H 0.4149 -0.4880 0.6812
C5L C 0.2585(4) -0.4589(4) 0.6367(3)
H4L H 0.2201 -0.4919 0.6766
O5 O 0.7500 -0.2683(16) 0.7500
loop_
_geom_bond_atom_site_label_1
_geom_bond_atom_site_label_2
_geom_bond_site_symmetry_1
_geom_bond_site_symmetry_2
Cd1 O1 1_555 1_555
O1 C6 1_555 1_555
O2 Cd1 1_555 1_555
O3 C9 1_555 1_555
O4 C9 1_555 1_555
N1 Cd1 1_555 1_555
C1 N1 1_555 1_555
H1 C1 1_555 1_555
C2 C1 1_555 1_555
H2 C2 1_555 1_555
C3 C2 1_555 1_555
C4 C3 1_555 1_555
H3 C4 1_555 1_555
C5 N1 1_555 1_555
H4 C5 1_555 1_555
C6 O2 1_555 1_555
C7 C6 1_555 1_555
H5 C7 1_555 1_555
H6 C7 1_555 1_555
C8 C7 1_555 1_555
H7 C8 1_555 1_555
H8 C8 1_555 1_555
C9 C8 1_555 1_555
Cd1J O3 1_555 1_555
Cd1K O4 1_555 1_555
Cd1_2 N1L 1_555 1_555
O3J Cd1 1_555 1_555
O4K Cd1 1_555 1_555
N1L C1L 1_555 1_555
N1L_2 Cd1 1_555 1_555
C1L H1L 1_555 1_555
C2L C1L 1_555 1_555
H2L C2L 1_555 1_555
C3L C3 1_555 1_555
C4L C3L 1_555 1_555
H3L C4L 1_555 1_555
C5L N1L 1_555 1_555
H4L C5L 1_555 1_555
C4 C5 1_555 1_555
C2L C3L 1_555 1_555
C4L C5L 1_555 1_555

#END
