
#######################################################################
#
#                 Cambridge Crystallographic Data Centre
#                                CCDC 
#
#######################################################################
#
# If this CIF has been generated from an entry in the Cambridge 
# Structural Database, then it will include bibliographic, chemical, 
# crystal, experimental, refinement or atomic coordinate data resulting 
# from the CCDC's data processing and validation procedures.
#
#######################################################################

data_FAQTUN01
_symmetry_cell_setting           triclinic
_symmetry_space_group_name_H-M   'P -1'
_symmetry_Int_Tables_number      2
_space_group_name_Hall           '-P 1'
loop_
_symmetry_equiv_pos_site_id
_symmetry_equiv_pos_as_xyz
1 x,y,z
2 -x,-y,-z
_cell_length_a                   6.2459(6)
_cell_length_b                   12.7698(13)
_cell_length_c                   15.7220(16)
_cell_angle_alpha                111.7710(10)
_cell_angle_beta                 90.3200(10)
_cell_angle_gamma                95.1760(10)
_cell_volume                     1158.75
loop_
_atom_site_label
_atom_site_type_symbol
_atom_site_fract_x
_atom_site_fract_y
_atom_site_fract_z
Eu1 Eu 0.256162(19) 0.527915(10) 0.424404(9)
O1 O 0.4225(3) 0.72589(15) 0.48097(14)
O2 O 0.5881(3) 0.61313(14) 0.53080(12)
O3 O 0.5669(3) 0.49362(16) 0.32821(12)
O4 O 0.3039(3) 0.55930(18) 0.27587(14)
O5 O 0.0919(3) 0.35461(16) 0.30267(12)
O6 O -0.0959(3) 0.40896(14) 0.42706(11)
O7 O -0.0410(3) 0.61597(17) 0.39769(14)
N1 N 1.0455(4) 1.1950(2) 0.64432(18)
N2 N 1.1786(5) 0.3164(3) -0.0103(2)
N3 N -0.7910(4) 0.0325(3) 0.1272(2)
C1 C 1.2331(5) 1.1776(3) 0.6748(2)
H1 H 1.3409 1.2375 0.6952
C2 C 1.2745(5) 1.0750(3) 0.6775(2)
H2 H 1.4062 1.0664 0.7007
C3 C 1.1166(5) 0.9846(3) 0.6450(3)
H3 H 1.1427 0.9141 0.6449
C4 C 0.9190(5) 0.9996(2) 0.6123(2)
C5 C 0.8930(5) 1.1073(2) 0.6137(2)
H4 H 0.7621 1.1191 0.5921
C6 C 0.7472(4) 0.9066(2) 0.5731(2)
H5 H 0.6259 0.9229 0.5476
C7 C 0.7488(5) 0.8023(2) 0.5706(2)
H6 H 0.8645 0.7855 0.5991
C8 C 0.5764(4) 0.7104(2) 0.52467(18)
C9 C 1.0899(6) 0.3163(3) -0.0867(2)
H7 H 1.1687 0.2919 -0.1393
C10 C 0.8883(6) 0.3498(3) -0.0942(2)
H8 H 0.8338 0.3478 -0.1501
C11 C 0.7706(5) 0.3864(3) -0.0165(2)
H9 H 0.6336 0.4084 -0.0192
C12 C 0.8590(5) 0.3900(2) 0.06622(19)
C13 C 1.0622(5) 0.3522(3) 0.0646(2)
H10 H 1.1206 0.3517 0.1190
C14 C 0.7547(4) 0.4311(2) 0.15433(19)
H11 H 0.8240 0.4220 0.2033
C15 C 0.5721(5) 0.4801(3) 0.17227(19)
H12 H 0.5016 0.4937 0.1257
C16 C 0.4768(4) 0.5138(2) 0.26333(18)
C17 C -0.7387(6) -0.0704(3) 0.0735(3)
H13 H -0.8497 -0.1249 0.0419
C18 C -0.5319(5) -0.1003(3) 0.0621(2)
H14 H -0.5043 -0.1732 0.0249
C19 C -0.3653(5) -0.0186(3) 0.1077(2)
H15 H -0.2232 -0.0353 0.0999
C20 C -0.4127(4) 0.0885(2) 0.16509(19)
C21 C -0.6275(5) 0.1092(3) 0.1715(2)
H16 H -0.6599 0.1811 0.2091
C22 C -0.2391(4) 0.1756(2) 0.21582(19)
H17 H -0.1035 0.1698 0.1913
C23 C -0.2608(4) 0.2616(2) 0.29356(18)
H18 H -0.3959 0.2697 0.3183
C24 C -0.0794(4) 0.3451(2) 0.34256(17)
H19 H -0.154(4) 0.576(2) 0.377(2)
H20 H -0.037(5) 0.669(2) 0.378(2)
Eu1A Eu 0.743838(19) 0.472085(10) 0.575596(9)
Eu1A_2 Eu -0.256162(19) 0.472085(10) 0.575596(9)
O2A O 0.4119(3) 0.38687(14) 0.46920(12)
O6A O 0.0959(3) 0.59104(14) 0.57294(11)
loop_
_geom_bond_atom_site_label_1
_geom_bond_atom_site_label_2
_geom_bond_site_symmetry_1
_geom_bond_site_symmetry_2
Eu1 O1 1_555 1_555
O1 C8 1_555 1_555
O2 Eu1 1_555 1_555
O3 Eu1 1_555 1_555
O4 Eu1 1_555 1_555
O5 Eu1 1_555 1_555
O6 Eu1 1_555 1_555
O7 Eu1 1_555 1_555
N1 C1 1_555 1_555
N2 C9 1_555 1_555
N3 C17 1_555 1_555
C1 H1 1_555 1_555
C2 C1 1_555 1_555
H2 C2 1_555 1_555
C3 C2 1_555 1_555
H3 C3 1_555 1_555
C4 C3 1_555 1_555
C5 N1 1_555 1_555
H4 C5 1_555 1_555
C6 C4 1_555 1_555
H5 C6 1_555 1_555
C7 C6 1_555 1_555
H6 C7 1_555 1_555
C8 O2 1_555 1_555
C9 H7 1_555 1_555
C10 C9 1_555 1_555
H8 C10 1_555 1_555
C11 C10 1_555 1_555
H9 C11 1_555 1_555
C12 C11 1_555 1_555
C13 N2 1_555 1_555
H10 C13 1_555 1_555
C14 C12 1_555 1_555
H11 C14 1_555 1_555
C15 C14 1_555 1_555
H12 C15 1_555 1_555
C16 O3 1_555 1_555
C17 H13 1_555 1_555
C18 C17 1_555 1_555
H14 C18 1_555 1_555
C19 C18 1_555 1_555
H15 C19 1_555 1_555
C20 C19 1_555 1_555
C21 N3 1_555 1_555
H16 C21 1_555 1_555
C22 C20 1_555 1_555
H17 C22 1_555 1_555
C23 C22 1_555 1_555
H18 C23 1_555 1_555
C24 O5 1_555 1_555
H19 O7 1_555 1_555
H20 O7 1_555 1_555
Eu1A O2 1_555 1_555
Eu1A_2 O6 1_555 1_555
O2A Eu1 1_555 1_555
O6A Eu1 1_555 1_555
O4 C16 1_555 1_555
O6 C24 1_555 1_555
C4 C5 1_555 1_555
C7 C8 1_555 1_555
C12 C13 1_555 1_555
C15 C16 1_555 1_555
C20 C21 1_555 1_555
C23 C24 1_555 1_555
Eu1A O2A 1_555 1_555
Eu1A_2 O6A 1_555 1_555

#END
