
#######################################################################
#
#                 Cambridge Crystallographic Data Centre
#                                CCDC 
#
#######################################################################
#
# If this CIF has been generated from an entry in the Cambridge 
# Structural Database, then it will include bibliographic, chemical, 
# crystal, experimental, refinement or atomic coordinate data resulting 
# from the CCDC's data processing and validation procedures.
#
#######################################################################

data_FAQTIC
_symmetry_cell_setting           monoclinic
_symmetry_space_group_name_H-M   'C 2/c'
_symmetry_Int_Tables_number      15
_space_group_name_Hall           '-C 2yn'
loop_
_symmetry_equiv_pos_site_id
_symmetry_equiv_pos_as_xyz
1 x,y,z
2 -x,y,1/2-z
3 1/2+x,1/2+y,z
4 1/2-x,1/2+y,1/2-z
5 -x,-y,-z
6 x,-y,1/2+z
7 1/2-x,1/2-y,-z
8 1/2+x,1/2-y,1/2+z
_cell_length_a                   24.252(3)
_cell_length_b                   8.9154(11)
_cell_length_c                   14.8686(18)
_cell_angle_alpha                90
_cell_angle_beta                 109.9530(10)
_cell_angle_gamma                90
_cell_volume                     3021.86
loop_
_atom_site_label
_atom_site_type_symbol
_atom_site_fract_x
_atom_site_fract_y
_atom_site_fract_z
C1 C 0.2063(3) 0.5878(8) -0.0601(5)
H1 H 0.2382 0.5327 -0.0632
C2 C 0.1913(4) 0.7166(9) -0.1136(6)
H2 H 0.2121 0.7485 -0.1523
C3 C 0.1444(5) 0.7960(9) -0.1077(7)
H3 H 0.1330 0.8845 -0.1422
C4 C 0.1140(4) 0.7450(9) -0.0506(7)
H4 H 0.0818 0.7982 -0.0469
C5 C 0.1316(3) 0.6145(7) 0.0010(4)
C6 C 0.1000(3) 0.5498(8) 0.0608(4)
C7 C 0.0535(3) 0.6238(10) 0.0761(6)
H5 H 0.0420 0.7185 0.0503
C8 C 0.0246(4) 0.5544(14) 0.1302(7)
H6 H -0.0060 0.6030 0.1425
C9 C 0.0412(4) 0.4138(15) 0.1654(7)
H7 H 0.0210 0.3630 0.1992
C10 C 0.0883(4) 0.3496(12) 0.1496(6)
H8 H 0.1009 0.2560 0.1765
C11 C 0.1785(3) -0.0816(8) 0.2421(5)
C12 C 0.1448(3) -0.1868(8) 0.2766(5)
H9 H 0.1514 -0.2850 0.2540
H10 H 0.1038 -0.1630 0.2436
C13 C 0.1521(4) -0.2054(8) 0.3814(7)
Cd1 Cd 0.202534(17) 0.31208(5) 0.08104(3)
N1 N 0.1778(2) 0.5376(5) -0.0043(3)
N2 N 0.1172(2) 0.4139(7) 0.0977(4)
N3 N 0.1582(3) 0.0193(7) 0.1747(4)
N4 N 0.2028(2) 0.0993(6) 0.1698(4)
N5 N 0.2521(2) 0.0490(7) 0.2416(4)
N6 N 0.2383(2) -0.0596(6) 0.2852(4)
O1 O 0.2023(3) -0.2043(5) 0.4349(4)
O2 O 0.1082(3) -0.2194(8) 0.4010(5)
Cd1C Cd 0.297466(17) -0.18792(5) 0.41896(3)
Cd1E Cd 0.202534(17) -0.31208(5) 0.58104(3)
N6C N 0.2617(2) 0.4404(6) 0.2148(4)
O1E O 0.2023(3) 0.2043(5) -0.0651(4)
O1C O 0.2977(3) 0.2957(5) 0.0651(4)
O3 O 0.0111(7) 0.973(2) 0.342(3)
O4? O 0.0326(10) 0.961(3) 0.530(3)
loop_
_geom_bond_atom_site_label_1
_geom_bond_atom_site_label_2
_geom_bond_site_symmetry_1
_geom_bond_site_symmetry_2
C1 H1 1_555 1_555
C2 C1 1_555 1_555
H2 C2 1_555 1_555
C3 C2 1_555 1_555
H3 C3 1_555 1_555
C4 C3 1_555 1_555
H4 C4 1_555 1_555
C5 C4 1_555 1_555
C6 C5 1_555 1_555
C7 C6 1_555 1_555
H5 C7 1_555 1_555
C8 C7 1_555 1_555
H6 C8 1_555 1_555
C9 C8 1_555 1_555
H7 C9 1_555 1_555
C10 C9 1_555 1_555
H8 C10 1_555 1_555
C11 C12 1_555 1_555
C12 H9 1_555 1_555
H10 C12 1_555 1_555
C13 C12 1_555 1_555
Cd1 N1 1_555 1_555
N1 C1 1_555 1_555
N2 C6 1_555 1_555
N3 C11 1_555 1_555
N4 Cd1 1_555 1_555
N5 N4 1_555 1_555
N6 C11 1_555 1_555
O1 C13 1_555 1_555
O2 C13 1_555 1_555
Cd1C N6 1_555 1_555
Cd1E O1 1_555 1_555
N6C Cd1 1_555 1_555
O1E Cd1 1_555 1_555
O1C Cd1 1_555 1_555
C5 N1 1_555 1_555
C10 N2 1_555 1_555
Cd1 N2 1_555 1_555
N3 N4 1_555 1_555
N5 N6 1_555 1_555
O1 Cd1C 1_555 1_555

#END
