
#######################################################################
#
#                 Cambridge Crystallographic Data Centre
#                                CCDC 
#
#######################################################################
#
# If this CIF has been generated from an entry in the Cambridge 
# Structural Database, then it will include bibliographic, chemical, 
# crystal, experimental, refinement or atomic coordinate data resulting 
# from the CCDC's data processing and validation procedures.
#
#######################################################################

data_FAQTUO
_symmetry_cell_setting           monoclinic
_symmetry_space_group_name_H-M   'C 2/c'
_symmetry_Int_Tables_number      15
_space_group_name_Hall           '-C 2yn'
loop_
_symmetry_equiv_pos_site_id
_symmetry_equiv_pos_as_xyz
1 x,y,z
2 -x,y,1/2-z
3 1/2+x,1/2+y,z
4 1/2-x,1/2+y,1/2-z
5 -x,-y,-z
6 x,-y,1/2+z
7 1/2-x,1/2-y,-z
8 1/2+x,1/2-y,1/2+z
_cell_length_a                   22.854(5)
_cell_length_b                   8.9005(19)
_cell_length_c                   15.976(3)
_cell_angle_alpha                90
_cell_angle_beta                 108.176(2)
_cell_angle_gamma                90
_cell_volume                     3087.56
loop_
_atom_site_label
_atom_site_type_symbol
_atom_site_fract_x
_atom_site_fract_y
_atom_site_fract_z
C1 C 0.32145(10) 0.4607(3) 0.26962(14)
C2 C 0.36415(11) 0.3442(3) 0.25529(16)
H1 H 0.3551 0.2490 0.2782
H2 H 0.4061 0.3717 0.2884
C3 C 0.35979(11) 0.3244(3) 0.16063(16)
C4 C 0.10416(14) 0.3855(3) 0.1680(2)
H3 H 0.1205 0.3022 0.2025
C5 C 0.05293(15) 0.4529(4) 0.1786(2)
H4 H 0.0357 0.4170 0.2203
C6 C 0.02775(14) 0.5729(4) 0.1274(2)
H5 H -0.0073 0.6196 0.1327
C7 C 0.05514(13) 0.6236(3) 0.0679(2)
H6 H 0.0386 0.7052 0.0318
C8 C 0.10772(11) 0.5527(3) 0.06143(16)
C9 C 0.14136(12) 0.6042(3) 0.00097(16)
C10 C 0.11987(15) 0.7189(3) -0.0593(2)
H7 H 0.0833 0.7683 -0.0629
C11 C 0.15320(18) 0.7584(4) -0.1136(2)
H8 H 0.1397 0.8364 -0.1538
C12 C 0.20655(17) 0.6831(3) -0.1087(2)
H9 H 0.2292 0.7075 -0.1461
C13 C 0.22562(14) 0.5707(3) -0.04724(17)
H10 H 0.2619 0.5195 -0.0434
N1 N 0.26350(9) 0.4783(2) 0.21773(12)
N2 N 0.24114(9) 0.5960(2) 0.25119(12)
N3 N 0.28499(9) 0.6445(2) 0.32027(13)
N4 N 0.33625(9) 0.5611(2) 0.33400(13)
N5 N 0.30802(9) 0.3057(2) 0.09476(12)
N6 N 0.32663(9) 0.2869(2) 0.02233(13)
N7 N 0.38641(10) 0.2965(3) 0.04538(15)
N8 N 0.40884(10) 0.3201(3) 0.13260(15)
N9 N 0.13149(9) 0.4330(2) 0.11088(13)
N10 N 0.19405(9) 0.5317(2) 0.00748(12)
Zn1 Zn 0.217069(12) 0.34324(3) 0.100742(17)
C1F C 0.17855(10) 0.0393(3) -0.26962(14)
C2F C 0.13585(11) 0.1558(3) -0.25529(16)
H1F H 0.1449 0.2510 -0.2782
H2F H 0.0939 0.1283 -0.2884
C3F C 0.14021(11) 0.1756(3) -0.16063(16)
C4F C 0.39584(14) 0.1145(3) -0.1680(2)
H3F H 0.3795 0.1978 -0.2025
C5F C 0.44707(15) 0.0471(4) -0.1786(2)
H4F H 0.4643 0.0830 -0.2203
C6F C 0.47225(14) -0.0729(4) -0.1274(2)
H5F H 0.5073 -0.1196 -0.1327
C7F C 0.44486(13) -0.1236(3) -0.0679(2)
H6F H 0.4614 -0.2052 -0.0318
C8F C 0.39228(11) -0.0527(3) -0.06143(16)
C9F C 0.35864(12) -0.1042(3) -0.00097(16)
C10F C 0.38013(15) -0.2189(3) 0.0593(2)
H7F H 0.4167 -0.2683 0.0629
C11F C 0.34680(18) -0.2584(4) 0.1136(2)
H8F H 0.3603 -0.3364 0.1538
C12F C 0.29345(17) -0.1831(3) 0.1087(2)
H9F H 0.2708 -0.2075 0.1461
C13F C 0.27438(14) -0.0707(3) 0.04724(17)
H10F H 0.2381 -0.0195 0.0434
N1F N 0.23650(9) 0.0217(2) -0.21773(12)
N2F N 0.25886(9) -0.0960(2) -0.25119(12)
N3C N 0.21501(9) 0.1445(2) 0.17973(13)
N3F N 0.21501(9) -0.1445(2) -0.32027(13)
N3E N 0.28499(9) 0.3555(2) -0.17973(13)
N4F N 0.16375(9) -0.0611(2) -0.33400(13)
N5F N 0.19198(9) 0.1943(2) -0.09476(12)
N6F N 0.17337(9) 0.2131(2) -0.02233(13)
N7F N 0.11359(10) 0.2035(3) -0.04538(15)
N8F N 0.09116(10) 0.1799(3) -0.13260(15)
N9F N 0.36851(9) 0.0670(2) -0.11088(13)
N10F N 0.30595(9) -0.0317(2) -0.00748(12)
Zn1F Zn 0.282931(12) 0.15676(3) -0.100742(17)
Zn1C Zn 0.282931(12) 0.84324(3) 0.399258(17)
Zn1E Zn 0.217069(12) -0.34324(3) -0.399258(17)
O1 O 0.5000 0.5767(8) 0.2500
H11 H 0.4819 0.5057 0.2162
H11A H 0.5181 0.5057 0.2838
O2 O 0.97507(13) 0.9078(4) 0.9255(2)
H12 H 0.9396 0.9034 0.9317
H13 H 0.9862 0.9984 0.9344
loop_
_geom_bond_atom_site_label_1
_geom_bond_atom_site_label_2
_geom_bond_site_symmetry_1
_geom_bond_site_symmetry_2
C1 C2 1_555 1_555
C2 H1 1_555 1_555
H2 C2 1_555 1_555
C3 C2 1_555 1_555
C4 H3 1_555 1_555
C5 C4 1_555 1_555
H4 C5 1_555 1_555
C6 C5 1_555 1_555
H5 C6 1_555 1_555
C7 C6 1_555 1_555
H6 C7 1_555 1_555
C8 C7 1_555 1_555
C9 C8 1_555 1_555
C10 C9 1_555 1_555
H7 C10 1_555 1_555
C11 C10 1_555 1_555
H8 C11 1_555 1_555
C12 C11 1_555 1_555
H9 C12 1_555 1_555
C13 C12 1_555 1_555
H10 C13 1_555 1_555
N1 C1 1_555 1_555
N2 N1 1_555 1_555
N3 N2 1_555 1_555
N4 C1 1_555 1_555
N5 C3 1_555 1_555
N6 N5 1_555 1_555
N7 N6 1_555 1_555
N8 C3 1_555 1_555
N9 C4 1_555 1_555
N10 C9 1_555 1_555
O1 H11 1_555 1_555
Zn1 N1 1_555 1_555
O2 H12 1_555 1_555
H13 O2 1_555 1_555
C1F C2F 1_555 1_555
C2F H1F 1_555 1_555
H2F C2F 1_555 1_555
C3F C2F 1_555 1_555
C4F H3F 1_555 1_555
C5F C4F 1_555 1_555
H4F C5F 1_555 1_555
C6F C5F 1_555 1_555
H5F C6F 1_555 1_555
C7F C6F 1_555 1_555
H6F C7F 1_555 1_555
C8F C7F 1_555 1_555
C9F C8F 1_555 1_555
C10F C9F 1_555 1_555
H7F C10F 1_555 1_555
C11F C10F 1_555 1_555
H8F C11F 1_555 1_555
C12F C11F 1_555 1_555
H9F C12F 1_555 1_555
C13F C12F 1_555 1_555
H10F C13F 1_555 1_555
N1F C1F 1_555 1_555
N2F N1F 1_555 1_555
N3C Zn1 1_555 1_555
N3F N2F 1_555 1_555
N3E Zn1F 1_555 1_555
N4F C1F 1_555 1_555
N5F C3F 1_555 1_555
N6F Zn1 1_555 1_555
N7F N6F 1_555 1_555
N8F C3F 1_555 1_555
N9F C4F 1_555 1_555
N10F C9F 1_555 1_555
H11A O1 1_555 1_555
Zn1F N6 1_555 1_555
Zn1C N3 1_555 1_555
Zn1E N3F 1_555 1_555
C8 N9 1_555 1_555
C13 N10 1_555 1_555
N3 N4 1_555 1_555
N5 Zn1 1_555 1_555
N7 N8 1_555 1_555
N9 Zn1 1_555 1_555
N10 Zn1 1_555 1_555
C8F N9F 1_555 1_555
C13F N10F 1_555 1_555
N1F Zn1F 1_555 1_555
N3F N4F 1_555 1_555
N5F N6F 1_555 1_555
N5F Zn1F 1_555 1_555
N7F N8F 1_555 1_555
N9F Zn1F 1_555 1_555
N10F Zn1F 1_555 1_555

#END
