
#######################################################################
#
#                 Cambridge Crystallographic Data Centre
#                                CCDC 
#
#######################################################################
#
# If this CIF has been generated from an entry in the Cambridge 
# Structural Database, then it will include bibliographic, chemical, 
# crystal, experimental, refinement or atomic coordinate data resulting 
# from the CCDC's data processing and validation procedures.
#
#######################################################################

data_FAQTUN
_symmetry_cell_setting           triclinic
_symmetry_space_group_name_H-M   'P -1'
_symmetry_Int_Tables_number      2
_space_group_name_Hall           '-P 1'
loop_
_symmetry_equiv_pos_site_id
_symmetry_equiv_pos_as_xyz
1 x,y,z
2 -x,-y,-z
_cell_length_a                   6.2234(6)
_cell_length_b                   12.7172(11)
_cell_length_c                   15.6698(14)
_cell_angle_alpha                111.733(2)
_cell_angle_beta                 90.353(2)
_cell_angle_gamma                95.148(2)
_cell_volume                     1146.33
loop_
_atom_site_label
_atom_site_type_symbol
_atom_site_fract_x
_atom_site_fract_y
_atom_site_fract_z
Eu1 Eu 0.74390(3) 0.472114(16) 0.075574(13)
O1 O 0.6966(6) 0.4405(3) 0.2239(2)
O2 O 0.5773(6) 0.2743(3) 0.0198(2)
O3 O 0.9077(5) 0.6449(3) 0.1973(2)
O4 O 1.0424(5) 0.3843(3) 0.1028(2)
O5 O 0.4119(5) 0.3875(2) -0.0303(2)
O6 O 1.0958(5) 0.5909(2) 0.07306(19)
O7 O 0.4328(5) 0.5061(3) 0.1719(2)
N1 N -0.2800(10) -0.0738(5) -0.1757(4)
C1 C 1.7878(8) 0.9687(5) 0.3733(4)
H1 H 1.9304 0.9515 0.3675
N2 N 0.1106(12) 0.6505(5) 0.5957(4)
N3 N 1.5324(10) 1.1006(5) 0.4389(4)
C2 C -0.0467(8) -0.1945(3) -0.1448(3)
H2 H -0.0230 -0.2654 -0.1443
C3 C -0.0900(11) 0.6832(5) 0.5864(4)
H3 H -0.1705 0.7073 0.6388
C4 C 1.7409(10) 1.0695(6) 0.4252(5)
H4 H 1.8541 1.1242 0.4549
C5 C 0.2305(10) 0.6135(5) 0.5163(3)
H5 H 0.3684 0.5918 0.5190
C6 C -0.1151(10) 0.0150(4) -0.1461(4)
H6 H -0.1371 0.0849 -0.1492
C7 C -0.2317(10) -0.1784(4) -0.1750(4)
H7 H -0.3369 -0.2399 -0.1972
C8 C -0.0605(9) 0.6488(5) 0.4361(4)
H8 H -0.1184 0.6511 0.3820
C9 C 1.6274(9) 0.8907(5) 0.3288(4)
H9 H 1.6611 0.8184 0.2919
C10 C -0.1766(9) 0.6833(5) 0.5113(4)
H10 H -0.3137 0.7064 0.5096
C11 C 1.3652(9) 1.0196(4) 0.3925(4)
H11 H 1.2228 1.0370 0.3998
C12 C 0.1087(9) -0.1080(4) -0.1144(4)
H12 H 0.2409 -0.1206 -0.0938
C13 C 0.1411(8) 0.6097(4) 0.4339(3)
C14 C 1.4118(8) 0.9120(4) 0.3349(3)
C15 C 0.0800(9) 0.0005(4) -0.1123(3)
C16 C 0.4267(8) 0.5195(4) 0.3280(3)
H13 H 0.4958 0.5050 0.3746
C17 C 0.2530(8) 0.0929(4) -0.0733(3)
H14 H 0.3748 0.0761 -0.0481
C18 C 1.2395(8) 0.8260(4) 0.2844(3)
H15 H 1.1033 0.8325 0.3088
C19 C 0.2467(8) 0.5689(4) 0.3460(3)
H16 H 0.1784 0.5791 0.2971
C20 C 0.5248(8) 0.4860(4) 0.2372(3)
C21 C 1.2603(7) 0.7384(4) 0.2059(3)
H17 H 1.3958 0.7299 0.1810
C22 C 0.2521(8) 0.1975(4) -0.0707(3)
H18 H 0.1363 0.2142 -0.0997
C23 C 1.0792(7) 0.6551(3) 0.1574(3)
C24 C 0.4228(7) 0.2898(3) -0.0246(3)
Eu1A Eu 0.25610(3) 0.527886(16) -0.075574(13)
Eu1A_2 Eu 1.25610(3) 0.527886(16) -0.075574(13)
O5A O 0.5881(5) 0.6125(2) 0.0303(2)
O6A O 0.9042(5) 0.4091(2) -0.07306(19)
loop_
_geom_bond_atom_site_label_1
_geom_bond_atom_site_label_2
_geom_bond_site_symmetry_1
_geom_bond_site_symmetry_2
Eu1 O1 1_555 1_555
O1 C20 1_555 1_555
O2 Eu1 1_555 1_555
O3 Eu1 1_555 1_555
O4 Eu1 1_555 1_555
O5 Eu1 1_555 1_555
O6 Eu1 1_555 1_555
O7 Eu1 1_555 1_555
N1 C6 1_555 1_555
C1 H1 1_555 1_555
N2 C3 1_555 1_555
N3 C4 1_555 1_555
C2 H2 1_555 1_555
C3 H3 1_555 1_555
C4 C1 1_555 1_555
H4 C4 1_555 1_555
C5 N2 1_555 1_555
H5 C5 1_555 1_555
C6 H6 1_555 1_555
C7 N1 1_555 1_555
H7 C7 1_555 1_555
C8 H8 1_555 1_555
C9 C1 1_555 1_555
H9 C9 1_555 1_555
C10 C3 1_555 1_555
H10 C10 1_555 1_555
C11 N3 1_555 1_555
H11 C11 1_555 1_555
C12 C2 1_555 1_555
H12 C12 1_555 1_555
C13 C5 1_555 1_555
C14 C9 1_555 1_555
C15 C6 1_555 1_555
C16 H13 1_555 1_555
C17 C15 1_555 1_555
H14 C17 1_555 1_555
C18 C14 1_555 1_555
H15 C18 1_555 1_555
C19 C13 1_555 1_555
H16 C19 1_555 1_555
C20 O7 1_555 1_555
C21 C18 1_555 1_555
H17 C21 1_555 1_555
C22 C17 1_555 1_555
H18 C22 1_555 1_555
C23 O3 1_555 1_555
C24 O2 1_555 1_555
Eu1A O5 1_555 1_555
Eu1A_2 O6 1_555 1_555
O5A Eu1 1_555 1_555
O6A Eu1 1_555 1_555
O5 C24 1_555 1_555
O6 C23 1_555 1_555
C2 C7 1_555 1_555
C8 C10 1_555 1_555
C8 C13 1_555 1_555
C11 C14 1_555 1_555
C12 C15 1_555 1_555
C16 C19 1_555 1_555
C16 C20 1_555 1_555
C21 C23 1_555 1_555
C22 C24 1_555 1_555
Eu1A O5A 1_555 1_555
Eu1A_2 O6A 1_555 1_555

#END
