
#######################################################################
#
#                 Cambridge Crystallographic Data Centre
#                                CCDC 
#
#######################################################################
#
# If this CIF has been generated from an entry in the Cambridge 
# Structural Database, then it will include bibliographic, chemical, 
# crystal, experimental, refinement or atomic coordinate data resulting 
# from the CCDC's data processing and validation procedures.
#
#######################################################################

data_FAQTOI
_symmetry_cell_setting           monoclinic
_symmetry_space_group_name_H-M   'C 2/c'
_symmetry_Int_Tables_number      15
_space_group_name_Hall           '-C 2yn'
loop_
_symmetry_equiv_pos_site_id
_symmetry_equiv_pos_as_xyz
1 x,y,z
2 -x,y,1/2-z
3 1/2+x,1/2+y,z
4 1/2-x,1/2+y,1/2-z
5 -x,-y,-z
6 x,-y,1/2+z
7 1/2-x,1/2-y,-z
8 1/2+x,1/2-y,1/2+z
_cell_length_a                   23.742(5)
_cell_length_b                   8.9651(18)
_cell_length_c                   16.641(3)
_cell_angle_alpha                90
_cell_angle_beta                 108.13(3)
_cell_angle_gamma                90
_cell_volume                     3366.18
loop_
_atom_site_label
_atom_site_type_symbol
_atom_site_fract_x
_atom_site_fract_y
_atom_site_fract_z
C1 C 0.39593(10) -0.0760(3) -0.05235(15)
C2 C 0.44617(14) -0.1502(4) -0.0572(2)
H1 H 0.4600 -0.2337 -0.0237
C3 C 0.47576(15) -0.0996(5) -0.1120(3)
H2 H 0.5094 -0.1493 -0.1153
C4 C 0.45511(16) 0.0252(5) -0.1621(2)
H3 H 0.4749 0.0591 -0.1988
C5 C 0.40487(17) 0.0994(4) -0.1573(2)
H4 H 0.3910 0.1830 -0.1907
N1 N 0.37528(13) 0.0489(3) -0.10238(17)
C6 C 0.36315(11) -0.1142(3) 0.00471(13)
C7 C 0.38664(17) -0.2271(4) 0.0673(2)
H5 H 0.4223 -0.2757 0.0731
C8 C 0.3505(2) -0.2592(5) 0.1207(2)
H6 H 0.3629 -0.3335 0.1613
C9 C 0.2987(2) -0.1851(5) 0.1142(2)
H7 H 0.2765 -0.2060 0.1501
C10 C 0.28115(16) -0.0780(4) 0.0518(2)
H8 H 0.2463 -0.0258 0.0466
N2 N 0.31156(12) -0.0448(3) -0.00202(17)
C11 C 0.1408(3) 0.1784(7) -0.1609(4)
C12 C 0.1379(4) 0.1679(8) -0.2509(4)
H9 H 0.0972 0.1484 -0.2849
H10 H 0.1494 0.2631 -0.2687
C13 C 0.1773(3) 0.0471(7) -0.2677(3)
Cd1 Cd 0.286755(17) 0.15769(4) -0.09837(2)
N3 N 0.1899(2) 0.1954(6) -0.0955(3)
N4 N 0.1708(2) 0.2008(7) -0.0273(3)
N5 N 0.1137(3) 0.1924(9) -0.0510(4)
N6 N 0.0929(3) 0.1745(9) -0.1355(4)
N7 N 0.2339(2) 0.0254(6) -0.2209(3)
N8 N 0.2522(2) -0.0908(6) -0.2558(3)
N9 N 0.2085(3) -0.1357(6) -0.3203(3)
N10 N 0.1597(3) -0.0522(7) -0.3297(3)
C1F C 0.10407(10) 0.5760(3) 0.05235(15)
C2F C 0.05383(14) 0.6502(4) 0.0572(2)
H1F H 0.0400 0.7337 0.0237
C3F C 0.02424(15) 0.5996(5) 0.1120(3)
H2F H -0.0094 0.6493 0.1153
C4F C 0.04489(16) 0.4748(5) 0.1621(2)
H3F H 0.0251 0.4409 0.1988
C5F C 0.09513(17) 0.4006(4) 0.1573(2)
H4F H 0.1090 0.3170 0.1907
N1F N 0.12472(13) 0.4511(3) 0.10238(17)
C6F C 0.13685(11) 0.6142(3) -0.00471(13)
C7F C 0.11336(17) 0.7271(4) -0.0673(2)
H5F H 0.0777 0.7757 -0.0731
C8F C 0.1495(2) 0.7592(5) -0.1207(2)
H6F H 0.1371 0.8335 -0.1613
C9F C 0.2013(2) 0.6851(5) -0.1142(2)
H7F H 0.2235 0.7060 -0.1501
C10F C 0.21885(16) 0.5780(4) -0.0518(2)
H8F H 0.2537 0.5258 -0.0466
N2F N 0.18844(12) 0.5448(3) 0.00202(17)
C11F C 0.3592(3) 0.3216(7) 0.1609(4)
C12F C 0.3621(4) 0.3321(8) 0.2509(4)
H9F H 0.4028 0.3516 0.2849
H10F H 0.3506 0.2369 0.2687
C13F C 0.3227(3) 0.4529(7) 0.2677(3)
Cd1F Cd 0.213245(17) 0.34231(4) 0.09837(2)
Cd1C Cd 0.213245(17) -0.34231(4) -0.40163(2)
Cd1E Cd 0.286755(17) 0.84231(4) 0.40163(2)
N3F N 0.3101(2) 0.3046(6) 0.0955(3)
N4F N 0.3292(2) 0.2992(7) 0.0273(3)
N5F N 0.3863(3) 0.3076(9) 0.0510(4)
N6F N 0.4071(3) 0.3255(9) 0.1355(4)
N7F N 0.2661(2) 0.4746(6) 0.2209(3)
N8F N 0.2478(2) 0.5908(6) 0.2558(3)
N9F N 0.2915(3) 0.6357(6) 0.3203(3)
N9C N 0.2915(3) 0.3643(6) -0.1797(3)
N9E N 0.2085(3) 0.1357(6) 0.1797(3)
N10F N 0.3403(3) 0.5522(7) 0.3297(3)
O1 O 0.0308(4) 0.0771(12) 0.0745(9)
H11 H 0.0496 0.0482 0.0364
H12 H 0.0594 0.1241 0.1171
O2 O 0.0000 0.131(10) 0.2500
H14 H 0.0079 0.1854 0.2163
H14A H -0.0079 0.1854 0.2837
H13? H 0.0000 0.0357 0.2500
loop_
_geom_bond_atom_site_label_1
_geom_bond_atom_site_label_2
_geom_bond_site_symmetry_1
_geom_bond_site_symmetry_2
C1 C2 1_555 1_555
C2 H1 1_555 1_555
C3 C2 1_555 1_555
H2 C3 1_555 1_555
C4 C3 1_555 1_555
H3 C4 1_555 1_555
C5 C4 1_555 1_555
H4 C5 1_555 1_555
N1 C1 1_555 1_555
C6 C1 1_555 1_555
C7 C6 1_555 1_555
H5 C7 1_555 1_555
C8 C7 1_555 1_555
H6 C8 1_555 1_555
C9 C8 1_555 1_555
H7 C9 1_555 1_555
C10 C9 1_555 1_555
H8 C10 1_555 1_555
N2 C6 1_555 1_555
C11 C12 1_555 1_555
C12 H9 1_555 1_555
H10 C12 1_555 1_555
C13 C12 1_555 1_555
Cd1 N1 1_555 1_555
N3 C11 1_555 1_555
N4 N3 1_555 1_555
N5 N4 1_555 1_555
N6 C11 1_555 1_555
N7 C13 1_555 1_555
N8 N7 1_555 1_555
N9 N8 1_555 1_555
N10 C13 1_555 1_555
O1 H11 1_555 1_555
H12 O1 1_555 1_555
O2 H14 1_555 1_555
C1F C2F 1_555 1_555
C2F H1F 1_555 1_555
C3F C2F 1_555 1_555
H2F C3F 1_555 1_555
C4F C3F 1_555 1_555
H3F C4F 1_555 1_555
C5F C4F 1_555 1_555
H4F C5F 1_555 1_555
N1F C1F 1_555 1_555
C6F C1F 1_555 1_555
C7F C6F 1_555 1_555
H5F C7F 1_555 1_555
C8F C7F 1_555 1_555
H6F C8F 1_555 1_555
C9F C8F 1_555 1_555
H7F C9F 1_555 1_555
C10F C9F 1_555 1_555
H8F C10F 1_555 1_555
N2F C6F 1_555 1_555
C11F C12F 1_555 1_555
C12F H9F 1_555 1_555
H10F C12F 1_555 1_555
C13F C12F 1_555 1_555
Cd1F N4 1_555 1_555
Cd1C N9 1_555 1_555
Cd1E N9F 1_555 1_555
N3F C11F 1_555 1_555
N4F Cd1 1_555 1_555
N5F N4F 1_555 1_555
N6F C11F 1_555 1_555
N7F C13F 1_555 1_555
N8F N7F 1_555 1_555
N9F N8F 1_555 1_555
N9C Cd1 1_555 1_555
N9E Cd1F 1_555 1_555
N10F C13F 1_555 1_555
H14A O2 1_555 1_555
C5 N1 1_555 1_555
C10 N2 1_555 1_555
N2 Cd1 1_555 1_555
Cd1 N3 1_555 1_555
Cd1 N7 1_555 1_555
N5 N6 1_555 1_555
N9 N10 1_555 1_555
C5F N1F 1_555 1_555
N1F Cd1F 1_555 1_555
C10F N2F 1_555 1_555
N2F Cd1F 1_555 1_555
Cd1F N3F 1_555 1_555
Cd1F N7F 1_555 1_555
N3F N4F 1_555 1_555
N5F N6F 1_555 1_555
N9F N10F 1_555 1_555

#END
