
#######################################################################
#
#                 Cambridge Crystallographic Data Centre
#                                CCDC 
#
#######################################################################
#
# If this CIF has been generated from an entry in the Cambridge 
# Structural Database, then it will include bibliographic, chemical, 
# crystal, experimental, refinement or atomic coordinate data resulting 
# from the CCDC's data processing and validation procedures.
#
#######################################################################

data_FAQVUP
_symmetry_cell_setting           triclinic
_symmetry_space_group_name_H-M   'P -1'
_symmetry_Int_Tables_number      2
_space_group_name_Hall           '-P 1'
loop_
_symmetry_equiv_pos_site_id
_symmetry_equiv_pos_as_xyz
1 x,y,z
2 -x,-y,-z
_cell_length_a                   8.887(6)
_cell_length_b                   9.225(6)
_cell_length_c                   9.828(7)
_cell_angle_alpha                85.249(11)
_cell_angle_beta                 74.863(11)
_cell_angle_gamma                86.510(13)
_cell_volume                     774.452
loop_
_atom_site_label
_atom_site_type_symbol
_atom_site_fract_x
_atom_site_fract_y
_atom_site_fract_z
Zn1 Zn 0.5000 0.5000 0.5000
Zn2 Zn -0.5000 0.5000 1.0000
N1 N -0.0473(8) 0.2664(6) 0.7108(6)
N2 N 0.1053(7) 0.7431(6) 0.7309(6)
N3 N -0.4179(8) 0.0687(6) 1.1624(6)
O1 O 0.3902(5) 0.3166(5) 0.4961(5)
O2 O 0.2104(6) 0.1552(5) 0.5130(6)
O3 O -0.4069(5) 0.4019(5) 0.6650(4)
O4 O -0.3128(5) 0.5056(5) 0.8207(5)
O5 O -0.1481(7) 0.1850(6) 0.7133(6)
O6 O 0.0364(7) 0.2602(6) 0.7917(5)
O7 O 0.3080(6) 0.5812(5) 0.6608(5)
O8 O -0.4127(6) 0.2917(5) 1.0487(5)
O9 O -0.3537(6) 0.6018(5) 1.1016(5)
C1 C 0.1251(8) 0.3991(7) 0.5075(7)
C2 C -0.1479(8) 0.4824(7) 0.5951(6)
C3 C -0.0198(8) 0.3877(7) 0.5989(6)
C4 C 0.2549(8) 0.2800(7) 0.5067(6)
C5 C -0.3019(8) 0.4619(7) 0.7024(7)
C6 C 0.2347(9) 0.6992(8) 0.6444(7)
H1 H 0.2759 0.7599 0.5646
C7 C 0.0276(10) 0.8822(8) 0.7029(9)
H2 H -0.0650 0.8965 0.7776
H3 H 0.0001 0.8819 0.6147
H4 H 0.0967 0.9596 0.6979
C8 C 0.0343(10) 0.6556(9) 0.8577(8)
H5 H -0.0592 0.7050 0.9084
H6 H 0.1059 0.6404 0.9162
H7 H 0.0091 0.5634 0.8327
C9 C -0.4661(9) 0.2047(8) 1.1485(8)
H8 H -0.5479 0.2382 1.2205
C10 C -0.2915(10) 0.0087(9) 1.0547(9)
H9 H -0.2717 -0.0917 1.0812
H10 H -0.1994 0.0620 1.0450
H11 H -0.3196 0.0161 0.9664
C11 C -0.4854(12) -0.0268(9) 1.2846(9)
H12 H -0.4343 -0.1215 1.2744
H13 H -0.5946 -0.0345 1.2926
H14 H -0.4719 0.0121 1.3681
Zn1_2 Zn -0.5000 0.5000 0.5000
Zn2_2 Zn 0.5000 0.5000 0.0000
N1A N 0.0473(8) 0.7336(6) 0.2892(6)
N2A N 0.8947(7) 0.2569(6) 0.2691(6)
N3A N -0.5821(8) 0.9313(6) 0.8376(6)
O1A O -0.3902(5) 0.6834(5) 0.5039(5)
O1A_2 O 0.6098(5) 0.6834(5) 0.5039(5)
O2A O -0.2104(6) 0.8448(5) 0.4870(6)
O3A O 0.4069(5) 0.5981(5) 0.3350(4)
O3_2 O 0.5931(5) 0.4019(5) 0.6650(4)
O4A O 0.3128(5) 0.4944(5) 0.1793(5)
O4A_2 O -0.6872(5) 0.4944(5) 1.1793(5)
O5A O 0.1481(7) 0.8150(6) 0.2867(6)
O6A O -0.0364(7) 0.7398(6) 0.2083(5)
O7A O 0.6920(6) 0.4188(5) 0.3392(5)
O8A O -0.5873(6) 0.7083(5) 0.9513(5)
O9A O -0.6463(6) 0.3982(5) 0.8984(5)
C1A C -0.1251(8) 0.6009(7) 0.4925(7)
C2A C 0.1479(8) 0.5176(7) 0.4049(6)
C3A C 0.0198(8) 0.6123(7) 0.4011(6)
C4A C -0.2549(8) 0.7200(7) 0.4933(6)
C5A C 0.3019(8) 0.5381(7) 0.2976(7)
C6A C 0.7653(9) 0.3008(8) 0.3556(7)
H1A H 0.7241 0.2401 0.4354
C7A C 0.9724(10) 0.1178(8) 0.2971(9)
H2A H 1.0650 0.1035 0.2224
H3A H 0.9999 0.1181 0.3853
H4A H 0.9033 0.0404 0.3021
C8A C 0.9657(10) 0.3444(9) 0.1423(8)
H5A H 1.0592 0.2950 0.0916
H6A H 0.8941 0.3596 0.0838
H7A H 0.9909 0.4366 0.1673
C9A C -0.5339(9) 0.7953(8) 0.8515(8)
H8A H -0.4521 0.7618 0.7795
C10A C -0.7085(10) 0.9913(9) 0.9453(9)
H9A H -0.7283 1.0917 0.9188
H10A H -0.8006 0.9380 0.9550
H11A H -0.6804 0.9839 1.0336
C11A C -0.5146(12) 1.0268(9) 0.7154(9)
H12A H -0.5657 1.1215 0.7256
H13A H -0.4054 1.0345 0.7074
H14A H -0.5281 0.9879 0.6319
loop_
_geom_bond_atom_site_label_1
_geom_bond_atom_site_label_2
_geom_bond_site_symmetry_1
_geom_bond_site_symmetry_2
Zn1 O1 1_555 1_555
Zn2 O4 1_555 1_555
N1 O5 1_555 1_555
N2 C6 1_555 1_555
N3 C9 1_555 1_555
O1 C4 1_555 1_555
O2 C4 1_555 1_555
O3 C5 1_555 1_555
O4 C5 1_555 1_555
O6 N1 1_555 1_555
O7 Zn1 1_555 1_555
O8 Zn2 1_555 1_555
O9 Zn2 1_555 1_555
C1 C3 1_555 1_555
C2 C3 1_555 1_555
C3 N1 1_555 1_555
C4 C1 1_555 1_555
C5 C2 1_555 1_555
C6 O7 1_555 1_555
H1 C6 1_555 1_555
C7 N2 1_555 1_555
H2 C7 1_555 1_555
H3 C7 1_555 1_555
H4 C7 1_555 1_555
C8 N2 1_555 1_555
H5 C8 1_555 1_555
H6 C8 1_555 1_555
H7 C8 1_555 1_555
C9 O8 1_555 1_555
H8 C9 1_555 1_555
C10 N3 1_555 1_555
H9 C10 1_555 1_555
H10 C10 1_555 1_555
H11 C10 1_555 1_555
C11 N3 1_555 1_555
H12 C11 1_555 1_555
H13 C11 1_555 1_555
H14 C11 1_555 1_555
Zn1_2 O3 1_555 1_555
Zn2_2 O4A 1_555 1_555
N1A O5A 1_555 1_555
N2A C6A 1_555 1_555
N3A C9A 1_555 1_555
O1A Zn1_2 1_555 1_555
O1A_2 Zn1 1_555 1_555
O2A C4A 1_555 1_555
O3A Zn1 1_555 1_555
O3_2 Zn1 1_555 1_555
O4A C5A 1_555 1_555
O4A_2 Zn2 1_555 1_555
O6A N1A 1_555 1_555
O7A Zn1 1_555 1_555
O8A Zn2 1_555 1_555
O9A Zn2 1_555 1_555
C1A C2 1_555 1_555
C2A C1 1_555 1_555
C3A N1A 1_555 1_555
C4A O1A 1_555 1_555
C5A O3A 1_555 1_555
C6A O7A 1_555 1_555
H1A C6A 1_555 1_555
C7A N2A 1_555 1_555
H2A C7A 1_555 1_555
H3A C7A 1_555 1_555
H4A C7A 1_555 1_555
C8A N2A 1_555 1_555
H5A C8A 1_555 1_555
H6A C8A 1_555 1_555
H7A C8A 1_555 1_555
C9A O8A 1_555 1_555
H8A C9A 1_555 1_555
C10A N3A 1_555 1_555
H9A C10A 1_555 1_555
H10A C10A 1_555 1_555
H11A C10A 1_555 1_555
C11A N3A 1_555 1_555
H12A C11A 1_555 1_555
H13A C11A 1_555 1_555
H14A C11A 1_555 1_555
C1A C3A 1_555 1_555
C1A C4A 1_555 1_555
C2A C3A 1_555 1_555
C2A C5A 1_555 1_555

#END
