
#######################################################################
#
#                 Cambridge Crystallographic Data Centre
#                                CCDC 
#
#######################################################################
#
# If this CIF has been generated from an entry in the Cambridge 
# Structural Database, then it will include bibliographic, chemical, 
# crystal, experimental, refinement or atomic coordinate data resulting 
# from the CCDC's data processing and validation procedures.
#
#######################################################################

data_FAQVIE
_symmetry_cell_setting           monoclinic
_symmetry_space_group_name_H-M   'P 21/n'
_symmetry_Int_Tables_number      14
_space_group_name_Hall           '-P 2yn'
loop_
_symmetry_equiv_pos_site_id
_symmetry_equiv_pos_as_xyz
1 x,y,z
2 1/2-x,1/2+y,1/2-z
3 -x,-y,-z
4 1/2+x,1/2-y,1/2+z
_cell_length_a                   14.078(3)
_cell_length_b                   9.3366(17)
_cell_length_c                   22.029(4)
_cell_angle_alpha                90
_cell_angle_beta                 100.811(3)
_cell_angle_gamma                90
_cell_volume                     2844.11
loop_
_atom_site_label
_atom_site_type_symbol
_atom_site_fract_x
_atom_site_fract_y
_atom_site_fract_z
C1 C 0.5808(3) 0.9484(4) 0.61636(19)
H1 H 0.5202 0.9694 0.5932
C2 C 0.6352(4) 1.0587(5) 0.6455(2)
H2 H 0.6117 1.1520 0.6428
C3 C 0.7239(4) 1.0281(5) 0.6784(2)
H3 H 0.7620 1.1007 0.6991
C4 C 0.7579(3) 0.8897(5) 0.68110(19)
H4 H 0.8193 0.8682 0.7031
C5 C 0.6999(3) 0.7838(4) 0.65088(15)
C6 C 0.7322(3) 0.6327(4) 0.64807(16)
C7 C 0.8184(3) 0.5807(5) 0.68174(18)
H5 H 0.8570 0.6389 0.7106
C8 C 0.8463(3) 0.4443(5) 0.6723(2)
H6 H 0.9040 0.4085 0.6948
C9 C 0.7891(3) 0.3602(5) 0.6296(2)
H7 H 0.8076 0.2672 0.6221
C10 C 0.7028(3) 0.4164(4) 0.59772(19)
H8 H 0.6637 0.3594 0.5686
C11 C 0.4107(3) 0.3351(4) 0.59794(15)
C12 C 0.3778(3) 0.3895(4) 0.65380(16)
H9 H 0.3559 0.3088 0.6753
H10 H 0.3227 0.4519 0.6407
C13 C 0.4517(3) 0.4693(4) 0.69817(15)
C14 C 0.1590(3) 0.3108(4) 0.86372(15)
C15 C 0.1007(3) 0.3542(4) 0.80212(16)
H11 H 0.0361 0.3792 0.8077
H12 H 0.0951 0.2720 0.7747
C16 C 0.1409(3) 0.4772(4) 0.77113(15)
C17 C 0.3591(3) 0.7260(4) 0.86275(16)
H13 H 0.3005 0.7257 0.8350
C18 C 0.3934(3) 0.8543(4) 0.88958(18)
H14 H 0.3595 0.9391 0.8795
C19 C 0.4783(3) 0.8532(4) 0.93118(18)
H15 H 0.5024 0.9380 0.9502
C20 C 0.5276(3) 0.7295(4) 0.94490(16)
H16 H 0.5855 0.7288 0.9734
C21 C 0.4914(2) 0.6043(4) 0.91624(14)
C22 C 0.5411(2) 0.4654(4) 0.92762(14)
C23 C 0.6296(3) 0.4518(4) 0.96769(16)
H17 H 0.6598 0.5315 0.9881
C24 C 0.6718(3) 0.3182(5) 0.97663(17)
H18 H 0.7307 0.3067 1.0035
C25 C 0.6264(3) 0.2034(4) 0.94575(16)
H19 H 0.6534 0.1123 0.9514
C26 C 0.5405(3) 0.2250(4) 0.90639(15)
H20 H 0.5101 0.1463 0.8852
Mn1 Mn 0.36416(4) 0.39113(5) 0.82373(2)
Mn2 Mn 0.51582(4) 0.63058(5) 0.58280(2)
N1 N 0.6104(2) 0.8124(3) 0.61938(13)
N2 N 0.6739(2) 0.5494(3) 0.60728(13)
N3 N 0.4515(2) 0.4164(3) 0.55951(13)
N4 N 0.4665(2) 0.3253(3) 0.51470(13)
N5 N 0.4352(2) 0.1982(3) 0.52634(14)
N6 N 0.3996(2) 0.2011(3) 0.57823(14)
N7 N 0.5160(2) 0.5540(3) 0.68074(12)
N8 N 0.5677(2) 0.6091(3) 0.73366(14)
N9 N 0.5333(2) 0.5573(3) 0.78042(14)
N10 N 0.4583(2) 0.4659(3) 0.75872(12)
N11 N 0.1222(2) 0.2453(3) 0.90804(12)
N12 N 0.1995(2) 0.2163(4) 0.95342(13)
N13 N 0.2779(2) 0.2632(4) 0.93621(13)
N14 N 0.2539(2) 0.3243(3) 0.87927(12)
N15 N 0.2328(2) 0.4885(3) 0.76460(12)
N16 N 0.2358(2) 0.6082(3) 0.73030(13)
N17 N 0.1494(2) 0.6628(3) 0.71695(13)
N18 N 0.0862(2) 0.5813(3) 0.74218(13)
N19 N 0.4064(2) 0.6030(3) 0.87510(12)
N20 N 0.4974(2) 0.3523(3) 0.89653(12)
Mn1A Mn 0.13584(4) 0.89113(5) 0.67627(2)
Mn2B Mn 0.48418(4) 0.36942(5) 0.41720(2)
Mn2A Mn -0.01582(4) 0.13058(5) 0.91720(2)
N4B N 0.5335(2) 0.6747(3) 0.48530(13)
N11A N 0.3778(2) 0.7453(3) 0.59196(12)
N17A N 0.3506(2) 0.1628(3) 0.78305(13)
loop_
_geom_bond_atom_site_label_1
_geom_bond_atom_site_label_2
_geom_bond_site_symmetry_1
_geom_bond_site_symmetry_2
C1 H1 1_555 1_555
C2 C1 1_555 1_555
H2 C2 1_555 1_555
C3 C2 1_555 1_555
H3 C3 1_555 1_555
C4 C3 1_555 1_555
H4 C4 1_555 1_555
C5 C4 1_555 1_555
C6 C5 1_555 1_555
C7 C6 1_555 1_555
H5 C7 1_555 1_555
C8 C7 1_555 1_555
H6 C8 1_555 1_555
C9 C8 1_555 1_555
H7 C9 1_555 1_555
C10 C9 1_555 1_555
H8 C10 1_555 1_555
C11 C12 1_555 1_555
C12 H9 1_555 1_555
H10 C12 1_555 1_555
C13 C12 1_555 1_555
C14 C15 1_555 1_555
C15 H11 1_555 1_555
H12 C15 1_555 1_555
C16 C15 1_555 1_555
C17 H13 1_555 1_555
C18 C17 1_555 1_555
H14 C18 1_555 1_555
C19 C18 1_555 1_555
H15 C19 1_555 1_555
C20 C19 1_555 1_555
H16 C20 1_555 1_555
C21 C20 1_555 1_555
C22 C21 1_555 1_555
C23 C22 1_555 1_555
H17 C23 1_555 1_555
C24 C23 1_555 1_555
H18 C24 1_555 1_555
C25 C24 1_555 1_555
H19 C25 1_555 1_555
C26 C25 1_555 1_555
H20 C26 1_555 1_555
Mn1 N10 1_555 1_555
Mn2 N1 1_555 1_555
N1 C1 1_555 1_555
N2 C6 1_555 1_555
N3 C11 1_555 1_555
N4 N3 1_555 1_555
N5 N4 1_555 1_555
N6 C11 1_555 1_555
N7 C13 1_555 1_555
N8 N7 1_555 1_555
N9 N8 1_555 1_555
N10 C13 1_555 1_555
N11 C14 1_555 1_555
N12 N11 1_555 1_555
N13 N12 1_555 1_555
N14 C14 1_555 1_555
N15 C16 1_555 1_555
N16 N15 1_555 1_555
N17 N16 1_555 1_555
N18 C16 1_555 1_555
N19 C17 1_555 1_555
N20 C22 1_555 1_555
Mn1A N17 1_555 1_555
Mn2B N4 1_555 1_555
Mn2A N11 1_555 1_555
N4B Mn2 1_555 1_555
N11A Mn2 1_555 1_555
N17A Mn1 1_555 1_555
C5 N1 1_555 1_555
C10 N2 1_555 1_555
C21 N19 1_555 1_555
C26 N20 1_555 1_555
Mn1 N14 1_555 1_555
Mn1 N15 1_555 1_555
Mn1 N19 1_555 1_555
Mn1 N20 1_555 1_555
Mn2 N2 1_555 1_555
Mn2 N3 1_555 1_555
Mn2 N7 1_555 1_555
N5 N6 1_555 1_555
N9 N10 1_555 1_555
N13 N14 1_555 1_555
N17 N18 1_555 1_555

#END
