
#######################################################################
#
#                 Cambridge Crystallographic Data Centre
#                                CCDC 
#
#######################################################################
#
# If this CIF has been generated from an entry in the Cambridge 
# Structural Database, then it will include bibliographic, chemical, 
# crystal, experimental, refinement or atomic coordinate data resulting 
# from the CCDC's data processing and validation procedures.
#
#######################################################################

data_FAQVEA
_symmetry_cell_setting           monoclinic
_symmetry_space_group_name_H-M   'C 2/c'
_symmetry_Int_Tables_number      15
_space_group_name_Hall           '-C 2yn'
loop_
_symmetry_equiv_pos_site_id
_symmetry_equiv_pos_as_xyz
1 x,y,z
2 -x,y,1/2-z
3 1/2+x,1/2+y,z
4 1/2-x,1/2+y,1/2-z
5 -x,-y,-z
6 x,-y,1/2+z
7 1/2-x,1/2-y,-z
8 1/2+x,1/2-y,1/2+z
_cell_length_a                   16.896(3)
_cell_length_b                   16.987(3)
_cell_length_c                   9.7748(19)
_cell_angle_alpha                90
_cell_angle_beta                 119.087(2)
_cell_angle_gamma                90
_cell_volume                     2451.67
loop_
_atom_site_label
_atom_site_type_symbol
_atom_site_fract_x
_atom_site_fract_y
_atom_site_fract_z
Zn1 Zn 0.23336(3) 0.39258(2) 1.15347(4)
O1 O 0.14095(17) 0.31088(17) 1.0896(3)
C1 C 0.0634(3) 0.3405(2) 0.9999(4)
O2 O 0.0501(2) 0.41099(18) 0.9796(4)
C2 C 0.2089(2) 0.5113(2) 0.8983(4)
N1 N 0.2469(2) 0.44728(17) 0.9849(3)
C3 C -0.0134(2) 0.2831(2) 0.9186(4)
C4 C -0.0987(2) 0.3106(2) 0.8182(4)
H1 H -0.1090 0.3644 0.8006
C5 C -0.0005(3) 0.2031(2) 0.9401(5)
H2 H 0.0565 0.1826 1.0069
C6 C -0.1687(2) 0.2581(2) 0.7441(4)
H3 H -0.2264 0.2774 0.6774
C7 C -0.0738(3) 0.1540(2) 0.8609(5)
H4 H -0.0647 0.0999 0.8753
N2 N -0.15704(19) 0.18015(17) 0.7643(3)
N3 N 0.3082(2) 0.4212(2) 0.9454(4)
C8 C 0.1383(3) 0.5604(3) 0.9017(6)
H5 H 0.0890 0.5667 0.7971
H6 H 0.1630 0.6111 0.9446
H7 H 0.1167 0.5355 0.9654
N4 N 0.2461(2) 0.52475(18) 0.8070(3)
N5 N 0.3078(2) 0.4670(2) 0.8394(4)
Zn1G Zn -0.26664(3) 0.10742(2) 0.65347(4)
Zn1E Zn 0.23336(3) 0.60742(2) 0.65347(4)
N2G N 0.34296(19) 0.31985(17) 1.2643(3)
N4E N 0.2461(2) 0.47525(18) 1.3070(3)
O3 O 0.4074(3) 0.4145(3) 0.6742(6)
H8 H 0.4178 0.3649 0.6948
H9 H 0.4038 0.4326 0.7525
O4 O 0.1665(5) 0.7703(4) 0.8806(7)
H10 H 0.2195 0.7538 0.9394
H11 H 0.1345 0.7302 0.8379
loop_
_geom_bond_atom_site_label_1
_geom_bond_atom_site_label_2
_geom_bond_site_symmetry_1
_geom_bond_site_symmetry_2
Zn1 O1 1_555 1_555
O1 C1 1_555 1_555
C1 O2 1_555 1_555
C2 N1 1_555 1_555
N1 Zn1 1_555 1_555
C3 C1 1_555 1_555
C4 C3 1_555 1_555
H1 C4 1_555 1_555
C5 C3 1_555 1_555
H2 C5 1_555 1_555
C6 C4 1_555 1_555
H3 C6 1_555 1_555
C7 C5 1_555 1_555
H4 C7 1_555 1_555
N2 C6 1_555 1_555
N3 N1 1_555 1_555
C8 C2 1_555 1_555
H5 C8 1_555 1_555
H6 C8 1_555 1_555
H7 C8 1_555 1_555
N4 C2 1_555 1_555
N5 N3 1_555 1_555
O3 H8 1_555 1_555
H9 O3 1_555 1_555
O4 H10 1_555 1_555
H11 O4 1_555 1_555
Zn1G N2 1_555 1_555
Zn1E N4 1_555 1_555
N2G Zn1 1_555 1_555
N4E Zn1 1_555 1_555
C7 N2 1_555 1_555
N4 N5 1_555 1_555

#END
