
#######################################################################
#
#                 Cambridge Crystallographic Data Centre
#                                CCDC 
#
#######################################################################
#
# If this CIF has been generated from an entry in the Cambridge 
# Structural Database, then it will include bibliographic, chemical, 
# crystal, experimental, refinement or atomic coordinate data resulting 
# from the CCDC's data processing and validation procedures.
#
#######################################################################

data_FAQWIF
_symmetry_cell_setting           monoclinic
_symmetry_space_group_name_H-M   'P 21/c'
_symmetry_Int_Tables_number      14
_space_group_name_Hall           '-P 2ybc'
loop_
_symmetry_equiv_pos_site_id
_symmetry_equiv_pos_as_xyz
1 x,y,z
2 -x,1/2+y,1/2-z
3 -x,-y,-z
4 x,1/2-y,1/2+z
_cell_length_a                   7.5543(15)
_cell_length_b                   5.4219(10)
_cell_length_c                   14.260(3)
_cell_angle_alpha                90
_cell_angle_beta                 90.590(4)
_cell_angle_gamma                90
_cell_volume                     584.04
loop_
_atom_site_label
_atom_site_type_symbol
_atom_site_fract_x
_atom_site_fract_y
_atom_site_fract_z
Ag1 Ag 0.0000 0.0000 0.0000
Ag2 Ag 0.5000 0.5000 0.5000
S1 S 0.32094(11) -0.00085(13) 0.38899(6)
O1 O 0.3479(3) -0.2660(5) 0.38411(15)
O2 O 0.4851(3) 0.1369(4) 0.40375(16)
O3 O 0.1828(3) 0.0676(6) 0.45365(18)
N1 N 0.1340(4) 0.0715(6) 0.1312(2)
N2 N 0.2178(3) 0.2878(5) 0.14532(18)
H1 H 0.2235 0.4038 0.1044
C1 C 0.2914(4) 0.2996(6) 0.2312(2)
H2 H 0.3569 0.4301 0.2558
C2 C 0.2518(4) 0.0828(7) 0.2761(2)
C3 C 0.1532(4) -0.0538(7) 0.2104(3)
H3 H 0.1076 -0.2106 0.2210
Ag2_2 Ag 0.5000 -0.5000 0.5000
Ag2_3 Ag -0.5000 0.5000 -0.5000
Ag2_4 Ag -0.5000 -0.5000 -0.5000
S1B S -0.32094(11) 0.00085(13) -0.38899(6)
O1B O -0.3479(3) 0.2660(5) -0.38411(15)
O1_2 O 0.3479(3) 0.7340(5) 0.38411(15)
O1B_2 O 0.6521(3) 0.2660(5) 0.61589(15)
O2B O -0.4851(3) -0.1369(4) -0.40375(16)
O2B_2 O 0.5149(3) 0.8631(4) 0.59625(16)
O3B O -0.1828(3) -0.0676(6) -0.45365(18)
N1B N -0.1340(4) -0.0715(6) -0.1312(2)
N2B N -0.2178(3) -0.2878(5) -0.14532(18)
H1B H -0.2235 -0.4038 -0.1044
C1B C -0.2914(4) -0.2996(6) -0.2312(2)
H2B H -0.3569 -0.4301 -0.2558
C2B C -0.2518(4) -0.0828(7) -0.2761(2)
C3B C -0.1532(4) 0.0538(7) -0.2104(3)
H3B H -0.1076 0.2106 -0.2210
loop_
_geom_bond_atom_site_label_1
_geom_bond_atom_site_label_2
_geom_bond_site_symmetry_1
_geom_bond_site_symmetry_2
Ag1 N1 1_555 1_555
Ag2 O2 1_555 1_555
S1 O1 1_555 1_555
O1 Ag2_2 1_555 1_555
O2 S1 1_555 1_555
O3 S1 1_555 1_555
N1 N2 1_555 1_555
N2 H1 1_555 1_555
C1 N2 1_555 1_555
H2 C1 1_555 1_555
C2 S1 1_555 1_555
C3 N1 1_555 1_555
H3 C3 1_555 1_555
Ag2_3 O1B 1_555 1_555
Ag2_4 O2B 1_555 1_555
S1B O1B 1_555 1_555
O1_2 Ag2 1_555 1_555
O1B_2 Ag2 1_555 1_555
O2B S1B 1_555 1_555
O2B_2 Ag2 1_555 1_555
O3B S1B 1_555 1_555
N1B Ag1 1_555 1_555
N2B N1B 1_555 1_555
H1B N2B 1_555 1_555
C1B N2B 1_555 1_555
H2B C1B 1_555 1_555
C2B S1B 1_555 1_555
C3B N1B 1_555 1_555
H3B C3B 1_555 1_555
C1 C2 1_555 1_555
C2 C3 1_555 1_555
C1B C2B 1_555 1_555
C2B C3B 1_555 1_555

#END
