
#######################################################################
#
#                 Cambridge Crystallographic Data Centre
#                                CCDC 
#
#######################################################################
#
# If this CIF has been generated from an entry in the Cambridge 
# Structural Database, then it will include bibliographic, chemical, 
# crystal, experimental, refinement or atomic coordinate data resulting 
# from the CCDC's data processing and validation procedures.
#
#######################################################################

data_FARCAC
_symmetry_cell_setting           orthorhombic
_symmetry_space_group_name_H-M   'P 21 21 21'
_symmetry_Int_Tables_number      19
_space_group_name_Hall           'P 2ac 2ab'
loop_
_symmetry_equiv_pos_site_id
_symmetry_equiv_pos_as_xyz
1 x,y,z
2 1/2+x,1/2-y,-z
3 -x,1/2+y,1/2-z
4 1/2-x,-y,1/2+z
_cell_length_a                   6.140(1)
_cell_length_b                   9.430(1)
_cell_length_c                   15.015(1)
_cell_angle_alpha                90
_cell_angle_beta                 90
_cell_angle_gamma                90
_cell_volume                     869.372
loop_
_atom_site_label
_atom_site_type_symbol
_atom_site_fract_x
_atom_site_fract_y
_atom_site_fract_z
Mg1 Mg 0.3695(1) 0.2079(1) -0.1365(1)
O1 O 0.1451(4) 0.2569(2) -0.3838(1)
O2 O 0.3737(3) 0.2697(2) -0.2691(1)
O3 O 0.0378(3) 0.2440(2) -0.1317(1)
O4 O -0.3071(3) 0.1856(2) -0.1300(1)
N1 N 0.2777(4) 0.0118(3) -0.2069(2)
C1 C 0.2283(4) 0.2086(3) -0.3138(2)
C2 C 0.1379(5) 0.0663(3) -0.2797(2)
C3 C -0.0960(4) 0.0855(3) -0.2458(2)
C4 C -0.1227(4) 0.1777(3) -0.1644(2)
O5 O 0.4269(4) 0.4075(3) -0.0834(2)
O6 O 0.3458(3) 0.1097(2) -0.0120(1)
H1 H 0.3836(57) -0.0232(41) -0.2314(22)
H2 H 0.2078(54) -0.0521(34) -0.1748(22)
H3 H 0.1408(44) -0.0013(27) -0.3358(18)
H4 H -0.1810(44) 0.1265(29) -0.2901(18)
H5 H -0.1651(63) -0.0089(44) -0.2288(24)
H6 H 0.3402(61) 0.4739(40) -0.0624(25)
H7 H 0.5284(59) 0.4239(38) -0.0573(22)
H8 H 0.4350(55) 0.0438(36) -0.0104(20)
H9 H 0.3702(60) 0.1617(39) 0.0325(25)
O4_2 O 0.6929(3) 0.1856(2) -0.1300(1)
Mg1_2 Mg -0.6305(1) 0.2079(1) -0.1365(1)
O7 O 0.3663(4) 0.3986(2) -0.5133(2)
H10 H 0.2978(68) 0.3639(40) -0.4729(25)
H11 H 0.4393(55) 0.3385(36) -0.5395(22)
loop_
_geom_bond_atom_site_label_1
_geom_bond_atom_site_label_2
_geom_bond_site_symmetry_1
_geom_bond_site_symmetry_2
Mg1 O2 1_555 1_555
O1 C1 1_555 1_555
O2 C1 1_555 1_555
O3 Mg1 1_555 1_555
O4 C4 1_555 1_555
N1 Mg1 1_555 1_555
C1 C2 1_555 1_555
C2 N1 1_555 1_555
C3 C2 1_555 1_555
C4 O3 1_555 1_555
O5 Mg1 1_555 1_555
O6 Mg1 1_555 1_555
O7 H10 1_555 1_555
H1 N1 1_555 1_555
H2 N1 1_555 1_555
H3 C2 1_555 1_555
H4 C3 1_555 1_555
H5 C3 1_555 1_555
H6 O5 1_555 1_555
H7 O5 1_555 1_555
H8 O6 1_555 1_555
H9 O6 1_555 1_555
H11 O7 1_555 1_555
O4_2 Mg1 1_555 1_555
Mg1_2 O4 1_555 1_555
C3 C4 1_555 1_555

#END
