
#######################################################################
#
#                 Cambridge Crystallographic Data Centre
#                                CCDC 
#
#######################################################################
#
# If this CIF has been generated from an entry in the Cambridge 
# Structural Database, then it will include bibliographic, chemical, 
# crystal, experimental, refinement or atomic coordinate data resulting 
# from the CCDC's data processing and validation procedures.
#
#######################################################################

data_FARFUA
_symmetry_cell_setting           monoclinic
_symmetry_space_group_name_H-M   'C 2/c'
_symmetry_Int_Tables_number      15
_space_group_name_Hall           '-C 2yn'
loop_
_symmetry_equiv_pos_site_id
_symmetry_equiv_pos_as_xyz
1 x,y,z
2 1/2+x,1/2+y,z
3 -x,y,1/2-z
4 1/2-x,1/2+y,1/2-z
5 -x,-y,-z
6 1/2-x,1/2-y,-z
7 x,-y,1/2+z
8 1/2+x,1/2-y,1/2+z
_cell_length_a                   34.1126(11)
_cell_length_b                   15.1010(5)
_cell_length_c                   30.2397(10)
_cell_angle_alpha                90
_cell_angle_beta                 101.1170(10)
_cell_angle_gamma                90
_cell_volume                     15285.2
loop_
_atom_site_label
_atom_site_type_symbol
_atom_site_fract_x
_atom_site_fract_y
_atom_site_fract_z
C1 C -0.0277(3) -0.0326(5) -0.5539(3)
H1 H -0.0100 -0.0192 -0.5737
C2 C -0.0215(3) -0.1089(5) -0.5287(3)
H2 H -0.0003 -0.1483 -0.5311
C3 C -0.0478(3) -0.1264(5) -0.4992(3)
C4 C -0.0770(3) -0.0666(7) -0.4950(4)
H3 H -0.0939 -0.0758 -0.4739
C5 C -0.0812(3) 0.0078(6) -0.5224(4)
H4 H -0.1018 0.0488 -0.5200
C6 C -0.0441(3) -0.2098(6) -0.4716(3)
C7 C -0.0129(3) -0.3380(6) -0.4496(3)
C8 C -0.0647(3) -0.2925(7) -0.4188(3)
C9 C 0.0184(3) -0.4042(6) -0.4528(4)
C10 C 0.0298(4) -0.4627(11) -0.4164(6)
H5 H 0.0165 -0.4637 -0.3916
C11 C -0.0914(4) -0.3078(7) -0.3869(4)
C12 C -0.1287(4) -0.2647(7) -0.3936(5)
H6 H -0.1362 -0.2241 -0.4177
C13 C -0.1546(5) -0.2831(8) -0.3639(5)
H7 H -0.1802 -0.2561 -0.3687
C14 C -0.0826(5) -0.3634(11) -0.3515(5)
H8 H -0.0578 -0.3941 -0.3462
C15 C 0.3513(4) -0.5833(6) -0.1686(4)
H9 H 0.3450 -0.6426 -0.1621
C16 C 0.3264(3) -0.5402(6) -0.2026(4)
H10 H 0.3038 -0.5694 -0.2197
C17 C 0.3349(3) -0.4513(5) -0.2118(3)
C18 C 0.3675(4) -0.4132(6) -0.1849(4)
H11 H 0.3740 -0.3531 -0.1892
C19 C 0.3907(4) -0.4625(7) -0.1515(4)
H12 H 0.4127 -0.4341 -0.1328
C20 C 0.3100(3) -0.4010(5) -0.2481(3)
C21 C 0.2577(3) -0.3938(5) -0.3065(3)
C22 C 0.2937(3) -0.2708(5) -0.2840(3)
C23 C 0.2261(3) -0.4414(6) -0.3379(4)
C24 C 0.2193(3) -0.5299(6) -0.3320(4)
H13 H 0.2341 -0.5612 -0.3070
C25 C 0.1905(3) -0.5723(7) -0.3631(5)
H14 H 0.1861 -0.6336 -0.3590
C26 C 0.1751(4) -0.4446(7) -0.4040(4)
H15 H 0.1598 -0.4148 -0.4292
C27 C 0.2030(3) -0.3978(6) -0.3747(4)
H16 H 0.2067 -0.3363 -0.3792
C28 C 0.3004(3) -0.1743(5) -0.2862(3)
C29 C 0.2743(4) -0.1198(7) -0.3148(5)
H17 H 0.2520 -0.1446 -0.3346
C30 C 0.2806(4) -0.0294(7) -0.3144(5)
H18 H 0.2636 0.0068 -0.3357
C31 C 0.3354(4) -0.0443(7) -0.2571(4)
H19 H 0.3571 -0.0178 -0.2371
C32 C 0.3318(3) -0.1345(6) -0.2561(4)
H20 H 0.3500 -0.1691 -0.2355
C33 C 0.0686(3) -0.4654(7) -0.4886(4)
H21 H 0.0812 -0.4668 -0.5140
C34 C 0.0375(3) -0.4055(6) -0.4871(4)
H22 H 0.0299 -0.3648 -0.5112
C35 C 0.0616(5) -0.5190(12) -0.4185(7)
H23 H 0.0705 -0.5579 -0.3939
C36 C -0.1090(5) -0.3766(12) -0.3225(6)
H24 H -0.1017 -0.4148 -0.2973
I1 I -0.01905(3) 0.15182(6) -0.64123(3)
I2 I -0.11429(3) 0.23618(4) -0.56314(3)
I3 I -0.13546(6) -0.32341(9) -0.20509(5)
I4 I -0.24434(5) -0.27524(7) -0.31223(6)
I5 I 0.11432(4) -0.74607(5) -0.41354(5)
I6 I 0.15885(4) -0.58001(10) -0.51793(5)
N1 N -0.0579(2) 0.0244(5) -0.5518(3)
N2 N -0.0157(3) -0.2677(5) -0.4767(3)
N3 N -0.0361(3) -0.3527(6) -0.4201(3)
N4 N -0.0696(3) -0.2204(5) -0.4437(3)
N5 N 0.3843(3) -0.5466(5) -0.1438(3)
N6 N 0.3186(2) -0.3152(4) -0.2524(3)
N7 N 0.2631(2) -0.3066(5) -0.3124(3)
N8 N 0.2793(2) -0.4423(4) -0.2733(3)
N9 N 0.1686(3) -0.5318(5) -0.3984(4)
N10 N 0.3105(3) 0.0090(5) -0.2844(4)
N11 N -0.1440(5) -0.3372(7) -0.3293(4)
N12 N 0.0802(3) -0.5207(6) -0.4539(4)
Zn1 Zn 0.13030(5) -0.60063(8) -0.44800(6)
Zn2 Zn -0.07544(4) 0.12279(7) -0.59948(4)
Zn3 Zn -0.17973(7) -0.35605(9) -0.28192(7)
N5G N -0.1157(3) 0.0466(5) -0.6438(3)
N10A N -0.1895(3) -0.4910(5) -0.2844(4)
Zn2G Zn 0.42456(4) -0.62279(7) -0.09948(4)
Zn3A Zn 0.32027(7) 0.14395(9) -0.28192(7)
C37 C 0.3388(10) -0.5901(16) 0.1428(9)
C38 C 0.3121(10) -0.5150(17) 0.1261(10)
H25 H 0.2901 -0.5251 0.1021
C39 C 0.3173(11) -0.4397(18) 0.1422(12)
H26 H 0.3002 -0.3926 0.1298
C40 C 0.3532(12) -0.4222(16) 0.1841(12)
H27 H 0.3572 -0.3669 0.1992
C41 C 0.3756(11) -0.4871(17) 0.1952(11)
C42 C 0.3737(11) -0.5684(17) 0.1820(10)
C43 C 0.4010(11) -0.6503(17) 0.1987(11)
C44 C 0.4335(13) -0.625(3) 0.2369(13)
H28 H 0.4519 -0.6657 0.2537
C45 C 0.4327(13) -0.527(3) 0.2449(12)
H29 H 0.4557 -0.5089 0.2661
C46 C 0.4061(13) -0.447(3) 0.2291(12)
H30 H 0.4088 -0.3867 0.2388
C47 C 0.3300(11) -0.6793(15) 0.1226(10)
C48 C 0.2978(11) -0.7039(18) 0.0837(11)
H31 H 0.2804 -0.6579 0.0707
C49 C 0.2918(12) -0.777(2) 0.0670(12)
H32 H 0.2702 -0.7891 0.0428
C50 C 0.3230(12) -0.8535(19) 0.0888(13)
H33 H 0.3210 -0.9127 0.0780
C51 C 0.3503(12) -0.8297(17) 0.1209(11)
C52 C 0.3600(11) -0.7533(16) 0.1395(10)
C53 C 0.3927(11) -0.7274(18) 0.1811(11)
C54 C 0.4200(13) -0.802(2) 0.1963(14)
H34 H 0.4434 -0.7987 0.2191
C55 C 0.4052(13) -0.885(2) 0.1704(15)
H35 H 0.4192 -0.9360 0.1834
C56 C 0.3739(14) -0.909(2) 0.1288(15)
H36 H 0.3708 -0.9630 0.1123
C63 C 0.2550(15) -0.412(3) -0.0706(16)
C64 C 0.2608(12) -0.331(3) -0.0413(13)
C65 C 0.2784(14) -0.347(3) 0.0077(13)
C66 C 0.3154(17) -0.403(4) 0.013(2)
C67 C 0.3117(18) -0.487(4) -0.0144(19)
C68 C 0.2914(17) -0.471(4) -0.0627(19)
C79 C 0.4912(11) -0.261(3) -0.3648(13)
C80 C 0.4854(15) -0.352(3) -0.3603(17)
C81 C 0.4531(17) -0.393(3) -0.388(2)
C82 C 0.4281(16) -0.343(3) -0.4212(19)
C83 C 0.4319(13) -0.252(3) -0.4227(15)
C84 C 0.4656(16) -0.212(3) -0.3971(19)
N15 N 0.5256(15) -0.218(4) -0.3365(19)
O5 O 0.5461(16) -0.265(4) -0.3075(19)
O6 O 0.528(3) -0.136(4) -0.340(3)
C57? C 0.294(2) -0.360(3) -0.0568(17)
C58? C 0.3009(19) -0.377(4) -0.0068(17)
C59? C 0.283(2) -0.464(4) 0.005(2)
C60? C 0.298(2) -0.541(4) -0.0184(18)
C61? C 0.2963(16) -0.530(3) -0.0683(17)
C62? C 0.3067(13) -0.439(2) -0.0813(13)
C69? C 0.5000 0.179(4) -0.2500
C70? C 0.5260(9) 0.128(2) -0.2754(11)
C71? C 0.5215(8) 0.043(2) -0.2724(10)
C72? C 0.5000 -0.005(3) -0.2500
N13? N 0.5534(9) -0.010(2) -0.2855(13)
O1? O 0.5741(17) 0.021(4) -0.309(2)
O2? O 0.5566(19) -0.087(2) -0.273(3)
C73? C 0.4542(10) -0.2583(19) -0.3934(10)
C74? C 0.4797(10) -0.316(2) -0.3658(13)
C75? C 0.4712(12) -0.406(2) -0.3664(15)
C76? C 0.4372(11) -0.4385(19) -0.3946(13)
C77? C 0.4117(10) -0.381(2) -0.4222(12)
C78? C 0.4202(10) -0.291(2) -0.4216(12)
N14? N 0.4631(16) -0.163(2) -0.392(2)
O3? O 0.4939(16) -0.139(3) -0.367(2)
O4? O 0.438(2) -0.114(3) -0.416(3)
loop_
_geom_bond_atom_site_label_1
_geom_bond_atom_site_label_2
_geom_bond_site_symmetry_1
_geom_bond_site_symmetry_2
C1 H1 1_555 1_555
C2 C1 1_555 1_555
H2 C2 1_555 1_555
C3 C2 1_555 1_555
C4 C3 1_555 1_555
H3 C4 1_555 1_555
C5 C4 1_555 1_555
H4 C5 1_555 1_555
C6 C3 1_555 1_555
C7 C9 1_555 1_555
C8 C11 1_555 1_555
C9 C10 1_555 1_555
C10 H5 1_555 1_555
C11 C12 1_555 1_555
C12 H6 1_555 1_555
C13 C12 1_555 1_555
H7 C13 1_555 1_555
C14 C11 1_555 1_555
H8 C14 1_555 1_555
C15 H9 1_555 1_555
C16 C15 1_555 1_555
H10 C16 1_555 1_555
C17 C16 1_555 1_555
C18 C17 1_555 1_555
H11 C18 1_555 1_555
C19 C18 1_555 1_555
H12 C19 1_555 1_555
C20 C17 1_555 1_555
C21 C23 1_555 1_555
C22 C28 1_555 1_555
C23 C24 1_555 1_555
C24 H13 1_555 1_555
C25 C24 1_555 1_555
H14 C25 1_555 1_555
C26 H15 1_555 1_555
C27 C23 1_555 1_555
H16 C27 1_555 1_555
C28 C29 1_555 1_555
C29 H17 1_555 1_555
C30 C29 1_555 1_555
H18 C30 1_555 1_555
C31 H19 1_555 1_555
C32 C28 1_555 1_555
H20 C32 1_555 1_555
C33 H21 1_555 1_555
C34 C9 1_555 1_555
H22 C34 1_555 1_555
C35 C10 1_555 1_555
H23 C35 1_555 1_555
C36 C14 1_555 1_555
H24 C36 1_555 1_555
C37 C38 1_555 1_555
C38 H25 1_555 1_555
C39 C38 1_555 1_555
H26 C39 1_555 1_555
C40 C39 1_555 1_555
H27 C40 1_555 1_555
C41 C40 1_555 1_555
C42 C37 1_555 1_555
C43 C42 1_555 1_555
C44 C43 1_555 1_555
H28 C44 1_555 1_555
C45 C44 1_555 1_555
H29 C45 1_555 1_555
C46 C41 1_555 1_555
H30 C46 1_555 1_555
C47 C37 1_555 1_555
C48 C47 1_555 1_555
H31 C48 1_555 1_555
C49 C48 1_555 1_555
H32 C49 1_555 1_555
C50 C49 1_555 1_555
H33 C50 1_555 1_555
C51 C50 1_555 1_555
C52 C47 1_555 1_555
C53 C43 1_555 1_555
C54 C53 1_555 1_555
H34 C54 1_555 1_555
C55 C54 1_555 1_555
H35 C55 1_555 1_555
C56 C51 1_555 1_555
H36 C56 1_555 1_555
I1 Zn2 1_555 1_555
I2 Zn2 1_555 1_555
I3 Zn3 1_555 1_555
I4 Zn3 1_555 1_555
I5 Zn1 1_555 1_555
I6 Zn1 1_555 1_555
N1 C1 1_555 1_555
N2 C6 1_555 1_555
N3 C7 1_555 1_555
N4 C6 1_555 1_555
N5 C15 1_555 1_555
N6 C20 1_555 1_555
N7 C21 1_555 1_555
N8 C20 1_555 1_555
N9 C25 1_555 1_555
N10 C30 1_555 1_555
N11 C13 1_555 1_555
N12 C33 1_555 1_555
Zn1 N9 1_555 1_555
Zn2 N1 1_555 1_555
Zn3 N11 1_555 1_555
C63 C64 1_555 1_555
C64 C65 1_555 1_555
C65 C66 1_555 1_555
C66 C67 1_555 1_555
C67 C68 1_555 1_555
C68 C63 1_555 1_555
C79 C80 1_555 1_555
C80 C81 1_555 1_555
C81 C82 1_555 1_555
C82 C83 1_555 1_555
C83 C84 1_555 1_555
C84 C79 1_555 1_555
N15 C79 1_555 1_555
O5 N15 1_555 1_555
O6 N15 1_555 1_555
N5G Zn2 1_555 1_555
N10A Zn3 1_555 1_555
Zn2G N5 1_555 1_555
Zn3A N10 1_555 1_555
C5 N1 1_555 1_555
C7 N2 1_555 1_555
C8 N3 1_555 1_555
C8 N4 1_555 1_555
C19 N5 1_555 1_555
C21 N8 1_555 1_555
C22 N6 1_555 1_555
C22 N7 1_555 1_555
C26 C27 1_555 1_555
C26 N9 1_555 1_555
C31 C32 1_555 1_555
C31 N10 1_555 1_555
C33 C34 1_555 1_555
C35 N12 1_555 1_555
C36 N11 1_555 1_555
C41 C42 1_555 1_555
C45 C46 1_555 1_555
C51 C52 1_555 1_555
C52 C53 1_555 1_555
C55 C56 1_555 1_555
N12 Zn1 1_555 1_555

#END
