
#######################################################################
#
#                 Cambridge Crystallographic Data Centre
#                                CCDC 
#
#######################################################################
#
# If this CIF has been generated from an entry in the Cambridge 
# Structural Database, then it will include bibliographic, chemical, 
# crystal, experimental, refinement or atomic coordinate data resulting 
# from the CCDC's data processing and validation procedures.
#
#######################################################################

data_FARGIQ
_symmetry_cell_setting           hexagonal
_symmetry_space_group_name_H-M   'P 63/m m c'
_symmetry_Int_Tables_number      194
_space_group_name_Hall           "-P 6c 2'c"
loop_
_symmetry_equiv_pos_site_id
_symmetry_equiv_pos_as_xyz
1 x,y,z
2 x-y,x,1/2+z
3 -y,x-y,z
4 -x,-y,1/2+z
5 -x+y,-x,z
6 y,-x+y,1/2+z
7 -y,-x,1/2-z
8 x-y,-y,-z
9 x,x-y,1/2-z
10 y,x,-z
11 -x+y,y,1/2-z
12 -x,-x+y,-z
13 -x,-y,-z
14 -x+y,-x,1/2-z
15 y,-x+y,-z
16 x,y,1/2-z
17 x-y,x,-z
18 -y,x-y,1/2-z
19 y,x,1/2+z
20 -x+y,y,z
21 -x,-x+y,1/2+z
22 -y,-x,z
23 x-y,-y,1/2+z
24 x,x-y,z
_cell_length_a                   15.8708(6)
_cell_length_b                   15.8708(6)
_cell_length_c                   24.2726(16)
_cell_angle_alpha                90
_cell_angle_beta                 90
_cell_angle_gamma                120
_cell_volume                     5294.74
loop_
_atom_site_label
_atom_site_type_symbol
_atom_site_fract_x
_atom_site_fract_y
_atom_site_fract_z
K1 K -0.9115(2) -0.82300(23) -0.13826(13)
O5 O -1.0000 -1.0000 -0.2068(12)
N1 N -0.6667 -0.3333 0.4499(6)
C11 C -0.6667 -0.3333 0.5113(8)
H7 H -0.6996 -0.3992 0.5245
C12 C -0.6149(8) -0.3851(4) 0.4300(4)
H8 H -0.6143 -0.3853 0.3904
H9 H -0.5491 -0.3519 0.4433
H7B H -0.6008 -0.3004 0.5245
H7D H -0.6996 -0.3004 0.5245
C12B C -0.6149(4) -0.2298(9) 0.4300(4)
C12D C -0.7702(9) -0.3851(8) 0.4300(4)
H8B H -0.6147 -0.2290 0.3904
H8D H -0.7710 -0.3857 0.3904
H9U H -0.6481 -0.4509 0.4433
H9B H -0.6481 -0.1972 0.4433
H9W H -0.5491 -0.1972 0.4433
H9D H -0.8028 -0.4509 0.4433
H9S H -0.8028 -0.3519 0.4433
Pb1 Pb -0.859665(23) -0.140335(12) 0.024143(14)
O1 O -0.7081(4) -0.1121(3) -0.00769(19)
O2 O -0.7483(6) -0.0441(4) -0.0751(2)
O3 O -0.8144(7) -0.1856(5) 0.1038(3)
O4 O -0.8883(5) -0.1117(5) 0.1440(3)
C1 C -0.6927(7) -0.0690(5) -0.0540(3)
C2 C -0.8431(12) -0.1569(8) 0.1454(4)
C3 C -0.5341(4) -0.0682(3) -0.0580(4)
H1 H -0.5485 -0.0970 -0.0233
C4 C -0.6002(7) -0.0474(5) -0.0831(3)
C5 C -0.5770(8) -0.0033(6) -0.1350(3)
H2 H -0.6203 0.0111 -0.1526
C6 C -0.4906(7) 0.0188(5) -0.1602(4)
H3 H -0.4754 0.0492 -0.1944
C7 C -0.8438(12) -0.1563(11) 0.2500
H4 H -0.8776 -0.1224 0.2500
C8 C -0.8171(11) -0.1830(7) 0.2000(4)
C9 C -0.7674(13) -0.2327(9) 0.2010(5)
H5 H -0.7500 -0.2500 0.1681
C10 C -0.7430(18) -0.2569(16) 0.2500
H6 H -0.7092 -0.2908 0.2500
Pb1D Pb -0.280670(26) -0.140335(23) 0.024143(14)
Pb1B Pb -0.859665(12) -0.719330(26) 0.024143(14)
Pb1G Pb -0.719330(26) 0.140335(12) -0.024143(14)
Pb1I Pb -0.140335(12) 0.140335(23) -0.024143(14)
Pb1K Pb -1.140335(23) -0.280670(26) -0.024143(14)
Pb1I_2 Pb -1.140335(12) -0.859665(23) -0.024143(14)
Pb1F Pb -0.859665(12) -0.140335(23) 0.475857(14)
Pb1K_2 Pb -0.140335(23) -0.280670(26) -0.024143(14)
Pb1G_2 Pb -0.719330(26) -0.859665(12) -0.024143(14)
Pb1K_3 Pb -0.140335(23) 0.719330(26) -0.024143(14)
Pb1B_2 Pb -0.859665(12) 0.280670(26) 0.024143(14)
Pb1J Pb -0.280670(26) -0.140335(12) 0.475857(14)
Pb1H Pb -0.859665(23) -0.719330(26) 0.475857(14)
Pb1A Pb -0.719330(26) 0.140335(23) -0.475857(14)
Pb1D_2 Pb -0.280670(26) 0.859665(23) 0.024143(14)
Pb1C Pb -0.140335(23) 0.140335(12) -0.475857(14)
Pb1B_3 Pb 0.140335(12) 0.280670(26) 0.024143(14)
Pb1_2 Pb 0.140335(23) 0.859665(12) 0.024143(14)
Pb1E Pb -1.140335(12) -0.280670(26) -0.475857(14)
Pb1D_3 Pb -1.280670(26) -0.140335(23) 0.024143(14)
Pb1G_3 Pb -1.719330(26) -0.859665(12) -0.024143(14)
Pb1B_4 Pb -1.859665(12) -0.719330(26) 0.024143(14)
O1S O -0.4040(5) -0.1121(3) -0.00769(19)
O1U O -0.8879(3) -0.2919(4) -0.00769(19)
O1B O -0.8879(3) -0.5960(5) -0.00769(19)
O1G O -0.5960(5) 0.1121(3) 0.00769(19)
O1L O -0.2919(4) 0.1121(3) 0.00769(19)
O1N O -1.1121(3) -0.4040(5) 0.00769(19)
O1I O -1.1121(3) -0.7081(4) 0.00769(19)
O1D O -0.4040(5) -0.2919(4) -0.00769(19)
O1W O -0.7081(4) -0.5960(5) -0.00769(19)
O1K O -0.2919(4) -0.4040(5) 0.00769(19)
O1P O -0.5960(5) -0.7081(4) 0.00769(19)
O1P_2 O -0.5960(5) 0.2919(4) 0.00769(19)
O1K_2 O -0.2919(4) 0.5960(5) 0.00769(19)
O1W_2 O -0.7081(4) 0.4040(5) -0.00769(19)
O1D_2 O -0.4040(5) 0.7081(4) -0.00769(19)
O1I_2 O -0.1121(3) 0.2919(4) 0.00769(19)
O1N_2 O -0.1121(3) 0.5960(5) 0.00769(19)
O1B_2 O 0.1121(3) 0.4040(5) -0.00769(19)
O1U_2 O 0.1121(3) 0.7081(4) -0.00769(19)
O1K_3 O -1.2919(4) -0.4040(5) 0.00769(19)
O1P_3 O -1.5960(5) -0.7081(4) 0.00769(19)
O1D_3 O -1.4040(5) -0.2919(4) -0.00769(19)
O1W_3 O -1.7081(4) -0.5960(5) -0.00769(19)
O1L_2 O -1.2919(4) -0.8879(3) 0.00769(19)
O1F O -0.8879(3) -0.2919(4) 0.50769(19)
O1O O -0.7081(4) -0.1121(3) 0.50769(19)
O1N_3 O -0.1121(3) -0.4040(5) 0.00769(19)
O1G_2 O -0.5960(5) -0.8879(3) 0.00769(19)
O1B_3 O -0.8879(3) 0.4040(5) -0.00769(19)
O2S O -0.2958(7) -0.0441(4) -0.0751(2)
O2U O -0.9559(4) -0.2517(6) -0.0751(2)
O2B O -0.9559(4) -0.7042(7) -0.0751(2)
O2G O -0.7042(7) 0.0441(4) 0.0751(2)
O2L O -0.2517(6) 0.0441(4) 0.0751(2)
O2N O -1.0441(4) -0.2958(7) 0.0751(2)
O2I O -1.0441(4) -0.7483(6) 0.0751(2)
O2D O -0.2958(7) -0.2517(6) -0.0751(2)
O2W O -0.7483(6) -0.7042(7) -0.0751(2)
O2K O -0.2517(6) -0.2958(7) 0.0751(2)
O2P O -0.7042(7) -0.7483(6) 0.0751(2)
O2P_2 O -0.7042(7) 0.2517(6) 0.0751(2)
O2K_2 O -0.2517(6) 0.7042(7) 0.0751(2)
O2W_2 O -0.7483(6) 0.2958(7) -0.0751(2)
O2D_2 O -0.2958(7) 0.7483(6) -0.0751(2)
O2I_2 O -0.0441(4) 0.2517(6) 0.0751(2)
O2N_2 O -0.0441(4) 0.7042(7) 0.0751(2)
O2B_2 O 0.0441(4) 0.2958(7) -0.0751(2)
O2U_2 O 0.0441(4) 0.7483(6) -0.0751(2)
O2K_3 O -1.2517(6) -0.2958(7) 0.0751(2)
O2P_3 O -1.7042(7) -0.7483(6) 0.0751(2)
O2D_3 O -1.2958(7) -0.2517(6) -0.0751(2)
O2W_3 O -1.7483(6) -0.7042(7) -0.0751(2)
O2S_2 O -1.2958(7) -1.0441(4) -0.0751(2)
O2L_2 O -1.2517(6) -0.9559(4) 0.0751(2)
O2F O -0.9559(4) -0.2517(6) 0.5751(2)
O2E O -1.0441(4) -0.2958(7) 0.4249(2)
O2V O -0.7042(7) 0.0441(4) 0.4249(2)
O2O O -0.7483(6) -0.0441(4) 0.5751(2)
O2U_3 O 0.0441(4) -0.2517(6) -0.0751(2)
O2N_3 O -0.0441(4) -0.2958(7) 0.0751(2)
O2_2 O -0.7483(6) -1.0441(4) -0.0751(2)
O2G_2 O -0.7042(7) -0.9559(4) 0.0751(2)
O2I_3 O -1.0441(4) 0.2517(6) 0.0751(2)
O2B_3 O -0.9559(4) 0.2958(7) -0.0751(2)
O3F O -0.8144(5) -0.1856(7) 0.3962(3)
O3D O -0.3712(9) -0.1856(7) 0.1038(3)
O3J O -0.3712(9) -0.1856(5) 0.3962(3)
O3B O -0.8144(5) -0.6288(9) 0.1038(3)
O3H O -0.8144(7) -0.6288(9) 0.3962(3)
O3G O -0.6288(9) 0.1856(5) -0.1038(3)
O3A O -0.6288(9) 0.1856(7) -0.3962(3)
O3I O -0.1856(5) 0.1856(7) -0.1038(3)
O3C O -0.1856(7) 0.1856(5) -0.3962(3)
O3K O -1.1856(7) -0.3712(9) -0.1038(3)
O3E O -1.1856(5) -0.3712(9) -0.3962(3)
O3I_2 O -1.1856(5) -0.8144(7) -0.1038(3)
O3K_2 O -0.1856(7) -0.3712(9) -0.1038(3)
O3G_2 O -0.6288(9) -0.8144(5) -0.1038(3)
O3K_3 O -0.1856(7) 0.6288(9) -0.1038(3)
O3B_2 O -0.8144(5) 0.3712(9) 0.1038(3)
O4F O -0.8883(5) -0.1117(5) 0.3560(3)
O4D O -0.2234(7) -0.1117(5) 0.1440(3)
O4J O -0.2234(7) -0.1117(5) 0.3560(3)
O4B O -0.8883(5) -0.7766(7) 0.1440(3)
O4H O -0.8883(5) -0.7766(7) 0.3560(3)
O4G O -0.7766(7) 0.1117(5) -0.1440(3)
O4A O -0.7766(7) 0.1117(5) -0.3560(3)
O4I O -0.1117(5) 0.1117(5) -0.1440(3)
O4C O -0.1117(5) 0.1117(5) -0.3560(3)
O4K O -1.1117(5) -0.2234(7) -0.1440(3)
O4E O -1.1117(5) -0.2234(7) -0.3560(3)
C1S C -0.3763(9) -0.0690(5) -0.0540(3)
C1U C -0.9310(5) -0.3073(7) -0.0540(3)
C1B C -0.9310(5) -0.6237(9) -0.0540(3)
C1G C -0.6237(9) 0.0690(5) 0.0540(3)
C1L C -0.3073(7) 0.0690(5) 0.0540(3)
C1N C -1.0690(5) -0.3763(9) 0.0540(3)
C1I C -1.0690(5) -0.6927(7) 0.0540(3)
C1D C -0.3763(9) -0.3073(7) -0.0540(3)
C1W C -0.6927(7) -0.6237(9) -0.0540(3)
C1K C -0.3073(7) -0.3763(9) 0.0540(3)
C1P C -0.6237(9) -0.6927(7) 0.0540(3)
C1P_2 C -0.6237(9) 0.3073(7) 0.0540(3)
C1K_2 C -0.3073(7) 0.6237(9) 0.0540(3)
C1W_2 C -0.6927(7) 0.3763(9) -0.0540(3)
C1D_2 C -0.3763(9) 0.6927(7) -0.0540(3)
C1I_2 C -0.0690(5) 0.3073(7) 0.0540(3)
C1N_2 C -0.0690(5) 0.6237(9) 0.0540(3)
C1B_2 C 0.0690(5) 0.3763(9) -0.0540(3)
C1U_2 C 0.0690(5) 0.6927(7) -0.0540(3)
C1K_3 C -1.3073(7) -0.3763(9) 0.0540(3)
C1P_3 C -1.6237(9) -0.6927(7) 0.0540(3)
C1D_3 C -1.3763(9) -0.3073(7) -0.0540(3)
C1W_3 C -1.6927(7) -0.6237(9) -0.0540(3)
C2F C -0.8431(8) -0.1569(12) 0.3546(4)
C2D C -0.3138(14) -0.1569(12) 0.1454(4)
C2J C -0.3138(14) -0.1569(8) 0.3546(4)
C2B C -0.8431(8) -0.6862(14) 0.1454(4)
C2H C -0.8431(12) -0.6862(14) 0.3546(4)
C2G C -0.6862(14) 0.1569(8) -0.1454(4)
C2A C -0.6862(14) 0.1569(12) -0.3546(4)
C2I C -0.1569(8) 0.1569(12) -0.1454(4)
C2C C -0.1569(12) 0.1569(8) -0.3546(4)
C2K C -1.1569(12) -0.3138(14) -0.1454(4)
C2E C -1.1569(8) -0.3138(14) -0.3546(4)
C3B C -0.9318(3) -0.4659(5) -0.0580(4)
C3G C -0.4659(5) 0.0682(3) 0.0580(4)
C3I C -1.0682(3) -0.5341(4) 0.0580(4)
C3D C -0.5341(5) -0.4659(4) -0.0580(4)
C3K C -0.4659(4) -0.5341(5) 0.0580(4)
C3K_2 C -0.4659(4) 0.4659(5) 0.0580(4)
C3D_2 C -0.5341(5) 0.5341(4) -0.0580(4)
C3I_2 C -0.0682(3) 0.4659(4) 0.0580(4)
C3B_2 C 0.0682(3) 0.5341(5) -0.0580(4)
C3K_3 C -1.4659(4) -0.5341(5) 0.0580(4)
C3D_3 C -1.5341(5) -0.4659(4) -0.0580(4)
H1B H -0.9030 -0.4515 -0.0233
H1G H -0.4515 0.0970 0.0233
H1I H -1.0970 -0.5485 0.0233
H1D H -0.5485 -0.4515 -0.0233
H1K H -0.4515 -0.5485 0.0233
H1K_2 H -0.4515 0.4515 0.0233
H1D_2 H -0.5485 0.5485 -0.0233
H1I_2 H -0.0970 0.4515 0.0233
H1B_2 H 0.0970 0.5485 -0.0233
H1K_3 H -1.4515 -0.5485 0.0233
H1D_3 H -1.5485 -0.4515 -0.0233
C4S C -0.4472(9) -0.0474(5) -0.0831(3)
C4U C -0.9526(5) -0.3998(7) -0.0831(3)
C4B C -0.9526(5) -0.5528(9) -0.0831(3)
C4G C -0.5528(9) 0.0474(5) 0.0831(3)
C4L C -0.3998(7) 0.0474(5) 0.0831(3)
C4N C -1.0474(5) -0.4472(9) 0.0831(3)
C4I C -1.0474(5) -0.6002(7) 0.0831(3)
C4D C -0.4472(9) -0.3998(7) -0.0831(3)
C4W C -0.6002(7) -0.5528(9) -0.0831(3)
C4K C -0.3998(7) -0.4472(9) 0.0831(3)
C4P C -0.5528(9) -0.6002(7) 0.0831(3)
C4P_2 C -0.5528(9) 0.3998(7) 0.0831(3)
C4K_2 C -0.3998(7) 0.5528(9) 0.0831(3)
C4W_2 C -0.6002(7) 0.4472(9) -0.0831(3)
C4D_2 C -0.4472(9) 0.6002(7) -0.0831(3)
C4I_2 C -0.0474(5) 0.3998(7) 0.0831(3)
C4N_2 C -0.0474(5) 0.5528(9) 0.0831(3)
C4B_2 C 0.0474(5) 0.4472(9) -0.0831(3)
C4U_2 C 0.0474(5) 0.6002(7) -0.0831(3)
C4K_3 C -1.3998(7) -0.4472(9) 0.0831(3)
C4P_3 C -1.5528(9) -0.6002(7) 0.0831(3)
C4D_3 C -1.4472(9) -0.3998(7) -0.0831(3)
C4W_3 C -1.6002(7) -0.5528(9) -0.0831(3)
C5S C -0.4263(10) -0.0033(6) -0.1350(3)
C5U C -0.9967(6) -0.4230(8) -0.1350(3)
C5B C -0.9967(6) -0.5737(10) -0.1350(3)
C5G C -0.5737(10) 0.0033(6) 0.1350(3)
C5L C -0.4230(8) 0.0033(6) 0.1350(3)
C5N C -1.0033(6) -0.4263(10) 0.1350(3)
C5I C -1.0033(6) -0.5770(8) 0.1350(3)
C5D C -0.4263(10) -0.4230(8) -0.1350(3)
C5W C -0.5770(8) -0.5737(10) -0.1350(3)
C5K C -0.4230(8) -0.4263(10) 0.1350(3)
C5P C -0.5737(10) -0.5770(8) 0.1350(3)
C5P_2 C -0.5737(10) 0.4230(8) 0.1350(3)
C5K_2 C -0.4230(8) 0.5737(10) 0.1350(3)
C5W_2 C -0.5770(8) 0.4263(10) -0.1350(3)
C5D_2 C -0.4263(10) 0.5770(8) -0.1350(3)
C5I_2 C -0.0033(6) 0.4230(8) 0.1350(3)
C5N_2 C -0.0033(6) 0.5737(10) 0.1350(3)
C5B_2 C 0.0033(6) 0.4263(10) -0.1350(3)
C5U_2 C 0.0033(6) 0.5770(8) -0.1350(3)
C5K_3 C -1.4230(8) -0.4263(10) 0.1350(3)
C5P_3 C -1.5737(10) -0.5770(8) 0.1350(3)
C5D_3 C -1.4263(10) -0.4230(8) -0.1350(3)
C5W_3 C -1.5770(8) -0.5737(10) -0.1350(3)
H2S H -0.3686 0.0111 -0.1526
H2U H -1.0111 -0.3797 -0.1526
H2B H -1.0111 -0.6314 -0.1526
H2G H -0.6314 -0.0111 0.1526
H2L H -0.3797 -0.0111 0.1526
H2N H -0.9889 -0.3686 0.1526
H2I H -0.9889 -0.6203 0.1526
H2D H -0.3686 -0.3797 -0.1526
H2W H -0.6203 -0.6314 -0.1526
H2K H -0.3797 -0.3686 0.1526
H2P H -0.6314 -0.6203 0.1526
H2P_2 H -0.6314 0.3797 0.1526
H2K_2 H -0.3797 0.6314 0.1526
H2W_2 H -0.6203 0.3686 -0.1526
H2D_2 H -0.3686 0.6203 -0.1526
H2I_2 H 0.0111 0.3797 0.1526
H2N_2 H 0.0111 0.6314 0.1526
H2B_2 H -0.0111 0.3686 -0.1526
H2U_2 H -0.0111 0.6203 -0.1526
H2K_3 H -1.3797 -0.3686 0.1526
H2P_3 H -1.6314 -0.6203 0.1526
H2D_3 H -1.3686 -0.3797 -0.1526
H2W_3 H -1.6203 -0.6314 -0.1526
C6B C -1.0188(5) -0.5094(9) -0.1602(4)
C6G C -0.5094(9) -0.0188(5) 0.1602(4)
C6I C -0.9812(5) -0.4906(7) 0.1602(4)
C6D C -0.4906(9) -0.5094(7) -0.1602(4)
C6K C -0.5094(7) -0.4906(9) 0.1602(4)
C6K_2 C -0.5094(7) 0.5094(9) 0.1602(4)
C6D_2 C -0.4906(9) 0.4906(7) -0.1602(4)
C6I_2 C 0.0188(5) 0.5094(7) 0.1602(4)
C6B_2 C -0.0188(5) 0.4906(9) -0.1602(4)
C6K_3 C -1.5094(7) -0.4906(9) 0.1602(4)
C6D_3 C -1.4906(9) -0.5094(7) -0.1602(4)
H3B H -1.0492 -0.5246 -0.1944
H3G H -0.5246 -0.0492 0.1944
H3I H -0.9508 -0.4754 0.1944
H3D H -0.4754 -0.5246 -0.1944
H3K H -0.5246 -0.4754 0.1944
H3K_2 H -0.5246 0.5246 0.1944
H3D_2 H -0.4754 0.4754 -0.1944
H3I_2 H 0.0492 0.5246 0.1944
H3B_2 H -0.0492 0.4754 -0.1944
H3K_3 H -1.5246 -0.4754 0.1944
H3D_3 H -1.4754 -0.5246 -0.1944
C7J C -0.3125(16) -0.1563(11) 0.2500
C7B C -0.8437(11) -0.6875(16) 0.2500
C7G C -0.6875(16) 0.1563(11) -0.2500
C7C C -0.1562(12) 0.1563(11) -0.2500
C7E C -1.1563(11) -0.3125(16) -0.2500
H4D H -0.2448 -0.1224 0.2500
H4B H -0.8776 -0.7552 0.2500
H4A H -0.7552 0.1224 -0.2500
H4C H -0.1224 0.1224 -0.2500
H4E H -1.1224 -0.2448 -0.2500
C8F C -0.8170(7) -0.1829(11) 0.3000(4)
C8S C -0.3659(13) -0.1830(7) 0.2000(4)
C8M C -0.3659(13) -0.1829(11) 0.3000(4)
C8B C -0.8170(7) -0.6341(13) 0.2000(4)
C8H C -0.8171(11) -0.6341(13) 0.3000(4)
C8G C -0.6341(13) 0.1830(7) -0.2000(4)
C8A C -0.6341(13) 0.1829(11) -0.3000(4)
C8L C -0.1829(11) 0.1830(7) -0.2000(4)
C8R C -0.1830(7) 0.1829(11) -0.3000(4)
C8N C -1.1830(7) -0.3659(13) -0.2000(4)
C8T C -1.1829(11) -0.3659(13) -0.3000(4)
C9F C -0.7673(9) -0.2326(13) 0.2990(5)
C9S C -0.4653(16) -0.2327(9) 0.2010(5)
C9M C -0.4653(16) -0.2326(13) 0.2990(5)
C9B C -0.7673(9) -0.5347(16) 0.2010(5)
C9H C -0.7674(13) -0.5347(16) 0.2990(5)
C9G C -0.5347(16) 0.2327(9) -0.2010(5)
C9A C -0.5347(16) 0.2326(13) -0.2990(5)
C9L C -0.2326(13) 0.2327(9) -0.2010(5)
C9R C -0.2327(9) 0.2326(13) -0.2990(5)
C9N C -1.2327(9) -0.4653(16) -0.2010(5)
C9T C -1.2326(13) -0.4653(16) -0.2990(5)
H5F H -0.7500 -0.2500 0.3319
H5D H -0.5000 -0.2500 0.1681
H5J H -0.5000 -0.2500 0.3319
H5B H -0.7500 -0.5000 0.1681
H5H H -0.7500 -0.5000 0.3319
H5G H -0.5000 0.2500 -0.1681
H5A H -0.5000 0.2500 -0.3319
H5I H -0.2500 0.2500 -0.1681
H5C H -0.2500 0.2500 -0.3319
H5K H -1.2500 -0.5000 -0.1681
H5E H -1.2500 -0.5000 -0.3319
C10J C -0.5139(24) -0.2569(16) 0.2500
C10B C -0.7431(16) -0.4861(24) 0.2500
C10G C -0.4861(24) 0.2569(16) -0.2500
C10C C -0.2570(18) 0.2569(16) -0.2500
C10E C -1.2569(16) -0.5139(24) -0.2500
H6D H -0.5816 -0.2908 0.2500
H6B H -0.7092 -0.4184 0.2500
H6A H -0.4184 0.2908 -0.2500
H6C H -0.2908 0.2908 -0.2500
H6E H -1.2908 -0.5816 -0.2500
O6? O 0.0000 0.0000 0.530(2)
loop_
_geom_bond_atom_site_label_1
_geom_bond_atom_site_label_2
_geom_bond_site_symmetry_1
_geom_bond_site_symmetry_2
Pb1 O1 1_555 1_555
O1 C1 1_555 1_555
O2 Pb1 1_555 1_555
O3 Pb1 1_555 1_555
O4 C2 1_555 1_555
N1 C11 1_555 1_555
C1 O2 1_555 1_555
C2 O3 1_555 1_555
C3 H1 1_555 1_555
C4 C1 1_555 1_555
C5 C4 1_555 1_555
H2 C5 1_555 1_555
C6 C5 1_555 1_555
H3 C6 1_555 1_555
C7 H4 1_555 1_555
C8 C2 1_555 1_555
C9 C8 1_555 1_555
H5 C9 1_555 1_555
C10 C9 1_555 1_555
H6 C10 1_555 1_555
C11 H7 1_555 1_555
C12 N1 1_555 1_555
H8 C12 1_555 1_555
H9 C12 1_555 1_555
Pb1D O1S 1_555 1_555
Pb1B O1B 1_555 1_555
Pb1G O2 1_555 1_555
Pb1I O1L 1_555 1_555
Pb1K O1N 1_555 1_555
Pb1I_2 O1I 1_555 1_555
Pb1F O1F 1_555 1_555
Pb1K_2 O1K 1_555 1_555
Pb1G_2 O1P 1_555 1_555
Pb1K_3 O1K_2 1_555 1_555
Pb1B_2 O1W_2 1_555 1_555
Pb1J O3J 1_555 1_555
Pb1H O3H 1_555 1_555
Pb1A O3A 1_555 1_555
Pb1D_2 O1D_2 1_555 1_555
Pb1C O3C 1_555 1_555
Pb1B_3 O1B_2 1_555 1_555
Pb1_2 O1U_2 1_555 1_555
Pb1E O3E 1_555 1_555
Pb1D_3 O1D_3 1_555 1_555
Pb1G_3 O1P_3 1_555 1_555
Pb1B_4 O1W_3 1_555 1_555
O1S C1S 1_555 1_555
O1U Pb1 1_555 1_555
O1B C1B 1_555 1_555
O1G Pb1G 1_555 1_555
O1L C1L 1_555 1_555
O1N C1N 1_555 1_555
O1I C1I 1_555 1_555
O1D Pb1D 1_555 1_555
O1W Pb1B 1_555 1_555
O1K C1K 1_555 1_555
O1P C1P 1_555 1_555
O1P_2 Pb1G 1_555 1_555
O1K_2 C1K_2 1_555 1_555
O1W_2 C1W_2 1_555 1_555
O1D_2 C1D_2 1_555 1_555
O1I_2 Pb1I 1_555 1_555
O1N_2 Pb1K_3 1_555 1_555
O1B_2 C1B_2 1_555 1_555
O1U_2 C1U_2 1_555 1_555
O1K_3 Pb1K 1_555 1_555
O1P_3 C1P_3 1_555 1_555
O1D_3 C1D_3 1_555 1_555
O1W_3 C1W_3 1_555 1_555
O1L_2 Pb1I_2 1_555 1_555
O1O Pb1F 1_555 1_555
O1N_3 Pb1K_2 1_555 1_555
O1G_2 Pb1G_2 1_555 1_555
O1B_3 Pb1B_2 1_555 1_555
O2S Pb1D 1_555 1_555
O2U Pb1 1_555 1_555
O2B Pb1B 1_555 1_555
O2G Pb1 1_555 1_555
O2L Pb1D 1_555 1_555
O2N Pb1 1_555 1_555
O2I Pb1B 1_555 1_555
O2D Pb1D 1_555 1_555
O2W Pb1B 1_555 1_555
O2K Pb1D 1_555 1_555
O2P Pb1B 1_555 1_555
O2P_2 Pb1G 1_555 1_555
O2K_2 Pb1K_3 1_555 1_555
O2W_2 Pb1G 1_555 1_555
O2D_2 Pb1K_3 1_555 1_555
O2I_2 Pb1I 1_555 1_555
O2N_2 Pb1K_3 1_555 1_555
O2B_2 Pb1I 1_555 1_555
O2U_2 Pb1K_3 1_555 1_555
O2K_3 Pb1K 1_555 1_555
O2P_3 Pb1G_3 1_555 1_555
O2D_3 Pb1K 1_555 1_555
O2W_3 Pb1G_3 1_555 1_555
O2S_2 Pb1I_2 1_555 1_555
O2L_2 Pb1I_2 1_555 1_555
O2F Pb1F 1_555 1_555
O2E Pb1F 1_555 1_555
O2V Pb1F 1_555 1_555
O2O Pb1F 1_555 1_555
O2U_3 Pb1K_2 1_555 1_555
O2N_3 Pb1K_2 1_555 1_555
O2_2 Pb1G_2 1_555 1_555
O2G_2 Pb1G_2 1_555 1_555
O2I_3 Pb1B_2 1_555 1_555
O2B_3 Pb1B_2 1_555 1_555
O3F Pb1F 1_555 1_555
O3D Pb1D 1_555 1_555
O3J C2J 1_555 1_555
O3B Pb1B 1_555 1_555
O3H C2H 1_555 1_555
O3G Pb1G 1_555 1_555
O3A C2A 1_555 1_555
O3I Pb1I 1_555 1_555
O3C C2C 1_555 1_555
O3K Pb1K 1_555 1_555
O3E C2E 1_555 1_555
O3I_2 Pb1I_2 1_555 1_555
O3K_2 Pb1K_2 1_555 1_555
O3G_2 Pb1G_2 1_555 1_555
O3K_3 Pb1K_3 1_555 1_555
O3B_2 Pb1B_2 1_555 1_555
O4F C2F 1_555 1_555
O4D C2D 1_555 1_555
O4J C2J 1_555 1_555
O4B C2B 1_555 1_555
O4H C2H 1_555 1_555
O4G C2G 1_555 1_555
O4A C2A 1_555 1_555
O4I C2I 1_555 1_555
O4C C2C 1_555 1_555
O4K C2K 1_555 1_555
O4E C2E 1_555 1_555
C1S O2S 1_555 1_555
C1U O1U 1_555 1_555
C1B O2B 1_555 1_555
C1G O1G 1_555 1_555
C1L O2L 1_555 1_555
C1N O2N 1_555 1_555
C1I O2I 1_555 1_555
C1D O1D 1_555 1_555
C1W O1W 1_555 1_555
C1K O2K 1_555 1_555
C1P O2P 1_555 1_555
C1P_2 O1P_2 1_555 1_555
C1K_2 O2K_2 1_555 1_555
C1W_2 O2W_2 1_555 1_555
C1D_2 O2D_2 1_555 1_555
C1I_2 O1I_2 1_555 1_555
C1N_2 O1N_2 1_555 1_555
C1B_2 O2B_2 1_555 1_555
C1U_2 O2U_2 1_555 1_555
C1K_3 O1K_3 1_555 1_555
C1P_3 O2P_3 1_555 1_555
C1D_3 O2D_3 1_555 1_555
C1W_3 O2W_3 1_555 1_555
C2F O3F 1_555 1_555
C2D O3D 1_555 1_555
C2J C8M 1_555 1_555
C2B O3B 1_555 1_555
C2H C8H 1_555 1_555
C2G O3G 1_555 1_555
C2A C8A 1_555 1_555
C2I O3I 1_555 1_555
C2C C8R 1_555 1_555
C2K O3K 1_555 1_555
C2E C8T 1_555 1_555
C3B H1B 1_555 1_555
C3G H1G 1_555 1_555
C3I H1I 1_555 1_555
C3D H1D 1_555 1_555
C3K H1K 1_555 1_555
C3K_2 H1K_2 1_555 1_555
C3D_2 H1D_2 1_555 1_555
C3I_2 H1I_2 1_555 1_555
C3B_2 H1B_2 1_555 1_555
C3K_3 H1K_3 1_555 1_555
C3D_3 H1D_3 1_555 1_555
C4S C3 1_555 1_555
C4U C1U 1_555 1_555
C4B C1B 1_555 1_555
C4G C1G 1_555 1_555
C4L C1L 1_555 1_555
C4N C1N 1_555 1_555
C4I C1I 1_555 1_555
C4D C1D 1_555 1_555
C4W C1W 1_555 1_555
C4K C1K 1_555 1_555
C4P C1P 1_555 1_555
C4P_2 C1P_2 1_555 1_555
C4K_2 C1K_2 1_555 1_555
C4W_2 C1W_2 1_555 1_555
C4D_2 C1D_2 1_555 1_555
C4I_2 C1I_2 1_555 1_555
C4N_2 C1N_2 1_555 1_555
C4B_2 C1B_2 1_555 1_555
C4U_2 C1U_2 1_555 1_555
C4K_3 C1K_3 1_555 1_555
C4P_3 C1P_3 1_555 1_555
C4D_3 C1D_3 1_555 1_555
C4W_3 C1W_3 1_555 1_555
C5S C6 1_555 1_555
C5U C4U 1_555 1_555
C5B C4B 1_555 1_555
C5G C4G 1_555 1_555
C5L C4L 1_555 1_555
C5N C4N 1_555 1_555
C5I C4I 1_555 1_555
C5D C4D 1_555 1_555
C5W C4W 1_555 1_555
C5K C4K 1_555 1_555
C5P C4P 1_555 1_555
C5P_2 C4P_2 1_555 1_555
C5K_2 C4K_2 1_555 1_555
C5W_2 C4W_2 1_555 1_555
C5D_2 C4D_2 1_555 1_555
C5I_2 C4I_2 1_555 1_555
C5N_2 C4N_2 1_555 1_555
C5B_2 C4B_2 1_555 1_555
C5U_2 C4U_2 1_555 1_555
C5K_3 C4K_3 1_555 1_555
C5P_3 C4P_3 1_555 1_555
C5D_3 C4D_3 1_555 1_555
C5W_3 C4W_3 1_555 1_555
H2S C5S 1_555 1_555
H2U C5U 1_555 1_555
H2B C5B 1_555 1_555
H2G C5G 1_555 1_555
H2L C5L 1_555 1_555
H2N C5N 1_555 1_555
H2I C5I 1_555 1_555
H2D C5D 1_555 1_555
H2W C5W 1_555 1_555
H2K C5K 1_555 1_555
H2P C5P 1_555 1_555
H2P_2 C5P_2 1_555 1_555
H2K_2 C5K_2 1_555 1_555
H2W_2 C5W_2 1_555 1_555
H2D_2 C5D_2 1_555 1_555
H2I_2 C5I_2 1_555 1_555
H2N_2 C5N_2 1_555 1_555
H2B_2 C5B_2 1_555 1_555
H2U_2 C5U_2 1_555 1_555
H2K_3 C5K_3 1_555 1_555
H2P_3 C5P_3 1_555 1_555
H2D_3 C5D_3 1_555 1_555
H2W_3 C5W_3 1_555 1_555
C6B C5U 1_555 1_555
C6G C5G 1_555 1_555
C6I C5N 1_555 1_555
C6D C5D 1_555 1_555
C6K C5K 1_555 1_555
C6K_2 C5P_2 1_555 1_555
C6D_2 C5W_2 1_555 1_555
C6I_2 C5I_2 1_555 1_555
C6B_2 C5B_2 1_555 1_555
C6K_3 C5K_3 1_555 1_555
C6D_3 C5D_3 1_555 1_555
H3B C6B 1_555 1_555
H3G C6G 1_555 1_555
H3I C6I 1_555 1_555
H3D C6D 1_555 1_555
H3K C6K 1_555 1_555
H3K_2 C6K_2 1_555 1_555
H3D_2 C6D_2 1_555 1_555
H3I_2 C6I_2 1_555 1_555
H3B_2 C6B_2 1_555 1_555
H3K_3 C6K_3 1_555 1_555
H3D_3 C6D_3 1_555 1_555
C7J H4D 1_555 1_555
C7B H4B 1_555 1_555
C7G H4A 1_555 1_555
C7C H4C 1_555 1_555
C7E H4E 1_555 1_555
C8F C7 1_555 1_555
C8S C2D 1_555 1_555
C8M C7J 1_555 1_555
C8B C2B 1_555 1_555
C8H C7B 1_555 1_555
C8G C2G 1_555 1_555
C8A C7G 1_555 1_555
C8L C2I 1_555 1_555
C8R C7C 1_555 1_555
C8N C2K 1_555 1_555
C8T C7E 1_555 1_555
C9F C10 1_555 1_555
C9S C8S 1_555 1_555
C9M C8M 1_555 1_555
C9B C8B 1_555 1_555
C9H C8H 1_555 1_555
C9G C8G 1_555 1_555
C9A C8A 1_555 1_555
C9L C8L 1_555 1_555
C9R C8R 1_555 1_555
C9N C8N 1_555 1_555
C9T C8T 1_555 1_555
H5F C9F 1_555 1_555
H5D C9S 1_555 1_555
H5J C9M 1_555 1_555
H5B C9B 1_555 1_555
H5H C9H 1_555 1_555
H5G C9G 1_555 1_555
H5A C9A 1_555 1_555
H5I C9L 1_555 1_555
H5C C9R 1_555 1_555
H5K C9N 1_555 1_555
H5E C9T 1_555 1_555
C10J C9S 1_555 1_555
C10B C9B 1_555 1_555
C10G C9G 1_555 1_555
C10C C9L 1_555 1_555
C10E C9N 1_555 1_555
H6D C10J 1_555 1_555
H6B C10B 1_555 1_555
H6A C10G 1_555 1_555
H6C C10C 1_555 1_555
H6E C10E 1_555 1_555
H7B C11 1_555 1_555
H7D C11 1_555 1_555
C12B N1 1_555 1_555
C12D N1 1_555 1_555
H8B C12B 1_555 1_555
H8D C12D 1_555 1_555
H9U C12 1_555 1_555
H9B C12B 1_555 1_555
H9W C12B 1_555 1_555
H9D C12D 1_555 1_555
H9S C12D 1_555 1_555
C3 C4 1_555 1_555
C7 C8 1_555 1_555
Pb1G O2G 1_555 1_555
Pb1I O2S 1_555 1_555
Pb1I O2L 1_555 1_555
Pb1K O2U 1_555 1_555
Pb1K O2N 1_555 1_555
Pb1I_2 O2B 1_555 1_555
Pb1I_2 O2I 1_555 1_555
Pb1K_2 O2D 1_555 1_555
Pb1K_2 O2K 1_555 1_555
Pb1G_2 O2W 1_555 1_555
Pb1G_2 O2P 1_555 1_555
Pb1B_2 O2P_2 1_555 1_555
Pb1B_2 O2W_2 1_555 1_555
Pb1D_2 O2K_2 1_555 1_555
Pb1D_2 O2D_2 1_555 1_555
Pb1B_3 O2I_2 1_555 1_555
Pb1B_3 O2B_2 1_555 1_555
Pb1_2 O2N_2 1_555 1_555
Pb1_2 O2U_2 1_555 1_555
Pb1D_3 O2K_3 1_555 1_555
Pb1D_3 O2D_3 1_555 1_555
Pb1B_4 O2P_3 1_555 1_555
Pb1B_4 O2W_3 1_555 1_555
O2U C1U 1_555 1_555
O2G C1G 1_555 1_555
O2D C1D 1_555 1_555
O2W C1W 1_555 1_555
O2P_2 C1P_2 1_555 1_555
O2I_2 C1I_2 1_555 1_555
O2N_2 C1N_2 1_555 1_555
O2K_3 C1K_3 1_555 1_555
C1S C4S 1_555 1_555
C2F C8F 1_555 1_555
C3B C4U 1_555 1_555
C3B C4B 1_555 1_555
C3G C4G 1_555 1_555
C3G C4L 1_555 1_555
C3I C4N 1_555 1_555
C3I C4I 1_555 1_555
C3D C4D 1_555 1_555
C3D C4W 1_555 1_555
C3K C4K 1_555 1_555
C3K C4P 1_555 1_555
C3K_2 C4P_2 1_555 1_555
C3K_2 C4K_2 1_555 1_555
C3D_2 C4W_2 1_555 1_555
C3D_2 C4D_2 1_555 1_555
C3I_2 C4I_2 1_555 1_555
C3I_2 C4N_2 1_555 1_555
C3B_2 C4B_2 1_555 1_555
C3B_2 C4U_2 1_555 1_555
C3K_3 C4K_3 1_555 1_555
C3K_3 C4P_3 1_555 1_555
C3D_3 C4D_3 1_555 1_555
C3D_3 C4W_3 1_555 1_555
C4S C5S 1_555 1_555
C5B C6B 1_555 1_555
C5L C6G 1_555 1_555
C5I C6I 1_555 1_555
C5W C6D 1_555 1_555
C5P C6K 1_555 1_555
C5K_2 C6K_2 1_555 1_555
C5D_2 C6D_2 1_555 1_555
C5N_2 C6I_2 1_555 1_555
C5U_2 C6B_2 1_555 1_555
C5P_3 C6K_3 1_555 1_555
C5W_3 C6D_3 1_555 1_555
C7J C8S 1_555 1_555
C7B C8B 1_555 1_555
C7G C8G 1_555 1_555
C7C C8L 1_555 1_555
C7E C8N 1_555 1_555
C8F C9F 1_555 1_555
C9M C10J 1_555 1_555
C9H C10B 1_555 1_555
C9A C10G 1_555 1_555
C9R C10C 1_555 1_555
C9T C10E 1_555 1_555

#END
