
#######################################################################
#
#                 Cambridge Crystallographic Data Centre
#                                CCDC 
#
#######################################################################
#
# If this CIF has been generated from an entry in the Cambridge 
# Structural Database, then it will include bibliographic, chemical, 
# crystal, experimental, refinement or atomic coordinate data resulting 
# from the CCDC's data processing and validation procedures.
#
#######################################################################

data_FARHAJ
_symmetry_cell_setting           hexagonal
_symmetry_space_group_name_H-M   'P 63/m m c'
_symmetry_Int_Tables_number      194
_space_group_name_Hall           "-P 6c 2'c"
loop_
_symmetry_equiv_pos_site_id
_symmetry_equiv_pos_as_xyz
1 x,y,z
2 x-y,x,1/2+z
3 -y,x-y,z
4 -x,-y,1/2+z
5 -x+y,-x,z
6 y,-x+y,1/2+z
7 -y,-x,1/2-z
8 x-y,-y,-z
9 x,x-y,1/2-z
10 y,x,-z
11 -x+y,y,1/2-z
12 -x,-x+y,-z
13 -x,-y,-z
14 -x+y,-x,1/2-z
15 y,-x+y,-z
16 x,y,1/2-z
17 x-y,x,-z
18 -y,x-y,1/2-z
19 y,x,1/2+z
20 -x+y,y,z
21 -x,-x+y,1/2+z
22 -y,-x,z
23 x-y,-y,1/2+z
24 x,x-y,z
_cell_length_a                   16.231(3)
_cell_length_b                   16.231(3)
_cell_length_c                   24.466(5)
_cell_angle_alpha                90
_cell_angle_beta                 90
_cell_angle_gamma                120
_cell_volume                     5581.93
loop_
_atom_site_label
_atom_site_type_symbol
_atom_site_fract_x
_atom_site_fract_y
_atom_site_fract_z
O1 O 0.0000 0.0000 -0.2500
O2 O 0.0000 0.0000 0.0000
N1 N 0.6667 0.3333 0.0501(12)
C1 C 0.6163(8) 0.3837(8) 0.0700(10)
H1 H 0.6161 0.3839 0.1092
H2 H 0.5520 0.3514 0.0568
C2 C 0.6667 0.3333 -0.011(3)
H3 H 0.6989 0.3011 -0.0240
H2U H 0.6486 0.4480 0.0568
H3B H 0.6989 0.3978 -0.0240
H3D H 0.6022 0.3011 -0.0240
C1B C 0.6163(8) 0.2326(11) 0.0700(10)
H1B H 0.6161 0.2322 0.1092
H2B H 0.6486 0.2006 0.0568
H2W H 0.5520 0.2006 0.0568
C1D C 0.7674(11) 0.3837(8) 0.0700(10)
H1D H 0.7678 0.3839 0.1092
H2D H 0.7994 0.4480 0.0568
H2S H 0.7994 0.3514 0.0568
Pb1 Pb 0.29019(5) 0.14510(3) 0.02660(3)
O3 O 0.4094(7) 0.2938(7) -0.0065(4)
O4 O 0.3000(7) 0.2574(7) -0.0700(5)
O5 O 0.3847(11) 0.1924(5) 0.1044(6)
O6 O 0.2429(12) 0.1214(6) 0.1448(6)
C3 C 0.3803(10) 0.3098(11) -0.0497(6)
C4 C 0.3292(15) 0.1646(8) 0.1456(8)
C5 C 0.5349(7) 0.4651(7) -0.0542(8)
H4 H 0.5502 0.4498 -0.0205
C6 C 0.4493(10) 0.4019(10) -0.0787(6)
C7 C 0.4237(13) 0.4244(12) -0.1290(7)
H5 H 0.3645 0.3841 -0.1444
C8 C 0.4898(10) 0.5102(10) -0.1559(10)
H6 H 0.4771 0.5229 -0.1910
C9 C 0.334(2) 0.1669(10) 0.2500
H7 H 0.2677 0.1339 0.2500
C10 C 0.3809(13) 0.1904(7) 0.2015(10)
C11 C 0.478(2) 0.210(2) 0.2021(12)
H8 H 0.5003 0.1940 0.1687
C12 C 0.524(3) 0.212(3) 0.2500
H9 H 0.5842 0.2140 0.2500
C6U C 0.5981(10) 0.5507(10) -0.0787(6)
C3U C 0.6902(11) 0.6197(10) -0.0497(6)
O3U O 0.7062(7) 0.5906(7) -0.0065(4)
O4U O 0.7426(7) 0.7000(7) -0.0700(5)
C7U C 0.5756(12) 0.5763(13) -0.1290(7)
H5U H 0.6159 0.6355 -0.1444
C10H C 0.3809(13) 0.1905(15) 0.2985(10)
C4H C 0.3292(15) 0.1646(17) 0.3544(8)
O5H O 0.3847(11) 0.1923(12) 0.3956(6)
O6H O 0.2429(12) 0.1215(13) 0.3552(6)
C11H C 0.478(2) 0.268(3) 0.2979(12)
H8H H 0.5003 0.3063 0.3313
C12H C 0.524(3) 0.312(4) 0.2500
C11W C 0.478(2) 0.268(3) 0.2021(12)
C11O C 0.478(2) 0.210(2) 0.2979(12)
H8O H 0.5003 0.1940 0.3313
H9J H 0.6298 0.2140 0.2500
C12J C 0.688(4) 0.212(3) 0.2500
C11J C 0.732(3) 0.210(2) 0.2979(12)
C10J C 0.8095(15) 0.1904(7) 0.2985(10)
C4J C 0.8354(17) 0.1646(8) 0.3544(8)
O5J O 0.8077(12) 0.1924(5) 0.3956(6)
O6J O 0.8785(13) 0.1214(6) 0.3552(6)
C9B C 0.8331(10) 0.1671(22) 0.2500
H7B H 0.8661 0.1338 0.2500
C10B C 0.8096(7) 0.1905(15) 0.2015(10)
C4B C 0.8354(8) 0.1646(17) 0.1456(8)
O5B O 0.8076(5) 0.1923(12) 0.1044(6)
O6B O 0.8786(6) 0.1215(13) 0.1448(6)
C11B C 0.790(2) 0.268(3) 0.2021(12)
H8B H 0.8060 0.3063 0.1687
C12B C 0.788(3) 0.312(4) 0.2500
C11Q C 0.790(2) 0.268(3) 0.2979(12)
H8Q H 0.8060 0.3063 0.3313
H8J H 0.6937 0.1940 0.3313
H9B H 0.7860 0.3702 0.2500
H9F H 0.7860 0.4158 0.2500
C12F C 0.788(3) 0.476(3) 0.2500
C11F C 0.790(2) 0.522(2) 0.2979(12)
C10F C 0.8096(7) 0.6191(13) 0.2985(10)
C4F C 0.8354(8) 0.6708(15) 0.3544(8)
O5F O 0.8076(5) 0.6153(11) 0.3956(6)
O6F O 0.8786(6) 0.7571(12) 0.3552(6)
C9D C 0.8329(22) 0.666(2) 0.2500
H7D H 0.8662 0.7323 0.2500
C10D C 0.8095(15) 0.6191(13) 0.2015(10)
C4D C 0.8354(17) 0.6708(15) 0.1456(8)
O5D O 0.8077(12) 0.6153(11) 0.1044(6)
O6D O 0.8785(13) 0.7571(12) 0.1448(6)
C11D C 0.732(3) 0.522(2) 0.2021(12)
H8D H 0.6937 0.4997 0.1687
C12D C 0.688(4) 0.476(3) 0.2500
C11M C 0.732(3) 0.522(2) 0.2979(12)
H8M H 0.6937 0.4997 0.3313
H8F H 0.8060 0.4997 0.3313
H9D H 0.6298 0.4158 0.2500
H9H H 0.5842 0.3702 0.2500
C11U C 0.790(2) 0.522(2) 0.2021(12)
H8U H 0.8060 0.4997 0.1687
C11S C 0.732(3) 0.210(2) 0.2021(12)
H8S H 0.6937 0.1940 0.1687
H8W H 0.5003 0.3063 0.1687
O3I O 0.2938(7) 0.4094(7) 0.0065(4)
O4I O 0.2574(7) 0.3000(7) 0.0700(5)
C3I C 0.3098(11) 0.3803(10) 0.0497(6)
C5I C 0.4651(7) 0.5349(7) 0.0542(8)
H4I H 0.4498 0.5502 0.0205
C6I C 0.4019(10) 0.4493(10) 0.0787(6)
C7I C 0.4244(12) 0.4237(13) 0.1290(7)
H5I H 0.3841 0.3645 0.1444
C8I C 0.5102(10) 0.4898(10) 0.1559(10)
H6I H 0.5229 0.4771 0.1910
C6L C 0.5507(10) 0.5981(10) 0.0787(6)
C3L C 0.6197(10) 0.6902(11) 0.0497(6)
O3L O 0.5906(7) 0.7062(7) 0.0065(4)
O4L O 0.7000(7) 0.7426(7) 0.0700(5)
C7L C 0.5763(13) 0.5756(12) 0.1290(7)
H5L H 0.6355 0.6159 0.1444
O3W O 0.4094(7) 0.1156(10) -0.0065(4)
O4W O 0.3000(7) 0.0426(10) -0.0700(5)
C3W C 0.3803(10) 0.0705(15) -0.0497(6)
C5W C 0.5349(7) 0.0698(10) -0.0542(8)
H4W H 0.5502 0.1004 -0.0205
C6W C 0.4493(10) 0.0474(14) -0.0787(6)
C7W C 0.4237(13) -0.0007(18) -0.1290(7)
H5W H 0.3645 -0.0196 -0.1444
C8W C 0.4898(10) -0.0204(14) -0.1559(10)
H6W H 0.4771 -0.0458 -0.1910
C6B C 0.5981(10) 0.0474(14) -0.0787(6)
C3B C 0.6902(11) 0.0705(15) -0.0497(6)
O3B O 0.7062(7) 0.1156(10) -0.0065(4)
O4B O 0.7426(7) 0.0426(10) -0.0700(5)
C7B C 0.5756(12) -0.0007(18) -0.1290(7)
H5B H 0.6159 -0.0196 -0.1444
O3N O 0.2938(7) -0.1156(10) 0.0065(4)
O4N O 0.2574(7) -0.0426(10) 0.0700(5)
C3N C 0.3098(11) -0.0705(15) 0.0497(6)
C5N C 0.4651(7) -0.0698(10) 0.0542(8)
H4N H 0.4498 -0.1004 0.0205
C6N C 0.4019(10) -0.0474(14) 0.0787(6)
C7N C 0.4244(12) 0.0007(18) 0.1290(7)
H5N H 0.3841 0.0196 0.1444
C8N C 0.5102(10) 0.0204(14) 0.1559(10)
H6N H 0.5229 0.0458 0.1910
C6K C 0.5507(10) -0.0474(14) 0.0787(6)
C3K C 0.6197(10) -0.0705(15) 0.0497(6)
O3K O 0.5906(7) -0.1156(10) 0.0065(4)
O4K O 0.7000(7) -0.0426(10) 0.0700(5)
C7K C 0.5763(13) 0.0007(18) 0.1290(7)
H5K H 0.6355 0.0196 0.1444
Pb1U Pb 0.85490(3) 0.70981(5) 0.02660(3)
Pb1I Pb 0.14510(3) 0.29019(5) -0.02660(3)
Pb1L Pb 0.70981(5) 0.85490(3) -0.02660(3)
Pb1B Pb 0.85490(3) 0.14509(6) 0.02660(3)
Pb1N Pb 0.14510(3) -0.14509(6) -0.02660(3)
O3D O 0.8844(10) 0.5906(7) -0.0065(4)
O4D O 0.9574(10) 0.7000(7) -0.0700(5)
C3D C 0.9295(15) 0.6197(10) -0.0497(6)
C5D C 0.9302(10) 0.4651(7) -0.0542(8)
H4D H 0.8996 0.4498 -0.0205
C6D C 0.9526(14) 0.5507(10) -0.0787(6)
C7D C 1.0007(18) 0.5763(13) -0.1290(7)
H5D H 1.0196 0.6355 -0.1444
C8D C 1.0204(14) 0.5102(10) -0.1559(10)
H6D H 1.0458 0.5229 -0.1910
C6S C 0.9526(14) 0.4019(10) -0.0787(6)
C3S C 0.9295(15) 0.3098(11) -0.0497(6)
O3S O 0.8844(10) 0.2938(7) -0.0065(4)
O4S O 0.9574(10) 0.2574(7) -0.0700(5)
C7S C 1.0007(18) 0.4244(12) -0.1290(7)
H5S H 1.0196 0.3841 -0.1444
O3G O 1.1156(10) 0.7062(7) 0.0065(4)
O4G O 1.0426(10) 0.7426(7) 0.0700(5)
C3G C 1.0705(15) 0.6902(11) 0.0497(6)
C5G C 1.0698(10) 0.5349(7) 0.0542(8)
H4G H 1.1004 0.5502 0.0205
C6G C 1.0474(14) 0.5981(10) 0.0787(6)
C7G C 0.9993(18) 0.5756(12) 0.1290(7)
H5G H 0.9804 0.6159 0.1444
C8G C 0.9796(14) 0.4898(10) 0.1559(10)
H6G H 0.9542 0.4771 0.1910
C6P C 1.0474(14) 0.4493(10) 0.0787(6)
C3P C 1.0705(15) 0.3803(10) 0.0497(6)
O3P O 1.1156(10) 0.4094(7) 0.0065(4)
O4P O 1.0426(10) 0.3000(7) 0.0700(5)
C7P C 0.9993(18) 0.4237(13) 0.1290(7)
H5P H 0.9804 0.3645 0.1444
Pb1H Pb 0.29019(5) 0.14509(6) 0.47340(3)
Pb1J Pb 0.85491(6) 0.14510(3) 0.47340(3)
Pb1F Pb 0.85490(3) 0.70981(5) 0.47340(3)
Pb1K Pb 0.70981(5) -0.14509(6) -0.02660(3)
O5I O 0.1924(5) 0.3847(11) -0.1044(6)
O6I O 0.1214(6) 0.2429(12) -0.1448(6)
O3P_2 O 0.1156(10) 0.4094(7) 0.0065(4)
O4S_2 O -0.0426(10) 0.2574(7) -0.0700(5)
O4P_2 O 0.0426(10) 0.3000(7) 0.0700(5)
O5L O 0.6153(11) 0.8076(5) -0.1044(6)
O6L O 0.7571(12) 0.8786(6) -0.1448(6)
O3K_2 O 0.5906(7) 0.8844(10) 0.0065(4)
O4B_2 O 0.7426(7) 1.0426(10) -0.0700(5)
O4K_2 O 0.7000(7) 0.9574(10) 0.0700(5)
O5N O 0.1924(5) -0.1923(12) -0.1044(6)
O6N O 0.1214(6) -0.1215(13) -0.1448(6)
O3G_2 O 0.1156(10) -0.2938(7) 0.0065(4)
O4D_2 O -0.0426(10) -0.3000(7) -0.0700(5)
O4G_2 O 0.0426(10) -0.2574(7) 0.0700(5)
Pb1G Pb 1.14509(6) 0.85490(3) -0.02660(3)
Pb1P Pb 1.14509(6) 0.29019(5) -0.02660(3)
Cs1 Cs 0.1724(7) 0.0862(3) -0.1394(7)
Cs2? Cs 0.2056(7) 0.1028(4) -0.1527(7)
O7? O 0.042(3) 0.084(5) -0.2500
loop_
_geom_bond_atom_site_label_1
_geom_bond_atom_site_label_2
_geom_bond_site_symmetry_1
_geom_bond_site_symmetry_2
N1 C1 1_555 1_555
C1 H1 1_555 1_555
H2 C1 1_555 1_555
C2 N1 1_555 1_555
H3 C2 1_555 1_555
Pb1 O3 1_555 1_555
O3 C3 1_555 1_555
O4 Pb1 1_555 1_555
O5 Pb1 1_555 1_555
O6 Pb1 1_555 1_555
C3 O4 1_555 1_555
C4 O5 1_555 1_555
C5 H4 1_555 1_555
C6 C3 1_555 1_555
C7 C6 1_555 1_555
H5 C7 1_555 1_555
C8 C7 1_555 1_555
H6 C8 1_555 1_555
C9 H7 1_555 1_555
C10 C4 1_555 1_555
C11 C10 1_555 1_555
H8 C11 1_555 1_555
C12 C11 1_555 1_555
H9 C12 1_555 1_555
H2U C1 1_555 1_555
H3B C2 1_555 1_555
H3D C2 1_555 1_555
C1B N1 1_555 1_555
H1B C1B 1_555 1_555
H2B C1B 1_555 1_555
H2W C1B 1_555 1_555
C1D N1 1_555 1_555
H1D C1D 1_555 1_555
H2D C1D 1_555 1_555
H2S C1D 1_555 1_555
C6U C5 1_555 1_555
C3U C6U 1_555 1_555
O3U C3U 1_555 1_555
O4U C3U 1_555 1_555
C7U C8 1_555 1_555
H5U C7U 1_555 1_555
C10H C9 1_555 1_555
C4H C10H 1_555 1_555
O5H C4H 1_555 1_555
O6H C4H 1_555 1_555
C11H C10H 1_555 1_555
H8H C11H 1_555 1_555
C12H C12 1_555 1_555
C11W C10 1_555 1_555
C11O C12 1_555 1_555
H8O C11O 1_555 1_555
H9J H9 1_555 1_555
C12J H9J 1_555 1_555
C11J C12J 1_555 1_555
C10J C11J 1_555 1_555
C4J C10J 1_555 1_555
O5J C4J 1_555 1_555
O6J C4J 1_555 1_555
C9B C10J 1_555 1_555
H7B C9B 1_555 1_555
C10B C9B 1_555 1_555
C4B C10B 1_555 1_555
O5B C4B 1_555 1_555
O6B C4B 1_555 1_555
C11B C10B 1_555 1_555
H8B C11B 1_555 1_555
C12B C12J 1_555 1_555
C11Q C11J 1_555 1_555
H8Q C11Q 1_555 1_555
H8J C11J 1_555 1_555
H9B C12B 1_555 1_555
H9F H9B 1_555 1_555
C12F H9F 1_555 1_555
C11F C12F 1_555 1_555
C10F C11F 1_555 1_555
C4F C10F 1_555 1_555
O5F C4F 1_555 1_555
O6F C4F 1_555 1_555
C9D C10F 1_555 1_555
H7D C9D 1_555 1_555
C10D C9D 1_555 1_555
C4D C10D 1_555 1_555
O5D C4D 1_555 1_555
O6D C4D 1_555 1_555
C11D C10D 1_555 1_555
H8D C11D 1_555 1_555
C12D C12F 1_555 1_555
C11M C11F 1_555 1_555
H8M C11M 1_555 1_555
H8F C11F 1_555 1_555
H9D C12D 1_555 1_555
H9H C12H 1_555 1_555
C11U C12F 1_555 1_555
H8U C11U 1_555 1_555
C11S C12J 1_555 1_555
H8S C11S 1_555 1_555
H8W C11W 1_555 1_555
O3I C3I 1_555 1_555
O4I Pb1 1_555 1_555
C3I O4I 1_555 1_555
C5I H4I 1_555 1_555
C6I C3I 1_555 1_555
C7I C6I 1_555 1_555
H5I C7I 1_555 1_555
C8I C7I 1_555 1_555
H6I C8I 1_555 1_555
C6L C5I 1_555 1_555
C3L C6L 1_555 1_555
O3L C3L 1_555 1_555
O4L C3L 1_555 1_555
C7L C8I 1_555 1_555
H5L C7L 1_555 1_555
O3W Pb1 1_555 1_555
O4W Pb1 1_555 1_555
C3W O3W 1_555 1_555
C5W H4W 1_555 1_555
C6W C3W 1_555 1_555
C7W C6W 1_555 1_555
H5W C7W 1_555 1_555
C8W C7W 1_555 1_555
H6W C8W 1_555 1_555
C6B C5W 1_555 1_555
C3B C6B 1_555 1_555
O3B C3B 1_555 1_555
O4B C3B 1_555 1_555
C7B C8W 1_555 1_555
H5B C7B 1_555 1_555
O3N C3N 1_555 1_555
O4N Pb1 1_555 1_555
C3N O4N 1_555 1_555
C5N H4N 1_555 1_555
C6N C3N 1_555 1_555
C7N C6N 1_555 1_555
H5N C7N 1_555 1_555
C8N C7N 1_555 1_555
H6N C8N 1_555 1_555
C6K C5N 1_555 1_555
C3K C6K 1_555 1_555
O3K C3K 1_555 1_555
O4K C3K 1_555 1_555
C7K C8N 1_555 1_555
H5K C7K 1_555 1_555
Pb1U O3U 1_555 1_555
Pb1I O4 1_555 1_555
Pb1L O4U 1_555 1_555
Pb1B O5B 1_555 1_555
Pb1N O4W 1_555 1_555
O3D Pb1U 1_555 1_555
O4D Pb1U 1_555 1_555
C3D O3D 1_555 1_555
C5D H4D 1_555 1_555
C6D C3D 1_555 1_555
C7D C6D 1_555 1_555
H5D C7D 1_555 1_555
C8D C7D 1_555 1_555
H6D C8D 1_555 1_555
C6S C5D 1_555 1_555
C3S C6S 1_555 1_555
O3S Pb1B 1_555 1_555
O4S Pb1B 1_555 1_555
C7S C8D 1_555 1_555
H5S C7S 1_555 1_555
O3G C3G 1_555 1_555
O4G Pb1U 1_555 1_555
C3G O4G 1_555 1_555
C5G H4G 1_555 1_555
C6G C3G 1_555 1_555
C7G C6G 1_555 1_555
H5G C7G 1_555 1_555
C8G C7G 1_555 1_555
H6G C8G 1_555 1_555
C6P C5G 1_555 1_555
C3P C6P 1_555 1_555
O3P C3P 1_555 1_555
O4P Pb1B 1_555 1_555
C7P C8G 1_555 1_555
H5P C7P 1_555 1_555
Pb1H O5H 1_555 1_555
Pb1J O5J 1_555 1_555
Pb1F O5F 1_555 1_555
Pb1K O4B 1_555 1_555
O5I Pb1I 1_555 1_555
O6I Pb1I 1_555 1_555
O3P_2 Pb1I 1_555 1_555
O4S_2 Pb1I 1_555 1_555
O4P_2 Pb1I 1_555 1_555
O5L Pb1L 1_555 1_555
O6L Pb1L 1_555 1_555
O3K_2 Pb1L 1_555 1_555
O4B_2 Pb1L 1_555 1_555
O4K_2 Pb1L 1_555 1_555
O5N Pb1N 1_555 1_555
O6N Pb1N 1_555 1_555
O3G_2 Pb1N 1_555 1_555
O4D_2 Pb1N 1_555 1_555
O4G_2 Pb1N 1_555 1_555
Pb1G O4D 1_555 1_555
Pb1P O4S 1_555 1_555
O6 C4 1_555 1_555
C5 C6 1_555 1_555
C9 C10 1_555 1_555
C11 C11W 1_555 1_555
C6U C7U 1_555 1_555
O4U Pb1U 1_555 1_555
C10H C11O 1_555 1_555
O6H Pb1H 1_555 1_555
C11H C12H 1_555 1_555
C11H C11O 1_555 1_555
C12H C11W 1_555 1_555
C10J C11Q 1_555 1_555
O6J Pb1J 1_555 1_555
C10B C11S 1_555 1_555
O6B Pb1B 1_555 1_555
C11B C12B 1_555 1_555
C11B C11S 1_555 1_555
C12B C11Q 1_555 1_555
C10F C11M 1_555 1_555
O6F Pb1F 1_555 1_555
C10D C11U 1_555 1_555
O5D Pb1U 1_555 1_555
O6D Pb1U 1_555 1_555
C11D C12D 1_555 1_555
C11D C11U 1_555 1_555
C12D C11M 1_555 1_555
H9D H9H 1_555 1_555
O3I Pb1I 1_555 1_555
O4I Pb1I 1_555 1_555
C5I C6I 1_555 1_555
C6L C7L 1_555 1_555
O3L Pb1L 1_555 1_555
O4L Pb1U 1_555 1_555
O4L Pb1L 1_555 1_555
O4W C3W 1_555 1_555
C5W C6W 1_555 1_555
C6B C7B 1_555 1_555
O3B Pb1B 1_555 1_555
O4B Pb1B 1_555 1_555
O3N Pb1N 1_555 1_555
O4N Pb1N 1_555 1_555
C5N C6N 1_555 1_555
C6K C7K 1_555 1_555
O3K Pb1K 1_555 1_555
O4K Pb1B 1_555 1_555
O4K Pb1K 1_555 1_555
O4D C3D 1_555 1_555
C5D C6D 1_555 1_555
C6S C7S 1_555 1_555
C3S O3S 1_555 1_555
C3S O4S 1_555 1_555
O3G Pb1G 1_555 1_555
O4G Pb1G 1_555 1_555
C5G C6G 1_555 1_555
C6P C7P 1_555 1_555
C3P O4P 1_555 1_555
O3P Pb1P 1_555 1_555
O4P Pb1P 1_555 1_555

#END
