
#######################################################################
#
#                 Cambridge Crystallographic Data Centre
#                                CCDC 
#
#######################################################################
#
# If this CIF has been generated from an entry in the Cambridge 
# Structural Database, then it will include bibliographic, chemical, 
# crystal, experimental, refinement or atomic coordinate data resulting 
# from the CCDC's data processing and validation procedures.
#
#######################################################################

data_FARHUD
_symmetry_cell_setting           triclinic
_symmetry_space_group_name_H-M   'P -1'
_symmetry_Int_Tables_number      2
_space_group_name_Hall           '-P 1'
loop_
_symmetry_equiv_pos_site_id
_symmetry_equiv_pos_as_xyz
1 x,y,z
2 -x,-y,-z
_cell_length_a                   5.8602(9)
_cell_length_b                   11.1388(17)
_cell_length_c                   12.2634(18)
_cell_angle_alpha                77.982(2)
_cell_angle_beta                 77.019(2)
_cell_angle_gamma                80.274(2)
_cell_volume                     756.653
loop_
_atom_site_label
_atom_site_type_symbol
_atom_site_fract_x
_atom_site_fract_y
_atom_site_fract_z
Cu1 Cu 0.5000 -0.5000 0.5000
O1 O 0.4105(2) -0.43956(11) 0.35253(11)
O2 O 0.7525(3) -0.55049(15) 0.30372(14)
O3 O 0.8236(3) 0.12512(18) 0.12218(18)
H1 H 0.859(6) 0.187(3) 0.140(3)
O4 O 0.4610(3) 0.19407(18) 0.20085(19)
C1 C 0.5688(4) -0.48711(17) 0.27892(17)
C2 C 0.5216(5) -0.4692(2) 0.1598(2)
H2 H 0.468(4) -0.545(2) 0.156(2)
H3 H 0.670(5) -0.466(2) 0.109(2)
C3 C 0.3429(5) -0.3578(2) 0.1297(2)
H4 H 0.194(4) -0.369(2) 0.177(2)
H5 H 0.321(4) -0.350(2) 0.052(2)
C4 C 0.4102(4) -0.2354(2) 0.13688(18)
C5 C 0.2495(4) -0.1489(2) 0.1908(2)
H6 H 0.103(4) -0.171(2) 0.2227(19)
C6 C 0.3089(4) -0.0361(2) 0.1962(2)
H7 H 0.200(4) 0.019(2) 0.2341(19)
C7 C 0.5349(4) -0.00581(19) 0.14911(17)
C8 C 0.5991(4) 0.1137(2) 0.16017(19)
C9 C 0.6978(4) -0.0914(2) 0.09536(19)
H8 H 0.844(4) -0.071(2) 0.062(2)
C10 C 0.6354(4) -0.2038(2) 0.0893(2)
H9 H 0.746(4) -0.257(2) 0.050(2)
C11 C 0.0780(4) -0.99097(18) 0.52780(18)
H10 H 0.143(4) -1.058(2) 0.5763(19)
C12 C 0.1631(3) -0.87344(17) 0.52242(16)
C13 C 0.0742(4) -0.76045(18) 0.46424(18)
H11 H -0.049(4) -0.753(2) 0.4252(19)
C14 C 0.1680(4) -0.65448(18) 0.46169(18)
H12 H 0.110(4) -0.579(2) 0.4224(18)
C15 C 0.4279(4) -0.76158(18) 0.57357(17)
H13 H 0.548(4) -0.7582(19) 0.6125(18)
C16 C 0.3447(4) -0.87137(18) 0.57810(18)
H14 H 0.414(4) -0.946(2) 0.6184(18)
N1 N 0.3445(3) -0.65326(14) 0.51503(13)
Cu1_2 Cu -0.5000 -1.5000 0.5000
O1A O 0.5895(2) -0.56044(11) 0.64747(11)
O2A O 0.2475(3) -0.44951(15) 0.69628(14)
O3A O 0.1764(3) -1.12512(18) 0.87782(18)
H1A H 0.141(6) -1.187(3) 0.860(3)
O4A O 0.5390(3) -1.19407(18) 0.79915(19)
C1A C 0.4312(4) -0.51289(17) 0.72108(17)
C2A C 0.4784(5) -0.5308(2) 0.8402(2)
H2A H 0.532(4) -0.455(2) 0.844(2)
H3A H 0.330(5) -0.534(2) 0.891(2)
C3A C 0.6571(5) -0.6422(2) 0.8703(2)
H4A H 0.806(4) -0.631(2) 0.823(2)
H5A H 0.679(4) -0.650(2) 0.948(2)
C4A C 0.5898(4) -0.7646(2) 0.86312(18)
C5A C 0.7505(4) -0.8511(2) 0.8092(2)
H6A H 0.897(4) -0.829(2) 0.7773(19)
C6A C 0.6911(4) -0.9639(2) 0.8038(2)
H7A H 0.800(4) -1.019(2) 0.7659(19)
C7A C 0.4651(4) -0.99419(19) 0.85089(17)
C8A C 0.4009(4) -1.1137(2) 0.83983(19)
C9A C 0.3022(4) -0.9086(2) 0.90464(19)
H8A H 0.156(4) -0.929(2) 0.938(2)
C10A C 0.3646(4) -0.7962(2) 0.9107(2)
H9A H 0.254(4) -0.743(2) 0.950(2)
C11A C -0.0780(4) -1.00903(18) 0.47220(18)
H10A H -0.143(4) -0.942(2) 0.4237(19)
C12A C -0.1631(3) -1.12656(17) 0.47758(16)
C13A C -0.0742(4) -1.23955(18) 0.53576(18)
H11A H 0.049(4) -1.247(2) 0.5748(19)
C14A C -0.1680(4) -1.34552(18) 0.53831(18)
H12A H -0.110(4) -1.421(2) 0.5776(18)
C15A C -0.4279(4) -1.23842(18) 0.42643(17)
H13A H -0.548(4) -1.2418(19) 0.3875(18)
C16A C -0.3447(4) -1.12863(18) 0.42190(18)
H14A H -0.414(4) -1.054(2) 0.3816(18)
N1A N -0.3445(3) -1.34674(14) 0.48497(13)
N1A_2 N 0.6555(3) -0.34674(14) 0.48497(13)
O5 O 0.0102(4) 0.3049(2) 0.1562(2)
H15 H -0.058(6) 0.351(3) 0.200(3)
H16 H 0.133(6) 0.278(3) 0.178(3)
loop_
_geom_bond_atom_site_label_1
_geom_bond_atom_site_label_2
_geom_bond_site_symmetry_1
_geom_bond_site_symmetry_2
Cu1 O1 1_555 1_555
O1 C1 1_555 1_555
O2 Cu1 1_555 1_555
O3 H1 1_555 1_555
O4 C8 1_555 1_555
C1 O2 1_555 1_555
C2 C1 1_555 1_555
H2 C2 1_555 1_555
H3 C2 1_555 1_555
C3 C2 1_555 1_555
H4 C3 1_555 1_555
H5 C3 1_555 1_555
C4 C3 1_555 1_555
C5 C4 1_555 1_555
H6 C5 1_555 1_555
C6 C5 1_555 1_555
H7 C6 1_555 1_555
C7 C6 1_555 1_555
C8 O3 1_555 1_555
C9 C7 1_555 1_555
H8 C9 1_555 1_555
C10 C4 1_555 1_555
H9 C10 1_555 1_555
C11 H10 1_555 1_555
C12 C11 1_555 1_555
C13 C12 1_555 1_555
H11 C13 1_555 1_555
C14 C13 1_555 1_555
H12 C14 1_555 1_555
C15 H13 1_555 1_555
C16 C12 1_555 1_555
H14 C16 1_555 1_555
N1 Cu1 1_555 1_555
O5 H15 1_555 1_555
H16 O5 1_555 1_555
Cu1_2 N1A 1_555 1_555
O1A Cu1 1_555 1_555
O2A Cu1 1_555 1_555
O3A H1A 1_555 1_555
O4A C8A 1_555 1_555
C1A O1A 1_555 1_555
C2A C1A 1_555 1_555
H2A C2A 1_555 1_555
H3A C2A 1_555 1_555
C3A C2A 1_555 1_555
H4A C3A 1_555 1_555
H5A C3A 1_555 1_555
C4A C3A 1_555 1_555
C5A C4A 1_555 1_555
H6A C5A 1_555 1_555
C6A C5A 1_555 1_555
H7A C6A 1_555 1_555
C7A C6A 1_555 1_555
C8A O3A 1_555 1_555
C9A C7A 1_555 1_555
H8A C9A 1_555 1_555
C10A C4A 1_555 1_555
H9A C10A 1_555 1_555
C11A C11 1_555 1_555
H10A C11A 1_555 1_555
C12A C11A 1_555 1_555
C13A C12A 1_555 1_555
H11A C13A 1_555 1_555
C14A C13A 1_555 1_555
H12A C14A 1_555 1_555
C15A H13A 1_555 1_555
C16A C12A 1_555 1_555
H14A C16A 1_555 1_555
N1A C14A 1_555 1_555
N1A_2 Cu1 1_555 1_555
C7 C8 1_555 1_555
C9 C10 1_555 1_555
C14 N1 1_555 1_555
C15 C16 1_555 1_555
C15 N1 1_555 1_555
O2A C1A 1_555 1_555
C7A C8A 1_555 1_555
C9A C10A 1_555 1_555
C15A C16A 1_555 1_555
C15A N1A 1_555 1_555

#END
