
#######################################################################
#
#                 Cambridge Crystallographic Data Centre
#                                CCDC 
#
#######################################################################
#
# If this CIF has been generated from an entry in the Cambridge 
# Structural Database, then it will include bibliographic, chemical, 
# crystal, experimental, refinement or atomic coordinate data resulting 
# from the CCDC's data processing and validation procedures.
#
#######################################################################

data_FARJEP
_symmetry_cell_setting           monoclinic
_symmetry_space_group_name_H-M   'C c'
_symmetry_Int_Tables_number      9
_space_group_name_Hall           'C -2yc'
loop_
_symmetry_equiv_pos_site_id
_symmetry_equiv_pos_as_xyz
1 x,y,z
2 x,-y,1/2+z
3 1/2+x,1/2+y,z
4 1/2+x,1/2-y,1/2+z
_cell_length_a                   16.475(3)
_cell_length_b                   20.866(4)
_cell_length_c                   12.955(2)
_cell_angle_alpha                90
_cell_angle_beta                 92.389(2)
_cell_angle_gamma                90
_cell_volume                     4449.64
loop_
_atom_site_label
_atom_site_type_symbol
_atom_site_fract_x
_atom_site_fract_y
_atom_site_fract_z
Cu1 Cu -0.69382(3) 0.005330(13) 0.23578(3)
O5 O -0.28175(14) 0.43878(11) 0.2350(2)
O6 O -0.29233(19) 0.42846(13) 0.0656(2)
O7 O -0.64957(19) 0.08462(14) 0.0487(2)
O8 O -0.60718(13) 0.06848(10) 0.2121(2)
O13 O -0.67536(17) 0.02200(13) 0.4242(2)
H9 H -0.7174 0.0421 0.4422
H10 H -0.6727 -0.0139 0.4551
C11 C -0.3099(2) 0.41241(15) 0.1528(3)
C12 C -0.3707(2) 0.35903(17) 0.1690(3)
H19 H -0.3570 0.3385 0.2346
H20 H -0.4240 0.3781 0.1742
C13 C -0.3757(3) 0.30919(18) 0.0884(4)
H21 H -0.3221 0.2907 0.0830
H22 H -0.3894 0.3300 0.0230
C14 C -0.4356(2) 0.25438(14) 0.1015(3)
C15 C -0.4879(2) 0.23688(16) 0.0207(3)
H23 H -0.4872 0.2597 -0.0410
C16 C -0.5410(2) 0.18653(16) 0.0288(3)
H24 H -0.5751 0.1758 -0.0276
C17 C -0.60478(19) 0.09774(14) 0.1255(3)
C18 C -0.54480(19) 0.15166(13) 0.1183(2)
C19 C -0.4934(2) 0.16870(17) 0.1999(3)
H25 H -0.4944 0.1460 0.2616
C20 C -0.4396(2) 0.21987(18) 0.1909(3)
H26 H -0.4055 0.2308 0.2472
C33 C -0.8050(2) 0.18369(14) 0.2814(3)
H37 H -0.7873 0.2224 0.3099
C34 C -0.7531(2) 0.13258(14) 0.2783(3)
H38 H -0.7003 0.1374 0.3053
C35 C -0.8510(2) 0.06966(13) 0.2015(3)
H39 H -0.8673 0.0304 0.1738
C36 C -0.9063(2) 0.11884(15) 0.2030(3)
H40 H -0.9592 0.1123 0.1774
C37 C -0.8835(2) 0.17771(15) 0.2422(3)
C38 C -0.9431(2) 0.23020(14) 0.2398(3)
H41 H -0.9959 0.2203 0.2173
C39 C -0.92821(19) 0.29013(13) 0.2668(3)
H42 H -0.8760 0.3011 0.2904
C40 C -0.99043(19) 0.34000(13) 0.2612(2)
C41 C -0.9717(2) 0.40409(15) 0.2817(3)
H43 H -0.9189 0.4158 0.3014
C42 C -1.0314(2) 0.44963(14) 0.2728(3)
H44 H -1.0170 0.4921 0.2850
C43 C -1.1266(2) 0.37514(15) 0.2309(4)
H45 H -1.1801 0.3641 0.2134
C44 C -1.0697(2) 0.32714(15) 0.2381(4)
H46 H -1.0859 0.2849 0.2270
N1 N -0.77546(16) 0.07621(12) 0.2380(2)
N2 N -1.10913(16) 0.43673(12) 0.2477(2)
Cu1B Cu -1.19382(3) 0.505330(13) 0.23578(3)
Cu1B_2 Cu -0.19382(3) 0.505330(13) 0.23578(3)
O5B O -0.78175(14) -0.06122(11) 0.2350(2)
N2B N -0.60913(16) -0.06327(12) 0.2477(2)
Cu2 Cu -0.15338(7) 0.11672(6) 0.00257(5)
O1 O -0.14437(14) 0.09807(11) 0.85022(18)
O2 O -0.24547(15) 0.16645(12) 0.84937(19)
O3 O -0.2318(2) 0.2048(2) 0.1463(2)
O4 O -0.1464(2) 0.12521(14) 0.1474(2)
O9 O -0.0528(2) 0.0308(2) 0.0502(4)
H2 H -0.0323 0.0054 0.0957
C1 C -0.1985(2) 0.13089(17) 0.8033(3)
C2 C -0.2047(3) 0.1285(2) 0.6871(3)
H11 H -0.1902 0.0859 0.6642
H12 H -0.2605 0.1365 0.6638
C3 C -0.1508(3) 0.1763(2) 0.6394(3)
H13 H -0.0950 0.1679 0.6623
H14 H -0.1649 0.2188 0.6632
C4 C -0.1570(3) 0.17511(19) 0.5237(3)
C5 C -0.2080(3) 0.2176(2) 0.4687(3)
H15 H -0.2368 0.2480 0.5047
C6 C -0.2166(3) 0.2155(2) 0.3626(3)
H16 H -0.2502 0.2447 0.3273
C7 C -0.1746(2) 0.16939(19) 0.3087(3)
C8 C -0.1866(3) 0.1681(2) 0.1913(3)
C9 C -0.1231(3) 0.12795(18) 0.3609(3)
H17 H -0.0939 0.0979 0.3247
C10 C -0.1147(3) 0.13097(19) 0.4689(3)
H18 H -0.0798 0.1026 0.5039
C21 C -0.3028(2) -0.04233(17) -0.0466(3)
H27 H -0.2915 -0.0811 -0.0785
C22 C -0.2452(2) 0.00442(18) -0.0393(3)
H28 H -0.1950 -0.0036 -0.0672
C23 C -0.3278(3) 0.07089(19) 0.0430(4)
H29 H -0.3365 0.1105 0.0735
C24 C -0.3912(3) 0.02591(18) 0.0404(4)
H30 H -0.4406 0.0351 0.0695
C25 C -0.3785(2) -0.03195(15) -0.0065(3)
C26 C -0.4420(2) -0.08231(16) -0.0081(3)
H31 H -0.4952 -0.0701 0.0034
C27 C -0.4273(2) -0.14379(15) -0.0252(3)
H32 H -0.3738 -0.1545 -0.0378
C28 C -0.4856(2) -0.19669(16) -0.0264(3)
C29 C -0.4589(3) -0.25954(17) -0.0311(3)
H33 H -0.4038 -0.2677 -0.0372
C30 C -0.5116(4) -0.3094(2) -0.0269(3)
H34 H -0.4912 -0.3508 -0.0310
C31 C -0.6189(3) -0.2412(3) -0.0176(3)
H35 H -0.6746 -0.2351 -0.0139
C32 C -0.5688(3) -0.1867(2) -0.0236(3)
H36 H -0.5906 -0.1455 -0.0256
N3 N -0.2562(2) 0.05958(17) 0.0043(2)
N4 N -0.5901(3) -0.30161(19) -0.0171(3)
Cu2B Cu -0.65338(7) -0.38328(6) 0.00257(5)
Cu2_2 Cu -0.15338(7) 0.11672(6) 1.00257(5)
O1_2 O -0.14437(14) 0.09807(11) -0.14978(18)
N4B N -0.0901(3) 0.19839(19) -0.0171(3)
O10 O -0.4155(3) 0.5037(2) 0.9424(4)
H3 H -0.3757 0.4794 0.9593
H4 H -0.3840 0.5360 0.9409
O11 O -0.0229(3) 0.0235(2) 0.7553(4)
H5 H -0.0678 0.0306 0.7830
H6 H 0.0061 0.0084 0.8053
O12 O -0.8048(3) 0.1159(2) 0.9376(3)
H7 H -0.7709 0.1121 0.9885
H8 H -0.8025 0.0987 0.8784
H1? H -0.0850 0.0497 0.0898
Cu3? Cu -0.19528(16) 0.14302(11) -0.00535(9)
loop_
_geom_bond_atom_site_label_1
_geom_bond_atom_site_label_2
_geom_bond_site_symmetry_1
_geom_bond_site_symmetry_2
Cu1 O8 1_555 1_555
Cu2 O4 1_555 1_555
O1 C1 1_555 1_555
O2 C1 1_555 1_555
O3 C8 1_555 1_555
O4 C8 1_555 1_555
O5 C11 1_555 1_555
O6 C11 1_555 1_555
O7 C17 1_555 1_555
O8 C17 1_555 1_555
O9 Cu2 1_555 1_555
H2 O9 1_555 1_555
O10 H3 1_555 1_555
H4 O10 1_555 1_555
O11 H5 1_555 1_555
H6 O11 1_555 1_555
O12 H7 1_555 1_555
H8 O12 1_555 1_555
O13 Cu1 1_555 1_555
H9 O13 1_555 1_555
H10 O13 1_555 1_555
C1 C2 1_555 1_555
C2 H11 1_555 1_555
H12 C2 1_555 1_555
C3 C2 1_555 1_555
H13 C3 1_555 1_555
H14 C3 1_555 1_555
C4 C3 1_555 1_555
C5 C4 1_555 1_555
H15 C5 1_555 1_555
C6 C5 1_555 1_555
H16 C6 1_555 1_555
C7 C6 1_555 1_555
C8 C7 1_555 1_555
C9 C7 1_555 1_555
H17 C9 1_555 1_555
C10 C4 1_555 1_555
H18 C10 1_555 1_555
C11 C12 1_555 1_555
C12 H19 1_555 1_555
H20 C12 1_555 1_555
C13 C12 1_555 1_555
H21 C13 1_555 1_555
H22 C13 1_555 1_555
C14 C13 1_555 1_555
C15 C14 1_555 1_555
H23 C15 1_555 1_555
C16 C15 1_555 1_555
H24 C16 1_555 1_555
C17 C18 1_555 1_555
C18 C16 1_555 1_555
C19 C18 1_555 1_555
H25 C19 1_555 1_555
C20 C14 1_555 1_555
H26 C20 1_555 1_555
C21 H27 1_555 1_555
C22 C21 1_555 1_555
H28 C22 1_555 1_555
C23 H29 1_555 1_555
C24 C23 1_555 1_555
H30 C24 1_555 1_555
C25 C21 1_555 1_555
C26 C25 1_555 1_555
H31 C26 1_555 1_555
C27 C26 1_555 1_555
H32 C27 1_555 1_555
C28 C27 1_555 1_555
C29 C28 1_555 1_555
H33 C29 1_555 1_555
C30 C29 1_555 1_555
H34 C30 1_555 1_555
C31 H35 1_555 1_555
C32 C28 1_555 1_555
H36 C32 1_555 1_555
C33 H37 1_555 1_555
C34 C33 1_555 1_555
H38 C34 1_555 1_555
C35 H39 1_555 1_555
C36 C35 1_555 1_555
H40 C36 1_555 1_555
C37 C33 1_555 1_555
C38 C37 1_555 1_555
H41 C38 1_555 1_555
C39 C38 1_555 1_555
H42 C39 1_555 1_555
C40 C39 1_555 1_555
C41 C40 1_555 1_555
H43 C41 1_555 1_555
C42 C41 1_555 1_555
H44 C42 1_555 1_555
C43 H45 1_555 1_555
C44 C40 1_555 1_555
H46 C44 1_555 1_555
N1 Cu1 1_555 1_555
N2 C42 1_555 1_555
N3 Cu2 1_555 1_555
N4 C30 1_555 1_555
Cu1B N2 1_555 1_555
Cu1B_2 O5 1_555 1_555
Cu2B N4 1_555 1_555
Cu2_2 O1 1_555 1_555
O1_2 Cu2 1_555 1_555
O5B Cu1 1_555 1_555
N2B Cu1 1_555 1_555
N4B Cu2 1_555 1_555
C9 C10 1_555 1_555
C19 C20 1_555 1_555
C22 N3 1_555 1_555
C23 N3 1_555 1_555
C24 C25 1_555 1_555
C31 C32 1_555 1_555
C31 N4 1_555 1_555
C34 N1 1_555 1_555
C35 N1 1_555 1_555
C36 C37 1_555 1_555
C43 C44 1_555 1_555
C43 N2 1_555 1_555

#END
