
#######################################################################
#
#                 Cambridge Crystallographic Data Centre
#                                CCDC 
#
#######################################################################
#
# If this CIF has been generated from an entry in the Cambridge 
# Structural Database, then it will include bibliographic, chemical, 
# crystal, experimental, refinement or atomic coordinate data resulting 
# from the CCDC's data processing and validation procedures.
#
#######################################################################

data_FARJOZ
_symmetry_cell_setting           triclinic
_symmetry_space_group_name_H-M   'P -1'
_symmetry_Int_Tables_number      2
_space_group_name_Hall           '-P 1'
loop_
_symmetry_equiv_pos_site_id
_symmetry_equiv_pos_as_xyz
1 x,y,z
2 -x,-y,-z
_cell_length_a                   7.57(2)
_cell_length_b                   10.52(3)
_cell_length_c                   12.86(3)
_cell_angle_alpha                92.60(3)
_cell_angle_beta                 100.14(3)
_cell_angle_gamma                93.61(3)
_cell_volume                     1004.47
loop_
_atom_site_label
_atom_site_type_symbol
_atom_site_fract_x
_atom_site_fract_y
_atom_site_fract_z
Ni1 Ni 0.0000 0.0000 0.0000
N1 N 0.1653(5) -0.1546(3) 0.0329(3)
O1 O 0.1953(4) 0.1215(3) 0.0942(3)
O2 O 0.0460(4) 0.1825(3) 0.2203(3)
O3 O 1.0269(5) 0.7952(4) 0.2707(3)
O4 O 1.1275(5) 0.6667(4) 0.3941(3)
H1 H 1.2248 0.7043 0.3917
O5 O 0.1305(4) 0.0320(3) -0.1319(3)
H2 H 0.0758 0.0881 -0.1679
H3 H 0.0747 -0.0367 -0.1597
C1 C 0.1807(6) 0.1861(4) 0.1762(4)
C2 C 0.3411(6) 0.2718(4) 0.2279(4)
C3 C 0.3216(6) 0.3816(5) 0.2872(4)
H4 H 0.2071 0.4026 0.2952
C4 C 0.4679(6) 0.4596(5) 0.3339(4)
H5 H 0.4515 0.5334 0.3726
C5 C 0.6401(6) 0.4301(5) 0.3244(4)
C6 C 0.6597(6) 0.3209(5) 0.2666(4)
H6 H 0.7746 0.2988 0.2606
C7 C 0.5129(6) 0.2430(4) 0.2170(4)
H7 H 0.5294 0.1709 0.1762
C8 C 0.8008(7) 0.5198(5) 0.3706(5)
H8 H 0.7751 0.5687 0.4313
H9 H 0.9033 0.4710 0.3944
C9 C 0.8453(7) 0.6093(5) 0.2893(5)
H10 H 0.8588 0.5581 0.2269
H11 H 0.7428 0.6594 0.2692
C10 C 1.0094(6) 0.6997(5) 0.3193(4)
C11 C 0.3424(6) -0.1351(4) 0.0397(4)
H12 H 0.3904 -0.0516 0.0390
C12 C 0.4583(6) -0.2303(5) 0.0476(4)
H13 H 0.5808 -0.2108 0.0512
C13 C 0.3933(6) -0.3546(5) 0.0501(4)
C14 C 0.2111(7) -0.3743(4) 0.0474(4)
H14 H 0.1606 -0.4564 0.0515
C15 C 0.1050(6) -0.2753(4) 0.0388(4)
H15 H -0.0176 -0.2926 0.0368
C16 C 0.5125(7) -0.4635(5) 0.0522(4)
H16 H 0.6371 -0.4305 0.0719
H17 H 0.4865 -0.5207 0.1055
Ni1_2 Ni 1.0000 -1.0000 0.0000
N1A N 0.8347(5) -0.8454(3) -0.0329(3)
N1A_2 N -0.1653(5) 0.1546(3) -0.0329(3)
O1A O -0.1953(4) -0.1215(3) -0.0942(3)
O2A O -0.0460(4) -0.1825(3) -0.2203(3)
O3A O -1.0269(5) -0.7952(4) -0.2707(3)
O4A O -1.1275(5) -0.6667(4) -0.3941(3)
H1A H -1.2248 -0.7043 -0.3917
O5A O -0.1305(4) -0.0320(3) 0.1319(3)
H2A H -0.0758 -0.0881 0.1679
H3A H -0.0747 0.0367 0.1597
C1A C -0.1807(6) -0.1861(4) -0.1762(4)
C2A C -0.3411(6) -0.2718(4) -0.2279(4)
C3A C -0.3216(6) -0.3816(5) -0.2872(4)
H4A H -0.2071 -0.4026 -0.2952
C4A C -0.4679(6) -0.4596(5) -0.3339(4)
H5A H -0.4515 -0.5334 -0.3726
C5A C -0.6401(6) -0.4301(5) -0.3244(4)
C6A C -0.6597(6) -0.3209(5) -0.2666(4)
H6A H -0.7746 -0.2988 -0.2606
C7A C -0.5129(6) -0.2430(4) -0.2170(4)
H7A H -0.5294 -0.1709 -0.1762
C8A C -0.8008(7) -0.5198(5) -0.3706(5)
H8A H -0.7751 -0.5687 -0.4313
H9A H -0.9033 -0.4710 -0.3944
C9A C -0.8453(7) -0.6093(5) -0.2893(5)
H10A H -0.8588 -0.5581 -0.2269
H11A H -0.7428 -0.6594 -0.2692
C10A C -1.0094(6) -0.6997(5) -0.3193(4)
C11A C 0.6576(6) -0.8649(4) -0.0397(4)
H12A H 0.6096 -0.9484 -0.0390
C12A C 0.5417(6) -0.7697(5) -0.0476(4)
H13A H 0.4192 -0.7892 -0.0512
C13A C 0.6067(6) -0.6454(5) -0.0501(4)
C14A C 0.7889(7) -0.6257(4) -0.0474(4)
H14A H 0.8394 -0.5436 -0.0515
C15A C 0.8950(6) -0.7247(4) -0.0388(4)
H15A H 1.0176 -0.7074 -0.0368
C16A C 0.4875(7) -0.5365(5) -0.0522(4)
H16A H 0.3629 -0.5695 -0.0719
H17A H 0.5135 -0.4793 -0.1055
N2 N 0.4198(5) 0.8063(4) 0.4153(4)
C17 C 0.4709(7) 0.8702(6) 0.3376(5)
H18 H 0.3916 0.8710 0.2736
C18 C 0.6356(7) 0.9349(6) 0.3483(4)
H19 H 0.6684 0.9759 0.2913
C19 C 0.6983(7) 0.8727(6) 0.5211(5)
H20 H 0.7745 0.8698 0.5860
C20 C 0.5310(7) 0.8094(6) 0.5045(5)
H21 H 0.4956 0.7666 0.5600
C21 C 0.7532(6) 0.9397(5) 0.4431(4)
C22 C 0.9308(6) 1.0162(5) 0.4555(5)
H22 H 0.9777 1.0049 0.3905
H23 H 0.9102 1.1058 0.4647
N2A N 1.5802(5) 1.1937(4) 0.5847(4)
C17A C 1.5291(7) 1.1298(6) 0.6624(5)
H18A H 1.6084 1.1290 0.7264
C18A C 1.3644(7) 1.0651(6) 0.6517(4)
H19A H 1.3316 1.0241 0.7087
C19A C 1.3017(7) 1.1273(6) 0.4789(5)
H20A H 1.2255 1.1302 0.4140
C20A C 1.4690(7) 1.1906(6) 0.4955(5)
H21A H 1.5044 1.2334 0.4400
C21A C 1.2468(6) 1.0603(5) 0.5569(4)
C22A C 1.0692(6) 0.9838(5) 0.5445(5)
H22A H 1.0223 0.9951 0.6095
H23A H 1.0898 0.8942 0.5353
loop_
_geom_bond_atom_site_label_1
_geom_bond_atom_site_label_2
_geom_bond_site_symmetry_1
_geom_bond_site_symmetry_2
Ni1 N1 1_555 1_555
N1 C11 1_555 1_555
O1 Ni1 1_555 1_555
O2 C1 1_555 1_555
O3 C10 1_555 1_555
O4 H1 1_555 1_555
O5 Ni1 1_555 1_555
H2 O5 1_555 1_555
H3 O5 1_555 1_555
C1 O1 1_555 1_555
C2 C1 1_555 1_555
C3 C2 1_555 1_555
H4 C3 1_555 1_555
C4 C3 1_555 1_555
H5 C4 1_555 1_555
C5 C4 1_555 1_555
C6 C5 1_555 1_555
H6 C6 1_555 1_555
C7 C2 1_555 1_555
H7 C7 1_555 1_555
C8 C5 1_555 1_555
H8 C8 1_555 1_555
H9 C8 1_555 1_555
C9 C8 1_555 1_555
H10 C9 1_555 1_555
H11 C9 1_555 1_555
C10 O4 1_555 1_555
C11 H12 1_555 1_555
C12 C11 1_555 1_555
H13 C12 1_555 1_555
C13 C12 1_555 1_555
C14 C13 1_555 1_555
H14 C14 1_555 1_555
C15 N1 1_555 1_555
H15 C15 1_555 1_555
C16 C13 1_555 1_555
H16 C16 1_555 1_555
H17 C16 1_555 1_555
N2 C17 1_555 1_555
C17 H18 1_555 1_555
C18 C17 1_555 1_555
H19 C18 1_555 1_555
C19 H20 1_555 1_555
C20 N2 1_555 1_555
H21 C20 1_555 1_555
C21 C18 1_555 1_555
C22 C21 1_555 1_555
H22 C22 1_555 1_555
H23 C22 1_555 1_555
Ni1_2 N1A 1_555 1_555
N1A C11A 1_555 1_555
N1A_2 Ni1 1_555 1_555
O1A Ni1 1_555 1_555
O2A C1A 1_555 1_555
O3A C10A 1_555 1_555
O4A H1A 1_555 1_555
O5A Ni1 1_555 1_555
H2A O5A 1_555 1_555
H3A O5A 1_555 1_555
C1A O1A 1_555 1_555
C2A C1A 1_555 1_555
C3A C2A 1_555 1_555
H4A C3A 1_555 1_555
C4A C3A 1_555 1_555
H5A C4A 1_555 1_555
C5A C4A 1_555 1_555
C6A C5A 1_555 1_555
H6A C6A 1_555 1_555
C7A C2A 1_555 1_555
H7A C7A 1_555 1_555
C8A C5A 1_555 1_555
H8A C8A 1_555 1_555
H9A C8A 1_555 1_555
C9A C8A 1_555 1_555
H10A C9A 1_555 1_555
H11A C9A 1_555 1_555
C10A O4A 1_555 1_555
C11A H12A 1_555 1_555
C12A C11A 1_555 1_555
H13A C12A 1_555 1_555
C13A C12A 1_555 1_555
C14A C13A 1_555 1_555
H14A C14A 1_555 1_555
C15A N1A 1_555 1_555
H15A C15A 1_555 1_555
C16A C16 1_555 1_555
H16A C16A 1_555 1_555
H17A C16A 1_555 1_555
N2A C17A 1_555 1_555
C17A H18A 1_555 1_555
C18A C17A 1_555 1_555
H19A C18A 1_555 1_555
C19A H20A 1_555 1_555
C20A N2A 1_555 1_555
H21A C20A 1_555 1_555
C21A C18A 1_555 1_555
C22A C22 1_555 1_555
H22A C22A 1_555 1_555
H23A C22A 1_555 1_555
C6 C7 1_555 1_555
C9 C10 1_555 1_555
C14 C15 1_555 1_555
C19 C20 1_555 1_555
C19 C21 1_555 1_555
C6A C7A 1_555 1_555
C9A C10A 1_555 1_555
C13A C16A 1_555 1_555
C14A C15A 1_555 1_555
C19A C20A 1_555 1_555
C19A C21A 1_555 1_555
C21A C22A 1_555 1_555

#END
