
#######################################################################
#
#                 Cambridge Crystallographic Data Centre
#                                CCDC 
#
#######################################################################
#
# If this CIF has been generated from an entry in the Cambridge 
# Structural Database, then it will include bibliographic, chemical, 
# crystal, experimental, refinement or atomic coordinate data resulting 
# from the CCDC's data processing and validation procedures.
#
#######################################################################

data_FARJIT
_symmetry_cell_setting           orthorhombic
_symmetry_space_group_name_H-M   'I b a 2'
_symmetry_Int_Tables_number      45
_space_group_name_Hall           'I 2 -2c'
loop_
_symmetry_equiv_pos_site_id
_symmetry_equiv_pos_as_xyz
1 x,y,z
2 -x,-y,z
3 1/2+x,1/2-y,z
4 1/2-x,1/2+y,z
5 1/2+x,1/2+y,1/2+z
6 1/2-x,1/2-y,1/2+z
7 x,-y,1/2+z
8 -x,y,1/2+z
_cell_length_a                   28.262(5)
_cell_length_b                   9.1619(18)
_cell_length_c                   20.511(4)
_cell_angle_alpha                90
_cell_angle_beta                 90
_cell_angle_gamma                90
_cell_volume                     5310.99
loop_
_atom_site_label
_atom_site_type_symbol
_atom_site_fract_x
_atom_site_fract_y
_atom_site_fract_z
Ni1 Ni 0.13964(2) 1.10059(8) 0.36087(13)
N1 N 0.1821(4) 1.0010(10) 0.2805(5)
N2 N 0.3199(4) 0.4701(9) -0.0614(5)
N3 N 0.10219(17) 0.9036(6) 0.3618(8)
O1 O 0.0959(3) 1.1691(9) 0.4294(4)
O2 O 0.1349(4) 1.3582(14) 0.4703(6)
O3 O -0.1338(4) 1.3690(14) 0.7515(6)
O4 O -0.0912(3) 1.1866(9) 0.7930(4)
O5 O 0.18006(13) 1.2886(5) 0.3624(5)
H1 H 0.1717 1.3241 0.3259
H2 H 0.1687 1.3265 0.3968
C1 C 0.1022(6) 1.2780(17) 0.4714(6)
C2 C 0.0615(6) 1.2904(18) 0.5218(7)
C3 C 0.0808(4) 1.3177(14) 0.5885(5)
H3 H 0.1123 1.3448 0.5939
C4 C 0.0504(5) 1.3015(18) 0.6441(6)
H4 H 0.0592 1.3438 0.6834
C5 C 0.0070(7) 1.222(4) 0.6405(11)
C6 C -0.0074(7) 1.212(3) 0.5830(11)
H5 H -0.0399 1.2131 0.5755
C7 C 0.0252(7) 1.1971(19) 0.5257(10)
H6 H 0.0204 1.1258 0.4941
C8 C -0.0250(6) 1.214(3) 0.6974(7)
H7 H -0.0268 1.1131 0.7110
H8 H -0.0105 1.2685 0.7328
C9 C -0.0695(4) 1.2640(19) 0.6899(6)
H9 H -0.0853 1.2025 0.6582
H10 H -0.0678 1.3615 0.6716
C10 C -0.1002(4) 1.2704(15) 0.7506(7)
C11 C 0.2280(4) 1.0196(13) 0.2741(6)
H11 H 0.2441 1.0838 0.3013
C12 C 0.2519(6) 0.9424(19) 0.2264(7)
H12 H 0.2848 0.9395 0.2269
C13 C 0.2310(5) 0.8803(13) 0.1853(6)
C14 C 0.1826(6) 0.8699(18) 0.1900(9)
H13 H 0.1663 0.8165 0.1586
C15 C 0.1583(5) 0.9322(15) 0.2369(7)
H14 H 0.1255 0.9269 0.2385
C16 C 0.2561(5) 0.7904(17) 0.1314(10)
H15 H 0.2889 0.7990 0.1310
C17 C 0.2391(6) 0.7062(14) 0.0873(7)
H16 H 0.2065 0.6920 0.0847
C18 C 0.2696(5) 0.6343(16) 0.0422(7)
C19 C 0.3195(6) 0.6258(13) 0.0414(8)
H17 H 0.3380 0.6715 0.0728
C20 C 0.3395(6) 0.5437(19) -0.0101(8)
H18 H 0.3724 0.5389 -0.0088
C21 C 0.2728(5) 0.4674(18) -0.0576(7)
H19 H 0.2563 0.4156 -0.0894
C22 C 0.2463(4) 0.5384(14) -0.0083(6)
H20 H 0.2136 0.5257 -0.0071
C23 C 0.1227(3) 0.7736(8) 0.3549(11)
H21 H 0.1554 0.7710 0.3492
C24 C 0.0989(3) 0.6437(8) 0.3559(13)
H22 H 0.1153 0.5560 0.3534
C25 C 0.0493(2) 0.6439(7) 0.3607(9)
C26 C 0.0281(2) 0.7793(8) 0.3580(9)
H23 H -0.0046 0.7869 0.3533
C27 C 0.0553(2) 0.9020(8) 0.3622(10)
H24 H 0.0398 0.9911 0.3656
C28 C 0.0236(2) 0.5044(9) 0.3589(8)
H25 H 0.0410 0.4183 0.3577
Ni1E Ni 0.36036(2) 0.39941(8) 0.86087(13)
Ni1E_2 Ni 0.36036(2) 0.39941(8) -0.13913(13)
Ni1G Ni -0.13964(2) 1.10059(8) 0.86087(13)
Ni1A Ni -0.13964(2) -0.10059(8) 0.36087(13)
Ni1G_2 Ni -0.13964(2) 1.10059(8) -0.13913(13)
N1E N 0.3179(4) 0.4990(10) 0.7805(5)
N2E N 0.1801(4) 1.0299(9) 0.4386(5)
N2_2 N 0.3199(4) 0.4701(9) 0.9386(5)
N3A N -0.10219(17) 0.0964(6) 0.3618(8)
N3E N 0.39781(17) 0.5964(6) 0.8618(8)
O1G O -0.0959(3) 1.1691(9) -0.0706(4)
O1E O 0.4041(3) 0.3309(9) 0.9294(4)
O2G O -0.1349(4) 1.3582(14) -0.0297(6)
O3G O 0.1338(4) 1.3690(14) 0.2515(6)
O4G O 0.0912(3) 1.1866(9) 0.2930(4)
O4B O 0.4088(3) 0.3134(9) 0.7930(4)
O5E O 0.31994(13) 0.2114(5) 0.8624(5)
H1E H 0.3283 0.1759 0.8259
H2E H 0.3313 0.1735 0.8968
C1G C -0.1022(6) 1.2780(17) -0.0286(6)
C2G C -0.0615(6) 1.2904(18) 0.0218(7)
C3G C -0.0808(4) 1.3177(14) 0.0885(5)
H3G H -0.1123 1.3448 0.0939
C4G C -0.0504(5) 1.3015(18) 0.1441(6)
H4G H -0.0592 1.3438 0.1834
C5G C -0.0070(7) 1.222(4) 0.1405(11)
C6G C 0.0074(7) 1.212(3) 0.0830(11)
H5G H 0.0399 1.2131 0.0755
C7G C -0.0252(7) 1.1971(19) 0.0257(10)
H6G H -0.0204 1.1258 -0.0059
C8G C 0.0250(6) 1.214(3) 0.1974(7)
H7G H 0.0268 1.1131 0.2110
H8G H 0.0105 1.2685 0.2328
C9G C 0.0695(4) 1.2640(19) 0.1899(6)
H9G H 0.0853 1.2025 0.1582
H10G H 0.0678 1.3615 0.1716
C10G C 0.1002(4) 1.2704(15) 0.2506(7)
C11E C 0.2720(4) 0.4804(13) 0.7741(6)
H11E H 0.2559 0.4162 0.8013
C12E C 0.2481(6) 0.5576(19) 0.7264(7)
H12E H 0.2152 0.5605 0.7269
C13E C 0.2690(5) 0.6197(13) 0.6853(6)
C14E C 0.3174(6) 0.6301(18) 0.6900(9)
H13E H 0.3337 0.6835 0.6586
C15E C 0.3417(5) 0.5678(15) 0.7369(7)
H14E H 0.3745 0.5731 0.7385
C16E C 0.2439(5) 0.7096(17) 0.6314(10)
H15E H 0.2111 0.7010 0.6310
C17E C 0.2609(6) 0.7938(14) 0.5873(7)
H16E H 0.2935 0.8080 0.5847
C18E C 0.2304(5) 0.8657(16) 0.5422(7)
C19E C 0.1805(6) 0.8742(13) 0.5414(8)
H17E H 0.1620 0.8285 0.5728
C20E C 0.1605(6) 0.9563(19) 0.4899(8)
H18E H 0.1276 0.9611 0.4912
C21E C 0.2272(5) 1.0326(18) 0.4424(7)
H19E H 0.2437 1.0844 0.4106
C22E C 0.2537(4) 0.9616(14) 0.4917(6)
H20E H 0.2864 0.9743 0.4929
C23A C -0.1227(3) 0.2264(8) 0.3549(11)
H21A H -0.1554 0.2290 0.3492
C24A C -0.0989(3) 0.3563(8) 0.3559(13)
H22A H -0.1153 0.4440 0.3534
C25A C -0.0493(2) 0.3561(7) 0.3607(9)
C26A C -0.0281(2) 0.2207(8) 0.3580(9)
H23A H 0.0046 0.2131 0.3533
C27A C -0.0553(2) 0.0980(8) 0.3622(10)
H24A H -0.0398 0.0089 0.3656
C28A C -0.0236(2) 0.4956(9) 0.3589(8)
H25A H -0.0410 0.5817 0.3577
loop_
_geom_bond_atom_site_label_1
_geom_bond_atom_site_label_2
_geom_bond_site_symmetry_1
_geom_bond_site_symmetry_2
Ni1 N1 1_555 1_555
N1 C11 1_555 1_555
N2 C20 1_555 1_555
N3 Ni1 1_555 1_555
O1 Ni1 1_555 1_555
O2 C1 1_555 1_555
O3 C10 1_555 1_555
O4 C10 1_555 1_555
O5 Ni1 1_555 1_555
H1 O5 1_555 1_555
H2 O5 1_555 1_555
C1 O1 1_555 1_555
C2 C1 1_555 1_555
C3 C2 1_555 1_555
H3 C3 1_555 1_555
C4 C3 1_555 1_555
H4 C4 1_555 1_555
C5 C4 1_555 1_555
C6 C5 1_555 1_555
H5 C6 1_555 1_555
C7 C2 1_555 1_555
H6 C7 1_555 1_555
C8 C5 1_555 1_555
H7 C8 1_555 1_555
H8 C8 1_555 1_555
C9 C8 1_555 1_555
H9 C9 1_555 1_555
H10 C9 1_555 1_555
C10 C9 1_555 1_555
C11 H11 1_555 1_555
C12 C11 1_555 1_555
H12 C12 1_555 1_555
C13 C12 1_555 1_555
C14 C13 1_555 1_555
H13 C14 1_555 1_555
C15 N1 1_555 1_555
H14 C15 1_555 1_555
C16 C13 1_555 1_555
H15 C16 1_555 1_555
C17 C16 1_555 1_555
H16 C17 1_555 1_555
C18 C17 1_555 1_555
C19 C18 1_555 1_555
H17 C19 1_555 1_555
C20 C19 1_555 1_555
H18 C20 1_555 1_555
C21 N2 1_555 1_555
H19 C21 1_555 1_555
C22 C18 1_555 1_555
H20 C22 1_555 1_555
C23 N3 1_555 1_555
H21 C23 1_555 1_555
C24 C23 1_555 1_555
H22 C24 1_555 1_555
C25 C24 1_555 1_555
C26 C25 1_555 1_555
H23 C26 1_555 1_555
C27 N3 1_555 1_555
H24 C27 1_555 1_555
C28 C25 1_555 1_555
H25 C28 1_555 1_555
Ni1E N1E 1_555 1_555
Ni1E_2 N2 1_555 1_555
Ni1G O4 1_555 1_555
Ni1A N3A 1_555 1_555
Ni1G_2 O1G 1_555 1_555
N1E C11E 1_555 1_555
N2E Ni1 1_555 1_555
N2_2 Ni1E 1_555 1_555
N3A C23A 1_555 1_555
N3E Ni1E 1_555 1_555
O1G C1G 1_555 1_555
O1E Ni1E 1_555 1_555
O2G C1G 1_555 1_555
O3G C10G 1_555 1_555
O4G Ni1 1_555 1_555
O4B Ni1E 1_555 1_555
O5E Ni1E 1_555 1_555
H1E O5E 1_555 1_555
H2E O5E 1_555 1_555
C1G C2G 1_555 1_555
C2G C3G 1_555 1_555
C3G H3G 1_555 1_555
C4G C3G 1_555 1_555
H4G C4G 1_555 1_555
C5G C4G 1_555 1_555
C6G C5G 1_555 1_555
H5G C6G 1_555 1_555
C7G C2G 1_555 1_555
H6G C7G 1_555 1_555
C8G C5G 1_555 1_555
H7G C8G 1_555 1_555
H8G C8G 1_555 1_555
C9G C8G 1_555 1_555
H9G C9G 1_555 1_555
H10G C9G 1_555 1_555
C10G O4G 1_555 1_555
C11E H11E 1_555 1_555
C12E C11E 1_555 1_555
H12E C12E 1_555 1_555
C13E C12E 1_555 1_555
C14E C13E 1_555 1_555
H13E C14E 1_555 1_555
C15E N1E 1_555 1_555
H14E C15E 1_555 1_555
C16E C13E 1_555 1_555
H15E C16E 1_555 1_555
C17E C16E 1_555 1_555
H16E C17E 1_555 1_555
C18E C17E 1_555 1_555
C19E C18E 1_555 1_555
H17E C19E 1_555 1_555
C20E N2E 1_555 1_555
H18E C20E 1_555 1_555
C21E N2E 1_555 1_555
H19E C21E 1_555 1_555
C22E C18E 1_555 1_555
H20E C22E 1_555 1_555
C23A H21A 1_555 1_555
C24A C23A 1_555 1_555
H22A C24A 1_555 1_555
C25A C24A 1_555 1_555
C26A C25A 1_555 1_555
H23A C26A 1_555 1_555
C27A N3A 1_555 1_555
H24A C27A 1_555 1_555
C28A C28 1_555 1_555
H25A C28A 1_555 1_555
C6 C7 1_555 1_555
C14 C15 1_555 1_555
C21 C22 1_555 1_555
C26 C27 1_555 1_555
C6G C7G 1_555 1_555
C9G C10G 1_555 1_555
C14E C15E 1_555 1_555
C19E C20E 1_555 1_555
C21E C22E 1_555 1_555
C25A C28A 1_555 1_555
C26A C27A 1_555 1_555

#END
