
#######################################################################
#
#                 Cambridge Crystallographic Data Centre
#                                CCDC 
#
#######################################################################
#
# If this CIF has been generated from an entry in the Cambridge 
# Structural Database, then it will include bibliographic, chemical, 
# crystal, experimental, refinement or atomic coordinate data resulting 
# from the CCDC's data processing and validation procedures.
#
#######################################################################

data_FARJEO
_symmetry_cell_setting           triclinic
_symmetry_space_group_name_H-M   'P -1'
_symmetry_Int_Tables_number      2
_space_group_name_Hall           '-P 1'
loop_
_symmetry_equiv_pos_site_id
_symmetry_equiv_pos_as_xyz
1 x,y,z
2 -x,-y,-z
_cell_length_a                   5.4059(3)
_cell_length_b                   7.2938(3)
_cell_length_c                   9.9853(4)
_cell_angle_alpha                86.549(2)
_cell_angle_beta                 84.745(2)
_cell_angle_gamma                73.427(2)
_cell_volume                     375.534
loop_
_atom_site_label
_atom_site_type_symbol
_atom_site_fract_x
_atom_site_fract_y
_atom_site_fract_z
Mn1 Mn 0.0000 0.0000 0.0000
O1 O -0.17723(19) -0.23948(15) 0.05029(9)
O2 O 0.09680(19) 0.00014(15) 0.19983(9)
O3 O -0.2696(2) 0.16160(17) 0.31330(10)
O4 O 0.3642(2) -0.21933(16) -0.05160(11)
N1 N -0.1361(2) -0.32188(16) 0.17199(11)
C1 C 0.0971(3) -0.44519(19) 0.19320(13)
H1 H 0.2221 -0.4810 0.1205
C2 C 0.1530(3) -0.51886(19) 0.32071(13)
H2 H 0.3159 -0.6048 0.3343
C3 C -0.0304(2) -0.46707(17) 0.43042(12)
C4 C -0.2741(2) -0.3470(2) 0.40224(13)
H3 H -0.4058 -0.3147 0.4722
C5 C -0.3235(2) -0.2755(2) 0.27322(13)
H4 H -0.4877 -0.1944 0.2559
C6 C -0.0426(2) 0.05609(18) 0.30749(12)
C7 C 0.0886(2) -0.01849(18) 0.43614(12)
H5 H 0.375(4) -0.214(3) -0.131(2)
H6 H 0.492(5) -0.219(4) -0.027(3)
H7 H 0.226(4) 0.046(3) 0.437(2)
H8 H 0.163(4) -0.155(3) 0.426(2)
Mn1_2 Mn 0.0000 -1.0000 1.0000
Mn1_3 Mn 0.0000 0.0000 1.0000
O1A O 0.17723(19) -0.76052(15) 0.94971(9)
O1A_2 O 0.17723(19) 0.23948(15) -0.05029(9)
O2A O -0.09680(19) -0.00014(15) 0.80017(9)
O2A_2 O -0.09680(19) -0.00014(15) -0.19983(9)
O3A O 0.2696(2) -0.16160(17) 0.68670(10)
O4A O -0.3642(2) 0.21933(16) 0.05160(11)
N1A N 0.1361(2) -0.67812(16) 0.82801(11)
C1A C -0.0971(3) -0.55481(19) 0.80680(13)
H1A H -0.2221 -0.5190 0.8795
C2A C -0.1530(3) -0.48114(19) 0.67929(13)
H2A H -0.3159 -0.3952 0.6657
C3A C 0.0304(2) -0.53293(17) 0.56958(12)
C4A C 0.2741(2) -0.6530(2) 0.59776(13)
H3A H 0.4058 -0.6853 0.5278
C5A C 0.3235(2) -0.7245(2) 0.72678(13)
H4A H 0.4877 -0.8056 0.7441
C6A C 0.0426(2) -0.05609(18) 0.69251(12)
C7A C -0.0886(2) 0.01849(18) 0.56386(12)
H5A H -0.375(4) 0.214(3) 0.131(2)
H6A H -0.492(5) 0.219(4) 0.027(3)
H7A H -0.226(4) -0.046(3) 0.563(2)
H8A H -0.163(4) 0.155(3) 0.574(2)
loop_
_geom_bond_atom_site_label_1
_geom_bond_atom_site_label_2
_geom_bond_site_symmetry_1
_geom_bond_site_symmetry_2
Mn1 O1 1_555 1_555
O1 N1 1_555 1_555
O2 Mn1 1_555 1_555
O3 C6 1_555 1_555
O4 Mn1 1_555 1_555
N1 C1 1_555 1_555
C1 H1 1_555 1_555
C2 C1 1_555 1_555
H2 C2 1_555 1_555
C3 C2 1_555 1_555
C4 C3 1_555 1_555
H3 C4 1_555 1_555
C5 N1 1_555 1_555
H4 C5 1_555 1_555
C6 O2 1_555 1_555
C7 C6 1_555 1_555
H5 O4 1_555 1_555
H6 O4 1_555 1_555
H7 C7 1_555 1_555
H8 C7 1_555 1_555
Mn1_2 O1A 1_555 1_555
Mn1_3 O2A 1_555 1_555
O1A N1A 1_555 1_555
O1A_2 Mn1 1_555 1_555
O2A C6A 1_555 1_555
O2A_2 Mn1 1_555 1_555
O3A C6A 1_555 1_555
O4A Mn1 1_555 1_555
N1A C1A 1_555 1_555
C1A H1A 1_555 1_555
C2A C1A 1_555 1_555
H2A C2A 1_555 1_555
C3A C3 1_555 1_555
C4A C3A 1_555 1_555
H3A C4A 1_555 1_555
C5A N1A 1_555 1_555
H4A C5A 1_555 1_555
C6A C7A 1_555 1_555
C7A C7 1_555 1_555
H5A O4A 1_555 1_555
H6A O4A 1_555 1_555
H7A C7A 1_555 1_555
H8A C7A 1_555 1_555
C4 C5 1_555 1_555
C2A C3A 1_555 1_555
C4A C5A 1_555 1_555

#END
