
#######################################################################
#
#                 Cambridge Crystallographic Data Centre
#                                CCDC 
#
#######################################################################
#
# If this CIF has been generated from an entry in the Cambridge 
# Structural Database, then it will include bibliographic, chemical, 
# crystal, experimental, refinement or atomic coordinate data resulting 
# from the CCDC's data processing and validation procedures.
#
#######################################################################

data_FARJOY
_symmetry_cell_setting           triclinic
_symmetry_space_group_name_H-M   'P -1'
_symmetry_Int_Tables_number      2
_space_group_name_Hall           '-P 1'
loop_
_symmetry_equiv_pos_site_id
_symmetry_equiv_pos_as_xyz
1 x,y,z
2 -x,-y,-z
_cell_length_a                   5.4016(11)
_cell_length_b                   7.3711(16)
_cell_length_c                   9.823(2)
_cell_angle_alpha                86.412(4)
_cell_angle_beta                 84.113(4)
_cell_angle_gamma                72.990(4)
_cell_volume                     371.81
loop_
_atom_site_label
_atom_site_type_symbol
_atom_site_fract_x
_atom_site_fract_y
_atom_site_fract_z
N1 N 0.1313(3) 0.3176(2) -0.16788(14)
Zn1 Zn 0.0000 0.0000 0.0000
O1 O 0.1720(2) 0.23391(19) -0.04501(12)
O2 O -0.0965(2) 0.00534(19) -0.19466(12)
O3 O 0.2697(3) -0.1590(2) -0.31153(13)
O4 O -0.3570(3) 0.2070(2) 0.04800(14)
C1 C 0.3204(3) 0.2732(3) -0.27124(18)
H1 H 0.4852 0.1921 -0.2543
C2 C 0.2730(3) 0.3463(3) -0.40144(18)
H2 H 0.4066 0.3151 -0.4727
C3 C 0.0292(3) 0.4662(2) -0.42938(16)
C4 C -0.1548(3) 0.5158(3) -0.31755(18)
H3 H -0.3181 0.6019 -0.3307
C5 C -0.1022(3) 0.4414(3) -0.18848(18)
H4 H -0.2289 0.4767 -0.1144
C6 C 0.0426(3) -0.0533(2) -0.30441(16)
C7 C -0.0890(3) 0.0187(3) -0.43445(15)
H5 H -0.164(4) 0.150(3) -0.425(2)
H6 H -0.360(5) 0.200(4) 0.130(3)
H7 H -0.484(5) 0.201(3) 0.025(3)
H8 H -0.212(5) -0.046(3) -0.436(2)
N1A N -0.1313(3) 0.6824(2) -0.83212(14)
Zn1_2 Zn 0.0000 1.0000 -1.0000
Zn1_3 Zn 0.0000 0.0000 -1.0000
O1A O -0.1720(2) 0.76609(19) -0.95499(12)
O1A_2 O -0.1720(2) -0.23391(19) 0.04501(12)
O2A O 0.0965(2) -0.00534(19) -0.80534(12)
O2A_2 O 0.0965(2) -0.00534(19) 0.19466(12)
O3A O -0.2697(3) 0.1590(2) -0.68847(13)
O4A O 0.3570(3) -0.2070(2) -0.04800(14)
C1A C -0.3204(3) 0.7268(3) -0.72876(18)
H1A H -0.4852 0.8079 -0.7457
C2A C -0.2730(3) 0.6537(3) -0.59856(18)
H2A H -0.4066 0.6849 -0.5273
C3A C -0.0292(3) 0.5338(2) -0.57062(16)
C4A C 0.1548(3) 0.4842(3) -0.68245(18)
H3A H 0.3181 0.3981 -0.6693
C5A C 0.1022(3) 0.5586(3) -0.81152(18)
H4A H 0.2289 0.5233 -0.8856
C6A C -0.0426(3) 0.0533(2) -0.69559(16)
C7A C 0.0890(3) -0.0187(3) -0.56555(15)
H5A H 0.164(4) -0.150(3) -0.575(2)
H6A H 0.360(5) -0.200(4) -0.130(3)
H7A H 0.484(5) -0.201(3) -0.025(3)
H8A H 0.212(5) 0.046(3) -0.564(2)
loop_
_geom_bond_atom_site_label_1
_geom_bond_atom_site_label_2
_geom_bond_site_symmetry_1
_geom_bond_site_symmetry_2
N1 O1 1_555 1_555
Zn1 O1 1_555 1_555
O2 Zn1 1_555 1_555
O3 C6 1_555 1_555
O4 Zn1 1_555 1_555
C1 N1 1_555 1_555
H1 C1 1_555 1_555
C2 C1 1_555 1_555
H2 C2 1_555 1_555
C3 C2 1_555 1_555
C4 C3 1_555 1_555
H3 C4 1_555 1_555
C5 N1 1_555 1_555
H4 C5 1_555 1_555
C6 O2 1_555 1_555
C7 C6 1_555 1_555
H5 C7 1_555 1_555
H6 O4 1_555 1_555
H7 O4 1_555 1_555
H8 C7 1_555 1_555
N1A O1A 1_555 1_555
Zn1_2 O1A 1_555 1_555
Zn1_3 O2A 1_555 1_555
O1A_2 Zn1 1_555 1_555
O2A C6A 1_555 1_555
O2A_2 Zn1 1_555 1_555
O3A C6A 1_555 1_555
O4A Zn1 1_555 1_555
C1A N1A 1_555 1_555
H1A C1A 1_555 1_555
C2A C1A 1_555 1_555
H2A C2A 1_555 1_555
C3A C3 1_555 1_555
C4A C3A 1_555 1_555
H3A C4A 1_555 1_555
C5A N1A 1_555 1_555
H4A C5A 1_555 1_555
C6A C7A 1_555 1_555
C7A C7 1_555 1_555
H5A C7A 1_555 1_555
H6A O4A 1_555 1_555
H7A O4A 1_555 1_555
H8A C7A 1_555 1_555
C4 C5 1_555 1_555
C2A C3A 1_555 1_555
C4A C5A 1_555 1_555

#END
