
#######################################################################
#
#                 Cambridge Crystallographic Data Centre
#                                CCDC 
#
#######################################################################
#
# If this CIF has been generated from an entry in the Cambridge 
# Structural Database, then it will include bibliographic, chemical, 
# crystal, experimental, refinement or atomic coordinate data resulting 
# from the CCDC's data processing and validation procedures.
#
#######################################################################

data_FARJUF
_symmetry_cell_setting           triclinic
_symmetry_space_group_name_H-M   'P -1'
_symmetry_Int_Tables_number      2
_space_group_name_Hall           '-P 1'
loop_
_symmetry_equiv_pos_site_id
_symmetry_equiv_pos_as_xyz
1 x,y,z
2 -x,-y,-z
_cell_length_a                   7.1309(9)
_cell_length_b                   11.1104(15)
_cell_length_c                   13.2196(17)
_cell_angle_alpha                91.756(2)
_cell_angle_beta                 91.702(2)
_cell_angle_gamma                92.444(2)
_cell_volume                     1045.4
loop_
_atom_site_label
_atom_site_type_symbol
_atom_site_fract_x
_atom_site_fract_y
_atom_site_fract_z
Co1 Co 0.0000 0.5000 0.5000
N1 N 0.1207(2) 0.32864(16) 0.51627(14)
O1 O -0.0004(2) 0.49027(13) 0.34177(11)
H1 H 0.0811 0.4432 0.3198
H2 H 0.0410 0.5597 0.3255
O2 O -0.2744(2) 0.41993(13) 0.51007(12)
H3 H -0.3552 0.4167 0.4613
H4 H -0.3366 0.4612 0.5514
C1 C 0.0548(3) 0.2308(2) 0.46495(19)
H6 H -0.0563 0.2355 0.4269
C2 C 0.1418(4) 0.1223(2) 0.4648(2)
H7 H 0.0904 0.0568 0.4265
C3 C 0.3052(3) 0.1113(2) 0.5215(2)
C4 C 0.3727(3) 0.2129(2) 0.5769(2)
H8 H 0.4814 0.2099 0.6171
C5 C 0.2786(3) 0.3179(2) 0.57203(18)
H9 H 0.3270 0.3850 0.6094
C6 C 0.4059(4) -0.0042(2) 0.5227(3)
H10 H 0.4204 -0.0288 0.5922
H11 H 0.3294 -0.0663 0.4860
Co1_2 Co 1.0000 -0.5000 0.5000
N1A N 0.8793(2) -0.32864(16) 0.48373(14)
N1A_2 N -0.1207(2) 0.67136(16) 0.48373(14)
O1A O 0.0004(2) 0.50973(13) 0.65823(11)
H1A H -0.0811 0.5568 0.6802
H2A H -0.0410 0.4403 0.6745
O2A O 0.2744(2) 0.58007(13) 0.48993(12)
H3A H 0.3552 0.5833 0.5387
H4A H 0.3366 0.5388 0.4486
C1A C 0.9452(3) -0.2308(2) 0.53505(19)
H6A H 1.0563 -0.2355 0.5731
C2A C 0.8582(4) -0.1223(2) 0.5352(2)
H7A H 0.9096 -0.0568 0.5735
C3A C 0.6948(3) -0.1113(2) 0.4785(2)
C4A C 0.6273(3) -0.2129(2) 0.4231(2)
H8A H 0.5186 -0.2099 0.3829
C5A C 0.7214(3) -0.3179(2) 0.42797(18)
H9A H 0.6730 -0.3850 0.3906
C6A C 0.5941(4) 0.0042(2) 0.4773(3)
H10A H 0.5796 0.0288 0.4078
H11A H 0.6706 0.0663 0.5140
N2 N 0.4461(3) 0.68667(18) 0.08841(16)
C7 C 0.5119(4) 0.6138(2) 0.1572(2)
H12 H 0.4453 0.6030 0.2159
C8 C 0.6737(4) 0.5538(2) 0.1454(2)
H13 H 0.7157 0.5047 0.1963
C9 C 0.7754(3) 0.5656(2) 0.0588(2)
C10 C 0.7067(4) 0.6422(3) -0.0128(2)
H14 H 0.7700 0.6544 -0.0724
C11 C 0.5434(4) 0.6999(3) 0.0054(2)
H15 H 0.4989 0.7511 -0.0434
C12 C 0.9506(4) 0.4951(3) 0.0471(2)
H16 H 1.0379 0.5201 0.1022
H17 H 0.9166 0.4106 0.0557
N2A N 1.5539(3) 0.31333(18) -0.08841(16)
C7A C 1.4881(4) 0.3862(2) -0.1572(2)
H12A H 1.5547 0.3970 -0.2159
C8A C 1.3263(4) 0.4462(2) -0.1454(2)
H13A H 1.2843 0.4953 -0.1963
C9A C 1.2246(3) 0.4344(2) -0.0588(2)
C10A C 1.2933(4) 0.3578(3) 0.0128(2)
H14A H 1.2300 0.3456 0.0724
C11A C 1.4566(4) 0.3001(3) -0.0054(2)
H15A H 1.5011 0.2489 0.0434
C12A C 1.0494(4) 0.5049(3) -0.0471(2)
H16A H 0.9621 0.4799 -0.1022
H17A H 1.0834 0.5894 -0.0557
O3 O 0.2199(2) 0.33498(14) 0.26560(13)
O4 O 0.4607(2) 0.41842(14) 0.35740(12)
O5 O 1.1581(3) -0.18289(18) 0.11172(15)
H5 H 1.2466 -0.2274 0.1077
O6 O 1.0997(3) -0.28954(19) 0.24550(17)
C13 C 0.3870(3) 0.3382(2) 0.29821(17)
C14 C 0.5072(3) 0.2386(2) 0.26022(17)
C15 C 0.4274(3) 0.1317(2) 0.2186(2)
H18 H 0.2975 0.1192 0.2172
C16 C 0.5380(4) 0.0430(2) 0.1789(2)
H19 H 0.4813 -0.0287 0.1529
C17 C 0.7317(4) 0.0599(2) 0.1775(2)
C18 C 0.8099(3) 0.1669(2) 0.2185(2)
H20 H 0.9394 0.1806 0.2181
C19 C 0.7001(3) 0.2542(2) 0.26018(18)
H21 H 0.7574 0.3246 0.2886
C20 C 0.8561(4) -0.0352(2) 0.1360(2)
H22 H 0.7886 -0.0812 0.0818
H23 H 0.9661 0.0037 0.1077
C21 C 0.9166(4) -0.1187(3) 0.2157(2)
H24 H 0.8061 -0.1651 0.2355
H25 H 0.9606 -0.0698 0.2745
C22 C 1.0664(4) -0.2063(2) 0.1919(2)
loop_
_geom_bond_atom_site_label_1
_geom_bond_atom_site_label_2
_geom_bond_site_symmetry_1
_geom_bond_site_symmetry_2
Co1 N1 1_555 1_555
N1 C1 1_555 1_555
N2 C7 1_555 1_555
O1 Co1 1_555 1_555
H1 O1 1_555 1_555
H2 O1 1_555 1_555
O2 Co1 1_555 1_555
H3 O2 1_555 1_555
H4 O2 1_555 1_555
O3 C13 1_555 1_555
O4 C13 1_555 1_555
O5 H5 1_555 1_555
O6 C22 1_555 1_555
C1 H6 1_555 1_555
C2 C1 1_555 1_555
H7 C2 1_555 1_555
C3 C2 1_555 1_555
C4 C3 1_555 1_555
H8 C4 1_555 1_555
C5 N1 1_555 1_555
H9 C5 1_555 1_555
C6 C3 1_555 1_555
H10 C6 1_555 1_555
H11 C6 1_555 1_555
C7 H12 1_555 1_555
C8 C7 1_555 1_555
H13 C8 1_555 1_555
C9 C8 1_555 1_555
C10 C9 1_555 1_555
H14 C10 1_555 1_555
C11 N2 1_555 1_555
H15 C11 1_555 1_555
C12 C9 1_555 1_555
H16 C12 1_555 1_555
H17 C12 1_555 1_555
C13 C14 1_555 1_555
C14 C15 1_555 1_555
C15 H18 1_555 1_555
C16 C15 1_555 1_555
H19 C16 1_555 1_555
C17 C16 1_555 1_555
C18 C17 1_555 1_555
H20 C18 1_555 1_555
C19 C14 1_555 1_555
H21 C19 1_555 1_555
C20 C17 1_555 1_555
H22 C20 1_555 1_555
H23 C20 1_555 1_555
C21 C20 1_555 1_555
H24 C21 1_555 1_555
H25 C21 1_555 1_555
C22 O5 1_555 1_555
Co1_2 N1A 1_555 1_555
N1A C1A 1_555 1_555
N1A_2 Co1 1_555 1_555
N2A C7A 1_555 1_555
O1A Co1 1_555 1_555
H1A O1A 1_555 1_555
H2A O1A 1_555 1_555
O2A Co1 1_555 1_555
H3A O2A 1_555 1_555
H4A O2A 1_555 1_555
C1A H6A 1_555 1_555
C2A C1A 1_555 1_555
H7A C2A 1_555 1_555
C3A C2A 1_555 1_555
C4A C3A 1_555 1_555
H8A C4A 1_555 1_555
C5A N1A 1_555 1_555
H9A C5A 1_555 1_555
C6A C6 1_555 1_555
H10A C6A 1_555 1_555
H11A C6A 1_555 1_555
C7A H12A 1_555 1_555
C8A C7A 1_555 1_555
H13A C8A 1_555 1_555
C9A C8A 1_555 1_555
C10A C9A 1_555 1_555
H14A C10A 1_555 1_555
C11A N2A 1_555 1_555
H15A C11A 1_555 1_555
C12A C12 1_555 1_555
H16A C12A 1_555 1_555
H17A C12A 1_555 1_555
C4 C5 1_555 1_555
C10 C11 1_555 1_555
C18 C19 1_555 1_555
C21 C22 1_555 1_555
C3A C6A 1_555 1_555
C4A C5A 1_555 1_555
C9A C12A 1_555 1_555
C10A C11A 1_555 1_555

#END
