
#######################################################################
#
#                 Cambridge Crystallographic Data Centre
#                                CCDC 
#
#######################################################################
#
# If this CIF has been generated from an entry in the Cambridge 
# Structural Database, then it will include bibliographic, chemical, 
# crystal, experimental, refinement or atomic coordinate data resulting 
# from the CCDC's data processing and validation procedures.
#
#######################################################################

data_FARJIS
_symmetry_cell_setting           triclinic
_symmetry_space_group_name_H-M   'P -1'
_symmetry_Int_Tables_number      2
_space_group_name_Hall           '-P 1'
loop_
_symmetry_equiv_pos_site_id
_symmetry_equiv_pos_as_xyz
1 x,y,z
2 -x,-y,-z
_cell_length_a                   8.4176(5)
_cell_length_b                   10.3212(6)
_cell_length_c                   11.3471(6)
_cell_angle_alpha                73.459(2)
_cell_angle_beta                 68.572(2)
_cell_angle_gamma                72.099(2)
_cell_volume                     856.563
loop_
_atom_site_label
_atom_site_type_symbol
_atom_site_fract_x
_atom_site_fract_y
_atom_site_fract_z
Co1 Co 0.22866(4) 0.27442(3) -0.27699(3)
O1 O 0.0326(2) 0.23277(18) -0.31745(16)
O2 O 0.0748(2) 0.32728(19) -0.52674(16)
O3 O -0.5816(2) 0.32938(18) -0.23873(17)
O4 O -0.5869(2) 0.54591(17) -0.34940(17)
O5 O 0.0985(2) 0.49109(17) -0.29871(16)
O6 O 0.3758(2) 0.28215(19) -0.47524(16)
N1 N 0.3577(2) 0.0662(2) -0.22253(18)
N2 N 0.0978(2) 0.22563(19) -0.07810(18)
C1 C -0.0187(3) 0.2846(2) -0.4158(2)
C2 C -0.2110(3) 0.2995(3) -0.3931(2)
H1 H -0.2416 0.2094 -0.3522
H2 H -0.2362 0.3305 -0.4758
C3 C -0.3214(3) 0.4053(3) -0.3058(3)
H3 H -0.3070 0.3695 -0.2197
H4 H -0.2822 0.4925 -0.3417
C4 C -0.5126(3) 0.4309(2) -0.2965(2)
C5 C 0.4952(3) -0.0063(3) -0.3013(2)
H5 H 0.5275 0.0317 -0.3901
C6 C 0.5916(3) -0.1341(3) -0.2584(2)
H6 H 0.6864 -0.1820 -0.3172
C7 C 0.5475(3) -0.1913(2) -0.1280(2)
C8 C 0.4064(3) -0.1154(2) -0.0460(2)
H7 H 0.3735 -0.1506 0.0434
C9 C 0.3137(3) 0.0118(2) -0.0951(2)
C10 C 0.1610(3) 0.1005(2) -0.0140(2)
C11 C 0.0886(3) 0.0590(2) 0.1176(2)
H8 H 0.1341 -0.0297 0.1600
C12 C -0.0520(3) 0.1488(3) 0.1874(2)
C13 C -0.1160(3) 0.2766(3) 0.1189(2)
H9 H -0.2119 0.3398 0.1617
C14 C -0.0386(3) 0.3104(3) -0.0118(2)
H10 H -0.0840 0.3975 -0.0566
C15 C 0.6486(4) -0.3316(3) -0.0784(3)
H11 H 0.7414 -0.3679 -0.1500
H12 H 0.5702 -0.3944 -0.0357
H13 H 0.6991 -0.3229 -0.0175
C16 C -0.1262(4) 0.1097(3) 0.3316(3)
H14 H -0.0649 0.0167 0.3615
H15 H -0.2499 0.1125 0.3543
H16 H -0.1116 0.1746 0.3719
H17 H 0.0463 0.5358 -0.3507
H18 H 0.1839 0.5241 -0.3257
H19 H 0.4345 0.3299 -0.5210
H20 H 0.3034 0.3032 -0.5119
Co1_2 Co -0.77134(4) 0.27442(3) -0.27699(3)
O3_2 O 0.4184(2) 0.32938(18) -0.23873(17)
loop_
_geom_bond_atom_site_label_1
_geom_bond_atom_site_label_2
_geom_bond_site_symmetry_1
_geom_bond_site_symmetry_2
Co1 O1 1_555 1_555
O1 C1 1_555 1_555
O2 C1 1_555 1_555
O3 C4 1_555 1_555
O4 C4 1_555 1_555
O5 Co1 1_555 1_555
O6 Co1 1_555 1_555
N1 Co1 1_555 1_555
N2 Co1 1_555 1_555
C1 C2 1_555 1_555
C2 H1 1_555 1_555
H2 C2 1_555 1_555
C3 C2 1_555 1_555
H3 C3 1_555 1_555
H4 C3 1_555 1_555
C4 C3 1_555 1_555
C5 N1 1_555 1_555
H5 C5 1_555 1_555
C6 C5 1_555 1_555
H6 C6 1_555 1_555
C7 C6 1_555 1_555
C8 C7 1_555 1_555
H7 C8 1_555 1_555
C9 N1 1_555 1_555
C10 N2 1_555 1_555
C11 C10 1_555 1_555
H8 C11 1_555 1_555
C12 C11 1_555 1_555
C13 C12 1_555 1_555
H9 C13 1_555 1_555
C14 N2 1_555 1_555
H10 C14 1_555 1_555
C15 C7 1_555 1_555
H11 C15 1_555 1_555
H12 C15 1_555 1_555
H13 C15 1_555 1_555
C16 C12 1_555 1_555
H14 C16 1_555 1_555
H15 C16 1_555 1_555
H16 C16 1_555 1_555
H17 O5 1_555 1_555
H18 O5 1_555 1_555
H19 O6 1_555 1_555
H20 O6 1_555 1_555
Co1_2 O3 1_555 1_555
O3_2 Co1 1_555 1_555
C8 C9 1_555 1_555
C9 C10 1_555 1_555
C13 C14 1_555 1_555

#END
