
#######################################################################
#
#                 Cambridge Crystallographic Data Centre
#                                CCDC 
#
#######################################################################
#
# If this CIF has been generated from an entry in the Cambridge 
# Structural Database, then it will include bibliographic, chemical, 
# crystal, experimental, refinement or atomic coordinate data resulting 
# from the CCDC's data processing and validation procedures.
#
#######################################################################

data_FARKOA01
_symmetry_cell_setting           monoclinic
_symmetry_space_group_name_H-M   'P 21/n'
_symmetry_Int_Tables_number      14
_space_group_name_Hall           '-P 2yn'
loop_
_symmetry_equiv_pos_site_id
_symmetry_equiv_pos_as_xyz
1 x,y,z
2 1/2-x,1/2+y,1/2-z
3 -x,-y,-z
4 1/2+x,1/2-y,1/2+z
_cell_length_a                   8.7644(6)
_cell_length_b                   15.8088(11)
_cell_length_c                   11.4395(8)
_cell_angle_alpha                90
_cell_angle_beta                 104.002(2)
_cell_angle_gamma                90
_cell_volume                     1537.9
loop_
_atom_site_label
_atom_site_type_symbol
_atom_site_fract_x
_atom_site_fract_y
_atom_site_fract_z
Zn1 Zn 1.03093(3) 0.319396(17) 0.78056(2)
Cl1 Cl 1.03191(8) 0.34383(5) 0.59038(5)
Cl2 Cl 1.21399(7) 0.38051(4) 0.92394(5)
N1 N 0.8104(2) 0.34131(12) 0.80508(17)
N2 N 0.7011(2) 0.37148(12) 0.71387(17)
N3 N 0.5720(2) 0.37873(12) 0.75572(18)
N4 N 0.4478(2) 0.69025(12) 0.69947(18)
C1 C 0.7514(3) 0.33022(14) 0.9037(2)
C2 C 0.5976(3) 0.35411(15) 0.8710(2)
H1 H 0.5254 0.3535 0.9187
C3 C 0.8492(3) 0.30236(17) 1.0226(2)
H2 H 0.9407 0.2722 1.0108
H3 H 0.7889 0.2638 1.0598
C4 C 0.9030(4) 0.37796(18) 1.1066(2)
H4 H 0.9571 0.4181 1.0668
H5 H 0.8112 0.4060 1.1218
C5 C 1.0110(5) 0.3525(2) 1.2255(3)
H6 H 1.0976 0.3197 1.2103
H7 H 0.9536 0.3169 1.2691
C6 C 1.0758(6) 0.4283(3) 1.3025(3)
H8 H 1.1296 0.4647 1.2586
H9 H 1.1479 0.4094 1.3750
H10 H 0.9909 0.4587 1.3228
C7 C 0.4325(3) 0.41911(15) 0.6785(2)
H11 H 0.3392 0.3992 0.7016
H12 H 0.4238 0.4027 0.5955
C8 C 0.4400(2) 0.51418(15) 0.6881(2)
C9 C 0.5364(3) 0.55606(17) 0.7834(2)
H13 H 0.6012 0.5256 0.8455
C10 C 0.5366(3) 0.64259(18) 0.7865(2)
H14 H 0.6016 0.6696 0.8522
C11 C 0.3533(3) 0.64958(17) 0.6080(2)
H15 H 0.2890 0.6814 0.5471
C12 C 0.3463(3) 0.56282(16) 0.5993(2)
H16 H 0.2786 0.5371 0.5337
Zn1A Zn 0.46907(3) 0.819396(17) 0.71944(2)
N4A N 1.0522(2) 0.19025(12) 0.80053(18)
loop_
_geom_bond_atom_site_label_1
_geom_bond_atom_site_label_2
_geom_bond_site_symmetry_1
_geom_bond_site_symmetry_2
Zn1 Cl1 1_555 1_555
Cl2 Zn1 1_555 1_555
N1 Zn1 1_555 1_555
N2 N1 1_555 1_555
N3 N2 1_555 1_555
N4 C10 1_555 1_555
C1 N1 1_555 1_555
C2 N3 1_555 1_555
H1 C2 1_555 1_555
C3 C1 1_555 1_555
H2 C3 1_555 1_555
H3 C3 1_555 1_555
C4 C3 1_555 1_555
H4 C4 1_555 1_555
H5 C4 1_555 1_555
C5 C4 1_555 1_555
H6 C5 1_555 1_555
H7 C5 1_555 1_555
C6 C5 1_555 1_555
H8 C6 1_555 1_555
H9 C6 1_555 1_555
H10 C6 1_555 1_555
C7 N3 1_555 1_555
H11 C7 1_555 1_555
H12 C7 1_555 1_555
C8 C7 1_555 1_555
C9 C8 1_555 1_555
H13 C9 1_555 1_555
C10 C9 1_555 1_555
H14 C10 1_555 1_555
C11 N4 1_555 1_555
H15 C11 1_555 1_555
C12 C8 1_555 1_555
H16 C12 1_555 1_555
Zn1A N4 1_555 1_555
N4A Zn1 1_555 1_555
C1 C2 1_555 1_555
C11 C12 1_555 1_555

#END
