
#######################################################################
#
#                 Cambridge Crystallographic Data Centre
#                                CCDC 
#
#######################################################################
#
# If this CIF has been generated from an entry in the Cambridge 
# Structural Database, then it will include bibliographic, chemical, 
# crystal, experimental, refinement or atomic coordinate data resulting 
# from the CCDC's data processing and validation procedures.
#
#######################################################################

data_FARKOA02
_symmetry_cell_setting           monoclinic
_symmetry_space_group_name_H-M   'P 21/n'
_symmetry_Int_Tables_number      14
_space_group_name_Hall           '-P 2yn'
loop_
_symmetry_equiv_pos_site_id
_symmetry_equiv_pos_as_xyz
1 x,y,z
2 1/2-x,1/2+y,1/2-z
3 -x,-y,-z
4 1/2+x,1/2-y,1/2+z
_cell_length_a                   8.7376(14)
_cell_length_b                   15.690(3)
_cell_length_c                   11.0903(17)
_cell_angle_alpha                90
_cell_angle_beta                 102.331(3)
_cell_angle_gamma                90
_cell_volume                     1485.33
loop_
_atom_site_label
_atom_site_type_symbol
_atom_site_fract_x
_atom_site_fract_y
_atom_site_fract_z
Zn1 Zn 0.475740(19) 0.180923(11) 0.722442(16)
Cl1 Cl 0.47298(4) 0.15511(3) 0.91835(3)
Cl2 Cl 0.29655(4) 0.11871(3) 0.57619(3)
N1 N 0.69692(15) 0.16126(8) 0.69614(12)
N2 N 0.80580(15) 0.13186(8) 0.78860(12)
N3 N 0.93543(15) 0.12515(8) 0.74380(12)
N4 N 1.05042(16) -0.18946(8) 0.79729(12)
C1 C 0.75666(19) 0.17254(10) 0.59296(15)
C2 C 0.91137(19) 0.14939(10) 0.62447(15)
H1 H 0.9857 0.1502 0.5733
C3 C 0.65758(19) 0.19862(10) 0.47175(15)
H2 H 0.7189 0.2364 0.4284
H3 H 0.5659 0.2311 0.4859
C4 C 0.6010(2) 0.12090(10) 0.39064(15)
H4 H 0.6925 0.0925 0.3686
H5 H 0.5515 0.0798 0.4383
C5 C 0.4840(2) 0.14461(11) 0.27281(16)
H6 H 0.5367 0.1808 0.2209
H7 H 0.3978 0.1783 0.2944
C6 C 0.4156(2) 0.06640(12) 0.19906(17)
H8 H 0.4989 0.0361 0.1700
H9 H 0.3347 0.0843 0.1280
H10 H 0.3691 0.0285 0.2517
C7 C 1.07329(18) 0.08419(10) 0.81974(15)
H11 H 1.0824 0.1010 0.9070
H12 H 1.1684 0.1042 0.7933
C8 C 1.06359(18) -0.01196(10) 0.80949(14)
C9 C 0.96390(18) -0.05299(11) 0.71334(15)
H13 H 0.8984 -0.0209 0.6500
C10 C 0.96038(19) -0.14087(11) 0.71014(15)
H14 H 0.8914 -0.1682 0.6436
C11 C 1.14900(19) -0.14981(11) 0.88953(15)
H15 H 1.2145 -0.1834 0.9510
C12 C 1.15913(18) -0.06184(11) 0.89879(15)
H16 H 1.2305 -0.0359 0.9653
Zn1A Zn 1.024260(19) -0.319077(11) 0.777558(16)
N4A N 0.44958(16) 0.31054(8) 0.70271(12)
loop_
_geom_bond_atom_site_label_1
_geom_bond_atom_site_label_2
_geom_bond_site_symmetry_1
_geom_bond_site_symmetry_2
Zn1 Cl1 1_555 1_555
Cl2 Zn1 1_555 1_555
N1 Zn1 1_555 1_555
N2 N1 1_555 1_555
N3 N2 1_555 1_555
N4 C10 1_555 1_555
C1 N1 1_555 1_555
C2 N3 1_555 1_555
H1 C2 1_555 1_555
C3 C1 1_555 1_555
H2 C3 1_555 1_555
H3 C3 1_555 1_555
C4 C3 1_555 1_555
H4 C4 1_555 1_555
H5 C4 1_555 1_555
C5 C4 1_555 1_555
H6 C5 1_555 1_555
H7 C5 1_555 1_555
C6 C5 1_555 1_555
H8 C6 1_555 1_555
H9 C6 1_555 1_555
H10 C6 1_555 1_555
C7 N3 1_555 1_555
H11 C7 1_555 1_555
H12 C7 1_555 1_555
C8 C7 1_555 1_555
C9 C8 1_555 1_555
H13 C9 1_555 1_555
C10 C9 1_555 1_555
H14 C10 1_555 1_555
C11 N4 1_555 1_555
H15 C11 1_555 1_555
C12 C8 1_555 1_555
H16 C12 1_555 1_555
Zn1A N4 1_555 1_555
N4A Zn1 1_555 1_555
C1 C2 1_555 1_555
C11 C12 1_555 1_555

#END
