
#######################################################################
#
#                 Cambridge Crystallographic Data Centre
#                                CCDC 
#
#######################################################################
#
# If this CIF has been generated from an entry in the Cambridge 
# Structural Database, then it will include bibliographic, chemical, 
# crystal, experimental, refinement or atomic coordinate data resulting 
# from the CCDC's data processing and validation procedures.
#
#######################################################################

data_FARKUG
_symmetry_cell_setting           monoclinic
_symmetry_space_group_name_H-M   'P 21/c'
_symmetry_Int_Tables_number      14
_space_group_name_Hall           '-P 2ybc'
loop_
_symmetry_equiv_pos_site_id
_symmetry_equiv_pos_as_xyz
1 x,y,z
2 -x,1/2+y,1/2-z
3 -x,-y,-z
4 x,1/2-y,1/2+z
_cell_length_a                   16.6738(8)
_cell_length_b                   8.9880(4)
_cell_length_c                   11.4645(6)
_cell_angle_alpha                90
_cell_angle_beta                 106.8240(10)
_cell_angle_gamma                90
_cell_volume                     1644.58
loop_
_atom_site_label
_atom_site_type_symbol
_atom_site_fract_x
_atom_site_fract_y
_atom_site_fract_z
Zn1 Zn 0.302515(14) 0.08639(2) 0.718327(19)
Cl1 Cl 0.32443(3) 0.01506(6) 0.91112(4)
Cl2 Cl 0.23568(4) -0.07158(6) 0.57465(5)
N1 N 0.25820(10) 0.29810(18) 0.70185(15)
N2 N 0.30301(11) 0.38476(19) 0.79036(16)
N3 N 0.27929(10) 0.52298(17) 0.75567(16)
N4 N 0.57909(11) 0.62044(18) 0.79985(15)
C1 C 0.20746(12) 0.3812(2) 0.61071(19)
C2 C 0.22142(13) 0.5267(2) 0.6462(2)
H1 H 0.1959 0.6114 0.6031
C3 C 0.32727(14) 0.6453(2) 0.8269(2)
H2 H 0.3281 0.6355 0.9124
H3 H 0.3008 0.7404 0.7961
C4 C 0.56396(15) 0.6613(3) 0.9039(2)
H4 H 0.6097 0.6827 0.9721
C5 C 0.48463(15) 0.6732(3) 0.9151(2)
H5 H 0.4771 0.7027 0.9899
C6 C 0.41571(13) 0.6423(2) 0.81771(19)
C7 C 0.43131(16) 0.6042(4) 0.7100(2)
H6 H 0.3865 0.5857 0.6400
C8 C 0.51239(16) 0.5930(3) 0.7048(2)
H7 H 0.5214 0.5646 0.6307
C9 C 0.14986(13) 0.3137(3) 0.49790(19)
H8 H 0.1796 0.2348 0.4684
H9 H 0.1337 0.3900 0.4343
C10 C 0.07135(17) 0.2490(4) 0.5203(2)
H10 H 0.0413 0.3286 0.5484
H11 H 0.0879 0.1747 0.5854
C11 C 0.01183(18) 0.1761(3) 0.4071(3)
H12 H 0.0428 0.0994 0.3774
H13 H -0.0333 0.1265 0.4311
C12 C -0.02659(17) 0.2809(3) 0.3045(3)
H14 H 0.0177 0.3223 0.2737
H15 H -0.0528 0.3636 0.3356
C13 C -0.09207(18) 0.2063(4) 0.2000(3)
H16 H -0.0655 0.1297 0.1644
H17 H -0.1174 0.2799 0.1385
H18 H -0.1350 0.1617 0.2305
Zn1A Zn 0.697485(14) 0.58639(2) 0.781673(19)
N4A N 0.42091(11) 0.12044(18) 0.70015(15)
loop_
_geom_bond_atom_site_label_1
_geom_bond_atom_site_label_2
_geom_bond_site_symmetry_1
_geom_bond_site_symmetry_2
Zn1 Cl1 1_555 1_555
Cl2 Zn1 1_555 1_555
N1 Zn1 1_555 1_555
N2 N1 1_555 1_555
N3 N2 1_555 1_555
N4 C4 1_555 1_555
C1 N1 1_555 1_555
C2 N3 1_555 1_555
H1 C2 1_555 1_555
C3 N3 1_555 1_555
H2 C3 1_555 1_555
H3 C3 1_555 1_555
C4 H4 1_555 1_555
C5 C4 1_555 1_555
H5 C5 1_555 1_555
C6 C3 1_555 1_555
C7 C6 1_555 1_555
H6 C7 1_555 1_555
C8 N4 1_555 1_555
H7 C8 1_555 1_555
C9 C1 1_555 1_555
H8 C9 1_555 1_555
H9 C9 1_555 1_555
C10 C9 1_555 1_555
H10 C10 1_555 1_555
H11 C10 1_555 1_555
C11 C10 1_555 1_555
H12 C11 1_555 1_555
H13 C11 1_555 1_555
C12 C11 1_555 1_555
H14 C12 1_555 1_555
H15 C12 1_555 1_555
C13 C12 1_555 1_555
H16 C13 1_555 1_555
H17 C13 1_555 1_555
H18 C13 1_555 1_555
Zn1A N4 1_555 1_555
N4A Zn1 1_555 1_555
C1 C2 1_555 1_555
C5 C6 1_555 1_555
C7 C8 1_555 1_555

#END
