
#######################################################################
#
#                 Cambridge Crystallographic Data Centre
#                                CCDC 
#
#######################################################################
#
# If this CIF has been generated from an entry in the Cambridge 
# Structural Database, then it will include bibliographic, chemical, 
# crystal, experimental, refinement or atomic coordinate data resulting 
# from the CCDC's data processing and validation procedures.
#
#######################################################################

data_FARKOA
_symmetry_cell_setting           monoclinic
_symmetry_space_group_name_H-M   'P 21/n'
_symmetry_Int_Tables_number      14
_space_group_name_Hall           '-P 2yn'
loop_
_symmetry_equiv_pos_site_id
_symmetry_equiv_pos_as_xyz
1 x,y,z
2 1/2-x,1/2+y,1/2-z
3 -x,-y,-z
4 1/2+x,1/2-y,1/2+z
_cell_length_a                   12.4667(6)
_cell_length_b                   9.3666(5)
_cell_length_c                   14.1959(7)
_cell_angle_alpha                90
_cell_angle_beta                 112.6200(10)
_cell_angle_gamma                90
_cell_volume                     1530.15
loop_
_atom_site_label
_atom_site_type_symbol
_atom_site_fract_x
_atom_site_fract_y
_atom_site_fract_z
Zn1 Zn 0.216570(13) 0.619412(18) 0.460610(12)
Cl1 Cl 0.14773(3) 0.75911(4) 0.55311(3)
Cl2 Cl 0.38103(3) 0.69043(4) 0.44911(3)
N1 N 0.24215(11) 0.42669(14) 0.53380(9)
N2 N 0.40962(10) -0.02339(13) 0.73572(9)
N3 N 0.49203(10) -0.01890(14) 0.82939(9)
N4 N 0.58319(10) -0.08443(14) 0.82347(9)
C1 C 0.15380(13) 0.35677(17) 0.54527(11)
H1 H 0.0774 0.3940 0.5130
C2 C 0.16948(13) 0.23286(17) 0.60209(11)
H2 H 0.1049 0.1863 0.6084
C3 C 0.28067(12) 0.17738(15) 0.64972(10)
C4 C 0.37150(13) 0.24793(16) 0.63591(12)
H3 H 0.4484 0.2116 0.6659
C5 C 0.34932(13) 0.37143(16) 0.57819(12)
H4 H 0.4123 0.4190 0.5696
C6 C 0.29809(12) 0.04581(16) 0.71542(11)
H5 H 0.2932 0.0728 0.7811
H6 H 0.2348 -0.0229 0.6809
C7 C 0.44660(13) -0.09084(16) 0.66964(11)
H7 H 0.4037 -0.1078 0.5991
C8 C 0.55919(13) -0.12953(15) 0.72592(11)
C9 C 0.64898(13) -0.19536(17) 0.69446(12)
H8 H 0.6106 -0.2429 0.6275
H9 H 0.6921 -0.2689 0.7449
C10 C 0.73434(14) -0.08288(18) 0.68662(12)
H10 H 0.6914 -0.0122 0.6337
H11 H 0.7691 -0.0318 0.7525
C11 C 0.83077(15) -0.1477(2) 0.65999(13)
H12 H 0.7963 -0.1910 0.5912
H13 H 0.8686 -0.2249 0.7092
C12 C 0.92255(17) -0.0401(2) 0.66136(16)
H14 H 0.8866 0.0342 0.6103
H15 H 0.9832 -0.0887 0.6455
H16 H 0.9571 0.0035 0.7292
Zn1C Zn 0.716570(13) -0.119412(18) 0.960610(12)
N4C N 0.08319(10) 0.58443(14) 0.32347(9)
loop_
_geom_bond_atom_site_label_1
_geom_bond_atom_site_label_2
_geom_bond_site_symmetry_1
_geom_bond_site_symmetry_2
Zn1 Cl1 1_555 1_555
Cl2 Zn1 1_555 1_555
N1 Zn1 1_555 1_555
N2 N3 1_555 1_555
N3 N4 1_555 1_555
N4 C8 1_555 1_555
C1 N1 1_555 1_555
H1 C1 1_555 1_555
C2 C1 1_555 1_555
H2 C2 1_555 1_555
C3 C2 1_555 1_555
C4 C3 1_555 1_555
H3 C4 1_555 1_555
C5 N1 1_555 1_555
H4 C5 1_555 1_555
C6 N2 1_555 1_555
H5 C6 1_555 1_555
H6 C6 1_555 1_555
C7 N2 1_555 1_555
H7 C7 1_555 1_555
C8 C7 1_555 1_555
C9 C8 1_555 1_555
H8 C9 1_555 1_555
H9 C9 1_555 1_555
C10 C9 1_555 1_555
H10 C10 1_555 1_555
H11 C10 1_555 1_555
C11 C10 1_555 1_555
H12 C11 1_555 1_555
H13 C11 1_555 1_555
C12 C11 1_555 1_555
H14 C12 1_555 1_555
H15 C12 1_555 1_555
H16 C12 1_555 1_555
Zn1C N4 1_555 1_555
N4C Zn1 1_555 1_555
C3 C6 1_555 1_555
C4 C5 1_555 1_555

#END
