
#######################################################################
#
#                 Cambridge Crystallographic Data Centre
#                                CCDC 
#
#######################################################################
#
# If this CIF has been generated from an entry in the Cambridge 
# Structural Database, then it will include bibliographic, chemical, 
# crystal, experimental, refinement or atomic coordinate data resulting 
# from the CCDC's data processing and validation procedures.
#
#######################################################################

data_FARKOZ
_symmetry_cell_setting           monoclinic
_symmetry_space_group_name_H-M   'P 21/c'
_symmetry_Int_Tables_number      14
_space_group_name_Hall           '-P 2ybc'
loop_
_symmetry_equiv_pos_site_id
_symmetry_equiv_pos_as_xyz
1 x,y,z
2 -x,1/2+y,1/2-z
3 -x,-y,-z
4 x,1/2-y,1/2+z
_cell_length_a                   7.7608(12)
_cell_length_b                   21.176(4)
_cell_length_c                   21.462(4)
_cell_angle_alpha                90
_cell_angle_beta                 99.520(4)
_cell_angle_gamma                90
_cell_volume                     3478.55
loop_
_atom_site_label
_atom_site_type_symbol
_atom_site_fract_x
_atom_site_fract_y
_atom_site_fract_z
Ba1 Ba 0.79818(4) 0.256478(12) 0.268376(14)
Cr1 Cr 0.38410(11) 0.48700(3) 0.17852(3)
N1 N 0.2300(5) 0.42442(18) 0.1196(2)
C1 C 0.1446(8) 0.3735(3) 0.1350(3)
H1 H 0.159(6) 0.363(2) 0.179(2)
O1 O 0.3982(5) 0.43007(16) 0.25162(15)
Cr2 Cr 0.33066(11) 0.17304(4) 0.03291(4)
N2 N 0.3807(5) 0.53136(18) 0.09242(18)
C2 C 0.0432(8) 0.3359(3) 0.0902(3)
H2 H 0.012(7) 0.298(3) 0.112(3)
O2 O 0.6061(4) 0.44632(15) 0.17055(15)
N3 N 0.3331(5) 0.09053(17) -0.01968(17)
C3 C 0.0290(7) 0.3513(3) 0.0282(3)
H3 H -0.039(6) 0.330(2) -0.002(2)
O3 O 0.5727(5) 0.35624(17) 0.30338(16)
N4 N 0.2404(5) 0.10915(19) 0.09292(18)
C4 C 0.1121(7) 0.4051(3) 0.0089(3)
O4 O 0.8020(5) 0.37786(16) 0.21887(18)
C5 C 0.0963(8) 0.4274(3) -0.0554(3)
H4 H 0.024(9) 0.391(3) -0.077(3)
O5 O 0.4963(4) 0.05842(15) 0.27551(16)
C6 C 0.1704(8) 0.4817(3) -0.0683(3)
H5 H 0.147(6) 0.497(2) -0.110(2)
O6 O 0.8263(4) 0.03345(15) 0.30830(16)
O7 O 0.5526(5) 0.15536(17) 0.24201(18)
C7 C 0.2694(7) 0.5204(2) -0.0198(2)
O8 O 0.9040(5) 0.13173(15) 0.28788(17)
C8 C 0.3475(8) 0.5786(3) -0.0298(3)
H6 H 0.329(6) 0.594(2) -0.066(2)
O9 O 1.1560(6) 0.2548(2) 0.2513(2)
C9 C 0.4392(8) 0.6099(3) 0.0195(3)
H7 H 0.481(6) 0.648(2) 0.016(2)
O10 O 0.6477(10) 0.2190(3) 0.3713(3)
H8 H 0.542(10) 0.225(4) 0.368(4)
H9 H 0.693(9) 0.235(3) 0.396(3)
C10 C 0.4555(7) 0.5857(2) 0.0802(3)
H10 H 0.523(7) 0.605(2) 0.123(3)
O11 O 0.7732(5) 0.21412(18) 0.14437(16)
C11 C 0.2890(6) 0.4982(2) 0.0426(2)
O12 O 0.4962(5) 0.28343(17) 0.17771(18)
C12 C 0.2100(6) 0.4407(2) 0.0570(2)
C13 C 0.5371(7) 0.3955(2) 0.2613(2)
O13 O 0.5749(4) 0.16565(15) 0.07319(15)
C14 C 0.6626(7) 0.4063(2) 0.2135(2)
O14 O 0.3291(5) 0.24063(16) 0.09447(18)
C15 C 0.5992(7) 0.1040(2) 0.2655(2)
O15 O 1.0953(5) 0.31038(16) 0.48623(17)
C16 C 0.7942(7) 0.0906(2) 0.2886(2)
O16 O 1.3993(5) 0.27299(15) 0.46684(17)
C17 C 0.6251(7) 0.2062(2) 0.1162(2)
O17 O 0.9690(6) 0.2793(2) 0.3904(2)
O18 O 1.2897(6) 0.2234(2) 0.3782(2)
C18 C 0.4734(7) 0.2481(2) 0.1317(2)
C19 C 1.0952(8) 0.2833(3) 0.4328(3)
C20 C 1.2743(7) 0.2572(2) 0.4230(3)
C21 C 0.3741(7) 0.0836(2) -0.0769(2)
H11 H 0.414(6) 0.124(2) -0.0993(19)
C22 C 0.3547(7) 0.0253(3) -0.1085(3)
H12 H 0.389(6) 0.0237(19) -0.146(2)
C23 C 0.2961(7) -0.0259(3) -0.0809(3)
H13 H 0.276(7) -0.071(3) -0.103(2)
C24 C 0.2544(6) -0.0208(2) -0.0200(2)
C25 C 0.1921(7) -0.0716(3) 0.0148(3)
H14 H 0.183(7) -0.108(3) -0.014(3)
C26 C 0.1543(7) -0.0630(3) 0.0733(3)
H15 H 0.121(8) -0.098(3) 0.098(3)
C27 C 0.1677(6) -0.0022(3) 0.1025(2)
C28 C 0.1227(8) 0.0103(3) 0.1618(3)
H16 H 0.077(7) -0.022(2) 0.183(2)
C29 C 0.1357(7) 0.0707(4) 0.1848(3)
H17 H 0.104(7) 0.080(2) 0.228(3)
C30 C 0.1923(7) 0.1193(3) 0.1491(3)
H18 H 0.203(7) 0.161(2) 0.166(2)
C31 C 0.2282(6) 0.0490(2) 0.0704(2)
C32 C 0.2747(6) 0.0396(2) 0.0090(2)
Cr1A Cr 0.61590(11) -0.01300(3) 0.32148(3)
Cr2C Cr 1.33066(11) 0.32696(4) 0.53291(4)
O5A O 0.5037(4) 0.55842(15) 0.22449(16)
O6A O 0.1737(4) 0.53345(15) 0.19170(16)
O15C O 0.0953(5) 0.18962(16) -0.01377(17)
O16C O 0.3993(5) 0.22701(15) -0.03316(17)
loop_
_geom_bond_atom_site_label_1
_geom_bond_atom_site_label_2
_geom_bond_site_symmetry_1
_geom_bond_site_symmetry_2
Ba1 O3 1_555 1_555
Cr1 N1 1_555 1_555
N1 C1 1_555 1_555
C1 H1 1_555 1_555
O1 Cr1 1_555 1_555
Cr2 N3 1_555 1_555
N2 Cr1 1_555 1_555
C2 C1 1_555 1_555
H2 C2 1_555 1_555
O2 Cr1 1_555 1_555
N3 C21 1_555 1_555
C3 C2 1_555 1_555
H3 C3 1_555 1_555
O3 C13 1_555 1_555
N4 Cr2 1_555 1_555
C4 C3 1_555 1_555
O4 Ba1 1_555 1_555
C5 C4 1_555 1_555
H4 C5 1_555 1_555
O5 C15 1_555 1_555
C6 C5 1_555 1_555
H5 C6 1_555 1_555
O6 C16 1_555 1_555
O7 Ba1 1_555 1_555
C7 C6 1_555 1_555
O8 Ba1 1_555 1_555
C8 C7 1_555 1_555
H6 C8 1_555 1_555
O9 Ba1 1_555 1_555
C9 C8 1_555 1_555
H7 C9 1_555 1_555
O10 Ba1 1_555 1_555
H8 O10 1_555 1_555
H9 O10 1_555 1_555
C10 N2 1_555 1_555
H10 C10 1_555 1_555
O11 Ba1 1_555 1_555
C11 N2 1_555 1_555
O12 Ba1 1_555 1_555
C12 N1 1_555 1_555
C13 O1 1_555 1_555
O13 Cr2 1_555 1_555
C14 O2 1_555 1_555
O14 Cr2 1_555 1_555
C15 O7 1_555 1_555
O15 C19 1_555 1_555
C16 O8 1_555 1_555
O16 C20 1_555 1_555
C17 O11 1_555 1_555
O17 Ba1 1_555 1_555
O18 C20 1_555 1_555
C18 O12 1_555 1_555
C19 O17 1_555 1_555
C20 C19 1_555 1_555
C21 H11 1_555 1_555
C22 C21 1_555 1_555
H12 C22 1_555 1_555
C23 C22 1_555 1_555
H13 C23 1_555 1_555
C24 C23 1_555 1_555
C25 C24 1_555 1_555
H14 C25 1_555 1_555
C26 C25 1_555 1_555
H15 C26 1_555 1_555
C27 C26 1_555 1_555
C28 C27 1_555 1_555
H16 C28 1_555 1_555
C29 C28 1_555 1_555
H17 C29 1_555 1_555
C30 N4 1_555 1_555
H18 C30 1_555 1_555
C31 N4 1_555 1_555
C32 N3 1_555 1_555
Cr1A O5 1_555 1_555
Cr2C O15 1_555 1_555
O5A Cr1 1_555 1_555
O6A Cr1 1_555 1_555
O15C Cr2 1_555 1_555
O16C Cr2 1_555 1_555
C4 C12 1_555 1_555
O4 C14 1_555 1_555
O6 Cr1A 1_555 1_555
C7 C11 1_555 1_555
C9 C10 1_555 1_555
C11 C12 1_555 1_555
C13 C14 1_555 1_555
O13 C17 1_555 1_555
O14 C18 1_555 1_555
C15 C16 1_555 1_555
O16 Cr2C 1_555 1_555
C17 C18 1_555 1_555
C24 C32 1_555 1_555
C27 C31 1_555 1_555
C29 C30 1_555 1_555
C31 C32 1_555 1_555

#END
