
#######################################################################
#
#                 Cambridge Crystallographic Data Centre
#                                CCDC 
#
#######################################################################
#
# If this CIF has been generated from an entry in the Cambridge 
# Structural Database, then it will include bibliographic, chemical, 
# crystal, experimental, refinement or atomic coordinate data resulting 
# from the CCDC's data processing and validation procedures.
#
#######################################################################

data_FARKAM
_symmetry_cell_setting           triclinic
_symmetry_space_group_name_H-M   'P -1'
_symmetry_Int_Tables_number      2
_space_group_name_Hall           '-P 1'
loop_
_symmetry_equiv_pos_site_id
_symmetry_equiv_pos_as_xyz
1 x,y,z
2 -x,-y,-z
_cell_length_a                   10.4471(9)
_cell_length_b                   11.3138(9)
_cell_length_c                   16.9704(14)
_cell_angle_alpha                87.3870(10)
_cell_angle_beta                 80.2180(10)
_cell_angle_gamma                66.1410(10)
_cell_volume                     1807.16
loop_
_atom_site_label
_atom_site_type_symbol
_atom_site_fract_x
_atom_site_fract_y
_atom_site_fract_z
Co1 Co 0.08225(3) 0.47340(2) 0.780276(15)
Co2 Co -0.21375(3) 0.77753(2) 0.744808(16)
O1 O 0.26909(14) 0.47031(14) 0.71518(8)
O2 O 0.35320(16) 0.54949(17) 0.80306(9)
O3 O 1.10234(15) 0.22363(14) 0.38337(9)
O4 O 1.03591(14) 0.38185(13) 0.30133(8)
O5 O -0.0655(2) -0.13628(16) 0.81935(13)
O6 O -0.26147(19) -0.03681(15) 0.76941(10)
O7 O -0.11389(14) 0.49399(13) 0.84638(8)
O8 O -0.26616(15) 0.70115(13) 0.84622(9)
O9 O 0.07995(14) 0.61387(13) 0.85911(8)
H1 H 0.1637 0.6098 0.8564
H2 H 0.0418 0.6923 0.8460
N1 N 0.09281(17) 0.31734(15) 0.70661(10)
N2 N 0.59794(18) -0.19595(17) 0.70405(11)
N3 N 0.19674(16) 0.32344(15) 0.85688(10)
C1 C 0.4977(2) 0.46956(19) 0.67804(11)
C2 C 0.6074(2) 0.4978(2) 0.69482(12)
H3 H 0.5965 0.5400 0.7429
C3 C 0.7326(2) 0.4647(2) 0.64170(12)
H4 H 0.8041 0.4857 0.6543
C4 C 0.7540(2) 0.4011(2) 0.57042(12)
C5 C 0.6413(3) 0.3787(3) 0.55196(15)
H5 H 0.6508 0.3402 0.5028
C6 C 0.5156(3) 0.4122(3) 0.60466(14)
H6 H 0.4418 0.3960 0.5906
C7 C 0.3633(2) 0.49991(19) 0.73716(12)
C8 C 0.8958(2) 0.3511(2) 0.51452(12)
H7 H 0.9278 0.2585 0.5070
H8 H 0.9645 0.3657 0.5401
C9 C 0.8941(2) 0.4122(2) 0.43289(12)
H9 H 0.8066 0.4241 0.4148
H10 H 0.8948 0.4970 0.4381
C10 C 1.0175(2) 0.33368(19) 0.37043(12)
C11 C -0.1969(2) 0.0869(2) 0.85224(13)
C12 C -0.1143(3) 0.0891(2) 0.90748(16)
H11 H -0.0390 0.0135 0.9174
C13 C -0.1427(3) 0.2026(2) 0.94801(15)
H12 H -0.0866 0.2018 0.9853
C14 C -0.2535(2) 0.3182(2) 0.93429(12)
C15 C -0.3354(2) 0.3152(2) 0.87876(13)
H13 H -0.4105 0.3908 0.8687
C16 C -0.3075(2) 0.2016(2) 0.83783(13)
H14 H -0.3634 0.2023 0.8004
C17 C -0.1705(3) -0.0367(2) 0.81117(15)
C18 C -0.2834(2) 0.4394(2) 0.98096(13)
H15 H -0.1973 0.4294 1.0001
H16 H -0.3544 0.4463 1.0276
C19 C -0.3346(2) 0.5661(2) 0.93707(13)
H17 H -0.3676 0.6364 0.9762
H18 H -0.4158 0.5725 0.9139
C20 C -0.2281(2) 0.58681(19) 0.87128(11)
C21 C 0.1995(2) 0.2611(2) 0.64596(13)
H19 H 0.2652 0.2975 0.6311
C22 C 0.2167(2) 0.1526(2) 0.60464(13)
H20 H 0.2927 0.1174 0.5631
C23 C 0.1214(2) 0.0956(2) 0.62464(13)
C24 C 0.0107(2) 0.1542(2) 0.68641(14)
H21 H -0.0574 0.1206 0.7015
C25 C 0.0004(2) 0.2618(2) 0.72568(13)
H22 H -0.0744 0.2981 0.7677
C26 C 0.1390(3) -0.0273(2) 0.58479(15)
H23 H 0.2033 -0.0410 0.5343
H24 H 0.0480 -0.0194 0.5736
C27 C 0.1977(2) -0.1437(2) 0.63793(16)
H25 H 0.1291 -0.1327 0.6863
H26 H 0.2096 -0.2212 0.6100
C28 C 0.4821(2) -0.1774(2) 0.75843(15)
H27 H 0.4897 -0.1772 0.8122
C29 C 0.3526(2) -0.1586(2) 0.73931(15)
H28 H 0.2751 -0.1439 0.7797
C30 C 0.3376(2) -0.1615(2) 0.66058(15)
C31 C 0.4575(2) -0.1809(2) 0.60393(15)
H29 H 0.4528 -0.1827 0.5498
C32 C 0.5836(2) -0.1974(2) 0.62747(14)
H30 H 0.6622 -0.2101 0.5882
C33 C 0.1469(2) 0.3109(2) 0.93312(12)
H31 H 0.0600 0.3737 0.9563
C34 C 0.2174(2) 0.2097(2) 0.97940(13)
H32 H 0.1776 0.2053 1.0322
C35 C 0.3472(2) 0.1150(2) 0.94738(13)
C36 C 0.3987(2) 0.1273(2) 0.86822(14)
H33 H 0.4851 0.0656 0.8436
C37 C 0.3224(2) 0.2306(2) 0.82608(13)
H34 H 0.3599 0.2368 0.7730
C38 C 0.4302(3) 0.0044(3) 0.99590(18)
H35 H 0.3750 0.0119 1.0489
H36 H 0.4412 -0.0757 0.9714
Co1A Co 0.91775(3) 0.52660(2) 0.219724(15)
Co1A_2 Co 0.91775(3) -0.47340(2) 1.219724(15)
Co1_2 Co 0.08225(3) 1.47340(2) 0.780276(15)
Co1_3 Co -0.91775(3) 1.47340(2) 0.780276(15)
Co2A Co 1.21375(3) 0.22247(2) 0.255192(16)
Co2_2 Co -0.21375(3) -0.22247(2) 0.744808(16)
Co2_3 Co 0.78625(3) -0.22247(2) 0.744808(16)
Co2_4 Co -0.21375(3) 1.77753(2) 0.744808(16)
O1A O 0.73091(14) 0.52969(14) 0.28482(8)
O2A O 0.64680(16) 0.45051(17) 0.19694(9)
O3A O -0.10234(15) 0.77637(14) 0.61663(9)
O4A O -0.03591(14) 0.61815(13) 0.69867(8)
O5_2 O -0.0655(2) 0.86372(16) 0.81935(13)
O6_2 O -0.26147(19) 0.96319(15) 0.76941(10)
O6A O 1.26147(19) 0.03681(15) 0.23059(10)
O7_2 O -0.11389(14) 1.49399(13) 0.84638(8)
O7A O 1.11389(14) 0.50601(13) 0.15362(8)
O8_2 O -0.26616(15) 1.70115(13) 0.84622(9)
O8A O 1.26616(15) 0.29885(13) 0.15378(9)
O9A O 0.92005(14) 0.38613(13) 0.14089(8)
H1A H 0.8363 0.3902 0.1436
H2A H 0.9582 0.3077 0.1540
N1_2 N -0.90719(17) 1.31734(15) 0.70661(10)
N1A N 0.90719(17) 0.68266(15) 0.29339(10)
N2_2 N -0.40206(18) 0.80405(17) 0.70405(11)
N2A N 1.40206(18) 0.19595(17) 0.29595(11)
N3A N 0.80326(16) -0.32344(15) 1.14312(10)
N3A_2 N 0.80326(16) 0.67656(15) 0.14312(10)
C1A C 0.5023(2) 0.53044(19) 0.32196(11)
C2A C 0.3926(2) 0.5022(2) 0.30518(12)
H3A H 0.4035 0.4600 0.2571
C3A C 0.2674(2) 0.5353(2) 0.35830(12)
H4A H 0.1959 0.5143 0.3457
C4A C 0.2460(2) 0.5989(2) 0.42958(12)
C5A C 0.3587(3) 0.6213(3) 0.44804(15)
H5A H 0.3492 0.6598 0.4972
C6A C 0.4844(3) 0.5878(3) 0.39534(14)
H6A H 0.5582 0.6040 0.4094
C7A C 0.6367(2) 0.50009(19) 0.26284(12)
C8A C 0.1042(2) 0.6489(2) 0.48548(12)
H7A H 0.0722 0.7415 0.4930
H8A H 0.0355 0.6343 0.4599
C9A C 0.1059(2) 0.5878(2) 0.56711(12)
H9A H 0.1934 0.5759 0.5852
H10A H 0.1052 0.5030 0.5619
C10A C -0.0175(2) 0.66632(19) 0.62957(12)
C11_2 C -0.1969(2) 1.0869(2) 0.85224(13)
C12_2 C -0.1143(3) 1.0891(2) 0.90748(16)
H11_2 H -0.0390 1.0135 0.9174
C13_2 C -0.1427(3) 1.2026(2) 0.94801(15)
H12_2 H -0.0866 1.2018 0.9853
C14_2 C -0.2535(2) 1.3182(2) 0.93429(12)
C15_2 C -0.3354(2) 1.3152(2) 0.87876(13)
H13_2 H -0.4105 1.3908 0.8687
C16_2 C -0.3075(2) 1.2016(2) 0.83783(13)
H14_2 H -0.3634 1.2023 0.8004
C17_2 C -0.1705(3) 0.9633(2) 0.81117(15)
C18_2 C -0.2834(2) 1.4394(2) 0.98096(13)
H15_2 H -0.1973 1.4294 1.0001
H16_2 H -0.3544 1.4463 1.0276
C19_2 C -0.3346(2) 1.5661(2) 0.93707(13)
H17_2 H -0.3676 1.6364 0.9762
H18_2 H -0.4158 1.5725 0.9139
C20_2 C -0.2281(2) 1.58681(19) 0.87128(11)
C21_2 C -0.8005(2) 1.2611(2) 0.64596(13)
H19_2 H -0.7348 1.2975 0.6311
C22_2 C -0.7833(2) 1.1526(2) 0.60464(13)
H20_2 H -0.7073 1.1174 0.5631
C23_2 C -0.8786(2) 1.0956(2) 0.62464(13)
C24_2 C -0.9893(2) 1.1542(2) 0.68641(14)
H21_2 H -1.0574 1.1206 0.7015
C25_2 C -0.9996(2) 1.2618(2) 0.72568(13)
H22_2 H -1.0744 1.2981 0.7677
C26_2 C -0.8610(3) 0.9727(2) 0.58479(15)
H23_2 H -0.7967 0.9590 0.5343
H24_2 H -0.9520 0.9806 0.5736
C27_2 C -0.8023(2) 0.8563(2) 0.63793(16)
H25_2 H -0.8709 0.8673 0.6863
H26_2 H -0.7904 0.7788 0.6100
C28_2 C -0.5179(2) 0.8226(2) 0.75843(15)
H27_2 H -0.5103 0.8228 0.8122
C29_2 C -0.6474(2) 0.8414(2) 0.73931(15)
H28_2 H -0.7249 0.8561 0.7797
C30_2 C -0.6624(2) 0.8385(2) 0.66058(15)
C31_2 C -0.5425(2) 0.8191(2) 0.60393(15)
H29_2 H -0.5472 0.8173 0.5498
C32_2 C -0.4164(2) 0.8026(2) 0.62747(14)
H30_2 H -0.3378 0.7899 0.5882
C33A C 0.8531(2) -0.3109(2) 1.06688(12)
H31A H 0.9400 -0.3737 1.0437
C34A C 0.7826(2) -0.2097(2) 1.02060(13)
H32A H 0.8224 -0.2053 0.9678
C35A C 0.6528(2) -0.1150(2) 1.05262(13)
C36A C 0.6013(2) -0.1273(2) 1.13178(14)
H33A H 0.5149 -0.0656 1.1564
C37A C 0.6776(2) -0.2306(2) 1.17392(13)
H34A H 0.6401 -0.2368 1.2270
C38A C 0.5698(3) -0.0044(3) 1.00410(18)
H35A H 0.6250 -0.0119 0.9511
H36A H 0.5588 0.0757 1.0286
loop_
_geom_bond_atom_site_label_1
_geom_bond_atom_site_label_2
_geom_bond_site_symmetry_1
_geom_bond_site_symmetry_2
Co1 O1 1_555 1_555
Co2 O8 1_555 1_555
O1 C7 1_555 1_555
O2 C7 1_555 1_555
O3 C10 1_555 1_555
O4 C10 1_555 1_555
O5 C17 1_555 1_555
O6 C17 1_555 1_555
O7 Co1 1_555 1_555
O8 C20 1_555 1_555
O9 Co1 1_555 1_555
H1 O9 1_555 1_555
H2 O9 1_555 1_555
N1 Co1 1_555 1_555
N2 C28 1_555 1_555
N3 Co1 1_555 1_555
C1 C2 1_555 1_555
C2 H3 1_555 1_555
C3 C2 1_555 1_555
H4 C3 1_555 1_555
C4 C3 1_555 1_555
C5 C4 1_555 1_555
H5 C5 1_555 1_555
C6 C1 1_555 1_555
H6 C6 1_555 1_555
C7 C1 1_555 1_555
C8 C4 1_555 1_555
H7 C8 1_555 1_555
H8 C8 1_555 1_555
C9 C8 1_555 1_555
H9 C9 1_555 1_555
H10 C9 1_555 1_555
C10 C9 1_555 1_555
C11 C12 1_555 1_555
C12 H11 1_555 1_555
C13 C12 1_555 1_555
H12 C13 1_555 1_555
C14 C13 1_555 1_555
C15 C14 1_555 1_555
H13 C15 1_555 1_555
C16 C11 1_555 1_555
H14 C16 1_555 1_555
C17 C11 1_555 1_555
C18 C14 1_555 1_555
H15 C18 1_555 1_555
H16 C18 1_555 1_555
C19 C18 1_555 1_555
H17 C19 1_555 1_555
H18 C19 1_555 1_555
C20 O7 1_555 1_555
C21 N1 1_555 1_555
H19 C21 1_555 1_555
C22 C21 1_555 1_555
H20 C22 1_555 1_555
C23 C22 1_555 1_555
C24 C23 1_555 1_555
H21 C24 1_555 1_555
C25 N1 1_555 1_555
H22 C25 1_555 1_555
C26 C23 1_555 1_555
H23 C26 1_555 1_555
H24 C26 1_555 1_555
C27 C26 1_555 1_555
H25 C27 1_555 1_555
H26 C27 1_555 1_555
C28 H27 1_555 1_555
C29 C28 1_555 1_555
H28 C29 1_555 1_555
C30 C27 1_555 1_555
C31 C30 1_555 1_555
H29 C31 1_555 1_555
C32 N2 1_555 1_555
H30 C32 1_555 1_555
C33 N3 1_555 1_555
H31 C33 1_555 1_555
C34 C33 1_555 1_555
H32 C34 1_555 1_555
C35 C34 1_555 1_555
C36 C35 1_555 1_555
H33 C36 1_555 1_555
C37 N3 1_555 1_555
H34 C37 1_555 1_555
C38 C35 1_555 1_555
H35 C38 1_555 1_555
H36 C38 1_555 1_555
Co1A O4 1_555 1_555
Co1A_2 N3A 1_555 1_555
Co1_2 O7_2 1_555 1_555
Co1_3 N1_2 1_555 1_555
Co2A O3 1_555 1_555
Co2_2 O6 1_555 1_555
Co2_3 N2 1_555 1_555
Co2_4 O8_2 1_555 1_555
O1A Co1A 1_555 1_555
O2A C7A 1_555 1_555
O3A Co2 1_555 1_555
O4A Co1 1_555 1_555
O5_2 C17_2 1_555 1_555
O6_2 Co2 1_555 1_555
O6A Co2A 1_555 1_555
O7_2 C20_2 1_555 1_555
O7A Co1A 1_555 1_555
O8_2 C20_2 1_555 1_555
O8A Co2A 1_555 1_555
O9A Co1A 1_555 1_555
H1A O9A 1_555 1_555
H2A O9A 1_555 1_555
N1_2 C21_2 1_555 1_555
N1A Co1A 1_555 1_555
N2_2 Co2 1_555 1_555
N2A Co2A 1_555 1_555
N3A C33A 1_555 1_555
N3A_2 Co1A 1_555 1_555
C1A C2A 1_555 1_555
C2A H3A 1_555 1_555
C3A C2A 1_555 1_555
H4A C3A 1_555 1_555
C4A C3A 1_555 1_555
C5A C4A 1_555 1_555
H5A C5A 1_555 1_555
C6A C1A 1_555 1_555
H6A C6A 1_555 1_555
C7A O1A 1_555 1_555
C8A C4A 1_555 1_555
H7A C8A 1_555 1_555
H8A C8A 1_555 1_555
C9A C8A 1_555 1_555
H9A C9A 1_555 1_555
H10A C9A 1_555 1_555
C10A O3A 1_555 1_555
C11_2 C12_2 1_555 1_555
C12_2 H11_2 1_555 1_555
C13_2 C12_2 1_555 1_555
H12_2 C13_2 1_555 1_555
C14_2 C13_2 1_555 1_555
C15_2 C14_2 1_555 1_555
H13_2 C15_2 1_555 1_555
C16_2 C11_2 1_555 1_555
H14_2 C16_2 1_555 1_555
C17_2 O6_2 1_555 1_555
C18_2 C14_2 1_555 1_555
H15_2 C18_2 1_555 1_555
H16_2 C18_2 1_555 1_555
C19_2 C18_2 1_555 1_555
H17_2 C19_2 1_555 1_555
H18_2 C19_2 1_555 1_555
C20_2 C19_2 1_555 1_555
C21_2 H19_2 1_555 1_555
C22_2 C21_2 1_555 1_555
H20_2 C22_2 1_555 1_555
C23_2 C22_2 1_555 1_555
C24_2 C23_2 1_555 1_555
H21_2 C24_2 1_555 1_555
C25_2 N1_2 1_555 1_555
H22_2 C25_2 1_555 1_555
C26_2 C23_2 1_555 1_555
H23_2 C26_2 1_555 1_555
H24_2 C26_2 1_555 1_555
C27_2 C26_2 1_555 1_555
H25_2 C27_2 1_555 1_555
H26_2 C27_2 1_555 1_555
C28_2 N2_2 1_555 1_555
H27_2 C28_2 1_555 1_555
C29_2 C28_2 1_555 1_555
H28_2 C29_2 1_555 1_555
C30_2 C27_2 1_555 1_555
C31_2 C30_2 1_555 1_555
H29_2 C31_2 1_555 1_555
C32_2 N2_2 1_555 1_555
H30_2 C32_2 1_555 1_555
C33A H31A 1_555 1_555
C34A C33A 1_555 1_555
H32A C34A 1_555 1_555
C35A C34A 1_555 1_555
C36A C35A 1_555 1_555
H33A C36A 1_555 1_555
C37A N3A 1_555 1_555
H34A C37A 1_555 1_555
C38A C38 1_555 1_555
H35A C38A 1_555 1_555
H36A C38A 1_555 1_555
Co2 O4A 1_555 1_555
O4 Co2A 1_555 1_555
C5 C6 1_555 1_555
C15 C16 1_555 1_555
C19 C20 1_555 1_555
C24 C25 1_555 1_555
C29 C30 1_555 1_555
C31 C32 1_555 1_555
C36 C37 1_555 1_555
O4A C10A 1_555 1_555
C1A C7A 1_555 1_555
C5A C6A 1_555 1_555
C9A C10A 1_555 1_555
C11_2 C17_2 1_555 1_555
C15_2 C16_2 1_555 1_555
C24_2 C25_2 1_555 1_555
C29_2 C30_2 1_555 1_555
C31_2 C32_2 1_555 1_555
C35A C38A 1_555 1_555
C36A C37A 1_555 1_555

#END
