
#######################################################################
#
#                 Cambridge Crystallographic Data Centre
#                                CCDC 
#
#######################################################################
#
# If this CIF has been generated from an entry in the Cambridge 
# Structural Database, then it will include bibliographic, chemical, 
# crystal, experimental, refinement or atomic coordinate data resulting 
# from the CCDC's data processing and validation procedures.
#
#######################################################################

data_FARKIT
_symmetry_cell_setting           monoclinic
_symmetry_space_group_name_H-M   'P 2/c'
_symmetry_Int_Tables_number      13
_space_group_name_Hall           '-P 2yc'
loop_
_symmetry_equiv_pos_site_id
_symmetry_equiv_pos_as_xyz
1 x,y,z
2 -x,y,1/2-z
3 -x,-y,-z
4 x,-y,1/2+z
_cell_length_a                   11.7633(19)
_cell_length_b                   9.5108(15)
_cell_length_c                   16.581(3)
_cell_angle_alpha                90
_cell_angle_beta                 92.208(4)
_cell_angle_gamma                90
_cell_volume                     1853.68
loop_
_atom_site_label
_atom_site_type_symbol
_atom_site_fract_x
_atom_site_fract_y
_atom_site_fract_z
Ba1 Ba 0.0000 0.16880(4) 0.2500
Cr1 Cr -0.24595(5) -0.33097(6) 0.08927(3)
N1 N -0.2851(3) -0.4042(3) -0.02456(17)
O1 O -0.1829(2) -0.1500(3) 0.05469(14)
C1 C -0.2164(4) -0.4839(5) -0.0682(2)
H1 H -0.1425 -0.5006 -0.0488
N2 N -0.4089(3) -0.2572(3) 0.07078(19)
O2 O -0.2259(2) -0.2490(3) 0.19667(14)
C2 C -0.2522(4) -0.5419(5) -0.1413(3)
H2 H -0.2035 -0.5980 -0.1702
O3 O -0.1342(3) -0.0723(4) 0.25837(17)
C3 C -0.3599(4) -0.5157(6) -0.1702(3)
H3 H -0.3852 -0.5538 -0.2193
C4 C -0.4315(4) -0.4330(5) -0.1269(2)
H4 H -0.5051 -0.4141 -0.1465
O4 O -0.0952(3) 0.0379(3) 0.10780(18)
O5 O -0.0933(2) 0.5861(3) 0.09642(15)
C5 C -0.3920(3) -0.3781(4) -0.0534(2)
O6 O -0.2897(2) 0.4881(3) 0.13658(15)
C6 C -0.4604(3) -0.2897(4) -0.0016(2)
C7 C -0.5676(4) -0.2387(6) -0.0223(3)
H5 H -0.6017 -0.2606 -0.0723
O7 O -0.2094(3) 0.3000(3) 0.19507(19)
C8 C -0.6236(5) -0.1553(6) 0.0312(4)
H6 H -0.6955 -0.1197 0.0177
O8 O -0.0020(3) 0.4048(4) 0.1533(2)
C9 C -0.5715(5) -0.1255(6) 0.1048(4)
H7 H -0.6088 -0.0716 0.1424
O9 O -0.1690(3) 0.1145(5) 0.3809(2)
C10 C -0.4651(4) -0.1752(5) 0.1225(3)
H8 H -0.4298 -0.1521 0.1719
C11 C -0.1442(3) -0.0734(4) 0.1137(2)
C12 C -0.1682(3) -0.1342(4) 0.1982(2)
C13 C -0.0874(3) 0.4699(4) 0.1354(2)
C14 C -0.2044(3) 0.4112(4) 0.1591(2)
Cr1A Cr 0.24595(5) -0.33097(6) 0.41073(3)
Cr1_2 Cr -0.24595(5) 0.66903(6) 0.08927(3)
Cr1A_2 Cr 0.24595(5) 0.66903(6) 0.41073(3)
N1A N 0.2851(3) -0.4042(3) 0.52456(17)
O1A O 0.1829(2) -0.1500(3) 0.44531(14)
C1A C 0.2164(4) -0.4839(5) 0.5682(2)
H1A H 0.1425 -0.5006 0.5488
N2A N 0.4089(3) -0.2572(3) 0.42922(19)
O2A O 0.2259(2) -0.2490(3) 0.30333(14)
C2A C 0.2522(4) -0.5419(5) 0.6413(3)
H2A H 0.2035 -0.5980 0.6702
O3A O 0.1342(3) -0.0723(4) 0.24163(17)
C3A C 0.3599(4) -0.5157(6) 0.6702(3)
H3A H 0.3852 -0.5538 0.7193
C4A C 0.4315(4) -0.4330(5) 0.6269(2)
H4A H 0.5051 -0.4141 0.6465
O4A O 0.0952(3) 0.0379(3) 0.39220(18)
O5A O 0.0933(2) 0.5861(3) 0.40358(15)
O5_2 O -0.0933(2) -0.4139(3) 0.09642(15)
O5A_2 O 0.0933(2) -0.4139(3) 0.40358(15)
C5A C 0.3920(3) -0.3781(4) 0.5534(2)
O6A O 0.2897(2) 0.4881(3) 0.36342(15)
O6_2 O -0.2897(2) -0.5119(3) 0.13658(15)
O6A_2 O 0.2897(2) -0.5119(3) 0.36342(15)
C6A C 0.4604(3) -0.2897(4) 0.5016(2)
C7A C 0.5676(4) -0.2387(6) 0.5223(3)
H5A H 0.6017 -0.2606 0.5723
O7A O 0.2094(3) 0.3000(3) 0.30493(19)
C8A C 0.6236(5) -0.1553(6) 0.4688(4)
H6A H 0.6955 -0.1197 0.4823
O8A O 0.0020(3) 0.4048(4) 0.3467(2)
C9A C 0.5715(5) -0.1255(6) 0.3952(4)
H7A H 0.6088 -0.0716 0.3576
O9A O 0.1690(3) 0.1145(5) 0.1191(2)
C10A C 0.4651(4) -0.1752(5) 0.3775(3)
H8A H 0.4298 -0.1521 0.3281
C11A C 0.1442(3) -0.0734(4) 0.3863(2)
C12A C 0.1682(3) -0.1342(4) 0.3018(2)
C13A C 0.0874(3) 0.4699(4) 0.3646(2)
C14A C 0.2044(3) 0.4112(4) 0.3409(2)
O10 O -0.3802(5) -0.8825(6) 0.2500(4)
O11 O -0.0954(4) 0.2074(7) -0.0340(4)
loop_
_geom_bond_atom_site_label_1
_geom_bond_atom_site_label_2
_geom_bond_site_symmetry_1
_geom_bond_site_symmetry_2
Ba1 O3 1_555 1_555
Cr1 N1 1_555 1_555
N1 C1 1_555 1_555
O1 Cr1 1_555 1_555
C1 H1 1_555 1_555
N2 Cr1 1_555 1_555
O2 Cr1 1_555 1_555
C2 C1 1_555 1_555
H2 C2 1_555 1_555
O3 C12 1_555 1_555
C3 C2 1_555 1_555
H3 C3 1_555 1_555
C4 C3 1_555 1_555
H4 C4 1_555 1_555
O4 Ba1 1_555 1_555
O5 C13 1_555 1_555
C5 N1 1_555 1_555
O6 C14 1_555 1_555
C6 N2 1_555 1_555
C7 C6 1_555 1_555
H5 C7 1_555 1_555
O7 Ba1 1_555 1_555
C8 C7 1_555 1_555
H6 C8 1_555 1_555
O8 Ba1 1_555 1_555
C9 C8 1_555 1_555
H7 C9 1_555 1_555
O9 Ba1 1_555 1_555
C10 N2 1_555 1_555
H8 C10 1_555 1_555
C11 O1 1_555 1_555
C12 O2 1_555 1_555
C13 O8 1_555 1_555
C14 O7 1_555 1_555
Cr1A N1A 1_555 1_555
Cr1_2 O5 1_555 1_555
Cr1A_2 O5A 1_555 1_555
N1A C1A 1_555 1_555
O1A Cr1A 1_555 1_555
C1A H1A 1_555 1_555
N2A Cr1A 1_555 1_555
O2A Cr1A 1_555 1_555
C2A C1A 1_555 1_555
H2A C2A 1_555 1_555
O3A Ba1 1_555 1_555
C3A C2A 1_555 1_555
H3A C3A 1_555 1_555
C4A C3A 1_555 1_555
H4A C4A 1_555 1_555
O4A Ba1 1_555 1_555
O5A C13A 1_555 1_555
O5_2 Cr1 1_555 1_555
O5A_2 Cr1A 1_555 1_555
C5A N1A 1_555 1_555
O6A Cr1A_2 1_555 1_555
O6_2 Cr1 1_555 1_555
O6A_2 Cr1A 1_555 1_555
C6A N2A 1_555 1_555
C7A C6A 1_555 1_555
H5A C7A 1_555 1_555
O7A Ba1 1_555 1_555
C8A C7A 1_555 1_555
H6A C8A 1_555 1_555
O8A Ba1 1_555 1_555
C9A C8A 1_555 1_555
H7A C9A 1_555 1_555
O9A Ba1 1_555 1_555
C10A N2A 1_555 1_555
H8A C10A 1_555 1_555
C11A O1A 1_555 1_555
C12A O2A 1_555 1_555
C13A O8A 1_555 1_555
C14A O6A 1_555 1_555
C4 C5 1_555 1_555
O4 C11 1_555 1_555
C5 C6 1_555 1_555
O6 Cr1_2 1_555 1_555
C9 C10 1_555 1_555
C11 C12 1_555 1_555
C13 C14 1_555 1_555
O3A C12A 1_555 1_555
C4A C5A 1_555 1_555
O4A C11A 1_555 1_555
C5A C6A 1_555 1_555
O7A C14A 1_555 1_555
C9A C10A 1_555 1_555
C11A C12A 1_555 1_555
C13A C14A 1_555 1_555

#END
