
#######################################################################
#
#                 Cambridge Crystallographic Data Centre
#                                CCDC 
#
#######################################################################
#
# If this CIF has been generated from an entry in the Cambridge 
# Structural Database, then it will include bibliographic, chemical, 
# crystal, experimental, refinement or atomic coordinate data resulting 
# from the CCDC's data processing and validation procedures.
#
#######################################################################

data_FARLOB
_symmetry_cell_setting           monoclinic
_symmetry_space_group_name_H-M   'P 21'
_symmetry_Int_Tables_number      4
_space_group_name_Hall           'P 2yb'
loop_
_symmetry_equiv_pos_site_id
_symmetry_equiv_pos_as_xyz
1 x,y,z
2 -x,1/2+y,-z
_cell_length_a                   8.9908(13)
_cell_length_b                   15.880(2)
_cell_length_c                   12.7955(18)
_cell_angle_alpha                90
_cell_angle_beta                 100.110(3)
_cell_angle_gamma                90
_cell_volume                     1798.5
loop_
_atom_site_label
_atom_site_type_symbol
_atom_site_fract_x
_atom_site_fract_y
_atom_site_fract_z
Cu1 Cu 0.00405(4) 0.62325(3) 0.71753(3)
N1 N -0.1566(3) 0.60023(19) 0.5891(2)
N2 N -0.2645(3) 0.65685(19) 0.5669(2)
N3 N -0.3512(3) 0.6316(2) 0.4769(2)
N4 N -0.8412(3) 0.6276(2) 0.6196(2)
N5 N 0.1607(3) 0.65967(19) 0.8404(2)
N6 N 0.2636(3) 0.7140(2) 0.8224(2)
N7 N 0.3488(3) 0.72903(19) 0.9164(2)
N8 N 0.8440(3) 0.66976(19) 0.7937(2)
C1 C -0.3008(4) 0.5592(2) 0.4410(3)
H1 H -0.3430 0.5293 0.3785
C2 C -0.1762(4) 0.5378(2) 0.5133(3)
C3 C -0.4905(4) 0.6759(3) 0.4375(3)
H2 H -0.5262 0.6601 0.3624
H3 H -0.4708 0.7373 0.4400
C4 C -0.8587(4) 0.6830(3) 0.5402(3)
H4 H -0.9524 0.7119 0.5236
C5 C -0.7487(4) 0.7008(3) 0.4805(3)
H5 H -0.7651 0.7425 0.4265
C6 C -0.6128(4) 0.6562(2) 0.5012(3)
C7 C -0.5978(4) 0.5956(2) 0.5801(3)
H6 H -0.5092 0.5619 0.5941
C8 C -0.7115(4) 0.5842(2) 0.6383(3)
H7 H -0.6973 0.5438 0.6940
C9 C -0.0829(5) 0.4581(3) 0.5189(3)
H8 H -0.1259 0.4160 0.5623
H9 H 0.0213 0.4707 0.5551
C10 C -0.0771(5) 0.4204(3) 0.4107(4)
H10 H -0.0709 0.3583 0.4174
H11 H -0.1720 0.4343 0.3619
C11 C 0.0549(6) 0.4516(3) 0.3633(4)
H12 H 0.0329 0.4430 0.2855
H13 H 0.0677 0.5127 0.3769
C12 C 0.1995(6) 0.4071(3) 0.4083(3)
H14 H 0.1828 0.3456 0.4014
H15 H 0.2260 0.4202 0.4850
C13 C 0.3314(7) 0.4305(3) 0.3553(4)
H16 H 0.3604 0.4897 0.3730
H17 H 0.2998 0.4267 0.2774
C14 C 0.4674(7) 0.3742(3) 0.3894(5)
H18 H 0.5007 0.3788 0.4663
H19 H 0.5496 0.3917 0.3530
H20 H 0.4399 0.3157 0.3708
C15 C 0.3022(4) 0.6855(2) 0.9949(3)
H21 H 0.3454 0.6862 1.0682
C16 C 0.1812(4) 0.6405(2) 0.9479(3)
C17 C 0.4809(4) 0.7836(2) 0.9215(3)
H22 H 0.5173 0.8001 0.9962
H23 H 0.4512 0.8355 0.8803
C18 C 0.7210(3) 0.6245(3) 0.8025(2)
H24 H 0.7156 0.5675 0.7798
C19 C 0.6018(4) 0.6583(2) 0.8434(3)
H25 H 0.5155 0.6248 0.8477
C20 C 0.6085(4) 0.7410(2) 0.8781(3)
C21 C 0.7377(4) 0.7868(2) 0.8720(3)
H26 H 0.7467 0.8434 0.8964
C22 C 0.8546(4) 0.7494(2) 0.8297(3)
H27 H 0.9434 0.7809 0.8264
C23 C 0.0867(4) 0.5775(2) 0.9954(3)
H28 H 0.1367 0.5218 0.9987
H29 H -0.0130 0.5722 0.9486
C24 C 0.0632(4) 0.6024(2) 1.1071(3)
H30 H 0.0210 0.5538 1.1405
H31 H 0.1622 0.6164 1.1508
C25 C -0.0423(4) 0.6772(2) 1.1063(3)
H32 H 0.0033 0.7267 1.0771
H33 H -0.1389 0.6645 1.0587
C26 C -0.0744(4) 0.6990(3) 1.2156(3)
H34 H -0.1109 0.6480 1.2476
H35 H 0.0208 0.7169 1.2613
C27 C -0.1903(5) 0.7680(3) 1.2131(3)
H36 H -0.2897 0.7466 1.1773
H37 H -0.1622 0.8156 1.1706
C28 C -0.2051(5) 0.8000(3) 1.3225(3)
H38 H -0.2298 0.7530 1.3660
H39 H -0.2856 0.8423 1.3160
H40 H -0.1093 0.8255 1.3564
O9 O 0.0428(3) 0.49117(18) 0.7630(2)
H41 H -0.009(4) 0.455(2) 0.783(3)
H42 H 0.117(3) 0.486(3) 0.810(3)
Cu1_2 Cu -0.99595(4) 0.62325(3) 0.71753(3)
Cu1_3 Cu 1.00405(4) 0.62325(3) 0.71753(3)
N4_2 N 0.1588(3) 0.6276(2) 0.6196(2)
N8_2 N -0.1560(3) 0.66976(19) 0.7937(2)
Cl1 Cl 0.32357(10) 0.86818(6) 0.22122(7)
O5 O 0.4284(4) 0.8562(2) 0.1492(3)
O6 O 0.2979(5) 0.7885(3) 0.2637(4)
O7 O 0.1852(4) 0.9000(3) 0.1601(3)
O8 O 0.3799(5) 0.9250(3) 0.2993(3)
O1 O 0.6164(4) 0.5665(2) 0.0499(2)
O2 O 0.6600(3) 0.4721(2) 0.1944(2)
O3 O 0.5173(4) 0.5943(2) 0.2034(2)
O4 O 0.4180(3) 0.48396(18) 0.0912(2)
Cl2 Cl 0.55377(10) 0.52979(6) 0.13442(6)
O10 O 0.6636(3) 0.9733(2) 0.1343(2)
H43 H 0.610(5) 0.931(2) 0.124(3)
H44 H 0.641(5) 0.989(3) 0.0701(19)
O11 O 0.8866(4) 0.3873(2) 0.0785(3)
H45 H 0.818(5) 0.417(3) 0.093(4)
H46 H 0.866(6) 0.397(3) 0.0130(17)
loop_
_geom_bond_atom_site_label_1
_geom_bond_atom_site_label_2
_geom_bond_site_symmetry_1
_geom_bond_site_symmetry_2
Cu1 N1 1_555 1_555
N1 N2 1_555 1_555
N2 N3 1_555 1_555
N3 C1 1_555 1_555
N4 C4 1_555 1_555
N5 Cu1 1_555 1_555
N6 N5 1_555 1_555
N7 N6 1_555 1_555
N8 C18 1_555 1_555
Cl1 O5 1_555 1_555
O1 Cl2 1_555 1_555
O2 Cl2 1_555 1_555
O3 Cl2 1_555 1_555
O4 Cl2 1_555 1_555
C1 H1 1_555 1_555
C2 N1 1_555 1_555
C3 N3 1_555 1_555
H2 C3 1_555 1_555
H3 C3 1_555 1_555
C4 H4 1_555 1_555
C5 C4 1_555 1_555
H5 C5 1_555 1_555
C6 C3 1_555 1_555
C7 C6 1_555 1_555
H6 C7 1_555 1_555
C8 N4 1_555 1_555
H7 C8 1_555 1_555
C9 C2 1_555 1_555
H8 C9 1_555 1_555
H9 C9 1_555 1_555
C10 C9 1_555 1_555
H10 C10 1_555 1_555
H11 C10 1_555 1_555
C11 C10 1_555 1_555
H12 C11 1_555 1_555
H13 C11 1_555 1_555
C12 C11 1_555 1_555
H14 C12 1_555 1_555
H15 C12 1_555 1_555
C13 C12 1_555 1_555
H16 C13 1_555 1_555
H17 C13 1_555 1_555
C14 C13 1_555 1_555
H18 C14 1_555 1_555
H19 C14 1_555 1_555
H20 C14 1_555 1_555
C15 N7 1_555 1_555
H21 C15 1_555 1_555
C16 N5 1_555 1_555
C17 N7 1_555 1_555
H22 C17 1_555 1_555
H23 C17 1_555 1_555
C18 H24 1_555 1_555
C19 C18 1_555 1_555
H25 C19 1_555 1_555
C20 C17 1_555 1_555
C21 C20 1_555 1_555
H26 C21 1_555 1_555
C22 N8 1_555 1_555
H27 C22 1_555 1_555
C23 C16 1_555 1_555
H28 C23 1_555 1_555
H29 C23 1_555 1_555
C24 C23 1_555 1_555
H30 C24 1_555 1_555
H31 C24 1_555 1_555
C25 C24 1_555 1_555
H32 C25 1_555 1_555
H33 C25 1_555 1_555
C26 C25 1_555 1_555
H34 C26 1_555 1_555
H35 C26 1_555 1_555
C27 C26 1_555 1_555
H36 C27 1_555 1_555
H37 C27 1_555 1_555
C28 C27 1_555 1_555
H38 C28 1_555 1_555
H39 C28 1_555 1_555
H40 C28 1_555 1_555
O6 Cl1 1_555 1_555
O7 Cl1 1_555 1_555
O8 Cl1 1_555 1_555
O9 Cu1 1_555 1_555
H41 O9 1_555 1_555
H42 O9 1_555 1_555
O10 H43 1_555 1_555
H44 O10 1_555 1_555
O11 H45 1_555 1_555
H46 O11 1_555 1_555
Cu1_2 N4 1_555 1_555
Cu1_3 N8 1_555 1_555
N4_2 Cu1 1_555 1_555
N8_2 Cu1 1_555 1_555
C1 C2 1_555 1_555
C5 C6 1_555 1_555
C7 C8 1_555 1_555
C15 C16 1_555 1_555
C19 C20 1_555 1_555
C21 C22 1_555 1_555

#END
