
#######################################################################
#
#                 Cambridge Crystallographic Data Centre
#                                CCDC 
#
#######################################################################
#
# If this CIF has been generated from an entry in the Cambridge 
# Structural Database, then it will include bibliographic, chemical, 
# crystal, experimental, refinement or atomic coordinate data resulting 
# from the CCDC's data processing and validation procedures.
#
#######################################################################

data_FARLOA
_symmetry_cell_setting           monoclinic
_symmetry_space_group_name_H-M   'P 21/n'
_symmetry_Int_Tables_number      14
_space_group_name_Hall           '-P 2yn'
loop_
_symmetry_equiv_pos_site_id
_symmetry_equiv_pos_as_xyz
1 x,y,z
2 1/2-x,1/2+y,1/2-z
3 -x,-y,-z
4 1/2+x,1/2-y,1/2+z
_cell_length_a                   9.417(2)
_cell_length_b                   19.312(5)
_cell_length_c                   9.750(3)
_cell_angle_alpha                90
_cell_angle_beta                 110.785(4)
_cell_angle_gamma                90
_cell_volume                     1657.75
loop_
_atom_site_label
_atom_site_type_symbol
_atom_site_fract_x
_atom_site_fract_y
_atom_site_fract_z
Zn1 Zn 0.5000 0.0000 0.0000
S1 S 0.95925(9) 0.23899(4) 0.45731(7)
S2 S 0.95096(8) 0.22889(4) 0.66140(7)
O1 O 0.6040(3) 0.02798(14) -0.1557(3)
C1 C 0.8269(3) 0.17760(13) 0.3483(3)
C2 C 1.0929(3) 0.16668(13) 0.7463(3)
N1 N 0.6302(3) 0.08381(12) 0.1550(2)
C3 C 0.7324(4) 0.13596(14) 0.3929(3)
H1 H 0.7331 0.1382 0.4884
C4 C 1.1643(4) 0.12709(14) 0.6717(3)
H2 H 1.1375 0.1316 0.5706
C5 C 1.2499(4) 0.11067(15) 0.9637(3)
H3 H 1.2801 0.1057 1.0649
N2 N 1.3201(3) 0.07196(12) 0.8931(2)
C6 C 0.6371(4) 0.09106(15) 0.2928(3)
H4 H 0.5728 0.0638 0.3237
C7 C 1.1371(3) 0.15693(15) 0.8971(3)
H5 H 1.0904 0.1815 0.9514
C8 C 0.7199(4) 0.12612(15) 0.1135(3)
H6 H 0.7154 0.1234 0.0168
C9 C 1.2748(4) 0.08126(15) 0.7481(3)
H7 H 1.3212 0.0550 0.6959
C10 C 0.8179(4) 0.17316(16) 0.2038(3)
H8 H 0.8772 0.2015 0.1687
H13 H 0.597(10) 0.054(4) -0.192(8)
H14 H 0.691(7) 0.007(2) -0.165(6)
Zn1_2 Zn 1.5000 0.0000 1.0000
Zn1_3 Zn -0.5000 0.0000 -1.0000
S1B S 0.04075(9) -0.23899(4) -0.45731(7)
S2B S 0.04904(8) -0.22889(4) -0.66140(7)
O1B O 0.3960(3) -0.02798(14) 0.1557(3)
C1B C 0.1731(3) -0.17760(13) -0.3483(3)
C2B C -0.0929(3) -0.16668(13) -0.7463(3)
N1B N 0.3698(3) -0.08381(12) -0.1550(2)
C3B C 0.2676(4) -0.13596(14) -0.3929(3)
H1B H 0.2669 -0.1382 -0.4884
C4B C -0.1643(4) -0.12709(14) -0.6717(3)
H2B H -0.1375 -0.1316 -0.5706
C5B C -0.2499(4) -0.11067(15) -0.9637(3)
H3B H -0.2801 -0.1057 -1.0649
N2B N -0.3201(3) -0.07196(12) -0.8931(2)
N2_2 N 0.3201(3) 0.07196(12) -0.1069(2)
N2B_2 N 0.6799(3) -0.07196(12) 0.1069(2)
C6B C 0.3629(4) -0.09106(15) -0.2928(3)
H4B H 0.4272 -0.0638 -0.3237
C7B C -0.1371(3) -0.15693(15) -0.8971(3)
H5B H -0.0904 -0.1815 -0.9514
C8B C 0.2801(4) -0.12612(15) -0.1135(3)
H6B H 0.2846 -0.1234 -0.0168
C9B C -0.2748(4) -0.08126(15) -0.7481(3)
H7B H -0.3212 -0.0550 -0.6959
C10B C 0.1821(4) -0.17316(16) -0.2038(3)
H8B H 0.1228 -0.2015 -0.1687
H13B H 0.403(10) -0.054(4) 0.192(8)
H14B H 0.309(7) -0.007(2) 0.165(6)
N3 N 0.2939(4) 0.19611(17) 0.3726(3)
O2 O 0.1854(3) 0.19113(16) 0.2561(3)
O3 O 0.3388(4) 0.25383(16) 0.4236(3)
O4 O 0.3560(4) 0.14303(18) 0.4372(3)
C11 C 0.9069(10) 0.9879(3) 0.7273(11)
H9 H 0.8963 1.0362 0.7028
H10 H 0.9257 0.9626 0.6507
H11 H 0.9904 0.9815 0.8179
O6 O 0.7954(8) 0.9677(2) 0.7399(8)
O5 O 0.5956(5) 0.1504(2) 0.7122(4)
H12 H 0.542(7) 0.158(3) 0.609(5)
H15 H 0.622(5) 0.1778(19) 0.727(5)
loop_
_geom_bond_atom_site_label_1
_geom_bond_atom_site_label_2
_geom_bond_site_symmetry_1
_geom_bond_site_symmetry_2
Zn1 O1 1_555 1_555
S1 S2 1_555 1_555
S2 C2 1_555 1_555
O1 H13 1_555 1_555
C1 S1 1_555 1_555
C2 C4 1_555 1_555
N1 Zn1 1_555 1_555
C3 C1 1_555 1_555
H1 C3 1_555 1_555
C4 H2 1_555 1_555
C5 H3 1_555 1_555
N2 C5 1_555 1_555
C6 N1 1_555 1_555
H4 C6 1_555 1_555
N3 O2 1_555 1_555
C7 C2 1_555 1_555
H5 C7 1_555 1_555
C8 N1 1_555 1_555
H6 C8 1_555 1_555
C9 C4 1_555 1_555
H7 C9 1_555 1_555
C10 C1 1_555 1_555
H8 C10 1_555 1_555
O3 N3 1_555 1_555
O4 N3 1_555 1_555
C11 H9 1_555 1_555
H10 C11 1_555 1_555
H11 C11 1_555 1_555
O5 H12 1_555 1_555
O6 C11 1_555 1_555
H14 O1 1_555 1_555
H15 O5 1_555 1_555
Zn1_2 N2 1_555 1_555
Zn1_3 N2B 1_555 1_555
S1B S2B 1_555 1_555
S2B C2B 1_555 1_555
O1B Zn1 1_555 1_555
C1B S1B 1_555 1_555
C2B C4B 1_555 1_555
N1B Zn1 1_555 1_555
C3B C1B 1_555 1_555
H1B C3B 1_555 1_555
C4B H2B 1_555 1_555
C5B H3B 1_555 1_555
N2B C5B 1_555 1_555
N2_2 Zn1 1_555 1_555
N2B_2 Zn1 1_555 1_555
C6B N1B 1_555 1_555
H4B C6B 1_555 1_555
C7B C2B 1_555 1_555
H5B C7B 1_555 1_555
C8B N1B 1_555 1_555
H6B C8B 1_555 1_555
C9B C4B 1_555 1_555
H7B C9B 1_555 1_555
C10B C1B 1_555 1_555
H8B C10B 1_555 1_555
H13B O1B 1_555 1_555
H14B O1B 1_555 1_555
C3 C6 1_555 1_555
C5 C7 1_555 1_555
N2 C9 1_555 1_555
C8 C10 1_555 1_555
C3B C6B 1_555 1_555
C5B C7B 1_555 1_555
N2B C9B 1_555 1_555
C8B C10B 1_555 1_555

#END
