
#######################################################################
#
#                 Cambridge Crystallographic Data Centre
#                                CCDC 
#
#######################################################################
#
# If this CIF has been generated from an entry in the Cambridge 
# Structural Database, then it will include bibliographic, chemical, 
# crystal, experimental, refinement or atomic coordinate data resulting 
# from the CCDC's data processing and validation procedures.
#
#######################################################################

data_FARLUH
_symmetry_cell_setting           monoclinic
_symmetry_space_group_name_H-M   'P 21/n'
_symmetry_Int_Tables_number      14
_space_group_name_Hall           '-P 2yn'
loop_
_symmetry_equiv_pos_site_id
_symmetry_equiv_pos_as_xyz
1 x,y,z
2 1/2-x,1/2+y,1/2-z
3 -x,-y,-z
4 1/2+x,1/2-y,1/2+z
_cell_length_a                   8.911(8)
_cell_length_b                   10.004(9)
_cell_length_c                   19.252(17)
_cell_angle_alpha                90
_cell_angle_beta                 101.20(2)
_cell_angle_gamma                90
_cell_volume                     1683.55
loop_
_atom_site_label
_atom_site_type_symbol
_atom_site_fract_x
_atom_site_fract_y
_atom_site_fract_z
Cu1 Cu 0.5000 1.0000 0.5000
N1 N 0.4201(4) 0.9578(4) 0.58895(18)
N2 N 0.3058(4) 0.8730(4) 0.58155(18)
N3 N 0.2717(4) 0.8600(4) 0.64435(17)
C1 C 0.4577(5) 0.9984(4) 0.6579(2)
C2 C 0.3617(5) 0.9359(5) 0.6923(2)
H1 H 0.3582 0.9436 0.7407
C3 C 0.1434(5) 0.7750(5) 0.6524(2)
H2 H 0.1441 0.7620 0.7029
H3 H 0.1555 0.6872 0.6315
C4 C -0.2736(5) 0.8043(5) 0.5732(2)
H4 H -0.3601 0.7486 0.5668
C5 C -0.1341(5) 0.7523(5) 0.6053(2)
H5 H -0.1250 0.6620 0.6188
C6 C -0.0090(5) 0.8346(5) 0.6170(2)
C7 C -0.0277(5) 0.9663(4) 0.5961(2)
H6 H 0.0564 1.0249 0.6048
C8 C -0.1667(5) 1.0119(5) 0.5629(2)
H7 H -0.1766 1.1015 0.5480
C9 C 0.5871(5) 1.0915(5) 0.6863(2)
H8 H 0.5482 1.1642 0.7120
H9 H 0.6250 1.1311 0.6465
C10 C 0.7189(5) 1.0250(5) 0.7352(3)
H10 H 0.6828 0.9889 0.7763
H11 H 0.7558 0.9500 0.7104
C11 C 0.8496(6) 1.1199(6) 0.7603(3)
H12 H 0.8875 1.1549 0.7194
H13 H 0.8131 1.1955 0.7848
C12 C 0.9778(8) 1.0507(8) 0.8096(4)
H14 H 0.9412 1.0188 0.8509
H15 H 1.0613 1.1131 0.8243
H16 H 1.0137 0.9756 0.7854
N4 N -0.2910(4) 0.9318(4) 0.55063(17)
O6 O 0.5505(4) 1.2364(4) 0.5387(2)
H19 H 0.478(4) 1.274(5) 0.556(3)
H20 H 0.613(5) 1.305(4) 0.536(3)
Cu1_2 Cu -0.5000 1.0000 0.5000
N1B N 0.5799(4) 1.0422(4) 0.41105(18)
N1B_2 N -0.4201(4) 1.0422(4) 0.41105(18)
N2B N -0.3058(4) 1.1270(4) 0.41845(18)
N3B N -0.2717(4) 1.1400(4) 0.35565(17)
C1B C -0.4577(5) 1.0016(4) 0.3421(2)
C2B C -0.3617(5) 1.0641(5) 0.3077(2)
H1B H -0.3582 1.0564 0.2593
C3B C -0.1434(5) 1.2250(5) 0.3476(2)
H2B H -0.1441 1.2380 0.2971
H3B H -0.1555 1.3128 0.3685
C4B C 0.2736(5) 1.1957(5) 0.4268(2)
H4B H 0.3601 1.2514 0.4332
C5B C 0.1341(5) 1.2477(5) 0.3947(2)
H5B H 0.1250 1.3380 0.3812
C6B C 0.0090(5) 1.1654(5) 0.3830(2)
C7B C 0.0277(5) 1.0337(4) 0.4039(2)
H6B H -0.0564 0.9751 0.3952
C8B C 0.1667(5) 0.9881(5) 0.4371(2)
H7B H 0.1766 0.8985 0.4520
C9B C -0.5871(5) 0.9085(5) 0.3137(2)
H8B H -0.5482 0.8358 0.2880
H9B H -0.6250 0.8689 0.3535
C10B C -0.7189(5) 0.9750(5) 0.2648(3)
H10B H -0.6828 1.0111 0.2237
H11B H -0.7558 1.0500 0.2896
C11B C -0.8496(6) 0.8801(6) 0.2397(3)
H12B H -0.8875 0.8451 0.2806
H13B H -0.8131 0.8045 0.2152
C12B C -0.9778(8) 0.9493(8) 0.1904(4)
H14B H -0.9412 0.9812 0.1491
H15B H -1.0613 0.8869 0.1757
H16B H -1.0137 1.0244 0.2146
N4_2 N 0.7090(4) 0.9318(4) 0.55063(17)
N4B N 0.2910(4) 1.0682(4) 0.44937(17)
O6B O 0.4495(4) 0.7636(4) 0.4613(2)
H19B H 0.522(4) 0.726(5) 0.444(3)
H20B H 0.387(5) 0.695(4) 0.464(3)
Cl1 Cl 0.33678(14) 0.83496(12) 0.89138(6)
O1 O 0.3950(6) 0.9531(4) 0.8669(2)
O2 O 0.4519(5) 0.7715(4) 0.9417(2)
O3 O 0.2156(5) 0.8698(5) 0.9256(2)
O4 O 0.2845(6) 0.7487(4) 0.8335(2)
O5 O 0.7604(6) 1.4315(6) 0.5353(4)
H17 H 0.776(9) 1.493(7) 0.504(4)
H18 H 0.843(6) 1.382(7) 0.541(4)
loop_
_geom_bond_atom_site_label_1
_geom_bond_atom_site_label_2
_geom_bond_site_symmetry_1
_geom_bond_site_symmetry_2
Cu1 N1 1_555 1_555
N1 N2 1_555 1_555
N2 N3 1_555 1_555
N3 C2 1_555 1_555
C1 N1 1_555 1_555
C2 C1 1_555 1_555
H1 C2 1_555 1_555
C3 N3 1_555 1_555
H2 C3 1_555 1_555
H3 C3 1_555 1_555
C4 H4 1_555 1_555
C5 C4 1_555 1_555
H5 C5 1_555 1_555
C6 C3 1_555 1_555
C7 C6 1_555 1_555
H6 C7 1_555 1_555
C8 C7 1_555 1_555
H7 C8 1_555 1_555
C9 C1 1_555 1_555
H8 C9 1_555 1_555
H9 C9 1_555 1_555
C10 C9 1_555 1_555
H10 C10 1_555 1_555
H11 C10 1_555 1_555
C11 C10 1_555 1_555
H12 C11 1_555 1_555
H13 C11 1_555 1_555
C12 C11 1_555 1_555
H14 C12 1_555 1_555
H15 C12 1_555 1_555
H16 C12 1_555 1_555
N4 C4 1_555 1_555
Cl1 O1 1_555 1_555
O2 Cl1 1_555 1_555
O3 Cl1 1_555 1_555
O4 Cl1 1_555 1_555
O5 H17 1_555 1_555
H18 O5 1_555 1_555
O6 Cu1 1_555 1_555
H19 O6 1_555 1_555
H20 O6 1_555 1_555
Cu1_2 N4 1_555 1_555
N1B Cu1 1_555 1_555
N1B_2 Cu1_2 1_555 1_555
N2B N1B_2 1_555 1_555
N3B N2B 1_555 1_555
C1B N1B_2 1_555 1_555
C2B N3B 1_555 1_555
H1B C2B 1_555 1_555
C3B N3B 1_555 1_555
H2B C3B 1_555 1_555
H3B C3B 1_555 1_555
C4B H4B 1_555 1_555
C5B C4B 1_555 1_555
H5B C5B 1_555 1_555
C6B C3B 1_555 1_555
C7B C6B 1_555 1_555
H6B C7B 1_555 1_555
C8B C7B 1_555 1_555
H7B C8B 1_555 1_555
C9B C1B 1_555 1_555
H8B C9B 1_555 1_555
H9B C9B 1_555 1_555
C10B C9B 1_555 1_555
H10B C10B 1_555 1_555
H11B C10B 1_555 1_555
C11B C10B 1_555 1_555
H12B C11B 1_555 1_555
H13B C11B 1_555 1_555
C12B C11B 1_555 1_555
H14B C12B 1_555 1_555
H15B C12B 1_555 1_555
H16B C12B 1_555 1_555
N4_2 Cu1 1_555 1_555
N4B Cu1 1_555 1_555
O6B Cu1 1_555 1_555
H19B O6B 1_555 1_555
H20B O6B 1_555 1_555
C5 C6 1_555 1_555
C8 N4 1_555 1_555
C1B C2B 1_555 1_555
C4B N4B 1_555 1_555
C5B C6B 1_555 1_555
C8B N4B 1_555 1_555

#END
