
#######################################################################
#
#                 Cambridge Crystallographic Data Centre
#                                CCDC 
#
#######################################################################
#
# If this CIF has been generated from an entry in the Cambridge 
# Structural Database, then it will include bibliographic, chemical, 
# crystal, experimental, refinement or atomic coordinate data resulting 
# from the CCDC's data processing and validation procedures.
#
#######################################################################

data_FARLIU
_symmetry_cell_setting           triclinic
_symmetry_space_group_name_H-M   'P -1'
_symmetry_Int_Tables_number      2
_space_group_name_Hall           '-P 1'
loop_
_symmetry_equiv_pos_site_id
_symmetry_equiv_pos_as_xyz
1 x,y,z
2 -x,-y,-z
_cell_length_a                   9.208(4)
_cell_length_b                   10.364(4)
_cell_length_c                   10.612(4)
_cell_angle_alpha                106.197(6)
_cell_angle_beta                 96.058(8)
_cell_angle_gamma                110.384(7)
_cell_volume                     888.213
loop_
_atom_site_label
_atom_site_type_symbol
_atom_site_fract_x
_atom_site_fract_y
_atom_site_fract_z
Zn1 Zn 1.0000 1.0000 0.0000
S1 S 1.55421(9) 1.34487(10) 0.58378(7)
S2 S 0.64899(13) 1.24269(13) 0.04000(19)
S3 S 1.46870(10) 1.45392(8) 0.72498(7)
N1 N 0.8974(3) 1.1524(2) 0.0487(2)
N2 N 1.1819(3) 1.1238(2) 0.1920(2)
N3 N 1.1695(3) 1.1374(2) 0.9081(2)
C1 C 1.4031(3) 1.2639(3) 0.4350(3)
C2 C 0.7965(3) 1.1919(3) 0.0471(3)
C3 C 1.1489(3) 1.1951(3) 0.3025(3)
H1 H 1.0489 1.1985 0.2961
C4 C 1.2536(3) 1.2638(3) 0.4254(3)
H2 H 1.2237 1.3095 0.5007
C5 C 1.2288(4) 1.0889(3) 0.8048(3)
H3 H 1.2066 0.9893 0.7724
C6 C 1.3280(3) 1.1255(3) 0.2025(3)
H4 H 1.3541 1.0782 0.1256
C7 C 1.4418(3) 1.1927(3) 0.3200(3)
H5 H 1.5423 1.1908 0.3229
C8 C 1.2098(3) 1.2815(3) 0.9566(3)
H6 H 1.1729 1.3189 1.0308
C9 C 1.3203(4) 1.1755(3) 0.7433(3)
H7 H 1.3565 1.1353 0.6696
C10 C 1.3023(3) 1.3768(3) 0.9028(3)
H8 H 1.3278 1.4766 0.9402
C11 C 1.3579(3) 1.3236(3) 0.7925(2)
Zn1_2 Zn 1.0000 1.0000 1.0000
Zn1_3 Zn 1.0000 1.0000 -1.0000
S1A S 0.44579(9) 0.65513(10) -0.58378(7)
S2A S 1.35101(13) 0.75731(13) -0.04000(19)
S3A S 0.53130(10) 0.54608(8) -0.72498(7)
N1A N 1.1026(3) 0.8476(2) -0.0487(2)
N2A N 0.8181(3) 0.8762(2) -0.1920(2)
N3A N 0.8305(3) 0.8626(2) -0.9081(2)
N3_2 N 1.1695(3) 1.1374(2) -0.0919(2)
N3A_2 N 0.8305(3) 0.8626(2) 0.0919(2)
C1A C 0.5969(3) 0.7361(3) -0.4350(3)
C2A C 1.2035(3) 0.8081(3) -0.0471(3)
C3A C 0.8511(3) 0.8049(3) -0.3025(3)
H1A H 0.9511 0.8015 -0.2961
C4A C 0.7464(3) 0.7362(3) -0.4254(3)
H2A H 0.7763 0.6905 -0.5007
C5A C 0.7712(4) 0.9111(3) -0.8048(3)
H3A H 0.7934 1.0107 -0.7724
C6A C 0.6720(3) 0.8745(3) -0.2025(3)
H4A H 0.6459 0.9218 -0.1256
C7A C 0.5582(3) 0.8073(3) -0.3200(3)
H5A H 0.4577 0.8092 -0.3229
C8A C 0.7902(3) 0.7185(3) -0.9566(3)
H6A H 0.8271 0.6811 -1.0308
C9A C 0.6797(4) 0.8245(3) -0.7433(3)
H7A H 0.6435 0.8647 -0.6696
C10A C 0.6977(3) 0.6232(3) -0.9028(3)
H8A H 0.6722 0.5234 -0.9402
C11A C 0.6421(3) 0.6764(3) -0.7925(2)
O1 O 0.1133(9) 0.7447(10) 0.5439(6)
N4 N 0.0989(4) 0.6858(4) 0.3269(4)
C12 C 0.0810(8) 0.5874(8) 0.1949(7)
H9 H 0.0409 0.4886 0.1948
H10 H 0.1824 0.6104 0.1709
H11 H 0.0079 0.5977 0.1307
C13 C 0.1561(10) 0.8320(7) 0.3399(9)
H12 H 0.0712 0.8543 0.3039
H13 H 0.2388 0.8528 0.2915
H14 H 0.1979 0.8905 0.4334
C14 C 0.0731(9) 0.6421(12) 0.4238(10)
H15 H 0.0282 0.5430 0.4125
loop_
_geom_bond_atom_site_label_1
_geom_bond_atom_site_label_2
_geom_bond_site_symmetry_1
_geom_bond_site_symmetry_2
Zn1 N1 1_555 1_555
S1 S3 1_555 1_555
S2 C2 1_555 1_555
S3 C11 1_555 1_555
N1 C2 1_555 1_555
N2 Zn1 1_555 1_555
N3 C5 1_555 1_555
C1 S1 1_555 1_555
C3 N2 1_555 1_555
H1 C3 1_555 1_555
C4 C1 1_555 1_555
H2 C4 1_555 1_555
C5 H3 1_555 1_555
C6 N2 1_555 1_555
H4 C6 1_555 1_555
C7 C1 1_555 1_555
H5 C7 1_555 1_555
C8 N3 1_555 1_555
H6 C8 1_555 1_555
C9 C5 1_555 1_555
H7 C9 1_555 1_555
C10 C8 1_555 1_555
H8 C10 1_555 1_555
C11 C9 1_555 1_555
O1 C14 1_555 1_555
N4 C12 1_555 1_555
C12 H9 1_555 1_555
H10 C12 1_555 1_555
H11 C12 1_555 1_555
C13 N4 1_555 1_555
H12 C13 1_555 1_555
H13 C13 1_555 1_555
H14 C13 1_555 1_555
C14 N4 1_555 1_555
H15 C14 1_555 1_555
Zn1_2 N3 1_555 1_555
Zn1_3 N3A 1_555 1_555
S1A S3A 1_555 1_555
S2A C2A 1_555 1_555
S3A C11A 1_555 1_555
N1A Zn1 1_555 1_555
N2A Zn1 1_555 1_555
N3A C5A 1_555 1_555
N3_2 Zn1 1_555 1_555
N3A_2 Zn1 1_555 1_555
C1A S1A 1_555 1_555
C2A N1A 1_555 1_555
C3A N2A 1_555 1_555
H1A C3A 1_555 1_555
C4A C1A 1_555 1_555
H2A C4A 1_555 1_555
C5A H3A 1_555 1_555
C6A N2A 1_555 1_555
H4A C6A 1_555 1_555
C7A C1A 1_555 1_555
H5A C7A 1_555 1_555
C8A N3A 1_555 1_555
H6A C8A 1_555 1_555
C9A C5A 1_555 1_555
H7A C9A 1_555 1_555
C10A C8A 1_555 1_555
H8A C10A 1_555 1_555
C11A C9A 1_555 1_555
C3 C4 1_555 1_555
C6 C7 1_555 1_555
C10 C11 1_555 1_555
C3A C4A 1_555 1_555
C6A C7A 1_555 1_555
C10A C11A 1_555 1_555

#END
