
#######################################################################
#
#                 Cambridge Crystallographic Data Centre
#                                CCDC 
#
#######################################################################
#
# If this CIF has been generated from an entry in the Cambridge 
# Structural Database, then it will include bibliographic, chemical, 
# crystal, experimental, refinement or atomic coordinate data resulting 
# from the CCDC's data processing and validation procedures.
#
#######################################################################

data_FARMIV
_symmetry_cell_setting           monoclinic
_symmetry_space_group_name_H-M   'C 2/c'
_symmetry_Int_Tables_number      15
_space_group_name_Hall           '-C 2yn'
loop_
_symmetry_equiv_pos_site_id
_symmetry_equiv_pos_as_xyz
1 x,y,z
2 -x,y,1/2-z
3 1/2+x,1/2+y,z
4 1/2-x,1/2+y,1/2-z
5 -x,-y,-z
6 x,-y,1/2+z
7 1/2-x,1/2-y,-z
8 1/2+x,1/2-y,1/2+z
_cell_length_a                   35.962(4)
_cell_length_b                   10.8546(14)
_cell_length_c                   20.449(2)
_cell_angle_alpha                90
_cell_angle_beta                 115.208(6)
_cell_angle_gamma                90
_cell_volume                     7222.15
loop_
_atom_site_label
_atom_site_type_symbol
_atom_site_fract_x
_atom_site_fract_y
_atom_site_fract_z
Zn1 Zn 1.0000 0.19260(5) 0.2500
S1 S 0.94835(3) -0.37027(9) -0.00419(5)
S2 S 0.99531(3) -0.25042(9) 0.01863(5)
O1 O 0.93571(9) 0.2031(3) 0.22442(17)
N1 N 0.99054(9) 0.0492(3) 0.16978(15)
N2 N 0.98960(8) -0.6704(2) 0.16661(15)
C1 C 0.95792(10) -0.6832(3) 0.10112(19)
H1 H 0.9433 -0.7569 0.0908
C2 C 0.94595(10) -0.5940(3) 0.04898(18)
H2 H 0.9235 -0.6063 0.0047
C3 C 0.96808(10) -0.4849(3) 0.06371(18)
C4 C 1.00160(10) -0.4720(3) 0.12984(18)
H3 H 1.0175 -0.4008 0.1408
C5 C 0.99051(11) -0.1381(3) 0.07697(18)
C6 C 1.01612(11) -0.0373(3) 0.08981(18)
H4 H 1.0341 -0.0311 0.0681
C7 C 0.96442(11) -0.1429(3) 0.1110(2)
H5 H 0.9463 -0.2084 0.1030
C8 C 0.96596(11) -0.0481(3) 0.1569(2)
H6 H 0.9488 -0.0525 0.1803
C9 C 1.01453(11) 0.0525(3) 0.13472(18)
H7 H 1.0313 0.1211 0.1416
C10 C 1.01088(10) -0.5656(3) 0.17856(18)
H8 H 1.0334 -0.5560 0.2229
H25 H 0.9268(11) 0.236(3) 0.248(2)
H26 H 0.9145(18) 0.162(5) 0.193(3)
Zn1_2 Zn 1.0000 -0.80740(5) 0.2500
S1A S 1.05165(3) -0.37027(9) 0.50419(5)
S2A S 1.00469(3) -0.25042(9) 0.48137(5)
O1A O 1.06429(9) 0.2031(3) 0.27558(17)
N1A N 1.00946(9) 0.0492(3) 0.33022(15)
N2A N 1.01040(8) -0.6704(2) 0.33339(15)
N2_2 N 0.98960(8) 0.3296(2) 0.16661(15)
N2A_2 N 1.01040(8) 0.3296(2) 0.33339(15)
C1A C 1.04208(10) -0.6832(3) 0.39888(19)
H1A H 1.0567 -0.7569 0.4092
C2A C 1.05405(10) -0.5940(3) 0.45102(18)
H2A H 1.0765 -0.6063 0.4953
C3A C 1.03192(10) -0.4849(3) 0.43629(18)
C4A C 0.99840(10) -0.4720(3) 0.37016(18)
H3A H 0.9825 -0.4008 0.3592
C5A C 1.00949(11) -0.1381(3) 0.42303(18)
C6A C 0.98388(11) -0.0373(3) 0.41019(18)
H4A H 0.9659 -0.0311 0.4319
C7A C 1.03558(11) -0.1429(3) 0.3890(2)
H5A H 1.0537 -0.2084 0.3970
C8A C 1.03404(11) -0.0481(3) 0.3431(2)
H6A H 1.0512 -0.0525 0.3197
C9A C 0.98547(11) 0.0525(3) 0.36528(18)
H7A H 0.9687 0.1211 0.3584
C10A C 0.98912(10) -0.5656(3) 0.32144(18)
H8A H 0.9666 -0.5560 0.2771
H25A H 1.0732(11) 0.236(3) 0.252(2)
H26A H 1.0855(18) 0.162(5) 0.307(3)
S3 S 0.27014(4) 0.06745(16) 0.52877(8)
S4 S 0.27823(4) 0.13398(14) 0.62646(8)
N3 N 0.13471(11) 0.1020(4) 0.3762(2)
N4 N 0.25493(19) -0.1888(6) 0.7444(3)
C11 C 0.14753(15) 0.1203(5) 0.4464(3)
H9 H 0.1280 0.1409 0.4631
C12 C 0.18780(14) 0.1110(5) 0.4965(3)
H10 H 0.1951 0.1256 0.5452
C13 C 0.21680(12) 0.0798(4) 0.4729(3)
C14 C 0.20436(15) 0.0572(5) 0.4010(3)
H11 H 0.2233 0.0331 0.3837
C15 C 0.16352(16) 0.0702(5) 0.3542(3)
H12 H 0.1556 0.0563 0.3052
C16 C 0.26873(13) 0.0043(4) 0.6695(2)
C17 C 0.24163(16) 0.0160(5) 0.6995(3)
H13 H 0.2273 0.0892 0.6953
C18 C 0.28846(15) -0.1043(5) 0.6765(3)
H14 H 0.3068 -0.1161 0.6559
C19 C 0.2806(2) -0.1976(6) 0.7151(3)
H15 H 0.2947 -0.2716 0.7206
C20 C 0.23593(19) -0.0824(8) 0.7361(3)
H16 H 0.2174 -0.0735 0.7565
S5 S 0.18797(4) 0.26235(15) 0.02225(8)
S6 S 0.19276(4) 0.39208(15) 0.09599(7)
N5 N 0.09276(13) 0.3920(5) -0.1973(2)
N6 N 0.10332(10) 0.2921(4) 0.19181(18)
C21 C 0.10841(18) 0.2808(6) -0.1846(3)
H17 H 0.1000 0.2260 -0.2232
C22 C 0.13630(16) 0.2392(5) -0.1185(3)
H18 H 0.1462 0.1589 -0.1130
C23 C 0.14940(13) 0.3179(5) -0.0607(2)
C24 C 0.10562(15) 0.4671(5) -0.1404(3)
H19 H 0.0952 0.5468 -0.1475
C25 C 0.15711(11) 0.3467(5) 0.1307(2)
C26 C 0.14388(12) 0.4373(4) 0.1627(2)
H20 H 0.1526 0.5184 0.1643
C27 C 0.11630(13) 0.2057(4) 0.1601(2)
H21 H 0.1068 0.1257 0.1587
C28 C 0.14305(12) 0.2282(4) 0.1291(2)
H22 H 0.1514 0.1649 0.1077
C29 C 0.13340(13) 0.4347(5) -0.0715(2)
H23 H 0.1410 0.4906 -0.0335
C30 C 0.11735(13) 0.4046(5) 0.1923(2)
H24 H 0.1087 0.4662 0.2143
Cl1 Cl 0.11918(4) 0.82587(13) 0.11590(7)
O2 O 0.14743(15) 0.7518(5) 0.1037(3)
O3 O 0.09248(12) 0.8856(4) 0.0508(2)
O4 O 0.13825(19) 0.9038(5) 0.1712(3)
O5 O 0.09564(14) 0.7472(5) 0.1359(3)
loop_
_geom_bond_atom_site_label_1
_geom_bond_atom_site_label_2
_geom_bond_site_symmetry_1
_geom_bond_site_symmetry_2
Zn1 O1 1_555 1_555
S1 S2 1_555 1_555
S2 C5 1_555 1_555
O1 H25 1_555 1_555
N1 Zn1 1_555 1_555
N2 C1 1_555 1_555
C1 H1 1_555 1_555
C2 C1 1_555 1_555
H2 C2 1_555 1_555
C3 S1 1_555 1_555
C4 C3 1_555 1_555
H3 C4 1_555 1_555
C5 C6 1_555 1_555
C6 H4 1_555 1_555
C7 C5 1_555 1_555
H5 C7 1_555 1_555
C8 N1 1_555 1_555
H6 C8 1_555 1_555
C9 N1 1_555 1_555
H7 C9 1_555 1_555
C10 N2 1_555 1_555
H8 C10 1_555 1_555
S3 S4 1_555 1_555
S4 C16 1_555 1_555
N3 C11 1_555 1_555
N4 C19 1_555 1_555
C11 H9 1_555 1_555
C12 C11 1_555 1_555
H10 C12 1_555 1_555
C13 S3 1_555 1_555
C14 C13 1_555 1_555
H11 C14 1_555 1_555
C15 N3 1_555 1_555
H12 C15 1_555 1_555
C16 C17 1_555 1_555
C17 H13 1_555 1_555
C18 C16 1_555 1_555
H14 C18 1_555 1_555
C19 C18 1_555 1_555
H15 C19 1_555 1_555
C20 N4 1_555 1_555
H16 C20 1_555 1_555
S5 S6 1_555 1_555
S6 C25 1_555 1_555
N5 C21 1_555 1_555
N6 C27 1_555 1_555
C21 H17 1_555 1_555
C22 C21 1_555 1_555
H18 C22 1_555 1_555
C23 S5 1_555 1_555
C24 N5 1_555 1_555
H19 C24 1_555 1_555
C25 C26 1_555 1_555
C26 H20 1_555 1_555
C27 H21 1_555 1_555
C28 C25 1_555 1_555
H22 C28 1_555 1_555
C29 C23 1_555 1_555
H23 C29 1_555 1_555
Cl1 O2 1_555 1_555
O3 Cl1 1_555 1_555
O4 Cl1 1_555 1_555
O5 Cl1 1_555 1_555
C30 N6 1_555 1_555
H24 C30 1_555 1_555
H26 O1 1_555 1_555
Zn1_2 N2 1_555 1_555
S1A S2A 1_555 1_555
S2A C5A 1_555 1_555
O1A Zn1 1_555 1_555
N1A Zn1 1_555 1_555
N2A Zn1_2 1_555 1_555
N2_2 Zn1 1_555 1_555
N2A_2 Zn1 1_555 1_555
C1A N2A 1_555 1_555
H1A C1A 1_555 1_555
C2A C1A 1_555 1_555
H2A C2A 1_555 1_555
C3A S1A 1_555 1_555
C4A C3A 1_555 1_555
H3A C4A 1_555 1_555
C5A C6A 1_555 1_555
C6A H4A 1_555 1_555
C7A C5A 1_555 1_555
H5A C7A 1_555 1_555
C8A N1A 1_555 1_555
H6A C8A 1_555 1_555
C9A N1A 1_555 1_555
H7A C9A 1_555 1_555
C10A N2A 1_555 1_555
H8A C10A 1_555 1_555
H25A O1A 1_555 1_555
H26A O1A 1_555 1_555
C2 C3 1_555 1_555
C4 C10 1_555 1_555
C6 C9 1_555 1_555
C7 C8 1_555 1_555
C12 C13 1_555 1_555
C14 C15 1_555 1_555
C17 C20 1_555 1_555
C22 C23 1_555 1_555
C24 C29 1_555 1_555
C26 C30 1_555 1_555
C27 C28 1_555 1_555
C2A C3A 1_555 1_555
C4A C10A 1_555 1_555
C6A C9A 1_555 1_555
C7A C8A 1_555 1_555

#END
