
#######################################################################
#
#                 Cambridge Crystallographic Data Centre
#                                CCDC 
#
#######################################################################
#
# If this CIF has been generated from an entry in the Cambridge 
# Structural Database, then it will include bibliographic, chemical, 
# crystal, experimental, refinement or atomic coordinate data resulting 
# from the CCDC's data processing and validation procedures.
#
#######################################################################

data_FARMOB
_symmetry_cell_setting           tetragonal
_symmetry_space_group_name_H-M   'P -4 21 c'
_symmetry_Int_Tables_number      114
_space_group_name_Hall           'P -4 2n'
loop_
_symmetry_equiv_pos_site_id
_symmetry_equiv_pos_as_xyz
1 x,y,z
2 -x,-y,z
3 y,-x,-z
4 -y,x,-z
5 1/2-x,1/2+y,1/2-z
6 1/2+x,1/2-y,1/2-z
7 1/2-y,1/2-x,1/2+z
8 1/2+y,1/2+x,1/2+z
_cell_length_a                   9.1699(10)
_cell_length_b                   9.1699(10)
_cell_length_c                   11.0088(17)
_cell_angle_alpha                90
_cell_angle_beta                 90
_cell_angle_gamma                90
_cell_volume                     925.698
loop_
_atom_site_label
_atom_site_type_symbol
_atom_site_fract_x
_atom_site_fract_y
_atom_site_fract_z
Ag1 Ag 1.0000 1.0000 1.0000
O1 O 1.0000 0.5000 0.7132(4)
C1 C 1.0995(6) 0.5793(6) 0.6417(5)
H1 H 1.0481 0.6539 0.5961
H2 H 1.1469 0.5145 0.5843
N1 N 1.0950(5) 0.8229(5) 0.8804(4)
C2 C 1.1459(5) 0.7479(5) 0.8108(5)
C3 C 1.2109(6) 0.6484(6) 0.7220(6)
H3 H 1.2640 0.5726 0.7647
H4 H 1.2800 0.7018 0.6723
Ag1_2 Ag 1.0000 0.0000 1.0000
Ag1_3 Ag 1.0000 2.0000 1.0000
O1_2 O 1.0000 1.5000 0.7132(4)
C1A C 0.9005(6) 0.4207(6) 0.6417(5)
C1A_2 C 0.9005(6) 1.4207(6) 0.6417(5)
C1_2 C 1.0995(6) 1.5793(6) 0.6417(5)
H1A H 0.9519 0.3461 0.5961
H1A_2 H 0.9519 1.3461 0.5961
H1_2 H 1.0481 1.6539 0.5961
H2A H 0.8531 0.4855 0.5843
H2A_2 H 0.8531 1.4855 0.5843
H2_2 H 1.1469 1.5145 0.5843
N1A N 0.9050(5) 0.1771(5) 0.8804(4)
N1A_2 N 0.9050(5) 1.1771(5) 0.8804(4)
N1_2 N 1.0950(5) 1.8229(5) 0.8804(4)
N1B N 0.8229(5) 0.9050(5) 1.1196(4)
N1C N 1.1771(5) 1.0950(5) 1.1196(4)
C2A C 0.8541(5) 0.2521(5) 0.8108(5)
C2A_2 C 0.8541(5) 1.2521(5) 0.8108(5)
C2_2 C 1.1459(5) 1.7479(5) 0.8108(5)
C3A C 0.7891(6) 0.3516(6) 0.7220(6)
C3A_2 C 0.7891(6) 1.3516(6) 0.7220(6)
C3_2 C 1.2109(6) 1.6484(6) 0.7220(6)
H3A H 0.7360 0.4274 0.7647
H3A_2 H 0.7360 1.4274 0.7647
H3_2 H 1.2640 1.5726 0.7647
H4A H 0.7200 0.2982 0.6723
H4A_2 H 0.7200 1.2982 0.6723
H4_2 H 1.2800 1.7018 0.6723
Cl1 Cl 1.0000 1.0000 0.5000
O2 O 0.8961(14) 1.0650(9) 0.5622(10)
O2A O 1.1039(14) 0.9350(9) 0.5622(10)
O2B O 1.0650(9) 1.1039(14) 0.4378(10)
O2C O 0.9350(9) 0.8961(14) 0.4378(10)
loop_
_geom_bond_atom_site_label_1
_geom_bond_atom_site_label_2
_geom_bond_site_symmetry_1
_geom_bond_site_symmetry_2
Ag1 N1 1_555 1_555
Cl1 O2 1_555 1_555
O1 C1 1_555 1_555
C1 H1 1_555 1_555
H2 C1 1_555 1_555
N1 C2 1_555 1_555
C2 C3 1_555 1_555
C3 C1 1_555 1_555
H3 C3 1_555 1_555
H4 C3 1_555 1_555
Ag1_2 N1A 1_555 1_555
Ag1_3 N1_2 1_555 1_555
O1_2 C1A_2 1_555 1_555
C1A O1 1_555 1_555
C1A_2 H1A_2 1_555 1_555
C1_2 O1_2 1_555 1_555
H1A C1A 1_555 1_555
H1_2 C1_2 1_555 1_555
H2A C1A 1_555 1_555
H2A_2 C1A_2 1_555 1_555
H2_2 C1_2 1_555 1_555
N1A C2A 1_555 1_555
N1A_2 Ag1 1_555 1_555
N1_2 C2_2 1_555 1_555
N1B Ag1 1_555 1_555
N1C Ag1 1_555 1_555
C2A C3A 1_555 1_555
C2A_2 N1A_2 1_555 1_555
C2_2 C3_2 1_555 1_555
C3A C1A 1_555 1_555
C3A_2 C1A_2 1_555 1_555
C3_2 C1_2 1_555 1_555
H3A C3A 1_555 1_555
H3A_2 C3A_2 1_555 1_555
H3_2 C3_2 1_555 1_555
H4A C3A 1_555 1_555
H4A_2 C3A_2 1_555 1_555
H4_2 C3_2 1_555 1_555
O2A Cl1 1_555 1_555
O2B Cl1 1_555 1_555
O2C Cl1 1_555 1_555
C2A_2 C3A_2 1_555 1_555

#END
