
#######################################################################
#
#                 Cambridge Crystallographic Data Centre
#                                CCDC 
#
#######################################################################
#
# If this CIF has been generated from an entry in the Cambridge 
# Structural Database, then it will include bibliographic, chemical, 
# crystal, experimental, refinement or atomic coordinate data resulting 
# from the CCDC's data processing and validation procedures.
#
#######################################################################

data_FARMUI
_symmetry_cell_setting           monoclinic
_symmetry_space_group_name_H-M   'P 21/c'
_symmetry_Int_Tables_number      14
_space_group_name_Hall           '-P 2ybc'
loop_
_symmetry_equiv_pos_site_id
_symmetry_equiv_pos_as_xyz
1 x,y,z
2 -x,1/2+y,1/2-z
3 -x,-y,-z
4 x,1/2-y,1/2+z
_cell_length_a                   10.215(5)
_cell_length_b                   11.102(5)
_cell_length_c                   15.493(5)
_cell_angle_alpha                90
_cell_angle_beta                 91.653(5)
_cell_angle_gamma                90
_cell_volume                     1756.28
loop_
_atom_site_label
_atom_site_type_symbol
_atom_site_fract_x
_atom_site_fract_y
_atom_site_fract_z
Cu1 Cu 0.55433(3) 0.38425(3) 0.357607(18)
O1 O 0.2436(2) -0.0246(2) 0.36284(15)
N1 N 0.1350(3) -0.0085(3) 0.4877(2)
C1 C 0.0468(4) -0.1085(3) 0.4637(3)
H1 H 0.0434 -0.1649 0.5114
H2 H 0.0813 -0.1508 0.4145
O2 O 0.60814(19) 0.51095(19) 0.27666(12)
H3 H 0.5452 0.5542 0.2645
N2 N 0.4911(2) 0.2597(2) 0.43960(14)
C2 C 0.0861(4) 0.0660(4) 0.5581(3)
H4 H 0.0853 0.0191 0.6109
H5 H 0.1437 0.1345 0.5676
N3 N 0.9375(2) -0.0944(2) 0.09521(15)
C3 C 0.2332(3) 0.0217(3) 0.4345(2)
O3 O 0.7099(2) 0.29538(18) 0.32383(14)
C4 C 0.3366(3) 0.1045(2) 0.4696(2)
O4 O 0.6853(2) -0.11184(19) 0.24744(13)
C5 C 0.3868(4) 0.0968(3) 0.5542(2)
H6 H 0.3522 0.0417 0.5925
O5 O 0.61010(16) -0.02329(16) 0.12722(10)
C6 C 0.4866(4) 0.1707(3) 0.5799(2)
H7 H 0.5200 0.1676 0.6364
O6 O 0.8459(2) -0.1634(2) 0.09192(19)
C7 C 0.5378(3) 0.2500(3) 0.52166(18)
H8 H 0.6074 0.2988 0.5395
O7 O 1.0355(3) -0.1102(2) 0.05378(18)
O8 O 0.6730(2) 0.4944(3) 0.45815(14)
H9 H 0.6370 0.4913 0.5047
C8 C 0.3920(3) 0.1875(2) 0.41477(17)
H10 H 0.3590 0.1933 0.3584
C9 C 0.6943(3) 0.2012(2) 0.27974(16)
C10 C 0.8162(2) 0.1516(2) 0.23843(16)
C11 C 0.9307(3) 0.2176(3) 0.24784(18)
H11 H 0.9299 0.2891 0.2792
C12 C 1.0468(3) 0.1802(3) 0.2118(2)
H12 H 1.1234 0.2242 0.2207
C13 C 1.0465(3) 0.0774(3) 0.16289(19)
H13 H 1.1228 0.0513 0.1375
C14 C 0.9312(2) 0.0124(2) 0.15160(15)
C15 C 0.8142(2) 0.0434(2) 0.19062(15)
C16 C 0.6942(2) -0.0384(2) 0.18922(15)
O9 O 0.5886(2) 0.1544(3) 0.2659(2)
Cu1B Cu -0.55433(3) -0.38425(3) 0.642393(18)
Cu1A Cu 0.44567(3) -0.11575(3) 0.142393(18)
Cu1A_2 Cu 0.44567(3) 0.88425(3) 0.142393(18)
O1B O -0.2436(2) 0.0246(2) 0.63716(15)
N1B N -0.1350(3) 0.0085(3) 0.5123(2)
C1B C -0.0468(4) 0.1085(3) 0.5363(3)
H1B H -0.0434 0.1649 0.4886
H2B H -0.0813 0.1508 0.5855
O2B O -0.60814(19) -0.51095(19) 0.72334(12)
H3B H -0.5452 -0.5542 0.7355
N2B N -0.4911(2) -0.2597(2) 0.56040(14)
C2B C -0.0861(4) -0.0660(4) 0.4419(3)
H4B H -0.0853 -0.0191 0.3891
H5B H -0.1437 -0.1345 0.4324
N3A N 0.0625(2) 0.4056(2) 0.40479(15)
C3B C -0.2332(3) -0.0217(3) 0.5655(2)
O3A O 0.2901(2) 0.79538(18) 0.17617(14)
O3B O -0.7099(2) -0.29538(18) 0.67617(14)
C4B C -0.3366(3) -0.1045(2) 0.5304(2)
O4A O 0.3147(2) 0.38816(19) 0.25256(13)
C5B C -0.3868(4) -0.0968(3) 0.4458(2)
H6B H -0.3522 -0.0417 0.4075
O5A O 0.38990(16) 0.47671(16) 0.37278(10)
O5C O -0.38990(16) -0.47671(16) 0.62722(10)
C6B C -0.4866(4) -0.1707(3) 0.4201(2)
H7B H -0.5200 -0.1676 0.3636
O6A O 0.1541(2) 0.3366(2) 0.40808(19)
C7B C -0.5378(3) -0.2500(3) 0.47834(18)
H8B H -0.6074 -0.2988 0.4605
O7A O -0.0355(3) 0.3898(2) 0.44622(18)
O8B O -0.6730(2) -0.4944(3) 0.54185(14)
H9B H -0.6370 -0.4913 0.4953
C8B C -0.3920(3) -0.1875(2) 0.58523(17)
H10B H -0.3590 -0.1933 0.6416
C9A C 0.3057(3) 0.7012(2) 0.22026(16)
C10A C 0.1838(2) 0.6516(2) 0.26157(16)
C11A C 0.0693(3) 0.7176(3) 0.25216(18)
H11A H 0.0701 0.7891 0.2208
C12A C -0.0468(3) 0.6802(3) 0.2882(2)
H12A H -0.1234 0.7242 0.2793
C13A C -0.0465(3) 0.5774(3) 0.33711(19)
H13A H -0.1228 0.5513 0.3625
C14A C 0.0688(2) 0.5124(2) 0.34840(15)
C15A C 0.1858(2) 0.5434(2) 0.30938(15)
C16A C 0.3058(2) 0.4616(2) 0.31078(15)
O9A O 0.4114(2) 0.6544(3) 0.2341(2)
loop_
_geom_bond_atom_site_label_1
_geom_bond_atom_site_label_2
_geom_bond_site_symmetry_1
_geom_bond_site_symmetry_2
Cu1 O2 1_555 1_555
O1 C3 1_555 1_555
N1 C1 1_555 1_555
C1 H1 1_555 1_555
H2 C1 1_555 1_555
O2 H3 1_555 1_555
N2 Cu1 1_555 1_555
C2 N1 1_555 1_555
H4 C2 1_555 1_555
H5 C2 1_555 1_555
N3 O6 1_555 1_555
C3 N1 1_555 1_555
O3 Cu1 1_555 1_555
C4 C3 1_555 1_555
O4 C16 1_555 1_555
C5 C4 1_555 1_555
H6 C5 1_555 1_555
O5 C16 1_555 1_555
C6 C5 1_555 1_555
H7 C6 1_555 1_555
C7 N2 1_555 1_555
H8 C7 1_555 1_555
O7 N3 1_555 1_555
O8 Cu1 1_555 1_555
H9 O8 1_555 1_555
C8 N2 1_555 1_555
H10 C8 1_555 1_555
C9 O3 1_555 1_555
C10 C9 1_555 1_555
C11 C10 1_555 1_555
H11 C11 1_555 1_555
C12 C11 1_555 1_555
H12 C12 1_555 1_555
C13 C12 1_555 1_555
H13 C13 1_555 1_555
C14 N3 1_555 1_555
C15 C10 1_555 1_555
C16 C15 1_555 1_555
O9 C9 1_555 1_555
Cu1B O2B 1_555 1_555
Cu1A O5 1_555 1_555
Cu1A_2 O3A 1_555 1_555
O1B C3B 1_555 1_555
N1B C1B 1_555 1_555
C1B C2 1_555 1_555
H1B C1B 1_555 1_555
H2B C1B 1_555 1_555
O2B H3B 1_555 1_555
N2B Cu1B 1_555 1_555
C2B C1 1_555 1_555
H4B C2B 1_555 1_555
H5B C2B 1_555 1_555
N3A O6A 1_555 1_555
C3B N1B 1_555 1_555
O3A C9A 1_555 1_555
O3B Cu1B 1_555 1_555
C4B C3B 1_555 1_555
O4A C16A 1_555 1_555
C5B C4B 1_555 1_555
H6B C5B 1_555 1_555
O5A Cu1 1_555 1_555
O5C Cu1B 1_555 1_555
C6B C5B 1_555 1_555
H7B C6B 1_555 1_555
C7B N2B 1_555 1_555
H8B C7B 1_555 1_555
O7A N3A 1_555 1_555
O8B Cu1B 1_555 1_555
H9B O8B 1_555 1_555
C8B N2B 1_555 1_555
H10B C8B 1_555 1_555
C9A C10A 1_555 1_555
C10A C11A 1_555 1_555
C11A H11A 1_555 1_555
C12A C11A 1_555 1_555
H12A C12A 1_555 1_555
C13A C12A 1_555 1_555
H13A C13A 1_555 1_555
C14A N3A 1_555 1_555
C15A C10A 1_555 1_555
C16A O5A 1_555 1_555
O9A C9A 1_555 1_555
C4 C8 1_555 1_555
C6 C7 1_555 1_555
C13 C14 1_555 1_555
C14 C15 1_555 1_555
N1B C2B 1_555 1_555
C4B C8B 1_555 1_555
C6B C7B 1_555 1_555
C13A C14A 1_555 1_555
C14A C15A 1_555 1_555
C15A C16A 1_555 1_555

#END
