
#######################################################################
#
#                 Cambridge Crystallographic Data Centre
#                                CCDC 
#
#######################################################################
#
# If this CIF has been generated from an entry in the Cambridge 
# Structural Database, then it will include bibliographic, chemical, 
# crystal, experimental, refinement or atomic coordinate data resulting 
# from the CCDC's data processing and validation procedures.
#
#######################################################################

data_FARMOC
_symmetry_cell_setting           monoclinic
_symmetry_space_group_name_H-M   'P 21/c'
_symmetry_Int_Tables_number      14
_space_group_name_Hall           '-P 2ybc'
loop_
_symmetry_equiv_pos_site_id
_symmetry_equiv_pos_as_xyz
1 x,y,z
2 -x,1/2+y,1/2-z
3 -x,-y,-z
4 x,1/2-y,1/2+z
_cell_length_a                   6.793(5)
_cell_length_b                   19.313(5)
_cell_length_c                   18.629(5)
_cell_angle_alpha                90
_cell_angle_beta                 100.286(5)
_cell_angle_gamma                90
_cell_volume                     2404.72
loop_
_atom_site_label
_atom_site_type_symbol
_atom_site_fract_x
_atom_site_fract_y
_atom_site_fract_z
Cu1 Cu 0.02838(6) 0.065063(18) 0.288116(19)
N1 N 0.0075(4) 0.06578(12) 0.17816(13)
O1 O -0.4501(4) 0.08335(12) -0.03456(12)
C1 C -0.1578(5) 0.08940(15) 0.13576(16)
H1 H -0.2672 0.1006 0.1572
O2 O -0.1729(3) -0.34845(10) 0.20773(11)
O3 O -0.3808(3) 0.01119(10) 0.24275(12)
N2 N -0.6378(4) 0.29879(13) 0.07718(14)
O4 O -0.0769(3) -0.02973(10) 0.28549(11)
O5 O -0.8132(4) -0.25417(14) 0.10250(14)
O6 O -0.9054(4) -0.15438(13) 0.13667(13)
O7 O 0.3344(3) 0.01717(12) 0.32864(12)
H2 H 0.4020 0.0194 0.2964
C2 C -0.1949(5) -0.16564(15) 0.24797(15)
H3 H -0.0637 -0.1579 0.2711
N3 N -1.0085(4) 0.41987(12) -0.10698(13)
O8 O -0.5573(4) 0.41158(12) 0.09401(13)
N4 N -0.4431(4) 0.18271(13) 0.03063(14)
C3 C -0.3660(5) 0.12121(16) 0.01446(16)
N5 N -0.7803(4) -0.20008(16) 0.13706(14)
C4 C -0.8599(5) 0.38712(14) 0.01414(15)
C5 C -0.1021(5) -0.29098(15) 0.23574(16)
C6 C -0.6719(5) 0.36642(16) 0.06545(15)
C7 C 0.1601(5) 0.05600(16) 0.07309(17)
H4 H 0.2712 0.0440 0.0530
C8 C -0.3265(5) -0.11041(14) 0.23643(15)
C9 C -0.3264(5) 0.23851(16) 0.07119(17)
H5 H -0.2875 0.2717 0.0372
H6 H -0.2056 0.2195 0.1002
C10 C -0.2539(5) -0.23256(14) 0.22585(15)
C11 C -0.4490(5) -0.24396(16) 0.19136(15)
H7 H -0.4918 -0.2883 0.1764
C12 C -0.7550(5) 0.24238(16) 0.03843(18)
H8 H -0.8770 0.2607 0.0097
H9 H -0.7916 0.2097 0.0733
O9 O 0.0692(4) -0.28082(11) 0.26715(13)
C13 C -0.5787(5) -0.18888(15) 0.17947(16)
C14 C -1.0351(5) 0.40401(16) 0.03879(17)
H10 H -1.0437 0.3993 0.0878
C15 C -0.1741(5) 0.09809(15) 0.06081(16)
C16 C -0.2587(5) -0.03723(15) 0.25655(16)
C17 C -0.8537(5) 0.39550(15) -0.05890(16)
H11 H -0.7369 0.3837 -0.0755
C18 C -0.0115(5) 0.08004(15) 0.02945(17)
H12 H -0.0180 0.0841 -0.0207
C19 C -0.5228(5) -0.12233(15) 0.20176(15)
H13 H -0.6146 -0.0862 0.1938
C20 C -0.4486(5) 0.27458(17) 0.12067(17)
H14 H -0.4756 0.2427 0.1580
H15 H -0.3743 0.3136 0.1446
C21 C -1.1952(5) 0.42769(17) -0.01059(18)
H16 H -1.3152 0.4384 0.0042
C22 C -0.6342(5) 0.20600(17) -0.01101(17)
H17 H -0.7086 0.1665 -0.0338
H18 H -0.6107 0.2374 -0.0492
C23 C -1.1755(5) 0.43533(16) -0.08243(17)
H19 H -1.2841 0.4521 -0.1154
C24 C 0.1643(5) 0.05006(15) 0.14676(17)
H20 H 0.2811 0.0344 0.1761
Cu1A Cu -0.02838(6) -0.434937(18) 0.211884(19)
Cu1C Cu -0.97162(6) 0.434937(18) -0.211884(19)
O2A O 0.1729(3) 0.15155(10) 0.29227(11)
N3C N -0.0085(4) 0.08013(12) 0.39302(13)
loop_
_geom_bond_atom_site_label_1
_geom_bond_atom_site_label_2
_geom_bond_site_symmetry_1
_geom_bond_site_symmetry_2
Cu1 N1 1_555 1_555
N1 C1 1_555 1_555
O1 C3 1_555 1_555
C1 H1 1_555 1_555
O2 C5 1_555 1_555
O3 C16 1_555 1_555
N2 C6 1_555 1_555
O4 Cu1 1_555 1_555
O5 N5 1_555 1_555
O6 N5 1_555 1_555
O7 Cu1 1_555 1_555
H2 O7 1_555 1_555
C2 H3 1_555 1_555
N3 C17 1_555 1_555
O8 C6 1_555 1_555
N4 C3 1_555 1_555
C3 C15 1_555 1_555
N5 C13 1_555 1_555
C4 C6 1_555 1_555
C5 C10 1_555 1_555
C7 H4 1_555 1_555
C8 C2 1_555 1_555
C9 N4 1_555 1_555
H5 C9 1_555 1_555
H6 C9 1_555 1_555
C10 C2 1_555 1_555
C11 C10 1_555 1_555
H7 C11 1_555 1_555
C12 N2 1_555 1_555
H8 C12 1_555 1_555
H9 C12 1_555 1_555
O9 C5 1_555 1_555
C13 C11 1_555 1_555
C14 C4 1_555 1_555
H10 C14 1_555 1_555
C15 C1 1_555 1_555
C16 O4 1_555 1_555
C17 C4 1_555 1_555
H11 C17 1_555 1_555
C18 C7 1_555 1_555
H12 C18 1_555 1_555
C19 C8 1_555 1_555
H13 C19 1_555 1_555
C20 N2 1_555 1_555
H14 C20 1_555 1_555
H15 C20 1_555 1_555
C21 C14 1_555 1_555
H16 C21 1_555 1_555
C22 N4 1_555 1_555
H17 C22 1_555 1_555
H18 C22 1_555 1_555
C23 N3 1_555 1_555
H19 C23 1_555 1_555
C24 N1 1_555 1_555
H20 C24 1_555 1_555
Cu1A O2 1_555 1_555
Cu1C N3 1_555 1_555
O2A Cu1 1_555 1_555
N3C Cu1 1_555 1_555
C7 C24 1_555 1_555
C8 C16 1_555 1_555
C9 C20 1_555 1_555
C12 C22 1_555 1_555
C13 C19 1_555 1_555
C15 C18 1_555 1_555
C21 C23 1_555 1_555

#END
