
#######################################################################
#
#                 Cambridge Crystallographic Data Centre
#                                CCDC 
#
#######################################################################
#
# If this CIF has been generated from an entry in the Cambridge 
# Structural Database, then it will include bibliographic, chemical, 
# crystal, experimental, refinement or atomic coordinate data resulting 
# from the CCDC's data processing and validation procedures.
#
#######################################################################

data_FARMUH
_symmetry_cell_setting           tetragonal
_symmetry_space_group_name_H-M   'P -4'
_symmetry_Int_Tables_number      81
_space_group_name_Hall           'P -4'
loop_
_symmetry_equiv_pos_site_id
_symmetry_equiv_pos_as_xyz
1 x,y,z
2 -x,-y,z
3 y,-x,-z
4 -y,x,-z
_cell_length_a                   9.006(2)
_cell_length_b                   9.006(2)
_cell_length_c                   5.6627(18)
_cell_angle_alpha                90
_cell_angle_beta                 90
_cell_angle_gamma                90
_cell_volume                     459.29
loop_
_atom_site_label
_atom_site_type_symbol
_atom_site_fract_x
_atom_site_fract_y
_atom_site_fract_z
Ag1 Ag 0.0000 0.0000 0.5000
N1 N 0.1774(8) 0.0897(10) 0.7486(17)
C1 C 0.3425(11) 0.2075(10) 1.0694(19)
H1 H 0.2825 0.2743 1.1640
H2 H 0.4184 0.2662 0.9918
C2 C 0.2488(9) 0.1396(10) 0.8905(18)
O1 O 0.5000 0.0000 1.0872(14)
C3 C 0.4157(10) 0.0981(11) 1.2285(17)
H3 H 0.4797 0.1490 1.3398
H4 H 0.3414 0.0432 1.3167
Ag1_2 Ag 1.0000 0.0000 0.5000
Ag1_3 Ag -1.0000 0.0000 0.5000
N1A N 0.8226(8) -0.0897(10) 0.7486(17)
N1A_2 N -0.1774(8) -0.0897(10) 0.7486(17)
N1_2 N -0.8226(8) 0.0897(10) 0.7486(17)
N1B N 0.0897(10) -0.1774(8) 0.2514(17)
N1C N -0.0897(10) 0.1774(8) 0.2514(17)
C1A C 0.6575(11) -0.2075(10) 1.0694(19)
C1A_2 C -0.3425(11) -0.2075(10) 1.0694(19)
C1_2 C -0.6575(11) 0.2075(10) 1.0694(19)
H1A H 0.7175 -0.2743 1.1640
H1A_2 H -0.2825 -0.2743 1.1640
H1_2 H -0.7175 0.2743 1.1640
H2A H 0.5816 -0.2662 0.9918
H2A_2 H -0.4184 -0.2662 0.9918
H2_2 H -0.5816 0.2662 0.9918
C2A C 0.7512(9) -0.1396(10) 0.8905(18)
C2A_2 C -0.2488(9) -0.1396(10) 0.8905(18)
C2_2 C -0.7512(9) 0.1396(10) 0.8905(18)
O1_2 O -0.5000 0.0000 1.0872(14)
C3A C 0.5843(10) -0.0981(11) 1.2285(17)
C3A_2 C -0.4157(10) -0.0981(11) 1.2285(17)
C3_2 C -0.5843(10) 0.0981(11) 1.2285(17)
H3A H 0.5203 -0.1490 1.3398
H3A_2 H -0.4797 -0.1490 1.3398
H3_2 H -0.5203 0.1490 1.3398
H4A H 0.6586 -0.0432 1.3167
H4A_2 H -0.3414 -0.0432 1.3167
H4_2 H -0.6586 0.0432 1.3167
B1 B 0.5000 0.5000 1.5000
F1 F 0.4106(18) 0.569(2) 1.372(3)
F1A F 0.5894(18) 0.431(2) 1.372(3)
F1B F 0.569(2) 0.5894(18) 1.628(3)
F1C F 0.431(2) 0.4106(18) 1.628(3)
loop_
_geom_bond_atom_site_label_1
_geom_bond_atom_site_label_2
_geom_bond_site_symmetry_1
_geom_bond_site_symmetry_2
Ag1 N1 1_555 1_555
N1 C2 1_555 1_555
C1 H1 1_555 1_555
H2 C1 1_555 1_555
C2 C1 1_555 1_555
O1 C3 1_555 1_555
B1 F1 1_555 1_555
C3 C1 1_555 1_555
H3 C3 1_555 1_555
H4 C3 1_555 1_555
Ag1_2 N1A 1_555 1_555
Ag1_3 N1_2 1_555 1_555
N1A C2A 1_555 1_555
N1A_2 Ag1 1_555 1_555
N1_2 C2_2 1_555 1_555
N1B Ag1 1_555 1_555
N1C Ag1 1_555 1_555
C1A H1A 1_555 1_555
C1A_2 H1A_2 1_555 1_555
C1_2 H1_2 1_555 1_555
H2A C1A 1_555 1_555
H2A_2 C1A_2 1_555 1_555
H2_2 C1_2 1_555 1_555
C2A C1A 1_555 1_555
C2A_2 N1A_2 1_555 1_555
C2_2 C1_2 1_555 1_555
O1_2 C3A_2 1_555 1_555
C3A O1 1_555 1_555
C3A_2 C1A_2 1_555 1_555
C3_2 C1_2 1_555 1_555
H3A C3A 1_555 1_555
H3A_2 C3A_2 1_555 1_555
H3_2 C3_2 1_555 1_555
H4A C3A 1_555 1_555
H4A_2 C3A_2 1_555 1_555
H4_2 C3_2 1_555 1_555
F1A B1 1_555 1_555
F1B B1 1_555 1_555
F1C B1 1_555 1_555
C1A C3A 1_555 1_555
C1A_2 C2A_2 1_555 1_555
O1_2 C3_2 1_555 1_555

#END
