
#######################################################################
#
#                 Cambridge Crystallographic Data Centre
#                                CCDC 
#
#######################################################################
#
# If this CIF has been generated from an entry in the Cambridge 
# Structural Database, then it will include bibliographic, chemical, 
# crystal, experimental, refinement or atomic coordinate data resulting 
# from the CCDC's data processing and validation procedures.
#
#######################################################################

data_FARNET
_symmetry_cell_setting           monoclinic
_symmetry_space_group_name_H-M   'P 21'
_symmetry_Int_Tables_number      4
_space_group_name_Hall           'P 2yb'
loop_
_symmetry_equiv_pos_site_id
_symmetry_equiv_pos_as_xyz
1 x,y,z
2 -x,1/2+y,-z
_cell_length_a                   11.5358(8)
_cell_length_b                   8.9425(6)
_cell_length_c                   12.8250(9)
_cell_angle_alpha                90
_cell_angle_beta                 101.5330(10)
_cell_angle_gamma                90
_cell_volume                     1296.3
loop_
_atom_site_label
_atom_site_type_symbol
_atom_site_fract_x
_atom_site_fract_y
_atom_site_fract_z
Cd1 Cd 0.018616(11) 0.34062(3) 0.157886(10)
O1 O -0.09798(16) 0.2127(2) 0.00363(17)
O2 O -0.0623(2) 0.5520(3) 0.0779(2)
O3 O -0.17758(19) 0.2531(3) 0.14272(17)
O5 O -0.16644(16) -0.1009(2) -0.05833(17)
O6 O 0.3880(2) 0.1687(3) 0.4847(2)
O7 O -0.4251(2) -0.1855(3) -0.2129(2)
O8 O -0.5605(3) -0.0439(4) -0.3022(2)
O9 O -0.21090(18) -0.0009(2) -0.21948(17)
O10 O 0.8842(2) -0.0760(4) 0.31503(18)
N1 N 0.12708(19) 0.1292(2) 0.21761(18)
N2 N 0.5144(2) 0.0220(3) 0.41696(18)
N3 N 0.7503(2) 0.0456(3) 0.3893(2)
N4 N -0.4784(2) -0.0674(3) -0.2276(2)
N5 N 1.01469(18) -0.0749(3) 0.67562(19)
C1 C -0.5145(3) 0.2409(4) -0.0467(3)
H1 H -0.5750 0.3002 -0.0310
C2 C -0.4001(3) 0.2588(4) 0.0097(3)
H2 H -0.3849 0.3279 0.0650
C3 C -0.3067(2) 0.1750(3) -0.0146(2)
C4 C -0.5385(3) 0.1362(4) -0.1256(3)
H3 H -0.6153 0.1220 -0.1635
C5 C 0.4066(3) 0.0823(3) 0.4154(2)
C6 C 0.6097(3) 0.0497(4) 0.5072(3)
H4 H 0.6377 -0.0448 0.5400
H5 H 0.5803 0.1091 0.5596
C7 C -0.3288(2) 0.0687(3) -0.0959(2)
C8 C -0.1848(2) 0.2137(3) 0.0479(2)
C9 C -0.2285(2) -0.0188(3) -0.1278(2)
C10 C 0.2707(3) -0.1075(3) 0.3012(2)
H6 H 0.3185 -0.1876 0.3289
C11 C 0.0960(2) -0.0112(3) 0.1902(2)
H7 H 0.0255 -0.0279 0.1420
C12 C 0.2301(2) 0.1524(3) 0.2865(2)
H8 H 0.2518 0.2504 0.3054
C13 C 0.3050(2) 0.0395(3) 0.3302(2)
C14 C -0.4456(2) 0.0514(3) -0.1478(2)
C15 C 0.1639(3) -0.1320(3) 0.2303(2)
H9 H 0.1391 -0.2287 0.2104
C16 C 0.5509(3) -0.0550(4) 0.3274(2)
H10 H 0.4846 -0.0596 0.2676
H11 H 0.5746 -0.1565 0.3480
C17 C 0.7120(3) 0.1315(4) 0.4735(3)
H12 H 0.6869 0.2306 0.4477
H13 H 0.7771 0.1421 0.5339
C18 C 0.6531(3) 0.0268(5) 0.2945(2)
H14 H 0.6814 -0.0299 0.2401
H15 H 0.6269 0.1239 0.2652
C19 C 0.9486(2) -0.0068(3) 0.4926(2)
C20 C 0.9301(2) -0.0636(3) 0.5884(2)
H16 H 0.8543 -0.0957 0.5921
C21 C 0.8557(3) -0.0146(4) 0.3917(2)
C22 C 1.0617(3) 0.0401(4) 0.4883(2)
H17 H 1.0782 0.0771 0.4250
C23 C 1.1497(3) 0.0321(4) 0.5778(3)
H18 H 1.2256 0.0663 0.5766
C24 C 1.1235(3) -0.0276(4) 0.6692(2)
H19 H 1.1837 -0.0355 0.7291
H20 H -0.096(3) 0.605(4) 0.098(3)
Cd1A Cd -0.018616(11) -0.15938(3) -0.157886(10)
Cd1A_2 Cd 0.981384(11) -0.15938(3) 0.842114(10)
O5A O 0.16644(16) 0.3991(2) 0.05833(17)
O9A O 0.21090(18) 0.4991(2) 0.21948(17)
N5A N -0.01469(18) 0.4251(3) 0.32438(19)
O4 O 0.7992(2) -0.2267(3) 0.1295(2)
H21 H 0.807(3) -0.178(6) 0.086(3)
H22 H 0.832(3) -0.190(5) 0.190(3)
loop_
_geom_bond_atom_site_label_1
_geom_bond_atom_site_label_2
_geom_bond_site_symmetry_1
_geom_bond_site_symmetry_2
Cd1 O1 1_555 1_555
O1 C8 1_555 1_555
O2 Cd1 1_555 1_555
O3 Cd1 1_555 1_555
O4 H21 1_555 1_555
O5 C9 1_555 1_555
O6 C5 1_555 1_555
O7 N4 1_555 1_555
O8 N4 1_555 1_555
O9 C9 1_555 1_555
O10 C21 1_555 1_555
N1 Cd1 1_555 1_555
N2 C5 1_555 1_555
N3 C17 1_555 1_555
N4 C14 1_555 1_555
N5 C20 1_555 1_555
C1 H1 1_555 1_555
C2 C1 1_555 1_555
H2 C2 1_555 1_555
C3 C2 1_555 1_555
C4 C1 1_555 1_555
H3 C4 1_555 1_555
C5 C13 1_555 1_555
C6 N2 1_555 1_555
H4 C6 1_555 1_555
H5 C6 1_555 1_555
C7 C3 1_555 1_555
C8 O3 1_555 1_555
C9 C7 1_555 1_555
C10 H6 1_555 1_555
C11 N1 1_555 1_555
H7 C11 1_555 1_555
C12 N1 1_555 1_555
H8 C12 1_555 1_555
C13 C10 1_555 1_555
C14 C4 1_555 1_555
C15 C10 1_555 1_555
H9 C15 1_555 1_555
C16 N2 1_555 1_555
H10 C16 1_555 1_555
H11 C16 1_555 1_555
C17 C6 1_555 1_555
H12 C17 1_555 1_555
H13 C17 1_555 1_555
C18 N3 1_555 1_555
H14 C18 1_555 1_555
H15 C18 1_555 1_555
C19 C20 1_555 1_555
C20 H16 1_555 1_555
C21 N3 1_555 1_555
C22 C19 1_555 1_555
H17 C22 1_555 1_555
C23 C22 1_555 1_555
H18 C23 1_555 1_555
C24 N5 1_555 1_555
H19 C24 1_555 1_555
H20 O2 1_555 1_555
H22 O4 1_555 1_555
Cd1A O5 1_555 1_555
Cd1A_2 N5 1_555 1_555
O5A Cd1 1_555 1_555
O9A Cd1 1_555 1_555
N5A Cd1 1_555 1_555
O9 Cd1A 1_555 1_555
C3 C8 1_555 1_555
C7 C14 1_555 1_555
C11 C15 1_555 1_555
C12 C13 1_555 1_555
C16 C18 1_555 1_555
C19 C21 1_555 1_555
C23 C24 1_555 1_555

#END
