
#######################################################################
#
#                 Cambridge Crystallographic Data Centre
#                                CCDC 
#
#######################################################################
#
# If this CIF has been generated from an entry in the Cambridge 
# Structural Database, then it will include bibliographic, chemical, 
# crystal, experimental, refinement or atomic coordinate data resulting 
# from the CCDC's data processing and validation procedures.
#
#######################################################################

data_FARNAP
_symmetry_cell_setting           triclinic
_symmetry_space_group_name_H-M   'P -1'
_symmetry_Int_Tables_number      2
_space_group_name_Hall           '-P 1'
loop_
_symmetry_equiv_pos_site_id
_symmetry_equiv_pos_as_xyz
1 x,y,z
2 -x,-y,-z
_cell_length_a                   8.5160(15)
_cell_length_b                   10.2138(19)
_cell_length_c                   10.5778(19)
_cell_angle_alpha                108.121(2)
_cell_angle_beta                 93.204(2)
_cell_angle_gamma                101.663(2)
_cell_volume                     849.377
loop_
_atom_site_label
_atom_site_type_symbol
_atom_site_fract_x
_atom_site_fract_y
_atom_site_fract_z
Cd1 Cd 0.46390(3) 0.39931(3) 0.62475(3)
O1 O 0.4771(4) 0.1650(3) 0.6164(3)
O2 O 0.3641(4) 0.2897(3) 0.7790(3)
O3 O 0.4387(4) -0.3949(3) 0.7731(3)
O4 O 0.4824(4) -0.3406(3) 0.5911(3)
O5 O 0.1705(5) -0.1129(4) 1.1090(3)
O6 O 0.1570(5) 0.0958(4) 1.1147(4)
O7 O 1.1973(3) 0.3433(3) 0.5319(3)
N1 N 0.7374(4) 0.4537(3) 0.6934(4)
N2 N 1.0119(4) 0.1452(3) 0.5183(3)
N3 N 0.1983(5) -0.0152(4) 1.0652(3)
C1 C 0.4461(4) -0.3117(4) 0.7068(4)
C2 C 0.4112(5) 0.1816(4) 0.7205(4)
C3 C 0.3829(5) 0.0621(4) 0.7789(4)
C4 C 0.3078(5) 0.0778(4) 0.8931(4)
H1 H 0.2759 0.1612 0.9346
C5 C 0.4283(4) -0.0639(4) 0.7180(4)
H2 H 0.4768 -0.0754 0.6398
C6 C 0.4019(4) -0.1732(4) 0.7726(4)
C7 C 0.3287(4) -0.1560(4) 0.8885(4)
H3 H 0.3123 -0.2270 0.9274
C8 C 0.2806(5) -0.0320(4) 0.9451(4)
C9 C 0.8243(5) 0.3702(4) 0.6208(4)
H4 H 0.7753 0.3049 0.5383
C10 C 0.8093(6) 0.5469(5) 0.8112(5)
H5 H 0.7502 0.6055 0.8636
C11 C 0.9672(6) 0.5599(6) 0.8585(5)
H6 H 1.0139 0.6265 0.9409
C12 C 0.9827(5) 0.3752(4) 0.6612(4)
C13 C 1.0556(5) 0.4727(5) 0.7819(5)
H7 H 1.1628 0.4800 0.8118
C14 C 1.0731(5) 0.2848(4) 0.5673(4)
C15 C 1.0754(5) 0.0568(4) 0.4048(4)
H8 H 1.1692 0.1141 0.3838
H9 H 0.9940 0.0211 0.3268
C16 C 0.8772(5) 0.0668(4) 0.5652(4)
H10 H 0.7839 0.0321 0.4970
H11 H 0.8482 0.1292 0.6456
Cd1A Cd 0.53610(3) -0.39931(3) 0.37525(3)
Cd1_2 Cd 0.46390(3) -0.60069(3) 0.62475(3)
Cd1_3 Cd 1.46390(3) 0.39931(3) 0.62475(3)
Cd1A_2 Cd 1.53610(3) -0.39931(3) 0.37525(3)
Cd1A_3 Cd 0.53610(3) 0.60069(3) 0.37525(3)
O1A O 0.5229(4) -0.1650(3) 0.3836(3)
O2A O 0.6359(4) -0.2897(3) 0.2210(3)
O3A O 0.5613(4) 0.3949(3) 0.2269(3)
O3_2 O 0.4387(4) 0.6051(3) 0.7731(3)
O3A_2 O 0.5613(4) -0.6051(3) 0.2269(3)
O4A O 0.5176(4) 0.3406(3) 0.4089(3)
O4_2 O 0.4824(4) 0.6594(3) 0.5911(3)
O4A_2 O 0.5176(4) -0.6594(3) 0.4089(3)
O5A O 0.8295(5) 0.1129(4) -0.1090(3)
O6A O 0.8430(5) -0.0958(4) -0.1147(4)
O7A O 0.8027(3) -0.3433(3) 0.4681(3)
O7_2 O 0.1973(3) 0.3433(3) 0.5319(3)
N1A N 1.2626(4) -0.4537(3) 0.3066(4)
N1A_2 N 0.2626(4) -0.4537(3) 0.3066(4)
N2A N 0.9881(4) -0.1452(3) 0.4817(3)
N3A N 0.8017(5) 0.0152(4) -0.0652(3)
C1A C 0.5539(4) 0.3117(4) 0.2932(4)
C2A C 0.5888(5) -0.1816(4) 0.2795(4)
C3A C 0.6171(5) -0.0621(4) 0.2211(4)
C4A C 0.6922(5) -0.0778(4) 0.1069(4)
H1A H 0.7241 -0.1612 0.0654
C5A C 0.5717(4) 0.0639(4) 0.2820(4)
H2A H 0.5232 0.0754 0.3602
C6A C 0.5981(4) 0.1732(4) 0.2274(4)
C7A C 0.6713(4) 0.1560(4) 0.1115(4)
H3A H 0.6877 0.2270 0.0726
C8A C 0.7194(5) 0.0320(4) 0.0549(4)
C9A C 1.1757(5) -0.3702(4) 0.3792(4)
H4A H 1.2247 -0.3049 0.4617
C10A C 1.1907(6) -0.5469(5) 0.1888(5)
H5A H 1.2498 -0.6055 0.1364
C11A C 1.0328(6) -0.5599(6) 0.1415(5)
H6A H 0.9861 -0.6265 0.0591
C12A C 1.0173(5) -0.3752(4) 0.3388(4)
C13A C 0.9444(5) -0.4727(5) 0.2181(5)
H7A H 0.8372 -0.4800 0.1882
C14A C 0.9269(5) -0.2848(4) 0.4327(4)
C15A C 0.9246(5) -0.0568(4) 0.5952(4)
H8A H 0.8308 -0.1141 0.6162
H9A H 1.0060 -0.0211 0.6732
C16A C 1.1228(5) -0.0668(4) 0.4348(4)
H10A H 1.2161 -0.0321 0.5030
H11A H 1.1518 -0.1292 0.3544
loop_
_geom_bond_atom_site_label_1
_geom_bond_atom_site_label_2
_geom_bond_site_symmetry_1
_geom_bond_site_symmetry_2
Cd1 O1 1_555 1_555
O1 C2 1_555 1_555
O2 Cd1 1_555 1_555
O3 C1 1_555 1_555
O4 C1 1_555 1_555
O5 N3 1_555 1_555
O6 N3 1_555 1_555
O7 C14 1_555 1_555
N1 Cd1 1_555 1_555
N2 C14 1_555 1_555
N3 C8 1_555 1_555
C1 C6 1_555 1_555
C2 O2 1_555 1_555
C3 C2 1_555 1_555
C4 C3 1_555 1_555
H1 C4 1_555 1_555
C5 C3 1_555 1_555
H2 C5 1_555 1_555
C6 C5 1_555 1_555
C7 C6 1_555 1_555
H3 C7 1_555 1_555
C8 C4 1_555 1_555
C9 N1 1_555 1_555
H4 C9 1_555 1_555
C10 N1 1_555 1_555
H5 C10 1_555 1_555
C11 C10 1_555 1_555
H6 C11 1_555 1_555
C12 C9 1_555 1_555
C13 C11 1_555 1_555
H7 C13 1_555 1_555
C14 C12 1_555 1_555
C15 N2 1_555 1_555
H8 C15 1_555 1_555
H9 C15 1_555 1_555
C16 N2 1_555 1_555
H10 C16 1_555 1_555
H11 C16 1_555 1_555
Cd1A O4 1_555 1_555
Cd1_2 O3 1_555 1_555
Cd1_3 O7 1_555 1_555
Cd1A_2 N1A 1_555 1_555
Cd1A_3 O3A 1_555 1_555
O1A Cd1A 1_555 1_555
O2A Cd1A 1_555 1_555
O3A C1A 1_555 1_555
O3_2 Cd1 1_555 1_555
O3A_2 Cd1A 1_555 1_555
O4A Cd1 1_555 1_555
O4_2 Cd1 1_555 1_555
O4A_2 Cd1A 1_555 1_555
O5A N3A 1_555 1_555
O6A N3A 1_555 1_555
O7A Cd1A 1_555 1_555
O7_2 Cd1 1_555 1_555
N1A C9A 1_555 1_555
N1A_2 Cd1A 1_555 1_555
N2A C14A 1_555 1_555
N3A C8A 1_555 1_555
C1A O4A 1_555 1_555
C2A O1A 1_555 1_555
C3A C2A 1_555 1_555
C4A C3A 1_555 1_555
H1A C4A 1_555 1_555
C5A C3A 1_555 1_555
H2A C5A 1_555 1_555
C6A C1A 1_555 1_555
C7A C6A 1_555 1_555
H3A C7A 1_555 1_555
C8A C4A 1_555 1_555
C9A H4A 1_555 1_555
C10A N1A 1_555 1_555
H5A C10A 1_555 1_555
C11A C10A 1_555 1_555
H6A C11A 1_555 1_555
C12A C9A 1_555 1_555
C13A C11A 1_555 1_555
H7A C13A 1_555 1_555
C14A O7A 1_555 1_555
C15A C16 1_555 1_555
H8A C15A 1_555 1_555
H9A C15A 1_555 1_555
C16A C15 1_555 1_555
H10A C16A 1_555 1_555
H11A C16A 1_555 1_555
O4 Cd1_2 1_555 1_555
C7 C8 1_555 1_555
C12 C13 1_555 1_555
Cd1_2 O4A_2 1_555 1_555
Cd1A_3 O4A 1_555 1_555
Cd1A_3 O4_2 1_555 1_555
O2A C2A 1_555 1_555
N2A C15A 1_555 1_555
N2A C16A 1_555 1_555
C5A C6A 1_555 1_555
C7A C8A 1_555 1_555
C12A C13A 1_555 1_555
C12A C14A 1_555 1_555

#END
