
#######################################################################
#
#                 Cambridge Crystallographic Data Centre
#                                CCDC 
#
#######################################################################
#
# If this CIF has been generated from an entry in the Cambridge 
# Structural Database, then it will include bibliographic, chemical, 
# crystal, experimental, refinement or atomic coordinate data resulting 
# from the CCDC's data processing and validation procedures.
#
#######################################################################

data_FARTUO
_symmetry_cell_setting           orthorhombic
_symmetry_space_group_name_H-M   'P 21 21 21'
_symmetry_Int_Tables_number      19
_space_group_name_Hall           'P 2ac 2ab'
loop_
_symmetry_equiv_pos_site_id
_symmetry_equiv_pos_as_xyz
1 x,y,z
2 1/2-x,-y,1/2+z
3 1/2+x,1/2-y,-z
4 -x,1/2+y,1/2-z
_cell_length_a                   8.5710(2)
_cell_length_b                   16.0220(3)
_cell_length_c                   27.5690(4)
_cell_angle_alpha                90
_cell_angle_beta                 90
_cell_angle_gamma                90
_cell_volume                     3785.9
loop_
_atom_site_label
_atom_site_type_symbol
_atom_site_fract_x
_atom_site_fract_y
_atom_site_fract_z
O1 O -0.9281(4) 0.6660(2) 0.12019(11)
C1 C -0.4633(6) 0.6953(3) 0.16662(16)
C2 C -0.3762(5) 0.6941(3) 0.11925(16)
H1 H -0.3211 0.6400 0.1168
H2 H -0.2956 0.7383 0.1205
C3 C -0.4692(6) 0.7061(3) 0.07344(15)
C4 C -0.7391(6) 0.4368(3) 0.05820(16)
H3 H -0.6932 0.4000 0.0812
C5 C -0.8021(6) 0.4138(3) 0.01473(15)
H4 H -0.8086 0.3588 0.0019
C6 C -0.8219(5) 0.5489(3) 0.02290(15)
H5 H -0.8454 0.6055 0.0159
C7 C -0.9343(6) 0.4891(3) -0.05338(16)
H6 H -1.0081 0.5366 -0.0531
H7 H -0.9956 0.4374 -0.0580
C8 C -0.8224(5) 0.4993(3) -0.09587(15)
C9 C -0.7955(6) 0.4333(3) -0.12733(16)
H8 H -0.8421 0.3805 -0.1211
C10 C -0.7014(6) 0.4437(3) -0.16764(16)
H9 H -0.6856 0.3984 -0.1894
C11 C -0.6296(5) 0.5201(3) -0.17646(15)
C12 C -0.6546(6) 0.5853(3) -0.14449(15)
H10 H -0.6054 0.6376 -0.1499
C13 C -0.7511(5) 0.5746(3) -0.10454(14)
H11 H -0.7681 0.6199 -0.0829
C14 C -0.5287(6) 0.5330(4) -0.22084(17)
H12 H -0.4748 0.5875 -0.2185
H13 H -0.4484 0.4887 -0.2224
C15 C -0.7332(6) 0.5906(3) -0.27871(15)
H14 H -0.7534 0.6419 -0.2627
C16 C -0.8048(6) 0.5616(3) -0.31942(15)
H15 H -0.8853 0.5894 -0.3368
C17 C -0.6334(6) 0.4691(3) -0.29794(16)
H16 H -0.5703 0.4204 -0.2973
N1 N -0.7530(4) 0.5228(2) 0.06342(12)
N2 N -0.8538(4) 0.4851(2) -0.00650(12)
N3 N -0.6253(4) 0.5308(2) -0.26517(13)
N4 N -0.7403(4) 0.4846(2) -0.33133(12)
O3 O -0.5966(4) 0.6633(2) 0.17006(10)
O4 O -0.3950(4) 0.7281(2) 0.20193(12)
O5 O -0.4081(4) 0.7490(2) 0.04036(11)
O6 O -0.6030(4) 0.6727(2) 0.06955(10)
Cu1 Cu -0.69474(6) 0.59817(3) 0.117934(17)
N4A N -0.7597(4) 0.5154(2) 0.16867(12)
Cu1A Cu -0.80526(6) 0.40183(3) -0.382066(17)
O2 O -0.4637(3) 0.28727(18) 0.12363(12)
C18 C 0.0144(6) 0.2332(3) 0.16833(15)
C19 C 0.0971(5) 0.2569(3) 0.12170(16)
H17 H 0.1940 0.2235 0.1191
H18 H 0.1278 0.3163 0.1237
C20 C 0.0022(6) 0.2443(3) 0.07562(15)
C21 C -0.1659(5) 0.5015(3) 0.07496(16)
H19 H -0.0828 0.5190 0.0953
C22 C -0.2205(6) 0.5441(3) 0.03654(15)
H20 H -0.1839 0.5964 0.0250
C23 C -0.3518(6) 0.4279(3) 0.04437(15)
H21 H -0.4246 0.3843 0.0385
C24 C -0.4405(6) 0.5219(3) -0.02370(16)
H22 H -0.4986 0.5732 -0.0150
H23 H -0.5175 0.4770 -0.0298
C25 C -0.3480(5) 0.5374(3) -0.06913(15)
C26 C -0.3045(6) 0.6171(3) -0.08237(15)
H24 H -0.3357 0.6633 -0.0631
C27 C -0.2145(5) 0.6300(3) -0.12408(16)
H25 H -0.1867 0.6853 -0.1330
C28 C -0.1656(5) 0.5645(3) -0.15232(15)
C29 C -0.2128(6) 0.4836(3) -0.13944(15)
H26 H -0.1825 0.4375 -0.1589
C30 C -0.3037(6) 0.4704(3) -0.09829(15)
H27 H -0.3358 0.4155 -0.0901
C31 C -0.0558(5) 0.5785(3) -0.19438(15)
H28 H -0.0167 0.6366 -0.1930
H29 H 0.0351 0.5409 -0.1906
C32 C -0.1397(6) 0.4896(3) -0.26547(16)
H30 H -0.1100 0.4363 -0.2535
C33 C -0.2055(7) 0.5073(3) -0.30971(16)
H31 H -0.2324 0.4672 -0.3337
C34 C -0.1779(5) 0.6240(3) -0.27229(14)
H32 H -0.1798 0.6818 -0.2647
N5 N -0.2490(4) 0.4284(2) 0.08026(12)
N6 N -0.3388(4) 0.4975(2) 0.01739(12)
N7 N -0.1259(4) 0.5642(2) -0.24223(12)
N8 N -0.2264(4) 0.5919(2) -0.31397(11)
O7 O -0.1242(4) 0.25942(19) 0.17469(10)
O8 O 0.0878(4) 0.1914(2) 0.19906(11)
O9 O 0.0686(4) 0.2126(2) 0.03952(11)
O10 O -0.1388(4) 0.2685(2) 0.07509(10)
Cu2 Cu -0.21751(6) 0.33736(3) 0.128495(17)
N8A N -0.2736(4) 0.4081(2) 0.18603(11)
Cu2A Cu -0.28249(6) 0.66264(3) -0.371505(17)
O11 O -0.4128(4) 0.7010(2) 0.30019(12)
H33 H -0.437(5) 0.706(4) 0.2709(5)
H34 H -0.3152(9) 0.702(3) 0.3024(15)
O12 O -0.5792(4) 0.7619(3) -0.04262(11)
H35 H -0.538(4) 0.761(4) -0.0149(7)
H36 H -0.6758(12) 0.755(4) -0.0394(15)
O13 O -0.5950(4) 0.2195(3) 0.04158(12)
H37 H -0.6905(13) 0.217(4) 0.0350(16)
H38 H -0.547(4) 0.235(4) 0.0165(10)
O14 O 0.0640(5) 0.2264(3) 0.29624(13)
H39 H 0.159(2) 0.239(4) 0.297(2)
H40 H 0.045(6) 0.204(4) 0.2694(11)
loop_
_geom_bond_atom_site_label_1
_geom_bond_atom_site_label_2
_geom_bond_site_symmetry_1
_geom_bond_site_symmetry_2
O1 Cu1 1_555 1_555
O2 Cu2 1_555 1_555
C1 C2 1_555 1_555
C2 H1 1_555 1_555
H2 C2 1_555 1_555
C3 C2 1_555 1_555
C4 H3 1_555 1_555
C5 C4 1_555 1_555
H4 C5 1_555 1_555
C6 H5 1_555 1_555
C7 H6 1_555 1_555
H7 C7 1_555 1_555
C8 C7 1_555 1_555
C9 C8 1_555 1_555
H8 C9 1_555 1_555
C10 C9 1_555 1_555
H9 C10 1_555 1_555
C11 C10 1_555 1_555
C12 C11 1_555 1_555
H10 C12 1_555 1_555
C13 C8 1_555 1_555
H11 C13 1_555 1_555
C14 C11 1_555 1_555
H12 C14 1_555 1_555
H13 C14 1_555 1_555
C15 H14 1_555 1_555
C16 C15 1_555 1_555
H15 C16 1_555 1_555
C17 H16 1_555 1_555
C18 C19 1_555 1_555
C19 H17 1_555 1_555
H18 C19 1_555 1_555
C20 C19 1_555 1_555
C21 H19 1_555 1_555
C22 C21 1_555 1_555
H20 C22 1_555 1_555
C23 H21 1_555 1_555
C24 H22 1_555 1_555
H23 C24 1_555 1_555
C25 C24 1_555 1_555
C26 C25 1_555 1_555
H24 C26 1_555 1_555
C27 C26 1_555 1_555
H25 C27 1_555 1_555
C28 C27 1_555 1_555
C29 C28 1_555 1_555
H26 C29 1_555 1_555
C30 C25 1_555 1_555
H27 C30 1_555 1_555
C31 C28 1_555 1_555
H28 C31 1_555 1_555
H29 C31 1_555 1_555
C32 H30 1_555 1_555
C33 C32 1_555 1_555
H31 C33 1_555 1_555
C34 H32 1_555 1_555
N1 C4 1_555 1_555
N2 C5 1_555 1_555
N3 C14 1_555 1_555
N4 C16 1_555 1_555
N5 C21 1_555 1_555
N6 C22 1_555 1_555
N7 C31 1_555 1_555
N8 C33 1_555 1_555
O3 C1 1_555 1_555
O4 C1 1_555 1_555
O5 C3 1_555 1_555
O6 C3 1_555 1_555
O7 C18 1_555 1_555
O8 C18 1_555 1_555
O9 C20 1_555 1_555
O10 C20 1_555 1_555
Cu1 N1 1_555 1_555
Cu2 N5 1_555 1_555
O11 H33 1_555 1_555
H34 O11 1_555 1_555
O12 H35 1_555 1_555
H36 O12 1_555 1_555
O13 H37 1_555 1_555
H38 O13 1_555 1_555
O14 H39 1_555 1_555
H40 O14 1_555 1_555
N4A Cu1 1_555 1_555
N8A Cu2 1_555 1_555
Cu1A N4 1_555 1_555
Cu2A N8 1_555 1_555
C6 N1 1_555 1_555
C6 N2 1_555 1_555
C7 N2 1_555 1_555
C12 C13 1_555 1_555
C15 N3 1_555 1_555
C17 N3 1_555 1_555
C17 N4 1_555 1_555
C23 N5 1_555 1_555
C23 N6 1_555 1_555
C24 N6 1_555 1_555
C29 C30 1_555 1_555
C32 N7 1_555 1_555
C34 N7 1_555 1_555
C34 N8 1_555 1_555
O3 Cu1 1_555 1_555
O6 Cu1 1_555 1_555
O7 Cu2 1_555 1_555
O10 Cu2 1_555 1_555

#END
