
#######################################################################
#
#                 Cambridge Crystallographic Data Centre
#                                CCDC 
#
#######################################################################
#
# If this CIF has been generated from an entry in the Cambridge 
# Structural Database, then it will include bibliographic, chemical, 
# crystal, experimental, refinement or atomic coordinate data resulting 
# from the CCDC's data processing and validation procedures.
#
#######################################################################

data_FARWUR
_symmetry_cell_setting           monoclinic
_symmetry_space_group_name_H-M   'P 21/c'
_symmetry_Int_Tables_number      14
_space_group_name_Hall           '-P 2ybc'
loop_
_symmetry_equiv_pos_site_id
_symmetry_equiv_pos_as_xyz
1 x,y,z
2 -x,1/2+y,1/2-z
3 -x,-y,-z
4 x,1/2-y,1/2+z
_cell_length_a                   26.6639
_cell_length_b                   4.1134
_cell_length_c                   14.0074
_cell_angle_alpha                90.000
_cell_angle_beta                 101.090(46)
_cell_angle_gamma                90.000
_cell_volume                     1507.63
loop_
_atom_site_label
_atom_site_type_symbol
_atom_site_fract_x
_atom_site_fract_y
_atom_site_fract_z
Cd1 Cd 0.500000 0.500000 0.000000
S1 S 0.489860 -0.064340 0.125630
S2 S 0.586340 -0.333140 0.098210
C1 C 0.556380 -0.102280 0.162140
N1 N 0.583710 0.043320 0.251130
C2 C 0.638900 0.049380 0.277890
C3 C 0.642780 0.144160 0.392010
C4 C 0.699550 0.156640 0.423460
C5 C 0.698790 0.278440 0.531490
C6 C 0.760590 0.309850 0.571780
C7 C 0.758410 0.409300 0.685720
C8 C 0.816730 0.440170 0.725630
C9 C 0.822440 0.591950 0.841210
C10 C 0.881310 0.666680 0.879370
C11 C 0.886060 0.733420 0.997010
C12 C 0.948480 0.812060 1.033170
C13 C 0.945300 0.879000 1.144380
Cd1_2 Cd 0.500000 -0.500000 0.000000
Cd1_3 Cd 0.500000 1.500000 0.000000
S1_2 S 0.489860 0.935660 0.125630
S1B S 0.510140 0.064340 -0.125630
S1B_2 S 0.510140 1.064340 -0.125630
S2_2 S 0.586340 0.666860 0.098210
S2B S 0.413660 0.333140 -0.098210
C1_2 C 0.556380 0.897720 0.162140
N1_2 N 0.583710 1.043320 0.251130
C2_2 C 0.638900 1.049380 0.277890
C3_2 C 0.642780 1.144160 0.392010
C4_2 C 0.699550 1.156640 0.423460
C5_2 C 0.698790 1.278440 0.531490
C6_2 C 0.760590 1.309850 0.571780
C7_2 C 0.758410 1.409300 0.685720
C8_2 C 0.816730 1.440170 0.725630
C9_2 C 0.822440 1.591950 0.841210
C10_2 C 0.881310 1.666680 0.879370
C11_2 C 0.886060 1.733420 0.997010
C12_2 C 0.948480 1.812060 1.033170
C13_2 C 0.945300 1.879000 1.144380
loop_
_geom_bond_atom_site_label_1
_geom_bond_atom_site_label_2
_geom_bond_site_symmetry_1
_geom_bond_site_symmetry_2
Cd1 S1 1_555 1_555
S1 C1 1_555 1_555
S2 C1 1_555 1_555
C1 N1 1_555 1_555
N1 C2 1_555 1_555
C2 C3 1_555 1_555
C3 C4 1_555 1_555
C4 C5 1_555 1_555
C5 C6 1_555 1_555
C6 C7 1_555 1_555
C7 C8 1_555 1_555
C8 C9 1_555 1_555
C9 C10 1_555 1_555
C10 C11 1_555 1_555
C11 C12 1_555 1_555
C12 C13 1_555 1_555
Cd1_2 S1 1_555 1_555
Cd1_3 S1_2 1_555 1_555
S1_2 Cd1 1_555 1_555
S1B Cd1 1_555 1_555
S1B_2 Cd1 1_555 1_555
S2_2 Cd1 1_555 1_555
S2B Cd1 1_555 1_555
C1_2 S1_2 1_555 1_555
N1_2 C1_2 1_555 1_555
C2_2 N1_2 1_555 1_555
C3_2 C2_2 1_555 1_555
C4_2 C3_2 1_555 1_555
C5_2 C4_2 1_555 1_555
C6_2 C5_2 1_555 1_555
C7_2 C6_2 1_555 1_555
C8_2 C7_2 1_555 1_555
C9_2 C8_2 1_555 1_555
C10_2 C9_2 1_555 1_555
C11_2 C10_2 1_555 1_555
C12_2 C11_2 1_555 1_555
C13_2 C12_2 1_555 1_555
S2 Cd1_2 1_555 1_555
Cd1_2 S1B 1_555 1_555
Cd1_3 S1B_2 1_555 1_555
S2_2 C1_2 1_555 1_555

#END
