
#######################################################################
#
#                 Cambridge Crystallographic Data Centre
#                                CCDC 
#
#######################################################################
#
# If this CIF has been generated from an entry in the Cambridge 
# Structural Database, then it will include bibliographic, chemical, 
# crystal, experimental, refinement or atomic coordinate data resulting 
# from the CCDC's data processing and validation procedures.
#
#######################################################################

data_FARWOL
_symmetry_cell_setting           orthorhombic
_symmetry_space_group_name_H-M   'P c a 21'
_symmetry_Int_Tables_number      29
_space_group_name_Hall           'P 2c -2ac'
loop_
_symmetry_equiv_pos_site_id
_symmetry_equiv_pos_as_xyz
1 x,y,z
2 -x,-y,1/2+z
3 1/2+x,-y,z
4 1/2-x,y,1/2+z
_cell_length_a                   14.6353(7)
_cell_length_b                   4.1454(2)
_cell_length_c                   30.3184(15)
_cell_angle_alpha                90
_cell_angle_beta                 90
_cell_angle_gamma                90
_cell_volume                     1839.39
loop_
_atom_site_label
_atom_site_type_symbol
_atom_site_fract_x
_atom_site_fract_y
_atom_site_fract_z
Cd1 Cd 0.87507(5) 0.25024(19) 0.2500
S1 S 1.00205(15) -0.2090(5) 0.24121(7)
S2 S 0.93763(16) 0.0757(8) 0.32633(11)
C1 C 1.0172(5) -0.141(2) 0.2984(3)
N1 N 1.0878(5) -0.2758(18) 0.3169(3)
H1 H 1.1255 -0.3743 0.2998
C2 C 1.1092(7) -0.275(3) 0.3639(3)
H2 H 1.0678 -0.4196 0.3792
H3 H 1.1004 -0.0598 0.3757
C3 C 1.2057(7) -0.380(3) 0.3719(4)
H4 H 1.2468 -0.2352 0.3564
H5 H 1.2142 -0.5946 0.3597
C4 C 1.2310(8) -0.385(3) 0.4210(4)
H6 H 1.2229 -0.1684 0.4326
H7 H 1.1879 -0.5236 0.4362
C5 C 1.3222(7) -0.491(2) 0.4319(4)
H8 H 1.3289 -0.7046 0.4194
H9 H 1.3637 -0.3515 0.4158
C6 C 1.3556(9) -0.508(3) 0.4743(5)
H10 H 1.4185 -0.5737 0.4735
H11 H 1.3207 -0.6632 0.4908
H12 H 1.3508 -0.3007 0.4881
S3 S 0.74800(15) -0.2918(5) 0.25897(7)
S4 S 0.80750(14) -0.5763(7) 0.17254(11)
C7 C 0.7335(5) -0.353(2) 0.2023(3)
N2 N 0.6627(5) -0.2187(19) 0.1835(3)
H13 H 0.6246 -0.1197 0.2004
C8 C 0.6426(6) -0.222(2) 0.1365(4)
H14 H 0.6520 -0.4380 0.1249
H15 H 0.6837 -0.0769 0.1212
C9 C 0.5435(6) -0.118(3) 0.1286(4)
H16 H 0.5027 -0.2743 0.1421
H17 H 0.5331 0.0885 0.1427
C10 C 0.5212(7) -0.090(4) 0.0800(3)
H18 H 0.5339 -0.2926 0.0651
H19 H 0.5582 0.0773 0.0665
C11 C 0.4146(10) -0.002(3) 0.0758(5)
H20 H 0.4003 0.2005 0.0903
H21 H 0.3761 -0.1715 0.0877
C12 C 0.4047(15) 0.028(6) 0.0167(8)
H22 H 0.3434 0.0870 0.0091
H23 H 0.4192 -0.1770 0.0036
H24 H 0.4464 0.1884 0.0060
Cd1_2 Cd 0.87507(5) -0.74976(19) 0.2500
S1_2 S 1.00205(15) 0.7910(5) 0.24121(7)
S3_2 S 0.74800(15) 0.7082(5) 0.25897(7)
S4_2 S 0.80750(14) 0.4237(7) 0.17254(11)
loop_
_geom_bond_atom_site_label_1
_geom_bond_atom_site_label_2
_geom_bond_site_symmetry_1
_geom_bond_site_symmetry_2
Cd1 S1 1_555 1_555
S1 C1 1_555 1_555
S2 Cd1 1_555 1_555
C1 S2 1_555 1_555
N1 C1 1_555 1_555
H1 N1 1_555 1_555
C2 N1 1_555 1_555
H2 C2 1_555 1_555
H3 C2 1_555 1_555
C3 C2 1_555 1_555
H4 C3 1_555 1_555
H5 C3 1_555 1_555
C4 C3 1_555 1_555
H6 C4 1_555 1_555
H7 C4 1_555 1_555
C5 C4 1_555 1_555
H8 C5 1_555 1_555
H9 C5 1_555 1_555
C6 C5 1_555 1_555
H10 C6 1_555 1_555
H11 C6 1_555 1_555
H12 C6 1_555 1_555
S3 Cd1 1_555 1_555
S4 C7 1_555 1_555
C7 S3 1_555 1_555
N2 C7 1_555 1_555
H13 N2 1_555 1_555
C8 N2 1_555 1_555
H14 C8 1_555 1_555
H15 C8 1_555 1_555
C9 C8 1_555 1_555
H16 C9 1_555 1_555
H17 C9 1_555 1_555
C10 C9 1_555 1_555
H18 C10 1_555 1_555
H19 C10 1_555 1_555
C11 C10 1_555 1_555
H20 C11 1_555 1_555
H21 C11 1_555 1_555
C12 C11 1_555 1_555
H22 C12 1_555 1_555
H23 C12 1_555 1_555
H24 C12 1_555 1_555
Cd1_2 S1 1_555 1_555
S1_2 Cd1 1_555 1_555
S3_2 Cd1 1_555 1_555
S4_2 Cd1 1_555 1_555
S3 Cd1_2 1_555 1_555
S4 Cd1_2 1_555 1_555

#END
