
#######################################################################
#
#                 Cambridge Crystallographic Data Centre
#                                CCDC 
#
#######################################################################
#
# If this CIF has been generated from an entry in the Cambridge 
# Structural Database, then it will include bibliographic, chemical, 
# crystal, experimental, refinement or atomic coordinate data resulting 
# from the CCDC's data processing and validation procedures.
#
#######################################################################

data_FARXIG
_symmetry_cell_setting           triclinic
_symmetry_space_group_name_H-M   'P -1'
_symmetry_Int_Tables_number      2
_space_group_name_Hall           '-P 1'
loop_
_symmetry_equiv_pos_site_id
_symmetry_equiv_pos_as_xyz
1 x,y,z
2 -x,-y,-z
_cell_length_a                   10.0252(18)
_cell_length_b                   11.0678(9)
_cell_length_c                   17.9626(18)
_cell_angle_alpha                114.955(7)
_cell_angle_beta                 50.810(15)
_cell_angle_gamma                131.827(13)
_cell_volume                     1151.08
loop_
_atom_site_label
_atom_site_type_symbol
_atom_site_fract_x
_atom_site_fract_y
_atom_site_fract_z
C19 C -0.2496(6) 0.1475(5) 0.0804(3)
C20 C 0.2438(6) 0.3750(5) -0.0385(3)
C21 C 0.1227(7) 0.0636(6) 0.1369(3)
H13 H 0.2469 0.0847 0.0792
C22 C 0.1146(8) 0.0875(7) 0.2208(4)
H14 H 0.2315 0.1261 0.2195
C23 C -0.0698(7) 0.0535(6) 0.3069(3)
C24 C -0.2403(7) -0.0043(6) 0.3056(3)
H15 H -0.3675 -0.03 0.3624
C25 C -0.2168(7) -0.0229(6) 0.2174(3)
H16 H -0.3313 -0.0613 0.2164
C26 C -0.0817(8) 0.0822(6) 0.3992(3)
C27 C -0.2167(7) 0.2946(6) -0.1154(3)
H17 H -0.3312 0.2873 -0.0559
C28 C -0.2416(7) 0.2261(6) -0.1936(3)
H18 H -0.3694 0.1736 -0.1869
C29 C -0.0717(7) 0.2376(5) -0.2821(3)
C30 C 0.1126(8) 0.3124(7) -0.2880(4)
H19 H 0.2286 0.3199 -0.3466
C31 C 0.1230(8) 0.3760(7) -0.2060(3)
H20 H 0.2473 0.4248 -0.2105
C32 C -0.0814(8) 0.1800(6) -0.3713(4)
N1 N -0.1896(5) 0.0746(4) 0.0650(3)
N2 N 0.1843(6) 0.4349(4) -0.0388(3)
N3 N -0.0374(6) 0.0118(4) 0.1335(3)
N4 N -0.0380(6) 0.3709(5) -0.1201(3)
O1 O 0.0862(7) 0.1390(6) 0.3915(3)
H21 H 0.0667 0.1512 0.4451
O2 O -0.2469(6) 0.0536(5) 0.4768(3)
O3 O -0.2550(6) 0.1176(5) -0.3609(3)
H22 H -0.2445 0.0907 -0.4135
O4 O 0.0781(7) 0.1978(6) -0.4496(3)
S1 S -0.33557(17) 0.25060(14) 0.10244(9)
S2 S 0.32253(18) 0.28613(14) -0.03618(9)
Ni1 Ni 0.00000 0.00000 0.00000
Ni2 Ni 0.00000 0.50000 0.00000
C19A C 0.2496(6) -0.1475(5) -0.0804(3)
C20A C -0.2438(6) -0.3750(5) 0.0385(3)
C21A C -0.1227(7) -0.0636(6) -0.1369(3)
H13A H -0.2469 -0.0847 -0.0792
C22A C -0.1146(8) -0.0875(7) -0.2208(4)
H14A H -0.2315 -0.1261 -0.2195
C23A C 0.0698(7) -0.0535(6) -0.3069(3)
C24A C 0.2403(7) 0.0043(6) -0.3056(3)
H15A H 0.3675 0.03 -0.3624
C25A C 0.2168(7) 0.0229(6) -0.2174(3)
H16A H 0.3313 0.0613 -0.2164
C26A C 0.0817(8) -0.0822(6) -0.3992(3)
C27A C 0.2167(7) 0.7054(6) 0.1154(3)
H17A H 0.3312 0.7127 0.0559
C28A C 0.2416(7) 0.7739(6) 0.1936(3)
H18A H 0.3694 0.8264 0.1869
C29A C 0.0717(7) 0.7624(5) 0.2821(3)
C30A C -0.1126(8) 0.6876(7) 0.2880(4)
H19A H -0.2286 0.6801 0.3466
C31A C -0.1230(8) 0.6240(7) 0.2060(3)
H20A H -0.2473 0.5752 0.2105
C32A C 0.0814(8) 0.8200(6) 0.3713(4)
N1A N 0.1896(5) -0.0746(4) -0.0650(3)
N2A N -0.1843(6) -0.4349(4) 0.0388(3)
N2A_2 N -0.1843(6) 0.5651(4) 0.0388(3)
N3A N 0.0374(6) -0.0118(4) -0.1335(3)
N4A N 0.0380(6) 0.6291(5) 0.1201(3)
O1A O -0.0862(7) -0.1390(6) -0.3915(3)
H21A H -0.0667 -0.1512 -0.4451
O2A O 0.2469(6) -0.0536(5) -0.4768(3)
O3A O 0.2550(6) 0.8824(5) 0.3609(3)
H22A H 0.2445 0.9093 0.4135
O4A O -0.0781(7) 0.8022(6) 0.4496(3)
S1A S 0.33557(17) -0.25060(14) -0.10244(9)
S1A_2 S 0.33557(17) 0.74940(14) -0.10244(9)
S2A S -0.32253(18) -0.28613(14) 0.03618(9)
Ni2_2 Ni 0.00000 -0.50000 0.00000
C4 C 0.319(2) 0.6088(14) 0.4534(10)
H3 H 0.4602 0.6497 0.4149
C9 C 0.428(2) 0.7001(16) 0.5759(13)
H7 H 0.5692 0.7403 0.5407
C10 C 0.331(2) 0.7066(17) 0.6725(13)
C11 C 0.120(3) 0.6487(15) 0.7302(13)
C12 C 0.013(2) 0.5826(14) 0.6799(10)
C13 C 0.119(3) 0.5800(15) 0.5818(10)
C14 C 0.332(2) 0.6381(16) 0.5269(11)
C15 C -0.205(2) 0.5198(15) 0.7345(10)
C16 C -0.3040(19) 0.4601(14) 0.6906(8)
C17 C 0.209(2) 0.5462(16) 0.4119(10)
C18 C 0.0090(19) 0.5115(13) 0.5295(8)
C4A C -0.319(2) 0.3912(14) 0.5466(10)
H3A H -0.4602 0.3503 0.5851
C9A C -0.428(2) 0.2999(16) 0.4241(13)
H7A H -0.5692 0.2597 0.4593
C10A C -0.331(2) 0.2934(17) 0.3275(13)
C11A C -0.120(3) 0.3513(15) 0.2698(13)
C12A C -0.013(2) 0.4174(14) 0.3201(10)
C13A C -0.119(3) 0.4200(15) 0.4182(10)
C14A C -0.332(2) 0.3619(16) 0.4731(11)
C15A C 0.205(2) 0.4802(15) 0.2655(10)
C16A C 0.3040(19) 0.5399(14) 0.3094(8)
C17A C -0.209(2) 0.4538(16) 0.5881(10)
C18A C -0.0090(19) 0.4885(13) 0.4705(8)
C1? C 0.329(2) 0.6741(11) 0.6004(12)
H1? H 0.4691 0.7115 0.5628
C2? C 0.005(2) 0.5509(10) 0.6126(10)
C3? C 0.022(3) 0.6205(13) 0.7546(12)
H2? H -0.0428 0.6241 0.8211
C5? C 0.232(3) 0.6790(18) 0.6973(13)
H4? H 0.3071 0.7223 0.7259
C6? C 0.219(3) 0.6131(17) 0.5571(13)
C7? C -0.090(3) 0.5586(17) 0.7148(12)
H5? H -0.2309 0.5204 0.7541
C8? C -0.106(2) 0.4891(15) 0.5676(10)
H6? H -0.2473 0.4482 0.6053
H8? H 0.406 0.7508 0.7013
H9? H 0.0515 0.652 0.7969
H10? H 0.4037 0.6341 0.4601
H11? H -0.2757 0.5212 0.8013
H12? H -0.4456 0.4194 0.7284
loop_
_geom_bond_atom_site_label_1
_geom_bond_atom_site_label_2
_geom_bond_site_symmetry_1
_geom_bond_site_symmetry_2
C4 H3 1_555 1_555
C9 H7 1_555 1_555
C10 C9 1_555 1_555
C11 C10 1_555 1_555
C12 C11 1_555 1_555
C13 C12 1_555 1_555
C14 C4 1_555 1_555
C15 C12 1_555 1_555
C16 C15 1_555 1_555
C17 C4 1_555 1_555
C18 C13 1_555 1_555
C19 N1 1_555 1_555
C20 N2 1_555 1_555
C21 H13 1_555 1_555
C22 C21 1_555 1_555
H14 C22 1_555 1_555
C23 C22 1_555 1_555
C24 C23 1_555 1_555
H15 C24 1_555 1_555
C25 C24 1_555 1_555
H16 C25 1_555 1_555
C26 C23 1_555 1_555
C27 H17 1_555 1_555
C28 C27 1_555 1_555
H18 C28 1_555 1_555
C29 C28 1_555 1_555
C30 C29 1_555 1_555
H19 C30 1_555 1_555
C31 C30 1_555 1_555
H20 C31 1_555 1_555
C32 C29 1_555 1_555
N1 Ni1 1_555 1_555
N2 Ni2 1_555 1_555
N3 C21 1_555 1_555
N4 C27 1_555 1_555
O1 C26 1_555 1_555
H21 O1 1_555 1_555
O2 C26 1_555 1_555
O3 C32 1_555 1_555
H22 O3 1_555 1_555
O4 C32 1_555 1_555
S1 C19 1_555 1_555
S2 C20 1_555 1_555
Ni1 N3 1_555 1_555
Ni2 N4 1_555 1_555
C4A H3A 1_555 1_555
C9A H7A 1_555 1_555
C10A C9A 1_555 1_555
C11A C10A 1_555 1_555
C12A C11A 1_555 1_555
C13A C12A 1_555 1_555
C14A C4A 1_555 1_555
C15A C12A 1_555 1_555
C16A C17 1_555 1_555
C17A C16 1_555 1_555
C18A C17 1_555 1_555
C19A N1A 1_555 1_555
C20A N2A 1_555 1_555
C21A H13A 1_555 1_555
C22A C21A 1_555 1_555
H14A C22A 1_555 1_555
C23A C22A 1_555 1_555
C24A C23A 1_555 1_555
H15A C24A 1_555 1_555
C25A C24A 1_555 1_555
H16A C25A 1_555 1_555
C26A C23A 1_555 1_555
C27A H17A 1_555 1_555
C28A C27A 1_555 1_555
H18A C28A 1_555 1_555
C29A C28A 1_555 1_555
C30A C29A 1_555 1_555
H19A C30A 1_555 1_555
C31A C30A 1_555 1_555
H20A C31A 1_555 1_555
C32A C29A 1_555 1_555
N1A Ni1 1_555 1_555
N2A Ni2_2 1_555 1_555
N2A_2 Ni2 1_555 1_555
N3A Ni1 1_555 1_555
N4A Ni2 1_555 1_555
O1A C26A 1_555 1_555
H21A O1A 1_555 1_555
O2A C26A 1_555 1_555
O3A C32A 1_555 1_555
H22A O3A 1_555 1_555
O4A C32A 1_555 1_555
S1A C19A 1_555 1_555
S1A_2 Ni2 1_555 1_555
S2A Ni1 1_555 1_555
Ni2_2 S1A 1_555 1_555
C9 C14 1_555 1_555
C13 C14 1_555 1_555
C17 C18 1_555 1_555
C18 C17A 1_555 1_555
C18 C18A 1_555 1_555
C25 N3 1_555 1_555
C31 N4 1_555 1_555
S1 Ni2 1_555 1_555
S2 Ni1 1_555 1_555
C4A C17A 1_555 1_555
C9A C14A 1_555 1_555
C13A C14A 1_555 1_555
C13A C18A 1_555 1_555
C15A C16A 1_555 1_555
C17A C18A 1_555 1_555
C20A S2A 1_555 1_555
C21A N3A 1_555 1_555
C25A N3A 1_555 1_555
C27A N4A 1_555 1_555
C31A N4A 1_555 1_555

#END
