
#######################################################################
#
#                 Cambridge Crystallographic Data Centre
#                                CCDC 
#
#######################################################################
#
# If this CIF has been generated from an entry in the Cambridge 
# Structural Database, then it will include bibliographic, chemical, 
# crystal, experimental, refinement or atomic coordinate data resulting 
# from the CCDC's data processing and validation procedures.
#
#######################################################################

data_FARXOM
_symmetry_cell_setting           triclinic
_symmetry_space_group_name_H-M   'P -1'
_symmetry_Int_Tables_number      2
_space_group_name_Hall           '-P 1'
loop_
_symmetry_equiv_pos_site_id
_symmetry_equiv_pos_as_xyz
1 x,y,z
2 -x,-y,-z
_cell_length_a                   9.5502(13)
_cell_length_b                   11.0709(5)
_cell_length_c                   16.5435(12)
_cell_angle_alpha                101.862(5)
_cell_angle_beta                 54.837(10)
_cell_angle_gamma                127.758(8)
_cell_volume                     1100.86
loop_
_atom_site_label
_atom_site_type_symbol
_atom_site_fract_x
_atom_site_fract_y
_atom_site_fract_z
C1 C 0.2029(15) 0.6727(8) 0.6612(7)
H1 H 0.2946 0.7198 0.6818
C2 C -0.0005(16) 0.6334(8) 0.7263(6)
H2 H -0.0468 0.6534 0.7909
C3 C -0.1376(12) 0.5639(7) 0.6962(5)
H3 H -0.2756 0.5377 0.7407
C4 C -0.0707(9) 0.5332(6) 0.6000(4)
C5 C 0.1388(9) 0.5738(6) 0.5347(5)
C6 C -0.2138(9) 0.4609(7) 0.5669(5)
C7 C 0.2723(12) 0.6436(7) 0.5667(6)
H4 H 0.411 0.6709 0.5232
O1 O -0.3929(8) 0.4303(7) 0.6216(4)
C1A C -0.2029(15) 0.3273(8) 0.3388(7)
H1A H -0.2946 0.2802 0.3182
C2A C 0.0005(16) 0.3666(8) 0.2737(6)
H2A H 0.0468 0.3466 0.2091
C3A C 0.1376(12) 0.4361(7) 0.3038(5)
H3A H 0.2756 0.4623 0.2593
C4A C 0.0707(9) 0.4668(6) 0.4000(4)
C5A C -0.1388(9) 0.4262(6) 0.4653(5)
C6A C 0.2138(9) 0.5391(7) 0.4331(5)
C7A C -0.2723(12) 0.3564(7) 0.4333(6)
H4A H -0.411 0.3291 0.4768
O1A O 0.3929(8) 0.5697(7) 0.3784(4)
C8 C 0.2556(5) 0.3820(4) -0.0382(3)
C9 C -0.2535(5) 0.1382(4) 0.0880(3)
C10 C 0.1484(7) 0.4043(5) -0.2029(3)
H5 H 0.2757 0.4558 -0.2079
C11 C 0.1418(7) 0.3443(5) -0.2828(3)
H6 H 0.262 0.3547 -0.3406
C12 C -0.0468(7) 0.2681(5) -0.2761(3)
C13 C -0.2234(6) 0.2523(5) -0.1882(3)
H7 H -0.3532 0.1996 -0.1811
C14 C -0.2037(6) 0.3161(5) -0.1113(3)
H8 H -0.3224 0.3061 -0.0524
C15 C -0.0586(7) 0.2064(5) -0.3626(3)
C16 C -0.2376(6) -0.0525(5) 0.2312(3)
H9 H -0.3574 -0.0949 0.2316
C17 C -0.2586(7) -0.0316(5) 0.3214(3)
H10 H -0.3888 -0.0578 0.3808
C18 C -0.0836(7) 0.0286(5) 0.3224(3)
C19 C 0.1041(7) 0.0611(5) 0.2325(3)
H11 H 0.2237 0.0986 0.2308
C20 C 0.1112(7) 0.0373(5) 0.1458(3)
H12 H 0.2377 0.0588 0.0859
C21 C -0.0861(7) 0.0675(5) 0.4141(3)
N1 N 0.1951(5) 0.4515(4) -0.0263(3)
N2 N -0.1917(5) 0.0647(4) 0.0572(3)
N3 N -0.0209(5) 0.3919(4) -0.1176(3)
N4 N -0.0544(5) -0.0151(4) 0.1431(2)
O2 O -0.2345(5) 0.1405(5) -0.3522(3)
H13 H -0.2234 0.111 -0.4039
O3 O 0.1075(6) 0.2254(5) -0.4414(3)
O4 O -0.2590(5) 0.0366(4) 0.4959(2)
O5 O 0.0875(6) 0.1315(5) 0.4052(3)
H14 H 0.0688 0.1481 0.4599
S1 S 0.33980(16) 0.28117(12) -0.05477(9)
S2 S -0.33786(17) 0.24342(12) 0.12998(9)
Ni1 Ni 0.00000 0.50000 0.00000
Ni2 Ni 0.00000 0.00000 0.00000
C8A C -0.2556(5) 0.6180(4) 0.0382(3)
C9A C 0.2535(5) 0.8618(4) -0.0880(3)
C10A C -0.1484(7) 0.5957(5) 0.2029(3)
H5A H -0.2757 0.5442 0.2079
C11A C -0.1418(7) 0.6557(5) 0.2828(3)
H6A H -0.262 0.6453 0.3406
C12A C 0.0468(7) 0.7319(5) 0.2761(3)
C13A C 0.2234(6) 0.7477(5) 0.1882(3)
H7A H 0.3532 0.8004 0.1811
C14A C 0.2037(6) 0.6839(5) 0.1113(3)
H8A H 0.3224 0.6939 0.0524
C15A C 0.0586(7) 0.7936(5) 0.3626(3)
C16A C 0.2376(6) 0.0525(5) -0.2312(3)
H9A H 0.3574 0.0949 -0.2316
C17A C 0.2586(7) 0.0316(5) -0.3214(3)
H10A H 0.3888 0.0578 -0.3808
C18A C 0.0836(7) -0.0286(5) -0.3224(3)
C19A C -0.1041(7) -0.0611(5) -0.2325(3)
H11A H -0.2237 -0.0986 -0.2308
C20A C -0.1112(7) -0.0373(5) -0.1458(3)
H12A H -0.2377 -0.0588 -0.0859
C21A C 0.0861(7) -0.0675(5) -0.4141(3)
N1A N -0.1951(5) 0.5485(4) 0.0263(3)
N2A N 0.1917(5) 0.9353(4) -0.0572(3)
N2A_2 N 0.1917(5) -0.0647(4) -0.0572(3)
N3A N 0.0209(5) 0.6081(4) 0.1176(3)
N4A N 0.0544(5) 0.0151(4) -0.1431(2)
O2A O 0.2345(5) 0.8595(5) 0.3522(3)
H13A H 0.2234 0.889 0.4039
O3A O -0.1075(6) 0.7746(5) 0.4414(3)
O4A O 0.2590(5) -0.0366(4) -0.4959(2)
O5A O -0.0875(6) -0.1315(5) -0.4052(3)
H14A H -0.0688 -0.1481 -0.4599
S1A S -0.33980(16) 0.71883(12) 0.05477(9)
S1A_2 S -0.33980(16) -0.28117(12) 0.05477(9)
S2A S 0.33786(17) 0.75658(12) -0.12998(9)
Ni2_2 Ni 0.00000 1.00000 0.00000
loop_
_geom_bond_atom_site_label_1
_geom_bond_atom_site_label_2
_geom_bond_site_symmetry_1
_geom_bond_site_symmetry_2
C1 H1 1_555 1_555
C2 C1 1_555 1_555
H2 C2 1_555 1_555
C3 C2 1_555 1_555
H3 C3 1_555 1_555
C4 C3 1_555 1_555
C5 C4 1_555 1_555
C6 C4 1_555 1_555
C7 C1 1_555 1_555
H4 C7 1_555 1_555
O1 C6 1_555 1_555
C8 N1 1_555 1_555
C9 N2 1_555 1_555
C10 H5 1_555 1_555
C11 C10 1_555 1_555
H6 C11 1_555 1_555
C12 C11 1_555 1_555
C13 C12 1_555 1_555
H7 C13 1_555 1_555
C14 C13 1_555 1_555
H8 C14 1_555 1_555
C15 C12 1_555 1_555
C16 H9 1_555 1_555
C17 C16 1_555 1_555
H10 C17 1_555 1_555
C18 C17 1_555 1_555
C19 C18 1_555 1_555
H11 C19 1_555 1_555
C20 C19 1_555 1_555
H12 C20 1_555 1_555
C21 C18 1_555 1_555
N1 Ni1 1_555 1_555
N2 Ni2 1_555 1_555
N3 C10 1_555 1_555
N4 C16 1_555 1_555
O2 C15 1_555 1_555
H13 O2 1_555 1_555
O3 C15 1_555 1_555
O4 C21 1_555 1_555
O5 C21 1_555 1_555
H14 O5 1_555 1_555
S1 C8 1_555 1_555
S2 C9 1_555 1_555
Ni1 N3 1_555 1_555
Ni2 N4 1_555 1_555
C1A H1A 1_555 1_555
C2A C1A 1_555 1_555
H2A C2A 1_555 1_555
C3A C2A 1_555 1_555
H3A C3A 1_555 1_555
C4A C3A 1_555 1_555
C5A C6 1_555 1_555
C6A C5 1_555 1_555
C7A C1A 1_555 1_555
H4A C7A 1_555 1_555
O1A C6A 1_555 1_555
C8A N1A 1_555 1_555
C9A N2A 1_555 1_555
C10A H5A 1_555 1_555
C11A C10A 1_555 1_555
H6A C11A 1_555 1_555
C12A C11A 1_555 1_555
C13A C12A 1_555 1_555
H7A C13A 1_555 1_555
C14A C13A 1_555 1_555
H8A C14A 1_555 1_555
C15A C12A 1_555 1_555
C16A H9A 1_555 1_555
C17A C16A 1_555 1_555
H10A C17A 1_555 1_555
C18A C17A 1_555 1_555
C19A C18A 1_555 1_555
H11A C19A 1_555 1_555
C20A C19A 1_555 1_555
H12A C20A 1_555 1_555
C21A C18A 1_555 1_555
N1A Ni1 1_555 1_555
N2A Ni2_2 1_555 1_555
N2A_2 Ni2 1_555 1_555
N3A Ni1 1_555 1_555
N4A Ni2 1_555 1_555
O2A C15A 1_555 1_555
H13A O2A 1_555 1_555
O3A C15A 1_555 1_555
O4A C21A 1_555 1_555
O5A C21A 1_555 1_555
H14A O5A 1_555 1_555
S1A C8A 1_555 1_555
S1A_2 Ni2 1_555 1_555
S2A Ni1 1_555 1_555
Ni2_2 S1A 1_555 1_555
C5 C7 1_555 1_555
C14 N3 1_555 1_555
C20 N4 1_555 1_555
S1 Ni2 1_555 1_555
S2 Ni1 1_555 1_555
C4A C5A 1_555 1_555
C4A C6A 1_555 1_555
C5A C7A 1_555 1_555
C9A S2A 1_555 1_555
C10A N3A 1_555 1_555
C14A N3A 1_555 1_555
C16A N4A 1_555 1_555
C20A N4A 1_555 1_555

#END
