
#######################################################################
#
#                 Cambridge Crystallographic Data Centre
#                                CCDC 
#
#######################################################################
#
# If this CIF has been generated from an entry in the Cambridge 
# Structural Database, then it will include bibliographic, chemical, 
# crystal, experimental, refinement or atomic coordinate data resulting 
# from the CCDC's data processing and validation procedures.
#
#######################################################################

data_FARXEC
_symmetry_cell_setting           triclinic
_symmetry_space_group_name_H-M   'P -1'
_symmetry_Int_Tables_number      2
_space_group_name_Hall           '-P 1'
loop_
_symmetry_equiv_pos_site_id
_symmetry_equiv_pos_as_xyz
1 x,y,z
2 -x,-y,-z
_cell_length_a                   9.6457(4)
_cell_length_b                   10.9995(4)
_cell_length_c                   18.0253(8)
_cell_angle_alpha                116.502(2)
_cell_angle_beta                 55.617(2)
_cell_angle_gamma                131.9270(10)
_cell_volume                     1166.84
loop_
_atom_site_label
_atom_site_type_symbol
_atom_site_fract_x
_atom_site_fract_y
_atom_site_fract_z
Ni1 Ni 0.00000 0.00000 0.00000
Ni2 Ni 0.00000 0.50000 0.00000
S1 S 0.31459(12) 0.28379(10) -0.01951(6)
S2 S -0.32599(13) 0.25775(12) 0.08945(7)
N1 N 0.1775(4) 0.4354(3) -0.02545(19)
C1 C 0.2359(4) 0.3736(4) -0.0230(2)
N2 N -0.1843(4) 0.0792(3) 0.05851(19)
C2 C -0.2442(4) 0.1523(4) 0.0718(2)
N3 N -0.0229(4) 0.0204(3) 0.12921(18)
C3 C 0.1348(5) 0.0718(5) 0.1406(2)
H1 H 0.2549 0.0929 0.0899
N4 N -0.0450(4) 0.3565(4) -0.12023(18)
C4 C -0.0499(5) 0.0638(4) 0.2998(2)
C5 C -0.0760(6) 0.2257(5) -0.2862(2)
C6 C -0.0828(6) 0.1716(5) -0.3765(3)
C7 C -0.0615(6) 0.0893(5) 0.3911(3)
O1 O 0.0791(5) 0.1965(4) -0.44488(18)
O2 O 0.1000(5) 0.1462(4) 0.39495(19)
H2 H 0.0788 0.156 0.4476
C8 C -0.1944(5) -0.0107(5) 0.2028(2)
H3 H -0.306 -0.0474 0.1957
C9 C -0.2144(6) 0.0088(5) 0.2887(2)
H4 H -0.3368 -0.0148 0.3381
C10 C 0.1125(6) 0.3643(5) -0.1971(2)
H5 H 0.2339 0.4144 -0.1938
O3 O -0.2476(5) 0.1065(4) -0.37949(19)
H6 H -0.2332 0.0816 -0.4324
C11 C 0.1283(6) 0.0952(5) 0.2240(2)
H7 H 0.2417 0.1314 0.2293
O4 O -0.2278(5) 0.0521(4) 0.45725(18)
C12 C -0.2420(6) 0.2088(5) -0.2073(2)
H8 H -0.3674 0.1524 -0.2086
C13 C 0.1039(6) 0.3026(5) -0.2800(2)
H9 H 0.2178 0.312 -0.3318
C14 C -0.2206(5) 0.2762(5) -0.1263(2)
H10 H -0.3335 0.2652 -0.0734
Ni2_2 Ni 0.00000 -0.50000 0.00000
S1A S -0.31459(12) -0.28379(10) 0.01951(6)
S2A S 0.32599(13) -0.25775(12) -0.08945(7)
S2A_2 S 0.32599(13) 0.74225(12) -0.08945(7)
N1A N -0.1775(4) -0.4354(3) 0.02545(19)
N1A_2 N -0.1775(4) 0.5646(3) 0.02545(19)
C1A C -0.2359(4) -0.3736(4) 0.0230(2)
N2A N 0.1843(4) -0.0792(3) -0.05851(19)
C2A C 0.2442(4) -0.1523(4) -0.0718(2)
N3A N 0.0229(4) -0.0204(3) -0.12921(18)
C3A C -0.1348(5) -0.0718(5) -0.1406(2)
H1A H -0.2549 -0.0929 -0.0899
N4A N 0.0450(4) 0.6435(4) 0.12023(18)
C4A C 0.0499(5) -0.0638(4) -0.2998(2)
C5A C 0.0760(6) 0.7743(5) 0.2862(2)
C6A C 0.0828(6) 0.8284(5) 0.3765(3)
C7A C 0.0615(6) -0.0893(5) -0.3911(3)
O1A O -0.0791(5) 0.8035(4) 0.44488(18)
O2A O -0.1000(5) -0.1462(4) -0.39495(19)
H2A H -0.0788 -0.156 -0.4476
C8A C 0.1944(5) 0.0107(5) -0.2028(2)
H3A H 0.306 0.0474 -0.1957
C9A C 0.2144(6) -0.0088(5) -0.2887(2)
H4A H 0.3368 0.0148 -0.3381
C10A C -0.1125(6) 0.6357(5) 0.1971(2)
H5A H -0.2339 0.5856 0.1938
O3A O 0.2476(5) 0.8935(4) 0.37949(19)
H6A H 0.2332 0.9184 0.4324
C11A C -0.1283(6) -0.0952(5) -0.2240(2)
H7A H -0.2417 -0.1314 -0.2293
O4A O 0.2278(5) -0.0521(4) -0.45725(18)
C12A C 0.2420(6) 0.7912(5) 0.2073(2)
H8A H 0.3674 0.8476 0.2086
C13A C -0.1039(6) 0.6974(5) 0.2800(2)
H9A H -0.2178 0.688 0.3318
C14A C 0.2206(5) 0.7238(5) 0.1263(2)
H10A H 0.3335 0.7348 0.0734
C15 C 0.1780(8) 0.5348(6) 0.4181(3)
C16 C -0.0059(8) 0.4670(6) 0.4153(3)
C17 C 0.1853(8) 0.5678(6) 0.5040(4)
C18 C -0.0108(11) 0.4352(7) 0.3314(4)
C19 C 0.3458(10) 0.5674(10) 0.3375(4)
H11 H 0.4687 0.6137 0.3379
C20 C 0.1659(14) 0.4678(9) 0.2511(4)
H12 H 0.1634 0.4438 0.1953
C21 C -0.1922(16) 0.3683(8) 0.3284(6)
H13 H -0.1961 0.3462 0.2732
C22 C 0.3383(14) 0.5341(12) 0.2567(5)
H14 H 0.4559 0.5581 0.2041
C23 C -0.3616(14) 0.3357(10) 0.4053(7)
H15 H -0.4813 0.2909 0.4023
C24 C 0.3603(10) 0.6326(9) 0.5123(6)
H16 H 0.479 0.6548 0.4605
C15A C -0.1780(8) 0.4652(6) 0.5819(3)
C16A C 0.0059(8) 0.5330(6) 0.5847(3)
C17A C -0.1853(8) 0.4322(6) 0.4960(4)
C18A C 0.0108(11) 0.5648(7) 0.6686(4)
C19A C -0.3458(10) 0.4326(10) 0.6625(4)
H11A H -0.4687 0.3863 0.6621
C20A C -0.1659(14) 0.5322(9) 0.7489(4)
H12A H -0.1634 0.5562 0.8047
C21A C 0.1922(16) 0.6317(8) 0.6716(6)
H13A H 0.1961 0.6538 0.7268
C22A C -0.3383(14) 0.4659(12) 0.7433(5)
H14A H -0.4559 0.4419 0.7959
C23A C 0.3616(14) 0.6643(10) 0.5947(7)
H15A H 0.4813 0.7091 0.5977
C24A C -0.3603(10) 0.3674(9) 0.4877(6)
H16A H -0.479 0.3452 0.5395
loop_
_geom_bond_atom_site_label_1
_geom_bond_atom_site_label_2
_geom_bond_site_symmetry_1
_geom_bond_site_symmetry_2
Ni1 S1 1_555 1_555
Ni2 S2 1_555 1_555
S1 C1 1_555 1_555
S2 C2 1_555 1_555
N1 Ni2 1_555 1_555
C1 N1 1_555 1_555
N2 Ni1 1_555 1_555
C2 N2 1_555 1_555
N3 Ni1 1_555 1_555
C3 N3 1_555 1_555
H1 C3 1_555 1_555
N4 Ni2 1_555 1_555
C4 C7 1_555 1_555
C5 C6 1_555 1_555
C6 O1 1_555 1_555
C7 O2 1_555 1_555
O2 H2 1_555 1_555
C8 N3 1_555 1_555
H3 C8 1_555 1_555
C9 C4 1_555 1_555
H4 C9 1_555 1_555
C10 N4 1_555 1_555
H5 C10 1_555 1_555
O3 C6 1_555 1_555
H6 O3 1_555 1_555
C11 C3 1_555 1_555
H7 C11 1_555 1_555
O4 C7 1_555 1_555
C12 C5 1_555 1_555
H8 C12 1_555 1_555
C13 C5 1_555 1_555
H9 C13 1_555 1_555
C14 N4 1_555 1_555
H10 C14 1_555 1_555
C15 C16 1_555 1_555
C16 C18 1_555 1_555
C17 C15 1_555 1_555
C18 C20 1_555 1_555
C19 C15 1_555 1_555
H11 C19 1_555 1_555
C20 H12 1_555 1_555
C21 C18 1_555 1_555
H13 C21 1_555 1_555
C22 C19 1_555 1_555
H14 C22 1_555 1_555
C23 C21 1_555 1_555
H15 C23 1_555 1_555
C24 C17 1_555 1_555
H16 C24 1_555 1_555
Ni2_2 S2A 1_555 1_555
S1A Ni1 1_555 1_555
S2A C2A 1_555 1_555
S2A_2 Ni2 1_555 1_555
N1A Ni2_2 1_555 1_555
N1A_2 Ni2 1_555 1_555
C1A S1A 1_555 1_555
N2A Ni1 1_555 1_555
C2A N2A 1_555 1_555
N3A Ni1 1_555 1_555
C3A N3A 1_555 1_555
H1A C3A 1_555 1_555
N4A Ni2 1_555 1_555
C4A C7A 1_555 1_555
C5A C6A 1_555 1_555
C6A O1A 1_555 1_555
C7A O2A 1_555 1_555
O2A H2A 1_555 1_555
C8A N3A 1_555 1_555
H3A C8A 1_555 1_555
C9A C4A 1_555 1_555
H4A C9A 1_555 1_555
C10A N4A 1_555 1_555
H5A C10A 1_555 1_555
O3A C6A 1_555 1_555
H6A O3A 1_555 1_555
C11A C3A 1_555 1_555
H7A C11A 1_555 1_555
O4A C7A 1_555 1_555
C12A C5A 1_555 1_555
H8A C12A 1_555 1_555
C13A C5A 1_555 1_555
H9A C13A 1_555 1_555
C14A N4A 1_555 1_555
H10A C14A 1_555 1_555
C15A C16A 1_555 1_555
C16A C17 1_555 1_555
C17A C16 1_555 1_555
C18A C16A 1_555 1_555
C19A C15A 1_555 1_555
H11A C19A 1_555 1_555
C20A C18A 1_555 1_555
H12A C20A 1_555 1_555
C21A C18A 1_555 1_555
H13A C21A 1_555 1_555
C22A C19A 1_555 1_555
H14A C22A 1_555 1_555
C23A C24 1_555 1_555
H15A C23A 1_555 1_555
C24A C23 1_555 1_555
H16A C24A 1_555 1_555
C4 C11 1_555 1_555
C8 C9 1_555 1_555
C10 C13 1_555 1_555
C12 C14 1_555 1_555
C20 C22 1_555 1_555
N1A C1A 1_555 1_555
C4A C11A 1_555 1_555
C8A C9A 1_555 1_555
C10A C13A 1_555 1_555
C12A C14A 1_555 1_555
C15A C17A 1_555 1_555
C17A C24A 1_555 1_555
C20A C22A 1_555 1_555
C21A C23A 1_555 1_555

#END
