
#######################################################################
#
#                 Cambridge Crystallographic Data Centre
#                                CCDC 
#
#######################################################################
#
# If this CIF has been generated from an entry in the Cambridge 
# Structural Database, then it will include bibliographic, chemical, 
# crystal, experimental, refinement or atomic coordinate data resulting 
# from the CCDC's data processing and validation procedures.
#
#######################################################################

data_FARXUS
_symmetry_cell_setting           triclinic
_symmetry_space_group_name_H-M   'P -1'
_symmetry_Int_Tables_number      2
_space_group_name_Hall           '-P 1'
loop_
_symmetry_equiv_pos_site_id
_symmetry_equiv_pos_as_xyz
1 x,y,z
2 -x,-y,-z
_cell_length_a                   14.6748(7)
_cell_length_b                   11.0746(4)
_cell_length_c                   18.0503(7)
_cell_angle_alpha                115.604(3)
_cell_angle_beta                 70.413(3)
_cell_angle_gamma                77.837(2)
_cell_volume                     2263.59
loop_
_atom_site_label
_atom_site_type_symbol
_atom_site_fract_x
_atom_site_fract_y
_atom_site_fract_z
C1 C 0.1896(5) 0.3197(7) 0.3308(4)
C2 C -0.2648(6) 0.6088(9) 0.3480(5)
C3 C 0.0884(6) 0.3811(8) 0.3410(5)
C4 C 0.2748(6) 0.2120(8) 0.2434(5)
H1 H 0.2654 0.1793 0.1907
C5 C -0.1724(7) 0.5499(10) 0.3532(5)
C6 C 0.0037(6) 0.4317(8) 0.3469(5)
C7 C 0.3738(6) 0.1523(9) 0.2335(6)
H2 H 0.4302 0.0762 0.1747
C8 C -0.0917(7) 0.4940(9) 0.3515(5)
C9 C -0.2610(8) 0.5537(9) 0.2626(5)
H3 H -0.1993 0.4768 0.2082
C10 C 0.2065(7) 0.3724(10) 0.4075(5)
H4 H 0.1503 0.4466 0.4668
C11 C 0.3069(9) 0.3147(12) 0.3956(7)
H5 H 0.3187 0.3513 0.4469
C12 C -0.3577(7) 0.7231(14) 0.4258(6)
H6 H -0.3605 0.766 0.484
C13 C -0.3500(11) 0.6137(13) 0.2580(9)
H7 H -0.3464 0.5792 0.1996
C14 C -0.4397(10) 0.7181(17) 0.3339(12)
H8 H -0.4993 0.7533 0.329
C15 C 0.3892(7) 0.2038(11) 0.3086(7)
H9 H 0.4564 0.1637 0.3014
C16 C -0.4455(8) 0.7748(18) 0.4196(9)
H10 H -0.509 0.8483 0.4735
Ni1 Ni 0.24278(5) 0.36211(7) 0.01711(4)
Ni2 Ni 0.23867(5) -0.13500(7) 0.01896(4)
S1 S 0.40320(10) -0.08995(14) -0.01426(10)
S2 S 0.41544(10) 0.36944(14) -0.07417(9)
S3 S 0.07160(10) 0.35639(14) 0.10548(9)
S4 S 0.07727(11) 0.81128(15) 0.04701(11)
C17 C 0.1213(4) 0.6639(5) 0.0481(3)
C18 C 0.3634(4) 0.0600(5) -0.0146(3)
N1 N 0.2308(3) 0.2557(4) -0.1092(3)
C19 C 0.1132(4) 0.1946(5) 0.0914(3)
C20 C 0.3722(4) 0.5349(5) -0.0556(3)
N2 N 0.3358(3) 0.1651(4) -0.0152(3)
N3 N 0.1414(4) 0.0798(5) 0.0810(3)
N4 N 0.3392(3) 0.6497(4) -0.0432(3)
N5 N 0.2533(3) 0.4721(4) 0.1431(3)
N6 N 0.2537(3) -0.1757(5) -0.1128(3)
N7 N 0.2192(3) -0.0962(5) 0.1510(3)
O1 O 0.1186(3) 0.1475(5) -0.3543(3)
C21 C 0.2019(4) -0.0358(6) 0.3226(4)
N8 N 0.1516(3) 0.5594(5) 0.0488(3)
C22 C 0.2137(4) 0.1405(6) -0.2717(3)
C23 C 0.2635(5) 0.5917(6) 0.3093(4)
C24 C 0.3021(4) -0.1612(6) 0.1572(4)
H11 H 0.3664 -0.2278 0.1022
O2 O 0.2872(3) -0.0182(5) -0.4351(3)
H12 H 0.2749 -0.0401 -0.4792
O3 O 0.2794(3) -0.0672(5) 0.4117(3)
C25 C 0.2653(4) -0.2353(6) -0.2829(4)
C26 C 0.3453(4) 0.4284(6) 0.1437(4)
H13 H 0.4064 0.3564 0.0871
C27 C 0.3541(5) -0.2983(6) -0.2795(4)
H14 H 0.4192 -0.3622 -0.334
O4 O 0.3564(4) 0.6001(5) 0.3952(3)
C28 C 0.1688(4) -0.1156(6) -0.1177(4)
H15 H 0.1046 -0.0517 -0.0622
O5 O 0.1829(4) -0.2068(5) -0.3699(3)
C29 C 0.1687(5) 0.6397(6) 0.3094(4)
H16 H 0.1067 0.7122 0.3651
C30 C 0.3444(4) -0.2642(6) -0.1931(3)
H17 H 0.4049 -0.3058 -0.1912
C31 C 0.3053(4) 0.0770(6) -0.2722(4)
H18 H 0.3627 -0.0061 -0.3272
O6 O 0.1804(4) 0.7347(5) 0.4740(3)
H19 H 0.1909 0.7584 0.5192
C32 C 0.1147(5) 0.0324(7) 0.3180(4)
H20 H 0.0495 0.0986 0.372
C33 C 0.1711(5) -0.1432(7) -0.2008(4)
H21 H 0.1096 -0.0998 -0.2009
C34 C 0.2968(4) -0.1346(6) 0.2401(4)
H22 H 0.3562 -0.1824 0.2411
C35 C 0.2041(5) 0.0874(6) -0.3592(4)
C36 C 0.2682(5) 0.6461(7) 0.3987(4)
C37 C 0.1277(4) -0.0010(6) 0.2309(4)
H23 H 0.0696 0.0452 0.2277
C38 C 0.1678(4) 0.5776(6) 0.2248(4)
H24 H 0.104 0.6116 0.2251
C39 C 0.1411(4) 0.3135(6) -0.1087(4)
H25 H 0.0834 0.3933 -0.0522
O7 O 0.3577(4) -0.3496(6) -0.4469(3)
H26 H 0.3508 -0.3591 -0.4921
C40 C 0.1977(5) -0.0030(7) 0.4134(4)
C41 C 0.2688(6) -0.2666(7) -0.3731(4)
C42 C 0.3111(4) 0.1382(6) -0.1903(4)
H27 H 0.3739 0.0955 -0.1916
C43 C 0.1298(4) 0.2605(6) -0.1881(4)
H28 H 0.0664 0.3052 -0.1852
O8 O 0.1098(4) 0.0877(6) 0.4878(3)
H29 H 0.1163 0.0975 0.5332
C44 C 0.3530(5) 0.4862(6) 0.2251(4)
H30 H 0.4183 0.4538 0.2228
Ni2_2 Ni 0.23867(5) 0.86500(7) 0.01896(4)
S4_2 S 0.07727(11) -0.18872(15) 0.04701(11)
N4_2 N 0.3392(3) -0.3503(4) -0.0432(3)
loop_
_geom_bond_atom_site_label_1
_geom_bond_atom_site_label_2
_geom_bond_site_symmetry_1
_geom_bond_site_symmetry_2
C1 C3 1_555 1_555
C2 C5 1_555 1_555
C3 C6 1_555 1_555
C4 C1 1_555 1_555
H1 C4 1_555 1_555
C5 C8 1_555 1_555
C6 C8 1_555 1_555
C7 C4 1_555 1_555
H2 C7 1_555 1_555
C9 C2 1_555 1_555
H3 C9 1_555 1_555
C10 C1 1_555 1_555
H4 C10 1_555 1_555
C11 C10 1_555 1_555
H5 C11 1_555 1_555
C12 C2 1_555 1_555
H6 C12 1_555 1_555
C13 C9 1_555 1_555
H7 C13 1_555 1_555
C14 C13 1_555 1_555
H8 C14 1_555 1_555
C15 C7 1_555 1_555
H9 C15 1_555 1_555
C16 C12 1_555 1_555
H10 C16 1_555 1_555
Ni1 S2 1_555 1_555
Ni2 S1 1_555 1_555
S1 C18 1_555 1_555
S2 C20 1_555 1_555
S3 Ni1 1_555 1_555
S4 C17 1_555 1_555
C17 N8 1_555 1_555
C18 N2 1_555 1_555
N1 Ni1 1_555 1_555
C19 S3 1_555 1_555
C20 N4 1_555 1_555
N2 Ni1 1_555 1_555
N3 Ni2 1_555 1_555
N4 Ni2_2 1_555 1_555
N5 Ni1 1_555 1_555
N6 Ni2 1_555 1_555
N7 Ni2 1_555 1_555
O1 C35 1_555 1_555
C21 C32 1_555 1_555
N8 Ni1 1_555 1_555
C22 C31 1_555 1_555
C23 C29 1_555 1_555
C24 N7 1_555 1_555
H11 C24 1_555 1_555
O2 H12 1_555 1_555
O3 C40 1_555 1_555
C25 C27 1_555 1_555
C26 N5 1_555 1_555
H13 C26 1_555 1_555
C27 H14 1_555 1_555
O4 C36 1_555 1_555
C28 N6 1_555 1_555
H15 C28 1_555 1_555
O5 C41 1_555 1_555
C29 H16 1_555 1_555
C30 N6 1_555 1_555
H17 C30 1_555 1_555
C31 H18 1_555 1_555
O6 H19 1_555 1_555
C32 H20 1_555 1_555
C33 C25 1_555 1_555
H21 C33 1_555 1_555
C34 C21 1_555 1_555
H22 C34 1_555 1_555
C35 C22 1_555 1_555
C36 C23 1_555 1_555
C37 N7 1_555 1_555
H23 C37 1_555 1_555
C38 N5 1_555 1_555
H24 C38 1_555 1_555
C39 N1 1_555 1_555
H25 C39 1_555 1_555
O7 H26 1_555 1_555
C40 C21 1_555 1_555
C41 C25 1_555 1_555
C42 N1 1_555 1_555
H27 C42 1_555 1_555
C43 C22 1_555 1_555
H28 C43 1_555 1_555
O8 C40 1_555 1_555
H29 O8 1_555 1_555
C44 C23 1_555 1_555
H30 C44 1_555 1_555
Ni2_2 S4 1_555 1_555
S4_2 Ni2 1_555 1_555
N4_2 Ni2 1_555 1_555
C11 C15 1_555 1_555
C14 C16 1_555 1_555
C19 N3 1_555 1_555
C24 C34 1_555 1_555
O2 C35 1_555 1_555
C26 C44 1_555 1_555
C27 C30 1_555 1_555
C28 C33 1_555 1_555
C29 C38 1_555 1_555
C31 C42 1_555 1_555
O6 C36 1_555 1_555
C32 C37 1_555 1_555
C39 C43 1_555 1_555
O7 C41 1_555 1_555

#END
