
#######################################################################
#
#                 Cambridge Crystallographic Data Centre
#                                CCDC 
#
#######################################################################
#
# If this CIF has been generated from an entry in the Cambridge 
# Structural Database, then it will include bibliographic, chemical, 
# crystal, experimental, refinement or atomic coordinate data resulting 
# from the CCDC's data processing and validation procedures.
#
#######################################################################

data_FARYUT
_symmetry_cell_setting           triclinic
_symmetry_space_group_name_H-M   'P -1'
_symmetry_Int_Tables_number      2
_space_group_name_Hall           '-P 1'
loop_
_symmetry_equiv_pos_site_id
_symmetry_equiv_pos_as_xyz
1 x,y,z
2 -x,-y,-z
_cell_length_a                   17.8740(8)
_cell_length_b                   11.1970(5)
_cell_length_c                   16.9305(7)
_cell_angle_alpha                103.836(3)
_cell_angle_beta                 78.041(4)
_cell_angle_gamma                86.770(2)
_cell_volume                     3198.6
loop_
_atom_site_label
_atom_site_type_symbol
_atom_site_fract_x
_atom_site_fract_y
_atom_site_fract_z
Ni1 Ni 0.32416(10) -0.10869(15) 0.16254(10)
S3 S 0.2003(2) 0.3058(3) 0.2165(2)
N3 N 0.2559(6) 0.0555(10) 0.1873(6)
C3 C 0.2326(8) 0.1567(13) 0.1993(8)
N4 N 0.3127(7) -0.0889(10) 0.2944(7)
N5 N 0.3369(6) -0.1359(10) 0.0305(7)
O1 O 0.4068(6) 0.6381(11) 0.5597(6)
O2 O 0.2835(6) 0.7241(10) 0.5865(5)
H1 H 0.2913 0.7525 0.633
C4 C 0.3468(10) -0.2193(16) -0.2315(9)
O3 O 0.4093(6) -0.2758(10) -0.2814(6)
H2 H 0.4045 -0.2878 -0.3297
O4 O 0.2868(6) -0.1954(11) -0.2551(6)
C5 C 0.4043(8) -0.2272(13) -0.1105(8)
H3 H 0.4483 -0.272 -0.1475
C6 C 0.3440(7) -0.1889(13) -0.1404(7)
C7 C 0.2396(8) -0.0110(14) 0.4378(9)
H4 H 0.1935 0.0242 0.4754
C8 C 0.3760(10) -0.0920(15) 0.4080(8)
H5 H 0.4205 -0.1097 0.4253
C9 C 0.3399(9) 0.5998(13) 0.4505(8)
C10 C 0.3457(10) 0.6554(14) 0.5377(9)
C11 C 0.2802(8) -0.1232(15) -0.0841(9)
H6 H 0.2383 -0.0956 -0.1022
C12 C 0.3997(7) -0.1992(12) -0.0254(8)
H7 H 0.4413 -0.2251 -0.0062
C13 C 0.3693(9) 0.1581(16) -0.0951(9)
H8 H 0.4054 0.0921 -0.1272
C14 C 0.3743(9) -0.1156(13) 0.3241(9)
H9 H 0.4193 -0.1527 0.2852
C15 C 0.2790(8) -0.0981(13) 0.0011(7)
H10 H 0.2355 -0.0529 0.0389
O5 O 0.2430(7) 0.0585(11) 0.6071(6)
O6 O 0.3652(7) -0.0226(11) 0.5792(6)
H11 H 0.3591 0.0035 0.63
C16 C 0.3024(10) 0.0027(14) 0.5578(8)
C20 C 0.3070(9) -0.0401(13) 0.4645(8)
C26 C 0.2472(8) -0.0390(13) 0.3503(8)
H16 H 0.2042 -0.0218 0.3304
Ni4 Ni 0.32513(10) 0.39498(15) 0.16220(10)
S4 S 0.4451(2) -0.0022(3) 0.1533(2)
S5 S 0.2028(2) -0.2112(3) 0.1694(2)
S6 S 0.4479(2) -0.5220(3) 0.1064(2)
N7 N 0.2576(6) -0.4533(9) 0.1617(6)
N9 N 0.3910(6) 0.2424(10) 0.1648(7)
N10 N 0.3939(7) -0.2711(10) 0.1403(7)
C39 C 0.4168(7) -0.3740(12) 0.1257(7)
N11 N 0.3197(6) 0.3105(10) 0.0354(6)
O11 O 0.2472(6) 0.1692(11) -0.2381(6)
H30 H 0.2498 0.1326 -0.2869
C45 C 0.2587(8) 0.2982(13) -0.0779(8)
H31 H 0.2193 0.3292 -0.0982
N12 N 0.3308(6) 0.4844(10) 0.2869(6)
C46 C 0.4130(7) 0.1416(12) 0.1599(7)
C47 C 0.2357(7) -0.3540(11) 0.1635(7)
C48 C 0.3115(7) 0.2020(13) -0.1280(8)
C51 C 0.2703(8) 0.5564(13) 0.3421(8)
H34 H 0.2246 0.5669 0.3251
C53 C 0.3079(10) 0.1403(16) -0.2175(9)
C54 C 0.2649(8) 0.3478(13) 0.0024(8)
H36 H 0.2281 0.4118 0.0358
C56 C 0.3948(7) 0.4693(12) 0.3141(8)
H38 H 0.4368 0.4184 0.2771
O12 O 0.3642(7) 0.0667(12) -0.2624(6)
C58 C 0.3722(10) 0.2143(15) -0.0143(9)
H40 H 0.4113 0.1859 0.0075
C59 C 0.2733(9) 0.6156(12) 0.4234(8)
H41 H 0.2305 0.6656 0.4594
C60 C 0.4028(8) 0.5251(13) 0.3945(8)
H42 H 0.4489 0.5128 0.4102
Ni4_2 Ni 0.32513(10) -0.60502(15) 0.16220(10)
S6_2 S 0.4479(2) 0.4780(3) 0.1064(2)
N7_2 N 0.2576(6) 0.5467(9) 0.1617(6)
S1 S 0.1196(2) 0.1052(3) -0.0027(3)
S2 S -0.12547(19) 0.4071(3) 0.0350(2)
N1 N 0.0638(6) 0.3474(10) 0.0038(6)
N2 N -0.0705(7) 0.1603(10) 0.0212(6)
C1 C -0.0928(7) 0.2638(12) 0.0276(7)
C2 C 0.0857(7) 0.2464(12) 0.0019(8)
Ni2 Ni 0.00000 0.00000 0.00000
Ni3 Ni 0.00000 0.50000 0.00000
N6 N 0.0056(7) 0.4208(10) -0.1314(6)
C37 C -0.0226(11) 0.1115(14) 0.3967(9)
N8 N -0.0150(6) 0.0220(10) 0.1325(6)
O7 O 0.0457(7) 0.1668(10) -0.4263(6)
H25 H 0.0352 0.1427 -0.4721
C38 C 0.0436(9) -0.0051(14) 0.1626(9)
H26 H 0.0891 -0.0428 0.1248
O8 O -0.0670(7) 0.2738(11) -0.4032(6)
O9 O -0.0841(6) 0.1694(11) 0.4450(6)
H27 H -0.08 0.1811 0.4936
O10 O 0.0371(7) 0.0861(12) 0.4175(6)
C40 C -0.0882(10) 0.1033(15) 0.2752(9)
H28 H -0.135 0.1375 0.3117
C41 C -0.0236(9) 0.0783(14) 0.3042(9)
C42 C -0.0064(9) 0.2478(14) -0.3795(8)
C43 C -0.0002(8) 0.3053(12) -0.2938(8)
C44 C 0.0585(8) 0.3330(13) -0.1804(8)
H29 H 0.0984 0.3089 -0.158
C49 C 0.0598(9) 0.2741(14) -0.2612(9)
H32 H 0.1001 0.2147 -0.293
C50 C -0.0799(8) 0.0753(14) 0.1892(9)
H33 H -0.1224 0.0949 0.1692
C52 C 0.0426(9) 0.0186(15) 0.2477(8)
H35 H 0.0854 -0.0053 0.2657
C55 C -0.0575(9) 0.4021(13) -0.2445(8)
H37 H -0.0974 0.4296 -0.2656
C57 C -0.0514(8) 0.4542(13) -0.1632(8)
H39 H -0.0895 0.5159 -0.1293
S1A S -0.1196(2) -0.1052(3) 0.0027(3)
S2A S 0.12547(19) -0.4071(3) -0.0350(2)
S2A_2 S 0.12547(19) 0.5929(3) -0.0350(2)
N1A N -0.0638(6) -0.3474(10) -0.0038(6)
N1A_2 N -0.0638(6) 0.6526(10) -0.0038(6)
N2A N 0.0705(7) -0.1603(10) -0.0212(6)
C1A C 0.0928(7) -0.2638(12) -0.0276(7)
C2A C -0.0857(7) -0.2464(12) -0.0019(8)
Ni3_2 Ni 0.00000 -0.50000 0.00000
N6A N -0.0056(7) 0.5792(10) 0.1314(6)
C37A C 0.0226(11) -0.1115(14) -0.3967(9)
N8A N 0.0150(6) -0.0220(10) -0.1325(6)
O7A O -0.0457(7) 0.8332(10) 0.4263(6)
H25A H -0.0352 0.8573 0.4721
C38A C -0.0436(9) 0.0051(14) -0.1626(9)
H26A H -0.0891 0.0428 -0.1248
O8A O 0.0670(7) 0.7262(11) 0.4032(6)
O9A O 0.0841(6) -0.1694(11) -0.4450(6)
H27A H 0.08 -0.1811 -0.4936
O10A O -0.0371(7) -0.0861(12) -0.4175(6)
C40A C 0.0882(10) -0.1033(15) -0.2752(9)
H28A H 0.135 -0.1375 -0.3117
C41A C 0.0236(9) -0.0783(14) -0.3042(9)
C42A C 0.0064(9) 0.7522(14) 0.3795(8)
C43A C 0.0002(8) 0.6947(12) 0.2938(8)
C44A C -0.0585(8) 0.6670(13) 0.1804(8)
H29A H -0.0984 0.6911 0.158
C49A C -0.0598(9) 0.7259(14) 0.2612(9)
H32A H -0.1001 0.7853 0.293
C50A C 0.0799(8) -0.0753(14) -0.1892(9)
H33A H 0.1224 -0.0949 -0.1692
C52A C -0.0426(9) -0.0186(15) -0.2477(8)
H35A H -0.0854 0.0053 -0.2657
C55A C 0.0575(9) 0.5979(13) 0.2445(8)
H37A H 0.0974 0.5704 0.2656
C57A C 0.0514(8) 0.5458(13) 0.1632(8)
H39A H 0.0895 0.4841 0.1293
C17 C 0.3446(11) 0.3189(16) 0.5458(10)
C18 C 0.3472(11) 0.3705(16) 0.6318(11)
C19 C 0.2773(15) 0.3451(19) 0.5190(11)
C21 C 0.2097(15) 0.4215(19) 0.5808(13)
C22 C 0.087(2) 0.522(4) 0.606(2)
H12 H 0.0415 0.5373 0.5889
C23 C 0.4066(14) 0.2506(17) 0.4844(12)
H13 H 0.4527 0.2352 0.4995
C24 C 0.141(2) 0.455(3) 0.5498(18)
H14 H 0.1382 0.4276 0.4942
C25 C 0.2885(17) 0.493(2) 0.7702(14)
H15 H 0.2467 0.5434 0.8077
C27 C 0.2842(12) 0.4439(16) 0.6881(11)
C28 C 0.4029(14) 0.2044(18) 0.4014(14)
H17 H 0.4456 0.1605 0.3615
C29 C 0.2157(14) 0.4722(19) 0.6604(13)
C30 C 0.2724(15) 0.2934(19) 0.4355(15)
H18 H 0.2273 0.3054 0.4178
C31 C 0.4118(13) 0.347(2) 0.6590(14)
H19 H 0.4538 0.2968 0.6214
C32 C 0.152(2) 0.553(2) 0.7164(19)
H20 H 0.1544 0.59 0.7711
C33 C 0.0855(19) 0.577(3) 0.688(3)
H21 H 0.0426 0.6277 0.7238
C34 C 0.4168(19) 0.394(3) 0.7401(19)
H22 H 0.4614 0.377 0.7575
C35 C 0.3373(18) 0.225(2) 0.3815(13)
H23 H 0.3343 0.1899 0.3267
C36 C 0.353(2) 0.467(2) 0.7960(14)
H24 H 0.3542 0.4993 0.8515
loop_
_geom_bond_atom_site_label_1
_geom_bond_atom_site_label_2
_geom_bond_site_symmetry_1
_geom_bond_site_symmetry_2
Ni1 N3 1_555 1_555
S1 C2 1_555 1_555
S2 C1 1_555 1_555
S3 C3 1_555 1_555
N1 C2 1_555 1_555
N2 C1 1_555 1_555
N3 C3 1_555 1_555
N4 Ni1 1_555 1_555
N5 Ni1 1_555 1_555
O1 C10 1_555 1_555
O2 H1 1_555 1_555
C4 O3 1_555 1_555
O3 H2 1_555 1_555
O4 C4 1_555 1_555
C5 H3 1_555 1_555
C6 C4 1_555 1_555
C7 H4 1_555 1_555
C8 H5 1_555 1_555
C9 C10 1_555 1_555
C10 O2 1_555 1_555
C11 C6 1_555 1_555
H6 C11 1_555 1_555
C12 N5 1_555 1_555
H7 C12 1_555 1_555
C13 H8 1_555 1_555
C14 N4 1_555 1_555
H9 C14 1_555 1_555
C15 N5 1_555 1_555
H10 C15 1_555 1_555
O5 C16 1_555 1_555
O6 H11 1_555 1_555
C16 O6 1_555 1_555
C17 C18 1_555 1_555
C18 C27 1_555 1_555
C19 C17 1_555 1_555
C20 C7 1_555 1_555
C21 C19 1_555 1_555
C22 H12 1_555 1_555
C23 C17 1_555 1_555
H13 C23 1_555 1_555
C24 C21 1_555 1_555
H14 C24 1_555 1_555
C25 H15 1_555 1_555
C26 N4 1_555 1_555
H16 C26 1_555 1_555
C27 C25 1_555 1_555
C28 C23 1_555 1_555
H17 C28 1_555 1_555
C29 C21 1_555 1_555
C30 C19 1_555 1_555
H18 C30 1_555 1_555
C31 C18 1_555 1_555
H19 C31 1_555 1_555
C32 C29 1_555 1_555
H20 C32 1_555 1_555
C33 C22 1_555 1_555
H21 C33 1_555 1_555
C34 C31 1_555 1_555
H22 C34 1_555 1_555
C35 C28 1_555 1_555
H23 C35 1_555 1_555
C36 C25 1_555 1_555
H24 C36 1_555 1_555
Ni2 S1 1_555 1_555
Ni3 S2 1_555 1_555
Ni4 S3 1_555 1_555
S4 Ni1 1_555 1_555
S5 Ni1 1_555 1_555
S6 C39 1_555 1_555
N6 Ni3 1_555 1_555
N7 C47 1_555 1_555
C37 O9 1_555 1_555
N8 Ni2 1_555 1_555
O7 H25 1_555 1_555
N9 Ni4 1_555 1_555
C38 N8 1_555 1_555
H26 C38 1_555 1_555
O8 C42 1_555 1_555
N10 Ni1 1_555 1_555
O9 H27 1_555 1_555
O10 C37 1_555 1_555
C39 N10 1_555 1_555
C40 H28 1_555 1_555
C41 C37 1_555 1_555
C42 O7 1_555 1_555
N11 Ni4 1_555 1_555
C43 C42 1_555 1_555
C44 N6 1_555 1_555
H29 C44 1_555 1_555
O11 H30 1_555 1_555
C45 H31 1_555 1_555
N12 Ni4 1_555 1_555
C46 S4 1_555 1_555
C47 S5 1_555 1_555
C48 C13 1_555 1_555
C49 C43 1_555 1_555
H32 C49 1_555 1_555
C50 N8 1_555 1_555
H33 C50 1_555 1_555
C51 N12 1_555 1_555
H34 C51 1_555 1_555
C52 C38 1_555 1_555
H35 C52 1_555 1_555
C53 O11 1_555 1_555
C54 N11 1_555 1_555
H36 C54 1_555 1_555
C55 C43 1_555 1_555
H37 C55 1_555 1_555
C56 N12 1_555 1_555
H38 C56 1_555 1_555
C57 N6 1_555 1_555
H39 C57 1_555 1_555
O12 C53 1_555 1_555
C58 C13 1_555 1_555
H40 C58 1_555 1_555
C59 C9 1_555 1_555
H41 C59 1_555 1_555
C60 C9 1_555 1_555
H42 C60 1_555 1_555
S1A Ni2 1_555 1_555
S2A C1A 1_555 1_555
S2A_2 Ni3 1_555 1_555
N1A C2A 1_555 1_555
N1A_2 Ni3 1_555 1_555
N2A Ni2 1_555 1_555
C1A N2A 1_555 1_555
C2A S1A 1_555 1_555
Ni3_2 S2A 1_555 1_555
Ni4_2 S6 1_555 1_555
S6_2 Ni4 1_555 1_555
N6A Ni3 1_555 1_555
N7_2 Ni4 1_555 1_555
C37A O9A 1_555 1_555
N8A Ni2 1_555 1_555
O7A H25A 1_555 1_555
C38A N8A 1_555 1_555
H26A C38A 1_555 1_555
O8A C42A 1_555 1_555
O9A H27A 1_555 1_555
O10A C37A 1_555 1_555
C40A H28A 1_555 1_555
C41A C37A 1_555 1_555
C42A O7A 1_555 1_555
C43A C42A 1_555 1_555
C44A N6A 1_555 1_555
H29A C44A 1_555 1_555
C49A C43A 1_555 1_555
H32A C49A 1_555 1_555
C50A N8A 1_555 1_555
H33A C50A 1_555 1_555
C52A C38A 1_555 1_555
H35A C52A 1_555 1_555
C55A C43A 1_555 1_555
H37A C55A 1_555 1_555
C57A N6A 1_555 1_555
H39A C57A 1_555 1_555
N1 Ni3 1_555 1_555
N2 Ni2 1_555 1_555
C5 C6 1_555 1_555
C5 C12 1_555 1_555
C7 C26 1_555 1_555
C8 C14 1_555 1_555
C8 C20 1_555 1_555
C11 C15 1_555 1_555
C16 C20 1_555 1_555
C22 C24 1_555 1_555
C27 C29 1_555 1_555
C30 C35 1_555 1_555
C32 C33 1_555 1_555
C34 C36 1_555 1_555
N7 Ni4_2 1_555 1_555
N9 C46 1_555 1_555
C40 C41 1_555 1_555
C40 C50 1_555 1_555
C41 C52 1_555 1_555
N11 C58 1_555 1_555
C44 C49 1_555 1_555
C45 C48 1_555 1_555
C45 C54 1_555 1_555
C48 C53 1_555 1_555
C51 C59 1_555 1_555
C55 C57 1_555 1_555
C56 C60 1_555 1_555
N1A Ni3_2 1_555 1_555
C40A C41A 1_555 1_555
C40A C50A 1_555 1_555
C41A C52A 1_555 1_555
C44A C49A 1_555 1_555
C55A C57A 1_555 1_555

#END
