
#######################################################################
#
#                 Cambridge Crystallographic Data Centre
#                                CCDC 
#
#######################################################################
#
# If this CIF has been generated from an entry in the Cambridge 
# Structural Database, then it will include bibliographic, chemical, 
# crystal, experimental, refinement or atomic coordinate data resulting 
# from the CCDC's data processing and validation procedures.
#
#######################################################################

data_FARYAZ
_symmetry_cell_setting           triclinic
_symmetry_space_group_name_H-M   'P -1'
_symmetry_Int_Tables_number      2
_space_group_name_Hall           '-P 1'
loop_
_symmetry_equiv_pos_site_id
_symmetry_equiv_pos_as_xyz
1 x,y,z
2 -x,-y,-z
_cell_length_a                   14.4712(2)
_cell_length_b                   11.0881(4)
_cell_length_c                   16.6043(7)
_cell_angle_alpha                103.158(3)
_cell_angle_beta                 65.352(2)
_cell_angle_gamma                75.672(2)
_cell_volume                     2174.34
loop_
_atom_site_label
_atom_site_type_symbol
_atom_site_fract_x
_atom_site_fract_y
_atom_site_fract_z
C1 C 0.1968(5) 0.7938(6) 0.6273(4)
C2 C 0.1523(6) 0.8474(7) 0.7251(5)
H1 H 0.0791 0.907 0.764
C3 C 0.2162(9) 0.8129(8) 0.7651(5)
H2 H 0.1864 0.8516 0.8309
C4 C 0.3219(8) 0.7230(8) 0.7096(6)
H3 H 0.3646 0.7 0.7372
C5 C 0.3657(6) 0.6660(6) 0.6126(5)
H4 H 0.438 0.6033 0.5747
C6 C 0.3043(5) 0.7002(5) 0.5703(4)
C7 C 0.2667(5) 0.6318(6) 0.4188(4)
C8 C 0.2953(7) 0.5380(7) 0.3327(5)
H5 H 0.3659 0.4713 0.2956
C9 C 0.2207(9) 0.5417(9) 0.3010(6)
H6 H 0.2421 0.4806 0.2416
C10 C 0.1143(9) 0.6365(10) 0.3579(7)
H7 H 0.0635 0.6392 0.3372
C11 C 0.0838(7) 0.7263(9) 0.4448(6)
H8 H 0.0114 0.7882 0.4842
C12 C 0.1602(5) 0.7258(6) 0.4748(5)
S5 S 0.11647(15) 0.85966(19) 0.58043(13)
S6 S 0.37131(14) 0.63344(19) 0.44556(11)
C13 C 0.3871(3) 0.8162(4) -0.0781(3)
C14 C 0.1252(4) 1.4393(4) 0.0683(3)
C15 C 0.1273(3) 0.9241(4) 0.0248(3)
C16 C 0.3819(3) 1.3349(4) -0.0339(3)
C17 C 0.1958(4) 1.1734(5) -0.1580(4)
H9 H 0.1302 1.2337 -0.1032
C18 C 0.2036(4) 1.1567(5) -0.2455(4)
H10 H 0.1442 1.205 -0.2495
C19 C 0.3004(4) 1.0677(5) -0.3272(3)
C20 C 0.3870(4) 0.9995(5) -0.3186(3)
H11 H 0.4538 0.9398 -0.3724
C21 C 0.3720(4) 1.0223(5) -0.2279(3)
H12 H 0.4304 0.9761 -0.222
C22 C 0.3072(5) 1.0425(5) -0.4222(4)
C23 C 0.3508(4) 0.6725(5) 0.1267(3)
H13 H 0.4074 0.5934 0.0778
C24 C 0.3636(4) 0.7333(5) 0.2006(3)
H14 H 0.4281 0.6958 0.2013
C25 C 0.2809(4) 0.8495(5) 0.2737(3)
C26 C 0.1857(4) 0.8997(5) 0.2704(4)
H15 H 0.1273 0.9774 0.3194
C27 C 0.1784(4) 0.8339(5) 0.1943(4)
H16 H 0.1139 0.8681 0.1928
C28 C 0.2943(5) 0.9180(5) 0.3534(3)
C29 C 0.1522(4) 0.5874(5) -0.1251(3)
H17 H 0.0896 0.6528 -0.0699
C30 C 0.1458(4) 0.5431(5) -0.2064(3)
H18 H 0.0796 0.5763 -0.2055
C31 C 0.2385(4) 0.4493(5) -0.2888(3)
C32 C 0.3342(4) 0.3984(5) -0.2861(4)
H19 H 0.3979 0.3332 -0.3404
C33 C 0.3332(4) 0.4455(5) -0.2027(3)
H20 H 0.3975 0.4102 -0.2011
C34 C 0.2362(5) 0.4066(5) -0.3793(4)
C35 C 0.3253(4) 1.1025(5) 0.1355(4)
H21 H 0.39 1.0404 0.0806
C36 C 0.3262(4) 1.1380(5) 0.2192(4)
H22 H 0.3904 1.102 0.2208
C37 C 0.2303(4) 1.2283(5) 0.3017(3)
C38 C 0.1358(4) 1.2754(5) 0.2967(4)
H23 H 0.0692 1.3334 0.3514
C39 C 0.1426(4) 1.2347(5) 0.2091(3)
H24 H 0.0788 1.266 0.2059
C40 C 0.2327(5) 1.2778(5) 0.3918(4)
N1 N 0.3550(3) 0.9307(4) -0.0600(3)
N2 N 0.1571(3) 1.3240(4) 0.0422(3)
N3 N 0.1576(3) 0.8140(4) 0.0174(3)
N4 N 0.3499(3) 1.4468(3) -0.0199(3)
N5 N 0.2786(3) 1.1065(4) -0.1486(3)
N6 N 0.2601(3) 0.7226(4) 0.1222(3)
N7 N 0.2440(3) 0.5406(4) -0.1222(3)
N8 N 0.2364(3) 1.1523(4) 0.1282(3)
O1 O 0.2244(4) 1.1081(4) -0.4240(3)
O2 O 0.3951(3) 0.9522(4) -0.4940(3)
H25 H 0.391 0.9459 -0.5425
O3 O 0.2105(3) 1.0187(4) 0.4224(3)
H26 H 0.2258 1.0496 0.4628
O4 O 0.3852(3) 0.8730(4) 0.3491(3)
O5 O 0.3276(3) 0.3276(4) -0.4536(3)
H27 H 0.3185 0.3095 -0.4998
O6 O 0.1476(3) 0.4510(4) -0.3779(3)
O7 O 0.3229(3) 1.2379(4) 0.3892(3)
O8 O 0.1411(3) 1.3593(4) 0.4653(3)
H28 H 0.1502 1.3811 0.5113
S1 S 0.43034(10) 0.65342(11) -0.10347(9)
S2 S 0.07973(10) 1.60391(11) 0.10676(9)
S3 S 0.08498(10) 1.08146(11) 0.03467(9)
S4 S 0.42848(10) 1.17348(11) -0.05632(11)
Ni1 Ni 0.25603(5) 1.12662(5) -0.01029(4)
Ni2 Ni 0.25212(5) 0.63067(5) 0.00064(4)
N4_2 N 0.3499(3) 0.4468(3) -0.0199(3)
S2_2 S 0.07973(10) 0.60391(11) 0.10676(9)
Ni2_2 Ni 0.25212(5) 1.63067(5) 0.00064(4)
loop_
_geom_bond_atom_site_label_1
_geom_bond_atom_site_label_2
_geom_bond_site_symmetry_1
_geom_bond_site_symmetry_2
C1 C2 1_555 1_555
C2 H1 1_555 1_555
C3 C2 1_555 1_555
H2 C3 1_555 1_555
C4 C3 1_555 1_555
H3 C4 1_555 1_555
C5 C4 1_555 1_555
H4 C5 1_555 1_555
C6 C1 1_555 1_555
C7 C8 1_555 1_555
C8 H5 1_555 1_555
C9 C8 1_555 1_555
H6 C9 1_555 1_555
C10 C9 1_555 1_555
H7 C10 1_555 1_555
C11 C10 1_555 1_555
H8 C11 1_555 1_555
C12 C7 1_555 1_555
C13 N1 1_555 1_555
C14 N2 1_555 1_555
C15 N3 1_555 1_555
C16 N4 1_555 1_555
C17 H9 1_555 1_555
C18 C17 1_555 1_555
H10 C18 1_555 1_555
C19 C18 1_555 1_555
C20 C19 1_555 1_555
H11 C20 1_555 1_555
C21 C20 1_555 1_555
H12 C21 1_555 1_555
C22 C19 1_555 1_555
C23 H13 1_555 1_555
C24 C23 1_555 1_555
H14 C24 1_555 1_555
C25 C24 1_555 1_555
C26 C25 1_555 1_555
H15 C26 1_555 1_555
C27 C26 1_555 1_555
H16 C27 1_555 1_555
C28 C25 1_555 1_555
C29 H17 1_555 1_555
C30 C29 1_555 1_555
H18 C30 1_555 1_555
C31 C30 1_555 1_555
C32 C31 1_555 1_555
H19 C32 1_555 1_555
C33 C32 1_555 1_555
H20 C33 1_555 1_555
C34 C31 1_555 1_555
C35 H21 1_555 1_555
C36 C35 1_555 1_555
H22 C36 1_555 1_555
C37 C36 1_555 1_555
C38 C37 1_555 1_555
H23 C38 1_555 1_555
C39 C38 1_555 1_555
H24 C39 1_555 1_555
C40 C37 1_555 1_555
N1 Ni1 1_555 1_555
N2 Ni1 1_555 1_555
N3 Ni2 1_555 1_555
N4 Ni2_2 1_555 1_555
N5 C17 1_555 1_555
N6 C23 1_555 1_555
N7 C29 1_555 1_555
N8 C35 1_555 1_555
O1 C22 1_555 1_555
O2 C22 1_555 1_555
H25 O2 1_555 1_555
O3 C28 1_555 1_555
H26 O3 1_555 1_555
O4 C28 1_555 1_555
O5 C34 1_555 1_555
H27 O5 1_555 1_555
O6 C34 1_555 1_555
O7 C40 1_555 1_555
O8 C40 1_555 1_555
H28 O8 1_555 1_555
S1 C13 1_555 1_555
S2 C14 1_555 1_555
S3 C15 1_555 1_555
S4 C16 1_555 1_555
S5 C1 1_555 1_555
S6 C6 1_555 1_555
Ni1 N5 1_555 1_555
Ni2 N6 1_555 1_555
N4_2 Ni2 1_555 1_555
S2_2 Ni2 1_555 1_555
Ni2_2 S2 1_555 1_555
C5 C6 1_555 1_555
C7 S6 1_555 1_555
C11 C12 1_555 1_555
C12 S5 1_555 1_555
C21 N5 1_555 1_555
C27 N6 1_555 1_555
C33 N7 1_555 1_555
C39 N8 1_555 1_555
N7 Ni2 1_555 1_555
N8 Ni1 1_555 1_555
S1 Ni2 1_555 1_555
S3 Ni1 1_555 1_555
S4 Ni1 1_555 1_555

#END
