
#######################################################################
#
#                 Cambridge Crystallographic Data Centre
#                                CCDC 
#
#######################################################################
#
# If this CIF has been generated from an entry in the Cambridge 
# Structural Database, then it will include bibliographic, chemical, 
# crystal, experimental, refinement or atomic coordinate data resulting 
# from the CCDC's data processing and validation procedures.
#
#######################################################################

data_FARYED
_symmetry_cell_setting           triclinic
_symmetry_space_group_name_H-M   'P -1'
_symmetry_Int_Tables_number      2
_space_group_name_Hall           '-P 1'
loop_
_symmetry_equiv_pos_site_id
_symmetry_equiv_pos_as_xyz
1 x,y,z
2 -x,-y,-z
_cell_length_a                   14.8275(7)
_cell_length_b                   11.0772(4)
_cell_length_c                   16.5228(10)
_cell_angle_alpha                101.697(4)
_cell_angle_beta                 64.114(5)
_cell_angle_gamma                74.884(3)
_cell_volume                     2194.89
loop_
_atom_site_label
_atom_site_type_symbol
_atom_site_fract_x
_atom_site_fract_y
_atom_site_fract_z
C1 C 0.3713(5) 0.0677(6) -0.0260(4)
C2 C 0.1130(5) 0.1804(6) 0.0791(4)
C3 C 0.1178(5) 0.6627(6) 0.0345(4)
C4 C 0.3745(5) 0.5524(6) -0.0695(4)
C5 C 0.3450(6) 0.4029(7) 0.1254(5)
H1 H 0.407 0.336 0.0701
C6 C 0.3504(6) 0.4489(7) 0.2062(5)
H2 H 0.4152 0.4131 0.2052
C7 C 0.2613(6) 0.5465(7) 0.2872(5)
C8 C 0.1670(6) 0.5990(7) 0.2859(5)
H3 H 0.105 0.6675 0.3402
C9 C 0.1657(6) 0.5487(7) 0.2029(5)
H4 H 0.1018 0.5838 0.2025
C10 C 0.2641(7) 0.5943(8) 0.3770(5)
C11 C 0.3200(6) 0.1677(7) -0.1956(5)
H5 H 0.3839 0.132 -0.1951
C12 C 0.3150(6) 0.1055(7) -0.2732(5)
H6 H 0.3741 0.0295 -0.3237
C13 C 0.2208(5) 0.1574(6) -0.2752(4)
C14 C 0.1360(5) 0.2717(7) -0.2004(5)
H7 H 0.0722 0.3099 -0.2003
C15 C 0.1488(5) 0.3281(6) -0.1251(5)
H8 H 0.092 0.4061 -0.0748
C16 C 0.2092(7) 0.0943(8) -0.3564(5)
C17 C 0.3035(6) -0.1809(7) 0.1578(5)
H9 H 0.3681 -0.2436 0.1026
C18 C 0.2968(6) -0.1597(7) 0.2452(5)
H10 H 0.3562 -0.2057 0.2489
C19 C 0.2011(6) -0.0696(7) 0.3272(5)
C20 C 0.1118(6) -0.0038(7) 0.3199(5)
H11 H 0.0452 0.0553 0.3747
C21 C 0.1259(6) -0.0296(7) 0.2289(5)
H12 H 0.0674 0.014 0.2233
C22 C 0.1958(7) -0.0371(8) 0.4217(5)
C23 C 0.3557(6) -0.2464(7) -0.2120(5)
H13 H 0.4177 -0.2839 -0.2093
C24 C 0.3619(6) -0.2845(7) -0.2993(5)
H14 H 0.4267 -0.3466 -0.3545
C25 C 0.2694(6) -0.2285(7) -0.3038(5)
C26 C 0.1773(6) -0.1321(8) -0.2226(5)
H15 H 0.1154 -0.0896 -0.2241
C27 C 0.1788(6) -0.0996(7) -0.1384(5)
H16 H 0.1164 -0.0329 -0.0834
C28 C 0.2700(6) -0.2754(7) -0.3957(6)
N1 N 0.3410(4) 0.1799(5) -0.0176(4)
N2 N 0.1460(4) 0.0642(5) 0.0589(4)
N3 N 0.1501(4) 0.5488(5) 0.0200(4)
N4 N 0.3414(4) 0.6694(5) -0.0421(4)
N5 N 0.2531(4) 0.4514(5) 0.1236(4)
N6 N 0.2388(4) 0.2761(5) -0.1211(4)
N7 N 0.2203(4) -0.1147(5) 0.1482(4)
N8 N 0.2644(5) -0.1580(5) -0.1309(4)
O1 O 0.3547(5) 0.5463(6) 0.3723(4)
H29 H 0.3472 0.5789 0.4252
O2 O 0.1768(5) 0.6808(6) 0.4515(4)
O3 O 0.2917(5) -0.0068(5) -0.4248(4)
H30 H 0.2783 -0.0348 -0.4664
O4 O 0.1200(5) 0.1411(6) -0.3530(4)
O5 O 0.1069(5) 0.0493(6) 0.4948(4)
H31 H 0.1125 0.0599 0.5428
O6 O 0.2810(5) -0.0966(6) 0.4220(4)
O7 O 0.3580(5) -0.3589(6) -0.4693(4)
O8 O 0.1797(5) -0.2272(6) -0.3916(4)
H32 H 0.1882 -0.2578 -0.4452
S1 S 0.41408(14) -0.09020(15) -0.03749(13)
S2 S 0.06925(14) 0.34304(16) 0.10695(13)
S3 S 0.07183(14) 0.82417(16) 0.05569(14)
S4 S 0.41826(14) 0.38956(16) -0.10752(13)
Ni1 Ni 0.24550(7) 0.36467(8) 0.00071(6)
Ni2 Ni 0.24360(7) -0.13268(8) 0.00899(6)
N4_2 N 0.3414(4) -0.3306(5) -0.0421(4)
S3_2 S 0.07183(14) -0.17583(16) 0.05569(14)
Ni2_2 Ni 0.24360(7) 0.86732(8) 0.00899(6)
C29 C 0.1774(13) 0.2691(13) 0.3005(11)
H17 H 0.1326 0.289 0.2752
C30 C 0.2824(14) 0.1769(12) 0.2411(9)
H18 H 0.3089 0.1325 0.1761
C31 C 0.3475(10) 0.1511(11) 0.2784(7)
H19 H 0.4192 0.0885 0.238
C32 C 0.3102(8) 0.2157(9) 0.3756(6)
C33 C 0.2039(8) 0.3082(9) 0.4335(7)
C34 C 0.1375(11) 0.3317(11) 0.3949(9)
H20 H 0.0647 0.3913 0.4347
C35 C 0.1573(8) 0.3823(10) 0.5377(7)
H21 H 0.1054 0.3484 0.5749
H22 H 0.1168 0.4761 0.5528
C36 C 0.2373(8) 0.3746(9) 0.5712(6)
C37 C 0.2065(10) 0.4586(11) 0.6594(7)
H23 H 0.1357 0.5238 0.6985
C38 C 0.2784(15) 0.4489(14) 0.6918(9)
H24 H 0.2544 0.5059 0.7533
C39 C 0.3839(14) 0.3577(16) 0.6359(12)
H25 H 0.4327 0.3533 0.6573
C40 C 0.4153(10) 0.2731(12) 0.5472(9)
H26 H 0.4865 0.2088 0.5087
C41 C 0.3450(9) 0.2790(10) 0.5121(7)
C42 C 0.3835(8) 0.1843(10) 0.4162(7)
H27 H 0.3937 0.0957 0.4196
H28 H 0.4545 0.1802 0.3712
loop_
_geom_bond_atom_site_label_1
_geom_bond_atom_site_label_2
_geom_bond_site_symmetry_1
_geom_bond_site_symmetry_2
C1 N1 1_555 1_555
C2 N2 1_555 1_555
C3 N3 1_555 1_555
C4 N4 1_555 1_555
C5 H1 1_555 1_555
C6 C5 1_555 1_555
H2 C6 1_555 1_555
C7 C6 1_555 1_555
C8 C7 1_555 1_555
H3 C8 1_555 1_555
C9 C8 1_555 1_555
H4 C9 1_555 1_555
C10 C7 1_555 1_555
C11 H5 1_555 1_555
C12 C11 1_555 1_555
H6 C12 1_555 1_555
C13 C12 1_555 1_555
C14 C13 1_555 1_555
H7 C14 1_555 1_555
C15 C14 1_555 1_555
H8 C15 1_555 1_555
C16 C13 1_555 1_555
C17 H9 1_555 1_555
C18 C17 1_555 1_555
H10 C18 1_555 1_555
C19 C18 1_555 1_555
C20 C19 1_555 1_555
H11 C20 1_555 1_555
C21 C20 1_555 1_555
H12 C21 1_555 1_555
C22 C19 1_555 1_555
C23 H13 1_555 1_555
C24 C23 1_555 1_555
H14 C24 1_555 1_555
C25 C24 1_555 1_555
C26 C25 1_555 1_555
H15 C26 1_555 1_555
C27 C26 1_555 1_555
H16 C27 1_555 1_555
C28 C25 1_555 1_555
C29 H17 1_555 1_555
C30 C29 1_555 1_555
H18 C30 1_555 1_555
C31 C30 1_555 1_555
H19 C31 1_555 1_555
C32 C31 1_555 1_555
C33 C32 1_555 1_555
C34 C29 1_555 1_555
H20 C34 1_555 1_555
C35 C33 1_555 1_555
H21 C35 1_555 1_555
H22 C35 1_555 1_555
C36 C35 1_555 1_555
C37 C36 1_555 1_555
H23 C37 1_555 1_555
C38 C37 1_555 1_555
H24 C38 1_555 1_555
C39 C38 1_555 1_555
H25 C39 1_555 1_555
C40 C39 1_555 1_555
H26 C40 1_555 1_555
C41 C36 1_555 1_555
C42 C32 1_555 1_555
H27 C42 1_555 1_555
H28 C42 1_555 1_555
N1 Ni1 1_555 1_555
N2 Ni2 1_555 1_555
N3 Ni1 1_555 1_555
N4 Ni2_2 1_555 1_555
N5 C5 1_555 1_555
N6 C11 1_555 1_555
N7 C17 1_555 1_555
N8 C23 1_555 1_555
O1 C10 1_555 1_555
H29 O1 1_555 1_555
O2 C10 1_555 1_555
O3 C16 1_555 1_555
H30 O3 1_555 1_555
O4 C16 1_555 1_555
O5 C22 1_555 1_555
H31 O5 1_555 1_555
O6 C22 1_555 1_555
O7 C28 1_555 1_555
O8 C28 1_555 1_555
H32 O8 1_555 1_555
S1 C1 1_555 1_555
S2 C2 1_555 1_555
S3 C3 1_555 1_555
S4 C4 1_555 1_555
Ni1 N5 1_555 1_555
Ni2 N7 1_555 1_555
N4_2 Ni2 1_555 1_555
S3_2 Ni2 1_555 1_555
Ni2_2 S3 1_555 1_555
C9 N5 1_555 1_555
C15 N6 1_555 1_555
C21 N7 1_555 1_555
C27 N8 1_555 1_555
C33 C34 1_555 1_555
C40 C41 1_555 1_555
C41 C42 1_555 1_555
N6 Ni1 1_555 1_555
N8 Ni2 1_555 1_555
S1 Ni2 1_555 1_555
S2 Ni1 1_555 1_555
S4 Ni1 1_555 1_555

#END
