
#######################################################################
#
#                 Cambridge Crystallographic Data Centre
#                                CCDC 
#
#######################################################################
#
# If this CIF has been generated from an entry in the Cambridge 
# Structural Database, then it will include bibliographic, chemical, 
# crystal, experimental, refinement or atomic coordinate data resulting 
# from the CCDC's data processing and validation procedures.
#
#######################################################################

data_FARZII
_symmetry_cell_setting           triclinic
_symmetry_space_group_name_H-M   'P -1'
_symmetry_Int_Tables_number      2
_space_group_name_Hall           '-P 1'
loop_
_symmetry_equiv_pos_site_id
_symmetry_equiv_pos_as_xyz
1 x,y,z
2 -x,-y,-z
_cell_length_a                   7.5181(7)
_cell_length_b                   11.0616(8)
_cell_length_c                   16.8055(13)
_cell_angle_alpha                104.147(3)
_cell_angle_beta                 51.741(3)
_cell_angle_gamma                98.910(6)
_cell_volume                     1064.12
loop_
_atom_site_label
_atom_site_type_symbol
_atom_site_fract_x
_atom_site_fract_y
_atom_site_fract_z
C1 C -0.2740(11) 0.2486(7) 0.0879(5)
C2 C 0.2545(11) 0.2673(7) -0.0395(6)
C3 C 0.1200(15) -0.0161(9) 0.1395(7)
H1 H 0.2534 -0.0475 0.0761
C4 C 0.1112(16) 0.0089(10) 0.2254(7)
H2 H 0.2369 -0.0051 0.2204
C5 C -0.0856(15) 0.0548(9) 0.3196(7)
C6 C -0.2741(15) 0.0680(9) 0.3245(7)
H3 H -0.4128 0.0936 0.3874
C7 C -0.2496(14) 0.0425(8) 0.2356(6)
H4 H -0.3747 0.0531 0.2391
C8 C -0.0881(16) 0.0939(9) 0.4107(7)
C9 C -0.1854(13) 0.4204(8) -0.1199(7)
H5 H -0.308 0.4655 -0.0595
C10 C -0.2018(14) 0.3662(8) -0.1992(7)
H6 H -0.3322 0.3752 -0.1921
C11 C -0.0202(14) 0.2990(8) -0.2885(6)
C12 C 0.1723(15) 0.2856(8) -0.2976(7)
H7 H 0.2962 0.2403 -0.3571
C13 C 0.1724(15) 0.3433(9) -0.2134(7)
H8 H 0.2996 0.3344 -0.2179
C14 C -0.0353(16) 0.2396(9) -0.3744(7)
N1 N -0.2076(11) 0.1496(6) 0.0672(5)
N2 N 0.1921(11) 0.3616(6) -0.0311(5)
N3 N -0.0013(10) 0.4103(6) -0.1269(5)
N4 N -0.0582(11) 0.0033(6) 0.1431(5)
O1 O 0.0976(13) 0.0884(9) 0.3967(6)
O2 O -0.2716(12) 0.1304(8) 0.4979(5)
H9 H -0.2501 0.1494 0.5417
O3 O -0.2183(12) 0.2448(8) -0.3599(6)
O4 O 0.1423(13) 0.1850(8) -0.4581(6)
H10 H 0.1166 0.1551 -0.4997
S1 S -0.3665(3) 0.38910(18) 0.11781(16)
S2 S 0.3444(3) 0.13314(19) -0.0526(2)
Ni1 Ni 0.0000 0.00000 0.00000
Ni2 Ni 0.0000 0.50000 0.00000
C1A C 0.2740(11) -0.2486(7) -0.0879(5)
C2A C -0.2545(11) -0.2673(7) 0.0395(6)
C3A C -0.1200(15) 0.0161(9) -0.1395(7)
H1A H -0.2534 0.0475 -0.0761
C4A C -0.1112(16) -0.0089(10) -0.2254(7)
H2A H -0.2369 0.0051 -0.2204
C5A C 0.0856(15) -0.0548(9) -0.3196(7)
C6A C 0.2741(15) -0.0680(9) -0.3245(7)
H3A H 0.4128 -0.0936 -0.3874
C7A C 0.2496(14) -0.0425(8) -0.2356(6)
H4A H 0.3747 -0.0531 -0.2391
C8A C 0.0881(16) -0.0939(9) -0.4107(7)
C9A C 0.1854(13) 0.5796(8) 0.1199(7)
H5A H 0.308 0.5345 0.0595
C10A C 0.2018(14) 0.6338(8) 0.1992(7)
H6A H 0.3322 0.6248 0.1921
C11A C 0.0202(14) 0.7010(8) 0.2885(6)
C12A C -0.1723(15) 0.7144(8) 0.2976(7)
H7A H -0.2962 0.7597 0.3571
C13A C -0.1724(15) 0.6567(9) 0.2134(7)
H8A H -0.2996 0.6656 0.2179
C14A C 0.0353(16) 0.7604(9) 0.3744(7)
N1A N 0.2076(11) -0.1496(6) -0.0672(5)
N2A N -0.1921(11) -0.3616(6) 0.0311(5)
N2A_2 N -0.1921(11) 0.6384(6) 0.0311(5)
N3A N 0.0013(10) 0.5897(6) 0.1269(5)
N4A N 0.0582(11) -0.0033(6) -0.1431(5)
O1A O -0.0976(13) -0.0884(9) -0.3967(6)
O2A O 0.2716(12) -0.1304(8) -0.4979(5)
H9A H 0.2501 -0.1494 -0.5417
O3A O 0.2183(12) 0.7552(8) 0.3599(6)
O4A O -0.1423(13) 0.8150(8) 0.4581(6)
H10A H -0.1166 0.8449 0.4997
S1A S 0.3665(3) -0.38910(18) -0.11781(16)
S1A_2 S 0.3665(3) 0.61090(18) -0.11781(16)
S2A S -0.3444(3) -0.13314(19) 0.0526(2)
Ni2_2 Ni 0.0000 -0.50000 0.00000
loop_
_geom_bond_atom_site_label_1
_geom_bond_atom_site_label_2
_geom_bond_site_symmetry_1
_geom_bond_site_symmetry_2
C1 N1 1_555 1_555
C2 N2 1_555 1_555
C3 H1 1_555 1_555
C4 C3 1_555 1_555
H2 C4 1_555 1_555
C5 C4 1_555 1_555
C6 C5 1_555 1_555
H3 C6 1_555 1_555
C7 C6 1_555 1_555
H4 C7 1_555 1_555
C8 C5 1_555 1_555
C9 H5 1_555 1_555
C10 C9 1_555 1_555
H6 C10 1_555 1_555
C11 C10 1_555 1_555
C12 C11 1_555 1_555
H7 C12 1_555 1_555
C13 C12 1_555 1_555
H8 C13 1_555 1_555
C14 C11 1_555 1_555
N1 Ni1 1_555 1_555
N2 Ni2 1_555 1_555
N3 C9 1_555 1_555
N4 C3 1_555 1_555
O1 C8 1_555 1_555
O2 C8 1_555 1_555
H9 O2 1_555 1_555
O3 C14 1_555 1_555
O4 C14 1_555 1_555
H10 O4 1_555 1_555
S1 C1 1_555 1_555
S2 C2 1_555 1_555
Ni1 N4 1_555 1_555
Ni2 N3 1_555 1_555
C1A N1A 1_555 1_555
C2A N2A 1_555 1_555
C3A H1A 1_555 1_555
C4A C3A 1_555 1_555
H2A C4A 1_555 1_555
C5A C4A 1_555 1_555
C6A C5A 1_555 1_555
H3A C6A 1_555 1_555
C7A C6A 1_555 1_555
H4A C7A 1_555 1_555
C8A C5A 1_555 1_555
C9A H5A 1_555 1_555
C10A C9A 1_555 1_555
H6A C10A 1_555 1_555
C11A C10A 1_555 1_555
C12A C11A 1_555 1_555
H7A C12A 1_555 1_555
C13A C12A 1_555 1_555
H8A C13A 1_555 1_555
C14A C11A 1_555 1_555
N1A Ni1 1_555 1_555
N2A Ni2_2 1_555 1_555
N2A_2 Ni2 1_555 1_555
N3A Ni2 1_555 1_555
N4A Ni1 1_555 1_555
O1A C8A 1_555 1_555
O2A C8A 1_555 1_555
H9A O2A 1_555 1_555
O3A C14A 1_555 1_555
O4A C14A 1_555 1_555
H10A O4A 1_555 1_555
S1A C1A 1_555 1_555
S1A_2 Ni2 1_555 1_555
S2A Ni1 1_555 1_555
Ni2_2 S1A 1_555 1_555
C7 N4 1_555 1_555
C13 N3 1_555 1_555
S1 Ni2 1_555 1_555
S2 Ni1 1_555 1_555
C2A S2A 1_555 1_555
C3A N4A 1_555 1_555
C7A N4A 1_555 1_555
C9A N3A 1_555 1_555
C13A N3A 1_555 1_555

#END
