
#######################################################################
#
#                 Cambridge Crystallographic Data Centre
#                                CCDC 
#
#######################################################################
#
# If this CIF has been generated from an entry in the Cambridge 
# Structural Database, then it will include bibliographic, chemical, 
# crystal, experimental, refinement or atomic coordinate data resulting 
# from the CCDC's data processing and validation procedures.
#
#######################################################################

data_FARZEE
_symmetry_cell_setting           triclinic
_symmetry_space_group_name_H-M   'P -1'
_symmetry_Int_Tables_number      2
_space_group_name_Hall           '-P 1'
loop_
_symmetry_equiv_pos_site_id
_symmetry_equiv_pos_as_xyz
1 x,y,z
2 -x,-y,-z
_cell_length_a                   7.1699(8)
_cell_length_b                   11.1246(7)
_cell_length_c                   16.4395(10)
_cell_angle_alpha                101.177(4)
_cell_angle_beta                 52.427(3)
_cell_angle_gamma                100.679(6)
_cell_volume                     1015.75
loop_
_atom_site_label
_atom_site_type_symbol
_atom_site_fract_x
_atom_site_fract_y
_atom_site_fract_z
C1 C 0.2647(13) 0.2741(6) -0.0409(5)
C2 C 0.1318(16) 0.0005(9) 0.1418(6)
H1 H 0.2674 -0.0277 0.0797
C3 C 0.1301(16) 0.0260(9) 0.2279(6)
H2 H 0.2625 0.0176 0.2237
C4 C -0.0742(14) 0.0644(7) 0.3204(6)
C5 C -0.2653(15) 0.0750(9) 0.3236(6)
H3 H -0.4045 0.1002 0.3855
C6 C -0.2509(15) 0.0485(9) 0.2348(6)
H4 H -0.3827 0.0542 0.2377
C7 C -0.0745(16) 0.1014(8) 0.4116(6)
C8 C -0.1627(15) 0.4365(8) -0.1351(6)
H5 H -0.278 0.4876 -0.0827
C9 C -0.1808(14) 0.3808(9) -0.2113(6)
H6 H -0.3064 0.3934 -0.2106
C10 C -0.0091(14) 0.3046(7) -0.2905(6)
C11 C 0.1791(16) 0.2915(8) -0.2905(6)
H7 H 0.3001 0.2437 -0.3436
C12 C 0.1826(15) 0.3512(8) -0.2098(6)
H8 H 0.3085 0.3423 -0.2094
C13 C -0.0286(16) 0.2405(8) -0.3729(6)
N1 N 0.1958(11) 0.3681(5) -0.0259(5)
N2 N -0.0495(11) 0.0142(6) 0.1434(5)
N3 N 0.0134(11) 0.4213(6) -0.1319(5)
O1 O -0.2608(11) 0.1361(8) 0.4959(5)
O2 O 0.1175(12) 0.0954(7) 0.3987(5)
H9 H 0.1 0.1177 0.4534
O3 O -0.2183(12) 0.2490(7) -0.3608(5)
H10 H -0.213 0.2109 -0.41
O4 O 0.1424(12) 0.1831(7) -0.4493(5)
S1 S 0.3673(4) 0.14153(17) -0.06759(18)
C14 C -0.2879(12) 0.2335(6) 0.0798(5)
N4 N -0.2133(11) 0.1392(5) 0.0566(5)
S2 S -0.3870(4) 0.36969(18) 0.11055(18)
Ni1 Ni 0.0000 0.00000 0.00000
Ni2 Ni 0.0000 0.50000 0.00000
C1A C -0.2647(13) -0.2741(6) 0.0409(5)
C2A C -0.1318(16) -0.0005(9) -0.1418(6)
H1A H -0.2674 0.0277 -0.0797
C3A C -0.1301(16) -0.0260(9) -0.2279(6)
H2A H -0.2625 -0.0176 -0.2237
C4A C 0.0742(14) -0.0644(7) -0.3204(6)
C5A C 0.2653(15) -0.0750(9) -0.3236(6)
H3A H 0.4045 -0.1002 -0.3855
C6A C 0.2509(15) -0.0485(9) -0.2348(6)
H4A H 0.3827 -0.0542 -0.2377
C7A C 0.0745(16) -0.1014(8) -0.4116(6)
C8A C 0.1627(15) 0.5635(8) 0.1351(6)
H5A H 0.278 0.5124 0.0827
C9A C 0.1808(14) 0.6192(9) 0.2113(6)
H6A H 0.3064 0.6066 0.2106
C10A C 0.0091(14) 0.6954(7) 0.2905(6)
C11A C -0.1791(16) 0.7085(8) 0.2905(6)
H7A H -0.3001 0.7563 0.3436
C12A C -0.1826(15) 0.6488(8) 0.2098(6)
H8A H -0.3085 0.6577 0.2094
C13A C 0.0286(16) 0.7595(8) 0.3729(6)
N1A N -0.1958(11) -0.3681(5) 0.0259(5)
N1A_2 N -0.1958(11) 0.6319(5) 0.0259(5)
N2A N 0.0495(11) -0.0142(6) -0.1434(5)
N3A N -0.0134(11) 0.5787(6) 0.1319(5)
O1A O 0.2608(11) -0.1361(8) -0.4959(5)
O2A O -0.1175(12) -0.0954(7) -0.3987(5)
H9A H -0.1 -0.1177 -0.4534
O3A O 0.2183(12) 0.7510(7) 0.3608(5)
H10A H 0.213 0.7891 0.41
O4A O -0.1424(12) 0.8169(7) 0.4493(5)
S1A S -0.3673(4) -0.14153(17) 0.06759(18)
C14A C 0.2879(12) -0.2335(6) -0.0798(5)
N4A N 0.2133(11) -0.1392(5) -0.0566(5)
S2A S 0.3870(4) -0.36969(18) -0.11055(18)
S2A_2 S 0.3870(4) 0.63031(18) -0.11055(18)
Ni2_2 Ni 0.0000 -0.50000 0.00000
loop_
_geom_bond_atom_site_label_1
_geom_bond_atom_site_label_2
_geom_bond_site_symmetry_1
_geom_bond_site_symmetry_2
C1 N1 1_555 1_555
C2 H1 1_555 1_555
C3 C2 1_555 1_555
H2 C3 1_555 1_555
C4 C3 1_555 1_555
C5 C4 1_555 1_555
H3 C5 1_555 1_555
C6 C5 1_555 1_555
H4 C6 1_555 1_555
C7 C4 1_555 1_555
C8 H5 1_555 1_555
C9 C8 1_555 1_555
H6 C9 1_555 1_555
C10 C9 1_555 1_555
C11 C10 1_555 1_555
H7 C11 1_555 1_555
C12 C11 1_555 1_555
H8 C12 1_555 1_555
C13 C10 1_555 1_555
N1 Ni2 1_555 1_555
N2 C2 1_555 1_555
N3 C8 1_555 1_555
O1 C7 1_555 1_555
O2 C7 1_555 1_555
H9 O2 1_555 1_555
O3 C13 1_555 1_555
H10 O3 1_555 1_555
O4 C13 1_555 1_555
S1 C1 1_555 1_555
C14 N4 1_555 1_555
N4 Ni1 1_555 1_555
S2 C14 1_555 1_555
Ni1 N2 1_555 1_555
Ni2 N3 1_555 1_555
C1A N1A 1_555 1_555
C2A H1A 1_555 1_555
C3A C2A 1_555 1_555
H2A C3A 1_555 1_555
C4A C3A 1_555 1_555
C5A C4A 1_555 1_555
H3A C5A 1_555 1_555
C6A C5A 1_555 1_555
H4A C6A 1_555 1_555
C7A C4A 1_555 1_555
C8A H5A 1_555 1_555
C9A C8A 1_555 1_555
H6A C9A 1_555 1_555
C10A C9A 1_555 1_555
C11A C10A 1_555 1_555
H7A C11A 1_555 1_555
C12A C11A 1_555 1_555
H8A C12A 1_555 1_555
C13A C10A 1_555 1_555
N1A Ni2_2 1_555 1_555
N1A_2 Ni2 1_555 1_555
N2A Ni1 1_555 1_555
N3A Ni2 1_555 1_555
O1A C7A 1_555 1_555
O2A C7A 1_555 1_555
H9A O2A 1_555 1_555
O3A C13A 1_555 1_555
H10A O3A 1_555 1_555
O4A C13A 1_555 1_555
S1A Ni1 1_555 1_555
C14A N4A 1_555 1_555
N4A Ni1 1_555 1_555
S2A C14A 1_555 1_555
S2A_2 Ni2 1_555 1_555
Ni2_2 S2A 1_555 1_555
C6 N2 1_555 1_555
C12 N3 1_555 1_555
S1 Ni1 1_555 1_555
S2 Ni2 1_555 1_555
C1A S1A 1_555 1_555
C2A N2A 1_555 1_555
C6A N2A 1_555 1_555
C8A N3A 1_555 1_555
C12A N3A 1_555 1_555

#END
