
#######################################################################
#
#                 Cambridge Crystallographic Data Centre
#                                CCDC 
#
#######################################################################
#
# If this CIF has been generated from an entry in the Cambridge 
# Structural Database, then it will include bibliographic, chemical, 
# crystal, experimental, refinement or atomic coordinate data resulting 
# from the CCDC's data processing and validation procedures.
#
#######################################################################

data_FARZOO
_symmetry_cell_setting           triclinic
_symmetry_space_group_name_H-M   'P -1'
_symmetry_Int_Tables_number      2
_space_group_name_Hall           '-P 1'
loop_
_symmetry_equiv_pos_site_id
_symmetry_equiv_pos_as_xyz
1 x,y,z
2 -x,-y,-z
_cell_length_a                   7.2428(5)
_cell_length_b                   11.0733(3)
_cell_length_c                   16.4650(5)
_cell_angle_alpha                100.343(3)
_cell_angle_beta                 50.698(3)
_cell_angle_gamma                100.469(2)
_cell_volume                     1001.22
loop_
_atom_site_label
_atom_site_type_symbol
_atom_site_fract_x
_atom_site_fract_y
_atom_site_fract_z
C1 C -0.2897(10) 0.2318(5) 0.0801(4)
C2 C 0.2689(10) 0.2748(5) -0.0473(4)
C3 C -0.2477(13) 0.0541(8) 0.2366(6)
H1 H -0.38 0.0604 0.2409
C4 C -0.2683(13) 0.0823(8) 0.3271(6)
H2 H -0.4105 0.1069 0.3907
C5 C -0.0695(12) 0.0726(6) 0.3203(5)
C6 C 0.1318(13) 0.0320(7) 0.2262(6)
H3 H 0.2659 0.0234 0.2199
C7 C 0.1343(13) 0.0040(7) 0.1410(5)
H4 H 0.2706 -0.0267 0.078
C8 C -0.0754(13) 0.1085(7) 0.4127(5)
C9 C -0.1542(12) 0.4453(6) -0.1369(6)
H5 H -0.2668 0.4992 -0.0847
C10 C -0.1729(12) 0.3905(6) -0.2134(5)
H6 H -0.2942 0.4077 -0.2132
C11 C -0.0074(12) 0.3090(6) -0.2910(5)
C12 C 0.1745(13) 0.2907(7) -0.2904(5)
H7 H 0.2913 0.2387 -0.3428
C13 C 0.1821(13) 0.3496(7) -0.2120(5)
H8 H 0.3068 0.3369 -0.2128
C14 C -0.0311(12) 0.2431(6) -0.3713(5)
N1 N -0.2158(9) 0.1375(4) 0.0573(4)
N2 N 0.1983(9) 0.3681(4) -0.0297(4)
N3 N -0.0487(9) 0.0185(5) 0.1436(4)
N4 N 0.0172(9) 0.4252(4) -0.1336(4)
O1 O -0.2609(10) 0.1444(6) 0.4992(4)
O2 O 0.1180(10) 0.0998(6) 0.3980(4)
H9 H 0.0988 0.1213 0.453
O3 O -0.2201(11) 0.2562(6) -0.3578(5)
H10 H -0.2172 0.2167 -0.4057
O4 O 0.1320(11) 0.1804(5) -0.4469(4)
S1 S -0.3939(3) 0.36705(14) 0.11422(15)
S2 S 0.3741(3) 0.14188(13) -0.07654(15)
Ni1 Ni 0.0000 0.00000 0.00000
Ni2 Ni 0.0000 0.50000 0.00000
C1A C 0.2897(10) -0.2318(5) -0.0801(4)
C2A C -0.2689(10) -0.2748(5) 0.0473(4)
C3A C 0.2477(13) -0.0541(8) -0.2366(6)
H1A H 0.38 -0.0604 -0.2409
C4A C 0.2683(13) -0.0823(8) -0.3271(6)
H2A H 0.4105 -0.1069 -0.3907
C5A C 0.0695(12) -0.0726(6) -0.3203(5)
C6A C -0.1318(13) -0.0320(7) -0.2262(6)
H3A H -0.2659 -0.0234 -0.2199
C7A C -0.1343(13) -0.0040(7) -0.1410(5)
H4A H -0.2706 0.0267 -0.078
C8A C 0.0754(13) -0.1085(7) -0.4127(5)
C9A C 0.1542(12) 0.5547(6) 0.1369(6)
H5A H 0.2668 0.5008 0.0847
C10A C 0.1729(12) 0.6095(6) 0.2134(5)
H6A H 0.2942 0.5923 0.2132
C11A C 0.0074(12) 0.6910(6) 0.2910(5)
C12A C -0.1745(13) 0.7093(7) 0.2904(5)
H7A H -0.2913 0.7613 0.3428
C13A C -0.1821(13) 0.6504(7) 0.2120(5)
H8A H -0.3068 0.6631 0.2128
C14A C 0.0311(12) 0.7569(6) 0.3713(5)
N1A N 0.2158(9) -0.1375(4) -0.0573(4)
N2A N -0.1983(9) -0.3681(4) 0.0297(4)
N2A_2 N -0.1983(9) 0.6319(4) 0.0297(4)
N3A N 0.0487(9) -0.0185(5) -0.1436(4)
N4A N -0.0172(9) 0.5748(4) 0.1336(4)
O1A O 0.2609(10) -0.1444(6) -0.4992(4)
O2A O -0.1180(10) -0.0998(6) -0.3980(4)
H9A H -0.0988 -0.1213 -0.453
O3A O 0.2201(11) 0.7438(6) 0.3578(5)
H10A H 0.2172 0.7833 0.4057
O4A O -0.1320(11) 0.8196(5) 0.4469(4)
S1A S 0.3939(3) -0.36705(14) -0.11422(15)
S1A_2 S 0.3939(3) 0.63295(14) -0.11422(15)
S2A S -0.3741(3) -0.14188(13) 0.07654(15)
Ni2_2 Ni 0.0000 -0.50000 0.00000
loop_
_geom_bond_atom_site_label_1
_geom_bond_atom_site_label_2
_geom_bond_site_symmetry_1
_geom_bond_site_symmetry_2
C1 N1 1_555 1_555
C2 N2 1_555 1_555
C3 H1 1_555 1_555
C4 C3 1_555 1_555
H2 C4 1_555 1_555
C5 C4 1_555 1_555
C6 C5 1_555 1_555
H3 C6 1_555 1_555
C7 C6 1_555 1_555
H4 C7 1_555 1_555
C8 C5 1_555 1_555
C9 H5 1_555 1_555
C10 C9 1_555 1_555
H6 C10 1_555 1_555
C11 C10 1_555 1_555
C12 C11 1_555 1_555
H7 C12 1_555 1_555
C13 C12 1_555 1_555
H8 C13 1_555 1_555
C14 C11 1_555 1_555
N1 Ni1 1_555 1_555
N2 Ni2 1_555 1_555
N3 C3 1_555 1_555
N4 C9 1_555 1_555
O1 C8 1_555 1_555
O2 C8 1_555 1_555
H9 O2 1_555 1_555
O3 C14 1_555 1_555
H10 O3 1_555 1_555
O4 C14 1_555 1_555
S1 C1 1_555 1_555
S2 C2 1_555 1_555
Ni1 N3 1_555 1_555
Ni2 N4 1_555 1_555
C1A N1A 1_555 1_555
C2A N2A 1_555 1_555
C3A H1A 1_555 1_555
C4A C3A 1_555 1_555
H2A C4A 1_555 1_555
C5A C4A 1_555 1_555
C6A C5A 1_555 1_555
H3A C6A 1_555 1_555
C7A C6A 1_555 1_555
H4A C7A 1_555 1_555
C8A C5A 1_555 1_555
C9A H5A 1_555 1_555
C10A C9A 1_555 1_555
H6A C10A 1_555 1_555
C11A C10A 1_555 1_555
C12A C11A 1_555 1_555
H7A C12A 1_555 1_555
C13A C12A 1_555 1_555
H8A C13A 1_555 1_555
C14A C11A 1_555 1_555
N1A Ni1 1_555 1_555
N2A Ni2_2 1_555 1_555
N2A_2 Ni2 1_555 1_555
N3A Ni1 1_555 1_555
N4A Ni2 1_555 1_555
O1A C8A 1_555 1_555
O2A C8A 1_555 1_555
H9A O2A 1_555 1_555
O3A C14A 1_555 1_555
H10A O3A 1_555 1_555
O4A C14A 1_555 1_555
S1A C1A 1_555 1_555
S1A_2 Ni2 1_555 1_555
S2A Ni1 1_555 1_555
Ni2_2 S1A 1_555 1_555
C7 N3 1_555 1_555
C13 N4 1_555 1_555
S1 Ni2 1_555 1_555
S2 Ni1 1_555 1_555
C2A S2A 1_555 1_555
C3A N3A 1_555 1_555
C7A N3A 1_555 1_555
C9A N4A 1_555 1_555
C13A N4A 1_555 1_555

#END
