
#######################################################################
#
#                 Cambridge Crystallographic Data Centre
#                                CCDC 
#
#######################################################################
#
# If this CIF has been generated from an entry in the Cambridge 
# Structural Database, then it will include bibliographic, chemical, 
# crystal, experimental, refinement or atomic coordinate data resulting 
# from the CCDC's data processing and validation procedures.
#
#######################################################################

data_FARZAA
_symmetry_cell_setting           triclinic
_symmetry_space_group_name_H-M   'P -1'
_symmetry_Int_Tables_number      2
_space_group_name_Hall           '-P 1'
loop_
_symmetry_equiv_pos_site_id
_symmetry_equiv_pos_as_xyz
1 x,y,z
2 -x,-y,-z
_cell_length_a                   7.2842(8)
_cell_length_b                   11.1375(17)
_cell_length_c                   16.5528(13)
_cell_angle_alpha                101.459(7)
_cell_angle_beta                 51.297(5)
_cell_angle_gamma                100.017(6)
_cell_volume                     1024.93
loop_
_atom_site_label
_atom_site_type_symbol
_atom_site_fract_x
_atom_site_fract_y
_atom_site_fract_z
C1 C 0.2155 0.624 0.677
H1 H 0.1388 0.6672 0.7433
C2 C 0.116 0.6083 0.6259
H2 H -0.0272 0.641 0.6581
C3 C 0.2306 0.5438 0.5268
H3 H 0.1641 0.5333 0.4927
C4 C 0.4446 0.4949 0.4788
C5 C 0.4295 0.5751 0.6289
H4 H 0.4955 0.5856 0.6633
C1A C 0.7845 0.376 0.323
H1A H 0.8612 0.3328 0.2567
C2A C 0.884 0.3917 0.3741
H2A H 1.0272 0.359 0.3419
C3A C 0.7694 0.4562 0.4732
H3A H 0.8359 0.4667 0.5073
C4A C 0.5554 0.5051 0.5212
C5A C 0.5705 0.4249 0.3711
H4A H 0.5045 0.4144 0.3367
C6 C -0.2890(3) 0.23665(17) 0.08569(15)
C7 C 0.2623(3) 0.27354(17) -0.04149(15)
C8 C -0.2520(4) 0.0437(2) 0.23660(17)
H5 H -0.3833 0.0501 0.2407
C9 C -0.2724(4) 0.0700(2) 0.32693(18)
H6 H -0.4142 0.0931 0.3904
C10 C -0.0748(4) 0.0611(2) 0.32051(17)
C11 C 0.1276(4) 0.0208(3) 0.22587(19)
H7 H 0.2596 0.0108 0.2201
C12 C 0.1321(4) -0.0046(2) 0.13964(18)
H8 H 0.2692 -0.0326 0.0761
C13 C -0.0764(4) 0.0984(2) 0.41243(18)
C14 C -0.1697(4) 0.4315(2) -0.13045(17)
H9 H -0.2883 0.4812 -0.0753
C15 C -0.1858(4) 0.3777(2) -0.20820(17)
H10 H -0.3114 0.3913 -0.2059
C16 C -0.0110(4) 0.30261(19) -0.29014(16)
C17 C 0.1769(4) 0.2874(2) -0.29190(18)
H11 H 0.2986 0.239 -0.3467
C18 C 0.1789(4) 0.3453(2) -0.21080(18)
H12 H 0.3049 0.335 -0.2122
C19 C -0.0280(4) 0.2405(2) -0.37346(17)
N1 N -0.2162(3) 0.14122(15) 0.06194(14)
N2 N 0.1937(3) 0.36742(15) -0.02662(14)
N3 N -0.0522(3) 0.00932(17) 0.14337(14)
N4 N 0.0079(3) 0.41600(15) -0.12985(14)
O1 O 0.1182(4) 0.0945(2) 0.39616(15)
H13 H 0.1009 0.1166 0.4507
O2 O -0.2641(3) 0.1323(2) 0.49906(14)
O3 O 0.1404(4) 0.1796(2) -0.45073(15)
O4 O -0.2151(4) 0.2523(2) -0.36110(16)
H14 H -0.2071 0.215 -0.4111
S1 S -0.38884(10) 0.37362(5) 0.11837(5)
S2 S 0.36375(10) 0.14018(5) -0.06604(5)
Ni1 Ni 0.00000 0.00000 0.00000
Ni2 Ni 0.00000 0.50000 0.00000
C6A C 0.2890(3) -0.23665(17) -0.08569(15)
C7A C -0.2623(3) -0.27354(17) 0.04149(15)
C8A C 0.2520(4) -0.0437(2) -0.23660(17)
H5A H 0.3833 -0.0501 -0.2407
C9A C 0.2724(4) -0.0700(2) -0.32693(18)
H6A H 0.4142 -0.0931 -0.3904
C10A C 0.0748(4) -0.0611(2) -0.32051(17)
C11A C -0.1276(4) -0.0208(3) -0.22587(19)
H7A H -0.2596 -0.0108 -0.2201
C12A C -0.1321(4) 0.0046(2) -0.13964(18)
H8A H -0.2692 0.0326 -0.0761
C13A C 0.0764(4) -0.0984(2) -0.41243(18)
C14A C 0.1697(4) 0.5685(2) 0.13045(17)
H9A H 0.2883 0.5188 0.0753
C15A C 0.1858(4) 0.6223(2) 0.20820(17)
H10A H 0.3114 0.6087 0.2059
C16A C 0.0110(4) 0.69739(19) 0.29014(16)
C17A C -0.1769(4) 0.7126(2) 0.29190(18)
H11A H -0.2986 0.761 0.3467
C18A C -0.1789(4) 0.6547(2) 0.21080(18)
H12A H -0.3049 0.665 0.2122
C19A C 0.0280(4) 0.7595(2) 0.37346(17)
N1A N 0.2162(3) -0.14122(15) -0.06194(14)
N2A N -0.1937(3) -0.36742(15) 0.02662(14)
N2A_2 N -0.1937(3) 0.63258(15) 0.02662(14)
N3A N 0.0522(3) -0.00932(17) -0.14337(14)
N4A N -0.0079(3) 0.58400(15) 0.12985(14)
O1A O -0.1182(4) -0.0945(2) -0.39616(15)
H13A H -0.1009 -0.1166 -0.4507
O2A O 0.2641(3) -0.1323(2) -0.49906(14)
O3A O -0.1404(4) 0.8204(2) 0.45073(15)
O4A O 0.2151(4) 0.7477(2) 0.36110(16)
H14A H 0.2071 0.785 0.4111
S1A S 0.38884(10) -0.37362(5) -0.11837(5)
S1A_2 S 0.38884(10) 0.62638(5) -0.11837(5)
S2A S -0.36375(10) -0.14018(5) 0.06604(5)
Ni2_2 Ni 0.00000 -0.50000 0.00000
loop_
_geom_bond_atom_site_label_1
_geom_bond_atom_site_label_2
_geom_bond_site_symmetry_1
_geom_bond_site_symmetry_2
C1 H1 1_555 1_555
C2 C1 1_555 1_555
H2 C2 1_555 1_555
C3 C2 1_555 1_555
H3 C3 1_555 1_555
C4 C3 1_555 1_555
C5 C1 1_555 1_555
H4 C5 1_555 1_555
C6 N1 1_555 1_555
C7 N2 1_555 1_555
C8 H5 1_555 1_555
C9 C8 1_555 1_555
H6 C9 1_555 1_555
C10 C9 1_555 1_555
C11 C10 1_555 1_555
H7 C11 1_555 1_555
C12 C11 1_555 1_555
H8 C12 1_555 1_555
C13 C10 1_555 1_555
C14 H9 1_555 1_555
C15 C14 1_555 1_555
H10 C15 1_555 1_555
C16 C15 1_555 1_555
C17 C16 1_555 1_555
H11 C17 1_555 1_555
C18 C17 1_555 1_555
H12 C18 1_555 1_555
C19 C16 1_555 1_555
N1 Ni1 1_555 1_555
N2 Ni2 1_555 1_555
N3 C8 1_555 1_555
N4 C14 1_555 1_555
O1 C13 1_555 1_555
H13 O1 1_555 1_555
O2 C13 1_555 1_555
O3 C19 1_555 1_555
O4 C19 1_555 1_555
H14 O4 1_555 1_555
S1 C6 1_555 1_555
S2 C7 1_555 1_555
Ni1 N3 1_555 1_555
Ni2 N4 1_555 1_555
C1A H1A 1_555 1_555
C2A C1A 1_555 1_555
H2A C2A 1_555 1_555
C3A C2A 1_555 1_555
H3A C3A 1_555 1_555
C4A C4 1_555 1_555
C5A C4 1_555 1_555
H4A C5A 1_555 1_555
C6A N1A 1_555 1_555
C7A N2A 1_555 1_555
C8A H5A 1_555 1_555
C9A C8A 1_555 1_555
H6A C9A 1_555 1_555
C10A C9A 1_555 1_555
C11A C10A 1_555 1_555
H7A C11A 1_555 1_555
C12A C11A 1_555 1_555
H8A C12A 1_555 1_555
C13A C10A 1_555 1_555
C14A H9A 1_555 1_555
C15A C14A 1_555 1_555
H10A C15A 1_555 1_555
C16A C15A 1_555 1_555
C17A C16A 1_555 1_555
H11A C17A 1_555 1_555
C18A C17A 1_555 1_555
H12A C18A 1_555 1_555
C19A C16A 1_555 1_555
N1A Ni1 1_555 1_555
N2A Ni2_2 1_555 1_555
N2A_2 Ni2 1_555 1_555
N3A Ni1 1_555 1_555
N4A Ni2 1_555 1_555
O1A C13A 1_555 1_555
H13A O1A 1_555 1_555
O2A C13A 1_555 1_555
O3A C19A 1_555 1_555
O4A C19A 1_555 1_555
H14A O4A 1_555 1_555
S1A C6A 1_555 1_555
S1A_2 Ni2 1_555 1_555
S2A Ni1 1_555 1_555
Ni2_2 S1A 1_555 1_555
C5 C4A 1_555 1_555
C12 N3 1_555 1_555
C18 N4 1_555 1_555
S1 Ni2 1_555 1_555
S2 Ni1 1_555 1_555
C1A C5A 1_555 1_555
C3A C4A 1_555 1_555
C7A S2A 1_555 1_555
C8A N3A 1_555 1_555
C12A N3A 1_555 1_555
C14A N4A 1_555 1_555
C18A N4A 1_555 1_555

#END
