
#######################################################################
#
#                 Cambridge Crystallographic Data Centre
#                                CCDC 
#
#######################################################################
#
# If this CIF has been generated from an entry in the Cambridge 
# Structural Database, then it will include bibliographic, chemical, 
# crystal, experimental, refinement or atomic coordinate data resulting 
# from the CCDC's data processing and validation procedures.
#
#######################################################################

data_FASBOR
_symmetry_cell_setting           triclinic
_symmetry_space_group_name_H-M   'P -1'
_symmetry_Int_Tables_number      2
_space_group_name_Hall           '-P 1'
loop_
_symmetry_equiv_pos_site_id
_symmetry_equiv_pos_as_xyz
1 x,y,z
2 -x,-y,-z
_cell_length_a                   7.163(2)
_cell_length_b                   11.161(3)
_cell_length_c                   16.542(4)
_cell_angle_alpha                100.841(11)
_cell_angle_beta                 51.733(16)
_cell_angle_gamma                101.075(13)
_cell_volume                     1014.87
loop_
_atom_site_label
_atom_site_type_symbol
_atom_site_fract_x
_atom_site_fract_y
_atom_site_fract_z
C1 C 0.496(3) 0.4314(14) 0.3920(12)
O1 O 0.355(2) 0.4238(12) 0.3634(10)
H1 H 0.2375 0.4605 0.408
C2 C 0.428(3) 0.4939(13) 0.4817(9)
C3 C 0.235(3) 0.5484(12) 0.5440(10)
H2 H 0.139 0.5449 0.5234
C4 C 0.694(3) 0.3789(13) 0.3318(12)
H3 H 0.7372 0.3356 0.2696
C5 C 0.158(3) 0.6116(13) 0.6382(13)
H4 H 0.0137 0.6465 0.6802
C1A C 0.504(3) 0.5686(14) 0.6080(12)
O1A O 0.645(2) 0.5762(12) 0.6366(10)
H1A H 0.7625 0.5395 0.592
C2A C 0.572(3) 0.5061(13) 0.5183(9)
C3A C 0.765(3) 0.4516(12) 0.4560(10)
H2A H 0.861 0.4551 0.4766
C4A C 0.306(3) 0.6211(13) 0.6682(12)
H3A H 0.2628 0.6644 0.7304
C5A C 0.842(3) 0.3884(13) 0.3618(13)
H4A H 0.9863 0.3535 0.3198
Ni1 Ni 0.0000 0.00000 0.00000
Ni2 Ni 0.0000 0.50000 0.00000
S1 S -0.3957(3) 0.36593(14) 0.11320(13)
S2 S 0.3693(3) 0.14454(14) -0.06792(15)
N1 N -0.2199(9) 0.1375(5) 0.0596(4)
N2 N 0.1969(10) 0.3696(5) -0.0252(4)
C6 C 0.2649(11) 0.2764(5) -0.0405(5)
C7 C -0.2923(11) 0.2315(5) 0.0818(4)
C8 C -0.0705(12) 0.0618(6) 0.3195(5)
N3 N -0.0509(9) 0.0113(5) 0.1432(4)
N4 N 0.0135(9) 0.4190(5) -0.1320(4)
O2 O -0.2565(9) 0.1345(5) 0.4957(4)
O3 O -0.2105(10) 0.2536(6) -0.3637(4)
H5 H -0.2099 0.2112 -0.4101
C9 C -0.0028(11) 0.3060(6) -0.2923(4)
O4 O 0.1250(9) 0.0960(6) 0.3962(4)
H6 H 0.1087 0.1181 0.4502
O5 O 0.1434(9) 0.1818(5) -0.4495(4)
C10 C 0.1336(13) 0.0240(7) 0.2258(5)
H7 H 0.2677 0.0155 0.2203
C11 C -0.0730(13) 0.1000(7) 0.4115(5)
C12 C 0.1818(12) 0.3481(6) -0.2101(5)
H8 H 0.3052 0.3366 -0.2089
C13 C -0.0252(12) 0.2418(6) -0.3742(5)
C14 C -0.2697(13) 0.0692(7) 0.3247(5)
H9 H -0.4121 0.0915 0.3871
C15 C -0.1745(11) 0.3814(6) -0.2143(5)
H10 H -0.2973 0.3954 -0.2149
C16 C 0.1835(12) 0.2914(6) -0.2917(5)
H11 H 0.3062 0.2447 -0.3449
C17 C 0.1361(12) -0.0008(7) 0.1404(5)
H12 H 0.2739 -0.0273 0.0777
C18 C -0.2516(13) 0.0432(7) 0.2363(5)
H13 H -0.3858 0.0478 0.2406
C19 C -0.1621(12) 0.4358(6) -0.1350(5)
H14 H -0.2794 0.4856 -0.0823
Ni2_2 Ni 0.0000 -0.50000 0.00000
S1A S 0.3957(3) -0.36593(14) -0.11320(13)
S1A_2 S 0.3957(3) 0.63407(14) -0.11320(13)
S2A S -0.3693(3) -0.14454(14) 0.06792(15)
N1A N 0.2199(9) -0.1375(5) -0.0596(4)
N2A N -0.1969(10) -0.3696(5) 0.0252(4)
N2A_2 N -0.1969(10) 0.6304(5) 0.0252(4)
C6A C -0.2649(11) -0.2764(5) 0.0405(5)
C7A C 0.2923(11) -0.2315(5) -0.0818(4)
C8A C 0.0705(12) -0.0618(6) -0.3195(5)
N3A N 0.0509(9) -0.0113(5) -0.1432(4)
N4A N -0.0135(9) 0.5810(5) 0.1320(4)
O2A O 0.2565(9) -0.1345(5) -0.4957(4)
O3A O 0.2105(10) 0.7464(6) 0.3637(4)
H5A H 0.2099 0.7888 0.4101
C9A C 0.0028(11) 0.6940(6) 0.2923(4)
O4A O -0.1250(9) -0.0960(6) -0.3962(4)
H6A H -0.1087 -0.1181 -0.4502
O5A O -0.1434(9) 0.8182(5) 0.4495(4)
C10A C -0.1336(13) -0.0240(7) -0.2258(5)
H7A H -0.2677 -0.0155 -0.2203
C11A C 0.0730(13) -0.1000(7) -0.4115(5)
C12A C -0.1818(12) 0.6519(6) 0.2101(5)
H8A H -0.3052 0.6634 0.2089
C13A C 0.0252(12) 0.7582(6) 0.3742(5)
C14A C 0.2697(13) -0.0692(7) -0.3247(5)
H9A H 0.4121 -0.0915 -0.3871
C15A C 0.1745(11) 0.6186(6) 0.2143(5)
H10A H 0.2973 0.6046 0.2149
C16A C -0.1835(12) 0.7086(6) 0.2917(5)
H11A H -0.3062 0.7553 0.3449
C17A C -0.1361(12) 0.0008(7) -0.1404(5)
H12A H -0.2739 0.0273 -0.0777
C18A C 0.2516(13) -0.0432(7) -0.2363(5)
H13A H 0.3858 -0.0478 -0.2406
C19A C 0.1621(12) 0.5642(6) 0.1350(5)
H14A H 0.2794 0.5144 0.0823
loop_
_geom_bond_atom_site_label_1
_geom_bond_atom_site_label_2
_geom_bond_site_symmetry_1
_geom_bond_site_symmetry_2
C1 O1 1_555 1_555
O1 H1 1_555 1_555
C2 C1 1_555 1_555
C3 C2 1_555 1_555
H2 C3 1_555 1_555
C4 C1 1_555 1_555
H3 C4 1_555 1_555
C5 C3 1_555 1_555
H4 C5 1_555 1_555
Ni1 S2 1_555 1_555
Ni2 S1 1_555 1_555
S1 C7 1_555 1_555
S2 C6 1_555 1_555
N1 Ni1 1_555 1_555
N2 Ni2 1_555 1_555
C6 N2 1_555 1_555
C7 N1 1_555 1_555
C8 C10 1_555 1_555
N3 Ni1 1_555 1_555
N4 Ni2 1_555 1_555
O2 C11 1_555 1_555
O3 H5 1_555 1_555
C9 C13 1_555 1_555
O4 H6 1_555 1_555
O5 C13 1_555 1_555
C10 H7 1_555 1_555
C11 C8 1_555 1_555
C12 N4 1_555 1_555
H8 C12 1_555 1_555
C13 O3 1_555 1_555
C14 C8 1_555 1_555
H9 C14 1_555 1_555
C15 C9 1_555 1_555
H10 C15 1_555 1_555
C16 C9 1_555 1_555
H11 C16 1_555 1_555
C17 N3 1_555 1_555
H12 C17 1_555 1_555
C18 N3 1_555 1_555
H13 C18 1_555 1_555
C19 N4 1_555 1_555
H14 C19 1_555 1_555
C1A O1A 1_555 1_555
O1A H1A 1_555 1_555
C2A C2 1_555 1_555
C3A C2A 1_555 1_555
H2A C3A 1_555 1_555
C4A C5 1_555 1_555
H3A C4A 1_555 1_555
C5A C4 1_555 1_555
H4A C5A 1_555 1_555
Ni2_2 S1A 1_555 1_555
S1A C7A 1_555 1_555
S1A_2 Ni2 1_555 1_555
S2A Ni1 1_555 1_555
N1A Ni1 1_555 1_555
N2A Ni2_2 1_555 1_555
N2A_2 Ni2 1_555 1_555
C6A S2A 1_555 1_555
C7A N1A 1_555 1_555
C8A C10A 1_555 1_555
N3A Ni1 1_555 1_555
N4A Ni2 1_555 1_555
O2A C11A 1_555 1_555
O3A H5A 1_555 1_555
C9A C13A 1_555 1_555
O4A H6A 1_555 1_555
O5A C13A 1_555 1_555
C10A H7A 1_555 1_555
C11A C8A 1_555 1_555
C12A N4A 1_555 1_555
H8A C12A 1_555 1_555
C13A O3A 1_555 1_555
C14A C8A 1_555 1_555
H9A C14A 1_555 1_555
C15A C9A 1_555 1_555
H10A C15A 1_555 1_555
C16A C9A 1_555 1_555
H11A C16A 1_555 1_555
C17A N3A 1_555 1_555
H12A C17A 1_555 1_555
C18A N3A 1_555 1_555
H13A C18A 1_555 1_555
C19A N4A 1_555 1_555
H14A C19A 1_555 1_555
O4 C11 1_555 1_555
C10 C17 1_555 1_555
C12 C16 1_555 1_555
C14 C18 1_555 1_555
C15 C19 1_555 1_555
C1A C2A 1_555 1_555
C1A C4A 1_555 1_555
C3A C5A 1_555 1_555
N2A C6A 1_555 1_555
O4A C11A 1_555 1_555
C10A C17A 1_555 1_555
C12A C16A 1_555 1_555
C14A C18A 1_555 1_555
C15A C19A 1_555 1_555

#END
