
#######################################################################
#
#                 Cambridge Crystallographic Data Centre
#                                CCDC 
#
#######################################################################
#
# If this CIF has been generated from an entry in the Cambridge 
# Structural Database, then it will include bibliographic, chemical, 
# crystal, experimental, refinement or atomic coordinate data resulting 
# from the CCDC's data processing and validation procedures.
#
#######################################################################

data_FASBIL
_symmetry_cell_setting           triclinic
_symmetry_space_group_name_H-M   'P -1'
_symmetry_Int_Tables_number      2
_space_group_name_Hall           '-P 1'
loop_
_symmetry_equiv_pos_site_id
_symmetry_equiv_pos_as_xyz
1 x,y,z
2 -x,-y,-z
_cell_length_a                   7.0736(12)
_cell_length_b                   11.0952(17)
_cell_length_c                   16.481(2)
_cell_angle_alpha                100.924(7)
_cell_angle_beta                 52.792(10)
_cell_angle_gamma                100.947(5)
_cell_volume                     1006.82
loop_
_atom_site_label
_atom_site_type_symbol
_atom_site_fract_x
_atom_site_fract_y
_atom_site_fract_z
C1 C -0.2896(13) 0.2316(6) 0.0780(5)
C2 C 0.2653(12) 0.2758(6) -0.0401(5)
C3 C 0.1351(15) 0.0022(9) 0.1425(6)
H1 H 0.2735 -0.0237 0.081
C4 C 0.1323(16) 0.0257(10) 0.2281(6)
H2 H 0.2645 0.0155 0.2247
C5 C -0.0733(15) 0.0651(8) 0.3197(6)
C6 C -0.2659(16) 0.0754(10) 0.3224(6)
H3 H -0.4064 0.1001 0.3834
C7 C -0.2492(16) 0.0483(9) 0.2328(7)
H4 H -0.3821 0.0541 0.2353
C8 C -0.0705(17) 0.1020(8) 0.4100(6)
C9 C -0.1616(14) 0.4344(7) -0.1362(6)
H5 H -0.2777 0.4851 -0.0845
C10 C -0.1825(14) 0.3783(8) -0.2119(6)
H6 H -0.3112 0.3892 -0.2108
C11 C -0.0081(14) 0.3047(7) -0.2904(5)
C12 C 0.1840(16) 0.2944(8) -0.2904(6)
H7 H 0.3094 0.2499 -0.3441
C13 C 0.1839(16) 0.3520(8) -0.2086(6)
H8 H 0.309 0.3421 -0.2068
C14 C -0.0271(16) 0.2407(8) -0.3733(6)
N1 N -0.2143(11) 0.1376(5) 0.0553(5)
N2 N 0.1968(11) 0.3702(5) -0.0243(5)
N3 N -0.0493(11) 0.0142(6) 0.1426(5)
N4 N 0.0144(11) 0.4209(6) -0.1322(4)
O1 O 0.1172(12) 0.0967(7) 0.4002(5)
O2 O -0.2603(12) 0.1350(7) 0.4931(5)
H9 H -0.239 0.1533 0.5378
O3 O 0.1467(13) 0.1877(7) -0.4493(5)
H10 H 0.1156 0.156 -0.4896
O4 O -0.2188(12) 0.2425(7) -0.3621(5)
S1 S -0.3907(4) 0.36682(16) 0.10950(16)
S2 S 0.3699(4) 0.14382(16) -0.06700(18)
Ni1 Ni 0.0000 0.00000 0.00000
Ni2 Ni 0.0000 0.50000 0.00000
C1A C 0.2896(13) -0.2316(6) -0.0780(5)
C2A C -0.2653(12) -0.2758(6) 0.0401(5)
C3A C -0.1351(15) -0.0022(9) -0.1425(6)
H1A H -0.2735 0.0237 -0.081
C4A C -0.1323(16) -0.0257(10) -0.2281(6)
H2A H -0.2645 -0.0155 -0.2247
C5A C 0.0733(15) -0.0651(8) -0.3197(6)
C6A C 0.2659(16) -0.0754(10) -0.3224(6)
H3A H 0.4064 -0.1001 -0.3834
C7A C 0.2492(16) -0.0483(9) -0.2328(7)
H4A H 0.3821 -0.0541 -0.2353
C8A C 0.0705(17) -0.1020(8) -0.4100(6)
C9A C 0.1616(14) 0.5656(7) 0.1362(6)
H5A H 0.2777 0.5149 0.0845
C10A C 0.1825(14) 0.6217(8) 0.2119(6)
H6A H 0.3112 0.6108 0.2108
C11A C 0.0081(14) 0.6953(7) 0.2904(5)
C12A C -0.1840(16) 0.7056(8) 0.2904(6)
H7A H -0.3094 0.7501 0.3441
C13A C -0.1839(16) 0.6480(8) 0.2086(6)
H8A H -0.309 0.6579 0.2068
C14A C 0.0271(16) 0.7593(8) 0.3733(6)
N1A N 0.2143(11) -0.1376(5) -0.0553(5)
N2A N -0.1968(11) -0.3702(5) 0.0243(5)
N2A_2 N -0.1968(11) 0.6298(5) 0.0243(5)
N3A N 0.0493(11) -0.0142(6) -0.1426(5)
N4A N -0.0144(11) 0.5791(6) 0.1322(4)
O1A O -0.1172(12) -0.0967(7) -0.4002(5)
O2A O 0.2603(12) -0.1350(7) -0.4931(5)
H9A H 0.239 -0.1533 -0.5378
O3A O -0.1467(13) 0.8123(7) 0.4493(5)
H10A H -0.1156 0.844 0.4896
O4A O 0.2188(12) 0.7575(7) 0.3621(5)
S1A S 0.3907(4) -0.36682(16) -0.10950(16)
S1A_2 S 0.3907(4) 0.63318(16) -0.10950(16)
S2A S -0.3699(4) -0.14382(16) 0.06700(18)
Ni2_2 Ni 0.0000 -0.50000 0.00000
loop_
_geom_bond_atom_site_label_1
_geom_bond_atom_site_label_2
_geom_bond_site_symmetry_1
_geom_bond_site_symmetry_2
C1 N1 1_555 1_555
C2 N2 1_555 1_555
C3 H1 1_555 1_555
C4 C3 1_555 1_555
H2 C4 1_555 1_555
C5 C4 1_555 1_555
C6 C5 1_555 1_555
H3 C6 1_555 1_555
C7 C6 1_555 1_555
H4 C7 1_555 1_555
C8 C5 1_555 1_555
C9 H5 1_555 1_555
C10 C9 1_555 1_555
H6 C10 1_555 1_555
C11 C10 1_555 1_555
C12 C11 1_555 1_555
H7 C12 1_555 1_555
C13 C12 1_555 1_555
H8 C13 1_555 1_555
C14 C11 1_555 1_555
N1 Ni1 1_555 1_555
N2 Ni2 1_555 1_555
N3 C3 1_555 1_555
N4 C9 1_555 1_555
O1 C8 1_555 1_555
O2 C8 1_555 1_555
H9 O2 1_555 1_555
O3 C14 1_555 1_555
H10 O3 1_555 1_555
O4 C14 1_555 1_555
S1 C1 1_555 1_555
S2 C2 1_555 1_555
Ni1 N3 1_555 1_555
Ni2 N4 1_555 1_555
C1A N1A 1_555 1_555
C2A N2A 1_555 1_555
C3A H1A 1_555 1_555
C4A C3A 1_555 1_555
H2A C4A 1_555 1_555
C5A C4A 1_555 1_555
C6A C5A 1_555 1_555
H3A C6A 1_555 1_555
C7A C6A 1_555 1_555
H4A C7A 1_555 1_555
C8A C5A 1_555 1_555
C9A H5A 1_555 1_555
C10A C9A 1_555 1_555
H6A C10A 1_555 1_555
C11A C10A 1_555 1_555
C12A C11A 1_555 1_555
H7A C12A 1_555 1_555
C13A C12A 1_555 1_555
H8A C13A 1_555 1_555
C14A C11A 1_555 1_555
N1A Ni1 1_555 1_555
N2A Ni2_2 1_555 1_555
N2A_2 Ni2 1_555 1_555
N3A Ni1 1_555 1_555
N4A Ni2 1_555 1_555
O1A C8A 1_555 1_555
O2A C8A 1_555 1_555
H9A O2A 1_555 1_555
O3A C14A 1_555 1_555
H10A O3A 1_555 1_555
O4A C14A 1_555 1_555
S1A C1A 1_555 1_555
S1A_2 Ni2 1_555 1_555
S2A Ni1 1_555 1_555
Ni2_2 S1A 1_555 1_555
C7 N3 1_555 1_555
C13 N4 1_555 1_555
S1 Ni2 1_555 1_555
S2 Ni1 1_555 1_555
C2A S2A 1_555 1_555
C3A N3A 1_555 1_555
C7A N3A 1_555 1_555
C9A N4A 1_555 1_555
C13A N4A 1_555 1_555

#END
