
#######################################################################
#
#                 Cambridge Crystallographic Data Centre
#                                CCDC 
#
#######################################################################
#
# If this CIF has been generated from an entry in the Cambridge 
# Structural Database, then it will include bibliographic, chemical, 
# crystal, experimental, refinement or atomic coordinate data resulting 
# from the CCDC's data processing and validation procedures.
#
#######################################################################

data_FASBAD
_symmetry_cell_setting           triclinic
_symmetry_space_group_name_H-M   'P -1'
_symmetry_Int_Tables_number      2
_space_group_name_Hall           '-P 1'
loop_
_symmetry_equiv_pos_site_id
_symmetry_equiv_pos_as_xyz
1 x,y,z
2 -x,-y,-z
_cell_length_a                   7.1364(5)
_cell_length_b                   11.1042(12)
_cell_length_c                   16.4885(12)
_cell_angle_alpha                100.589(4)
_cell_angle_beta                 51.940(3)
_cell_angle_gamma                100.650(3)
_cell_volume                     1006.94
loop_
_atom_site_label
_atom_site_type_symbol
_atom_site_fract_x
_atom_site_fract_y
_atom_site_fract_z
C1 C -0.2903(11) 0.2333(5) 0.0801(5)
C2 C 0.2671(11) 0.2750(5) -0.0421(5)
C3 C 0.1367(13) 0.0032(7) 0.1406(5)
H1 H 0.2745 -0.0243 0.0784
C4 C 0.1332(13) 0.0296(8) 0.2262(5)
H2 H 0.2678 0.0219 0.2211
C5 C -0.0712(13) 0.0676(7) 0.3198(5)
C6 C -0.2684(13) 0.0763(8) 0.3240(6)
H3 H -0.4105 0.1002 0.386
C7 C -0.2491(13) 0.0485(8) 0.2344(6)
H4 H -0.3827 0.0531 0.2379
C8 C -0.0735(13) 0.1042(7) 0.4113(6)
C9 C -0.1623(12) 0.4382(7) -0.1352(5)
H5 H -0.2777 0.4897 -0.0831
C10 C -0.1780(13) 0.3842(7) -0.2123(6)
H6 H -0.3014 0.3996 -0.2126
C11 C -0.0093(12) 0.3063(6) -0.2902(5)
C12 C 0.1758(13) 0.2894(7) -0.2885(6)
H7 H 0.296 0.2404 -0.3408
C13 C 0.1773(13) 0.3464(7) -0.2085(6)
H8 H 0.3002 0.3334 -0.207
C14 C -0.0299(14) 0.2422(7) -0.3728(6)
N1 N -0.2156(9) 0.1393(5) 0.0568(4)
N2 N 0.1963(10) 0.3688(5) -0.0258(4)
N3 N -0.0498(10) 0.0153(5) 0.1429(4)
N4 N 0.0129(10) 0.4201(5) -0.1316(4)
O1 O 0.1186(11) 0.0963(7) 0.3987(4)
H9 H 0.1001 0.1183 0.4533
O2 O -0.2605(10) 0.1399(7) 0.4956(4)
O3 O -0.2153(11) 0.2537(7) -0.3630(5)
H10 H -0.2088 0.2152 -0.4121
O4 O 0.1367(11) 0.1795(6) -0.4469(4)
S1 S -0.3917(3) 0.36862(15) 0.11358(15)
S2 S 0.3713(3) 0.14256(14) -0.07045(16)
Ni1 Ni 0.0000 0.00000 0.00000
Ni2 Ni 0.0000 0.50000 0.00000
C1A C 0.2903(11) -0.2333(5) -0.0801(5)
C2A C -0.2671(11) -0.2750(5) 0.0421(5)
C3A C -0.1367(13) -0.0032(7) -0.1406(5)
H1A H -0.2745 0.0243 -0.0784
C4A C -0.1332(13) -0.0296(8) -0.2262(5)
H2A H -0.2678 -0.0219 -0.2211
C5A C 0.0712(13) -0.0676(7) -0.3198(5)
C6A C 0.2684(13) -0.0763(8) -0.3240(6)
H3A H 0.4105 -0.1002 -0.386
C7A C 0.2491(13) -0.0485(8) -0.2344(6)
H4A H 0.3827 -0.0531 -0.2379
C8A C 0.0735(13) -0.1042(7) -0.4113(6)
C9A C 0.1623(12) 0.5618(7) 0.1352(5)
H5A H 0.2777 0.5103 0.0831
C10A C 0.1780(13) 0.6158(7) 0.2123(6)
H6A H 0.3014 0.6004 0.2126
C11A C 0.0093(12) 0.6937(6) 0.2902(5)
C12A C -0.1758(13) 0.7106(7) 0.2885(6)
H7A H -0.296 0.7596 0.3408
C13A C -0.1773(13) 0.6536(7) 0.2085(6)
H8A H -0.3002 0.6666 0.207
C14A C 0.0299(14) 0.7578(7) 0.3728(6)
N1A N 0.2156(9) -0.1393(5) -0.0568(4)
N2A N -0.1963(10) -0.3688(5) 0.0258(4)
N2A_2 N -0.1963(10) 0.6312(5) 0.0258(4)
N3A N 0.0498(10) -0.0153(5) -0.1429(4)
N4A N -0.0129(10) 0.5799(5) 0.1316(4)
O1A O -0.1186(11) -0.0963(7) -0.3987(4)
H9A H -0.1001 -0.1183 -0.4533
O2A O 0.2605(10) -0.1399(7) -0.4956(4)
O3A O 0.2153(11) 0.7463(7) 0.3630(5)
H10A H 0.2088 0.7848 0.4121
O4A O -0.1367(11) 0.8205(6) 0.4469(4)
S1A S 0.3917(3) -0.36862(15) -0.11358(15)
S1A_2 S 0.3917(3) 0.63138(15) -0.11358(15)
S2A S -0.3713(3) -0.14256(14) 0.07045(16)
Ni2_2 Ni 0.0000 -0.50000 0.00000
loop_
_geom_bond_atom_site_label_1
_geom_bond_atom_site_label_2
_geom_bond_site_symmetry_1
_geom_bond_site_symmetry_2
C1 N1 1_555 1_555
C2 N2 1_555 1_555
C3 H1 1_555 1_555
C4 C3 1_555 1_555
H2 C4 1_555 1_555
C5 C4 1_555 1_555
C6 C5 1_555 1_555
H3 C6 1_555 1_555
C7 C6 1_555 1_555
H4 C7 1_555 1_555
C8 C5 1_555 1_555
C9 H5 1_555 1_555
C10 C9 1_555 1_555
H6 C10 1_555 1_555
C11 C10 1_555 1_555
C12 C11 1_555 1_555
H7 C12 1_555 1_555
C13 C12 1_555 1_555
H8 C13 1_555 1_555
C14 C11 1_555 1_555
N1 Ni1 1_555 1_555
N2 Ni2 1_555 1_555
N3 C3 1_555 1_555
N4 C9 1_555 1_555
O1 C8 1_555 1_555
H9 O1 1_555 1_555
O2 C8 1_555 1_555
O3 C14 1_555 1_555
H10 O3 1_555 1_555
O4 C14 1_555 1_555
S1 C1 1_555 1_555
S2 C2 1_555 1_555
Ni1 N3 1_555 1_555
Ni2 N4 1_555 1_555
C1A N1A 1_555 1_555
C2A N2A 1_555 1_555
C3A H1A 1_555 1_555
C4A C3A 1_555 1_555
H2A C4A 1_555 1_555
C5A C4A 1_555 1_555
C6A C5A 1_555 1_555
H3A C6A 1_555 1_555
C7A C6A 1_555 1_555
H4A C7A 1_555 1_555
C8A C5A 1_555 1_555
C9A H5A 1_555 1_555
C10A C9A 1_555 1_555
H6A C10A 1_555 1_555
C11A C10A 1_555 1_555
C12A C11A 1_555 1_555
H7A C12A 1_555 1_555
C13A C12A 1_555 1_555
H8A C13A 1_555 1_555
C14A C11A 1_555 1_555
N1A Ni1 1_555 1_555
N2A Ni2_2 1_555 1_555
N2A_2 Ni2 1_555 1_555
N3A Ni1 1_555 1_555
N4A Ni2 1_555 1_555
O1A C8A 1_555 1_555
H9A O1A 1_555 1_555
O2A C8A 1_555 1_555
O3A C14A 1_555 1_555
H10A O3A 1_555 1_555
O4A C14A 1_555 1_555
S1A C1A 1_555 1_555
S1A_2 Ni2 1_555 1_555
S2A Ni1 1_555 1_555
Ni2_2 S1A 1_555 1_555
C7 N3 1_555 1_555
C13 N4 1_555 1_555
S1 Ni2 1_555 1_555
S2 Ni1 1_555 1_555
C2A S2A 1_555 1_555
C3A N3A 1_555 1_555
C7A N3A 1_555 1_555
C9A N4A 1_555 1_555
C13A N4A 1_555 1_555

#END
