
#######################################################################
#
#                 Cambridge Crystallographic Data Centre
#                                CCDC 
#
#######################################################################
#
# If this CIF has been generated from an entry in the Cambridge 
# Structural Database, then it will include bibliographic, chemical, 
# crystal, experimental, refinement or atomic coordinate data resulting 
# from the CCDC's data processing and validation procedures.
#
#######################################################################

data_FASBEH
_symmetry_cell_setting           triclinic
_symmetry_space_group_name_H-M   'P -1'
_symmetry_Int_Tables_number      2
_space_group_name_Hall           '-P 1'
loop_
_symmetry_equiv_pos_site_id
_symmetry_equiv_pos_as_xyz
1 x,y,z
2 -x,-y,-z
_cell_length_a                   7.1116(9)
_cell_length_b                   11.1365(14)
_cell_length_c                   16.594(2)
_cell_angle_alpha                101.335(4)
_cell_angle_beta                 52.758(5)
_cell_angle_gamma                101.198(8)
_cell_volume                     1021.04
loop_
_atom_site_label
_atom_site_type_symbol
_atom_site_fract_x
_atom_site_fract_y
_atom_site_fract_z
C1 C -0.2877(8) 0.2327(4) 0.0781(3)
C2 C 0.2665(7) 0.2755(3) -0.0410(3)
C3 C 0.1409(10) 0.0046(6) 0.1402(4)
H1 H 0.2792 -0.0202 0.0787
C4 C 0.1380(10) 0.0301(6) 0.2260(4)
H2 H 0.2735 0.0251 0.2212
C5 C -0.0662(8) 0.0627(5) 0.3179(4)
C6 C -0.2632(10) 0.0652(7) 0.3212(4)
H3 H -0.4068 0.0837 0.3827
C7 C -0.2458(9) 0.0401(6) 0.2321(4)
H4 H -0.3809 0.0415 0.2356
C8 C -0.0677(9) 0.0988(5) 0.4094(4)
C9 C -0.1627(9) 0.4353(5) -0.1358(4)
H5 H -0.2793 0.485 -0.0837
C10 C -0.1803(9) 0.3804(5) -0.2140(4)
H6 H -0.3042 0.394 -0.2147
C11 C -0.0090(8) 0.3051(4) -0.2907(3)
C12 C 0.1775(10) 0.2913(5) -0.2886(4)
H7 H 0.2976 0.243 -0.3404
C13 C 0.1823(10) 0.3504(5) -0.2084(4)
H8 H 0.3083 0.3415 -0.2075
C14 C -0.0273(9) 0.2394(5) -0.3736(4)
N1 N -0.2159(7) 0.1382(3) 0.0577(3)
N2 N 0.1972(7) 0.3697(3) -0.0255(3)
N3 N -0.0449(7) 0.0140(4) 0.1414(3)
N4 N 0.0119(7) 0.4205(3) -0.1315(3)
O1 O 0.1213(7) 0.0918(5) 0.3987(3)
H9 H 0.1022 0.1136 0.4532
O2 O -0.2545(7) 0.1339(5) 0.4917(3)
O3 O 0.1420(8) 0.1804(4) -0.4476(3)
O4 O -0.2170(8) 0.2463(5) -0.3630(3)
H10 H -0.211 0.2075 -0.4118
S1 S -0.3868(2) 0.36742(10) 0.10726(11)
S2 S 0.3693(2) 0.14383(10) -0.06767(11)
Ni1 Ni 0.0000 0.00000 0.00000
Ni2 Ni 0.0000 0.50000 0.00000
C1A C 0.2877(8) -0.2327(4) -0.0781(3)
C2A C -0.2665(7) -0.2755(3) 0.0410(3)
C3A C -0.1409(10) -0.0046(6) -0.1402(4)
H1A H -0.2792 0.0202 -0.0787
C4A C -0.1380(10) -0.0301(6) -0.2260(4)
H2A H -0.2735 -0.0251 -0.2212
C5A C 0.0662(8) -0.0627(5) -0.3179(4)
C6A C 0.2632(10) -0.0652(7) -0.3212(4)
H3A H 0.4068 -0.0837 -0.3827
C7A C 0.2458(9) -0.0401(6) -0.2321(4)
H4A H 0.3809 -0.0415 -0.2356
C8A C 0.0677(9) -0.0988(5) -0.4094(4)
C9A C 0.1627(9) 0.5647(5) 0.1358(4)
H5A H 0.2793 0.515 0.0837
C10A C 0.1803(9) 0.6196(5) 0.2140(4)
H6A H 0.3042 0.606 0.2147
C11A C 0.0090(8) 0.6949(4) 0.2907(3)
C12A C -0.1775(10) 0.7087(5) 0.2886(4)
H7A H -0.2976 0.757 0.3404
C13A C -0.1823(10) 0.6496(5) 0.2084(4)
H8A H -0.3083 0.6585 0.2075
C14A C 0.0273(9) 0.7606(5) 0.3736(4)
N1A N 0.2159(7) -0.1382(3) -0.0577(3)
N2A N -0.1972(7) -0.3697(3) 0.0255(3)
N2A_2 N -0.1972(7) 0.6303(3) 0.0255(3)
N3A N 0.0449(7) -0.0140(4) -0.1414(3)
N4A N -0.0119(7) 0.5795(3) 0.1315(3)
O1A O -0.1213(7) -0.0918(5) -0.3987(3)
H9A H -0.1022 -0.1136 -0.4532
O2A O 0.2545(7) -0.1339(5) -0.4917(3)
O3A O -0.1420(8) 0.8196(4) 0.4476(3)
O4A O 0.2170(8) 0.7537(5) 0.3630(3)
H10A H 0.211 0.7925 0.4118
S1A S 0.3868(2) -0.36742(10) -0.10726(11)
S1A_2 S 0.3868(2) 0.63258(10) -0.10726(11)
S2A S -0.3693(2) -0.14383(10) 0.06767(11)
Ni2_2 Ni 0.0000 -0.50000 0.00000
loop_
_geom_bond_atom_site_label_1
_geom_bond_atom_site_label_2
_geom_bond_site_symmetry_1
_geom_bond_site_symmetry_2
C1 N1 1_555 1_555
C2 N2 1_555 1_555
C3 H1 1_555 1_555
C4 C3 1_555 1_555
H2 C4 1_555 1_555
C5 C4 1_555 1_555
C6 C5 1_555 1_555
H3 C6 1_555 1_555
C7 C6 1_555 1_555
H4 C7 1_555 1_555
C8 C5 1_555 1_555
C9 H5 1_555 1_555
C10 C9 1_555 1_555
H6 C10 1_555 1_555
C11 C10 1_555 1_555
C12 C11 1_555 1_555
H7 C12 1_555 1_555
C13 C12 1_555 1_555
H8 C13 1_555 1_555
C14 C11 1_555 1_555
N1 Ni1 1_555 1_555
N2 Ni2 1_555 1_555
N3 C3 1_555 1_555
N4 C9 1_555 1_555
O1 C8 1_555 1_555
H9 O1 1_555 1_555
O2 C8 1_555 1_555
O3 C14 1_555 1_555
O4 C14 1_555 1_555
H10 O4 1_555 1_555
S1 C1 1_555 1_555
S2 C2 1_555 1_555
Ni1 N3 1_555 1_555
Ni2 N4 1_555 1_555
C1A N1A 1_555 1_555
C2A N2A 1_555 1_555
C3A H1A 1_555 1_555
C4A C3A 1_555 1_555
H2A C4A 1_555 1_555
C5A C4A 1_555 1_555
C6A C5A 1_555 1_555
H3A C6A 1_555 1_555
C7A C6A 1_555 1_555
H4A C7A 1_555 1_555
C8A C5A 1_555 1_555
C9A H5A 1_555 1_555
C10A C9A 1_555 1_555
H6A C10A 1_555 1_555
C11A C10A 1_555 1_555
C12A C11A 1_555 1_555
H7A C12A 1_555 1_555
C13A C12A 1_555 1_555
H8A C13A 1_555 1_555
C14A C11A 1_555 1_555
N1A Ni1 1_555 1_555
N2A Ni2_2 1_555 1_555
N2A_2 Ni2 1_555 1_555
N3A Ni1 1_555 1_555
N4A Ni2 1_555 1_555
O1A C8A 1_555 1_555
H9A O1A 1_555 1_555
O2A C8A 1_555 1_555
O3A C14A 1_555 1_555
O4A C14A 1_555 1_555
H10A O4A 1_555 1_555
S1A C1A 1_555 1_555
S1A_2 Ni2 1_555 1_555
S2A Ni1 1_555 1_555
Ni2_2 S1A 1_555 1_555
C7 N3 1_555 1_555
C13 N4 1_555 1_555
S1 Ni2 1_555 1_555
S2 Ni1 1_555 1_555
C2A S2A 1_555 1_555
C3A N3A 1_555 1_555
C7A N3A 1_555 1_555
C9A N4A 1_555 1_555
C13A N4A 1_555 1_555

#END
