
#######################################################################
#
#                 Cambridge Crystallographic Data Centre
#                                CCDC 
#
#######################################################################
#
# If this CIF has been generated from an entry in the Cambridge 
# Structural Database, then it will include bibliographic, chemical, 
# crystal, experimental, refinement or atomic coordinate data resulting 
# from the CCDC's data processing and validation procedures.
#
#######################################################################

data_FASCOT
_symmetry_cell_setting           triclinic
_symmetry_space_group_name_H-M   'P -1'
_symmetry_Int_Tables_number      2
_space_group_name_Hall           '-P 1'
loop_
_symmetry_equiv_pos_site_id
_symmetry_equiv_pos_as_xyz
1 x,y,z
2 -x,-y,-z
_cell_length_a                   8.6099(7)
_cell_length_b                   8.8210(8)
_cell_length_c                   15.5982(13)
_cell_angle_alpha                92.459(7)
_cell_angle_beta                 96.343(7)
_cell_angle_gamma                114.856(6)
_cell_volume                     1063.08
loop_
_atom_site_label
_atom_site_type_symbol
_atom_site_fract_x
_atom_site_fract_y
_atom_site_fract_z
Fe1 Fe 0.5000 0.5000 0.5000
Fe2 Fe 0.82832(5) 0.82450(5) 0.83614(2)
S1 S 0.55439(11) 0.81236(10) 0.54434(5)
C1 C 0.6379(3) 0.8314(3) 0.64678(19)
N1 N 0.6952(3) 0.8416(3) 0.71812(17)
S2 S 0.78577(11) 0.51827(10) 0.78941(5)
C2 C 0.6752(4) 0.4888(3) 0.69225(19)
N2 N 0.5972(3) 0.4690(3) 0.62445(16)
S3 S 0.86418(10) 1.12981(10) 0.87623(5)
C3 C 0.9654(3) 1.1652(3) 0.97614(19)
N3 N 1.0359(3) 1.1878(3) 1.04579(17)
N4 N 0.5881(3) 0.7185(3) 0.89586(16)
C4 C 0.5816(4) 0.7772(5) 0.9749(2)
H1 H 0.6806 0.8646 1.0045
C5 C 0.4357(5) 0.7148(5) 1.0148(3)
H2 H 0.4370 0.7589 1.0703
C6 C 0.2889(5) 0.5869(5) 0.9720(3)
H3 H 0.1877 0.5442 0.9970
C7 C 0.2943(5) 0.5239(5) 0.8920(3)
H4 H 0.1972 0.4350 0.8618
C8 C 0.4454(4) 0.5931(4) 0.8559(2)
H5 H 0.4471 0.5494 0.8008
N5 N 1.0757(3) 0.9272(3) 0.78182(16)
C9 C 1.1075(4) 1.0393(5) 0.7239(2)
H6 H 1.0226 1.0744 0.7054
C10 C 1.2616(5) 1.1055(5) 0.6903(3)
H7 H 1.2789 1.1829 0.6496
C11 C 1.3882(5) 1.0571(5) 0.7170(3)
H8 H 1.4931 1.1010 0.6953
C12 C 1.3573(5) 0.9423(5) 0.7765(3)
H9 H 1.4412 0.9068 0.7962
C13 C 1.1994(4) 0.8797(5) 0.8069(2)
H10 H 1.1790 0.8005 0.8468
N6 N 0.7634(3) 0.5888(3) 0.46399(16)
C14 C 0.9021(4) 0.7032(5) 0.5146(2)
H11 H 0.8869 0.7439 0.5674
C15 C 1.0663(4) 0.7641(5) 0.4927(3)
H12 H 1.1594 0.8443 0.5299
C16 C 1.0902(5) 0.7044(5) 0.4151(3)
H13 H 1.1996 0.7442 0.3982
C17 C 0.9515(5) 0.5868(6) 0.3637(3)
H14 H 0.9647 0.5437 0.3109
C18 C 0.7901(4) 0.5306(5) 0.3897(2)
H15 H 0.6961 0.4486 0.3537
Fe2A Fe 0.17168(5) 0.17550(5) 0.16386(2)
Fe2A_2 Fe 1.17168(5) 1.17550(5) 1.16386(2)
S1A S 0.44561(11) 0.18764(10) 0.45566(5)
C1A C 0.3621(3) 0.1686(3) 0.35322(19)
N1A N 0.3048(3) 0.1584(3) 0.28188(17)
S2A S 0.21423(11) 0.48173(10) 0.21059(5)
C2A C 0.3248(4) 0.5112(3) 0.30775(19)
N2A N 0.4028(3) 0.5310(3) 0.37555(16)
S3A S 1.13582(10) 0.87019(10) 1.12377(5)
S3A_2 S 0.13582(10) -0.12981(10) 0.12377(5)
C3A C 1.0346(3) 0.8348(3) 1.02386(19)
N3A N 0.9641(3) 0.8122(3) 0.95421(17)
N3_2 N 0.0359(3) 0.1878(3) 0.04579(17)
N4A N 0.4119(3) 0.2815(3) 0.10414(16)
C4A C 0.4184(4) 0.2228(5) 0.0251(2)
H1A H 0.3194 0.1354 -0.0045
C5A C 0.5643(5) 0.2852(5) -0.0148(3)
H2A H 0.5630 0.2411 -0.0703
C6A C 0.7111(5) 0.4131(5) 0.0280(3)
H3A H 0.8123 0.4558 0.0030
C7A C 0.7057(5) 0.4761(5) 0.1080(3)
H4A H 0.8028 0.5650 0.1382
C8A C 0.5546(4) 0.4069(4) 0.1441(2)
H5A H 0.5529 0.4506 0.1992
N5A N -0.0757(3) 0.0728(3) 0.21818(16)
C9A C -0.1075(4) -0.0393(5) 0.2761(2)
H6A H -0.0226 -0.0744 0.2946
C10A C -0.2616(5) -0.1055(5) 0.3097(3)
H7A H -0.2789 -0.1829 0.3504
C11A C -0.3882(5) -0.0571(5) 0.2830(3)
H8A H -0.4931 -0.1010 0.3047
C12A C -0.3573(5) 0.0577(5) 0.2235(3)
H9A H -0.4412 0.0932 0.2038
C13A C -0.1994(4) 0.1203(5) 0.1931(2)
H10A H -0.1790 0.1995 0.1532
N6A N 0.2366(3) 0.4112(3) 0.53601(16)
C14A C 0.0979(4) 0.2968(5) 0.4854(2)
H11A H 0.1131 0.2561 0.4326
C15A C -0.0663(4) 0.2359(5) 0.5073(3)
H12A H -0.1594 0.1557 0.4701
C16A C -0.0902(5) 0.2956(5) 0.5849(3)
H13A H -0.1996 0.2558 0.6018
C17A C 0.0485(5) 0.4132(6) 0.6363(3)
H14A H 0.0353 0.4563 0.6891
C18A C 0.2099(4) 0.4694(5) 0.6103(2)
H15A H 0.3039 0.5514 0.6463
loop_
_geom_bond_atom_site_label_1
_geom_bond_atom_site_label_2
_geom_bond_site_symmetry_1
_geom_bond_site_symmetry_2
Fe1 S1 1_555 1_555
Fe2 N1 1_555 1_555
S1 C1 1_555 1_555
C1 N1 1_555 1_555
S2 Fe2 1_555 1_555
C2 S2 1_555 1_555
N2 Fe1 1_555 1_555
S3 Fe2 1_555 1_555
C3 S3 1_555 1_555
N3 C3 1_555 1_555
N4 Fe2 1_555 1_555
C4 N4 1_555 1_555
H1 C4 1_555 1_555
C5 C4 1_555 1_555
H2 C5 1_555 1_555
C6 C5 1_555 1_555
H3 C6 1_555 1_555
C7 C6 1_555 1_555
H4 C7 1_555 1_555
C8 N4 1_555 1_555
H5 C8 1_555 1_555
N5 Fe2 1_555 1_555
C9 N5 1_555 1_555
H6 C9 1_555 1_555
C10 C9 1_555 1_555
H7 C10 1_555 1_555
C11 C10 1_555 1_555
H8 C11 1_555 1_555
C12 C11 1_555 1_555
H9 C12 1_555 1_555
C13 N5 1_555 1_555
H10 C13 1_555 1_555
N6 Fe1 1_555 1_555
C14 N6 1_555 1_555
H11 C14 1_555 1_555
C15 C14 1_555 1_555
H12 C15 1_555 1_555
C16 C15 1_555 1_555
H13 C16 1_555 1_555
C17 C16 1_555 1_555
H14 C17 1_555 1_555
C18 N6 1_555 1_555
H15 C18 1_555 1_555
Fe2A N1A 1_555 1_555
Fe2A_2 N3 1_555 1_555
S1A Fe1 1_555 1_555
C1A S1A 1_555 1_555
N1A C1A 1_555 1_555
S2A Fe2A 1_555 1_555
C2A S2A 1_555 1_555
N2A Fe1 1_555 1_555
S3A Fe2A_2 1_555 1_555
S3A_2 Fe2A 1_555 1_555
C3A S3A 1_555 1_555
N3A Fe2 1_555 1_555
N3_2 Fe2A 1_555 1_555
N4A Fe2A 1_555 1_555
C4A N4A 1_555 1_555
H1A C4A 1_555 1_555
C5A C4A 1_555 1_555
H2A C5A 1_555 1_555
C6A C5A 1_555 1_555
H3A C6A 1_555 1_555
C7A C6A 1_555 1_555
H4A C7A 1_555 1_555
C8A N4A 1_555 1_555
H5A C8A 1_555 1_555
N5A Fe2A 1_555 1_555
C9A N5A 1_555 1_555
H6A C9A 1_555 1_555
C10A C9A 1_555 1_555
H7A C10A 1_555 1_555
C11A C10A 1_555 1_555
H8A C11A 1_555 1_555
C12A C11A 1_555 1_555
H9A C12A 1_555 1_555
C13A N5A 1_555 1_555
H10A C13A 1_555 1_555
N6A Fe1 1_555 1_555
C14A N6A 1_555 1_555
H11A C14A 1_555 1_555
C15A C14A 1_555 1_555
H12A C15A 1_555 1_555
C16A C15A 1_555 1_555
H13A C16A 1_555 1_555
C17A C16A 1_555 1_555
H14A C17A 1_555 1_555
C18A N6A 1_555 1_555
H15A C18A 1_555 1_555
C2 N2 1_555 1_555
C7 C8 1_555 1_555
C12 C13 1_555 1_555
C17 C18 1_555 1_555
C2A N2A 1_555 1_555
C3A N3A 1_555 1_555
C7A C8A 1_555 1_555
C12A C13A 1_555 1_555
C17A C18A 1_555 1_555

#END
