
#######################################################################
#
#                 Cambridge Crystallographic Data Centre
#                                CCDC 
#
#######################################################################
#
# If this CIF has been generated from an entry in the Cambridge 
# Structural Database, then it will include bibliographic, chemical, 
# crystal, experimental, refinement or atomic coordinate data resulting 
# from the CCDC's data processing and validation procedures.
#
#######################################################################

data_FASCUZ
_symmetry_cell_setting           triclinic
_symmetry_space_group_name_H-M   'P -1'
_symmetry_Int_Tables_number      2
_space_group_name_Hall           '-P 1'
loop_
_symmetry_equiv_pos_site_id
_symmetry_equiv_pos_as_xyz
1 x,y,z
2 -x,-y,-z
_cell_length_a                   8.9072(9)
_cell_length_b                   7.9928(7)
_cell_length_c                   16.5154(16)
_cell_angle_alpha                96.384(11)
_cell_angle_beta                 96.453(11)
_cell_angle_gamma                112.513(10)
_cell_volume                     1063.96
loop_
_atom_site_label
_atom_site_type_symbol
_atom_site_fract_x
_atom_site_fract_y
_atom_site_fract_z
Mn1 Mn 0.5000 0.5000 0.5000
Mn2 Mn 0.82809(7) 0.82371(9) 0.83509(4)
S1 S 0.56851(13) 0.85766(16) 0.56113(6)
C1 C 0.6455(5) 0.8603(6) 0.6575(3)
N1 N 0.6993(4) 0.8639(6) 0.7259(2)
S2 S 0.77279(13) 0.47375(16) 0.77212(6)
C2 C 0.6672(5) 0.4610(6) 0.6815(3)
N2 N 0.5909(4) 0.4493(5) 0.6172(2)
S3 S 0.87898(13) 1.17505(16) 0.89281(6)
C3 C 0.9726(5) 1.1923(6) 0.9866(2)
N3 N 1.0386(4) 1.2071(5) 1.0542(2)
N4 N 0.5953(4) 0.7139(5) 0.8925(2)
C4 C 0.5897(5) 0.7825(7) 0.9696(3)
H1 H 0.6875 0.8764 1.0011
C5 C 0.4495(6) 0.7241(7) 1.0057(3)
H2 H 0.4515 0.7785 1.0601
C6 C 0.3078(6) 0.5870(7) 0.9619(3)
H3 H 0.2095 0.5449 0.9850
C7 C 0.3120(6) 0.5116(8) 0.8830(3)
H4 H 0.2167 0.4143 0.8514
C8 C 0.4555(5) 0.5789(7) 0.8505(3)
H5 H 0.4556 0.5274 0.7958
N5 N 1.0695(4) 0.9275(5) 0.7829(2)
C9 C 1.0947(6) 1.0392(7) 0.7266(3)
H6 H 1.0098 1.0771 0.7079
C10 C 1.2400(6) 1.1016(7) 0.6945(3)
H7 H 1.2527 1.1790 0.6538
C11 C 1.3675(6) 1.0504(7) 0.7221(3)
H8 H 1.4684 1.0922 0.7012
C12 C 1.3415(6) 0.9372(8) 0.7804(3)
H9 H 1.4253 0.8995 0.8012
C13 C 1.1926(5) 0.8785(7) 0.8088(3)
H10 H 1.1766 0.7993 0.8488
N6 N 0.7561(4) 0.5798(5) 0.4650(2)
C14 C 0.8911(5) 0.7072(7) 0.5137(3)
H11 H 0.8796 0.7605 0.5657
C15 C 1.0459(6) 0.7647(8) 0.4921(3)
H12 H 1.1383 0.8552 0.5287
C16 C 1.0651(6) 0.6898(7) 0.4168(3)
H13 H 1.1703 0.7284 0.4002
C17 C 0.9275(6) 0.5568(7) 0.3659(3)
H14 H 0.9367 0.5012 0.3139
C18 C 0.7757(5) 0.5054(7) 0.3917(3)
H15 H 0.6818 0.4141 0.3563
Mn2A Mn 0.17191(7) 0.17629(9) 0.16491(4)
Mn2A_2 Mn 1.17191(7) 1.17629(9) 1.16491(4)
S1A S 0.43149(13) 0.14234(16) 0.43887(6)
C1A C 0.3545(5) 0.1397(6) 0.3425(3)
N1A N 0.3007(4) 0.1361(6) 0.2741(2)
S2A S 0.22721(13) 0.52625(16) 0.22788(6)
C2A C 0.3328(5) 0.5390(6) 0.3185(3)
N2A N 0.4091(4) 0.5507(5) 0.3828(2)
S3A S 1.12102(13) 0.82495(16) 1.10719(6)
S3A_2 S 0.12102(13) -0.17505(16) 0.10719(6)
C3A C 1.0274(5) 0.8077(6) 1.0134(2)
N3A N 0.9614(4) 0.7929(5) 0.9458(2)
N3_2 N 0.0386(4) 0.2071(5) 0.0542(2)
N4A N 0.4047(4) 0.2861(5) 0.1075(2)
C4A C 0.4103(5) 0.2175(7) 0.0304(3)
H1A H 0.3125 0.1236 -0.0011
C5A C 0.5505(6) 0.2759(7) -0.0057(3)
H2A H 0.5485 0.2215 -0.0601
C6A C 0.6922(6) 0.4130(7) 0.0381(3)
H3A H 0.7905 0.4551 0.0150
C7A C 0.6880(6) 0.4884(8) 0.1170(3)
H4A H 0.7833 0.5857 0.1486
C8A C 0.5445(5) 0.4211(7) 0.1495(3)
H5A H 0.5444 0.4726 0.2042
N5A N -0.0695(4) 0.0725(5) 0.2171(2)
C9A C -0.0947(6) -0.0392(7) 0.2734(3)
H6A H -0.0098 -0.0771 0.2921
C10A C -0.2400(6) -0.1016(7) 0.3055(3)
H7A H -0.2527 -0.1790 0.3462
C11A C -0.3675(6) -0.0504(7) 0.2779(3)
H8A H -0.4684 -0.0922 0.2988
C12A C -0.3415(6) 0.0628(8) 0.2196(3)
H9A H -0.4253 0.1005 0.1988
C13A C -0.1926(5) 0.1215(7) 0.1912(3)
H10A H -0.1766 0.2007 0.1512
N6A N 0.2439(4) 0.4202(5) 0.5350(2)
C14A C 0.1089(5) 0.2928(7) 0.4863(3)
H11A H 0.1204 0.2395 0.4343
C15A C -0.0459(6) 0.2353(8) 0.5079(3)
H12A H -0.1383 0.1448 0.4713
C16A C -0.0651(6) 0.3102(7) 0.5832(3)
H13A H -0.1703 0.2716 0.5998
C17A C 0.0725(6) 0.4432(7) 0.6341(3)
H14A H 0.0633 0.4988 0.6861
C18A C 0.2243(5) 0.4946(7) 0.6083(3)
H15A H 0.3182 0.5859 0.6437
loop_
_geom_bond_atom_site_label_1
_geom_bond_atom_site_label_2
_geom_bond_site_symmetry_1
_geom_bond_site_symmetry_2
Mn1 S1 1_555 1_555
Mn2 N1 1_555 1_555
S1 C1 1_555 1_555
C1 N1 1_555 1_555
S2 Mn2 1_555 1_555
C2 S2 1_555 1_555
N2 Mn1 1_555 1_555
S3 Mn2 1_555 1_555
C3 S3 1_555 1_555
N3 C3 1_555 1_555
N4 Mn2 1_555 1_555
C4 N4 1_555 1_555
H1 C4 1_555 1_555
C5 C4 1_555 1_555
H2 C5 1_555 1_555
C6 C5 1_555 1_555
H3 C6 1_555 1_555
C7 C6 1_555 1_555
H4 C7 1_555 1_555
C8 N4 1_555 1_555
H5 C8 1_555 1_555
N5 Mn2 1_555 1_555
C9 N5 1_555 1_555
H6 C9 1_555 1_555
C10 C9 1_555 1_555
H7 C10 1_555 1_555
C11 C10 1_555 1_555
H8 C11 1_555 1_555
C12 C11 1_555 1_555
H9 C12 1_555 1_555
C13 N5 1_555 1_555
H10 C13 1_555 1_555
N6 Mn1 1_555 1_555
C14 N6 1_555 1_555
H11 C14 1_555 1_555
C15 C14 1_555 1_555
H12 C15 1_555 1_555
C16 C15 1_555 1_555
H13 C16 1_555 1_555
C17 C16 1_555 1_555
H14 C17 1_555 1_555
C18 N6 1_555 1_555
H15 C18 1_555 1_555
Mn2A N1A 1_555 1_555
Mn2A_2 N3 1_555 1_555
S1A Mn1 1_555 1_555
C1A S1A 1_555 1_555
N1A C1A 1_555 1_555
S2A Mn2A 1_555 1_555
C2A S2A 1_555 1_555
N2A Mn1 1_555 1_555
S3A Mn2A_2 1_555 1_555
S3A_2 Mn2A 1_555 1_555
C3A S3A 1_555 1_555
N3A Mn2 1_555 1_555
N3_2 Mn2A 1_555 1_555
N4A Mn2A 1_555 1_555
C4A N4A 1_555 1_555
H1A C4A 1_555 1_555
C5A C4A 1_555 1_555
H2A C5A 1_555 1_555
C6A C5A 1_555 1_555
H3A C6A 1_555 1_555
C7A C6A 1_555 1_555
H4A C7A 1_555 1_555
C8A N4A 1_555 1_555
H5A C8A 1_555 1_555
N5A Mn2A 1_555 1_555
C9A N5A 1_555 1_555
H6A C9A 1_555 1_555
C10A C9A 1_555 1_555
H7A C10A 1_555 1_555
C11A C10A 1_555 1_555
H8A C11A 1_555 1_555
C12A C11A 1_555 1_555
H9A C12A 1_555 1_555
C13A N5A 1_555 1_555
H10A C13A 1_555 1_555
N6A Mn1 1_555 1_555
C14A N6A 1_555 1_555
H11A C14A 1_555 1_555
C15A C14A 1_555 1_555
H12A C15A 1_555 1_555
C16A C15A 1_555 1_555
H13A C16A 1_555 1_555
C17A C16A 1_555 1_555
H14A C17A 1_555 1_555
C18A N6A 1_555 1_555
H15A C18A 1_555 1_555
C2 N2 1_555 1_555
C7 C8 1_555 1_555
C12 C13 1_555 1_555
C17 C18 1_555 1_555
C2A N2A 1_555 1_555
C3A N3A 1_555 1_555
C7A C8A 1_555 1_555
C12A C13A 1_555 1_555
C17A C18A 1_555 1_555

#END
