
#######################################################################
#
#                 Cambridge Crystallographic Data Centre
#                                CCDC 
#
#######################################################################
#
# If this CIF has been generated from an entry in the Cambridge 
# Structural Database, then it will include bibliographic, chemical, 
# crystal, experimental, refinement or atomic coordinate data resulting 
# from the CCDC's data processing and validation procedures.
#
#######################################################################

data_FASCUZ01
_symmetry_cell_setting           triclinic
_symmetry_space_group_name_H-M   'P -1'
_symmetry_Int_Tables_number      2
_space_group_name_Hall           '-P 1'
loop_
_symmetry_equiv_pos_site_id
_symmetry_equiv_pos_as_xyz
1 x,y,z
2 -x,-y,-z
_cell_length_a                   8.7530(12)
_cell_length_b                   8.7920(12)
_cell_length_c                   15.838(2)
_cell_angle_alpha                92.823(10)
_cell_angle_beta                 96.382(10)
_cell_angle_gamma                114.552(10)
_cell_volume                     1095.61
loop_
_atom_site_label
_atom_site_type_symbol
_atom_site_fract_x
_atom_site_fract_y
_atom_site_fract_z
Mn1 Mn 0.5000 0.5000 0.5000
Mn2 Mn 0.83073(6) 0.82530(6) 0.83579(3)
S1 S 0.55494(14) 0.82355(12) 0.54781(6)
C1 C 0.6396(4) 0.8392(4) 0.6474(3)
N1 N 0.6990(4) 0.8487(4) 0.7177(2)
S2 S 0.78301(13) 0.50661(13) 0.78636(6)
C2 C 0.6748(4) 0.4834(4) 0.6917(2)
N2 N 0.5983(4) 0.4656(4) 0.6248(2)
S3 S 0.86890(13) 1.14303(12) 0.87864(6)
C3 C 0.9657(4) 1.1713(4) 0.9764(2)
N3 N 1.0330(4) 1.1920(4) 1.0462(2)
N4 N 0.5865(4) 0.7183(4) 0.8963(2)
C4 C 0.5803(6) 0.7778(6) 0.9741(3)
H1 H 0.6778 0.8648 1.0035
C5 C 0.4379(7) 0.7176(7) 1.0132(4)
H2 H 0.4393 0.7631 1.0677
C6 C 0.2938(7) 0.5897(7) 0.9709(4)
H3 H 0.1947 0.5477 0.9955
C7 C 0.2983(6) 0.5256(6) 0.8925(4)
H4 H 0.2022 0.4376 0.8625
C8 C 0.4474(5) 0.5921(5) 0.8571(3)
H5 H 0.4496 0.5459 0.8034
N5 N 1.0815(4) 0.9300(4) 0.7808(2)
C9 C 1.1124(6) 1.0393(6) 0.7241(3)
H6 H 1.0285 1.0737 0.7052
C10 C 1.2638(7) 1.1053(6) 0.6912(4)
H7 H 1.2811 1.1826 0.6511
C11 C 1.3877(6) 1.0553(6) 0.7184(4)
H8 H 1.4907 1.0980 0.6973
C12 C 1.3581(6) 0.9435(7) 0.7762(4)
H9 H 1.4402 0.9071 0.7954
C13 C 1.2046(6) 0.8834(6) 0.8066(3)
H10 H 1.1859 0.8067 0.8470
N6 N 0.2335(4) 0.4086(4) 0.5371(2)
C14 C 0.0976(5) 0.2951(6) 0.4876(3)
H11 H 0.1125 0.2541 0.4353
C15 C -0.0638(6) 0.2342(7) 0.5084(4)
H12 H -0.1550 0.1539 0.4715
C16 C -0.0871(6) 0.2944(7) 0.5845(4)
H13 H -0.1944 0.2545 0.6011
C17 C 0.0493(7) 0.4138(7) 0.6355(4)
H14 H 0.0365 0.4577 0.6875
C18 C 0.2076(6) 0.4696(6) 0.6094(3)
H15 H 0.2996 0.5536 0.6443
Mn2A Mn 0.16927(6) 0.17470(6) 0.16421(3)
Mn2A_2 Mn 1.16927(6) 1.17470(6) 1.16421(3)
S1A S 0.44506(14) 0.17645(12) 0.45219(6)
C1A C 0.3604(4) 0.1608(4) 0.3526(3)
N1A N 0.3010(4) 0.1513(4) 0.2823(2)
S2A S 0.21699(13) 0.49339(13) 0.21364(6)
C2A C 0.3252(4) 0.5166(4) 0.3083(2)
N2A N 0.4017(4) 0.5344(4) 0.3752(2)
S3A S 1.13110(13) 0.85697(12) 1.12136(6)
S3A_2 S 0.13110(13) -0.14303(12) 0.12136(6)
C3A C 1.0343(4) 0.8287(4) 1.0236(2)
N3A N 0.9670(4) 0.8080(4) 0.9538(2)
N3_2 N 0.0330(4) 0.1920(4) 0.0462(2)
N4A N 0.4135(4) 0.2817(4) 0.1037(2)
C4A C 0.4197(6) 0.2222(6) 0.0259(3)
H1A H 0.3222 0.1352 -0.0035
C5A C 0.5621(7) 0.2824(7) -0.0132(4)
H2A H 0.5607 0.2369 -0.0677
C6A C 0.7062(7) 0.4103(7) 0.0291(4)
H3A H 0.8053 0.4523 0.0045
C7A C 0.7017(6) 0.4744(6) 0.1075(4)
H4A H 0.7978 0.5624 0.1375
C8A C 0.5526(5) 0.4079(5) 0.1429(3)
H5A H 0.5504 0.4541 0.1966
N5A N -0.0815(4) 0.0700(4) 0.2192(2)
C9A C -0.1124(6) -0.0393(6) 0.2759(3)
H6A H -0.0285 -0.0737 0.2948
C10A C -0.2638(7) -0.1053(6) 0.3088(4)
H7A H -0.2811 -0.1826 0.3489
C11A C -0.3877(6) -0.0553(6) 0.2816(4)
H8A H -0.4907 -0.0980 0.3027
C12A C -0.3581(6) 0.0565(7) 0.2238(4)
H9A H -0.4402 0.0929 0.2046
C13A C -0.2046(6) 0.1166(6) 0.1934(3)
H10A H -0.1859 0.1933 0.1530
N6A N 0.7665(4) 0.5914(4) 0.4629(2)
C14A C 0.9024(5) 0.7049(6) 0.5124(3)
H11A H 0.8875 0.7459 0.5647
C15A C 1.0638(6) 0.7658(7) 0.4916(4)
H12A H 1.1550 0.8461 0.5285
C16A C 1.0871(6) 0.7056(7) 0.4155(4)
H13A H 1.1944 0.7455 0.3989
C17A C 0.9507(7) 0.5862(7) 0.3645(4)
H14A H 0.9635 0.5423 0.3125
C18A C 0.7924(6) 0.5304(6) 0.3906(3)
H15A H 0.7004 0.4464 0.3557
loop_
_geom_bond_atom_site_label_1
_geom_bond_atom_site_label_2
_geom_bond_site_symmetry_1
_geom_bond_site_symmetry_2
Mn1 S1 1_555 1_555
Mn2 N1 1_555 1_555
S1 C1 1_555 1_555
C1 N1 1_555 1_555
S2 Mn2 1_555 1_555
C2 S2 1_555 1_555
N2 Mn1 1_555 1_555
S3 Mn2 1_555 1_555
C3 S3 1_555 1_555
N3 C3 1_555 1_555
N4 Mn2 1_555 1_555
C4 N4 1_555 1_555
H1 C4 1_555 1_555
C5 C4 1_555 1_555
H2 C5 1_555 1_555
C6 C5 1_555 1_555
H3 C6 1_555 1_555
C7 C6 1_555 1_555
H4 C7 1_555 1_555
C8 N4 1_555 1_555
H5 C8 1_555 1_555
N5 Mn2 1_555 1_555
C9 N5 1_555 1_555
H6 C9 1_555 1_555
C10 C9 1_555 1_555
H7 C10 1_555 1_555
C11 C10 1_555 1_555
H8 C11 1_555 1_555
C12 C11 1_555 1_555
H9 C12 1_555 1_555
C13 N5 1_555 1_555
H10 C13 1_555 1_555
N6 Mn1 1_555 1_555
C14 N6 1_555 1_555
H11 C14 1_555 1_555
C15 C14 1_555 1_555
H12 C15 1_555 1_555
C16 C15 1_555 1_555
H13 C16 1_555 1_555
C17 C16 1_555 1_555
H14 C17 1_555 1_555
C18 N6 1_555 1_555
H15 C18 1_555 1_555
Mn2A N1A 1_555 1_555
Mn2A_2 N3 1_555 1_555
S1A Mn1 1_555 1_555
C1A S1A 1_555 1_555
N1A C1A 1_555 1_555
S2A Mn2A 1_555 1_555
C2A S2A 1_555 1_555
N2A Mn1 1_555 1_555
S3A Mn2A_2 1_555 1_555
S3A_2 Mn2A 1_555 1_555
C3A S3A 1_555 1_555
N3A Mn2 1_555 1_555
N3_2 Mn2A 1_555 1_555
N4A Mn2A 1_555 1_555
C4A N4A 1_555 1_555
H1A C4A 1_555 1_555
C5A C4A 1_555 1_555
H2A C5A 1_555 1_555
C6A C5A 1_555 1_555
H3A C6A 1_555 1_555
C7A C6A 1_555 1_555
H4A C7A 1_555 1_555
C8A N4A 1_555 1_555
H5A C8A 1_555 1_555
N5A Mn2A 1_555 1_555
C9A N5A 1_555 1_555
H6A C9A 1_555 1_555
C10A C9A 1_555 1_555
H7A C10A 1_555 1_555
C11A C10A 1_555 1_555
H8A C11A 1_555 1_555
C12A C11A 1_555 1_555
H9A C12A 1_555 1_555
C13A N5A 1_555 1_555
H10A C13A 1_555 1_555
N6A Mn1 1_555 1_555
C14A N6A 1_555 1_555
H11A C14A 1_555 1_555
C15A C14A 1_555 1_555
H12A C15A 1_555 1_555
C16A C15A 1_555 1_555
H13A C16A 1_555 1_555
C17A C16A 1_555 1_555
H14A C17A 1_555 1_555
C18A N6A 1_555 1_555
H15A C18A 1_555 1_555
C2 N2 1_555 1_555
C7 C8 1_555 1_555
C12 C13 1_555 1_555
C17 C18 1_555 1_555
C2A N2A 1_555 1_555
C3A N3A 1_555 1_555
C7A C8A 1_555 1_555
C12A C13A 1_555 1_555
C17A C18A 1_555 1_555

#END
