
#######################################################################
#
#                 Cambridge Crystallographic Data Centre
#                                CCDC 
#
#######################################################################
#
# If this CIF has been generated from an entry in the Cambridge 
# Structural Database, then it will include bibliographic, chemical, 
# crystal, experimental, refinement or atomic coordinate data resulting 
# from the CCDC's data processing and validation procedures.
#
#######################################################################

data_FASKOZ
_symmetry_cell_setting           triclinic
_symmetry_space_group_name_H-M   'P -1'
_symmetry_Int_Tables_number      2
_space_group_name_Hall           '-P 1'
loop_
_symmetry_equiv_pos_site_id
_symmetry_equiv_pos_as_xyz
1 x,y,z
2 -x,-y,-z
_cell_length_a                   7.492(8)
_cell_length_b                   8.954(11)
_cell_length_c                   10.544(10)
_cell_angle_alpha                68.1(1)
_cell_angle_beta                 111.0(1)
_cell_angle_gamma                111.0(1)
_cell_volume                     591.72
loop_
_atom_site_label
_atom_site_type_symbol
_atom_site_fract_x
_atom_site_fract_y
_atom_site_fract_z
Sb1 Sb 0.0060(1) 0.1675(1) 0.3197(1)
Cl1 Cl 0.0316(7) 0.3530(5) 0.4432(4)
Cl2 Cl 0.2925(7) 0.3456(5) 0.2373(4)
Cl3 Cl -0.2252(11) 0.2705(8) 0.1138(6)
O1 O -0.2965(12) -0.0161(11) 0.4628(10)
C1 C -0.4712(16) -0.0407(14) 0.4603(13)
N1 N -0.6275(15) -0.1410(14) 0.3951(13)
C2 C -0.5997(26) -0.2299(24) 0.3140(23)
O2 O 0.0209(15) -0.0252(11) 0.1779(9)
C3 C -0.0432(17) -0.0579(14) 0.0624(11)
N2 N -0.1803(17) -0.1937(12) 0.0392(10)
C4 C -0.2748(25) -0.3177(17) 0.1415(16)
H1 H -0.7564(15) -0.1547(14) 0.4008(13)
H2 H -0.7309(26) -0.2950(24) 0.2861(23)
H3 H -0.5278(26) -0.2951(24) 0.3969(23)
H4 H -0.5367(26) -0.1941(24) 0.2401(23)
H5 H -0.2180(17) -0.2088(12) -0.0523(10)
H6 H -0.3001(25) -0.4297(17) 0.1419(16)
H7 H -0.3965(25) -0.2926(17) 0.1219(16)
H8 H -0.1944(25) -0.3037(17) 0.2314(16)
O1A O 0.2965(12) 0.0161(11) 0.5372(10)
Sb1A Sb -0.0060(1) -0.1675(1) 0.6803(1)
C1A C -0.5288(16) 0.0407(14) 0.5397(13)
C3A C 0.0432(17) 0.0579(14) -0.0624(11)
Cl1A Cl -0.0316(7) -0.3530(5) 0.5568(4)
Cl2A Cl -0.2925(7) -0.3456(5) 0.7627(4)
Cl3A Cl 0.2252(11) -0.2705(8) 0.8862(6)
O2A O -0.0209(15) 0.0252(11) 0.8221(9)
O1A_2 O -0.7035(12) 0.0161(11) 0.5372(10)
N1A N -0.3725(15) 0.1410(14) 0.6049(13)
O2A_2 O -0.0209(15) 0.0252(11) -0.1779(9)
N2A N 0.1803(17) 0.1937(12) -0.0392(10)
C2A C -0.4003(26) 0.2299(24) 0.6860(23)
H1A H -0.2436(15) 0.1547(14) 0.5992(13)
C4A C 0.2748(25) 0.3177(17) -0.1415(16)
H5A H 0.2180(17) 0.2088(12) 0.0523(10)
H2A H -0.2691(26) 0.2950(24) 0.7139(23)
H3A H -0.4722(26) 0.2951(24) 0.6031(23)
H4A H -0.4633(26) 0.1941(24) 0.7599(23)
H6A H 0.3001(25) 0.4297(17) -0.1419(16)
H7A H 0.3965(25) 0.2926(17) -0.1219(16)
H8A H 0.1944(25) 0.3037(17) -0.2314(16)
Sb1_2 Sb -0.9940(1) 0.1675(1) 0.3197(1)
Sb1A_2 Sb -1.0060(1) -0.1675(1) 0.6803(1)
Sb1A_3 Sb -0.0060(1) -0.1675(1) -0.3197(1)
loop_
_geom_bond_atom_site_label_1
_geom_bond_atom_site_label_2
_geom_bond_site_symmetry_1
_geom_bond_site_symmetry_2
Sb1 Cl1 1_555 1_555
Cl2 Sb1 1_555 1_555
Cl3 Sb1 1_555 1_555
O1 Sb1 1_555 1_555
C1 O1 1_555 1_555
N1 C1 1_555 1_555
C2 N1 1_555 1_555
O2 Sb1 1_555 1_555
C3 O2 1_555 1_555
N2 C3 1_555 1_555
C4 N2 1_555 1_555
H1 N1 1_555 1_555
H2 C2 1_555 1_555
H3 C2 1_555 1_555
H4 C2 1_555 1_555
H5 N2 1_555 1_555
H6 C4 1_555 1_555
H7 C4 1_555 1_555
H8 C4 1_555 1_555
O1A Sb1 1_555 1_555
Sb1A O1 1_555 1_555
C1A C1 1_555 1_555
C3A C3 1_555 1_555
Cl1A Sb1A 1_555 1_555
Cl2A Sb1A 1_555 1_555
Cl3A Sb1A 1_555 1_555
O2A Sb1A 1_555 1_555
O1A_2 C1A 1_555 1_555
N1A C1A 1_555 1_555
O2A_2 C3A 1_555 1_555
N2A C3A 1_555 1_555
C2A N1A 1_555 1_555
H1A N1A 1_555 1_555
C4A N2A 1_555 1_555
H5A N2A 1_555 1_555
H2A C2A 1_555 1_555
H3A C2A 1_555 1_555
H4A C2A 1_555 1_555
H6A C4A 1_555 1_555
H7A C4A 1_555 1_555
H8A C4A 1_555 1_555
Sb1_2 O1A_2 1_555 1_555
Sb1A_2 O1A_2 1_555 1_555
Sb1A_3 O2A_2 1_555 1_555
O1A Sb1A 1_555 1_555

#END
