
#######################################################################
#
#                 Cambridge Crystallographic Data Centre
#                                CCDC 
#
#######################################################################
#
# If this CIF has been generated from an entry in the Cambridge 
# Structural Database, then it will include bibliographic, chemical, 
# crystal, experimental, refinement or atomic coordinate data resulting 
# from the CCDC's data processing and validation procedures.
#
#######################################################################

data_FASKER
_symmetry_cell_setting           monoclinic
_symmetry_space_group_name_H-M   'P 21/c'
_symmetry_Int_Tables_number      14
_space_group_name_Hall           '-P 2ybc'
loop_
_symmetry_equiv_pos_site_id
_symmetry_equiv_pos_as_xyz
1 x,y,z
2 -x,1/2+y,1/2-z
3 -x,-y,-z
4 x,1/2-y,1/2+z
_cell_length_a                   9.1178(11)
_cell_length_b                   20.181(2)
_cell_length_c                   18.109(3)
_cell_angle_alpha                90
_cell_angle_beta                 101.976(10)
_cell_angle_gamma                90
_cell_volume                     3259.64
loop_
_atom_site_label
_atom_site_type_symbol
_atom_site_fract_x
_atom_site_fract_y
_atom_site_fract_z
Ag1 Ag -0.64759(4) 0.723986(18) -0.329620(19)
Ag2 Ag -0.38698(4) 0.768929(19) -0.417428(18)
C1 C -0.4076(6) 0.6794(2) -0.1915(3)
H1 H -0.4453 0.6382 -0.2092
C2 C -0.2918(6) 0.6816(2) -0.1280(3)
H2 H -0.2549 0.6425 -0.1040
C3 C -0.2321(5) 0.7413(2) -0.1008(2)
C4 C -0.1049(5) 0.7470(2) -0.0354(2)
C5 C -0.0129(6) 0.6942(2) -0.0084(3)
H3 H -0.0339 0.6523 -0.0295
C6 C 0.1098(6) 0.7032(2) 0.0496(3)
H4 H 0.1691 0.6664 0.0661
C7 C 0.0570(7) 0.8100(3) 0.0598(3)
H5 H 0.0779 0.8508 0.0836
C8 C -0.1327(6) 0.7076(2) -0.2962(3)
H6 H -0.1860 0.6692 -0.3125
C9 C -0.0069(6) 0.7024(2) -0.2385(3)
H7 H 0.0236 0.6612 -0.2179
C10 C 0.0728(5) 0.7586(2) -0.2119(2)
C11 C 0.2013(5) 0.7555(2) -0.1465(2)
C12 C 0.2721(6) 0.6966(2) -0.1230(3)
H8 H 0.2431 0.6579 -0.1499
C13 C 0.3865(6) 0.6952(2) -0.0595(3)
H9 H 0.4311 0.6546 -0.0446
C14 C 0.3709(7) 0.8045(2) -0.0418(3)
H10 H 0.4055 0.8427 -0.0149
C15 C -0.8351(9) 0.5007(3) -0.3250(5)
C16 C -0.7150(7) 0.5528(2) -0.3298(3)
C17 C -0.6013(7) 0.5336(2) -0.3665(3)
H11 H -0.6044 0.4906 -0.3851
C18 C -0.4854(6) 0.5735(2) -0.3771(3)
C19 C -0.3591(8) 0.5413(3) -0.4066(4)
C20 C -0.2144(8) 0.9897(3) -0.4442(4)
C21 C -0.3326(6) 0.9408(2) -0.4320(3)
C22 C -0.4336(6) 0.9625(2) -0.3899(3)
H12 H -0.4322 1.0071 -0.3769
C23 C -0.5377(6) 0.9214(2) -0.3658(3)
C24 C -0.6447(7) 0.9525(3) -0.3201(3)
C25 C -0.0689(6) 0.8051(3) 0.0019(3)
H13 H -0.1294 0.8421 -0.0115
C26 C -0.2946(6) 0.7968(2) -0.1394(3)
H14 H -0.2589 0.8387 -0.1235
C27 C -0.4103(6) 0.7902(2) -0.2017(3)
H15 H -0.4504 0.8286 -0.2263
C28 C 0.2539(6) 0.8106(2) -0.1038(3)
H16 H 0.2105 0.8518 -0.1167
C29 C 0.0240(6) 0.8165(2) -0.2476(3)
H17 H 0.0762 0.8555 -0.2331
C30 C -0.1027(6) 0.8178(3) -0.3054(3)
H18 H -0.1335 0.8582 -0.3282
N1 N -0.4671(4) 0.73324(17) -0.22829(18)
N2 N 0.1484(4) 0.76031(18) 0.08300(19)
N3 N -0.1812(4) 0.76410(18) -0.32937(19)
N4 N 0.4362(4) 0.74775(18) -0.01879(19)
O1 O -0.7331(5) 0.60617(18) -0.3001(2)
O2 O -0.4672(4) 0.63413(16) -0.3654(2)
O3 O -0.3209(4) 0.88573(17) -0.4592(2)
O4 O -0.5574(4) 0.86079(14) -0.3756(2)
F1 F -0.9141(9) 0.4868(5) -0.3871(4)
F2 F -0.7757(7) 0.4435(2) -0.2972(5)
F3 F -0.9198(8) 0.5146(3) -0.2792(4)
F4 F -0.3766(5) 0.47873(17) -0.4259(3)
F5 F -0.2338(5) 0.5443(3) -0.3537(3)
F6 F -0.3302(6) 0.5722(2) -0.4660(3)
F7 F -0.0922(6) 0.9818(3) -0.3991(4)
F8 F -0.2528(6) 1.05067(19) -0.4485(4)
F9 F -0.1781(8) 0.9812(3) -0.5104(4)
F10 F -0.6377(5) 1.01759(15) -0.3141(2)
F11 F -0.6179(5) 0.92875(19) -0.2501(2)
F12 F -0.7869(4) 0.93761(19) -0.3491(2)
Ag1C Ag 0.35241(4) 0.776014(18) 0.170380(19)
Ag2C Ag 0.61302(4) 0.731071(19) 0.082572(18)
N2C N -0.8516(4) 0.73969(18) -0.41700(19)
N4C N -0.5638(4) 0.75225(18) -0.51879(19)
loop_
_geom_bond_atom_site_label_1
_geom_bond_atom_site_label_2
_geom_bond_site_symmetry_1
_geom_bond_site_symmetry_2
Ag1 Ag2 1_555 1_555
Ag2 N3 1_555 1_555
C1 H1 1_555 1_555
C2 C1 1_555 1_555
H2 C2 1_555 1_555
C3 C2 1_555 1_555
C4 C3 1_555 1_555
C5 C4 1_555 1_555
H3 C5 1_555 1_555
C6 C5 1_555 1_555
H4 C6 1_555 1_555
C7 H5 1_555 1_555
C8 H6 1_555 1_555
C9 C8 1_555 1_555
H7 C9 1_555 1_555
C10 C9 1_555 1_555
C11 C10 1_555 1_555
C12 C11 1_555 1_555
H8 C12 1_555 1_555
C13 C12 1_555 1_555
H9 C13 1_555 1_555
C14 H10 1_555 1_555
C15 C16 1_555 1_555
C16 C17 1_555 1_555
C17 H11 1_555 1_555
C18 C17 1_555 1_555
C19 C18 1_555 1_555
C20 C21 1_555 1_555
C21 C22 1_555 1_555
C22 H12 1_555 1_555
C23 C22 1_555 1_555
C24 C23 1_555 1_555
C25 C4 1_555 1_555
H13 C25 1_555 1_555
C26 C3 1_555 1_555
H14 C26 1_555 1_555
C27 C26 1_555 1_555
H15 C27 1_555 1_555
C28 C11 1_555 1_555
H16 C28 1_555 1_555
C29 C10 1_555 1_555
H17 C29 1_555 1_555
C30 C29 1_555 1_555
H18 C30 1_555 1_555
N1 Ag1 1_555 1_555
N2 C6 1_555 1_555
N3 C8 1_555 1_555
N4 C13 1_555 1_555
O1 Ag1 1_555 1_555
O2 Ag1 1_555 1_555
O3 Ag2 1_555 1_555
O4 Ag2 1_555 1_555
F1 C15 1_555 1_555
F2 C15 1_555 1_555
F3 C15 1_555 1_555
F4 C19 1_555 1_555
F5 C19 1_555 1_555
F6 C19 1_555 1_555
F7 C20 1_555 1_555
F8 C20 1_555 1_555
F9 C20 1_555 1_555
F10 C24 1_555 1_555
F11 C24 1_555 1_555
F12 C24 1_555 1_555
Ag1C N2 1_555 1_555
Ag2C N4 1_555 1_555
N2C Ag1 1_555 1_555
N4C Ag2 1_555 1_555
C1 N1 1_555 1_555
C7 C25 1_555 1_555
C7 N2 1_555 1_555
C14 C28 1_555 1_555
C14 N4 1_555 1_555
C16 O1 1_555 1_555
C18 O2 1_555 1_555
C21 O3 1_555 1_555
C23 O4 1_555 1_555
C27 N1 1_555 1_555
C30 N3 1_555 1_555
Ag1C Ag2C 1_555 1_555

#END
