
#######################################################################
#
#                 Cambridge Crystallographic Data Centre
#                                CCDC 
#
#######################################################################
#
# If this CIF has been generated from an entry in the Cambridge 
# Structural Database, then it will include bibliographic, chemical, 
# crystal, experimental, refinement or atomic coordinate data resulting 
# from the CCDC's data processing and validation procedures.
#
#######################################################################

data_FASQAT
_symmetry_cell_setting           monoclinic
_symmetry_space_group_name_H-M   'P 21/c'
_symmetry_Int_Tables_number      14
_space_group_name_Hall           '-P 2ybc'
loop_
_symmetry_equiv_pos_site_id
_symmetry_equiv_pos_as_xyz
1 x,y,z
2 -x,1/2+y,1/2-z
3 -x,-y,-z
4 x,1/2-y,1/2+z
_cell_length_a                   10.513(2)
_cell_length_b                   10.280(2)
_cell_length_c                   9.402(2)
_cell_angle_alpha                90
_cell_angle_beta                 116.032(3)
_cell_angle_gamma                90
_cell_volume                     913.023
loop_
_atom_site_label
_atom_site_type_symbol
_atom_site_fract_x
_atom_site_fract_y
_atom_site_fract_z
Cu1 Cu 0.13189(4) 0.57461(4) 0.43251(4)
Cu2 Cu 0.64679(4) 0.25812(4) 0.74374(4)
N1 N 0.5161(3) 0.4016(3) 0.6853(3)
N2 N 0.4000(3) 0.4206(3) 0.5473(3)
N3 N 0.3384(3) 0.5289(3) 0.5591(3)
N4 N 0.4121(3) 0.5841(3) 0.7032(3)
C1 C 0.5179(3) 0.5021(3) 0.7746(4)
N5 N 0.6220(3) 0.5151(3) 0.9379(3)
O1 O 0.6151(3) 0.6122(3) 1.0096(3)
O2 O 0.7064(3) 0.4254(3) 0.9926(3)
N6 N 0.0150(3) 0.4138(3) 0.3407(3)
N7 N -0.0950(3) 0.3793(3) 0.3668(3)
N8 N -0.1541(3) 0.2729(3) 0.2848(3)
N9 N -0.0802(3) 0.2327(3) 0.2060(3)
C2 C 0.0206(3) 0.3219(3) 0.2436(3)
N10 N 0.1285(3) 0.3209(3) 0.1873(3)
O3 O 0.1555(3) 0.2174(3) 0.1440(3)
O4 O 0.1844(3) 0.4259(3) 0.1882(3)
Cu1B Cu -0.13189(4) 0.42539(4) 0.56749(4)
Cu1A Cu -0.13189(4) 0.07461(4) 0.06749(4)
Cu2A Cu 0.35321(4) 0.75812(4) 0.75626(4)
Cu2C Cu -0.35321(4) 0.24188(4) 0.24374(4)
N4A N 0.5879(3) 0.0841(3) 0.7968(3)
N7B N 0.0950(3) 0.6207(3) 0.6332(3)
N8C N 0.8459(3) 0.2271(3) 0.7848(3)
N9A N 0.0802(3) 0.7327(3) 0.2940(3)
loop_
_geom_bond_atom_site_label_1
_geom_bond_atom_site_label_2
_geom_bond_site_symmetry_1
_geom_bond_site_symmetry_2
Cu1 N3 1_555 1_555
Cu2 N1 1_555 1_555
N1 N2 1_555 1_555
N2 N3 1_555 1_555
N3 N4 1_555 1_555
N4 C1 1_555 1_555
C1 N1 1_555 1_555
N5 C1 1_555 1_555
O1 N5 1_555 1_555
O2 N5 1_555 1_555
N6 Cu1 1_555 1_555
N7 N6 1_555 1_555
N8 N7 1_555 1_555
N9 N8 1_555 1_555
C2 N6 1_555 1_555
N10 C2 1_555 1_555
O3 N10 1_555 1_555
O4 N10 1_555 1_555
Cu1B N7 1_555 1_555
Cu1A N9 1_555 1_555
Cu2A N4 1_555 1_555
Cu2C N8 1_555 1_555
N4A Cu2 1_555 1_555
N7B Cu1 1_555 1_555
N8C Cu2 1_555 1_555
N9A Cu1 1_555 1_555
N9 C2 1_555 1_555

#END
