
#######################################################################
#
#                 Cambridge Crystallographic Data Centre
#                                CCDC 
#
#######################################################################
#
# If this CIF has been generated from an entry in the Cambridge 
# Structural Database, then it will include bibliographic, chemical, 
# crystal, experimental, refinement or atomic coordinate data resulting 
# from the CCDC's data processing and validation procedures.
#
#######################################################################

data_FASSID
_symmetry_cell_setting           monoclinic
_symmetry_space_group_name_H-M   'P 21/c'
_symmetry_Int_Tables_number      14
_space_group_name_Hall           '-P 2ybc'
loop_
_symmetry_equiv_pos_site_id
_symmetry_equiv_pos_as_xyz
1 x,y,z
2 -x,1/2+y,1/2-z
3 -x,-y,-z
4 x,1/2-y,1/2+z
_cell_length_a                   9.91380(10)
_cell_length_b                   14.9969(2)
_cell_length_c                   8.55450(10)
_cell_angle_alpha                90
_cell_angle_beta                 98.5820(10)
_cell_angle_gamma                90
_cell_volume                     1257.61
loop_
_atom_site_label
_atom_site_type_symbol
_atom_site_fract_x
_atom_site_fract_y
_atom_site_fract_z
C1 C 0.3075(3) 0.2477(2) 0.2908(4)
C2 C 0.4414(3) 0.2871(2) 0.2559(4)
C3 C 0.5603(3) 0.2375(3) 0.2790(5)
H1 H 0.5581 0.1793 0.3164
C4 C 0.6830(3) 0.2728(2) 0.2472(4)
H2 H 0.7618 0.2383 0.2589
C5 C 0.6852(3) 0.3605(2) 0.1980(4)
C6 C 0.8120(3) 0.4094(2) 0.1659(4)
C7 C 0.5654(3) 0.4081(2) 0.1765(4)
H3 H 0.5668 0.4672 0.1437
C8 C -0.0876(3) 0.4379(2) -0.2789(4)
C9 C -0.1775(5) 0.4738(4) -0.4211(5)
H4 H -0.1229 0.5054 -0.4866
H5 H -0.2435 0.5137 -0.3879
H6 H -0.2236 0.4254 -0.4800
La1 La 0.118439(14) 0.383027(11) 0.002701(19)
N1 N 0.4455(2) 0.37193(17) 0.2016(3)
O1 O 0.33743(19) 0.42393(16) 0.1758(3)
O2 O 0.1989(2) 0.2748(2) 0.2150(3)
O3 O 0.3182(2) 0.18881(17) 0.3937(3)
O4 O 0.9193(2) 0.36446(16) 0.1659(3)
O5 O 0.7992(2) 0.49087(16) 0.1448(3)
O6 O -0.0092(3) 0.37401(16) -0.2923(3)
O7 O 0.0042(3) 0.23369(18) -0.0493(3)
H7 H -0.023(5) 0.204(3) -0.146(3)
H8 H 0.001(5) 0.191(3) 0.032(4)
O8 O -0.09241(19) 0.47282(15) -0.1455(2)
La1C La 0.118439(14) 0.116973(11) 0.502701(19)
La1_2 La 1.118439(14) 0.383027(11) 0.002701(19)
La1B La 0.881561(14) 0.616973(11) -0.002701(19)
La1B_2 La -0.118439(14) 0.616973(11) -0.002701(19)
O3C O 0.3182(2) 0.31119(17) -0.1063(3)
O4_2 O -0.0807(2) 0.36446(16) 0.1659(3)
O5B O 0.2008(2) 0.50913(16) -0.1448(3)
O8B O 0.09241(19) 0.52718(15) 0.1455(2)
loop_
_geom_bond_atom_site_label_1
_geom_bond_atom_site_label_2
_geom_bond_site_symmetry_1
_geom_bond_site_symmetry_2
C1 C2 1_555 1_555
C2 C3 1_555 1_555
C3 H1 1_555 1_555
C4 C3 1_555 1_555
H2 C4 1_555 1_555
C5 C4 1_555 1_555
C6 C5 1_555 1_555
C7 C5 1_555 1_555
H3 C7 1_555 1_555
C8 C9 1_555 1_555
C9 H4 1_555 1_555
H5 C9 1_555 1_555
H6 C9 1_555 1_555
La1 O1 1_555 1_555
N1 C2 1_555 1_555
O1 N1 1_555 1_555
O2 C1 1_555 1_555
O3 C1 1_555 1_555
O4 C6 1_555 1_555
O5 C6 1_555 1_555
O6 C8 1_555 1_555
O7 La1 1_555 1_555
H7 O7 1_555 1_555
H8 O7 1_555 1_555
O8 C8 1_555 1_555
La1C O3 1_555 1_555
La1_2 O4 1_555 1_555
La1B O5 1_555 1_555
La1B_2 O8 1_555 1_555
O3C La1 1_555 1_555
O4_2 La1 1_555 1_555
O5B La1 1_555 1_555
O8B La1 1_555 1_555
C7 N1 1_555 1_555
La1 O2 1_555 1_555
La1 O6 1_555 1_555
La1 O8 1_555 1_555
La1B_2 O8B 1_555 1_555

#END
