
#######################################################################
#
#                 Cambridge Crystallographic Data Centre
#                                CCDC 
#
#######################################################################
#
# If this CIF has been generated from an entry in the Cambridge 
# Structural Database, then it will include bibliographic, chemical, 
# crystal, experimental, refinement or atomic coordinate data resulting 
# from the CCDC's data processing and validation procedures.
#
#######################################################################

data_FASSOJ
_symmetry_cell_setting           monoclinic
_symmetry_space_group_name_H-M   'P 21/c'
_symmetry_Int_Tables_number      14
_space_group_name_Hall           '-P 2ybc'
loop_
_symmetry_equiv_pos_site_id
_symmetry_equiv_pos_as_xyz
1 x,y,z
2 -x,1/2+y,1/2-z
3 -x,-y,-z
4 x,1/2-y,1/2+z
_cell_length_a                   9.75670(10)
_cell_length_b                   14.7443(2)
_cell_length_c                   8.39190(10)
_cell_angle_alpha                90
_cell_angle_beta                 96.6790(10)
_cell_angle_gamma                90
_cell_volume                     1199.03
loop_
_atom_site_label
_atom_site_type_symbol
_atom_site_fract_x
_atom_site_fract_y
_atom_site_fract_z
C1 C 0.2893(3) 0.2565(2) 0.2883(4)
C2 C 0.4280(3) 0.2930(2) 0.2533(4)
C3 C 0.5480(4) 0.2438(3) 0.2871(5)
H1 H 0.5432 0.1860 0.3305
C4 C 0.6756(4) 0.2776(3) 0.2587(5)
H2 H 0.7549 0.2424 0.2777
C5 C 0.6813(3) 0.3653(2) 0.2010(4)
C6 C 0.8114(3) 0.4142(2) 0.1691(4)
C7 C 0.5605(3) 0.4137(2) 0.1693(4)
H3 H 0.5645 0.4730 0.1323
C8 C -0.0826(4) 0.4359(2) -0.2735(4)
C9 C -0.1750(5) 0.4698(4) -0.4148(6)
H4 H -0.1537 0.5322 -0.4341
H5 H -0.2693 0.4649 -0.3938
H6 H -0.1614 0.4342 -0.5074
Tb1 Tb 0.112783(14) 0.386794(10) 0.002162(19)
N1 N 0.4365(3) 0.37790(19) 0.1901(4)
O1 O 0.3283(2) 0.43040(17) 0.1519(3)
O2 O 0.1819(2) 0.28938(19) 0.2173(4)
O3 O 0.2943(2) 0.19417(18) 0.3896(3)
O4 O 0.9190(2) 0.36835(17) 0.1656(3)
O5 O 0.7980(2) 0.49821(16) 0.1488(3)
O6 O 0.0000(3) 0.37284(17) -0.2878(3)
O7 O -0.0004(3) 0.24302(18) -0.0468(3)
H7 H 0.016(6) 0.211(3) -0.141(4)
H8 H 0.001(6) 0.199(3) 0.036(4)
O8 O -0.0874(2) 0.47165(16) -0.1361(3)
Tb1C Tb 0.112783(14) 0.113206(10) 0.502162(19)
Tb1_2 Tb 1.112783(14) 0.386794(10) 0.002162(19)
Tb1B Tb 0.887217(14) 0.613206(10) -0.002162(19)
Tb1B_2 Tb -0.112783(14) 0.613206(10) -0.002162(19)
O3C O 0.2943(2) 0.30583(18) -0.1104(3)
O4_2 O -0.0810(2) 0.36835(17) 0.1656(3)
O5B O 0.2020(2) 0.50179(16) -0.1488(3)
O8B O 0.0874(2) 0.52835(16) 0.1361(3)
loop_
_geom_bond_atom_site_label_1
_geom_bond_atom_site_label_2
_geom_bond_site_symmetry_1
_geom_bond_site_symmetry_2
C1 C2 1_555 1_555
C2 C3 1_555 1_555
C3 H1 1_555 1_555
C4 C3 1_555 1_555
H2 C4 1_555 1_555
C5 C4 1_555 1_555
C6 C5 1_555 1_555
C7 C5 1_555 1_555
H3 C7 1_555 1_555
C8 C9 1_555 1_555
C9 H4 1_555 1_555
H5 C9 1_555 1_555
H6 C9 1_555 1_555
Tb1 O1 1_555 1_555
N1 C2 1_555 1_555
O1 N1 1_555 1_555
O2 C1 1_555 1_555
O3 C1 1_555 1_555
O4 C6 1_555 1_555
O5 C6 1_555 1_555
O6 C8 1_555 1_555
O7 Tb1 1_555 1_555
H7 O7 1_555 1_555
H8 O7 1_555 1_555
O8 C8 1_555 1_555
Tb1C O3 1_555 1_555
Tb1_2 O4 1_555 1_555
Tb1B O5 1_555 1_555
Tb1B_2 O8 1_555 1_555
O3C Tb1 1_555 1_555
O4_2 Tb1 1_555 1_555
O5B Tb1 1_555 1_555
O8B Tb1 1_555 1_555
C7 N1 1_555 1_555
Tb1 O2 1_555 1_555
Tb1 O6 1_555 1_555
Tb1 O8 1_555 1_555
Tb1B_2 O8B 1_555 1_555

#END
