
#######################################################################
#
#                 Cambridge Crystallographic Data Centre
#                                CCDC 
#
#######################################################################
#
# If this CIF has been generated from an entry in the Cambridge 
# Structural Database, then it will include bibliographic, chemical, 
# crystal, experimental, refinement or atomic coordinate data resulting 
# from the CCDC's data processing and validation procedures.
#
#######################################################################

data_FASSEZ
_symmetry_cell_setting           monoclinic
_symmetry_space_group_name_H-M   'P 21/c'
_symmetry_Int_Tables_number      14
_space_group_name_Hall           '-P 2ybc'
loop_
_symmetry_equiv_pos_site_id
_symmetry_equiv_pos_as_xyz
1 x,y,z
2 -x,1/2+y,1/2-z
3 -x,-y,-z
4 x,1/2-y,1/2+z
_cell_length_a                   9.7677(2)
_cell_length_b                   14.8211(3)
_cell_length_c                   8.4033(2)
_cell_angle_alpha                90
_cell_angle_beta                 96.4210(10)
_cell_angle_gamma                90
_cell_volume                     1208.9
loop_
_atom_site_label
_atom_site_type_symbol
_atom_site_fract_x
_atom_site_fract_y
_atom_site_fract_z
C1 C 0.2900(3) 0.2569(2) 0.2888(4)
C2 C 0.4287(3) 0.2935(2) 0.2537(4)
C3 C 0.5482(3) 0.2448(2) 0.2881(5)
H1 H 0.5434 0.1874 0.3317
C4 C 0.6757(3) 0.2787(2) 0.2598(4)
H2 H 0.7550 0.2439 0.2788
C5 C 0.6808(3) 0.3659(2) 0.2025(4)
C6 C 0.8118(3) 0.4146(2) 0.1701(4)
C7 C 0.5607(3) 0.4135(2) 0.1686(4)
H3 H 0.5645 0.4721 0.1296
C8 C -0.0826(3) 0.4353(2) -0.2718(4)
C9 C -0.1756(5) 0.4691(3) -0.4130(5)
H4 H -0.1405 0.5250 -0.4491
H5 H -0.2664 0.4784 -0.3825
H6 H -0.1795 0.4254 -0.4978
Gd1 Gd 0.112889(14) 0.386623(9) 0.002402(17)
N1 N 0.4366(3) 0.37766(16) 0.1904(3)
O1 O 0.3287(2) 0.42957(15) 0.1515(3)
O2 O 0.1826(2) 0.28906(17) 0.2185(3)
O3 O 0.2955(2) 0.19443(15) 0.3899(3)
O4 O 0.9191(2) 0.36890(15) 0.1673(3)
O5 O 0.7985(2) 0.49785(14) 0.1507(3)
O6 O -0.0004(3) 0.37224(15) -0.2869(3)
O7 O -0.0012(3) 0.24233(16) -0.0457(3)
H7 H 0.025(5) 0.214(3) -0.135(3)
H8 H 0.003(5) 0.203(2) 0.039(3)
O8 O -0.0881(2) 0.47130(14) -0.1361(2)
Gd1C Gd 0.112889(14) 0.113377(9) 0.502402(17)
Gd1_2 Gd 1.112889(14) 0.386623(9) 0.002402(17)
Gd1B Gd 0.887111(14) 0.613377(9) -0.002402(17)
Gd1B_2 Gd -0.112889(14) 0.613377(9) -0.002402(17)
O3C O 0.2955(2) 0.30557(15) -0.1101(3)
O4_2 O -0.0809(2) 0.36890(15) 0.1673(3)
O5B O 0.2015(2) 0.50215(14) -0.1507(3)
O8B O 0.0881(2) 0.52870(14) 0.1361(2)
loop_
_geom_bond_atom_site_label_1
_geom_bond_atom_site_label_2
_geom_bond_site_symmetry_1
_geom_bond_site_symmetry_2
C1 C2 1_555 1_555
C2 C3 1_555 1_555
C3 H1 1_555 1_555
C4 C3 1_555 1_555
H2 C4 1_555 1_555
C5 C4 1_555 1_555
C6 C5 1_555 1_555
C7 C5 1_555 1_555
H3 C7 1_555 1_555
C8 C9 1_555 1_555
C9 H4 1_555 1_555
H5 C9 1_555 1_555
H6 C9 1_555 1_555
Gd1 O1 1_555 1_555
N1 C2 1_555 1_555
O1 N1 1_555 1_555
O2 C1 1_555 1_555
O3 C1 1_555 1_555
O4 C6 1_555 1_555
O5 C6 1_555 1_555
O6 C8 1_555 1_555
O7 Gd1 1_555 1_555
H7 O7 1_555 1_555
H8 O7 1_555 1_555
O8 C8 1_555 1_555
Gd1C O3 1_555 1_555
Gd1_2 O4 1_555 1_555
Gd1B O5 1_555 1_555
Gd1B_2 O8 1_555 1_555
O3C Gd1 1_555 1_555
O4_2 Gd1 1_555 1_555
O5B Gd1 1_555 1_555
O8B Gd1 1_555 1_555
C7 N1 1_555 1_555
Gd1 O2 1_555 1_555
Gd1 O6 1_555 1_555
Gd1 O8 1_555 1_555
Gd1B_2 O8B 1_555 1_555

#END
