
#######################################################################
#
#                 Cambridge Crystallographic Data Centre
#                                CCDC 
#
#######################################################################
#
# If this CIF has been generated from an entry in the Cambridge 
# Structural Database, then it will include bibliographic, chemical, 
# crystal, experimental, refinement or atomic coordinate data resulting 
# from the CCDC's data processing and validation procedures.
#
#######################################################################

data_FASTIC10
_symmetry_cell_setting           monoclinic
_symmetry_space_group_name_H-M   'C 2/c'
_symmetry_Int_Tables_number      15
_space_group_name_Hall           '-C 2yn'
loop_
_symmetry_equiv_pos_site_id
_symmetry_equiv_pos_as_xyz
1 x,y,z
2 1/2+x,1/2+y,z
3 -x,y,1/2-z
4 1/2-x,1/2+y,1/2-z
5 -x,-y,-z
6 1/2-x,1/2-y,-z
7 x,-y,1/2+z
8 1/2+x,1/2-y,1/2+z
_cell_length_a                   19.300(3)
_cell_length_b                   26.523(4)
_cell_length_c                   8.450(2)
_cell_angle_alpha                90
_cell_angle_beta                 103.53(2)
_cell_angle_gamma                90
_cell_volume                     4205.46
loop_
_atom_site_label
_atom_site_type_symbol
_atom_site_fract_x
_atom_site_fract_y
_atom_site_fract_z
Pt1 Pt 0.0000 0.09076(3) 0.2500
Ag1 Ag 0.0000 0.00000 0.0000
Cl1 Cl -0.0011(3) 0.0931(2) -0.0255(6)
C1 C 0.111(1) 0.0936(8) 0.308(2)
C2 C 0.156(1) 0.0500(7) 0.320(2)
C3 C 0.231(1) 0.050(1) 0.342(3)
C4 C 0.260(1) 0.098(2) 0.354(3)
C5 C 0.2142 0.143(1) 0.344(3)
C6 C 0.144(1) 0.1376(8) 0.317(2)
Cl2 Cl 0.1166(3) -0.0091(2) 0.305(1)
Cl3 Cl 0.2786(4) -0.0015(3) 0.358(1)
Cl4 Cl 0.3515(5) 0.1018(4) 0.381(2)
Cl5 Cl 0.2608(5) 0.1996(3) 0.367(1)
Cl6 Cl 0.0987(4) 0.1931(2) 0.3052(8)
Cl1B Cl 0.0011(3) 0.0931(2) 0.5255(6)
C1B C -0.111(1) 0.0936(8) 0.192(2)
Cl1D Cl 0.0011(3) -0.0931(2) 0.0255(6)
Ag1B Ag 0.0000 0.00000 0.5000
C2B C -0.156(1) 0.0500(7) 0.180(2)
C6B C -0.144(1) 0.1376(8) 0.183(2)
Pt1D Pt 0.0000 -0.09076(3) -0.2500
Cl1F Cl -0.0011(3) -0.0931(2) 0.4745(6)
C3B C -0.231(1) 0.050(1) 0.158(3)
Cl2B Cl -0.1166(3) -0.0091(2) 0.195(1)
C5B C -0.2142 0.143(1) 0.156(3)
Cl6B Cl -0.0987(4) 0.1931(2) 0.1948(8)
Cl1F_2 Cl -0.0011(3) -0.0931(2) -0.5255(6)
C1D C -0.111(1) -0.0936(8) -0.308(2)
C1F C 0.111(1) -0.0936(8) -0.192(2)
Pt1D_2 Pt 0.0000 -0.09076(3) 0.7500
C4B C -0.260(1) 0.098(2) 0.146(3)
Cl3B Cl -0.2786(4) -0.0015(3) 0.142(1)
Cl5B Cl -0.2608(5) 0.1996(3) 0.133(1)
C2D C -0.156(1) -0.0500(7) -0.320(2)
C6D C -0.144(1) -0.1376(8) -0.317(2)
C2F C 0.156(1) -0.0500(7) -0.180(2)
C6F C 0.144(1) -0.1376(8) -0.183(2)
Cl4B Cl -0.3515(5) 0.1018(4) 0.119(2)
C3D C -0.231(1) -0.050(1) -0.342(3)
Cl2D Cl -0.1166(3) 0.0091(2) -0.305(1)
C5D C -0.2142 -0.143(1) -0.344(3)
Cl6D Cl -0.0987(4) -0.1931(2) -0.3052(8)
C3F C 0.231(1) -0.050(1) -0.158(3)
Cl2F Cl 0.1166(3) 0.0091(2) -0.195(1)
C5F C 0.2142 -0.143(1) -0.156(3)
Cl6F Cl 0.0987(4) -0.1931(2) -0.1948(8)
C4D C -0.260(1) -0.098(2) -0.354(3)
Cl3D Cl -0.2786(4) 0.0015(3) -0.358(1)
Cl5D Cl -0.2608(5) -0.1996(3) -0.367(1)
C4F C 0.260(1) -0.098(2) -0.146(3)
Cl3F Cl 0.2786(4) 0.0015(3) -0.142(1)
Cl5F Cl 0.2608(5) -0.1996(3) -0.133(1)
Cl4D Cl -0.3515(5) -0.1018(4) -0.381(2)
Cl4F Cl 0.3515(5) -0.1018(4) -0.119(2)
N1 N 0.5000 0.2463(8) 0.2500
C7 C 0.561(1) 0.272(1) 0.203(2)
C8 C 0.604(2) 0.302(2) 0.344(3)
C9 C 0.665(2) 0.326(2) 0.295(5)
C10 C 0.701(2) 0.362(2) 0.424(6)
C11 C 0.518(1) 0.215(1) 0.404(2)
C12 C 0.584(2) 0.184(1) 0.408(4)
C13 C 0.592(2) 0.146(1) 0.541(4)
C14 C 0.585(3) 0.171(2) 0.695(4)
C7B C 0.439(1) 0.272(1) 0.297(2)
C11B C 0.482(1) 0.215(1) 0.096(2)
C8B C 0.396(2) 0.302(2) 0.156(3)
C12B C 0.416(2) 0.184(1) 0.092(4)
C9B C 0.335(2) 0.326(2) 0.205(5)
C13B C 0.408(2) 0.146(1) -0.041(4)
C10B C 0.299(2) 0.362(2) 0.076(6)
C14B C 0.415(3) 0.171(2) -0.195(4)
loop_
_geom_bond_atom_site_label_1
_geom_bond_atom_site_label_2
_geom_bond_site_symmetry_1
_geom_bond_site_symmetry_2
Pt1 Cl1 1_555 1_555
Ag1 Cl1 1_555 1_555
C1 Pt1 1_555 1_555
C2 C1 1_555 1_555
C3 C2 1_555 1_555
C4 C3 1_555 1_555
C5 C4 1_555 1_555
C6 C1 1_555 1_555
Cl2 C2 1_555 1_555
Cl3 C3 1_555 1_555
Cl4 C4 1_555 1_555
Cl5 C5 1_555 1_555
Cl6 C6 1_555 1_555
N1 C7 1_555 1_555
C7 C8 1_555 1_555
C8 C9 1_555 1_555
C9 C10 1_555 1_555
C11 N1 1_555 1_555
C12 C11 1_555 1_555
C13 C12 1_555 1_555
C14 C13 1_555 1_555
Cl1B Pt1 1_555 1_555
C1B Pt1 1_555 1_555
Cl1D Ag1 1_555 1_555
Ag1B Cl1B 1_555 1_555
C2B C1B 1_555 1_555
C6B C1B 1_555 1_555
Pt1D Cl1D 1_555 1_555
Cl1F Ag1B 1_555 1_555
C3B C2B 1_555 1_555
Cl2B C2B 1_555 1_555
C5B C6B 1_555 1_555
Cl6B C6B 1_555 1_555
Cl1F_2 Pt1D 1_555 1_555
C1D Pt1D 1_555 1_555
C1F Pt1D 1_555 1_555
Pt1D_2 Cl1F 1_555 1_555
C4B C3B 1_555 1_555
Cl3B C3B 1_555 1_555
Cl5B C5B 1_555 1_555
C2D C1D 1_555 1_555
C6D C1D 1_555 1_555
C2F C1F 1_555 1_555
C6F C1F 1_555 1_555
Cl4B C4B 1_555 1_555
C3D C2D 1_555 1_555
Cl2D C2D 1_555 1_555
C5D C6D 1_555 1_555
Cl6D C6D 1_555 1_555
C3F C2F 1_555 1_555
Cl2F C2F 1_555 1_555
C5F C6F 1_555 1_555
Cl6F C6F 1_555 1_555
C4D C3D 1_555 1_555
Cl3D C3D 1_555 1_555
Cl5D C5D 1_555 1_555
C4F C3F 1_555 1_555
Cl3F C3F 1_555 1_555
Cl5F C5F 1_555 1_555
Cl4D C4D 1_555 1_555
Cl4F C4F 1_555 1_555
C7B N1 1_555 1_555
C11B N1 1_555 1_555
C8B C7B 1_555 1_555
C12B C11B 1_555 1_555
C9B C8B 1_555 1_555
C13B C12B 1_555 1_555
C10B C9B 1_555 1_555
C14B C13B 1_555 1_555
C5 C6 1_555 1_555
C5B C4B 1_555 1_555
C5D C4D 1_555 1_555
C5F C4F 1_555 1_555

#END
