
#######################################################################
#
#                 Cambridge Crystallographic Data Centre
#                                CCDC 
#
#######################################################################
#
# If this CIF has been generated from an entry in the Cambridge 
# Structural Database, then it will include bibliographic, chemical, 
# crystal, experimental, refinement or atomic coordinate data resulting 
# from the CCDC's data processing and validation procedures.
#
#######################################################################

data_FASWED
_symmetry_cell_setting           triclinic
_symmetry_space_group_name_H-M   'P -1'
_symmetry_Int_Tables_number      2
_space_group_name_Hall           '-P 1'
loop_
_symmetry_equiv_pos_site_id
_symmetry_equiv_pos_as_xyz
1 x,y,z
2 -x,-y,-z
_cell_length_a                   7.1117(3)
_cell_length_b                   11.2113(4)
_cell_length_c                   18.3804(7)
_cell_angle_alpha                78.982(2)
_cell_angle_beta                 85.788(2)
_cell_angle_gamma                73.619(2)
_cell_volume                     1379.79
loop_
_atom_site_label
_atom_site_type_symbol
_atom_site_fract_x
_atom_site_fract_y
_atom_site_fract_z
Zn1 Zn 0.30144(3) 0.983973(19) 0.333649(11)
Zn2 Zn 0.31342(3) 1.491310(19) -0.163140(11)
Na1 Na 0.49560(11) 1.24805(7) 0.25168(4)
Na2 Na 0.49110(11) 0.74693(6) 0.24766(4)
O1 O 0.2410(2) 0.82078(13) -0.08497(8)
O2 O 0.2394(2) 0.72754(13) 0.03248(8)
O3 O 0.2681(2) 1.25306(14) -0.15386(7)
O4 O 0.2757(2) 1.37041(12) -0.07083(7)
O5 O 0.2741(3) 1.16882(14) 0.20028(8)
O6 O 0.2727(2) 0.96897(13) 0.22915(7)
O7 O 0.2642(2) 0.73996(14) 0.34636(7)
O8 O 0.2761(2) 0.86141(12) 0.42639(7)
O9 O 0.6091(2) 0.87244(13) 0.31521(8)
H1 H 0.6667 0.8310 0.3549
H2 H 0.6789 0.9156 0.2891
O10 O 0.0141(2) 1.08782(14) 0.34745(9)
H3 H -0.0536 1.0553 0.3815
H4 H -0.0561 1.1604 0.3283
O11 O 0.4185(2) 1.10701(12) 0.37034(8)
H5 H 0.5221 1.0680 0.3944
H6 H 0.3370 1.1503 0.3980
O12 O 0.2385(2) 0.29839(14) 0.43361(8)
O13 O 0.2234(2) 0.22375(13) 0.55358(8)
O14 O 0.2517(2) 0.68551(12) 0.70031(7)
O15 O 0.3158(2) 0.47703(12) 0.73157(7)
O16 O 0.4293(2) 1.61850(12) -0.13407(7)
H7 H 0.5335 1.5815 -0.1099
H8 H 0.3485 1.6638 -0.1071
O17 O 0.0250(2) 1.59100(15) -0.15309(9)
H9 H -0.0469 1.6633 -0.1718
H10 H -0.0417 1.5567 -0.1195
O18 O 0.6161(2) 1.36344(13) -0.16607(8)
H11 H 0.6538 1.3183 -0.1243
H12 H 0.7008 1.4009 -0.1857
O19 O 0.2249(3) 1.39783(17) 0.28770(10)
H13 H 0.1697 1.4768 0.2799
H14 H 0.2257 1.3708 0.3342
O20 O 0.7671(2) 1.05619(15) 0.22923(9)
H15 H 0.8421 1.0721 0.2578
H16 H 0.7755 1.0988 0.1862
C1 C 0.2392(3) 0.82187(18) -0.01672(11)
C2 C 0.2411(3) 0.94302(17) 0.00678(10)
C3 C 0.2485(3) 1.04715(17) -0.04672(10)
H17 H 0.2485 1.0419 -0.0966
C4 C 0.2409(3) 0.95247(17) 0.08128(10)
H18 H 0.2318 0.8841 0.1177
C5 C 0.2540(3) 1.06251(17) 0.10185(10)
C6 C 0.2606(3) 1.16663(17) 0.04732(10)
H19 H 0.2680 1.2410 0.0608
C7 C 0.2560(3) 1.15916(17) -0.02699(10)
C8 C 0.2672(3) 1.06982(18) 0.18176(10)
C9 C 0.2658(3) 1.26709(18) -0.08830(10)
C10 C 0.2654(3) 0.75641(18) 0.41111(10)
C11 C 0.2576(3) 0.65123(17) 0.47471(10)
C12 C 0.2485(3) 0.53601(17) 0.45940(10)
H20 H 0.2468 0.5259 0.4104
C13 C 0.2419(3) 0.43573(17) 0.51660(10)
C14 C 0.2342(3) 0.31032(18) 0.49993(11)
C15 C 0.2460(3) 0.45205(17) 0.58936(10)
H21 H 0.2391 0.3863 0.6280
C16 C 0.2605(3) 0.56558(17) 0.60536(10)
C17 C 0.2640(3) 0.66549(17) 0.54765(10)
H22 H 0.2706 0.7421 0.5581
C18 C 0.2755(3) 0.57922(17) 0.68385(10)
Zn2_2 Zn 0.31342(3) 0.491310(19) 0.836860(11)
Na1A Na 0.50440(11) 0.75195(7) 0.74832(4)
Na1A_2 Na 0.50440(11) 1.75195(7) -0.25168(4)
Na2A Na 0.50890(11) 1.25307(6) -0.24766(4)
Na2A_2 Na 0.50890(11) 0.25307(6) 0.75234(4)
O3A O 0.7319(2) 0.74694(14) 0.15386(7)
O14A O 0.7483(2) 1.31449(12) 0.29969(7)
O15_2 O 0.3158(2) 1.47703(12) -0.26843(7)
O15A O 0.6842(2) 0.52297(12) 0.26843(7)
O16A O 0.5707(2) 1.38150(12) 0.13407(7)
H7A H 0.4665 1.4185 0.1099
H8A H 0.6515 1.3362 0.1071
O18A O 0.3839(2) 0.63656(13) 0.16607(8)
H11A H 0.3462 0.6817 0.1243
H12A H 0.2992 0.5991 0.1857
O21 O 0.0478(2) 0.65660(17) 0.25318(9)
H23 H -0.0475 0.7036 0.2267
H24 H 0.0903 0.7019 0.2765
O22 O 0.2401(2) 0.48406(13) 0.05095(8)
H25 H 0.2410 0.5611 0.0407
H26 H 0.2517 0.4555 0.0107
O23 O 0.7566(2) 1.01425(13) 0.45049(8)
H27 H 0.7464 1.0383 0.4921
H28 H 0.7610 0.9363 0.4580
loop_
_geom_bond_atom_site_label_1
_geom_bond_atom_site_label_2
_geom_bond_site_symmetry_1
_geom_bond_site_symmetry_2
Zn1 O6 1_555 1_555
Zn2 O4 1_555 1_555
Na1 O5 1_555 1_555
Na2 O6 1_555 1_555
O1 C1 1_555 1_555
O2 C1 1_555 1_555
O3 C9 1_555 1_555
O4 C9 1_555 1_555
O5 C8 1_555 1_555
O6 C8 1_555 1_555
O7 Na2 1_555 1_555
O8 Zn1 1_555 1_555
O9 Zn1 1_555 1_555
H1 O9 1_555 1_555
H2 O9 1_555 1_555
O10 Zn1 1_555 1_555
H3 O10 1_555 1_555
H4 O10 1_555 1_555
O11 Zn1 1_555 1_555
H5 O11 1_555 1_555
H6 O11 1_555 1_555
O12 C14 1_555 1_555
O13 C14 1_555 1_555
O14 C18 1_555 1_555
O15 C18 1_555 1_555
O16 Zn2 1_555 1_555
H7 O16 1_555 1_555
H8 O16 1_555 1_555
O17 Zn2 1_555 1_555
H9 O17 1_555 1_555
H10 O17 1_555 1_555
O18 Zn2 1_555 1_555
H11 O18 1_555 1_555
H12 O18 1_555 1_555
O19 Na1 1_555 1_555
H13 O19 1_555 1_555
H14 O19 1_555 1_555
O20 Na1 1_555 1_555
H15 O20 1_555 1_555
H16 O20 1_555 1_555
C1 C2 1_555 1_555
C2 C3 1_555 1_555
C3 H17 1_555 1_555
C4 C2 1_555 1_555
H18 C4 1_555 1_555
C5 C4 1_555 1_555
C6 C5 1_555 1_555
H19 C6 1_555 1_555
C7 C3 1_555 1_555
C8 C5 1_555 1_555
C9 C7 1_555 1_555
C10 O7 1_555 1_555
C11 C10 1_555 1_555
C12 C11 1_555 1_555
H20 C12 1_555 1_555
C13 C12 1_555 1_555
C14 C13 1_555 1_555
C15 C13 1_555 1_555
H21 C15 1_555 1_555
C16 C15 1_555 1_555
C17 C11 1_555 1_555
H22 C17 1_555 1_555
C18 C16 1_555 1_555
O21 H23 1_555 1_555
H24 O21 1_555 1_555
O22 H25 1_555 1_555
H26 O22 1_555 1_555
O23 H27 1_555 1_555
H28 O23 1_555 1_555
Zn2_2 O15 1_555 1_555
Na1A O14 1_555 1_555
Na1A_2 O16 1_555 1_555
Na2A O3 1_555 1_555
Na2A_2 O15 1_555 1_555
O3A Na2 1_555 1_555
O14A Na1 1_555 1_555
O15_2 Zn2 1_555 1_555
O15A Na2 1_555 1_555
O16A Na1 1_555 1_555
H7A O16A 1_555 1_555
H8A O16A 1_555 1_555
O18A Na2 1_555 1_555
H11A O18A 1_555 1_555
H12A O18A 1_555 1_555
Na1 O11 1_555 1_555
Na2 O9 1_555 1_555
O8 C10 1_555 1_555
O18 Na2A 1_555 1_555
C6 C7 1_555 1_555
C16 C17 1_555 1_555
Na2A O15_2 1_555 1_555

#END
