
#######################################################################
#
#                 Cambridge Crystallographic Data Centre
#                                CCDC 
#
#######################################################################
#
# If this CIF has been generated from an entry in the Cambridge 
# Structural Database, then it will include bibliographic, chemical, 
# crystal, experimental, refinement or atomic coordinate data resulting 
# from the CCDC's data processing and validation procedures.
#
#######################################################################

data_FASWED01
_symmetry_cell_setting           triclinic
_symmetry_space_group_name_H-M   'P -1'
_symmetry_Int_Tables_number      2
_space_group_name_Hall           '-P 1'
loop_
_symmetry_equiv_pos_site_id
_symmetry_equiv_pos_as_xyz
1 x,y,z
2 -x,-y,-z
_cell_length_a                   7.0980(11)
_cell_length_b                   9.8000(16)
_cell_length_c                   11.2043(17)
_cell_angle_alpha                66.923(2)
_cell_angle_beta                 73.598(2)
_cell_angle_gamma                84.720(3)
_cell_volume                     687.676
loop_
_atom_site_label
_atom_site_type_symbol
_atom_site_fract_x
_atom_site_fract_y
_atom_site_fract_z
Zn1 Zn 0.69252(6) 1.17043(4) 0.17723(4)
Na1 Na 0.5000 1.0000 0.0000
Na2 Na 0.5000 0.0000 0.5000
C1 C 0.7424(5) 0.7068(3) 0.3327(3)
C2 C 0.7376(5) 0.5950(3) 0.2865(3)
H1 H 0.7312 0.6192 0.1988
C3 C 0.7423(5) 0.4476(3) 0.3710(3)
C4 C 0.7512(5) 0.4130(4) 0.5013(3)
H2 H 0.7529 0.3140 0.5581
C5 C 0.7576(5) 0.5231(4) 0.5492(3)
C6 C 0.7566(5) 0.6703(4) 0.4623(3)
H3 H 0.7657 0.7455 0.4917
C7 C 0.7273(5) 0.8667(4) 0.2423(3)
C8 C 0.7345(5) 0.3229(4) 0.3272(3)
C9 C 0.7632(5) 0.4837(5) 0.6923(4)
O1 O 0.7044(4) 0.9607(3) 0.2967(3)
O2 O 0.7376(4) 0.8999(3) 0.1217(3)
O3 O 0.7335(4) 0.1931(3) 0.4071(3)
O4 O 0.7242(4) 0.3558(3) 0.2063(2)
O5 O 0.7596(4) 0.3477(4) 0.7661(3)
O6 O 0.7682(4) 0.5863(4) 0.7316(3)
O7 O 0.5762(4) 1.2363(3) 0.0195(2)
H4 H 0.6483 1.2811 -0.0557
H5 H 0.4703 1.2778 0.0249
O8 O 0.3875(4) 1.1497(3) 0.3061(3)
H6 H 0.3040 1.0995 0.3031
H7 H 0.3305 1.2022 0.3464
O9 O 0.9800(4) 1.1943(3) 0.0630(3)
H8 H 1.0364 1.2580 0.0713
H9 H 1.0536 1.1721 0.0026
O10 O 0.2322(5) 0.9423(4) 0.2021(4)
H10 H 0.1808 0.8593 0.2402
H11 H 0.1445 1.0027 0.1899
Zn1A Zn 0.30748(6) -1.17043(4) 0.82277(4)
C1A C 0.2576(5) -0.7068(3) 0.6673(3)
C2A C 0.2624(5) -0.5950(3) 0.7135(3)
H1A H 0.2688 -0.6192 0.8012
C3A C 0.2577(5) -0.4476(3) 0.6290(3)
C4A C 0.2488(5) -0.4130(4) 0.4987(3)
H2A H 0.2471 -0.3140 0.4419
C5A C 0.2424(5) -0.5231(4) 0.4508(3)
C6A C 0.2434(5) -0.6703(4) 0.5377(3)
H3A H 0.2343 -0.7455 0.5083
C7A C 0.2727(5) -0.8667(4) 0.7577(3)
C8A C 0.2655(5) -0.3229(4) 0.6728(3)
C9A C 0.2368(5) -0.4837(5) 0.3077(4)
O1A O 0.2956(4) -0.9607(3) 0.7033(3)
O2A O 0.2624(4) -0.8999(3) 0.8783(3)
O3A O 0.2665(4) -0.1931(3) 0.5929(3)
O4A O 0.2758(4) -0.3558(3) 0.7937(2)
O5A O 0.2404(4) -0.3477(4) 0.2339(3)
O6A O 0.2318(4) -0.5863(4) 0.2684(3)
O7A O 0.4238(4) -1.2363(3) 0.9805(2)
H4A H 0.3517 -1.2811 1.0557
H5A H 0.5297 -1.2778 0.9751
O8A O 0.6125(4) -1.1497(3) 0.6939(3)
H6A H 0.6960 -1.0995 0.6969
H7A H 0.6695 -1.2022 0.6536
O9A O 0.0200(4) -1.1943(3) 0.9370(3)
H8A H -0.0364 -1.2580 0.9287
H9A H -0.0536 -1.1721 0.9974
O10A O 0.7678(5) 1.0577(4) -0.2021(4)
H10A H 0.8192 1.1407 -0.2402
H11A H 0.8555 0.9973 -0.1899
Zn1_2 Zn 0.69252(6) 0.17043(4) 0.17723(4)
Zn1A_2 Zn 0.30748(6) -0.17043(4) 0.82277(4)
Na1_2 Na 0.5000 -1.0000 1.0000
Na2_2 Na 0.5000 -1.0000 0.5000
Na2_3 Na 0.5000 1.0000 0.5000
O1_2 O 0.7044(4) -0.0393(3) 0.2967(3)
O1A_2 O 0.2956(4) 0.0393(3) 0.7033(3)
O2A_2 O 0.2624(4) 1.1001(3) -0.1217(3)
O4_2 O 0.7242(4) 1.3558(3) 0.2063(2)
O4A_2 O 0.2758(4) -1.3558(3) 0.7937(2)
O7A_2 O 0.4238(4) 0.7637(3) -0.0195(2)
O8_2 O 0.3875(4) 0.1497(3) 0.3061(3)
O8A_2 O 0.6125(4) -0.1497(3) 0.6939(3)
O11 O 0.0497(9) 0.9938(8) 0.4107(6)
H12 H -0.0558 1.0390 0.3993
H13 H 0.0429 0.9553 0.4942
O11A O -0.0497(9) 1.0062(8) 0.5893(6)
H12A H 0.0558 0.9610 0.6007
H13A H -0.0429 1.0447 0.5058
O12 O 0.7580(4) 0.6003(3) 0.9650(2)
H14 H 0.7717 0.5773 0.9002
H15 H 0.7499 0.5234 1.0318
loop_
_geom_bond_atom_site_label_1
_geom_bond_atom_site_label_2
_geom_bond_site_symmetry_1
_geom_bond_site_symmetry_2
Zn1 O1 1_555 1_555
Na1 O2 1_555 1_555
Na2 O3 1_555 1_555
C1 C2 1_555 1_555
C2 H1 1_555 1_555
C3 C2 1_555 1_555
C4 C3 1_555 1_555
H2 C4 1_555 1_555
C5 C4 1_555 1_555
C6 C1 1_555 1_555
H3 C6 1_555 1_555
C7 C1 1_555 1_555
C8 C3 1_555 1_555
C9 C5 1_555 1_555
O1 C7 1_555 1_555
O2 C7 1_555 1_555
O3 C8 1_555 1_555
O4 C8 1_555 1_555
O5 C9 1_555 1_555
O6 C9 1_555 1_555
O7 Zn1 1_555 1_555
H4 O7 1_555 1_555
H5 O7 1_555 1_555
O8 Zn1 1_555 1_555
H6 O8 1_555 1_555
H7 O8 1_555 1_555
O9 Zn1 1_555 1_555
H8 O9 1_555 1_555
H9 O9 1_555 1_555
O10 Na1 1_555 1_555
H10 O10 1_555 1_555
H11 O10 1_555 1_555
O11 H12 1_555 1_555
H13 O11 1_555 1_555
O12 H14 1_555 1_555
H15 O12 1_555 1_555
Zn1A O1A 1_555 1_555
C1A C2A 1_555 1_555
C2A H1A 1_555 1_555
C3A C2A 1_555 1_555
C4A C3A 1_555 1_555
H2A C4A 1_555 1_555
C5A C4A 1_555 1_555
C6A C1A 1_555 1_555
H3A C6A 1_555 1_555
C7A C1A 1_555 1_555
C8A C3A 1_555 1_555
C9A C5A 1_555 1_555
O1A C7A 1_555 1_555
O2A C7A 1_555 1_555
O3A Na2 1_555 1_555
O4A C8A 1_555 1_555
O5A C9A 1_555 1_555
O6A C9A 1_555 1_555
O7A Zn1A 1_555 1_555
H4A O7A 1_555 1_555
H5A O7A 1_555 1_555
O8A Zn1A 1_555 1_555
H6A O8A 1_555 1_555
H7A O8A 1_555 1_555
O9A Zn1A 1_555 1_555
H8A O9A 1_555 1_555
H9A O9A 1_555 1_555
O10A Na1 1_555 1_555
H10A O10A 1_555 1_555
H11A O10A 1_555 1_555
Zn1_2 O4 1_555 1_555
Zn1A_2 O4A 1_555 1_555
Na1_2 O2A 1_555 1_555
Na2_2 O1A 1_555 1_555
Na2_3 O1 1_555 1_555
O1_2 Na2 1_555 1_555
O1A_2 Na2 1_555 1_555
O2A_2 Na1 1_555 1_555
O4_2 Zn1 1_555 1_555
O4A_2 Zn1A 1_555 1_555
O7A_2 Na1 1_555 1_555
O8_2 Na2 1_555 1_555
O8A_2 Na2 1_555 1_555
O11A H12A 1_555 1_555
H13A O11A 1_555 1_555
Na1 O7 1_555 1_555
C5 C6 1_555 1_555
O8 Na2_3 1_555 1_555
C5A C6A 1_555 1_555
C8A O3A 1_555 1_555
O7A Na1_2 1_555 1_555
O8A Na2_2 1_555 1_555
Zn1_2 O1_2 1_555 1_555
Zn1_2 O8_2 1_555 1_555
Zn1A_2 O1A_2 1_555 1_555
Zn1A_2 O8A_2 1_555 1_555

#END
