
#######################################################################
#
#                 Cambridge Crystallographic Data Centre
#                                CCDC 
#
#######################################################################
#
# If this CIF has been generated from an entry in the Cambridge 
# Structural Database, then it will include bibliographic, chemical, 
# crystal, experimental, refinement or atomic coordinate data resulting 
# from the CCDC's data processing and validation procedures.
#
#######################################################################

data_FASXII
_symmetry_cell_setting           orthorhombic
_symmetry_space_group_name_H-M   'P b c a'
_symmetry_Int_Tables_number      61
_space_group_name_Hall           '-P 2ac 2ab'
loop_
_symmetry_equiv_pos_site_id
_symmetry_equiv_pos_as_xyz
1 x,y,z
2 1/2-x,-y,1/2+z
3 -x,1/2+y,1/2-z
4 1/2+x,1/2-y,-z
5 -x,-y,-z
6 1/2+x,y,1/2-z
7 x,1/2-y,1/2+z
8 1/2-x,1/2+y,z
_cell_length_a                   13.651(8)
_cell_length_b                   15.501(9)
_cell_length_c                   22.645(13)
_cell_angle_alpha                90
_cell_angle_beta                 90
_cell_angle_gamma                90
_cell_volume                     4791.78
loop_
_atom_site_label
_atom_site_type_symbol
_atom_site_fract_x
_atom_site_fract_y
_atom_site_fract_z
O1 O 0.1641(2) 0.71934(19) 0.09795(12)
C1 C 0.1368(3) 0.7684(2) 0.13868(17)
Cl1 Cl 0.37821(10) 0.49545(8) 0.30096(6)
Gd1 Gd 0.262041(14) 0.387453(12) 0.543381(8)
N1 N 0.1598(3) 0.37785(19) 0.32368(14)
N2 N 0.1650(3) 0.6178(2) 0.26854(14)
O2 O 0.1224(2) 0.31543(19) 0.17520(12)
O3 O 0.1744(3) 0.43811(18) 0.21494(12)
O4 O 0.1828(2) 0.55441(17) 0.37752(12)
O5 O 0.1419(3) 0.67939(19) 0.41811(12)
O6 O 0.1078(2) 0.84387(19) 0.13111(12)
O7 O 0.3578(2) 0.3386(2) 0.46243(13)
H1 H 0.3917 0.3792 0.4476
H2 H 0.3224 0.3159 0.4357
O8 O 0.0937(2) 0.16173(19) 0.46690(12)
O9 O 0.1731(2) 0.27982(18) 0.49479(11)
O10 O 0.2886(2) 0.5123(2) 0.47823(13)
H3 H 0.3338 0.5467 0.4888
H4 H 0.2314 0.5338 0.4766
O11 O 0.1111(2) 0.4486(2) 0.51497(14)
H5 H 0.0590 0.4204 0.5222
H6 H 0.1098 0.5031 0.5190
O12 O 0.2507(2) 0.5139(2) 0.60760(13)
H7 H 0.2837 0.5103 0.6393
H8 H 0.1893 0.5194 0.6126
O13 O 0.1469(2) 0.3497(2) 0.62140(14)
H9 H 0.1792 0.3255 0.6489
H10 H 0.1079 0.3121 0.6075
O14 O 0.4256(2) 0.43655(19) 0.56724(14)
H11 H 0.4283 0.4913 0.5692
H12 H 0.4638 0.4168 0.5409
C2 C 0.1124(3) 0.2381(2) 0.28976(17)
H13 H 0.0969 0.2013 0.2587
C3 C 0.1327(3) 0.2332(2) 0.45666(16)
C4 C 0.1388(3) 0.3224(2) 0.27896(16)
C5 C 0.1453(3) 0.3606(2) 0.21790(17)
C6 C 0.1320(3) 0.2647(2) 0.39352(16)
C7 C 0.1095(3) 0.2089(2) 0.34764(17)
H14 H 0.0924 0.1520 0.3557
C8 C 0.1568(3) 0.3485(2) 0.37904(17)
H15 H 0.1720 0.3865 0.4095
C9 C 0.1382(3) 0.7343(2) 0.20063(16)
C10 C 0.1564(3) 0.6324(2) 0.37460(17)
C11 C 0.1166(3) 0.7880(3) 0.24792(17)
H16 H 0.1000 0.8453 0.2412
C12 C 0.1459(3) 0.6715(2) 0.31409(16)
C13 C 0.1607(3) 0.6489(2) 0.21361(17)
H17 H 0.1733 0.6115 0.1824
C14 C 0.1198(3) 0.7562(3) 0.30555(17)
H18 H 0.1047 0.7916 0.3375
Zn1 Zn 0.21239(4) 0.49653(3) 0.295930(19)
O1A O 0.3359(2) 0.28066(19) 0.59795(12)
Gd1A Gd 0.237959(14) 0.612547(12) 0.043381(8)
O15 O 0.5330(3) 0.0194(3) 0.32719(19)
H19 H 0.5553 0.0117 0.2926
H20 H 0.5662 0.0591 0.3436
O16 O 0.4380(2) 0.11676(18) 0.51776(13)
H21 H 0.4120 0.1375 0.4867
H22 H 0.4186 0.1461 0.5472
O17 O 0.5378(2) 0.39083(19) 0.42353(13)
H23 H 0.5648 0.3701 0.3929
H24 H 0.5593 0.3655 0.4542
loop_
_geom_bond_atom_site_label_1
_geom_bond_atom_site_label_2
_geom_bond_site_symmetry_1
_geom_bond_site_symmetry_2
O1 C1 1_555 1_555
C1 O6 1_555 1_555
Cl1 Zn1 1_555 1_555
Gd1 O7 1_555 1_555
N1 C4 1_555 1_555
N2 C12 1_555 1_555
O2 C5 1_555 1_555
O3 C5 1_555 1_555
O4 C10 1_555 1_555
O5 C10 1_555 1_555
O7 H1 1_555 1_555
H2 O7 1_555 1_555
O8 C3 1_555 1_555
O9 Gd1 1_555 1_555
O10 Gd1 1_555 1_555
H3 O10 1_555 1_555
H4 O10 1_555 1_555
O11 Gd1 1_555 1_555
H5 O11 1_555 1_555
H6 O11 1_555 1_555
O12 Gd1 1_555 1_555
H7 O12 1_555 1_555
H8 O12 1_555 1_555
O13 Gd1 1_555 1_555
H9 O13 1_555 1_555
H10 O13 1_555 1_555
O14 Gd1 1_555 1_555
H11 O14 1_555 1_555
H12 O14 1_555 1_555
C2 H13 1_555 1_555
C3 O9 1_555 1_555
C4 C2 1_555 1_555
C5 C4 1_555 1_555
C6 C3 1_555 1_555
C7 C2 1_555 1_555
H14 C7 1_555 1_555
C8 N1 1_555 1_555
H15 C8 1_555 1_555
C9 C1 1_555 1_555
C10 C12 1_555 1_555
C11 C9 1_555 1_555
H16 C11 1_555 1_555
C12 C14 1_555 1_555
C13 N2 1_555 1_555
H17 C13 1_555 1_555
C14 C11 1_555 1_555
H18 C14 1_555 1_555
Zn1 N1 1_555 1_555
O15 H19 1_555 1_555
H20 O15 1_555 1_555
O16 H21 1_555 1_555
H22 O16 1_555 1_555
O17 H23 1_555 1_555
H24 O17 1_555 1_555
O1A Gd1 1_555 1_555
Gd1A O1 1_555 1_555
N2 Zn1 1_555 1_555
O3 Zn1 1_555 1_555
O4 Zn1 1_555 1_555
C6 C7 1_555 1_555
C6 C8 1_555 1_555
C9 C13 1_555 1_555

#END
