
#######################################################################
#
#                 Cambridge Crystallographic Data Centre
#                                CCDC 
#
#######################################################################
#
# If this CIF has been generated from an entry in the Cambridge 
# Structural Database, then it will include bibliographic, chemical, 
# crystal, experimental, refinement or atomic coordinate data resulting 
# from the CCDC's data processing and validation procedures.
#
#######################################################################

data_FASZUW
_symmetry_cell_setting           monoclinic
_symmetry_space_group_name_H-M   'P 21/n'
_symmetry_Int_Tables_number      14
_space_group_name_Hall           '-P 2yn'
loop_
_symmetry_equiv_pos_site_id
_symmetry_equiv_pos_as_xyz
1 x,y,z
2 1/2-x,1/2+y,1/2-z
3 -x,-y,-z
4 1/2+x,1/2-y,1/2+z
_cell_length_a                   17.8251(17)
_cell_length_b                   7.3268(7)
_cell_length_c                   21.182(2)
_cell_angle_alpha                90
_cell_angle_beta                 92.9020(10)
_cell_angle_gamma                90
_cell_volume                     2762.84
loop_
_atom_site_label
_atom_site_type_symbol
_atom_site_fract_x
_atom_site_fract_y
_atom_site_fract_z
Zn1 Zn 0.5000 0.5000 0.0000
O1 O 0.51022(9) 0.3351(3) 0.33778(7)
O2 O 0.27564(9) 0.5428(3) 0.26973(8)
N1 N 0.46664(10) 0.4691(2) 0.09608(8)
N2 N 0.44174(10) 0.3845(3) 0.33641(8)
N3 N 0.32948(10) 0.4768(3) 0.30417(8)
N4 N 0.41667(11) 0.7078(3) -0.01567(9)
N5 N 0.35352(11) 1.0008(3) -0.03297(12)
N6 N 0.41780(11) 1.2947(3) -0.02907(9)
C1 C 0.51644(13) 0.4762(3) 0.14509(10)
H1 H 0.5669 0.4905 0.1369
C2 C 0.49758(13) 0.4638(3) 0.20712(10)
H2 H 0.5345 0.4705 0.2397
C3 C 0.42255(12) 0.4410(3) 0.22061(10)
C4 C 0.37050(13) 0.4293(3) 0.16953(10)
H3 H 0.3199 0.4111 0.1761
C5 C 0.39480(13) 0.4451(3) 0.10932(10)
H4 H 0.3592 0.4387 0.0758
C6 C 0.39865(12) 0.4327(3) 0.28534(10)
C7 C 0.32031(13) 0.4269(4) 0.37210(10)
C8 C 0.40279(13) 0.4162(4) 0.39655(10)
C9 C 0.28013(16) 0.2420(4) 0.37065(13)
H5 H 0.2351 0.2500 0.3440
H6 H 0.2675 0.2093 0.4127
H7 H 0.3126 0.1507 0.3544
C10 C 0.27146(16) 0.5665(5) 0.40300(13)
H8 H 0.2925 0.6860 0.3981
H9 H 0.2692 0.5390 0.4472
H10 H 0.2218 0.5631 0.3833
C11 C 0.42274(16) 0.2659(5) 0.44324(12)
H11 H 0.4066 0.1506 0.4258
H12 H 0.3982 0.2877 0.4818
H13 H 0.4761 0.2638 0.4518
C12 C 0.43361(17) 0.5994(5) 0.42181(14)
H14 H 0.4875 0.5948 0.4251
H15 H 0.4149 0.6225 0.4627
H16 H 0.4178 0.6955 0.3934
C13 C 0.38945(12) 0.8482(3) -0.02309(10)
C14 C 0.39046(12) 1.1536(3) -0.02975(10)
Zn1_2 Zn 0.5000 1.5000 0.0000
Zn1_3 Zn 0.5000 -0.5000 0.0000
O1B O 0.48978(9) 0.6649(3) -0.33778(7)
O2B O 0.72436(9) 0.4572(3) -0.26973(8)
N1B N 0.53336(10) 0.5309(2) -0.09608(8)
N2B N 0.55826(10) 0.6155(3) -0.33641(8)
N3B N 0.67052(10) 0.5232(3) -0.30417(8)
N4_2 N 0.41667(11) -0.2922(3) -0.01567(9)
N4B N 0.58333(11) 0.2922(3) 0.01567(9)
N5_2 N 0.35352(11) 0.0008(3) -0.03297(12)
N6_2 N 0.41780(11) 0.2947(3) -0.02907(9)
N6B N 0.58220(11) 0.7053(3) 0.02907(9)
C1B C 0.48356(13) 0.5238(3) -0.14509(10)
H1B H 0.4331 0.5095 -0.1369
C2B C 0.50242(13) 0.5362(3) -0.20712(10)
H2B H 0.4655 0.5295 -0.2397
C3B C 0.57745(12) 0.5590(3) -0.22061(10)
C4B C 0.62950(13) 0.5707(3) -0.16953(10)
H3B H 0.6801 0.5889 -0.1761
C5B C 0.60520(13) 0.5549(3) -0.10932(10)
H4B H 0.6408 0.5613 -0.0758
C6B C 0.60135(12) 0.5673(3) -0.28534(10)
C7B C 0.67969(13) 0.5731(4) -0.37210(10)
C8B C 0.59721(13) 0.5838(4) -0.39655(10)
C9B C 0.71987(16) 0.7580(4) -0.37065(13)
H5B H 0.7649 0.7500 -0.3440
H6B H 0.7325 0.7907 -0.4127
H7B H 0.6874 0.8493 -0.3544
C10B C 0.72854(16) 0.4335(5) -0.40300(13)
H8B H 0.7075 0.3140 -0.3981
H9B H 0.7308 0.4610 -0.4472
H10B H 0.7782 0.4369 -0.3833
C11B C 0.57726(16) 0.7341(5) -0.44324(12)
H11B H 0.5934 0.8494 -0.4258
H12B H 0.6018 0.7123 -0.4818
H13B H 0.5239 0.7362 -0.4518
C12B C 0.56639(17) 0.4006(5) -0.42181(14)
H14B H 0.5125 0.4052 -0.4251
H15B H 0.5851 0.3775 -0.4627
H16B H 0.5822 0.3045 -0.3934
C13_2 C 0.38945(12) -0.1518(3) -0.02309(10)
C14_2 C 0.39046(12) 0.1536(3) -0.02975(10)
O3 O 0.66733(10) 0.2211(3) 0.22488(8)
O4 O 0.56962(11) -0.1170(3) 0.38481(10)
N7 N 0.41051(12) -0.0814(3) 0.17053(12)
N8 N 0.65851(10) 0.1465(3) 0.27857(8)
N9 N 0.61188(11) -0.0119(3) 0.35427(9)
C15 C 0.47674(15) -0.0408(4) 0.14830(13)
H17 H 0.4803 -0.0365 0.1047
C16 C 0.54102(14) -0.0043(3) 0.18570(11)
H18 H 0.5860 0.0235 0.1674
C17 C 0.53718(12) -0.0099(3) 0.25079(11)
C18 C 0.46842(13) -0.0542(4) 0.27456(13)
H19 H 0.4633 -0.0616 0.3180
C19 C 0.40788(15) -0.0871(4) 0.23325(15)
H20 H 0.3622 -0.1151 0.2502
C20 C 0.60127(12) 0.0373(3) 0.29321(10)
C21 C 0.68390(12) 0.0559(3) 0.38440(10)
C22 C 0.70958(12) 0.1955(3) 0.33457(10)
C23 C 0.66799(18) 0.1383(4) 0.44826(12)
H21 H 0.6305 0.2318 0.4427
H22 H 0.7133 0.1904 0.4669
H23 H 0.6501 0.0448 0.4755
C24 C 0.73516(16) -0.1097(4) 0.39413(14)
H24 H 0.7112 -0.1984 0.4197
H25 H 0.7817 -0.0724 0.4150
H26 H 0.7448 -0.1625 0.3539
C25 C 0.69367(15) 0.3943(3) 0.35000(13)
H27 H 0.7041 0.4694 0.3143
H28 H 0.7250 0.4314 0.3859
H29 H 0.6419 0.4076 0.3595
C26 C 0.79075(13) 0.1759(4) 0.31617(12)
H30 H 0.7994 0.0530 0.3026
H31 H 0.8240 0.2037 0.3520
H32 H 0.8000 0.2587 0.2823
loop_
_geom_bond_atom_site_label_1
_geom_bond_atom_site_label_2
_geom_bond_site_symmetry_1
_geom_bond_site_symmetry_2
Zn1 N1 1_555 1_555
O1 N2 1_555 1_555
O2 N3 1_555 1_555
N1 C1 1_555 1_555
N2 C6 1_555 1_555
N3 C6 1_555 1_555
N4 Zn1 1_555 1_555
N5 C13 1_555 1_555
N6 C14 1_555 1_555
C1 H1 1_555 1_555
C2 C1 1_555 1_555
H2 C2 1_555 1_555
C3 C2 1_555 1_555
C4 C3 1_555 1_555
H3 C4 1_555 1_555
C5 N1 1_555 1_555
H4 C5 1_555 1_555
C6 C3 1_555 1_555
C7 N3 1_555 1_555
C8 N2 1_555 1_555
C9 C7 1_555 1_555
H5 C9 1_555 1_555
H6 C9 1_555 1_555
H7 C9 1_555 1_555
C10 C7 1_555 1_555
H8 C10 1_555 1_555
H9 C10 1_555 1_555
H10 C10 1_555 1_555
C11 C8 1_555 1_555
H11 C11 1_555 1_555
H12 C11 1_555 1_555
H13 C11 1_555 1_555
C12 C8 1_555 1_555
H14 C12 1_555 1_555
H15 C12 1_555 1_555
H16 C12 1_555 1_555
C13 N4 1_555 1_555
C14 N5 1_555 1_555
O3 N8 1_555 1_555
O4 N9 1_555 1_555
N7 C15 1_555 1_555
N8 C20 1_555 1_555
N9 C20 1_555 1_555
C15 H17 1_555 1_555
C16 C15 1_555 1_555
H18 C16 1_555 1_555
C17 C16 1_555 1_555
C18 C17 1_555 1_555
H19 C18 1_555 1_555
C19 N7 1_555 1_555
H20 C19 1_555 1_555
C20 C17 1_555 1_555
C21 N9 1_555 1_555
C22 N8 1_555 1_555
C23 C21 1_555 1_555
H21 C23 1_555 1_555
H22 C23 1_555 1_555
H23 C23 1_555 1_555
C24 C21 1_555 1_555
H24 C24 1_555 1_555
H25 C24 1_555 1_555
H26 C24 1_555 1_555
C25 C22 1_555 1_555
H27 C25 1_555 1_555
H28 C25 1_555 1_555
H29 C25 1_555 1_555
C26 C22 1_555 1_555
H30 C26 1_555 1_555
H31 C26 1_555 1_555
H32 C26 1_555 1_555
Zn1_2 N6 1_555 1_555
Zn1_3 N4_2 1_555 1_555
O1B N2B 1_555 1_555
O2B N3B 1_555 1_555
N1B Zn1 1_555 1_555
N2B C6B 1_555 1_555
N3B C6B 1_555 1_555
N4_2 C13_2 1_555 1_555
N4B Zn1 1_555 1_555
N5_2 C13_2 1_555 1_555
N6_2 Zn1 1_555 1_555
N6B Zn1 1_555 1_555
C1B N1B 1_555 1_555
H1B C1B 1_555 1_555
C2B C1B 1_555 1_555
H2B C2B 1_555 1_555
C3B C2B 1_555 1_555
C4B C3B 1_555 1_555
H3B C4B 1_555 1_555
C5B N1B 1_555 1_555
H4B C5B 1_555 1_555
C6B C3B 1_555 1_555
C7B N3B 1_555 1_555
C8B N2B 1_555 1_555
C9B C7B 1_555 1_555
H5B C9B 1_555 1_555
H6B C9B 1_555 1_555
H7B C9B 1_555 1_555
C10B C7B 1_555 1_555
H8B C10B 1_555 1_555
H9B C10B 1_555 1_555
H10B C10B 1_555 1_555
C11B C8B 1_555 1_555
H11B C11B 1_555 1_555
H12B C11B 1_555 1_555
H13B C11B 1_555 1_555
C12B C8B 1_555 1_555
H14B C12B 1_555 1_555
H15B C12B 1_555 1_555
H16B C12B 1_555 1_555
C14_2 N5_2 1_555 1_555
C4 C5 1_555 1_555
C7 C8 1_555 1_555
C18 C19 1_555 1_555
C21 C22 1_555 1_555
N6_2 C14_2 1_555 1_555
C4B C5B 1_555 1_555
C7B C8B 1_555 1_555

#END
