
#######################################################################
#
#                 Cambridge Crystallographic Data Centre
#                                CCDC 
#
#######################################################################
#
# If this CIF has been generated from an entry in the Cambridge 
# Structural Database, then it will include bibliographic, chemical, 
# crystal, experimental, refinement or atomic coordinate data resulting 
# from the CCDC's data processing and validation procedures.
#
#######################################################################

data_FASZUV
_symmetry_cell_setting           triclinic
_symmetry_space_group_name_H-M   'P -1'
_symmetry_Int_Tables_number      2
_space_group_name_Hall           '-P 1'
loop_
_symmetry_equiv_pos_site_id
_symmetry_equiv_pos_as_xyz
1 x,y,z
2 -x,-y,-z
_cell_length_a                   7.1019(11)
_cell_length_b                   11.068(2)
_cell_length_c                   16.4866(19)
_cell_angle_alpha                100.256(8)
_cell_angle_beta                 51.497(8)
_cell_angle_gamma                100.532(4)
_cell_volume                     993.579
loop_
_atom_site_label
_atom_site_type_symbol
_atom_site_fract_x
_atom_site_fract_y
_atom_site_fract_z
Ni1 Ni 0.0000 0.00000 0.00000
Ni2 Ni 0.0000 0.50000 0.00000
S1 S 0.3759(3) 0.14193(12) -0.07480(13)
S2 S -0.3947(3) 0.36777(13) 0.11390(13)
C1 C 0.2695(9) 0.2747(4) -0.0441(4)
N1 N 0.1978(9) 0.3695(4) -0.0260(4)
C2 C -0.2916(9) 0.2319(5) 0.0787(4)
N2 N -0.2165(8) 0.1380(4) 0.0540(4)
N3 N -0.0489(9) 0.0217(4) 0.1436(4)
O1 O 0.1306(10) 0.1781(5) -0.4440(4)
N4 N 0.0149(8) 0.4228(4) -0.1324(4)
O2 O 0.1175(10) 0.1021(6) 0.3997(4)
H1 H 0.0986 0.1236 0.4544
C3 C -0.0123(10) 0.3078(5) -0.2889(4)
C4 C -0.0733(11) 0.0740(6) 0.3206(4)
O3 O -0.2195(10) 0.2577(6) -0.3607(4)
H2 H -0.2154 0.2185 -0.4088
C5 C 0.1720(12) 0.2874(6) -0.2876(5)
H3 H 0.2877 0.2345 -0.3385
C6 C -0.0758(12) 0.1093(7) 0.4133(5)
O4 O -0.2648(10) 0.1438(6) 0.4973(4)
C7 C -0.1757(11) 0.3877(6) -0.2143(5)
H4 H -0.2982 0.4042 -0.2151
C8 C -0.0337(12) 0.2426(6) -0.3706(5)
C9 C 0.1309(12) 0.0324(7) 0.2282(5)
H5 H 0.2641 0.0214 0.2236
C10 C -0.1575(11) 0.4442(6) -0.1368(5)
H6 H -0.2694 0.4989 -0.0862
C11 C -0.2490(11) 0.0579(7) 0.2349(5)
H7 H -0.3824 0.0643 0.2382
C12 C 0.1803(12) 0.3474(6) -0.2089(5)
H8 H 0.3062 0.3352 -0.2087
C13 C -0.2695(11) 0.0862(7) 0.3248(5)
H9 H -0.4115 0.1128 0.3866
C14 C 0.1349(11) 0.0070(6) 0.1421(5)
H10 H 0.2734 -0.0219 0.0797
Ni2_2 Ni 0.0000 -0.50000 0.00000
S1A S -0.3759(3) -0.14193(12) 0.07480(13)
S2A S 0.3947(3) -0.36777(13) -0.11390(13)
S2A_2 S 0.3947(3) 0.63223(13) -0.11390(13)
C1A C -0.2695(9) -0.2747(4) 0.0441(4)
N1A N -0.1978(9) -0.3695(4) 0.0260(4)
N1A_2 N -0.1978(9) 0.6305(4) 0.0260(4)
C2A C 0.2916(9) -0.2319(5) -0.0787(4)
N2A N 0.2165(8) -0.1380(4) -0.0540(4)
N3A N 0.0489(9) -0.0217(4) -0.1436(4)
O1A O -0.1306(10) 0.8219(5) 0.4440(4)
N4A N -0.0149(8) 0.5772(4) 0.1324(4)
O2A O -0.1175(10) -0.1021(6) -0.3997(4)
H1A H -0.0986 -0.1236 -0.4544
C3A C 0.0123(10) 0.6922(5) 0.2889(4)
C4A C 0.0733(11) -0.0740(6) -0.3206(4)
O3A O 0.2195(10) 0.7423(6) 0.3607(4)
H2A H 0.2154 0.7815 0.4088
C5A C -0.1720(12) 0.7126(6) 0.2876(5)
H3A H -0.2877 0.7655 0.3385
C6A C 0.0758(12) -0.1093(7) -0.4133(5)
O4A O 0.2648(10) -0.1438(6) -0.4973(4)
C7A C 0.1757(11) 0.6123(6) 0.2143(5)
H4A H 0.2982 0.5958 0.2151
C8A C 0.0337(12) 0.7574(6) 0.3706(5)
C9A C -0.1309(12) -0.0324(7) -0.2282(5)
H5A H -0.2641 -0.0214 -0.2236
C10A C 0.1575(11) 0.5558(6) 0.1368(5)
H6A H 0.2694 0.5011 0.0862
C11A C 0.2490(11) -0.0579(7) -0.2349(5)
H7A H 0.3824 -0.0643 -0.2382
C12A C -0.1803(12) 0.6526(6) 0.2089(5)
H8A H -0.3062 0.6648 0.2087
C13A C 0.2695(11) -0.0862(7) -0.3248(5)
H9A H 0.4115 -0.1128 -0.3866
C14A C -0.1349(11) -0.0070(6) -0.1421(5)
H10A H -0.2734 0.0219 -0.0797
loop_
_geom_bond_atom_site_label_1
_geom_bond_atom_site_label_2
_geom_bond_site_symmetry_1
_geom_bond_site_symmetry_2
Ni1 S1 1_555 1_555
Ni2 S2 1_555 1_555
S1 C1 1_555 1_555
S2 C2 1_555 1_555
C1 N1 1_555 1_555
N1 Ni2 1_555 1_555
C2 N2 1_555 1_555
N2 Ni1 1_555 1_555
N3 Ni1 1_555 1_555
O1 C8 1_555 1_555
N4 Ni2 1_555 1_555
O2 H1 1_555 1_555
C3 C5 1_555 1_555
C4 C6 1_555 1_555
O3 H2 1_555 1_555
C5 H3 1_555 1_555
C6 O2 1_555 1_555
O4 C6 1_555 1_555
C7 C3 1_555 1_555
H4 C7 1_555 1_555
C8 C3 1_555 1_555
C9 C4 1_555 1_555
H5 C9 1_555 1_555
C10 N4 1_555 1_555
H6 C10 1_555 1_555
C11 N3 1_555 1_555
H7 C11 1_555 1_555
C12 N4 1_555 1_555
H8 C12 1_555 1_555
C13 C4 1_555 1_555
H9 C13 1_555 1_555
C14 N3 1_555 1_555
H10 C14 1_555 1_555
Ni2_2 S2A 1_555 1_555
S1A Ni1 1_555 1_555
S2A C2A 1_555 1_555
S2A_2 Ni2 1_555 1_555
C1A S1A 1_555 1_555
N1A Ni2_2 1_555 1_555
N1A_2 Ni2 1_555 1_555
C2A N2A 1_555 1_555
N2A Ni1 1_555 1_555
N3A Ni1 1_555 1_555
O1A C8A 1_555 1_555
N4A Ni2 1_555 1_555
O2A H1A 1_555 1_555
C3A C5A 1_555 1_555
C4A C6A 1_555 1_555
O3A H2A 1_555 1_555
C5A H3A 1_555 1_555
C6A O2A 1_555 1_555
O4A C6A 1_555 1_555
C7A C3A 1_555 1_555
H4A C7A 1_555 1_555
C8A C3A 1_555 1_555
C9A C4A 1_555 1_555
H5A C9A 1_555 1_555
C10A N4A 1_555 1_555
H6A C10A 1_555 1_555
C11A N3A 1_555 1_555
H7A C11A 1_555 1_555
C12A N4A 1_555 1_555
H8A C12A 1_555 1_555
C13A C4A 1_555 1_555
H9A C13A 1_555 1_555
C14A N3A 1_555 1_555
H10A C14A 1_555 1_555
O3 C8 1_555 1_555
C5 C12 1_555 1_555
C7 C10 1_555 1_555
C9 C14 1_555 1_555
C11 C13 1_555 1_555
C1A N1A 1_555 1_555
O3A C8A 1_555 1_555
C5A C12A 1_555 1_555
C7A C10A 1_555 1_555
C9A C14A 1_555 1_555
C11A C13A 1_555 1_555

#END
