
#######################################################################
#
#                 Cambridge Crystallographic Data Centre
#                                CCDC 
#
#######################################################################
#
# If this CIF has been generated from an entry in the Cambridge 
# Structural Database, then it will include bibliographic, chemical, 
# crystal, experimental, refinement or atomic coordinate data resulting 
# from the CCDC's data processing and validation procedures.
#
#######################################################################

data_FASZEG
_symmetry_cell_setting           triclinic
_symmetry_space_group_name_H-M   'P -1'
_symmetry_Int_Tables_number      2
_space_group_name_Hall           '-P 1'
loop_
_symmetry_equiv_pos_site_id
_symmetry_equiv_pos_as_xyz
1 x,y,z
2 -x,-y,-z
_cell_length_a                   3.8512(6)
_cell_length_b                   11.4011(18)
_cell_length_c                   11.5587(18)
_cell_angle_alpha                111.337(2)
_cell_angle_beta                 96.290(2)
_cell_angle_gamma                98.626(2)
_cell_volume                     459.901
loop_
_atom_site_label
_atom_site_type_symbol
_atom_site_fract_x
_atom_site_fract_y
_atom_site_fract_z
Cu1 Cu 0.65834(11) 0.52542(4) 0.78830(4)
Cl1 Cl 0.1484(2) 0.43690(8) 0.64377(8)
O1 O 0.6010(9) 0.3873(3) 0.8479(3)
N1 N 0.7427(8) 0.6878(3) 0.7565(3)
C1 C 1.0737(10) 0.9018(4) 0.8443(4)
H1 H 1.2366 0.9662 0.9103
N2 N 0.9364(8) 0.9276(3) 0.7469(3)
C2 C 0.7038(9) 0.8324(4) 0.6528(4)
C3 C 0.6054(10) 0.7124(4) 0.6577(3)
H2 H 0.4421 0.6480 0.5917
C4 C 0.9811(9) 0.7828(3) 0.8496(3)
C5 C 0.5537(11) 0.8609(4) 0.5430(4)
H3 H 0.4659 0.9392 0.5733
H4 H 0.3616 0.7915 0.4900
H5 H 0.7373 0.8705 0.4953
O2 O 1.0314(7) 0.6292(2) 0.9388(2)
C6 C 1.1430(9) 0.7469(3) 0.9539(3)
O3 O 1.3661(8) 0.8261(3) 1.0410(3)
H6 H 0.401(7) 0.329(4) 0.821(5)
H7 H 0.755(13) 0.397(6) 0.914(4)
Cu1_2 Cu -0.34166(11) 0.52542(4) 0.78830(4)
Cl1_2 Cl 1.1484(2) 0.43690(8) 0.64377(8)
O4 O 0.0742(10) 0.1824(3) 0.7331(3)
H8 H 0.07(2) 0.113(4) 0.749(8)
H9 H -0.141(9) 0.199(7) 0.729(8)
loop_
_geom_bond_atom_site_label_1
_geom_bond_atom_site_label_2
_geom_bond_site_symmetry_1
_geom_bond_site_symmetry_2
Cu1 Cl1 1_555 1_555
Cl1 Cu1_2 1_555 1_555
O1 Cu1 1_555 1_555
N1 Cu1 1_555 1_555
C1 H1 1_555 1_555
N2 C1 1_555 1_555
C2 N2 1_555 1_555
C3 N1 1_555 1_555
H2 C3 1_555 1_555
C4 N1 1_555 1_555
C5 C2 1_555 1_555
H3 C5 1_555 1_555
H4 C5 1_555 1_555
H5 C5 1_555 1_555
O2 Cu1 1_555 1_555
C6 C4 1_555 1_555
O3 C6 1_555 1_555
H6 O1 1_555 1_555
H7 O1 1_555 1_555
O4 H8 1_555 1_555
H9 O4 1_555 1_555
Cl1_2 Cu1 1_555 1_555
C1 C4 1_555 1_555
C2 C3 1_555 1_555
O2 C6 1_555 1_555

#END
