
#######################################################################
#
#                 Cambridge Crystallographic Data Centre
#                                CCDC 
#
#######################################################################
#
# If this CIF has been generated from an entry in the Cambridge 
# Structural Database, then it will include bibliographic, chemical, 
# crystal, experimental, refinement or atomic coordinate data resulting 
# from the CCDC's data processing and validation procedures.
#
#######################################################################

data_FATBIN
_symmetry_cell_setting           monoclinic
_symmetry_space_group_name_H-M   'C 2/c'
_symmetry_Int_Tables_number      15
_space_group_name_Hall           '-C 2yn'
loop_
_symmetry_equiv_pos_site_id
_symmetry_equiv_pos_as_xyz
1 x,y,z
2 -x,y,1/2-z
3 1/2+x,1/2+y,z
4 1/2-x,1/2+y,1/2-z
5 -x,-y,-z
6 x,-y,1/2+z
7 1/2-x,1/2-y,-z
8 1/2+x,1/2-y,1/2+z
_cell_length_a                   38.387(5)
_cell_length_b                   8.6881(10)
_cell_length_c                   11.6559(14)
_cell_angle_alpha                90
_cell_angle_beta                 94.692(2)
_cell_angle_gamma                90
_cell_volume                     3874.33
loop_
_atom_site_label
_atom_site_type_symbol
_atom_site_fract_x
_atom_site_fract_y
_atom_site_fract_z
Ni1 Ni 0.0000 0.86877(10) 0.2500
Ni2 Ni 0.2500 0.7500 0.5000
N1 N 0.20066(8) 0.6842(4) 0.5495(3)
N2 N 0.01593(10) 0.7128(5) 0.3789(3)
O1 O 0.02999(8) 1.0346(4) 0.3458(3)
O2 O 0.05098(8) 0.8977(4) 0.2094(3)
O3 O 0.23285(7) 0.9739(3) 0.4922(2)
O4 O 0.23207(7) 1.0257(3) 0.6799(2)
O5 O 0.22946(7) 0.7279(3) 0.3300(2)
H1 H 0.2405 0.6532 0.3070
H2 H 0.2332 0.8070 0.2947
C1 C 0.09138(10) 1.0500(5) 0.3274(4)
C2 C 0.09705(12) 1.1363(5) 0.4273(4)
H3 H 0.0788 1.1555 0.4731
C3 C 0.13067(11) 1.1943(6) 0.4587(4)
H4 H 0.1344 1.2517 0.5259
C4 C 0.15826(10) 1.1684(5) 0.3925(4)
C5 C 0.15218(11) 1.0789(5) 0.2950(4)
H5 H 0.1706 1.0571 0.2503
C6 C 0.11911(12) 1.0211(5) 0.2625(4)
H6 H 0.1156 0.9621 0.1960
C7 C 0.05566(12) 0.9927(5) 0.2925(4)
C8 C 0.19371(11) 1.2398(5) 0.4244(4)
H7 H 0.1920 1.3499 0.4118
H8 H 0.2101 1.1996 0.3729
C9 C 0.20829(10) 1.2115(4) 0.5475(3)
H9 H 0.2253 1.2913 0.5681
H10 H 0.1894 1.2241 0.5970
C10 C 0.22539(9) 1.0576(4) 0.5748(3)
C11 C 0.19653(10) 0.5844(4) 0.6354(3)
H11 H 0.2165 0.5447 0.6754
C12 C 0.16471(11) 0.5378(4) 0.6676(3)
H12 H 0.1634 0.4675 0.7273
C13 C 0.13452(10) 0.5963(5) 0.6105(3)
C14 C 0.13815(11) 0.7008(5) 0.5224(4)
H13 H 0.1186 0.7438 0.4823
C15 C 0.17119(11) 0.7399(5) 0.4952(4)
H14 H 0.1732 0.8094 0.4354
C16 C 0.06275(11) 0.5976(5) 0.5514(4)
C17 C 0.03742(13) 0.6979(6) 0.5771(4)
H15 H 0.0356 0.7298 0.6525
C18 C 0.01431(13) 0.7520(6) 0.4884(4)
H16 H -0.0032 0.8193 0.5066
C19 C 0.03926(13) 0.6070(6) 0.3577(4)
H17 H 0.0396 0.5713 0.2826
C20 C 0.06302(12) 0.5466(6) 0.4399(4)
H18 H 0.0790 0.4726 0.4205
S1 S 0.09481(3) 0.5344(2) 0.65975(11)
Ni2A Ni -0.2500 0.7500 0.0000
N1A N -0.20066(8) 0.6842(4) -0.0495(3)
N1F N 0.29934(8) 0.8158(4) 0.4505(3)
N2A N -0.01593(10) 0.7128(5) 0.1211(3)
O1A O -0.02999(8) 1.0346(4) 0.1542(3)
O2A O -0.05098(8) 0.8977(4) 0.2906(3)
O3A O -0.23285(7) 0.9739(3) 0.0078(2)
O3F O 0.26715(7) 0.5261(3) 0.5078(2)
O4A O -0.23207(7) 1.0257(3) -0.1799(2)
O5F O 0.27054(7) 0.7721(3) 0.6700(2)
H1F H 0.2595 0.8468 0.6930
H2F H 0.2668 0.6930 0.7053
C1A C -0.09138(10) 1.0500(5) 0.1726(4)
C2A C -0.09705(12) 1.1363(5) 0.0727(4)
H3A H -0.0788 1.1555 0.0269
C3A C -0.13067(11) 1.1943(6) 0.0413(4)
H4A H -0.1344 1.2517 -0.0259
C4A C -0.15826(10) 1.1684(5) 0.1075(4)
C5A C -0.15218(11) 1.0789(5) 0.2050(4)
H5A H -0.1706 1.0571 0.2497
C6A C -0.11911(12) 1.0211(5) 0.2375(4)
H6A H -0.1156 0.9621 0.3040
C7A C -0.05566(12) 0.9927(5) 0.2075(4)
C8A C -0.19371(11) 1.2398(5) 0.0756(4)
H7A H -0.1920 1.3499 0.0882
H8A H -0.2101 1.1996 0.1271
C9A C -0.20829(10) 1.2115(4) -0.0475(3)
H9A H -0.2253 1.2913 -0.0681
H10A H -0.1894 1.2241 -0.0970
C10A C -0.22539(9) 1.0576(4) -0.0748(3)
C11A C -0.19653(10) 0.5844(4) -0.1354(3)
H11A H -0.2165 0.5447 -0.1754
C12A C -0.16471(11) 0.5378(4) -0.1676(3)
H12A H -0.1634 0.4675 -0.2273
C13A C -0.13452(10) 0.5963(5) -0.1105(3)
C14A C -0.13815(11) 0.7008(5) -0.0224(4)
H13A H -0.1186 0.7438 0.0177
C15A C -0.17119(11) 0.7399(5) 0.0048(4)
H14A H -0.1732 0.8094 0.0646
C16A C -0.06275(11) 0.5976(5) -0.0514(4)
C17A C -0.03742(13) 0.6979(6) -0.0771(4)
H15A H -0.0356 0.7298 -0.1525
C18A C -0.01431(13) 0.7520(6) 0.0116(4)
H16A H 0.0032 0.8193 -0.0066
C19A C -0.03926(13) 0.6070(6) 0.1423(4)
H17A H -0.0396 0.5713 0.2174
C20A C -0.06302(12) 0.5466(6) 0.0601(4)
H18A H -0.0790 0.4726 0.0795
S1A S -0.09481(3) 0.5344(2) -0.15975(11)
loop_
_geom_bond_atom_site_label_1
_geom_bond_atom_site_label_2
_geom_bond_site_symmetry_1
_geom_bond_site_symmetry_2
Ni1 N2 1_555 1_555
Ni2 N1 1_555 1_555
N1 C11 1_555 1_555
N2 C18 1_555 1_555
O1 Ni1 1_555 1_555
O2 Ni1 1_555 1_555
O3 Ni2 1_555 1_555
O4 C10 1_555 1_555
O5 Ni2 1_555 1_555
H1 O5 1_555 1_555
H2 O5 1_555 1_555
C1 C2 1_555 1_555
C2 H3 1_555 1_555
C3 C2 1_555 1_555
H4 C3 1_555 1_555
C4 C3 1_555 1_555
C5 C4 1_555 1_555
H5 C5 1_555 1_555
C6 C1 1_555 1_555
H6 C6 1_555 1_555
C7 O1 1_555 1_555
C8 C4 1_555 1_555
H7 C8 1_555 1_555
H8 C8 1_555 1_555
C9 C8 1_555 1_555
H9 C9 1_555 1_555
H10 C9 1_555 1_555
C10 O3 1_555 1_555
C11 H11 1_555 1_555
C12 C11 1_555 1_555
H12 C12 1_555 1_555
C13 C12 1_555 1_555
C14 C13 1_555 1_555
H13 C14 1_555 1_555
C15 N1 1_555 1_555
H14 C15 1_555 1_555
C16 C17 1_555 1_555
C17 H15 1_555 1_555
C18 C17 1_555 1_555
H16 C18 1_555 1_555
C19 N2 1_555 1_555
H17 C19 1_555 1_555
C20 C16 1_555 1_555
H18 C20 1_555 1_555
S1 C13 1_555 1_555
Ni2A N1A 1_555 1_555
N1A C11A 1_555 1_555
N1F Ni2 1_555 1_555
N2A Ni1 1_555 1_555
O1A Ni1 1_555 1_555
O2A Ni1 1_555 1_555
O3A Ni2A 1_555 1_555
O3F Ni2 1_555 1_555
O4A C10A 1_555 1_555
O5F Ni2 1_555 1_555
H1F O5F 1_555 1_555
H2F O5F 1_555 1_555
C1A C2A 1_555 1_555
C2A H3A 1_555 1_555
C3A C2A 1_555 1_555
H4A C3A 1_555 1_555
C4A C3A 1_555 1_555
C5A C4A 1_555 1_555
H5A C5A 1_555 1_555
C6A C1A 1_555 1_555
H6A C6A 1_555 1_555
C7A O1A 1_555 1_555
C8A C4A 1_555 1_555
H7A C8A 1_555 1_555
H8A C8A 1_555 1_555
C9A C8A 1_555 1_555
H9A C9A 1_555 1_555
H10A C9A 1_555 1_555
C10A O3A 1_555 1_555
C11A H11A 1_555 1_555
C12A C11A 1_555 1_555
H12A C12A 1_555 1_555
C13A C12A 1_555 1_555
C14A C13A 1_555 1_555
H13A C14A 1_555 1_555
C15A N1A 1_555 1_555
H14A C15A 1_555 1_555
C16A C17A 1_555 1_555
C17A H15A 1_555 1_555
C18A N2A 1_555 1_555
H16A C18A 1_555 1_555
C19A N2A 1_555 1_555
H17A C19A 1_555 1_555
C20A C16A 1_555 1_555
H18A C20A 1_555 1_555
S1A C13A 1_555 1_555
O2 C7 1_555 1_555
C1 C7 1_555 1_555
C5 C6 1_555 1_555
C9 C10 1_555 1_555
C14 C15 1_555 1_555
C16 S1 1_555 1_555
C19 C20 1_555 1_555
O2A C7A 1_555 1_555
C1A C7A 1_555 1_555
C5A C6A 1_555 1_555
C9A C10A 1_555 1_555
C14A C15A 1_555 1_555
C16A S1A 1_555 1_555
C17A C18A 1_555 1_555
C19A C20A 1_555 1_555

#END
