
#######################################################################
#
#                 Cambridge Crystallographic Data Centre
#                                CCDC 
#
#######################################################################
#
# If this CIF has been generated from an entry in the Cambridge 
# Structural Database, then it will include bibliographic, chemical, 
# crystal, experimental, refinement or atomic coordinate data resulting 
# from the CCDC's data processing and validation procedures.
#
#######################################################################

data_FATCIO
_symmetry_cell_setting           monoclinic
_symmetry_space_group_name_H-M   'P 21/n'
_symmetry_Int_Tables_number      14
_space_group_name_Hall           '-P 2yn'
loop_
_symmetry_equiv_pos_site_id
_symmetry_equiv_pos_as_xyz
1 x,y,z
2 1/2-x,1/2+y,1/2-z
3 -x,-y,-z
4 1/2+x,1/2-y,1/2+z
_cell_length_a                   9.122(8)
_cell_length_b                   8.625(8)
_cell_length_c                   9.544(8)
_cell_angle_alpha                90
_cell_angle_beta                 105.968(19)
_cell_angle_gamma                90
_cell_volume                     721.923
loop_
_atom_site_label
_atom_site_type_symbol
_atom_site_fract_x
_atom_site_fract_y
_atom_site_fract_z
Fe1 Fe 0.5000 0.5000 0.0000
O1 O 0.4666(2) 0.7182(3) 0.0759(2)
O2 O 0.2995(2) 0.8279(3) -0.1103(2)
C1 C 0.3757(3) 0.8235(4) 0.0205(3)
N1 N 0.2000(3) 0.9223(4) 0.4401(3)
C2 C 0.3469(3) 0.9116(4) 0.2663(3)
C3 C 0.3095(3) 0.8428(5) 0.5326(3)
H1 H 0.2978 0.8185 0.6239
C4 C 0.4387(4) 0.7953(5) 0.4993(4)
H2 H 0.5130 0.7393 0.5666
C5 C 0.2194(3) 0.9557(5) 0.3096(3)
H3 H 0.1434 1.0115 0.2442
C6 C 0.3601(4) 0.9571(5) 0.1190(4)
H4 H 0.4481 1.0243 0.1317
H5 H 0.2706 1.0170 0.0702
C7 C 0.4576(3) 0.8313(5) 0.3649(4)
H6 H 0.5457 0.8009 0.3412
O3 O 0.3706(2) 0.5536(3) -0.2161(2)
H7 H 0.3020 0.4963 -0.2699
H8 H 0.3288 0.6341 -0.1931
Fe1A Fe 0.0000 1.0000 0.5000
Fe1A_2 Fe 0.0000 0.0000 0.5000
O1A O 0.0334(2) 0.2182(3) 0.4241(2)
O1B O 0.5334(2) 0.2818(3) -0.0759(2)
O2A O 0.2005(2) 0.3279(3) 0.6103(2)
C1A C 0.1243(3) 0.3235(4) 0.4795(3)
N1A N 0.3000(3) 0.4223(4) 0.0599(3)
N1C N 0.7000(3) 0.5777(4) -0.0599(3)
C2A C 0.1531(3) 0.4116(4) 0.2337(3)
C3A C 0.1905(3) 0.3428(5) -0.0326(3)
H1A H 0.2022 0.3185 -0.1239
C4A C 0.0613(4) 0.2953(5) 0.0007(4)
H2A H -0.0130 0.2393 -0.0666
C5A C 0.2806(3) 0.4557(5) 0.1904(3)
H3A H 0.3566 0.5115 0.2558
C6A C 0.1399(4) 0.4571(5) 0.3810(4)
H4A H 0.0519 0.5243 0.3683
H5A H 0.2294 0.5170 0.4298
C7A C 0.0424(3) 0.3313(5) 0.1351(4)
H6A H -0.0457 0.3009 0.1588
O3B O 0.6294(2) 0.4464(3) 0.2161(2)
H7B H 0.6980 0.5037 0.2699
H8B H 0.6712 0.3659 0.1931
loop_
_geom_bond_atom_site_label_1
_geom_bond_atom_site_label_2
_geom_bond_site_symmetry_1
_geom_bond_site_symmetry_2
Fe1 O1 1_555 1_555
O1 C1 1_555 1_555
O2 C1 1_555 1_555
C1 C6 1_555 1_555
N1 C3 1_555 1_555
C2 C5 1_555 1_555
C3 H1 1_555 1_555
C4 C3 1_555 1_555
H2 C4 1_555 1_555
C5 N1 1_555 1_555
H3 C5 1_555 1_555
C6 C2 1_555 1_555
H4 C6 1_555 1_555
H5 C6 1_555 1_555
C7 C2 1_555 1_555
H6 C7 1_555 1_555
O3 Fe1 1_555 1_555
H7 O3 1_555 1_555
H8 O3 1_555 1_555
Fe1A N1 1_555 1_555
Fe1A_2 O1A 1_555 1_555
O1A C1A 1_555 1_555
O1B Fe1 1_555 1_555
O2A C1A 1_555 1_555
C1A C6A 1_555 1_555
N1A Fe1 1_555 1_555
N1C Fe1 1_555 1_555
C2A C5A 1_555 1_555
C3A N1A 1_555 1_555
H1A C3A 1_555 1_555
C4A C3A 1_555 1_555
H2A C4A 1_555 1_555
C5A N1A 1_555 1_555
H3A C5A 1_555 1_555
C6A C2A 1_555 1_555
H4A C6A 1_555 1_555
H5A C6A 1_555 1_555
C7A C2A 1_555 1_555
H6A C7A 1_555 1_555
O3B Fe1 1_555 1_555
H7B O3B 1_555 1_555
H8B O3B 1_555 1_555
C4 C7 1_555 1_555
C4A C7A 1_555 1_555

#END
