
#######################################################################
#
#                 Cambridge Crystallographic Data Centre
#                                CCDC 
#
#######################################################################
#
# If this CIF has been generated from an entry in the Cambridge 
# Structural Database, then it will include bibliographic, chemical, 
# crystal, experimental, refinement or atomic coordinate data resulting 
# from the CCDC's data processing and validation procedures.
#
#######################################################################

data_FATCEK
_symmetry_cell_setting           monoclinic
_symmetry_space_group_name_H-M   'P 21/n'
_symmetry_Int_Tables_number      14
_space_group_name_Hall           '-P 2yn'
loop_
_symmetry_equiv_pos_site_id
_symmetry_equiv_pos_as_xyz
1 x,y,z
2 1/2-x,1/2+y,1/2-z
3 -x,-y,-z
4 1/2+x,1/2-y,1/2+z
_cell_length_a                   6.886(5)
_cell_length_b                   7.359(5)
_cell_length_c                   22.779(5)
_cell_angle_alpha                90
_cell_angle_beta                 94.518(5)
_cell_angle_gamma                90
_cell_volume                     1150.72
loop_
_atom_site_label
_atom_site_type_symbol
_atom_site_fract_x
_atom_site_fract_y
_atom_site_fract_z
Cd1 Cd -0.27653(7) 0.21260(6) 0.24172(2)
Cd2 Cd -0.77005(7) -0.01575(6) 0.26818(2)
O1 O -0.6045(7) 0.1491(6) 0.1973(2)
C1 C -0.7454(10) 0.1461(9) 0.0402(3)
H1 H -0.7760 0.2685 0.0353
C2 C -0.7619(11) 0.0312(10) -0.0083(3)
H2 H -0.8018 0.0769 -0.0454
C3 C -0.7191(10) -0.1512(9) -0.0013(3)
H3 H -0.7314 -0.2288 -0.0336
O2 O -0.0763(6) -0.0256(5) 0.2284(2)
O3 O -0.7136(7) 0.3724(6) 0.1385(2)
C4 C -0.6835(9) 0.0811(9) 0.0963(3)
C5 C -0.6669(9) 0.2103(9) 0.1463(3)
C6 C -0.6575(10) -0.2187(9) 0.0540(3)
H4 H -0.6270 -0.3413 0.0585
C7 C -0.6413(9) -0.1045(8) 0.1029(3)
C8 C -0.5716(10) -0.1896(8) 0.1607(3)
O4 O -0.7030(7) -0.2277(6) 0.1961(2)
O5 O -0.3967(6) -0.2279(6) 0.1690(2)
O6 O -0.4363(7) -0.0125(6) 0.2979(2)
O7 O -0.2575(7) -0.2016(6) 0.3541(2)
C9 C -0.3604(10) -0.0621(9) 0.3491(3)
C10 C -0.3964(10) 0.0506(10) 0.4017(3)
H5 H -0.4779 0.1519 0.3897
H6 H -0.2745 0.0943 0.4196
H7 H -0.4599 -0.0220 0.4295
Cd1A Cd -0.22347(7) -0.28740(6) 0.25828(2)
Cd2_2 Cd 0.22995(7) -0.01575(6) 0.26818(2)
Cd2A Cd -0.72995(7) 0.48425(6) 0.23182(2)
Cd2A_2 Cd -0.72995(7) -0.51575(6) 0.23182(2)
O2A O -0.4237(6) 0.4744(5) 0.2716(2)
O2_2 O -1.0763(6) -0.0256(5) 0.2284(2)
O3A O -0.7864(7) -0.1276(6) 0.3615(2)
O4A O -0.7970(7) 0.2723(6) 0.3039(2)
O5A O -0.1033(6) 0.2721(6) 0.3310(2)
O7A O -0.2425(7) 0.2984(6) 0.1459(2)
loop_
_geom_bond_atom_site_label_1
_geom_bond_atom_site_label_2
_geom_bond_site_symmetry_1
_geom_bond_site_symmetry_2
Cd1 O1 1_555 1_555
Cd2 O1 1_555 1_555
O1 C5 1_555 1_555
C1 H1 1_555 1_555
C2 C1 1_555 1_555
H2 C2 1_555 1_555
C3 C2 1_555 1_555
H3 C3 1_555 1_555
O2 Cd1 1_555 1_555
O3 C5 1_555 1_555
C4 C1 1_555 1_555
C5 C4 1_555 1_555
C6 C3 1_555 1_555
H4 C6 1_555 1_555
C7 C4 1_555 1_555
C8 C7 1_555 1_555
O4 Cd2 1_555 1_555
O5 C8 1_555 1_555
O6 Cd1 1_555 1_555
O7 C9 1_555 1_555
C9 O6 1_555 1_555
C10 C9 1_555 1_555
H5 C10 1_555 1_555
H6 C10 1_555 1_555
H7 C10 1_555 1_555
Cd1A O2 1_555 1_555
Cd2_2 O2 1_555 1_555
Cd2A O3 1_555 1_555
Cd2A_2 O4 1_555 1_555
O2A Cd1 1_555 1_555
O2_2 Cd2 1_555 1_555
O3A Cd2 1_555 1_555
O4A Cd2 1_555 1_555
O5A Cd1 1_555 1_555
O7A Cd1 1_555 1_555
Cd2 O6 1_555 1_555
C6 C7 1_555 1_555
C8 O4 1_555 1_555
O5 Cd1A 1_555 1_555
O7 Cd1A 1_555 1_555
Cd2A O2A 1_555 1_555
Cd2A O4A 1_555 1_555

#END
