
#######################################################################
#
#                 Cambridge Crystallographic Data Centre
#                                CCDC 
#
#######################################################################
#
# If this CIF has been generated from an entry in the Cambridge 
# Structural Database, then it will include bibliographic, chemical, 
# crystal, experimental, refinement or atomic coordinate data resulting 
# from the CCDC's data processing and validation procedures.
#
#######################################################################

data_FATGIS
_symmetry_cell_setting           monoclinic
_symmetry_space_group_name_H-M   'P 21/c'
_symmetry_Int_Tables_number      14
_space_group_name_Hall           '-P 2ybc'
loop_
_symmetry_equiv_pos_site_id
_symmetry_equiv_pos_as_xyz
1 x,y,z
2 -x,1/2+y,1/2-z
3 -x,-y,-z
4 x,1/2-y,1/2+z
_cell_length_a                   11.043(9)
_cell_length_b                   10.259(8)
_cell_length_c                   7.684(6)
_cell_angle_alpha                90
_cell_angle_beta                 102.617(9)
_cell_angle_gamma                90
_cell_volume                     849.5
loop_
_atom_site_label
_atom_site_type_symbol
_atom_site_fract_x
_atom_site_fract_y
_atom_site_fract_z
Co1 Co 0.19637(3) 0.93123(3) 0.65030(4)
N1 N 0.23274(17) 1.12762(17) 0.7341(2)
O1 O 0.08731(15) 1.53320(16) 0.8967(2)
O2 O -0.04551(14) 1.40523(15) 0.7193(2)
O3 O 0.34170(16) 1.57058(16) 1.0139(2)
O4 O 0.35819(17) 1.59263(16) 0.7345(2)
O5 O 0.14752(17) 0.73608(15) 0.5841(2)
H1 H 0.1134 0.6953 0.4899
H2 H 0.2126 0.6949 0.6341
O6 O 0.33396(15) 0.86390(17) 0.8673(2)
H3 H 0.3424 0.8692 0.9797
H4 H 0.3420 0.7846 0.8400
C1 C 0.1441(2) 1.2155(2) 0.7433(3)
H5 H 0.0621 1.1874 0.7206
C2 C 0.16837(19) 1.3460(2) 0.7848(3)
C3 C 0.2916(2) 1.3886(2) 0.8168(3)
C4 C 0.3831(2) 1.2979(2) 0.8064(3)
H6 H 0.4657 1.3235 0.8261
C5 C 0.3511(2) 1.1706(2) 0.7671(3)
H7 H 0.4138 1.1110 0.7629
C6 C 0.0629(2) 1.4349(2) 0.8011(3)
C7 C 0.33173(19) 1.5286(2) 0.8585(3)
Co1C Co 0.19637(3) 1.56877(3) 1.15030(4)
Co1A Co -0.19637(3) 1.43123(3) 0.84970(4)
O1C O 0.08731(15) 0.96680(16) 0.3967(2)
O2A O 0.04551(14) 0.90523(15) 0.7807(2)
O3C O 0.34170(16) 0.92942(16) 0.5139(2)
loop_
_geom_bond_atom_site_label_1
_geom_bond_atom_site_label_2
_geom_bond_site_symmetry_1
_geom_bond_site_symmetry_2
Co1 N1 1_555 1_555
N1 C1 1_555 1_555
O1 C6 1_555 1_555
O2 C6 1_555 1_555
O3 C7 1_555 1_555
O4 C7 1_555 1_555
O5 Co1 1_555 1_555
H1 O5 1_555 1_555
H2 O5 1_555 1_555
O6 Co1 1_555 1_555
H3 O6 1_555 1_555
H4 O6 1_555 1_555
C1 H5 1_555 1_555
C2 C1 1_555 1_555
C3 C2 1_555 1_555
C4 C3 1_555 1_555
H6 C4 1_555 1_555
C5 N1 1_555 1_555
H7 C5 1_555 1_555
C6 C2 1_555 1_555
C7 C3 1_555 1_555
Co1C O1 1_555 1_555
Co1A O2 1_555 1_555
O1C Co1 1_555 1_555
O2A Co1 1_555 1_555
O3C Co1 1_555 1_555
O3 Co1C 1_555 1_555
C4 C5 1_555 1_555

#END
