
#######################################################################
#
#                 Cambridge Crystallographic Data Centre
#                                CCDC 
#
#######################################################################
#
# If this CIF has been generated from an entry in the Cambridge 
# Structural Database, then it will include bibliographic, chemical, 
# crystal, experimental, refinement or atomic coordinate data resulting 
# from the CCDC's data processing and validation procedures.
#
#######################################################################

data_FATJOA
_symmetry_cell_setting           monoclinic
_symmetry_space_group_name_H-M   'C 2/m'
_symmetry_Int_Tables_number      12
_space_group_name_Hall           '-C 2y'
loop_
_symmetry_equiv_pos_site_id
_symmetry_equiv_pos_as_xyz
1 x,y,z
2 1/2+x,1/2+y,z
3 -x,y,-z
4 1/2-x,1/2+y,-z
5 -x,-y,-z
6 1/2-x,1/2-y,-z
7 x,-y,z
8 1/2+x,1/2-y,z
_cell_length_a                   21.768(7)
_cell_length_b                   21.903(8)
_cell_length_c                   7.817(3)
_cell_angle_alpha                90
_cell_angle_beta                 106.040(14)
_cell_angle_gamma                90
_cell_volume                     3581.93
loop_
_atom_site_label
_atom_site_type_symbol
_atom_site_fract_x
_atom_site_fract_y
_atom_site_fract_z
Cd1 Cd 0.0000 0.0000 0.0000
Cu1 Cu 0.2500 0.2500 1.0000
Cl1 Cl 0.08354(7) 0.0000 -0.1753(2)
O1 O 0.25010(17) 0.16717(15) 0.9259(5)
O2 O 0.21819(16) 0.27693(15) 0.7566(4)
N1 N 0.06443(18) 0.07412(17) 0.1995(5)
C1 C 0.2267(2) 0.0768(2) 0.7591(7)
H1 H 0.2665 0.0629 0.8435
H2 H 0.2273 0.0662 0.6378
H3 H 0.1903 0.0568 0.7866
C2 C 0.2208(2) 0.1450(2) 0.7739(7)
C3 C 0.1866(2) 0.1796(2) 0.6260(6)
C4 C 0.1885(2) 0.2442(2) 0.6237(7)
C5 C 0.1558(3) 0.2790(2) 0.4598(7)
H4 H 0.1095 0.2780 0.4429
H5 H 0.1658 0.2604 0.3566
H6 H 0.1707 0.3214 0.4721
C6 C 0.1449(2) 0.1453(2) 0.4720(7)
C7 C 0.0913(2) 0.1154(3) 0.4937(7)
H7 H 0.0808 0.1188 0.6035
C8 C 0.0534(2) 0.0813(2) 0.3583(7)
H8 H 0.0171 0.0615 0.3784
C9 C 0.1163(3) 0.1029(3) 0.1770(7)
H9 H 0.1257 0.0987 0.0659
C10 C 0.1570(3) 0.1385(3) 0.3086(7)
H10 H 0.1930 0.1580 0.2858
O4 O 0.1326(3) 0.2492(4) 0.9980(9)
C13 C 0.0972(5) 0.3079(8) 0.9534(17)
H15 H 0.0796 0.3187 1.0536
H16 H 0.1282 0.3400 0.9457
C14 C 0.0462(9) 0.3095(12) 0.794(2)
H17 H 0.0601 0.3279 0.6951
H18 H 0.0093 0.3327 0.8107
C15 C 0.0291(7) 0.2401(6) 0.7574(16)
H19 H -0.0146 0.2298 0.7634
H20 H 0.0360 0.2252 0.6446
C16 C 0.0783(11) 0.2209(11) 0.913(3)
H21 H 0.0558 0.2137 1.0050
H22 H 0.0918 0.1802 0.8818
Cu1F Cu 0.2500 -0.2500 1.0000
Cu1A Cu -0.2500 -0.2500 -1.0000
Cu1G Cu -0.2500 0.2500 -1.0000
Cl1D Cl -0.08354(7) 0.0000 0.1753(2)
O1F O 0.25010(17) -0.16717(15) 0.9259(5)
O1D O -0.25010(17) -0.16717(15) -0.9259(5)
O1B O -0.25010(17) 0.16717(15) -0.9259(5)
O1E O 0.24990(17) 0.33283(15) 1.0741(5)
O1C O 0.24990(17) -0.33283(15) 1.0741(5)
O2F O 0.21819(16) -0.27693(15) 0.7566(4)
O2D O -0.21819(16) -0.27693(15) -0.7566(4)
O2B O -0.21819(16) 0.27693(15) -0.7566(4)
O2E O 0.28181(16) 0.22307(15) 1.2434(4)
O2C O 0.28181(16) -0.22307(15) 1.2434(4)
N1F N 0.06443(18) -0.07412(17) 0.1995(5)
N1D N -0.06443(18) -0.07412(17) -0.1995(5)
N1B N -0.06443(18) 0.07412(17) -0.1995(5)
C1F C 0.2267(2) -0.0768(2) 0.7591(7)
C1D C -0.2267(2) -0.0768(2) -0.7591(7)
C1B C -0.2267(2) 0.0768(2) -0.7591(7)
H1F H 0.2665 -0.0629 0.8435
H1D H -0.2665 -0.0629 -0.8435
H1B H -0.2665 0.0629 -0.8435
H2F H 0.2273 -0.0662 0.6378
H2D H -0.2273 -0.0662 -0.6378
H2B H -0.2273 0.0662 -0.6378
H3F H 0.1903 -0.0568 0.7866
H3D H -0.1903 -0.0568 -0.7866
H3B H -0.1903 0.0568 -0.7866
C2F C 0.2208(2) -0.1450(2) 0.7739(7)
C2D C -0.2208(2) -0.1450(2) -0.7739(7)
C2B C -0.2208(2) 0.1450(2) -0.7739(7)
C3F C 0.1866(2) -0.1796(2) 0.6260(6)
C3D C -0.1866(2) -0.1796(2) -0.6260(6)
C3B C -0.1866(2) 0.1796(2) -0.6260(6)
C4F C 0.1885(2) -0.2442(2) 0.6237(7)
C4D C -0.1885(2) -0.2442(2) -0.6237(7)
C4B C -0.1885(2) 0.2442(2) -0.6237(7)
C5F C 0.1558(3) -0.2790(2) 0.4598(7)
C5D C -0.1558(3) -0.2790(2) -0.4598(7)
C5B C -0.1558(3) 0.2790(2) -0.4598(7)
H4F H 0.1095 -0.2780 0.4429
H4D H -0.1095 -0.2780 -0.4429
H4B H -0.1095 0.2780 -0.4429
H5F H 0.1658 -0.2604 0.3566
H5D H -0.1658 -0.2604 -0.3566
H5B H -0.1658 0.2604 -0.3566
H6F H 0.1707 -0.3214 0.4721
H6D H -0.1707 -0.3214 -0.4721
H6B H -0.1707 0.3214 -0.4721
C6F C 0.1449(2) -0.1453(2) 0.4720(7)
C6D C -0.1449(2) -0.1453(2) -0.4720(7)
C6B C -0.1449(2) 0.1453(2) -0.4720(7)
C7F C 0.0913(2) -0.1154(3) 0.4937(7)
C7D C -0.0913(2) -0.1154(3) -0.4937(7)
C7B C -0.0913(2) 0.1154(3) -0.4937(7)
H7F H 0.0808 -0.1188 0.6035
H7D H -0.0808 -0.1188 -0.6035
H7B H -0.0808 0.1188 -0.6035
C8F C 0.0534(2) -0.0813(2) 0.3583(7)
C8D C -0.0534(2) -0.0813(2) -0.3583(7)
C8B C -0.0534(2) 0.0813(2) -0.3583(7)
H8F H 0.0171 -0.0615 0.3784
H8D H -0.0171 -0.0615 -0.3784
H8B H -0.0171 0.0615 -0.3784
C9F C 0.1163(3) -0.1029(3) 0.1770(7)
C9D C -0.1163(3) -0.1029(3) -0.1770(7)
C9B C -0.1163(3) 0.1029(3) -0.1770(7)
H9F H 0.1257 -0.0987 0.0659
H9D H -0.1257 -0.0987 -0.0659
H9B H -0.1257 0.0987 -0.0659
C10F C 0.1570(3) -0.1385(3) 0.3086(7)
C10D C -0.1570(3) -0.1385(3) -0.3086(7)
C10B C -0.1570(3) 0.1385(3) -0.3086(7)
H10F H 0.1930 -0.1580 0.2858
H10D H -0.1930 -0.1580 -0.2858
H10B H -0.1930 0.1580 -0.2858
O4E O 0.3674(3) 0.2508(4) 1.0020(9)
O4F O 0.1326(3) -0.2492(4) 0.9980(9)
O4C O 0.3674(3) -0.2508(4) 1.0020(9)
C13E C 0.4028(5) 0.1921(8) 1.0466(17)
C13F C 0.0972(5) -0.3079(8) 0.9534(17)
C13C C 0.4028(5) -0.1921(8) 1.0466(17)
H15E H 0.4204 0.1813 0.9464
H15F H 0.0796 -0.3187 1.0536
H15C H 0.4204 -0.1813 0.9464
H16E H 0.3718 0.1600 1.0543
H16F H 0.1282 -0.3400 0.9457
H16C H 0.3718 -0.1600 1.0543
C14E C 0.4538(9) 0.1905(12) 1.206(2)
C14F C 0.0462(9) -0.3095(12) 0.794(2)
C14C C 0.4538(9) -0.1905(12) 1.206(2)
H17E H 0.4399 0.1721 1.3049
H17F H 0.0601 -0.3279 0.6951
H17C H 0.4399 -0.1721 1.3049
H18E H 0.4907 0.1673 1.1893
H18F H 0.0093 -0.3327 0.8107
H18C H 0.4907 -0.1673 1.1893
C15E C 0.4709(7) 0.2599(6) 1.2426(16)
C15F C 0.0291(7) -0.2401(6) 0.7574(16)
C15C C 0.4709(7) -0.2599(6) 1.2426(16)
H19E H 0.5146 0.2702 1.2366
H19F H -0.0146 -0.2298 0.7634
H19C H 0.5146 -0.2702 1.2366
H20E H 0.4640 0.2748 1.3554
H20F H 0.0360 -0.2252 0.6446
H20C H 0.4640 -0.2748 1.3554
C16E C 0.4217(11) 0.2791(11) 1.087(3)
C16F C 0.0783(11) -0.2209(11) 0.913(3)
C16C C 0.4217(11) -0.2791(11) 1.087(3)
H21E H 0.4442 0.2863 0.9950
H21F H 0.0558 -0.2137 1.0050
H21C H 0.4442 -0.2863 0.9950
H22E H 0.4082 0.3198 1.1182
H22F H 0.0918 -0.1802 0.8818
H22C H 0.4082 -0.3198 1.1182
O3 O 0.2598(10) 0.0000 0.249(2)
C11 C 0.3044(6) 0.0541(5) 0.2799(16)
H11 H 0.2835 0.0904 0.2130
H12 H 0.3201 0.0644 0.4079
C12 C 0.3555(6) 0.0313(5) 0.211(2)
H13 H 0.3495 0.0465 0.0881
H14 H 0.3971 0.0465 0.2855
C11F C 0.3044(6) -0.0541(5) 0.2799(16)
H11F H 0.2835 -0.0904 0.2130
H12F H 0.3201 -0.0644 0.4079
C12F C 0.3555(6) -0.0313(5) 0.211(2)
H13F H 0.3495 -0.0465 0.0881
H14F H 0.3971 -0.0465 0.2855
O5 O 0.5000 0.0000 0.0000
loop_
_geom_bond_atom_site_label_1
_geom_bond_atom_site_label_2
_geom_bond_site_symmetry_1
_geom_bond_site_symmetry_2
Cd1 Cl1 1_555 1_555
Cu1 O1 1_555 1_555
O1 C2 1_555 1_555
O2 Cu1 1_555 1_555
N1 Cd1 1_555 1_555
C1 H1 1_555 1_555
H2 C1 1_555 1_555
H3 C1 1_555 1_555
C2 C1 1_555 1_555
C3 C2 1_555 1_555
C4 O2 1_555 1_555
C5 C4 1_555 1_555
H4 C5 1_555 1_555
H5 C5 1_555 1_555
H6 C5 1_555 1_555
C6 C3 1_555 1_555
C7 C6 1_555 1_555
H7 C7 1_555 1_555
C8 N1 1_555 1_555
H8 C8 1_555 1_555
C9 N1 1_555 1_555
H9 C9 1_555 1_555
C10 C6 1_555 1_555
H10 C10 1_555 1_555
O3 C11 1_555 1_555
O4 Cu1 1_555 1_555
C11 H11 1_555 1_555
H12 C11 1_555 1_555
C12 C11 1_555 1_555
H13 C12 1_555 1_555
H14 C12 1_555 1_555
C13 O4 1_555 1_555
H15 C13 1_555 1_555
H16 C13 1_555 1_555
C14 C13 1_555 1_555
H17 C14 1_555 1_555
H18 C14 1_555 1_555
C15 C14 1_555 1_555
H19 C15 1_555 1_555
H20 C15 1_555 1_555
C16 O4 1_555 1_555
H21 C16 1_555 1_555
H22 C16 1_555 1_555
Cu1F O1F 1_555 1_555
Cu1A O1D 1_555 1_555
Cu1G O1B 1_555 1_555
Cl1D Cd1 1_555 1_555
O1F C2F 1_555 1_555
O1D C2D 1_555 1_555
O1B C2B 1_555 1_555
O1E Cu1 1_555 1_555
O1C Cu1F 1_555 1_555
O2F Cu1F 1_555 1_555
O2D Cu1A 1_555 1_555
O2B Cu1G 1_555 1_555
O2E Cu1 1_555 1_555
O2C Cu1F 1_555 1_555
N1F Cd1 1_555 1_555
N1D Cd1 1_555 1_555
N1B Cd1 1_555 1_555
C1F H1F 1_555 1_555
C1D H1D 1_555 1_555
C1B H1B 1_555 1_555
H2F C1F 1_555 1_555
H2D C1D 1_555 1_555
H2B C1B 1_555 1_555
H3F C1F 1_555 1_555
H3D C1D 1_555 1_555
H3B C1B 1_555 1_555
C2F C1F 1_555 1_555
C2D C1D 1_555 1_555
C2B C1B 1_555 1_555
C3F C2F 1_555 1_555
C3D C2D 1_555 1_555
C3B C2B 1_555 1_555
C4F O2F 1_555 1_555
C4D O2D 1_555 1_555
C4B O2B 1_555 1_555
C5F C4F 1_555 1_555
C5D C4D 1_555 1_555
C5B C4B 1_555 1_555
H4F C5F 1_555 1_555
H4D C5D 1_555 1_555
H4B C5B 1_555 1_555
H5F C5F 1_555 1_555
H5D C5D 1_555 1_555
H5B C5B 1_555 1_555
H6F C5F 1_555 1_555
H6D C5D 1_555 1_555
H6B C5B 1_555 1_555
C6F C3F 1_555 1_555
C6D C3D 1_555 1_555
C6B C3B 1_555 1_555
C7F C6F 1_555 1_555
C7D C6D 1_555 1_555
C7B C6B 1_555 1_555
H7F C7F 1_555 1_555
H7D C7D 1_555 1_555
H7B C7B 1_555 1_555
C8F N1F 1_555 1_555
C8D N1D 1_555 1_555
C8B N1B 1_555 1_555
H8F C8F 1_555 1_555
H8D C8D 1_555 1_555
H8B C8B 1_555 1_555
C9F N1F 1_555 1_555
C9D N1D 1_555 1_555
C9B N1B 1_555 1_555
H9F C9F 1_555 1_555
H9D C9D 1_555 1_555
H9B C9B 1_555 1_555
C10F C6F 1_555 1_555
C10D C6D 1_555 1_555
C10B C6B 1_555 1_555
H10F C10F 1_555 1_555
H10D C10D 1_555 1_555
H10B C10B 1_555 1_555
O4E Cu1 1_555 1_555
O4F Cu1F 1_555 1_555
O4C Cu1F 1_555 1_555
C11F O3 1_555 1_555
H11F C11F 1_555 1_555
H12F C11F 1_555 1_555
C12F C12 1_555 1_555
H13F C12F 1_555 1_555
H14F C12F 1_555 1_555
C13E O4E 1_555 1_555
C13F O4F 1_555 1_555
C13C O4C 1_555 1_555
H15E C13E 1_555 1_555
H15F C13F 1_555 1_555
H15C C13C 1_555 1_555
H16E C13E 1_555 1_555
H16F C13F 1_555 1_555
H16C C13C 1_555 1_555
C14E C13E 1_555 1_555
C14F C13F 1_555 1_555
C14C C13C 1_555 1_555
H17E C14E 1_555 1_555
H17F C14F 1_555 1_555
H17C C14C 1_555 1_555
H18E C14E 1_555 1_555
H18F C14F 1_555 1_555
H18C C14C 1_555 1_555
C15E C14E 1_555 1_555
C15F C14F 1_555 1_555
C15C C14C 1_555 1_555
H19E C15E 1_555 1_555
H19F C15F 1_555 1_555
H19C C15C 1_555 1_555
H20E C15E 1_555 1_555
H20F C15F 1_555 1_555
H20C C15C 1_555 1_555
C16E O4E 1_555 1_555
C16F O4F 1_555 1_555
C16C O4C 1_555 1_555
H21E C16E 1_555 1_555
H21F C16F 1_555 1_555
H21C C16C 1_555 1_555
H22E C16E 1_555 1_555
H22F C16F 1_555 1_555
H22C C16C 1_555 1_555
C3 C4 1_555 1_555
C7 C8 1_555 1_555
C9 C10 1_555 1_555
C15 C16 1_555 1_555
C3F C4F 1_555 1_555
C3D C4D 1_555 1_555
C3B C4B 1_555 1_555
C7F C8F 1_555 1_555
C7D C8D 1_555 1_555
C7B C8B 1_555 1_555
C9F C10F 1_555 1_555
C9D C10D 1_555 1_555
C9B C10B 1_555 1_555
C11F C12F 1_555 1_555
C15E C16E 1_555 1_555
C15F C16F 1_555 1_555
C15C C16C 1_555 1_555

#END
