
#######################################################################
#
#                 Cambridge Crystallographic Data Centre
#                                CCDC 
#
#######################################################################
#
# If this CIF has been generated from an entry in the Cambridge 
# Structural Database, then it will include bibliographic, chemical, 
# crystal, experimental, refinement or atomic coordinate data resulting 
# from the CCDC's data processing and validation procedures.
#
#######################################################################

data_FATJIU
_symmetry_cell_setting           triclinic
_symmetry_space_group_name_H-M   'P -1'
_symmetry_Int_Tables_number      2
_space_group_name_Hall           '-P 1'
loop_
_symmetry_equiv_pos_site_id
_symmetry_equiv_pos_as_xyz
1 x,y,z
2 -x,-y,-z
_cell_length_a                   13.817(2)
_cell_length_b                   15.205(2)
_cell_length_c                   17.044(2)
_cell_angle_alpha                111.732(6)
_cell_angle_beta                 111.661(5)
_cell_angle_gamma                94.909(6)
_cell_volume                     2987.16
loop_
_atom_site_label
_atom_site_type_symbol
_atom_site_fract_x
_atom_site_fract_y
_atom_site_fract_z
Cd1 Cd 0.733229(19) 0.471379(14) 0.396761(18)
Cu1 Cu 0.21350(3) 0.01378(3) 0.42899(4)
Cu2 Cu 1.0000 0.0000 0.0000
O1 O 0.19179(18) 0.10183(17) 0.3707(2)
O2 O 0.3657(2) 0.0612(3) 0.4827(3)
O3 O 1.2370(2) 0.9391(2) 0.5011(2)
O4 O 1.06102(19) 0.98245(17) 0.3952(2)
O5 O 0.9635(3) 0.00035(19) 0.0977(2)
O6 O 0.9981(3) 0.13407(19) 0.0335(2)
O7 O 0.7817(3) 0.5648(2) 0.5634(2)
O8 O 0.8678(3) 0.4563(2) 0.5288(2)
O9 O 0.9041(4) 0.5406(3) 0.6735(3)
O10 O 0.6029(3) 0.5675(2) 0.3725(3)
O11 O 0.6089(3) 0.4633(3) 0.2499(3)
O12 O 0.5013(5) 0.5569(5) 0.2334(5)
O13 O 0.1913(4) -0.1169(3) 0.2917(4)
O14 O 1.2052(7) 0.0465(6) 0.0991(6)
N1 N 0.6018(2) 0.36441(19) 0.3952(2)
N2 N 0.8502(2) 0.60385(18) 0.4155(2)
N3 N 0.7951(2) 0.35356(18) 0.3079(2)
N4 N 0.8525(3) 0.5213(3) 0.5905(3)
N5 N 0.5696(4) 0.5304(4) 0.2849(4)
C1 C 0.2204(3) 0.2051(3) 0.3044(3)
H1 H 0.1453 0.1720 0.2619
H2 H 0.2614 0.2035 0.2686
H3 H 0.2264 0.2727 0.3432
C2 C 0.2636(3) 0.1547(2) 0.3653(3)
C3 C 0.3759(3) 0.1676(2) 0.4126(3)
C4 C 0.4201(3) 0.1220(4) 0.4705(4)
C5 C 0.5395(4) 0.1402(6) 0.5208(6)
H4 H 0.5560 0.1169 0.5689
H5 H 0.5728 0.2099 0.5496
H6 H 0.5670 0.1057 0.4766
C6 C 0.4505(3) 0.2358(2) 0.4030(3)
C7 C 0.4926(3) 0.2045(3) 0.3389(3)
H7 H 0.4704 0.1381 0.2958
C8 C 0.5672(3) 0.2697(3) 0.3369(3)
H8 H 0.5946 0.2458 0.2923
C9 C 0.5638(4) 0.3949(3) 0.4586(4)
H9 H 0.5889 0.4613 0.5020
C10 C 0.4886(4) 0.3337(3) 0.4641(4)
H10 H 0.4635 0.3594 0.5100
C11 C 1.2124(4) 0.8192(4) 0.5523(4)
H11 H 1.2869 0.8537 0.5960
H12 H 1.2090 0.7533 0.5115
H13 H 1.1709 0.8160 0.5867
C12 C 1.1662(3) 0.8733(3) 0.4938(3)
C13 C 1.0548(3) 0.8526(2) 0.4406(3)
C14 C 1.0081(3) 0.9105(2) 0.3967(3)
C15 C 0.8879(3) 0.8925(3) 0.3493(3)
H14 H 0.8704 0.9415 0.3263
H15 H 0.8583 0.8967 0.3937
H16 H 0.8572 0.8278 0.2971
C16 C 0.9835(3) 0.7668(2) 0.4330(3)
C17 C 0.9204(3) 0.7774(2) 0.4810(2)
H17 H 0.9221 0.8402 0.5215
C18 C 0.8551(3) 0.6953(2) 0.4693(3)
H18 H 0.8113 0.7045 0.5013
C19 C 0.9133(3) 0.5931(3) 0.3700(3)
H19 H 0.9127 0.5295 0.3320
C20 C 0.9786(3) 0.6723(3) 0.3774(3)
H20 H 1.0207 0.6616 0.3439
C21 C 0.8962(5) 0.0371(3) 0.2103(4)
H21 H 0.8634 -0.0328 0.1804
H22 H 0.8449 0.0725 0.2237
H23 H 0.9594 0.0538 0.2682
C22 C 0.9294(3) 0.0649(3) 0.1449(3)
C23 C 0.9226(3) 0.1552(2) 0.1424(2)
C24 C 0.9620(3) 0.1857(3) 0.0888(3)
C25 C 0.9663(5) 0.2872(3) 0.0959(4)
H24 H 1.0120 0.3021 0.0685
H25 H 0.9955 0.3338 0.1613
H26 H 0.8942 0.2916 0.0626
C26 C 0.8782(3) 0.2233(2) 0.2004(2)
C27 C 0.9320(3) 0.2700(3) 0.2968(2)
H27 H 0.9980 0.2587 0.3282
C28 C 0.8880(3) 0.3335(2) 0.3466(2)
H28 H 0.9262 0.3646 0.4123
C29 C 0.7421(3) 0.3070(3) 0.2146(3)
H29 H 0.6755 0.3188 0.1850
C30 C 0.7808(3) 0.2428(3) 0.1602(3)
H30 H 0.7406 0.2118 0.0947
C31 C 0.0821(16) -0.1518(13) 0.1888(12)
C32 C 1.2635(17) -0.0174(16) 0.1185(13)
Cd1A Cd 1.266771(19) -0.471379(14) -0.396761(18)
Cu1A Cu 1.78650(3) -0.01378(3) -0.42899(4)
Cu1_2 Cu 1.21350(3) 1.01378(3) 0.42899(4)
Cu1A_2 Cu 0.78650(3) -1.01378(3) -0.42899(4)
O1A O 1.80821(18) -0.10183(17) -0.3707(2)
O2A O 1.6343(2) -0.0612(3) -0.4827(3)
O3A O 0.7630(2) -0.9391(2) -0.5011(2)
O3_2 O 0.2370(2) -0.0609(2) 0.5011(2)
O3A_2 O 1.7630(2) 0.0609(2) -0.5011(2)
O4A O 0.93898(19) -0.98245(17) -0.3952(2)
O4_2 O 0.06102(19) -0.01755(17) 0.3952(2)
O4A_2 O 1.93898(19) 0.01755(17) -0.3952(2)
O5A O 1.0365(3) -0.00035(19) -0.0977(2)
O6A O 1.0019(3) -0.13407(19) -0.0335(2)
O7A O 1.2183(3) -0.5648(2) -0.5634(2)
O8A O 1.1322(3) -0.4563(2) -0.5288(2)
O9A O 1.0959(4) -0.5406(3) -0.6735(3)
O10A O 1.3971(3) -0.5675(2) -0.3725(3)
O11A O 1.3911(3) -0.4633(3) -0.2499(3)
O12A O 1.4987(5) -0.5569(5) -0.2334(5)
O13A O 1.8087(4) 0.1169(3) -0.2917(4)
O14A O 0.7948(7) -0.0465(6) -0.0991(6)
N1A N 1.3982(2) -0.36441(19) -0.3952(2)
N2A N 1.1498(2) -0.60385(18) -0.4155(2)
N3A N 1.2049(2) -0.35356(18) -0.3079(2)
N4A N 1.1475(3) -0.5213(3) -0.5905(3)
N5A N 1.4304(4) -0.5304(4) -0.2849(4)
C1A C 1.7796(3) -0.2051(3) -0.3044(3)
H1A H 1.8547 -0.1720 -0.2619
H2A H 1.7386 -0.2035 -0.2686
H3A H 1.7736 -0.2727 -0.3432
C2A C 1.7364(3) -0.1547(2) -0.3653(3)
C3A C 1.6241(3) -0.1676(2) -0.4126(3)
C4A C 1.5799(3) -0.1220(4) -0.4705(4)
C5A C 1.4605(4) -0.1402(6) -0.5208(6)
H4A H 1.4440 -0.1169 -0.5689
H5A H 1.4272 -0.2099 -0.5496
H6A H 1.4330 -0.1057 -0.4766
C6A C 1.5495(3) -0.2358(2) -0.4030(3)
C7A C 1.5074(3) -0.2045(3) -0.3389(3)
H7A H 1.5296 -0.1381 -0.2958
C8A C 1.4328(3) -0.2697(3) -0.3369(3)
H8A H 1.4054 -0.2458 -0.2923
C9A C 1.4362(4) -0.3949(3) -0.4586(4)
H9A H 1.4111 -0.4613 -0.5020
C10A C 1.5114(4) -0.3337(3) -0.4641(4)
H10A H 1.5365 -0.3594 -0.5100
C11A C 0.7876(4) -0.8192(4) -0.5523(4)
H11A H 0.7131 -0.8537 -0.5960
H12A H 0.7910 -0.7533 -0.5115
H13A H 0.8291 -0.8160 -0.5867
C12A C 0.8338(3) -0.8733(3) -0.4938(3)
C13A C 0.9452(3) -0.8526(2) -0.4406(3)
C14A C 0.9919(3) -0.9105(2) -0.3967(3)
C15A C 1.1121(3) -0.8925(3) -0.3493(3)
H14A H 1.1296 -0.9415 -0.3263
H15A H 1.1417 -0.8967 -0.3937
H16A H 1.1428 -0.8278 -0.2971
C16A C 1.0165(3) -0.7668(2) -0.4330(3)
C17A C 1.0796(3) -0.7774(2) -0.4810(2)
H17A H 1.0779 -0.8402 -0.5215
C18A C 1.1449(3) -0.6953(2) -0.4693(3)
H18A H 1.1887 -0.7045 -0.5013
C19A C 1.0867(3) -0.5931(3) -0.3700(3)
H19A H 1.0873 -0.5295 -0.3320
C20A C 1.0214(3) -0.6723(3) -0.3774(3)
H20A H 0.9793 -0.6616 -0.3439
C21A C 1.1038(5) -0.0371(3) -0.2103(4)
H21A H 1.1366 0.0328 -0.1804
H22A H 1.1551 -0.0725 -0.2237
H23A H 1.0406 -0.0538 -0.2682
C22A C 1.0706(3) -0.0649(3) -0.1449(3)
C23A C 1.0774(3) -0.1552(2) -0.1424(2)
C24A C 1.0380(3) -0.1857(3) -0.0888(3)
C25A C 1.0337(5) -0.2872(3) -0.0959(4)
H24A H 0.9880 -0.3021 -0.0685
H25A H 1.0045 -0.3338 -0.1613
H26A H 1.1058 -0.2916 -0.0626
C26A C 1.1218(3) -0.2233(2) -0.2004(2)
C27A C 1.0680(3) -0.2700(3) -0.2968(2)
H27A H 1.0020 -0.2587 -0.3282
C28A C 1.1120(3) -0.3335(2) -0.3466(2)
H28A H 1.0738 -0.3646 -0.4123
C29A C 1.2579(3) -0.3070(3) -0.2146(3)
H29A H 1.3245 -0.3188 -0.1850
C30A C 1.2192(3) -0.2428(3) -0.1602(3)
H30A H 1.2594 -0.2118 -0.0947
C31A C 1.9179(16) 0.1518(13) -0.1888(12)
C32A C 0.7365(17) 0.0174(16) -0.1185(13)
O15 O 0.2604(17) -0.4495(13) 0.2511(19)
O16 O 0.207(2) -0.3421(15) 0.2899(18)
loop_
_geom_bond_atom_site_label_1
_geom_bond_atom_site_label_2
_geom_bond_site_symmetry_1
_geom_bond_site_symmetry_2
Cd1 O7 1_555 1_555
Cu1 O1 1_555 1_555
Cu2 O5 1_555 1_555
O1 C2 1_555 1_555
O2 Cu1 1_555 1_555
O3 C12 1_555 1_555
O4 C14 1_555 1_555
O5 C22 1_555 1_555
O6 Cu2 1_555 1_555
O7 N4 1_555 1_555
O8 Cd1 1_555 1_555
O9 N4 1_555 1_555
O10 Cd1 1_555 1_555
O11 Cd1 1_555 1_555
O12 N5 1_555 1_555
O13 Cu1 1_555 1_555
O14 Cu2 1_555 1_555
N1 Cd1 1_555 1_555
N2 Cd1 1_555 1_555
N3 Cd1 1_555 1_555
N4 O8 1_555 1_555
N5 O10 1_555 1_555
C1 H1 1_555 1_555
H2 C1 1_555 1_555
H3 C1 1_555 1_555
C2 C1 1_555 1_555
C3 C2 1_555 1_555
C4 O2 1_555 1_555
C5 C4 1_555 1_555
H4 C5 1_555 1_555
H5 C5 1_555 1_555
H6 C5 1_555 1_555
C6 C3 1_555 1_555
C7 C6 1_555 1_555
H7 C7 1_555 1_555
C8 N1 1_555 1_555
H8 C8 1_555 1_555
C9 N1 1_555 1_555
H9 C9 1_555 1_555
C10 C6 1_555 1_555
H10 C10 1_555 1_555
C11 H11 1_555 1_555
H12 C11 1_555 1_555
H13 C11 1_555 1_555
C12 C11 1_555 1_555
C13 C12 1_555 1_555
C14 C13 1_555 1_555
C15 C14 1_555 1_555
H14 C15 1_555 1_555
H15 C15 1_555 1_555
H16 C15 1_555 1_555
C16 C13 1_555 1_555
C17 C16 1_555 1_555
H17 C17 1_555 1_555
C18 N2 1_555 1_555
H18 C18 1_555 1_555
C19 N2 1_555 1_555
H19 C19 1_555 1_555
C20 C16 1_555 1_555
H20 C20 1_555 1_555
C21 H21 1_555 1_555
H22 C21 1_555 1_555
H23 C21 1_555 1_555
C22 C21 1_555 1_555
C23 C22 1_555 1_555
C24 O6 1_555 1_555
C25 C24 1_555 1_555
H24 C25 1_555 1_555
H25 C25 1_555 1_555
H26 C25 1_555 1_555
C26 C23 1_555 1_555
C27 C26 1_555 1_555
H27 C27 1_555 1_555
C28 N3 1_555 1_555
H28 C28 1_555 1_555
C29 N3 1_555 1_555
H29 C29 1_555 1_555
C30 C26 1_555 1_555
H30 C30 1_555 1_555
C31 O13 1_555 1_555
C32 O14 1_555 1_555
Cd1A O7A 1_555 1_555
Cu1A O1A 1_555 1_555
Cu1_2 O3 1_555 1_555
Cu1A_2 O3A 1_555 1_555
O1A C2A 1_555 1_555
O2A Cu1A 1_555 1_555
O3A C12A 1_555 1_555
O3_2 Cu1 1_555 1_555
O3A_2 Cu1A 1_555 1_555
O4A Cu1A_2 1_555 1_555
O4_2 Cu1 1_555 1_555
O4A_2 Cu1A 1_555 1_555
O5A Cu2 1_555 1_555
O6A Cu2 1_555 1_555
O7A N4A 1_555 1_555
O8A Cd1A 1_555 1_555
O9A N4A 1_555 1_555
O10A Cd1A 1_555 1_555
O11A Cd1A 1_555 1_555
O12A N5A 1_555 1_555
O13A Cu1A 1_555 1_555
O14A Cu2 1_555 1_555
N1A Cd1A 1_555 1_555
N2A Cd1A 1_555 1_555
N3A Cd1A 1_555 1_555
N4A O8A 1_555 1_555
N5A O10A 1_555 1_555
C1A H1A 1_555 1_555
H2A C1A 1_555 1_555
H3A C1A 1_555 1_555
C2A C1A 1_555 1_555
C3A C2A 1_555 1_555
C4A O2A 1_555 1_555
C5A C4A 1_555 1_555
H4A C5A 1_555 1_555
H5A C5A 1_555 1_555
H6A C5A 1_555 1_555
C6A C3A 1_555 1_555
C7A C6A 1_555 1_555
H7A C7A 1_555 1_555
C8A N1A 1_555 1_555
H8A C8A 1_555 1_555
C9A N1A 1_555 1_555
H9A C9A 1_555 1_555
C10A C6A 1_555 1_555
H10A C10A 1_555 1_555
C11A H11A 1_555 1_555
H12A C11A 1_555 1_555
H13A C11A 1_555 1_555
C12A C11A 1_555 1_555
C13A C12A 1_555 1_555
C14A O4A 1_555 1_555
C15A C14A 1_555 1_555
H14A C15A 1_555 1_555
H15A C15A 1_555 1_555
H16A C15A 1_555 1_555
C16A C13A 1_555 1_555
C17A C16A 1_555 1_555
H17A C17A 1_555 1_555
C18A N2A 1_555 1_555
H18A C18A 1_555 1_555
C19A N2A 1_555 1_555
H19A C19A 1_555 1_555
C20A C16A 1_555 1_555
H20A C20A 1_555 1_555
C21A H21A 1_555 1_555
H22A C21A 1_555 1_555
H23A C21A 1_555 1_555
C22A O5A 1_555 1_555
C23A C22A 1_555 1_555
C24A O6A 1_555 1_555
C25A C24A 1_555 1_555
H24A C25A 1_555 1_555
H25A C25A 1_555 1_555
H26A C25A 1_555 1_555
C26A C23A 1_555 1_555
C27A C26A 1_555 1_555
H27A C27A 1_555 1_555
C28A N3A 1_555 1_555
H28A C28A 1_555 1_555
C29A N3A 1_555 1_555
H29A C29A 1_555 1_555
C30A C26A 1_555 1_555
H30A C30A 1_555 1_555
C31A O13A 1_555 1_555
C32A O14A 1_555 1_555
O4 Cu1_2 1_555 1_555
O11 N5 1_555 1_555
C3 C4 1_555 1_555
C7 C8 1_555 1_555
C9 C10 1_555 1_555
C17 C18 1_555 1_555
C19 C20 1_555 1_555
C23 C24 1_555 1_555
C27 C28 1_555 1_555
C29 C30 1_555 1_555
O11A N5A 1_555 1_555
C3A C4A 1_555 1_555
C7A C8A 1_555 1_555
C9A C10A 1_555 1_555
C13A C14A 1_555 1_555
C17A C18A 1_555 1_555
C19A C20A 1_555 1_555
C21A C22A 1_555 1_555
C23A C24A 1_555 1_555
C27A C28A 1_555 1_555
C29A C30A 1_555 1_555

#END
