
#######################################################################
#
#                 Cambridge Crystallographic Data Centre
#                                CCDC 
#
#######################################################################
#
# If this CIF has been generated from an entry in the Cambridge 
# Structural Database, then it will include bibliographic, chemical, 
# crystal, experimental, refinement or atomic coordinate data resulting 
# from the CCDC's data processing and validation procedures.
#
#######################################################################

data_FATJAN
_symmetry_cell_setting           triclinic
_symmetry_space_group_name_H-M   'P -1'
_symmetry_Int_Tables_number      2
_space_group_name_Hall           '-P 1'
loop_
_symmetry_equiv_pos_site_id
_symmetry_equiv_pos_as_xyz
1 x,y,z
2 -x,-y,-z
_cell_length_a                   7.235(2)
_cell_length_b                   9.323(3)
_cell_length_c                   10.2560(5)
_cell_angle_alpha                105.690(2)
_cell_angle_beta                 95.8760(10)
_cell_angle_gamma                95.9830(10)
_cell_volume                     656.195
loop_
_atom_site_label
_atom_site_type_symbol
_atom_site_fract_x
_atom_site_fract_y
_atom_site_fract_z
C1 C 0.3113(8) 1.0865(6) 0.3270(6)
H1 H 0.4043 1.1694 0.3545
C2 C 0.2628(7) 1.0086(6) 0.4189(5)
H2 H 0.3231 1.0400 0.5084
C3 C 0.1245(7) 0.8837(5) 0.3784(5)
C4 C 0.0285(8) 0.8472(6) 0.2460(5)
H3 H -0.0703 0.7687 0.2177
C5 C 0.0795(8) 0.9271(6) 0.1570(5)
H4 H 0.0151 0.9022 0.0689
C6 C 0.0939(7) 0.7923(6) 0.4775(6)
C7 C -0.0643(9) 0.5606(7) 0.5121(7)
H5 H -0.1939 0.5138 0.4875
H6 H -0.0460 0.6156 0.6084
C8 C 0.5127(7) 0.7715(6) 0.1901(5)
Co1 Co 0.5000 1.0000 0.0000
N1 N 0.2228(6) 1.0412(5) 0.1975(4)
N2 N -0.0258(7) 0.6652(6) 0.4314(5)
H7 H -0.0838 0.6435 0.3495
N3 N 0.5168(7) 0.8508(5) 0.1192(5)
O1 O 0.2850(6) 1.1064(4) 0.1044(4)
O2 O 0.1798(7) 0.8372(5) 0.5955(4)
O3 O 0.2886(7) 0.8436(5) -0.1374(4)
S1 S 0.5081(2) 0.66139(17) 0.29177(17)
H8 H 0.254(11) 0.848(7) -0.228(4)
H9 H 0.260(11) 0.740(3) -0.140(7)
C1A C -0.3113(8) -0.0865(6) 0.6730(6)
H1A H -0.4043 -0.1694 0.6455
C2A C -0.2628(7) -0.0086(6) 0.5811(5)
H2A H -0.3231 -0.0400 0.4916
C3A C -0.1245(7) 0.1163(5) 0.6216(5)
C4A C -0.0285(8) 0.1528(6) 0.7540(5)
H3A H 0.0703 0.2313 0.7823
C5A C -0.0795(8) 0.0729(6) 0.8430(5)
H4A H -0.0151 0.0978 0.9311
C6A C -0.0939(7) 0.2077(6) 0.5225(6)
C7A C 0.0643(9) 0.4394(7) 0.4879(7)
H5A H 0.1939 0.4862 0.5125
H6A H 0.0460 0.3844 0.3916
C8A C 0.4873(7) 1.2285(6) -0.1901(5)
Co1_2 Co -0.5000 0.0000 1.0000
N1A N -0.2228(6) -0.0412(5) 0.8025(4)
N2A N 0.0258(7) 0.3348(6) 0.5686(5)
H7A H 0.0838 0.3565 0.6505
N3A N 0.4832(7) 1.1492(5) -0.1192(5)
O1A O -0.2850(6) -0.1064(4) 0.8956(4)
O1A_2 O 0.7150(6) 0.8936(4) -0.1044(4)
O2A O -0.1798(7) 0.1628(5) 0.4045(4)
O3A O 0.7114(7) 1.1564(5) 0.1374(4)
S1A S 0.4919(2) 1.33861(17) -0.29177(17)
H8A H 0.746(11) 1.152(7) 0.228(4)
H9A H 0.740(11) 1.260(3) 0.140(7)
O4 O 0.2154(7) 0.3925(5) 0.0742(5)
H10 H 0.244(10) 0.295(4) 0.077(8)
H11 H 0.325(7) 0.460(6) 0.115(8)
O5 O 0.1425(7) 0.5543(5) 0.8625(5)
H12 H 0.024(6) 0.573(9) 0.890(7)
H13 H 0.198(9) 0.506(9) 0.924(7)
loop_
_geom_bond_atom_site_label_1
_geom_bond_atom_site_label_2
_geom_bond_site_symmetry_1
_geom_bond_site_symmetry_2
C1 H1 1_555 1_555
C2 C1 1_555 1_555
H2 C2 1_555 1_555
C3 C2 1_555 1_555
C4 C3 1_555 1_555
H3 C4 1_555 1_555
C5 C4 1_555 1_555
H4 C5 1_555 1_555
C6 C3 1_555 1_555
C7 H5 1_555 1_555
H6 C7 1_555 1_555
C8 N3 1_555 1_555
Co1 N3 1_555 1_555
N1 C1 1_555 1_555
N2 C6 1_555 1_555
H7 N2 1_555 1_555
O1 Co1 1_555 1_555
O2 C6 1_555 1_555
O3 Co1 1_555 1_555
O4 H10 1_555 1_555
S1 C8 1_555 1_555
H8 O3 1_555 1_555
H9 O3 1_555 1_555
H11 O4 1_555 1_555
O5 H12 1_555 1_555
H13 O5 1_555 1_555
C1A H1A 1_555 1_555
C2A C1A 1_555 1_555
H2A C2A 1_555 1_555
C3A C2A 1_555 1_555
C4A C3A 1_555 1_555
H3A C4A 1_555 1_555
C5A C4A 1_555 1_555
H4A C5A 1_555 1_555
C6A C3A 1_555 1_555
C7A C7 1_555 1_555
H5A C7A 1_555 1_555
H6A C7A 1_555 1_555
C8A N3A 1_555 1_555
Co1_2 O1A 1_555 1_555
N1A C1A 1_555 1_555
N2A C6A 1_555 1_555
H7A N2A 1_555 1_555
N3A Co1 1_555 1_555
O1A N1A 1_555 1_555
O1A_2 Co1 1_555 1_555
O2A C6A 1_555 1_555
O3A Co1 1_555 1_555
S1A C8A 1_555 1_555
H8A O3A 1_555 1_555
H9A O3A 1_555 1_555
C5 N1 1_555 1_555
C7 N2 1_555 1_555
N1 O1 1_555 1_555
C5A N1A 1_555 1_555
C7A N2A 1_555 1_555

#END
