
#######################################################################
#
#                 Cambridge Crystallographic Data Centre
#                                CCDC 
#
#######################################################################
#
# If this CIF has been generated from an entry in the Cambridge 
# Structural Database, then it will include bibliographic, chemical, 
# crystal, experimental, refinement or atomic coordinate data resulting 
# from the CCDC's data processing and validation procedures.
#
#######################################################################

data_FATJER
_symmetry_cell_setting           triclinic
_symmetry_space_group_name_H-M   'P -1'
_symmetry_Int_Tables_number      2
_space_group_name_Hall           '-P 1'
loop_
_symmetry_equiv_pos_site_id
_symmetry_equiv_pos_as_xyz
1 x,y,z
2 -x,-y,-z
_cell_length_a                   5.2285(4)
_cell_length_b                   8.1691(7)
_cell_length_c                   15.9907(13)
_cell_angle_alpha                80.9990(10)
_cell_angle_beta                 80.9660(10)
_cell_angle_gamma                85.2200(10)
_cell_volume                     665.008
loop_
_atom_site_label
_atom_site_type_symbol
_atom_site_fract_x
_atom_site_fract_y
_atom_site_fract_z
C1 C 1.0186(5) 0.5806(4) 0.11050(17)
H1 H 1.1421 0.5637 0.0636
C2 C 1.0480(5) 0.4964(3) 0.18964(17)
H2 H 1.1942 0.4256 0.1967
C3 C 0.8598(4) 0.5164(3) 0.25951(15)
C4 C 0.6455(5) 0.6224(3) 0.24628(16)
H3 H 0.5141 0.6359 0.2916
C5 C 0.6262(5) 0.7082(3) 0.16611(17)
H4 H 0.4831 0.7811 0.1576
C6 C 0.9050(4) 0.4314(3) 0.34683(15)
C7 C 0.7145(5) 0.3034(3) 0.48843(15)
H5 H 0.7499 0.3872 0.5212
H6 H 0.8574 0.2197 0.4886
C8 C 0.4654(5) 0.2241(3) 0.53029(15)
H7 H 0.3225 0.3071 0.5258
H8 H 0.4752 0.1904 0.5907
C9 C 0.4046(5) 0.0745(3) 0.49294(16)
H9 H 0.4036 0.1060 0.4319
H10 H 0.2319 0.0423 0.5184
C10 C 1.0745(5) 0.9728(3) 0.19594(17)
Co1 Co 1.0000 1.0000 0.0000
H11 H 0.567(8) 0.395(5) 0.385(3)
H13 H 0.626(6) 1.155(5) 0.0988(12)
N1 N 0.8133(4) 0.6872(3) 0.10009(12)
N2 N 0.6964(4) 0.3800(3) 0.40020(13)
N3 N 1.0862(4) 0.9709(3) 0.12321(14)
O1 O 0.7990(3) 0.7787(2) 0.02369(11)
O2 O 1.1257(3) 0.4155(2) 0.36617(12)
O3 O 0.6632(3) 1.1437(3) 0.04138(12)
H15 H 0.5519 1.1373 0.0114
S1 S 1.06111(18) 0.97474(13) 0.29835(5)
C1A C -0.0186(5) -0.5806(4) 0.88950(17)
H1A H -0.1421 -0.5637 0.9364
C2A C -0.0480(5) -0.4964(3) 0.81036(17)
H2A H -0.1942 -0.4256 0.8033
C3A C 0.1402(4) -0.5164(3) 0.74049(15)
C4A C 0.3545(5) -0.6224(3) 0.75372(16)
H3A H 0.4859 -0.6359 0.7084
C5A C 0.3738(5) -0.7082(3) 0.83389(17)
H4A H 0.5169 -0.7811 0.8424
C6A C 0.0950(4) -0.4314(3) 0.65317(15)
C7A C 0.2855(5) -0.3034(3) 0.51157(15)
H5A H 0.2501 -0.3872 0.4788
H6A H 0.1426 -0.2197 0.5114
C8A C 0.5346(5) -0.2241(3) 0.46971(15)
H7A H 0.6775 -0.3071 0.4742
H8A H 0.5248 -0.1904 0.4093
C9A C 0.5954(5) -0.0745(3) 0.50706(16)
H9A H 0.5964 -0.1060 0.5681
H10A H 0.7681 -0.0423 0.4816
C10A C 0.9255(5) 1.0272(3) -0.19594(17)
Co1_2 Co 0.0000 -1.0000 1.0000
H11A H 0.433(8) -0.395(5) 0.615(3)
H13A H 1.374(6) 0.845(5) -0.0988(12)
N1A N 0.1867(4) -0.6872(3) 0.89991(12)
N2A N 0.3036(4) -0.3800(3) 0.59980(13)
N3A N 0.9138(4) 1.0291(3) -0.12321(14)
O1A O 0.2010(3) -0.7787(2) 0.97631(11)
O1A_2 O 1.2010(3) 1.2213(2) -0.02369(11)
O2A O -0.1257(3) -0.4155(2) 0.63383(12)
O3A O 1.3368(3) 0.8563(3) -0.04138(12)
H15A H 1.4481 0.8627 -0.0114
S1A S 0.93889(18) 1.02526(13) -0.29835(5)
H12 H 0.685(5) 0.160(4) 0.247(2)
H14 H 0.406(5) 0.142(4) 0.240(2)
O4 O 0.5542(4) 0.2040(3) 0.21185(16)
loop_
_geom_bond_atom_site_label_1
_geom_bond_atom_site_label_2
_geom_bond_site_symmetry_1
_geom_bond_site_symmetry_2
C1 H1 1_555 1_555
C2 C1 1_555 1_555
H2 C2 1_555 1_555
C3 C2 1_555 1_555
C4 C3 1_555 1_555
H3 C4 1_555 1_555
C5 C4 1_555 1_555
H4 C5 1_555 1_555
C6 C3 1_555 1_555
C7 H5 1_555 1_555
H6 C7 1_555 1_555
C8 C7 1_555 1_555
H7 C8 1_555 1_555
H8 C8 1_555 1_555
C9 C8 1_555 1_555
H9 C9 1_555 1_555
H10 C9 1_555 1_555
C10 N3 1_555 1_555
Co1 N3 1_555 1_555
H11 N2 1_555 1_555
H12 O4 1_555 1_555
H13 O3 1_555 1_555
H14 O4 1_555 1_555
N1 C1 1_555 1_555
N2 C6 1_555 1_555
O1 Co1 1_555 1_555
O2 C6 1_555 1_555
O3 Co1 1_555 1_555
H15 O3 1_555 1_555
S1 C10 1_555 1_555
C1A H1A 1_555 1_555
C2A C1A 1_555 1_555
H2A C2A 1_555 1_555
C3A C2A 1_555 1_555
C4A C3A 1_555 1_555
H3A C4A 1_555 1_555
C5A C4A 1_555 1_555
H4A C5A 1_555 1_555
C6A C3A 1_555 1_555
C7A H5A 1_555 1_555
H6A C7A 1_555 1_555
C8A C7A 1_555 1_555
H7A C8A 1_555 1_555
H8A C8A 1_555 1_555
C9A C9 1_555 1_555
H9A C9A 1_555 1_555
H10A C9A 1_555 1_555
C10A N3A 1_555 1_555
Co1_2 O1A 1_555 1_555
H11A N2A 1_555 1_555
H13A O3A 1_555 1_555
N1A C1A 1_555 1_555
N2A C6A 1_555 1_555
N3A Co1 1_555 1_555
O1A N1A 1_555 1_555
O1A_2 Co1 1_555 1_555
O2A C6A 1_555 1_555
O3A Co1 1_555 1_555
H15A O3A 1_555 1_555
S1A C10A 1_555 1_555
C5 N1 1_555 1_555
C7 N2 1_555 1_555
N1 O1 1_555 1_555
C5A N1A 1_555 1_555
C7A N2A 1_555 1_555
C8A C9A 1_555 1_555

#END
