
#######################################################################
#
#                 Cambridge Crystallographic Data Centre
#                                CCDC 
#
#######################################################################
#
# If this CIF has been generated from an entry in the Cambridge 
# Structural Database, then it will include bibliographic, chemical, 
# crystal, experimental, refinement or atomic coordinate data resulting 
# from the CCDC's data processing and validation procedures.
#
#######################################################################

data_FATJOB
_symmetry_cell_setting           monoclinic
_symmetry_space_group_name_H-M   'C 2/c'
_symmetry_Int_Tables_number      15
_space_group_name_Hall           '-C 2yn'
loop_
_symmetry_equiv_pos_site_id
_symmetry_equiv_pos_as_xyz
1 x,y,z
2 -x,y,1/2-z
3 1/2+x,1/2+y,z
4 1/2-x,1/2+y,1/2-z
5 -x,-y,-z
6 x,-y,1/2+z
7 1/2-x,1/2-y,-z
8 1/2+x,1/2-y,1/2+z
_cell_length_a                   21.5101(12)
_cell_length_b                   21.2306(12)
_cell_length_c                   27.8549(17)
_cell_angle_alpha                90
_cell_angle_beta                 103.1110(10)
_cell_angle_gamma                90
_cell_volume                     12389
loop_
_atom_site_label
_atom_site_type_symbol
_atom_site_fract_x
_atom_site_fract_y
_atom_site_fract_z
N1 N 0.20172(19) 1.23087(18) 0.69870(15)
C1 C 0.2576(3) 1.2527(2) 0.6935(2)
H1 H 0.2624 1.2961 0.6915
O1 O 0.58151(16) 0.67549(15) 0.61164(13)
O2 O 0.55514(15) 0.73806(15) 0.66799(14)
C2 C 0.5529(2) 0.6865(2) 0.6446(2)
C3 C 0.5134(2) 0.6354(2) 0.65989(18)
C4 C 0.4686(3) 0.6479(3) 0.68696(19)
H2 H 0.4625 0.6890 0.6966
C5 C 0.4326(3) 0.5989(3) 0.6997(2)
H3 H 0.4016 0.6075 0.7173
C6 C 0.5220(3) 0.5737(2) 0.6476(2)
H4 H 0.5529 0.5648 0.6301
C7 C 0.4873(3) 0.5249(3) 0.6601(2)
H5 H 0.4942 0.4839 0.6507
C8 C 0.4423(3) 0.5376(3) 0.6865(2)
O3 O 0.40412(19) 0.49316(19) 0.70101(16)
C9 C 0.4124(3) 0.4296(3) 0.6874(2)
H6 H 0.4067 0.4263 0.6519
H7 H 0.4551 0.4152 0.7028
O4 O 0.62842(19) 1.22081(19) 0.27239(14)
O5 O 0.68992(18) 1.14882(18) 0.25294(14)
C10 C 0.6737(3) 1.1828(3) 0.2850(2)
C11 C 0.7074(3) 1.1801(3) 0.3380(2)
C12 C 0.6919(3) 1.2185(3) 0.3734(2)
H8 H 0.6575 1.2459 0.3647
C13 C 0.7256(3) 1.2169(3) 0.4206(2)
H9 H 0.7151 1.2438 0.4438
C14 C 0.7579(3) 1.1377(3) 0.3528(2)
H10 H 0.7680 1.1102 0.3297
C15 C 0.7931(3) 1.1356(3) 0.4007(2)
H11 H 0.8273 1.1080 0.4097
C16 C 0.7768(3) 1.1744(3) 0.4345(2)
O6 O 0.8076(2) 1.1763(2) 0.48369(15)
C17 C 0.8638(3) 1.1392(3) 0.4992(2)
H12 H 0.8995 1.1589 0.4891
H13 H 0.8574 1.0975 0.4846
N2 N 0.1884(2) 1.15773(18) 0.56238(16)
C18 C 0.1843(2) 1.0975(2) 0.5712(2)
H14 H 0.1472 1.0828 0.5792
C19 C 0.2318(3) 1.0543(2) 0.5693(2)
H15 H 0.2261 1.0118 0.5752
C20 C 0.2427(3) 1.1774(2) 0.5529(2)
H16 H 0.2471 1.2203 0.5475
C21 C 0.2936(3) 1.1383(2) 0.5505(2)
H17 H 0.3308 1.1546 0.5436
C22 C 0.2876(3) 1.0754(2) 0.5584(2)
Co1 Co 0.62487(3) 0.79939(3) 0.69440(2)
Co2 Co 0.61096(3) 0.72306(3) 0.55785(2)
S1 S 0.33949(7) 0.95197(7) 0.56022(6)
S2 S 0.35658(7) 1.02959(6) 0.69410(6)
N3 N 0.3939(3) 1.0548(2) 0.5485(2)
N4 N 0.4101(2) 1.1331(2) 0.6852(3)
N5 N 0.4364(3) 1.0075(3) 0.5436(3)
N6 N 0.4542(2) 1.0873(2) 0.6822(2)
N7 N 0.5376(2) 0.79413(19) 0.55007(16)
O7 O 0.65451(18) 0.84828(15) 0.64128(14)
N8 N 0.55528(19) 0.87327(18) 0.68970(15)
O8 O 0.67948(16) 0.78777(15) 0.58251(14)
O9 O 0.60981(18) 0.25961(18) 0.97821(14)
O10 O 0.55006(18) 0.33002(17) 1.00145(14)
C23 C 0.7744(3) 0.8775(3) 0.5728(2)
H18 H 0.7837 0.8363 0.5657
C24 C 0.4524(2) 0.9150(2) 0.6883(2)
H19 H 0.4100 0.9078 0.6889
C25 C 0.6837(2) 0.8381(2) 0.6070(2)
O11 O 0.8368(2) 1.03250(19) 0.55934(16)
O12 O 0.4300(2) 0.3347(2) 0.77097(15)
C26 C 0.4544(3) 0.8955(3) 0.5498(2)
C27 C 0.4396(2) 0.8363(2) 0.5630(2)
H20 H 0.4012 0.8287 0.5720
C28 C 0.3027(2) 1.1502(2) 0.6946(2)
C29 C 0.7233(2) 0.8890(2) 0.59489(19)
C30 C 0.4940(2) 0.8646(2) 0.68980(19)
H21 H 0.4786 0.8238 0.6909
C31 C 0.4147(3) 0.9511(3) 0.5503(2)
C32 C 0.3408(3) 1.0327(2) 0.5552(2)
C33 C 0.5665(3) 0.2991(3) 0.9680(2)
C34 C 0.7978(3) 0.9876(3) 0.5720(2)
C35 C 0.3564(3) 1.1094(2) 0.6909(2)
C36 C 0.5308(3) 0.3100(3) 0.9161(2)
C37 C 0.4743(2) 0.9758(2) 0.68581(18)
C38 C 0.4821(3) 0.7883(2) 0.5628(2)
H22 H 0.4712 0.7486 0.5723
C39 C 0.5758(2) 0.9321(2) 0.6873(2)
H23 H 0.6184 0.9383 0.6869
C40 C 0.4332(2) 1.0312(2) 0.6862(2)
C41 C 0.5120(3) 0.9037(3) 0.5348(2)
H24 H 0.5234 0.9428 0.5245
C42 C 0.3788(3) 0.3799(3) 0.7587(2)
H25 H 0.3416 0.3645 0.7693
H26 H 0.3918 0.4195 0.7754
C43 C 0.3090(3) 1.2151(2) 0.6911(2)
H27 H 0.3471 1.2328 0.6871
C44 C 0.2454(3) 1.1271(2) 0.7017(2)
H28 H 0.2400 1.0841 0.7056
C45 C 0.4612(3) 0.3270(3) 0.8202(2)
C46 C 0.5372(2) 0.9840(2) 0.6855(2)
H29 H 0.5537 1.0243 0.6841
C47 C 0.5516(3) 0.8517(3) 0.5360(2)
H30 H 0.5899 0.8572 0.5266
C48 C 0.7125(3) 0.9512(2) 0.6069(2)
H31 H 0.6806 0.9599 0.6235
C49 C 0.5444(3) 0.2755(3) 0.8764(2)
H32 H 0.5775 0.2463 0.8823
C50 C 0.8275(3) 1.0964(3) 0.5732(2)
H33 H 0.8336 1.0999 0.6087
H34 H 0.7847 1.1106 0.5579
C51 C 0.7488(3) 1.0009(3) 0.5943(2)
H35 H 0.7397 1.0424 0.6010
C52 C 0.4455(3) 0.3613(3) 0.8587(2)
H36 H 0.4119 0.3899 0.8528
C53 C 0.8117(3) 0.9260(3) 0.5612(2)
H37 H 0.8454 0.9174 0.5465
C54 C 0.8768(3) 1.1349(3) 0.5553(2)
H38 H 0.9185 1.1162 0.5676
H39 H 0.8777 1.1771 0.5689
C55 C 0.5100(3) 0.2843(3) 0.8295(2)
H40 H 0.5196 0.2611 0.8038
C56 C 0.4807(3) 0.3513(3) 0.9046(2)
H41 H 0.4704 0.3741 0.9303
C57 C 0.3631(3) 0.3896(3) 0.7044(2)
H42 H 0.3602 0.3489 0.6882
H43 H 0.3217 0.4098 0.6947
C58 C 0.1964(3) 1.1683(2) 0.7030(2)
H44 H 0.1578 1.1520 0.7071
N1B N 0.70172(19) 0.73087(18) 0.69870(15)
O4E O 0.62842(19) 0.77919(19) 0.77239(14)
O5E O 0.68992(18) 0.85118(18) 0.75294(14)
N2B N 0.6884(2) 0.65773(18) 0.56238(16)
Co1B Co 0.12487(3) 1.29939(3) 0.69440(2)
Co1E Co 0.62487(3) 1.20061(3) 0.19440(2)
Co2B Co 0.11096(3) 1.22306(3) 0.55785(2)
Co2E Co 0.61096(3) 0.27694(3) 1.05785(2)
O9E O 0.60981(18) 0.74039(18) 0.47821(14)
O10E O 0.55006(18) 0.66998(17) 0.50145(14)
O13 O 0.2517(7) 0.5299(7) 0.2471(7)
O14 O 0.1659(6) 0.4000(9) 0.1754(5)
loop_
_geom_bond_atom_site_label_1
_geom_bond_atom_site_label_2
_geom_bond_site_symmetry_1
_geom_bond_site_symmetry_2
N1 C1 1_555 1_555
C1 H1 1_555 1_555
O1 C2 1_555 1_555
O2 C2 1_555 1_555
C2 C3 1_555 1_555
C3 C4 1_555 1_555
C4 H2 1_555 1_555
C5 C4 1_555 1_555
H3 C5 1_555 1_555
C6 C3 1_555 1_555
H4 C6 1_555 1_555
C7 C6 1_555 1_555
H5 C7 1_555 1_555
C8 C5 1_555 1_555
O3 C8 1_555 1_555
C9 O3 1_555 1_555
H6 C9 1_555 1_555
H7 C9 1_555 1_555
O4 C10 1_555 1_555
O5 C10 1_555 1_555
C10 C11 1_555 1_555
C11 C12 1_555 1_555
C12 H8 1_555 1_555
C13 C12 1_555 1_555
H9 C13 1_555 1_555
C14 C11 1_555 1_555
H10 C14 1_555 1_555
C15 C14 1_555 1_555
H11 C15 1_555 1_555
C16 C13 1_555 1_555
O6 C16 1_555 1_555
C17 O6 1_555 1_555
H12 C17 1_555 1_555
H13 C17 1_555 1_555
N2 C18 1_555 1_555
C18 H14 1_555 1_555
C19 C18 1_555 1_555
H15 C19 1_555 1_555
C20 N2 1_555 1_555
H16 C20 1_555 1_555
C21 C20 1_555 1_555
H17 C21 1_555 1_555
C22 C19 1_555 1_555
Co1 O2 1_555 1_555
Co2 O1 1_555 1_555
S1 C31 1_555 1_555
S2 C35 1_555 1_555
N3 N5 1_555 1_555
N4 N6 1_555 1_555
N5 C31 1_555 1_555
N6 C40 1_555 1_555
N7 Co2 1_555 1_555
O7 Co1 1_555 1_555
N8 Co1 1_555 1_555
O8 Co2 1_555 1_555
O9 C33 1_555 1_555
O10 C33 1_555 1_555
C23 H18 1_555 1_555
C24 H19 1_555 1_555
C25 O7 1_555 1_555
O11 C34 1_555 1_555
O12 C42 1_555 1_555
C26 C27 1_555 1_555
C27 H20 1_555 1_555
C28 C35 1_555 1_555
C29 C23 1_555 1_555
C30 N8 1_555 1_555
H21 C30 1_555 1_555
C31 C26 1_555 1_555
C32 C22 1_555 1_555
C33 C36 1_555 1_555
C34 C51 1_555 1_555
C35 N4 1_555 1_555
C36 C49 1_555 1_555
C37 C24 1_555 1_555
C38 N7 1_555 1_555
H22 C38 1_555 1_555
C39 N8 1_555 1_555
H23 C39 1_555 1_555
C40 S2 1_555 1_555
C41 C26 1_555 1_555
H24 C41 1_555 1_555
C42 H25 1_555 1_555
H26 C42 1_555 1_555
C43 C1 1_555 1_555
H27 C43 1_555 1_555
C44 C28 1_555 1_555
H28 C44 1_555 1_555
C45 O12 1_555 1_555
C46 C37 1_555 1_555
H29 C46 1_555 1_555
C47 N7 1_555 1_555
H30 C47 1_555 1_555
C48 C29 1_555 1_555
H31 C48 1_555 1_555
C49 H32 1_555 1_555
C50 O11 1_555 1_555
H33 C50 1_555 1_555
H34 C50 1_555 1_555
C51 C48 1_555 1_555
H35 C51 1_555 1_555
C52 C45 1_555 1_555
H36 C52 1_555 1_555
C53 C23 1_555 1_555
H37 C53 1_555 1_555
C54 C17 1_555 1_555
H38 C54 1_555 1_555
H39 C54 1_555 1_555
C55 C45 1_555 1_555
H40 C55 1_555 1_555
C56 C36 1_555 1_555
H41 C56 1_555 1_555
C57 C9 1_555 1_555
H42 C57 1_555 1_555
H43 C57 1_555 1_555
C58 N1 1_555 1_555
H44 C58 1_555 1_555
N1B Co1 1_555 1_555
O4E Co1 1_555 1_555
O5E Co1 1_555 1_555
N2B Co2 1_555 1_555
Co1B N1 1_555 1_555
Co1E O4 1_555 1_555
Co2B N2 1_555 1_555
Co2E O9 1_555 1_555
O9E Co2 1_555 1_555
O10E Co2 1_555 1_555
C7 C8 1_555 1_555
O5 Co1E 1_555 1_555
C15 C16 1_555 1_555
C21 C22 1_555 1_555
S1 C32 1_555 1_555
N3 C32 1_555 1_555
O8 C25 1_555 1_555
O10 Co2E 1_555 1_555
C24 C30 1_555 1_555
C25 C29 1_555 1_555
C27 C38 1_555 1_555
C28 C43 1_555 1_555
C34 C53 1_555 1_555
C37 C40 1_555 1_555
C39 C46 1_555 1_555
C41 C47 1_555 1_555
C42 C57 1_555 1_555
C44 C58 1_555 1_555
C49 C55 1_555 1_555
C50 C54 1_555 1_555
C52 C56 1_555 1_555

#END
