
#######################################################################
#
#                 Cambridge Crystallographic Data Centre
#                                CCDC 
#
#######################################################################
#
# If this CIF has been generated from an entry in the Cambridge 
# Structural Database, then it will include bibliographic, chemical, 
# crystal, experimental, refinement or atomic coordinate data resulting 
# from the CCDC's data processing and validation procedures.
#
#######################################################################

data_FATLAP
_symmetry_cell_setting           monoclinic
_symmetry_space_group_name_H-M   'P 21/c'
_symmetry_Int_Tables_number      14
_space_group_name_Hall           '-P 2ybc'
loop_
_symmetry_equiv_pos_site_id
_symmetry_equiv_pos_as_xyz
1 x,y,z
2 -x,1/2+y,1/2-z
3 -x,-y,-z
4 x,1/2-y,1/2+z
_cell_length_a                   8.8019(4)
_cell_length_b                   17.2869(6)
_cell_length_c                   10.3534(6)
_cell_angle_alpha                90
_cell_angle_beta                 125.363(3)
_cell_angle_gamma                90
_cell_volume                     1284.7
loop_
_atom_site_label
_atom_site_type_symbol
_atom_site_fract_x
_atom_site_fract_y
_atom_site_fract_z
Co1 Co 0.5000 1.0000 1.0000
C1 C 0.2731(4) 0.89248(15) 0.6919(3)
H1 H 0.1595 0.9169 0.6503
C2 C 0.5567(4) 0.86103(17) 0.8356(3)
H2 H 0.6828 0.8609 0.9183
C3 C 0.1663(5) 0.79664(18) 0.4723(3)
H3 H 0.0414 0.8132 0.4336
H4 H 0.1729 0.7411 0.4879
C4 C 0.2019(4) 0.81519(16) 0.3478(3)
H5 H 0.3274 0.7993 0.3868
H6 H 0.1156 0.7860 0.2522
C5 C 0.1792(4) 0.90033(16) 0.3088(3)
H7 H 0.0569 0.9169 0.2774
H8 H 0.2714 0.9291 0.4029
C6 C 0.3412(4) 0.95058(16) 0.1907(3)
H9 H 0.4499 0.9676 0.2840
C7 C 0.1343(4) 0.92512(17) -0.0459(3)
H10 H 0.0711 0.9212 -0.1551
N1 N 0.4319(3) 0.91120(12) 0.8275(2)
N2 N 0.2994(3) 0.83407(13) 0.6240(3)
N3 N 0.4822(4) 0.81302(14) 0.7156(3)
N4 N 0.3069(3) 0.95568(13) 0.0481(2)
N5 N 0.0623(3) 0.90139(15) 0.0282(3)
N6 N 0.1999(3) 0.91812(12) 0.1819(2)
O1 O 0.7144(3) 0.93124(10) 1.1824(2)
H11 H 0.7106 0.8823 1.1705
H12 H 0.7517 0.9400 1.2777
Co1_2 Co 0.5000 1.0000 0.0000
Co1_3 Co 0.5000 1.0000 2.0000
C1_2 C 0.2731(4) 0.89248(15) 1.6919(3)
H1_2 H 0.1595 0.9169 1.6503
C2_2 C 0.5567(4) 0.86103(17) 1.8356(3)
H2_2 H 0.6828 0.8609 1.9183
C3_2 C 0.1663(5) 0.79664(18) 1.4723(3)
H3_2 H 0.0414 0.8132 1.4336
H4_2 H 0.1729 0.7411 1.4879
C4_2 C 0.2019(4) 0.81519(16) 1.3478(3)
H5_2 H 0.3274 0.7993 1.3868
H6_2 H 0.1156 0.7860 1.2522
C5_2 C 0.1792(4) 0.90033(16) 1.3088(3)
H7_2 H 0.0569 0.9169 1.2774
H8_2 H 0.2714 0.9291 1.4029
C6_2 C 0.3412(4) 0.95058(16) 1.1907(3)
H9_2 H 0.4499 0.9676 1.2840
C7_2 C 0.1343(4) 0.92512(17) 0.9541(3)
H10_2 H 0.0711 0.9212 0.8449
N1_2 N 0.4319(3) 0.91120(12) 1.8275(2)
N1B N 0.5681(3) 1.08880(12) 1.1725(2)
N2_2 N 0.2994(3) 0.83407(13) 1.6240(3)
N3_2 N 0.4822(4) 0.81302(14) 1.7156(3)
N4_2 N 0.3069(3) 0.95568(13) 1.0481(2)
N4B N 0.6931(3) 1.04432(13) 0.9519(2)
N5_2 N 0.0623(3) 0.90139(15) 1.0282(3)
N6_2 N 0.1999(3) 0.91812(12) 1.1819(2)
O1B O 0.2856(3) 1.06876(10) 0.8176(2)
H11B H 0.2894 1.1177 0.8295
H12B H 0.2483 1.0600 0.7223
N7 N 0.7753(3) 0.89363(15) 0.5346(3)
O3 O 0.8261(4) 0.94818(13) 0.4916(3)
O4 O 0.6605(4) 0.90369(19) 0.5642(4)
O5 O 0.8557(5) 0.83141(17) 0.5661(5)
O2 O 0.7089(4) 0.77950(13) 0.1629(3)
H13 H 0.6355 0.7581 0.1810
H14 H 0.7577 0.7460 0.1367
loop_
_geom_bond_atom_site_label_1
_geom_bond_atom_site_label_2
_geom_bond_site_symmetry_1
_geom_bond_site_symmetry_2
Co1 N1 1_555 1_555
C1 H1 1_555 1_555
C2 H2 1_555 1_555
C3 H3 1_555 1_555
H4 C3 1_555 1_555
C4 C3 1_555 1_555
H5 C4 1_555 1_555
H6 C4 1_555 1_555
C5 C4 1_555 1_555
H7 C5 1_555 1_555
H8 C5 1_555 1_555
C6 H9 1_555 1_555
C7 H10 1_555 1_555
N1 C1 1_555 1_555
N2 C1 1_555 1_555
N3 C2 1_555 1_555
N4 C6 1_555 1_555
N5 C7 1_555 1_555
N6 C5 1_555 1_555
N7 O3 1_555 1_555
O1 Co1 1_555 1_555
H11 O1 1_555 1_555
H12 O1 1_555 1_555
O2 H13 1_555 1_555
H14 O2 1_555 1_555
O4 N7 1_555 1_555
O5 N7 1_555 1_555
Co1_2 N4 1_555 1_555
Co1_3 N1_2 1_555 1_555
C1_2 H1_2 1_555 1_555
C2_2 H2_2 1_555 1_555
C3_2 H3_2 1_555 1_555
H4_2 C3_2 1_555 1_555
C4_2 C3_2 1_555 1_555
H5_2 C4_2 1_555 1_555
H6_2 C4_2 1_555 1_555
C5_2 C4_2 1_555 1_555
H7_2 C5_2 1_555 1_555
H8_2 C5_2 1_555 1_555
C6_2 H9_2 1_555 1_555
C7_2 H10_2 1_555 1_555
N1_2 C1_2 1_555 1_555
N1B Co1 1_555 1_555
N2_2 C1_2 1_555 1_555
N3_2 C2_2 1_555 1_555
N4_2 Co1 1_555 1_555
N4B Co1 1_555 1_555
N5_2 C7_2 1_555 1_555
N6_2 C5_2 1_555 1_555
O1B Co1 1_555 1_555
H11B O1B 1_555 1_555
H12B O1B 1_555 1_555
C2 N1 1_555 1_555
C3 N2 1_555 1_555
C6 N6 1_555 1_555
C7 N4 1_555 1_555
N2 N3 1_555 1_555
N5 N6 1_555 1_555
C2_2 N1_2 1_555 1_555
C3_2 N2_2 1_555 1_555
C6_2 N4_2 1_555 1_555
C6_2 N6_2 1_555 1_555
C7_2 N4_2 1_555 1_555
N2_2 N3_2 1_555 1_555
N5_2 N6_2 1_555 1_555

#END
