
#######################################################################
#
#                 Cambridge Crystallographic Data Centre
#                                CCDC 
#
#######################################################################
#
# If this CIF has been generated from an entry in the Cambridge 
# Structural Database, then it will include bibliographic, chemical, 
# crystal, experimental, refinement or atomic coordinate data resulting 
# from the CCDC's data processing and validation procedures.
#
#######################################################################

data_FATMIY
_symmetry_cell_setting           rhombohedral
_symmetry_space_group_name_H-M   'R -3'
_symmetry_Int_Tables_number      148
_space_group_name_Hall           '-R 3'
loop_
_symmetry_equiv_pos_site_id
_symmetry_equiv_pos_as_xyz
1 x,y,z
2 -y,x-y,z
3 -x+y,-x,z
4 2/3+x,1/3+y,1/3+z
5 2/3-y,1/3+x-y,1/3+z
6 2/3-x+y,1/3-x,1/3+z
7 1/3+x,2/3+y,2/3+z
8 1/3-y,2/3+x-y,2/3+z
9 1/3-x+y,2/3-x,2/3+z
10 -x,-y,-z
11 y,-x+y,-z
12 x-y,x,-z
13 1/3-x,2/3-y,2/3-z
14 1/3+y,2/3-x+y,2/3-z
15 1/3+x-y,2/3+x,2/3-z
16 2/3-x,1/3-y,1/3-z
17 2/3+y,1/3-x+y,1/3-z
18 2/3+x-y,1/3+x,1/3-z
_cell_length_a                   31.9254(5)
_cell_length_b                   31.9254(5)
_cell_length_c                   11.1368(15)
_cell_angle_alpha                90
_cell_angle_beta                 90
_cell_angle_gamma                120
_cell_volume                     9830.23
loop_
_atom_site_label
_atom_site_type_symbol
_atom_site_fract_x
_atom_site_fract_y
_atom_site_fract_z
C1 C 0.0067(3) 0.2796(3) 0.3865(6)
C2 C -0.0266(3) 0.2311(3) 0.3574(7)
H1 H -0.0156 0.2106 0.3313
C3 C -0.0762(3) 0.2140(3) 0.3680(8)
H2 H -0.0978 0.1815 0.3521
C4 C -0.0937(3) 0.2426(4) 0.4002(7)
H3 H -0.1270 0.2299 0.4066
C5 C -0.0624(3) 0.2913(3) 0.4242(6)
H4 H -0.0748 0.3113 0.4437
C6 C 0.1532(2) 0.3387(2) 0.3488(6)
C7 C -0.0116(2) 0.3105(3) 0.4189(5)
C8 C 0.0179(3) 0.3600(3) 0.4411(6)
H5 H 0.0021 0.3767 0.4625
C9 C 0.0894(2) 0.4376(2) 0.4558(7)
H6 H 0.0721 0.4452 0.5158
H7 H 0.0904 0.4542 0.3820
C10 C 0.1395(3) 0.4537(3) 0.4981(6)
H8 H 0.1588 0.4887 0.4943
H9 H 0.1387 0.4440 0.5810
C11 C 0.2085(2) 0.4407(2) 0.4747(7)
H10 H 0.2188 0.4208 0.4323
H11 H 0.2031 0.4304 0.5580
C12 C 0.1706(2) 0.4497(3) 0.2962(6)
H12 H 0.1406 0.4457 0.2636
H13 H 0.1794 0.4297 0.2493
C13 C 0.2097(3) 0.5022(3) 0.2820(9)
H14 H 0.2144 0.5109 0.1976
H15 H 0.2004 0.5231 0.3231
C14 C 0.2490(3) 0.4929(3) 0.4695(10)
H16 H 0.2786 0.4960 0.5016
H17 H 0.2406 0.5133 0.5160
C15 C 0.1321(3) 0.3406(3) 0.6873(7)
Ag1 Ag 0.1667 0.3333 0.8333
Cu1 Cu 0.10678(3) 0.35799(3) 0.41286(7)
N1 N 0.16198(18) 0.43210(18) 0.4224(5)
N2 N 0.2556(3) 0.5079(3) 0.3354(10)
N3 N 0.06435(19) 0.3850(2) 0.4351(5)
N4 N 0.1156(2) 0.3459(2) 0.6036(6)
N5 N 0.1801(2) 0.3280(2) 0.3179(6)
O1 O 0.05313(16) 0.29363(16) 0.3825(4)
H18 H 0.262(3) 0.488(2) 0.289(6)
H19 H 0.2835(13) 0.5352(14) 0.345(6)
C1L C 0.3266(3) 0.3871(3) 0.2802(6)
C2L C 0.3599(3) 0.4356(3) 0.3093(7)
H1L H 0.3489 0.4561 0.3354
C3L C 0.4095(3) 0.4527(3) 0.2987(8)
H2L H 0.4311 0.4852 0.3146
C4L C 0.4270(3) 0.4241(4) 0.2665(7)
H3L H 0.4603 0.4368 0.2601
C5L C 0.3957(3) 0.3754(3) 0.2425(6)
H4L H 0.4081 0.3554 0.2230
C7L C 0.3449(2) 0.3562(3) 0.2478(5)
C8L C 0.3154(3) 0.3067(3) 0.2256(6)
H5L H 0.3312 0.2900 0.2042
C9L C 0.2439(2) 0.2291(2) 0.2109(7)
H6L H 0.2612 0.2215 0.1509
H7L H 0.2429 0.2125 0.2847
C10L C 0.1938(3) 0.2130(3) 0.1686(6)
H8L H 0.1745 0.1780 0.1724
H9L H 0.1946 0.2227 0.0857
C11L C 0.1248(2) 0.2260(2) 0.1920(7)
H10L H 0.1145 0.2459 0.2344
H11L H 0.1302 0.2363 0.1087
C12L C 0.1627(2) 0.2170(3) 0.3705(6)
H12L H 0.1927 0.2210 0.4031
H13L H 0.1539 0.2370 0.4174
C13L C 0.1236(3) 0.1645(3) 0.3847(9)
H14L H 0.1189 0.1558 0.4691
H15L H 0.1329 0.1436 0.3436
C14L C 0.0843(3) 0.1738(3) 0.1972(10)
H16L H 0.0547 0.1707 0.1651
H17L H 0.0927 0.1534 0.1507
C15L C 0.2012(3) 0.3261(3) 0.9794(7)
C15L_2 C 0.2012(3) 0.3261(3) -0.0206(7)
Ag1L Ag 0.1666 0.3334 -0.1666
Cu1L Cu 0.22655(3) 0.30868(3) 0.25381(7)
N1L N 0.17135(18) 0.23457(18) 0.2443(5)
N2L N 0.0777(3) 0.1588(3) 0.3313(10)
N3L N 0.26898(19) 0.2817(2) 0.2316(5)
N4L N 0.2177(2) 0.3208(2) 0.0631(6)
O1L O 0.28020(16) 0.37304(16) 0.2842(4)
H18L H 0.071(3) 0.179(2) 0.378(6)
H19L H 0.0498(13) 0.1315(14) 0.322(6)
Cl1 Cl 0.16741(14) 0.07218(12) 0.2120(4)
O2 O 0.2026(4) 0.1091(3) 0.2748(11)
O3 O 0.1761(6) 0.0461(7) 0.1360(16)
O4 O 0.1323(4) 0.0805(4) 0.1749(15)
O5 O 0.1488(6) 0.0325(4) 0.2880(16)
O7 O 0.3173(8) 0.6048(6) 0.275(4)
O8 O 0.0634(2) 0.2208(2) 0.4802(7)
H20 H 0.068(3) 0.2478(16) 0.446(6)
H21 H 0.074(3) 0.227(3) 0.555(3)
O6? O 0.304(2) 0.6085(12) 0.418(6)
loop_
_geom_bond_atom_site_label_1
_geom_bond_atom_site_label_2
_geom_bond_site_symmetry_1
_geom_bond_site_symmetry_2
C1 C2 1_555 1_555
C2 H1 1_555 1_555
C3 C2 1_555 1_555
H2 C3 1_555 1_555
C4 C3 1_555 1_555
H3 C4 1_555 1_555
C5 C4 1_555 1_555
H4 C5 1_555 1_555
C6 Cu1 1_555 1_555
C7 C1 1_555 1_555
C8 C7 1_555 1_555
H5 C8 1_555 1_555
C9 H6 1_555 1_555
H7 C9 1_555 1_555
C10 C9 1_555 1_555
H8 C10 1_555 1_555
H9 C10 1_555 1_555
C11 H10 1_555 1_555
H11 C11 1_555 1_555
C12 H12 1_555 1_555
H13 C12 1_555 1_555
C13 C12 1_555 1_555
H14 C13 1_555 1_555
H15 C13 1_555 1_555
C14 C11 1_555 1_555
H16 C14 1_555 1_555
H17 C14 1_555 1_555
C15 Ag1 1_555 1_555
Ag1 C15L 1_555 1_555
Cu1 N1 1_555 1_555
N1 C10 1_555 1_555
N2 C13 1_555 1_555
N3 C8 1_555 1_555
N4 C15 1_555 1_555
N5 C6 1_555 1_555
O1 C1 1_555 1_555
H18 N2 1_555 1_555
H19 N2 1_555 1_555
Cl1 O2 1_555 1_555
O3 Cl1 1_555 1_555
O4 Cl1 1_555 1_555
O5 Cl1 1_555 1_555
O8 H20 1_555 1_555
H21 O8 1_555 1_555
C1L C2L 1_555 1_555
C2L H1L 1_555 1_555
C3L C2L 1_555 1_555
H2L C3L 1_555 1_555
C4L C3L 1_555 1_555
H3L C4L 1_555 1_555
C5L C4L 1_555 1_555
H4L C5L 1_555 1_555
C7L C1L 1_555 1_555
C8L C7L 1_555 1_555
H5L C8L 1_555 1_555
C9L H6L 1_555 1_555
H7L C9L 1_555 1_555
C10L C9L 1_555 1_555
H8L C10L 1_555 1_555
H9L C10L 1_555 1_555
C11L H10L 1_555 1_555
H11L C11L 1_555 1_555
C12L H12L 1_555 1_555
H13L C12L 1_555 1_555
C13L C12L 1_555 1_555
H14L C13L 1_555 1_555
H15L C13L 1_555 1_555
C14L C11L 1_555 1_555
H16L C14L 1_555 1_555
H17L C14L 1_555 1_555
C15L_2 Ag1L 1_555 1_555
Cu1L N5 1_555 1_555
N1L C10L 1_555 1_555
N2L C13L 1_555 1_555
N3L C8L 1_555 1_555
N4L C15L_2 1_555 1_555
O1L C1L 1_555 1_555
H18L N2L 1_555 1_555
H19L N2L 1_555 1_555
C5 C7 1_555 1_555
C9 N3 1_555 1_555
C11 N1 1_555 1_555
C12 N1 1_555 1_555
C14 N2 1_555 1_555
Cu1 N3 1_555 1_555
Cu1 N4 1_555 1_555
Cu1 O1 1_555 1_555
C5L C7L 1_555 1_555
C9L N3L 1_555 1_555
C11L N1L 1_555 1_555
C12L N1L 1_555 1_555
C14L N2L 1_555 1_555
Cu1L N1L 1_555 1_555
Cu1L N3L 1_555 1_555
Cu1L N4L 1_555 1_555
Cu1L O1L 1_555 1_555

#END
