
#######################################################################
#
#                 Cambridge Crystallographic Data Centre
#                                CCDC 
#
#######################################################################
#
# If this CIF has been generated from an entry in the Cambridge 
# Structural Database, then it will include bibliographic, chemical, 
# crystal, experimental, refinement or atomic coordinate data resulting 
# from the CCDC's data processing and validation procedures.
#
#######################################################################

data_FATPOG
_symmetry_cell_setting           monoclinic
_symmetry_space_group_name_H-M   'P 2/m'
_symmetry_Int_Tables_number      10
_space_group_name_Hall           '-P 2y'
loop_
_symmetry_equiv_pos_site_id
_symmetry_equiv_pos_as_xyz
1 x,y,z
2 -x,y,-z
3 -x,-y,-z
4 x,-y,z
_cell_length_a                   4.7740(10)
_cell_length_b                   11.039(2)
_cell_length_c                   5.6752(14)
_cell_angle_alpha                90
_cell_angle_beta                 91.394(9)
_cell_angle_gamma                90
_cell_volume                     298.996
loop_
_atom_site_label
_atom_site_type_symbol
_atom_site_fract_x
_atom_site_fract_y
_atom_site_fract_z
Cu1 Cu 0.0000 0.5000 0.0000
O1 O 0.406(3) 0.5000 -0.229(5)
O2 O 0.013(2) 0.5000 -0.3685(18)
N1 N 0.0000 0.3196(7) 0.0000
N2 N 0.258(5) 0.5000 -0.418(3)
C1 C 0.160(3) 0.2576(8) 0.1474(16)
H1 H 0.3310 0.2915 0.2066
C2 C 0.162(2) 0.1333(8) 0.1558(18)
H2 H 0.2997 0.0934 0.2443
C3 C 0.0000 0.0676(8) 0.0000
Cu1_2 Cu 0.0000 -0.5000 0.0000
O1B O -0.406(3) 0.5000 0.229(5)
O2B O -0.013(2) 0.5000 0.3685(18)
N1C N 0.0000 -0.3196(7) 0.0000
N1C_2 N 0.0000 0.6804(7) 0.0000
N2B N -0.258(5) 0.5000 0.418(3)
C1A C -0.160(3) 0.2576(8) -0.1474(16)
C1C C 0.160(3) -0.2576(8) 0.1474(16)
C1B C -0.160(3) -0.2576(8) -0.1474(16)
H1A H -0.3310 0.2915 -0.2066
H1B H -0.3310 -0.2915 -0.2066
H1C H 0.3310 -0.2915 0.2066
C2A C -0.162(2) 0.1333(8) -0.1558(18)
C2C C 0.162(2) -0.1333(8) 0.1558(18)
C2B C -0.162(2) -0.1333(8) -0.1558(18)
H2A H -0.2997 0.0934 -0.2443
H2B H -0.2997 -0.0934 -0.2443
H2C H 0.2997 -0.0934 0.2443
C3C C 0.0000 -0.0676(8) 0.0000
loop_
_geom_bond_atom_site_label_1
_geom_bond_atom_site_label_2
_geom_bond_site_symmetry_1
_geom_bond_site_symmetry_2
Cu1 O1 1_555 1_555
O1 N2 1_555 1_555
O2 Cu1 1_555 1_555
N1 Cu1 1_555 1_555
N2 O2 1_555 1_555
C1 N1 1_555 1_555
H1 C1 1_555 1_555
C2 C1 1_555 1_555
H2 C2 1_555 1_555
C3 C2 1_555 1_555
Cu1_2 N1C 1_555 1_555
O1B Cu1 1_555 1_555
O2B Cu1 1_555 1_555
N1C C1C 1_555 1_555
N1C_2 Cu1 1_555 1_555
N2B O1B 1_555 1_555
C1A N1 1_555 1_555
C1C H1C 1_555 1_555
C1B N1C 1_555 1_555
H1A C1A 1_555 1_555
H1B C1B 1_555 1_555
C2A C3 1_555 1_555
C2C C1C 1_555 1_555
C2B C1B 1_555 1_555
H2A C2A 1_555 1_555
H2B C2B 1_555 1_555
H2C C2C 1_555 1_555
C3C C3 1_555 1_555
O2B N2B 1_555 1_555
C1A C2A 1_555 1_555
C2C C3C 1_555 1_555
C2B C3C 1_555 1_555

#END
