
#######################################################################
#
#                 Cambridge Crystallographic Data Centre
#                                CCDC 
#
#######################################################################
#
# If this CIF has been generated from an entry in the Cambridge 
# Structural Database, then it will include bibliographic, chemical, 
# crystal, experimental, refinement or atomic coordinate data resulting 
# from the CCDC's data processing and validation procedures.
#
#######################################################################

data_FATPUM
_symmetry_cell_setting           monoclinic
_symmetry_space_group_name_H-M   'P 2/n'
_symmetry_Int_Tables_number      13
_space_group_name_Hall           '-P 2yac'
loop_
_symmetry_equiv_pos_site_id
_symmetry_equiv_pos_as_xyz
1 x,y,z
2 1/2-x,y,1/2-z
3 -x,-y,-z
4 1/2+x,-y,1/2+z
_cell_length_a                   12.9161(16)
_cell_length_b                   11.1485(14)
_cell_length_c                   15.006(2)
_cell_angle_alpha                90
_cell_angle_beta                 106.642(6)
_cell_angle_gamma                90
_cell_volume                     2070.28
loop_
_atom_site_label
_atom_site_type_symbol
_atom_site_fract_x
_atom_site_fract_y
_atom_site_fract_z
Cu1 Cu 0.2500 0.47370(4) 0.2500
N1 N 0.3416(2) 0.4767(2) 0.1578(2)
N2 N 0.2500 0.2910(3) 0.2500
N3 N 0.2500 -0.3439(3) 0.2500
O2 O 0.0825(2) 0.4839(3) 0.1176(2)
H1 H 0.049(4) 0.548(5) 0.094(4)
H2 H 0.038(4) 0.439(5) 0.103(3)
C1 C 0.4366(3) 0.5347(3) 0.1804(3)
H4 H 0.4608 0.5691 0.2392
C2 C 0.5002(3) 0.5461(3) 0.1212(2)
H5 H 0.5653 0.5876 0.1402
C3 C 0.4668(3) 0.4954(3) 0.0329(2)
C4 C 0.3676(3) 0.4365(3) 0.0097(2)
H6 H 0.3412 0.4018 -0.0488
C5 C 0.3082(3) 0.4290(3) 0.0725(2)
H7 H 0.2422 0.3891 0.0550
C6 C 0.1833(3) 0.2279(3) 0.1809(2)
H8 H 0.1358 0.2695 0.1324
C7 C 0.1820(3) 0.1038(3) 0.1782(2)
H9 H 0.1353 0.0641 0.1282
C8 C 0.2500 0.0389(4) 0.2500
C9 C 0.2336(3) -0.2813(3) 0.1707(2)
H10 H 0.2213 -0.3233 0.1151
C10 C 0.2341(3) -0.1578(3) 0.1680(2)
H11 H 0.2238 -0.1180 0.1117
C11 C 0.2500 -0.0930(4) 0.2500
Cu1_2 Cu 0.2500 -0.52630(4) 0.2500
Cu1C Cu 0.7500 0.52630(4) -0.2500
N1B N 0.6584(2) 0.5233(2) -0.1578(2)
N1A N 0.1584(2) 0.4767(2) 0.3422(2)
N3_2 N 0.2500 0.6561(3) 0.2500
O2A O 0.4175(2) 0.4839(3) 0.3824(2)
H1A H 0.451(4) 0.548(5) 0.406(4)
H2A H 0.462(4) 0.439(5) 0.397(3)
C1B C 0.5634(3) 0.4653(3) -0.1804(3)
H4B H 0.5392 0.4309 -0.2392
C2B C 0.4998(3) 0.4539(3) -0.1212(2)
H5B H 0.4347 0.4124 -0.1402
C3B C 0.5332(3) 0.5046(3) -0.0329(2)
C4B C 0.6324(3) 0.5635(3) -0.0097(2)
H6B H 0.6588 0.5982 0.0488
C5B C 0.6918(3) 0.5710(3) -0.0725(2)
H7B H 0.7578 0.6109 -0.0550
C6A C 0.3167(3) 0.2279(3) 0.3191(2)
H8A H 0.3642 0.2695 0.3676
C7A C 0.3180(3) 0.1038(3) 0.3218(2)
H9A H 0.3647 0.0641 0.3718
C9A C 0.2664(3) -0.2813(3) 0.3293(2)
H10A H 0.2787 -0.3233 0.3849
C10A C 0.2659(3) -0.1578(3) 0.3320(2)
H11A H 0.2762 -0.1180 0.3883
Cl1 Cl -0.08340(8) 0.78886(9) 0.10145(7)
O1 O -0.1955(3) 0.8009(5) 0.0773(5)
O3 O -0.0375(7) 0.7638(6) 0.1939(3)
O5 O -0.0399(4) 0.8974(4) 0.0809(4)
O6 O -0.0538(4) 0.6953(4) 0.0487(3)
N4 N -0.5674(5) 0.0064(5) 0.1227(5)
N5 N -0.0919(3) 0.3198(4) 0.1072(3)
C12 C -0.4730(6) -0.0487(6) 0.1350(5)
H12 H -0.4710 -0.1310 0.1457
C13 C -0.3777(5) 0.0060(5) 0.1331(5)
H13 H -0.3156 -0.0393 0.1391
C14 C -0.3760(3) 0.1282(4) 0.1223(3)
C15 C -0.4704(5) 0.1851(6) 0.1163(7)
H14 H -0.4747 0.2682 0.1113
C16 C -0.5600(6) 0.1187(7) 0.1176(8)
H15 H -0.6225 0.1621 0.1144
C17 C -0.1726(4) 0.3746(4) 0.1316(4)
H16 H -0.1658 0.4560 0.1457
C18 C -0.2637(4) 0.3170(4) 0.1366(4)
H17 H -0.3173 0.3597 0.1530
C19 C -0.2777(3) 0.1941(4) 0.1174(3)
C20 C -0.1954(3) 0.1388(4) 0.0912(3)
H18 H -0.1999 0.0576 0.0764
C21 C -0.1046(4) 0.2058(5) 0.0871(4)
H19 H -0.0504 0.1666 0.0689
O4 O -0.2500 0.6563(7) 0.2500
H3 H -0.2500 0.5834(12) 0.2500
loop_
_geom_bond_atom_site_label_1
_geom_bond_atom_site_label_2
_geom_bond_site_symmetry_1
_geom_bond_site_symmetry_2
Cu1 N1 1_555 1_555
Cl1 O1 1_555 1_555
N1 C1 1_555 1_555
N2 Cu1 1_555 1_555
N3 C9 1_555 1_555
N4 C12 1_555 1_555
N5 C17 1_555 1_555
O2 Cu1 1_555 1_555
H1 O2 1_555 1_555
H2 O2 1_555 1_555
O3 Cl1 1_555 1_555
O4 H3 1_555 1_555
O5 Cl1 1_555 1_555
O6 Cl1 1_555 1_555
C1 H4 1_555 1_555
C2 C1 1_555 1_555
H5 C2 1_555 1_555
C3 C2 1_555 1_555
C4 C3 1_555 1_555
H6 C4 1_555 1_555
C5 N1 1_555 1_555
H7 C5 1_555 1_555
C6 N2 1_555 1_555
H8 C6 1_555 1_555
C7 C6 1_555 1_555
H9 C7 1_555 1_555
C8 C7 1_555 1_555
C9 H10 1_555 1_555
C10 C9 1_555 1_555
H11 C10 1_555 1_555
C11 C8 1_555 1_555
C12 H12 1_555 1_555
C13 C12 1_555 1_555
H13 C13 1_555 1_555
C14 C13 1_555 1_555
C15 C14 1_555 1_555
H14 C15 1_555 1_555
C16 N4 1_555 1_555
H15 C16 1_555 1_555
C17 H16 1_555 1_555
C18 C17 1_555 1_555
H17 C18 1_555 1_555
C19 C14 1_555 1_555
C20 C19 1_555 1_555
H18 C20 1_555 1_555
C21 N5 1_555 1_555
H19 C21 1_555 1_555
Cu1_2 N3 1_555 1_555
Cu1C N1B 1_555 1_555
N1B C1B 1_555 1_555
N1A Cu1 1_555 1_555
N3_2 Cu1 1_555 1_555
O2A Cu1 1_555 1_555
H1A O2A 1_555 1_555
H2A O2A 1_555 1_555
C1B H4B 1_555 1_555
C2B C1B 1_555 1_555
H5B C2B 1_555 1_555
C3B C3 1_555 1_555
C4B C3B 1_555 1_555
H6B C4B 1_555 1_555
C5B N1B 1_555 1_555
H7B C5B 1_555 1_555
C6A N2 1_555 1_555
H8A C6A 1_555 1_555
C7A C8 1_555 1_555
H9A C7A 1_555 1_555
C9A N3 1_555 1_555
H10A C9A 1_555 1_555
C10A C11 1_555 1_555
H11A C10A 1_555 1_555
C4 C5 1_555 1_555
C10 C11 1_555 1_555
C15 C16 1_555 1_555
C18 C19 1_555 1_555
C20 C21 1_555 1_555
C2B C3B 1_555 1_555
C4B C5B 1_555 1_555
C6A C7A 1_555 1_555
C9A C10A 1_555 1_555

#END
