
#######################################################################
#
#                 Cambridge Crystallographic Data Centre
#                                CCDC 
#
#######################################################################
#
# If this CIF has been generated from an entry in the Cambridge 
# Structural Database, then it will include bibliographic, chemical, 
# crystal, experimental, refinement or atomic coordinate data resulting 
# from the CCDC's data processing and validation procedures.
#
#######################################################################

data_FATQIA
_symmetry_cell_setting           triclinic
_symmetry_space_group_name_H-M   'P -1'
_symmetry_Int_Tables_number      2
_space_group_name_Hall           '-P 1'
loop_
_symmetry_equiv_pos_site_id
_symmetry_equiv_pos_as_xyz
1 x,y,z
2 -x,-y,-z
_cell_length_a                   10.119(2)
_cell_length_b                   11.602(2)
_cell_length_c                   11.741(2)
_cell_angle_alpha                68.09(3)
_cell_angle_beta                 79.87(3)
_cell_angle_gamma                68.26(3)
_cell_volume                     1186.75
loop_
_atom_site_label
_atom_site_type_symbol
_atom_site_fract_x
_atom_site_fract_y
_atom_site_fract_z
Cu1 Cu 0.19245(11) 1.18381(10) 0.35837(9)
Cu2 Cu -0.08193(12) 1.33941(11) 0.24231(11)
Cu3 Cu 0.15000(10) 0.86350(9) 0.54679(9)
Br1 Br 0.06780(8) 1.03116(7) 0.33824(7)
Br2 Br 0.14193(9) 1.37744(8) 0.17650(8)
Br3 Br 0.19515(9) 0.63081(8) 0.56995(8)
As1 As 0.42795(8) 1.04949(7) 0.33040(7)
As2 As 0.38707(8) 0.83399(7) 0.57894(7)
O1 O 0.5810(5) 1.0938(5) 0.3230(5)
O2 O 0.4913(5) 0.8886(5) 0.4425(5)
C1 C 0.4748(9) 0.9993(8) 0.1867(7)
H1 H 0.3992(29) 0.9757(54) 0.1727(31)
H2 H 0.5614(34) 0.9253(36) 0.1982(22)
H3 H 0.4874(60) 1.0719(20) 0.1171(12)
C2 C 0.5253(9) 0.6598(7) 0.6372(8)
H4 H 0.5246(46) 0.6098(21) 0.5882(36)
H5 H 0.6182(12) 0.6664(8) 0.6311(53)
H6 H 0.5017(37) 0.6165(23) 0.7214(18)
N1 N 0.1545(7) 1.1956(7) 0.5215(7)
C3 C 0.1443(8) 1.1924(8) 0.6214(8)
C4 C 0.1384(8) 1.1833(7) 0.7465(7)
C5 C 0.1456(9) 1.0659(8) 0.8421(8)
H7 H 0.1516(9) 0.9920(8) 0.8250(8)
C6 C 0.1438(9) 1.0588(8) 0.9609(8)
H8 H 0.1490(9) 0.9798(8) 1.0242(8)
C7 C 0.1343(9) 1.1667(9) 0.9882(8)
H9 H 0.1367(9) 1.1600(9) 1.0693(8)
C8 C 0.1211(9) 1.2851(9) 0.8952(9)
H10 H 0.1094(9) 1.3593(9) 0.9143(9)
C9 C 0.1252(9) 1.2951(8) 0.7738(8)
H11 H 0.1192(9) 1.3746(8) 0.7111(8)
N2 N -0.1892(8) 1.3333(7) 0.1256(7)
C10 C -0.2506(9) 1.3296(8) 0.0537(8)
C11 C -0.3282(8) 1.3275(7) -0.0361(7)
C12 C -0.4703(10) 1.3379(9) -0.0109(9)
H12 H -0.5145(10) 1.3458(9) 0.0636(9)
C13 C -0.5443(12) 1.3365(11) -0.0960(12)
H13 H -0.6398(12) 1.3436(11) -0.0795(12)
C14 C -0.4797(14) 1.3247(9) -0.2062(11)
H14 H -0.5323(14) 1.3263(9) -0.2645(11)
C15 C -0.3390(14) 1.3106(9) -0.2303(9)
H15 H -0.2946(14) 1.2989(9) -0.3035(9)
C16 C -0.2612(10) 1.3137(9) -0.1437(8)
H16 H -0.1657(10) 1.3065(9) -0.1599(8)
Br1A Br -0.06780(8) 0.96884(7) 0.66176(7)
Cu1A Cu -0.19245(11) 0.81619(10) 0.64163(9)
Br2A Br -0.14193(9) 0.62256(8) 0.82350(8)
Cu2A Cu 0.08193(12) 0.66059(11) 0.75769(11)
O1A O 0.4190(5) 0.9062(5) 0.6770(5)
As1A As 0.57205(8) 0.95051(7) 0.66960(7)
As2A As 0.61293(8) 1.16601(7) 0.42106(7)
N2A N 0.1892(8) 0.6667(7) 0.8744(7)
C10A C 0.2506(9) 0.6704(8) 0.9463(8)
C11A C 0.3282(8) 0.6725(7) 1.0361(7)
C12A C 0.4703(10) 0.6621(9) 1.0109(9)
H12A H 0.5145(10) 0.6542(9) 0.9364(9)
C13A C 0.5443(12) 0.6635(11) 1.0960(12)
H13A H 0.6398(12) 0.6564(11) 1.0795(12)
C14A C 0.4797(14) 0.6753(9) 1.2062(11)
H14A H 0.5323(14) 0.6737(9) 1.2645(11)
C15A C 0.3390(14) 0.6894(9) 1.2303(9)
H15A H 0.2946(14) 0.7011(9) 1.3035(9)
C16A C 0.2612(10) 0.6863(9) 1.1437(8)
H16A H 0.1657(10) 0.6935(9) 1.1599(8)
As1A_2 As -0.42795(8) 0.95051(7) 0.66960(7)
O1A_2 O -0.5810(5) 0.9062(5) 0.6770(5)
O2A O -0.4913(5) 1.1114(5) 0.5575(5)
As2A_2 As -0.38707(8) 1.16601(7) 0.42106(7)
C1A C -0.4748(9) 1.0007(8) 0.8133(7)
H1A H -0.3992(29) 1.0243(54) 0.8273(31)
H2A H -0.5614(34) 1.0747(36) 0.8018(22)
H3A H -0.4874(60) 0.9281(20) 0.8829(12)
N1A N -0.1545(7) 0.8044(7) 0.4785(7)
C3A C -0.1443(8) 0.8076(8) 0.3786(8)
C4A C -0.1384(8) 0.8167(7) 0.2535(7)
C5A C -0.1456(9) 0.9341(8) 0.1579(8)
H7A H -0.1516(9) 1.0080(8) 0.1750(8)
C6A C -0.1438(9) 0.9412(8) 0.0391(8)
H8A H -0.1490(9) 1.0202(8) -0.0242(8)
C7A C -0.1343(9) 0.8333(9) 0.0118(8)
H9A H -0.1367(9) 0.8400(9) -0.0693(8)
C8A C -0.1211(9) 0.7149(9) 0.1048(9)
H10A H -0.1094(9) 0.6407(9) 0.0857(9)
C9A C -0.1252(9) 0.7049(8) 0.2262(8)
H11A H -0.1192(9) 0.6254(8) 0.2889(8)
Cu3A Cu -0.15000(10) 1.13650(9) 0.45321(9)
Br3A Br -0.19515(9) 1.36919(8) 0.43005(8)
O1_2 O -0.4190(5) 1.0938(5) 0.3230(5)
C2A C -0.5253(9) 1.3402(7) 0.3628(8)
H4A H -0.5246(46) 1.3902(21) 0.4118(36)
H5A H -0.6182(12) 1.3336(8) 0.3689(53)
H6A H -0.5017(37) 1.3835(23) 0.2786(18)
loop_
_geom_bond_atom_site_label_1
_geom_bond_atom_site_label_2
_geom_bond_site_symmetry_1
_geom_bond_site_symmetry_2
Cu1 Br1 1_555 1_555
Cu2 Br2 1_555 1_555
Cu3 Br1 1_555 1_555
Br1 Cu3A 1_555 1_555
Br2 Cu1 1_555 1_555
Br3 Cu3 1_555 1_555
As1 Cu1 1_555 1_555
As2 Cu3 1_555 1_555
O1 As1 1_555 1_555
O2 As1 1_555 1_555
C1 As1 1_555 1_555
H1 C1 1_555 1_555
H2 C1 1_555 1_555
H3 C1 1_555 1_555
C2 As2 1_555 1_555
H4 C2 1_555 1_555
H5 C2 1_555 1_555
H6 C2 1_555 1_555
N1 Cu1 1_555 1_555
C3 N1 1_555 1_555
C4 C3 1_555 1_555
C5 C4 1_555 1_555
H7 C5 1_555 1_555
C6 C5 1_555 1_555
H8 C6 1_555 1_555
C7 C6 1_555 1_555
H9 C7 1_555 1_555
C8 C7 1_555 1_555
H10 C8 1_555 1_555
C9 C4 1_555 1_555
H11 C9 1_555 1_555
N2 Cu2 1_555 1_555
C10 N2 1_555 1_555
C11 C10 1_555 1_555
C12 C11 1_555 1_555
H12 C12 1_555 1_555
C13 C12 1_555 1_555
H13 C13 1_555 1_555
C14 C13 1_555 1_555
H14 C14 1_555 1_555
C15 C14 1_555 1_555
H15 C15 1_555 1_555
C16 C11 1_555 1_555
H16 C16 1_555 1_555
Br1A Cu3 1_555 1_555
Cu1A Br1A 1_555 1_555
Br2A Cu1A 1_555 1_555
Cu2A Br3 1_555 1_555
O1A As2 1_555 1_555
As1A O1A 1_555 1_555
As2A O1 1_555 1_555
N2A Cu2A 1_555 1_555
C10A N2A 1_555 1_555
C11A C10A 1_555 1_555
C12A C11A 1_555 1_555
H12A C12A 1_555 1_555
C13A C12A 1_555 1_555
H13A C13A 1_555 1_555
C14A C13A 1_555 1_555
H14A C14A 1_555 1_555
C15A C14A 1_555 1_555
H15A C15A 1_555 1_555
C16A C11A 1_555 1_555
H16A C16A 1_555 1_555
As1A_2 Cu1A 1_555 1_555
O1A_2 As1A_2 1_555 1_555
O2A As1A_2 1_555 1_555
As2A_2 O2A 1_555 1_555
C1A As1A_2 1_555 1_555
H1A C1A 1_555 1_555
H2A C1A 1_555 1_555
H3A C1A 1_555 1_555
N1A Cu1A 1_555 1_555
C3A N1A 1_555 1_555
C4A C3A 1_555 1_555
C5A C4A 1_555 1_555
H7A C5A 1_555 1_555
C6A C5A 1_555 1_555
H8A C6A 1_555 1_555
C7A C6A 1_555 1_555
H9A C7A 1_555 1_555
C8A C7A 1_555 1_555
H10A C8A 1_555 1_555
C9A C4A 1_555 1_555
H11A C9A 1_555 1_555
Cu3A Br1A 1_555 1_555
Br3A Cu2 1_555 1_555
O1_2 As2A_2 1_555 1_555
C2A As2A_2 1_555 1_555
H4A C2A 1_555 1_555
H5A C2A 1_555 1_555
H6A C2A 1_555 1_555
As2 O2 1_555 1_555
C8 C9 1_555 1_555
C15 C16 1_555 1_555
Br2A Cu2A 1_555 1_555
C15A C16A 1_555 1_555
As2A_2 Cu3A 1_555 1_555
C8A C9A 1_555 1_555
Cu3A Br3A 1_555 1_555

#END
