
#######################################################################
#
#                 Cambridge Crystallographic Data Centre
#                                CCDC 
#
#######################################################################
#
# If this CIF has been generated from an entry in the Cambridge 
# Structural Database, then it will include bibliographic, chemical, 
# crystal, experimental, refinement or atomic coordinate data resulting 
# from the CCDC's data processing and validation procedures.
#
#######################################################################

data_FATRUP
_symmetry_cell_setting           monoclinic
_symmetry_space_group_name_H-M   'P 21/c'
_symmetry_Int_Tables_number      14
_space_group_name_Hall           '-P 2ybc'
loop_
_symmetry_equiv_pos_site_id
_symmetry_equiv_pos_as_xyz
1 x,y,z
2 -x,1/2+y,1/2-z
3 -x,-y,-z
4 x,1/2-y,1/2+z
_cell_length_a                   9.575(6)
_cell_length_b                   12.584(8)
_cell_length_c                   7.309(5)
_cell_angle_alpha                90
_cell_angle_beta                 98.052(17)
_cell_angle_gamma                90
_cell_volume                     871.992
loop_
_atom_site_label
_atom_site_type_symbol
_atom_site_fract_x
_atom_site_fract_y
_atom_site_fract_z
Cd1 Cd 0.32396(2) 0.232542(19) 0.10683(2)
Cl1 Cl 0.50806(7) 0.29985(7) 0.38033(9)
Cl2 Cl 0.13962(7) 0.30499(7) 0.31102(9)
O1 O 0.3319(3) 0.4049(2) -0.0070(3)
O2 O 0.3035(2) 0.44467(19) -0.3066(2)
N1 N 0.2257(2) 0.5887(2) 0.0908(3)
N2 N 0.2271(2) 0.5668(2) 0.3821(3)
H1 H 0.2555 0.5519 0.4976
C1 C 0.3024(3) 0.4664(3) -0.1378(3)
C2 C 0.2671(3) 0.5806(3) -0.0936(4)
H2 H 0.3495 0.6258 -0.1007
H3 H 0.1899 0.6061 -0.1853
C3 C 0.3035(3) 0.5587(3) 0.2476(4)
H4 H 0.3977 0.5356 0.2597
C4 C 0.0968(3) 0.6022(3) 0.3125(4)
H5 H 0.0216 0.6150 0.3796
C5 C 0.0949(3) 0.6157(3) 0.1306(4)
H6 H 0.0181 0.6394 0.0460
Cd1C Cd 0.32396(2) 0.267458(19) 0.60683(2)
Cd1C_2 Cd 0.32396(2) 0.267458(19) -0.39317(2)
Cl1C Cl 0.50806(7) 0.20015(7) -0.11967(9)
Cl2C Cl 0.13962(7) 0.19501(7) -0.18898(9)
O2C O 0.3035(2) 0.05533(19) 0.1934(2)
loop_
_geom_bond_atom_site_label_1
_geom_bond_atom_site_label_2
_geom_bond_site_symmetry_1
_geom_bond_site_symmetry_2
Cd1 Cl1 1_555 1_555
Cl1 Cd1C 1_555 1_555
Cl2 Cd1 1_555 1_555
O1 Cd1 1_555 1_555
O2 C1 1_555 1_555
N1 C2 1_555 1_555
N2 H1 1_555 1_555
C1 O1 1_555 1_555
C2 C1 1_555 1_555
H2 C2 1_555 1_555
H3 C2 1_555 1_555
C3 N1 1_555 1_555
H4 C3 1_555 1_555
C4 N2 1_555 1_555
H5 C4 1_555 1_555
C5 N1 1_555 1_555
H6 C5 1_555 1_555
Cd1C Cl2 1_555 1_555
Cd1C_2 O2 1_555 1_555
Cl1C Cd1 1_555 1_555
Cl2C Cd1 1_555 1_555
O2C Cd1 1_555 1_555
N2 C3 1_555 1_555
C4 C5 1_555 1_555
Cd1C_2 Cl1C 1_555 1_555
Cd1C_2 Cl2C 1_555 1_555

#END
