
#######################################################################
#
#                 Cambridge Crystallographic Data Centre
#                                CCDC 
#
#######################################################################
#
# If this CIF has been generated from an entry in the Cambridge 
# Structural Database, then it will include bibliographic, chemical, 
# crystal, experimental, refinement or atomic coordinate data resulting 
# from the CCDC's data processing and validation procedures.
#
#######################################################################

data_FATRID
_symmetry_cell_setting           monoclinic
_symmetry_space_group_name_H-M   'P 21/n'
_symmetry_Int_Tables_number      14
_space_group_name_Hall           '-P 2yn'
loop_
_symmetry_equiv_pos_site_id
_symmetry_equiv_pos_as_xyz
1 x,y,z
2 1/2-x,1/2+y,1/2-z
3 -x,-y,-z
4 1/2+x,1/2-y,1/2+z
_cell_length_a                   8.3041(11)
_cell_length_b                   5.0214(6)
_cell_length_c                   12.3363(17)
_cell_angle_alpha                90
_cell_angle_beta                 91.746(4)
_cell_angle_gamma                90
_cell_volume                     514.163
loop_
_atom_site_label
_atom_site_type_symbol
_atom_site_fract_x
_atom_site_fract_y
_atom_site_fract_z
Fe1 Fe 0.5000 0.5000 0.5000
O1 O 1.11612(19) 0.6736(3) 0.07434(14)
O2 O 1.0542(2) 0.2727(3) 0.14067(14)
N1 N 0.9449(2) 0.5152(4) 0.33032(16)
N2 N 0.7239(2) 0.4239(4) 0.41848(16)
C1 C 1.0730(3) 0.5182(4) 0.14808(19)
C2 C 1.0547(3) 0.6515(5) 0.25893(19)
H1 H 1.1610 0.6620 0.2954
H2 H 1.0161 0.8341 0.2474
C3 C 0.9758(3) 0.2892(5) 0.3894(2)
H3 H 1.0722 0.1911 0.3923
C4 C 0.8390(3) 0.2353(5) 0.4431(2)
H4 H 0.8252 0.0902 0.4900
C5 C 0.7924(3) 0.5900(5) 0.35065(19)
H5 H 0.7415 0.7410 0.3204
Fe1A Fe 1.0000 1.0000 0.0000
Fe1A_2 Fe 1.0000 0.0000 0.0000
Fe1A_3 Fe 0.0000 1.0000 1.0000
Fe1A_4 Fe 0.0000 0.0000 1.0000
O1C O 0.61612(19) 0.8264(3) 0.57434(14)
O1A O 0.38388(19) 0.1736(3) 0.42566(14)
O1B O -0.11612(19) 0.3264(3) 0.92566(14)
O2C O 0.5542(2) 0.2273(3) 0.64067(14)
O2A O 0.4458(2) 0.7727(3) 0.35933(14)
O2B O -0.0542(2) 0.7273(3) 0.85933(14)
N1B N 0.0551(2) 0.4848(4) 0.66968(16)
N2B N 0.2761(2) 0.5761(4) 0.58152(16)
C1B C -0.0730(3) 0.4818(4) 0.85192(19)
C2B C -0.0547(3) 0.3485(5) 0.74107(19)
H1B H -0.1610 0.3380 0.7046
H2B H -0.0161 0.1659 0.7526
C3B C 0.0242(3) 0.7108(5) 0.6106(2)
H3B H -0.0722 0.8089 0.6077
C4B C 0.1610(3) 0.7647(5) 0.5569(2)
H4B H 0.1748 0.9098 0.5100
C5B C 0.2076(3) 0.4100(5) 0.64935(19)
H5B H 0.2585 0.2590 0.6796
loop_
_geom_bond_atom_site_label_1
_geom_bond_atom_site_label_2
_geom_bond_site_symmetry_1
_geom_bond_site_symmetry_2
Fe1 N2 1_555 1_555
O1 C1 1_555 1_555
O2 C1 1_555 1_555
N1 C2 1_555 1_555
N2 C4 1_555 1_555
C1 C2 1_555 1_555
C2 H1 1_555 1_555
H2 C2 1_555 1_555
C3 N1 1_555 1_555
H3 C3 1_555 1_555
C4 C3 1_555 1_555
H4 C4 1_555 1_555
C5 N1 1_555 1_555
H5 C5 1_555 1_555
Fe1A O1 1_555 1_555
Fe1A_2 O2 1_555 1_555
Fe1A_3 O2B 1_555 1_555
Fe1A_4 O1B 1_555 1_555
O1C Fe1 1_555 1_555
O1A Fe1 1_555 1_555
O1B C1B 1_555 1_555
O2C Fe1 1_555 1_555
O2A Fe1 1_555 1_555
O2B C1B 1_555 1_555
N1B C2B 1_555 1_555
N2B Fe1 1_555 1_555
C1B C2B 1_555 1_555
C2B H1B 1_555 1_555
H2B C2B 1_555 1_555
C3B N1B 1_555 1_555
H3B C3B 1_555 1_555
C4B N2B 1_555 1_555
H4B C4B 1_555 1_555
C5B N1B 1_555 1_555
H5B C5B 1_555 1_555
N2 C5 1_555 1_555
N2B C5B 1_555 1_555
C3B C4B 1_555 1_555

#END
