
#######################################################################
#
#                 Cambridge Crystallographic Data Centre
#                                CCDC 
#
#######################################################################
#
# If this CIF has been generated from an entry in the Cambridge 
# Structural Database, then it will include bibliographic, chemical, 
# crystal, experimental, refinement or atomic coordinate data resulting 
# from the CCDC's data processing and validation procedures.
#
#######################################################################

data_FATSEA
_symmetry_cell_setting           triclinic
_symmetry_space_group_name_H-M   'P -1'
_symmetry_Int_Tables_number      2
_space_group_name_Hall           '-P 1'
loop_
_symmetry_equiv_pos_site_id
_symmetry_equiv_pos_as_xyz
1 x,y,z
2 -x,-y,-z
_cell_length_a                   4.842(2)
_cell_length_b                   7.590(2)
_cell_length_c                   11.865(4)
_cell_angle_alpha                71.921(18)
_cell_angle_beta                 87.77(3)
_cell_angle_gamma                79.64(2)
_cell_volume                     407.696
loop_
_atom_site_label
_atom_site_type_symbol
_atom_site_fract_x
_atom_site_fract_y
_atom_site_fract_z
Pb1 Pb 0.0000 1.0000 0.0000
O1 O 0.283(2) 0.6784(15) 0.0975(10)
O2 O 0.638(2) 0.7915(13) -0.0020(8)
O3 O -0.031(2) 0.9556(14) -0.2042(8)
O4 O 0.197(3) 1.1825(17) -0.2741(10)
O5 O 0.008(3) 1.0762(17) -0.3949(9)
N1 N 0.609(2) 0.3862(15) 0.2571(9)
N2 N 0.343(3) 0.1993(16) 0.3614(10)
N3 N 0.059(3) 1.0748(17) -0.2897(10)
C1 C 0.538(3) 0.668(2) 0.0797(13)
C2 C 0.742(3) 0.5006(18) 0.1543(11)
H1 H 0.8224 0.4220 0.1052
H2 H 0.8966 0.5457 0.1817
C3 C 0.444(3) 0.2657(18) 0.2537(11)
H3 H 0.4064 0.2327 0.1865
C4 C 0.441(4) 0.285(2) 0.4342(13)
H4 H 0.4000 0.2659 0.5148
C5 C 0.606(4) 0.402(2) 0.3689(12)
H5 H 0.7022 0.4801 0.3951
Pb1_2 Pb 1.0000 1.0000 0.0000
Pb1_3 Pb -1.0000 1.0000 0.0000
O1A O -0.283(2) 1.3216(15) -0.0975(10)
O2A O -0.638(2) 1.2085(13) 0.0020(8)
O2_2 O -0.362(2) 0.7915(13) -0.0020(8)
O2A_2 O 0.362(2) 1.2085(13) 0.0020(8)
O3A O 0.031(2) 1.0444(14) 0.2042(8)
O4A O -0.197(3) 0.8175(17) 0.2741(10)
O5A O -0.008(3) 0.9238(17) 0.3949(9)
N1A N -0.609(2) 1.6138(15) -0.2571(9)
N2A N -0.343(3) 1.8007(16) -0.3614(10)
N3A N -0.059(3) 0.9252(17) 0.2897(10)
C1A C -0.538(3) 1.332(2) -0.0797(13)
C2A C -0.742(3) 1.4994(18) -0.1543(11)
H1A H -0.8224 1.5780 -0.1052
H2A H -0.8966 1.4543 -0.1817
C3A C -0.444(3) 1.7343(18) -0.2537(11)
H3A H -0.4064 1.7673 -0.1865
C4A C -0.441(4) 1.715(2) -0.4342(13)
H4A H -0.4000 1.7341 -0.5148
C5A C -0.606(4) 1.598(2) -0.3689(12)
H5A H -0.7022 1.5199 -0.3951
loop_
_geom_bond_atom_site_label_1
_geom_bond_atom_site_label_2
_geom_bond_site_symmetry_1
_geom_bond_site_symmetry_2
Pb1 O1 1_555 1_555
O1 C1 1_555 1_555
O2 C1 1_555 1_555
O3 Pb1 1_555 1_555
O4 N3 1_555 1_555
O5 N3 1_555 1_555
N1 C2 1_555 1_555
N2 C3 1_555 1_555
N3 O3 1_555 1_555
C1 C2 1_555 1_555
C2 H1 1_555 1_555
H2 C2 1_555 1_555
C3 N1 1_555 1_555
H3 C3 1_555 1_555
C4 N2 1_555 1_555
H4 C4 1_555 1_555
C5 N1 1_555 1_555
H5 C5 1_555 1_555
Pb1_2 O2 1_555 1_555
Pb1_3 O2A 1_555 1_555
O1A Pb1 1_555 1_555
O2A C1A 1_555 1_555
O2_2 Pb1 1_555 1_555
O2A_2 Pb1 1_555 1_555
O3A Pb1 1_555 1_555
O4A N3A 1_555 1_555
O5A N3A 1_555 1_555
N1A C2A 1_555 1_555
N2A C3A 1_555 1_555
N3A O3A 1_555 1_555
C1A O1A 1_555 1_555
C2A C1A 1_555 1_555
H1A C2A 1_555 1_555
H2A C2A 1_555 1_555
C3A N1A 1_555 1_555
H3A C3A 1_555 1_555
C4A N2A 1_555 1_555
H4A C4A 1_555 1_555
C5A N1A 1_555 1_555
H5A C5A 1_555 1_555
C4 C5 1_555 1_555
C4A C5A 1_555 1_555

#END
