
#######################################################################
#
#                 Cambridge Crystallographic Data Centre
#                                CCDC 
#
#######################################################################
#
# If this CIF has been generated from an entry in the Cambridge 
# Structural Database, then it will include bibliographic, chemical, 
# crystal, experimental, refinement or atomic coordinate data resulting 
# from the CCDC's data processing and validation procedures.
#
#######################################################################

data_FATSAV
_symmetry_cell_setting           monoclinic
_symmetry_space_group_name_H-M   'P 21/n'
_symmetry_Int_Tables_number      14
_space_group_name_Hall           '-P 2yn'
loop_
_symmetry_equiv_pos_site_id
_symmetry_equiv_pos_as_xyz
1 x,y,z
2 1/2-x,1/2+y,1/2-z
3 -x,-y,-z
4 1/2+x,1/2-y,1/2+z
_cell_length_a                   14.579(4)
_cell_length_b                   11.193(3)
_cell_length_c                   14.839(5)
_cell_angle_alpha                90
_cell_angle_beta                 94.009(6)
_cell_angle_gamma                90
_cell_volume                     2415.54
loop_
_atom_site_label
_atom_site_type_symbol
_atom_site_fract_x
_atom_site_fract_y
_atom_site_fract_z
Tm1 Tm 0.63704(4) 0.34336(5) 0.01500(4)
Tm2 Tm 0.85724(3) 0.17489(5) -0.04348(4)
N1 N 0.7363(6) 0.7163(8) -0.1633(6)
N2 N 0.9904(6) 0.6072(8) 0.2518(6)
N3 N 0.7670(6) -0.1773(9) 0.1813(6)
O1 O 0.7720(5) 0.3659(7) -0.0726(5)
O2 O 0.9212(5) 0.3926(7) -0.0580(5)
O3 O 0.9809(5) 0.8459(7) 0.0440(5)
O4 O 0.8758(5) 0.9732(7) -0.0124(5)
O5 O 0.7891(5) 0.3961(7) 0.1143(5)
O6 O 0.8948(5) 0.2552(7) 0.1024(5)
O7 O 1.1207(5) 0.2656(7) 0.3803(5)
O8 O 1.2237(5) 0.4101(7) 0.3643(5)
O9 O 0.5814(5) 0.1224(7) 0.0433(5)
O10 O 0.7306(5) 0.1552(7) 0.0503(5)
O11 O 0.5270(5) -0.3373(7) -0.0170(5)
O12 O 0.6282(5) -0.4545(7) 0.0597(5)
O13 O 0.5734(6) 0.4675(7) -0.1184(5)
O14 O 0.6027(5) 0.3170(7) 0.1723(5)
C1 C 0.8263(7) 0.5657(9) -0.0840(8)
C2 C 0.8811(7) 0.6499(9) -0.0381(7)
H1 H 0.9302 0.6278 0.0018
C3 C 0.8419(7) 0.4355(9) -0.0689(7)
C4 C 0.8586(7) 0.7721(9) -0.0548(7)
C5 C 0.9087(7) 0.8688(10) -0.0029(7)
C6 C 0.7855(7) 0.7986(10) -0.1185(7)
H2 H 0.7710 0.8785 -0.1296
C7 C 0.7551(8) 0.6011(10) -0.1440(8)
H3 H 0.7183 0.5426 -0.1725
C8 C 0.8654(7) 0.3536(10) 0.1328(7)
C9 C 0.9339(7) 0.4204(9) 0.1950(7)
C10 C 1.0062(7) 0.3646(9) 0.2429(7)
H4 H 1.0112 0.2819 0.2407
C11 C 1.0704(7) 0.4288(9) 0.2935(7)
C12 C 1.1441(7) 0.3644(9) 0.3500(7)
C13 C 1.0609(8) 0.5507(10) 0.2966(8)
H5 H 1.1044 0.5953 0.3308
C14 C 0.9292(7) 0.5429(9) 0.2032(7)
H6 H 0.8801 0.5825 0.1729
C15 C 0.6606(8) 0.0862(10) 0.0571(8)
C16 C 0.6767(7) -0.0406(9) 0.0882(7)
C17 C 0.6216(7) -0.1323(9) 0.0527(7)
H7 H 0.5711 -0.1175 0.0125
C18 C 0.6456(8) -0.2485(10) 0.0804(8)
C19 C 0.5960(8) -0.3562(10) 0.0379(7)
C20 C 0.7156(8) -0.2648(11) 0.1440(8)
H8 H 0.7286 -0.3426 0.1630
C21 C 0.7501(8) -0.0670(10) 0.1509(8)
H9 H 0.7884 -0.0052 0.1722
O15 O 0.8950(5) 0.1952(7) -0.1984(5)
Tm1C Tm 1.13704(4) 0.15664(5) 0.51500(4)
Tm1B Tm 0.36296(4) -0.34336(5) -0.01500(4)
Tm1_2 Tm 0.63704(4) -0.65664(5) 0.01500(4)
Tm2B Tm 1.14276(3) 0.82511(5) 0.04348(4)
Tm2_2 Tm 0.85724(3) 1.17489(5) -0.04348(4)
Tm2C Tm 1.35724(3) 0.32511(5) 0.45652(4)
O3B O 1.0191(5) 0.1541(7) -0.0440(5)
O4_2 O 0.8758(5) -0.0268(7) -0.0124(5)
O7C O 0.6207(5) 0.2344(7) -0.1197(5)
O8C O 0.7237(5) 0.0899(7) -0.1357(5)
O11B O 0.4730(5) 0.3373(7) 0.0170(5)
O12_2 O 0.6282(5) 0.5455(7) 0.0597(5)
O16 O 0.4897(9) 0.4400(11) 0.7024(8)
loop_
_geom_bond_atom_site_label_1
_geom_bond_atom_site_label_2
_geom_bond_site_symmetry_1
_geom_bond_site_symmetry_2
Tm1 O1 1_555 1_555
Tm2 O1 1_555 1_555
N1 C6 1_555 1_555
N2 C13 1_555 1_555
N3 C20 1_555 1_555
O1 C3 1_555 1_555
O2 Tm2 1_555 1_555
O3 C5 1_555 1_555
O4 C5 1_555 1_555
O5 Tm1 1_555 1_555
O6 Tm2 1_555 1_555
O7 C12 1_555 1_555
O8 C12 1_555 1_555
O9 Tm1 1_555 1_555
O10 Tm1 1_555 1_555
O11 C19 1_555 1_555
O12 C19 1_555 1_555
O13 Tm1 1_555 1_555
O14 Tm1 1_555 1_555
C1 C2 1_555 1_555
C2 H1 1_555 1_555
C3 O2 1_555 1_555
C4 C2 1_555 1_555
C5 C4 1_555 1_555
C6 C4 1_555 1_555
H2 C6 1_555 1_555
C7 N1 1_555 1_555
H3 C7 1_555 1_555
C8 O5 1_555 1_555
C9 C8 1_555 1_555
C10 C9 1_555 1_555
H4 C10 1_555 1_555
C11 C10 1_555 1_555
C12 C11 1_555 1_555
C13 C11 1_555 1_555
H5 C13 1_555 1_555
C14 N2 1_555 1_555
H6 C14 1_555 1_555
C15 O9 1_555 1_555
C16 C15 1_555 1_555
C17 C16 1_555 1_555
H7 C17 1_555 1_555
C18 C17 1_555 1_555
C19 C18 1_555 1_555
C20 C18 1_555 1_555
H8 C20 1_555 1_555
C21 N3 1_555 1_555
H9 C21 1_555 1_555
O15 Tm2 1_555 1_555
Tm1C O7 1_555 1_555
Tm1B O11 1_555 1_555
Tm1_2 O12 1_555 1_555
Tm2B O3 1_555 1_555
Tm2_2 O4 1_555 1_555
Tm2C O8 1_555 1_555
O3B Tm2 1_555 1_555
O4_2 Tm2 1_555 1_555
O7C Tm1 1_555 1_555
O8C Tm2 1_555 1_555
O11B Tm1 1_555 1_555
O12_2 Tm1 1_555 1_555
Tm2 O10 1_555 1_555
O6 C8 1_555 1_555
O10 C15 1_555 1_555
C1 C3 1_555 1_555
C1 C7 1_555 1_555
C9 C14 1_555 1_555
C16 C21 1_555 1_555

#END
