
#######################################################################
#
#                 Cambridge Crystallographic Data Centre
#                                CCDC 
#
#######################################################################
#
# If this CIF has been generated from an entry in the Cambridge 
# Structural Database, then it will include bibliographic, chemical, 
# crystal, experimental, refinement or atomic coordinate data resulting 
# from the CCDC's data processing and validation procedures.
#
#######################################################################

data_FATSAW
_symmetry_cell_setting           monoclinic
_symmetry_space_group_name_H-M   'P 21/c'
_symmetry_Int_Tables_number      14
_space_group_name_Hall           '-P 2ybc'
loop_
_symmetry_equiv_pos_site_id
_symmetry_equiv_pos_as_xyz
1 x,y,z
2 -x,1/2+y,1/2-z
3 -x,-y,-z
4 x,1/2-y,1/2+z
_cell_length_a                   8.9720(17)
_cell_length_b                   4.9885(8)
_cell_length_c                   17.872(3)
_cell_angle_alpha                90
_cell_angle_beta                 96.314(5)
_cell_angle_gamma                90
_cell_volume                     795.042
loop_
_atom_site_label
_atom_site_type_symbol
_atom_site_fract_x
_atom_site_fract_y
_atom_site_fract_z
Cl1 Cl 1.0000 0.0000 0.5000
O1 O 0.78829(15) 0.2245(2) 0.29141(8)
O2 O 0.89391(15) -0.1678(2) 0.27016(7)
O3 O 1.0479(2) 0.4941(3) 0.39663(8)
H1 H 1.038(3) 0.631(3) 0.4214(12)
H2 H 1.043(3) 0.361(3) 0.4236(12)
N1 N 0.58838(17) 0.0028(3) 0.37735(9)
N2 N 0.5034(2) 0.3181(3) 0.44546(10)
H3 H 0.4983 0.4398 0.4799
C1 C 0.8000(2) -0.0226(3) 0.29800(10)
C2 C 0.6957(2) -0.1712(4) 0.34588(11)
H4 H 0.6407 -0.3086 0.3148
H5 H 0.7564 -0.2626 0.3872
C3 C 0.4422(2) 0.0484(5) 0.34866(12)
H6 H 0.3887 -0.0394 0.3076
C4 C 0.3909(2) 0.2444(5) 0.39116(13)
H7 H 0.2939 0.3183 0.3846
C5 C 0.6205(2) 0.1694(4) 0.43537(11)
H8 H 0.7138 0.1790 0.4649
Li1 Li 0.9583(4) 0.4700(6) 0.29280(18)
O1_2 O 0.78829(15) 1.2245(2) 0.29141(8)
O2_2 O 0.89391(15) 0.8322(2) 0.27016(7)
O2A O 1.10609(15) 0.3322(2) 0.22984(7)
O2_3 O 0.89391(15) 1.8322(2) 0.27016(7)
O2A_2 O 1.10609(15) 1.3322(2) 0.22984(7)
O3_2 O 1.0479(2) 1.4941(3) 0.39663(8)
H1_2 H 1.038(3) 1.631(3) 0.4214(12)
H2_2 H 1.043(3) 1.361(3) 0.4236(12)
N1_2 N 0.58838(17) 1.0028(3) 0.37735(9)
N2_2 N 0.5034(2) 1.3181(3) 0.44546(10)
H3_2 H 0.4983 1.4398 0.4799
C1_2 C 0.8000(2) 0.9774(3) 0.29800(10)
C2_2 C 0.6957(2) 0.8288(4) 0.34588(11)
H4_2 H 0.6407 0.6914 0.3148
H5_2 H 0.7564 0.7374 0.3872
C3_2 C 0.4422(2) 1.0484(5) 0.34866(12)
H6_2 H 0.3887 0.9606 0.3076
C4_2 C 0.3909(2) 1.2444(5) 0.39116(13)
H7_2 H 0.2939 1.3183 0.3846
C5_2 C 0.6205(2) 1.1694(4) 0.43537(11)
H8_2 H 0.7138 1.1790 0.4649
Li1_2 Li 0.9583(4) 1.4700(6) 0.29280(18)
Li1_3 Li 0.9583(4) -0.5300(6) 0.29280(18)
Li1A Li 1.0417(4) -0.0300(6) 0.20720(18)
Li1A_2 Li 1.0417(4) 0.9700(6) 0.20720(18)
loop_
_geom_bond_atom_site_label_1
_geom_bond_atom_site_label_2
_geom_bond_site_symmetry_1
_geom_bond_site_symmetry_2
O1 C1 1_555 1_555
O2 C1 1_555 1_555
O3 H1 1_555 1_555
H2 O3 1_555 1_555
N1 C2 1_555 1_555
N2 H3 1_555 1_555
C1 C2 1_555 1_555
C2 H4 1_555 1_555
H5 C2 1_555 1_555
C3 N1 1_555 1_555
H6 C3 1_555 1_555
C4 N2 1_555 1_555
H7 C4 1_555 1_555
C5 N1 1_555 1_555
H8 C5 1_555 1_555
Li1 O1 1_555 1_555
O1_2 C1_2 1_555 1_555
O2_2 Li1 1_555 1_555
O2A Li1 1_555 1_555
O2_3 Li1_2 1_555 1_555
O2A_2 Li1_2 1_555 1_555
O3_2 H1_2 1_555 1_555
H2_2 O3_2 1_555 1_555
N1_2 C2_2 1_555 1_555
N2_2 H3_2 1_555 1_555
C1_2 O2_2 1_555 1_555
C2_2 C1_2 1_555 1_555
H4_2 C2_2 1_555 1_555
H5_2 C2_2 1_555 1_555
C3_2 N1_2 1_555 1_555
H6_2 C3_2 1_555 1_555
C4_2 N2_2 1_555 1_555
H7_2 C4_2 1_555 1_555
C5_2 N1_2 1_555 1_555
H8_2 C5_2 1_555 1_555
Li1_2 O1_2 1_555 1_555
Li1_3 O2 1_555 1_555
Li1A O2 1_555 1_555
Li1A_2 O2_2 1_555 1_555
O3 Li1 1_555 1_555
N2 C5 1_555 1_555
C3 C4 1_555 1_555
O2A Li1A 1_555 1_555
O2A_2 Li1A_2 1_555 1_555
O3_2 Li1_2 1_555 1_555
N2_2 C5_2 1_555 1_555
C3_2 C4_2 1_555 1_555

#END
