
#######################################################################
#
#                 Cambridge Crystallographic Data Centre
#                                CCDC 
#
#######################################################################
#
# If this CIF has been generated from an entry in the Cambridge 
# Structural Database, then it will include bibliographic, chemical, 
# crystal, experimental, refinement or atomic coordinate data resulting 
# from the CCDC's data processing and validation procedures.
#
#######################################################################

data_FATTID01
_symmetry_cell_setting           orthorhombic
_symmetry_space_group_name_H-M   'P n m a'
_symmetry_Int_Tables_number      62
_space_group_name_Hall           '-P 2ac 2n'
loop_
_symmetry_equiv_pos_site_id
_symmetry_equiv_pos_as_xyz
1 x,y,z
2 1/2+x,y,1/2-z
3 x,1/2-y,z
4 1/2-x,1/2+y,1/2+z
5 -x,-y,-z
6 1/2-x,-y,1/2+z
7 -x,1/2+y,-z
8 1/2+x,1/2-y,1/2-z
_cell_length_a                   16.439(3)
_cell_length_b                   26.345(5)
_cell_length_c                   6.4319(13)
_cell_angle_alpha                90
_cell_angle_beta                 90
_cell_angle_gamma                90
_cell_volume                     2785.56
loop_
_atom_site_label
_atom_site_type_symbol
_atom_site_fract_x
_atom_site_fract_y
_atom_site_fract_z
Na1 Na 0.43302(4) 0.2500 0.29346(11)
Na2 Na 0.37463(4) 0.2500 0.82449(11)
Na3 Na 0.06633(3) 0.075088(19) 0.62885(8)
Na4 Na 0.16775(3) 0.16829(2) 0.83322(8)
C1 C 0.34176(8) 0.16748(5) 0.5645(2)
O1 O 0.28968(6) 0.18268(4) 0.69068(16)
O2 O 0.41243(5) 0.18673(3) 0.54797(14)
C2 C 0.32323(7) 0.12359(5) 0.4166(2)
H1 H 0.3606 0.0954 0.4512
H2 H 0.3368 0.1349 0.2739
C3 C 0.23615(7) 0.10202(5) 0.41241(19)
C4 C 0.17479(7) 0.14507(5) 0.3653(2)
O3 O 0.11767(5) 0.15310(3) 0.48965(14)
O4 O 0.18726(5) 0.16960(3) 0.19926(14)
O5 O 0.21378(5) 0.07980(3) 0.60888(14)
H3 H 0.2483 0.0578 0.6424
C5 C 0.23327(8) 0.06122(5) 0.2408(2)
H4 H 0.2445 0.0779 0.1058
H5 H 0.2777 0.0366 0.2667
C6 C 0.15372(8) 0.03181(5) 0.2214(2)
O6 O 0.08770(5) 0.05366(3) 0.26482(15)
O7 O 0.15790(6) -0.01338(4) 0.15477(16)
O8 O 0.29968(8) 0.2500 0.1531(2)
O9 O 0.57387(9) 0.2500 0.2866(3)
O10 O 0.10330(12) 0.2500 0.7823(3)
O11 O -0.07604(6) 0.07816(4) 0.55730(17)
O12 O 0.06021(6) -0.00710(4) 0.78023(16)
O13 O 0.45582(6) 0.18748(4) 0.02538(16)
O14 O 0.04505(6) 0.12366(4) 0.93391(16)
H6 H 0.0025(8) 0.1411(6) 0.942(3)
H7 H -0.1012(11) 0.0619(7) 0.649(3)
H8 H -0.0817(12) 0.0602(7) 0.451(2)
H9 H 0.0123(7) -0.0184(7) 0.788(3)
H10 H 0.0519(12) 0.1083(7) 1.046(2)
H11 H 0.0810(11) -0.0112(7) 0.8983(19)
H12 H 0.5048(6) 0.1801(7) 0.034(3)
H13 H 0.4358(10) 0.1600(5) -0.013(3)
H14 H 0.2699(10) 0.2751(5) 0.168(3)
H15 H 0.085(3) 0.2500 0.661(3)
H16 H 0.078(3) 0.2500 0.894(4)
H17 H 0.6049(10) 0.2757(5) 0.282(3)
H14B H 0.2699(10) 0.2249(5) 0.168(3)
H17B H 0.6049(10) 0.2243(5) 0.282(3)
C1B C 0.34176(8) 0.33252(5) 0.5645(2)
O1B O 0.28968(6) 0.31732(4) 0.69068(16)
O2B O 0.41243(5) 0.31327(3) 0.54797(14)
C2B C 0.32323(7) 0.37641(5) 0.4166(2)
H1B H 0.3606 0.4046 0.4512
H2B H 0.3368 0.3651 0.2739
C3B C 0.23615(7) 0.39798(5) 0.41241(19)
C4B C 0.17479(7) 0.35493(5) 0.3653(2)
O3B O 0.11767(5) 0.34690(3) 0.48965(14)
O4B O 0.18726(5) 0.33040(3) 0.19926(14)
O5B O 0.21378(5) 0.42020(3) 0.60888(14)
H3B H 0.2483 0.4422 0.6424
C5B C 0.23327(8) 0.43878(5) 0.2408(2)
H4B H 0.2445 0.4221 0.1058
H5B H 0.2777 0.4634 0.2667
C6B C 0.15372(8) 0.46819(5) 0.2214(2)
O6B O 0.08770(5) 0.44634(3) 0.26482(15)
O7B O 0.15790(6) 0.51338(4) 0.15477(16)
O13B O 0.45582(6) 0.31252(4) 0.02538(16)
H12B H 0.5048(6) 0.3199(7) 0.034(3)
H13B H 0.4358(10) 0.3400(5) -0.013(3)
Na3B Na 0.06633(3) 0.424912(19) 0.62885(8)
Na4B Na 0.16775(3) 0.33171(2) 0.83322(8)
O11B O -0.07604(6) 0.42184(4) 0.55730(17)
H7B H -0.1012(11) 0.4381(7) 0.649(3)
H8B H -0.0817(12) 0.4398(7) 0.451(2)
O12B O 0.06021(6) 0.50710(4) 0.78023(16)
H9B H 0.0123(7) 0.5184(7) 0.788(3)
H11B H 0.0810(11) 0.5112(7) 0.8983(19)
O14B O 0.04505(6) 0.37634(4) 0.93391(16)
H6B H 0.0025(8) 0.3589(6) 0.942(3)
H10B H 0.0519(12) 0.3917(7) 1.046(2)
Na2_2 Na 0.37463(4) 0.2500 -0.17551(11)
O8_2 O 0.29968(8) 0.2500 1.1531(2)
O13_2 O 0.45582(6) 0.18748(4) 1.02538(16)
O13B_2 O 0.45582(6) 0.31252(4) 1.02538(16)
O4_2 O 0.18726(5) 0.16960(3) 1.19926(14)
Na4_2 Na 0.16775(3) 0.16829(2) -0.16678(8)
Na4B_2 Na 0.16775(3) 0.33171(2) -0.16678(8)
O4B_2 O 0.18726(5) 0.33040(3) 1.19926(14)
H14_2 H 0.2699(10) 0.2751(5) 1.168(3)
H14B_2 H 0.2699(10) 0.2249(5) 1.168(3)
H12_2 H 0.5048(6) 0.1801(7) 1.034(3)
H13_2 H 0.4358(10) 0.1600(5) 0.987(3)
H12B_2 H 0.5048(6) 0.3199(7) 1.034(3)
H13B_2 H 0.4358(10) 0.3400(5) 0.987(3)
loop_
_geom_bond_atom_site_label_1
_geom_bond_atom_site_label_2
_geom_bond_site_symmetry_1
_geom_bond_site_symmetry_2
Na1 O2 1_555 1_555
Na2 O1 1_555 1_555
Na3 O3 1_555 1_555
Na4 O1 1_555 1_555
C1 O1 1_555 1_555
O2 Na2 1_555 1_555
C2 C1 1_555 1_555
H1 C2 1_555 1_555
H2 C2 1_555 1_555
C3 C2 1_555 1_555
C4 C3 1_555 1_555
O3 Na4 1_555 1_555
O4 C4 1_555 1_555
O5 Na3 1_555 1_555
H3 O5 1_555 1_555
C5 C3 1_555 1_555
H4 C5 1_555 1_555
H5 C5 1_555 1_555
C6 C5 1_555 1_555
O6 Na3 1_555 1_555
O7 C6 1_555 1_555
O8 Na1 1_555 1_555
O9 Na1 1_555 1_555
O10 Na4 1_555 1_555
O11 Na3 1_555 1_555
O12 Na3 1_555 1_555
O13 Na1 1_555 1_555
O14 Na3 1_555 1_555
H6 O14 1_555 1_555
H7 O11 1_555 1_555
H8 O11 1_555 1_555
H9 O12 1_555 1_555
H10 O14 1_555 1_555
H11 O12 1_555 1_555
H12 O13 1_555 1_555
H13 O13 1_555 1_555
H14 O8 1_555 1_555
H15 O10 1_555 1_555
H16 O10 1_555 1_555
H17 O9 1_555 1_555
H14B O8 1_555 1_555
H17B O9 1_555 1_555
C1B O1B 1_555 1_555
O1B Na2 1_555 1_555
O2B Na1 1_555 1_555
C2B C1B 1_555 1_555
H1B C2B 1_555 1_555
H2B C2B 1_555 1_555
C3B C2B 1_555 1_555
C4B C3B 1_555 1_555
O3B C4B 1_555 1_555
O4B C4B 1_555 1_555
O5B C3B 1_555 1_555
H3B O5B 1_555 1_555
C5B C3B 1_555 1_555
H4B C5B 1_555 1_555
H5B C5B 1_555 1_555
C6B C5B 1_555 1_555
O6B C6B 1_555 1_555
O7B C6B 1_555 1_555
O13B Na1 1_555 1_555
H12B O13B 1_555 1_555
H13B O13B 1_555 1_555
Na3B O3B 1_555 1_555
Na4B O10 1_555 1_555
O11B Na3B 1_555 1_555
H7B O11B 1_555 1_555
H8B O11B 1_555 1_555
O12B Na3B 1_555 1_555
H9B O12B 1_555 1_555
H11B O12B 1_555 1_555
O14B Na3B 1_555 1_555
H6B O14B 1_555 1_555
H10B O14B 1_555 1_555
Na2_2 O8 1_555 1_555
O8_2 Na2 1_555 1_555
O13_2 Na2 1_555 1_555
O13B_2 Na2 1_555 1_555
O4_2 Na4 1_555 1_555
Na4_2 O4 1_555 1_555
Na4B_2 O4B 1_555 1_555
O4B_2 Na4B 1_555 1_555
H14_2 O8_2 1_555 1_555
H14B_2 O8_2 1_555 1_555
H12_2 O13_2 1_555 1_555
H13_2 O13_2 1_555 1_555
H12B_2 O13B_2 1_555 1_555
H13B_2 O13B_2 1_555 1_555
Na2 O2B 1_555 1_555
Na4 O14 1_555 1_555
C1 O2 1_555 1_555
C3 O5 1_555 1_555
C4 O3 1_555 1_555
C6 O6 1_555 1_555
O13 Na2_2 1_555 1_555
C1B O2B 1_555 1_555
O1B Na4B 1_555 1_555
O3B Na4B 1_555 1_555
O5B Na3B 1_555 1_555
O6B Na3B 1_555 1_555
O13B Na2_2 1_555 1_555
Na4B O14B 1_555 1_555

#END
