
#######################################################################
#
#                 Cambridge Crystallographic Data Centre
#                                CCDC 
#
#######################################################################
#
# If this CIF has been generated from an entry in the Cambridge 
# Structural Database, then it will include bibliographic, chemical, 
# crystal, experimental, refinement or atomic coordinate data resulting 
# from the CCDC's data processing and validation procedures.
#
#######################################################################

data_FAVGUG
_symmetry_cell_setting           monoclinic
_symmetry_space_group_name_H-M   'C 2/c'
_symmetry_Int_Tables_number      15
_space_group_name_Hall           '-C 2yn'
loop_
_symmetry_equiv_pos_site_id
_symmetry_equiv_pos_as_xyz
1 x,y,z
2 -x,y,1/2-z
3 1/2+x,1/2+y,z
4 1/2-x,1/2+y,1/2-z
5 -x,-y,-z
6 x,-y,1/2+z
7 1/2-x,1/2-y,-z
8 1/2+x,1/2-y,1/2+z
_cell_length_a                   17.3019(14)
_cell_length_b                   16.1151(13)
_cell_length_c                   7.7135(6)
_cell_angle_alpha                90
_cell_angle_beta                 109.2760(10)
_cell_angle_gamma                90
_cell_volume                     2030.12
loop_
_atom_site_label
_atom_site_type_symbol
_atom_site_fract_x
_atom_site_fract_y
_atom_site_fract_z
Cd1 Cd 0.5000 0.554804(15) 0.2500
Cl1 Cl 0.41631(4) 0.44315(4) 0.36262(10)
N1 N 0.59532(12) 0.65341(12) 0.2340(3)
N2 N 0.69828(12) 0.70947(12) 0.1605(3)
C1 C 0.67893(14) 0.76660(14) 0.2750(3)
C2 C 0.64595(15) 0.64476(15) 0.1404(3)
H1 H 0.6459 0.5988 0.0675
C3 C 0.61508(14) 0.73068(14) 0.3210(3)
C4 C 0.57975(15) 0.77379(16) 0.4320(3)
H2 H 0.5374 0.7503 0.4647
C5 C 0.71131(15) 0.84365(15) 0.3413(3)
H3 H 0.7553 0.8657 0.3126
C6 C 0.76241(15) 0.71880(16) 0.0782(3)
H4 H 0.7731 0.6655 0.0322
H5 H 0.8125 0.7372 0.1710
C7 C 0.67602(16) 0.88672(15) 0.4515(3)
C8 C 0.60893(16) 0.85260(16) 0.4933(3)
C9 C 0.7104(2) 0.97083(18) 0.5262(4)
H6 H 0.7574 0.9828 0.4906
H7 H 0.7260 0.9703 0.6578
H8 H 0.6694 1.0127 0.4776
C10 C 0.5663(2) 0.9003(2) 0.6035(4)
H9 H 0.5137 0.8759 0.5866
H10 H 0.5594 0.9570 0.5629
H11 H 0.5987 0.8984 0.7313
Cd1D Cd 0.5000 0.445196(15) 0.7500
Cd1F Cd 1.0000 0.945196(15) -0.2500
Cl1A Cl 0.58369(4) 0.44315(4) 0.13738(10)
Cl1D Cl 0.58369(4) 0.55685(4) 0.63738(10)
Cl1E Cl 0.41631(4) 0.55685(4) -0.13738(10)
N1F N 0.90468(12) 0.84659(12) -0.2340(3)
N1A N 0.40468(12) 0.65341(12) 0.2660(3)
N2F N 0.80172(12) 0.79053(12) -0.1605(3)
C1F C 0.82107(14) 0.73340(14) -0.2750(3)
C2F C 0.85405(15) 0.85524(15) -0.1404(3)
H1F H 0.8541 0.9012 -0.0675
C3F C 0.88492(14) 0.76932(14) -0.3210(3)
C4F C 0.92025(15) 0.72621(16) -0.4320(3)
H2F H 0.9626 0.7497 -0.4647
C5F C 0.78869(15) 0.65635(15) -0.3413(3)
H3F H 0.7447 0.6343 -0.3126
C6F C 0.73759(15) 0.78120(16) -0.0782(3)
H4F H 0.7269 0.8345 -0.0322
H5F H 0.6875 0.7628 -0.1710
C7F C 0.82398(16) 0.61328(15) -0.4515(3)
C8F C 0.89107(16) 0.64740(16) -0.4933(3)
C9F C 0.7896(2) 0.52917(18) -0.5262(4)
H6F H 0.7426 0.5172 -0.4906
H7F H 0.7740 0.5297 -0.6578
H8F H 0.8306 0.4873 -0.4776
C10F C 0.9337(2) 0.5997(2) -0.6035(4)
H9F H 0.9863 0.6241 -0.5866
H10F H 0.9406 0.5430 -0.5629
H11F H 0.9013 0.6016 -0.7313
loop_
_geom_bond_atom_site_label_1
_geom_bond_atom_site_label_2
_geom_bond_site_symmetry_1
_geom_bond_site_symmetry_2
Cd1 Cl1 1_555 1_555
Cl1 Cd1D 1_555 1_555
N1 Cd1 1_555 1_555
N2 C1 1_555 1_555
C1 C3 1_555 1_555
C2 N1 1_555 1_555
H1 C2 1_555 1_555
C3 N1 1_555 1_555
C4 C3 1_555 1_555
H2 C4 1_555 1_555
C5 C1 1_555 1_555
H3 C5 1_555 1_555
C6 N2 1_555 1_555
H4 C6 1_555 1_555
H5 C6 1_555 1_555
C7 C5 1_555 1_555
C8 C4 1_555 1_555
C9 C7 1_555 1_555
H6 C9 1_555 1_555
H7 C9 1_555 1_555
H8 C9 1_555 1_555
C10 C8 1_555 1_555
H9 C10 1_555 1_555
H10 C10 1_555 1_555
H11 C10 1_555 1_555
Cd1D Cl1D 1_555 1_555
Cd1F N1F 1_555 1_555
Cl1A Cd1 1_555 1_555
Cl1D Cd1 1_555 1_555
Cl1E Cd1 1_555 1_555
N1F C2F 1_555 1_555
N1A Cd1 1_555 1_555
N2F C1F 1_555 1_555
C1F C3F 1_555 1_555
C2F N2F 1_555 1_555
H1F C2F 1_555 1_555
C3F N1F 1_555 1_555
C4F C3F 1_555 1_555
H2F C4F 1_555 1_555
C5F C1F 1_555 1_555
H3F C5F 1_555 1_555
C6F C6 1_555 1_555
H4F C6F 1_555 1_555
H5F C6F 1_555 1_555
C7F C5F 1_555 1_555
C8F C4F 1_555 1_555
C9F C7F 1_555 1_555
H6F C9F 1_555 1_555
H7F C9F 1_555 1_555
H8F C9F 1_555 1_555
C10F C8F 1_555 1_555
H9F C10F 1_555 1_555
H10F C10F 1_555 1_555
H11F C10F 1_555 1_555
N2 C2 1_555 1_555
C7 C8 1_555 1_555
N2F C6F 1_555 1_555
C7F C8F 1_555 1_555

#END
