
#######################################################################
#
#                 Cambridge Crystallographic Data Centre
#                                CCDC 
#
#######################################################################
#
# If this CIF has been generated from an entry in the Cambridge 
# Structural Database, then it will include bibliographic, chemical, 
# crystal, experimental, refinement or atomic coordinate data resulting 
# from the CCDC's data processing and validation procedures.
#
#######################################################################

data_FAVGAL
_symmetry_cell_setting           triclinic
_symmetry_space_group_name_H-M   'P -1'
_symmetry_Int_Tables_number      2
_space_group_name_Hall           '-P 1'
loop_
_symmetry_equiv_pos_site_id
_symmetry_equiv_pos_as_xyz
1 x,y,z
2 -x,-y,-z
_cell_length_a                   8.0243(16)
_cell_length_b                   12.953(3)
_cell_length_c                   15.781(3)
_cell_angle_alpha                95.61(3)
_cell_angle_beta                 104.30(3)
_cell_angle_gamma                98.47(3)
_cell_volume                     1556.63
loop_
_atom_site_label
_atom_site_type_symbol
_atom_site_fract_x
_atom_site_fract_y
_atom_site_fract_z
Zn1 Zn -0.06227(5) 0.60038(2) 0.49341(2)
Fe1 Fe 0.39904(7) 0.73840(3) 0.13227(3)
Fe2 Fe 0.84135(7) 0.79167(3) 0.85848(3)
N1 N -0.1911(4) 0.72441(17) 0.50294(17)
O1 O 0.0847(3) 0.63137(15) 0.40429(15)
O2 O 0.1802(3) 0.48056(16) 0.42185(16)
O3 O 0.1556(3) 0.64609(16) 0.59316(15)
O4 O 0.2396(3) 0.49101(15) 0.60980(15)
C1 C 0.3111(6) 0.8577(2) 0.1936(3)
H1 H 0.2307 0.8497 0.2312
C2 C 0.4936(6) 0.8723(3) 0.2219(3)
H2 H 0.5630 0.8756 0.2830
C3 C 0.5605(6) 0.8805(3) 0.1485(3)
H3 H 0.6845 0.8909 0.1495
C4 C 0.4198(6) 0.8708(2) 0.0733(3)
H4 H 0.4278 0.8742 0.0126
C5 C 0.2634(5) 0.8567(2) 0.1011(3)
H5 H 0.1442 0.8484 0.0631
C6 C 0.4884(5) 0.6167(2) 0.1905(2)
H6 H 0.5676 0.6223 0.2497
C7 C 0.5389(5) 0.6229(2) 0.1114(3)
H7 H 0.6593 0.6343 0.1063
C8 C 0.3870(6) 0.6120(2) 0.0411(3)
H8 H 0.3836 0.6142 -0.0212
C9 C 0.2407(5) 0.5983(2) 0.0762(2)
H9 H 0.1183 0.5892 0.0421
C10 C 0.3010(5) 0.5998(2) 0.1695(2)
C11 C 0.0041(5) 0.5965(3) 0.1975(2)
H10 H -0.0537 0.5899 0.2437
H11 H -0.0491 0.5403 0.1498
H12 H -0.0062 0.6630 0.1765
C12 C 0.1944(4) 0.5908(2) 0.2329(2)
C13 C 0.2619(4) 0.5730(2) 0.3149(2)
H13 H 0.3796 0.5675 0.3301
C14 C 0.1687(4) 0.5610(2) 0.3845(2)
C15 C 0.9614(6) 0.7164(3) 0.7777(3)
H14 H 0.9390 0.6404 0.7578
C16 C 0.8753(6) 0.7893(5) 0.7355(3)
H15 H 0.7819 0.7738 0.6803
C17 C 0.9448(7) 0.8900(4) 0.7847(4)
H16 H 0.9107 0.9570 0.7699
C18 C 1.0762(6) 0.8755(3) 0.8580(3)
H17 H 1.1488 0.9312 0.9046
C19 C 1.0848(6) 0.7689(3) 0.8535(3)
H18 H 1.1645 0.7365 0.8961
C20 C 0.6677(5) 0.6810(3) 0.8896(2)
H19 H 0.6502 0.6049 0.8707
C21 C 0.7886(5) 0.7361(3) 0.9668(3)
H20 H 0.8680 0.7051 1.0107
C22 C 0.7762(5) 0.8439(3) 0.9699(3)
H21 H 0.8455 0.9008 1.0163
C23 C 0.6479(5) 0.8554(2) 0.8939(3)
H22 H 0.6136 0.9222 0.8786
C24 C 0.5760(4) 0.7534(2) 0.8422(2)
C25 C 0.3844(5) 0.8250(2) 0.7172(3)
H23 H 0.2984 0.8017 0.6617
H24 H 0.4829 0.8698 0.7079
H25 H 0.3345 0.8636 0.7568
C26 C 0.4436(4) 0.7299(2) 0.7570(2)
C27 C 0.3829(4) 0.6309(2) 0.7179(2)
H26 H 0.4326 0.5803 0.7485
C28 C 0.2511(4) 0.5882(2) 0.6348(2)
C29 C -0.1128(4) 0.8249(2) 0.5238(2)
H27 H 0.0075 0.8414 0.5325
C30 C -0.2050(5) 0.9053(2) 0.5331(2)
H28 H -0.1472 0.9749 0.5449
C31 C -0.3815(5) 0.8834(2) 0.5249(2)
C32 C -0.4618(5) 0.7782(3) 0.5040(3)
H29 H -0.5812 0.7593 0.4972
C33 C -0.3617(5) 0.7022(2) 0.4935(3)
H30 H -0.4167 0.6320 0.4792
C34 C -0.4849(7) 0.9701(3) 0.5394(3)
H31 H -0.608(5) 0.946(3) 0.539(3)
H32 H -0.424(6) 1.025(3) 0.585(3)
Zn1A Zn -0.93773(5) 1.39962(2) 0.50659(2)
Zn1A_2 Zn 0.06227(5) 0.39962(2) 0.50659(2)
Zn1_2 Zn -1.06227(5) 1.60038(2) 0.49341(2)
Fe1A Fe -0.39904(7) 0.26160(3) 0.86773(3)
Fe2A Fe -0.84135(7) 0.20833(3) 0.14152(3)
N1A N -0.8089(4) 1.27559(17) 0.49706(17)
O1A O -0.0847(3) 0.36863(15) 0.59571(15)
O1A_2 O -1.0847(3) 1.36863(15) 0.59571(15)
O2A O -0.1802(3) 0.51944(16) 0.57815(16)
O2_2 O -0.8198(3) 1.48056(16) 0.42185(16)
O3A O -0.1556(3) 0.35391(16) 0.40684(15)
O3A_2 O -1.1556(3) 1.35391(16) 0.40684(15)
O4A O -0.2396(3) 0.50899(15) 0.39020(15)
O4_2 O -0.7604(3) 1.49101(15) 0.60980(15)
C1A C -0.3111(6) 0.1423(2) 0.8064(3)
H1A H -0.2307 0.1503 0.7688
C2A C -0.4936(6) 0.1277(3) 0.7781(3)
H2A H -0.5630 0.1244 0.7170
C3A C -0.5605(6) 0.1195(3) 0.8515(3)
H3A H -0.6845 0.1091 0.8505
C4A C -0.4198(6) 0.1292(2) 0.9267(3)
H4A H -0.4278 0.1258 0.9874
C5A C -0.2634(5) 0.1433(2) 0.8989(3)
H5A H -0.1442 0.1516 0.9369
C6A C -0.4884(5) 0.3833(2) 0.8095(2)
H6A H -0.5676 0.3777 0.7503
C7A C -0.5389(5) 0.3771(2) 0.8886(3)
H7A H -0.6593 0.3657 0.8937
C8A C -0.3870(6) 0.3880(2) 0.9589(3)
H8A H -0.3836 0.3858 1.0212
C9A C -0.2407(5) 0.4017(2) 0.9238(2)
H9A H -0.1183 0.4108 0.9579
C10A C -0.3010(5) 0.4002(2) 0.8305(2)
C11A C -0.0041(5) 0.4035(3) 0.8025(2)
H10A H 0.0537 0.4101 0.7563
H11A H 0.0491 0.4597 0.8502
H12A H 0.0062 0.3370 0.8235
C12A C -0.1944(4) 0.4092(2) 0.7671(2)
C13A C -0.2619(4) 0.4270(2) 0.6851(2)
H13A H -0.3796 0.4325 0.6699
C14A C -0.1687(4) 0.4390(2) 0.6155(2)
C15A C -0.9614(6) 0.2836(3) 0.2223(3)
H14A H -0.9390 0.3596 0.2422
C16A C -0.8753(6) 0.2107(5) 0.2645(3)
H15A H -0.7819 0.2262 0.3197
C17A C -0.9448(7) 0.1100(4) 0.2153(4)
H16A H -0.9107 0.0430 0.2301
C18A C -1.0762(6) 0.1245(3) 0.1420(3)
H17A H -1.1488 0.0688 0.0954
C19A C -1.0848(6) 0.2311(3) 0.1465(3)
H18A H -1.1645 0.2635 0.1039
C20A C -0.6677(5) 0.3190(3) 0.1104(2)
H19A H -0.6502 0.3951 0.1293
C21A C -0.7886(5) 0.2639(3) 0.0332(3)
H20A H -0.8680 0.2949 -0.0107
C22A C -0.7762(5) 0.1561(3) 0.0301(3)
H21A H -0.8455 0.0992 -0.0163
C23A C -0.6479(5) 0.1446(2) 0.1061(3)
H22A H -0.6136 0.0778 0.1214
C24A C -0.5760(4) 0.2466(2) 0.1578(2)
C25A C -0.3844(5) 0.1750(2) 0.2828(3)
H23A H -0.2984 0.1983 0.3383
H24A H -0.4829 0.1302 0.2921
H25A H -0.3345 0.1364 0.2432
C26A C -0.4436(4) 0.2701(2) 0.2430(2)
C27A C -0.3829(4) 0.3691(2) 0.2821(2)
H26A H -0.4326 0.4197 0.2515
C28A C -0.2511(4) 0.4118(2) 0.3652(2)
C29A C -0.8872(4) 1.1751(2) 0.4762(2)
H27A H -1.0075 1.1586 0.4675
C30A C -0.7950(5) 1.0947(2) 0.4669(2)
H28A H -0.8528 1.0251 0.4551
C31A C -0.6185(5) 1.1166(2) 0.4751(2)
C32A C -0.5382(5) 1.2218(3) 0.4960(3)
H29A H -0.4188 1.2407 0.5028
C33A C -0.6383(5) 1.2978(2) 0.5065(3)
H30A H -0.5833 1.3680 0.5208
C34A C -0.5151(7) 1.0299(3) 0.4606(3)
H31A H -0.392(5) 1.054(3) 0.461(3)
H32A H -0.576(6) 0.975(3) 0.415(3)
O5 O 0.1026(4) 0.8367(2) 0.3658(2)
H33 H 0.100(5) 0.779(3) 0.368(2)
C35 C -0.0638(8) 0.8421(5) 0.3144(4)
H34 H -0.169(9) 0.790(5) 0.330(4)
H35 H -0.077(6) 0.911(4) 0.325(3)
H36 H -0.090(8) 0.824(4) 0.257(4)
loop_
_geom_bond_atom_site_label_1
_geom_bond_atom_site_label_2
_geom_bond_site_symmetry_1
_geom_bond_site_symmetry_2
Zn1 N1 1_555 1_555
Fe1 C1 1_555 1_555
Fe2 C15 1_555 1_555
N1 C29 1_555 1_555
O1 Zn1 1_555 1_555
O2 C14 1_555 1_555
O3 Zn1 1_555 1_555
O4 C28 1_555 1_555
C1 H1 1_555 1_555
C2 Fe1 1_555 1_555
H2 C2 1_555 1_555
C3 Fe1 1_555 1_555
H3 C3 1_555 1_555
C4 Fe1 1_555 1_555
H4 C4 1_555 1_555
C5 Fe1 1_555 1_555
H5 C5 1_555 1_555
C6 Fe1 1_555 1_555
H6 C6 1_555 1_555
C7 Fe1 1_555 1_555
H7 C7 1_555 1_555
C8 Fe1 1_555 1_555
H8 C8 1_555 1_555
C9 Fe1 1_555 1_555
H9 C9 1_555 1_555
C10 Fe1 1_555 1_555
C11 H10 1_555 1_555
H11 C11 1_555 1_555
H12 C11 1_555 1_555
C12 C10 1_555 1_555
C13 C12 1_555 1_555
H13 C13 1_555 1_555
C14 O1 1_555 1_555
C15 H14 1_555 1_555
C16 Fe2 1_555 1_555
H15 C16 1_555 1_555
C17 Fe2 1_555 1_555
H16 C17 1_555 1_555
C18 Fe2 1_555 1_555
H17 C18 1_555 1_555
C19 Fe2 1_555 1_555
H18 C19 1_555 1_555
C20 Fe2 1_555 1_555
H19 C20 1_555 1_555
C21 Fe2 1_555 1_555
H20 C21 1_555 1_555
C22 Fe2 1_555 1_555
H21 C22 1_555 1_555
C23 Fe2 1_555 1_555
H22 C23 1_555 1_555
C24 Fe2 1_555 1_555
C25 H23 1_555 1_555
H24 C25 1_555 1_555
H25 C25 1_555 1_555
C26 C24 1_555 1_555
C27 C26 1_555 1_555
H26 C27 1_555 1_555
C28 O3 1_555 1_555
C29 H27 1_555 1_555
C30 C29 1_555 1_555
H28 C30 1_555 1_555
C31 C30 1_555 1_555
C32 C31 1_555 1_555
H29 C32 1_555 1_555
C33 N1 1_555 1_555
H30 C33 1_555 1_555
C34 C31 1_555 1_555
H31 C34 1_555 1_555
H32 C34 1_555 1_555
O5 H33 1_555 1_555
C35 O5 1_555 1_555
H34 C35 1_555 1_555
H35 C35 1_555 1_555
H36 C35 1_555 1_555
Zn1A Zn1_2 1_555 1_555
Zn1A_2 Zn1 1_555 1_555
Fe1A C1A 1_555 1_555
Fe2A C15A 1_555 1_555
N1A Zn1A 1_555 1_555
O1A Zn1A_2 1_555 1_555
O1A_2 Zn1A 1_555 1_555
O2A Zn1 1_555 1_555
O2_2 Zn1A 1_555 1_555
O3A Zn1A_2 1_555 1_555
O3A_2 Zn1A 1_555 1_555
O4A Zn1 1_555 1_555
O4_2 Zn1A 1_555 1_555
C1A H1A 1_555 1_555
C2A Fe1A 1_555 1_555
H2A C2A 1_555 1_555
C3A Fe1A 1_555 1_555
H3A C3A 1_555 1_555
C4A Fe1A 1_555 1_555
H4A C4A 1_555 1_555
C5A Fe1A 1_555 1_555
H5A C5A 1_555 1_555
C6A Fe1A 1_555 1_555
H6A C6A 1_555 1_555
C7A Fe1A 1_555 1_555
H7A C7A 1_555 1_555
C8A Fe1A 1_555 1_555
H8A C8A 1_555 1_555
C9A Fe1A 1_555 1_555
H9A C9A 1_555 1_555
C10A Fe1A 1_555 1_555
C11A H10A 1_555 1_555
H11A C11A 1_555 1_555
H12A C11A 1_555 1_555
C12A C10A 1_555 1_555
C13A C12A 1_555 1_555
H13A C13A 1_555 1_555
C14A O1A 1_555 1_555
C15A H14A 1_555 1_555
C16A Fe2A 1_555 1_555
H15A C16A 1_555 1_555
C17A Fe2A 1_555 1_555
H16A C17A 1_555 1_555
C18A Fe2A 1_555 1_555
H17A C18A 1_555 1_555
C19A Fe2A 1_555 1_555
H18A C19A 1_555 1_555
C20A Fe2A 1_555 1_555
H19A C20A 1_555 1_555
C21A Fe2A 1_555 1_555
H20A C21A 1_555 1_555
C22A Fe2A 1_555 1_555
H21A C22A 1_555 1_555
C23A Fe2A 1_555 1_555
H22A C23A 1_555 1_555
C24A Fe2A 1_555 1_555
C25A H23A 1_555 1_555
H24A C25A 1_555 1_555
H25A C25A 1_555 1_555
C26A C24A 1_555 1_555
C27A C26A 1_555 1_555
H26A C27A 1_555 1_555
C28A O3A 1_555 1_555
C29A N1A 1_555 1_555
H27A C29A 1_555 1_555
C30A C29A 1_555 1_555
H28A C30A 1_555 1_555
C31A C30A 1_555 1_555
C32A C31A 1_555 1_555
H29A C32A 1_555 1_555
C33A N1A 1_555 1_555
H30A C33A 1_555 1_555
C34A C34 1_555 1_555
H31A C34A 1_555 1_555
H32A C34A 1_555 1_555
O2 Zn1A_2 1_555 1_555
O4 Zn1A_2 1_555 1_555
C1 C2 1_555 1_555
C1 C5 1_555 1_555
C2 C3 1_555 1_555
C3 C4 1_555 1_555
C4 C5 1_555 1_555
C6 C7 1_555 1_555
C6 C10 1_555 1_555
C7 C8 1_555 1_555
C8 C9 1_555 1_555
C9 C10 1_555 1_555
C11 C12 1_555 1_555
C13 C14 1_555 1_555
C15 C16 1_555 1_555
C15 C19 1_555 1_555
C16 C17 1_555 1_555
C17 C18 1_555 1_555
C18 C19 1_555 1_555
C20 C21 1_555 1_555
C20 C24 1_555 1_555
C21 C22 1_555 1_555
C22 C23 1_555 1_555
C23 C24 1_555 1_555
C25 C26 1_555 1_555
C27 C28 1_555 1_555
C32 C33 1_555 1_555
O2A C14A 1_555 1_555
O4A C28A 1_555 1_555
C1A C2A 1_555 1_555
C1A C5A 1_555 1_555
C2A C3A 1_555 1_555
C3A C4A 1_555 1_555
C4A C5A 1_555 1_555
C6A C7A 1_555 1_555
C6A C10A 1_555 1_555
C7A C8A 1_555 1_555
C8A C9A 1_555 1_555
C9A C10A 1_555 1_555
C11A C12A 1_555 1_555
C13A C14A 1_555 1_555
C15A C16A 1_555 1_555
C15A C19A 1_555 1_555
C16A C17A 1_555 1_555
C17A C18A 1_555 1_555
C18A C19A 1_555 1_555
C20A C21A 1_555 1_555
C20A C24A 1_555 1_555
C21A C22A 1_555 1_555
C22A C23A 1_555 1_555
C23A C24A 1_555 1_555
C25A C26A 1_555 1_555
C27A C28A 1_555 1_555
C31A C34A 1_555 1_555
C32A C33A 1_555 1_555

#END
