
#######################################################################
#
#                 Cambridge Crystallographic Data Centre
#                                CCDC 
#
#######################################################################
#
# If this CIF has been generated from an entry in the Cambridge 
# Structural Database, then it will include bibliographic, chemical, 
# crystal, experimental, refinement or atomic coordinate data resulting 
# from the CCDC's data processing and validation procedures.
#
#######################################################################

data_FAVKET
_symmetry_cell_setting           orthorhombic
_symmetry_space_group_name_H-M   'P b n n'
_symmetry_Int_Tables_number      52
_space_group_name_Hall           '-P 2n 2b'
loop_
_symmetry_equiv_pos_site_id
_symmetry_equiv_pos_as_xyz
1 x,y,z
2 1/2-x,1/2-y,1/2+z
3 x,1/2-y,-z
4 1/2-x,y,1/2-z
5 -x,-y,-z
6 1/2+x,1/2+y,1/2-z
7 -x,1/2+y,z
8 1/2+x,-y,1/2+z
_cell_length_a                   9.135(3)
_cell_length_b                   16.137(5)
_cell_length_c                   19.968(9)
_cell_angle_alpha                90
_cell_angle_beta                 90
_cell_angle_gamma                90
_cell_volume                     2943.51
loop_
_atom_site_label
_atom_site_type_symbol
_atom_site_fract_x
_atom_site_fract_y
_atom_site_fract_z
Cl1 Cl 0.768(6) 0.250 0.500
Fe1 Fe 0.750 0.441(2) 0.250
Fe2 Fe 0.926(2) 0.660(1) 0.263(1)
O1 O 0.750 0.57(2) 0.250
O2 O 0.866(4) 0.445(2) 0.336(2)
O3 O 0.973(4) 0.569(2) 0.334(2)
O4 O 1.073(3) 0.730(2) 0.311(2)
O5 O 0.785(3) 0.690(2) 0.330(2)
O6 O 0.582(4) 0.748(2) 0.299(2)
O7 O 0.750 0.324(2) 0.250
O8 O 0.516(6) 0.584(2) 0.324(2)
O9 O 0.581(4) 0.452(2) 0.328(2)
C1 C 0.924(3) 0.509(2) 0.371(2)
C2 C 0.663(3) 0.721(3) 0.346(4)
C3 C 0.507(4) 0.513(2) 0.351(1)
C4 C 0.530(5) 0.507(9) 0.469(1)
C5 C 0.437(3) 0.503(2) 0.413(1)
C6 C 1.038(3) 0.473(2) 0.414(1)
C7 C 1.05(2) 0.475(8) 0.483(1)
C8 C 0.653(4) 0.767(2) 0.408(1)
C9 C 0.648(9) 0.727(2) 0.469(1)
C10 C 1.194(4) 0.670(2) 0.318(2)
C11 C 0.643(6) 0.301(3) 0.303(3)
Fe1D Fe 1.250 0.559(2) 0.750
Fe1D_2 Fe 0.250 0.559(2) 0.750
Fe2C Fe 0.574(2) 0.660(1) 0.237(1)
Fe2D Fe 1.074(2) 0.340(1) 0.737(1)
Fe2B Fe 0.926(2) 0.840(1) 0.737(1)
Fe2A Fe 0.574(2) 0.840(1) 0.763(1)
Fe2G Fe 0.426(2) 0.340(1) 0.763(1)
O2D O 1.134(4) 0.555(2) 0.664(2)
O2C O 0.634(4) 0.445(2) 0.164(2)
O3D O 1.027(4) 0.431(2) 0.666(2)
O3C O 0.527(4) 0.569(2) 0.166(2)
O4C O 0.427(3) 0.730(2) 0.189(2)
O5B O 0.785(3) 0.810(2) 0.670(2)
O5C O 0.715(3) 0.690(2) 0.170(2)
O6B O 0.582(4) 0.752(2) 0.701(2)
O6C O 0.918(4) 0.748(2) 0.201(2)
O8D O 0.484(6) 0.416(2) 0.676(2)
O8C O 0.984(6) 0.584(2) 0.176(2)
O9D O 0.419(4) 0.548(2) 0.672(2)
O9C O 0.919(4) 0.452(2) 0.172(2)
C1D C 1.076(3) 0.491(2) 0.629(2)
C2B C 0.663(3) 0.779(3) 0.654(4)
C3D C 0.493(4) 0.487(2) 0.649(1)
C4D C 0.470(5) 0.493(9) 0.531(1)
C5D C 0.563(3) 0.497(2) 0.587(1)
C6D C 0.962(3) 0.527(2) 0.586(1)
C7D C 0.95(2) 0.525(8) 0.517(1)
C8B C 0.653(4) 0.733(2) 0.592(1)
C9B C 0.648(9) 0.773(2) 0.531(1)
C10C C 0.306(4) 0.670(2) 0.182(2)
C11C C 0.857(6) 0.301(3) 0.197(3)
loop_
_geom_bond_atom_site_label_1
_geom_bond_atom_site_label_2
_geom_bond_site_symmetry_1
_geom_bond_site_symmetry_2
Fe1 O1 1_555 1_555
Fe2 O1 1_555 1_555
O1 Fe2C 1_555 1_555
O2 Fe1 1_555 1_555
O3 Fe2 1_555 1_555
O4 Fe2 1_555 1_555
O5 Fe2 1_555 1_555
O6 C2 1_555 1_555
O7 Fe1 1_555 1_555
O8 C3 1_555 1_555
O9 Fe1 1_555 1_555
C1 O2 1_555 1_555
C2 O5 1_555 1_555
C3 O9 1_555 1_555
C4 C5 1_555 1_555
C5 C3 1_555 1_555
C6 C1 1_555 1_555
C7 C6 1_555 1_555
C8 C2 1_555 1_555
C9 C8 1_555 1_555
C10 O4 1_555 1_555
C11 O7 1_555 1_555
Fe1D O2D 1_555 1_555
Fe1D_2 O9D 1_555 1_555
Fe2C O6 1_555 1_555
Fe2D O3D 1_555 1_555
Fe2B O5B 1_555 1_555
Fe2A O6B 1_555 1_555
Fe2G O8D 1_555 1_555
O2D C1D 1_555 1_555
O2C Fe1 1_555 1_555
O3D C1D 1_555 1_555
O3C Fe2C 1_555 1_555
O4C Fe2C 1_555 1_555
O5B C2B 1_555 1_555
O5C Fe2C 1_555 1_555
O6B C2B 1_555 1_555
O6C Fe2 1_555 1_555
O8D C3D 1_555 1_555
O8C Fe2 1_555 1_555
O9D C3D 1_555 1_555
O9C Fe1 1_555 1_555
C1D C6D 1_555 1_555
C2B C8B 1_555 1_555
C3D C5D 1_555 1_555
C4D C4 1_555 1_555
C5D C4D 1_555 1_555
C6D C7D 1_555 1_555
C7D C7 1_555 1_555
C8B C9B 1_555 1_555
C9B C9 1_555 1_555
C10C O4C 1_555 1_555
C11C O7 1_555 1_555
O3 C1 1_555 1_555
O8 Fe2C 1_555 1_555

#END
