
#######################################################################
#
#                 Cambridge Crystallographic Data Centre
#                                CCDC 
#
#######################################################################
#
# If this CIF has been generated from an entry in the Cambridge 
# Structural Database, then it will include bibliographic, chemical, 
# crystal, experimental, refinement or atomic coordinate data resulting 
# from the CCDC's data processing and validation procedures.
#
#######################################################################

data_FAVYOR
_symmetry_cell_setting           monoclinic
_symmetry_space_group_name_H-M   'P 21/c'
_symmetry_Int_Tables_number      14
_space_group_name_Hall           '-P 2ybc'
loop_
_symmetry_equiv_pos_site_id
_symmetry_equiv_pos_as_xyz
1 x,y,z
2 -x,1/2+y,1/2-z
3 -x,-y,-z
4 x,1/2-y,1/2+z
_cell_length_a                   10.4479(7)
_cell_length_b                   8.1694(5)
_cell_length_c                   8.9643(5)
_cell_angle_alpha                90
_cell_angle_beta                 97.907(2)
_cell_angle_gamma                90
_cell_volume                     757.856
loop_
_atom_site_label
_atom_site_type_symbol
_atom_site_fract_x
_atom_site_fract_y
_atom_site_fract_z
Zn1 Zn 0.64504(7) 0.00596(8) 0.83737(7)
P1 P 0.40291(15) 0.21120(19) 0.88854(16)
O1 O 0.4801(4) 0.1166(5) 0.7815(4)
O2 O 0.3192(4) 0.0982(5) 0.9684(5)
O3 O 0.3209(4) 0.3434(5) 0.8054(5)
O4 O 0.5129(5) 0.2877(7) 1.0068(6)
N1 N 0.7803(5) 0.1863(6) 0.8682(7)
C1 C 0.7554(8) 0.3417(9) 0.8354(10)
H1 H 0.6784 0.3681 0.7752
C2 C 0.8395(8) 0.4672(9) 0.8873(10)
H2 H 0.8166 0.5754 0.8650
C3 C 0.9531(7) 0.4330(9) 0.9691(10)
C4 C 0.9783(11) 0.2728(12) 1.009(2)
H3 H 1.0530 0.2445 1.0730
C5 C 0.8901(11) 0.1552(11) 0.953(2)
H4 H 0.9098 0.0465 0.9771
H5 H 0.494(6) 0.322(8) 1.077(8)
Zn1B Zn 0.35496(7) -0.00596(8) 1.16263(7)
Zn1A Zn 0.35496(7) 0.50596(8) 0.66263(7)
Zn1B_2 Zn 1.35496(7) 0.99404(8) 1.16263(7)
Zn1C Zn 0.64504(7) -0.50596(8) 1.33737(7)
P1B P 0.59709(15) -0.21120(19) 1.11146(16)
O1B O 0.5199(4) -0.1166(5) 1.2185(4)
O2B O 0.6808(4) -0.0982(5) 1.0316(5)
O3B O 0.6791(4) -0.3434(5) 1.1946(5)
O3A O 0.6791(4) -0.1566(5) 0.6946(5)
O3C O 0.3209(4) 0.1566(5) 1.3054(5)
O4B O 0.4871(5) -0.2877(7) 0.9932(6)
N1B N 1.2197(5) 0.8137(6) 1.1318(7)
N1B_2 N 0.2197(5) -0.1863(6) 1.1318(7)
C1B C 1.2446(8) 0.6583(9) 1.1646(10)
H1B H 1.3216 0.6319 1.2248
C2B C 1.1605(8) 0.5328(9) 1.1127(10)
H2B H 1.1834 0.4246 1.1350
C3B C 1.0469(7) 0.5670(9) 1.0309(10)
C4B C 1.0217(11) 0.7272(12) 0.991(2)
H3B H 0.9470 0.7555 0.9270
C5B C 1.1099(11) 0.8448(11) 1.047(2)
H4B H 1.0902 0.9535 1.0229
H5B H 0.506(6) -0.322(8) 0.923(8)
loop_
_geom_bond_atom_site_label_1
_geom_bond_atom_site_label_2
_geom_bond_site_symmetry_1
_geom_bond_site_symmetry_2
Zn1 O1 1_555 1_555
P1 O1 1_555 1_555
O2 P1 1_555 1_555
O3 P1 1_555 1_555
O4 P1 1_555 1_555
N1 Zn1 1_555 1_555
C1 N1 1_555 1_555
H1 C1 1_555 1_555
C2 C1 1_555 1_555
H2 C2 1_555 1_555
C3 C2 1_555 1_555
C4 C3 1_555 1_555
H3 C4 1_555 1_555
C5 N1 1_555 1_555
H4 C5 1_555 1_555
H5 O4 1_555 1_555
Zn1B O2 1_555 1_555
Zn1A O3 1_555 1_555
Zn1B_2 N1B 1_555 1_555
Zn1C O3B 1_555 1_555
P1B O1B 1_555 1_555
O1B Zn1B 1_555 1_555
O2B Zn1 1_555 1_555
O3B P1B 1_555 1_555
O3A Zn1 1_555 1_555
O3C Zn1B 1_555 1_555
O4B P1B 1_555 1_555
N1B C1B 1_555 1_555
N1B_2 Zn1B 1_555 1_555
C1B H1B 1_555 1_555
C2B C1B 1_555 1_555
H2B C2B 1_555 1_555
C3B C3 1_555 1_555
C4B C3B 1_555 1_555
H3B C4B 1_555 1_555
C5B N1B 1_555 1_555
H4B C5B 1_555 1_555
H5B O4B 1_555 1_555
C4 C5 1_555 1_555
P1B O2B 1_555 1_555
C2B C3B 1_555 1_555
C4B C5B 1_555 1_555

#END
