
#######################################################################
#
#                 Cambridge Crystallographic Data Centre
#                                CCDC 
#
#######################################################################
#
# If this CIF has been generated from an entry in the Cambridge 
# Structural Database, then it will include bibliographic, chemical, 
# crystal, experimental, refinement or atomic coordinate data resulting 
# from the CCDC's data processing and validation procedures.
#
#######################################################################

data_FAVZEJ
_symmetry_cell_setting           monoclinic
_symmetry_space_group_name_H-M   'C c'
_symmetry_Int_Tables_number      9
_space_group_name_Hall           'C -2yc'
loop_
_symmetry_equiv_pos_site_id
_symmetry_equiv_pos_as_xyz
1 x,y,z
2 x,-y,1/2+z
3 1/2+x,1/2+y,z
4 1/2+x,1/2-y,1/2+z
_cell_length_a                   8.181(2)
_cell_length_b                   10.269(3)
_cell_length_c                   11.347(3)
_cell_angle_alpha                90
_cell_angle_beta                 105.88(2)
_cell_angle_gamma                90
_cell_volume                     916.89
loop_
_atom_site_label
_atom_site_type_symbol
_atom_site_fract_x
_atom_site_fract_y
_atom_site_fract_z
Ag1 Ag 0.62484(6) 0.36285(7) 0.25395(6)
O1 O 0.4221(15) 0.2703(10) 0.3593(13)
H1 H 0.3892 0.1814 0.3457
H2 H 0.3231 0.3045 0.3425
N1 N 0.5577(11) 0.5694(9) 0.3477(7)
N2 N 0.3199(11) 0.6961(9) 0.3575(7)
N3 N 0.5196(11) 0.6277(7) 0.5393(7)
N4 N 0.7674(13) 0.5282(10) 0.5240(8)
H3 H 0.8268 0.4920 0.4813
H4 H 0.8063 0.5326 0.6024
N5 N 0.3540(17) 0.6355(10) 0.1628(10)
H5 H 0.4075 0.5934 0.1193
H6 H 0.2631 0.6779 0.1277
N6 N 0.2687(12) 0.7221(10) 0.5475(9)
H7 H 0.2996 0.7143 0.6259
H8 H 0.1720 0.7566 0.5116
C1 C 0.6145(13) 0.5776(11) 0.4687(9)
C2 C 0.4177(14) 0.6351(9) 0.2958(10)
C3 C 0.3720(14) 0.6801(11) 0.4805(9)
N7 N 1.0489(16) 0.4461(10) 0.3158(10)
O2 O 0.9100(11) 0.5047(9) 0.2970(10)
O3 O 1.127(2) 0.4159(17) 0.4200(13)
O4 O 1.1026(19) 0.4130(14) 0.2314(13)
Ag1B Ag 0.12484(6) 0.86285(7) 0.25395(6)
Ag1A Ag 0.62484(6) 0.63715(7) 0.75395(6)
N2B N 0.8199(11) 0.1961(9) 0.3575(7)
N3A N 0.5196(11) 0.3723(7) 0.0393(7)
loop_
_geom_bond_atom_site_label_1
_geom_bond_atom_site_label_2
_geom_bond_site_symmetry_1
_geom_bond_site_symmetry_2
Ag1 O1 1_555 1_555
O1 H1 1_555 1_555
H2 O1 1_555 1_555
N1 Ag1 1_555 1_555
N2 C2 1_555 1_555
N3 C1 1_555 1_555
N4 H3 1_555 1_555
H4 N4 1_555 1_555
N5 H5 1_555 1_555
H6 N5 1_555 1_555
N6 H7 1_555 1_555
H8 N6 1_555 1_555
C1 N1 1_555 1_555
C2 N1 1_555 1_555
C3 N2 1_555 1_555
N7 O2 1_555 1_555
O2 Ag1 1_555 1_555
O3 N7 1_555 1_555
O4 N7 1_555 1_555
Ag1B N2 1_555 1_555
Ag1A N3 1_555 1_555
N2B Ag1 1_555 1_555
N3A Ag1 1_555 1_555
N3 C3 1_555 1_555
N4 C1 1_555 1_555
N5 C2 1_555 1_555
N6 C3 1_555 1_555

#END
