
#######################################################################
#
#                 Cambridge Crystallographic Data Centre
#                                CCDC 
#
#######################################################################
#
# If this CIF has been generated from an entry in the Cambridge 
# Structural Database, then it will include bibliographic, chemical, 
# crystal, experimental, refinement or atomic coordinate data resulting 
# from the CCDC's data processing and validation procedures.
#
#######################################################################

data_FAWCUC
_symmetry_cell_setting           rhombohedral
_symmetry_space_group_name_H-M   'R -3'
_symmetry_Int_Tables_number      148
_space_group_name_Hall           '-R 3'
loop_
_symmetry_equiv_pos_site_id
_symmetry_equiv_pos_as_xyz
1 x,y,z
2 -y,x-y,z
3 -x+y,-x,z
4 2/3+x,1/3+y,1/3+z
5 2/3-y,1/3+x-y,1/3+z
6 2/3-x+y,1/3-x,1/3+z
7 1/3+x,2/3+y,2/3+z
8 1/3-y,2/3+x-y,2/3+z
9 1/3-x+y,2/3-x,2/3+z
10 -x,-y,-z
11 y,-x+y,-z
12 x-y,x,-z
13 1/3-x,2/3-y,2/3-z
14 1/3+y,2/3-x+y,2/3-z
15 1/3+x-y,2/3+x,2/3-z
16 2/3-x,1/3-y,1/3-z
17 2/3+y,1/3-x+y,1/3-z
18 2/3+x-y,1/3+x,1/3-z
_cell_length_a                   31.214(4)
_cell_length_b                   31.214(4)
_cell_length_c                   40.099(8)
_cell_angle_alpha                90
_cell_angle_beta                 90
_cell_angle_gamma                120.00
_cell_volume                     33834.8
loop_
_atom_site_label
_atom_site_type_symbol
_atom_site_fract_x
_atom_site_fract_y
_atom_site_fract_z
Ag1 Ag 0.240406(16) -0.111661(16) -0.091438(12)
Ag2 Ag 0.434494(16) -0.046011(17) -0.078122(12)
P1 P 0.31414(6) -0.14288(6) -0.04783(4)
P2 P 0.32875(5) -0.15390(6) -0.10151(4)
P3 P 0.15688(5) -0.14734(5) -0.11515(4)
P4 P 0.27957(6) -0.02107(6) -0.08232(4)
P5 P 0.43217(6) 0.02197(6) -0.11003(5)
P6 P 0.51361(5) -0.02213(5) -0.04955(4)
S1 S 0.36251(6) -0.07415(6) -0.03461(4)
S2 S 0.24289(6) -0.16421(7) -0.04341(4)
S3 S 0.40044(6) -0.13126(6) -0.10676(5)
S4 S 0.30205(6) -0.12166(6) -0.13103(4)
C1 C 0.3261(3) -0.1860(3) -0.0252(2)
C2 C 0.2874(3) -0.2301(4) -0.0146(3)
H1 H 0.2543 -0.2384 -0.0192
C3 C 0.2972(5) -0.2625(5) 0.0028(5)
H2 H 0.2705 -0.2922 0.0115
C4 C 0.3449(4) -0.2524(5) 0.0078(4)
H3 H 0.3514 -0.2765 0.0173
C5 C 0.3832(3) -0.2066(4) -0.0014(3)
H4 H 0.4164 -0.1978 0.0035
C6 C 0.3734(3) -0.1741(3) -0.01745(19)
H5 H 0.4001 -0.1425 -0.0234
C7 C 0.2921(2) -0.2208(2) -0.1056(2)
C8 C 0.3115(3) -0.2501(3) -0.0983(4)
H6 H 0.3458 -0.2356 -0.0936
C9 C 0.2812(4) -0.3016(4) -0.0979(5)
H7 H 0.2930 -0.3221 -0.0893
C10 C 0.2337(3) -0.3219(3) -0.1104(3)
H8 H 0.2145 -0.3566 -0.1138
C11 C 0.2149(3) -0.2931(3) -0.1175(2)
H9 H 0.1816 -0.3075 -0.1249
C12 C 0.2429(2) -0.2430(2) -0.11426(18)
H10 H 0.2283 -0.2231 -0.1181
C13 C 0.1275(2) -0.1114(2) -0.10560(15)
C14 C 0.1043(3) -0.1180(3) -0.0744(2)
H11 H 0.1024 -0.1426 -0.0595
C15 C 0.0847(4) -0.0895(4) -0.0654(2)
H12 H 0.0685 -0.0951 -0.0445
C16 C 0.0877(4) -0.0533(4) -0.0856(3)
H13 H 0.0744 -0.0331 -0.0789
C17 C 0.1110(4) -0.0462(3) -0.1171(3)
H14 H 0.1140 -0.0206 -0.1315
C18 C 0.1292(3) -0.0760(3) -0.1269(2)
H15 H 0.1432 -0.0723 -0.1485
C19 C 0.1099(2) -0.2102(2) -0.10543(14)
C20 C 0.0614(2) -0.2300(2) -0.11774(16)
H16 H 0.0523 -0.2099 -0.1302
C21 C 0.0269(3) -0.2796(3) -0.11141(19)
H17 H -0.0058 -0.2931 -0.1198
C22 C 0.0392(3) -0.3086(3) -0.09353(19)
H18 H 0.0155 -0.3424 -0.0897
C23 C 0.0857(3) -0.2891(3) -0.08107(19)
H19 H 0.0940 -0.3093 -0.0680
C24 C 0.1213(2) -0.2405(2) -0.08710(16)
H20 H 0.1538 -0.2279 -0.0785
C25 C 0.1580(2) -0.1488(2) -0.16082(15)
C26 C 0.2621(3) -0.0074(3) -0.04262(18)
C27 C 0.2886(4) -0.0006(5) -0.0149(2)
H21 H 0.3186 -0.0013 -0.0164
C28 C 0.2737(5) 0.0076(7) 0.0162(3)
H22 H 0.2942 0.0145 0.0353
C29 C 0.2287(6) 0.0055(5) 0.0185(3)
H23 H 0.2185 0.0117 0.0394
C30 C 0.1990(6) -0.0052(5) -0.0079(4)
H24 H 0.1670 -0.0090 -0.0054
C31 C 0.2155(4) -0.0107(4) -0.0401(3)
H25 H 0.1955 -0.0164 -0.0593
C32 C 0.2638(2) 0.0111(2) -0.11291(17)
C33 C 0.2592(3) 0.0523(3) -0.1067(2)
H26 H 0.2653 0.0660 -0.0849
C34 C 0.2464(5) 0.0733(4) -0.1311(3)
H27 H 0.2418 0.1004 -0.1259
C35 C 0.2399(4) 0.0564(4) -0.1632(3)
H28 H 0.2315 0.0722 -0.1802
C36 C 0.2453(3) 0.0177(4) -0.1707(2)
H29 H 0.2407 0.0060 -0.1930
C37 C 0.2575(2) -0.0053(3) -0.14641(16)
H30 H 0.2618 -0.0325 -0.1521
C38 C 0.3472(2) 0.0156(2) -0.08195(16)
H31 H 0.3576 0.0505 -0.0770
H32 H 0.3601 0.0033 -0.0640
C39 C 0.3697(2) 0.0128(2) -0.11517(16)
H33 H 0.3711 0.0385 -0.1304
H34 H 0.3481 -0.0199 -0.1255
C40 C 0.4530(3) 0.0250(3) -0.15272(19)
C41 C 0.4287(3) -0.0155(4) -0.1721(2)
H35 H 0.4012 -0.0443 -0.1631
C42 C 0.4427(5) -0.0161(5) -0.2045(3)
H36 H 0.4234 -0.0438 -0.2184
C43 C 0.4857(6) 0.0245(6) -0.2165(3)
H37 H 0.4968 0.0235 -0.2384
C44 C 0.5113(5) 0.0642(6) -0.1980(3)
H38 H 0.5408 0.0914 -0.2063
C45 C 0.4944(3) 0.0660(4) -0.1654(2)
H39 H 0.5114 0.0952 -0.1524
C46 C 0.4693(2) 0.0859(2) -0.0956(2)
C47 C 0.5135(3) 0.0995(3) -0.0802(2)
H40 H 0.5236 0.0757 -0.0767
C48 C 0.5432(3) 0.1473(3) -0.0699(2)
H41 H 0.5739 0.1562 -0.0594
C49 C 0.5303(4) 0.1817(3) -0.0743(3)
H42 H 0.5514 0.2147 -0.0669
C50 C 0.4870(3) 0.1691(3) -0.0892(3)
H43 H 0.4778 0.1936 -0.0922
C51 C 0.4552(3) 0.1212(3) -0.1005(3)
H44 H 0.4249 0.1129 -0.1111
C52 C 0.5270(2) -0.0690(2) -0.03344(14)
C53 C 0.5613(3) -0.0589(3) -0.00850(17)
H45 H 0.5796 -0.0264 0.0004
C54 C 0.5690(3) -0.0965(3) 0.0038(2)
H46 H 0.5929 -0.0893 0.0207
C55 C 0.5417(3) -0.1442(3) -0.00882(19)
H47 H 0.5461 -0.1700 -0.0001
C56 C 0.5083(3) -0.1539(2) -0.03394(19)
H48 H 0.4904 -0.1862 -0.0431
C57 C 0.5004(2) -0.1166(2) -0.04609(16)
H49 H 0.4766 -0.1239 -0.0631
C58 C 0.5679(2) 0.0178(2) -0.07490(15)
C59 C 0.6132(2) 0.0528(3) -0.0620(2)
H50 H 0.6173 0.0572 -0.0386
C60 C 0.6521(3) 0.0811(3) -0.0825(2)
H51 H 0.6830 0.1052 -0.0735
C61 C 0.6456(3) 0.0741(3) -0.1172(2)
H52 H 0.6725 0.0936 -0.1317
C62 C 0.6021(3) 0.0404(4) -0.1300(2)
H53 H 0.5981 0.0363 -0.1534
C63 C 0.5631(3) 0.0117(3) -0.10917(16)
H54 H 0.5325 -0.0126 -0.1184
C64 C 0.5196(2) 0.0147(2) -0.01276(17)
H80 H 0.5115(19) 0.041(2) -0.0205(13)
H81 H 0.187(2) -0.112(3) -0.1683(16)
H82 H 0.120(2) -0.158(2) -0.1629(15)
H83 H 0.541(3) 0.022(3) -0.004(2)
Ag1L Ag 0.092927(16) -0.221672(16) -0.241895(12)
Ag2L Ag -0.101161(16) -0.287322(17) -0.255211(12)
Ag2I Ag 0.565506(16) 0.046011(17) 0.078122(12)
P1L P 0.01919(6) -0.19045(6) -0.28550(4)
P2L P 0.00458(5) -0.17943(6) -0.23182(4)
P3L P 0.17645(5) -0.18599(5) -0.21818(4)
P4L P 0.05376(6) -0.31226(6) -0.25101(4)
P5L P -0.09884(6) -0.35530(6) -0.22330(5)
P6I P 0.48639(5) 0.02213(5) 0.04955(4)
P6L P -0.18028(5) -0.31120(5) -0.28378(4)
S1L S -0.02918(6) -0.25918(6) -0.29872(4)
S2L S 0.09044(6) -0.16912(7) -0.28992(4)
S3L S -0.06711(6) -0.20207(6) -0.22657(5)
S4L S 0.03128(6) -0.21167(6) -0.20230(4)
C1L C 0.0072(3) -0.1473(3) -0.3081(2)
C2L C 0.0459(3) -0.1032(4) -0.3187(3)
H1L H 0.0790 -0.0949 -0.3141
C3L C 0.0361(5) -0.0708(5) -0.3361(5)
H2L H 0.0628 -0.0411 -0.3448
C4L C -0.0116(4) -0.0809(5) -0.3411(4)
H3L H -0.0181 -0.0568 -0.3506
C5L C -0.0499(3) -0.1267(4) -0.3319(3)
H4L H -0.0831 -0.1355 -0.3368
C6L C -0.0401(3) -0.1592(3) -0.31588(19)
H5L H -0.0668 -0.1908 -0.3099
C7L C 0.0412(2) -0.1125(2) -0.2277(2)
C8L C 0.0218(3) -0.0832(3) -0.2350(4)
H6L H -0.0125 -0.0977 -0.2397
C9L C 0.0521(4) -0.0317(4) -0.2354(5)
H7L H 0.0403 -0.0112 -0.2440
C10L C 0.0996(3) -0.0114(3) -0.2229(3)
H8L H 0.1188 0.0233 -0.2195
C11L C 0.1184(3) -0.0402(3) -0.2158(2)
H9L H 0.1517 -0.0258 -0.2084
C12L C 0.0904(2) -0.0903(2) -0.21907(18)
H10L H 0.1050 -0.1102 -0.2152
C13L C 0.2058(2) -0.2219(2) -0.22773(15)
C14L C 0.2290(3) -0.2153(3) -0.2589(2)
H11L H 0.2309 -0.1907 -0.2738
C15L C 0.2486(4) -0.2438(4) -0.2679(2)
H12L H 0.2648 -0.2382 -0.2888
C16L C 0.2456(4) -0.2800(4) -0.2477(3)
H13L H 0.2589 -0.3002 -0.2544
C17L C 0.2223(4) -0.2871(3) -0.2162(3)
H14L H 0.2193 -0.3127 -0.2018
C18L C 0.2041(3) -0.2573(3) -0.2064(2)
H15L H 0.1901 -0.2610 -0.1848
C19L C 0.2234(2) -0.1231(2) -0.22790(14)
C20L C 0.2719(2) -0.1033(2) -0.21559(16)
H16L H 0.2810 -0.1234 -0.2031
C21L C 0.3064(3) -0.0537(3) -0.22192(19)
H17L H 0.3391 -0.0402 -0.2135
C22L C 0.2941(3) -0.0247(3) -0.23980(19)
H18L H 0.3178 0.0091 -0.2436
C23L C 0.2476(3) -0.0442(3) -0.25226(19)
H19L H 0.2393 -0.0240 -0.2653
C24L C 0.2120(2) -0.0928(2) -0.24623(16)
H20L H 0.1795 -0.1054 -0.2548
C25L C 0.1753(2) -0.1845(2) -0.17251(15)
C26L C 0.0712(3) -0.3259(3) -0.29071(18)
C27L C 0.0447(4) -0.3327(5) -0.3184(2)
H21L H 0.0147 -0.3320 -0.3169
C28L C 0.0596(5) -0.3409(7) -0.3495(3)
H22L H 0.0391 -0.3478 -0.3686
C29L C 0.1046(6) -0.3388(5) -0.3518(3)
H23L H 0.1148 -0.3450 -0.3727
C30L C 0.1343(6) -0.3281(5) -0.3254(4)
H24L H 0.1663 -0.3243 -0.3279
C31L C 0.1178(4) -0.3226(4) -0.2932(3)
H25L H 0.1378 -0.3169 -0.2740
C32L C 0.0695(2) -0.3444(2) -0.22042(17)
C33L C 0.0741(3) -0.3856(3) -0.2266(2)
H26L H 0.0680 -0.3993 -0.2484
C34L C 0.0869(5) -0.4066(4) -0.2022(3)
H27L H 0.0915 -0.4337 -0.2074
C35L C 0.0934(4) -0.3897(4) -0.1701(3)
H28L H 0.1018 -0.4055 -0.1531
C36L C 0.0880(3) -0.3510(4) -0.1626(2)
H29L H 0.0926 -0.3393 -0.1403
C37L C 0.0758(2) -0.3280(3) -0.18692(16)
H30L H 0.0715 -0.3008 -0.1812
C38L C -0.0139(2) -0.3489(2) -0.25138(16)
H31L H -0.0243 -0.3838 -0.2563
H32L H -0.0268 -0.3366 -0.2693
C39L C -0.0364(2) -0.3461(2) -0.21816(16)
H33L H -0.0378 -0.3718 -0.2029
H34L H -0.0148 -0.3134 -0.2078
C40L C -0.1197(3) -0.3583(3) -0.18061(19)
C41L C -0.0954(3) -0.3178(4) -0.1612(2)
H35L H -0.0679 -0.2890 -0.1702
C42L C -0.1094(5) -0.3172(5) -0.1288(3)
H36L H -0.0901 -0.2895 -0.1149
C43L C -0.1524(6) -0.3578(6) -0.1168(3)
H37L H -0.1635 -0.3568 -0.0949
C44L C -0.1780(5) -0.3975(6) -0.1353(3)
H38L H -0.2075 -0.4247 -0.1270
C45L C -0.1611(3) -0.3993(4) -0.1679(2)
H39L H -0.1781 -0.4285 -0.1809
C46L C -0.1360(2) -0.4192(2) -0.2377(2)
C47L C -0.1802(3) -0.4328(3) -0.2531(2)
H40L H -0.1903 -0.4090 -0.2566
C48L C -0.2099(3) -0.4806(3) -0.2634(2)
H41L H -0.2406 -0.4895 -0.2739
C49L C -0.1970(4) -0.5150(3) -0.2590(3)
H42L H -0.2181 -0.5480 -0.2664
C50L C -0.1537(3) -0.5024(3) -0.2441(3)
H43L H -0.1445 -0.5269 -0.2411
C51L C -0.1219(3) -0.4545(3) -0.2328(3)
H44L H -0.0916 -0.4462 -0.2222
C52I C 0.4730(2) 0.0690(2) 0.03344(14)
C53I C 0.4387(3) 0.0589(3) 0.00850(17)
H45I H 0.4204 0.0264 -0.0004
C54I C 0.4310(3) 0.0965(3) -0.0038(2)
H46I H 0.4071 0.0893 -0.0207
C55I C 0.4583(3) 0.1442(3) 0.00882(19)
H47I H 0.4539 0.1700 0.0001
C56I C 0.4917(3) 0.1539(2) 0.03394(19)
H48I H 0.5096 0.1862 0.0431
C57I C 0.4996(2) 0.1166(2) 0.04609(16)
H49I H 0.5234 0.1239 0.0631
C58I C 0.4321(2) -0.0178(2) 0.07490(15)
C59I C 0.3868(2) -0.0528(3) 0.0620(2)
H50I H 0.3827 -0.0572 0.0386
C60I C 0.3479(3) -0.0811(3) 0.0825(2)
H51I H 0.3170 -0.1052 0.0735
C61I C 0.3544(3) -0.0741(3) 0.1172(2)
H52I H 0.3275 -0.0936 0.1317
C62I C 0.3979(3) -0.0404(4) 0.1300(2)
H53I H 0.4019 -0.0363 0.1534
C63I C 0.4369(3) -0.0117(3) 0.10917(16)
H54I H 0.4675 0.0126 0.1184
C64I C 0.4804(2) -0.0147(2) 0.01276(17)
H80I H 0.4885(19) -0.041(2) 0.0205(13)
H81L H 0.146(2) -0.221(3) -0.1650(16)
H82L H 0.213(2) -0.175(2) -0.1704(15)
H83I H 0.459(3) -0.022(3) 0.004(2)
C65 C 0.1438(6) 0.1284(5) -0.1412(4)
H55 H 0.1650 0.1328 -0.1608
H56 H 0.1296 0.1503 -0.1443
Cl1 Cl 0.0942(2) 0.06540(17) -0.14005(13)
Cl2 Cl 0.1802(2) 0.1468(2) -0.10583(16)
C66 C 0.3619(3) 0.1464(3) -0.03845(19)
H57 H 0.3821 0.1306 -0.0357
H58 H 0.3835 0.1824 -0.0396
H59 H 0.3426 0.1346 -0.0591
C67 C 0.3241(4) 0.1324(5) -0.0065(3)
H60 H 0.3017 0.0962 -0.0049
H61 H 0.3428 0.1445 0.0146
C68 C 0.2954(5) 0.1587(6) -0.0141(4)
H62 H 0.2771 0.1579 0.0063
H63 H 0.3195 0.1938 -0.0189
C69 C 0.2610(3) 0.1396(4) -0.0411(2)
H64 H 0.2621 0.1104 -0.0497
H65 H 0.2746 0.1649 -0.0590
C70 C 0.2047(6) 0.1236(11) -0.0377(13)
H66 H 0.2008 0.1374 -0.0165
H67 H 0.1969 0.1400 -0.0559
C71 C 0.1647(7) 0.0681(9) -0.0384(9)
H68 H 0.1730 0.0499 -0.0218
H69 H 0.1643 0.0542 -0.0607
C72 C 0.1100(6) 0.0605(7) -0.0302(5)
H70 H 0.0856 0.0251 -0.0297
H71 H 0.1009 0.0767 -0.0474
H72 H 0.1108 0.0752 -0.0084
C73? C 0.3333 0.6667 0.0858(12)
C74? C 0.3174(18) 0.6956(12) 0.1113(9)
H73? H 0.2809 0.6792 0.1107
H74? H 0.3265 0.6903 0.1340
C75? C 0.3367(13) 0.7491(10) 0.1076(9)
H75? H 0.3650 0.7597 0.0922
H76? H 0.3516 0.7627 0.1296
C76? C 0.3153(5) 0.7799(5) 0.0977(3)
H77? H 0.3416 0.8147 0.0966
H78? H 0.2904 0.7763 0.1141
H79? H 0.2997 0.7693 0.0757
loop_
_geom_bond_atom_site_label_1
_geom_bond_atom_site_label_2
_geom_bond_site_symmetry_1
_geom_bond_site_symmetry_2
Ag1 P3 1_555 1_555
Ag2 P5 1_555 1_555
P1 P2 1_555 1_555
P2 S3 1_555 1_555
P3 C13 1_555 1_555
P4 Ag1 1_555 1_555
P5 C39 1_555 1_555
P6 Ag2 1_555 1_555
S1 Ag2 1_555 1_555
S2 Ag1 1_555 1_555
S3 Ag2 1_555 1_555
S4 Ag1 1_555 1_555
C1 P1 1_555 1_555
C2 C1 1_555 1_555
H1 C2 1_555 1_555
C3 C2 1_555 1_555
H2 C3 1_555 1_555
C4 C3 1_555 1_555
H3 C4 1_555 1_555
C5 C4 1_555 1_555
H4 C5 1_555 1_555
C6 C1 1_555 1_555
H5 C6 1_555 1_555
C7 P2 1_555 1_555
C8 C7 1_555 1_555
H6 C8 1_555 1_555
C9 C8 1_555 1_555
H7 C9 1_555 1_555
C10 C9 1_555 1_555
H8 C10 1_555 1_555
C11 C10 1_555 1_555
H9 C11 1_555 1_555
C12 C7 1_555 1_555
H10 C12 1_555 1_555
C13 C14 1_555 1_555
C14 H11 1_555 1_555
C15 C14 1_555 1_555
H12 C15 1_555 1_555
C16 C15 1_555 1_555
H13 C16 1_555 1_555
C17 C16 1_555 1_555
H14 C17 1_555 1_555
C18 C13 1_555 1_555
H15 C18 1_555 1_555
C19 P3 1_555 1_555
C20 C19 1_555 1_555
H16 C20 1_555 1_555
C21 C20 1_555 1_555
H17 C21 1_555 1_555
C22 C21 1_555 1_555
H18 C22 1_555 1_555
C23 C22 1_555 1_555
H19 C23 1_555 1_555
C24 C19 1_555 1_555
H20 C24 1_555 1_555
C25 P3 1_555 1_555
C26 P4 1_555 1_555
C27 C26 1_555 1_555
H21 C27 1_555 1_555
C28 C27 1_555 1_555
H22 C28 1_555 1_555
C29 C28 1_555 1_555
H23 C29 1_555 1_555
C30 C29 1_555 1_555
H24 C30 1_555 1_555
C31 C26 1_555 1_555
H25 C31 1_555 1_555
C32 P4 1_555 1_555
C33 C32 1_555 1_555
H26 C33 1_555 1_555
C34 C33 1_555 1_555
H27 C34 1_555 1_555
C35 C34 1_555 1_555
H28 C35 1_555 1_555
C36 C35 1_555 1_555
H29 C36 1_555 1_555
C37 C32 1_555 1_555
H30 C37 1_555 1_555
C38 P4 1_555 1_555
H31 C38 1_555 1_555
H32 C38 1_555 1_555
C39 C38 1_555 1_555
H33 C39 1_555 1_555
H34 C39 1_555 1_555
C40 P5 1_555 1_555
C41 C40 1_555 1_555
H35 C41 1_555 1_555
C42 C41 1_555 1_555
H36 C42 1_555 1_555
C43 C42 1_555 1_555
H37 C43 1_555 1_555
C44 C43 1_555 1_555
H38 C44 1_555 1_555
C45 C40 1_555 1_555
H39 C45 1_555 1_555
C46 P5 1_555 1_555
C47 C46 1_555 1_555
H40 C47 1_555 1_555
C48 C47 1_555 1_555
H41 C48 1_555 1_555
C49 C48 1_555 1_555
H42 C49 1_555 1_555
C50 C49 1_555 1_555
H43 C50 1_555 1_555
C51 C46 1_555 1_555
H44 C51 1_555 1_555
C52 P6 1_555 1_555
C53 C52 1_555 1_555
H45 C53 1_555 1_555
C54 C53 1_555 1_555
H46 C54 1_555 1_555
C55 C54 1_555 1_555
H47 C55 1_555 1_555
C56 C55 1_555 1_555
H48 C56 1_555 1_555
C57 C52 1_555 1_555
H49 C57 1_555 1_555
C58 P6 1_555 1_555
C59 C58 1_555 1_555
H50 C59 1_555 1_555
C60 C59 1_555 1_555
H51 C60 1_555 1_555
C61 C60 1_555 1_555
H52 C61 1_555 1_555
C62 C61 1_555 1_555
H53 C62 1_555 1_555
C63 C58 1_555 1_555
H54 C63 1_555 1_555
C64 P6 1_555 1_555
C65 H55 1_555 1_555
H56 C65 1_555 1_555
Cl1 C65 1_555 1_555
Cl2 C65 1_555 1_555
C66 H57 1_555 1_555
H58 C66 1_555 1_555
H59 C66 1_555 1_555
C67 C66 1_555 1_555
H60 C67 1_555 1_555
H61 C67 1_555 1_555
C68 C67 1_555 1_555
H62 C68 1_555 1_555
H63 C68 1_555 1_555
C69 C68 1_555 1_555
H64 C69 1_555 1_555
H65 C69 1_555 1_555
C70 C69 1_555 1_555
H66 C70 1_555 1_555
H67 C70 1_555 1_555
C71 C70 1_555 1_555
H68 C71 1_555 1_555
H69 C71 1_555 1_555
C72 C71 1_555 1_555
H70 C72 1_555 1_555
H71 C72 1_555 1_555
H72 C72 1_555 1_555
H80 C64 1_555 1_555
H81 C25 1_555 1_555
H82 C25 1_555 1_555
H83 C64 1_555 1_555
Ag1L P3L 1_555 1_555
Ag2L P5L 1_555 1_555
Ag2I P6I 1_555 1_555
P1L P2L 1_555 1_555
P2L S3L 1_555 1_555
P3L C13L 1_555 1_555
P4L Ag1L 1_555 1_555
P5L C39L 1_555 1_555
P6I C52I 1_555 1_555
P6L Ag2L 1_555 1_555
S1L Ag2L 1_555 1_555
S2L Ag1L 1_555 1_555
S3L Ag2L 1_555 1_555
S4L Ag1L 1_555 1_555
C1L P1L 1_555 1_555
C2L C1L 1_555 1_555
H1L C2L 1_555 1_555
C3L C2L 1_555 1_555
H2L C3L 1_555 1_555
C4L C3L 1_555 1_555
H3L C4L 1_555 1_555
C5L C4L 1_555 1_555
H4L C5L 1_555 1_555
C6L C1L 1_555 1_555
H5L C6L 1_555 1_555
C7L P2L 1_555 1_555
C8L C7L 1_555 1_555
H6L C8L 1_555 1_555
C9L C8L 1_555 1_555
H7L C9L 1_555 1_555
C10L C9L 1_555 1_555
H8L C10L 1_555 1_555
C11L C10L 1_555 1_555
H9L C11L 1_555 1_555
C12L C7L 1_555 1_555
H10L C12L 1_555 1_555
C13L C14L 1_555 1_555
C14L H11L 1_555 1_555
C15L C14L 1_555 1_555
H12L C15L 1_555 1_555
C16L C15L 1_555 1_555
H13L C16L 1_555 1_555
C17L C16L 1_555 1_555
H14L C17L 1_555 1_555
C18L C13L 1_555 1_555
H15L C18L 1_555 1_555
C19L P3L 1_555 1_555
C20L C19L 1_555 1_555
H16L C20L 1_555 1_555
C21L C20L 1_555 1_555
H17L C21L 1_555 1_555
C22L C21L 1_555 1_555
H18L C22L 1_555 1_555
C23L C22L 1_555 1_555
H19L C23L 1_555 1_555
C24L C19L 1_555 1_555
H20L C24L 1_555 1_555
C25L C25 1_555 1_555
C26L P4L 1_555 1_555
C27L C26L 1_555 1_555
H21L C27L 1_555 1_555
C28L C27L 1_555 1_555
H22L C28L 1_555 1_555
C29L C28L 1_555 1_555
H23L C29L 1_555 1_555
C30L C29L 1_555 1_555
H24L C30L 1_555 1_555
C31L C26L 1_555 1_555
H25L C31L 1_555 1_555
C32L P4L 1_555 1_555
C33L C32L 1_555 1_555
H26L C33L 1_555 1_555
C34L C33L 1_555 1_555
H27L C34L 1_555 1_555
C35L C34L 1_555 1_555
H28L C35L 1_555 1_555
C36L C35L 1_555 1_555
H29L C36L 1_555 1_555
C37L C32L 1_555 1_555
H30L C37L 1_555 1_555
C38L P4L 1_555 1_555
H31L C38L 1_555 1_555
H32L C38L 1_555 1_555
C39L C38L 1_555 1_555
H33L C39L 1_555 1_555
H34L C39L 1_555 1_555
C40L P5L 1_555 1_555
C41L C40L 1_555 1_555
H35L C41L 1_555 1_555
C42L C41L 1_555 1_555
H36L C42L 1_555 1_555
C43L C42L 1_555 1_555
H37L C43L 1_555 1_555
C44L C43L 1_555 1_555
H38L C44L 1_555 1_555
C45L C40L 1_555 1_555
H39L C45L 1_555 1_555
C46L P5L 1_555 1_555
C47L C46L 1_555 1_555
H40L C47L 1_555 1_555
C48L C47L 1_555 1_555
H41L C48L 1_555 1_555
C49L C48L 1_555 1_555
H42L C49L 1_555 1_555
C50L C49L 1_555 1_555
H43L C50L 1_555 1_555
C51L C46L 1_555 1_555
H44L C51L 1_555 1_555
C52I C53I 1_555 1_555
C53I H45I 1_555 1_555
C54I C53I 1_555 1_555
H46I C54I 1_555 1_555
C55I C54I 1_555 1_555
H47I C55I 1_555 1_555
C56I C55I 1_555 1_555
H48I C56I 1_555 1_555
C57I C52I 1_555 1_555
H49I C57I 1_555 1_555
C58I P6I 1_555 1_555
C59I C58I 1_555 1_555
H50I C59I 1_555 1_555
C60I C59I 1_555 1_555
H51I C60I 1_555 1_555
C61I C60I 1_555 1_555
H52I C61I 1_555 1_555
C62I C61I 1_555 1_555
H53I C62I 1_555 1_555
C63I C58I 1_555 1_555
H54I C63I 1_555 1_555
C64I C64 1_555 1_555
H80I C64I 1_555 1_555
H81L C25L 1_555 1_555
H82L C25L 1_555 1_555
H83I C64I 1_555 1_555
P1 S1 1_555 1_555
P1 S2 1_555 1_555
P2 S4 1_555 1_555
C5 C6 1_555 1_555
C11 C12 1_555 1_555
C17 C18 1_555 1_555
C23 C24 1_555 1_555
C30 C31 1_555 1_555
C36 C37 1_555 1_555
C44 C45 1_555 1_555
C50 C51 1_555 1_555
C56 C57 1_555 1_555
C62 C63 1_555 1_555
P1L S1L 1_555 1_555
P1L S2L 1_555 1_555
P2L S4L 1_555 1_555
P3L C25L 1_555 1_555
P6I C64I 1_555 1_555
C5L C6L 1_555 1_555
C11L C12L 1_555 1_555
C17L C18L 1_555 1_555
C23L C24L 1_555 1_555
C30L C31L 1_555 1_555
C36L C37L 1_555 1_555
C44L C45L 1_555 1_555
C50L C51L 1_555 1_555
C56I C57I 1_555 1_555
C62I C63I 1_555 1_555

#END
