
#######################################################################
#
#                 Cambridge Crystallographic Data Centre
#                                CCDC 
#
#######################################################################
#
# If this CIF has been generated from an entry in the Cambridge 
# Structural Database, then it will include bibliographic, chemical, 
# crystal, experimental, refinement or atomic coordinate data resulting 
# from the CCDC's data processing and validation procedures.
#
#######################################################################

data_FAWKOE
_symmetry_cell_setting           triclinic
_symmetry_space_group_name_H-M   'P -1'
_symmetry_Int_Tables_number      2
_space_group_name_Hall           '-P 1'
loop_
_symmetry_equiv_pos_site_id
_symmetry_equiv_pos_as_xyz
1 x,y,z
2 -x,-y,-z
_cell_length_a                   9.468(6)
_cell_length_b                   9.682(5)
_cell_length_c                   10.410(6)
_cell_angle_alpha                101.533(8)
_cell_angle_beta                 104.783(9)
_cell_angle_gamma                92.042(5)
_cell_volume                     900.27
loop_
_atom_site_label
_atom_site_type_symbol
_atom_site_fract_x
_atom_site_fract_y
_atom_site_fract_z
Zn1 Zn 0.42690(3) 0.25899(4) 0.32100(3)
O1 O 0.3317(2) 0.3950(2) 0.2148(2)
O2 O 0.1576(3) 0.2218(3) 0.1719(3)
O3 O 0.6236(2) 0.3452(3) 0.4278(2)
O4 O 0.6758(2) 0.3236(3) 0.2292(2)
N1 N 0.5175(3) -0.1324(3) 0.1313(3)
N2 N 0.3764(4) -0.1674(4) 0.1283(5)
N3 N 0.4396(3) 0.0607(3) 0.2226(3)
N4 N 0.6548(3) -0.3104(3) 0.3019(3)
N5 N 0.7816(3) -0.2284(3) 0.3693(3)
N6 N 0.6500(3) -0.2610(3) 0.5134(3)
C1 C 0.2007(3) 0.3392(3) 0.1587(3)
C2 C 0.0975(3) 0.4222(3) 0.0743(3)
C3 C 0.1308(3) 0.5661(3) 0.0888(3)
H1 H 0.2189 0.6104 0.1478
C4 C -0.0334(3) 0.3558(3) -0.0156(3)
H2 H -0.0555 0.2590 -0.0268
C5 C 0.7102(3) 0.3613(3) 0.3544(3)
C6 C 0.8609(3) 0.4325(3) 0.4308(3)
C7 C 0.9058(3) 0.4620(3) 0.5718(3)
H3 H 0.8426 0.4369 0.6203
C8 C 0.9558(3) 0.4715(4) 0.3590(3)
H4 H 0.9263 0.4529 0.2644
C9 C 0.3344(4) -0.0477(4) 0.1832(6)
H5 H 0.2404 -0.0385 0.1940
C10 C 0.5534(4) 0.0028(3) 0.1919(4)
H6 H 0.6460 0.0500 0.2101
C11 C 0.7746(4) -0.2019(4) 0.4966(4)
H7 H 0.8479 -0.1478 0.5682
C12 C 0.5770(3) -0.3282(3) 0.3882(3)
H8 H 0.4858 -0.3795 0.3646
C13 C 0.6074(4) -0.2386(4) 0.0821(3)
H9 H 0.7060 -0.1955 0.0973
H10 H 0.5671 -0.2740 -0.0150
C14 C 0.6136(4) -0.3609(3) 0.1540(3)
H11 H 0.5185 -0.4148 0.1252
H12 H 0.6845 -0.4232 0.1285
Zn1A Zn -0.42690(3) 0.74101(4) -0.32100(3)
Zn1A_2 Zn 0.57310(3) -0.25899(4) 0.67900(3)
Zn1A_3 Zn 1.57310(3) 0.74101(4) 0.67900(3)
O1A O -0.3317(2) 0.6050(2) -0.2148(2)
O2A O -0.1576(3) 0.7782(3) -0.1719(3)
O3A O 1.3764(2) 0.6548(3) 0.5722(2)
O3A_2 O -0.6236(2) 0.6548(3) -0.4278(2)
O4A O 1.3242(2) 0.6764(3) 0.7708(2)
N1A N 0.4825(3) 0.1324(3) 0.8687(3)
N2A N 0.6236(4) 0.1674(4) 0.8717(5)
N3A N 0.5604(3) -0.0607(3) 0.7774(3)
N3A_2 N -0.4396(3) 0.9393(3) -0.2226(3)
N4A N 0.3452(3) 0.3104(3) 0.6981(3)
N5A N 0.2184(3) 0.2284(3) 0.6307(3)
N6A N 0.3500(3) 0.2610(3) 0.4866(3)
N6_2 N -0.3500(3) 0.7390(3) -0.4866(3)
C1A C -0.2007(3) 0.6608(3) -0.1587(3)
C2A C -0.0975(3) 0.5778(3) -0.0743(3)
C3A C -0.1308(3) 0.4339(3) -0.0888(3)
H1A H -0.2189 0.3896 -0.1478
C4A C 0.0334(3) 0.6442(3) 0.0156(3)
H2A H 0.0555 0.7410 0.0268
C5A C 1.2898(3) 0.6387(3) 0.6456(3)
C6A C 1.1391(3) 0.5675(3) 0.5692(3)
C7A C 1.0942(3) 0.5380(3) 0.4282(3)
H3A H 1.1574 0.5631 0.3797
C8A C 1.0442(3) 0.5285(4) 0.6410(3)
H4A H 1.0737 0.5471 0.7356
C9A C 0.6656(4) 0.0477(4) 0.8168(6)
H5A H 0.7596 0.0385 0.8060
C10A C 0.4466(4) -0.0028(3) 0.8081(4)
H6A H 0.3540 -0.0500 0.7899
C11A C 0.2254(4) 0.2019(4) 0.5034(4)
H7A H 0.1521 0.1478 0.4318
C12A C 0.4230(3) 0.3282(3) 0.6118(3)
H8A H 0.5142 0.3795 0.6354
C13A C 0.3926(4) 0.2386(4) 0.9179(3)
H9A H 0.2940 0.1955 0.9027
H10A H 0.4329 0.2740 1.0150
C14A C 0.3864(4) 0.3609(3) 0.8460(3)
H11A H 0.4815 0.4148 0.8748
H12A H 0.3155 0.4232 0.8715
O5 O 0.8749(4) 0.1166(4) 0.1615(4)
O6 O 1.0237(4) -0.0849(4) 0.2897(4)
loop_
_geom_bond_atom_site_label_1
_geom_bond_atom_site_label_2
_geom_bond_site_symmetry_1
_geom_bond_site_symmetry_2
Zn1 O1 1_555 1_555
O1 C1 1_555 1_555
O2 C1 1_555 1_555
O3 Zn1 1_555 1_555
O4 C5 1_555 1_555
N1 N2 1_555 1_555
N2 C9 1_555 1_555
N3 Zn1 1_555 1_555
N4 N5 1_555 1_555
N5 C11 1_555 1_555
N6 C11 1_555 1_555
C1 C2 1_555 1_555
C2 C3 1_555 1_555
C3 H1 1_555 1_555
C4 C2 1_555 1_555
H2 C4 1_555 1_555
C5 O3 1_555 1_555
C6 C5 1_555 1_555
C7 C6 1_555 1_555
H3 C7 1_555 1_555
C8 C6 1_555 1_555
H4 C8 1_555 1_555
C9 N3 1_555 1_555
H5 C9 1_555 1_555
C10 N1 1_555 1_555
H6 C10 1_555 1_555
C11 H7 1_555 1_555
C12 N4 1_555 1_555
H8 C12 1_555 1_555
C13 N1 1_555 1_555
H9 C13 1_555 1_555
H10 C13 1_555 1_555
C14 N4 1_555 1_555
H11 C14 1_555 1_555
H12 C14 1_555 1_555
Zn1A O1A 1_555 1_555
Zn1A_2 N6 1_555 1_555
Zn1A_3 O3A 1_555 1_555
O1A C1A 1_555 1_555
O2A C1A 1_555 1_555
O3A C5A 1_555 1_555
O3A_2 Zn1A 1_555 1_555
O4A C5A 1_555 1_555
N1A N2A 1_555 1_555
N2A C9A 1_555 1_555
N3A Zn1A_2 1_555 1_555
N3A_2 Zn1A 1_555 1_555
N4A N5A 1_555 1_555
N5A C11A 1_555 1_555
N6A Zn1 1_555 1_555
N6_2 Zn1A 1_555 1_555
C1A C2A 1_555 1_555
C2A C3A 1_555 1_555
C3A C4 1_555 1_555
H1A C3A 1_555 1_555
C4A C3 1_555 1_555
H2A C4A 1_555 1_555
C5A C6A 1_555 1_555
C6A C7A 1_555 1_555
C7A C8 1_555 1_555
H3A C7A 1_555 1_555
C8A C7 1_555 1_555
H4A C8A 1_555 1_555
C9A N3A 1_555 1_555
H5A C9A 1_555 1_555
C10A N1A 1_555 1_555
H6A C10A 1_555 1_555
C11A N6A 1_555 1_555
H7A C11A 1_555 1_555
C12A N4A 1_555 1_555
H8A C12A 1_555 1_555
C13A N1A 1_555 1_555
H9A C13A 1_555 1_555
H10A C13A 1_555 1_555
C14A N4A 1_555 1_555
H11A C14A 1_555 1_555
H12A C14A 1_555 1_555
N3 C10 1_555 1_555
N6 C12 1_555 1_555
C13 C14 1_555 1_555
N3A C10A 1_555 1_555
N6A C12A 1_555 1_555
C2A C4A 1_555 1_555
C6A C8A 1_555 1_555
C13A C14A 1_555 1_555

#END
