
#######################################################################
#
#                 Cambridge Crystallographic Data Centre
#                                CCDC 
#
#######################################################################
#
# If this CIF has been generated from an entry in the Cambridge 
# Structural Database, then it will include bibliographic, chemical, 
# crystal, experimental, refinement or atomic coordinate data resulting 
# from the CCDC's data processing and validation procedures.
#
#######################################################################

data_FAWNUN
_symmetry_cell_setting           monoclinic
_symmetry_space_group_name_H-M   'C 2/c'
_symmetry_Int_Tables_number      15
_space_group_name_Hall           '-C 2yn'
loop_
_symmetry_equiv_pos_site_id
_symmetry_equiv_pos_as_xyz
1 x,y,z
2 1/2+x,1/2+y,z
3 -x,y,1/2-z
4 1/2-x,1/2+y,1/2-z
5 -x,-y,-z
6 1/2-x,1/2-y,-z
7 x,-y,1/2+z
8 1/2+x,1/2-y,1/2+z
_cell_length_a                   8.2349(10)
_cell_length_b                   11.191(2)
_cell_length_c                   22.837(3)
_cell_angle_alpha                90.00
_cell_angle_beta                 100.193(10)
_cell_angle_gamma                90.00
_cell_volume                     2071.37
loop_
_atom_site_label
_atom_site_type_symbol
_atom_site_fract_x
_atom_site_fract_y
_atom_site_fract_z
Mn1 Mn 0.5000 0.30520(8) 0.2500
Na1 Na 1.0674(2) 0.27204(18) 0.18919(7)
O1 O 0.5399(4) 0.1754(3) 0.18863(12)
O2 O 0.8141(4) 0.1877(3) 0.21215(12)
O3 O 0.8088(4) -0.1037(3) 0.19360(12)
O4 O 1.0490(4) -0.0581(3) 0.17010(13)
O5 O 0.4211(4) 0.2685(3) -0.03288(12)
H1 H 0.3709 0.2896 -0.0671
O6 O 0.5486(4) 0.1617(3) -0.09397(12)
O7 O 1.2166(4) 0.1307(3) 0.13444(13)
H2 H 1.1927 0.0621 0.1465
H3 H 1.3208 0.1363 0.1441
O8 O 1.0000 0.4309(5) 0.2500
H4 H 0.9185 0.4735 0.2342
C1 C 0.6867(5) 0.1607(3) 0.17761(17)
C2 C 0.6962(5) 0.1117(4) 0.11675(16)
C3 C 0.6044(5) 0.1654(4) 0.06695(16)
H5 H 0.5284 0.2246 0.0715
C4 C 0.6253(5) 0.1311(4) 0.01009(17)
C5 C 0.7373(5) 0.0428(4) 0.00338(18)
H6 H 0.7522 0.0204 -0.0345
C6 C 0.8275(5) -0.0124(4) 0.05274(17)
H7 H 0.9020 -0.0725 0.0479
C7 C 0.8076(5) 0.0211(4) 0.10933(17)
C8 C 0.8957(5) -0.0494(4) 0.16143(17)
C9 C 0.5289(5) 0.1872(4) -0.04411(18)
Mn1A Mn 1.0000 -0.19480(8) 0.2500
Mn1A_2 Mn 0.0000 -0.19480(8) 0.2500
Na1B Na -0.0674(2) 0.27204(18) 0.31081(7)
Na1B_2 Na 0.9326(2) 0.27204(18) 0.31081(7)
Na1A Na 0.5674(2) -0.22796(18) 0.18919(7)
Na1E Na 0.4326(2) 0.22796(18) -0.18919(7)
Na1_2 Na 0.0674(2) 0.27204(18) 0.18919(7)
Na1C Na 0.4326(2) -0.22796(18) 0.31081(7)
Na1G Na 0.5674(2) 0.22796(18) 0.68919(7)
O1B O 0.4601(4) 0.1754(3) 0.31137(12)
O2B O 0.1859(4) 0.1877(3) 0.28785(12)
O2B_2 O 1.1859(4) 0.1877(3) 0.28785(12)
O2_2 O -0.1859(4) 0.1877(3) 0.21215(12)
O3B O 0.1912(4) -0.1037(3) 0.30640(12)
O3A O 0.3088(4) 0.3963(3) 0.19360(12)
O3C O 0.6912(4) 0.3963(3) 0.30640(12)
O3A_2 O 1.3088(4) 0.3963(3) 0.19360(12)
O3C_2 O -0.3088(4) 0.3963(3) 0.30640(12)
O4B O -0.0490(4) -0.0581(3) 0.32990(13)
O4A O 0.5490(4) 0.4419(3) 0.17010(13)
O4C O 0.4510(4) 0.4419(3) 0.32990(13)
O5B O 0.5789(4) 0.2685(3) 0.53288(12)
H1B H 0.6291 0.2896 0.5671
O6B O 0.4514(4) 0.1617(3) 0.59397(12)
O6E O 0.9514(4) 0.3383(3) 0.09397(12)
O6G O 0.0486(4) 0.3383(3) 0.40603(12)
O7B O -0.2166(4) 0.1307(3) 0.36556(13)
H2B H -0.1927 0.0621 0.3535
H3B H -0.3208 0.1363 0.3559
O8_2 O 0.0000 0.4309(5) 0.2500
H4B H 1.0815 0.4735 0.2658
H4_2 H -0.0815 0.4735 0.2342
H4B_2 H 0.0815 0.4735 0.2658
C1B C 0.3133(5) 0.1607(3) 0.32239(17)
C2B C 0.3038(5) 0.1117(4) 0.38325(16)
C3B C 0.3956(5) 0.1654(4) 0.43305(16)
H5B H 0.4716 0.2246 0.4285
C4B C 0.3747(5) 0.1311(4) 0.48991(17)
C5B C 0.2627(5) 0.0428(4) 0.49662(18)
H6B H 0.2478 0.0204 0.5345
C6B C 0.1725(5) -0.0124(4) 0.44726(17)
H7B H 0.0980 -0.0725 0.4521
C7B C 0.1924(5) 0.0211(4) 0.39067(17)
C8B C 0.1043(5) -0.0494(4) 0.33857(17)
C9B C 0.4711(5) 0.1872(4) 0.54411(18)
loop_
_geom_bond_atom_site_label_1
_geom_bond_atom_site_label_2
_geom_bond_site_symmetry_1
_geom_bond_site_symmetry_2
Mn1 O1 1_555 1_555
Na1 O2 1_555 1_555
O1 C1 1_555 1_555
O2 C1 1_555 1_555
O3 C8 1_555 1_555
O4 C8 1_555 1_555
O5 H1 1_555 1_555
O6 C9 1_555 1_555
O7 Na1 1_555 1_555
H2 O7 1_555 1_555
H3 O7 1_555 1_555
O8 Na1 1_555 1_555
H4 O8 1_555 1_555
C1 C2 1_555 1_555
C2 C3 1_555 1_555
C3 H5 1_555 1_555
C4 C3 1_555 1_555
C5 C4 1_555 1_555
H6 C5 1_555 1_555
C6 C5 1_555 1_555
H7 C6 1_555 1_555
C7 C2 1_555 1_555
C8 C7 1_555 1_555
C9 O5 1_555 1_555
Mn1A O3 1_555 1_555
Mn1A_2 O3B 1_555 1_555
Na1B O2B 1_555 1_555
Na1B_2 O2 1_555 1_555
Na1A O3 1_555 1_555
Na1E O6 1_555 1_555
Na1_2 O2B 1_555 1_555
Na1C O3B 1_555 1_555
Na1G O6B 1_555 1_555
O1B Mn1 1_555 1_555
O2B C1B 1_555 1_555
O2B_2 Na1 1_555 1_555
O2_2 Na1B 1_555 1_555
O3B C8B 1_555 1_555
O3A Mn1 1_555 1_555
O3C Mn1 1_555 1_555
O3A_2 Na1 1_555 1_555
O3C_2 Na1B 1_555 1_555
O4B Mn1A_2 1_555 1_555
O4A Mn1 1_555 1_555
O4C Mn1 1_555 1_555
O5B H1B 1_555 1_555
O6B C9B 1_555 1_555
O6E Na1 1_555 1_555
O6G Na1B 1_555 1_555
O7B Na1B 1_555 1_555
H2B O7B 1_555 1_555
H3B O7B 1_555 1_555
O8_2 Na1B 1_555 1_555
H4B O8 1_555 1_555
H4_2 O8_2 1_555 1_555
H4B_2 O8_2 1_555 1_555
C1B O1B 1_555 1_555
C2B C1B 1_555 1_555
C3B C2B 1_555 1_555
H5B C3B 1_555 1_555
C4B C3B 1_555 1_555
C5B C4B 1_555 1_555
H6B C5B 1_555 1_555
C6B C5B 1_555 1_555
H7B C6B 1_555 1_555
C7B C2B 1_555 1_555
C8B O4B 1_555 1_555
C9B O5B 1_555 1_555
O4 Mn1A 1_555 1_555
O8 Na1B_2 1_555 1_555
C4 C9 1_555 1_555
C6 C7 1_555 1_555
Na1B_2 O2B_2 1_555 1_555
Na1B_2 O3C 1_555 1_555
Na1_2 O2_2 1_555 1_555
Na1_2 O3A 1_555 1_555
Na1_2 O8_2 1_555 1_555
C4B C9B 1_555 1_555
C6B C7B 1_555 1_555
C7B C8B 1_555 1_555

#END
