
#######################################################################
#
#                 Cambridge Crystallographic Data Centre
#                                CCDC 
#
#######################################################################
#
# If this CIF has been generated from an entry in the Cambridge 
# Structural Database, then it will include bibliographic, chemical, 
# crystal, experimental, refinement or atomic coordinate data resulting 
# from the CCDC's data processing and validation procedures.
#
#######################################################################

data_FAWQOL
_symmetry_cell_setting           monoclinic
_symmetry_space_group_name_H-M   'P 21/c'
_symmetry_Int_Tables_number      14
_space_group_name_Hall           '-P 2ybc'
loop_
_symmetry_equiv_pos_site_id
_symmetry_equiv_pos_as_xyz
1 x,y,z
2 -x,1/2+y,1/2-z
3 -x,-y,-z
4 x,1/2-y,1/2+z
_cell_length_a                   8.35972(63)
_cell_length_b                   5.93065(47)
_cell_length_c                   35.3586(31)
_cell_angle_alpha                90
_cell_angle_beta                 94.4620(49)
_cell_angle_gamma                90
_cell_volume                     1747.72
loop_
_atom_site_label
_atom_site_type_symbol
_atom_site_fract_x
_atom_site_fract_y
_atom_site_fract_z
N1 N 0.56077(39) 0.84348(58) 0.37534(17)
C1 C 0.47605(45) 1.02046(64) 0.36567(17)
H1 H 0.572 0.78467 0.40579
N2 N 0.64330(37) 0.71238(62) 0.35065(21)
C2 C 0.40570(53) 1.12438(91) 0.39602(17)
C3 C 0.45292(56) 1.09916(94) 0.32876(22)
C4 C 0.73211(45) 0.52800(78) 0.35906(17)
C5 C 0.31058(61) 1.3136(10) 0.38955(22)
S1 S 0.43454(55) 1.01358(92) 0.44331(17)
C6 C 0.35765(59) 1.2893(10) 0.32259(23)
H2 H 0.50586 1.01569 0.3075
C7 C 0.78322(92) 0.4645(11) 0.39586(18)
C8 C 0.76963(53) 0.38952(88) 0.32747(15)
C9 C 0.28430(51) 1.40013(97) 0.35318(19)
H3 H 0.26005 1.38982 0.41301
O1 O 0.3638(14) 0.7879(16) 0.43737(36)
O2 O 0.3374(14) 1.1474(20) 0.46817(35)
O3 O 0.6131(11) 1.0157(23) 0.45526(40)
H4 H 0.34214 1.34594 0.295
C10 C 0.88524(46) 0.2636(11) 0.40218(13)
O4 O 0.7582(14) 0.6112(17) 0.42027(27)
C11 C 0.86562(48) 0.18578(88) 0.33525(16)
C12 C 0.72308(73) 0.4365(12) 0.28913(21)
C13 C 0.17968(93) 1.6093(14) 0.34789(42)
C14 C 0.91667(84) 0.1274(13) 0.37373(21)
C15 C 0.95372(48) 0.2322(10) 0.44406(11)
C16 C 0.90516(73) 0.0454(11) 0.30468(21)
C17 C 0.76542(81) 0.2926(12) 0.26065(24)
H5 H 0.65818 0.57385 0.28141
H6 H 0.07279 1.57137 0.33199
H7 H 0.24333 1.74403 0.33564
H8 H 0.14384 1.67962 0.37683
H9 H 0.98058 -0.00995 0.37972
O5 O 0.99563(66) 0.4117(14) 0.46248(24)
O6 O 0.96409(47) 0.0376(15) 0.45769(21)
C18 C 0.85745(82) 0.0977(13) 0.26801(23)
H10 H 0.96825 -0.0976 0.30915
H11 H 0.73052 0.32885 0.23329
H12 H 0.89219 -0.00383 0.24632
Ca1 Ca 0.16269(64) 1.2597(11) 0.51541(17)
O7 O 0.3427(13) 1.5713(26) 0.50696(46)
H13 H 0.3425 1.62159 0.48032
H14 H 0.32702 1.7034 0.52059
O3B O 0.3869(11) 0.9843(23) 0.54474(40)
O4B O 0.2418(14) 1.3888(17) 0.57973(27)
O5_2 O -0.00437(66) 1.4117(14) 0.46248(24)
O5B O 0.00437(66) 1.5883(14) 0.53752(24)
O6_2 O -0.03591(47) 1.0376(15) 0.45769(21)
O6B O 0.03591(47) 0.9624(15) 0.54231(21)
Ca1_2 Ca 1.16269(64) 0.2597(11) 0.51541(17)
Ca1B Ca 0.83731(64) -0.2597(11) 0.48459(17)
Ca1B_2 Ca 0.83731(64) 0.7403(11) 0.48459(17)
loop_
_geom_bond_atom_site_label_1
_geom_bond_atom_site_label_2
_geom_bond_site_symmetry_1
_geom_bond_site_symmetry_2
N1 C1 1_555 1_555
C1 C2 1_555 1_555
H1 N1 1_555 1_555
N2 N1 1_555 1_555
C2 C5 1_555 1_555
C3 C1 1_555 1_555
C4 N2 1_555 1_555
C5 C9 1_555 1_555
S1 C2 1_555 1_555
C6 C3 1_555 1_555
H2 C3 1_555 1_555
C7 C4 1_555 1_555
C8 C4 1_555 1_555
C9 C6 1_555 1_555
H3 C5 1_555 1_555
O1 S1 1_555 1_555
O2 S1 1_555 1_555
O3 S1 1_555 1_555
H4 C6 1_555 1_555
C10 C7 1_555 1_555
O4 C7 1_555 1_555
C11 C8 1_555 1_555
C12 C8 1_555 1_555
C13 C9 1_555 1_555
C14 C10 1_555 1_555
C15 C10 1_555 1_555
C16 C11 1_555 1_555
C17 C12 1_555 1_555
H5 C12 1_555 1_555
H6 C13 1_555 1_555
H7 C13 1_555 1_555
H8 C13 1_555 1_555
H9 C14 1_555 1_555
O5 C15 1_555 1_555
O6 C15 1_555 1_555
C18 C16 1_555 1_555
H10 C16 1_555 1_555
H11 C17 1_555 1_555
H12 C18 1_555 1_555
Ca1 O2 1_555 1_555
O7 Ca1 1_555 1_555
H13 O7 1_555 1_555
H14 O7 1_555 1_555
O3B Ca1 1_555 1_555
O4B Ca1 1_555 1_555
O5_2 Ca1 1_555 1_555
O5B Ca1 1_555 1_555
O6_2 Ca1 1_555 1_555
O6B Ca1 1_555 1_555
Ca1_2 O5 1_555 1_555
Ca1B O6 1_555 1_555
Ca1B_2 O3 1_555 1_555
O4 Ca1B_2 1_555 1_555
C11 C14 1_555 1_555
C17 C18 1_555 1_555
O5 Ca1B_2 1_555 1_555
O6 Ca1_2 1_555 1_555

#END
