
#######################################################################
#
#                 Cambridge Crystallographic Data Centre
#                                CCDC 
#
#######################################################################
#
# If this CIF has been generated from an entry in the Cambridge 
# Structural Database, then it will include bibliographic, chemical, 
# crystal, experimental, refinement or atomic coordinate data resulting 
# from the CCDC's data processing and validation procedures.
#
#######################################################################

data_FAWQUR
_symmetry_cell_setting           monoclinic
_symmetry_space_group_name_H-M   'P 21/c'
_symmetry_Int_Tables_number      14
_space_group_name_Hall           '-P 2ybc'
loop_
_symmetry_equiv_pos_site_id
_symmetry_equiv_pos_as_xyz
1 x,y,z
2 -x,1/2+y,1/2-z
3 -x,-y,-z
4 x,1/2-y,1/2+z
_cell_length_a                   8.22263(64)
_cell_length_b                   5.90761(49)
_cell_length_c                   35.1810(38)
_cell_angle_alpha                90
_cell_angle_beta                 93.1092(61)
_cell_angle_gamma                90
_cell_volume                     1706.44
loop_
_atom_site_label
_atom_site_type_symbol
_atom_site_fract_x
_atom_site_fract_y
_atom_site_fract_z
Ca1 Ca 1.17839(92) 0.2647(14) 0.01463(29)
N1 N 1.44897(47) 0.41776(56) 0.12150(24)
C1 C 1.53748(48) 0.58598(69) 0.12876(19)
H1 H 1.42313 0.37507 0.09616
N2 N 1.37748(47) 0.27462(77) 0.14635(23)
C2 C 1.58345(57) 0.70620(94) 0.09545(19)
C3 C 1.58133(66) 0.6471(10) 0.16627(24)
C4 C 1.27783(57) 0.08580(85) 0.13662(19)
C5 C 1.68303(59) 0.90293(95) 0.10301(24)
S1 S 1.52605(64) 0.62460(97) 0.04525(18)
C6 C 1.67723(66) 0.8379(11) 0.17268(25)
H2 H 1.54461 0.55598 0.18891
C7 C 1.2137(95) 0.0095(13) 0.09903(19)
C8 C 1.23821(65) -0.05770(72) 0.16811(18)
C9 C 1.72717(66) 0.96406(83) 0.14089(20)
H3 H 1.72221 0.99952 0.08045
O1 O 1.3489(12) 0.6151(29) 0.04115(54)
O2 O 1.5891(17) 0.8225(19) 0.02542(40)
O3 O 1.6095(18) 0.4073(19) 0.03711(55)
H4 H 1.71034 0.88217 0.20007
C10 C 1.10663(54) -0.1944(11) 0.09265(16)
O4 O 1.2507(12) 0.1301(19) 0.07192(27)
C11 C 1.1351(59) -0.26961(85) 0.16017(18)
C12 C 1.29257(70) -0.0102(14) 0.20563(23)
C13 C 1.82916(98) 1.1690(16) 0.14548(47)
C14 C 1.08016(90) -0.3255(14) 0.12246(23)
C15 C 1.052(12) -0.2599(11) 0.05242(20)
C16 C 1.0955(88) -0.4075(14) 0.19037(23)
C17 C 1.24524(99) -0.1545(14) 0.23434(25)
H5 H 1.36401 0.12906 0.21303
H6 H 1.95009 1.12319 0.15437
H7 H 1.77856 1.27562 0.16662
H8 H 1.83052 1.26857 0.1188
H9 H 1.01985 -0.47156 0.11791
O5 O 1.00694(89) -0.4609(16) 0.04382(33)
O6 O 1.0246(10) -0.0882(18) 0.03243(28)
C18 C 1.1504(10) -0.3498(15) 0.22729(24)
H10 H 1.02868 -0.54711 0.18654
H11 H 1.28154 -0.11869 0.26197
H12 H 1.11828 -0.45337 0.24922
Ca1_2 Ca 1.17839(92) -0.7353(14) 0.01463(29)
Ca1B Ca 0.82161(92) -0.2647(14) -0.01463(29)
Ca1B_2 Ca 1.82161(92) 0.7353(14) -0.01463(29)
O2B O 1.4109(17) 0.1775(19) -0.02542(40)
O5_2 O 1.00694(89) 0.5391(16) 0.04382(33)
O5B O 0.99306(89) 0.4609(16) -0.04382(33)
O6B O 0.9754(10) 0.0882(18) -0.03243(28)
loop_
_geom_bond_atom_site_label_1
_geom_bond_atom_site_label_2
_geom_bond_site_symmetry_1
_geom_bond_site_symmetry_2
Ca1 O1 1_555 1_555
N1 C1 1_555 1_555
C1 C2 1_555 1_555
H1 N1 1_555 1_555
N2 N1 1_555 1_555
C2 C5 1_555 1_555
C3 C1 1_555 1_555
C4 N2 1_555 1_555
C5 C9 1_555 1_555
S1 C2 1_555 1_555
C6 C3 1_555 1_555
H2 C3 1_555 1_555
C7 C4 1_555 1_555
C8 C4 1_555 1_555
C9 C6 1_555 1_555
H3 C5 1_555 1_555
O1 S1 1_555 1_555
O2 S1 1_555 1_555
O3 S1 1_555 1_555
H4 C6 1_555 1_555
C10 C7 1_555 1_555
O4 Ca1 1_555 1_555
C11 C8 1_555 1_555
C12 C8 1_555 1_555
C13 C9 1_555 1_555
C14 C10 1_555 1_555
C15 C10 1_555 1_555
C16 C11 1_555 1_555
C17 C12 1_555 1_555
H5 C12 1_555 1_555
H6 C13 1_555 1_555
H7 C13 1_555 1_555
H8 C13 1_555 1_555
H9 C14 1_555 1_555
O5 C15 1_555 1_555
O6 Ca1 1_555 1_555
C18 C16 1_555 1_555
H10 C16 1_555 1_555
H11 C17 1_555 1_555
H12 C18 1_555 1_555
Ca1_2 O5 1_555 1_555
Ca1B O5 1_555 1_555
Ca1B_2 O2 1_555 1_555
O2B Ca1 1_555 1_555
O5_2 Ca1 1_555 1_555
O5B Ca1 1_555 1_555
O6B Ca1 1_555 1_555
C7 O4 1_555 1_555
C11 C14 1_555 1_555
C15 O6 1_555 1_555
C17 C18 1_555 1_555
O6 Ca1B 1_555 1_555
Ca1B O6B 1_555 1_555

#END
