
#######################################################################
#
#                 Cambridge Crystallographic Data Centre
#                                CCDC 
#
#######################################################################
#
# If this CIF has been generated from an entry in the Cambridge 
# Structural Database, then it will include bibliographic, chemical, 
# crystal, experimental, refinement or atomic coordinate data resulting 
# from the CCDC's data processing and validation procedures.
#
#######################################################################

data_FAXFAL
_symmetry_cell_setting           orthorhombic
_symmetry_space_group_name_H-M   'P b c a'
_symmetry_Int_Tables_number      61
_space_group_name_Hall           '-P 2ac 2ab'
loop_
_symmetry_equiv_pos_site_id
_symmetry_equiv_pos_as_xyz
1 x,y,z
2 1/2-x,-y,1/2+z
3 1/2+x,1/2-y,-z
4 -x,1/2+y,1/2-z
5 -x,-y,-z
6 1/2+x,y,1/2-z
7 1/2-x,1/2+y,z
8 x,1/2-y,1/2+z
_cell_length_a                   7.197(1)
_cell_length_b                   24.900(1)
_cell_length_c                   10.269(1)
_cell_angle_alpha                90
_cell_angle_beta                 90
_cell_angle_gamma                90
_cell_volume                     1840.26
loop_
_atom_site_label
_atom_site_type_symbol
_atom_site_fract_x
_atom_site_fract_y
_atom_site_fract_z
Cu1 Cu 0.0480(1) 0.3466(1) 0.1535(1)
Cl1 Cl 0.0322(1) 0.2992(1) -0.0325(1)
Cl2 Cl 0.1329(1) 0.4192(1) 0.0363(1)
Cl3 Cl -0.1641(1) 0.2916(1) 0.2543(1)
O1 O 0.2315(4) 0.4516(1) 0.7319(2)
N1 N 0.1184(4) 0.3668(1) 0.7051(2)
N2 N 0.0467(4) 0.3300(1) 0.5046(2)
N3 N 0.1323(4) 0.4427(1) 0.3175(2)
N4 N 0.0775(4) 0.3903(1) 0.3211(2)
C1 C 0.0646(5) 0.3258(1) 0.6316(3)
C2 C 0.0858(4) 0.3790(1) 0.4470(3)
C3 C 0.1442(4) 0.4222(1) 0.5215(3)
C4 C 0.1727(5) 0.4183(1) 0.6588(3)
C5 C 0.1729(5) 0.4626(1) 0.4321(3)
Cl3E Cl 0.3359(1) 0.2916(1) 0.2457(1)
Cu1E Cu -0.4520(1) 0.3466(1) 0.3465(1)
Cu1E_2 Cu 0.5480(1) 0.3466(1) 0.3465(1)
Cl1E Cl -0.4678(1) 0.2992(1) 0.5325(1)
Cl2E Cl -0.3671(1) 0.4192(1) 0.4637(1)
Cl3E_2 Cl -0.6641(1) 0.2916(1) 0.2457(1)
N4E N -0.4225(4) 0.3903(1) 0.1789(2)
N3E N -0.3677(4) 0.4427(1) 0.1825(2)
C2E C -0.4142(4) 0.3790(1) 0.0530(3)
C5E C -0.3271(5) 0.4626(1) 0.0679(3)
N2E N -0.4533(4) 0.3300(1) -0.0046(2)
C3E C -0.3558(4) 0.4222(1) -0.0215(3)
C1E C -0.4354(5) 0.3258(1) -0.1316(3)
C4E C -0.3273(5) 0.4183(1) -0.1588(3)
N1E N -0.3816(4) 0.3668(1) -0.2051(2)
O1E O -0.2685(4) 0.4516(1) -0.2319(2)
loop_
_geom_bond_atom_site_label_1
_geom_bond_atom_site_label_2
_geom_bond_site_symmetry_1
_geom_bond_site_symmetry_2
Cu1 Cl1 1_555 1_555
Cl2 Cu1 1_555 1_555
Cl3 Cu1 1_555 1_555
O1 C4 1_555 1_555
N1 C1 1_555 1_555
N2 C1 1_555 1_555
N3 N4 1_555 1_555
N4 Cu1 1_555 1_555
C2 N2 1_555 1_555
C3 C2 1_555 1_555
C4 N1 1_555 1_555
C5 N3 1_555 1_555
Cl3E Cu1 1_555 1_555
Cu1E Cl3 1_555 1_555
Cu1E_2 Cl3E 1_555 1_555
Cl1E Cu1E 1_555 1_555
Cl2E Cu1E 1_555 1_555
Cl3E_2 Cu1E 1_555 1_555
N4E Cu1E 1_555 1_555
N3E N4E 1_555 1_555
C2E N4E 1_555 1_555
C5E N3E 1_555 1_555
N2E C2E 1_555 1_555
C3E C2E 1_555 1_555
C1E N2E 1_555 1_555
C4E C3E 1_555 1_555
N1E C1E 1_555 1_555
O1E C4E 1_555 1_555
N4 C2 1_555 1_555
C3 C4 1_555 1_555
C3 C5 1_555 1_555
C5E C3E 1_555 1_555
C4E N1E 1_555 1_555

#END
