
#######################################################################
#
#                 Cambridge Crystallographic Data Centre
#                                CCDC 
#
#######################################################################
#
# If this CIF has been generated from an entry in the Cambridge 
# Structural Database, then it will include bibliographic, chemical, 
# crystal, experimental, refinement or atomic coordinate data resulting 
# from the CCDC's data processing and validation procedures.
#
#######################################################################

data_FAXFOA
_symmetry_cell_setting           triclinic
_symmetry_space_group_name_H-M   'P -1'
_symmetry_Int_Tables_number      2
_space_group_name_Hall           '-P 1'
loop_
_symmetry_equiv_pos_site_id
_symmetry_equiv_pos_as_xyz
1 x,y,z
2 -x,-y,-z
_cell_length_a                   9.530(5)
_cell_length_b                   9.561(6)
_cell_length_c                   11.609(5)
_cell_angle_alpha                108.472(5)
_cell_angle_beta                 93.918(6)
_cell_angle_gamma                92.673(5)
_cell_volume                     998.317
loop_
_atom_site_label
_atom_site_type_symbol
_atom_site_fract_x
_atom_site_fract_y
_atom_site_fract_z
Ag1 Ag 0.69262(4) 0.78451(4) 0.94922(3)
N1 N 0.4868(4) 1.3292(5) 1.6375(4)
N2 N 1.0062(5) 0.1639(5) 0.3478(4)
O1 O 0.6288(4) 0.9274(4) 1.1106(3)
O2 O 0.7773(4) 0.8365(4) 1.2238(3)
O3 O 0.3923(6) 1.4070(6) 1.6248(4)
O4 O 0.5407(5) 1.3308(6) 1.7369(4)
O5 O 0.7371(4) 0.6517(4) 0.7726(3)
O6 O 0.8831(4) 0.5589(4) 0.8850(3)
O7 O 0.9545(6) 0.1712(5) 0.2505(4)
O8 O 1.0909(6) 0.0740(5) 0.3564(4)
C1 C 0.6850(5) 0.9213(5) 1.2117(4)
C2 C 0.6331(4) 1.0297(5) 1.3234(4)
C3 C 0.6865(5) 1.0345(5) 1.4395(4)
H5 H 0.7544 0.9708 1.4480
C4 C 0.6389(5) 1.1337(5) 1.5427(4)
H6 H 0.6749 1.1376 1.6203
C5 C 0.5374(5) 1.2259(5) 1.5280(4)
C6 C 0.4811(5) 1.2243(5) 1.4145(4)
H7 H 0.4127 1.2879 1.4070
C7 C 0.5292(5) 1.1257(5) 1.3128(4)
H8 H 0.4922 1.1226 1.2357
C8 C 0.8299(5) 0.5636(5) 0.7848(4)
C9 C 0.8752(4) 0.4598(5) 0.6697(4)
C10 C 0.8186(5) 0.4604(5) 0.5556(4)
H9 H 0.7514 0.5263 0.5507
C11 C 0.8616(5) 0.3638(5) 0.4500(4)
H10 H 0.8242 0.3638 0.3739
C12 C 0.9619(5) 0.2671(5) 0.4602(4)
C13 C 1.0198(5) 0.2633(5) 0.5720(4)
H11 H 1.0863 0.1965 0.5763
C14 C 0.9763(5) 0.3610(5) 0.6765(4)
H12 H 1.0147 0.3611 0.7524
Ag2 Ag 0.0000 1.0000 1.0000
Ag3 Ag 0.5000 0.5000 1.0000
N3 N 0.0462(4) 0.8229(4) 1.0705(3)
H1 H -0.0012 0.8346 1.1369
H2 H 0.0112 0.7375 1.0143
N4 N 0.2878(4) 0.5072(4) 0.9275(3)
H3 H 0.2678 0.4263 0.8616
H4 H 0.2294 0.5007 0.9836
C15 C 0.1959(5) 0.8056(5) 1.1044(4)
H13 H 0.2008 0.7214 1.1338
H14 H 0.2333 0.8931 1.1703
C16 C 0.2869(5) 0.7829(5) 0.9971(5)
H15 H 0.2765 0.8649 0.9657
H16 H 0.3848 0.7873 1.0278
C17 C 0.2549(5) 0.6393(5) 0.8914(4)
H17 H 0.1560 0.6307 0.8624
H18 H 0.3100 0.6423 0.8248
Ag3_2 Ag -0.5000 1.5000 1.0000
N3A N -0.0462(4) 1.1771(4) 0.9295(3)
H1A H 0.0012 1.1654 0.8631
H2A H -0.0112 1.2625 0.9857
N4A N -0.2878(4) 1.4928(4) 1.0725(3)
N4A_2 N 0.7122(4) 0.4928(4) 1.0725(3)
H3A H -0.2678 1.5737 1.1384
H3A_2 H 0.7322 0.5737 1.1384
H4A H -0.2294 1.4993 1.0164
H4A_2 H 0.7706 0.4993 1.0164
C15A C -0.1959(5) 1.1944(5) 0.8956(4)
H13A H -0.2008 1.2786 0.8662
H14A H -0.2333 1.1069 0.8297
C16A C -0.2869(5) 1.2171(5) 1.0029(5)
H15A H -0.2765 1.1351 1.0343
H16A H -0.3848 1.2127 0.9722
C17A C -0.2549(5) 1.3607(5) 1.1086(4)
H17A H -0.1560 1.3693 1.1376
H18A H -0.3100 1.3577 1.1752
loop_
_geom_bond_atom_site_label_1
_geom_bond_atom_site_label_2
_geom_bond_site_symmetry_1
_geom_bond_site_symmetry_2
Ag1 O1 1_555 1_555
Ag2 N3 1_555 1_555
Ag3 N4 1_555 1_555
N1 O3 1_555 1_555
N2 O7 1_555 1_555
N3 H1 1_555 1_555
H2 N3 1_555 1_555
N4 H3 1_555 1_555
H4 N4 1_555 1_555
O1 C1 1_555 1_555
O2 C1 1_555 1_555
O4 N1 1_555 1_555
O5 Ag1 1_555 1_555
O6 C8 1_555 1_555
O8 N2 1_555 1_555
C1 C2 1_555 1_555
C2 C3 1_555 1_555
C3 H5 1_555 1_555
C4 C3 1_555 1_555
H6 C4 1_555 1_555
C5 N1 1_555 1_555
C6 C5 1_555 1_555
H7 C6 1_555 1_555
C7 C2 1_555 1_555
H8 C7 1_555 1_555
C8 O5 1_555 1_555
C9 C8 1_555 1_555
C10 C9 1_555 1_555
H9 C10 1_555 1_555
C11 C10 1_555 1_555
H10 C11 1_555 1_555
C12 N2 1_555 1_555
C13 C12 1_555 1_555
H11 C13 1_555 1_555
C14 C9 1_555 1_555
H12 C14 1_555 1_555
C15 N3 1_555 1_555
H13 C15 1_555 1_555
H14 C15 1_555 1_555
C16 C15 1_555 1_555
H15 C16 1_555 1_555
H16 C16 1_555 1_555
C17 N4 1_555 1_555
H17 C17 1_555 1_555
H18 C17 1_555 1_555
Ag3_2 N4A 1_555 1_555
N3A Ag2 1_555 1_555
H1A N3A 1_555 1_555
H2A N3A 1_555 1_555
N4A H3A 1_555 1_555
N4A_2 Ag3 1_555 1_555
H3A_2 N4A_2 1_555 1_555
H4A N4A 1_555 1_555
H4A_2 N4A_2 1_555 1_555
C15A N3A 1_555 1_555
H13A C15A 1_555 1_555
H14A C15A 1_555 1_555
C16A C15A 1_555 1_555
H15A C16A 1_555 1_555
H16A C16A 1_555 1_555
C17A N4A 1_555 1_555
H17A C17A 1_555 1_555
H18A C17A 1_555 1_555
C4 C5 1_555 1_555
C6 C7 1_555 1_555
C11 C12 1_555 1_555
C13 C14 1_555 1_555
C16 C17 1_555 1_555
C16A C17A 1_555 1_555

#END
