
#######################################################################
#
#                 Cambridge Crystallographic Data Centre
#                                CCDC 
#
#######################################################################
#
# If this CIF has been generated from an entry in the Cambridge 
# Structural Database, then it will include bibliographic, chemical, 
# crystal, experimental, refinement or atomic coordinate data resulting 
# from the CCDC's data processing and validation procedures.
#
#######################################################################

data_FAXGAN
_symmetry_cell_setting           monoclinic
_symmetry_space_group_name_H-M   'P 21/c'
_symmetry_Int_Tables_number      14
_space_group_name_Hall           '-P 2ybc'
loop_
_symmetry_equiv_pos_site_id
_symmetry_equiv_pos_as_xyz
1 x,y,z
2 -x,1/2+y,1/2-z
3 -x,-y,-z
4 x,1/2-y,1/2+z
_cell_length_a                   11.779(11)
_cell_length_b                   7.363(7)
_cell_length_c                   12.025(11)
_cell_angle_alpha                90
_cell_angle_beta                 103.359(12)
_cell_angle_gamma                90
_cell_volume                     1014.69
loop_
_atom_site_label
_atom_site_type_symbol
_atom_site_fract_x
_atom_site_fract_y
_atom_site_fract_z
Rb1 Rb 0.90569(5) 0.57370(8) 0.74921(5)
O1 O 0.8363(3) 0.4417(5) 0.9701(3)
O2 O 0.9503(3) 0.1970(5) 1.0771(3)
O3 O 0.9324(4) 0.2243(5) 0.8717(3)
O4 O 0.3418(3) 0.0444(5) 0.8164(3)
O5 O 0.4201(3) 0.3174(5) 0.8612(3)
H1 H 0.3517 0.3489 0.8412
O6 O 0.4761(4) -0.2416(5) 0.8596(3)
H2 H 0.4140 -0.1865 0.8423
O7 O 0.8036(4) 0.9442(6) 0.6824(4)
S1 S 0.87802(11) 0.25430(17) 0.96813(10)
C1 C 0.4273(5) 0.1395(7) 0.8509(4)
C2 C 0.5474(4) 0.0676(7) 0.8848(4)
C3 C 0.5644(5) -0.1225(7) 0.8866(4)
C4 C 0.6778(5) -0.1925(7) 0.9185(4)
H3 H 0.6893 -0.3175 0.9216
C5 C 0.7718(5) -0.0781(7) 0.9451(4)
H4 H 0.8471 -0.1252 0.9654
C6 C 0.7540(4) 0.1126(7) 0.9415(4)
C7 C 0.6434(4) 0.1821(7) 0.9122(4)
H5 H 0.6324 0.3072 0.9107
H6 H 0.814(6) 0.959(9) 0.616(3)
H7 H 0.767(6) 1.030(7) 0.705(5)
Rb1A Rb 1.09431(5) 0.07370(8) 0.75079(5)
Rb1A_2 Rb 1.09431(5) 1.07370(8) 0.75079(5)
Rb1C Rb 0.90569(5) -0.07370(8) 1.24921(5)
Rb1B Rb 1.09431(5) 0.42630(8) 1.25079(5)
Rb1A_3 Rb 0.09431(5) 0.07370(8) 0.75079(5)
O2C O 0.9503(3) 0.3030(5) 0.5771(3)
O2B O 1.0497(3) 0.8030(5) 0.9229(3)
O3A O 1.0676(4) 0.7243(5) 0.6283(3)
O4A O 0.6582(3) 0.5444(5) 0.6836(3)
O7A O 1.1964(4) 0.4442(6) 0.8176(4)
H6A H 1.186(6) 0.459(9) 0.884(3)
H7A H 1.233(6) 0.530(7) 0.795(5)
loop_
_geom_bond_atom_site_label_1
_geom_bond_atom_site_label_2
_geom_bond_site_symmetry_1
_geom_bond_site_symmetry_2
Rb1 O1 1_555 1_555
O1 S1 1_555 1_555
O2 S1 1_555 1_555
O3 Rb1 1_555 1_555
O4 C1 1_555 1_555
O5 H1 1_555 1_555
O6 H2 1_555 1_555
O7 Rb1 1_555 1_555
S1 O3 1_555 1_555
C1 O5 1_555 1_555
C2 C1 1_555 1_555
C3 O6 1_555 1_555
C4 C3 1_555 1_555
H3 C4 1_555 1_555
C5 C4 1_555 1_555
H4 C5 1_555 1_555
C6 S1 1_555 1_555
C7 C2 1_555 1_555
H5 C7 1_555 1_555
H6 O7 1_555 1_555
H7 O7 1_555 1_555
Rb1A O3 1_555 1_555
Rb1A_2 O7 1_555 1_555
Rb1C O2 1_555 1_555
Rb1B O2 1_555 1_555
Rb1A_3 O4 1_555 1_555
O2C Rb1 1_555 1_555
O2B Rb1 1_555 1_555
O3A Rb1 1_555 1_555
O4A Rb1 1_555 1_555
O7A Rb1 1_555 1_555
H6A O7A 1_555 1_555
H7A O7A 1_555 1_555
C2 C3 1_555 1_555
C5 C6 1_555 1_555
C6 C7 1_555 1_555
Rb1A O2C 1_555 1_555
Rb1A O7A 1_555 1_555
Rb1A_2 O2B 1_555 1_555
Rb1A_2 O3A 1_555 1_555

#END
