
#######################################################################
#
#                 Cambridge Crystallographic Data Centre
#                                CCDC 
#
#######################################################################
#
# If this CIF has been generated from an entry in the Cambridge 
# Structural Database, then it will include bibliographic, chemical, 
# crystal, experimental, refinement or atomic coordinate data resulting 
# from the CCDC's data processing and validation procedures.
#
#######################################################################

data_FAXGUH
_symmetry_cell_setting           monoclinic
_symmetry_space_group_name_H-M   'P 2/c'
_symmetry_Int_Tables_number      13
_space_group_name_Hall           '-P 2yc'
loop_
_symmetry_equiv_pos_site_id
_symmetry_equiv_pos_as_xyz
1 x,y,z
2 -x,y,1/2-z
3 -x,-y,-z
4 x,-y,1/2+z
_cell_length_a                   8.566(6)
_cell_length_b                   8.807(7)
_cell_length_c                   18.729(17)
_cell_angle_alpha                90
_cell_angle_beta                 101.37
_cell_angle_gamma                90
_cell_volume                     1385.2
loop_
_atom_site_label
_atom_site_type_symbol
_atom_site_fract_x
_atom_site_fract_y
_atom_site_fract_z
Ag1 Ag 0.79709(13) 0.07361(15) 0.51662(5)
P1 P 0.7557(4) 0.4906(5) 0.5049(2)
O1 O 0.8587(11) 0.3610(11) 0.4933(6)
O2 O 0.6775(13) 0.4557(17) 0.5717(6)
H1 H 0.5775 0.4687 0.5593
O3 O 0.8534(13) 0.6392(14) 0.5236(7)
H2 H 0.9469 0.6255 0.5158
O4 O 0.6213(12) 0.5214(14) 0.4381(5)
N1 N 0.5979(14) 0.0365(13) 0.4288(6)
N2 N -0.0130(16) -0.0487(15) 0.1112(6)
C1 C 0.5439(16) -0.1025(16) 0.4030(7)
H3 H 0.5908 -0.1906 0.4289
C2 C 0.4273(19) -0.1216(18) 0.3430(8)
H4 H 0.3978 -0.2229 0.3267
C3 C 0.3509(15) 0.0000(16) 0.3052(6)
C4 C 0.402(2) 0.1413(18) 0.3314(8)
H5 H 0.3534 0.2305 0.3073
C5 C 0.5233(19) 0.1589(19) 0.3924(8)
H6 H 0.5565 0.2588 0.4095
C6 C 0.2244(14) -0.0186(15) 0.2381(6)
C7 C 0.1759(19) -0.1576(19) 0.2104(8)
H7 H 0.2238 -0.2476 0.2340
C8 C 0.0606(19) -0.1718(18) 0.1477(8)
H8 H 0.0295 -0.2708 0.1286
C9 C 0.038(2) 0.0873(16) 0.1389(9)
H9 H -0.0090 0.1756 0.1134
C10 C 0.1492(19) 0.104(2) 0.2015(8)
H10 H 0.1776 0.2047 0.2192
Ag1C Ag -0.20291(13) -0.07361(15) 0.01662(5)
N2C N 0.9870(16) 0.0487(15) 0.6112(6)
O5 O 0.628(3) 0.511(3) 0.7928(11)
H11 H 0.5905 0.5995 0.7832
H12 H 0.7289 0.5282 0.7971
O6 O 0.1193(12) 0.499(5) 0.2602(13)
H13 H 0.0644 0.4660 0.2915
H14 H 0.2163 0.4799 0.2822
loop_
_geom_bond_atom_site_label_1
_geom_bond_atom_site_label_2
_geom_bond_site_symmetry_1
_geom_bond_site_symmetry_2
Ag1 O1 1_555 1_555
P1 O1 1_555 1_555
O2 P1 1_555 1_555
H1 O2 1_555 1_555
O3 P1 1_555 1_555
H2 O3 1_555 1_555
O4 P1 1_555 1_555
N1 Ag1 1_555 1_555
N2 C8 1_555 1_555
C1 N1 1_555 1_555
H3 C1 1_555 1_555
C2 C1 1_555 1_555
H4 C2 1_555 1_555
C3 C2 1_555 1_555
C4 C3 1_555 1_555
H5 C4 1_555 1_555
C5 N1 1_555 1_555
H6 C5 1_555 1_555
C6 C3 1_555 1_555
C7 C6 1_555 1_555
H7 C7 1_555 1_555
C8 C7 1_555 1_555
H8 C8 1_555 1_555
C9 N2 1_555 1_555
H9 C9 1_555 1_555
C10 C6 1_555 1_555
H10 C10 1_555 1_555
O5 H11 1_555 1_555
H12 O5 1_555 1_555
O6 H13 1_555 1_555
H14 O6 1_555 1_555
Ag1C N2 1_555 1_555
N2C Ag1 1_555 1_555
C4 C5 1_555 1_555
C9 C10 1_555 1_555

#END
