
#######################################################################
#
#                 Cambridge Crystallographic Data Centre
#                                CCDC 
#
#######################################################################
#
# If this CIF has been generated from an entry in the Cambridge 
# Structural Database, then it will include bibliographic, chemical, 
# crystal, experimental, refinement or atomic coordinate data resulting 
# from the CCDC's data processing and validation procedures.
#
#######################################################################

data_FAXGOC
_symmetry_cell_setting           orthorhombic
_symmetry_space_group_name_H-M   'P n m a'
_symmetry_Int_Tables_number      62
_space_group_name_Hall           '-P 2ac 2n'
loop_
_symmetry_equiv_pos_site_id
_symmetry_equiv_pos_as_xyz
1 x,y,z
2 1/2-x,-y,1/2+z
3 -x,1/2+y,-z
4 1/2+x,1/2-y,1/2-z
5 -x,-y,-z
6 1/2+x,y,1/2-z
7 x,1/2-y,z
8 1/2-x,1/2+y,1/2+z
_cell_length_a                   12.8037(16)
_cell_length_b                   27.890(4)
_cell_length_c                   13.0245(17)
_cell_angle_alpha                90
_cell_angle_beta                 90
_cell_angle_gamma                90
_cell_volume                     4650.99
loop_
_atom_site_label
_atom_site_type_symbol
_atom_site_fract_x
_atom_site_fract_y
_atom_site_fract_z
C1 C 0.7453(9) 0.4902(5) 0.6046(8)
H1 H 0.7841 0.4946 0.6642
C2 C 0.6605(9) 0.4605(4) 0.6095(8)
H2 H 0.6426 0.4455 0.6709
C3 C 0.6005(7) 0.4527(4) 0.5206(7)
C4 C 0.6361(8) 0.4754(4) 0.4333(7)
H3 H 0.6024 0.4704 0.3709
C5 C 0.7219(7) 0.5056(4) 0.4379(7)
H4 H 0.7421 0.5215 0.3783
C6 C 0.5082(7) 0.4210(4) 0.5241(6)
C7 C 0.4726(8) 0.4015(4) 0.6146(7)
H5 H 0.5093 0.4076 0.6748
C8 C 0.3842(9) 0.3733(4) 0.6186(7)
H6 H 0.3630 0.3599 0.6806
C9 C 0.3279(7) 0.3652(4) 0.5316(7)
H7 H 0.2676 0.3468 0.5346
C10 C 0.3605(7) 0.3846(4) 0.4373(6)
C11 C 0.4505(7) 0.4122(4) 0.4344(7)
H8 H 0.4730 0.4250 0.3724
C12 C 0.2935(7) 0.3781(4) 0.3482(6)
C13 C 0.2335(7) 0.3614(4) 0.1952(6)
C14 C 0.2250(7) 0.3456(4) 0.0885(6)
C15 C 0.1375(7) 0.3197(4) 0.0599(7)
H9 H 0.0894 0.3114 0.1104
C16 C 0.1903(9) 0.3159(5) -0.1072(8)
H10 H 0.1788 0.3056 -0.1742
C17 C 0.2788(9) 0.3408(6) -0.0851(8)
H11 H 0.3261 0.3477 -0.1372
C18 C 0.2993(8) 0.3558(4) 0.0140(8)
H12 H 0.3604 0.3722 0.0301
Br1 Br 0.93810(11) 0.61893(6) 0.37937(9)
Br2 Br 1.02939(9) 0.52835(5) 0.66479(9)
Br3 Br -0.11989(15) 0.2500 0.09674(14)
Br4 Br -0.0444(2) 0.2500 -0.25598(15)
Hg1 Hg 0.91579(3) 0.566870(18) 0.53097(3)
Hg2 Hg -0.02217(5) 0.2500 -0.06911(4)
N1 N 0.7757(6) 0.5129(3) 0.5213(6)
N2 N 0.1925(6) 0.3862(3) 0.3467(5)
N3 N 0.1549(6) 0.3764(3) 0.2500(5)
N4 N 0.3230(5) 0.3630(3) 0.2536(5)
N5 N 0.4206(6) 0.3446(4) 0.2196(6)
H13 H 0.4343 0.3172 0.2545
H14 H 0.4700 0.3668 0.2327
N6 N 0.1191(7) 0.3061(3) -0.0349(6)
C1F C 0.7453(9) 0.0098(5) 0.6046(8)
H1F H 0.7841 0.0054 0.6642
C2F C 0.6605(9) 0.0395(4) 0.6095(8)
H2F H 0.6426 0.0545 0.6709
C3F C 0.6005(7) 0.0473(4) 0.5206(7)
C4F C 0.6361(8) 0.0246(4) 0.4333(7)
H3F H 0.6024 0.0296 0.3709
C5F C 0.7219(7) -0.0056(4) 0.4379(7)
H4F H 0.7421 -0.0215 0.3783
C6F C 0.5082(7) 0.0790(4) 0.5241(6)
C7F C 0.4726(8) 0.0985(4) 0.6146(7)
H5F H 0.5093 0.0924 0.6748
C8F C 0.3842(9) 0.1267(4) 0.6186(7)
H6F H 0.3630 0.1401 0.6806
C9F C 0.3279(7) 0.1348(4) 0.5316(7)
H7F H 0.2676 0.1532 0.5346
C10F C 0.3605(7) 0.1154(4) 0.4373(6)
C11F C 0.4505(7) 0.0878(4) 0.4344(7)
H8F H 0.4730 0.0750 0.3724
C12F C 0.2935(7) 0.1219(4) 0.3482(6)
C13F C 0.2335(7) 0.1386(4) 0.1952(6)
C14F C 0.2250(7) 0.1544(4) 0.0885(6)
C15F C 0.1375(7) 0.1803(4) 0.0599(7)
H9F H 0.0894 0.1886 0.1104
C16F C 0.1903(9) 0.1841(5) -0.1072(8)
H10F H 0.1788 0.1944 -0.1742
C17F C 0.2788(9) 0.1592(6) -0.0851(8)
H11F H 0.3261 0.1523 -0.1372
C18F C 0.2993(8) 0.1442(4) 0.0140(8)
H12F H 0.3604 0.1278 0.0301
Br1F Br 0.93810(11) -0.11893(6) 0.37937(9)
Br2F Br 1.02939(9) -0.02835(5) 0.66479(9)
Hg1F Hg 0.91579(3) -0.066870(18) 0.53097(3)
Hg1D Hg 0.08421(3) 0.433130(18) 0.46903(3)
Hg1B Hg 0.08421(3) 0.066870(18) 0.46903(3)
N1F N 0.7757(6) -0.0129(3) 0.5213(6)
N2F N 0.1925(6) 0.1138(3) 0.3467(5)
N2D N 0.8075(6) 0.6138(3) 0.6533(5)
N2B N 0.8075(6) -0.1138(3) 0.6533(5)
N3F N 0.1549(6) 0.1236(3) 0.2500(5)
N4F N 0.3230(5) 0.1370(3) 0.2536(5)
N5F N 0.4206(6) 0.1554(4) 0.2196(6)
H13F H 0.4343 0.1828 0.2545
H14F H 0.4700 0.1332 0.2327
N6F N 0.1191(7) 0.1939(3) -0.0349(6)
C19 C 0.9133(18) 0.7500 0.638(2)
C20 C 0.943(3) 0.7500 0.531(2)
N7 N 0.890(2) 0.7500 0.7162(17)
H15? H 0.9534 0.7176 0.5080
H16? H 1.0071 0.7677 0.5224
H17? H 0.8891 0.7647 0.4906
loop_
_geom_bond_atom_site_label_1
_geom_bond_atom_site_label_2
_geom_bond_site_symmetry_1
_geom_bond_site_symmetry_2
C1 H1 1_555 1_555
C2 C1 1_555 1_555
H2 C2 1_555 1_555
C3 C2 1_555 1_555
C4 C3 1_555 1_555
H3 C4 1_555 1_555
C5 C4 1_555 1_555
H4 C5 1_555 1_555
C6 C3 1_555 1_555
C7 C6 1_555 1_555
H5 C7 1_555 1_555
C8 C7 1_555 1_555
H6 C8 1_555 1_555
C9 C8 1_555 1_555
H7 C9 1_555 1_555
C10 C9 1_555 1_555
C11 C6 1_555 1_555
H8 C11 1_555 1_555
C12 C10 1_555 1_555
C13 C14 1_555 1_555
C14 C15 1_555 1_555
C15 H9 1_555 1_555
C16 H10 1_555 1_555
C17 C16 1_555 1_555
H11 C17 1_555 1_555
C18 C14 1_555 1_555
H12 C18 1_555 1_555
Br1 Hg1 1_555 1_555
Br2 Hg1 1_555 1_555
Br3 Hg2 1_555 1_555
Br4 Hg2 1_555 1_555
Hg1 N1 1_555 1_555
Hg2 N6 1_555 1_555
N1 C1 1_555 1_555
N2 C12 1_555 1_555
N3 C13 1_555 1_555
N4 C12 1_555 1_555
N5 N4 1_555 1_555
H13 N5 1_555 1_555
H14 N5 1_555 1_555
N6 C15 1_555 1_555
C19 C20 1_555 1_555
N7 C19 1_555 1_555
C1F H1F 1_555 1_555
C2F C1F 1_555 1_555
H2F C2F 1_555 1_555
C3F C2F 1_555 1_555
C4F C3F 1_555 1_555
H3F C4F 1_555 1_555
C5F C4F 1_555 1_555
H4F C5F 1_555 1_555
C6F C3F 1_555 1_555
C7F C6F 1_555 1_555
H5F C7F 1_555 1_555
C8F C7F 1_555 1_555
H6F C8F 1_555 1_555
C9F C8F 1_555 1_555
H7F C9F 1_555 1_555
C10F C9F 1_555 1_555
C11F C6F 1_555 1_555
H8F C11F 1_555 1_555
C12F C10F 1_555 1_555
C13F C14F 1_555 1_555
C14F C15F 1_555 1_555
C15F H9F 1_555 1_555
C16F H10F 1_555 1_555
C17F C16F 1_555 1_555
H11F C17F 1_555 1_555
C18F C14F 1_555 1_555
H12F C18F 1_555 1_555
Br1F Hg1F 1_555 1_555
Br2F Hg1F 1_555 1_555
Hg1F N1F 1_555 1_555
Hg1D N2 1_555 1_555
Hg1B N2F 1_555 1_555
N1F C1F 1_555 1_555
N2F C12F 1_555 1_555
N2D Hg1 1_555 1_555
N2B Hg1F 1_555 1_555
N3F C13F 1_555 1_555
N4F C12F 1_555 1_555
N5F N4F 1_555 1_555
H13F N5F 1_555 1_555
H14F N5F 1_555 1_555
N6F Hg2 1_555 1_555
C5 N1 1_555 1_555
C10 C11 1_555 1_555
C13 N4 1_555 1_555
C16 N6 1_555 1_555
C17 C18 1_555 1_555
N2 N3 1_555 1_555
C5F N1F 1_555 1_555
C10F C11F 1_555 1_555
C13F N4F 1_555 1_555
C15F N6F 1_555 1_555
C16F N6F 1_555 1_555
C17F C18F 1_555 1_555
N2F N3F 1_555 1_555

#END
