
#######################################################################
#
#                 Cambridge Crystallographic Data Centre
#                                CCDC 
#
#######################################################################
#
# If this CIF has been generated from an entry in the Cambridge 
# Structural Database, then it will include bibliographic, chemical, 
# crystal, experimental, refinement or atomic coordinate data resulting 
# from the CCDC's data processing and validation procedures.
#
#######################################################################

data_FAXGIW
_symmetry_cell_setting           orthorhombic
_symmetry_space_group_name_H-M   'P n m a'
_symmetry_Int_Tables_number      62
_space_group_name_Hall           '-P 2ac 2n'
loop_
_symmetry_equiv_pos_site_id
_symmetry_equiv_pos_as_xyz
1 x,y,z
2 1/2-x,-y,1/2+z
3 -x,1/2+y,-z
4 1/2+x,1/2-y,1/2-z
5 -x,-y,-z
6 1/2+x,y,1/2-z
7 x,1/2-y,z
8 1/2-x,1/2+y,1/2+z
_cell_length_a                   12.773(2)
_cell_length_b                   27.267(5)
_cell_length_c                   12.941(2)
_cell_angle_alpha                90
_cell_angle_beta                 90
_cell_angle_gamma                90
_cell_volume                     4507.11
loop_
_atom_site_label
_atom_site_type_symbol
_atom_site_fract_x
_atom_site_fract_y
_atom_site_fract_z
C1 C 0.7488(11) 0.4872(6) 0.6122(12)
H1 H 0.7855 0.4929 0.6731
C2 C 0.6629(12) 0.4576(6) 0.6161(11)
H2 H 0.6449 0.4419 0.6774
C3 C 0.6023(9) 0.4510(5) 0.5278(9)
C4 C 0.6400(9) 0.4723(5) 0.4392(9)
H3 H 0.6058 0.4674 0.3766
C5 C 0.7278(10) 0.5008(6) 0.4432(9)
H4 H 0.7490 0.5158 0.3821
C6 C 0.5050(9) 0.4210(4) 0.5305(8)
C7 C 0.4677(10) 0.4013(5) 0.6212(9)
H5 H 0.5061 0.4056 0.6816
C8 C 0.3738(12) 0.3749(6) 0.6256(9)
H6 H 0.3484 0.3635 0.6885
C9 C 0.3201(10) 0.3663(5) 0.5361(9)
H7 H 0.2590 0.3478 0.5384
C10 C 0.3545(8) 0.3844(4) 0.4424(8)
C11 C 0.4487(9) 0.4117(5) 0.4390(8)
H8 H 0.4735 0.4236 0.3762
C12 C 0.2910(7) 0.3775(4) 0.3511(8)
C13 C 0.2356(8) 0.3601(4) 0.1957(8)
C14 C 0.2286(8) 0.3443(4) 0.0891(7)
C15 C 0.1407(8) 0.3202(4) 0.0566(8)
H9 H 0.0892 0.3135 0.1053
C16 C 0.1983(11) 0.3164(6) -0.1088(10)
H10 H 0.1865 0.3081 -0.1776
C17 C 0.2895(12) 0.3383(6) -0.0845(10)
H11 H 0.3405 0.3433 -0.1347
C18 C 0.3058(10) 0.3532(6) 0.0154(9)
H12 H 0.3676 0.3690 0.0337
Cl1 Cl 0.9409(2) 0.61459(14) 0.3833(2)
Cl2 Cl 1.0295(2) 0.52970(12) 0.6709(2)
Cl3 Cl -0.1093(4) 0.2500 0.0879(4)
Cl4 Cl -0.024(3) 0.2500 -0.2638(8)
Hg1 Hg 0.92151(4) 0.56482(2) 0.53538(4)
Hg2 Hg -0.02020(6) 0.2500 -0.07687(5)
N1 N 0.7837(8) 0.5088(4) 0.5243(8)
N2 N 0.1895(7) 0.3865(4) 0.3477(7)
N3 N 0.1549(6) 0.3763(4) 0.2500(7)
N4 N 0.3223(6) 0.3613(4) 0.2571(6)
N5 N 0.4203(6) 0.3427(4) 0.2259(7)
H13 H 0.4340 0.3153 0.2608
H14 H 0.4697 0.3648 0.2390
N6 N 0.1243(8) 0.3058(4) -0.0405(7)
C1F C 0.7488(11) 0.0128(6) 0.6122(12)
H1F H 0.7855 0.0071 0.6731
C2F C 0.6629(12) 0.0424(6) 0.6161(11)
H2F H 0.6449 0.0581 0.6774
C3F C 0.6023(9) 0.0490(5) 0.5278(9)
C4F C 0.6400(9) 0.0277(5) 0.4392(9)
H3F H 0.6058 0.0326 0.3766
C5F C 0.7278(10) -0.0008(6) 0.4432(9)
H4F H 0.7490 -0.0158 0.3821
C6F C 0.5050(9) 0.0790(4) 0.5305(8)
C7F C 0.4677(10) 0.0987(5) 0.6212(9)
H5F H 0.5061 0.0944 0.6816
C8F C 0.3738(12) 0.1251(6) 0.6256(9)
H6F H 0.3484 0.1365 0.6885
C9F C 0.3201(10) 0.1337(5) 0.5361(9)
H7F H 0.2590 0.1522 0.5384
C10F C 0.3545(8) 0.1156(4) 0.4424(8)
C11F C 0.4487(9) 0.0883(5) 0.4390(8)
H8F H 0.4735 0.0764 0.3762
C12F C 0.2910(7) 0.1225(4) 0.3511(8)
C13F C 0.2356(8) 0.1399(4) 0.1957(8)
C14F C 0.2286(8) 0.1557(4) 0.0891(7)
C15F C 0.1407(8) 0.1798(4) 0.0566(8)
H9F H 0.0892 0.1865 0.1053
C16F C 0.1983(11) 0.1836(6) -0.1088(10)
H10F H 0.1865 0.1919 -0.1776
C17F C 0.2895(12) 0.1617(6) -0.0845(10)
H11F H 0.3405 0.1567 -0.1347
C18F C 0.3058(10) 0.1468(6) 0.0154(9)
H12F H 0.3676 0.1310 0.0337
Cl1F Cl 0.9409(2) -0.11459(14) 0.3833(2)
Cl2F Cl 1.0295(2) -0.02970(12) 0.6709(2)
Hg1F Hg 0.92151(4) -0.06482(2) 0.53538(4)
Hg1D Hg 0.07849(4) 0.43518(2) 0.46462(4)
Hg1B Hg 0.07849(4) 0.06482(2) 0.46462(4)
N1F N 0.7837(8) -0.0088(4) 0.5243(8)
N2F N 0.1895(7) 0.1135(4) 0.3477(7)
N2D N 0.8105(7) 0.6135(4) 0.6523(7)
N2B N 0.8105(7) -0.1135(4) 0.6523(7)
N3F N 0.1549(6) 0.1237(4) 0.2500(7)
N4F N 0.3223(6) 0.1387(4) 0.2571(6)
N5F N 0.4203(6) 0.1573(4) 0.2259(7)
H13F H 0.4340 0.1847 0.2608
H14F H 0.4697 0.1352 0.2390
N6F N 0.1243(8) 0.1942(4) -0.0405(7)
C19 C 0.905(3) 0.7500 0.638(3)
C20 C 0.926(5) 0.7500 0.525(4)
N7 N 0.880(3) 0.7500 0.713(3)
H15? H 0.9369 0.7169 0.5013
H16? H 0.9882 0.7690 0.5105
H17? H 0.8679 0.7641 0.4888
Cl5? Cl 1.066(4) 0.7500 1.253(2)
loop_
_geom_bond_atom_site_label_1
_geom_bond_atom_site_label_2
_geom_bond_site_symmetry_1
_geom_bond_site_symmetry_2
C1 H1 1_555 1_555
C2 C1 1_555 1_555
H2 C2 1_555 1_555
C3 C2 1_555 1_555
C4 C3 1_555 1_555
H3 C4 1_555 1_555
C5 C4 1_555 1_555
H4 C5 1_555 1_555
C6 C3 1_555 1_555
C7 C6 1_555 1_555
H5 C7 1_555 1_555
C8 C7 1_555 1_555
H6 C8 1_555 1_555
C9 C8 1_555 1_555
H7 C9 1_555 1_555
C10 C9 1_555 1_555
C11 C6 1_555 1_555
H8 C11 1_555 1_555
C12 C10 1_555 1_555
C13 C14 1_555 1_555
C14 C15 1_555 1_555
C15 H9 1_555 1_555
C16 H10 1_555 1_555
C17 C16 1_555 1_555
H11 C17 1_555 1_555
C18 C14 1_555 1_555
H12 C18 1_555 1_555
Cl1 Hg1 1_555 1_555
Cl2 Hg1 1_555 1_555
Cl3 Hg2 1_555 1_555
Cl4 Hg2 1_555 1_555
Hg1 N1 1_555 1_555
Hg2 N6 1_555 1_555
N1 C1 1_555 1_555
N2 C12 1_555 1_555
N3 C13 1_555 1_555
N4 C12 1_555 1_555
N5 N4 1_555 1_555
H13 N5 1_555 1_555
H14 N5 1_555 1_555
N6 C15 1_555 1_555
C19 C20 1_555 1_555
N7 C19 1_555 1_555
C1F H1F 1_555 1_555
C2F C1F 1_555 1_555
H2F C2F 1_555 1_555
C3F C2F 1_555 1_555
C4F C3F 1_555 1_555
H3F C4F 1_555 1_555
C5F C4F 1_555 1_555
H4F C5F 1_555 1_555
C6F C3F 1_555 1_555
C7F C6F 1_555 1_555
H5F C7F 1_555 1_555
C8F C7F 1_555 1_555
H6F C8F 1_555 1_555
C9F C8F 1_555 1_555
H7F C9F 1_555 1_555
C10F C9F 1_555 1_555
C11F C6F 1_555 1_555
H8F C11F 1_555 1_555
C12F C10F 1_555 1_555
C13F C14F 1_555 1_555
C14F C15F 1_555 1_555
C15F H9F 1_555 1_555
C16F H10F 1_555 1_555
C17F C16F 1_555 1_555
H11F C17F 1_555 1_555
C18F C14F 1_555 1_555
H12F C18F 1_555 1_555
Cl1F Hg1F 1_555 1_555
Cl2F Hg1F 1_555 1_555
Hg1F N1F 1_555 1_555
Hg1D N2 1_555 1_555
Hg1B N2F 1_555 1_555
N1F C1F 1_555 1_555
N2F C12F 1_555 1_555
N2D Hg1 1_555 1_555
N2B Hg1F 1_555 1_555
N3F C13F 1_555 1_555
N4F C12F 1_555 1_555
N5F N4F 1_555 1_555
H13F N5F 1_555 1_555
H14F N5F 1_555 1_555
N6F Hg2 1_555 1_555
C5 N1 1_555 1_555
C10 C11 1_555 1_555
C13 N4 1_555 1_555
C16 N6 1_555 1_555
C17 C18 1_555 1_555
N2 N3 1_555 1_555
C5F N1F 1_555 1_555
C10F C11F 1_555 1_555
C13F N4F 1_555 1_555
C15F N6F 1_555 1_555
C16F N6F 1_555 1_555
C17F C18F 1_555 1_555
N2F N3F 1_555 1_555

#END
