
#######################################################################
#
#                 Cambridge Crystallographic Data Centre
#                                CCDC 
#
#######################################################################
#
# If this CIF has been generated from an entry in the Cambridge 
# Structural Database, then it will include bibliographic, chemical, 
# crystal, experimental, refinement or atomic coordinate data resulting 
# from the CCDC's data processing and validation procedures.
#
#######################################################################

data_FAXHIW
_symmetry_cell_setting           triclinic
_symmetry_space_group_name_H-M   'P -1'
_symmetry_Int_Tables_number      2
_space_group_name_Hall           '-P 1'
loop_
_symmetry_equiv_pos_site_id
_symmetry_equiv_pos_as_xyz
1 x,y,z
2 -x,-y,-z
_cell_length_a                   9.2704(19)
_cell_length_b                   11.161(2)
_cell_length_c                   11.456(2)
_cell_angle_alpha                108.72(3)
_cell_angle_beta                 106.56(3)
_cell_angle_gamma                90.39(3)
_cell_volume                     1069.72
loop_
_atom_site_label
_atom_site_type_symbol
_atom_site_fract_x
_atom_site_fract_y
_atom_site_fract_z
Co1 Co 0.5000 0.0000 0.5000
N1 N 0.5048(2) -0.0134(2) 0.30845(18)
O6 O 0.5460(3) 0.19619(19) 0.56310(18)
O7 O 0.2661(2) 0.0177(2) 0.44340(18)
C1 C 0.6198(3) 0.0447(3) 0.2917(2)
C2 C 0.6226(3) 0.0524(3) 0.1741(2)
C3 C 0.5020(3) -0.0043(3) 0.0637(2)
C4 C 0.3831(3) -0.0679(3) 0.0804(2)
C5 C 0.3887(3) -0.0691(3) 0.2022(2)
H1 H 0.524(4) 0.239(3) 0.6296(18)
H2 H 0.539(4) 0.238(3) 0.512(2)
H3 H 0.204(3) -0.0445(17) 0.432(3)
H4 H 0.245(3) 0.0853(15) 0.492(2)
H11 H 0.7033 0.0825 0.3636
H12 H 0.7056 0.0956 0.1692
H13 H 0.3000 -0.1096 0.0096
H14 H 0.3070 -0.1110 0.2105
Co1_2 Co 0.5000 0.0000 -0.5000
N1A N 0.4952(2) 0.0134(2) -0.30845(18)
N1A_2 N 0.4952(2) 0.0134(2) 0.69155(18)
O6A O 0.4540(3) -0.19619(19) 0.43690(18)
O7A O 0.7339(2) -0.0177(2) 0.55660(18)
C1A C 0.3802(3) -0.0447(3) -0.2917(2)
C2A C 0.3774(3) -0.0524(3) -0.1741(2)
C3A C 0.4980(3) 0.0043(3) -0.0637(2)
C4A C 0.6169(3) 0.0679(3) -0.0804(2)
C5A C 0.6113(3) 0.0691(3) -0.2022(2)
H1A H 0.476(4) -0.239(3) 0.3704(18)
H2A H 0.461(4) -0.238(3) 0.488(2)
H3A H 0.796(3) 0.0445(17) 0.568(3)
H4A H 0.755(3) -0.0853(15) 0.508(2)
H11A H 0.2967 -0.0825 -0.3636
H12A H 0.2944 -0.0956 -0.1692
H13A H 0.7000 0.1096 -0.0096
H14A H 0.6930 0.1110 -0.2105
Co2 Co 0.0000 0.5000 0.5000
N2 N 0.0033(2) 0.4929(2) 0.30999(19)
O8 O -0.1927(2) 0.5941(2) 0.47880(16)
O9 O -0.1351(2) 0.32047(19) 0.41823(18)
C6 C 0.1273(3) 0.5294(3) 0.2877(2)
C7 C 0.1312(3) 0.5345(3) 0.1698(2)
C8 C 0.0005(3) 0.4979(3) 0.0649(2)
C9 C -0.1284(3) 0.4580(3) 0.0869(2)
C10 C -0.1225(3) 0.4563(3) 0.2081(2)
H5 H -0.276(2) 0.549(2) 0.431(2)
H6 H -0.183(3) 0.6571(19) 0.454(3)
H7 H -0.2278(15) 0.324(3) 0.415(3)
H8 H -0.099(3) 0.268(2) 0.455(3)
H15 H 0.2168 0.5529 0.3560
H16 H 0.2208 0.5622 0.1607
H17 H -0.2189 0.4323 0.0198
H18 H -0.2104 0.4283 0.2197
Co2_2 Co 0.0000 0.5000 -0.5000
N2A N -0.0033(2) 0.5071(2) -0.30999(19)
N2A_2 N -0.0033(2) 0.5071(2) 0.69001(19)
O8A O 0.1927(2) 0.4059(2) 0.52120(16)
O9A O 0.1351(2) 0.67953(19) 0.58177(18)
C6A C -0.1273(3) 0.4706(3) -0.2877(2)
C7A C -0.1312(3) 0.4655(3) -0.1698(2)
C8A C -0.0005(3) 0.5021(3) -0.0649(2)
C9A C 0.1284(3) 0.5420(3) -0.0869(2)
C10A C 0.1225(3) 0.5437(3) -0.2081(2)
H5A H 0.276(2) 0.451(2) 0.569(2)
H6A H 0.183(3) 0.3429(19) 0.546(3)
H7A H 0.2278(15) 0.676(3) 0.585(3)
H8A H 0.099(3) 0.732(2) 0.545(3)
H15A H -0.2168 0.4471 -0.3560
H16A H -0.2208 0.4378 -0.1607
H17A H 0.2189 0.5677 -0.0198
H18A H 0.2104 0.5717 -0.2197
O1 O 0.5676(2) 0.4537(2) 0.29218(19)
O2 O 0.5628(2) 0.3304(2) 0.40838(18)
O3 O 0.2008(2) 0.2175(2) -0.13621(18)
O4 O -0.0581(2) 0.1536(2) -0.44719(19)
O5 O 0.1885(2) 0.2195(2) -0.36954(18)
C11 C 0.5074(3) 0.3640(3) 0.3113(2)
C12 C 0.3649(3) 0.2911(3) 0.2100(2)
C13 C 0.2567(3) 0.2326(3) 0.2415(3)
C14 C 0.1245(4) 0.1716(3) 0.1467(3)
C15 C 0.1000(3) 0.1629(3) 0.0190(3)
C16 C 0.2109(3) 0.2197(3) -0.0126(2)
C17 C 0.3406(3) 0.2850(3) 0.0829(3)
C18 C 0.0645(3) 0.1631(3) -0.2347(3)
C19 C 0.0666(3) 0.1810(3) -0.3601(3)
H19 H 0.2730 0.2343 0.3260
H20 H 0.0502 0.1354 0.1689
H21 H 0.0111 0.1201 -0.0443
H22 H 0.4127 0.3254 0.0618
H23 H -0.0195 0.2026 -0.2086
H24 H 0.0497 0.0730 -0.2481
O10 O 0.5067(2) 0.6593(2) 0.2071(2)
H9 H 0.517(4) 0.5858(17) 0.212(4)
H10 H 0.591(2) 0.697(3) 0.217(4)
loop_
_geom_bond_atom_site_label_1
_geom_bond_atom_site_label_2
_geom_bond_site_symmetry_1
_geom_bond_site_symmetry_2
Co1 N1 1_555 1_555
Co2 N2 1_555 1_555
N1 C1 1_555 1_555
N2 C6 1_555 1_555
O1 C11 1_555 1_555
O2 C11 1_555 1_555
O3 C16 1_555 1_555
O4 C19 1_555 1_555
O5 C19 1_555 1_555
O6 Co1 1_555 1_555
O7 Co1 1_555 1_555
O8 Co2 1_555 1_555
O9 Co2 1_555 1_555
O10 H9 1_555 1_555
C1 C2 1_555 1_555
C2 C3 1_555 1_555
C3 C4 1_555 1_555
C4 C5 1_555 1_555
C5 N1 1_555 1_555
C6 C7 1_555 1_555
C7 C8 1_555 1_555
C8 C9 1_555 1_555
C9 C10 1_555 1_555
C10 N2 1_555 1_555
C11 C12 1_555 1_555
C12 C13 1_555 1_555
C13 C14 1_555 1_555
C14 C15 1_555 1_555
C15 C16 1_555 1_555
C16 C17 1_555 1_555
C17 C12 1_555 1_555
C18 O3 1_555 1_555
C19 C18 1_555 1_555
H1 O6 1_555 1_555
H2 O6 1_555 1_555
H3 O7 1_555 1_555
H4 O7 1_555 1_555
H5 O8 1_555 1_555
H6 O8 1_555 1_555
H7 O9 1_555 1_555
H8 O9 1_555 1_555
H10 O10 1_555 1_555
H11 C1 1_555 1_555
H12 C2 1_555 1_555
H13 C4 1_555 1_555
H14 C5 1_555 1_555
H15 C6 1_555 1_555
H16 C7 1_555 1_555
H17 C9 1_555 1_555
H18 C10 1_555 1_555
H19 C13 1_555 1_555
H20 C14 1_555 1_555
H21 C15 1_555 1_555
H22 C17 1_555 1_555
H23 C18 1_555 1_555
H24 C18 1_555 1_555
Co1_2 N1A 1_555 1_555
Co2_2 N2A 1_555 1_555
N1A C1A 1_555 1_555
N1A_2 Co1 1_555 1_555
N2A C6A 1_555 1_555
N2A_2 Co2 1_555 1_555
O6A Co1 1_555 1_555
O7A Co1 1_555 1_555
O8A Co2 1_555 1_555
O9A Co2 1_555 1_555
C1A C2A 1_555 1_555
C2A C3A 1_555 1_555
C3A C3 1_555 1_555
C4A C3A 1_555 1_555
C5A N1A 1_555 1_555
C6A C7A 1_555 1_555
C7A C8A 1_555 1_555
C8A C8 1_555 1_555
C9A C8A 1_555 1_555
C10A N2A 1_555 1_555
H1A O6A 1_555 1_555
H2A O6A 1_555 1_555
H3A O7A 1_555 1_555
H4A O7A 1_555 1_555
H5A O8A 1_555 1_555
H6A O8A 1_555 1_555
H7A O9A 1_555 1_555
H8A O9A 1_555 1_555
H11A C1A 1_555 1_555
H12A C2A 1_555 1_555
H13A C4A 1_555 1_555
H14A C5A 1_555 1_555
H15A C6A 1_555 1_555
H16A C7A 1_555 1_555
H17A C9A 1_555 1_555
H18A C10A 1_555 1_555
C4A C5A 1_555 1_555
C9A C10A 1_555 1_555

#END
