
#######################################################################
#
#                 Cambridge Crystallographic Data Centre
#                                CCDC 
#
#######################################################################
#
# If this CIF has been generated from an entry in the Cambridge 
# Structural Database, then it will include bibliographic, chemical, 
# crystal, experimental, refinement or atomic coordinate data resulting 
# from the CCDC's data processing and validation procedures.
#
#######################################################################

data_FAXLIA
_symmetry_cell_setting           triclinic
_symmetry_space_group_name_H-M   'P -1'
_symmetry_Int_Tables_number      2
_space_group_name_Hall           '-P 1'
loop_
_symmetry_equiv_pos_site_id
_symmetry_equiv_pos_as_xyz
1 x,y,z
2 -x,-y,-z
_cell_length_a                   9.3049(8)
_cell_length_b                   11.1595(15)
_cell_length_c                   11.4248(18)
_cell_angle_alpha                108.526(5)
_cell_angle_beta                 106.493(8)
_cell_angle_gamma                90.737(6)
_cell_volume                     1071.62
loop_
_atom_site_label
_atom_site_type_symbol
_atom_site_fract_x
_atom_site_fract_y
_atom_site_fract_z
Zn1 Zn 0.0000 0.5000 0.0000
N1 N -0.0041(2) 0.51270(19) 0.19148(18)
O6 O -0.0475(2) 0.30184(17) -0.06451(18)
O7 O 0.23530(19) 0.48312(18) 0.05795(17)
C1 C -0.1190(3) 0.4549(3) 0.2080(2)
C2 C -0.1221(3) 0.4479(3) 0.3255(2)
C3 C -0.0014(3) 0.5043(2) 0.4360(2)
C4 C 0.1167(3) 0.5671(3) 0.4192(2)
C5 C 0.1112(3) 0.5688(3) 0.2976(2)
H1 H -0.2023 0.4170 0.1359
H2 H -0.2053 0.4052 0.3308
H3 H 0.1999 0.6082 0.4901
H4 H 0.1925 0.6113 0.2895
H15 H -0.034(4) 0.266(3) -0.008(2)
H16 H -0.030(4) 0.255(2) -0.1317(17)
H17 H 0.296(3) 0.5419(16) 0.060(3)
H18 H 0.257(3) 0.4119(12) 0.017(3)
Zn1_2 Zn 0.0000 0.5000 1.0000
N1A N 0.0041(2) 0.48730(19) 0.80852(18)
N1A_2 N 0.0041(2) 0.48730(19) -0.19148(18)
O6A O 0.0475(2) 0.69816(17) 0.06451(18)
O7A O -0.23530(19) 0.51688(18) -0.05795(17)
C1A C 0.1190(3) 0.5451(3) 0.7920(2)
C2A C 0.1221(3) 0.5521(3) 0.6745(2)
C3A C 0.0014(3) 0.4957(2) 0.5640(2)
C4A C -0.1167(3) 0.4329(3) 0.5808(2)
C5A C -0.1112(3) 0.4312(3) 0.7024(2)
H1A H 0.2023 0.5830 0.8641
H2A H 0.2053 0.5948 0.6692
H3A H -0.1999 0.3918 0.5099
H4A H -0.1925 0.3887 0.7105
H15A H 0.034(4) 0.734(3) 0.008(2)
H16A H 0.030(4) 0.745(2) 0.1317(17)
H17A H -0.296(3) 0.4581(16) -0.060(3)
H18A H -0.257(3) 0.5881(12) -0.017(3)
Zn2 Zn 0.5000 0.0000 0.0000
N2 N 0.4973(2) 0.0076(2) 0.19073(19)
O8 O 0.30601(19) 0.09452(18) -0.02016(17)
O9 O 0.3641(2) -0.18020(17) -0.08314(17)
C6 C 0.6224(3) 0.0430(3) 0.2920(2)
C7 C 0.6282(3) 0.0421(3) 0.4133(2)
C8 C 0.4998(3) 0.0019(2) 0.4356(2)
C9 C 0.3691(3) -0.0341(3) 0.3302(2)
C10 C 0.3730(3) -0.0292(3) 0.2119(2)
H5 H 0.7105 0.0697 0.2798
H6 H 0.7184 0.0685 0.4805
H7 H 0.2795 -0.0614 0.3395
H8 H 0.2839 -0.0529 0.1433
H19 H 0.314(3) 0.1576(17) -0.045(3)
H20 H 0.227(2) 0.045(2) -0.070(2)
H21 H 0.2736(15) -0.171(3) -0.085(3)
H22 H 0.397(3) -0.232(2) -0.045(3)
Zn2_2 Zn 0.5000 0.0000 1.0000
N2A N 0.5027(2) -0.0076(2) 0.80927(19)
N2A_2 N 0.5027(2) -0.0076(2) -0.19073(19)
O8A O 0.69399(19) -0.09452(18) 0.02016(17)
O9A O 0.6359(2) 0.18020(17) 0.08314(17)
C6A C 0.3776(3) -0.0430(3) 0.7080(2)
C7A C 0.3718(3) -0.0421(3) 0.5867(2)
C8A C 0.5002(3) -0.0019(2) 0.5644(2)
C9A C 0.6309(3) 0.0341(3) 0.6698(2)
C10A C 0.6270(3) 0.0292(3) 0.7881(2)
H5A H 0.2895 -0.0697 0.7202
H6A H 0.2816 -0.0685 0.5195
H7A H 0.7205 0.0614 0.6605
H8A H 0.7161 0.0529 0.8567
H19A H 0.686(3) -0.1576(17) 0.045(3)
H20A H 0.773(2) -0.045(2) 0.070(2)
H21A H 0.7264(15) 0.171(3) 0.085(3)
H22A H 0.603(3) 0.232(2) 0.045(3)
O1 O 0.5581(2) 0.34708(18) 0.94939(18)
O2 O 0.31193(19) 0.28059(17) 0.87091(17)
O3 O 0.2996(2) 0.28290(18) 0.63768(18)
O4 O -0.0626(2) 0.16958(18) 0.09313(18)
O5 O -0.0674(2) 0.04630(19) 0.20931(18)
C11 C 0.4331(3) 0.3190(2) 0.8615(2)
C12 C 0.4364(3) 0.3372(3) 0.7365(3)
C13 C 0.2895(3) 0.2807(2) 0.5145(2)
C14 C 0.1592(3) 0.2151(2) 0.4189(3)
C15 C 0.1347(3) 0.2086(2) 0.2917(2)
C16 C 0.2431(3) 0.2679(3) 0.2596(3)
C17 C 0.3753(3) 0.3287(3) 0.3546(3)
C18 C 0.3996(3) 0.3367(3) 0.4821(3)
C19 C -0.0074(3) 0.1361(2) 0.1897(2)
H9 H 0.4520 0.4273 0.7501
H10 H 0.5197 0.2976 0.7105
H11 H 0.0874 0.1748 0.4404
H12 H 0.2266 0.2666 0.1750
H13 H 0.4496 0.3651 0.3324
H14 H 0.4886 0.3790 0.5453
O10 O 0.0068(2) 0.1589(2) -0.2946(2)
H23 H 0.089(2) 0.195(3) -0.292(4)
H24 H 0.021(3) 0.0874(18) -0.284(4)
loop_
_geom_bond_atom_site_label_1
_geom_bond_atom_site_label_2
_geom_bond_site_symmetry_1
_geom_bond_site_symmetry_2
Zn1 N1 1_555 1_555
Zn2 N2 1_555 1_555
N1 C1 1_555 1_555
N2 C6 1_555 1_555
O1 C11 1_555 1_555
O2 C11 1_555 1_555
O3 C12 1_555 1_555
O4 C19 1_555 1_555
O5 C19 1_555 1_555
O6 Zn1 1_555 1_555
O7 Zn1 1_555 1_555
O8 Zn2 1_555 1_555
O9 Zn2 1_555 1_555
O10 H23 1_555 1_555
C1 C2 1_555 1_555
C2 C3 1_555 1_555
C3 C4 1_555 1_555
C4 C5 1_555 1_555
C5 N1 1_555 1_555
C6 C7 1_555 1_555
C7 C8 1_555 1_555
C8 C9 1_555 1_555
C9 C10 1_555 1_555
C10 N2 1_555 1_555
C11 C12 1_555 1_555
C12 H9 1_555 1_555
C13 O3 1_555 1_555
C14 C13 1_555 1_555
C15 C14 1_555 1_555
C16 C15 1_555 1_555
C17 C16 1_555 1_555
C18 C13 1_555 1_555
C19 C15 1_555 1_555
H1 C1 1_555 1_555
H2 C2 1_555 1_555
H3 C4 1_555 1_555
H4 C5 1_555 1_555
H5 C6 1_555 1_555
H6 C7 1_555 1_555
H7 C9 1_555 1_555
H8 C10 1_555 1_555
H10 C12 1_555 1_555
H11 C14 1_555 1_555
H12 C16 1_555 1_555
H13 C17 1_555 1_555
H14 C18 1_555 1_555
H15 O6 1_555 1_555
H16 O6 1_555 1_555
H17 O7 1_555 1_555
H18 O7 1_555 1_555
H19 O8 1_555 1_555
H20 O8 1_555 1_555
H21 O9 1_555 1_555
H22 O9 1_555 1_555
H24 O10 1_555 1_555
Zn1_2 N1A 1_555 1_555
Zn2_2 N2A 1_555 1_555
N1A C1A 1_555 1_555
N1A_2 Zn1 1_555 1_555
N2A C6A 1_555 1_555
N2A_2 Zn2 1_555 1_555
O6A Zn1 1_555 1_555
O7A Zn1 1_555 1_555
O8A Zn2 1_555 1_555
O9A Zn2 1_555 1_555
C1A C2A 1_555 1_555
C2A C3A 1_555 1_555
C3A C3 1_555 1_555
C4A C3A 1_555 1_555
C5A N1A 1_555 1_555
C6A C7A 1_555 1_555
C7A C8A 1_555 1_555
C8A C8 1_555 1_555
C9A C8A 1_555 1_555
C10A N2A 1_555 1_555
H1A C1A 1_555 1_555
H2A C2A 1_555 1_555
H3A C4A 1_555 1_555
H4A C5A 1_555 1_555
H5A C6A 1_555 1_555
H6A C7A 1_555 1_555
H7A C9A 1_555 1_555
H8A C10A 1_555 1_555
H15A O6A 1_555 1_555
H16A O6A 1_555 1_555
H17A O7A 1_555 1_555
H18A O7A 1_555 1_555
H19A O8A 1_555 1_555
H20A O8A 1_555 1_555
H21A O9A 1_555 1_555
H22A O9A 1_555 1_555
C17 C18 1_555 1_555
C4A C5A 1_555 1_555
C9A C10A 1_555 1_555

#END
