
#######################################################################
#
#                 Cambridge Crystallographic Data Centre
#                                CCDC 
#
#######################################################################
#
# If this CIF has been generated from an entry in the Cambridge 
# Structural Database, then it will include bibliographic, chemical, 
# crystal, experimental, refinement or atomic coordinate data resulting 
# from the CCDC's data processing and validation procedures.
#
#######################################################################

data_FAXMOH
_symmetry_cell_setting           triclinic
_symmetry_space_group_name_H-M   'P -1'
_symmetry_Int_Tables_number      2
_space_group_name_Hall           '-P 1'
loop_
_symmetry_equiv_pos_site_id
_symmetry_equiv_pos_as_xyz
1 x,y,z
2 -x,-y,-z
_cell_length_a                   10.281(3)
_cell_length_b                   10.672(4)
_cell_length_c                   12.945(5)
_cell_angle_alpha                79.209(15)
_cell_angle_beta                 67.071(12)
_cell_angle_gamma                63.502(13)
_cell_volume                     1170.52
loop_
_atom_site_label
_atom_site_type_symbol
_atom_site_fract_x
_atom_site_fract_y
_atom_site_fract_z
Cd1 Cd -0.32390(3) 0.76668(3) 0.75429(2)
S1 S -0.29265(14) 0.94492(13) 0.85601(10)
S2 S -0.34025(14) 0.98679(12) 0.60898(9)
S3 S -0.24053(12) 0.53529(11) 0.88438(8)
S4 S -0.02043(11) 0.62135(11) 0.64215(8)
P1 P -0.31301(14) 1.06483(12) 0.72119(10)
P2 P -0.02926(11) 0.49125(10) 0.77164(8)
O1 O -0.1828(6) 1.1194(6) 0.6664(4)
O2 O -0.4620(6) 1.2109(4) 0.7519(4)
O3 O 0.0889(4) 0.4764(4) 0.8287(3)
O4 O 0.0390(4) 0.3341(3) 0.7372(3)
N1 N -0.3961(4) 0.6609(3) 0.6521(3)
N2 N -0.5933(3) 0.8577(3) 0.8621(3)
C1 C -0.5085(6) 0.7346(5) 0.6101(5)
H1 H -0.5599 0.8308 0.6214
C2 C -0.5525(6) 0.6762(5) 0.5510(5)
H2 H -0.6322 0.7325 0.5237
C3 C -0.4786(4) 0.5337(4) 0.5320(3)
C4 C -0.3604(5) 0.4585(4) 0.5742(4)
H3 H -0.3053 0.3626 0.5630
C5 C -0.3240(5) 0.5257(4) 0.6328(4)
H4 H -0.2437 0.4724 0.6603
C6 C -0.6819(5) 0.9929(5) 0.8543(4)
H5 H -0.6342 1.0509 0.8108
C7 C -0.8391(4) 1.0514(4) 0.9068(4)
H6 H -0.8953 1.1469 0.8988
C8 C -0.9143(4) 0.9696(4) 0.9714(3)
C9 C -0.8223(4) 0.8313(4) 0.9835(4)
H7 H -0.8665 0.7723 1.0300
C10 C -0.6646(4) 0.7796(4) 0.9269(4)
H8 H -0.6054 0.6848 0.9348
C11 C -0.0297(10) 1.0298(13) 0.6516(9)
H9 H 0.0346 1.0800 0.6164
H10 H 0.0024 0.9537 0.6049
H11 H -0.0201 0.9935 0.7232
C12 C -0.5110(10) 1.2852(7) 0.8458(6)
H12 H -0.6027 1.3688 0.8481
H13 H -0.4308 1.3101 0.8432
H14 H -0.5338 1.2288 0.9116
C13 C 0.0802(9) 0.6009(8) 0.8645(6)
H15 H 0.1578 0.5755 0.8975
H16 H -0.0206 0.6483 0.9187
H17 H 0.0978 0.6619 0.8009
C14 C 0.1816(7) 0.2764(6) 0.6445(5)
H18 H 0.2061 0.1802 0.6355
H19 H 0.2636 0.2820 0.6589
H20 H 0.1702 0.3285 0.5772
Cd1A Cd -0.67610(3) 0.23332(3) 0.24571(2)
Cd1A_2 Cd -1.67610(3) 1.23332(3) 1.24571(2)
S1A S -0.70735(14) 0.05508(13) 0.14399(10)
S2A S -0.65975(14) 0.01321(12) 0.39102(9)
S3A S -0.75947(12) 0.46471(11) 0.11562(8)
S4A S -0.97957(11) 0.37865(11) 0.35785(8)
P1A P -0.68699(14) -0.06483(12) 0.27881(10)
P2A P -0.97074(11) 0.50875(10) 0.22836(8)
O1A O -0.8172(6) -0.1194(6) 0.3336(4)
O2A O -0.5380(6) -0.2109(4) 0.2481(4)
O3A O -1.0889(4) 0.5236(4) 0.1713(3)
O4A O -1.0390(4) 0.6659(3) 0.2628(3)
N1A N -0.6039(4) 0.3391(3) 0.3479(3)
N2A N -1.4067(3) 1.1423(3) 1.1379(3)
N2A_2 N -0.4067(3) 0.1423(3) 0.1379(3)
C1A C -0.4915(6) 0.2654(5) 0.3899(5)
H1A H -0.4401 0.1692 0.3786
C2A C -0.4475(6) 0.3238(5) 0.4490(5)
H2A H -0.3678 0.2675 0.4763
C3A C -0.5214(4) 0.4663(4) 0.4680(3)
C4A C -0.6396(5) 0.5415(4) 0.4258(4)
H3A H -0.6947 0.6374 0.4370
C5A C -0.6760(5) 0.4743(4) 0.3672(4)
H4A H -0.7563 0.5276 0.3397
C6A C -1.3181(5) 1.0071(5) 1.1457(4)
H5A H -1.3658 0.9491 1.1892
C7A C -1.1609(4) 0.9486(4) 1.0932(4)
H6A H -1.1047 0.8531 1.1012
C8A C -1.0857(4) 1.0304(4) 1.0286(3)
C9A C -1.1777(4) 1.1687(4) 1.0165(4)
H7A H -1.1335 1.2277 0.9700
C10A C -1.3354(4) 1.2204(4) 1.0731(4)
H8A H -1.3946 1.3152 1.0652
C11A C -0.9703(10) -0.0298(13) 0.3484(9)
H9A H -1.0346 -0.0800 0.3836
H10A H -1.0024 0.0463 0.3951
H11A H -0.9799 0.0065 0.2768
C12A C -0.4890(10) -0.2852(7) 0.1542(6)
H12A H -0.3973 -0.3688 0.1519
H13A H -0.5692 -0.3101 0.1568
H14A H -0.4662 -0.2288 0.0884
C13A C -1.0802(9) 0.3991(8) 0.1355(6)
H15A H -1.1578 0.4245 0.1025
H16A H -0.9794 0.3517 0.0813
H17A H -1.0978 0.3381 0.1991
C14A C -1.1816(7) 0.7236(6) 0.3555(5)
H18A H -1.2061 0.8198 0.3645
H19A H -1.2636 0.7180 0.3411
H20A H -1.1702 0.6715 0.4228
loop_
_geom_bond_atom_site_label_1
_geom_bond_atom_site_label_2
_geom_bond_site_symmetry_1
_geom_bond_site_symmetry_2
Cd1 S1 1_555 1_555
S1 P1 1_555 1_555
S2 Cd1 1_555 1_555
S3 Cd1 1_555 1_555
S4 Cd1 1_555 1_555
P1 S2 1_555 1_555
P2 S3 1_555 1_555
O1 P1 1_555 1_555
O2 P1 1_555 1_555
O3 P2 1_555 1_555
O4 P2 1_555 1_555
N1 Cd1 1_555 1_555
N2 Cd1 1_555 1_555
C1 N1 1_555 1_555
H1 C1 1_555 1_555
C2 C1 1_555 1_555
H2 C2 1_555 1_555
C3 C2 1_555 1_555
C4 C3 1_555 1_555
H3 C4 1_555 1_555
C5 N1 1_555 1_555
H4 C5 1_555 1_555
C6 N2 1_555 1_555
H5 C6 1_555 1_555
C7 C6 1_555 1_555
H6 C7 1_555 1_555
C8 C7 1_555 1_555
C9 C8 1_555 1_555
H7 C9 1_555 1_555
C10 N2 1_555 1_555
H8 C10 1_555 1_555
C11 O1 1_555 1_555
H9 C11 1_555 1_555
H10 C11 1_555 1_555
H11 C11 1_555 1_555
C12 O2 1_555 1_555
H12 C12 1_555 1_555
H13 C12 1_555 1_555
H14 C12 1_555 1_555
C13 O3 1_555 1_555
H15 C13 1_555 1_555
H16 C13 1_555 1_555
H17 C13 1_555 1_555
C14 O4 1_555 1_555
H18 C14 1_555 1_555
H19 C14 1_555 1_555
H20 C14 1_555 1_555
Cd1A S1A 1_555 1_555
Cd1A_2 N2A 1_555 1_555
S1A P1A 1_555 1_555
S2A Cd1A 1_555 1_555
S3A Cd1A 1_555 1_555
S4A Cd1A 1_555 1_555
P1A S2A 1_555 1_555
P2A S3A 1_555 1_555
O1A P1A 1_555 1_555
O2A P1A 1_555 1_555
O3A P2A 1_555 1_555
O4A P2A 1_555 1_555
N1A Cd1A 1_555 1_555
N2A C6A 1_555 1_555
N2A_2 Cd1A 1_555 1_555
C1A N1A 1_555 1_555
H1A C1A 1_555 1_555
C2A C1A 1_555 1_555
H2A C2A 1_555 1_555
C3A C3 1_555 1_555
C4A C3A 1_555 1_555
H3A C4A 1_555 1_555
C5A N1A 1_555 1_555
H4A C5A 1_555 1_555
C6A H5A 1_555 1_555
C7A C6A 1_555 1_555
H6A C7A 1_555 1_555
C8A C8 1_555 1_555
C9A C8A 1_555 1_555
H7A C9A 1_555 1_555
C10A N2A 1_555 1_555
H8A C10A 1_555 1_555
C11A O1A 1_555 1_555
H9A C11A 1_555 1_555
H10A C11A 1_555 1_555
H11A C11A 1_555 1_555
C12A O2A 1_555 1_555
H12A C12A 1_555 1_555
H13A C12A 1_555 1_555
H14A C12A 1_555 1_555
C13A O3A 1_555 1_555
H15A C13A 1_555 1_555
H16A C13A 1_555 1_555
H17A C13A 1_555 1_555
C14A O4A 1_555 1_555
H18A C14A 1_555 1_555
H19A C14A 1_555 1_555
H20A C14A 1_555 1_555
S4 P2 1_555 1_555
C4 C5 1_555 1_555
C9 C10 1_555 1_555
S4A P2A 1_555 1_555
C2A C3A 1_555 1_555
C4A C5A 1_555 1_555
C7A C8A 1_555 1_555
C9A C10A 1_555 1_555

#END
