
#######################################################################
#
#                 Cambridge Crystallographic Data Centre
#                                CCDC 
#
#######################################################################
#
# If this CIF has been generated from an entry in the Cambridge 
# Structural Database, then it will include bibliographic, chemical, 
# crystal, experimental, refinement or atomic coordinate data resulting 
# from the CCDC's data processing and validation procedures.
#
#######################################################################

data_FAXNEY
_symmetry_cell_setting           triclinic
_symmetry_space_group_name_H-M   'P -1'
_symmetry_Int_Tables_number      2
_space_group_name_Hall           '-P 1'
loop_
_symmetry_equiv_pos_site_id
_symmetry_equiv_pos_as_xyz
1 x,y,z
2 -x,-y,-z
_cell_length_a                   8.0952(5)
_cell_length_b                   13.9570(8)
_cell_length_c                   14.1416(8)
_cell_angle_alpha                93.9250(10)
_cell_angle_beta                 91.4880(10)
_cell_angle_gamma                103.7770(10)
_cell_volume                     1546.7
loop_
_atom_site_label
_atom_site_type_symbol
_atom_site_fract_x
_atom_site_fract_y
_atom_site_fract_z
Cu1 Cu 0.22179(3) 0.132123(19) 0.331863(18)
O1 O 0.3647(2) 0.25793(12) 0.37261(12)
O2 O 0.1476(3) 0.27967(15) 0.45626(17)
O3 O 0.4304(2) 0.09956(11) 0.23849(10)
O4 O 0.3489(2) -0.06372(11) 0.23495(11)
N1 N 0.1101(3) 0.16966(14) 0.21283(14)
N2 N 0.0531(2) 0.01088(13) 0.29813(12)
N3 N 0.2513(2) 0.05599(14) 0.44482(13)
C1 C 0.2936(3) 0.30856(17) 0.43008(16)
C2 C 0.4012(3) 0.40809(16) 0.46680(15)
C3 C 0.5752(3) 0.43206(17) 0.45393(17)
H3 H 0.6259 0.3861 0.4232
C4 C 0.3272(3) 0.47626(17) 0.51341(18)
H4 H 0.2108 0.4602 0.5228
C5 C 0.4080(3) 0.01388(15) 0.19648(14)
C6 C 0.4550(3) 0.00686(15) 0.09451(14)
C7 C 0.4823(3) 0.08976(15) 0.04183(14)
H5 H 0.4701 0.1499 0.0697
C8 C 0.4725(3) -0.08297(15) 0.05152(14)
H6 H 0.4536 -0.1387 0.0859
C9 C 0.1513(3) 0.25602(18) 0.17377(19)
H7 H 0.2306 0.3084 0.2056
C10 C 0.0800(4) 0.2701(2) 0.0876(2)
H8 H 0.1116 0.3310 0.0616
C11 C -0.0380(4) 0.1934(2) 0.0406(2)
H9 H -0.0880 0.2017 -0.0172
C12 C -0.0815(3) 0.10341(19) 0.08046(18)
H10 H -0.1604 0.0503 0.0495
C13 C -0.0065(3) 0.09362(16) 0.16653(16)
C14 C -0.0410(3) 0.00151(16) 0.21704(15)
C15 C -0.1538(3) -0.08669(16) 0.18814(16)
H11 H -0.2183 -0.0925 0.1317
C16 C -0.1719(3) -0.16816(16) 0.24367(15)
C17 C -0.0703(3) -0.15511(16) 0.32800(15)
H12 H -0.0781 -0.2071 0.3667
C18 C 0.0408(3) -0.06496(16) 0.35295(15)
C19 C 0.1568(3) -0.03879(17) 0.43834(15)
C20 C 0.1690(3) -0.1028(2) 0.50697(17)
H13 H 0.1040 -0.1677 0.5014
C21 C 0.2815(3) -0.0673(2) 0.58490(18)
H14 H 0.2920 -0.1087 0.6323
C22 C 0.3761(3) 0.0280(2) 0.59152(17)
H15 H 0.4516 0.0521 0.6431
C23 C 0.3580(3) 0.08801(19) 0.52058(17)
H16 H 0.4221 0.1531 0.5254
C24 C -0.2935(3) -0.26311(16) 0.21396(16)
C25 C -0.3490(3) -0.28739(18) 0.11902(18)
H17 H -0.3078 -0.2435 0.0737
C26 C -0.4636(4) -0.3752(2) 0.0917(2)
H18 H -0.4987 -0.3902 0.0282
C27 C -0.5269(4) -0.4412(2) 0.1576(2)
H19 H -0.6042 -0.5006 0.1387
C28 C -0.4747(4) -0.4185(2) 0.2517(2)
H20 H -0.5173 -0.4628 0.2965
C29 C -0.3596(3) -0.33044(19) 0.27981(19)
H21 H -0.3258 -0.3158 0.3436
Cu1A Cu 0.77821(3) 0.867877(19) 0.668137(18)
Cu1A_2 Cu 0.77821(3) -0.132123(19) -0.331863(18)
O1A O 0.6353(2) 0.74207(12) 0.62739(12)
O2A O 0.8524(3) 0.72033(15) 0.54374(17)
O3A O 0.5696(2) -0.09956(11) -0.23849(10)
O3A_2 O 0.5696(2) 0.90044(11) 0.76151(10)
O4A O 0.6511(2) 0.06372(11) -0.23495(11)
N1A N 0.8899(3) 0.83034(14) 0.78717(14)
N2A N 0.9469(2) 0.98912(13) 0.70187(12)
N3A N 0.7487(2) 0.94401(14) 0.55518(13)
C1A C 0.7064(3) 0.69144(17) 0.56992(16)
C2A C 0.5988(3) 0.59191(16) 0.53320(15)
C3A C 0.4248(3) 0.56794(17) 0.54607(17)
H3A H 0.3741 0.6139 0.5768
C4A C 0.6728(3) 0.52374(17) 0.48659(18)
H4A H 0.7892 0.5398 0.4772
C5A C 0.5920(3) -0.01388(15) -0.19648(14)
C6A C 0.5450(3) -0.00686(15) -0.09451(14)
C7A C 0.5177(3) -0.08976(15) -0.04183(14)
H5A H 0.5299 -0.1499 -0.0697
C8A C 0.5275(3) 0.08297(15) -0.05152(14)
H6A H 0.5464 0.1387 -0.0859
C9A C 0.8487(3) 0.74398(18) 0.82623(19)
H7A H 0.7694 0.6916 0.7944
C10A C 0.9200(4) 0.7299(2) 0.9124(2)
H8A H 0.8884 0.6690 0.9384
C11A C 1.0380(4) 0.8066(2) 0.9594(2)
H9A H 1.0880 0.7983 1.0172
C12A C 1.0815(3) 0.89659(19) 0.91954(18)
H10A H 1.1604 0.9497 0.9505
C13A C 1.0065(3) 0.90638(16) 0.83347(16)
C14A C 1.0410(3) 0.99849(16) 0.78296(15)
C15A C 1.1538(3) 1.08669(16) 0.81186(16)
H11A H 1.2183 1.0925 0.8683
C16A C 1.1719(3) 1.16816(16) 0.75633(15)
C17A C 1.0703(3) 1.15511(16) 0.67200(15)
H12A H 1.0781 1.2071 0.6333
C18A C 0.9592(3) 1.06496(16) 0.64705(15)
C19A C 0.8432(3) 1.03879(17) 0.56166(15)
C20A C 0.8310(3) 1.1028(2) 0.49303(17)
H13A H 0.8960 1.1677 0.4986
C21A C 0.7185(3) 1.0673(2) 0.41510(18)
H14A H 0.7080 1.1087 0.3677
C22A C 0.6239(3) 0.9720(2) 0.40848(17)
H15A H 0.5484 0.9479 0.3569
C23A C 0.6420(3) 0.91199(19) 0.47942(17)
H16A H 0.5779 0.8469 0.4746
C24A C 1.2935(3) 1.26311(16) 0.78604(16)
C25A C 1.3490(3) 1.28739(18) 0.88098(18)
H17A H 1.3078 1.2435 0.9263
C26A C 1.4636(4) 1.3752(2) 0.9083(2)
H18A H 1.4987 1.3902 0.9718
C27A C 1.5269(4) 1.4412(2) 0.8424(2)
H19A H 1.6042 1.5006 0.8613
C28A C 1.4747(4) 1.4185(2) 0.7483(2)
H20A H 1.5173 1.4628 0.7035
C29A C 1.3596(3) 1.33044(19) 0.72019(19)
H21A H 1.3258 1.3158 0.6564
O5 O 0.2041(3) -0.24825(13) 0.18840(14)
H1 H 0.254(5) -0.1890(12) 0.206(3)
O6 O 0.2555(3) -0.27656(15) 0.33843(15)
O7 O -0.3031(3) -0.74479(14) 0.24618(14)
H2 H -0.386(3) -0.7946(18) 0.242(3)
O8 O -0.4262(3) -0.68005(14) 0.13282(16)
C30 C 0.1891(3) -0.30418(18) 0.26161(19)
C31 C 0.0712(3) -0.40404(17) 0.23867(18)
C32 C -0.0239(4) -0.42740(18) 0.1541(2)
H22 H -0.0066 -0.3830 0.1072
C33 C -0.1438(4) -0.51556(19) 0.1387(2)
H23 H -0.2089 -0.5296 0.0820
C34 C -0.1685(3) -0.58383(17) 0.20703(18)
C35 C -0.0665(3) -0.56292(19) 0.2900(2)
H24 H -0.0770 -0.6096 0.3348
C36 C 0.0502(4) -0.47307(19) 0.3060(2)
H25 H 0.1155 -0.4587 0.3626
C37 C -0.3120(3) -0.67397(18) 0.19068(19)
loop_
_geom_bond_atom_site_label_1
_geom_bond_atom_site_label_2
_geom_bond_site_symmetry_1
_geom_bond_site_symmetry_2
Cu1 O1 1_555 1_555
O1 C1 1_555 1_555
O2 C1 1_555 1_555
O3 Cu1 1_555 1_555
O4 C5 1_555 1_555
O5 H1 1_555 1_555
O6 C30 1_555 1_555
O7 H2 1_555 1_555
O8 C37 1_555 1_555
N1 Cu1 1_555 1_555
N2 Cu1 1_555 1_555
N3 Cu1 1_555 1_555
C1 C2 1_555 1_555
C2 C3 1_555 1_555
C3 H3 1_555 1_555
C4 C2 1_555 1_555
H4 C4 1_555 1_555
C5 O3 1_555 1_555
C6 C5 1_555 1_555
C7 C6 1_555 1_555
H5 C7 1_555 1_555
C8 C6 1_555 1_555
H6 C8 1_555 1_555
C9 N1 1_555 1_555
H7 C9 1_555 1_555
C10 C9 1_555 1_555
H8 C10 1_555 1_555
C11 C10 1_555 1_555
H9 C11 1_555 1_555
C12 C11 1_555 1_555
H10 C12 1_555 1_555
C13 N1 1_555 1_555
C14 N2 1_555 1_555
C15 C14 1_555 1_555
H11 C15 1_555 1_555
C16 C15 1_555 1_555
C17 C16 1_555 1_555
H12 C17 1_555 1_555
C18 N2 1_555 1_555
C19 N3 1_555 1_555
C20 C19 1_555 1_555
H13 C20 1_555 1_555
C21 C20 1_555 1_555
H14 C21 1_555 1_555
C22 C21 1_555 1_555
H15 C22 1_555 1_555
C23 N3 1_555 1_555
H16 C23 1_555 1_555
C24 C16 1_555 1_555
C25 C24 1_555 1_555
H17 C25 1_555 1_555
C26 C25 1_555 1_555
H18 C26 1_555 1_555
C27 C26 1_555 1_555
H19 C27 1_555 1_555
C28 C27 1_555 1_555
H20 C28 1_555 1_555
C29 C24 1_555 1_555
H21 C29 1_555 1_555
C30 O5 1_555 1_555
C31 C30 1_555 1_555
C32 C31 1_555 1_555
H22 C32 1_555 1_555
C33 C32 1_555 1_555
H23 C33 1_555 1_555
C34 C33 1_555 1_555
C35 C34 1_555 1_555
H24 C35 1_555 1_555
C36 C31 1_555 1_555
H25 C36 1_555 1_555
C37 O7 1_555 1_555
Cu1A O1A 1_555 1_555
Cu1A_2 O3A 1_555 1_555
O1A C1A 1_555 1_555
O2A C1A 1_555 1_555
O3A C5A 1_555 1_555
O3A_2 Cu1A 1_555 1_555
O4A C5A 1_555 1_555
N1A Cu1A 1_555 1_555
N2A Cu1A 1_555 1_555
N3A Cu1A 1_555 1_555
C1A C2A 1_555 1_555
C2A C3A 1_555 1_555
C3A C4 1_555 1_555
H3A C3A 1_555 1_555
C4A C3 1_555 1_555
H4A C4A 1_555 1_555
C5A C6A 1_555 1_555
C6A C7A 1_555 1_555
C7A C8 1_555 1_555
H5A C7A 1_555 1_555
C8A C7 1_555 1_555
H6A C8A 1_555 1_555
C9A N1A 1_555 1_555
H7A C9A 1_555 1_555
C10A C9A 1_555 1_555
H8A C10A 1_555 1_555
C11A C10A 1_555 1_555
H9A C11A 1_555 1_555
C12A C11A 1_555 1_555
H10A C12A 1_555 1_555
C13A N1A 1_555 1_555
C14A N2A 1_555 1_555
C15A C14A 1_555 1_555
H11A C15A 1_555 1_555
C16A C15A 1_555 1_555
C17A C16A 1_555 1_555
H12A C17A 1_555 1_555
C18A N2A 1_555 1_555
C19A N3A 1_555 1_555
C20A C19A 1_555 1_555
H13A C20A 1_555 1_555
C21A C20A 1_555 1_555
H14A C21A 1_555 1_555
C22A C21A 1_555 1_555
H15A C22A 1_555 1_555
C23A N3A 1_555 1_555
H16A C23A 1_555 1_555
C24A C16A 1_555 1_555
C25A C24A 1_555 1_555
H17A C25A 1_555 1_555
C26A C25A 1_555 1_555
H18A C26A 1_555 1_555
C27A C26A 1_555 1_555
H19A C27A 1_555 1_555
C28A C27A 1_555 1_555
H20A C28A 1_555 1_555
C29A C24A 1_555 1_555
H21A C29A 1_555 1_555
C12 C13 1_555 1_555
C13 C14 1_555 1_555
C17 C18 1_555 1_555
C18 C19 1_555 1_555
C22 C23 1_555 1_555
C28 C29 1_555 1_555
C34 C37 1_555 1_555
C35 C36 1_555 1_555
C2A C4A 1_555 1_555
C6A C8A 1_555 1_555
C12A C13A 1_555 1_555
C13A C14A 1_555 1_555
C17A C18A 1_555 1_555
C18A C19A 1_555 1_555
C22A C23A 1_555 1_555
C28A C29A 1_555 1_555

#END
