
#######################################################################
#
#                 Cambridge Crystallographic Data Centre
#                                CCDC 
#
#######################################################################
#
# If this CIF has been generated from an entry in the Cambridge 
# Structural Database, then it will include bibliographic, chemical, 
# crystal, experimental, refinement or atomic coordinate data resulting 
# from the CCDC's data processing and validation procedures.
#
#######################################################################

data_FAXQAX
_symmetry_cell_setting           triclinic
_symmetry_space_group_name_H-M   'P -1'
_symmetry_Int_Tables_number      2
_space_group_name_Hall           '-P 1'
loop_
_symmetry_equiv_pos_site_id
_symmetry_equiv_pos_as_xyz
1 x,y,z
2 -x,-y,-z
_cell_length_a                   7.683(4)
_cell_length_b                   11.341(8)
_cell_length_c                   11.344(5)
_cell_angle_alpha                82.12(2)
_cell_angle_beta                 71.01(2)
_cell_angle_gamma                79.56(3)
_cell_volume                     915.917
loop_
_atom_site_label
_atom_site_type_symbol
_atom_site_fract_x
_atom_site_fract_y
_atom_site_fract_z
Cd1 Cd 0.5000 0.5000 0.5000
Cd2 Cd 0.82745(3) 0.73114(2) 0.71104(2)
O1 O 0.6302(3) 0.4291(2) 0.6617(2)
O2 O 0.6246(3) 0.6079(2) 0.7234(2)
O3 O 1.0384(3) 0.5773(2) 0.6139(2)
O4 O 1.2512(3) 0.4193(2) 0.6261(2)
O5 O 1.2060(3) 0.2927(2) 1.0722(2)
O6 O 0.9342(3) 0.2607(2) 1.2042(2)
O7 O 0.3916(3) 0.6806(2) 0.5939(2)
N1 N 0.8826(4) 0.8370(2) 0.5175(3)
N2 N 0.6263(4) 0.9130(3) 0.7299(3)
C1 C 1.0048(5) 0.7931(3) 0.4140(3)
C2 C 1.0384(6) 0.8579(4) 0.2986(4)
C3 C 0.9421(6) 0.9716(4) 0.2901(4)
C4 C 0.8144(6) 1.0173(3) 0.3968(4)
C5 C 0.7854(5) 0.9476(3) 0.5099(3)
C6 C 0.6505(5) 0.9910(3) 0.6280(3)
C7 C 0.5547(6) 1.1079(3) 0.6344(4)
C8 C 0.4354(7) 1.1437(4) 0.7464(5)
C9 C 0.4089(7) 1.0629(4) 0.8513(4)
C10 C 0.5070(6) 0.9486(4) 0.8387(4)
C11 C 0.7764(4) 0.4352(3) 0.8144(3)
C12 C 0.9688(4) 0.4311(2) 0.7883(3)
C13 C 1.0500(4) 0.3806(3) 0.8803(3)
C14 C 0.9441(4) 0.3348(3) 0.9960(3)
C15 C 0.7553(5) 0.3350(3) 1.0190(3)
C16 C 0.6737(4) 0.3840(3) 0.9286(3)
C17 C 0.6720(4) 0.4944(3) 0.7234(3)
C18 C 1.0935(4) 0.4801(3) 0.6665(3)
C19 C 1.0351(5) 0.2923(3) 1.0961(3)
H1 H 0.473(8) 0.670(7) 0.632(6)
H2 H 0.293(5) 0.689(6) 0.655(4)
H3 H 1.0697 0.7160 0.4199
H4 H 1.1245 0.8251 0.2280
H5 H 0.9626 1.0173 0.2136
H6 H 0.7485 1.0943 0.3927
H7 H 0.5718 1.1611 0.5629
H8 H 0.3725 1.2220 0.7519
H9 H 0.3272 1.0851 0.9282
H10 H 0.4896 0.8936 0.9088
H11 H 1.1773 0.3775 0.8640
H12 H 0.6842 0.3021 1.0953
H13 H 0.5475 0.3828 0.9441
Cd1_2 Cd 1.5000 0.5000 0.5000
Cd1_3 Cd -0.5000 0.5000 0.5000
Cd2A Cd 0.17255(3) 0.26886(2) 0.28896(2)
Cd2A_2 Cd 1.17255(3) 0.26886(2) 1.28896(2)
Cd2_2 Cd -0.17255(3) 0.73114(2) -0.28896(2)
O1A O 0.3698(3) 0.5709(2) 0.3383(2)
O2A O 0.3754(3) 0.3921(2) 0.2766(2)
O3A O -0.0384(3) 0.4227(2) 0.3861(2)
O4A O -0.2512(3) 0.5807(2) 0.3739(2)
O4_2 O 0.2512(3) 0.4193(2) 0.6261(2)
O4A_2 O 0.7488(3) 0.5807(2) 0.3739(2)
O5A O -0.2060(3) 0.7073(2) -0.0722(2)
O5A_2 O 0.7940(3) 0.7073(2) 0.9278(2)
O5_2 O 0.2060(3) 0.2927(2) 0.0722(2)
O6A O 0.0658(3) 0.7393(2) -0.2042(2)
O6A_2 O 1.0658(3) 0.7393(2) 0.7958(2)
O6_2 O -0.0658(3) 0.2607(2) 0.2042(2)
O7A O 0.6084(3) 0.3194(2) 0.4061(2)
N1A N 0.1174(4) 0.1630(2) 0.4825(3)
N2A N 0.3737(4) 0.0870(3) 0.2701(3)
C1A C -0.0048(5) 0.2069(3) 0.5860(3)
C2A C -0.0384(6) 0.1421(4) 0.7014(4)
C3A C 0.0579(6) 0.0284(4) 0.7099(4)
C4A C 0.1856(6) -0.0173(3) 0.6032(4)
C5A C 0.2146(5) 0.0524(3) 0.4901(3)
C6A C 0.3495(5) 0.0090(3) 0.3720(3)
C7A C 0.4453(6) -0.1079(3) 0.3656(4)
C8A C 0.5646(7) -0.1437(4) 0.2536(5)
C9A C 0.5911(7) -0.0629(4) 0.1487(4)
C10A C 0.4930(6) 0.0514(4) 0.1613(4)
C11A C 0.2236(4) 0.5648(3) 0.1856(3)
C12A C 0.0312(4) 0.5689(2) 0.2117(3)
C13A C -0.0500(4) 0.6194(3) 0.1197(3)
C14A C 0.0559(4) 0.6652(3) 0.0040(3)
C15A C 0.2447(5) 0.6650(3) -0.0190(3)
C16A C 0.3263(4) 0.6160(3) 0.0714(3)
C17A C 0.3280(4) 0.5056(3) 0.2766(3)
C18A C -0.0935(4) 0.5199(3) 0.3335(3)
C19A C -0.0351(5) 0.7077(3) -0.0961(3)
H1A H 0.527(8) 0.330(7) 0.368(6)
H2A H 0.707(5) 0.311(6) 0.345(4)
H3A H -0.0697 0.2840 0.5801
H4A H -0.1245 0.1749 0.7720
H5A H 0.0374 -0.0173 0.7864
H6A H 0.2515 -0.0943 0.6073
H7A H 0.4282 -0.1611 0.4371
H8A H 0.6275 -0.2220 0.2481
H9A H 0.6728 -0.0851 0.0718
H10A H 0.5104 0.1064 0.0912
H11A H -0.1773 0.6225 0.1360
H12A H 0.3158 0.6979 -0.0953
H13A H 0.4525 0.6172 0.0559
loop_
_geom_bond_atom_site_label_1
_geom_bond_atom_site_label_2
_geom_bond_site_symmetry_1
_geom_bond_site_symmetry_2
Cd1 O1 1_555 1_555
Cd2 O2 1_555 1_555
O1 C17 1_555 1_555
O2 C17 1_555 1_555
O3 Cd2 1_555 1_555
O4 C18 1_555 1_555
O5 C19 1_555 1_555
O6 C19 1_555 1_555
O7 Cd1 1_555 1_555
N1 Cd2 1_555 1_555
N2 Cd2 1_555 1_555
C1 N1 1_555 1_555
C2 C1 1_555 1_555
C3 C2 1_555 1_555
C4 C3 1_555 1_555
C5 N1 1_555 1_555
C6 N2 1_555 1_555
C7 C6 1_555 1_555
C8 C7 1_555 1_555
C9 C8 1_555 1_555
C10 N2 1_555 1_555
C11 C12 1_555 1_555
C12 C13 1_555 1_555
C13 C14 1_555 1_555
C14 C15 1_555 1_555
C15 C16 1_555 1_555
C16 C11 1_555 1_555
C17 C11 1_555 1_555
C18 O3 1_555 1_555
C19 C14 1_555 1_555
H1 O7 1_555 1_555
H2 O7 1_555 1_555
H3 C1 1_555 1_555
H4 C2 1_555 1_555
H5 C3 1_555 1_555
H6 C4 1_555 1_555
H7 C7 1_555 1_555
H8 C8 1_555 1_555
H9 C9 1_555 1_555
H10 C10 1_555 1_555
H11 C13 1_555 1_555
H12 C15 1_555 1_555
H13 C16 1_555 1_555
Cd1_2 O4 1_555 1_555
Cd1_3 O4A 1_555 1_555
Cd2A O2A 1_555 1_555
Cd2A_2 O5 1_555 1_555
Cd2_2 O5A 1_555 1_555
O1A Cd1 1_555 1_555
O2A C17A 1_555 1_555
O3A Cd2A 1_555 1_555
O4A C18A 1_555 1_555
O4_2 Cd1 1_555 1_555
O4A_2 Cd1 1_555 1_555
O5A C19A 1_555 1_555
O5A_2 Cd2 1_555 1_555
O5_2 Cd2A 1_555 1_555
O6A Cd2_2 1_555 1_555
O6A_2 Cd2 1_555 1_555
O6_2 Cd2A 1_555 1_555
O7A Cd1 1_555 1_555
N1A Cd2A 1_555 1_555
N2A Cd2A 1_555 1_555
C1A N1A 1_555 1_555
C2A C1A 1_555 1_555
C3A C2A 1_555 1_555
C4A C3A 1_555 1_555
C5A N1A 1_555 1_555
C6A N2A 1_555 1_555
C7A C6A 1_555 1_555
C8A C7A 1_555 1_555
C9A C8A 1_555 1_555
C10A N2A 1_555 1_555
C11A C12A 1_555 1_555
C12A C13A 1_555 1_555
C13A C14A 1_555 1_555
C14A C15A 1_555 1_555
C15A C16A 1_555 1_555
C16A C11A 1_555 1_555
C17A O1A 1_555 1_555
C18A O3A 1_555 1_555
C19A O6A 1_555 1_555
H1A O7A 1_555 1_555
H2A O7A 1_555 1_555
H3A C1A 1_555 1_555
H4A C2A 1_555 1_555
H5A C3A 1_555 1_555
H6A C4A 1_555 1_555
H7A C7A 1_555 1_555
H8A C8A 1_555 1_555
H9A C9A 1_555 1_555
H10A C10A 1_555 1_555
H11A C13A 1_555 1_555
H12A C15A 1_555 1_555
H13A C16A 1_555 1_555
O6 Cd2A_2 1_555 1_555
C4 C5 1_555 1_555
C5 C6 1_555 1_555
C9 C10 1_555 1_555
C12 C18 1_555 1_555
C4A C5A 1_555 1_555
C5A C6A 1_555 1_555
C9A C10A 1_555 1_555
C11A C17A 1_555 1_555
C12A C18A 1_555 1_555
C14A C19A 1_555 1_555

#END
