
#######################################################################
#
#                 Cambridge Crystallographic Data Centre
#                                CCDC 
#
#######################################################################
#
# If this CIF has been generated from an entry in the Cambridge 
# Structural Database, then it will include bibliographic, chemical, 
# crystal, experimental, refinement or atomic coordinate data resulting 
# from the CCDC's data processing and validation procedures.
#
#######################################################################

data_FAXQIF
_symmetry_cell_setting           monoclinic
_symmetry_space_group_name_H-M   'P 21'
_symmetry_Int_Tables_number      4
_space_group_name_Hall           'P 2yb'
loop_
_symmetry_equiv_pos_site_id
_symmetry_equiv_pos_as_xyz
1 x,y,z
2 -x,1/2+y,-z
_cell_length_a                   12.727(3)
_cell_length_b                   7.2310(10)
_cell_length_c                   14.947(3)
_cell_angle_alpha                90
_cell_angle_beta                 108.79(3)
_cell_angle_gamma                90
_cell_volume                     1302.25
loop_
_atom_site_label
_atom_site_type_symbol
_atom_site_fract_x
_atom_site_fract_y
_atom_site_fract_z
Sr1 Sr 0.46685(3) -0.49999(8) 0.44892(2)
O1 O 0.3767(2) -0.8192(4) 0.4319(3)
O2 O 0.2353(2) -1.0081(7) 0.4112(3)
O3 O 0.2589(2) -0.5352(4) 0.3610(3)
H1 H 0.2228 -0.4378 0.3383
O4 O 0.5035(4) -0.1780(4) 0.3958(2)
O5 O 0.5959(3) 0.0101(7) 0.3329(2)
O6 O 0.5286(3) -0.4620(4) 0.3002(2)
H2 H 0.5369 -0.5596 0.2715
O7 O 0.3803(2) -0.2465(5) 0.5257(2)
H3 H 0.3178 -0.2093 0.4888
H4 H 0.3727 -0.2826 0.5777
C1 C 0.2780(4) -0.8575(7) 0.4017(4)
C2 C 0.1985(3) -0.7057(6) 0.3469(3)
C3 C 0.0974(2) -0.6966(5) 0.3762(2)
C4 C 0.0869(4) -0.6463(6) 0.4627(2)
H11 H 0.1484 -0.6034 0.5109
C5 C -0.0154(4) -0.6601(7) 0.4770(3)
H12 H -0.0225 -0.6265 0.5348
C6 C -0.1073(3) -0.7243(8) 0.4048(4)
H13 H -0.1757 -0.7335 0.4144
C7 C -0.0968(2) -0.7745(7) 0.3184(3)
H14 H -0.1582 -0.8174 0.2701
C8 C 0.0056(3) -0.7607(5) 0.3040(2)
C9 C 0.1517(3) -0.7567(6) 0.2449(2)
C10 C 0.2037(3) -0.7712(7) 0.1764(3)
H15 H 0.2793 -0.7482 0.1921
C11 C 0.1425(5) -0.8200(8) 0.0844(3)
H16 H 0.1772 -0.8297 0.0385
C12 C 0.0293(5) -0.8544(8) 0.0609(2)
H17 H -0.0116 -0.8871 -0.0007
C13 C -0.0226(3) -0.8399(7) 0.1294(3)
H18 H -0.0983 -0.8629 0.1137
C14 C 0.0386(3) -0.7910(6) 0.2214(2)
C15 C 0.5490(4) -0.1399(6) 0.3373(3)
C16 C 0.5495(4) -0.2884(6) 0.2633(3)
C17 C 0.6555(3) -0.2804(5) 0.2401(2)
C18 C 0.7618(3) -0.3298(6) 0.2965(2)
H19 H 0.7731 -0.3772 0.3568
C19 C 0.8510(2) -0.3085(7) 0.2630(4)
H20 H 0.9220 -0.3415 0.3007
C20 C 0.8340(3) -0.2377(7) 0.1729(4)
H21 H 0.8937 -0.2234 0.1505
C21 C 0.7278(4) -0.1883(6) 0.1165(3)
H22 H 0.7164 -0.1410 0.0562
C22 C 0.6385(3) -0.2097(5) 0.1500(2)
C23 C 0.4689(3) -0.2413(5) 0.17087(19)
C24 C 0.3537(3) -0.2435(7) 0.1437(3)
H23 H 0.3184 -0.2813 0.1862
C25 C 0.2912(3) -0.1892(8) 0.0529(3)
H24 H 0.2141 -0.1906 0.0347
C26 C 0.3440(4) -0.1327(8) -0.0107(2)
H25 H 0.3022 -0.0963 -0.0714
C27 C 0.4592(4) -0.1305(6) 0.0165(2)
H26 H 0.4945 -0.0927 -0.0260
C28 C 0.5217(3) -0.1848(5) 0.1073(2)
Sr1A Sr 0.53315(3) -0.99999(8) 0.55108(2)
Sr1A_2 Sr 0.53315(3) 0.00001(8) 0.55108(2)
O1A O 0.6233(2) -0.3192(4) 0.5681(3)
O4A O 0.4965(4) -0.6780(4) 0.6042(2)
O7A O 0.6197(2) -0.7465(5) 0.4743(2)
H3A H 0.6822 -0.7093 0.5112
H4A H 0.6273 -0.7826 0.4223
O8 O 0.1342(4) -0.2516(7) 0.2716(4)
H5 H 0.0898 -0.2266 0.2166
H6 H 0.1557 -0.1516 0.3019
O9 O 0.4993(13) -0.7517(17) 0.1854(9)
H7 H 0.5282 -0.8456 0.2204
H8 H 0.5393 -0.7443 0.1472
O10? O 0.5886(12) -0.7451(16) 0.2086(8)
H9? H 0.5924 -0.8427 0.2429
H10? H 0.5361 -0.7717 0.1558
loop_
_geom_bond_atom_site_label_1
_geom_bond_atom_site_label_2
_geom_bond_site_symmetry_1
_geom_bond_site_symmetry_2
Sr1 O1 1_555 1_555
O1 C1 1_555 1_555
O2 C1 1_555 1_555
O3 Sr1 1_555 1_555
H1 O3 1_555 1_555
O4 Sr1 1_555 1_555
O5 C15 1_555 1_555
O6 Sr1 1_555 1_555
H2 O6 1_555 1_555
O7 Sr1 1_555 1_555
H3 O7 1_555 1_555
H4 O7 1_555 1_555
O8 H5 1_555 1_555
H6 O8 1_555 1_555
O9 H7 1_555 1_555
H8 O9 1_555 1_555
C1 C2 1_555 1_555
C2 O3 1_555 1_555
C3 C2 1_555 1_555
C4 C3 1_555 1_555
H11 C4 1_555 1_555
C5 C4 1_555 1_555
H12 C5 1_555 1_555
C6 C5 1_555 1_555
H13 C6 1_555 1_555
C7 C6 1_555 1_555
H14 C7 1_555 1_555
C8 C3 1_555 1_555
C9 C2 1_555 1_555
C10 C9 1_555 1_555
H15 C10 1_555 1_555
C11 C10 1_555 1_555
H16 C11 1_555 1_555
C12 C11 1_555 1_555
H17 C12 1_555 1_555
C13 C12 1_555 1_555
H18 C13 1_555 1_555
C14 C8 1_555 1_555
C15 O4 1_555 1_555
C16 O6 1_555 1_555
C17 C16 1_555 1_555
C18 C17 1_555 1_555
H19 C18 1_555 1_555
C19 C18 1_555 1_555
H20 C19 1_555 1_555
C20 C19 1_555 1_555
H21 C20 1_555 1_555
C21 C20 1_555 1_555
H22 C21 1_555 1_555
C22 C17 1_555 1_555
C23 C16 1_555 1_555
C24 C23 1_555 1_555
H23 C24 1_555 1_555
C25 C24 1_555 1_555
H24 C25 1_555 1_555
C26 C25 1_555 1_555
H25 C26 1_555 1_555
C27 C26 1_555 1_555
H26 C27 1_555 1_555
C28 C22 1_555 1_555
Sr1A O1 1_555 1_555
Sr1A_2 O4 1_555 1_555
O1A Sr1 1_555 1_555
O4A Sr1 1_555 1_555
O7A Sr1 1_555 1_555
H3A O7A 1_555 1_555
H4A O7A 1_555 1_555
O7 Sr1A_2 1_555 1_555
C7 C8 1_555 1_555
C9 C14 1_555 1_555
C13 C14 1_555 1_555
C15 C16 1_555 1_555
C21 C22 1_555 1_555
C23 C28 1_555 1_555
C27 C28 1_555 1_555
Sr1A O4A 1_555 1_555
Sr1A O7A 1_555 1_555
Sr1A_2 O1A 1_555 1_555

#END
