
#######################################################################
#
#                 Cambridge Crystallographic Data Centre
#                                CCDC 
#
#######################################################################
#
# If this CIF has been generated from an entry in the Cambridge 
# Structural Database, then it will include bibliographic, chemical, 
# crystal, experimental, refinement or atomic coordinate data resulting 
# from the CCDC's data processing and validation procedures.
#
#######################################################################

data_FAYKOG
_symmetry_cell_setting           orthorhombic
_symmetry_space_group_name_H-M   'P n a 21'
_symmetry_Int_Tables_number      33
_space_group_name_Hall           'P 2c -2n'
loop_
_symmetry_equiv_pos_site_id
_symmetry_equiv_pos_as_xyz
1 x,y,z
2 -x,-y,1/2+z
3 1/2+x,1/2-y,z
4 1/2-x,1/2+y,1/2+z
_cell_length_a                   11.818(4)
_cell_length_b                   7.422(3)
_cell_length_c                   24.425(9)
_cell_angle_alpha                90
_cell_angle_beta                 90
_cell_angle_gamma                90
_cell_volume                     2142.39
loop_
_atom_site_label
_atom_site_type_symbol
_atom_site_fract_x
_atom_site_fract_y
_atom_site_fract_z
Ag1 Ag 0.55379(5) 0.38212(6) 0.29112(2)
Ag2 Ag 0.73723(5) 1.10664(6) 0.24665(2)
Cl1 Cl 0.1316(3) -0.2529(7) 0.51198(12)
Cl2 Cl 1.1328(3) 1.8256(4) 0.03725(12)
O1 O 0.4911(5) 0.1787(7) 0.3471(2)
O2 O 0.7950(5) 1.3077(7) 0.1892(2)
O3 O 0.9503(6) 1.1436(8) 0.1939(3)
O4 O 0.3490(6) 0.3669(8) 0.3423(3)
N1 N 0.6539(5) 0.5731(7) 0.2448(3)
H1 H 0.6826 0.5111 0.2158
N2 N 0.6397(5) 0.9164(7) 0.2947(3)
H2 H 0.6104 0.9794 0.3234
C1 C 0.3931(7) 0.2288(10) 0.3611(3)
C2 C 0.3290(7) 0.1093(9) 0.4002(3)
C3 C 0.2175(8) 0.1479(13) 0.4131(3)
H3 H 0.1833 0.2498 0.3983
C4 C 0.1568(8) 0.0381(18) 0.4473(4)
H4 H 0.0823 0.0657 0.4562
C5 C 0.2078(10) -0.1137(14) 0.4683(4)
C6 C 0.3181(10) -0.1545(13) 0.4572(3)
H5 H 0.3520 -0.2547 0.4731
C7 C 0.3787(8) -0.0446(12) 0.4221(3)
H6 H 0.4530 -0.0737 0.4131
C8 C 0.8957(7) 1.2760(11) 0.1771(3)
C9 C 0.9527(6) 1.4083(9) 0.1394(3)
C10 C 0.8970(6) 1.5608(11) 0.1211(3)
H7 H 0.8216 1.5785 0.1306
C11 C 0.9516(7) 1.6889(12) 0.0885(3)
H8 H 0.9126 1.7896 0.0760
C12 C 1.0611(8) 1.6653(13) 0.0756(3)
C13 C 1.1195(7) 1.5138(14) 0.0920(3)
H9 H 1.1944 1.4976 0.0814
C14 C 1.0667(7) 1.3861(10) 0.1241(3)
H10 H 1.1066 1.2850 0.1357
C15 C 0.7477(6) 0.6496(10) 0.2722(4)
H11 H 0.7924 0.7187 0.2464
H12 H 0.7950 0.5540 0.2867
C16 C 0.7101(7) 0.7711(10) 0.3187(3)
H13 H 0.6665 0.7030 0.3452
H14 H 0.7754 0.8221 0.3371
C17 C 0.5457(7) 0.8407(10) 0.2659(4)
H15 H 0.5002 0.9370 0.2506
H16 H 0.4988 0.7736 0.2914
C18 C 0.5834(8) 0.7195(10) 0.2213(3)
H17 H 0.6270 0.7871 0.1947
H18 H 0.5181 0.6684 0.2029
Ag1_2 Ag 0.55379(5) 1.38212(6) 0.29112(2)
Ag2_2 Ag 0.73723(5) 0.10664(6) 0.24665(2)
loop_
_geom_bond_atom_site_label_1
_geom_bond_atom_site_label_2
_geom_bond_site_symmetry_1
_geom_bond_site_symmetry_2
Ag1 O1 1_555 1_555
Ag2 O2 1_555 1_555
Cl1 C5 1_555 1_555
Cl2 C12 1_555 1_555
O1 C1 1_555 1_555
O2 C8 1_555 1_555
O3 C8 1_555 1_555
O4 C1 1_555 1_555
N1 Ag1 1_555 1_555
H1 N1 1_555 1_555
N2 Ag2 1_555 1_555
H2 N2 1_555 1_555
C1 C2 1_555 1_555
C2 C3 1_555 1_555
C3 H3 1_555 1_555
C4 C3 1_555 1_555
H4 C4 1_555 1_555
C5 C4 1_555 1_555
C6 C5 1_555 1_555
H5 C6 1_555 1_555
C7 C2 1_555 1_555
H6 C7 1_555 1_555
C8 C9 1_555 1_555
C9 C10 1_555 1_555
C10 H7 1_555 1_555
C11 C10 1_555 1_555
H8 C11 1_555 1_555
C12 C11 1_555 1_555
C13 C12 1_555 1_555
H9 C13 1_555 1_555
C14 C9 1_555 1_555
H10 C14 1_555 1_555
C15 N1 1_555 1_555
H11 C15 1_555 1_555
H12 C15 1_555 1_555
C16 N2 1_555 1_555
H13 C16 1_555 1_555
H14 C16 1_555 1_555
C17 N2 1_555 1_555
H15 C17 1_555 1_555
H16 C17 1_555 1_555
C18 N1 1_555 1_555
H17 C18 1_555 1_555
H18 C18 1_555 1_555
Ag1_2 Ag2 1_555 1_555
Ag2_2 Ag1 1_555 1_555
C6 C7 1_555 1_555
C13 C14 1_555 1_555
C15 C16 1_555 1_555
C17 C18 1_555 1_555

#END
