
#######################################################################
#
#                 Cambridge Crystallographic Data Centre
#                                CCDC 
#
#######################################################################
#
# If this CIF has been generated from an entry in the Cambridge 
# Structural Database, then it will include bibliographic, chemical, 
# crystal, experimental, refinement or atomic coordinate data resulting 
# from the CCDC's data processing and validation procedures.
#
#######################################################################

data_FAYKEX
_symmetry_cell_setting           triclinic
_symmetry_space_group_name_H-M   'P -1'
_symmetry_Int_Tables_number      2
_space_group_name_Hall           '-P 1'
loop_
_symmetry_equiv_pos_site_id
_symmetry_equiv_pos_as_xyz
1 x,y,z
2 -x,-y,-z
_cell_length_a                   10.0618(11)
_cell_length_b                   10.9186(12)
_cell_length_c                   11.4504(12)
_cell_angle_alpha                88.935(2)
_cell_angle_beta                 72.765(2)
_cell_angle_gamma                70.248(2)
_cell_volume                     1126.11
loop_
_atom_site_label
_atom_site_type_symbol
_atom_site_fract_x
_atom_site_fract_y
_atom_site_fract_z
Co1 Co 0.19273(3) 0.31418(3) 0.45506(3)
Br1 Br 0.35522(3) 0.31942(2) 0.00993(2)
Br2 Br 0.61703(3) 0.14261(2) -0.24397(2)
O1 O 0.17355(18) 0.47168(16) 0.34307(15)
O2 O -0.07383(18) 0.55479(15) 0.38499(15)
O3 O 0.31745(18) 0.19306(16) 0.29426(15)
O4 O 0.13893(19) 0.16795(18) 0.22631(16)
O5 O 0.39138(18) 0.32747(16) 0.46391(15)
O6 O -0.0089(2) 0.30533(18) 0.44092(17)
H1 H 0.025(4) 0.262(3) 0.371(3)
H2 H -0.046(4) 0.383(4) 0.430(3)
N1 N 0.2132(2) 1.15211(19) -0.43601(18)
N2 N 0.6010(2) 0.3745(2) 0.3866(2)
C1 C 0.0580(3) 0.5423(2) 0.3197(2)
C2 C 0.0755(3) 0.6169(2) 0.2084(2)
C3 C 0.2086(3) 0.6366(2) 0.1519(2)
H3 H 0.2909 0.5987 0.1816
C4 C 0.2225(3) 0.7107(2) 0.0527(2)
H4 H 0.3139 0.7239 0.0155
C5 C 0.1029(3) 0.7665(2) 0.0065(2)
C6 C -0.0280(3) 0.7420(2) 0.0612(2)
H5 H -0.1089 0.7759 0.0291
C7 C -0.0424(3) 0.6693(2) 0.1614(2)
H6 H -0.1332 0.6550 0.1982
C8 C 0.1091(3) 0.8496(2) -0.0954(2)
H7 H 0.0211 0.8838 -0.1183
C9 C 0.2231(3) 0.8828(2) -0.1595(2)
H8 H 0.3131 0.8478 -0.1398
C10 C 0.3332(3) 1.0993(2) -0.3988(2)
H9 H 0.4166 1.1255 -0.4329
C11 C 0.3411(3) 1.0084(2) -0.3129(2)
H10 H 0.4294 0.9723 -0.2908
C12 C 0.2204(3) 0.9698(2) -0.2589(2)
C13 C 0.0967(3) 1.0200(2) -0.3021(2)
H11 H 0.0136 0.9926 -0.2721
C14 C 0.0983(3) 1.1095(2) -0.3885(2)
H12 H 0.0139 1.1431 -0.4164
C15 C 0.2694(3) 0.1527(2) 0.2190(2)
C16 C 0.3885(3) 0.0738(2) 0.1047(2)
C17 C 0.4397(3) 0.1352(2) 0.0018(2)
C18 C 0.5488(3) 0.0623(2) -0.1020(2)
C19 C 0.4722(3) 0.3714(2) 0.3827(2)
H13 H 0.4395 0.4043 0.3148
C20 C 0.6891(3) 0.4349(3) 0.2940(3)
H14 H 0.6390 0.4665 0.2321
H15 H 0.7876 0.3700 0.2543
H16 H 0.6996 0.5083 0.3336
C21 C 0.6594(3) 0.3185(3) 0.4855(3)
H17 H 0.5805 0.3029 0.5514
H18 H 0.6955 0.3794 0.5177
H19 H 0.7413 0.2357 0.4539
Co1A Co -0.19273(3) 0.68582(3) 0.54494(3)
Co1_2 Co 0.19273(3) 1.31418(3) -0.54494(3)
Co1A_2 Co 0.80727(3) -0.31418(3) -0.45506(3)
Co1A_3 Co -0.19273(3) -0.31418(3) 1.54494(3)
Br1A Br 0.64478(3) -0.31942(2) -0.00993(2)
Br2A Br 0.38297(3) -0.14261(2) 0.24397(2)
O1A O -0.17355(18) 0.52832(16) 0.65693(15)
O2A O 0.07383(18) 0.44521(15) 0.61501(15)
O3A O 0.68255(18) -0.19306(16) -0.29426(15)
O3A_2 O -0.31745(18) 0.80694(16) 0.70574(15)
O4A O 0.86107(19) -0.16795(18) -0.22631(16)
O5A O -0.39138(18) 0.67253(16) 0.53609(15)
O6A O 0.0089(2) 0.69467(18) 0.55908(17)
H1A H -0.025(4) 0.738(3) 0.629(3)
H2A H 0.046(4) 0.617(4) 0.570(3)
N1A N -0.2132(2) -0.15211(19) 1.43601(18)
N1_2 N 0.2132(2) 0.15211(19) 0.56399(18)
N1A_2 N -0.2132(2) 0.84789(19) 0.43601(18)
N2A N -0.6010(2) 0.6255(2) 0.6134(2)
C1A C -0.0580(3) 0.4577(2) 0.6803(2)
C2A C -0.0755(3) 0.3831(2) 0.7916(2)
C3A C -0.2086(3) 0.3634(2) 0.8481(2)
H3A H -0.2909 0.4013 0.8184
C4A C -0.2225(3) 0.2893(2) 0.9473(2)
H4A H -0.3139 0.2761 0.9845
C5A C -0.1029(3) 0.2335(2) 0.9935(2)
C6A C 0.0280(3) 0.2580(2) 0.9388(2)
H5A H 0.1089 0.2241 0.9709
C7A C 0.0424(3) 0.3307(2) 0.8386(2)
H6A H 0.1332 0.3450 0.8018
C8A C -0.1091(3) 0.1504(2) 1.0954(2)
H7A H -0.0211 0.1162 1.1183
C9A C -0.2231(3) 0.1172(2) 1.1595(2)
H8A H -0.3131 0.1522 1.1398
C10A C -0.3332(3) -0.0993(2) 1.3988(2)
H9A H -0.4166 -0.1255 1.4329
C11A C -0.3411(3) -0.0084(2) 1.3129(2)
H10A H -0.4294 0.0277 1.2908
C12A C -0.2204(3) 0.0302(2) 1.2589(2)
C13A C -0.0967(3) -0.0200(2) 1.3021(2)
H11A H -0.0136 0.0074 1.2721
C14A C -0.0983(3) -0.1095(2) 1.3885(2)
H12A H -0.0139 -0.1431 1.4164
C15A C 0.7306(3) -0.1527(2) -0.2190(2)
C16A C 0.6115(3) -0.0738(2) -0.1047(2)
C17A C 0.5603(3) -0.1352(2) -0.0018(2)
C18A C 0.4512(3) -0.0623(2) 0.1020(2)
C19A C -0.4722(3) 0.6286(2) 0.6173(2)
H13A H -0.4395 0.5957 0.6852
C20A C -0.6891(3) 0.5651(3) 0.7060(3)
H14A H -0.6390 0.5335 0.7679
H15A H -0.7876 0.6300 0.7457
H16A H -0.6996 0.4917 0.6664
C21A C -0.6594(3) 0.6815(3) 0.5145(3)
H17A H -0.5805 0.6971 0.4486
H18A H -0.6955 0.6206 0.4823
H19A H -0.7413 0.7643 0.5461
loop_
_geom_bond_atom_site_label_1
_geom_bond_atom_site_label_2
_geom_bond_site_symmetry_1
_geom_bond_site_symmetry_2
Co1 O1 1_555 1_555
Br1 C17 1_555 1_555
Br2 C18 1_555 1_555
O1 C1 1_555 1_555
O2 C1 1_555 1_555
O3 Co1 1_555 1_555
O4 C15 1_555 1_555
O5 Co1 1_555 1_555
O6 Co1 1_555 1_555
H1 O6 1_555 1_555
H2 O6 1_555 1_555
N1 C10 1_555 1_555
N2 C19 1_555 1_555
C1 C2 1_555 1_555
C2 C3 1_555 1_555
C3 H3 1_555 1_555
C4 C3 1_555 1_555
H4 C4 1_555 1_555
C5 C4 1_555 1_555
C6 C5 1_555 1_555
H5 C6 1_555 1_555
C7 C2 1_555 1_555
H6 C7 1_555 1_555
C8 C5 1_555 1_555
H7 C8 1_555 1_555
C9 C8 1_555 1_555
H8 C9 1_555 1_555
C10 H9 1_555 1_555
C11 C10 1_555 1_555
H10 C11 1_555 1_555
C12 C9 1_555 1_555
C13 C12 1_555 1_555
H11 C13 1_555 1_555
C14 N1 1_555 1_555
H12 C14 1_555 1_555
C15 O3 1_555 1_555
C16 C15 1_555 1_555
C17 C16 1_555 1_555
C18 C17 1_555 1_555
C19 O5 1_555 1_555
H13 C19 1_555 1_555
C20 N2 1_555 1_555
H14 C20 1_555 1_555
H15 C20 1_555 1_555
H16 C20 1_555 1_555
C21 N2 1_555 1_555
H17 C21 1_555 1_555
H18 C21 1_555 1_555
H19 C21 1_555 1_555
Co1A O2 1_555 1_555
Co1_2 N1 1_555 1_555
Co1A_2 O3A 1_555 1_555
Co1A_3 N1A 1_555 1_555
Br1A C17A 1_555 1_555
Br2A C18A 1_555 1_555
O1A Co1A 1_555 1_555
O2A Co1 1_555 1_555
O3A C15A 1_555 1_555
O3A_2 Co1A 1_555 1_555
O4A C15A 1_555 1_555
O5A Co1A 1_555 1_555
O6A Co1A 1_555 1_555
H1A O6A 1_555 1_555
H2A O6A 1_555 1_555
N1A C10A 1_555 1_555
N1_2 Co1 1_555 1_555
N1A_2 Co1A 1_555 1_555
N2A C19A 1_555 1_555
C1A O1A 1_555 1_555
C2A C1A 1_555 1_555
C3A C2A 1_555 1_555
H3A C3A 1_555 1_555
C4A C3A 1_555 1_555
H4A C4A 1_555 1_555
C5A C4A 1_555 1_555
C6A C5A 1_555 1_555
H5A C6A 1_555 1_555
C7A C2A 1_555 1_555
H6A C7A 1_555 1_555
C8A C5A 1_555 1_555
H7A C8A 1_555 1_555
C9A C8A 1_555 1_555
H8A C9A 1_555 1_555
C10A H9A 1_555 1_555
C11A C10A 1_555 1_555
H10A C11A 1_555 1_555
C12A C9A 1_555 1_555
C13A C12A 1_555 1_555
H11A C13A 1_555 1_555
C14A N1A 1_555 1_555
H12A C14A 1_555 1_555
C15A C16A 1_555 1_555
C16A C18 1_555 1_555
C17A C16A 1_555 1_555
C18A C16 1_555 1_555
C19A O5A 1_555 1_555
H13A C19A 1_555 1_555
C20A N2A 1_555 1_555
H14A C20A 1_555 1_555
H15A C20A 1_555 1_555
H16A C20A 1_555 1_555
C21A N2A 1_555 1_555
H17A C21A 1_555 1_555
H18A C21A 1_555 1_555
H19A C21A 1_555 1_555
C6 C7 1_555 1_555
C11 C12 1_555 1_555
C13 C14 1_555 1_555
O2A C1A 1_555 1_555
C6A C7A 1_555 1_555
C11A C12A 1_555 1_555
C13A C14A 1_555 1_555
C17A C18A 1_555 1_555

#END
