
#######################################################################
#
#                 Cambridge Crystallographic Data Centre
#                                CCDC 
#
#######################################################################
#
# If this CIF has been generated from an entry in the Cambridge 
# Structural Database, then it will include bibliographic, chemical, 
# crystal, experimental, refinement or atomic coordinate data resulting 
# from the CCDC's data processing and validation procedures.
#
#######################################################################

data_FAYNID
_symmetry_cell_setting           triclinic
_symmetry_space_group_name_H-M   'P -1'
_symmetry_Int_Tables_number      2
_space_group_name_Hall           '-P 1'
loop_
_symmetry_equiv_pos_site_id
_symmetry_equiv_pos_as_xyz
1 x,y,z
2 -x,-y,-z
_cell_length_a                   8.3046(4)
_cell_length_b                   9.5443(4)
_cell_length_c                   12.0048(8)
_cell_angle_alpha                81.220(3)
_cell_angle_beta                 70.030(2)
_cell_angle_gamma                83.678(2)
_cell_volume                     882.103
loop_
_atom_site_label
_atom_site_type_symbol
_atom_site_fract_x
_atom_site_fract_y
_atom_site_fract_z
Zn1 Zn 0.54397(3) 0.43804(2) 0.19816(2)
N1 N 0.3101(2) 0.37522(19) 0.23785(17)
N2 N 0.0830(3) 0.2533(2) 0.3022(2)
H1 H 0.0119 0.1904 0.3430
N3 N 0.6407(2) 0.47086(19) 0.32220(17)
N4 N 0.7880(3) 0.5753(2) 0.4009(2)
H2 H 0.8483 0.6369 0.4111
O1 O 0.7185(2) 0.31432(15) 0.09141(14)
O2 O 0.6520(2) 0.14629(16) 0.24587(14)
O3 O 0.5533(2) 0.62347(15) 0.09967(14)
O4 O 0.3566(2) 0.71973(16) 0.25040(15)
C1 C 0.7370(3) 0.1892(2) 0.1411(2)
C2 C 0.8737(3) 0.0915(2) 0.06747(19)
C3 C 0.9759(3) 0.1387(2) -0.0471(2)
H9 H 0.9606 0.2321 -0.0794
C4 C 0.8996(3) -0.0484(2) 0.1138(2)
H10 H 0.8321 -0.0816 0.1908
C5 C 0.4590(3) 0.7277(2) 0.1465(2)
C6 C 0.4799(3) 0.8688(2) 0.06977(19)
C7 C 0.3661(3) 0.9843(2) 0.1066(2)
H11 H 0.2756 0.9737 0.1784
C8 C 0.6132(3) 0.8857(2) -0.0372(2)
H12 H 0.6893 0.8089 -0.0626
C9 C 0.2341(3) 0.2680(3) 0.3132(2)
H13 H 0.2795 0.2107 0.3666
C10 C 0.0607(3) 0.3541(3) 0.2159(3)
H14 H -0.0334 0.3682 0.1894
C11 C 0.2003(3) 0.4300(3) 0.1760(2)
H15 H 0.2197 0.5069 0.1163
C12 C 0.7266(3) 0.5830(3) 0.3123(2)
H16 H 0.7418 0.6578 0.2508
C13 C 0.7386(4) 0.4512(3) 0.4739(3)
H17 H 0.7632 0.4176 0.5436
C14 C 0.6472(3) 0.3879(3) 0.4242(2)
H18 H 0.5967 0.3018 0.4545
Zn1A Zn 1.45603(3) -0.43804(2) -0.19816(2)
Zn1A_2 Zn 0.45603(3) 1.56196(2) -0.19816(2)
N1A N 1.6899(2) -0.37522(19) -0.23785(17)
N2A N 1.9170(3) -0.2533(2) -0.3022(2)
H1A H 1.9881 -0.1904 -0.3430
N3A N 1.3593(2) -0.47086(19) -0.32220(17)
N4A N 1.2120(3) -0.5753(2) -0.4009(2)
H2A H 1.1517 -0.6369 -0.4111
O1A O 1.2815(2) -0.31432(15) -0.09141(14)
O2A O 1.3480(2) -0.14629(16) -0.24587(14)
O3A O 0.4467(2) 1.37653(15) -0.09967(14)
O3A_2 O 1.4467(2) -0.62347(15) -0.09967(14)
O4A O 0.6434(2) 1.28027(16) -0.25040(15)
C1A C 1.2630(3) -0.1892(2) -0.1411(2)
C2A C 1.1263(3) -0.0915(2) -0.06747(19)
C3A C 1.0241(3) -0.1387(2) 0.0471(2)
H9A H 1.0394 -0.2321 0.0794
C4A C 1.1004(3) 0.0484(2) -0.1138(2)
H10A H 1.1679 0.0816 -0.1908
C5A C 0.5410(3) 1.2723(2) -0.1465(2)
C6A C 0.5201(3) 1.1312(2) -0.06977(19)
C7A C 0.6339(3) 1.0157(2) -0.1066(2)
H11A H 0.7244 1.0263 -0.1784
C8A C 0.3868(3) 1.1143(2) 0.0372(2)
H12A H 0.3107 1.1911 0.0626
C9A C 1.7659(3) -0.2680(3) -0.3132(2)
H13A H 1.7205 -0.2107 -0.3666
C10A C 1.9393(3) -0.3541(3) -0.2159(3)
H14A H 2.0334 -0.3682 -0.1894
C11A C 1.7997(3) -0.4300(3) -0.1760(2)
H15A H 1.7803 -0.5069 -0.1163
C12A C 1.2734(3) -0.5830(3) -0.3123(2)
H16A H 1.2582 -0.6578 -0.2508
C13A C 1.2614(4) -0.4512(3) -0.4739(3)
H17A H 1.2368 -0.4176 -0.5436
C14A C 1.3528(3) -0.3879(3) -0.4242(2)
H18A H 1.4033 -0.3018 -0.4545
O5 O 0.8315(2) 0.04434(18) 0.40622(17)
H3 H 0.7698 0.0720 0.3516
H4 H 0.7489 0.0441 0.4742
O6 O 0.4281(3) 0.9230(2) 0.37968(17)
H5 H 0.4051 0.8654 0.3403
H6 H 0.5007 0.9893 0.3274
O7 O 1.0110(3) 0.7794(2) 0.3869(2)
H7 H 0.9690 0.8673 0.3792
H8 H 1.1176 0.7761 0.3332
loop_
_geom_bond_atom_site_label_1
_geom_bond_atom_site_label_2
_geom_bond_site_symmetry_1
_geom_bond_site_symmetry_2
Zn1 N1 1_555 1_555
N1 C9 1_555 1_555
N2 H1 1_555 1_555
N3 Zn1 1_555 1_555
N4 H2 1_555 1_555
O1 Zn1 1_555 1_555
O2 C1 1_555 1_555
O3 Zn1 1_555 1_555
O4 C5 1_555 1_555
O5 H3 1_555 1_555
H4 O5 1_555 1_555
O6 H5 1_555 1_555
H6 O6 1_555 1_555
O7 H7 1_555 1_555
H8 O7 1_555 1_555
C1 O1 1_555 1_555
C2 C1 1_555 1_555
C3 C2 1_555 1_555
H9 C3 1_555 1_555
C4 C2 1_555 1_555
H10 C4 1_555 1_555
C5 O3 1_555 1_555
C6 C5 1_555 1_555
C7 C6 1_555 1_555
H11 C7 1_555 1_555
C8 C6 1_555 1_555
H12 C8 1_555 1_555
C9 N2 1_555 1_555
H13 C9 1_555 1_555
C10 N2 1_555 1_555
H14 C10 1_555 1_555
C11 N1 1_555 1_555
H15 C11 1_555 1_555
C12 N3 1_555 1_555
H16 C12 1_555 1_555
C13 N4 1_555 1_555
H17 C13 1_555 1_555
C14 N3 1_555 1_555
H18 C14 1_555 1_555
Zn1A N1A 1_555 1_555
Zn1A_2 O3A 1_555 1_555
N1A C9A 1_555 1_555
N2A H1A 1_555 1_555
N3A Zn1A 1_555 1_555
N4A H2A 1_555 1_555
O1A Zn1A 1_555 1_555
O2A C1A 1_555 1_555
O3A C5A 1_555 1_555
O3A_2 Zn1A 1_555 1_555
O4A C5A 1_555 1_555
C1A O1A 1_555 1_555
C2A C1A 1_555 1_555
C3A C4 1_555 1_555
H9A C3A 1_555 1_555
C4A C3 1_555 1_555
H10A C4A 1_555 1_555
C5A C6A 1_555 1_555
C6A C7A 1_555 1_555
C7A C8 1_555 1_555
H11A C7A 1_555 1_555
C8A C7 1_555 1_555
H12A C8A 1_555 1_555
C9A N2A 1_555 1_555
H13A C9A 1_555 1_555
C10A N2A 1_555 1_555
H14A C10A 1_555 1_555
C11A N1A 1_555 1_555
H15A C11A 1_555 1_555
C12A N3A 1_555 1_555
H16A C12A 1_555 1_555
C13A N4A 1_555 1_555
H17A C13A 1_555 1_555
C14A N3A 1_555 1_555
H18A C14A 1_555 1_555
N4 C12 1_555 1_555
C10 C11 1_555 1_555
C13 C14 1_555 1_555
N4A C12A 1_555 1_555
C2A C3A 1_555 1_555
C2A C4A 1_555 1_555
C6A C8A 1_555 1_555
C10A C11A 1_555 1_555
C13A C14A 1_555 1_555

#END
