
#######################################################################
#
#                 Cambridge Crystallographic Data Centre
#                                CCDC 
#
#######################################################################
#
# If this CIF has been generated from an entry in the Cambridge 
# Structural Database, then it will include bibliographic, chemical, 
# crystal, experimental, refinement or atomic coordinate data resulting 
# from the CCDC's data processing and validation procedures.
#
#######################################################################

data_FAYNOJ
_symmetry_cell_setting           monoclinic
_symmetry_space_group_name_H-M   'P 21/m'
_symmetry_Int_Tables_number      11
_space_group_name_Hall           '-P 2yb'
loop_
_symmetry_equiv_pos_site_id
_symmetry_equiv_pos_as_xyz
1 x,y,z
2 -x,1/2+y,-z
3 -x,-y,-z
4 x,1/2-y,z
_cell_length_a                   6.4744(16)
_cell_length_b                   23.758(6)
_cell_length_c                   7.5236(19)
_cell_angle_alpha                90
_cell_angle_beta                 108.715(3)
_cell_angle_gamma                90
_cell_volume                     1096.08
loop_
_atom_site_label
_atom_site_type_symbol
_atom_site_fract_x
_atom_site_fract_y
_atom_site_fract_z
Cd1 Cd 0.62774(6) 0.7500 0.84776(6)
N1 N 0.5885(5) 0.65322(13) 0.8507(5)
H1 H 0.5269 0.6441 0.9384
H2 H 0.4972 0.6421 0.7386
O3 O 0.3448(7) 0.7500 1.0096(6)
O4 O 0.3548(7) 0.7500 0.5539(7)
O5 O 0.8842(9) 0.7500 0.6900(8)
O6 O 0.8848(8) 0.7500 1.1526(7)
C5 C 0.7966(7) 0.62221(16) 0.8898(6)
H5 H 0.9040 0.6395 0.9968
H6 H 0.8480 0.6262 0.7828
C6 C 0.7832(7) 0.55990(15) 0.9302(6)
H7 H 0.7263 0.5554 1.0340
H8 H 0.6826 0.5418 0.8211
C7 C 1.0038(7) 0.53129(15) 0.9786(6)
H9 H 1.1043 0.5498 1.0869
H10 H 1.0599 0.5358 0.8744
H11 H 0.374(9) 0.7199(15) 1.079(7)
H12 H 0.898(9) 0.7172(14) 0.633(7)
H13 H 0.884(8) 0.7193(14) 1.227(6)
H14 H 0.257(5) 0.7241(14) 0.518(6)
Cd1B Cd 1.37226(6) 0.2500 1.15224(6)
N1B N 1.4115(5) 0.34678(13) 1.1493(5)
N1C N 0.5885(5) 0.84678(13) 0.8507(5)
H1B H 1.4731 0.3559 1.0616
H1C H 0.5269 0.8559 0.9384
H2B H 1.5028 0.3579 1.2614
H2C H 0.4972 0.8579 0.7386
C5B C 1.2034(7) 0.37779(16) 1.1102(6)
H5B H 1.0960 0.3605 1.0032
H6B H 1.1520 0.3738 1.2172
C6B C 1.2168(7) 0.44010(15) 1.0698(6)
H7B H 1.2737 0.4446 0.9660
H8B H 1.3174 0.4582 1.1789
C7B C 0.9962(7) 0.46871(15) 1.0214(6)
H9B H 0.8957 0.4502 0.9131
H10B H 0.9401 0.4642 1.1256
H11C H 0.374(9) 0.7801(15) 1.079(7)
H12C H 0.898(9) 0.7828(14) 0.633(7)
H13C H 0.884(8) 0.7807(14) 1.227(6)
H14C H 0.257(5) 0.7759(14) 0.518(6)
O1 O 0.2193(5) 0.64059(11) 0.4697(5)
O2 O -0.1387(5) 0.64981(12) 0.4028(5)
C1 C 0.0315(6) 0.62079(15) 0.4452(5)
C2 C 0.0140(6) 0.55813(15) 0.4724(5)
C3 C -0.1863(6) 0.53291(15) 0.4497(5)
H3 H -0.3125 0.5546 0.4152
C4 C 0.1993(6) 0.52464(15) 0.5216(5)
H4 H 0.3343 0.5409 0.5357
O1B O -0.2193(5) 0.35941(11) 0.5303(5)
O2B O 0.1387(5) 0.35019(12) 0.5972(5)
C1B C -0.0315(6) 0.37921(15) 0.5548(5)
C2B C -0.0140(6) 0.44187(15) 0.5276(5)
C3B C 0.1863(6) 0.46709(15) 0.5503(5)
H3B H 0.3125 0.4454 0.5848
C4B C -0.1993(6) 0.47536(15) 0.4784(5)
H4B H -0.3343 0.4591 0.4643
O7 O 0.4300(7) 0.65045(16) 0.2033(5)
H15 H 0.553(10) 0.647(2) 0.263(8)
H16 H 0.355(9) 0.643(2) 0.283(8)
loop_
_geom_bond_atom_site_label_1
_geom_bond_atom_site_label_2
_geom_bond_site_symmetry_1
_geom_bond_site_symmetry_2
Cd1 N1 1_555 1_555
N1 H1 1_555 1_555
H2 N1 1_555 1_555
O1 C1 1_555 1_555
O2 C1 1_555 1_555
O3 Cd1 1_555 1_555
O4 Cd1 1_555 1_555
O5 Cd1 1_555 1_555
O6 Cd1 1_555 1_555
O7 H15 1_555 1_555
C1 C2 1_555 1_555
C2 C3 1_555 1_555
C3 H3 1_555 1_555
C4 C2 1_555 1_555
H4 C4 1_555 1_555
C5 N1 1_555 1_555
H5 C5 1_555 1_555
H6 C5 1_555 1_555
C6 C5 1_555 1_555
H7 C6 1_555 1_555
H8 C6 1_555 1_555
C7 C6 1_555 1_555
H9 C7 1_555 1_555
H10 C7 1_555 1_555
H11 O3 1_555 1_555
H12 O5 1_555 1_555
H13 O6 1_555 1_555
H14 O4 1_555 1_555
H16 O7 1_555 1_555
Cd1B N1B 1_555 1_555
N1B H1B 1_555 1_555
N1C Cd1 1_555 1_555
H1C N1C 1_555 1_555
H2B N1B 1_555 1_555
H2C N1C 1_555 1_555
O1B C1B 1_555 1_555
O2B C1B 1_555 1_555
C1B C2B 1_555 1_555
C2B C3B 1_555 1_555
C3B C4 1_555 1_555
H3B C3B 1_555 1_555
C4B C3 1_555 1_555
H4B C4B 1_555 1_555
C5B N1B 1_555 1_555
H5B C5B 1_555 1_555
H6B C5B 1_555 1_555
C6B C5B 1_555 1_555
H7B C6B 1_555 1_555
H8B C6B 1_555 1_555
C7B C7 1_555 1_555
H9B C7B 1_555 1_555
H10B C7B 1_555 1_555
H11C O3 1_555 1_555
H12C O5 1_555 1_555
H13C O6 1_555 1_555
H14C O4 1_555 1_555
C2B C4B 1_555 1_555
C6B C7B 1_555 1_555

#END
