
#######################################################################
#
#                 Cambridge Crystallographic Data Centre
#                                CCDC 
#
#######################################################################
#
# If this CIF has been generated from an entry in the Cambridge 
# Structural Database, then it will include bibliographic, chemical, 
# crystal, experimental, refinement or atomic coordinate data resulting 
# from the CCDC's data processing and validation procedures.
#
#######################################################################

data_FAYPAY
_symmetry_cell_setting           monoclinic
_symmetry_space_group_name_H-M   'C 2/c'
_symmetry_Int_Tables_number      15
_space_group_name_Hall           '-C 2yn'
loop_
_symmetry_equiv_pos_site_id
_symmetry_equiv_pos_as_xyz
1 x,y,z
2 -x,y,1/2-z
3 1/2+x,1/2+y,z
4 1/2-x,1/2+y,1/2-z
5 -x,-y,-z
6 x,-y,1/2+z
7 1/2-x,1/2-y,-z
8 1/2+x,1/2-y,1/2+z
_cell_length_a                   41.096(3)
_cell_length_b                   21.3170(16)
_cell_length_c                   41.307(3)
_cell_angle_alpha                90
_cell_angle_beta                 116.129(1)
_cell_angle_gamma                90
_cell_volume                     32488.6
loop_
_atom_site_label
_atom_site_type_symbol
_atom_site_fract_x
_atom_site_fract_y
_atom_site_fract_z
Zn1 Zn 0.046533(13) 0.30231(2) 0.577797(11)
Zn2 Zn 0.012172(15) 0.29467(3) 0.482278(12)
Zn3 Zn 0.144753(16) 0.32452(3) 0.616688(14)
Zn4 Zn 0.006385(15) 0.43114(3) 0.602283(13)
Zn5 Zn 0.024999(18) 0.15534(3) 0.609741(15)
C1 C -0.07491(13) 0.2004(2) 0.21154(10)
C2 C 0.1129(2) 0.1153(3) 0.67707(19)
H1 H 0.0939 0.0912 0.6769
C3 C -0.02135(17) 0.3212(4) 0.63020(16)
C4 C 0.1489(3) 0.1028(4) 0.6995(3)
H2 H 0.1538 0.0692 0.7153
C5 C -0.01612(15) 0.2552(3) 0.63520(16)
C6 C -0.03290(17) 0.22207(18) 0.65265(16)
H3 H -0.0293 0.1791 0.6562
C7 C -0.06661(18) 0.3375(3) 0.12785(16)
H4 H -0.0855 0.3140 0.1109
C8 C 0.1789(2) 0.1368(5) 0.7006(3)
H5 H 0.2024 0.1237 0.7154
C9 C -0.05514(16) 0.2532(3) 0.66480(16)
H6 H -0.0664 0.2311 0.6765
C10 C 0.1728(2) 0.1906(4) 0.6791(2)
H7 H 0.1916 0.2162 0.6804
C11 C 0.1076(2) 0.1673(3) 0.65461(17)
C12 C -0.06060(15) 0.3175(3) 0.65949(15)
H8 H -0.0755 0.3383 0.6676
C13 C -0.01304(15) 0.4079(3) 0.1733(2)
H9 H 0.0063 0.4315 0.1896
C14 C -0.0438(2) 0.35061(19) 0.64204(19)
H10 H -0.0479 0.3935 0.6383
C15 C 0.1219(2) 0.5517(3) 0.67964(18)
H11 H 0.1232 0.5901 0.6909
C16 C -0.02338(16) 0.3577(3) 0.18670(14)
H12 H -0.0121 0.3480 0.2111
C17 C -0.11462(12) 0.22251(19) 0.19650(10)
H13 H -0.1158 0.2619 0.2077
H14 H -0.1243 0.2292 0.1707
C18 C 0.16306(19) 0.3193(4) 0.5064(2)
H15 H 0.1857 0.3211 0.5066
C19 C 0.1311(3) 0.3152(3) 0.4739(2)
H16 H 0.1335 0.3180 0.4526
C20 C -0.2500(2) 0.1832(3) 0.15828(16)
C21 C -0.06003(10) 0.18606(18) 0.25212(9)
H17 H -0.0725 0.1500 0.2558
H18 H -0.0344 0.1765 0.2621
C22 C -0.0534(2) 0.3899(4) 0.11800(15)
H19 H -0.0638 0.4002 0.0936
C23 C 0.0897(2) 0.4684(3) 0.64307(13)
C24 C -0.02665(14) 0.4168(2) 0.49036(14)
C25 C -0.04942(14) 0.2406(3) 0.30657(13)
C26 C -0.07398(13) 0.1412(2) 0.19076(10)
H20 H -0.0814 0.1514 0.1656
H21 H -0.0906 0.1101 0.1921
C27 C -0.01274(13) 0.2060(2) 0.36508(13)
H22 H 0.0024 0.1756 0.3806
C28 C -0.05106(17) 0.3220(3) 0.16273(17)
C29 C -0.05158(11) 0.25301(19) 0.20787(11)
H23 H -0.0520 0.2890 0.2220
H24 H -0.0267 0.2390 0.2166
C30 C -0.17244(16) 0.1813(3) 0.18892(13)
C31 C -0.04735(14) 0.4352(2) 0.45440(13)
H25 H -0.0472 0.4132 0.4350
C32 C -0.02015(14) 0.2582(3) 0.37899(13)
C33 C -0.00267(17) 0.2660(3) 0.41974(15)
C34 C -0.02834(13) 0.4496(2) 0.51892(14)
C35 C -0.19071(16) 0.2317(2) 0.16912(13)
H26 H -0.1781 0.2657 0.1661
C36 C 0.1230(2) 0.4448(3) 0.64663(15)
C37 C -0.0011(2) -0.0779(3) 0.1359(2)
C38 C -0.29131(19) 0.1858(4) 0.14163(19)
C39 C 0.01133(14) -0.0066(2) 0.18769(17)
H27 H 0.0344 -0.0238 0.1994
C40 C -0.0123(2) -0.0284(3) 0.15430(16)
C41 C 0.00081(16) 0.0418(2) 0.20432(12)
H28 H 0.0168 0.0554 0.2273
C42 C -0.05711(15) 0.0471(3) 0.15468(14)
H29 H -0.0804 0.0636 0.1433
C43 C -0.0142(2) 0.4815(4) 0.1253(2)
C44 C -0.02681(12) 0.1969(2) 0.32907(14)
H30 H -0.0210 0.1610 0.3199
C45 C -0.22892(19) 0.2321(3) 0.15312(12)
H31 H -0.2410 0.2659 0.1385
C46 C 0.0957(2) 0.3086(3) 0.5048(2)
C47 C -0.04223(14) 0.3028(2) 0.35674(14)
H32 H -0.0470 0.3389 0.3666
C48 C -0.06931(13) 0.5214(2) 0.47837(17)
H33 H -0.0841 0.5567 0.4732
C49 C -0.06734(14) 0.4870(3) 0.45029(14)
H34 H -0.0810 0.5014 0.4269
C50 C -0.1913(2) 0.1349(3) 0.19537(16)
H35 H -0.1785 0.1019 0.2103
C51 C 0.09609(18) 0.3072(3) 0.47072(16)
H36 H 0.0756 0.3018 0.4489
C52 C 0.15549(17) 0.4716(3) 0.66629(16)
H37 H 0.1771 0.4545 0.6683
C53 C -0.04563(18) -0.0013(3) 0.13914(14)
H38 H -0.0621 -0.0161 0.1167
C54 C 0.15401(19) 0.5250(3) 0.6828(2)
H39 H 0.1757 0.5453 0.6971
C55 C 0.08805(18) 0.5243(3) 0.66056(16)
H40 H 0.0667 0.5409 0.6595
C56 C -0.02761(19) 0.4260(3) 0.1401(2)
C57 C -0.2302(2) 0.1344(3) 0.18012(19)
H41 H -0.2420 0.1012 0.1850
C58 C 0.1595(2) 0.3206(3) 0.53737(16)
H42 H 0.1799 0.3257 0.5592
C59 C 0.1362(2) 0.2034(4) 0.65531(18)
C60 C 0.12571(18) 0.3145(3) 0.5371(2)
C61 C -0.04896(13) 0.5023(2) 0.51412(13)
H43 H -0.0494 0.5242 0.5334
C62 C -0.03216(16) 0.0688(2) 0.18749(15)
C63 C -0.05780(12) 0.2959(2) 0.31957(13)
H44 H -0.0730 0.3263 0.3041
C64 C -0.01696(13) 0.16924(18) 0.49981(14)
C65 C -0.01384(13) 0.1374(3) 0.53040(10)
C66 C -0.03094(17) 0.0798(3) 0.52701(13)
H45 H -0.0288 0.0585 0.5475
C67 C -0.05115(16) 0.05412(19) 0.49304(17)
H46 H -0.0626 0.0156 0.4908
C68 C -0.05427(15) 0.0860(3) 0.46245(11)
H47 H -0.0678 0.0688 0.4397
C69 C -0.03718(16) 0.1436(2) 0.46584(11)
H48 H -0.0393 0.1649 0.4454
N1 N 0.00603(13) 0.1750(2) 0.55721(10)
N2 N -0.00415(10) 0.36702(17) 0.50443(10)
N3 N 0.01563(10) 0.22525(17) 0.54332(11)
N4 N 0.00172(11) 0.22370(17) 0.50770(10)
N5 N 0.00808(9) 0.36902(16) 0.54052(10)
N6 N -0.00567(10) 0.41817(19) 0.54974(9)
N7 N 0.06120(11) 0.4306(2) 0.62159(10)
N8 N 0.07692(13) 0.38396(18) 0.61246(8)
N9 N 0.11388(13) 0.3904(2) 0.62683(11)
N10 N 0.12251(15) 0.2505(2) 0.63102(12)
N11 N 0.08692(14) 0.2409(2) 0.61613(10)
N12 N 0.07704(12) 0.1905(2) 0.62931(12)
N13 N 0.00451(12) 0.2412(2) 0.61827(11)
N14 N 0.01319(10) 0.2962(2) 0.60720(9)
N15 N -0.00197(13) 0.3448(2) 0.61448(11)
N16 N 0.06669(11) 0.30375(16) 0.51198(11)
N17 N 0.08023(13) 0.30910(16) 0.54739(12)
N18 N 0.11567(14) 0.31508(18) 0.56300(10)
O1 O 0.02994(12) -0.10390(19) 0.15385(11)
O2 O -0.02041(14) -0.0942(2) 0.10664(11)
O3 O 0.04667(12) 0.06493(16) 0.59383(10)
O4 O 0.01828(12) 0.22840(18) 0.43896(9)
O5 O -0.01411(9) 0.31341(16) 0.43097(8)
O6 O -0.02652(18) 0.4969(2) 0.09669(11)
O7 O 0.00710(12) 0.5154(2) 0.14982(12)
O8 O -0.30604(12) 0.2268(2) 0.12047(11)
O9 O -0.30620(13) 0.1476(2) 0.15116(14)
O10 O -0.13594(10) 0.17563(14) 0.20385(7)
O11 O -0.06563(8) 0.23931(13) 0.26950(8)
O12 O -0.06554(8) 0.26932(15) 0.17151(8)
O13 O -0.03781(8) 0.11690(14) 0.20645(7)
Zn3G Zn -0.355247(16) 0.17548(3) 0.116688(14)
Zn4E Zn 0.006385(15) 0.56886(3) 0.102283(13)
Zn5E Zn 0.024999(18) -0.15534(3) 0.109741(15)
O1E O 0.02994(12) 0.10390(19) 0.65385(11)
O2E O -0.02041(14) 0.0942(2) 0.60664(11)
O6E O -0.02652(18) 0.5031(2) 0.59669(11)
O7E O 0.00710(12) 0.4846(2) 0.64982(12)
O8G O 0.19396(12) 0.2732(2) 0.62047(11)
O9G O 0.19380(13) 0.3524(2) 0.65116(14)
loop_
_geom_bond_atom_site_label_1
_geom_bond_atom_site_label_2
_geom_bond_site_symmetry_1
_geom_bond_site_symmetry_2
Zn1 N3 1_555 1_555
Zn2 N2 1_555 1_555
Zn3 N9 1_555 1_555
Zn4 N6 1_555 1_555
Zn5 N1 1_555 1_555
C1 C17 1_555 1_555
C2 H1 1_555 1_555
C3 C5 1_555 1_555
C4 C2 1_555 1_555
H2 C4 1_555 1_555
C5 C6 1_555 1_555
C6 H3 1_555 1_555
C7 H4 1_555 1_555
C8 C4 1_555 1_555
H5 C8 1_555 1_555
C9 C6 1_555 1_555
H6 C9 1_555 1_555
C10 C8 1_555 1_555
H7 C10 1_555 1_555
C11 C2 1_555 1_555
C12 C9 1_555 1_555
H8 C12 1_555 1_555
C13 H9 1_555 1_555
C14 C3 1_555 1_555
H10 C14 1_555 1_555
C15 H11 1_555 1_555
C16 C13 1_555 1_555
H12 C16 1_555 1_555
C17 H13 1_555 1_555
H14 C17 1_555 1_555
C18 H15 1_555 1_555
C19 C18 1_555 1_555
H16 C19 1_555 1_555
C20 C38 1_555 1_555
C21 C1 1_555 1_555
H17 C21 1_555 1_555
H18 C21 1_555 1_555
C22 C7 1_555 1_555
H19 C22 1_555 1_555
C23 C36 1_555 1_555
C24 C31 1_555 1_555
C25 C44 1_555 1_555
C26 C1 1_555 1_555
H20 C26 1_555 1_555
H21 C26 1_555 1_555
C27 H22 1_555 1_555
C28 C7 1_555 1_555
C29 C1 1_555 1_555
H23 C29 1_555 1_555
H24 C29 1_555 1_555
C30 C35 1_555 1_555
C31 H25 1_555 1_555
C32 C27 1_555 1_555
C33 C32 1_555 1_555
C34 C24 1_555 1_555
C35 H26 1_555 1_555
C36 C52 1_555 1_555
C37 C40 1_555 1_555
C38 O8 1_555 1_555
C39 H27 1_555 1_555
C40 C39 1_555 1_555
C41 C39 1_555 1_555
H28 C41 1_555 1_555
C42 H29 1_555 1_555
C43 C56 1_555 1_555
C44 C27 1_555 1_555
H30 C44 1_555 1_555
C45 C20 1_555 1_555
H31 C45 1_555 1_555
C46 C51 1_555 1_555
C47 C32 1_555 1_555
H32 C47 1_555 1_555
C48 H33 1_555 1_555
C49 C31 1_555 1_555
H34 C49 1_555 1_555
C50 C30 1_555 1_555
H35 C50 1_555 1_555
C51 C19 1_555 1_555
H36 C51 1_555 1_555
C52 H37 1_555 1_555
C53 C40 1_555 1_555
H38 C53 1_555 1_555
C54 C15 1_555 1_555
H39 C54 1_555 1_555
C55 C15 1_555 1_555
H40 C55 1_555 1_555
C56 C13 1_555 1_555
C57 C20 1_555 1_555
H41 C57 1_555 1_555
C58 C18 1_555 1_555
H42 C58 1_555 1_555
C59 C10 1_555 1_555
C60 C46 1_555 1_555
C61 C34 1_555 1_555
H43 C61 1_555 1_555
C62 C41 1_555 1_555
C63 C25 1_555 1_555
H44 C63 1_555 1_555
C64 C65 1_555 1_555
C65 C66 1_555 1_555
C66 H45 1_555 1_555
C67 C66 1_555 1_555
H46 C67 1_555 1_555
C68 C67 1_555 1_555
H47 C68 1_555 1_555
C69 C64 1_555 1_555
H48 C69 1_555 1_555
N1 C65 1_555 1_555
N2 C24 1_555 1_555
N3 N1 1_555 1_555
N4 Zn2 1_555 1_555
N5 Zn1 1_555 1_555
N6 C34 1_555 1_555
N7 Zn4 1_555 1_555
N8 Zn1 1_555 1_555
N9 C36 1_555 1_555
N10 Zn3 1_555 1_555
N11 Zn1 1_555 1_555
N12 Zn5 1_555 1_555
N13 Zn5 1_555 1_555
N14 Zn1 1_555 1_555
N15 Zn4 1_555 1_555
N16 Zn2 1_555 1_555
N17 Zn1 1_555 1_555
N18 Zn3 1_555 1_555
O1 C37 1_555 1_555
O2 C37 1_555 1_555
O3 Zn5 1_555 1_555
O4 Zn2 1_555 1_555
O5 Zn2 1_555 1_555
O6 C43 1_555 1_555
O7 C43 1_555 1_555
O8 Zn3G 1_555 1_555
O9 C38 1_555 1_555
O10 C17 1_555 1_555
O11 C21 1_555 1_555
O12 C28 1_555 1_555
O13 C26 1_555 1_555
Zn3G O9 1_555 1_555
Zn4E O6 1_555 1_555
Zn5E O1 1_555 1_555
O1E Zn5 1_555 1_555
O2E Zn5 1_555 1_555
O6E Zn4 1_555 1_555
O7E Zn4 1_555 1_555
O8G Zn3 1_555 1_555
O9G Zn3 1_555 1_555
C3 N15 1_555 1_555
C5 N13 1_555 1_555
C11 C59 1_555 1_555
C11 N12 1_555 1_555
C12 C14 1_555 1_555
C16 C28 1_555 1_555
C22 C56 1_555 1_555
C23 C55 1_555 1_555
C23 N7 1_555 1_555
C25 O11 1_555 1_555
C29 O12 1_555 1_555
C30 O10 1_555 1_555
C33 O4 1_555 1_555
C33 O5 1_555 1_555
C35 C45 1_555 1_555
C42 C53 1_555 1_555
C42 C62 1_555 1_555
C46 N16 1_555 1_555
C47 C63 1_555 1_555
C48 C49 1_555 1_555
C48 C61 1_555 1_555
C50 C57 1_555 1_555
C52 C54 1_555 1_555
C58 C60 1_555 1_555
C59 N10 1_555 1_555
C60 N18 1_555 1_555
C62 O13 1_555 1_555
C64 N4 1_555 1_555
C68 C69 1_555 1_555
N2 N5 1_555 1_555
N3 N4 1_555 1_555
N5 N6 1_555 1_555
N7 N8 1_555 1_555
N8 N9 1_555 1_555
N10 N11 1_555 1_555
N11 N12 1_555 1_555
N13 N14 1_555 1_555
N14 N15 1_555 1_555
N16 N17 1_555 1_555
N17 N18 1_555 1_555
O2 Zn5E 1_555 1_555
O7 Zn4E 1_555 1_555

#END
