
#######################################################################
#
#                 Cambridge Crystallographic Data Centre
#                                CCDC 
#
#######################################################################
#
# If this CIF has been generated from an entry in the Cambridge 
# Structural Database, then it will include bibliographic, chemical, 
# crystal, experimental, refinement or atomic coordinate data resulting 
# from the CCDC's data processing and validation procedures.
#
#######################################################################

data_FAYQOM01
_symmetry_cell_setting           triclinic
_symmetry_space_group_name_H-M   'P -1'
_symmetry_Int_Tables_number      2
_space_group_name_Hall           '-P 1'
loop_
_symmetry_equiv_pos_site_id
_symmetry_equiv_pos_as_xyz
1 x,y,z
2 -x,-y,-z
_cell_length_a                   8.360
_cell_length_b                   10.991
_cell_length_c                   10.974
_cell_angle_alpha                114.273
_cell_angle_beta                 97.147
_cell_angle_gamma                92.651
_cell_volume                     906.758
loop_
_atom_site_label
_atom_site_type_symbol
_atom_site_fract_x
_atom_site_fract_y
_atom_site_fract_z
Zn1 Zn 0.6959(6) 0.3874(4) 0.1572(7)
O1 O 0.9194(6) 0.3699(5) 0.2135(8)
O2 O 0.8237(7) 0.3130(5) 0.3654(8)
O3 O 0.7144(6) 0.4463(5) 0.0093(7)
O4 O 0.7702(7) 0.2401(5) -0.1139(8)
N1 N 0.6441(4) 0.5673(3) 0.2936(5)
C1 C 0.7229(5) 0.6782(4) 0.2970(6)
H1 H 0.8126(12) 0.6638(10) 0.2329(14)
C2 C 0.6908(5) 0.8079(4) 0.3778(6)
H2 H 0.7564(12) 0.8933(10) 0.3772(14)
C3 C 0.5683(5) 0.8244(4) 0.4585(6)
C4 C 0.4883(5) 0.7087(4) 0.4570(7)
H3 H 0.3970(14) 0.7138(11) 0.5199(15)
C5 C 0.5305(5) 0.5838(4) 0.3751(6)
H4 H 0.4673(13) 0.4919(11) 0.3721(15)
N2 N 0.4987(4) 0.2544(3) 0.1087(4)
C6 C 0.4837(5) 0.1571(4) 0.1511(6)
H5 H 0.5849(13) 0.1574(10) 0.2264(15)
C7 C 0.3443(5) 0.0634(4) 0.1080(7)
H6 H 0.3378(13) -0.0160(10) 0.1418(15)
C8 C 0.2204(5) 0.0682(4) 0.0127(6)
C9 C 0.2388(5) 0.1706(4) -0.0322(6)
H7 H 0.1431(13) 0.1774(10) -0.1048(14)
C10 C 0.3782(5) 0.2624(4) 0.0169(7)
H8 H 0.3944(13) 0.3433(11) -0.0125(15)
C11 C 0.5271(5) 0.9638(4) 0.5439(6)
H9 H 0.6368(12) 1.0211(9) 0.6182(13)
H10 H 0.4308(13) 0.9564(9) 0.6005(14)
C12 C 0.0701(5) -0.0300(4) -0.0412(6)
H11 H 0.0930(11) -0.1245(9) -0.0310(13)
H12 H 0.0308(13) -0.0556(11) -0.1460(15)
C13 C 0.9396(5) 0.3415(4) 0.3141(6)
C14 C 1.1159(5) 0.3431(4) 0.3750(7)
H13 H 1.1204(16) 0.2858(13) 0.4354(18)
H14 H 1.1906(15) 0.3062(12) 0.2942(17)
H15 H 1.1605(13) 0.4465(11) 0.4437(15)
C15 C 0.7684(5) 0.3577(4) -0.0903(6)
C16 C 0.8419(6) 0.4127(4) -0.1813(7)
H16 H 0.8373(13) 0.3348(10) -0.2852(15)
H17 H 0.9648(16) 0.4507(13) -0.1361(17)
H18 H 0.7786(14) 0.4994(11) -0.1813(15)
Zn1A Zn 0.3041(6) 1.6126(4) 0.8428(7)
Zn1A_2 Zn -0.6959(6) -0.3874(4) -0.1572(7)
O1A O 0.0806(6) 1.6301(5) 0.7865(8)
O2A O 0.1763(7) 1.6870(5) 0.6346(8)
O3A O 0.2856(6) 1.5537(5) 0.9907(7)
O4A O 0.2298(7) 1.7599(5) 1.1139(8)
N1A N 0.3559(4) 1.4327(3) 0.7064(5)
C1A C 0.2771(5) 1.3218(4) 0.7030(6)
H1A H 0.1874(12) 1.3362(10) 0.7671(14)
C2A C 0.3092(5) 1.1921(4) 0.6222(6)
H2A H 0.2436(12) 1.1067(10) 0.6228(14)
C3A C 0.4317(5) 1.1756(4) 0.5415(6)
C4A C 0.5117(5) 1.2913(4) 0.5430(7)
H3A H 0.6030(14) 1.2862(11) 0.4801(15)
C5A C 0.4695(5) 1.4162(4) 0.6249(6)
H4A H 0.5327(13) 1.5081(11) 0.6279(15)
N2A N -0.4987(4) -0.2544(3) -0.1087(4)
N2A_2 N 0.5013(4) 1.7456(3) 0.8913(4)
C6A C -0.4837(5) -0.1571(4) -0.1511(6)
H5A H -0.5849(13) -0.1574(10) -0.2264(15)
C7A C -0.3443(5) -0.0634(4) -0.1080(7)
H6A H -0.3378(13) 0.0160(10) -0.1418(15)
C8A C -0.2204(5) -0.0682(4) -0.0127(6)
C9A C -0.2388(5) -0.1706(4) 0.0322(6)
H7A H -0.1431(13) -0.1774(10) 0.1048(14)
C10A C -0.3782(5) -0.2624(4) -0.0169(7)
H8A H -0.3944(13) -0.3433(11) 0.0125(15)
C11A C 0.4729(5) 1.0362(4) 0.4561(6)
H9A H 0.3632(12) 0.9789(9) 0.3818(13)
H10A H 0.5692(13) 1.0436(9) 0.3995(14)
C12A C -0.0701(5) 0.0300(4) 0.0412(6)
H11A H -0.0930(11) 0.1245(9) 0.0310(13)
H12A H -0.0308(13) 0.0556(11) 0.1460(15)
C13A C 0.0604(5) 1.6585(4) 0.6859(6)
C14A C -0.1159(5) 1.6569(4) 0.6250(7)
H13A H -0.1204(16) 1.7142(13) 0.5646(18)
H14A H -0.1906(15) 1.6938(12) 0.7058(17)
H15A H -0.1605(13) 1.5535(11) 0.5563(15)
C15A C 0.2316(5) 1.6423(4) 1.0903(6)
C16A C 0.1581(6) 1.5873(4) 1.1813(7)
H16A H 0.1627(13) 1.6652(10) 1.2852(15)
H17A H 0.0352(16) 1.5493(13) 1.1361(17)
H18A H 0.2214(14) 1.5006(11) 1.1813(15)
O5 O 0.8769(7) 0.1164(6) 0.4549(8)
H19 H 0.8670(12) 0.1916(10) 0.4287(13)
H20 H 0.9435(12) 0.0594(10) 0.3904(14)
O6 O 0.9471(7) 0.0902(5) -0.3054(9)
H21 H 0.8860(14) 0.1368(11) -0.2395(15)
H22 H 0.9179(13) 0.1114(10) -0.3848(16)
loop_
_geom_bond_atom_site_label_1
_geom_bond_atom_site_label_2
_geom_bond_site_symmetry_1
_geom_bond_site_symmetry_2
Zn1 O1 1_555 1_555
O1 C13 1_555 1_555
O2 C13 1_555 1_555
O3 Zn1 1_555 1_555
O4 C15 1_555 1_555
N1 Zn1 1_555 1_555
C1 N1 1_555 1_555
H1 C1 1_555 1_555
C2 C1 1_555 1_555
H2 C2 1_555 1_555
C3 C2 1_555 1_555
C4 C3 1_555 1_555
H3 C4 1_555 1_555
C5 N1 1_555 1_555
H4 C5 1_555 1_555
N2 Zn1 1_555 1_555
C6 N2 1_555 1_555
H5 C6 1_555 1_555
C7 C6 1_555 1_555
H6 C7 1_555 1_555
C8 C7 1_555 1_555
C9 C8 1_555 1_555
H7 C9 1_555 1_555
C10 N2 1_555 1_555
H8 C10 1_555 1_555
C11 C3 1_555 1_555
H9 C11 1_555 1_555
H10 C11 1_555 1_555
C12 C8 1_555 1_555
H11 C12 1_555 1_555
H12 C12 1_555 1_555
C13 C14 1_555 1_555
C14 H13 1_555 1_555
H14 C14 1_555 1_555
H15 C14 1_555 1_555
C15 O3 1_555 1_555
C16 C15 1_555 1_555
H16 C16 1_555 1_555
H17 C16 1_555 1_555
H18 C16 1_555 1_555
O5 H19 1_555 1_555
H20 O5 1_555 1_555
O6 H21 1_555 1_555
H22 O6 1_555 1_555
Zn1A O1A 1_555 1_555
Zn1A_2 N2A 1_555 1_555
O1A C13A 1_555 1_555
O2A C13A 1_555 1_555
O3A Zn1A 1_555 1_555
O4A C15A 1_555 1_555
N1A Zn1A 1_555 1_555
C1A N1A 1_555 1_555
H1A C1A 1_555 1_555
C2A C1A 1_555 1_555
H2A C2A 1_555 1_555
C3A C2A 1_555 1_555
C4A C3A 1_555 1_555
H3A C4A 1_555 1_555
C5A N1A 1_555 1_555
H4A C5A 1_555 1_555
N2A C6A 1_555 1_555
N2A_2 Zn1A 1_555 1_555
C6A H5A 1_555 1_555
C7A C6A 1_555 1_555
H6A C7A 1_555 1_555
C8A C7A 1_555 1_555
C9A C8A 1_555 1_555
H7A C9A 1_555 1_555
C10A N2A 1_555 1_555
H8A C10A 1_555 1_555
C11A C11 1_555 1_555
H9A C11A 1_555 1_555
H10A C11A 1_555 1_555
C12A C12 1_555 1_555
H11A C12A 1_555 1_555
H12A C12A 1_555 1_555
C13A C14A 1_555 1_555
C14A H13A 1_555 1_555
H14A C14A 1_555 1_555
H15A C14A 1_555 1_555
C15A O3A 1_555 1_555
C16A C15A 1_555 1_555
H16A C16A 1_555 1_555
H17A C16A 1_555 1_555
H18A C16A 1_555 1_555
C4 C5 1_555 1_555
C9 C10 1_555 1_555
C3A C11A 1_555 1_555
C4A C5A 1_555 1_555
C8A C12A 1_555 1_555
C9A C10A 1_555 1_555

#END
