
#######################################################################
#
#                 Cambridge Crystallographic Data Centre
#                                CCDC 
#
#######################################################################
#
# If this CIF has been generated from an entry in the Cambridge 
# Structural Database, then it will include bibliographic, chemical, 
# crystal, experimental, refinement or atomic coordinate data resulting 
# from the CCDC's data processing and validation procedures.
#
#######################################################################

data_FAYQOM02
_symmetry_cell_setting           triclinic
_symmetry_space_group_name_H-M   'P -1'
_symmetry_Int_Tables_number      2
_space_group_name_Hall           '-P 1'
loop_
_symmetry_equiv_pos_site_id
_symmetry_equiv_pos_as_xyz
1 x,y,z
2 -x,-y,-z
_cell_length_a                   8.360
_cell_length_b                   10.966
_cell_length_c                   11.155
_cell_angle_alpha                114.381
_cell_angle_beta                 96.346
_cell_angle_gamma                93.170
_cell_volume                     919.965
loop_
_atom_site_label
_atom_site_type_symbol
_atom_site_fract_x
_atom_site_fract_y
_atom_site_fract_z
Zn1 Zn 0.6965(7) 0.3860(5) 0.1568(6)
O1 O 0.9152(8) 0.3753(7) 0.2222(8)
O2 O 0.8150(9) 0.3040(9) 0.3566(9)
O3 O 0.7203(8) 0.4437(6) 0.0166(7)
O4 O 0.7845(11) 0.2415(7) -0.1005(8)
N1 N 0.6387(4) 0.5667(3) 0.2912(4)
C1 C 0.7134(8) 0.6778(5) 0.2925(7)
H1 H 0.8051(17) 0.6627(11) 0.2283(18)
C2 C 0.6823(7) 0.8054(6) 0.3724(6)
H2 H 0.7432(19) 0.8900(13) 0.3627(18)
C3 C 0.5645(7) 0.8218(5) 0.4568(6)
C4 C 0.4923(8) 0.7062(6) 0.4570(7)
H3 H 0.3967(22) 0.7158(14) 0.5170(20)
C5 C 0.5313(7) 0.5828(6) 0.3758(6)
H4 H 0.4774(20) 0.4938(15) 0.3790(16)
N2 N 0.4984(4) 0.2540(3) 0.1076(4)
C6 C 0.4762(7) 0.1590(5) 0.1491(6)
H5 H 0.5752(17) 0.1573(13) 0.2195(16)
C7 C 0.3404(7) 0.0653(6) 0.1060(6)
H6 H 0.3302(18) -0.0107(17) 0.1380(16)
C8 C 0.2178(6) 0.0720(5) 0.0130(6)
C9 C 0.2409(9) 0.1745(6) -0.0265(8)
H7 H 0.1552(22) 0.1814(23) -0.0982(26)
C10 C 0.3825(7) 0.2629(7) 0.0223(8)
H8 H 0.3975(20) 0.3409(22) -0.0121(22)
C11 C 0.5247(10) 0.9592(6) 0.5398(7)
H9 H 0.6263(23) 1.0169(18) 0.6127(17)
H10 H 0.4220(24) 0.9525(16) 0.5916(18)
C12 C 0.0705(7) -0.0272(6) -0.0393(9)
H11 H 0.0953(16) -0.1200(12) -0.0283(16)
H12 H 0.0334(19) -0.0468(16) -0.1362(17)
C13 C 0.9325(6) 0.3397(5) 0.3182(6)
C14 C 1.1022(10) 0.3448(11) 0.3788(11)
H13 H 1.1224(25) 0.2774(41) 0.4023(50)
H14 H 1.1845(26) 0.3301(39) 0.3149(29)
H15 H 1.1354(34) 0.4231(42) 0.4525(27)
C15 C 0.7766(7) 0.3593(6) -0.0846(6)
C16 C 0.8369(12) 0.4125(11) -0.1762(10)
H16 H 0.8488(46) 0.3444(37) -0.2628(34)
H17 H 0.9487(51) 0.4610(43) -0.1409(31)
H18 H 0.7706(41) 0.4901(38) -0.1799(33)
Zn1A Zn 0.3035(7) 1.6140(5) 0.8432(6)
Zn1A_2 Zn -0.6965(7) -0.3860(5) -0.1568(6)
O1A O 0.0848(8) 1.6247(7) 0.7778(8)
O2A O 0.1850(9) 1.6960(9) 0.6434(9)
O3A O 0.2797(8) 1.5563(6) 0.9834(7)
O4A O 0.2155(11) 1.7585(7) 1.1005(8)
N1A N 0.3613(4) 1.4333(3) 0.7088(4)
C1A C 0.2866(8) 1.3222(5) 0.7075(7)
H1A H 0.1949(17) 1.3373(11) 0.7717(18)
C2A C 0.3177(7) 1.1946(6) 0.6276(6)
H2A H 0.2568(19) 1.1100(13) 0.6373(18)
C3A C 0.4355(7) 1.1782(5) 0.5432(6)
C4A C 0.5077(8) 1.2938(6) 0.5430(7)
H3A H 0.6033(22) 1.2842(14) 0.4830(20)
C5A C 0.4687(7) 1.4172(6) 0.6242(6)
H4A H 0.5226(20) 1.5062(15) 0.6210(16)
N2A N -0.4984(4) -0.2540(3) -0.1076(4)
N2A_2 N 0.5016(4) 1.7460(3) 0.8924(4)
C6A C -0.4762(7) -0.1590(5) -0.1491(6)
H5A H -0.5752(17) -0.1573(13) -0.2195(16)
C7A C -0.3404(7) -0.0653(6) -0.1060(6)
H6A H -0.3302(18) 0.0107(17) -0.1380(16)
C8A C -0.2178(6) -0.0720(5) -0.0130(6)
C9A C -0.2409(9) -0.1745(6) 0.0265(8)
H7A H -0.1552(22) -0.1814(23) 0.0982(26)
C10A C -0.3825(7) -0.2629(7) -0.0223(8)
H8A H -0.3975(20) -0.3409(22) 0.0121(22)
C11A C 0.4753(10) 1.0408(6) 0.4602(7)
H9A H 0.3737(23) 0.9831(18) 0.3873(17)
H10A H 0.5780(24) 1.0475(16) 0.4084(18)
C12A C -0.0705(7) 0.0272(6) 0.0393(9)
H11A H -0.0953(16) 0.1200(12) 0.0283(16)
H12A H -0.0334(19) 0.0468(16) 0.1362(17)
C13A C 0.0675(6) 1.6603(5) 0.6818(6)
C14A C -0.1022(10) 1.6552(11) 0.6212(11)
H13A H -0.1224(25) 1.7226(41) 0.5977(50)
H14A H -0.1845(26) 1.6699(39) 0.6851(29)
H15A H -0.1354(34) 1.5769(42) 0.5475(27)
C15A C 0.2234(7) 1.6407(6) 1.0846(6)
C16A C 0.1631(12) 1.5875(11) 1.1762(10)
H16A H 0.1512(46) 1.6556(37) 1.2628(34)
H17A H 0.0513(51) 1.5390(43) 1.1409(31)
H18A H 0.2294(41) 1.5099(38) 1.1799(33)
O5 O 0.8818(13) 0.1188(14) 0.4528(14)
H19 H 0.8675(17) 0.1834(16) 0.4282(14)
H20 H 0.9460(21) 0.0626(20) 0.3935(16)
O6 O 0.9378(14) 0.0860(12) -0.3072(14)
H21 H 0.8832(20) 0.1390(19) -0.2353(21)
H22 H 0.9130(22) 0.1055(16) -0.3795(24)
loop_
_geom_bond_atom_site_label_1
_geom_bond_atom_site_label_2
_geom_bond_site_symmetry_1
_geom_bond_site_symmetry_2
Zn1 O1 1_555 1_555
O1 C13 1_555 1_555
O2 C13 1_555 1_555
O3 Zn1 1_555 1_555
O4 C15 1_555 1_555
N1 Zn1 1_555 1_555
C1 N1 1_555 1_555
H1 C1 1_555 1_555
C2 C1 1_555 1_555
H2 C2 1_555 1_555
C3 C2 1_555 1_555
C4 C3 1_555 1_555
H3 C4 1_555 1_555
C5 N1 1_555 1_555
H4 C5 1_555 1_555
N2 Zn1 1_555 1_555
C6 N2 1_555 1_555
H5 C6 1_555 1_555
C7 C6 1_555 1_555
H6 C7 1_555 1_555
C8 C7 1_555 1_555
C9 C8 1_555 1_555
H7 C9 1_555 1_555
C10 N2 1_555 1_555
H8 C10 1_555 1_555
C11 C3 1_555 1_555
H9 C11 1_555 1_555
H10 C11 1_555 1_555
C12 C8 1_555 1_555
H11 C12 1_555 1_555
H12 C12 1_555 1_555
C13 C14 1_555 1_555
C14 H13 1_555 1_555
H14 C14 1_555 1_555
H15 C14 1_555 1_555
C15 O3 1_555 1_555
C16 C15 1_555 1_555
H16 C16 1_555 1_555
H17 C16 1_555 1_555
H18 C16 1_555 1_555
O5 H19 1_555 1_555
H20 O5 1_555 1_555
O6 H21 1_555 1_555
H22 O6 1_555 1_555
Zn1A O1A 1_555 1_555
Zn1A_2 N2A 1_555 1_555
O1A C13A 1_555 1_555
O2A C13A 1_555 1_555
O3A Zn1A 1_555 1_555
O4A C15A 1_555 1_555
N1A Zn1A 1_555 1_555
C1A N1A 1_555 1_555
H1A C1A 1_555 1_555
C2A C1A 1_555 1_555
H2A C2A 1_555 1_555
C3A C2A 1_555 1_555
C4A C3A 1_555 1_555
H3A C4A 1_555 1_555
C5A N1A 1_555 1_555
H4A C5A 1_555 1_555
N2A C6A 1_555 1_555
N2A_2 Zn1A 1_555 1_555
C6A H5A 1_555 1_555
C7A C6A 1_555 1_555
H6A C7A 1_555 1_555
C8A C7A 1_555 1_555
C9A C8A 1_555 1_555
H7A C9A 1_555 1_555
C10A N2A 1_555 1_555
H8A C10A 1_555 1_555
C11A C11 1_555 1_555
H9A C11A 1_555 1_555
H10A C11A 1_555 1_555
C12A C12 1_555 1_555
H11A C12A 1_555 1_555
H12A C12A 1_555 1_555
C13A C14A 1_555 1_555
C14A H13A 1_555 1_555
H14A C14A 1_555 1_555
H15A C14A 1_555 1_555
C15A O3A 1_555 1_555
C16A C15A 1_555 1_555
H16A C16A 1_555 1_555
H17A C16A 1_555 1_555
H18A C16A 1_555 1_555
C4 C5 1_555 1_555
C9 C10 1_555 1_555
C3A C11A 1_555 1_555
C4A C5A 1_555 1_555
C8A C12A 1_555 1_555
C9A C10A 1_555 1_555

#END
