
#######################################################################
#
#                 Cambridge Crystallographic Data Centre
#                                CCDC 
#
#######################################################################
#
# If this CIF has been generated from an entry in the Cambridge 
# Structural Database, then it will include bibliographic, chemical, 
# crystal, experimental, refinement or atomic coordinate data resulting 
# from the CCDC's data processing and validation procedures.
#
#######################################################################

data_FAYQAZ
_symmetry_cell_setting           monoclinic
_symmetry_space_group_name_H-M   'C 2/c'
_symmetry_Int_Tables_number      15
_space_group_name_Hall           '-C 2yn'
loop_
_symmetry_equiv_pos_site_id
_symmetry_equiv_pos_as_xyz
1 x,y,z
2 -x,y,1/2-z
3 1/2+x,1/2+y,z
4 1/2-x,1/2+y,1/2-z
5 -x,-y,-z
6 x,-y,1/2+z
7 1/2-x,1/2-y,-z
8 1/2+x,1/2-y,1/2+z
_cell_length_a                   42.5614(4)
_cell_length_b                   19.89766(18)
_cell_length_c                   41.130(2)
_cell_angle_alpha                90
_cell_angle_beta                 120.0768(2)
_cell_angle_gamma                90
_cell_volume                     30141.9
loop_
_atom_site_label
_atom_site_type_symbol
_atom_site_fract_x
_atom_site_fract_y
_atom_site_fract_z
Zn1 Zn 0.284610(18) -0.03755(4) 0.329773(19)
Zn2 Zn 0.22933(2) -0.04975(4) 0.37239(2)
Zn3 Zn 0.34264(2) -0.17812(4) 0.35679(2)
Zn4 Zn 0.33618(2) 0.11093(5) 0.35888(3)
Zn5 Zn 0.22719(3) -0.03495(6) 0.23100(2)
C1 C 0.2935(2) -0.2059(5) 0.2711(3)
C2 C 0.2695(3) -0.1687(6) 0.2436(3)
C3 C 0.2506(3) -0.1900(6) 0.2061(4)
H1 H 0.2327 -0.1640 0.1869
C4 C 0.2601(3) -0.2499(8) 0.2000(3)
H2 H 0.2486 -0.2666 0.1756
C5 C 0.2872(3) -0.2897(5) 0.2293(4)
C6 C 0.3061(2) -0.2685(5) 0.2675(3)
H3 H 0.3243 -0.2930 0.2873
C7 C 0.3001(2) -0.3621(5) 0.2230(3)
H4 H 0.2866 -0.3737 0.1968
H5 H 0.2960 -0.3952 0.2374
H6 H 0.3255 -0.3606 0.2310
C8 C 0.3019(3) -0.2098(5) 0.3987(2)
C9 C 0.2748(3) -0.1805(5) 0.4023(3)
C10 C 0.2614(3) -0.2101(7) 0.4235(4)
H7 H 0.2424 -0.1906 0.4252
C11 C 0.2764(4) -0.2663(8) 0.4412(4)
H8 H 0.2696 -0.2854 0.4574
C12 C 0.3026(5) -0.2969(7) 0.4352(4)
C13 C 0.3179(3) -0.2689(7) 0.4159(3)
H9 H 0.3372 -0.2882 0.4146
C14 C 0.3183(5) -0.3665(8) 0.4548(5)
H10 H 0.3056 -0.3812 0.4674
H11 H 0.3436 -0.3618 0.4728
H12 H 0.3151 -0.3991 0.4362
C15 C 0.1705(3) -0.0618(5) 0.2870(4)
C16 C 0.1691(3) -0.0579(5) 0.2547(4)
C17 C 0.1383(4) -0.0716(6) 0.2186(3)
H13 H 0.1390 -0.0727 0.1964
C18 C 0.1080(4) -0.0825(8) 0.2204(5)
C19 C 0.1085(5) -0.0899(8) 0.2545(6)
H14 H 0.0871 -0.1025 0.2537
C20 C 0.1401(4) -0.0790(6) 0.2905(4)
H15 H 0.1406 -0.0828 0.3133
C21 C 0.0733(4) -0.1044(9) 0.1843(4)
H16 H 0.0538 -0.1097 0.1896
H17 H 0.0776 -0.1464 0.1757
H18 H 0.0668 -0.0708 0.1653
C22 C 0.3969(2) -0.0644(5) 0.3863(2)
C23 C 0.39771(19) 0.0054(5) 0.3878(2)
C24 C 0.4308(3) 0.0389(3) 0.4058(3)
H19 H 0.4314 0.0856 0.4068
C25 C 0.46306(19) 0.0026(5) 0.4223(3)
C26 C 0.4622(2) -0.0672(5) 0.4208(3)
H20 H 0.4838 -0.0915 0.4318
C27 C 0.4291(3) -0.1007(3) 0.4028(3)
H21 H 0.4285 -0.1474 0.4018
C28 C 0.4985(8) 0.025(2) 0.4559(9)
H22 H 0.5162 -0.0102 0.4627
H23 H 0.4947 0.0336 0.4767
H24 H 0.5069 0.0648 0.4497
C29 C 0.2903(4) 0.1338(6) 0.2707(5)
C30 C 0.2664(4) 0.0954(11) 0.2442(4)
C31 C 0.2505(3) 0.1199(8) 0.2066(4)
H25 H 0.2329 0.0957 0.1862
C32 C 0.2624(5) 0.1799(11) 0.2024(5)
H26 H 0.2527 0.1946 0.1778
C33 C 0.2867(5) 0.2223(6) 0.2292(6)
C34 C 0.3031(3) 0.2013(7) 0.2676(4)
H27 H 0.3196 0.2268 0.2879
C35 C 0.2934(3) 0.2863(6) 0.2179(4)
H28 H 0.3110 0.3105 0.2396
H29 H 0.2712 0.3116 0.2055
H30 H 0.3024 0.2798 0.2009
C36 C -0.1085(3) 0.2388(6) 0.3880(4)
C37 C -0.0785(2) 0.1853(5) 0.3949(3)
C38 C -0.0799(3) 0.1513(6) 0.3675(3)
H31 H -0.0978 0.1585 0.3426
C39 C -0.0528(3) 0.1031(6) 0.3779(3)
C40 C -0.0275(2) 0.0878(5) 0.4132(3)
C41 C -0.02809(18) 0.1251(5) 0.4391(2)
H32 H -0.0105 0.1169 0.4640
C42 C -0.0536(2) 0.1772(4) 0.4322(3)
H33 H -0.0533 0.2031 0.4511
C43 C -0.0791(3) 0.0724(6) 0.3122(3)
H34 H -0.0746 0.0411 0.2973
H35 H -0.0783 0.1174 0.3043
H36 H -0.1027 0.0639 0.3091
C44 C 0.02025(17) 0.0182(4) 0.45617(17)
H37 H 0.0071 0.0084 0.4693
H38 H 0.0375 0.0539 0.4695
C45 C 0.03955(16) -0.0418(3) 0.45514(17)
C46 C 0.01287(16) -0.0972(3) 0.43610(16)
H39 H -0.0036 -0.0856 0.4100
H40 H 0.0255 -0.1383 0.4368
C47 C 0.06535(17) -0.0621(3) 0.49440(17)
H41 H 0.0526 -0.0686 0.5082
H42 H 0.0774 -0.1037 0.4948
C48 C 0.05919(17) -0.0251(3) 0.43388(17)
H43 H 0.0418 -0.0148 0.4079
H44 H 0.0747 0.0138 0.4450
C49 C -0.0343(3) -0.1490(7) 0.4373(3)
C50 C -0.0679(4) -0.1263(6) 0.4115(3)
H45 H -0.0728 -0.0810 0.4057
C51 C -0.0963(3) -0.1799(10) 0.3932(3)
H46 H -0.1180 -0.1679 0.3720
C52 C -0.0931(4) -0.2370(6) 0.4037(5)
C53 C -0.0623(5) -0.2534(7) 0.4312(4)
H47 H -0.0575 -0.2970 0.4407
C54 C -0.0363(4) -0.2026(9) 0.4466(5)
C55 C 0.0014(5) -0.2946(10) 0.4936(7)
H48 H 0.0265 -0.3058 0.5102
H49 H -0.0101 -0.3303 0.4757
H50 H -0.0106 -0.2886 0.5078
C56 C 0.1830(3) -0.0562(8) 0.3905(3)
C57 C -0.1273(5) -0.2943(10) 0.3742(8)
C58 C 0.1133(2) -0.0091(5) 0.5475(3)
C59 C 0.11688(19) -0.0580(4) 0.5725(3)
H51 H 0.1036 -0.0975 0.5633
C60 C 0.1395(2) -0.0511(5) 0.6112(3)
H52 H 0.1405 -0.0841 0.6277
C61 C 0.1595(3) 0.0037(7) 0.6236(3)
C62 C 0.1576(3) 0.0551(5) 0.6007(4)
H53 H 0.1715 0.0939 0.6101
C63 C 0.1336(3) 0.0461(5) 0.5629(3)
C64 C 0.1466(4) 0.1525(7) 0.5495(3)
H54 H 0.1413 0.1800 0.5281
H55 H 0.1723 0.1459 0.5645
H56 H 0.1379 0.1745 0.5643
C65 C 0.1835(4) 0.0105(7) 0.6657(4)
C66 C 0.1031(2) -0.0738(6) 0.4233(2)
C67 C 0.1068(2) -0.0173(6) 0.4094(3)
H57 H 0.0922 0.0193 0.4070
C68 C 0.1336(3) -0.0117(5) 0.3975(2)
H58 H 0.1362 0.0279 0.3871
C69 C 0.1549(2) -0.0665(7) 0.4022(3)
C70 C 0.1500(3) -0.1201(7) 0.4158(3)
H59 H 0.1645 -0.1575 0.4192
C71 C 0.1235(3) -0.1233(7) 0.4255(3)
C72 C 0.1329(6) -0.2247(11) 0.4440(7)
H60 H 0.1276 -0.2575 0.4577
H61 H 0.1587 -0.2175 0.4565
H62 H 0.1245 -0.2408 0.4190
C73 C 0.2908(3) 0.1254(6) 0.3981(3)
C74 C 0.2654(3) 0.0888(6) 0.3990(3)
C75 C 0.2485(3) 0.1086(6) 0.4184(3)
H63 H 0.2310 0.0823 0.4195
C76 C 0.2591(5) 0.1705(9) 0.4363(5)
C77 C 0.2847(5) 0.2117(7) 0.4329(4)
H64 H 0.2901 0.2544 0.4436
C78 C 0.3016(3) 0.1880(7) 0.4139(4)
H65 H 0.3191 0.2128 0.4119
C79 C 0.2418(4) 0.2031(8) 0.4578(4)
H66 H 0.2250 0.1721 0.4588
H67 H 0.2292 0.2433 0.4450
H68 H 0.2605 0.2140 0.4828
N1 N 0.26220(16) -0.1105(3) 0.2547(2)
N2 N 0.28421(19) -0.1109(3) 0.2906(2)
N3 N 0.30441(14) -0.1673(4) 0.30154(19)
N4 N 0.31007(14) -0.1713(4) 0.37711(16)
N5 N 0.28787(16) -0.1183(3) 0.36740(13)
N6 N 0.26660(14) -0.1231(3) 0.38285(17)
N7 N 0.2054(2) -0.0500(3) 0.31538(16)
N8 N 0.22578(16) -0.0419(3) 0.2999(2)
N9 N 0.2052(2) -0.0434(3) 0.2632(2)
N10 N 0.36170(19) 0.0206(3) 0.36915(18)
N11 N 0.34311(15) -0.0361(4) 0.35902(14)
N12 N 0.36430(17) -0.0872(4) 0.36855(17)
N13 N 0.30035(16) 0.0979(5) 0.30234(18)
N14 N 0.2817(2) 0.0408(3) 0.2913(2)
N15 N 0.2601(2) 0.0378(4) 0.2551(3)
N16 N 0.30100(16) 0.0928(4) 0.37725(19)
N17 N 0.28278(17) 0.0352(3) 0.36788(14)
N18 N 0.26009(16) 0.0311(3) 0.38125(17)
O1 O -0.1085(3) 0.2703(5) 0.4126(3)
O2 O -0.12910(15) 0.2483(3) 0.3534(2)
O3 O 0.1972(2) -0.1093(5) 0.3886(2)
O4 O 0.1892(2) -0.0064(5) 0.3809(3)
O5 O -0.1221(3) -0.3327(5) 0.3948(3)
O6 O 0.1824(2) -0.0320(5) 0.6869(2)
O7 O 0.2047(2) 0.0596(4) 0.67707(16)
O8 O -0.1526(3) -0.2606(6) 0.3674(3)
O9 O -0.00413(13) 0.0386(3) 0.41921(13)
O10 O -0.0009(4) -0.2271(6) 0.4719(3)
O11 O 0.1187(3) -0.1755(6) 0.4427(4)
O12 O 0.12964(18) 0.0915(4) 0.5375(2)
O13 O 0.09138(13) -0.0085(2) 0.51080(16)
O14 O 0.08021(14) -0.0814(3) 0.43588(13)
O15 O -0.00664(14) -0.1066(3) 0.45483(13)
O16 O -0.05148(17) 0.0645(4) 0.3518(2)
Zn3B Zn -0.15736(2) 0.32188(4) 0.35679(2)
Zn4B Zn -0.16382(2) -0.38907(5) 0.35888(3)
Zn5E Zn 0.22719(3) 0.03495(6) 0.73100(2)
O1B O 0.3915(3) -0.2297(5) 0.4126(3)
O2B O 0.37090(15) -0.2517(3) 0.3534(2)
O5B O 0.3779(3) 0.1673(5) 0.3948(3)
O6E O 0.1824(2) 0.0320(5) 0.1869(2)
O7E O 0.2047(2) -0.0596(4) 0.17707(16)
loop_
_geom_bond_atom_site_label_1
_geom_bond_atom_site_label_2
_geom_bond_site_symmetry_1
_geom_bond_site_symmetry_2
Zn1 N2 1_555 1_555
Zn2 N6 1_555 1_555
Zn3 N3 1_555 1_555
Zn4 N10 1_555 1_555
Zn5 N1 1_555 1_555
C1 C2 1_555 1_555
C2 C3 1_555 1_555
C3 H1 1_555 1_555
C4 C3 1_555 1_555
H2 C4 1_555 1_555
C5 C4 1_555 1_555
C6 C1 1_555 1_555
H3 C6 1_555 1_555
C7 C5 1_555 1_555
H4 C7 1_555 1_555
H5 C7 1_555 1_555
H6 C7 1_555 1_555
C8 C9 1_555 1_555
C9 C10 1_555 1_555
C10 H7 1_555 1_555
C11 C10 1_555 1_555
H8 C11 1_555 1_555
C12 C11 1_555 1_555
C13 C8 1_555 1_555
H9 C13 1_555 1_555
C14 C12 1_555 1_555
H10 C14 1_555 1_555
H11 C14 1_555 1_555
H12 C14 1_555 1_555
C15 C16 1_555 1_555
C16 C17 1_555 1_555
C17 H13 1_555 1_555
C18 C17 1_555 1_555
C19 C18 1_555 1_555
H14 C19 1_555 1_555
C20 C15 1_555 1_555
H15 C20 1_555 1_555
C21 C18 1_555 1_555
H16 C21 1_555 1_555
H17 C21 1_555 1_555
H18 C21 1_555 1_555
C22 C23 1_555 1_555
C23 C24 1_555 1_555
C24 H19 1_555 1_555
C25 C24 1_555 1_555
C26 C25 1_555 1_555
H20 C26 1_555 1_555
C27 C22 1_555 1_555
H21 C27 1_555 1_555
C28 C25 1_555 1_555
H22 C28 1_555 1_555
H23 C28 1_555 1_555
H24 C28 1_555 1_555
C29 C30 1_555 1_555
C30 C31 1_555 1_555
C31 H25 1_555 1_555
C32 C31 1_555 1_555
H26 C32 1_555 1_555
C33 C32 1_555 1_555
C34 C29 1_555 1_555
H27 C34 1_555 1_555
C35 C33 1_555 1_555
H28 C35 1_555 1_555
H29 C35 1_555 1_555
H30 C35 1_555 1_555
C36 C37 1_555 1_555
C37 C38 1_555 1_555
C38 H31 1_555 1_555
C39 C38 1_555 1_555
C40 C39 1_555 1_555
C41 C40 1_555 1_555
H32 C41 1_555 1_555
C42 C37 1_555 1_555
H33 C42 1_555 1_555
C43 H34 1_555 1_555
H35 C43 1_555 1_555
H36 C43 1_555 1_555
C44 H37 1_555 1_555
H38 C44 1_555 1_555
C45 C44 1_555 1_555
C46 C45 1_555 1_555
H39 C46 1_555 1_555
H40 C46 1_555 1_555
C47 C45 1_555 1_555
H41 C47 1_555 1_555
H42 C47 1_555 1_555
C48 C45 1_555 1_555
H43 C48 1_555 1_555
H44 C48 1_555 1_555
C49 C50 1_555 1_555
C50 H45 1_555 1_555
C51 C50 1_555 1_555
H46 C51 1_555 1_555
C52 C51 1_555 1_555
C53 C52 1_555 1_555
H47 C53 1_555 1_555
C54 C49 1_555 1_555
C55 H48 1_555 1_555
H49 C55 1_555 1_555
H50 C55 1_555 1_555
C56 C69 1_555 1_555
C57 C52 1_555 1_555
C58 C59 1_555 1_555
C59 H51 1_555 1_555
C60 C59 1_555 1_555
H52 C60 1_555 1_555
C61 C60 1_555 1_555
C62 C61 1_555 1_555
H53 C62 1_555 1_555
C63 C58 1_555 1_555
C64 H54 1_555 1_555
H55 C64 1_555 1_555
H56 C64 1_555 1_555
C65 C61 1_555 1_555
C66 C67 1_555 1_555
C67 H57 1_555 1_555
C68 C67 1_555 1_555
H58 C68 1_555 1_555
C69 C68 1_555 1_555
C70 C69 1_555 1_555
H59 C70 1_555 1_555
C71 C66 1_555 1_555
C72 H60 1_555 1_555
H61 C72 1_555 1_555
H62 C72 1_555 1_555
C73 C74 1_555 1_555
C74 C75 1_555 1_555
C75 H63 1_555 1_555
C76 C75 1_555 1_555
C77 C76 1_555 1_555
H64 C77 1_555 1_555
C78 C73 1_555 1_555
H65 C78 1_555 1_555
C79 C76 1_555 1_555
H66 C79 1_555 1_555
H67 C79 1_555 1_555
H68 C79 1_555 1_555
N1 C2 1_555 1_555
N2 N1 1_555 1_555
N3 C1 1_555 1_555
N4 Zn3 1_555 1_555
N5 Zn1 1_555 1_555
N6 C9 1_555 1_555
N7 Zn2 1_555 1_555
N8 Zn1 1_555 1_555
N9 Zn5 1_555 1_555
N10 C23 1_555 1_555
N11 Zn1 1_555 1_555
N12 Zn3 1_555 1_555
N13 Zn4 1_555 1_555
N14 Zn1 1_555 1_555
N15 Zn5 1_555 1_555
N16 Zn4 1_555 1_555
N17 Zn1 1_555 1_555
N18 Zn2 1_555 1_555
O1 C36 1_555 1_555
O2 C36 1_555 1_555
O3 Zn2 1_555 1_555
O4 Zn2 1_555 1_555
O5 C57 1_555 1_555
O6 C65 1_555 1_555
O7 C65 1_555 1_555
O8 C57 1_555 1_555
O9 C40 1_555 1_555
O10 C54 1_555 1_555
O11 C71 1_555 1_555
O12 C63 1_555 1_555
O13 C47 1_555 1_555
O14 C48 1_555 1_555
O15 C46 1_555 1_555
O16 C39 1_555 1_555
Zn3B O1 1_555 1_555
Zn4B O5 1_555 1_555
Zn5E O6 1_555 1_555
O1B Zn3 1_555 1_555
O2B Zn3 1_555 1_555
O5B Zn4 1_555 1_555
O6E Zn5 1_555 1_555
O7E Zn5 1_555 1_555
C5 C6 1_555 1_555
C8 N4 1_555 1_555
C12 C13 1_555 1_555
C15 N7 1_555 1_555
C16 N9 1_555 1_555
C19 C20 1_555 1_555
C22 N12 1_555 1_555
C26 C27 1_555 1_555
C29 N13 1_555 1_555
C30 N15 1_555 1_555
C33 C34 1_555 1_555
C41 C42 1_555 1_555
C43 O16 1_555 1_555
C44 O9 1_555 1_555
C49 O15 1_555 1_555
C53 C54 1_555 1_555
C55 O10 1_555 1_555
C56 O3 1_555 1_555
C56 O4 1_555 1_555
C58 O13 1_555 1_555
C62 C63 1_555 1_555
C64 O12 1_555 1_555
C66 O14 1_555 1_555
C70 C71 1_555 1_555
C72 O11 1_555 1_555
C73 N16 1_555 1_555
C74 N18 1_555 1_555
C77 C78 1_555 1_555
N2 N3 1_555 1_555
N4 N5 1_555 1_555
N5 N6 1_555 1_555
N7 N8 1_555 1_555
N8 N9 1_555 1_555
N10 N11 1_555 1_555
N11 N12 1_555 1_555
N13 N14 1_555 1_555
N14 N15 1_555 1_555
N16 N17 1_555 1_555
N17 N18 1_555 1_555
O2 Zn3B 1_555 1_555
O7 Zn5E 1_555 1_555

#END
