
#######################################################################
#
#                 Cambridge Crystallographic Data Centre
#                                CCDC 
#
#######################################################################
#
# If this CIF has been generated from an entry in the Cambridge 
# Structural Database, then it will include bibliographic, chemical, 
# crystal, experimental, refinement or atomic coordinate data resulting 
# from the CCDC's data processing and validation procedures.
#
#######################################################################

data_FAYQUS01
_symmetry_cell_setting           monoclinic
_symmetry_space_group_name_H-M   'C 2/c'
_symmetry_Int_Tables_number      15
_space_group_name_Hall           '-C 2yn'
loop_
_symmetry_equiv_pos_site_id
_symmetry_equiv_pos_as_xyz
1 x,y,z
2 -x,y,1/2-z
3 1/2+x,1/2+y,z
4 1/2-x,1/2+y,1/2-z
5 -x,-y,-z
6 x,-y,1/2+z
7 1/2-x,1/2-y,-z
8 1/2+x,1/2-y,1/2+z
_cell_length_a                   16.4615(4)
_cell_length_b                   10.0537(2)
_cell_length_c                   10.9358(3)
_cell_angle_alpha                90
_cell_angle_beta                 109.5560(10)
_cell_angle_gamma                90
_cell_volume                     1705.46
loop_
_atom_site_label
_atom_site_type_symbol
_atom_site_fract_x
_atom_site_fract_y
_atom_site_fract_z
Zn1 Zn 0.50000 0.45376 0.75000
S1 S 0.44546 0.02394 0.27380
N1 N 0.4816 0.3282 0.5959
C1 C 0.5446 0.3104 0.5442
H1 H 0.5953 0.3612 0.5763
C2 C 0.5376 0.2203 0.4458
H2 H 0.5826 0.2104 0.4116
C3 C 0.4638 0.1451 0.3984
C4 C 0.3975 0.1638 0.4498
H3 H 0.3459 0.1152 0.4181
C5 C 0.4096 0.2552 0.5479
H4 H 0.3652 0.2672 0.5831
O1 O 0.5943 0.5759 0.7698
O2 O 0.6948 0.4200 0.8048
C6 C 0.6726 0.5378 0.7986
C7 C 0.7388 0.6460 0.8250
Zn1_2 Zn 0.50000 0.45376 -0.25000
S1A S 0.55454 0.02394 0.22620
N1A N 0.5184 0.3282 -0.0959
N1A_2 N 0.5184 0.3282 0.9041
C1A C 0.4554 0.3104 -0.0442
H1A H 0.4047 0.3612 -0.0763
C2A C 0.4624 0.2203 0.0542
H2A H 0.4174 0.2104 0.0884
C3A C 0.5362 0.1451 0.1016
C4A C 0.6025 0.1638 0.0502
H3A H 0.6541 0.1152 0.0819
C5A C 0.5904 0.2552 -0.0479
H4A H 0.6348 0.2672 -0.0831
O1A O 0.4057 0.5759 0.7302
O2A O 0.3052 0.4200 0.6952
C6A C 0.3274 0.5378 0.7014
C7A C 0.2612 0.6460 0.6750
loop_
_geom_bond_atom_site_label_1
_geom_bond_atom_site_label_2
_geom_bond_site_symmetry_1
_geom_bond_site_symmetry_2
Zn1 N1 1_555 1_555
S1 C3 1_555 1_555
N1 C1 1_555 1_555
C1 H1 1_555 1_555
C2 C1 1_555 1_555
H2 C2 1_555 1_555
C3 C2 1_555 1_555
C4 C3 1_555 1_555
H3 C4 1_555 1_555
C5 N1 1_555 1_555
H4 C5 1_555 1_555
O1 Zn1 1_555 1_555
O2 C6 1_555 1_555
C6 O1 1_555 1_555
C7 C6 1_555 1_555
Zn1_2 N1A 1_555 1_555
S1A S1 1_555 1_555
N1A C1A 1_555 1_555
N1A_2 Zn1 1_555 1_555
C1A H1A 1_555 1_555
C2A C1A 1_555 1_555
H2A C2A 1_555 1_555
C3A S1A 1_555 1_555
C4A C3A 1_555 1_555
H3A C4A 1_555 1_555
C5A N1A 1_555 1_555
H4A C5A 1_555 1_555
O1A Zn1 1_555 1_555
O2A C6A 1_555 1_555
C6A O1A 1_555 1_555
C7A C6A 1_555 1_555
C4 C5 1_555 1_555
C2A C3A 1_555 1_555
C4A C5A 1_555 1_555

#END
