
#######################################################################
#
#                 Cambridge Crystallographic Data Centre
#                                CCDC 
#
#######################################################################
#
# If this CIF has been generated from an entry in the Cambridge 
# Structural Database, then it will include bibliographic, chemical, 
# crystal, experimental, refinement or atomic coordinate data resulting 
# from the CCDC's data processing and validation procedures.
#
#######################################################################

data_FAYVOR
_symmetry_cell_setting           monoclinic
_symmetry_space_group_name_H-M   'P 21/c'
_symmetry_Int_Tables_number      14
_space_group_name_Hall           '-P 2ybc'
loop_
_symmetry_equiv_pos_site_id
_symmetry_equiv_pos_as_xyz
1 x,y,z
2 -x,1/2+y,1/2-z
3 -x,-y,-z
4 x,1/2-y,1/2+z
_cell_length_a                   10.1322(5)
_cell_length_b                   11.0218(6)
_cell_length_c                   14.1351(6)
_cell_angle_alpha                90
_cell_angle_beta                 101.077(2)
_cell_angle_gamma                90
_cell_volume                     1549.13
loop_
_atom_site_label
_atom_site_type_symbol
_atom_site_fract_x
_atom_site_fract_y
_atom_site_fract_z
Zn1 Zn 0.84862(3) 0.12397(3) 0.25686(2)
N1 N 0.6568(2) 0.1905(2) 0.18517(15)
N2 N 0.7427(2) -0.0408(2) 0.21413(16)
N3 N 1.0113(2) 0.0345(3) 0.33787(19)
N4 N 1.2233(3) 0.0049(3) 0.4504(2)
N5 N 1.2729(3) -0.0994(3) 0.60134(19)
N6 N 0.9047(2) 0.2897(3) 0.32613(17)
N7 N 1.0239(2) 0.3459(3) 0.48734(18)
N8 N 0.9365(2) 0.3516(2) 0.63569(18)
C1 C 0.6182(3) 0.3017(3) 0.1674(2)
H1 H 0.6786 0.3635 0.1901
C2 C 0.4915(3) 0.3340(3) 0.1165(2)
H2 H 0.4686 0.4150 0.1042
C3 C 0.4033(3) 0.2451(3) 0.0855(2)
H3 H 0.3179 0.2649 0.0519
C4 C 0.4379(3) 0.1219(3) 0.1031(2)
C5 C 0.3521(3) 0.0236(3) 0.0730(2)
H4 H 0.2645 0.0388 0.0412
C6 C 0.3928(3) -0.0914(3) 0.0889(2)
H5 H 0.3331 -0.1541 0.0675
C7 C 0.5253(3) -0.1198(3) 0.1377(2)
C8 C 0.5762(3) -0.2375(3) 0.1532(2)
H6 H 0.5220 -0.3039 0.1319
C9 C 0.7045(3) -0.2542(3) 0.1991(2)
H7 H 0.7391 -0.3322 0.2101
C10 C 0.7845(3) -0.1539(3) 0.2298(2)
H8 H 0.8718 -0.1671 0.2630
C11 C 0.6125(2) -0.0226(3) 0.16896(18)
C12 C 0.5697(3) 0.0991(3) 0.15324(19)
C13 C 1.1053(3) 0.0154(3) 0.3934(2)
C14 C 1.2415(3) -0.0543(3) 0.5303(2)
C15 C 0.9560(3) 0.3137(3) 0.4036(2)
C16 C 0.9716(3) 0.3485(3) 0.5636(2)
Zn1C Zn 0.84862(3) 0.37603(3) 0.75686(2)
N8C N 0.9365(2) 0.1484(2) 0.13569(18)
loop_
_geom_bond_atom_site_label_1
_geom_bond_atom_site_label_2
_geom_bond_site_symmetry_1
_geom_bond_site_symmetry_2
Zn1 N1 1_555 1_555
N1 C1 1_555 1_555
N2 Zn1 1_555 1_555
N3 Zn1 1_555 1_555
N4 C13 1_555 1_555
N5 C14 1_555 1_555
N6 Zn1 1_555 1_555
N7 C15 1_555 1_555
N8 C16 1_555 1_555
C1 H1 1_555 1_555
C2 C1 1_555 1_555
H2 C2 1_555 1_555
C3 C2 1_555 1_555
H3 C3 1_555 1_555
C4 C3 1_555 1_555
C5 C4 1_555 1_555
H4 C5 1_555 1_555
C6 C5 1_555 1_555
H5 C6 1_555 1_555
C7 C6 1_555 1_555
C8 C7 1_555 1_555
H6 C8 1_555 1_555
C9 C8 1_555 1_555
H7 C9 1_555 1_555
C10 N2 1_555 1_555
H8 C10 1_555 1_555
C11 N2 1_555 1_555
C12 N1 1_555 1_555
C13 N3 1_555 1_555
C14 N4 1_555 1_555
C15 N6 1_555 1_555
C16 N7 1_555 1_555
Zn1C N8 1_555 1_555
N8C Zn1 1_555 1_555
C4 C12 1_555 1_555
C7 C11 1_555 1_555
C9 C10 1_555 1_555
C11 C12 1_555 1_555

#END
