
#######################################################################
#
#                 Cambridge Crystallographic Data Centre
#                                CCDC 
#
#######################################################################
#
# If this CIF has been generated from an entry in the Cambridge 
# Structural Database, then it will include bibliographic, chemical, 
# crystal, experimental, refinement or atomic coordinate data resulting 
# from the CCDC's data processing and validation procedures.
#
#######################################################################

data_FAYXEJ
_symmetry_cell_setting           monoclinic
_symmetry_space_group_name_H-M   'C c'
_symmetry_Int_Tables_number      9
_space_group_name_Hall           'C -2yc'
loop_
_symmetry_equiv_pos_site_id
_symmetry_equiv_pos_as_xyz
1 x,y,z
2 x,-y,1/2+z
3 1/2+x,1/2+y,z
4 1/2+x,1/2-y,1/2+z
_cell_length_a                   13.103(3)
_cell_length_b                   7.5255(15)
_cell_length_c                   9.6293(19)
_cell_angle_alpha                90
_cell_angle_beta                 130.88(3)
_cell_angle_gamma                90
_cell_volume                     717.91
loop_
_atom_site_label
_atom_site_type_symbol
_atom_site_fract_x
_atom_site_fract_y
_atom_site_fract_z
Ni1 Ni 0.15534(4) 0.35498(4) 0.46037(4)
O1 O 0.3435(2) 0.2400(3) 0.6098(3)
O2 O 0.4701(2) 0.0379(3) 0.8321(3)
O3 O 0.1161(2) 0.1162(3) 0.5218(3)
O4 O 0.2014(2) 0.4335(3) 0.7039(3)
O5 O 0.2236(2) 0.4057(3) 0.9520(3)
O6 O 0.0993(2) 0.2651(3) 0.2175(3)
C1 C 0.3600(3) 0.1172(4) 0.7121(4)
C2 C 0.2401(3) 0.0596(4) 0.6938(4)
H1 H 0.2401 -0.0701 0.7027
C3 C 0.2531(4) 0.1437(4) 0.8487(5)
H2 H 0.1919 0.0830 0.8568
H3 H 0.3441 0.1233 0.9633
C4 C 0.2241(3) 0.3422(4) 0.8303(5)
Ni1C Ni 0.65534(4) 0.14502(4) 0.96037(4)
Ni1A Ni 0.15534(4) 0.64502(4) 0.96037(4)
O2C O -0.0299(2) 0.4621(3) 0.3321(3)
O5A O 0.2236(2) 0.5943(3) 0.4520(3)
O7 O -0.0324(3) -0.1522(3) 0.3125(4)
loop_
_geom_bond_atom_site_label_1
_geom_bond_atom_site_label_2
_geom_bond_site_symmetry_1
_geom_bond_site_symmetry_2
Ni1 O1 1_555 1_555
O1 C1 1_555 1_555
O2 C1 1_555 1_555
O3 Ni1 1_555 1_555
O4 Ni1 1_555 1_555
O5 C4 1_555 1_555
O6 Ni1 1_555 1_555
C1 C2 1_555 1_555
C2 O3 1_555 1_555
H1 C2 1_555 1_555
C3 C2 1_555 1_555
H2 C3 1_555 1_555
H3 C3 1_555 1_555
C4 O4 1_555 1_555
Ni1C O2 1_555 1_555
Ni1A O5 1_555 1_555
O2C Ni1 1_555 1_555
O5A Ni1 1_555 1_555
C3 C4 1_555 1_555

#END
