
#######################################################################
#
#                 Cambridge Crystallographic Data Centre
#                                CCDC 
#
#######################################################################
#
# If this CIF has been generated from an entry in the Cambridge 
# Structural Database, then it will include bibliographic, chemical, 
# crystal, experimental, refinement or atomic coordinate data resulting 
# from the CCDC's data processing and validation procedures.
#
#######################################################################

data_FAZBEP
_symmetry_cell_setting           monoclinic
_symmetry_space_group_name_H-M   'P 21/c'
_symmetry_Int_Tables_number      14
_space_group_name_Hall           '-P 2ybc'
loop_
_symmetry_equiv_pos_site_id
_symmetry_equiv_pos_as_xyz
1 x,y,z
2 -x,1/2+y,1/2-z
3 -x,-y,-z
4 x,1/2-y,1/2+z
_cell_length_a                   8.459(5)
_cell_length_b                   20.195(10)
_cell_length_c                   19.371(11)
_cell_angle_alpha                90
_cell_angle_beta                 99.512(11)
_cell_angle_gamma                90
_cell_volume                     3263.64
loop_
_atom_site_label
_atom_site_type_symbol
_atom_site_fract_x
_atom_site_fract_y
_atom_site_fract_z
C17 C -0.476(3) 0.3576(9) -0.5029(8)
C18 C -0.4881(17) 0.4291(8) -0.4999(6)
C19 C -0.5921(17) 0.4651(8) -0.5496(7)
C20 C -0.3967(16) 0.4702(8) -0.4509(7)
H7 H -0.5808 0.3378 -0.5002
H8 H -0.3971 0.3419 -0.4636
H9 H -0.4427 0.3446 -0.5471
H10 H -0.6582 0.4414 -0.5857
H11 H -0.3211 0.4499 -0.4155
C17B C -0.524(3) 0.6424(9) -0.4971(8)
C18B C -0.5119(17) 0.5709(8) -0.5001(6)
C19B C -0.4079(17) 0.5349(8) -0.4504(7)
C20B C -0.6033(16) 0.5298(8) -0.5491(7)
H7B H -0.4192 0.6622 -0.4998
H8B H -0.6029 0.6581 -0.5364
H9B H -0.5573 0.6554 -0.4529
H10B H -0.3418 0.5586 -0.4143
H11B H -0.6789 0.5501 -0.5845
Rh1 Rh 0.45985(9) -0.31528(5) -0.26713(5)
Rh2 Rh 0.53576(10) -0.20999(5) -0.21355(5)
F1 F 0.2012(17) 0.0908(9) -0.4189(8)
F2 F 0.3660(12) 0.1313(8) -0.4756(7)
F3 F 0.1488(13) 0.1753(7) -0.4651(7)
F4 F 0.0565(13) 0.1826(7) -0.1481(7)
F5 F -0.0020(10) 0.2770(6) -0.1891(5)
F6 F 0.1631(12) 0.2615(8) -0.0950(5)
F7 F 0.7919(15) 0.3872(8) -0.0976(7)
F8 F 0.6316(12) 0.3379(7) -0.0419(6)
F9 F 0.8548(11) 0.2959(7) -0.0508(6)
F10 F 1.0117(11) 0.1950(8) -0.3233(6)
F11 F 0.8510(15) 0.2188(11) -0.4191(6)
F12 F 0.9487(16) 0.2963(10) -0.3645(9)
O1 O 0.5887(9) -0.3591(5) -0.1784(5)
O2 O 0.6600(8) -0.2604(5) -0.1291(4)
O3 O 0.6608(10) -0.3134(5) -0.3117(5)
O4 O 0.7317(9) -0.2139(5) -0.2629(5)
O5 O 0.3363(8) -0.2656(5) -0.3506(4)
O6 O 0.4096(9) -0.1644(5) -0.3002(5)
O7 O 0.2659(10) -0.3132(6) -0.2189(5)
O8 O 0.3360(10) -0.2155(6) -0.1677(5)
N1 N 0.6241(12) 0.0892(6) -0.1830(6)
N2 N 0.6164(12) -0.1167(6) -0.1683(6)
C1 C 0.6489(13) -0.3264(8) -0.1347(7)
C2 C 0.2623(18) 0.1450(12) -0.4342(9)
C3 C 0.7444(14) -0.2605(9) -0.3014(7)
C4 C 0.1156(17) 0.2431(11) -0.1593(9)
C5 C 0.3414(14) -0.2064(8) -0.3471(8)
C6 C 0.7386(17) 0.3322(10) -0.0841(8)
C7 C 0.2499(15) -0.2635(11) -0.1796(7)
C8 C 0.893(2) 0.2370(15) -0.3583(10)
C9 C 0.6765(14) 0.0477(7) -0.1511(6)
C10 C 0.7512(14) -0.0085(6) -0.1154(6)
C11 C 0.6770(13) -0.0706(6) -0.1408(6)
C12 C 0.8733(12) -0.0052(5) -0.0577(6)
C13 C 0.9392(11) 0.0590(5) -0.0328(6)
C14 C 0.882(3) 0.1277(12) -0.0475(14)
C15 C 1.0580(11) 0.0646(5) 0.0225(5)
C16 C 0.900(3) -0.1341(10) -0.0359(11)
H1 H 0.8428 0.1456 -0.0066
H2 H 0.9710 0.1551 -0.0580
H3 H 0.7954 0.1278 -0.0879
H4 H 0.9937 -0.1584 -0.0458
H5 H 0.8636 -0.1532 0.0053
H6 H 0.8134 -0.1372 -0.0763
Rh1A Rh 0.54015(9) 0.18472(5) -0.23287(5)
Rh1C Rh 1.45985(9) -0.18472(5) 0.23287(5)
Rh2A Rh 0.46424(10) 0.29001(5) -0.28645(5)
Rh2B Rh 1.46424(10) 0.20999(5) 0.21355(5)
F1A F 0.7988(17) -0.4092(9) -0.0811(8)
F2A F 0.6340(12) -0.3687(8) -0.0244(7)
F3A F 0.8512(13) -0.3247(7) -0.0349(7)
F4A F 0.9435(13) -0.3174(7) -0.3519(7)
F5A F 1.0020(10) -0.2230(6) -0.3109(5)
F6A F 0.8369(12) -0.2385(8) -0.4050(5)
F7A F 0.2081(15) -0.1128(8) -0.4024(7)
F8A F 0.3684(12) -0.1621(7) -0.4581(6)
F9A F 0.1452(11) -0.2041(7) -0.4492(6)
F10A F -0.0117(11) -0.3050(8) -0.1767(6)
F11A F 0.1490(15) -0.2812(11) -0.0809(6)
F12A F 0.0513(16) -0.2037(10) -0.1355(9)
O1A O 0.4113(9) 0.1409(5) -0.3216(5)
O2A O 0.3400(8) 0.2396(5) -0.3709(4)
O3A O 0.3392(10) 0.1866(5) -0.1883(5)
O4A O 0.2683(9) 0.2861(5) -0.2371(5)
O5A O 0.6637(8) 0.2344(5) -0.1494(4)
O6A O 0.5904(9) 0.3356(5) -0.1998(5)
O7A O 0.7341(10) 0.1868(6) -0.2811(5)
O8A O 0.6640(10) 0.2845(6) -0.3323(5)
N1A N 0.3759(12) -0.4108(6) -0.3170(6)
N1B N 1.3759(12) -0.0892(6) 0.1830(6)
N2A N 0.3836(12) 0.3833(6) -0.3317(6)
N2B N 1.3836(12) 0.1167(6) 0.1683(6)
C1A C 0.3511(13) 0.1736(8) -0.3653(7)
C2A C 0.7377(18) -0.3550(12) -0.0658(9)
C3A C 0.2556(14) 0.2395(9) -0.1986(7)
C4A C 0.8844(17) -0.2569(11) -0.3407(9)
C5A C 0.6586(14) 0.2936(8) -0.1529(8)
C6A C 0.2614(17) -0.1678(10) -0.4159(8)
C7A C 0.7501(15) 0.2365(11) -0.3204(7)
C8A C 0.107(2) -0.2630(15) -0.1417(10)
C9B C 1.3235(14) -0.0477(7) 0.1511(6)
C10B C 1.2488(14) 0.0085(6) 0.1154(6)
C11B C 1.3230(13) 0.0706(6) 0.1408(6)
C12B C 1.1267(12) 0.0052(5) 0.0577(6)
C13B C 1.0608(11) -0.0590(5) 0.0328(6)
C14B C 1.118(3) -0.1277(12) 0.0475(14)
C15B C 0.9420(11) -0.0646(5) -0.0225(5)
C16B C 1.100(3) 0.1341(10) 0.0359(11)
H1B H 1.1572 -0.1456 0.0066
H2B H 1.0290 -0.1551 0.0580
H3B H 1.2046 -0.1278 0.0879
H4B H 1.0063 0.1584 0.0458
H5B H 1.1364 0.1532 -0.0053
H6B H 1.1866 0.1372 0.0763
loop_
_geom_bond_atom_site_label_1
_geom_bond_atom_site_label_2
_geom_bond_site_symmetry_1
_geom_bond_site_symmetry_2
Rh1 Rh2 1_555 1_555
Rh2 O2 1_555 1_555
F1 C2 1_555 1_555
F2 C2 1_555 1_555
F3 C2 1_555 1_555
F4 C4 1_555 1_555
F5 C4 1_555 1_555
F6 C4 1_555 1_555
F7 C6 1_555 1_555
F8 C6 1_555 1_555
F9 C6 1_555 1_555
F10 C8 1_555 1_555
F11 C8 1_555 1_555
F12 C8 1_555 1_555
O1 Rh1 1_555 1_555
O2 C1 1_555 1_555
O3 Rh1 1_555 1_555
O4 Rh2 1_555 1_555
O5 Rh1 1_555 1_555
O6 Rh2 1_555 1_555
O7 Rh1 1_555 1_555
O8 Rh2 1_555 1_555
N1 C9 1_555 1_555
N2 Rh2 1_555 1_555
C1 O1 1_555 1_555
C2 C1A 1_555 1_555
C3 O3 1_555 1_555
C4 C3A 1_555 1_555
C5 O5 1_555 1_555
C6 C5A 1_555 1_555
C7 O7 1_555 1_555
C8 C7A 1_555 1_555
C9 C10 1_555 1_555
C10 C11 1_555 1_555
C11 N2 1_555 1_555
C12 C10 1_555 1_555
C13 C12 1_555 1_555
C14 C13 1_555 1_555
C15 C13 1_555 1_555
C16 H4 1_555 1_555
C17 C18 1_555 1_555
C18 C19 1_555 1_555
C19 H10 1_555 1_555
C20 C18 1_555 1_555
H1 C14 1_555 1_555
H2 C14 1_555 1_555
H3 C14 1_555 1_555
H5 C16 1_555 1_555
H6 C16 1_555 1_555
H7 C17 1_555 1_555
H8 C17 1_555 1_555
H9 C17 1_555 1_555
H11 C20 1_555 1_555
Rh1A N1 1_555 1_555
Rh1C N1B 1_555 1_555
Rh2A Rh1A 1_555 1_555
Rh2B N2B 1_555 1_555
F1A C2A 1_555 1_555
F2A C2A 1_555 1_555
F3A C2A 1_555 1_555
F4A C4A 1_555 1_555
F5A C4A 1_555 1_555
F6A C4A 1_555 1_555
F7A C6A 1_555 1_555
F8A C6A 1_555 1_555
F9A C6A 1_555 1_555
F10A C8A 1_555 1_555
F11A C8A 1_555 1_555
F12A C8A 1_555 1_555
O1A Rh1A 1_555 1_555
O2A Rh2A 1_555 1_555
O3A Rh1A 1_555 1_555
O4A Rh2A 1_555 1_555
O5A Rh1A 1_555 1_555
O6A Rh2A 1_555 1_555
O7A Rh1A 1_555 1_555
O8A Rh2A 1_555 1_555
N1A Rh1 1_555 1_555
N1B C9B 1_555 1_555
N2A Rh2A 1_555 1_555
N2B C11B 1_555 1_555
C1A O1A 1_555 1_555
C2A C1 1_555 1_555
C3A O3A 1_555 1_555
C4A C3 1_555 1_555
C5A O5A 1_555 1_555
C6A C5 1_555 1_555
C7A O7A 1_555 1_555
C8A C7 1_555 1_555
C9B C10B 1_555 1_555
C10B C11B 1_555 1_555
C12B C15 1_555 1_555
C13B C12B 1_555 1_555
C14B C13B 1_555 1_555
C15B C12 1_555 1_555
C16B C15 1_555 1_555
C17B C18B 1_555 1_555
C18B C19B 1_555 1_555
C19B C20 1_555 1_555
C20B C19 1_555 1_555
H1B C14B 1_555 1_555
H2B C14B 1_555 1_555
H3B C14B 1_555 1_555
H4B C16B 1_555 1_555
H5B C16B 1_555 1_555
H6B C16B 1_555 1_555
H7B C17B 1_555 1_555
H8B C17B 1_555 1_555
H9B C17B 1_555 1_555
H10B C19B 1_555 1_555
H11B C20B 1_555 1_555
O4 C3 1_555 1_555
O6 C5 1_555 1_555
O8 C7 1_555 1_555
C16 C15B 1_555 1_555
O2A C1A 1_555 1_555
O4A C3A 1_555 1_555
O6A C5A 1_555 1_555
O8A C7A 1_555 1_555
C10B C12B 1_555 1_555
C13B C15B 1_555 1_555
C18B C20B 1_555 1_555

#END
