
#######################################################################
#
#                 Cambridge Crystallographic Data Centre
#                                CCDC 
#
#######################################################################
#
# If this CIF has been generated from an entry in the Cambridge 
# Structural Database, then it will include bibliographic, chemical, 
# crystal, experimental, refinement or atomic coordinate data resulting 
# from the CCDC's data processing and validation procedures.
#
#######################################################################

data_FAZBAL
_symmetry_cell_setting           monoclinic
_symmetry_space_group_name_H-M   'C 2/m'
_symmetry_Int_Tables_number      12
_space_group_name_Hall           '-C 2y'
loop_
_symmetry_equiv_pos_site_id
_symmetry_equiv_pos_as_xyz
1 x,y,z
2 -x,y,-z
3 1/2+x,1/2+y,z
4 1/2-x,1/2+y,-z
5 -x,-y,-z
6 x,-y,z
7 1/2-x,1/2-y,-z
8 1/2+x,1/2-y,z
_cell_length_a                   20.319(17)
_cell_length_b                   20.190(17)
_cell_length_c                   8.459(7)
_cell_angle_alpha                90
_cell_angle_beta                 99.122(11)
_cell_angle_gamma                90
_cell_volume                     3426.34
loop_
_atom_site_label
_atom_site_type_symbol
_atom_site_fract_x
_atom_site_fract_y
_atom_site_fract_z
Ru1 Ru 0.27860(3) 0.70158(3) 0.53614(6)
F1 F 0.4497(3) 0.8306(4) 0.8434(7)
F2 F 0.4508(4) 0.8712(5) 0.6150(7)
F3 F 0.3978(4) 0.9180(4) 0.7735(11)
F4 F 0.3518(3) 0.7061(4) 0.0323(7)
F5 F 0.3100(3) 0.8034(3) -0.0175(7)
F6 F 0.4041(3) 0.7902(4) 0.1472(7)
O1 O 0.3589(3) 0.7570(3) 0.6547(6)
O2 O 0.1990(3) 0.6486(3) 0.4147(6)
O3 O 0.3224(3) 0.7075(3) 0.3306(7)
O4 O 0.2339(3) 0.6981(3) 0.7393(7)
O5 O 0.4525(5) 0.3820(4) 0.8698(11)
N1 N 0.3326(4) 0.6046(4) 0.6223(8)
C1 C 0.3511(4) 0.8170(5) 0.6456(8)
C2 C 0.4134(5) 0.8609(5) 0.7228(10)
C3 C 0.3070(4) 0.7575(5) 0.2415(8)
C4 C 0.3432(4) 0.7645(6) 0.0984(10)
C5 C 0.3583(4) 0.5594(4) 0.6854(9)
C6 C 0.3887(5) 0.5000 0.7553(11)
C7 C 0.4429(4) 0.5000 0.8793(10)
C8 C 0.4714(4) 0.4385(3) 0.9409(8)
C9 C 0.4925(8) 0.3205(7) 0.9038(19)
Ru1F Ru 0.22140(3) 0.79842(3) 0.46386(6)
Ru1E Ru 0.27860(3) 0.29842(3) 0.53614(6)
Ru1C Ru 0.22140(3) 0.20158(3) 0.46386(6)
Ru1D Ru 0.72140(3) 0.29842(3) 1.46386(6)
Ru1A Ru 0.72140(3) 0.70158(3) 1.46386(6)
F1F F 0.0503(3) 0.6694(4) 0.1566(7)
F1C F 0.0503(3) 0.3306(4) 0.1566(7)
F1E F 0.4497(3) 0.1694(4) 0.8434(7)
F2F F 0.0492(4) 0.6288(5) 0.3850(7)
F2C F 0.0492(4) 0.3712(5) 0.3850(7)
F2E F 0.4508(4) 0.1288(5) 0.6150(7)
F3F F 0.1022(4) 0.5820(4) 0.2265(11)
F3C F 0.1022(4) 0.4180(4) 0.2265(11)
F3E F 0.3978(4) 0.0820(4) 0.7735(11)
F4F F 0.1482(3) 0.7939(4) 0.9677(7)
F4C F 0.1482(3) 0.2061(4) 0.9677(7)
F4E F 0.3518(3) 0.2939(4) 0.0323(7)
F5F F 0.1900(3) 0.6966(3) 1.0175(7)
F5C F 0.1900(3) 0.3034(3) 1.0175(7)
F5E F 0.3100(3) 0.1966(3) -0.0175(7)
F6F F 0.0959(3) 0.7098(4) 0.8528(7)
F6C F 0.0959(3) 0.2902(4) 0.8528(7)
F6E F 0.4041(3) 0.2098(4) 0.1472(7)
O1F O 0.1411(3) 0.7430(3) 0.3453(6)
O1E O 0.3589(3) 0.2430(3) 0.6547(6)
O1C O 0.1411(3) 0.2570(3) 0.3453(6)
O2F O 0.3010(3) 0.8514(3) 0.5853(6)
O2E O 0.1990(3) 0.3514(3) 0.4147(6)
O2C O 0.3010(3) 0.1486(3) 0.5853(6)
O3F O 0.1776(3) 0.7925(3) 0.6694(7)
O3E O 0.3224(3) 0.2925(3) 0.3306(7)
O3C O 0.1776(3) 0.2075(3) 0.6694(7)
O4F O 0.2661(3) 0.8019(3) 0.2607(7)
O4E O 0.2339(3) 0.3019(3) 0.7393(7)
O4C O 0.2661(3) 0.1981(3) 0.2607(7)
O5E O 0.4525(5) 0.6180(4) 0.8698(11)
O5A O 0.5475(5) 0.3820(4) 1.1302(11)
O5D O 0.5475(5) 0.6180(4) 1.1302(11)
N1F N 0.1674(4) 0.8954(4) 0.3777(8)
N1E N 0.3326(4) 0.3954(4) 0.6223(8)
N1C N 0.1674(4) 0.1046(4) 0.3777(8)
N1D N 0.6674(4) 0.3954(4) 1.3777(8)
N1A N 0.6674(4) 0.6046(4) 1.3777(8)
C1F C 0.1489(4) 0.6830(5) 0.3544(8)
C1E C 0.3511(4) 0.1830(5) 0.6456(8)
C1C C 0.1489(4) 0.3170(5) 0.3544(8)
C2F C 0.0866(5) 0.6391(5) 0.2772(10)
C2C C 0.0866(5) 0.3609(5) 0.2772(10)
C2E C 0.4134(5) 0.1391(5) 0.7228(10)
C3F C 0.1930(4) 0.7425(5) 0.7585(8)
C3E C 0.3070(4) 0.2425(5) 0.2415(8)
C3C C 0.1930(4) 0.2575(5) 0.7585(8)
C4F C 0.1568(4) 0.7355(6) 0.9016(10)
C4E C 0.3432(4) 0.2355(6) 0.0984(10)
C4C C 0.1568(4) 0.2645(6) 0.9016(10)
C5E C 0.3583(4) 0.4406(4) 0.6854(9)
C5A C 0.6417(4) 0.5594(4) 1.3146(9)
C5D C 0.6417(4) 0.4406(4) 1.3146(9)
C6A C 0.6113(5) 0.5000 1.2447(11)
C7A C 0.5571(4) 0.5000 1.1207(10)
C8E C 0.4714(4) 0.5615(3) 0.9409(8)
C8A C 0.5286(4) 0.4385(3) 1.0591(8)
C8D C 0.5286(4) 0.5615(3) 1.0591(8)
C9E C 0.4925(8) 0.6795(7) 0.9038(19)
C9D C 0.5075(8) 0.6795(7) 1.0962(19)
C9A C 0.5075(8) 0.3205(7) 1.0962(19)
Cl1 Cl 0.5000 0.6501(5) 0.5000
C10 C 0.4509(4) 0.5328(5) 0.3995(10)
C11 C 0.5000 0.5690(8) 0.5000
H1 H 0.4171 0.5559 0.3304
Cl1D Cl 0.5000 0.3499(5) 0.5000
C10E C 0.4509(4) 0.4672(5) 0.3995(10)
C10A C 0.5491(4) 0.5328(5) 0.6005(10)
C10D C 0.5491(4) 0.4672(5) 0.6005(10)
C11D C 0.5000 0.4310(8) 0.5000
H1A H 0.5829 0.5559 0.6696
H1E H 0.4171 0.4441 0.3304
H1D H 0.5829 0.4441 0.6696
C12? C 0.5000 0.3499(5) 0.5000
loop_
_geom_bond_atom_site_label_1
_geom_bond_atom_site_label_2
_geom_bond_site_symmetry_1
_geom_bond_site_symmetry_2
Ru1 O1 1_555 1_555
Cl1 C11 1_555 1_555
F1 C2 1_555 1_555
F2 C2 1_555 1_555
F3 C2 1_555 1_555
F4 C4 1_555 1_555
F5 C4 1_555 1_555
F6 C4 1_555 1_555
O1 C1 1_555 1_555
O2 Ru1 1_555 1_555
O3 Ru1 1_555 1_555
O4 Ru1 1_555 1_555
O5 C8 1_555 1_555
N1 Ru1 1_555 1_555
C1 C2 1_555 1_555
C3 O3 1_555 1_555
C4 C3 1_555 1_555
C5 N1 1_555 1_555
C6 C5 1_555 1_555
C7 C6 1_555 1_555
C8 C7 1_555 1_555
C9 O5 1_555 1_555
C10 C11 1_555 1_555
C11 C10A 1_555 1_555
H1 C10 1_555 1_555
Ru1F Ru1 1_555 1_555
Ru1E Ru1C 1_555 1_555
Ru1C O1C 1_555 1_555
Ru1D N1D 1_555 1_555
Ru1A N1A 1_555 1_555
Cl1D C11D 1_555 1_555
F1F C2F 1_555 1_555
F1C C2C 1_555 1_555
F1E C2E 1_555 1_555
F2F C2F 1_555 1_555
F2C C2C 1_555 1_555
F2E C2E 1_555 1_555
F3F C2F 1_555 1_555
F3C C2C 1_555 1_555
F3E C2E 1_555 1_555
F4F C4F 1_555 1_555
F4C C4C 1_555 1_555
F4E C4E 1_555 1_555
F5F C4F 1_555 1_555
F5C C4C 1_555 1_555
F5E C4E 1_555 1_555
F6F C4F 1_555 1_555
F6C C4C 1_555 1_555
F6E C4E 1_555 1_555
O1F Ru1F 1_555 1_555
O1E Ru1E 1_555 1_555
O1C C1C 1_555 1_555
O2F C1 1_555 1_555
O2E Ru1E 1_555 1_555
O2C Ru1C 1_555 1_555
O3F Ru1F 1_555 1_555
O3E Ru1E 1_555 1_555
O3C Ru1C 1_555 1_555
O4F C3 1_555 1_555
O4E Ru1E 1_555 1_555
O4C Ru1C 1_555 1_555
O5E C8E 1_555 1_555
O5A C8A 1_555 1_555
O5D C8D 1_555 1_555
N1F Ru1F 1_555 1_555
N1E Ru1E 1_555 1_555
N1C Ru1C 1_555 1_555
N1D C5D 1_555 1_555
N1A C5A 1_555 1_555
C1F O2 1_555 1_555
C1E O1E 1_555 1_555
C1C O2E 1_555 1_555
C2F C1F 1_555 1_555
C2C C1C 1_555 1_555
C2E C1E 1_555 1_555
C3F O4 1_555 1_555
C3E O3E 1_555 1_555
C3C O3C 1_555 1_555
C4F C3F 1_555 1_555
C4E C3E 1_555 1_555
C4C C3C 1_555 1_555
C5E C6 1_555 1_555
C5A C6A 1_555 1_555
C5D C6A 1_555 1_555
C6A C7A 1_555 1_555
C7A C8A 1_555 1_555
C8E C7 1_555 1_555
C8A C8 1_555 1_555
C8D C7A 1_555 1_555
C9E O5E 1_555 1_555
C9D O5D 1_555 1_555
C9A O5A 1_555 1_555
C10E C10 1_555 1_555
C10A C10D 1_555 1_555
C10D C11D 1_555 1_555
C11D C10E 1_555 1_555
H1A C10A 1_555 1_555
H1E C10E 1_555 1_555
H1D C10D 1_555 1_555
Ru1F O2F 1_555 1_555
Ru1F O4F 1_555 1_555
O1F C1F 1_555 1_555
O2C C1E 1_555 1_555
O3F C3F 1_555 1_555
O4E C3C 1_555 1_555
O4C C3E 1_555 1_555
N1E C5E 1_555 1_555
C8E C8D 1_555 1_555

#END
