
#######################################################################
#
#                 Cambridge Crystallographic Data Centre
#                                CCDC 
#
#######################################################################
#
# If this CIF has been generated from an entry in the Cambridge 
# Structural Database, then it will include bibliographic, chemical, 
# crystal, experimental, refinement or atomic coordinate data resulting 
# from the CCDC's data processing and validation procedures.
#
#######################################################################

data_FAZDEQ
_symmetry_cell_setting           triclinic
_symmetry_space_group_name_H-M   'P -1'
_symmetry_Int_Tables_number      2
_space_group_name_Hall           '-P 1'
loop_
_symmetry_equiv_pos_site_id
_symmetry_equiv_pos_as_xyz
1 x,y,z
2 -x,-y,-z
_cell_length_a                   12.1110(2)
_cell_length_b                   15.9535(3)
_cell_length_c                   19.4105(4)
_cell_angle_alpha                91.725(1)
_cell_angle_beta                 93.531(1)
_cell_angle_gamma                110.335(1)
_cell_volume                     3504.63
loop_
_atom_site_label
_atom_site_type_symbol
_atom_site_fract_x
_atom_site_fract_y
_atom_site_fract_z
Br1 Br -0.12066(4) 0.14900(3) 0.74514(2)
B1 B 0.0255(4) 0.1308(3) 0.7324(3)
Br2 Br 0.08020(5) 0.23549(3) 0.59583(3)
B2 B 0.1190(5) 0.1665(4) 0.6698(3)
Br3 Br 0.19242(5) 0.30600(3) 0.81923(3)
B3 B 0.1647(4) 0.1962(3) 0.7619(3)
Br4 Br 0.03260(4) 0.01736(3) 0.86325(2)
B4 B 0.0989(4) 0.0767(3) 0.7812(3)
Br5 Br -0.07666(5) -0.05334(3) 0.64408(3)
B5 B 0.0540(5) 0.0476(3) 0.6897(3)
B6 B 0.2714(5) 0.1935(4) 0.7013(3)
H5 H 0.3406 0.2569 0.6873
B7 B 0.2595(5) 0.1308(4) 0.7808(3)
H6 H 0.3184 0.1439 0.8297
B8 B 0.1802(5) 0.0264(4) 0.7292(3)
H9 H 0.1767 -0.0436 0.7373
B9 B 0.1939(6) 0.0891(4) 0.6492(3)
H10 H 0.2010 0.0690 0.5944
C55 C 0.2978(5) 0.1035(4) 0.7088(3)
H67 H 0.3844 0.0952 0.7011
K1 K 0.22079(7) 0.45953(6) 0.25696(4)
O1 O 0.1613(3) 0.3793(2) 0.12169(15)
C1 C -0.1182(4) 0.1787(3) -0.0586(2)
H1 H -0.1668 0.1142 -0.0636
H2 H -0.0458 0.1878 -0.0829
O2 O 0.0343(2) 0.30077(19) 0.22160(14)
C2 C -0.0844(3) 0.2060(2) 0.0171(2)
O3 O -0.5808(2) 0.12258(19) 0.18403(14)
C3 C 0.0200(3) 0.2795(3) 0.0340(2)
H3 H 0.0654 0.3090 -0.0021
O4 O -0.6869(3) 0.1629(2) 0.06675(16)
C4 C 0.0583(3) 0.3100(2) 0.1015(2)
O5 O -0.3491(2) 0.3992(2) -0.18215(16)
C5 C -0.0092(3) 0.2673(3) 0.1550(2)
O6 O -0.1188(2) 0.45211(19) -0.17123(16)
C6 C -0.1120(3) 0.1957(3) 0.1389(2)
H4 H -0.1577 0.1673 0.1753
O7 O 0.4424(3) 0.5096(2) 0.32231(16)
C7 C -0.1514(3) 0.1632(2) 0.0704(2)
O8 O 0.3564(2) 0.35479(19) 0.25539(15)
C8 C -0.2641(3) 0.0818(2) 0.0584(2)
H7 H -0.2663 0.0405 0.0958
H8 H -0.2618 0.0500 0.0142
O9 O 0.5325(3) -0.0030(2) 0.36610(17)
C9 C -0.3769(3) 0.1037(2) 0.0561(2)
O10 O 0.6781(3) 0.0247(2) 0.47344(17)
C10 C -0.4301(3) 0.1059(2) 0.1181(2)
H11 H -0.3932 0.0950 0.1598
O11 O 0.8301(3) 0.4254(2) 0.64817(15)
C11 C -0.5340(3) 0.1231(2) 0.1209(2)
O12 O 0.7918(2) 0.56682(19) 0.60312(14)
C12 C -0.5876(3) 0.1419(3) 0.0603(2)
C13 C -0.5370(3) 0.1387(3) -0.0017(2)
H13 H -0.5739 0.1503 -0.0431
C14 C -0.4334(3) 0.1191(2) -0.0050(2)
C15 C -0.3889(3) 0.1139(3) -0.0757(2)
H15 H -0.4575 0.0888 -0.1100
H16 H -0.3444 0.0722 -0.0750
C16 C -0.3099(3) 0.2037(3) -0.0986(2)
C17 C -0.3657(3) 0.2589(3) -0.1292(2)
H17 H -0.4495 0.2386 -0.1348
C18 C -0.3010(3) 0.3422(3) -0.1515(2)
C19 C -0.1766(3) 0.3708(3) -0.1449(2)
C20 C -0.1220(3) 0.3164(3) -0.1154(2)
H18 H -0.0382 0.3363 -0.1109
C21 C -0.1870(3) 0.2324(3) -0.09178(19)
C22 C 0.2301(4) 0.4249(3) 0.0678(3)
H19 H 0.2524 0.3821 0.0396
H20 H 0.3015 0.4722 0.0882
H21 H 0.1834 0.4514 0.0386
C23 C 0.0074(4) 0.2363(3) 0.2738(2)
H22 H -0.0754 0.2211 0.2838
H23 H 0.0585 0.2617 0.3159
H24 H 0.0206 0.1822 0.2572
C24 C -0.6972(4) 0.0562(3) 0.1871(2)
H25 H -0.7506 0.0647 0.1502
H26 H -0.7269 0.0627 0.2320
H27 H -0.6929 -0.0038 0.1812
C25 C -0.7453(5) 0.1786(4) 0.0051(3)
H28 H -0.6916 0.2296 -0.0172
H29 H -0.8155 0.1918 0.0166
H30 H -0.7691 0.1252 -0.0264
C26 C -0.4749(4) 0.3762(3) -0.1810(3)
H31 H -0.5153 0.3232 -0.2120
H32 H -0.4974 0.4264 -0.1964
H33 H -0.4978 0.3632 -0.1338
C27 C 0.0075(4) 0.4863(3) -0.1617(3)
H34 H 0.0320 0.4925 -0.1122
H35 H 0.0378 0.5449 -0.1817
H36 H 0.0389 0.4448 -0.1847
C28 C 0.8386(3) 0.4887(3) 0.3608(2)
H37 H 0.8680 0.5542 0.3554
H38 H 0.8895 0.4629 0.3361
C29 C 0.7113(3) 0.4477(3) 0.3294(2)
C30 C 0.6383(4) 0.4977(3) 0.3378(2)
H39 H 0.6706 0.5559 0.3600
C31 C 0.5204(3) 0.4646(3) 0.3147(2)
C32 C 0.4735(4) 0.3807(3) 0.2795(2)
C33 C 0.5452(3) 0.3302(3) 0.2707(2)
H40 H 0.5133 0.2730 0.2469
C34 C 0.6645(3) 0.3626(3) 0.2964(2)
C35 C 0.7348(4) 0.3010(3) 0.2846(2)
H41 H 0.7082 0.2693 0.2386
H42 H 0.8192 0.3384 0.2835
C36 C 0.7241(3) 0.2314(3) 0.3387(2)
C37 C 0.6327(3) 0.1482(3) 0.3274(2)
H43 H 0.5785 0.1381 0.2878
C38 C 0.6198(4) 0.0808(3) 0.3725(2)
C39 C 0.7004(4) 0.0943(3) 0.4310(2)
C40 C 0.7913(3) 0.1756(3) 0.4414(2)
H44 H 0.8467 0.1849 0.4802
C41 C 0.8046(3) 0.2449(3) 0.3965(2)
C42 C 0.9056(4) 0.3328(3) 0.4151(2)
H45 H 0.9721 0.3199 0.4388
H46 H 0.9333 0.3621 0.3720
C43 C 0.8718(3) 0.3978(3) 0.4615(2)
C44 C 0.8669(3) 0.3820(3) 0.5321(2)
H47 H 0.8844 0.3323 0.5487
C45 C 0.8370(3) 0.4374(3) 0.5784(2)
C46 C 0.8149(3) 0.5123(3) 0.5540(2)
C47 C 0.8186(3) 0.5274(3) 0.4842(2)
H48 H 0.8027 0.5779 0.4678
C48 C 0.8452(3) 0.4703(3) 0.4372(2)
C49 C 0.4744(4) 0.5793(3) 0.3757(3)
H49 H 0.5446 0.6285 0.3640
H50 H 0.4090 0.6014 0.3801
H51 H 0.4917 0.5559 0.4196
C50 C 0.3050(4) 0.2677(3) 0.2220(3)
H52 H 0.3102 0.2228 0.2541
H53 H 0.2219 0.2565 0.2075
H54 H 0.3475 0.2640 0.1813
C51 C 0.4407(4) -0.0176(4) 0.3129(3)
H55 H 0.4744 -0.0101 0.2679
H56 H 0.3835 -0.0785 0.3144
H57 H 0.4010 0.0257 0.3198
C52 C 0.7585(6) 0.0389(4) 0.5338(3)
H58 H 0.7596 0.0920 0.5609
H59 H 0.7329 -0.0135 0.5619
H60 H 0.8380 0.0479 0.5197
C53 C 0.8329(5) 0.3409(3) 0.6703(2)
H61 H 0.9116 0.3381 0.6654
H62 H 0.8149 0.3349 0.7188
H63 H 0.7740 0.2921 0.6418
C54 C 0.7463(4) 0.6329(3) 0.5778(2)
H64 H 0.6759 0.6037 0.5463
H65 H 0.7252 0.6633 0.6168
H66 H 0.8065 0.6768 0.5532
K1A K -0.22079(7) 0.54047(6) -0.25696(4)
K1A_2 K 0.77921(7) 0.54047(6) 0.74304(4)
O5A O 0.3491(2) 0.6008(2) 0.18215(16)
O6A O 0.1188(2) 0.54789(19) 0.17123(16)
O11A O 0.1699(3) 0.5746(2) 0.35183(15)
O12A O 0.2082(2) 0.43318(19) 0.39688(14)
F1 F 0.5107(4) 0.3801(4) 0.1025(2)
F2 F 0.5590(5) 0.3895(4) -0.0011(2)
F3 F 0.6522(5) 0.4934(3) 0.0725(3)
O13 O 0.7848(4) 0.3868(3) 0.0405(3)
H12 H 0.7721 0.3520 0.0052
C56 C 0.6032(6) 0.4053(4) 0.0640(3)
C57 C 0.6860(6) 0.3582(4) 0.0810(4)
H68 H 0.7135 0.3701 0.1306
H69 H 0.6446 0.2929 0.0726
F4 F 0.3228(4) 0.1873(4) 0.4969(3)
F5 F 0.4118(4) 0.2179(3) 0.4072(2)
F6 F 0.4654(5) 0.3083(3) 0.4938(3)
O14 O 0.5186(5) 0.1740(3) 0.5707(2)
H14 H 0.4776 0.1223 0.5810
C58 C 0.4301(5) 0.2236(4) 0.4757(3)
C59 C 0.5124(5) 0.1790(4) 0.4998(3)
H70 H 0.4863 0.1177 0.4778
H71 H 0.5921 0.2124 0.4852
loop_
_geom_bond_atom_site_label_1
_geom_bond_atom_site_label_2
_geom_bond_site_symmetry_1
_geom_bond_site_symmetry_2
Br1 B1 1_555 1_555
K1 O1 1_555 1_555
F1 C56 1_555 1_555
O1 C4 1_555 1_555
C1 H1 1_555 1_555
H2 C1 1_555 1_555
B1 B2 1_555 1_555
Br2 B2 1_555 1_555
F2 C56 1_555 1_555
O2 K1 1_555 1_555
C2 C1 1_555 1_555
B2 B3 1_555 1_555
Br3 B3 1_555 1_555
F3 C56 1_555 1_555
O3 C11 1_555 1_555
C3 C2 1_555 1_555
H3 C3 1_555 1_555
B3 B1 1_555 1_555
Br4 B4 1_555 1_555
F4 C58 1_555 1_555
O4 C12 1_555 1_555
C4 C3 1_555 1_555
B4 B1 1_555 1_555
Br5 B5 1_555 1_555
F5 C58 1_555 1_555
O5 C18 1_555 1_555
C5 O2 1_555 1_555
B5 B1 1_555 1_555
F6 C58 1_555 1_555
O6 C19 1_555 1_555
C6 C5 1_555 1_555
H4 C6 1_555 1_555
B6 B2 1_555 1_555
H5 B6 1_555 1_555
O7 K1 1_555 1_555
C7 C2 1_555 1_555
B7 B3 1_555 1_555
H6 B7 1_555 1_555
O8 K1 1_555 1_555
C8 C7 1_555 1_555
H7 C8 1_555 1_555
H8 C8 1_555 1_555
B8 B4 1_555 1_555
H9 B8 1_555 1_555
O9 C38 1_555 1_555
C9 C8 1_555 1_555
B9 B2 1_555 1_555
H10 B9 1_555 1_555
O10 C39 1_555 1_555
C10 C9 1_555 1_555
H11 C10 1_555 1_555
O11 C45 1_555 1_555
C11 C10 1_555 1_555
O12 C46 1_555 1_555
C12 C11 1_555 1_555
O13 H12 1_555 1_555
C13 C12 1_555 1_555
H13 C13 1_555 1_555
O14 H14 1_555 1_555
C14 C9 1_555 1_555
C15 C14 1_555 1_555
H15 C15 1_555 1_555
H16 C15 1_555 1_555
C16 C15 1_555 1_555
C17 C16 1_555 1_555
H17 C17 1_555 1_555
C18 C17 1_555 1_555
C19 C18 1_555 1_555
C20 C19 1_555 1_555
H18 C20 1_555 1_555
C21 C1 1_555 1_555
C22 O1 1_555 1_555
H19 C22 1_555 1_555
H20 C22 1_555 1_555
H21 C22 1_555 1_555
C23 O2 1_555 1_555
H22 C23 1_555 1_555
H23 C23 1_555 1_555
H24 C23 1_555 1_555
C24 O3 1_555 1_555
H25 C24 1_555 1_555
H26 C24 1_555 1_555
H27 C24 1_555 1_555
C25 O4 1_555 1_555
H28 C25 1_555 1_555
H29 C25 1_555 1_555
H30 C25 1_555 1_555
C26 O5 1_555 1_555
H31 C26 1_555 1_555
H32 C26 1_555 1_555
H33 C26 1_555 1_555
C27 O6 1_555 1_555
H34 C27 1_555 1_555
H35 C27 1_555 1_555
H36 C27 1_555 1_555
C28 H37 1_555 1_555
H38 C28 1_555 1_555
C29 C28 1_555 1_555
C30 C29 1_555 1_555
H39 C30 1_555 1_555
C31 O7 1_555 1_555
C32 O8 1_555 1_555
C33 C32 1_555 1_555
H40 C33 1_555 1_555
C34 C29 1_555 1_555
C35 C34 1_555 1_555
H41 C35 1_555 1_555
H42 C35 1_555 1_555
C36 C35 1_555 1_555
C37 C36 1_555 1_555
H43 C37 1_555 1_555
C38 C37 1_555 1_555
C39 C38 1_555 1_555
C40 C39 1_555 1_555
H44 C40 1_555 1_555
C41 C36 1_555 1_555
C42 C41 1_555 1_555
H45 C42 1_555 1_555
H46 C42 1_555 1_555
C43 C42 1_555 1_555
C44 C43 1_555 1_555
H47 C44 1_555 1_555
C45 C44 1_555 1_555
C46 C45 1_555 1_555
C47 C46 1_555 1_555
H48 C47 1_555 1_555
C48 C28 1_555 1_555
C49 O7 1_555 1_555
H49 C49 1_555 1_555
H50 C49 1_555 1_555
H51 C49 1_555 1_555
C50 O8 1_555 1_555
H52 C50 1_555 1_555
H53 C50 1_555 1_555
H54 C50 1_555 1_555
C51 O9 1_555 1_555
H55 C51 1_555 1_555
H56 C51 1_555 1_555
H57 C51 1_555 1_555
C52 O10 1_555 1_555
H58 C52 1_555 1_555
H59 C52 1_555 1_555
H60 C52 1_555 1_555
C53 O11 1_555 1_555
H61 C53 1_555 1_555
H62 C53 1_555 1_555
H63 C53 1_555 1_555
C54 O12 1_555 1_555
H64 C54 1_555 1_555
H65 C54 1_555 1_555
H66 C54 1_555 1_555
C55 B6 1_555 1_555
H67 C55 1_555 1_555
C56 C57 1_555 1_555
C57 O13 1_555 1_555
H68 C57 1_555 1_555
H69 C57 1_555 1_555
C58 C59 1_555 1_555
C59 O14 1_555 1_555
H70 C59 1_555 1_555
H71 C59 1_555 1_555
K1A O5 1_555 1_555
K1A_2 O11 1_555 1_555
O5A K1 1_555 1_555
O6A K1 1_555 1_555
O11A K1 1_555 1_555
O12A K1 1_555 1_555
B2 B5 1_555 1_555
B3 B4 1_555 1_555
B3 B6 1_555 1_555
C4 C5 1_555 1_555
B4 B5 1_555 1_555
B4 B7 1_555 1_555
B5 B8 1_555 1_555
B5 B9 1_555 1_555
O6 K1A 1_555 1_555
C6 C7 1_555 1_555
B6 B7 1_555 1_555
B6 B9 1_555 1_555
B7 B8 1_555 1_555
B7 C55 1_555 1_555
B8 B9 1_555 1_555
B8 C55 1_555 1_555
B9 C55 1_555 1_555
O12 K1A_2 1_555 1_555
C13 C14 1_555 1_555
C16 C21 1_555 1_555
C20 C21 1_555 1_555
C30 C31 1_555 1_555
C31 C32 1_555 1_555
C33 C34 1_555 1_555
C40 C41 1_555 1_555
C43 C48 1_555 1_555
C47 C48 1_555 1_555

#END
