
#######################################################################
#
#                 Cambridge Crystallographic Data Centre
#                                CCDC 
#
#######################################################################
#
# If this CIF has been generated from an entry in the Cambridge 
# Structural Database, then it will include bibliographic, chemical, 
# crystal, experimental, refinement or atomic coordinate data resulting 
# from the CCDC's data processing and validation procedures.
#
#######################################################################

data_FAZFET
_symmetry_cell_setting           tetragonal
_symmetry_space_group_name_H-M   'I 41 c d'
_symmetry_Int_Tables_number      110
_space_group_name_Hall           'I 4bw -2c'
loop_
_symmetry_equiv_pos_site_id
_symmetry_equiv_pos_as_xyz
1 x,y,z
2 -y,1/2+x,1/4+z
3 -x,-y,z
4 y,1/2-x,1/4+z
5 -x,y,1/2+z
6 x,-y,1/2+z
7 1/2-y,-x,1/4+z
8 1/2+y,x,1/4+z
9 1/2+x,1/2+y,1/2+z
10 1/2-y,x,3/4+z
11 1/2-x,1/2-y,1/2+z
12 1/2+y,-x,3/4+z
13 1/2-x,1/2+y,z
14 1/2+x,1/2-y,z
15 -y,1/2-x,3/4+z
16 y,1/2+x,3/4+z
_cell_length_a                   30.5983(18)
_cell_length_b                   30.5983(18)
_cell_length_c                   35.422(3)
_cell_angle_alpha                90
_cell_angle_beta                 90
_cell_angle_gamma                90
_cell_volume                     33164.1
loop_
_atom_site_label
_atom_site_type_symbol
_atom_site_fract_x
_atom_site_fract_y
_atom_site_fract_z
Co1 Co 0.58847(5) 0.92608(5) 0.86811(5)
Co2 Co 0.60673(5) 0.56287(5) 0.70334(5)
Co3 Co 0.59850(6) 0.88951(5) 0.66281(5)
Co4 Co 0.37913(6) 0.86555(6) 0.66374(6)
Co5 Co 0.73311(5) 0.79511(7) 0.75498(6)
Ge1 Ge 0.51773(4) 0.83818(4) 0.88044(4)
Ge2 Ge 0.42905(4) 0.79583(4) 0.88233(4)
Ge3 Ge 0.51941(4) 0.63815(3) 0.69208(4)
Ge4 Ge 0.42623(4) 0.66858(4) 0.69822(4)
V1 V 0.45391(6) 0.84872(6) 0.79898(6)
V2 V 0.55307(6) 0.85453(6) 0.79612(6)
V3 V 0.62195(5) 0.79282(6) 0.78047(6)
V4 V 0.62577(6) 0.69582(6) 0.77870(6)
V5 V 0.56556(6) 0.62726(6) 0.77235(6)
V6 V 0.46736(6) 0.62008(6) 0.78004(6)
V7 V 0.39126(6) 0.68479(6) 0.78572(7)
V8 V 0.38469(6) 0.77591(6) 0.79852(6)
V9 V 0.52903(6) 0.82631(6) 0.71870(6)
V10 V 0.49822(6) 0.74899(6) 0.67621(6)
V11 V 0.58711(6) 0.72019(5) 0.70396(6)
V12 V 0.41784(6) 0.77690(6) 0.72044(6)
V13 V 0.59711(6) 0.76634(6) 0.85911(6)
V14 V 0.51544(6) 0.72692(6) 0.89612(6)
V15 V 0.43345(6) 0.68888(6) 0.86013(6)
V16 V 0.54970(6) 0.65431(6) 0.85235(6)
N1 N 0.6446(3) 0.8868(4) 0.8609(4)
H1 H 0.6579 0.8833 0.8834
H2 H 0.6364 0.8602 0.8526
N2 N 0.6302(4) 0.9718(5) 0.8392(4)
H3 H 0.6213 0.9746 0.8151
H4 H 0.6282 0.9982 0.8503
N3 N 0.5324(4) 0.9633(4) 0.8578(4)
H5 H 0.5099 0.9445 0.8603
H6 H 0.5304 0.9818 0.8775
N4 N 0.6573(4) 0.6108(3) 0.7050(3)
H7 H 0.6620 0.6207 0.6814
H8 H 0.6482 0.6335 0.7191
N5 N 0.6588(4) 0.5255(4) 0.7311(4)
H9 H 0.6477 0.5088 0.7497
H10 H 0.6725 0.5082 0.7144
N6 N 0.5615(4) 0.5098(3) 0.7122(3)
H11 H 0.5654 0.4903 0.6935
H12 H 0.5689 0.4964 0.7339
N7 N 0.6304(6) 0.8952(6) 0.7145(5)
H13 H 0.6152 0.8809 0.7324
H14 H 0.6571 0.8830 0.7129
N8 N 0.5863(6) 0.9566(6) 0.6716(6)
H15 H 0.6044 0.9729 0.6573
H16 H 0.5586 0.9631 0.6652
N9 N 0.6137(6) 0.8225(5) 0.6501(5)
H17 H 0.6427 0.8180 0.6520
H18 H 0.6000 0.8047 0.6664
N10 N 0.5702(6) 0.8869(6) 0.6086(5)
H19 H 0.5452 0.9024 0.6083
H20 H 0.5886 0.8986 0.5915
N11 N 0.4020(4) 0.8953(4) 0.7123(4)
H21 H 0.4141 0.8753 0.7278
H22 H 0.4225 0.9153 0.7065
N12 N 0.3187(4) 0.8760(4) 0.6894(4)
H23 H 0.3049 0.8985 0.6781
H24 H 0.3019 0.8521 0.6870
N13 N 0.4377(4) 0.8526(4) 0.6373(4)
H25 H 0.4541 0.8771 0.6366
H26 H 0.4525 0.8322 0.6503
N14 N 0.3535(4) 0.8326(4) 0.6176(4)
H27 H 0.3321 0.8143 0.6251
H28 H 0.3422 0.8517 0.6010
N15 N 0.7946(4) 0.7766(5) 0.7273(4)
H29 H 0.8106 0.8006 0.7222
H30 H 0.8103 0.7590 0.7425
N16 N 0.7088(4) 0.7550(4) 0.7118(4)
H31 H 0.6874 0.7378 0.7211
H32 H 0.6973 0.7717 0.6934
N17 N 0.7543(5) 0.8293(6) 0.8030(5)
H33 H 0.7789 0.8441 0.7973
H34 H 0.7338 0.8490 0.8095
N18 N 0.7390(4) 0.7427(5) 0.7944(4)
H35 H 0.7172 0.7234 0.7906
H36 H 0.7645 0.7288 0.7907
O1 O 0.5052(2) 0.8462(3) 0.8330(2)
O2 O 0.5018(2) 0.8505(2) 0.7639(2)
O3 O 0.4194(2) 0.8109(3) 0.8355(2)
O4 O 0.4203(2) 0.8126(2) 0.7653(2)
O5 O 0.4323(3) 0.8962(3) 0.8024(3)
O6 O 0.5900(2) 0.8154(3) 0.8245(2)
O7 O 0.5786(2) 0.8257(2) 0.7534(2)
O8 O 0.5722(3) 0.9040(3) 0.8019(3)
O9 O 0.6261(2) 0.7430(2) 0.8147(2)
O10 O 0.6189(2) 0.7465(2) 0.7451(2)
O11 O 0.6692(2) 0.8150(3) 0.7750(3)
O12 O 0.5937(2) 0.6581(2) 0.8129(2)
O13 O 0.5884(3) 0.6708(2) 0.7395(2)
O14 O 0.6750(3) 0.6772(3) 0.7749(3)
O15 O 0.5202(2) 0.6244(3) 0.8104(2)
O16 O 0.5123(2) 0.6286(3) 0.7410(2)
O17 O 0.5896(2) 0.5806(2) 0.7632(2)
O18 O 0.4333(2) 0.6536(3) 0.8158(3)
O19 O 0.4256(3) 0.6533(3) 0.7456(3)
O20 O 0.4515(3) 0.5703(3) 0.7809(3)
O21 O 0.3953(2) 0.7246(2) 0.8283(3)
O22 O 0.3890(2) 0.7377(3) 0.7553(3)
O23 O 0.3442(3) 0.6603(3) 0.7857(3)
O24 O 0.3347(3) 0.7923(3) 0.8014(3)
O25 O 0.4738(2) 0.7969(2) 0.7047(3)
O26 O 0.5514(2) 0.7723(2) 0.6967(2)
O27 O 0.5378(3) 0.8659(3) 0.6891(3)
O28 O 0.4423(3) 0.7236(2) 0.6941(3)
O29 O 0.5311(2) 0.6936(2) 0.6853(2)
O30 O 0.4942(3) 0.7584(3) 0.6319(3)
O31 O 0.6221(2) 0.7153(3) 0.6707(2)
O32 O 0.3817(3) 0.7997(3) 0.6931(3)
O33 O 0.5405(3) 0.7858(3) 0.8850(3)
O34 O 0.5683(2) 0.7117(3) 0.8699(2)
O35 O 0.6353(3) 0.7758(3) 0.8893(3)
O36 O 0.4538(2) 0.7450(2) 0.8850(2)
O37 O 0.4933(3) 0.6758(3) 0.8703(2)
O38 O 0.5209(3) 0.7181(3) 0.9409(3)
O39 O 0.4045(3) 0.6622(3) 0.8903(3)
O40 O 0.4653(2) 0.8340(3) 0.9032(2)
O41 O 0.5479(3) 0.8799(3) 0.8981(2)
O42 O 0.3808(3) 0.7954(3) 0.9096(3)
O43 O 0.4648(3) 0.6357(2) 0.6743(3)
O44 O 0.5554(3) 0.6017(3) 0.6737(2)
O45 O 0.3755(3) 0.6602(3) 0.6773(3)
O46 O 0.7317(4) 0.8534(4) 0.7192(4)
H37 H 0.7339 0.8760 0.7329
H38 H 0.7486 0.8565 0.7003
C1 C 0.6738(5) 0.9047(5) 0.8357(5)
H56 H 0.6655 0.8968 0.8101
H57 H 0.7028 0.8931 0.8404
C2 C 0.6744(6) 0.9572(6) 0.8399(6)
H58 H 0.6882 0.9654 0.8635
H59 H 0.6907 0.9702 0.8193
C3 C 0.5227(7) 0.9874(7) 0.8273(6)
H60 H 0.5233 0.9683 0.8054
H61 H 0.5458 1.0088 0.8240
C4 C 0.6985(5) 0.5944(5) 0.7204(5)
H62 H 0.7138 0.6178 0.7332
H63 H 0.7170 0.5839 0.7000
C5 C 0.6896(5) 0.5587(5) 0.7469(5)
H64 H 0.6773 0.5708 0.7698
H65 H 0.7169 0.5445 0.7534
C6 C 0.5153(4) 0.5200(4) 0.7140(4)
H66 H 0.5079 0.5383 0.6926
H67 H 0.5098 0.5369 0.7367
C7 C 0.6346(9) 0.9414(9) 0.7251(8)
H68 H 0.6604 0.9539 0.7133
H69 H 0.6377 0.9440 0.7522
C8 C 0.5938(8) 0.9657(8) 0.7119(8)
H70 H 0.5687 0.9562 0.7265
H71 H 0.5975 0.9968 0.7158
C9 C 0.5992(7) 0.8133(6) 0.6117(6)
H72 H 0.5907 0.7828 0.6101
H73 H 0.6235 0.8178 0.5945
C10 C 0.5612(8) 0.8413(8) 0.5991(7)
H74 H 0.5571 0.8384 0.5721
H75 H 0.5347 0.8318 0.6116
C11 C 0.3631(6) 0.9172(6) 0.7317(6)
H76 H 0.3702 0.9239 0.7577
H77 H 0.3558 0.9443 0.7189
C12 C 0.3252(6) 0.8860(5) 0.7299(5)
H78 H 0.3317 0.8595 0.7439
H79 H 0.2992 0.8992 0.7405
C13 C 0.4300(5) 0.8379(5) 0.6006(5)
H80 H 0.4557 0.8227 0.5913
H81 H 0.4246 0.8627 0.5842
C14 C 0.3905(5) 0.8069(5) 0.5995(5)
H82 H 0.3833 0.7991 0.5737
H83 H 0.3965 0.7804 0.6136
C15 C 0.7838(5) 0.7540(6) 0.6926(5)
H84 H 0.8077 0.7348 0.6858
H85 H 0.7802 0.7752 0.6725
C16 C 0.7432(5) 0.7278(6) 0.6961(6)
H86 H 0.7345 0.7171 0.6715
H87 H 0.7483 0.7029 0.7124
C17 C 0.7631(6) 0.8005(7) 0.8355(6)
H88 H 0.7556 0.8157 0.8587
H89 H 0.7940 0.7936 0.8363
C18 C 0.7370(6) 0.7586(7) 0.8330(6)
H90 H 0.7491 0.7370 0.8501
H91 H 0.7069 0.7640 0.8402
O59 O 0.5615(3) 0.6153(3) 0.8828(3)
Co1B Co 0.41153(5) 1.07392(5) 0.86811(5)
Co1I Co 0.57392(5) 0.58847(5) 0.61811(5)
Co1C Co 0.92608(5) 0.91153(5) 1.11811(5)
Co2C Co 0.56287(5) 0.89327(5) 0.95334(5)
Co2B Co 0.39327(5) 0.43713(5) 0.70334(5)
Co2J Co 0.89327(5) 0.93713(5) 1.20334(5)
Co3C Co 0.88951(5) 0.90150(6) 0.91281(5)
Co3G Co 0.38951(5) 0.59850(6) 0.91281(5)
Co3E Co 0.59850(6) 1.11049(5) 1.16281(5)
Co4C Co 0.86555(6) 1.12087(6) 0.91374(6)
Co5C Co 0.79511(7) 0.76689(5) 1.00498(6)
Ge1C Ge 0.83818(4) 0.98227(4) 1.13044(4)
Ge2C Ge 0.79583(4) 1.07095(4) 1.13233(4)
Ge3C Ge 0.63815(3) 0.98059(4) 0.94208(4)
Ge4C Ge 0.66858(4) 1.07377(4) 0.94822(4)
V1C V 0.84872(6) 1.04609(6) 1.04898(6)
V2C V 0.85453(6) 0.94693(6) 1.04612(6)
V3C V 0.79282(6) 0.87805(5) 1.03047(6)
V4C V 0.69582(6) 0.87423(6) 1.02870(6)
V5C V 0.62726(6) 0.93444(6) 1.02235(6)
V6C V 0.62008(6) 1.03264(6) 1.03004(6)
V7C V 0.68479(6) 1.10874(6) 1.03572(7)
V8C V 0.77591(6) 1.11531(6) 1.04852(6)
V9C V 0.82631(6) 0.97097(6) 0.96870(6)
V10C V 0.74899(6) 1.00178(6) 0.92621(6)
V11C V 0.72019(5) 0.91289(6) 0.95396(6)
V12C V 0.77690(6) 1.08216(6) 0.97044(6)
V13C V 0.76634(6) 0.90289(6) 1.10911(6)
V14C V 0.72692(6) 0.98456(6) 1.14612(6)
V15C V 0.68888(6) 1.06655(6) 1.11013(6)
V16C V 0.65431(6) 0.95030(6) 1.10235(6)
N1B N 0.3554(3) 1.1132(4) 0.8609(4)
H1B H 0.3421 1.1167 0.8834
H2B H 0.3636 1.1398 0.8526
N2B N 0.3698(4) 1.0282(5) 0.8392(4)
H3B H 0.3787 1.0254 0.8151
H4B H 0.3718 1.0018 0.8503
N3B N 0.4676(4) 1.0367(4) 0.8578(4)
H5B H 0.4901 1.0555 0.8603
H6B H 0.4696 1.0182 0.8775
N4C N 0.6108(3) 0.8427(4) 0.9550(3)
H7C H 0.6207 0.8380 0.9314
H8C H 0.6335 0.8518 0.9691
N5C N 0.5255(4) 0.8412(4) 0.9811(4)
H9C H 0.5088 0.8523 0.9997
H10C H 0.5082 0.8275 0.9644
N6B N 0.4385(4) 0.4902(3) 0.7122(3)
N6C N 0.5098(3) 0.9385(4) 0.9622(3)
H11B H 0.4346 0.5097 0.6935
H11C H 0.4903 0.9346 0.9435
H12B H 0.4311 0.5036 0.7339
H12C H 0.4964 0.9311 0.9839
N7C N 0.8952(6) 0.8696(6) 0.9645(5)
H13C H 0.8809 0.8848 0.9824
H14C H 0.8830 0.8429 0.9629
N8C N 0.9566(6) 0.9137(6) 0.9216(6)
H15C H 0.9729 0.8956 0.9073
H16C H 0.9631 0.9414 0.9152
N9C N 0.8225(5) 0.8863(6) 0.9001(5)
H17C H 0.8180 0.8573 0.9020
H18C H 0.8047 0.9000 0.9164
N10C N 0.8869(6) 0.9298(6) 0.8586(5)
H19C H 0.9024 0.9548 0.8583
H20C H 0.8986 0.9114 0.8415
N11C N 0.8953(4) 1.0980(4) 0.9623(4)
H21C H 0.8753 1.0859 0.9778
H22C H 0.9153 1.0775 0.9565
N12C N 0.8760(4) 1.1813(4) 0.9394(4)
H23C H 0.8985 1.1951 0.9281
H24C H 0.8521 1.1981 0.9370
N13C N 0.8526(4) 1.0623(4) 0.8873(4)
H25C H 0.8771 1.0459 0.8866
H26C H 0.8322 1.0475 0.9003
N14C N 0.8326(4) 1.1465(4) 0.8676(4)
H27C H 0.8143 1.1679 0.8751
H28C H 0.8517 1.1578 0.8510
N15C N 0.7766(5) 0.7054(4) 0.9773(4)
H29C H 0.8006 0.6894 0.9722
H30C H 0.7590 0.6897 0.9925
N16C N 0.7550(4) 0.7912(4) 0.9618(4)
H31C H 0.7378 0.8126 0.9711
H32C H 0.7717 0.8027 0.9434
N17C N 0.8293(6) 0.7457(5) 1.0530(5)
H33C H 0.8441 0.7211 1.0473
H34C H 0.8490 0.7662 1.0595
N18C N 0.7427(5) 0.7610(4) 1.0444(4)
H35C H 0.7234 0.7828 1.0406
H36C H 0.7288 0.7355 1.0407
O1C O 0.8462(3) 0.9948(2) 1.0830(2)
O2C O 0.8505(2) 0.9982(2) 1.0139(2)
O3C O 0.8109(3) 1.0806(2) 1.0855(2)
O4C O 0.8126(2) 1.0797(2) 1.0153(2)
O5C O 0.8962(3) 1.0677(3) 1.0524(3)
O6C O 0.8154(3) 0.9100(2) 1.0745(2)
O7C O 0.8257(2) 0.9214(2) 1.0034(2)
O8C O 0.9040(3) 0.9278(3) 1.0519(3)
O9C O 0.7430(2) 0.8739(2) 1.0647(2)
O10C O 0.7465(2) 0.8811(2) 0.9951(2)
O11C O 0.8150(3) 0.8308(2) 1.0250(3)
O12C O 0.6581(2) 0.9063(2) 1.0629(2)
O13C O 0.6708(2) 0.9116(3) 0.9895(2)
O14C O 0.6772(3) 0.8250(3) 1.0249(3)
O15C O 0.6244(3) 0.9798(2) 1.0604(2)
O16C O 0.6286(3) 0.9877(2) 0.9910(2)
O17C O 0.5806(2) 0.9104(2) 1.0132(2)
O18C O 0.6536(3) 1.0667(2) 1.0658(3)
O19C O 0.6533(3) 1.0744(3) 0.9956(3)
O20C O 0.5703(3) 1.0485(3) 1.0309(3)
O21C O 0.7246(2) 1.1047(2) 1.0783(3)
O22C O 0.7377(3) 1.1110(2) 1.0053(3)
O23C O 0.6603(3) 1.1558(3) 1.0357(3)
O24C O 0.7923(3) 1.1653(3) 1.0514(3)
O25C O 0.7969(2) 1.0262(2) 0.9547(3)
O26C O 0.7723(2) 0.9486(2) 0.9467(2)
O27C O 0.8659(3) 0.9622(3) 0.9391(3)
O28C O 0.7236(2) 1.0577(3) 0.9441(3)
O29C O 0.6936(2) 0.9689(2) 0.9353(2)
O30C O 0.7584(3) 1.0058(3) 0.8819(3)
O31C O 0.7153(3) 0.8779(2) 0.9207(2)
O32C O 0.7997(3) 1.1183(3) 0.9431(3)
O33C O 0.7858(3) 0.9595(3) 1.1350(3)
O34C O 0.7117(3) 0.9317(2) 1.1199(2)
O35C O 0.7758(3) 0.8647(3) 1.1393(3)
O36C O 0.7450(2) 1.0462(2) 1.1350(2)
O37C O 0.6758(3) 1.0067(3) 1.1203(2)
O38C O 0.7181(3) 0.9791(3) 1.1909(3)
O39C O 0.6622(3) 1.0955(3) 1.1403(3)
O39O O 0.6622(3) 0.9045(3) 0.6403(3)
O39M O 0.9045(3) 0.8378(3) 0.8903(3)
O40C O 0.8340(3) 1.0347(2) 1.1532(2)
O41C O 0.8799(3) 0.9521(3) 1.1481(2)
O41I O 0.6201(3) 0.5479(3) 0.6481(2)
O41B O 0.4521(3) 1.1201(3) 0.8981(2)
O42C O 0.7954(3) 1.1192(3) 1.1596(3)
O43C O 0.6357(2) 1.0352(3) 0.9243(3)
O44C O 0.6017(3) 0.9446(3) 0.9237(2)
O44A O 0.3983(3) 1.0554(3) 0.9237(2)
O45C O 0.6602(3) 1.1245(3) 0.9273(3)
O46C O 0.8534(4) 0.7683(4) 0.9692(4)
H37C H 0.8760 0.7661 0.9829
H38C H 0.8565 0.7514 0.9503
C1B C 0.3262(5) 1.0953(5) 0.8357(5)
H56B H 0.3345 1.1032 0.8101
H57B H 0.2972 1.1069 0.8404
C2B C 0.3256(6) 1.0428(6) 0.8399(6)
H58B H 0.3118 1.0346 0.8635
H59B H 0.3093 1.0298 0.8193
C3B C 0.4773(7) 1.0126(7) 0.8273(6)
H60B H 0.4767 1.0317 0.8054
H61B H 0.4542 0.9912 0.8240
C4C C 0.5944(5) 0.8015(5) 0.9704(5)
H62C H 0.6178 0.7862 0.9832
H63C H 0.5839 0.7830 0.9500
C5C C 0.5587(5) 0.8104(5) 0.9969(5)
H64C H 0.5708 0.8227 1.0198
H65C H 0.5445 0.7831 1.0034
C6B C 0.4847(4) 0.4800(4) 0.7140(4)
H66B H 0.4921 0.4617 0.6926
H67B H 0.4902 0.4631 0.7367
C7C C 0.9414(9) 0.8654(9) 0.9751(8)
H68C H 0.9539 0.8396 0.9633
H69C H 0.9440 0.8623 1.0022
C8C C 0.9657(8) 0.9062(8) 0.9619(8)
H70C H 0.9562 0.9313 0.9765
H71C H 0.9968 0.9025 0.9658
C9C C 0.8133(6) 0.9008(7) 0.8617(6)
H72C H 0.7828 0.9093 0.8601
H73C H 0.8178 0.8765 0.8445
C10C C 0.8413(8) 0.9388(8) 0.8491(7)
H74C H 0.8384 0.9429 0.8221
H75C H 0.8318 0.9653 0.8616
C11C C 0.9172(6) 1.1369(6) 0.9817(6)
H76C H 0.9239 1.1298 1.0077
H77C H 0.9443 1.1442 0.9689
C12C C 0.8860(5) 1.1748(6) 0.9799(5)
H78C H 0.8595 1.1683 0.9939
H79C H 0.8992 1.2008 0.9905
C13C C 0.8379(5) 1.0700(5) 0.8506(5)
H80C H 0.8227 1.0443 0.8413
H81C H 0.8627 1.0754 0.8342
C14C C 0.8069(5) 1.1095(5) 0.8495(5)
H82C H 0.7991 1.1167 0.8237
H83C H 0.7804 1.1035 0.8636
C15C C 0.7540(6) 0.7162(5) 0.9426(5)
H84C H 0.7348 0.6923 0.9358
H85C H 0.7752 0.7198 0.9225
C16C C 0.7278(6) 0.7568(5) 0.9461(6)
H86C H 0.7171 0.7655 0.9215
H87C H 0.7029 0.7517 0.9624
C17C C 0.8005(7) 0.7369(6) 1.0855(6)
H88C H 0.8157 0.7444 1.1087
H89C H 0.7936 0.7060 1.0863
C18C C 0.7586(7) 0.7630(6) 1.0830(6)
H90C H 0.7370 0.7509 1.1001
H91C H 0.7640 0.7931 1.0902
O59C O 0.6153(3) 0.9385(3) 1.1328(3)
O47 O 0.2861(15) 0.9411(11) 0.8225(9)
H39 H 0.3027 0.9215 0.8318
H40 H 0.2741 0.9549 0.8406
O48 O 0.3304(15) 0.8723(11) 0.8483(8)
H41 H 0.3286 0.8474 0.8379
H42 H 0.3300 0.8688 0.8721
O49 O 0.5036(4) 0.7368(4) 0.7870(4)
H43 H 0.4828 0.7189 0.7836
H44 H 0.5162 0.7298 0.8076
O50 O 0.4424(5) 0.9341(5) 0.8934(5)
H45 H 0.4465 0.9069 0.8969
H46 H 0.4181 0.9411 0.9035
O51 O 0.0534(12) 0.9846(12) 0.9720(12)
H47 H 0.0724 0.9818 0.9894
H48 H 0.0653 0.9989 0.9542
O52 O 0.0523(11) 0.9747(11) 0.8770(11)
H49 H 0.0570 0.9473 0.8773
H50 H 0.0349 0.9804 0.8589
O53 O 0.4213(12) 0.8407(13) 0.9912(11)
O54 O 0.4255(8) 0.7581(9) 1.0036(8)
H51 H 0.4440 0.7380 0.9992
H52 H 0.4332 0.7709 1.0238
O55 O 1.0000 1.0000 0.825(3)
H53 H 0.9872 0.9814 0.8114
H53B H 1.0128 1.0186 0.8114
O56 O 0.493(3) 0.888(3) 1.061(3)
H54 H 0.5165 0.8914 1.0482
H55 H 0.4736 0.9045 1.0518
O57 O 0.2873(10) 1.0042(11) 0.7659(10)
O58 O 0.2235(15) 1.0263(14) 0.8124(14)
loop_
_geom_bond_atom_site_label_1
_geom_bond_atom_site_label_2
_geom_bond_site_symmetry_1
_geom_bond_site_symmetry_2
Co1 N1 1_555 1_555
Co2 N4 1_555 1_555
Co3 N7 1_555 1_555
Co4 N11 1_555 1_555
Co5 N15 1_555 1_555
Ge1 O1 1_555 1_555
Ge2 O3 1_555 1_555
Ge3 O16 1_555 1_555
Ge4 O19 1_555 1_555
V1 O1 1_555 1_555
V2 O1 1_555 1_555
V3 O6 1_555 1_555
V4 O9 1_555 1_555
V5 O12 1_555 1_555
V6 O15 1_555 1_555
V7 O18 1_555 1_555
V8 O3 1_555 1_555
V9 O2 1_555 1_555
V10 O25 1_555 1_555
V11 O10 1_555 1_555
V12 O4 1_555 1_555
V13 O6 1_555 1_555
V14 O33 1_555 1_555
V15 O18 1_555 1_555
V16 O12 1_555 1_555
N1 H1 1_555 1_555
H2 N1 1_555 1_555
N2 Co1 1_555 1_555
H3 N2 1_555 1_555
H4 N2 1_555 1_555
N3 Co1 1_555 1_555
H5 N3 1_555 1_555
H6 N3 1_555 1_555
N4 H7 1_555 1_555
H8 N4 1_555 1_555
N5 Co2 1_555 1_555
H9 N5 1_555 1_555
H10 N5 1_555 1_555
N6 Co2 1_555 1_555
H11 N6 1_555 1_555
H12 N6 1_555 1_555
N7 H13 1_555 1_555
H14 N7 1_555 1_555
N8 Co3 1_555 1_555
H15 N8 1_555 1_555
H16 N8 1_555 1_555
N9 Co3 1_555 1_555
H17 N9 1_555 1_555
H18 N9 1_555 1_555
N10 Co3 1_555 1_555
H19 N10 1_555 1_555
H20 N10 1_555 1_555
N11 H21 1_555 1_555
H22 N11 1_555 1_555
N12 Co4 1_555 1_555
H23 N12 1_555 1_555
H24 N12 1_555 1_555
N13 Co4 1_555 1_555
H25 N13 1_555 1_555
H26 N13 1_555 1_555
N14 Co4 1_555 1_555
H27 N14 1_555 1_555
H28 N14 1_555 1_555
N15 H29 1_555 1_555
H30 N15 1_555 1_555
N16 Co5 1_555 1_555
H31 N16 1_555 1_555
H32 N16 1_555 1_555
N17 Co5 1_555 1_555
H33 N17 1_555 1_555
H34 N17 1_555 1_555
N18 Co5 1_555 1_555
H35 N18 1_555 1_555
H36 N18 1_555 1_555
O2 V1 1_555 1_555
O3 V1 1_555 1_555
O4 V1 1_555 1_555
O5 V1 1_555 1_555
O6 V2 1_555 1_555
O7 V2 1_555 1_555
O8 V2 1_555 1_555
O9 V3 1_555 1_555
O10 V3 1_555 1_555
O11 Co5 1_555 1_555
O12 V4 1_555 1_555
O13 V4 1_555 1_555
O14 V4 1_555 1_555
O15 V5 1_555 1_555
O16 V5 1_555 1_555
O17 Co2 1_555 1_555
O18 V6 1_555 1_555
O19 V6 1_555 1_555
O20 V6 1_555 1_555
O21 V7 1_555 1_555
O22 V7 1_555 1_555
O23 V7 1_555 1_555
O24 V8 1_555 1_555
O25 V9 1_555 1_555
O26 V9 1_555 1_555
O27 Co3 1_555 1_555
O28 Ge4 1_555 1_555
O29 Ge3 1_555 1_555
O30 V10 1_555 1_555
O31 V11 1_555 1_555
O32 Co4 1_555 1_555
O33 Ge1 1_555 1_555
O34 V13 1_555 1_555
O35 V13 1_555 1_555
O36 Ge2 1_555 1_555
O37 V14 1_555 1_555
O38 V14 1_555 1_555
O39 V15 1_555 1_555
O40 Ge1 1_555 1_555
O41 Co1 1_555 1_555
O42 Ge2 1_555 1_555
O43 Ge3 1_555 1_555
O44 Co2 1_555 1_555
O45 Ge4 1_555 1_555
O46 Co5 1_555 1_555
H37 O46 1_555 1_555
H38 O46 1_555 1_555
O47 H39 1_555 1_555
H40 O47 1_555 1_555
O48 H41 1_555 1_555
H42 O48 1_555 1_555
O49 H43 1_555 1_555
H44 O49 1_555 1_555
O50 H45 1_555 1_555
H46 O50 1_555 1_555
O51 H47 1_555 1_555
H48 O51 1_555 1_555
O52 H49 1_555 1_555
H50 O52 1_555 1_555
O54 H51 1_555 1_555
H52 O54 1_555 1_555
O55 H53 1_555 1_555
O56 H54 1_555 1_555
H55 O56 1_555 1_555
C1 N1 1_555 1_555
H56 C1 1_555 1_555
H57 C1 1_555 1_555
C2 N2 1_555 1_555
H58 C2 1_555 1_555
H59 C2 1_555 1_555
C3 N3 1_555 1_555
H60 C3 1_555 1_555
H61 C3 1_555 1_555
C4 N4 1_555 1_555
H62 C4 1_555 1_555
H63 C4 1_555 1_555
C5 N5 1_555 1_555
H64 C5 1_555 1_555
H65 C5 1_555 1_555
C6 N6 1_555 1_555
H66 C6 1_555 1_555
H67 C6 1_555 1_555
C7 N7 1_555 1_555
H68 C7 1_555 1_555
H69 C7 1_555 1_555
C8 N8 1_555 1_555
H70 C8 1_555 1_555
H71 C8 1_555 1_555
C9 N9 1_555 1_555
H72 C9 1_555 1_555
H73 C9 1_555 1_555
C10 N10 1_555 1_555
H74 C10 1_555 1_555
H75 C10 1_555 1_555
C11 N11 1_555 1_555
H76 C11 1_555 1_555
H77 C11 1_555 1_555
C12 N12 1_555 1_555
H78 C12 1_555 1_555
H79 C12 1_555 1_555
C13 N13 1_555 1_555
H80 C13 1_555 1_555
H81 C13 1_555 1_555
C14 N14 1_555 1_555
H82 C14 1_555 1_555
H83 C14 1_555 1_555
C15 N15 1_555 1_555
H84 C15 1_555 1_555
H85 C15 1_555 1_555
C16 N16 1_555 1_555
H86 C16 1_555 1_555
H87 C16 1_555 1_555
C17 N17 1_555 1_555
H88 C17 1_555 1_555
H89 C17 1_555 1_555
C18 N18 1_555 1_555
H90 C18 1_555 1_555
H91 C18 1_555 1_555
O59 V16 1_555 1_555
Co1B N1B 1_555 1_555
Co1I O44 1_555 1_555
Co1C O41C 1_555 1_555
Co2C O41 1_555 1_555
Co2B N6B 1_555 1_555
Co2J O41C 1_555 1_555
Co3C N7C 1_555 1_555
Co3G O39 1_555 1_555
Co3E O39C 1_555 1_555
Co4C N11C 1_555 1_555
Co5C N15C 1_555 1_555
Ge1C O1C 1_555 1_555
Ge2C O3C 1_555 1_555
Ge3C O16C 1_555 1_555
Ge4C O19C 1_555 1_555
V1C O1C 1_555 1_555
V2C O1C 1_555 1_555
V3C O6C 1_555 1_555
V4C O9C 1_555 1_555
V5C O12C 1_555 1_555
V6C O15C 1_555 1_555
V7C O18C 1_555 1_555
V8C O3C 1_555 1_555
V9C O2C 1_555 1_555
V10C O25C 1_555 1_555
V11C O10C 1_555 1_555
V12C O4C 1_555 1_555
V13C O6C 1_555 1_555
V14C O33C 1_555 1_555
V15C O18C 1_555 1_555
V16C O12C 1_555 1_555
N1B H1B 1_555 1_555
H2B N1B 1_555 1_555
N2B Co1B 1_555 1_555
H3B N2B 1_555 1_555
H4B N2B 1_555 1_555
N3B Co1B 1_555 1_555
H5B N3B 1_555 1_555
H6B N3B 1_555 1_555
N4C Co2C 1_555 1_555
H7C N4C 1_555 1_555
H8C N4C 1_555 1_555
N5C Co2C 1_555 1_555
H9C N5C 1_555 1_555
H10C N5C 1_555 1_555
N6B H11B 1_555 1_555
N6C Co2C 1_555 1_555
H11C N6C 1_555 1_555
H12B N6B 1_555 1_555
H12C N6C 1_555 1_555
N7C H13C 1_555 1_555
H14C N7C 1_555 1_555
N8C Co3C 1_555 1_555
H15C N8C 1_555 1_555
H16C N8C 1_555 1_555
N9C Co3C 1_555 1_555
H17C N9C 1_555 1_555
H18C N9C 1_555 1_555
N10C Co3C 1_555 1_555
H19C N10C 1_555 1_555
H20C N10C 1_555 1_555
N11C H21C 1_555 1_555
H22C N11C 1_555 1_555
N12C Co4C 1_555 1_555
H23C N12C 1_555 1_555
H24C N12C 1_555 1_555
N13C Co4C 1_555 1_555
H25C N13C 1_555 1_555
H26C N13C 1_555 1_555
N14C Co4C 1_555 1_555
H27C N14C 1_555 1_555
H28C N14C 1_555 1_555
N15C H29C 1_555 1_555
H30C N15C 1_555 1_555
N16C Co5C 1_555 1_555
H31C N16C 1_555 1_555
H32C N16C 1_555 1_555
N17C Co5C 1_555 1_555
H33C N17C 1_555 1_555
H34C N17C 1_555 1_555
N18C Co5C 1_555 1_555
H35C N18C 1_555 1_555
H36C N18C 1_555 1_555
O2C V1C 1_555 1_555
O3C V1C 1_555 1_555
O4C V1C 1_555 1_555
O5C V1C 1_555 1_555
O6C V2C 1_555 1_555
O7C V2C 1_555 1_555
O8C V2C 1_555 1_555
O9C V3C 1_555 1_555
O10C V3C 1_555 1_555
O11C Co5C 1_555 1_555
O12C V4C 1_555 1_555
O13C V4C 1_555 1_555
O14C V4C 1_555 1_555
O15C V5C 1_555 1_555
O16C V5C 1_555 1_555
O17C Co2C 1_555 1_555
O18C V6C 1_555 1_555
O19C V6C 1_555 1_555
O20C V6C 1_555 1_555
O21C V7C 1_555 1_555
O22C V7C 1_555 1_555
O23C V7C 1_555 1_555
O24C V8C 1_555 1_555
O25C V9C 1_555 1_555
O26C V9C 1_555 1_555
O27C Co3C 1_555 1_555
O28C Ge4C 1_555 1_555
O29C Ge3C 1_555 1_555
O30C V10C 1_555 1_555
O31C V11C 1_555 1_555
O32C Co4C 1_555 1_555
O33C Ge1C 1_555 1_555
O34C V13C 1_555 1_555
O35C V13C 1_555 1_555
O36C Ge2C 1_555 1_555
O37C V14C 1_555 1_555
O38C V14C 1_555 1_555
O39C V15C 1_555 1_555
O39O Co3 1_555 1_555
O39M Co3C 1_555 1_555
O40C Ge1C 1_555 1_555
O41C Ge1C 1_555 1_555
O41I Co2 1_555 1_555
O41B Co1B 1_555 1_555
O42C Ge2C 1_555 1_555
O43C Ge3C 1_555 1_555
O44C Co1 1_555 1_555
O44A Co1B 1_555 1_555
O45C Ge4C 1_555 1_555
O46C Co5C 1_555 1_555
H37C O46C 1_555 1_555
H38C O46C 1_555 1_555
H53B O55 1_555 1_555
C1B N1B 1_555 1_555
H56B C1B 1_555 1_555
H57B C1B 1_555 1_555
C2B N2B 1_555 1_555
H58B C2B 1_555 1_555
H59B C2B 1_555 1_555
C3B C3 1_555 1_555
H60B C3B 1_555 1_555
H61B C3B 1_555 1_555
C4C N4C 1_555 1_555
H62C C4C 1_555 1_555
H63C C4C 1_555 1_555
C5C N5C 1_555 1_555
H64C C5C 1_555 1_555
H65C C5C 1_555 1_555
C6B C6 1_555 1_555
H66B C6B 1_555 1_555
H67B C6B 1_555 1_555
C7C N7C 1_555 1_555
H68C C7C 1_555 1_555
H69C C7C 1_555 1_555
C8C N8C 1_555 1_555
H70C C8C 1_555 1_555
H71C C8C 1_555 1_555
C9C N9C 1_555 1_555
H72C C9C 1_555 1_555
H73C C9C 1_555 1_555
C10C N10C 1_555 1_555
H74C C10C 1_555 1_555
H75C C10C 1_555 1_555
C11C N11C 1_555 1_555
H76C C11C 1_555 1_555
H77C C11C 1_555 1_555
C12C N12C 1_555 1_555
H78C C12C 1_555 1_555
H79C C12C 1_555 1_555
C13C N13C 1_555 1_555
H80C C13C 1_555 1_555
H81C C13C 1_555 1_555
C14C N14C 1_555 1_555
H82C C14C 1_555 1_555
H83C C14C 1_555 1_555
C15C N15C 1_555 1_555
H84C C15C 1_555 1_555
H85C C15C 1_555 1_555
C16C N16C 1_555 1_555
H86C C16C 1_555 1_555
H87C C16C 1_555 1_555
C17C N17C 1_555 1_555
H88C C17C 1_555 1_555
H89C C17C 1_555 1_555
C18C N18C 1_555 1_555
H90C C18C 1_555 1_555
H91C C18C 1_555 1_555
O59C V16C 1_555 1_555
Ge1 O41 1_555 1_555
Ge2 O40 1_555 1_555
Ge3 O44 1_555 1_555
Ge4 O43 1_555 1_555
V2 O2 1_555 1_555
V3 O7 1_555 1_555
V3 O11 1_555 1_555
V4 O10 1_555 1_555
V5 O13 1_555 1_555
V5 O17 1_555 1_555
V6 O16 1_555 1_555
V7 O19 1_555 1_555
V8 O4 1_555 1_555
V8 O21 1_555 1_555
V8 O22 1_555 1_555
V9 O7 1_555 1_555
V9 O27 1_555 1_555
V10 O26 1_555 1_555
V10 O28 1_555 1_555
V10 O29 1_555 1_555
V11 O13 1_555 1_555
V11 O26 1_555 1_555
V11 O29 1_555 1_555
V12 O22 1_555 1_555
V12 O25 1_555 1_555
V12 O28 1_555 1_555
V12 O32 1_555 1_555
V13 O9 1_555 1_555
V13 O33 1_555 1_555
V14 O34 1_555 1_555
V14 O36 1_555 1_555
V15 O21 1_555 1_555
V15 O36 1_555 1_555
V15 O37 1_555 1_555
V16 O15 1_555 1_555
V16 O34 1_555 1_555
V16 O37 1_555 1_555
C1 C2 1_555 1_555
C4 C5 1_555 1_555
C7 C8 1_555 1_555
C9 C10 1_555 1_555
C11 C12 1_555 1_555
C13 C14 1_555 1_555
C15 C16 1_555 1_555
C17 C18 1_555 1_555
Co1I O41I 1_555 1_555
Co2C O44C 1_555 1_555
Ge2C O40C 1_555 1_555
Ge3C O44C 1_555 1_555
Ge4C O43C 1_555 1_555
V2C O2C 1_555 1_555
V3C O7C 1_555 1_555
V3C O11C 1_555 1_555
V4C O10C 1_555 1_555
V5C O13C 1_555 1_555
V5C O17C 1_555 1_555
V6C O16C 1_555 1_555
V7C O19C 1_555 1_555
V8C O4C 1_555 1_555
V8C O21C 1_555 1_555
V8C O22C 1_555 1_555
V9C O7C 1_555 1_555
V9C O27C 1_555 1_555
V10C O26C 1_555 1_555
V10C O28C 1_555 1_555
V10C O29C 1_555 1_555
V11C O13C 1_555 1_555
V11C O26C 1_555 1_555
V11C O29C 1_555 1_555
V12C O22C 1_555 1_555
V12C O25C 1_555 1_555
V12C O28C 1_555 1_555
V12C O32C 1_555 1_555
V13C O9C 1_555 1_555
V13C O33C 1_555 1_555
V14C O34C 1_555 1_555
V14C O36C 1_555 1_555
V15C O21C 1_555 1_555
V15C O36C 1_555 1_555
V15C O37C 1_555 1_555
V16C O15C 1_555 1_555
V16C O34C 1_555 1_555
V16C O37C 1_555 1_555
N3B C3B 1_555 1_555
N6B C6B 1_555 1_555
C1B C2B 1_555 1_555
C4C C5C 1_555 1_555
C7C C8C 1_555 1_555
C9C C10C 1_555 1_555
C11C C12C 1_555 1_555
C13C C14C 1_555 1_555
C15C C16C 1_555 1_555
C17C C18C 1_555 1_555

#END
