
#######################################################################
#
#                 Cambridge Crystallographic Data Centre
#                                CCDC 
#
#######################################################################
#
# If this CIF has been generated from an entry in the Cambridge 
# Structural Database, then it will include bibliographic, chemical, 
# crystal, experimental, refinement or atomic coordinate data resulting 
# from the CCDC's data processing and validation procedures.
#
#######################################################################

data_FAZFUJ
_symmetry_cell_setting           triclinic
_symmetry_space_group_name_H-M   'P -1'
_symmetry_Int_Tables_number      2
_space_group_name_Hall           '-P 1'
loop_
_symmetry_equiv_pos_site_id
_symmetry_equiv_pos_as_xyz
1 x,y,z
2 -x,-y,-z
_cell_length_a                   8.4062(3)
_cell_length_b                   12.9612(4)
_cell_length_c                   19.0223(8)
_cell_angle_alpha                73.354(2)
_cell_angle_beta                 79.689(2)
_cell_angle_gamma                74.223(2)
_cell_volume                     1899.38
loop_
_atom_site_label
_atom_site_type_symbol
_atom_site_fract_x
_atom_site_fract_y
_atom_site_fract_z
Pb1 Pb 0.41090(3) 0.650751(18) -0.105490(12)
Pb2 Pb 0.55655(3) 0.80690(2) -0.330551(13)
N1 N 0.1306(6) 0.6309(4) 0.0007(3)
N2 N -0.1596(6) 0.7037(4) -0.1330(3)
H1 H -0.1629 0.7322 -0.1796
N3 N -0.3042(6) 0.6781(5) -0.0931(3)
N4 N 0.8284(6) 0.8497(5) -0.4385(3)
N5 N 1.1204(6) 0.7710(5) -0.3072(3)
H2 H 1.1228 0.7488 -0.2602
N6 N 1.2709(7) 0.7844(5) -0.3493(3)
N7 N 0.6587(8) 0.6274(5) -0.3833(3)
N8 N 0.5183(8) 0.4608(5) -0.2098(3)
N9 N 0.5263(9) 0.3674(5) -0.2336(3)
H3 H 0.4937 0.3139 -0.2008
N10 N 0.3314(7) 0.8292(4) -0.0561(3)
N11 N 0.4530(9) 0.9994(5) -0.2330(3)
N12 N 0.4402(10) 1.0955(5) -0.2109(4)
H4 H 0.4680 1.1499 -0.2446
O1 O 0.1112(5) 0.7102(4) -0.1512(2)
O2 O -0.4366(5) 0.6049(4) 0.0162(2)
O3 O 0.8472(6) 0.7734(5) -0.2878(3)
O4 O 1.4100(6) 0.8372(5) -0.4611(3)
O5 O 0.5608(6) 0.6327(3) -0.2401(2)
O6 O 0.5781(9) 0.2606(5) -0.3154(3)
O7 O 0.4199(6) 0.8240(4) -0.2003(2)
O8 O 0.3865(9) 1.2027(4) -0.1299(3)
O9 O 0.4913(13) 1.0621(14) -0.3962(5)
C1 C 0.1299(8) 0.5914(5) 0.0728(3)
H5 H 0.2287 0.5792 0.0928
C2 C -0.0085(8) 0.5662(5) 0.1218(3)
C3 C -0.1547(8) 0.5812(5) 0.0923(3)
H6 H -0.2488 0.5643 0.1226
C4 C -0.1579(7) 0.6223(5) 0.0158(3)
C5 C -0.0141(7) 0.6465(5) -0.0275(3)
C6 C -0.0152(7) 0.6889(5) -0.1071(3)
C7 C -0.3067(7) 0.6351(5) -0.0198(3)
C8 C 0.0019(9) 0.5268(6) 0.2039(3)
H7 H -0.0873 0.4900 0.2273
H8 H 0.1067 0.4734 0.2133
C9 C -0.0107(13) 0.6210(7) 0.2369(4)
H9 H -0.0026 0.5933 0.2889
H10 H -0.1156 0.6730 0.2288
H11 H 0.0780 0.6572 0.2140
C10 C 0.8265(9) 0.8835(6) -0.5114(4)
H12 H 0.7249 0.9000 -0.5300
C11 C 0.9693(10) 0.8960(6) -0.5626(4)
C12 C 1.1166(9) 0.8745(5) -0.5331(4)
H13 H 1.2138 0.8819 -0.5642
C13 C 1.1207(8) 0.8418(5) -0.4569(4)
C14 C 0.9752(8) 0.8273(5) -0.4120(4)
C15 C 0.9748(8) 0.7884(5) -0.3310(4)
C16 C 1.2737(8) 0.8218(6) -0.4229(4)
C17 C 0.9563(11) 0.9288(6) -0.6444(4)
H14 H 0.8553 0.9858 -0.6546
H15 H 1.0497 0.9600 -0.6701
C18 C 0.9545(13) 0.8346(8) -0.6732(5)
H16 H 0.9458 0.8599 -0.7253
H17 H 0.8610 0.8043 -0.6487
H18 H 1.0554 0.7786 -0.6643
C19 C 0.7072(13) 0.6251(7) -0.4528(5)
H19 H 0.7299 0.6890 -0.4861
C20 C 0.7264(14) 0.5314(8) -0.4793(5)
C21 C 0.6857(12) 0.4365(7) -0.4287(5)
H20 H 0.6942 0.3726 -0.4436
C22 C 0.6317(10) 0.4415(6) -0.3548(4)
C23 C 0.6227(9) 0.5372(6) -0.3354(4)
C24 C 0.5637(8) 0.5424(5) -0.2584(4)
C25 C 0.5778(11) 0.3494(6) -0.3009(4)
C26 C 0.7789(17) 0.5418(9) -0.5609(5)
H21 H 0.6935 0.5976 -0.5880
H22 H 0.8799 0.5688 -0.5739
C27 C 0.8091(19) 0.4402(10) -0.5862(6)
H23 H 0.8397 0.4564 -0.6386
H24 H 0.7098 0.4129 -0.5746
H25 H 0.8976 0.3852 -0.5619
C28 C 0.2808(10) 0.8364(6) 0.0132(4)
H26 H 0.2624 0.7726 0.0480
C29 C 0.2531(12) 0.9333(6) 0.0378(4)
C30 C 0.2861(12) 1.0244(7) -0.0139(4)
H27 H 0.2699 1.0905 -0.0006
C31 C 0.3441(11) 1.0198(6) -0.0869(4)
C32 C 0.3611(9) 0.9210(5) -0.1061(4)
C33 C 0.4127(9) 0.9163(5) -0.1822(4)
C34 C 0.3897(12) 1.1130(6) -0.1434(4)
C35 C 0.1838(15) 0.9277(7) 0.1161(5)
H28 H 0.0964 0.8877 0.1276
H29 H 0.2711 0.8838 0.1469
C36 C 0.1163(19) 1.0309(9) 0.1378(7)
H30 H 0.0761 1.0155 0.1893
H31 H 0.0264 1.0747 0.1095
H32 H 0.2018 1.0708 0.1289
Pb1_2 Pb -0.58910(3) 0.650751(18) -0.105490(12)
Pb2_2 Pb 1.55655(3) 0.80690(2) -0.330551(13)
N3_2 N 0.6958(6) 0.6781(5) -0.0931(3)
N6_2 N 0.2709(7) 0.7844(5) -0.3493(3)
O2_2 O 0.5634(5) 0.6049(4) 0.0162(2)
O4_2 O 0.4100(6) 0.8372(5) -0.4611(3)
loop_
_geom_bond_atom_site_label_1
_geom_bond_atom_site_label_2
_geom_bond_site_symmetry_1
_geom_bond_site_symmetry_2
Pb1 N1 1_555 1_555
Pb2 N4 1_555 1_555
N1 C1 1_555 1_555
N2 H1 1_555 1_555
N3 N2 1_555 1_555
N4 C10 1_555 1_555
N5 H2 1_555 1_555
N6 N5 1_555 1_555
N7 Pb2 1_555 1_555
N8 N9 1_555 1_555
N9 H3 1_555 1_555
N10 Pb1 1_555 1_555
N11 N12 1_555 1_555
N12 H4 1_555 1_555
O1 Pb1 1_555 1_555
O2 C7 1_555 1_555
O3 Pb2 1_555 1_555
O4 C16 1_555 1_555
O5 Pb1 1_555 1_555
O6 C25 1_555 1_555
O7 Pb1 1_555 1_555
O8 C34 1_555 1_555
O9 Pb2 1_555 1_555
C1 H5 1_555 1_555
C2 C1 1_555 1_555
C3 C2 1_555 1_555
H6 C3 1_555 1_555
C4 C3 1_555 1_555
C5 N1 1_555 1_555
C6 N2 1_555 1_555
C7 N3 1_555 1_555
C8 C2 1_555 1_555
H7 C8 1_555 1_555
H8 C8 1_555 1_555
C9 C8 1_555 1_555
H9 C9 1_555 1_555
H10 C9 1_555 1_555
H11 C9 1_555 1_555
C10 H12 1_555 1_555
C11 C10 1_555 1_555
C12 C11 1_555 1_555
H13 C12 1_555 1_555
C13 C12 1_555 1_555
C14 N4 1_555 1_555
C15 N5 1_555 1_555
C16 N6 1_555 1_555
C17 C11 1_555 1_555
H14 C17 1_555 1_555
H15 C17 1_555 1_555
C18 C17 1_555 1_555
H16 C18 1_555 1_555
H17 C18 1_555 1_555
H18 C18 1_555 1_555
C19 N7 1_555 1_555
H19 C19 1_555 1_555
C20 C19 1_555 1_555
C21 C20 1_555 1_555
H20 C21 1_555 1_555
C22 C21 1_555 1_555
C23 N7 1_555 1_555
C24 N8 1_555 1_555
C25 N9 1_555 1_555
C26 C20 1_555 1_555
H21 C26 1_555 1_555
H22 C26 1_555 1_555
C27 C26 1_555 1_555
H23 C27 1_555 1_555
H24 C27 1_555 1_555
H25 C27 1_555 1_555
C28 N10 1_555 1_555
H26 C28 1_555 1_555
C29 C28 1_555 1_555
C30 C29 1_555 1_555
H27 C30 1_555 1_555
C31 C30 1_555 1_555
C32 N10 1_555 1_555
C33 N11 1_555 1_555
C34 N12 1_555 1_555
C35 C29 1_555 1_555
H28 C35 1_555 1_555
H29 C35 1_555 1_555
C36 C35 1_555 1_555
H30 C36 1_555 1_555
H31 C36 1_555 1_555
H32 C36 1_555 1_555
Pb1_2 N3 1_555 1_555
Pb2_2 N6 1_555 1_555
N3_2 Pb1 1_555 1_555
N6_2 Pb2 1_555 1_555
O2_2 Pb1 1_555 1_555
O4_2 Pb2 1_555 1_555
Pb2 O5 1_555 1_555
Pb2 O7 1_555 1_555
O1 C6 1_555 1_555
O2 Pb1_2 1_555 1_555
O3 C15 1_555 1_555
O4 Pb2_2 1_555 1_555
O5 C24 1_555 1_555
O7 C33 1_555 1_555
C4 C5 1_555 1_555
C4 C7 1_555 1_555
C5 C6 1_555 1_555
C13 C14 1_555 1_555
C13 C16 1_555 1_555
C14 C15 1_555 1_555
C22 C23 1_555 1_555
C22 C25 1_555 1_555
C23 C24 1_555 1_555
C31 C32 1_555 1_555
C31 C34 1_555 1_555
C32 C33 1_555 1_555

#END
