
#######################################################################
#
#                 Cambridge Crystallographic Data Centre
#                                CCDC 
#
#######################################################################
#
# If this CIF has been generated from an entry in the Cambridge 
# Structural Database, then it will include bibliographic, chemical, 
# crystal, experimental, refinement or atomic coordinate data resulting 
# from the CCDC's data processing and validation procedures.
#
#######################################################################

data_FAZFOD
_symmetry_cell_setting           triclinic
_symmetry_space_group_name_H-M   'P -1'
_symmetry_Int_Tables_number      2
_space_group_name_Hall           '-P 1'
loop_
_symmetry_equiv_pos_site_id
_symmetry_equiv_pos_as_xyz
1 x,y,z
2 -x,-y,-z
_cell_length_a                   8.2238(6)
_cell_length_b                   8.2372(5)
_cell_length_c                   12.6991(9)
_cell_angle_alpha                87.435(4)
_cell_angle_beta                 87.068(4)
_cell_angle_gamma                75.442(4)
_cell_volume                     831.089
loop_
_atom_site_label
_atom_site_type_symbol
_atom_site_fract_x
_atom_site_fract_y
_atom_site_fract_z
Mn1 Mn 0.00991(6) 0.42036(6) 0.21086(4)
O1 O 0.1455(3) 0.5637(3) 0.2914(2)
O2 O 0.8034(3) 0.5225(3) 0.3234(2)
O3 O -0.0866(3) 0.6245(3) 0.1018(2)
O4 O -0.1410(3) 1.2827(3) 0.1341(2)
O5 O 0.0918(4) 0.1938(4) 0.3206(2)
N1 N 0.5820(3) 0.4646(4) 0.2493(2)
H1 H 0.6541 0.4072 0.2051
N2 N 0.4157(3) 0.4654(4) 0.2359(2)
N3 N 0.7407(6) 0.7200(7) 0.4881(4)
H2 H 0.7686 0.7738 0.5379
H3 H 0.8170 0.6618 0.4466
N4 N -0.0485(4) 0.8484(3) 0.1833(2)
H4 H -0.0002 0.7792 0.2316
N5 N -0.0559(4) 1.0170(3) 0.1968(2)
N6 N -0.2357(4) 0.6739(3) -0.0858(2)
H5 H -0.2760 0.6440 -0.1409
H6 H -0.1744 0.5993 -0.0453
C1 C 0.4547(6) 0.8219(6) 0.5430(3)
H7 H 0.4867 0.8779 0.5972
C2 C 0.2879(6) 0.8330(6) 0.5300(4)
H8 H 0.2089 0.8988 0.5756
C3 C 0.2312(5) 0.7501(5) 0.4517(3)
H9 H 0.1172 0.7587 0.4452
C4 C 0.3521(4) 0.6538(4) 0.3834(3)
C5 C 0.5261(4) 0.6417(4) 0.3944(3)
C6 C 0.5764(5) 0.7270(5) 0.4750(3)
C7 C 0.6452(4) 0.5413(4) 0.3219(3)
C8 C 0.3043(4) 0.5567(4) 0.3001(3)
C9 C -0.3685(5) 0.9658(5) -0.1266(3)
H10 H -0.4203 0.9325 -0.1824
C10 C -0.3915(5) 1.1363(5) -0.1099(3)
H11 H -0.4601 1.2149 -0.1538
C11 C -0.3146(4) 1.1900(4) -0.0298(3)
H12 H -0.3263 1.3041 -0.0217
C12 C -0.2184(4) 1.0725(4) 0.0395(3)
C13 C -0.1986(4) 0.8988(4) 0.0259(3)
C14 C -0.2704(4) 0.8458(4) -0.0619(3)
C15 C -0.1073(4) 0.7819(4) 0.1044(3)
C16 C -0.1353(4) 1.1249(4) 0.1265(3)
Mn1_2 Mn 1.00991(6) 0.42036(6) 0.21086(4)
Mn1_3 Mn 0.00991(6) 1.42036(6) 0.21086(4)
Mn1A Mn -0.00991(6) 0.57964(6) -0.21086(4)
O2_2 O -0.1966(3) 0.5225(3) 0.3234(2)
O4_2 O -0.1410(3) 0.2827(3) 0.1341(2)
N6A N 0.2357(4) 0.3261(3) 0.0858(2)
H5A H 0.2760 0.3560 0.1409
H6A H 0.1744 0.4007 0.0453
loop_
_geom_bond_atom_site_label_1
_geom_bond_atom_site_label_2
_geom_bond_site_symmetry_1
_geom_bond_site_symmetry_2
Mn1 O1 1_555 1_555
O1 C8 1_555 1_555
O2 C7 1_555 1_555
O3 Mn1 1_555 1_555
O4 C16 1_555 1_555
O5 Mn1 1_555 1_555
N1 H1 1_555 1_555
N2 N1 1_555 1_555
N3 H2 1_555 1_555
H3 N3 1_555 1_555
N4 H4 1_555 1_555
N5 N4 1_555 1_555
N6 H5 1_555 1_555
H6 N6 1_555 1_555
C1 H7 1_555 1_555
C2 C1 1_555 1_555
H8 C2 1_555 1_555
C3 C2 1_555 1_555
H9 C3 1_555 1_555
C4 C3 1_555 1_555
C5 C4 1_555 1_555
C6 N3 1_555 1_555
C7 N1 1_555 1_555
C8 N2 1_555 1_555
C9 H10 1_555 1_555
C10 C9 1_555 1_555
H11 C10 1_555 1_555
C11 C10 1_555 1_555
H12 C11 1_555 1_555
C12 C11 1_555 1_555
C13 C12 1_555 1_555
C14 N6 1_555 1_555
C15 O3 1_555 1_555
C16 N5 1_555 1_555
Mn1_2 O2 1_555 1_555
Mn1_3 O4 1_555 1_555
Mn1A N6 1_555 1_555
O2_2 Mn1 1_555 1_555
O4_2 Mn1 1_555 1_555
N6A Mn1 1_555 1_555
H5A N6A 1_555 1_555
H6A N6A 1_555 1_555
N4 C15 1_555 1_555
C1 C6 1_555 1_555
C4 C8 1_555 1_555
C5 C6 1_555 1_555
C5 C7 1_555 1_555
C9 C14 1_555 1_555
C12 C16 1_555 1_555
C13 C14 1_555 1_555
C13 C15 1_555 1_555

#END
