
#######################################################################
#
#                 Cambridge Crystallographic Data Centre
#                                CCDC 
#
#######################################################################
#
# If this CIF has been generated from an entry in the Cambridge 
# Structural Database, then it will include bibliographic, chemical, 
# crystal, experimental, refinement or atomic coordinate data resulting 
# from the CCDC's data processing and validation procedures.
#
#######################################################################

data_FAZGOE
_symmetry_cell_setting           triclinic
_symmetry_space_group_name_H-M   'P -1'
_symmetry_Int_Tables_number      2
_space_group_name_Hall           '-P 1'
loop_
_symmetry_equiv_pos_site_id
_symmetry_equiv_pos_as_xyz
1 x,y,z
2 -x,-y,-z
_cell_length_a                   11.0379(1)
_cell_length_b                   16.0222(2)
_cell_length_c                   20.8778(3)
_cell_angle_alpha                77.187(1)
_cell_angle_beta                 82.664(1)
_cell_angle_gamma                75.705(1)
_cell_volume                     3478.44
loop_
_atom_site_label
_atom_site_type_symbol
_atom_site_fract_x
_atom_site_fract_y
_atom_site_fract_z
Cu1 Cu 0.98632(3) 0.71767(2) 0.256597(15)
Cu2 Cu 1.00749(3) 1.22072(2) 0.236530(16)
O1 O 1.13181(19) 0.47851(14) 0.18558(11)
O2 O 1.0565(2) 0.41289(13) 0.32989(11)
O3 O 0.85879(18) 1.00159(13) 0.30453(11)
O4 O 0.9419(2) 0.99422(14) 0.16284(11)
C1 C 1.3360(4) 0.4105(3) 0.1565(3)
H1 H 1.3683 0.3650 0.1946
H2 H 1.3879 0.3972 0.1161
Li1 Li 0.9755(4) 0.4702(3) 0.2454(2)
Li2 Li 1.0186(4) 0.9714(3) 0.2493(2)
C2 C 1.1836(4) 0.4030(3) 0.4126(2)
H3 H 1.1693 0.3963 0.4611
H4 H 1.2538 0.4328 0.3973
P1 P 1.13889(6) 1.08906(4) 0.25576(3)
P2 P 0.86339(6) 0.63236(4) 0.24330(3)
P3 P 1.10903(6) 0.80376(4) 0.26870(3)
P4 P 0.87194(6) 0.35109(4) 0.22459(3)
C3 C 1.1247(4) 0.3242(2) 0.3446(2)
H5 H 1.1708 0.3066 0.3041
H6 H 1.0662 0.2851 0.3622
C4 C 1.2124(4) 0.3159(3) 0.3932(2)
H7 H 1.3000 0.3015 0.3740
H8 H 1.2007 0.2692 0.4318
C5 C 1.3377(3) 0.4991(3) 0.1659(2)
H9 H 1.3979 0.4952 0.1983
H10 H 1.3616 0.5360 0.1238
C6 C 1.2095(3) 0.5359(3) 0.1903(2)
H11 H 1.2080 0.5416 0.2366
H12 H 1.1781 0.5950 0.1636
C7 C 1.0689(4) 0.4542(2) 0.38060(18)
H13 H 0.9949 0.4552 0.4129
H14 H 1.0761 0.5155 0.3624
C8 C 1.2020(3) 0.4138(2) 0.15041(18)
H15 H 1.1830 0.4301 0.1036
H16 H 1.1822 0.3560 0.1697
C9 C 1.2164(3) 0.9748(2) 0.47883(15)
H17 H 1.2454 0.9688 0.5229
H18 H 1.1746 0.9262 0.4804
C10 C 0.7829(3) 0.3446(2) 0.01055(15)
H19 H 0.7444 0.3637 -0.0321
H20 H 0.8451 0.2885 0.0096
C11 C 1.3283(3) 0.9687(2) 0.42798(15)
H21 H 1.3853 0.9100 0.4384
H22 H 1.3751 1.0133 0.4299
C12 C 1.4602(3) 1.1660(2) 0.09612(15)
H23 H 1.5413 1.1578 0.0692
H24 H 1.4129 1.2272 0.0817
C13 C 0.5556(3) 0.3882(2) 0.39721(15)
H25 H 0.5925 0.4305 0.4118
H26 H 0.4797 0.3806 0.4267
C14 C 0.5563(3) 0.76275(19) 0.35679(14)
H27 H 0.5270 0.8261 0.3579
H28 H 0.4862 0.7425 0.3444
C15 C 1.1070(3) 0.7259(2) 0.47336(15)
H29 H 1.0325 0.7314 0.5053
H30 H 1.1643 0.7585 0.4843
C16 C 1.1732(3) 0.6291(2) 0.47954(14)
H31 H 1.2030 0.6058 0.5242
H32 H 1.1134 0.5951 0.4733
C17 C 1.3860(3) 1.1025(2) 0.08516(15)
H33 H 1.4384 1.0419 0.0936
H34 H 1.3651 1.1171 0.0387
C18 C 0.6677(3) 0.74950(17) 0.30519(14)
H35 H 0.6401 0.7813 0.2613
H36 H 0.7340 0.7753 0.3154
C19 C 0.6827(3) 0.3308(2) 0.06575(15)
H37 H 0.6443 0.2835 0.0600
H38 H 0.6162 0.3854 0.0637
C20 C 0.5932(3) 0.7119(2) 0.42464(14)
H39 H 0.5190 0.7184 0.4568
H40 H 0.6573 0.7360 0.4390
C21 C 0.7365(3) 0.30602(19) 0.13303(14)
H41 H 0.7968 0.2484 0.1367
H42 H 0.6678 0.3002 0.1680
C22 C 1.2837(3) 0.61845(19) 0.42836(14)
H43 H 1.3234 0.5552 0.4316
H44 H 1.3468 0.6480 0.4372
C23 C 0.6452(3) 0.6151(2) 0.42311(14)
H45 H 0.5780 0.5898 0.4134
H46 H 0.6731 0.5835 0.4670
C24 C 1.4842(3) 1.1508(2) 0.16850(15)
H47 H 1.5269 1.1956 0.1749
H48 H 1.5402 1.0923 0.1814
C25 C 1.1232(3) 1.0628(2) 0.46126(14)
H49 H 1.0490 1.0646 0.4935
H50 H 1.1627 1.1109 0.4640
C26 C 0.7898(3) 0.6699(2) 0.02125(14)
H51 H 0.7577 0.6947 -0.0228
H52 H 0.8500 0.6133 0.0191
C27 C 0.5192(3) 0.4244(2) 0.32697(15)
H53 H 0.4636 0.4837 0.3243
H54 H 0.4722 0.3860 0.3145
C28 C 0.6352(3) 0.42980(19) 0.27862(14)
H55 H 0.6086 0.4495 0.2331
H56 H 0.6757 0.4742 0.2876
C29 C 1.2863(3) 0.98364(19) 0.35862(14)
H57 H 1.2474 0.9353 0.3556
H58 H 1.3606 0.9823 0.3265
C30 C 1.0814(3) 1.07691(19) 0.39232(14)
H59 H 1.0236 1.1353 0.3819
H60 H 1.0350 1.0319 0.3908
C31 C 0.6494(3) 0.3006(2) 0.40217(14)
H61 H 0.6094 0.2566 0.3921
H62 H 0.6752 0.2801 0.4478
C32 C 1.4462(3) 0.8399(2) 0.15831(14)
H63 H 1.4954 0.8834 0.1594
H64 H 1.5016 0.7805 0.1687
C33 C 1.3620(3) 1.15614(19) 0.21249(15)
H65 H 1.3092 1.2164 0.2022
H66 H 1.3811 1.1440 0.2592
C34 C 0.7903(3) 0.9424(2) 0.34439(18)
H67 H 0.8110 0.9300 0.3908
H68 H 0.8093 0.8863 0.3286
C35 C 0.8489(3) 0.4139(2) 0.01993(14)
H69 H 0.7885 0.4716 0.0160
H70 H 0.9175 0.4194 -0.0152
C36 C 1.4017(3) 0.8551(2) 0.08957(14)
H71 H 1.4751 0.8469 0.0571
H72 H 1.3523 0.9162 0.0775
C37 C 0.6817(3) 0.6546(2) 0.07167(14)
H73 H 0.6428 0.6107 0.0605
H74 H 0.6172 0.7101 0.0703
C38 C 1.2424(3) 0.65748(17) 0.35915(13)
H75 H 1.1865 0.6234 0.3488
H76 H 1.3171 0.6519 0.3273
C39 C 1.2650(3) 1.1065(2) 0.13035(14)
H77 H 1.2083 1.1649 0.1180
H78 H 1.2225 1.0618 0.1238
C40 C 0.7652(3) 0.30781(19) 0.35450(13)
H79 H 0.8092 0.3480 0.3669
H80 H 0.8233 0.2493 0.3580
C41 C 1.3212(3) 0.79091(19) 0.08786(14)
H81 H 1.2907 0.8025 0.0434
H82 H 1.3726 0.7301 0.0967
C42 C 1.3351(2) 0.84804(18) 0.21005(14)
H83 H 1.2852 0.9094 0.2024
H84 H 1.3669 0.8347 0.2543
C43 C 0.8563(3) 0.7330(2) 0.03961(14)
H85 H 0.7978 0.7910 0.0384
H86 H 0.9282 0.7407 0.0071
C44 C 0.7550(3) 0.60137(18) 0.37152(13)
H87 H 0.7822 0.5380 0.3704
H88 H 0.8262 0.6198 0.3845
C45 C 1.2099(3) 0.79990(19) 0.13883(13)
H89 H 1.1609 0.7562 0.1376
H90 H 1.1547 0.8592 0.1274
C46 C 0.9032(3) 0.69810(19) 0.10839(13)
H91 H 0.9672 0.6426 0.1083
H92 H 0.9437 0.7411 0.1195
C47 C 1.2888(2) 1.09051(17) 0.20294(13)
H93 H 1.3444 1.0305 0.2140
C48 C 0.8231(5) 0.9754(3) 0.0845(2)
H94 H 0.7342 0.9782 0.0794
H95 H 0.8773 0.9346 0.0577
C49 C 0.7786(3) 1.0878(2) 0.2923(2)
H96 H 0.7678 1.1080 0.2446
H97 H 0.8162 1.1298 0.3071
C50 C 0.8028(2) 0.37491(17) 0.14355(12)
H98 H 0.7385 0.4315 0.1412
C51 C 0.6548(3) 0.9880(2) 0.3381(2)
H99 H 0.6023 0.9693 0.3783
H100 H 0.6227 0.9762 0.2996
C52 C 1.1923(2) 1.07140(17) 0.34063(13)
H101 H 1.2350 1.1194 0.3414
C53 C 0.9578(4) 1.0566(2) 0.10399(18)
H102 H 1.0383 1.0360 0.0792
H103 H 0.9577 1.1139 0.1145
C54 C 1.1738(2) 0.75406(17) 0.35074(12)
H104 H 1.2347 0.7882 0.3568
C55 C 0.6568(3) 1.0838(2) 0.32897(19)
H105 H 0.5870 1.1218 0.3034
H106 H 0.6517 1.1015 0.3719
C56 C 0.7305(2) 0.34191(16) 0.28351(12)
H107 H 0.6897 0.2990 0.2714
C57 C 0.7260(3) 0.62172(19) 0.14134(14)
H108 H 0.6522 0.6171 0.1731
H109 H 0.7808 0.5621 0.1442
C58 C 0.7978(2) 0.68134(17) 0.16110(12)
H110 H 0.7385 0.7389 0.1642
C59 C 1.2501(2) 0.78619(17) 0.20851(12)
H111 H 1.2988 0.7243 0.2211
C60 C 0.8508(4) 0.9476(3) 0.15472(19)
H112 H 0.7738 0.9627 0.1837
H113 H 0.8850 0.8833 0.1658
C61 C 0.7226(2) 0.65285(16) 0.30261(12)
H114 H 0.6561 0.6294 0.2889
C62 C 1.0663(3) 0.7662(2) 0.40393(14)
H115 H 1.0000 0.7389 0.3956
H116 H 1.0299 0.8298 0.4010
C63 C 0.9029(3) 0.38953(19) 0.08747(13)
H117 H 0.9700 0.3353 0.0894
H118 H 0.9407 0.4372 0.0931
C64 C 0.8514(4) 1.0652(3) 0.0648(2)
H119 H 0.8754 1.0795 0.0170
H120 H 0.7786 1.1111 0.0763
Cu2_2 Cu 1.00749(3) 0.22072(2) 0.236530(16)
P4_2 P 0.87194(6) 1.35109(4) 0.22459(3)
loop_
_geom_bond_atom_site_label_1
_geom_bond_atom_site_label_2
_geom_bond_site_symmetry_1
_geom_bond_site_symmetry_2
Cu1 P2 1_555 1_555
Cu2 P1 1_555 1_555
O1 Li1 1_555 1_555
O2 Li1 1_555 1_555
O3 Li2 1_555 1_555
O4 Li2 1_555 1_555
C1 H1 1_555 1_555
H2 C1 1_555 1_555
Li1 P2 1_555 1_555
Li2 P1 1_555 1_555
C2 H3 1_555 1_555
H4 C2 1_555 1_555
P1 C47 1_555 1_555
P2 C58 1_555 1_555
P3 Cu1 1_555 1_555
P4 Li1 1_555 1_555
C3 O2 1_555 1_555
H5 C3 1_555 1_555
H6 C3 1_555 1_555
C4 C2 1_555 1_555
H7 C4 1_555 1_555
H8 C4 1_555 1_555
C5 C1 1_555 1_555
H9 C5 1_555 1_555
H10 C5 1_555 1_555
C6 O1 1_555 1_555
H11 C6 1_555 1_555
H12 C6 1_555 1_555
C7 O2 1_555 1_555
H13 C7 1_555 1_555
H14 C7 1_555 1_555
C8 O1 1_555 1_555
H15 C8 1_555 1_555
H16 C8 1_555 1_555
C9 H17 1_555 1_555
H18 C9 1_555 1_555
C10 H19 1_555 1_555
H20 C10 1_555 1_555
C11 C9 1_555 1_555
H21 C11 1_555 1_555
H22 C11 1_555 1_555
C12 H23 1_555 1_555
H24 C12 1_555 1_555
C13 H25 1_555 1_555
H26 C13 1_555 1_555
C14 H27 1_555 1_555
H28 C14 1_555 1_555
C15 H29 1_555 1_555
H30 C15 1_555 1_555
C16 C15 1_555 1_555
H31 C16 1_555 1_555
H32 C16 1_555 1_555
C17 C12 1_555 1_555
H33 C17 1_555 1_555
H34 C17 1_555 1_555
C18 C14 1_555 1_555
H35 C18 1_555 1_555
H36 C18 1_555 1_555
C19 C10 1_555 1_555
H37 C19 1_555 1_555
H38 C19 1_555 1_555
C20 C14 1_555 1_555
H39 C20 1_555 1_555
H40 C20 1_555 1_555
C21 C19 1_555 1_555
H41 C21 1_555 1_555
H42 C21 1_555 1_555
C22 C16 1_555 1_555
H43 C22 1_555 1_555
H44 C22 1_555 1_555
C23 C20 1_555 1_555
H45 C23 1_555 1_555
H46 C23 1_555 1_555
C24 C12 1_555 1_555
H47 C24 1_555 1_555
H48 C24 1_555 1_555
C25 C9 1_555 1_555
H49 C25 1_555 1_555
H50 C25 1_555 1_555
C26 H51 1_555 1_555
H52 C26 1_555 1_555
C27 C13 1_555 1_555
H53 C27 1_555 1_555
H54 C27 1_555 1_555
C28 C27 1_555 1_555
H55 C28 1_555 1_555
H56 C28 1_555 1_555
C29 C11 1_555 1_555
H57 C29 1_555 1_555
H58 C29 1_555 1_555
C30 C25 1_555 1_555
H59 C30 1_555 1_555
H60 C30 1_555 1_555
C31 C13 1_555 1_555
H61 C31 1_555 1_555
H62 C31 1_555 1_555
C32 H63 1_555 1_555
H64 C32 1_555 1_555
C33 C24 1_555 1_555
H65 C33 1_555 1_555
H66 C33 1_555 1_555
C34 O3 1_555 1_555
H67 C34 1_555 1_555
H68 C34 1_555 1_555
C35 C10 1_555 1_555
H69 C35 1_555 1_555
H70 C35 1_555 1_555
C36 C32 1_555 1_555
H71 C36 1_555 1_555
H72 C36 1_555 1_555
C37 C26 1_555 1_555
H73 C37 1_555 1_555
H74 C37 1_555 1_555
C38 C22 1_555 1_555
H75 C38 1_555 1_555
H76 C38 1_555 1_555
C39 C17 1_555 1_555
H77 C39 1_555 1_555
H78 C39 1_555 1_555
C40 C31 1_555 1_555
H79 C40 1_555 1_555
H80 C40 1_555 1_555
C41 C36 1_555 1_555
H81 C41 1_555 1_555
H82 C41 1_555 1_555
C42 C32 1_555 1_555
H83 C42 1_555 1_555
H84 C42 1_555 1_555
C43 C26 1_555 1_555
H85 C43 1_555 1_555
H86 C43 1_555 1_555
C44 C23 1_555 1_555
H87 C44 1_555 1_555
H88 C44 1_555 1_555
C45 C41 1_555 1_555
H89 C45 1_555 1_555
H90 C45 1_555 1_555
C46 C43 1_555 1_555
H91 C46 1_555 1_555
H92 C46 1_555 1_555
C47 C33 1_555 1_555
H93 C47 1_555 1_555
C48 H94 1_555 1_555
H95 C48 1_555 1_555
C49 O3 1_555 1_555
H96 C49 1_555 1_555
H97 C49 1_555 1_555
C50 P4 1_555 1_555
H98 C50 1_555 1_555
C51 C34 1_555 1_555
H99 C51 1_555 1_555
H100 C51 1_555 1_555
C52 P1 1_555 1_555
H101 C52 1_555 1_555
C53 O4 1_555 1_555
H102 C53 1_555 1_555
H103 C53 1_555 1_555
C54 P3 1_555 1_555
H104 C54 1_555 1_555
C55 C49 1_555 1_555
H105 C55 1_555 1_555
H106 C55 1_555 1_555
C56 P4 1_555 1_555
H107 C56 1_555 1_555
C57 C37 1_555 1_555
H108 C57 1_555 1_555
H109 C57 1_555 1_555
C58 C46 1_555 1_555
H110 C58 1_555 1_555
C59 P3 1_555 1_555
H111 C59 1_555 1_555
C60 O4 1_555 1_555
H112 C60 1_555 1_555
H113 C60 1_555 1_555
C61 P2 1_555 1_555
H114 C61 1_555 1_555
C62 C15 1_555 1_555
H115 C62 1_555 1_555
H116 C62 1_555 1_555
C63 C35 1_555 1_555
H117 C63 1_555 1_555
H118 C63 1_555 1_555
C64 C48 1_555 1_555
H119 C64 1_555 1_555
H120 C64 1_555 1_555
Cu2_2 P4 1_555 1_555
P4_2 Cu2 1_555 1_555
C1 C8 1_555 1_555
Li2 P3 1_555 1_555
C2 C7 1_555 1_555
C3 C4 1_555 1_555
C5 C6 1_555 1_555
C18 C61 1_555 1_555
C21 C50 1_555 1_555
C28 C56 1_555 1_555
C29 C52 1_555 1_555
C30 C52 1_555 1_555
C38 C54 1_555 1_555
C39 C47 1_555 1_555
C40 C56 1_555 1_555
C42 C59 1_555 1_555
C44 C61 1_555 1_555
C45 C59 1_555 1_555
C48 C60 1_555 1_555
C50 C63 1_555 1_555
C51 C55 1_555 1_555
C53 C64 1_555 1_555
C54 C62 1_555 1_555
C57 C58 1_555 1_555

#END
