
#######################################################################
#
#                 Cambridge Crystallographic Data Centre
#                                CCDC 
#
#######################################################################
#
# If this CIF has been generated from an entry in the Cambridge 
# Structural Database, then it will include bibliographic, chemical, 
# crystal, experimental, refinement or atomic coordinate data resulting 
# from the CCDC's data processing and validation procedures.
#
#######################################################################

data_FAZKIC
_symmetry_cell_setting           monoclinic
_symmetry_space_group_name_H-M   'P 21/n'
_symmetry_Int_Tables_number      14
_space_group_name_Hall           '-P 2yn'
loop_
_symmetry_equiv_pos_site_id
_symmetry_equiv_pos_as_xyz
1 x,y,z
2 1/2-x,1/2+y,1/2-z
3 -x,-y,-z
4 1/2+x,1/2-y,1/2+z
_cell_length_a                   9.4364(2)
_cell_length_b                   13.4891(3)
_cell_length_c                   17.6583(4)
_cell_angle_alpha                90
_cell_angle_beta                 101.116(2)
_cell_angle_gamma                90
_cell_volume                     2205.53
loop_
_atom_site_label
_atom_site_type_symbol
_atom_site_fract_x
_atom_site_fract_y
_atom_site_fract_z
Nd1 Nd 0.28488(2) 0.035374(15) -0.003855(12)
Ag1 Ag 0.27562(5) 0.36317(3) 0.01960(2)
S1 S 0.81616(13) 0.22073(9) 0.07287(8)
O1 O 0.5470(3) 0.0994(2) -0.00712(17)
O2 O 0.3753(3) 0.2093(2) -0.0357(2)
O3 O 0.8380(4) 0.1142(2) 0.0693(2)
O4 O 0.7078(4) 0.2495(3) 0.1156(2)
O5 O 0.9545(4) 0.2699(3) 0.0976(3)
O6 O 0.3475(3) 0.0269(2) -0.13350(18)
O7 O 0.5593(3) -0.0525(2) -0.12780(18)
O8 O 0.1530(4) -0.0443(3) 0.08183(19)
O9 O -0.0695(3) -0.0996(2) 0.07891(17)
O10 O 0.2024(4) 0.1697(3) 0.0804(2)
H1 H 0.2454 0.1630 0.1271
H2 H 0.1119 0.1656 0.0785
N1 N 0.3116(4) -0.0984(3) -0.4009(2)
N2 N 0.1617(4) -0.1177(3) 0.3573(2)
C1 C 0.5038(5) 0.1836(3) -0.0316(3)
C2 C 0.6081(5) 0.2503(3) -0.0616(3)
C3 C 0.7520(5) 0.2643(3) -0.0230(4)
C4 C 0.8443(7) 0.3208(4) -0.0579(4)
H3 H 0.9394 0.3308 -0.0330
C5 C 0.7941(8) 0.3622(5) -0.1300(5)
H4 H 0.8572 0.3990 -0.1533
C6 C 0.6521(8) 0.3502(5) -0.1682(5)
H5 H 0.6196 0.3791 -0.2163
C7 C 0.5591(7) 0.2935(4) -0.1327(4)
H6 H 0.4634 0.2848 -0.1573
C8 C 0.4377(4) -0.0221(3) -0.1616(2)
C9 C 0.3946(4) -0.0481(3) -0.2458(2)
C10 C 0.3897(5) -0.1460(3) -0.2696(3)
H7 H 0.4156 -0.1964 -0.2337
C11 C 0.3462(5) -0.1682(3) -0.3467(3)
H8 H 0.3406 -0.2344 -0.3617
C12 C 0.3197(6) -0.0032(4) -0.3773(3)
H9 H 0.2981 0.0463 -0.4144
C13 C 0.3582(5) 0.0244(3) -0.3014(3)
H10 H 0.3598 0.0909 -0.2875
C14 C 0.0556(4) -0.0771(3) 0.1124(2)
C15 C 0.0918(4) -0.0912(3) 0.1986(2)
C16 C 0.2346(5) -0.1011(4) 0.2364(3)
H11 H 0.3090 -0.0984 0.2087
C17 C 0.2649(5) -0.1150(4) 0.3147(3)
H12 H 0.3607 -0.1228 0.3392
C18 C 0.0236(5) -0.1066(4) 0.3209(3)
H13 H -0.0485 -0.1074 0.3501
C19 C -0.0154(5) -0.0941(3) 0.2426(3)
H14 H -0.1121 -0.0877 0.2192
Nd1B Nd 0.71512(2) -0.035374(15) 0.003855(12)
Nd1B_2 Nd -0.28488(2) -0.035374(15) 0.003855(12)
Ag1A Ag 0.22438(5) -0.13683(3) -0.51960(2)
Ag1A_2 Ag 0.22438(5) -0.13683(3) 0.48040(2)
O1B O 0.4530(3) -0.0994(2) 0.00712(17)
O3B O 0.1620(4) -0.1142(2) -0.0693(2)
O7B O 0.4407(3) 0.0525(2) 0.12780(18)
O9B O 0.0695(3) 0.0996(2) -0.07891(17)
N1A N 0.1884(4) 0.4016(3) -0.0991(2)
N2A N 0.3383(4) 0.3823(3) 0.1427(2)
loop_
_geom_bond_atom_site_label_1
_geom_bond_atom_site_label_2
_geom_bond_site_symmetry_1
_geom_bond_site_symmetry_2
Nd1 O1 1_555 1_555
Ag1 O2 1_555 1_555
S1 O3 1_555 1_555
O1 C1 1_555 1_555
O2 Nd1 1_555 1_555
O3 Nd1B 1_555 1_555
O4 S1 1_555 1_555
O5 S1 1_555 1_555
O6 Nd1 1_555 1_555
O7 C8 1_555 1_555
O8 Nd1 1_555 1_555
O9 C14 1_555 1_555
O10 Nd1 1_555 1_555
H1 O10 1_555 1_555
H2 O10 1_555 1_555
N1 C11 1_555 1_555
N2 C17 1_555 1_555
C1 O2 1_555 1_555
C2 C1 1_555 1_555
C3 S1 1_555 1_555
C4 C3 1_555 1_555
H3 C4 1_555 1_555
C5 C4 1_555 1_555
H4 C5 1_555 1_555
C6 C5 1_555 1_555
H5 C6 1_555 1_555
C7 C2 1_555 1_555
H6 C7 1_555 1_555
C8 O6 1_555 1_555
C9 C8 1_555 1_555
C10 C9 1_555 1_555
H7 C10 1_555 1_555
C11 C10 1_555 1_555
H8 C11 1_555 1_555
C12 N1 1_555 1_555
H9 C12 1_555 1_555
C13 C9 1_555 1_555
H10 C13 1_555 1_555
C14 O8 1_555 1_555
C15 C14 1_555 1_555
C16 C15 1_555 1_555
H11 C16 1_555 1_555
C17 C16 1_555 1_555
H12 C17 1_555 1_555
C18 N2 1_555 1_555
H13 C18 1_555 1_555
C19 C15 1_555 1_555
H14 C19 1_555 1_555
Nd1B O1 1_555 1_555
Nd1B_2 O9 1_555 1_555
Ag1A N1 1_555 1_555
Ag1A_2 N2 1_555 1_555
O1B Nd1 1_555 1_555
O3B Nd1 1_555 1_555
O7B Nd1 1_555 1_555
O9B Nd1 1_555 1_555
N1A Ag1 1_555 1_555
N2A Ag1 1_555 1_555
O7 Nd1B 1_555 1_555
C2 C3 1_555 1_555
C6 C7 1_555 1_555
C12 C13 1_555 1_555
C18 C19 1_555 1_555
Nd1B O1B 1_555 1_555

#END
