
#######################################################################
#
#                 Cambridge Crystallographic Data Centre
#                                CCDC 
#
#######################################################################
#
# If this CIF has been generated from an entry in the Cambridge 
# Structural Database, then it will include bibliographic, chemical, 
# crystal, experimental, refinement or atomic coordinate data resulting 
# from the CCDC's data processing and validation procedures.
#
#######################################################################

data_FAZKEY
_symmetry_cell_setting           monoclinic
_symmetry_space_group_name_H-M   'P 21/n'
_symmetry_Int_Tables_number      14
_space_group_name_Hall           '-P 2yn'
loop_
_symmetry_equiv_pos_site_id
_symmetry_equiv_pos_as_xyz
1 x,y,z
2 1/2-x,1/2+y,1/2-z
3 -x,-y,-z
4 1/2+x,1/2-y,1/2+z
_cell_length_a                   9.4600(2)
_cell_length_b                   13.4951(3)
_cell_length_c                   17.6816(4)
_cell_angle_alpha                90
_cell_angle_beta                 101.106(2)
_cell_angle_gamma                90
_cell_volume                     2215.02
loop_
_atom_site_label
_atom_site_type_symbol
_atom_site_fract_x
_atom_site_fract_y
_atom_site_fract_z
Pr1 Pr 0.28448(2) 0.464240(16) -0.003775(11)
Ag1 Ag 0.27613(4) 0.13581(3) 0.019547(17)
S1 S 0.81687(11) 0.27912(9) 0.07329(7)
O1 O 0.5474(3) 0.4000(2) -0.00660(15)
O2 O 0.3766(3) 0.2891(2) -0.03475(16)
O3 O 0.8383(3) 0.3858(2) 0.06954(17)
O4 O 0.7087(3) 0.2500(3) 0.11576(19)
O5 O 0.9557(3) 0.2302(3) 0.0981(2)
O6 O 0.4412(3) 0.4479(2) 0.12846(14)
O7 O 0.6521(3) 0.5279(2) 0.13407(14)
O8 O 0.0687(3) 0.3993(2) -0.07946(14)
O9 O -0.1524(3) 0.4552(2) -0.08216(15)
O10 O 0.2021(3) 0.3299(2) 0.08148(17)
H1 H 0.1119 0.3339 0.0798
H2 H 0.2455 0.3367 0.1280
N1 N 0.6901(4) 0.4028(3) 0.40086(18)
N2 N -0.1620(4) 0.3830(3) -0.35806(18)
C1 C 0.5050(4) 0.3151(3) -0.0307(2)
C2 C 0.6092(5) 0.2495(3) -0.0605(3)
C3 C 0.7528(5) 0.2354(3) -0.0226(3)
C4 C 0.8433(6) 0.1792(4) -0.0585(4)
H3 H 0.9384 0.1689 -0.0341
C5 C 0.7929(7) 0.1384(4) -0.1307(4)
H4 H 0.8557 0.1023 -0.1546
C6 C 0.6529(7) 0.1500(5) -0.1673(4)
H5 H 0.6197 0.1211 -0.2152
C7 C 0.5609(6) 0.2057(4) -0.1317(3)
H6 H 0.4653 0.2138 -0.1560
C8 C 0.5623(4) 0.4783(3) 0.1618(2)
C9 C 0.6064(4) 0.4525(3) 0.2465(2)
C10 C 0.6116(5) 0.3547(3) 0.2697(2)
H7 H 0.5858 0.3044 0.2337
C11 C 0.6554(5) 0.3323(3) 0.3470(2)
H8 H 0.6611 0.2662 0.3622
C12 C 0.6821(5) 0.4970(3) 0.3778(2)
H9 H 0.7050 0.5464 0.4149
C13 C 0.6415(5) 0.5249(3) 0.3018(2)
H10 H 0.6378 0.5915 0.2881
C14 C -0.0559(4) 0.4225(3) -0.1127(2)
C15 C -0.0910(4) 0.4084(3) -0.1991(2)
C16 C 0.0145(4) 0.4057(3) -0.2428(2)
H11 H 0.1109 0.4125 -0.2196
C17 C -0.0243(5) 0.3927(4) -0.3215(2)
H12 H 0.0479 0.3905 -0.3505
C18 C -0.2630(4) 0.3861(4) -0.3150(2)
H13 H -0.3587 0.3791 -0.3394
C19 C -0.2336(4) 0.3991(4) -0.2368(2)
H14 H -0.3079 0.4016 -0.2092
Pr1B Pr 0.71552(2) 0.535760(16) 0.003775(11)
Pr1B_2 Pr -0.28448(2) 0.535760(16) 0.003775(11)
Ag1C Ag 0.77613(4) 0.36419(3) 0.519547(17)
Ag1C_2 Ag -0.22387(4) 0.36419(3) -0.480453(17)
O1B O 0.4526(3) 0.6000(2) 0.00660(15)
O3B O 0.1617(3) 0.6142(2) -0.06954(17)
O7B O 0.3479(3) 0.4721(2) -0.13407(14)
O9B O 0.1524(3) 0.5448(2) 0.08216(15)
N1C N 0.1901(4) 0.0972(3) -0.09914(18)
N2C N 0.3380(4) 0.1170(3) 0.14194(18)
loop_
_geom_bond_atom_site_label_1
_geom_bond_atom_site_label_2
_geom_bond_site_symmetry_1
_geom_bond_site_symmetry_2
Pr1 O1 1_555 1_555
Ag1 O2 1_555 1_555
S1 O3 1_555 1_555
O1 C1 1_555 1_555
O2 Pr1 1_555 1_555
O3 Pr1B 1_555 1_555
O4 S1 1_555 1_555
O5 S1 1_555 1_555
O6 Pr1 1_555 1_555
O7 C8 1_555 1_555
O8 Pr1 1_555 1_555
O9 C14 1_555 1_555
O10 Pr1 1_555 1_555
H1 O10 1_555 1_555
H2 O10 1_555 1_555
N1 C11 1_555 1_555
N2 C17 1_555 1_555
C1 O2 1_555 1_555
C2 C1 1_555 1_555
C3 S1 1_555 1_555
C4 C3 1_555 1_555
H3 C4 1_555 1_555
C5 C4 1_555 1_555
H4 C5 1_555 1_555
C6 C5 1_555 1_555
H5 C6 1_555 1_555
C7 C2 1_555 1_555
H6 C7 1_555 1_555
C8 O6 1_555 1_555
C9 C8 1_555 1_555
C10 C9 1_555 1_555
H7 C10 1_555 1_555
C11 C10 1_555 1_555
H8 C11 1_555 1_555
C12 N1 1_555 1_555
H9 C12 1_555 1_555
C13 C9 1_555 1_555
H10 C13 1_555 1_555
C14 O8 1_555 1_555
C15 C14 1_555 1_555
C16 C15 1_555 1_555
H11 C16 1_555 1_555
C17 C16 1_555 1_555
H12 C17 1_555 1_555
C18 N2 1_555 1_555
H13 C18 1_555 1_555
C19 C15 1_555 1_555
H14 C19 1_555 1_555
Pr1B O1 1_555 1_555
Pr1B_2 O9 1_555 1_555
Ag1C N1 1_555 1_555
Ag1C_2 N2 1_555 1_555
O1B Pr1 1_555 1_555
O3B Pr1 1_555 1_555
O7B Pr1 1_555 1_555
O9B Pr1 1_555 1_555
N1C Ag1 1_555 1_555
N2C Ag1 1_555 1_555
O7 Pr1B 1_555 1_555
C2 C3 1_555 1_555
C6 C7 1_555 1_555
C12 C13 1_555 1_555
C18 C19 1_555 1_555
Pr1B O1B 1_555 1_555

#END
