
#######################################################################
#
#                 Cambridge Crystallographic Data Centre
#                                CCDC 
#
#######################################################################
#
# If this CIF has been generated from an entry in the Cambridge 
# Structural Database, then it will include bibliographic, chemical, 
# crystal, experimental, refinement or atomic coordinate data resulting 
# from the CCDC's data processing and validation procedures.
#
#######################################################################

data_FAZKAU
_symmetry_cell_setting           monoclinic
_symmetry_space_group_name_H-M   'P 21/c'
_symmetry_Int_Tables_number      14
_space_group_name_Hall           '-P 2ybc'
loop_
_symmetry_equiv_pos_site_id
_symmetry_equiv_pos_as_xyz
1 x,y,z
2 -x,1/2+y,1/2-z
3 -x,-y,-z
4 x,1/2-y,1/2+z
_cell_length_a                   11.0885(5)
_cell_length_b                   22.1034(8)
_cell_length_c                   8.6456(4)
_cell_angle_alpha                90
_cell_angle_beta                 106.763(5)
_cell_angle_gamma                90
_cell_volume                     2028.94
loop_
_atom_site_label
_atom_site_type_symbol
_atom_site_fract_x
_atom_site_fract_y
_atom_site_fract_z
La1 La 0.02721(2) 0.768732(10) 0.47431(3)
Ag1 Ag 0.28151(4) 0.88687(2) 1.21487(5)
S1 S 0.17865(11) 0.89654(5) 0.55444(14)
O1 O 0.1829(3) 0.77062(14) 0.7476(4)
O2 O 0.2144(3) 0.80491(17) 0.9927(4)
O3 O 0.0762(3) 0.88121(15) 0.6205(4)
O4 O 0.1871(3) 0.84946(15) 0.4364(4)
O5 O 0.1777(4) 0.95723(17) 0.4938(5)
O6 O -0.0927(3) 0.84957(15) 0.2823(4)
O7 O 0.0037(3) 0.82786(15) 0.0970(4)
O8 O -0.0863(3) 0.71014(14) 0.1885(4)
O9 O -0.2007(3) 0.73238(15) 0.3513(4)
N1 N -0.1980(4) 1.02650(17) -0.0955(5)
N2 N -0.5287(4) 0.64552(19) -0.1180(5)
C1 C 0.2358(4) 0.8062(2) 0.8585(5)
C2 C 0.3358(4) 0.8488(2) 0.8397(5)
C3 C 0.3211(4) 0.8894(2) 0.7118(6)
C4 C 0.4196(5) 0.9279(3) 0.7071(7)
H1 H 0.4085 0.9563 0.6247
C5 C 0.5343(6) 0.9237(4) 0.8260(8)
H2 H 0.6012 0.9481 0.8202
C6 C 0.5498(5) 0.8840(3) 0.9521(8)
H3 H 0.6268 0.8813 1.0313
C7 C 0.4501(4) 0.8479(3) 0.9607(6)
H4 H 0.4596 0.8225 1.0492
C8 C -0.0635(4) 0.8610(2) 0.1561(5)
C9 C -0.1097(4) 0.91924(18) 0.0687(5)
C10 C -0.1605(5) 0.9642(2) 0.1411(6)
H5 H -0.1662 0.9594 0.2456
C11 C -0.2028(5) 1.0164(2) 0.0554(6)
H6 H -0.2369 1.0464 0.1054
C12 C -0.1466(4) 0.9830(2) -0.1634(6)
H7 H -0.1409 0.9890 -0.2675
C13 C -0.1014(4) 0.9294(2) -0.0853(5)
H8 H -0.0657 0.9004 -0.1364
C14 C -0.1903(4) 0.71128(19) 0.2223(5)
C15 C -0.3070(4) 0.6868(2) 0.1027(5)
C16 C -0.4228(4) 0.7081(2) 0.1058(6)
H9 H -0.4286 0.7360 0.1840
C17 C -0.5300(4) 0.6881(2) -0.0075(6)
H10 H -0.6070 0.7047 -0.0075
C18 C -0.4157(5) 0.6235(2) -0.1148(6)
H11 H -0.4127 0.5927 -0.1870
C19 C -0.3031(4) 0.6434(2) -0.0112(6)
H12 H -0.2267 0.6281 -0.0179
La1C La 0.02721(2) 0.731268(10) 0.97431(3)
La1C_2 La 0.02721(2) 0.731268(10) -0.02569(3)
Ag1_2 Ag 0.28151(4) 0.88687(2) 0.21487(5)
Ag1B Ag -0.28151(4) 1.11313(2) -0.21487(5)
Ag1C Ag -0.71849(4) 0.61313(2) -0.28513(5)
O2C O 0.2144(3) 0.69509(17) 0.4927(4)
O4_2 O 0.1871(3) 0.84946(15) 1.4364(4)
O7C O 0.0037(3) 0.67214(15) 0.5970(4)
O8C O -0.0863(3) 0.78986(14) 0.6885(4)
N1B N 0.1980(4) 0.97350(17) 1.0955(5)
N2C N 0.4713(4) 0.85448(19) 1.3820(5)
loop_
_geom_bond_atom_site_label_1
_geom_bond_atom_site_label_2
_geom_bond_site_symmetry_1
_geom_bond_site_symmetry_2
La1 O1 1_555 1_555
Ag1 O2 1_555 1_555
S1 O3 1_555 1_555
O1 C1 1_555 1_555
O2 C1 1_555 1_555
O3 La1 1_555 1_555
O4 La1 1_555 1_555
O5 S1 1_555 1_555
O6 La1 1_555 1_555
O7 C8 1_555 1_555
O8 La1 1_555 1_555
O9 La1 1_555 1_555
N1 C11 1_555 1_555
N2 C17 1_555 1_555
C1 C2 1_555 1_555
C2 C3 1_555 1_555
C3 S1 1_555 1_555
C4 C3 1_555 1_555
H1 C4 1_555 1_555
C5 C4 1_555 1_555
H2 C5 1_555 1_555
C6 C5 1_555 1_555
H3 C6 1_555 1_555
C7 C2 1_555 1_555
H4 C7 1_555 1_555
C8 O6 1_555 1_555
C9 C8 1_555 1_555
C10 C9 1_555 1_555
H5 C10 1_555 1_555
C11 C10 1_555 1_555
H6 C11 1_555 1_555
C12 N1 1_555 1_555
H7 C12 1_555 1_555
C13 C9 1_555 1_555
H8 C13 1_555 1_555
C14 O8 1_555 1_555
C15 C14 1_555 1_555
C16 C15 1_555 1_555
H9 C16 1_555 1_555
C17 C16 1_555 1_555
H10 C17 1_555 1_555
C18 N2 1_555 1_555
H11 C18 1_555 1_555
C19 C15 1_555 1_555
H12 C19 1_555 1_555
La1C O2 1_555 1_555
La1C_2 O7 1_555 1_555
Ag1_2 O4 1_555 1_555
Ag1B N1 1_555 1_555
Ag1C N2 1_555 1_555
O2C La1 1_555 1_555
O4_2 Ag1 1_555 1_555
O7C La1 1_555 1_555
O8C La1 1_555 1_555
N1B Ag1 1_555 1_555
N2C Ag1 1_555 1_555
S1 O4 1_555 1_555
O8 La1C_2 1_555 1_555
O9 C14 1_555 1_555
C6 C7 1_555 1_555
C12 C13 1_555 1_555
C18 C19 1_555 1_555
La1C O8C 1_555 1_555

#END
