
#######################################################################
#
#                 Cambridge Crystallographic Data Centre
#                                CCDC 
#
#######################################################################
#
# If this CIF has been generated from an entry in the Cambridge 
# Structural Database, then it will include bibliographic, chemical, 
# crystal, experimental, refinement or atomic coordinate data resulting 
# from the CCDC's data processing and validation procedures.
#
#######################################################################

data_FAZLAV
_symmetry_cell_setting           monoclinic
_symmetry_space_group_name_H-M   'P 21/n'
_symmetry_Int_Tables_number      14
_space_group_name_Hall           '-P 2yn'
loop_
_symmetry_equiv_pos_site_id
_symmetry_equiv_pos_as_xyz
1 x,y,z
2 1/2-x,1/2+y,1/2-z
3 -x,-y,-z
4 1/2+x,1/2-y,1/2+z
_cell_length_a                   9.3530(2)
_cell_length_b                   13.4571(4)
_cell_length_c                   17.5792(5)
_cell_angle_alpha                90
_cell_angle_beta                 101.094(2)
_cell_angle_gamma                90
_cell_volume                     2171.25
loop_
_atom_site_label
_atom_site_type_symbol
_atom_site_fract_x
_atom_site_fract_y
_atom_site_fract_z
Gd1 Gd 0.714753(19) 0.466334(16) 0.004317(11)
Ag1 Ag 0.72642(4) 0.14117(3) -0.01950(2)
S1 S 0.18666(13) 0.27878(11) -0.07094(8)
O1 O 0.4526(3) 0.4035(2) 0.00931(17)
O2 O 0.6305(3) 0.2961(2) 0.03779(19)
O3 O 0.1624(3) 0.3850(3) -0.0674(2)
O4 O 0.2972(4) 0.2515(3) -0.1138(2)
O5 O 0.0483(4) 0.2287(3) -0.0959(3)
O6 O 0.6544(3) 0.4776(3) 0.13210(17)
O7 O 0.4386(3) 0.5547(3) 0.12489(17)
O8 O 0.8441(3) 0.5430(3) -0.08095(18)
O9 O 1.0711(3) 0.5940(3) -0.07752(16)
O10 O 0.7996(4) 0.3331(3) -0.07638(19)
H1 H 0.8912 0.3374 -0.0734
H2 H 0.7583 0.3400 -0.1236
N1 N 0.6853(4) 0.6011(3) 0.4002(2)
N2 N 0.8380(4) 0.6199(3) -0.3574(2)
C1 C 0.4989(5) 0.3196(3) 0.0338(3)
C2 C 0.3965(5) 0.2516(4) 0.0641(3)
C3 C 0.2531(5) 0.2343(4) 0.0252(4)
C4 C 0.1607(7) 0.1763(5) 0.0595(4)
H3 H 0.0655 0.1645 0.0339
C5 C 0.2112(7) 0.1361(5) 0.1319(5)
H4 H 0.1481 0.0985 0.1552
C6 C 0.3534(8) 0.1501(6) 0.1709(5)
H5 H 0.3859 0.1217 0.2193
C7 C 0.4466(6) 0.2079(5) 0.1358(4)
H6 H 0.5428 0.2171 0.1606
C8 C 0.5618(4) 0.5261(4) 0.1593(2)
C9 C 0.6033(4) 0.5514(3) 0.2448(2)
C10 C 0.6413(5) 0.4787(4) 0.3003(3)
H7 H 0.6417 0.4121 0.2861
C11 C 0.6784(5) 0.5061(4) 0.3767(3)
H8 H 0.6998 0.4564 0.4140
C12 C 0.6480(5) 0.6707(4) 0.3462(3)
H9 H 0.6509 0.7369 0.3616
C13 C 0.6054(5) 0.6493(4) 0.2686(3)
H10 H 0.5784 0.7000 0.2327
C14 C 0.9440(4) 0.5741(3) -0.1111(2)
C15 C 0.9082(4) 0.5907(3) -0.1974(2)
C16 C 1.0155(5) 0.5919(4) -0.2422(2)
H11 H 1.1128 0.5832 -0.2191
C17 C 0.9770(5) 0.6060(4) -0.3207(3)
H12 H 1.0499 0.6060 -0.3500
C18 C 0.7332(5) 0.6186(4) -0.3138(3)
H13 H 0.6367 0.6284 -0.3380
C19 C 0.7649(5) 0.6035(4) -0.2351(3)
H14 H 0.6902 0.6018 -0.2070
Gd1B Gd 0.285247(19) 0.533666(16) -0.004317(11)
Gd1B_2 Gd 1.285247(19) 0.533666(16) -0.004317(11)
Ag1A Ag 0.77358(4) 0.64117(3) 0.51950(2)
Ag1A_2 Ag 0.77358(4) 0.64117(3) -0.48050(2)
O1B O 0.5474(3) 0.5965(2) -0.00931(17)
O3B O 0.8376(3) 0.6150(3) 0.0674(2)
O7B O 0.5614(3) 0.4453(3) -0.12489(17)
O9B O 0.9289(3) 0.4060(3) 0.07752(16)
N1A N 0.8147(4) 0.1011(3) 0.0998(2)
N2A N 0.6620(4) 0.1199(3) -0.1426(2)
loop_
_geom_bond_atom_site_label_1
_geom_bond_atom_site_label_2
_geom_bond_site_symmetry_1
_geom_bond_site_symmetry_2
Gd1 O1 1_555 1_555
Ag1 O2 1_555 1_555
S1 O3 1_555 1_555
O1 C1 1_555 1_555
O2 Gd1 1_555 1_555
O3 Gd1B 1_555 1_555
O4 S1 1_555 1_555
O5 S1 1_555 1_555
O6 Gd1 1_555 1_555
O7 C8 1_555 1_555
O8 Gd1 1_555 1_555
O9 C14 1_555 1_555
O10 Gd1 1_555 1_555
H1 O10 1_555 1_555
H2 O10 1_555 1_555
N1 C11 1_555 1_555
N2 C17 1_555 1_555
C1 O2 1_555 1_555
C2 C1 1_555 1_555
C3 S1 1_555 1_555
C4 C3 1_555 1_555
H3 C4 1_555 1_555
C5 C4 1_555 1_555
H4 C5 1_555 1_555
C6 C5 1_555 1_555
H5 C6 1_555 1_555
C7 C2 1_555 1_555
H6 C7 1_555 1_555
C8 O6 1_555 1_555
C9 C8 1_555 1_555
C10 C9 1_555 1_555
H7 C10 1_555 1_555
C11 C10 1_555 1_555
H8 C11 1_555 1_555
C12 N1 1_555 1_555
H9 C12 1_555 1_555
C13 C9 1_555 1_555
H10 C13 1_555 1_555
C14 O8 1_555 1_555
C15 C14 1_555 1_555
C16 C15 1_555 1_555
H11 C16 1_555 1_555
C17 C16 1_555 1_555
H12 C17 1_555 1_555
C18 N2 1_555 1_555
H13 C18 1_555 1_555
C19 C15 1_555 1_555
H14 C19 1_555 1_555
Gd1B O1 1_555 1_555
Gd1B_2 O9 1_555 1_555
Ag1A N1 1_555 1_555
Ag1A_2 N2 1_555 1_555
O1B Gd1 1_555 1_555
O3B Gd1 1_555 1_555
O7B Gd1 1_555 1_555
O9B Gd1 1_555 1_555
N1A Ag1 1_555 1_555
N2A Ag1 1_555 1_555
O7 Gd1B 1_555 1_555
C2 C3 1_555 1_555
C6 C7 1_555 1_555
C12 C13 1_555 1_555
C18 C19 1_555 1_555
Gd1B O1B 1_555 1_555

#END
