
#######################################################################
#
#                 Cambridge Crystallographic Data Centre
#                                CCDC 
#
#######################################################################
#
# If this CIF has been generated from an entry in the Cambridge 
# Structural Database, then it will include bibliographic, chemical, 
# crystal, experimental, refinement or atomic coordinate data resulting 
# from the CCDC's data processing and validation procedures.
#
#######################################################################

data_FAZLEZ
_symmetry_cell_setting           monoclinic
_symmetry_space_group_name_H-M   'P 21/n'
_symmetry_Int_Tables_number      14
_space_group_name_Hall           '-P 2yn'
loop_
_symmetry_equiv_pos_site_id
_symmetry_equiv_pos_as_xyz
1 x,y,z
2 1/2-x,1/2+y,1/2-z
3 -x,-y,-z
4 1/2+x,1/2-y,1/2+z
_cell_length_a                   9.3141(5)
_cell_length_b                   13.4877(6)
_cell_length_c                   17.5664(8)
_cell_angle_alpha                90
_cell_angle_beta                 101.341(5)
_cell_angle_gamma                90
_cell_volume                     2163.7
loop_
_atom_site_label
_atom_site_type_symbol
_atom_site_fract_x
_atom_site_fract_y
_atom_site_fract_z
Tb1 Tb 0.28484(5) 0.46758(3) -0.00478(2)
Ag1 Ag 0.27139(12) 0.14374(7) 0.01921(5)
S1 S 0.8112(3) 0.2776(2) 0.0695(2)
O1 O 0.5468(8) 0.4038(5) -0.0110(4)
O2 O 0.3659(8) 0.2987(5) -0.0395(4)
O3 O 0.8381(9) 0.3823(6) 0.0654(5)
O4 O 0.7008(10) 0.2504(8) 0.1119(6)
O5 O 0.9485(11) 0.2266(8) 0.0946(8)
O6 O 0.3439(8) 0.4812(6) -0.1313(4)
O7 O 0.5626(8) 0.5571(6) -0.1237(4)
O8 O 0.1574(8) 0.5439(6) 0.0817(4)
O9 O -0.0696(7) 0.5906(6) 0.0782(4)
O10 O 0.1963(9) 0.3349(6) 0.0747(5)
H1 H 0.1040 0.3393 0.0706
H2 H 0.2363 0.3418 0.1222
N1 N 0.3172(11) 0.6028(7) -0.3992(5)
N2 N 0.1651(11) 0.6208(7) 0.3572(5)
C1 C 0.4984(12) 0.3209(7) -0.0358(6)
C2 C 0.6011(15) 0.2520(9) -0.0656(9)
C3 C 0.7453(15) 0.2323(9) -0.0264(9)
C4 C 0.8339(17) 0.1755(10) -0.0620(11)
H3 H 0.9299 0.1638 -0.0367
C5 C 0.7845(19) 0.1349(12) -0.1349(11)
H4 H 0.8477 0.0967 -0.1577
C6 C 0.6378(19) 0.1509(12) -0.1754(11)
H5 H 0.6031 0.1250 -0.2247
C7 C 0.5504(17) 0.2073(10) -0.1369(10)
H6 H 0.4525 0.2157 -0.1601
C8 C 0.4375(11) 0.5284(7) -0.1590(5)
C9 C 0.3976(11) 0.5536(8) -0.2445(5)
C10 C 0.3972(13) 0.6504(9) -0.2683(6)
H7 H 0.4246 0.7006 -0.2320
C11 C 0.3566(14) 0.6732(8) -0.3454(6)
H8 H 0.3563 0.7391 -0.3608
C12 C 0.3212(14) 0.5075(8) -0.3763(6)
H9 H 0.2966 0.4585 -0.4138
C13 C 0.3602(13) 0.4795(9) -0.2993(6)
H10 H 0.3612 0.4131 -0.2849
C14 C 0.0572(11) 0.5722(7) 0.1113(5)
C15 C 0.0933(10) 0.5902(7) 0.1978(5)
C16 C -0.0147(11) 0.5905(8) 0.2422(6)
H11 H -0.1122 0.5805 0.2188
C17 C 0.0237(12) 0.6059(8) 0.3210(6)
H12 H -0.0491 0.6061 0.3504
C18 C 0.2697(13) 0.6216(9) 0.3138(6)
H13 H 0.3663 0.6334 0.3379
C19 C 0.2375(12) 0.6054(9) 0.2351(6)
H14 H 0.3120 0.6047 0.2069
Tb1B Tb 0.71516(5) 0.53242(3) 0.00478(2)
Tb1B_2 Tb -0.28484(5) 0.53242(3) 0.00478(2)
Ag1A Ag 0.22861(12) 0.64374(7) -0.51921(5)
Ag1A_2 Ag 0.22861(12) 0.64374(7) 0.48079(5)
O1B O 0.4532(8) 0.5962(5) 0.0110(4)
O3B O 0.1619(9) 0.6177(6) -0.0654(5)
O7B O 0.4374(8) 0.4429(6) 0.1237(4)
O9B O 0.0696(7) 0.4094(6) -0.0782(4)
N1A N 0.1828(11) 0.1028(7) -0.1008(5)
N2A N 0.3349(11) 0.1208(7) 0.1428(5)
loop_
_geom_bond_atom_site_label_1
_geom_bond_atom_site_label_2
_geom_bond_site_symmetry_1
_geom_bond_site_symmetry_2
Tb1 O1 1_555 1_555
Ag1 O2 1_555 1_555
S1 O3 1_555 1_555
O1 C1 1_555 1_555
O2 Tb1 1_555 1_555
O3 Tb1B 1_555 1_555
O4 S1 1_555 1_555
O5 S1 1_555 1_555
O6 Tb1 1_555 1_555
O7 C8 1_555 1_555
O8 Tb1 1_555 1_555
O9 C14 1_555 1_555
O10 Tb1 1_555 1_555
H1 O10 1_555 1_555
H2 O10 1_555 1_555
N1 C11 1_555 1_555
N2 C17 1_555 1_555
C1 O2 1_555 1_555
C2 C1 1_555 1_555
C3 S1 1_555 1_555
C4 C3 1_555 1_555
H3 C4 1_555 1_555
C5 C4 1_555 1_555
H4 C5 1_555 1_555
C6 C5 1_555 1_555
H5 C6 1_555 1_555
C7 C2 1_555 1_555
H6 C7 1_555 1_555
C8 O6 1_555 1_555
C9 C8 1_555 1_555
C10 C9 1_555 1_555
H7 C10 1_555 1_555
C11 C10 1_555 1_555
H8 C11 1_555 1_555
C12 N1 1_555 1_555
H9 C12 1_555 1_555
C13 C9 1_555 1_555
H10 C13 1_555 1_555
C14 O8 1_555 1_555
C15 C14 1_555 1_555
C16 C15 1_555 1_555
H11 C16 1_555 1_555
C17 C16 1_555 1_555
H12 C17 1_555 1_555
C18 N2 1_555 1_555
H13 C18 1_555 1_555
C19 C15 1_555 1_555
H14 C19 1_555 1_555
Tb1B O1 1_555 1_555
Tb1B_2 O9 1_555 1_555
Ag1A N1 1_555 1_555
Ag1A_2 N2 1_555 1_555
O1B Tb1 1_555 1_555
O3B Tb1 1_555 1_555
O7B Tb1 1_555 1_555
O9B Tb1 1_555 1_555
N1A Ag1 1_555 1_555
N2A Ag1 1_555 1_555
O7 Tb1B 1_555 1_555
C2 C3 1_555 1_555
C6 C7 1_555 1_555
C12 C13 1_555 1_555
C18 C19 1_555 1_555
Tb1B O1B 1_555 1_555

#END
