
#######################################################################
#
#                 Cambridge Crystallographic Data Centre
#                                CCDC 
#
#######################################################################
#
# If this CIF has been generated from an entry in the Cambridge 
# Structural Database, then it will include bibliographic, chemical, 
# crystal, experimental, refinement or atomic coordinate data resulting 
# from the CCDC's data processing and validation procedures.
#
#######################################################################

data_FAZLID
_symmetry_cell_setting           monoclinic
_symmetry_space_group_name_H-M   'P 21/n'
_symmetry_Int_Tables_number      14
_space_group_name_Hall           '-P 2yn'
loop_
_symmetry_equiv_pos_site_id
_symmetry_equiv_pos_as_xyz
1 x,y,z
2 1/2-x,1/2+y,1/2-z
3 -x,-y,-z
4 1/2+x,1/2-y,1/2+z
_cell_length_a                   9.1649(3)
_cell_length_b                   13.7540(5)
_cell_length_c                   17.6541(5)
_cell_angle_alpha                90
_cell_angle_beta                 102.451(3)
_cell_angle_gamma                90
_cell_volume                     2173.03
loop_
_atom_site_label
_atom_site_type_symbol
_atom_site_fract_x
_atom_site_fract_y
_atom_site_fract_z
Dy1 Dy 0.71971(2) 0.480511(18) 0.007955(11)
Ag1 Ag 0.75669(7) 0.16166(4) -0.01584(2)
S1 S 0.21764(16) 0.25757(13) -0.05454(12)
O1 O 0.4647(4) 0.4051(3) 0.01906(19)
O2 O 0.6648(4) 0.3158(3) 0.0496(2)
O3 O 0.1654(4) 0.3583(3) -0.0551(2)
O4 O 0.3350(5) 0.2460(5) -0.0965(3)
O5 O 0.0929(5) 0.1929(4) -0.0773(4)
O6 O 0.6601(4) 0.5046(3) 0.13122(19)
O7 O 0.4287(4) 0.5690(3) 0.11591(18)
O8 O 0.9413(4) 0.4446(4) 0.0877(2)
O9 O 1.1802(4) 0.4444(3) 0.0872(2)
O10 O 0.8449(4) 0.3511(3) -0.0589(2)
H1 H 0.9393 0.3570 -0.0457
H2 H 0.8189 0.3581 -0.1078
N1 N 0.6574(5) 0.6170(4) 0.3962(2)
N2 N 1.1838(6) 0.3655(4) 0.3611(2)
C1 C 0.5278(5) 0.3276(4) 0.0464(3)
C2 C 0.4421(6) 0.2548(4) 0.0808(4)
C3 C 0.2978(7) 0.2240(5) 0.0435(5)
C4 C 0.2224(8) 0.1602(6) 0.0819(6)
H3 H 0.1282 0.1376 0.0577
C5 C 0.2879(10) 0.1296(6) 0.1574(6)
H4 H 0.2346 0.0886 0.1834
C6 C 0.4283(9) 0.1587(6) 0.1937(5)
H5 H 0.4711 0.1372 0.2435
C7 C 0.5047(8) 0.2205(5) 0.1550(4)
H6 H 0.6008 0.2399 0.1788
C8 C 0.5565(5) 0.5453(4) 0.1544(3)
C9 C 0.5884(5) 0.5696(4) 0.2401(3)
C10 C 0.6424(7) 0.5002(4) 0.2958(3)
H7 H 0.6580 0.4366 0.2815
C11 C 0.6725(7) 0.5268(4) 0.3722(3)
H8 H 0.7053 0.4792 0.4094
C12 C 0.6054(6) 0.6842(5) 0.3426(3)
H9 H 0.5948 0.7478 0.3584
C13 C 0.5668(6) 0.6622(4) 0.2647(3)
H10 H 0.5264 0.7099 0.2289
C14 C 1.0747(5) 0.4346(4) 0.1187(3)
C15 C 1.1110(5) 0.4094(4) 0.2039(3)
C16 C 1.2538(6) 0.3812(5) 0.2394(3)
H11 H 1.3281 0.3778 0.2110
C17 C 1.2860(7) 0.3580(5) 0.3175(3)
H12 H 1.3816 0.3365 0.3403
C18 C 1.0438(7) 0.3934(5) 0.3265(3)
H13 H 0.9717 0.3973 0.3563
C19 C 1.0040(6) 0.4162(4) 0.2490(3)
H14 H 0.9071 0.4358 0.2269
Dy1B Dy 0.28029(2) 0.519489(18) -0.007955(11)
Dy1B_2 Dy 1.28029(2) 0.519489(18) -0.007955(11)
Ag1A Ag 0.74331(7) 0.66166(4) 0.51584(2)
Ag1C Ag 1.25669(7) 0.33834(4) 0.48416(2)
O1B O 0.5353(4) 0.5949(3) -0.01906(19)
O3B O 0.8346(4) 0.6417(3) 0.0551(2)
O7B O 0.5713(4) 0.4310(3) -0.11591(18)
O9B O 0.8198(4) 0.5556(3) -0.0872(2)
N1A N 0.8426(5) 0.1170(4) 0.1038(2)
N2C N 0.6838(6) 0.1345(4) -0.1389(2)
loop_
_geom_bond_atom_site_label_1
_geom_bond_atom_site_label_2
_geom_bond_site_symmetry_1
_geom_bond_site_symmetry_2
Dy1 O1 1_555 1_555
Ag1 O2 1_555 1_555
S1 O3 1_555 1_555
O1 C1 1_555 1_555
O2 Dy1 1_555 1_555
O3 Dy1B 1_555 1_555
O4 S1 1_555 1_555
O5 S1 1_555 1_555
O6 Dy1 1_555 1_555
O7 C8 1_555 1_555
O8 Dy1 1_555 1_555
O9 C14 1_555 1_555
O10 Dy1 1_555 1_555
H1 O10 1_555 1_555
H2 O10 1_555 1_555
N1 C11 1_555 1_555
N2 C17 1_555 1_555
C1 O2 1_555 1_555
C2 C1 1_555 1_555
C3 S1 1_555 1_555
C4 C3 1_555 1_555
H3 C4 1_555 1_555
C5 C4 1_555 1_555
H4 C5 1_555 1_555
C6 C5 1_555 1_555
H5 C6 1_555 1_555
C7 C2 1_555 1_555
H6 C7 1_555 1_555
C8 O6 1_555 1_555
C9 C8 1_555 1_555
C10 C9 1_555 1_555
H7 C10 1_555 1_555
C11 C10 1_555 1_555
H8 C11 1_555 1_555
C12 N1 1_555 1_555
H9 C12 1_555 1_555
C13 C9 1_555 1_555
H10 C13 1_555 1_555
C14 O8 1_555 1_555
C15 C14 1_555 1_555
C16 C15 1_555 1_555
H11 C16 1_555 1_555
C17 C16 1_555 1_555
H12 C17 1_555 1_555
C18 N2 1_555 1_555
H13 C18 1_555 1_555
C19 C15 1_555 1_555
H14 C19 1_555 1_555
Dy1B O1 1_555 1_555
Dy1B_2 O9 1_555 1_555
Ag1A N1 1_555 1_555
Ag1C N2 1_555 1_555
O1B Dy1 1_555 1_555
O3B Dy1 1_555 1_555
O7B Dy1 1_555 1_555
O9B Dy1 1_555 1_555
N1A Ag1 1_555 1_555
N2C Ag1 1_555 1_555
O7 Dy1B 1_555 1_555
C2 C3 1_555 1_555
C6 C7 1_555 1_555
C12 C13 1_555 1_555
C18 C19 1_555 1_555
Dy1B O1B 1_555 1_555

#END
