
#######################################################################
#
#                 Cambridge Crystallographic Data Centre
#                                CCDC 
#
#######################################################################
#
# If this CIF has been generated from an entry in the Cambridge 
# Structural Database, then it will include bibliographic, chemical, 
# crystal, experimental, refinement or atomic coordinate data resulting 
# from the CCDC's data processing and validation procedures.
#
#######################################################################

data_FAZLUP
_symmetry_cell_setting           monoclinic
_symmetry_space_group_name_H-M   'P 21/n'
_symmetry_Int_Tables_number      14
_space_group_name_Hall           '-P 2yn'
loop_
_symmetry_equiv_pos_site_id
_symmetry_equiv_pos_as_xyz
1 x,y,z
2 1/2-x,1/2+y,1/2-z
3 -x,-y,-z
4 1/2+x,1/2-y,1/2+z
_cell_length_a                   9.1218(4)
_cell_length_b                   13.7662(7)
_cell_length_c                   17.5990(7)
_cell_angle_alpha                90
_cell_angle_beta                 102.457(4)
_cell_angle_gamma                90
_cell_volume                     2157.92
loop_
_atom_site_label
_atom_site_type_symbol
_atom_site_fract_x
_atom_site_fract_y
_atom_site_fract_z
Er1 Er 0.71974(2) 0.018687(19) 0.008117(12)
Ag1 Ag 0.75804(7) 0.33610(5) -0.01576(3)
S1 S 0.21941(17) 0.24284(14) -0.05375(12)
O1 O 0.4639(4) 0.0932(3) 0.0200(2)
O2 O 0.6672(4) 0.1809(3) 0.0503(2)
O3 O 0.1653(4) 0.1428(3) -0.0543(3)
O4 O 0.3380(5) 0.2544(5) -0.0958(3)
O5 O 0.0940(5) 0.3086(4) -0.0771(5)
O6 O 0.5729(4) 0.0690(3) -0.1144(2)
O7 O 0.3389(4) 0.0067(3) -0.1301(2)
O8 O 0.8181(4) -0.0547(3) -0.0865(2)
O9 O 1.0586(4) -0.0521(4) -0.0873(2)
O10 O 0.8457(4) 0.1479(3) -0.0577(2)
H1 H 0.8206 0.1409 -0.1068
H2 H 0.9404 0.1420 -0.0439
N1 N 0.3442(5) 0.1191(4) -0.3961(2)
N2 N 0.8142(6) -0.1360(4) -0.3608(3)
C1 C 0.5293(6) 0.1700(4) 0.0475(3)
C2 C 0.4442(6) 0.2447(5) 0.0827(4)
C3 C 0.2996(7) 0.2750(5) 0.0439(5)
C4 C 0.2257(9) 0.3408(6) 0.0849(6)
H3 H 0.1314 0.3644 0.0612
C5 C 0.2912(11) 0.3711(7) 0.1602(6)
H4 H 0.2394 0.4129 0.1865
C6 C 0.4284(10) 0.3401(6) 0.1947(6)
H5 H 0.4713 0.3604 0.2449
C7 C 0.5067(8) 0.2781(5) 0.1560(4)
H6 H 0.6033 0.2587 0.1801
C8 C 0.4454(5) 0.0474(4) -0.1531(3)
C9 C 0.4138(5) 0.0710(4) -0.2391(3)
C10 C 0.3592(7) 0.0016(4) -0.2953(3)
H7 H 0.3435 -0.0619 -0.2809
C11 C 0.3284(8) 0.0281(5) -0.3726(3)
H8 H 0.2952 -0.0194 -0.4100
C12 C 0.3993(7) 0.1855(5) -0.3424(3)
H9 H 0.4128 0.2487 -0.3582
C13 C 0.4370(6) 0.1636(5) -0.2638(3)
H10 H 0.4778 0.2111 -0.2279
C14 C 0.9237(5) -0.0636(4) -0.1184(3)
C15 C 0.8879(6) -0.0893(4) -0.2039(3)
C16 C 0.7459(6) -0.1198(5) -0.2391(3)
H11 H 0.6720 -0.1252 -0.2103
C17 C 0.7135(7) -0.1420(6) -0.3164(3)
H12 H 0.6167 -0.1623 -0.3392
C18 C 0.9531(7) -0.1064(5) -0.3269(3)
H13 H 1.0247 -0.1016 -0.3572
C19 C 0.9941(6) -0.0827(4) -0.2487(3)
H14 H 1.0914 -0.0626 -0.2269
Er1B Er 0.28026(2) -0.018687(19) -0.008117(12)
Er1B_2 Er 1.28026(2) -0.018687(19) -0.008117(12)
Ag1C Ag 0.25804(7) 0.16390(5) -0.51576(3)
Ag1A Ag 0.74196(7) -0.16390(5) -0.48424(3)
O1B O 0.5361(4) -0.0932(3) -0.0200(2)
O3B O 0.8347(4) -0.1428(3) 0.0543(3)
O7B O 0.6611(4) -0.0067(3) 0.1301(2)
O9B O 0.9414(4) 0.0521(4) 0.0873(2)
N1C N 0.8442(5) 0.3809(4) 0.1039(2)
N2A N 0.6858(6) 0.3640(4) -0.1392(3)
loop_
_geom_bond_atom_site_label_1
_geom_bond_atom_site_label_2
_geom_bond_site_symmetry_1
_geom_bond_site_symmetry_2
Er1 O1 1_555 1_555
Ag1 O2 1_555 1_555
S1 O3 1_555 1_555
O1 C1 1_555 1_555
O2 Er1 1_555 1_555
O3 Er1B 1_555 1_555
O4 S1 1_555 1_555
O5 S1 1_555 1_555
O6 Er1 1_555 1_555
O7 C8 1_555 1_555
O8 Er1 1_555 1_555
O9 C14 1_555 1_555
O10 Er1 1_555 1_555
H1 O10 1_555 1_555
H2 O10 1_555 1_555
N1 C11 1_555 1_555
N2 C17 1_555 1_555
C1 O2 1_555 1_555
C2 C1 1_555 1_555
C3 S1 1_555 1_555
C4 C3 1_555 1_555
H3 C4 1_555 1_555
C5 C4 1_555 1_555
H4 C5 1_555 1_555
C6 C5 1_555 1_555
H5 C6 1_555 1_555
C7 C2 1_555 1_555
H6 C7 1_555 1_555
C8 O6 1_555 1_555
C9 C8 1_555 1_555
C10 C9 1_555 1_555
H7 C10 1_555 1_555
C11 C10 1_555 1_555
H8 C11 1_555 1_555
C12 N1 1_555 1_555
H9 C12 1_555 1_555
C13 C9 1_555 1_555
H10 C13 1_555 1_555
C14 O8 1_555 1_555
C15 C14 1_555 1_555
C16 C15 1_555 1_555
H11 C16 1_555 1_555
C17 C16 1_555 1_555
H12 C17 1_555 1_555
C18 N2 1_555 1_555
H13 C18 1_555 1_555
C19 C15 1_555 1_555
H14 C19 1_555 1_555
Er1B O1 1_555 1_555
Er1B_2 O9 1_555 1_555
Ag1C N1 1_555 1_555
Ag1A N2 1_555 1_555
O1B Er1 1_555 1_555
O3B Er1 1_555 1_555
O7B Er1 1_555 1_555
O9B Er1 1_555 1_555
N1C Ag1 1_555 1_555
N2A Ag1 1_555 1_555
O7 Er1B 1_555 1_555
C2 C3 1_555 1_555
C6 C7 1_555 1_555
C12 C13 1_555 1_555
C18 C19 1_555 1_555
Er1B O1B 1_555 1_555

#END
