
#######################################################################
#
#                 Cambridge Crystallographic Data Centre
#                                CCDC 
#
#######################################################################
#
# If this CIF has been generated from an entry in the Cambridge 
# Structural Database, then it will include bibliographic, chemical, 
# crystal, experimental, refinement or atomic coordinate data resulting 
# from the CCDC's data processing and validation procedures.
#
#######################################################################

data_FAZLOJ
_symmetry_cell_setting           monoclinic
_symmetry_space_group_name_H-M   'P 21/n'
_symmetry_Int_Tables_number      14
_space_group_name_Hall           '-P 2yn'
loop_
_symmetry_equiv_pos_site_id
_symmetry_equiv_pos_as_xyz
1 x,y,z
2 1/2-x,1/2+y,1/2-z
3 -x,-y,-z
4 1/2+x,1/2-y,1/2+z
_cell_length_a                   9.1495(1)
_cell_length_b                   13.7850(3)
_cell_length_c                   17.6231(3)
_cell_angle_alpha                90
_cell_angle_beta                 102.456(2)
_cell_angle_gamma                90
_cell_volume                     2170.41
loop_
_atom_site_label
_atom_site_type_symbol
_atom_site_fract_x
_atom_site_fract_y
_atom_site_fract_z
Ho1 Ho 0.78030(2) 0.518959(16) 0.991948(11)
Ag1 Ag 0.74256(7) 0.83686(4) 1.01581(2)
S1 S 1.28103(16) 0.74266(12) 1.05424(11)
O1 O 1.0351(3) 0.5942(2) 0.98050(19)
O2 O 0.8339(4) 0.6828(3) 0.9499(2)
O3 O 1.3338(4) 0.6422(3) 1.0546(2)
O4 O 1.1629(5) 0.7537(4) 1.0965(3)
O5 O 1.4065(6) 0.8078(4) 1.0772(5)
O6 O 0.9279(4) 0.5690(3) 1.11527(19)
O7 O 1.1600(4) 0.5060(3) 1.13070(19)
O8 O 0.5592(4) 0.5532(3) 0.9124(2)
O9 O 0.3179(4) 0.5556(3) 0.9132(2)
O10 O 0.6550(4) 0.6481(3) 1.0584(2)
H1 H 0.6804 0.6411 1.1074
H2 H 0.5604 0.6423 1.0449
N1 N 1.1568(5) 0.6184(3) 1.3963(2)
N2 N 0.3165(6) 0.6355(4) 0.6392(2)
C1 C 0.9710(5) 0.6710(4) 0.9530(3)
C2 C 1.0554(6) 0.7449(4) 0.9182(4)
C3 C 1.1998(6) 0.7759(4) 0.9555(4)
C4 C 1.2745(8) 0.8403(5) 0.9160(6)
H3 H 1.3690 0.8630 0.9399
C5 C 1.2096(11) 0.8706(6) 0.8416(6)
H4 H 1.2621 0.9124 0.8157
C6 C 1.0696(10) 0.8405(6) 0.8055(5)
H5 H 1.0268 0.8616 0.7555
C7 C 0.9927(8) 0.7783(5) 0.8443(4)
H6 H 0.8967 0.7585 0.8203
C8 C 1.0551(5) 0.5463(4) 1.1541(3)
C9 C 1.0878(5) 0.5701(4) 1.2393(3)
C10 C 1.1417(7) 0.5014(4) 1.2955(3)
H7 H 1.1576 0.4379 1.2813
C11 C 1.1718(7) 0.5279(4) 1.3725(3)
H8 H 1.2041 0.4804 1.4098
C12 C 1.1020(6) 0.6854(4) 1.3421(3)
H9 H 1.0891 0.7487 1.3578
C13 C 1.0642(6) 0.6630(4) 1.2642(3)
H10 H 1.0229 0.7103 1.2282
C14 C 0.4253(5) 0.5644(3) 0.8810(2)
C15 C 0.3882(5) 0.5901(3) 0.7961(3)
C16 C 0.2461(6) 0.6195(4) 0.7610(3)
H11 H 0.1722 0.6240 0.7897
C17 C 0.2135(7) 0.6421(5) 0.6831(3)
H12 H 0.1173 0.6625 0.6601
C18 C 0.4540(7) 0.6072(4) 0.6731(3)
H13 H 0.5257 0.6028 0.6430
C19 C 0.4952(6) 0.5843(4) 0.7509(3)
H14 H 0.5926 0.5652 0.7728
Ho1B Ho 1.21970(2) 0.481041(16) 1.008052(11)
Ho1B_2 Ho 0.21970(2) 0.481041(16) 1.008052(11)
Ag1C Ag 1.24256(7) 0.66314(4) 1.51581(2)
Ag1C_2 Ag 0.24256(7) 0.66314(4) 0.51581(2)
O1B O 0.9649(3) 0.4058(2) 1.01950(19)
O3B O 0.6662(4) 0.3578(3) 0.9454(2)
O7B O 0.8400(4) 0.4940(3) 0.86930(19)
O9B O 0.6821(4) 0.4444(3) 1.0868(2)
N1C N 0.6568(5) 0.8816(3) 0.8963(2)
N2C N 0.8165(6) 0.8645(4) 1.1392(2)
loop_
_geom_bond_atom_site_label_1
_geom_bond_atom_site_label_2
_geom_bond_site_symmetry_1
_geom_bond_site_symmetry_2
Ho1 O1 1_555 1_555
Ag1 O2 1_555 1_555
S1 O3 1_555 1_555
O1 C1 1_555 1_555
O2 Ho1 1_555 1_555
O3 Ho1B 1_555 1_555
O4 S1 1_555 1_555
O5 S1 1_555 1_555
O6 Ho1 1_555 1_555
O7 C8 1_555 1_555
O8 Ho1 1_555 1_555
O9 C14 1_555 1_555
O10 Ho1 1_555 1_555
H1 O10 1_555 1_555
H2 O10 1_555 1_555
N1 C11 1_555 1_555
N2 C17 1_555 1_555
C1 O2 1_555 1_555
C2 C1 1_555 1_555
C3 S1 1_555 1_555
C4 C3 1_555 1_555
H3 C4 1_555 1_555
C5 C4 1_555 1_555
H4 C5 1_555 1_555
C6 C5 1_555 1_555
H5 C6 1_555 1_555
C7 C2 1_555 1_555
H6 C7 1_555 1_555
C8 O6 1_555 1_555
C9 C8 1_555 1_555
C10 C9 1_555 1_555
H7 C10 1_555 1_555
C11 C10 1_555 1_555
H8 C11 1_555 1_555
C12 N1 1_555 1_555
H9 C12 1_555 1_555
C13 C9 1_555 1_555
H10 C13 1_555 1_555
C14 O8 1_555 1_555
C15 C14 1_555 1_555
C16 C15 1_555 1_555
H11 C16 1_555 1_555
C17 C16 1_555 1_555
H12 C17 1_555 1_555
C18 N2 1_555 1_555
H13 C18 1_555 1_555
C19 C15 1_555 1_555
H14 C19 1_555 1_555
Ho1B O1 1_555 1_555
Ho1B_2 O9 1_555 1_555
Ag1C N1 1_555 1_555
Ag1C_2 N2 1_555 1_555
O1B Ho1 1_555 1_555
O3B Ho1 1_555 1_555
O7B Ho1 1_555 1_555
O9B Ho1 1_555 1_555
N1C Ag1 1_555 1_555
N2C Ag1 1_555 1_555
O7 Ho1B 1_555 1_555
C2 C3 1_555 1_555
C6 C7 1_555 1_555
C12 C13 1_555 1_555
C18 C19 1_555 1_555
Ho1B O1B 1_555 1_555

#END
