
#######################################################################
#
#                 Cambridge Crystallographic Data Centre
#                                CCDC 
#
#######################################################################
#
# If this CIF has been generated from an entry in the Cambridge 
# Structural Database, then it will include bibliographic, chemical, 
# crystal, experimental, refinement or atomic coordinate data resulting 
# from the CCDC's data processing and validation procedures.
#
#######################################################################

data_FAZMAW
_symmetry_cell_setting           monoclinic
_symmetry_space_group_name_H-M   'P 21/n'
_symmetry_Int_Tables_number      14
_space_group_name_Hall           '-P 2yn'
loop_
_symmetry_equiv_pos_site_id
_symmetry_equiv_pos_as_xyz
1 x,y,z
2 1/2-x,1/2+y,1/2-z
3 -x,-y,-z
4 1/2+x,1/2-y,1/2+z
_cell_length_a                   9.5893(6)
_cell_length_b                   13.5647(7)
_cell_length_c                   17.1549(14)
_cell_angle_alpha                90
_cell_angle_beta                 101.129(5)
_cell_angle_gamma                90
_cell_volume                     2189.48
loop_
_atom_site_label
_atom_site_type_symbol
_atom_site_fract_x
_atom_site_fract_y
_atom_site_fract_z
La1 La 0.716172(15) 0.963549(11) 0.501533(9)
Cu1 Cu 0.71253(5) 0.63571(3) 0.48222(2)
S1 S 0.17889(8) 0.78246(6) 0.42044(6)
O1 O 0.4529(2) 0.89831(14) 0.50141(13)
O2 O 0.6152(2) 0.78225(16) 0.52225(14)
O3 O 0.1609(2) 0.88890(17) 0.42462(15)
O4 O 0.2833(3) 0.7530(2) 0.37490(18)
O5 O 0.0412(3) 0.7349(2) 0.3957(2)
O6 O 0.6499(2) 0.96296(16) 0.63787(14)
O7 O 0.4417(2) 1.04136(18) 0.63550(14)
O8 O 0.9303(2) 0.89389(16) 0.58217(13)
O9 O 1.1494(3) 0.94899(19) 0.58473(15)
O10 O 0.7991(3) 0.8361(2) 0.40801(17)
H1 H 0.8882 0.8395 0.4099
H2 H 0.7556 0.8435 0.3603
N1 N 0.7061(3) 1.0991(2) 0.91109(16)
N2 N 1.1605(3) 0.8796(2) 0.87002(15)
C1 C 0.4913(3) 0.8117(2) 0.52236(18)
C2 C 0.3882(4) 0.7477(2) 0.5554(2)
C3 C 0.2459(4) 0.7371(2) 0.5189(3)
C4 C 0.1541(5) 0.6839(3) 0.5564(3)
H3 H 0.0591 0.6765 0.5323
C5 C 0.2048(6) 0.6421(3) 0.6298(4)
H4 H 0.1428 0.6074 0.6552
C6 C 0.3468(6) 0.6510(4) 0.6664(4)
H5 H 0.3799 0.6221 0.7157
C7 C 0.4385(5) 0.7035(3) 0.6283(3)
H6 H 0.5341 0.7091 0.6518
C8 C 0.5640(3) 1.0125(2) 0.66815(17)
C9 C 0.6122(3) 1.0419(2) 0.75374(18)
C10 C 0.6169(4) 1.1404(2) 0.77564(19)
H7 H 0.5873 1.1888 0.7377
C11 C 0.6657(4) 1.1663(2) 0.85406(19)
H8 H 0.6707 1.2328 0.8677
C12 C 0.6969(4) 1.0039(3) 0.8897(2)
H9 H 0.7213 0.9564 0.9291
C13 C 0.6530(4) 0.9728(2) 0.8125(2)
H10 H 0.6510 0.9060 0.8002
C14 C 1.0542(3) 0.9170(2) 0.61676(17)
C15 C 1.0900(3) 0.9034(2) 0.70583(17)
C16 C 0.9852(3) 0.8965(3) 0.75050(19)
H11 H 0.8898 0.8996 0.7262
C17 C 1.0240(4) 0.8848(3) 0.8321(2)
H12 H 0.9528 0.8803 0.8618
C18 C 1.2617(3) 0.8870(3) 0.8261(2)
H13 H 1.3564 0.8839 0.8516
C19 C 1.2316(3) 0.8991(2) 0.74479(19)
H14 H 1.3046 0.9042 0.7164
La1B La 0.283828(15) 1.036451(11) 0.498467(9)
La1B_2 La 1.283828(15) 1.036451(11) 0.498467(9)
Cu1A Cu 0.78747(5) 1.13571(3) 1.01778(2)
Cu1C Cu 1.21253(5) 0.86429(3) 0.98222(2)
O1B O 0.5471(2) 1.10169(14) 0.49859(13)
O3B O 0.8391(2) 1.11110(17) 0.57538(15)
O7B O 0.5583(2) 0.95864(18) 0.36450(14)
O9B O 0.8506(3) 1.05101(19) 0.41527(15)
N1A N 0.7939(3) 0.5991(2) 0.58891(16)
N2C N 0.6605(3) 0.6204(2) 0.37002(15)
loop_
_geom_bond_atom_site_label_1
_geom_bond_atom_site_label_2
_geom_bond_site_symmetry_1
_geom_bond_site_symmetry_2
La1 O1 1_555 1_555
Cu1 O2 1_555 1_555
S1 O3 1_555 1_555
O1 C1 1_555 1_555
O2 La1 1_555 1_555
O3 La1B 1_555 1_555
O4 S1 1_555 1_555
O5 S1 1_555 1_555
O6 La1 1_555 1_555
O7 C8 1_555 1_555
O8 La1 1_555 1_555
O9 C14 1_555 1_555
O10 La1 1_555 1_555
H1 O10 1_555 1_555
H2 O10 1_555 1_555
N1 C11 1_555 1_555
N2 C17 1_555 1_555
C1 O2 1_555 1_555
C2 C1 1_555 1_555
C3 S1 1_555 1_555
C4 C3 1_555 1_555
H3 C4 1_555 1_555
C5 C4 1_555 1_555
H4 C5 1_555 1_555
C6 C5 1_555 1_555
H5 C6 1_555 1_555
C7 C2 1_555 1_555
H6 C7 1_555 1_555
C8 O6 1_555 1_555
C9 C8 1_555 1_555
C10 C9 1_555 1_555
H7 C10 1_555 1_555
C11 C10 1_555 1_555
H8 C11 1_555 1_555
C12 N1 1_555 1_555
H9 C12 1_555 1_555
C13 C9 1_555 1_555
H10 C13 1_555 1_555
C14 O8 1_555 1_555
C15 C14 1_555 1_555
C16 C15 1_555 1_555
H11 C16 1_555 1_555
C17 C16 1_555 1_555
H12 C17 1_555 1_555
C18 N2 1_555 1_555
H13 C18 1_555 1_555
C19 C15 1_555 1_555
H14 C19 1_555 1_555
La1B O1 1_555 1_555
La1B_2 O9 1_555 1_555
Cu1A N1 1_555 1_555
Cu1C N2 1_555 1_555
O1B La1 1_555 1_555
O3B La1 1_555 1_555
O7B La1 1_555 1_555
O9B La1 1_555 1_555
N1A Cu1 1_555 1_555
N2C Cu1 1_555 1_555
O7 La1B 1_555 1_555
C2 C3 1_555 1_555
C6 C7 1_555 1_555
C12 C13 1_555 1_555
C18 C19 1_555 1_555
La1B O1B 1_555 1_555

#END
