
#######################################################################
#
#                 Cambridge Crystallographic Data Centre
#                                CCDC 
#
#######################################################################
#
# If this CIF has been generated from an entry in the Cambridge 
# Structural Database, then it will include bibliographic, chemical, 
# crystal, experimental, refinement or atomic coordinate data resulting 
# from the CCDC's data processing and validation procedures.
#
#######################################################################

data_FAZMUQ
_symmetry_cell_setting           monoclinic
_symmetry_space_group_name_H-M   'P 21/n'
_symmetry_Int_Tables_number      14
_space_group_name_Hall           '-P 2yn'
loop_
_symmetry_equiv_pos_site_id
_symmetry_equiv_pos_as_xyz
1 x,y,z
2 1/2-x,1/2+y,1/2-z
3 -x,-y,-z
4 1/2+x,1/2-y,1/2+z
_cell_length_a                   9.4413(2)
_cell_length_b                   13.4801(3)
_cell_length_c                   17.0139(4)
_cell_angle_alpha                90
_cell_angle_beta                 101.221(2)
_cell_angle_gamma                90
_cell_volume                     2123.96
loop_
_atom_site_label
_atom_site_type_symbol
_atom_site_fract_x
_atom_site_fract_y
_atom_site_fract_z
Eu1 Eu 0.71415(2) 0.965460(18) 0.502437(14)
Cu1 Cu 0.71591(9) 0.64078(6) 0.48114(4)
S1 S 0.18210(15) 0.78359(11) 0.42228(11)
O1 O 0.4532(4) 0.9026(3) 0.5048(2)
O2 O 0.6233(4) 0.7903(3) 0.5273(3)
O3 O 0.1625(4) 0.8900(3) 0.4267(3)
O4 O 0.2886(5) 0.7538(4) 0.3770(3)
O5 O 0.0427(5) 0.7364(4) 0.3970(4)
O6 O 0.5605(4) 0.9550(3) 0.3686(2)
O7 O 0.3469(4) 1.0314(3) 0.3645(2)
O8 O 0.9274(4) 0.9020(3) 0.5788(2)
O9 O 1.1514(5) 0.9536(3) 0.5818(3)
O10 O 0.7973(5) 0.8379(3) 0.4146(3)
H1 H 0.8880 0.8417 0.4172
H2 H 0.7546 0.8452 0.3662
N1 N 0.2985(5) 0.8967(4) 0.0890(3)
N2 N 1.1609(5) 0.8778(3) 0.8684(3)
C1 C 0.4959(6) 0.8170(4) 0.5267(3)
C2 C 0.3936(7) 0.7494(4) 0.5586(4)
C3 C 0.2491(7) 0.7377(5) 0.5210(5)
C4 C 0.1570(9) 0.6819(5) 0.5582(6)
H3 H 0.0609 0.6732 0.5334
C5 C 0.2092(10) 0.6393(6) 0.6321(7)
H4 H 0.1465 0.6028 0.6567
C6 C 0.3523(10) 0.6493(6) 0.6708(6)
H5 H 0.3853 0.6195 0.7202
C7 C 0.4466(9) 0.7059(5) 0.6334(5)
H6 H 0.5428 0.7141 0.6581
C8 C 0.4363(6) 0.9829(4) 0.3351(3)
C9 C 0.3901(6) 0.9542(4) 0.2478(3)
C10 C 0.3893(6) 0.8548(4) 0.2260(3)
H7 H 0.4200 0.8063 0.2644
C11 C 0.3424(7) 0.8287(4) 0.1468(3)
H8 H 0.3411 0.7619 0.1327
C12 C 0.3057(7) 0.9932(5) 0.1112(4)
H9 H 0.2801 1.0411 0.0716
C13 C 0.3486(7) 1.0238(4) 0.1884(4)
H10 H 0.3497 1.0910 0.2010
C14 C 1.0533(5) 0.9226(4) 0.6133(3)
C15 C 1.0889(5) 0.9063(4) 0.7030(3)
C16 C 0.9826(6) 0.9019(4) 0.7480(3)
H11 H 0.8858 0.9079 0.7238
C17 C 1.0227(6) 0.8884(4) 0.8303(3)
H12 H 0.9506 0.8865 0.8605
C18 C 1.2640(6) 0.8824(5) 0.8233(4)
H13 H 1.3602 0.8759 0.8485
C19 C 1.2318(6) 0.8964(4) 0.7415(3)
H14 H 1.3054 0.8991 0.7123
Eu1B Eu 0.28585(2) 1.034540(18) 0.497563(14)
Eu1B_2 Eu 1.28585(2) 1.034540(18) 0.497563(14)
Cu1C Cu 0.21591(9) 0.85922(6) -0.01886(4)
Cu1C_2 Cu 1.21591(9) 0.85922(6) 0.98114(4)
O1B O 0.5468(4) 1.0974(3) 0.4952(2)
O3B O 0.8375(4) 1.1100(3) 0.5733(3)
O7B O 0.6531(4) 0.9686(3) 0.6355(2)
O9B O 0.8486(5) 1.0464(3) 0.4182(3)
N1C N 0.7985(5) 0.6033(4) 0.5890(3)
N2C N 0.6609(5) 0.6222(3) 0.3684(3)
loop_
_geom_bond_atom_site_label_1
_geom_bond_atom_site_label_2
_geom_bond_site_symmetry_1
_geom_bond_site_symmetry_2
Eu1 O1 1_555 1_555
Cu1 O2 1_555 1_555
S1 O3 1_555 1_555
O1 C1 1_555 1_555
O2 Eu1 1_555 1_555
O3 Eu1B 1_555 1_555
O4 S1 1_555 1_555
O5 S1 1_555 1_555
O6 Eu1 1_555 1_555
O7 C8 1_555 1_555
O8 Eu1 1_555 1_555
O9 C14 1_555 1_555
O10 Eu1 1_555 1_555
H1 O10 1_555 1_555
H2 O10 1_555 1_555
N1 C11 1_555 1_555
N2 C17 1_555 1_555
C1 O2 1_555 1_555
C2 C1 1_555 1_555
C3 S1 1_555 1_555
C4 C3 1_555 1_555
H3 C4 1_555 1_555
C5 C4 1_555 1_555
H4 C5 1_555 1_555
C6 C5 1_555 1_555
H5 C6 1_555 1_555
C7 C2 1_555 1_555
H6 C7 1_555 1_555
C8 O6 1_555 1_555
C9 C8 1_555 1_555
C10 C9 1_555 1_555
H7 C10 1_555 1_555
C11 C10 1_555 1_555
H8 C11 1_555 1_555
C12 N1 1_555 1_555
H9 C12 1_555 1_555
C13 C9 1_555 1_555
H10 C13 1_555 1_555
C14 O8 1_555 1_555
C15 C14 1_555 1_555
C16 C15 1_555 1_555
H11 C16 1_555 1_555
C17 C16 1_555 1_555
H12 C17 1_555 1_555
C18 N2 1_555 1_555
H13 C18 1_555 1_555
C19 C15 1_555 1_555
H14 C19 1_555 1_555
Eu1B O1 1_555 1_555
Eu1B_2 O9 1_555 1_555
Cu1C N1 1_555 1_555
Cu1C_2 N2 1_555 1_555
O1B Eu1 1_555 1_555
O3B Eu1 1_555 1_555
O7B Eu1 1_555 1_555
O9B Eu1 1_555 1_555
N1C Cu1 1_555 1_555
N2C Cu1 1_555 1_555
O7 Eu1B 1_555 1_555
C2 C3 1_555 1_555
C6 C7 1_555 1_555
C12 C13 1_555 1_555
C18 C19 1_555 1_555
Eu1B O1B 1_555 1_555

#END
