
#######################################################################
#
#                 Cambridge Crystallographic Data Centre
#                                CCDC 
#
#######################################################################
#
# If this CIF has been generated from an entry in the Cambridge 
# Structural Database, then it will include bibliographic, chemical, 
# crystal, experimental, refinement or atomic coordinate data resulting 
# from the CCDC's data processing and validation procedures.
#
#######################################################################

data_FAZMEA
_symmetry_cell_setting           monoclinic
_symmetry_space_group_name_H-M   'P 21/n'
_symmetry_Int_Tables_number      14
_space_group_name_Hall           '-P 2yn'
loop_
_symmetry_equiv_pos_site_id
_symmetry_equiv_pos_as_xyz
1 x,y,z
2 1/2-x,1/2+y,1/2-z
3 -x,-y,-z
4 1/2+x,1/2-y,1/2+z
_cell_length_a                   9.5360(5)
_cell_length_b                   13.5065(7)
_cell_length_c                   17.0794(9)
_cell_angle_alpha                90
_cell_angle_beta                 101.418(5)
_cell_angle_gamma                90
_cell_volume                     2156.26
loop_
_atom_site_label
_atom_site_type_symbol
_atom_site_fract_x
_atom_site_fract_y
_atom_site_fract_z
Pr1 Pr 1.215113(19) 1.035762(13) 0.001889(11)
Cu1 Cu 1.21375(6) 1.36244(4) -0.01837(3)
S1 S 0.67992(10) 1.21689(7) -0.07897(7)
O1 O 0.9533(2) 1.09982(16) 0.00276(15)
O2 O 1.1183(3) 1.21476(18) 0.02387(17)
O3 O 0.6619(3) 1.11005(19) -0.07467(17)
O4 O 0.7847(3) 1.2467(2) -0.1245(2)
O5 O 0.5412(3) 1.2643(2) -0.1039(2)
O6 O 1.0590(3) 1.0425(2) -0.13383(16)
O7 O 0.8489(3) 0.96492(18) -0.13692(15)
O8 O 1.4292(3) 1.10311(18) 0.08057(15)
O9 O 1.6502(3) 1.0489(2) 0.08301(17)
O10 O 1.2981(3) 1.1634(2) -0.08959(19)
H1 H 1.2549 1.1561 -0.1378
H2 H 1.3879 1.1599 -0.0872
N1 N 0.7958(3) 1.1006(2) -0.41121(18)
N2 N 1.6605(4) 1.1212(2) 0.36933(18)
C1 C 0.9928(4) 1.1864(2) 0.0241(2)
C2 C 0.8899(4) 1.2514(3) 0.0565(3)
C3 C 0.7460(5) 1.2624(3) 0.0194(3)
C4 C 0.6546(6) 1.3169(3) 0.0568(4)
H3 H 0.5593 1.3252 0.0321
C5 C 0.7058(7) 1.3590(4) 0.1311(4)
H4 H 0.6438 1.3940 0.1566
C6 C 0.8488(7) 1.3494(4) 0.1677(4)
H5 H 0.8828 1.3787 0.2170
C7 C 0.9410(6) 1.2956(3) 0.1301(3)
H6 H 1.0369 1.2893 0.1542
C8 C 0.9357(4) 1.0141(3) -0.1672(2)
C9 C 0.8887(4) 1.0431(3) -0.2530(2)
C10 C 0.8845(4) 1.1417(3) -0.2751(2)
H7 H 0.9138 1.1904 -0.2369
C11 C 0.8368(4) 1.1673(3) -0.3535(2)
H8 H 0.8329 1.2341 -0.3671
C12 C 0.8045(5) 1.0049(3) -0.3894(2)
H9 H 0.7796 0.9572 -0.4290
C13 C 0.8479(5) 0.9738(3) -0.3121(2)
H10 H 0.8499 0.9067 -0.2998
C14 C 1.5532(4) 1.0811(2) 0.1149(2)
C15 C 1.5894(4) 1.0951(2) 0.2040(2)
C16 C 1.4843(4) 1.1006(3) 0.2492(2)
H11 H 1.3883 1.0956 0.2249
C17 C 1.5236(4) 1.1136(3) 0.3307(2)
H12 H 1.4519 1.1174 0.3604
C18 C 1.7625(4) 1.1148(3) 0.3245(2)
H13 H 1.8579 1.1194 0.3501
C19 C 1.7316(4) 1.1018(3) 0.2433(2)
H14 H 1.8050 1.0976 0.2148
Pr1B Pr 0.784887(19) 0.964238(13) -0.001889(11)
Pr1B_2 Pr 1.784887(19) 0.964238(13) -0.001889(11)
Cu1C Cu 0.71375(6) 1.13756(4) -0.51837(3)
Cu1C_2 Cu 1.71375(6) 1.13756(4) 0.48163(3)
O1B O 1.0467(2) 0.90018(16) -0.00276(15)
O3B O 1.3381(3) 0.88995(19) 0.07467(17)
O7B O 1.1511(3) 1.03508(18) 0.13692(15)
O9B O 1.3498(3) 0.9511(2) -0.08301(17)
N1C N 1.2958(3) 1.3994(2) 0.08879(18)
N2C N 1.1605(4) 1.3788(2) -0.13067(18)
loop_
_geom_bond_atom_site_label_1
_geom_bond_atom_site_label_2
_geom_bond_site_symmetry_1
_geom_bond_site_symmetry_2
Pr1 O1 1_555 1_555
Cu1 O2 1_555 1_555
S1 O3 1_555 1_555
O1 C1 1_555 1_555
O2 Pr1 1_555 1_555
O3 Pr1B 1_555 1_555
O4 S1 1_555 1_555
O5 S1 1_555 1_555
O6 Pr1 1_555 1_555
O7 C8 1_555 1_555
O8 Pr1 1_555 1_555
O9 C14 1_555 1_555
O10 Pr1 1_555 1_555
H1 O10 1_555 1_555
H2 O10 1_555 1_555
N1 C11 1_555 1_555
N2 C17 1_555 1_555
C1 O2 1_555 1_555
C2 C1 1_555 1_555
C3 S1 1_555 1_555
C4 C3 1_555 1_555
H3 C4 1_555 1_555
C5 C4 1_555 1_555
H4 C5 1_555 1_555
C6 C5 1_555 1_555
H5 C6 1_555 1_555
C7 C2 1_555 1_555
H6 C7 1_555 1_555
C8 O6 1_555 1_555
C9 C8 1_555 1_555
C10 C9 1_555 1_555
H7 C10 1_555 1_555
C11 C10 1_555 1_555
H8 C11 1_555 1_555
C12 N1 1_555 1_555
H9 C12 1_555 1_555
C13 C9 1_555 1_555
H10 C13 1_555 1_555
C14 O8 1_555 1_555
C15 C14 1_555 1_555
C16 C15 1_555 1_555
H11 C16 1_555 1_555
C17 C16 1_555 1_555
H12 C17 1_555 1_555
C18 N2 1_555 1_555
H13 C18 1_555 1_555
C19 C15 1_555 1_555
H14 C19 1_555 1_555
Pr1B O1 1_555 1_555
Pr1B_2 O9 1_555 1_555
Cu1C N1 1_555 1_555
Cu1C_2 N2 1_555 1_555
O1B Pr1 1_555 1_555
O3B Pr1 1_555 1_555
O7B Pr1 1_555 1_555
O9B Pr1 1_555 1_555
N1C Cu1 1_555 1_555
N2C Cu1 1_555 1_555
O7 Pr1B 1_555 1_555
C2 C3 1_555 1_555
C6 C7 1_555 1_555
C12 C13 1_555 1_555
C18 C19 1_555 1_555
Pr1B O1B 1_555 1_555

#END
