
#######################################################################
#
#                 Cambridge Crystallographic Data Centre
#                                CCDC 
#
#######################################################################
#
# If this CIF has been generated from an entry in the Cambridge 
# Structural Database, then it will include bibliographic, chemical, 
# crystal, experimental, refinement or atomic coordinate data resulting 
# from the CCDC's data processing and validation procedures.
#
#######################################################################

data_FAZMIE
_symmetry_cell_setting           monoclinic
_symmetry_space_group_name_H-M   'P 21/n'
_symmetry_Int_Tables_number      14
_space_group_name_Hall           '-P 2yn'
loop_
_symmetry_equiv_pos_site_id
_symmetry_equiv_pos_as_xyz
1 x,y,z
2 1/2-x,1/2+y,1/2-z
3 -x,-y,-z
4 1/2+x,1/2-y,1/2+z
_cell_length_a                   9.4978(3)
_cell_length_b                   13.4972(3)
_cell_length_c                   17.0539(4)
_cell_angle_alpha                90
_cell_angle_beta                 101.239(2)
_cell_angle_gamma                90
_cell_volume                     2144.28
loop_
_atom_site_label
_atom_site_type_symbol
_atom_site_fract_x
_atom_site_fract_y
_atom_site_fract_z
Nd1 Nd 0.28531(2) 1.035515(17) 0.497980(14)
Cu1 Cu 0.28591(8) 1.36178(6) 0.51854(4)
S1 S 0.81986(14) 1.21649(10) 0.57875(10)
O1 O 0.5464(3) 1.0992(2) 0.4970(2)
O2 O 0.3803(4) 1.2137(2) 0.4753(2)
O3 O 0.8377(4) 1.1097(3) 0.5742(2)
O4 O 0.7148(4) 1.2464(3) 0.6245(3)
O5 O 0.9585(5) 1.2637(3) 0.6036(3)
O6 O 0.4406(4) 1.0432(3) 0.6332(2)
O7 O 0.6512(4) 0.9654(3) 0.6369(2)
O8 O 0.0712(4) 1.1020(3) 0.4203(2)
O9 O -0.1505(4) 1.0483(3) 0.4172(2)
O10 O 0.2036(4) 1.1626(3) 0.5885(3)
H1 H 0.2471 1.1552 0.6366
H2 H 0.1136 1.1589 0.5865
N1 N 0.7035(5) 1.1013(3) 0.9113(2)
N2 N -0.1605(5) 1.1215(3) 0.1314(3)
C1 C 0.5060(5) 1.1856(3) 0.4754(3)
C2 C 0.6085(6) 1.2509(4) 0.4425(4)
C3 C 0.7519(6) 1.2623(4) 0.4794(4)
C4 C 0.8438(8) 1.3169(4) 0.4418(5)
H3 H 0.9398 1.3244 0.4660
C5 C 0.7922(9) 1.3596(5) 0.3688(6)
H4 H 0.8543 1.3957 0.3437
C6 C 0.6504(9) 1.3501(5) 0.3317(5)
H5 H 0.6167 1.3800 0.2825
C7 C 0.5585(8) 1.2953(5) 0.3689(5)
H6 H 0.4627 1.2883 0.3444
C8 C 0.5645(5) 1.0147(4) 0.6669(3)
C9 C 0.6104(5) 1.0439(3) 0.7527(3)
C10 C 0.6136(6) 1.1422(4) 0.7753(3)
H7 H 0.5823 1.1909 0.7373
C11 C 0.6627(6) 1.1684(4) 0.8537(3)
H8 H 0.6677 1.2352 0.8671
C12 C 0.6964(7) 1.0054(4) 0.8896(3)
H9 H 0.7222 0.9577 0.9292
C13 C 0.6529(6) 0.9743(4) 0.8120(3)
H10 H 0.6521 0.9072 0.7995
C14 C -0.0536(5) 1.0801(3) 0.3853(3)
C15 C -0.0897(5) 1.0945(3) 0.2963(3)
C16 C 0.0159(6) 1.1002(4) 0.2511(3)
H11 H 0.1122 1.0956 0.2755
C17 C -0.0229(6) 1.1128(4) 0.1693(3)
H12 H 0.0489 1.1154 0.1393
C18 C -0.2620(6) 1.1153(4) 0.1757(3)
H13 H -0.3577 1.1198 0.1502
C19 C -0.2308(5) 1.1025(4) 0.2571(3)
H14 H -0.3045 1.0993 0.2858
Nd1B Nd 0.71469(2) 0.964485(17) 0.502020(14)
Nd1B_2 Nd -0.28531(2) 0.964485(17) 0.502020(14)
Cu1C Cu 0.78591(8) 1.13822(6) 1.01854(4)
Cu1C_2 Cu -0.21409(8) 1.13822(6) 0.01854(4)
O1B O 0.4536(3) 0.9008(2) 0.5030(2)
O3B O 0.1623(4) 0.8903(3) 0.4258(2)
O7B O 0.3488(4) 1.0346(3) 0.3631(2)
O9B O 0.1505(4) 0.9517(3) 0.5828(2)
N1C N 0.2035(5) 1.3987(3) 0.4113(2)
N2C N 0.3395(5) 1.3785(3) 0.6314(3)
loop_
_geom_bond_atom_site_label_1
_geom_bond_atom_site_label_2
_geom_bond_site_symmetry_1
_geom_bond_site_symmetry_2
Nd1 O1 1_555 1_555
Cu1 O2 1_555 1_555
S1 O3 1_555 1_555
O1 C1 1_555 1_555
O2 Nd1 1_555 1_555
O3 Nd1B 1_555 1_555
O4 S1 1_555 1_555
O5 S1 1_555 1_555
O6 Nd1 1_555 1_555
O7 C8 1_555 1_555
O8 Nd1 1_555 1_555
O9 C14 1_555 1_555
O10 Nd1 1_555 1_555
H1 O10 1_555 1_555
H2 O10 1_555 1_555
N1 C11 1_555 1_555
N2 C17 1_555 1_555
C1 O2 1_555 1_555
C2 C1 1_555 1_555
C3 S1 1_555 1_555
C4 C3 1_555 1_555
H3 C4 1_555 1_555
C5 C4 1_555 1_555
H4 C5 1_555 1_555
C6 C5 1_555 1_555
H5 C6 1_555 1_555
C7 C2 1_555 1_555
H6 C7 1_555 1_555
C8 O6 1_555 1_555
C9 C8 1_555 1_555
C10 C9 1_555 1_555
H7 C10 1_555 1_555
C11 C10 1_555 1_555
H8 C11 1_555 1_555
C12 N1 1_555 1_555
H9 C12 1_555 1_555
C13 C9 1_555 1_555
H10 C13 1_555 1_555
C14 O8 1_555 1_555
C15 C14 1_555 1_555
C16 C15 1_555 1_555
H11 C16 1_555 1_555
C17 C16 1_555 1_555
H12 C17 1_555 1_555
C18 N2 1_555 1_555
H13 C18 1_555 1_555
C19 C15 1_555 1_555
H14 C19 1_555 1_555
Nd1B O1 1_555 1_555
Nd1B_2 O9 1_555 1_555
Cu1C N1 1_555 1_555
Cu1C_2 N2 1_555 1_555
O1B Nd1 1_555 1_555
O3B Nd1 1_555 1_555
O7B Nd1 1_555 1_555
O9B Nd1 1_555 1_555
N1C Cu1 1_555 1_555
N2C Cu1 1_555 1_555
O7 Nd1B 1_555 1_555
C2 C3 1_555 1_555
C6 C7 1_555 1_555
C12 C13 1_555 1_555
C18 C19 1_555 1_555
Nd1B O1B 1_555 1_555

#END
