
#######################################################################
#
#                 Cambridge Crystallographic Data Centre
#                                CCDC 
#
#######################################################################
#
# If this CIF has been generated from an entry in the Cambridge 
# Structural Database, then it will include bibliographic, chemical, 
# crystal, experimental, refinement or atomic coordinate data resulting 
# from the CCDC's data processing and validation procedures.
#
#######################################################################

data_FAZNAX
_symmetry_cell_setting           monoclinic
_symmetry_space_group_name_H-M   'P 21/n'
_symmetry_Int_Tables_number      14
_space_group_name_Hall           '-P 2yn'
loop_
_symmetry_equiv_pos_site_id
_symmetry_equiv_pos_as_xyz
1 x,y,z
2 1/2-x,1/2+y,1/2-z
3 -x,-y,-z
4 1/2+x,1/2-y,1/2+z
_cell_length_a                   9.4107(2)
_cell_length_b                   13.4745(3)
_cell_length_c                   16.9720(4)
_cell_angle_alpha                90
_cell_angle_beta                 101.176(2)
_cell_angle_gamma                90
_cell_volume                     2111.31
loop_
_atom_site_label
_atom_site_type_symbol
_atom_site_fract_x
_atom_site_fract_y
_atom_site_fract_z
Gd1 Gd 0.71415(2) 0.965664(15) 0.502544(13)
Cu1 Cu 0.71607(7) 0.64144(5) 0.48115(4)
S1 S 0.18241(13) 0.78356(9) 0.42272(9)
O1 O 0.4529(3) 0.9034(2) 0.5053(2)
O2 O 0.6243(3) 0.7917(2) 0.5280(2)
O3 O 0.1633(4) 0.8905(2) 0.4268(2)
O4 O 0.2891(4) 0.7545(3) 0.3769(3)
O5 O 0.0426(4) 0.7364(3) 0.3975(3)
O6 O 0.5611(4) 0.9541(3) 0.3693(2)
O7 O 0.3467(3) 1.0309(2) 0.3648(2)
O8 O 0.9270(3) 0.9029(2) 0.57806(19)
O9 O 1.1522(4) 0.9537(3) 0.5814(2)
O10 O 0.7972(4) 0.8380(3) 0.4156(2)
H1 H 0.8882 0.8418 0.4184
H2 H 0.7549 0.8453 0.3670
N1 N 0.2998(4) 0.8964(3) 0.0889(2)
N2 N 1.1612(4) 0.8770(3) 0.8682(2)
C1 C 0.4961(5) 0.8169(3) 0.5277(3)
C2 C 0.3942(6) 0.7504(3) 0.5597(4)
C3 C 0.2489(6) 0.7373(4) 0.5218(4)
C4 C 0.1575(7) 0.6808(4) 0.5582(5)
H3 H 0.0616 0.6715 0.5329
C5 C 0.2090(8) 0.6381(5) 0.6327(5)
H4 H 0.1465 0.6014 0.6576
C6 C 0.3533(9) 0.6495(5) 0.6706(5)
H5 H 0.3872 0.6193 0.7200
C7 C 0.4464(7) 0.7060(4) 0.6345(4)
H6 H 0.5426 0.7144 0.6597
C8 C 0.4369(5) 0.9819(3) 0.3350(3)
C9 C 0.3915(5) 0.9532(3) 0.2484(3)
C10 C 0.3903(5) 0.8546(4) 0.2260(3)
H7 H 0.4217 0.8059 0.2643
C11 C 0.3425(6) 0.8285(4) 0.1469(3)
H8 H 0.3397 0.7617 0.1331
C12 C 0.3063(6) 0.9926(4) 0.1116(3)
H9 H 0.2806 1.0407 0.0721
C13 C 0.3487(6) 1.0230(4) 0.1891(3)
H10 H 0.3486 1.0900 0.2020
C14 C 1.0537(5) 0.9224(3) 0.6131(3)
C15 C 1.0893(5) 0.9061(3) 0.7025(3)
C16 C 0.9826(5) 0.9023(4) 0.7482(3)
H11 H 0.8855 0.9089 0.7240
C17 C 1.0223(5) 0.8886(4) 0.8300(3)
H12 H 0.9500 0.8873 0.8603
C18 C 1.2643(5) 0.8815(4) 0.8230(3)
H13 H 1.3607 0.8745 0.8482
C19 C 1.2333(5) 0.8960(4) 0.7417(3)
H14 H 1.3076 0.8991 0.7127
Gd1B Gd 0.28585(2) 1.034336(15) 0.497456(13)
Gd1B_2 Gd 1.28585(2) 1.034336(15) 0.497456(13)
Cu1C Cu 0.21607(7) 0.85856(5) -0.01885(4)
Cu1C_2 Cu 1.21607(7) 0.85856(5) 0.98115(4)
O1B O 0.5471(3) 1.0966(2) 0.4947(2)
O3B O 0.8367(4) 1.1095(2) 0.5732(2)
O7B O 0.6533(3) 0.9691(2) 0.6352(2)
O9B O 0.8478(4) 1.0463(3) 0.4186(2)
N1C N 0.7998(4) 0.6036(3) 0.5889(2)
N2C N 0.6612(4) 0.6230(3) 0.3682(2)
loop_
_geom_bond_atom_site_label_1
_geom_bond_atom_site_label_2
_geom_bond_site_symmetry_1
_geom_bond_site_symmetry_2
Gd1 O1 1_555 1_555
Cu1 O2 1_555 1_555
S1 O3 1_555 1_555
O1 C1 1_555 1_555
O2 Gd1 1_555 1_555
O3 Gd1B 1_555 1_555
O4 S1 1_555 1_555
O5 S1 1_555 1_555
O6 Gd1 1_555 1_555
O7 C8 1_555 1_555
O8 Gd1 1_555 1_555
O9 C14 1_555 1_555
O10 Gd1 1_555 1_555
H1 O10 1_555 1_555
H2 O10 1_555 1_555
N1 C11 1_555 1_555
N2 C17 1_555 1_555
C1 O2 1_555 1_555
C2 C1 1_555 1_555
C3 S1 1_555 1_555
C4 C3 1_555 1_555
H3 C4 1_555 1_555
C5 C4 1_555 1_555
H4 C5 1_555 1_555
C6 C5 1_555 1_555
H5 C6 1_555 1_555
C7 C2 1_555 1_555
H6 C7 1_555 1_555
C8 O6 1_555 1_555
C9 C8 1_555 1_555
C10 C9 1_555 1_555
H7 C10 1_555 1_555
C11 C10 1_555 1_555
H8 C11 1_555 1_555
C12 N1 1_555 1_555
H9 C12 1_555 1_555
C13 C9 1_555 1_555
H10 C13 1_555 1_555
C14 O8 1_555 1_555
C15 C14 1_555 1_555
C16 C15 1_555 1_555
H11 C16 1_555 1_555
C17 C16 1_555 1_555
H12 C17 1_555 1_555
C18 N2 1_555 1_555
H13 C18 1_555 1_555
C19 C15 1_555 1_555
H14 C19 1_555 1_555
Gd1B O1 1_555 1_555
Gd1B_2 O9 1_555 1_555
Cu1C N1 1_555 1_555
Cu1C_2 N2 1_555 1_555
O1B Gd1 1_555 1_555
O3B Gd1 1_555 1_555
O7B Gd1 1_555 1_555
O9B Gd1 1_555 1_555
N1C Cu1 1_555 1_555
N2C Cu1 1_555 1_555
O7 Gd1B 1_555 1_555
C2 C3 1_555 1_555
C6 C7 1_555 1_555
C12 C13 1_555 1_555
C18 C19 1_555 1_555
Gd1B O1B 1_555 1_555

#END
