
#######################################################################
#
#                 Cambridge Crystallographic Data Centre
#                                CCDC 
#
#######################################################################
#
# If this CIF has been generated from an entry in the Cambridge 
# Structural Database, then it will include bibliographic, chemical, 
# crystal, experimental, refinement or atomic coordinate data resulting 
# from the CCDC's data processing and validation procedures.
#
#######################################################################

data_FAZNEB
_symmetry_cell_setting           monoclinic
_symmetry_space_group_name_H-M   'P 21/n'
_symmetry_Int_Tables_number      14
_space_group_name_Hall           '-P 2yn'
loop_
_symmetry_equiv_pos_site_id
_symmetry_equiv_pos_as_xyz
1 x,y,z
2 1/2-x,1/2+y,1/2-z
3 -x,-y,-z
4 1/2+x,1/2-y,1/2+z
_cell_length_a                   9.4025(4)
_cell_length_b                   13.4705(6)
_cell_length_c                   16.9675(8)
_cell_angle_alpha                90
_cell_angle_beta                 101.231(4)
_cell_angle_gamma                90
_cell_volume                     2107.89
loop_
_atom_site_label
_atom_site_type_symbol
_atom_site_fract_x
_atom_site_fract_y
_atom_site_fract_z
Tb1 Tb 0.71406(4) 0.96614(3) 0.50267(3)
Cu1 Cu 0.71670(14) 0.64243(12) 0.48095(8)
S1 S 0.1835(3) 0.7836(2) 0.42337(19)
O1 O 0.4530(6) 0.9039(5) 0.5062(4)
O2 O 0.6257(7) 0.7929(5) 0.5291(4)
O3 O 0.1621(7) 0.8905(5) 0.4276(5)
O4 O 0.2903(8) 0.7540(7) 0.3774(5)
O5 O 0.0437(8) 0.7367(7) 0.3976(6)
O6 O 0.5626(6) 0.9525(6) 0.3705(4)
O7 O 0.3460(6) 1.0293(5) 0.3645(4)
O8 O 0.9270(6) 0.9041(5) 0.5783(4)
O9 O 1.1527(7) 0.9548(6) 0.5816(4)
O10 O 0.7978(7) 0.8390(6) 0.4170(5)
H1 H 0.8890 0.8429 0.4202
H2 H 0.7561 0.8464 0.3682
N1 N 0.2989(9) 0.8944(7) 0.0890(5)
N2 N 1.1610(9) 0.8764(6) 0.8678(5)
C1 C 0.4973(10) 0.8188(7) 0.5290(6)
C2 C 0.3963(10) 0.7507(8) 0.5614(6)
C3 C 0.2500(11) 0.7359(9) 0.5228(7)
C4 C 0.1606(14) 0.6805(9) 0.5620(10)
H3 H 0.0634 0.6720 0.5387
C5 C 0.2161(17) 0.6377(10) 0.6364(11)
H4 H 0.1557 0.5997 0.6616
C6 C 0.3566(15) 0.6505(10) 0.6725(9)
H5 H 0.3920 0.6228 0.7227
C7 C 0.4458(14) 0.7045(9) 0.6341(9)
H6 H 0.5433 0.7103 0.6578
C8 C 0.4365(10) 0.9803(8) 0.3354(6)
C9 C 0.3916(9) 0.9531(7) 0.2491(6)
C10 C 0.3920(10) 0.8532(8) 0.2254(6)
H7 H 0.4262 0.8044 0.2631
C11 C 0.3432(10) 0.8280(8) 0.1487(6)
H8 H 0.3394 0.7609 0.1355
C12 C 0.3066(12) 0.9916(9) 0.1116(7)
H9 H 0.2826 1.0395 0.0718
C13 C 0.3481(11) 1.0232(8) 0.1905(6)
H10 H 0.3465 1.0902 0.2035
C14 C 1.0534(10) 0.9238(7) 0.6130(6)
C15 C 1.0898(10) 0.9070(7) 0.7023(6)
C16 C 0.9844(10) 0.9035(8) 0.7491(6)
H11 H 0.8871 0.9103 0.7252
C17 C 1.0229(11) 0.8903(8) 0.8293(6)
H12 H 0.9503 0.8908 0.8595
C18 C 1.2627(11) 0.8811(8) 0.8221(6)
H13 H 1.3594 0.8738 0.8470
C19 C 1.2317(10) 0.8960(8) 0.7416(6)
H14 H 1.3063 0.8988 0.7128
Tb1B Tb 0.28594(4) 1.03386(3) 0.49733(3)
Tb1B_2 Tb 1.28594(4) 1.03386(3) 0.49733(3)
Cu1C Cu 0.21670(14) 0.85757(12) -0.01905(8)
Cu1C_2 Cu 1.21670(14) 0.85757(12) 0.98095(8)
O1B O 0.5470(6) 1.0961(5) 0.4938(4)
O3B O 0.8379(7) 1.1095(5) 0.5724(5)
O7B O 0.6540(6) 0.9707(5) 0.6355(4)
O9B O 0.8473(7) 1.0452(6) 0.4184(4)
N1C N 0.7989(9) 0.6056(7) 0.5890(5)
N2C N 0.6610(9) 0.6236(6) 0.3678(5)
loop_
_geom_bond_atom_site_label_1
_geom_bond_atom_site_label_2
_geom_bond_site_symmetry_1
_geom_bond_site_symmetry_2
Tb1 O1 1_555 1_555
Cu1 O2 1_555 1_555
S1 O3 1_555 1_555
O1 C1 1_555 1_555
O2 Tb1 1_555 1_555
O3 Tb1B 1_555 1_555
O4 S1 1_555 1_555
O5 S1 1_555 1_555
O6 Tb1 1_555 1_555
O7 C8 1_555 1_555
O8 Tb1 1_555 1_555
O9 C14 1_555 1_555
O10 Tb1 1_555 1_555
H1 O10 1_555 1_555
H2 O10 1_555 1_555
N1 C11 1_555 1_555
N2 C17 1_555 1_555
C1 O2 1_555 1_555
C2 C1 1_555 1_555
C3 S1 1_555 1_555
C4 C3 1_555 1_555
H3 C4 1_555 1_555
C5 C4 1_555 1_555
H4 C5 1_555 1_555
C6 C5 1_555 1_555
H5 C6 1_555 1_555
C7 C2 1_555 1_555
H6 C7 1_555 1_555
C8 O6 1_555 1_555
C9 C8 1_555 1_555
C10 C9 1_555 1_555
H7 C10 1_555 1_555
C11 C10 1_555 1_555
H8 C11 1_555 1_555
C12 N1 1_555 1_555
H9 C12 1_555 1_555
C13 C9 1_555 1_555
H10 C13 1_555 1_555
C14 O8 1_555 1_555
C15 C14 1_555 1_555
C16 C15 1_555 1_555
H11 C16 1_555 1_555
C17 C16 1_555 1_555
H12 C17 1_555 1_555
C18 N2 1_555 1_555
H13 C18 1_555 1_555
C19 C15 1_555 1_555
H14 C19 1_555 1_555
Tb1B O1 1_555 1_555
Tb1B_2 O9 1_555 1_555
Cu1C N1 1_555 1_555
Cu1C_2 N2 1_555 1_555
O1B Tb1 1_555 1_555
O3B Tb1 1_555 1_555
O7B Tb1 1_555 1_555
O9B Tb1 1_555 1_555
N1C Cu1 1_555 1_555
N2C Cu1 1_555 1_555
O7 Tb1B 1_555 1_555
C2 C3 1_555 1_555
C6 C7 1_555 1_555
C12 C13 1_555 1_555
C18 C19 1_555 1_555
Tb1B O1B 1_555 1_555

#END
