
#######################################################################
#
#                 Cambridge Crystallographic Data Centre
#                                CCDC 
#
#######################################################################
#
# If this CIF has been generated from an entry in the Cambridge 
# Structural Database, then it will include bibliographic, chemical, 
# crystal, experimental, refinement or atomic coordinate data resulting 
# from the CCDC's data processing and validation procedures.
#
#######################################################################

data_FAZQED
_symmetry_cell_setting           monoclinic
_symmetry_space_group_name_H-M   'C 2/c'
_symmetry_Int_Tables_number      15
_space_group_name_Hall           '-C 2yn'
loop_
_symmetry_equiv_pos_site_id
_symmetry_equiv_pos_as_xyz
1 x,y,z
2 1/2+x,1/2+y,z
3 -x,y,1/2-z
4 1/2-x,1/2+y,1/2-z
5 -x,-y,-z
6 1/2-x,1/2-y,-z
7 x,-y,1/2+z
8 1/2+x,1/2-y,1/2+z
_cell_length_a                   13.61(3)
_cell_length_b                   21.49(5)
_cell_length_c                   13.74(3)
_cell_angle_alpha                90
_cell_angle_beta                 98.62(4)
_cell_angle_gamma                90
_cell_volume                     3973.27
loop_
_atom_site_label
_atom_site_type_symbol
_atom_site_fract_x
_atom_site_fract_y
_atom_site_fract_z
Ag1 Ag -0.14017(10) -0.28285(8) 0.62682(11)
S1 S 0.0986(3) -0.2819(2) 0.6515(3)
S2 S 0.8347(3) -0.3024(2) 0.3947(3)
N1 N -0.0405(11) -0.1986(7) 0.6233(10)
N2 N 0.8051(9) -0.1839(6) 0.3723(10)
C1 C -0.0744(15) -0.1423(12) 0.6177(13)
H1 H -0.1428 -0.1381 0.6144
C2 C -0.0172(17) -0.0835(7) 0.6160(14)
H2 H -0.0461 -0.0442 0.6121
C3 C 0.0863(16) -0.0939(10) 0.6211(16)
H3 H 0.1294 -0.0608 0.6164
C4 C 0.1231(14) -0.1556(10) 0.6332(13)
H4 H 0.1910 -0.1632 0.6398
C5 C 0.0615(9) -0.2012(6) 0.6352(10)
C6 C 0.2271(11) -0.2782(10) 0.6267(11)
H5 H 0.2608 -0.2434 0.6623
H6 H 0.2618 -0.3160 0.6499
C7 C 0.2304(10) -0.2706(7) 0.5191(10)
H7 H 0.1987 -0.3010 0.4776
C8 C 0.9562(12) -0.3507(7) 0.2648(15)
H8 H 1.0984 -0.3468 0.2843
C9 C 0.9335(14) -0.3564(7) 0.3698(13)
H9 H 1.0869 -0.3988 0.1191
H10 H 1.0065 -0.3479 0.0845
C10 C 0.8765(8) -0.2257(5) 0.3830(9)
C11 C 1.0233(12) -0.2117(9) 0.1206(11)
H11 H 0.9756 -0.2429 0.1184
C12 C 0.9974(13) -0.1468(8) 0.1277(14)
H12 H 0.9318 -0.1345 0.1271
C13 C 1.0723(13) -0.1043(9) 0.1354(13)
H13 H 1.0583 -0.0621 0.1395
C14 C 1.1739(14) -0.1251(8) 0.1370(14)
H14 H 1.2250 -0.0960 0.1448
N3 N -0.0896(19) -0.3883(10) 0.623(2)
C15 C -0.0800(17) -0.4336(14) 0.632(2)
C16 C -0.066(2) -0.5101(16) 0.633(4)
H15 H -0.0888 -0.5273 0.6902
H16 H 0.0028 -0.5201 0.6342
H17 H -0.1042 -0.5274 0.5748
Ag1E Ag 0.64017(10) -0.21715(8) 0.37318(11)
Ag1G Ag 1.35983(10) -0.21715(8) 0.12682(11)
S1E S 0.4014(3) -0.2181(2) 0.3485(3)
S2B S 1.1653(3) -0.3024(2) 0.1053(3)
N1E N 0.5405(11) -0.3014(7) 0.3767(10)
N2E N -0.3051(9) -0.3161(6) 0.6277(10)
N2B N 1.1949(9) -0.1839(6) 0.1277(10)
C1E C 0.5744(15) -0.3577(12) 0.3823(13)
H1E H 0.6428 -0.3619 0.3856
C2E C 0.5172(17) -0.4165(7) 0.3840(14)
H2E H 0.5461 -0.4558 0.3879
C3E C 0.4137(16) -0.4061(10) 0.3789(16)
H3E H 0.3706 -0.4392 0.3836
C4E C 0.3769(14) -0.3444(10) 0.3668(13)
H4E H 0.3090 -0.3368 0.3602
C5E C 0.4385(9) -0.2988(6) 0.3648(10)
C6E C 0.2729(11) -0.2218(10) 0.3733(11)
H5E H 0.2392 -0.2566 0.3377
H6E H 0.2382 -0.1840 0.3501
C7E C 0.2696(10) -0.2294(7) 0.4809(10)
H7E H 0.3013 -0.1990 0.5224
C8B C 1.0438(12) -0.3507(7) 0.2352(15)
H8B H 0.9016 -0.3468 0.2157
C9B C 1.0665(14) -0.3564(7) 0.1302(13)
H9B H 0.9131 -0.3988 0.3809
H10B H 0.9935 -0.3479 0.4155
C10B C 1.1235(8) -0.2257(5) 0.1170(9)
C11B C 0.9767(12) -0.2117(9) 0.3794(11)
H11B H 1.0244 -0.2429 0.3816
C12B C 1.0026(13) -0.1468(8) 0.3723(14)
H12B H 1.0682 -0.1345 0.3729
C13B C 0.9277(13) -0.1043(9) 0.3646(13)
H13B H 0.9417 -0.0621 0.3605
C14B C 0.8261(14) -0.1251(8) 0.3630(14)
H14B H 0.7750 -0.0960 0.3552
N3E N 0.5896(19) -0.1117(10) 0.377(2)
C15E C 0.5800(17) -0.0664(14) 0.368(2)
C16E C 0.566(2) 0.0101(16) 0.367(4)
H15E H 0.5888 0.0273 0.3098
H16E H 0.4972 0.0201 0.3658
H17E H 0.6042 0.0274 0.4252
O1 O -0.8331(14) -0.9493(12) 0.884(3)
Cl1 Cl -0.7408(6) -0.9812(4) 0.8901(11)
O2 O -0.7389(16) -1.0360(8) 0.9488(17)
O3 O -0.6604(17) -0.9408(11) 0.927(2)
O4 O -0.726(2) -1.0002(17) 0.7918(14)
loop_
_geom_bond_atom_site_label_1
_geom_bond_atom_site_label_2
_geom_bond_site_symmetry_1
_geom_bond_site_symmetry_2
Ag1 N1 1_555 1_555
S1 C5 1_555 1_555
S2 C9 1_555 1_555
N1 C1 1_555 1_555
N2 C10 1_555 1_555
C1 H1 1_555 1_555
C2 C1 1_555 1_555
H2 C2 1_555 1_555
C3 C2 1_555 1_555
H3 C3 1_555 1_555
C4 C3 1_555 1_555
H4 C4 1_555 1_555
C5 N1 1_555 1_555
C6 S1 1_555 1_555
H5 C6 1_555 1_555
H6 C6 1_555 1_555
C7 C6 1_555 1_555
H7 C7 1_555 1_555
C8 C9 1_555 1_555
H8 C8B 1_555 1_555
C9 H9B 1_555 1_555
H9 C9B 1_555 1_555
H10 C9B 1_555 1_555
C10 S2 1_555 1_555
C11 H11 1_555 1_555
C12 C11 1_555 1_555
H12 C12 1_555 1_555
C13 C12 1_555 1_555
H13 C13 1_555 1_555
C14 C13 1_555 1_555
H14 C14 1_555 1_555
N3 Ag1 1_555 1_555
C15 N3 1_555 1_555
O1 Cl1 1_555 1_555
Cl1 O2 1_555 1_555
O3 Cl1 1_555 1_555
C16 C15 1_555 1_555
H15 C16 1_555 1_555
H16 C16 1_555 1_555
H17 C16 1_555 1_555
O4 Cl1 1_555 1_555
Ag1E N2 1_555 1_555
Ag1G N2B 1_555 1_555
S1E C5E 1_555 1_555
S2B C9B 1_555 1_555
N1E Ag1E 1_555 1_555
N2E Ag1 1_555 1_555
N2B C14 1_555 1_555
C1E N1E 1_555 1_555
H1E C1E 1_555 1_555
C2E C1E 1_555 1_555
H2E C2E 1_555 1_555
C3E C2E 1_555 1_555
H3E C3E 1_555 1_555
C4E C3E 1_555 1_555
H4E C4E 1_555 1_555
C5E N1E 1_555 1_555
C6E S1E 1_555 1_555
H5E C6E 1_555 1_555
H6E C6E 1_555 1_555
C7E C7 1_555 1_555
H7E C7E 1_555 1_555
C8B C8 1_555 1_555
H8B C8 1_555 1_555
C9B C8B 1_555 1_555
H10B C9 1_555 1_555
C10B C11 1_555 1_555
C11B C10 1_555 1_555
H11B C11B 1_555 1_555
C12B C11B 1_555 1_555
H12B C12B 1_555 1_555
C13B C12B 1_555 1_555
H13B C13B 1_555 1_555
C14B N2 1_555 1_555
H14B C14B 1_555 1_555
N3E Ag1E 1_555 1_555
C15E N3E 1_555 1_555
C16E C15E 1_555 1_555
H15E C16E 1_555 1_555
H16E C16E 1_555 1_555
H17E C16E 1_555 1_555
C4 C5 1_555 1_555
S2B C10B 1_555 1_555
N2B C10B 1_555 1_555
C4E C5E 1_555 1_555
C6E C7E 1_555 1_555
C13B C14B 1_555 1_555

#END
