
#######################################################################
#
#                 Cambridge Crystallographic Data Centre
#                                CCDC 
#
#######################################################################
#
# If this CIF has been generated from an entry in the Cambridge 
# Structural Database, then it will include bibliographic, chemical, 
# crystal, experimental, refinement or atomic coordinate data resulting 
# from the CCDC's data processing and validation procedures.
#
#######################################################################

data_FAZQUT
_symmetry_cell_setting           triclinic
_symmetry_space_group_name_H-M   'P -1'
_symmetry_Int_Tables_number      2
_space_group_name_Hall           '-P 1'
loop_
_symmetry_equiv_pos_site_id
_symmetry_equiv_pos_as_xyz
1 x,y,z
2 -x,-y,-z
_cell_length_a                   7.973(3)
_cell_length_b                   10.949(3)
_cell_length_c                   12.716(4)
_cell_angle_alpha                93.409(5)
_cell_angle_beta                 103.093(5)
_cell_angle_gamma                96.260(4)
_cell_volume                     1070.69
loop_
_atom_site_label
_atom_site_type_symbol
_atom_site_fract_x
_atom_site_fract_y
_atom_site_fract_z
Ag1 Ag 0.22018(6) 0.44662(4) 0.50084(3)
S1 S 0.21371(16) 0.46161(12) 0.24249(9)
S2 S -0.47550(16) 0.30076(10) -0.47710(9)
N1 N 0.0709(5) 0.3161(4) 0.3619(3)
N2 N 0.0210(5) 0.2449(4) 0.1747(3)
N3 N -0.3446(5) 0.4016(3) -0.6268(3)
N4 N -0.4716(5) -0.2126(3) -0.3153(3)
C1 C 0.0878(6) 0.3265(4) 0.2593(4)
C2 C -0.0746(7) 0.1433(5) 0.1911(4)
C3 C -0.1011(7) 0.1246(5) 0.2927(5)
H1 H -0.1679 0.0539 0.3045
C4 C -0.0260(6) 0.2131(5) 0.3758(4)
H2 H -0.0431 0.2012 0.4447
C5 C -0.1506(9) 0.0553(6) 0.0934(5)
H3 H -0.2292 0.0946 0.0413
H4 H -0.2121 -0.0162 0.1140
H5 H -0.0592 0.0309 0.0620
C6 C 0.1960(7) 0.4468(6) 0.0959(4)
H6 H 0.2800 0.5086 0.0784
H7 H 0.2245 0.3663 0.0751
C7 C 0.0191(9) 0.4619(7) 0.0318(5)
H8 H -0.0720 0.4067 0.0418
C8 C -0.4469(5) 0.3028(4) -0.6107(3)
C9 C -0.4923(6) -0.2219(4) -0.2142(4)
C10 C -0.5930(6) -0.3229(5) -0.1891(4)
H9 H -0.6059 -0.3302 -0.1188
C11 C -0.6723(6) -0.4112(4) -0.2710(4)
H10 H -0.7397 -0.4796 -0.2557
C12 C -0.3998(8) -0.1198(5) -0.1314(4)
H11 H -0.2768 -0.1208 -0.1200
H12 H -0.4338 -0.1307 -0.0645
H13 H -0.4293 -0.0422 -0.1565
C13 C -0.6041(6) 0.1506(4) -0.4815(4)
H14 H -0.6865 0.1344 -0.5512
H15 H -0.6696 0.1538 -0.4259
C14 C -0.4951(7) 0.0454(4) -0.4644(4)
H16 H -0.5842 -0.0465 -0.6018
N5 N 0.0455(8) 0.3325(6) 0.6209(5)
C15 C -0.0075(8) 0.2847(6) 0.6837(5)
C16 C -0.0752(10) 0.2246(8) 0.7668(7)
H17 H 0.0011 0.2499 0.8364
H18 H -0.0831 0.1367 0.7527
H19 H -0.1884 0.2472 0.7661
Ag1A Ag -0.22018(6) 0.55338(4) -0.50084(3)
Ag1_2 Ag -0.77982(6) -0.55338(4) -0.49916(3)
S1A S -0.21371(16) 0.53839(12) -0.24249(9)
S2A S -0.52450(16) -0.30076(10) -0.52290(9)
N1A N -0.0709(5) 0.6839(4) -0.3619(3)
N2A N -0.0210(5) 0.7551(4) -0.1747(3)
N3A N 0.3446(5) 0.5984(3) 0.6268(3)
N3A_2 N -0.6554(5) -0.4016(3) -0.3732(3)
N4A N -0.5284(5) 0.2126(3) -0.6847(3)
C1A C -0.0878(6) 0.6735(4) -0.2593(4)
C2A C 0.0746(7) 0.8567(5) -0.1911(4)
C3A C 0.1011(7) 0.8754(5) -0.2927(5)
H1A H 0.1679 0.9461 -0.3045
C4A C 0.0260(6) 0.7869(5) -0.3758(4)
H2A H 0.0431 0.7988 -0.4447
C5A C 0.1506(9) 0.9447(6) -0.0934(5)
H3A H 0.2292 0.9054 -0.0413
H4A H 0.2121 1.0162 -0.1140
H5A H 0.0592 0.9691 -0.0620
C6A C -0.1960(7) 0.5532(6) -0.0959(4)
H6A H -0.2800 0.4914 -0.0784
H7A H -0.2245 0.6337 -0.0751
C7A C -0.0191(9) 0.5381(7) -0.0318(5)
H8A H 0.0720 0.5933 -0.0418
C8A C -0.5531(5) -0.3028(4) -0.3893(3)
C9A C -0.5077(6) 0.2219(4) -0.7858(4)
C10A C -0.4070(6) 0.3229(5) -0.8109(4)
H9A H -0.3941 0.3302 -0.8812
C11A C -0.3277(6) 0.4112(4) -0.7290(4)
H10A H -0.2603 0.4796 -0.7443
C12A C -0.6002(8) 0.1198(5) -0.8686(4)
H11A H -0.7232 0.1208 -0.8800
H12A H -0.5662 0.1307 -0.9355
H13A H -0.5707 0.0422 -0.8435
C13A C -0.3959(6) -0.1506(4) -0.5185(4)
H14A H -0.3135 -0.1344 -0.4488
H15A H -0.3304 -0.1538 -0.5741
C14A C -0.5049(7) -0.0454(4) -0.5356(4)
H16A H -0.4158 0.0465 -0.3982
N5A N -0.0455(8) 0.6675(6) -0.6209(5)
C15A C 0.0075(8) 0.7153(6) -0.6837(5)
C16A C 0.0752(10) 0.7754(8) -0.7668(7)
H17A H -0.0011 0.7501 -0.8364
H18A H 0.0831 0.8633 -0.7527
H19A H 0.1884 0.7528 -0.7661
Cl1 Cl 0.45103(19) 0.25248(13) -0.16234(11)
O1 O 0.3579(9) 0.1416(5) -0.2175(5)
O2 O 0.4958(7) 0.3283(5) -0.2401(4)
O3 O 0.6024(7) 0.2309(6) -0.0853(5)
O4 O 0.3470(8) 0.3108(7) -0.1065(4)
loop_
_geom_bond_atom_site_label_1
_geom_bond_atom_site_label_2
_geom_bond_site_symmetry_1
_geom_bond_site_symmetry_2
Ag1 N1 1_555 1_555
S1 C1 1_555 1_555
S2 C8 1_555 1_555
N1 C1 1_555 1_555
N2 C1 1_555 1_555
N3 C8 1_555 1_555
N4 C9 1_555 1_555
C2 N2 1_555 1_555
C3 C2 1_555 1_555
H1 C3 1_555 1_555
C4 N1 1_555 1_555
H2 C4 1_555 1_555
C5 C2 1_555 1_555
H3 C5 1_555 1_555
H4 C5 1_555 1_555
H5 C5 1_555 1_555
C6 S1 1_555 1_555
H6 C6 1_555 1_555
H7 C6 1_555 1_555
C7 C6 1_555 1_555
H8 C7 1_555 1_555
C8 N4A 1_555 1_555
C9 C10 1_555 1_555
C10 H9 1_555 1_555
C11 C10 1_555 1_555
H10 C11 1_555 1_555
C12 C9 1_555 1_555
H11 C12 1_555 1_555
H12 C12 1_555 1_555
H13 C12 1_555 1_555
C13 S2 1_555 1_555
H14 C13 1_555 1_555
H15 C13 1_555 1_555
C14 C13 1_555 1_555
H16 C14A 1_555 1_555
N5 Ag1 1_555 1_555
C15 N5 1_555 1_555
C16 C15 1_555 1_555
H17 C16 1_555 1_555
H18 C16 1_555 1_555
H19 C16 1_555 1_555
Cl1 O1 1_555 1_555
O2 Cl1 1_555 1_555
O3 Cl1 1_555 1_555
O4 Cl1 1_555 1_555
Ag1A N3 1_555 1_555
Ag1_2 N3A_2 1_555 1_555
S1A C1A 1_555 1_555
S2A C8A 1_555 1_555
N1A Ag1A 1_555 1_555
N2A C1A 1_555 1_555
N3A Ag1 1_555 1_555
N3A_2 C11 1_555 1_555
N4A C9A 1_555 1_555
C1A N1A 1_555 1_555
C2A N2A 1_555 1_555
C3A C2A 1_555 1_555
H1A C3A 1_555 1_555
C4A N1A 1_555 1_555
H2A C4A 1_555 1_555
C5A C2A 1_555 1_555
H3A C5A 1_555 1_555
H4A C5A 1_555 1_555
H5A C5A 1_555 1_555
C6A S1A 1_555 1_555
H6A C6A 1_555 1_555
H7A C6A 1_555 1_555
C7A C7 1_555 1_555
H8A C7A 1_555 1_555
C8A N4 1_555 1_555
C9A C10A 1_555 1_555
C10A H9A 1_555 1_555
C11A N3 1_555 1_555
H10A C11A 1_555 1_555
C12A C9A 1_555 1_555
H11A C12A 1_555 1_555
H12A C12A 1_555 1_555
H13A C12A 1_555 1_555
C13A S2A 1_555 1_555
H14A C13A 1_555 1_555
H15A C13A 1_555 1_555
C14A C14 1_555 1_555
H16A C14 1_555 1_555
N5A Ag1A 1_555 1_555
C15A N5A 1_555 1_555
C16A C15A 1_555 1_555
H17A C16A 1_555 1_555
H18A C16A 1_555 1_555
H19A C16A 1_555 1_555
C3 C4 1_555 1_555
N3A_2 C8A 1_555 1_555
C3A C4A 1_555 1_555
C6A C7A 1_555 1_555
C10A C11A 1_555 1_555
C13A C14A 1_555 1_555

#END
