
#######################################################################
#
#                 Cambridge Crystallographic Data Centre
#                                CCDC 
#
#######################################################################
#
# If this CIF has been generated from an entry in the Cambridge 
# Structural Database, then it will include bibliographic, chemical, 
# crystal, experimental, refinement or atomic coordinate data resulting 
# from the CCDC's data processing and validation procedures.
#
#######################################################################

data_FAZQOM
_symmetry_cell_setting           orthorhombic
_symmetry_space_group_name_H-M   'P c a 21'
_symmetry_Int_Tables_number      29
_space_group_name_Hall           'P 2c -2ac'
loop_
_symmetry_equiv_pos_site_id
_symmetry_equiv_pos_as_xyz
1 x,y,z
2 -x,-y,1/2+z
3 1/2+x,-y,z
4 1/2-x,y,1/2+z
_cell_length_a                   19.717(4)
_cell_length_b                   9.799(4)
_cell_length_c                   13.570(6)
_cell_angle_alpha                90
_cell_angle_beta                 90
_cell_angle_gamma                90
_cell_volume                     2621.82
loop_
_atom_site_label
_atom_site_type_symbol
_atom_site_fract_x
_atom_site_fract_y
_atom_site_fract_z
Cu1 Cu -0.05146(5) -0.14127(10) -0.00001(8)
Cu2 Cu -0.15134(5) 0.35682(10) -0.19797(7)
S1 S -0.16217(10) 0.2875(2) -0.00391(18)
N1 N -0.0886(4) 0.0433(7) -0.0100(6)
C1 C -0.1195(4) 0.1434(10) -0.0084(6)
S2 S -0.25372(14) -0.3691(3) 0.0613(2)
N2 N -0.1411(4) -0.2202(8) 0.0067(7)
C2 C -0.1883(4) -0.2815(8) 0.0307(7)
S3 S -0.04698(13) -0.1175(3) 0.2231(2)
N3 N 0.0628(4) -0.2768(8) 0.2777(6)
C3 C 0.0162(5) -0.2115(10) 0.2554(7)
S4 S -0.04015(12) -0.2183(2) -0.2149(2)
N4 N -0.1130(4) -0.4594(7) -0.1895(7)
C4 C -0.0806(4) -0.3588(9) -0.2016(8)
N5 N 0.0449(3) -0.0773(7) -0.0062(6)
C5 C 0.0917(4) -0.1774(8) 0.0045(6)
C6 C 0.1590(4) -0.1487(10) 0.0012(7)
H1 H 0.1902 -0.2191 0.0086
C7 C 0.1823(5) -0.0161(10) -0.0131(7)
H2 H 0.2284 0.0036 -0.0159
C8 C 0.1341(5) 0.0844(10) -0.0230(7)
H3 H 0.1467 0.1747 -0.0331
C9 C 0.0666(5) 0.0484(10) -0.0176(7)
H4 H 0.0344 0.1174 -0.0223
N6 N -0.0048(3) -0.3214(7) 0.0204(5)
C10 C 0.0635(4) -0.3144(9) 0.0213(7)
C11 C 0.1038(5) -0.4271(10) 0.0381(7)
H5 H 0.1508 -0.4207 0.0362
C12 C 0.0714(5) -0.5523(10) 0.0584(7)
H6 H 0.0969 -0.6297 0.0726
C13 C 0.0043(5) -0.5587(10) 0.0571(7)
H7 H -0.0171 -0.6417 0.0691
C14 C -0.0346(5) -0.4437(10) 0.0380(8)
H8 H -0.0817 -0.4506 0.0373
N7 N -0.1993(3) 0.1831(7) -0.2342(6)
C15 C -0.2674(4) 0.1939(9) -0.2460(7)
C16 C -0.3056(5) 0.0805(11) -0.2730(7)
H9 H -0.3516 0.0903 -0.2863
C17 C -0.2765(6) -0.0431(11) -0.2798(8)
H10 H -0.3027 -0.1196 -0.2939
C18 C -0.2080(5) -0.0558(10) -0.2659(7)
H11 H -0.1872 -0.1404 -0.2725
C19 C -0.1697(5) 0.0595(10) -0.2416(7)
H12 H -0.1234 0.0509 -0.2305
N8 N -0.2467(4) 0.4263(6) -0.2061(6)
C20 C -0.2950(4) 0.3324(9) -0.2316(6)
C21 C -0.3629(4) 0.3670(11) -0.2369(6)
H13 H -0.3950 0.3009 -0.2525
C22 C -0.3825(5) 0.4961(12) -0.2195(7)
H14 H -0.4281 0.5198 -0.2225
C23 C -0.3333(5) 0.5946(10) -0.1969(9)
H15 H -0.3457 0.6852 -0.1870
C24 C -0.2660(5) 0.5553(9) -0.1893(8)
H16 H -0.2335 0.6199 -0.1721
N3A N -0.0628(4) 0.2768(8) -0.2223(6)
N4_2 N -0.1130(4) 0.5406(7) -0.1895(7)
Cu2A Cu 0.15134(5) -0.35682(10) 0.30203(7)
Cu2_2 Cu -0.15134(5) -0.64318(10) -0.19797(7)
loop_
_geom_bond_atom_site_label_1
_geom_bond_atom_site_label_2
_geom_bond_site_symmetry_1
_geom_bond_site_symmetry_2
Cu1 N1 1_555 1_555
Cu2 S1 1_555 1_555
S1 C1 1_555 1_555
N1 C1 1_555 1_555
S2 C2 1_555 1_555
N2 Cu1 1_555 1_555
C2 N2 1_555 1_555
S3 Cu1 1_555 1_555
N3 C3 1_555 1_555
C3 S3 1_555 1_555
S4 Cu1 1_555 1_555
N4 C4 1_555 1_555
C4 S4 1_555 1_555
N5 Cu1 1_555 1_555
C5 N5 1_555 1_555
C6 C5 1_555 1_555
H1 C6 1_555 1_555
C7 C6 1_555 1_555
H2 C7 1_555 1_555
C8 C7 1_555 1_555
H3 C8 1_555 1_555
C9 N5 1_555 1_555
H4 C9 1_555 1_555
N6 Cu1 1_555 1_555
C10 C5 1_555 1_555
C11 C10 1_555 1_555
H5 C11 1_555 1_555
C12 C11 1_555 1_555
H6 C12 1_555 1_555
C13 C12 1_555 1_555
H7 C13 1_555 1_555
C14 N6 1_555 1_555
H8 C14 1_555 1_555
N7 Cu2 1_555 1_555
C15 N7 1_555 1_555
C16 C15 1_555 1_555
H9 C16 1_555 1_555
C17 C16 1_555 1_555
H10 C17 1_555 1_555
C18 C17 1_555 1_555
H11 C18 1_555 1_555
C19 N7 1_555 1_555
H12 C19 1_555 1_555
N8 Cu2 1_555 1_555
C20 C15 1_555 1_555
C21 C20 1_555 1_555
H13 C21 1_555 1_555
C22 C21 1_555 1_555
H14 C22 1_555 1_555
C23 C22 1_555 1_555
H15 C23 1_555 1_555
C24 N8 1_555 1_555
H16 C24 1_555 1_555
N3A Cu2 1_555 1_555
N4_2 Cu2 1_555 1_555
Cu2A N3 1_555 1_555
Cu2_2 N4 1_555 1_555
C8 C9 1_555 1_555
N6 C10 1_555 1_555
C13 C14 1_555 1_555
C18 C19 1_555 1_555
N8 C20 1_555 1_555
C23 C24 1_555 1_555

#END
