
#######################################################################
#
#                 Cambridge Crystallographic Data Centre
#                                CCDC 
#
#######################################################################
#
# If this CIF has been generated from an entry in the Cambridge 
# Structural Database, then it will include bibliographic, chemical, 
# crystal, experimental, refinement or atomic coordinate data resulting 
# from the CCDC's data processing and validation procedures.
#
#######################################################################

data_FAZQIH
_symmetry_cell_setting           triclinic
_symmetry_space_group_name_H-M   'P -1'
_symmetry_Int_Tables_number      2
_space_group_name_Hall           '-P 1'
loop_
_symmetry_equiv_pos_site_id
_symmetry_equiv_pos_as_xyz
1 x,y,z
2 -x,-y,-z
_cell_length_a                   8.877(3)
_cell_length_b                   9.172(3)
_cell_length_c                   10.359(4)
_cell_angle_alpha                82.597(6)
_cell_angle_beta                 80.160(6)
_cell_angle_gamma                72.455(6)
_cell_volume                     789.673
loop_
_atom_site_label
_atom_site_type_symbol
_atom_site_fract_x
_atom_site_fract_y
_atom_site_fract_z
Ag1 Ag 0.60952(3) 0.54857(3) 0.65695(3)
S1 S 0.71231(10) 0.31403(9) 0.49055(9)
S2 S 0.75554(12) 0.32651(12) 0.90705(10)
C1 C 0.5770(4) 0.2098(3) 0.5623(3)
C2 C 0.5028(5) 0.0279(4) 0.7032(4)
H1 H 0.5242 -0.0519 0.7687
C3 C 0.3578(5) 0.0690(5) 0.6598(4)
H2 H 0.2808 0.0195 0.6948
C4 C 0.3301(4) 0.1869(4) 0.5620(4)
H3 H 0.2320 0.2181 0.5311
C5 C 0.8963(4) 0.2048(4) 0.5528(4)
H4 H 0.9632 0.2716 0.5507
H5 H 0.8716 0.1679 0.6437
C6 C 0.9858(4) 0.0718(4) 0.4753(4)
H6 H 1.0237 0.0912 0.3873
C7 C 0.5598(5) 0.3217(4) 0.9103(3)
C8 C 0.3308(5) 0.4257(5) 0.8209(4)
H7 H 0.2726 0.4933 0.7602
C9 C 0.2569(5) 0.3342(6) 0.9072(4)
H8 H 0.1510 0.3386 0.9068
C10 C 0.3466(6) 0.2368(6) 0.9933(4)
H9 H 0.2995 0.1733 1.0533
C11 C 0.8261(6) 0.1826(5) 1.0381(4)
H10 H 0.8873 0.2213 1.0876
H11 H 0.7349 0.1656 1.0976
C12 C 0.9271(5) 0.0338(5) 0.9887(4)
H12 H 0.8828 -0.0145 0.9378
N1 N 0.4407(3) 0.2576(3) 0.5106(3)
N2 N 0.6154(3) 0.0980(3) 0.6552(3)
N3 N 0.4807(4) 0.4228(3) 0.8196(3)
N4 N 0.5000(4) 0.2271(4) 0.9966(3)
N5 N 0.9116(5) 0.6135(5) 0.7253(3)
O1 O 0.7705(4) 0.6859(4) 0.7219(4)
O2 O 0.9689(6) 0.5025(5) 0.6645(4)
O3 O 0.9899(4) 0.6585(4) 0.7877(3)
Ag1A Ag 1.39048(3) -0.54857(3) 0.34305(3)
Ag1A_2 Ag 0.39048(3) 0.45143(3) 0.34305(3)
Ag1_2 Ag 1.60952(3) -0.45143(3) 0.65695(3)
Ag1A_3 Ag 1.39048(3) -0.54857(3) 1.34305(3)
S1A S 1.28769(10) -0.31403(9) 0.50945(9)
S2A S 1.24446(12) -0.32651(12) 1.09295(10)
C1A C 1.4230(4) -0.2098(3) 0.4377(3)
C2A C 1.4972(5) -0.0279(4) 0.2968(4)
H1A H 1.4758 0.0519 0.2313
C3A C 1.6422(5) -0.0690(5) 0.3402(4)
H2A H 1.7192 -0.0195 0.3052
C4A C 1.6699(4) -0.1869(4) 0.4380(4)
H3A H 1.7680 -0.2181 0.4689
C5A C 1.1037(4) -0.2048(4) 0.4472(4)
H4A H 1.0368 -0.2716 0.4493
H5A H 1.1284 -0.1679 0.3563
C6A C 1.0142(4) -0.0718(4) 0.5247(4)
H6A H 0.9763 -0.0912 0.6127
C7A C 1.4402(5) -0.3217(4) 1.0897(3)
C8A C 1.6692(5) -0.4257(5) 1.1791(4)
H7A H 1.7274 -0.4933 1.2398
C9A C 1.7431(5) -0.3342(6) 1.0928(4)
H8A H 1.8490 -0.3386 1.0932
C10A C 1.6534(6) -0.2368(6) 1.0067(4)
H9A H 1.7005 -0.1733 0.9467
C11A C 1.1739(6) -0.1826(5) 0.9619(4)
H10A H 1.1127 -0.2213 0.9124
H11A H 1.2651 -0.1656 0.9024
C12A C 1.0729(5) -0.0338(5) 1.0113(4)
H12A H 1.1172 0.0145 1.0622
N1A N 1.5593(3) -0.2576(3) 0.4894(3)
N1A_2 N 0.5593(3) 0.7424(3) 0.4894(3)
N1_2 N 1.4407(3) -0.7424(3) 0.5106(3)
N2A N 1.3846(3) -0.0980(3) 0.3448(3)
N3A N 1.5193(4) -0.4228(3) 1.1804(3)
N3A_2 N 1.5193(4) -0.4228(3) 0.1804(3)
N4A N 1.5000(4) -0.2271(4) 1.0034(3)
N5A N 1.0884(5) -0.6135(5) 0.2747(3)
O1A O 1.2295(4) -0.6859(4) 0.2781(4)
O2A O 1.0311(6) -0.5025(5) 0.3355(4)
O3A O 1.0101(4) -0.6585(4) 0.2123(3)
loop_
_geom_bond_atom_site_label_1
_geom_bond_atom_site_label_2
_geom_bond_site_symmetry_1
_geom_bond_site_symmetry_2
Ag1 S1 1_555 1_555
S1 C1 1_555 1_555
S2 C7 1_555 1_555
C1 N1 1_555 1_555
C2 H1 1_555 1_555
C3 C2 1_555 1_555
H2 C3 1_555 1_555
C4 C3 1_555 1_555
H3 C4 1_555 1_555
C5 S1 1_555 1_555
H4 C5 1_555 1_555
H5 C5 1_555 1_555
C6 C5 1_555 1_555
H6 C6 1_555 1_555
C7 N3 1_555 1_555
C8 H7 1_555 1_555
C9 C8 1_555 1_555
H8 C9 1_555 1_555
C10 C9 1_555 1_555
H9 C10 1_555 1_555
C11 S2 1_555 1_555
H10 C11 1_555 1_555
H11 C11 1_555 1_555
C12 C11 1_555 1_555
H12 C12 1_555 1_555
N1 C4 1_555 1_555
N2 C1 1_555 1_555
N3 Ag1 1_555 1_555
N4 C7 1_555 1_555
N5 O1 1_555 1_555
O1 Ag1 1_555 1_555
O2 N5 1_555 1_555
O3 N5 1_555 1_555
Ag1A S1A 1_555 1_555
Ag1A_2 N1 1_555 1_555
Ag1_2 N1A 1_555 1_555
Ag1A_3 N3A 1_555 1_555
S1A C1A 1_555 1_555
S2A C7A 1_555 1_555
C1A N1A 1_555 1_555
C2A H1A 1_555 1_555
C3A C2A 1_555 1_555
H2A C3A 1_555 1_555
C4A C3A 1_555 1_555
H3A C4A 1_555 1_555
C5A S1A 1_555 1_555
H4A C5A 1_555 1_555
H5A C5A 1_555 1_555
C6A C6 1_555 1_555
H6A C6A 1_555 1_555
C7A N3A 1_555 1_555
C8A H7A 1_555 1_555
C9A C8A 1_555 1_555
H8A C9A 1_555 1_555
C10A C9A 1_555 1_555
H9A C10A 1_555 1_555
C11A S2A 1_555 1_555
H10A C11A 1_555 1_555
H11A C11A 1_555 1_555
C12A C12 1_555 1_555
H12A C12A 1_555 1_555
N1A C4A 1_555 1_555
N1A_2 Ag1 1_555 1_555
N1_2 Ag1A 1_555 1_555
N2A C1A 1_555 1_555
N3A C8A 1_555 1_555
N3A_2 Ag1A 1_555 1_555
N4A C7A 1_555 1_555
N5A O1A 1_555 1_555
O1A Ag1A 1_555 1_555
O2A N5A 1_555 1_555
O3A N5A 1_555 1_555
C2 N2 1_555 1_555
C8 N3 1_555 1_555
C10 N4 1_555 1_555
C2A N2A 1_555 1_555
C5A C6A 1_555 1_555
C10A N4A 1_555 1_555
C11A C12A 1_555 1_555

#END
