
#######################################################################
#
#                 Cambridge Crystallographic Data Centre
#                                CCDC 
#
#######################################################################
#
# If this CIF has been generated from an entry in the Cambridge 
# Structural Database, then it will include bibliographic, chemical, 
# crystal, experimental, refinement or atomic coordinate data resulting 
# from the CCDC's data processing and validation procedures.
#
#######################################################################

data_FAZRAA
_symmetry_cell_setting           triclinic
_symmetry_space_group_name_H-M   'P -1'
_symmetry_Int_Tables_number      2
_space_group_name_Hall           '-P 1'
loop_
_symmetry_equiv_pos_site_id
_symmetry_equiv_pos_as_xyz
1 x,y,z
2 -x,-y,-z
_cell_length_a                   8.415(4)
_cell_length_b                   12.503(6)
_cell_length_c                   12.682(6)
_cell_angle_alpha                62.908(7)
_cell_angle_beta                 87.261(8)
_cell_angle_gamma                71.416(7)
_cell_volume                     1118.44
loop_
_atom_site_label
_atom_site_type_symbol
_atom_site_fract_x
_atom_site_fract_y
_atom_site_fract_z
Ag1 Ag 0.24336(3) 0.51406(3) 0.51439(3)
S1 S 0.20628(13) 0.21078(13) 0.39166(14)
S2 S -0.17802(13) 0.30792(11) 0.33836(12)
S3 S 0.63661(13) 0.17785(11) 0.84674(9)
S4 S 0.95147(13) 0.18827(12) 0.71177(9)
N1 N 0.1691(4) 0.3765(3) 0.4624(3)
N2 N 0.0081(4) 0.3867(3) 0.4308(3)
N3 N 0.4757(4) 0.3850(3) 0.6668(3)
N4 N 0.6414(4) 0.3540(3) 0.6417(3)
C1 C 0.4684(6) 0.2551(6) 0.4734(7)
H1 H 0.5055 0.1870 0.5532
H2 H 0.5271 0.2284 0.4181
H3 H 0.4918 0.3283 0.4661
C2 C 0.2848(5) 0.2881(4) 0.4469(5)
C3 C 0.0087(5) 0.3073(4) 0.3915(4)
C4 C -0.1172(6) 0.1466(5) 0.3543(5)
H4 H -0.0213 0.1334 0.3106
H5 H -0.2099 0.1389 0.3189
C5 C -0.0727(5) 0.0464(4) 0.4792(4)
H6 H -0.1528 0.0490 0.5319
C6 C 0.2883(6) 0.3101(6) 0.8194(5)
H7 H 0.2169 0.2935 0.7760
H8 H 0.3063 0.2482 0.9020
H9 H 0.2353 0.3939 0.8119
C7 C 0.4550(5) 0.3019(4) 0.7696(3)
C8 C 0.7383(5) 0.2470(4) 0.7269(3)
C9 C 1.0198(6) 0.0286(4) 0.8367(4)
H10 H 1.1274 -0.0206 0.8243
H11 H 0.9386 -0.0126 0.8391
C10 C 1.0380(5) 0.0275(4) 0.9531(4)
H12 H 1.1081 0.0685 0.9608
Ag1A Ag -0.24336(3) -0.51406(3) 0.48561(3)
Ag1A_2 Ag -0.24336(3) 0.48594(3) 0.48561(3)
Ag1A_3 Ag 0.75664(3) 0.48594(3) 0.48561(3)
Ag1_2 Ag 0.24336(3) -0.48594(3) 0.51439(3)
Ag1A_4 Ag 1.75664(3) -0.51406(3) 1.48561(3)
Ag1_3 Ag 1.24336(3) -0.48594(3) 1.51439(3)
S1A S -0.20628(13) -0.21078(13) 0.60834(14)
S2A S 0.17802(13) -0.30792(11) 0.66164(12)
S3A S 1.36339(13) -0.17785(11) 1.15326(9)
S4A S 1.04853(13) -0.18827(12) 1.28823(9)
N1A N -0.1691(4) -0.3765(3) 0.5376(3)
N1A_2 N 1.8309(4) -0.3765(3) 1.5376(3)
N2A N -0.0081(4) -0.3867(3) 0.5692(3)
N2A_2 N -0.0081(4) 0.6133(3) 0.5692(3)
N2_2 N 2.0081(4) -0.6133(3) 1.4308(3)
N3A N 1.5243(4) -0.3850(3) 1.3332(3)
N4A N 1.3586(4) -0.3540(3) 1.3583(3)
N4A_2 N 0.3586(4) 0.6460(3) 0.3583(3)
N4_2 N 1.6414(4) -0.6460(3) 1.6417(3)
C1A C -0.4684(6) -0.2551(6) 0.5266(7)
H1A H -0.5055 -0.1870 0.4468
H2A H -0.5271 -0.2284 0.5819
H3A H -0.4918 -0.3283 0.5339
C2A C -0.2848(5) -0.2881(4) 0.5531(5)
C3A C -0.0087(5) -0.3073(4) 0.6085(4)
C4A C 0.1172(6) -0.1466(5) 0.6457(5)
H4A H 0.0213 -0.1334 0.6894
H5A H 0.2099 -0.1389 0.6811
C5A C 0.0727(5) -0.0464(4) 0.5208(4)
H6A H 0.1528 -0.0490 0.4681
C6A C 1.7117(6) -0.3101(6) 1.1806(5)
H7A H 1.7831 -0.2935 1.2240
H8A H 1.6937 -0.2482 1.0980
H9A H 1.7647 -0.3939 1.1881
C7A C 1.5450(5) -0.3019(4) 1.2304(3)
C8A C 1.2617(5) -0.2470(4) 1.2731(3)
C9A C 0.9802(6) -0.0286(4) 1.1633(4)
H10A H 0.8726 0.0206 1.1757
H11A H 1.0614 0.0126 1.1609
C10A C 0.9620(5) -0.0275(4) 1.0469(4)
H12A H 0.8919 -0.0685 1.0392
C11 C 0.207(2) 0.5800(15) 0.0231(13)
H13 H 0.2454 0.5014 0.0156
Cl1 Cl 0.2026(9) 0.5440(5) 0.1720(4)
Cl2 Cl -0.0082(6) 0.6743(5) -0.0492(4)
Cl3 Cl 0.3344(5) 0.6708(4) -0.0464(3)
Cl4 Cl 0.4777(2) 0.0651(2) 0.21679(19)
O1 O 0.3265(6) 0.0373(6) 0.2523(6)
O2 O 0.5344(8) 0.1009(10) 0.2904(8)
O3 O 0.440(2) 0.170(2) 0.1010(9)
O4 O 0.6006(11) -0.0438(13) 0.2214(18)
loop_
_geom_bond_atom_site_label_1
_geom_bond_atom_site_label_2
_geom_bond_site_symmetry_1
_geom_bond_site_symmetry_2
Ag1 N1 1_555 1_555
S1 C2 1_555 1_555
S2 C3 1_555 1_555
S3 C7 1_555 1_555
S4 C8 1_555 1_555
N1 N2 1_555 1_555
N2 C3 1_555 1_555
N3 Ag1 1_555 1_555
N4 N3 1_555 1_555
C1 H1 1_555 1_555
H2 C1 1_555 1_555
H3 C1 1_555 1_555
C2 N1 1_555 1_555
C3 S1 1_555 1_555
C4 S2 1_555 1_555
H4 C4 1_555 1_555
H5 C4 1_555 1_555
C5 C4 1_555 1_555
H6 C5 1_555 1_555
C6 H7 1_555 1_555
H8 C6 1_555 1_555
H9 C6 1_555 1_555
C7 N3 1_555 1_555
C8 S3 1_555 1_555
C9 S4 1_555 1_555
H10 C9 1_555 1_555
H11 C9 1_555 1_555
C10 C9 1_555 1_555
H12 C10 1_555 1_555
C11 H13 1_555 1_555
Cl1 C11 1_555 1_555
Cl2 C11 1_555 1_555
Cl3 C11 1_555 1_555
Cl4 O1 1_555 1_555
O2 Cl4 1_555 1_555
O3 Cl4 1_555 1_555
O4 Cl4 1_555 1_555
Ag1A N1A 1_555 1_555
Ag1A_2 N2 1_555 1_555
Ag1A_3 N4 1_555 1_555
Ag1_2 N2A 1_555 1_555
Ag1A_4 N1A_2 1_555 1_555
Ag1_3 N4A 1_555 1_555
S1A C2A 1_555 1_555
S2A C3A 1_555 1_555
S3A C7A 1_555 1_555
S4A C8A 1_555 1_555
N1A N2A 1_555 1_555
N2A C3A 1_555 1_555
N2A_2 Ag1 1_555 1_555
N2_2 Ag1A_4 1_555 1_555
N3A Ag1A_4 1_555 1_555
N4A N3A 1_555 1_555
N4A_2 Ag1 1_555 1_555
N4_2 Ag1A_4 1_555 1_555
C1A H1A 1_555 1_555
H2A C1A 1_555 1_555
H3A C1A 1_555 1_555
C2A N1A 1_555 1_555
C3A S1A 1_555 1_555
C4A S2A 1_555 1_555
H4A C4A 1_555 1_555
H5A C4A 1_555 1_555
C5A C5 1_555 1_555
H6A C5A 1_555 1_555
C6A H7A 1_555 1_555
H8A C6A 1_555 1_555
H9A C6A 1_555 1_555
C7A N3A 1_555 1_555
C8A S3A 1_555 1_555
C9A S4A 1_555 1_555
H10A C9A 1_555 1_555
H11A C9A 1_555 1_555
C10A C10 1_555 1_555
H12A C10A 1_555 1_555
N4 C8 1_555 1_555
C1 C2 1_555 1_555
C6 C7 1_555 1_555
N4A C8A 1_555 1_555
C1A C2A 1_555 1_555
C4A C5A 1_555 1_555
C6A C7A 1_555 1_555
C9A C10A 1_555 1_555

#END
