
#######################################################################
#
#                 Cambridge Crystallographic Data Centre
#                                CCDC 
#
#######################################################################
#
# If this CIF has been generated from an entry in the Cambridge 
# Structural Database, then it will include bibliographic, chemical, 
# crystal, experimental, refinement or atomic coordinate data resulting 
# from the CCDC's data processing and validation procedures.
#
#######################################################################

data_FAZWOS
_symmetry_cell_setting           orthorhombic
_symmetry_space_group_name_H-M   'P 21 21 21'
_symmetry_Int_Tables_number      19
_space_group_name_Hall           'P 2ac 2ab'
loop_
_symmetry_equiv_pos_site_id
_symmetry_equiv_pos_as_xyz
1 x,y,z
2 1/2+x,1/2-y,-z
3 -x,1/2+y,1/2-z
4 1/2-x,-y,1/2+z
_cell_length_a                   16.990(4)
_cell_length_b                   7.481(3)
_cell_length_c                   5.770(2)
_cell_angle_alpha                90
_cell_angle_beta                 90
_cell_angle_gamma                90
_cell_volume                     733.38
loop_
_atom_site_label
_atom_site_type_symbol
_atom_site_fract_x
_atom_site_fract_y
_atom_site_fract_z
Cu1 Cu 0.6814(1) 0.4035(1) -0.0203(2)
Cl1 Cl 0.7902(1) 0.3478(3) 0.2195(4)
N1 N 0.6031(4) 0.5069(11) 0.2009(14)
C1 C 0.5636(5) 0.5640(12) 0.3412(16)
C2 C 0.5131(5) 0.6374(10) 0.5208(17)
C3 C 0.4343(4) 0.6147(10) 0.5268(14)
C4 C 0.3931(6) 0.4993(15) 0.3477(19)
C5 C 0.3882(5) 0.7040(12) 0.7071(16)
C6 C 0.3113(5) 0.6763(12) 0.7474(17)
H1 H 0.541(7) 0.686(16) 0.636(17)
H2 H 0.349(6) 0.573(15) 0.251(19)
H3 H 0.372(7) 0.400(15) 0.449(24)
H4 H 0.436(8) 0.486(19) 0.221(22)
H5 H 0.407(5) 0.762(13) 0.827(20)
H6 H 0.290(7) 0.734(14) 0.903(18)
H7 H 0.278(5) 0.597(12) 0.670(17)
Cl1C Cl 0.7098(1) 0.6522(3) -0.2805(4)
N1B N 0.3969(4) 0.0069(11) 0.2991(14)
C1B C 0.4364(5) 0.0640(12) 0.1588(16)
C2B C 0.4869(5) 0.1374(10) -0.0208(17)
C3B C 0.5657(4) 0.1147(10) -0.0268(14)
C4B C 0.6069(6) -0.0007(15) 0.1523(19)
C5B C 0.6118(5) 0.2040(12) -0.2071(16)
C6B C 0.6887(5) 0.1763(12) -0.2474(17)
H1B H 0.459(7) 0.186(16) -0.136(17)
H2B H 0.651(6) 0.073(15) 0.249(19)
H3B H 0.628(7) -0.100(15) 0.051(24)
H4B H 0.564(8) -0.014(19) 0.279(22)
H5B H 0.593(5) 0.262(13) -0.327(20)
H6B H 0.710(7) 0.234(14) -0.403(18)
H7B H 0.722(5) 0.097(12) -0.170(17)
Cu1C Cu 0.8186(1) 0.5965(1) -0.5203(2)
Cu1C_2 Cu 0.8186(1) 0.5965(1) 0.4797(2)
Cu1B Cu 0.3186(1) -0.0965(1) 0.5203(2)
Cu1B_2 Cu 0.3186(1) 0.9035(1) 0.5203(2)
Cl1C_2 Cl 0.7098(1) 0.6522(3) 0.7195(4)
N1C N 0.8969(4) 0.4931(11) 0.7009(14)
C5A C 0.8882(5) 0.7960(12) 0.2929(16)
C6A C 0.8113(5) 0.8237(12) 0.2526(17)
H5A H 0.907(5) 0.738(13) 0.173(20)
H6A H 0.790(7) 0.766(14) 0.097(18)
H7A H 0.778(5) 0.903(12) 0.330(17)
loop_
_geom_bond_atom_site_label_1
_geom_bond_atom_site_label_2
_geom_bond_site_symmetry_1
_geom_bond_site_symmetry_2
Cu1 Cl1 1_555 1_555
Cl1 Cu1C_2 1_555 1_555
N1 Cu1 1_555 1_555
C1 N1 1_555 1_555
C2 C1 1_555 1_555
C3 C2 1_555 1_555
C4 C3 1_555 1_555
C5 C3 1_555 1_555
C6 C5 1_555 1_555
H1 C2 1_555 1_555
H2 C4 1_555 1_555
H3 C4 1_555 1_555
H4 C4 1_555 1_555
H5 C5 1_555 1_555
H6 C6 1_555 1_555
H7 C6 1_555 1_555
Cl1C Cu1 1_555 1_555
N1B C1B 1_555 1_555
C1B C2B 1_555 1_555
C2B C3B 1_555 1_555
C3B C4B 1_555 1_555
C4B H2B 1_555 1_555
C5B Cu1 1_555 1_555
C6B Cu1 1_555 1_555
H1B C2B 1_555 1_555
H3B C4B 1_555 1_555
H4B C4B 1_555 1_555
H5B C5B 1_555 1_555
H6B C6B 1_555 1_555
H7B C6B 1_555 1_555
Cu1C Cl1C 1_555 1_555
Cu1C_2 Cl1C_2 1_555 1_555
Cu1B N1B 1_555 1_555
Cu1B_2 C5 1_555 1_555
N1C Cu1C_2 1_555 1_555
C5A Cu1C_2 1_555 1_555
C6A Cu1C_2 1_555 1_555
H5A C5A 1_555 1_555
H6A C6A 1_555 1_555
H7A C6A 1_555 1_555
C6 Cu1B_2 1_555 1_555
C3B C5B 1_555 1_555
C5B C6B 1_555 1_555
C5A C6A 1_555 1_555

#END
