
#######################################################################
#
#                 Cambridge Crystallographic Data Centre
#                                CCDC 
#
#######################################################################
#
# If this CIF has been generated from an entry in the Cambridge 
# Structural Database, then it will include bibliographic, chemical, 
# crystal, experimental, refinement or atomic coordinate data resulting 
# from the CCDC's data processing and validation procedures.
#
#######################################################################

data_FAZYIP
_symmetry_cell_setting           monoclinic
_symmetry_space_group_name_H-M   'P 21/n'
_symmetry_Int_Tables_number      14
_space_group_name_Hall           '-P 2yn'
loop_
_symmetry_equiv_pos_site_id
_symmetry_equiv_pos_as_xyz
1 x,y,z
2 1/2-x,1/2+y,1/2-z
3 -x,-y,-z
4 1/2+x,1/2-y,1/2+z
_cell_length_a                   16.0414(6)
_cell_length_b                   15.3388(5)
_cell_length_c                   17.6623(6)
_cell_angle_alpha                90
_cell_angle_beta                 114.6680(10)
_cell_angle_gamma                90
_cell_volume                     3949.31
loop_
_atom_site_label
_atom_site_type_symbol
_atom_site_fract_x
_atom_site_fract_y
_atom_site_fract_z
Cd1 Cd 0.92950(2) 0.06833(2) 0.11466(2)
Cd2 Cd 1.83635(2) 0.13700(2) 0.24675(2)
N1 N 1.0757(2) 0.1075(2) 0.1460(2)
N2 N 1.6898(3) 0.1232(3) 0.2324(3)
N3 N 1.8999(3) 0.2380(3) 0.3519(2)
O1 O 0.7865(2) 0.0382(2) 0.1228(2)
O2 O 0.8703(2) 0.0970(2) -0.02214(19)
O3 O 0.7277(2) 0.0930(3) -0.0322(2)
O4 O 1.0936(3) -0.0087(3) -0.3418(3)
O5 O 1.0337(2) -0.0625(2) -0.2612(2)
O6 O 0.9507(2) -0.0758(2) 0.10476(19)
O7 O 0.8302(3) -0.1241(3) 0.1241(3)
O8 O 1.2291(3) -0.2678(3) -0.1489(3)
O9 O 1.1055(2) -0.2014(2) -0.1581(2)
C1 C 0.7843(3) 0.1022(3) -0.0627(3)
C2 C 0.7473(3) 0.1192(3) -0.1550(3)
C3 C 0.8028(3) 0.1160(3) -0.1980(3)
H1 H 0.8654 0.1064 -0.1685
C4 C 0.7668(3) 0.1268(3) -0.2840(3)
C5 C 0.6726(3) 0.1406(3) -0.3264(3)
H2 H 0.6468 0.1472 -0.3840
C6 C 0.6173(3) 0.1447(4) -0.2847(3)
H3 H 0.5548 0.1545 -0.3141
C7 C 0.6541(3) 0.1343(3) -0.1992(3)
H4 H 0.6162 0.1375 -0.1712
C8 C 1.0333(3) -0.0075(3) -0.3153(3)
C9 C 0.9557(3) 0.0560(3) -0.3464(3)
C10 C 0.9017(3) 0.0665(3) -0.3025(3)
H5 H 0.9169 0.0361 -0.2530
C11 C 0.8255(3) 0.1213(3) -0.3306(3)
C12 C 0.8053(3) 0.1657(3) -0.4046(3)
H6 H 0.7551 0.2032 -0.4248
C13 C 0.8576(4) 0.1556(4) -0.4485(3)
H7 H 0.8419 0.1857 -0.4983
C14 C 0.9336(4) 0.1014(4) -0.4203(3)
H8 H 0.9691 0.0956 -0.4502
C15 C 0.8983(3) -0.1356(3) 0.1092(3)
C16 C 0.9215(3) -0.2276(3) 0.0953(3)
C17 C 0.9926(3) -0.2461(3) 0.0715(3)
H9 H 1.0274 -0.2007 0.0649
C18 C 1.0121(3) -0.3315(3) 0.0577(3)
C19 C 0.9595(4) -0.3985(4) 0.0686(3)
H10 H 0.9725 -0.4561 0.0610
C20 C 0.8886(4) -0.3805(4) 0.0905(3)
H11 H 0.8531 -0.4258 0.0963
C21 C 0.8697(4) -0.2960(4) 0.1039(3)
H12 H 0.8217 -0.2845 0.1189
C22 C 1.1676(3) -0.2588(3) -0.1255(3)
C23 C 1.1619(3) -0.3143(3) -0.0588(3)
C24 C 1.0942(3) -0.2990(3) -0.0308(3)
H13 H 1.0535 -0.2531 -0.0535
C25 C 1.0856(3) -0.3505(3) 0.0300(3)
C26 C 1.1470(4) -0.4201(3) 0.0618(3)
H14 H 1.1415 -0.4570 0.1013
C27 C 1.2156(4) -0.4344(4) 0.0352(4)
H15 H 1.2567 -0.4801 0.0579
C28 C 1.2238(4) -0.3823(4) -0.0242(3)
H16 H 1.2704 -0.3921 -0.0414
C29 C 1.1103(3) 0.0916(3) 0.0902(3)
H17 H 1.0708 0.0728 0.0373
C30 C 1.2008(3) 0.1016(3) 0.1074(3)
H18 H 1.2215 0.0900 0.0665
C31 C 1.2623(3) 0.1292(3) 0.1858(3)
C32 C 1.3637(3) 0.1366(4) 0.2109(3)
H19 H 1.3797 0.1979 0.2161
H20 H 1.3952 0.1105 0.2656
C33 C 1.3992(4) 0.0956(5) 0.1539(5)
H21 H 1.3699 0.1228 0.0995
H22 H 1.3828 0.0343 0.1475
C34 C 1.5017(3) 0.1040(4) 0.1847(4)
C35 C 1.5628(4) 0.0356(4) 0.2202(4)
H23 H 1.5412 -0.0183 0.2283
C36 C 1.6556(3) 0.0478(4) 0.2434(3)
H24 H 1.6955 0.0016 0.2675
C37 C 1.6305(3) 0.1894(4) 0.2005(3)
H25 H 1.6532 0.2433 0.1940
C38 C 1.5386(3) 0.1810(4) 0.1774(4)
H26 H 1.5006 0.2291 0.1563
C39 C 1.2255(3) 0.1481(3) 0.2417(3)
H27 H 1.2634 0.1691 0.2943
C40 C 1.1341(3) 0.1365(3) 0.2209(3)
H28 H 1.1116 0.1493 0.2604
C41 C 1.9897(3) 0.2415(4) 0.3984(4)
H29 H 2.0251 0.1939 0.3974
C42 C 2.0331(3) 0.3110(3) 0.4477(3)
H30 H 2.0963 0.3097 0.4791
C43 C 1.9826(3) 0.3834(3) 0.4508(3)
C44 C 2.0307(3) 0.4629(3) 0.4994(3)
H31 H 2.0722 0.4843 0.4764
H32 H 2.0677 0.4454 0.5565
C45 C 1.8893(3) 0.3775(3) 0.4057(3)
H33 H 1.8517 0.4226 0.4081
C46 C 1.8510(3) 0.3059(3) 0.3573(3)
H34 H 1.7877 0.3046 0.3266
Cd1B Cd 1.07050(2) -0.06833(2) -0.11466(2)
Cd2_2 Cd 0.83635(2) 0.13700(2) 0.24675(2)
Cd2B Cd 1.16365(2) -0.13700(2) -0.24675(2)
Cd2B_2 Cd 2.16365(2) 0.86300(2) 0.75325(2)
Cd2B_3 Cd 0.16365(2) -0.13700(2) -0.24675(2)
N1B N 0.9243(2) -0.1075(2) -0.1460(2)
N2B N 0.3102(3) -0.1232(3) -0.2324(3)
N2_2 N 0.6898(3) 0.1232(3) 0.2324(3)
N3B N 2.1001(3) 0.7620(3) 0.6481(2)
N3_2 N 0.8999(3) 0.2380(3) 0.3519(2)
O1_2 O 1.7865(2) 0.0382(2) 0.1228(2)
O1B O 1.2135(2) -0.0382(2) -0.1228(2)
O2B O 1.1297(2) -0.0970(2) 0.02214(19)
O3B O 1.2723(2) -0.0930(3) 0.0322(2)
O4B O 0.9064(3) 0.0087(3) 0.3418(3)
O4B_2 O 1.9064(3) 0.0087(3) 0.3418(3)
O5B O 0.9663(2) 0.0625(2) 0.2612(2)
O5B_2 O 1.9663(2) 0.0625(2) 0.2612(2)
O6B O 1.0493(2) 0.0758(2) -0.10476(19)
O7B O 1.1698(3) 0.1241(3) -0.1241(3)
O8B O 0.7709(3) 0.2678(3) 0.1489(3)
O8B_2 O 1.7709(3) 0.2678(3) 0.1489(3)
O9B O 0.8945(2) 0.2014(2) 0.1581(2)
O9B_2 O 1.8945(2) 0.2014(2) 0.1581(2)
C1B C 1.2157(3) -0.1022(3) 0.0627(3)
C2B C 1.2527(3) -0.1192(3) 0.1550(3)
C3B C 1.1972(3) -0.1160(3) 0.1980(3)
H1B H 1.1346 -0.1064 0.1685
C4B C 1.2332(3) -0.1268(3) 0.2840(3)
C5B C 1.3274(3) -0.1406(3) 0.3264(3)
H2B H 1.3532 -0.1472 0.3840
C6B C 1.3827(3) -0.1447(4) 0.2847(3)
H3B H 1.4452 -0.1545 0.3141
C7B C 1.3459(3) -0.1343(3) 0.1992(3)
H4B H 1.3838 -0.1375 0.1712
C8B C 0.9667(3) 0.0075(3) 0.3153(3)
C9B C 1.0443(3) -0.0560(3) 0.3464(3)
C10B C 1.0983(3) -0.0665(3) 0.3025(3)
H5B H 1.0831 -0.0361 0.2530
C11B C 1.1745(3) -0.1213(3) 0.3306(3)
C12B C 1.1947(3) -0.1657(3) 0.4046(3)
H6B H 1.2449 -0.2032 0.4248
C13B C 1.1424(4) -0.1556(4) 0.4485(3)
H7B H 1.1581 -0.1857 0.4983
C14B C 1.0664(4) -0.1014(4) 0.4203(3)
H8B H 1.0309 -0.0956 0.4502
C15B C 1.1017(3) 0.1356(3) -0.1092(3)
C16B C 1.0785(3) 0.2276(3) -0.0953(3)
C17B C 1.0074(3) 0.2461(3) -0.0715(3)
H9B H 0.9726 0.2007 -0.0649
C18B C 0.9879(3) 0.3315(3) -0.0577(3)
C19B C 1.0405(4) 0.3985(4) -0.0686(3)
H10B H 1.0275 0.4561 -0.0610
C20B C 1.1114(4) 0.3805(4) -0.0905(3)
H11B H 1.1469 0.4258 -0.0963
C21B C 1.1303(4) 0.2960(4) -0.1039(3)
H12B H 1.1783 0.2845 -0.1189
C22B C 0.8324(3) 0.2588(3) 0.1255(3)
C23B C 0.8381(3) 0.3143(3) 0.0588(3)
C24B C 0.9058(3) 0.2990(3) 0.0308(3)
H13B H 0.9465 0.2531 0.0535
C25B C 0.9144(3) 0.3505(3) -0.0300(3)
C26B C 0.8530(4) 0.4201(3) -0.0618(3)
H14B H 0.8585 0.4570 -0.1013
C27B C 0.7844(4) 0.4344(4) -0.0352(4)
H15B H 0.7433 0.4801 -0.0579
C28B C 0.7762(4) 0.3823(4) 0.0242(3)
H16B H 0.7296 0.3921 0.0414
C29B C 0.8897(3) -0.0916(3) -0.0902(3)
H17B H 0.9292 -0.0728 -0.0373
C30B C 0.7992(3) -0.1016(3) -0.1074(3)
H18B H 0.7785 -0.0900 -0.0665
C31B C 0.7377(3) -0.1292(3) -0.1858(3)
C32B C 0.6363(3) -0.1366(4) -0.2109(3)
H19B H 0.6203 -0.1979 -0.2161
H20B H 0.6048 -0.1105 -0.2656
C33B C 0.6008(4) -0.0956(5) -0.1539(5)
H21B H 0.6301 -0.1228 -0.0995
H22B H 0.6172 -0.0343 -0.1475
C34B C 0.4983(3) -0.1040(4) -0.1847(4)
C35B C 0.4372(4) -0.0356(4) -0.2202(4)
H23B H 0.4588 0.0183 -0.2283
C36B C 0.3444(3) -0.0478(4) -0.2434(3)
H24B H 0.3045 -0.0016 -0.2675
C37B C 0.3695(3) -0.1894(4) -0.2005(3)
H25B H 0.3468 -0.2433 -0.1940
C38B C 0.4614(3) -0.1810(4) -0.1774(4)
H26B H 0.4994 -0.2291 -0.1563
C39B C 0.7745(3) -0.1481(3) -0.2417(3)
H27B H 0.7366 -0.1691 -0.2943
C40B C 0.8659(3) -0.1365(3) -0.2209(3)
H28B H 0.8884 -0.1493 -0.2604
C41B C 2.0103(3) 0.7585(4) 0.6016(4)
H29B H 1.9749 0.8061 0.6026
C42B C 1.9669(3) 0.6890(3) 0.5523(3)
H30B H 1.9037 0.6903 0.5209
C43B C 2.0174(3) 0.6166(3) 0.5492(3)
C44B C 1.9693(3) 0.5371(3) 0.5006(3)
H31B H 1.9278 0.5157 0.5236
H32B H 1.9323 0.5546 0.4435
C45B C 2.1107(3) 0.6225(3) 0.5943(3)
H33B H 2.1483 0.5774 0.5919
C46B C 2.1490(3) 0.6941(3) 0.6427(3)
H34B H 2.2123 0.6954 0.6734
loop_
_geom_bond_atom_site_label_1
_geom_bond_atom_site_label_2
_geom_bond_site_symmetry_1
_geom_bond_site_symmetry_2
Cd1 N1 1_555 1_555
Cd2 N2 1_555 1_555
N1 C29 1_555 1_555
N2 C36 1_555 1_555
N3 Cd2 1_555 1_555
O1 Cd1 1_555 1_555
O2 Cd1 1_555 1_555
O3 C1 1_555 1_555
O4 C8 1_555 1_555
O5 C8 1_555 1_555
O6 Cd1 1_555 1_555
O7 C15 1_555 1_555
O8 C22 1_555 1_555
O9 C22 1_555 1_555
C1 O2 1_555 1_555
C2 C1 1_555 1_555
C3 C2 1_555 1_555
H1 C3 1_555 1_555
C4 C3 1_555 1_555
C5 C4 1_555 1_555
H2 C5 1_555 1_555
C6 C5 1_555 1_555
H3 C6 1_555 1_555
C7 C2 1_555 1_555
H4 C7 1_555 1_555
C8 C9 1_555 1_555
C9 C10 1_555 1_555
C10 H5 1_555 1_555
C11 C4 1_555 1_555
C12 C11 1_555 1_555
H6 C12 1_555 1_555
C13 C12 1_555 1_555
H7 C13 1_555 1_555
C14 C9 1_555 1_555
H8 C14 1_555 1_555
C15 O6 1_555 1_555
C16 C15 1_555 1_555
C17 C16 1_555 1_555
H9 C17 1_555 1_555
C18 C17 1_555 1_555
C19 C18 1_555 1_555
H10 C19 1_555 1_555
C20 C19 1_555 1_555
H11 C20 1_555 1_555
C21 C16 1_555 1_555
H12 C21 1_555 1_555
C22 C23 1_555 1_555
C23 C24 1_555 1_555
C24 H13 1_555 1_555
C25 C18 1_555 1_555
C26 C25 1_555 1_555
H14 C26 1_555 1_555
C27 C26 1_555 1_555
H15 C27 1_555 1_555
C28 C23 1_555 1_555
H16 C28 1_555 1_555
C29 H17 1_555 1_555
C30 C29 1_555 1_555
H18 C30 1_555 1_555
C31 C30 1_555 1_555
C32 C31 1_555 1_555
H19 C32 1_555 1_555
H20 C32 1_555 1_555
C33 C32 1_555 1_555
H21 C33 1_555 1_555
H22 C33 1_555 1_555
C34 C33 1_555 1_555
C35 C34 1_555 1_555
H23 C35 1_555 1_555
C36 C35 1_555 1_555
H24 C36 1_555 1_555
C37 N2 1_555 1_555
H25 C37 1_555 1_555
C38 C34 1_555 1_555
H26 C38 1_555 1_555
C39 C31 1_555 1_555
H27 C39 1_555 1_555
C40 N1 1_555 1_555
H28 C40 1_555 1_555
C41 N3 1_555 1_555
H29 C41 1_555 1_555
C42 C41 1_555 1_555
H30 C42 1_555 1_555
C43 C42 1_555 1_555
C44 C43 1_555 1_555
H31 C44 1_555 1_555
H32 C44 1_555 1_555
C45 C43 1_555 1_555
H33 C45 1_555 1_555
C46 N3 1_555 1_555
H34 C46 1_555 1_555
Cd1B O5 1_555 1_555
Cd2_2 O1 1_555 1_555
Cd2B O4 1_555 1_555
Cd2B_2 N3B 1_555 1_555
Cd2B_3 N2B 1_555 1_555
N1B Cd1B 1_555 1_555
N2B C36B 1_555 1_555
N2_2 Cd2_2 1_555 1_555
N3B C41B 1_555 1_555
N3_2 Cd2_2 1_555 1_555
O1_2 Cd2 1_555 1_555
O1B Cd1B 1_555 1_555
O2B Cd1B 1_555 1_555
O3B C1B 1_555 1_555
O4B Cd2_2 1_555 1_555
O4B_2 Cd2 1_555 1_555
O5B Cd1 1_555 1_555
O5B_2 Cd2 1_555 1_555
O6B Cd1B 1_555 1_555
O7B C15B 1_555 1_555
O8B Cd2_2 1_555 1_555
O8B_2 Cd2 1_555 1_555
O9B Cd1 1_555 1_555
O9B_2 Cd2 1_555 1_555
C1B O2B 1_555 1_555
C2B C1B 1_555 1_555
C3B C2B 1_555 1_555
H1B C3B 1_555 1_555
C4B C3B 1_555 1_555
C5B C4B 1_555 1_555
H2B C5B 1_555 1_555
C6B C5B 1_555 1_555
H3B C6B 1_555 1_555
C7B C2B 1_555 1_555
H4B C7B 1_555 1_555
C8B O4B 1_555 1_555
C9B C8B 1_555 1_555
C10B C9B 1_555 1_555
H5B C10B 1_555 1_555
C11B C4B 1_555 1_555
C12B C11B 1_555 1_555
H6B C12B 1_555 1_555
C13B C12B 1_555 1_555
H7B C13B 1_555 1_555
C14B C9B 1_555 1_555
H8B C14B 1_555 1_555
C15B O6B 1_555 1_555
C16B C15B 1_555 1_555
C17B C16B 1_555 1_555
H9B C17B 1_555 1_555
C18B C17B 1_555 1_555
C19B C18B 1_555 1_555
H10B C19B 1_555 1_555
C20B C19B 1_555 1_555
H11B C20B 1_555 1_555
C21B C16B 1_555 1_555
H12B C21B 1_555 1_555
C22B O8B 1_555 1_555
C23B C22B 1_555 1_555
C24B C23B 1_555 1_555
H13B C24B 1_555 1_555
C25B C18B 1_555 1_555
C26B C25B 1_555 1_555
H14B C26B 1_555 1_555
C27B C26B 1_555 1_555
H15B C27B 1_555 1_555
C28B C23B 1_555 1_555
H16B C28B 1_555 1_555
C29B N1B 1_555 1_555
H17B C29B 1_555 1_555
C30B C29B 1_555 1_555
H18B C30B 1_555 1_555
C31B C30B 1_555 1_555
C32B C31B 1_555 1_555
H19B C32B 1_555 1_555
H20B C32B 1_555 1_555
C33B C32B 1_555 1_555
H21B C33B 1_555 1_555
H22B C33B 1_555 1_555
C34B C33B 1_555 1_555
C35B C34B 1_555 1_555
H23B C35B 1_555 1_555
C36B C35B 1_555 1_555
H24B C36B 1_555 1_555
C37B N2B 1_555 1_555
H25B C37B 1_555 1_555
C38B C34B 1_555 1_555
H26B C38B 1_555 1_555
C39B C31B 1_555 1_555
H27B C39B 1_555 1_555
C40B N1B 1_555 1_555
H28B C40B 1_555 1_555
C41B H29B 1_555 1_555
C42B C41B 1_555 1_555
H30B C42B 1_555 1_555
C43B C42B 1_555 1_555
C44B C44 1_555 1_555
H31B C44B 1_555 1_555
H32B C44B 1_555 1_555
C45B C43B 1_555 1_555
H33B C45B 1_555 1_555
C46B N3B 1_555 1_555
H34B C46B 1_555 1_555
O5 Cd2B 1_555 1_555
O8 Cd2B 1_555 1_555
O9 Cd1B 1_555 1_555
O9 Cd2B 1_555 1_555
C6 C7 1_555 1_555
C10 C11 1_555 1_555
C13 C14 1_555 1_555
C20 C21 1_555 1_555
C24 C25 1_555 1_555
C27 C28 1_555 1_555
C37 C38 1_555 1_555
C39 C40 1_555 1_555
C45 C46 1_555 1_555
Cd2_2 O5B 1_555 1_555
Cd2_2 O9B 1_555 1_555
Cd2B O1B 1_555 1_555
O5B C8B 1_555 1_555
O9B C22B 1_555 1_555
C6B C7B 1_555 1_555
C10B C11B 1_555 1_555
C13B C14B 1_555 1_555
C20B C21B 1_555 1_555
C24B C25B 1_555 1_555
C27B C28B 1_555 1_555
C37B C38B 1_555 1_555
C39B C40B 1_555 1_555
C43B C44B 1_555 1_555
C45B C46B 1_555 1_555

#END
