
#######################################################################
#
#                 Cambridge Crystallographic Data Centre
#                                CCDC 
#
#######################################################################
#
# If this CIF has been generated from an entry in the Cambridge 
# Structural Database, then it will include bibliographic, chemical, 
# crystal, experimental, refinement or atomic coordinate data resulting 
# from the CCDC's data processing and validation procedures.
#
#######################################################################

data_FAZYOV
_symmetry_cell_setting           orthorhombic
_symmetry_space_group_name_H-M   'P c c n'
_symmetry_Int_Tables_number      56
_space_group_name_Hall           '-P 2ab 2ac'
loop_
_symmetry_equiv_pos_site_id
_symmetry_equiv_pos_as_xyz
1 x,y,z
2 1/2-x,1/2-y,z
3 -x,1/2+y,1/2-z
4 1/2+x,-y,1/2-z
5 -x,-y,-z
6 1/2+x,1/2+y,-z
7 x,1/2-y,1/2+z
8 1/2-x,y,1/2+z
_cell_length_a                   12.4508(6)
_cell_length_b                   25.8156(15)
_cell_length_c                   7.1127(4)
_cell_angle_alpha                90
_cell_angle_beta                 90
_cell_angle_gamma                90
_cell_volume                     2286.2
loop_
_atom_site_label
_atom_site_type_symbol
_atom_site_fract_x
_atom_site_fract_y
_atom_site_fract_z
Cd1 Cd -0.19787(2) 0.170504(12) 0.25451(4)
O1 O -0.0779(3) 0.12546(16) 0.4002(6)
O2 O -0.2006(3) 0.10865(15) 0.6189(5)
O3 O -0.1064(2) 0.24667(15) 0.2805(5)
O4 O -0.1658(2) 0.31283(13) 0.4474(4)
C1 C -0.1082(4) 0.10373(19) 0.5481(7)
C2 C -0.0295(4) 0.06811(18) 0.6427(7)
C3 C -0.0569(4) 0.04458(18) 0.8127(6)
H1 H -0.1240 0.0510 0.8650
C4 C 0.0142(4) 0.01164(16) 0.9059(6)
C5 C 0.1131(4) 0.0026(2) 0.8214(7)
H2 H 0.1617 -0.0196 0.8795
C6 C 0.1410(4) 0.0257(2) 0.6537(7)
H3 H 0.2077 0.0187 0.6003
C7 C 0.0706(4) 0.0594(2) 0.5633(8)
H4 H 0.0903 0.0757 0.4520
C8 C -0.0899(3) 0.28347(18) 0.3879(6)
C9 C 0.0224(3) 0.29593(17) 0.4463(6)
C10 C 0.1024(3) 0.25872(17) 0.4353(6)
H5 H 0.0862 0.2257 0.3911
C11 C 0.2073(3) 0.27046(19) 0.4900(6)
C12 C 0.2315(4) 0.32047(18) 0.5493(7)
H6 H 0.3017 0.3289 0.5817
C13 C 0.1519(4) 0.35763(18) 0.5603(7)
H7 H 0.1687 0.3909 0.6012
C14 C 0.0470(3) 0.34574(19) 0.5110(6)
H8 H -0.0065 0.3707 0.5207
Cd1D Cd 0.19787(2) -0.170504(12) 1.74549(4)
Cd1G Cd -0.30213(2) 0.170504(12) 0.75451(4)
Cd1F Cd -0.19787(2) 0.329496(12) 0.75451(4)
Cd1A Cd -0.30213(2) 0.329496(12) 0.25451(4)
Cd1C Cd 0.30213(2) -0.170504(12) 1.24549(4)
Cd1A_2 Cd 0.69787(2) 0.329496(12) 0.25451(4)
Cd1_2 Cd 0.80213(2) 0.170504(12) 0.25451(4)
Cd1G_2 Cd 0.69787(2) 0.170504(12) 0.75451(4)
O1D O 0.0779(3) -0.12546(16) 1.5998(6)
O2D O 0.2006(3) -0.10865(15) 1.3811(5)
O2G O -0.2994(3) 0.10865(15) 0.1189(5)
O2C O 0.2994(3) -0.10865(15) 1.8811(5)
O3A O 0.6064(2) 0.25333(15) 0.2805(5)
O3D O 0.1064(2) -0.24667(15) 1.7195(5)
O4A O 0.6658(2) 0.18717(13) 0.4474(4)
O4F O -0.1658(2) 0.18717(13) -0.0526(4)
O4A_2 O -0.3342(2) 0.18717(13) 0.4474(4)
O4E O 0.3342(2) -0.18717(13) 1.5526(4)
O4B O 0.1658(2) -0.18717(13) 2.0526(4)
C1D C 0.1082(4) -0.10373(19) 1.4519(7)
C2D C 0.0295(4) -0.06811(18) 1.3573(7)
C3D C 0.0569(4) -0.04458(18) 1.1873(6)
H1D H 0.1240 -0.0510 1.1350
C4D C -0.0142(4) -0.01164(16) 1.0941(6)
C5D C -0.1131(4) -0.0026(2) 1.1786(7)
H2D H -0.1617 0.0196 1.1205
C6D C -0.1410(4) -0.0257(2) 1.3463(7)
H3D H -0.2077 -0.0187 1.3997
C7D C -0.0706(4) -0.0594(2) 1.4367(8)
H4D H -0.0903 -0.0757 1.5480
C8A C 0.5899(3) 0.21653(18) 0.3879(6)
C9A C 0.4776(3) 0.20407(17) 0.4463(6)
C10A C 0.3976(3) 0.24128(17) 0.4353(6)
H5A H 0.4138 0.2743 0.3911
C11A C 0.2927(3) 0.22954(19) 0.4900(6)
C12A C 0.2685(4) 0.17953(18) 0.5493(7)
H6A H 0.1983 0.1711 0.5817
C13A C 0.3481(4) 0.14237(18) 0.5603(7)
H7A H 0.3313 0.1091 0.6012
C14A C 0.4530(3) 0.15426(19) 0.5110(6)
H8A H 0.5065 0.1293 0.5207
loop_
_geom_bond_atom_site_label_1
_geom_bond_atom_site_label_2
_geom_bond_site_symmetry_1
_geom_bond_site_symmetry_2
Cd1 O1 1_555 1_555
O1 C1 1_555 1_555
O2 C1 1_555 1_555
O3 Cd1 1_555 1_555
O4 C8 1_555 1_555
C1 C2 1_555 1_555
C2 C3 1_555 1_555
C3 H1 1_555 1_555
C4 C3 1_555 1_555
C5 C4 1_555 1_555
H2 C5 1_555 1_555
C6 C5 1_555 1_555
H3 C6 1_555 1_555
C7 C2 1_555 1_555
H4 C7 1_555 1_555
C8 O3 1_555 1_555
C9 C8 1_555 1_555
C10 C9 1_555 1_555
H5 C10 1_555 1_555
C11 C10 1_555 1_555
C12 C11 1_555 1_555
H6 C12 1_555 1_555
C13 C12 1_555 1_555
H7 C13 1_555 1_555
C14 C9 1_555 1_555
H8 C14 1_555 1_555
Cd1D O1D 1_555 1_555
Cd1G O2 1_555 1_555
Cd1F O4 1_555 1_555
Cd1A O4 1_555 1_555
Cd1C O2D 1_555 1_555
Cd1A_2 O3A 1_555 1_555
Cd1_2 O4A 1_555 1_555
Cd1G_2 O4A 1_555 1_555
O1D C1D 1_555 1_555
O2D C1D 1_555 1_555
O2G Cd1 1_555 1_555
O2C Cd1D 1_555 1_555
O3A C8A 1_555 1_555
O3D Cd1D 1_555 1_555
O4A C8A 1_555 1_555
O4F Cd1 1_555 1_555
O4A_2 Cd1 1_555 1_555
O4E Cd1D 1_555 1_555
O4B Cd1D 1_555 1_555
C1D C2D 1_555 1_555
C2D C3D 1_555 1_555
C3D H1D 1_555 1_555
C4D C4 1_555 1_555
C5D C4D 1_555 1_555
H2D C5D 1_555 1_555
C6D C5D 1_555 1_555
H3D C6D 1_555 1_555
C7D C2D 1_555 1_555
H4D C7D 1_555 1_555
C8A C9A 1_555 1_555
C9A C10A 1_555 1_555
C10A H5A 1_555 1_555
C11A C11 1_555 1_555
C12A C11A 1_555 1_555
H6A C12A 1_555 1_555
C13A C12A 1_555 1_555
H7A C13A 1_555 1_555
C14A C9A 1_555 1_555
H8A C14A 1_555 1_555
C6 C7 1_555 1_555
C13 C14 1_555 1_555
Cd1G O4A_2 1_555 1_555
Cd1C O4E 1_555 1_555
C3D C4D 1_555 1_555
C6D C7D 1_555 1_555
C10A C11A 1_555 1_555
C13A C14A 1_555 1_555

#END
