
#######################################################################
#
#                 Cambridge Crystallographic Data Centre
#                                CCDC 
#
#######################################################################
#
# If this CIF has been generated from an entry in the Cambridge 
# Structural Database, then it will include bibliographic, chemical, 
# crystal, experimental, refinement or atomic coordinate data resulting 
# from the CCDC's data processing and validation procedures.
#
#######################################################################

data_FAZYEL
_symmetry_cell_setting           monoclinic
_symmetry_space_group_name_H-M   'P 21/c'
_symmetry_Int_Tables_number      14
_space_group_name_Hall           '-P 2ybc'
loop_
_symmetry_equiv_pos_site_id
_symmetry_equiv_pos_as_xyz
1 x,y,z
2 -x,1/2+y,1/2-z
3 -x,-y,-z
4 x,1/2-y,1/2+z
_cell_length_a                   8.9207(6)
_cell_length_b                   20.6116(14)
_cell_length_c                   9.6471(6)
_cell_angle_alpha                90
_cell_angle_beta                 103.523(2)
_cell_angle_gamma                90
_cell_volume                     1724.63
loop_
_atom_site_label
_atom_site_type_symbol
_atom_site_fract_x
_atom_site_fract_y
_atom_site_fract_z
Cd1 Cd 0.11863(6) -0.50175(3) -0.09096(5)
N1 N 0.2656(7) -0.5036(3) -0.2512(6)
O1 O -0.0664(8) -0.4384(3) -0.2158(7)
O2 O 0.2400(8) -0.5654(3) 0.0826(7)
O3 O -0.7935(7) -0.0865(2) -0.4653(7)
O4 O -0.9666(8) -0.0860(3) -0.3323(7)
C1 C 0.4073(10) -0.5299(5) -0.2210(10)
H1 H 0.4449 -0.5485 -0.1318
C2 C 0.4977(10) -0.5300(5) -0.3173(10)
H2 H 0.5933 -0.5504 -0.2937
C3 C 0.4508(8) -0.5008(4) -0.4478(7)
C4 C 0.3044(10) -0.4737(4) -0.4775(9)
H3 H 0.2651 -0.4538 -0.5650
C5 C 0.2175(10) -0.4763(4) -0.3776(9)
H4 H 0.1197 -0.4579 -0.4001
C6 C -0.1882(11) -0.4188(4) -0.1887(10)
C7 C -0.2837(10) -0.3720(4) -0.2930(9)
C8 C -0.4184(10) -0.3462(4) -0.2655(9)
H5 H -0.4479 -0.3586 -0.1831
C9 C -0.5094(10) -0.3026(4) -0.3575(9)
C10 C -0.4597(13) -0.2860(5) -0.4817(10)
H6 H -0.5191 -0.2573 -0.5464
C11 C -0.3269(14) -0.3105(5) -0.5106(12)
H7 H -0.2962 -0.2984 -0.5926
C12 C -0.2394(12) -0.3542(4) -0.4139(11)
H8 H -0.1495 -0.3714 -0.4320
C13 C -0.8624(11) -0.1125(4) -0.3816(10)
C14 C -0.8189(10) -0.1807(4) -0.3337(9)
C15 C -0.6913(10) -0.2097(4) -0.3648(8)
H9 H -0.6315 -0.1857 -0.4134
C16 C -0.6482(10) -0.2734(4) -0.3263(8)
C17 C -0.7432(12) -0.3080(4) -0.2571(10)
H10 H -0.7191 -0.3509 -0.2315
C18 C -0.8717(11) -0.2804(4) -0.2255(11)
H11 H -0.9334 -0.3048 -0.1797
C19 C -0.9098(11) -0.2160(4) -0.2618(10)
H12 H -0.9949 -0.1968 -0.2382
Cd1B Cd 0.88137(6) -0.49825(3) -0.90904(5)
Cd1B_2 Cd -0.11863(6) -0.49825(3) 0.09096(5)
Cd1C Cd -0.88137(6) 0.00175(3) -0.59096(5)
Cd1A Cd -1.11863(6) -0.00175(3) -0.40904(5)
Cd1A_2 Cd 0.88137(6) -1.00175(3) 0.59096(5)
Cd1C_2 Cd 1.11863(6) -0.99825(3) 0.40904(5)
N1B N 0.7344(7) -0.4964(3) -0.7488(6)
O1B O 1.0664(8) -0.5616(3) -0.7842(7)
O1B_2 O 0.0664(8) -0.5616(3) 0.2158(7)
O2B O 0.7600(8) -0.4346(3) -1.0826(7)
O2B_2 O -0.2400(8) -0.4346(3) -0.0826(7)
O3A O 0.7935(7) -0.5865(2) -1.0347(7)
O3C O 0.2065(7) -0.4135(2) 0.0347(7)
O3B O 0.7935(7) -0.9135(2) 0.4653(7)
O4C O 1.0334(8) -0.4140(3) -0.8323(7)
O4A O -0.0334(8) -0.5860(3) -0.1677(7)
O4B O 0.9666(8) -0.9140(3) 0.3323(7)
C1B C 0.5927(10) -0.4701(5) -0.7790(10)
H1B H 0.5551 -0.4515 -0.8682
C2B C 0.5023(10) -0.4700(5) -0.6827(10)
H2B H 0.4067 -0.4496 -0.7063
C3B C 0.5492(8) -0.4992(4) -0.5522(7)
C4B C 0.6956(10) -0.5263(4) -0.5225(9)
H3B H 0.7349 -0.5462 -0.4350
C5B C 0.7825(10) -0.5237(4) -0.6224(9)
H4B H 0.8803 -0.5421 -0.5999
C6B C 0.1882(11) -0.5812(4) 0.1887(10)
C7B C 0.2837(10) -0.6280(4) 0.2930(9)
C8B C 0.4184(10) -0.6538(4) 0.2655(9)
H5B H 0.4479 -0.6414 0.1831
C9B C 0.5094(10) -0.6974(4) 0.3575(9)
C10B C 0.4597(13) -0.7140(5) 0.4817(10)
H6B H 0.5191 -0.7427 0.5464
C11B C 0.3269(14) -0.6895(5) 0.5106(12)
H7B H 0.2962 -0.7016 0.5926
C12B C 0.2394(12) -0.6458(4) 0.4139(11)
H8B H 0.1495 -0.6286 0.4320
C13B C 0.8624(11) -0.8875(4) 0.3816(10)
C14B C 0.8189(10) -0.8193(4) 0.3337(9)
C15B C 0.6913(10) -0.7903(4) 0.3648(8)
H9B H 0.6315 -0.8143 0.4134
C16B C 0.6482(10) -0.7266(4) 0.3263(8)
C17B C 0.7432(12) -0.6920(4) 0.2571(10)
H10B H 0.7191 -0.6491 0.2315
C18B C 0.8717(11) -0.7196(4) 0.2255(11)
H11B H 0.9334 -0.6952 0.1797
C19B C 0.9098(11) -0.7840(4) 0.2618(10)
H12B H 0.9949 -0.8032 0.2382
loop_
_geom_bond_atom_site_label_1
_geom_bond_atom_site_label_2
_geom_bond_site_symmetry_1
_geom_bond_site_symmetry_2
Cd1 N1 1_555 1_555
N1 C1 1_555 1_555
O1 Cd1 1_555 1_555
O2 Cd1 1_555 1_555
O3 C13 1_555 1_555
O4 C13 1_555 1_555
C1 H1 1_555 1_555
C2 C1 1_555 1_555
H2 C2 1_555 1_555
C3 C2 1_555 1_555
C4 C3 1_555 1_555
H3 C4 1_555 1_555
C5 N1 1_555 1_555
H4 C5 1_555 1_555
C6 O1 1_555 1_555
C7 C6 1_555 1_555
C8 C7 1_555 1_555
H5 C8 1_555 1_555
C9 C8 1_555 1_555
C10 C9 1_555 1_555
H6 C10 1_555 1_555
C11 C10 1_555 1_555
H7 C11 1_555 1_555
C12 C7 1_555 1_555
H8 C12 1_555 1_555
C13 C14 1_555 1_555
C14 C15 1_555 1_555
C15 H9 1_555 1_555
C16 C9 1_555 1_555
C17 C16 1_555 1_555
H10 C17 1_555 1_555
C18 C17 1_555 1_555
H11 C18 1_555 1_555
C19 C14 1_555 1_555
H12 C19 1_555 1_555
Cd1B N1B 1_555 1_555
Cd1B_2 O1B_2 1_555 1_555
Cd1C O3 1_555 1_555
Cd1A O4 1_555 1_555
Cd1A_2 O3B 1_555 1_555
Cd1C_2 O4B 1_555 1_555
N1B C1B 1_555 1_555
O1B Cd1B 1_555 1_555
O1B_2 C6B 1_555 1_555
O2B Cd1B 1_555 1_555
O2B_2 C6 1_555 1_555
O3A Cd1B 1_555 1_555
O3C Cd1 1_555 1_555
O3B C13B 1_555 1_555
O4C Cd1B 1_555 1_555
O4A Cd1 1_555 1_555
O4B C13B 1_555 1_555
C1B H1B 1_555 1_555
C2B C1B 1_555 1_555
H2B C2B 1_555 1_555
C3B C3 1_555 1_555
C4B C3B 1_555 1_555
H3B C4B 1_555 1_555
C5B N1B 1_555 1_555
H4B C5B 1_555 1_555
C6B O2 1_555 1_555
C7B C6B 1_555 1_555
C8B C7B 1_555 1_555
H5B C8B 1_555 1_555
C9B C8B 1_555 1_555
C10B C9B 1_555 1_555
H6B C10B 1_555 1_555
C11B C10B 1_555 1_555
H7B C11B 1_555 1_555
C12B C7B 1_555 1_555
H8B C12B 1_555 1_555
C13B C14B 1_555 1_555
C14B C15B 1_555 1_555
C15B H9B 1_555 1_555
C16B C9B 1_555 1_555
C17B C16B 1_555 1_555
H10B C17B 1_555 1_555
C18B C17B 1_555 1_555
H11B C18B 1_555 1_555
C19B C14B 1_555 1_555
H12B C19B 1_555 1_555
C4 C5 1_555 1_555
C11 C12 1_555 1_555
C15 C16 1_555 1_555
C18 C19 1_555 1_555
Cd1B_2 O2B_2 1_555 1_555
C2B C3B 1_555 1_555
C4B C5B 1_555 1_555
C11B C12B 1_555 1_555
C15B C16B 1_555 1_555
C18B C19B 1_555 1_555

#END
