
#######################################################################
#
#                 Cambridge Crystallographic Data Centre
#                                CCDC 
#
#######################################################################
#
# If this CIF has been generated from an entry in the Cambridge 
# Structural Database, then it will include bibliographic, chemical, 
# crystal, experimental, refinement or atomic coordinate data resulting 
# from the CCDC's data processing and validation procedures.
#
#######################################################################

data_FAZZUC
_symmetry_cell_setting           monoclinic
_symmetry_space_group_name_H-M   'P 21/n'
_symmetry_Int_Tables_number      14
_space_group_name_Hall           '-P 2yn'
loop_
_symmetry_equiv_pos_site_id
_symmetry_equiv_pos_as_xyz
1 x,y,z
2 1/2-x,1/2+y,1/2-z
3 -x,-y,-z
4 1/2+x,1/2-y,1/2+z
_cell_length_a                   13.8132(12)
_cell_length_b                   11.1759(9)
_cell_length_c                   14.4009(12)
_cell_angle_alpha                90
_cell_angle_beta                 96.370(2)
_cell_angle_gamma                90
_cell_volume                     2209.41
loop_
_atom_site_label
_atom_site_type_symbol
_atom_site_fract_x
_atom_site_fract_y
_atom_site_fract_z
Cd1 Cd -0.242510(8) 0.541970(10) 0.269520(8)
S1 S -0.30512(3) 0.29998(3) 0.10791(3)
N1 N -0.38968(10) 0.61028(12) 0.21259(10)
O1 O -0.40995(10) 0.27773(13) 0.09529(10)
O2 O -0.27981(13) 0.36564(14) 0.19702(12)
N2 N -0.15771(10) 0.27732(12) 0.48971(9)
N3 N -0.11838(10) 0.60034(13) 0.18809(10)
O3 O -0.25256(11) 0.18504(11) 0.11843(10)
C1 C -0.12240(13) 0.46389(15) 0.46343(12)
H1 H -0.0945 0.5397 0.4688
O4 O -0.27468(12) 0.36680(15) 0.03025(12)
C2 C -0.52868(12) 0.64032(18) 0.12130(12)
H2 H -0.5828 0.6295 0.0776
C3 C -0.42288(12) 0.71806(15) 0.22950(12)
H3 H -0.3926 0.7713 0.2731
C4 C -0.21209(12) 0.31552(14) 0.41213(11)
H4 H -0.2576 0.2687 0.3761
C5 C -0.23514(12) 0.16409(14) 0.60948(12)
C6 C -0.10020(13) 0.37167(16) 0.52293(12)
H5 H -0.0550 0.3721 0.5758
N4 N -0.19246(10) 0.42811(12) 0.39382(9)
N5 N -0.50639(10) 0.74006(14) 0.17503(10)
N6 N -0.00660(12) 0.71074(14) 0.13208(12)
C7 C -0.45609(12) 0.56084(16) 0.14460(12)
H6 H -0.4517 0.4850 0.1189
C8 C -0.31738(18) 0.05683(17) 0.72259(18)
H7 H -0.3284 -0.0148 0.7526
C9 C -0.05697(13) 0.69104(16) 0.20491(13)
H8 H -0.0498 0.7351 0.2600
C10 C -0.34882(17) 0.26354(17) 0.69878(16)
H9 H -0.3815 0.3331 0.7122
C11 C -0.16485(14) 0.16192(15) 0.53576(13)
H10 H -0.1008 0.1388 0.5648
H11 H -0.1861 0.1020 0.4892
C12 C -0.25325(18) 0.05907(17) 0.65494(17)
H12 H -0.2221 -0.0110 0.6401
C13 C -0.10632(15) 0.56107(17) 0.09913(15)
H13 H -0.1398 0.4979 0.0682
C14 C 0.0773(2) 0.9303(2) -0.0182(2)
H14 H 0.1300 0.8840 -0.0315
C15 C 0.03182(15) 0.90496(18) 0.05960(16)
C16 C -0.36512(13) 0.15931(16) 0.74602(13)
C17 C -0.28420(16) 0.26583(16) 0.63137(15)
H15 H -0.2739 0.3371 0.6006
C18 C -0.56648(15) 0.84682(18) 0.17889(15)
H16 H -0.6045 0.8579 0.1187
H17 H -0.5244 0.9159 0.1903
C19 C 0.06752(17) 0.8044(2) 0.1245(2)
H18 H 0.1245 0.7683 0.1022
H19 H 0.0871 0.8370 0.1861
C20 C -0.03801(17) 0.62913(19) 0.06426(16)
H20 H -0.0165 0.6220 0.0056
C21 C -0.0457(2) 0.9759(2) 0.0775(2)
H21 H -0.0774 0.9608 0.1300
Cd1B Cd -0.757490(8) 0.458030(10) 0.730480(8)
Cd1A Cd -0.257490(8) 0.041970(10) 0.230480(8)
Cd1B_2 Cd 0.242510(8) 1.458030(10) -0.269520(8)
Cd1C Cd -0.742510(8) 0.958030(10) 0.769520(8)
S1B S -0.69488(3) 0.70002(3) 0.89209(3)
N1B N -0.61032(10) 0.38972(12) 0.78741(10)
O1B O -0.59005(10) 0.72227(13) 0.90471(10)
O2B O -0.72019(13) 0.63436(14) 0.80298(12)
N2B N -0.84229(10) 0.72268(12) 0.51029(9)
N3B N 0.11838(10) 1.39966(13) -0.18809(10)
N3B_2 N -0.88162(10) 0.39966(13) 0.81191(10)
O3A O -0.24744(11) 0.68504(11) 0.38157(10)
O3C O -0.75256(11) 0.31496(11) 0.61843(10)
O3B O -0.74744(11) 0.81496(11) 0.88157(10)
C1B C -0.87760(13) 0.53611(15) 0.53657(12)
H1B H -0.9055 0.4603 0.5312
O4B O -0.72532(12) 0.63320(15) 0.96975(12)
C2B C -0.47132(12) 0.35968(18) 0.87870(12)
H2B H -0.4172 0.3705 0.9224
C3B C -0.57712(12) 0.28194(15) 0.77050(12)
H3B H -0.6074 0.2287 0.7269
C4B C -0.78791(12) 0.68448(14) 0.58787(11)
H4B H -0.7424 0.7313 0.6239
C5B C -0.76486(12) 0.83591(14) 0.39052(12)
C6B C -0.89980(13) 0.62833(16) 0.47707(12)
H5B H -0.9450 0.6279 0.4242
N4B N -0.80754(10) 0.57189(12) 0.60618(9)
N5B N -0.49361(10) 0.25994(14) 0.82497(10)
N6B N 0.00660(12) 1.28926(14) -0.13208(12)
C7B C -0.54391(12) 0.43916(16) 0.85540(12)
H6B H -0.5483 0.5150 0.8811
C8B C -0.68262(18) 0.94317(17) 0.27741(18)
H7B H -0.6716 1.0148 0.2474
C9B C 0.05697(13) 1.30896(16) -0.20491(13)
H8B H 0.0498 1.2649 -0.2600
C10B C -0.65118(17) 0.73646(17) 0.30122(16)
H9B H -0.6185 0.6669 0.2878
C11B C -0.83515(14) 0.83808(15) 0.46424(13)
H10B H -0.8992 0.8612 0.4352
H11B H -0.8139 0.8980 0.5108
C12B C -0.74675(18) 0.94093(17) 0.34506(17)
H12B H -0.7779 1.0110 0.3599
C13B C 0.10632(15) 1.43893(17) -0.09913(15)
H13B H 0.1398 1.5021 -0.0682
C14B C -0.0773(2) 1.0697(2) 0.0182(2)
H14B H -0.1300 1.1160 0.0315
C15B C -0.03182(15) 1.09504(18) -0.05960(16)
C16B C -0.63488(13) 0.84069(16) 0.25398(13)
C17B C -0.71580(16) 0.73417(16) 0.36863(15)
H15B H -0.7261 0.6629 0.3994
C18B C -0.43352(15) 0.15318(18) 0.82111(15)
H16B H -0.3955 0.1421 0.8813
H17B H -0.4756 0.0841 0.8097
C19B C -0.06752(17) 1.1956(2) -0.1245(2)
H18B H -0.1245 1.2317 -0.1022
H19B H -0.0871 1.1630 -0.1861
C20B C 0.03801(17) 1.37087(19) -0.06426(16)
H20B H 0.0165 1.3780 -0.0056
C21B C 0.0457(2) 1.0241(2) -0.0775(2)
H21B H 0.0774 1.0392 -0.1300
loop_
_geom_bond_atom_site_label_1
_geom_bond_atom_site_label_2
_geom_bond_site_symmetry_1
_geom_bond_site_symmetry_2
Cd1 N1 1_555 1_555
S1 O1 1_555 1_555
N1 C3 1_555 1_555
O2 Cd1 1_555 1_555
N2 C4 1_555 1_555
N3 Cd1 1_555 1_555
O3 S1 1_555 1_555
C1 H1 1_555 1_555
O4 S1 1_555 1_555
C2 H2 1_555 1_555
C3 H3 1_555 1_555
C4 H4 1_555 1_555
C5 C11 1_555 1_555
C6 N2 1_555 1_555
H5 C6 1_555 1_555
N4 Cd1 1_555 1_555
N5 C2 1_555 1_555
N6 C9 1_555 1_555
C7 N1 1_555 1_555
H6 C7 1_555 1_555
C8 H7 1_555 1_555
C9 N3 1_555 1_555
H8 C9 1_555 1_555
C10 H9 1_555 1_555
C11 N2 1_555 1_555
H10 C11 1_555 1_555
H11 C11 1_555 1_555
C12 C5 1_555 1_555
H12 C12 1_555 1_555
C13 N3 1_555 1_555
H13 C13 1_555 1_555
C14 H14 1_555 1_555
C15 C14 1_555 1_555
C16 C8 1_555 1_555
C17 C5 1_555 1_555
H15 C17 1_555 1_555
C18 N5 1_555 1_555
H16 C18 1_555 1_555
H17 C18 1_555 1_555
C19 N6 1_555 1_555
H18 C19 1_555 1_555
H19 C19 1_555 1_555
C20 N6 1_555 1_555
H20 C20 1_555 1_555
C21 C15 1_555 1_555
H21 C21 1_555 1_555
Cd1B N1B 1_555 1_555
Cd1A O3 1_555 1_555
Cd1B_2 N3B 1_555 1_555
Cd1C O3B 1_555 1_555
S1B O1B 1_555 1_555
N1B C3B 1_555 1_555
O2B Cd1B 1_555 1_555
N2B C4B 1_555 1_555
N3B C9B 1_555 1_555
N3B_2 Cd1B 1_555 1_555
O3A Cd1 1_555 1_555
O3C Cd1B 1_555 1_555
O3B S1B 1_555 1_555
C1B H1B 1_555 1_555
O4B S1B 1_555 1_555
C2B H2B 1_555 1_555
C3B H3B 1_555 1_555
C4B H4B 1_555 1_555
C5B C11B 1_555 1_555
C6B N2B 1_555 1_555
H5B C6B 1_555 1_555
N4B Cd1B 1_555 1_555
N5B C2B 1_555 1_555
N6B C9B 1_555 1_555
C7B N1B 1_555 1_555
H6B C7B 1_555 1_555
C8B H7B 1_555 1_555
C9B H8B 1_555 1_555
C10B H9B 1_555 1_555
C11B N2B 1_555 1_555
H10B C11B 1_555 1_555
H11B C11B 1_555 1_555
C12B C5B 1_555 1_555
H12B C12B 1_555 1_555
C13B N3B 1_555 1_555
H13B C13B 1_555 1_555
C14B C21 1_555 1_555
H14B C14B 1_555 1_555
C15B C14B 1_555 1_555
C16B C18 1_555 1_555
C17B C5B 1_555 1_555
H15B C17B 1_555 1_555
C18B C16 1_555 1_555
H16B C18B 1_555 1_555
H17B C18B 1_555 1_555
C19B N6B 1_555 1_555
H18B C19B 1_555 1_555
H19B C19B 1_555 1_555
C20B N6B 1_555 1_555
H20B C20B 1_555 1_555
C21B C14 1_555 1_555
H21B C21B 1_555 1_555
S1 O2 1_555 1_555
C1 C6 1_555 1_555
C1 N4 1_555 1_555
C2 C7 1_555 1_555
C3 N5 1_555 1_555
C4 N4 1_555 1_555
C8 C12 1_555 1_555
C10 C16 1_555 1_555
C10 C17 1_555 1_555
C13 C20 1_555 1_555
C15 C19 1_555 1_555
S1B O2B 1_555 1_555
C1B C6B 1_555 1_555
C1B N4B 1_555 1_555
C2B C7B 1_555 1_555
C3B N5B 1_555 1_555
C4B N4B 1_555 1_555
N5B C18B 1_555 1_555
C8B C12B 1_555 1_555
C8B C16B 1_555 1_555
C10B C16B 1_555 1_555
C10B C17B 1_555 1_555
C13B C20B 1_555 1_555
C15B C19B 1_555 1_555
C15B C21B 1_555 1_555

#END
