
#######################################################################
#
#                 Cambridge Crystallographic Data Centre
#                                CCDC 
#
#######################################################################
#
# If this CIF has been generated from an entry in the Cambridge 
# Structural Database, then it will include bibliographic, chemical, 
# crystal, experimental, refinement or atomic coordinate data resulting 
# from the CCDC's data processing and validation procedures.
#
#######################################################################

data_FAZZEN
_symmetry_cell_setting           orthorhombic
_symmetry_space_group_name_H-M   'P b c a'
_symmetry_Int_Tables_number      61
_space_group_name_Hall           '-P 2ac 2ab'
loop_
_symmetry_equiv_pos_site_id
_symmetry_equiv_pos_as_xyz
1 x,y,z
2 1/2-x,-y,1/2+z
3 -x,1/2+y,1/2-z
4 1/2+x,1/2-y,-z
5 -x,-y,-z
6 1/2+x,y,1/2-z
7 x,1/2-y,1/2+z
8 1/2-x,1/2+y,z
_cell_length_a                   9.6450(6)
_cell_length_b                   19.0589(11)
_cell_length_c                   21.2920(12)
_cell_angle_alpha                90
_cell_angle_beta                 90
_cell_angle_gamma                90
_cell_volume                     3913.96
loop_
_atom_site_label
_atom_site_type_symbol
_atom_site_fract_x
_atom_site_fract_y
_atom_site_fract_z
Ag1 Ag 0.333810(18) 0.112704(8) 0.431419(8)
C1 C 0.4013(2) -0.04300(12) 0.43476(11)
H1 H 0.3080 -0.0531 0.4458
N1 N 0.4502(2) 0.02083(9) 0.42510(9)
C2 C 0.5879(2) 0.01230(12) 0.41010(11)
H2 H 0.6510 0.0491 0.4006
C3 C 0.6193(2) -0.05696(12) 0.41097(11)
H3 H 0.7069 -0.0775 0.4022
N2 N 0.49975(19) -0.09153(9) 0.42696(9)
C4 C 0.4806(2) -0.16771(11) 0.43325(11)
H4 H 0.4315 -0.1780 0.4730
H5 H 0.5723 -0.1910 0.4347
C5 C 0.3976(2) -0.19628(11) 0.37839(10)
H6 H 0.4494 -0.1876 0.3390
H7 H 0.3085 -0.1706 0.3757
C6 C 0.3679(2) -0.27434(11) 0.38399(10)
H8 H 0.3237 -0.2907 0.3447
H9 H 0.4568 -0.2998 0.3887
N3 N 0.2765(2) -0.29215(10) 0.43773(9)
H10 H 0.214(2) -0.2605(12) 0.4430(11)
H11 H 0.325(2) -0.2970(13) 0.4710(10)
Ag1G Ag 0.166190(18) -0.387296(8) 0.431419(8)
N3G N 0.2235(2) 0.20785(10) 0.43773(9)
H10G H 0.286(2) 0.2395(12) 0.4430(11)
H11G H 0.175(2) 0.2030(13) 0.4710(10)
O1 O -0.18412(16) -0.20148(10) 0.41640(8)
O2 O 0.01682(17) -0.19960(9) 0.46727(7)
C7 C -0.0563(2) -0.19255(11) 0.41904(10)
C8 C 0.0185(2) -0.17294(11) 0.35909(9)
C9 C 0.0537(2) -0.10236(11) 0.34759(11)
C10 C 0.0138(2) -0.04683(12) 0.38906(12)
H12 H -0.0364 -0.0574 0.4263
C11 C 0.0470(3) 0.02134(13) 0.37566(13)
H13 H 0.0178 0.0578 0.4030
C12 C 0.1247(3) 0.03783(13) 0.32129(14)
H14 H 0.1477 0.0853 0.3127
C13 C 0.1666(3) -0.01289(13) 0.28148(13)
H15 H 0.2200 -0.0007 0.2456
C14 C 0.1318(2) -0.08511(12) 0.29241(11)
C15 C 0.1721(2) -0.13828(13) 0.25152(11)
H16 H 0.2260 -0.1268 0.2156
C16 C 0.1353(2) -0.20810(12) 0.26205(10)
C17 C 0.1745(2) -0.26277(13) 0.21971(11)
H17 H 0.2273 -0.2515 0.1834
C18 C 0.1377(2) -0.33049(13) 0.23040(11)
H18 H 0.1656 -0.3661 0.2018
C19 C 0.0576(2) -0.34841(12) 0.28428(11)
H19 H 0.0322 -0.3959 0.2914
C20 C 0.0172(2) -0.29784(11) 0.32558(10)
H20 H -0.0371 -0.3105 0.3611
C21 C 0.0552(2) -0.22595(11) 0.31641(10)
O3 O -0.2805(2) -0.34145(10) 0.44333(10)
H21 H -0.253(4) -0.3020(12) 0.4363(15)
H22 H -0.341(3) -0.3389(17) 0.4712(13)
loop_
_geom_bond_atom_site_label_1
_geom_bond_atom_site_label_2
_geom_bond_site_symmetry_1
_geom_bond_site_symmetry_2
Ag1 N1 1_555 1_555
C1 H1 1_555 1_555
N1 C1 1_555 1_555
C2 N1 1_555 1_555
H2 C2 1_555 1_555
C3 C2 1_555 1_555
H3 C3 1_555 1_555
N2 C1 1_555 1_555
C4 N2 1_555 1_555
H4 C4 1_555 1_555
H5 C4 1_555 1_555
C5 C4 1_555 1_555
H6 C5 1_555 1_555
H7 C5 1_555 1_555
C6 C5 1_555 1_555
H8 C6 1_555 1_555
H9 C6 1_555 1_555
N3 C6 1_555 1_555
H10 N3 1_555 1_555
H11 N3 1_555 1_555
O1 C7 1_555 1_555
O2 C7 1_555 1_555
C7 C8 1_555 1_555
C8 C9 1_555 1_555
C9 C10 1_555 1_555
C10 H12 1_555 1_555
C11 C10 1_555 1_555
H13 C11 1_555 1_555
C12 C11 1_555 1_555
H14 C12 1_555 1_555
C13 C12 1_555 1_555
H15 C13 1_555 1_555
C14 C9 1_555 1_555
C15 C14 1_555 1_555
H16 C15 1_555 1_555
C16 C15 1_555 1_555
C17 C16 1_555 1_555
H17 C17 1_555 1_555
C18 C17 1_555 1_555
H18 C18 1_555 1_555
C19 C18 1_555 1_555
H19 C19 1_555 1_555
C20 C19 1_555 1_555
H20 C20 1_555 1_555
C21 C8 1_555 1_555
O3 H21 1_555 1_555
H22 O3 1_555 1_555
Ag1G N3 1_555 1_555
N3G Ag1 1_555 1_555
H10G N3G 1_555 1_555
H11G N3G 1_555 1_555
C3 N2 1_555 1_555
C13 C14 1_555 1_555
C16 C21 1_555 1_555
C20 C21 1_555 1_555

#END
