
#######################################################################
#
#                 Cambridge Crystallographic Data Centre
#                                CCDC 
#
#######################################################################
#
# If this CIF has been generated from an entry in the Cambridge 
# Structural Database, then it will include bibliographic, chemical, 
# crystal, experimental, refinement or atomic coordinate data resulting 
# from the CCDC's data processing and validation procedures.
#
#######################################################################

data_FAZZOW
_symmetry_cell_setting           monoclinic
_symmetry_space_group_name_H-M   'P 21/n'
_symmetry_Int_Tables_number      14
_space_group_name_Hall           '-P 2yn'
loop_
_symmetry_equiv_pos_site_id
_symmetry_equiv_pos_as_xyz
1 x,y,z
2 1/2-x,1/2+y,1/2-z
3 -x,-y,-z
4 1/2+x,1/2-y,1/2+z
_cell_length_a                   15.796(3)
_cell_length_b                   13.704(3)
_cell_length_c                   24.555(4)
_cell_angle_alpha                90
_cell_angle_beta                 92.420(5)
_cell_angle_gamma                90
_cell_volume                     5310.64
loop_
_atom_site_label
_atom_site_type_symbol
_atom_site_fract_x
_atom_site_fract_y
_atom_site_fract_z
Zn1 Zn -0.29554(8) -0.63787(8) 0.25151(5)
Zn2 Zn -0.26220(8) 0.01848(9) -0.01717(5)
S1 S -0.2743(3) -0.7458(2) 0.14539(12)
S2 S -0.2167(2) -0.0789(3) -0.12802(13)
N1 N -0.4665(5) -0.0504(5) 0.0758(3)
N2 N -0.4825(6) -0.4290(6) 0.2743(3)
N3 N -0.7472(6) 0.3253(6) -0.1174(4)
C1 C -0.5179(6) -0.1159(7) 0.1635(4)
N4 N -0.3630(5) -0.0314(6) 0.0210(3)
N5 N -0.3968(6) -0.5519(6) 0.2581(3)
C2 C -0.5825(7) -0.1222(8) 0.2000(4)
H1 H -0.6285 -0.0797 0.1969
C3 C -0.5233(7) -0.0347(7) 0.1218(4)
H2 H -0.5813 -0.0293 0.1075
H3 H -0.5084 0.0265 0.1396
N6 N -0.0341(6) -0.0788(6) 0.0482(4)
C4 C -0.4774(7) -0.1195(7) 0.0358(4)
H4 H -0.5207 -0.1654 0.0324
N7 N -0.2794(6) 0.1568(6) -0.0394(4)
N8 N -0.3227(6) 0.3079(6) -0.0427(4)
N9 N -0.1552(6) -0.0085(6) 0.0254(4)
C5 C -0.3076(7) 0.2309(8) -0.0118(5)
H5 H -0.3159 0.2292 0.0254
O1 O -0.2629(8) -0.6592(6) 0.1154(4)
C6 C -0.1026(7) -0.0800(7) 0.0135(4)
H6 H -0.1116 -0.1247 -0.0147
C7 C 0.0213(7) -0.2350(8) 0.0847(5)
N10 N -0.7820(5) 0.2123(6) -0.1784(3)
O2 O -0.2701(5) -0.0631(7) -0.0821(3)
C8 C -0.6245(8) 0.4151(8) -0.0765(5)
C9 C -0.5783(7) -0.1922(8) 0.2411(4)
H7 H -0.6207 -0.1945 0.2662
C10 C 0.0065(7) -0.3961(8) 0.1525(6)
C11 C -0.4525(7) -0.2516(8) 0.2066(5)
H8 H -0.4084 -0.2966 0.2081
N11 N -0.0736(6) -0.4939(6) 0.2185(4)
N12 N -0.1954(6) -0.5507(6) 0.2445(4)
C12 C -0.5084(8) -0.3314(7) 0.2912(5)
H9 H -0.4684 -0.3081 0.3193
H10 H -0.5634 -0.3360 0.3071
C13 C -0.4539(7) -0.1844(8) 0.1671(4)
H11 H -0.4115 -0.1837 0.1420
C14 C -0.5134(7) -0.2575(7) 0.2452(4)
C15 C -0.7187(8) 0.4190(8) -0.0926(5)
H12 H -0.7293 0.4716 -0.1184
H13 H -0.7508 0.4321 -0.0606
C16 C -0.4128(7) -0.1077(7) 0.0025(4)
H14 H -0.4033 -0.1453 -0.0281
C17 C -0.7596(6) 0.3039(7) -0.1694(5)
H15 H -0.7531 0.3491 -0.1971
C18 C 0.0054(8) -0.4857(9) 0.1899(6)
H16 H 0.0131 -0.5440 0.1683
H17 H 0.0525 -0.4815 0.2165
O3 O -0.3192(7) -0.7266(7) 0.1942(4)
C19 C -0.1172(7) 0.0413(8) 0.0689(5)
H18 H -0.1390 0.0965 0.0853
C20 C -0.5137(9) 0.3684(8) -0.0117(5)
H19 H -0.4975 0.3399 0.0215
C21 C -0.5973(8) 0.3728(7) -0.0279(5)
H20 H -0.6373 0.3463 -0.0054
C22 C -0.4018(7) -0.4628(7) 0.2782(4)
H21 H -0.3561 -0.4278 0.2932
C23 C -0.3607(8) 0.4008(8) -0.0271(6)
H22 H -0.3549 0.4084 0.0122
H23 H -0.3305 0.4541 -0.0436
C24 C -0.4791(9) 0.4497(10) -0.0934(5)
H24 H -0.4389 0.4747 -0.1162
C25 C -0.0955(8) -0.4382(8) 0.2601(5)
H25 H -0.0649 -0.3856 0.2745
C26 C -0.4534(8) 0.4063(8) -0.0447(6)
C27 C 0.0357(7) -0.1501(8) 0.0479(5)
H26 H 0.0882 -0.1180 0.0594
H27 H 0.0418 -0.1737 0.0110
C28 C -0.1346(8) -0.5599(8) 0.2095(5)
H28 H -0.1344 -0.6066 0.1821
C29 C -0.7612(8) 0.2399(9) -0.0911(5)
H29 H -0.7564 0.2305 -0.0536
C30 C -0.1723(8) -0.4729(8) 0.2780(5)
H30 H -0.2023 -0.4486 0.3068
C31 C -0.5635(10) 0.4561(10) -0.1079(6)
H31 H -0.5801 0.4889 -0.1398
C32 C -0.0437(8) -0.0027(9) 0.0836(5)
H32 H -0.0066 0.0150 0.1123
C33 C -0.3975(7) 0.0002(7) 0.0660(4)
H33 H -0.3762 0.0509 0.0877
C34 C -0.4798(8) -0.5767(9) 0.2406(5)
H34 H -0.4969 -0.6357 0.2250
C35 C -0.7826(7) 0.1727(8) -0.1272(5)
H35 H -0.7961 0.1083 -0.1193
C36 C -0.0194(9) -0.3175(10) 0.0673(5)
H36 H -0.0415 -0.3205 0.0317
C37 C -0.5292(8) -0.5017(9) 0.2503(5)
H37 H -0.5871 -0.4989 0.2419
C38 C -0.0288(10) -0.3976(10) 0.1015(6)
H38 H -0.0593 -0.4518 0.0892
C39 C 0.0424(10) -0.3125(11) 0.1713(6)
H39 H 0.0603 -0.3079 0.2078
C40 C -0.2773(8) 0.1874(9) -0.0929(5)
H40 H -0.2618 0.1498 -0.1224
C41 C -0.3018(9) 0.2815(9) -0.0949(6)
H41 H -0.3042 0.3214 -0.1256
C42 C 0.0528(10) -0.2336(11) 0.1371(6)
H42 H 0.0818 -0.1788 0.1501
O4 O -0.3116(10) -0.8199(7) 0.1158(4)
O5 O -0.1571(8) -0.0027(8) -0.1304(6)
O6 O -0.1762(9) -0.1692(7) -0.1217(6)
O7 O -0.2706(9) -0.0805(15) -0.1748(4)
O8 O -0.1914(7) -0.7779(10) 0.1674(7)
Zn1C Zn -0.79554(8) 0.13787(8) -0.24849(5)
N10C N -0.2820(5) -0.7123(6) 0.3216(3)
O9 O -0.7440(11) -0.3683(12) 0.2230(7)
O10 O -0.7942(12) -0.1536(14) 0.2342(8)
O11 O -0.4978(15) -0.7637(17) 0.1165(10)
O12 O -0.9481(12) -0.6944(15) 0.0893(8)
O13 O -0.1221(15) -0.6343(17) 0.0507(10)
O14 O -0.1457(18) -0.4865(18) -0.0377(11)
O15 O -0.763(2) -0.516(2) 0.1536(14)
O16 O -0.753(2) -0.702(3) 0.0564(14)
loop_
_geom_bond_atom_site_label_1
_geom_bond_atom_site_label_2
_geom_bond_site_symmetry_1
_geom_bond_site_symmetry_2
Zn1 N5 1_555 1_555
Zn2 N4 1_555 1_555
S1 O1 1_555 1_555
S2 O2 1_555 1_555
N1 C3 1_555 1_555
N2 C12 1_555 1_555
N3 C15 1_555 1_555
C1 C2 1_555 1_555
N4 C16 1_555 1_555
N5 C22 1_555 1_555
C2 H1 1_555 1_555
C3 C1 1_555 1_555
H2 C3 1_555 1_555
H3 C3 1_555 1_555
N6 C6 1_555 1_555
C4 N1 1_555 1_555
H4 C4 1_555 1_555
N7 Zn2 1_555 1_555
N8 C5 1_555 1_555
N9 Zn2 1_555 1_555
C5 N7 1_555 1_555
H5 C5 1_555 1_555
C6 N9 1_555 1_555
H6 C6 1_555 1_555
C7 C27 1_555 1_555
N10 C17 1_555 1_555
O2 Zn2 1_555 1_555
C8 C15 1_555 1_555
C9 C2 1_555 1_555
H7 C9 1_555 1_555
C10 C18 1_555 1_555
C11 H8 1_555 1_555
N11 C18 1_555 1_555
N12 Zn1 1_555 1_555
C12 H9 1_555 1_555
H10 C12 1_555 1_555
C13 C1 1_555 1_555
H11 C13 1_555 1_555
C14 C9 1_555 1_555
C15 H12 1_555 1_555
H13 C15 1_555 1_555
C16 C4 1_555 1_555
H14 C16 1_555 1_555
C17 N3 1_555 1_555
H15 C17 1_555 1_555
C18 H16 1_555 1_555
H17 C18 1_555 1_555
O3 Zn1 1_555 1_555
C19 N9 1_555 1_555
H18 C19 1_555 1_555
C20 H19 1_555 1_555
C21 C8 1_555 1_555
H20 C21 1_555 1_555
C22 N2 1_555 1_555
H21 C22 1_555 1_555
C23 N8 1_555 1_555
H22 C23 1_555 1_555
H23 C23 1_555 1_555
C24 H24 1_555 1_555
C25 N11 1_555 1_555
H25 C25 1_555 1_555
C26 C20 1_555 1_555
C27 N6 1_555 1_555
H26 C27 1_555 1_555
H27 C27 1_555 1_555
C28 N11 1_555 1_555
H28 C28 1_555 1_555
C29 N3 1_555 1_555
H29 C29 1_555 1_555
C30 N12 1_555 1_555
H30 C30 1_555 1_555
C31 C8 1_555 1_555
H31 C31 1_555 1_555
C32 N6 1_555 1_555
H32 C32 1_555 1_555
C33 N1 1_555 1_555
H33 C33 1_555 1_555
C34 N5 1_555 1_555
H34 C34 1_555 1_555
C35 N10 1_555 1_555
H35 C35 1_555 1_555
C36 C7 1_555 1_555
H36 C36 1_555 1_555
C37 N2 1_555 1_555
H37 C37 1_555 1_555
C38 C10 1_555 1_555
H38 C38 1_555 1_555
C39 C10 1_555 1_555
H39 C39 1_555 1_555
C40 N7 1_555 1_555
H40 C40 1_555 1_555
C41 N8 1_555 1_555
H41 C41 1_555 1_555
C42 C7 1_555 1_555
H42 C42 1_555 1_555
O4 S1 1_555 1_555
O5 S2 1_555 1_555
O6 S2 1_555 1_555
O7 S2 1_555 1_555
O8 S1 1_555 1_555
Zn1C N10 1_555 1_555
N10C Zn1 1_555 1_555
S1 O3 1_555 1_555
N4 C33 1_555 1_555
C11 C13 1_555 1_555
C11 C14 1_555 1_555
N12 C28 1_555 1_555
C12 C14 1_555 1_555
C19 C32 1_555 1_555
C20 C21 1_555 1_555
C23 C26 1_555 1_555
C24 C26 1_555 1_555
C24 C31 1_555 1_555
C25 C30 1_555 1_555
C29 C35 1_555 1_555
C34 C37 1_555 1_555
C36 C38 1_555 1_555
C39 C42 1_555 1_555
C40 C41 1_555 1_555

#END
