
#######################################################################
#
#                 Cambridge Crystallographic Data Centre
#                                CCDC 
#
#######################################################################
#
# If this CIF has been generated from an entry in the Cambridge 
# Structural Database, then it will include bibliographic, chemical, 
# crystal, experimental, refinement or atomic coordinate data resulting 
# from the CCDC's data processing and validation procedures.
#
#######################################################################

data_FAZZEM
_symmetry_cell_setting           triclinic
_symmetry_space_group_name_H-M   'P -1'
_symmetry_Int_Tables_number      2
_space_group_name_Hall           '-P 1'
loop_
_symmetry_equiv_pos_site_id
_symmetry_equiv_pos_as_xyz
1 x,y,z
2 -x,-y,-z
_cell_length_a                   11.552(2)
_cell_length_b                   12.742(3)
_cell_length_c                   14.589(3)
_cell_angle_alpha                94.22(3)
_cell_angle_beta                 109.01(3)
_cell_angle_gamma                115.57(3)
_cell_volume                     1772.78
loop_
_atom_site_label
_atom_site_type_symbol
_atom_site_fract_x
_atom_site_fract_y
_atom_site_fract_z
O28 O 0.7173(11) 0.1007(8) 0.5695(6)
H13 H 0.6280 0.0597 0.5906
H14 H 0.7191 0.0809 0.6476
O29 O 0.1314(7) -0.0980(6) 0.5290(5)
H15 H 0.0534 -0.1641 0.5442
H16 H 0.1012 -0.0608 0.5149
O30 O 0.5500(5) 0.1037(5) 0.3627(4)
H17 H 0.5481 0.1494 0.4169
H18 H 0.5431 0.1706 0.3376
O31 O 0.7740(4) 0.8886(4) 0.3168(3)
H19 H 0.8565 0.9323 0.3083
H20 H 0.7909 0.9251 0.3747
O32 O 0.5218(4) -0.1152(4) 0.2661(3)
H21 H 0.4217 -0.1578 0.2184
H22 H 0.5320 -0.0360 0.2995
Mo1 Mo 0.87277(4) 0.92697(3) 0.72809(2)
Mo2 Mo 0.87802(4) 1.12568(3) 0.88441(2)
Mo3 Mo 0.84925(3) 0.75930(3) 0.88604(2)
Mo4 Mo 0.85370(3) 0.95644(3) 1.03809(2)
O1 O 0.8746(3) 0.5416(3) 0.6775(2)
O2 O 0.9694(3) 0.6551(3) 0.5873(2)
O3 O 1.1163(3) 0.5477(2) 0.98793(19)
O4 O 0.6918(3) 0.2930(3) 0.9041(2)
O5 O 1.0913(3) 0.4381(3) 0.6348(2)
O6 O 1.0127(3) 0.3943(3) 0.7544(2)
O7 O 0.4937(3) 0.4764(3) 0.6439(2)
O8 O 0.6417(3) 0.4399(3) 0.7610(2)
O9 O 0.6946(4) 0.8622(3) 0.6786(3)
O10 O 0.8814(3) 0.6399(2) 0.8970(2)
O11 O 0.8958(3) 0.9527(2) 0.90278(19)
O12 O 0.7007(3) 1.0514(3) 0.8353(2)
O13 O 0.9163(4) 0.9278(3) 0.6272(2)
O14 O 0.9153(3) 1.0896(2) 0.77243(19)
O15 O 0.8886(3) 0.7931(3) 0.7726(2)
O16 O 1.1055(3) 1.0165(3) 0.8336(2)
O17 O 0.9230(3) 1.2740(2) 0.8919(2)
O18 O 0.6785(3) 0.8900(3) 0.9846(2)
O19 O 1.1143(3) 1.1815(2) 0.97349(19)
O20 O 0.9076(3) 1.1195(2) 1.02553(19)
O21 O 0.6721(3) 0.6976(3) 0.8376(2)
O22 O 0.7004(3) 0.2696(3) 0.6806(2)
H1 H 0.6251 0.2209 0.6841
H2 H 0.7427 0.2418 0.6494
O23 O 0.6809(3) 0.6245(3) 0.5725(2)
H3 H 0.7408 0.6735 0.6364
H4 H 0.6163 0.6597 0.5458
O24 O 0.5722(4) 0.3544(3) 0.5056(2)
H5 H 0.6135 0.3399 0.5568
H6 H 0.5826 0.4118 0.5299
O25 O 0.8344(3) 0.3797(3) 0.4870(2)
H7 H 0.9059 0.3762 0.5377
H8 H 0.8766 0.4152 0.4377
O26 O 0.5899(4) 0.3265(3) 0.3048(2)
H9 H 0.5224 0.3175 0.2547
H10 H 0.6025 0.2610 0.3226
O27 O 0.8230(4) 0.7517(3) 0.4486(2)
H11 H 0.8036 0.7923 0.4025
H12 H 0.8366 0.7852 0.5152
N1 N 1.1105(3) 0.6533(3) 0.8400(2)
N2 N 0.3222(3) 0.4306(3) 0.7350(2)
C1 C 1.1077(4) 0.6987(4) 0.7604(3)
C2 C 1.2194(5) 0.8021(4) 0.7620(3)
H23 H 1.2135 0.8327 0.7057
C3 C 1.3406(5) 0.8596(4) 0.8489(3)
H24 H 1.4181 0.9283 0.8515
C4 C 1.3438(5) 0.8129(4) 0.9312(3)
H25 H 1.4232 0.8500 0.9907
C5 C 1.2272(4) 0.7100(3) 0.9242(3)
C6 C 0.9739(4) 0.6271(4) 0.6687(3)
C7 C 1.2188(4) 0.6524(3) 1.0089(3)
C8 C 0.4388(4) 0.4231(3) 0.7813(3)
C9 C 0.4663(4) 0.3919(4) 0.8717(3)
H26 H 0.5477 0.3873 0.9026
C10 C 0.3703(5) 0.3674(4) 0.9155(3)
H27 H 0.3853 0.3440 0.9753
C11 C 0.2527(4) 0.3783(4) 0.8695(3)
H28 H 0.1888 0.3657 0.8987
C12 C 0.2323(4) 0.4088(3) 0.7779(3)
C13 C 0.5339(4) 0.4484(3) 0.7249(3)
C14 C 1.1021(4) 0.4149(3) 0.7188(3)
La1 La 0.88151(2) 0.451697(17) 0.831110(14)
La2 La 0.73449(2) 0.524379(19) 0.443686(15)
O19A O 0.8857(3) 0.8185(2) 1.02651(19)
O20A O 1.0924(3) 0.8805(2) 0.97447(19)
O11A O 1.1042(3) 1.0473(2) 1.09722(19)
O16A O 0.8945(3) 0.9835(3) 1.1664(2)
La1A La 1.11849(2) 0.548303(17) 1.168890(14)
C7A C 0.7812(4) 0.3476(3) 0.9911(3)
La2A La 1.26551(2) 0.475621(19) 0.556314(15)
La2A_2 La 0.26551(2) 0.475621(19) 0.556314(15)
Mo4A Mo 1.14630(3) 1.04356(3) 0.96191(2)
La1_2 La 0.88151(2) 1.451697(17) 0.831110(14)
Mo3A Mo 1.15075(3) 1.24070(3) 1.11396(2)
O4A O 1.3082(3) 0.7070(3) 1.0959(2)
C14_2 C 0.1021(4) 0.4149(3) 0.7188(3)
C12_2 C 1.2323(4) 0.4088(3) 0.7779(3)
O3A O 0.8837(3) 0.4523(2) 1.01207(19)
O17_2 O 0.9230(3) 0.2740(2) 0.8919(2)
O5A O 0.9087(3) 0.5619(3) 0.3652(2)
O7A O 0.5063(3) 0.5236(3) 0.3561(2)
N2A N 0.6778(3) 0.5694(3) 0.2650(2)
loop_
_geom_bond_atom_site_label_1
_geom_bond_atom_site_label_2
_geom_bond_site_symmetry_1
_geom_bond_site_symmetry_2
Mo1 O9 1_555 1_555
Mo2 O11 1_555 1_555
Mo3 O10 1_555 1_555
Mo4 O11 1_555 1_555
O1 C6 1_555 1_555
O2 C6 1_555 1_555
O3 C7 1_555 1_555
O4 La1 1_555 1_555
O5 C14 1_555 1_555
O6 C14 1_555 1_555
O7 C13 1_555 1_555
O8 C13 1_555 1_555
O10 La1 1_555 1_555
O11 Mo1 1_555 1_555
O12 Mo2 1_555 1_555
O13 Mo1 1_555 1_555
O14 Mo1 1_555 1_555
O15 Mo1 1_555 1_555
O16 Mo1 1_555 1_555
O17 Mo2 1_555 1_555
O18 Mo4 1_555 1_555
O19 Mo2 1_555 1_555
O20 Mo2 1_555 1_555
O21 Mo3 1_555 1_555
O22 H1 1_555 1_555
H2 O22 1_555 1_555
O23 H3 1_555 1_555
H4 O23 1_555 1_555
O24 H5 1_555 1_555
H6 O24 1_555 1_555
O25 H7 1_555 1_555
H8 O25 1_555 1_555
O26 H9 1_555 1_555
H10 O26 1_555 1_555
O27 H11 1_555 1_555
H12 O27 1_555 1_555
O28 H13 1_555 1_555
H14 O28 1_555 1_555
O29 H15 1_555 1_555
H16 O29 1_555 1_555
O30 H17 1_555 1_555
H18 O30 1_555 1_555
O31 H19 1_555 1_555
H20 O31 1_555 1_555
O32 H21 1_555 1_555
H22 O32 1_555 1_555
N1 C1 1_555 1_555
N2 C8 1_555 1_555
C1 C2 1_555 1_555
C2 H23 1_555 1_555
C3 C2 1_555 1_555
H24 C3 1_555 1_555
C4 C3 1_555 1_555
H25 C4 1_555 1_555
C5 N1 1_555 1_555
C6 C1 1_555 1_555
C7 C5 1_555 1_555
C8 C9 1_555 1_555
C9 H26 1_555 1_555
C10 C9 1_555 1_555
H27 C10 1_555 1_555
C11 C10 1_555 1_555
H28 C11 1_555 1_555
C12 N2 1_555 1_555
C13 C8 1_555 1_555
C14 C12_2 1_555 1_555
La1 O1 1_555 1_555
La2 O2 1_555 1_555
O19A Mo3 1_555 1_555
O20A Mo3 1_555 1_555
O11A Mo4 1_555 1_555
O16A Mo4 1_555 1_555
La1A O3 1_555 1_555
C7A O4 1_555 1_555
La2A O5 1_555 1_555
La2A_2 O7 1_555 1_555
Mo4A O11 1_555 1_555
La1_2 O17 1_555 1_555
Mo3A O19 1_555 1_555
O4A C7 1_555 1_555
C14_2 C12 1_555 1_555
O3A La1 1_555 1_555
O17_2 La1 1_555 1_555
O5A La2 1_555 1_555
O7A La2 1_555 1_555
N2A La2 1_555 1_555
Mo2 O14 1_555 1_555
Mo3 O11 1_555 1_555
Mo3 O15 1_555 1_555
Mo4 O19A 1_555 1_555
Mo4 O20 1_555 1_555
O3 La1 1_555 1_555
O6 La1 1_555 1_555
O8 La1 1_555 1_555
O16 Mo4A 1_555 1_555
O19 Mo4A 1_555 1_555
O20 Mo3A 1_555 1_555
O22 La1 1_555 1_555
O23 La2 1_555 1_555
O24 La2 1_555 1_555
O25 La2 1_555 1_555
O26 La2 1_555 1_555
O27 La2 1_555 1_555
N1 La1 1_555 1_555
N2 La2A_2 1_555 1_555
C4 C5 1_555 1_555
C11 C12 1_555 1_555
O20A Mo4A 1_555 1_555
O11A Mo3A 1_555 1_555
O11A Mo4A 1_555 1_555
La1A O3A 1_555 1_555
La1A O4A 1_555 1_555
C7A O3A 1_555 1_555

#END
