
#######################################################################
#
#                 Cambridge Crystallographic Data Centre
#                                CCDC 
#
#######################################################################
#
# If this CIF has been generated from an entry in the Cambridge 
# Structural Database, then it will include bibliographic, chemical, 
# crystal, experimental, refinement or atomic coordinate data resulting 
# from the CCDC's data processing and validation procedures.
#
#######################################################################

data_FEACIT
_symmetry_cell_setting           monoclinic
_symmetry_space_group_name_H-M   'P 21/n'
_symmetry_Int_Tables_number      14
_space_group_name_Hall           '-P 2yn'
loop_
_symmetry_equiv_pos_site_id
_symmetry_equiv_pos_as_xyz
1 x,y,z
2 1/2-x,1/2+y,1/2-z
3 -x,-y,-z
4 1/2+x,1/2-y,1/2+z
_cell_length_a                   20.400(3)
_cell_length_b                   6.710(1)
_cell_length_c                   9.173(2)
_cell_angle_alpha                90
_cell_angle_beta                 96.99(1)
_cell_angle_gamma                90
_cell_volume                     1246.3
loop_
_atom_site_label
_atom_site_type_symbol
_atom_site_fract_x
_atom_site_fract_y
_atom_site_fract_z
Fe2 Fe 0.28212 0.00764 -0.03710
O4 O 0.31108 -0.52140 -0.33544
O5 O 0.28923 -0.74685 -0.17363
O6 O 0.47390 -0.00530 0.20717
O7 O 0.37083 0.02996 0.10766
O8 O 0.26662 -0.27733 0.05507
O9 O 0.33461 -0.49980 0.17077
O10 O 0.34201 -0.19665 -0.14955
O11 O 0.23844 0.17713 0.11616
C1 C 0.32484 -0.61320 -0.21432
C2 C 0.38451 -0.53914 -0.11650
C3 C 0.36904 -0.34083 -0.04216
C4 C 0.43314 -0.24910 0.03351
C5 C 0.42513 -0.06317 0.12174
C6 C 0.31974 -0.37688 0.07009
H7 H 0.41700 -0.51500 -0.17000
H8 H 0.40000 -0.62500 -0.05000
H9 H 0.46100 -0.21500 -0.04100
H10 H 0.46000 -0.35300 0.09600
H11 H 0.32300 -0.25400 -0.20800
H12 H 0.21700 0.13000 0.18400
H13 H 0.26000 0.24000 0.15400
O4A O 0.18892 -0.02140 -0.16456
Fe2_2 Fe 0.28212 -0.99236 -0.03710
Fe2A Fe 0.21788 -0.49236 -0.46290
O5_2 O 0.28923 0.25315 -0.17363
O12 O 0.13929 -0.44765 -0.92474
H14 H 0.13500 -0.43400 -0.83700
H15 H 0.17100 -0.41800 -0.94000
Fe1 Fe 0.00000 -1.00000 -1.00000
O1 O 0.03866 -1.11655 -0.79217
O2 O 0.08909 -0.84113 -1.01859
O3 O -0.04327 -0.75782 -0.89914
H1 H 0.03000 -1.21700 -0.78100
H2 H 0.07100 -1.08500 -0.75800
H3 H 0.11900 -0.90100 -1.06600
H4 H 0.09900 -0.74100 -1.00600
H5 H -0.06800 -0.70800 -0.93700
H6 H -0.02600 -0.69200 -0.83700
O1B O -0.03866 -0.88345 -1.20783
O2B O -0.08909 -1.15887 -0.98141
O3B O 0.04327 -1.24218 -1.10086
H1B H -0.03000 -0.78300 -1.21900
H2B H -0.07100 -0.91500 -1.24200
H3B H -0.11900 -1.09900 -0.93400
H4B H -0.09900 -1.25900 -0.99400
H5B H 0.06800 -1.29200 -1.06300
H6B H 0.02600 -1.30800 -1.16300
loop_
_geom_bond_atom_site_label_1
_geom_bond_atom_site_label_2
_geom_bond_site_symmetry_1
_geom_bond_site_symmetry_2
Fe1 O1 1_555 1_555
O1 H1 1_555 1_555
O2 Fe1 1_555 1_555
O3 Fe1 1_555 1_555
H2 O1 1_555 1_555
H3 O2 1_555 1_555
H4 O2 1_555 1_555
H5 O3 1_555 1_555
H6 O3 1_555 1_555
Fe2 O7 1_555 1_555
O4 C1 1_555 1_555
O5 C1 1_555 1_555
O6 C5 1_555 1_555
O7 C5 1_555 1_555
O8 Fe2 1_555 1_555
O9 C6 1_555 1_555
O10 Fe2 1_555 1_555
O11 Fe2 1_555 1_555
C1 C2 1_555 1_555
C2 C3 1_555 1_555
C3 O10 1_555 1_555
C4 C3 1_555 1_555
C5 C4 1_555 1_555
C6 O8 1_555 1_555
H7 C2 1_555 1_555
H8 C2 1_555 1_555
H9 C4 1_555 1_555
H10 C4 1_555 1_555
H11 O10 1_555 1_555
H12 O11 1_555 1_555
H13 O11 1_555 1_555
O12 H14 1_555 1_555
H15 O12 1_555 1_555
O1B Fe1 1_555 1_555
O2B Fe1 1_555 1_555
O3B Fe1 1_555 1_555
H1B O1B 1_555 1_555
H2B O1B 1_555 1_555
H3B O2B 1_555 1_555
H4B O2B 1_555 1_555
H5B O3B 1_555 1_555
H6B O3B 1_555 1_555
O4A Fe2 1_555 1_555
Fe2_2 O5 1_555 1_555
Fe2A O4 1_555 1_555
O5_2 Fe2 1_555 1_555
C3 C6 1_555 1_555

#END
