
#######################################################################
#
#                 Cambridge Crystallographic Data Centre
#                                CCDC 
#
#######################################################################
#
# If this CIF has been generated from an entry in the Cambridge 
# Structural Database, then it will include bibliographic, chemical, 
# crystal, experimental, refinement or atomic coordinate data resulting 
# from the CCDC's data processing and validation procedures.
#
#######################################################################

data_FEBBAQ
_symmetry_cell_setting           monoclinic
_symmetry_space_group_name_H-M   'P 21/c'
_symmetry_Int_Tables_number      14
_space_group_name_Hall           '-P 2ybc'
loop_
_symmetry_equiv_pos_site_id
_symmetry_equiv_pos_as_xyz
1 x,y,z
2 -x,1/2+y,1/2-z
3 -x,-y,-z
4 x,1/2-y,1/2+z
_cell_length_a                   10.1323(8)
_cell_length_b                   18.6237(15)
_cell_length_c                   12.6038(10)
_cell_angle_alpha                90
_cell_angle_beta                 100.300(2)
_cell_angle_gamma                90
_cell_volume                     2340.02
loop_
_atom_site_label
_atom_site_type_symbol
_atom_site_fract_x
_atom_site_fract_y
_atom_site_fract_z
Cd1 Cd 0.0000 0.0000 0.0000
Cd2 Cd 0.0000 0.0000 -0.5000
S1 S 0.04311(6) 0.08414(3) -0.24192(4)
N1 N 0.83442(18) 0.17972(10) -0.84199(15)
N2 N 0.16290(18) 0.16887(10) -0.68321(15)
O1 O 0.08746(16) 0.03494(9) -0.32070(12)
O2 O 0.16122(18) 0.11534(10) -0.17221(14)
N3 N 0.90241(19) 0.09901(10) -0.94715(15)
N4 N 0.09890(19) 0.09520(10) -0.56569(15)
O3 O -0.03713(17) 0.04272(9) -0.17573(12)
C1 C 0.8686(2) 0.11075(13) -0.85242(18)
H1 H 0.8684 0.0758 -0.7997
C2 C 0.1046(2) 0.16413(13) -0.5251(2)
H2 H 0.0845 0.1772 -0.4586
O4 O -0.0401(2) 0.14140(9) -0.29884(15)
C3 C 0.3598(2) 0.19897(13) -0.76784(18)
C4 C 0.2086(2) 0.19505(15) -0.77990(19)
H3 H 0.1715 0.2425 -0.7973
H4 H 0.1742 0.1636 -0.8398
C5 C 0.6391(2) 0.20753(12) -0.75559(18)
C6 C 0.1351(2) 0.10016(13) -0.66128(18)
H5 H 0.1406 0.0616 -0.7071
C8 C 0.7894(2) 0.21160(14) -0.7478(2)
H6 H 0.8324 0.1867 -0.6831
H7 H 0.8171 0.2615 -0.7413
C10 C 0.4142(2) 0.23523(14) -0.8457(2)
H9 H 0.3577 0.2567 -0.9032
C11 C 0.8886(3) 0.16385(13) -1.0002(2)
H10 H 0.9054 0.1719 -1.0694
C12 C 0.1439(2) 0.20973(13) -0.5970(2)
H11 H 0.1557 0.2591 -0.5893
C13 C 0.8469(3) 0.21396(13) -0.9361(2)
H12 H 0.8300 0.2621 -0.9526
C16 C 0.5841(3) 0.17115(16) -0.6787(2)
H16 H 0.6405 0.1487 -0.6221
C18 C 0.4466(3) 0.16745(17) -0.6841(2)
H18 H 0.4122 0.1433 -0.6304
C19 C 0.5519(3) 0.23981(14) -0.8389(2)
H19 H 0.5864 0.2651 -0.8915
O5 O -0.17404(17) 0.08103(10) -0.48605(15)
H22 H -0.2458 0.0618 -0.4739
H23 H -0.1406 0.1049 -0.4301
O6 O 0.20430(18) 0.06520(11) 0.02900(15)
H24 H 0.2048 0.0834 -0.0323
H25 H 0.2750 0.0404 0.0465
Cd1_2 Cd 1.0000 0.0000 -1.0000
Cd1_3 Cd 0.0000 0.0000 -1.0000
Cd1_4 Cd -1.0000 0.0000 0.0000
S1B S -0.04311(6) -0.08414(3) -0.75808(4)
N1B N -0.83442(18) -0.17972(10) -0.15801(15)
N2B N -0.16290(18) -0.16887(10) -0.31679(15)
O1B O -0.08746(16) -0.03494(9) -0.67930(12)
O2B O -0.16122(18) -0.11534(10) -0.82779(14)
N3B N 0.09759(19) -0.09901(10) -0.05285(15)
N3_2 N -0.09759(19) 0.09901(10) 0.05285(15)
N3B_2 N -0.90241(19) -0.09901(10) -0.05285(15)
N4B N -0.09890(19) -0.09520(10) -0.43431(15)
O3B O 0.03713(17) -0.04272(9) 0.17573(12)
O3B_2 O 0.03713(17) -0.04272(9) -0.82427(12)
C1B C -0.8686(2) -0.11075(13) -0.14758(18)
H1B H -0.8684 -0.0758 -0.2003
C2B C -0.1046(2) -0.16413(13) -0.4749(2)
H2B H -0.0845 -0.1772 -0.5414
O4B O 0.0401(2) -0.14140(9) -0.70116(15)
C3B C -0.3598(2) -0.19897(13) -0.23216(18)
C4B C -0.2086(2) -0.19505(15) -0.22010(19)
H3B H -0.1715 -0.2425 -0.2027
H4B H -0.1742 -0.1636 -0.1602
C5B C -0.6391(2) -0.20753(12) -0.24441(18)
C6B C -0.1351(2) -0.10016(13) -0.33872(18)
H5B H -0.1406 -0.0616 -0.2929
C8B C -0.7894(2) -0.21160(14) -0.2522(2)
H6B H -0.8324 -0.1867 -0.3169
H7B H -0.8171 -0.2615 -0.2587
C10B C -0.4142(2) -0.23523(14) -0.1543(2)
H9B H -0.3577 -0.2567 -0.0968
C11B C -0.8886(3) -0.16385(13) 0.0002(2)
H10B H -0.9054 -0.1719 0.0694
C12B C -0.1439(2) -0.20973(13) -0.4030(2)
H11B H -0.1557 -0.2591 -0.4107
C13B C -0.8469(3) -0.21396(13) -0.0639(2)
H12B H -0.8300 -0.2621 -0.0474
C16B C -0.5841(3) -0.17115(16) -0.3213(2)
H16B H -0.6405 -0.1487 -0.3779
C18B C -0.4466(3) -0.16745(17) -0.3159(2)
H18B H -0.4122 -0.1433 -0.3696
C19B C -0.5519(3) -0.23981(14) -0.1611(2)
H19B H -0.5864 -0.2651 -0.1085
O5B O 0.17404(17) -0.08103(10) -0.51395(15)
H22B H 0.2458 -0.0618 -0.5261
H23B H 0.1406 -0.1049 -0.5699
O6B O -0.20430(18) -0.06520(11) -0.02900(15)
H24B H -0.2048 -0.0834 0.0323
H25B H -0.2750 -0.0404 -0.0465
C7 C 0.5029(3) 0.05644(14) 0.9277(2)
N5 N 0.5115(2) 0.09815(14) 0.74368(18)
C9 C 0.4578(3) -0.01117(15) 0.8909(2)
H8 H 0.4297 -0.0191 0.8175
C14 C 0.6253(3) 0.08472(19) 0.7056(3)
H13 H 0.7111 0.0890 0.7461
C15 C 0.5028(3) 0.11997(16) 0.8535(2)
H14 H 0.4212 0.1474 0.8523
H15 H 0.5782 0.1508 0.8811
N6 N 0.5991(3) 0.06476(17) 0.6040(2)
C17 C 0.5454(3) 0.06625(15) 1.0371(2)
H17 H 0.5769 0.1111 1.0626
C20 C 0.4603(3) 0.06440(19) 0.5768(3)
H20 H 0.4119 0.0523 0.5094
C21 C 0.4059(3) 0.08416(18) 0.6621(3)
H21 H 0.3150 0.0876 0.6652
C7B C 0.4971(3) -0.05644(14) 1.0723(2)
N5B N 0.4885(2) -0.09815(14) 1.25632(18)
C9B C 0.5422(3) 0.01117(15) 1.1091(2)
H8B H 0.5703 0.0191 1.1825
C14B C 0.3747(3) -0.08472(19) 1.2944(3)
H13B H 0.2889 -0.0890 1.2539
C15B C 0.4972(3) -0.11997(16) 1.1465(2)
H14B H 0.5788 -0.1474 1.1477
H15B H 0.4218 -0.1508 1.1189
N6B N 0.4009(3) -0.06476(17) 1.3960(2)
C17B C 0.4546(3) -0.06625(15) 0.9629(2)
H17B H 0.4231 -0.1111 0.9374
C20B C 0.5397(3) -0.06440(19) 1.4232(3)
H20B H 0.5881 -0.0523 1.4906
C21B C 0.5941(3) -0.08416(18) 1.3379(3)
H21B H 0.6850 -0.0876 1.3348
loop_
_geom_bond_atom_site_label_1
_geom_bond_atom_site_label_2
_geom_bond_site_symmetry_1
_geom_bond_site_symmetry_2
Cd1 O3 1_555 1_555
Cd2 O1 1_555 1_555
S1 O1 1_555 1_555
N1 C1 1_555 1_555
N2 C4 1_555 1_555
O2 S1 1_555 1_555
N3 C1 1_555 1_555
N4 Cd2 1_555 1_555
O3 S1 1_555 1_555
C1 H1 1_555 1_555
C2 N4 1_555 1_555
H2 C2 1_555 1_555
O4 S1 1_555 1_555
C3 C4 1_555 1_555
C4 H3 1_555 1_555
H4 C4 1_555 1_555
C5 C8 1_555 1_555
C6 N2 1_555 1_555
H5 C6 1_555 1_555
C7 C9 1_555 1_555
N5 C14 1_555 1_555
C8 N1 1_555 1_555
H6 C8 1_555 1_555
H7 C8 1_555 1_555
C9 H8 1_555 1_555
C10 C3 1_555 1_555
H9 C10 1_555 1_555
C11 N3 1_555 1_555
H10 C11 1_555 1_555
C12 N2 1_555 1_555
H11 C12 1_555 1_555
C13 N1 1_555 1_555
H12 C13 1_555 1_555
C14 H13 1_555 1_555
C15 C7 1_555 1_555
H14 C15 1_555 1_555
H15 C15 1_555 1_555
N6 C14 1_555 1_555
C16 C5 1_555 1_555
H16 C16 1_555 1_555
C17 C7 1_555 1_555
H17 C17 1_555 1_555
C18 C3 1_555 1_555
H18 C18 1_555 1_555
C19 C5 1_555 1_555
H19 C19 1_555 1_555
C20 N6 1_555 1_555
H20 C20 1_555 1_555
C21 N5 1_555 1_555
H21 C21 1_555 1_555
O5 Cd2 1_555 1_555
H22 O5 1_555 1_555
H23 O5 1_555 1_555
O6 Cd1 1_555 1_555
H24 O6 1_555 1_555
H25 O6 1_555 1_555
Cd1_2 N3 1_555 1_555
Cd1_3 O3B_2 1_555 1_555
Cd1_4 N3B_2 1_555 1_555
S1B O1B 1_555 1_555
N1B C1B 1_555 1_555
N2B C4B 1_555 1_555
O1B Cd2 1_555 1_555
O2B S1B 1_555 1_555
N3B Cd1 1_555 1_555
N3_2 Cd1 1_555 1_555
N3B_2 C1B 1_555 1_555
N4B Cd2 1_555 1_555
O3B Cd1 1_555 1_555
O3B_2 S1B 1_555 1_555
C1B H1B 1_555 1_555
C2B N4B 1_555 1_555
H2B C2B 1_555 1_555
O4B S1B 1_555 1_555
C3B C4B 1_555 1_555
C4B H3B 1_555 1_555
H4B C4B 1_555 1_555
C5B C8B 1_555 1_555
C6B N2B 1_555 1_555
H5B C6B 1_555 1_555
C7B C9B 1_555 1_555
N5B C14B 1_555 1_555
C8B N1B 1_555 1_555
H6B C8B 1_555 1_555
H7B C8B 1_555 1_555
C9B C17 1_555 1_555
H8B C9B 1_555 1_555
C10B C3B 1_555 1_555
H9B C10B 1_555 1_555
C11B N3B_2 1_555 1_555
H10B C11B 1_555 1_555
C12B N2B 1_555 1_555
H11B C12B 1_555 1_555
C13B N1B 1_555 1_555
H12B C13B 1_555 1_555
C14B H13B 1_555 1_555
C15B C7B 1_555 1_555
H14B C15B 1_555 1_555
H15B C15B 1_555 1_555
N6B C14B 1_555 1_555
C16B C5B 1_555 1_555
H16B C16B 1_555 1_555
C17B C9 1_555 1_555
H17B C17B 1_555 1_555
C18B C3B 1_555 1_555
H18B C18B 1_555 1_555
C19B C5B 1_555 1_555
H19B C19B 1_555 1_555
C20B N6B 1_555 1_555
H20B C20B 1_555 1_555
C21B N5B 1_555 1_555
H21B C21B 1_555 1_555
O5B Cd2 1_555 1_555
H22B O5B 1_555 1_555
H23B O5B 1_555 1_555
O6B Cd1 1_555 1_555
H24B O6B 1_555 1_555
H25B O6B 1_555 1_555
N4 C6 1_555 1_555
C2 C12 1_555 1_555
N5 C15 1_555 1_555
C10 C19 1_555 1_555
C11 C13 1_555 1_555
C16 C18 1_555 1_555
C20 C21 1_555 1_555
N4B C6B 1_555 1_555
C2B C12B 1_555 1_555
C7B C17B 1_555 1_555
N5B C15B 1_555 1_555
C10B C19B 1_555 1_555
C11B C13B 1_555 1_555
C16B C18B 1_555 1_555
C20B C21B 1_555 1_555

#END
