
#######################################################################
#
#                 Cambridge Crystallographic Data Centre
#                                CCDC 
#
#######################################################################
#
# If this CIF has been generated from an entry in the Cambridge 
# Structural Database, then it will include bibliographic, chemical, 
# crystal, experimental, refinement or atomic coordinate data resulting 
# from the CCDC's data processing and validation procedures.
#
#######################################################################

data_FEBDAS
_symmetry_cell_setting           triclinic
_symmetry_space_group_name_H-M   'P -1'
_symmetry_Int_Tables_number      2
_space_group_name_Hall           '-P 1'
loop_
_symmetry_equiv_pos_site_id
_symmetry_equiv_pos_as_xyz
1 x,y,z
2 -x,-y,-z
_cell_length_a                   8.3045(10)
_cell_length_b                   10.4883(10)
_cell_length_c                   11.0184(16)
_cell_angle_alpha                102.703(3)
_cell_angle_beta                 100.001(4)
_cell_angle_gamma                108.842(7)
_cell_volume                     854.36
loop_
_atom_site_label
_atom_site_type_symbol
_atom_site_fract_x
_atom_site_fract_y
_atom_site_fract_z
Ca1 Ca -0.49616(9) 0.11075(7) -0.62127(7)
Ca2 Ca -0.5000 0.5000 -0.5000
O1 O -0.4433(4) 0.1225(3) -0.3887(3)
O2 O -0.4327(6) 0.3156(3) -0.4346(3)
O3 O 0.3324(8) 0.4658(4) -0.3406(6)
O4 O 0.4748(5) 0.6843(3) -0.3102(3)
O5 O 0.1269(4) 0.0507(3) -0.2222(3)
O6 O 0.3052(9) 0.0535(8) -0.0552(4)
O7 O -0.7909(4) 0.0848(3) -0.6262(3)
H1 H -0.8185 0.0924 -0.5512
H2 H -0.8842 0.0098 -0.6809
O8 O -0.5342(4) 0.0207(3) -0.8390(3)
H3 H -0.5821 0.0366 -0.8995
H4 H -0.4746 -0.0172 -0.8667
O9 O -0.1968(4) 0.1403(3) -0.6029(3)
H5 H -0.1669 0.0804 -0.6551
H6 H -0.1032 0.1664 -0.5259
O10 O -0.2059(5) 0.6424(5) -0.3655(5)
C1 C -0.1459(5) 0.3605(4) -0.1688(3)
C2 C -0.0196(5) 0.4753(4) -0.1852(4)
H9 H -0.0559 0.5386 -0.2222
C3 C 0.1585(5) 0.4992(4) -0.1486(4)
C4 C 0.2091(5) 0.4063(4) -0.0938(4)
H10 H 0.3307 0.4214 -0.0682
C5 C 0.0849(5) 0.2917(4) -0.0759(4)
C6 C -0.0935(5) 0.2685(4) -0.1148(4)
H11 H -0.1794 0.1893 -0.1042
C7 C -0.3394(5) 0.3349(4) -0.2120(4)
H12 H -0.4048 0.2814 -0.1606
H13 H -0.3548 0.4263 -0.1977
C8 C -0.4120(5) 0.2527(4) -0.3533(4)
C9 C 0.2946(6) 0.6238(4) -0.1682(4)
H14 H 0.2405 0.6931 -0.1800
H15 H 0.3933 0.6697 -0.0888
C10 C 0.3689(5) 0.5886(4) -0.2815(4)
C11 C 0.1384(6) 0.1920(5) -0.0156(4)
H16 H 0.0381 0.1360 0.0119
H17 H 0.2372 0.2473 0.0627
C12 C 0.1950(5) 0.0913(5) -0.1042(4)
Ca1A Ca -0.50384(9) -0.11075(7) -0.37873(7)
Ca1A_2 Ca -0.50384(9) 0.88925(7) -0.37873(7)
Ca1_2 Ca -1.49616(9) 0.11075(7) -0.62127(7)
Ca1A_3 Ca 0.49616(9) 0.88925(7) -0.37873(7)
Ca1_3 Ca -0.49616(9) 1.11075(7) -0.62127(7)
Ca2_2 Ca -1.5000 0.5000 -0.5000
Ca2_3 Ca 0.5000 0.5000 -0.5000
O1A O -0.5567(4) -0.1225(3) -0.6113(3)
O1A_2 O -0.5567(4) 0.8775(3) -0.6113(3)
O1_2 O -0.4433(4) 1.1225(3) -0.3887(3)
O2A O -0.5673(6) 0.6844(3) -0.5654(3)
O3A O -0.3324(8) 0.5342(4) -0.6594(6)
O3_2 O -0.6676(8) 0.4658(4) -0.3406(6)
O3A_2 O -1.3324(8) 0.5342(4) -0.6594(6)
O4_2 O -0.5252(5) 0.6843(3) -0.3102(3)
O4A O -0.4748(5) 0.3157(3) -0.6898(3)
O4A_2 O -1.4748(5) 0.3157(3) -0.6898(3)
O5A O -1.1269(4) 0.9493(3) -0.7778(3)
O6A O -1.3052(9) 0.9465(8) -0.9448(4)
O7A O -0.2091(4) 0.9152(3) -0.3738(3)
H1A H -0.1815 0.9076 -0.4488
H2A H -0.1158 0.9902 -0.3191
O8A O -0.4658(4) 0.9793(3) -0.1610(3)
H3A H -0.4179 0.9634 -0.1005
H4A H -0.5254 1.0172 -0.1333
O9A O -0.8032(4) 0.8597(3) -0.3971(3)
H5A H -0.8331 0.9196 -0.3449
H6A H -0.8968 0.8336 -0.4741
O10A O -0.7941(5) 0.3576(5) -0.6345(5)
C1A C -0.8541(5) 0.6395(4) -0.8312(3)
C2A C -0.9804(5) 0.5247(4) -0.8148(4)
H9A H -0.9441 0.4614 -0.7778
C3A C -1.1585(5) 0.5008(4) -0.8514(4)
C4A C -1.2091(5) 0.5937(4) -0.9062(4)
H10A H -1.3307 0.5786 -0.9318
C5A C -1.0849(5) 0.7083(4) -0.9241(4)
C6A C -0.9065(5) 0.7315(4) -0.8852(4)
H11A H -0.8206 0.8107 -0.8958
C7A C -0.6606(5) 0.6651(4) -0.7880(4)
H12A H -0.5952 0.7186 -0.8394
H13A H -0.6452 0.5737 -0.8023
C8A C -0.5880(5) 0.7473(4) -0.6467(4)
C9A C -1.2946(6) 0.3762(4) -0.8318(4)
H14A H -1.2405 0.3069 -0.8200
H15A H -1.3933 0.3303 -0.9112
C10A C -1.3689(5) 0.4114(4) -0.7185(4)
C11A C -1.1384(6) 0.8080(5) -0.9844(4)
H16A H -1.0381 0.8640 -1.0119
H17A H -1.2372 0.7527 -1.0627
C12A C -1.1950(5) 0.9087(5) -0.8958(4)
O11 O 0.0000 0.5000 -0.5000
O12 O 0.1106(4) 0.1917(3) -0.4095(3)
H7 H 0.1166 0.1547 -0.3302
H8 H 0.2088 0.2785 -0.3633
loop_
_geom_bond_atom_site_label_1
_geom_bond_atom_site_label_2
_geom_bond_site_symmetry_1
_geom_bond_site_symmetry_2
Ca1 O1 1_555 1_555
Ca2 O2 1_555 1_555
O1 C8 1_555 1_555
O2 Ca1 1_555 1_555
O3 C10 1_555 1_555
O4 C10 1_555 1_555
O5 C12 1_555 1_555
O6 C12 1_555 1_555
O7 Ca1 1_555 1_555
H1 O7 1_555 1_555
H2 O7 1_555 1_555
O8 Ca1 1_555 1_555
H3 O8 1_555 1_555
H4 O8 1_555 1_555
O9 Ca1 1_555 1_555
H5 O9 1_555 1_555
H6 O9 1_555 1_555
O10 Ca2 1_555 1_555
O12 H7 1_555 1_555
H8 O12 1_555 1_555
C1 C2 1_555 1_555
C2 H9 1_555 1_555
C3 C2 1_555 1_555
C4 C3 1_555 1_555
H10 C4 1_555 1_555
C5 C4 1_555 1_555
C6 C1 1_555 1_555
H11 C6 1_555 1_555
C7 C1 1_555 1_555
H12 C7 1_555 1_555
H13 C7 1_555 1_555
C8 O2 1_555 1_555
C9 C3 1_555 1_555
H14 C9 1_555 1_555
H15 C9 1_555 1_555
C10 C9 1_555 1_555
C11 C5 1_555 1_555
H16 C11 1_555 1_555
H17 C11 1_555 1_555
C12 C11 1_555 1_555
Ca1A O1 1_555 1_555
Ca1A_2 O1A_2 1_555 1_555
Ca1_2 O4A_2 1_555 1_555
Ca1A_3 O4 1_555 1_555
Ca1_3 O1A_2 1_555 1_555
Ca2_2 O3A_2 1_555 1_555
Ca2_3 O3 1_555 1_555
O1A Ca1 1_555 1_555
O1A_2 C8A 1_555 1_555
O1_2 Ca1A_2 1_555 1_555
O2A Ca2 1_555 1_555
O3A Ca2 1_555 1_555
O3_2 Ca2 1_555 1_555
O3A_2 C10A 1_555 1_555
O4_2 Ca2 1_555 1_555
O4A Ca1 1_555 1_555
O4A_2 Ca2_2 1_555 1_555
O5A C12A 1_555 1_555
O6A C12A 1_555 1_555
O7A Ca1A_2 1_555 1_555
H1A O7A 1_555 1_555
H2A O7A 1_555 1_555
O8A Ca1A_2 1_555 1_555
H3A O8A 1_555 1_555
H4A O8A 1_555 1_555
O9A Ca1A_2 1_555 1_555
H5A O9A 1_555 1_555
H6A O9A 1_555 1_555
O10A Ca2 1_555 1_555
C1A C2A 1_555 1_555
C2A H9A 1_555 1_555
C3A C2A 1_555 1_555
C4A C3A 1_555 1_555
H10A C4A 1_555 1_555
C5A C4A 1_555 1_555
C6A C1A 1_555 1_555
H11A C6A 1_555 1_555
C7A C1A 1_555 1_555
H12A C7A 1_555 1_555
H13A C7A 1_555 1_555
C8A O2A 1_555 1_555
C9A C3A 1_555 1_555
H14A C9A 1_555 1_555
H15A C9A 1_555 1_555
C10A O4A_2 1_555 1_555
C11A C5A 1_555 1_555
H16A C11A 1_555 1_555
H17A C11A 1_555 1_555
C12A C11A 1_555 1_555
Ca2 O4A 1_555 1_555
O4 Ca2_3 1_555 1_555
C5 C6 1_555 1_555
C7 C8 1_555 1_555
Ca1A O1A 1_555 1_555
Ca1A_2 O2A 1_555 1_555
Ca1A_2 O4_2 1_555 1_555
Ca1_3 O1_2 1_555 1_555
C5A C6A 1_555 1_555
C7A C8A 1_555 1_555
C9A C10A 1_555 1_555

#END
