
#######################################################################
#
#                 Cambridge Crystallographic Data Centre
#                                CCDC 
#
#######################################################################
#
# If this CIF has been generated from an entry in the Cambridge 
# Structural Database, then it will include bibliographic, chemical, 
# crystal, experimental, refinement or atomic coordinate data resulting 
# from the CCDC's data processing and validation procedures.
#
#######################################################################

data_FEBDUM
_symmetry_cell_setting           triclinic
_symmetry_space_group_name_H-M   'P -1'
_symmetry_Int_Tables_number      2
_space_group_name_Hall           '-P 1'
loop_
_symmetry_equiv_pos_site_id
_symmetry_equiv_pos_as_xyz
1 x,y,z
2 -x,-y,-z
_cell_length_a                   7.3320(4)
_cell_length_b                   10.9605(6)
_cell_length_c                   12.6229(7)
_cell_angle_alpha                64.7210(10)
_cell_angle_beta                 81.113(2)
_cell_angle_gamma                89.366(2)
_cell_volume                     904.541
loop_
_atom_site_label
_atom_site_type_symbol
_atom_site_fract_x
_atom_site_fract_y
_atom_site_fract_z
V1 V 0.24572(3) 1.36095(2) 0.37723(2)
K1 K 0.08662(5) 1.32723(3) 0.09041(3)
O1 O 0.44831(17) 1.38429(12) 0.29453(11)
O2 O 0.09267(17) 1.31339(12) 0.31897(11)
O3 O 0.17487(17) 1.55173(11) 0.30727(10)
O4 O 0.25674(17) 1.19147(11) 0.50641(10)
O5 O 0.20222(19) 1.27801(14) 0.89787(12)
H1 H 0.191(4) 1.345(3) 0.864(3)
O6 O 0.47603(18) 1.30528(12) 0.10344(11)
O7 O -0.18567(17) 1.45047(13) 0.20641(12)
O8 O 0.19428(18) 1.58741(13) 0.05377(11)
N1 N 0.1202(2) 2.04718(14) 0.20645(13)
N2 N 0.2304(2) 1.56949(13) 0.47443(12)
N3 N 0.25417(18) 1.43188(13) 0.50893(11)
N4 N 0.3803(2) 0.95217(14) 0.77959(13)
C1 C 0.1301(2) 1.83345(16) 0.19538(14)
H2 H 0.115(3) 1.780(2) 0.151(2)
C2 C 0.1089(2) 1.97170(17) 0.14807(15)
H3 H 0.095(4) 2.016(3) 0.078(2)
C3 C 0.1555(2) 1.98334(17) 0.31798(16)
H4 H 0.168(3) 2.043(2) 0.357(2)
C4 C 0.1792(2) 1.84608(16) 0.37347(15)
H5 H 0.200(4) 1.798(3) 0.449(3)
C5 C 0.1659(2) 1.76883(15) 0.31118(13)
C6 C 0.1918(2) 1.62185(15) 0.36713(13)
C7 C 0.2959(2) 1.36980(16) 0.61473(14)
H6 H 0.312(3) 1.424(2) 0.655(2)
C8 C 0.3254(2) 1.22834(15) 0.67031(13)
C9 C 0.3700(2) 1.16838(16) 0.78643(13)
C10 C 0.3959(2) 1.03227(17) 0.83474(15)
H7 H 0.422(4) 0.988(3) 0.907(2)
C11 C 0.3340(2) 1.00559(16) 0.67178(14)
C12 C 0.3056(2) 1.14575(15) 0.61231(13)
C13 C 0.3075(3) 0.91342(17) 0.61498(16)
H8 H 0.378(4) 0.839(3) 0.642(2)
H9 H 0.340(4) 0.948(3) 0.534(3)
H10 H 0.195(5) 0.885(3) 0.637(3)
C14 C 0.3824(2) 1.24733(17) 0.85837(14)
K1_2 K 0.08662(5) 1.32723(3) 1.09041(3)
K1A K -0.08662(5) 1.67277(3) -0.09041(3)
K1_3 K 0.08662(5) 2.32723(3) 0.09041(3)
O5_2 O 0.20222(19) 1.27801(14) -0.10213(12)
H1_2 H 0.191(4) 1.345(3) -0.136(3)
O8A O -0.19428(18) 1.41259(13) -0.05377(11)
N1_2 N 0.1202(2) 1.04718(14) 0.20645(13)
loop_
_geom_bond_atom_site_label_1
_geom_bond_atom_site_label_2
_geom_bond_site_symmetry_1
_geom_bond_site_symmetry_2
V1 O1 1_555 1_555
K1 O2 1_555 1_555
O2 V1 1_555 1_555
O3 V1 1_555 1_555
O4 V1 1_555 1_555
O5 H1 1_555 1_555
O6 K1 1_555 1_555
O7 K1 1_555 1_555
O8 K1 1_555 1_555
N1 C2 1_555 1_555
N2 N3 1_555 1_555
N3 V1 1_555 1_555
N4 C10 1_555 1_555
C1 H2 1_555 1_555
C2 C1 1_555 1_555
H3 C2 1_555 1_555
C3 N1 1_555 1_555
H4 C3 1_555 1_555
C4 C3 1_555 1_555
H5 C4 1_555 1_555
C5 C1 1_555 1_555
C6 O3 1_555 1_555
C7 N3 1_555 1_555
H6 C7 1_555 1_555
C8 C7 1_555 1_555
C9 C8 1_555 1_555
C10 C9 1_555 1_555
H7 C10 1_555 1_555
C11 N4 1_555 1_555
C12 O4 1_555 1_555
C13 C11 1_555 1_555
H8 C13 1_555 1_555
H9 C13 1_555 1_555
H10 C13 1_555 1_555
C14 O5 1_555 1_555
K1_2 O5 1_555 1_555
K1A O8 1_555 1_555
K1_3 N1 1_555 1_555
O5_2 K1 1_555 1_555
H1_2 O5_2 1_555 1_555
O8A K1 1_555 1_555
N1_2 K1 1_555 1_555
N2 C6 1_555 1_555
C4 C5 1_555 1_555
C5 C6 1_555 1_555
C8 C12 1_555 1_555
C9 C14 1_555 1_555
C11 C12 1_555 1_555
K1A O8A 1_555 1_555

#END
