
#######################################################################
#
#                 Cambridge Crystallographic Data Centre
#                                CCDC 
#
#######################################################################
#
# If this CIF has been generated from an entry in the Cambridge 
# Structural Database, then it will include bibliographic, chemical, 
# crystal, experimental, refinement or atomic coordinate data resulting 
# from the CCDC's data processing and validation procedures.
#
#######################################################################

data_FEBGOK
_symmetry_cell_setting           monoclinic
_symmetry_space_group_name_H-M   'P 21/n'
_symmetry_Int_Tables_number      14
_space_group_name_Hall           '-P 2yn'
loop_
_symmetry_equiv_pos_site_id
_symmetry_equiv_pos_as_xyz
1 x,y,z
2 1/2-x,1/2+y,1/2-z
3 -x,-y,-z
4 1/2+x,1/2-y,1/2+z
_cell_length_a                   13.8320(7)
_cell_length_b                   13.9122(8)
_cell_length_c                   14.6677(9)
_cell_angle_alpha                90
_cell_angle_beta                 117.7200(10)
_cell_angle_gamma                90
_cell_volume                     2498.62
loop_
_atom_site_label
_atom_site_type_symbol
_atom_site_fract_x
_atom_site_fract_y
_atom_site_fract_z
C1 C 0.00061(19) 0.69601(18) -0.11995(18)
H1 H 0.0510 0.7179 -0.1405
C2 C -0.0595(2) 0.61019(19) -0.1555(2)
H2 H -0.0571 0.5674 -0.2032
C3 C -0.1218(2) 0.60230(18) -0.1063(2)
H3 H -0.1695 0.5524 -0.1133
C4 C -0.10005(18) 0.68494(16) -0.04198(17)
C5 C -0.14701(17) 0.70876(15) 0.02058(17)
C6 C -0.13014(17) 0.79416(15) 0.07703(16)
C7 C -0.17813(19) 0.82131(16) 0.13921(18)
H4 H -0.2298 0.7865 0.1493
C8 C -0.13454(18) 0.90876(16) 0.18232(18)
H5 H -0.1508 0.9448 0.2268
C9 C -0.06000(17) 0.93279(15) 0.14530(16)
H6 H -0.0184 0.9887 0.1629
C10 C -0.21885(18) 0.63398(15) 0.03167(18)
C11 C -0.3302(2) 0.63082(19) -0.0288(2)
H7 H -0.3657 0.6785 -0.0775
C12 C -0.3889(2) 0.5557(2) -0.0164(2)
H8 H -0.4639 0.5541 -0.0593
C13 C -0.2391(2) 0.4916(2) 0.1119(3)
H9 H -0.2062 0.4446 0.1620
C14 C -0.1737(2) 0.5631(2) 0.1044(2)
H10 H -0.0990 0.5630 0.1486
C15 C 0.23854(17) 0.89921(15) -0.00107(16)
C16 C 0.30885(17) 0.87271(15) -0.04984(16)
C17 C 0.32032(19) 0.77654(16) -0.06961(17)
H11 H 0.2819 0.7288 -0.0557
C18 C 0.3896(2) 0.75316(17) -0.11009(19)
H12 H 0.3977 0.6885 -0.1211
C19 C 0.43059(19) 0.90969(17) -0.11845(18)
H13 H 0.4664 0.9561 -0.1372
C20 C 0.36545(17) 0.94069(16) -0.07590(17)
H14 H 0.3596 1.0058 -0.0649
C21 C 0.27139(17) 0.97526(15) 0.06894(17)
H15 H 0.3369 1.0059 0.0840
C22 C 0.21208(16) 1.00816(14) 0.11769(15)
C23 C 0.25542(16) 1.09286(14) 0.18940(15)
C24 C 0.33544(19) 1.15324(15) 0.18976(17)
H16 H 0.3634 1.1433 0.1439
C25 C 0.37294(19) 1.22832(16) 0.25932(17)
H17 H 0.4260 1.2684 0.2579
C26 C 0.26076(19) 1.18872(17) 0.32687(18)
H18 H 0.2346 1.2003 0.3739
C27 C 0.21741(19) 1.11231(17) 0.25983(18)
H19 H 0.1632 1.0743 0.2619
N1 N -0.02321(15) 0.74198(13) -0.05349(14)
N2 N -0.05641(14) 0.86547(12) 0.08197(13)
N3 N -0.34586(18) 0.48630(15) 0.05186(19)
N4 N 0.44570(17) 0.81756(15) -0.13455(17)
N5 N 0.33820(15) 1.24705(13) 0.32815(14)
O1 O 0.15364(13) 0.84799(10) -0.02665(12)
O2 O 0.12343(12) 0.97227(10) 0.10804(11)
Cu1 Cu 0.05459(2) 0.852311(17) 0.034751(19)
N5A N 0.16180(15) 0.74705(13) 0.17185(14)
Cu1A Cu 0.44541(2) 1.352311(17) 0.465249(19)
C28 C 0.5538(4) 0.6617(2) 0.1804(3)
H20 H 0.5473 0.6462 0.2411
H21 H 0.6174 0.6310 0.1836
H22 H 0.4901 0.6396 0.1206
C29 C 0.5637(2) 0.7652(2) 0.1741(2)
N6 N 0.5710(2) 0.84553(19) 0.1709(2)
loop_
_geom_bond_atom_site_label_1
_geom_bond_atom_site_label_2
_geom_bond_site_symmetry_1
_geom_bond_site_symmetry_2
C1 H1 1_555 1_555
C2 C1 1_555 1_555
H2 C2 1_555 1_555
C3 C2 1_555 1_555
H3 C3 1_555 1_555
C4 C3 1_555 1_555
C5 C4 1_555 1_555
C6 C5 1_555 1_555
C7 C6 1_555 1_555
H4 C7 1_555 1_555
C8 C7 1_555 1_555
H5 C8 1_555 1_555
C9 C8 1_555 1_555
H6 C9 1_555 1_555
C10 C5 1_555 1_555
C11 C10 1_555 1_555
H7 C11 1_555 1_555
C12 C11 1_555 1_555
H8 C12 1_555 1_555
C13 H9 1_555 1_555
C14 C10 1_555 1_555
H10 C14 1_555 1_555
C15 C16 1_555 1_555
C16 C17 1_555 1_555
C17 H11 1_555 1_555
C18 C17 1_555 1_555
H12 C18 1_555 1_555
C19 H13 1_555 1_555
C20 C16 1_555 1_555
H14 C20 1_555 1_555
C21 C15 1_555 1_555
H15 C21 1_555 1_555
C22 C21 1_555 1_555
C23 C22 1_555 1_555
C24 C23 1_555 1_555
H16 C24 1_555 1_555
C25 C24 1_555 1_555
H17 C25 1_555 1_555
C26 H18 1_555 1_555
C27 C23 1_555 1_555
H19 C27 1_555 1_555
N1 C1 1_555 1_555
N2 C6 1_555 1_555
N3 C12 1_555 1_555
N4 C18 1_555 1_555
N5 C25 1_555 1_555
O1 C15 1_555 1_555
O2 C22 1_555 1_555
Cu1 N1 1_555 1_555
C28 H20 1_555 1_555
H21 C28 1_555 1_555
H22 C28 1_555 1_555
C29 C28 1_555 1_555
N6 C29 1_555 1_555
N5A Cu1 1_555 1_555
Cu1A N5 1_555 1_555
C4 N1 1_555 1_555
C9 N2 1_555 1_555
C13 C14 1_555 1_555
C13 N3 1_555 1_555
C19 C20 1_555 1_555
C19 N4 1_555 1_555
C26 C27 1_555 1_555
C26 N5 1_555 1_555
N2 Cu1 1_555 1_555
O1 Cu1 1_555 1_555
O2 Cu1 1_555 1_555

#END
