
#######################################################################
#
#                 Cambridge Crystallographic Data Centre
#                                CCDC 
#
#######################################################################
#
# If this CIF has been generated from an entry in the Cambridge 
# Structural Database, then it will include bibliographic, chemical, 
# crystal, experimental, refinement or atomic coordinate data resulting 
# from the CCDC's data processing and validation procedures.
#
#######################################################################

data_FEBHUR
_symmetry_cell_setting           monoclinic
_symmetry_space_group_name_H-M   'P 21/c'
_symmetry_Int_Tables_number      14
_space_group_name_Hall           '-P 2ybc'
loop_
_symmetry_equiv_pos_site_id
_symmetry_equiv_pos_as_xyz
1 x,y,z
2 -x,1/2+y,1/2-z
3 -x,-y,-z
4 x,1/2-y,1/2+z
_cell_length_a                   13.4689(7)
_cell_length_b                   24.9231(14)
_cell_length_c                   15.5837(9)
_cell_angle_alpha                90
_cell_angle_beta                 98.821(2)
_cell_angle_gamma                90
_cell_volume                     5169.37
loop_
_atom_site_label
_atom_site_type_symbol
_atom_site_fract_x
_atom_site_fract_y
_atom_site_fract_z
C1 C 0.7941(5) 0.0610(3) 0.6072(4)
H1 H 0.7568 0.0585 0.5519
C2 C 0.8792(6) 0.0288(3) 0.6388(5)
H2 H 0.9075 0.0023 0.6082
C3 C 0.9112(5) 0.0441(3) 0.7219(5)
H3 H 0.9654 0.0298 0.7591
C4 C 0.8474(4) 0.0858(2) 0.7420(4)
C5 C 0.8447(4) 0.1105(2) 0.8212(4)
C6 C 0.7698(4) 0.1450(2) 0.8399(3)
C7 C 0.7549(5) 0.1666(3) 0.9220(4)
H4 H 0.7970 0.1623 0.9747
C8 C 0.6670(5) 0.1945(3) 0.9082(4)
H5 H 0.6376 0.2129 0.9498
C9 C 0.6290(5) 0.1905(2) 0.8195(4)
H6 H 0.5693 0.2060 0.7930
C10 C 0.9287(4) 0.0989(3) 0.8934(4)
C11 C 1.0236(5) 0.1172(4) 0.8898(5)
H7 H 1.0374 0.1355 0.8409
C12 C 1.0995(5) 0.1084(4) 0.9597(5)
H8 H 1.1629 0.1223 0.9568
C13 C 0.9929(5) 0.0623(3) 1.0333(4)
H9 H 0.9813 0.0434 1.0823
C14 C 0.9136(5) 0.0696(3) 0.9666(4)
H10 H 0.8508 0.0552 0.9706
C15 C 0.7448(5) 0.1736(3) 0.4845(4)
H11 H 0.8077 0.1864 0.5090
C16 C 0.7081(6) 0.1725(3) 0.3949(4)
H12 H 0.7419 0.1841 0.3505
C17 C 0.6144(6) 0.1514(3) 0.3855(4)
H13 H 0.5720 0.1458 0.3333
C18 C 0.5923(4) 0.1392(2) 0.4698(4)
C19 C 0.5087(4) 0.1135(2) 0.4921(4)
C20 C 0.4972(4) 0.0971(2) 0.5753(4)
C21 C 0.4203(5) 0.0659(3) 0.6020(4)
H14 H 0.3621 0.0543 0.5669
C22 C 0.4462(6) 0.0557(3) 0.6883(5)
H15 H 0.4096 0.0361 0.7234
C23 C 0.5400(5) 0.0811(3) 0.7140(4)
H16 H 0.5755 0.0805 0.7701
C24 C 0.4252(5) 0.1008(3) 0.4201(4)
C25 C 0.3653(7) 0.1422(4) 0.3816(6)
H17 H 0.3740 0.1771 0.4024
C26 C 0.2923(7) 0.1305(4) 0.3117(6)
H18 H 0.2521 0.1584 0.2867
C27 C 0.3327(6) 0.0429(3) 0.3153(4)
H19 H 0.3224 0.0084 0.2929
C28 C 0.4079(5) 0.0505(3) 0.3871(4)
H20 H 0.4455 0.0216 0.4118
C29 C 0.4467(5) 0.3841(3) 0.6339(5)
H21 H 0.4538 0.4208 0.6444
C30 C 0.5327(5) 0.3525(2) 0.6432(4)
H22 H 0.5956 0.3681 0.6588
C31 C 0.5245(4) 0.2983(2) 0.6292(4)
C32 C 0.4285(5) 0.2771(3) 0.6047(8)
H23 H 0.4195 0.2406 0.5938
C33 C 0.3463(6) 0.3119(4) 0.5967(9)
H24 H 0.2825 0.2974 0.5807
C34 C 0.6129(4) 0.2607(2) 0.6396(3)
C35 C 0.7098(4) 0.2813(2) 0.6505(4)
H25 H 0.7176 0.3184 0.6502
C36 C 0.7964(4) 0.2493(2) 0.6621(3)
C37 C 0.8987(4) 0.2744(3) 0.6712(4)
C38 C 0.9168(5) 0.3264(3) 0.6949(5)
H26 H 0.8647 0.3487 0.7056
C39 C 1.0148(6) 0.3456(3) 0.7028(6)
H27 H 1.0261 0.3808 0.7214
C40 C 1.0729(6) 0.2679(5) 0.6617(8)
H28 H 1.1261 0.2473 0.6487
C41 C 0.9799(5) 0.2443(4) 0.6544(6)
H29 H 0.9715 0.2085 0.6383
C42 C 1.4415(7) -0.0607(4) 1.0395(7)
H30 H 1.5085 -0.0477 1.0578
H31 H 1.4262 -0.0593 0.9774
H32 H 1.4366 -0.0971 1.0586
C43 C 1.3718(6) -0.0280(3) 1.0766(5)
N1 N 0.7755(4) 0.09517(19) 0.6686(3)
N2 N 0.6902(3) 0.16143(19) 0.7782(3)
N3 N 1.0862(4) 0.0812(2) 1.0308(3)
N4 N 0.6754(4) 0.15342(19) 0.5296(3)
N5 N 0.5708(4) 0.10600(19) 0.6473(3)
N6 N 0.2761(5) 0.0815(3) 0.2781(4)
N7 N 1.0917(5) 0.3182(3) 0.6861(5)
N8 N 0.3539(5) 0.3643(3) 0.6106(5)
N9 N 1.3163(5) -0.0019(3) 1.1059(4)
O1 O 0.5890(3) 0.21145(15) 0.6378(2)
O2 O 0.7979(3) 0.19846(16) 0.6635(2)
Co1 Co 0.68280(5) 0.15357(3) 0.65402(5)
Ag1 Ag 1.20936(4) 0.07636(2) 1.13840(3)
N6_2 N 1.2761(5) 0.0815(3) 1.2781(4)
N8C N 1.3539(5) 0.1357(3) 1.1106(5)
Ag1_2 Ag 0.20936(4) 0.07636(2) 0.13840(3)
Ag1C Ag 0.20936(4) 0.42364(2) 0.63840(3)
C44 C 0.2037(7) 0.9728(4) 0.7257(8)
O3 O 0.2474(5) 0.9194(2) 0.8677(6)
O4 O 0.1680(7) 1.0051(3) 0.8694(6)
O5 O 0.3406(6) 0.9990(3) 0.8490(5)
F1 F 0.1140(6) 0.9494(3) 0.7050(6)
F2 F 0.1955(6) 1.0204(3) 0.6897(4)
F3 F 0.2672(8) 0.9463(5) 0.6832(6)
S1 S 0.24490(16) 0.97428(7) 0.83999(15)
C45 C -0.0010(8) 0.1691(7) 0.4331(8)
H33 H -0.0651 0.1713 0.4011
C46 C 0.0716(12) 0.2067(6) 0.4204(8)
H34 H 0.0561 0.2341 0.3800
C47 C 0.1675(10) 0.2034(6) 0.4681(10)
H35 H 0.2161 0.2285 0.4597
C48 C 0.1907(8) 0.1625(7) 0.5286(8)
H36 H 0.2548 0.1603 0.5605
C49 C 0.1181(12) 0.1249(6) 0.5412(8)
H37 H 0.1336 0.0976 0.5817
C50 C 0.0222(10) 0.1282(6) 0.4935(10)
H38 H -0.0264 0.1031 0.5020
loop_
_geom_bond_atom_site_label_1
_geom_bond_atom_site_label_2
_geom_bond_site_symmetry_1
_geom_bond_site_symmetry_2
C1 H1 1_555 1_555
C2 C1 1_555 1_555
H2 C2 1_555 1_555
C3 C2 1_555 1_555
H3 C3 1_555 1_555
C4 C3 1_555 1_555
C5 C4 1_555 1_555
C6 C5 1_555 1_555
C7 C6 1_555 1_555
H4 C7 1_555 1_555
C8 C7 1_555 1_555
H5 C8 1_555 1_555
C9 C8 1_555 1_555
H6 C9 1_555 1_555
C10 C5 1_555 1_555
C11 C10 1_555 1_555
H7 C11 1_555 1_555
C12 C11 1_555 1_555
H8 C12 1_555 1_555
C13 H9 1_555 1_555
C14 C10 1_555 1_555
H10 C14 1_555 1_555
C15 H11 1_555 1_555
C16 C15 1_555 1_555
H12 C16 1_555 1_555
C17 C16 1_555 1_555
H13 C17 1_555 1_555
C18 C17 1_555 1_555
C19 C18 1_555 1_555
C20 C19 1_555 1_555
C21 C20 1_555 1_555
H14 C21 1_555 1_555
C22 C21 1_555 1_555
H15 C22 1_555 1_555
C23 C22 1_555 1_555
H16 C23 1_555 1_555
C24 C19 1_555 1_555
C25 C24 1_555 1_555
H17 C25 1_555 1_555
C26 C25 1_555 1_555
H18 C26 1_555 1_555
C27 H19 1_555 1_555
C28 C24 1_555 1_555
H20 C28 1_555 1_555
C29 H21 1_555 1_555
C30 C29 1_555 1_555
H22 C30 1_555 1_555
C31 C30 1_555 1_555
C32 C31 1_555 1_555
H23 C32 1_555 1_555
C33 C32 1_555 1_555
H24 C33 1_555 1_555
C34 C31 1_555 1_555
C35 C34 1_555 1_555
H25 C35 1_555 1_555
C36 C35 1_555 1_555
C37 C36 1_555 1_555
C38 C37 1_555 1_555
H26 C38 1_555 1_555
C39 C38 1_555 1_555
H27 C39 1_555 1_555
C40 H28 1_555 1_555
C41 C37 1_555 1_555
H29 C41 1_555 1_555
C42 H30 1_555 1_555
H31 C42 1_555 1_555
H32 C42 1_555 1_555
C43 C42 1_555 1_555
N1 C1 1_555 1_555
N2 C6 1_555 1_555
N3 C12 1_555 1_555
N4 C15 1_555 1_555
N5 C20 1_555 1_555
N6 C26 1_555 1_555
N7 C39 1_555 1_555
N8 C29 1_555 1_555
N9 C43 1_555 1_555
O1 C34 1_555 1_555
O2 C36 1_555 1_555
Co1 N1 1_555 1_555
Ag1 N3 1_555 1_555
C44 F1 1_555 1_555
O3 S1 1_555 1_555
O4 S1 1_555 1_555
O5 S1 1_555 1_555
F2 C44 1_555 1_555
F3 C44 1_555 1_555
S1 C44 1_555 1_555
C45 H33 1_555 1_555
C46 C45 1_555 1_555
H34 C46 1_555 1_555
C47 C46 1_555 1_555
H35 C47 1_555 1_555
C48 C47 1_555 1_555
H36 C48 1_555 1_555
C49 C48 1_555 1_555
H37 C49 1_555 1_555
C50 C45 1_555 1_555
H38 C50 1_555 1_555
N6_2 Ag1 1_555 1_555
N8C Ag1 1_555 1_555
Ag1_2 N6 1_555 1_555
Ag1C N8 1_555 1_555
C4 N1 1_555 1_555
C9 N2 1_555 1_555
C13 C14 1_555 1_555
C13 N3 1_555 1_555
C18 N4 1_555 1_555
C23 N5 1_555 1_555
C27 C28 1_555 1_555
C27 N6 1_555 1_555
C33 N8 1_555 1_555
C40 C41 1_555 1_555
C40 N7 1_555 1_555
N2 Co1 1_555 1_555
N4 Co1 1_555 1_555
N5 Co1 1_555 1_555
N9 Ag1 1_555 1_555
O1 Co1 1_555 1_555
O2 Co1 1_555 1_555
C49 C50 1_555 1_555

#END
