
#######################################################################
#
#                 Cambridge Crystallographic Data Centre
#                                CCDC 
#
#######################################################################
#
# If this CIF has been generated from an entry in the Cambridge 
# Structural Database, then it will include bibliographic, chemical, 
# crystal, experimental, refinement or atomic coordinate data resulting 
# from the CCDC's data processing and validation procedures.
#
#######################################################################

data_FEBHOL
_symmetry_cell_setting           triclinic
_symmetry_space_group_name_H-M   'P -1'
_symmetry_Int_Tables_number      2
_space_group_name_Hall           '-P 1'
loop_
_symmetry_equiv_pos_site_id
_symmetry_equiv_pos_as_xyz
1 x,y,z
2 -x,-y,-z
_cell_length_a                   12.4775(9)
_cell_length_b                   14.1836(10)
_cell_length_c                   14.2334(11)
_cell_angle_alpha                92.645(2)
_cell_angle_beta                 101.045(2)
_cell_angle_gamma                103.095(3)
_cell_volume                     2397.43
loop_
_atom_site_label
_atom_site_type_symbol
_atom_site_fract_x
_atom_site_fract_y
_atom_site_fract_z
C1 C 0.1135(6) 0.2033(5) 1.1083(5)
H1 H 0.0554 0.2306 1.0803
C2 C 0.1223(6) 0.1661(5) 1.1992(5)
H2 H 0.0729 0.1650 1.2407
C3 C 0.2179(6) 0.1321(5) 1.2140(5)
H3 H 0.2449 0.1018 1.2670
C4 C 0.2683(5) 0.1519(5) 1.1330(4)
C5 C 0.3731(6) 0.1405(5) 1.1195(5)
C6 C 0.4212(6) 0.1725(5) 1.0432(5)
C7 C 0.5346(6) 0.1802(5) 1.0336(5)
H4 H 0.5889 0.1568 1.0737
C8 C 0.5479(6) 0.2286(5) 0.9537(5)
H5 H 0.6129 0.2444 0.9292
C9 C 0.4443(6) 0.2499(5) 0.9162(5)
H6 H 0.4304 0.2826 0.8617
C10 C 0.4412(6) 0.0939(5) 1.1924(5)
C11 C 0.5001(7) 0.1442(6) 1.2799(5)
H7 H 0.4932 0.2062 1.2974
C12 C 0.5685(9) 0.0994(7) 1.3395(7)
H8 H 0.6094 0.1343 1.3970
C13 C 0.5223(8) -0.0373(7) 1.2379(6)
H9 H 0.5279 -0.1003 1.2232
C14 C 0.4540(7) 0.0015(6) 1.1722(6)
H10 H 0.4163 -0.0341 1.1142
C15 C -0.0277(6) 0.1191(5) 0.8710(5)
H11 H -0.0182 0.0585 0.8879
C16 C -0.1283(6) 0.1364(6) 0.8167(5)
H12 H -0.1947 0.0900 0.7915
C17 C -0.1094(6) 0.2324(6) 0.8088(5)
H13 H -0.1605 0.2650 0.7774
C18 C 0.0034(5) 0.2752(5) 0.8573(4)
C19 C 0.0617(5) 0.3737(5) 0.8692(4)
C20 C 0.1714(5) 0.4099(5) 0.9199(4)
C21 C 0.2301(6) 0.5086(5) 0.9461(4)
H14 H 0.2048 0.5632 0.9277
C22 C 0.3330(6) 0.5077(5) 1.0047(5)
H15 H 0.3900 0.5615 1.0329
C23 C 0.3333(5) 0.4098(5) 1.0126(4)
H16 H 0.3921 0.3887 1.0491
C24 C -0.0011(5) 0.4457(5) 0.8283(4)
C25 C -0.0898(7) 0.4652(6) 0.8660(5)
H17 H -0.1110 0.4340 0.9179
C26 C -0.1454(7) 0.5312(6) 0.8252(5)
H18 H -0.2042 0.5441 0.8511
C27 C -0.0343(6) 0.5600(5) 0.7146(5)
H19 H -0.0153 0.5922 0.6625
C28 C 0.0276(6) 0.4953(5) 0.7516(5)
H20 H 0.0874 0.4854 0.7254
C29 C 0.1764(6) -0.2097(5) 0.9497(6)
H21 H 0.1698 -0.2323 1.0091
C30 C 0.1838(6) -0.1126(5) 0.9403(5)
H22 H 0.1820 -0.0713 0.9923
C31 C 0.1940(5) -0.0766(5) 0.8527(5)
C32 C 0.1987(6) -0.1414(5) 0.7785(5)
H23 H 0.2071 -0.1200 0.7190
C33 C 0.1910(7) -0.2373(5) 0.7938(6)
H24 H 0.1947 -0.2796 0.7432
C34 C 0.1998(5) 0.0297(4) 0.8434(4)
C35 C 0.2143(6) 0.0700(5) 0.7588(5)
H25 H 0.2208 0.0294 0.7081
C36 C 0.2196(5) 0.1667(5) 0.7445(4)
C37 C 0.2270(6) 0.2021(5) 0.6483(4)
C38 C 0.2690(6) 0.1558(5) 0.5816(5)
H26 H 0.2961 0.1010 0.5955
C39 C 0.2697(7) 0.1932(5) 0.4931(5)
H27 H 0.2987 0.1619 0.4485
C40 C 0.1908(7) 0.3148(5) 0.5336(5)
H28 H 0.1638 0.3692 0.5177
C41 C 0.1865(6) 0.2839(5) 0.6237(5)
H29 H 0.1574 0.3167 0.6671
C42 C 0.4761(7) 0.3950(7) 1.2458(6)
C43 C 0.5801(9) 0.4252(12) 1.2103(8)
H30 H 0.5778 0.3819 1.1557
H31 H 0.6432 0.4232 1.2601
H32 H 0.5875 0.4902 1.1918
N1 N 0.1980(4) 0.1945(4) 1.0680(3)
N2 N 0.3684(5) 0.2171(4) 0.9691(4)
N3 N 0.5816(8) 0.0091(6) 1.3219(6)
N4 N 0.0509(4) 0.2016(4) 0.8943(4)
N5 N 0.2394(4) 0.3504(4) 0.9618(4)
N6 N -0.1192(5) 0.5781(4) 0.7498(4)
N7 N 0.1783(6) -0.2738(4) 0.8782(5)
N8 N 0.2316(5) 0.2713(4) 0.4678(4)
N9 N 0.3976(6) 0.3728(5) 1.2712(5)
O1 O 0.1876(4) 0.0758(3) 0.9194(3)
O2 O 0.2211(4) 0.2342(3) 0.8086(3)
Co1 Co 0.21074(7) 0.21309(6) 0.93794(6)
Ag1 Ag 0.23108(5) 0.32974(5) 1.32404(4)
N6A N 0.1192(5) 0.4219(4) 1.2502(4)
N8_2 N 0.2316(5) 0.2713(4) 1.4678(4)
Ag1A Ag -0.23108(5) 0.67026(5) 0.67596(4)
Ag1_2 Ag 0.23108(5) 0.32974(5) 0.32404(4)
C44 C 0.8548(10) 0.3383(8) 0.5084(7)
O3 O 0.7933(6) 0.4438(6) 0.3826(5)
O4 O 0.7537(6) 0.4708(5) 0.5403(5)
O5 O 0.6487(6) 0.3281(5) 0.4343(5)
F1 F 0.9575(6) 0.3968(7) 0.5333(6)
F2 F 0.8572(9) 0.2663(7) 0.4446(6)
F3 F 0.8350(10) 0.2955(7) 0.5859(6)
S1 S 0.75048(18) 0.40192(15) 0.46166(14)
C45 C 0.6298(11) 0.0786(10) 0.5939(10)
C46 C 0.5804(15) 0.1610(10) 0.5912(12)
H33 H 0.6072 0.2024 0.5449
H34 H 0.6011 0.1967 0.6536
H35 H 0.5000 0.1390 0.5734
N10 N 0.6680(12) 0.0111(11) 0.5898(10)
C47 C 0.4671(19) 0.6248(11) 0.3248(15)
C48 C 0.4994(11) 0.5902(12) 0.4180(15)
H36 H 0.5246 0.6443 0.4664
H37 H 0.5591 0.5581 0.4167
H38 H 0.4358 0.5454 0.4324
N11 N 0.439(3) 0.6547(14) 0.2557(17)
C49 C 1.0356(10) 0.0081(10) 0.4136(9)
H39 H 1.0602 0.0141 0.3559
C50 C 0.9847(10) 0.0796(9) 0.4469(10)
H40 H 0.9746 0.1310 0.4107
C51 C 1.0498(10) -0.0718(9) 0.4658(11)
H41 H 1.0818 -0.1187 0.4423
C49A C 0.9644(10) -0.0081(10) 0.5864(9)
H39A H 0.9398 -0.0141 0.6441
C50A C 1.0153(10) -0.0796(9) 0.5531(10)
H40A H 1.0254 -0.1310 0.5893
C51A C 0.9502(10) 0.0718(9) 0.5342(11)
H41A H 0.9182 0.1187 0.5577
loop_
_geom_bond_atom_site_label_1
_geom_bond_atom_site_label_2
_geom_bond_site_symmetry_1
_geom_bond_site_symmetry_2
C1 H1 1_555 1_555
C2 C1 1_555 1_555
H2 C2 1_555 1_555
C3 C2 1_555 1_555
H3 C3 1_555 1_555
C4 C3 1_555 1_555
C5 C4 1_555 1_555
C6 C5 1_555 1_555
C7 C6 1_555 1_555
H4 C7 1_555 1_555
C8 C7 1_555 1_555
H5 C8 1_555 1_555
C9 C8 1_555 1_555
H6 C9 1_555 1_555
C10 C5 1_555 1_555
C11 C10 1_555 1_555
H7 C11 1_555 1_555
C12 C11 1_555 1_555
H8 C12 1_555 1_555
C13 H9 1_555 1_555
C14 C10 1_555 1_555
H10 C14 1_555 1_555
C15 H11 1_555 1_555
C16 C15 1_555 1_555
H12 C16 1_555 1_555
C17 C16 1_555 1_555
H13 C17 1_555 1_555
C18 C17 1_555 1_555
C19 C18 1_555 1_555
C20 C19 1_555 1_555
C21 C20 1_555 1_555
H14 C21 1_555 1_555
C22 C21 1_555 1_555
H15 C22 1_555 1_555
C23 C22 1_555 1_555
H16 C23 1_555 1_555
C24 C19 1_555 1_555
C25 C24 1_555 1_555
H17 C25 1_555 1_555
C26 C25 1_555 1_555
H18 C26 1_555 1_555
C27 H19 1_555 1_555
C28 C24 1_555 1_555
H20 C28 1_555 1_555
C29 H21 1_555 1_555
C30 C29 1_555 1_555
H22 C30 1_555 1_555
C31 C30 1_555 1_555
C32 C31 1_555 1_555
H23 C32 1_555 1_555
C33 C32 1_555 1_555
H24 C33 1_555 1_555
C34 C31 1_555 1_555
C35 C34 1_555 1_555
H25 C35 1_555 1_555
C36 C35 1_555 1_555
C37 C36 1_555 1_555
C38 C37 1_555 1_555
H26 C38 1_555 1_555
C39 C38 1_555 1_555
H27 C39 1_555 1_555
C40 H28 1_555 1_555
C41 C37 1_555 1_555
H29 C41 1_555 1_555
C42 C43 1_555 1_555
C43 H30 1_555 1_555
H31 C43 1_555 1_555
H32 C43 1_555 1_555
N1 C1 1_555 1_555
N2 C6 1_555 1_555
N3 C12 1_555 1_555
N4 C15 1_555 1_555
N5 C20 1_555 1_555
N6 C26 1_555 1_555
N7 C29 1_555 1_555
N8 C39 1_555 1_555
N9 C42 1_555 1_555
O1 C34 1_555 1_555
O2 C36 1_555 1_555
Co1 N1 1_555 1_555
Ag1 C2 1_555 1_555
C44 F1 1_555 1_555
O3 S1 1_555 1_555
O4 S1 1_555 1_555
O5 S1 1_555 1_555
F2 C44 1_555 1_555
F3 C44 1_555 1_555
S1 C44 1_555 1_555
C45 C46 1_555 1_555
C46 H33 1_555 1_555
H34 C46 1_555 1_555
H35 C46 1_555 1_555
N10 C45 1_555 1_555
C47 C48 1_555 1_555
C48 H36 1_555 1_555
H37 C48 1_555 1_555
H38 C48 1_555 1_555
N11 C47 1_555 1_555
C49 H39 1_555 1_555
C50 C49 1_555 1_555
H40 C50 1_555 1_555
C51 C49 1_555 1_555
H41 C51 1_555 1_555
N6A Ag1 1_555 1_555
N8_2 Ag1 1_555 1_555
Ag1A N6 1_555 1_555
Ag1_2 N8 1_555 1_555
C49A H39A 1_555 1_555
C50A C51 1_555 1_555
H40A C50A 1_555 1_555
C51A C50 1_555 1_555
H41A C51A 1_555 1_555
C4 N1 1_555 1_555
C9 N2 1_555 1_555
C13 C14 1_555 1_555
C13 N3 1_555 1_555
C18 N4 1_555 1_555
C23 N5 1_555 1_555
C27 C28 1_555 1_555
C27 N6 1_555 1_555
C33 N7 1_555 1_555
C40 C41 1_555 1_555
C40 N8 1_555 1_555
N2 Co1 1_555 1_555
N4 Co1 1_555 1_555
N5 Co1 1_555 1_555
N9 Ag1 1_555 1_555
O1 Co1 1_555 1_555
O2 Co1 1_555 1_555
C49A C50A 1_555 1_555
C49A C51A 1_555 1_555

#END
