
#######################################################################
#
#                 Cambridge Crystallographic Data Centre
#                                CCDC 
#
#######################################################################
#
# If this CIF has been generated from an entry in the Cambridge 
# Structural Database, then it will include bibliographic, chemical, 
# crystal, experimental, refinement or atomic coordinate data resulting 
# from the CCDC's data processing and validation procedures.
#
#######################################################################

data_FEBHIF
_symmetry_cell_setting           triclinic
_symmetry_space_group_name_H-M   'P -1'
_symmetry_Int_Tables_number      2
_space_group_name_Hall           '-P 1'
loop_
_symmetry_equiv_pos_site_id
_symmetry_equiv_pos_as_xyz
1 x,y,z
2 -x,-y,-z
_cell_length_a                   12.2277(3)
_cell_length_b                   13.9112(3)
_cell_length_c                   14.0886(3)
_cell_angle_alpha                89.9420(10)
_cell_angle_beta                 70.7410(10)
_cell_angle_gamma                84.9120(10)
_cell_volume                     2252.45
loop_
_atom_site_label
_atom_site_type_symbol
_atom_site_fract_x
_atom_site_fract_y
_atom_site_fract_z
C1 C 0.0096(3) 0.1486(2) -0.2240(2)
H1 H 0.0126 0.2065 -0.1925
C2 C -0.0901(3) 0.1212(2) -0.2431(2)
H2 H -0.1626 0.1563 -0.2259
C3 C -0.0587(3) 0.0329(2) -0.2919(2)
H3 H -0.1058 -0.0030 -0.3153
C4 C 0.0592(2) 0.0063(2) -0.3002(2)
C5 C 0.1249(2) -0.08044(19) -0.3364(2)
C6 C 0.2370(2) -0.10519(19) -0.3330(2)
C7 C 0.3033(3) -0.1962(2) -0.3544(2)
H4 H 0.2836 -0.2512 -0.3801
C8 C 0.4028(3) -0.1882(2) -0.3299(2)
H5 H 0.4626 -0.2364 -0.3356
C9 C 0.3955(3) -0.0922(2) -0.2947(2)
H6 H 0.4510 -0.0670 -0.2725
C10 C 0.0731(2) -0.1567(2) -0.3781(2)
C11 C 0.0791(3) -0.1592(3) -0.4778(2)
H7 H 0.1097 -0.1096 -0.5199
C12 C 0.0389(3) -0.2365(3) -0.5142(3)
H8 H 0.0440 -0.2373 -0.5815
C13 C -0.0155(3) -0.3047(3) -0.3625(3)
H9 H -0.0488 -0.3543 -0.3219
C14 C 0.0217(3) -0.2303(2) -0.3184(3)
H10 H 0.0121 -0.2300 -0.2501
C15 C 0.4998(3) 0.1280(2) -0.3885(2)
H11 H 0.4917 0.1106 -0.4494
C16 C 0.5972(3) 0.1691(2) -0.3791(2)
H12 H 0.6632 0.1831 -0.4313
C17 C 0.5760(3) 0.1845(2) -0.2780(2)
H13 H 0.6245 0.2114 -0.2487
C18 C 0.4661(2) 0.15152(19) -0.2272(2)
C19 C 0.4095(2) 0.14813(19) -0.1236(2)
C20 C 0.3029(2) 0.11208(19) -0.0783(2)
C21 C 0.2475(3) 0.0958(2) 0.0259(2)
H14 H 0.2724 0.1131 0.0786
C22 C 0.1506(3) 0.0498(2) 0.0332(2)
H15 H 0.0976 0.0294 0.0920
C23 C 0.1465(3) 0.0392(2) -0.0655(2)
H16 H 0.0893 0.0097 -0.0817
C24 C 0.4727(2) 0.1803(2) -0.0563(2)
C25 C 0.5615(3) 0.1202(2) -0.0409(2)
H17 H 0.5829 0.0596 -0.0727
C26 C 0.6180(3) 0.1512(2) 0.0224(3)
H18 H 0.6768 0.1099 0.0329
C27 C 0.5074(3) 0.2965(2) 0.0528(2)
H19 H 0.4894 0.3576 0.0838
C28 C 0.4457(3) 0.2702(2) -0.0080(2)
H20 H 0.3865 0.3126 -0.0165
C29 C 0.3165(3) 0.0670(3) -0.7077(2)
H21 H 0.3266 0.0046 -0.7347
C30 C 0.2972(3) 0.0785(2) -0.6057(2)
H22 H 0.2940 0.0249 -0.5657
C31 C 0.2827(2) 0.1713(2) -0.5637(2)
C32 C 0.2870(3) 0.2480(2) -0.6277(2)
H23 H 0.2773 0.3113 -0.6032
C33 C 0.3058(3) 0.2286(3) -0.7280(2)
H24 H 0.3077 0.2808 -0.7696
C34 C 0.2675(2) 0.1831(2) -0.4544(2)
C35 C 0.2475(3) 0.2749(2) -0.4087(2)
H25 H 0.2412 0.3280 -0.4473
C36 C 0.2367(3) 0.2914(2) -0.3086(2)
C37 C 0.2423(3) 0.3911(2) -0.2724(2)
C38 C 0.3046(4) 0.4027(2) -0.2078(3)
H26 H 0.3377 0.3491 -0.1842
C39 C 0.3174(4) 0.4946(2) -0.1785(3)
H27 H 0.3613 0.5014 -0.1366
C40 C 0.2074(3) 0.5620(2) -0.2679(3)
H28 H 0.1720 0.6168 -0.2876
C41 C 0.1922(3) 0.4727(2) -0.3032(3)
H29 H 0.1494 0.4680 -0.3464
C42 C 0.0347(4) -0.2575(3) -0.0469(3)
C43 C -0.0626(4) -0.3113(3) 0.0050(3)
H30 H -0.1240 -0.2684 0.0492
H31 H -0.0381 -0.3604 0.0435
H32 H -0.0901 -0.3408 -0.0433
N1 N 0.0984(2) 0.08087(16) -0.25671(17)
N2 N 0.2985(2) -0.04241(16) -0.29736(17)
N3 N -0.0063(3) -0.3092(2) -0.4587(2)
N4 N 0.4208(2) 0.11724(17) -0.29871(17)
N5 N 0.2358(2) 0.07732(16) -0.13221(16)
N6 N 0.5915(2) 0.23806(18) 0.06910(19)
N7 N 0.3214(3) 0.1406(2) -0.7695(2)
N8 N 0.2693(3) 0.57407(18) -0.2078(2)
N9 N 0.1107(3) -0.2151(3) -0.0881(3)
O1 O 0.27989(18) 0.10418(14) -0.41152(14)
O2 O 0.22762(18) 0.22782(13) -0.24154(14)
Co1 Co 0.25977(3) 0.09301(2) -0.27208(3)
Ag1 Ag 0.31059(2) -0.278577(17) -0.17007(2)
N6A N 0.4085(2) -0.23806(18) -0.06910(19)
N8_2 N 0.2693(3) -0.42593(18) -0.2078(2)
Ag1A Ag 0.68941(2) 0.278577(17) 0.17007(2)
Ag1_2 Ag 0.31059(2) 0.721423(17) -0.17007(2)
F1 F 0.8893(6) 0.4257(5) 0.7047(4)
F2 F 0.8782(8) 0.3809(4) 0.8846(7)
F3 F 0.7230(4) 0.3373(3) 0.8128(4)
F4 F 0.6909(8) 0.5188(4) 0.7746(5)
F5 F 0.6739(5) 0.4768(4) 0.9533(3)
F6 F 0.8475(6) 0.5611(3) 0.8455(4)
Sb1 Sb 0.78462(3) 0.447551(19) 0.83133(2)
C44 C 0.4343(6) 0.4827(4) 0.4128(5)
C45 C 0.3770(7) 0.5785(4) 0.4157(6)
H33 H 0.2969 0.5793 0.4572
H34 H 0.3815 0.5963 0.3488
H35 H 0.4146 0.6235 0.4431
N10 N 0.4774(6) 0.4093(4) 0.4122(6)
O3 O 0.1306(4) 0.4652(3) 0.4887(3)
H36 H 0.095(5) 0.518(3) 0.472(6)
H37 H 0.093(5) 0.412(3) 0.494(6)
loop_
_geom_bond_atom_site_label_1
_geom_bond_atom_site_label_2
_geom_bond_site_symmetry_1
_geom_bond_site_symmetry_2
C1 H1 1_555 1_555
C2 C1 1_555 1_555
H2 C2 1_555 1_555
C3 C2 1_555 1_555
H3 C3 1_555 1_555
C4 C3 1_555 1_555
C5 C4 1_555 1_555
C6 C5 1_555 1_555
C7 C6 1_555 1_555
H4 C7 1_555 1_555
C8 C7 1_555 1_555
H5 C8 1_555 1_555
C9 C8 1_555 1_555
H6 C9 1_555 1_555
C10 C5 1_555 1_555
C11 C10 1_555 1_555
H7 C11 1_555 1_555
C12 C11 1_555 1_555
H8 C12 1_555 1_555
C13 H9 1_555 1_555
C14 C10 1_555 1_555
H10 C14 1_555 1_555
C15 H11 1_555 1_555
C16 C15 1_555 1_555
H12 C16 1_555 1_555
C17 C16 1_555 1_555
H13 C17 1_555 1_555
C18 C17 1_555 1_555
C19 C18 1_555 1_555
C20 C19 1_555 1_555
C21 C20 1_555 1_555
H14 C21 1_555 1_555
C22 C21 1_555 1_555
H15 C22 1_555 1_555
C23 C22 1_555 1_555
H16 C23 1_555 1_555
C24 C19 1_555 1_555
C25 C24 1_555 1_555
H17 C25 1_555 1_555
C26 C25 1_555 1_555
H18 C26 1_555 1_555
C27 H19 1_555 1_555
C28 C24 1_555 1_555
H20 C28 1_555 1_555
C29 H21 1_555 1_555
C30 C29 1_555 1_555
H22 C30 1_555 1_555
C31 C30 1_555 1_555
C32 C31 1_555 1_555
H23 C32 1_555 1_555
C33 C32 1_555 1_555
H24 C33 1_555 1_555
C34 C31 1_555 1_555
C35 C34 1_555 1_555
H25 C35 1_555 1_555
C36 C35 1_555 1_555
C37 C36 1_555 1_555
C38 C37 1_555 1_555
H26 C38 1_555 1_555
C39 C38 1_555 1_555
H27 C39 1_555 1_555
C40 H28 1_555 1_555
C41 C37 1_555 1_555
H29 C41 1_555 1_555
C42 C43 1_555 1_555
C43 H30 1_555 1_555
H31 C43 1_555 1_555
H32 C43 1_555 1_555
N1 C1 1_555 1_555
N2 C6 1_555 1_555
N3 C12 1_555 1_555
N4 C15 1_555 1_555
N5 C20 1_555 1_555
N6 C26 1_555 1_555
N7 C29 1_555 1_555
N8 C39 1_555 1_555
N9 C42 1_555 1_555
O1 C34 1_555 1_555
O2 C36 1_555 1_555
Co1 N1 1_555 1_555
Ag1 C8 1_555 1_555
F1 Sb1 1_555 1_555
F2 Sb1 1_555 1_555
F3 Sb1 1_555 1_555
F4 Sb1 1_555 1_555
F5 Sb1 1_555 1_555
F6 Sb1 1_555 1_555
C44 C45 1_555 1_555
C45 H33 1_555 1_555
H34 C45 1_555 1_555
H35 C45 1_555 1_555
N10 C44 1_555 1_555
O3 H36 1_555 1_555
H37 O3 1_555 1_555
N6A Ag1 1_555 1_555
N8_2 Ag1 1_555 1_555
Ag1A N6 1_555 1_555
Ag1_2 N8 1_555 1_555
C4 N1 1_555 1_555
C9 N2 1_555 1_555
C13 C14 1_555 1_555
C13 N3 1_555 1_555
C18 N4 1_555 1_555
C23 N5 1_555 1_555
C27 C28 1_555 1_555
C27 N6 1_555 1_555
C33 N7 1_555 1_555
C40 C41 1_555 1_555
C40 N8 1_555 1_555
N2 Co1 1_555 1_555
N4 Co1 1_555 1_555
N5 Co1 1_555 1_555
N9 Ag1 1_555 1_555
O1 Co1 1_555 1_555
O2 Co1 1_555 1_555

#END
