
#######################################################################
#
#                 Cambridge Crystallographic Data Centre
#                                CCDC 
#
#######################################################################
#
# If this CIF has been generated from an entry in the Cambridge 
# Structural Database, then it will include bibliographic, chemical, 
# crystal, experimental, refinement or atomic coordinate data resulting 
# from the CCDC's data processing and validation procedures.
#
#######################################################################

data_FEBKIH
_symmetry_cell_setting           orthorhombic
_symmetry_space_group_name_H-M   'P b c a'
_symmetry_Int_Tables_number      61
_space_group_name_Hall           '-P 2ac 2ab'
loop_
_symmetry_equiv_pos_site_id
_symmetry_equiv_pos_as_xyz
1 x,y,z
2 1/2-x,-y,1/2+z
3 -x,1/2+y,1/2-z
4 1/2+x,1/2-y,-z
5 -x,-y,-z
6 1/2+x,y,1/2-z
7 x,1/2-y,1/2+z
8 1/2-x,1/2+y,z
_cell_length_a                   9.0488(8)
_cell_length_b                   16.246(3)
_cell_length_c                   19.810(4)
_cell_angle_alpha                90
_cell_angle_beta                 90
_cell_angle_gamma                90
_cell_volume                     2912.2
loop_
_atom_site_label
_atom_site_type_symbol
_atom_site_fract_x
_atom_site_fract_y
_atom_site_fract_z
Cd1 Cd 0.619926(11) 0.151281(6) 0.654799(5)
O1 O 0.66249(14) 0.30015(7) 0.64851(6)
O2 O 0.32848(13) 0.50531(7) 0.84069(5)
O3 O 0.86474(13) 0.15945(8) 0.68363(7)
N1 N 0.67312(15) 0.15329(7) 0.53966(6)
O4 O 0.49350(14) 0.25116(7) 0.71743(6)
O5 O 0.45988(13) 0.56008(6) 0.75818(6)
C1 C 0.40477(16) 0.49832(9) 0.78801(7)
N2 N 0.40600(14) 0.11602(8) 0.59273(7)
C2 C 0.56597(16) 0.31062(9) 0.69273(7)
C3 C 0.56438(17) 0.13606(10) 0.49597(8)
C4 C 0.53433(16) 0.39661(9) 0.71577(7)
H1 H 0.5880 0.4398 0.6971
C5 C 0.41884(17) 0.11173(10) 0.52523(8)
C6 C 0.43232(16) 0.41337(9) 0.76192(7)
C7 C 0.80567(19) 0.17593(10) 0.51613(8)
H2 H 0.8803 0.1878 0.5469
C8 C 0.1552(2) 0.07105(14) 0.58459(10)
H3 H 0.0669 0.0574 0.6059
C9 C 0.8364(2) 0.18246(12) 0.44804(9)
H4 H 0.9300 0.1976 0.4331
C10 C 0.1682(2) 0.06711(14) 0.51519(10)
H5 H 0.0878 0.0510 0.4890
C11 C 0.27734(18) 0.09597(11) 0.62164(9)
H6 H 0.2695 0.0989 0.6684
C12 C 0.5868(2) 0.14239(14) 0.42662(9)
H7 H 0.5103 0.1309 0.3967
C13 C 0.3010(2) 0.08717(12) 0.48469(9)
H8 H 0.3115 0.0843 0.4380
C14 C 0.7241(2) 0.16591(15) 0.40268(9)
H9 H 0.7407 0.1705 0.3565
H10 H 0.3734 0.3684 0.7795
H11 H 0.894(3) 0.1998(19) 0.7070(15)
H12 H 0.900(3) 0.1193(18) 0.7018(14)
Cd1B Cd 0.380074(11) 0.651281(6) 0.845201(5)
O2B O 0.67152(13) 0.00531(7) 0.65931(5)
O5B O 0.54012(13) 0.06008(6) 0.74182(6)
loop_
_geom_bond_atom_site_label_1
_geom_bond_atom_site_label_2
_geom_bond_site_symmetry_1
_geom_bond_site_symmetry_2
Cd1 O1 1_555 1_555
O1 C2 1_555 1_555
O2 C1 1_555 1_555
O3 Cd1 1_555 1_555
N1 Cd1 1_555 1_555
O4 Cd1 1_555 1_555
O5 C1 1_555 1_555
C1 C6 1_555 1_555
N2 Cd1 1_555 1_555
C2 O4 1_555 1_555
C3 N1 1_555 1_555
C4 C2 1_555 1_555
H1 C4 1_555 1_555
C5 N2 1_555 1_555
C6 C4 1_555 1_555
C7 N1 1_555 1_555
H2 C7 1_555 1_555
C8 H3 1_555 1_555
C9 C7 1_555 1_555
H4 C9 1_555 1_555
C10 C8 1_555 1_555
H5 C10 1_555 1_555
C11 N2 1_555 1_555
H6 C11 1_555 1_555
C12 C3 1_555 1_555
H7 C12 1_555 1_555
C13 C5 1_555 1_555
H8 C13 1_555 1_555
C14 C9 1_555 1_555
H9 C14 1_555 1_555
H10 C6 1_555 1_555
H11 O3 1_555 1_555
H12 O3 1_555 1_555
Cd1B O2 1_555 1_555
O2B Cd1 1_555 1_555
O5B Cd1 1_555 1_555
O5 Cd1B 1_555 1_555
C3 C5 1_555 1_555
C8 C11 1_555 1_555
C10 C13 1_555 1_555
C12 C14 1_555 1_555

#END
