
#######################################################################
#
#                 Cambridge Crystallographic Data Centre
#                                CCDC 
#
#######################################################################
#
# If this CIF has been generated from an entry in the Cambridge 
# Structural Database, then it will include bibliographic, chemical, 
# crystal, experimental, refinement or atomic coordinate data resulting 
# from the CCDC's data processing and validation procedures.
#
#######################################################################

data_FEBKIH01
_symmetry_cell_setting           orthorhombic
_symmetry_space_group_name_H-M   'P b c a'
_symmetry_Int_Tables_number      61
_space_group_name_Hall           '-P 2ac 2ab'
loop_
_symmetry_equiv_pos_site_id
_symmetry_equiv_pos_as_xyz
1 x,y,z
2 1/2-x,-y,1/2+z
3 -x,1/2+y,1/2-z
4 1/2+x,1/2-y,-z
5 -x,-y,-z
6 1/2+x,y,1/2-z
7 x,1/2-y,1/2+z
8 1/2-x,1/2+y,z
_cell_length_a                   9.148(2)
_cell_length_b                   16.268(4)
_cell_length_c                   19.862(5)
_cell_angle_alpha                90
_cell_angle_beta                 90
_cell_angle_gamma                90
_cell_volume                     2955.86
loop_
_atom_site_label
_atom_site_type_symbol
_atom_site_fract_x
_atom_site_fract_y
_atom_site_fract_z
Cd1 Cd 0.11859(2) 0.149856(11) 0.344844(9)
N1 N -0.0936(2) 0.11613(16) 0.40701(12)
N2 N 0.1701(3) 0.15211(14) 0.45999(12)
O1 O 0.1565(2) 0.29851(14) 0.35146(11)
O2 O -0.0023(3) 0.25015(12) 0.28073(12)
O3 O -0.1688(2) 0.50461(12) 0.16098(10)
O4 O -0.0375(2) 0.55847(11) 0.24199(10)
O5 O 0.3617(3) 0.15804(14) 0.31605(13)
C1 C 0.0654(3) 0.30915(17) 0.30643(15)
C2 C 0.0340(3) 0.39451(16) 0.28338(14)
H1 H 0.0884 0.4372 0.3019
C3 C -0.0651(3) 0.41268(16) 0.23880(15)
H2 H -0.1224 0.3701 0.2220
C4 C -0.0929(3) 0.49736(17) 0.21290(14)
C5 C -0.2209(3) 0.0962(2) 0.37826(18)
H3 H -0.2293 0.0993 0.3317
C6 C -0.3403(4) 0.0711(3) 0.4154(2)
H4 H -0.4278 0.0577 0.3943
C7 C -0.3274(4) 0.0665(3) 0.4835(2)
H5 H -0.4065 0.0498 0.5095
C8 C -0.1970(4) 0.0866(2) 0.51389(17)
H6 H -0.1870 0.0836 0.5604
C9 C -0.0811(3) 0.11136(18) 0.47408(15)
C10 C 0.0621(3) 0.13554(17) 0.50350(15)
C11 C 0.0837(4) 0.1425(3) 0.57190(18)
H7 H 0.0074 0.1317 0.6015
C12 C 0.2183(5) 0.1656(3) 0.59636(19)
H8 H 0.2336 0.1709 0.6424
C13 C 0.3301(4) 0.1807(2) 0.55157(18)
H9 H 0.4228 0.1951 0.5667
C14 C 0.3010(4) 0.1741(2) 0.48408(17)
H10 H 0.3756 0.1854 0.4537
H11 H 0.389(3) 0.1998(12) 0.2933(16)
H12 H 0.398(4) 0.1174(12) 0.2962(16)
Cd1B Cd -0.11859(2) 0.649856(11) 0.155156(9)
O3B O 0.1688(2) 0.00461(12) 0.33902(10)
O4B O 0.0375(2) 0.05847(11) 0.25801(10)
loop_
_geom_bond_atom_site_label_1
_geom_bond_atom_site_label_2
_geom_bond_site_symmetry_1
_geom_bond_site_symmetry_2
Cd1 N1 1_555 1_555
N1 C5 1_555 1_555
N2 Cd1 1_555 1_555
O1 Cd1 1_555 1_555
O2 Cd1 1_555 1_555
O3 C4 1_555 1_555
O4 C4 1_555 1_555
O5 Cd1 1_555 1_555
C1 O1 1_555 1_555
C2 C1 1_555 1_555
H1 C2 1_555 1_555
C3 C2 1_555 1_555
H2 C3 1_555 1_555
C4 C3 1_555 1_555
C5 H3 1_555 1_555
C6 C5 1_555 1_555
H4 C6 1_555 1_555
C7 C6 1_555 1_555
H5 C7 1_555 1_555
C8 C7 1_555 1_555
H6 C8 1_555 1_555
C9 N1 1_555 1_555
C10 N2 1_555 1_555
C11 C10 1_555 1_555
H7 C11 1_555 1_555
C12 C11 1_555 1_555
H8 C12 1_555 1_555
C13 C12 1_555 1_555
H9 C13 1_555 1_555
C14 N2 1_555 1_555
H10 C14 1_555 1_555
H11 O5 1_555 1_555
H12 O5 1_555 1_555
Cd1B O3 1_555 1_555
O3B Cd1 1_555 1_555
O4B Cd1 1_555 1_555
O2 C1 1_555 1_555
O4 Cd1B 1_555 1_555
C8 C9 1_555 1_555
C9 C10 1_555 1_555
C13 C14 1_555 1_555

#END
