
#######################################################################
#
#                 Cambridge Crystallographic Data Centre
#                                CCDC 
#
#######################################################################
#
# If this CIF has been generated from an entry in the Cambridge 
# Structural Database, then it will include bibliographic, chemical, 
# crystal, experimental, refinement or atomic coordinate data resulting 
# from the CCDC's data processing and validation procedures.
#
#######################################################################

data_FEBKED01
_symmetry_cell_setting           monoclinic
_symmetry_space_group_name_H-M   'C 2/c'
_symmetry_Int_Tables_number      15
_space_group_name_Hall           '-C 2yn'
loop_
_symmetry_equiv_pos_site_id
_symmetry_equiv_pos_as_xyz
1 x,y,z
2 1/2+x,1/2+y,z
3 -x,y,1/2-z
4 1/2-x,1/2+y,1/2-z
5 -x,-y,-z
6 1/2-x,1/2-y,-z
7 x,-y,1/2+z
8 1/2+x,1/2-y,1/2+z
_cell_length_a                   20.2435(3)
_cell_length_b                   9.4740(2)
_cell_length_c                   6.7045(2)
_cell_angle_alpha                90
_cell_angle_beta                 107.3300(10)
_cell_angle_gamma                90
_cell_volume                     1227.46
loop_
_atom_site_label
_atom_site_type_symbol
_atom_site_fract_x
_atom_site_fract_y
_atom_site_fract_z
Cd1 Cd 0.0000 0.90864(3) 0.7500
N1 N 0.06708(15) 1.0532(3) 1.0099(5)
N2 N 0.12564(15) 1.0835(3) 1.0165(5)
N3 N 0.18201(18) 1.1110(4) 1.0225(7)
N4 N 0.06761(13) 0.7040(3) 0.8632(4)
C1 C 0.03799(17) 0.5760(3) 0.8071(5)
C2 C 0.07739(18) 0.4512(4) 0.8556(5)
H1 H 0.0559 0.3617 0.8208
C3 C 0.14861(19) 0.4605(4) 0.9556(6)
H2 H 0.1761 0.3774 0.9860
C4 C 0.17887(19) 0.5923(4) 1.0103(6)
H3 H 0.2271 0.6011 1.0776
C5 C 0.13617(17) 0.7115(4) 0.9634(6)
H4 H 0.1563 0.8016 1.0037
Cd1D Cd 0.0000 1.09136(3) 1.2500
Cd1D_2 Cd 0.0000 1.09136(3) 0.2500
N1F N 0.06708(15) 0.9468(3) 0.5099(5)
N1D N -0.06708(15) 0.9468(3) 0.9901(5)
N1B N -0.06708(15) 1.0532(3) 0.4901(5)
N2F N 0.12564(15) 0.9165(3) 0.5165(5)
N3F N 0.18201(18) 0.8890(4) 0.5225(7)
N4B N -0.06761(13) 0.7040(3) 0.6368(4)
C1B C -0.03799(17) 0.5760(3) 0.6929(5)
C2B C -0.07739(18) 0.4512(4) 0.6444(5)
H1B H -0.0559 0.3617 0.6792
C3B C -0.14861(19) 0.4605(4) 0.5444(6)
H2B H -0.1761 0.3774 0.5140
C4B C -0.17887(19) 0.5923(4) 0.4897(6)
H3B H -0.2271 0.6011 0.4224
C5B C -0.13617(17) 0.7115(4) 0.5366(6)
H4B H -0.1563 0.8016 0.4963
loop_
_geom_bond_atom_site_label_1
_geom_bond_atom_site_label_2
_geom_bond_site_symmetry_1
_geom_bond_site_symmetry_2
Cd1 N1 1_555 1_555
N1 N2 1_555 1_555
N2 N3 1_555 1_555
N4 Cd1 1_555 1_555
C1 N4 1_555 1_555
C2 C1 1_555 1_555
H1 C2 1_555 1_555
C3 C2 1_555 1_555
H2 C3 1_555 1_555
C4 C3 1_555 1_555
H3 C4 1_555 1_555
C5 N4 1_555 1_555
H4 C5 1_555 1_555
Cd1D N1 1_555 1_555
Cd1D_2 N1F 1_555 1_555
N1F Cd1 1_555 1_555
N1D Cd1 1_555 1_555
N1B Cd1 1_555 1_555
N2F N1F 1_555 1_555
N3F N2F 1_555 1_555
N4B Cd1 1_555 1_555
C1B C1 1_555 1_555
C2B C1B 1_555 1_555
H1B C2B 1_555 1_555
C3B C2B 1_555 1_555
H2B C3B 1_555 1_555
C4B C3B 1_555 1_555
H3B C4B 1_555 1_555
C5B N4B 1_555 1_555
H4B C5B 1_555 1_555
C4 C5 1_555 1_555
Cd1D N1D 1_555 1_555
Cd1D_2 N1B 1_555 1_555
N4B C1B 1_555 1_555
C4B C5B 1_555 1_555

#END
