
#######################################################################
#
#                 Cambridge Crystallographic Data Centre
#                                CCDC 
#
#######################################################################
#
# If this CIF has been generated from an entry in the Cambridge 
# Structural Database, then it will include bibliographic, chemical, 
# crystal, experimental, refinement or atomic coordinate data resulting 
# from the CCDC's data processing and validation procedures.
#
#######################################################################

data_FEBLAA
_symmetry_cell_setting           triclinic
_symmetry_space_group_name_H-M   'P -1'
_symmetry_Int_Tables_number      2
_space_group_name_Hall           '-P 1'
loop_
_symmetry_equiv_pos_site_id
_symmetry_equiv_pos_as_xyz
1 x,y,z
2 -x,-y,-z
_cell_length_a                   8.1650(7)
_cell_length_b                   12.7199(11)
_cell_length_c                   15.4500(14)
_cell_angle_alpha                102.365(2)
_cell_angle_beta                 91.666(2)
_cell_angle_gamma                102.930(2)
_cell_volume                     1522.64
loop_
_atom_site_label
_atom_site_type_symbol
_atom_site_fract_x
_atom_site_fract_y
_atom_site_fract_z
Cu1 Cu 0.95410(8) 0.86916(5) 0.67476(5)
O1 O 1.4889(4) 1.3203(2) 0.5628(2)
N1 N 1.0948(5) 0.9782(3) 0.6135(3)
N2 N 1.5372(5) 1.1981(3) 0.4473(3)
N3 N 1.6453(5) 1.3014(3) 0.4490(3)
N4 N 1.8348(5) 1.7120(3) 0.6100(3)
C1 C 1.1293(7) 1.0866(4) 0.6519(4)
H1 H 1.0752 1.1098 0.7021
C2 C 1.2407(6) 1.1649(4) 0.6205(4)
H2 H 1.2596 1.2394 0.6487
C3 C 1.3237(6) 1.1328(4) 0.5477(3)
C4 C 1.4499(6) 1.2136(4) 0.5153(3)
C5 C 1.2875(6) 1.0225(4) 0.5059(3)
H3 H 1.3384 0.9985 0.4547
C6 C 1.1744(6) 0.9478(4) 0.5411(3)
H4 H 1.1525 0.8731 0.5132
C7 C 1.6120(6) 1.3698(4) 0.5168(3)
C8 C 1.6871(5) 1.4874(3) 0.5499(3)
C9 C 1.6428(6) 1.5459(4) 0.6266(4)
H5 H 1.5632 1.5114 0.6597
C10 C 1.7171(6) 1.6557(4) 0.6538(4)
H6 H 1.6849 1.6947 0.7060
C11 C 1.8763(6) 1.6543(4) 0.5354(4)
H7 H 1.9573 1.6909 0.5040
C12 C 1.8058(6) 1.5428(4) 0.5013(3)
H8 H 1.8364 1.5057 0.4478
O2 O 1.6133(5) 0.7440(3) 0.9088(3)
N5 N 1.1126(5) 0.8393(4) 0.7695(3)
N6 N 1.5354(8) 0.8492(5) 1.0252(4)
N7 N 1.6773(8) 0.8173(5) 1.0511(4)
N8 N 2.1288(7) 0.6026(6) 0.9613(5)
C13 C 1.1425(8) 0.8965(5) 0.8548(4)
H9 H 1.0761 0.9457 0.8757
C14 C 1.2645(8) 0.8862(5) 0.9118(4)
H10 H 1.2802 0.9276 0.9701
C15 C 1.3657(7) 0.8134(5) 0.8825(4)
C16 C 1.3334(7) 0.7525(5) 0.7958(4)
H11 H 1.3965 0.7017 0.7736
C17 C 1.2071(8) 0.7680(5) 0.7430(4)
H12 H 1.1865 0.7259 0.6849
C18 C 1.5024(8) 0.8045(5) 0.9409(4)
C19 C 1.7192(8) 0.7554(5) 0.9817(5)
C20 C 1.8568(8) 0.6996(5) 0.9743(4)
C21 C 1.9749(9) 0.7184(6) 1.0453(5)
H13 H 1.9645 0.7647 1.0993
C22 C 2.1047(9) 0.6691(7) 1.0355(6)
H14 H 2.1825 0.6827 1.0840
C23 C 2.0139(9) 0.5837(6) 0.8941(5)
H15 H 2.0273 0.5363 0.8413
C24 C 1.8773(8) 0.6291(5) 0.8970(5)
H16 H 1.8000 0.6126 0.8477
N9 N 0.7802(6) 0.9451(4) 0.7358(3)
C25 C 0.6764(8) 0.9892(5) 0.7461(4)
C26 C 0.5398(8) 1.0467(6) 0.7536(5)
H17 H 0.4420 1.0005 0.7172
H18 H 0.5743 1.1145 0.7342
H19 H 0.5132 1.0628 0.8145
Cu1_2 Cu 1.95410(8) 1.86916(5) 0.67476(5)
N4_2 N 0.8348(5) 0.7120(3) 0.6100(3)
F1 F 0.7562(7) 0.3639(5) 0.7378(3)
B1 B 0.8512(12) 0.3049(8) 0.6969(5)
F2 F 0.9406(7) 0.2686(4) 0.7511(3)
F3 F 0.7665(9) 0.2232(5) 0.6298(4)
F4 F 0.9536(10) 0.3742(8) 0.6566(5)
O3 O 0.4170(9) 0.5025(12) 0.9107(15)
H20 H 0.3896 0.4443 0.8559
H21 H 0.3442 0.5490 0.9394
O4 O 0.305(2) 0.4705(10) 0.7385(12)
H22 H 0.1902 0.4815 0.7332
H23 H 0.3443 0.4503 0.6793
loop_
_geom_bond_atom_site_label_1
_geom_bond_atom_site_label_2
_geom_bond_site_symmetry_1
_geom_bond_site_symmetry_2
Cu1 N1 1_555 1_555
O1 C4 1_555 1_555
N1 C1 1_555 1_555
N2 N3 1_555 1_555
N3 C7 1_555 1_555
N4 C10 1_555 1_555
C1 H1 1_555 1_555
C2 C1 1_555 1_555
H2 C2 1_555 1_555
C3 C2 1_555 1_555
C4 N2 1_555 1_555
C5 C3 1_555 1_555
H3 C5 1_555 1_555
C6 N1 1_555 1_555
H4 C6 1_555 1_555
C7 O1 1_555 1_555
C8 C7 1_555 1_555
C9 C8 1_555 1_555
H5 C9 1_555 1_555
C10 C9 1_555 1_555
H6 C10 1_555 1_555
C11 N4 1_555 1_555
H7 C11 1_555 1_555
C12 C8 1_555 1_555
H8 C12 1_555 1_555
O2 C18 1_555 1_555
N5 Cu1 1_555 1_555
N6 N7 1_555 1_555
N7 C19 1_555 1_555
N8 C22 1_555 1_555
C13 N5 1_555 1_555
H9 C13 1_555 1_555
C14 C13 1_555 1_555
H10 C14 1_555 1_555
C15 C14 1_555 1_555
C16 C15 1_555 1_555
H11 C16 1_555 1_555
C17 N5 1_555 1_555
H12 C17 1_555 1_555
C18 N6 1_555 1_555
C19 O2 1_555 1_555
C20 C19 1_555 1_555
C21 C20 1_555 1_555
H13 C21 1_555 1_555
C22 C21 1_555 1_555
H14 C22 1_555 1_555
C23 N8 1_555 1_555
H15 C23 1_555 1_555
C24 C20 1_555 1_555
H16 C24 1_555 1_555
N9 Cu1 1_555 1_555
C25 N9 1_555 1_555
C26 C25 1_555 1_555
H17 C26 1_555 1_555
H18 C26 1_555 1_555
H19 C26 1_555 1_555
F1 B1 1_555 1_555
B1 F2 1_555 1_555
F3 B1 1_555 1_555
F4 B1 1_555 1_555
O3 H20 1_555 1_555
H21 O3 1_555 1_555
O4 H22 1_555 1_555
H23 O4 1_555 1_555
Cu1_2 N4 1_555 1_555
N4_2 Cu1 1_555 1_555
C3 C4 1_555 1_555
C5 C6 1_555 1_555
C11 C12 1_555 1_555
C15 C18 1_555 1_555
C16 C17 1_555 1_555
C23 C24 1_555 1_555

#END
