
#######################################################################
#
#                 Cambridge Crystallographic Data Centre
#                                CCDC 
#
#######################################################################
#
# If this CIF has been generated from an entry in the Cambridge 
# Structural Database, then it will include bibliographic, chemical, 
# crystal, experimental, refinement or atomic coordinate data resulting 
# from the CCDC's data processing and validation procedures.
#
#######################################################################

data_FEBMUV
_symmetry_cell_setting           orthorhombic
_symmetry_space_group_name_H-M   'P 21 21 21'
_symmetry_Int_Tables_number      19
_space_group_name_Hall           'P 2ac 2ab'
loop_
_symmetry_equiv_pos_site_id
_symmetry_equiv_pos_as_xyz
1 x,y,z
2 1/2-x,-y,1/2+z
3 -x,1/2+y,1/2-z
4 1/2+x,1/2-y,-z
_cell_length_a                   7.3509(2)
_cell_length_b                   9.4432(3)
_cell_length_c                   13.8586(2)
_cell_angle_alpha                90
_cell_angle_beta                 90
_cell_angle_gamma                90
_cell_volume                     962.009
loop_
_atom_site_label
_atom_site_type_symbol
_atom_site_fract_x
_atom_site_fract_y
_atom_site_fract_z
Zn1 Zn 0.09480(6) 0.11157(6) 0.26750(4)
N1 N 0.3457(5) 0.1394(4) 0.3433(3)
O1 O 0.0776(4) -0.0412(3) 0.3744(2)
O2 O 0.2397(5) -0.1693(4) 0.4778(3)
O3 O 0.7488(5) 0.4487(4) 0.3197(3)
O4 O 0.9597(4) 0.2815(3) 0.3371(2)
O5 O -0.1349(5) 0.0226(4) 0.2104(3)
H1 H -0.097(8) -0.051(4) 0.181(4)
H2 H -0.204(9) 0.064(7) 0.172(4)
O6 O 0.1612(5) 0.2473(4) 0.1589(3)
H3 H 0.096(7) 0.321(4) 0.157(4)
H4 H 0.193(8) 0.212(6) 0.105(2)
C1 C 0.4786(6) 0.2320(5) 0.3251(4)
H5 H 0.4554 0.3067 0.2831
C2 C 0.6501(6) 0.2211(5) 0.3664(3)
C3 C 0.6830(6) 0.1096(6) 0.4295(3)
H6 H 0.7971 0.0985 0.4574
C4 C 0.5450(6) 0.0155(6) 0.4503(4)
H7 H 0.5635 -0.0582 0.4937
C5 C 0.3787(6) 0.0331(5) 0.4054(3)
C6 C 0.2208(6) -0.0695(5) 0.4229(3)
C7 C 0.7954(6) 0.3259(6) 0.3388(4)
Zn1B Zn 0.90520(6) 0.61157(6) 0.23250(4)
Zn1_2 Zn 1.09480(6) 0.11157(6) 0.26750(4)
O3B O 0.2512(5) -0.0513(4) 0.1803(3)
O4_2 O -0.0403(4) 0.2815(3) 0.3371(2)
O7 O -0.4265(6) 0.0847(5) 0.1102(3)
H8 H -0.402(12) 0.161(5) 0.081(5)
H9 H -0.524(5) 0.046(7) 0.127(5)
loop_
_geom_bond_atom_site_label_1
_geom_bond_atom_site_label_2
_geom_bond_site_symmetry_1
_geom_bond_site_symmetry_2
Zn1 N1 1_555 1_555
N1 C1 1_555 1_555
O1 Zn1 1_555 1_555
O2 C6 1_555 1_555
O3 C7 1_555 1_555
O4 C7 1_555 1_555
O5 Zn1 1_555 1_555
H1 O5 1_555 1_555
H2 O5 1_555 1_555
O6 Zn1 1_555 1_555
H3 O6 1_555 1_555
H4 O6 1_555 1_555
C1 H5 1_555 1_555
C2 C1 1_555 1_555
C3 C2 1_555 1_555
H6 C3 1_555 1_555
C4 C3 1_555 1_555
H7 C4 1_555 1_555
C5 N1 1_555 1_555
C6 O1 1_555 1_555
C7 C2 1_555 1_555
O7 H8 1_555 1_555
H9 O7 1_555 1_555
Zn1B O3 1_555 1_555
Zn1_2 O4 1_555 1_555
O3B Zn1 1_555 1_555
O4_2 Zn1 1_555 1_555
C4 C5 1_555 1_555
C5 C6 1_555 1_555

#END
