
#######################################################################
#
#                 Cambridge Crystallographic Data Centre
#                                CCDC 
#
#######################################################################
#
# If this CIF has been generated from an entry in the Cambridge 
# Structural Database, then it will include bibliographic, chemical, 
# crystal, experimental, refinement or atomic coordinate data resulting 
# from the CCDC's data processing and validation procedures.
#
#######################################################################

data_FEBMUV01
_symmetry_cell_setting           orthorhombic
_symmetry_space_group_name_H-M   'P 21 21 21'
_symmetry_Int_Tables_number      19
_space_group_name_Hall           'P 2ac 2ab'
loop_
_symmetry_equiv_pos_site_id
_symmetry_equiv_pos_as_xyz
1 x,y,z
2 1/2-x,-y,1/2+z
3 1/2+x,1/2-y,-z
4 -x,1/2+y,1/2-z
_cell_length_a                   7.3450(7)
_cell_length_b                   9.4412(10)
_cell_length_c                   13.8459(14)
_cell_angle_alpha                90
_cell_angle_beta                 90
_cell_angle_gamma                90
_cell_volume                     960.152
loop_
_atom_site_label
_atom_site_type_symbol
_atom_site_fract_x
_atom_site_fract_y
_atom_site_fract_z
Zn1 Zn 0.09496(4) 0.38813(3) 0.26765(2)
O1 O 0.1617(3) 0.25208(19) 0.15859(13)
O2 O -0.1346(2) 0.47683(19) 0.20966(14)
O3 O 0.0774(2) 0.54134(16) 0.37482(13)
O4 O 0.9583(2) 0.21849(16) 0.33719(12)
N1 N 0.3463(3) 0.3608(2) 0.34341(14)
O5 O 0.7476(3) 0.05154(17) 0.31970(14)
C1 C 0.3789(4) 0.4671(2) 0.40599(16)
C2 C 0.2203(3) 0.5679(2) 0.42200(17)
C3 C 0.5452(3) 0.4841(3) 0.45037(18)
H1 H 0.5643 0.5578 0.4937
C4 C 0.6820(3) 0.3903(3) 0.42946(18)
H2 H 0.7961 0.4014 0.4576
C5 C 0.7961(4) 0.1753(3) 0.33872(18)
C6 C 0.6503(3) 0.2790(3) 0.36647(17)
C7 C 0.4783(3) 0.2683(2) 0.32540(18)
H3 H 0.4546 0.1933 0.2836
O6 O 0.2396(2) 0.66811(18) 0.47811(12)
H4 H 0.073(3) 0.181(2) 0.1524(19)
H5 H 0.200(4) 0.297(3) 0.1010(14)
H6 H -0.083(3) 0.5580(18) 0.1830(17)
H7 H -0.234(3) 0.430(3) 0.181(2)
O4_2 O -0.0417(2) 0.21849(16) 0.33719(12)
O5C O 0.2524(3) 0.55154(17) 0.18030(14)
Zn1_2 Zn 1.09496(4) 0.38813(3) 0.26765(2)
Zn1C Zn 0.90504(4) -0.11187(3) 0.23235(2)
O7 O -0.4269(3) 0.4162(3) 0.11011(17)
H8 H -0.405(6) 0.330(2) 0.079(3)
H9 H -0.540(3) 0.452(3) 0.130(3)
loop_
_geom_bond_atom_site_label_1
_geom_bond_atom_site_label_2
_geom_bond_site_symmetry_1
_geom_bond_site_symmetry_2
Zn1 O1 1_555 1_555
O1 H4 1_555 1_555
O2 Zn1 1_555 1_555
O3 Zn1 1_555 1_555
O4 C5 1_555 1_555
N1 Zn1 1_555 1_555
O5 C5 1_555 1_555
C1 N1 1_555 1_555
C2 O3 1_555 1_555
C3 C1 1_555 1_555
H1 C3 1_555 1_555
C4 C3 1_555 1_555
H2 C4 1_555 1_555
C5 C6 1_555 1_555
C6 C4 1_555 1_555
C7 N1 1_555 1_555
H3 C7 1_555 1_555
O6 C2 1_555 1_555
H5 O1 1_555 1_555
H6 O2 1_555 1_555
H7 O2 1_555 1_555
O7 H8 1_555 1_555
H9 O7 1_555 1_555
O4_2 Zn1 1_555 1_555
O5C Zn1 1_555 1_555
Zn1_2 O4 1_555 1_555
Zn1C O5 1_555 1_555
C1 C2 1_555 1_555
C6 C7 1_555 1_555

#END
