
#######################################################################
#
#                 Cambridge Crystallographic Data Centre
#                                CCDC 
#
#######################################################################
#
# If this CIF has been generated from an entry in the Cambridge 
# Structural Database, then it will include bibliographic, chemical, 
# crystal, experimental, refinement or atomic coordinate data resulting 
# from the CCDC's data processing and validation procedures.
#
#######################################################################

data_FEBMUV05
_symmetry_cell_setting           orthorhombic
_symmetry_space_group_name_H-M   'P 21 21 21'
_symmetry_Int_Tables_number      19
_space_group_name_Hall           'P 2ac 2ab'
loop_
_symmetry_equiv_pos_site_id
_symmetry_equiv_pos_as_xyz
1 x,y,z
2 1/2-x,-y,1/2+z
3 -x,1/2+y,1/2-z
4 1/2+x,1/2-y,-z
_cell_length_a                   7.3471(15)
_cell_length_b                   9.4372(19)
_cell_length_c                   13.855(3)
_cell_angle_alpha                90
_cell_angle_beta                 90
_cell_angle_gamma                90
_cell_volume                     960.651
loop_
_atom_site_label
_atom_site_type_symbol
_atom_site_fract_x
_atom_site_fract_y
_atom_site_fract_z
Zn1 Zn 0.09493(5) 0.88822(4) 0.76760(3)
C1 C 0.3784(5) 0.9669(4) 0.9064(2)
C2 C 0.5442(5) 0.9845(4) 0.9512(3)
H1 H 0.5623 1.0577 0.9952
C3 C 0.6844(5) 0.8901(5) 0.9295(3)
H2 H 0.7991 0.9017 0.9567
C4 C 0.6507(5) 0.7789(4) 0.8668(3)
C5 C 0.4796(5) 0.7680(4) 0.8253(3)
H3 H 0.4568 0.6933 0.7833
C6 C 0.2211(5) 1.0684(4) 0.9221(3)
C7 C 0.7955(5) 0.6755(4) 0.8385(3)
N1 N 0.3457(4) 0.8606(3) 0.8434(2)
O1 O 0.2406(4) 1.1687(3) 0.9781(2)
O2 O 0.0768(4) 1.0415(3) 0.8748(2)
O3 O 0.9586(4) 0.7187(3) 0.8368(2)
O4 O 0.7474(4) 0.5508(3) 0.8201(2)
O5 O 0.1626(4) 0.7524(3) 0.6588(2)
H4 H 0.1019 0.6983 0.6469
H5 H 0.1990 0.7840 0.6012
O6 O -0.1335(4) 0.9767(3) 0.7094(2)
H6 H -0.2505 0.9286 0.6902
H7 H -0.0724 1.0583 0.6808
Zn1_2 Zn 1.09493(5) 0.88822(4) 0.76760(3)
Zn1B Zn 0.90507(5) 0.38822(4) 0.73240(3)
O3_2 O -0.0414(4) 0.7187(3) 0.8368(2)
O4B O 0.2526(4) 1.0508(3) 0.6799(2)
O7 O -0.4272(5) 0.9190(4) 0.6100(3)
H8 H -0.4769 0.8604 0.5980
H9 H -0.3970 0.8263 0.6128
loop_
_geom_bond_atom_site_label_1
_geom_bond_atom_site_label_2
_geom_bond_site_symmetry_1
_geom_bond_site_symmetry_2
Zn1 N1 1_555 1_555
C1 C2 1_555 1_555
C2 H1 1_555 1_555
C3 C2 1_555 1_555
H2 C3 1_555 1_555
C4 C3 1_555 1_555
C5 C4 1_555 1_555
H3 C5 1_555 1_555
C6 C1 1_555 1_555
C7 C4 1_555 1_555
N1 C1 1_555 1_555
O1 C6 1_555 1_555
O2 Zn1 1_555 1_555
O3 C7 1_555 1_555
O4 C7 1_555 1_555
O5 Zn1 1_555 1_555
H4 O5 1_555 1_555
H5 O5 1_555 1_555
O6 Zn1 1_555 1_555
H6 O6 1_555 1_555
H7 O6 1_555 1_555
O7 H8 1_555 1_555
H9 O7 1_555 1_555
Zn1_2 O3 1_555 1_555
Zn1B O4 1_555 1_555
O3_2 Zn1 1_555 1_555
O4B Zn1 1_555 1_555
C5 N1 1_555 1_555
C6 O2 1_555 1_555

#END
