
#######################################################################
#
#                 Cambridge Crystallographic Data Centre
#                                CCDC 
#
#######################################################################
#
# If this CIF has been generated from an entry in the Cambridge 
# Structural Database, then it will include bibliographic, chemical, 
# crystal, experimental, refinement or atomic coordinate data resulting 
# from the CCDC's data processing and validation procedures.
#
#######################################################################

data_FEBMIJ01
_symmetry_cell_setting           monoclinic
_symmetry_space_group_name_H-M   'C 2/c'
_symmetry_Int_Tables_number      15
_space_group_name_Hall           '-C 2yn'
loop_
_symmetry_equiv_pos_site_id
_symmetry_equiv_pos_as_xyz
1 x,y,z
2 1/2+x,1/2+y,z
3 -x,y,1/2-z
4 1/2-x,1/2+y,1/2-z
5 -x,-y,-z
6 1/2-x,1/2-y,-z
7 x,-y,1/2+z
8 1/2+x,1/2-y,1/2+z
_cell_length_a                   21.457(4)
_cell_length_b                   10.613(2)
_cell_length_c                   16.287(3)
_cell_angle_alpha                90.00
_cell_angle_beta                 116.33(3)
_cell_angle_gamma                90.00
_cell_volume                     3324.14
loop_
_atom_site_label
_atom_site_type_symbol
_atom_site_fract_x
_atom_site_fract_y
_atom_site_fract_z
Mn1 Mn 0.78581(2) -0.33696(4) 0.43809(3)
N1 N 0.79344(13) -0.5211(2) 0.51553(17)
N2 N 0.86278(12) -0.4664(2) 0.41671(16)
N3 N 0.69212(11) -0.4110(2) 0.30887(15)
C1 C 0.7712(2) -0.6546(4) 0.6180(3)
C2 C 0.8229(2) -0.7327(4) 0.6256(3)
C3 C 0.8623(2) -0.7091(3) 0.5774(2)
C4 C 0.9159(2) -0.7894(4) 0.5800(3)
C5 C 0.9497(2) -0.7635(4) 0.5296(3)
C6 C 0.93311(15) -0.6547(4) 0.4723(2)
C7 C 0.96673(18) -0.6260(4) 0.4176(3)
C8 C 0.94667(19) -0.5227(4) 0.3622(3)
C9 C 0.89427(18) -0.4443(4) 0.3643(2)
C10 C 0.88094(16) -0.5728(3) 0.4682(2)
C11 C 0.84442(16) -0.6004(3) 0.5224(2)
C12 C 0.63094(13) -0.3554(3) 0.29097(17)
C13 C 0.57066(15) -0.3803(3) 0.21294(19)
C14 C 0.57293(15) -0.4681(3) 0.15103(19)
C15 C 0.69312(14) -0.4974(3) 0.24982(19)
C16 C 0.75784(19) -0.5486(3) 0.5620(2)
H1 H 0.7222 -0.4946 0.5571
H2 H 0.7465 -0.6748 0.6522
H3 H 0.8364 -0.8070 0.6676
H4 H 0.9320 -0.8639 0.6189
H5 H 0.9875 -0.8210 0.5336
H6 H 1.0057 -0.6805 0.4205
H7 H 0.9721 -0.5059 0.3225
H8 H 0.8830 -0.3719 0.3266
H9 H 0.5259 -0.3386 0.2010
H10 H 0.5299 -0.4863 0.0952
H11 H 0.7337 -0.5398 0.2621
O1 O 0.68949(9) -0.2580(2) 0.43514(12)
O2 O 0.69391(11) -0.6950(2) 0.13812(14)
C17 C 0.63482(15) -0.5292(3) 0.17009(19)
C18 C 0.63934(16) -0.6269(3) 0.1047(2)
C19 C 0.63165(14) -0.2613(3) 0.36118(18)
O3 O 0.58018(10) -0.1977(2) 0.34556(14)
O4 O 0.59177(12) -0.6330(2) 0.02679(15)
Mn1E Mn 0.71419(2) -0.16304(4) 0.56191(3)
Mn1C Mn 0.71419(2) -0.83696(4) 0.06191(3)
O1E O 0.81051(9) -0.2420(2) 0.56486(12)
O2C O 0.80609(11) -0.1950(2) 0.36188(14)
loop_
_geom_bond_atom_site_label_1
_geom_bond_atom_site_label_2
_geom_bond_site_symmetry_1
_geom_bond_site_symmetry_2
Mn1 N1 1_555 1_555
N1 C11 1_555 1_555
N2 Mn1 1_555 1_555
N3 Mn1 1_555 1_555
C1 C2 1_555 1_555
C2 C3 1_555 1_555
C3 C4 1_555 1_555
C4 C5 1_555 1_555
C5 C6 1_555 1_555
C6 C7 1_555 1_555
C7 C8 1_555 1_555
C8 C9 1_555 1_555
C9 N2 1_555 1_555
C10 N2 1_555 1_555
C11 C3 1_555 1_555
C12 N3 1_555 1_555
C13 C12 1_555 1_555
C14 C13 1_555 1_555
C15 N3 1_555 1_555
C16 N1 1_555 1_555
H1 C16 1_555 1_555
H2 C1 1_555 1_555
H3 C2 1_555 1_555
H4 C4 1_555 1_555
H5 C5 1_555 1_555
H6 C7 1_555 1_555
H7 C8 1_555 1_555
H8 C9 1_555 1_555
H9 C13 1_555 1_555
H10 C14 1_555 1_555
H11 C15 1_555 1_555
O1 Mn1 1_555 1_555
O2 C18 1_555 1_555
C17 C14 1_555 1_555
C18 C17 1_555 1_555
C19 C12 1_555 1_555
O3 C19 1_555 1_555
O4 C18 1_555 1_555
Mn1E O1 1_555 1_555
Mn1C O2 1_555 1_555
O1E Mn1 1_555 1_555
O2C Mn1 1_555 1_555
C1 C16 1_555 1_555
C6 C10 1_555 1_555
C10 C11 1_555 1_555
C15 C17 1_555 1_555
O1 C19 1_555 1_555
Mn1E O1E 1_555 1_555

#END
