
#######################################################################
#
#                 Cambridge Crystallographic Data Centre
#                                CCDC 
#
#######################################################################
#
# If this CIF has been generated from an entry in the Cambridge 
# Structural Database, then it will include bibliographic, chemical, 
# crystal, experimental, refinement or atomic coordinate data resulting 
# from the CCDC's data processing and validation procedures.
#
#######################################################################

data_FEBMUV04
_symmetry_cell_setting           orthorhombic
_symmetry_space_group_name_H-M   'P 21 21 21'
_symmetry_Int_Tables_number      19
_space_group_name_Hall           'P 2ac 2ab'
loop_
_symmetry_equiv_pos_site_id
_symmetry_equiv_pos_as_xyz
1 x,y,z
2 1/2-x,-y,1/2+z
3 -x,1/2+y,1/2-z
4 1/2+x,1/2-y,-z
_cell_length_a                   7.3333(15)
_cell_length_b                   9.4304(19)
_cell_length_c                   13.835(3)
_cell_angle_alpha                90
_cell_angle_beta                 90
_cell_angle_gamma                90
_cell_volume                     956.773
loop_
_atom_site_label
_atom_site_type_symbol
_atom_site_fract_x
_atom_site_fract_y
_atom_site_fract_z
Zn1 Zn 0.09489(10) 0.61165(7) 0.23243(6)
N1 N 0.3458(8) 0.6390(6) 0.1567(4)
O1 O 0.0771(7) 0.4585(5) 0.1251(4)
O2 O 0.2393(8) 0.3315(5) 0.0218(4)
O3 O 0.9587(7) 0.7813(5) 0.1630(4)
O4 O 0.7478(7) 0.9485(5) 0.1804(4)
O5 O -0.1343(7) 0.5233(6) 0.2899(4)
H1 H -0.096(12) 0.450(6) 0.318(6)
H2 H -0.219(11) 0.562(10) 0.322(7)
O6 O 0.1634(8) 0.7477(6) 0.3409(4)
H3 H 0.184(16) 0.708(11) 0.390(8)
H4 H 0.080(10) 0.810(8) 0.349(7)
C1 C 0.2204(10) 0.4317(6) 0.0781(5)
C2 C 0.3784(9) 0.5327(7) 0.0941(4)
C3 C 0.5446(10) 0.5155(7) 0.0492(5)
H5 H 0.558(12) 0.439(9) 0.006(6)
C4 C 0.6832(9) 0.6095(9) 0.0704(5)
H6 H 0.790(16) 0.595(11) 0.047(8)
C5 C 0.6500(9) 0.7208(7) 0.1336(5)
C6 C 0.4767(9) 0.7317(6) 0.1755(5)
H7 H 0.4528 0.8061 0.2177
C7 C 0.7963(9) 0.8243(7) 0.1612(5)
Zn1_2 Zn 1.09489(10) 0.61165(7) 0.23243(6)
Zn1B Zn 0.90511(10) 1.11165(7) 0.26757(6)
O3_2 O -0.0413(7) 0.7813(5) 0.1630(4)
O4B O 0.2522(7) 0.4485(5) 0.3196(4)
O7 O 0.5731(10) 0.5836(8) 0.3897(6)
H8 H 0.475(9) 0.548(10) 0.368(8)
H9 H 0.58(2) 0.660(8) 0.420(9)
loop_
_geom_bond_atom_site_label_1
_geom_bond_atom_site_label_2
_geom_bond_site_symmetry_1
_geom_bond_site_symmetry_2
Zn1 N1 1_555 1_555
N1 C2 1_555 1_555
O1 Zn1 1_555 1_555
O2 C1 1_555 1_555
O3 C7 1_555 1_555
O4 C7 1_555 1_555
O5 Zn1 1_555 1_555
H1 O5 1_555 1_555
H2 O5 1_555 1_555
O6 Zn1 1_555 1_555
H3 O6 1_555 1_555
H4 O6 1_555 1_555
C1 O1 1_555 1_555
C2 C1 1_555 1_555
C3 C2 1_555 1_555
H5 C3 1_555 1_555
C4 C3 1_555 1_555
H6 C4 1_555 1_555
C5 C4 1_555 1_555
C6 N1 1_555 1_555
H7 C6 1_555 1_555
C7 C5 1_555 1_555
O7 H8 1_555 1_555
H9 O7 1_555 1_555
Zn1_2 O3 1_555 1_555
Zn1B O4 1_555 1_555
O3_2 Zn1 1_555 1_555
O4B Zn1 1_555 1_555
C5 C6 1_555 1_555

#END
