
#######################################################################
#
#                 Cambridge Crystallographic Data Centre
#                                CCDC 
#
#######################################################################
#
# If this CIF has been generated from an entry in the Cambridge 
# Structural Database, then it will include bibliographic, chemical, 
# crystal, experimental, refinement or atomic coordinate data resulting 
# from the CCDC's data processing and validation procedures.
#
#######################################################################

data_FEBMUV03
_symmetry_cell_setting           orthorhombic
_symmetry_space_group_name_H-M   'P 21 21 21'
_symmetry_Int_Tables_number      19
_space_group_name_Hall           'P 2ac 2ab'
loop_
_symmetry_equiv_pos_site_id
_symmetry_equiv_pos_as_xyz
1 x,y,z
2 1/2-x,-y,1/2+z
3 -x,1/2+y,1/2-z
4 1/2+x,1/2-y,-z
_cell_length_a                   7.3408(13)
_cell_length_b                   9.4350(17)
_cell_length_c                   13.836(3)
_cell_angle_alpha                90
_cell_angle_beta                 90
_cell_angle_gamma                90
_cell_volume                     958.288
loop_
_atom_site_label
_atom_site_type_symbol
_atom_site_fract_x
_atom_site_fract_y
_atom_site_fract_z
C1 C 0.2204(4) -0.0683(3) 0.92211(19)
C2 C 0.3787(4) 0.0333(3) 0.90557(18)
C3 C 0.5445(4) 0.0161(3) 0.9503(2)
H1 H 0.5627 -0.0573 0.9941
C4 C 0.6829(4) 0.1095(3) 0.9293(2)
H2 H 0.7974 0.0978 0.9569
C5 C 0.6504(4) 0.2212(3) 0.8666(2)
C6 C 0.4782(3) 0.2317(3) 0.8251(2)
H3 H 0.4549 0.3064 0.7830
C7 C 0.7962(4) 0.3249(3) 0.8387(2)
N1 N 0.3455(3) 0.1392(2) 0.84337(16)
O1 O 0.0772(3) -0.04154(19) 0.87484(14)
O2 O 0.2394(3) -0.1685(2) 0.97814(14)
O3 O 0.7478(3) 0.4484(2) 0.81948(15)
O4 O 0.9585(2) 0.28152(19) 0.83723(14)
O5 O -0.1336(2) 0.0233(2) 0.70995(15)
H4 H -0.2227 0.0594 0.6794
H5 H -0.0915 -0.0500 0.6821
O6 O 0.1617(3) 0.2473(2) 0.65884(13)
H6 H 0.1916 0.2138 0.6041
H7 H 0.0835 0.3136 0.6557
Zn1 Zn 0.09495(4) 0.11171(3) 0.76762(2)
O3B O 0.2522(3) -0.0516(2) 0.68052(15)
O4_2 O -0.0415(2) 0.28152(19) 0.83723(14)
Zn1B Zn 0.90505(4) 0.61171(3) 0.73238(2)
Zn1_2 Zn 1.09495(4) 0.11171(3) 0.76762(2)
O7 O 0.4267(3) 0.5841(2) 0.88950(17)
H8 H 0.4139 0.6584 0.9235
H9 H 0.5316 0.5510 0.8766
loop_
_geom_bond_atom_site_label_1
_geom_bond_atom_site_label_2
_geom_bond_site_symmetry_1
_geom_bond_site_symmetry_2
C1 C2 1_555 1_555
C2 C3 1_555 1_555
C3 H1 1_555 1_555
C4 C3 1_555 1_555
H2 C4 1_555 1_555
C5 C4 1_555 1_555
C6 C5 1_555 1_555
H3 C6 1_555 1_555
C7 C5 1_555 1_555
N1 C2 1_555 1_555
O1 C1 1_555 1_555
O2 C1 1_555 1_555
O3 C7 1_555 1_555
O4 C7 1_555 1_555
O5 H4 1_555 1_555
H5 O5 1_555 1_555
O6 H6 1_555 1_555
H7 O6 1_555 1_555
Zn1 N1 1_555 1_555
O7 H8 1_555 1_555
H9 O7 1_555 1_555
O3B Zn1 1_555 1_555
O4_2 Zn1 1_555 1_555
Zn1B O3 1_555 1_555
Zn1_2 O4 1_555 1_555
C6 N1 1_555 1_555
O1 Zn1 1_555 1_555
O5 Zn1 1_555 1_555
O6 Zn1 1_555 1_555

#END
