
#######################################################################
#
#                 Cambridge Crystallographic Data Centre
#                                CCDC 
#
#######################################################################
#
# If this CIF has been generated from an entry in the Cambridge 
# Structural Database, then it will include bibliographic, chemical, 
# crystal, experimental, refinement or atomic coordinate data resulting 
# from the CCDC's data processing and validation procedures.
#
#######################################################################

data_FEBMIJ
_symmetry_cell_setting           monoclinic
_symmetry_space_group_name_H-M   'C 2/c'
_symmetry_Int_Tables_number      15
_space_group_name_Hall           '-C 2yn'
loop_
_symmetry_equiv_pos_site_id
_symmetry_equiv_pos_as_xyz
1 x,y,z
2 1/2+x,1/2+y,z
3 -x,y,1/2-z
4 1/2-x,1/2+y,1/2-z
5 -x,-y,-z
6 1/2-x,1/2-y,-z
7 x,-y,1/2+z
8 1/2+x,1/2-y,1/2+z
_cell_length_a                   21.4834(3)
_cell_length_b                   10.6324(2)
_cell_length_c                   16.3063(4)
_cell_angle_alpha                90
_cell_angle_beta                 116.2220(10)
_cell_angle_gamma                90
_cell_volume                     3341.37
loop_
_atom_site_label
_atom_site_type_symbol
_atom_site_fract_x
_atom_site_fract_y
_atom_site_fract_z
Mn1 Mn 0.21422(2) 0.83705(4) 0.06194(3)
O1 O 0.31060(10) 0.75786(18) 0.06517(12)
O2 O 0.41962(11) 0.6979(2) 0.15442(15)
O3 O 0.40799(12) 1.1333(2) 0.47284(16)
O4 O 0.30617(11) 1.19513(19) 0.36210(15)
N1 N 0.13690(12) 0.9669(2) 0.08304(16)
N2 N 0.20670(13) 1.0210(2) -0.01548(17)
N3 N 0.30766(11) 0.9112(2) 0.19083(15)
C1 C 0.10481(17) 0.9447(3) 0.1349(2)
H1 H 0.1172 0.8735 0.1719
C2 C 0.05306(19) 1.0237(4) 0.1366(3)
H2 H 0.0326 1.0055 0.1749
C3 C 0.03309(18) 1.1266(3) 0.0822(3)
H3 H -0.0025 1.1776 0.0807
C4 C 0.06676(17) 1.1551(3) 0.0282(3)
C5 C 0.0504(2) 1.2630(3) -0.0302(3)
H4 H 0.0152 1.3167 -0.0334
C6 C 0.0840(2) 1.2890(4) -0.0801(3)
H5 H 0.0721 1.3604 -0.1168
C7 C 0.1380(2) 1.2087(3) -0.0779(3)
C8 C 0.1768(2) 1.2326(3) -0.1261(3)
H6 H 0.1670 1.3030 -0.1635
C9 C 0.2281(3) 1.1543(3) -0.1186(3)
H7 H 0.2540 1.1700 -0.1506
C10 C 0.2420(2) 1.0488(3) -0.0620(3)
H8 H 0.2779 0.9955 -0.0568
C11 C 0.15531(15) 1.1006(3) -0.0222(2)
C12 C 0.11909(15) 1.0725(3) 0.0312(2)
C13 C 0.30717(14) 0.9969(2) 0.25068(19)
H9 H 0.2655 1.0371 0.2382
C14 C 0.36525(14) 1.0292(3) 0.33038(19)
C15 C 0.42711(15) 0.9677(3) 0.3488(2)
H10 H 0.4669 0.9850 0.4021
C16 C 0.42892(15) 0.8802(3) 0.28688(19)
H11 H 0.4700 0.8389 0.2977
C17 C 0.36899(14) 0.8552(2) 0.20916(18)
C18 C 0.36824(14) 0.7608(3) 0.13842(18)
C19 C 0.36057(16) 1.1274(3) 0.3949(2)
Mn1E Mn 0.28578(2) 0.66295(4) -0.06194(3)
Mn1C Mn 0.28578(2) 1.33705(4) 0.43806(3)
O1E O 0.18940(10) 0.74214(18) -0.06517(12)
O4C O 0.19383(11) 0.69513(19) 0.13790(15)
loop_
_geom_bond_atom_site_label_1
_geom_bond_atom_site_label_2
_geom_bond_site_symmetry_1
_geom_bond_site_symmetry_2
Mn1 O1 1_555 1_555
O1 C18 1_555 1_555
O2 C18 1_555 1_555
O3 C19 1_555 1_555
O4 C19 1_555 1_555
N1 Mn1 1_555 1_555
N2 Mn1 1_555 1_555
N3 Mn1 1_555 1_555
C1 N1 1_555 1_555
H1 C1 1_555 1_555
C2 C1 1_555 1_555
H2 C2 1_555 1_555
C3 C2 1_555 1_555
H3 C3 1_555 1_555
C4 C3 1_555 1_555
C5 C4 1_555 1_555
H4 C5 1_555 1_555
C6 C5 1_555 1_555
H5 C6 1_555 1_555
C7 C6 1_555 1_555
C8 C7 1_555 1_555
H6 C8 1_555 1_555
C9 C8 1_555 1_555
H7 C9 1_555 1_555
C10 N2 1_555 1_555
H8 C10 1_555 1_555
C11 N2 1_555 1_555
C12 N1 1_555 1_555
C13 N3 1_555 1_555
H9 C13 1_555 1_555
C14 C13 1_555 1_555
C15 C14 1_555 1_555
H10 C15 1_555 1_555
C16 C15 1_555 1_555
H11 C16 1_555 1_555
C17 N3 1_555 1_555
C18 C17 1_555 1_555
C19 C14 1_555 1_555
Mn1E O1 1_555 1_555
Mn1C O4 1_555 1_555
O1E Mn1 1_555 1_555
O4C Mn1 1_555 1_555
C4 C12 1_555 1_555
C7 C11 1_555 1_555
C9 C10 1_555 1_555
C11 C12 1_555 1_555
C16 C17 1_555 1_555
Mn1E O1E 1_555 1_555

#END
