
#######################################################################
#
#                 Cambridge Crystallographic Data Centre
#                                CCDC 
#
#######################################################################
#
# If this CIF has been generated from an entry in the Cambridge 
# Structural Database, then it will include bibliographic, chemical, 
# crystal, experimental, refinement or atomic coordinate data resulting 
# from the CCDC's data processing and validation procedures.
#
#######################################################################

data_FEBPUZ
_symmetry_cell_setting           cubic
_symmetry_space_group_name_H-M   'P n -3 n'
_symmetry_Int_Tables_number      222
_space_group_name_Hall           '-P 4a 2bc 3'
loop_
_symmetry_equiv_pos_site_id
_symmetry_equiv_pos_as_xyz
1 x,y,z
2 1/2-y,x,z
3 1/2-x,1/2-y,z
4 y,1/2-x,z
5 x,1/2-y,1/2-z
6 y,x,1/2-z
7 1/2-x,y,1/2-z
8 1/2-y,1/2-x,1/2-z
9 z,x,y
10 1/2-x,z,y
11 1/2-z,1/2-x,y
12 x,1/2-z,y
13 z,1/2-x,1/2-y
14 x,z,1/2-y
15 1/2-z,x,1/2-y
16 1/2-x,1/2-z,1/2-y
17 y,z,x
18 1/2-z,1/2-y,1/2-x
19 1/2-z,y,x
20 z,y,1/2-x
21 z,1/2-y,x
22 y,1/2-z,1/2-x
23 1/2-y,1/2-z,x
24 1/2-y,z,1/2-x
25 -x,-y,-z
26 1/2+y,-x,-z
27 1/2+x,1/2+y,-z
28 -y,1/2+x,-z
29 -x,1/2+y,1/2+z
30 -y,-x,1/2+z
31 1/2+x,-y,1/2+z
32 1/2+y,1/2+x,1/2+z
33 -z,-x,-y
34 1/2+x,-z,-y
35 1/2+z,1/2+x,-y
36 -x,1/2+z,-y
37 -z,1/2+x,1/2+y
38 -x,-z,1/2+y
39 1/2+z,-x,1/2+y
40 1/2+x,1/2+z,1/2+y
41 -y,-z,-x
42 1/2+z,1/2+y,1/2+x
43 1/2+z,-y,-x
44 -z,-y,1/2+x
45 -z,1/2+y,-x
46 -y,1/2+z,1/2+x
47 1/2+y,1/2+z,-x
48 1/2+y,-z,1/2+x
_cell_length_a                   21.9332(2)
_cell_length_b                   21.9332(2)
_cell_length_c                   21.9332(2)
_cell_angle_alpha                90
_cell_angle_beta                 90
_cell_angle_gamma                90
_cell_volume                     10551.3
loop_
_atom_site_label
_atom_site_type_symbol
_atom_site_fract_x
_atom_site_fract_y
_atom_site_fract_z
Cd1 Cd -0.082765(14) -0.082765(14) -0.417235(14)
Na1 Na 0.0000 0.0000 -0.5000
C1 C 0.02674(17) -0.03062(18) -0.34353(18)
C2 C 0.08040(17) 0.00866(17) -0.32868(16)
C3 C 0.10490(17) 0.04904(17) -0.36993(17)
H1 H 0.0877 0.0509 -0.4087
C4 C 0.17587(16) 0.08306(17) -0.30127(16)
C5 C 0.15421(18) 0.04481(17) -0.25646(17)
H2 H 0.1716 0.0444 -0.2178
C6 C 0.10653(18) 0.00756(17) -0.27051(18)
H3 H 0.0912 -0.0189 -0.2411
N1 N 0.15228(15) 0.08606(14) -0.35759(14)
S1 S 0.23858(5) 0.13472(5) -0.29480(5)
O1 O 0.00289(11) -0.02484(13) -0.39527(12)
O2 O 0.00757(18) -0.06594(17) -0.30421(17)
O3 O -0.17803(18) -0.11801(14) -0.44038(16)
H4 H -0.1949 -0.1101 -0.4744
H5 H -0.2044 -0.1410 -0.4236
Cd1X Cd 0.082765(14) 0.082765(14) -0.582765(14)
Cd1F Cd 0.582765(14) -0.082765(14) -0.082765(14)
Cd1B Cd -0.417235(14) 0.582765(14) -0.417235(14)
Cd1DA Cd -0.582765(14) 0.082765(14) -0.917235(14)
Na1F Na 0.5000 0.0000 0.0000
Na1B Na -0.5000 0.5000 -0.5000
Na1F_2 Na -0.5000 0.0000 -1.0000
C1N C -0.15647(18) 0.02674(17) -0.46938(18)
C1X C -0.02674(17) 0.03062(18) -0.65647(18)
C1F C 0.47326(17) -0.03062(18) -0.15647(18)
C1L C -0.34353(18) 0.47326(17) -0.46938(18)
C1DA C -0.47326(17) 0.03062(18) -0.84353(18)
C2F C 0.41960(17) 0.00866(17) -0.17132(16)
C2N C -0.17132(16) 0.08040(17) -0.50866(17)
C2L C -0.32868(16) 0.41960(17) -0.50866(17)
C2X C -0.08040(17) -0.00866(17) -0.67132(16)
C2DA C -0.41960(17) -0.00866(17) -0.82868(16)
C3F C 0.39510(17) 0.04904(17) -0.13007(17)
C3N C -0.13007(17) 0.10490(17) -0.54904(17)
C3L C -0.36993(17) 0.39510(17) -0.54904(17)
C3X C -0.10490(17) -0.04904(17) -0.63007(17)
C3DA C -0.39510(17) -0.04904(17) -0.86993(17)
H1F H 0.4123 0.0509 -0.0913
H1N H -0.0913 0.0877 -0.5509
H1L H -0.4087 0.4123 -0.5509
H1X H -0.0877 -0.0509 -0.5913
H1DA H -0.4123 -0.0509 -0.9087
C4F C 0.32413(16) 0.08306(17) -0.19873(16)
C4N C -0.19873(16) 0.17587(16) -0.58306(17)
C4L C -0.30127(16) 0.32413(16) -0.58306(17)
C4X C -0.17587(16) -0.08306(17) -0.69873(16)
C4DA C -0.32413(16) -0.08306(17) -0.80127(16)
C5F C 0.34579(18) 0.04481(17) -0.24354(17)
C5N C -0.24354(17) 0.15421(18) -0.54481(17)
C5L C -0.25646(17) 0.34579(18) -0.54481(17)
C5X C -0.15421(18) -0.04481(17) -0.74354(17)
C5DA C -0.34579(18) -0.04481(17) -0.75646(17)
H2F H 0.3284 0.0444 -0.2822
H2N H -0.2822 0.1716 -0.5444
H2L H -0.2178 0.3284 -0.5444
H2X H -0.1716 -0.0444 -0.7822
H2DA H -0.3284 -0.0444 -0.7178
C6F C 0.39347(18) 0.00756(17) -0.22949(18)
C6N C -0.22949(18) 0.10653(18) -0.50756(17)
C6L C -0.27051(18) 0.39347(18) -0.50756(17)
C6X C -0.10653(18) -0.00756(17) -0.72949(18)
C6DA C -0.39347(18) -0.00756(17) -0.77051(18)
H3F H 0.4088 -0.0189 -0.2589
H3N H -0.2589 0.0912 -0.4811
H3L H -0.2411 0.4088 -0.4811
H3X H -0.0912 0.0189 -0.7589
H3DA H -0.4088 0.0189 -0.7411
N1F N 0.34772(15) 0.08606(14) -0.14241(14)
N1N N -0.14241(14) 0.15228(15) -0.58606(14)
N1L N -0.35759(14) 0.34772(15) -0.58606(14)
N1X N -0.15228(15) -0.08606(14) -0.64241(14)
N1DA N -0.34772(15) -0.08606(14) -0.85759(14)
S1F S 0.26142(5) 0.13472(5) -0.20520(5)
S1N S -0.20520(5) 0.23858(5) -0.63472(5)
S1L S -0.29480(5) 0.26142(5) -0.63472(5)
S1X S -0.23858(5) -0.13472(5) -0.70520(5)
S1DA S -0.26142(5) -0.13472(5) -0.79480(5)
O1N O -0.10473(12) 0.00289(11) -0.47516(13)
O1U O -0.02484(13) -0.10473(12) -0.50289(11)
O1X O -0.00289(11) 0.02484(13) -0.60473(12)
O1LA O 0.10473(12) -0.00289(11) -0.52484(13)
O1SA O 0.02484(13) 0.10473(12) -0.49711(11)
O1F O 0.49711(11) -0.02484(13) -0.10473(12)
O1L O -0.39527(12) 0.49711(11) -0.47516(13)
O1DA O -0.49711(11) 0.02484(13) -0.89527(12)
O2F O 0.49243(18) -0.06594(17) -0.19579(17)
O2N O -0.19579(17) 0.00757(18) -0.43406(17)
O2L O -0.30421(17) 0.49243(18) -0.43406(17)
O2X O -0.00757(18) 0.06594(17) -0.69579(17)
O2DA O -0.49243(18) 0.06594(17) -0.80421(17)
O3N O -0.05962(16) -0.17803(18) -0.38199(14)
O3U O -0.11801(14) -0.05962(16) -0.32197(18)
O3X O 0.17803(18) 0.11801(14) -0.55962(16)
O3LA O 0.05962(16) 0.17803(18) -0.61801(14)
O3SA O 0.11801(14) 0.05962(16) -0.67803(18)
H4N H -0.0256 -0.1949 -0.3899
H4U H -0.1101 -0.0256 -0.3051
H4X H 0.1949 0.1101 -0.5256
H4LA H 0.0256 0.1949 -0.6101
H4SA H 0.1101 0.0256 -0.6949
H5N H -0.0764 -0.2044 -0.3590
H5U H -0.1410 -0.0764 -0.2956
H5X H 0.2044 0.1410 -0.5764
H5LA H 0.0764 0.2044 -0.6410
H5SA H 0.1410 0.0764 -0.7044
O4 O 0.55150(19) 0.2045(2) 0.1672(2)
H6 H 0.5525 0.2323 0.1402
H7 H 0.5900 0.2019 0.1711
O5 O 0.5321(5) 0.2500 0.2500
O7 O 0.7500 0.7500 0.9240(17)
O6? O 0.6945(5) 0.7500 0.7500
loop_
_geom_bond_atom_site_label_1
_geom_bond_atom_site_label_2
_geom_bond_site_symmetry_1
_geom_bond_site_symmetry_2
Cd1 O1 1_555 1_555
Na1 O1 1_555 1_555
C1 C2 1_555 1_555
C2 C3 1_555 1_555
C3 H1 1_555 1_555
C4 C5 1_555 1_555
C5 H2 1_555 1_555
C6 C2 1_555 1_555
H3 C6 1_555 1_555
N1 C3 1_555 1_555
S1 C4 1_555 1_555
O1 C1 1_555 1_555
O2 C1 1_555 1_555
O3 Cd1 1_555 1_555
H4 O3 1_555 1_555
H5 O3 1_555 1_555
O4 H6 1_555 1_555
H7 O4 1_555 1_555
Cd1X O1X 1_555 1_555
Cd1F O1F 1_555 1_555
Cd1B O1L 1_555 1_555
Cd1DA O1DA 1_555 1_555
Na1F O1F 1_555 1_555
Na1B O1L 1_555 1_555
Na1F_2 O1DA 1_555 1_555
C1N C2N 1_555 1_555
C1X C2X 1_555 1_555
C1F C2F 1_555 1_555
C1L C2L 1_555 1_555
C1DA C2DA 1_555 1_555
C2F C3F 1_555 1_555
C2N C3N 1_555 1_555
C2L C3L 1_555 1_555
C2X C3X 1_555 1_555
C2DA C3DA 1_555 1_555
C3F H1F 1_555 1_555
C3N H1N 1_555 1_555
C3L H1L 1_555 1_555
C3X H1X 1_555 1_555
C3DA H1DA 1_555 1_555
C4F C5F 1_555 1_555
C4N C5N 1_555 1_555
C4L C5L 1_555 1_555
C4X C5X 1_555 1_555
C4DA C5DA 1_555 1_555
C5F H2F 1_555 1_555
C5N H2N 1_555 1_555
C5L H2L 1_555 1_555
C5X H2X 1_555 1_555
C5DA H2DA 1_555 1_555
C6F C2F 1_555 1_555
C6N C2N 1_555 1_555
C6L C2L 1_555 1_555
C6X C2X 1_555 1_555
C6DA C2DA 1_555 1_555
H3F C6F 1_555 1_555
H3N C6N 1_555 1_555
H3L C6L 1_555 1_555
H3X C6X 1_555 1_555
H3DA C6DA 1_555 1_555
N1F C3F 1_555 1_555
N1N C3N 1_555 1_555
N1L C3L 1_555 1_555
N1X C3X 1_555 1_555
N1DA C3DA 1_555 1_555
S1F S1 1_555 1_555
S1N C4N 1_555 1_555
S1L C4L 1_555 1_555
S1X C4X 1_555 1_555
S1DA C4DA 1_555 1_555
O1N Cd1 1_555 1_555
O1U Cd1 1_555 1_555
O1X Na1 1_555 1_555
O1LA Na1 1_555 1_555
O1SA Na1 1_555 1_555
O1F C1F 1_555 1_555
O1L C1L 1_555 1_555
O1DA C1DA 1_555 1_555
O2F C1F 1_555 1_555
O2N C1N 1_555 1_555
O2L C1L 1_555 1_555
O2X C1X 1_555 1_555
O2DA C1DA 1_555 1_555
O3N Cd1 1_555 1_555
O3U Cd1 1_555 1_555
O3X Cd1X 1_555 1_555
O3LA Cd1X 1_555 1_555
O3SA Cd1X 1_555 1_555
H4N O3N 1_555 1_555
H4U O3U 1_555 1_555
H4X O3X 1_555 1_555
H4LA O3LA 1_555 1_555
H4SA O3SA 1_555 1_555
H5N O3N 1_555 1_555
H5U O3U 1_555 1_555
H5X O3X 1_555 1_555
H5LA O3LA 1_555 1_555
H5SA O3SA 1_555 1_555
Na1 O1N 1_555 1_555
Na1 O1U 1_555 1_555
C4 N1 1_555 1_555
C5 C6 1_555 1_555
Cd1X O1LA 1_555 1_555
Cd1X O1SA 1_555 1_555
C1N O1N 1_555 1_555
C1X O1X 1_555 1_555
C4F N1F 1_555 1_555
C4F S1F 1_555 1_555
C4N N1N 1_555 1_555
C4L N1L 1_555 1_555
C4X N1X 1_555 1_555
C4DA N1DA 1_555 1_555
C5F C6F 1_555 1_555
C5N C6N 1_555 1_555
C5L C6L 1_555 1_555
C5X C6X 1_555 1_555
C5DA C6DA 1_555 1_555
S1N S1L 1_555 1_555
S1X S1DA 1_555 1_555

#END
