
#######################################################################
#
#                 Cambridge Crystallographic Data Centre
#                                CCDC 
#
#######################################################################
#
# If this CIF has been generated from an entry in the Cambridge 
# Structural Database, then it will include bibliographic, chemical, 
# crystal, experimental, refinement or atomic coordinate data resulting 
# from the CCDC's data processing and validation procedures.
#
#######################################################################

data_FECDAT
_symmetry_cell_setting           orthorhombic
_symmetry_space_group_name_H-M   'P n m a'
_symmetry_Int_Tables_number      62
_space_group_name_Hall           '-P 2ac 2n'
loop_
_symmetry_equiv_pos_site_id
_symmetry_equiv_pos_as_xyz
1 x,y,z
2 1/2-x,-y,1/2+z
3 1/2+x,1/2-y,1/2-z
4 -x,1/2+y,-z
5 -x,-y,-z
6 1/2+x,y,1/2-z
7 1/2-x,1/2+y,1/2+z
8 x,1/2-y,z
_cell_length_a                   8.6847(8)
_cell_length_b                   6.4457(6)
_cell_length_c                   9.5910(9)
_cell_angle_alpha                90
_cell_angle_beta                 90
_cell_angle_gamma                90
_cell_volume                     536.894
loop_
_atom_site_label
_atom_site_type_symbol
_atom_site_fract_x
_atom_site_fract_y
_atom_site_fract_z
Cu1 Cu 0.52528(6) 0.25000 0.12293(5)
C1 C 0.7225(4) 0.25000 0.2074(3)
N1 N 0.8361(4) 0.25000 0.2718(3)
N2 N 0.4875(4) 0.25000 -0.0796(3)
C2 C 0.4553(4) 0.25000 -0.1947(4)
C3 C 0.4162(5) 0.25000 -0.3428(3)
C4 C 0.5610(5) 0.25000 -0.4342(3)
H1 H 0.35564 0.37034 -0.36364
H2 H 0.53381 0.25000 -0.52957
H3 H 0.62659 0.36118 -0.40695
Cu1E Cu 1.02528(6) 0.25000 0.37707(5)
N1E N 0.3361(4) 0.25000 0.2282(3)
H1G H 0.35564 0.12966 -0.36364
H3G H 0.62659 0.13882 -0.40695
loop_
_geom_bond_atom_site_label_1
_geom_bond_atom_site_label_2
_geom_bond_site_symmetry_1
_geom_bond_site_symmetry_2
Cu1 C1 1_555 1_555
C1 N1 1_555 1_555
N1 Cu1E 1_555 1_555
N2 Cu1 1_555 1_555
C2 N2 1_555 1_555
C3 C2 1_555 1_555
C4 C3 1_555 1_555
H1 C3 1_555 1_555
H2 C4 1_555 1_555
H3 C4 1_555 1_555
N1E Cu1 1_555 1_555
H1G C3 1_555 1_555
H3G C4 1_555 1_555

#END
