
#######################################################################
#
#                 Cambridge Crystallographic Data Centre
#                                CCDC 
#
#######################################################################
#
# If this CIF has been generated from an entry in the Cambridge 
# Structural Database, then it will include bibliographic, chemical, 
# crystal, experimental, refinement or atomic coordinate data resulting 
# from the CCDC's data processing and validation procedures.
#
#######################################################################

data_FECGUP
_symmetry_cell_setting           orthorhombic
_symmetry_space_group_name_H-M   'P n a 21'
_symmetry_Int_Tables_number      33
_space_group_name_Hall           'P 2c -2n'
loop_
_symmetry_equiv_pos_site_id
_symmetry_equiv_pos_as_xyz
1 x,y,z
2 1/2-x,1/2+y,1/2+z
3 1/2+x,1/2-y,z
4 -x,-y,1/2+z
_cell_length_a                   7.324(1)
_cell_length_b                   17.036(3)
_cell_length_c                   16.408(4)
_cell_angle_alpha                90
_cell_angle_beta                 90
_cell_angle_gamma                90
_cell_volume                     2047.25
loop_
_atom_site_label
_atom_site_type_symbol
_atom_site_fract_x
_atom_site_fract_y
_atom_site_fract_z
Li1 Li 0.2899(13) 0.3140(6) 0.4711
C1 C -0.2656(8) 0.3010(3) 0.7070(4)
C2 C -0.3461(9) 0.3006(4) 0.7820(4)
C3 C -0.2999(9) 0.3554(4) 0.8398(4)
C4 C -0.1719(9) 0.4123(4) 0.8235(4)
C5 C -0.0858(8) 0.4114(4) 0.7481(4)
C6 C -0.1311(8) 0.3564(3) 0.6867(3)
C7 C -0.0296(8) 0.3631(3) 0.6112(3)
N1 N -0.0704(5) 0.3293(3) 0.5423(3)
O1 O 0.0346(5) 0.3408(2) 0.4781(2)
O2 O 0.2883(4) 0.2154(2) 0.5310(2)
O3 O 0.4774(5) 0.3725(2) 0.5290(3)
C8 C 0.5304(11) 0.4475(4) 0.5432(6)
C9 C 0.3820(10) 0.5034(4) 0.5260(6)
Li2 Li -0.0619(12) 0.3206(6) 0.3713(5)
C10 C 0.1687(8) 0.3838(3) 0.1280(4)
C11 C 0.1200(8) 0.4056(4) 0.0503(4)
C12 C 0.1842(8) 0.3649(4) -0.0152(4)
C13 C 0.3027(9) 0.3035(4) -0.0046(4)
C14 C 0.3571(8) 0.2824(3) 0.0743(3)
C15 C 0.2865(7) 0.3229(3) 0.1412(3)
C16 C 0.3561(8) 0.2972(3) 0.2216(4)
N2 N 0.2906(5) 0.3152(2) 0.2917(3)
O4 O 0.3779(5) 0.2921(2) 0.3597(2)
O5 O 0.1424(4) 0.3559(2) 0.3035(2)
O6 O -0.2857(5) 0.3700(2) 0.3404(3)
C17 C -0.2922(18) 0.4215(7) 0.2702(9)
C18 C -0.4263(17) 0.4884(7) 0.2803(8)
H1 H -0.3018 0.2627 0.6672
H2 H -0.4360 0.2614 0.7945
H3 H -0.3580 0.3541 0.8923
H4 H -0.1427 0.4516 0.8633
H5 H 0.0078 0.4495 0.7373
H6 H 0.0911(81) 0.3978(37) 0.6080(39)
H7 H 0.5955(44) 0.3585(47) 0.5351(64)
H8 H 0.5663 0.4525 0.5992
H9 H 0.6324 0.4595 0.5086
H10 H 0.3070 0.5019 0.4780
H11 H 0.4522 0.5510 0.5264
H12 H 0.3058 0.5016 0.5736
H13 H 0.1192 0.4117 0.1738
H14 H 0.0406 0.4498 0.0423
H15 H 0.1459 0.3794 -0.0691
H16 H 0.3481 0.2751 -0.0509
H17 H 0.4428 0.2404 0.0822
H18 H 0.4541(82) 0.2621(33) 0.2220(34)
H19 H -0.3945(79) 0.3434(58) 0.3363(83)
O2B O -0.2117(4) 0.2846(2) 0.5310(2)
N1B N 0.4296(5) 0.1707(3) 0.5423(3)
O4B O -0.1221(5) 0.2079(2) 0.3597(2)
Li2B Li 0.4381(12) 0.1794(6) 0.3713(5)
Li1B Li -0.2101(13) 0.1860(6) 0.4711
C7B C 0.4704(8) 0.1369(3) 0.6112(3)
O1B O 0.5346(5) 0.1592(2) 0.4781(2)
N2B N -0.2094(5) 0.1848(2) 0.2917(3)
O5B O 0.6424(4) 0.1441(2) 0.3035(2)
O6B O 0.2143(5) 0.1300(2) 0.3404(3)
O1B_2 O -0.4654(5) 0.1592(2) 0.4781(2)
O3B O -0.0226(5) 0.1275(2) 0.5290(3)
C6B C 0.3689(8) 0.1436(3) 0.6867(3)
H6B H 0.5911(81) 0.1022(37) 0.6080(39)
Li1B_2 Li 0.7899(13) 0.1860(6) 0.4711
C16B C -0.1439(8) 0.2028(3) 0.2216(4)
O5B_2 O -0.3576(4) 0.1441(2) 0.3035(2)
N2B_2 N 0.7906(5) 0.1848(2) 0.2917(3)
C17B C 0.2078(18) 0.0785(7) 0.2702(9)
H19B H 0.1055(79) 0.1566(58) 0.3363(83)
C8B C 0.0304(11) 0.0525(4) 0.5432(6)
H7B H 0.0955(44) 0.1415(47) 0.5351(64)
C1B C 0.2344(8) 0.1990(3) 0.7070(4)
C5B C 0.4142(8) 0.0886(4) 0.7481(4)
C15B C -0.2135(7) 0.1771(3) 0.1412(3)
H18B H -0.0459(82) 0.2379(33) 0.2220(34)
C18B C 0.0737(17) 0.0116(7) 0.2803(8)
C9B C -0.1180(10) -0.0034(4) 0.5260(6)
H8B H 0.0663 0.0475 0.5992
H9B H 0.1324 0.0405 0.5086
C2B C 0.1539(9) 0.1994(4) 0.7820(4)
H1B H 0.1982 0.2373 0.6672
C4B C 0.3281(9) 0.0877(4) 0.8235(4)
H5B H 0.5078 0.0505 0.7373
C10B C -0.3313(8) 0.1162(3) 0.1280(4)
C14B C -0.1429(8) 0.2176(3) 0.0743(3)
H10B H -0.1930 -0.0019 0.4780
H11B H -0.0478 -0.0510 0.5264
H12B H -0.1942 -0.0016 0.5736
C3B C 0.2001(9) 0.1446(4) 0.8398(4)
H2B H 0.0640 0.2386 0.7945
H4B H 0.3573 0.0484 0.8633
C11B C -0.3800(8) 0.0944(4) 0.0503(4)
H13B H -0.3808 0.0883 0.1738
C13B C -0.1973(9) 0.1965(4) -0.0046(4)
H17B H -0.0572 0.2596 0.0822
H3B H 0.1420 0.1459 0.8923
C12B C -0.3158(8) 0.1351(4) -0.0152(4)
H14B H -0.4594 0.0502 0.0423
H16B H -0.1519 0.2249 -0.0509
H15B H -0.3541 0.1206 -0.0691
loop_
_geom_bond_atom_site_label_1
_geom_bond_atom_site_label_2
_geom_bond_site_symmetry_1
_geom_bond_site_symmetry_2
Li1 O1 1_555 1_555
C1 C2 1_555 1_555
C2 C3 1_555 1_555
C3 C4 1_555 1_555
C4 C5 1_555 1_555
C5 C6 1_555 1_555
C6 C1 1_555 1_555
C7 C6 1_555 1_555
N1 C7 1_555 1_555
O1 N1 1_555 1_555
O2 Li1 1_555 1_555
O3 Li1 1_555 1_555
C8 O3 1_555 1_555
C9 C8 1_555 1_555
Li2 O1 1_555 1_555
C10 C11 1_555 1_555
C11 C12 1_555 1_555
C12 C13 1_555 1_555
C13 C14 1_555 1_555
C14 C15 1_555 1_555
C15 C10 1_555 1_555
C16 C15 1_555 1_555
N2 C16 1_555 1_555
O4 Li1 1_555 1_555
O5 Li2 1_555 1_555
O6 Li2 1_555 1_555
C17 O6 1_555 1_555
C18 C17 1_555 1_555
H1 C1 1_555 1_555
H2 C2 1_555 1_555
H3 C3 1_555 1_555
H4 C4 1_555 1_555
H5 C5 1_555 1_555
H6 C7 1_555 1_555
H7 O3 1_555 1_555
H8 C8 1_555 1_555
H9 C8 1_555 1_555
H10 C9 1_555 1_555
H11 C9 1_555 1_555
H12 C9 1_555 1_555
H13 C10 1_555 1_555
H14 C11 1_555 1_555
H15 C12 1_555 1_555
H16 C13 1_555 1_555
H17 C14 1_555 1_555
H18 C16 1_555 1_555
H19 O6 1_555 1_555
O2B N1 1_555 1_555
N1B O2 1_555 1_555
O4B Li2 1_555 1_555
Li2B O4 1_555 1_555
Li1B O2B 1_555 1_555
C7B N1B 1_555 1_555
O1B N1B 1_555 1_555
N2B O4B 1_555 1_555
O5B Li2B 1_555 1_555
O6B Li2B 1_555 1_555
O1B_2 Li1B 1_555 1_555
O3B Li1B 1_555 1_555
C6B C7B 1_555 1_555
H6B C7B 1_555 1_555
Li1B_2 O1B 1_555 1_555
C16B N2B 1_555 1_555
O5B_2 N2B 1_555 1_555
N2B_2 O5B 1_555 1_555
C17B O6B 1_555 1_555
H19B O6B 1_555 1_555
C8B O3B 1_555 1_555
H7B O3B 1_555 1_555
C1B C6B 1_555 1_555
C5B C6B 1_555 1_555
C15B C16B 1_555 1_555
H18B C16B 1_555 1_555
C18B C17B 1_555 1_555
C9B C8B 1_555 1_555
H8B C8B 1_555 1_555
H9B C8B 1_555 1_555
C2B C1B 1_555 1_555
H1B C1B 1_555 1_555
C4B C5B 1_555 1_555
H5B C5B 1_555 1_555
C10B C15B 1_555 1_555
C14B C15B 1_555 1_555
H10B C9B 1_555 1_555
H11B C9B 1_555 1_555
H12B C9B 1_555 1_555
C3B C2B 1_555 1_555
H2B C2B 1_555 1_555
H4B C4B 1_555 1_555
C11B C10B 1_555 1_555
H13B C10B 1_555 1_555
C13B C14B 1_555 1_555
H17B C14B 1_555 1_555
H3B C3B 1_555 1_555
C12B C11B 1_555 1_555
H14B C11B 1_555 1_555
H16B C13B 1_555 1_555
H15B C12B 1_555 1_555
N2 O4 1_555 1_555
N2 O5 1_555 1_555
O4B Li1B 1_555 1_555
Li2B O1B 1_555 1_555
C4B C3B 1_555 1_555
C13B C12B 1_555 1_555

#END
