
#######################################################################
#
#                 Cambridge Crystallographic Data Centre
#                                CCDC 
#
#######################################################################
#
# If this CIF has been generated from an entry in the Cambridge 
# Structural Database, then it will include bibliographic, chemical, 
# crystal, experimental, refinement or atomic coordinate data resulting 
# from the CCDC's data processing and validation procedures.
#
#######################################################################

data_FECHIG
_symmetry_cell_setting           orthorhombic
_symmetry_space_group_name_H-M   'P 21 21 21'
_symmetry_Int_Tables_number      19
_space_group_name_Hall           'P 2ac 2ab'
loop_
_symmetry_equiv_pos_site_id
_symmetry_equiv_pos_as_xyz
1 x,y,z
2 1/2-x,-y,1/2+z
3 1/2+x,1/2-y,-z
4 -x,1/2+y,1/2-z
_cell_length_a                   11.807(2)
_cell_length_b                   18.175(4)
_cell_length_c                   23.693(5)
_cell_angle_alpha                90
_cell_angle_beta                 90
_cell_angle_gamma                90
_cell_volume                     5084.33
loop_
_atom_site_label
_atom_site_type_symbol
_atom_site_fract_x
_atom_site_fract_y
_atom_site_fract_z
C1 C 0.1889(6) -0.0474(4) 0.1575(3)
C2 C 0.3731(8) -0.0404(6) 0.3062(4)
C3 C 0.1751(8) -0.3203(5) 0.0624(4)
H1 H 0.1320 -0.3551 0.0849
H2 H 0.1365 -0.3123 0.0268
C4 C 0.2965(7) -0.3469(4) 0.0532(4)
C5 C 0.3421(7) -0.0713(5) 0.2119(4)
C6 C 0.3549(6) -0.2254(5) 0.0364(3)
C7 C 0.8879(10) 0.2077(6) -0.0210(4)
H3 H 0.9301 0.2475 -0.0384
H4 H 0.8224 0.1965 -0.0442
C8 C 0.3620(8) -0.3151(5) 0.1067(4)
C9 C 0.9623(7) 0.1261(5) 0.0506(4)
H5 H 1.0214 0.0943 0.0664
C10 C 0.1949(8) -0.2424(5) 0.0967(4)
H6 H 0.1614 -0.2012 0.0767
H7 H 0.1638 -0.2446 0.1345
C11 C 0.3910(6) -0.1695(4) -0.0479(3)
C12 C 0.8529(8) 0.2275(5) 0.0388(5)
C13 C 0.1483(6) -0.0502(4) 0.0981(3)
C14 C 0.4877(8) -0.3251(6) 0.1033(4)
H8 H 0.5221 -0.3064 0.1371
H9 H 0.5165 -0.2988 0.0713
H10 H 0.5049 -0.3764 0.0995
C15 C 0.3058(9) -0.4270(5) 0.0409(4)
H11 H 0.2642 -0.4382 0.0072
H12 H 0.2752 -0.4546 0.0719
H13 H 0.3840 -0.4398 0.0357
C16 C 0.9613(8) 0.2021(6) 0.0725(5)
C17 C 0.4243(10) -0.1215(7) 0.2902(5)
C18 C 0.3914(7) -0.2369(4) -0.0747(3)
C19 C 0.4238(6) -0.2550(4) -0.1340(3)
C20 C 0.2902(7) -0.0351(5) 0.2579(4)
C21 C 0.6480(6) -0.0401(4) 0.0932(3)
C22 C 0.6211(7) 0.0997(4) 0.0846(3)
C23 C 0.0175(6) 0.0137(4) 0.2058(3)
C24 C 0.3451(7) -0.2938(4) 0.0084(3)
C25 C 0.6847(6) 0.0361(4) 0.0829(3)
C26 C 0.7765(7) 0.1661(5) 0.0591(4)
C27 C 0.5022(7) 0.1025(4) 0.1045(4)
C28 C 0.1342(5) -0.0152(4) 0.2031(3)
C29 C 0.8436(6) 0.1028(5) 0.0635(3)
C30 C 0.3202(7) -0.2368(5) 0.0978(3)
H14 H 0.3505 -0.2005 0.1244
C31 C 0.4111(6) -0.0941(4) -0.0698(3)
C32 C 0.4557(9) -0.1003(7) 0.2313(5)
H15 H 0.4890 -0.1393 0.2081
C33 C 0.9445(10) 0.2091(7) 0.1362(4)
H16 H 1.0123 0.1938 0.1553
H17 H 0.8825 0.1785 0.1478
H18 H 0.9283 0.2594 0.1456
C34 C 0.9667(9) 0.1360(6) -0.0125(5)
H19 H 0.9358 0.0936 -0.0320
H20 H 1.0434 0.1448 -0.0254
C35 C 1.0670(8) 0.2495(5) 0.0588(4)
H21 H 1.1305 0.2319 0.0802
H22 H 1.0522 0.2999 0.0684
H23 H 1.0838 0.2459 0.0192
C36 C 0.8100(10) 0.3021(6) 0.0449(6)
H24 H 0.7433 0.3080 0.0222
H25 H 0.8668 0.3365 0.0329
H26 H 0.7915 0.3111 0.0838
C37 C 0.3173(10) -0.3494(6) 0.1617(4)
H27 H 0.3586 -0.3297 0.1932
H28 H 0.3272 -0.4018 0.1604
H29 H 0.2384 -0.3381 0.1659
C38 C 0.5308(9) -0.0259(8) 0.2379(5)
H30 H 0.6102 -0.0363 0.2446
H31 H 0.5228 0.0067 0.2057
C39 C 0.4747(8) 0.0017(9) 0.2871(5)
H32 H 0.4518 0.0520 0.2798
H33 H 0.5289 0.0027 0.3178
C40 C 0.3314(10) -0.0283(9) 0.3612(5)
H34 H 0.3056 0.0216 0.3645
H35 H 0.3906 -0.0371 0.3882
H36 H 0.2694 -0.0612 0.3684
C41 C 0.3439(12) -0.1796(8) 0.2971(6)
H37 H 0.2792 -0.1705 0.2736
H38 H 0.3203 -0.1819 0.3359
H39 H 0.3781 -0.2255 0.2866
C42 C 0.5255(11) -0.1394(8) 0.3290(5)
H40 H 0.5564 -0.1864 0.3188
H41 H 0.5004 -0.1408 0.3676
H42 H 0.5826 -0.1022 0.3248
N1 N -0.0080(5) 0.0649(3) 0.2439(3)
N2 N 0.0553(5) -0.0591(4) 0.0199(3)
N3 N -0.1229(6) 0.0764(4) 0.2413(3)
N4 N 0.1628(5) -0.0526(4) 0.0070(3)
N5 N -0.1612(5) 0.0340(4) 0.2013(3)
N6 N 0.1889(6) -0.0063(4) 0.2533(3)
N7 N 0.2947(6) -0.0737(4) 0.1614(3)
N8 N 0.4391(6) -0.3230(4) -0.1511(3)
N9 N 0.4522(6) -0.2082(4) -0.1759(3)
N10 N 0.3735(5) -0.1643(4) 0.0099(2)
N11 N 0.3689(5) -0.3011(4) -0.0452(3)
N12 N 0.4305(5) -0.0383(3) -0.0338(2)
N13 N 0.4515(6) 0.0218(4) -0.0642(3)
N14 N 0.4454(7) 0.0045(4) -0.1184(3)
N15 N 0.4133(5) 0.0627(3) 0.0874(3)
N16 N 0.3235(6) 0.0867(4) 0.1174(4)
N17 N 0.3571(8) 0.1372(6) 0.1526(4)
N18 N 0.4699(7) 0.1494(5) 0.1429(4)
N19 N 0.6655(7) 0.1656(4) 0.0702(3)
N20 N 0.8002(5) 0.0385(4) 0.0721(2)
N21 N 0.5473(5) -0.0723(3) 0.0861(3)
N22 N 0.5617(5) -0.1445(3) 0.0995(3)
N23 N 0.6665(5) -0.1538(4) 0.1147(3)
N24 N 0.0451(5) -0.0570(3) 0.0764(3)
N25 N 0.2236(5) -0.0470(4) 0.0561(3)
N26 N -0.0759(5) -0.0060(3) 0.1788(3)
N27 N 0.7225(5) -0.0903(3) 0.1102(3)
N28 N 0.4205(6) -0.0684(3) -0.1225(2)
N29 N 0.4854(7) -0.2514(4) -0.2201(3)
N30 N 0.4772(6) -0.3197(4) -0.2043(3)
O2 O 0.2451(6) 0.1495(4) 0.2626(3)
Zn1 Zn 0.39534(8) -0.04021(5) 0.05071(3)
Zn2 Zn -0.10724(7) -0.07847(4) 0.11404(3)
Zn3 Zn 0.10198(9) 0.10588(5) 0.29851(4)
N8B N -0.0609(6) -0.1770(4) 0.1511(3)
N9A N 0.0478(6) 0.2082(4) 0.3241(3)
N20_2 N -0.1998(5) 0.0385(4) 0.0721(2)
N27_2 N -0.2775(5) -0.0903(3) 0.1102(3)
N28A N 0.0795(6) 0.0684(3) 0.3775(2)
Zn2B Zn 0.39276(7) -0.42153(4) -0.11404(3)
Zn2_2 Zn 0.89276(7) -0.07847(4) 0.11404(3)
Zn3A Zn 0.39802(9) -0.10588(5) -0.20149(4)
O1 O 0.1271(16) 0.3931(9) 0.1926(7)
O3 O 0.2910(13) 0.2882(9) 0.2706(6)
loop_
_geom_bond_atom_site_label_1
_geom_bond_atom_site_label_2
_geom_bond_site_symmetry_1
_geom_bond_site_symmetry_2
C1 C13 1_555 1_555
C2 C17 1_555 1_555
C3 H1 1_555 1_555
H2 C3 1_555 1_555
C4 C3 1_555 1_555
C5 C20 1_555 1_555
C6 C24 1_555 1_555
C7 H3 1_555 1_555
H4 C7 1_555 1_555
C8 C4 1_555 1_555
C9 H5 1_555 1_555
C10 C3 1_555 1_555
H6 C10 1_555 1_555
H7 C10 1_555 1_555
C11 C18 1_555 1_555
C12 C7 1_555 1_555
C13 N24 1_555 1_555
C14 C8 1_555 1_555
H8 C14 1_555 1_555
H9 C14 1_555 1_555
H10 C14 1_555 1_555
C15 C4 1_555 1_555
H11 C15 1_555 1_555
H12 C15 1_555 1_555
H13 C15 1_555 1_555
C16 C9 1_555 1_555
C17 C32 1_555 1_555
C18 C19 1_555 1_555
C19 N8 1_555 1_555
C20 C2 1_555 1_555
C21 C25 1_555 1_555
C22 C25 1_555 1_555
C23 C28 1_555 1_555
C24 C4 1_555 1_555
C25 N20 1_555 1_555
C26 C12 1_555 1_555
C27 C22 1_555 1_555
C28 C1 1_555 1_555
C29 C9 1_555 1_555
C30 C6 1_555 1_555
H14 C30 1_555 1_555
C31 C11 1_555 1_555
C32 C5 1_555 1_555
H15 C32 1_555 1_555
C33 C16 1_555 1_555
H16 C33 1_555 1_555
H17 C33 1_555 1_555
H18 C33 1_555 1_555
C34 C7 1_555 1_555
H19 C34 1_555 1_555
H20 C34 1_555 1_555
C35 C16 1_555 1_555
H21 C35 1_555 1_555
H22 C35 1_555 1_555
H23 C35 1_555 1_555
C36 C12 1_555 1_555
H24 C36 1_555 1_555
H25 C36 1_555 1_555
H26 C36 1_555 1_555
C37 C8 1_555 1_555
H27 C37 1_555 1_555
H28 C37 1_555 1_555
H29 C37 1_555 1_555
C38 C32 1_555 1_555
H30 C38 1_555 1_555
H31 C38 1_555 1_555
C39 C2 1_555 1_555
H32 C39 1_555 1_555
H33 C39 1_555 1_555
C40 C2 1_555 1_555
H34 C40 1_555 1_555
H35 C40 1_555 1_555
H36 C40 1_555 1_555
C41 C17 1_555 1_555
H37 C41 1_555 1_555
H38 C41 1_555 1_555
H39 C41 1_555 1_555
C42 C17 1_555 1_555
H40 C42 1_555 1_555
H41 C42 1_555 1_555
H42 C42 1_555 1_555
N1 C23 1_555 1_555
N2 N4 1_555 1_555
N3 N1 1_555 1_555
N4 N25 1_555 1_555
N5 N3 1_555 1_555
N6 C20 1_555 1_555
N7 C1 1_555 1_555
N8 N30 1_555 1_555
N9 C19 1_555 1_555
N10 C6 1_555 1_555
N11 C18 1_555 1_555
N12 C31 1_555 1_555
N13 N12 1_555 1_555
N14 N13 1_555 1_555
N15 C27 1_555 1_555
N16 N15 1_555 1_555
N17 N16 1_555 1_555
N18 C27 1_555 1_555
N19 C22 1_555 1_555
N20 C29 1_555 1_555
N21 C21 1_555 1_555
N22 N21 1_555 1_555
N23 N22 1_555 1_555
N24 N2 1_555 1_555
N25 C13 1_555 1_555
N26 C23 1_555 1_555
N27 C21 1_555 1_555
N28 C31 1_555 1_555
N29 N9 1_555 1_555
N30 N29 1_555 1_555
O2 Zn3 1_555 1_555
Zn1 N10 1_555 1_555
Zn2 N24 1_555 1_555
Zn3 N1 1_555 1_555
N8B Zn2 1_555 1_555
N9A Zn3 1_555 1_555
N20_2 Zn2 1_555 1_555
N27_2 Zn2 1_555 1_555
N28A Zn3 1_555 1_555
Zn2B N8 1_555 1_555
Zn2_2 N20 1_555 1_555
Zn3A N9 1_555 1_555
C5 N7 1_555 1_555
C8 C30 1_555 1_555
C9 C34 1_555 1_555
C10 C30 1_555 1_555
C11 N10 1_555 1_555
C12 C16 1_555 1_555
C24 N11 1_555 1_555
C26 C29 1_555 1_555
C26 N19 1_555 1_555
C28 N6 1_555 1_555
C38 C39 1_555 1_555
N5 N26 1_555 1_555
N6 Zn3 1_555 1_555
N12 Zn1 1_555 1_555
N14 N28 1_555 1_555
N15 Zn1 1_555 1_555
N17 N18 1_555 1_555
N21 Zn1 1_555 1_555
N23 N27 1_555 1_555
N25 Zn1 1_555 1_555
N26 Zn2 1_555 1_555
N27 Zn2_2 1_555 1_555
N28 Zn3A 1_555 1_555

#END
