
#######################################################################
#
#                 Cambridge Crystallographic Data Centre
#                                CCDC 
#
#######################################################################
#
# If this CIF has been generated from an entry in the Cambridge 
# Structural Database, then it will include bibliographic, chemical, 
# crystal, experimental, refinement or atomic coordinate data resulting 
# from the CCDC's data processing and validation procedures.
#
#######################################################################

data_FECHEC
_symmetry_cell_setting           tetragonal
_symmetry_space_group_name_H-M   'P 43 21 2'
_symmetry_Int_Tables_number      96
_space_group_name_Hall           'P 4nw 2abw'
loop_
_symmetry_equiv_pos_site_id
_symmetry_equiv_pos_as_xyz
1 x,y,z
2 -x,-y,1/2+z
3 1/2-y,1/2+x,3/4+z
4 1/2+y,1/2-x,1/4+z
5 1/2-x,1/2+y,3/4-z
6 1/2+x,1/2-y,1/4-z
7 y,x,-z
8 -y,-x,1/2-z
_cell_length_a                   17.103(2)
_cell_length_b                   17.103(2)
_cell_length_c                   7.1526(14)
_cell_angle_alpha                90
_cell_angle_beta                 90
_cell_angle_gamma                90
_cell_volume                     2092.23
loop_
_atom_site_label
_atom_site_type_symbol
_atom_site_fract_x
_atom_site_fract_y
_atom_site_fract_z
C1 C 0.5382(3) 0.8275(3) 0.1348(6)
H1 H 0.4994 0.8644 0.1130
C2 C 0.6032(3) 0.8487(3) 0.2307(7)
H2 H 0.6099 0.9001 0.2695
C3 C 0.6594(3) 0.7932(2) 0.2703(6)
H3 H 0.7032 0.8060 0.3408
Hg1 Hg 0.335581(10) 0.664419(10) 0.2500
C4 C 0.3834(2) 0.5125(2) -0.0163(6)
C5 C 0.4677(2) 0.5257(2) 0.0086(5)
N1 N 0.25928(18) 0.5322(2) -0.0057(6)
N2 N 0.2735(2) 0.4722(2) -0.1169(5)
N3 N 0.3285(2) 0.55881(19) 0.0584(4)
N4 N 0.3518(2) 0.4583(2) -0.1235(5)
N5 N 0.48880(18) 0.60005(18) 0.0406(4)
C6 C 0.5645(2) 0.6194(2) 0.0332(5)
N6 N 0.5287(2) 0.75405(19) 0.0705(5)
C7 C 0.6492(2) 0.7175(2) 0.2026(5)
H4 H 0.6867 0.6795 0.2269
C8 C 0.5842(2) 0.6991(2) 0.1007(5)
Cl1 Cl 0.34936(7) 0.77281(7) 0.0228(2)
C1F C 0.8275(3) 0.5382(3) -0.1348(6)
H1F H 0.8644 0.4994 -0.1130
C2F C 0.8487(3) 0.6032(3) -0.2307(7)
H2F H 0.9001 0.6099 -0.2695
C3F C 0.7932(2) 0.6594(3) -0.2703(6)
H3F H 0.8060 0.7032 -0.3408
Hg1A Hg 0.664419(10) 0.335581(10) -0.2500
C4F C 0.5125(2) 0.3834(2) 0.0163(6)
C5F C 0.5257(2) 0.4677(2) -0.0086(5)
N1F N 0.5322(2) 0.25928(18) 0.0057(6)
N2F N 0.4722(2) 0.2735(2) 0.1169(5)
N3F N 0.55881(19) 0.3285(2) -0.0584(4)
N3G N 0.44119(19) 0.6715(2) 0.4416(4)
N4F N 0.4583(2) 0.3518(2) 0.1235(5)
N5F N 0.60005(18) 0.48880(18) -0.0406(4)
C6F C 0.6194(2) 0.5645(2) -0.0332(5)
N6F N 0.75405(19) 0.5287(2) -0.0705(5)
C7F C 0.7175(2) 0.6492(2) -0.2026(5)
H4F H 0.6795 0.6867 -0.2269
C8F C 0.6991(2) 0.5842(2) -0.1007(5)
Cl1G Cl 0.22719(7) 0.65064(7) 0.4772(2)
O1 O 0.0874(2) 0.47262(19) 0.7998(5)
H5 H 0.1397 0.4570 0.8236
H6 H 0.0565 0.4465 0.8786
loop_
_geom_bond_atom_site_label_1
_geom_bond_atom_site_label_2
_geom_bond_site_symmetry_1
_geom_bond_site_symmetry_2
C1 H1 1_555 1_555
C2 C1 1_555 1_555
H2 C2 1_555 1_555
C3 C2 1_555 1_555
H3 C3 1_555 1_555
Hg1 N3 1_555 1_555
C4 C5 1_555 1_555
C5 N5 1_555 1_555
N1 N2 1_555 1_555
N2 N4 1_555 1_555
N3 C4 1_555 1_555
N4 C4 1_555 1_555
N5 C6 1_555 1_555
C6 C8 1_555 1_555
N6 C1 1_555 1_555
C7 C3 1_555 1_555
H4 C7 1_555 1_555
C8 N6 1_555 1_555
O1 H5 1_555 1_555
Cl1 Hg1 1_555 1_555
H6 O1 1_555 1_555
C1F H1F 1_555 1_555
C2F C1F 1_555 1_555
H2F C2F 1_555 1_555
C3F C2F 1_555 1_555
H3F C3F 1_555 1_555
Hg1A N3F 1_555 1_555
C4F C5F 1_555 1_555
C5F C5 1_555 1_555
N1F N2F 1_555 1_555
N2F N4F 1_555 1_555
N3F C4F 1_555 1_555
N3G Hg1 1_555 1_555
N4F C4F 1_555 1_555
N5F C5F 1_555 1_555
C6F C6 1_555 1_555
N6F C1F 1_555 1_555
C7F C3F 1_555 1_555
H4F C7F 1_555 1_555
C8F C6F 1_555 1_555
Cl1G Hg1 1_555 1_555
N1 N3 1_555 1_555
C7 C8 1_555 1_555
N1F N3F 1_555 1_555
N5F C6F 1_555 1_555
N6F C8F 1_555 1_555
C7F C8F 1_555 1_555

#END
