
#######################################################################
#
#                 Cambridge Crystallographic Data Centre
#                                CCDC 
#
#######################################################################
#
# If this CIF has been generated from an entry in the Cambridge 
# Structural Database, then it will include bibliographic, chemical, 
# crystal, experimental, refinement or atomic coordinate data resulting 
# from the CCDC's data processing and validation procedures.
#
#######################################################################

data_FECREK
_symmetry_cell_setting           monoclinic
_symmetry_space_group_name_H-M   'C 2/c'
_symmetry_Int_Tables_number      15
_space_group_name_Hall           '-C 2yn'
loop_
_symmetry_equiv_pos_site_id
_symmetry_equiv_pos_as_xyz
1 x,y,z
2 -x,y,1/2-z
3 1/2+x,1/2+y,z
4 1/2-x,1/2+y,1/2-z
5 -x,-y,-z
6 x,-y,1/2+z
7 1/2-x,1/2-y,-z
8 1/2+x,1/2-y,1/2+z
_cell_length_a                   34.23(2)
_cell_length_b                   3.624(4)
_cell_length_c                   35.48(2)
_cell_angle_alpha                90
_cell_angle_beta                 91.24(4)
_cell_angle_gamma                90
_cell_volume                     4400.25
loop_
_atom_site_label
_atom_site_type_symbol
_atom_site_fract_x
_atom_site_fract_y
_atom_site_fract_z
Na1 Na -0.2500 0.7500 0.5000
Na2 Na -0.3233(1) 0.584(1) 0.4072(1)
Na3 Na -0.4103(1) 0.772(1) 0.3284(1)
Na4 Na -0.5000 -0.051(2) 0.2500
O1 O -0.2072(1) 0.271(2) 0.4856(1)
C1 C -0.1850(2) 0.226(3) 0.4574(2)
N1 N -0.2330(2) 0.456(2) 0.4091(2)
C2 C -0.1956(2) 0.317(3) 0.4185(2)
O2 O -0.2557(2) 0.562(2) 0.4334(2)
O3 O -0.2427(2) 0.480(2) 0.3752(2)
C3 C -0.1691(3) 0.257(3) 0.3898(2)
C4 C -0.1324(3) 0.131(3) 0.3966(3)
C5 C -0.1220(2) 0.037(3) 0.4335(3)
C6 C -0.1465(3) 0.081(3) 0.4626(2)
O4 O -0.4514(2) 0.302(2) 0.3494(1)
C7 C -0.4688(3) 0.258(3) 0.3807(2)
N2 N -0.4166(2) 0.535(2) 0.4217(2)
O5 O -0.3954(2) 0.588(2) 0.3939(2)
O6 O -0.4056(2) 0.637(2) 0.4536(2)
C8 C -0.4539(2) 0.370(3) 0.4171(2)
C9 C -0.4750(3) 0.319(3) 0.4500(2)
C10 C -0.5113(3) 0.167(3) 0.4485(3)
C11 C -0.5270(3) 0.053(3) 0.4139(3)
C12 C -0.5068(3) 0.102(3) 0.3818(2)
O7 O -0.3696(2) 0.244(2) 0.3064(2)
C13 C -0.3540(2) 0.268(3) 0.2740(2)
C14 C -0.3710(2) 0.168(3) 0.2385(2)
N3 N -0.4094(2) 0.019(2) 0.2361(2)
O8 O -0.4284(2) -0.045(2) 0.2648(2)
O9 O -0.4240(2) -0.047(2) 0.2047(2)
C15 C -0.3512(3) 0.204(3) 0.2045(2)
C16 C -0.3145(3) 0.334(3) 0.2043(3)
C17 C -0.2961(3) 0.451(3) 0.2381(3)
C18 C -0.3157(3) 0.418(3) 0.2711(3)
O10 O -0.3325(2) 0.082(2) 0.4496(1)
O11 O -0.3182(2) 0.075(2) 0.3627(1)
O12 O -0.4974(2) 0.462(2) 0.2070(1)
H1 H -0.1776 0.3121 0.3640
H2 H -0.1142 0.1088 0.3764
H3 H -0.0962 -0.0677 0.4386
H4 H -0.1379 0.0060 0.4878
H5 H -0.4640 0.3975 0.4743
H6 H -0.5265 0.1334 0.4707
H7 H -0.5525 -0.0610 0.4129
H8 H -0.5191 0.0222 0.3581
H9 H -0.3640 0.1245 0.1810
H10 H -0.3007 0.3526 0.1807
H11 H -0.2702 0.5544 0.2384
H12 H -0.3029 0.5061 0.2944
H13 H -0.3135 0.1251 0.4747
H14 H -0.3528 0.0000 0.4671
H15 H -0.3458 0.1167 0.3465
H16 H -0.2967 0.1275 0.3393
H17 H -0.4768 0.3785 0.1906
H18 H -0.5158 0.4733 0.1856
O1_2 O -0.2072(1) 1.271(2) 0.4856(1)
C1_2 C -0.1850(2) 1.226(3) 0.4574(2)
N1_2 N -0.2330(2) 1.456(2) 0.4091(2)
C2_2 C -0.1956(2) 1.317(3) 0.4185(2)
O2_2 O -0.2557(2) 1.562(2) 0.4334(2)
O3_2 O -0.2427(2) 1.480(2) 0.3752(2)
C3_2 C -0.1691(3) 1.257(3) 0.3898(2)
C4_2 C -0.1324(3) 1.131(3) 0.3966(3)
C5_2 C -0.1220(2) 1.037(3) 0.4335(3)
C6_2 C -0.1465(3) 1.081(3) 0.4626(2)
H1_2 H -0.1776 1.3121 0.3640
H2_2 H -0.1142 1.1088 0.3764
H3_2 H -0.0962 0.9323 0.4386
H4_2 H -0.1379 1.0060 0.4878
Na2_2 Na -0.3233(1) 1.584(1) 0.4072(1)
O10_2 O -0.3325(2) 1.082(2) 0.4496(1)
H13_2 H -0.3135 1.1251 0.4747
H14_2 H -0.3528 1.0000 0.4671
O11_2 O -0.3182(2) 1.075(2) 0.3627(1)
H15_2 H -0.3458 1.1167 0.3465
H16_2 H -0.2967 1.1275 0.3393
Na3_2 Na -0.4103(1) -0.228(1) 0.3284(1)
O4_2 O -0.4514(2) 1.302(2) 0.3494(1)
C7_2 C -0.4688(3) 1.258(3) 0.3807(2)
N2_2 N -0.4166(2) 1.535(2) 0.4217(2)
O5_2 O -0.3954(2) 1.588(2) 0.3939(2)
O6_2 O -0.4056(2) 1.637(2) 0.4536(2)
C8_2 C -0.4539(2) 1.370(3) 0.4171(2)
C9_2 C -0.4750(3) 1.319(3) 0.4500(2)
C10_2 C -0.5113(3) 1.167(3) 0.4485(3)
C11_2 C -0.5270(3) 1.053(3) 0.4139(3)
C12_2 C -0.5068(3) 1.102(3) 0.3818(2)
H5_2 H -0.4640 1.3975 0.4743
H6_2 H -0.5265 1.1334 0.4707
H7_2 H -0.5525 0.9390 0.4129
H8_2 H -0.5191 1.0222 0.3581
O7_2 O -0.3696(2) 1.244(2) 0.3064(2)
C13_2 C -0.3540(2) 1.268(3) 0.2740(2)
C14_2 C -0.3710(2) 1.168(3) 0.2385(2)
N3_2 N -0.4094(2) 1.019(2) 0.2361(2)
O8_2 O -0.4284(2) 0.955(2) 0.2648(2)
O9_2 O -0.4240(2) 0.953(2) 0.2047(2)
C15_2 C -0.3512(3) 1.204(3) 0.2045(2)
C16_2 C -0.3145(3) 1.334(3) 0.2043(3)
C17_2 C -0.2961(3) 1.451(3) 0.2381(3)
C18_2 C -0.3157(3) 1.418(3) 0.2711(3)
H9_2 H -0.3640 1.1245 0.1810
H10_2 H -0.3007 1.3526 0.1807
H11_2 H -0.2702 1.5544 0.2384
H12_2 H -0.3029 1.5061 0.2944
O12_2 O -0.4974(2) -0.538(2) 0.2070(1)
H17_2 H -0.4768 -0.6215 0.1906
H18_2 H -0.5158 -0.5267 0.1856
O1F O -0.2928(1) 0.229(2) 0.5144(1)
O1F_2 O -0.2928(1) 1.229(2) 0.5144(1)
O2F O -0.2443(2) 0.938(2) 0.5666(2)
O8A O -0.5716(2) -0.045(2) 0.2352(2)
O12A O -0.5026(2) -0.538(2) 0.2930(1)
O12A_2 O -0.5026(2) 0.462(2) 0.2930(1)
Na1_2 Na -0.2500 -0.2500 0.5000
Na2_3 Na -0.3233(1) -0.416(1) 0.4072(1)
Na4_2 Na -0.5000 -1.051(2) 0.2500
Na1_3 Na -0.2500 1.7500 0.5000
O10_3 O -0.3325(2) 2.082(2) 0.4496(1)
O11_3 O -0.3182(2) 2.075(2) 0.3627(1)
O4_3 O -0.4514(2) -0.698(2) 0.3494(1)
O5_3 O -0.3954(2) -0.412(2) 0.3939(2)
O7_3 O -0.3696(2) -0.756(2) 0.3064(2)
Na3_3 Na -0.4103(1) 1.772(1) 0.3284(1)
Na4_3 Na -0.5000 0.949(2) 0.2500
H17A H -0.5232 -0.6215 0.3094
H18A H -0.4842 -0.5267 0.3144
H17A_2 H -0.5232 0.3785 0.3094
H18A_2 H -0.4842 0.4733 0.3144
H13_3 H -0.3135 2.1251 0.4747
H14_3 H -0.3528 2.0000 0.4671
H15_3 H -0.3458 2.1167 0.3465
H16_3 H -0.2967 2.1275 0.3393
loop_
_geom_bond_atom_site_label_1
_geom_bond_atom_site_label_2
_geom_bond_site_symmetry_1
_geom_bond_site_symmetry_2
Na1 O1 1_555 1_555
Na2 O2 1_555 1_555
Na3 O4 1_555 1_555
Na4 O8 1_555 1_555
O1 C1 1_555 1_555
C1 C2 1_555 1_555
N1 C2 1_555 1_555
C2 C3 1_555 1_555
O2 Na1 1_555 1_555
O3 N1 1_555 1_555
C3 C4 1_555 1_555
C4 C5 1_555 1_555
C5 C6 1_555 1_555
C6 C1 1_555 1_555
O4 C7 1_555 1_555
C7 C8 1_555 1_555
N2 O5 1_555 1_555
O5 Na2 1_555 1_555
O6 N2 1_555 1_555
C8 N2 1_555 1_555
C9 C8 1_555 1_555
C10 C9 1_555 1_555
C11 C10 1_555 1_555
C12 C7 1_555 1_555
O7 Na3 1_555 1_555
C13 O7 1_555 1_555
C14 C13 1_555 1_555
N3 C14 1_555 1_555
O8 N3 1_555 1_555
O9 N3 1_555 1_555
C15 C14 1_555 1_555
C16 C15 1_555 1_555
C17 C16 1_555 1_555
C18 C13 1_555 1_555
O10 Na2 1_555 1_555
O11 Na2 1_555 1_555
O12 Na4 1_555 1_555
H1 C3 1_555 1_555
H2 C4 1_555 1_555
H3 C5 1_555 1_555
H4 C6 1_555 1_555
H5 C9 1_555 1_555
H6 C10 1_555 1_555
H7 C11 1_555 1_555
H8 C12 1_555 1_555
H9 C15 1_555 1_555
H10 C16 1_555 1_555
H11 C17 1_555 1_555
H12 C18 1_555 1_555
H13 O10 1_555 1_555
H14 O10 1_555 1_555
H15 O11 1_555 1_555
H16 O11 1_555 1_555
H17 O12 1_555 1_555
H18 O12 1_555 1_555
O1_2 Na1 1_555 1_555
C1_2 O1_2 1_555 1_555
N1_2 C2_2 1_555 1_555
C2_2 C1_2 1_555 1_555
O2_2 N1_2 1_555 1_555
O3_2 N1_2 1_555 1_555
C3_2 C2_2 1_555 1_555
C4_2 C3_2 1_555 1_555
C5_2 C4_2 1_555 1_555
C6_2 C1_2 1_555 1_555
H1_2 C3_2 1_555 1_555
H2_2 C4_2 1_555 1_555
H3_2 C5_2 1_555 1_555
H4_2 C6_2 1_555 1_555
Na2_2 O2_2 1_555 1_555
O10_2 Na2 1_555 1_555
H13_2 O10_2 1_555 1_555
H14_2 O10_2 1_555 1_555
O11_2 Na2 1_555 1_555
H15_2 O11_2 1_555 1_555
H16_2 O11_2 1_555 1_555
Na3_2 O4 1_555 1_555
O4_2 Na3 1_555 1_555
C7_2 O4_2 1_555 1_555
N2_2 O5_2 1_555 1_555
O5_2 Na2_2 1_555 1_555
O6_2 N2_2 1_555 1_555
C8_2 C7_2 1_555 1_555
C9_2 C8_2 1_555 1_555
C10_2 C9_2 1_555 1_555
C11_2 C10_2 1_555 1_555
C12_2 C7_2 1_555 1_555
H5_2 C9_2 1_555 1_555
H6_2 C10_2 1_555 1_555
H7_2 C11_2 1_555 1_555
H8_2 C12_2 1_555 1_555
O7_2 Na3 1_555 1_555
C13_2 O7_2 1_555 1_555
C14_2 C13_2 1_555 1_555
N3_2 C14_2 1_555 1_555
O8_2 Na3 1_555 1_555
O9_2 N3_2 1_555 1_555
C15_2 C14_2 1_555 1_555
C16_2 C15_2 1_555 1_555
C17_2 C16_2 1_555 1_555
C18_2 C13_2 1_555 1_555
H9_2 C15_2 1_555 1_555
H10_2 C16_2 1_555 1_555
H11_2 C17_2 1_555 1_555
H12_2 C18_2 1_555 1_555
O12_2 Na4 1_555 1_555
H17_2 O12_2 1_555 1_555
H18_2 O12_2 1_555 1_555
O1F Na1 1_555 1_555
O1F_2 Na1 1_555 1_555
O2F Na1 1_555 1_555
O8A Na4 1_555 1_555
O12A Na4 1_555 1_555
O12A_2 Na4 1_555 1_555
Na1_2 O1 1_555 1_555
Na2_3 O10 1_555 1_555
Na4_2 O12_2 1_555 1_555
Na1_3 O1_2 1_555 1_555
O10_3 Na2_2 1_555 1_555
O11_3 Na2_2 1_555 1_555
O4_3 Na3_2 1_555 1_555
O5_3 Na3_2 1_555 1_555
O7_3 Na3_2 1_555 1_555
Na3_3 O4_2 1_555 1_555
Na4_3 O12 1_555 1_555
H17A O12A 1_555 1_555
H18A O12A 1_555 1_555
H17A_2 O12A_2 1_555 1_555
H18A_2 O12A_2 1_555 1_555
H13_3 O10_3 1_555 1_555
H14_3 O10_3 1_555 1_555
H15_3 O11_3 1_555 1_555
H16_3 O11_3 1_555 1_555
Na3 O5 1_555 1_555
N1 O2 1_555 1_555
C11 C12 1_555 1_555
O7 Na3_2 1_555 1_555
O8 Na3_2 1_555 1_555
C17 C18 1_555 1_555
O11 Na2_3 1_555 1_555
O2_2 Na1_3 1_555 1_555
C5_2 C6_2 1_555 1_555
Na2_2 O10_2 1_555 1_555
Na2_2 O11_2 1_555 1_555
N2_2 C8_2 1_555 1_555
O5_2 Na3_3 1_555 1_555
C11_2 C12_2 1_555 1_555
O7_2 Na3_3 1_555 1_555
N3_2 O8_2 1_555 1_555
O8_2 Na4_3 1_555 1_555
C17_2 C18_2 1_555 1_555
O1F Na1_2 1_555 1_555
O1F_2 Na1_3 1_555 1_555
O12A Na4_2 1_555 1_555
O12A_2 Na4_3 1_555 1_555
Na2_3 O5_3 1_555 1_555

#END
