
#######################################################################
#
#                 Cambridge Crystallographic Data Centre
#                                CCDC 
#
#######################################################################
#
# If this CIF has been generated from an entry in the Cambridge 
# Structural Database, then it will include bibliographic, chemical, 
# crystal, experimental, refinement or atomic coordinate data resulting 
# from the CCDC's data processing and validation procedures.
#
#######################################################################

data_FECVEO
_symmetry_cell_setting           monoclinic
_symmetry_space_group_name_H-M   'C 2/c'
_symmetry_Int_Tables_number      15
_space_group_name_Hall           '-C 2yn'
loop_
_symmetry_equiv_pos_site_id
_symmetry_equiv_pos_as_xyz
1 x,y,z
2 -x,y,1/2-z
3 1/2+x,1/2+y,z
4 1/2-x,1/2+y,1/2-z
5 -x,-y,-z
6 x,-y,1/2+z
7 1/2-x,1/2-y,-z
8 1/2+x,1/2-y,1/2+z
_cell_length_a                   25.269(9)
_cell_length_b                   5.381(5)
_cell_length_c                   12.010(3)
_cell_angle_alpha                90
_cell_angle_beta                 105.35(3)
_cell_angle_gamma                90
_cell_volume                     1574.77
loop_
_atom_site_label
_atom_site_type_symbol
_atom_site_fract_x
_atom_site_fract_y
_atom_site_fract_z
Rb1 Rb 0.04457(2) -0.18758(9) -0.07820(4)
O1 O 0.0565(1) -0.0780(7) 0.1666(3)
C1 C 0.1044(2) -0.0134(9) 0.2211(4)
C2 C 0.1343(2) 0.191(1) 0.1942(4)
N1 N 0.1115(2) 0.3468(8) 0.0979(4)
O2 O 0.0638(1) 0.3182(7) 0.0390(3)
O3 O 0.1396(2) 0.5146(7) 0.0722(3)
C3 C 0.1877(2) 0.251(1) 0.2611(6)
C4 C 0.2125(3) 0.119(1) 0.3539(5)
C5 C 0.1845(3) -0.085(1) 0.3847(5)
C6 C 0.1338(2) -0.147(1) 0.3214(5)
O4 O 0.00000 -0.560(1) -0.2500
H1 H 0.200(2) 0.38(1) 0.231(4)
H2 H 0.255(2) 0.126(8) 0.397(4)
H3 H 0.203(2) -0.19(1) 0.450(5)
H4 H 0.109(2) -0.291(9) 0.337(4)
H5 H 0.030(4) -0.62(2) -0.22(1)
H5A H -0.030(4) -0.62(2) -0.28(1)
O1D O -0.0565(1) 0.0780(7) -0.1666(3)
C1D C -0.1044(2) 0.0134(9) -0.2211(4)
C2D C -0.1343(2) -0.191(1) -0.1942(4)
N1D N -0.1115(2) -0.3468(8) -0.0979(4)
O2D O -0.0638(1) -0.3182(7) -0.0390(3)
O3D O -0.1396(2) -0.5146(7) -0.0722(3)
C3D C -0.1877(2) -0.251(1) -0.2611(6)
C4D C -0.2125(3) -0.119(1) -0.3539(5)
C5D C -0.1845(3) 0.085(1) -0.3847(5)
C6D C -0.1338(2) 0.147(1) -0.3214(5)
H1D H -0.200(2) -0.38(1) -0.231(4)
H2D H -0.255(2) -0.126(8) -0.397(4)
H3D H -0.203(2) 0.19(1) -0.450(5)
H4D H -0.109(2) 0.291(9) -0.337(4)
N1_2 N 0.1115(2) -0.6532(8) 0.0979(4)
O2_2 O 0.0638(1) -0.6818(7) 0.0390(3)
O3_2 O 0.1396(2) -0.4854(7) 0.0722(3)
Rb1D Rb -0.04457(2) 0.18758(9) 0.07820(4)
Rb1D_2 Rb -0.04457(2) -0.81242(9) 0.07820(4)
Rb1_2 Rb 0.04457(2) 0.81242(9) -0.07820(4)
Rb1A Rb -0.04457(2) -0.18758(9) -0.42180(4)
N1D_2 N -0.1115(2) 0.6532(8) -0.0979(4)
O2D_2 O -0.0638(1) 0.6818(7) -0.0390(3)
O3D_2 O -0.1396(2) 0.4854(7) -0.0722(3)
O4D O 0.00000 0.560(1) 0.2500
H5D H -0.030(4) 0.62(2) 0.22(1)
H5E H 0.030(4) 0.62(2) 0.28(1)
loop_
_geom_bond_atom_site_label_1
_geom_bond_atom_site_label_2
_geom_bond_site_symmetry_1
_geom_bond_site_symmetry_2
Rb1 O1 1_555 1_555
O1 C1 1_555 1_555
C1 C2 1_555 1_555
C2 N1 1_555 1_555
N1 O2 1_555 1_555
O2 Rb1 1_555 1_555
O3 N1 1_555 1_555
C3 C2 1_555 1_555
C4 C3 1_555 1_555
C5 C4 1_555 1_555
C6 C1 1_555 1_555
O4 Rb1 1_555 1_555
H1 C3 1_555 1_555
H2 C4 1_555 1_555
H3 C5 1_555 1_555
H4 C6 1_555 1_555
H5 O4 1_555 1_555
H5A O4 1_555 1_555
O1D Rb1 1_555 1_555
C1D O1D 1_555 1_555
C2D C1D 1_555 1_555
N1D C2D 1_555 1_555
O2D Rb1 1_555 1_555
O3D N1D 1_555 1_555
C3D C2D 1_555 1_555
C4D C3D 1_555 1_555
C5D C4D 1_555 1_555
C6D C1D 1_555 1_555
H1D C3D 1_555 1_555
H2D C4D 1_555 1_555
H3D C5D 1_555 1_555
H4D C6D 1_555 1_555
N1_2 O2_2 1_555 1_555
O2_2 Rb1 1_555 1_555
O3_2 Rb1 1_555 1_555
Rb1D O1 1_555 1_555
Rb1D_2 O2D 1_555 1_555
Rb1_2 O2 1_555 1_555
Rb1A O4 1_555 1_555
N1D_2 O2D_2 1_555 1_555
O2D_2 Rb1D 1_555 1_555
O3D_2 Rb1D 1_555 1_555
O4D Rb1D 1_555 1_555
H5D O4D 1_555 1_555
H5E O4D 1_555 1_555
O2 Rb1D 1_555 1_555
O3 Rb1_2 1_555 1_555
C5 C6 1_555 1_555
O1D Rb1D 1_555 1_555
N1D O2D 1_555 1_555
O2D Rb1D 1_555 1_555
O3D Rb1D_2 1_555 1_555
C5D C6D 1_555 1_555
N1_2 O3_2 1_555 1_555
O2_2 Rb1D_2 1_555 1_555
Rb1_2 O2D_2 1_555 1_555
N1D_2 O3D_2 1_555 1_555

#END
