
#######################################################################
#
#                 Cambridge Crystallographic Data Centre
#                                CCDC 
#
#######################################################################
#
# If this CIF has been generated from an entry in the Cambridge 
# Structural Database, then it will include bibliographic, chemical, 
# crystal, experimental, refinement or atomic coordinate data resulting 
# from the CCDC's data processing and validation procedures.
#
#######################################################################

data_FECWOB
_symmetry_cell_setting           monoclinic
_symmetry_space_group_name_H-M   'C 2/c'
_symmetry_Int_Tables_number      15
_space_group_name_Hall           '-C 2yn'
loop_
_symmetry_equiv_pos_site_id
_symmetry_equiv_pos_as_xyz
1 x,y,z
2 -x,y,1/2-z
3 1/2+x,1/2+y,z
4 1/2-x,1/2+y,1/2-z
5 -x,-y,-z
6 x,-y,1/2+z
7 1/2-x,1/2-y,-z
8 1/2+x,1/2-y,1/2+z
_cell_length_a                   10.073(5)
_cell_length_b                   34.113(17)
_cell_length_c                   6.791(3)
_cell_angle_alpha                90
_cell_angle_beta                 113.866(7)
_cell_angle_gamma                90
_cell_volume                     2134
loop_
_atom_site_label
_atom_site_type_symbol
_atom_site_fract_x
_atom_site_fract_y
_atom_site_fract_z
Zn1 Zn 1.32625(15) -0.62502(3) 1.03558(17)
O1 O 1.3772(10) -0.5750(2) 1.1825(12)
N1 N 1.5686(11) -0.3678(2) 1.1624(13)
C1 C 1.5000 -0.5585(4) 1.2500
O2 O 1.3809(10) -0.6732(2) 1.1989(12)
N2 N 1.5422(12) -0.3302(2) 1.1984(14)
C2 C 1.5000 -0.5141(4) 1.2500
C3 C 1.3718(14) -0.4943(3) 1.1891(15)
H1 H 1.2832 -0.5085 1.1447
N3 N 1.3843(13) -0.8807(3) 1.146(2)
C4 C 1.3696(14) -0.4537(3) 1.1913(15)
H2 H 1.2807 -0.4399 1.1535
N4 N 1.4348(14) -0.9175(3) 1.181(2)
C5 C 1.5000 -0.4334(4) 1.2500
C6 C 1.5000 -0.3910(4) 1.2500
C7 C 1.5000 -0.6898(4) 1.2500
C8 C 1.5000 -0.7338(4) 1.2500
C9 C 1.6205(15) -0.7538(3) 1.2430(17)
H3 H 1.7014 -0.7405 1.2437
C10 C 1.6196(15) -0.7954(3) 1.2431(17)
H4 H 1.6945 -0.8095 1.2360
C11 C 1.5000 -0.8587(5) 1.2500
C12 C 1.5000 -0.8148(4) 1.2500
Zn1A Zn 1.67375(15) -0.62502(3) 1.46442(17)
Zn1D Zn 1.67375(15) -0.37498(3) 0.96442(17)
Zn1F Zn 1.17375(15) -0.87498(3) 0.96442(17)
Zn1E Zn 1.32625(15) -0.37498(3) 1.53558(17)
Zn1G Zn 1.82625(15) -0.87498(3) 1.53558(17)
O1A O 1.6228(10) -0.5750(2) 1.3175(12)
N1A N 1.4314(11) -0.3678(2) 1.3376(13)
N1D N 1.4314(11) -0.6322(2) 0.8376(13)
N1E N 1.5686(11) -0.6322(2) 1.6624(13)
O2A O 1.6191(10) -0.6732(2) 1.3011(12)
N2A N 1.4578(12) -0.3302(2) 1.3016(14)
C3A C 1.6282(14) -0.4943(3) 1.3109(15)
H1A H 1.7168 -0.5085 1.3553
N3A N 1.6157(13) -0.8807(3) 1.354(2)
N3F N 1.1157(13) -0.6193(3) 0.854(2)
N3G N 1.8843(13) -0.6193(3) 1.646(2)
C4A C 1.6304(14) -0.4537(3) 1.3087(15)
H2A H 1.7193 -0.4399 1.3465
N4A N 1.5652(14) -0.9175(3) 1.319(2)
C9A C 1.3795(15) -0.7538(3) 1.2570(17)
H3A H 1.2986 -0.7405 1.2563
C10A C 1.3804(15) -0.7954(3) 1.2569(17)
H4A H 1.3055 -0.8095 1.2640
loop_
_geom_bond_atom_site_label_1
_geom_bond_atom_site_label_2
_geom_bond_site_symmetry_1
_geom_bond_site_symmetry_2
Zn1 O1 1_555 1_555
O1 C1 1_555 1_555
N1 N2 1_555 1_555
C1 C2 1_555 1_555
O2 Zn1 1_555 1_555
N2 N2A 1_555 1_555
C2 C3 1_555 1_555
C3 H1 1_555 1_555
N3 N4 1_555 1_555
C4 C3 1_555 1_555
H2 C4 1_555 1_555
N4 N4A 1_555 1_555
C5 C4 1_555 1_555
C6 N1 1_555 1_555
C7 O2 1_555 1_555
C8 C7 1_555 1_555
C9 C8 1_555 1_555
H3 C9 1_555 1_555
C10 C9 1_555 1_555
H4 C10 1_555 1_555
C11 N3 1_555 1_555
C12 C10 1_555 1_555
Zn1A O1A 1_555 1_555
Zn1D N1 1_555 1_555
Zn1F N3 1_555 1_555
Zn1E N1A 1_555 1_555
Zn1G N3A 1_555 1_555
O1A C1 1_555 1_555
N1A C6 1_555 1_555
N1D Zn1 1_555 1_555
N1E Zn1A 1_555 1_555
O2A C7 1_555 1_555
N2A N1A 1_555 1_555
C3A C2 1_555 1_555
H1A C3A 1_555 1_555
N3A C11 1_555 1_555
N3F Zn1 1_555 1_555
N3G Zn1A 1_555 1_555
C4A C5 1_555 1_555
H2A C4A 1_555 1_555
N4A N3A 1_555 1_555
C9A C8 1_555 1_555
H3A C9A 1_555 1_555
C10A C12 1_555 1_555
H4A C10A 1_555 1_555
C5 C6 1_555 1_555
C11 C12 1_555 1_555
Zn1A O2A 1_555 1_555
C3A C4A 1_555 1_555
C9A C10A 1_555 1_555

#END
