
#######################################################################
#
#                 Cambridge Crystallographic Data Centre
#                                CCDC 
#
#######################################################################
#
# If this CIF has been generated from an entry in the Cambridge 
# Structural Database, then it will include bibliographic, chemical, 
# crystal, experimental, refinement or atomic coordinate data resulting 
# from the CCDC's data processing and validation procedures.
#
#######################################################################

data_FECYAP
_symmetry_cell_setting           monoclinic
_symmetry_space_group_name_H-M   'C 2/c'
_symmetry_Int_Tables_number      15
_space_group_name_Hall           '-C 2yn'
loop_
_symmetry_equiv_pos_site_id
_symmetry_equiv_pos_as_xyz
1 x,y,z
2 -x,y,1/2-z
3 1/2+x,1/2+y,z
4 1/2-x,1/2+y,1/2-z
5 -x,-y,-z
6 x,-y,1/2+z
7 1/2-x,1/2-y,-z
8 1/2+x,1/2-y,1/2+z
_cell_length_a                   31.748(1)
_cell_length_b                   9.875(1)
_cell_length_c                   7.028(2)
_cell_angle_alpha                90
_cell_angle_beta                 91.53(4)
_cell_angle_gamma                90
_cell_volume                     2202.57
loop_
_atom_site_label
_atom_site_type_symbol
_atom_site_fract_x
_atom_site_fract_y
_atom_site_fract_z
V1 V 0.0000 1.0000 0.5000
C1 C 0.1013 0.5893 0.8223
C2 C 0.1398 0.5166 0.7871
C3 C 0.0639 0.5136 0.8492
H1 H 0.0389 0.5586 0.8752
C4 C 0.1388 0.3731 0.7788
H2 H 0.1634 0.3253 0.7577
C5 C 0.0641 0.3746 0.8374
H3 H 0.0392 0.3265 0.8531
C6 C 0.1018 0.3042 0.8015
H4 H 0.1015 0.2102 0.7932
C7 C 0.1388 0.8056 0.7720
C8 C 0.1774 0.7293 0.7440
C9 C 0.1018 0.7322 0.8177
C10 C 0.1768 0.5878 0.7538
H5 H 0.2017 0.5400 0.7379
C11 C 0.1752 1.0114 0.6919
H6 H 0.1747 1.1042 0.6705
C12 C 0.2133 0.9392 0.6709
H7 H 0.2377 0.9853 0.6396
C13 C 0.1390 0.9459 0.7437
H8 H 0.1144 0.9953 0.7600
C14 C 0.2144 0.8010 0.6966
H9 H 0.2396 0.7544 0.6827
C15 C 0.0596 0.8057 0.8268
O1 O 0.0422(11) 0.8534(6) 0.6341(12)
O2 O 0.0379(17) 0.8285(7) 0.9828(17)
O3 O 0.0000 1.0000 0.2500
V1A V 0.0000 1.0000 1.0000
V1A_2 V 0.0000 1.0000 0.0000
C1D C -0.1013 1.4107 0.1777
C2D C -0.1398 1.4834 0.2129
C3D C -0.0639 1.4864 0.1508
H1D H -0.0389 1.4414 0.1248
C4D C -0.1388 1.6269 0.2212
H2D H -0.1634 1.6747 0.2423
C5D C -0.0641 1.6254 0.1626
H3D H -0.0392 1.6735 0.1469
C6D C -0.1018 1.6958 0.1985
H4D H -0.1015 1.7898 0.2068
C7D C -0.1388 1.1944 0.2280
C8D C -0.1774 1.2707 0.2560
C9D C -0.1018 1.2678 0.1823
C10D C -0.1768 1.4122 0.2462
H5D H -0.2017 1.4600 0.2621
C11D C -0.1752 0.9886 0.3081
H6D H -0.1747 0.8958 0.3295
C12D C -0.2133 1.0608 0.3291
H7D H -0.2377 1.0147 0.3604
C13D C -0.1390 1.0541 0.2563
H8D H -0.1144 1.0047 0.2400
C14D C -0.2144 1.1990 0.3034
H9D H -0.2396 1.2456 0.3173
C15D C -0.0596 1.1943 0.1732
O1D O -0.0422(11) 1.1466(6) 0.3659(12)
O2D O -0.0379(17) 1.1715(7) 0.0172(17)
O2A O -0.0379(17) 0.8285(7) 0.5172(17)
O2E O 0.0379(17) 1.1715(7) 0.4828(17)
O3D O 0.0000 1.0000 0.7500
loop_
_geom_bond_atom_site_label_1
_geom_bond_atom_site_label_2
_geom_bond_site_symmetry_1
_geom_bond_site_symmetry_2
V1 O1 1_555 1_555
C1 C2 1_555 1_555
C2 C4 1_555 1_555
C3 C1 1_555 1_555
H1 C3 1_555 1_555
C4 H2 1_555 1_555
C5 C3 1_555 1_555
H3 C5 1_555 1_555
C6 C4 1_555 1_555
H4 C6 1_555 1_555
C7 C8 1_555 1_555
C8 C10 1_555 1_555
C9 C1 1_555 1_555
C10 C2 1_555 1_555
H5 C10 1_555 1_555
C11 H6 1_555 1_555
C12 C11 1_555 1_555
H7 C12 1_555 1_555
C13 C7 1_555 1_555
H8 C13 1_555 1_555
C14 C8 1_555 1_555
H9 C14 1_555 1_555
C15 C9 1_555 1_555
O1 C15 1_555 1_555
O2 C15 1_555 1_555
O3 V1 1_555 1_555
V1A O2 1_555 1_555
V1A_2 O3 1_555 1_555
C1D C2D 1_555 1_555
C2D C4D 1_555 1_555
C3D C1D 1_555 1_555
H1D C3D 1_555 1_555
C4D H2D 1_555 1_555
C5D C3D 1_555 1_555
H3D C5D 1_555 1_555
C6D C4D 1_555 1_555
H4D C6D 1_555 1_555
C7D C8D 1_555 1_555
C8D C10D 1_555 1_555
C9D C1D 1_555 1_555
C10D C2D 1_555 1_555
H5D C10D 1_555 1_555
C11D H6D 1_555 1_555
C12D C11D 1_555 1_555
H7D C12D 1_555 1_555
C13D C7D 1_555 1_555
H8D C13D 1_555 1_555
C14D C8D 1_555 1_555
H9D C14D 1_555 1_555
C15D C9D 1_555 1_555
O1D V1 1_555 1_555
O2D V1A_2 1_555 1_555
O2A V1 1_555 1_555
O2E V1 1_555 1_555
O3D V1 1_555 1_555
C5 C6 1_555 1_555
C7 C9 1_555 1_555
C11 C13 1_555 1_555
C12 C14 1_555 1_555
V1A O3D 1_555 1_555
C5D C6D 1_555 1_555
C7D C9D 1_555 1_555
C11D C13D 1_555 1_555
C12D C14D 1_555 1_555
C15D O1D 1_555 1_555
C15D O2D 1_555 1_555

#END
