
#######################################################################
#
#                 Cambridge Crystallographic Data Centre
#                                CCDC 
#
#######################################################################
#
# If this CIF has been generated from an entry in the Cambridge 
# Structural Database, then it will include bibliographic, chemical, 
# crystal, experimental, refinement or atomic coordinate data resulting 
# from the CCDC's data processing and validation procedures.
#
#######################################################################

data_FECYET
_symmetry_cell_setting           orthorhombic
_symmetry_space_group_name_H-M   'P 21 c n'
_symmetry_Int_Tables_number      33
_space_group_name_Hall           'P -2n 2a'
loop_
_symmetry_equiv_pos_site_id
_symmetry_equiv_pos_as_xyz
1 x,y,z
2 1/2+x,-y,-z
3 x,1/2-y,1/2+z
4 1/2+x,1/2+y,1/2-z
_cell_length_a                   10.0875(15)
_cell_length_b                   25.410(4)
_cell_length_c                   6.831(2)
_cell_angle_alpha                90
_cell_angle_beta                 90
_cell_angle_gamma                90
_cell_volume                     1750.94
loop_
_atom_site_label
_atom_site_type_symbol
_atom_site_fract_x
_atom_site_fract_y
_atom_site_fract_z
V1 V 0.2896(7) -0.2387(3) -0.044(1)
O1 O 0.229(2) -0.2420(13) 0.2010(14)
O2 O 0.4602(12) -0.2631(7) 0.0278(16)
O3 O 0.5211(18) -0.2831(7) -0.2683(18)
O4 O 0.0979(11) -0.1563(10) -0.209(8)
O5 O 0.3093(12) -0.1773(8) -0.128(7)
C1 C 0.6953 -0.3308 -0.2388
C2 C 0.8319 -0.3402 -0.1838
C3 C 0.6679 -0.3106 -0.4253
C4 C 0.9351 -0.3239 -0.3095
C5 C 0.7721 -0.2951 -0.5456
C6 C 0.9054 -0.3007 -0.4872
C7 C 0.6263 -0.3604 0.0846
C8 C 0.7563 -0.3767 0.1243
C9 C 0.5947 -0.3369 -0.0946
C10 C 0.8595 -0.3638 -0.0020
C11 C 0.4678 -0.3039 -0.1051
C12 C 0.3430 -0.0540 -0.2967
C13 C 0.3841 -0.0019 -0.2418
C14 C 0.3772 -0.0724 -0.4841
C15 C 0.4673 0.0270 -0.3701
C16 C 0.4559 -0.0425 -0.6076
C17 C 0.5032 0.0071 -0.5494
C18 C 0.2279 -0.0623 0.0130
C19 C 0.2594 -0.0097 0.0586
C20 C 0.2687 -0.0846 -0.1611
C21 C 0.3394 0.0196 -0.0639
C22 C 0.2257 -0.1410 -0.2044
H1 H 0.5653 -0.3058 -0.4716
H2 H 1.0385 -0.3277 -0.2629
H3 H 0.7492 -0.2781 -0.6858
H4 H 0.9865 -0.2877 -0.5797
H5 H 0.5503 -0.3621 0.1965
H6 H 0.7794 -0.3950 0.2624
H7 H 0.9622 -0.3688 0.0442
H8 H 0.3402 -0.1104 -0.5321
H9 H 0.5026 0.0653 -0.3239
H10 H 0.4814 -0.0578 -0.7497
H11 H 0.5652 0.0303 -0.6463
H12 H 0.1713 -0.0860 0.1150
H13 H 0.2234 0.0071 0.1936
H14 H 0.3690 0.0595 -0.0259
V1B V 0.2896(7) -0.2613(3) 0.456(1)
O1B O 0.229(2) -0.2580(13) -0.2990(14)
loop_
_geom_bond_atom_site_label_1
_geom_bond_atom_site_label_2
_geom_bond_site_symmetry_1
_geom_bond_site_symmetry_2
V1 O1 1_555 1_555
O1 V1B 1_555 1_555
O2 V1 1_555 1_555
O3 C11 1_555 1_555
O4 C22 1_555 1_555
O5 V1 1_555 1_555
C1 C2 1_555 1_555
C2 C4 1_555 1_555
C3 C1 1_555 1_555
C4 C6 1_555 1_555
C5 C3 1_555 1_555
C6 C5 1_555 1_555
C7 C8 1_555 1_555
C8 C10 1_555 1_555
C9 C1 1_555 1_555
C10 C2 1_555 1_555
C11 O2 1_555 1_555
C12 C13 1_555 1_555
C13 C15 1_555 1_555
C14 C12 1_555 1_555
C15 C17 1_555 1_555
C16 C14 1_555 1_555
C17 C16 1_555 1_555
C18 C19 1_555 1_555
C19 C21 1_555 1_555
C20 C12 1_555 1_555
C21 C13 1_555 1_555
C22 O5 1_555 1_555
H1 C3 1_555 1_555
H2 C4 1_555 1_555
H3 C5 1_555 1_555
H4 C6 1_555 1_555
H5 C7 1_555 1_555
H6 C8 1_555 1_555
H7 C10 1_555 1_555
H8 C14 1_555 1_555
H9 C15 1_555 1_555
H10 C16 1_555 1_555
H11 C17 1_555 1_555
H12 C18 1_555 1_555
H13 C19 1_555 1_555
H14 C21 1_555 1_555
O1B V1 1_555 1_555
C7 C9 1_555 1_555
C9 C11 1_555 1_555
C18 C20 1_555 1_555
C20 C22 1_555 1_555

#END
