
#######################################################################
#
#                 Cambridge Crystallographic Data Centre
#                                CCDC 
#
#######################################################################
#
# If this CIF has been generated from an entry in the Cambridge 
# Structural Database, then it will include bibliographic, chemical, 
# crystal, experimental, refinement or atomic coordinate data resulting 
# from the CCDC's data processing and validation procedures.
#
#######################################################################

data_FEDBIB
_symmetry_cell_setting           orthorhombic
_symmetry_space_group_name_H-M   'C c c a'
_symmetry_Int_Tables_number      68
_space_group_name_Hall           '-C 2a 2ac'
loop_
_symmetry_equiv_pos_site_id
_symmetry_equiv_pos_as_xyz
1 x,y,z
2 -x,1/2-y,z
3 x,1/2-y,1/2-z
4 -x,y,1/2-z
5 1/2+x,1/2+y,z
6 1/2-x,-y,z
7 1/2+x,-y,1/2-z
8 1/2-x,1/2+y,1/2-z
9 -x,-y,-z
10 x,1/2+y,-z
11 -x,1/2+y,1/2+z
12 x,-y,1/2+z
13 1/2-x,1/2-y,-z
14 1/2+x,y,-z
15 1/2-x,y,1/2+z
16 1/2+x,1/2-y,1/2+z
_cell_length_a                   19.348(18)
_cell_length_b                   31.17(3)
_cell_length_c                   9.522(8)
_cell_angle_alpha                90
_cell_angle_beta                 90
_cell_angle_gamma                90
_cell_volume                     5742.5
loop_
_atom_site_label
_atom_site_type_symbol
_atom_site_fract_x
_atom_site_fract_y
_atom_site_fract_z
Cd1 Cd 0.5000 0.7500 0.2500
O1 O 0.4124(2) 0.75008(12) 0.4549(7)
O3 O 0.43886(18) 0.69174(13) 0.3421(4)
N1 N 0.11890(19) 0.61890(12) 0.5263(4)
C1 C 0.4041(2) 0.71120(17) 0.4309(6)
C2 C 0.3487(2) 0.68695(15) 0.5092(5)
C3 C 0.2968(3) 0.70863(16) 0.5797(6)
H1 H 0.3008 0.7380 0.5940
C4 C 0.3455(2) 0.64249(15) 0.5016(5)
H2 H 0.3821 0.6273 0.4626
C5 C 0.2394(3) 0.68731(17) 0.6292(6)
H3 H 0.2044 0.7024 0.6743
C6 C 0.2886(2) 0.62073(15) 0.5513(5)
H4 H 0.2869 0.5910 0.5445
C7 C 0.2339(2) 0.64277(16) 0.6112(5)
C8 C 0.1677(3) 0.61925(18) 0.6495(5)
H5 H 0.1785 0.5900 0.6766
H6 H 0.1458 0.6333 0.7287
C9 C 0.0830(3) 0.65385(19) 0.4972(7)
H7 H 0.0893 0.6785 0.5510
C10 C 0.1108(3) 0.58470(17) 0.4489(7)
H8 H 0.1375 0.5605 0.4676
C11 C 0.0372(4) 0.65411(18) 0.3896(7)
H9 H 0.0127 0.6791 0.3703
C12 C 0.0642(3) 0.58350(15) 0.3408(7)
H10 H 0.0587 0.5584 0.2892
C13 C 0.0259(2) 0.61847(13) 0.3084(5)
Cd1_2 Cd -0.5000 0.7500 0.2500
Cd1_3 Cd 1.5000 0.7500 0.2500
O1C O -0.4124(2) 0.75008(12) 0.0451(7)
O1A O 0.5876(2) 0.74992(12) 0.4549(7)
O1B O 1.4124(2) 0.74992(12) 0.0451(7)
O1B_2 O 0.4124(2) 0.74992(12) 0.0451(7)
O1C_2 O 0.5876(2) 0.75008(12) 0.0451(7)
O3C O -0.43886(18) 0.69174(13) 0.1579(4)
O3A O 0.56114(18) 0.80826(13) 0.3421(4)
O3B O 1.43886(18) 0.80826(13) 0.1579(4)
O3B_2 O 0.43886(18) 0.80826(13) 0.1579(4)
O3C_2 O 0.56114(18) 0.69174(13) 0.1579(4)
N1C N -0.11890(19) 0.61890(12) -0.0263(4)
N1A N 0.88110(19) 0.88110(12) 0.5263(4)
N1B N 1.11890(19) 0.88110(12) -0.0263(4)
C1C C -0.4041(2) 0.71120(17) 0.0691(6)
C1A C 0.5959(2) 0.78880(17) 0.4309(6)
C1B C 1.4041(2) 0.78880(17) 0.0691(6)
C2C C -0.3487(2) 0.68695(15) -0.0092(5)
C2A C 0.6513(2) 0.81305(15) 0.5092(5)
C2B C 1.3487(2) 0.81305(15) -0.0092(5)
C3C C -0.2968(3) 0.70863(16) -0.0797(6)
C3A C 0.7032(3) 0.79137(16) 0.5797(6)
C3B C 1.2968(3) 0.79137(16) -0.0797(6)
H1C H -0.3008 0.7380 -0.0940
H1A H 0.6992 0.7620 0.5940
H1B H 1.3008 0.7620 -0.0940
C4C C -0.3455(2) 0.64249(15) -0.0016(5)
C4A C 0.6545(2) 0.85751(15) 0.5016(5)
C4B C 1.3455(2) 0.85751(15) -0.0016(5)
H2C H -0.3821 0.6273 0.0374
H2A H 0.6179 0.8727 0.4626
H2B H 1.3821 0.8727 0.0374
C5C C -0.2394(3) 0.68731(17) -0.1292(6)
C5A C 0.7606(3) 0.81269(17) 0.6292(6)
C5B C 1.2394(3) 0.81269(17) -0.1292(6)
H3C H -0.2044 0.7024 -0.1743
H3A H 0.7956 0.7976 0.6743
H3B H 1.2044 0.7976 -0.1743
C6C C -0.2886(2) 0.62073(15) -0.0513(5)
C6A C 0.7114(2) 0.87927(15) 0.5513(5)
C6B C 1.2886(2) 0.87927(15) -0.0513(5)
H4C H -0.2869 0.5910 -0.0445
H4A H 0.7131 0.9090 0.5445
H4B H 1.2869 0.9090 -0.0445
C7C C -0.2339(2) 0.64277(16) -0.1112(5)
C7A C 0.7661(2) 0.85723(16) 0.6112(5)
C7B C 1.2339(2) 0.85723(16) -0.1112(5)
C8C C -0.1677(3) 0.61925(18) -0.1495(5)
C8A C 0.8323(3) 0.88075(18) 0.6495(5)
C8B C 1.1677(3) 0.88075(18) -0.1495(5)
H5C H -0.1785 0.5900 -0.1766
H5A H 0.8215 0.9100 0.6766
H5B H 1.1785 0.9100 -0.1766
H6C H -0.1458 0.6333 -0.2287
H6A H 0.8542 0.8667 0.7287
H6B H 1.1458 0.8667 -0.2287
C9C C -0.0830(3) 0.65385(19) 0.0028(7)
C9A C 0.9170(3) 0.84615(19) 0.4972(7)
C9B C 1.0830(3) 0.84615(19) 0.0028(7)
H7C H -0.0893 0.6785 -0.0510
H7A H 0.9107 0.8215 0.5510
H7B H 1.0893 0.8215 -0.0510
C10C C -0.1108(3) 0.58470(17) 0.0511(7)
C10A C 0.8892(3) 0.91530(17) 0.4489(7)
C10B C 1.1108(3) 0.91530(17) 0.0511(7)
H8C H -0.1375 0.5605 0.0324
H8A H 0.8625 0.9395 0.4676
H8B H 1.1375 0.9395 0.0324
C11C C -0.0372(4) 0.65411(18) 0.1104(7)
C11A C 0.9628(4) 0.84589(18) 0.3896(7)
C11B C 1.0372(4) 0.84589(18) 0.1104(7)
H9C H -0.0127 0.6791 0.1297
H9A H 0.9873 0.8209 0.3703
H9B H 1.0127 0.8209 0.1297
C12C C -0.0642(3) 0.58350(15) 0.1592(7)
C12A C 0.9358(3) 0.91650(15) 0.3408(7)
C12B C 1.0642(3) 0.91650(15) 0.1592(7)
H10C H -0.0587 0.5584 0.2108
H10A H 0.9413 0.9416 0.2892
H10B H 1.0587 0.9416 0.2108
C13C C -0.0259(2) 0.61847(13) 0.1916(5)
C13A C 0.9741(2) 0.88153(13) 0.3084(5)
C13B C 1.0259(2) 0.88153(13) 0.1916(5)
Cl1 Cl 0.2500 0.5000 0.7573(10)
O5 O 0.2564(11) 0.5444(4) 0.814(3)
O8 O 0.3158(10) 0.4958(8) 0.668(3)
O5E O 0.2436(11) 0.4556(4) 0.814(3)
O8E O 0.1842(10) 0.5042(8) 0.668(3)
O4 O 0.0650(9) 0.5352(4) 0.932(2)
O7 O 0.0000 0.5999(5) 0.7500
O2? O 0.4724(8) 0.7500 0.7500
O6? O 0.2551(18) 0.5215(8) 0.6150(18)
O9? O 0.3223(9) 0.4916(12) 0.813(4)
O10? O 0.2118(18) 0.5289(8) 0.858(3)
O11? O 0.2119(18) 0.4579(7) 0.743(3)
O12? O 0.0000 0.5425(5) 0.7500
loop_
_geom_bond_atom_site_label_1
_geom_bond_atom_site_label_2
_geom_bond_site_symmetry_1
_geom_bond_site_symmetry_2
Cd1 O1 1_555 1_555
Cl1 O5 1_555 1_555
O1 C1 1_555 1_555
O3 Cd1 1_555 1_555
O8 Cl1 1_555 1_555
N1 C8 1_555 1_555
C1 O3 1_555 1_555
C2 C1 1_555 1_555
C3 C2 1_555 1_555
H1 C3 1_555 1_555
C4 C2 1_555 1_555
H2 C4 1_555 1_555
C5 C3 1_555 1_555
H3 C5 1_555 1_555
C6 C4 1_555 1_555
H4 C6 1_555 1_555
C7 C5 1_555 1_555
C8 C7 1_555 1_555
H5 C8 1_555 1_555
H6 C8 1_555 1_555
C9 N1 1_555 1_555
H7 C9 1_555 1_555
C10 N1 1_555 1_555
H8 C10 1_555 1_555
C11 C9 1_555 1_555
H9 C11 1_555 1_555
C12 C10 1_555 1_555
H10 C12 1_555 1_555
C13 C11 1_555 1_555
Cd1_2 O1C 1_555 1_555
Cd1_3 O1B 1_555 1_555
O1C C1C 1_555 1_555
O1A Cd1 1_555 1_555
O1B C1B 1_555 1_555
O1B_2 Cd1 1_555 1_555
O1C_2 Cd1 1_555 1_555
O3C Cd1_2 1_555 1_555
O3A Cd1 1_555 1_555
O3B Cd1_3 1_555 1_555
O3B_2 Cd1 1_555 1_555
O3C_2 Cd1 1_555 1_555
O5E Cl1 1_555 1_555
O8E Cl1 1_555 1_555
N1C C8C 1_555 1_555
N1A C8A 1_555 1_555
N1B C8B 1_555 1_555
C1C O3C 1_555 1_555
C1A O1A 1_555 1_555
C1B O3B 1_555 1_555
C2C C1C 1_555 1_555
C2A C1A 1_555 1_555
C2B C1B 1_555 1_555
C3C C2C 1_555 1_555
C3A C2A 1_555 1_555
C3B C2B 1_555 1_555
H1C C3C 1_555 1_555
H1A C3A 1_555 1_555
H1B C3B 1_555 1_555
C4C C2C 1_555 1_555
C4A C2A 1_555 1_555
C4B C2B 1_555 1_555
H2C C4C 1_555 1_555
H2A C4A 1_555 1_555
H2B C4B 1_555 1_555
C5C C3C 1_555 1_555
C5A C3A 1_555 1_555
C5B C3B 1_555 1_555
H3C C5C 1_555 1_555
H3A C5A 1_555 1_555
H3B C5B 1_555 1_555
C6C C4C 1_555 1_555
C6A C4A 1_555 1_555
C6B C4B 1_555 1_555
H4C C6C 1_555 1_555
H4A C6A 1_555 1_555
H4B C6B 1_555 1_555
C7C C5C 1_555 1_555
C7A C5A 1_555 1_555
C7B C5B 1_555 1_555
C8C C7C 1_555 1_555
C8A C7A 1_555 1_555
C8B C7B 1_555 1_555
H5C C8C 1_555 1_555
H5A C8A 1_555 1_555
H5B C8B 1_555 1_555
H6C C8C 1_555 1_555
H6A C8A 1_555 1_555
H6B C8B 1_555 1_555
C9C N1C 1_555 1_555
C9A N1A 1_555 1_555
C9B N1B 1_555 1_555
H7C C9C 1_555 1_555
H7A C9A 1_555 1_555
H7B C9B 1_555 1_555
C10C N1C 1_555 1_555
C10A N1A 1_555 1_555
C10B N1B 1_555 1_555
H8C C10C 1_555 1_555
H8A C10A 1_555 1_555
H8B C10B 1_555 1_555
C11C C9C 1_555 1_555
C11A C9A 1_555 1_555
C11B C9B 1_555 1_555
H9C C11C 1_555 1_555
H9A C11A 1_555 1_555
H9B C11B 1_555 1_555
C12C C10C 1_555 1_555
C12A C10A 1_555 1_555
C12B C10B 1_555 1_555
H10C C12C 1_555 1_555
H10A C12A 1_555 1_555
H10B C12B 1_555 1_555
C13C C13 1_555 1_555
C13A C11A 1_555 1_555
C13B C11B 1_555 1_555
C6 C7 1_555 1_555
C12 C13 1_555 1_555
O3A C1A 1_555 1_555
C6C C7C 1_555 1_555
C6A C7A 1_555 1_555
C6B C7B 1_555 1_555
C11C C13C 1_555 1_555
C12C C13C 1_555 1_555
C12A C13A 1_555 1_555
C12B C13B 1_555 1_555
C13A C13B 1_555 1_555

#END
