
#######################################################################
#
#                 Cambridge Crystallographic Data Centre
#                                CCDC 
#
#######################################################################
#
# If this CIF has been generated from an entry in the Cambridge 
# Structural Database, then it will include bibliographic, chemical, 
# crystal, experimental, refinement or atomic coordinate data resulting 
# from the CCDC's data processing and validation procedures.
#
#######################################################################

data_FEDBIZ
_symmetry_cell_setting           orthorhombic
_symmetry_space_group_name_H-M   'P b c n'
_symmetry_Int_Tables_number      60
_space_group_name_Hall           '-P 2n 2ab'
loop_
_symmetry_equiv_pos_site_id
_symmetry_equiv_pos_as_xyz
1 x,y,z
2 1/2-x,1/2+y,z
3 x,-y,1/2+z
4 1/2-x,1/2-y,1/2+z
5 -x,-y,-z
6 1/2+x,1/2-y,-z
7 -x,y,1/2-z
8 1/2+x,1/2+y,1/2-z
_cell_length_a                   21.679(3)
_cell_length_b                   9.408(1)
_cell_length_c                   10.564(2)
_cell_angle_alpha                90
_cell_angle_beta                 90
_cell_angle_gamma                90
_cell_volume                     2154.59
loop_
_atom_site_label
_atom_site_type_symbol
_atom_site_fract_x
_atom_site_fract_y
_atom_site_fract_z
Cu1 Cu 0.0145(1) 0.0928(1) 0.0985(1)
O1 O 0.0876(2) 0.0984(4) 0.0000(3)
O2 O -0.0627(2) 0.0282(4) 0.1686(3)
N1 N 0.0181(2) 0.3124(4) 0.2006(4)
C1 C 0.1598(2) 0.0861(5) -0.1651(4)
C2 C 0.1993(3) 0.1792(6) -0.1026(5)
C3 C 0.2559(3) 0.2133(7) -0.1529(6)
C4 C 0.2739(3) 0.1551(8) -0.2662(6)
C5 C 0.2363(3) 0.0618(8) -0.3290(6)
C6 C 0.1781(3) 0.0286(6) -0.2794(5)
C7 C 0.0984(2) 0.0494(5) -0.1082(5)
C8 C 0.0393(2) 0.4388(5) 0.1517(5)
C9 C 0.0219(2) 0.5728(5) 0.2009(6)
C10 C 0.0486(3) 0.6951(6) 0.1476(6)
C11 C 0.0898(3) 0.6836(6) 0.0497(7)
C12 C 0.1056(3) 0.5512(7) -0.0016(6)
C13 C 0.0804(3) 0.4292(5) 0.0493(6)
H1 H 0.1837 0.2265 -0.0103
H2 H 0.2855 0.2873 -0.0993
H3 H 0.3226 0.1798 -0.3021
H4 H 0.2481 0.0150 -0.4194
H5 H 0.1451 -0.0420 -0.3327
H6 H 0.0467 0.8001 0.1866
H7 H 0.1120 0.7761 0.0079
H8 H 0.1389 0.5421 -0.0839
H9 H 0.0922 0.3253 0.0112
Cu1D Cu -0.0145(1) -0.0928(1) -0.0985(1)
Cu1F Cu -0.0145(1) 0.0928(1) 0.4015(1)
C7D C -0.0984(2) -0.0494(5) 0.1082(5)
N1F N -0.0181(2) 0.3124(4) 0.2994(4)
O2D O 0.0627(2) -0.0282(4) -0.1686(3)
C9F C -0.0219(2) 0.5728(5) 0.2991(6)
O1D O -0.0876(2) -0.0984(4) 0.0000(3)
C1D C -0.1598(2) -0.0861(5) 0.1651(4)
C8F C -0.0393(2) 0.4388(5) 0.3483(5)
C10F C -0.0486(3) 0.6951(6) 0.3524(6)
C2D C -0.1993(3) -0.1792(6) 0.1026(5)
C6D C -0.1781(3) -0.0286(6) 0.2794(5)
C13F C -0.0804(3) 0.4292(5) 0.4507(6)
C11F C -0.0898(3) 0.6836(6) 0.4503(7)
H6F H -0.0467 0.8001 0.3134
C3D C -0.2559(3) -0.2133(7) 0.1529(6)
H1D H -0.1837 -0.2265 0.0103
C5D C -0.2363(3) -0.0618(8) 0.3290(6)
H5D H -0.1451 0.0420 0.3327
C12F C -0.1056(3) 0.5512(7) 0.5016(6)
H9F H -0.0922 0.3253 0.4888
H7F H -0.1120 0.7761 0.4921
C4D C -0.2739(3) -0.1551(8) 0.2662(6)
H2D H -0.2855 -0.2873 0.0993
H4D H -0.2481 -0.0150 0.4194
H8F H -0.1389 0.5421 0.5839
H3D H -0.3226 -0.1798 0.3021
N1D N -0.0181(2) -0.3124(4) -0.2006(4)
loop_
_geom_bond_atom_site_label_1
_geom_bond_atom_site_label_2
_geom_bond_site_symmetry_1
_geom_bond_site_symmetry_2
Cu1 O1 1_555 1_555
O1 C7 1_555 1_555
O2 Cu1 1_555 1_555
N1 Cu1 1_555 1_555
C1 C2 1_555 1_555
C2 C3 1_555 1_555
C3 C4 1_555 1_555
C4 C5 1_555 1_555
C5 C6 1_555 1_555
C6 C1 1_555 1_555
C7 C1 1_555 1_555
C8 N1 1_555 1_555
C9 C8 1_555 1_555
C10 C9 1_555 1_555
C11 C10 1_555 1_555
C12 C11 1_555 1_555
C13 C8 1_555 1_555
H1 C2 1_555 1_555
H2 C3 1_555 1_555
H3 C4 1_555 1_555
H4 C5 1_555 1_555
H5 C6 1_555 1_555
H6 C10 1_555 1_555
H7 C11 1_555 1_555
H8 C12 1_555 1_555
H9 C13 1_555 1_555
Cu1D Cu1 1_555 1_555
Cu1F N1F 1_555 1_555
C7D O2 1_555 1_555
N1F N1 1_555 1_555
O2D C7 1_555 1_555
C9F C9 1_555 1_555
O1D Cu1D 1_555 1_555
C1D C7D 1_555 1_555
C8F N1F 1_555 1_555
C10F C9F 1_555 1_555
C2D C1D 1_555 1_555
C6D C1D 1_555 1_555
C13F C8F 1_555 1_555
C11F C10F 1_555 1_555
H6F C10F 1_555 1_555
C3D C2D 1_555 1_555
H1D C2D 1_555 1_555
C5D C6D 1_555 1_555
H5D C6D 1_555 1_555
C12F C13F 1_555 1_555
H9F C13F 1_555 1_555
H7F C11F 1_555 1_555
C4D C3D 1_555 1_555
H2D C3D 1_555 1_555
H4D C5D 1_555 1_555
H8F C12F 1_555 1_555
H3D C4D 1_555 1_555
N1D Cu1D 1_555 1_555
C12 C13 1_555 1_555
Cu1D O2D 1_555 1_555
C7D O1D 1_555 1_555
C9F C8F 1_555 1_555
C11F C12F 1_555 1_555
C5D C4D 1_555 1_555

#END
