
#######################################################################
#
#                 Cambridge Crystallographic Data Centre
#                                CCDC 
#
#######################################################################
#
# If this CIF has been generated from an entry in the Cambridge 
# Structural Database, then it will include bibliographic, chemical, 
# crystal, experimental, refinement or atomic coordinate data resulting 
# from the CCDC's data processing and validation procedures.
#
#######################################################################

data_FEDBOH
_symmetry_cell_setting           monoclinic
_symmetry_space_group_name_H-M   'P 21/n'
_symmetry_Int_Tables_number      14
_space_group_name_Hall           '-P 2yn'
loop_
_symmetry_equiv_pos_site_id
_symmetry_equiv_pos_as_xyz
1 x,y,z
2 1/2-x,1/2+y,1/2-z
3 -x,-y,-z
4 1/2+x,1/2-y,1/2+z
_cell_length_a                   16.1787(12)
_cell_length_b                   9.8431(5)
_cell_length_c                   18.6902(13)
_cell_angle_alpha                90
_cell_angle_beta                 114.982(2)
_cell_angle_gamma                90
_cell_volume                     2697.92
loop_
_atom_site_label
_atom_site_type_symbol
_atom_site_fract_x
_atom_site_fract_y
_atom_site_fract_z
Cd1 Cd 0.79575(2) 0.74700(3) 0.026307(18)
Cl1 Cl 0.87422(13) 0.9054(2) -0.02827(10)
Cl2 Cl 0.72247(11) 0.90694(19) 0.08627(9)
O1 O 0.6624(2) 0.7105(4) -0.0994(2)
O2 O 0.6879(2) 0.5756(4) 0.0002(2)
O3 O -0.5967(2) 0.9299(4) -0.4543(2)
O4 O -0.5805(2) 0.8136(4) -0.3493(2)
N1 N 0.2023(2) 0.5094(3) -0.2192(2)
N2 N -0.1182(2) 0.9918(3) -0.2217(2)
C1 C 0.6384(3) 0.6181(5) -0.0669(3)
C2 C 0.5430(3) 0.5596(4) -0.1089(2)
C3 C 0.4799(3) 0.6173(5) -0.1776(2)
H1 H 0.4973 0.6918 -0.2006
C4 C 0.5172(3) 0.4483(4) -0.0776(2)
H2 H 0.5606 0.4056 -0.0315
C5 C 0.3920(3) 0.5680(5) -0.2132(3)
H3 H 0.3493 0.6084 -0.2606
C6 C 0.4293(3) 0.3989(4) -0.1127(2)
H4 H 0.4125 0.3231 -0.0904
C7 C 0.3658(3) 0.4591(4) -0.1800(2)
C8 C 0.2695(3) 0.4053(5) -0.2184(3)
H5 H 0.2553 0.3775 -0.2733
H6 H 0.2644 0.3241 -0.1893
C9 C 0.2186(3) 0.5825(5) -0.1543(3)
H7 H 0.2738 0.5696 -0.1084
C10 C 0.1236(3) 0.5251(4) -0.2847(3)
H8 H 0.1128 0.4715 -0.3301
C11 C 0.1556(3) 0.6765(5) -0.1537(2)
H9 H 0.1675 0.7269 -0.1070
C12 C 0.0593(2) 0.6174(4) -0.2865(2)
H10 H 0.0039 0.6265 -0.3327
C13 C 0.0751(3) 0.6982(4) -0.2203(2)
C14 C 0.0077(3) 0.8018(4) -0.2210(2)
C15 C 0.0310(3) 0.9034(5) -0.1644(3)
H11 H 0.0916 0.9089 -0.1245
C16 C -0.0806(3) 0.8008(5) -0.2787(2)
H12 H -0.0990 0.7334 -0.3188
C17 C -0.0329(3) 0.9957(5) -0.1657(3)
H13 H -0.0162 1.0639 -0.1261
C18 C -0.1427(3) 0.8970(4) -0.2784(3)
H14 H -0.2032 0.8960 -0.3187
C19 C -0.1831(3) 1.1010(5) -0.2225(3)
H15 H -0.1748 1.1815 -0.2505
H16 H -0.1687 1.1283 -0.1675
C20 C -0.2810(3) 1.0554(4) -0.2620(2)
C21 C -0.3349(3) 1.0932(5) -0.3389(3)
H17 H -0.3110 1.1524 -0.3657
C22 C -0.3176(3) 0.9737(4) -0.2212(2)
H18 H -0.2821 0.9508 -0.1674
C23 C -0.4231(3) 1.0456(5) -0.3773(3)
H19 H -0.4595 1.0718 -0.4304
C24 C -0.4060(3) 0.9267(4) -0.2600(2)
H20 H -0.4311 0.8710 -0.2326
C25 C -0.4588(3) 0.9601(4) -0.3389(2)
C26 C -0.5516(3) 0.8972(5) -0.3829(3)
Cd1C Cd -0.70425(2) 0.75300(3) -0.473693(18)
O3C O 0.9033(2) 0.5701(4) 0.0457(2)
O4C O 0.9195(2) 0.6864(4) 0.1507(2)
O5 O 0.7886(5) 1.3355(7) -0.0438(3)
O6 O 0.9405(9) 1.2128(12) -0.0237(6)
O7 O 0.6613(7) 1.1514(9) -0.0436(5)
O8 O 0.4811(9) 1.0942(12) 0.0505(8)
O9 O 0.6297(11) 1.2186(14) 0.0794(11)
loop_
_geom_bond_atom_site_label_1
_geom_bond_atom_site_label_2
_geom_bond_site_symmetry_1
_geom_bond_site_symmetry_2
Cd1 Cl1 1_555 1_555
Cl2 Cd1 1_555 1_555
O1 Cd1 1_555 1_555
O2 Cd1 1_555 1_555
O3 C26 1_555 1_555
O4 C26 1_555 1_555
N1 C8 1_555 1_555
N2 C17 1_555 1_555
C1 O1 1_555 1_555
C2 C1 1_555 1_555
C3 C2 1_555 1_555
H1 C3 1_555 1_555
C4 C2 1_555 1_555
H2 C4 1_555 1_555
C5 C3 1_555 1_555
H3 C5 1_555 1_555
C6 C4 1_555 1_555
H4 C6 1_555 1_555
C7 C5 1_555 1_555
C8 C7 1_555 1_555
H5 C8 1_555 1_555
H6 C8 1_555 1_555
C9 N1 1_555 1_555
H7 C9 1_555 1_555
C10 N1 1_555 1_555
H8 C10 1_555 1_555
C11 C9 1_555 1_555
H9 C11 1_555 1_555
C12 C10 1_555 1_555
H10 C12 1_555 1_555
C13 C11 1_555 1_555
C14 C13 1_555 1_555
C15 C14 1_555 1_555
H11 C15 1_555 1_555
C16 C14 1_555 1_555
H12 C16 1_555 1_555
C17 C15 1_555 1_555
H13 C17 1_555 1_555
C18 N2 1_555 1_555
H14 C18 1_555 1_555
C19 N2 1_555 1_555
H15 C19 1_555 1_555
H16 C19 1_555 1_555
C20 C19 1_555 1_555
C21 C20 1_555 1_555
H17 C21 1_555 1_555
C22 C20 1_555 1_555
H18 C22 1_555 1_555
C23 C21 1_555 1_555
H19 C23 1_555 1_555
C24 C22 1_555 1_555
H20 C24 1_555 1_555
C25 C23 1_555 1_555
C26 C25 1_555 1_555
Cd1C O3 1_555 1_555
O3C Cd1 1_555 1_555
O4C Cd1 1_555 1_555
O2 C1 1_555 1_555
O4 Cd1C 1_555 1_555
C6 C7 1_555 1_555
C12 C13 1_555 1_555
C16 C18 1_555 1_555
C24 C25 1_555 1_555

#END
