
#######################################################################
#
#                 Cambridge Crystallographic Data Centre
#                                CCDC 
#
#######################################################################
#
# If this CIF has been generated from an entry in the Cambridge 
# Structural Database, then it will include bibliographic, chemical, 
# crystal, experimental, refinement or atomic coordinate data resulting 
# from the CCDC's data processing and validation procedures.
#
#######################################################################

data_FEDCAU
_symmetry_cell_setting           monoclinic
_symmetry_space_group_name_H-M   'P 21/c'
_symmetry_Int_Tables_number      14
_space_group_name_Hall           '-P 2ybc'
loop_
_symmetry_equiv_pos_site_id
_symmetry_equiv_pos_as_xyz
1 x,y,z
2 -x,1/2+y,1/2-z
3 -x,-y,-z
4 x,1/2-y,1/2+z
_cell_length_a                   16.687(5)
_cell_length_b                   10.020(2)
_cell_length_c                   17.913(5)
_cell_angle_alpha                90
_cell_angle_beta                 115.571(3)
_cell_angle_gamma                90
_cell_volume                     2701.75
loop_
_atom_site_label
_atom_site_type_symbol
_atom_site_fract_x
_atom_site_fract_y
_atom_site_fract_z
Cd1 Cd -0.736201(14) 0.77565(2) 0.979454(12)
O1 O -0.72848(15) 0.8166(2) 0.85212(12)
N1 N -0.39349(13) 0.9653(2) 0.72374(12)
C1 C -0.66918(17) 0.9024(2) 0.88599(15)
O2 O -0.64870(13) 0.94329(19) 0.95851(11)
N2 N -0.07542(14) 0.4986(2) 0.73699(13)
C2 C -0.61902(15) 0.9560(2) 0.84008(14)
O3 O 0.26590(14) 0.6792(2) 0.61381(12)
N3 N -0.6209(2) 0.6292(3) 1.02461(18)
C3 C -0.63916(17) 0.9126(3) 0.76008(15)
H1 H -0.6881 0.8544 0.7324
O4 O 0.17798(14) 0.5665(2) 0.50315(12)
N4 N -0.5619(2) 0.6508(2) 1.00663(15)
C4 C -0.54867(17) 1.0430(2) 0.87934(15)
H2 H -0.5357 1.0747 0.9333
N5 N -0.5048(2) 0.6674(3) 0.9878(2)
C5 C -0.58802(18) 0.9540(3) 0.72083(15)
H3 H -0.6026 0.9254 0.6659
N6 N -0.8499(2) 0.6295(3) 0.9365(2)
C6 C -0.49680(17) 1.0841(3) 0.83982(15)
H4 H -0.4488 1.1441 0.8668
N7 N -0.88983(19) 0.6249(2) 0.97772(17)
C7 C -0.51539(16) 1.0373(2) 0.76139(15)
N8 N -0.9286(2) 0.6193(4) 1.0162(2)
C8 C -0.45593(19) 1.0758(3) 0.72120(18)
H5 H -0.4207 1.1552 0.7497
H6 H -0.4932 1.1005 0.6628
C9 C -0.36332(18) 0.8766(3) 0.78514(16)
H7 H -0.3842 0.8791 0.8268
C10 C -0.3651(2) 0.9629(3) 0.66469(18)
H8 H -0.3877 1.0258 0.6208
C11 C -0.30189(19) 0.7809(2) 0.78884(17)
H9 H -0.2812 0.7179 0.8327
C12 C -0.3037(2) 0.8705(3) 0.66650(18)
H10 H -0.2836 0.8711 0.6243
C13 C -0.27061(16) 0.7768(2) 0.72902(15)
C14 C -0.20312(15) 0.6777(2) 0.73215(14)
C15 C -0.15614(19) 0.5996(3) 0.80226(16)
H11 H -0.1681 0.6077 0.8494
C16 C -0.18333(17) 0.6600(3) 0.66484(15)
H12 H -0.2141 0.7108 0.6159
C17 C -0.09305(19) 0.5116(3) 0.80319(17)
H13 H -0.0613 0.4591 0.8511
C18 C -0.11974(18) 0.5700(3) 0.66842(16)
H14 H -0.1072 0.5584 0.6219
C19 C -0.0078(2) 0.3976(3) 0.73922(19)
H15 H -0.0386 0.3157 0.7099
H16 H 0.0308 0.3735 0.7974
C20 C 0.04902(17) 0.4509(2) 0.69919(16)
C21 C 0.03936(17) 0.3970(3) 0.62423(16)
H17 H -0.0020 0.3271 0.5993
C22 C 0.11029(19) 0.5516(3) 0.73546(16)
H18 H 0.1179 0.5876 0.7872
C23 C 0.08993(16) 0.4451(3) 0.58586(15)
H19 H 0.0830 0.4084 0.5345
C24 C 0.16063(18) 0.6003(3) 0.69719(16)
H20 H 0.2020 0.6703 0.7223
C25 C 0.15077(16) 0.5472(2) 0.62234(14)
C26 C 0.20271(17) 0.6016(3) 0.57778(16)
Cd1C Cd 0.263799(14) 0.72435(2) 0.479454(12)
O3C O -0.73410(14) 0.8208(2) 1.11381(12)
O4C O -0.82202(14) 0.9335(2) 1.00315(12)
O5 O -1.0634(2) 0.7125(3) 1.06934(17)
H21 H -1.0414 0.6802 1.0383
H22 H -1.1197 0.7084 1.0492
O6 O -0.7583(2) 0.3680(3) 1.02936(17)
H23 H -0.7555 0.3955 0.9857
H24 H -0.7245 0.3001 1.0415
O7 O -0.62918(17) 0.1907(2) 1.03801(15)
H25 H -0.5915 0.2347 1.0278
H26 H -0.6282 0.1127 1.0197
loop_
_geom_bond_atom_site_label_1
_geom_bond_atom_site_label_2
_geom_bond_site_symmetry_1
_geom_bond_site_symmetry_2
Cd1 O1 1_555 1_555
O1 C1 1_555 1_555
N1 C8 1_555 1_555
C1 O2 1_555 1_555
O2 Cd1 1_555 1_555
N2 C17 1_555 1_555
C2 C1 1_555 1_555
O3 C26 1_555 1_555
N3 Cd1 1_555 1_555
C3 C2 1_555 1_555
H1 C3 1_555 1_555
O4 C26 1_555 1_555
N4 N3 1_555 1_555
C4 C2 1_555 1_555
H2 C4 1_555 1_555
N5 N4 1_555 1_555
C5 C3 1_555 1_555
H3 C5 1_555 1_555
N6 Cd1 1_555 1_555
C6 C4 1_555 1_555
H4 C6 1_555 1_555
N7 N6 1_555 1_555
C7 C5 1_555 1_555
N8 N7 1_555 1_555
C8 C7 1_555 1_555
H5 C8 1_555 1_555
H6 C8 1_555 1_555
C9 N1 1_555 1_555
H7 C9 1_555 1_555
C10 N1 1_555 1_555
H8 C10 1_555 1_555
C11 C9 1_555 1_555
H9 C11 1_555 1_555
C12 C10 1_555 1_555
H10 C12 1_555 1_555
C13 C11 1_555 1_555
C14 C13 1_555 1_555
C15 C14 1_555 1_555
H11 C15 1_555 1_555
C16 C14 1_555 1_555
H12 C16 1_555 1_555
C17 C15 1_555 1_555
H13 C17 1_555 1_555
C18 N2 1_555 1_555
H14 C18 1_555 1_555
C19 N2 1_555 1_555
H15 C19 1_555 1_555
H16 C19 1_555 1_555
C20 C19 1_555 1_555
C21 C20 1_555 1_555
H17 C21 1_555 1_555
C22 C20 1_555 1_555
H18 C22 1_555 1_555
C23 C21 1_555 1_555
H19 C23 1_555 1_555
C24 C22 1_555 1_555
H20 C24 1_555 1_555
C25 C23 1_555 1_555
C26 C25 1_555 1_555
O5 H21 1_555 1_555
H22 O5 1_555 1_555
O6 H23 1_555 1_555
H24 O6 1_555 1_555
O7 H25 1_555 1_555
H26 O7 1_555 1_555
Cd1C O3 1_555 1_555
O3C Cd1 1_555 1_555
O4C Cd1 1_555 1_555
O4 Cd1C 1_555 1_555
C6 C7 1_555 1_555
C12 C13 1_555 1_555
C16 C18 1_555 1_555
C24 C25 1_555 1_555

#END
