
#######################################################################
#
#                 Cambridge Crystallographic Data Centre
#                                CCDC 
#
#######################################################################
#
# If this CIF has been generated from an entry in the Cambridge 
# Structural Database, then it will include bibliographic, chemical, 
# crystal, experimental, refinement or atomic coordinate data resulting 
# from the CCDC's data processing and validation procedures.
#
#######################################################################

data_FEDCEY
_symmetry_cell_setting           monoclinic
_symmetry_space_group_name_H-M   'P 21/c'
_symmetry_Int_Tables_number      14
_space_group_name_Hall           '-P 2ybc'
loop_
_symmetry_equiv_pos_site_id
_symmetry_equiv_pos_as_xyz
1 x,y,z
2 -x,1/2+y,1/2-z
3 -x,-y,-z
4 x,1/2-y,1/2+z
_cell_length_a                   16.478(6)
_cell_length_b                   9.716(3)
_cell_length_c                   18.084(7)
_cell_angle_alpha                90
_cell_angle_beta                 114.075(4)
_cell_angle_gamma                90
_cell_volume                     2643.4
loop_
_atom_site_label
_atom_site_type_symbol
_atom_site_fract_x
_atom_site_fract_y
_atom_site_fract_z
Cd1 Cd -0.760037(18) 0.23449(3) 0.516999(16)
S1 S -0.59036(12) -0.16076(13) 0.53415(9)
S2 S -0.90979(15) -0.20871(15) 0.46016(9)
O1 O -0.75291(19) 0.2872(3) 0.38946(16)
O2 O -0.67263(18) 0.4060(3) 0.49793(16)
O3 O 0.15148(18) 0.0976(3) 0.03349(16)
O4 O 0.2355(2) 0.2052(3) 0.14575(17)
N1 N -0.41182(18) 0.5103(3) 0.27142(17)
N2 N -0.11080(18) 0.0127(3) 0.25725(17)
N3 N -0.6412(3) 0.0945(5) 0.5694(2)
N4 N -0.8613(3) 0.0678(4) 0.4747(2)
C1 C -0.6933(2) 0.3733(3) 0.4252(2)
C2 C -0.6424(2) 0.4400(3) 0.38231(19)
C3 C -0.6484(2) 0.3921(3) 0.3082(2)
H1 H -0.6881 0.3193 0.2816
C4 C -0.5857(2) 0.5501(3) 0.4192(2)
H2 H -0.5832 0.5858 0.4690
C5 C -0.5959(2) 0.4510(3) 0.2729(2)
H3 H -0.6003 0.4184 0.2218
C6 C -0.5336(2) 0.6072(3) 0.3844(2)
H4 H -0.4949 0.6814 0.4105
C7 C -0.5372(2) 0.5569(3) 0.3113(2)
C8 C -0.4761(3) 0.6157(3) 0.2753(2)
H5 H -0.5121 0.6503 0.2200
H6 H -0.4427 0.6944 0.3086
C9 C -0.3613(2) 0.4400(3) 0.3390(2)
H7 H -0.3675 0.4573 0.3882
C10 C -0.4020(2) 0.4903(4) 0.2025(2)
H8 H -0.4364 0.5430 0.1559
C11 C -0.3017(2) 0.3448(3) 0.3374(2)
H9 H -0.2669 0.2958 0.3854
C12 C -0.3430(2) 0.3946(4) 0.1980(2)
H10 H -0.3376 0.3805 0.1483
C13 C -0.2910(2) 0.3181(3) 0.2660(2)
C14 C -0.2271(2) 0.2127(3) 0.2625(2)
C15 C -0.1918(3) 0.1152(4) 0.3234(2)
H11 H -0.2080 0.1163 0.3682
C16 C -0.2015(2) 0.2060(4) 0.1986(2)
H12 H -0.2239 0.2713 0.1559
C17 C -0.1340(3) 0.0175(4) 0.3195(2)
H13 H -0.1100 -0.0479 0.3619
C18 C -0.1437(2) 0.1050(3) 0.1966(2)
H14 H -0.1270 0.1003 0.1522
C19 C -0.0525(2) -0.1015(3) 0.2516(2)
H15 H -0.0901 -0.1749 0.2161
H16 H -0.0195 -0.1415 0.3061
C20 C 0.0129(2) -0.0532(3) 0.2185(2)
C21 C 0.0029(2) -0.0943(3) 0.1421(2)
H17 H -0.0419 -0.1592 0.1130
C22 C 0.0829(2) 0.0347(3) 0.2625(2)
H18 H 0.0931 0.0588 0.3165
C23 C 0.0574(2) -0.0421(3) 0.1075(2)
H19 H 0.0495 -0.0707 0.0548
C24 C 0.1375(2) 0.0868(3) 0.22827(19)
H20 H 0.1848 0.1469 0.2587
C25 C 0.1236(2) 0.0522(3) 0.14975(19)
C26 C 0.1737(2) 0.1227(3) 0.1075(2)
C27 C -0.6220(3) -0.0128(5) 0.5533(2)
C28 C -0.8806(3) -0.0478(5) 0.4689(3)
Cd1C Cd 0.239963(18) 0.26551(3) 0.016999(16)
O3C O -0.84852(18) 0.4024(3) 0.53349(16)
O4C O -0.7645(2) 0.2948(3) 0.64575(17)
loop_
_geom_bond_atom_site_label_1
_geom_bond_atom_site_label_2
_geom_bond_site_symmetry_1
_geom_bond_site_symmetry_2
Cd1 O1 1_555 1_555
S1 C27 1_555 1_555
S2 C28 1_555 1_555
O1 C1 1_555 1_555
O2 Cd1 1_555 1_555
O3 C26 1_555 1_555
O4 C26 1_555 1_555
N1 C8 1_555 1_555
N2 C17 1_555 1_555
N3 Cd1 1_555 1_555
N4 Cd1 1_555 1_555
C1 O2 1_555 1_555
C2 C1 1_555 1_555
C3 C2 1_555 1_555
H1 C3 1_555 1_555
C4 C2 1_555 1_555
H2 C4 1_555 1_555
C5 C3 1_555 1_555
H3 C5 1_555 1_555
C6 C4 1_555 1_555
H4 C6 1_555 1_555
C7 C5 1_555 1_555
C8 C7 1_555 1_555
H5 C8 1_555 1_555
H6 C8 1_555 1_555
C9 N1 1_555 1_555
H7 C9 1_555 1_555
C10 N1 1_555 1_555
H8 C10 1_555 1_555
C11 C9 1_555 1_555
H9 C11 1_555 1_555
C12 C10 1_555 1_555
H10 C12 1_555 1_555
C13 C11 1_555 1_555
C14 C13 1_555 1_555
C15 C14 1_555 1_555
H11 C15 1_555 1_555
C16 C14 1_555 1_555
H12 C16 1_555 1_555
C17 C15 1_555 1_555
H13 C17 1_555 1_555
C18 N2 1_555 1_555
H14 C18 1_555 1_555
C19 N2 1_555 1_555
H15 C19 1_555 1_555
H16 C19 1_555 1_555
C20 C19 1_555 1_555
C21 C20 1_555 1_555
H17 C21 1_555 1_555
C22 C20 1_555 1_555
H18 C22 1_555 1_555
C23 C21 1_555 1_555
H19 C23 1_555 1_555
C24 C22 1_555 1_555
H20 C24 1_555 1_555
C25 C23 1_555 1_555
C26 C25 1_555 1_555
C27 N3 1_555 1_555
C28 N4 1_555 1_555
Cd1C O3 1_555 1_555
O3C Cd1 1_555 1_555
O4C Cd1 1_555 1_555
O4 Cd1C 1_555 1_555
C6 C7 1_555 1_555
C12 C13 1_555 1_555
C16 C18 1_555 1_555
C24 C25 1_555 1_555

#END
