
#######################################################################
#
#                 Cambridge Crystallographic Data Centre
#                                CCDC 
#
#######################################################################
#
# If this CIF has been generated from an entry in the Cambridge 
# Structural Database, then it will include bibliographic, chemical, 
# crystal, experimental, refinement or atomic coordinate data resulting 
# from the CCDC's data processing and validation procedures.
#
#######################################################################

data_FEDFOJ
_symmetry_cell_setting           orthorhombic
_symmetry_space_group_name_H-M   'P b c a'
_symmetry_Int_Tables_number      61
_space_group_name_Hall           '-P 2ac 2ab'
loop_
_symmetry_equiv_pos_site_id
_symmetry_equiv_pos_as_xyz
1 x,y,z
2 1/2-x,-y,1/2+z
3 1/2+x,1/2-y,-z
4 -x,1/2+y,1/2-z
5 -x,-y,-z
6 1/2+x,y,1/2-z
7 1/2-x,1/2+y,z
8 x,1/2-y,1/2+z
_cell_length_a                   11.282(3)
_cell_length_b                   19.724(7)
_cell_length_c                   7.199(1)
_cell_angle_alpha                90
_cell_angle_beta                 90
_cell_angle_gamma                90
_cell_volume                     1601.97
loop_
_atom_site_label
_atom_site_type_symbol
_atom_site_fract_x
_atom_site_fract_y
_atom_site_fract_z
Rb1 Rb 0.16058(3) -0.51893(2) -0.09358(5)
O1 O 0.1266(2) -0.4254(1) -0.4134(4)
C1 C 0.1278(3) -0.3598(2) -0.4062(5)
C2 C 0.0279(3) -0.3207(2) -0.4583(5)
C3 C 0.0307(3) -0.2515(2) -0.4556(5)
C4 C 0.1334(3) -0.2183(2) -0.4003(5)
N1 N 0.1365(3) -0.1464(2) -0.4068(5)
O2 O 0.0468(3) -0.1147(1) -0.4568(4)
O3 O 0.2298(2) -0.1160(1) -0.3666(4)
C5 C 0.2322(3) -0.2547(2) -0.3452(5)
C6 C 0.2302(3) -0.3236(2) -0.3478(5)
O4 O 0.4186(3) -0.4839(2) -0.2063(4)
H1 H -0.039(3) -0.346(2) -0.498(5)
H2 H -0.033(3) -0.224(2) -0.495(5)
H3 H 0.300(3) -0.230(2) -0.305(5)
H4 H 0.293(3) -0.348(2) -0.306(5)
H5 H 0.470(4) -0.461(3) -0.182(7)
H6 H 0.410(6) -0.515(3) -0.130(8)
Rb1E Rb 0.66058(3) -0.51893(2) -0.40642(5)
Rb1A Rb 0.33942(3) -0.48107(2) -0.59358(5)
O3F O 0.2702(2) -0.6160(1) -0.3666(4)
Rb1D Rb -0.16058(3) -0.48107(2) 0.09358(5)
O1A O 0.3734(2) -0.5746(1) 0.0866(4)
O2C O -0.0468(3) -0.6147(1) -0.0432(4)
O2G O 0.0468(3) -0.3853(1) 0.0432(4)
O3G O 0.2298(2) -0.3840(1) 0.1334(4)
O4A O 0.0814(3) -0.5161(2) 0.2937(4)
O4E O -0.0814(3) -0.4839(2) -0.2937(4)
Rb1C Rb -0.16058(3) -0.01893(2) -0.40642(5)
Rb1G Rb 0.16058(3) 0.01893(2) -0.59358(5)
Rb1F Rb 0.33942(3) -0.01893(2) -0.09358(5)
Rb1A_2 Rb 0.33942(3) -0.48107(2) 0.40642(5)
H5A H 0.030(4) -0.539(3) 0.318(7)
H6A H 0.090(6) -0.485(3) 0.370(8)
H5E H -0.030(4) -0.461(3) -0.318(7)
H6E H -0.090(6) -0.515(3) -0.370(8)
loop_
_geom_bond_atom_site_label_1
_geom_bond_atom_site_label_2
_geom_bond_site_symmetry_1
_geom_bond_site_symmetry_2
Rb1 O1 1_555 1_555
O1 C1 1_555 1_555
C1 C2 1_555 1_555
C2 C3 1_555 1_555
C3 C4 1_555 1_555
C4 N1 1_555 1_555
N1 O2 1_555 1_555
O2 Rb1C 1_555 1_555
O3 N1 1_555 1_555
C5 C4 1_555 1_555
C6 C1 1_555 1_555
O4 Rb1 1_555 1_555
H1 C2 1_555 1_555
H2 C3 1_555 1_555
H3 C5 1_555 1_555
H4 C6 1_555 1_555
H5 O4 1_555 1_555
H6 O4 1_555 1_555
Rb1E O4 1_555 1_555
Rb1A O1 1_555 1_555
O3F Rb1 1_555 1_555
Rb1D O2C 1_555 1_555
O1A Rb1 1_555 1_555
O2C Rb1 1_555 1_555
O2G Rb1 1_555 1_555
O3G Rb1 1_555 1_555
O4A Rb1 1_555 1_555
O4E Rb1 1_555 1_555
Rb1G O2 1_555 1_555
Rb1F O3 1_555 1_555
Rb1A_2 O1A 1_555 1_555
H5A O4A 1_555 1_555
H6A O4A 1_555 1_555
H5E O4E 1_555 1_555
H6E O4E 1_555 1_555
O3 Rb1G 1_555 1_555
C5 C6 1_555 1_555
O4 Rb1A 1_555 1_555
Rb1A O3F 1_555 1_555
Rb1D O2G 1_555 1_555
Rb1D O4A 1_555 1_555
Rb1D O4E 1_555 1_555
O3G Rb1A_2 1_555 1_555
O4A Rb1A_2 1_555 1_555

#END
