
#######################################################################
#
#                 Cambridge Crystallographic Data Centre
#                                CCDC 
#
#######################################################################
#
# If this CIF has been generated from an entry in the Cambridge 
# Structural Database, then it will include bibliographic, chemical, 
# crystal, experimental, refinement or atomic coordinate data resulting 
# from the CCDC's data processing and validation procedures.
#
#######################################################################

data_FEDFUP
_symmetry_cell_setting           monoclinic
_symmetry_space_group_name_H-M   'P 21/c'
_symmetry_Int_Tables_number      14
_space_group_name_Hall           '-P 2ybc'
loop_
_symmetry_equiv_pos_site_id
_symmetry_equiv_pos_as_xyz
1 x,y,z
2 -x,1/2+y,1/2-z
3 -x,-y,-z
4 x,1/2-y,1/2+z
_cell_length_a                   13.337(2)
_cell_length_b                   12.770(5)
_cell_length_c                   6.311(2)
_cell_angle_alpha                90
_cell_angle_beta                 100.56(3)
_cell_angle_gamma                90
_cell_volume                     1056.64
loop_
_atom_site_label
_atom_site_type_symbol
_atom_site_fract_x
_atom_site_fract_y
_atom_site_fract_z
Cs1 Cs -0.15807(1) 0.61856(2) 0.22363(4)
O1 O -0.2170(2) 0.3863(2) 0.3809(4)
C1 C -0.3150(2) 0.3851(2) 0.3838(6)
C2 C -0.3867(2) 0.4050(2) 0.1937(6)
C3 C -0.4898(2) 0.3989(2) 0.1941(6)
C4 C -0.5234(2) 0.3738(2) 0.3816(6)
N1 N -0.6312(2) 0.3658(2) 0.3783(7)
O2 O -0.6912(2) 0.3897(2) 0.2134(6)
O3 O -0.6607(2) 0.3354(3) 0.5411(6)
C5 C -0.4554(2) 0.3567(2) 0.5717(6)
C6 C -0.3530(2) 0.3627(2) 0.5725(6)
O4 O 0.0797(2) 0.5558(2) 0.2622(4)
O5 O -0.0657(2) 0.6609(2) -0.2444(5)
H1 H -0.3631 0.4240 0.0640
H2 H -0.5383 0.4122 0.0634
H3 H -0.4808 0.3412 0.7020
H4 H -0.3053 0.3509 0.7056
Cs1C Cs -0.15807(1) 0.88144(2) -0.27637(4)
Cs1C_2 Cs -0.15807(1) 0.88144(2) 0.72363(4)
O5C O -0.0657(2) 0.8391(2) 0.2556(5)
O5_2 O -0.0657(2) 0.6609(2) 0.7556(5)
O2B O -0.3088(2) 0.6103(2) -0.2134(6)
O3B O -0.3393(2) 0.6646(3) 0.4589(6)
Cs1_2 Cs -0.15807(1) 0.61856(2) -0.77637(4)
Cs1_3 Cs -0.15807(1) 0.61856(2) 1.22363(4)
Cs1B Cs -0.84193(1) 0.38144(2) -0.22363(4)
Cs1B_2 Cs -0.84193(1) 0.38144(2) 0.77637(4)
O6 O -0.1413(2) 0.3158(2) 0.0489(4)
loop_
_geom_bond_atom_site_label_1
_geom_bond_atom_site_label_2
_geom_bond_site_symmetry_1
_geom_bond_site_symmetry_2
Cs1 O1 1_555 1_555
O1 C1 1_555 1_555
C1 C2 1_555 1_555
C2 C3 1_555 1_555
C3 C4 1_555 1_555
C4 N1 1_555 1_555
N1 O2 1_555 1_555
O2 Cs1B 1_555 1_555
O3 N1 1_555 1_555
C5 C4 1_555 1_555
C6 C1 1_555 1_555
O4 Cs1 1_555 1_555
O5 Cs1 1_555 1_555
H1 C2 1_555 1_555
H2 C3 1_555 1_555
H3 C5 1_555 1_555
H4 C6 1_555 1_555
Cs1C O5 1_555 1_555
Cs1C_2 O5C 1_555 1_555
O5C Cs1 1_555 1_555
O5_2 Cs1 1_555 1_555
O2B Cs1 1_555 1_555
O3B Cs1 1_555 1_555
Cs1_2 O5 1_555 1_555
Cs1_3 O5_2 1_555 1_555
Cs1B_2 O3 1_555 1_555
C5 C6 1_555 1_555
Cs1C O5C 1_555 1_555
Cs1C_2 O5_2 1_555 1_555

#END
