
#######################################################################
#
#                 Cambridge Crystallographic Data Centre
#                                CCDC 
#
#######################################################################
#
# If this CIF has been generated from an entry in the Cambridge 
# Structural Database, then it will include bibliographic, chemical, 
# crystal, experimental, refinement or atomic coordinate data resulting 
# from the CCDC's data processing and validation procedures.
#
#######################################################################

data_FEDHIG
_symmetry_cell_setting           triclinic
_symmetry_space_group_name_H-M   'P -1'
_symmetry_Int_Tables_number      2
_space_group_name_Hall           '-P 1'
loop_
_symmetry_equiv_pos_site_id
_symmetry_equiv_pos_as_xyz
1 x,y,z
2 -x,-y,-z
_cell_length_a                   10.335(2)
_cell_length_b                   11.211(2)
_cell_length_c                   26.016(5)
_cell_angle_alpha                82.79(3)
_cell_angle_beta                 86.63(3)
_cell_angle_gamma                62.64(3)
_cell_volume                     2655.99
loop_
_atom_site_label
_atom_site_type_symbol
_atom_site_fract_x
_atom_site_fract_y
_atom_site_fract_z
Cr1 Cr 0.9791(2) 0.7319(3) 0.34640(13)
Na1 Na 0.2962(6) 1.0964(7) 0.3510(3)
S1 S 0.7986(5) 0.9084(5) 0.2930(2)
S2 S 0.7854(4) 0.7314(5) 0.3993(2)
S3 S 1.1609(4) 0.7621(5) 0.2926(2)
S4 S 0.9764(5) 0.5746(5) 0.2930(2)
S5 S 1.0028(5) 0.8745(5) 0.3997(2)
S6 S 1.1537(5) 0.5441(5) 0.3962(2)
O1 O 0.5128(11) 0.8953(12) 0.3959(6)
O2 O 0.5192(11) 1.0463(13) 0.3071(6)
O3 O 1.2721(13) 0.9249(12) 0.3011(6)
O4 O 1.1182(12) 0.3128(11) 0.3033(6)
O5 O 1.1181(12) 1.0348(13) 0.3830(7)
O6 O 1.3073(15) 0.3035(14) 0.3717(7)
C1 C 0.6313(15) 0.9530(17) 0.3255(7)
C2 C 0.6232(18) 0.8774(19) 0.3759(9)
C3 C 1.0956(14) 0.4218(15) 0.3197(6)
C4 C 1.1891(14) 0.8849(16) 0.3185(7)
C5 C 1.1028(17) 0.936(2) 0.3680(8)
C6 C 1.1962(18) 0.4135(19) 0.3580(10)
N2 N 0.235(4) 1.130(4) 0.464(2)
C36 C 0.116(3) 1.239(3) 0.4663(10)
C37 C -0.041(4) 1.353(4) 0.4704(13)
Na1_2 Na 1.2962(6) 1.0964(7) 0.3510(3)
Na1_3 Na 1.2962(6) 0.0964(7) 0.3510(3)
O3_2 O 0.2721(13) 0.9249(12) 0.3011(6)
O4_2 O 0.1182(12) 1.3128(11) 0.3033(6)
O5_2 O 0.1181(12) 1.0348(13) 0.3830(7)
O6_2 O 0.3073(15) 1.3035(14) 0.3717(7)
S7 S 1.0717(5) 1.2736(4) 0.1822(2)
S8 S 0.8943(4) 1.1027(4) 0.1447(2)
S9 S 1.0772(4) 1.0694(4) 0.0501(2)
S10 S 1.2229(4) 1.2201(4) 0.0824(2)
S11 S 1.2544(4) 1.0309(4) -0.05795(19)
S12 S 1.3935(4) 1.1880(4) -0.02727(19)
S13 S 1.3755(5) 1.0075(5) -0.1625(2)
S14 S 1.5445(5) 1.1895(5) -0.1244(2)
C7 C 0.988(2) 1.192(2) 0.2248(9)
C8 C 0.962(2) 1.090(3) 0.2057(10)
C9 C 1.0300(13) 1.1306(15) 0.1095(8)
C10 C 1.0896(16) 1.2029(13) 0.1276(6)
C11 C 1.2014(15) 1.1340(16) 0.0351(8)
C12 C 1.2703(14) 1.1240(14) -0.0106(6)
C13 C 1.3617(15) 1.0737(18) -0.1057(8)
C14 C 1.4359(16) 1.1312(16) -0.0874(9)
C15 C 1.514(2) 1.045(2) -0.1977(8)
C16 C 1.556(2) 1.126(2) -0.1837(8)
S15 S 1.4328(5) 0.5050(5) -0.2130(2)
S16 S 1.6281(5) 0.6592(5) -0.1738(2)
S17 S 1.4701(4) 0.6705(4) -0.0760(2)
S18 S 1.3065(4) 0.5377(4) -0.1079(2)
S19 S 1.1442(4) 0.5678(4) 0.00156(19)
S20 S 1.3098(4) 0.6954(4) 0.03622(18)
S21 S 1.1785(4) 0.7299(4) 0.1403(2)
S22 S 0.9754(4) 0.5835(4) 0.0962(2)
C17 C 1.514(2) 0.600(2) -0.2529(9)
C18 C 1.609(3) 0.635(3) -0.2423(11)
C19 C 1.5048(14) 0.6176(15) -0.1355(6)
C20 C 1.4267(19) 0.5557(15) -0.1522(7)
C21 C 1.3454(15) 0.6107(17) -0.0592(8)
C22 C 1.2743(12) 0.6280(12) -0.0111(5)
C23 C 1.1835(13) 0.6755(15) 0.0807(6)
C24 C 1.1097(15) 0.6180(16) 0.0664(6)
C25 C 0.9892(18) 0.6222(16) 0.1616(7)
C26 C 1.0010(14) 0.7452(13) 0.1631(7)
C27 C 1.6325(17) 0.3201(18) 0.4226(9)
C28 C 1.524(2) 0.460(2) 0.4088(10)
C29 C 1.551(2) 0.540(2) 0.3747(11)
C30 C 1.681(2) 0.490(3) 0.3478(11)
C31 C 1.777(2) 0.347(3) 0.3554(15)
C32 C 1.773(2) 0.258(3) 0.3985(9)
N1 N 1.6051(17) 0.2289(17) 0.4635(8)
C33 C 1.738(2) 0.163(3) 0.5041(11)
C34 C 1.609(3) 0.114(2) 0.4301(12)
C35 C 1.459(3) 0.284(3) 0.4969(11)
loop_
_geom_bond_atom_site_label_1
_geom_bond_atom_site_label_2
_geom_bond_site_symmetry_1
_geom_bond_site_symmetry_2
Cr1 S1 1_555 1_555
Na1 O1 1_555 1_555
S1 C1 1_555 1_555
S2 Cr1 1_555 1_555
S3 Cr1 1_555 1_555
S4 Cr1 1_555 1_555
S5 Cr1 1_555 1_555
S6 Cr1 1_555 1_555
O1 C2 1_555 1_555
O2 Na1 1_555 1_555
O3 C4 1_555 1_555
O4 C3 1_555 1_555
O5 C5 1_555 1_555
O6 C6 1_555 1_555
C1 O2 1_555 1_555
C2 S2 1_555 1_555
C3 S4 1_555 1_555
C4 S3 1_555 1_555
C5 S5 1_555 1_555
C6 S6 1_555 1_555
S7 C7 1_555 1_555
S8 C8 1_555 1_555
S9 C9 1_555 1_555
S10 C10 1_555 1_555
S11 C12 1_555 1_555
S12 C12 1_555 1_555
S13 C13 1_555 1_555
S14 C14 1_555 1_555
C7 C8 1_555 1_555
C9 S8 1_555 1_555
C10 S7 1_555 1_555
C11 S9 1_555 1_555
C12 C11 1_555 1_555
C13 S11 1_555 1_555
C14 S12 1_555 1_555
C15 S13 1_555 1_555
C16 S14 1_555 1_555
S15 C17 1_555 1_555
S16 C18 1_555 1_555
S17 C19 1_555 1_555
S18 C20 1_555 1_555
S19 C22 1_555 1_555
S20 C22 1_555 1_555
S21 C23 1_555 1_555
S22 C24 1_555 1_555
C17 C18 1_555 1_555
C19 S16 1_555 1_555
C20 S15 1_555 1_555
C21 S17 1_555 1_555
C22 C21 1_555 1_555
C23 S20 1_555 1_555
C24 S19 1_555 1_555
C25 S22 1_555 1_555
C26 S21 1_555 1_555
C27 C28 1_555 1_555
C28 C29 1_555 1_555
C29 C30 1_555 1_555
C30 C31 1_555 1_555
C31 C32 1_555 1_555
C32 C27 1_555 1_555
N1 C27 1_555 1_555
C33 N1 1_555 1_555
C34 N1 1_555 1_555
C35 N1 1_555 1_555
N2 Na1 1_555 1_555
C36 N2 1_555 1_555
C37 C36 1_555 1_555
Na1_2 O3 1_555 1_555
Na1_3 O4 1_555 1_555
O3_2 Na1 1_555 1_555
O4_2 Na1 1_555 1_555
O5_2 Na1 1_555 1_555
O6_2 Na1 1_555 1_555
O5 Na1_2 1_555 1_555
O6 Na1_3 1_555 1_555
C1 C2 1_555 1_555
C3 C6 1_555 1_555
C4 C5 1_555 1_555
S10 C11 1_555 1_555
C9 C10 1_555 1_555
C13 C14 1_555 1_555
C15 C16 1_555 1_555
S18 C21 1_555 1_555
C19 C20 1_555 1_555
C23 C24 1_555 1_555
C25 C26 1_555 1_555

#END
