
#######################################################################
#
#                 Cambridge Crystallographic Data Centre
#                                CCDC 
#
#######################################################################
#
# If this CIF has been generated from an entry in the Cambridge 
# Structural Database, then it will include bibliographic, chemical, 
# crystal, experimental, refinement or atomic coordinate data resulting 
# from the CCDC's data processing and validation procedures.
#
#######################################################################

data_FEDJUT
_symmetry_cell_setting           triclinic
_symmetry_space_group_name_H-M   'P -1'
_symmetry_Int_Tables_number      2
_space_group_name_Hall           '-P 1'
loop_
_symmetry_equiv_pos_site_id
_symmetry_equiv_pos_as_xyz
1 x,y,z
2 -x,-y,-z
_cell_length_a                   11.834(3)
_cell_length_b                   10.237(4)
_cell_length_c                   6.309(2)
_cell_angle_alpha                88.46(3)
_cell_angle_beta                 90.77(3)
_cell_angle_gamma                111.96(3)
_cell_volume                     708.587
loop_
_atom_site_label
_atom_site_type_symbol
_atom_site_fract_x
_atom_site_fract_y
_atom_site_fract_z
Rb1 Rb 0.12456(4) 0.05015(4) 0.24779(7)
O1 O 0.2739(3) -0.6366(3) 0.5727(4)
C1 C 0.2248(3) -0.5415(3) 0.5999(6)
C2 C 0.2071(4) -0.4603(4) 0.4297(7)
C3 C 0.1513(4) -0.3666(4) 0.4594(6)
C4 C 0.1136(3) -0.3519(3) 0.6586(6)
N1 N 0.0518(3) -0.2562(3) 0.6891(6)
O2 O 0.0333(3) -0.1910(3) 0.5350(5)
O3 O 0.0185(3) -0.2434(3) 0.8688(5)
C5 C 0.1318(4) -0.4273(4) 0.8312(6)
C6 C 0.1878(4) -0.5218(4) 0.8006(6)
O4 O 0.3374(3) 0.3507(3) 0.2099(5)
C7 C 0.4208(4) 0.2951(4) 0.1878(6)
C8 C 0.4686(4) 0.2952(4) -0.0132(7)
C9 C 0.5493(4) 0.2308(4) -0.0431(7)
C10 C 0.5834(3) 0.1661(4) 0.1263(6)
N2 N 0.6666(3) 0.0953(3) 0.0956(7)
O5 O 0.7072(3) 0.0946(3) -0.0815(6)
O6 O 0.6931(3) 0.0357(3) 0.2498(5)
C11 C 0.5401(4) 0.1681(4) 0.3267(7)
C12 C 0.4598(4) 0.2321(4) 0.3568(7)
O7 O 0.1414(3) 0.1039(4) -0.2200(7)
H1 H 0.236(3) -0.466(3) 0.297(6)
H2 H 0.139(3) -0.317(3) 0.346(6)
H3 H 0.105(3) -0.420(3) 0.978(5)
H4 H 0.202(3) -0.571(3) 0.918(5)
H5 H 0.320(5) 0.369(6) 0.39(1)
H6 H 0.440(4) 0.338(4) -0.131(6)
H7 H 0.586(3) 0.236(4) -0.177(6)
H8 H 0.560(3) 0.125(3) 0.430(6)
H9 H 0.431(4) 0.238(4) 0.496(7)
H10 H 0.163(4) 0.165(4) -0.259(7)
H11 H 0.183(5) 0.060(5) -0.200(9)
Rb1A Rb -0.12456(4) -0.05015(4) -0.24779(7)
Rb1A_2 Rb -0.12456(4) -0.05015(4) 0.75221(7)
O2A O -0.0333(3) 0.1910(3) 0.4650(5)
O7A O -0.1414(3) -0.1039(4) 0.2200(7)
O3A O -0.0185(3) 0.2434(3) 0.1312(5)
N1A N -0.0518(3) 0.2562(3) 0.3109(6)
O5A O 0.2928(3) -0.0946(3) 0.0815(6)
H10A H -0.163(4) -0.165(4) 0.259(7)
H11A H -0.183(5) -0.060(5) 0.200(9)
Rb1A_3 Rb 0.87544(4) -0.05015(4) -0.24779(7)
loop_
_geom_bond_atom_site_label_1
_geom_bond_atom_site_label_2
_geom_bond_site_symmetry_1
_geom_bond_site_symmetry_2
Rb1 O2 1_555 1_555
O1 C1 1_555 1_555
C1 C2 1_555 1_555
C2 C3 1_555 1_555
C3 C4 1_555 1_555
C4 N1 1_555 1_555
N1 O2 1_555 1_555
O2 Rb1A_2 1_555 1_555
O3 N1 1_555 1_555
C5 C4 1_555 1_555
C6 C1 1_555 1_555
O4 Rb1 1_555 1_555
C7 O4 1_555 1_555
C8 C7 1_555 1_555
C9 C8 1_555 1_555
C10 C9 1_555 1_555
N2 C10 1_555 1_555
O5 N2 1_555 1_555
O6 N2 1_555 1_555
C11 C10 1_555 1_555
C12 C7 1_555 1_555
O7 Rb1 1_555 1_555
H1 C2 1_555 1_555
H2 C3 1_555 1_555
H3 C5 1_555 1_555
H4 C6 1_555 1_555
H5 O4 1_555 1_555
H6 C8 1_555 1_555
H7 C9 1_555 1_555
H8 C11 1_555 1_555
H9 C12 1_555 1_555
H10 O7 1_555 1_555
H11 O7 1_555 1_555
Rb1A O7 1_555 1_555
Rb1A_2 O3 1_555 1_555
O2A Rb1 1_555 1_555
O7A Rb1 1_555 1_555
O3A Rb1 1_555 1_555
N1A O2A 1_555 1_555
O5A Rb1 1_555 1_555
H10A O7A 1_555 1_555
H11A O7A 1_555 1_555
Rb1A_3 O5 1_555 1_555
C5 C6 1_555 1_555
C11 C12 1_555 1_555
Rb1A O7A 1_555 1_555
Rb1A_2 O2A 1_555 1_555
O3A N1A 1_555 1_555

#END
