
#######################################################################
#
#                 Cambridge Crystallographic Data Centre
#                                CCDC 
#
#######################################################################
#
# If this CIF has been generated from an entry in the Cambridge 
# Structural Database, then it will include bibliographic, chemical, 
# crystal, experimental, refinement or atomic coordinate data resulting 
# from the CCDC's data processing and validation procedures.
#
#######################################################################

data_FEDKAA
_symmetry_cell_setting           triclinic
_symmetry_space_group_name_H-M   'P -1'
_symmetry_Int_Tables_number      2
_space_group_name_Hall           '-P 1'
loop_
_symmetry_equiv_pos_site_id
_symmetry_equiv_pos_as_xyz
1 x,y,z
2 -x,-y,-z
_cell_length_a                   12.133(5)
_cell_length_b                   10.222(3)
_cell_length_c                   6.338(2)
_cell_angle_alpha                90.46(2)
_cell_angle_beta                 93.60(3)
_cell_angle_gamma                111.93(2)
_cell_volume                     727.323
loop_
_atom_site_label
_atom_site_type_symbol
_atom_site_fract_x
_atom_site_fract_y
_atom_site_fract_z
Cs1 Cs 0.13032(2) 0.03912(2) 0.25446(3)
O1 O -0.2773(2) 0.6315(2) 0.4151(3)
C1 C -0.2265(2) 0.5408(3) 0.3862(4)
C2 C -0.2062(3) 0.4597(3) 0.5524(5)
C3 C -0.1487(3) 0.3690(3) 0.5203(5)
C4 C -0.1114(2) 0.3554(3) 0.3226(4)
N1 N -0.0501(2) 0.2621(2) 0.2896(4)
O2 O -0.0267(2) 0.2001(2) 0.4425(4)
O3 O -0.0218(2) 0.2452(2) 0.1114(4)
C5 C -0.1316(3) 0.4321(3) 0.1552(5)
C6 C -0.1884(3) 0.5232(3) 0.1873(5)
O4 O 0.3496(2) 0.3709(3) 0.2299(4)
C7 C 0.4260(2) 0.3081(3) 0.2086(5)
C8 C 0.4707(3) 0.3078(4) 0.0115(5)
C9 C 0.5476(3) 0.2392(3) -0.0182(6)
C10 C 0.5790(2) 0.1711(3) 0.1484(5)
N2 N 0.6577(2) 0.0968(3) 0.1174(6)
O5 O 0.6964(2) 0.0981(3) -0.0578(5)
O6 O 0.6839(2) 0.0352(3) 0.2673(5)
C11 C 0.5374(3) 0.1723(3) 0.3458(6)
C12 C 0.4607(3) 0.2403(3) 0.3759(5)
O7 O -0.1568(2) -0.1133(3) 0.2247(4)
H1 H -0.229(2) 0.465(3) 0.690(5)
H2 H -0.135(2) 0.318(3) 0.625(5)
H3 H -0.108(2) 0.422(3) 0.023(5)
H4 H -0.200(3) 0.576(3) 0.075(5)
H5 H 0.324(3) 0.372(4) 0.372(7)
H6 H 0.450(3) 0.355(4) -0.106(6)
H7 H 0.579(3) 0.244(3) -0.150(5)
H8 H 0.559(3) 0.127(3) 0.461(5)
H9 H 0.434(3) 0.243(3) 0.514(5)
H10 H -0.197(3) -0.197(4) 0.264(6)
H11 H -0.204(3) -0.080(4) 0.221(6)
O2A O 0.0267(2) -0.2001(2) 0.5575(4)
O3A O 0.0218(2) -0.2452(2) -0.1114(4)
O5A O 0.3036(2) -0.0981(3) 0.0578(5)
O7A O 0.1568(2) 0.1133(3) 0.7753(4)
H10A H 0.197(3) 0.197(4) 0.736(6)
H11A H 0.204(3) 0.080(4) 0.779(6)
O7A_2 O 0.1568(2) 0.1133(3) -0.2247(4)
H10A_2 H 0.197(3) 0.197(4) -0.264(6)
H11A_2 H 0.204(3) 0.080(4) -0.221(6)
Cs1A Cs -0.13032(2) -0.03912(2) 0.74554(3)
Cs1A_2 Cs -0.13032(2) -0.03912(2) -0.25446(3)
Cs1A_3 Cs 0.86968(2) -0.03912(2) -0.25446(3)
loop_
_geom_bond_atom_site_label_1
_geom_bond_atom_site_label_2
_geom_bond_site_symmetry_1
_geom_bond_site_symmetry_2
Cs1 O2 1_555 1_555
O1 C1 1_555 1_555
C1 C2 1_555 1_555
C2 C3 1_555 1_555
C3 C4 1_555 1_555
C4 N1 1_555 1_555
N1 O2 1_555 1_555
O2 Cs1A 1_555 1_555
O3 Cs1 1_555 1_555
C5 C4 1_555 1_555
C6 C1 1_555 1_555
O4 Cs1 1_555 1_555
C7 O4 1_555 1_555
C8 C7 1_555 1_555
C9 C8 1_555 1_555
C10 C9 1_555 1_555
N2 C10 1_555 1_555
O5 N2 1_555 1_555
O6 N2 1_555 1_555
C11 C10 1_555 1_555
C12 C7 1_555 1_555
O7 Cs1 1_555 1_555
H1 C2 1_555 1_555
H2 C3 1_555 1_555
H3 C5 1_555 1_555
H4 C6 1_555 1_555
H5 O4 1_555 1_555
H6 C8 1_555 1_555
H7 C9 1_555 1_555
H8 C11 1_555 1_555
H9 C12 1_555 1_555
H10 O7 1_555 1_555
H11 O7 1_555 1_555
O2A Cs1 1_555 1_555
O3A Cs1 1_555 1_555
O5A Cs1 1_555 1_555
O7A Cs1 1_555 1_555
H10A O7A 1_555 1_555
H11A O7A 1_555 1_555
O7A_2 Cs1 1_555 1_555
H10A_2 O7A_2 1_555 1_555
H11A_2 O7A_2 1_555 1_555
Cs1A O7 1_555 1_555
Cs1A_2 O3 1_555 1_555
Cs1A_3 O5 1_555 1_555
N1 O3 1_555 1_555
C5 C6 1_555 1_555
C11 C12 1_555 1_555
O7 Cs1A_2 1_555 1_555
O2A Cs1A 1_555 1_555
O3A Cs1A_2 1_555 1_555
O7A Cs1A 1_555 1_555
O7A_2 Cs1A_2 1_555 1_555

#END
