
#######################################################################
#
#                 Cambridge Crystallographic Data Centre
#                                CCDC 
#
#######################################################################
#
# If this CIF has been generated from an entry in the Cambridge 
# Structural Database, then it will include bibliographic, chemical, 
# crystal, experimental, refinement or atomic coordinate data resulting 
# from the CCDC's data processing and validation procedures.
#
#######################################################################

data_FEDQEK
_symmetry_cell_setting           monoclinic
_symmetry_space_group_name_H-M   'C 2'
_symmetry_Int_Tables_number      5
_space_group_name_Hall           'C 2y'
loop_
_symmetry_equiv_pos_site_id
_symmetry_equiv_pos_as_xyz
1 x,y,z
2 -x,y,-z
3 1/2+x,1/2+y,z
4 1/2-x,1/2+y,-z
_cell_length_a                   25.92(1)
_cell_length_b                   7.176(3)
_cell_length_c                   3.660(4)
_cell_angle_alpha                90
_cell_angle_beta                 93.66(5)
_cell_angle_gamma                90
_cell_volume                     679.379
loop_
_atom_site_label
_atom_site_type_symbol
_atom_site_fract_x
_atom_site_fract_y
_atom_site_fract_z
Ca1 Ca 0.5000 0.5000 0.0000
O1 O 0.5553(2) 0.516(2) 0.520(1)
C1 C 0.6037(4) 0.475(2) 0.548(2)
C2 C 0.6271(4) 0.307(2) 0.440(3)
N1 N 0.5941(4) 0.166(2) 0.267(2)
O2 O 0.5516(3) 0.206(1) 0.110(2)
O3 O 0.6109(4) 0.006(2) 0.268(3)
C3 C 0.6790(5) 0.270(2) 0.490(3)
C4 C 0.7114(5) 0.398(2) 0.640(3)
C5 C 0.6913(5) 0.569(2) 0.745(3)
C6 C 0.6398(4) 0.607(2) 0.707(3)
O4 O 0.5000 0.829(2) 0.0000
H1 H 0.6922 0.1466 0.4193
H2 H 0.7478 0.3698 0.6745
H3 H 0.7155 0.6614 0.8395
H4 H 0.6272 0.7306 0.7580
O1_2 O 0.5553(2) 0.516(2) -0.480(1)
O1A O 0.4447(2) 0.516(2) -0.520(1)
O1A_2 O 0.4447(2) 0.516(2) 0.480(1)
O2A O 0.4484(3) 0.206(1) -0.110(2)
Ca1_2 Ca 0.5000 0.5000 1.0000
Ca1_3 Ca 0.5000 0.5000 -1.0000
C1A C 0.3963(4) 0.475(2) -0.548(2)
N1A N 0.4059(4) 0.166(2) -0.267(2)
C2A C 0.3729(4) 0.307(2) -0.440(3)
C6A C 0.3602(4) 0.607(2) -0.707(3)
O3A O 0.3891(4) 0.006(2) -0.268(3)
C3A C 0.3210(5) 0.270(2) -0.490(3)
C5A C 0.3087(5) 0.569(2) -0.745(3)
H4A H 0.3728 0.7306 -0.7580
C4A C 0.2886(5) 0.398(2) -0.640(3)
H1A H 0.3078 0.1466 -0.4193
H3A H 0.2845 0.6614 -0.8395
H2A H 0.2522 0.3698 -0.6745
loop_
_geom_bond_atom_site_label_1
_geom_bond_atom_site_label_2
_geom_bond_site_symmetry_1
_geom_bond_site_symmetry_2
Ca1 O1 1_555 1_555
O1 C1 1_555 1_555
C1 C2 1_555 1_555
C2 N1 1_555 1_555
N1 O2 1_555 1_555
O2 Ca1 1_555 1_555
O3 N1 1_555 1_555
C3 C2 1_555 1_555
C4 C3 1_555 1_555
C5 C4 1_555 1_555
C6 C1 1_555 1_555
O4 Ca1 1_555 1_555
H1 C3 1_555 1_555
H2 C4 1_555 1_555
H3 C5 1_555 1_555
H4 C6 1_555 1_555
O1_2 Ca1 1_555 1_555
O1A Ca1 1_555 1_555
O1A_2 Ca1 1_555 1_555
O2A Ca1 1_555 1_555
Ca1_2 O1 1_555 1_555
Ca1_3 O1_2 1_555 1_555
C1A O1A 1_555 1_555
N1A O2A 1_555 1_555
C2A C1A 1_555 1_555
C6A C1A 1_555 1_555
O3A N1A 1_555 1_555
C3A C2A 1_555 1_555
C5A C6A 1_555 1_555
H4A C6A 1_555 1_555
C4A C3A 1_555 1_555
H1A C3A 1_555 1_555
H3A C5A 1_555 1_555
H2A C4A 1_555 1_555
C5 C6 1_555 1_555
O1A Ca1_3 1_555 1_555
O1A_2 Ca1_2 1_555 1_555
N1A C2A 1_555 1_555
C5A C4A 1_555 1_555

#END
