
#######################################################################
#
#                 Cambridge Crystallographic Data Centre
#                                CCDC 
#
#######################################################################
#
# If this CIF has been generated from an entry in the Cambridge 
# Structural Database, then it will include bibliographic, chemical, 
# crystal, experimental, refinement or atomic coordinate data resulting 
# from the CCDC's data processing and validation procedures.
#
#######################################################################

data_FEDQOU
_symmetry_cell_setting           monoclinic
_symmetry_space_group_name_H-M   'C 2/c'
_symmetry_Int_Tables_number      15
_space_group_name_Hall           '-C 2yn'
loop_
_symmetry_equiv_pos_site_id
_symmetry_equiv_pos_as_xyz
1 x,y,z
2 -x,y,1/2-z
3 1/2+x,1/2+y,z
4 1/2-x,1/2+y,1/2-z
5 -x,-y,-z
6 x,-y,1/2+z
7 1/2-x,1/2-y,-z
8 1/2+x,1/2-y,1/2+z
_cell_length_a                   31.38(2)
_cell_length_b                   8.166(4)
_cell_length_c                   12.871(6)
_cell_angle_alpha                90
_cell_angle_beta                 102.54(4)
_cell_angle_gamma                90
_cell_volume                     3219.5
loop_
_atom_site_label
_atom_site_type_symbol
_atom_site_fract_x
_atom_site_fract_y
_atom_site_fract_z
Sr1 Sr 0.27211(3) 0.3243(1) 0.23830(6)
O1 O 0.3397(2) 0.4764(8) 0.3058(5)
C1 C 0.3812(3) 0.455(1) 0.3229(7)
C2 C 0.4027(3) 0.300(1) 0.3252(7)
N1 N 0.3804(2) 0.1491(9) 0.3113(6)
O2 O 0.3397(2) 0.1446(8) 0.2911(5)
O3 O 0.4007(2) 0.0192(9) 0.3205(6)
C3 C 0.4490(3) 0.292(1) 0.3446(9)
C4 C 0.4737(3) 0.426(2) 0.361(1)
C5 C 0.4536(3) 0.581(2) 0.362(1)
C6 C 0.4096(3) 0.593(1) 0.3449(8)
O7 O 0.2571(2) 0.0971(7) 0.3690(4)
O8 O 0.2537(2) 0.0356(7) 0.1328(4)
O9 O 0.2976(2) 0.3345(7) 0.0559(4)
O10 O 0.1903(2) 0.2894(8) 0.2074(6)
H1 H 0.4635 0.1850 0.3490
H2 H 0.5055 0.4189 0.3712
H3 H 0.4717 0.6792 0.3769
H4 H 0.3960 0.6981 0.3467
H9 H 0.2344 0.1560 0.3705
H10 H 0.2777 0.0679 0.4415
H11 H 0.2299 0.0607 0.0517
H12 H 0.2632 -0.0606 0.0957
H13 H 0.3047 0.2378 0.0489
H14 H 0.3143 0.4212 0.0635
H15 H 0.1765 0.1811 0.1916
H16 H 0.1692 0.3758 0.1960
Sr1C Sr 0.22789(3) -0.1757(1) 0.26170(6)
O7C O 0.2429(2) 0.5971(7) 0.1310(4)
Sr1C_2 Sr 0.22789(3) 0.8243(1) 0.26170(6)
H9C H 0.2656 0.6560 0.1295
H10C H 0.2223 0.5679 0.0585
O8C O 0.2463(2) 0.5356(7) 0.3672(4)
H11C H 0.2701 0.5607 0.4483
H12C H 0.2368 0.4394 0.4043
O4 O 0.3206(2) -0.0279(8) 0.5250(5)
C7 C 0.3617(3) 0.007(1) 0.5496(6)
C8 C 0.3795(3) 0.165(1) 0.5683(7)
N2 N 0.3526(2) 0.3066(9) 0.5612(6)
O5 O 0.3120(2) 0.2933(8) 0.5345(9)
O6 O 0.3694(2) 0.4441(8) 0.5791(6)
C9 C 0.4246(3) 0.195(1) 0.5948(8)
C10 C 0.4527(3) 0.070(2) 0.603(1)
C11 C 0.4367(3) -0.092(1) 0.585(1)
C12 C 0.3936(3) -0.120(1) 0.5585(9)
H5 H 0.4365 0.3056 0.6084
H6 H 0.4844 0.0875 0.6227
H7 H 0.4582 -0.1790 0.5913
H8 H 0.3832 -0.2345 0.5436
loop_
_geom_bond_atom_site_label_1
_geom_bond_atom_site_label_2
_geom_bond_site_symmetry_1
_geom_bond_site_symmetry_2
Sr1 O1 1_555 1_555
O1 C1 1_555 1_555
C1 C2 1_555 1_555
C2 N1 1_555 1_555
N1 O2 1_555 1_555
O2 Sr1 1_555 1_555
O3 N1 1_555 1_555
C3 C2 1_555 1_555
C4 C3 1_555 1_555
C5 C4 1_555 1_555
C6 C1 1_555 1_555
O4 C7 1_555 1_555
C7 C8 1_555 1_555
C8 N2 1_555 1_555
N2 O5 1_555 1_555
O6 N2 1_555 1_555
C9 C8 1_555 1_555
C10 C9 1_555 1_555
C11 C10 1_555 1_555
C12 C7 1_555 1_555
O7 Sr1 1_555 1_555
O8 Sr1 1_555 1_555
O9 Sr1 1_555 1_555
O10 Sr1 1_555 1_555
H1 C3 1_555 1_555
H2 C4 1_555 1_555
H3 C5 1_555 1_555
H4 C6 1_555 1_555
H5 C9 1_555 1_555
H6 C10 1_555 1_555
H7 C11 1_555 1_555
H8 C12 1_555 1_555
H9 O7 1_555 1_555
H10 O7 1_555 1_555
H11 O8 1_555 1_555
H12 O8 1_555 1_555
H13 O9 1_555 1_555
H14 O9 1_555 1_555
H15 O10 1_555 1_555
H16 O10 1_555 1_555
Sr1C O7 1_555 1_555
O7C Sr1 1_555 1_555
Sr1C_2 O7C 1_555 1_555
H9C O7C 1_555 1_555
H10C O7C 1_555 1_555
O8C Sr1 1_555 1_555
H11C O8C 1_555 1_555
H12C O8C 1_555 1_555
C5 C6 1_555 1_555
C11 C12 1_555 1_555
O8 Sr1C 1_555 1_555
Sr1C_2 O8C 1_555 1_555

#END
