
#######################################################################
#
#                 Cambridge Crystallographic Data Centre
#                                CCDC 
#
#######################################################################
#
# If this CIF has been generated from an entry in the Cambridge 
# Structural Database, then it will include bibliographic, chemical, 
# crystal, experimental, refinement or atomic coordinate data resulting 
# from the CCDC's data processing and validation procedures.
#
#######################################################################

data_FEDSIQ
_symmetry_cell_setting           monoclinic
_symmetry_space_group_name_H-M   'P 21/c'
_symmetry_Int_Tables_number      14
_space_group_name_Hall           '-P 2ybc'
loop_
_symmetry_equiv_pos_site_id
_symmetry_equiv_pos_as_xyz
1 x,y,z
2 -x,1/2+y,1/2-z
3 -x,-y,-z
4 x,1/2-y,1/2+z
_cell_length_a                   13.109(8)
_cell_length_b                   3.644(1)
_cell_length_c                   21.181(8)
_cell_angle_alpha                90
_cell_angle_beta                 125.55(3)
_cell_angle_gamma                90
_cell_volume                     823.208
loop_
_atom_site_label
_atom_site_type_symbol
_atom_site_fract_x
_atom_site_fract_y
_atom_site_fract_z
Ca1 Ca 0.0000 -1.5000 0.5000
O1 O -0.1307(2) -0.9956(6) 0.4702(1)
C1 C 0.2507(2) -0.9754(9) 0.5590(2)
C2 C 0.2902(3) -0.8363(9) 0.5145(2)
C3 C 0.4145(3) -0.8005(9) 0.5451(2)
C4 C 0.5033(2) -0.9105(8) 0.6210(2)
N1 N 0.6349(2) -0.8634(9) 0.6548(2)
O2 O 0.7122(2) -0.978(1) 0.7207(1)
O3 O 0.6664(2) -0.7145(9) 0.6160(1)
C5 C 0.4687(3) -1.0557(9) 0.6664(2)
C6 C 0.3434(3) -1.0871(8) 0.6356(2)
O4 O -0.0513(3) -1.476(1) 0.3728(2)
H1 H 0.224(3) -0.760(9) 0.463(2)
H2 H 0.437(2) -0.708(8) 0.513(2)
H3 H 0.534(3) -1.13(1) 0.720(2)
H4 H 0.318(2) -1.186(9) 0.671(2)
H5 H -0.028(7) -1.38(3) 0.352(5)
H6 H -0.105(5) -1.58(2) 0.340(3)
Ca1_2 Ca 0.0000 -0.5000 0.5000
O1_2 O -0.1307(2) -1.9956(6) 0.4702(1)
Ca1_3 Ca 0.0000 -2.5000 0.5000
O1B O 0.1307(2) -2.0044(6) 0.5298(1)
O1B_2 O 0.1307(2) -1.0044(6) 0.5298(1)
O4B O 0.0513(3) -1.524(1) 0.6272(2)
H5B H 0.028(7) -1.62(3) 0.648(5)
H6B H 0.105(5) -1.42(2) 0.660(3)
C1B C -0.2507(2) -1.0246(9) 0.4410(2)
C2B C -0.2902(3) -1.1637(9) 0.4855(2)
C3B C -0.4145(3) -1.1995(9) 0.4549(2)
C4B C -0.5033(2) -1.0895(8) 0.3790(2)
N1B N -0.6349(2) -1.1366(9) 0.3452(2)
O2B O -0.7122(2) -1.022(1) 0.2793(1)
O3B O -0.6664(2) -1.2855(9) 0.3840(1)
C5B C -0.4687(3) -0.9443(9) 0.3336(2)
C6B C -0.3434(3) -0.9129(8) 0.3644(2)
H4B H -0.318(2) -0.814(9) 0.329(2)
H3B H -0.534(3) -0.87(1) 0.280(2)
H2B H -0.437(2) -1.292(8) 0.487(2)
H1B H -0.224(3) -1.240(9) 0.537(2)
O5 O -0.0676(3) 0.269(2) 0.6945(2)
loop_
_geom_bond_atom_site_label_1
_geom_bond_atom_site_label_2
_geom_bond_site_symmetry_1
_geom_bond_site_symmetry_2
Ca1 O1 1_555 1_555
O1 Ca1_2 1_555 1_555
C1 C2 1_555 1_555
C2 C3 1_555 1_555
C3 C4 1_555 1_555
C4 N1 1_555 1_555
N1 O2 1_555 1_555
O3 N1 1_555 1_555
C5 C4 1_555 1_555
C6 C1 1_555 1_555
O4 Ca1 1_555 1_555
H1 C2 1_555 1_555
H2 C3 1_555 1_555
H3 C5 1_555 1_555
H4 C6 1_555 1_555
H5 O4 1_555 1_555
H6 O4 1_555 1_555
Ca1_2 O1B_2 1_555 1_555
O1_2 Ca1 1_555 1_555
Ca1_3 O1_2 1_555 1_555
O1B Ca1 1_555 1_555
O1B_2 Ca1 1_555 1_555
O4B Ca1 1_555 1_555
H5B O4B 1_555 1_555
H6B O4B 1_555 1_555
C1B O1 1_555 1_555
C2B C1B 1_555 1_555
C3B C2B 1_555 1_555
C4B C3B 1_555 1_555
N1B C4B 1_555 1_555
O2B N1B 1_555 1_555
O3B N1B 1_555 1_555
C5B C4B 1_555 1_555
C6B C1B 1_555 1_555
H4B C6B 1_555 1_555
H3B C5B 1_555 1_555
H2B C3B 1_555 1_555
H1B C2B 1_555 1_555
C1 O1B_2 1_555 1_555
C5 C6 1_555 1_555
Ca1_3 O1B 1_555 1_555
C5B C6B 1_555 1_555

#END
