
#######################################################################
#
#                 Cambridge Crystallographic Data Centre
#                                CCDC 
#
#######################################################################
#
# If this CIF has been generated from an entry in the Cambridge 
# Structural Database, then it will include bibliographic, chemical, 
# crystal, experimental, refinement or atomic coordinate data resulting 
# from the CCDC's data processing and validation procedures.
#
#######################################################################

data_FEFFED
_symmetry_cell_setting           monoclinic
_symmetry_space_group_name_H-M   'P 21/n'
_symmetry_Int_Tables_number      14
_space_group_name_Hall           '-P 2yn'
loop_
_symmetry_equiv_pos_site_id
_symmetry_equiv_pos_as_xyz
1 x,y,z
2 1/2-x,1/2+y,1/2-z
3 -x,-y,-z
4 1/2+x,1/2-y,1/2+z
_cell_length_a                   14.1464(16)
_cell_length_b                   10.7476(12)
_cell_length_c                   18.141(2)
_cell_angle_alpha                90
_cell_angle_beta                 97.938(2)
_cell_angle_gamma                90
_cell_volume                     2731.73
loop_
_atom_site_label
_atom_site_type_symbol
_atom_site_fract_x
_atom_site_fract_y
_atom_site_fract_z
Co1 Co 0.47071(4) 1.01779(5) 0.19597(3)
Br1 Br 0.32360(3) 1.03554(4) 0.11360(2)
C1 C 0.5620(3) 0.8665(4) 0.0907(2)
H1 H 0.5465 0.9371 0.0599
C2 C 0.6066(3) 0.7689(4) 0.06201(19)
H2 H 0.6201 0.7718 0.0122
C3 C 0.6325(2) 0.6643(4) 0.10637(19)
C4 C 0.6096(3) 0.6656(4) 0.17911(19)
H3 H 0.6259 0.5969 0.2114
C5 C 0.5632(3) 0.7677(4) 0.2034(2)
H4 H 0.5479 0.7671 0.2528
C6 C 0.5583(2) 0.3668(3) 0.11579(19)
H5 H 0.5260 0.4344 0.0896
C7 C 0.6575(2) 0.3697(3) 0.13603(19)
C8 C 0.7002(2) 0.2666(4) 0.1735(2)
H6 H 0.7674 0.2645 0.1876
C9 C 0.6455(2) 0.1685(4) 0.1900(2)
H7 H 0.6760 0.0990 0.2154
C10 C 0.5090(2) 0.2654(3) 0.13437(17)
H8 H 0.4419 0.2648 0.1201
C11 C 0.5147(2) 0.9986(3) 0.3423(2)
C12 C 0.5076(2) 0.9985(3) 0.42429(19)
C13 C 0.5856(3) 1.0020(7) 0.4767(3)
H9 H 0.6470 1.0038 0.4611
C14 C 0.4208(3) 0.9970(6) 0.4485(2)
H10 H 0.3644 0.9953 0.4135
N1 N 0.5385(2) 0.8687(3) 0.16024(16)
N2 N 0.6769(2) 0.5679(3) 0.07802(17)
H11 H 0.6833 0.5682 0.0304
N3 N 0.7130(2) 0.4678(3) 0.12215(19)
H12 H 0.7736 0.4682 0.1416
N4 N 0.5486(2) 0.1662(3) 0.17143(15)
O1 O 0.43774(18) 1.0036(3) 0.29770(14)
O2 O 0.59464(19) 0.9944(3) 0.32033(15)
Co1B Co 0.52929(4) 0.98221(5) 0.80403(3)
Co1_2 Co 0.47071(4) 0.01779(5) 0.19597(3)
Co1B_2 Co 0.52929(4) 1.98221(5) 0.80403(3)
Br1B Br 0.67640(3) 0.96446(4) 0.88640(2)
C1B C 0.4380(3) 1.1335(4) 0.9093(2)
H1B H 0.4535 1.0629 0.9401
C2B C 0.3934(3) 1.2311(4) 0.93799(19)
H2B H 0.3799 1.2282 0.9878
C3B C 0.3675(2) 1.3357(4) 0.89363(19)
C4B C 0.3904(3) 1.3344(4) 0.82089(19)
H3B H 0.3741 1.4031 0.7886
C5B C 0.4368(3) 1.2323(4) 0.7966(2)
H4B H 0.4521 1.2329 0.7472
C6B C 0.4417(2) 1.6332(3) 0.88421(19)
H5B H 0.4740 1.5656 0.9104
C7B C 0.3425(2) 1.6303(3) 0.86397(19)
C8B C 0.2998(2) 1.7334(4) 0.8265(2)
H6B H 0.2326 1.7355 0.8124
C9B C 0.3545(2) 1.8315(4) 0.8100(2)
H7B H 0.3240 1.9010 0.7846
C10B C 0.4910(2) 1.7346(3) 0.86563(17)
H8B H 0.5581 1.7352 0.8799
C11B C 0.4853(2) 1.0014(3) 0.6577(2)
C12B C 0.4924(2) 1.0015(3) 0.57571(19)
C13B C 0.4144(3) 0.9980(7) 0.5233(3)
H9B H 0.3530 0.9962 0.5389
C14B C 0.5792(3) 1.0030(6) 0.5515(2)
H10B H 0.6356 1.0047 0.5865
N1B N 0.4615(2) 1.1313(3) 0.83976(16)
N2B N 0.3231(2) 1.4321(3) 0.92198(17)
H11B H 0.3167 1.4318 0.9696
N3B N 0.2870(2) 1.5322(3) 0.87785(19)
H12B H 0.2264 1.5318 0.8584
N4B N 0.4514(2) 1.8338(3) 0.82857(15)
N4_2 N 0.5486(2) 1.1662(3) 0.17143(15)
N4B_2 N 0.4514(2) 0.8338(3) 0.82857(15)
O1B O 0.56226(18) 0.9964(3) 0.70230(14)
O2B O 0.40536(19) 1.0056(3) 0.67967(15)
loop_
_geom_bond_atom_site_label_1
_geom_bond_atom_site_label_2
_geom_bond_site_symmetry_1
_geom_bond_site_symmetry_2
Co1 Br1 1_555 1_555
C1 H1 1_555 1_555
C2 C1 1_555 1_555
H2 C2 1_555 1_555
C3 C2 1_555 1_555
C4 C3 1_555 1_555
H3 C4 1_555 1_555
C5 C4 1_555 1_555
H4 C5 1_555 1_555
C6 H5 1_555 1_555
C7 C6 1_555 1_555
C8 C7 1_555 1_555
H6 C8 1_555 1_555
C9 C8 1_555 1_555
H7 C9 1_555 1_555
C10 C6 1_555 1_555
H8 C10 1_555 1_555
C11 C12 1_555 1_555
C12 C13 1_555 1_555
C13 H9 1_555 1_555
C14 C12 1_555 1_555
H10 C14 1_555 1_555
N1 Co1 1_555 1_555
N2 C3 1_555 1_555
H11 N2 1_555 1_555
N3 C7 1_555 1_555
H12 N3 1_555 1_555
N4 C9 1_555 1_555
O1 Co1 1_555 1_555
O2 C11 1_555 1_555
Co1B Br1B 1_555 1_555
Co1_2 N4 1_555 1_555
Co1B_2 N4B 1_555 1_555
C1B H1B 1_555 1_555
C2B C1B 1_555 1_555
H2B C2B 1_555 1_555
C3B C2B 1_555 1_555
C4B C3B 1_555 1_555
H3B C4B 1_555 1_555
C5B C4B 1_555 1_555
H4B C5B 1_555 1_555
C6B H5B 1_555 1_555
C7B C6B 1_555 1_555
C8B C7B 1_555 1_555
H6B C8B 1_555 1_555
C9B C8B 1_555 1_555
H7B C9B 1_555 1_555
C10B C6B 1_555 1_555
H8B C10B 1_555 1_555
C11B C12B 1_555 1_555
C12B C13B 1_555 1_555
C13B C14 1_555 1_555
H9B C13B 1_555 1_555
C14B C13 1_555 1_555
H10B C14B 1_555 1_555
N1B Co1B 1_555 1_555
N2B C3B 1_555 1_555
H11B N2B 1_555 1_555
N3B C7B 1_555 1_555
H12B N3B 1_555 1_555
N4B C9B 1_555 1_555
N4_2 Co1 1_555 1_555
N4B_2 Co1B 1_555 1_555
O1B Co1B 1_555 1_555
O2B C11B 1_555 1_555
C1 N1 1_555 1_555
C5 N1 1_555 1_555
C10 N4 1_555 1_555
C11 O1 1_555 1_555
N2 N3 1_555 1_555
C1B N1B 1_555 1_555
C5B N1B 1_555 1_555
C10B N4B 1_555 1_555
C11B O1B 1_555 1_555
C12B C14B 1_555 1_555
N2B N3B 1_555 1_555

#END
