
#######################################################################
#
#                 Cambridge Crystallographic Data Centre
#                                CCDC 
#
#######################################################################
#
# If this CIF has been generated from an entry in the Cambridge 
# Structural Database, then it will include bibliographic, chemical, 
# crystal, experimental, refinement or atomic coordinate data resulting 
# from the CCDC's data processing and validation procedures.
#
#######################################################################

data_FEFFAZ
_symmetry_cell_setting           monoclinic
_symmetry_space_group_name_H-M   'P 21/n'
_symmetry_Int_Tables_number      14
_space_group_name_Hall           '-P 2yn'
loop_
_symmetry_equiv_pos_site_id
_symmetry_equiv_pos_as_xyz
1 x,y,z
2 1/2-x,1/2+y,1/2-z
3 -x,-y,-z
4 1/2+x,1/2-y,1/2+z
_cell_length_a                   10.1848(10)
_cell_length_b                   11.1036(11)
_cell_length_c                   19.1820(18)
_cell_angle_alpha                90
_cell_angle_beta                 94.397(2)
_cell_angle_gamma                90
_cell_volume                     2162.87
loop_
_atom_site_label
_atom_site_type_symbol
_atom_site_fract_x
_atom_site_fract_y
_atom_site_fract_z
Zn1 Zn 1.03176(3) 0.38055(3) 0.412390(16)
C1 C 0.7790(3) 0.3887(2) 0.44854(15)
C2 C 0.6620(3) 0.3579(2) 0.48864(15)
C3 C 0.5372(2) 0.3739(2) 0.45560(15)
H1 H 0.5293 0.4100 0.4106
C4 C 0.4235(3) 0.3392(2) 0.48581(14)
C5 C 0.4343(3) 0.2869(2) 0.55156(15)
H2 H 0.3582 0.2633 0.5738
C6 C 0.5603(3) 0.2697(2) 0.58414(15)
C7 C 0.6736(3) 0.3049(2) 0.55464(15)
H3 H 0.7576 0.2932 0.5788
C8 C 0.2926(3) 0.3539(2) 0.44443(15)
C9 C 0.9563(3) 0.6254(2) 0.36580(14)
H4 H 0.9049 0.6230 0.4051
C10 C 0.9491(3) 0.7270(2) 0.32414(14)
H5 H 0.8931 0.7920 0.3345
C11 C 1.0247(3) 0.7332(2) 0.26679(14)
C12 C 1.1024(3) 0.6327(2) 0.25285(15)
H6 H 1.1536 0.6320 0.2135
C13 C 1.1032(3) 0.5357(3) 0.29703(14)
H7 H 1.1568 0.4686 0.2874
C14 C 0.9625(3) 1.0235(3) 0.26807(15)
C15 C 0.8726(3) 1.1187(3) 0.26357(18)
H8 H 0.7955 1.1141 0.2325
C16 C 0.8965(3) 1.2185(3) 0.30437(17)
H9 H 0.8347 1.2826 0.3002
C17 C 1.0878(3) 1.1390(3) 0.35386(16)
H10 H 1.1637 1.1456 0.3856
C18 C 1.0731(3) 1.0349(3) 0.31470(15)
H11 H 1.1370 0.9726 0.3195
N1 N 1.0319(2) 0.53010(19) 0.35367(11)
N2 N 1.0031(2) 1.2313(2) 0.35036(12)
N3 N 0.9358(2) 0.9229(2) 0.22819(13)
H12 H 0.8588 0.9160 0.2044
N4 N 1.0280(2) 0.8320(2) 0.22472(13)
H13 H 1.0894 0.8380 0.1951
N5 N 0.5718(3) 0.2058(2) 0.65171(13)
O1 O 0.89331(18) 0.37417(17) 0.48026(10)
O2 O 0.75981(18) 0.42067(19) 0.38680(11)
O3 O 0.29107(18) 0.36794(18) 0.38053(10)
O4 O 0.18915(17) 0.34784(17) 0.47795(10)
O5 O 0.4719(2) 0.1634(3) 0.67333(13)
O6 O 0.6815(2) 0.1941(2) 0.68165(12)
Zn1_2 Zn 0.03176(3) 0.38055(3) 0.412390(16)
Zn1_3 Zn 1.03176(3) 1.38055(3) 0.412390(16)
N2_2 N 1.0031(2) 0.2313(2) 0.35036(12)
O4_2 O 1.18915(17) 0.34784(17) 0.47795(10)
loop_
_geom_bond_atom_site_label_1
_geom_bond_atom_site_label_2
_geom_bond_site_symmetry_1
_geom_bond_site_symmetry_2
Zn1 N1 1_555 1_555
C1 C2 1_555 1_555
C2 C3 1_555 1_555
C3 H1 1_555 1_555
C4 C3 1_555 1_555
C5 C4 1_555 1_555
H2 C5 1_555 1_555
C6 C5 1_555 1_555
C7 C2 1_555 1_555
H3 C7 1_555 1_555
C8 C4 1_555 1_555
C9 H4 1_555 1_555
C10 C9 1_555 1_555
H5 C10 1_555 1_555
C11 C10 1_555 1_555
C12 C11 1_555 1_555
H6 C12 1_555 1_555
C13 C12 1_555 1_555
H7 C13 1_555 1_555
C14 C15 1_555 1_555
C15 H8 1_555 1_555
C16 C15 1_555 1_555
H9 C16 1_555 1_555
C17 H10 1_555 1_555
C18 C14 1_555 1_555
H11 C18 1_555 1_555
N1 C9 1_555 1_555
N2 C16 1_555 1_555
N3 C14 1_555 1_555
H12 N3 1_555 1_555
N4 C11 1_555 1_555
H13 N4 1_555 1_555
N5 C6 1_555 1_555
O1 Zn1 1_555 1_555
O2 C1 1_555 1_555
O3 C8 1_555 1_555
O4 C8 1_555 1_555
O5 N5 1_555 1_555
O6 N5 1_555 1_555
Zn1_2 O4 1_555 1_555
Zn1_3 N2 1_555 1_555
N2_2 Zn1 1_555 1_555
O4_2 Zn1 1_555 1_555
C1 O1 1_555 1_555
C6 C7 1_555 1_555
C13 N1 1_555 1_555
C17 C18 1_555 1_555
C17 N2 1_555 1_555
N3 N4 1_555 1_555

#END
