
#######################################################################
#
#                 Cambridge Crystallographic Data Centre
#                                CCDC 
#
#######################################################################
#
# If this CIF has been generated from an entry in the Cambridge 
# Structural Database, then it will include bibliographic, chemical, 
# crystal, experimental, refinement or atomic coordinate data resulting 
# from the CCDC's data processing and validation procedures.
#
#######################################################################

data_FEFGED
_symmetry_cell_setting           monoclinic
_symmetry_space_group_name_H-M   'C 2/m'
_symmetry_Int_Tables_number      12
_space_group_name_Hall           '-C 2y'
loop_
_symmetry_equiv_pos_site_id
_symmetry_equiv_pos_as_xyz
1 x,y,z
2 1/2+x,1/2+y,z
3 -x,y,-z
4 1/2-x,1/2+y,-z
5 -x,-y,-z
6 1/2-x,1/2-y,-z
7 x,-y,z
8 1/2+x,1/2-y,z
_cell_length_a                   16.5198(16)
_cell_length_b                   7.3512(7)
_cell_length_c                   7.6309(6)
_cell_angle_alpha                90
_cell_angle_beta                 107.060(10)
_cell_angle_gamma                90
_cell_volume                     885.923
loop_
_atom_site_label
_atom_site_type_symbol
_atom_site_fract_x
_atom_site_fract_y
_atom_site_fract_z
Cd1 Cd 0.0000 0.0000 0.0000
Ni1 Ni 0.0000 0.5000 -0.5000
N1 N -0.14144(19) 0.0000 -0.0069(4)
N2 N -0.02489(17) 0.2183(3) -0.2346(3)
C1 C -0.2023(3) 0.0000 -0.1650(6)
H1 H -0.1875 0.0000 -0.2736
C2 C -0.2868(3) 0.0000 -0.1739(7)
H2 H -0.3282 0.0000 -0.2869
C3 C -0.3095(3) 0.0000 -0.0147(7)
H3 H -0.3664 0.0000 -0.0188
C4 C -0.2478(3) 0.0000 0.1496(8)
C5 C -0.1641(2) 0.0000 0.1464(5)
H4 H -0.1215 0.0000 0.2577
C6 C -0.2670(4) 0.0000 0.3295(10)
H5 H -0.2150 0.0000 0.4277
H6 H -0.2992 -0.1066 0.3381
H7 H -0.2992 0.1066 0.3381
C7 C -0.01635(16) 0.3228(3) -0.3393(3)
Ni1_2 Ni 0.0000 -0.5000 -0.5000
Ni1_3 Ni 0.0000 -0.5000 0.5000
Ni1_4 Ni 0.0000 0.5000 0.5000
N1D N 0.14144(19) 0.0000 0.0069(4)
N2F N -0.02489(17) -0.2183(3) -0.2346(3)
N2D N 0.02489(17) -0.2183(3) 0.2346(3)
N2B N 0.02489(17) 0.2183(3) 0.2346(3)
C1D C 0.2023(3) 0.0000 0.1650(6)
H1D H 0.1875 0.0000 0.2736
C2D C 0.2868(3) 0.0000 0.1739(7)
H2D H 0.3282 0.0000 0.2869
C3D C 0.3095(3) 0.0000 0.0147(7)
H3D H 0.3664 0.0000 0.0188
C4D C 0.2478(3) 0.0000 -0.1496(8)
C5D C 0.1641(2) 0.0000 -0.1464(5)
H4D H 0.1215 0.0000 -0.2577
C6D C 0.2670(4) 0.0000 -0.3295(10)
H5D H 0.2150 0.0000 -0.4277
H6D H 0.2992 0.1066 -0.3381
H7D H 0.2992 -0.1066 -0.3381
C7F C -0.01635(16) -0.3228(3) -0.3393(3)
C7D C 0.01635(16) -0.3228(3) 0.3393(3)
C7B C 0.01635(16) 0.3228(3) 0.3393(3)
C7F_2 C -0.01635(16) 0.6772(3) -0.3393(3)
C7D_2 C 0.01635(16) 0.6772(3) -0.6607(3)
C7B_2 C 0.01635(16) 0.3228(3) -0.6607(3)
loop_
_geom_bond_atom_site_label_1
_geom_bond_atom_site_label_2
_geom_bond_site_symmetry_1
_geom_bond_site_symmetry_2
Cd1 N1 1_555 1_555
Ni1 C7 1_555 1_555
N1 C1 1_555 1_555
N2 Cd1 1_555 1_555
C1 H1 1_555 1_555
C2 C1 1_555 1_555
H2 C2 1_555 1_555
C3 C2 1_555 1_555
H3 C3 1_555 1_555
C4 C3 1_555 1_555
C5 N1 1_555 1_555
H4 C5 1_555 1_555
C6 C4 1_555 1_555
H5 C6 1_555 1_555
H6 C6 1_555 1_555
H7 C6 1_555 1_555
C7 N2 1_555 1_555
Ni1_2 C7F 1_555 1_555
Ni1_3 C7D 1_555 1_555
Ni1_4 C7B 1_555 1_555
N1D Cd1 1_555 1_555
N2F Cd1 1_555 1_555
N2D Cd1 1_555 1_555
N2B Cd1 1_555 1_555
C1D N1D 1_555 1_555
H1D C1D 1_555 1_555
C2D C1D 1_555 1_555
H2D C2D 1_555 1_555
C3D C2D 1_555 1_555
H3D C3D 1_555 1_555
C4D C3D 1_555 1_555
C5D N1D 1_555 1_555
H4D C5D 1_555 1_555
C6D C4D 1_555 1_555
H5D C6D 1_555 1_555
H6D C6D 1_555 1_555
H7D C6D 1_555 1_555
C7F N2F 1_555 1_555
C7D N2D 1_555 1_555
C7B N2B 1_555 1_555
C7F_2 Ni1 1_555 1_555
C7D_2 Ni1 1_555 1_555
C7B_2 Ni1 1_555 1_555
C4 C5 1_555 1_555
C4D C5D 1_555 1_555

#END
