
#######################################################################
#
#                 Cambridge Crystallographic Data Centre
#                                CCDC 
#
#######################################################################
#
# If this CIF has been generated from an entry in the Cambridge 
# Structural Database, then it will include bibliographic, chemical, 
# crystal, experimental, refinement or atomic coordinate data resulting 
# from the CCDC's data processing and validation procedures.
#
#######################################################################

data_FEFGON
_symmetry_cell_setting           triclinic
_symmetry_space_group_name_H-M   'P -1'
_symmetry_Int_Tables_number      2
_space_group_name_Hall           '-P 1'
loop_
_symmetry_equiv_pos_site_id
_symmetry_equiv_pos_as_xyz
1 x,y,z
2 -x,-y,-z
_cell_length_a                   9.2510(3)
_cell_length_b                   16.4054(5)
_cell_length_c                   17.8005(5)
_cell_angle_alpha                113.0160(10)
_cell_angle_beta                 93.6840(10)
_cell_angle_gamma                101.9660(10)
_cell_volume                     2400.55
loop_
_atom_site_label
_atom_site_type_symbol
_atom_site_fract_x
_atom_site_fract_y
_atom_site_fract_z
Co1 Co 0.55270(8) 0.17831(5) 0.31724(4)
Cu1 Cu 0.5000 0.0000 0.5000
Cu2 Cu 0.5000 0.0000 0.0000
Cu3 Cu 0.5000 0.5000 0.5000
N1 N 0.3508(5) 0.0635(3) 0.5583(3)
N2 N 0.3333(5) -0.1146(3) 0.4627(3)
H1 H 0.3386 -0.1378 0.5013
N3 N 0.3584(5) 0.0793(3) 0.0303(3)
N4 N 0.3213(5) -0.1021(3) -0.0155(3)
H2 H 0.2767 -0.1244 -0.0691
N5 N 0.2875(5) 0.4346(3) 0.4527(3)
N6 N 0.4413(5) 0.5022(3) 0.6090(3)
H3 H 0.4117 0.5546 0.6343
N7 N 0.4186(7) 0.0344(4) 0.3781(4)
N8 N 0.5705(7) 0.0346(4) 0.1499(3)
N9 N 0.5426(7) 0.3435(4) 0.4715(3)
N10 N 0.8571(6) 0.1742(4) 0.3889(4)
N11 N 0.7111(7) 0.3306(5) 0.2726(4)
N12 N 0.2397(7) 0.1708(5) 0.2461(4)
C1 C 0.1936(6) -0.0843(4) 0.4645(4)
H4 H 0.1097 -0.1333 0.4601
H5 H 0.1761 -0.0686 0.4181
C2 C 0.2070(7) -0.0024(4) 0.5440(4)
H6 H 0.1256 0.0258 0.5412
H7 H 0.2009 -0.0210 0.5894
C3 C 0.3665(6) 0.1481(4) 0.5995(3)
C4 C 0.2457(8) 0.1917(5) 0.6368(5)
H8 H 0.1672 0.1464 0.6417
H9 H 0.2058 0.2167 0.6019
H10 H 0.2868 0.2398 0.6906
C5 C 0.5127(7) 0.2159(4) 0.6132(5)
H11 H 0.5187 0.2685 0.6646
H12 H 0.5102 0.2366 0.5692
C6 C 0.3435(6) -0.1855(4) 0.3828(4)
H13 H 0.3454 -0.1590 0.3421
C7 C 0.2119(7) -0.2700(4) 0.3513(4)
C8 C 0.1264(8) -0.2989(5) 0.2745(4)
H14 H 0.1434 -0.2640 0.2440
C9 C 0.0147(9) -0.3808(6) 0.2432(5)
H15 H -0.0448 -0.3991 0.1924
C10 C -0.0084(8) -0.4338(5) 0.2854(5)
H16 H -0.0807 -0.4893 0.2627
C11 C 0.0740(8) -0.4060(5) 0.3613(5)
H17 H 0.0575 -0.4426 0.3903
C12 C 0.1823(7) -0.3235(4) 0.3956(4)
H18 H 0.2353 -0.3039 0.4484
C13 C 0.2161(7) -0.0584(4) 0.0355(5)
H19 H 0.2498 -0.0433 0.0932
H20 H 0.1176 -0.1006 0.0190
C14 C 0.2079(7) 0.0257(4) 0.0252(5)
H21 H 0.1492 0.0095 -0.0281
H22 H 0.1589 0.0618 0.0680
C15 C 0.3835(7) 0.1657(4) 0.0511(3)
C16 C 0.2664(9) 0.2187(5) 0.0728(5)
H23 H 0.2265 0.2128 0.1194
H24 H 0.1872 0.1950 0.0264
H25 H 0.3106 0.2821 0.0864
C17 C 0.5368(7) 0.2210(4) 0.0568(4)
H26 H 0.5850 0.2451 0.1139
H27 H 0.5250 0.2732 0.0462
C18 C 0.3544(7) -0.1797(4) -0.0032(4)
H28 H 0.4041 -0.1555 0.0542
C19 C 0.2178(7) -0.2551(4) -0.0132(4)
C20 C 0.2100(11) -0.2912(5) 0.0434(5)
H29 H 0.2849 -0.2674 0.0893
C21 C 0.0920(14) -0.3630(7) 0.0335(7)
H30 H 0.0893 -0.3884 0.0719
C22 C -0.0206(11) -0.3972(6) -0.0317(6)
H31 H -0.1031 -0.4431 -0.0360
C23 C -0.0125(9) -0.3643(5) -0.0903(5)
H32 H -0.0875 -0.3893 -0.1363
C24 C 0.1074(8) -0.2934(5) -0.0821(5)
H33 H 0.1138 -0.2715 -0.1230
C25 C 0.3083(7) 0.4261(5) 0.5847(4)
H34 H 0.2582 0.4319 0.6321
H35 H 0.3377 0.3688 0.5662
C26 C 0.2042(7) 0.4252(5) 0.5176(4)
H36 H 0.1267 0.3682 0.4946
H37 H 0.1567 0.4752 0.5394
C27 C 0.2233(6) 0.4017(4) 0.3777(3)
C28 C 0.0632(8) 0.3493(5) 0.3481(4)
H38 H 0.0385 0.3085 0.3747
H39 H 0.0478 0.3145 0.2893
H40 H 0.0003 0.3911 0.3613
C29 C 0.3072(7) 0.4115(4) 0.3108(3)
H41 H 0.2354 0.4094 0.2675
H42 H 0.3470 0.3583 0.2872
C30 C 0.5652(6) 0.5042(4) 0.6663(3)
H43 H 0.6046 0.4517 0.6356
C31 C 0.5245(6) 0.4935(4) 0.7436(3)
C32 C 0.5972(8) 0.4436(4) 0.7727(4)
H44 H 0.6698 0.4184 0.7450
C33 C 0.5641(11) 0.4306(5) 0.8424(5)
H45 H 0.6152 0.3980 0.8621
C34 C 0.4545(10) 0.4665(6) 0.8822(4)
H46 H 0.4277 0.4551 0.9273
C35 C 0.3844(8) 0.5188(5) 0.8563(4)
H47 H 0.3145 0.5457 0.8855
C36 C 0.4181(7) 0.5313(4) 0.7867(4)
H48 H 0.3687 0.5657 0.7684
C37 C 0.4651(6) 0.0886(4) 0.3541(3)
C38 C 0.5648(6) 0.0876(4) 0.2133(3)
C39 C 0.5432(7) 0.2778(4) 0.4160(4)
C40 C 0.7422(6) 0.1759(3) 0.3620(3)
C41 C 0.6489(7) 0.2708(4) 0.2851(3)
C42 C 0.3574(7) 0.1750(4) 0.2729(3)
Co1A Co 0.44730(8) -0.17831(5) 0.68276(4)
Cu2_2 Cu 0.5000 0.0000 1.0000
Cu3_2 Cu 0.5000 -0.5000 0.5000
N1A N 0.6492(5) -0.0635(3) 0.4417(3)
N2A N 0.6667(5) 0.1146(3) 0.5373(3)
H1A H 0.6614 0.1378 0.4987
N3A N 0.6416(5) -0.0793(3) -0.0303(3)
N4A N 0.6787(5) 0.1021(3) 0.0155(3)
H2A H 0.7233 0.1244 0.0691
N5A N 0.7125(5) 0.5654(3) 0.5473(3)
N6A N 0.5587(5) 0.4978(3) 0.3910(3)
H3A H 0.5883 0.4454 0.3657
N7A N 0.5814(7) -0.0344(4) 0.6219(4)
N8A N 0.4295(7) -0.0346(4) 0.8501(3)
N8A_2 N 0.4295(7) -0.0346(4) -0.1499(3)
N9A N 0.4574(7) -0.3435(4) 0.5285(3)
N9A_2 N 0.4574(7) 0.6565(4) 0.5285(3)
N10A N 0.1429(6) -0.1742(4) 0.6111(4)
N11A N 0.2889(7) -0.3306(5) 0.7274(4)
N12A N 0.7603(7) -0.1708(5) 0.7539(4)
C1A C 0.8064(6) 0.0843(4) 0.5355(4)
H4A H 0.8903 0.1333 0.5399
H5A H 0.8239 0.0686 0.5819
C2A C 0.7930(7) 0.0024(4) 0.4560(4)
H6A H 0.8744 -0.0258 0.4588
H7A H 0.7991 0.0210 0.4106
C3A C 0.6335(6) -0.1481(4) 0.4005(3)
C4A C 0.7543(8) -0.1917(5) 0.3632(5)
H8A H 0.8328 -0.1464 0.3583
H9A H 0.7942 -0.2167 0.3981
H10A H 0.7132 -0.2398 0.3094
C5A C 0.4873(7) -0.2159(4) 0.3868(5)
H11A H 0.4813 -0.2685 0.3354
H12A H 0.4898 -0.2366 0.4308
C6A C 0.6565(6) 0.1855(4) 0.6172(4)
H13A H 0.6546 0.1590 0.6579
C7A C 0.7881(7) 0.2700(4) 0.6487(4)
C8A C 0.8736(8) 0.2989(5) 0.7255(4)
H14A H 0.8566 0.2640 0.7560
C9A C 0.9853(9) 0.3808(6) 0.7568(5)
H15A H 1.0448 0.3991 0.8076
C10A C 1.0084(8) 0.4338(5) 0.7146(5)
H16A H 1.0807 0.4893 0.7373
C11A C 0.9260(8) 0.4060(5) 0.6387(5)
H17A H 0.9425 0.4426 0.6097
C12A C 0.8177(7) 0.3235(4) 0.6044(4)
H18A H 0.7647 0.3039 0.5516
C13A C 0.7839(7) 0.0584(4) -0.0355(5)
H19A H 0.7502 0.0433 -0.0932
H20A H 0.8824 0.1006 -0.0190
C14A C 0.7921(7) -0.0257(4) -0.0252(5)
H21A H 0.8508 -0.0095 0.0281
H22A H 0.8411 -0.0618 -0.0680
C15A C 0.6165(7) -0.1657(4) -0.0511(3)
C16A C 0.7336(9) -0.2187(5) -0.0728(5)
H23A H 0.7735 -0.2128 -0.1194
H24A H 0.8128 -0.1950 -0.0264
H25A H 0.6894 -0.2821 -0.0864
C17A C 0.4632(7) -0.2210(4) -0.0568(4)
H26A H 0.4150 -0.2451 -0.1139
H27A H 0.4750 -0.2732 -0.0462
C18A C 0.6456(7) 0.1797(4) 0.0032(4)
H28A H 0.5959 0.1555 -0.0542
C19A C 0.7822(7) 0.2551(4) 0.0132(4)
C20A C 0.7900(11) 0.2912(5) -0.0434(5)
H29A H 0.7151 0.2674 -0.0893
C21A C 0.9080(14) 0.3630(7) -0.0335(7)
H30A H 0.9107 0.3884 -0.0719
C22A C 1.0206(11) 0.3972(6) 0.0317(6)
H31A H 1.1031 0.4431 0.0360
C23A C 1.0125(9) 0.3643(5) 0.0903(5)
H32A H 1.0875 0.3893 0.1363
C24A C 0.8926(8) 0.2934(5) 0.0821(5)
H33A H 0.8862 0.2715 0.1230
C25A C 0.6917(7) 0.5739(5) 0.4153(4)
H34A H 0.7418 0.5681 0.3679
H35A H 0.6623 0.6312 0.4338
C26A C 0.7958(7) 0.5748(5) 0.4824(4)
H36A H 0.8733 0.6318 0.5054
H37A H 0.8433 0.5248 0.4606
C27A C 0.7767(6) 0.5983(4) 0.6223(3)
C28A C 0.9368(8) 0.6507(5) 0.6519(4)
H38A H 0.9615 0.6915 0.6253
H39A H 0.9522 0.6855 0.7107
H40A H 0.9997 0.6089 0.6387
C29A C 0.6928(7) 0.5885(4) 0.6892(3)
H41A H 0.7646 0.5906 0.7325
H42A H 0.6530 0.6417 0.7128
C30A C 0.4348(6) 0.4958(4) 0.3337(3)
H43A H 0.3954 0.5483 0.3644
C31A C 0.4755(6) 0.5065(4) 0.2564(3)
C32A C 0.4028(8) 0.5564(4) 0.2273(4)
H44A H 0.3302 0.5816 0.2550
C33A C 0.4359(11) 0.5694(5) 0.1576(5)
H45A H 0.3848 0.6020 0.1379
C34A C 0.5455(10) 0.5335(6) 0.1178(4)
H46A H 0.5723 0.5449 0.0727
C35A C 0.6156(8) 0.4812(5) 0.1437(4)
H47A H 0.6855 0.4543 0.1145
C36A C 0.5819(7) 0.4687(4) 0.2133(4)
H48A H 0.6313 0.4343 0.2316
C37A C 0.5349(6) -0.0886(4) 0.6459(3)
C38A C 0.4352(6) -0.0876(4) 0.7867(3)
C39A C 0.4568(7) -0.2778(4) 0.5840(4)
C40A C 0.2578(6) -0.1759(3) 0.6380(3)
C41A C 0.3511(7) -0.2708(4) 0.7149(3)
C42A C 0.6426(7) -0.1750(4) 0.7271(3)
C43 C 0.337(2) 0.137(2) 0.8019(18)
H49 H 0.3515 0.0815 0.7983
C44 C 0.082(4) 0.067(3) 0.785(2)
H50 H 0.1080 0.0102 0.7757
H51 H 0.0338 0.0633 0.7343
H52 H 0.0141 0.0768 0.8249
C45 C 0.156(4) 0.216(2) 0.853(2)
H53 H 0.0925 0.2127 0.8930
H54 H 0.1056 0.2309 0.8132
H55 H 0.2474 0.2619 0.8805
N13 N 0.189(2) 0.1269(15) 0.8107(13)
O1 O 0.470(3) 0.1768(16) 0.7955(15)
O2 O 0.1361(11) 0.1425(12) 0.4438(7)
H56 H 0.1045 0.1008 0.4226
H57 H 0.1547 0.1846 0.4515
O3 O 0.9342(6) 0.1380(5) 0.1697(3)
H58 H 0.9600 0.1256 0.1162
H59 H 0.9934 0.1143 0.1985
loop_
_geom_bond_atom_site_label_1
_geom_bond_atom_site_label_2
_geom_bond_site_symmetry_1
_geom_bond_site_symmetry_2
Co1 C37 1_555 1_555
Cu1 N1 1_555 1_555
Cu2 N3 1_555 1_555
Cu3 N5 1_555 1_555
N1 C2 1_555 1_555
N2 Cu1 1_555 1_555
H1 N2 1_555 1_555
N3 C14 1_555 1_555
N4 Cu2 1_555 1_555
H2 N4 1_555 1_555
N5 C26 1_555 1_555
N6 Cu3 1_555 1_555
H3 N6 1_555 1_555
N7 Cu1 1_555 1_555
N8 Cu2 1_555 1_555
N9 Cu3 1_555 1_555
N10 C40 1_555 1_555
N11 C41 1_555 1_555
N12 C42 1_555 1_555
C1 N2 1_555 1_555
H4 C1 1_555 1_555
H5 C1 1_555 1_555
C2 C1 1_555 1_555
H6 C2 1_555 1_555
H7 C2 1_555 1_555
C3 N1 1_555 1_555
C4 C3 1_555 1_555
H8 C4 1_555 1_555
H9 C4 1_555 1_555
H10 C4 1_555 1_555
C5 C3 1_555 1_555
H11 C5 1_555 1_555
H12 C5 1_555 1_555
C6 N2 1_555 1_555
H13 C6 1_555 1_555
C7 C6 1_555 1_555
C8 C7 1_555 1_555
H14 C8 1_555 1_555
C9 C8 1_555 1_555
H15 C9 1_555 1_555
C10 C9 1_555 1_555
H16 C10 1_555 1_555
C11 C10 1_555 1_555
H17 C11 1_555 1_555
C12 C7 1_555 1_555
H18 C12 1_555 1_555
C13 N4 1_555 1_555
H19 C13 1_555 1_555
H20 C13 1_555 1_555
C14 C13 1_555 1_555
H21 C14 1_555 1_555
H22 C14 1_555 1_555
C15 N3 1_555 1_555
C16 C15 1_555 1_555
H23 C16 1_555 1_555
H24 C16 1_555 1_555
H25 C16 1_555 1_555
C17 C15 1_555 1_555
H26 C17 1_555 1_555
H27 C17 1_555 1_555
C18 N4 1_555 1_555
H28 C18 1_555 1_555
C19 C18 1_555 1_555
C20 C19 1_555 1_555
H29 C20 1_555 1_555
C21 C20 1_555 1_555
H30 C21 1_555 1_555
C22 C21 1_555 1_555
H31 C22 1_555 1_555
C23 C22 1_555 1_555
H32 C23 1_555 1_555
C24 C19 1_555 1_555
H33 C24 1_555 1_555
C25 N6 1_555 1_555
H34 C25 1_555 1_555
H35 C25 1_555 1_555
C26 C25 1_555 1_555
H36 C26 1_555 1_555
H37 C26 1_555 1_555
C27 N5 1_555 1_555
C28 C27 1_555 1_555
H38 C28 1_555 1_555
H39 C28 1_555 1_555
H40 C28 1_555 1_555
C29 C27 1_555 1_555
H41 C29 1_555 1_555
H42 C29 1_555 1_555
C30 N6 1_555 1_555
H43 C30 1_555 1_555
C31 C30 1_555 1_555
C32 C31 1_555 1_555
H44 C32 1_555 1_555
C33 C32 1_555 1_555
H45 C33 1_555 1_555
C34 C33 1_555 1_555
H46 C34 1_555 1_555
C35 C34 1_555 1_555
H47 C35 1_555 1_555
C36 C31 1_555 1_555
H48 C36 1_555 1_555
C37 N7 1_555 1_555
C38 Co1 1_555 1_555
C39 Co1 1_555 1_555
C40 Co1 1_555 1_555
C41 Co1 1_555 1_555
C42 Co1 1_555 1_555
C43 H49 1_555 1_555
C44 H50 1_555 1_555
H51 C44 1_555 1_555
H52 C44 1_555 1_555
C45 H53 1_555 1_555
H54 C45 1_555 1_555
H55 C45 1_555 1_555
N13 C43 1_555 1_555
O1 C43 1_555 1_555
O2 H56 1_555 1_555
H57 O2 1_555 1_555
O3 H58 1_555 1_555
H59 O3 1_555 1_555
Co1A C37A 1_555 1_555
Cu2_2 N8A 1_555 1_555
Cu3_2 N9A 1_555 1_555
N1A Cu1 1_555 1_555
N2A Cu1 1_555 1_555
H1A N2A 1_555 1_555
N3A Cu2 1_555 1_555
N4A Cu2 1_555 1_555
H2A N4A 1_555 1_555
N5A Cu3 1_555 1_555
N6A Cu3 1_555 1_555
H3A N6A 1_555 1_555
N7A Cu1 1_555 1_555
N8A C38A 1_555 1_555
N8A_2 Cu2 1_555 1_555
N9A C39A 1_555 1_555
N9A_2 Cu3 1_555 1_555
N10A C40A 1_555 1_555
N11A C41A 1_555 1_555
N12A C42A 1_555 1_555
C1A N2A 1_555 1_555
H4A C1A 1_555 1_555
H5A C1A 1_555 1_555
C2A N1A 1_555 1_555
H6A C2A 1_555 1_555
H7A C2A 1_555 1_555
C3A N1A 1_555 1_555
C4A C3A 1_555 1_555
H8A C4A 1_555 1_555
H9A C4A 1_555 1_555
H10A C4A 1_555 1_555
C5A C6 1_555 1_555
H11A C5A 1_555 1_555
H12A C5A 1_555 1_555
C6A C5 1_555 1_555
H13A C6A 1_555 1_555
C7A C6A 1_555 1_555
C8A C7A 1_555 1_555
H14A C8A 1_555 1_555
C9A C8A 1_555 1_555
H15A C9A 1_555 1_555
C10A C9A 1_555 1_555
H16A C10A 1_555 1_555
C11A C10A 1_555 1_555
H17A C11A 1_555 1_555
C12A C7A 1_555 1_555
H18A C12A 1_555 1_555
C13A N4A 1_555 1_555
H19A C13A 1_555 1_555
H20A C13A 1_555 1_555
C14A N3A 1_555 1_555
H21A C14A 1_555 1_555
H22A C14A 1_555 1_555
C15A N3A 1_555 1_555
C16A C15A 1_555 1_555
H23A C16A 1_555 1_555
H24A C16A 1_555 1_555
H25A C16A 1_555 1_555
C17A C18 1_555 1_555
H26A C17A 1_555 1_555
H27A C17A 1_555 1_555
C18A C17 1_555 1_555
H28A C18A 1_555 1_555
C19A C18A 1_555 1_555
C20A C19A 1_555 1_555
H29A C20A 1_555 1_555
C21A C20A 1_555 1_555
H30A C21A 1_555 1_555
C22A C21A 1_555 1_555
H31A C22A 1_555 1_555
C23A C22A 1_555 1_555
H32A C23A 1_555 1_555
C24A C19A 1_555 1_555
H33A C24A 1_555 1_555
C25A N6A 1_555 1_555
H34A C25A 1_555 1_555
H35A C25A 1_555 1_555
C26A N5A 1_555 1_555
H36A C26A 1_555 1_555
H37A C26A 1_555 1_555
C27A N5A 1_555 1_555
C28A C27A 1_555 1_555
H38A C28A 1_555 1_555
H39A C28A 1_555 1_555
H40A C28A 1_555 1_555
C29A C30 1_555 1_555
H41A C29A 1_555 1_555
H42A C29A 1_555 1_555
C30A C29 1_555 1_555
H43A C30A 1_555 1_555
C31A C30A 1_555 1_555
C32A C31A 1_555 1_555
H44A C32A 1_555 1_555
C33A C32A 1_555 1_555
H45A C33A 1_555 1_555
C34A C33A 1_555 1_555
H46A C34A 1_555 1_555
C35A C34A 1_555 1_555
H47A C35A 1_555 1_555
C36A C31A 1_555 1_555
H48A C36A 1_555 1_555
C37A N7A 1_555 1_555
C38A Co1A 1_555 1_555
C39A Co1A 1_555 1_555
C40A Co1A 1_555 1_555
C41A Co1A 1_555 1_555
C42A Co1A 1_555 1_555
N8 C38 1_555 1_555
N9 C39 1_555 1_555
C11 C12 1_555 1_555
C23 C24 1_555 1_555
C35 C36 1_555 1_555
C44 N13 1_555 1_555
C45 N13 1_555 1_555
N2A C6A 1_555 1_555
N4A C18A 1_555 1_555
N6A C30A 1_555 1_555
C1A C2A 1_555 1_555
C3A C5A 1_555 1_555
C11A C12A 1_555 1_555
C13A C14A 1_555 1_555
C15A C17A 1_555 1_555
C23A C24A 1_555 1_555
C25A C26A 1_555 1_555
C27A C29A 1_555 1_555
C35A C36A 1_555 1_555

#END
