
#######################################################################
#
#                 Cambridge Crystallographic Data Centre
#                                CCDC 
#
#######################################################################
#
# If this CIF has been generated from an entry in the Cambridge 
# Structural Database, then it will include bibliographic, chemical, 
# crystal, experimental, refinement or atomic coordinate data resulting 
# from the CCDC's data processing and validation procedures.
#
#######################################################################

data_FEFHEE
_symmetry_cell_setting           triclinic
_symmetry_space_group_name_H-M   'P -1'
_symmetry_Int_Tables_number      2
_space_group_name_Hall           '-P 1'
loop_
_symmetry_equiv_pos_site_id
_symmetry_equiv_pos_as_xyz
1 x,y,z
2 -x,-y,-z
_cell_length_a                   7.2209(6)
_cell_length_b                   9.6252(7)
_cell_length_c                   15.0478(12)
_cell_angle_alpha                98.2510(10)
_cell_angle_beta                 92.2790(10)
_cell_angle_gamma                94.1960(10)
_cell_volume                     1030.92
loop_
_atom_site_label
_atom_site_type_symbol
_atom_site_fract_x
_atom_site_fract_y
_atom_site_fract_z
Pb1 Pb 0.91506(2) 0.564015(14) 0.871257(9)
C1 C 0.7127(6) 0.2721(5) 0.9492(3)
H1 H 0.7060 0.3397 0.9995
C2 C 0.6687(7) 0.1312(6) 0.9569(4)
H2 H 0.6360 0.1058 1.0118
C3 C 0.6736(7) 0.0319(5) 0.8844(4)
H3 H 0.6468 -0.0624 0.8896
C4 C 0.7191(6) 0.0702(5) 0.8010(3)
C5 C 0.7193(7) -0.0279(5) 0.7204(4)
H4 H 0.6877 -0.1228 0.7221
C6 C 0.7640(7) 0.0137(5) 0.6427(4)
H5 H 0.7610 -0.0524 0.5910
C7 C 0.8161(6) 0.1575(5) 0.6377(3)
C8 C 0.8653(8) 0.2056(6) 0.5580(3)
H6 H 0.8627 0.1425 0.5049
C9 C 0.9173(9) 0.3449(6) 0.5573(4)
H7 H 0.9494 0.3775 0.5043
C10 C 0.9210(8) 0.4361(5) 0.6371(3)
H8 H 0.9579 0.5305 0.6364
C11 C 0.8215(5) 0.2575(4) 0.7149(3)
C12 C 0.7681(5) 0.2146(4) 0.7988(3)
C13 C 0.7782(5) 1.0070(4) 1.2348(3)
C14 C 0.8051(6) 0.9335(4) 1.1507(3)
H9 H 0.8436 0.9817 1.1045
C15 C 0.7742(5) 0.7875(4) 1.1355(3)
C16 C 0.7160(5) 0.7170(4) 1.2044(3)
H10 H 0.6945 0.6194 1.1942
C17 C 0.6893(5) 0.7905(4) 1.2891(3)
C18 C 0.7223(5) 0.9368(4) 1.3039(3)
H11 H 0.7065 0.9869 1.3603
C19 C 0.6235(6) 0.7107(4) 1.3609(3)
C20 C 0.8009(6) 0.7078(4) 1.0436(3)
O1 O 0.8023(6) 0.7730(4) 0.9778(2)
O2 O 0.8235(4) 0.5780(3) 1.0378(2)
O3 O 0.5630(5) 0.5881(3) 1.3458(2)
O4 O 0.6372(5) 0.7843(3) 1.4414(2)
H12 H 0.5934 0.7363 1.4775
O5 O 0.7675(6) 1.2391(3) 1.3422(2)
O6 O 0.9977(5) 1.2338(3) 1.2323(3)
O7 O 0.6786(5) 1.2365(3) 1.1854(2)
O8 O 0.6029(4) 0.5857(4) 0.8107(2)
H13 H 0.5872 0.5384 0.7607
H14 H 0.5716 0.6649 0.8280
N1 N 0.7641(5) 0.3138(4) 0.8722(2)
N2 N 0.8751(5) 0.3968(4) 0.7143(2)
S1 S 0.80709(15) 1.19462(10) 1.25047(7)
Pb1A Pb 1.08494(2) 0.435985(14) 1.128743(9)
Pb1A_2 Pb 1.08494(2) 1.435985(14) 1.128743(9)
O2A O 1.1765(4) 0.4220(3) 0.9622(2)
O6A O 1.0023(5) 0.7662(3) 0.7677(3)
O9 O 0.4703(7) 0.3456(4) 0.4299(3)
H15 H 0.553(7) 0.308(6) 0.406(4)
H16 H 0.473(7) 0.423(4) 0.426(4)
loop_
_geom_bond_atom_site_label_1
_geom_bond_atom_site_label_2
_geom_bond_site_symmetry_1
_geom_bond_site_symmetry_2
Pb1 O1 1_555 1_555
C1 H1 1_555 1_555
C2 C1 1_555 1_555
H2 C2 1_555 1_555
C3 C2 1_555 1_555
H3 C3 1_555 1_555
C4 C3 1_555 1_555
C5 C4 1_555 1_555
H4 C5 1_555 1_555
C6 C5 1_555 1_555
H5 C6 1_555 1_555
C7 C6 1_555 1_555
C8 C7 1_555 1_555
H6 C8 1_555 1_555
C9 C8 1_555 1_555
H7 C9 1_555 1_555
C10 C9 1_555 1_555
H8 C10 1_555 1_555
C11 C7 1_555 1_555
C12 C4 1_555 1_555
C13 C14 1_555 1_555
C14 H9 1_555 1_555
C15 C14 1_555 1_555
C16 C15 1_555 1_555
H10 C16 1_555 1_555
C17 C16 1_555 1_555
C18 C13 1_555 1_555
H11 C18 1_555 1_555
C19 C17 1_555 1_555
C20 C15 1_555 1_555
O1 C20 1_555 1_555
O2 Pb1 1_555 1_555
O3 C19 1_555 1_555
O4 C19 1_555 1_555
H12 O4 1_555 1_555
O5 S1 1_555 1_555
O6 S1 1_555 1_555
O7 S1 1_555 1_555
O8 Pb1 1_555 1_555
H13 O8 1_555 1_555
H14 O8 1_555 1_555
O9 H15 1_555 1_555
N1 Pb1 1_555 1_555
N2 Pb1 1_555 1_555
S1 C13 1_555 1_555
H16 O9 1_555 1_555
Pb1A O2 1_555 1_555
Pb1A_2 O6 1_555 1_555
O2A Pb1 1_555 1_555
O6A Pb1 1_555 1_555
C1 N1 1_555 1_555
C10 N2 1_555 1_555
C11 C12 1_555 1_555
C11 N2 1_555 1_555
C12 N1 1_555 1_555
C17 C18 1_555 1_555
C20 O2 1_555 1_555
Pb1A O2A 1_555 1_555

#END
