
#######################################################################
#
#                 Cambridge Crystallographic Data Centre
#                                CCDC 
#
#######################################################################
#
# If this CIF has been generated from an entry in the Cambridge 
# Structural Database, then it will include bibliographic, chemical, 
# crystal, experimental, refinement or atomic coordinate data resulting 
# from the CCDC's data processing and validation procedures.
#
#######################################################################

data_FEFHOO
_symmetry_cell_setting           triclinic
_symmetry_space_group_name_H-M   'P -1'
_symmetry_Int_Tables_number      2
_space_group_name_Hall           '-P 1'
loop_
_symmetry_equiv_pos_site_id
_symmetry_equiv_pos_as_xyz
1 x,y,z
2 -x,-y,-z
_cell_length_a                   12.813(4)
_cell_length_b                   13.349(4)
_cell_length_c                   14.381(5)
_cell_angle_alpha                89.282(5)
_cell_angle_beta                 79.966(4)
_cell_angle_gamma                89.837(4)
_cell_volume                     2421.92
loop_
_atom_site_label
_atom_site_type_symbol
_atom_site_fract_x
_atom_site_fract_y
_atom_site_fract_z
Na1 Na 0.58135(8) 1.09761(8) 0.05098(7)
Na2 Na 0.37206(9) 1.11969(8) -0.28635(7)
Na3 Na 0.09310(9) 1.40337(8) -0.46093(7)
Na4 Na 0.84284(9) 1.39200(8) 0.22452(7)
O1 O 0.47731(17) 1.18341(15) -0.04348(13)
O2 O 0.37550(15) 1.07160(14) -0.12879(12)
O3 O 0.55403(14) 1.03361(15) -0.10003(13)
O4 O 0.73562(17) 1.19106(17) 0.05013(13)
O5 O 0.60951(16) 1.20044(15) 0.18486(13)
O6 O 0.71330(19) 1.35245(16) 0.13252(16)
O7 O 0.51663(16) 1.16121(18) -0.21467(14)
O8 O 0.40904(19) 0.95666(16) -0.32755(14)
H1 H 0.396(3) 0.909(3) -0.288(2)
O9 O 0.24599(16) 1.15364(15) -0.38870(14)
O10 O 0.31102(16) 1.27836(14) -0.30905(13)
O11 O 0.12475(15) 1.29090(14) -0.32840(13)
O12 O 0.25254(15) 1.32391(15) -0.45829(13)
O13 O 1.05144(15) 1.48381(15) 0.39287(12)
O14 O 1.00062(16) 1.32219(14) 0.43594(14)
O15 O 0.8581(2) 1.56258(16) 0.18214(14)
H2 H 0.854(4) 1.603(3) 0.223(2)
O16 O 0.87278(15) 1.43263(14) 0.37507(12)
O17 O 1.01482(16) 1.37296(17) 0.26848(14)
O18 O 0.79724(16) 1.22693(15) 0.19798(14)
B1 B 0.4812(2) 1.1144(2) -0.1217(2)
B2 B 0.7148(3) 1.2436(2) 0.1401(2)
B3 B 0.2340(2) 1.2617(2) -0.3720(2)
B4 B 0.9851(2) 1.4009(2) 0.3684(2)
C1 C 0.4233(3) 1.2772(2) -0.0509(2)
H3 H 0.4576 1.3299 -0.0190
H4 H 0.4298 1.2966 -0.1184
C2 C 0.3071(3) 1.2711(2) -0.0072(2)
H5 H 0.2749 1.3384 -0.0091
H6 H 0.3008 1.2504 0.0599
C3 C 0.2463(3) 1.1981(2) -0.0570(2)
H7 H 0.1711 1.1990 -0.0257
H8 H 0.2491 1.2219 -0.1229
C4 C 0.2855(2) 1.0904(2) -0.0590(2)
H9 H 0.2274 1.0458 -0.0699
H10 H 0.3029 1.0729 0.0036
C5 C 0.6153(3) 0.9812(3) -0.1772(2)
H11 H 0.6331 0.9136 -0.1554
H12 H 0.5726 0.9730 -0.2277
C6 C 0.7181(3) 1.0378(4) -0.2172(2)
H13 H 0.7528 1.0578 -0.1639
H14 H 0.7667 0.9914 -0.2568
C7 C 0.7033(3) 1.1323(4) -0.2767(3)
H15 H 0.6838 1.1112 -0.3371
H16 H 0.7719 1.1680 -0.2917
C8 C 0.6202(3) 1.2043(3) -0.2293(2)
H17 H 0.6208 1.2656 -0.2689
H18 H 0.6377 1.2240 -0.1677
C9 C 0.3980(3) 0.9159(2) -0.4160(2)
H19 H 0.4375 0.8519 -0.4257
H20 H 0.3223 0.9022 -0.4171
C10 C 0.4416(2) 0.9907(2) -0.4952(2)
H21 H 0.4036 1.0552 -0.4829
H22 H 0.4266 0.9651 -0.5559
C11 C 0.1736(3) 1.1099(2) -0.4409(2)
H23 H 0.1489 1.1616 -0.4820
H24 H 0.2100 1.0568 -0.4818
C12 C 0.0801(3) 1.0659(2) -0.3765(3)
H25 H 0.0372 1.0275 -0.4146
H26 H 0.1059 1.0183 -0.3322
C13 C 0.0088(3) 1.1439(3) -0.3193(2)
H27 H -0.0446 1.1081 -0.2726
H28 H -0.0297 1.1812 -0.3627
C14 C 0.0654(2) 1.2188(2) -0.2671(2)
H29 H 0.1139 1.1822 -0.2320
H30 H 0.0124 1.2540 -0.2204
C15 C 0.3728(3) 1.3665(2) -0.3178(2)
H31 H 0.3274 1.4244 -0.3278
H32 H 0.3997 1.3772 -0.2582
C16 C 0.4665(2) 1.3620(3) -0.3995(2)
H33 H 0.5189 1.4135 -0.3898
H34 H 0.5010 1.2957 -0.3981
C17 C 0.4368(2) 1.3787(3) -0.4978(2)
H35 H 0.5012 1.3697 -0.5461
H36 H 0.4128 1.4488 -0.5026
C18 C 0.3514(2) 1.3100(3) -0.5203(2)
H37 H 0.3745 1.2396 -0.5154
H38 H 0.3414 1.3225 -0.5862
C19 C 1.0959(2) 1.5551(2) 0.32040(19)
H39 H 1.1084 1.6195 0.3500
H40 H 1.0447 1.5673 0.2773
C20 C 1.2002(3) 1.5173(3) 0.2636(2)
H41 H 1.2384 1.5748 0.2293
H42 H 1.2446 1.4906 0.3081
C21 C 1.1880(2) 1.4363(3) 0.1926(2)
H43 H 1.1539 1.4658 0.1419
H44 H 1.2592 1.4122 0.1634
C22 C 1.1224(3) 1.3478(3) 0.2367(2)
H45 H 1.1263 1.2938 0.1897
H46 H 1.1531 1.3216 0.2908
C23 C 0.9534(3) 1.2277(2) 0.4258(2)
H47 H 0.9982 1.1740 0.4460
H48 H 0.9496 1.2174 0.3584
C24 C 0.8428(3) 1.2205(2) 0.4839(2)
H49 H 0.8472 1.2331 0.5508
H50 H 0.8165 1.1513 0.4800
C25 C 0.7619(3) 1.2935(2) 0.4535(2)
H51 H 0.7511 1.2759 0.3891
H52 H 0.6933 1.2847 0.4966
C26 C 0.7943(2) 1.4033(2) 0.45337(19)
H53 H 0.7305 1.4455 0.4536
H54 H 0.8215 1.4167 0.5123
C27 C 0.9380(2) 1.5846(2) 0.10233(19)
H55 H 1.0039 1.6059 0.1234
H56 H 0.9142 1.6396 0.0642
C28 C 0.9580(2) 1.4917(2) 0.04422(19)
H57 H 0.8910 1.4701 0.0252
H58 H 0.9818 1.4373 0.0831
C29 C 0.5388(3) 1.2622(2) 0.2482(2)
H59 H 0.5803 1.3009 0.2873
H60 H 0.4890 1.2187 0.2911
C30 C 0.4748(3) 1.3355(3) 0.1966(2)
H61 H 0.4456 1.2980 0.1481
H62 H 0.4141 1.3604 0.2428
C31 C 0.5357(3) 1.4252(3) 0.1491(3)
H63 H 0.4892 1.4628 0.1128
H64 H 0.5528 1.4701 0.1986
C32 C 0.6375(3) 1.3993(3) 0.0833(3)
H65 H 0.6214 1.3536 0.0340
H66 H 0.6687 1.4613 0.0516
C33 C 0.8343(3) 1.2110(3) -0.0082(2)
H67 H 0.8582 1.2791 0.0049
H68 H 0.8256 1.2094 -0.0752
C34 C 0.9180(3) 1.1350(3) 0.0083(3)
H69 H 0.9826 1.1468 -0.0393
H70 H 0.8917 1.0671 -0.0019
C35 C 0.9479(3) 1.1381(3) 0.1067(3)
H71 H 0.9893 1.1998 0.1112
H72 H 0.9946 1.0803 0.1137
C36 C 0.8544(3) 1.1356(2) 0.1892(2)
H73 H 0.8059 1.0805 0.1796
H74 H 0.8812 1.1216 0.2486
Na1A Na 0.41865(8) 0.90239(8) -0.05098(7)
Na2A Na 0.62794(9) 0.88031(8) 0.28635(7)
Na2A_2 Na 0.62794(9) 0.88031(8) -0.71365(7)
Na3A Na 0.90690(9) 0.59663(8) 0.46093(7)
Na3_2 Na 1.09310(9) 1.40337(8) 0.53907(7)
Na3A_2 Na 0.90690(9) 1.59663(8) 0.46093(7)
Na3A_3 Na -0.09310(9) 1.59663(8) -0.53907(7)
Na4A Na 0.15716(9) 0.60800(8) -0.22452(7)
Na4A_2 Na 1.15716(9) 1.60800(8) -0.22452(7)
Na4A_3 Na 0.15716(9) 1.60800(8) -0.22452(7)
O1A O 0.52269(17) 0.81659(15) 0.04348(13)
O2A O 0.62450(15) 0.92840(14) 0.12879(12)
O3A O 0.44597(14) 0.96639(15) 0.10003(13)
O4A O 0.26438(17) 0.80894(17) -0.05013(13)
O5A O 0.39049(16) 0.79956(15) -0.18486(13)
O6A O 0.28670(19) 0.64755(16) -0.13252(16)
O7A O 0.48337(16) 0.83879(18) 0.21467(14)
O8A O 0.59096(19) 1.04334(16) -0.67245(14)
O8A_2 O 0.59096(19) 1.04334(16) 0.32755(14)
H1A H 0.604(3) 1.091(3) -0.712(2)
H1A_2 H 0.604(3) 1.091(3) 0.288(2)
O9A O 0.75401(16) 0.84636(15) 0.38870(14)
O10A O 0.68898(16) 0.72164(14) 0.30905(13)
O11A O 0.87525(15) 0.70910(14) 0.32840(13)
O12A O 0.74746(15) 0.67609(15) 0.45829(13)
O13A O -0.05144(15) 1.51619(15) -0.39287(12)
O13_2 O 0.05144(15) 1.48381(15) -0.60713(12)
O13_3 O 1.05144(15) 0.48381(15) 0.39287(12)
O13A_2 O 0.94856(15) 0.51619(15) 0.60713(12)
O14A O -0.00062(16) 1.67781(14) -0.43594(14)
O14_2 O 0.00062(16) 1.32219(14) -0.56406(14)
O14A_2 O 0.99938(16) 0.67781(14) 0.56406(14)
O15A O 1.1419(2) 1.43742(16) -0.18214(14)
O15A_2 O 0.1419(2) 0.43742(16) -0.18214(14)
H2A H 1.146(4) 1.397(3) -0.223(2)
H2A_2 H 0.146(4) 0.397(3) -0.223(2)
O16A O 0.12722(15) 1.56737(14) -0.37507(12)
O16_2 O 0.87278(15) 0.43263(14) 0.37507(12)
O16A_2 O 0.12722(15) 0.56737(14) -0.37507(12)
O17A O -0.01482(16) 1.62704(17) -0.26848(14)
O17A_2 O -0.01482(16) 0.62704(17) -0.26848(14)
O18A O 0.20276(16) 0.77307(15) -0.19798(14)
B1A B 0.5188(2) 0.8856(2) 0.1217(2)
B2A B 0.2852(3) 0.7564(2) -0.1401(2)
B3A B 0.7660(2) 0.7383(2) 0.3720(2)
B4A B 0.0149(2) 1.5991(2) -0.3684(2)
C1A C 0.5767(3) 0.7228(2) 0.0509(2)
H3A H 0.5424 0.6701 0.0190
H4A H 0.5702 0.7034 0.1184
C2A C 0.6929(3) 0.7289(2) 0.0072(2)
H5A H 0.7251 0.6616 0.0091
H6A H 0.6992 0.7496 -0.0599
C3A C 0.7537(3) 0.8019(2) 0.0570(2)
H7A H 0.8289 0.8010 0.0257
H8A H 0.7509 0.7781 0.1229
C4A C 0.7145(2) 0.9096(2) 0.0590(2)
H9A H 0.7726 0.9542 0.0699
H10A H 0.6971 0.9271 -0.0036
C5A C 0.3847(3) 1.0188(3) 0.1772(2)
H11A H 0.3669 1.0864 0.1554
H12A H 0.4274 1.0270 0.2277
C6A C 0.2819(3) 0.9622(4) 0.2172(2)
H13A H 0.2472 0.9422 0.1639
H14A H 0.2333 1.0086 0.2568
C7A C 0.2967(3) 0.8677(4) 0.2767(3)
H15A H 0.3162 0.8888 0.3371
H16A H 0.2281 0.8320 0.2917
C8A C 0.3798(3) 0.7957(3) 0.2293(2)
H17A H 0.3792 0.7344 0.2689
H18A H 0.3623 0.7760 0.1677
C9A C 0.6020(3) 1.0841(2) -0.5840(2)
H19A H 0.5625 1.1481 -0.5743
H20A H 0.6777 1.0978 -0.5829
C10A C 0.5584(2) 1.0093(2) -0.5048(2)
H21A H 0.5964 0.9448 -0.5171
H22A H 0.5734 1.0349 -0.4441
C11A C 0.8264(3) 0.8901(2) 0.4409(2)
H23A H 0.8511 0.8384 0.4820
H24A H 0.7900 0.9432 0.4818
C12A C 0.9199(3) 0.9341(2) 0.3765(3)
H25A H 0.9628 0.9725 0.4146
H26A H 0.8941 0.9817 0.3322
C13A C 0.9912(3) 0.8561(3) 0.3193(2)
H27A H 1.0446 0.8919 0.2726
H28A H 1.0297 0.8188 0.3627
C14A C 0.9346(2) 0.7812(2) 0.2671(2)
H29A H 0.8861 0.8178 0.2320
H30A H 0.9876 0.7460 0.2204
C15A C 0.6272(3) 0.6335(2) 0.3178(2)
H31A H 0.6726 0.5756 0.3278
H32A H 0.6003 0.6228 0.2582
C16A C 0.5335(2) 0.6380(3) 0.3995(2)
H33A H 0.4811 0.5865 0.3898
H34A H 0.4990 0.7043 0.3981
C17A C 0.5632(2) 0.6213(3) 0.4978(2)
H35A H 0.4988 0.6303 0.5461
H36A H 0.5872 0.5512 0.5026
C18A C 0.6486(2) 0.6900(3) 0.5203(2)
H37A H 0.6255 0.7604 0.5154
H38A H 0.6586 0.6775 0.5862
C19A C -0.0959(2) 1.4449(2) -0.32040(19)
H39A H -0.1084 1.3805 -0.3500
H40A H -0.0447 1.4327 -0.2773
C20A C -0.2002(3) 1.4827(3) -0.2636(2)
H41A H -0.2384 1.4252 -0.2293
H42A H -0.2446 1.5094 -0.3081
C21A C -0.1880(2) 1.5637(3) -0.1926(2)
H43A H -0.1539 1.5342 -0.1419
H44A H -0.2592 1.5878 -0.1634
C22A C -0.1224(3) 1.6522(3) -0.2367(2)
H45A H -0.1263 1.7062 -0.1897
H46A H -0.1531 1.6784 -0.2908
C23A C 0.0466(3) 1.7723(2) -0.4258(2)
H47A H 0.0018 1.8260 -0.4460
H48A H 0.0504 1.7826 -0.3584
C24A C 0.1572(3) 1.7795(2) -0.4839(2)
H49A H 0.1528 1.7669 -0.5508
H50A H 0.1835 1.8487 -0.4800
C25A C 0.2381(3) 1.7065(2) -0.4535(2)
H51A H 0.2489 1.7241 -0.3891
H52A H 0.3067 1.7153 -0.4966
C26A C 0.2057(2) 1.5967(2) -0.45337(19)
H53A H 0.2695 1.5545 -0.4536
H54A H 0.1785 1.5833 -0.5123
C27A C 1.0620(2) 1.4154(2) -0.10233(19)
H55A H 0.9961 1.3941 -0.1234
H56A H 1.0858 1.3604 -0.0642
C28A C 1.0420(2) 1.5083(2) -0.04422(19)
H57A H 1.1090 1.5299 -0.0252
H58A H 1.0182 1.5627 -0.0831
C29A C 0.4612(3) 0.7378(2) -0.2482(2)
H59A H 0.4197 0.6991 -0.2873
H60A H 0.5110 0.7813 -0.2911
C30A C 0.5252(3) 0.6645(3) -0.1966(2)
H61A H 0.5544 0.7020 -0.1481
H62A H 0.5859 0.6396 -0.2428
C31A C 0.4643(3) 0.5748(3) -0.1491(3)
H63A H 0.5108 0.5372 -0.1128
H64A H 0.4472 0.5299 -0.1986
C32A C 0.3625(3) 0.6007(3) -0.0833(3)
H65A H 0.3786 0.6464 -0.0340
H66A H 0.3313 0.5387 -0.0516
C33A C 0.1657(3) 0.7890(3) 0.0082(2)
H67A H 0.1418 0.7209 -0.0049
H68A H 0.1744 0.7906 0.0752
C34A C 0.0820(3) 0.8650(3) -0.0083(3)
H69A H 0.0174 0.8532 0.0393
H70A H 0.1083 0.9329 0.0019
C35A C 0.0521(3) 0.8619(3) -0.1067(3)
H71A H 0.0107 0.8002 -0.1112
H72A H 0.0054 0.9197 -0.1137
C36A C 0.1456(3) 0.8644(2) -0.1892(2)
H73A H 0.1941 0.9195 -0.1796
H74A H 0.1188 0.8784 -0.2486
loop_
_geom_bond_atom_site_label_1
_geom_bond_atom_site_label_2
_geom_bond_site_symmetry_1
_geom_bond_site_symmetry_2
Na1 O1 1_555 1_555
Na2 O2 1_555 1_555
Na3 O11 1_555 1_555
Na4 O6 1_555 1_555
O1 B1 1_555 1_555
O2 B1 1_555 1_555
O3 Na1 1_555 1_555
O4 Na1 1_555 1_555
O5 Na1 1_555 1_555
O6 B2 1_555 1_555
O7 Na2 1_555 1_555
O8 Na2 1_555 1_555
H1 O8 1_555 1_555
O9 Na2 1_555 1_555
O10 Na2 1_555 1_555
O11 B3 1_555 1_555
O12 Na3 1_555 1_555
O13 B4 1_555 1_555
O14 B4 1_555 1_555
O15 Na4 1_555 1_555
H2 O15 1_555 1_555
O16 Na4 1_555 1_555
O17 Na4 1_555 1_555
O18 Na4 1_555 1_555
B1 O3 1_555 1_555
B2 O4 1_555 1_555
B3 O9 1_555 1_555
B4 O16 1_555 1_555
C1 O1 1_555 1_555
H3 C1 1_555 1_555
H4 C1 1_555 1_555
C2 C1 1_555 1_555
H5 C2 1_555 1_555
H6 C2 1_555 1_555
C3 C2 1_555 1_555
H7 C3 1_555 1_555
H8 C3 1_555 1_555
C4 O2 1_555 1_555
H9 C4 1_555 1_555
H10 C4 1_555 1_555
C5 O3 1_555 1_555
H11 C5 1_555 1_555
H12 C5 1_555 1_555
C6 C5 1_555 1_555
H13 C6 1_555 1_555
H14 C6 1_555 1_555
C7 C6 1_555 1_555
H15 C7 1_555 1_555
H16 C7 1_555 1_555
C8 O7 1_555 1_555
H17 C8 1_555 1_555
H18 C8 1_555 1_555
C9 O8 1_555 1_555
H19 C9 1_555 1_555
H20 C9 1_555 1_555
C10 C9 1_555 1_555
H21 C10 1_555 1_555
H22 C10 1_555 1_555
C11 O9 1_555 1_555
H23 C11 1_555 1_555
H24 C11 1_555 1_555
C12 C11 1_555 1_555
H25 C12 1_555 1_555
H26 C12 1_555 1_555
C13 C12 1_555 1_555
H27 C13 1_555 1_555
H28 C13 1_555 1_555
C14 O11 1_555 1_555
H29 C14 1_555 1_555
H30 C14 1_555 1_555
C15 O10 1_555 1_555
H31 C15 1_555 1_555
H32 C15 1_555 1_555
C16 C15 1_555 1_555
H33 C16 1_555 1_555
H34 C16 1_555 1_555
C17 C16 1_555 1_555
H35 C17 1_555 1_555
H36 C17 1_555 1_555
C18 O12 1_555 1_555
H37 C18 1_555 1_555
H38 C18 1_555 1_555
C19 O13 1_555 1_555
H39 C19 1_555 1_555
H40 C19 1_555 1_555
C20 C19 1_555 1_555
H41 C20 1_555 1_555
H42 C20 1_555 1_555
C21 C20 1_555 1_555
H43 C21 1_555 1_555
H44 C21 1_555 1_555
C22 O17 1_555 1_555
H45 C22 1_555 1_555
H46 C22 1_555 1_555
C23 O14 1_555 1_555
H47 C23 1_555 1_555
H48 C23 1_555 1_555
C24 C23 1_555 1_555
H49 C24 1_555 1_555
H50 C24 1_555 1_555
C25 C24 1_555 1_555
H51 C25 1_555 1_555
H52 C25 1_555 1_555
C26 O16 1_555 1_555
H53 C26 1_555 1_555
H54 C26 1_555 1_555
C27 O15 1_555 1_555
H55 C27 1_555 1_555
H56 C27 1_555 1_555
C28 C27 1_555 1_555
H57 C28 1_555 1_555
H58 C28 1_555 1_555
C29 O5 1_555 1_555
H59 C29 1_555 1_555
H60 C29 1_555 1_555
C30 C29 1_555 1_555
H61 C30 1_555 1_555
H62 C30 1_555 1_555
C31 C30 1_555 1_555
H63 C31 1_555 1_555
H64 C31 1_555 1_555
C32 O6 1_555 1_555
H65 C32 1_555 1_555
H66 C32 1_555 1_555
C33 O4 1_555 1_555
H67 C33 1_555 1_555
H68 C33 1_555 1_555
C34 C33 1_555 1_555
H69 C34 1_555 1_555
H70 C34 1_555 1_555
C35 C34 1_555 1_555
H71 C35 1_555 1_555
H72 C35 1_555 1_555
C36 O18 1_555 1_555
H73 C36 1_555 1_555
H74 C36 1_555 1_555
Na1A O2 1_555 1_555
Na2A O2A 1_555 1_555
Na2A_2 O8A 1_555 1_555
Na3A O11A 1_555 1_555
Na3_2 O13 1_555 1_555
Na3A_2 O13 1_555 1_555
Na3A_3 O13A 1_555 1_555
Na4A O6A 1_555 1_555
Na4A_2 O15A 1_555 1_555
Na4A_3 O16A 1_555 1_555
O1A Na1A 1_555 1_555
O2A Na1 1_555 1_555
O3A Na1 1_555 1_555
O4A Na1A 1_555 1_555
O5A Na1A 1_555 1_555
O6A B2A 1_555 1_555
O7A Na2A 1_555 1_555
O8A H1A 1_555 1_555
O8A_2 Na2A 1_555 1_555
H1A_2 O8A_2 1_555 1_555
O9A Na2A 1_555 1_555
O10A Na2A 1_555 1_555
O11A B3A 1_555 1_555
O12A Na3A 1_555 1_555
O13A Na3 1_555 1_555
O13_2 Na3 1_555 1_555
O13_3 Na3A 1_555 1_555
O13A_2 Na3A 1_555 1_555
O14A Na3A_3 1_555 1_555
O14_2 Na3 1_555 1_555
O14A_2 Na3A 1_555 1_555
O15A H2A 1_555 1_555
O15A_2 Na4A 1_555 1_555
H2A_2 O15A_2 1_555 1_555
O16A Na3 1_555 1_555
O16_2 Na3A 1_555 1_555
O16A_2 Na4A 1_555 1_555
O17A Na4A_3 1_555 1_555
O17A_2 Na4A 1_555 1_555
O18A Na4A 1_555 1_555
B1A O1A 1_555 1_555
B2A O4A 1_555 1_555
B3A O9A 1_555 1_555
B4A O13A 1_555 1_555
C1A O1A 1_555 1_555
H3A C1A 1_555 1_555
H4A C1A 1_555 1_555
C2A C1A 1_555 1_555
H5A C2A 1_555 1_555
H6A C2A 1_555 1_555
C3A C2A 1_555 1_555
H7A C3A 1_555 1_555
H8A C3A 1_555 1_555
C4A O2A 1_555 1_555
H9A C4A 1_555 1_555
H10A C4A 1_555 1_555
C5A O3A 1_555 1_555
H11A C5A 1_555 1_555
H12A C5A 1_555 1_555
C6A C5A 1_555 1_555
H13A C6A 1_555 1_555
H14A C6A 1_555 1_555
C7A C6A 1_555 1_555
H15A C7A 1_555 1_555
H16A C7A 1_555 1_555
C8A O7A 1_555 1_555
H17A C8A 1_555 1_555
H18A C8A 1_555 1_555
C9A O8A 1_555 1_555
H19A C9A 1_555 1_555
H20A C9A 1_555 1_555
C10A C10 1_555 1_555
H21A C10A 1_555 1_555
H22A C10A 1_555 1_555
C11A O9A 1_555 1_555
H23A C11A 1_555 1_555
H24A C11A 1_555 1_555
C12A C11A 1_555 1_555
H25A C12A 1_555 1_555
H26A C12A 1_555 1_555
C13A C12A 1_555 1_555
H27A C13A 1_555 1_555
H28A C13A 1_555 1_555
C14A O11A 1_555 1_555
H29A C14A 1_555 1_555
H30A C14A 1_555 1_555
C15A O10A 1_555 1_555
H31A C15A 1_555 1_555
H32A C15A 1_555 1_555
C16A C15A 1_555 1_555
H33A C16A 1_555 1_555
H34A C16A 1_555 1_555
C17A C16A 1_555 1_555
H35A C17A 1_555 1_555
H36A C17A 1_555 1_555
C18A O12A 1_555 1_555
H37A C18A 1_555 1_555
H38A C18A 1_555 1_555
C19A O13A 1_555 1_555
H39A C19A 1_555 1_555
H40A C19A 1_555 1_555
C20A C19A 1_555 1_555
H41A C20A 1_555 1_555
H42A C20A 1_555 1_555
C21A C20A 1_555 1_555
H43A C21A 1_555 1_555
H44A C21A 1_555 1_555
C22A O17A 1_555 1_555
H45A C22A 1_555 1_555
H46A C22A 1_555 1_555
C23A O14A 1_555 1_555
H47A C23A 1_555 1_555
H48A C23A 1_555 1_555
C24A C23A 1_555 1_555
H49A C24A 1_555 1_555
H50A C24A 1_555 1_555
C25A C24A 1_555 1_555
H51A C25A 1_555 1_555
H52A C25A 1_555 1_555
C26A O16A 1_555 1_555
H53A C26A 1_555 1_555
H54A C26A 1_555 1_555
C27A O15A 1_555 1_555
H55A C27A 1_555 1_555
H56A C27A 1_555 1_555
C28A C28 1_555 1_555
H57A C28A 1_555 1_555
H58A C28A 1_555 1_555
C29A O5A 1_555 1_555
H59A C29A 1_555 1_555
H60A C29A 1_555 1_555
C30A C29A 1_555 1_555
H61A C30A 1_555 1_555
H62A C30A 1_555 1_555
C31A C30A 1_555 1_555
H63A C31A 1_555 1_555
H64A C31A 1_555 1_555
C32A O6A 1_555 1_555
H65A C32A 1_555 1_555
H66A C32A 1_555 1_555
C33A O4A 1_555 1_555
H67A C33A 1_555 1_555
H68A C33A 1_555 1_555
C34A C33A 1_555 1_555
H69A C34A 1_555 1_555
H70A C34A 1_555 1_555
C35A C34A 1_555 1_555
H71A C35A 1_555 1_555
H72A C35A 1_555 1_555
C36A O18A 1_555 1_555
H73A C36A 1_555 1_555
H74A C36A 1_555 1_555
O3 Na1A 1_555 1_555
O5 B2 1_555 1_555
O7 B1 1_555 1_555
O10 B3 1_555 1_555
O12 B3 1_555 1_555
O14 Na3_2 1_555 1_555
O16 Na3A_2 1_555 1_555
O17 B4 1_555 1_555
O18 B2 1_555 1_555
C3 C4 1_555 1_555
C7 C8 1_555 1_555
C13 C14 1_555 1_555
C17 C18 1_555 1_555
C21 C22 1_555 1_555
C25 C26 1_555 1_555
C31 C32 1_555 1_555
C35 C36 1_555 1_555
Na1A O3A 1_555 1_555
Na3A_3 O13_2 1_555 1_555
O2A B1A 1_555 1_555
O3A B1A 1_555 1_555
O5A B2A 1_555 1_555
O7A B1A 1_555 1_555
O10A B3A 1_555 1_555
O12A B3A 1_555 1_555
O14A B4A 1_555 1_555
O16A B4A 1_555 1_555
O17A B4A 1_555 1_555
O18A B2A 1_555 1_555
C3A C4A 1_555 1_555
C7A C8A 1_555 1_555
C9A C10A 1_555 1_555
C13A C14A 1_555 1_555
C17A C18A 1_555 1_555
C21A C22A 1_555 1_555
C25A C26A 1_555 1_555
C27A C28A 1_555 1_555
C31A C32A 1_555 1_555
C35A C36A 1_555 1_555

#END
