
#######################################################################
#
#                 Cambridge Crystallographic Data Centre
#                                CCDC 
#
#######################################################################
#
# If this CIF has been generated from an entry in the Cambridge 
# Structural Database, then it will include bibliographic, chemical, 
# crystal, experimental, refinement or atomic coordinate data resulting 
# from the CCDC's data processing and validation procedures.
#
#######################################################################

data_FEFJEG
_symmetry_cell_setting           monoclinic
_symmetry_space_group_name_H-M   'P 21/c'
_symmetry_Int_Tables_number      14
_space_group_name_Hall           '-P 2ybc'
loop_
_symmetry_equiv_pos_site_id
_symmetry_equiv_pos_as_xyz
1 x,y,z
2 -x,1/2+y,1/2-z
3 -x,-y,-z
4 x,1/2-y,1/2+z
_cell_length_a                   9.9034(10)
_cell_length_b                   10.9374(9)
_cell_length_c                   16.408(2)
_cell_angle_alpha                90
_cell_angle_beta                 102.252(5)
_cell_angle_gamma                90
_cell_volume                     1736.79
loop_
_atom_site_label
_atom_site_type_symbol
_atom_site_fract_x
_atom_site_fract_y
_atom_site_fract_z
Mn1 Mn 0.69299(2) 0.15917(2) 0.023240(10)
Cl1 Cl 0.77101(4) 0.34465(3) 0.10361(2)
O1 O 0.48792(10) 0.18038(9) 0.04645(7)
O2 O 0.36522(10) 0.00894(9) 0.05040(6)
O3 O -0.10940(10) 0.12216(9) -0.01573(7)
N1 N 0.12458(12) 0.13502(10) 0.01106(8)
N2 N 0.61953(13) 0.26612(12) -0.09599(8)
N3 N 0.77430(13) 0.03583(12) 0.13481(8)
C1 C -0.00259(15) 0.18776(13) -0.01270(9)
C2 C -0.00461(16) 0.31430(14) -0.03299(11)
C3 C 0.11562(17) 0.37752(14) -0.02642(12)
C4 C 0.24421(16) 0.31832(14) 0.00044(11)
C5 C 0.24649(15) 0.19677(13) 0.01734(9)
C6 C 0.37773(14) 0.12171(13) 0.03997(9)
C7 C 0.54786(17) 0.36959(14) -0.09311(10)
C8 C 0.48926(18) 0.43673(15) -0.16341(11)
C9 C 0.50764(19) 0.39582(16) -0.24014(10)
C10 C 0.58356(19) 0.29058(16) -0.24416(10)
C11 C 0.63741(17) 0.22879(14) -0.17102(10)
C12 C 0.70418(17) -0.05803(15) 0.15701(10)
C13 C 0.7566(3) -0.13315(18) 0.22421(13)
C14 C 0.8872(3) -0.1099(2) 0.27066(13)
C15 C 0.9611(2) -0.0135(2) 0.24830(13)
C16 C 0.90128(18) 0.05706(17) 0.18069(11)
H1 H 0.1282 0.0610 0.0224
H2 H -0.0905 0.3550 -0.0512
H3 H 0.1131 0.4620 -0.0400
H4 H 0.3280 0.3630 0.0066
H5 H 0.5367 0.3983 -0.0403
H6 H 0.4379 0.5089 -0.1590
H7 H 0.4685 0.4395 -0.2896
H8 H 0.5983 0.2614 -0.2961
H9 H 0.6895 0.1566 -0.1739
H10 H 0.6140 -0.0742 0.1252
H11 H 0.7036 -0.1994 0.2380
H12 H 0.9255 -0.1596 0.3173
H13 H 1.0517 0.0041 0.2789
H14 H 0.9524 0.1239 0.1658
Mn1B Mn 0.30701(2) -0.15917(2) -0.023240(10)
Mn1_2 Mn -0.30701(2) 0.15917(2) 0.023240(10)
O2B O 0.63478(10) -0.00894(9) -0.05040(6)
O3_2 O 0.89060(10) 0.12216(9) -0.01573(7)
loop_
_geom_bond_atom_site_label_1
_geom_bond_atom_site_label_2
_geom_bond_site_symmetry_1
_geom_bond_site_symmetry_2
Mn1 Cl1 1_555 1_555
O1 Mn1 1_555 1_555
O2 C6 1_555 1_555
O3 C1 1_555 1_555
N1 C1 1_555 1_555
N2 Mn1 1_555 1_555
N3 Mn1 1_555 1_555
C1 C2 1_555 1_555
C2 C3 1_555 1_555
C3 C4 1_555 1_555
C4 C5 1_555 1_555
C5 N1 1_555 1_555
C6 O1 1_555 1_555
C7 N2 1_555 1_555
C8 C7 1_555 1_555
C9 C8 1_555 1_555
C10 C9 1_555 1_555
C11 N2 1_555 1_555
C12 N3 1_555 1_555
C13 C12 1_555 1_555
C14 C13 1_555 1_555
C15 C14 1_555 1_555
C16 N3 1_555 1_555
H1 N1 1_555 1_555
H2 C2 1_555 1_555
H3 C3 1_555 1_555
H4 C4 1_555 1_555
H5 C7 1_555 1_555
H6 C8 1_555 1_555
H7 C9 1_555 1_555
H8 C10 1_555 1_555
H9 C11 1_555 1_555
H10 C12 1_555 1_555
H11 C13 1_555 1_555
H12 C14 1_555 1_555
H13 C15 1_555 1_555
H14 C16 1_555 1_555
Mn1B O2 1_555 1_555
Mn1_2 O3 1_555 1_555
O2B Mn1 1_555 1_555
O3_2 Mn1 1_555 1_555
C5 C6 1_555 1_555
C10 C11 1_555 1_555
C15 C16 1_555 1_555

#END
