
#######################################################################
#
#                 Cambridge Crystallographic Data Centre
#                                CCDC 
#
#######################################################################
#
# If this CIF has been generated from an entry in the Cambridge 
# Structural Database, then it will include bibliographic, chemical, 
# crystal, experimental, refinement or atomic coordinate data resulting 
# from the CCDC's data processing and validation procedures.
#
#######################################################################

data_FEFNAF
_symmetry_cell_setting           monoclinic
_symmetry_space_group_name_H-M   'C 2/c'
_symmetry_Int_Tables_number      15
_space_group_name_Hall           '-C 2yn'
loop_
_symmetry_equiv_pos_site_id
_symmetry_equiv_pos_as_xyz
1 x,y,z
2 1/2+x,1/2+y,z
3 -x,y,1/2-z
4 1/2-x,1/2+y,1/2-z
5 -x,-y,-z
6 1/2-x,1/2-y,-z
7 x,-y,1/2+z
8 1/2+x,1/2-y,1/2+z
_cell_length_a                   21.976(7)
_cell_length_b                   7.117(1)
_cell_length_c                   16.251(4)
_cell_angle_alpha                90
_cell_angle_beta                 98.97(2)
_cell_angle_gamma                90
_cell_volume                     2510.62
loop_
_atom_site_label
_atom_site_type_symbol
_atom_site_fract_x
_atom_site_fract_y
_atom_site_fract_z
U1 U 0.36704(2) 0.00941(6) 0.06267(3)
O1 O 0.3934(4) -0.1644(11) 0.1393(6)
O2 O 0.3414(4) 0.1739(11) -0.0192(6)
O3 O 0.4714(4) 0.1576(11) 0.0653(6)
O4 O 0.4367(4) -0.1464(11) -0.0239(6)
O5 O 0.2606(4) -0.0773(12) 0.0759(6)
O6 O 0.3199(4) -0.2424(12) -0.0340(7)
O7 O 0.3949(4) 0.2349(11) 0.1610(6)
C1 C 0.5100(5) 0.0874(14) 0.0266(8)
C2 C 0.2329(5) -0.2024(15) 0.0314(8)
C3 C 0.3001(7) 0.3901(20) 0.1413(11)
C4 C 0.3222(7) 0.1444(22) 0.2466(10)
N1 N 0.3315(5) 0.2133(13) 0.1639(7)
H1 H 0.323 0.417 0.083
H2 H 0.252 0.380 0.126
H3 H 0.311 0.498 0.186
H4 H 0.328 0.246 0.284
H5 H 0.278 0.090 0.246
H6 H 0.354 0.038 0.268
C1D C 0.4900(5) -0.0874(14) -0.0266(8)
C2E C 0.2671(5) -0.2976(15) -0.0314(8)
O4D O 0.5633(4) 0.1464(11) 0.0239(6)
O6E O 0.1801(4) -0.2576(12) 0.0340(7)
O3D O 0.5286(4) -0.1576(11) -0.0653(6)
O5E O 0.2394(4) -0.4227(12) -0.0759(6)
U1D U 0.63296(2) -0.00941(6) -0.06267(3)
U1E U 0.13296(2) -0.50941(6) -0.06267(3)
O1D O 0.6066(4) 0.1644(11) -0.1393(6)
O2D O 0.6586(4) -0.1739(11) 0.0192(6)
O5D O 0.7394(4) 0.0773(12) -0.0759(6)
O6D O 0.6801(4) 0.2424(12) 0.0340(7)
O7D O 0.6051(4) -0.2349(11) -0.1610(6)
N1D N 0.6685(5) -0.2133(13) -0.1639(7)
O1E O 0.1066(4) -0.3356(11) -0.1393(6)
O2E O 0.1586(4) -0.6739(11) 0.0192(6)
O3E O 0.0286(4) -0.6576(11) -0.0653(6)
O4E O 0.0633(4) -0.3536(11) 0.0239(6)
O7E O 0.1051(4) -0.7349(11) -0.1610(6)
N1E N 0.1685(5) -0.7133(13) -0.1639(7)
C2D C 0.7671(5) 0.2024(15) -0.0314(8)
C2A C 0.7329(5) 0.2976(15) 0.0314(8)
C3D C 0.6999(7) -0.3901(20) -0.1413(11)
C4D C 0.6778(7) -0.1444(22) -0.2466(10)
C1E C -0.0100(5) -0.5874(14) -0.0266(8)
C1A C 0.0100(5) -0.4126(14) 0.0266(8)
C3E C 0.1999(7) -0.8901(20) -0.1413(11)
C4E C 0.1778(7) -0.6444(22) -0.2466(10)
O6A O 0.8199(4) 0.2576(12) -0.0340(7)
O5A O 0.7606(4) 0.4227(12) 0.0759(6)
H1D H 0.677 -0.417 -0.083
H2D H 0.748 -0.380 -0.126
H3D H 0.689 -0.498 -0.186
H4D H 0.672 -0.246 -0.284
H5D H 0.722 -0.090 -0.246
H6D H 0.646 -0.038 -0.268
O4A O -0.0633(4) -0.6464(11) -0.0239(6)
O3A O -0.0286(4) -0.3424(11) 0.0653(6)
H1E H 0.177 -0.917 -0.083
H2E H 0.248 -0.880 -0.126
H3E H 0.189 -0.998 -0.186
H4E H 0.172 -0.746 -0.284
H5E H 0.222 -0.590 -0.246
H6E H 0.146 -0.538 -0.268
U1A U 0.86704(2) 0.50941(6) 0.06267(3)
U1A_2 U -0.13296(2) -0.49059(6) 0.06267(3)
O1A O 0.8934(4) 0.3356(11) 0.1393(6)
O2A O 0.8414(4) 0.6739(11) -0.0192(6)
O3A_2 O 0.9714(4) 0.6576(11) 0.0653(6)
O4A_2 O 0.9367(4) 0.3536(11) -0.0239(6)
O7A O 0.8949(4) 0.7349(11) 0.1610(6)
N1A N 0.8315(5) 0.7133(13) 0.1639(7)
C3A C 0.8001(7) 0.8901(20) 0.1413(11)
C4A C 0.8222(7) 0.6444(22) 0.2466(10)
H1A H 0.823 0.917 0.083
H2A H 0.752 0.880 0.126
H3A H 0.811 0.998 0.186
H4A H 0.828 0.746 0.284
H5A H 0.778 0.590 0.246
H6A H 0.854 0.538 0.268
O8 O 0.5000 0.0432(16) 0.2500
C5 C 0.0476(7) 0.1105(16) 0.1264(9)
N2 N 0.0897(5) 0.0123(15) 0.0932(7)
N3 N 0.0597(6) 0.2926(13) 0.1470(7)
N4 N -0.0048(5) 0.0346(14) 0.1388(8)
H7 H -0.033 0.097 0.164
H8 H -0.039 -0.012 0.105
loop_
_geom_bond_atom_site_label_1
_geom_bond_atom_site_label_2
_geom_bond_site_symmetry_1
_geom_bond_site_symmetry_2
U1 O1 1_555 1_555
O2 U1 1_555 1_555
O3 U1 1_555 1_555
O4 U1 1_555 1_555
O5 U1 1_555 1_555
O6 U1 1_555 1_555
O7 U1 1_555 1_555
C1 O3 1_555 1_555
C2 O5 1_555 1_555
C3 N1 1_555 1_555
C4 N1 1_555 1_555
C5 N2 1_555 1_555
N1 U1 1_555 1_555
N3 C5 1_555 1_555
N4 C5 1_555 1_555
H1 C3 1_555 1_555
H2 C3 1_555 1_555
H3 C3 1_555 1_555
H4 C4 1_555 1_555
H5 C4 1_555 1_555
H6 C4 1_555 1_555
H7 N4 1_555 1_555
H8 N4 1_555 1_555
C1D O4 1_555 1_555
C2E O6 1_555 1_555
O4D C1 1_555 1_555
O6E C2 1_555 1_555
O3D C1D 1_555 1_555
O5E C2E 1_555 1_555
U1D O4D 1_555 1_555
U1E O6E 1_555 1_555
O1D U1D 1_555 1_555
O2D U1D 1_555 1_555
O5D U1D 1_555 1_555
O6D U1D 1_555 1_555
O7D U1D 1_555 1_555
N1D U1D 1_555 1_555
O1E U1E 1_555 1_555
O2E U1E 1_555 1_555
O3E U1E 1_555 1_555
O4E U1E 1_555 1_555
O7E U1E 1_555 1_555
N1E U1E 1_555 1_555
C2D O5D 1_555 1_555
C2A O6D 1_555 1_555
C3D N1D 1_555 1_555
C4D N1D 1_555 1_555
C1E O3E 1_555 1_555
C1A O4E 1_555 1_555
C3E N1E 1_555 1_555
C4E N1E 1_555 1_555
O6A C2D 1_555 1_555
O5A C2A 1_555 1_555
H1D C3D 1_555 1_555
H2D C3D 1_555 1_555
H3D C3D 1_555 1_555
H4D C4D 1_555 1_555
H5D C4D 1_555 1_555
H6D C4D 1_555 1_555
O4A C1E 1_555 1_555
O3A C1A 1_555 1_555
H1E C3E 1_555 1_555
H2E C3E 1_555 1_555
H3E C3E 1_555 1_555
H4E C4E 1_555 1_555
H5E C4E 1_555 1_555
H6E C4E 1_555 1_555
U1A O6A 1_555 1_555
U1A_2 O4A 1_555 1_555
O1A U1A 1_555 1_555
O2A U1A 1_555 1_555
O3A_2 U1A 1_555 1_555
O4A_2 U1A 1_555 1_555
O7A U1A 1_555 1_555
N1A U1A 1_555 1_555
C3A N1A 1_555 1_555
C4A N1A 1_555 1_555
H1A C3A 1_555 1_555
H2A C3A 1_555 1_555
H3A C3A 1_555 1_555
H4A C4A 1_555 1_555
H5A C4A 1_555 1_555
H6A C4A 1_555 1_555
O7 N1 1_555 1_555
C1 C1D 1_555 1_555
C2 C2E 1_555 1_555
O3D U1D 1_555 1_555
O5E U1E 1_555 1_555
O7D N1D 1_555 1_555
O7E N1E 1_555 1_555
C2D C2A 1_555 1_555
C1E C1A 1_555 1_555
O5A U1A 1_555 1_555
O3A U1A_2 1_555 1_555
O7A N1A 1_555 1_555

#END
