
#######################################################################
#
#                 Cambridge Crystallographic Data Centre
#                                CCDC 
#
#######################################################################
#
# If this CIF has been generated from an entry in the Cambridge 
# Structural Database, then it will include bibliographic, chemical, 
# crystal, experimental, refinement or atomic coordinate data resulting 
# from the CCDC's data processing and validation procedures.
#
#######################################################################

data_FEFPAJ
_symmetry_cell_setting           monoclinic
_symmetry_space_group_name_H-M   'P 21'
_symmetry_Int_Tables_number      4
_space_group_name_Hall           'P 2yb'
loop_
_symmetry_equiv_pos_site_id
_symmetry_equiv_pos_as_xyz
1 x,y,z
2 -x,1/2+y,-z
_cell_length_a                   8.286(2)
_cell_length_b                   8.256(2)
_cell_length_c                   9.387(3)
_cell_angle_alpha                90
_cell_angle_beta                 92.172(4)
_cell_angle_gamma                90
_cell_volume                     641.696
loop_
_atom_site_label
_atom_site_type_symbol
_atom_site_fract_x
_atom_site_fract_y
_atom_site_fract_z
Mn1 Mn -0.00733(9) 0.82303(10) 0.66340(8)
Br1 Br 0.10226(6) 0.84859(6) 0.92578(5)
Br2 Br -0.26334(6) 0.65186(7) 0.71320(6)
O1 O -0.0888(4) 0.8426(5) 0.4355(3)
O2 O -0.1196(4) 1.1077(4) 0.4017(4)
C1 C -0.1209(6) 0.9616(7) 0.3596(5)
C2 C -0.1742(7) 0.9361(6) 0.2035(5)
H1 H -0.1017 0.9986 0.1409
C3 C -0.3499(7) 0.9880(7) 0.1733(6)
H2 H -0.4103 0.9912 0.2623
H3 H -0.3553 1.0961 0.1277
C4 C -0.4172(6) 0.8570(7) 0.0721(5)
H4 H -0.5362 0.8497 0.0756
H5 H -0.3872 0.8780 -0.0273
C5 C -0.3379(7) 0.7068(7) 0.1296(6)
H6 H -0.3406 0.6195 0.0572
H7 H -0.3915 0.6680 0.2157
N1 N -0.1682(6) 0.7588(5) 0.1651(5)
H8 H -0.105(5) 0.756(7) 0.085(4)
H9 H -0.117(5) 0.702(6) 0.238(4)
O3 O 0.2121(5) 0.9575(5) 0.5868(4)
H10 H 0.207(7) 0.997(7) 0.508(5)
C6 C 0.3698(6) 0.8857(7) 0.5969(6)
H11 H 0.3953 0.8549 0.6960
H12 H 0.4499 0.9639 0.5653
H13 H 0.3718 0.7892 0.5362
O4 O -0.0991(5) 1.0725(5) 0.6809(4)
H14 H -0.111(7) 1.085(8) 0.595(5)
C7 C -0.2383(6) 1.1217(8) 0.7557(6)
H15 H -0.3328 1.0606 0.7199
H16 H -0.2571 1.2378 0.7407
H17 H -0.2204 1.1004 0.8578
Mn1A Mn 0.00733(9) 1.32303(10) 0.33660(8)
O2A O 0.1196(4) 0.6077(4) 0.5983(4)
loop_
_geom_bond_atom_site_label_1
_geom_bond_atom_site_label_2
_geom_bond_site_symmetry_1
_geom_bond_site_symmetry_2
Mn1 Br1 1_555 1_555
Br2 Mn1 1_555 1_555
O1 Mn1 1_555 1_555
O2 C1 1_555 1_555
C1 O1 1_555 1_555
C2 C1 1_555 1_555
H1 C2 1_555 1_555
C3 C2 1_555 1_555
H2 C3 1_555 1_555
H3 C3 1_555 1_555
C4 C3 1_555 1_555
H4 C4 1_555 1_555
H5 C4 1_555 1_555
C5 C4 1_555 1_555
H6 C5 1_555 1_555
H7 C5 1_555 1_555
N1 C2 1_555 1_555
H8 N1 1_555 1_555
H9 N1 1_555 1_555
O3 Mn1 1_555 1_555
H10 O3 1_555 1_555
C6 O3 1_555 1_555
H11 C6 1_555 1_555
H12 C6 1_555 1_555
H13 C6 1_555 1_555
O4 Mn1 1_555 1_555
H14 O4 1_555 1_555
C7 O4 1_555 1_555
H15 C7 1_555 1_555
H16 C7 1_555 1_555
H17 C7 1_555 1_555
Mn1A O2 1_555 1_555
O2A Mn1 1_555 1_555
C5 N1 1_555 1_555

#END
