
#######################################################################
#
#                 Cambridge Crystallographic Data Centre
#                                CCDC 
#
#######################################################################
#
# If this CIF has been generated from an entry in the Cambridge 
# Structural Database, then it will include bibliographic, chemical, 
# crystal, experimental, refinement or atomic coordinate data resulting 
# from the CCDC's data processing and validation procedures.
#
#######################################################################

data_FEFTOA
_symmetry_cell_setting           monoclinic
_symmetry_space_group_name_H-M   'P 21/c'
_symmetry_Int_Tables_number      14
_space_group_name_Hall           '-P 2ybc'
loop_
_symmetry_equiv_pos_site_id
_symmetry_equiv_pos_as_xyz
1 x,y,z
2 -x,1/2+y,1/2-z
3 -x,-y,-z
4 x,1/2-y,1/2+z
_cell_length_a                   10.492(6)
_cell_length_b                   9.409(5)
_cell_length_c                   22.685(13)
_cell_angle_alpha                90.00
_cell_angle_beta                 100.124(9)
_cell_angle_gamma                90.00
_cell_volume                     2204.58
loop_
_atom_site_label
_atom_site_type_symbol
_atom_site_fract_x
_atom_site_fract_y
_atom_site_fract_z
Zn1 Zn 0.61337(3) 0.23437(3) 0.260145(12)
O1 O 0.7106(2) 0.0387(2) 0.25762(9)
O2 O 0.53540(16) 0.44091(19) 0.25925(8)
N1 N 0.7853(2) 0.3691(2) 0.27711(9)
O4 O 0.58207(17) 0.67229(19) 0.25845(8)
N2 N 0.6151(2) 0.2517(2) 0.16577(10)
C1 C 0.6170(3) 0.2755(3) 0.04317(12)
C2 C 0.7230(3) 0.3260(3) -0.04594(12)
C3 C 0.7254(3) 0.2294(4) 0.08227(13)
N3 N 0.9770(2) 0.5773(3) 0.28845(11)
N4 N 0.6116(2) 0.2845(2) -0.14605(10)
C4 C 0.5054(3) 0.2405(3) -0.06250(13)
C5 C 0.7171(3) 0.3251(3) -0.10715(12)
C6 C 0.9106(2) 0.3348(3) 0.28735(11)
C7 C 0.7203(3) 0.2187(4) 0.14286(13)
C8 C 1.0053(3) 0.4395(3) 0.29305(13)
C9 C 0.5078(3) 0.3127(4) 0.06718(12)
C10 C 0.5075(3) 0.2435(3) -0.12313(13)
C11 C 0.8508(3) 0.6108(3) 0.27797(12)
C12 C 0.7553(2) 0.5081(3) 0.27273(10)
C13 C 0.6157(3) 0.2819(3) -0.02229(12)
C14 C 0.5109(3) 0.2994(3) 0.12803(12)
C15 C 0.6127(2) 0.5440(3) 0.26256(10)
H4 H 0.789(3) 0.185(4) 0.1680(15)
H5 H 0.432(3) 0.223(3) -0.1510(15)
H6 H 0.804(3) 0.353(4) -0.0200(14)
H7 H 0.830(3) 0.713(4) 0.2758(16)
H8 H 0.791(3) 0.343(4) -0.1220(15)
H9 H 0.432(3) 0.348(4) 0.0426(16)
H10 H 0.934(3) 0.239(3) 0.2903(14)
H11 H 0.436(3) 0.317(4) 0.1444(14)
H12 H 1.090(3) 0.414(4) 0.3024(14)
H13 H 0.431(4) 0.209(4) -0.0477(16)
H14 H 0.796(4) 0.202(4) 0.0670(17)
H15 H 0.769(4) 0.011(4) 0.2809(17)
H16 H 0.648(4) -0.011(4) 0.2538(15)
Zn1A Zn 0.38663(3) 0.73437(3) 0.239855(12)
Zn1C Zn 0.61337(3) 0.26563(3) -0.239855(12)
O4A O 0.41793(17) 0.17229(19) 0.24155(8)
N4C N 0.6116(2) 0.2155(2) 0.35395(10)
Cl1 Cl 0.14907(7) 0.17301(12) 0.41138(4)
O5 O 0.2290(2) 0.1070(3) 0.46187(11)
O6 O 0.0204(2) 0.1928(4) 0.42245(13)
O7 O 0.1445(3) 0.0883(5) 0.35990(13)
O9 O 0.2019(3) 0.3112(4) 0.40226(17)
O3 O -0.0919(2) -0.0708(2) 0.33444(10)
O8 O -0.1485(5) -0.2062(4) 0.42988(16)
C16 C -0.2090(6) -0.4435(7) 0.4418(3)
H1 H -0.1781 -0.5414 0.4487
H2 H -0.2687 -0.4380 0.4035
H3 H -0.2539 -0.4142 0.4742
C17 C -0.0985(5) -0.3490(6) 0.4404(2)
H17 H -0.026(6) -0.338(6) 0.479(3)
H18 H -0.049(4) -0.377(5) 0.408(2)
loop_
_geom_bond_atom_site_label_1
_geom_bond_atom_site_label_2
_geom_bond_site_symmetry_1
_geom_bond_site_symmetry_2
Zn1 O1 1_555 1_555
Cl1 O5 1_555 1_555
O1 H15 1_555 1_555
O2 Zn1 1_555 1_555
N1 Zn1 1_555 1_555
O4 C15 1_555 1_555
N2 Zn1 1_555 1_555
C1 C3 1_555 1_555
C2 C5 1_555 1_555
C3 C7 1_555 1_555
N3 C8 1_555 1_555
N4 C5 1_555 1_555
C4 C10 1_555 1_555
C5 H8 1_555 1_555
C6 N1 1_555 1_555
O6 Cl1 1_555 1_555
C7 N2 1_555 1_555
C8 C6 1_555 1_555
C9 C1 1_555 1_555
C10 N4 1_555 1_555
C11 N3 1_555 1_555
C12 N1 1_555 1_555
C13 C1 1_555 1_555
O7 Cl1 1_555 1_555
C14 N2 1_555 1_555
O8 C17 1_555 1_555
O9 Cl1 1_555 1_555
C15 O2 1_555 1_555
C16 H1 1_555 1_555
H2 C16 1_555 1_555
H3 C16 1_555 1_555
C17 C16 1_555 1_555
H4 C7 1_555 1_555
H5 C10 1_555 1_555
H6 C2 1_555 1_555
H7 C11 1_555 1_555
H9 C9 1_555 1_555
H10 C6 1_555 1_555
H11 C14 1_555 1_555
H12 C8 1_555 1_555
H13 C4 1_555 1_555
H14 C3 1_555 1_555
H16 O1 1_555 1_555
H17 C17 1_555 1_555
H18 C17 1_555 1_555
Zn1A O4 1_555 1_555
Zn1C N4 1_555 1_555
O4A Zn1 1_555 1_555
N4C Zn1 1_555 1_555
C2 C13 1_555 1_555
C4 C13 1_555 1_555
C9 C14 1_555 1_555
C11 C12 1_555 1_555
C12 C15 1_555 1_555

#END
