
#######################################################################
#
#                 Cambridge Crystallographic Data Centre
#                                CCDC 
#
#######################################################################
#
# If this CIF has been generated from an entry in the Cambridge 
# Structural Database, then it will include bibliographic, chemical, 
# crystal, experimental, refinement or atomic coordinate data resulting 
# from the CCDC's data processing and validation procedures.
#
#######################################################################

data_FEFTER
_symmetry_cell_setting           triclinic
_symmetry_space_group_name_H-M   'P -1'
_symmetry_Int_Tables_number      2
_space_group_name_Hall           '-P 1'
loop_
_symmetry_equiv_pos_site_id
_symmetry_equiv_pos_as_xyz
1 x,y,z
2 -x,-y,-z
_cell_length_a                   8.1756(4)
_cell_length_b                   9.3263(4)
_cell_length_c                   13.8965(8)
_cell_angle_alpha                78.3690(10)
_cell_angle_beta                 83.065(2)
_cell_angle_gamma                76.5010(10)
_cell_volume                     1006.13
loop_
_atom_site_label
_atom_site_type_symbol
_atom_site_fract_x
_atom_site_fract_y
_atom_site_fract_z
Mo1 Mo 0.20305(4) 1.38472(4) -1.04893(2)
Mo2 Mo 0.33602(4) 0.67904(4) 0.07478(2)
Cu1 Cu 0.0000 1.0000 0.0000
O1 O 0.1353(3) 1.2255(3) -1.0509(2)
O2 O 0.0000 1.5000 -1.0000
O3 O 0.2044(4) 1.4709(3) -1.1681(2)
O4 O 0.3040(3) 1.5490(3) -0.9937(2)
O5 O 0.4499(3) 1.2934(3) -1.0583(2)
O6 O 0.2857(4) 0.6190(4) 0.1958(2)
O7 O 0.2045(3) 0.8534(3) 0.0382(2)
N1 N 0.2561(4) 1.2517(4) -0.8813(2)
N2 N 0.9111(5) 0.3513(4) -0.5150(3)
N3 N 0.0659(4) 0.9749(4) -0.1415(2)
C1 C 0.3405(6) 1.1089(5) -0.8737(3)
H1 H 0.3808 1.0722 -0.9314
C2 C 0.3708(6) 1.0139(5) -0.7857(3)
H2 H 0.4297 0.9155 -0.7849
C3 C 0.3135(5) 1.0647(4) -0.6978(3)
C4 C 0.2259(5) 1.2123(5) -0.7058(3)
H3 H 0.1840 1.2521 -0.6493
C5 C 0.2007(5) 1.3005(5) -0.7973(3)
H4 H 0.1419 1.3993 -0.8004
C6 C 0.3465(5) 0.9639(4) -0.6013(3)
C7 C 0.4711(4) 0.8383(4) -0.6004(3)
H5 H 0.5305 0.8166 -0.6589
C8 C 0.5085(5) 0.7446(4) -0.5137(3)
C9 C 0.4240(4) 0.7752(4) -0.4272(2)
H6 H 0.4523 0.7108 -0.3684
C10 C 0.2978(5) 0.9002(4) -0.4264(3)
C11 C 0.2569(5) 0.9957(4) -0.5140(3)
H7 H 0.1701 1.0804 -0.5145
C12 C 0.8237(5) 0.3863(5) -0.4327(4)
H8 H 0.8520 0.3222 -0.3737
C13 C 0.6940(5) 0.5108(5) -0.4281(3)
H9 H 0.6392 0.5289 -0.3677
C14 C 0.6467(5) 0.6077(4) -0.5140(3)
C15 C 0.7340(5) 0.5712(5) -0.6010(3)
H10 H 0.7060 0.6312 -0.6614
C16 C 0.8623(5) 0.4453(5) -0.5968(4)
H11 H 0.9196 0.4243 -0.6561
C17 C 0.0649(5) 1.0889(5) -0.2172(3)
H12 H 0.0155 1.1853 -0.2064
C18 C 0.1339(5) 1.0702(5) -0.3108(3)
H13 H 0.1291 1.1529 -0.3614
C19 C 0.2104(5) 0.9280(4) -0.3293(3)
C20 C 0.2047(6) 0.8095(5) -0.2511(3)
H14 H 0.2509 0.7116 -0.2602
C21 C 0.1308(5) 0.8366(5) -0.1603(3)
H15 H 0.1257 0.7553 -0.1097
Mo1A Mo -0.20305(4) 0.61528(4) 1.04893(2)
Mo1A_2 Mo -0.20305(4) 1.61528(4) -0.95107(2)
Mo1_2 Mo 0.20305(4) 0.38472(4) -0.04893(2)
Mo1A_3 Mo 0.79695(4) 0.61528(4) 0.04893(2)
Mo2A Mo -0.33602(4) 1.32096(4) -0.07478(2)
Mo2_2 Mo 0.33602(4) 1.67904(4) -0.92522(2)
Mo2A_2 Mo 0.66398(4) 1.32096(4) -1.07478(2)
O1A O -0.1353(3) 0.7745(3) 1.0509(2)
O2_2 O 0.0000 0.5000 1.0000
O3A O -0.2044(4) 0.5291(3) 1.1681(2)
O4_2 O 0.3040(3) 0.5490(3) 0.0063(2)
O4A O -0.3040(3) 0.4510(3) 0.9937(2)
O4A_2 O -0.3040(3) 1.4510(3) -0.0063(2)
O5A O 0.5501(3) 0.7066(3) 0.0583(2)
O5A_2 O -0.4499(3) 0.7066(3) 1.0583(2)
O5_2 O -0.5501(3) 1.2934(3) -0.0583(2)
O6A O -0.2857(4) 1.3810(4) -0.1958(2)
O7A O -0.2045(3) 1.1466(3) -0.0382(2)
N1A N -0.2561(4) 0.7483(4) 0.8813(2)
N2A N -0.9111(5) 1.6487(4) 0.5150(3)
N3A N -0.0659(4) 1.0251(4) 0.1415(2)
C1A C -0.3405(6) 0.8911(5) 0.8737(3)
H1A H -0.3808 0.9278 0.9314
C2A C -0.3708(6) 0.9861(5) 0.7857(3)
H2A H -0.4297 1.0845 0.7849
C3A C -0.3135(5) 0.9353(4) 0.6978(3)
C4A C -0.2259(5) 0.7877(5) 0.7058(3)
H3A H -0.1840 0.7479 0.6493
C5A C -0.2007(5) 0.6995(5) 0.7973(3)
H4A H -0.1419 0.6007 0.8004
C6A C -0.3465(5) 1.0361(4) 0.6013(3)
C7A C -0.4711(4) 1.1617(4) 0.6004(3)
H5A H -0.5305 1.1834 0.6589
C8A C -0.5085(5) 1.2554(4) 0.5137(3)
C9A C -0.4240(4) 1.2248(4) 0.4272(2)
H6A H -0.4523 1.2892 0.3684
C10A C -0.2978(5) 1.0998(4) 0.4264(3)
C11A C -0.2569(5) 1.0043(4) 0.5140(3)
H7A H -0.1701 0.9196 0.5145
C12A C -0.8237(5) 1.6137(5) 0.4327(4)
H8A H -0.8520 1.6778 0.3737
C13A C -0.6940(5) 1.4892(5) 0.4281(3)
H9A H -0.6392 1.4711 0.3677
C14A C -0.6467(5) 1.3923(4) 0.5140(3)
C15A C -0.7340(5) 1.4288(5) 0.6010(3)
H10A H -0.7060 1.3688 0.6614
C16A C -0.8623(5) 1.5547(5) 0.5968(4)
H11A H -0.9196 1.5757 0.6561
C17A C -0.0649(5) 0.9111(5) 0.2172(3)
H12A H -0.0155 0.8147 0.2064
C18A C -0.1339(5) 0.9298(5) 0.3108(3)
H13A H -0.1291 0.8471 0.3614
C19A C -0.2104(5) 1.0720(4) 0.3293(3)
C20A C -0.2047(6) 1.1905(5) 0.2511(3)
H14A H -0.2509 1.2884 0.2602
C21A C -0.1308(5) 1.1634(5) 0.1603(3)
H15A H -0.1257 1.2447 0.1097
loop_
_geom_bond_atom_site_label_1
_geom_bond_atom_site_label_2
_geom_bond_site_symmetry_1
_geom_bond_site_symmetry_2
Mo1 O1 1_555 1_555
Mo2 O6 1_555 1_555
Cu1 O7 1_555 1_555
O2 Mo1 1_555 1_555
O3 Mo1 1_555 1_555
O4 Mo1 1_555 1_555
O5 Mo1 1_555 1_555
O7 Mo2 1_555 1_555
N1 Mo1 1_555 1_555
N2 C12 1_555 1_555
N3 Cu1 1_555 1_555
C1 N1 1_555 1_555
H1 C1 1_555 1_555
C2 C1 1_555 1_555
H2 C2 1_555 1_555
C3 C2 1_555 1_555
C4 C3 1_555 1_555
H3 C4 1_555 1_555
C5 N1 1_555 1_555
H4 C5 1_555 1_555
C6 C3 1_555 1_555
C7 C6 1_555 1_555
H5 C7 1_555 1_555
C8 C7 1_555 1_555
C9 C8 1_555 1_555
H6 C9 1_555 1_555
C10 C9 1_555 1_555
C11 C6 1_555 1_555
H7 C11 1_555 1_555
C12 H8 1_555 1_555
C13 C12 1_555 1_555
H9 C13 1_555 1_555
C14 C8 1_555 1_555
C15 C14 1_555 1_555
H10 C15 1_555 1_555
C16 N2 1_555 1_555
H11 C16 1_555 1_555
C17 N3 1_555 1_555
H12 C17 1_555 1_555
C18 C17 1_555 1_555
H13 C18 1_555 1_555
C19 C10 1_555 1_555
C20 C19 1_555 1_555
H14 C20 1_555 1_555
C21 N3 1_555 1_555
H15 C21 1_555 1_555
Mo1A O1A 1_555 1_555
Mo1A_2 O2 1_555 1_555
Mo1_2 O4_2 1_555 1_555
Mo1A_3 O5A 1_555 1_555
Mo2A O4A_2 1_555 1_555
Mo2_2 O4 1_555 1_555
Mo2A_2 O5 1_555 1_555
O2_2 Mo1A 1_555 1_555
O3A Mo1A 1_555 1_555
O4_2 Mo2 1_555 1_555
O4A Mo1A 1_555 1_555
O5A Mo2 1_555 1_555
O5A_2 Mo1A 1_555 1_555
O5_2 Mo2A 1_555 1_555
O6A Mo2A 1_555 1_555
O7A Cu1 1_555 1_555
N1A Mo1A 1_555 1_555
N2A C12A 1_555 1_555
N3A Cu1 1_555 1_555
C1A N1A 1_555 1_555
H1A C1A 1_555 1_555
C2A C1A 1_555 1_555
H2A C2A 1_555 1_555
C3A C2A 1_555 1_555
C4A C3A 1_555 1_555
H3A C4A 1_555 1_555
C5A N1A 1_555 1_555
H4A C5A 1_555 1_555
C6A C3A 1_555 1_555
C7A C6A 1_555 1_555
H5A C7A 1_555 1_555
C8A C7A 1_555 1_555
C9A C8A 1_555 1_555
H6A C9A 1_555 1_555
C10A C9A 1_555 1_555
C11A C6A 1_555 1_555
H7A C11A 1_555 1_555
C12A H8A 1_555 1_555
C13A C12A 1_555 1_555
H9A C13A 1_555 1_555
C14A C8A 1_555 1_555
C15A C14A 1_555 1_555
H10A C15A 1_555 1_555
C16A N2A 1_555 1_555
H11A C16A 1_555 1_555
C17A N3A 1_555 1_555
H12A C17A 1_555 1_555
C18A C17A 1_555 1_555
H13A C18A 1_555 1_555
C19A C10A 1_555 1_555
C20A C19A 1_555 1_555
H14A C20A 1_555 1_555
C21A N3A 1_555 1_555
H15A C21A 1_555 1_555
C4 C5 1_555 1_555
C10 C11 1_555 1_555
C13 C14 1_555 1_555
C15 C16 1_555 1_555
C18 C19 1_555 1_555
C20 C21 1_555 1_555
Mo2A O7A 1_555 1_555
C4A C5A 1_555 1_555
C10A C11A 1_555 1_555
C13A C14A 1_555 1_555
C15A C16A 1_555 1_555
C18A C19A 1_555 1_555
C20A C21A 1_555 1_555

#END
