
#######################################################################
#
#                 Cambridge Crystallographic Data Centre
#                                CCDC 
#
#######################################################################
#
# If this CIF has been generated from an entry in the Cambridge 
# Structural Database, then it will include bibliographic, chemical, 
# crystal, experimental, refinement or atomic coordinate data resulting 
# from the CCDC's data processing and validation procedures.
#
#######################################################################

data_FEFTUG
_symmetry_cell_setting           triclinic
_symmetry_space_group_name_H-M   'P -1'
_symmetry_Int_Tables_number      2
_space_group_name_Hall           '-P 1'
loop_
_symmetry_equiv_pos_site_id
_symmetry_equiv_pos_as_xyz
1 x,y,z
2 -x,-y,-z
_cell_length_a                   10.4041(12)
_cell_length_b                   10.9049(14)
_cell_length_c                   13.5430(17)
_cell_angle_alpha                94.060(3)
_cell_angle_beta                 106.279(3)
_cell_angle_gamma                114.713(3)
_cell_volume                     1308.34
loop_
_atom_site_label
_atom_site_type_symbol
_atom_site_fract_x
_atom_site_fract_y
_atom_site_fract_z
Zn1 Zn 0.49507(8) 0.33999(8) 0.99635(6)
O1 O 0.3835(5) 0.4547(4) 1.0349(3)
O2 O 0.4065(5) 0.1345(4) 1.0196(3)
N1 N 0.3257(5) 0.6669(5) 1.0546(4)
N2 N 0.3245(6) 0.2581(5) 0.8416(4)
O3 O 0.1985(6) 0.3250(5) 1.0929(4)
N3 N 0.6283(6) 0.4051(5) 1.1600(4)
C1 C 0.2421(7) 0.5534(7) 1.0828(5)
N4 N 1.2488(7) 0.9189(6) 1.8457(5)
C2 C 0.2756(7) 0.4329(7) 1.0705(5)
N5 N 0.0883(7) 0.6476(6) 1.1209(5)
C3 C 0.0677(9) 0.1158(7) 0.7330(6)
C4 C 0.1035(7) 0.1051(7) 0.6441(5)
C5 C -0.0119(8) 0.0169(7) 0.5417(5)
C6 C 0.2872(10) 0.7674(9) 1.0606(6)
C7 C 0.1275(8) 0.5458(7) 1.1180(6)
C8 C 0.1795(8) 0.1914(7) 0.8299(5)
C9 C 0.2553(8) 0.1784(8) 0.6550(6)
C10 C 0.6422(11) 0.4463(9) 1.3369(6)
C11 C 1.1033(10) 0.8381(8) 1.8188(7)
C12 C 0.7760(9) 0.4798(8) 1.1947(7)
C13 C 0.3593(8) 0.2531(7) 0.7538(6)
C14 C 0.5646(9) 0.3881(8) 1.2333(6)
C15 C 0.7955(10) 0.5266(8) 1.3750(6)
C16 C 0.8620(10) 0.5405(8) 1.3006(7)
C17 C 1.0833(12) 0.7515(9) 1.6425(7)
C18 C 0.1705(9) 0.7581(9) 1.0935(6)
C19 C 1.3082(13) 0.9112(11) 1.7731(8)
C20 C 1.2329(11) 0.8325(9) 1.6729(7)
C21 C 1.0179(11) 0.7508(8) 1.7175(8)
C22 C 1.0014(11) 0.6724(9) 1.5303(7)
H1 H 1.0604 0.6845 1.4879
C23 C 0.8709(11) 0.5964(9) 1.4888(7)
H2 H 0.8107 0.5790 1.5307
H3 H 0.283(6) 0.180(5) 0.586(5)
H4 H 0.151(6) 0.823(5) 1.092(4)
H5 H 0.151(5) 0.194(5) 0.895(4)
H6 H 0.071(6) 0.455(6) 1.140(4)
H7 H 0.455(8) 0.348(7) 1.213(5)
H8 H 0.820(6) 0.491(5) 1.153(4)
H9 H 1.282(8) 0.818(7) 1.610(6)
H10 H 1.054(6) 0.843(5) 1.866(4)
H11 H 0.606(7) 0.444(6) 1.382(5)
H12 H 0.960(7) 0.591(6) 1.320(5)
H13 H 0.334(6) 0.833(5) 1.046(4)
H14 H 0.470(8) 0.301(7) 0.755(6)
H15 H 1.387(10) 0.952(10) 1.776(8)
H16 H 0.931(6) 0.718(6) 1.713(5)
H17 H -0.107(7) -0.010(6) 0.549(5)
H18 H -0.028(8) 0.065(7) 0.727(5)
Zn1A Zn 0.50493(8) 0.66001(8) 1.00365(6)
Zn1A_2 Zn -0.49507(8) -0.33999(8) 0.00365(6)
O1A O 0.6165(5) 0.5453(4) 0.9651(3)
O2A O 0.5935(5) 0.8655(4) 0.9804(3)
N1A N 0.6743(5) 0.3331(5) 0.9454(4)
N2A N -0.3245(6) -0.2581(5) 0.1584(4)
N2A_2 N 0.6755(6) 0.7419(5) 1.1584(4)
O3A O 0.8015(6) 0.6750(5) 0.9071(4)
N3A N 0.3717(6) 0.5949(5) 0.8400(4)
C1A C 0.7579(7) 0.4466(7) 0.9172(5)
N4A N -0.2488(7) 0.0811(6) 0.1543(5)
C2A C 0.7244(7) 0.5671(7) 0.9295(5)
N5A N 0.9117(7) 0.3524(6) 0.8791(5)
C3A C -0.0677(9) -0.1158(7) 0.2670(6)
C4A C -0.1035(7) -0.1051(7) 0.3559(5)
C5A C 0.0119(8) -0.0169(7) 0.4583(5)
C6A C 0.7128(10) 0.2326(9) 0.9394(6)
C7A C 0.8725(8) 0.4542(7) 0.8820(6)
C8A C -0.1795(8) -0.1914(7) 0.1701(5)
C9A C -0.2553(8) -0.1784(8) 0.3450(6)
C10A C 0.3578(11) 0.5537(9) 0.6631(6)
C11A C -0.1033(10) 0.1619(8) 0.1812(7)
C12A C 0.2240(9) 0.5202(8) 0.8053(7)
C13A C -0.3593(8) -0.2531(7) 0.2462(6)
C14A C 0.4354(9) 0.6119(8) 0.7667(6)
C15A C 0.2045(10) 0.4734(8) 0.6250(6)
C16A C 0.1380(10) 0.4595(8) 0.6994(7)
C17A C -0.0833(12) 0.2485(9) 0.3575(7)
C18A C 0.8295(9) 0.2419(9) 0.9065(6)
C19A C -0.3082(13) 0.0888(11) 0.2269(8)
C20A C -0.2329(11) 0.1675(9) 0.3271(7)
C21A C -0.0179(11) 0.2492(8) 0.2825(8)
C22A C -0.0014(11) 0.3276(9) 0.4697(7)
H1A H -0.0604 0.3155 0.5121
C23A C 0.1291(11) 0.4036(9) 0.5112(7)
H2A H 0.1893 0.4210 0.4693
H3A H -0.283(6) -0.180(5) 0.414(5)
H4A H 0.849(6) 0.177(5) 0.908(4)
H5A H -0.151(5) -0.194(5) 0.105(4)
H6A H 0.929(6) 0.545(6) 0.860(4)
H7A H 0.545(8) 0.652(7) 0.787(5)
H8A H 0.180(6) 0.509(5) 0.847(4)
H9A H -0.282(8) 0.182(7) 0.390(6)
H10A H -0.054(6) 0.157(5) 0.134(4)
H11A H 0.394(7) 0.556(6) 0.618(5)
H12A H 0.040(7) 0.409(6) 0.680(5)
H13A H 0.666(6) 0.167(5) 0.954(4)
H14A H -0.470(8) -0.301(7) 0.245(6)
H15A H -0.387(10) 0.048(10) 0.224(8)
H16A H 0.069(6) 0.282(6) 0.287(5)
H17A H 0.107(7) 0.010(6) 0.451(5)
H18A H 0.028(8) -0.065(7) 0.273(5)
Cl1 Cl 0.6230(3) 0.2698(4) 1.5993(2)
O5 O 0.5827(8) 0.1860(8) 1.6674(6)
O7 O 0.7180(13) 0.2507(16) 1.5597(10)
O8 O 0.4955(10) 0.2497(11) 1.5165(7)
O9 O 0.6830(16) 0.4031(11) 1.6523(8)
O4 O 0.2149(6) 0.0798(5) 1.1289(4)
O6 O 0.3362(8) 0.0463(8) 1.3267(6)
loop_
_geom_bond_atom_site_label_1
_geom_bond_atom_site_label_2
_geom_bond_site_symmetry_1
_geom_bond_site_symmetry_2
Zn1 O1 1_555 1_555
Cl1 O5 1_555 1_555
O1 C2 1_555 1_555
O2 Zn1 1_555 1_555
N1 C1 1_555 1_555
N2 Zn1 1_555 1_555
O3 C2 1_555 1_555
N3 Zn1 1_555 1_555
C1 C2 1_555 1_555
N4 C11 1_555 1_555
N5 C7 1_555 1_555
C3 C4 1_555 1_555
C4 C5 1_555 1_555
C5 H17 1_555 1_555
C6 N1 1_555 1_555
C7 C1 1_555 1_555
C8 N2 1_555 1_555
C9 C4 1_555 1_555
C10 C14 1_555 1_555
C11 C21 1_555 1_555
C12 N3 1_555 1_555
C13 N2 1_555 1_555
C14 N3 1_555 1_555
C15 C10 1_555 1_555
C16 C12 1_555 1_555
C17 C20 1_555 1_555
C18 N5 1_555 1_555
C19 N4 1_555 1_555
C20 C19 1_555 1_555
C21 C17 1_555 1_555
C22 C17 1_555 1_555
H1 C22 1_555 1_555
C23 C15 1_555 1_555
H2 C23 1_555 1_555
O7 Cl1 1_555 1_555
O8 Cl1 1_555 1_555
O9 Cl1 1_555 1_555
H3 C9 1_555 1_555
H4 C18 1_555 1_555
H5 C8 1_555 1_555
H6 C7 1_555 1_555
H7 C14 1_555 1_555
H8 C12 1_555 1_555
H9 C20 1_555 1_555
H10 C11 1_555 1_555
H11 C10 1_555 1_555
H12 C16 1_555 1_555
H13 C6 1_555 1_555
H14 C13 1_555 1_555
H15 C19 1_555 1_555
H16 C21 1_555 1_555
H18 C3 1_555 1_555
Zn1A O1 1_555 1_555
Zn1A_2 N2A 1_555 1_555
O1A Zn1 1_555 1_555
O2A Zn1A 1_555 1_555
N1A Zn1 1_555 1_555
N2A C8A 1_555 1_555
N2A_2 Zn1A 1_555 1_555
O3A C2A 1_555 1_555
N3A Zn1A 1_555 1_555
C1A N1A 1_555 1_555
N4A C11A 1_555 1_555
C2A O1A 1_555 1_555
N5A C7A 1_555 1_555
C3A C4A 1_555 1_555
C4A C5A 1_555 1_555
C5A C5 1_555 1_555
C6A N1A 1_555 1_555
C7A C1A 1_555 1_555
C8A C3A 1_555 1_555
C9A C4A 1_555 1_555
C10A C14A 1_555 1_555
C11A C21A 1_555 1_555
C12A N3A 1_555 1_555
C13A N2A 1_555 1_555
C14A N3A 1_555 1_555
C15A C10A 1_555 1_555
C16A C12A 1_555 1_555
C17A C20A 1_555 1_555
C18A N5A 1_555 1_555
C19A N4A 1_555 1_555
C20A C19A 1_555 1_555
C21A C17A 1_555 1_555
C22A C17A 1_555 1_555
H1A C22A 1_555 1_555
C23A C15A 1_555 1_555
H2A C23A 1_555 1_555
H3A C9A 1_555 1_555
H4A C18A 1_555 1_555
H5A C8A 1_555 1_555
H6A C7A 1_555 1_555
H7A C14A 1_555 1_555
H8A C12A 1_555 1_555
H9A C20A 1_555 1_555
H10A C11A 1_555 1_555
H11A C10A 1_555 1_555
H12A C16A 1_555 1_555
H13A C6A 1_555 1_555
H14A C13A 1_555 1_555
H15A C19A 1_555 1_555
H16A C21A 1_555 1_555
H17A C5A 1_555 1_555
H18A C3A 1_555 1_555
N1 Zn1A 1_555 1_555
C3 C8 1_555 1_555
C6 C18 1_555 1_555
C9 C13 1_555 1_555
C15 C16 1_555 1_555
C22 C23 1_555 1_555
Zn1A O1A 1_555 1_555
C1A C2A 1_555 1_555
C6A C18A 1_555 1_555
C9A C13A 1_555 1_555
C15A C16A 1_555 1_555
C22A C23A 1_555 1_555

#END
