
#######################################################################
#
#                 Cambridge Crystallographic Data Centre
#                                CCDC 
#
#######################################################################
#
# If this CIF has been generated from an entry in the Cambridge 
# Structural Database, then it will include bibliographic, chemical, 
# crystal, experimental, refinement or atomic coordinate data resulting 
# from the CCDC's data processing and validation procedures.
#
#######################################################################

data_FEFVIW
_symmetry_cell_setting           monoclinic
_symmetry_space_group_name_H-M   'P 2/m'
_symmetry_Int_Tables_number      10
_space_group_name_Hall           '-P 2y'
loop_
_symmetry_equiv_pos_site_id
_symmetry_equiv_pos_as_xyz
1 x,y,z
2 -x,y,-z
3 -x,-y,-z
4 x,-y,z
_cell_length_a                   7.0204(8)
_cell_length_b                   6.9920(8)
_cell_length_c                   7.1791(8)
_cell_angle_alpha                90.00
_cell_angle_beta                 104.324(2)
_cell_angle_gamma                90.00
_cell_volume                     341.443
loop_
_atom_site_label
_atom_site_type_symbol
_atom_site_fract_x
_atom_site_fract_y
_atom_site_fract_z
Zn1 Zn 0.0000 0.0000 0.0000
N1 N -0.0034(4) 0.0000 -0.3071(4)
C1 C 0.1650(6) 0.0000 -0.3621(5)
C2 C -0.1685(5) 0.0000 -0.4471(5)
O2 O 0.2154(3) 0.2104(3) 0.0413(3)
H1 H -0.286(7) 0.0000 -0.411(7)
H2 H 0.189(6) 0.311(6) -0.046(7)
H3 H 0.295(6) 0.252(6) 0.143(6)
H4 H 0.267(9) 0.0000 -0.281(9)
Zn1_2 Zn 0.0000 0.0000 -1.0000
N1B N 0.0034(4) 0.0000 -0.6929(4)
N1B_2 N 0.0034(4) 0.0000 0.3071(4)
C1B C -0.1650(6) 0.0000 -0.6379(5)
C2B C 0.1685(5) 0.0000 -0.5529(5)
O2C O 0.2154(3) -0.2104(3) 0.0413(3)
O2B O -0.2154(3) -0.2104(3) -0.0413(3)
O2A O -0.2154(3) 0.2104(3) -0.0413(3)
H1B H 0.286(7) 0.0000 -0.589(7)
H2C H 0.189(6) -0.311(6) -0.046(7)
H2B H -0.189(6) -0.311(6) 0.046(7)
H2A H -0.189(6) 0.311(6) 0.046(7)
H3C H 0.295(6) -0.252(6) 0.143(6)
H3B H -0.295(6) -0.252(6) -0.143(6)
H3A H -0.295(6) 0.252(6) -0.143(6)
H4B H -0.267(9) 0.0000 -0.719(9)
Si1 Si -0.5000 0.5000 -0.5000
F1 F -0.2526(3) 0.5000 -0.4405(4)
F2 F -0.4984(3) 0.3313(4) -0.6642(3)
F1B F -0.7474(3) 0.5000 -0.5595(4)
F2C F -0.4984(3) 0.6687(4) -0.6642(3)
F2B F -0.5016(3) 0.6687(4) -0.3358(3)
F2A F -0.5016(3) 0.3313(4) -0.3358(3)
O1 O 0.1214(4) 0.5000 -0.2174(4)
loop_
_geom_bond_atom_site_label_1
_geom_bond_atom_site_label_2
_geom_bond_site_symmetry_1
_geom_bond_site_symmetry_2
Zn1 N1 1_555 1_555
Si1 F1 1_555 1_555
F2 Si1 1_555 1_555
N1 C1 1_555 1_555
C1 H4 1_555 1_555
C2 N1 1_555 1_555
O2 Zn1 1_555 1_555
H1 C2 1_555 1_555
H2 O2 1_555 1_555
H3 O2 1_555 1_555
Zn1_2 N1B 1_555 1_555
F1B Si1 1_555 1_555
F2C Si1 1_555 1_555
F2B Si1 1_555 1_555
F2A Si1 1_555 1_555
N1B C1B 1_555 1_555
N1B_2 Zn1 1_555 1_555
C1B C2 1_555 1_555
C2B C1 1_555 1_555
O2C Zn1 1_555 1_555
O2B Zn1 1_555 1_555
O2A Zn1 1_555 1_555
H1B C2B 1_555 1_555
H2C O2C 1_555 1_555
H2B O2B 1_555 1_555
H2A O2A 1_555 1_555
H3C O2C 1_555 1_555
H3B O2B 1_555 1_555
H3A O2A 1_555 1_555
H4B C1B 1_555 1_555
N1B C2B 1_555 1_555

#END
