
#######################################################################
#
#                 Cambridge Crystallographic Data Centre
#                                CCDC 
#
#######################################################################
#
# If this CIF has been generated from an entry in the Cambridge 
# Structural Database, then it will include bibliographic, chemical, 
# crystal, experimental, refinement or atomic coordinate data resulting 
# from the CCDC's data processing and validation procedures.
#
#######################################################################

data_FEFVES
_symmetry_cell_setting           monoclinic
_symmetry_space_group_name_H-M   'C c'
_symmetry_Int_Tables_number      9
_space_group_name_Hall           'C -2yc'
loop_
_symmetry_equiv_pos_site_id
_symmetry_equiv_pos_as_xyz
1 x,y,z
2 x,-y,1/2+z
3 1/2+x,1/2+y,z
4 1/2+x,1/2-y,1/2+z
_cell_length_a                   14.7857(12)
_cell_length_b                   16.5284(13)
_cell_length_c                   10.2302(8)
_cell_angle_alpha                90.00
_cell_angle_beta                 119.1040(10)
_cell_angle_gamma                90.00
_cell_volume                     2184.43
loop_
_atom_site_label
_atom_site_type_symbol
_atom_site_fract_x
_atom_site_fract_y
_atom_site_fract_z
Zn1 Zn 0.04693(4) 0.04566(3) -0.31685(5)
C1 C 0.1235(3) -0.1124(3) -0.1623(5)
C2 C 0.1682(4) -0.1883(3) -0.1194(6)
C3 C 0.1980(5) -0.1890(4) -0.3151(7)
C4 C 0.1537(4) -0.1137(4) -0.3594(6)
C5 C 0.0812(4) -0.0661(3) -0.0765(5)
N1 N 0.2060(4) -0.2273(3) -0.1965(6)
N2 N 0.1154(3) -0.0752(3) -0.2834(4)
O1 O 0.0963(3) -0.0949(2) 0.0450(4)
O2 O 0.0347(3) -0.0017(2) -0.1344(4)
N3 N -0.1058(3) 0.0225(3) -0.4813(5)
N4 N -0.4866(3) -0.3392(2) -1.2606(4)
C6 C -0.1531(4) 0.0763(3) -0.5911(7)
C7 C -0.2498(5) 0.0652(4) -0.7119(7)
C8 C -0.3040(4) -0.0058(3) -0.7207(6)
C9 C -0.2562(5) -0.0605(4) -0.6031(8)
C10 C -0.1585(5) -0.0450(3) -0.4880(7)
C11 C -0.4469(6) -0.2710(3) -1.2817(7)
C12 C -0.4572(6) -0.1978(4) -1.2275(9)
C13 C -0.5093(4) -0.1912(3) -1.1482(6)
C14 C -0.5528(4) -0.2611(3) -1.1311(7)
C15 C -0.5409(4) -0.3331(3) -1.1902(6)
C16 C -0.4095(5) -0.0215(4) -0.8508(8)
C17 C -0.4078(5) -0.0955(4) -0.9396(7)
C18 C -0.5132(5) -0.1131(4) -1.0745(7)
C19 C 0.3076(8) 0.0446(6) -0.0273(15)
O7 O 0.2225(4) 0.0840(3) -0.1348(6)
H1 H 0.160(4) -0.219(3) -0.030(6)
H2 H 0.213(4) -0.219(3) -0.375(6)
H3 H 0.149(5) -0.091(4) -0.441(7)
H4 H -0.388(4) -0.147(3) -0.867(6)
H5 H -0.568(6) -0.114(4) -1.047(8)
H6 H -0.360(7) -0.088(5) -0.954(9)
H7 H -0.470(8) -0.025(5) -0.833(13)
H8 H -0.446(8) 0.032(6) -0.927(12)
H9 H -0.570(5) -0.382(4) -1.180(8)
H10 H -0.597(5) -0.266(4) -1.075(8)
H11 H -0.542(9) -0.075(8) -1.140(14)
H12 H -0.438(9) -0.152(7) -1.240(11)
H13 H -0.395(6) -0.273(5) -1.322(8)
H14 H -0.134(5) -0.079(4) -0.415(8)
H15 H -0.290(6) -0.111(5) -0.588(9)
H16 H -0.279(5) 0.099(4) -0.776(8)
H17 H -0.116(5) 0.123(4) -0.592(6)
H18 H 0.294(6) 0.016(5) 0.047(9)
H19 H 0.356(8) 0.048(4) 0.064(12)
H20 H 0.329(6) 0.029(5) -0.096(9)
H21 H 0.233(9) 0.115(7) -0.204(13)
Zn1A Zn 0.04693(4) -0.04566(3) 0.18315(5)
Zn1B Zn -0.45307(4) -0.45434(3) -1.31685(5)
O1A O 0.0963(3) 0.0949(2) -0.4550(4)
N4B N 0.0134(3) 0.1608(2) -0.2606(4)
Cl1 Cl 0.41144(15) 0.19534(14) -0.2238(2)
O3 O 0.5065(8) 0.1758(7) -0.0973(11)
O4 O 0.3766(9) 0.1275(7) -0.3147(14)
O5 O 0.3357(10) 0.2124(6) -0.1838(16)
O6 O 0.4224(9) 0.2632(8) -0.2968(13)
loop_
_geom_bond_atom_site_label_1
_geom_bond_atom_site_label_2
_geom_bond_site_symmetry_1
_geom_bond_site_symmetry_2
Zn1 N2 1_555 1_555
C1 C2 1_555 1_555
C2 N1 1_555 1_555
C3 C4 1_555 1_555
C4 N2 1_555 1_555
C5 C1 1_555 1_555
N1 C3 1_555 1_555
N2 C1 1_555 1_555
O1 C5 1_555 1_555
O2 Zn1 1_555 1_555
N3 Zn1 1_555 1_555
N4 C11 1_555 1_555
C6 N3 1_555 1_555
C7 C6 1_555 1_555
C8 C7 1_555 1_555
C9 C8 1_555 1_555
C10 N3 1_555 1_555
C11 C12 1_555 1_555
C12 C13 1_555 1_555
C13 C14 1_555 1_555
C14 C15 1_555 1_555
C15 N4 1_555 1_555
C16 C8 1_555 1_555
C17 C16 1_555 1_555
C18 C13 1_555 1_555
Cl1 O3 1_555 1_555
O4 Cl1 1_555 1_555
O5 Cl1 1_555 1_555
O6 Cl1 1_555 1_555
C19 O7 1_555 1_555
O7 Zn1 1_555 1_555
H1 C2 1_555 1_555
H2 C3 1_555 1_555
H3 C4 1_555 1_555
H4 C17 1_555 1_555
H5 C18 1_555 1_555
H6 C17 1_555 1_555
H7 C16 1_555 1_555
H8 C16 1_555 1_555
H9 C15 1_555 1_555
H10 C14 1_555 1_555
H11 C18 1_555 1_555
H12 C12 1_555 1_555
H13 C11 1_555 1_555
H14 C10 1_555 1_555
H15 C9 1_555 1_555
H16 C7 1_555 1_555
H17 C6 1_555 1_555
H18 C19 1_555 1_555
H19 C19 1_555 1_555
H20 C19 1_555 1_555
H21 O7 1_555 1_555
Zn1A O1 1_555 1_555
Zn1B N4 1_555 1_555
O1A Zn1 1_555 1_555
N4B Zn1 1_555 1_555
C5 O2 1_555 1_555
C9 C10 1_555 1_555
C17 C18 1_555 1_555

#END
