
#######################################################################
#
#                 Cambridge Crystallographic Data Centre
#                                CCDC 
#
#######################################################################
#
# If this CIF has been generated from an entry in the Cambridge 
# Structural Database, then it will include bibliographic, chemical, 
# crystal, experimental, refinement or atomic coordinate data resulting 
# from the CCDC's data processing and validation procedures.
#
#######################################################################

data_FEFVOB
_symmetry_cell_setting           monoclinic
_symmetry_space_group_name_H-M   'P 21/c'
_symmetry_Int_Tables_number      14
_space_group_name_Hall           '-P 2ybc'
loop_
_symmetry_equiv_pos_site_id
_symmetry_equiv_pos_as_xyz
1 x,y,z
2 -x,1/2+y,1/2-z
3 -x,-y,-z
4 x,1/2-y,1/2+z
_cell_length_a                   9.787(2)
_cell_length_b                   22.973(5)
_cell_length_c                   9.671(2)
_cell_angle_alpha                90
_cell_angle_beta                 117.32(3)
_cell_angle_gamma                90
_cell_volume                     1931.86
loop_
_atom_site_label
_atom_site_type_symbol
_atom_site_fract_x
_atom_site_fract_y
_atom_site_fract_z
Mn1 Mn 0.1124(2) -0.15907(7) -0.9539(2)
O1 O 0.0297(10) -0.1265(3) -1.1979(9)
O2 O -0.1017(9) -0.2851(3) -1.5253(9)
N1 N -0.0354(10) -0.1597(4) -1.3201(10)
N2 N -0.0940(11) -0.2334(4) -1.4719(11)
N3 N 0.1824(10) -0.2314(4) -1.0564(10)
N4 N 0.1738(11) -0.2978(3) -1.2325(10)
C1 C 0.0025(12) -0.2150(5) -1.3293(13)
C2 C -0.162(2) -0.1361(6) -1.465(2)
C3 C -0.2147(14) -0.1907(5) -1.5703(12)
C4 C -0.084(4) -0.0876(10) -1.513(2)
C5 C -0.278(3) -0.1084(13) -1.430(3)
C6 C -0.364(2) -0.2148(6) -1.594(2)
C7 C -0.215(2) -0.1850(7) -1.725(2)
C8 C 0.1180(14) -0.2470(5) -1.2083(14)
C9 C 0.2775(14) -0.2749(5) -0.9808(14)
C10 C 0.2741(13) -0.3152(5) -1.0877(13)
N5 N -0.0173(13) -0.0864(4) -0.9221(11)
N6 N -0.210(2) -0.0340(5) -0.938(2)
C11 C -0.170(2) -0.0849(6) -0.9823(14)
C12 C -0.081(2) -0.0047(6) -0.850(2)
C13 C 0.031(2) -0.0375(5) -0.841(2)
O6 O 0.3259(9) -0.1111(3) -0.8817(10)
H1 H -0.007(4) -0.1044(10) -1.536(2)
H2 H -0.036(4) -0.0604(10) -1.429(2)
H3 H -0.159(4) -0.0678(10) -1.603(2)
H4 H -0.329(3) -0.1376(13) -1.400(3)
H5 H -0.351(3) -0.0885(13) -1.521(3)
H6 H -0.228(3) -0.0810(13) -1.347(3)
H7 H -0.365(2) -0.2186(6) -1.496(2)
H8 H -0.380(2) -0.2523(6) -1.643(2)
H9 H -0.446(2) -0.1891(6) -1.660(2)
H10 H -0.119(2) -0.1694(7) -1.710(2)
H11 H -0.297(2) -0.1593(7) -1.790(2)
H12 H -0.231(2) -0.2226(7) -1.773(2)
H13 H 0.3366(14) -0.2775(5) -0.8735(14)
H14 H 0.3321(13) -0.3492(5) -1.0639(13)
H15 H -0.302(2) -0.0227(5) -0.963(2)
H16 H -0.237(2) -0.1136(6) -1.0437(14)
H17 H -0.073(2) 0.0316(6) -0.805(2)
H18 H 0.134(2) -0.0277(5) -0.783(2)
O2C O -0.1017(9) -0.2149(3) -1.0253(9)
Mn1C Mn 0.1124(2) -0.34093(7) -1.4539(2)
N4C N 0.1738(11) -0.2022(3) -0.7325(10)
O3 O 0.4366(13) -0.0195(5) 0.3278(12)
N7 N 0.5167(11) 0.0168(5) 0.283(2)
O4 O 0.578(2) 0.0657(9) 0.365(3)
O5 O 0.536(3) 0.0043(9) 0.158(3)
O7 O 0.419(2) -0.1169(11) -0.127(2)
loop_
_geom_bond_atom_site_label_1
_geom_bond_atom_site_label_2
_geom_bond_site_symmetry_1
_geom_bond_site_symmetry_2
Mn1 O1 1_555 1_555
O1 N1 1_555 1_555
O2 N2 1_555 1_555
N1 C1 1_555 1_555
N2 C1 1_555 1_555
N3 Mn1 1_555 1_555
N4 C8 1_555 1_555
C1 C8 1_555 1_555
C2 N1 1_555 1_555
C3 N2 1_555 1_555
C4 C2 1_555 1_555
C5 C2 1_555 1_555
C6 C3 1_555 1_555
C7 C3 1_555 1_555
C8 N3 1_555 1_555
C9 N3 1_555 1_555
C10 N4 1_555 1_555
N5 Mn1 1_555 1_555
N6 C11 1_555 1_555
C11 N5 1_555 1_555
C12 N6 1_555 1_555
C13 N5 1_555 1_555
O3 N7 1_555 1_555
N7 O4 1_555 1_555
O5 N7 1_555 1_555
O6 Mn1 1_555 1_555
H1 C4 1_555 1_555
H2 C4 1_555 1_555
H3 C4 1_555 1_555
H4 C5 1_555 1_555
H5 C5 1_555 1_555
H6 C5 1_555 1_555
H7 C6 1_555 1_555
H8 C6 1_555 1_555
H9 C6 1_555 1_555
H10 C7 1_555 1_555
H11 C7 1_555 1_555
H12 C7 1_555 1_555
H13 C9 1_555 1_555
H14 C10 1_555 1_555
H15 N6 1_555 1_555
H16 C11 1_555 1_555
H17 C12 1_555 1_555
H18 C13 1_555 1_555
O2C Mn1 1_555 1_555
Mn1C O2 1_555 1_555
N4C Mn1 1_555 1_555
N4 Mn1C 1_555 1_555
C2 C3 1_555 1_555
C9 C10 1_555 1_555
C12 C13 1_555 1_555

#END
