
#######################################################################
#
#                 Cambridge Crystallographic Data Centre
#                                CCDC 
#
#######################################################################
#
# If this CIF has been generated from an entry in the Cambridge 
# Structural Database, then it will include bibliographic, chemical, 
# crystal, experimental, refinement or atomic coordinate data resulting 
# from the CCDC's data processing and validation procedures.
#
#######################################################################

data_FEFVER
_symmetry_cell_setting           orthorhombic
_symmetry_space_group_name_H-M   'F d d 2'
_symmetry_Int_Tables_number      43
_space_group_name_Hall           'F 2 -2d'
loop_
_symmetry_equiv_pos_site_id
_symmetry_equiv_pos_as_xyz
1 x,y,z
2 -x,-y,z
3 1/4-x,1/4+y,1/4+z
4 3/4+x,3/4-y,1/4+z
5 x,1/2+y,1/2+z
6 -x,1/2-y,1/2+z
7 1/4-x,3/4+y,3/4+z
8 3/4+x,1/4-y,3/4+z
9 1/2+x,y,1/2+z
10 1/2-x,-y,1/2+z
11 3/4-x,1/4+y,3/4+z
12 1/4+x,3/4-y,3/4+z
13 1/2+x,1/2+y,z
14 1/2-x,1/2-y,z
15 3/4-x,3/4+y,1/4+z
16 1/4+x,1/4-y,1/4+z
_cell_length_a                   16.713(1)
_cell_length_b                   40.111(3)
_cell_length_c                   9.735(1)
_cell_angle_alpha                90
_cell_angle_beta                 90
_cell_angle_gamma                90
_cell_volume                     6526.1
loop_
_atom_site_label
_atom_site_type_symbol
_atom_site_fract_x
_atom_site_fract_y
_atom_site_fract_z
O1 O 0.0606(3) 0.05413(13) 0.6183(7)
O2 O -0.1094(3) 0.14485(13) 0.5897(6)
N1 N -0.0025(4) 0.0727(2) 0.6226(8)
N2 N -0.0826(4) 0.1154(2) 0.6092(7)
N3 N 0.1343(4) 0.1147(2) 0.5385(8)
N4 N 0.0450(4) 0.1531(2) 0.4613(7)
C1 C -0.0082(5) 0.1045(2) 0.5793(8)
C2 C -0.0796(5) 0.0586(2) 0.6771(11)
C3 C -0.1335(5) 0.0899(2) 0.6791(11)
C4 C -0.0654(9) 0.0424(4) 0.813(2)
C5 C -0.1037(7) 0.0328(3) 0.570(2)
C6 C -0.1498(9) 0.1031(2) 0.8185(13)
C7 C -0.2099(7) 0.0861(3) 0.599(2)
C8 C 0.0571(5) 0.1235(2) 0.5249(9)
C9 C 0.1737(5) 0.1403(2) 0.4826(10)
C10 C 0.1204(5) 0.1639(2) 0.4329(11)
O3 O 0.2327(3) 0.04058(13) 0.5124(6)
O4 O 0.1975(4) 0.03284(13) 0.8110(7)
H1 H -0.0503(9) 0.0590(4) 0.879(2)
H2 H -0.0233(9) 0.0262(4) 0.805(2)
H3 H -0.1135(9) 0.0315(4) 0.843(2)
H4 H -0.1125(7) 0.0437(3) 0.484(2)
H5 H -0.1520(7) 0.0219(3) 0.599(2)
H6 H -0.0618(7) 0.0166(3) 0.560(2)
H7 H -0.1004(9) 0.1054(2) 0.8679(13)
H8 H -0.1844(9) 0.0880(2) 0.8668(13)
H9 H -0.1752(9) 0.1245(2) 0.8112(13)
H10 H -0.1980(7) 0.0775(3) 0.509(2)
H11 H -0.2356(7) 0.1074(3) 0.591(2)
H12 H -0.2448(7) 0.0709(3) 0.646(2)
H13 H 0.2291(5) 0.1422(2) 0.4778(10)
H14 H 0.1337(5) 0.1836(2) 0.3881(11)
Mn1 Mn 0.18035(7) 0.07281(3) 0.66311(14)
Mn1G Mn -0.06965(7) 0.17719(3) 0.41311(14)
O2O O 0.1406(3) 0.10515(13) 0.8397(6)
N4O N 0.2950(4) 0.0969(2) 0.7113(7)
O5 O 0.1840(4) 0.0107(2) 0.2804(8)
O6 O 0.1557(4) 0.0054(2) 0.0628(8)
C11 C 0.1449(5) 0.0177(2) 0.1804(12)
C12 C 0.0791(6) 0.0438(3) 0.1937(14)
H15 H 0.0532(6) 0.0467(3) 0.1064(14)
H16 H 0.1021(6) 0.0646(3) 0.2225(14)
H17 H 0.0405(6) 0.0366(3) 0.2604(14)
loop_
_geom_bond_atom_site_label_1
_geom_bond_atom_site_label_2
_geom_bond_site_symmetry_1
_geom_bond_site_symmetry_2
O1 N1 1_555 1_555
O2 N2 1_555 1_555
N1 C1 1_555 1_555
N2 C1 1_555 1_555
N3 C8 1_555 1_555
N4 C8 1_555 1_555
C1 C8 1_555 1_555
C2 N1 1_555 1_555
C3 N2 1_555 1_555
C4 C2 1_555 1_555
C5 C2 1_555 1_555
C6 C3 1_555 1_555
C7 C3 1_555 1_555
C9 N3 1_555 1_555
C10 N4 1_555 1_555
O3 Mn1 1_555 1_555
O4 Mn1 1_555 1_555
O5 C11 1_555 1_555
O6 C11 1_555 1_555
C11 C12 1_555 1_555
C12 H15 1_555 1_555
H1 C4 1_555 1_555
H2 C4 1_555 1_555
H3 C4 1_555 1_555
H4 C5 1_555 1_555
H5 C5 1_555 1_555
H6 C5 1_555 1_555
H7 C6 1_555 1_555
H8 C6 1_555 1_555
H9 C6 1_555 1_555
H10 C7 1_555 1_555
H11 C7 1_555 1_555
H12 C7 1_555 1_555
H13 C9 1_555 1_555
H14 C10 1_555 1_555
H16 C12 1_555 1_555
H17 C12 1_555 1_555
Mn1 O1 1_555 1_555
Mn1G O2 1_555 1_555
O2O Mn1 1_555 1_555
N4O Mn1 1_555 1_555
N3 Mn1 1_555 1_555
N4 Mn1G 1_555 1_555
C2 C3 1_555 1_555
C9 C10 1_555 1_555

#END
