
#######################################################################
#
#                 Cambridge Crystallographic Data Centre
#                                CCDC 
#
#######################################################################
#
# If this CIF has been generated from an entry in the Cambridge 
# Structural Database, then it will include bibliographic, chemical, 
# crystal, experimental, refinement or atomic coordinate data resulting 
# from the CCDC's data processing and validation procedures.
#
#######################################################################

data_FEGDOM
_symmetry_cell_setting           triclinic
_symmetry_space_group_name_H-M   'P -1'
_symmetry_Int_Tables_number      2
_space_group_name_Hall           '-P 1'
loop_
_symmetry_equiv_pos_site_id
_symmetry_equiv_pos_as_xyz
1 x,y,z
2 -x,-y,-z
_cell_length_a                   9.1377(18)
_cell_length_b                   10.794(2)
_cell_length_c                   11.988(2)
_cell_angle_alpha                100.062(15)
_cell_angle_beta                 107.033(15)
_cell_angle_gamma                99.711(15)
_cell_volume                     1082.37
loop_
_atom_site_label
_atom_site_type_symbol
_atom_site_fract_x
_atom_site_fract_y
_atom_site_fract_z
Ag1 Ag 0.71217(3) 0.26282(3) 0.73150(3)
O1 O 0.3489(3) 0.7120(3) 0.0387(3)
O2 O 0.5972(3) 0.8095(3) 0.2580(3)
O3 O 0.0380(3) 0.7443(3) -0.0837(3)
O4 O -0.1967(3) 0.6918(3) -0.0576(3)
O5 O 0.6892(3) 0.8251(3) 0.5133(3)
O6 O 0.4650(4) 0.8190(4) 0.5566(4)
N1 N 0.6685(4) 0.4433(3) 0.6868(3)
N2 N -0.2227(4) 1.0911(3) -0.2169(3)
C1 C 0.4989(4) 0.6821(4) 0.0568(4)
H1 H 0.5191 0.6667 -0.0189
H2 H 0.4998 0.6040 0.0863
C2 C 0.6247(4) 0.7920(4) 0.1458(4)
H3 H 0.7273 0.7732 0.1556
H4 H 0.6231 0.8706 0.1171
C3 C -0.1036(4) 0.7635(4) -0.0873(3)
C4 C -0.1393(4) 0.8790(4) -0.1318(3)
C5 C 0.7744(5) 0.5150(4) 0.6523(4)
H5 H 0.8677 0.4894 0.6565
C6 C 0.7532(4) 0.6239(4) 0.6112(4)
H6 H 0.8288 0.6695 0.5865
C7 C 0.6149(4) 0.6644(3) 0.6076(3)
C8 C 0.5062(4) 0.5940(4) 0.6464(4)
H7 H 0.4144 0.6202 0.6468
C9 C 0.5360(4) 0.4850(4) 0.6843(4)
H8 H 0.4619 0.4377 0.7093
C10 C -0.0855(4) 1.0585(4) -0.2158(4)
H9 H -0.0187 1.1088 -0.2447
C11 C -0.0396(4) 0.9557(4) -0.1747(4)
H10 H 0.0560 0.9374 -0.1753
C12 C -0.3174(4) 1.0154(4) -0.1752(4)
H11 H -0.4129 1.0350 -0.1758
C13 C -0.2803(4) 0.9114(4) -0.1323(4)
H12 H -0.3488 0.8626 -0.1037
C14 C 0.5793(4) 0.7778(4) 0.5580(4)
C15 C 0.6690(5) 0.9331(4) 0.4589(4)
H13 H 0.7347 1.0130 0.5147
H14 H 0.5602 0.9397 0.4382
C16 C 0.2270(5) 0.6097(4) -0.0486(4)
H15 H 0.2409 0.5269 -0.0317
H16 H 0.2327 0.6096 -0.1281
C17 C 0.7148(4) 0.9115(4) 0.3480(4)
H17 H 0.7239 0.9901 0.3193
H18 H 0.8159 0.8885 0.3660
C18 C 0.0694(5) 0.6287(4) -0.0445(4)
H19 H -0.0121 0.5539 -0.0960
H20 H 0.0676 0.6362 0.0369
Ag1_2 Ag -0.28783(3) 1.26282(3) -0.26850(3)
N2_2 N 0.7773(4) 0.0911(3) 0.7831(3)
O7 O -0.0515(5) 0.2390(4) 0.5756(4)
O8 O 0.1208(5) 0.4182(4) 0.6183(4)
O9 O 0.0507(4) 0.3482(4) 0.7579(3)
N3 N 0.0414(4) 0.3351(4) 0.6505(4)
O10 O 0.8463(5) 0.3054(4) 0.3450(4)
H21 H 0.8588 0.2912 0.4149
H22 H 0.8618 0.3890 0.3556
O11 O 0.6483(4) 0.1179(4) 0.1395(4)
H23 H 0.717(5) 0.175(4) 0.200(2)
H24 H 0.655(5) 0.144(4) 0.077(2)
loop_
_geom_bond_atom_site_label_1
_geom_bond_atom_site_label_2
_geom_bond_site_symmetry_1
_geom_bond_site_symmetry_2
Ag1 N1 1_555 1_555
O1 C1 1_555 1_555
O2 C2 1_555 1_555
O3 C3 1_555 1_555
O4 C3 1_555 1_555
O5 C14 1_555 1_555
O6 C14 1_555 1_555
N1 C5 1_555 1_555
N2 C10 1_555 1_555
C1 H1 1_555 1_555
H2 C1 1_555 1_555
C2 C1 1_555 1_555
H3 C2 1_555 1_555
H4 C2 1_555 1_555
C3 C4 1_555 1_555
C4 C11 1_555 1_555
C5 H5 1_555 1_555
C6 C5 1_555 1_555
H6 C6 1_555 1_555
C7 C6 1_555 1_555
C8 C7 1_555 1_555
H7 C8 1_555 1_555
C9 N1 1_555 1_555
H8 C9 1_555 1_555
C10 H9 1_555 1_555
C11 C10 1_555 1_555
H10 C11 1_555 1_555
C12 N2 1_555 1_555
H11 C12 1_555 1_555
C13 C4 1_555 1_555
H12 C13 1_555 1_555
C14 C7 1_555 1_555
C15 O5 1_555 1_555
H13 C15 1_555 1_555
H14 C15 1_555 1_555
C16 O1 1_555 1_555
H15 C16 1_555 1_555
H16 C16 1_555 1_555
C17 O2 1_555 1_555
H17 C17 1_555 1_555
H18 C17 1_555 1_555
C18 O3 1_555 1_555
H19 C18 1_555 1_555
H20 C18 1_555 1_555
O7 N3 1_555 1_555
O8 N3 1_555 1_555
O9 N3 1_555 1_555
O10 H21 1_555 1_555
H22 O10 1_555 1_555
O11 H23 1_555 1_555
H24 O11 1_555 1_555
Ag1_2 N2 1_555 1_555
N2_2 Ag1 1_555 1_555
C8 C9 1_555 1_555
C12 C13 1_555 1_555
C15 C17 1_555 1_555
C16 C18 1_555 1_555

#END
