
#######################################################################
#
#                 Cambridge Crystallographic Data Centre
#                                CCDC 
#
#######################################################################
#
# If this CIF has been generated from an entry in the Cambridge 
# Structural Database, then it will include bibliographic, chemical, 
# crystal, experimental, refinement or atomic coordinate data resulting 
# from the CCDC's data processing and validation procedures.
#
#######################################################################

data_FEGDUS
_symmetry_cell_setting           monoclinic
_symmetry_space_group_name_H-M   'P 21/c'
_symmetry_Int_Tables_number      14
_space_group_name_Hall           '-P 2ybc'
loop_
_symmetry_equiv_pos_site_id
_symmetry_equiv_pos_as_xyz
1 x,y,z
2 -x,1/2+y,1/2-z
3 -x,-y,-z
4 x,1/2-y,1/2+z
_cell_length_a                   8.0308(16)
_cell_length_b                   13.192(2)
_cell_length_c                   20.531(4)
_cell_angle_alpha                90
_cell_angle_beta                 101.866(16)
_cell_angle_gamma                90
_cell_volume                     2128.62
loop_
_atom_site_label
_atom_site_type_symbol
_atom_site_fract_x
_atom_site_fract_y
_atom_site_fract_z
Ag1 Ag 1.13394(4) 0.00819(3) 0.066634(18)
O1 O 0.8401(4) -0.3676(2) 0.07673(18)
O2 O 0.6287(4) -0.4152(2) -0.05707(17)
O3 O 0.4949(5) -0.2717(3) -0.16977(19)
O4 O 0.3909(5) -0.0625(3) -0.15910(18)
O5 O 0.5357(7) 0.0693(4) -0.1872(2)
O6 O 0.7855(8) -0.4048(3) 0.1754(2)
N1 N 1.0455(5) -0.0932(3) 0.13635(19)
N2 N 0.2927(4) 0.0782(3) 0.00472(18)
C1 C 0.9838(5) -0.1863(3) 0.1187(2)
H1 H 0.9894 -0.2111 0.0768
C2 C 0.9117(6) -0.2468(3) 0.1615(2)
C3 C 0.8395(7) -0.3478(4) 0.1388(3)
C4 C 0.7710(8) -0.4650(4) 0.0507(3)
H2 H 0.6563 -0.4729 0.0582
H3 H 0.8403 -0.5195 0.0736
C5 C 0.7686(7) -0.4703(4) -0.0215(3)
H4 H 0.8735 -0.4424 -0.0303
H5 H 0.7604 -0.5405 -0.0359
C6 C 0.6042(8) -0.4301(4) -0.1258(3)
H6 H 0.5892 -0.5019 -0.1356
H7 H 0.7044 -0.4075 -0.1413
C7 C 0.4522(8) -0.3734(4) -0.1619(3)
H8 H 0.4111 -0.4039 -0.2052
H9 H 0.3620 -0.3772 -0.1370
C8 C 0.3628(9) -0.2209(4) -0.2131(3)
H10 H 0.2592 -0.2244 -0.1959
H11 H 0.3416 -0.2532 -0.2565
C9 C 0.4107(11) -0.1146(5) -0.2195(3)
H12 H 0.5277 -0.1102 -0.2248
H13 H 0.3380 -0.0840 -0.2580
C10 C 0.4579(7) 0.0293(4) -0.1501(3)
C11 C 0.4284(5) 0.0771(3) -0.0881(2)
C12 C 0.3224(5) 0.0342(3) -0.0509(2)
H14 H 0.2696 -0.0271 -0.0646
C13 C 0.3691(6) 0.1667(3) 0.0243(2)
H15 H 0.3474 0.1983 0.0622
C14 C 0.4790(6) 0.2119(4) -0.0104(3)
H16 H 0.5322 0.2725 0.0048
C15 C 0.5095(6) 0.1681(4) -0.0664(3)
H17 H 0.5833 0.1983 -0.0901
C16 C 0.9067(7) -0.2101(4) 0.2239(3)
H18 H 0.8600 -0.2490 0.2534
C17 C 0.9708(7) -0.1167(4) 0.2418(3)
H19 H 0.9699 -0.0914 0.2840
C18 C 1.0372(6) -0.0595(4) 0.1968(2)
H20 H 1.0779 0.0051 0.2093
Ag1_2 Ag 0.13394(4) 0.00819(3) 0.066634(18)
N2_2 N 1.2927(4) 0.0782(3) 0.00472(18)
O7 O 1.0534(7) 0.1710(4) 0.1279(2)
O8 O 0.9179(5) 0.1708(3) 0.0283(2)
O9 O 0.9228(8) 0.3039(3) 0.0891(3)
N3 N 0.9629(6) 0.2181(3) 0.0804(3)
loop_
_geom_bond_atom_site_label_1
_geom_bond_atom_site_label_2
_geom_bond_site_symmetry_1
_geom_bond_site_symmetry_2
Ag1 N1 1_555 1_555
O1 C3 1_555 1_555
O2 C5 1_555 1_555
O3 C7 1_555 1_555
O4 C9 1_555 1_555
O5 C10 1_555 1_555
O6 C3 1_555 1_555
N1 C1 1_555 1_555
N2 C12 1_555 1_555
C1 H1 1_555 1_555
C2 C1 1_555 1_555
C3 C2 1_555 1_555
C4 O1 1_555 1_555
H2 C4 1_555 1_555
H3 C4 1_555 1_555
C5 C4 1_555 1_555
H4 C5 1_555 1_555
H5 C5 1_555 1_555
C6 O2 1_555 1_555
H6 C6 1_555 1_555
H7 C6 1_555 1_555
C7 C6 1_555 1_555
H8 C7 1_555 1_555
H9 C7 1_555 1_555
C8 O3 1_555 1_555
H10 C8 1_555 1_555
H11 C8 1_555 1_555
C9 C8 1_555 1_555
H12 C9 1_555 1_555
H13 C9 1_555 1_555
C10 O4 1_555 1_555
C11 C10 1_555 1_555
C12 C11 1_555 1_555
H14 C12 1_555 1_555
C13 N2 1_555 1_555
H15 C13 1_555 1_555
C14 C13 1_555 1_555
H16 C14 1_555 1_555
C15 C11 1_555 1_555
H17 C15 1_555 1_555
C16 C2 1_555 1_555
H18 C16 1_555 1_555
C17 C16 1_555 1_555
H19 C17 1_555 1_555
C18 N1 1_555 1_555
H20 C18 1_555 1_555
O7 N3 1_555 1_555
O8 N3 1_555 1_555
O9 N3 1_555 1_555
Ag1_2 N2 1_555 1_555
N2_2 Ag1 1_555 1_555
C14 C15 1_555 1_555
C17 C18 1_555 1_555

#END
