
#######################################################################
#
#                 Cambridge Crystallographic Data Centre
#                                CCDC 
#
#######################################################################
#
# If this CIF has been generated from an entry in the Cambridge 
# Structural Database, then it will include bibliographic, chemical, 
# crystal, experimental, refinement or atomic coordinate data resulting 
# from the CCDC's data processing and validation procedures.
#
#######################################################################

data_FEGFEE
_symmetry_cell_setting           triclinic
_symmetry_space_group_name_H-M   'P -1'
_symmetry_Int_Tables_number      2
_space_group_name_Hall           '-P 1'
loop_
_symmetry_equiv_pos_site_id
_symmetry_equiv_pos_as_xyz
1 x,y,z
2 -x,-y,-z
_cell_length_a                   10.0591(14)
_cell_length_b                   10.3383(14)
_cell_length_c                   14.054(2)
_cell_angle_alpha                76.820(12)
_cell_angle_beta                 83.149(12)
_cell_angle_gamma                64.790(10)
_cell_volume                     1287.08
loop_
_atom_site_label
_atom_site_type_symbol
_atom_site_fract_x
_atom_site_fract_y
_atom_site_fract_z
Ag1 Ag 0.21307(11) 0.27698(11) 0.21674(8)
O1 O 0.3262(9) -0.0015(8) 0.2671(6)
O2 O 0.3587(8) 0.1672(8) 0.3924(5)
O3 O 0.4988(8) 0.3440(8) 0.3973(6)
O4 O 0.4705(9) 0.5737(8) 0.3860(7)
O5 O 0.2955(9) 0.1218(8) 0.0699(5)
O6 O 0.2870(8) 0.3821(8) -0.0673(6)
O7 O 0.1306(10) 0.6184(10) -0.0721(7)
N1 N 0.9976(10) 0.3165(10) 0.2866(7)
N2 N 0.6171(10) 0.6475(10) -0.1588(7)
C1 C 0.4040(13) -0.0647(12) 0.3577(9)
H1 H 0.5066 -0.0817 0.3456
H2 H 0.3992 -0.1576 0.3857
C2 C 0.3372(12) 0.0349(12) 0.4256(9)
H3 H 0.2328 0.0586 0.4324
H4 H 0.3801 -0.0128 0.4893
C3 C 0.3094(13) 0.2608(13) 0.4553(9)
H5 H 0.3573 0.2120 0.5174
H6 H 0.2044 0.2906 0.4667
C4 C 0.3396(11) 0.3887(11) 0.4158(8)
H7 H 0.3050 0.4540 0.4618
H8 H 0.2878 0.4404 0.3553
C5 C 0.5485(12) 0.4470(12) 0.3796(9)
C6 C 0.7077(11) 0.4000(10) 0.3510(8)
C7 C 0.7688(12) 0.4957(12) 0.3311(8)
H9 H 0.7127 0.5913 0.3384
C8 C 0.9114(12) 0.4556(12) 0.3002(8)
H10 H 0.9514 0.5241 0.2880
C9 C 0.9392(12) 0.2220(12) 0.3089(9)
H11 H 0.9994 0.1264 0.3030
C10 C 0.7934(12) 0.2521(11) 0.3410(9)
H12 H 0.7556 0.1818 0.3546
C11 C 0.3962(16) -0.0881(13) 0.1938(10)
H13 H 0.4076 -0.1877 0.2189
H14 H 0.4931 -0.0893 0.1774
C12 C 0.3061(17) -0.0262(12) 0.1055(10)
H15 H 0.3518 -0.0846 0.0559
H16 H 0.2090 -0.0247 0.1213
C13 C 0.2144(16) 0.1827(13) -0.0180(10)
H17 H 0.1299 0.1587 -0.0112
H18 H 0.2758 0.1436 -0.0722
C14 C 0.1652(13) 0.3448(14) -0.0363(10)
H19 H 0.0914 0.3911 -0.0862
H20 H 0.1212 0.3803 0.0231
C15 C 0.2548(14) 0.5284(13) -0.0805(9)
C16 C 0.3798(12) 0.5676(12) -0.1101(8)
C17 C 0.5253(12) 0.4616(13) -0.1208(8)
H21 H 0.5447 0.3633 -0.1110
C18 C 0.6340(12) 0.5065(13) -0.1455(8)
H22 H 0.7280 0.4362 -0.1542
C19 C 0.4741(13) 0.7453(14) -0.1527(9)
H23 H 0.4559 0.8436 -0.1668
C20 C 0.3578(14) 0.7123(14) -0.1282(9)
H24 H 0.2641 0.7853 -0.1235
Ag1_2 Ag 1.21307(11) 0.27698(11) 0.21674(8)
Ag1A Ag 0.78693(11) 0.72302(11) -0.21674(8)
N1_2 N -0.0024(10) 0.3165(10) 0.2866(7)
N2A N 0.3829(10) 0.3525(10) 0.1588(7)
S1 S 0.0686(3) 0.1666(3) 0.7495(3)
F1 F -0.1552(9) 0.2062(10) 0.6527(7)
F2 F 0.0518(10) 0.0994(9) 0.5832(6)
F3 F -0.0347(8) 0.3296(8) 0.5800(6)
O8 O 0.0743(11) 0.0275(8) 0.7971(7)
O9 O 0.2068(10) 0.1746(11) 0.7176(8)
O10 O -0.0293(10) 0.2864(9) 0.7966(7)
C21 C -0.0249(14) 0.2058(15) 0.6366(11)
loop_
_geom_bond_atom_site_label_1
_geom_bond_atom_site_label_2
_geom_bond_site_symmetry_1
_geom_bond_site_symmetry_2
Ag1 O1 1_555 1_555
O1 C1 1_555 1_555
O2 C2 1_555 1_555
O3 C4 1_555 1_555
O4 C5 1_555 1_555
O5 Ag1 1_555 1_555
O6 C14 1_555 1_555
O7 C15 1_555 1_555
N1 C8 1_555 1_555
N2 C18 1_555 1_555
C1 H1 1_555 1_555
H2 C1 1_555 1_555
C2 C1 1_555 1_555
H3 C2 1_555 1_555
H4 C2 1_555 1_555
C3 O2 1_555 1_555
H5 C3 1_555 1_555
H6 C3 1_555 1_555
C4 C3 1_555 1_555
H7 C4 1_555 1_555
H8 C4 1_555 1_555
C5 O3 1_555 1_555
C6 C5 1_555 1_555
C7 C6 1_555 1_555
H9 C7 1_555 1_555
C8 C7 1_555 1_555
H10 C8 1_555 1_555
C9 N1 1_555 1_555
H11 C9 1_555 1_555
C10 C6 1_555 1_555
H12 C10 1_555 1_555
C11 O1 1_555 1_555
H13 C11 1_555 1_555
H14 C11 1_555 1_555
C12 O5 1_555 1_555
H15 C12 1_555 1_555
H16 C12 1_555 1_555
C13 O5 1_555 1_555
H17 C13 1_555 1_555
H18 C13 1_555 1_555
C14 C13 1_555 1_555
H19 C14 1_555 1_555
H20 C14 1_555 1_555
C15 O6 1_555 1_555
C16 C15 1_555 1_555
C17 C16 1_555 1_555
H21 C17 1_555 1_555
C18 C17 1_555 1_555
H22 C18 1_555 1_555
C19 N2 1_555 1_555
H23 C19 1_555 1_555
C20 C16 1_555 1_555
H24 C20 1_555 1_555
S1 O8 1_555 1_555
F1 C21 1_555 1_555
F2 C21 1_555 1_555
F3 C21 1_555 1_555
O9 S1 1_555 1_555
O10 S1 1_555 1_555
C21 S1 1_555 1_555
Ag1_2 N1 1_555 1_555
Ag1A N2 1_555 1_555
N1_2 Ag1 1_555 1_555
N2A Ag1 1_555 1_555
C9 C10 1_555 1_555
C11 C12 1_555 1_555
C19 C20 1_555 1_555

#END
