
#######################################################################
#
#                 Cambridge Crystallographic Data Centre
#                                CCDC 
#
#######################################################################
#
# If this CIF has been generated from an entry in the Cambridge 
# Structural Database, then it will include bibliographic, chemical, 
# crystal, experimental, refinement or atomic coordinate data resulting 
# from the CCDC's data processing and validation procedures.
#
#######################################################################

data_FEGFAA
_symmetry_cell_setting           monoclinic
_symmetry_space_group_name_H-M   'C 2/c'
_symmetry_Int_Tables_number      15
_space_group_name_Hall           '-C 2yn'
loop_
_symmetry_equiv_pos_site_id
_symmetry_equiv_pos_as_xyz
1 x,y,z
2 -x,y,1/2-z
3 1/2+x,1/2+y,z
4 1/2-x,1/2+y,1/2-z
5 -x,-y,-z
6 x,-y,1/2+z
7 1/2-x,1/2-y,-z
8 1/2+x,1/2-y,1/2+z
_cell_length_a                   8.5066(17)
_cell_length_b                   23.887(5)
_cell_length_c                   10.917(2)
_cell_angle_alpha                90
_cell_angle_beta                 90.47(3)
_cell_angle_gamma                90
_cell_volume                     2218.23
loop_
_atom_site_label
_atom_site_type_symbol
_atom_site_fract_x
_atom_site_fract_y
_atom_site_fract_z
Ag1 Ag 0.0000 0.155691(10) 0.7500
Ag2 Ag 0.0000 0.0000 0.5000
O1 O 0.32639(19) 0.13887(7) 0.82280(15)
O2 O 0.4336(2) 0.08956(7) 0.97766(17)
O3 O 0.1444(2) 0.24234(6) 0.81998(15)
O4 O 0.0256(2) 0.11915(7) 0.95275(16)
O5 O -0.0619(2) 0.15500(8) 1.12214(16)
O6 O -0.1763(3) 0.17457(10) 0.94906(19)
N1 N 0.1625(2) -0.00403(8) 0.65279(18)
N2 N -0.0727(2) 0.15029(8) 1.00985(18)
C1 C 0.3082(3) 0.04043(9) 0.8148(2)
C2 C 0.3653(3) 0.18963(10) 0.8905(2)
H1 H 0.4802 0.1918 0.9051
H2 H 0.3119 0.1896 0.9707
C3 C 0.3639(3) 0.09146(9) 0.8808(2)
C4 C 0.3115(3) 0.23869(10) 0.8150(2)
H3 H 0.3590 0.2736 0.8473
H4 H 0.3452 0.2339 0.7291
C5 C 0.3413(3) -0.01189(10) 0.8661(2)
H5 H 0.4011 -0.0146 0.9397
C6 C 0.2211(3) 0.04243(9) 0.7065(2)
H6 H 0.2022 0.0777 0.6690
C7 C 0.2862(3) -0.05966(10) 0.8087(2)
H7 H 0.3101 -0.0957 0.8409
C8 C 0.1951(3) -0.05409(10) 0.7033(2)
H8 H 0.1542 -0.0869 0.6654
C9 C 0.0882(3) 0.28894(9) 0.7495(2)
H9 H 0.1261 0.2860 0.6643
H10 H 0.1285 0.3243 0.7850
Ag2A Ag 0.0000 0.0000 1.0000
O1A O -0.32639(19) 0.13887(7) 0.67720(15)
O2A O -0.4336(2) 0.08956(7) 0.52234(17)
O3A O -0.1444(2) 0.24234(6) 0.68002(15)
O4A O -0.0256(2) 0.11915(7) 0.54725(16)
O5A O 0.0619(2) 0.15500(8) 0.37786(16)
O6A O 0.1763(3) 0.17457(10) 0.55094(19)
N1A N -0.1625(2) -0.00403(8) 0.84721(18)
N1D N -0.1625(2) 0.00403(8) 0.34721(18)
N2A N 0.0727(2) 0.15029(8) 0.49015(18)
C1A C -0.3082(3) 0.04043(9) 0.6852(2)
C2A C -0.3653(3) 0.18963(10) 0.6095(2)
H1A H -0.4802 0.1918 0.5949
H2A H -0.3119 0.1896 0.5293
C3A C -0.3639(3) 0.09146(9) 0.6192(2)
C4A C -0.3115(3) 0.23869(10) 0.6850(2)
H3A H -0.3590 0.2736 0.6527
H4A H -0.3452 0.2339 0.7709
C5A C -0.3413(3) -0.01189(10) 0.6339(2)
H5A H -0.4011 -0.0146 0.5603
C6A C -0.2211(3) 0.04243(9) 0.7935(2)
H6A H -0.2022 0.0777 0.8310
C7A C -0.2862(3) -0.05966(10) 0.6913(2)
H7A H -0.3101 -0.0957 0.6591
C8A C -0.1951(3) -0.05409(10) 0.7967(2)
H8A H -0.1542 -0.0869 0.8346
C9A C -0.0882(3) 0.28894(9) 0.7505(2)
H9A H -0.1261 0.2860 0.8357
H10A H -0.1285 0.3243 0.7150
loop_
_geom_bond_atom_site_label_1
_geom_bond_atom_site_label_2
_geom_bond_site_symmetry_1
_geom_bond_site_symmetry_2
Ag1 O3 1_555 1_555
Ag2 N1 1_555 1_555
O1 C2 1_555 1_555
O2 C3 1_555 1_555
O3 C4 1_555 1_555
O4 Ag1 1_555 1_555
O5 N2 1_555 1_555
O6 Ag1 1_555 1_555
N1 C6 1_555 1_555
N2 O4 1_555 1_555
C1 C3 1_555 1_555
C2 H1 1_555 1_555
H2 C2 1_555 1_555
C3 O1 1_555 1_555
C4 C2 1_555 1_555
H3 C4 1_555 1_555
H4 C4 1_555 1_555
C5 C1 1_555 1_555
H5 C5 1_555 1_555
C6 C1 1_555 1_555
H6 C6 1_555 1_555
C7 C5 1_555 1_555
H7 C7 1_555 1_555
C8 N1 1_555 1_555
H8 C8 1_555 1_555
C9 O3 1_555 1_555
H9 C9 1_555 1_555
H10 C9 1_555 1_555
Ag2A N1A 1_555 1_555
O1A C2A 1_555 1_555
O2A C3A 1_555 1_555
O3A Ag1 1_555 1_555
O4A Ag1 1_555 1_555
O5A N2A 1_555 1_555
O6A Ag1 1_555 1_555
N1A C6A 1_555 1_555
N1D Ag2 1_555 1_555
N2A O4A 1_555 1_555
C1A C3A 1_555 1_555
C2A H1A 1_555 1_555
H2A C2A 1_555 1_555
C3A O1A 1_555 1_555
C4A O3A 1_555 1_555
H3A C4A 1_555 1_555
H4A C4A 1_555 1_555
C5A C1A 1_555 1_555
H5A C5A 1_555 1_555
C6A C1A 1_555 1_555
H6A C6A 1_555 1_555
C7A C5A 1_555 1_555
H7A C7A 1_555 1_555
C8A N1A 1_555 1_555
H8A C8A 1_555 1_555
C9A C9 1_555 1_555
H9A C9A 1_555 1_555
H10A C9A 1_555 1_555
O6 N2 1_555 1_555
C7 C8 1_555 1_555
O3A C9A 1_555 1_555
O6A N2A 1_555 1_555
C2A C4A 1_555 1_555
C7A C8A 1_555 1_555

#END
