
#######################################################################
#
#                 Cambridge Crystallographic Data Centre
#                                CCDC 
#
#######################################################################
#
# If this CIF has been generated from an entry in the Cambridge 
# Structural Database, then it will include bibliographic, chemical, 
# crystal, experimental, refinement or atomic coordinate data resulting 
# from the CCDC's data processing and validation procedures.
#
#######################################################################

data_FEGFUU
_symmetry_cell_setting           monoclinic
_symmetry_space_group_name_H-M   'P 21/c'
_symmetry_Int_Tables_number      14
_space_group_name_Hall           '-P 2ybc'
loop_
_symmetry_equiv_pos_site_id
_symmetry_equiv_pos_as_xyz
1 x,y,z
2 -x,1/2+y,1/2-z
3 -x,-y,-z
4 x,1/2-y,1/2+z
_cell_length_a                   8.930(5)
_cell_length_b                   14.200(5)
_cell_length_c                   20.264(5)
_cell_angle_alpha                90
_cell_angle_beta                 116.134(15)
_cell_angle_gamma                90
_cell_volume                     2306.9
loop_
_atom_site_label
_atom_site_type_symbol
_atom_site_fract_x
_atom_site_fract_y
_atom_site_fract_z
Ag1 Ag -0.88800(13) -0.23947(9) -0.92913(7)
O1 O -1.4969(10) -0.3810(7) -0.8189(5)
O2 O -1.6033(13) -0.4607(9) -0.9245(6)
O3 O -1.6687(10) -0.2648(8) -0.7660(5)
O4 O -1.8181(13) -0.0975(8) -0.8009(7)
O5 O -2.1392(11) -0.0398(7) -0.9002(5)
O6 O -2.2580(12) -0.0615(7) -1.0235(6)
N1 N -1.0959(12) -0.2953(7) -0.9156(7)
N2 N -2.6733(13) -0.1841(8) -0.9387(6)
C1 C -1.2222(17) -0.3403(11) -0.9683(8)
H1 H -1.2216 -0.3469 -1.0139
C2 C -1.3556(15) -0.3782(10) -0.9591(7)
H2 H -1.4422 -0.4088 -0.9977
C3 C -1.3565(16) -0.3695(9) -0.8920(8)
C4 C -1.2278(15) -0.3227(9) -0.8378(7)
H3 H -1.2270 -0.3144 -0.7921
C5 C -1.0982(15) -0.2874(9) -0.8504(8)
H4 H -1.0100 -0.2572 -0.8122
C6 C -1.5008(18) -0.4093(11) -0.8811(9)
C7 C -1.6364(16) -0.4121(11) -0.8061(8)
H5 H -1.6287 -0.4791 -0.7958
H6 H -1.7411 -0.3994 -0.8487
C8 C -1.6251(19) -0.3573(13) -0.7413(9)
H7 H -1.7012 -0.3826 -0.7234
H8 H -1.5127 -0.3597 -0.7019
C9 C -1.6688(18) -0.2094(13) -0.7108(9)
H9 H -1.5645 -0.2172 -0.6669
H10 H -1.7592 -0.2282 -0.6993
C10 C -1.690(2) -0.1115(16) -0.7340(11)
H11 H -1.7075 -0.0739 -0.6981
H12 H -1.5875 -0.0898 -0.7348
C11 C -1.848(2) 0.0003(13) -0.8265(9)
H13 H -1.7483 0.0270 -0.8269
H14 H -1.8787 0.0382 -0.7945
C12 C -1.9889(17) -0.0025(10) -0.9035(9)
H15 H -2.0106 0.0604 -0.9244
H16 H -1.9585 -0.0423 -0.9346
C13 C -2.2624(17) -0.0652(10) -0.9647(9)
C14 C -2.4070(16) -0.1069(8) -0.9535(9)
C15 C -2.4061(17) -0.1139(11) -0.8869(8)
H17 H -2.3141 -0.0926 -0.8454
C16 C -2.5382(18) -0.1517(11) -0.8798(8)
H18 H -2.5354 -0.1553 -0.8334
C17 C -2.6736(14) -0.1786(9) -1.0046(8)
H19 H -2.7663 -0.2004 -1.0456
C18 C -2.5406(16) -0.1417(10) -1.0140(8)
H20 H -2.5419 -0.1405 -1.0601
Ag1_2 Ag -2.88800(13) -0.23947(9) -0.92913(7)
N2_2 N -0.6733(13) -0.1841(8) -0.9387(6)
S1 S -0.0974(4) -0.3030(3) -1.1451(2)
F1 F -0.0246(14) -0.4613(8) -1.0764(8)
F2 F 0.1805(10) -0.3973(7) -1.0848(6)
F3 F -0.0074(17) -0.4640(10) -1.1784(9)
O7 O -0.0708(12) -0.2662(9) -1.0758(6)
O8 O -0.2621(11) -0.3325(9) -1.1935(6)
O9 O -0.0100(10) -0.2510(8) -1.1773(5)
C19 C 0.018(2) -0.4135(14) -1.1241(14)
loop_
_geom_bond_atom_site_label_1
_geom_bond_atom_site_label_2
_geom_bond_site_symmetry_1
_geom_bond_site_symmetry_2
Ag1 N1 1_555 1_555
O1 C6 1_555 1_555
O2 C6 1_555 1_555
O3 C8 1_555 1_555
O4 C10 1_555 1_555
O5 C12 1_555 1_555
O6 C13 1_555 1_555
N1 C1 1_555 1_555
N2 C16 1_555 1_555
C1 H1 1_555 1_555
C2 C1 1_555 1_555
H2 C2 1_555 1_555
C3 C2 1_555 1_555
C4 C3 1_555 1_555
H3 C4 1_555 1_555
C5 N1 1_555 1_555
H4 C5 1_555 1_555
C6 C3 1_555 1_555
C7 O1 1_555 1_555
H5 C7 1_555 1_555
H6 C7 1_555 1_555
C8 C7 1_555 1_555
H7 C8 1_555 1_555
H8 C8 1_555 1_555
C9 O3 1_555 1_555
H9 C9 1_555 1_555
H10 C9 1_555 1_555
C10 C9 1_555 1_555
H11 C10 1_555 1_555
H12 C10 1_555 1_555
C11 O4 1_555 1_555
H13 C11 1_555 1_555
H14 C11 1_555 1_555
C12 C11 1_555 1_555
H15 C12 1_555 1_555
H16 C12 1_555 1_555
C13 O5 1_555 1_555
C14 C13 1_555 1_555
C15 C14 1_555 1_555
H17 C15 1_555 1_555
C16 C15 1_555 1_555
H18 C16 1_555 1_555
C17 N2 1_555 1_555
H19 C17 1_555 1_555
C18 C14 1_555 1_555
H20 C18 1_555 1_555
S1 O7 1_555 1_555
F1 C19 1_555 1_555
F2 C19 1_555 1_555
F3 C19 1_555 1_555
O8 S1 1_555 1_555
O9 S1 1_555 1_555
C19 S1 1_555 1_555
Ag1_2 N2 1_555 1_555
N2_2 Ag1 1_555 1_555
C4 C5 1_555 1_555
C17 C18 1_555 1_555

#END
