
#######################################################################
#
#                 Cambridge Crystallographic Data Centre
#                                CCDC 
#
#######################################################################
#
# If this CIF has been generated from an entry in the Cambridge 
# Structural Database, then it will include bibliographic, chemical, 
# crystal, experimental, refinement or atomic coordinate data resulting 
# from the CCDC's data processing and validation procedures.
#
#######################################################################

data_FEGGAA
_symmetry_cell_setting           monoclinic
_symmetry_space_group_name_H-M   'C 2/c'
_symmetry_Int_Tables_number      15
_space_group_name_Hall           '-C 2yn'
loop_
_symmetry_equiv_pos_site_id
_symmetry_equiv_pos_as_xyz
1 x,y,z
2 -x,y,1/2-z
3 1/2+x,1/2+y,z
4 1/2-x,1/2+y,1/2-z
5 -x,-y,-z
6 x,-y,1/2+z
7 1/2-x,1/2-y,-z
8 1/2+x,1/2-y,1/2+z
_cell_length_a                   24.68(2)
_cell_length_b                   7.601(3)
_cell_length_c                   14.137(10)
_cell_angle_alpha                90
_cell_angle_beta                 102.81
_cell_angle_gamma                90
_cell_volume                     2585.99
loop_
_atom_site_label
_atom_site_type_symbol
_atom_site_fract_x
_atom_site_fract_y
_atom_site_fract_z
Cu1 Cu 0.3112(1) 0.0989(1) 0.2686(1)
N1 N 0.4319(2) -0.2541(6) 0.3153(4)
N2 N 0.3539(2) -0.1132(7) 0.2638(3)
N3 N 0.3685(2) 0.1344(7) 0.3906(4)
O1 O 0.2472(2) 0.5525(6) 0.3454(3)
O2 O 0.2774(2) 0.3266(5) 0.2761(3)
C1 C 0.3987(3) -0.3581(8) 0.2476(5)
C2 C 0.3507(3) -0.2731(9) 0.2175(5)
C3 C 0.4029(2) -0.1063(8) 0.3221(4)
C4 C 0.4865(3) -0.2982(10) 0.3718(5)
C5 C 0.4210(2) 0.0486(8) 0.3836(4)
C6 C 0.3764(3) 0.3156(8) 0.4290(5)
C7 C 0.3225(3) 0.3951(9) 0.4395(4)
C8 C 0.2801(2) 0.4257(9) 0.3476(4)
H1 H 0.3540(3) 0.0760(10) 0.4360(5)
H4 H 0.4078 -0.4706 0.2245
H5 H 0.3189 -0.3161 0.1714
H6 H 0.5012 -0.2036 0.4148
H7 H 0.4838 -0.4023 0.4090
H8 H 0.5106 -0.3204 0.3284
H9 H 0.4427 0.0161 0.4462
H10 H 0.4424 0.1258 0.3523
H11 H 0.3911 0.3875 0.3847
H12 H 0.4025 0.3163 0.4905
H13 H 0.3292 0.5031 0.4753
H14 H 0.3065 0.3137 0.4774
Cu1C Cu 0.1888(1) 0.5989(1) 0.2314(1)
O1C O 0.2528(2) 0.0525(6) 0.1546(3)
O3 O 0.2638(2) -0.0350(8) 0.4212(4)
H2 H 0.2859 -0.0940 0.4720
H3 H 0.2512 -0.1637 0.3903
Cl1 Cl 0.4077(1) -0.2011(3) 0.6101(2)
O4 O 0.3740(3) -0.2489(7) 0.6720(5)
O5 O 0.4575(7) -0.2590(3) 0.6853(16)
O7 O 0.4361(15) -0.0560(4) 0.6230(2)
O9 O 0.3617(5) -0.1699(19) 0.5241(9)
O6? O 0.4369(9) -0.3310(2) 0.5871(15)
O8? O 0.4186(16) -0.0160(4) 0.6134(19)
O10? O 0.4142(13) -0.2950(3) 0.5327(16)
loop_
_geom_bond_atom_site_label_1
_geom_bond_atom_site_label_2
_geom_bond_site_symmetry_1
_geom_bond_site_symmetry_2
Cu1 N2 1_555 1_555
N1 C1 1_555 1_555
N2 C2 1_555 1_555
N3 Cu1 1_555 1_555
O1 C8 1_555 1_555
O2 Cu1 1_555 1_555
O3 H2 1_555 1_555
C1 C2 1_555 1_555
C2 H5 1_555 1_555
C3 N1 1_555 1_555
C4 N1 1_555 1_555
C5 N3 1_555 1_555
C6 N3 1_555 1_555
C7 C6 1_555 1_555
C8 O2 1_555 1_555
Cl1 O4 1_555 1_555
O5 Cl1 1_555 1_555
O7 Cl1 1_555 1_555
O9 Cl1 1_555 1_555
H1 N3 1_555 1_555
H3 O3 1_555 1_555
H4 C1 1_555 1_555
H6 C4 1_555 1_555
H7 C4 1_555 1_555
H8 C4 1_555 1_555
H9 C5 1_555 1_555
H10 C5 1_555 1_555
H11 C6 1_555 1_555
H12 C6 1_555 1_555
H13 C7 1_555 1_555
H14 C7 1_555 1_555
Cu1C O1 1_555 1_555
O1C Cu1 1_555 1_555
N2 C3 1_555 1_555
C3 C5 1_555 1_555
C7 C8 1_555 1_555

#END
