
#######################################################################
#
#                 Cambridge Crystallographic Data Centre
#                                CCDC 
#
#######################################################################
#
# If this CIF has been generated from an entry in the Cambridge 
# Structural Database, then it will include bibliographic, chemical, 
# crystal, experimental, refinement or atomic coordinate data resulting 
# from the CCDC's data processing and validation procedures.
#
#######################################################################

data_FEHCOM
_symmetry_cell_setting           orthorhombic
_symmetry_space_group_name_H-M   'I b c a'
_symmetry_Int_Tables_number      73
_space_group_name_Hall           '-I 2b 2c'
loop_
_symmetry_equiv_pos_site_id
_symmetry_equiv_pos_as_xyz
1 x,y,z
2 1/2-x,-y,1/2+z
3 -x,1/2+y,1/2-z
4 1/2+x,1/2-y,-z
5 1/2+x,1/2+y,1/2+z
6 -x,1/2-y,z
7 1/2-x,y,-z
8 x,-y,1/2-z
9 -x,-y,-z
10 1/2+x,y,1/2-z
11 x,1/2-y,1/2+z
12 1/2-x,1/2+y,z
13 1/2-x,1/2-y,1/2-z
14 x,1/2+y,-z
15 1/2+x,-y,z
16 -x,y,1/2+z
_cell_length_a                   13.9249(12)
_cell_length_b                   23.653(2)
_cell_length_c                   23.637(2)
_cell_angle_alpha                90
_cell_angle_beta                 90
_cell_angle_gamma                90
_cell_volume                     7785.22
loop_
_atom_site_label
_atom_site_type_symbol
_atom_site_fract_x
_atom_site_fract_y
_atom_site_fract_z
Zn1 Zn 0.37948(3) 0.22384(2) 0.50696(2)
O1 O 0.4499(3) 0.21376(19) 0.57892(15)
O2 O 0.3138(4) 0.29446(19) 0.52944(17)
N1 N 0.4532(3) 0.2601(2) 0.93861(19)
N2 N 0.3001(2) 0.65506(15) 0.49768(18)
C1 C 0.5000 0.2500 0.6036(4)
C2 C 0.5000 0.2500 0.6659(4)
C3 C 0.4378(5) 0.2161(4) 0.6962(2)
H1 H 0.3960 0.1921 0.6770
C4 C 0.4369(6) 0.2173(4) 0.7565(3)
H2 H 0.3923 0.1954 0.7758
C5 C 0.5000 0.2500 0.7867(4)
C6 C 0.5000 0.2500 0.8478(4)
C7 C 0.4237(5) 0.2652(3) 0.8847(3)
C8 C 0.3255(5) 0.2849(5) 0.8684(3)
H3 H 0.2875 0.2905 0.9019
H4 H 0.2955 0.2570 0.8448
H5 H 0.3304 0.3199 0.8481
C9 C 0.2500 0.3197(3) 0.5000
C10 C 0.2500 0.3828(3) 0.5000
C11 C 0.3090(5) 0.4124(3) 0.5364(3)
H6 H 0.3495 0.3929 0.5608
C12 C 0.3087(5) 0.4710(3) 0.5369(4)
H7 H 0.3482 0.4900 0.5623
C13 C 0.2500 0.5023(3) 0.5000
C14 C 0.2500 0.5645(3) 0.5000
C15 C 0.3288(3) 0.60119(19) 0.4947(3)
C16 C 0.4343(4) 0.5874(3) 0.4898(4)
H8 H 0.4706 0.6219 0.4878
H9 H 0.4452 0.5655 0.4562
H10 H 0.4543 0.5661 0.5223
Zn1E Zn 0.62052(3) 0.27616(2) 0.50696(2)
Zn1J Zn 0.37948(3) 0.27616(2) 1.00696(2)
Zn1M Zn 0.37948(3) 0.72384(2) 0.49304(2)
Zn1O Zn 0.62052(3) 0.22384(2) 1.00696(2)
Zn1F Zn 0.12052(3) 0.22384(2) 0.49304(2)
Zn1K Zn 0.12052(3) 0.72384(2) 0.50696(2)
O1E O 0.5501(3) 0.28624(19) 0.57892(15)
O2F O 0.1862(4) 0.29446(19) 0.47056(17)
O2E O 0.6862(4) 0.20554(19) 0.52944(17)
N1E N 0.5468(3) 0.2399(2) 0.93861(19)
N1J N 0.4532(3) 0.2399(2) 0.43861(19)
N1O N 0.5468(3) 0.2601(2) 0.43861(19)
N2F N 0.1999(2) 0.65506(15) 0.50232(18)
N2M N 0.3001(2) 0.15506(15) 0.50232(18)
N2H N 0.6999(2) 0.34494(15) 0.50232(18)
C3E C 0.5622(5) 0.2839(4) 0.6962(2)
H1E H 0.6040 0.3079 0.6770
C4E C 0.5631(6) 0.2827(4) 0.7565(3)
H2E H 0.6077 0.3046 0.7758
C7E C 0.5763(5) 0.2348(3) 0.8847(3)
C8E C 0.6745(5) 0.2151(5) 0.8684(3)
H3E H 0.7125 0.2095 0.9019
H4E H 0.7045 0.2430 0.8448
H5E H 0.6696 0.1801 0.8481
C11F C 0.1910(5) 0.4124(3) 0.4636(3)
H6F H 0.1505 0.3929 0.4392
C12F C 0.1913(5) 0.4710(3) 0.4631(4)
H7F H 0.1518 0.4900 0.4377
C15F C 0.1712(3) 0.60119(19) 0.5053(3)
C16F C 0.0657(4) 0.5874(3) 0.5102(4)
H8F H 0.0294 0.6219 0.5122
H9F H 0.0548 0.5655 0.5438
H10F H 0.0457 0.5661 0.4777
loop_
_geom_bond_atom_site_label_1
_geom_bond_atom_site_label_2
_geom_bond_site_symmetry_1
_geom_bond_site_symmetry_2
Zn1 O1 1_555 1_555
O1 C1 1_555 1_555
O2 Zn1 1_555 1_555
N1 C7 1_555 1_555
N2 C15 1_555 1_555
C1 C2 1_555 1_555
C2 C3 1_555 1_555
C3 H1 1_555 1_555
C4 C3 1_555 1_555
H2 C4 1_555 1_555
C5 C4 1_555 1_555
C6 C5 1_555 1_555
C7 C6 1_555 1_555
C8 C7 1_555 1_555
H3 C8 1_555 1_555
H4 C8 1_555 1_555
H5 C8 1_555 1_555
C9 O2 1_555 1_555
C10 C9 1_555 1_555
C11 C10 1_555 1_555
H6 C11 1_555 1_555
C12 C11 1_555 1_555
H7 C12 1_555 1_555
C13 C12 1_555 1_555
C14 C13 1_555 1_555
C15 C14 1_555 1_555
C16 C15 1_555 1_555
H8 C16 1_555 1_555
H9 C16 1_555 1_555
H10 C16 1_555 1_555
Zn1E O1E 1_555 1_555
Zn1J N1 1_555 1_555
Zn1M N2 1_555 1_555
Zn1O N1E 1_555 1_555
Zn1F O2F 1_555 1_555
Zn1K N2F 1_555 1_555
O1E C1 1_555 1_555
O2F C9 1_555 1_555
O2E Zn1E 1_555 1_555
N1E N1 1_555 1_555
N1J Zn1 1_555 1_555
N1O Zn1E 1_555 1_555
N2F N2 1_555 1_555
N2M Zn1 1_555 1_555
N2H Zn1E 1_555 1_555
C3E C2 1_555 1_555
H1E C3E 1_555 1_555
C4E C5 1_555 1_555
H2E C4E 1_555 1_555
C7E C6 1_555 1_555
C8E C7E 1_555 1_555
H3E C8E 1_555 1_555
H4E C8E 1_555 1_555
H5E C8E 1_555 1_555
C11F C10 1_555 1_555
H6F C11F 1_555 1_555
C12F C13 1_555 1_555
H7F C12F 1_555 1_555
C15F C14 1_555 1_555
C16F C15F 1_555 1_555
H8F C16F 1_555 1_555
H9F C16F 1_555 1_555
H10F C16F 1_555 1_555
N1E C7E 1_555 1_555
N1J N1O 1_555 1_555
N2F C15F 1_555 1_555
C3E C4E 1_555 1_555
C11F C12F 1_555 1_555

#END
