
#######################################################################
#
#                 Cambridge Crystallographic Data Centre
#                                CCDC 
#
#######################################################################
#
# If this CIF has been generated from an entry in the Cambridge 
# Structural Database, then it will include bibliographic, chemical, 
# crystal, experimental, refinement or atomic coordinate data resulting 
# from the CCDC's data processing and validation procedures.
#
#######################################################################

data_FEJGAD01
_symmetry_cell_setting           monoclinic
_symmetry_space_group_name_H-M   'C 2/c'
_symmetry_Int_Tables_number      15
_space_group_name_Hall           '-C 2yn'
loop_
_symmetry_equiv_pos_site_id
_symmetry_equiv_pos_as_xyz
1 x,y,z
2 -x,y,1/2-z
3 1/2+x,1/2+y,z
4 1/2-x,1/2+y,1/2-z
5 -x,-y,-z
6 x,-y,1/2+z
7 1/2-x,1/2-y,-z
8 1/2+x,1/2-y,1/2+z
_cell_length_a                   15.869(4)
_cell_length_b                   11.845(3)
_cell_length_c                   13.295(3)
_cell_angle_alpha                90
_cell_angle_beta                 112.972(3)
_cell_angle_gamma                90
_cell_volume                     2300.85
loop_
_atom_site_label
_atom_site_type_symbol
_atom_site_fract_x
_atom_site_fract_y
_atom_site_fract_z
Sn1 Sn 0.0000 0.72192 0.2500
Cl1 Cl 0.0510 0.7216 0.0909
N1 N 0.0000 0.5232 0.2500
C1 C -0.0374 0.4646 0.3112
C2 C -0.0394 0.3483 0.3102
C3 C 0.0000 0.2875 0.2500
C4 C 0.0000 0.1616 0.2500
C5 C -0.0132 0.1008 0.1552
C6 C -0.0128 -0.0154 0.1570
N2 N 0.0000 -0.0724 0.2500
C7 C 0.1424 0.7384 0.3642
C8 C 0.1910 0.6264 0.3925
C9 C 0.1805 0.5578 0.4705
C10 C 0.2210 0.4510 0.4932
C11 C 0.2716 0.4160 0.4320
C12 C 0.2850 0.4825 0.3585
C13 C 0.2428 0.5913 0.3342
H1 H -0.0624 0.5047 0.3550
H2 H -0.0679 0.3092 0.3509
H3 H -0.0225 0.1397 0.0892
H4 H -0.0216 -0.0561 0.0921
H5 H 0.1437 0.7725 0.4294
H6 H 0.1737 0.7853 0.3321
H7 H 0.1452 0.5835 0.5095
H8 H 0.2147 0.4039 0.5477
H9 H 0.2971 0.3422 0.4435
H10 H 0.3227 0.4575 0.3222
H11 H 0.2498 0.6382 0.2800
Sn1_2 Sn 0.0000 -0.27808 0.2500
Cl1A Cl -0.0510 0.7216 0.4091
C1A C 0.0374 0.4646 0.1888
C2A C 0.0394 0.3483 0.1898
C5A C 0.0132 0.1008 0.3448
C6A C 0.0128 -0.0154 0.3430
N2_2 N 0.0000 0.9276 0.2500
C7A C -0.1424 0.7384 0.1358
C8A C -0.1910 0.6264 0.1075
C9A C -0.1805 0.5578 0.0295
C10A C -0.2210 0.4510 0.0068
C11A C -0.2716 0.4160 0.0680
C12A C -0.2850 0.4825 0.1415
C13A C -0.2428 0.5913 0.1658
H1A H 0.0624 0.5047 0.1450
H2A H 0.0679 0.3092 0.1491
H3A H 0.0225 0.1397 0.4108
H4A H 0.0216 -0.0561 0.4079
H5A H -0.1437 0.7725 0.0706
H6A H -0.1737 0.7853 0.1679
H7A H -0.1452 0.5835 -0.0095
H8A H -0.2147 0.4039 -0.0477
H9A H -0.2971 0.3422 0.0565
H10A H -0.3227 0.4575 0.1778
H11A H -0.2498 0.6382 0.2200
loop_
_geom_bond_atom_site_label_1
_geom_bond_atom_site_label_2
_geom_bond_site_symmetry_1
_geom_bond_site_symmetry_2
Sn1 Cl1 1_555 1_555
N1 Sn1 1_555 1_555
C1 N1 1_555 1_555
C2 C1 1_555 1_555
C3 C2 1_555 1_555
C4 C3 1_555 1_555
C5 C4 1_555 1_555
C6 C5 1_555 1_555
N2 C6 1_555 1_555
C7 Sn1 1_555 1_555
C8 C7 1_555 1_555
C9 C8 1_555 1_555
C10 C9 1_555 1_555
C11 C10 1_555 1_555
C12 C11 1_555 1_555
C13 C8 1_555 1_555
H1 C1 1_555 1_555
H2 C2 1_555 1_555
H3 C5 1_555 1_555
H4 C6 1_555 1_555
H5 C7 1_555 1_555
H6 C7 1_555 1_555
H7 C9 1_555 1_555
H8 C10 1_555 1_555
H9 C11 1_555 1_555
H10 C12 1_555 1_555
H11 C13 1_555 1_555
Sn1_2 N2 1_555 1_555
Cl1A Sn1 1_555 1_555
C1A N1 1_555 1_555
C2A C3 1_555 1_555
C5A C4 1_555 1_555
C6A N2 1_555 1_555
N2_2 Sn1 1_555 1_555
C7A Sn1 1_555 1_555
C8A C7A 1_555 1_555
C9A C8A 1_555 1_555
C10A C9A 1_555 1_555
C11A C10A 1_555 1_555
C12A C11A 1_555 1_555
C13A C8A 1_555 1_555
H1A C1A 1_555 1_555
H2A C2A 1_555 1_555
H3A C5A 1_555 1_555
H4A C6A 1_555 1_555
H5A C7A 1_555 1_555
H6A C7A 1_555 1_555
H7A C9A 1_555 1_555
H8A C10A 1_555 1_555
H9A C11A 1_555 1_555
H10A C12A 1_555 1_555
H11A C13A 1_555 1_555
C12 C13 1_555 1_555
C1A C2A 1_555 1_555
C5A C6A 1_555 1_555
C12A C13A 1_555 1_555

#END
