
#######################################################################
#
#                 Cambridge Crystallographic Data Centre
#                                CCDC 
#
#######################################################################
#
# If this CIF has been generated from an entry in the Cambridge 
# Structural Database, then it will include bibliographic, chemical, 
# crystal, experimental, refinement or atomic coordinate data resulting 
# from the CCDC's data processing and validation procedures.
#
#######################################################################

data_FEJGIM
_symmetry_cell_setting           orthorhombic
_symmetry_space_group_name_H-M   'P 21 21 21'
_symmetry_Int_Tables_number      19
_space_group_name_Hall           'P 2ac 2ab'
loop_
_symmetry_equiv_pos_site_id
_symmetry_equiv_pos_as_xyz
1 x,y,z
2 1/2-x,-y,1/2+z
3 -x,1/2+y,1/2-z
4 1/2+x,1/2-y,-z
_cell_length_a                   10.6420(11)
_cell_length_b                   11.4227(12)
_cell_length_c                   16.6328(18)
_cell_angle_alpha                90
_cell_angle_beta                 90
_cell_angle_gamma                90
_cell_volume                     2021.89
loop_
_atom_site_label
_atom_site_type_symbol
_atom_site_fract_x
_atom_site_fract_y
_atom_site_fract_z
Sn1 Sn 1.15510(4) 0.26406(3) 0.96446(2)
Sn2 Sn 0.81851(4) 0.21183(4) 0.69743(3)
Cl1 Cl 0.54952(18) 0.43178(19) 0.70151(11)
Cl2 Cl 0.70937(19) 0.78098(16) 0.89094(12)
Cl3 Cl 0.89827(18) 0.60658(15) 0.97547(11)
O1 O 1.0032(4) 0.3500(4) 0.8942(2)
O2 O 0.8489(4) 0.3031(3) 0.9787(2)
O3 O 0.7325(4) 0.2862(4) 0.7942(2)
C1 C 0.8917(6) 0.3569(5) 0.9196(3)
C2 C 0.8070(5) 0.4423(5) 0.8760(3)
C3 C 0.7300(5) 0.3993(6) 0.8128(3)
C4 C 0.6486(5) 0.4805(5) 0.7774(3)
C5 C 0.6426(6) 0.5951(6) 0.8008(4)
H1 H 0.5872 0.6460 0.7753
C6 C 0.7191(6) 0.6359(6) 0.8627(4)
C7 C 0.8009(5) 0.5592(5) 0.8982(3)
C8 C 1.1631(7) 0.4031(6) 1.0479(4)
H2 H 1.2482 0.4301 1.0526
H3 H 1.1340 0.3763 1.0993
H4 H 1.1107 0.4661 1.0296
C9 C 1.0603(6) 0.1071(5) 0.9948(4)
H5 H 1.0357 0.1097 1.0503
H6 H 1.1153 0.0417 0.9863
H7 H 0.9870 0.0989 0.9617
C10 C 1.2631(6) 0.2650(8) 0.8581(3)
H8 H 1.2133 0.2946 0.8146
H9 H 1.2899 0.1867 0.8460
H10 H 1.3355 0.3141 0.8655
C11 C 0.9391(9) 0.0924(9) 0.7555(5)
H11 H 1.0163 0.1310 0.7693
H12 H 0.9565 0.0280 0.7202
H13 H 0.8995 0.0639 0.8035
C12 C 0.6737(8) 0.1288(8) 0.6323(5)
H14 H 0.6384 0.0670 0.6641
H15 H 0.7074 0.0968 0.5834
H16 H 0.6095 0.1848 0.6195
C13 C 0.9038(10) 0.3533(8) 0.6376(5)
H17 H 0.8508 0.4211 0.6416
H18 H 0.9157 0.3336 0.5820
H19 H 0.9837 0.3697 0.6618
Sn1C Sn 0.65510(4) 0.23594(3) 1.03554(2)
O2C O 1.3489(4) 0.1969(3) 1.0213(2)
loop_
_geom_bond_atom_site_label_1
_geom_bond_atom_site_label_2
_geom_bond_site_symmetry_1
_geom_bond_site_symmetry_2
Sn1 O1 1_555 1_555
Sn2 O3 1_555 1_555
Cl1 C4 1_555 1_555
Cl2 C6 1_555 1_555
Cl3 C7 1_555 1_555
O1 C1 1_555 1_555
O2 C1 1_555 1_555
O3 C3 1_555 1_555
C1 C2 1_555 1_555
C2 C3 1_555 1_555
C3 C4 1_555 1_555
C4 C5 1_555 1_555
C5 H1 1_555 1_555
C6 C5 1_555 1_555
C7 C2 1_555 1_555
C8 Sn1 1_555 1_555
H2 C8 1_555 1_555
H3 C8 1_555 1_555
H4 C8 1_555 1_555
C9 Sn1 1_555 1_555
H5 C9 1_555 1_555
H6 C9 1_555 1_555
H7 C9 1_555 1_555
C10 Sn1 1_555 1_555
H8 C10 1_555 1_555
H9 C10 1_555 1_555
H10 C10 1_555 1_555
C11 Sn2 1_555 1_555
H11 C11 1_555 1_555
H12 C11 1_555 1_555
H13 C11 1_555 1_555
C12 Sn2 1_555 1_555
H14 C12 1_555 1_555
H15 C12 1_555 1_555
H16 C12 1_555 1_555
C13 Sn2 1_555 1_555
H17 C13 1_555 1_555
H18 C13 1_555 1_555
H19 C13 1_555 1_555
Sn1C O2 1_555 1_555
O2C Sn1 1_555 1_555
C6 C7 1_555 1_555

#END
