
#######################################################################
#
#                 Cambridge Crystallographic Data Centre
#                                CCDC 
#
#######################################################################
#
# If this CIF has been generated from an entry in the Cambridge 
# Structural Database, then it will include bibliographic, chemical, 
# crystal, experimental, refinement or atomic coordinate data resulting 
# from the CCDC's data processing and validation procedures.
#
#######################################################################

data_FEJGEH
_symmetry_cell_setting           triclinic
_symmetry_space_group_name_H-M   'P 1'
_symmetry_Int_Tables_number      1
_space_group_name_Hall           'P 1'
loop_
_symmetry_equiv_pos_site_id
_symmetry_equiv_pos_as_xyz
1 x,y,z
_cell_length_a                   9.202(5)
_cell_length_b                   9.350(5)
_cell_length_c                   9.563(5)
_cell_angle_alpha                85.434(9)
_cell_angle_beta                 61.316(9)
_cell_angle_gamma                79.615(9)
_cell_volume                     709.969
loop_
_atom_site_label
_atom_site_type_symbol
_atom_site_fract_x
_atom_site_fract_y
_atom_site_fract_z
Sn1 Sn 0.3156(5) 0.0783(4) 0.5912(6)
Cl1 Cl 0.5103(6) 0.2560(4) 0.5629(6)
Cl2 Cl 0.1224(7) -0.0970(5) 0.6101(9)
N1 N 0.521(3) -0.1304(18) 0.589(2)
N2 N 1.120(3) -0.727(2) 0.588(3)
C1 C 0.527(2) -0.2538(18) 0.537(2)
H1 H 0.4525 -0.2624 0.4992
C2 C 0.6371(18) -0.3747(15) 0.5345(19)
H2 H 0.6340 -0.4636 0.4996
C3 C 0.761(3) -0.363(2) 0.587(3)
C4 C 0.759(4) -0.225(3) 0.598(4)
H3 H 0.8566 -0.2024 0.5928
C5 C 0.640(4) -0.106(3) 0.616(4)
H4 H 0.6429 -0.0149 0.6465
C6 C 1.1475(17) -0.5769(14) 0.564(2)
H5 H 1.2489 -0.5576 0.5511
C7 C 1.0358(15) -0.4630(13) 0.5600(17)
H6 H 1.0645 -0.3703 0.5374
C8 C 0.881(3) -0.484(2) 0.589(3)
C9 C 0.856(2) -0.6215(15) 0.581(3)
H7 H 0.7690 -0.6383 0.5640
C10 C 0.968(3) -0.7387(16) 0.600(3)
H8 H 0.9351 -0.8299 0.6220
C11 C 0.205(3) 0.076(3) 0.844(4)
H9 H 0.2283 -0.0239 0.8735
H10 H 0.2670 0.1315 0.8718
C12 C 0.017(3) 0.130(3) 0.955(2)
H11 H -0.0009 0.2347 0.9679
H12 H -0.0482 0.1081 0.9073
C13 C -0.041(5) 0.059(4) 1.116(3)
H13 H 0.0235 -0.0379 1.1036
H14 H -0.1578 0.0498 1.1601
C14 C -0.021(6) 0.144(5) 1.232(4)
H15 H -0.0638 0.0975 1.3340
H16 H -0.0814 0.2412 1.2432
H17 H 0.0962 0.1482 1.1929
C15 C 0.420(2) 0.0531(19) 0.3413(15)
H18 H 0.5293 -0.0069 0.3036
H19 H 0.3502 -0.0019 0.3234
C16 C 0.441(3) 0.1829(17) 0.238(2)
H20 H 0.5114 0.2399 0.2522
H21 H 0.3327 0.2428 0.2690
C17 C 0.522(2) 0.1413(19) 0.061(2)
H22 H 0.6216 0.0692 0.0345
H23 H 0.4439 0.0970 0.0443
C18 C 0.570(5) 0.269(3) -0.051(4)
H24 H 0.6253 0.2353 -0.1590
H25 H 0.6444 0.3157 -0.0325
H26 H 0.4707 0.3375 -0.0311
Sn1_2 Sn 1.3156(5) -0.9217(4) 0.5912(6)
N2_2 N 0.120(3) 0.273(2) 0.588(3)
loop_
_geom_bond_atom_site_label_1
_geom_bond_atom_site_label_2
_geom_bond_site_symmetry_1
_geom_bond_site_symmetry_2
Sn1 Cl1 1_555 1_555
Cl2 Sn1 1_555 1_555
N1 Sn1 1_555 1_555
N2 C6 1_555 1_555
C1 N1 1_555 1_555
H1 C1 1_555 1_555
C2 C1 1_555 1_555
H2 C2 1_555 1_555
C3 C2 1_555 1_555
C4 C3 1_555 1_555
H3 C4 1_555 1_555
C5 N1 1_555 1_555
H4 C5 1_555 1_555
C6 H5 1_555 1_555
C7 C6 1_555 1_555
H6 C7 1_555 1_555
C8 C3 1_555 1_555
C9 C8 1_555 1_555
H7 C9 1_555 1_555
C10 N2 1_555 1_555
H8 C10 1_555 1_555
C11 Sn1 1_555 1_555
H9 C11 1_555 1_555
H10 C11 1_555 1_555
C12 C11 1_555 1_555
H11 C12 1_555 1_555
H12 C12 1_555 1_555
C13 C12 1_555 1_555
H13 C13 1_555 1_555
H14 C13 1_555 1_555
C14 C13 1_555 1_555
H15 C14 1_555 1_555
H16 C14 1_555 1_555
H17 C14 1_555 1_555
C15 Sn1 1_555 1_555
H18 C15 1_555 1_555
H19 C15 1_555 1_555
C16 C15 1_555 1_555
H20 C16 1_555 1_555
H21 C16 1_555 1_555
C17 C16 1_555 1_555
H22 C17 1_555 1_555
H23 C17 1_555 1_555
C18 C17 1_555 1_555
H24 C18 1_555 1_555
H25 C18 1_555 1_555
H26 C18 1_555 1_555
Sn1_2 N2 1_555 1_555
N2_2 Sn1 1_555 1_555
C4 C5 1_555 1_555
C7 C8 1_555 1_555
C9 C10 1_555 1_555

#END
