
#######################################################################
#
#                 Cambridge Crystallographic Data Centre
#                                CCDC 
#
#######################################################################
#
# If this CIF has been generated from an entry in the Cambridge 
# Structural Database, then it will include bibliographic, chemical, 
# crystal, experimental, refinement or atomic coordinate data resulting 
# from the CCDC's data processing and validation procedures.
#
#######################################################################

data_FEJHOS
_symmetry_cell_setting           monoclinic
_symmetry_space_group_name_H-M   'P 21/c'
_symmetry_Int_Tables_number      14
_space_group_name_Hall           '-P 2ybc'
loop_
_symmetry_equiv_pos_site_id
_symmetry_equiv_pos_as_xyz
1 x,y,z
2 -x,1/2+y,1/2-z
3 -x,-y,-z
4 x,1/2-y,1/2+z
_cell_length_a                   18.5774(19)
_cell_length_b                   7.222
_cell_length_c                   21.4155(15)
_cell_angle_alpha                90.00
_cell_angle_beta                 125.187(6)
_cell_angle_gamma                90.00
_cell_volume                     2348.22
loop_
_atom_site_label
_atom_site_type_symbol
_atom_site_fract_x
_atom_site_fract_y
_atom_site_fract_z
In1 In 0.00039(6) 0.46142(11) 0.75325(5)
In2 In 0.50374(7) 0.49828(17) 1.25177(6)
O1 O 0.1357(7) 0.5564(19) 0.8348(7)
O2 O 0.1341(6) 0.8707(15) 0.8276(6)
O3 O 0.4655(7) 0.586(2) 1.1399(6)
O4 O 0.4599(8) 0.905(2) 1.1370(6)
O5 O 0.5948(7) 0.760(2) 1.1067(7)
H1 H 0.6481 0.7637 1.1270
O6 O 0.5907(7) 0.766(2) 1.0027(7)
O7 O 0.1889(7) 0.686(2) 0.7416(6)
O8 O 0.3067(9) 0.767(3) 0.7486(8)
H2 H 0.3298 0.6704 0.7458
O9 O -0.3625(7) 0.910(2) 0.8048(7)
O10 O -0.3672(7) 0.5971(19) 0.8008(7)
O11 O -0.3129(8) 0.742(3) 0.9482(7)
O12 O -0.1925(7) 0.814(2) 1.0576(6)
H3 H -0.1399 0.8405 1.0755
O13 O 0.0905(7) 0.782(2) 1.0879(6)
O14 O 0.0951(7) 0.7230(17) 0.9875(6)
H4 H 0.1484 0.7264 1.0203
O15 O -0.0379(8) 0.5613(18) 0.8262(6)
O16 O -0.0363(8) 0.8716(18) 0.8234(6)
O17 O 0.0334(7) 0.2162(17) 0.8069(6)
O18 O 0.4658(7) 0.745(2) 1.2727(6)
C1 C 0.2721(10) 0.7205(19) 0.8957(8)
C2 C 0.3162(9) 0.724(2) 0.9747(9)
H5 H 0.2848 0.7191 0.9963
C3 C 0.4109(10) 0.737(2) 1.0231(8)
C4 C 0.4535(9) 0.745(2) 0.9883(8)
C5 C 0.4095(10) 0.738(2) 0.9101(8)
H6 H 0.4406 0.7397 0.8882
C6 C 0.3173(9) 0.729(2) 0.8635(8)
C7 C 0.1699(9) 0.719(2) 0.8471(7)
C8 C 0.4504(10) 0.749(3) 1.1072(9)
C9 C 0.5541(9) 0.756(2) 1.0331(8)
C10 C 0.2706(11) 0.733(3) 0.7785(10)
C11 C -0.2296(10) 0.744(2) 0.8743(8)
C12 C -0.1830(10) 0.759(2) 0.9541(9)
C13 C -0.0920(9) 0.772(2) 0.9977(8)
H7 H -0.0611 0.7937 1.0499
C14 C -0.0446(9) 0.752(2) 0.9662(8)
C15 C -0.0913(8) 0.7285(18) 0.8869(7)
C16 C -0.1826(10) 0.731(2) 0.8425(9)
H8 H -0.2134 0.7217 0.7897
C17 C -0.3290(10) 0.750(3) 0.8222(8)
C18 C -0.2300(11) 0.771(3) 0.9920(9)
C19 C 0.0523(9) 0.752(2) 1.0195(8)
C20 C -0.0502(10) 0.723(2) 0.8421(9)
In1A In -0.00039(6) 0.96142(11) 0.74675(5)
In1A_2 In -0.00039(6) -0.03858(11) 0.74675(5)
In2A In 0.49626(7) 0.99828(17) 1.24823(6)
In2C In -0.49626(7) 1.00172(17) 0.75177(6)
In2B In -0.50374(7) 0.50172(17) 0.74823(6)
O2A O -0.1341(6) 0.3707(15) 0.6724(6)
O4A O 0.5401(8) 0.405(2) 1.3630(6)
O9C O 0.6375(7) 0.590(2) 1.3048(7)
O10B O 0.3672(7) 0.4029(19) 1.1992(7)
O16A O 0.0363(8) 0.3716(18) 0.6766(6)
O17A O -0.0334(7) 0.7162(17) 0.6931(6)
O18A O 0.5342(7) 0.245(2) 1.2273(6)
O19 O -0.2660(7) 0.237(2) 0.4020(7)
O20 O 0.7647(7) 0.731(2) 0.6680(7)
loop_
_geom_bond_atom_site_label_1
_geom_bond_atom_site_label_2
_geom_bond_site_symmetry_1
_geom_bond_site_symmetry_2
In1 O1 1_555 1_555
In2 O3 1_555 1_555
O1 C7 1_555 1_555
O2 C7 1_555 1_555
O3 C8 1_555 1_555
O4 C8 1_555 1_555
O5 H1 1_555 1_555
O6 C9 1_555 1_555
O7 C10 1_555 1_555
O8 H2 1_555 1_555
O9 C17 1_555 1_555
O10 C17 1_555 1_555
O11 C18 1_555 1_555
O12 H3 1_555 1_555
O13 C19 1_555 1_555
O14 H4 1_555 1_555
O15 In1 1_555 1_555
O16 C20 1_555 1_555
O17 In1 1_555 1_555
O18 In2 1_555 1_555
C1 C2 1_555 1_555
C2 H5 1_555 1_555
C3 C2 1_555 1_555
C4 C3 1_555 1_555
C5 C4 1_555 1_555
H6 C5 1_555 1_555
C6 C1 1_555 1_555
C7 C1 1_555 1_555
C8 C3 1_555 1_555
C9 O5 1_555 1_555
C10 O8 1_555 1_555
C11 C12 1_555 1_555
C12 C13 1_555 1_555
C13 H7 1_555 1_555
C14 C13 1_555 1_555
C15 C14 1_555 1_555
C16 C11 1_555 1_555
H8 C16 1_555 1_555
C17 C11 1_555 1_555
C18 O12 1_555 1_555
C19 O14 1_555 1_555
C20 O15 1_555 1_555
In1A O2 1_555 1_555
In1A_2 O17 1_555 1_555
In2A O4 1_555 1_555
In2C O9 1_555 1_555
In2B O10 1_555 1_555
O2A In1 1_555 1_555
O4A In2 1_555 1_555
O9C In2 1_555 1_555
O10B In2 1_555 1_555
O16A In1 1_555 1_555
O17A In1 1_555 1_555
O18A In2 1_555 1_555
O16 In1A 1_555 1_555
O18 In2A 1_555 1_555
C4 C9 1_555 1_555
C5 C6 1_555 1_555
C6 C10 1_555 1_555
C12 C18 1_555 1_555
C14 C19 1_555 1_555
C15 C16 1_555 1_555
C15 C20 1_555 1_555
In1A O17A 1_555 1_555

#END
