
#######################################################################
#
#                 Cambridge Crystallographic Data Centre
#                                CCDC 
#
#######################################################################
#
# If this CIF has been generated from an entry in the Cambridge 
# Structural Database, then it will include bibliographic, chemical, 
# crystal, experimental, refinement or atomic coordinate data resulting 
# from the CCDC's data processing and validation procedures.
#
#######################################################################

data_FEJHIM
_symmetry_cell_setting           monoclinic
_symmetry_space_group_name_H-M   'P 21/c'
_symmetry_Int_Tables_number      14
_space_group_name_Hall           '-P 2ybc'
loop_
_symmetry_equiv_pos_site_id
_symmetry_equiv_pos_as_xyz
1 x,y,z
2 -x,1/2+y,1/2-z
3 -x,-y,-z
4 x,1/2-y,1/2+z
_cell_length_a                   6.953
_cell_length_b                   8.979
_cell_length_c                   17.5247(18)
_cell_angle_alpha                90.00
_cell_angle_beta                 100.153(6)
_cell_angle_gamma                90.00
_cell_volume                     1076.95
loop_
_atom_site_label
_atom_site_type_symbol
_atom_site_fract_x
_atom_site_fract_y
_atom_site_fract_z
In1 In 0.25229(5) 0.44979(3) 0.102385(18)
O1 O 0.2793(5) 0.2012(3) 0.08297(18)
O2 O 0.3125(5) 0.3492(3) -0.01204(18)
O3 O 0.2615(5) 0.1316(4) -0.27874(18)
O4 O 0.2048(5) -0.1054(4) -0.29893(18)
O5 O 0.0559(5) -0.4150(3) -0.07210(18)
O6 O 0.2333(5) -0.3427(3) 0.04102(17)
O7 O 0.5638(5) 0.4915(4) 0.1302(2)
C1 C 0.2691(7) 0.0885(5) -0.0409(3)
C2 C 0.2673(7) 0.1059(5) -0.1192(3)
H1 H 0.2919 0.2009 -0.1393
C3 C 0.2294(7) -0.0155(5) -0.1688(2)
C4 C 0.1880(6) -0.1526(5) -0.1399(2)
H2 H 0.1540 -0.2340 -0.1743
C5 C 0.1958(7) -0.1721(5) -0.0609(3)
C6 C 0.2370(6) -0.0515(5) -0.0114(2)
H3 H 0.2433 -0.0644 0.0428
C7 C 0.2917(6) 0.2193(5) 0.0130(3)
C8 C 0.2300(7) 0.0037(5) -0.2533(3)
C9 C 0.1562(7) -0.3206(5) -0.0285(3)
In1C In 0.25229(5) 0.05021(3) -0.397615(18)
In1B In -0.25229(5) -0.44979(3) -0.102385(18)
In1_2 In 0.25229(5) -0.55021(3) 0.102385(18)
O3C O 0.2615(5) 0.3684(4) 0.22126(18)
O4C O 0.2048(5) 0.6054(4) 0.20107(18)
O5B O -0.0559(5) 0.4150(3) 0.07210(18)
O6_2 O 0.2333(5) 0.6573(3) 0.04102(17)
O8 O 0.7336(7) 0.4664(7) 0.2792(3)
loop_
_geom_bond_atom_site_label_1
_geom_bond_atom_site_label_2
_geom_bond_site_symmetry_1
_geom_bond_site_symmetry_2
In1 O1 1_555 1_555
O1 C7 1_555 1_555
O2 In1 1_555 1_555
O3 C8 1_555 1_555
O4 C8 1_555 1_555
O5 C9 1_555 1_555
O6 C9 1_555 1_555
O7 In1 1_555 1_555
C1 C2 1_555 1_555
C2 H1 1_555 1_555
C3 C2 1_555 1_555
C4 C3 1_555 1_555
H2 C4 1_555 1_555
C5 C4 1_555 1_555
C6 C1 1_555 1_555
H3 C6 1_555 1_555
C7 O2 1_555 1_555
C8 C3 1_555 1_555
C9 C5 1_555 1_555
In1C O3 1_555 1_555
In1B O5 1_555 1_555
In1_2 O6 1_555 1_555
O3C In1 1_555 1_555
O4C In1 1_555 1_555
O5B In1 1_555 1_555
O6_2 In1 1_555 1_555
O4 In1C 1_555 1_555
C1 C7 1_555 1_555
C5 C6 1_555 1_555

#END
