
#######################################################################
#
#                 Cambridge Crystallographic Data Centre
#                                CCDC 
#
#######################################################################
#
# If this CIF has been generated from an entry in the Cambridge 
# Structural Database, then it will include bibliographic, chemical, 
# crystal, experimental, refinement or atomic coordinate data resulting 
# from the CCDC's data processing and validation procedures.
#
#######################################################################

data_FEJJIP
_symmetry_cell_setting           monoclinic
_symmetry_space_group_name_H-M   'P 21/m'
_symmetry_Int_Tables_number      11
_space_group_name_Hall           '-P 2yb'
loop_
_symmetry_equiv_pos_site_id
_symmetry_equiv_pos_as_xyz
1 x,y,z
2 -x,1/2+y,-z
3 -x,-y,-z
4 x,1/2-y,z
_cell_length_a                   6.518(3)
_cell_length_b                   12.909(6)
_cell_length_c                   10.687(5)
_cell_angle_alpha                90
_cell_angle_beta                 97.423(8)
_cell_angle_gamma                90
_cell_volume                     891.677
loop_
_atom_site_label
_atom_site_type_symbol
_atom_site_fract_x
_atom_site_fract_y
_atom_site_fract_z
Zn1 Zn 0.18079(9) 1.2500 0.81947(6)
Cl1 Cl 0.0394(2) 1.2500 0.99989(14)
N1 N 0.3653(5) 1.1178(2) 0.8250(3)
N2 N 0.3487(7) 0.7500 0.7827(4)
O1 O -0.9436(6) 0.6688(4) 0.3156(4)
C1 C 0.5658(6) 1.1117(3) 0.8721(4)
H1 H 0.6336 1.1719 0.9020
C2 C 0.6753(6) 1.0209(3) 0.8782(4)
H2 H 0.8150 1.0201 0.9099
C3 C 0.5767(6) 0.9314(3) 0.8370(4)
H3 H 0.6487 0.8690 0.8411
C4 C 0.3670(6) 0.9342(3) 0.7888(3)
C5 C 0.2715(6) 1.0297(3) 0.7846(4)
H4 H 0.1325 1.0331 0.7514
C6 C 0.2548(6) 0.8389(3) 0.7459(4)
C7 C 0.0612(6) 0.8413(3) 0.6740(4)
H5 H -0.0003 0.9046 0.6508
C8 C -0.0408(8) 0.7500 0.6365(5)
C9 C -0.2491(8) 0.7500 0.5615(5)
C10 C -0.3511(7) 0.8400(3) 0.5257(4)
H6 H -0.2869 0.9031 0.5471
C11 C -0.5464(7) 0.8397(3) 0.4589(5)
H7 H -0.6109 0.9025 0.4365
C12 C -0.6472(9) 0.7500 0.4250(5)
C13 C -0.8604(10) 0.7500 0.3478(6)
Zn1A Zn -1.18079(9) 0.7500 0.18053(6)
Zn1_2 Zn 0.18079(9) 0.2500 0.81947(6)
N1C N 0.3653(5) 0.3822(2) 0.8250(3)
N1C_2 N 0.3653(5) 1.3822(2) 0.8250(3)
O1C O -0.9436(6) 0.8312(4) 0.3156(4)
O1A O -0.0564(6) 1.1688(4) 0.6844(4)
O1B O -0.0564(6) 1.3312(4) 0.6844(4)
C1C C 0.5658(6) 0.3883(3) 0.8721(4)
H1C H 0.6336 0.3281 0.9020
C2C C 0.6753(6) 0.4791(3) 0.8782(4)
H2C H 0.8150 0.4799 0.9099
C3C C 0.5767(6) 0.5686(3) 0.8370(4)
H3C H 0.6487 0.6310 0.8411
C4C C 0.3670(6) 0.5658(3) 0.7888(3)
C5C C 0.2715(6) 0.4703(3) 0.7846(4)
H4C H 0.1325 0.4669 0.7514
C6C C 0.2548(6) 0.6611(3) 0.7459(4)
C7C C 0.0612(6) 0.6587(3) 0.6740(4)
H5C H -0.0003 0.5954 0.6508
C10C C -0.3511(7) 0.6600(3) 0.5257(4)
H6C H -0.2869 0.5969 0.5471
C11C C -0.5464(7) 0.6603(3) 0.4589(5)
H7C H -0.6109 0.5975 0.4365
loop_
_geom_bond_atom_site_label_1
_geom_bond_atom_site_label_2
_geom_bond_site_symmetry_1
_geom_bond_site_symmetry_2
Zn1 Cl1 1_555 1_555
N1 Zn1 1_555 1_555
N2 C6 1_555 1_555
O1 C13 1_555 1_555
C1 N1 1_555 1_555
H1 C1 1_555 1_555
C2 C1 1_555 1_555
H2 C2 1_555 1_555
C3 C2 1_555 1_555
H3 C3 1_555 1_555
C4 C3 1_555 1_555
C5 N1 1_555 1_555
H4 C5 1_555 1_555
C6 C4 1_555 1_555
C7 C6 1_555 1_555
H5 C7 1_555 1_555
C8 C7 1_555 1_555
C9 C8 1_555 1_555
C10 C9 1_555 1_555
H6 C10 1_555 1_555
C11 C10 1_555 1_555
H7 C11 1_555 1_555
C12 C11 1_555 1_555
C13 C12 1_555 1_555
Zn1A O1 1_555 1_555
Zn1_2 N1C 1_555 1_555
N1C C1C 1_555 1_555
N1C_2 Zn1 1_555 1_555
O1C C13 1_555 1_555
O1A Zn1 1_555 1_555
O1B Zn1 1_555 1_555
C1C H1C 1_555 1_555
C2C C1C 1_555 1_555
H2C C2C 1_555 1_555
C3C C2C 1_555 1_555
H3C C3C 1_555 1_555
C4C C3C 1_555 1_555
C5C N1C 1_555 1_555
H4C C5C 1_555 1_555
C6C N2 1_555 1_555
C7C C8 1_555 1_555
H5C C7C 1_555 1_555
C10C C9 1_555 1_555
H6C C10C 1_555 1_555
C11C C12 1_555 1_555
H7C C11C 1_555 1_555
C4 C5 1_555 1_555
Zn1A O1C 1_555 1_555
C4C C5C 1_555 1_555
C4C C6C 1_555 1_555
C6C C7C 1_555 1_555
C10C C11C 1_555 1_555

#END
