
#######################################################################
#
#                 Cambridge Crystallographic Data Centre
#                                CCDC 
#
#######################################################################
#
# If this CIF has been generated from an entry in the Cambridge 
# Structural Database, then it will include bibliographic, chemical, 
# crystal, experimental, refinement or atomic coordinate data resulting 
# from the CCDC's data processing and validation procedures.
#
#######################################################################

data_FEJJOV
_symmetry_cell_setting           monoclinic
_symmetry_space_group_name_H-M   'P 21/c'
_symmetry_Int_Tables_number      14
_space_group_name_Hall           '-P 2ybc'
loop_
_symmetry_equiv_pos_site_id
_symmetry_equiv_pos_as_xyz
1 x,y,z
2 -x,1/2+y,1/2-z
3 -x,-y,-z
4 x,1/2-y,1/2+z
_cell_length_a                   14.9228(13)
_cell_length_b                   24.215(2)
_cell_length_c                   14.7464(13)
_cell_angle_alpha                90
_cell_angle_beta                 94.124(2)
_cell_angle_gamma                90
_cell_volume                     5314.9
loop_
_atom_site_label
_atom_site_type_symbol
_atom_site_fract_x
_atom_site_fract_y
_atom_site_fract_z
Zn1 Zn 1.05869(3) 0.889915(19) 0.57911(4)
Zn2 Zn 1.68645(3) 1.41503(2) 0.60682(4)
Zn3 Zn 0.34173(4) 0.90883(2) 0.58514(4)
Zn4 Zn 0.96660(3) 1.386260(18) 0.62551(3)
N1 N 0.9286(2) 0.89332(13) 0.6169(2)
N2 N 0.6497(2) 0.80170(14) 0.6402(3)
N3 N 0.3769(2) 0.83094(14) 0.6151(3)
N4 N 1.1030(2) 1.39123(13) 0.6168(3)
N5 N 1.3898(2) 1.30184(14) 0.6142(3)
N6 N 1.6590(2) 1.33441(14) 0.6176(3)
O1 O 0.80584(19) 0.43083(11) 0.6596(2)
O2 O 0.94338(19) 0.46320(11) 0.6577(2)
O3 O 1.21929(19) 0.93198(11) 0.5881(2)
O4 O 1.08842(19) 0.96811(11) 0.6025(2)
O5 O 1.6608(2) 1.44659(13) 0.4896(2)
O6 O 1.7111(3) 1.37330(14) 0.4201(3)
O7 O 1.6935(2) 1.38958(14) 0.0736(2)
O8 O 1.5828(2) 1.43890(14) 0.0079(2)
O9 O 1.3969(3) 1.55684(16) 0.1972(3)
O10 O 1.4205(2) 1.55275(13) 0.3443(2)
O11 O 1.0755(2) 0.84522(12) -0.0170(2)
O12 O 1.0903(2) 0.92615(12) 0.0517(2)
O13 O 1.0835(2) 0.92884(12) 0.3929(2)
O14 O 1.0643(2) 0.84987(12) 0.4655(2)
O15 O 1.0435(2) 0.67578(12) 0.2908(2)
O16 O 1.10586(19) 0.67215(11) 0.1584(2)
C1 C 0.8916(3) 0.94180(18) 0.6386(3)
H1 H 0.9250 0.9741 0.6353
C2 C 0.8061(3) 0.94464(19) 0.6653(4)
H2 H 0.7821 0.9785 0.6811
C3 C 0.7552(3) 0.89724(18) 0.6689(3)
H3 H 0.6967 0.8990 0.6865
C4 C 0.7917(3) 0.84685(16) 0.6460(3)
C5 C 0.8785(3) 0.84745(16) 0.6200(3)
H4 H 0.9039 0.8141 0.6037
C6 C 0.7383(3) 0.79459(16) 0.6452(3)
C7 C 0.7785(3) 0.74265(17) 0.6503(3)
H5 H 0.8407 0.7394 0.6571
C8 C 0.7243(3) 0.69548(17) 0.6450(3)
C9 C 0.6324(3) 0.70369(17) 0.6352(3)
H6 H 0.5942 0.6734 0.6280
C10 C 0.5968(3) 0.75624(17) 0.6362(3)
C11 C 0.4648(3) 0.81816(18) 0.6182(3)
H7 H 0.5053 0.8466 0.6097
C12 C 0.4986(3) 0.76647(18) 0.6330(3)
C13 C 0.4367(3) 0.72489(19) 0.6484(4)
H8 H 0.4559 0.6888 0.6591
C14 C 0.3461(3) 0.73809(19) 0.6477(4)
H9 H 0.3045 0.7109 0.6597
C15 C 0.3177(3) 0.7909(2) 0.6295(4)
H10 H 0.2567 0.7991 0.6271
C16 C 0.7618(3) 0.63856(16) 0.6495(3)
C17 C 0.8495(3) 0.62654(17) 0.6287(3)
H11 H 0.8869 0.6549 0.6119
C18 C 0.8817(3) 0.57234(17) 0.6331(3)
H12 H 0.9404 0.5650 0.6194
C19 C 0.8269(3) 0.52953(16) 0.6576(3)
C20 C 0.7409(3) 0.54182(18) 0.6807(3)
H13 H 0.7044 0.5136 0.6995
C21 C 0.7086(3) 0.59479(17) 0.6762(3)
H14 H 0.6503 0.6017 0.6914
C22 C 0.8602(3) 0.47174(17) 0.6586(3)
C23 C 1.1406(3) 1.43963(17) 0.5976(3)
H15 H 1.1054 1.4714 0.5952
C24 C 1.2299(3) 1.44366(17) 0.5813(3)
H16 H 1.2546 1.4777 0.5677
C25 C 1.2826(3) 1.39707(17) 0.5851(4)
H17 H 1.3431 1.3996 0.5743
C26 C 1.2459(3) 1.34627(17) 0.6050(3)
C27 C 1.1555(3) 1.34572(16) 0.6207(3)
H18 H 1.1295 1.3122 0.6346
C28 C 1.3012(3) 1.29450(17) 0.6076(3)
C29 C 1.2609(3) 1.24254(17) 0.5982(3)
H19 H 1.1988 1.2394 0.5889
C30 C 1.3145(3) 1.19581(17) 0.6029(3)
C31 C 1.4070(3) 1.20409(17) 0.6126(3)
H20 H 1.4452 1.1738 0.6176
C32 C 1.4426(3) 1.25654(17) 0.6148(3)
C33 C 1.5724(3) 1.32078(17) 0.6228(3)
H21 H 1.5315 1.3491 0.6304
C34 C 1.5403(3) 1.26763(17) 0.6175(3)
C35 C 1.6043(3) 1.22630(18) 0.6083(4)
H22 H 1.5866 1.1895 0.6052
C36 C 1.6936(3) 1.23987(19) 0.6038(4)
H23 H 1.7362 1.2123 0.5977
C37 C 1.7191(3) 1.29377(19) 0.6083(4)
H24 H 1.7794 1.3027 0.6048
C38 C 1.2763(3) 1.13952(16) 0.5970(3)
C39 C 1.1884(3) 1.12842(17) 0.6183(3)
H25 H 1.1520 1.1574 0.6349
C40 C 1.1545(3) 1.07531(17) 0.6153(3)
H26 H 1.0955 1.0690 0.6289
C41 C 1.2078(3) 1.03146(17) 0.5922(3)
C42 C 1.2934(3) 1.04219(17) 0.5678(3)
H27 H 1.3290 1.0133 0.5496
C43 C 1.3271(3) 1.09526(17) 0.5699(3)
H28 H 1.3851 1.1015 0.5528
C44 C 1.1706(3) 0.97394(17) 0.5942(3)
C45 C 1.6708(3) 1.41689(19) 0.4200(3)
C46 C 1.6257(3) 1.43963(18) 0.3334(3)
C47 C 1.6474(3) 1.42049(18) 0.2477(3)
H29 H 1.6910 1.3933 0.2441
C48 C 1.6048(3) 1.44132(18) 0.1692(3)
C49 C 1.6298(4) 1.42150(19) 0.0783(4)
C50 C 1.5375(3) 1.48121(18) 0.1743(3)
H30 H 1.5084 1.4951 0.1214
C51 C 1.5143(3) 1.49990(18) 0.2580(3)
C52 C 1.5589(3) 1.47928(19) 0.3370(3)
H31 H 1.5436 1.4923 0.3932
C53 C 1.4396(3) 1.54045(19) 0.2661(4)
C54 C 1.0889(3) 0.87565(18) 0.0546(3)
C55 C 1.0956(3) 0.84525(17) 0.1442(3)
C56 C 1.0909(3) 0.87397(17) 0.2257(3)
H32 H 1.0917 0.9124 0.2255
C57 C 1.0850(3) 0.84605(16) 0.3067(3)
C58 C 1.0785(3) 0.87852(18) 0.3944(3)
C59 C 1.0826(3) 0.78849(17) 0.3068(3)
H33 H 1.0771 0.7696 0.3610
C60 C 1.0883(3) 0.75920(16) 0.2262(3)
C61 C 1.0969(3) 0.78764(17) 0.1455(3)
H34 H 1.1036 0.7682 0.0921
C62 C 1.0798(3) 0.69755(17) 0.2251(3)
Zn1C Zn 1.05869(3) 0.610085(19) 0.07911(4)
Zn2_2 Zn 0.68645(3) 0.41503(2) 0.60682(4)
Zn2B Zn 1.31355(3) 1.58497(2) 0.39318(4)
Zn3_2 Zn 1.34173(4) 0.90883(2) 0.58514(4)
Zn3A Zn 1.65827(4) 1.40883(2) -0.08514(4)
Zn3C Zn 1.34173(4) 1.59117(2) 0.08514(4)
Zn4_2 Zn 0.96660(3) 0.386260(18) 0.62551(3)
Zn4A Zn 1.03340(3) 0.886260(18) -0.12551(3)
Zn4B Zn 1.03340(3) 0.613740(18) 0.37449(3)
O1_2 O 1.80584(19) 1.43083(11) 0.6596(2)
O2_2 O 0.94338(19) 1.46320(11) 0.6577(2)
O3_2 O 0.21929(19) 0.93198(11) 0.5881(2)
O7A O 0.3065(2) 0.88958(14) 0.4264(2)
O8A O 0.4172(2) 0.93890(14) 0.4921(2)
O9C O 0.3969(3) 0.94316(16) 0.6972(3)
O10B O 1.5795(2) 1.44725(13) 0.6557(2)
O11A O 0.9245(2) 1.34522(12) 0.5170(2)
O15B O 0.9565(2) 1.32422(12) 0.7092(2)
O16C O 1.10586(19) 0.82785(11) 0.6584(2)
O17 O 0.9547(2) 0.75377(15) 0.4814(3)
H35 H 0.987(3) 0.7833(15) 0.472(4)
H36 H 0.988(3) 0.7237(15) 0.485(4)
loop_
_geom_bond_atom_site_label_1
_geom_bond_atom_site_label_2
_geom_bond_site_symmetry_1
_geom_bond_site_symmetry_2
Zn1 N1 1_555 1_555
Zn2 N6 1_555 1_555
Zn3 N3 1_555 1_555
Zn4 N4 1_555 1_555
N1 C1 1_555 1_555
N2 C6 1_555 1_555
N3 C11 1_555 1_555
N4 C23 1_555 1_555
N5 C28 1_555 1_555
N6 C33 1_555 1_555
O1 C22 1_555 1_555
O2 C22 1_555 1_555
O3 C44 1_555 1_555
O4 Zn1 1_555 1_555
O5 Zn2 1_555 1_555
O6 C45 1_555 1_555
O7 C49 1_555 1_555
O8 C49 1_555 1_555
O9 C53 1_555 1_555
O10 C53 1_555 1_555
O11 C54 1_555 1_555
O12 C54 1_555 1_555
O13 C58 1_555 1_555
O14 Zn1 1_555 1_555
O15 C62 1_555 1_555
O16 C62 1_555 1_555
C1 H1 1_555 1_555
C2 C1 1_555 1_555
H2 C2 1_555 1_555
C3 C2 1_555 1_555
H3 C3 1_555 1_555
C4 C3 1_555 1_555
C5 N1 1_555 1_555
H4 C5 1_555 1_555
C6 C4 1_555 1_555
C7 C6 1_555 1_555
H5 C7 1_555 1_555
C8 C7 1_555 1_555
C9 C8 1_555 1_555
H6 C9 1_555 1_555
C10 N2 1_555 1_555
C11 H7 1_555 1_555
C12 C10 1_555 1_555
C13 C12 1_555 1_555
H8 C13 1_555 1_555
C14 C13 1_555 1_555
H9 C14 1_555 1_555
C15 N3 1_555 1_555
H10 C15 1_555 1_555
C16 C8 1_555 1_555
C17 C16 1_555 1_555
H11 C17 1_555 1_555
C18 C17 1_555 1_555
H12 C18 1_555 1_555
C19 C18 1_555 1_555
C20 C19 1_555 1_555
H13 C20 1_555 1_555
C21 C16 1_555 1_555
H14 C21 1_555 1_555
C22 C19 1_555 1_555
C23 H15 1_555 1_555
C24 C23 1_555 1_555
H16 C24 1_555 1_555
C25 C24 1_555 1_555
H17 C25 1_555 1_555
C26 C25 1_555 1_555
C27 N4 1_555 1_555
H18 C27 1_555 1_555
C28 C26 1_555 1_555
C29 C28 1_555 1_555
H19 C29 1_555 1_555
C30 C29 1_555 1_555
C31 C30 1_555 1_555
H20 C31 1_555 1_555
C32 N5 1_555 1_555
C33 H21 1_555 1_555
C34 C32 1_555 1_555
C35 C34 1_555 1_555
H22 C35 1_555 1_555
C36 C35 1_555 1_555
H23 C36 1_555 1_555
C37 N6 1_555 1_555
H24 C37 1_555 1_555
C38 C30 1_555 1_555
C39 C38 1_555 1_555
H25 C39 1_555 1_555
C40 C39 1_555 1_555
H26 C40 1_555 1_555
C41 C40 1_555 1_555
C42 C41 1_555 1_555
H27 C42 1_555 1_555
C43 C38 1_555 1_555
H28 C43 1_555 1_555
C44 O4 1_555 1_555
C45 O5 1_555 1_555
C46 C45 1_555 1_555
C47 C46 1_555 1_555
H29 C47 1_555 1_555
C48 C47 1_555 1_555
C49 C48 1_555 1_555
C50 C48 1_555 1_555
H30 C50 1_555 1_555
C51 C50 1_555 1_555
C52 C46 1_555 1_555
H31 C52 1_555 1_555
C53 C51 1_555 1_555
C54 C55 1_555 1_555
C55 C56 1_555 1_555
C56 H32 1_555 1_555
C57 C56 1_555 1_555
C58 O14 1_555 1_555
C59 C57 1_555 1_555
H33 C59 1_555 1_555
C60 C59 1_555 1_555
C61 C55 1_555 1_555
H34 C61 1_555 1_555
C62 C60 1_555 1_555
O17 H35 1_555 1_555
H36 O17 1_555 1_555
Zn1C O16 1_555 1_555
Zn2_2 O1 1_555 1_555
Zn2B O10 1_555 1_555
Zn3_2 O3 1_555 1_555
Zn3A O7 1_555 1_555
Zn3C O9 1_555 1_555
Zn4_2 O2 1_555 1_555
Zn4A O11 1_555 1_555
Zn4B O15 1_555 1_555
O1_2 Zn2 1_555 1_555
O2_2 Zn4 1_555 1_555
O3_2 Zn3 1_555 1_555
O7A Zn3 1_555 1_555
O8A Zn3 1_555 1_555
O9C Zn3 1_555 1_555
O10B Zn2 1_555 1_555
O11A Zn4 1_555 1_555
O15B Zn4 1_555 1_555
O16C Zn1 1_555 1_555
O8 Zn3A 1_555 1_555
C4 C5 1_555 1_555
C9 C10 1_555 1_555
C11 C12 1_555 1_555
C14 C15 1_555 1_555
C20 C21 1_555 1_555
C26 C27 1_555 1_555
C31 C32 1_555 1_555
C33 C34 1_555 1_555
C36 C37 1_555 1_555
C41 C44 1_555 1_555
C42 C43 1_555 1_555
C51 C52 1_555 1_555
C57 C58 1_555 1_555
C60 C61 1_555 1_555

#END
