
#######################################################################
#
#                 Cambridge Crystallographic Data Centre
#                                CCDC 
#
#######################################################################
#
# If this CIF has been generated from an entry in the Cambridge 
# Structural Database, then it will include bibliographic, chemical, 
# crystal, experimental, refinement or atomic coordinate data resulting 
# from the CCDC's data processing and validation procedures.
#
#######################################################################

data_FEJKAI
_symmetry_cell_setting           monoclinic
_symmetry_space_group_name_H-M   'C 2/c'
_symmetry_Int_Tables_number      15
_space_group_name_Hall           '-C 2yn'
loop_
_symmetry_equiv_pos_site_id
_symmetry_equiv_pos_as_xyz
1 x,y,z
2 -x,y,1/2-z
3 1/2+x,1/2+y,z
4 1/2-x,1/2+y,1/2-z
5 -x,-y,-z
6 x,-y,1/2+z
7 1/2-x,1/2-y,-z
8 1/2+x,1/2-y,1/2+z
_cell_length_a                   10.9384(3)
_cell_length_b                   14.2346(4)
_cell_length_c                   14.5404(5)
_cell_angle_alpha                90
_cell_angle_beta                 104.579(3)
_cell_angle_gamma                90
_cell_volume                     2191.1
loop_
_atom_site_label
_atom_site_type_symbol
_atom_site_fract_x
_atom_site_fract_y
_atom_site_fract_z
Hg1 Hg 0.5000 -0.037477(13) 0.7500
Mn1 Mn 0.2500 -0.2500 1.0000
N1 N 0.3793(2) -0.36295(19) 1.0669(2)
N2 N 0.4507(3) -0.5052(2) 1.1056(2)
C1 C 0.5016(3) -0.3582(3) 1.1217(3)
H1 H 0.5469 -0.3031 1.1395
C2 C 0.5453(4) -0.4446(3) 1.1456(3)
H2 H 0.6251 -0.4604 1.1825
C3 C 0.3532(3) -0.4531(2) 1.0595(3)
H3 H 0.2760 -0.4776 1.0262
C4 C 0.4507(4) -0.6086(3) 1.1113(3)
H4 H 0.4330 -0.6276 1.1701
H5 H 0.5320 -0.6322 1.1087
H6 H 0.3871 -0.6335 1.0590
C5 C 0.4968(3) -0.1548(2) 0.9347(2)
C6 C 0.3139(3) 0.1333(2) 0.7090(2)
N3 N 0.4136(3) -0.1740(2) 0.9643(2)
N4 N 0.2869(3) 0.1754(2) 0.6396(2)
S1 S 0.62008(8) -0.13023(9) 0.89233(9)
S2 S 0.34996(9) 0.07162(8) 0.80803(6)
Mn1C Mn 0.2500 0.2500 0.5000
Mn1A Mn 0.7500 -0.2500 0.5000
Mn1B Mn 0.7500 0.2500 1.0000
N1F N 0.1207(2) -0.13705(19) 0.9331(2)
N2F N 0.0493(3) 0.0052(2) 0.8944(2)
C1F C -0.0016(3) -0.1418(3) 0.8783(3)
H1F H -0.0469 -0.1969 0.8605
C2F C -0.0453(4) -0.0554(3) 0.8544(3)
H2F H -0.1251 -0.0396 0.8175
C3F C 0.1468(3) -0.0469(2) 0.9405(3)
H3F H 0.2240 -0.0224 0.9738
C4F C 0.0493(4) 0.1086(3) 0.8887(3)
H4F H 0.0670 0.1276 0.8299
H5F H -0.0320 0.1322 0.8913
H6F H 0.1129 0.1335 0.9410
C5A C 0.5032(3) -0.1548(2) 0.5653(2)
C6A C 0.6861(3) 0.1333(2) 0.7910(2)
N3A N 0.5864(3) -0.1740(2) 0.5357(2)
N3F N 0.0864(3) -0.3260(2) 1.0357(2)
N4A N 0.7131(3) 0.1754(2) 0.8604(2)
N4C N 0.2131(3) -0.3246(2) 0.8604(2)
N4E N 0.2869(3) -0.1754(2) 1.1396(2)
S1A S 0.37992(8) -0.13023(9) 0.60767(9)
S2A S 0.65004(9) 0.07162(8) 0.69197(6)
loop_
_geom_bond_atom_site_label_1
_geom_bond_atom_site_label_2
_geom_bond_site_symmetry_1
_geom_bond_site_symmetry_2
Hg1 S1 1_555 1_555
Mn1 N1 1_555 1_555
N1 C1 1_555 1_555
N2 C2 1_555 1_555
C1 H1 1_555 1_555
C2 C1 1_555 1_555
H2 C2 1_555 1_555
C3 N1 1_555 1_555
H3 C3 1_555 1_555
C4 N2 1_555 1_555
H4 C4 1_555 1_555
H5 C4 1_555 1_555
H6 C4 1_555 1_555
C5 N3 1_555 1_555
C6 N4 1_555 1_555
N3 Mn1 1_555 1_555
N4 Mn1C 1_555 1_555
S1 C5 1_555 1_555
S2 Hg1 1_555 1_555
Mn1A N3A 1_555 1_555
Mn1B N4A 1_555 1_555
N1F Mn1 1_555 1_555
N2F C2F 1_555 1_555
C1F N1F 1_555 1_555
H1F C1F 1_555 1_555
C2F C1F 1_555 1_555
H2F C2F 1_555 1_555
C3F N1F 1_555 1_555
H3F C3F 1_555 1_555
C4F N2F 1_555 1_555
H4F C4F 1_555 1_555
H5F C4F 1_555 1_555
H6F C4F 1_555 1_555
C5A N3A 1_555 1_555
C6A N4A 1_555 1_555
N3F Mn1 1_555 1_555
N4C Mn1 1_555 1_555
N4E Mn1 1_555 1_555
S1A Hg1 1_555 1_555
S2A Hg1 1_555 1_555
N2 C3 1_555 1_555
C6 S2 1_555 1_555
N2F C3F 1_555 1_555
C5A S1A 1_555 1_555
C6A S2A 1_555 1_555

#END
