
#######################################################################
#
#                 Cambridge Crystallographic Data Centre
#                                CCDC 
#
#######################################################################
#
# If this CIF has been generated from an entry in the Cambridge 
# Structural Database, then it will include bibliographic, chemical, 
# crystal, experimental, refinement or atomic coordinate data resulting 
# from the CCDC's data processing and validation procedures.
#
#######################################################################

data_FEJLUD
_symmetry_cell_setting           triclinic
_symmetry_space_group_name_H-M   'P -1'
_symmetry_Int_Tables_number      2
_space_group_name_Hall           '-P 1'
loop_
_symmetry_equiv_pos_site_id
_symmetry_equiv_pos_as_xyz
1 x,y,z
2 -x,-y,-z
_cell_length_a                   6.8370(7)
_cell_length_b                   10.7790(11)
_cell_length_c                   10.9450(10)
_cell_angle_alpha                81.035(10)
_cell_angle_beta                 78.055(11)
_cell_angle_gamma                76.636(16)
_cell_volume                     762.811
loop_
_atom_site_label
_atom_site_type_symbol
_atom_site_fract_x
_atom_site_fract_y
_atom_site_fract_z
Cu1 Cu 0.34643(17) 0.25668(10) 0.69043(11)
N1 N 0.1048(11) 0.3616(6) 0.7838(7)
N2 N 0.4517(12) 0.4164(6) 0.6743(6)
O1 O 0.2299(8) 0.1062(5) 0.7021(6)
O2 O 0.0928(9) 0.2268(6) 0.5467(5)
O3 O -0.4120(9) 0.1662(5) 0.5867(6)
O4 O -0.2916(9) 0.0885(5) 0.7611(7)
C1 C -0.0652(15) 0.3220(9) 0.8447(9)
H1 H -0.0731 0.2353 0.8438
C2 C -0.2280(15) 0.4014(10) 0.9080(9)
H2 H -0.3472 0.3708 0.9494
C3 C -0.2148(16) 0.5261(10) 0.9099(9)
H3 H -0.3248 0.5830 0.9539
C4 C -0.0414(16) 0.5683(9) 0.8480(8)
H4 H -0.0313 0.6549 0.8470
C5 C 0.1163(14) 0.4834(9) 0.7879(8)
C6 C 0.3161(14) 0.5156(9) 0.7229(8)
C7 C 0.3653(16) 0.6335(8) 0.7129(8)
H5 H 0.2692 0.7031 0.7484
C8 C 0.5553(18) 0.6495(9) 0.6508(9)
H6 H 0.5903 0.7312 0.6416
C9 C 0.6940(15) 0.5487(10) 0.6023(9)
H7 H 0.8272 0.5584 0.5611
C10 C 0.6364(16) 0.4316(8) 0.6146(8)
H8 H 0.7305 0.3609 0.5797
C11 C -0.1275(12) -0.0066(8) 0.5787(8)
H9 H -0.1446 -0.0944 0.6186
C12 C -0.2898(14) 0.0913(8) 0.6461(11)
C13 C 0.1428(13) 0.1212(8) 0.6076(9)
C14 C 0.1044(12) 0.0020(7) 0.5642(8)
H10 H 0.1871 -0.0788 0.6013
Cu1A Cu -0.34643(17) -0.25668(10) 0.30957(11)
Cu1_2 Cu -0.65357(17) 0.25668(10) 0.69043(11)
Cu1A_2 Cu 0.65357(17) -0.25668(10) 0.30957(11)
N1A N -0.1048(11) -0.3616(6) 0.2162(7)
N2A N -0.4517(12) -0.4164(6) 0.3257(6)
O1A O -0.2299(8) -0.1062(5) 0.2979(6)
O2A O -0.0928(9) -0.2268(6) 0.4533(5)
O3A O 0.4120(9) -0.1662(5) 0.4133(6)
O3_2 O 0.5880(9) 0.1662(5) 0.5867(6)
O3A_2 O -0.5880(9) -0.1662(5) 0.4133(6)
O4A O 0.2916(9) -0.0885(5) 0.2389(7)
C1A C 0.0652(15) -0.3220(9) 0.1553(9)
H1A H 0.0731 -0.2353 0.1562
C2A C 0.2280(15) -0.4014(10) 0.0920(9)
H2A H 0.3472 -0.3708 0.0506
C3A C 0.2148(16) -0.5261(10) 0.0901(9)
H3A H 0.3248 -0.5830 0.0461
C4A C 0.0414(16) -0.5683(9) 0.1520(8)
H4A H 0.0313 -0.6549 0.1530
C5A C -0.1163(14) -0.4834(9) 0.2121(8)
C6A C -0.3161(14) -0.5156(9) 0.2771(8)
C7A C -0.3653(16) -0.6335(8) 0.2871(8)
H5A H -0.2692 -0.7031 0.2516
C8A C -0.5553(18) -0.6495(9) 0.3492(9)
H6A H -0.5903 -0.7312 0.3584
C9A C -0.6940(15) -0.5487(10) 0.3977(9)
H7A H -0.8272 -0.5584 0.4389
C10A C -0.6364(16) -0.4316(8) 0.3854(8)
H8A H -0.7305 -0.3609 0.4203
C11A C 0.1275(12) 0.0066(8) 0.4213(8)
H9A H 0.1446 0.0944 0.3814
C12A C 0.2898(14) -0.0913(8) 0.3539(11)
C13A C -0.1428(13) -0.1212(8) 0.3924(9)
C14A C -0.1044(12) -0.0020(7) 0.4358(8)
H10A H -0.1871 0.0788 0.3987
O5 O 0.4365(12) 0.1999(6) 0.9515(8)
H11 H 0.518(15) 0.149(9) 0.903(9)
H12 H 0.344(14) 0.157(11) 0.977(11)
O6 O 0.3070(12) -0.1246(6) 0.8598(8)
H13 H 0.277(19) -0.051(6) 0.817(11)
H14 H 0.431(8) -0.140(11) 0.871(13)
O7 O 0.1002(13) 0.1230(7) 1.0966(8)
H15 H 0.160(18) 0.067(9) 1.147(10)
H16 H 0.006(16) 0.093(12) 1.078(13)
loop_
_geom_bond_atom_site_label_1
_geom_bond_atom_site_label_2
_geom_bond_site_symmetry_1
_geom_bond_site_symmetry_2
Cu1 N1 1_555 1_555
N1 C1 1_555 1_555
N2 Cu1 1_555 1_555
O1 Cu1 1_555 1_555
O2 C13 1_555 1_555
O3 C12 1_555 1_555
O4 C12 1_555 1_555
C1 H1 1_555 1_555
C2 C1 1_555 1_555
H2 C2 1_555 1_555
C3 C2 1_555 1_555
H3 C3 1_555 1_555
C4 C3 1_555 1_555
H4 C4 1_555 1_555
C5 N1 1_555 1_555
C6 N2 1_555 1_555
C7 C6 1_555 1_555
H5 C7 1_555 1_555
C8 C7 1_555 1_555
H6 C8 1_555 1_555
C9 C8 1_555 1_555
H7 C9 1_555 1_555
C10 N2 1_555 1_555
H8 C10 1_555 1_555
C11 H9 1_555 1_555
C12 C11 1_555 1_555
C13 O1 1_555 1_555
C14 C11 1_555 1_555
H10 C14 1_555 1_555
O5 H11 1_555 1_555
H12 O5 1_555 1_555
O6 H13 1_555 1_555
H14 O6 1_555 1_555
O7 H15 1_555 1_555
H16 O7 1_555 1_555
Cu1A N1A 1_555 1_555
Cu1_2 O3 1_555 1_555
Cu1A_2 O3A 1_555 1_555
N1A C1A 1_555 1_555
N2A Cu1A 1_555 1_555
O1A Cu1A 1_555 1_555
O2A C13A 1_555 1_555
O3A C12A 1_555 1_555
O3_2 Cu1 1_555 1_555
O3A_2 Cu1A 1_555 1_555
O4A C12A 1_555 1_555
C1A H1A 1_555 1_555
C2A C1A 1_555 1_555
H2A C2A 1_555 1_555
C3A C2A 1_555 1_555
H3A C3A 1_555 1_555
C4A C3A 1_555 1_555
H4A C4A 1_555 1_555
C5A N1A 1_555 1_555
C6A N2A 1_555 1_555
C7A C6A 1_555 1_555
H5A C7A 1_555 1_555
C8A C7A 1_555 1_555
H6A C8A 1_555 1_555
C9A C8A 1_555 1_555
H7A C9A 1_555 1_555
C10A N2A 1_555 1_555
H8A C10A 1_555 1_555
C11A C14 1_555 1_555
H9A C11A 1_555 1_555
C12A C11A 1_555 1_555
C13A O1A 1_555 1_555
C14A C11 1_555 1_555
H10A C14A 1_555 1_555
C4 C5 1_555 1_555
C5 C6 1_555 1_555
C9 C10 1_555 1_555
C13 C14 1_555 1_555
C4A C5A 1_555 1_555
C5A C6A 1_555 1_555
C9A C10A 1_555 1_555
C11A C14A 1_555 1_555
C13A C14A 1_555 1_555

#END
