
#######################################################################
#
#                 Cambridge Crystallographic Data Centre
#                                CCDC 
#
#######################################################################
#
# If this CIF has been generated from an entry in the Cambridge 
# Structural Database, then it will include bibliographic, chemical, 
# crystal, experimental, refinement or atomic coordinate data resulting 
# from the CCDC's data processing and validation procedures.
#
#######################################################################

data_FEJMAK
_symmetry_cell_setting           orthorhombic
_symmetry_space_group_name_H-M   'P n a 21'
_symmetry_Int_Tables_number      33
_space_group_name_Hall           'P 2c -2n'
loop_
_symmetry_equiv_pos_site_id
_symmetry_equiv_pos_as_xyz
1 x,y,z
2 -x,-y,1/2+z
3 1/2+x,1/2-y,z
4 1/2-x,1/2+y,1/2+z
_cell_length_a                   9.6060(19)
_cell_length_b                   14.821(3)
_cell_length_c                   7.7370(15)
_cell_angle_alpha                90
_cell_angle_beta                 90
_cell_angle_gamma                90
_cell_volume                     1101.52
loop_
_atom_site_label
_atom_site_type_symbol
_atom_site_fract_x
_atom_site_fract_y
_atom_site_fract_z
Ni1 Ni 0.417855(8) 0.174551(5) 0.939258(15)
O1 O 0.22604(4) 0.22996(2) 0.91507(7)
O2 O 0.47100(4) -0.04792(2) 0.91817(7)
O3 O -0.00037(4) 0.19732(2) 0.94008(8)
O4 O 0.03038(5) -0.14764(3) 0.82981(7)
O5 O -0.15891(4) -0.01140(3) 0.96947(9)
O6 O -0.13062(5) 0.06669(4) 0.73723(7)
O7 O 0.60148(4) 0.11275(3) 0.98589(7)
O8 O 0.39145(5) 0.18065(3) 1.20610(6)
O9 O 0.44600(5) 0.17748(4) 0.66666(6)
N1 N 0.29895(5) 0.05944(3) 0.91463(8)
N2 N -0.08619(6) 0.02414(4) 0.85967(7)
N3 N 0.24853(6) -0.09426(3) 0.87510(7)
C1 C 0.34547(7) -0.02683(4) 0.90357(8)
C2 C 0.10720(7) -0.08270(5) 0.85807(8)
C3 C 0.06510(6) 0.00969(4) 0.87377(7)
C4 C 0.15986(6) 0.07596(4) 0.90036(8)
C5 C 0.12420(5) 0.17687(4) 0.92096(10)
H1 H 0.2855(7) -0.1516(4) 0.8788(8)
H2 H 0.6096(6) 0.0631(4) 0.9591(12)
H3 H 0.6670(6) 0.1450(4) 0.9822(10)
H4 H 0.4306(8) 0.1431(5) 1.2615(11)
H5 H 0.4136(8) 0.2259(5) 1.2479(9)
H6 H 0.4563(7) 0.1283(5) 0.5991(9)
H7 H 0.5106(10) 0.2217(6) 0.6332(11)
Ni1B Ni -0.082145(8) 0.325449(5) 0.939258(15)
O3B O 0.49963(4) 0.30268(2) 0.94008(8)
O10 O 0.67069(5) 0.26609(3) 0.51665(6)
H8 H 0.6405(6) 0.3067(4) 0.4750(9)
H9 H 0.7380(7) 0.2881(5) 0.5688(10)
loop_
_geom_bond_atom_site_label_1
_geom_bond_atom_site_label_2
_geom_bond_site_symmetry_1
_geom_bond_site_symmetry_2
Ni1 O1 1_555 1_555
O1 C5 1_555 1_555
O2 C1 1_555 1_555
O3 C5 1_555 1_555
O4 C2 1_555 1_555
O5 N2 1_555 1_555
O6 N2 1_555 1_555
O7 Ni1 1_555 1_555
O8 Ni1 1_555 1_555
O9 Ni1 1_555 1_555
O10 H8 1_555 1_555
N1 Ni1 1_555 1_555
N2 C3 1_555 1_555
N3 C1 1_555 1_555
C1 N1 1_555 1_555
C2 N3 1_555 1_555
C3 C2 1_555 1_555
C4 N1 1_555 1_555
C5 C4 1_555 1_555
H1 N3 1_555 1_555
H2 O7 1_555 1_555
H3 O7 1_555 1_555
H4 O8 1_555 1_555
H5 O8 1_555 1_555
H6 O9 1_555 1_555
H7 O9 1_555 1_555
H9 O10 1_555 1_555
Ni1B O3 1_555 1_555
O3B Ni1 1_555 1_555
C3 C4 1_555 1_555

#END
