
#######################################################################
#
#                 Cambridge Crystallographic Data Centre
#                                CCDC 
#
#######################################################################
#
# If this CIF has been generated from an entry in the Cambridge 
# Structural Database, then it will include bibliographic, chemical, 
# crystal, experimental, refinement or atomic coordinate data resulting 
# from the CCDC's data processing and validation procedures.
#
#######################################################################

data_FEJMOX
_symmetry_cell_setting           orthorhombic
_symmetry_space_group_name_H-M   'P b c a'
_symmetry_Int_Tables_number      61
_space_group_name_Hall           '-P 2ac 2ab'
loop_
_symmetry_equiv_pos_site_id
_symmetry_equiv_pos_as_xyz
1 x,y,z
2 1/2-x,-y,1/2+z
3 -x,1/2+y,1/2-z
4 1/2+x,1/2-y,-z
5 -x,-y,-z
6 1/2+x,y,1/2-z
7 x,1/2-y,1/2+z
8 1/2-x,1/2+y,z
_cell_length_a                   24.99900(10)
_cell_length_b                   6.43400(10)
_cell_length_c                   25.4830(2)
_cell_angle_alpha                90
_cell_angle_beta                 90
_cell_angle_gamma                90
_cell_volume                     4098.78
loop_
_atom_site_label
_atom_site_type_symbol
_atom_site_fract_x
_atom_site_fract_y
_atom_site_fract_z
Na1 Na -0.41500(3) -0.31797(10) 0.05279(2)
Na2 Na -0.52026(3) -0.22069(10) 0.13045(2)
Na3 Na -0.57335(3) -0.79094(10) 0.14121(3)
Na4 Na -0.70999(3) -0.66607(10) 0.13756(2)
Cl1 Cl -0.310340(14) -0.26920(6) 0.121680(14)
P1 P -0.116560(15) -0.24211(6) 0.222030(14)
P2 P -0.125000(14) -0.31604(6) 0.005570(14)
O1 O -0.15404(4) -0.17921(18) 0.26666(4)
C1 C -0.15644(6) -0.2566(2) 0.16266(6)
O2 O -0.07325(4) -0.07979(18) 0.21211(4)
C2 C -0.13103(6) -0.2759(2) 0.11407(6)
H1 H -0.0925(8) -0.280(3) 0.1109(8)
O3 O -0.09257(4) -0.45924(18) 0.22913(4)
C3 C -0.16025(6) -0.2933(2) 0.06754(6)
C4 C -0.21600(6) -0.2902(2) 0.06963(6)
H2 H -0.2358(8) -0.303(3) 0.0380(8)
C5 C -0.24102(6) -0.2714(2) 0.11809(6)
C6 C -0.21212(6) -0.2548(2) 0.16442(6)
H3 H -0.2310(9) -0.240(3) 0.1995(9)
O4 O -0.08281(4) -0.48687(17) 0.01312(4)
O5 O -0.09963(4) -0.10288(17) -0.00386(4)
O6 O -0.16601(4) -0.37432(18) -0.03629(4)
O7 O -0.42554(4) -0.25610(19) 0.14399(5)
H4 H -0.4166(10) -0.159(4) 0.1652(10)
H5 H -0.4234(11) -0.355(4) 0.1676(11)
O8 O -0.50585(5) -0.4347(2) 0.05766(4)
H6 H -0.5063(10) -0.567(5) 0.0602(10)
H7 H -0.5325(11) -0.418(4) 0.0379(11)
O9 O -0.53177(5) -0.51123(18) 0.18097(4)
H8 H -0.5005(10) -0.559(4) 0.1917(10)
H9 H -0.5485(10) -0.497(4) 0.2083(10)
O10 O -0.51278(5) 0.09379(19) 0.06706(4)
H10 H -0.5336(11) 0.056(4) 0.0428(11)
H11 H -0.4841(11) 0.082(4) 0.0517(10)
O11 O -0.51735(5) -0.97982(18) 0.19804(4)
H12 H -0.4862(11) -0.953(4) 0.2080(10)
H13 H -0.5325(10) -1.008(4) 0.2241(10)
O12 O -0.61144(5) -1.1358(2) 0.13157(5)
H14 H -0.6267(12) -1.157(5) 0.1575(14)
H15 H -0.6335(11) -1.148(4) 0.1075(11)
O13 O -0.63510(5) -0.6950(2) 0.07596(5)
H16 H -0.6299(11) -0.606(5) 0.0553(11)
H17 H -0.6436(11) -0.806(4) 0.0566(11)
O14 O -0.64349(5) -0.7524(2) 0.20528(5)
H18 H -0.6318(10) -0.674(4) 0.2310(11)
H19 H -0.6440(11) -0.860(5) 0.2186(11)
O15 O -0.74511(5) -0.4034(2) 0.07664(4)
H20 H -0.7223(11) -0.333(4) 0.0593(10)
H21 H -0.7652(12) -0.458(5) 0.0557(12)
O16 O -0.73761(5) -0.3936(2) 0.19480(5)
H22 H -0.7089(12) -0.321(5) 0.2112(11)
H23 H -0.7580(13) -0.443(5) 0.2133(12)
Na1G Na -0.08500(3) -0.81797(10) 0.05279(2)
Na1G_2 Na -0.08500(3) 0.18203(10) 0.05279(2)
Na2_2 Na -0.52026(3) -1.22069(10) 0.13045(2)
Na3_2 Na -0.57335(3) 0.20906(10) 0.14121(3)
Na4G Na -0.79001(3) -0.16607(10) 0.13756(2)
O4G O -0.41719(4) 0.01313(17) 0.01312(4)
O5G O -0.40037(4) -0.60288(17) -0.00386(4)
O11_2 O -0.51735(5) 0.02018(18) 0.19804(4)
H12_2 H -0.4862(11) 0.047(4) 0.2080(10)
H13_2 H -0.5325(10) -0.008(4) 0.2241(10)
O12_2 O -0.61144(5) -0.1358(2) 0.13157(5)
H14_2 H -0.6267(12) -0.157(5) 0.1575(14)
H15_2 H -0.6335(11) -0.148(4) 0.1075(11)
O15G O -0.75489(5) -0.9034(2) 0.07664(4)
H20G H -0.7777(11) -0.833(4) 0.0593(10)
H21G H -0.7348(12) -0.958(5) 0.0557(12)
O16G O -0.76239(5) -0.8936(2) 0.19480(5)
H22G H -0.7911(12) -0.821(5) 0.2112(11)
H23G H -0.7420(13) -0.943(5) 0.2133(12)
loop_
_geom_bond_atom_site_label_1
_geom_bond_atom_site_label_2
_geom_bond_site_symmetry_1
_geom_bond_site_symmetry_2
Na1 Cl1 1_555 1_555
Na2 O7 1_555 1_555
Na3 O9 1_555 1_555
Na4 O13 1_555 1_555
Cl1 C5 1_555 1_555
P1 O1 1_555 1_555
P2 C3 1_555 1_555
C1 P1 1_555 1_555
O2 P1 1_555 1_555
C2 C1 1_555 1_555
H1 C2 1_555 1_555
O3 P1 1_555 1_555
C3 C2 1_555 1_555
C4 C3 1_555 1_555
H2 C4 1_555 1_555
C5 C4 1_555 1_555
C6 C1 1_555 1_555
H3 C6 1_555 1_555
O4 P2 1_555 1_555
O5 P2 1_555 1_555
O6 P2 1_555 1_555
O7 Na1 1_555 1_555
H4 O7 1_555 1_555
H5 O7 1_555 1_555
O8 Na1 1_555 1_555
H6 O8 1_555 1_555
H7 O8 1_555 1_555
O9 Na2 1_555 1_555
H8 O9 1_555 1_555
H9 O9 1_555 1_555
O10 Na2 1_555 1_555
H10 O10 1_555 1_555
H11 O10 1_555 1_555
O11 Na3 1_555 1_555
H12 O11 1_555 1_555
H13 O11 1_555 1_555
O12 Na3 1_555 1_555
H14 O12 1_555 1_555
H15 O12 1_555 1_555
O13 Na3 1_555 1_555
H16 O13 1_555 1_555
H17 O13 1_555 1_555
O14 Na3 1_555 1_555
H18 O14 1_555 1_555
H19 O14 1_555 1_555
O15 Na4 1_555 1_555
H20 O15 1_555 1_555
H21 O15 1_555 1_555
O16 Na4 1_555 1_555
H22 O16 1_555 1_555
H23 O16 1_555 1_555
Na1G O4 1_555 1_555
Na1G_2 O5 1_555 1_555
Na2_2 O11 1_555 1_555
Na3_2 O11_2 1_555 1_555
Na4G O15 1_555 1_555
O4G Na1 1_555 1_555
O5G Na1 1_555 1_555
O11_2 Na2 1_555 1_555
H12_2 O11_2 1_555 1_555
H13_2 O11_2 1_555 1_555
O12_2 Na2 1_555 1_555
H14_2 O12_2 1_555 1_555
H15_2 O12_2 1_555 1_555
O15G Na4 1_555 1_555
H20G O15G 1_555 1_555
H21G O15G 1_555 1_555
O16G Na4 1_555 1_555
H22G O16G 1_555 1_555
H23G O16G 1_555 1_555
Na2 O8 1_555 1_555
Na4 O14 1_555 1_555
C5 C6 1_555 1_555
O12 Na2_2 1_555 1_555
O16 Na4G 1_555 1_555
Na3_2 O12_2 1_555 1_555

#END
