
#######################################################################
#
#                 Cambridge Crystallographic Data Centre
#                                CCDC 
#
#######################################################################
#
# If this CIF has been generated from an entry in the Cambridge 
# Structural Database, then it will include bibliographic, chemical, 
# crystal, experimental, refinement or atomic coordinate data resulting 
# from the CCDC's data processing and validation procedures.
#
#######################################################################

data_FEJSUI
_symmetry_cell_setting           triclinic
_symmetry_space_group_name_H-M   'P -1'
_symmetry_Int_Tables_number      2
_space_group_name_Hall           '-P 1'
loop_
_symmetry_equiv_pos_site_id
_symmetry_equiv_pos_as_xyz
1 x,y,z
2 -x,-y,-z
_cell_length_a                   12.370(2)
_cell_length_b                   13.900(3)
_cell_length_c                   14.340(3)
_cell_angle_alpha                116.34(3)
_cell_angle_beta                 99.12(3)
_cell_angle_gamma                96.68(3)
_cell_volume                     2132.64
loop_
_atom_site_label
_atom_site_type_symbol
_atom_site_fract_x
_atom_site_fract_y
_atom_site_fract_z
S1 S 0.03527(13) 0.14746(13) 0.45894(12)
O9 O 0.0152(4) 0.1737(4) 0.3687(3)
C18 C -0.0961(6) 0.0780(5) 0.4560(5)
H15 H -0.0898(11) 0.0673(34) 0.5181(19)
H16 H -0.1184(19) 0.0080(17) 0.3926(19)
H17 H -0.1512(10) 0.1211(18) 0.4554(37)
C19 C 0.0460(5) 0.2713(5) 0.5789(5)
H18 H 0.1114(21) 0.3237(14) 0.5909(19)
H19 H 0.0518(38) 0.2560(8) 0.6383(7)
H20 H -0.0194(18) 0.3009(20) 0.5721(14)
S3 S 0.5356(17) -0.5467(20) 0.3594(15)
O10 O 0.5027(3) -0.6261(3) 0.2436(3)
C20 C 0.6504(8) -0.4490(6) 0.3872(7)
C21 C 0.6000(6) -0.6215(6) 0.4241(5)
S6 S 0.1842(2) -0.8347(2) 0.1558(2)
O12 O 0.2512(3) -0.8001(3) 0.0932(3)
C24 C 0.2435(6) -0.7436(6) 0.2930(5)
H27 H 0.3172(17) -0.7545(29) 0.3126(11)
H28 H 0.1973(23) -0.7575(28) 0.3353(6)
H29 H 0.2482(39) -0.6693(6) 0.3054(9)
C27 C 0.0687(23) -0.7508(22) 0.1632(24)
C29 C -0.0918(18) -1.4756(34) -0.4582(22)
C30 C 0.0128(18) -1.4471(14) -0.3602(15)
C31 C 0.1117(8) -1.4684(9) -0.3940(8)
O14 O -0.0480(10) -1.5499(9) -0.5473(9)
O14A O 0.0480(10) -1.4501(9) -0.4527(9)
C29A C 0.0918(18) -1.5244(34) -0.5418(22)
C30A C -0.0128(18) -1.5529(14) -0.6398(15)
C31A C -0.1117(8) -1.5316(9) -0.6060(8)
O1 O 0.2369(3) -0.2888(3) 0.4645(3)
O2 O 0.2611(3) -0.4735(3) 0.3011(3)
O3 O 0.1230(2) -0.3745(3) 0.2377(2)
O4 O 0.2556(3) -0.1865(3) 0.3385(3)
O5 O 0.3553(2) -0.3557(3) 0.2120(2)
O6 O 0.4325(3) -0.2651(3) 0.4148(2)
O7 O 0.5458(3) -0.2991(3) 0.0148(3)
O8 O -0.1798(3) -0.4293(3) 0.0180(3)
N1 N 0.3878(3) -0.3967(3) 0.0173(3)
H1 H 0.3551(3) -0.4201(3) 0.0542(3)
N2 N -0.0752(3) -0.5028(3) 0.1026(3)
H2 H -0.0174(3) -0.4907(3) 0.1516(3)
C1 C 0.0871(4) -0.2949(4) 0.2186(3)
C2 C 0.1608(4) -0.1899(4) 0.2762(4)
C3 C 0.1316(5) -0.1003(4) 0.2671(5)
H3 H 0.1784(5) -0.0310(4) 0.3062(5)
C4 C 0.0295(5) -0.1171(5) 0.1974(5)
H4 H 0.0092(5) -0.0582(5) 0.1896(5)
C5 C -0.0408(4) -0.2184(5) 0.1406(4)
H5 H -0.1078(4) -0.2267(5) 0.0952(4)
C6 C -0.0141(4) -0.3107(4) 0.1494(4)
C7 C 0.4619(4) -0.3047(4) 0.2453(4)
C8 C 0.5057(4) -0.2551(4) 0.3577(4)
C9 C 0.6159(4) -0.2016(4) 0.4028(4)
H6 H 0.6433(4) -0.1691(4) 0.4766(4)
C10 C 0.6862(4) -0.1962(4) 0.3380(4)
H7 H 0.7616(4) -0.1630(4) 0.3683(4)
C11 C 0.6448(4) -0.2399(4) 0.2287(4)
H8 H 0.6922(4) -0.2335(4) 0.1866(4)
C12 C 0.5312(4) -0.2943(4) 0.1802(4)
C13 C 0.4890(4) -0.3308(4) 0.0644(4)
C14 C -0.0963(4) -0.4186(4) 0.0843(4)
C15 C 0.3292(4) -0.4317(5) -0.0924(4)
H9 H 0.2968(4) -0.5097(5) -0.1271(4)
H10 H 0.3823(4) -0.4198(5) -0.1312(4)
C16 C 0.2370(5) -0.3696(5) -0.0972(4)
H11 H 0.2036(5) -0.3923(5) -0.1717(4)
H12 H 0.2701(5) -0.2918(5) -0.0630(4)
C17 C -0.1451(4) -0.6129(4) 0.0439(4)
H13 H -0.0983(4) -0.6658(4) 0.0373(4)
H14 H -0.1791(4) -0.6264(4) -0.0278(4)
S5 S 0.58627(13) -0.04083(12) -0.28528(12)
S7 S 0.24265(12) -0.07966(14) -0.12376(12)
O11 O 0.5251(4) -0.1120(3) -0.2494(3)
O13 O 0.3548(3) -0.0565(3) -0.0514(3)
C22 C 0.4873(6) -0.0137(5) -0.3681(5)
H21 H 0.5249(7) 0.0346(32) -0.3898(31)
H22 H 0.4491(29) -0.0813(7) -0.4303(19)
H23 H 0.4341(24) 0.0204(36) -0.3294(14)
C23 C 0.6263(5) 0.0941(5) -0.1747(5)
H24 H 0.6581(32) 0.1443(7) -0.1973(9)
H25 H 0.5617(8) 0.1160(14) -0.1487(21)
H26 H 0.6808(26) 0.0947(9) -0.1187(14)
C25 C 0.2424(6) -0.1889(5) -0.2503(5)
H30 H 0.1726(16) -0.2046(26) -0.2999(11)
H31 H 0.2513(40) -0.2531(12) -0.2430(9)
H32 H 0.3030(24) -0.1682(15) -0.2765(18)
C26 C 0.2481(7) 0.0261(6) -0.1613(5)
H33 H 0.1795(18) 0.0133(25) -0.2111(34)
H34 H 0.3098(27) 0.0267(28) -0.1943(38)
H35 H 0.2581(46) 0.0957(7) -0.0988(8)
Mo1 Mo 0.27193(3) -0.33421(4) 0.34344(3)
K1 K 0.32843(9) -0.59166(9) 0.11817(8)
K2 K 0.53179(9) -0.16168(9) -0.08815(9)
K1A K -0.32843(9) -0.40834(9) -0.11817(8)
O2A O -0.2611(3) -0.5265(3) -0.3011(3)
Mo1A Mo -0.27193(3) -0.66579(4) -0.34344(3)
O1A O -0.2369(3) -0.7112(3) -0.4645(3)
O3A O -0.1230(2) -0.6255(3) -0.2377(2)
C1A C -0.0871(4) -0.7051(4) -0.2186(3)
C2A C -0.1608(4) -0.8101(4) -0.2762(4)
O4A O -0.2556(3) -0.8135(3) -0.3385(3)
O5A O -0.3553(2) -0.6443(3) -0.2120(2)
C7A C -0.4619(4) -0.6953(4) -0.2453(4)
C8A C -0.5057(4) -0.7449(4) -0.3577(4)
O6A O -0.4325(3) -0.7349(3) -0.4148(2)
C9A C -0.6159(4) -0.7984(4) -0.4028(4)
H6A H -0.6433(4) -0.8309(4) -0.4766(4)
C10A C -0.6862(4) -0.8038(4) -0.3380(4)
H7A H -0.7616(4) -0.8370(4) -0.3683(4)
C11A C -0.6448(4) -0.7601(4) -0.2287(4)
H8A H -0.6922(4) -0.7665(4) -0.1866(4)
C12A C -0.5312(4) -0.7057(4) -0.1802(4)
C13A C -0.4890(4) -0.6692(4) -0.0644(4)
O7A O -0.5458(3) -0.7009(3) -0.0148(3)
K1_2 K -0.67157(9) -0.59166(9) 0.11817(8)
O2_2 O -0.7389(3) -0.4735(3) 0.3011(3)
Mo1_2 Mo -0.72807(3) -0.33421(4) 0.34344(3)
O1_2 O -0.7631(3) -0.2888(3) 0.4645(3)
O3_2 O -0.8770(2) -0.3745(3) 0.2377(2)
C1_2 C -0.9129(4) -0.2949(4) 0.2186(3)
C2_2 C -0.8392(4) -0.1899(4) 0.2762(4)
O4_2 O -0.7444(3) -0.1865(3) 0.3385(3)
O5_2 O -0.6447(2) -0.3557(3) 0.2120(2)
C7_2 C -0.5381(4) -0.3047(4) 0.2453(4)
C8_2 C -0.4943(4) -0.2551(4) 0.3577(4)
O6_2 O -0.5675(3) -0.2651(3) 0.4148(2)
C9_2 C -0.3841(4) -0.2016(4) 0.4028(4)
H6_2 H -0.3567(4) -0.1691(4) 0.4766(4)
C10_2 C -0.3138(4) -0.1962(4) 0.3380(4)
H7_2 H -0.2384(4) -0.1630(4) 0.3683(4)
C11_2 C -0.3552(4) -0.2399(4) 0.2287(4)
H8_2 H -0.3078(4) -0.2335(4) 0.1866(4)
C12_2 C -0.4688(4) -0.2943(4) 0.1802(4)
C13_2 C -0.5110(4) -0.3308(4) 0.0644(4)
O7_2 O -0.4542(3) -0.2991(3) 0.0148(3)
O10A O -0.5027(3) -0.3739(3) -0.2436(3)
S3A S -0.5356(17) -0.4533(20) -0.3594(15)
C20A C -0.6504(8) -0.5510(6) -0.3872(7)
C21A C -0.6000(6) -0.3785(6) -0.4241(5)
K2_2 K -0.46821(9) -0.16168(9) -0.08815(9)
O11_2 O -0.4749(4) -0.1120(3) -0.2494(3)
S5_2 S -0.41373(13) -0.04083(12) -0.28528(12)
C22_2 C -0.5127(6) -0.0137(5) -0.3681(5)
H21_2 H -0.4751(7) 0.0346(32) -0.3898(31)
H22_2 H -0.5509(29) -0.0813(7) -0.4303(19)
H23_2 H -0.5659(24) 0.0204(36) -0.3294(14)
C23_2 C -0.3737(5) 0.0941(5) -0.1747(5)
H24_2 H -0.3419(32) 0.1443(7) -0.1973(9)
H25_2 H -0.4383(8) 0.1160(14) -0.1487(21)
H26_2 H -0.3192(26) 0.0947(9) -0.1187(14)
O12A O -0.2512(3) -0.1999(3) -0.0932(3)
S6A S -0.1842(2) -0.1653(2) -0.1558(2)
C24A C -0.2435(6) -0.2564(6) -0.2930(5)
H27A H -0.3172(17) -0.2455(29) -0.3126(11)
H28A H -0.1973(23) -0.2425(28) -0.3353(6)
H29A H -0.2482(39) -0.3307(6) -0.3054(9)
C27A C -0.0687(23) -0.2492(22) -0.1632(24)
O13_2 O -0.6452(3) -0.0565(3) -0.0514(3)
S7_2 S -0.75735(12) -0.07966(14) -0.12376(12)
C25_2 C -0.7576(6) -0.1889(5) -0.2503(5)
H30_2 H -0.8274(16) -0.2046(26) -0.2999(11)
H31_2 H -0.7487(40) -0.2531(12) -0.2430(9)
H32_2 H -0.6970(24) -0.1682(15) -0.2765(18)
C26_2 C -0.7519(7) 0.0261(6) -0.1613(5)
H33_2 H -0.8205(18) 0.0133(25) -0.2111(34)
H34_2 H -0.6902(27) 0.0267(28) -0.1943(38)
H35_2 H -0.7419(46) 0.0957(7) -0.0988(8)
K2A K -0.53179(9) 0.16168(9) 0.08815(9)
O7A_2 O -0.5458(3) 0.2991(3) -0.0148(3)
C13A_2 C -0.4890(4) 0.3308(4) -0.0644(4)
N1A N -0.3878(3) 0.3967(3) -0.0173(3)
H1A H -0.3551(3) 0.4201(3) -0.0542(3)
C15A C -0.3292(4) 0.4317(5) 0.0924(4)
H9A H -0.2968(4) 0.5097(5) 0.1271(4)
H10A H -0.3823(4) 0.4198(5) 0.1312(4)
C16A C -0.2370(5) 0.3696(5) 0.0972(4)
H11A H -0.2036(5) 0.3923(5) 0.1717(4)
H12A H -0.2701(5) 0.2918(5) 0.0630(4)
C17_2 C -0.1451(4) 0.3871(4) 0.0439(4)
N2_2 N -0.0752(3) 0.4972(3) 0.1026(3)
H2_2 H -0.0174(3) 0.5093(3) 0.1516(3)
C14_2 C -0.0963(4) 0.5814(4) 0.0843(4)
O8_2 O -0.1798(3) 0.5707(3) 0.0180(3)
C6_2 C -0.0141(4) 0.6893(4) 0.1494(4)
C1_3 C 0.0871(4) 0.7051(4) 0.2186(3)
O3_3 O 0.1230(2) 0.6255(3) 0.2377(2)
Mo1_3 Mo 0.27193(3) 0.66579(4) 0.34344(3)
O1_3 O 0.2369(3) 0.7112(3) 0.4645(3)
O2_3 O 0.2611(3) 0.5265(3) 0.3011(3)
K1_3 K 0.32843(9) 0.40834(9) 0.11817(8)
O5_3 O 0.3553(2) 0.6443(3) 0.2120(2)
C7_3 C 0.4619(4) 0.6953(4) 0.2453(4)
C8_3 C 0.5057(4) 0.7449(4) 0.3577(4)
O6_3 O 0.4325(3) 0.7349(3) 0.4148(2)
O4_3 O 0.2556(3) 0.8135(3) 0.3385(3)
C2_3 C 0.1608(4) 0.8101(4) 0.2762(4)
C3_2 C 0.1316(5) 0.8997(4) 0.2671(5)
H3_2 H 0.1784(5) 0.9690(4) 0.3062(5)
C4_2 C 0.0295(5) 0.8829(5) 0.1974(5)
H4_2 H 0.0092(5) 0.9418(5) 0.1896(5)
C5_2 C -0.0408(4) 0.7816(5) 0.1406(4)
H5_2 H -0.1078(4) 0.7733(5) 0.0952(4)
C9_3 C 0.6159(4) 0.7984(4) 0.4028(4)
H6_3 H 0.6433(4) 0.8309(4) 0.4766(4)
C10_3 C 0.6862(4) 0.8038(4) 0.3380(4)
H7_3 H 0.7616(4) 0.8370(4) 0.3683(4)
C11_3 C 0.6448(4) 0.7601(4) 0.2287(4)
H8_3 H 0.6922(4) 0.7665(4) 0.1866(4)
C12_3 C 0.5312(4) 0.7057(4) 0.1802(4)
C13_3 C 0.4890(4) 0.6692(4) 0.0644(4)
O7_3 O 0.5458(3) 0.7009(3) 0.0148(3)
N1_2 N 0.3878(3) 0.6033(3) 0.0173(3)
H1_2 H 0.3551(3) 0.5799(3) 0.0542(3)
C15_2 C 0.3292(4) 0.5683(5) -0.0924(4)
H9_2 H 0.2968(4) 0.4903(5) -0.1271(4)
H10_2 H 0.3823(4) 0.5802(5) -0.1312(4)
C16_2 C 0.2370(5) 0.6304(5) -0.0972(4)
H11_2 H 0.2036(5) 0.6077(5) -0.1717(4)
H12_2 H 0.2701(5) 0.7082(5) -0.0630(4)
C17A C 0.1451(4) 0.6129(4) -0.0439(4)
N2A N 0.0752(3) 0.5028(3) -0.1026(3)
H2A H 0.0174(3) 0.4907(3) -0.1516(3)
C14A C 0.0963(4) 0.4186(4) -0.0843(4)
O8A O 0.1798(3) 0.4293(3) -0.0180(3)
O7A_3 O 0.4542(3) 0.2991(3) -0.0148(3)
O10_2 O 0.5027(3) 0.3739(3) 0.2436(3)
S3_2 S 0.5356(17) 0.4533(20) 0.3594(15)
C20_2 C 0.6504(8) 0.5510(6) 0.3872(7)
C21_2 C 0.6000(6) 0.3785(6) 0.4241(5)
K2A_2 K 0.46821(9) 0.16168(9) 0.08815(9)
O11A O 0.4749(4) 0.1120(3) 0.2494(3)
S5A S 0.41373(13) 0.04083(12) 0.28528(12)
C22A C 0.5127(6) 0.0137(5) 0.3681(5)
H21A H 0.4751(7) -0.0346(32) 0.3898(31)
H22A H 0.5509(29) 0.0813(7) 0.4303(19)
H23A H 0.5659(24) -0.0204(36) 0.3294(14)
C23A C 0.3737(5) -0.0941(5) 0.1747(5)
H24A H 0.3419(32) -0.1443(7) 0.1973(9)
H25A H 0.4383(8) -0.1160(14) 0.1487(21)
H26A H 0.3192(26) -0.0947(9) 0.1187(14)
O12_2 O 0.2512(3) 0.1999(3) 0.0932(3)
S6_2 S 0.1842(2) 0.1653(2) 0.1558(2)
C24_2 C 0.2435(6) 0.2564(6) 0.2930(5)
H27_2 H 0.3172(17) 0.2455(29) 0.3126(11)
H28_2 H 0.1973(23) 0.2425(28) 0.3353(6)
H29_2 H 0.2482(39) 0.3307(6) 0.3054(9)
C27_2 C 0.0687(23) 0.2492(22) 0.1632(24)
O13A O 0.6452(3) 0.0565(3) 0.0514(3)
S7A S 0.75735(12) 0.07966(14) 0.12376(12)
C25A C 0.7576(6) 0.1889(5) 0.2503(5)
H30A H 0.8274(16) 0.2046(26) 0.2999(11)
H31A H 0.7487(40) 0.2531(12) 0.2430(9)
H32A H 0.6970(24) 0.1682(15) 0.2765(18)
C26A C 0.7519(7) -0.0261(6) 0.1613(5)
H33A H 0.8205(18) -0.0133(25) 0.2111(34)
H34A H 0.6902(27) -0.0267(28) 0.1943(38)
H35A H 0.7419(46) -0.0957(7) 0.0988(8)
O10A_2 O 0.4973(3) -0.3739(3) -0.2436(3)
O12A_2 O 0.7488(3) -0.1999(3) -0.0932(3)
C6A C 0.0141(4) 0.3107(4) -0.1494(4)
C1A_2 C -0.0871(4) 0.2949(4) -0.2186(3)
O3A_2 O -0.1230(2) 0.3745(3) -0.2377(2)
Mo1A_2 Mo -0.27193(3) 0.33421(4) -0.34344(3)
O1A_2 O -0.2369(3) 0.2888(3) -0.4645(3)
O2A_2 O -0.2611(3) 0.4735(3) -0.3011(3)
K1A_2 K -0.32843(9) 0.59166(9) -0.11817(8)
O5A_2 O -0.3553(2) 0.3557(3) -0.2120(2)
C7A_2 C -0.4619(4) 0.3047(4) -0.2453(4)
C8A_2 C -0.5057(4) 0.2551(4) -0.3577(4)
O6A_2 O -0.4325(3) 0.2651(3) -0.4148(2)
O4A_2 O -0.2556(3) 0.1865(3) -0.3385(3)
C2A_2 C -0.1608(4) 0.1899(4) -0.2762(4)
C3A C -0.1316(5) 0.1003(4) -0.2671(5)
H3A H -0.1784(5) 0.0310(4) -0.3062(5)
C4A C -0.0295(5) 0.1171(5) -0.1974(5)
H4A H -0.0092(5) 0.0582(5) -0.1896(5)
C5A C 0.0408(4) 0.2184(5) -0.1406(4)
H5A H 0.1078(4) 0.2267(5) -0.0952(4)
C9A_2 C -0.6159(4) 0.2016(4) -0.4028(4)
H6A_2 H -0.6433(4) 0.1691(4) -0.4766(4)
C10A_2 C -0.6862(4) 0.1962(4) -0.3380(4)
H7A_2 H -0.7616(4) 0.1630(4) -0.3683(4)
C11A_2 C -0.6448(4) 0.2399(4) -0.2287(4)
H8A_2 H -0.6922(4) 0.2335(4) -0.1866(4)
C12A_2 C -0.5312(4) 0.2943(4) -0.1802(4)
O7_4 O -0.4542(3) 0.7009(3) 0.0148(3)
O10A_3 O -0.5027(3) 0.6261(3) -0.2436(3)
O12A_3 O -0.2512(3) 0.8001(3) -0.0932(3)
H13A H 0.0983(4) 0.6658(4) -0.0373(4)
H14A H 0.1791(4) 0.6264(4) 0.0278(4)
H13_2 H -0.0983(4) 0.3342(4) 0.0373(4)
H14_2 H -0.1791(4) 0.3736(4) -0.0278(4)
K1_4 K -0.67157(9) 0.40834(9) 0.11817(8)
O5_4 O -0.6447(2) 0.6443(3) 0.2120(2)
O8A_2 O -0.8202(3) 0.4293(3) -0.0180(3)
O10_3 O -0.4973(3) 0.3739(3) 0.2436(3)
O12_3 O -0.7488(3) 0.1999(3) 0.0932(3)
O11A_2 O -0.5251(4) 0.1120(3) 0.2494(3)
S5A_2 S -0.58627(13) 0.04083(12) 0.28528(12)
C22A_2 C -0.4873(6) 0.0137(5) 0.3681(5)
H21A_2 H -0.5249(7) -0.0346(32) 0.3898(31)
H22A_2 H -0.4491(29) 0.0813(7) 0.4303(19)
H23A_2 H -0.4341(24) -0.0204(36) 0.3294(14)
C23A_2 C -0.6263(5) -0.0941(5) 0.1747(5)
H24A_2 H -0.6581(32) -0.1443(7) 0.1973(9)
H25A_2 H -0.5617(8) -0.1160(14) 0.1487(21)
H26A_2 H -0.6808(26) -0.0947(9) 0.1187(14)
O13A_2 O -0.3548(3) 0.0565(3) 0.0514(3)
N1_3 N -0.6122(3) -0.3967(3) 0.0173(3)
H1_3 H -0.6449(3) -0.4201(3) 0.0542(3)
C15_3 C -0.6708(4) -0.4317(5) -0.0924(4)
H9_3 H -0.7032(4) -0.5097(5) -0.1271(4)
H10_3 H -0.6177(4) -0.4198(5) -0.1312(4)
C16_3 C -0.7630(5) -0.3696(5) -0.0972(4)
C3_3 C -0.8684(5) -0.1003(4) 0.2671(5)
H3_3 H -0.8216(5) -0.0310(4) 0.3062(5)
C4_3 C -0.9705(5) -0.1171(5) 0.1974(5)
H4_3 H -0.9908(5) -0.0582(5) 0.1896(5)
C5_3 C -1.0408(4) -0.2184(5) 0.1406(4)
H5_3 H -1.1078(4) -0.2267(5) 0.0952(4)
C6_3 C -1.0141(4) -0.3107(4) 0.1494(4)
C14_3 C -1.0963(4) -0.4186(4) 0.0843(4)
O8_3 O -1.1798(3) -0.4293(3) 0.0180(3)
N2_3 N -1.0752(3) -0.5028(3) 0.1026(3)
H2_3 H -1.0174(3) -0.4907(3) 0.1516(3)
C17_3 C -1.1451(4) -0.6129(4) 0.0439(4)
C16A_2 C -1.2370(5) -0.6304(5) 0.0972(4)
H13_3 H -1.0983(4) -0.6658(4) 0.0373(4)
H14_3 H -1.1791(4) -0.6264(4) -0.0278(4)
O8A_3 O -0.8202(3) -0.5707(3) -0.0180(3)
O10_4 O -0.4973(3) -0.6261(3) 0.2436(3)
O12_4 O -0.7488(3) -0.8001(3) 0.0932(3)
K2A_3 K -0.53179(9) -0.83832(9) 0.08815(9)
O11A_3 O -0.5251(4) -0.8880(3) 0.2494(3)
S5A_3 S -0.58627(13) -0.95917(12) 0.28528(12)
C22A_3 C -0.4873(6) -0.9863(5) 0.3681(5)
H21A_3 H -0.5249(7) -1.0346(32) 0.3898(31)
H22A_3 H -0.4491(29) -0.9187(7) 0.4303(19)
H23A_3 H -0.4341(24) -1.0204(36) 0.3294(14)
C23A_3 C -0.6263(5) -1.0941(5) 0.1747(5)
H24A_3 H -0.6581(32) -1.1443(7) 0.1973(9)
H25A_3 H -0.5617(8) -1.1160(14) 0.1487(21)
H26A_3 H -0.6808(26) -1.0947(9) 0.1187(14)
O13A_3 O -0.3548(3) -0.9435(3) 0.0514(3)
O13_3 O -0.6452(3) -1.0565(3) -0.0514(3)
N1A_2 N -0.3878(3) -0.6033(3) -0.0173(3)
H1A_2 H -0.3551(3) -0.5799(3) -0.0542(3)
C15A_2 C -0.3292(4) -0.5683(5) 0.0924(4)
H9A_2 H -0.2968(4) -0.4903(5) 0.1271(4)
H10A_2 H -0.3823(4) -0.5802(5) 0.1312(4)
C16A_3 C -0.2370(5) -0.6304(5) 0.0972(4)
C3A_2 C -0.1316(5) -0.8997(4) -0.2671(5)
H3A_2 H -0.1784(5) -0.9690(4) -0.3062(5)
C4A_2 C -0.0295(5) -0.8829(5) -0.1974(5)
H4A_2 H -0.0092(5) -0.9418(5) -0.1896(5)
C5A_2 C 0.0408(4) -0.7816(5) -0.1406(4)
H5A_2 H 0.1078(4) -0.7733(5) -0.0952(4)
C6A_2 C 0.0141(4) -0.6893(4) -0.1494(4)
C14A_2 C 0.0963(4) -0.5814(4) -0.0843(4)
O8A_4 O 0.1798(3) -0.5707(3) -0.0180(3)
N2A_2 N 0.0752(3) -0.4972(3) -0.1026(3)
H2A_2 H 0.0174(3) -0.5093(3) -0.1516(3)
C17A_2 C 0.1451(4) -0.3871(4) -0.0439(4)
H13A_2 H 0.0983(4) -0.3342(4) -0.0373(4)
H14A_2 H 0.1791(4) -0.3736(4) 0.0278(4)
K1A_3 K 0.67157(9) -0.40834(9) -0.11817(8)
O2A_3 O 0.7389(3) -0.5265(3) -0.3011(3)
Mo1A_3 Mo 0.72807(3) -0.66579(4) -0.34344(3)
O1A_3 O 0.7631(3) -0.7112(3) -0.4645(3)
O3A_3 O 0.8770(2) -0.6255(3) -0.2377(2)
C1A_3 C 0.9129(4) -0.7051(4) -0.2186(3)
C2A_3 C 0.8392(4) -0.8101(4) -0.2762(4)
O4A_3 O 0.7444(3) -0.8135(3) -0.3385(3)
O5A_3 O 0.6447(2) -0.6443(3) -0.2120(2)
C7A_3 C 0.5381(4) -0.6953(4) -0.2453(4)
C8A_3 C 0.4943(4) -0.7449(4) -0.3577(4)
O6A_3 O 0.5675(3) -0.7349(3) -0.4148(2)
C9A_3 C 0.3841(4) -0.7984(4) -0.4028(4)
H6A_3 H 0.3567(4) -0.8309(4) -0.4766(4)
C10A_3 C 0.3138(4) -0.8038(4) -0.3380(4)
H7A_3 H 0.2384(4) -0.8370(4) -0.3683(4)
C11A_3 C 0.3552(4) -0.7601(4) -0.2287(4)
H8A_3 H 0.3078(4) -0.7665(4) -0.1866(4)
C12A_3 C 0.4688(4) -0.7057(4) -0.1802(4)
C13A_3 C 0.5110(4) -0.6692(4) -0.0644(4)
O7A_4 O 0.4542(3) -0.7009(3) -0.0148(3)
N1A_3 N 0.6122(3) -0.6033(3) -0.0173(3)
H1A_3 H 0.6449(3) -0.5799(3) -0.0542(3)
C15A_3 C 0.6708(4) -0.5683(5) 0.0924(4)
H9A_3 H 0.7032(4) -0.4903(5) 0.1271(4)
H10A_3 H 0.6177(4) -0.5802(5) 0.1312(4)
C16A_4 C 0.7630(5) -0.6304(5) 0.0972(4)
O8_4 O 0.8202(3) -0.4293(3) 0.0180(3)
C3A_3 C 0.8684(5) -0.8997(4) -0.2671(5)
H3A_3 H 0.8216(5) -0.9690(4) -0.3062(5)
C4A_3 C 0.9705(5) -0.8829(5) -0.1974(5)
H4A_3 H 0.9908(5) -0.9418(5) -0.1896(5)
C5A_3 C 1.0408(4) -0.7816(5) -0.1406(4)
H5A_3 H 1.1078(4) -0.7733(5) -0.0952(4)
C6A_3 C 1.0141(4) -0.6893(4) -0.1494(4)
C14A_3 C 1.0963(4) -0.5814(4) -0.0843(4)
O8A_5 O 1.1798(3) -0.5707(3) -0.0180(3)
N2A_3 N 1.0752(3) -0.4972(3) -0.1026(3)
H2A_3 H 1.0174(3) -0.5093(3) -0.1516(3)
C17A_3 C 1.1451(4) -0.3871(4) -0.0439(4)
C16_4 C 1.2370(5) -0.3696(5) -0.0972(4)
H13A_3 H 1.0983(4) -0.3342(4) -0.0373(4)
H14A_3 H 1.1791(4) -0.3736(4) 0.0278(4)
S2? S 0.5260(23) 0.4416(25) 0.3654(18)
S4? S 0.6090(13) 0.4070(13) 0.3236(13)
C28? C 0.0545(22) 0.1797(28) 0.1281(28)
C32? C 0.0759(26) -0.5111(34) -0.5210(36)
loop_
_geom_bond_atom_site_label_1
_geom_bond_atom_site_label_2
_geom_bond_site_symmetry_1
_geom_bond_site_symmetry_2
O1 Mo1 1_555 1_555
O2 Mo1 1_555 1_555
O3 C1 1_555 1_555
O4 C2 1_555 1_555
O5 C7 1_555 1_555
O6 C8 1_555 1_555
O7 C13 1_555 1_555
O8 C14 1_555 1_555
N1 H1 1_555 1_555
N2 H2 1_555 1_555
C1 C2 1_555 1_555
C2 C3 1_555 1_555
C3 H3 1_555 1_555
C4 C3 1_555 1_555
H4 C4 1_555 1_555
C5 C4 1_555 1_555
H5 C5 1_555 1_555
C6 C1 1_555 1_555
C7 C8 1_555 1_555
C8 C9 1_555 1_555
C9 H6 1_555 1_555
C10 C9 1_555 1_555
H7 C10 1_555 1_555
C11 C10 1_555 1_555
H8 C11 1_555 1_555
C12 C7 1_555 1_555
C13 N1 1_555 1_555
C14 N2 1_555 1_555
C15 N1 1_555 1_555
H9 C15 1_555 1_555
H10 C15 1_555 1_555
C16 C15 1_555 1_555
H11 C16 1_555 1_555
H12 C16 1_555 1_555
C17 N2 1_555 1_555
H13 C17 1_555 1_555
H14 C17 1_555 1_555
S1 O9 1_555 1_555
S3 O10 1_555 1_555
S5 O11 1_555 1_555
S6 O12 1_555 1_555
S7 O13 1_555 1_555
O11 K2 1_555 1_555
O13 K2 1_555 1_555
C18 S1 1_555 1_555
H15 C18 1_555 1_555
H16 C18 1_555 1_555
H17 C18 1_555 1_555
C19 S1 1_555 1_555
H18 C19 1_555 1_555
H19 C19 1_555 1_555
H20 C19 1_555 1_555
C20 S3 1_555 1_555
C21 S3 1_555 1_555
C22 S5 1_555 1_555
H21 C22 1_555 1_555
H22 C22 1_555 1_555
H23 C22 1_555 1_555
C23 S5 1_555 1_555
H24 C23 1_555 1_555
H25 C23 1_555 1_555
H26 C23 1_555 1_555
C24 S6 1_555 1_555
H27 C24 1_555 1_555
H28 C24 1_555 1_555
H29 C24 1_555 1_555
C25 S7 1_555 1_555
H30 C25 1_555 1_555
H31 C25 1_555 1_555
H32 C25 1_555 1_555
C26 S7 1_555 1_555
H33 C26 1_555 1_555
H34 C26 1_555 1_555
H35 C26 1_555 1_555
C27 S6 1_555 1_555
C29 C30 1_555 1_555
C30 C31 1_555 1_555
C31 O14A 1_555 1_555
O14 C29 1_555 1_555
Mo1 O3 1_555 1_555
K1 O2 1_555 1_555
K2 O7 1_555 1_555
K1A O8 1_555 1_555
O2A K1A 1_555 1_555
Mo1A O2A 1_555 1_555
O1A Mo1A 1_555 1_555
O3A Mo1A 1_555 1_555
C1A O3A 1_555 1_555
C2A C1A 1_555 1_555
O4A Mo1A 1_555 1_555
O5A K1A 1_555 1_555
C7A O5A 1_555 1_555
C8A C7A 1_555 1_555
O6A Mo1A 1_555 1_555
C9A C8A 1_555 1_555
H6A C9A 1_555 1_555
C10A C9A 1_555 1_555
H7A C10A 1_555 1_555
C11A C10A 1_555 1_555
H8A C11A 1_555 1_555
C12A C7A 1_555 1_555
C13A C12A 1_555 1_555
O7A C13A 1_555 1_555
K1_2 O7A 1_555 1_555
O2_2 K1_2 1_555 1_555
Mo1_2 O2_2 1_555 1_555
O1_2 Mo1_2 1_555 1_555
O3_2 Mo1_2 1_555 1_555
C1_2 O3_2 1_555 1_555
C2_2 C1_2 1_555 1_555
O4_2 Mo1_2 1_555 1_555
O5_2 Mo1_2 1_555 1_555
C7_2 O5_2 1_555 1_555
C8_2 C7_2 1_555 1_555
O6_2 Mo1_2 1_555 1_555
C9_2 C8_2 1_555 1_555
H6_2 C9_2 1_555 1_555
C10_2 C9_2 1_555 1_555
H7_2 C10_2 1_555 1_555
C11_2 C10_2 1_555 1_555
H8_2 C11_2 1_555 1_555
C12_2 C7_2 1_555 1_555
C13_2 C12_2 1_555 1_555
O7_2 K1A 1_555 1_555
O10A K1A 1_555 1_555
S3A O10A 1_555 1_555
C20A S3A 1_555 1_555
C21A S3A 1_555 1_555
K2_2 O7_2 1_555 1_555
O11_2 K2_2 1_555 1_555
S5_2 O11_2 1_555 1_555
C22_2 S5_2 1_555 1_555
H21_2 C22_2 1_555 1_555
H22_2 C22_2 1_555 1_555
H23_2 C22_2 1_555 1_555
C23_2 S5_2 1_555 1_555
H24_2 C23_2 1_555 1_555
H25_2 C23_2 1_555 1_555
H26_2 C23_2 1_555 1_555
O12A K1A 1_555 1_555
S6A O12A 1_555 1_555
C24A S6A 1_555 1_555
H27A C24A 1_555 1_555
H28A C24A 1_555 1_555
H29A C24A 1_555 1_555
C27A S6A 1_555 1_555
O13_2 K2_2 1_555 1_555
S7_2 O13_2 1_555 1_555
C25_2 S7_2 1_555 1_555
H30_2 C25_2 1_555 1_555
H31_2 C25_2 1_555 1_555
H32_2 C25_2 1_555 1_555
C26_2 S7_2 1_555 1_555
H33_2 C26_2 1_555 1_555
H34_2 C26_2 1_555 1_555
H35_2 C26_2 1_555 1_555
K2A O13_2 1_555 1_555
O7A_2 K2A 1_555 1_555
C13A_2 O7A_2 1_555 1_555
N1A C13A_2 1_555 1_555
H1A N1A 1_555 1_555
C15A N1A 1_555 1_555
H9A C15A 1_555 1_555
H10A C15A 1_555 1_555
C16A C15A 1_555 1_555
H11A C16A 1_555 1_555
H12A C16A 1_555 1_555
C17_2 C16A 1_555 1_555
N2_2 C17_2 1_555 1_555
H2_2 N2_2 1_555 1_555
C14_2 N2_2 1_555 1_555
O8_2 C14_2 1_555 1_555
C6_2 C14_2 1_555 1_555
C1_3 C6_2 1_555 1_555
O3_3 C1_3 1_555 1_555
Mo1_3 O3_3 1_555 1_555
O1_3 Mo1_3 1_555 1_555
O2_3 Mo1_3 1_555 1_555
K1_3 O2_3 1_555 1_555
O5_3 Mo1_3 1_555 1_555
C7_3 O5_3 1_555 1_555
C8_3 C7_3 1_555 1_555
O6_3 Mo1_3 1_555 1_555
O4_3 Mo1_3 1_555 1_555
C2_3 C1_3 1_555 1_555
C3_2 C2_3 1_555 1_555
H3_2 C3_2 1_555 1_555
C4_2 C3_2 1_555 1_555
H4_2 C4_2 1_555 1_555
C5_2 C6_2 1_555 1_555
H5_2 C5_2 1_555 1_555
C9_3 C8_3 1_555 1_555
H6_3 C9_3 1_555 1_555
C10_3 C9_3 1_555 1_555
H7_3 C10_3 1_555 1_555
C11_3 C10_3 1_555 1_555
H8_3 C11_3 1_555 1_555
C12_3 C7_3 1_555 1_555
C13_3 C12_3 1_555 1_555
O7_3 C13_3 1_555 1_555
N1_2 C13_3 1_555 1_555
H1_2 N1_2 1_555 1_555
C15_2 N1_2 1_555 1_555
H9_2 C15_2 1_555 1_555
H10_2 C15_2 1_555 1_555
C16_2 C15_2 1_555 1_555
H11_2 C16_2 1_555 1_555
H12_2 C16_2 1_555 1_555
C17A C16_2 1_555 1_555
N2A C17A 1_555 1_555
H2A N2A 1_555 1_555
C14A N2A 1_555 1_555
O8A K1_3 1_555 1_555
O7A_3 K1_3 1_555 1_555
O10_2 K1_3 1_555 1_555
S3_2 O10_2 1_555 1_555
C20_2 S3_2 1_555 1_555
C21_2 S3_2 1_555 1_555
K2A_2 O13 1_555 1_555
O11A K2A_2 1_555 1_555
S5A O11A 1_555 1_555
C22A S5A 1_555 1_555
H21A C22A 1_555 1_555
H22A C22A 1_555 1_555
H23A C22A 1_555 1_555
C23A S5A 1_555 1_555
H24A C23A 1_555 1_555
H25A C23A 1_555 1_555
H26A C23A 1_555 1_555
O12_2 K1_3 1_555 1_555
S6_2 O12_2 1_555 1_555
C24_2 S6_2 1_555 1_555
H27_2 C24_2 1_555 1_555
H28_2 C24_2 1_555 1_555
H29_2 C24_2 1_555 1_555
C27_2 S6_2 1_555 1_555
O13A K2 1_555 1_555
S7A O13A 1_555 1_555
C25A S7A 1_555 1_555
H30A C25A 1_555 1_555
H31A C25A 1_555 1_555
H32A C25A 1_555 1_555
C26A S7A 1_555 1_555
H33A C26A 1_555 1_555
H34A C26A 1_555 1_555
H35A C26A 1_555 1_555
O10A_2 K2 1_555 1_555
O12A_2 K2 1_555 1_555
C6A C14A 1_555 1_555
C1A_2 C6A 1_555 1_555
O3A_2 C1A_2 1_555 1_555
Mo1A_2 O3A_2 1_555 1_555
O1A_2 Mo1A_2 1_555 1_555
O2A_2 Mo1A_2 1_555 1_555
K1A_2 O8_2 1_555 1_555
O5A_2 Mo1A_2 1_555 1_555
C7A_2 O5A_2 1_555 1_555
C8A_2 C7A_2 1_555 1_555
O6A_2 Mo1A_2 1_555 1_555
O4A_2 Mo1A_2 1_555 1_555
C2A_2 C1A_2 1_555 1_555
C3A C2A_2 1_555 1_555
H3A C3A 1_555 1_555
C4A C3A 1_555 1_555
H4A C4A 1_555 1_555
C5A C6A 1_555 1_555
H5A C5A 1_555 1_555
C9A_2 C8A_2 1_555 1_555
H6A_2 C9A_2 1_555 1_555
C10A_2 C9A_2 1_555 1_555
H7A_2 C10A_2 1_555 1_555
C11A_2 C10A_2 1_555 1_555
H8A_2 C11A_2 1_555 1_555
C12A_2 C13A_2 1_555 1_555
O7_4 K1A_2 1_555 1_555
O10A_3 K1A_2 1_555 1_555
O12A_3 K1A_2 1_555 1_555
H13A C17A 1_555 1_555
H14A C17A 1_555 1_555
H13_2 C17_2 1_555 1_555
H14_2 C17_2 1_555 1_555
K1_4 O7A_2 1_555 1_555
O5_4 K1_4 1_555 1_555
O8A_2 K1_4 1_555 1_555
O10_3 K2A 1_555 1_555
O12_3 K2A 1_555 1_555
O11A_2 K2A 1_555 1_555
S5A_2 O11A_2 1_555 1_555
C22A_2 S5A_2 1_555 1_555
H21A_2 C22A_2 1_555 1_555
H22A_2 C22A_2 1_555 1_555
H23A_2 C22A_2 1_555 1_555
C23A_2 S5A_2 1_555 1_555
H24A_2 C23A_2 1_555 1_555
H25A_2 C23A_2 1_555 1_555
H26A_2 C23A_2 1_555 1_555
O13A_2 K2_2 1_555 1_555
N1_3 C13_2 1_555 1_555
H1_3 N1_3 1_555 1_555
C15_3 N1_3 1_555 1_555
H9_3 C15_3 1_555 1_555
H10_3 C15_3 1_555 1_555
C16_3 C15_3 1_555 1_555
C3_3 C2_2 1_555 1_555
H3_3 C3_3 1_555 1_555
C4_3 C3_3 1_555 1_555
H4_3 C4_3 1_555 1_555
C5_3 C4_3 1_555 1_555
H5_3 C5_3 1_555 1_555
C6_3 C1_2 1_555 1_555
C14_3 C6_3 1_555 1_555
O8_3 C14_3 1_555 1_555
N2_3 C14_3 1_555 1_555
H2_3 N2_3 1_555 1_555
C17_3 N2_3 1_555 1_555
C16A_2 C17_3 1_555 1_555
H13_3 C17_3 1_555 1_555
H14_3 C17_3 1_555 1_555
O8A_3 K1_2 1_555 1_555
O10_4 K1_2 1_555 1_555
O12_4 K1_2 1_555 1_555
K2A_3 O7A 1_555 1_555
O11A_3 K2A_3 1_555 1_555
S5A_3 O11A_3 1_555 1_555
C22A_3 S5A_3 1_555 1_555
H21A_3 C22A_3 1_555 1_555
H22A_3 C22A_3 1_555 1_555
H23A_3 C22A_3 1_555 1_555
C23A_3 S5A_3 1_555 1_555
H24A_3 C23A_3 1_555 1_555
H25A_3 C23A_3 1_555 1_555
H26A_3 C23A_3 1_555 1_555
O13A_3 K2A_3 1_555 1_555
O13_3 K2A_3 1_555 1_555
N1A_2 C13A 1_555 1_555
H1A_2 N1A_2 1_555 1_555
C15A_2 N1A_2 1_555 1_555
H9A_2 C15A_2 1_555 1_555
H10A_2 C15A_2 1_555 1_555
C16A_3 C17 1_555 1_555
C3A_2 C2A 1_555 1_555
H3A_2 C3A_2 1_555 1_555
C4A_2 C3A_2 1_555 1_555
H4A_2 C4A_2 1_555 1_555
C5A_2 C4A_2 1_555 1_555
H5A_2 C5A_2 1_555 1_555
C6A_2 C1A 1_555 1_555
C14A_2 C6A_2 1_555 1_555
O8A_4 C14A_2 1_555 1_555
N2A_2 C14A_2 1_555 1_555
H2A_2 N2A_2 1_555 1_555
C17A_2 C16 1_555 1_555
H13A_2 C17A_2 1_555 1_555
H14A_2 C17A_2 1_555 1_555
K1A_3 O7 1_555 1_555
O2A_3 K1A_3 1_555 1_555
Mo1A_3 O2A_3 1_555 1_555
O1A_3 Mo1A_3 1_555 1_555
O3A_3 Mo1A_3 1_555 1_555
C1A_3 O3A_3 1_555 1_555
C2A_3 C1A_3 1_555 1_555
O4A_3 Mo1A_3 1_555 1_555
O5A_3 K1A_3 1_555 1_555
C7A_3 O5A_3 1_555 1_555
C8A_3 C7A_3 1_555 1_555
O6A_3 Mo1A_3 1_555 1_555
C9A_3 C8A_3 1_555 1_555
H6A_3 C9A_3 1_555 1_555
C10A_3 C9A_3 1_555 1_555
H7A_3 C10A_3 1_555 1_555
C11A_3 C10A_3 1_555 1_555
H8A_3 C11A_3 1_555 1_555
C12A_3 C7A_3 1_555 1_555
C13A_3 C12A_3 1_555 1_555
O7A_4 C13A_3 1_555 1_555
N1A_3 C13A_3 1_555 1_555
H1A_3 N1A_3 1_555 1_555
C15A_3 N1A_3 1_555 1_555
H9A_3 C15A_3 1_555 1_555
H10A_3 C15A_3 1_555 1_555
C16A_4 C15A_3 1_555 1_555
O8_4 K1A_3 1_555 1_555
C3A_3 C2A_3 1_555 1_555
H3A_3 C3A_3 1_555 1_555
C4A_3 C3A_3 1_555 1_555
H4A_3 C4A_3 1_555 1_555
C5A_3 C4A_3 1_555 1_555
H5A_3 C5A_3 1_555 1_555
C6A_3 C1A_3 1_555 1_555
C14A_3 C6A_3 1_555 1_555
O8A_5 C14A_3 1_555 1_555
N2A_3 C14A_3 1_555 1_555
H2A_3 N2A_3 1_555 1_555
C17A_3 N2A_3 1_555 1_555
C16_4 C17A_3 1_555 1_555
H13A_3 C17A_3 1_555 1_555
H14A_3 C17A_3 1_555 1_555
O14A C29 1_555 1_555
C29A O14 1_555 1_555
C30A O14 1_555 1_555
C31A O14 1_555 1_555
O4 Mo1 1_555 1_555
O5 K1 1_555 1_555
O5 Mo1 1_555 1_555
O6 Mo1 1_555 1_555
C5 C6 1_555 1_555
C6 C14 1_555 1_555
C11 C12 1_555 1_555
C12 C13 1_555 1_555
C30 O14A 1_555 1_555
O14 O14A 1_555 1_555
Mo1A O5A 1_555 1_555
C2A O4A 1_555 1_555
C8A O6A 1_555 1_555
C11A C12A 1_555 1_555
C2_2 O4_2 1_555 1_555
C8_2 O6_2 1_555 1_555
C11_2 C12_2 1_555 1_555
C13_2 O7_2 1_555 1_555
O10A K2_2 1_555 1_555
K2_2 O12A 1_555 1_555
K2A O13A_2 1_555 1_555
K1_3 O5_3 1_555 1_555
C8_3 O6_3 1_555 1_555
O4_3 C2_3 1_555 1_555
C4_2 C5_2 1_555 1_555
C11_3 C12_3 1_555 1_555
C14A O8A 1_555 1_555
O7A_3 K2A_2 1_555 1_555
O10_2 K2A_2 1_555 1_555
K2A_2 O12_2 1_555 1_555
K2A_2 O13A 1_555 1_555
O10A_2 K1A_3 1_555 1_555
O12A_2 K1A_3 1_555 1_555
O2A_2 K1A_2 1_555 1_555
K1A_2 O5A_2 1_555 1_555
C7A_2 C12A_2 1_555 1_555
C8A_2 O6A_2 1_555 1_555
O4A_2 C2A_2 1_555 1_555
C4A C5A 1_555 1_555
C11A_2 C12A_2 1_555 1_555
K1_4 O10_3 1_555 1_555
K1_4 O12_3 1_555 1_555
C5_3 C6_3 1_555 1_555
O10_4 K2A_3 1_555 1_555
O12_4 K2A_3 1_555 1_555
C15A_2 C16A_3 1_555 1_555
C5A_2 C6A_2 1_555 1_555
N2A_2 C17A_2 1_555 1_555
Mo1A_3 O5A_3 1_555 1_555
C2A_3 O4A_3 1_555 1_555
C8A_3 O6A_3 1_555 1_555
C11A_3 C12A_3 1_555 1_555
C5A_3 C6A_3 1_555 1_555
O14A C29A 1_555 1_555
C29A C30A 1_555 1_555
C30A C31A 1_555 1_555

#END
