
#######################################################################
#
#                 Cambridge Crystallographic Data Centre
#                                CCDC 
#
#######################################################################
#
# If this CIF has been generated from an entry in the Cambridge 
# Structural Database, then it will include bibliographic, chemical, 
# crystal, experimental, refinement or atomic coordinate data resulting 
# from the CCDC's data processing and validation procedures.
#
#######################################################################

data_FEJVEV
_symmetry_cell_setting           monoclinic
_symmetry_space_group_name_H-M   'C 2'
_symmetry_Int_Tables_number      5
_space_group_name_Hall           'C 2y'
loop_
_symmetry_equiv_pos_site_id
_symmetry_equiv_pos_as_xyz
1 x,y,z
2 -x,y,-z
3 1/2+x,1/2+y,z
4 1/2-x,1/2+y,-z
_cell_length_a                   29.621(5)
_cell_length_b                   7.3920(15)
_cell_length_c                   7.430(2)
_cell_angle_alpha                90.00
_cell_angle_beta                 90.75(2)
_cell_angle_gamma                90.00
_cell_volume                     1626.72
loop_
_atom_site_label
_atom_site_type_symbol
_atom_site_fract_x
_atom_site_fract_y
_atom_site_fract_z
O1 O 0.42632(14) 0.3553(7) 0.1292(5)
O2 O 0.48634(14) 0.4420(8) 0.2897(6)
O3 O 0.43723(13) 0.5975(6) 0.5410(5)
O4 O 0.41949(13) 0.2240(6) 0.5711(5)
O5 O 0.32622(12) 0.2546(4) 0.6942(5)
O6 O 0.29002(13) 0.6090(6) 0.6991(5)
O7 O 0.30815(14) 0.4643(6) 0.2443(5)
O8 O 0.37174(12) 0.0344(5) 0.8132(5)
O9 O 0.27013(13) 0.2244(5) 1.0110(5)
O10 O 0.28428(13) -0.0925(5) 1.2167(5)
O11 O 0.34085(14) -0.2938(5) 0.9972(5)
O12 O 0.46276(15) -0.0334(8) 0.8305(9)
C1 C 0.4454(2) 0.4245(7) 0.2631(7)
C2 C 0.4136(2) 0.4964(7) 0.4080(6)
H1 H 0.3920(2) 0.5783(7) 0.3487(6)
C3 C 0.3866(2) 0.3431(6) 0.4910(6)
H2 H 0.3706(2) 0.2780(6) 0.3946(6)
C4 C 0.3522(2) 0.4077(7) 0.6289(6)
H3 H 0.3686(2) 0.4611(7) 0.7311(6)
C5 C 0.3182(2) 0.5478(8) 0.5571(7)
H4 H 0.3350(2) 0.6516(8) 0.5105(7)
C6 C 0.2859(2) 0.4835(8) 0.4129(7)
H5 H 0.2731(2) 0.3680(8) 0.4479(7)
H6 H 0.2613(2) 0.5695(8) 0.4000(7)
C7 C 0.3411(2) 0.1760(7) 0.8543(6)
H7 H 0.3559(2) 0.2667(7) 0.9309(6)
C8 C 0.3014(2) 0.0908(7) 0.9531(6)
H8 H 0.2861(2) 0.0023(7) 0.8752(6)
C9 C 0.3195(2) -0.0017(6) 1.1227(6)
H9 H 0.3318(2) 0.0922(6) 1.2024(6)
C10 C 0.3571(2) -0.1345(7) 1.0835(7)
H10 H 0.3711(2) -0.1700(7) 1.1985(7)
C11 C 0.3927(2) -0.0413(7) 0.9725(7)
H11 H 0.4050(2) 0.0589(7) 1.0442(7)
C12 C 0.4315(2) -0.1544(8) 0.9101(7)
H12 H 0.4455(2) -0.2171(8) 1.0110(7)
H13 H 0.4213(2) -0.2434(8) 0.8229(7)
Ag1 Ag 0.463110(15) 0.29584(9) -0.12477(6)
Ag1A Ag 0.536890(15) 0.29584(9) 0.12477(6)
Ag1_2 Ag 0.463110(15) 0.29584(9) 0.87523(6)
O1A O 0.57368(14) 0.3553(7) -0.1292(5)
O2A O 0.51366(14) 0.4420(8) -0.2897(6)
O1_2 O 0.42632(14) 0.3553(7) -0.8708(5)
O2_2 O 0.48634(14) 0.4420(8) -0.7103(6)
O3_2 O 0.43723(13) 0.5975(6) -0.4590(5)
O4_2 O 0.41949(13) 0.2240(6) -0.4289(5)
O5_2 O 0.32622(12) 0.2546(4) -0.3058(5)
O6_2 O 0.29002(13) 0.6090(6) -0.3009(5)
O7_2 O 0.30815(14) 0.4643(6) -0.7557(5)
O8_2 O 0.37174(12) 0.0344(5) -0.1868(5)
O9_2 O 0.27013(13) 0.2244(5) 0.0110(5)
O10_2 O 0.28428(13) -0.0925(5) 0.2167(5)
O11_2 O 0.34085(14) -0.2938(5) -0.0028(5)
C1_2 C 0.4454(2) 0.4245(7) -0.7369(7)
C2_2 C 0.4136(2) 0.4964(7) -0.5920(6)
H1_2 H 0.3920(2) 0.5783(7) -0.6513(6)
C3_2 C 0.3866(2) 0.3431(6) -0.5090(6)
H2_2 H 0.3706(2) 0.2780(6) -0.6054(6)
C4_2 C 0.3522(2) 0.4077(7) -0.3711(6)
H3_2 H 0.3686(2) 0.4611(7) -0.2689(6)
C5_2 C 0.3182(2) 0.5478(8) -0.4429(7)
H4_2 H 0.3350(2) 0.6516(8) -0.4895(7)
C6_2 C 0.2859(2) 0.4835(8) -0.5871(7)
H5_2 H 0.2731(2) 0.3680(8) -0.5521(7)
H6_2 H 0.2613(2) 0.5695(8) -0.6000(7)
C7_2 C 0.3411(2) 0.1760(7) -0.1457(6)
H7_2 H 0.3559(2) 0.2667(7) -0.0691(6)
C8_2 C 0.3014(2) 0.0908(7) -0.0469(6)
H8_2 H 0.2861(2) 0.0023(7) -0.1248(6)
C9_2 C 0.3195(2) -0.0017(6) 0.1227(6)
H9_2 H 0.3318(2) 0.0922(6) 0.2024(6)
C10_2 C 0.3571(2) -0.1345(7) 0.0835(7)
H10_2 H 0.3711(2) -0.1700(7) 0.1985(7)
C11_2 C 0.3927(2) -0.0413(7) -0.0275(7)
H11_2 H 0.4050(2) 0.0589(7) 0.0442(7)
C12_2 C 0.4315(2) -0.1544(8) -0.0899(7)
H12_2 H 0.4455(2) -0.2171(8) 0.0110(7)
H13_2 H 0.4213(2) -0.2434(8) -0.1771(7)
O4A O 0.58051(13) 0.2240(6) 0.4289(5)
O12_2 O 0.46276(15) -0.0334(8) -0.1695(9)
O12A O 0.53724(15) -0.0334(8) 0.1695(9)
Ag1_3 Ag 0.463110(15) 0.29584(9) -1.12477(6)
Ag1A_2 Ag 0.536890(15) 0.29584(9) -0.87523(6)
O13 O 0.4576(2) 0.9196(8) 0.3507(6)
loop_
_geom_bond_atom_site_label_1
_geom_bond_atom_site_label_2
_geom_bond_site_symmetry_1
_geom_bond_site_symmetry_2
O1 C1 1_555 1_555
O2 C1 1_555 1_555
O3 C2 1_555 1_555
O4 C3 1_555 1_555
O5 C4 1_555 1_555
O6 C5 1_555 1_555
O7 C6 1_555 1_555
O8 C7 1_555 1_555
O9 C8 1_555 1_555
O10 C9 1_555 1_555
O11 C10 1_555 1_555
O12 C12 1_555 1_555
C1 C2 1_555 1_555
C2 H1 1_555 1_555
C3 C2 1_555 1_555
H2 C3 1_555 1_555
C4 C3 1_555 1_555
H3 C4 1_555 1_555
C5 C4 1_555 1_555
H4 C5 1_555 1_555
C6 C5 1_555 1_555
H5 C6 1_555 1_555
H6 C6 1_555 1_555
C7 O5 1_555 1_555
H7 C7 1_555 1_555
C8 C7 1_555 1_555
H8 C8 1_555 1_555
C9 C8 1_555 1_555
H9 C9 1_555 1_555
C10 C9 1_555 1_555
H10 C10 1_555 1_555
C11 O8 1_555 1_555
H11 C11 1_555 1_555
C12 C11 1_555 1_555
H12 C12 1_555 1_555
H13 C12 1_555 1_555
Ag1 O1 1_555 1_555
Ag1A O2 1_555 1_555
Ag1_2 O4 1_555 1_555
O1A Ag1A 1_555 1_555
O2A Ag1 1_555 1_555
O1_2 C1_2 1_555 1_555
O2_2 C1_2 1_555 1_555
O3_2 C2_2 1_555 1_555
O4_2 Ag1 1_555 1_555
O5_2 C4_2 1_555 1_555
O6_2 C5_2 1_555 1_555
O7_2 C6_2 1_555 1_555
O8_2 C7_2 1_555 1_555
O9_2 C8_2 1_555 1_555
O10_2 C9_2 1_555 1_555
O11_2 C10_2 1_555 1_555
C1_2 C2_2 1_555 1_555
C2_2 H1_2 1_555 1_555
C3_2 O4_2 1_555 1_555
H2_2 C3_2 1_555 1_555
C4_2 C3_2 1_555 1_555
H3_2 C4_2 1_555 1_555
C5_2 C4_2 1_555 1_555
H4_2 C5_2 1_555 1_555
C6_2 C5_2 1_555 1_555
H5_2 C6_2 1_555 1_555
H6_2 C6_2 1_555 1_555
C7_2 O5_2 1_555 1_555
H7_2 C7_2 1_555 1_555
C8_2 C7_2 1_555 1_555
H8_2 C8_2 1_555 1_555
C9_2 C8_2 1_555 1_555
H9_2 C9_2 1_555 1_555
C10_2 C9_2 1_555 1_555
H10_2 C10_2 1_555 1_555
C11_2 O8_2 1_555 1_555
H11_2 C11_2 1_555 1_555
C12_2 C11_2 1_555 1_555
H12_2 C12_2 1_555 1_555
H13_2 C12_2 1_555 1_555
O4A Ag1A 1_555 1_555
O12_2 Ag1 1_555 1_555
O12A Ag1A 1_555 1_555
Ag1_3 O1_2 1_555 1_555
Ag1A_2 O2_2 1_555 1_555
O12 Ag1_2 1_555 1_555
C10 C11 1_555 1_555
Ag1 Ag1A 1_555 1_555
C2_2 C3_2 1_555 1_555
C10_2 C11_2 1_555 1_555
C12_2 O12_2 1_555 1_555
Ag1_3 Ag1A_2 1_555 1_555

#END
