
#######################################################################
#
#                 Cambridge Crystallographic Data Centre
#                                CCDC 
#
#######################################################################
#
# If this CIF has been generated from an entry in the Cambridge 
# Structural Database, then it will include bibliographic, chemical, 
# crystal, experimental, refinement or atomic coordinate data resulting 
# from the CCDC's data processing and validation procedures.
#
#######################################################################

data_FEJXAU
_symmetry_cell_setting           monoclinic
_symmetry_space_group_name_H-M   'C 2/c'
_symmetry_Int_Tables_number      15
_space_group_name_Hall           '-C 2yn'
loop_
_symmetry_equiv_pos_site_id
_symmetry_equiv_pos_as_xyz
1 x,y,z
2 1/2+x,1/2+y,z
3 -x,y,1/2-z
4 1/2-x,1/2+y,1/2-z
5 -x,-y,-z
6 1/2-x,1/2-y,-z
7 x,-y,1/2+z
8 1/2+x,1/2-y,1/2+z
_cell_length_a                   20.194(2)
_cell_length_b                   9.5131(9)
_cell_length_c                   11.4251(12)
_cell_angle_alpha                90
_cell_angle_beta                 117.022(2)
_cell_angle_gamma                90
_cell_volume                     1955.24
loop_
_atom_site_label
_atom_site_type_symbol
_atom_site_fract_x
_atom_site_fract_y
_atom_site_fract_z
Cu1 Cu 0.5000 0.0000 0.0000
N1 N 0.41460(14) 0.1046(3) 0.0106(3)
O1 O 0.50767(12) 0.1501(2) -0.1066(2)
O2 O 0.60702(16) 0.1996(3) 0.0799(2)
C1 C 0.3662(2) 0.1770(4) -0.0944(4)
H1 H 0.3765 0.1893 -0.1652
C2 C 0.30155(19) 0.2340(4) -0.1011(4)
H2 H 0.2689 0.2813 -0.1766
C3 C 0.28503(16) 0.2212(3) 0.0030(3)
C4 C 0.33660(18) 0.1495(4) 0.1124(3)
H3 H 0.3290 0.1402 0.1864
C5 C 0.39877(18) 0.0923(4) 0.1117(3)
H4 H 0.4316 0.0424 0.1853
C6 C 0.56725(19) 0.2202(3) -0.0386(3)
C7 C 0.59083(17) 0.3236(3) -0.1118(3)
C8 C 0.54121(17) 0.3948(3) -0.2258(3)
C9 C 0.56949(19) 0.4818(3) -0.2897(3)
H5 H 0.5368 0.5313 -0.3637
C10 C 0.6451(2) 0.4966(4) -0.2457(4)
H6 H 0.6631 0.5529 -0.2916
C11 C 0.69391(19) 0.4271(4) -0.1334(4)
H7 H 0.7449 0.4361 -0.1033
C12 C 0.66662(19) 0.3445(3) -0.0662(3)
H8 H 0.6998 0.3016 0.0117
Cu1A Cu 0.0000 0.5000 0.0000
Cu1F Cu 0.5000 0.0000 -0.5000
N1E N 0.08540(14) 0.3954(3) -0.0106(3)
N1D N 0.58540(14) -0.1046(3) -0.0106(3)
O1B O 0.49233(12) 0.1501(2) -0.3934(2)
O1D O 0.49233(12) -0.1501(2) 0.1066(2)
O2B O 0.39298(16) 0.1996(3) -0.5799(2)
C1E C 0.1338(2) 0.3230(4) 0.0944(4)
H1E H 0.1235 0.3107 0.1652
C2E C 0.19845(19) 0.2660(4) 0.1011(4)
H2E H 0.2311 0.2187 0.1766
C3E C 0.21497(16) 0.2788(3) -0.0030(3)
C4E C 0.16340(18) 0.3505(4) -0.1124(3)
H3E H 0.1710 0.3598 -0.1864
C5E C 0.10123(18) 0.4077(4) -0.1117(3)
H4E H 0.0684 0.4576 -0.1853
C6B C 0.43275(19) 0.2202(3) -0.4614(3)
C7B C 0.40917(17) 0.3236(3) -0.3882(3)
C8B C 0.45879(17) 0.3948(3) -0.2742(3)
C9B C 0.43051(19) 0.4818(3) -0.2103(3)
H5B H 0.4632 0.5313 -0.1363
C10B C 0.3549(2) 0.4966(4) -0.2543(4)
H6B H 0.3369 0.5529 -0.2084
C11B C 0.30609(19) 0.4271(4) -0.3666(4)
H7B H 0.2551 0.4361 -0.3967
C12B C 0.33338(19) 0.3445(3) -0.4338(3)
H8B H 0.3002 0.3016 -0.5117
loop_
_geom_bond_atom_site_label_1
_geom_bond_atom_site_label_2
_geom_bond_site_symmetry_1
_geom_bond_site_symmetry_2
Cu1 N1 1_555 1_555
N1 C1 1_555 1_555
O1 Cu1 1_555 1_555
O2 C6 1_555 1_555
C1 H1 1_555 1_555
C2 C1 1_555 1_555
H2 C2 1_555 1_555
C3 C2 1_555 1_555
C4 C3 1_555 1_555
H3 C4 1_555 1_555
C5 N1 1_555 1_555
H4 C5 1_555 1_555
C6 O1 1_555 1_555
C7 C6 1_555 1_555
C8 C7 1_555 1_555
C9 C8 1_555 1_555
H5 C9 1_555 1_555
C10 C9 1_555 1_555
H6 C10 1_555 1_555
C11 C10 1_555 1_555
H7 C11 1_555 1_555
C12 C7 1_555 1_555
H8 C12 1_555 1_555
Cu1A N1E 1_555 1_555
Cu1F O1B 1_555 1_555
N1E C1E 1_555 1_555
N1D Cu1 1_555 1_555
O1B C6B 1_555 1_555
O1D Cu1 1_555 1_555
O2B C6B 1_555 1_555
C1E H1E 1_555 1_555
C2E C1E 1_555 1_555
H2E C2E 1_555 1_555
C3E C3 1_555 1_555
C4E C3E 1_555 1_555
H3E C4E 1_555 1_555
C5E N1E 1_555 1_555
H4E C5E 1_555 1_555
C6B C7B 1_555 1_555
C7B C8B 1_555 1_555
C8B C8 1_555 1_555
C9B C8B 1_555 1_555
H5B C9B 1_555 1_555
C10B C9B 1_555 1_555
H6B C10B 1_555 1_555
C11B C10B 1_555 1_555
H7B C11B 1_555 1_555
C12B C7B 1_555 1_555
H8B C12B 1_555 1_555
C4 C5 1_555 1_555
C11 C12 1_555 1_555
C2E C3E 1_555 1_555
C4E C5E 1_555 1_555
C11B C12B 1_555 1_555

#END
