
#######################################################################
#
#                 Cambridge Crystallographic Data Centre
#                                CCDC 
#
#######################################################################
#
# If this CIF has been generated from an entry in the Cambridge 
# Structural Database, then it will include bibliographic, chemical, 
# crystal, experimental, refinement or atomic coordinate data resulting 
# from the CCDC's data processing and validation procedures.
#
#######################################################################

data_FEJYID
_symmetry_cell_setting           monoclinic
_symmetry_space_group_name_H-M   'C 2/c'
_symmetry_Int_Tables_number      15
_space_group_name_Hall           '-C 2yn'
loop_
_symmetry_equiv_pos_site_id
_symmetry_equiv_pos_as_xyz
1 x,y,z
2 1/2+x,1/2+y,z
3 -x,y,1/2-z
4 1/2-x,1/2+y,1/2-z
5 -x,-y,-z
6 1/2-x,1/2-y,-z
7 x,-y,1/2+z
8 1/2+x,1/2-y,1/2+z
_cell_length_a                   21.6169(3)
_cell_length_b                   6.5940(1)
_cell_length_c                   15.6015(3)
_cell_angle_alpha                90
_cell_angle_beta                 133.0573(8)
_cell_angle_gamma                90
_cell_volume                     1624.92
loop_
_atom_site_label
_atom_site_type_symbol
_atom_site_fract_x
_atom_site_fract_y
_atom_site_fract_z
Cd1 Cd 0.0000 0.70211(4) 0.2500
S1 S 0.22395(4) 1.23636(11) 0.58595(6)
O1 O 0.08520(11) 0.9996(3) 0.37087(16)
O2 O 0.13637(11) 0.6945(3) 0.44618(17)
O3 O 0.0000 0.3495(4) 0.2500
H1 H 0.0374 0.2738 0.3080
N1 N 0.06388(14) 1.2822(3) 0.6766(2)
C1 C 0.14270(14) 0.8844(4) 0.4519(2)
C2 C 0.22627(15) 0.9718(4) 0.5619(2)
H2 H 0.2445 0.8953 0.6305
H3 H 0.2694 0.9501 0.5577
C3 C 0.08934(18) 1.1020(5) 0.6717(3)
H4 H 0.0745 0.9854 0.6902
C4 C 0.13556(18) 1.0734(5) 0.6416(3)
H5 H 0.1512 0.9408 0.6385
C5 C 0.15909(17) 1.2429(4) 0.6158(2)
C6 C 0.13104(15) 1.4321(4) 0.6178(2)
H6 H 0.1438 1.5512 0.5981
C7 C 0.08476(16) 1.4442(4) 0.6485(2)
H7 H 0.0665 1.5742 0.6499
Cd1F Cd 0.0000 1.29789(4) 0.7500
Cd1F_2 Cd 0.0000 1.29789(4) -0.2500
S1B S -0.22395(4) 1.23636(11) -0.08595(6)
O1B O -0.08520(11) 0.9996(3) 0.12913(16)
O2B O -0.13637(11) 0.6945(3) 0.05382(17)
H1B H -0.0374 0.2738 0.1920
N1B N -0.06388(14) 1.2822(3) -0.1766(2)
N1F N 0.06388(14) 0.7178(3) 0.1766(2)
N1D N -0.06388(14) 0.7178(3) 0.3234(2)
C1B C -0.14270(14) 0.8844(4) 0.0481(2)
C2B C -0.22627(15) 0.9718(4) -0.0619(2)
H2B H -0.2445 0.8953 -0.1305
H3B H -0.2694 0.9501 -0.0577
C3B C -0.08934(18) 1.1020(5) -0.1717(3)
H4B H -0.0745 0.9854 -0.1902
C4B C -0.13556(18) 1.0734(5) -0.1416(3)
H5B H -0.1512 0.9408 -0.1385
C5B C -0.15909(17) 1.2429(4) -0.1158(2)
C6B C -0.13104(15) 1.4321(4) -0.1178(2)
H6B H -0.1438 1.5512 -0.0981
C7B C -0.08476(16) 1.4442(4) -0.1485(2)
H7B H -0.0665 1.5742 -0.1499
loop_
_geom_bond_atom_site_label_1
_geom_bond_atom_site_label_2
_geom_bond_site_symmetry_1
_geom_bond_site_symmetry_2
Cd1 O1 1_555 1_555
S1 C2 1_555 1_555
O1 C1 1_555 1_555
O2 Cd1 1_555 1_555
O3 Cd1 1_555 1_555
H1 O3 1_555 1_555
N1 C3 1_555 1_555
C1 O2 1_555 1_555
C2 C1 1_555 1_555
H2 C2 1_555 1_555
H3 C2 1_555 1_555
C3 H4 1_555 1_555
C4 C3 1_555 1_555
H5 C4 1_555 1_555
C5 S1 1_555 1_555
C6 C5 1_555 1_555
H6 C6 1_555 1_555
C7 N1 1_555 1_555
H7 C7 1_555 1_555
Cd1F N1 1_555 1_555
Cd1F_2 N1B 1_555 1_555
S1B C2B 1_555 1_555
O1B Cd1 1_555 1_555
O2B Cd1 1_555 1_555
H1B O3 1_555 1_555
N1B C3B 1_555 1_555
N1F Cd1 1_555 1_555
N1D Cd1 1_555 1_555
C1B O1B 1_555 1_555
C2B C1B 1_555 1_555
H2B C2B 1_555 1_555
H3B C2B 1_555 1_555
C3B H4B 1_555 1_555
C4B C3B 1_555 1_555
H5B C4B 1_555 1_555
C5B S1B 1_555 1_555
C6B C5B 1_555 1_555
H6B C6B 1_555 1_555
C7B N1B 1_555 1_555
H7B C7B 1_555 1_555
C4 C5 1_555 1_555
C6 C7 1_555 1_555
O2B C1B 1_555 1_555
C4B C5B 1_555 1_555
C6B C7B 1_555 1_555

#END
