
#######################################################################
#
#                 Cambridge Crystallographic Data Centre
#                                CCDC 
#
#######################################################################
#
# If this CIF has been generated from an entry in the Cambridge 
# Structural Database, then it will include bibliographic, chemical, 
# crystal, experimental, refinement or atomic coordinate data resulting 
# from the CCDC's data processing and validation procedures.
#
#######################################################################

data_FEJYAV
_symmetry_cell_setting           triclinic
_symmetry_space_group_name_H-M   'P -1'
_symmetry_Int_Tables_number      2
_space_group_name_Hall           '-P 1'
loop_
_symmetry_equiv_pos_site_id
_symmetry_equiv_pos_as_xyz
1 x,y,z
2 -x,-y,-z
_cell_length_a                   6.5035(7)
_cell_length_b                   7.2870(6)
_cell_length_c                   7.5566(8)
_cell_angle_alpha                70.180(6)
_cell_angle_beta                 80.994(7)
_cell_angle_gamma                86.808(8)
_cell_volume                     332.746
loop_
_atom_site_label
_atom_site_type_symbol
_atom_site_fract_x
_atom_site_fract_y
_atom_site_fract_z
Mn1 Mn 0.0000 0.0000 0.0000
O1 O 0.0906(3) 0.3077(2) -0.1510(2)
N1 N 0.0440(3) 0.4023(3) -0.3214(3)
N2 N 0.1995(4) -0.0913(3) -0.2216(3)
N3 N 0.3516(4) -0.1790(3) -0.5001(3)
N4 N 0.2425(4) -0.0418(3) -0.8161(3)
C1 C -0.1302(4) 0.5145(3) -0.3422(3)
C2 C -0.2679(5) 0.5256(4) -0.1695(4)
H1 H -0.2099 0.4479 -0.0582
H2 H -0.4035 0.4772 -0.1654
H3 H -0.2793 0.6587 -0.1732
C3 C 0.1714(4) 0.3883(3) -0.4753(3)
H4 H 0.2903 0.3112 -0.4580
C4 C 0.2642(4) -0.1268(3) -0.3565(3)
C5 C 0.2882(4) -0.1004(3) -0.6656(3)
Mn1_2 Mn 0.0000 0.0000 -1.0000
Mn1_3 Mn 0.0000 1.0000 -1.0000
Mn1_4 Mn 0.0000 0.0000 1.0000
O1A O -0.0906(3) 0.6923(2) -0.8490(2)
O1A_2 O -0.0906(3) -0.3077(2) 0.1510(2)
N1A N -0.0440(3) 0.5977(3) -0.6786(3)
N2A N -0.1995(4) 0.0913(3) 0.2216(3)
N3A N -0.3516(4) 0.1790(3) 0.5001(3)
N4A N -0.2425(4) 0.0418(3) 0.8161(3)
N4_2 N 0.2425(4) -0.0418(3) 0.1839(3)
N4A_2 N -0.2425(4) 0.0418(3) -0.1839(3)
C1A C 0.1302(4) 0.4855(3) -0.6578(3)
C2A C 0.2679(5) 0.4744(4) -0.8305(4)
H1A H 0.2099 0.5521 -0.9418
H2A H 0.4035 0.5228 -0.8346
H3A H 0.2793 0.3413 -0.8268
C3A C -0.1714(4) 0.6117(3) -0.5247(3)
H4A H -0.2903 0.6888 -0.5420
C4A C -0.2642(4) 0.1268(3) 0.3565(3)
C5A C -0.2882(4) 0.1004(3) 0.6656(3)
loop_
_geom_bond_atom_site_label_1
_geom_bond_atom_site_label_2
_geom_bond_site_symmetry_1
_geom_bond_site_symmetry_2
Mn1 O1 1_555 1_555
O1 N1 1_555 1_555
N1 C1 1_555 1_555
N2 Mn1 1_555 1_555
N3 C4 1_555 1_555
N4 C5 1_555 1_555
C1 C2 1_555 1_555
C2 H1 1_555 1_555
H2 C2 1_555 1_555
H3 C2 1_555 1_555
C3 N1 1_555 1_555
H4 C3 1_555 1_555
C4 N2 1_555 1_555
C5 N3 1_555 1_555
Mn1_2 N4 1_555 1_555
Mn1_3 O1A 1_555 1_555
Mn1_4 N4A 1_555 1_555
O1A N1A 1_555 1_555
O1A_2 Mn1 1_555 1_555
N1A C1A 1_555 1_555
N2A Mn1 1_555 1_555
N3A C4A 1_555 1_555
N4A C5A 1_555 1_555
N4_2 Mn1 1_555 1_555
N4A_2 Mn1 1_555 1_555
C1A C3 1_555 1_555
C2A C1A 1_555 1_555
H1A C2A 1_555 1_555
H2A C2A 1_555 1_555
H3A C2A 1_555 1_555
C3A C1 1_555 1_555
H4A C3A 1_555 1_555
C4A N2A 1_555 1_555
C5A N3A 1_555 1_555
N1A C3A 1_555 1_555

#END
