
#######################################################################
#
#                 Cambridge Crystallographic Data Centre
#                                CCDC 
#
#######################################################################
#
# If this CIF has been generated from an entry in the Cambridge 
# Structural Database, then it will include bibliographic, chemical, 
# crystal, experimental, refinement or atomic coordinate data resulting 
# from the CCDC's data processing and validation procedures.
#
#######################################################################

data_FEJYID01
_symmetry_cell_setting           monoclinic
_symmetry_space_group_name_H-M   'C 2/c'
_symmetry_Int_Tables_number      15
_space_group_name_Hall           '-C 2yn'
loop_
_symmetry_equiv_pos_site_id
_symmetry_equiv_pos_as_xyz
1 x,y,z
2 1/2+x,1/2+y,z
3 -x,y,1/2-z
4 1/2-x,1/2+y,1/2-z
5 -x,-y,-z
6 1/2-x,1/2-y,-z
7 x,-y,1/2+z
8 1/2+x,1/2-y,1/2+z
_cell_length_a                   21.659(6)
_cell_length_b                   6.5852(17)
_cell_length_c                   15.644(4)
_cell_angle_alpha                90
_cell_angle_beta                 132.798(3)
_cell_angle_gamma                90
_cell_volume                     1637.21
loop_
_atom_site_label
_atom_site_type_symbol
_atom_site_fract_x
_atom_site_fract_y
_atom_site_fract_z
Cd1 Cd 0.0000 0.70245(7) 0.2500
S1 S 0.22186(7) 1.23612(16) 0.58412(12)
O1 O 0.08526(18) 0.9990(4) 0.3710(3)
O2 O 0.13492(17) 0.6958(4) 0.4436(3)
O3 O 0.0000 0.3503(6) 0.2500
H1 H 0.0414 0.2748 0.3042
N1 N 0.0634(2) 1.2830(5) 0.6761(3)
C1 C 0.1315(3) 1.4314(6) 0.6188(4)
H2 H 0.1446 1.5487 0.6008
C2 C 0.0853(3) 1.4424(6) 0.6493(4)
H3 H 0.0680 1.5702 0.6513
C3 C 0.0874(3) 1.1037(7) 0.6681(4)
H4 H 0.0715 0.9886 0.6837
C4 C 0.1337(3) 1.0758(7) 0.6387(4)
H5 H 0.1482 0.9456 0.6346
C5 C 0.1585(3) 1.2428(5) 0.6151(4)
C6 C 0.2241(2) 0.9728(6) 0.5592(4)
H6 H 0.2419 0.8970 0.6259
H7 H 0.2663 0.9526 0.5549
C7 C 0.1421(3) 0.8841(7) 0.4508(4)
Cd1F Cd 0.0000 1.29755(7) 0.7500
Cd1F_2 Cd 0.0000 1.29755(7) -0.2500
S1B S -0.22186(7) 1.23612(16) -0.08412(12)
O1B O -0.08526(18) 0.9990(4) 0.1290(3)
O2B O -0.13492(17) 0.6958(4) 0.0564(3)
H1B H -0.0414 0.2748 0.1958
N1B N -0.0634(2) 1.2830(5) -0.1761(3)
N1F N 0.0634(2) 0.7170(5) 0.1761(3)
N1D N -0.0634(2) 0.7170(5) 0.3239(3)
C1B C -0.1315(3) 1.4314(6) -0.1188(4)
H2B H -0.1446 1.5487 -0.1008
C2B C -0.0853(3) 1.4424(6) -0.1493(4)
H3B H -0.0680 1.5702 -0.1513
C3B C -0.0874(3) 1.1037(7) -0.1681(4)
H4B H -0.0715 0.9886 -0.1837
C4B C -0.1337(3) 1.0758(7) -0.1387(4)
H5B H -0.1482 0.9456 -0.1346
C5B C -0.1585(3) 1.2428(5) -0.1151(4)
C6B C -0.2241(2) 0.9728(6) -0.0592(4)
H6B H -0.2419 0.8970 -0.1259
H7B H -0.2663 0.9526 -0.0549
C7B C -0.1421(3) 0.8841(7) 0.0492(4)
loop_
_geom_bond_atom_site_label_1
_geom_bond_atom_site_label_2
_geom_bond_site_symmetry_1
_geom_bond_site_symmetry_2
Cd1 O1 1_555 1_555
S1 C5 1_555 1_555
O1 C7 1_555 1_555
O2 Cd1 1_555 1_555
O3 Cd1 1_555 1_555
H1 O3 1_555 1_555
N1 C2 1_555 1_555
C1 H2 1_555 1_555
C2 C1 1_555 1_555
H3 C2 1_555 1_555
C3 N1 1_555 1_555
H4 C3 1_555 1_555
C4 C3 1_555 1_555
H5 C4 1_555 1_555
C5 C1 1_555 1_555
C6 S1 1_555 1_555
H6 C6 1_555 1_555
H7 C6 1_555 1_555
C7 O2 1_555 1_555
Cd1F N1 1_555 1_555
Cd1F_2 N1B 1_555 1_555
S1B C5B 1_555 1_555
O1B Cd1 1_555 1_555
O2B Cd1 1_555 1_555
H1B O3 1_555 1_555
N1B C2B 1_555 1_555
N1F Cd1 1_555 1_555
N1D Cd1 1_555 1_555
C1B H2B 1_555 1_555
C2B C1B 1_555 1_555
H3B C2B 1_555 1_555
C3B N1B 1_555 1_555
H4B C3B 1_555 1_555
C4B C3B 1_555 1_555
H5B C4B 1_555 1_555
C5B C1B 1_555 1_555
C6B S1B 1_555 1_555
H6B C6B 1_555 1_555
H7B C6B 1_555 1_555
C7B O1B 1_555 1_555
C4 C5 1_555 1_555
C6 C7 1_555 1_555
O2B C7B 1_555 1_555
C4B C5B 1_555 1_555
C6B C7B 1_555 1_555

#END
