
#######################################################################
#
#                 Cambridge Crystallographic Data Centre
#                                CCDC 
#
#######################################################################
#
# If this CIF has been generated from an entry in the Cambridge 
# Structural Database, then it will include bibliographic, chemical, 
# crystal, experimental, refinement or atomic coordinate data resulting 
# from the CCDC's data processing and validation procedures.
#
#######################################################################

data_FEKBIH
_symmetry_cell_setting           triclinic
_symmetry_space_group_name_H-M   'P -1'
_symmetry_Int_Tables_number      2
_space_group_name_Hall           '-P 1'
loop_
_symmetry_equiv_pos_site_id
_symmetry_equiv_pos_as_xyz
1 x,y,z
2 -x,-y,-z
_cell_length_a                   6.0565(3)
_cell_length_b                   9.6934(5)
_cell_length_c                   15.7351(8)
_cell_angle_alpha                87.5440(10)
_cell_angle_beta                 80.4840(10)
_cell_angle_gamma                76.7320(10)
_cell_volume                     886.735
loop_
_atom_site_label
_atom_site_type_symbol
_atom_site_fract_x
_atom_site_fract_y
_atom_site_fract_z
Cu1 Cu 0.21479(5) 0.30694(3) 0.243016(18)
V1 V 0.42179(7) 0.78192(5) 0.26420(3)
P1 P -0.01920(11) 0.65466(7) 0.25666(4)
P2 P 0.29752(11) 0.51883(7) 0.37545(4)
F1 F 0.4513(3) 0.89638(17) 0.16616(10)
O1 O 0.3273(3) 0.37525(19) 0.33567(11)
O2 O 0.0058(3) 0.5158(2) 0.21152(13)
O3 O 0.3207(3) 0.5066(2) 0.47098(12)
O4 O 0.4679(3) 0.60101(19) 0.32560(12)
O5 O 0.1736(3) 0.7292(2) 0.21855(12)
O6 O -0.2489(3) 0.7581(2) 0.25169(14)
O7 O 0.3064(3) 0.8922(2) 0.33925(12)
N1 N -0.0202(4) 0.2151(2) 0.31669(13)
N2 N 0.1495(3) 0.1901(2) 0.15762(13)
N3 N 0.4622(3) 0.3287(2) 0.14187(13)
C1 C -0.0952(5) 0.2321(3) 0.40120(16)
C2 C -0.2683(5) 0.1715(3) 0.44478(17)
C3 C -0.3691(5) 0.0925(3) 0.39817(17)
C4 C -0.2930(5) 0.0737(3) 0.31045(16)
C5 C -0.1172(4) 0.1346(2) 0.27173(15)
C6 C -0.0157(4) 0.1187(2) 0.18022(15)
C7 C -0.0768(4) 0.0401(2) 0.11949(15)
C8 C 0.0356(4) 0.0379(2) 0.03380(15)
C9 C 0.2136(4) 0.1096(2) 0.01331(15)
C10 C 0.2662(4) 0.1852(2) 0.07760(15)
C11 C 0.4459(4) 0.2676(2) 0.06800(15)
C12 C 0.5872(4) 0.2837(3) -0.00900(16)
C13 C 0.7490(4) 0.3647(3) -0.00959(16)
C14 C 0.7664(4) 0.4255(3) 0.06633(17)
C15 C 0.6199(4) 0.4052(3) 0.14089(16)
C16 C 0.0134(4) 0.6222(3) 0.36807(17)
H1 H -0.027(5) 0.286(3) 0.429(2)
H2 H -0.321(6) 0.191(4) 0.506(2)
H3 H -0.486(5) 0.051(3) 0.426(2)
H4 H -0.348(6) 0.025(4) 0.282(2)
H5 H -0.181(6) -0.005(3) 0.137(2)
H6 H 0.295(5) 0.112(3) -0.041(2)
H7 H 0.575(6) 0.246(3) -0.060(2)
H8 H 0.849(5) 0.379(3) -0.060(2)
H9 H 0.862(6) 0.475(3) 0.070(2)
H10 H 0.632(5) 0.441(3) 0.195(2)
H11 H -0.089(6) 0.579(4) 0.392(2)
H12 H -0.008(6) 0.704(4) 0.397(2)
Cu1A Cu -0.21479(5) -0.30694(3) -0.243016(18)
Cu1_2 Cu 1.21479(5) 0.30694(3) 0.243016(18)
V1_2 V -0.57821(7) 0.78192(5) 0.26420(3)
V1_3 V 1.42179(7) 0.78192(5) 0.26420(3)
P1_2 P 0.98080(11) 0.65466(7) 0.25666(4)
P2_2 P 1.29752(11) 0.51883(7) 0.37545(4)
F1_2 F -0.5487(3) 0.89638(17) 0.16616(10)
O1_2 O 1.3273(3) 0.37525(19) 0.33567(11)
O1A O -0.3273(3) -0.37525(19) -0.33567(11)
O2_2 O 1.0058(3) 0.5158(2) 0.21152(13)
O2A O -0.0058(3) -0.5158(2) -0.21152(13)
O3_2 O 1.3207(3) 0.5066(2) 0.47098(12)
O4_2 O 1.4679(3) 0.60101(19) 0.32560(12)
O4_3 O -0.5321(3) 0.60101(19) 0.32560(12)
O5_2 O 1.1736(3) 0.7292(2) 0.21855(12)
O5_3 O -0.8264(3) 0.7292(2) 0.21855(12)
O6_2 O 0.7511(3) 0.7581(2) 0.25169(14)
O7_2 O -0.6936(3) 0.8922(2) 0.33925(12)
N1A N 0.0202(4) -0.2151(2) -0.31669(13)
N2A N -0.1495(3) -0.1901(2) -0.15762(13)
N3A N -0.4622(3) -0.3287(2) -0.14187(13)
C1A C 0.0952(5) -0.2321(3) -0.40120(16)
C2A C 0.2683(5) -0.1715(3) -0.44478(17)
C3A C 0.3691(5) -0.0925(3) -0.39817(17)
C4A C 0.2930(5) -0.0737(3) -0.31045(16)
C5A C 0.1172(4) -0.1346(2) -0.27173(15)
C6A C 0.0157(4) -0.1187(2) -0.18022(15)
C7A C 0.0768(4) -0.0401(2) -0.11949(15)
C8A C -0.0356(4) -0.0379(2) -0.03380(15)
C9A C -0.2136(4) -0.1096(2) -0.01331(15)
C10A C -0.2662(4) -0.1852(2) -0.07760(15)
C11A C -0.4459(4) -0.2676(2) -0.06800(15)
C12A C -0.5872(4) -0.2837(3) 0.00900(16)
C13A C -0.7490(4) -0.3647(3) 0.00959(16)
C14A C -0.7664(4) -0.4255(3) -0.06633(17)
C15A C -0.6199(4) -0.4052(3) -0.14089(16)
C16_2 C 1.0134(4) 0.6222(3) 0.36807(17)
H1A H 0.027(5) -0.286(3) -0.429(2)
H2A H 0.321(6) -0.191(4) -0.506(2)
H3A H 0.486(5) -0.051(3) -0.426(2)
H4A H 0.348(6) -0.025(4) -0.282(2)
H5A H 0.181(6) 0.005(3) -0.137(2)
H6A H -0.295(5) -0.112(3) 0.041(2)
H7A H -0.575(6) -0.246(3) 0.060(2)
H8A H -0.849(5) -0.379(3) 0.060(2)
H9A H -0.862(6) -0.475(3) -0.070(2)
H10A H -0.632(5) -0.441(3) -0.195(2)
H11_2 H 0.911(6) 0.579(4) 0.392(2)
H12_2 H 0.992(6) 0.704(4) 0.397(2)
loop_
_geom_bond_atom_site_label_1
_geom_bond_atom_site_label_2
_geom_bond_site_symmetry_1
_geom_bond_site_symmetry_2
Cu1 O1 1_555 1_555
V1 F1 1_555 1_555
P1 O2 1_555 1_555
P2 O1 1_555 1_555
O2 Cu1 1_555 1_555
O3 P2 1_555 1_555
O4 V1 1_555 1_555
O5 V1 1_555 1_555
O6 P1 1_555 1_555
O7 V1 1_555 1_555
N1 Cu1 1_555 1_555
N2 Cu1 1_555 1_555
N3 Cu1 1_555 1_555
C1 N1 1_555 1_555
C2 C1 1_555 1_555
C3 C2 1_555 1_555
C4 C3 1_555 1_555
C5 N1 1_555 1_555
C6 N2 1_555 1_555
C7 C6 1_555 1_555
C8 C7 1_555 1_555
C9 C8 1_555 1_555
C10 N2 1_555 1_555
C11 N3 1_555 1_555
C12 C11 1_555 1_555
C13 C12 1_555 1_555
C14 C13 1_555 1_555
C15 N3 1_555 1_555
C16 P1 1_555 1_555
H1 C1 1_555 1_555
H2 C2 1_555 1_555
H3 C3 1_555 1_555
H4 C4 1_555 1_555
H5 C7 1_555 1_555
H6 C9 1_555 1_555
H7 C12 1_555 1_555
H8 C13 1_555 1_555
H9 C14 1_555 1_555
H10 C15 1_555 1_555
H11 C16 1_555 1_555
H12 C16 1_555 1_555
Cu1A O1A 1_555 1_555
Cu1_2 O1_2 1_555 1_555
V1_2 O6 1_555 1_555
V1_3 O4_2 1_555 1_555
P1_2 O2_2 1_555 1_555
P2_2 O1_2 1_555 1_555
F1_2 V1_2 1_555 1_555
O2_2 Cu1_2 1_555 1_555
O2A Cu1A 1_555 1_555
O3_2 P2_2 1_555 1_555
O4_2 P2_2 1_555 1_555
O4_3 V1_2 1_555 1_555
O5_2 V1_3 1_555 1_555
O5_3 V1_2 1_555 1_555
O6_2 V1 1_555 1_555
O7_2 V1_2 1_555 1_555
N1A Cu1A 1_555 1_555
N2A Cu1A 1_555 1_555
N3A Cu1A 1_555 1_555
C1A N1A 1_555 1_555
C2A C1A 1_555 1_555
C3A C2A 1_555 1_555
C4A C3A 1_555 1_555
C5A N1A 1_555 1_555
C6A N2A 1_555 1_555
C7A C6A 1_555 1_555
C8A C8 1_555 1_555
C9A C8A 1_555 1_555
C10A N2A 1_555 1_555
C11A N3A 1_555 1_555
C12A C11A 1_555 1_555
C13A C12A 1_555 1_555
C14A C13A 1_555 1_555
C15A N3A 1_555 1_555
C16_2 P1_2 1_555 1_555
H1A C1A 1_555 1_555
H2A C2A 1_555 1_555
H3A C3A 1_555 1_555
H4A C4A 1_555 1_555
H5A C7A 1_555 1_555
H6A C9A 1_555 1_555
H7A C12A 1_555 1_555
H8A C13A 1_555 1_555
H9A C14A 1_555 1_555
H10A C15A 1_555 1_555
H11_2 C16_2 1_555 1_555
H12_2 C16_2 1_555 1_555
P1 O5 1_555 1_555
P2 O4 1_555 1_555
P2 C16 1_555 1_555
C4 C5 1_555 1_555
C5 C6 1_555 1_555
C9 C10 1_555 1_555
C10 C11 1_555 1_555
C14 C15 1_555 1_555
P1_2 O5_2 1_555 1_555
P1_2 O6_2 1_555 1_555
P2_2 C16_2 1_555 1_555
C4A C5A 1_555 1_555
C5A C6A 1_555 1_555
C7A C8A 1_555 1_555
C9A C10A 1_555 1_555
C10A C11A 1_555 1_555
C14A C15A 1_555 1_555

#END
