
#######################################################################
#
#                 Cambridge Crystallographic Data Centre
#                                CCDC 
#
#######################################################################
#
# If this CIF has been generated from an entry in the Cambridge 
# Structural Database, then it will include bibliographic, chemical, 
# crystal, experimental, refinement or atomic coordinate data resulting 
# from the CCDC's data processing and validation procedures.
#
#######################################################################

data_FEKBON
_symmetry_cell_setting           triclinic
_symmetry_space_group_name_H-M   'P -1'
_symmetry_Int_Tables_number      2
_space_group_name_Hall           '-P 1'
loop_
_symmetry_equiv_pos_site_id
_symmetry_equiv_pos_as_xyz
1 x,y,z
2 -x,-y,-z
_cell_length_a                   10.2116(6)
_cell_length_b                   10.7482(6)
_cell_length_c                   11.0667(6)
_cell_angle_alpha                108.9150(10)
_cell_angle_beta                 109.9160(10)
_cell_angle_gamma                100.4530(10)
_cell_volume                     1020.51
loop_
_atom_site_label
_atom_site_type_symbol
_atom_site_fract_x
_atom_site_fract_y
_atom_site_fract_z
Cu1 Cu 0.13930(3) 0.13751(3) 0.25237(3)
V1 V 0.13388(5) 0.46182(4) 0.70865(4)
P1 P -0.29373(7) -0.02094(7) 0.50040(7)
P2 P -0.07744(7) 0.27485(7) 0.36448(7)
O1 O -0.0328(2) 0.17595(19) 0.26447(19)
O2 O 0.0555(2) 0.37427(19) 0.50287(19)
O3 O -0.1627(2) 0.35436(19) 0.2923(2)
O4 O -0.0054(2) 0.4213(2) 0.7396(2)
O5 O -0.2339(2) -0.12839(19) 0.5429(2)
O6 O -0.3041(2) 0.0892(2) 0.6279(2)
H1 H -0.3645 0.0506 0.6487
O7 O -0.4406(2) -0.0845(2) 0.3704(2)
O9 O 0.2251(2) 0.3089(2) 0.6892(2)
N1 N 0.0320(2) -0.0720(2) 0.1324(2)
N2 N 0.2708(2) 0.0871(2) 0.1657(2)
N3 N 0.2767(2) 0.3322(2) 0.3052(2)
C1 C -0.0957(3) -0.1462(3) 0.1208(3)
C2 C -0.1523(3) -0.2905(3) 0.0483(3)
C3 C -0.0738(3) -0.3599(3) -0.0135(3)
C4 C 0.0585(3) -0.2834(3) -0.0024(3)
C5 C 0.1077(3) -0.1401(2) 0.0707(2)
C6 C 0.2434(3) -0.0465(3) 0.0853(3)
C7 C 0.3320(3) -0.0849(3) 0.0185(3)
C8 C 0.4511(3) 0.0179(2) 0.0353(2)
C9 C 0.4749(3) 0.1570(3) 0.1173(3)
C10 C 0.3811(3) 0.1879(2) 0.1803(3)
C11 C 0.3834(3) 0.3290(3) 0.2588(3)
C12 C 0.4788(3) 0.4487(3) 0.2747(3)
C13 C 0.4656(4) 0.5766(3) 0.3405(4)
C14 C 0.3568(4) 0.5798(3) 0.3868(4)
C15 C 0.2646(3) 0.4563(3) 0.3689(3)
C16 C -0.1550(3) 0.0789(3) 0.4698(3)
C17 C -0.2084(3) 0.1732(3) 0.3997(3)
F1 F 0.30002(18) 0.55678(17) 0.88977(17)
H2 H -0.146(4) -0.103(4) 0.153(4)
H3 H -0.250(4) -0.342(4) 0.033(4)
H4 H -0.111(4) -0.463(3) -0.067(3)
H5 H 0.109(4) -0.321(4) -0.042(4)
H6 H 0.307(4) -0.172(4) -0.040(4)
H7 H 0.546(4) 0.223(4) 0.130(4)
H8 H 0.555(5) 0.448(5) 0.236(5)
H9 H 0.527(6) 0.657(5) 0.350(5)
H10 H 0.344(5) 0.659(5) 0.423(5)
H11 H 0.194(6) 0.447(6) 0.397(6)
H12 H -0.070(5) 0.138(4) 0.562(4)
H13 H -0.238(5) 0.245(4) 0.463(4)
H14 H -0.127(5) 0.018(4) 0.407(4)
H15 H -0.299(5) 0.117(5) 0.303(5)
Cu1A Cu -0.13930(3) -0.13751(3) 0.74763(3)
Cu1A_2 Cu 0.86070(3) -0.13751(3) -0.25237(3)
V1A V -0.13388(5) -0.46182(4) 0.29135(4)
V1A_2 V -0.13388(5) 0.53818(4) 0.29135(4)
V1_2 V 0.13388(5) -0.53818(4) 0.70865(4)
P1A P 0.29373(7) 0.02094(7) 0.49960(7)
P2A P 0.07744(7) -0.27485(7) 0.63552(7)
O1A O 0.0328(2) -0.17595(19) 0.73553(19)
O2A O -0.0555(2) -0.37427(19) 0.49713(19)
O3A O 0.1627(2) -0.35436(19) 0.7077(2)
O3A_2 O 0.1627(2) 0.64564(19) 0.7077(2)
O3_2 O -0.1627(2) -0.64564(19) 0.2923(2)
O4A O 0.0054(2) -0.4213(2) 0.2604(2)
O5A O 0.2339(2) 0.12839(19) 0.4571(2)
O6A O 0.3041(2) -0.0892(2) 0.3721(2)
H1A H 0.3645 -0.0506 0.3513
O7A O 0.4406(2) 0.0845(2) 0.6296(2)
O9A O -0.2251(2) -0.3089(2) 0.3108(2)
N1A N 0.9680(2) 0.0720(2) -0.1324(2)
N1A_2 N -0.0320(2) 0.0720(2) 0.8676(2)
N2A N 0.7292(2) -0.0871(2) -0.1657(2)
N2A_2 N -0.2708(2) -0.0871(2) 0.8343(2)
N3A N 0.7233(2) -0.3322(2) -0.3052(2)
N3A_2 N -0.2767(2) -0.3322(2) 0.6948(2)
C1A C 1.0957(3) 0.1462(3) -0.1208(3)
C2A C 1.1523(3) 0.2905(3) -0.0483(3)
C3A C 1.0738(3) 0.3599(3) 0.0135(3)
C4A C 0.9415(3) 0.2834(3) 0.0024(3)
C5A C 0.8923(3) 0.1401(2) -0.0707(2)
C6A C 0.7566(3) 0.0465(3) -0.0853(3)
C7A C 0.6680(3) 0.0849(3) -0.0185(3)
C8A C 0.5489(3) -0.0179(2) -0.0353(2)
C9A C 0.5251(3) -0.1570(3) -0.1173(3)
C10A C 0.6189(3) -0.1879(2) -0.1803(3)
C11A C 0.6166(3) -0.3290(3) -0.2588(3)
C12A C 0.5212(3) -0.4487(3) -0.2747(3)
C13A C 0.5344(4) -0.5766(3) -0.3405(4)
C14A C 0.6432(4) -0.5798(3) -0.3868(4)
C15A C 0.7354(3) -0.4563(3) -0.3689(3)
C16A C 0.1550(3) -0.0789(3) 0.5302(3)
C17A C 0.2084(3) -0.1732(3) 0.6003(3)
F1A F -0.30002(18) -0.55678(17) 0.11023(17)
H2A H 1.146(4) 0.103(4) -0.153(4)
H3A H 1.250(4) 0.342(4) -0.033(4)
H4A H 1.111(4) 0.463(3) 0.067(3)
H5A H 0.891(4) 0.321(4) 0.042(4)
H6A H 0.693(4) 0.172(4) 0.040(4)
H7A H 0.454(4) -0.223(4) -0.130(4)
H8A H 0.445(5) -0.448(5) -0.236(5)
H9A H 0.473(6) -0.657(5) -0.350(5)
H10A H 0.656(5) -0.659(5) -0.423(5)
H11A H 0.806(6) -0.447(6) -0.397(6)
H12A H 0.070(5) -0.138(4) 0.438(4)
H13A H 0.238(5) -0.245(4) 0.537(4)
H14A H 0.127(5) -0.018(4) 0.593(4)
H15A H 0.299(5) -0.117(5) 0.697(5)
O8 O 0.4460(2) 0.2730(2) 0.8711(2)
loop_
_geom_bond_atom_site_label_1
_geom_bond_atom_site_label_2
_geom_bond_site_symmetry_1
_geom_bond_site_symmetry_2
Cu1 O1 1_555 1_555
V1 O2 1_555 1_555
P1 O5 1_555 1_555
P2 O1 1_555 1_555
O2 P2 1_555 1_555
O3 P2 1_555 1_555
O4 V1 1_555 1_555
O5 Cu1A 1_555 1_555
O6 P1 1_555 1_555
H1 O6 1_555 1_555
O7 P1 1_555 1_555
O9 V1 1_555 1_555
N1 Cu1 1_555 1_555
N2 Cu1 1_555 1_555
N3 Cu1 1_555 1_555
C1 N1 1_555 1_555
C2 C1 1_555 1_555
C3 C2 1_555 1_555
C4 C3 1_555 1_555
C5 N1 1_555 1_555
C6 N2 1_555 1_555
C7 C6 1_555 1_555
C8 C7 1_555 1_555
C9 C8 1_555 1_555
C10 N2 1_555 1_555
C11 N3 1_555 1_555
C12 C11 1_555 1_555
C13 C12 1_555 1_555
C14 C13 1_555 1_555
C15 N3 1_555 1_555
C16 P1 1_555 1_555
C17 P2 1_555 1_555
F1 V1 1_555 1_555
H2 C1 1_555 1_555
H3 C2 1_555 1_555
H4 C3 1_555 1_555
H5 C4 1_555 1_555
H6 C7 1_555 1_555
H7 C9 1_555 1_555
H8 C12 1_555 1_555
H9 C13 1_555 1_555
H10 C14 1_555 1_555
H11 C15 1_555 1_555
H12 C16 1_555 1_555
H13 C17 1_555 1_555
H14 C16 1_555 1_555
H15 C17 1_555 1_555
Cu1A O1A 1_555 1_555
Cu1A_2 N1A 1_555 1_555
V1A O2A 1_555 1_555
V1A_2 O3 1_555 1_555
V1_2 O3A 1_555 1_555
P1A O5A 1_555 1_555
P2A O1A 1_555 1_555
O2A P2A 1_555 1_555
O3A P2A 1_555 1_555
O3A_2 V1 1_555 1_555
O3_2 V1A 1_555 1_555
O4A V1A 1_555 1_555
O5A Cu1 1_555 1_555
O6A P1A 1_555 1_555
H1A O6A 1_555 1_555
O7A P1A 1_555 1_555
O9A V1A 1_555 1_555
N1A C1A 1_555 1_555
N1A_2 Cu1A 1_555 1_555
N2A Cu1A_2 1_555 1_555
N2A_2 Cu1A 1_555 1_555
N3A Cu1A_2 1_555 1_555
N3A_2 Cu1A 1_555 1_555
C1A C2A 1_555 1_555
C2A C3A 1_555 1_555
C3A C4A 1_555 1_555
C4A C5A 1_555 1_555
C5A N1A 1_555 1_555
C6A N2A 1_555 1_555
C7A C6A 1_555 1_555
C8A C8 1_555 1_555
C9A C8A 1_555 1_555
C10A N2A 1_555 1_555
C11A N3A 1_555 1_555
C12A C11A 1_555 1_555
C13A C12A 1_555 1_555
C14A C13A 1_555 1_555
C15A N3A 1_555 1_555
C16A P1A 1_555 1_555
C17A P2A 1_555 1_555
F1A V1A 1_555 1_555
H2A C1A 1_555 1_555
H3A C2A 1_555 1_555
H4A C3A 1_555 1_555
H5A C4A 1_555 1_555
H6A C7A 1_555 1_555
H7A C9A 1_555 1_555
H8A C12A 1_555 1_555
H9A C13A 1_555 1_555
H10A C14A 1_555 1_555
H11A C15A 1_555 1_555
H12A C16A 1_555 1_555
H13A C17A 1_555 1_555
H14A C16A 1_555 1_555
H15A C17A 1_555 1_555
C4 C5 1_555 1_555
C5 C6 1_555 1_555
C9 C10 1_555 1_555
C10 C11 1_555 1_555
C14 C15 1_555 1_555
C16 C17 1_555 1_555
C5A C6A 1_555 1_555
C7A C8A 1_555 1_555
C9A C10A 1_555 1_555
C10A C11A 1_555 1_555
C14A C15A 1_555 1_555
C16A C17A 1_555 1_555

#END
