
#######################################################################
#
#                 Cambridge Crystallographic Data Centre
#                                CCDC 
#
#######################################################################
#
# If this CIF has been generated from an entry in the Cambridge 
# Structural Database, then it will include bibliographic, chemical, 
# crystal, experimental, refinement or atomic coordinate data resulting 
# from the CCDC's data processing and validation procedures.
#
#######################################################################

data_FEKCUU
_symmetry_cell_setting           monoclinic
_symmetry_space_group_name_H-M   'C 2/c'
_symmetry_Int_Tables_number      15
_space_group_name_Hall           '-C 2yn'
loop_
_symmetry_equiv_pos_site_id
_symmetry_equiv_pos_as_xyz
1 x,y,z
2 1/2+x,1/2+y,z
3 -x,y,1/2-z
4 1/2-x,1/2+y,1/2-z
5 -x,-y,-z
6 1/2-x,1/2-y,-z
7 x,-y,1/2+z
8 1/2+x,1/2-y,1/2+z
_cell_length_a                   23.4642(12)
_cell_length_b                   14.3545(7)
_cell_length_c                   17.1194(9)
_cell_angle_alpha                90
_cell_angle_beta                 127.5000(10)
_cell_angle_gamma                90
_cell_volume                     4574.56
loop_
_atom_site_label
_atom_site_type_symbol
_atom_site_fract_x
_atom_site_fract_y
_atom_site_fract_z
Cu1 Cu 0.29694(2) 0.37070(3) 0.35324(3)
V1 V 0.27865(3) 0.61890(4) 0.30749(4)
V2 V 0.02581(3) 0.59162(4) -0.43313(4)
P1 P 0.17491(4) 0.32159(6) 0.11418(6)
P2 P 0.10665(4) 0.39816(6) -0.33702(6)
F1 F -0.03903(9) 0.48735(12) -0.47181(13)
O1 O 0.23252(12) 0.36176(18) 0.21457(17)
O2 O 0.29225(12) 0.52515(16) 0.36982(17)
O3 O 0.19434(12) 0.21791(16) 0.10899(16)
O4 O 0.32861(13) 0.61556(18) 0.27158(18)
O5 O 0.18421(12) 0.36715(16) -0.29913(17)
O6 O 0.10402(11) 0.50334(16) -0.33426(16)
O7 O 0.09948(11) 0.32204(16) 0.08317(16)
O8 O 0.01247(12) 0.64772(16) -0.36460(17)
O9 O 0.05377(11) 0.35079(16) -0.43555(16)
N1 N 0.23409(13) 0.35572(19) 0.39492(19)
N2 N 0.36962(13) 0.36238(18) 0.49470(19)
N3 N 0.38723(14) 0.3794(2) 0.3637(2)
C1 C 0.16259(16) 0.3510(2) 0.3354(2)
H1 H 0.1386 0.3434 0.2681
C2 C 0.12258(17) 0.3570(2) 0.3709(2)
H2 H 0.0727 0.3549 0.3278
C3 C 0.15843(17) 0.3663(2) 0.4714(2)
H3 H 0.1330 0.3698 0.4968
C4 C 0.23368(16) 0.3702(2) 0.5340(2)
H4 H 0.2590 0.3764 0.6017
C5 C 0.26928(16) 0.3650(2) 0.4941(2)
C6 C 0.34862(17) 0.3662(2) 0.5517(2)
C7 C 0.39897(17) 0.3692(2) 0.6529(2)
H5 H 0.3844 0.3745 0.6926
C8 C 0.47257(16) 0.3639(2) 0.6956(2)
C9 C 0.49189(17) 0.3589(2) 0.6331(2)
H6 H 0.5400 0.3541 0.6590
C10 C 0.43896(16) 0.3612(2) 0.5322(2)
C11 C 0.44950(16) 0.3693(2) 0.4562(2)
C12 C 0.51533(18) 0.3728(3) 0.4747(3)
H7 H 0.5573 0.3631 0.5380
C13 C 0.51820(19) 0.3907(3) 0.3976(3)
H8 H 0.5621 0.3933 0.4085
C14 C 0.4546(2) 0.4049(3) 0.3040(3)
H9 H 0.4554 0.4192 0.2516
C15 C 0.39014(19) 0.3975(3) 0.2895(3)
H10 H 0.3475 0.4053 0.2264
C16 C 0.17925(18) 0.3810(2) 0.0263(2)
H11 H 0.1664 0.4457 0.0239
H12 H 0.2285 0.3795 0.0490
C17 C 0.1309(2) 0.3414(3) -0.0779(3)
H13 H 0.1400 0.2751 -0.0752
H14 H 0.0811 0.3492 -0.1040
C18 C 0.0943(2) 0.3504(3) -0.2514(3)
H15 H 0.1013 0.2835 -0.2489
H16 H 0.0448 0.3609 -0.2775
C19 C 0.1421(2) 0.3872(3) -0.1474(3)
H17 H 0.1918 0.3787 -0.1214
H18 H 0.1338 0.4536 -0.1490
Cu1B Cu 0.70306(2) 0.37070(3) 1.14676(3)
Cu1C Cu 0.20306(2) 0.87070(3) 0.14676(3)
V1C V 0.22135(3) 0.11890(4) 0.19251(4)
V1F V 0.27865(3) 0.38110(4) -0.19251(4)
V1E V 0.22135(3) 0.88110(4) 0.69251(4)
V1B V 0.72135(3) 0.61890(4) 1.19251(4)
V2F V 0.02581(3) 0.40838(4) 0.06687(4)
V2D V -0.02581(3) 0.40838(4) -0.56687(4)
V2C V 0.47419(3) 1.09162(4) 0.93313(4)
V2E V 0.47419(3) 0.90838(4) 0.43313(4)
V2G V 0.52581(3) 0.90838(4) 1.06687(4)
P1C P 0.32509(4) 0.82159(6) 0.38582(6)
P2C P 0.39335(4) 0.89816(6) 0.83702(6)
F1D F 0.03903(9) 0.51265(12) -0.52819(13)
F1F F -0.03903(9) 0.51265(12) 0.02819(13)
F1B F 0.03903(9) 0.48735(12) -0.02819(13)
O1C O 0.26748(12) 0.86176(18) 0.28543(17)
O1B O 0.76748(12) 0.36176(18) 1.28543(17)
O2B O 0.70775(12) 0.52515(16) 1.13018(17)
O2C O 0.20775(12) 0.02515(16) 0.13018(17)
O3C O 0.30566(12) 0.71791(16) 0.39101(16)
O4C O 0.17139(13) 0.11556(18) 0.22842(18)
O5C O 0.31579(12) 0.86715(16) 0.79913(17)
O5F O 0.18421(12) 0.63285(16) 0.20087(17)
O5E O 0.31579(12) 0.13285(16) 0.29913(17)
O6C O 0.39598(11) 1.00334(16) 0.83426(16)
O6F O 0.10402(11) 0.49666(16) 0.16574(16)
O7C O 0.40052(11) 0.82204(16) 0.41683(16)
O7F O 0.09948(11) 0.67796(16) -0.41683(16)
O8F O 0.01247(12) 0.35228(16) 0.13540(17)
O9C O 0.44623(11) 0.85079(16) 0.93555(16)
O9D O -0.05377(11) 0.64921(16) -0.56445(16)
O9B O -0.05377(11) 0.35079(16) -0.06445(16)
N1B N 0.76591(13) 0.35572(19) 1.10508(19)
N2B N 0.63038(13) 0.36238(18) 1.00530(19)
N3B N 0.61277(14) 0.3794(2) 1.1363(2)
C1B C 0.83741(16) 0.3510(2) 1.1646(2)
H1B H 0.8614 0.3434 1.2319
C2B C 0.87742(17) 0.3570(2) 1.1291(2)
H2B H 0.9273 0.3549 1.1722
C3B C 0.84157(17) 0.3663(2) 1.0286(2)
H3B H 0.8670 0.3698 1.0032
C4B C 0.76632(16) 0.3702(2) 0.9660(2)
H4B H 0.7410 0.3764 0.8983
C5B C 0.73072(16) 0.3650(2) 1.0059(2)
C6B C 0.65138(17) 0.3662(2) 0.9483(2)
C7B C 0.60103(17) 0.3692(2) 0.8471(2)
H5B H 0.6156 0.3745 0.8074
C8B C 0.52743(16) 0.3639(2) 0.8044(2)
C9B C 0.50811(17) 0.3589(2) 0.8669(2)
H6B H 0.4600 0.3541 0.8410
C10B C 0.56104(16) 0.3612(2) 0.9678(2)
C11B C 0.55050(16) 0.3693(2) 1.0438(2)
C12B C 0.48467(18) 0.3728(3) 1.0253(3)
H7B H 0.4427 0.3631 0.9620
C13B C 0.48180(19) 0.3907(3) 1.1024(3)
H8B H 0.4379 0.3933 1.0915
C14B C 0.5454(2) 0.4049(3) 1.1960(3)
H9B H 0.5446 0.4192 1.2484
C15B C 0.60986(19) 0.3975(3) 1.2105(3)
H10B H 0.6525 0.4053 1.2736
C16C C 0.32075(18) 0.8810(2) 0.4737(2)
H11C H 0.3336 0.9457 0.4761
H12C H 0.2715 0.8795 0.4510
C17C C 0.3691(2) 0.8414(3) 0.5779(3)
H13C H 0.3600 0.7751 0.5752
H14C H 0.4189 0.8492 0.6040
C18C C 0.4057(2) 0.8504(3) 0.7514(3)
H15C H 0.3987 0.7835 0.7489
H16C H 0.4552 0.8609 0.7775
C19C C 0.3579(2) 0.8872(3) 0.6474(3)
H17C H 0.3082 0.8787 0.6214
H18C H 0.3662 0.9536 0.6490
loop_
_geom_bond_atom_site_label_1
_geom_bond_atom_site_label_2
_geom_bond_site_symmetry_1
_geom_bond_site_symmetry_2
Cu1 O1 1_555 1_555
V1 O2 1_555 1_555
V2 F1 1_555 1_555
P1 O1 1_555 1_555
P2 O5 1_555 1_555
F1 V2D 1_555 1_555
O2 Cu1 1_555 1_555
O3 P1 1_555 1_555
O4 V1 1_555 1_555
O5 V1F 1_555 1_555
O6 V2 1_555 1_555
O7 P1 1_555 1_555
O8 V2 1_555 1_555
O9 P2 1_555 1_555
N1 Cu1 1_555 1_555
N2 Cu1 1_555 1_555
N3 Cu1 1_555 1_555
C1 N1 1_555 1_555
H1 C1 1_555 1_555
C2 C1 1_555 1_555
H2 C2 1_555 1_555
C3 C2 1_555 1_555
H3 C3 1_555 1_555
C4 C3 1_555 1_555
H4 C4 1_555 1_555
C5 N1 1_555 1_555
C6 N2 1_555 1_555
C7 C6 1_555 1_555
H5 C7 1_555 1_555
C8 C7 1_555 1_555
C9 C8 1_555 1_555
H6 C9 1_555 1_555
C10 N2 1_555 1_555
C11 N3 1_555 1_555
C12 C11 1_555 1_555
H7 C12 1_555 1_555
C13 C12 1_555 1_555
H8 C13 1_555 1_555
C14 C13 1_555 1_555
H9 C14 1_555 1_555
C15 N3 1_555 1_555
H10 C15 1_555 1_555
C16 P1 1_555 1_555
H11 C16 1_555 1_555
H12 C16 1_555 1_555
C17 C16 1_555 1_555
H13 C17 1_555 1_555
H14 C17 1_555 1_555
C18 P2 1_555 1_555
H15 C18 1_555 1_555
H16 C18 1_555 1_555
C19 C17 1_555 1_555
H17 C19 1_555 1_555
H18 C19 1_555 1_555
Cu1B O1B 1_555 1_555
Cu1C O1C 1_555 1_555
V1C O3 1_555 1_555
V1E O5C 1_555 1_555
V1B O2B 1_555 1_555
V2F O7 1_555 1_555
V2D O9 1_555 1_555
V2C O6C 1_555 1_555
V2E O7C 1_555 1_555
V2G O9C 1_555 1_555
P1C O1C 1_555 1_555
P2C O5C 1_555 1_555
F1D V2 1_555 1_555
F1F V2F 1_555 1_555
F1B V2F 1_555 1_555
O2B Cu1B 1_555 1_555
O2C V1C 1_555 1_555
O3C V1 1_555 1_555
O4C V1C 1_555 1_555
O5F V1 1_555 1_555
O5E V1C 1_555 1_555
O6C P2C 1_555 1_555
O6F V2F 1_555 1_555
O7C P1C 1_555 1_555
O7F V2 1_555 1_555
O8F V2F 1_555 1_555
O9C P2C 1_555 1_555
O9D V2 1_555 1_555
O9B V2F 1_555 1_555
N1B Cu1B 1_555 1_555
N2B Cu1B 1_555 1_555
N3B Cu1B 1_555 1_555
C1B N1B 1_555 1_555
H1B C1B 1_555 1_555
C2B C1B 1_555 1_555
H2B C2B 1_555 1_555
C3B C2B 1_555 1_555
H3B C3B 1_555 1_555
C4B C3B 1_555 1_555
H4B C4B 1_555 1_555
C5B N1B 1_555 1_555
C6B N2B 1_555 1_555
C7B C6B 1_555 1_555
H5B C7B 1_555 1_555
C8B C8 1_555 1_555
C9B C8B 1_555 1_555
H6B C9B 1_555 1_555
C10B N2B 1_555 1_555
C11B N3B 1_555 1_555
C12B C11B 1_555 1_555
H7B C12B 1_555 1_555
C13B C12B 1_555 1_555
H8B C13B 1_555 1_555
C14B C13B 1_555 1_555
H9B C14B 1_555 1_555
C15B N3B 1_555 1_555
H10B C15B 1_555 1_555
C16C P1C 1_555 1_555
H11C C16C 1_555 1_555
H12C C16C 1_555 1_555
C17C C16C 1_555 1_555
H13C C17C 1_555 1_555
H14C C17C 1_555 1_555
C18C P2C 1_555 1_555
H15C C18C 1_555 1_555
H16C C18C 1_555 1_555
C19C C17C 1_555 1_555
H17C C19C 1_555 1_555
H18C C19C 1_555 1_555
P2 O6 1_555 1_555
C4 C5 1_555 1_555
C5 C6 1_555 1_555
C9 C10 1_555 1_555
C10 C11 1_555 1_555
C14 C15 1_555 1_555
C18 C19 1_555 1_555
V2D F1D 1_555 1_555
P1C O3C 1_555 1_555
C4B C5B 1_555 1_555
C5B C6B 1_555 1_555
C7B C8B 1_555 1_555
C9B C10B 1_555 1_555
C10B C11B 1_555 1_555
C14B C15B 1_555 1_555
C18C C19C 1_555 1_555

#END
