
#######################################################################
#
#                 Cambridge Crystallographic Data Centre
#                                CCDC 
#
#######################################################################
#
# If this CIF has been generated from an entry in the Cambridge 
# Structural Database, then it will include bibliographic, chemical, 
# crystal, experimental, refinement or atomic coordinate data resulting 
# from the CCDC's data processing and validation procedures.
#
#######################################################################

data_FEKCOO
_symmetry_cell_setting           triclinic
_symmetry_space_group_name_H-M   'P -1'
_symmetry_Int_Tables_number      2
_space_group_name_Hall           '-P 1'
loop_
_symmetry_equiv_pos_site_id
_symmetry_equiv_pos_as_xyz
1 x,y,z
2 -x,-y,-z
_cell_length_a                   13.3517(8)
_cell_length_b                   14.1008(9)
_cell_length_c                   15.2997(10)
_cell_angle_alpha                77.7850(10)
_cell_angle_beta                 77.1100(10)
_cell_angle_gamma                81.1780(10)
_cell_volume                     2727.22
loop_
_atom_site_label
_atom_site_type_symbol
_atom_site_fract_x
_atom_site_fract_y
_atom_site_fract_z
Cu1 Cu 0.35954(2) 0.328067(19) 0.783276(18)
Cu2 Cu 0.12324(2) 0.30649(2) 0.614972(18)
Cu3 Cu 0.04579(2) 0.91017(2) 0.318920(18)
V1 V 0.26324(4) 0.62371(3) 0.92619(3)
V2 V -0.17965(3) 0.89447(3) 0.67405(3)
P1 P 0.43378(5) 0.54150(5) 0.76994(4)
P2 P 0.25202(4) 0.47210(4) 0.62427(4)
P3 P -0.03623(4) 0.77462(4) 0.51887(4)
P4 P 0.62306(4) 0.86999(4) 0.74680(4)
O1 O 0.1394(2) 0.6518(2) 0.93266(18)
O2 O 0.3090(3) 0.7227(2) 0.9297(2)
O3 O 0.32369(15) 0.58470(15) 0.81797(14)
O4 O 0.44470(15) 0.57625(14) 0.66783(12)
O5 O 0.44644(15) 0.43249(13) 0.80167(13)
O6 O 0.26475(13) 0.40417(12) 0.71331(11)
O7 O 0.35653(13) 0.51015(12) 0.57070(11)
H1 H 0.3858 0.5283 0.6066
O8 O 0.20878(13) 0.42645(12) 0.56183(11)
O9 O -0.08249(13) 0.69033(12) 0.50071(11)
O10 O 0.03054(14) 0.82583(13) 0.43322(12)
O11 O -0.12014(13) 0.84796(12) 0.56172(11)
O12 O 0.15298(13) 0.99142(12) 0.35204(11)
O13 O -0.10244(13) 0.83064(12) 0.73822(11)
O14 O 0.70397(12) 0.91089(11) 0.78467(11)
O15 O 0.68761(13) 0.86275(13) 0.65050(11)
O16 O 0.52012(13) 0.93011(13) 0.75160(12)
O17 O 0.28382(17) 0.53287(17) 1.01949(14)
H2 H 0.3387 0.4969 1.0046
N1 N 0.25021(15) 0.32965(14) 0.90147(13)
N2 N 0.40950(15) 0.21061(13) 0.86038(13)
N3 N 0.47942(15) 0.27108(13) 0.69052(13)
N4 N -0.00226(15) 0.38624(14) 0.68053(13)
N5 N 0.11744(15) 0.24070(14) 0.74284(13)
N6 N 0.24592(15) 0.20478(14) 0.60155(13)
N7 N 0.15746(15) -0.18356(14) 1.25436(13)
N8 N 0.05865(15) -0.02376(14) 1.19192(13)
N9 N -0.08392(15) 0.01011(14) 1.32777(13)
C1 C 0.1677(2) 0.39513(18) 0.91531(18)
H3 H 0.1556 0.4473 0.8669
C2 C 0.0989(2) 0.38918(19) 0.99845(19)
H4 H 0.0388 0.4348 1.0057
C3 C 0.1184(2) 0.31653(18) 1.07049(17)
H5 H 0.0728 0.3126 1.1282
C4 C 0.20557(18) 0.24897(17) 1.05768(16)
H6 H 0.2214 0.1986 1.1063
C5 C 0.26845(17) 0.25757(16) 0.97179(15)
C6 C 0.35986(17) 0.18777(16) 0.94743(15)
C7 C 0.39371(18) 0.10495(16) 1.00439(15)
H7 H 0.3581 0.0890 1.0658
C8 C 0.48117(18) 0.04489(15) 0.97038(15)
C9 C 0.53121(18) 0.07052(16) 0.87991(15)
H8 H 0.5911 0.0314 0.8554
C10 C 0.49216(17) 0.15411(15) 0.82614(15)
C11 C 0.53501(18) 0.19057(15) 0.72911(15)
C12 C 0.62546(18) 0.14762(16) 0.68219(15)
H9 H 0.6615 0.0901 0.7106
C13 C 0.66243(18) 0.19057(17) 0.59250(16)
H10 H 0.7260 0.1646 0.5594
C14 C 0.6053(2) 0.27171(17) 0.55199(16)
H11 H 0.6280 0.3008 0.4901
C15 C 0.51416(19) 0.31007(17) 0.60309(16)
H12 H 0.4753 0.3658 0.5751
C16 C -0.05577(18) 0.46637(17) 0.64238(16)
H13 H -0.0438 0.4832 0.5777
C17 C -0.12808(19) 0.52624(18) 0.69278(17)
H14 H -0.1644 0.5829 0.6634
C18 C -0.14562(19) 0.50095(18) 0.78706(17)
H15 H -0.1945 0.5403 0.8235
C19 C -0.09108(19) 0.41726(17) 0.82800(16)
H16 H -0.1020 0.3989 0.8925
C20 C -0.02083(18) 0.36151(17) 0.77309(15)
C21 C 0.04251(17) 0.27131(16) 0.80790(15)
C22 C 0.03022(19) 0.22069(17) 0.89735(16)
H17 H -0.0236 0.2427 0.9432
C23 C 0.09825(18) 0.13645(17) 0.91947(15)
C24 C 0.17810(18) 0.10814(16) 0.84993(15)
H18 H 0.2264 0.0527 0.8628
C25 C 0.18559(18) 0.16246(16) 0.76162(15)
C26 C 0.26464(17) 0.14548(16) 0.68013(15)
C27 C 0.35169(18) 0.07851(17) 0.68211(16)
H19 H 0.3628 0.0369 0.7375
C28 C 0.42298(19) 0.07356(18) 0.60061(16)
H20 H 0.4844 0.0294 0.6000
C29 C 0.40343(19) 0.13346(18) 0.52095(16)
H21 H 0.4510 0.1306 0.4649
C30 C 0.31327(19) 0.19806(17) 0.52359(16)
H22 H 0.2993 0.2384 0.4685
C31 C 0.20048(19) -0.26919(17) 1.29346(16)
H23 H 0.1748 -0.2932 1.3561
C32 C 0.2815(2) -0.32471(17) 1.24607(17)
H24 H 0.3104 -0.3857 1.2755
C33 C 0.3190(2) -0.28864(18) 1.15483(18)
H25 H 0.3740 -0.3249 1.1206
C34 C 0.27523(19) -0.19871(18) 1.11370(17)
H26 H 0.3009 -0.1723 1.0516
C35 C 0.19390(18) -0.14861(16) 1.16482(15)
C36 C 0.13574(18) -0.05533(16) 1.12837(15)
C37 C 0.15196(18) -0.00447(17) 1.03864(15)
H27 H 0.2076 -0.0264 0.9942
C38 C 0.08492(18) 0.07977(16) 1.01477(15)
C39 C 0.00422(18) 0.10892(17) 1.08274(15)
H28 H -0.0429 0.1649 1.0685
C40 C -0.00678(18) 0.05550(16) 1.17129(15)
C41 C -0.09040(18) 0.07426(17) 1.24889(16)
C42 C -0.1712(2) 0.14801(19) 1.24190(17)
H29 H -0.1726 0.1933 1.1864
C43 C -0.2504(2) 0.1547(2) 1.31754(17)
H30 H -0.3072 0.2041 1.3144
C44 C -0.24490(19) 0.08830(18) 1.39737(17)
H31 H -0.2990 0.0905 1.4494
C45 C -0.15970(19) 0.01821(17) 1.40111(16)
H32 H -0.1549 -0.0252 1.4571
C46 C 0.5331(2) 0.70184(17) 0.76767(17)
H33 H 0.5574 0.7089 0.7008
H34 H 0.4630 0.7378 0.7790
C47 C 0.5267(2) 0.59348(18) 0.80911(17)
H35 H 0.5081 0.5860 0.8764
H36 H 0.5957 0.5568 0.7934
C48 C 0.04417(18) 0.72337(16) 0.60099(16)
H37 H -0.0003 0.6973 0.6595
H38 H 0.0788 0.7760 0.6115
C49 C 0.12652(18) 0.64184(16) 0.57218(15)
H39 H 0.0971 0.6016 0.5405
H40 H 0.1854 0.6710 0.5287
C50 C 0.16563(18) 0.57641(16) 0.65393(15)
H41 H 0.2018 0.6154 0.6813
H42 H 0.1056 0.5537 0.7005
C51 C 0.60572(19) 0.74731(17) 0.80702(17)
H43 H 0.6736 0.7070 0.8025
H44 H 0.5768 0.7483 0.8723
Cu1A Cu 0.64046(2) -0.328067(19) 1.216724(18)
Cu1A_2 Cu -0.35954(2) 0.671933(19) 0.216724(18)
Cu1_2 Cu -0.64046(2) 0.328067(19) 0.783276(18)
Cu2A Cu -0.12324(2) 0.69351(2) 0.385028(18)
Cu2_2 Cu 0.12324(2) 1.30649(2) -0.385028(18)
Cu3A Cu -0.04579(2) 0.08983(2) 0.681080(18)
Cu3_2 Cu 0.04579(2) -0.08983(2) 1.318920(18)
Cu3A_2 Cu -0.04579(2) 1.08983(2) 0.681080(18)
V1_2 V -0.73676(4) 0.62371(3) 0.92619(3)
V2_2 V 0.82035(3) 0.89447(3) 0.67405(3)
V2A V 0.17965(3) 1.10553(3) 0.32595(3)
V2A_2 V 0.17965(3) 0.10553(3) 0.32595(3)
P1_2 P -0.56622(5) 0.54150(5) 0.76994(4)
P2A P -0.25202(4) 0.52790(4) 0.37573(4)
P3A P 0.03623(4) 0.22538(4) 0.48113(4)
P4_2 P -0.37694(4) 0.86999(4) 0.74680(4)
O1_2 O -0.8606(2) 0.6518(2) 0.93266(18)
O2_2 O -0.6910(3) 0.7227(2) 0.9297(2)
O3_2 O -0.67631(15) 0.58470(15) 0.81797(14)
O4_2 O -0.55530(15) 0.57625(14) 0.66783(12)
O5_2 O -0.55356(15) 0.43249(13) 0.80167(13)
O5A O 0.55356(15) -0.43249(13) 1.19833(13)
O6A O -0.26475(13) 0.59583(12) 0.28669(11)
O6A_2 O 0.73525(13) -0.40417(12) 1.28669(11)
O7A O -0.35653(13) 0.48985(12) 0.42930(11)
H1A H -0.3858 0.4717 0.3934
O8A O -0.20878(13) 0.57355(12) 0.43817(11)
O9A O 0.08249(13) 0.30967(12) 0.49929(11)
O10A O -0.03054(14) 0.17417(13) 0.56678(12)
O11A O 0.12014(13) 0.15204(12) 0.43828(11)
O11_2 O 0.87986(13) 0.84796(12) 0.56172(11)
O12A O -0.15298(13) 1.00858(12) 0.64796(11)
O12A_2 O 0.84702(13) 1.00858(12) 0.64796(11)
O12A_3 O -0.15298(13) 0.00858(12) 0.64796(11)
O13_2 O 0.89756(13) 0.83064(12) 0.73822(11)
O14_2 O -0.29603(12) 0.91089(11) 0.78467(11)
O15_2 O -0.31239(13) 0.86275(13) 0.65050(11)
O16_2 O -0.47988(13) 0.93011(13) 0.75160(12)
O17_2 O -0.71618(17) 0.53287(17) 1.01949(14)
H2_2 H -0.6613 0.4969 1.0046
N1A N 0.74979(15) -0.32965(14) 1.09853(13)
N2A N 0.59050(15) -0.21061(13) 1.13962(13)
N3A N 0.52058(15) -0.27108(13) 1.30948(13)
N4_2 N -0.00226(15) 1.38624(14) -0.31947(13)
N4A N 0.00226(15) 0.61376(14) 0.31947(13)
N5_2 N 0.11744(15) 1.24070(14) -0.25716(13)
N5A N -0.11744(15) 0.75930(14) 0.25716(13)
N6_2 N 0.24592(15) 1.20478(14) -0.39845(13)
N6A N -0.24592(15) 0.79522(14) 0.39845(13)
N7_2 N 0.15746(15) 0.81644(14) 0.25436(13)
N7A N -0.15746(15) 0.18356(14) 0.74564(13)
N8_2 N 0.05865(15) 0.97624(14) 0.19192(13)
N8A N -0.05865(15) 0.02376(14) 0.80808(13)
N9_2 N -0.08392(15) 1.01011(14) 0.32777(13)
N9A N 0.08392(15) -0.01011(14) 0.67223(13)
C1A C 0.8323(2) -0.39513(18) 1.08469(18)
H3A H 0.8444 -0.4473 1.1331
C2A C 0.9011(2) -0.38918(19) 1.00155(19)
H4A H 0.9612 -0.4348 0.9943
C3A C 0.8816(2) -0.31653(18) 0.92951(17)
H5A H 0.9272 -0.3126 0.8718
C4A C 0.79443(18) -0.24897(17) 0.94232(16)
H6A H 0.7786 -0.1986 0.8937
C5A C 0.73155(17) -0.25757(16) 1.02821(15)
C6A C 0.64014(17) -0.18777(16) 1.05257(15)
C7A C 0.60629(18) -0.10495(16) 0.99561(15)
H7A H 0.6419 -0.0890 0.9342
C8A C 0.51883(18) -0.04489(15) 1.02962(15)
C9A C 0.46879(18) -0.07052(16) 1.12009(15)
H8A H 0.4089 -0.0314 1.1446
C10A C 0.50784(17) -0.15411(15) 1.17386(15)
C11A C 0.46499(18) -0.19057(15) 1.27089(15)
C12A C 0.37454(18) -0.14762(16) 1.31781(15)
H9A H 0.3385 -0.0901 1.2894
C13A C 0.33757(18) -0.19057(17) 1.40750(16)
H10A H 0.2740 -0.1646 1.4406
C14A C 0.3947(2) -0.27171(17) 1.44801(16)
H11A H 0.3720 -0.3008 1.5099
C15A C 0.48584(19) -0.31007(17) 1.39691(16)
H12A H 0.5247 -0.3658 1.4249
C16_2 C -0.05577(18) 1.46637(17) -0.35762(16)
H13_2 H -0.0438 1.4832 -0.4223
C17_2 C -0.12808(19) 1.52624(18) -0.30722(17)
H14_2 H -0.1644 1.5829 -0.3366
C18_2 C -0.14562(19) 1.50095(18) -0.21294(17)
H15_2 H -0.1945 1.5403 -0.1765
C19_2 C -0.09108(19) 1.41726(17) -0.17200(16)
H16_2 H -0.1020 1.3989 -0.1075
C20_2 C -0.02083(18) 1.36151(17) -0.22691(15)
C21_2 C 0.04251(17) 1.27131(16) -0.19210(15)
C22_2 C 0.03022(19) 1.22069(17) -0.10265(16)
H17_2 H -0.0236 1.2427 -0.0568
C23_2 C 0.09825(18) 1.13645(17) -0.08053(15)
C24_2 C 0.17810(18) 1.10814(16) -0.15007(15)
H18_2 H 0.2264 1.0527 -0.1372
C25_2 C 0.18559(18) 1.16246(16) -0.23838(15)
C26_2 C 0.26464(17) 1.14548(16) -0.31987(15)
C27_2 C 0.35169(18) 1.07851(17) -0.31789(16)
H19_2 H 0.3628 1.0369 -0.2625
C28_2 C 0.42298(19) 1.07356(18) -0.39939(16)
H20_2 H 0.4844 1.0294 -0.4000
C29_2 C 0.40343(19) 1.13346(18) -0.47905(16)
H21_2 H 0.4510 1.1306 -0.5351
C30_2 C 0.31327(19) 1.19806(17) -0.47641(16)
H22_2 H 0.2993 1.2384 -0.5315
C31_2 C 0.20048(19) 0.73081(17) 0.29346(16)
H23_2 H 0.1748 0.7068 0.3561
C32_2 C 0.2815(2) 0.67529(17) 0.24607(17)
H24_2 H 0.3104 0.6143 0.2755
C33_2 C 0.3190(2) 0.71136(18) 0.15483(18)
H25_2 H 0.3740 0.6751 0.1206
C34_2 C 0.27523(19) 0.80129(18) 0.11370(17)
H26_2 H 0.3009 0.8277 0.0516
C35_2 C 0.19390(18) 0.85139(16) 0.16482(15)
C36_2 C 0.13574(18) 0.94467(16) 0.12837(15)
C37_2 C 0.15196(18) 0.99553(17) 0.03864(15)
H27_2 H 0.2076 0.9736 -0.0058
C38_2 C 0.08492(18) 1.07977(16) 0.01477(15)
C39_2 C 0.00422(18) 1.10892(17) 0.08274(15)
H28_2 H -0.0429 1.1649 0.0685
C40_2 C -0.00678(18) 1.05550(16) 0.17129(15)
C41_2 C -0.09040(18) 1.07426(17) 0.24889(16)
C42_2 C -0.1712(2) 1.14801(19) 0.24190(17)
H29_2 H -0.1726 1.1933 0.1864
C43_2 C -0.2504(2) 1.1547(2) 0.31754(17)
H30_2 H -0.3072 1.2041 0.3144
C44_2 C -0.24490(19) 1.08830(18) 0.39737(17)
H31_2 H -0.2990 1.0905 0.4494
C45_2 C -0.15970(19) 1.01821(17) 0.40111(16)
H32_2 H -0.1549 0.9748 0.4571
C46_2 C -0.4669(2) 0.70184(17) 0.76767(17)
H33_2 H -0.4426 0.7089 0.7008
H34_2 H -0.5370 0.7378 0.7790
C47_2 C -0.4733(2) 0.59348(18) 0.80911(17)
H35_2 H -0.4919 0.5860 0.8764
H36_2 H -0.4043 0.5568 0.7934
C48A C -0.04417(18) 0.27663(16) 0.39901(16)
H37A H 0.0003 0.3027 0.3405
H38A H -0.0788 0.2240 0.3885
C49A C -0.12652(18) 0.35816(16) 0.42782(15)
H39A H -0.0971 0.3984 0.4595
H40A H -0.1854 0.3290 0.4713
C50A C -0.16563(18) 0.42359(16) 0.34607(15)
H41A H -0.2018 0.3846 0.3187
H42A H -0.1056 0.4463 0.2995
C51_2 C -0.39428(19) 0.74731(17) 0.80702(17)
H43_2 H -0.3264 0.7070 0.8025
H44_2 H -0.4232 0.7483 0.8723
O18 O 0.34961(15) 0.91330(14) 0.88711(13)
O19 O 0.32854(16) 0.44909(18) 0.38199(14)
O20 O 0.4535(3) 0.3720(3) 0.9791(2)
loop_
_geom_bond_atom_site_label_1
_geom_bond_atom_site_label_2
_geom_bond_site_symmetry_1
_geom_bond_site_symmetry_2
Cu1 O5 1_555 1_555
Cu2 O8 1_555 1_555
Cu3 O10 1_555 1_555
V1 O1 1_555 1_555
V2 O11 1_555 1_555
P1 O3 1_555 1_555
P2 O6 1_555 1_555
P3 O9 1_555 1_555
P4 O14 1_555 1_555
O2 V1 1_555 1_555
O3 V1 1_555 1_555
O4 P1 1_555 1_555
O5 P1 1_555 1_555
O6 Cu1 1_555 1_555
O7 P2 1_555 1_555
H1 O7 1_555 1_555
O8 P2 1_555 1_555
O9 Cu2A 1_555 1_555
O10 P3 1_555 1_555
O11 P3 1_555 1_555
O12 Cu3 1_555 1_555
O13 V2 1_555 1_555
O14 V2_2 1_555 1_555
O15 P4 1_555 1_555
O16 P4 1_555 1_555
O17 V1 1_555 1_555
H2 O17 1_555 1_555
N1 Cu1 1_555 1_555
N2 Cu1 1_555 1_555
N3 Cu1 1_555 1_555
N4 Cu2 1_555 1_555
N5 Cu2 1_555 1_555
N6 Cu2 1_555 1_555
N7 C31 1_555 1_555
N8 C36 1_555 1_555
N9 C41 1_555 1_555
C1 N1 1_555 1_555
H3 C1 1_555 1_555
C2 C1 1_555 1_555
H4 C2 1_555 1_555
C3 C2 1_555 1_555
H5 C3 1_555 1_555
C4 C3 1_555 1_555
H6 C4 1_555 1_555
C5 N1 1_555 1_555
C6 N2 1_555 1_555
C7 C6 1_555 1_555
H7 C7 1_555 1_555
C8 C7 1_555 1_555
C9 C8 1_555 1_555
H8 C9 1_555 1_555
C10 N2 1_555 1_555
C11 N3 1_555 1_555
C12 C11 1_555 1_555
H9 C12 1_555 1_555
C13 C12 1_555 1_555
H10 C13 1_555 1_555
C14 C13 1_555 1_555
H11 C14 1_555 1_555
C15 N3 1_555 1_555
H12 C15 1_555 1_555
C16 N4 1_555 1_555
H13 C16 1_555 1_555
C17 C16 1_555 1_555
H14 C17 1_555 1_555
C18 C17 1_555 1_555
H15 C18 1_555 1_555
C19 C18 1_555 1_555
H16 C19 1_555 1_555
C20 N4 1_555 1_555
C21 N5 1_555 1_555
C22 C21 1_555 1_555
H17 C22 1_555 1_555
C23 C22 1_555 1_555
C24 C23 1_555 1_555
H18 C24 1_555 1_555
C25 N5 1_555 1_555
C26 N6 1_555 1_555
C27 C26 1_555 1_555
H19 C27 1_555 1_555
C28 C27 1_555 1_555
H20 C28 1_555 1_555
C29 C28 1_555 1_555
H21 C29 1_555 1_555
C30 N6 1_555 1_555
H22 C30 1_555 1_555
C31 H23 1_555 1_555
C32 C31 1_555 1_555
H24 C32 1_555 1_555
C33 C32 1_555 1_555
H25 C33 1_555 1_555
C34 C33 1_555 1_555
H26 C34 1_555 1_555
C35 N7 1_555 1_555
C36 C35 1_555 1_555
C37 C36 1_555 1_555
H27 C37 1_555 1_555
C38 C23 1_555 1_555
C39 C38 1_555 1_555
H28 C39 1_555 1_555
C40 N8 1_555 1_555
C41 C40 1_555 1_555
C42 C41 1_555 1_555
H29 C42 1_555 1_555
C43 C42 1_555 1_555
H30 C43 1_555 1_555
C44 C43 1_555 1_555
H31 C44 1_555 1_555
C45 N9 1_555 1_555
H32 C45 1_555 1_555
C46 H33 1_555 1_555
H34 C46 1_555 1_555
C47 P1 1_555 1_555
H35 C47 1_555 1_555
H36 C47 1_555 1_555
C48 P3 1_555 1_555
H37 C48 1_555 1_555
H38 C48 1_555 1_555
C49 C48 1_555 1_555
H39 C49 1_555 1_555
H40 C49 1_555 1_555
C50 P2 1_555 1_555
H41 C50 1_555 1_555
H42 C50 1_555 1_555
C51 P4 1_555 1_555
H43 C51 1_555 1_555
H44 C51 1_555 1_555
Cu1A O5A 1_555 1_555
Cu1A_2 O6A 1_555 1_555
Cu1_2 O5_2 1_555 1_555
Cu2A O8A 1_555 1_555
Cu2_2 N4_2 1_555 1_555
Cu3A O10A 1_555 1_555
Cu3_2 N7 1_555 1_555
Cu3A_2 O12A 1_555 1_555
V1_2 O1_2 1_555 1_555
V2_2 O15 1_555 1_555
V2A O12 1_555 1_555
V2A_2 O11A 1_555 1_555
P1_2 O3_2 1_555 1_555
P2A O6A 1_555 1_555
P3A O9A 1_555 1_555
P4_2 O14_2 1_555 1_555
O2_2 V1_2 1_555 1_555
O3_2 V1_2 1_555 1_555
O4_2 P1_2 1_555 1_555
O5_2 P1_2 1_555 1_555
O6A_2 Cu1A 1_555 1_555
O7A P2A 1_555 1_555
H1A O7A 1_555 1_555
O8A P2A 1_555 1_555
O9A Cu2 1_555 1_555
O10A P3A 1_555 1_555
O11A P3A 1_555 1_555
O11_2 V2_2 1_555 1_555
O12A V2 1_555 1_555
O12A_2 V2_2 1_555 1_555
O12A_3 Cu3A 1_555 1_555
O13_2 V2_2 1_555 1_555
O14_2 V2 1_555 1_555
O15_2 V2 1_555 1_555
O16_2 P4_2 1_555 1_555
O17_2 V1_2 1_555 1_555
H2_2 O17_2 1_555 1_555
N1A Cu1A 1_555 1_555
N2A Cu1A 1_555 1_555
N3A Cu1A 1_555 1_555
N4_2 C16_2 1_555 1_555
N4A Cu2A 1_555 1_555
N5_2 Cu2_2 1_555 1_555
N5A Cu2A 1_555 1_555
N6_2 Cu2_2 1_555 1_555
N6A Cu2A 1_555 1_555
N7_2 Cu3 1_555 1_555
N7A Cu3A 1_555 1_555
N8_2 Cu3 1_555 1_555
N8A Cu3A 1_555 1_555
N9_2 Cu3 1_555 1_555
N9A Cu3A 1_555 1_555
C1A N1A 1_555 1_555
H3A C1A 1_555 1_555
C2A C1A 1_555 1_555
H4A C2A 1_555 1_555
C3A C2A 1_555 1_555
H5A C3A 1_555 1_555
C4A C3A 1_555 1_555
H6A C4A 1_555 1_555
C5A N1A 1_555 1_555
C6A N2A 1_555 1_555
C7A C6A 1_555 1_555
H7A C7A 1_555 1_555
C8A C8 1_555 1_555
C9A C8A 1_555 1_555
H8A C9A 1_555 1_555
C10A N2A 1_555 1_555
C11A N3A 1_555 1_555
C12A C11A 1_555 1_555
H9A C12A 1_555 1_555
C13A C12A 1_555 1_555
H10A C13A 1_555 1_555
C14A C13A 1_555 1_555
H11A C14A 1_555 1_555
C15A N3A 1_555 1_555
H12A C15A 1_555 1_555
C16_2 H13_2 1_555 1_555
C17_2 C16_2 1_555 1_555
H14_2 C17_2 1_555 1_555
C18_2 C17_2 1_555 1_555
H15_2 C18_2 1_555 1_555
C19_2 C18_2 1_555 1_555
H16_2 C19_2 1_555 1_555
C20_2 N4_2 1_555 1_555
C21_2 N5_2 1_555 1_555
C22_2 C21_2 1_555 1_555
H17_2 C22_2 1_555 1_555
C23_2 C22_2 1_555 1_555
C24_2 C23_2 1_555 1_555
H18_2 C24_2 1_555 1_555
C25_2 N5_2 1_555 1_555
C26_2 N6_2 1_555 1_555
C27_2 C26_2 1_555 1_555
H19_2 C27_2 1_555 1_555
C28_2 C27_2 1_555 1_555
H20_2 C28_2 1_555 1_555
C29_2 C28_2 1_555 1_555
H21_2 C29_2 1_555 1_555
C30_2 N6_2 1_555 1_555
H22_2 C30_2 1_555 1_555
C31_2 N7_2 1_555 1_555
H23_2 C31_2 1_555 1_555
C32_2 C31_2 1_555 1_555
H24_2 C32_2 1_555 1_555
C33_2 C32_2 1_555 1_555
H25_2 C33_2 1_555 1_555
C34_2 C33_2 1_555 1_555
H26_2 C34_2 1_555 1_555
C35_2 N7_2 1_555 1_555
C36_2 N8_2 1_555 1_555
C37_2 C36_2 1_555 1_555
H27_2 C37_2 1_555 1_555
C38_2 C23_2 1_555 1_555
C39_2 C38_2 1_555 1_555
H28_2 C39_2 1_555 1_555
C40_2 N8_2 1_555 1_555
C41_2 N9_2 1_555 1_555
C42_2 C41_2 1_555 1_555
H29_2 C42_2 1_555 1_555
C43_2 C42_2 1_555 1_555
H30_2 C43_2 1_555 1_555
C44_2 C43_2 1_555 1_555
H31_2 C44_2 1_555 1_555
C45_2 N9_2 1_555 1_555
H32_2 C45_2 1_555 1_555
C46_2 H33_2 1_555 1_555
H34_2 C46_2 1_555 1_555
C47_2 P1_2 1_555 1_555
H35_2 C47_2 1_555 1_555
H36_2 C47_2 1_555 1_555
C48A P3A 1_555 1_555
H37A C48A 1_555 1_555
H38A C48A 1_555 1_555
C49A C48A 1_555 1_555
H39A C49A 1_555 1_555
H40A C49A 1_555 1_555
C50A P2A 1_555 1_555
H41A C50A 1_555 1_555
H42A C50A 1_555 1_555
C51_2 P4_2 1_555 1_555
H43_2 C51_2 1_555 1_555
H44_2 C51_2 1_555 1_555
N8 Cu3_2 1_555 1_555
N9 Cu3_2 1_555 1_555
C4 C5 1_555 1_555
C5 C6 1_555 1_555
C9 C10 1_555 1_555
C10 C11 1_555 1_555
C14 C15 1_555 1_555
C19 C20 1_555 1_555
C20 C21 1_555 1_555
C24 C25 1_555 1_555
C25 C26 1_555 1_555
C29 C30 1_555 1_555
C34 C35 1_555 1_555
C37 C38 1_555 1_555
C39 C40 1_555 1_555
C44 C45 1_555 1_555
C46 C47 1_555 1_555
C46 C51 1_555 1_555
C49 C50 1_555 1_555
P4_2 O15_2 1_555 1_555
C4A C5A 1_555 1_555
C5A C6A 1_555 1_555
C7A C8A 1_555 1_555
C9A C10A 1_555 1_555
C10A C11A 1_555 1_555
C14A C15A 1_555 1_555
C19_2 C20_2 1_555 1_555
C20_2 C21_2 1_555 1_555
C24_2 C25_2 1_555 1_555
C25_2 C26_2 1_555 1_555
C29_2 C30_2 1_555 1_555
C34_2 C35_2 1_555 1_555
C35_2 C36_2 1_555 1_555
C37_2 C38_2 1_555 1_555
C39_2 C40_2 1_555 1_555
C40_2 C41_2 1_555 1_555
C44_2 C45_2 1_555 1_555
C46_2 C47_2 1_555 1_555
C46_2 C51_2 1_555 1_555
C49A C50A 1_555 1_555

#END
