
#######################################################################
#
#                 Cambridge Crystallographic Data Centre
#                                CCDC 
#
#######################################################################
#
# If this CIF has been generated from an entry in the Cambridge 
# Structural Database, then it will include bibliographic, chemical, 
# crystal, experimental, refinement or atomic coordinate data resulting 
# from the CCDC's data processing and validation procedures.
#
#######################################################################

data_FEKCUT
_symmetry_cell_setting           monoclinic
_symmetry_space_group_name_H-M   'P 21/c'
_symmetry_Int_Tables_number      14
_space_group_name_Hall           '-P 2ybc'
loop_
_symmetry_equiv_pos_site_id
_symmetry_equiv_pos_as_xyz
1 x,y,z
2 x,1/2-y,1/2+z
3 -x,-y,-z
4 -x,1/2+y,1/2-z
_cell_length_a                   9.979(3)
_cell_length_b                   25.785(4)
_cell_length_c                   11.086(4)
_cell_angle_alpha                90
_cell_angle_beta                 92.51(3)
_cell_angle_gamma                90
_cell_volume                     2849.79
loop_
_atom_site_label
_atom_site_type_symbol
_atom_site_fract_x
_atom_site_fract_y
_atom_site_fract_z
Cl1 Cl 0.5288(5) 0.2380(2) 0.1735(4)
O1 O 0.523(2) 0.1922(5) 0.223(1)
O2 O 0.541(1) 0.2429(5) 0.0488(10)
O3 O 0.432(3) 0.267(1) 0.200(2)
O4 O 0.631(3) 0.2593(9) 0.225(2)
S1 S 1.0973(4) 0.6170(1) -0.1112(3)
S2 S 1.1387(3) 0.4624(1) 0.3204(3)
S3 S 0.8458(3) 0.3876(1) 0.5411(3)
S4 S 1.1090(3) 0.5451(1) 0.1014(3)
S5 S 0.8555(3) 0.4784(1) 0.3739(3)
S6 S 0.7711(4) 0.6260(1) -0.0697(3)
S7 S 0.8227(3) 0.5567(1) 0.1467(3)
S8 S 1.1653(5) 0.3694(2) 0.4811(7)
N1 N 1.075(1) 0.7591(4) -0.010(1)
N2 N 0.913(1) 0.6910(4) 0.259(1)
C1 C 0.937(1) 0.4247(4) 0.440(1)
C2 C 1.064(1) 0.4175(4) 0.417(1)
C3 C 0.990(1) 0.4945(4) 0.2826(10)
C4 C 0.975(1) 0.5285(4) 0.1913(10)
C5 C 0.885(1) 0.5926(4) 0.027(1)
C6 C 1.016(1) 0.5877(4) 0.005(1)
C7 C 1.135(2) 0.7255(5) 0.024(1)
C8 C 0.842(2) 0.7001(5) 0.182(1)
C9 C 0.676(1) 0.6630(5) 0.033(1)
C10 C 1.247(1) 0.6429(5) -0.035(1)
C11 C 1.218(1) 0.6810(5) 0.065(1)
C12 C 0.743(1) 0.7113(5) 0.084(1)
C13 C 0.720(1) 0.3599(6) 0.441(2)
C14 C 1.282(2) 0.360(1) 0.432(5)
H1 H 0.6690 0.3858 0.3974
H2 H 0.7625 0.3388 0.3779
H3 H 0.6612 0.3375 0.4800
H4 H 1.3307 0.3318 0.4674
H5 H 1.2634 0.3476 0.3441
H6 H 1.3376 0.3889 0.4239
H7 H 0.5907 0.6722 -0.0065
H8 H 0.6543 0.6408 0.1007
H9 H 1.3013 0.6144 -0.0052
H10 H 1.2990 0.6608 -0.0943
H11 H 1.3028 0.6925 0.1020
H12 H 1.1741 0.6614 0.1275
H13 H 0.6771 0.7349 0.1126
H14 H 0.7870 0.7284 0.0190
Cu1 Cu 1.0032(2) 0.32245(6) 0.5811(1)
Cu1C Cu 0.9968(2) 0.82245(6) -0.0811(1)
Cu1B Cu 0.9968(2) 0.67755(6) 0.4189(1)
N1C N 0.925(1) 0.2591(4) 0.510(1)
N2B N 1.087(1) 0.3090(4) 0.741(1)
O5 O 0.498(3) 0.022(1) 0.697(3)
C15 C 0.494(3) 0.031(1) 0.845(3)
C16 C 0.486(4) -0.032(2) 0.851(4)
C17 C 0.468(3) -0.059(1) 0.742(3)
C18 C 0.464(4) -0.035(2) 0.616(4)
loop_
_geom_bond_atom_site_label_1
_geom_bond_atom_site_label_2
_geom_bond_site_symmetry_1
_geom_bond_site_symmetry_2
Cl1 O1 1_555 1_555
S1 C6 1_555 1_555
S2 C2 1_555 1_555
S3 C1 1_555 1_555
S4 C4 1_555 1_555
S5 C1 1_555 1_555
S6 C5 1_555 1_555
S7 C4 1_555 1_555
S8 C2 1_555 1_555
O2 Cl1 1_555 1_555
O3 Cl1 1_555 1_555
O4 Cl1 1_555 1_555
O5 C15 1_555 1_555
N1 C7 1_555 1_555
N2 C8 1_555 1_555
C1 C2 1_555 1_555
C3 S2 1_555 1_555
C4 C3 1_555 1_555
C5 S7 1_555 1_555
C6 S4 1_555 1_555
C7 C11 1_555 1_555
C8 C12 1_555 1_555
C9 S6 1_555 1_555
C10 S1 1_555 1_555
C11 C10 1_555 1_555
C12 C9 1_555 1_555
C13 S3 1_555 1_555
C14 S8 1_555 1_555
C15 C16 1_555 1_555
C16 C17 1_555 1_555
C17 C18 1_555 1_555
C18 O5 1_555 1_555
H1 C13 1_555 1_555
H2 C13 1_555 1_555
H3 C13 1_555 1_555
H4 C14 1_555 1_555
H5 C14 1_555 1_555
H6 C14 1_555 1_555
H7 C9 1_555 1_555
H8 C9 1_555 1_555
H9 C10 1_555 1_555
H10 C10 1_555 1_555
H11 C11 1_555 1_555
H12 C11 1_555 1_555
H13 C12 1_555 1_555
H14 C12 1_555 1_555
Cu1 S3 1_555 1_555
Cu1C N1 1_555 1_555
Cu1B N2 1_555 1_555
N1C Cu1 1_555 1_555
N2B Cu1 1_555 1_555
S5 C3 1_555 1_555
S8 Cu1 1_555 1_555
C5 C6 1_555 1_555

#END
