
#######################################################################
#
#                 Cambridge Crystallographic Data Centre
#                                CCDC 
#
#######################################################################
#
# If this CIF has been generated from an entry in the Cambridge 
# Structural Database, then it will include bibliographic, chemical, 
# crystal, experimental, refinement or atomic coordinate data resulting 
# from the CCDC's data processing and validation procedures.
#
#######################################################################

data_FEKDAB
_symmetry_cell_setting           triclinic
_symmetry_space_group_name_H-M   'P -1'
_symmetry_Int_Tables_number      2
_space_group_name_Hall           '-P 1'
loop_
_symmetry_equiv_pos_site_id
_symmetry_equiv_pos_as_xyz
1 x,y,z
2 -x,-y,-z
_cell_length_a                   10.9835(7)
_cell_length_b                   11.0327(7)
_cell_length_c                   21.7243(14)
_cell_angle_alpha                90.9850(10)
_cell_angle_beta                 96.6920(10)
_cell_angle_gamma                102.6760(10)
_cell_volume                     2548.35
loop_
_atom_site_label
_atom_site_type_symbol
_atom_site_fract_x
_atom_site_fract_y
_atom_site_fract_z
Cu1 Cu 0.92806(4) 0.41375(4) 0.425288(19)
Cu2 Cu 1.57380(4) -0.38705(4) 0.066540(19)
V1 V 1.06801(5) 0.26070(5) 0.21868(3)
V2 V 0.86487(5) 0.13378(5) 0.33632(3)
V3 V 1.61341(5) -0.07258(5) 0.11656(3)
V4 V 1.38017(6) -0.27629(6) 0.27137(3)
P1 P 1.12692(8) 0.31219(8) 0.36628(4)
P2 P 0.87281(8) 0.11474(8) 0.10017(4)
P3 P 1.58859(8) -0.02412(8) 0.26366(4)
P4 P 1.37208(8) -0.27557(8) 0.11436(4)
F1 F 1.1201(2) 0.4169(2) 0.18163(10)
F2 F 0.8475(2) 0.0225(2) 0.39990(10)
F3 F 1.6093(2) -0.0040(2) 0.03432(10)
F4 F 1.4288(2) -0.3346(2) 0.34935(10)
O1 O 0.8127(2) 0.2525(2) 0.35666(11)
O2 O 1.0923(2) 0.4071(2) 0.40945(11)
O3 O 1.1224(2) 0.3574(2) 0.29945(11)
O4 O 1.0435(2) 0.1818(2) 0.36913(11)
O5 O 1.1696(2) 0.1782(2) 0.21772(12)
O6 O 0.9190(2) 0.1699(2) 0.25321(11)
O7 O 1.7284(2) 0.0167(2) 0.28688(12)
O8 O 0.9688(2) 0.2224(2) 0.13505(11)
O9 O 0.7670(2) 0.0632(2) 0.13956(11)
O10 O 0.8182(2) 0.1596(2) 0.03802(11)
O11 O 1.5635(2) -0.0228(2) 0.19314(11)
O12 O 1.5377(2) -0.1517(2) 0.28838(11)
O13 O 1.6709(2) -0.1951(2) 0.11766(11)
O14 O 1.4364(2) -0.1501(2) 0.09042(11)
O15 O 1.4042(2) -0.2849(2) 0.18393(11)
O16 O 1.2692(3) -0.2072(3) 0.27844(13)
O17 O 1.2977(3) -0.4600(3) 0.25537(12)
O18 O 1.4064(2) -0.3836(2) 0.07945(11)
N1 N 0.9093(3) 0.2971(3) 0.49579(13)
N2 N 0.7782(3) 0.4472(3) 0.45263(13)
N3 N 0.9013(3) 0.5521(3) 0.36873(14)
N4 N 1.6216(3) -0.4828(3) 0.14018(13)
N5 N 1.7287(3) -0.4222(3) 0.04422(13)
N6 N 1.5738(3) -0.3180(3) -0.01882(13)
C1 C 0.9811(3) 0.2177(3) 0.51399(16)
H1 H 1.0543 0.2185 0.4945
C2 C 0.9533(4) 0.1342(4) 0.56014(18)
H2 H 1.0050 0.0774 0.5711
C3 C 0.8484(4) 0.1355(4) 0.58987(19)
H3 H 0.8288 0.0814 0.6226
C4 C 0.7724(4) 0.2166(4) 0.57114(17)
H4 H 0.6995 0.2183 0.5905
C5 C 0.8043(3) 0.2944(3) 0.52414(16)
C6 C 0.7294(3) 0.3831(3) 0.49897(15)
C7 C 0.6192(3) 0.4013(3) 0.51863(16)
H5 H 0.5845 0.3551 0.5514
C8 C 0.5594(3) 0.4887(3) 0.48964(16)
C9 C 0.6123(3) 0.5540(3) 0.44090(16)
H6 H 0.5730 0.6129 0.4200
C10 C 0.7232(3) 0.5311(3) 0.42377(16)
C11 C 0.7941(3) 0.5932(3) 0.37426(17)
C12 C 0.7587(4) 0.6833(3) 0.33769(17)
H7 H 0.6824 0.7083 0.3417
C13 C 0.8370(4) 0.7373(4) 0.29460(18)
H8 H 0.8155 0.8005 0.2692
C14 C 0.9468(4) 0.6972(4) 0.28951(18)
H9 H 1.0019 0.7331 0.2608
C15 C 0.9748(3) 0.6040(3) 0.32685(17)
H10 H 1.0492 0.5757 0.3226
C16 C 1.5581(3) -0.5074(3) 0.18915(16)
H11 H 1.4813 -0.4814 0.1897
C17 C 1.6016(4) -0.5701(3) 0.23932(17)
H12 H 1.5556 -0.5858 0.2738
C18 C 1.7131(4) -0.6093(4) 0.23814(17)
H13 H 1.7442 -0.6528 0.2716
C19 C 1.7788(3) -0.5837(3) 0.18701(17)
H14 H 1.8557 -0.6090 0.1853
C20 C 1.7308(3) -0.5210(3) 0.13892(16)
C21 C 1.7915(3) -0.4884(3) 0.08199(15)
C22 C 1.8988(3) -0.5213(3) 0.06625(16)
H15 H 1.9421 -0.5692 0.0931
C23 C 1.9432(3) -0.4825(3) 0.00962(15)
C24 C 1.8759(3) -0.4114(3) -0.02857(15)
H16 H 1.9033 -0.3832 -0.0668
C25 C 1.7683(3) -0.3832(3) -0.00924(15)
C26 C 1.6815(3) -0.3164(3) -0.04498(16)
C27 C 1.7053(3) -0.2570(4) -0.09873(17)
H17 H 1.7826 -0.2539 -0.1150
C28 C 1.6146(4) -0.2014(3) -0.12902(17)
H18 H 1.6290 -0.1600 -0.1663
C29 C 1.5029(3) -0.2071(3) -0.10420(16)
H19 H 1.4383 -0.1725 -0.1250
C30 C 1.4873(3) -0.2643(3) -0.04837(16)
H20 H 1.4122 -0.2652 -0.0305
C31 C 1.5070(3) 0.0837(3) 0.29297(16)
H21 H 1.5460 0.1683 0.2810
H22 H 1.4188 0.0631 0.2731
C32 C 1.5075(3) 0.0846(4) 0.36351(17)
H23 H 1.4516 0.0069 0.3746
H24 H 1.5937 0.0857 0.3833
C33 C 1.4646(3) 0.1957(4) 0.38953(18)
H25 H 1.5257 0.2731 0.3825
H26 H 1.4640 0.1887 0.4349
C34 C 1.3337(3) 0.2045(4) 0.35992(18)
H27 H 1.2747 0.1229 0.3612
H28 H 1.3370 0.2253 0.3159
C35 C 1.2851(3) 0.3044(3) 0.39406(17)
H29 H 1.3412 0.3865 0.3898
H30 H 1.2899 0.2873 0.4388
C36 C 1.2064(3) -0.2877(3) 0.09778(17)
H31 H 1.1821 -0.2993 0.0524
H32 H 1.1616 -0.3621 0.1173
C37 C 1.1648(3) -0.1727(3) 0.12125(17)
H33 H 1.2087 -0.1465 0.1634
H34 H 1.1888 -0.1034 0.0936
C38 C 1.0238(3) -0.1996(3) 0.12316(18)
H35 H 1.0016 -0.2643 0.1535
H36 H 0.9808 -0.2337 0.0819
C39 C 0.9747(3) -0.0857(3) 0.14076(17)
H37 H 1.0377 -0.0323 0.1718
H38 H 0.8965 -0.1134 0.1600
C40 C 0.9480(3) -0.0093(3) 0.08445(16)
H39 H 0.8940 -0.0658 0.0514
H40 H 1.0285 0.0262 0.0684
Cu1A Cu 0.07194(4) 0.58625(4) 0.574712(19)
Cu1_2 Cu -0.07194(4) 0.41375(4) 0.425288(19)
Cu2_2 Cu 2.57380(4) -0.38705(4) 0.066540(19)
Cu2A Cu 2.42620(4) -0.61295(4) -0.066540(19)
V1_2 V 0.06801(5) 0.26070(5) 0.21868(3)
V1_3 V 2.06801(5) 0.26070(5) 0.21868(3)
V2_2 V 1.86487(5) 0.13378(5) 0.33632(3)
V2_3 V -0.13513(5) 0.13378(5) 0.33632(3)
V2A V 0.13513(5) 0.86622(5) 0.66368(3)
V3_2 V 0.61341(5) -0.07258(5) 0.11656(3)
V3_3 V 2.61341(5) -0.07258(5) 0.11656(3)
V4_2 V 0.38017(6) -0.27629(6) 0.27137(3)
V4_3 V 2.38017(6) -0.27629(6) 0.27137(3)
P1_2 P 0.12692(8) 0.31219(8) 0.36628(4)
P2_2 P 1.87281(8) 0.11474(8) 0.10017(4)
P3_2 P 0.58859(8) -0.02412(8) 0.26366(4)
P4_2 P 2.37208(8) -0.27557(8) 0.11436(4)
F1_2 F 0.1201(2) 0.4169(2) 0.18163(10)
F2_2 F 1.8475(2) 0.0225(2) 0.39990(10)
F3_2 F 0.6093(2) -0.0040(2) 0.03432(10)
F4_2 F 0.4288(2) -0.3346(2) 0.34935(10)
O1A O 0.1873(2) 0.7475(2) 0.64334(11)
O1_2 O 1.8127(2) 0.2525(2) 0.35666(11)
O2_2 O 0.0923(2) 0.4071(2) 0.40945(11)
O2A O -0.0923(2) 0.5929(2) 0.59055(11)
O3_2 O 0.1224(2) 0.3574(2) 0.29945(11)
O4_2 O 0.0435(2) 0.1818(2) 0.36913(11)
O4_3 O 2.0435(2) 0.1818(2) 0.36913(11)
O5_2 O 0.1696(2) 0.1782(2) 0.21772(12)
O6_2 O 1.9190(2) 0.1699(2) 0.25321(11)
O6_3 O -0.0810(2) 0.1699(2) 0.25321(11)
O7_2 O 0.7284(2) 0.0167(2) 0.28688(12)
O8_2 O 1.9688(2) 0.2224(2) 0.13505(11)
O8_3 O -0.0312(2) 0.2224(2) 0.13505(11)
O9_2 O 1.7670(2) 0.0632(2) 0.13956(11)
O10_2 O 1.8182(2) 0.1596(2) 0.03802(11)
O11_2 O 0.5635(2) -0.0228(2) 0.19314(11)
O12_2 O 0.5377(2) -0.1517(2) 0.28838(11)
O13_2 O 2.6709(2) -0.1951(2) 0.11766(11)
O13_3 O 0.6709(2) -0.1951(2) 0.11766(11)
O14_2 O 2.4364(2) -0.1501(2) 0.09042(11)
O14_3 O 0.4364(2) -0.1501(2) 0.09042(11)
O15_2 O 2.4042(2) -0.2849(2) 0.18393(11)
O15_3 O 0.4042(2) -0.2849(2) 0.18393(11)
O16_2 O 0.2692(3) -0.2072(3) 0.27844(13)
O17_2 O 0.2977(3) -0.4600(3) 0.25537(12)
O18_2 O 2.4064(2) -0.3836(2) 0.07945(11)
N1A N 0.0907(3) 0.7029(3) 0.50421(13)
N2A N 0.2218(3) 0.5528(3) 0.54737(13)
N3A N 0.0987(3) 0.4479(3) 0.63127(14)
N4A N 2.3784(3) -0.5172(3) -0.14018(13)
N4_2 N 2.6216(3) -0.4828(3) 0.14018(13)
N5A N 2.2713(3) -0.5778(3) -0.04422(13)
N5_2 N 2.7287(3) -0.4222(3) 0.04422(13)
N6A N 2.4262(3) -0.6820(3) 0.01882(13)
N6_2 N 2.5738(3) -0.3180(3) -0.01882(13)
C1A C 0.0189(3) 0.7823(3) 0.48601(16)
H1A H -0.0543 0.7815 0.5055
C2A C 0.0467(4) 0.8658(4) 0.43986(18)
H2A H -0.0050 0.9226 0.4289
C3A C 0.1516(4) 0.8645(4) 0.41013(19)
H3A H 0.1712 0.9186 0.3774
C4A C 0.2276(4) 0.7834(4) 0.42886(17)
H4A H 0.3005 0.7817 0.4095
C5A C 0.1957(3) 0.7056(3) 0.47586(16)
C6A C 0.2706(3) 0.6169(3) 0.50103(15)
C7A C 0.3808(3) 0.5987(3) 0.48137(16)
H5A H 0.4155 0.6449 0.4486
C8A C 0.4406(3) 0.5113(3) 0.51036(16)
C9A C 0.3877(3) 0.4460(3) 0.55910(16)
H6A H 0.4270 0.3871 0.5800
C10A C 0.2768(3) 0.4689(3) 0.57623(16)
C11A C 0.2059(3) 0.4068(3) 0.62574(17)
C12A C 0.2413(4) 0.3167(3) 0.66231(17)
H7A H 0.3176 0.2917 0.6583
C13A C 0.1630(4) 0.2627(4) 0.70540(18)
H8A H 0.1845 0.1995 0.7308
C14A C 0.0532(4) 0.3028(4) 0.71049(18)
H9A H -0.0019 0.2669 0.7392
C15A C 0.0252(3) 0.3960(3) 0.67315(17)
H10A H -0.0492 0.4243 0.6774
C16A C 2.4419(3) -0.4926(3) -0.18915(16)
H11A H 2.5187 -0.5186 -0.1897
C17A C 2.3984(4) -0.4299(3) -0.23932(17)
H12A H 2.4444 -0.4142 -0.2738
C18A C 2.2869(4) -0.3907(4) -0.23814(17)
H13A H 2.2558 -0.3472 -0.2716
C19A C 2.2212(3) -0.4163(3) -0.18701(17)
H14A H 2.1443 -0.3910 -0.1853
C20A C 2.2692(3) -0.4790(3) -0.13892(16)
C21A C 2.2085(3) -0.5116(3) -0.08199(15)
C22A C 2.1012(3) -0.4787(3) -0.06625(16)
H15A H 2.0579 -0.4308 -0.0931
C23A C 2.0568(3) -0.5175(3) -0.00962(15)
C24A C 2.1241(3) -0.5886(3) 0.02857(15)
H16A H 2.0967 -0.6168 0.0668
C25A C 2.2317(3) -0.6168(3) 0.00924(15)
C26A C 2.3185(3) -0.6836(3) 0.04498(16)
C27A C 2.2947(3) -0.7430(4) 0.09873(17)
H17A H 2.2174 -0.7461 0.1150
C28A C 2.3854(4) -0.7986(3) 0.12902(17)
H18A H 2.3710 -0.8400 0.1663
C29A C 2.4971(3) -0.7929(3) 0.10420(16)
H19A H 2.5617 -0.8275 0.1250
C30A C 2.5127(3) -0.7357(3) 0.04837(16)
H20A H 2.5878 -0.7348 0.0305
C31_2 C 0.5070(3) 0.0837(3) 0.29297(16)
H21_2 H 0.5460 0.1683 0.2810
H22_2 H 0.4188 0.0631 0.2731
C32_2 C 0.5075(3) 0.0846(4) 0.36351(17)
H23_2 H 0.4516 0.0069 0.3746
H24_2 H 0.5937 0.0857 0.3833
C33_2 C 0.4646(3) 0.1957(4) 0.38953(18)
H25_2 H 0.5257 0.2731 0.3825
H26_2 H 0.4640 0.1887 0.4349
C34_2 C 0.3337(3) 0.2045(4) 0.35992(18)
H27_2 H 0.2747 0.1229 0.3612
H28_2 H 0.3370 0.2253 0.3159
C35_2 C 0.2851(3) 0.3044(3) 0.39406(17)
H29_2 H 0.3412 0.3865 0.3898
H30_2 H 0.2899 0.2873 0.4388
C36_2 C 2.2064(3) -0.2877(3) 0.09778(17)
H31_2 H 2.1821 -0.2993 0.0524
H32_2 H 2.1616 -0.3621 0.1173
C37_2 C 2.1648(3) -0.1727(3) 0.12125(17)
H33_2 H 2.2087 -0.1465 0.1634
H34_2 H 2.1888 -0.1034 0.0936
C38_2 C 2.0238(3) -0.1996(3) 0.12316(18)
H35_2 H 2.0016 -0.2643 0.1535
H36_2 H 1.9808 -0.2337 0.0819
C39_2 C 1.9747(3) -0.0857(3) 0.14076(17)
H37_2 H 2.0377 -0.0323 0.1718
H38_2 H 1.8965 -0.1134 0.1600
C40_2 C 1.9480(3) -0.0093(3) 0.08445(16)
H39_2 H 1.8940 -0.0658 0.0514
H40_2 H 2.0285 0.0262 0.0684
O19 O 0.6373(3) 0.8538(3) 0.43285(16)
loop_
_geom_bond_atom_site_label_1
_geom_bond_atom_site_label_2
_geom_bond_site_symmetry_1
_geom_bond_site_symmetry_2
Cu1 O1 1_555 1_555
Cu2 O13 1_555 1_555
V1 F1 1_555 1_555
V2 F2 1_555 1_555
V3 F3 1_555 1_555
V4 F4 1_555 1_555
P1 O2 1_555 1_555
P2 O8 1_555 1_555
P3 O7 1_555 1_555
P4 O14 1_555 1_555
O1 V2 1_555 1_555
O2 Cu1 1_555 1_555
O3 V1 1_555 1_555
O4 V2 1_555 1_555
O5 V1 1_555 1_555
O6 V1 1_555 1_555
O7 V2_2 1_555 1_555
O8 V1 1_555 1_555
O9 P2 1_555 1_555
O10 P2 1_555 1_555
O11 V3 1_555 1_555
O12 V4 1_555 1_555
O13 V3 1_555 1_555
O14 V3 1_555 1_555
O15 V4 1_555 1_555
O16 V4 1_555 1_555
O17 V4 1_555 1_555
O18 Cu2 1_555 1_555
N1 Cu1 1_555 1_555
N2 Cu1 1_555 1_555
N3 Cu1 1_555 1_555
N4 Cu2 1_555 1_555
N5 Cu2 1_555 1_555
N6 Cu2 1_555 1_555
C1 N1 1_555 1_555
H1 C1 1_555 1_555
C2 C1 1_555 1_555
H2 C2 1_555 1_555
C3 C2 1_555 1_555
H3 C3 1_555 1_555
C4 C3 1_555 1_555
H4 C4 1_555 1_555
C5 N1 1_555 1_555
C6 N2 1_555 1_555
C7 C6 1_555 1_555
H5 C7 1_555 1_555
C8 C7 1_555 1_555
C9 C8 1_555 1_555
H6 C9 1_555 1_555
C10 N2 1_555 1_555
C11 N3 1_555 1_555
C12 C11 1_555 1_555
H7 C12 1_555 1_555
C13 C12 1_555 1_555
H8 C13 1_555 1_555
C14 C13 1_555 1_555
H9 C14 1_555 1_555
C15 N3 1_555 1_555
H10 C15 1_555 1_555
C16 N4 1_555 1_555
H11 C16 1_555 1_555
C17 C16 1_555 1_555
H12 C17 1_555 1_555
C18 C17 1_555 1_555
H13 C18 1_555 1_555
C19 C18 1_555 1_555
H14 C19 1_555 1_555
C20 N4 1_555 1_555
C21 N5 1_555 1_555
C22 C21 1_555 1_555
H15 C22 1_555 1_555
C23 C22 1_555 1_555
C24 C23 1_555 1_555
H16 C24 1_555 1_555
C25 N5 1_555 1_555
C26 N6 1_555 1_555
C27 C26 1_555 1_555
H17 C27 1_555 1_555
C28 C27 1_555 1_555
H18 C28 1_555 1_555
C29 C28 1_555 1_555
H19 C29 1_555 1_555
C30 N6 1_555 1_555
H20 C30 1_555 1_555
C31 P3 1_555 1_555
H21 C31 1_555 1_555
H22 C31 1_555 1_555
C32 C31 1_555 1_555
H23 C32 1_555 1_555
H24 C32 1_555 1_555
C33 C32 1_555 1_555
H25 C33 1_555 1_555
H26 C33 1_555 1_555
C34 C33 1_555 1_555
H27 C34 1_555 1_555
H28 C34 1_555 1_555
C35 P1 1_555 1_555
H29 C35 1_555 1_555
H30 C35 1_555 1_555
C36 P4 1_555 1_555
H31 C36 1_555 1_555
H32 C36 1_555 1_555
C37 C36 1_555 1_555
H33 C37 1_555 1_555
H34 C37 1_555 1_555
C38 C37 1_555 1_555
H35 C38 1_555 1_555
H36 C38 1_555 1_555
C39 C38 1_555 1_555
H37 C39 1_555 1_555
H38 C39 1_555 1_555
C40 P2 1_555 1_555
H39 C40 1_555 1_555
H40 C40 1_555 1_555
Cu1A O1A 1_555 1_555
Cu1_2 O2_2 1_555 1_555
Cu2_2 O13_2 1_555 1_555
Cu2A N4A 1_555 1_555
V1_2 F1_2 1_555 1_555
V1_3 O6_2 1_555 1_555
V2_2 F2_2 1_555 1_555
V2_3 O4_2 1_555 1_555
V2A O1A 1_555 1_555
V3_2 O9 1_555 1_555
V3_3 O13_2 1_555 1_555
V4_2 F4_2 1_555 1_555
V4_3 O15_2 1_555 1_555
P1_2 O2_2 1_555 1_555
P2_2 O8_2 1_555 1_555
P3_2 O7_2 1_555 1_555
P4_2 O14_2 1_555 1_555
F3_2 V3_2 1_555 1_555
O1_2 V2_2 1_555 1_555
O2A Cu1A 1_555 1_555
O3_2 V1_2 1_555 1_555
O4_2 P1_2 1_555 1_555
O4_3 V2_2 1_555 1_555
O5_2 V1_2 1_555 1_555
O6_2 V2_2 1_555 1_555
O6_3 V1_2 1_555 1_555
O7_2 V2 1_555 1_555
O8_2 V1_3 1_555 1_555
O8_3 V1_2 1_555 1_555
O9_2 V3 1_555 1_555
O10_2 P2_2 1_555 1_555
O11_2 V3_2 1_555 1_555
O12_2 V4_2 1_555 1_555
O13_3 V3_2 1_555 1_555
O14_2 V3_3 1_555 1_555
O14_3 V3_2 1_555 1_555
O15_2 P4_2 1_555 1_555
O15_3 V4_2 1_555 1_555
O16_2 V4_2 1_555 1_555
O17_2 V4_2 1_555 1_555
O18_2 Cu2_2 1_555 1_555
N1A Cu1A 1_555 1_555
N2A Cu1A 1_555 1_555
N3A Cu1A 1_555 1_555
N4A C16A 1_555 1_555
N4_2 Cu2_2 1_555 1_555
N5A Cu2A 1_555 1_555
N5_2 Cu2_2 1_555 1_555
N6A Cu2A 1_555 1_555
N6_2 Cu2_2 1_555 1_555
C1A N1A 1_555 1_555
H1A C1A 1_555 1_555
C2A C1A 1_555 1_555
H2A C2A 1_555 1_555
C3A C2A 1_555 1_555
H3A C3A 1_555 1_555
C4A C3A 1_555 1_555
H4A C4A 1_555 1_555
C5A N1A 1_555 1_555
C6A N2A 1_555 1_555
C7A C6A 1_555 1_555
H5A C7A 1_555 1_555
C8A C8 1_555 1_555
C9A C8A 1_555 1_555
H6A C9A 1_555 1_555
C10A N2A 1_555 1_555
C11A N3A 1_555 1_555
C12A C11A 1_555 1_555
H7A C12A 1_555 1_555
C13A C12A 1_555 1_555
H8A C13A 1_555 1_555
C14A C13A 1_555 1_555
H9A C14A 1_555 1_555
C15A N3A 1_555 1_555
H10A C15A 1_555 1_555
C16A H11A 1_555 1_555
C17A C16A 1_555 1_555
H12A C17A 1_555 1_555
C18A C17A 1_555 1_555
H13A C18A 1_555 1_555
C19A C18A 1_555 1_555
H14A C19A 1_555 1_555
C20A N4A 1_555 1_555
C21A N5A 1_555 1_555
C22A C21A 1_555 1_555
H15A C22A 1_555 1_555
C23A C23 1_555 1_555
C24A C23A 1_555 1_555
H16A C24A 1_555 1_555
C25A N5A 1_555 1_555
C26A N6A 1_555 1_555
C27A C26A 1_555 1_555
H17A C27A 1_555 1_555
C28A C27A 1_555 1_555
H18A C28A 1_555 1_555
C29A C28A 1_555 1_555
H19A C29A 1_555 1_555
C30A N6A 1_555 1_555
H20A C30A 1_555 1_555
C31_2 P3_2 1_555 1_555
H21_2 C31_2 1_555 1_555
H22_2 C31_2 1_555 1_555
C32_2 C31_2 1_555 1_555
H23_2 C32_2 1_555 1_555
H24_2 C32_2 1_555 1_555
C33_2 C32_2 1_555 1_555
H25_2 C33_2 1_555 1_555
H26_2 C33_2 1_555 1_555
C34_2 C33_2 1_555 1_555
H27_2 C34_2 1_555 1_555
H28_2 C34_2 1_555 1_555
C35_2 P1_2 1_555 1_555
H29_2 C35_2 1_555 1_555
H30_2 C35_2 1_555 1_555
C36_2 P4_2 1_555 1_555
H31_2 C36_2 1_555 1_555
H32_2 C36_2 1_555 1_555
C37_2 C36_2 1_555 1_555
H33_2 C37_2 1_555 1_555
H34_2 C37_2 1_555 1_555
C38_2 C37_2 1_555 1_555
H35_2 C38_2 1_555 1_555
H36_2 C38_2 1_555 1_555
C39_2 C38_2 1_555 1_555
H37_2 C39_2 1_555 1_555
H38_2 C39_2 1_555 1_555
C40_2 P2_2 1_555 1_555
H39_2 C40_2 1_555 1_555
H40_2 C40_2 1_555 1_555
V2 O6 1_555 1_555
P1 O3 1_555 1_555
P1 O4 1_555 1_555
P3 O11 1_555 1_555
P3 O12 1_555 1_555
P4 O15 1_555 1_555
P4 O18 1_555 1_555
C4 C5 1_555 1_555
C5 C6 1_555 1_555
C9 C10 1_555 1_555
C10 C11 1_555 1_555
C14 C15 1_555 1_555
C19 C20 1_555 1_555
C20 C21 1_555 1_555
C24 C25 1_555 1_555
C25 C26 1_555 1_555
C29 C30 1_555 1_555
C34 C35 1_555 1_555
C39 C40 1_555 1_555
V2_3 O6_3 1_555 1_555
P1_2 O3_2 1_555 1_555
P2_2 O9_2 1_555 1_555
P3_2 O11_2 1_555 1_555
P3_2 O12_2 1_555 1_555
P4_2 O18_2 1_555 1_555
C4A C5A 1_555 1_555
C5A C6A 1_555 1_555
C7A C8A 1_555 1_555
C9A C10A 1_555 1_555
C10A C11A 1_555 1_555
C14A C15A 1_555 1_555
C19A C20A 1_555 1_555
C20A C21A 1_555 1_555
C22A C23A 1_555 1_555
C24A C25A 1_555 1_555
C25A C26A 1_555 1_555
C29A C30A 1_555 1_555
C34_2 C35_2 1_555 1_555
C39_2 C40_2 1_555 1_555

#END
