
#######################################################################
#
#                 Cambridge Crystallographic Data Centre
#                                CCDC 
#
#######################################################################
#
# If this CIF has been generated from an entry in the Cambridge 
# Structural Database, then it will include bibliographic, chemical, 
# crystal, experimental, refinement or atomic coordinate data resulting 
# from the CCDC's data processing and validation procedures.
#
#######################################################################

data_FEKGEI
_symmetry_cell_setting           triclinic
_symmetry_space_group_name_H-M   'P -1'
_symmetry_Int_Tables_number      2
_space_group_name_Hall           '-P 1'
loop_
_symmetry_equiv_pos_site_id
_symmetry_equiv_pos_as_xyz
1 x,y,z
2 -x,-y,-z
_cell_length_a                   9.2206(18)
_cell_length_b                   12.375(3)
_cell_length_c                   12.972(3)
_cell_angle_alpha                99.05(3)
_cell_angle_beta                 102.98(3)
_cell_angle_gamma                105.30(3)
_cell_volume                     1353.8
loop_
_atom_site_label
_atom_site_type_symbol
_atom_site_fract_x
_atom_site_fract_y
_atom_site_fract_z
Pb1 Pb 0.33001(5) 0.51008(4) 0.84909(4)
Pb2 Pb 0.83309(6) 0.50779(4) 0.81924(4)
I1 I 0.61966(11) 0.67519(7) 0.79284(8)
I2 I 0.55015(10) 0.33944(7) 0.88543(7)
I3 I 0.04063(10) 0.34798(7) 0.91315(7)
I4 I 0.13660(11) 0.66684(8) 0.76815(9)
I5 I 0.73884(13) 0.37982(8) 0.58165(8)
N1 N 0.1971(13) 0.3835(9) 0.6498(9)
N2 N 0.1526(14) 0.1929(9) 0.4688(9)
H1 H 0.1664 0.1316 0.4369
C1 C 0.1046(16) 0.2653(13) 0.6415(12)
H2 H 0.0213 0.2668 0.6755
H3 H 0.1709 0.2278 0.6815
C2 C 0.313(2) 0.3843(11) 0.5935(11)
H4 H 0.3908 0.3544 0.6327
H5 H 0.3660 0.4633 0.5935
C3 C 0.0327(18) 0.1947(13) 0.5251(14)
H6 H -0.0233 0.1165 0.5254
H7 H -0.0419 0.2273 0.4865
C4 C 0.248(2) 0.3127(13) 0.4745(11)
H8 H 0.1832 0.3493 0.4317
H9 H 0.3338 0.3104 0.4438
Pb1A Pb 0.66999(5) 0.48992(4) 1.15091(4)
Pb2_2 Pb -0.16691(6) 0.50779(4) 0.81924(4)
Pb2A Pb 0.16691(6) 0.49221(4) 1.18076(4)
I2A I 0.44985(10) 0.66056(7) 1.11457(7)
I3_2 I 1.04063(10) 0.34798(7) 0.91315(7)
I3A I 0.95937(10) 0.65202(7) 1.08685(7)
I4_2 I 1.13660(11) 0.66684(8) 0.76815(9)
O1 O 0.3030(15) 1.0617(10) 0.5670(12)
N3 N 0.5158(16) 1.0202(11) 0.6616(10)
C8 C 0.443(2) 1.0855(13) 0.6102(14)
H17 H 0.5063 1.1566 0.6072
C9 C 0.421(3) 0.9095(16) 0.667(2)
H18 H 0.4865 0.8713 0.7046
H19 H 0.3674 0.8639 0.5944
H20 H 0.3456 0.9196 0.7048
C10 C 0.682(2) 1.062(2) 0.712(2)
H21 H 0.7144 1.0042 0.7447
H22 H 0.7075 1.1307 0.7677
H23 H 0.7364 1.0786 0.6587
O2 O -0.004(2) 0.9520(14) 0.7282(12)
N4 N 0.1532(18) 0.9804(11) 0.8948(11)
C5 C 0.021(3) 0.9220(18) 0.813(3)
H10 H -0.0507 0.8582 0.8219
C6 C 0.266(3) 1.0747(18) 0.889(3)
H11 H 0.3486 1.1013 0.9555
H12 H 0.2207 1.1348 0.8767
H13 H 0.3075 1.0542 0.8296
C7 C 0.183(4) 0.939(2) 0.9932(19)
H14 H 0.2806 0.9883 1.0426
H15 H 0.1883 0.8620 0.9758
H16 H 0.0999 0.9391 1.0264
loop_
_geom_bond_atom_site_label_1
_geom_bond_atom_site_label_2
_geom_bond_site_symmetry_1
_geom_bond_site_symmetry_2
Pb1 I1 1_555 1_555
Pb2 I1 1_555 1_555
I2 Pb1 1_555 1_555
I3 Pb1 1_555 1_555
I4 Pb1 1_555 1_555
I5 Pb2 1_555 1_555
O1 C8 1_555 1_555
O2 C5 1_555 1_555
N1 Pb1 1_555 1_555
N2 H1 1_555 1_555
N3 C8 1_555 1_555
N4 C5 1_555 1_555
C1 N1 1_555 1_555
H2 C1 1_555 1_555
H3 C1 1_555 1_555
C2 N1 1_555 1_555
H4 C2 1_555 1_555
H5 C2 1_555 1_555
C3 N2 1_555 1_555
H6 C3 1_555 1_555
H7 C3 1_555 1_555
C4 N2 1_555 1_555
H8 C4 1_555 1_555
H9 C4 1_555 1_555
C5 H10 1_555 1_555
C6 N4 1_555 1_555
H11 C6 1_555 1_555
H12 C6 1_555 1_555
H13 C6 1_555 1_555
C7 N4 1_555 1_555
H14 C7 1_555 1_555
H15 C7 1_555 1_555
H16 C7 1_555 1_555
C8 H17 1_555 1_555
C9 N3 1_555 1_555
H18 C9 1_555 1_555
H19 C9 1_555 1_555
H20 C9 1_555 1_555
C10 N3 1_555 1_555
H21 C10 1_555 1_555
H22 C10 1_555 1_555
H23 C10 1_555 1_555
Pb1A I2 1_555 1_555
Pb2_2 I3 1_555 1_555
Pb2A I3 1_555 1_555
I2A Pb1 1_555 1_555
I3_2 Pb2 1_555 1_555
I3A Pb2 1_555 1_555
I4_2 Pb2 1_555 1_555
Pb2 I2 1_555 1_555
I4 Pb2_2 1_555 1_555
C1 C3 1_555 1_555
C2 C4 1_555 1_555
Pb1A I2A 1_555 1_555
Pb1A I3A 1_555 1_555
Pb2A I2A 1_555 1_555

#END
