
#######################################################################
#
#                 Cambridge Crystallographic Data Centre
#                                CCDC 
#
#######################################################################
#
# If this CIF has been generated from an entry in the Cambridge 
# Structural Database, then it will include bibliographic, chemical, 
# crystal, experimental, refinement or atomic coordinate data resulting 
# from the CCDC's data processing and validation procedures.
#
#######################################################################

data_FEKGIM
_symmetry_cell_setting           orthorhombic
_symmetry_space_group_name_H-M   'P b c a'
_symmetry_Int_Tables_number      61
_space_group_name_Hall           '-P 2ac 2ab'
loop_
_symmetry_equiv_pos_site_id
_symmetry_equiv_pos_as_xyz
1 x,y,z
2 1/2-x,-y,1/2+z
3 -x,1/2+y,1/2-z
4 1/2+x,1/2-y,-z
5 -x,-y,-z
6 1/2+x,y,1/2-z
7 x,1/2-y,1/2+z
8 1/2-x,1/2+y,z
_cell_length_a                   8.5331(12)
_cell_length_b                   8.2042(12)
_cell_length_c                   39.894(6)
_cell_angle_alpha                90
_cell_angle_beta                 90
_cell_angle_gamma                90
_cell_volume                     2792.87
loop_
_atom_site_label
_atom_site_type_symbol
_atom_site_fract_x
_atom_site_fract_y
_atom_site_fract_z
K1 K 0.28890(6) -0.06520(7) 0.264332(14)
S1 S 0.49453(8) 0.23077(8) 0.115700(16)
S2 S 0.08840(7) 0.18081(7) 0.198980(15)
O1 O 0.0957(2) 0.1543(2) 0.29541(5)
H1 H 0.1229 0.1684 0.3157
H2 H -0.0036 0.1601 0.2943
O2 O 0.4473(3) 0.0906(2) 0.09705(5)
O3 O 0.6404(2) 0.2290(3) 0.13345(5)
O4 O 0.2459(2) 0.1748(2) 0.21256(5)
O5 O -0.0205(2) 0.2557(2) 0.22214(5)
O6 O 0.0337(2) 0.0225(2) 0.18737(5)
N1 N 0.3623(2) 0.2661(3) 0.14357(5)
H3 H 0.3790 0.3673 0.1515
H4 H 0.3791 0.1968 0.1607
C1 C 0.5007(3) 0.3976(3) 0.08780(6)
C2 C 0.4032(3) 0.4006(4) 0.06009(7)
H5 H 0.3376 0.3129 0.0555
C3 C 0.4044(4) 0.5349(4) 0.03934(8)
H6 H 0.3389 0.5371 0.0207
C4 C 0.5022(3) 0.6676(4) 0.04576(8)
C5 C 0.5982(3) 0.6601(4) 0.07323(8)
H7 H 0.6650 0.7469 0.0777
C6 C 0.5984(3) 0.5273(3) 0.09446(7)
H8 H 0.6640 0.5254 0.1131
C7 C 0.5022(5) 0.8150(4) 0.02320(10)
H9 H 0.6052 0.8304 0.0140
H10 H 0.4287 0.7989 0.0053
H11 H 0.4729 0.9096 0.0359
C8 C 0.1953(3) 0.2547(3) 0.13462(6)
H12 H 0.1749 0.3215 0.1150
H13 H 0.1699 0.1427 0.1290
C9 C 0.0928(3) 0.3107(3) 0.16328(6)
H14 H 0.1283 0.4176 0.1704
H15 H -0.0135 0.3228 0.1550
K1G K 0.21110(6) 0.43480(7) 0.264332(14)
K1E K -0.21110(6) -0.06520(7) 0.235668(14)
K1B K -0.28890(6) 0.43480(7) 0.235668(14)
O1G O 0.4043(2) -0.3457(2) 0.29541(5)
H1G H 0.3771 -0.3316 0.3157
H2G H 0.5036 -0.3399 0.2943
O4G O 0.2541(2) -0.3252(2) 0.21256(5)
O5E O 0.4795(2) 0.2557(2) 0.27786(5)
O5G O 0.5205(2) -0.2443(2) 0.22214(5)
O5B O 0.0205(2) -0.2443(2) 0.27786(5)
O6E O 0.5337(2) 0.0225(2) 0.31263(5)
loop_
_geom_bond_atom_site_label_1
_geom_bond_atom_site_label_2
_geom_bond_site_symmetry_1
_geom_bond_site_symmetry_2
K1 O1 1_555 1_555
S1 O2 1_555 1_555
S2 O4 1_555 1_555
O1 H1 1_555 1_555
H2 O1 1_555 1_555
O3 S1 1_555 1_555
O4 K1 1_555 1_555
O5 S2 1_555 1_555
O6 S2 1_555 1_555
N1 S1 1_555 1_555
H3 N1 1_555 1_555
H4 N1 1_555 1_555
C1 S1 1_555 1_555
C2 C1 1_555 1_555
H5 C2 1_555 1_555
C3 C2 1_555 1_555
H6 C3 1_555 1_555
C4 C3 1_555 1_555
C5 C4 1_555 1_555
H7 C5 1_555 1_555
C6 C1 1_555 1_555
H8 C6 1_555 1_555
C7 C4 1_555 1_555
H9 C7 1_555 1_555
H10 C7 1_555 1_555
H11 C7 1_555 1_555
C8 N1 1_555 1_555
H12 C8 1_555 1_555
H13 C8 1_555 1_555
C9 S2 1_555 1_555
H14 C9 1_555 1_555
H15 C9 1_555 1_555
K1G O1 1_555 1_555
K1E O5 1_555 1_555
K1B O5 1_555 1_555
O1G K1 1_555 1_555
H1G O1G 1_555 1_555
H2G O1G 1_555 1_555
O4G K1 1_555 1_555
O5E K1 1_555 1_555
O5G K1 1_555 1_555
O5B K1 1_555 1_555
O6E K1 1_555 1_555
O4 K1G 1_555 1_555
O5 K1G 1_555 1_555
O6 K1E 1_555 1_555
C5 C6 1_555 1_555
C8 C9 1_555 1_555
K1G O5E 1_555 1_555
K1E O5B 1_555 1_555

#END
