
#######################################################################
#
#                 Cambridge Crystallographic Data Centre
#                                CCDC 
#
#######################################################################
#
# If this CIF has been generated from an entry in the Cambridge 
# Structural Database, then it will include bibliographic, chemical, 
# crystal, experimental, refinement or atomic coordinate data resulting 
# from the CCDC's data processing and validation procedures.
#
#######################################################################

data_FEKRIX
_symmetry_cell_setting           monoclinic
_symmetry_space_group_name_H-M   'C 2/c'
_symmetry_Int_Tables_number      15
_space_group_name_Hall           '-C 2yn'
loop_
_symmetry_equiv_pos_site_id
_symmetry_equiv_pos_as_xyz
1 x,y,z
2 1/2+x,1/2+y,z
3 -x,y,1/2-z
4 1/2-x,1/2+y,1/2-z
5 -x,-y,-z
6 1/2-x,1/2-y,-z
7 x,-y,1/2+z
8 1/2+x,1/2-y,1/2+z
_cell_length_a                   17.0199(11)
_cell_length_b                   43.104(3)
_cell_length_c                   30.9306(18)
_cell_angle_alpha                90
_cell_angle_beta                 99.981(3)
_cell_angle_gamma                90
_cell_volume                     22348.1
loop_
_atom_site_label
_atom_site_type_symbol
_atom_site_fract_x
_atom_site_fract_y
_atom_site_fract_z
Fe1 Fe 0.38310(6) 0.27306(2) 0.37043(3)
Fe2 Fe 0.73733(6) 0.27521(3) 0.33382(3)
Ag1 Ag 0.8791(2) 0.51946(4) 0.40555(9)
Ag2 Ag 0.2888(3) 0.52443(4) 0.39977(10)
N1 N 0.2711(4) 0.27161(18) 0.38069(19)
N2 N 0.4905(4) 0.29107(13) 0.35764(17)
N3 N 0.4226(4) 0.27288(15) 0.43507(19)
N4 N 0.6244(4) 0.29192(14) 0.34354(16)
N5 N 0.2229(4) 0.27630(18) 0.1018(2)
N6 N 0.8492(4) 0.2747(2) 0.3222(2)
N7 N 0.3027(4) 0.25731(15) 0.22890(18)
N8 N 0.3941(4) 0.22985(16) 0.38015(19)
N9 N 0.7519(5) 0.31886(18) 0.3304(2)
N10 N 0.2581(4) 0.23143(17) 0.1542(2)
N11 N 0.3611(5) 0.31620(17) 0.37001(19)
N12 N 0.3482(4) 0.25664(14) 0.30646(19)
C1 C 0.6248(5) 0.32296(18) 0.3448(2)
C2 C 0.4908(5) 0.32230(17) 0.3584(2)
C3 C 0.4179(5) 0.33676(19) 0.3671(2)
C4 C 0.5578(4) 0.27647(17) 0.3496(2)
C5 C 0.2090(5) 0.2482(2) 0.0833(3)
C6 C 0.8802(6) 0.3035(3) 0.3187(3)
C7 C 0.3028(5) 0.2257(2) 0.2292(2)
C8 C 0.5838(5) 0.2277(2) 0.3900(3)
H4 H 0.5997 0.2390 0.4157
C9 C 0.2385(6) 0.2998(3) 0.3847(3)
C10 C 0.6978(6) 0.3386(2) 0.3396(3)
C11 C 0.4337(5) 0.2439(2) 0.4528(2)
C12 C 0.3248(4) 0.27181(18) 0.2681(2)
C13 C 0.2246(6) 0.2466(3) 0.3848(3)
H5 H 0.2461 0.2270 0.3822
C14 C 0.3482(5) 0.22553(19) 0.3056(2)
C15 C 0.3359(9) 0.3787(3) 0.3836(3)
C16 C 0.5561(5) 0.33859(18) 0.3516(2)
H6 H 0.5550 0.3602 0.3516
C17 C 0.2750(5) 0.2116(2) 0.1868(3)
C18 C 0.5394(8) 0.1946(3) 0.3150(6)
H7 H 0.5250 0.1826 0.2899
C19 C 0.2906(6) 0.3254(2) 0.3807(3)
C20 C 0.1478(7) 0.2485(4) 0.3926(3)
H8 H 0.1177 0.2308 0.3951
C21 C 0.1586(7) 0.3032(3) 0.3929(3)
H9 H 0.1366 0.3227 0.3955
C22 C 0.8250(6) 0.3295(2) 0.3264(3)
C23 C 0.7138(7) 0.3696(2) 0.3465(3)
H10 H 0.6742 0.3831 0.3522
C24 C 0.3237(5) 0.3047(2) 0.2682(2)
C25 C 0.5375(6) 0.2260(2) 0.3124(3)
H11 H 0.5222 0.2358 0.2855
C26 C 0.4126(7) 0.1875(2) 0.4305(3)
H12 H 0.4258 0.1803 0.4592
C27 C 0.5852(8) 0.1970(3) 0.3915(6)
H13 H 0.6019 0.1870 0.4182
C28 C 0.8096(8) 0.4123(3) 0.3567(4)
C29 C 0.4783(5) 0.2658(2) 0.5237(3)
H14 H 0.4981 0.2636 0.5535
C30 C 0.3916(9) 0.1668(2) 0.3968(3)
C31 C 0.9546(7) 0.3086(3) 0.3087(3)
H15 H 0.9733 0.3286 0.3057
C32 C 0.7892(8) 0.3802(3) 0.3450(3)
C33 C 0.8457(8) 0.3598(3) 0.3339(4)
H16 H 0.8966 0.3667 0.3317
C34 C 1.0006(7) 0.2832(4) 0.3032(4)
H17 H 1.0513 0.2857 0.2963
C35 C 0.8956(6) 0.2510(3) 0.3169(3)
H18 H 0.8755 0.2312 0.3193
C36 C 0.2166(6) 0.1917(2) 0.1050(3)
H19 H 0.1944 0.1856 0.0766
C37 C 0.4669(6) 0.2938(2) 0.5060(3)
H20 H 0.4784 0.3112 0.5237
C38 C 0.3719(6) 0.20960(19) 0.3473(2)
C39 C 0.1784(8) 0.2987(3) 0.0318(3)
H21 H 0.1685 0.3165 0.0147
C40 C 0.2305(8) 0.1361(3) 0.1283(3)
C41 C 0.5587(5) 0.24336(18) 0.3505(2)
C42 C 0.1811(7) 0.2440(3) 0.0388(3)
H22 H 0.1737 0.2243 0.0264
C43 C 0.2072(7) 0.3012(3) 0.0762(3)
H23 H 0.2159 0.3209 0.0886
C44 C 0.1647(7) 0.2710(3) 0.0134(3)
H24 H 0.1442 0.2695 -0.0164
C45 C 0.3261(5) 0.2092(2) 0.2671(2)
H25 H 0.3271 0.1876 0.2668
C46 C 0.3684(7) 0.1791(2) 0.3534(3)
H26 H 0.3512 0.1660 0.3298
C47 C 0.4379(5) 0.2974(2) 0.4615(3)
H27 H 0.4291 0.3172 0.4499
C48 C 0.4142(5) 0.21848(19) 0.4220(2)
C49 C 0.2367(6) 0.1694(2) 0.1369(3)
C50 C 0.2780(8) 0.3570(3) 0.3867(3)
H28 H 0.2292 0.3636 0.3930
C51 C 0.1173(7) 0.2776(4) 0.3965(3)
H29 H 0.0654 0.2795 0.4020
C52 C 0.4608(5) 0.2397(2) 0.4977(2)
H30 H 0.4668 0.2199 0.5098
C53 C 0.3952(11) 0.1322(3) 0.4020(3)
C54 C 0.2283(5) 0.2218(2) 0.1137(3)
C55 C 0.9701(6) 0.2536(3) 0.3082(4)
H31 H 1.0006 0.2361 0.3055
C56 C 0.3247(9) 0.4122(3) 0.3883(4)
C57 C 0.2665(6) 0.1804(2) 0.1801(3)
H32 H 0.2799 0.1665 0.2033
C58 C 0.5632(10) 0.1804(3) 0.3556(8)
H33 H 0.5635 0.1589 0.3575
N13 N 0.4027(15) 0.0694(3) 0.4099(4)
N14 N 0.2215(11) 0.0743(3) 0.1100(4)
N15 N 0.8530(11) 0.4711(3) 0.3844(6)
N16 N 0.3064(12) 0.4757(3) 0.3974(6)
C59 C 0.4070(7) 0.3677(2) 0.3732(3)
H34 H 0.4477 0.3816 0.3704
C65 C 0.3759(16) 0.3283(4) 0.2588(8)
H40 H 0.4230 0.3228 0.2494
C66 C 0.3583(19) 0.3602(5) 0.2634(10)
H41 H 0.3964 0.3756 0.2627
C67 C 0.2446(12) 0.3137(5) 0.2757(11)
H42 H 0.2090 0.2982 0.2806
C68 C 0.2193(17) 0.3457(4) 0.2758(6)
H43 H 0.1686 0.3515 0.2800
C69 C 0.279(2) 0.3675(8) 0.2691(19)
H44 H 0.2648 0.3884 0.2684
C70 C 0.7757(18) 0.4261(5) 0.3882(10)
H45 H 0.7359 0.4163 0.4003
C71 C 0.803(2) 0.4556(6) 0.4016(12)
H46 H 0.7832 0.4646 0.4248
C72 C 0.881(2) 0.4585(6) 0.3531(12)
H47 H 0.9141 0.4703 0.3388
C73 C 0.8645(19) 0.4281(5) 0.3388(11)
H48 H 0.8904 0.4191 0.3179
C78 C 0.3853(15) 0.4299(4) 0.4085(10)
H53 H 0.4353 0.4215 0.4189
C79 C 0.3698(18) 0.4614(5) 0.4130(11)
H54 H 0.4105 0.4731 0.4292
C80 C 0.2464(16) 0.4589(4) 0.3834(11)
H55 H 0.1965 0.4681 0.3762
C81 C 0.2534(14) 0.4269(4) 0.3786(11)
H56 H 0.2079 0.4153 0.3684
C86 C 0.4178(15) 0.1132(3) 0.3714(5)
H61 H 0.4314 0.1220 0.3462
C87 C 0.4217(17) 0.0814(3) 0.3757(7)
H62 H 0.4379 0.0691 0.3542
C88 C 0.3940(18) 0.0862(3) 0.4417(6)
H63 H 0.3936 0.0767 0.4687
C89 C 0.3848(14) 0.1184(3) 0.4391(4)
H64 H 0.3719 0.1298 0.4624
C94 C 0.2833(12) 0.1161(3) 0.1506(5)
H69 H 0.3247 0.1231 0.1721
C95 C 0.2739(14) 0.0851(3) 0.1407(6)
H70 H 0.3080 0.0711 0.1575
C96 C 0.1763(14) 0.0929(3) 0.0863(5)
H71 H 0.1408 0.0852 0.0624
C97 C 0.1774(11) 0.1245(3) 0.0943(4)
H72 H 0.1423 0.1376 0.0765
Fe1B Fe 0.61690(6) 0.27306(2) 0.12957(3)
Fe2B Fe 0.26267(6) 0.27521(3) 0.16618(3)
Ag1A Ag 0.3791(2) 0.01946(4) 0.40555(9)
Ag1C Ag 0.6209(2) 0.01946(4) 0.09445(9)
Ag1B Ag 0.1209(2) 0.51946(4) 0.09445(9)
Ag2C Ag 0.2112(3) 0.02443(4) 0.10023(10)
Ag2A Ag 0.7888(3) 0.02443(4) 0.39977(10)
Ag2B Ag 0.7112(3) 0.52443(4) 0.10023(10)
N1B N 0.7289(4) 0.27161(18) 0.11931(19)
N2B N 0.5095(4) 0.29107(13) 0.14236(17)
N3B N 0.5774(4) 0.27288(15) 0.06493(19)
N4B N 0.3756(4) 0.29192(14) 0.15646(16)
N5B N 0.7771(4) 0.27630(18) 0.3982(2)
N6B N 0.1508(4) 0.2747(2) 0.1778(2)
N7B N 0.6973(4) 0.25731(15) 0.27110(18)
N8B N 0.6059(4) 0.22985(16) 0.11985(19)
N9B N 0.2481(5) 0.31886(18) 0.1696(2)
N10B N 0.7419(4) 0.23143(17) 0.3458(2)
N11B N 0.6389(5) 0.31620(17) 0.12999(19)
N12B N 0.6518(4) 0.25664(14) 0.19354(19)
C1B C 0.3752(5) 0.32296(18) 0.1552(2)
C2B C 0.5092(5) 0.32230(17) 0.1416(2)
C3B C 0.5821(5) 0.33676(19) 0.1329(2)
C4B C 0.4422(4) 0.27647(17) 0.1504(2)
C5B C 0.7910(5) 0.2482(2) 0.4167(3)
C6B C 0.1198(6) 0.3035(3) 0.1813(3)
C7B C 0.6972(5) 0.2257(2) 0.2708(2)
C8B C 0.4162(5) 0.2277(2) 0.1100(3)
H4B H 0.4003 0.2390 0.0843
C9B C 0.7615(6) 0.2998(3) 0.1153(3)
C10B C 0.3022(6) 0.3386(2) 0.1604(3)
C11B C 0.5663(5) 0.2439(2) 0.0472(2)
C12B C 0.6752(4) 0.27181(18) 0.2319(2)
C13B C 0.7754(6) 0.2466(3) 0.1152(3)
H5B H 0.7539 0.2270 0.1178
C14B C 0.6518(5) 0.22553(19) 0.1944(2)
C15B C 0.6641(9) 0.3787(3) 0.1164(3)
C16B C 0.4439(5) 0.33859(18) 0.1484(2)
H6B H 0.4450 0.3602 0.1484
C17B C 0.7250(5) 0.2116(2) 0.3132(3)
C18B C 0.4606(8) 0.1946(3) 0.1850(6)
H7B H 0.4750 0.1826 0.2101
C19B C 0.7094(6) 0.3254(2) 0.1193(3)
C20B C 0.8522(7) 0.2485(4) 0.1074(3)
H8B H 0.8823 0.2308 0.1049
C21B C 0.8414(7) 0.3032(3) 0.1071(3)
H9B H 0.8634 0.3227 0.1045
C22B C 0.1750(6) 0.3295(2) 0.1736(3)
C23B C 0.2862(7) 0.3696(2) 0.1535(3)
H10B H 0.3258 0.3831 0.1478
C24B C 0.6763(5) 0.3047(2) 0.2318(2)
C25B C 0.4625(6) 0.2260(2) 0.1876(3)
H11B H 0.4778 0.2358 0.2145
C26B C 0.5874(7) 0.1875(2) 0.0695(3)
H12B H 0.5742 0.1803 0.0408
C27B C 0.4148(8) 0.1970(3) 0.1085(6)
H13B H 0.3981 0.1870 0.0818
C28B C 0.1904(8) 0.4123(3) 0.1433(4)
C29B C 0.5217(5) 0.2658(2) -0.0237(3)
H14B H 0.5019 0.2636 -0.0535
C30B C 0.6084(9) 0.1668(2) 0.1032(3)
C31B C 0.0454(7) 0.3086(3) 0.1913(3)
H15B H 0.0267 0.3286 0.1943
C32B C 0.2108(8) 0.3802(3) 0.1550(3)
C33B C 0.1543(8) 0.3598(3) 0.1661(4)
H16B H 0.1034 0.3667 0.1683
C34B C -0.0006(7) 0.2832(4) 0.1968(4)
H17B H -0.0513 0.2857 0.2037
C35B C 0.1044(6) 0.2510(3) 0.1831(3)
H18B H 0.1245 0.2312 0.1807
C36B C 0.7834(6) 0.1917(2) 0.3950(3)
H19B H 0.8056 0.1856 0.4234
C37B C 0.5331(6) 0.2938(2) -0.0060(3)
H20B H 0.5216 0.3112 -0.0237
C38B C 0.6281(6) 0.20960(19) 0.1527(2)
C39B C 0.8216(8) 0.2987(3) 0.4682(3)
H21B H 0.8315 0.3165 0.4853
C40B C 0.7695(8) 0.1361(3) 0.3717(3)
C41B C 0.4413(5) 0.24336(18) 0.1495(2)
C42B C 0.8189(7) 0.2440(3) 0.4612(3)
H22B H 0.8263 0.2243 0.4736
C43B C 0.7928(7) 0.3012(3) 0.4238(3)
H23B H 0.7841 0.3209 0.4114
C44B C 0.8353(7) 0.2710(3) 0.4866(3)
H24B H 0.8558 0.2695 0.5164
C45B C 0.6739(5) 0.2092(2) 0.2329(2)
H25B H 0.6729 0.1876 0.2332
C46B C 0.6316(7) 0.1791(2) 0.1466(3)
H26B H 0.6488 0.1660 0.1702
C47B C 0.5621(5) 0.2974(2) 0.0385(3)
H27B H 0.5709 0.3172 0.0501
C48B C 0.5858(5) 0.21848(19) 0.0780(2)
C49B C 0.7633(6) 0.1694(2) 0.3631(3)
C50B C 0.7220(8) 0.3570(3) 0.1133(3)
H28B H 0.7708 0.3636 0.1070
C51B C 0.8827(7) 0.2776(4) 0.1035(3)
H29B H 0.9346 0.2795 0.0980
C52B C 0.5392(5) 0.2397(2) 0.0023(2)
H30B H 0.5332 0.2199 -0.0098
C53B C 0.6048(11) 0.1322(3) 0.0980(3)
C54B C 0.7717(5) 0.2218(2) 0.3863(3)
C55B C 0.0299(6) 0.2536(3) 0.1918(4)
H31B H -0.0006 0.2361 0.1945
C56B C 0.6753(9) 0.4122(3) 0.1117(4)
C57B C 0.7335(6) 0.1804(2) 0.3199(3)
H32B H 0.7201 0.1665 0.2967
C58B C 0.4368(10) 0.1804(3) 0.1444(8)
H33B H 0.4365 0.1589 0.1425
N13B N 0.5973(15) 0.0694(3) 0.0901(4)
N13A N 0.9027(15) 0.5694(3) 0.4099(4)
N14B N 0.7785(11) 0.0743(3) 0.3900(4)
N14C N 0.2785(11) 0.5743(3) 0.3900(4)
N15C N 0.6470(11) -0.0289(3) 0.1156(6)
N15B N 0.1470(11) 0.4711(3) 0.1156(6)
N16A N 0.8064(12) -0.0243(3) 0.3974(6)
N16B N 0.6936(12) 0.4757(3) 0.1026(6)
C59B C 0.5930(7) 0.3677(2) 0.1268(3)
H34B H 0.5523 0.3816 0.1296
C65B C 0.6241(16) 0.3283(4) 0.2412(8)
H40B H 0.5770 0.3228 0.2506
C66B C 0.6417(19) 0.3602(5) 0.2366(10)
H41B H 0.6036 0.3756 0.2373
C67B C 0.7554(12) 0.3137(5) 0.2243(11)
H42B H 0.7910 0.2982 0.2194
C68B C 0.7807(17) 0.3457(4) 0.2242(6)
H43B H 0.8314 0.3515 0.2200
C69B C 0.721(2) 0.3675(8) 0.2309(19)
H44B H 0.7352 0.3884 0.2316
C70B C 0.2243(18) 0.4261(5) 0.1118(10)
H45B H 0.2641 0.4163 0.0997
C71B C 0.197(2) 0.4556(6) 0.0984(12)
H46B H 0.2168 0.4646 0.0752
C72B C 0.119(2) 0.4585(6) 0.1469(12)
H47B H 0.0859 0.4703 0.1612
C73B C 0.1355(19) 0.4281(5) 0.1612(11)
H48B H 0.1096 0.4191 0.1821
C78B C 0.6147(15) 0.4299(4) 0.0915(10)
H53B H 0.5647 0.4215 0.0811
C79B C 0.6302(18) 0.4614(5) 0.0870(11)
H54B H 0.5895 0.4731 0.0708
C80B C 0.7536(16) 0.4589(4) 0.1166(11)
H55B H 0.8035 0.4681 0.1238
C81B C 0.7466(14) 0.4269(4) 0.1214(11)
H56B H 0.7921 0.4153 0.1316
C86B C 0.5822(15) 0.1132(3) 0.1286(5)
H61B H 0.5686 0.1220 0.1538
C87B C 0.5783(17) 0.0814(3) 0.1243(7)
H62B H 0.5621 0.0691 0.1458
C88B C 0.6060(18) 0.0862(3) 0.0583(6)
H63B H 0.6064 0.0767 0.0313
C89B C 0.6152(14) 0.1184(3) 0.0609(4)
H64B H 0.6281 0.1298 0.0376
C94B C 0.7167(12) 0.1161(3) 0.3494(5)
H69B H 0.6753 0.1231 0.3279
C95B C 0.7261(14) 0.0851(3) 0.3593(6)
H70B H 0.6920 0.0711 0.3425
C96B C 0.8237(14) 0.0929(3) 0.4137(5)
H71B H 0.8592 0.0852 0.4376
C97B C 0.8226(11) 0.1245(3) 0.4057(4)
H72B H 0.8577 0.1376 0.4235
Si1 Si 0.5000 0.1088(4) 0.2500
F1 F 0.4350(14) 0.1397(3) 0.2579(8)
F2 F 0.554(2) 0.1160(7) 0.3019(7)
F3 F 0.417(2) 0.0862(4) 0.2588(14)
F1B F 0.5650(14) 0.1397(3) 0.2421(8)
F2B F 0.446(2) 0.1160(7) 0.1981(7)
F3B F 0.583(2) 0.0862(4) 0.2412(14)
B1 B 0.8621(10) 0.2009(5) 0.2168(6)
F4 F 0.8438(6) 0.2323(4) 0.2167(3)
F5 F 0.8447(19) 0.1876(8) 0.2545(7)
F6 F 0.8165(13) 0.1879(6) 0.1799(7)
F7 F 0.9417(10) 0.1976(8) 0.2157(10)
B2 B 0.5115(12) 0.3265(4) 0.6319(6)
F8 F 0.564(2) 0.3277(7) 0.6704(6)
F9 F 0.5302(10) 0.2998(4) 0.6125(5)
F10 F 0.4339(14) 0.3231(7) 0.6375(15)
F11 F 0.519(2) 0.3517(6) 0.6060(11)
B3 B 0.9902(8) 0.3417(3) 0.4325(4)
F12 F 0.9659(6) 0.3123(2) 0.4186(3)
F13 F 1.0486(8) 0.3371(2) 0.4683(3)
F14 F 1.0231(9) 0.3546(3) 0.3991(4)
F15 F 0.9243(8) 0.3589(3) 0.4368(4)
B4 B 0.6266(6) 0.3346(2) 0.4611(3)
F16 F 0.6168(4) 0.30517(13) 0.44438(17)
F17 F 0.6796(4) 0.35145(16) 0.4412(2)
F18 F 0.5544(4) 0.35035(16) 0.4538(2)
F19 F 0.6557(6) 0.33213(18) 0.50587(16)
B6 B 0.536(2) 0.4295(4) 0.3165(7)
F24 F 0.5593(11) 0.4159(3) 0.3572(6)
F25 F 0.555(4) 0.4090(8) 0.2858(11)
F26 F 0.573(3) 0.4576(6) 0.3142(14)
F27 F 0.455(2) 0.4334(9) 0.3094(18)
O1 O 0.310(2) 0.1336(3) 0.2674(5)
O2 O 0.2500 0.2500 0.5000
N17 N 0.881(3) 0.3666(11) 0.5505(18)
C102 C 0.8481(17) 0.3839(5) 0.5290(8)
C103 C 0.815(4) 0.3992(10) 0.4916(12)
H77 H 0.7937 0.4186 0.4992
H78 H 0.7737 0.3868 0.4753
H79 H 0.8559 0.4030 0.4741
H1? H 0.2414 0.2782 0.1294
H2? H 0.2892 0.2676 0.2050
H3? H 0.2665 0.2509 0.1590
C60? C 0.4007(11) 0.3176(4) 0.2632(7)
H35? H 0.4426 0.3037 0.2630
C61? C 0.4170(15) 0.3503(3) 0.2586(5)
H36? H 0.4669 0.3570 0.2541
C62? C 0.285(2) 0.3584(4) 0.2724(17)
H37? H 0.2478 0.3722 0.2797
C63? C 0.2644(15) 0.3265(4) 0.2743(11)
H38? H 0.2144 0.3203 0.2793
C64? C 0.3547(16) 0.3721(6) 0.2610(13)
H39? H 0.3592 0.3932 0.2556
C74? C 0.7573(16) 0.4364(4) 0.3507(14)
H49? H 0.7046 0.4330 0.3377
C75? C 0.7823(19) 0.4663(6) 0.3639(17)
H50? H 0.7471 0.4829 0.3576
C76? C 0.9062(17) 0.4501(4) 0.3896(15)
H51? H 0.9577 0.4545 0.4039
C77? C 0.8861(15) 0.4204(5) 0.3736(14)
H52? H 0.9263 0.4057 0.3744
C82? C 0.278(2) 0.4241(5) 0.4151(12)
H57? H 0.2520 0.4112 0.4324
C83? C 0.269(3) 0.4559(5) 0.4161(17)
H58? H 0.2316 0.4636 0.4321
C84? C 0.352(3) 0.4661(5) 0.3717(13)
H59? H 0.3793 0.4800 0.3566
C85? C 0.360(2) 0.4342(4) 0.3667(11)
H60? H 0.3920 0.4274 0.3471
C90? C 0.332(2) 0.1153(9) 0.3814(15)
H65? H 0.2871 0.1240 0.3645
C91? C 0.343(3) 0.0835(11) 0.3883(15)
H66? H 0.3005 0.0710 0.3755
C92? C 0.461(3) 0.0848(11) 0.4298(18)
H67? H 0.5049 0.0750 0.4466
C93? C 0.457(2) 0.1168(11) 0.4255(15)
H68? H 0.5005 0.1284 0.4396
C98? C 0.239(6) 0.0914(12) 0.0797(16)
H73? H 0.2481 0.0837 0.0530
C99? C 0.242(5) 0.1227(15) 0.0903(16)
H74? H 0.2529 0.1362 0.0686
C100? C 0.212(6) 0.1154(13) 0.1580(17)
H75? H 0.2028 0.1219 0.1853
C101? C 0.208(6) 0.0841(16) 0.1469(17)
H76? H 0.1957 0.0698 0.1672
B5? B 0.0779(16) 0.3791(5) 0.2914(10)
F20? F 0.1010(17) 0.3488(5) 0.2883(14)
F21? F -0.0033(16) 0.3814(7) 0.2868(16)
F22? F 0.0993(19) 0.3968(7) 0.2579(13)
F23? F 0.114(4) 0.3907(11) 0.3311(13)
F28? F 0.603(3) 0.4346(11) 0.2972(16)
F29? F 0.497(4) 0.4569(7) 0.3193(16)
F30? F 0.488(3) 0.4085(8) 0.2905(12)
loop_
_geom_bond_atom_site_label_1
_geom_bond_atom_site_label_2
_geom_bond_site_symmetry_1
_geom_bond_site_symmetry_2
Fe1 N1 1_555 1_555
Fe2 N4 1_555 1_555
Ag1 N15 1_555 1_555
Ag2 N16 1_555 1_555
N1 C9 1_555 1_555
N2 Fe1 1_555 1_555
N3 Fe1 1_555 1_555
N4 C1 1_555 1_555
N5 C5 1_555 1_555
N6 Fe2 1_555 1_555
N7 C7 1_555 1_555
N8 Fe1 1_555 1_555
N9 Fe2 1_555 1_555
N10 C17 1_555 1_555
N11 Fe1 1_555 1_555
N12 Fe1 1_555 1_555
C1 C10 1_555 1_555
C2 N2 1_555 1_555
C3 N11 1_555 1_555
C4 N2 1_555 1_555
C5 C42 1_555 1_555
C6 N6 1_555 1_555
C7 C17 1_555 1_555
C8 H4 1_555 1_555
C9 C19 1_555 1_555
C10 N9 1_555 1_555
C11 N3 1_555 1_555
C12 N7 1_555 1_555
C13 N1 1_555 1_555
H5 C13 1_555 1_555
C14 N12 1_555 1_555
C15 C50 1_555 1_555
C16 C1 1_555 1_555
H6 C16 1_555 1_555
C17 C57 1_555 1_555
C18 H7 1_555 1_555
C19 N11 1_555 1_555
C20 C13 1_555 1_555
H8 C20 1_555 1_555
C21 C9 1_555 1_555
H9 C21 1_555 1_555
C22 N9 1_555 1_555
C23 C10 1_555 1_555
H10 C23 1_555 1_555
C24 C12 1_555 1_555
C25 C18 1_555 1_555
H11 C25 1_555 1_555
C26 H12 1_555 1_555
C27 C8 1_555 1_555
H13 C27 1_555 1_555
C28 C32 1_555 1_555
C29 H14 1_555 1_555
C30 C26 1_555 1_555
C31 C6 1_555 1_555
H15 C31 1_555 1_555
C32 C23 1_555 1_555
C33 C22 1_555 1_555
H16 C33 1_555 1_555
C34 C31 1_555 1_555
H17 C34 1_555 1_555
C35 N6 1_555 1_555
H18 C35 1_555 1_555
C36 H19 1_555 1_555
C37 C29 1_555 1_555
H20 C37 1_555 1_555
C38 N8 1_555 1_555
C39 H21 1_555 1_555
C40 C49 1_555 1_555
C41 C4 1_555 1_555
C42 H22 1_555 1_555
C43 N5 1_555 1_555
H23 C43 1_555 1_555
C44 C39 1_555 1_555
H24 C44 1_555 1_555
C45 C7 1_555 1_555
H25 C45 1_555 1_555
C46 C30 1_555 1_555
H26 C46 1_555 1_555
C47 N3 1_555 1_555
H27 C47 1_555 1_555
C48 N8 1_555 1_555
C49 C36 1_555 1_555
C50 C19 1_555 1_555
H28 C50 1_555 1_555
C51 C20 1_555 1_555
H29 C51 1_555 1_555
C52 C11 1_555 1_555
H30 C52 1_555 1_555
C53 C30 1_555 1_555
C54 N10 1_555 1_555
C55 C34 1_555 1_555
H31 C55 1_555 1_555
C56 C15 1_555 1_555
C57 C49 1_555 1_555
H32 C57 1_555 1_555
C58 C18 1_555 1_555
H33 C58 1_555 1_555
N13 C87 1_555 1_555
N14 C95 1_555 1_555
N15 C71 1_555 1_555
N16 C79 1_555 1_555
C59 C3 1_555 1_555
H34 C59 1_555 1_555
C65 C24 1_555 1_555
H40 C65 1_555 1_555
C66 C65 1_555 1_555
H41 C66 1_555 1_555
C67 C24 1_555 1_555
H42 C67 1_555 1_555
C68 C67 1_555 1_555
H43 C68 1_555 1_555
C69 C66 1_555 1_555
H44 C69 1_555 1_555
C70 C28 1_555 1_555
H45 C70 1_555 1_555
C71 C70 1_555 1_555
H46 C71 1_555 1_555
C72 N15 1_555 1_555
H47 C72 1_555 1_555
C73 C28 1_555 1_555
H48 C73 1_555 1_555
C78 C56 1_555 1_555
H53 C78 1_555 1_555
C79 C78 1_555 1_555
H54 C79 1_555 1_555
C80 N16 1_555 1_555
H55 C80 1_555 1_555
C81 C56 1_555 1_555
H56 C81 1_555 1_555
C86 C53 1_555 1_555
H61 C86 1_555 1_555
C87 C86 1_555 1_555
H62 C87 1_555 1_555
C88 N13 1_555 1_555
H63 C88 1_555 1_555
C89 C53 1_555 1_555
H64 C89 1_555 1_555
C94 C40 1_555 1_555
H69 C94 1_555 1_555
C95 C94 1_555 1_555
H70 C95 1_555 1_555
C96 N14 1_555 1_555
H71 C96 1_555 1_555
C97 C40 1_555 1_555
H72 C97 1_555 1_555
Si1 F1 1_555 1_555
F2 Si1 1_555 1_555
F3 Si1 1_555 1_555
B1 F4 1_555 1_555
F5 B1 1_555 1_555
F6 B1 1_555 1_555
F7 B1 1_555 1_555
B2 F8 1_555 1_555
F9 B2 1_555 1_555
F10 B2 1_555 1_555
F11 B2 1_555 1_555
B3 F12 1_555 1_555
F13 B3 1_555 1_555
F14 B3 1_555 1_555
F15 B3 1_555 1_555
B4 F16 1_555 1_555
F17 B4 1_555 1_555
F18 B4 1_555 1_555
F19 B4 1_555 1_555
B6 F24 1_555 1_555
F25 B6 1_555 1_555
F26 B6 1_555 1_555
F27 B6 1_555 1_555
N17 C102 1_555 1_555
C102 C103 1_555 1_555
C103 H77 1_555 1_555
H78 C103 1_555 1_555
H79 C103 1_555 1_555
Fe1B N1B 1_555 1_555
Fe2B N5 1_555 1_555
Ag1A N13 1_555 1_555
Ag1C N13B 1_555 1_555
Ag1B N15B 1_555 1_555
Ag2C N14 1_555 1_555
Ag2A N14B 1_555 1_555
Ag2B N16B 1_555 1_555
N1B C9B 1_555 1_555
N2B Fe1B 1_555 1_555
N3B Fe1B 1_555 1_555
N4B Fe2B 1_555 1_555
N5B Fe2 1_555 1_555
N6B Fe2B 1_555 1_555
N7B Fe2 1_555 1_555
N8B Fe1B 1_555 1_555
N9B Fe2B 1_555 1_555
N10B Fe2 1_555 1_555
N11B Fe1B 1_555 1_555
N12B Fe1B 1_555 1_555
C1B N4B 1_555 1_555
C2B N2B 1_555 1_555
C3B N11B 1_555 1_555
C4B N2B 1_555 1_555
C5B N5B 1_555 1_555
C6B N6B 1_555 1_555
C7B N7B 1_555 1_555
C8B H4B 1_555 1_555
C9B C19B 1_555 1_555
C10B N9B 1_555 1_555
C11B N3B 1_555 1_555
C12B N7B 1_555 1_555
C13B N1B 1_555 1_555
H5B C13B 1_555 1_555
C14B N12B 1_555 1_555
C15B C50B 1_555 1_555
C16B C1B 1_555 1_555
H6B C16B 1_555 1_555
C17B N10B 1_555 1_555
C18B H7B 1_555 1_555
C19B N11B 1_555 1_555
C20B C13B 1_555 1_555
H8B C20B 1_555 1_555
C21B C9B 1_555 1_555
H9B C21B 1_555 1_555
C22B N9B 1_555 1_555
C23B C10B 1_555 1_555
H10B C23B 1_555 1_555
C24B C12B 1_555 1_555
C25B C18B 1_555 1_555
H11B C25B 1_555 1_555
C26B H12B 1_555 1_555
C27B C8B 1_555 1_555
H13B C27B 1_555 1_555
C28B C32B 1_555 1_555
C29B H14B 1_555 1_555
C30B C26B 1_555 1_555
C31B C6B 1_555 1_555
H15B C31B 1_555 1_555
C32B C23B 1_555 1_555
C33B C22B 1_555 1_555
H16B C33B 1_555 1_555
C34B C31B 1_555 1_555
H17B C34B 1_555 1_555
C35B N6B 1_555 1_555
H18B C35B 1_555 1_555
C36B H19B 1_555 1_555
C37B C29B 1_555 1_555
H20B C37B 1_555 1_555
C38B N8B 1_555 1_555
C39B H21B 1_555 1_555
C40B C49B 1_555 1_555
C41B C4B 1_555 1_555
C42B C5B 1_555 1_555
H22B C42B 1_555 1_555
C43B N5B 1_555 1_555
H23B C43B 1_555 1_555
C44B C39B 1_555 1_555
H24B C44B 1_555 1_555
C45B C7B 1_555 1_555
H25B C45B 1_555 1_555
C46B C30B 1_555 1_555
H26B C46B 1_555 1_555
C47B N3B 1_555 1_555
H27B C47B 1_555 1_555
C48B N8B 1_555 1_555
C49B C36B 1_555 1_555
C50B C19B 1_555 1_555
H28B C50B 1_555 1_555
C51B C20B 1_555 1_555
H29B C51B 1_555 1_555
C52B C11B 1_555 1_555
H30B C52B 1_555 1_555
C53B C30B 1_555 1_555
C54B N10B 1_555 1_555
C55B C34B 1_555 1_555
H31B C55B 1_555 1_555
C56B C15B 1_555 1_555
C57B C17B 1_555 1_555
H32B C57B 1_555 1_555
C58B C18B 1_555 1_555
H33B C58B 1_555 1_555
N13B C87B 1_555 1_555
N13A Ag1 1_555 1_555
N14B C95B 1_555 1_555
N14C Ag2 1_555 1_555
N15C Ag1C 1_555 1_555
N15B C71B 1_555 1_555
N16A Ag2A 1_555 1_555
N16B C79B 1_555 1_555
C59B C3B 1_555 1_555
H34B C59B 1_555 1_555
C65B C24B 1_555 1_555
H40B C65B 1_555 1_555
C66B C65B 1_555 1_555
H41B C66B 1_555 1_555
C67B C24B 1_555 1_555
H42B C67B 1_555 1_555
C68B C67B 1_555 1_555
H43B C68B 1_555 1_555
C69B C66B 1_555 1_555
H44B C69B 1_555 1_555
C70B C28B 1_555 1_555
H45B C70B 1_555 1_555
C71B C70B 1_555 1_555
H46B C71B 1_555 1_555
C72B N15B 1_555 1_555
H47B C72B 1_555 1_555
C73B C28B 1_555 1_555
H48B C73B 1_555 1_555
C78B C56B 1_555 1_555
H53B C78B 1_555 1_555
C79B C78B 1_555 1_555
H54B C79B 1_555 1_555
C80B N16B 1_555 1_555
H55B C80B 1_555 1_555
C81B C56B 1_555 1_555
H56B C81B 1_555 1_555
C86B C53B 1_555 1_555
H61B C86B 1_555 1_555
C87B C86B 1_555 1_555
H62B C87B 1_555 1_555
C88B N13B 1_555 1_555
H63B C88B 1_555 1_555
C89B C53B 1_555 1_555
H64B C89B 1_555 1_555
C94B C40B 1_555 1_555
H69B C94B 1_555 1_555
C95B C94B 1_555 1_555
H70B C95B 1_555 1_555
C96B N14B 1_555 1_555
H71B C96B 1_555 1_555
C97B C40B 1_555 1_555
H72B C97B 1_555 1_555
F1B Si1 1_555 1_555
F2B Si1 1_555 1_555
F3B Si1 1_555 1_555
N4 C4 1_555 1_555
N7 Fe2B 1_555 1_555
N10 Fe2B 1_555 1_555
N12 C12 1_555 1_555
C2 C3 1_555 1_555
C2 C16 1_555 1_555
C5 C54 1_555 1_555
C6 C22 1_555 1_555
C8 C41 1_555 1_555
C11 C48 1_555 1_555
C14 C38 1_555 1_555
C14 C45 1_555 1_555
C15 C59 1_555 1_555
C21 C51 1_555 1_555
C25 C41 1_555 1_555
C26 C48 1_555 1_555
C27 C58 1_555 1_555
C29 C52 1_555 1_555
C32 C33 1_555 1_555
C35 C55 1_555 1_555
C36 C54 1_555 1_555
C37 C47 1_555 1_555
C38 C46 1_555 1_555
C39 C43 1_555 1_555
C42 C44 1_555 1_555
C68 C69 1_555 1_555
C72 C73 1_555 1_555
C80 C81 1_555 1_555
C88 C89 1_555 1_555
C96 C97 1_555 1_555
N4B C4B 1_555 1_555
N12B C12B 1_555 1_555
C1B C10B 1_555 1_555
C2B C3B 1_555 1_555
C2B C16B 1_555 1_555
C5B C54B 1_555 1_555
C6B C22B 1_555 1_555
C7B C17B 1_555 1_555
C8B C41B 1_555 1_555
C11B C48B 1_555 1_555
C14B C38B 1_555 1_555
C14B C45B 1_555 1_555
C15B C59B 1_555 1_555
C21B C51B 1_555 1_555
C25B C41B 1_555 1_555
C26B C48B 1_555 1_555
C27B C58B 1_555 1_555
C29B C52B 1_555 1_555
C32B C33B 1_555 1_555
C35B C55B 1_555 1_555
C36B C54B 1_555 1_555
C37B C47B 1_555 1_555
C38B C46B 1_555 1_555
C39B C43B 1_555 1_555
C42B C44B 1_555 1_555
C49B C57B 1_555 1_555
C68B C69B 1_555 1_555
C72B C73B 1_555 1_555
C80B C81B 1_555 1_555
C88B C89B 1_555 1_555
C96B C97B 1_555 1_555

#END
