
#######################################################################
#
#                 Cambridge Crystallographic Data Centre
#                                CCDC 
#
#######################################################################
#
# If this CIF has been generated from an entry in the Cambridge 
# Structural Database, then it will include bibliographic, chemical, 
# crystal, experimental, refinement or atomic coordinate data resulting 
# from the CCDC's data processing and validation procedures.
#
#######################################################################

data_FELCEE
_symmetry_cell_setting           triclinic
_symmetry_space_group_name_H-M   'P -1'
_symmetry_Int_Tables_number      2
_space_group_name_Hall           '-P 1'
loop_
_symmetry_equiv_pos_site_id
_symmetry_equiv_pos_as_xyz
1 x,y,z
2 -x,-y,-z
_cell_length_a                   9.810(5)
_cell_length_b                   15.486(14)
_cell_length_c                   4.108(2)
_cell_angle_alpha                81.32(6)
_cell_angle_beta                 87.74(4)
_cell_angle_gamma                108.18(5)
_cell_volume                     583.641
loop_
_atom_site_label
_atom_site_type_symbol
_atom_site_fract_x
_atom_site_fract_y
_atom_site_fract_z
Cu1 Cu -0.7147(2) 0.2520(1) 0.7959(4)
I1 I -0.5980(1) 0.2087(1) 0.3013(2)
O1 O -0.6686(10) 0.4102(7) 0.5431(28)
O2 O -0.7937(11) 0.4840(7) 0.2297(25)
N1 N -0.9119(10) 0.2653(7) 0.7418(23)
C1 C -0.9235(13) 0.3389(9) 0.5511(30)
C2 C -1.0529(15) 0.3481(10) 0.4544(33)
C3 C -1.1780(15) 0.2786(10) 0.5651(40)
C4 C -1.1722(14) 0.1990(10) 0.7696(33)
C5 C -1.2963(15) 0.1246(12) 0.8948(43)
C6 C -1.2866(16) 0.0488(11) 1.0940(42)
C7 C -1.1507(16) 0.0446(11) 1.1907(40)
C8 C -1.0279(15) 0.1154(10) 1.0661(35)
C9 C -1.0354(14) 0.1939(9) 0.8573(33)
C10 C -0.7781(14) 0.4143(9) 0.4417(32)
C11 C -0.6582(19) 0.5598(11) 0.1176(41)
H1 H -1.0548 0.4031 0.3036
H2 H -1.2715 0.2842 0.5066
H3 H -1.3920 0.1280 0.8396
H4 H -1.3745 -0.0047 1.1738
H5 H -1.1448 -0.0088 1.3444
H6 H -0.9342 0.1101 1.1200
I1_2 I -0.5980(1) 0.2087(1) 1.3013(2)
Cu1_2 Cu -0.7147(2) 0.2520(1) -0.2041(4)
loop_
_geom_bond_atom_site_label_1
_geom_bond_atom_site_label_2
_geom_bond_site_symmetry_1
_geom_bond_site_symmetry_2
Cu1 I1 1_555 1_555
I1 Cu1_2 1_555 1_555
O1 Cu1 1_555 1_555
O2 C10 1_555 1_555
N1 Cu1 1_555 1_555
C1 N1 1_555 1_555
C2 C1 1_555 1_555
C3 C2 1_555 1_555
C4 C3 1_555 1_555
C5 C4 1_555 1_555
C6 C5 1_555 1_555
C7 C6 1_555 1_555
C8 C7 1_555 1_555
C9 N1 1_555 1_555
C10 O1 1_555 1_555
C11 O2 1_555 1_555
H1 C2 1_555 1_555
H2 C3 1_555 1_555
H3 C5 1_555 1_555
H4 C6 1_555 1_555
H5 C7 1_555 1_555
H6 C8 1_555 1_555
I1_2 Cu1 1_555 1_555
C1 C10 1_555 1_555
C4 C9 1_555 1_555
C8 C9 1_555 1_555

#END
