
#######################################################################
#
#                 Cambridge Crystallographic Data Centre
#                                CCDC 
#
#######################################################################
#
# If this CIF has been generated from an entry in the Cambridge 
# Structural Database, then it will include bibliographic, chemical, 
# crystal, experimental, refinement or atomic coordinate data resulting 
# from the CCDC's data processing and validation procedures.
#
#######################################################################

data_FELFUY
_symmetry_cell_setting           monoclinic
_symmetry_space_group_name_H-M   'P 21/c'
_symmetry_Int_Tables_number      14
_space_group_name_Hall           '-P 2ybc'
loop_
_symmetry_equiv_pos_site_id
_symmetry_equiv_pos_as_xyz
1 x,y,z
2 -x,1/2+y,1/2-z
3 -x,-y,-z
4 x,1/2-y,1/2+z
_cell_length_a                   7.0590(14)
_cell_length_b                   8.5990(17)
_cell_length_c                   22.610(5)
_cell_angle_alpha                90
_cell_angle_beta                 94.14(3)
_cell_angle_gamma                90
_cell_volume                     1368.85
loop_
_atom_site_label
_atom_site_type_symbol
_atom_site_fract_x
_atom_site_fract_y
_atom_site_fract_z
Ag1 Ag 0.45371(13) -0.46712(9) 0.30191(3)
O1 O 0.4078(10) -0.4514(8) 0.1910(3)
O2 O 0.4606(11) -0.2607(8) 0.1303(3)
O3 O 0.1590(10) 0.1669(8) 0.4876(3)
O4 O 0.4908(10) -0.2241(8) 0.2253(3)
N1 N 0.2903(12) -0.0590(8) 0.5257(3)
C1 C 0.1221(13) 0.4553(11) 0.6942(3)
H1 H 0.1184 0.4663 0.7359
N2 N 0.2349(11) 0.1423(9) 0.5876(3)
C2 C 0.2232(13) 0.0915(11) 0.5296(4)
C3 C 0.3667(13) -0.3887(11) 0.4300(4)
H2 H 0.3981 -0.4956 0.4350
C4 C 0.3477(14) -0.3008(11) 0.4793(4)
H3 H 0.3673 -0.3473 0.5173
C5 C 0.1234(12) 0.4139(11) 0.5711(4)
H4 H 0.1249 0.4034 0.5294
C6 C 0.1839(13) 0.3127(10) 0.6697(4)
H5 H 0.2299 0.2317 0.6955
N3 N 0.3430(10) -0.3316(9) 0.3742(3)
C7 C 0.2919(14) -0.1831(10) 0.3691(4)
H6 H 0.2713 -0.1410 0.3303
N4 N 0.4503(11) -0.3122(9) 0.1808(3)
C8 C 0.1779(13) 0.2901(11) 0.6080(4)
C9 C 0.2671(13) -0.0864(11) 0.4165(4)
H7 H 0.2280 0.0183 0.4100
C10 C 0.2999(13) -0.1437(11) 0.4748(4)
C11 C 0.0682(14) 0.5760(11) 0.6575(4)
C12 C 0.0658(14) 0.5554(11) 0.5961(4)
H8 H 0.0246 0.6384 0.5706
C13 C 0.0025(15) 0.7260(11) 0.6822(4)
H9 H -0.1357 0.7232 0.6842
H10 H 0.0366 0.8119 0.6566
H11 H 0.0634 0.7413 0.7221
H12 H 0.282(12) 0.076(10) 0.613(4)
H13 H 0.337(13) -0.098(11) 0.554(4)
Ag1A Ag 0.54629(13) 0.03288(9) 0.19809(3)
O4A O 0.5092(10) -0.7241(8) 0.2747(3)
loop_
_geom_bond_atom_site_label_1
_geom_bond_atom_site_label_2
_geom_bond_site_symmetry_1
_geom_bond_site_symmetry_2
Ag1 O1 1_555 1_555
O1 N4 1_555 1_555
O2 N4 1_555 1_555
O3 C2 1_555 1_555
O4 N4 1_555 1_555
N1 C2 1_555 1_555
C1 H1 1_555 1_555
N2 C2 1_555 1_555
C3 H2 1_555 1_555
C4 C3 1_555 1_555
H3 C4 1_555 1_555
C5 H4 1_555 1_555
C6 C1 1_555 1_555
H5 C6 1_555 1_555
N3 Ag1 1_555 1_555
C7 N3 1_555 1_555
H6 C7 1_555 1_555
C8 N2 1_555 1_555
C9 C7 1_555 1_555
H7 C9 1_555 1_555
C10 N1 1_555 1_555
C11 C1 1_555 1_555
C12 C5 1_555 1_555
H8 C12 1_555 1_555
C13 C11 1_555 1_555
H9 C13 1_555 1_555
H10 C13 1_555 1_555
H11 C13 1_555 1_555
H12 N2 1_555 1_555
H13 N1 1_555 1_555
Ag1A O4 1_555 1_555
O4A Ag1 1_555 1_555
C3 N3 1_555 1_555
C4 C10 1_555 1_555
C5 C8 1_555 1_555
C6 C8 1_555 1_555
C9 C10 1_555 1_555
C11 C12 1_555 1_555

#END
