
#######################################################################
#
#                 Cambridge Crystallographic Data Centre
#                                CCDC 
#
#######################################################################
#
# If this CIF has been generated from an entry in the Cambridge 
# Structural Database, then it will include bibliographic, chemical, 
# crystal, experimental, refinement or atomic coordinate data resulting 
# from the CCDC's data processing and validation procedures.
#
#######################################################################

data_FELJAJ
_symmetry_cell_setting           triclinic
_symmetry_space_group_name_H-M   'P 1'
_symmetry_Int_Tables_number      1
_space_group_name_Hall           'P 1'
loop_
_symmetry_equiv_pos_site_id
_symmetry_equiv_pos_as_xyz
1 x,y,z
_cell_length_a                   4.65500(10)
_cell_length_b                   11.9601(4)
_cell_length_c                   15.2256(5)
_cell_angle_alpha                71.960(2)
_cell_angle_beta                 86.700(2)
_cell_angle_gamma                88.872(2)
_cell_volume                     804.665
loop_
_atom_site_label
_atom_site_type_symbol
_atom_site_fract_x
_atom_site_fract_y
_atom_site_fract_z
Pb1 Pb 0.9335(13) 0.3998(6) 0.0567(4)
O1 O 1.5664(13) 0.3105(6) 0.3652(4)
O2 O 1.1294(13) -0.2921(5) 0.7026(5)
O3 O 1.4020(16) 0.3703(7) 0.1602(6)
O4 O 1.7235(13) 0.5094(5) 0.1499(4)
O5 O 1.7619(14) -0.4872(5) 0.9107(4)
O6 O 1.4355(18) -0.6281(8) 0.9611(5)
N1 N 1.1501(15) 0.4064(6) 0.3175(5)
H1 H 0.9664 0.4088 0.3268
N2 N 1.1330(16) 0.2200(6) 0.4209(5)
H2 H 0.9488 0.2268 0.4199
N3 N 1.5656(19) -0.2048(6) 0.6509(5)
H3 H 1.7489 -0.2116 0.6554
N4 N 1.5406(15) -0.3956(6) 0.7441(5)
H4 H 1.7229 -0.4009 0.7333
C1 C 1.161(3) 0.5938(11) 0.4337(8)
H5 H 1.2532 0.5257 0.4677
C2 C 0.948(4) 0.6460(15) 0.4776(11)
H6 H 0.8994 0.6124 0.5402
C3 C 0.816(3) 0.7442(19) 0.4289(15)
H7 H 0.6760 0.7782 0.4586
C4 C 0.882(3) 0.7955(13) 0.3371(15)
H8 H 0.7870 0.8635 0.3045
C5 C 1.093(3) 0.7454(10) 0.2922(10)
H9 H 1.1390 0.7806 0.2295
C6 C 1.235(2) 0.6431(8) 0.3404(7)
C7 C 1.450(2) 0.5849(8) 0.2912(6)
H10 H 1.5864 0.5400 0.3346
H11 H 1.5563 0.6444 0.2428
C8 C 1.2973(17) 0.5025(7) 0.2486(5)
H12 H 1.1475 0.5499 0.2113
C9 C 1.3004(18) 0.3130(7) 0.3670(5)
C10 C 1.2510(17) 0.1143(7) 0.4775(5)
C11 C 1.148(2) 0.0071(7) 0.4735(6)
H13 H 1.0107 0.0064 0.4318
C12 C 1.250(2) -0.0981(7) 0.5312(6)
H14 H 1.1801 -0.1690 0.5280
C13 C 1.453(2) -0.0980(7) 0.5935(6)
C14 C 1.5575(18) 0.0080(7) 0.5978(6)
H15 H 1.6956 0.0081 0.6396
C15 C 1.4560(19) 0.1146(7) 0.5396(6)
H16 H 1.5262 0.1855 0.5427
C16 C 1.3947(18) -0.2978(7) 0.6996(6)
C17 C 1.3820(18) -0.4925(7) 0.8111(6)
H17 H 1.2042 -0.4577 0.8288
C18 C 1.2867(19) -0.5881(9) 0.7708(6)
H18 H 1.1485 -0.6385 0.8148
H19 H 1.1875 -0.5501 0.7149
C19 C 1.522(2) -0.6649(9) 0.7476(7)
C20 C 1.655(3) -0.6374(12) 0.6591(8)
H20 H 1.6000 -0.5710 0.6124
C21 C 1.875(3) -0.7125(16) 0.6415(11)
H21 H 1.9667 -0.6942 0.5828
C22 C 1.956(3) -0.8121(13) 0.7096(12)
H22 H 2.1004 -0.8610 0.6972
C23 C 1.825(3) -0.8372(11) 0.7935(11)
H23 H 1.8804 -0.9040 0.8396
C24 C 1.607(3) -0.7667(9) 0.8142(8)
H24 H 1.5181 -0.7878 0.8733
C25 C 1.4906(19) 0.4557(8) 0.1821(6)
C26 C 1.5405(19) -0.5402(7) 0.8986(7)
N5 N 1.320(2) 0.7748(7) -0.0602(6)
O7 O 1.1866(14) 0.5884(6) 0.0162(4)
C27 C 1.175(2) 0.6806(8) -0.0513(6)
H25 H 1.0547 0.6811 -0.0980
C28 C 1.305(4) 0.8780(11) -0.1435(10)
H26 H 1.1904 0.8594 -0.1875
H27 H 1.4958 0.8991 -0.1705
H28 H 1.2197 0.9428 -0.1268
C29 C 1.502(3) 0.7850(10) 0.0115(9)
H29 H 1.4047 0.8312 0.0456
H30 H 1.6795 0.8224 -0.0165
H31 H 1.5411 0.7081 0.0526
Pb1_2 Pb 1.9335(13) 0.3998(6) 0.0567(4)
Pb1_3 Pb 1.9335(13) -0.6002(6) 1.0567(4)
Pb1_4 Pb 0.9335(13) -0.6002(6) 1.0567(4)
O4_2 O 0.7235(13) 0.5094(5) 0.1499(4)
O5_2 O 0.7619(14) 0.5128(5) -0.0893(4)
O6_2 O 1.4355(18) 0.3719(8) -0.0389(5)
O8 O 0.308(5) 0.116(3) 0.2130(13)
loop_
_geom_bond_atom_site_label_1
_geom_bond_atom_site_label_2
_geom_bond_site_symmetry_1
_geom_bond_site_symmetry_2
Pb1 O3 1_555 1_555
O1 C9 1_555 1_555
O2 C16 1_555 1_555
O3 C25 1_555 1_555
O4 C25 1_555 1_555
O5 C26 1_555 1_555
O6 C26 1_555 1_555
N1 H1 1_555 1_555
N2 H2 1_555 1_555
N3 H3 1_555 1_555
N4 H4 1_555 1_555
C1 H5 1_555 1_555
C2 C1 1_555 1_555
H6 C2 1_555 1_555
C3 C2 1_555 1_555
H7 C3 1_555 1_555
C4 C3 1_555 1_555
H8 C4 1_555 1_555
C5 C4 1_555 1_555
H9 C5 1_555 1_555
C6 C1 1_555 1_555
C7 C6 1_555 1_555
H10 C7 1_555 1_555
H11 C7 1_555 1_555
C8 N1 1_555 1_555
H12 C8 1_555 1_555
C9 N1 1_555 1_555
C10 N2 1_555 1_555
C11 C10 1_555 1_555
H13 C11 1_555 1_555
C12 C11 1_555 1_555
H14 C12 1_555 1_555
C13 N3 1_555 1_555
C14 C13 1_555 1_555
H15 C14 1_555 1_555
C15 C10 1_555 1_555
H16 C15 1_555 1_555
C16 N3 1_555 1_555
C17 N4 1_555 1_555
H17 C17 1_555 1_555
C18 C17 1_555 1_555
H18 C18 1_555 1_555
H19 C18 1_555 1_555
C19 C18 1_555 1_555
C20 C19 1_555 1_555
H20 C20 1_555 1_555
C21 C20 1_555 1_555
H21 C21 1_555 1_555
C22 C21 1_555 1_555
H22 C22 1_555 1_555
C23 C22 1_555 1_555
H23 C23 1_555 1_555
C24 C19 1_555 1_555
H24 C24 1_555 1_555
C25 C8 1_555 1_555
C26 C17 1_555 1_555
N5 C27 1_555 1_555
O7 Pb1 1_555 1_555
C27 O7 1_555 1_555
H25 C27 1_555 1_555
C28 N5 1_555 1_555
H26 C28 1_555 1_555
H27 C28 1_555 1_555
H28 C28 1_555 1_555
C29 N5 1_555 1_555
H29 C29 1_555 1_555
H30 C29 1_555 1_555
H31 C29 1_555 1_555
Pb1_2 O4 1_555 1_555
Pb1_3 O5 1_555 1_555
Pb1_4 O6 1_555 1_555
O4_2 Pb1 1_555 1_555
O5_2 Pb1 1_555 1_555
O6_2 Pb1 1_555 1_555
N2 C9 1_555 1_555
N4 C16 1_555 1_555
C5 C6 1_555 1_555
C7 C8 1_555 1_555
C12 C13 1_555 1_555
C14 C15 1_555 1_555
C23 C24 1_555 1_555

#END
