
#######################################################################
#
#                 Cambridge Crystallographic Data Centre
#                                CCDC 
#
#######################################################################
#
# If this CIF has been generated from an entry in the Cambridge 
# Structural Database, then it will include bibliographic, chemical, 
# crystal, experimental, refinement or atomic coordinate data resulting 
# from the CCDC's data processing and validation procedures.
#
#######################################################################

data_FELJOX
_symmetry_cell_setting           triclinic
_symmetry_space_group_name_H-M   'P -1'
_symmetry_Int_Tables_number      2
_space_group_name_Hall           '-P 1'
loop_
_symmetry_equiv_pos_site_id
_symmetry_equiv_pos_as_xyz
1 x,y,z
2 -x,-y,-z
_cell_length_a                   12.0133(9)
_cell_length_b                   12.9635(11)
_cell_length_c                   13.5440(9)
_cell_angle_alpha                71.659(7)
_cell_angle_beta                 76.176(6)
_cell_angle_gamma                71.818(7)
_cell_volume                     1878.84
loop_
_atom_site_label
_atom_site_type_symbol
_atom_site_fract_x
_atom_site_fract_y
_atom_site_fract_z
O1 O 0.5357(8) 0.9586(7) 0.8781(7)
H1 H 0.4688 1.0032 0.8920
H2 H 0.5784 0.9553 0.9214
O2 O 0.7067(7) 0.8621(6) 0.3405(6)
H3 H 0.7789 0.8293 0.3156
H4 H 0.6829 0.8027 0.3572
Ag1 Ag 0.48156(5) 0.62822(6) 0.48167(4)
O3 O 0.6968(5) 0.6503(5) 0.4212(4)
O4 O 0.6993(5) 0.4753(5) 0.4404(4)
O5 O 0.8607(7) 0.9035(6) 0.0801(6)
O6 O 0.6866(7) 0.9521(6) 0.0305(7)
O7 O 0.8491(5) 0.6780(4) 0.2149(4)
N1 N 0.4403(5) 0.6687(5) 0.3222(4)
N2 N 0.4731(5) 0.6484(5) -0.3622(4)
N3 N 0.8630(6) 1.1498(6) 0.1272(4)
N4 N 0.8930(6) 1.1103(5) 0.8180(4)
C1 C 0.9243(6) 0.5891(6) 0.2744(6)
C2 C 0.8776(6) 0.5274(6) 0.3700(5)
C3 C 0.9570(7) 0.4381(7) 0.4273(6)
H5 H 0.9276 0.3946 0.4914
C4 C 1.0762(8) 0.4125(7) 0.3924(8)
H6 H 1.1270 0.3527 0.4323
C5 C 1.1203(7) 0.4761(8) 0.2975(9)
H7 H 1.2016 0.4591 0.2738
C6 C 1.0452(7) 0.5655(7) 0.2364(7)
H8 H 1.0752 0.6081 0.1721
C7 C 0.8372(6) 0.6693(7) 0.1198(6)
C8 C 0.8016(6) 0.7685(7) 0.0433(6)
C9 C 0.7848(7) 0.7587(9) -0.0521(7)
H9 H 0.7580 0.8236 -0.1034
C10 C 0.8070(8) 0.6555(11) -0.0717(9)
H10 H 0.7996 0.6514 -0.1370
C11 C 0.8393(8) 0.5610(10) 0.0039(10)
H11 H 0.8516 0.4917 -0.0092
C12 C 0.8548(8) 0.5641(8) 0.1014(8)
H12 H 0.8763 0.4980 0.1533
C13 C 0.7470(6) 0.5530(7) 0.4139(5)
C14 C 0.7810(9) 0.8819(9) 0.0612(7)
C15 C 0.5087(6) 0.7218(7) 0.2397(5)
H13 H 0.5674 0.7462 0.2528
C16 C 0.4944(6) 0.7409(7) 0.1377(5)
H14 H 0.5422 0.7789 0.0829
C17 C 0.4099(6) 0.7040(6) 0.1159(5)
C18 C 0.3399(6) 0.6516(6) 0.2010(5)
H15 H 0.2796 0.6275 0.1903
C19 C 0.3586(6) 0.6349(6) 0.3008(5)
H16 H 0.3112 0.5977 0.3566
C20 C 0.3915(6) 0.7241(8) 0.0047(5)
H17 H 0.3221 0.7003 0.0059
H18 H 0.3766 0.8040 -0.0295
C21 C 0.4964(6) 0.6620(7) -0.0579(6)
H19 H 0.5625 0.6934 -0.0658
H20 H 0.5178 0.5843 -0.0173
C22 C 0.4826(7) 0.6629(7) -0.1638(6)
C23 C 0.5479(7) 0.7134(8) -0.2531(6)
H21 H 0.5968 0.7542 -0.2483
C24 C 0.5417(7) 0.7041(7) -0.3481(6)
H22 H 0.5880 0.7387 -0.4070
C25 C 0.4063(6) 0.5998(6) -0.2762(5)
H23 H 0.3563 0.5614 -0.2838
C26 C 0.4097(7) 0.6052(7) -0.1776(5)
H24 H 0.3631 0.5700 -0.1195
C27 C 0.9222(7) 1.2109(9) 0.1466(6)
H25 H 0.9725 1.2450 0.0912
C28 C 0.9123(8) 1.2260(9) 0.2461(7)
H26 H 0.9571 1.2673 0.2568
C29 C 0.8359(9) 1.1794(8) 0.3280(7)
C30 C 0.7752(9) 1.1201(7) 0.3059(6)
H27 H 0.7223 1.0872 0.3594
C31 C 0.7889(8) 1.1068(7) 0.2076(6)
H28 H 0.7441 1.0657 0.1963
C32 C 0.8142(8) 1.1965(8) 0.4381(7)
H29 H 0.8123 1.2733 0.4330
H30 H 0.7381 1.1832 0.4752
C33 C 0.9070(8) 1.1200(8) 0.4952(7)
H31 H 0.9818 1.1372 0.4592
H32 H 0.9117 1.0536 0.4939
C34 C 0.8903(11) 1.1227(8) 0.6107(8)
C35 C 0.9751(9) 1.1529(8) 0.6358(6)
H33 H 1.0341 1.1776 0.5836
C36 C 0.9743(7) 1.1469(6) 0.7391(6)
H34 H 1.0330 1.1694 0.7549
C37 C 0.8105(8) 1.0808(7) 0.7912(6)
H35 H 0.7525 1.0560 0.8447
C38 C 0.8042(9) 1.0840(7) 0.6907(7)
H36 H 0.7450 1.0613 0.6763
Ag2 Ag 0.89497(7) 1.10562(6) -0.02126(5)
Ag1A Ag 0.51844(5) 0.37178(6) 0.51833(4)
Ag1_2 Ag 0.48156(5) 0.62822(6) -0.51833(4)
N2_2 N 0.4731(5) 0.6484(5) 0.6378(4)
N4_2 N 0.8930(6) 1.1103(5) -0.1820(4)
Ag2_2 Ag 0.89497(7) 1.10562(6) 0.97874(5)
Ag2A Ag 1.10503(7) 0.89438(6) 0.02126(5)
O8 O 0.7403(13) 0.8912(11) 0.5437(10)
H37 H 0.7316 0.8823 0.4866
H38 H 0.6805 0.9107 0.5744
O9 O 0.4565(12) 0.9836(11) 0.3443(11)
H39 H 0.5287 0.9481 0.3435
H40 H 0.4593 1.0001 0.2789
loop_
_geom_bond_atom_site_label_1
_geom_bond_atom_site_label_2
_geom_bond_site_symmetry_1
_geom_bond_site_symmetry_2
O1 H1 1_555 1_555
H2 O1 1_555 1_555
O2 H3 1_555 1_555
H4 O2 1_555 1_555
Ag1 O3 1_555 1_555
O3 C13 1_555 1_555
O4 C13 1_555 1_555
O5 C14 1_555 1_555
O6 C14 1_555 1_555
O7 C1 1_555 1_555
N1 Ag1 1_555 1_555
N2 C24 1_555 1_555
N3 C27 1_555 1_555
N4 C36 1_555 1_555
C1 C2 1_555 1_555
C2 C3 1_555 1_555
C3 H5 1_555 1_555
C4 C3 1_555 1_555
H6 C4 1_555 1_555
C5 C4 1_555 1_555
H7 C5 1_555 1_555
C6 C1 1_555 1_555
H8 C6 1_555 1_555
C7 O7 1_555 1_555
C8 C7 1_555 1_555
C9 C8 1_555 1_555
H9 C9 1_555 1_555
C10 C9 1_555 1_555
H10 C10 1_555 1_555
C11 C10 1_555 1_555
H11 C11 1_555 1_555
C12 C7 1_555 1_555
H12 C12 1_555 1_555
C13 C2 1_555 1_555
C14 C8 1_555 1_555
C15 N1 1_555 1_555
H13 C15 1_555 1_555
C16 C15 1_555 1_555
H14 C16 1_555 1_555
C17 C16 1_555 1_555
C18 C17 1_555 1_555
H15 C18 1_555 1_555
C19 N1 1_555 1_555
H16 C19 1_555 1_555
C20 C17 1_555 1_555
H17 C20 1_555 1_555
H18 C20 1_555 1_555
C21 C20 1_555 1_555
H19 C21 1_555 1_555
H20 C21 1_555 1_555
C22 C21 1_555 1_555
C23 C22 1_555 1_555
H21 C23 1_555 1_555
C24 C23 1_555 1_555
H22 C24 1_555 1_555
C25 N2 1_555 1_555
H23 C25 1_555 1_555
C26 C22 1_555 1_555
H24 C26 1_555 1_555
C27 H25 1_555 1_555
C28 C27 1_555 1_555
H26 C28 1_555 1_555
C29 C28 1_555 1_555
C30 C29 1_555 1_555
H27 C30 1_555 1_555
C31 N3 1_555 1_555
H28 C31 1_555 1_555
C32 C29 1_555 1_555
H29 C32 1_555 1_555
H30 C32 1_555 1_555
C33 C32 1_555 1_555
H31 C33 1_555 1_555
H32 C33 1_555 1_555
C34 C33 1_555 1_555
C35 C34 1_555 1_555
H33 C35 1_555 1_555
C36 C35 1_555 1_555
H34 C36 1_555 1_555
C37 N4 1_555 1_555
H35 C37 1_555 1_555
C38 C34 1_555 1_555
H36 C38 1_555 1_555
O8 H37 1_555 1_555
H38 O8 1_555 1_555
O9 H39 1_555 1_555
H40 O9 1_555 1_555
Ag2 O5 1_555 1_555
Ag1A Ag1 1_555 1_555
Ag1_2 N2 1_555 1_555
N2_2 Ag1 1_555 1_555
N4_2 Ag2 1_555 1_555
Ag2_2 N4 1_555 1_555
Ag2A Ag2 1_555 1_555
N3 Ag2 1_555 1_555
C5 C6 1_555 1_555
C11 C12 1_555 1_555
C18 C19 1_555 1_555
C25 C26 1_555 1_555
C30 C31 1_555 1_555
C37 C38 1_555 1_555

#END
