
#######################################################################
#
#                 Cambridge Crystallographic Data Centre
#                                CCDC 
#
#######################################################################
#
# If this CIF has been generated from an entry in the Cambridge 
# Structural Database, then it will include bibliographic, chemical, 
# crystal, experimental, refinement or atomic coordinate data resulting 
# from the CCDC's data processing and validation procedures.
#
#######################################################################

data_FELPES
_symmetry_cell_setting           monoclinic
_symmetry_space_group_name_H-M   'P 21/n'
_symmetry_Int_Tables_number      14
_space_group_name_Hall           '-P 2yn'
loop_
_symmetry_equiv_pos_site_id
_symmetry_equiv_pos_as_xyz
1 x,y,z
2 1/2-x,1/2+y,1/2-z
3 -x,-y,-z
4 1/2+x,1/2-y,1/2+z
_cell_length_a                   10.282(4)
_cell_length_b                   20.760(8)
_cell_length_c                   11.214(4)
_cell_angle_alpha                90.00
_cell_angle_beta                 115.248(7)
_cell_angle_gamma                90.00
_cell_volume                     2165.01
loop_
_atom_site_label
_atom_site_type_symbol
_atom_site_fract_x
_atom_site_fract_y
_atom_site_fract_z
O1 O 0.2933(4) 0.26679(19) 0.3567(3)
C1 C 0.4912(8) 0.5024(3) 0.0641(7)
C2 C 0.5468(7) 0.0287(3) 0.0314(8)
H1 H 0.572(6) 0.507(3) 0.120(5)
H2 H 0.575(8) 0.028(3) -0.041(7)
H3 H 0.591(6) 0.390(2) 0.188(5)
H4 H 0.422(7) 0.536(3) 0.048(6)
H5 H 0.597(5) 0.309(2) 0.881(5)
H6 H 0.612(7) 0.013(3) 0.105(6)
H7 H 0.104(6) 0.367(3) -0.001(5)
H8 H 0.417(8) 0.137(4) -0.100(7)
H9 H 0.346(6) 0.130(3) 0.289(6)
Zn1 Zn 0.19925(6) 0.25053(3) 0.15884(5)
N1 N 0.5277(4) 0.28927(18) 0.6894(4)
O2 O 0.5281(4) 0.24725(15) 0.4656(3)
C3 C 0.2131(6) 0.3785(3) 0.0429(6)
C4 C 0.4048(5) 0.2918(2) 0.5796(5)
C5 C 0.4110(5) 0.2660(2) 0.4575(4)
N2 N 0.3092(5) 0.1776(2) 0.1241(4)
N3 N 0.2910(4) 0.3302(2) 0.1200(4)
C6 C 0.5243(6) 0.3090(3) 0.8012(5)
C7 C 0.5020(6) 0.3920(3) 0.1649(6)
C8 C 0.4345(6) 0.3376(3) 0.1794(5)
H10 H 0.4902 0.3045 0.2325
C9 C 0.4239(6) 0.4425(2) 0.0875(5)
C10 C 0.2754(6) 0.4345(3) 0.0256(6)
H11 H 0.2178 0.4671 -0.0277
C11 C 0.3252(6) 0.1782(3) 0.0113(5)
H12 H 0.2849 0.2120 -0.0475
C12 C 0.2826(6) 0.3159(3) 0.5837(6)
H13 H 0.1995 0.3189 0.5054
C13 C 0.4626(6) 0.0792(3) 0.0641(6)
C14 C 0.3685(7) 0.1271(3) 0.2065(5)
N4 N 0.2776(6) 0.3352(3) 0.6947(6)
C15 C 0.4430(7) 0.0783(3) 0.1782(6)
H14 H 0.4805 0.0444 0.2373
C16 C 0.3995(7) 0.1307(3) -0.0209(6)
C17 C 0.4012(7) 0.3308(3) 0.8041(6)
H15 H 0.4027 0.3431 0.8844
O1C O -0.2067(4) 0.23321(19) -0.1433(3)
C1B C 0.5088(8) 0.4976(3) -0.0641(7)
C2B C 0.4532(7) -0.0287(3) -0.0314(8)
H1B H 0.428(6) 0.493(3) -0.120(5)
H2B H 0.425(8) -0.028(3) 0.041(7)
H3B H 0.409(6) 0.610(2) -0.188(5)
H4B H 0.578(7) 0.464(3) -0.048(6)
H5C H 0.097(5) 0.191(2) 0.381(5)
H6B H 0.388(7) -0.013(3) -0.105(6)
H7B H 0.896(6) 0.633(3) 0.001(5)
H8B H 0.583(8) -0.137(4) 0.100(7)
H9B H 0.654(6) -0.130(3) -0.289(6)
Zn1C Zn -0.30075(6) 0.24947(3) -0.34116(5)
Zn1C_2 Zn 0.69925(6) 0.24947(3) 0.65884(5)
Zn1B Zn 0.80075(6) 0.74947(3) -0.15884(5)
Zn1B_2 Zn 0.80075(6) -0.25053(3) -0.15884(5)
N1C N 0.0277(4) 0.21073(18) 0.1894(4)
N1_2 N -0.4723(4) 0.28927(18) -0.3106(4)
O2C O 0.0281(4) 0.25275(15) -0.0344(3)
O2_2 O -0.4719(4) 0.24725(15) -0.5344(3)
C3B C 0.7869(6) 0.6215(3) -0.0429(6)
C4C C -0.0952(5) 0.2082(2) 0.0796(5)
C5C C -0.0890(5) 0.2340(2) -0.0425(4)
N2B N 0.6908(5) -0.1776(2) -0.1241(4)
N2C N -0.1908(5) 0.3224(2) -0.3759(4)
N3B N 0.7090(4) 0.6698(2) -0.1200(4)
N3C N -0.2090(4) 0.1698(2) -0.3800(4)
C6C C 0.0243(6) 0.1910(3) 0.3012(5)
C7B C 0.4980(6) 0.6080(3) -0.1649(6)
C8B C 0.5655(6) 0.6624(3) -0.1794(5)
H10B H 0.5098 0.6955 -0.2325
C9B C 0.5761(6) 0.5575(2) -0.0875(5)
C10B C 0.7246(6) 0.5655(3) -0.0256(6)
H11B H 0.7822 0.5329 0.0277
C11B C 0.6748(6) -0.1782(3) -0.0113(5)
H12B H 0.7151 -0.2120 0.0475
C12C C -0.2174(6) 0.1841(3) 0.0837(6)
H13C H -0.3005 0.1811 0.0054
C13B C 0.5374(6) -0.0792(3) -0.0641(6)
C14B C 0.6315(7) -0.1271(3) -0.2065(5)
N4C N -0.2224(6) 0.1648(3) 0.1947(6)
C15B C 0.5570(7) -0.0783(3) -0.1782(6)
H14B H 0.5195 -0.0444 -0.2373
C16B C 0.6005(7) -0.1307(3) 0.0209(6)
C17C C -0.0988(7) 0.1692(3) 0.3041(6)
H15C H -0.0973 0.1569 0.3844
Cl1 Cl 0.88355(18) 0.38508(8) 0.12826(14)
O3 O 0.8517(5) 0.4396(2) 0.1865(4)
O4 O 0.8585(7) 0.3957(4) -0.0014(5)
O5 O 1.0228(5) 0.3606(3) 0.2053(5)
O6 O 0.7831(7) 0.3344(3) 0.1264(7)
loop_
_geom_bond_atom_site_label_1
_geom_bond_atom_site_label_2
_geom_bond_site_symmetry_1
_geom_bond_site_symmetry_2
O1 Zn1 1_555 1_555
C1 H1 1_555 1_555
C2 H2 1_555 1_555
H3 C7 1_555 1_555
H4 C1 1_555 1_555
H5 C6 1_555 1_555
H6 C2 1_555 1_555
H7 C3 1_555 1_555
H8 C16 1_555 1_555
H9 C14 1_555 1_555
Zn1 N2 1_555 1_555
Cl1 O3 1_555 1_555
N1 C4 1_555 1_555
O2 C5 1_555 1_555
C3 N3 1_555 1_555
C4 C5 1_555 1_555
C5 O1 1_555 1_555
N2 C11 1_555 1_555
N3 Zn1 1_555 1_555
C6 N1 1_555 1_555
C7 C8 1_555 1_555
C8 N3 1_555 1_555
H10 C8 1_555 1_555
C9 C1 1_555 1_555
C10 C3 1_555 1_555
H11 C10 1_555 1_555
C11 H12 1_555 1_555
C12 C4 1_555 1_555
H13 C12 1_555 1_555
C13 C2 1_555 1_555
C14 N2 1_555 1_555
N4 C12 1_555 1_555
C15 C13 1_555 1_555
H14 C15 1_555 1_555
C16 C11 1_555 1_555
O4 Cl1 1_555 1_555
O5 Cl1 1_555 1_555
C17 C6 1_555 1_555
H15 C17 1_555 1_555
O6 Cl1 1_555 1_555
O1C Zn1C 1_555 1_555
C1B C1 1_555 1_555
C2B C2 1_555 1_555
H1B C1B 1_555 1_555
H2B C2B 1_555 1_555
H3B C7B 1_555 1_555
H4B C1B 1_555 1_555
H5C C6C 1_555 1_555
H6B C2B 1_555 1_555
H7B C3B 1_555 1_555
H8B C16B 1_555 1_555
H9B C14B 1_555 1_555
Zn1C N1_2 1_555 1_555
Zn1C_2 N1 1_555 1_555
Zn1B N3B 1_555 1_555
Zn1B_2 N2B 1_555 1_555
N1C Zn1 1_555 1_555
O2C Zn1 1_555 1_555
O2_2 Zn1C 1_555 1_555
C3B N3B 1_555 1_555
C4C N1C 1_555 1_555
C5C O1C 1_555 1_555
N2B C11B 1_555 1_555
N2C Zn1C 1_555 1_555
N3B C8B 1_555 1_555
N3C Zn1C 1_555 1_555
C6C N1C 1_555 1_555
C7B C8B 1_555 1_555
C8B H10B 1_555 1_555
C9B C1B 1_555 1_555
C10B C3B 1_555 1_555
H11B C10B 1_555 1_555
C11B H12B 1_555 1_555
C12C C4C 1_555 1_555
H13C C12C 1_555 1_555
C13B C2B 1_555 1_555
C14B N2B 1_555 1_555
N4C C12C 1_555 1_555
C15B C13B 1_555 1_555
H14B C15B 1_555 1_555
C16B C11B 1_555 1_555
C17C C6C 1_555 1_555
H15C C17C 1_555 1_555
O2 Zn1C_2 1_555 1_555
C7 C9 1_555 1_555
C9 C10 1_555 1_555
C13 C16 1_555 1_555
C14 C15 1_555 1_555
N4 C17 1_555 1_555
O2C C5C 1_555 1_555
C4C C5C 1_555 1_555
C7B C9B 1_555 1_555
C9B C10B 1_555 1_555
C13B C16B 1_555 1_555
C14B C15B 1_555 1_555
N4C C17C 1_555 1_555

#END
