
#######################################################################
#
#                 Cambridge Crystallographic Data Centre
#                                CCDC 
#
#######################################################################
#
# If this CIF has been generated from an entry in the Cambridge 
# Structural Database, then it will include bibliographic, chemical, 
# crystal, experimental, refinement or atomic coordinate data resulting 
# from the CCDC's data processing and validation procedures.
#
#######################################################################

data_FELREV
_symmetry_cell_setting           monoclinic
_symmetry_space_group_name_H-M   'P 21/n'
_symmetry_Int_Tables_number      14
_space_group_name_Hall           '-P 2yn'
loop_
_symmetry_equiv_pos_site_id
_symmetry_equiv_pos_as_xyz
1 x,y,z
2 1/2-x,1/2+y,1/2-z
3 -x,-y,-z
4 1/2+x,1/2-y,1/2+z
_cell_length_a                   14.6012(19)
_cell_length_b                   7.7214(10)
_cell_length_c                   22.842(3)
_cell_angle_alpha                90
_cell_angle_beta                 95.446(2)
_cell_angle_gamma                90
_cell_volume                     2563.62
loop_
_atom_site_label
_atom_site_type_symbol
_atom_site_fract_x
_atom_site_fract_y
_atom_site_fract_z
Cd1 Cd 0.871672(17) 1.84309(4) 0.831326(12)
O1 O 0.03733(19) 1.7636(4) 0.84486(13)
O2 O -0.03080(17) 1.9155(4) 0.90957(12)
O3 O 0.3106(2) 2.1438(5) 0.82930(17)
O4 O 0.4797(2) 1.7943(5) 0.96092(14)
O5 O 0.7984(2) 1.6315(4) 0.88676(15)
N1 N 0.74197(19) 2.0010(5) 0.81070(13)
N2 N 0.6564(2) 2.1717(5) 0.74606(15)
N3 N 0.3731(2) 1.9570(5) 0.90202(14)
N4 N 0.7071(4) 1.5372(6) 0.9518(2)
C1 C 0.7384(3) 2.1031(6) 0.76274(18)
H1 H 0.7898 2.1242 0.7426
C2 C 0.5996(2) 2.1106(5) 0.78603(17)
C3 C 0.6533(2) 2.0031(5) 0.82635(15)
C4 C 0.5069(3) 2.1425(5) 0.79031(18)
H2 H 0.4719 2.2137 0.7640
C5 C 0.6141(2) 1.9199(5) 0.87253(16)
H3 H 0.6478 1.8471 0.8989
C6 C 0.4708(2) 2.0610(6) 0.83615(17)
C7 C 0.5226(2) 1.9535(5) 0.87609(16)
C8 C 0.3758(3) 2.0662(7) 0.8524(2)
C9 C 0.2922(2) 1.9270(6) 0.93097(17)
C10 C 0.2096(3) 1.8921(6) 0.89914(17)
H4 H 0.2072 1.8795 0.8585
C11 C 0.4613(3) 1.8869(6) 0.91907(18)
C12 C 0.2970(3) 1.9409(7) 0.99170(18)
H5 H 0.3528 1.9658 1.0132
C13 C 0.2189(3) 1.9175(8) 1.02007(19)
H6 H 0.2225 1.9212 1.0609
C14 C 0.1347(3) 1.8883(6) 0.98793(18)
H7 H 0.0816 1.8773 1.0071
C15 C 0.1301(3) 1.8756(5) 0.92696(16)
C16 C 0.0400(3) 1.8487(5) 0.89150(17)
C17 C 0.8563(4) 1.6406(8) 0.9896(3)
H8 H 0.9101 1.6891 0.9747
H9 H 0.8725 1.5350 1.0102
H10 H 0.8319 1.7215 1.0160
C18 C 0.7834(4) 1.6026(7) 0.9381(3)
C19 C 0.6814(5) 1.5188(9) 1.0122(3)
H11 H 0.7290 1.5668 1.0393
H12 H 0.6737 1.3983 1.0209
H13 H 0.6247 1.5791 1.0158
C20 C 0.6405(4) 1.4695(9) 0.9033(3)
H14 H 0.6647 1.4885 0.8662
H15 H 0.5828 1.5288 0.9038
H16 H 0.6314 1.3476 0.9088
O6 O 0.9451(2) 2.0645(5) 0.77603(15)
C21 C 0.9553(5) 2.3074(8) 0.8490(3)
H17 H 0.9988 2.3954 0.8623
H18 H 0.9433 2.2347 0.8815
H19 H 0.8990 2.3608 0.8330
C22 C 1.1003(4) 2.1114(9) 0.7384(3)
H20 H 1.0542 2.0279 0.7253
H21 H 1.1551 2.0524 0.7542
H22 H 1.1141 2.1824 0.7059
C23 C 1.1270(4) 2.3714(8) 0.8152(4)
H23 H 1.1017 2.4397 0.8449
H24 H 1.1415 2.4452 0.7836
H25 H 1.1819 2.3147 0.8319
N5 N 1.0597(6) 2.2413(8) 0.7928(4)
C24 C 1.0006(5) 2.1814(12) 0.7944(4)
Cd1_2 Cd -0.128328(17) 1.84309(4) 0.831326(12)
Cd1A Cd 0.628328(17) 2.34309(4) 0.668674(12)
O1_2 O 1.03733(19) 1.7636(4) 0.84486(13)
O2_2 O 0.96920(17) 1.9155(4) 0.90957(12)
N2A N 0.8436(2) 1.6717(5) 0.75394(15)
C16_2 C 1.0400(3) 1.8487(5) 0.89150(17)
loop_
_geom_bond_atom_site_label_1
_geom_bond_atom_site_label_2
_geom_bond_site_symmetry_1
_geom_bond_site_symmetry_2
Cd1 O5 1_555 1_555
O1 C16 1_555 1_555
O2 C16 1_555 1_555
O3 C8 1_555 1_555
O4 C11 1_555 1_555
O5 C18 1_555 1_555
N1 Cd1 1_555 1_555
N2 C1 1_555 1_555
N3 C8 1_555 1_555
N4 C18 1_555 1_555
C1 N1 1_555 1_555
H1 C1 1_555 1_555
C2 N2 1_555 1_555
C3 N1 1_555 1_555
C4 C2 1_555 1_555
H2 C4 1_555 1_555
C5 C3 1_555 1_555
H3 C5 1_555 1_555
C6 C4 1_555 1_555
C7 C5 1_555 1_555
C8 C6 1_555 1_555
C9 N3 1_555 1_555
C10 C9 1_555 1_555
H4 C10 1_555 1_555
C11 N3 1_555 1_555
C12 C9 1_555 1_555
H5 C12 1_555 1_555
C13 C12 1_555 1_555
H6 C13 1_555 1_555
C14 C13 1_555 1_555
H7 C14 1_555 1_555
C15 C10 1_555 1_555
C16 C15 1_555 1_555
C17 H8 1_555 1_555
H9 C17 1_555 1_555
H10 C17 1_555 1_555
C18 C17 1_555 1_555
C19 N4 1_555 1_555
H11 C19 1_555 1_555
H12 C19 1_555 1_555
H13 C19 1_555 1_555
C20 N4 1_555 1_555
H14 C20 1_555 1_555
H15 C20 1_555 1_555
H16 C20 1_555 1_555
O6 Cd1 1_555 1_555
C21 H17 1_555 1_555
H18 C21 1_555 1_555
H19 C21 1_555 1_555
C22 H20 1_555 1_555
H21 C22 1_555 1_555
H22 C22 1_555 1_555
C23 H23 1_555 1_555
H24 C23 1_555 1_555
H25 C23 1_555 1_555
N5 C22 1_555 1_555
C24 O6 1_555 1_555
Cd1_2 O1 1_555 1_555
Cd1A N2 1_555 1_555
O1_2 Cd1 1_555 1_555
O2_2 Cd1 1_555 1_555
N2A Cd1 1_555 1_555
C16_2 O1_2 1_555 1_555
O2 Cd1_2 1_555 1_555
C2 C3 1_555 1_555
C6 C7 1_555 1_555
C7 C11 1_555 1_555
C14 C15 1_555 1_555
C21 C24 1_555 1_555
C23 N5 1_555 1_555
N5 C24 1_555 1_555
O2_2 C16_2 1_555 1_555

#END
