
#######################################################################
#
#                 Cambridge Crystallographic Data Centre
#                                CCDC 
#
#######################################################################
#
# If this CIF has been generated from an entry in the Cambridge 
# Structural Database, then it will include bibliographic, chemical, 
# crystal, experimental, refinement or atomic coordinate data resulting 
# from the CCDC's data processing and validation procedures.
#
#######################################################################

data_FELROF
_symmetry_cell_setting           monoclinic
_symmetry_space_group_name_H-M   'P 21/c'
_symmetry_Int_Tables_number      14
_space_group_name_Hall           '-P 2ybc'
loop_
_symmetry_equiv_pos_site_id
_symmetry_equiv_pos_as_xyz
1 x,y,z
2 -x,1/2+y,1/2-z
3 -x,-y,-z
4 x,1/2-y,1/2+z
_cell_length_a                   15.2856(16)
_cell_length_b                   9.2163(10)
_cell_length_c                   18.1367(19)
_cell_angle_alpha                90
_cell_angle_beta                 104.7930(10)
_cell_angle_gamma                90
_cell_volume                     2470.35
loop_
_atom_site_label
_atom_site_type_symbol
_atom_site_fract_x
_atom_site_fract_y
_atom_site_fract_z
Cd1 Cd 0.624077(12) 1.10651(2) 0.710103(10)
O1 O 0.21133(14) 0.8513(2) 0.25409(13)
O2 O 0.27718(13) 0.9881(2) 0.35163(11)
O3 O 0.10298(15) 0.8297(3) 0.48126(12)
O4 O 0.25330(14) 1.2436(2) 0.44730(11)
O5 O 0.68975(15) 0.9308(2) 0.81359(12)
O6 O 0.56772(14) 1.2333(2) 0.59525(11)
N1 N 0.49414(15) 0.9848(2) 0.70173(12)
N2 N 0.40837(15) 0.7987(2) 0.72658(12)
N3 N 0.16210(15) 1.0420(3) 0.44650(12)
N4 N 0.8238(2) 0.8281(4) 0.86693(18)
N5 N 0.56726(19) 1.3450(3) 0.48655(15)
C1 C 0.48662(19) 0.8702(3) 0.74525(15)
H1 H 0.5336 0.8421 0.7863
C2 C 0.41082(18) 0.9894(3) 0.64901(14)
C3 C 0.35828(18) 0.8721(3) 0.66381(15)
C4 C 0.37749(19) 1.0862(3) 0.58873(15)
H2 H 0.4100 1.1672 0.5804
C5 C 0.27278(18) 0.8413(3) 0.61715(15)
H3 H 0.2379 0.7643 0.6268
C6 C 0.29355(18) 1.0531(3) 0.54292(15)
C7 C 0.24362(18) 0.9325(3) 0.55600(15)
C8 C 0.23938(19) 1.1294(3) 0.47409(16)
C9 C 0.16122(19) 0.9224(3) 0.49326(16)
C10 C 0.09765(19) 1.0569(3) 0.37374(16)
C11 C 0.0149(2) 1.1180(3) 0.37140(19)
H4 H 0.0034 1.1547 0.4157
C12 C -0.0508(2) 1.1247(4) 0.3037(2)
H5 H -0.1061 1.1685 0.3020
C13 C -0.0349(2) 1.0671(4) 0.2387(2)
H6 H -0.0796 1.0701 0.1931
C14 C 0.0477(2) 1.0047(4) 0.24121(17)
H7 H 0.0577 0.9649 0.1970
C15 C 0.11620(18) 0.9998(3) 0.30799(16)
C16 C 0.2074(2) 0.9398(3) 0.30515(17)
C17 C 0.8922(3) 0.7144(5) 0.8716(3)
H8 H 0.8714 0.6460 0.8310
H9 H 0.9020 0.6653 0.9198
H10 H 0.9478 0.7574 0.8673
C18 C 0.8432(3) 0.9413(5) 0.9254(2)
H11 H 0.7940 1.0092 0.9162
H12 H 0.8978 0.9910 0.9237
H13 H 0.8505 0.8980 0.9748
C19 C 0.7287(3) 0.7161(4) 0.7541(2)
H14 H 0.6711 0.7337 0.7189
H15 H 0.7280 0.6230 0.7776
H16 H 0.7752 0.7176 0.7271
C20 C 0.7474(2) 0.8331(4) 0.8149(2)
C21 C 0.6012(3) 1.4515(4) 0.4404(2)
H17 H 0.6542 1.4979 0.4713
H18 H 0.5554 1.5230 0.4213
H19 H 0.6163 1.4031 0.3984
C22 C 0.4866(3) 1.2651(4) 0.44803(18)
H20 H 0.4707 1.1984 0.4831
H21 H 0.4981 1.2124 0.4058
H22 H 0.4376 1.3318 0.4297
C23 C 0.6928(3) 1.3922(4) 0.5977(2)
H23 H 0.7116 1.3616 0.6500
H24 H 0.6845 1.4955 0.5956
H25 H 0.7383 1.3662 0.5721
C24 C 0.6047(2) 1.3187(3) 0.55904(17)
Cd1B Cd 0.375923(12) 0.89349(2) 0.289897(10)
Cd1A Cd 0.375923(12) 0.60651(2) 0.789897(10)
Cd1C Cd 0.624077(12) 1.39349(2) 0.210103(10)
O1B O 0.78867(14) 1.1487(2) 0.74591(13)
O2B O 0.72282(13) 1.0119(2) 0.64837(11)
O3B O 0.89702(15) 1.1703(3) 0.51874(12)
O4B O 0.74670(14) 0.7564(2) 0.55270(11)
O5B O 0.31025(15) 1.0692(2) 0.18641(12)
O6B O 0.43228(14) 0.7667(2) 0.40475(11)
N1B N 0.50586(15) 1.0152(2) 0.29827(12)
N2B N 0.59163(15) 1.2013(2) 0.27342(12)
N2A N 0.59163(15) 1.2987(2) 0.77342(12)
N2C N 0.40837(15) 0.7013(2) 0.22658(12)
N3B N 0.83790(15) 0.9580(3) 0.55350(12)
N4B N 0.1762(2) 1.1719(4) 0.13307(18)
N5B N 0.43274(19) 0.6550(3) 0.51345(15)
C1B C 0.51338(19) 1.1298(3) 0.25475(15)
H1B H 0.4664 1.1579 0.2137
C2B C 0.58918(18) 1.0106(3) 0.35099(14)
C3B C 0.64172(18) 1.1279(3) 0.33619(15)
C4B C 0.62251(19) 0.9138(3) 0.41127(15)
H2B H 0.5900 0.8328 0.4196
C5B C 0.72722(18) 1.1587(3) 0.38285(15)
H3B H 0.7621 1.2357 0.3732
C6B C 0.70645(18) 0.9469(3) 0.45708(15)
C7B C 0.75638(18) 1.0675(3) 0.44400(15)
C8B C 0.76062(19) 0.8706(3) 0.52591(16)
C9B C 0.83878(19) 1.0776(3) 0.50674(16)
C10B C 0.90235(19) 0.9431(3) 0.62626(16)
C11B C 0.9851(2) 0.8820(3) 0.62860(19)
H4B H 0.9966 0.8453 0.5843
C12B C 1.0508(2) 0.8753(4) 0.6963(2)
H5B H 1.1061 0.8315 0.6980
C13B C 1.0349(2) 0.9329(4) 0.7613(2)
H6B H 1.0796 0.9299 0.8069
C14B C 0.9523(2) 0.9953(4) 0.75879(17)
H7B H 0.9423 1.0351 0.8030
C15B C 0.88380(18) 1.0002(3) 0.69201(16)
C16B C 0.7926(2) 1.0602(3) 0.69485(17)
C17B C 0.1078(3) 1.2856(5) 0.1284(3)
H8B H 0.1286 1.3540 0.1690
H9B H 0.0980 1.3347 0.0802
H10B H 0.0522 1.2426 0.1327
C18B C 0.1568(3) 1.0587(5) 0.0746(2)
H11B H 0.2060 0.9908 0.0838
H12B H 0.1022 1.0090 0.0763
H13B H 0.1495 1.1020 0.0252
C19B C 0.2713(3) 1.2839(4) 0.2459(2)
H14B H 0.3289 1.2663 0.2811
H15B H 0.2720 1.3770 0.2224
H16B H 0.2248 1.2824 0.2729
C20B C 0.2526(2) 1.1669(4) 0.1851(2)
C21B C 0.3988(3) 0.5485(4) 0.5596(2)
H17B H 0.3458 0.5021 0.5287
H18B H 0.4446 0.4770 0.5787
H19B H 0.3837 0.5969 0.6016
C22B C 0.5134(3) 0.7349(4) 0.55197(18)
H20B H 0.5293 0.8016 0.5169
H21B H 0.5019 0.7876 0.5942
H22B H 0.5624 0.6682 0.5703
C23B C 0.3072(3) 0.6078(4) 0.4023(2)
H23B H 0.2884 0.6384 0.3500
H24B H 0.3155 0.5045 0.4044
H25B H 0.2617 0.6338 0.4279
C24B C 0.3953(2) 0.6813(3) 0.44096(17)
loop_
_geom_bond_atom_site_label_1
_geom_bond_atom_site_label_2
_geom_bond_site_symmetry_1
_geom_bond_site_symmetry_2
Cd1 O5 1_555 1_555
O1 C16 1_555 1_555
O2 C16 1_555 1_555
O3 C9 1_555 1_555
O4 C8 1_555 1_555
O5 C20 1_555 1_555
O6 Cd1 1_555 1_555
N1 Cd1 1_555 1_555
N2 C1 1_555 1_555
N3 C8 1_555 1_555
N4 C17 1_555 1_555
N5 C21 1_555 1_555
C1 N1 1_555 1_555
H1 C1 1_555 1_555
C2 N1 1_555 1_555
C3 N2 1_555 1_555
C4 C2 1_555 1_555
H2 C4 1_555 1_555
C5 C3 1_555 1_555
H3 C5 1_555 1_555
C6 C4 1_555 1_555
C7 C5 1_555 1_555
C8 C6 1_555 1_555
C9 N3 1_555 1_555
C10 N3 1_555 1_555
C11 C10 1_555 1_555
H4 C11 1_555 1_555
C12 C11 1_555 1_555
H5 C12 1_555 1_555
C13 C12 1_555 1_555
H6 C13 1_555 1_555
C14 C13 1_555 1_555
H7 C14 1_555 1_555
C15 C10 1_555 1_555
C16 C15 1_555 1_555
C17 H8 1_555 1_555
H9 C17 1_555 1_555
H10 C17 1_555 1_555
C18 N4 1_555 1_555
H11 C18 1_555 1_555
H12 C18 1_555 1_555
H13 C18 1_555 1_555
C19 H14 1_555 1_555
H15 C19 1_555 1_555
H16 C19 1_555 1_555
C20 N4 1_555 1_555
C21 H17 1_555 1_555
H18 C21 1_555 1_555
H19 C21 1_555 1_555
C22 N5 1_555 1_555
H20 C22 1_555 1_555
H21 C22 1_555 1_555
H22 C22 1_555 1_555
C23 H23 1_555 1_555
H24 C23 1_555 1_555
H25 C23 1_555 1_555
C24 O6 1_555 1_555
Cd1B O1 1_555 1_555
Cd1A N2 1_555 1_555
Cd1C N2B 1_555 1_555
O1B Cd1 1_555 1_555
O2B Cd1 1_555 1_555
O3B C9B 1_555 1_555
O4B C8B 1_555 1_555
O5B Cd1B 1_555 1_555
O6B Cd1B 1_555 1_555
N1B Cd1B 1_555 1_555
N2B C1B 1_555 1_555
N2A Cd1 1_555 1_555
N2C Cd1B 1_555 1_555
N3B C8B 1_555 1_555
N4B C17B 1_555 1_555
N5B C21B 1_555 1_555
C1B N1B 1_555 1_555
H1B C1B 1_555 1_555
C2B N1B 1_555 1_555
C3B N2B 1_555 1_555
C4B C2B 1_555 1_555
H2B C4B 1_555 1_555
C5B C3B 1_555 1_555
H3B C5B 1_555 1_555
C6B C4B 1_555 1_555
C7B C5B 1_555 1_555
C8B C6B 1_555 1_555
C9B N3B 1_555 1_555
C10B N3B 1_555 1_555
C11B C10B 1_555 1_555
H4B C11B 1_555 1_555
C12B C11B 1_555 1_555
H5B C12B 1_555 1_555
C13B C12B 1_555 1_555
H6B C13B 1_555 1_555
C14B C13B 1_555 1_555
H7B C14B 1_555 1_555
C15B C10B 1_555 1_555
C16B O1B 1_555 1_555
C17B H8B 1_555 1_555
H9B C17B 1_555 1_555
H10B C17B 1_555 1_555
C18B N4B 1_555 1_555
H11B C18B 1_555 1_555
H12B C18B 1_555 1_555
H13B C18B 1_555 1_555
C19B H14B 1_555 1_555
H15B C19B 1_555 1_555
H16B C19B 1_555 1_555
C20B O5B 1_555 1_555
C21B H17B 1_555 1_555
H18B C21B 1_555 1_555
H19B C21B 1_555 1_555
C22B N5B 1_555 1_555
H20B C22B 1_555 1_555
H21B C22B 1_555 1_555
H22B C22B 1_555 1_555
C23B H23B 1_555 1_555
H24B C23B 1_555 1_555
H25B C23B 1_555 1_555
C24B O6B 1_555 1_555
O2 Cd1B 1_555 1_555
N5 C24 1_555 1_555
C2 C3 1_555 1_555
C6 C7 1_555 1_555
C7 C9 1_555 1_555
C14 C15 1_555 1_555
C19 C20 1_555 1_555
C23 C24 1_555 1_555
O2B C16B 1_555 1_555
N4B C20B 1_555 1_555
N5B C24B 1_555 1_555
C2B C3B 1_555 1_555
C6B C7B 1_555 1_555
C7B C9B 1_555 1_555
C14B C15B 1_555 1_555
C15B C16B 1_555 1_555
C19B C20B 1_555 1_555
C23B C24B 1_555 1_555

#END
