
#######################################################################
#
#                 Cambridge Crystallographic Data Centre
#                                CCDC 
#
#######################################################################
#
# If this CIF has been generated from an entry in the Cambridge 
# Structural Database, then it will include bibliographic, chemical, 
# crystal, experimental, refinement or atomic coordinate data resulting 
# from the CCDC's data processing and validation procedures.
#
#######################################################################

data_FELRUL
_symmetry_cell_setting           monoclinic
_symmetry_space_group_name_H-M   'C 2/c'
_symmetry_Int_Tables_number      15
_space_group_name_Hall           '-C 2yn'
loop_
_symmetry_equiv_pos_site_id
_symmetry_equiv_pos_as_xyz
1 x,y,z
2 -x,y,1/2-z
3 1/2+x,1/2+y,z
4 1/2-x,1/2+y,1/2-z
5 -x,-y,-z
6 x,-y,1/2+z
7 1/2-x,1/2-y,-z
8 1/2+x,1/2-y,1/2+z
_cell_length_a                   17.149(3)
_cell_length_b                   14.5281(15)
_cell_length_c                   15.488(2)
_cell_angle_alpha                90
_cell_angle_beta                 122.311(6)
_cell_angle_gamma                90
_cell_volume                     3261.23
loop_
_atom_site_label
_atom_site_type_symbol
_atom_site_fract_x
_atom_site_fract_y
_atom_site_fract_z
Mn1 Mn 0.08416(2) 0.62822(3) 0.21319(2)
O1 O 0.0000 0.71577(19) 0.2500
N1 N 0.16079(15) 0.54625(16) 0.15849(17)
C1 C 0.12119(17) 0.52911(18) 0.05888(19)
H1 H 0.0608 0.5488 0.0144
N2 N 0.21120(15) 0.72336(16) 0.27382(17)
C2 C 0.36522(17) 0.75709(18) 0.41270(19)
C3 C 0.38568(19) 0.7949(2) 0.3449(2)
H2 H 0.4439 0.8193 0.3689
C4 C 0.27663(18) 0.72294(19) 0.37383(19)
H3 H 0.2622 0.6988 0.4192
C5 C 0.25653(18) 0.45663(19) 0.0847(2)
H4 H 0.2887 0.4275 0.0595
C6 C 0.24788(18) 0.5174(2) 0.2212(2)
H5 H 0.2752 0.5276 0.2908
C7 C 0.16575(17) 0.48333(17) 0.01842(19)
C8 C 0.3190(2) 0.7962(2) 0.2411(2)
C9 C 0.2334(2) 0.7591(2) 0.2103(2)
H6 H 0.1885 0.7591 0.1408
C10 C 0.29978(18) 0.4735(2) 0.1895(2)
C11 C 0.3980(2) 0.4441(4) 0.2647(3)
H7 H 0.3965 0.3841 0.2911
H8 H 0.4289 0.4370 0.2279
C12 C 0.3399(3) 0.8322(3) 0.1645(3)
H9 H 0.3894 0.8770 0.1974
H10 H 0.2858 0.8633 0.1099
C13 C 0.3679(3) 0.7556(4) 0.1192(3)
H11 H 0.3802 0.7813 0.0705
H12 H 0.3188 0.7116 0.0857
H13 H 0.4224 0.7258 0.1727
C14 C 0.4535(3) 0.5049(4) 0.3510(3)
H14 H 0.5140 0.4790 0.3938
H15 H 0.4249 0.5117 0.3896
H16 H 0.4584 0.5640 0.3265
C15 C 0.11089(17) 0.45999(17) -0.09372(19)
O2 O 0.15372(13) 0.42874(15) -0.13276(14)
O3 O 0.02538(13) 0.47236(15) -0.13978(15)
C16 C 0.43348(18) 0.75370(19) 0.52627(19)
O4 O 0.50748(13) 0.79861(16) 0.56235(14)
O5 O 0.41020(15) 0.70715(16) 0.57711(15)
H17 H -0.032(3) 0.753(3) 0.193(3)
Mn1A Mn -0.08416(2) 0.62822(3) 0.28681(2)
Mn1D Mn -0.08416(2) 0.37178(3) -0.21319(2)
Mn1D_2 Mn -0.08416(2) 0.37178(3) 0.78681(2)
Mn1E Mn 0.08416(2) 0.37178(3) -0.28681(2)
Mn1E_2 Mn 0.08416(2) 0.37178(3) 0.71319(2)
Mn1F Mn -0.58416(2) 0.87178(3) -0.21319(2)
Mn1G Mn 0.58416(2) 0.87178(3) 0.71319(2)
N1A N -0.16079(15) 0.54625(16) 0.34151(17)
C1A C -0.12119(17) 0.52911(18) 0.44112(19)
H1A H -0.0608 0.5488 0.4856
N2A N -0.21120(15) 0.72336(16) 0.22618(17)
C2A C -0.36522(17) 0.75709(18) 0.08730(19)
C3A C -0.38568(19) 0.7949(2) 0.1551(2)
H2A H -0.4439 0.8193 0.1311
C4A C -0.27663(18) 0.72294(19) 0.12617(19)
H3A H -0.2622 0.6988 0.0808
C5A C -0.25653(18) 0.45663(19) 0.4153(2)
H4A H -0.2887 0.4275 0.4405
C6A C -0.24788(18) 0.5174(2) 0.2788(2)
H5A H -0.2752 0.5276 0.2092
C7A C -0.16575(17) 0.48333(17) 0.48158(19)
C8A C -0.3190(2) 0.7962(2) 0.2589(2)
C9A C -0.2334(2) 0.7591(2) 0.2897(2)
H6A H -0.1885 0.7591 0.3592
C10A C -0.29978(18) 0.4735(2) 0.3105(2)
C11A C -0.3980(2) 0.4441(4) 0.2353(3)
H7A H -0.3965 0.3841 0.2089
H8A H -0.4289 0.4370 0.2721
C12A C -0.3399(3) 0.8322(3) 0.3355(3)
H9A H -0.3894 0.8770 0.3026
H10A H -0.2858 0.8633 0.3901
C13A C -0.3679(3) 0.7556(4) 0.3808(3)
H11A H -0.3802 0.7813 0.4295
H12A H -0.3188 0.7116 0.4143
H13A H -0.4224 0.7258 0.3273
C14A C -0.4535(3) 0.5049(4) 0.1490(3)
H14A H -0.5140 0.4790 0.1062
H15A H -0.4249 0.5117 0.1104
H16A H -0.4584 0.5640 0.1735
C15A C -0.11089(17) 0.45999(17) 0.59372(19)
O2A O -0.15372(13) 0.42874(15) 0.63276(14)
O2D O -0.15372(13) 0.57126(15) 0.13276(14)
O2E O 0.15372(13) 0.57126(15) 0.36724(14)
O3A O -0.02538(13) 0.47236(15) 0.63978(15)
O3D O -0.02538(13) 0.52764(15) 0.13978(15)
O3E O 0.02538(13) 0.52764(15) 0.36022(15)
C16A C -0.43348(18) 0.75370(19) -0.02627(19)
O4A O -0.50748(13) 0.79861(16) -0.06235(14)
O4F O -0.00748(13) 0.70139(16) 0.43765(14)
O4G O 0.00748(13) 0.70139(16) 0.06235(14)
O5A O -0.41020(15) 0.70715(16) -0.07711(15)
H17A H 0.032(3) 0.753(3) 0.307(3)
loop_
_geom_bond_atom_site_label_1
_geom_bond_atom_site_label_2
_geom_bond_site_symmetry_1
_geom_bond_site_symmetry_2
Mn1 O1 1_555 1_555
O1 H17 1_555 1_555
N1 Mn1 1_555 1_555
C1 N1 1_555 1_555
H1 C1 1_555 1_555
N2 Mn1 1_555 1_555
C2 C3 1_555 1_555
C3 H2 1_555 1_555
C4 N2 1_555 1_555
H3 C4 1_555 1_555
C5 H4 1_555 1_555
C6 N1 1_555 1_555
H5 C6 1_555 1_555
C7 C1 1_555 1_555
C8 C3 1_555 1_555
C9 N2 1_555 1_555
H6 C9 1_555 1_555
C10 C5 1_555 1_555
C11 C10 1_555 1_555
H7 C11 1_555 1_555
H8 C11 1_555 1_555
C12 C8 1_555 1_555
H9 C12 1_555 1_555
H10 C12 1_555 1_555
C13 C12 1_555 1_555
H11 C13 1_555 1_555
H12 C13 1_555 1_555
H13 C13 1_555 1_555
C14 C11 1_555 1_555
H14 C14 1_555 1_555
H15 C14 1_555 1_555
H16 C14 1_555 1_555
C15 C7 1_555 1_555
O2 C15 1_555 1_555
O3 C15 1_555 1_555
C16 C2 1_555 1_555
O4 C16 1_555 1_555
O5 C16 1_555 1_555
Mn1A O1 1_555 1_555
Mn1D O3 1_555 1_555
Mn1D_2 O2A 1_555 1_555
Mn1E O2 1_555 1_555
Mn1E_2 O3A 1_555 1_555
Mn1F O4A 1_555 1_555
Mn1G O4 1_555 1_555
N1A Mn1A 1_555 1_555
C1A N1A 1_555 1_555
H1A C1A 1_555 1_555
N2A Mn1A 1_555 1_555
C2A C3A 1_555 1_555
C3A H2A 1_555 1_555
C4A N2A 1_555 1_555
H3A C4A 1_555 1_555
C5A H4A 1_555 1_555
C6A N1A 1_555 1_555
H5A C6A 1_555 1_555
C7A C1A 1_555 1_555
C8A C3A 1_555 1_555
C9A N2A 1_555 1_555
H6A C9A 1_555 1_555
C10A C5A 1_555 1_555
C11A C10A 1_555 1_555
H7A C11A 1_555 1_555
H8A C11A 1_555 1_555
C12A C8A 1_555 1_555
H9A C12A 1_555 1_555
H10A C12A 1_555 1_555
C13A C12A 1_555 1_555
H11A C13A 1_555 1_555
H12A C13A 1_555 1_555
H13A C13A 1_555 1_555
C14A C11A 1_555 1_555
H14A C14A 1_555 1_555
H15A C14A 1_555 1_555
H16A C14A 1_555 1_555
C15A C7A 1_555 1_555
O2A C15A 1_555 1_555
O2D Mn1A 1_555 1_555
O2E Mn1 1_555 1_555
O3A C15A 1_555 1_555
O3D Mn1 1_555 1_555
O3E Mn1A 1_555 1_555
C16A C2A 1_555 1_555
O4A C16A 1_555 1_555
O4F Mn1A 1_555 1_555
O4G Mn1 1_555 1_555
O5A C16A 1_555 1_555
H17A O1 1_555 1_555
C2 C4 1_555 1_555
C5 C7 1_555 1_555
C6 C10 1_555 1_555
C8 C9 1_555 1_555
C2A C4A 1_555 1_555
C5A C7A 1_555 1_555
C6A C10A 1_555 1_555
C8A C9A 1_555 1_555

#END
