
#######################################################################
#
#                 Cambridge Crystallographic Data Centre
#                                CCDC 
#
#######################################################################
#
# If this CIF has been generated from an entry in the Cambridge 
# Structural Database, then it will include bibliographic, chemical, 
# crystal, experimental, refinement or atomic coordinate data resulting 
# from the CCDC's data processing and validation procedures.
#
#######################################################################

data_FELTIB
_symmetry_cell_setting           monoclinic
_symmetry_space_group_name_H-M   'C 2/c'
_symmetry_Int_Tables_number      15
_space_group_name_Hall           '-C 2yn'
loop_
_symmetry_equiv_pos_site_id
_symmetry_equiv_pos_as_xyz
1 x,y,z
2 -x,y,1/2-z
3 1/2+x,1/2+y,z
4 1/2-x,1/2+y,1/2-z
5 -x,-y,-z
6 x,-y,1/2+z
7 1/2-x,1/2-y,-z
8 1/2+x,1/2-y,1/2+z
_cell_length_a                   24.979(5)
_cell_length_b                   4.6302(8)
_cell_length_c                   21.620(6)
_cell_angle_alpha                90
_cell_angle_beta                 124.074(2)
_cell_angle_gamma                90
_cell_volume                     2071.22
loop_
_atom_site_label
_atom_site_type_symbol
_atom_site_fract_x
_atom_site_fract_y
_atom_site_fract_z
Pb1 Pb 0.145023(10) 0.94494(4) 0.195760(11)
O1 O 0.1538(2) 0.4966(9) 0.2690(2)
O2 O 0.0825(2) 0.1574(10) 0.2470(2)
O3 O -0.0393(2) 0.7044(8) 0.3783(2)
O4 O -0.07725(19) 0.3250(9) 0.4057(2)
O5 O 0.1668(2) 0.8694(11) 0.0897(2)
O6 O 0.2452(3) 0.6515(14) 0.0937(3)
O7 O 0.2271(3) 0.5746(10) 0.1805(3)
N1 N 0.0733(3) 0.4360(9) 0.4215(3)
N2 N 0.2136(2) 0.6971(12) 0.1212(3)
C1 C 0.0288(3) 0.2948(11) 0.4360(3)
H1 H 0.0498 0.2773 0.4895
H2 H 0.0196 0.1014 0.4153
C2 C 0.1140(3) 0.6425(12) 0.4682(3)
H3 H 0.1137 0.6948 0.5096
C3 C 0.1161(3) 0.3694(12) 0.2817(3)
C4 C -0.0346(3) 0.4570(11) 0.4031(3)
C5 C 0.1557(3) 0.7763(12) 0.4550(3)
H4 H 0.1826 0.9232 0.4864
C6 C 0.0728(3) 0.3573(12) 0.3616(3)
H5 H 0.0435 0.2177 0.3296
C7 C 0.1574(3) 0.6917(12) 0.3947(3)
H6 H 0.1867 0.7756 0.3864
C8 C 0.1144(3) 0.4772(12) 0.3463(3)
Pb1_2 Pb 0.145023(10) -0.05506(4) 0.195760(11)
Pb1A Pb -0.145023(10) 0.94494(4) 0.304240(11)
Pb1A_2 Pb -0.145023(10) -0.05506(4) 0.304240(11)
O2_2 O 0.0825(2) 1.1574(10) 0.2470(2)
O3A O 0.0393(2) 0.7044(8) 0.1217(2)
O4A O 0.07725(19) 1.3250(9) 0.0943(2)
loop_
_geom_bond_atom_site_label_1
_geom_bond_atom_site_label_2
_geom_bond_site_symmetry_1
_geom_bond_site_symmetry_2
Pb1 O1 1_555 1_555
O1 C3 1_555 1_555
O2 C3 1_555 1_555
O3 C4 1_555 1_555
O4 C4 1_555 1_555
O5 Pb1 1_555 1_555
O6 N2 1_555 1_555
O7 N2 1_555 1_555
N1 C1 1_555 1_555
N2 O5 1_555 1_555
C1 H1 1_555 1_555
H2 C1 1_555 1_555
C2 N1 1_555 1_555
H3 C2 1_555 1_555
C3 C8 1_555 1_555
C4 C1 1_555 1_555
C5 C2 1_555 1_555
H4 C5 1_555 1_555
C6 N1 1_555 1_555
H5 C6 1_555 1_555
C7 C5 1_555 1_555
H6 C7 1_555 1_555
C8 C6 1_555 1_555
Pb1_2 O2 1_555 1_555
Pb1A O3 1_555 1_555
Pb1A_2 O4 1_555 1_555
O2_2 Pb1 1_555 1_555
O3A Pb1 1_555 1_555
O4A Pb1 1_555 1_555
C7 C8 1_555 1_555

#END
