
#######################################################################
#
#                 Cambridge Crystallographic Data Centre
#                                CCDC 
#
#######################################################################
#
# If this CIF has been generated from an entry in the Cambridge 
# Structural Database, then it will include bibliographic, chemical, 
# crystal, experimental, refinement or atomic coordinate data resulting 
# from the CCDC's data processing and validation procedures.
#
#######################################################################

data_FELTAT
_symmetry_cell_setting           orthorhombic
_symmetry_space_group_name_H-M   'P b c n'
_symmetry_Int_Tables_number      60
_space_group_name_Hall           '-P 2n 2ab'
loop_
_symmetry_equiv_pos_site_id
_symmetry_equiv_pos_as_xyz
1 x,y,z
2 1/2-x,1/2-y,1/2+z
3 -x,y,1/2-z
4 1/2+x,1/2-y,-z
5 -x,-y,-z
6 1/2+x,1/2+y,1/2-z
7 x,-y,1/2+z
8 1/2-x,1/2+y,z
_cell_length_a                   14.3015(18)
_cell_length_b                   7.1697(9)
_cell_length_c                   15.1451(19)
_cell_angle_alpha                90
_cell_angle_beta                 90
_cell_angle_gamma                90
_cell_volume                     1552.94
loop_
_atom_site_label
_atom_site_type_symbol
_atom_site_fract_x
_atom_site_fract_y
_atom_site_fract_z
Zn1 Zn 1.0000 -0.00410(4) 0.7500
O1 O 0.90406(8) 0.15617(17) 0.69424(8)
O2 O 0.90524(10) 0.3447(2) 0.81234(8)
O3 O 0.91451(9) 0.1536(2) 0.32080(8)
O4 O 1.02428(9) 0.2502(2) 0.41515(9)
N1 N 0.81589(9) 0.4075(2) 0.59099(8)
C1 C 0.72530(11) 0.3976(3) 0.56602(11)
H1 H 0.6784 0.4286 0.6060
C2 C 0.70199(12) 0.3422(3) 0.48221(11)
H2 H 0.6397 0.3377 0.4647
C3 C 0.77225(12) 0.2933(3) 0.42413(11)
H3 H 0.7573 0.2547 0.3672
C4 C 0.86499(11) 0.3015(2) 0.45045(10)
C5 C 0.88563(11) 0.3617(2) 0.53480(11)
H4 H 0.9476 0.3708 0.5530
C6 C 0.83997(13) 0.4626(3) 0.68242(11)
H5 H 0.7833 0.5004 0.7127
H6 H 0.8813 0.5698 0.6803
C7 C 0.88713(11) 0.3081(3) 0.73543(10)
C8 C 0.94298(12) 0.2320(2) 0.39149(10)
Zn1D Zn 1.0000 0.00410(4) 0.2500
Zn1D_2 Zn 1.0000 0.00410(4) 1.2500
O1B O 1.09594(8) 0.15617(17) 0.80576(8)
O2B O 1.09476(10) 0.3447(2) 0.68766(8)
O3B O 1.08549(9) 0.1536(2) 1.17920(8)
O3D O 1.08549(9) -0.1536(2) 0.67920(8)
O3F O 0.91451(9) -0.1536(2) 0.82080(8)
O4B O 0.97572(9) 0.2502(2) 1.08485(9)
N1B N 1.18411(9) 0.4075(2) 0.90901(8)
C1B C 1.27470(11) 0.3976(3) 0.93398(11)
H1B H 1.3216 0.4286 0.8940
C2B C 1.29801(12) 0.3422(3) 1.01779(11)
H2B H 1.3603 0.3377 1.0353
C3B C 1.22775(12) 0.2933(3) 1.07587(11)
H3B H 1.2427 0.2547 1.1328
C4B C 1.13501(11) 0.3015(2) 1.04955(10)
C5B C 1.11437(11) 0.3617(2) 0.96520(11)
H4B H 1.0524 0.3708 0.9470
C6B C 1.16003(13) 0.4626(3) 0.81758(11)
H5B H 1.2167 0.5004 0.7873
H6B H 1.1187 0.5698 0.8197
C7B C 1.11287(11) 0.3081(3) 0.76457(10)
C8B C 1.05702(12) 0.2320(2) 1.10851(10)
loop_
_geom_bond_atom_site_label_1
_geom_bond_atom_site_label_2
_geom_bond_site_symmetry_1
_geom_bond_site_symmetry_2
Zn1 O1 1_555 1_555
O1 C7 1_555 1_555
O2 C7 1_555 1_555
O3 C8 1_555 1_555
O4 C8 1_555 1_555
N1 C1 1_555 1_555
C1 H1 1_555 1_555
C2 C1 1_555 1_555
H2 C2 1_555 1_555
C3 C2 1_555 1_555
H3 C3 1_555 1_555
C4 C3 1_555 1_555
C5 N1 1_555 1_555
H4 C5 1_555 1_555
C6 N1 1_555 1_555
H5 C6 1_555 1_555
H6 C6 1_555 1_555
C7 C6 1_555 1_555
C8 C4 1_555 1_555
Zn1D O3 1_555 1_555
Zn1D_2 O3B 1_555 1_555
O1B Zn1 1_555 1_555
O2B C7B 1_555 1_555
O3B C8B 1_555 1_555
O3D Zn1 1_555 1_555
O3F Zn1 1_555 1_555
O4B C8B 1_555 1_555
N1B C1B 1_555 1_555
C1B H1B 1_555 1_555
C2B C1B 1_555 1_555
H2B C2B 1_555 1_555
C3B C2B 1_555 1_555
H3B C3B 1_555 1_555
C4B C3B 1_555 1_555
C5B N1B 1_555 1_555
H4B C5B 1_555 1_555
C6B N1B 1_555 1_555
H5B C6B 1_555 1_555
H6B C6B 1_555 1_555
C7B O1B 1_555 1_555
C8B C4B 1_555 1_555
C4 C5 1_555 1_555
C4B C5B 1_555 1_555
C6B C7B 1_555 1_555

#END
