
#######################################################################
#
#                 Cambridge Crystallographic Data Centre
#                                CCDC 
#
#######################################################################
#
# If this CIF has been generated from an entry in the Cambridge 
# Structural Database, then it will include bibliographic, chemical, 
# crystal, experimental, refinement or atomic coordinate data resulting 
# from the CCDC's data processing and validation procedures.
#
#######################################################################

data_FELTEX
_symmetry_cell_setting           monoclinic
_symmetry_space_group_name_H-M   'P 21/c'
_symmetry_Int_Tables_number      14
_space_group_name_Hall           '-P 2ybc'
loop_
_symmetry_equiv_pos_site_id
_symmetry_equiv_pos_as_xyz
1 x,y,z
2 -x,1/2+y,1/2-z
3 -x,-y,-z
4 x,1/2-y,1/2+z
_cell_length_a                   7.529(5)
_cell_length_b                   17.346(11)
_cell_length_c                   7.425(5)
_cell_angle_alpha                90
_cell_angle_beta                 117.455(8)
_cell_angle_gamma                90
_cell_volume                     860.477
loop_
_atom_site_label
_atom_site_type_symbol
_atom_site_fract_x
_atom_site_fract_y
_atom_site_fract_z
Cd1 Cd 0.5000 0.5000 1.0000
O1 O 0.3726(2) 0.38611(7) 1.0429(2)
O2 O 0.5357(2) 0.30132(7) 0.9447(2)
O3 O 0.2717(2) 0.01971(8) 1.16894(19)
O4 O 0.3258(2) -0.06335(7) 0.9677(2)
O5 O 0.28019(18) 0.57274(7) 1.0767(2)
N1 N 0.1323(2) 0.13193(7) 0.87561(19)
C1 C 0.3976(2) 0.32141(9) 0.9826(2)
C2 C 0.2400(2) 0.26136(9) 0.9493(2)
C3 C 0.2751(2) 0.18570(9) 0.9178(2)
H1 H 0.3978 0.1718 0.9259
C4 C -0.0436(2) 0.14965(10) 0.8709(3)
H2 H -0.1381 0.1112 0.8460
C5 C -0.0852(2) 0.22402(10) 0.9025(3)
H3 H -0.2067 0.2361 0.8997
C6 C 0.0565(2) 0.28080(9) 0.9384(2)
H4 H 0.0288 0.3318 0.9552
C7 C 0.1679(3) 0.05290(8) 0.8237(2)
H5 H 0.2521 0.0561 0.7568
H6 H 0.0408 0.0309 0.7275
C8 C 0.2665(3) -0.00154(8) 1.0045(3)
H7 H 0.301(3) 0.5700(12) 1.193(4)
H8 H 0.329(4) 0.6188(17) 1.072(4)
Cd1A Cd 0.5000 0.0000 1.5000
Cd1A_2 Cd 0.5000 1.0000 0.5000
O1B O 0.6274(2) 0.61389(7) 0.9571(2)
O2B O 0.4643(2) 0.69868(7) 1.0553(2)
O3B O 0.7283(2) 0.98029(8) 0.83106(19)
O3A O 0.7283(2) 0.51971(8) 1.33106(19)
O3C O 0.2717(2) 0.48029(8) 0.66894(19)
O4B O 0.6742(2) 1.06335(7) 1.0323(2)
O5B O 0.71981(18) 0.42726(7) 0.9233(2)
N1B N 0.8677(2) 0.86807(7) 1.12439(19)
C1B C 0.6024(2) 0.67859(9) 1.0174(2)
C2B C 0.7600(2) 0.73864(9) 1.0507(2)
C3B C 0.7249(2) 0.81430(9) 1.0822(2)
H1B H 0.6022 0.8282 1.0741
C4B C 1.0436(2) 0.85035(10) 1.1291(3)
H2B H 1.1381 0.8888 1.1540
C5B C 1.0852(2) 0.77598(10) 1.0975(3)
H3B H 1.2067 0.7639 1.1003
C6B C 0.9435(2) 0.71920(9) 1.0616(2)
H4B H 0.9712 0.6682 1.0448
C7B C 0.8321(3) 0.94710(8) 1.1763(2)
H5B H 0.7479 0.9439 1.2432
H6B H 0.9592 0.9691 1.2725
C8B C 0.7335(3) 1.00154(8) 0.9955(3)
H7B H 0.699(3) 0.4300(12) 0.807(4)
H8B H 0.671(4) 0.3812(17) 0.928(4)
loop_
_geom_bond_atom_site_label_1
_geom_bond_atom_site_label_2
_geom_bond_site_symmetry_1
_geom_bond_site_symmetry_2
Cd1 O1 1_555 1_555
O1 C1 1_555 1_555
O2 C1 1_555 1_555
O3 C8 1_555 1_555
O4 C8 1_555 1_555
O5 Cd1 1_555 1_555
N1 C3 1_555 1_555
C1 C2 1_555 1_555
C2 C3 1_555 1_555
C3 H1 1_555 1_555
C4 N1 1_555 1_555
H2 C4 1_555 1_555
C5 C4 1_555 1_555
H3 C5 1_555 1_555
C6 C2 1_555 1_555
H4 C6 1_555 1_555
C7 N1 1_555 1_555
H5 C7 1_555 1_555
H6 C7 1_555 1_555
C8 C7 1_555 1_555
H7 O5 1_555 1_555
H8 O5 1_555 1_555
Cd1A O3 1_555 1_555
Cd1A_2 O3B 1_555 1_555
O1B Cd1 1_555 1_555
O2B C1B 1_555 1_555
O3B C8B 1_555 1_555
O3A Cd1 1_555 1_555
O3C Cd1 1_555 1_555
O4B C8B 1_555 1_555
O5B Cd1 1_555 1_555
N1B C3B 1_555 1_555
C1B O1B 1_555 1_555
C2B C1B 1_555 1_555
C3B C2B 1_555 1_555
H1B C3B 1_555 1_555
C4B N1B 1_555 1_555
H2B C4B 1_555 1_555
C5B C4B 1_555 1_555
H3B C5B 1_555 1_555
C6B C2B 1_555 1_555
H4B C6B 1_555 1_555
C7B N1B 1_555 1_555
H5B C7B 1_555 1_555
H6B C7B 1_555 1_555
C8B C7B 1_555 1_555
H7B O5B 1_555 1_555
H8B O5B 1_555 1_555
C5 C6 1_555 1_555
C5B C6B 1_555 1_555

#END
