
#######################################################################
#
#                 Cambridge Crystallographic Data Centre
#                                CCDC 
#
#######################################################################
#
# If this CIF has been generated from an entry in the Cambridge 
# Structural Database, then it will include bibliographic, chemical, 
# crystal, experimental, refinement or atomic coordinate data resulting 
# from the CCDC's data processing and validation procedures.
#
#######################################################################

data_FELXAV
_symmetry_cell_setting           monoclinic
_symmetry_space_group_name_H-M   'P 21'
_symmetry_Int_Tables_number      4
_space_group_name_Hall           'P 2yb'
loop_
_symmetry_equiv_pos_site_id
_symmetry_equiv_pos_as_xyz
1 x,y,z
2 -x,1/2+y,-z
_cell_length_a                   12.220(2)
_cell_length_b                   19.013(4)
_cell_length_c                   7.920(2)
_cell_angle_alpha                90
_cell_angle_beta                 96.76(2)
_cell_angle_gamma                90
_cell_volume                     1827.33
loop_
_atom_site_label
_atom_site_type_symbol
_atom_site_fract_x
_atom_site_fract_y
_atom_site_fract_z
Mo1 Mo 0.50430(4) 0.14750 0.75912(5)
Mo2 Mo 0.48840(4) 0.15208(4) 0.25497(5)
O1 O 0.4683(3) 0.1468(4) 0.5407(5)
O2 O 0.6430(3) 0.1328(3) 0.7877(5)
O3 O 0.5025(4) 0.2484(3) 0.7838(6)
O4 O 0.4568(4) 0.0570(3) 0.8151(6)
O5 O 0.5237(3) 0.1612(3) 1.0506(5)
O6 O 0.3502(4) 0.1360(3) 0.2277(5)
O7 O 0.4832(4) 0.2510(3) 0.3106(6)
O8 O 0.5411(4) 0.0602(3) 0.2999(6)
N1 N 0.3296(4) 0.1639(3) 0.8171(6)
N2 N 0.6621(4) 0.1670(3) 0.3858(6)
C1 C 0.3399(5) 0.2850(3) 0.9054(8)
C2 C 0.4454(5) 0.2974(3) 0.8580(7)
C3 C 0.4981(5) 0.3627(4) 0.8861(9)
C4 C 0.4470(7) 0.4160(3) 0.960(1)
C5 C 0.3399(5) 0.4080(4) 1.0104(8)
C6 C 0.2895(7) 0.4620(4) 1.093(1)
C7 C 0.1876(7) 0.4547(5) 1.140(1)
C8 C 0.1296(7) 0.3937(6) 1.103(1)
C9 C 0.1763(6) 0.3365(4) 1.027(1)
C10 C 0.2841(5) 0.3417(4) 0.9794(8)
C11 C 0.2863(5) 0.2184(4) 0.8742(8)
C12 C 0.3499(6) 0.0404(4) 0.8600(9)
C13 C 0.2681(6) 0.0963(4) 0.7878(9)
C14 C 0.1593(7) 0.0919(5) 0.861(1)
C15 C 0.1025(8) 0.0215(6) 0.826(2)
C17 C 0.6572(5) 0.2913(3) 0.4492(7)
C18 C 0.5477(5) 0.3017(3) 0.3864(7)
C19 C 0.4970(6) 0.3673(4) 0.4009(9)
C20 C 0.5548(7) 0.4220(4) 0.475(1)
C21 C 0.6664(7) 0.4162(4) 0.5393(9)
C22 C 0.7258(8) 0.4735(5) 0.620(1)
C23 C 0.8325(9) 0.4680(6) 0.676(1)
C24 C 0.8881(8) 0.4051(6) 0.661(1)
C25 C 0.8337(7) 0.3468(4) 0.589(1)
C26 C 0.7213(6) 0.3503(4) 0.5242(8)
C27 C 0.7066(5) 0.2226(4) 0.4501(8)
C28 C 0.6452(9) 0.0432(6) 0.377(3)
C29 C 0.7232(7) 0.1001(4) 0.4051(9)
C30 C 0.8052(9) 0.0950(6) 0.277(2)
C31 C 0.8802(9) 0.0301(7) 0.301(2)
H1 H 0.57097 0.36873 0.85374
H2 H 0.48416 0.46034 0.97982
H3 H 0.32956 0.50591 1.11530
H4 H 0.15601 0.49325 1.19552
H5 H 0.05633 0.39041 1.13492
H6 H 0.13435 0.29274 1.00608
H7 H 0.21097 0.21449 0.89415
H8 H 0.32811 -0.00512 0.81867
H9 H 0.35241 0.03960 0.98262
H10 H 0.25341 0.08927 0.66587
H11 H 0.17306 0.09932 0.98194
H12 H 0.11118 0.12897 0.81479
H13 H 0.08818 0.01383 0.70583
H14 H 0.15006 -0.01582 0.87298
H15 H 0.03477 0.01791 0.87338
H18 H 0.42013 0.37214 0.35977
H19 H 0.51938 0.46704 0.48185
H20 H 0.68610 0.51772 0.63603
H21 H 0.87251 0.50704 0.73216
H22 H 0.96677 0.39955 0.70031
H23 H 0.87220 0.30349 0.58108
H24 H 0.77981 0.21787 0.50388
H25 H 0.63696 0.02159 0.48524
H26 H 0.67534 0.00767 0.30838
H27 H 0.76507 0.09718 0.51588
H28 H 0.76212 0.09338 0.15753
H29 H 0.84814 0.13788 0.27104
H30 H 0.92203 0.03473 0.40223
H31 H 0.83601 -0.00977 0.28872
H32 H 0.92830 0.02942 0.20838
O5_2 O 0.5237(3) 0.1612(3) 0.0506(5)
Mo2_2 Mo 0.48840(4) 0.15208(4) 1.25497(5)
Cl1 Cl 0.1002(4) 0.1831(3) 0.3867(8)
Cl2 Cl 0.1642(4) 0.3148(3) 0.5301(5)
C16 C 0.203(1) 0.2438(9) 0.420(1)
H16 H 0.26777 0.22612 0.48519
H17 H 0.22373 0.26297 0.31598
Cl3 Cl 0.9027(2) 0.2030(2) 0.9038(5)
Cl4 Cl 0.8256(4) 0.3135(3) 1.1110(5)
C32 C 0.7908(9) 0.2493(7) 0.963(1)
H33 H 0.75099 0.27186 0.86296
H34 H 0.73933 0.21798 1.00686
loop_
_geom_bond_atom_site_label_1
_geom_bond_atom_site_label_2
_geom_bond_site_symmetry_1
_geom_bond_site_symmetry_2
Mo1 O1 1_555 1_555
Mo2 O1 1_555 1_555
Cl1 C16 1_555 1_555
Cl2 C16 1_555 1_555
Cl3 C32 1_555 1_555
Cl4 C32 1_555 1_555
O2 Mo1 1_555 1_555
O3 Mo1 1_555 1_555
O4 Mo1 1_555 1_555
O5 Mo1 1_555 1_555
O6 Mo2 1_555 1_555
O7 Mo2 1_555 1_555
O8 Mo2 1_555 1_555
N1 Mo1 1_555 1_555
N2 Mo2 1_555 1_555
C1 C2 1_555 1_555
C2 O3 1_555 1_555
C3 C2 1_555 1_555
C4 C3 1_555 1_555
C5 C4 1_555 1_555
C6 C5 1_555 1_555
C7 C6 1_555 1_555
C8 C7 1_555 1_555
C9 C8 1_555 1_555
C10 C1 1_555 1_555
C11 N1 1_555 1_555
C12 O4 1_555 1_555
C13 N1 1_555 1_555
C14 C13 1_555 1_555
C15 C14 1_555 1_555
C16 H16 1_555 1_555
C17 C18 1_555 1_555
C18 O7 1_555 1_555
C19 C18 1_555 1_555
C20 C19 1_555 1_555
C21 C20 1_555 1_555
C22 C21 1_555 1_555
C23 C22 1_555 1_555
C24 C23 1_555 1_555
C25 C24 1_555 1_555
C26 C17 1_555 1_555
C27 N2 1_555 1_555
C28 O8 1_555 1_555
C29 N2 1_555 1_555
C30 C29 1_555 1_555
C31 C30 1_555 1_555
C32 H33 1_555 1_555
H1 C3 1_555 1_555
H2 C4 1_555 1_555
H3 C6 1_555 1_555
H4 C7 1_555 1_555
H5 C8 1_555 1_555
H6 C9 1_555 1_555
H7 C11 1_555 1_555
H8 C12 1_555 1_555
H9 C12 1_555 1_555
H10 C13 1_555 1_555
H11 C14 1_555 1_555
H12 C14 1_555 1_555
H13 C15 1_555 1_555
H14 C15 1_555 1_555
H15 C15 1_555 1_555
H17 C16 1_555 1_555
H18 C19 1_555 1_555
H19 C20 1_555 1_555
H20 C22 1_555 1_555
H21 C23 1_555 1_555
H22 C24 1_555 1_555
H23 C25 1_555 1_555
H24 C27 1_555 1_555
H25 C28 1_555 1_555
H26 C28 1_555 1_555
H27 C29 1_555 1_555
H28 C30 1_555 1_555
H29 C30 1_555 1_555
H30 C31 1_555 1_555
H31 C31 1_555 1_555
H32 C31 1_555 1_555
H34 C32 1_555 1_555
O5_2 Mo2 1_555 1_555
Mo2_2 O5 1_555 1_555
C1 C11 1_555 1_555
C5 C10 1_555 1_555
C9 C10 1_555 1_555
C12 C13 1_555 1_555
C17 C27 1_555 1_555
C21 C26 1_555 1_555
C25 C26 1_555 1_555
C28 C29 1_555 1_555

#END
