
#######################################################################
#
#                 Cambridge Crystallographic Data Centre
#                                CCDC 
#
#######################################################################
#
# If this CIF has been generated from an entry in the Cambridge 
# Structural Database, then it will include bibliographic, chemical, 
# crystal, experimental, refinement or atomic coordinate data resulting 
# from the CCDC's data processing and validation procedures.
#
#######################################################################

data_FELXUQ
_symmetry_cell_setting           monoclinic
_symmetry_space_group_name_H-M   'P 21/c'
_symmetry_Int_Tables_number      14
_space_group_name_Hall           '-P 2ybc'
loop_
_symmetry_equiv_pos_site_id
_symmetry_equiv_pos_as_xyz
1 x,y,z
2 -x,1/2+y,1/2-z
3 -x,-y,-z
4 x,1/2-y,1/2+z
_cell_length_a                   18.8080(3)
_cell_length_b                   8.18000(10)
_cell_length_c                   21.2960(4)
_cell_angle_alpha                90
_cell_angle_beta                 98.1970(10)
_cell_angle_gamma                90
_cell_volume                     3242.91
loop_
_atom_site_label
_atom_site_type_symbol
_atom_site_fract_x
_atom_site_fract_y
_atom_site_fract_z
Zn1 Zn 0.136544(15) 0.61106(3) 0.312478(13)
S1 S 0.02870(3) 0.75293(7) 0.30791(3)
S2 S 0.22201(3) 0.81975(8) 0.32202(3)
O1 O 0.15588(9) 0.7465(2) 0.18270(8)
O2 O 0.13994(9) 0.5063(2) 0.22897(8)
O3 O -0.18243(10) 0.9733(2) 0.04682(8)
O4 O -0.13111(10) 0.9015(2) 0.14356(8)
N1 N -0.10518(12) 0.6560(3) 0.28368(12)
H1 H -0.1412 0.5873 0.2836
H2 H -0.1130 0.7551 0.2682
N2 N -0.02832(12) 0.4611(3) 0.33023(10)
H3 H -0.0647 0.3933 0.3299
H4 H 0.0153 0.4296 0.3459
N3 N 0.24898(11) 0.7723(3) 0.44815(10)
H5 H 0.2689 0.8000 0.4866
H6 H 0.2227 0.6831 0.4424
N4 N 0.29836(11) 0.9984(3) 0.40899(10)
H7 H 0.3181 1.0253 0.4476
H8 H 0.3050 1.0605 0.3766
C1 C 0.14150(12) 0.5963(3) 0.18006(11)
C2 C 0.12371(14) 0.5159(3) 0.11521(12)
H17 H 0.1678 0.5085 0.0950
H18 H 0.1061 0.4034 0.1205
C3 C 0.06740(13) 0.6114(3) 0.07276(11)
C4 C 0.08492(14) 0.6991(3) 0.02092(12)
H19 H 0.1328 0.6974 0.0115
C5 C 0.03242(14) 0.7894(3) -0.01711(12)
H20 H 0.0449 0.8505 -0.0519
C6 C -0.03771(14) 0.7902(3) -0.00438(12)
H21 H -0.0733 0.8506 -0.0308
C7 C -0.05643(13) 0.7026(3) 0.04709(12)
C8 C -0.00337(14) 0.6146(3) 0.08558(11)
H22 H -0.0156 0.5561 0.1210
C9 C -0.13337(13) 0.7029(3) 0.06138(12)
H23 H -0.1666 0.6744 0.0226
H24 H -0.1389 0.6203 0.0944
C10 C -0.15146(13) 0.8717(3) 0.08445(12)
C11 C 0.25842(13) 0.8635(3) 0.39963(12)
C12 C -0.03929(13) 0.6102(3) 0.30714(12)
Zn1A Zn -0.136544(15) 1.11106(3) 0.187522(13)
O4A O 0.13111(10) 0.4015(2) 0.35644(8)
Zn2 Zn 0.365934(15) 0.35597(3) 0.174246(13)
S3 S 0.47090(3) 0.20405(8) 0.20236(3)
S4 S 0.27752(3) 0.24336(7) 0.10092(3)
O5 O 0.31792(11) 0.5840(2) 0.05737(9)
O6 O 0.39417(9) 0.5738(2) 0.14721(8)
O7 O 0.67010(9) 0.6829(2) 0.20196(8)
O8 O 0.65996(9) 0.9311(2) 0.24334(8)
N5 N 0.53894(11) 0.4713(3) 0.16692(10)
H9 H 0.5781 0.5272 0.1632
H10 H 0.4965 0.5128 0.1530
N6 N 0.60874(11) 0.2655(3) 0.21400(11)
H11 H 0.6472 0.3233 0.2098
H12 H 0.6132 0.1683 0.2318
N7 N 0.26352(11) 0.0114(3) 0.18846(10)
H13 H 0.2461 -0.0816 0.2004
H14 H 0.2914 0.0714 0.2161
N8 N 0.20591(11) -0.0322(3) 0.08859(10)
H15 H 0.1890 -0.1247 0.1015
H16 H 0.1948 -0.0016 0.0488
C13 C 0.36489(13) 0.6469(3) 0.09638(12)
C14 C 0.39369(14) 0.8180(3) 0.08666(13)
H25 H 0.3599 0.8762 0.0543
H26 H 0.3968 0.8800 0.1269
C15 C 0.46735(14) 0.8116(3) 0.06544(12)
C16 C 0.52822(13) 0.8566(3) 0.10648(12)
H27 H 0.5238 0.8887 0.1486
C17 C 0.59608(13) 0.8554(3) 0.08670(12)
C18 C 0.60206(14) 0.8075(3) 0.02529(12)
H28 H 0.6477 0.8074 0.0112
C19 C 0.54120(16) 0.7594(4) -0.01592(13)
H29 H 0.5457 0.7246 -0.0577
C20 C 0.47465(14) 0.7623(3) 0.00398(12)
H30 H 0.4334 0.7304 -0.0244
C21 C 0.66195(13) 0.9127(3) 0.13164(12)
H31 H 0.7060 0.8833 0.1137
H32 H 0.6606 1.0332 0.1357
C22 C 0.66460(12) 0.8357(3) 0.19677(12)
C23 C 0.54397(13) 0.3249(3) 0.19345(11)
C24 C 0.24792(12) 0.0609(3) 0.12900(12)
Zn2A Zn 0.634066(15) 0.85597(3) 0.325754(13)
O8A O 0.34004(9) 0.4311(2) 0.25666(8)
loop_
_geom_bond_atom_site_label_1
_geom_bond_atom_site_label_2
_geom_bond_site_symmetry_1
_geom_bond_site_symmetry_2
Zn1 S1 1_555 1_555
Zn2 S3 1_555 1_555
S1 C12 1_555 1_555
S2 Zn1 1_555 1_555
S3 C23 1_555 1_555
S4 Zn2 1_555 1_555
O1 C1 1_555 1_555
O2 Zn1 1_555 1_555
O3 C10 1_555 1_555
O4 C10 1_555 1_555
O5 C13 1_555 1_555
O6 Zn2 1_555 1_555
O7 C22 1_555 1_555
O8 C22 1_555 1_555
N1 H1 1_555 1_555
H2 N1 1_555 1_555
N2 H3 1_555 1_555
H4 N2 1_555 1_555
N3 H5 1_555 1_555
H6 N3 1_555 1_555
N4 H7 1_555 1_555
H8 N4 1_555 1_555
N5 H9 1_555 1_555
H10 N5 1_555 1_555
N6 H11 1_555 1_555
H12 N6 1_555 1_555
N7 H13 1_555 1_555
H14 N7 1_555 1_555
N8 H15 1_555 1_555
H16 N8 1_555 1_555
C1 O2 1_555 1_555
C2 C1 1_555 1_555
H17 C2 1_555 1_555
H18 C2 1_555 1_555
C3 C2 1_555 1_555
C4 C3 1_555 1_555
H19 C4 1_555 1_555
C5 C4 1_555 1_555
H20 C5 1_555 1_555
C6 C5 1_555 1_555
H21 C6 1_555 1_555
C7 C6 1_555 1_555
C8 C3 1_555 1_555
H22 C8 1_555 1_555
C9 C7 1_555 1_555
H23 C9 1_555 1_555
H24 C9 1_555 1_555
C10 C9 1_555 1_555
C11 S2 1_555 1_555
C12 N1 1_555 1_555
C13 O6 1_555 1_555
C14 C13 1_555 1_555
H25 C14 1_555 1_555
H26 C14 1_555 1_555
C15 C14 1_555 1_555
C16 C15 1_555 1_555
H27 C16 1_555 1_555
C17 C16 1_555 1_555
C18 C17 1_555 1_555
H28 C18 1_555 1_555
C19 C18 1_555 1_555
H29 C19 1_555 1_555
C20 C15 1_555 1_555
H30 C20 1_555 1_555
C21 C17 1_555 1_555
H31 C21 1_555 1_555
H32 C21 1_555 1_555
C22 C21 1_555 1_555
C23 N5 1_555 1_555
C24 S4 1_555 1_555
Zn1A O4 1_555 1_555
Zn2A O8 1_555 1_555
O4A Zn1 1_555 1_555
O8A Zn2 1_555 1_555
N2 C12 1_555 1_555
N3 C11 1_555 1_555
N4 C11 1_555 1_555
N6 C23 1_555 1_555
N7 C24 1_555 1_555
N8 C24 1_555 1_555
C7 C8 1_555 1_555
C19 C20 1_555 1_555

#END
