
#######################################################################
#
#                 Cambridge Crystallographic Data Centre
#                                CCDC 
#
#######################################################################
#
# If this CIF has been generated from an entry in the Cambridge 
# Structural Database, then it will include bibliographic, chemical, 
# crystal, experimental, refinement or atomic coordinate data resulting 
# from the CCDC's data processing and validation procedures.
#
#######################################################################

data_FELXEA
_symmetry_cell_setting           orthorhombic
_symmetry_space_group_name_H-M   'P 21 21 21'
_symmetry_Int_Tables_number      19
_space_group_name_Hall           'P 2ac 2ab'
loop_
_symmetry_equiv_pos_site_id
_symmetry_equiv_pos_as_xyz
1 x,y,z
2 1/2-x,-y,1/2+z
3 1/2+x,1/2-y,-z
4 -x,1/2+y,1/2-z
_cell_length_a                   8.3080(10)
_cell_length_b                   11.2380(10)
_cell_length_c                   13.5350(10)
_cell_angle_alpha                90
_cell_angle_beta                 90
_cell_angle_gamma                90
_cell_volume                     1263.7
loop_
_atom_site_label
_atom_site_type_symbol
_atom_site_fract_x
_atom_site_fract_y
_atom_site_fract_z
Zn1 Zn 0.24828(6) 0.07421(5) 0.16711(4)
S1 S 0.03986(15) -0.05050(11) 0.21098(11)
S2 S 0.1834(2) 0.24653(13) 0.08053(10)
O1 O 0.4140(4) 0.0870(3) 0.2737(2)
O2 O 0.2412(4) 0.2220(3) 0.3255(2)
O3 O 0.6134(5) 0.4763(3) 0.4225(2)
O4 O 0.6289(5) 0.3261(3) 0.3164(3)
N1 N -0.1131(6) 0.1436(4) 0.2745(3)
H1 H -0.1975 0.1824 0.2922
H2 H -0.0202 0.1771 0.2767
N2 N -0.2666(5) -0.0190(4) 0.2402(3)
H3 H -0.3515 0.0193 0.2579
H4 H -0.2743 -0.0913 0.2202
N3 N 0.2373(9) 0.1116(4) -0.0772(3)
H5 H 0.2338 0.0982 -0.1398
H6 H 0.2813 0.0605 -0.0383
N4 N 0.1084(7) 0.2871(6) -0.1028(4)
H7 H 0.1058 0.2726 -0.1652
H8 H 0.0674 0.3519 -0.0803
C1 C -0.1262(6) 0.0327(4) 0.2438(3)
C2 C 0.1758(6) 0.2095(5) -0.0413(4)
C3 C 0.3647(5) 0.1612(4) 0.3379(3)
C4 C 0.4582(7) 0.1698(4) 0.4334(3)
H9 H 0.5621 0.1320 0.4248
H10 H 0.4007 0.1267 0.4846
C5 C 0.5831(6) 0.3700(4) 0.3955(3)
C6 C 0.4837(7) 0.2974(5) 0.4671(3)
H11 H 0.3796 0.3353 0.4754
H12 H 0.5368 0.2969 0.5309
Zn1C Zn 0.75172(6) 0.57421(5) 0.33289(4)
O3C O 0.3866(5) -0.0237(3) 0.0775(2)
loop_
_geom_bond_atom_site_label_1
_geom_bond_atom_site_label_2
_geom_bond_site_symmetry_1
_geom_bond_site_symmetry_2
Zn1 S1 1_555 1_555
S1 C1 1_555 1_555
S2 Zn1 1_555 1_555
O1 Zn1 1_555 1_555
O2 C3 1_555 1_555
O3 C5 1_555 1_555
O4 C5 1_555 1_555
N1 H1 1_555 1_555
H2 N1 1_555 1_555
N2 H3 1_555 1_555
H4 N2 1_555 1_555
N3 H5 1_555 1_555
H6 N3 1_555 1_555
N4 H7 1_555 1_555
H8 N4 1_555 1_555
C1 N1 1_555 1_555
C2 S2 1_555 1_555
C3 O1 1_555 1_555
C4 C3 1_555 1_555
H9 C4 1_555 1_555
H10 C4 1_555 1_555
C5 C6 1_555 1_555
C6 C4 1_555 1_555
H11 C6 1_555 1_555
H12 C6 1_555 1_555
Zn1C O3 1_555 1_555
O3C Zn1 1_555 1_555
N2 C1 1_555 1_555
N3 C2 1_555 1_555
N4 C2 1_555 1_555

#END
