
#######################################################################
#
#                 Cambridge Crystallographic Data Centre
#                                CCDC 
#
#######################################################################
#
# If this CIF has been generated from an entry in the Cambridge 
# Structural Database, then it will include bibliographic, chemical, 
# crystal, experimental, refinement or atomic coordinate data resulting 
# from the CCDC's data processing and validation procedures.
#
#######################################################################

data_FELXEB
_symmetry_cell_setting           triclinic
_symmetry_space_group_name_H-M   'P -1'
_symmetry_Int_Tables_number      2
_space_group_name_Hall           '-P 1'
loop_
_symmetry_equiv_pos_site_id
_symmetry_equiv_pos_as_xyz
1 x,y,z
2 -x,-y,-z
_cell_length_a                   6.2073(11)
_cell_length_b                   10.5477(19)
_cell_length_c                   11.406(2)
_cell_angle_alpha                67.647(12)
_cell_angle_beta                 87.400(13)
_cell_angle_gamma                79.832(12)
_cell_volume                     679.626
loop_
_atom_site_label
_atom_site_type_symbol
_atom_site_fract_x
_atom_site_fract_y
_atom_site_fract_z
Zn1 Zn 0.25130(6) 0.45393(4) -0.02596(4)
O1 O 0.0566(4) 0.4601(2) 0.1243(3)
N1 N 0.3976(5) 0.3789(3) -0.1687(3)
N2 N 0.2005(4) 0.2443(3) 0.0413(3)
N3 N 0.4051(5) 0.6279(3) -0.0868(3)
N4 N 0.3426(5) 0.7500(3) -0.1345(4)
N5 N 0.2961(6) 0.8697(4) -0.1788(5)
C1 C 0.5110(6) 0.4495(4) -0.2674(4)
H1 H 0.5329 0.5376 -0.2762
C2 C 0.5952(7) 0.3974(4) -0.3550(4)
H2 H 0.6775 0.4480 -0.4208
C3 C 0.5575(7) 0.2687(4) -0.3458(4)
H3 H 0.6094 0.2331 -0.4067
C4 C 0.4429(6) 0.1948(4) -0.2457(4)
H4 H 0.4191 0.1068 -0.2361
C5 C 0.3617(6) 0.2534(4) -0.1578(4)
C6 C 0.2243(6) 0.1780(4) -0.0520(4)
H5 H 0.2953 0.0807 -0.0112
C7 C -0.0031(6) 0.1842(4) -0.1021(4)
H6 H -0.0889 0.1346 -0.0333
H7 H 0.0105 0.1424 -0.1642
H8 H -0.0738 0.2795 -0.1404
C8 C 0.1917(6) 0.1680(4) 0.1587(4)
H9 H 0.2076 0.0723 0.1808
C9 C 0.1584(6) 0.2209(4) 0.2606(4)
C10 C 0.1871(8) 0.1209(4) 0.3863(4)
H10 H 0.2328 0.0277 0.3991
C11 C 0.1497(8) 0.1572(5) 0.4894(5)
H11 H 0.1732 0.0906 0.5714
C12 C 0.0752(7) 0.2975(5) 0.4678(4)
H12 H 0.0498 0.3246 0.5366
C13 C 0.0396(6) 0.3944(4) 0.3487(4)
H13 H -0.0161 0.4861 0.3379
C14 C 0.0836(5) 0.3615(4) 0.2407(3)
Zn1A Zn -0.25130(6) 0.54607(4) 0.02596(4)
Zn1A_2 Zn 0.74870(6) 0.54607(4) 0.02596(4)
O1A O -0.0566(4) 0.5399(2) -0.1243(3)
N3A N 0.5949(5) 0.3721(3) 0.0868(3)
loop_
_geom_bond_atom_site_label_1
_geom_bond_atom_site_label_2
_geom_bond_site_symmetry_1
_geom_bond_site_symmetry_2
Zn1 O1 1_555 1_555
O1 C14 1_555 1_555
N1 Zn1 1_555 1_555
N2 Zn1 1_555 1_555
N3 Zn1 1_555 1_555
N4 N3 1_555 1_555
N5 N4 1_555 1_555
C1 N1 1_555 1_555
H1 C1 1_555 1_555
C2 C1 1_555 1_555
H2 C2 1_555 1_555
C3 C2 1_555 1_555
H3 C3 1_555 1_555
C4 C3 1_555 1_555
H4 C4 1_555 1_555
C5 N1 1_555 1_555
C6 N2 1_555 1_555
H5 C6 1_555 1_555
C7 C6 1_555 1_555
H6 C7 1_555 1_555
H7 C7 1_555 1_555
H8 C7 1_555 1_555
C8 N2 1_555 1_555
H9 C8 1_555 1_555
C9 C8 1_555 1_555
C10 C9 1_555 1_555
H10 C10 1_555 1_555
C11 C10 1_555 1_555
H11 C11 1_555 1_555
C12 C11 1_555 1_555
H12 C12 1_555 1_555
C13 C12 1_555 1_555
H13 C13 1_555 1_555
C14 C9 1_555 1_555
Zn1A O1 1_555 1_555
Zn1A_2 N3 1_555 1_555
O1A Zn1 1_555 1_555
N3A Zn1 1_555 1_555
C4 C5 1_555 1_555
C5 C6 1_555 1_555
C13 C14 1_555 1_555
Zn1A O1A 1_555 1_555
Zn1A_2 N3A 1_555 1_555

#END
