
#######################################################################
#
#                 Cambridge Crystallographic Data Centre
#                                CCDC 
#
#######################################################################
#
# If this CIF has been generated from an entry in the Cambridge 
# Structural Database, then it will include bibliographic, chemical, 
# crystal, experimental, refinement or atomic coordinate data resulting 
# from the CCDC's data processing and validation procedures.
#
#######################################################################

data_FELYAX
_symmetry_cell_setting           triclinic
_symmetry_space_group_name_H-M   'P -1'
_symmetry_Int_Tables_number      2
_space_group_name_Hall           '-P 1'
loop_
_symmetry_equiv_pos_site_id
_symmetry_equiv_pos_as_xyz
1 x,y,z
2 -x,-y,-z
_cell_length_a                   7.1377(6)
_cell_length_b                   8.6160(10)
_cell_length_c                   12.658(5)
_cell_angle_alpha                102.420(10)
_cell_angle_beta                 91.176(9)
_cell_angle_gamma                92.661(8)
_cell_volume                     759.038
loop_
_atom_site_label
_atom_site_type_symbol
_atom_site_fract_x
_atom_site_fract_y
_atom_site_fract_z
O5 O 0.4233(6) 0.9804(5) 0.6754(3)
H1 H 0.484(6) 0.961(8) 0.733(3)
H2 H 0.2993(11) 0.982(8) 0.680(4)
O6 O -0.0338(10) -0.0963(6) 0.0883(5)
Zn1 Zn 0.19337(7) 0.31397(5) 0.26053(4)
S1 S 0.39200(17) 0.54298(13) 0.30166(9)
S2 S -0.11164(16) 0.33979(14) 0.20238(10)
O1 O 0.1718(4) 0.2451(4) 0.4000(2)
O2 O -0.0311(6) 0.0606(4) 0.3120(3)
O3 O 0.3359(5) 0.1408(3) 0.1709(3)
O4 O 0.3677(5) 0.3203(4) 0.0726(3)
N1 N 0.4252(6) 0.7909(5) 0.4605(4)
H3 H 0.4146 0.8448 0.5274
H4 H 0.4784 0.8370 0.4122
N2 N 0.2819(6) 0.5731(5) 0.5049(3)
H5 H 0.2713 0.6269 0.5718
H6 H 0.2393 0.4732 0.4862
N3 N 0.0277(8) 0.5949(6) 0.1364(5)
H7 H 0.0172 0.6748 0.1039
H8 H 0.1371 0.5774 0.1638
N4 N -0.2758(7) 0.5334(7) 0.1025(5)
H9 H -0.2816 0.6142 0.0705
H10 H -0.3773 0.4731 0.1063
C1 C 0.3616(6) 0.6422(5) 0.4327(3)
C2 C -0.1176(7) 0.5031(6) 0.1440(4)
C3 C 0.0563(6) 0.1269(5) 0.3953(4)
C4 C 0.0290(6) 0.0753(6) 0.5010(4)
C5 C 0.3931(6) 0.1860(6) 0.0872(3)
C6 C 0.4974(8) 0.0775(7) 0.0016(4)
C7 C 0.5948(16) 0.1840(12) -0.0813(9)
H11 H 0.6942 0.1245 -0.1214
H12 H 0.6484 0.2855 -0.0385
H13 H 0.4987 0.2044 -0.1323
C8 C 0.0809(13) 0.2210(11) 0.6069(7)
H14 H 0.0181 0.1981 0.6704
H15 H 0.0384 0.3212 0.5925
H16 H 0.2170 0.2303 0.6208
C4A C -0.0290(6) -0.0753(6) 0.4990(4)
C6A C 0.5026(8) -0.0775(7) -0.0016(4)
loop_
_geom_bond_atom_site_label_1
_geom_bond_atom_site_label_2
_geom_bond_site_symmetry_1
_geom_bond_site_symmetry_2
Zn1 S1 1_555 1_555
S1 C1 1_555 1_555
S2 Zn1 1_555 1_555
O1 Zn1 1_555 1_555
O2 C3 1_555 1_555
O3 Zn1 1_555 1_555
O4 C5 1_555 1_555
O5 H1 1_555 1_555
H2 O5 1_555 1_555
N1 H3 1_555 1_555
H4 N1 1_555 1_555
N2 H5 1_555 1_555
H6 N2 1_555 1_555
N3 H7 1_555 1_555
H8 N3 1_555 1_555
N4 H9 1_555 1_555
H10 N4 1_555 1_555
C1 N1 1_555 1_555
C2 S2 1_555 1_555
C3 O1 1_555 1_555
C4 C3 1_555 1_555
C5 O3 1_555 1_555
C6 C5 1_555 1_555
C7 C6 1_555 1_555
H11 C7 1_555 1_555
H12 C7 1_555 1_555
H13 C7 1_555 1_555
C8 C4 1_555 1_555
H14 C8 1_555 1_555
H15 C8 1_555 1_555
H16 C8 1_555 1_555
C4A C4 1_555 1_555
C6A C6 1_555 1_555
N2 C1 1_555 1_555
N3 C2 1_555 1_555
N4 C2 1_555 1_555

#END
