
#######################################################################
#
#                 Cambridge Crystallographic Data Centre
#                                CCDC 
#
#######################################################################
#
# If this CIF has been generated from an entry in the Cambridge 
# Structural Database, then it will include bibliographic, chemical, 
# crystal, experimental, refinement or atomic coordinate data resulting 
# from the CCDC's data processing and validation procedures.
#
#######################################################################

data_FELYEB
_symmetry_cell_setting           triclinic
_symmetry_space_group_name_H-M   'P -1'
_symmetry_Int_Tables_number      2
_space_group_name_Hall           '-P 1'
loop_
_symmetry_equiv_pos_site_id
_symmetry_equiv_pos_as_xyz
1 x,y,z
2 -x,-y,-z
_cell_length_a                   7.7910(2)
_cell_length_b                   8.5230(2)
_cell_length_c                   10.9450(2)
_cell_angle_alpha                91.1050(10)
_cell_angle_beta                 102.6020(10)
_cell_angle_gamma                97.9490(10)
_cell_volume                     701.534
loop_
_atom_site_label
_atom_site_type_symbol
_atom_site_fract_x
_atom_site_fract_y
_atom_site_fract_z
Zn1 Zn 0.41578(7) 0.85777(6) 0.27366(5)
S1 S 0.30287(18) 1.08249(14) 0.19141(11)
S2 S 0.18079(15) 0.69953(14) 0.33458(11)
O1 O 0.4605(5) 0.7290(4) 0.1345(3)
O2 O 0.5911(5) 0.5698(4) 0.2732(3)
O3 O 0.6127(4) 0.9045(4) 0.4215(3)
O4 O 0.7809(5) 0.9984(5) 0.2919(3)
N1 N 0.1622(6) 1.1642(5) -0.0345(4)
H1 H 0.1338 1.1555 -0.1170
H2 H 0.1338 1.2440 0.0054
N2 N 0.2894(6) 0.9376(5) -0.0314(4)
H3 H 0.2603 0.9303 -0.1138
H4 H 0.3461 0.8657 0.0101
N3 N 0.4169(8) 0.6656(6) 0.5449(5)
H5 H 0.4581 0.6151 0.6120
H6 H 0.4708 0.7600 0.5332
N4 N 0.1931(10) 0.4583(7) 0.4793(5)
H7 H 0.2341 0.4076 0.5463
H8 H 0.0980 0.4146 0.4239
C1 C 0.2481(6) 1.0563(6) 0.0300(4)
C2 C 0.2741(9) 0.5997(7) 0.4619(5)
C3 C 0.5297(6) 0.6042(6) 0.1638(4)
C4 C 0.5356(7) 0.4916(6) 0.0591(5)
H9 H 0.5946 0.4020 0.0795
C5 C 0.7616(6) 0.9603(5) 0.3981(4)
C6 C 0.9178(6) 0.9765(6) 0.5067(4)
H10 H 0.8992 0.9524 0.5876
Zn1A Zn 0.58422(7) 0.14223(6) -0.27366(5)
Zn1A_2 Zn 1.58422(7) 1.14223(6) 0.72634(5)
S1A S 0.69713(18) -0.08249(14) -0.19141(11)
S2A S 0.81921(15) 0.30047(14) -0.33458(11)
O1A O 0.5395(5) 0.2710(4) -0.1345(3)
O2A O 0.4089(5) 0.4302(4) -0.2732(3)
O3A O 1.3873(4) 1.0955(4) 0.5785(3)
O3A_2 O 0.3873(4) 0.0955(4) -0.4215(3)
O4A O 1.2191(5) 1.0016(5) 0.7081(3)
N1A N 0.8378(6) -0.1642(5) 0.0345(4)
H1A H 0.8662 -0.1555 0.1170
H2A H 0.8662 -0.2440 -0.0054
N2A N 0.7106(6) 0.0624(5) 0.0314(4)
H3A H 0.7397 0.0697 0.1138
H4A H 0.6539 0.1343 -0.0101
N3A N 0.5831(8) 0.3344(6) -0.5449(5)
H5A H 0.5419 0.3849 -0.6120
H6A H 0.5292 0.2400 -0.5332
N4A N 0.8069(10) 0.5417(7) -0.4793(5)
H7A H 0.7659 0.5924 -0.5463
H8A H 0.9020 0.5854 -0.4239
C1A C 0.7519(6) -0.0563(6) -0.0300(4)
C2A C 0.7259(9) 0.4003(7) -0.4619(5)
C3A C 0.4703(6) 0.3958(6) -0.1638(4)
C4A C 0.4644(7) 0.5084(6) -0.0591(5)
H9A H 0.4054 0.5980 -0.0795
C5A C 1.2384(6) 1.0397(5) 0.6019(4)
C6A C 1.0822(6) 1.0235(6) 0.4933(4)
H10A H 1.1008 1.0476 0.4124
O5 O 0.0710(5) 1.4221(5) 0.1023(4)
O6 O -0.1170(9) 0.3300(7) 0.2843(4)
H11 H -0.210(9) 0.262(10) 0.293(10)
H12 H -0.053(18) 0.33(2) 0.226(11)
loop_
_geom_bond_atom_site_label_1
_geom_bond_atom_site_label_2
_geom_bond_site_symmetry_1
_geom_bond_site_symmetry_2
Zn1 S1 1_555 1_555
S1 C1 1_555 1_555
S2 Zn1 1_555 1_555
O1 Zn1 1_555 1_555
O2 C3 1_555 1_555
O3 Zn1 1_555 1_555
O4 C5 1_555 1_555
O6 H11 1_555 1_555
N1 H1 1_555 1_555
H2 N1 1_555 1_555
N2 H3 1_555 1_555
H4 N2 1_555 1_555
N3 H5 1_555 1_555
H6 N3 1_555 1_555
N4 H7 1_555 1_555
H8 N4 1_555 1_555
C1 N1 1_555 1_555
C2 S2 1_555 1_555
C3 O1 1_555 1_555
C4 C3 1_555 1_555
H9 C4 1_555 1_555
C5 O3 1_555 1_555
C6 C5 1_555 1_555
H10 C6 1_555 1_555
H12 O6 1_555 1_555
Zn1A S1A 1_555 1_555
Zn1A_2 O3A 1_555 1_555
S1A C1A 1_555 1_555
S2A Zn1A 1_555 1_555
O1A Zn1A 1_555 1_555
O2A C3A 1_555 1_555
O3A C5A 1_555 1_555
O3A_2 Zn1A 1_555 1_555
O4A C5A 1_555 1_555
N1A H1A 1_555 1_555
H2A N1A 1_555 1_555
N2A H3A 1_555 1_555
H4A N2A 1_555 1_555
N3A H5A 1_555 1_555
H6A N3A 1_555 1_555
N4A H7A 1_555 1_555
H8A N4A 1_555 1_555
C1A N1A 1_555 1_555
C2A S2A 1_555 1_555
C3A O1A 1_555 1_555
C4A C4 1_555 1_555
H9A C4A 1_555 1_555
C5A C6A 1_555 1_555
C6A C6 1_555 1_555
H10A C6A 1_555 1_555
N2 C1 1_555 1_555
N3 C2 1_555 1_555
N4 C2 1_555 1_555
N2A C1A 1_555 1_555
N3A C2A 1_555 1_555
N4A C2A 1_555 1_555
C3A C4A 1_555 1_555

#END
