
#######################################################################
#
#                 Cambridge Crystallographic Data Centre
#                                CCDC 
#
#######################################################################
#
# If this CIF has been generated from an entry in the Cambridge 
# Structural Database, then it will include bibliographic, chemical, 
# crystal, experimental, refinement or atomic coordinate data resulting 
# from the CCDC's data processing and validation procedures.
#
#######################################################################

data_FELYEC
_symmetry_cell_setting           monoclinic
_symmetry_space_group_name_H-M   'P 21/c'
_symmetry_Int_Tables_number      14
_space_group_name_Hall           '-P 2ybc'
loop_
_symmetry_equiv_pos_site_id
_symmetry_equiv_pos_as_xyz
1 x,y,z
2 -x,1/2+y,1/2-z
3 -x,-y,-z
4 x,1/2-y,1/2+z
_cell_length_a                   18.322(3)
_cell_length_b                   7.4425(10)
_cell_length_c                   23.236(4)
_cell_angle_alpha                90
_cell_angle_beta                 111.293(2)
_cell_angle_gamma                90
_cell_volume                     2952.2
loop_
_atom_site_label
_atom_site_type_symbol
_atom_site_fract_x
_atom_site_fract_y
_atom_site_fract_z
Cu1 Cu 0.292445(14) 0.64965(3) 0.339939(11)
Cu2 Cu 0.291553(14) 0.62911(3) 0.189322(11)
O1 O 0.28702(9) 0.7195(2) 0.10787(7)
O2 O 0.28593(8) 0.7663(2) 0.41539(7)
O3 O 0.32362(9) 0.8803(2) 0.31873(7)
O4 O 0.44777(9) 0.9423(2) 0.42919(7)
O5 O 0.26773(9) 0.5513(2) 0.25900(7)
O6 O 0.33842(9) 0.8536(2) 0.22591(7)
O7 O 0.40850(8) 0.5469(2) 0.40490(7)
N1 N 0.24364(10) 0.3866(2) 0.14881(8)
O8 O 0.45472(9) 0.3012(2) 0.46217(7)
O9 O 0.38292(10) 0.5274(2) 0.55262(8)
O10 O 0.36396(10) 1.0027(2) 0.54100(8)
C1 C 0.25317(12) 0.3628(3) 0.25649(9)
H1 H 0.3028 0.2965 0.2696
O11 O 0.39719(9) 1.0696(2) 0.29031(7)
N2 N 0.25419(10) 0.4090(2) 0.36073(8)
O12 O 0.22064(9) 0.9712(2) 0.44759(7)
O13 O 0.40053(9) 0.4884(2) 0.20172(7)
O14 O 0.44417(9) 0.2376(2) 0.17321(7)
C2 C 0.13669(12) 0.5655(3) 0.36866(10)
C3 C 0.21015(12) 0.3236(3) 0.29990(9)
H2 H 0.1574 0.3718 0.2830
H3 H 0.2067 0.1949 0.3050
C4 C 0.40137(12) 0.3915(3) 0.42339(9)
C5 C 0.32269(12) 0.2939(3) 0.39620(10)
H4 H 0.3277 0.1994 0.3691
H5 H 0.3117 0.2369 0.4297
C6 C 0.39035(12) 0.3356(3) 0.17629(9)
O15 O 0.22795(9) 0.9276(2) 0.03727(7)
C7 C 0.12837(12) 0.5640(3) 0.07869(9)
C8 C 0.22270(12) 0.8379(3) 0.41592(9)
C9 C 0.30707(12) 0.2622(3) 0.14750(10)
H6 H 0.2974 0.2307 0.1048
H7 H 0.3037 0.1525 0.1689
C10 C 0.20243(12) 0.4333(3) 0.39776(9)
H8 H 0.2340 0.4751 0.4388
H9 H 0.1802 0.3180 0.4020
C11 C 0.35322(12) 0.9326(3) 0.27858(10)
C12 C 0.14640(12) 0.7520(3) 0.37632(9)
C13 C 0.20373(12) 0.3166(3) 0.18989(9)
H10 H 0.1974 0.1874 0.1852
H11 H 0.1522 0.3704 0.1787
C14 C 0.22595(13) 0.8028(3) 0.07214(10)
C15 C 0.14685(13) 0.7451(3) 0.07256(9)
C16 C 0.18560(12) 0.4129(3) 0.08430(9)
H12 H 0.1565 0.3022 0.0705
H13 H 0.2139 0.4373 0.0571
C17 C 0.01572(14) 0.8348(3) 0.06191(10)
H14 H -0.0212 0.9248 0.0571
C18 C 0.08292(13) 0.8668(3) 0.34850(10)
H15 H 0.0898 0.9904 0.3535
C19 C 0.05255(13) 0.5238(3) 0.07534(10)
H16 H 0.0390 0.4048 0.0785
C20 C 0.09018(14) 0.8776(3) 0.06375(10)
H17 H 0.1025 0.9966 0.0590
C21 C 0.01000(13) 0.7988(4) 0.31357(11)
H18 H -0.0315 0.8765 0.2945
C22 C 0.06170(13) 0.5003(3) 0.33451(10)
H19 H 0.0537 0.3769 0.3300
C23 C -0.00097(13) 0.6152(4) 0.30717(11)
H20 H -0.0502 0.5688 0.2846
C24 C -0.00325(13) 0.6579(4) 0.06731(10)
H21 H -0.0533 0.6281 0.0656
Na1 Na 0.41169(5) 0.74979(12) 0.49230(4)
Na2 Na 0.45813(5) 0.26282(12) 0.57053(4)
Na3 Na 0.46722(5) 0.97127(12) 0.22905(4)
O16 O 0.47074(10) 0.7640(2) 0.15557(8)
H22 H 0.4127(18) 0.937(4) 0.3989(15)
H23 H 0.4517(17) 1.044(5) 0.4409(14)
H24 H 0.3274(19) 0.996(4) 0.5137(15)
H25 H 0.4064(18) 0.570(4) 0.5821(15)
H26 H 0.5112(19) 0.721(4) 0.1646(14)
H27 H 0.4430(18) 0.687(4) 0.1625(14)
H28 H 0.3367(19) 0.534(4) 0.5498(14)
H29 H 0.3559(18) 0.948(4) 0.5655(15)
O4B O 0.55223(9) 0.0577(2) 0.57081(7)
O8B O 0.54528(9) 0.6988(2) 0.53783(7)
O10_2 O 0.36396(10) 0.0027(2) 0.54100(8)
O13A O 0.59947(9) 0.9884(2) 0.29828(7)
O14C O 0.44417(9) 0.2624(2) 0.67321(7)
O14_2 O 0.44417(9) 1.2376(2) 0.17321(7)
Na1B Na 0.58831(5) 0.25021(12) 0.50770(4)
Na2B Na 0.54187(5) 0.73718(12) 0.42947(4)
Na2_2 Na 0.45813(5) 1.26282(12) 0.57053(4)
Na2C Na 0.45813(5) 0.23718(12) 0.07053(4)
Na3A Na 0.53278(5) 0.47127(12) 0.27095(4)
Na3_2 Na 0.46722(5) -0.02873(12) 0.22905(4)
H22B H 0.5873(18) 0.063(4) 0.6011(15)
H23B H 0.5483(17) -0.044(5) 0.5591(14)
H24_2 H 0.3274(19) -0.004(4) 0.5137(15)
H29_2 H 0.3559(18) -0.052(4) 0.5655(15)
O17 O -0.1181(6) 0.2609(18) 0.2820(4)
loop_
_geom_bond_atom_site_label_1
_geom_bond_atom_site_label_2
_geom_bond_site_symmetry_1
_geom_bond_site_symmetry_2
Cu1 O2 1_555 1_555
Cu2 O1 1_555 1_555
O1 C14 1_555 1_555
O2 C8 1_555 1_555
O3 Cu1 1_555 1_555
O4 Na1 1_555 1_555
O5 Cu1 1_555 1_555
O6 Cu2 1_555 1_555
O7 Cu1 1_555 1_555
N1 Cu2 1_555 1_555
O8 C4 1_555 1_555
O9 Na1 1_555 1_555
O10 Na1 1_555 1_555
C1 O5 1_555 1_555
H1 C1 1_555 1_555
O11 C11 1_555 1_555
N2 Cu1 1_555 1_555
O12 C8 1_555 1_555
O13 Cu2 1_555 1_555
O14 C6 1_555 1_555
C2 C10 1_555 1_555
C3 C1 1_555 1_555
H2 C3 1_555 1_555
H3 C3 1_555 1_555
C4 O7 1_555 1_555
C5 N2 1_555 1_555
H4 C5 1_555 1_555
H5 C5 1_555 1_555
C6 O13 1_555 1_555
O15 C14 1_555 1_555
C7 C15 1_555 1_555
C8 C12 1_555 1_555
C9 N1 1_555 1_555
H6 C9 1_555 1_555
H7 C9 1_555 1_555
C10 N2 1_555 1_555
H8 C10 1_555 1_555
H9 C10 1_555 1_555
C11 O3 1_555 1_555
C12 C2 1_555 1_555
C13 N1 1_555 1_555
H10 C13 1_555 1_555
H11 C13 1_555 1_555
C14 C15 1_555 1_555
C15 C20 1_555 1_555
C16 N1 1_555 1_555
H12 C16 1_555 1_555
H13 C16 1_555 1_555
C17 H14 1_555 1_555
C18 C12 1_555 1_555
H15 C18 1_555 1_555
C19 C7 1_555 1_555
H16 C19 1_555 1_555
C20 C17 1_555 1_555
H17 C20 1_555 1_555
C21 C18 1_555 1_555
H18 C21 1_555 1_555
C22 C2 1_555 1_555
H19 C22 1_555 1_555
C23 C21 1_555 1_555
H20 C23 1_555 1_555
C24 C17 1_555 1_555
H21 C24 1_555 1_555
Na1 O2 1_555 1_555
Na2 O8 1_555 1_555
Na3 O6 1_555 1_555
O16 Na3 1_555 1_555
H22 O4 1_555 1_555
H23 O4 1_555 1_555
H24 O10 1_555 1_555
H25 O9 1_555 1_555
H26 O16 1_555 1_555
H27 O16 1_555 1_555
H28 O9 1_555 1_555
H29 O10 1_555 1_555
O4B Na2 1_555 1_555
O8B Na1 1_555 1_555
O10_2 Na2 1_555 1_555
O13A Na3 1_555 1_555
O14C Na2 1_555 1_555
O14_2 Na3 1_555 1_555
Na1B O8 1_555 1_555
Na2B O4 1_555 1_555
Na2_2 O10 1_555 1_555
Na2C O14 1_555 1_555
Na3A O13 1_555 1_555
Na3_2 O14 1_555 1_555
H22B O4B 1_555 1_555
H23B O4B 1_555 1_555
H24_2 O10_2 1_555 1_555
H29_2 O10_2 1_555 1_555
Cu2 O5 1_555 1_555
O6 C11 1_555 1_555
O7 Na1 1_555 1_555
O9 Na2 1_555 1_555
C1 C13 1_555 1_555
O11 Na3 1_555 1_555
N2 C3 1_555 1_555
C4 C5 1_555 1_555
C6 C9 1_555 1_555
C7 C16 1_555 1_555
C19 C24 1_555 1_555
C22 C23 1_555 1_555
O4B Na1B 1_555 1_555
O8B Na2B 1_555 1_555

#END
