
#######################################################################
#
#                 Cambridge Crystallographic Data Centre
#                                CCDC 
#
#######################################################################
#
# If this CIF has been generated from an entry in the Cambridge 
# Structural Database, then it will include bibliographic, chemical, 
# crystal, experimental, refinement or atomic coordinate data resulting 
# from the CCDC's data processing and validation procedures.
#
#######################################################################

data_FELZOM
_symmetry_cell_setting           monoclinic
_symmetry_space_group_name_H-M   'P 21/c'
_symmetry_Int_Tables_number      14
_space_group_name_Hall           '-P 2ybc'
loop_
_symmetry_equiv_pos_site_id
_symmetry_equiv_pos_as_xyz
1 x,y,z
2 -x,1/2+y,1/2-z
3 -x,-y,-z
4 x,1/2-y,1/2+z
_cell_length_a                   5.6038(10)
_cell_length_b                   18.304(3)
_cell_length_c                   9.9544(17)
_cell_angle_alpha                90
_cell_angle_beta                 98.199(3)
_cell_angle_gamma                90
_cell_volume                     1010.61
loop_
_atom_site_label
_atom_site_type_symbol
_atom_site_fract_x
_atom_site_fract_y
_atom_site_fract_z
Zn1 Zn 0.29054(4) -0.153535(13) -0.29880(3)
C1 C 0.5643(4) 0.04219(11) -0.3074(2)
C2 C 0.6507(4) 0.10092(11) -0.3754(2)
H1 H 0.7795 0.0940 -0.4267
C3 C 0.5478(4) 0.16976(11) -0.3682(2)
C4 C 0.3564(4) 0.17955(12) -0.2951(2)
H2 H 0.2828 0.2262 -0.2925
C5 C 0.2730(4) 0.12119(12) -0.2260(2)
H3 H 0.1435 0.1280 -0.1753
C6 C 0.3790(4) 0.05264(11) -0.2310(2)
H4 H 0.3241 0.0130 -0.1820
C7 C 0.6879(4) -0.02846(11) -0.3121(2)
C8 C 0.6535(4) 0.23135(11) -0.4339(2)
N1 N 0.5942(3) -0.09597(9) -0.30011(18)
N2 N 0.7765(3) -0.14319(10) -0.30546(19)
N3 N 0.9675(3) -0.10465(10) -0.32077(19)
N4 N 0.9193(3) -0.03283(10) -0.32636(19)
N5 N 0.7309(3) 0.22785(9) -0.55460(18)
N6 N 0.8299(3) 0.29429(10) -0.57580(19)
N7 N 0.8132(4) 0.33591(10) -0.4723(2)
N8 N 0.7016(3) 0.29755(10) -0.38063(18)
Zn1_2 Zn 1.29054(4) -0.153535(13) -0.29880(3)
Zn1B Zn 0.70946(4) 0.153535(13) -0.70120(3)
Zn1A Zn 0.70946(4) 0.346465(13) -0.20120(3)
N3_2 N -0.0325(3) -0.10465(10) -0.32077(19)
N5B N 0.2691(3) -0.22785(9) -0.44540(18)
N8A N 0.2984(3) -0.20245(10) -0.11937(18)
loop_
_geom_bond_atom_site_label_1
_geom_bond_atom_site_label_2
_geom_bond_site_symmetry_1
_geom_bond_site_symmetry_2
Zn1 N1 1_555 1_555
C1 C2 1_555 1_555
C2 H1 1_555 1_555
C3 C2 1_555 1_555
C4 C3 1_555 1_555
H2 C4 1_555 1_555
C5 C4 1_555 1_555
H3 C5 1_555 1_555
C6 C1 1_555 1_555
H4 C6 1_555 1_555
C7 C1 1_555 1_555
C8 C3 1_555 1_555
N1 C7 1_555 1_555
N2 N1 1_555 1_555
N3 N2 1_555 1_555
N4 C7 1_555 1_555
N5 C8 1_555 1_555
N6 N5 1_555 1_555
N7 N6 1_555 1_555
N8 C8 1_555 1_555
Zn1_2 N3 1_555 1_555
Zn1B N5 1_555 1_555
Zn1A N8 1_555 1_555
N3_2 Zn1 1_555 1_555
N5B Zn1 1_555 1_555
N8A Zn1 1_555 1_555
C5 C6 1_555 1_555
N3 N4 1_555 1_555
N7 N8 1_555 1_555

#END
