
#######################################################################
#
#                 Cambridge Crystallographic Data Centre
#                                CCDC 
#
#######################################################################
#
# If this CIF has been generated from an entry in the Cambridge 
# Structural Database, then it will include bibliographic, chemical, 
# crystal, experimental, refinement or atomic coordinate data resulting 
# from the CCDC's data processing and validation procedures.
#
#######################################################################

data_FELZUS
_symmetry_cell_setting           triclinic
_symmetry_space_group_name_H-M   'P -1'
_symmetry_Int_Tables_number      2
_space_group_name_Hall           '-P 1'
loop_
_symmetry_equiv_pos_site_id
_symmetry_equiv_pos_as_xyz
1 x,y,z
2 -x,-y,-z
_cell_length_a                   11.457(5)
_cell_length_b                   12.210(5)
_cell_length_c                   12.935(5)
_cell_angle_alpha                66.206(8)
_cell_angle_beta                 73.384(9)
_cell_angle_gamma                82.799(9)
_cell_volume                     1586.44
loop_
_atom_site_label
_atom_site_type_symbol
_atom_site_fract_x
_atom_site_fract_y
_atom_site_fract_z
Cd1 Cd -0.16148(5) 0.30166(5) 0.03978(5)
Cd2 Cd 0.0000 0.0000 0.0000
Cd3 Cd 0.0000 -0.5000 0.5000
C1 C -0.1338(7) -0.0063(6) 0.3586(6)
C2 C -0.1445(7) -0.0625(6) 0.4842(6)
C3 C -0.1313(7) -0.1823(7) 0.5405(7)
H1 H -0.1187 -0.2318 0.4972
C4 C -0.1356(7) -0.2352(6) 0.6575(6)
C5 C -0.1428(7) -0.1595(6) 0.7177(6)
H2 H -0.1419 -0.1932 0.7977
C6 C -0.1514(7) -0.0357(6) 0.6609(6)
H3 H -0.1565 0.0148 0.7019
C7 C -0.1523(7) 0.0131(6) 0.5444(6)
H4 H -0.1583 0.0974 0.5050
C8 C -0.1319(7) -0.3650(6) 0.7219(6)
C9 C 0.2296(7) 0.2166(6) -0.1106(6)
C10 C 0.3418(7) 0.1506(6) -0.1407(6)
C11 C 0.4430(7) 0.1645(6) -0.1084(6)
H5 H 0.4375 0.2148 -0.0670
C12 C 0.5531(7) 0.1052(6) -0.1362(6)
C13 C 0.5566(8) 0.0292(6) -0.1932(7)
H6 H 0.6285 -0.0160 -0.2084
C14 C 0.4586(8) 0.0189(7) -0.2274(7)
H7 H 0.4650 -0.0301 -0.2702
C15 C 0.3492(7) 0.0778(6) -0.2019(6)
H8 H 0.2811 0.0686 -0.2256
C16 C 0.6577(7) 0.1226(6) -0.1018(6)
C17 C -0.3924(8) 0.4714(6) 0.0910(7)
H9 H -0.3460 0.5282 0.0204
C18 C -0.5033(8) 0.5068(7) 0.1450(7)
H10 H -0.5306 0.5873 0.1136
C19 C -0.5750(8) 0.4245(7) 0.2452(7)
H11 H -0.6535 0.4462 0.2819
C20 C -0.5295(8) 0.3100(7) 0.2904(8)
H12 H -0.5759 0.2508 0.3590
C21 C -0.4138(8) 0.2833(7) 0.2331(7)
H13 H -0.3806 0.2058 0.2667
C22 C 0.2099(8) -0.4895(7) 0.6098(7)
H14 H 0.1565 -0.5433 0.6774
C23 C 0.3146(9) -0.4565(8) 0.6203(7)
H15 H 0.3317 -0.4827 0.6944
C24 C 0.3943(9) -0.3841(9) 0.5200(8)
H16 H 0.4683 -0.3616 0.5251
C25 C 0.3693(10) -0.3436(9) 0.4128(8)
H17 H 0.4258 -0.2959 0.3435
C26 C 0.2604(8) -0.3744(7) 0.4098(7)
H18 H 0.2395 -0.3432 0.3372
N1 N -0.1711(6) 0.1054(5) 0.3034(5)
N2 N -0.1340(6) 0.1227(5) 0.1895(5)
N3 N -0.0787(6) 0.0229(5) 0.1786(5)
N4 N -0.0774(6) -0.0607(5) 0.2840(5)
N5 N -0.1033(6) -0.4487(5) 0.6736(5)
N6 N -0.1163(6) -0.5544(5) 0.7648(5)
N7 N -0.1511(6) -0.5352(5) 0.8615(5)
N8 N -0.1599(5) -0.4166(5) 0.8385(5)
N9 N 0.1134(5) 0.1788(5) -0.0728(5)
N10 N 0.0479(6) 0.2737(5) -0.0555(5)
N11 N 0.1202(6) 0.3613(5) -0.0818(5)
N12 N 0.2359(6) 0.3296(5) -0.1156(5)
N13 N 0.7617(6) 0.0582(5) -0.1078(5)
N14 N 0.8309(6) 0.1017(5) -0.0648(5)
N15 N 0.7703(6) 0.1909(5) -0.0378(5)
N16 N 0.6615(6) 0.2057(5) -0.0603(5)
N17 N -0.3467(6) 0.3615(5) 0.1328(5)
N18 N 0.1799(6) -0.4484(5) 0.5069(6)
O1 O -0.0775(5) 0.4013(4) 0.1201(4)
O2 O -0.0116(5) -0.3072(4) 0.3470(4)
Cd1A Cd 0.16148(5) -0.30166(5) -0.03978(5)
Cd1_2 Cd -0.16148(5) -0.69834(5) 1.03978(5)
Cd1_3 Cd 0.83852(5) 0.30166(5) 0.03978(5)
Cd1A_2 Cd 0.16148(5) 0.69834(5) -1.03978(5)
Cd1A_3 Cd -0.83852(5) -0.30166(5) -0.03978(5)
Cd2_2 Cd 1.0000 0.0000 0.0000
Cd2_3 Cd -1.0000 0.0000 0.0000
Cd3_2 Cd 0.0000 0.5000 -0.5000
C1A C 0.1338(7) 0.0063(6) -0.3586(6)
C2A C 0.1445(7) 0.0625(6) -0.4842(6)
C3A C 0.1313(7) 0.1823(7) -0.5405(7)
H1A H 0.1187 0.2318 -0.4972
C4A C 0.1356(7) 0.2352(6) -0.6575(6)
C5A C 0.1428(7) 0.1595(6) -0.7177(6)
H2A H 0.1419 0.1932 -0.7977
C6A C 0.1514(7) 0.0357(6) -0.6609(6)
H3A H 0.1565 -0.0148 -0.7019
C7A C 0.1523(7) -0.0131(6) -0.5444(6)
H4A H 0.1583 -0.0974 -0.5050
C8A C 0.1319(7) 0.3650(6) -0.7219(6)
C9A C -0.2296(7) -0.2166(6) 0.1106(6)
C10A C -0.3418(7) -0.1506(6) 0.1407(6)
C11A C -0.4430(7) -0.1645(6) 0.1084(6)
H5A H -0.4375 -0.2148 0.0670
C12A C -0.5531(7) -0.1052(6) 0.1362(6)
C13A C -0.5566(8) -0.0292(6) 0.1932(7)
H6A H -0.6285 0.0160 0.2084
C14A C -0.4586(8) -0.0189(7) 0.2274(7)
H7A H -0.4650 0.0301 0.2702
C15A C -0.3492(7) -0.0778(6) 0.2019(6)
H8A H -0.2811 -0.0686 0.2256
C16A C -0.6577(7) -0.1226(6) 0.1018(6)
C17A C 0.3924(8) -0.4714(6) -0.0910(7)
H9A H 0.3460 -0.5282 -0.0204
C18A C 0.5033(8) -0.5068(7) -0.1450(7)
H10A H 0.5306 -0.5873 -0.1136
C19A C 0.5750(8) -0.4245(7) -0.2452(7)
H11A H 0.6535 -0.4462 -0.2819
C20A C 0.5295(8) -0.3100(7) -0.2904(8)
H12A H 0.5759 -0.2508 -0.3590
C21A C 0.4138(8) -0.2833(7) -0.2331(7)
H13A H 0.3806 -0.2058 -0.2667
C22A C -0.2099(8) -0.5105(7) 0.3902(7)
H14A H -0.1565 -0.4567 0.3226
C23A C -0.3146(9) -0.5435(8) 0.3797(7)
H15A H -0.3317 -0.5173 0.3056
C24A C -0.3943(9) -0.6159(9) 0.4800(8)
H16A H -0.4683 -0.6384 0.4749
C25A C -0.3693(10) -0.6564(9) 0.5872(8)
H17A H -0.4258 -0.7041 0.6565
C26A C -0.2604(8) -0.6256(7) 0.5902(7)
H18A H -0.2395 -0.6568 0.6628
N1A N 0.1711(6) -0.1054(5) -0.3034(5)
N2A N 0.1340(6) -0.1227(5) -0.1895(5)
N3A N 0.0787(6) -0.0229(5) -0.1786(5)
N4A N 0.0774(6) 0.0607(5) -0.2840(5)
N5A N 0.1033(6) 0.4487(5) -0.6736(5)
N5A_2 N 0.1033(6) -0.5513(5) 0.3264(5)
N6A N 0.1163(6) 0.5544(5) -0.7648(5)
N7A N 0.1511(6) 0.5352(5) -0.8615(5)
N7_2 N -0.1511(6) 0.4648(5) -0.1385(5)
N7A_2 N 0.1511(6) -0.4648(5) 0.1385(5)
N8A N 0.1599(5) 0.4166(5) -0.8385(5)
N9A N -0.1134(5) -0.1788(5) 0.0728(5)
N10A N -0.0479(6) -0.2737(5) 0.0555(5)
N11A N -0.1202(6) -0.3613(5) 0.0818(5)
N12A N -0.2359(6) -0.3296(5) 0.1156(5)
N13A N -0.7617(6) -0.0582(5) 0.1078(5)
N14A N -0.8309(6) -0.1017(5) 0.0648(5)
N14_2 N -0.1691(6) 0.1017(5) -0.0648(5)
N14A_2 N 0.1691(6) -0.1017(5) 0.0648(5)
N15A N -0.7703(6) -0.1909(5) 0.0378(5)
N15_2 N -0.2297(6) 0.1909(5) -0.0378(5)
N15A_2 N 0.2297(6) -0.1909(5) 0.0378(5)
N16A N -0.6615(6) -0.2057(5) 0.0603(5)
N17A N 0.3467(6) -0.3615(5) -0.1328(5)
N18A N -0.1799(6) -0.5516(5) 0.4931(6)
O1A O 0.0775(5) -0.4013(4) -0.1201(4)
O2A O 0.0116(5) -0.6928(4) 0.6530(4)
loop_
_geom_bond_atom_site_label_1
_geom_bond_atom_site_label_2
_geom_bond_site_symmetry_1
_geom_bond_site_symmetry_2
Cd1 N2 1_555 1_555
Cd2 N3 1_555 1_555
Cd3 N5 1_555 1_555
C1 C2 1_555 1_555
C2 C3 1_555 1_555
C3 H1 1_555 1_555
C4 C3 1_555 1_555
C5 C4 1_555 1_555
H2 C5 1_555 1_555
C6 C5 1_555 1_555
H3 C6 1_555 1_555
C7 C2 1_555 1_555
H4 C7 1_555 1_555
C8 C4 1_555 1_555
C9 C10 1_555 1_555
C10 C11 1_555 1_555
C11 H5 1_555 1_555
C12 C11 1_555 1_555
C13 C12 1_555 1_555
H6 C13 1_555 1_555
C14 C13 1_555 1_555
H7 C14 1_555 1_555
C15 C10 1_555 1_555
H8 C15 1_555 1_555
C16 C12 1_555 1_555
C17 H9 1_555 1_555
C18 C17 1_555 1_555
H10 C18 1_555 1_555
C19 C18 1_555 1_555
H11 C19 1_555 1_555
C20 C19 1_555 1_555
H12 C20 1_555 1_555
C21 C20 1_555 1_555
H13 C21 1_555 1_555
C22 H14 1_555 1_555
C23 C22 1_555 1_555
H15 C23 1_555 1_555
C24 C23 1_555 1_555
H16 C24 1_555 1_555
C25 C24 1_555 1_555
H17 C25 1_555 1_555
C26 C25 1_555 1_555
H18 C26 1_555 1_555
N1 C1 1_555 1_555
N2 N1 1_555 1_555
N3 N2 1_555 1_555
N4 C1 1_555 1_555
N5 C8 1_555 1_555
N6 N5 1_555 1_555
N7 N6 1_555 1_555
N8 C8 1_555 1_555
N9 Cd2 1_555 1_555
N10 Cd1 1_555 1_555
N11 N10 1_555 1_555
N12 C9 1_555 1_555
N13 C16 1_555 1_555
N14 N13 1_555 1_555
N15 N14 1_555 1_555
N16 C16 1_555 1_555
N17 Cd1 1_555 1_555
N18 Cd3 1_555 1_555
O1 Cd1 1_555 1_555
O2 Cd3 1_555 1_555
Cd1A N2A 1_555 1_555
Cd1_2 N7 1_555 1_555
Cd1_3 N15 1_555 1_555
Cd1A_2 N7A 1_555 1_555
Cd1A_3 N15A 1_555 1_555
Cd2_2 N14 1_555 1_555
Cd2_3 N14A 1_555 1_555
Cd3_2 N5A 1_555 1_555
C1A C2A 1_555 1_555
C2A C3A 1_555 1_555
C3A H1A 1_555 1_555
C4A C3A 1_555 1_555
C5A C4A 1_555 1_555
H2A C5A 1_555 1_555
C6A C5A 1_555 1_555
H3A C6A 1_555 1_555
C7A C2A 1_555 1_555
H4A C7A 1_555 1_555
C8A C4A 1_555 1_555
C9A C10A 1_555 1_555
C10A C11A 1_555 1_555
C11A H5A 1_555 1_555
C12A C11A 1_555 1_555
C13A C12A 1_555 1_555
H6A C13A 1_555 1_555
C14A C13A 1_555 1_555
H7A C14A 1_555 1_555
C15A C10A 1_555 1_555
H8A C15A 1_555 1_555
C16A C12A 1_555 1_555
C17A H9A 1_555 1_555
C18A C17A 1_555 1_555
H10A C18A 1_555 1_555
C19A C18A 1_555 1_555
H11A C19A 1_555 1_555
C20A C19A 1_555 1_555
H12A C20A 1_555 1_555
C21A C20A 1_555 1_555
H13A C21A 1_555 1_555
C22A H14A 1_555 1_555
C23A C22A 1_555 1_555
H15A C23A 1_555 1_555
C24A C23A 1_555 1_555
H16A C24A 1_555 1_555
C25A C24A 1_555 1_555
H17A C25A 1_555 1_555
C26A C25A 1_555 1_555
H18A C26A 1_555 1_555
N1A C1A 1_555 1_555
N2A N1A 1_555 1_555
N3A Cd2 1_555 1_555
N4A C1A 1_555 1_555
N5A C8A 1_555 1_555
N5A_2 Cd3 1_555 1_555
N6A N5A 1_555 1_555
N7A N6A 1_555 1_555
N7_2 Cd1 1_555 1_555
N7A_2 Cd1A 1_555 1_555
N8A C8A 1_555 1_555
N9A Cd2 1_555 1_555
N10A Cd1A 1_555 1_555
N11A N10A 1_555 1_555
N12A C9A 1_555 1_555
N13A C16A 1_555 1_555
N14A N13A 1_555 1_555
N14_2 Cd2 1_555 1_555
N14A_2 Cd2 1_555 1_555
N15A N14A 1_555 1_555
N15_2 Cd1 1_555 1_555
N15A_2 Cd1A 1_555 1_555
N16A C16A 1_555 1_555
N17A Cd1A 1_555 1_555
N18A Cd3 1_555 1_555
O1A Cd1A 1_555 1_555
O2A Cd3 1_555 1_555
C6 C7 1_555 1_555
C9 N9 1_555 1_555
C14 C15 1_555 1_555
C17 N17 1_555 1_555
C21 N17 1_555 1_555
C22 N18 1_555 1_555
C26 N18 1_555 1_555
N3 N4 1_555 1_555
N7 N8 1_555 1_555
N9 N10 1_555 1_555
N11 N12 1_555 1_555
N15 N16 1_555 1_555
C6A C7A 1_555 1_555
C9A N9A 1_555 1_555
C14A C15A 1_555 1_555
C17A N17A 1_555 1_555
C21A N17A 1_555 1_555
C22A N18A 1_555 1_555
C26A N18A 1_555 1_555
N2A N3A 1_555 1_555
N3A N4A 1_555 1_555
N7A N8A 1_555 1_555
N9A N10A 1_555 1_555
N11A N12A 1_555 1_555
N14_2 N15_2 1_555 1_555
N14A_2 N15A_2 1_555 1_555
N15A N16A 1_555 1_555

#END
