
#######################################################################
#
#                 Cambridge Crystallographic Data Centre
#                                CCDC 
#
#######################################################################
#
# If this CIF has been generated from an entry in the Cambridge 
# Structural Database, then it will include bibliographic, chemical, 
# crystal, experimental, refinement or atomic coordinate data resulting 
# from the CCDC's data processing and validation procedures.
#
#######################################################################

data_FEMBAB
_symmetry_cell_setting           orthorhombic
_symmetry_space_group_name_H-M   'F d d d'
_symmetry_Int_Tables_number      70
_space_group_name_Hall           '-F 2uv 2vw'
loop_
_symmetry_equiv_pos_site_id
_symmetry_equiv_pos_as_xyz
1 x,y,z
2 1/4-x,1/4-y,z
3 x,1/4-y,1/4-z
4 1/4-x,y,1/4-z
5 x,1/2+y,1/2+z
6 1/2+x,y,1/2+z
7 1/2+x,1/2+y,z
8 1/4-x,3/4-y,1/2+z
9 x,3/4-y,3/4-z
10 1/4-x,1/2+y,3/4-z
11 3/4-x,1/4-y,1/2+z
12 1/2+x,1/4-y,3/4-z
13 3/4-x,y,3/4-z
14 3/4-x,3/4-y,z
15 1/2+x,3/4-y,1/4-z
16 3/4-x,1/2+y,1/4-z
17 -x,-y,-z
18 3/4+x,3/4+y,-z
19 -x,3/4+y,3/4+z
20 3/4+x,-y,3/4+z
21 -x,1/2-y,1/2-z
22 1/2-x,-y,1/2-z
23 1/2-x,1/2-y,-z
24 3/4+x,1/4+y,1/2-z
25 -x,1/4+y,1/4+z
26 3/4+x,1/2-y,1/4+z
27 1/4+x,3/4+y,1/2-z
28 1/2-x,3/4+y,1/4+z
29 1/4+x,-y,1/4+z
30 1/4+x,1/4+y,-z
31 1/2-x,1/4+y,3/4+z
32 1/4+x,1/2-y,3/4+z
_cell_length_a                   9.016(4)
_cell_length_b                   16.322(6)
_cell_length_c                   30.908(8)
_cell_angle_alpha                90
_cell_angle_beta                 90
_cell_angle_gamma                90
_cell_volume                     4548.4
loop_
_atom_site_label
_atom_site_type_symbol
_atom_site_fract_x
_atom_site_fract_y
_atom_site_fract_z
Cu1 Cu 0.6250 0.1250 0.378170(12)
O1 O 0.8750 0.06174(18) 0.3750
H1 H 0.852(4) 0.0373(18) 0.3942(9)
O2 O 0.53897(19) 0.05586(11) 0.42415(5)
O3 O 0.7424(2) -0.01576(15) 0.43970(7)
N1 N 0.6946(2) 0.19965(14) 0.33008(7)
H2 H 0.7931 0.1893 0.3266
C1 C 0.6216(3) 0.1709(2) 0.29037(8)
H3 H 0.6720 0.1925 0.2651
H4 H 0.5192 0.1891 0.2897
C2 C 0.6810(4) 0.28869(18) 0.33536(12)
H5 H 0.7284 0.3158 0.3115
H6 H 0.7276 0.3050 0.3619
H7 H 0.5780 0.3035 0.3361
C3 C 0.6151(3) 0.00788(18) 0.44738(8)
C4 C 0.5454(3) -0.02202(17) 0.48820(8)
H8 H 0.5676 -0.0749 0.4974
Cu1K Cu 1.1250 0.1250 0.371830(12)
Cu1P Cu 0.3750 -0.1250 0.621830(12)
O1A O 0.3750 0.18826(18) 0.3750
H1L H 0.898(4) 0.0373(18) 0.3558(9)
H1A H 0.398(4) 0.2127(18) 0.3942(9)
H1K H 0.352(4) 0.2127(18) 0.3558(9)
O2P O 0.46103(19) -0.05586(11) 0.57585(5)
O2A O 0.71103(19) 0.19414(11) 0.42415(5)
O3P O 0.2576(2) 0.01576(15) 0.56030(7)
N1A N 0.5554(2) 0.05035(14) 0.33008(7)
H2A H 0.4569 0.0607 0.3266
C1A C 0.6284(3) 0.0791(2) 0.29037(8)
H3A H 0.5780 0.0575 0.2651
H4A H 0.7308 0.0609 0.2897
C2A C 0.5690(4) -0.03869(18) 0.33536(12)
H5A H 0.5216 -0.0658 0.3115
H6A H 0.5224 -0.0550 0.3619
H7A H 0.6720 -0.0535 0.3361
C3P C 0.3849(3) -0.00788(18) 0.55262(8)
C4P C 0.4546(3) 0.02202(17) 0.51180(8)
H8P H 0.4324 0.0749 0.5026
loop_
_geom_bond_atom_site_label_1
_geom_bond_atom_site_label_2
_geom_bond_site_symmetry_1
_geom_bond_site_symmetry_2
Cu1 O1 1_555 1_555
O1 H1 1_555 1_555
O2 Cu1 1_555 1_555
O3 C3 1_555 1_555
N1 Cu1 1_555 1_555
H2 N1 1_555 1_555
C1 N1 1_555 1_555
H3 C1 1_555 1_555
H4 C1 1_555 1_555
C2 N1 1_555 1_555
H5 C2 1_555 1_555
H6 C2 1_555 1_555
H7 C2 1_555 1_555
C3 O2 1_555 1_555
C4 C3 1_555 1_555
H8 C4 1_555 1_555
Cu1K O1 1_555 1_555
Cu1P O2P 1_555 1_555
O1A Cu1 1_555 1_555
H1L O1 1_555 1_555
H1A O1A 1_555 1_555
H1K O1A 1_555 1_555
O2P C3P 1_555 1_555
O2A Cu1 1_555 1_555
O3P C3P 1_555 1_555
N1A Cu1 1_555 1_555
H2A N1A 1_555 1_555
C1A C1 1_555 1_555
H3A C1A 1_555 1_555
H4A C1A 1_555 1_555
C2A N1A 1_555 1_555
H5A C2A 1_555 1_555
H6A C2A 1_555 1_555
H7A C2A 1_555 1_555
C3P C4P 1_555 1_555
C4P C4 1_555 1_555
H8P C4P 1_555 1_555
N1A C1A 1_555 1_555

#END
