
#######################################################################
#
#                 Cambridge Crystallographic Data Centre
#                                CCDC 
#
#######################################################################
#
# If this CIF has been generated from an entry in the Cambridge 
# Structural Database, then it will include bibliographic, chemical, 
# crystal, experimental, refinement or atomic coordinate data resulting 
# from the CCDC's data processing and validation procedures.
#
#######################################################################

data_FEMBEF
_symmetry_cell_setting           monoclinic
_symmetry_space_group_name_H-M   'P 21/n'
_symmetry_Int_Tables_number      14
_space_group_name_Hall           '-P 2yn'
loop_
_symmetry_equiv_pos_site_id
_symmetry_equiv_pos_as_xyz
1 x,y,z
2 1/2-x,1/2+y,1/2-z
3 -x,-y,-z
4 1/2+x,1/2-y,1/2+z
_cell_length_a                   7.437(3)
_cell_length_b                   9.367(2)
_cell_length_c                   20.103(5)
_cell_angle_alpha                90
_cell_angle_beta                 94.07(4)
_cell_angle_gamma                90
_cell_volume                     1396.89
loop_
_atom_site_label
_atom_site_type_symbol
_atom_site_fract_x
_atom_site_fract_y
_atom_site_fract_z
Cu1 Cu 0.06239(10) 0.55038(9) 0.26898(3)
O1 O -0.0125(7) 0.3445(5) 0.2706(2)
H1 H 0.014(11) 0.282(7) 0.235(3)
O2 O 0.1360(6) 0.5236(5) 0.1775(2)
O3 O -0.1580(6) 0.5561(6) 0.1657(2)
O4 O 0.3336(6) 0.4947(5) 0.3250(2)
O5 O 0.5203(8) 0.6820(6) 0.3391(2)
N1 N 0.1070(7) 0.7608(6) 0.2722(3)
H2 H 0.2213 0.7782 0.2879
H3 H 0.0910 0.7979 0.2309
N2 N -0.0743(7) 0.5853(6) 0.3511(3)
H4 H -0.1934 0.5875 0.3372
C1 C -0.0042(10) 0.2618(8) 0.3305(3)
H5 H 0.1198 0.2548 0.3488
H6 H -0.0484 0.1661 0.3208
C2 C -0.1186(10) 0.3326(8) 0.3810(4)
H7 H -0.2410 0.3413 0.3613
H8 H -0.1218 0.2704 0.4195
C3 C -0.0546(10) 0.4785(8) 0.4047(3)
H9 H -0.1236 0.5086 0.4414
H10 H 0.0711 0.4727 0.4210
C4 C -0.0261(11) 0.7316(8) 0.3752(4)
H11 H 0.0900 0.7302 0.4005
H12 H -0.1158 0.7663 0.4040
C5 C -0.0183(10) 0.8275(8) 0.3158(4)
H13 H -0.1368 0.8369 0.2927
H14 H 0.0242 0.9216 0.3294
C6 C -0.0126(9) 0.5332(7) 0.1425(3)
C7 C -0.0045(9) 0.5167(7) 0.0687(3)
C8 C 0.1594(9) 0.5010(7) 0.0396(3)
H15 H 0.2666 0.5014 0.0663
C9 C -0.1637(9) 0.5149(7) 0.0280(3)
H16 H -0.2738 0.5245 0.0468
C10 C 0.4400(8) 0.5756(7) 0.3593(3)
C11 C 0.4731(8) 0.5343(7) 0.4323(3)
C12 C 0.5333(9) 0.6372(7) 0.4788(3)
H17 H 0.5549 0.7299 0.4649
C13 C 0.4391(9) 0.3981(7) 0.4546(3)
H18 H 0.3969 0.3290 0.4241
Cu1B Cu -0.06239(10) 0.44962(9) -0.26898(3)
Cu1B_2 Cu 0.93761(10) 0.44962(9) 0.73102(3)
O1B O 0.0125(7) 0.6555(5) -0.2706(2)
H1B H -0.014(11) 0.718(7) -0.235(3)
O2B O -0.1360(6) 0.4764(5) -0.1775(2)
O3B O 0.1580(6) 0.4439(6) -0.1657(2)
O4B O 0.6664(6) 0.5053(5) 0.6750(2)
O4B_2 O -0.3336(6) 0.5053(5) -0.3250(2)
O5B O 0.4797(8) 0.3180(6) 0.6609(2)
N1B N -0.1070(7) 0.2392(6) -0.2722(3)
H2B H -0.2213 0.2218 -0.2879
H3B H -0.0910 0.2021 -0.2309
N2B N 0.0743(7) 0.4147(6) -0.3511(3)
H4B H 0.1934 0.4125 -0.3372
C1B C 0.0042(10) 0.7382(8) -0.3305(3)
H5B H -0.1198 0.7452 -0.3488
H6B H 0.0484 0.8339 -0.3208
C2B C 0.1186(10) 0.6674(8) -0.3810(4)
H7B H 0.2410 0.6587 -0.3613
H8B H 0.1218 0.7296 -0.4195
C3B C 0.0546(10) 0.5215(8) -0.4047(3)
H9B H 0.1236 0.4914 -0.4414
H10B H -0.0711 0.5273 -0.4210
C4B C 0.0261(11) 0.2684(8) -0.3752(4)
H11B H -0.0900 0.2698 -0.4005
H12B H 0.1158 0.2337 -0.4040
C5B C 0.0183(10) 0.1725(8) -0.3158(4)
H13B H 0.1368 0.1631 -0.2927
H14B H -0.0242 0.0784 -0.3294
C6B C 0.0126(9) 0.4668(7) -0.1425(3)
C7B C 0.0045(9) 0.4833(7) -0.0687(3)
C8B C -0.1594(9) 0.4990(7) -0.0396(3)
H15B H -0.2666 0.4986 -0.0663
C9B C 0.1637(9) 0.4851(7) -0.0280(3)
H16B H 0.2738 0.4755 -0.0468
C10B C 0.5600(8) 0.4244(7) 0.6407(3)
C11B C 0.5269(8) 0.4657(7) 0.5677(3)
C12B C 0.4667(9) 0.3628(7) 0.5212(3)
H17B H 0.4451 0.2701 0.5351
C13B C 0.5609(9) 0.6019(7) 0.5454(3)
H18B H 0.6031 0.6710 0.5759
loop_
_geom_bond_atom_site_label_1
_geom_bond_atom_site_label_2
_geom_bond_site_symmetry_1
_geom_bond_site_symmetry_2
Cu1 O1 1_555 1_555
O1 H1 1_555 1_555
O2 Cu1 1_555 1_555
O3 Cu1 1_555 1_555
O4 Cu1 1_555 1_555
O5 C10 1_555 1_555
N1 Cu1 1_555 1_555
H2 N1 1_555 1_555
H3 N1 1_555 1_555
N2 Cu1 1_555 1_555
H4 N2 1_555 1_555
C1 O1 1_555 1_555
H5 C1 1_555 1_555
H6 C1 1_555 1_555
C2 C1 1_555 1_555
H7 C2 1_555 1_555
H8 C2 1_555 1_555
C3 N2 1_555 1_555
H9 C3 1_555 1_555
H10 C3 1_555 1_555
C4 N2 1_555 1_555
H11 C4 1_555 1_555
H12 C4 1_555 1_555
C5 N1 1_555 1_555
H13 C5 1_555 1_555
H14 C5 1_555 1_555
C6 O2 1_555 1_555
C7 C6 1_555 1_555
C8 C7 1_555 1_555
H15 C8 1_555 1_555
C9 C7 1_555 1_555
H16 C9 1_555 1_555
C10 O4 1_555 1_555
C11 C10 1_555 1_555
C12 C11 1_555 1_555
H17 C12 1_555 1_555
C13 C11 1_555 1_555
H18 C13 1_555 1_555
Cu1B O1B 1_555 1_555
Cu1B_2 O4B 1_555 1_555
O1B H1B 1_555 1_555
O2B Cu1B 1_555 1_555
O3B Cu1B 1_555 1_555
O4B C10B 1_555 1_555
O4B_2 Cu1B 1_555 1_555
O5B C10B 1_555 1_555
N1B Cu1B 1_555 1_555
H2B N1B 1_555 1_555
H3B N1B 1_555 1_555
N2B Cu1B 1_555 1_555
H4B N2B 1_555 1_555
C1B O1B 1_555 1_555
H5B C1B 1_555 1_555
H6B C1B 1_555 1_555
C2B C1B 1_555 1_555
H7B C2B 1_555 1_555
H8B C2B 1_555 1_555
C3B N2B 1_555 1_555
H9B C3B 1_555 1_555
H10B C3B 1_555 1_555
C4B N2B 1_555 1_555
H11B C4B 1_555 1_555
H12B C4B 1_555 1_555
C5B N1B 1_555 1_555
H13B C5B 1_555 1_555
H14B C5B 1_555 1_555
C6B O2B 1_555 1_555
C7B C6B 1_555 1_555
C8B C9 1_555 1_555
H15B C8B 1_555 1_555
C9B C8 1_555 1_555
H16B C9B 1_555 1_555
C10B C11B 1_555 1_555
C11B C12B 1_555 1_555
C12B C13 1_555 1_555
H17B C12B 1_555 1_555
C13B C12 1_555 1_555
H18B C13B 1_555 1_555
O3 C6 1_555 1_555
C2 C3 1_555 1_555
C4 C5 1_555 1_555
O3B C6B 1_555 1_555
C2B C3B 1_555 1_555
C4B C5B 1_555 1_555
C7B C8B 1_555 1_555
C7B C9B 1_555 1_555
C11B C13B 1_555 1_555

#END
