
#######################################################################
#
#                 Cambridge Crystallographic Data Centre
#                                CCDC 
#
#######################################################################
#
# If this CIF has been generated from an entry in the Cambridge 
# Structural Database, then it will include bibliographic, chemical, 
# crystal, experimental, refinement or atomic coordinate data resulting 
# from the CCDC's data processing and validation procedures.
#
#######################################################################

data_FEMTIB
_symmetry_cell_setting           monoclinic
_symmetry_space_group_name_H-M   'C 2/c'
_symmetry_Int_Tables_number      15
_space_group_name_Hall           '-C 2yn'
loop_
_symmetry_equiv_pos_site_id
_symmetry_equiv_pos_as_xyz
1 x,y,z
2 1/2+x,1/2+y,z
3 -x,y,1/2-z
4 1/2-x,1/2+y,1/2-z
5 -x,-y,-z
6 1/2-x,1/2-y,-z
7 x,-y,1/2+z
8 1/2+x,1/2-y,1/2+z
_cell_length_a                   16.363(2)
_cell_length_b                   13.8361(19)
_cell_length_c                   14.890(2)
_cell_angle_alpha                90
_cell_angle_beta                 110.525(13)
_cell_angle_gamma                90
_cell_volume                     3157.1
loop_
_atom_site_label
_atom_site_type_symbol
_atom_site_fract_x
_atom_site_fract_y
_atom_site_fract_z
Pt1 Pt 0.40042(2) 0.90368(3) 0.24805(2)
Cu1 Cu 0.45411(8) 1.23629(8) 0.40871(8)
C1 C 0.4226(6) 1.0361(7) 0.3028(7)
N1 N 0.4385(6) 1.1116(6) 0.3360(7)
C2 C 0.3582(6) 0.9598(7) 0.1163(7)
N2 N 0.3298(7) 0.9894(7) 0.0400(7)
C3 C 0.3758(6) 0.7726(7) 0.1908(7)
N3 N 0.3592(6) 0.6997(7) 0.1541(7)
C4 C 0.4419(6) 0.8453(7) 0.3789(7)
N4 N 0.4656(6) 0.8103(7) 0.4498(6)
N5 N 0.5581(5) 1.2817(6) 0.3796(6)
N6 N 0.4272(5) 1.3807(6) 0.3924(6)
C5 C 0.6220(8) 1.2275(10) 0.3767(9)
H1 H 0.6159 1.1608 0.3793
C6 C 0.6997(8) 1.2639(9) 0.3701(11)
H2 H 0.7441 1.2222 0.3694
C7 C 0.7089(8) 1.3597(10) 0.3646(9)
H3 H 0.7593 1.3856 0.3590
C8 C 0.6417(7) 1.4200(9) 0.3677(8)
H4 H 0.6467 1.4867 0.3644
C9 C 0.5673(6) 1.3789(7) 0.3756(6)
C10 C 0.4902(6) 1.4343(7) 0.3773(7)
C11 C 0.4822(7) 1.5328(7) 0.3667(8)
H5 H 0.5271 1.5689 0.3585
C12 C 0.4067(8) 1.5784(8) 0.3680(9)
H6 H 0.4000 1.6450 0.3600
C13 C 0.3435(8) 1.5233(9) 0.3813(10)
H7 H 0.2922 1.5514 0.3824
C14 C 0.3562(7) 1.4246(8) 0.3931(10)
H8 H 0.3123 1.3874 0.4019
N7 N 0.3504(6) 1.2043(7) 0.4438(6)
H9 H 0.3538 1.2356 0.4972
H10 H 0.3490 1.1409 0.4533
H11 H 0.3021 1.2221 0.3964
Pt1B Pt 0.59958(2) 0.90368(3) 0.25195(2)
Cu1D Cu 0.54589(8) 0.76371(8) 0.59129(8)
N4D N 0.5344(6) 1.1897(7) 0.5502(6)
loop_
_geom_bond_atom_site_label_1
_geom_bond_atom_site_label_2
_geom_bond_site_symmetry_1
_geom_bond_site_symmetry_2
Pt1 C1 1_555 1_555
Cu1 N1 1_555 1_555
C1 N1 1_555 1_555
C2 Pt1 1_555 1_555
N2 C2 1_555 1_555
C3 Pt1 1_555 1_555
N3 C3 1_555 1_555
C4 Pt1 1_555 1_555
N4 C4 1_555 1_555
N5 Cu1 1_555 1_555
N6 Cu1 1_555 1_555
C5 N5 1_555 1_555
H1 C5 1_555 1_555
C6 C5 1_555 1_555
H2 C6 1_555 1_555
C7 C6 1_555 1_555
H3 C7 1_555 1_555
C8 C7 1_555 1_555
H4 C8 1_555 1_555
C9 N5 1_555 1_555
C10 N6 1_555 1_555
C11 C10 1_555 1_555
H5 C11 1_555 1_555
C12 C11 1_555 1_555
H6 C12 1_555 1_555
C13 C12 1_555 1_555
H7 C13 1_555 1_555
C14 N6 1_555 1_555
H8 C14 1_555 1_555
N7 Cu1 1_555 1_555
H9 N7 1_555 1_555
H10 N7 1_555 1_555
H11 N7 1_555 1_555
Pt1B Pt1 1_555 1_555
Cu1D N4 1_555 1_555
N4D Cu1 1_555 1_555
C8 C9 1_555 1_555
C9 C10 1_555 1_555
C13 C14 1_555 1_555

#END
