
#######################################################################
#
#                 Cambridge Crystallographic Data Centre
#                                CCDC 
#
#######################################################################
#
# If this CIF has been generated from an entry in the Cambridge 
# Structural Database, then it will include bibliographic, chemical, 
# crystal, experimental, refinement or atomic coordinate data resulting 
# from the CCDC's data processing and validation procedures.
#
#######################################################################

data_FEMTOH
_symmetry_cell_setting           triclinic
_symmetry_space_group_name_H-M   'P -1'
_symmetry_Int_Tables_number      2
_space_group_name_Hall           '-P 1'
loop_
_symmetry_equiv_pos_site_id
_symmetry_equiv_pos_as_xyz
1 x,y,z
2 -x,-y,-z
_cell_length_a                   7.7888(4)
_cell_length_b                   10.3052(6)
_cell_length_c                   11.8888(7)
_cell_angle_alpha                100.7200(10)
_cell_angle_beta                 105.4990(10)
_cell_angle_gamma                96.7620(10)
_cell_volume                     889.264
loop_
_atom_site_label
_atom_site_type_symbol
_atom_site_fract_x
_atom_site_fract_y
_atom_site_fract_z
W1 W 0.0000 0.0000 0.0000
K1 K 0.5000 0.0000 0.0000
Cl1 Cl -0.15742(11) -0.36640(8) -0.62543(6)
Cl2 Cl 0.44805(10) -0.31837(9) 0.49350(7)
Cl3 Cl -0.85050(7) -0.44805(6) -0.06758(6)
O1 O 0.10978(19) -0.04911(15) -0.12872(13)
O2 O 0.21961(18) -0.02917(15) 0.11185(13)
O3 O -0.11911(18) -0.18466(14) -0.02650(13)
C1 C 0.0489(2) -0.1251(2) -0.24324(18)
C2 C -0.0449(3) -0.2559(2) -0.2694(2)
H1 H -0.068(4) -0.297(3) -0.210(3)
C3 C -0.1046(3) -0.3314(2) -0.3872(2)
H2 H -0.168(5) -0.416(3) -0.402(3)
C4 C -0.0699(3) -0.2754(2) -0.4772(2)
C5 C 0.0283(4) -0.1477(3) -0.4528(2)
H3 H 0.053(6) -0.115(4) -0.512(4)
C6 C 0.0876(4) -0.0718(2) -0.3349(2)
H4 H 0.155(4) 0.019(3) -0.320(3)
C7 C 0.2677(2) -0.0977(2) 0.20035(18)
C8 C 0.4307(3) -0.0467(2) 0.2910(2)
H5 H 0.500(5) 0.036(3) 0.292(3)
C9 C 0.4892(3) -0.1161(3) 0.3804(2)
H6 H 0.595(5) -0.084(3) 0.440(3)
C10 C 0.3835(3) -0.2345(3) 0.3787(2)
C11 C 0.2240(3) -0.2871(3) 0.2880(2)
H7 H 0.159(5) -0.368(3) 0.290(3)
C12 C 0.1661(3) -0.2186(2) 0.1984(2)
H8 H 0.068(4) -0.249(3) 0.139(3)
C13 C -0.2904(2) -0.23925(18) -0.03542(18)
C14 C -0.3344(3) -0.2628(2) 0.06648(19)
H9 H -0.246(4) -0.243(3) 0.141(3)
C15 C -0.5081(3) -0.3255(2) 0.0564(2)
H10 H -0.540(5) -0.351(3) 0.125(3)
C16 C -0.6369(3) -0.3630(2) -0.0551(2)
C17 C -0.5973(3) -0.3376(2) -0.1567(2)
H11 H -0.683(4) -0.362(3) -0.229(3)
C18 C -0.4226(3) -0.2757(2) -0.14688(19)
H12 H -0.398(4) -0.257(3) -0.208(3)
W1_2 W 1.0000 0.0000 0.0000
K1_2 K -0.5000 0.0000 0.0000
Cl1A Cl 0.15742(11) 0.36640(8) 0.62543(6)
Cl2A Cl -0.44805(10) 0.31837(9) -0.49350(7)
Cl3A Cl 0.85050(7) 0.44805(6) 0.06758(6)
O1A O -0.10978(19) 0.04911(15) 0.12872(13)
O1A_2 O 0.89022(19) 0.04911(15) 0.12872(13)
O2A O -0.21961(18) 0.02917(15) -0.11185(13)
O2A_2 O 0.78039(18) 0.02917(15) -0.11185(13)
O3A O 0.11911(18) 0.18466(14) 0.02650(13)
C1A C -0.0489(2) 0.1251(2) 0.24324(18)
C2A C 0.0449(3) 0.2559(2) 0.2694(2)
H1A H 0.068(4) 0.297(3) 0.210(3)
C3A C 0.1046(3) 0.3314(2) 0.3872(2)
H2A H 0.168(5) 0.416(3) 0.402(3)
C4A C 0.0699(3) 0.2754(2) 0.4772(2)
C5A C -0.0283(4) 0.1477(3) 0.4528(2)
H3A H -0.053(6) 0.115(4) 0.512(4)
C6A C -0.0876(4) 0.0718(2) 0.3349(2)
H4A H -0.155(4) -0.019(3) 0.320(3)
C7A C -0.2677(2) 0.0977(2) -0.20035(18)
C8A C -0.4307(3) 0.0467(2) -0.2910(2)
H5A H -0.500(5) -0.036(3) -0.292(3)
C9A C -0.4892(3) 0.1161(3) -0.3804(2)
H6A H -0.595(5) 0.084(3) -0.440(3)
C10A C -0.3835(3) 0.2345(3) -0.3787(2)
C11A C -0.2240(3) 0.2871(3) -0.2880(2)
H7A H -0.159(5) 0.368(3) -0.290(3)
C12A C -0.1661(3) 0.2186(2) -0.1984(2)
H8A H -0.068(4) 0.249(3) -0.139(3)
C13A C 0.2904(2) 0.23925(18) 0.03542(18)
C13_2 C 0.7096(2) -0.23925(18) -0.03542(18)
C14A C 0.3344(3) 0.2628(2) -0.06648(19)
C14_2 C 0.6656(3) -0.2628(2) 0.06648(19)
H9A H 0.246(4) 0.243(3) -0.141(3)
H9_2 H 0.754(4) -0.243(3) 0.141(3)
C15A C 0.5081(3) 0.3255(2) -0.0564(2)
C15_2 C 0.4919(3) -0.3255(2) 0.0564(2)
H10A H 0.540(5) 0.351(3) -0.125(3)
H10_2 H 0.460(5) -0.351(3) 0.125(3)
C16A C 0.6369(3) 0.3630(2) 0.0551(2)
C16_2 C 0.3631(3) -0.3630(2) -0.0551(2)
C17A C 0.5973(3) 0.3376(2) 0.1567(2)
C17_2 C 0.4027(3) -0.3376(2) -0.1567(2)
H11A H 0.683(4) 0.362(3) 0.229(3)
H11_2 H 0.317(4) -0.362(3) -0.229(3)
C18A C 0.4226(3) 0.2757(2) 0.14688(19)
C18_2 C 0.5774(3) -0.2757(2) -0.14688(19)
H12A H 0.398(4) 0.257(3) 0.208(3)
H12_2 H 0.602(4) -0.257(3) -0.208(3)
loop_
_geom_bond_atom_site_label_1
_geom_bond_atom_site_label_2
_geom_bond_site_symmetry_1
_geom_bond_site_symmetry_2
W1 O1 1_555 1_555
K1 O1 1_555 1_555
Cl1 C4 1_555 1_555
Cl2 C10 1_555 1_555
Cl3 C16 1_555 1_555
O1 C1 1_555 1_555
O2 W1 1_555 1_555
O3 W1 1_555 1_555
C1 C2 1_555 1_555
C2 H1 1_555 1_555
C3 C2 1_555 1_555
H2 C3 1_555 1_555
C4 C3 1_555 1_555
C5 C4 1_555 1_555
H3 C5 1_555 1_555
C6 C1 1_555 1_555
H4 C6 1_555 1_555
C7 O2 1_555 1_555
C8 C7 1_555 1_555
H5 C8 1_555 1_555
C9 C8 1_555 1_555
H6 C9 1_555 1_555
C10 C9 1_555 1_555
C11 C10 1_555 1_555
H7 C11 1_555 1_555
C12 C7 1_555 1_555
H8 C12 1_555 1_555
C13 O3 1_555 1_555
C14 C13 1_555 1_555
H9 C14 1_555 1_555
C15 C14 1_555 1_555
H10 C15 1_555 1_555
C16 C15 1_555 1_555
C17 C16 1_555 1_555
H11 C17 1_555 1_555
C18 C13 1_555 1_555
H12 C18 1_555 1_555
W1_2 O1A_2 1_555 1_555
K1_2 C13 1_555 1_555
Cl1A C4A 1_555 1_555
Cl2A C10A 1_555 1_555
Cl3A C16A 1_555 1_555
O1A W1 1_555 1_555
O1A_2 K1 1_555 1_555
O2A W1 1_555 1_555
O2A_2 K1 1_555 1_555
O3A W1 1_555 1_555
C1A O1A 1_555 1_555
C2A C1A 1_555 1_555
H1A C2A 1_555 1_555
C3A C2A 1_555 1_555
H2A C3A 1_555 1_555
C4A C3A 1_555 1_555
C5A C4A 1_555 1_555
H3A C5A 1_555 1_555
C6A C1A 1_555 1_555
H4A C6A 1_555 1_555
C7A O2A 1_555 1_555
C8A C7A 1_555 1_555
H5A C8A 1_555 1_555
C9A C8A 1_555 1_555
H6A C9A 1_555 1_555
C10A C9A 1_555 1_555
C11A C10A 1_555 1_555
H7A C11A 1_555 1_555
C12A C7A 1_555 1_555
H8A C12A 1_555 1_555
C13A K1 1_555 1_555
C13_2 K1 1_555 1_555
C14A K1 1_555 1_555
C14_2 K1 1_555 1_555
H9A C14A 1_555 1_555
H9_2 C14_2 1_555 1_555
C15A K1 1_555 1_555
C15_2 K1 1_555 1_555
H10A C15A 1_555 1_555
H10_2 C15_2 1_555 1_555
C16A K1 1_555 1_555
C16_2 K1 1_555 1_555
C17A K1 1_555 1_555
C17_2 K1 1_555 1_555
H11A C17A 1_555 1_555
H11_2 C17_2 1_555 1_555
C18A K1 1_555 1_555
C18_2 K1 1_555 1_555
H12A C18A 1_555 1_555
H12_2 C18_2 1_555 1_555
K1 O2 1_555 1_555
C5 C6 1_555 1_555
C11 C12 1_555 1_555
C14 K1_2 1_555 1_555
C15 K1_2 1_555 1_555
C16 K1_2 1_555 1_555
C17 C18 1_555 1_555
C17 K1_2 1_555 1_555
C18 K1_2 1_555 1_555
W1_2 O2A_2 1_555 1_555
K1_2 O1A 1_555 1_555
K1_2 O2A 1_555 1_555
O3A C13A 1_555 1_555
C5A C6A 1_555 1_555
C11A C12A 1_555 1_555
C13A C14A 1_555 1_555
C13A C18A 1_555 1_555
C13_2 C14_2 1_555 1_555
C13_2 C18_2 1_555 1_555
C14A C15A 1_555 1_555
C14_2 C15_2 1_555 1_555
C15A C16A 1_555 1_555
C15_2 C16_2 1_555 1_555
C16A C17A 1_555 1_555
C16_2 C17_2 1_555 1_555
C17A C18A 1_555 1_555
C17_2 C18_2 1_555 1_555

#END
