
#######################################################################
#
#                 Cambridge Crystallographic Data Centre
#                                CCDC 
#
#######################################################################
#
# If this CIF has been generated from an entry in the Cambridge 
# Structural Database, then it will include bibliographic, chemical, 
# crystal, experimental, refinement or atomic coordinate data resulting 
# from the CCDC's data processing and validation procedures.
#
#######################################################################

data_FENBAB
_symmetry_cell_setting           orthorhombic
_symmetry_space_group_name_H-M   'A b a 2'
_symmetry_Int_Tables_number      41
_space_group_name_Hall           'A 2 -2ab'
loop_
_symmetry_equiv_pos_site_id
_symmetry_equiv_pos_as_xyz
1 x,y,z
2 x,1/2+y,1/2+z
3 -x,-y,z
4 1/2-x,1/2+y,z
5 -x,1/2-y,1/2+z
6 1/2-x,y,1/2+z
7 1/2+x,1/2-y,z
8 1/2+x,-y,1/2+z
_cell_length_a                   8.028(2)
_cell_length_b                   20.422(6)
_cell_length_c                   10.129(5)
_cell_angle_alpha                90
_cell_angle_beta                 90
_cell_angle_gamma                90
_cell_volume                     1660.63
loop_
_atom_site_label
_atom_site_type_symbol
_atom_site_fract_x
_atom_site_fract_y
_atom_site_fract_z
Fe1 Fe 0.0000 0.0000 0.0000
S1 S 0.4772(3) 0.1370(1) -0.0079(6)
N1 N 0.1688(9) 0.0757(4) -0.0050(27)
N2 N -0.3627(23) 0.1641(10) -0.3594(13)
N3 N -0.1914(21) 0.1065(10) -0.2070(14)
N4 N -0.1563(24) 0.0434(10) -0.1725(16)
N5 N -0.1558(24) 0.0453(10) 0.1605(15)
C1 C 0.2967(9) 0.1015(4) -0.0052(22)
C2 C -0.1792(27) 0.2201(11) -0.2089(19)
C3 C -0.3002(23) 0.2172(9) -0.3126(16)
C4 C -0.3047(24) 0.1067(10) -0.3066(15)
C5 C -0.1241(30) 0.1604(13) -0.1568(17)
C6 C -0.2462(33) 0.0098(4) -0.2529(20)
H1 H -0.1431 0.2597 -0.1631
H2 H -0.3508 0.2597 -0.3430
H3 H -0.0558 0.1594 -0.0859
H4 H -0.2557 -0.0318 -0.2459
N1B N -0.1688(9) -0.0757(4) -0.0050(27)
N4B N 0.1563(24) -0.0434(10) -0.1725(16)
N5B N 0.1558(24) -0.0453(10) 0.1605(15)
C4E C -0.1953(24) 0.1067(10) 0.1934(15)
C6E C -0.2538(33) 0.0098(4) 0.2471(20)
N5E N -0.3442(24) 0.0453(10) -0.3395(15)
C1B C -0.2967(9) -0.1015(4) -0.0052(22)
N3B N 0.1914(21) -0.1065(10) -0.2070(14)
C6B C 0.2462(33) -0.0098(4) -0.2529(20)
C4G C 0.1953(24) -0.1067(10) 0.1934(15)
C6G C 0.2538(33) -0.0098(4) 0.2471(20)
N2E N -0.1373(23) 0.1641(10) 0.1406(13)
N3E N -0.3086(21) 0.1065(10) 0.2930(14)
N4E N -0.3437(24) 0.0434(10) 0.3275(16)
H4E H -0.2443 -0.0318 0.2541
Fe1E Fe -0.5000 0.0000 -0.5000
S1B S -0.4772(3) -0.1370(1) -0.0079(6)
C4B C 0.3047(24) -0.1067(10) -0.3066(15)
C5B C 0.1241(30) -0.1604(13) -0.1568(17)
N5G N 0.3442(24) -0.0453(10) -0.3395(15)
H4B H 0.2557 0.0318 -0.2459
N2G N 0.1373(23) -0.1641(10) 0.1406(13)
N3G N 0.3086(21) -0.1065(10) 0.2930(14)
N4G N 0.3437(24) -0.0434(10) 0.3275(16)
H4G H 0.2443 0.0318 0.2541
C3E C -0.1998(23) 0.2172(9) 0.1874(16)
C5E C -0.3759(30) 0.1604(13) 0.3432(17)
Fe1E_2 Fe -0.5000 0.0000 0.5000
N1E N -0.6688(9) 0.0757(4) -0.5050(27)
N1G N -0.3312(9) -0.0757(4) -0.5050(27)
N4E_2 N -0.3437(24) 0.0434(10) -0.6725(16)
N4G_2 N -0.6563(24) -0.0434(10) -0.6725(16)
N5G_2 N -0.6558(24) -0.0453(10) -0.3395(15)
N2B N 0.3627(23) -0.1641(10) -0.3594(13)
C2B C 0.1792(27) -0.2201(11) -0.2089(19)
H3B H 0.0558 -0.1594 -0.0859
Fe1E_3 Fe 0.5000 0.0000 -0.5000
C3G C 0.1998(23) -0.2172(9) 0.1874(16)
C5G C 0.3759(30) -0.1604(13) 0.3432(17)
Fe1E_4 Fe 0.5000 0.0000 0.5000
C2E C -0.3208(27) 0.2201(11) 0.2911(19)
H2E H -0.1492 0.2597 0.1570
H3E H -0.4442 0.1594 0.4141
C1E C -0.7967(9) 0.1015(4) -0.5052(22)
C1G C -0.2033(9) -0.1015(4) -0.5052(22)
C3B C 0.3002(23) -0.2172(9) -0.3126(16)
H1B H 0.1431 -0.2597 -0.1631
C2G C 0.3208(27) -0.2201(11) 0.2911(19)
H2G H 0.1492 -0.2597 0.1570
H3G H 0.4442 -0.1594 0.4141
H1E H -0.3569 0.2597 0.3369
S1E S -0.9772(3) 0.1370(1) -0.5079(6)
S1G S -0.0228(3) -0.1370(1) -0.5079(6)
H2B H 0.3508 -0.2597 -0.3430
H1G H 0.3569 -0.2597 0.3369
loop_
_geom_bond_atom_site_label_1
_geom_bond_atom_site_label_2
_geom_bond_site_symmetry_1
_geom_bond_site_symmetry_2
Fe1 N1 1_555 1_555
S1 C1 1_555 1_555
N1 C1 1_555 1_555
N2 C3 1_555 1_555
N3 N4 1_555 1_555
N4 Fe1 1_555 1_555
N5 Fe1 1_555 1_555
C2 C3 1_555 1_555
C3 H2 1_555 1_555
C4 N2 1_555 1_555
C5 N3 1_555 1_555
C6 N4 1_555 1_555
H1 C2 1_555 1_555
H3 C5 1_555 1_555
H4 C6 1_555 1_555
N1B Fe1 1_555 1_555
N4B Fe1 1_555 1_555
N5B Fe1 1_555 1_555
C4E N5 1_555 1_555
C6E N5 1_555 1_555
N5E C4 1_555 1_555
C1B N1B 1_555 1_555
N3B N4B 1_555 1_555
C6B N4B 1_555 1_555
C4G N5B 1_555 1_555
C6G N5B 1_555 1_555
N2E C4E 1_555 1_555
N3E C4E 1_555 1_555
N4E C6E 1_555 1_555
H4E C6E 1_555 1_555
Fe1E N5E 1_555 1_555
S1B C1B 1_555 1_555
C4B N3B 1_555 1_555
C5B N3B 1_555 1_555
N5G C6B 1_555 1_555
H4B C6B 1_555 1_555
N2G C4G 1_555 1_555
N3G C4G 1_555 1_555
N4G C6G 1_555 1_555
H4G C6G 1_555 1_555
C3E N2E 1_555 1_555
C5E N3E 1_555 1_555
Fe1E_2 N4E 1_555 1_555
N1E Fe1E 1_555 1_555
N1G Fe1E 1_555 1_555
N4E_2 Fe1E 1_555 1_555
N4G_2 Fe1E 1_555 1_555
N5G_2 Fe1E 1_555 1_555
N2B C4B 1_555 1_555
C2B C5B 1_555 1_555
H3B C5B 1_555 1_555
Fe1E_3 N5G 1_555 1_555
C3G N2G 1_555 1_555
C5G N3G 1_555 1_555
Fe1E_4 N4G 1_555 1_555
C2E C3E 1_555 1_555
H2E C3E 1_555 1_555
H3E C5E 1_555 1_555
C1E N1E 1_555 1_555
C1G N1G 1_555 1_555
C3B N2B 1_555 1_555
H1B C2B 1_555 1_555
C2G C3G 1_555 1_555
H2G C3G 1_555 1_555
H3G C5G 1_555 1_555
H1E C2E 1_555 1_555
S1E C1E 1_555 1_555
S1G C1G 1_555 1_555
H2B C3B 1_555 1_555
H1G C2G 1_555 1_555
N3 C4 1_555 1_555
C2 C5 1_555 1_555
C6 N5E 1_555 1_555
N3E N4E 1_555 1_555
C4B N5G 1_555 1_555
N3G N4G 1_555 1_555
C5E C2E 1_555 1_555
C2B C3B 1_555 1_555
C5G C2G 1_555 1_555

#END
