
#######################################################################
#
#                 Cambridge Crystallographic Data Centre
#                                CCDC 
#
#######################################################################
#
# If this CIF has been generated from an entry in the Cambridge 
# Structural Database, then it will include bibliographic, chemical, 
# crystal, experimental, refinement or atomic coordinate data resulting 
# from the CCDC's data processing and validation procedures.
#
#######################################################################

data_FENBIK
_symmetry_cell_setting           triclinic
_symmetry_space_group_name_H-M   'P -1'
_symmetry_Int_Tables_number      2
_space_group_name_Hall           '-P 1'
loop_
_symmetry_equiv_pos_site_id
_symmetry_equiv_pos_as_xyz
1 x,y,z
2 -x,-y,-z
_cell_length_a                   11.656(5)
_cell_length_b                   14.191(6)
_cell_length_c                   16.015(6)
_cell_angle_alpha                84.138(9)
_cell_angle_beta                 69.404(8)
_cell_angle_gamma                88.091(9)
_cell_volume                     2466.75
loop_
_atom_site_label
_atom_site_type_symbol
_atom_site_fract_x
_atom_site_fract_y
_atom_site_fract_z
Ho1 Ho 0.84219(6) 0.56708(5) 0.48399(5)
Ho2 Ho 0.64892(7) 0.94284(5) 1.04057(5)
N1 N 0.8817(11) 0.7452(8) 0.4436(8)
N2 N 0.8565(11) 0.6307(9) 0.3247(8)
N3 N 0.5924(11) 0.7961(10) 1.1559(8)
N4 N 0.6489(12) 0.9634(9) 1.1974(9)
O1 O 0.6787(9) 0.6424(7) 0.5755(6)
O2 O 0.4918(10) 0.5844(9) 0.6106(7)
O3 O 0.5637(9) 0.8417(7) 0.9704(6)
O4 O 0.3888(9) 0.8947(7) 0.9531(6)
O5 O 0.7611(10) 0.4396(8) 0.5943(7)
O6 O 0.9553(10) 0.4109(7) 0.5876(7)
O7 O 0.7373(9) 0.0037(7) 0.8901(6)
O8 O 0.5547(9) 0.0403(8) 0.8825(7)
O9 O 0.9063(9) 0.4343(6) 0.4022(6)
O10 O 1.0907(9) 0.3887(7) 0.4042(6)
O11 O 1.0096(10) 0.1082(8) 0.0811(8)
O12 O 1.1960(8) 0.1645(6) 0.0143(6)
O13 O 0.6565(9) 0.5144(8) 0.4651(6)
O14 O 0.8449(9) 1.0154(8) 1.0236(6)
C1 C 0.8894(14) 0.8046(11) 0.4986(10)
H1 H 0.8706 0.7812 0.5583
C2 C 0.9222(17) 0.8976(14) 0.4766(12)
H2 H 0.9267 0.9349 0.5198
C3 C 0.9487(16) 0.9353(13) 0.3887(12)
H3 H 0.9730 0.9982 0.3714
C4 C 0.9384(15) 0.8772(13) 0.3265(10)
C5 C 0.9602(16) 0.9129(13) 0.2335(11)
H4 H 0.9870 0.9749 0.2133
C6 C 0.9422(15) 0.8584(13) 0.1786(11)
H5 H 0.9515 0.8828 0.1205
C7 C 0.9084(16) 0.7613(13) 0.2070(10)
C8 C 0.8919(15) 0.6977(12) 0.1468(11)
H6 H 0.9062 0.7187 0.0870
C9 C 0.8553(16) 0.6071(14) 0.1786(12)
H7 H 0.8390 0.5662 0.1423
C10 C 0.8425(15) 0.5767(12) 0.2672(10)
H8 H 0.8226 0.5134 0.2869
C11 C 0.8869(14) 0.7195(12) 0.2956(10)
C12 C 0.9022(14) 0.7837(12) 0.3577(10)
C13 C 0.5592(17) 0.7148(14) 1.1389(13)
H9 H 0.5573 0.7091 1.0821
C14 C 0.5262(18) 0.6352(15) 1.2038(17)
H10 H 0.5040 0.5782 1.1897
C15 C 0.5276(17) 0.6439(16) 1.2871(13)
H11 H 0.5031 0.5928 1.3307
C16 C 0.5648(19) 0.7272(16) 1.3088(13)
C17 C 0.5648(15) 0.7477(13) 1.3957(12)
H12 H 0.5350 0.7005 1.4427
C18 C 0.6007(18) 0.8220(16) 1.4139(12)
H13 H 0.6106 0.8256 1.4686
C19 C 0.6268(18) 0.9036(16) 1.3462(12)
C20 C 0.6520(18) 0.9919(15) 1.3638(14)
H14 H 0.6543 1.0011 1.4199
C21 C 0.6734(17) 1.0652(13) 1.2996(12)
H15 H 0.6864 1.1259 1.3116
C22 C 0.6754(14) 1.0482(12) 1.2144(11)
H16 H 0.6959 1.0974 1.1687
C23 C 0.6248(14) 0.8919(12) 1.2619(11)
C24 C 0.5904(14) 0.8026(13) 1.2419(9)
C25 C 0.5359(14) 0.6758(12) 0.7165(10)
C26 C 0.6302(14) 0.7161(11) 0.7302(10)
H17 H 0.7093 0.7111 0.6892
C27 C 0.6100(13) 0.7660(11) 0.8067(10)
H18 H 0.6757 0.7937 0.8152
C28 C 0.4965(14) 0.7734(10) 0.8666(9)
C29 C 0.3966(13) 0.7258(10) 0.8607(8)
C30 C 0.4154(15) 0.6760(11) 0.7814(11)
C31 C 0.3094(14) 0.6344(11) 0.7741(11)
H19 H 0.3180 0.6052 0.7228
C32 C 0.1986(14) 0.6359(12) 0.8381(12)
H20 H 0.1322 0.6071 0.8313
C33 C 0.1824(14) 0.6814(11) 0.9166(11)
H21 H 0.1065 0.6805 0.9625
C34 C 0.2781(13) 0.7255(11) 0.9232(10)
H22 H 0.2645 0.7583 0.9732
C35 C 0.5689(15) 0.6281(11) 0.6289(9)
C36 C 0.4784(13) 0.8397(10) 0.9391(10)
C37 C 0.8011(13) 0.2994(11) 0.6740(10)
C38 C 0.8114(14) 0.2920(13) 0.7564(11)
H23 H 0.8444 0.3413 0.7748
C39 C 0.7706(14) 0.2072(11) 0.8138(9)
H24 H 0.7765 0.2033 0.8705
C40 C 0.7241(12) 0.1325(10) 0.7913(10)
C41 C 0.7212(12) 0.1376(11) 0.7011(10)
C42 C 0.7591(12) 0.2196(10) 0.6439(9)
C43 C 0.7582(14) 0.2225(11) 0.5553(10)
H25 H 0.7824 0.2777 0.5170
C44 C 0.7228(15) 0.1466(12) 0.5257(12)
H26 H 0.7226 0.1495 0.4675
C45 C 0.6866(15) 0.0637(12) 0.5835(11)
H27 H 0.6658 0.0106 0.5623
C46 C 0.6812(14) 0.0591(11) 0.6697(11)
H28 H 0.6515 0.0047 0.7082
C47 C 0.8435(16) 0.3874(12) 0.6148(10)
C48 C 0.6644(16) 0.0519(13) 0.8580(10)
C49 C 1.0248(14) 0.3356(11) 0.2935(10)
C50 C 0.9685(15) 0.2539(11) 0.3027(10)
H29 H 0.9127 0.2309 0.3581
C51 C 0.9936(15) 0.2020(12) 0.2278(11)
H30 H 0.9537 0.1443 0.2359
C52 C 1.0705(13) 0.2301(10) 0.1466(10)
C53 C 1.1306(12) 0.3185(11) 0.1345(9)
C54 C 1.1105(13) 0.3716(11) 0.2074(10)
C55 C 1.1664(17) 0.4600(13) 0.1962(12)
H31 H 1.1539 0.4934 0.2457
C56 C 1.240(2) 0.4975(14) 0.1124(12)
H32 H 1.2767 0.5563 0.1054
C57 C 1.2588(18) 0.4478(12) 0.0379(11)
H33 H 1.3067 0.4733 -0.0192
C58 C 1.2043(16) 0.3589(13) 0.0508(11)
H34 H 1.2180 0.3252 0.0013
C59 C 1.0030(14) 0.3917(10) 0.3755(8)
C60 C 1.0931(15) 0.1602(11) 0.0738(10)
Ho1A Ho 1.15781(6) 0.43292(5) 0.51601(5)
Ho2A Ho 0.35108(7) 1.05716(5) 0.95943(5)
Ho2_2 Ho 0.64892(7) -0.05716(5) 1.04057(5)
Ho2A_2 Ho 0.35108(7) 0.05716(5) 0.95943(5)
Ho2A_3 Ho 1.35108(7) 0.05716(5) -0.04057(5)
O4A O 0.6112(9) 1.1053(7) 1.0469(6)
O6A O 1.0447(10) 0.5891(7) 0.4124(7)
O7_2 O 0.7373(9) 1.0037(7) 0.8901(6)
O8A O 0.4453(9) 0.9597(8) 1.1175(7)
O10A O 0.9093(9) 0.6113(7) 0.5958(6)
O12A O 0.8040(8) 0.8355(6) 0.9857(6)
loop_
_geom_bond_atom_site_label_1
_geom_bond_atom_site_label_2
_geom_bond_site_symmetry_1
_geom_bond_site_symmetry_2
Ho1 N1 1_555 1_555
Ho2 N3 1_555 1_555
N1 C1 1_555 1_555
N2 Ho1 1_555 1_555
N3 C13 1_555 1_555
N4 Ho2 1_555 1_555
O1 Ho1 1_555 1_555
O2 C35 1_555 1_555
O3 Ho2 1_555 1_555
O4 C36 1_555 1_555
O5 Ho1 1_555 1_555
O6 C47 1_555 1_555
O7 C48 1_555 1_555
O8 C48 1_555 1_555
O9 Ho1 1_555 1_555
O10 C59 1_555 1_555
O11 C60 1_555 1_555
O12 C60 1_555 1_555
O13 Ho1 1_555 1_555
O14 Ho2 1_555 1_555
C1 H1 1_555 1_555
C2 C1 1_555 1_555
H2 C2 1_555 1_555
C3 C2 1_555 1_555
H3 C3 1_555 1_555
C4 C3 1_555 1_555
C5 C4 1_555 1_555
H4 C5 1_555 1_555
C6 C5 1_555 1_555
H5 C6 1_555 1_555
C7 C6 1_555 1_555
C8 C7 1_555 1_555
H6 C8 1_555 1_555
C9 C8 1_555 1_555
H7 C9 1_555 1_555
C10 N2 1_555 1_555
H8 C10 1_555 1_555
C11 N2 1_555 1_555
C12 N1 1_555 1_555
C13 H9 1_555 1_555
C14 C13 1_555 1_555
H10 C14 1_555 1_555
C15 C14 1_555 1_555
H11 C15 1_555 1_555
C16 C15 1_555 1_555
C17 C16 1_555 1_555
H12 C17 1_555 1_555
C18 C17 1_555 1_555
H13 C18 1_555 1_555
C19 C18 1_555 1_555
C20 C19 1_555 1_555
H14 C20 1_555 1_555
C21 C20 1_555 1_555
H15 C21 1_555 1_555
C22 N4 1_555 1_555
H16 C22 1_555 1_555
C23 N4 1_555 1_555
C24 N3 1_555 1_555
C25 C26 1_555 1_555
C26 H17 1_555 1_555
C27 C26 1_555 1_555
H18 C27 1_555 1_555
C28 C27 1_555 1_555
C29 C28 1_555 1_555
C30 C25 1_555 1_555
C31 C30 1_555 1_555
H19 C31 1_555 1_555
C32 C31 1_555 1_555
H20 C32 1_555 1_555
C33 C32 1_555 1_555
H21 C33 1_555 1_555
C34 C29 1_555 1_555
H22 C34 1_555 1_555
C35 O1 1_555 1_555
C36 O3 1_555 1_555
C37 C38 1_555 1_555
C38 H23 1_555 1_555
C39 C38 1_555 1_555
H24 C39 1_555 1_555
C40 C39 1_555 1_555
C41 C40 1_555 1_555
C42 C37 1_555 1_555
C43 C42 1_555 1_555
H25 C43 1_555 1_555
C44 C43 1_555 1_555
H26 C44 1_555 1_555
C45 C44 1_555 1_555
H27 C45 1_555 1_555
C46 C41 1_555 1_555
H28 C46 1_555 1_555
C47 O5 1_555 1_555
C48 C40 1_555 1_555
C49 C50 1_555 1_555
C50 H29 1_555 1_555
C51 C50 1_555 1_555
H30 C51 1_555 1_555
C52 C51 1_555 1_555
C53 C52 1_555 1_555
C54 C49 1_555 1_555
C55 C54 1_555 1_555
H31 C55 1_555 1_555
C56 C55 1_555 1_555
H32 C56 1_555 1_555
C57 C56 1_555 1_555
H33 C57 1_555 1_555
C58 C53 1_555 1_555
H34 C58 1_555 1_555
C59 O9 1_555 1_555
C60 C52 1_555 1_555
Ho1A O6 1_555 1_555
Ho2A O4 1_555 1_555
Ho2_2 O7 1_555 1_555
Ho2A_2 O8 1_555 1_555
Ho2A_3 O12 1_555 1_555
O4A Ho2 1_555 1_555
O6A Ho1 1_555 1_555
O7_2 Ho2 1_555 1_555
O8A Ho2 1_555 1_555
O10A Ho1 1_555 1_555
O12A Ho2 1_555 1_555
O10 Ho1A 1_555 1_555
C4 C12 1_555 1_555
C7 C11 1_555 1_555
C9 C10 1_555 1_555
C11 C12 1_555 1_555
C16 C24 1_555 1_555
C19 C23 1_555 1_555
C21 C22 1_555 1_555
C23 C24 1_555 1_555
C25 C35 1_555 1_555
C28 C36 1_555 1_555
C29 C30 1_555 1_555
C33 C34 1_555 1_555
C37 C47 1_555 1_555
C41 C42 1_555 1_555
C45 C46 1_555 1_555
C49 C59 1_555 1_555
C53 C54 1_555 1_555
C57 C58 1_555 1_555

#END
