
#######################################################################
#
#                 Cambridge Crystallographic Data Centre
#                                CCDC 
#
#######################################################################
#
# If this CIF has been generated from an entry in the Cambridge 
# Structural Database, then it will include bibliographic, chemical, 
# crystal, experimental, refinement or atomic coordinate data resulting 
# from the CCDC's data processing and validation procedures.
#
#######################################################################

data_FENBUW
_symmetry_cell_setting           monoclinic
_symmetry_space_group_name_H-M   'P 21/n'
_symmetry_Int_Tables_number      14
_space_group_name_Hall           '-P 2yn'
loop_
_symmetry_equiv_pos_site_id
_symmetry_equiv_pos_as_xyz
1 x,y,z
2 1/2-x,1/2+y,1/2-z
3 -x,-y,-z
4 1/2+x,1/2-y,1/2+z
_cell_length_a                   9.5611(19)
_cell_length_b                   10.756(2)
_cell_length_c                   9.763(2)
_cell_angle_alpha                90
_cell_angle_beta                 114.25(3)
_cell_angle_gamma                90
_cell_volume                     915.426
loop_
_atom_site_label
_atom_site_type_symbol
_atom_site_fract_x
_atom_site_fract_y
_atom_site_fract_z
Cd1 Cd 0.5000 0.5000 0.5000
O1 O 0.84883(15) 0.28263(14) 0.21372(15)
O2 O 0.63307(14) 0.68445(11) 0.52218(13)
N1 N 0.55064(17) 0.43762(14) 0.28658(17)
N2 N 0.76471(16) 0.91123(14) 0.82566(16)
C1 C 0.6870(2) 0.39274(17) 0.3002(2)
C2 C 0.7067(2) 0.32502(16) 0.18669(19)
C3 C 0.5790(2) 0.30455(18) 0.0533(2)
C4 C 0.4394(2) 0.35284(19) 0.0385(2)
C5 C 0.4291(2) 0.41815(18) 0.1563(2)
C6 C 0.76202(19) 0.81666(16) 0.73396(19)
C7 C 0.62851(19) 0.77610(15) 0.61200(18)
C8 C 0.4928(2) 0.83927(17) 0.5909(2)
C9 C 0.4952(2) 0.93555(19) 0.6858(2)
C10 C 0.6324(2) 0.97004(17) 0.8010(2)
H1 H 0.7724 0.4073 0.3893
H2 H 0.5871 0.2594 -0.0243
H3 H 0.3526 0.3415 -0.0503
H4 H 0.3343 0.4497 0.1446
H5 H 0.8537 0.7757 0.7522
H6 H 0.4008 0.8163 0.5128
H7 H 0.4050 0.9769 0.6721
H8 H 0.6332 1.0357 0.8632
H9 H 0.853(3) 0.245(2) 0.140(2)
Cd1C Cd 1.0000 1.0000 1.0000
Cd1C_2 Cd 0.0000 0.0000 0.0000
O1B O 0.15117(15) 0.71737(14) 0.78628(15)
O2B O 0.36693(14) 0.31555(11) 0.47782(13)
N1B N 0.44936(17) 0.56238(14) 0.71342(17)
N2B N 0.23529(16) 0.08877(14) 0.17434(16)
N2C N 0.26471(16) 0.58877(14) 0.32566(16)
N2A N 0.73529(16) 0.41123(14) 0.67434(16)
C1B C 0.3130(2) 0.60726(17) 0.6998(2)
C2B C 0.2933(2) 0.67498(16) 0.81331(19)
C3B C 0.4210(2) 0.69545(18) 0.9467(2)
C4B C 0.5606(2) 0.64716(19) 0.9615(2)
C5B C 0.5709(2) 0.58185(18) 0.8437(2)
C6B C 0.23798(19) 0.18334(16) 0.26604(19)
C7B C 0.37149(19) 0.22390(15) 0.38800(18)
C8B C 0.5072(2) 0.16073(17) 0.4091(2)
C9B C 0.5048(2) 0.06445(19) 0.3142(2)
C10B C 0.3676(2) 0.02996(17) 0.1990(2)
H1B H 0.2276 0.5927 0.6107
H2B H 0.4129 0.7406 1.0243
H3B H 0.6474 0.6585 1.0503
H4B H 0.6657 0.5503 0.8554
H5B H 0.1463 0.2243 0.2478
H6B H 0.5992 0.1837 0.4872
H7B H 0.5950 0.0231 0.3279
H8B H 0.3668 -0.0357 0.1368
H9B H 0.147(3) 0.755(2) 0.860(2)
loop_
_geom_bond_atom_site_label_1
_geom_bond_atom_site_label_2
_geom_bond_site_symmetry_1
_geom_bond_site_symmetry_2
Cd1 O2 1_555 1_555
O1 C2 1_555 1_555
O2 C7 1_555 1_555
N1 Cd1 1_555 1_555
N2 C6 1_555 1_555
C1 N1 1_555 1_555
C2 C1 1_555 1_555
C3 C2 1_555 1_555
C4 C3 1_555 1_555
C5 N1 1_555 1_555
C6 C7 1_555 1_555
C7 C8 1_555 1_555
C8 C9 1_555 1_555
C9 C10 1_555 1_555
C10 N2 1_555 1_555
H1 C1 1_555 1_555
H2 C3 1_555 1_555
H3 C4 1_555 1_555
H4 C5 1_555 1_555
H5 C6 1_555 1_555
H6 C8 1_555 1_555
H7 C9 1_555 1_555
H8 C10 1_555 1_555
H9 O1 1_555 1_555
Cd1C N2 1_555 1_555
Cd1C_2 N2B 1_555 1_555
O1B C2B 1_555 1_555
O2B Cd1 1_555 1_555
N1B Cd1 1_555 1_555
N2B C6B 1_555 1_555
N2C Cd1 1_555 1_555
N2A Cd1 1_555 1_555
C1B N1B 1_555 1_555
C2B C1B 1_555 1_555
C3B C2B 1_555 1_555
C4B C3B 1_555 1_555
C5B N1B 1_555 1_555
C6B C7B 1_555 1_555
C7B O2B 1_555 1_555
C8B C7B 1_555 1_555
C9B C8B 1_555 1_555
C10B N2B 1_555 1_555
H1B C1B 1_555 1_555
H2B C3B 1_555 1_555
H3B C4B 1_555 1_555
H4B C5B 1_555 1_555
H5B C6B 1_555 1_555
H6B C8B 1_555 1_555
H7B C9B 1_555 1_555
H8B C10B 1_555 1_555
H9B O1B 1_555 1_555
C4 C5 1_555 1_555
C4B C5B 1_555 1_555
C9B C10B 1_555 1_555

#END
