
#######################################################################
#
#                 Cambridge Crystallographic Data Centre
#                                CCDC 
#
#######################################################################
#
# If this CIF has been generated from an entry in the Cambridge 
# Structural Database, then it will include bibliographic, chemical, 
# crystal, experimental, refinement or atomic coordinate data resulting 
# from the CCDC's data processing and validation procedures.
#
#######################################################################

data_FENBIL
_symmetry_cell_setting           monoclinic
_symmetry_space_group_name_H-M   'P 21/n'
_symmetry_Int_Tables_number      14
_space_group_name_Hall           '-P 2yn'
loop_
_symmetry_equiv_pos_site_id
_symmetry_equiv_pos_as_xyz
1 x,y,z
2 1/2-x,1/2+y,1/2-z
3 -x,-y,-z
4 1/2+x,1/2-y,1/2+z
_cell_length_a                   12.605(5)
_cell_length_b                   8.774(3)
_cell_length_c                   16.706(6)
_cell_angle_alpha                90
_cell_angle_beta                 98.571(5)
_cell_angle_gamma                90
_cell_volume                     1826.99
loop_
_atom_site_label
_atom_site_type_symbol
_atom_site_fract_x
_atom_site_fract_y
_atom_site_fract_z
Co1 Co 0.77899(5) 0.79954(7) 1.05864(4)
O1 O 0.8339(3) 0.6534(4) 0.9652(2)
O2 O 0.9340(3) 0.8343(4) 1.0261(2)
C1 C 1.0089(4) 0.6944(5) 0.9274(3)
C2 C 0.9199(4) 0.7294(5) 0.9744(3)
C3 C 0.5554(4) 0.7914(5) 0.9923(3)
N1 N 0.4537(3) 0.7371(5) 0.9824(3)
H1 H 0.4029 0.7578 0.9436
N2 N 0.7016(3) 0.9362(4) 0.9576(3)
N3 N 0.5477(3) 0.9693(4) 0.8730(3)
H2 H 0.4813 0.9598 0.8525
C4 C 1.0780(4) 0.8100(5) 0.9116(3)
H3 H 1.0671 0.9094 0.9278
N4 N 0.6169(3) 0.7400(5) 1.0569(3)
C5 C 1.0247(4) 0.5434(5) 0.9018(3)
H4 H 0.9766 0.4669 0.9104
C6 C 0.4483(4) 0.6419(5) 1.0472(3)
C7 C 1.1133(4) 0.5102(5) 0.8634(3)
C8 C 0.6232(4) 1.0600(5) 0.8439(3)
C9 C 0.5982(4) 0.8983(5) 0.9399(3)
C10 C 1.1636(4) 0.7757(5) 0.8712(3)
C11 C 0.7190(4) 1.0377(5) 0.8964(3)
C12 C 0.5502(4) 0.6462(6) 1.0943(3)
C13 C 1.1811(4) 0.6260(5) 0.8484(3)
H5 H 1.2398 0.6041 0.8225
C14 C 0.6161(5) 1.1571(6) 0.7777(3)
H6 H 0.5521 1.1705 0.7428
C15 C 0.8039(5) 1.2097(6) 0.8181(4)
H7 H 0.8648 1.2616 0.8077
C16 C 0.3854(5) 0.4735(6) 1.1396(4)
H8 H 0.3318 0.4124 1.1553
C17 C 0.8125(4) 1.1139(6) 0.8843(3)
H9 H 0.8768 1.1009 0.9189
C18 C 0.3643(4) 0.5556(6) 1.0686(3)
H10 H 0.2973 0.5532 1.0365
C19 C 0.4864(4) 0.4802(6) 1.1892(3)
H11 H 0.4971 0.4258 1.2375
C20 C 0.5693(4) 0.5653(6) 1.1675(3)
H12 H 0.6357 0.5692 1.2003
C21 C 0.7077(5) 1.2320(6) 0.7662(4)
H13 H 0.7059 1.2992 0.7230
O3 O 1.3317(3) 0.8631(4) 0.8400(2)
N5 N 1.1347(3) 0.3537(4) 0.8431(3)
C22 C 1.2402(4) 0.8999(5) 0.8543(3)
O4 O 1.2070(3) 1.0373(4) 0.8558(2)
Co1B Co 1.22101(5) 0.20046(7) 0.94136(4)
Co1B_2 Co 1.22101(5) 1.20046(7) 0.94136(4)
N5B N 0.8653(3) 0.6463(4) 1.1569(3)
O4B O 0.7930(3) 0.9627(4) 1.1442(2)
loop_
_geom_bond_atom_site_label_1
_geom_bond_atom_site_label_2
_geom_bond_site_symmetry_1
_geom_bond_site_symmetry_2
Co1 O1 1_555 1_555
O1 C2 1_555 1_555
O2 Co1 1_555 1_555
C1 C2 1_555 1_555
C2 O2 1_555 1_555
C3 N1 1_555 1_555
N1 H1 1_555 1_555
N2 Co1 1_555 1_555
N3 H2 1_555 1_555
C4 C1 1_555 1_555
H3 C4 1_555 1_555
N4 Co1 1_555 1_555
C5 C1 1_555 1_555
H4 C5 1_555 1_555
C6 N1 1_555 1_555
C7 C5 1_555 1_555
C8 N3 1_555 1_555
C9 C3 1_555 1_555
C10 C4 1_555 1_555
C11 N2 1_555 1_555
C12 N4 1_555 1_555
C13 C7 1_555 1_555
H5 C13 1_555 1_555
C14 C8 1_555 1_555
H6 C14 1_555 1_555
C15 H7 1_555 1_555
C16 H8 1_555 1_555
C17 C11 1_555 1_555
H9 C17 1_555 1_555
C18 C6 1_555 1_555
H10 C18 1_555 1_555
C19 C16 1_555 1_555
H11 C19 1_555 1_555
C20 C12 1_555 1_555
H12 C20 1_555 1_555
C21 C14 1_555 1_555
H13 C21 1_555 1_555
O3 C22 1_555 1_555
N5 C7 1_555 1_555
C22 C10 1_555 1_555
O4 C22 1_555 1_555
Co1B N5 1_555 1_555
Co1B_2 O4 1_555 1_555
N5B Co1 1_555 1_555
O4B Co1 1_555 1_555
C3 N4 1_555 1_555
N2 C9 1_555 1_555
N3 C9 1_555 1_555
C6 C12 1_555 1_555
C8 C11 1_555 1_555
C10 C13 1_555 1_555
C15 C17 1_555 1_555
C15 C21 1_555 1_555
C16 C18 1_555 1_555
C19 C20 1_555 1_555

#END
