
#######################################################################
#
#                 Cambridge Crystallographic Data Centre
#                                CCDC 
#
#######################################################################
#
# If this CIF has been generated from an entry in the Cambridge 
# Structural Database, then it will include bibliographic, chemical, 
# crystal, experimental, refinement or atomic coordinate data resulting 
# from the CCDC's data processing and validation procedures.
#
#######################################################################

data_FENFAF
_symmetry_cell_setting           monoclinic
_symmetry_space_group_name_H-M   'P 21/c'
_symmetry_Int_Tables_number      14
_space_group_name_Hall           '-P 2ybc'
loop_
_symmetry_equiv_pos_site_id
_symmetry_equiv_pos_as_xyz
1 x,y,z
2 -x,1/2+y,1/2-z
3 -x,-y,-z
4 x,1/2-y,1/2+z
_cell_length_a                   14.918(4)
_cell_length_b                   18.972(5)
_cell_length_c                   14.514(6)
_cell_angle_alpha                90
_cell_angle_beta                 95.18(3)
_cell_angle_gamma                90
_cell_volume                     4091.04
loop_
_atom_site_label
_atom_site_type_symbol
_atom_site_fract_x
_atom_site_fract_y
_atom_site_fract_z
La1 La 0.42549(3) 0.08986(2) 0.04815(3)
La2 La 0.07160(3) 0.40801(2) 0.02970(3)
La3 La 0.23843(3) 0.25686(2) 0.19157(3)
O1 O 0.5036(4) 0.0271(3) 0.1919(4)
O2 O 0.3562(4) 0.0296(3) 0.1866(4)
O3 O 0.2619(4) 0.0889(4) 0.0079(5)
O4 O 0.1924(4) 0.1829(3) 0.0575(4)
O5 O 0.4204(4) -0.0386(3) 0.0078(4)
O6 O 0.4161(4) -0.1452(3) -0.0491(5)
O7 O -0.0110(4) 0.5048(3) 0.0997(4)
O8 O -0.1170(4) 0.5730(3) 0.1442(4)
O9 O 0.1355(5) 0.4209(4) 0.1968(5)
O10 O 0.2686(4) 0.3812(3) 0.2511(4)
O11 O -0.0929(4) 0.3863(4) -0.0005(5)
O12 O -0.1688(4) 0.4858(3) -0.0321(5)
O13 O 0.2206(4) 0.3496(3) 0.0477(4)
O14 O 0.3570(4) 0.3152(3) 0.0902(4)
O15 O 0.4009(4) 0.1819(3) 0.1656(4)
O16 O 0.3946(4) 0.2561(3) 0.2807(4)
O17 O 0.0598(4) 0.2962(3) 0.1197(5)
O18 O 0.0771(4) 0.2284(4) 0.2409(4)
C1 C 0.4290(7) 0.0073(4) 0.2211(6)
C2 C 0.4395(9) -0.0477(6) 0.2977(8)
C3 C 0.1934(6) 0.1256(5) 0.0184(6)
C4 C 0.1085(6) 0.0933(6) -0.0303(9)
C5 C 0.3799(6) -0.0964(4) -0.0088(6)
C6 C 0.2880(7) -0.1011(5) 0.0262(8)
C7 C -0.0670(6) 0.5214(5) 0.1570(6)
C8 C -0.0683(10) 0.4696(9) 0.2374(10)
C9 C 0.2092(6) 0.4276(5) 0.2411(6)
C10 C 0.2357(7) 0.4967(5) 0.2909(8)
C11 C -0.1615(6) 0.4206(5) -0.0286(7)
C12 C -0.2421(7) 0.3735(5) -0.0580(9)
C13 C 0.3043(5) 0.3530(4) 0.0415(5)
C14 C 0.3338(6) 0.4052(5) -0.0274(7)
C15 C 0.4386(6) 0.2171(4) 0.2322(6)
C16 C 0.5386(6) 0.2096(6) 0.2463(7)
C17 C 0.0284(5) 0.2598(5) 0.1812(6)
C18 C -0.0728(6) 0.2537(7) 0.1740(7)
Cl1 Cl 0.3343(4) -0.0776(3) 0.3285(3)
Cl2 Cl 0.0074(2) 0.1318(2) 0.0024(3)
Cl3 Cl 0.2333(2) -0.1821(2) -0.0021(3)
Cl4 Cl -0.1286(4) 0.4932(3) 0.3236(3)
Cl5 Cl 0.1490(3) 0.5595(2) 0.2867(3)
Cl6 Cl -0.3383(2) 0.4223(2) -0.1018(3)
Cl7 Cl 0.4496(2) 0.3986(2) -0.0427(2)
Cl8 Cl 0.5867(2) 0.2601(2) 0.3417(2)
Cl9 Cl -0.1154(2) 0.2666(3) 0.2817(3)
O19 O 0.4031(4) 0.2117(3) -0.0308(4)
O20 O 0.0607(5) 0.2959(3) -0.0743(4)
O21 O 0.2412(4) 0.1317(3) 0.2513(4)
O22 O 0.2284(5) 0.2617(4) 0.3672(4)
O23 O 0.4132(4) 0.0854(3) -0.1258(4)
O5B O 0.5796(4) 0.0386(3) -0.0078(4)
O6B O 0.5839(4) 0.1452(3) 0.0491(5)
O7B O 0.0110(4) 0.4952(3) -0.0997(4)
O8B O 0.1170(4) 0.4270(3) -0.1442(4)
O12B O 0.1688(4) 0.5142(3) 0.0321(5)
La1B La 0.57451(3) -0.08986(2) -0.04815(3)
La2B La -0.07160(3) 0.59199(2) -0.02970(3)
loop_
_geom_bond_atom_site_label_1
_geom_bond_atom_site_label_2
_geom_bond_site_symmetry_1
_geom_bond_site_symmetry_2
La1 O1 1_555 1_555
La2 O7 1_555 1_555
La3 O4 1_555 1_555
O1 C1 1_555 1_555
O2 La1 1_555 1_555
O3 La1 1_555 1_555
O4 C3 1_555 1_555
O5 La1 1_555 1_555
O6 C5 1_555 1_555
O7 C7 1_555 1_555
O8 C7 1_555 1_555
O9 La2 1_555 1_555
O10 La3 1_555 1_555
O11 La2 1_555 1_555
O12 C11 1_555 1_555
O13 La2 1_555 1_555
O14 La3 1_555 1_555
O15 La1 1_555 1_555
O16 La3 1_555 1_555
O17 La2 1_555 1_555
O18 La3 1_555 1_555
C1 O2 1_555 1_555
C2 C1 1_555 1_555
C3 O3 1_555 1_555
C4 C3 1_555 1_555
C5 O5 1_555 1_555
C6 C5 1_555 1_555
C7 C8 1_555 1_555
C8 Cl4 1_555 1_555
C9 O9 1_555 1_555
C10 C9 1_555 1_555
C11 O11 1_555 1_555
C12 C11 1_555 1_555
C13 O13 1_555 1_555
C14 C13 1_555 1_555
C15 O15 1_555 1_555
C16 C15 1_555 1_555
C17 O17 1_555 1_555
C18 C17 1_555 1_555
Cl1 C2 1_555 1_555
Cl2 C4 1_555 1_555
Cl3 C6 1_555 1_555
Cl5 C10 1_555 1_555
Cl6 C12 1_555 1_555
Cl7 C14 1_555 1_555
Cl8 C16 1_555 1_555
Cl9 C18 1_555 1_555
O19 La1 1_555 1_555
O20 La2 1_555 1_555
O21 La3 1_555 1_555
O22 La3 1_555 1_555
O23 La1 1_555 1_555
O5B La1 1_555 1_555
O6B La1 1_555 1_555
O7B La2 1_555 1_555
O8B La2 1_555 1_555
O12B La2 1_555 1_555
La1B O5 1_555 1_555
La2B O7 1_555 1_555
La3 O13 1_555 1_555
La3 O15 1_555 1_555
La3 O17 1_555 1_555
O6 La1B 1_555 1_555
O8 La2B 1_555 1_555
O10 C9 1_555 1_555
O12 La2B 1_555 1_555
O14 C13 1_555 1_555
O16 C15 1_555 1_555
O18 C17 1_555 1_555
O5B La1B 1_555 1_555
O7B La2B 1_555 1_555

#END
