
#######################################################################
#
#                 Cambridge Crystallographic Data Centre
#                                CCDC 
#
#######################################################################
#
# If this CIF has been generated from an entry in the Cambridge 
# Structural Database, then it will include bibliographic, chemical, 
# crystal, experimental, refinement or atomic coordinate data resulting 
# from the CCDC's data processing and validation procedures.
#
#######################################################################

data_FENKEP
_symmetry_cell_setting           orthorhombic
_symmetry_space_group_name_H-M   'P m n 21'
_symmetry_Int_Tables_number      31
_space_group_name_Hall           'P 2ac -2'
loop_
_symmetry_equiv_pos_site_id
_symmetry_equiv_pos_as_xyz
1 x,y,z
2 1/2-x,-y,1/2+z
3 -x,y,z
4 1/2+x,-y,1/2+z
_cell_length_a                   23.3524(7)
_cell_length_b                   5.6413(1)
_cell_length_c                   7.9593(2)
_cell_angle_alpha                90
_cell_angle_beta                 90
_cell_angle_gamma                90
_cell_volume                     1048.54
loop_
_atom_site_label
_atom_site_type_symbol
_atom_site_fract_x
_atom_site_fract_y
_atom_site_fract_z
Au1 Au 0.0000 0.70517(8) 0.12446(5)
Tl1 Tl 0.0000 1.15636(8) -0.07789(7)
C1 C 0.0884(3) 0.7259(12) 0.1296(12)
C2 C 0.1270(3) 0.5724(15) 0.0580(10)
C3 C 0.1861(3) 0.5979(16) 0.0669(11)
C4 C 0.2085(4) 0.7875(14) 0.1533(11)
C5 C 0.1719(4) 0.9523(14) 0.2258(13)
C6 C 0.1134(4) 0.9144(16) 0.2135(12)
F1 F 0.1093(3) 0.3826(12) -0.0344(10)
F2 F 0.2213(2) 0.4412(12) -0.0077(9)
F3 F 0.2657(2) 0.8144(11) 0.1659(9)
F4 F 0.1939(3) 1.1351(12) 0.3094(11)
F5 F 0.0804(3) 1.0783(12) 0.2904(9)
N1 N 0.0582(3) 0.8905(14) -0.2999(11)
C7 C 0.1153(4) 0.8978(18) -0.2966(14)
H1 H 0.1331 1.0258 -0.2447
C8 C 0.1489(4) 0.7242(19) -0.3667(18)
H2 H 0.1886 0.7334 -0.3607
C9 C 0.1227(4) 0.5360(18) -0.4461(14)
H3 H 0.1444 0.4180 -0.4970
C10 C 0.0637(5) 0.5260(18) -0.4486(15)
H4 H 0.0450 0.3992 -0.4993
C11 C 0.0326(4) 0.7073(14) -0.3744(14)
Au1_2 Au 0.0000 1.70517(8) 0.12446(5)
Tl1_2 Tl 0.0000 0.15636(8) -0.07789(7)
C1B C -0.0884(3) 0.7259(12) 0.1296(12)
C2B C -0.1270(3) 0.5724(15) 0.0580(10)
C3B C -0.1861(3) 0.5979(16) 0.0669(11)
C4B C -0.2085(4) 0.7875(14) 0.1533(11)
C5B C -0.1719(4) 0.9523(14) 0.2258(13)
C6B C -0.1134(4) 0.9144(16) 0.2135(12)
F1B F -0.1093(3) 0.3826(12) -0.0344(10)
F2B F -0.2213(2) 0.4412(12) -0.0077(9)
F3B F -0.2657(2) 0.8144(11) 0.1659(9)
F4B F -0.1939(3) 1.1351(12) 0.3094(11)
F5B F -0.0804(3) 1.0783(12) 0.2904(9)
N1B N -0.0582(3) 0.8905(14) -0.2999(11)
C7B C -0.1153(4) 0.8978(18) -0.2966(14)
H1B H -0.1331 1.0258 -0.2447
C8B C -0.1489(4) 0.7242(19) -0.3667(18)
H2B H -0.1886 0.7334 -0.3607
C9B C -0.1227(4) 0.5360(18) -0.4461(14)
H3B H -0.1444 0.4180 -0.4970
C10B C -0.0637(5) 0.5260(18) -0.4486(15)
H4B H -0.0450 0.3992 -0.4993
C11B C -0.0326(4) 0.7073(14) -0.3744(14)
loop_
_geom_bond_atom_site_label_1
_geom_bond_atom_site_label_2
_geom_bond_site_symmetry_1
_geom_bond_site_symmetry_2
Au1 Tl1 1_555 1_555
Tl1 N1 1_555 1_555
C1 Au1 1_555 1_555
C2 C1 1_555 1_555
C3 C2 1_555 1_555
C4 C3 1_555 1_555
C5 C4 1_555 1_555
C6 C1 1_555 1_555
F1 C2 1_555 1_555
F2 C3 1_555 1_555
F3 C4 1_555 1_555
F4 C5 1_555 1_555
F5 C6 1_555 1_555
N1 C7 1_555 1_555
C7 H1 1_555 1_555
C8 C7 1_555 1_555
H2 C8 1_555 1_555
C9 C8 1_555 1_555
H3 C9 1_555 1_555
C10 C9 1_555 1_555
H4 C10 1_555 1_555
C11 N1 1_555 1_555
Au1_2 Tl1 1_555 1_555
Tl1_2 Au1 1_555 1_555
C1B Au1 1_555 1_555
C2B C1B 1_555 1_555
C3B C2B 1_555 1_555
C4B C3B 1_555 1_555
C5B C4B 1_555 1_555
C6B C1B 1_555 1_555
F1B C2B 1_555 1_555
F2B C3B 1_555 1_555
F3B C4B 1_555 1_555
F4B C5B 1_555 1_555
F5B C6B 1_555 1_555
N1B Tl1 1_555 1_555
C7B N1B 1_555 1_555
H1B C7B 1_555 1_555
C8B C7B 1_555 1_555
H2B C8B 1_555 1_555
C9B C8B 1_555 1_555
H3B C9B 1_555 1_555
C10B C9B 1_555 1_555
H4B C10B 1_555 1_555
C11B C11 1_555 1_555
C5 C6 1_555 1_555
C10 C11 1_555 1_555
C5B C6B 1_555 1_555
N1B C11B 1_555 1_555
C10B C11B 1_555 1_555

#END
