
#######################################################################
#
#                 Cambridge Crystallographic Data Centre
#                                CCDC 
#
#######################################################################
#
# If this CIF has been generated from an entry in the Cambridge 
# Structural Database, then it will include bibliographic, chemical, 
# crystal, experimental, refinement or atomic coordinate data resulting 
# from the CCDC's data processing and validation procedures.
#
#######################################################################

data_FENKAL
_symmetry_cell_setting           orthorhombic
_symmetry_space_group_name_H-M   'P n m a'
_symmetry_Int_Tables_number      62
_space_group_name_Hall           '-P 2ac 2n'
loop_
_symmetry_equiv_pos_site_id
_symmetry_equiv_pos_as_xyz
1 x,y,z
2 1/2-x,-y,1/2+z
3 -x,1/2+y,-z
4 1/2+x,1/2-y,1/2-z
5 -x,-y,-z
6 1/2+x,y,1/2-z
7 x,1/2-y,z
8 1/2-x,1/2+y,1/2+z
_cell_length_a                   11.7075(16)
_cell_length_b                   22.868(3)
_cell_length_c                   8.1220(11)
_cell_angle_alpha                90
_cell_angle_beta                 90
_cell_angle_gamma                90
_cell_volume                     2174.48
loop_
_atom_site_label
_atom_site_type_symbol
_atom_site_fract_x
_atom_site_fract_y
_atom_site_fract_z
Tl1 Tl 0.180950(11) 0.2500 0.261150(17)
Au1 Au 0.425579(11) 0.2500 0.120814(17)
C1 C 0.4141(2) 0.34001(11) 0.1136(3)
C2 C 0.3275(2) 0.36583(11) 0.0226(3)
C3 C 0.3077(2) 0.42536(12) 0.0140(3)
C4 C 0.3790(3) 0.46278(11) 0.0979(4)
C5 C 0.4674(2) 0.44017(11) 0.1900(4)
C6 C 0.4821(2) 0.38019(11) 0.1960(3)
F1 F 0.25431(14) 0.33163(7) -0.0642(2)
F2 F 0.22132(16) 0.44738(8) -0.0773(2)
F3 F 0.36353(17) 0.52110(7) 0.0890(2)
F4 F 0.53777(17) 0.47651(7) 0.2712(2)
F5 F 0.57053(13) 0.36186(7) 0.2920(2)
N1 N 0.28803(19) 0.31029(9) 0.4976(3)
C7 C 0.2881(3) 0.36813(12) 0.4996(3)
H1 H 0.2282 0.3880 0.4440
C8 C 0.3720(3) 0.40184(13) 0.5793(4)
H2 H 0.3685 0.4433 0.5781
C9 C 0.4585(3) 0.37343(14) 0.6586(4)
H3 H 0.5167 0.3952 0.7125
C10 C 0.4616(2) 0.31198(13) 0.6606(3)
C11 C 0.3734(2) 0.28144(12) 0.5774(3)
C12 C 0.5492(2) 0.27942(15) 0.7426(4)
H4 H 0.6086 0.2998 0.7982
Tl1E Tl 0.680950(11) 0.2500 0.238850(17)
Au1E Au -0.074421(11) 0.2500 0.379186(17)
C1F C 0.4141(2) 0.15999(11) 0.1136(3)
C2F C 0.3275(2) 0.13417(11) 0.0226(3)
C3F C 0.3077(2) 0.07464(12) 0.0140(3)
C4F C 0.3790(3) 0.03722(11) 0.0979(4)
C5F C 0.4674(2) 0.05983(11) 0.1900(4)
C6F C 0.4821(2) 0.11981(11) 0.1960(3)
F1F F 0.25431(14) 0.16837(7) -0.0642(2)
F2F F 0.22132(16) 0.05262(8) -0.0773(2)
F3F F 0.36353(17) -0.02110(7) 0.0890(2)
F4F F 0.53777(17) 0.02349(7) 0.2712(2)
F5F F 0.57053(13) 0.13814(7) 0.2920(2)
N1F N 0.28803(19) 0.18971(9) 0.4976(3)
C7F C 0.2881(3) 0.13187(12) 0.4996(3)
H1F H 0.2282 0.1120 0.4440
C8F C 0.3720(3) 0.09816(13) 0.5793(4)
H2F H 0.3685 0.0567 0.5781
C9F C 0.4585(3) 0.12657(14) 0.6586(4)
H3F H 0.5167 0.1048 0.7125
C10F C 0.4616(2) 0.18802(13) 0.6606(3)
C11F C 0.3734(2) 0.21856(12) 0.5774(3)
C12F C 0.5492(2) 0.22058(15) 0.7426(4)
H4F H 0.6086 0.2002 0.7982
loop_
_geom_bond_atom_site_label_1
_geom_bond_atom_site_label_2
_geom_bond_site_symmetry_1
_geom_bond_site_symmetry_2
Tl1 Au1 1_555 1_555
Au1 C1 1_555 1_555
C1 C2 1_555 1_555
C2 C3 1_555 1_555
C3 C4 1_555 1_555
C4 C5 1_555 1_555
C5 C6 1_555 1_555
C6 C1 1_555 1_555
F1 C2 1_555 1_555
F2 C3 1_555 1_555
F3 C4 1_555 1_555
F4 C5 1_555 1_555
F5 C6 1_555 1_555
N1 Tl1 1_555 1_555
C7 N1 1_555 1_555
H1 C7 1_555 1_555
C8 C7 1_555 1_555
H2 C8 1_555 1_555
C9 C8 1_555 1_555
H3 C9 1_555 1_555
C10 C9 1_555 1_555
C11 N1 1_555 1_555
C12 C10 1_555 1_555
H4 C12 1_555 1_555
Tl1E Au1 1_555 1_555
Au1E Tl1 1_555 1_555
C1F Au1 1_555 1_555
C2F C1F 1_555 1_555
C3F C2F 1_555 1_555
C4F C3F 1_555 1_555
C5F C4F 1_555 1_555
C6F C1F 1_555 1_555
F1F C2F 1_555 1_555
F2F C3F 1_555 1_555
F3F C4F 1_555 1_555
F4F C5F 1_555 1_555
F5F C6F 1_555 1_555
N1F Tl1 1_555 1_555
C7F N1F 1_555 1_555
H1F C7F 1_555 1_555
C8F C7F 1_555 1_555
H2F C8F 1_555 1_555
C9F C8F 1_555 1_555
H3F C9F 1_555 1_555
C10F C9F 1_555 1_555
C11F C11 1_555 1_555
C12F C12 1_555 1_555
H4F C12F 1_555 1_555
C10 C11 1_555 1_555
C5F C6F 1_555 1_555
N1F C11F 1_555 1_555
C10F C11F 1_555 1_555
C10F C12F 1_555 1_555

#END
