
#######################################################################
#
#                 Cambridge Crystallographic Data Centre
#                                CCDC 
#
#######################################################################
#
# If this CIF has been generated from an entry in the Cambridge 
# Structural Database, then it will include bibliographic, chemical, 
# crystal, experimental, refinement or atomic coordinate data resulting 
# from the CCDC's data processing and validation procedures.
#
#######################################################################

data_FENKUF
_symmetry_cell_setting           monoclinic
_symmetry_space_group_name_H-M   'P 21/c'
_symmetry_Int_Tables_number      14
_space_group_name_Hall           '-P 2ybc'
loop_
_symmetry_equiv_pos_site_id
_symmetry_equiv_pos_as_xyz
1 x,y,z
2 -x,1/2+y,1/2-z
3 -x,-y,-z
4 x,1/2-y,1/2+z
_cell_length_a                   12.7888(10)
_cell_length_b                   18.6685(14)
_cell_length_c                   25.127(2)
_cell_angle_alpha                90
_cell_angle_beta                 93.755(3)
_cell_angle_gamma                90
_cell_volume                     5986.14
loop_
_atom_site_label
_atom_site_type_symbol
_atom_site_fract_x
_atom_site_fract_y
_atom_site_fract_z
Ag1 Ag 0.235076(12) 0.250363(9) 0.464853(6)
P1 P 0.04732(4) 0.26262(3) 0.48021(2)
P2 P 0.35782(4) 0.35219(3) 0.47650(2)
S1 S 0.41613(5) 0.11942(3) 0.62257(2)
S2 S 0.29148(4) 0.12796(3) 0.51651(2)
S3 S 0.13882(5) 0.23023(3) 0.27290(2)
S4 S 0.28100(4) 0.20515(3) 0.37113(2)
N1 N 0.50073(14) 0.13089(9) 0.53073(7)
N2 N 0.10901(13) 0.12874(9) 0.34343(6)
C1 C 0.28394(17) 0.11788(11) 0.63687(8)
C2 C 0.22818(19) 0.05747(12) 0.65525(9)
H1 H 0.2536 0.0098 0.6586
C3 C 0.12824(19) 0.08186(13) 0.66747(9)
H2 H 0.0744 0.0531 0.6807
C4 C 0.12115(17) 0.15605(12) 0.65689(8)
H3 H 0.0618 0.1855 0.6615
C5 C 0.21729(17) 0.17893(12) 0.63828(8)
H4 H 0.2345 0.2264 0.6285
C6 C 0.23077(17) 0.30001(12) 0.27594(8)
C7 C 0.33395(18) 0.29610(13) 0.25782(8)
H5 H 0.3675 0.2544 0.2455
C8 C 0.3771(2) 0.36576(14) 0.26163(9)
H6 H 0.4453 0.3790 0.2524
C9 C 0.3021(2) 0.41224(14) 0.28148(9)
H7 H 0.3109 0.4622 0.2876
C10 C 0.2117(2) 0.37207(12) 0.29065(8)
H8 H 0.1492 0.3900 0.3042
C11 C 0.40818(17) 0.12688(10) 0.55171(8)
C12 C 0.50908(18) 0.13948(12) 0.47257(8)
H9 H 0.5734 0.1668 0.4662
H10 H 0.4483 0.1673 0.4575
C13 C 0.5125(2) 0.06785(13) 0.44438(9)
H11 H 0.5735 0.0406 0.4587
H12 H 0.5177 0.0757 0.4061
H13 H 0.4484 0.0410 0.4501
C14 C 0.60168(17) 0.12329(12) 0.56225(9)
H14 H 0.6525 0.0994 0.5400
H15 H 0.5915 0.0920 0.5933
C15 C 0.6474(2) 0.19370(14) 0.58199(11)
H16 H 0.6594 0.2246 0.5515
H17 H 0.7140 0.1850 0.6025
H18 H 0.5984 0.2172 0.6048
C16 C 0.17242(17) 0.18251(11) 0.33320(8)
C17 C 0.01805(17) 0.10830(11) 0.30730(8)
H19 H -0.0370 0.0876 0.3286
H20 H -0.0111 0.1518 0.2893
C18 C 0.04661(18) 0.05434(11) 0.26544(8)
H21 H 0.0731 0.0105 0.2830
H22 H -0.0157 0.0430 0.2422
H23 H 0.1008 0.0746 0.2441
C19 C 0.13123(17) 0.08292(11) 0.39071(8)
H24 H 0.1539 0.1137 0.4214
H25 H 0.0657 0.0586 0.3994
C20 C 0.21485(19) 0.02660(12) 0.38354(9)
H26 H 0.2786 0.0498 0.3725
H27 H 0.2304 0.0014 0.4174
H28 H 0.1895 -0.0078 0.3562
C21 C 0.01897(16) 0.29014(11) 0.54740(8)
C22 C 0.09422(16) 0.32769(11) 0.57837(8)
H29 H 0.1599 0.3384 0.5646
C23 C 0.07385(18) 0.34969(11) 0.62947(8)
H30 H 0.1254 0.3758 0.6504
C24 C -0.02116(17) 0.33374(11) 0.65001(9)
H31 H -0.0346 0.3485 0.6851
C25 C -0.09676(17) 0.29623(11) 0.61942(8)
H32 H -0.1620 0.2852 0.6335
C26 C -0.07698(16) 0.27485(11) 0.56831(8)
H33 H -0.1292 0.2495 0.5473
C27 C -0.03683(16) 0.18408(11) 0.46957(8)
C28 C -0.11268(17) 0.17661(11) 0.42765(9)
H34 H -0.1228 0.2138 0.4021
C29 C -0.17366(18) 0.11505(12) 0.42301(10)
H35 H -0.2251 0.1103 0.3942
C30 C -0.15973(19) 0.06104(13) 0.46002(10)
H36 H -0.2020 0.0192 0.4570
C31 C -0.08405(19) 0.06776(12) 0.50175(9)
H37 H -0.0748 0.0305 0.5274
C32 C -0.02180(17) 0.12844(11) 0.50627(9)
H38 H 0.0312 0.1322 0.5344
C33 C -0.01304(15) 0.33300(11) 0.43784(8)
C34 C -0.00975(16) 0.32709(12) 0.38283(9)
H39 H 0.0210 0.2860 0.3680
C35 C -0.05093(17) 0.38054(13) 0.34957(9)
H40 H -0.0501 0.3754 0.3120
C36 C -0.09310(18) 0.44123(13) 0.37075(10)
H41 H -0.1214 0.4777 0.3477
C37 C -0.09438(17) 0.44919(12) 0.42524(10)
H42 H -0.1219 0.4916 0.4398
C38 C -0.05535(16) 0.39506(11) 0.45879(9)
H43 H -0.0574 0.4003 0.4963
C39 C 0.36950(15) 0.38042(11) 0.54619(8)
C40 C 0.39358(17) 0.32802(12) 0.58484(9)
H44 H 0.4083 0.2805 0.5740
C41 C 0.39626(18) 0.34424(13) 0.63834(9)
H45 H 0.4145 0.3084 0.6641
C42 C 0.37238(17) 0.41286(14) 0.65448(9)
H46 H 0.3725 0.4239 0.6914
C43 C 0.34822(17) 0.46547(13) 0.61673(9)
H47 H 0.3325 0.5127 0.6278
C44 C 0.34697(16) 0.44920(12) 0.56283(9)
H48 H 0.3305 0.4855 0.5371
C45 C 0.31897(16) 0.43281(11) 0.43953(8)
C46 C 0.39177(17) 0.47670(11) 0.41668(8)
H49 H 0.4643 0.4656 0.4210
C47 C 0.35883(18) 0.53643(12) 0.38766(9)
H50 H 0.4090 0.5656 0.3717
C48 C 0.25442(18) 0.55404(12) 0.38161(9)
H51 H 0.2325 0.5951 0.3615
C49 C 0.18124(18) 0.51154(12) 0.40494(9)
H52 H 0.1091 0.5240 0.4015
C50 C 0.21347(17) 0.45099(12) 0.43318(9)
H53 H 0.1629 0.4215 0.4484
C51 C 0.49164(16) 0.33835(11) 0.45801(8)
C52 C 0.57911(16) 0.35489(11) 0.49123(9)
H54 H 0.5707 0.3719 0.5263
C53 C 0.67886(17) 0.34672(12) 0.47351(10)
H55 H 0.7385 0.3583 0.4964
C54 C 0.69161(18) 0.32183(12) 0.42271(10)
H56 H 0.7601 0.3165 0.4107
C55 C 0.60513(19) 0.30456(12) 0.38913(10)
H57 H 0.6141 0.2869 0.3543
C56 C 0.50562(18) 0.31312(11) 0.40669(9)
H58 H 0.4462 0.3017 0.3836
Fe1 Fe 0.24321(3) 0.135388(16) 0.712080(12)
C6C C 0.23077(17) 0.19999(12) 0.77594(8)
C7C C 0.33395(18) 0.20390(13) 0.75782(8)
H5C H 0.3675 0.2456 0.7455
C8C C 0.3771(2) 0.13424(14) 0.76163(9)
H6C H 0.4453 0.1210 0.7524
C9C C 0.3021(2) 0.08776(14) 0.78148(9)
H7C H 0.3109 0.0378 0.7876
C10C C 0.2117(2) 0.12793(12) 0.79065(8)
H8C H 0.1492 0.1100 0.8042
Fe1C Fe 0.24321(3) 0.364612(16) 0.212080(12)
S5 S 0.26879(5) 0.65872(3) 0.24102(3)
O1 O 0.20966(13) 0.59377(9) 0.24138(8)
O2 O 0.23864(14) 0.70807(9) 0.19856(6)
O3 O 0.29140(16) 0.69088(9) 0.29264(6)
C57 C 0.3969(2) 0.62810(16) 0.22430(10)
F1 F 0.39246(13) 0.59890(10) 0.17549(6)
F2 F 0.46560(13) 0.68063(11) 0.22431(7)
F3 F 0.43533(12) 0.57824(9) 0.25777(6)
C58 C 0.2680(2) 0.85301(13) 0.26162(11)
H59 H 0.3173 0.8196 0.2809
H60 H 0.2531 0.8341 0.2251
Cl1 Cl 0.15013(5) 0.85654(3) 0.29462(3)
Cl2 Cl 0.32687(7) 0.93683(4) 0.25790(4)
loop_
_geom_bond_atom_site_label_1
_geom_bond_atom_site_label_2
_geom_bond_site_symmetry_1
_geom_bond_site_symmetry_2
Ag1 P1 1_555 1_555
P1 C21 1_555 1_555
P2 Ag1 1_555 1_555
S1 C1 1_555 1_555
S2 Ag1 1_555 1_555
S3 C6 1_555 1_555
S4 Ag1 1_555 1_555
N1 C11 1_555 1_555
N2 C16 1_555 1_555
C1 C2 1_555 1_555
C2 H1 1_555 1_555
C3 C2 1_555 1_555
H2 C3 1_555 1_555
C4 C3 1_555 1_555
H3 C4 1_555 1_555
C5 C1 1_555 1_555
H4 C5 1_555 1_555
C6 C7 1_555 1_555
C7 H5 1_555 1_555
C8 C7 1_555 1_555
H6 C8 1_555 1_555
C9 C8 1_555 1_555
H7 C9 1_555 1_555
C10 C6 1_555 1_555
H8 C10 1_555 1_555
C11 S1 1_555 1_555
C12 N1 1_555 1_555
H9 C12 1_555 1_555
H10 C12 1_555 1_555
C13 C12 1_555 1_555
H11 C13 1_555 1_555
H12 C13 1_555 1_555
H13 C13 1_555 1_555
C14 N1 1_555 1_555
H14 C14 1_555 1_555
H15 C14 1_555 1_555
C15 C14 1_555 1_555
H16 C15 1_555 1_555
H17 C15 1_555 1_555
H18 C15 1_555 1_555
C16 S3 1_555 1_555
C17 N2 1_555 1_555
H19 C17 1_555 1_555
H20 C17 1_555 1_555
C18 C17 1_555 1_555
H21 C18 1_555 1_555
H22 C18 1_555 1_555
H23 C18 1_555 1_555
C19 N2 1_555 1_555
H24 C19 1_555 1_555
H25 C19 1_555 1_555
C20 C19 1_555 1_555
H26 C20 1_555 1_555
H27 C20 1_555 1_555
H28 C20 1_555 1_555
C21 C22 1_555 1_555
C22 H29 1_555 1_555
C23 C22 1_555 1_555
H30 C23 1_555 1_555
C24 C23 1_555 1_555
H31 C24 1_555 1_555
C25 C24 1_555 1_555
H32 C25 1_555 1_555
C26 C21 1_555 1_555
H33 C26 1_555 1_555
C27 P1 1_555 1_555
C28 C27 1_555 1_555
H34 C28 1_555 1_555
C29 C28 1_555 1_555
H35 C29 1_555 1_555
C30 C29 1_555 1_555
H36 C30 1_555 1_555
C31 C30 1_555 1_555
H37 C31 1_555 1_555
C32 C27 1_555 1_555
H38 C32 1_555 1_555
C33 P1 1_555 1_555
C34 C33 1_555 1_555
H39 C34 1_555 1_555
C35 C34 1_555 1_555
H40 C35 1_555 1_555
C36 C35 1_555 1_555
H41 C36 1_555 1_555
C37 C36 1_555 1_555
H42 C37 1_555 1_555
C38 C33 1_555 1_555
H43 C38 1_555 1_555
C39 P2 1_555 1_555
C40 C39 1_555 1_555
H44 C40 1_555 1_555
C41 C40 1_555 1_555
H45 C41 1_555 1_555
C42 C41 1_555 1_555
H46 C42 1_555 1_555
C43 C42 1_555 1_555
H47 C43 1_555 1_555
C44 C39 1_555 1_555
H48 C44 1_555 1_555
C45 P2 1_555 1_555
C46 C45 1_555 1_555
H49 C46 1_555 1_555
C47 C46 1_555 1_555
H50 C47 1_555 1_555
C48 C47 1_555 1_555
H51 C48 1_555 1_555
C49 C48 1_555 1_555
H52 C49 1_555 1_555
C50 C45 1_555 1_555
H53 C50 1_555 1_555
C51 P2 1_555 1_555
C52 C51 1_555 1_555
H54 C52 1_555 1_555
C53 C52 1_555 1_555
H55 C53 1_555 1_555
C54 C53 1_555 1_555
H56 C54 1_555 1_555
C55 C54 1_555 1_555
H57 C55 1_555 1_555
C56 C51 1_555 1_555
H58 C56 1_555 1_555
S5 O1 1_555 1_555
O2 S5 1_555 1_555
O3 S5 1_555 1_555
C57 S5 1_555 1_555
F1 C57 1_555 1_555
F2 C57 1_555 1_555
F3 C57 1_555 1_555
C58 H59 1_555 1_555
H60 C58 1_555 1_555
Cl1 C58 1_555 1_555
Cl2 C58 1_555 1_555
Fe1 C1 1_555 1_555
C6C Fe1 1_555 1_555
C7C Fe1 1_555 1_555
H5C C7C 1_555 1_555
C8C Fe1 1_555 1_555
H6C C8C 1_555 1_555
C9C Fe1 1_555 1_555
H7C C9C 1_555 1_555
C10C Fe1 1_555 1_555
H8C C10C 1_555 1_555
Fe1C C6 1_555 1_555
S2 C11 1_555 1_555
S4 C16 1_555 1_555
C2 Fe1 1_555 1_555
C3 Fe1 1_555 1_555
C4 C5 1_555 1_555
C4 Fe1 1_555 1_555
C5 Fe1 1_555 1_555
C7 Fe1C 1_555 1_555
C8 Fe1C 1_555 1_555
C9 C10 1_555 1_555
C9 Fe1C 1_555 1_555
C10 Fe1C 1_555 1_555
C25 C26 1_555 1_555
C31 C32 1_555 1_555
C37 C38 1_555 1_555
C43 C44 1_555 1_555
C49 C50 1_555 1_555
C55 C56 1_555 1_555
C6C C7C 1_555 1_555
C6C C10C 1_555 1_555
C7C C8C 1_555 1_555
C8C C9C 1_555 1_555
C9C C10C 1_555 1_555

#END
