
#######################################################################
#
#                 Cambridge Crystallographic Data Centre
#                                CCDC 
#
#######################################################################
#
# If this CIF has been generated from an entry in the Cambridge 
# Structural Database, then it will include bibliographic, chemical, 
# crystal, experimental, refinement or atomic coordinate data resulting 
# from the CCDC's data processing and validation procedures.
#
#######################################################################

data_FENKIT
_symmetry_cell_setting           monoclinic
_symmetry_space_group_name_H-M   'P 21/c'
_symmetry_Int_Tables_number      14
_space_group_name_Hall           '-P 2ybc'
loop_
_symmetry_equiv_pos_site_id
_symmetry_equiv_pos_as_xyz
1 x,y,z
2 -x,1/2+y,1/2-z
3 -x,-y,-z
4 x,1/2-y,1/2+z
_cell_length_a                   6.6241(1)
_cell_length_b                   19.1457(3)
_cell_length_c                   20.9045(4)
_cell_angle_alpha                90
_cell_angle_beta                 98.9309(5)
_cell_angle_gamma                90
_cell_volume                     2619.03
loop_
_atom_site_label
_atom_site_type_symbol
_atom_site_fract_x
_atom_site_fract_y
_atom_site_fract_z
Au1 Au 0.36538(3) 0.778012(12) 0.065431(12)
Tl1 Tl 0.88803(3) 0.753150(12) 0.070480(11)
C1 C 0.3175(8) 0.8794(3) 0.0371(3)
C2 C 0.3065(8) 0.9326(3) 0.0810(3)
C3 C 0.2683(9) 1.0018(3) 0.0645(4)
C4 C 0.2372(9) 1.0200(4) 0.0006(3)
C5 C 0.2480(10) 0.9698(4) -0.0453(4)
C6 C 0.2869(10) 0.9014(4) -0.0263(4)
F1 F 0.3331(7) 0.9184(2) 0.1453(2)
F2 F 0.2591(8) 1.0508(2) 0.1097(3)
F3 F 0.1980(7) 1.0862(2) -0.0174(3)
F4 F 0.2200(8) 0.9870(3) -0.1084(3)
F5 F 0.2990(8) 0.8543(3) -0.0737(2)
C7 C 0.4023(8) 0.6770(3) 0.0965(3)
C8 C 0.3589(8) 0.6198(3) 0.0571(3)
C9 C 0.3700(9) 0.5513(3) 0.0787(3)
C10 C 0.4271(9) 0.5388(3) 0.1437(3)
C11 C 0.4720(9) 0.5937(4) 0.1854(3)
C12 C 0.4606(9) 0.6609(3) 0.1608(3)
F6 F 0.2939(7) 0.6278(2) -0.0077(2)
F7 F 0.3221(7) 0.4975(2) 0.0382(3)
F8 F 0.4349(6) 0.4732(2) 0.1657(2)
F9 F 0.5237(7) 0.5817(3) 0.2488(2)
F10 F 0.5081(7) 0.7130(2) 0.2047(2)
N1 N 0.9251(7) 0.6291(3) 0.1304(2)
C13 C 0.9784(9) 0.6257(3) 0.1945(3)
H1 H 1.0003 0.6672 0.2177
C14 C 1.0023(9) 0.5636(3) 0.2279(3)
H2 H 1.0412 0.5637 0.2726
C15 C 0.9686(8) 0.5010(3) 0.1951(3)
C16 C 0.9100(8) 0.5042(3) 0.1281(3)
H3 H 0.8842 0.4636 0.1038
C17 C 0.8912(9) 0.5689(3) 0.0988(3)
H4 H 0.8523 0.5705 0.0542
N2 N 1.0481(8) 0.3097(3) 0.3020(3)
C18 C 0.8770(9) 0.3224(3) 0.2602(3)
H5 H 0.7735 0.2891 0.2559
C19 C 0.8470(9) 0.3825(3) 0.2234(3)
H6 H 0.7272 0.3884 0.1942
C20 C 0.9972(8) 0.4341(3) 0.2302(3)
C21 C 1.1758(9) 0.4206(3) 0.2726(3)
H7 H 1.2816 0.4530 0.2780
C22 C 1.1945(10) 0.3581(3) 0.3068(3)
H8 H 1.3159 0.3496 0.3346
O1 O 0.8271(10) 0.6890(3) -0.0519(3)
C23 C 0.9577(15) 0.7209(6) -0.0918(5)
H9 H 1.0164 0.6858 -0.1170
H10 H 1.0677 0.7461 -0.0656
C24 C 0.8271(18) 0.7689(6) -0.1345(6)
H11 H 0.8795 0.7761 -0.1748
H12 H 0.8161 0.8137 -0.1137
C25 C 0.6292(18) 0.7328(8) -0.1456(6)
H13 H 0.6218 0.7003 -0.1815
H14 H 0.5173 0.7659 -0.1544
C26 C 0.6246(16) 0.6956(7) -0.0837(5)
H15 H 0.5439 0.7216 -0.0569
H16 H 0.5636 0.6498 -0.0920
Au1_2 Au 1.36538(3) 0.778012(12) 0.065431(12)
Tl1_2 Tl -0.11197(3) 0.753150(12) 0.070480(11)
Tl1A Tl 1.11197(3) 0.253150(12) 0.429520(11)
N2A N 0.9519(8) 0.8097(3) 0.1980(3)
loop_
_geom_bond_atom_site_label_1
_geom_bond_atom_site_label_2
_geom_bond_site_symmetry_1
_geom_bond_site_symmetry_2
Au1 Tl1 1_555 1_555
Tl1 N1 1_555 1_555
C1 Au1 1_555 1_555
C2 C1 1_555 1_555
C3 C2 1_555 1_555
C4 C3 1_555 1_555
C5 C4 1_555 1_555
C6 C1 1_555 1_555
F1 C2 1_555 1_555
F2 C3 1_555 1_555
F3 C4 1_555 1_555
F4 C5 1_555 1_555
F5 C6 1_555 1_555
C7 Au1 1_555 1_555
C8 C7 1_555 1_555
C9 C8 1_555 1_555
C10 C9 1_555 1_555
C11 C10 1_555 1_555
C12 C7 1_555 1_555
F6 C8 1_555 1_555
F7 C9 1_555 1_555
F8 C10 1_555 1_555
F9 C11 1_555 1_555
F10 C12 1_555 1_555
N1 C13 1_555 1_555
C13 H1 1_555 1_555
C14 C13 1_555 1_555
H2 C14 1_555 1_555
C15 C14 1_555 1_555
C16 C15 1_555 1_555
H3 C16 1_555 1_555
C17 N1 1_555 1_555
H4 C17 1_555 1_555
N2 C18 1_555 1_555
C18 H5 1_555 1_555
C19 C18 1_555 1_555
H6 C19 1_555 1_555
C20 C15 1_555 1_555
C21 C20 1_555 1_555
H7 C21 1_555 1_555
C22 N2 1_555 1_555
H8 C22 1_555 1_555
O1 Tl1 1_555 1_555
C23 O1 1_555 1_555
H9 C23 1_555 1_555
H10 C23 1_555 1_555
C24 C23 1_555 1_555
H11 C24 1_555 1_555
H12 C24 1_555 1_555
C25 C24 1_555 1_555
H13 C25 1_555 1_555
H14 C25 1_555 1_555
C26 O1 1_555 1_555
H15 C26 1_555 1_555
H16 C26 1_555 1_555
Au1_2 Tl1 1_555 1_555
Tl1_2 Au1 1_555 1_555
Tl1A N2 1_555 1_555
N2A Tl1 1_555 1_555
C5 C6 1_555 1_555
C11 C12 1_555 1_555
C16 C17 1_555 1_555
C19 C20 1_555 1_555
C21 C22 1_555 1_555
C25 C26 1_555 1_555

#END
