
#######################################################################
#
#                 Cambridge Crystallographic Data Centre
#                                CCDC 
#
#######################################################################
#
# If this CIF has been generated from an entry in the Cambridge 
# Structural Database, then it will include bibliographic, chemical, 
# crystal, experimental, refinement or atomic coordinate data resulting 
# from the CCDC's data processing and validation procedures.
#
#######################################################################

data_FENMAO
_symmetry_cell_setting           orthorhombic
_symmetry_space_group_name_H-M   'P 21 21 21'
_symmetry_Int_Tables_number      19
_space_group_name_Hall           'P 2ac 2ab'
loop_
_symmetry_equiv_pos_site_id
_symmetry_equiv_pos_as_xyz
1 x,y,z
2 1/2+x,1/2-y,-z
3 -x,1/2+y,1/2-z
4 1/2-x,-y,1/2+z
_cell_length_a                   10.315(2)
_cell_length_b                   17.756(4)
_cell_length_c                   25.190(5)
_cell_angle_alpha                90
_cell_angle_beta                 90
_cell_angle_gamma                90
_cell_volume                     4613.63
loop_
_atom_site_label
_atom_site_type_symbol
_atom_site_fract_x
_atom_site_fract_y
_atom_site_fract_z
Co1 Co 0.78341(8) 0.60571(5) 0.42624(4)
Fe1 Fe 0.36132(9) 0.72837(5) 0.42563(4)
N1 N 0.6133(5) 0.6424(3) 0.4378(2)
N2 N 0.8508(5) 0.6801(3) 0.4733(2)
N3 N 0.1957(5) 0.6078(3) 0.4784(2)
N4 N 0.7594(5) 0.5309(3) 0.4815(2)
N5 N 0.8141(5) 0.6695(3) 0.3656(2)
N6 N 0.7015(5) 0.5294(3) 0.3797(2)
H1 H 0.6221 0.5510 0.3712
N7 N 0.9633(5) 0.5699(3) 0.4147(2)
H2 H 1.0079 0.5853 0.4448
N8 N 0.3515(5) 0.6768(3) 0.3554(2)
N9 N 0.4627(5) 0.8129(3) 0.3917(2)
N10 N 0.2015(5) 0.7846(3) 0.4041(2)
N11 N 0.3374(5) 0.7197(4) 0.3098(2)
N12 N 0.1934(5) 0.8137(3) 0.3535(2)
N13 N 0.4260(5) 0.8398(3) 0.3429(2)
B1 B 0.3095(8) 0.8046(5) 0.3157(3)
H3 H 0.2922 0.8287 0.2805
C1 C 0.5165(7) 0.6753(4) 0.4377(2)
C2 C 0.8597(6) 0.7181(4) 0.5102(3)
C3 C 0.2608(7) 0.6529(4) 0.4572(3)
C4 C 0.7957(7) 0.5390(4) 0.5326(3)
H4 H 0.8256 0.5867 0.5445
C5 C 0.7909(7) 0.4804(4) 0.5678(3)
H5 H 0.8172 0.4874 0.6036
C6 C 0.7469(8) 0.4101(5) 0.5505(3)
H6 H 0.7445 0.3683 0.5740
C7 C 0.7068(7) 0.4026(4) 0.4982(3)
H7 H 0.6754 0.3558 0.4854
C8 C 0.7134(7) 0.4646(4) 0.4651(3)
C9 C 0.7254(7) 0.7161(4) 0.3429(3)
H8 H 0.6447 0.7243 0.3601
C10 C 0.7503(7) 0.7519(4) 0.2948(3)
H9 H 0.6869 0.7840 0.2794
C11 C 0.8672(8) 0.7407(4) 0.2697(3)
H10 H 0.8848 0.7641 0.2365
C12 C 0.9594(7) 0.6942(4) 0.2938(3)
H11 H 1.0418 0.6865 0.2779
C13 C 0.9284(7) 0.6597(4) 0.3415(3)
C14 C 0.6645(7) 0.4608(4) 0.4092(2)
H12 H 0.7013 0.4160 0.3913
H13 H 0.5689 0.4557 0.4094
C15 C 1.0257(6) 0.6126(4) 0.3703(2)
H14 H 1.0948 0.6454 0.3847
H15 H 1.0662 0.5768 0.3452
C16 C 0.8812(6) 0.4825(4) 0.3237(2)
C17 C 0.7625(6) 0.5174(4) 0.3273(3)
C18 C 0.7041(7) 0.5513(4) 0.2827(2)
H16 H 0.6201 0.5728 0.2856
C19 C 0.7675(7) 0.5533(4) 0.2359(3)
H17 H 0.7269 0.5758 0.2060
C20 C 0.8926(7) 0.5227(4) 0.2305(3)
C21 C 0.9483(6) 0.4847(4) 0.2742(3)
C22 C 1.0763(7) 0.4551(4) 0.2686(3)
H18 H 1.1150 0.4285 0.2972
C23 C 1.1431(7) 0.4648(4) 0.2227(3)
H19 H 1.2286 0.4453 0.2199
C24 C 1.0887(7) 0.5032(4) 0.1790(3)
H20 H 1.1364 0.5096 0.1471
C25 C 0.9656(7) 0.5308(4) 0.1838(3)
H21 H 0.9280 0.5565 0.1545
C26 C 0.9398(6) 0.4456(4) 0.3715(2)
C27 C 0.9805(6) 0.4890(4) 0.4135(2)
C28 C 1.0339(7) 0.4555(4) 0.4599(3)
H22 H 1.0631 0.4863 0.4883
C29 C 1.0430(7) 0.3790(4) 0.4634(3)
H23 H 1.0810 0.3569 0.4940
C30 C 0.9959(7) 0.3315(4) 0.4214(3)
C31 C 0.9469(6) 0.3661(4) 0.3748(2)
C32 C 0.8967(7) 0.3190(4) 0.3350(3)
H24 H 0.8609 0.3404 0.3037
C33 C 0.8991(8) 0.2417(4) 0.3411(3)
H25 H 0.8661 0.2105 0.3136
C34 C 0.9490(9) 0.2086(5) 0.3870(3)
H26 H 0.9488 0.1554 0.3907
C35 C 0.9988(8) 0.2534(4) 0.4271(3)
H27 H 1.0346 0.2312 0.4581
C36 C 0.3630(7) 0.6058(4) 0.3391(3)
H28 H 0.3723 0.5638 0.3622
C37 C 0.3596(7) 0.6008(5) 0.2838(3)
H29 H 0.3665 0.5568 0.2626
C38 C 0.3440(7) 0.6736(5) 0.2672(3)
H30 H 0.3386 0.6893 0.2312
C39 C 0.5609(7) 0.8561(4) 0.4080(3)
H31 H 0.6059 0.8498 0.4406
C40 C 0.5880(8) 0.9113(5) 0.3708(3)
H32 H 0.6535 0.9488 0.3729
C41 C 0.5002(7) 0.9005(4) 0.3300(3)
H33 H 0.4930 0.9301 0.2987
C42 C 0.0904(6) 0.8011(3) 0.4281(3)
H34 H 0.0687 0.7870 0.4634
C43 C 0.0102(7) 0.8422(4) 0.3943(3)
H35 H -0.0733 0.8622 0.4018
C44 C 0.0799(7) 0.8476(4) 0.3470(3)
H36 H 0.0509 0.8715 0.3154
Fe1A Fe 0.86132(9) 0.77163(5) 0.57437(4)
C2A C 0.3597(6) 0.7819(4) 0.4898(3)
B2 B 0.4180(12) 0.3784(7) 0.3289(4)
F1 F 0.3754(7) 0.4121(4) 0.3733(2)
F2 F 0.5074(8) 0.3246(4) 0.3395(3)
F3 F 0.4828(9) 0.4347(5) 0.3044(3)
F4 F 0.3202(7) 0.3505(5) 0.3024(3)
O1 O 0.7907(6) 1.0009(3) 0.4497(2)
H37 H 0.7506 0.9682 0.4673
C45 C 0.9098(9) 1.0182(6) 0.4755(4)
H38 H 0.9666 1.0453 0.4508
H39 H 0.9521 0.9715 0.4867
H40 H 0.8927 1.0498 0.5066
O2 O 0.5763(12) 0.6584(7) 0.1521(4)
O3 O 0.4948(17) 0.2853(9) 0.4468(6)
O4? O 0.433(3) 0.6282(10) 0.1265(7)
O5? O 0.3321(16) 0.2833(10) 0.4567(6)
loop_
_geom_bond_atom_site_label_1
_geom_bond_atom_site_label_2
_geom_bond_site_symmetry_1
_geom_bond_site_symmetry_2
Co1 N1 1_555 1_555
Fe1 N8 1_555 1_555
N1 C1 1_555 1_555
N2 Co1 1_555 1_555
N3 C3 1_555 1_555
N4 Co1 1_555 1_555
N5 Co1 1_555 1_555
N6 Co1 1_555 1_555
H1 N6 1_555 1_555
N7 Co1 1_555 1_555
H2 N7 1_555 1_555
N8 N11 1_555 1_555
N9 Fe1 1_555 1_555
N10 Fe1 1_555 1_555
N11 B1 1_555 1_555
N12 N10 1_555 1_555
N13 N9 1_555 1_555
B1 N12 1_555 1_555
H3 B1 1_555 1_555
C1 Fe1 1_555 1_555
C2 N2 1_555 1_555
C3 Fe1 1_555 1_555
C4 N4 1_555 1_555
H4 C4 1_555 1_555
C5 C4 1_555 1_555
H5 C5 1_555 1_555
C6 C5 1_555 1_555
H6 C6 1_555 1_555
C7 C6 1_555 1_555
H7 C7 1_555 1_555
C8 N4 1_555 1_555
C9 N5 1_555 1_555
H8 C9 1_555 1_555
C10 C9 1_555 1_555
H9 C10 1_555 1_555
C11 C10 1_555 1_555
H10 C11 1_555 1_555
C12 C11 1_555 1_555
H11 C12 1_555 1_555
C13 N5 1_555 1_555
C14 N6 1_555 1_555
H12 C14 1_555 1_555
H13 C14 1_555 1_555
C15 N7 1_555 1_555
H14 C15 1_555 1_555
H15 C15 1_555 1_555
C16 C17 1_555 1_555
C17 N6 1_555 1_555
C18 C17 1_555 1_555
H16 C18 1_555 1_555
C19 C18 1_555 1_555
H17 C19 1_555 1_555
C20 C19 1_555 1_555
C21 C16 1_555 1_555
C22 C21 1_555 1_555
H18 C22 1_555 1_555
C23 C22 1_555 1_555
H19 C23 1_555 1_555
C24 C23 1_555 1_555
H20 C24 1_555 1_555
C25 C20 1_555 1_555
H21 C25 1_555 1_555
C26 C16 1_555 1_555
C27 N7 1_555 1_555
C28 C27 1_555 1_555
H22 C28 1_555 1_555
C29 C28 1_555 1_555
H23 C29 1_555 1_555
C30 C29 1_555 1_555
C31 C26 1_555 1_555
C32 C31 1_555 1_555
H24 C32 1_555 1_555
C33 C32 1_555 1_555
H25 C33 1_555 1_555
C34 C33 1_555 1_555
H26 C34 1_555 1_555
C35 C30 1_555 1_555
H27 C35 1_555 1_555
C36 N8 1_555 1_555
H28 C36 1_555 1_555
C37 C36 1_555 1_555
H29 C37 1_555 1_555
C38 N11 1_555 1_555
H30 C38 1_555 1_555
C39 N9 1_555 1_555
H31 C39 1_555 1_555
C40 C39 1_555 1_555
H32 C40 1_555 1_555
C41 N13 1_555 1_555
H33 C41 1_555 1_555
C42 N10 1_555 1_555
H34 C42 1_555 1_555
C43 C42 1_555 1_555
H35 C43 1_555 1_555
C44 N12 1_555 1_555
H36 C44 1_555 1_555
B2 F1 1_555 1_555
F2 B2 1_555 1_555
F3 B2 1_555 1_555
F4 B2 1_555 1_555
O1 H37 1_555 1_555
C45 O1 1_555 1_555
H38 C45 1_555 1_555
H39 C45 1_555 1_555
H40 C45 1_555 1_555
Fe1A C2 1_555 1_555
C2A Fe1 1_555 1_555
N13 B1 1_555 1_555
C7 C8 1_555 1_555
C8 C14 1_555 1_555
C12 C13 1_555 1_555
C13 C15 1_555 1_555
C20 C21 1_555 1_555
C24 C25 1_555 1_555
C26 C27 1_555 1_555
C30 C31 1_555 1_555
C34 C35 1_555 1_555
C37 C38 1_555 1_555
C40 C41 1_555 1_555
C43 C44 1_555 1_555

#END
