
#######################################################################
#
#                 Cambridge Crystallographic Data Centre
#                                CCDC 
#
#######################################################################
#
# If this CIF has been generated from an entry in the Cambridge 
# Structural Database, then it will include bibliographic, chemical, 
# crystal, experimental, refinement or atomic coordinate data resulting 
# from the CCDC's data processing and validation procedures.
#
#######################################################################

data_FENMIW
_symmetry_cell_setting           orthorhombic
_symmetry_space_group_name_H-M   'P 21 21 21'
_symmetry_Int_Tables_number      19
_space_group_name_Hall           'P 2ac 2ab'
loop_
_symmetry_equiv_pos_site_id
_symmetry_equiv_pos_as_xyz
1 x,y,z
2 1/2-x,-y,1/2+z
3 -x,1/2+y,1/2-z
4 1/2+x,1/2-y,-z
_cell_length_a                   10.711(8)
_cell_length_b                   17.817(13)
_cell_length_c                   25.672(19)
_cell_angle_alpha                90
_cell_angle_beta                 90
_cell_angle_gamma                90
_cell_volume                     4899.19
loop_
_atom_site_label
_atom_site_type_symbol
_atom_site_fract_x
_atom_site_fract_y
_atom_site_fract_z
Co1 Co 0.78515(17) 0.60455(11) 0.42549(9)
Fe1 Fe 0.36341(19) 0.73279(12) 0.42040(10)
N1 N 0.6045(10) 0.6455(6) 0.4369(5)
N2 N 0.8601(13) 0.6815(7) 0.4776(5)
N3 N 0.2082(12) 0.6143(7) 0.4774(5)
B1 B 0.312(2) 0.8115(16) 0.3135(11)
H1 H 0.2956 0.8356 0.2799
C1 C 0.5115(14) 0.6768(7) 0.4340(6)
C2 C 0.8662(14) 0.7165(8) 0.5145(6)
C3 C 0.2688(14) 0.6567(8) 0.4551(6)
N4 N 0.7640(9) 0.5146(5) 0.4787(5)
C4 C 0.8066(9) 0.5227(6) 0.5295(5)
H2 H 0.8320 0.5695 0.5415
C5 C 0.8112(10) 0.4608(9) 0.5624(4)
H3 H 0.8397 0.4661 0.5964
C6 C 0.7732(11) 0.3908(7) 0.5445(5)
H4 H 0.7762 0.3494 0.5665
C7 C 0.7305(10) 0.3827(5) 0.4936(6)
H5 H 0.7051 0.3359 0.4816
C8 C 0.7259(9) 0.4446(7) 0.4608(4)
C9 C 0.7287(8) 0.7135(6) 0.3357(5)
H6 H 0.6531 0.7210 0.3527
C10 C 0.7504(12) 0.7472(5) 0.2877(5)
H7 H 0.6892 0.7771 0.2726
C11 C 0.8635(15) 0.7360(6) 0.2623(3)
H8 H 0.8779 0.7585 0.2302
C12 C 0.9549(10) 0.6912(7) 0.2849(5)
H9 H 1.0305 0.6837 0.2679
C13 C 0.9332(9) 0.6576(5) 0.3329(5)
N5 N 0.8201(12) 0.6687(5) 0.3583(3)
C14 C 0.6804(14) 0.4482(10) 0.4068(7)
H10 H 0.7158 0.4059 0.3882
H11 H 0.5907 0.4409 0.4076
C15 C 1.0308(13) 0.6115(9) 0.3607(6)
H12 H 1.0666 0.5758 0.3363
H13 H 1.0972 0.6444 0.3724
N6 N 0.7050(13) 0.5147(7) 0.3767(5)
H14 H 0.6274 0.5322 0.3689
N7 N 0.9792(10) 0.5699(6) 0.4064(5)
H15 H 1.0257 0.5857 0.4339
C16 C 0.8812(9) 0.4759(4) 0.3209(3)
C17 C 0.7599(10) 0.5022(5) 0.3270(4)
C18 C 0.6999(7) 0.5376(5) 0.2857(5)
H16 H 0.6188 0.5552 0.2897
C19 C 0.7613(8) 0.5466(4) 0.2384(4)
H17 H 0.7211 0.5703 0.2108
C20 C 0.8826(8) 0.5203(3) 0.2324(3)
C21 C 0.9425(7) 0.4849(3) 0.2736(3)
C22 C 1.0639(7) 0.4586(4) 0.2676(5)
H18 H 1.1040 0.4349 0.2952
C23 C 1.1252(8) 0.4676(5) 0.2203(5)
H19 H 1.2064 0.4500 0.2163
C24 C 1.0652(11) 0.5030(5) 0.1790(4)
H20 H 1.1062 0.5091 0.1474
C25 C 0.9439(11) 0.5293(4) 0.1851(3)
H21 H 0.9038 0.5530 0.1574
C26 C 0.9462(8) 0.4399(4) 0.3676(4)
C27 C 0.9984(9) 0.4873(4) 0.4047(5)
C28 C 1.0563(8) 0.4573(6) 0.4485(4)
H22 H 1.0913 0.4891 0.4733
C29 C 1.0621(7) 0.3800(6) 0.4551(3)
H23 H 1.1008 0.3600 0.4844
C30 C 1.0099(5) 0.3326(5) 0.4181(3)
C31 C 0.9520(5) 0.3626(4) 0.3743(2)
C32 C 0.8998(7) 0.3152(6) 0.3372(3)
H24 H 0.8610 0.3352 0.3079
C33 C 0.9055(9) 0.2378(5) 0.3439(4)
H25 H 0.8706 0.2061 0.3190
C34 C 0.9635(10) 0.2079(4) 0.3876(5)
H26 H 0.9673 0.1561 0.3921
C35 C 1.0156(9) 0.2553(5) 0.4247(4)
H27 H 1.0544 0.2352 0.4540
N8 N 0.3530(8) 0.6826(7) 0.3534(4)
C36 C 0.3656(9) 0.6069(6) 0.3368(5)
H28 H 0.3763 0.5655 0.3584
C37 C 0.3589(10) 0.6057(7) 0.2816(5)
H29 H 0.3645 0.5633 0.2606
C38 C 0.3421(10) 0.6806(9) 0.2640(4)
H30 H 0.3348 0.6958 0.2295
N9 N 0.3385(9) 0.7281(6) 0.3084(6)
N10 N 0.4593(11) 0.8140(5) 0.3882(5)
C39 C 0.5596(11) 0.8596(8) 0.4058(4)
H31 H 0.6028 0.8540 0.4369
C40 C 0.5823(11) 0.9153(6) 0.3673(6)
H32 H 0.6430 0.9525 0.3690
C41 C 0.4961(15) 0.9041(7) 0.3260(4)
H33 H 0.4904 0.9328 0.2959
N11 N 0.4201(10) 0.8415(7) 0.3389(5)
N12 N 0.2174(9) 0.7861(5) 0.4004(4)
C42 C 0.1034(12) 0.7994(6) 0.4270(4)
H34 H 0.0861 0.7867 0.4614
C43 C 0.0203(8) 0.8355(6) 0.3919(6)
H35 H -0.0609 0.8506 0.3993
C44 C 0.0830(13) 0.8445(5) 0.3436(4)
H36 H 0.0501 0.8665 0.3138
N13 N 0.2048(11) 0.8139(6) 0.3488(4)
Fe1C Fe 0.86341(19) 0.76721(12) 0.57960(10)
C2C C 0.3662(14) 0.7835(8) 0.4855(6)
B2 B 0.416(2) 0.3563(13) 0.3414(9)
F1 F 0.4181(18) 0.4310(11) 0.3528(12)
F2 F 0.518(2) 0.344(2) 0.3151(10)
F3 F 0.321(2) 0.3605(16) 0.3057(11)
F4 F 0.405(4) 0.306(2) 0.3789(14)
C45 C 0.913(3) 1.0286(19) 0.4937(13)
H37 H 0.8824 1.0217 0.5285
H38 H 0.9302 1.0808 0.4879
H39 H 0.9880 1.0000 0.4890
O1 O 0.818(2) 1.0029(13) 0.4562(8)
O2 O 0.494(4) 0.651(2) 0.1382(16)
O3? O 0.405(4) 0.686(2) 0.1047(15)
loop_
_geom_bond_atom_site_label_1
_geom_bond_atom_site_label_2
_geom_bond_site_symmetry_1
_geom_bond_site_symmetry_2
Co1 N1 1_555 1_555
Fe1 C1 1_555 1_555
N1 C1 1_555 1_555
N2 Co1 1_555 1_555
N3 C3 1_555 1_555
B1 H1 1_555 1_555
C2 N2 1_555 1_555
C3 Fe1 1_555 1_555
N4 Co1 1_555 1_555
C4 N4 1_555 1_555
H2 C4 1_555 1_555
C5 C4 1_555 1_555
H3 C5 1_555 1_555
C6 C5 1_555 1_555
H4 C6 1_555 1_555
C7 C6 1_555 1_555
H5 C7 1_555 1_555
C8 N4 1_555 1_555
C9 H6 1_555 1_555
C10 C9 1_555 1_555
H7 C10 1_555 1_555
C11 C10 1_555 1_555
H8 C11 1_555 1_555
C12 C11 1_555 1_555
H9 C12 1_555 1_555
C13 C12 1_555 1_555
N5 Co1 1_555 1_555
C14 C8 1_555 1_555
H10 C14 1_555 1_555
H11 C14 1_555 1_555
C15 C13 1_555 1_555
H12 C15 1_555 1_555
H13 C15 1_555 1_555
N6 Co1 1_555 1_555
H14 N6 1_555 1_555
N7 Co1 1_555 1_555
H15 N7 1_555 1_555
C16 C17 1_555 1_555
C17 N6 1_555 1_555
C18 C17 1_555 1_555
H16 C18 1_555 1_555
C19 C18 1_555 1_555
H17 C19 1_555 1_555
C20 C19 1_555 1_555
C21 C16 1_555 1_555
C22 C21 1_555 1_555
H18 C22 1_555 1_555
C23 C22 1_555 1_555
H19 C23 1_555 1_555
C24 C23 1_555 1_555
H20 C24 1_555 1_555
C25 C20 1_555 1_555
H21 C25 1_555 1_555
C26 C16 1_555 1_555
C27 N7 1_555 1_555
C28 C27 1_555 1_555
H22 C28 1_555 1_555
C29 C28 1_555 1_555
H23 C29 1_555 1_555
C30 C29 1_555 1_555
C31 C26 1_555 1_555
C32 C31 1_555 1_555
H24 C32 1_555 1_555
C33 C32 1_555 1_555
H25 C33 1_555 1_555
C34 C33 1_555 1_555
H26 C34 1_555 1_555
C35 C30 1_555 1_555
H27 C35 1_555 1_555
N8 Fe1 1_555 1_555
C36 N8 1_555 1_555
H28 C36 1_555 1_555
C37 C36 1_555 1_555
H29 C37 1_555 1_555
C38 C37 1_555 1_555
H30 C38 1_555 1_555
N9 B1 1_555 1_555
N10 Fe1 1_555 1_555
C39 N10 1_555 1_555
H31 C39 1_555 1_555
C40 C39 1_555 1_555
H32 C40 1_555 1_555
C41 C40 1_555 1_555
H33 C41 1_555 1_555
N11 B1 1_555 1_555
N12 Fe1 1_555 1_555
C42 N12 1_555 1_555
H34 C42 1_555 1_555
C43 C42 1_555 1_555
H35 C43 1_555 1_555
C44 C43 1_555 1_555
H36 C44 1_555 1_555
N13 B1 1_555 1_555
B2 F1 1_555 1_555
F2 B2 1_555 1_555
F3 B2 1_555 1_555
F4 B2 1_555 1_555
C45 H37 1_555 1_555
H38 C45 1_555 1_555
H39 C45 1_555 1_555
O1 C45 1_555 1_555
Fe1C C2 1_555 1_555
C2C Fe1 1_555 1_555
C7 C8 1_555 1_555
C9 N5 1_555 1_555
C13 N5 1_555 1_555
C14 N6 1_555 1_555
C15 N7 1_555 1_555
C20 C21 1_555 1_555
C24 C25 1_555 1_555
C26 C27 1_555 1_555
C30 C31 1_555 1_555
C34 C35 1_555 1_555
N8 N9 1_555 1_555
C38 N9 1_555 1_555
N10 N11 1_555 1_555
C41 N11 1_555 1_555
N12 N13 1_555 1_555
C44 N13 1_555 1_555

#END
