
#######################################################################
#
#                 Cambridge Crystallographic Data Centre
#                                CCDC 
#
#######################################################################
#
# If this CIF has been generated from an entry in the Cambridge 
# Structural Database, then it will include bibliographic, chemical, 
# crystal, experimental, refinement or atomic coordinate data resulting 
# from the CCDC's data processing and validation procedures.
#
#######################################################################

data_FENMOC
_symmetry_cell_setting           orthorhombic
_symmetry_space_group_name_H-M   'P 21 21 21'
_symmetry_Int_Tables_number      19
_space_group_name_Hall           'P 2ac 2ab'
loop_
_symmetry_equiv_pos_site_id
_symmetry_equiv_pos_as_xyz
1 x,y,z
2 1/2-x,-y,1/2+z
3 1/2+x,1/2-y,-z
4 -x,1/2+y,1/2-z
_cell_length_a                   10.527(4)
_cell_length_b                   17.031(7)
_cell_length_c                   24.372(10)
_cell_angle_alpha                90
_cell_angle_beta                 90
_cell_angle_gamma                90
_cell_volume                     4369.54
loop_
_atom_site_label
_atom_site_type_symbol
_atom_site_fract_x
_atom_site_fract_y
_atom_site_fract_z
Fe1 Fe -0.12406(17) -0.21471(12) -0.42676(7)
Co1 Co 0.29549(17) -0.09257(12) -0.43182(7)
N1 N 0.1280(11) -0.1329(7) -0.4424(4)
N2 N 0.3637(10) -0.1724(7) -0.4778(4)
N3 N -0.2913(13) -0.0964(8) -0.4856(5)
N4 N 0.2686(10) -0.0193(8) -0.4923(5)
N5 N 0.3276(11) -0.1542(7) -0.3660(4)
N6 N 0.2102(10) -0.0099(7) -0.3866(4)
H1 H 0.1348 -0.0334 -0.3769
N7 N 0.4749(9) -0.0542(7) -0.4209(4)
H2 H 0.5186 -0.0724 -0.4510
N8 N -0.1326(11) -0.1521(8) -0.3576(4)
N9 N -0.0308(11) -0.3001(7) -0.3844(4)
N10 N -0.2821(11) -0.2670(7) -0.4020(4)
N11 N -0.1532(10) -0.1886(9) -0.3088(5)
N12 N -0.0676(12) -0.3201(9) -0.3333(5)
N13 N -0.2964(10) -0.2904(7) -0.3475(4)
C1 C 0.0307(13) -0.1634(9) -0.4411(5)
C2 C 0.3705(12) -0.2221(8) -0.5107(5)
C3 C -0.2230(14) -0.1406(9) -0.4654(5)
C4 C 0.3145(13) -0.0301(11) -0.5431(5)
H3 H 0.3511 -0.0786 -0.5527
C5 C 0.3081(15) 0.0297(11) -0.5814(6)
H4 H 0.3319 0.0201 -0.6179
C6 C 0.2662(15) 0.1048(10) -0.5657(7)
H5 H 0.2685 0.1477 -0.5900
C7 C 0.2210(14) 0.1120(11) -0.5123(7)
H6 H 0.1868 0.1604 -0.5010
C8 C 0.2245(13) 0.0517(10) -0.4760(6)
C9 C 0.2398(14) -0.1985(10) -0.3398(5)
H7 H 0.1609 -0.2083 -0.3565
C10 C 0.2663(12) -0.2300(9) -0.2877(6)
H8 H 0.2066 -0.2625 -0.2702
C11 C 0.3780(14) -0.2133(9) -0.2628(5)
H9 H 0.3948 -0.2318 -0.2272
C12 C 0.4667(14) -0.1688(8) -0.2903(6)
H10 H 0.5461 -0.1591 -0.2740
C13 C 0.4401(12) -0.1385(8) -0.3413(5)
C14 C 0.1679(13) 0.0578(8) -0.4209(5)
H11 H 0.1135 0.0982 -0.4091
C15 C 0.5358(12) -0.0934(8) -0.3736(4)
H12 H 0.6228 -0.0904 -0.3651
C16 C 0.3851(13) 0.0426(8) -0.3318(5)
C17 C 0.2710(13) 0.0046(9) -0.3336(5)
C18 C 0.2151(14) -0.0272(9) -0.2862(5)
H13 H 0.1326 -0.0482 -0.2883
C19 C 0.2777(15) -0.0283(9) -0.2377(6)
H14 H 0.2379 -0.0489 -0.2063
C20 C 0.4055(15) 0.0019(9) -0.2341(6)
C21 C 0.4540(15) 0.0421(9) -0.2810(6)
C22 C 0.5766(15) 0.0718(9) -0.2763(6)
H15 H 0.6118 0.0981 -0.3066
C23 C 0.6498(13) 0.0645(9) -0.2292(6)
H16 H 0.7321 0.0857 -0.2269
C24 C 0.5943(16) 0.0235(9) -0.1850(6)
H17 H 0.6425 0.0172 -0.1528
C25 C 0.4761(15) -0.0073(9) -0.1860(6)
H18 H 0.4426 -0.0339 -0.1555
C26 C 0.4387(12) 0.0797(10) -0.3824(6)
C27 C 0.4874(11) 0.0316(9) -0.4238(6)
C28 C 0.5380(13) 0.0662(10) -0.4724(5)
H19 H 0.5800 0.0350 -0.4986
C29 C 0.5249(14) 0.1457(10) -0.4808(6)
H20 H 0.5509 0.1672 -0.5145
C30 C 0.4748(13) 0.1952(11) -0.4412(6)
C31 C 0.4354(12) 0.1626(10) -0.3913(5)
C32 C 0.3819(15) 0.2126(10) -0.3507(6)
H21 H 0.3550 0.1919 -0.3169
C33 C 0.3702(16) 0.2893(14) -0.3609(7)
H22 H 0.3395 0.3222 -0.3329
C34 C 0.4012(18) 0.3223(11) -0.4106(9)
H23 H 0.3866 0.3760 -0.4170
C35 C 0.4552(16) 0.2749(13) -0.4519(8)
H24 H 0.4775 0.2966 -0.4860
C36 C -0.1176(12) -0.0766(11) -0.3455(6)
H25 H -0.0997 -0.0382 -0.3721
C37 C -0.1303(15) -0.0596(12) -0.2914(7)
H26 H -0.1306 -0.0103 -0.2740
C38 C -0.1434(16) -0.1365(15) -0.2674(8)
H27 H -0.1448 -0.1482 -0.2297
C39 C 0.0562(15) -0.3510(10) -0.4002(6)
H28 H 0.0976 -0.3506 -0.4344
C40 C 0.0777(14) -0.4057(12) -0.3583(7)
H29 H 0.1364 -0.4473 -0.3584
C41 C -0.0054(19) -0.3856(10) -0.3170(8)
H30 H -0.0168 -0.4124 -0.2836
C42 C -0.3891(13) -0.2860(8) -0.4262(6)
H31 H -0.4071 -0.2752 -0.4632
C43 C -0.4738(15) -0.3241(9) -0.3905(6)
H32 H -0.5545 -0.3452 -0.3980
C44 C -0.4083(14) -0.3226(10) -0.3423(6)
H33 H -0.4400 -0.3426 -0.3090
B1 B -0.1833(17) -0.2772(15) -0.3079(6)
H34 H -0.2022 -0.2962 -0.2704
Fe1B Fe 0.37594(17) -0.28529(12) -0.57324(7)
C2B C -0.1295(12) -0.2779(8) -0.4893(5)
B2 B -0.6032(13) -0.6804(8) -0.6414(5)
F1 F -0.5243(17) -0.7102(10) -0.6033(6)
F2 F -0.670(2) -0.7391(12) -0.6648(8)
F3 F -0.5349(19) -0.6428(14) -0.6801(7)
F4 F -0.684(2) -0.6294(15) -0.6175(10)
O1 O -0.615(2) -0.5480(14) -0.5204(11)
loop_
_geom_bond_atom_site_label_1
_geom_bond_atom_site_label_2
_geom_bond_site_symmetry_1
_geom_bond_site_symmetry_2
Fe1 N8 1_555 1_555
Co1 N1 1_555 1_555
N1 C1 1_555 1_555
N2 Co1 1_555 1_555
N3 C3 1_555 1_555
N4 Co1 1_555 1_555
N5 Co1 1_555 1_555
N6 Co1 1_555 1_555
H1 N6 1_555 1_555
N7 Co1 1_555 1_555
H2 N7 1_555 1_555
N8 N11 1_555 1_555
N9 Fe1 1_555 1_555
N10 Fe1 1_555 1_555
N11 C38 1_555 1_555
N12 N9 1_555 1_555
N13 N10 1_555 1_555
C1 Fe1 1_555 1_555
C2 N2 1_555 1_555
C3 Fe1 1_555 1_555
C4 N4 1_555 1_555
H3 C4 1_555 1_555
C5 C4 1_555 1_555
H4 C5 1_555 1_555
C6 C5 1_555 1_555
H5 C6 1_555 1_555
C7 C6 1_555 1_555
H6 C7 1_555 1_555
C8 N4 1_555 1_555
C9 N5 1_555 1_555
H7 C9 1_555 1_555
C10 C9 1_555 1_555
H8 C10 1_555 1_555
C11 C10 1_555 1_555
H9 C11 1_555 1_555
C12 C11 1_555 1_555
H10 C12 1_555 1_555
C13 N5 1_555 1_555
C14 N6 1_555 1_555
H11 C14 1_555 1_555
C15 N7 1_555 1_555
H12 C15 1_555 1_555
C16 C17 1_555 1_555
C17 N6 1_555 1_555
C18 C17 1_555 1_555
H13 C18 1_555 1_555
C19 C18 1_555 1_555
H14 C19 1_555 1_555
C20 C19 1_555 1_555
C21 C16 1_555 1_555
C22 C21 1_555 1_555
H15 C22 1_555 1_555
C23 C22 1_555 1_555
H16 C23 1_555 1_555
C24 C23 1_555 1_555
H17 C24 1_555 1_555
C25 C20 1_555 1_555
H18 C25 1_555 1_555
C26 C16 1_555 1_555
C27 N7 1_555 1_555
C28 C27 1_555 1_555
H19 C28 1_555 1_555
C29 C28 1_555 1_555
H20 C29 1_555 1_555
C30 C29 1_555 1_555
C31 C26 1_555 1_555
C32 C31 1_555 1_555
H21 C32 1_555 1_555
C33 C32 1_555 1_555
H22 C33 1_555 1_555
C34 C33 1_555 1_555
H23 C34 1_555 1_555
C35 C30 1_555 1_555
H24 C35 1_555 1_555
C36 N8 1_555 1_555
H25 C36 1_555 1_555
C37 C36 1_555 1_555
H26 C37 1_555 1_555
C38 C37 1_555 1_555
H27 C38 1_555 1_555
C39 N9 1_555 1_555
H28 C39 1_555 1_555
C40 C39 1_555 1_555
H29 C40 1_555 1_555
C41 N12 1_555 1_555
H30 C41 1_555 1_555
C42 N10 1_555 1_555
H31 C42 1_555 1_555
C43 C42 1_555 1_555
H32 C43 1_555 1_555
C44 N13 1_555 1_555
H33 C44 1_555 1_555
B1 N11 1_555 1_555
H34 B1 1_555 1_555
B2 F1 1_555 1_555
F2 B2 1_555 1_555
F3 B2 1_555 1_555
F4 B2 1_555 1_555
Fe1B C2 1_555 1_555
C2B Fe1 1_555 1_555
N12 B1 1_555 1_555
N13 B1 1_555 1_555
C7 C8 1_555 1_555
C8 C14 1_555 1_555
C12 C13 1_555 1_555
C13 C15 1_555 1_555
C20 C21 1_555 1_555
C24 C25 1_555 1_555
C26 C27 1_555 1_555
C30 C31 1_555 1_555
C34 C35 1_555 1_555
C40 C41 1_555 1_555
C43 C44 1_555 1_555

#END
