
#######################################################################
#
#                 Cambridge Crystallographic Data Centre
#                                CCDC 
#
#######################################################################
#
# If this CIF has been generated from an entry in the Cambridge 
# Structural Database, then it will include bibliographic, chemical, 
# crystal, experimental, refinement or atomic coordinate data resulting 
# from the CCDC's data processing and validation procedures.
#
#######################################################################

data_FENMUI
_symmetry_cell_setting           orthorhombic
_symmetry_space_group_name_H-M   'P 21 21 21'
_symmetry_Int_Tables_number      19
_space_group_name_Hall           'P 2ac 2ab'
loop_
_symmetry_equiv_pos_site_id
_symmetry_equiv_pos_as_xyz
1 x,y,z
2 1/2-x,-y,1/2+z
3 1/2+x,1/2-y,-z
4 -x,1/2+y,1/2-z
_cell_length_a                   10.894(7)
_cell_length_b                   16.942(11)
_cell_length_c                   24.069(16)
_cell_angle_alpha                90
_cell_angle_beta                 90
_cell_angle_gamma                90
_cell_volume                     4442.32
loop_
_atom_site_label
_atom_site_type_symbol
_atom_site_fract_x
_atom_site_fract_y
_atom_site_fract_z
Co1 Co 0.30576(12) 0.58456(9) 0.43506(7)
Fe1 Fe -0.12003(13) 0.70767(9) 0.42186(7)
N1 N 0.1282(8) 0.6293(5) 0.4447(4)
N2 N 0.3774(9) 0.6755(5) 0.4829(4)
N3 N -0.2700(9) 0.5957(6) 0.4954(5)
N4 N 0.2918(9) 0.4996(7) 0.4983(5)
N5 N 0.3436(9) 0.6400(6) 0.3594(4)
N6 N 0.2158(8) 0.4842(6) 0.3907(4)
H1 H 0.1395 0.5026 0.3825
N7 N 0.4974(7) 0.5400(5) 0.4183(4)
H2 H 0.5444 0.5582 0.4468
N8 N -0.1317(9) 0.6379(7) 0.3558(5)
N9 N -0.0335(9) 0.7882(6) 0.3770(4)
N10 N -0.2723(8) 0.7550(5) 0.3988(4)
N11 N -0.1544(9) 0.6707(7) 0.3058(5)
N12 N -0.0727(9) 0.8048(7) 0.3244(5)
N13 N -0.2922(9) 0.7735(5) 0.3440(4)
C1 C 0.0340(9) 0.6571(6) 0.4412(5)
C2 C 0.3854(11) 0.7238(6) 0.5163(5)
C3 C -0.2083(11) 0.6358(7) 0.4680(5)
C4 C 0.3415(12) 0.5112(8) 0.5501(7)
H3 H 0.3685 0.5613 0.5601
C5 C 0.3516(13) 0.4529(11) 0.5857(7)
H4 H 0.3837 0.4639 0.6207
C6 C 0.3177(14) 0.3775(11) 0.5745(8)
H5 H 0.3266 0.3371 0.6003
C7 C 0.2685(11) 0.3642(8) 0.5213(7)
H6 H 0.2453 0.3135 0.5108
C8 C 0.2542(10) 0.4262(9) 0.4843(7)
C9 C 0.2614(11) 0.6838(7) 0.3323(6)
H7 H 0.1876 0.6962 0.3496
C10 C 0.2833(12) 0.7122(7) 0.2776(7)
H8 H 0.2255 0.7428 0.2591
C11 C 0.3939(14) 0.6925(9) 0.2530(6)
H9 H 0.4125 0.7106 0.2175
C12 C 0.4754(12) 0.6464(8) 0.2811(7)
H10 H 0.5486 0.6315 0.2643
C13 C 0.4499(12) 0.6219(8) 0.3343(6)
C14 C 0.1931(10) 0.4171(7) 0.4280(5)
H11 H 0.2231 0.3692 0.4105
H12 H 0.1053 0.4113 0.4333
C15 C 0.5444(9) 0.5781(7) 0.3685(6)
H13 H 0.5822 0.5382 0.3452
H14 H 0.6082 0.6150 0.3793
C16 C 0.3891(11) 0.4370(6) 0.3339(5)
C17 C 0.2725(11) 0.4715(7) 0.3369(6)
C18 C 0.2156(11) 0.5022(7) 0.2901(6)
H15 H 0.1365 0.5225 0.2928
C19 C 0.2729(13) 0.5027(7) 0.2415(6)
H16 H 0.2316 0.5209 0.2102
C20 C 0.3975(13) 0.4757(8) 0.2360(6)
C21 C 0.4492(12) 0.4400(7) 0.2825(6)
C22 C 0.5718(12) 0.4101(8) 0.2749(6)
H17 H 0.6090 0.3819 0.3034
C23 C 0.6332(13) 0.4222(8) 0.2273(7)
H18 H 0.7143 0.4055 0.2248
C24 C 0.5801(16) 0.4585(8) 0.1823(7)
H19 H 0.6243 0.4645 0.1495
C25 C 0.4611(15) 0.4860(8) 0.1858(7)
H20 H 0.4240 0.5108 0.1557
C26 C 0.4513(9) 0.4068(8) 0.3840(5)
C27 C 0.5078(10) 0.4549(7) 0.4199(6)
C28 C 0.5657(9) 0.4251(8) 0.4688(5)
H21 H 0.6066 0.4595 0.4926
C29 C 0.5615(11) 0.3468(9) 0.4807(6)
H22 H 0.5989 0.3276 0.5127
C30 C 0.5000(11) 0.2943(10) 0.4442(7)
C31 C 0.4502(12) 0.3230(9) 0.3948(7)
C32 C 0.3908(12) 0.2726(8) 0.3582(6)
H23 H 0.3598 0.2916 0.3248
C33 C 0.3786(14) 0.1956(11) 0.3715(7)
H24 H 0.3411 0.1613 0.3465
C34 C 0.4207(14) 0.1673(8) 0.4215(8)
H25 H 0.4062 0.1146 0.4303
C35 C 0.4821(12) 0.2122(10) 0.4583(7)
H26 H 0.5117 0.1913 0.4914
C36 C -0.1179(12) 0.5597(9) 0.3480(7)
H27 H -0.1028 0.5226 0.3756
C37 C -0.1297(13) 0.5442(10) 0.2927(7)
H28 H -0.1230 0.4953 0.2754
C38 C -0.1534(11) 0.6145(11) 0.2677(6)
H29 H -0.1667 0.6220 0.2299
C39 C 0.0518(11) 0.8395(8) 0.3889(6)
H30 H 0.0945 0.8408 0.4224
C40 C 0.0709(12) 0.8917(8) 0.3460(7)
H31 H 0.1269 0.9330 0.3441
C41 C -0.0142(14) 0.8677(10) 0.3055(7)
H32 H -0.0271 0.8919 0.2713
C42 C -0.3743(11) 0.7751(6) 0.4261(6)
H33 H -0.3863 0.7701 0.4642
C43 C -0.4601(11) 0.8048(7) 0.3883(6)
H34 H -0.5393 0.8219 0.3962
C44 C -0.4040(11) 0.8038(8) 0.3371(6)
H35 H -0.4379 0.8211 0.3038
B1 B -0.1871(15) 0.7566(10) 0.3025(7)
H36 H -0.2094 0.7720 0.2646
Fe1B Fe 0.37997(13) 0.79233(9) 0.57814(7)
C2B C -0.1146(11) 0.7762(6) 0.4837(5)
F1 F 0.0053(11) 0.3781(6) 0.3344(4)
F2 F -0.1662(10) 0.3148(9) 0.3277(6)
F3 F -0.0706(16) 0.3219(13) 0.4036(5)
B2 B -0.064(2) 0.3179(14) 0.3507(11)
F4 F -0.0045(17) 0.2544(9) 0.3358(10)
loop_
_geom_bond_atom_site_label_1
_geom_bond_atom_site_label_2
_geom_bond_site_symmetry_1
_geom_bond_site_symmetry_2
Co1 N1 1_555 1_555
Fe1 N8 1_555 1_555
N1 C1 1_555 1_555
N2 Co1 1_555 1_555
N3 C3 1_555 1_555
N4 Co1 1_555 1_555
N5 Co1 1_555 1_555
N6 Co1 1_555 1_555
H1 N6 1_555 1_555
N7 Co1 1_555 1_555
H2 N7 1_555 1_555
N8 N11 1_555 1_555
N9 Fe1 1_555 1_555
N10 Fe1 1_555 1_555
N11 C38 1_555 1_555
N12 N9 1_555 1_555
N13 N10 1_555 1_555
C1 Fe1 1_555 1_555
C2 N2 1_555 1_555
C3 Fe1 1_555 1_555
C4 N4 1_555 1_555
H3 C4 1_555 1_555
C5 C4 1_555 1_555
H4 C5 1_555 1_555
C6 C5 1_555 1_555
H5 C6 1_555 1_555
C7 C6 1_555 1_555
H6 C7 1_555 1_555
C8 N4 1_555 1_555
C9 N5 1_555 1_555
H7 C9 1_555 1_555
C10 C9 1_555 1_555
H8 C10 1_555 1_555
C11 C10 1_555 1_555
H9 C11 1_555 1_555
C12 C11 1_555 1_555
H10 C12 1_555 1_555
C13 N5 1_555 1_555
C14 N6 1_555 1_555
H11 C14 1_555 1_555
H12 C14 1_555 1_555
C15 N7 1_555 1_555
H13 C15 1_555 1_555
H14 C15 1_555 1_555
C16 C17 1_555 1_555
C17 N6 1_555 1_555
C18 C17 1_555 1_555
H15 C18 1_555 1_555
C19 C18 1_555 1_555
H16 C19 1_555 1_555
C20 C19 1_555 1_555
C21 C16 1_555 1_555
C22 C21 1_555 1_555
H17 C22 1_555 1_555
C23 C22 1_555 1_555
H18 C23 1_555 1_555
C24 C23 1_555 1_555
H19 C24 1_555 1_555
C25 C20 1_555 1_555
H20 C25 1_555 1_555
C26 C16 1_555 1_555
C27 N7 1_555 1_555
C28 C27 1_555 1_555
H21 C28 1_555 1_555
C29 C28 1_555 1_555
H22 C29 1_555 1_555
C30 C29 1_555 1_555
C31 C26 1_555 1_555
C32 C31 1_555 1_555
H23 C32 1_555 1_555
C33 C32 1_555 1_555
H24 C33 1_555 1_555
C34 C33 1_555 1_555
H25 C34 1_555 1_555
C35 C30 1_555 1_555
H26 C35 1_555 1_555
C36 N8 1_555 1_555
H27 C36 1_555 1_555
C37 C36 1_555 1_555
H28 C37 1_555 1_555
C38 C37 1_555 1_555
H29 C38 1_555 1_555
C39 N9 1_555 1_555
H30 C39 1_555 1_555
C40 C39 1_555 1_555
H31 C40 1_555 1_555
C41 N12 1_555 1_555
H32 C41 1_555 1_555
C42 N10 1_555 1_555
H33 C42 1_555 1_555
C43 C42 1_555 1_555
H34 C43 1_555 1_555
C44 N13 1_555 1_555
H35 C44 1_555 1_555
B1 N11 1_555 1_555
H36 B1 1_555 1_555
F1 B2 1_555 1_555
F2 B2 1_555 1_555
F3 B2 1_555 1_555
B2 F4 1_555 1_555
Fe1B C2 1_555 1_555
C2B Fe1 1_555 1_555
N12 B1 1_555 1_555
N13 B1 1_555 1_555
C7 C8 1_555 1_555
C8 C14 1_555 1_555
C12 C13 1_555 1_555
C13 C15 1_555 1_555
C20 C21 1_555 1_555
C24 C25 1_555 1_555
C26 C27 1_555 1_555
C30 C31 1_555 1_555
C34 C35 1_555 1_555
C40 C41 1_555 1_555
C43 C44 1_555 1_555

#END
