
#######################################################################
#
#                 Cambridge Crystallographic Data Centre
#                                CCDC 
#
#######################################################################
#
# If this CIF has been generated from an entry in the Cambridge 
# Structural Database, then it will include bibliographic, chemical, 
# crystal, experimental, refinement or atomic coordinate data resulting 
# from the CCDC's data processing and validation procedures.
#
#######################################################################

data_FENROG
_symmetry_cell_setting           monoclinic
_symmetry_space_group_name_H-M   'C 2/c'
_symmetry_Int_Tables_number      15
_space_group_name_Hall           '-C 2yn'
loop_
_symmetry_equiv_pos_site_id
_symmetry_equiv_pos_as_xyz
1 x,y,z
2 1/2+x,1/2+y,z
3 -x,y,1/2-z
4 1/2-x,1/2+y,1/2-z
5 -x,-y,-z
6 1/2-x,1/2-y,-z
7 x,-y,1/2+z
8 1/2+x,1/2-y,1/2+z
_cell_length_a                   13.047(2)
_cell_length_b                   11.6893(14)
_cell_length_c                   7.8244(12)
_cell_angle_alpha                90
_cell_angle_beta                 109.954(17)
_cell_angle_gamma                90
_cell_volume                     1121.66
loop_
_atom_site_label
_atom_site_type_symbol
_atom_site_fract_x
_atom_site_fract_y
_atom_site_fract_z
Er1 Er 1.0000 0.055401(19) 0.7500
C1 C 1.1357(3) -0.1338(3) 0.9504(5)
O1 O 1.1311(2) -0.0985(2) 0.7967(4)
O2 O 1.0729(2) -0.0890(2) 1.0270(4)
C2 C 1.2164(3) -0.2242(3) 1.0525(5)
H1 H 1.1768 -0.2851 1.0869
H2 H 1.2656 -0.1905 1.1636
O3 O 1.0000 0.2559(4) 0.7500
O4 O 0.8403(3) 0.1303(3) 0.5313(4)
H3 H 1.047(3) 0.298(4) 0.815(6)
H6 H 0.831(5) 0.126(6) 0.423(3)
H7 H 0.780(2) 0.116(4) 0.532(7)
Er1F Er 1.0000 -0.055401(19) 1.2500
Er1G Er 1.5000 -0.555401(19) 1.2500
Er1A Er 1.5000 -0.444599(19) 0.7500
C1E C 1.3643(3) -0.3662(3) 1.0496(5)
O1E O 1.3689(2) -0.4015(2) 1.2033(4)
O1B O 0.8689(2) -0.0985(2) 0.7033(4)
O2E O 1.4271(2) -0.4110(2) 0.9730(4)
O2F O 1.0729(2) 0.0890(2) 0.5270(4)
O2D O 0.9271(2) 0.0890(2) 0.9730(4)
O2B O 0.9271(2) -0.0890(2) 0.4730(4)
C2E C 1.2836(3) -0.2758(3) 0.9475(5)
H1E H 1.3232 -0.2149 0.9131
H2E H 1.2344 -0.3095 0.8364
O4B O 1.1597(3) 0.1303(3) 0.9687(4)
H3B H 0.953(3) 0.298(4) 0.685(6)
H6B H 1.169(5) 0.126(6) 1.077(3)
H7B H 1.220(2) 0.116(4) 0.968(7)
O5 O 0.6308(3) 0.0783(4) 0.4887(6)
H4 H 0.605(6) 0.085(6) 0.570(8)
H5 H 0.602(6) 0.021(4) 0.433(10)
Cl1 Cl 1.0000 -0.37771(16) 0.7500
loop_
_geom_bond_atom_site_label_1
_geom_bond_atom_site_label_2
_geom_bond_site_symmetry_1
_geom_bond_site_symmetry_2
Er1 O1 1_555 1_555
C1 O1 1_555 1_555
O2 Er1 1_555 1_555
C2 C1 1_555 1_555
H1 C2 1_555 1_555
H2 C2 1_555 1_555
O3 Er1 1_555 1_555
O4 Er1 1_555 1_555
O5 H4 1_555 1_555
H3 O3 1_555 1_555
H5 O5 1_555 1_555
H6 O4 1_555 1_555
H7 O4 1_555 1_555
Er1F O2 1_555 1_555
Er1G O1E 1_555 1_555
Er1A O2E 1_555 1_555
C1E O1E 1_555 1_555
O1B Er1 1_555 1_555
O2E Er1G 1_555 1_555
O2F Er1 1_555 1_555
O2D Er1 1_555 1_555
O2B Er1 1_555 1_555
C2E C2 1_555 1_555
H1E C2E 1_555 1_555
H2E C2E 1_555 1_555
O4B Er1 1_555 1_555
H3B O3 1_555 1_555
H6B O4B 1_555 1_555
H7B O4B 1_555 1_555
C1 O2 1_555 1_555
Er1F O2D 1_555 1_555
C1E O2E 1_555 1_555
C1E C2E 1_555 1_555

#END
