
#######################################################################
#
#                 Cambridge Crystallographic Data Centre
#                                CCDC 
#
#######################################################################
#
# If this CIF has been generated from an entry in the Cambridge 
# Structural Database, then it will include bibliographic, chemical, 
# crystal, experimental, refinement or atomic coordinate data resulting 
# from the CCDC's data processing and validation procedures.
#
#######################################################################

data_FENRUM
_symmetry_cell_setting           triclinic
_symmetry_space_group_name_H-M   'P -1'
_symmetry_Int_Tables_number      2
_space_group_name_Hall           '-P 1'
loop_
_symmetry_equiv_pos_site_id
_symmetry_equiv_pos_as_xyz
1 x,y,z
2 -x,-y,-z
_cell_length_a                   7.0624(11)
_cell_length_b                   10.3895(16)
_cell_length_c                   12.7945(19)
_cell_angle_alpha                91.557(12)
_cell_angle_beta                 91.519(12)
_cell_angle_gamma                104.011(12)
_cell_volume                     909.998
loop_
_atom_site_label
_atom_site_type_symbol
_atom_site_fract_x
_atom_site_fract_y
_atom_site_fract_z
Sr1 Sr 0.0000 0.0000 0.0000
Sr2 Sr 0.43677(5) -0.20197(3) 0.05629(3)
Sr3 Sr 0.12971(5) 0.37527(3) 0.11050(3)
C1 C 0.4456(6) 0.1188(4) 0.2664(3)
C2 C 0.3653(6) 0.1447(4) 0.3604(3)
H1 H 0.2366 0.1518 0.3611
C3 C 0.4757(7) 0.1602(5) 0.4532(3)
H2 H 0.4220 0.1790 0.5157
C4 C 0.6662(7) 0.1473(5) 0.4523(3)
H3 H 0.7397 0.1564 0.5146
C5 C 0.7484(6) 0.1210(4) 0.3594(3)
H4 H 0.8760 0.1116 0.3598
C6 C 0.6399(5) 0.1086(4) 0.2655(3)
C7 C 0.3250(5) 0.1028(3) 0.1669(3)
C8 C 0.7344(5) 0.0862(4) 0.1658(3)
O1 O 0.3790(4) 0.0476(3) 0.0865(2)
O2 O 0.1726(4) 0.1448(3) 0.1653(2)
O3 O 0.8003(4) 0.1834(3) 0.1084(2)
O4 O 0.7486(4) -0.0298(3) 0.1439(2)
C9 C -0.2742(5) -0.4674(4) 0.2144(3)
C10 C -0.3413(6) -0.5292(4) 0.3056(3)
H5 H -0.4273 -0.6127 0.3015
C11 C -0.2819(7) -0.4683(5) 0.4036(3)
H6 H -0.3263 -0.5115 0.4643
C12 C -0.1561(7) -0.3430(5) 0.4099(4)
H7 H -0.1159 -0.3018 0.4749
C13 C -0.0899(6) -0.2785(4) 0.3189(3)
H8 H -0.0064 -0.1941 0.3235
C14 C -0.1477(5) -0.3394(4) 0.2213(3)
C15 C -0.0867(6) -0.2618(4) 0.1261(3)
C16 C -0.3241(5) -0.5467(4) 0.1118(3)
O5 O -0.2162(4) -0.2637(3) 0.0544(2)
O6 O 0.0854(4) -0.1942(3) 0.1197(3)
O7 O -0.4925(4) -0.6180(3) 0.0962(2)
O8 O -0.1868(4) -0.5413(3) 0.0483(2)
N1 N 0.3528(5) -0.3266(4) 0.2724(3)
O9 O 0.3023(6) -0.3776(4) 0.3563(3)
O10 O 0.4413(6) -0.2092(3) 0.2675(3)
O11 O 0.3131(5) -0.3945(3) 0.1865(2)
O12 O 0.0735(6) 0.3775(4) 0.3080(3)
H9 H -0.047(12) 0.350(8) 0.330(6)
H10 H 0.136(9) 0.462(7) 0.326(5)
Sr1_2 Sr 1.0000 0.0000 0.0000
Sr1_3 Sr -1.0000 0.0000 0.0000
Sr2A Sr -0.43677(5) 0.20197(3) -0.05629(3)
Sr2A_2 Sr 0.56323(5) 0.20197(3) -0.05629(3)
Sr2_2 Sr -0.56323(5) -0.20197(3) 0.05629(3)
Sr2A_3 Sr -0.43677(5) -0.79803(3) -0.05629(3)
Sr2_3 Sr 0.43677(5) 0.79803(3) 0.05629(3)
Sr3A Sr -0.12971(5) -0.37527(3) -0.11050(3)
Sr3_2 Sr 1.12971(5) 0.37527(3) 0.11050(3)
Sr3_3 Sr -0.87029(5) -0.62473(3) 0.11050(3)
Sr3_4 Sr 0.12971(5) -0.62473(3) 0.11050(3)
Sr3A_2 Sr -1.12971(5) -0.37527(3) -0.11050(3)
Sr3A_3 Sr 0.87029(5) 0.62473(3) -0.11050(3)
Sr3A_4 Sr -0.12971(5) 0.62473(3) -0.11050(3)
C1A C -0.4456(6) -0.1188(4) -0.2664(3)
C2A C -0.3653(6) -0.1447(4) -0.3604(3)
H1A H -0.2366 -0.1518 -0.3611
C3A C -0.4757(7) -0.1602(5) -0.4532(3)
H2A H -0.4220 -0.1790 -0.5157
C4A C -0.6662(7) -0.1473(5) -0.4523(3)
H3A H -0.7397 -0.1564 -0.5146
C5A C -0.7484(6) -0.1210(4) -0.3594(3)
H4A H -0.8760 -0.1116 -0.3598
C6A C -0.6399(5) -0.1086(4) -0.2655(3)
C7A C -0.3250(5) -0.1028(3) -0.1669(3)
C8A C -0.7344(5) -0.0862(4) -0.1658(3)
O1A O -0.3790(4) -0.0476(3) -0.0865(2)
O1A_2 O 0.6210(4) -0.0476(3) -0.0865(2)
O1_2 O -0.6210(4) 0.0476(3) 0.0865(2)
O2A O -0.1726(4) -0.1448(3) -0.1653(2)
O3A O -0.8003(4) -0.1834(3) -0.1084(2)
O3_2 O -0.1997(4) 0.1834(3) 0.1084(2)
O3A_2 O 0.1997(4) -0.1834(3) -0.1084(2)
O4A O -0.7486(4) 0.0298(3) -0.1439(2)
O4_2 O -0.2514(4) -0.0298(3) 0.1439(2)
O4A_2 O 0.2514(4) 0.0298(3) -0.1439(2)
C9A C 0.2742(5) 0.4674(4) -0.2144(3)
C10A C 0.3413(6) 0.5292(4) -0.3056(3)
H5A H 0.4273 0.6127 -0.3015
C11A C 0.2819(7) 0.4683(5) -0.4036(3)
H6A H 0.3263 0.5115 -0.4643
C12A C 0.1561(7) 0.3430(5) -0.4099(4)
H7A H 0.1159 0.3018 -0.4749
C13A C 0.0899(6) 0.2785(4) -0.3189(3)
H8A H 0.0064 0.1941 -0.3235
C14A C 0.1477(5) 0.3394(4) -0.2213(3)
C15A C 0.0867(6) 0.2618(4) -0.1261(3)
C16A C 0.3241(5) 0.5467(4) -0.1118(3)
O5A O 0.2162(4) 0.2637(3) -0.0544(2)
O5_2 O 0.7838(4) -0.2637(3) 0.0544(2)
O5A_2 O -0.7838(4) 0.2637(3) -0.0544(2)
O6A O -0.0854(4) 0.1942(3) -0.1197(3)
O7A O 0.4925(4) 0.6180(3) -0.0962(2)
O7A_2 O 0.4925(4) -0.3820(3) -0.0962(2)
O7_2 O 0.5075(4) 0.3820(3) 0.0962(2)
O7_3 O -0.4925(4) 0.3820(3) 0.0962(2)
O7A_3 O -0.5075(4) -0.3820(3) -0.0962(2)
O8A O 0.1868(4) 0.5413(3) -0.0483(2)
O8A_2 O 0.1868(4) -0.4587(3) -0.0483(2)
O8_2 O -0.1868(4) 0.4587(3) 0.0483(2)
N1_2 N 0.3528(5) 0.6734(4) 0.2724(3)
O9_2 O 0.3023(6) 0.6224(4) 0.3563(3)
O10_2 O 0.4413(6) 0.7908(3) 0.2675(3)
O10A O -0.4413(6) 0.2092(3) -0.2675(3)
O11_2 O 0.3131(5) 0.6055(3) 0.1865(2)
O11A O -0.3131(5) 0.3945(3) -0.1865(2)
O11A_2 O -0.3131(5) -0.6055(3) -0.1865(2)
O12A O -0.0735(6) -0.3775(4) -0.3080(3)
H9A H 0.047(12) -0.350(8) -0.330(6)
H10A H -0.136(9) -0.462(7) -0.326(5)
loop_
_geom_bond_atom_site_label_1
_geom_bond_atom_site_label_2
_geom_bond_site_symmetry_1
_geom_bond_site_symmetry_2
Sr1 O1 1_555 1_555
Sr2 O1 1_555 1_555
Sr3 O2 1_555 1_555
C1 C2 1_555 1_555
C2 H1 1_555 1_555
C3 C2 1_555 1_555
H2 C3 1_555 1_555
C4 C3 1_555 1_555
H3 C4 1_555 1_555
C5 C4 1_555 1_555
H4 C5 1_555 1_555
C6 C1 1_555 1_555
C7 C1 1_555 1_555
C8 C6 1_555 1_555
O1 C7 1_555 1_555
O2 Sr1 1_555 1_555
O3 C8 1_555 1_555
O4 Sr2 1_555 1_555
C9 C10 1_555 1_555
C10 H5 1_555 1_555
C11 C10 1_555 1_555
H6 C11 1_555 1_555
C12 C11 1_555 1_555
H7 C12 1_555 1_555
C13 C12 1_555 1_555
H8 C13 1_555 1_555
C14 C9 1_555 1_555
C15 C14 1_555 1_555
C16 C9 1_555 1_555
O5 Sr1 1_555 1_555
O6 Sr1 1_555 1_555
O7 C16 1_555 1_555
O8 C16 1_555 1_555
N1 O9 1_555 1_555
O10 Sr2 1_555 1_555
O11 Sr2 1_555 1_555
O12 Sr3 1_555 1_555
H9 O12 1_555 1_555
H10 O12 1_555 1_555
Sr1_2 O3 1_555 1_555
Sr1_3 O1_2 1_555 1_555
Sr2A O1A 1_555 1_555
Sr2A_2 O1 1_555 1_555
Sr2_2 O5 1_555 1_555
Sr2A_3 O7 1_555 1_555
Sr2_3 O7A 1_555 1_555
Sr3A O5 1_555 1_555
Sr3_2 O3 1_555 1_555
Sr3_3 O7 1_555 1_555
Sr3_4 O8 1_555 1_555
Sr3A_2 O3A 1_555 1_555
Sr3A_3 O7A 1_555 1_555
Sr3A_4 O8A 1_555 1_555
C1A C2A 1_555 1_555
C2A H1A 1_555 1_555
C3A C2A 1_555 1_555
H2A C3A 1_555 1_555
C4A C3A 1_555 1_555
H3A C4A 1_555 1_555
C5A C4A 1_555 1_555
H4A C5A 1_555 1_555
C6A C1A 1_555 1_555
C7A C1A 1_555 1_555
C8A C6A 1_555 1_555
O1A Sr1 1_555 1_555
O1A_2 Sr2 1_555 1_555
O1_2 Sr2A 1_555 1_555
O2A Sr1 1_555 1_555
O3A Sr1_3 1_555 1_555
O3_2 Sr1 1_555 1_555
O3A_2 Sr1 1_555 1_555
O4A Sr1_3 1_555 1_555
O4_2 Sr1 1_555 1_555
O4A_2 Sr1 1_555 1_555
C9A C10A 1_555 1_555
C10A H5A 1_555 1_555
C11A C10A 1_555 1_555
H6A C11A 1_555 1_555
C12A C11A 1_555 1_555
H7A C12A 1_555 1_555
C13A C12A 1_555 1_555
H8A C13A 1_555 1_555
C14A C9A 1_555 1_555
C15A C14A 1_555 1_555
C16A C9A 1_555 1_555
O5A Sr1 1_555 1_555
O5_2 Sr2 1_555 1_555
O5A_2 Sr1_3 1_555 1_555
O6A Sr1 1_555 1_555
O7A C16A 1_555 1_555
O7A_2 Sr2 1_555 1_555
O7_2 Sr3 1_555 1_555
O7_3 Sr2A 1_555 1_555
O7A_3 Sr2_2 1_555 1_555
O8A Sr3 1_555 1_555
O8A_2 Sr2 1_555 1_555
O8_2 Sr3 1_555 1_555
N1_2 O9_2 1_555 1_555
O10_2 Sr2_3 1_555 1_555
O10A Sr2A 1_555 1_555
O11_2 Sr3 1_555 1_555
O11A Sr2A 1_555 1_555
O11A_2 Sr2A_3 1_555 1_555
O12A Sr3A 1_555 1_555
H9A O12A 1_555 1_555
H10A O12A 1_555 1_555
Sr2 O6 1_555 1_555
Sr2 O3A_2 1_555 1_555
Sr3 O3_2 1_555 1_555
Sr3 O5A 1_555 1_555
C5 C6 1_555 1_555
C7 O2 1_555 1_555
C8 O4 1_555 1_555
O3 Sr2A_2 1_555 1_555
O4 Sr1_2 1_555 1_555
C13 C14 1_555 1_555
C15 O5 1_555 1_555
C15 O6 1_555 1_555
O8 Sr2A_3 1_555 1_555
O8 Sr3A 1_555 1_555
N1 O10 1_555 1_555
N1 O11 1_555 1_555
O11 Sr3_4 1_555 1_555
Sr1_2 O1A_2 1_555 1_555
Sr1_2 O5_2 1_555 1_555
Sr2A O3_2 1_555 1_555
Sr2A O4A 1_555 1_555
Sr2A O5A_2 1_555 1_555
Sr2A O6A 1_555 1_555
Sr2A O8_2 1_555 1_555
Sr2A_2 O1A_2 1_555 1_555
Sr2A_2 O4A_2 1_555 1_555
Sr2A_2 O5A 1_555 1_555
Sr2A_2 O7_2 1_555 1_555
Sr2_2 O1A 1_555 1_555
Sr2_2 O1_2 1_555 1_555
Sr2_2 O3A 1_555 1_555
Sr2_2 O4_2 1_555 1_555
Sr2_3 O8A 1_555 1_555
Sr2_3 O11_2 1_555 1_555
Sr3A O2A 1_555 1_555
Sr3A O3A_2 1_555 1_555
Sr3A O7A_3 1_555 1_555
Sr3A O8A_2 1_555 1_555
Sr3A O11A_2 1_555 1_555
Sr3_4 O8A_2 1_555 1_555
Sr3A_4 O8_2 1_555 1_555
Sr3A_4 O11A 1_555 1_555
C5A C6A 1_555 1_555
C7A O1A 1_555 1_555
C7A O2A 1_555 1_555
C8A O3A 1_555 1_555
C8A O4A 1_555 1_555
C13A C14A 1_555 1_555
C15A O5A 1_555 1_555
C15A O6A 1_555 1_555
C16A O8A 1_555 1_555
N1_2 O10_2 1_555 1_555
N1_2 O11_2 1_555 1_555

#END
