
#######################################################################
#
#                 Cambridge Crystallographic Data Centre
#                                CCDC 
#
#######################################################################
#
# If this CIF has been generated from an entry in the Cambridge 
# Structural Database, then it will include bibliographic, chemical, 
# crystal, experimental, refinement or atomic coordinate data resulting 
# from the CCDC's data processing and validation procedures.
#
#######################################################################

data_FENSUN02
_symmetry_cell_setting           orthorhombic
_symmetry_space_group_name_H-M   'P b c a'
_symmetry_Int_Tables_number      61
_space_group_name_Hall           '-P 2ac 2ab'
loop_
_symmetry_equiv_pos_site_id
_symmetry_equiv_pos_as_xyz
1 x,y,z
2 1/2-x,-y,1/2+z
3 -x,1/2+y,1/2-z
4 1/2+x,1/2-y,-z
5 -x,-y,-z
6 1/2+x,y,1/2-z
7 x,1/2-y,1/2+z
8 1/2-x,1/2+y,z
_cell_length_a                   7.213(2)
_cell_length_b                   13.614(4)
_cell_length_c                   14.255(4)
_cell_angle_alpha                90
_cell_angle_beta                 90
_cell_angle_gamma                90
_cell_volume                     1399.81
loop_
_atom_site_label
_atom_site_type_symbol
_atom_site_fract_x
_atom_site_fract_y
_atom_site_fract_z
Mn1 Mn -0.06401(8) -0.14110(4) -0.41470(4)
O1 O -0.2323(3) 0.09463(18) -0.01759(18)
O2 O -0.3375(3) -0.05874(17) -0.02290(17)
O3 O -0.3153(4) -0.21046(17) -0.15506(17)
O4 O -0.2141(4) -0.21623(18) -0.30128(18)
N1 N -0.1407(4) 0.0912(2) -0.2042(2)
H1 H -0.1301 0.1513 -0.1784
N2 N -0.1308(4) -0.0270(2) -0.3081(2)
C1 C -0.2573(5) 0.0129(3) -0.0592(3)
C2 C -0.1940(5) 0.0074(3) -0.1582(2)
C3 C -0.1881(5) -0.0655(2) -0.2245(2)
C4 C -0.1074(5) 0.0687(3) -0.2927(3)
H2 H -0.0716 0.1150 -0.3402
C5 C -0.2415(5) -0.1719(3) -0.2270(3)
O5 O -0.0469(4) -0.26833(18) -0.5029(2)
H3 H -0.1313 -0.2813 -0.5426
H4 H 0.0207 -0.3187 -0.4946
Mn1E Mn -0.56401(8) -0.14110(4) -0.08530(4)
Mn1A Mn -0.43599(8) 0.14110(4) 0.08530(4)
O1A O -0.2677(3) -0.09463(18) -0.51759(18)
O2E O 0.1625(3) -0.05874(17) -0.47710(17)
O3E O 0.1847(4) -0.21046(17) -0.34494(17)
loop_
_geom_bond_atom_site_label_1
_geom_bond_atom_site_label_2
_geom_bond_site_symmetry_1
_geom_bond_site_symmetry_2
Mn1 O4 1_555 1_555
O1 C1 1_555 1_555
O2 C1 1_555 1_555
O3 C5 1_555 1_555
O4 C5 1_555 1_555
N1 H1 1_555 1_555
N2 Mn1 1_555 1_555
C1 C2 1_555 1_555
C2 N1 1_555 1_555
C3 N2 1_555 1_555
C4 N1 1_555 1_555
H2 C4 1_555 1_555
C5 C3 1_555 1_555
O5 Mn1 1_555 1_555
H3 O5 1_555 1_555
H4 O5 1_555 1_555
Mn1E O2 1_555 1_555
Mn1A O1 1_555 1_555
O1A Mn1 1_555 1_555
O2E Mn1 1_555 1_555
O3E Mn1 1_555 1_555
O3 Mn1E 1_555 1_555
N2 C4 1_555 1_555
C2 C3 1_555 1_555

#END
