
#######################################################################
#
#                 Cambridge Crystallographic Data Centre
#                                CCDC 
#
#######################################################################
#
# If this CIF has been generated from an entry in the Cambridge 
# Structural Database, then it will include bibliographic, chemical, 
# crystal, experimental, refinement or atomic coordinate data resulting 
# from the CCDC's data processing and validation procedures.
#
#######################################################################

data_FENSUN
_symmetry_cell_setting           monoclinic
_symmetry_space_group_name_H-M   'P 21'
_symmetry_Int_Tables_number      4
_space_group_name_Hall           'P 2yb'
loop_
_symmetry_equiv_pos_site_id
_symmetry_equiv_pos_as_xyz
1 x,y,z
2 -x,1/2+y,-z
_cell_length_a                   7.0561(14)
_cell_length_b                   7.5531(15)
_cell_length_c                   7.6261(15)
_cell_angle_alpha                90
_cell_angle_beta                 117.36(3)
_cell_angle_gamma                90
_cell_volume                     360.971
loop_
_atom_site_label
_atom_site_type_symbol
_atom_site_fract_x
_atom_site_fract_y
_atom_site_fract_z
Mn1 Mn 0.28813(4) 0.74557(3) 0.16233(4)
N1 N 0.1831(3) 0.6125(3) 0.3638(3)
N2 N 0.0594(3) 0.5519(3) 0.5732(3)
O1 O 0.5815(3) 0.6474(2) 0.4159(3)
O2 O 0.7245(2) 0.5010(2) 0.6994(2)
O3 O 0.5465(3) 0.3925(2) 0.9622(2)
O4 O 0.2724(3) 0.5204(2) 0.9794(2)
O5 O -0.0375(3) 0.7794(2) -0.0537(3)
C1 C 0.0107(4) 0.5991(3) 0.3880(4)
C2 C 0.5667(3) 0.5713(3) 0.5535(3)
C3 C 0.3512(3) 0.5645(3) 0.5426(3)
C4 C 0.2763(3) 0.5269(3) 0.6752(3)
C5 C 0.3747(4) 0.4762(3) 0.8882(3)
H1 H -0.1272 0.6196 0.2892
H2 H -0.0297 0.5394 0.6202
H3 H -0.133(4) 0.839(4) -0.042(5)
H4 H -0.098(4) 0.688(3) -0.122(4)
Mn1A Mn 0.71187(4) 0.24557(3) 0.83767(4)
Mn1_2 Mn 0.28813(4) 0.74557(3) 1.16233(4)
O2A O 0.2755(2) 1.0010(2) 0.3006(2)
O3A O 0.4535(3) 0.8925(2) 0.0378(2)
O4_2 O 0.2724(3) 0.5204(2) -0.0206(2)
loop_
_geom_bond_atom_site_label_1
_geom_bond_atom_site_label_2
_geom_bond_site_symmetry_1
_geom_bond_site_symmetry_2
Mn1 N1 1_555 1_555
N1 C1 1_555 1_555
N2 C1 1_555 1_555
O1 Mn1 1_555 1_555
O2 C2 1_555 1_555
O3 C5 1_555 1_555
O4 C5 1_555 1_555
O5 Mn1 1_555 1_555
C1 H1 1_555 1_555
C2 O1 1_555 1_555
C3 N1 1_555 1_555
C4 N2 1_555 1_555
C5 C4 1_555 1_555
H2 N2 1_555 1_555
H3 O5 1_555 1_555
H4 O5 1_555 1_555
Mn1A O2 1_555 1_555
Mn1_2 O4 1_555 1_555
O2A Mn1 1_555 1_555
O3A Mn1 1_555 1_555
O4_2 Mn1 1_555 1_555
O3 Mn1A 1_555 1_555
C2 C3 1_555 1_555
C3 C4 1_555 1_555

#END
