
#######################################################################
#
#                 Cambridge Crystallographic Data Centre
#                                CCDC 
#
#######################################################################
#
# If this CIF has been generated from an entry in the Cambridge 
# Structural Database, then it will include bibliographic, chemical, 
# crystal, experimental, refinement or atomic coordinate data resulting 
# from the CCDC's data processing and validation procedures.
#
#######################################################################

data_FENTAU
_symmetry_cell_setting           monoclinic
_symmetry_space_group_name_H-M   'P 21/c'
_symmetry_Int_Tables_number      14
_space_group_name_Hall           '-P 2ybc'
loop_
_symmetry_equiv_pos_site_id
_symmetry_equiv_pos_as_xyz
1 x,y,z
2 -x,1/2+y,1/2-z
3 -x,-y,-z
4 x,1/2-y,1/2+z
_cell_length_a                   9.5529(11)
_cell_length_b                   12.6089(14)
_cell_length_c                   13.7463(16)
_cell_angle_alpha                90
_cell_angle_beta                 95.238(2)
_cell_angle_gamma                90
_cell_volume                     1648.85
loop_
_atom_site_label
_atom_site_type_symbol
_atom_site_fract_x
_atom_site_fract_y
_atom_site_fract_z
Cu1 Cu 0.63928(3) 0.49329(2) 0.439222(19)
O1 O 0.69814(19) 0.36958(18) 0.27940(14)
O2 O 0.54298(19) 0.49364(12) 0.31078(12)
O3 O 0.54050(18) 0.12488(13) -0.00557(11)
O4 O 0.4132(2) 0.20218(17) -0.13129(14)
O5 O 0.2053(2) 0.61591(18) 0.05076(16)
O6 O 0.1410(3) 0.5108(2) -0.06762(17)
N1 N 0.75910(19) 0.61592(15) 0.40514(13)
N2 N 0.7737(2) 0.49919(15) 0.56109(15)
N3 N 0.2168(3) 0.5340(2) 0.00489(16)
C1 C 0.7367(2) 0.67571(19) 0.32486(17)
H1 H 0.6605 0.6603 0.2801
C2 C 0.8230(3) 0.7593(2) 0.3064(2)
H2 H 0.8053 0.8001 0.2502
C3 C 0.9360(3) 0.7813(2) 0.3728(2)
H3 H 0.9970 0.8365 0.3612
C4 C 0.9584(3) 0.7214(2) 0.4562(2)
H4 H 1.0334 0.7363 0.5022
C5 C 0.8678(2) 0.63852(19) 0.47103(16)
C6 C 0.8790(2) 0.56972(19) 0.55786(16)
C7 C 0.9881(2) 0.5748(2) 0.63163(18)
H5 H 1.0607 0.6234 0.6282
C8 C 0.9876(3) 0.5067(2) 0.70998(19)
H6 H 1.0615 0.5071 0.7590
C9 C 0.8762(3) 0.4379(2) 0.71497(19)
H7 H 0.8723 0.3930 0.7683
C10 C 0.7707(3) 0.4371(2) 0.63936(18)
H8 H 0.6948 0.3915 0.6432
C11 C 0.5921(2) 0.42224(19) 0.25698(16)
C12 C 0.5083(2) 0.40583(18) 0.15967(16)
C13 C 0.4049(3) 0.47762(19) 0.12727(17)
H9 H 0.3879 0.5373 0.1641
C14 C 0.3277(2) 0.4589(2) 0.03931(17)
C15 C 0.3491(2) 0.37116(19) -0.01775(16)
H10 H 0.2952 0.3609 -0.0768
C16 C 0.4521(2) 0.29879(18) 0.01453(16)
C17 C 0.5311(2) 0.31728(18) 0.10303(16)
H11 H 0.6009 0.2692 0.1248
C18 C 0.4699(3) 0.20208(19) -0.04856(17)
Cu1C Cu 0.63928(3) 0.00671(2) -0.060778(19)
O3C O 0.54050(18) 0.37512(13) 0.49443(11)
loop_
_geom_bond_atom_site_label_1
_geom_bond_atom_site_label_2
_geom_bond_site_symmetry_1
_geom_bond_site_symmetry_2
Cu1 O2 1_555 1_555
O1 C11 1_555 1_555
O2 C11 1_555 1_555
O3 C18 1_555 1_555
O4 C18 1_555 1_555
O5 N3 1_555 1_555
O6 N3 1_555 1_555
N1 Cu1 1_555 1_555
N2 Cu1 1_555 1_555
N3 C14 1_555 1_555
C1 N1 1_555 1_555
H1 C1 1_555 1_555
C2 C1 1_555 1_555
H2 C2 1_555 1_555
C3 C2 1_555 1_555
H3 C3 1_555 1_555
C4 C3 1_555 1_555
H4 C4 1_555 1_555
C5 N1 1_555 1_555
C6 N2 1_555 1_555
C7 C6 1_555 1_555
H5 C7 1_555 1_555
C8 C7 1_555 1_555
H6 C8 1_555 1_555
C9 C8 1_555 1_555
H7 C9 1_555 1_555
C10 N2 1_555 1_555
H8 C10 1_555 1_555
C11 C12 1_555 1_555
C12 C13 1_555 1_555
C13 H9 1_555 1_555
C14 C13 1_555 1_555
C15 C14 1_555 1_555
H10 C15 1_555 1_555
C16 C15 1_555 1_555
C17 C12 1_555 1_555
H11 C17 1_555 1_555
C18 C16 1_555 1_555
Cu1C O3 1_555 1_555
O3C Cu1 1_555 1_555
C4 C5 1_555 1_555
C5 C6 1_555 1_555
C9 C10 1_555 1_555
C16 C17 1_555 1_555

#END
