
#######################################################################
#
#                 Cambridge Crystallographic Data Centre
#                                CCDC 
#
#######################################################################
#
# If this CIF has been generated from an entry in the Cambridge 
# Structural Database, then it will include bibliographic, chemical, 
# crystal, experimental, refinement or atomic coordinate data resulting 
# from the CCDC's data processing and validation procedures.
#
#######################################################################

data_FENTEY
_symmetry_cell_setting           triclinic
_symmetry_space_group_name_H-M   'P -1'
_symmetry_Int_Tables_number      2
_space_group_name_Hall           '-P 1'
loop_
_symmetry_equiv_pos_site_id
_symmetry_equiv_pos_as_xyz
1 x,y,z
2 -x,-y,-z
_cell_length_a                   6.5573(10)
_cell_length_b                   9.5294(14)
_cell_length_c                   9.8799(15)
_cell_angle_alpha                62.979(2)
_cell_angle_beta                 79.162(2)
_cell_angle_gamma                78.3850(10)
_cell_volume                     535.404
loop_
_atom_site_label
_atom_site_type_symbol
_atom_site_fract_x
_atom_site_fract_y
_atom_site_fract_z
Cd1 Cd 0.19917(11) -0.56485(7) -0.64066(7)
Cd2 Cd 0.5000 -0.5000 0.0000
C1 C 0.1570(15) -0.7455(11) 0.2086(11)
C2 C 0.2109(14) -0.6879(10) -0.3230(10)
C3 C 0.2942(14) -1.2303(10) 0.1094(10)
C4 C 0.1790(14) -0.8232(10) 0.1029(10)
C5 C 0.1752(14) -0.7267(10) -0.0533(10)
H1 H 0.1468 -0.6169 -0.0891
C6 C 0.2134(13) -0.7936(10) -0.1547(9)
C7 C 0.2603(14) -0.9580(10) -0.1008(10)
H2 H 0.2959 -1.0033 -0.1693
C8 C 0.2539(13) -1.0540(10) 0.0553(10)
C9 C 0.2143(14) -0.9865(10) 0.1577(10)
H3 H 0.2116 -1.0508 0.2622
O1 O 0.2588(12) -0.7524(8) -0.4128(7)
O2 O 0.1538(10) -0.5393(7) -0.3686(7)
O3 O 0.1035(13) -0.8135(8) 0.3471(7)
O4 O 0.1999(10) -0.6017(7) 0.1475(7)
O5 O 0.3524(11) -1.2796(7) 0.0084(7)
O6 O 0.2672(11) -1.3164(7) 0.2505(7)
O7 O 0.4146(11) -0.3899(8) -0.2659(8)
H4 H 0.354(16) -0.431(12) -0.313(12)
H5 H 0.423(17) -0.283(6) -0.329(10)
Cd1A Cd 0.80083(11) -0.43515(7) 0.64066(7)
Cd1A_2 Cd -0.19917(11) -0.43515(7) -0.35934(7)
Cd1_2 Cd 0.19917(11) -0.56485(7) 0.35934(7)
Cd1_3 Cd 0.19917(11) -1.56485(7) 0.35934(7)
Cd1A_3 Cd 0.80083(11) -0.43515(7) -0.35934(7)
Cd1_4 Cd 1.19917(11) -0.56485(7) 0.35934(7)
Cd1A_4 Cd 0.80083(11) 0.56485(7) -0.35934(7)
Cd2_2 Cd 0.5000 -1.5000 0.0000
Cd2_3 Cd 0.5000 0.5000 0.0000
C1A C 0.8430(15) -0.2545(11) -0.2086(11)
C2A C 0.7891(14) -0.3121(10) 0.3230(10)
C3A C 0.7058(14) 0.2303(10) -0.1094(10)
C4A C 0.8210(14) -0.1768(10) -0.1029(10)
C5A C 0.8248(14) -0.2733(10) 0.0533(10)
H1A H 0.8532 -0.3831 0.0891
C6A C 0.7866(13) -0.2064(10) 0.1547(9)
C7A C 0.7397(14) -0.0420(10) 0.1008(10)
H2A H 0.7041 0.0033 0.1693
C8A C 0.7461(13) 0.0540(10) -0.0553(10)
C9A C 0.7857(14) -0.0135(10) -0.1577(10)
H3A H 0.7884 0.0508 -0.2622
O1A O 0.7412(12) -0.2476(8) 0.4128(7)
O2A O 0.8462(10) -0.4607(7) 0.3686(7)
O2A_2 O -0.1538(10) -0.4607(7) -0.6314(7)
O2_2 O 1.1538(10) -0.5393(7) 0.6314(7)
O3A O 0.8965(13) -0.1865(8) -0.3471(7)
O3_2 O 0.1035(13) -0.8135(8) -0.6529(7)
O3A_2 O 0.8965(13) -0.1865(8) 0.6529(7)
O4A O 0.8001(10) -0.3983(7) -0.1475(7)
O4_2 O 0.1999(10) -0.6017(7) -0.8525(7)
O4A_2 O 0.8001(10) -0.3983(7) 0.8525(7)
O5A O 0.6476(11) 0.2796(7) -0.0084(7)
O5_2 O 0.3524(11) -0.2796(7) 0.0084(7)
O5A_2 O 0.6476(11) -0.7204(7) -0.0084(7)
O6A O 0.7328(11) 0.3164(7) -0.2505(7)
O6_2 O 0.2672(11) -0.3164(7) -0.7495(7)
O6A_2 O 0.7328(11) -0.6836(7) 0.7495(7)
O7A O 0.5854(11) -0.6101(8) 0.2659(8)
O7A_2 O 0.5854(11) -0.6101(8) -0.7341(8)
O7_2 O 0.4146(11) -0.3899(8) 0.7341(8)
H4A H 0.646(16) -0.569(12) 0.313(12)
H4A_2 H 0.646(16) -0.569(12) -0.687(12)
H4_2 H 0.354(16) -0.431(12) 0.687(12)
H5A H 0.577(17) -0.717(6) 0.329(10)
H5A_2 H 0.577(17) -0.717(6) -0.671(10)
H5_2 H 0.423(17) -0.283(6) 0.671(10)
O8 O 0.3110(19) -0.0801(12) -0.3989(11)
H6 H 0.416(15) -0.049(19) -0.474(12)
H7 H 0.207(14) -0.085(18) -0.443(14)
loop_
_geom_bond_atom_site_label_1
_geom_bond_atom_site_label_2
_geom_bond_site_symmetry_1
_geom_bond_site_symmetry_2
Cd1 O1 1_555 1_555
Cd2 O4 1_555 1_555
C1 C4 1_555 1_555
C2 C6 1_555 1_555
C3 C8 1_555 1_555
C4 C5 1_555 1_555
C5 H1 1_555 1_555
C6 C5 1_555 1_555
C7 C6 1_555 1_555
H2 C7 1_555 1_555
C8 C7 1_555 1_555
C9 C4 1_555 1_555
H3 C9 1_555 1_555
O1 C2 1_555 1_555
O2 C2 1_555 1_555
O3 C1 1_555 1_555
O4 C1 1_555 1_555
O5 C3 1_555 1_555
O6 C3 1_555 1_555
O7 Cd2 1_555 1_555
H4 O7 1_555 1_555
H5 O7 1_555 1_555
O8 H6 1_555 1_555
H7 O8 1_555 1_555
Cd1A O1A 1_555 1_555
Cd1A_2 O2 1_555 1_555
Cd1_2 O3 1_555 1_555
Cd1_3 O6 1_555 1_555
Cd1A_3 O7 1_555 1_555
Cd1_4 O2A 1_555 1_555
Cd1A_4 O6A 1_555 1_555
Cd2_2 O5 1_555 1_555
Cd2_3 O5A 1_555 1_555
C1A C4A 1_555 1_555
C2A C6A 1_555 1_555
C3A C8A 1_555 1_555
C4A C5A 1_555 1_555
C5A H1A 1_555 1_555
C6A C5A 1_555 1_555
C7A C6A 1_555 1_555
H2A C7A 1_555 1_555
C8A C7A 1_555 1_555
C9A C4A 1_555 1_555
H3A C9A 1_555 1_555
O1A C2A 1_555 1_555
O2A C2A 1_555 1_555
O2A_2 Cd1 1_555 1_555
O2_2 Cd1A 1_555 1_555
O3A Cd1A_3 1_555 1_555
O3_2 Cd1 1_555 1_555
O3A_2 Cd1A 1_555 1_555
O4A Cd2 1_555 1_555
O4_2 Cd1 1_555 1_555
O4A_2 Cd1A 1_555 1_555
O5A C3A 1_555 1_555
O5_2 Cd2 1_555 1_555
O5A_2 Cd2 1_555 1_555
O6A C3A 1_555 1_555
O6_2 Cd1 1_555 1_555
O6A_2 Cd1A 1_555 1_555
O7A Cd2 1_555 1_555
O7A_2 Cd1 1_555 1_555
O7_2 Cd1A 1_555 1_555
H4A O7A 1_555 1_555
H4A_2 O7A_2 1_555 1_555
H4_2 O7_2 1_555 1_555
H5A O7A 1_555 1_555
H5A_2 O7A_2 1_555 1_555
H5_2 O7_2 1_555 1_555
C8 C9 1_555 1_555
O4 Cd1_2 1_555 1_555
Cd1_2 O7A 1_555 1_555
Cd1A_3 O4A 1_555 1_555
C1A O3A 1_555 1_555
C1A O4A 1_555 1_555
C8A C9A 1_555 1_555

#END
