
#######################################################################
#
#                 Cambridge Crystallographic Data Centre
#                                CCDC 
#
#######################################################################
#
# If this CIF has been generated from an entry in the Cambridge 
# Structural Database, then it will include bibliographic, chemical, 
# crystal, experimental, refinement or atomic coordinate data resulting 
# from the CCDC's data processing and validation procedures.
#
#######################################################################

data_FENTOJ
_symmetry_cell_setting           monoclinic
_symmetry_space_group_name_H-M   'C 2/m'
_symmetry_Int_Tables_number      12
_space_group_name_Hall           '-C 2y'
loop_
_symmetry_equiv_pos_site_id
_symmetry_equiv_pos_as_xyz
1 x,y,z
2 -x,y,-z
3 1/2+x,1/2+y,z
4 1/2-x,1/2+y,-z
5 -x,-y,-z
6 x,-y,z
7 1/2-x,1/2-y,-z
8 1/2+x,1/2-y,z
_cell_length_a                   23.109(5)
_cell_length_b                   17.421(3)
_cell_length_c                   14.250(3)
_cell_angle_alpha                90
_cell_angle_beta                 128.07(3)
_cell_angle_gamma                90
_cell_volume                     4516.34
loop_
_atom_site_label
_atom_site_type_symbol
_atom_site_fract_x
_atom_site_fract_y
_atom_site_fract_z
Mn1 Mn -0.13520(7) 0.5000 -0.50646(12)
Mn2 Mn 0.10109(8) 0.5000 -0.22559(12)
Mn3 Mn 0.0000 0.32653(8) -0.5000
P1 P -0.02321(10) 0.37861(9) -0.31429(15)
P2 P -0.16344(10) 0.37850(11) -0.69288(16)
O1 O -0.0901(3) 0.4249(4) -0.3903(6)
O2 O 0.0414(4) 0.4267(4) -0.2320(5)
O3 O -0.0130(5) 0.3272(3) -0.3851(6)
O4 O -0.1768(3) 0.4254(4) -0.6218(6)
O5 O -0.0994(3) 0.3274(3) -0.6189(7)
O6 O -0.1572(4) 0.4255(4) -0.7737(5)
N1 N -0.2324(4) 0.5000 -0.5107(7)
N2 N 0.1723(5) 0.5000 -0.0304(7)
N3 N 0.0000 0.1998(5) -0.5000
C1 C -0.0342(5) 0.3177(4) -0.2229(7)
C2 C -0.2416(5) 0.3155(6) -0.7829(8)
C3 C 0.292(2) 0.5000 0.158(3)
H1 H 0.3426 0.5000 0.2019
C4 C -0.0293(6) 0.1607(5) -0.5976(8)
H2 H -0.0516 0.1874 -0.6687
C5 C 0.0000 0.0427(5) -0.5000
C6 C -0.0936(6) 0.2597(6) -0.3052(10)
H3 H -0.1012 0.2266 -0.2598
H4 H -0.0787 0.2296 -0.3434
H5 H -0.1385 0.2861 -0.3645
C7 C -0.0588(6) 0.3688(6) -0.1668(9)
H6 H -0.0656 0.3382 -0.1183
H7 H -0.1043 0.3933 -0.2284
H8 H -0.0220 0.4071 -0.1183
C8 C -0.0290(7) 0.0836(5) -0.6005(9)
H9 H -0.0488 0.0584 -0.6720
C9 C -0.2650(6) 0.4386(7) -0.5192(11)
H10 H -0.2435 0.3929 -0.5172
C10 C 0.0356(6) 0.2788(6) -0.1313(9)
H11 H 0.0293 0.2467 -0.0835
H12 H 0.0729 0.3164 -0.0815
H13 H 0.0502 0.2479 -0.1693
C11 C -0.2443(7) 0.2630(8) -0.7049(11)
H14 H -0.2860 0.2295 -0.7527
H15 H -0.2487 0.2922 -0.6524
H16 H -0.2001 0.2330 -0.6587
C12 C 0.1458(9) 0.5000 0.0295(11)
H17 H 0.0951 0.5000 -0.0136
C13 C 0.1883(13) 0.5000 0.1495(16)
H18 H 0.1670 0.5000 0.1876
C14 C 0.2575(12) 0.5000 0.2096(15)
H19 H 0.2865 0.5000 0.2923
C15 C 0.2409(14) 0.5000 0.027(2)
H20 H 0.2599 0.5000 -0.0151
C16 C -0.3279(7) 0.4323(10) -0.5310(14)
H21 H -0.3467 0.3853 -0.5303
C17 C -0.3610(10) 0.5000 -0.544(2)
H22 H -0.4071 0.5000 -0.5619
C18 C -0.2335(7) 0.2741(9) -0.8643(12)
H23 H -0.2743 0.2398 -0.9134
H24 H -0.1886 0.2452 -0.8187
H25 H -0.2323 0.3103 -0.9140
C19 C -0.3086(6) 0.3634(9) -0.8498(14)
H26 H -0.3511 0.3311 -0.8983
H27 H -0.3069 0.3986 -0.8999
H28 H -0.3114 0.3916 -0.7949
Mn1A Mn 0.13520(7) 0.5000 -0.49354(12)
Mn2A Mn -0.10109(8) 0.5000 -0.77441(12)
Mn3D Mn 0.0000 0.67347(8) -0.5000
Mn3D_2 Mn 0.0000 -0.32653(8) -0.5000
P1E P -0.02321(10) 0.62139(9) -0.31429(15)
P1A P 0.02321(10) 0.37861(9) -0.68571(15)
P1D P 0.02321(10) 0.62139(9) -0.68571(15)
P2E P -0.16344(10) 0.62150(11) -0.69288(16)
P2A P 0.16344(10) 0.37850(11) -0.30712(16)
P2D P 0.16344(10) 0.62150(11) -0.30712(16)
O1E O -0.0901(3) 0.5751(4) -0.3903(6)
O1A O 0.0901(3) 0.4249(4) -0.6097(6)
O1D O 0.0901(3) 0.5751(4) -0.6097(6)
O2E O 0.0414(4) 0.5733(4) -0.2320(5)
O2A O -0.0414(4) 0.4267(4) -0.7680(5)
O2D O -0.0414(4) 0.5733(4) -0.7680(5)
O3E O -0.0130(5) 0.6728(3) -0.3851(6)
O3A O 0.0130(5) 0.3272(3) -0.6149(6)
O3D O 0.0130(5) 0.6728(3) -0.6149(6)
O4E O -0.1768(3) 0.5746(4) -0.6218(6)
O4A O 0.1768(3) 0.4254(4) -0.3782(6)
O4D O 0.1768(3) 0.5746(4) -0.3782(6)
O5E O -0.0994(3) 0.6726(3) -0.6189(7)
O5A O 0.0994(3) 0.3274(3) -0.3811(7)
O5D O 0.0994(3) 0.6726(3) -0.3811(7)
O6E O -0.1572(4) 0.5745(4) -0.7737(5)
O6A O 0.1572(4) 0.4255(4) -0.2263(5)
O6D O 0.1572(4) 0.5745(4) -0.2263(5)
N1A N 0.2324(4) 0.5000 -0.4893(7)
N2A N -0.1723(5) 0.5000 -0.9696(7)
N3D N 0.0000 -0.1998(5) -0.5000
N3D_2 N 0.0000 0.8002(5) -0.5000
C1E C -0.0342(5) 0.6823(4) -0.2229(7)
C1A C 0.0342(5) 0.3177(4) -0.7771(7)
C1D C 0.0342(5) 0.6823(4) -0.7771(7)
C2E C -0.2416(5) 0.6845(6) -0.7829(8)
C2A C 0.2416(5) 0.3155(6) -0.2171(8)
C2D C 0.2416(5) 0.6845(6) -0.2171(8)
C3A C -0.292(2) 0.5000 -1.158(3)
H1A H -0.3426 0.5000 -1.2019
C4E C -0.0293(6) -0.1607(5) -0.5976(8)
C4D C 0.0293(6) -0.1607(5) -0.4024(8)
C4A C 0.0293(6) 0.1607(5) -0.4024(8)
H2D H 0.0516 -0.1874 -0.3313
H2E H -0.0516 -0.1874 -0.6687
H2A H 0.0516 0.1874 -0.3313
C5D C 0.0000 -0.0427(5) -0.5000
C6E C -0.0936(6) 0.7403(6) -0.3052(10)
C6A C 0.0936(6) 0.2597(6) -0.6948(10)
C6D C 0.0936(6) 0.7403(6) -0.6948(10)
H3E H -0.1012 0.7734 -0.2598
H3A H 0.1012 0.2266 -0.7402
H3D H 0.1012 0.7734 -0.7402
H4E H -0.0787 0.7704 -0.3434
H4A H 0.0787 0.2296 -0.6566
H4D H 0.0787 0.7704 -0.6566
H5E H -0.1385 0.7139 -0.3645
H5A H 0.1385 0.2861 -0.6355
H5D H 0.1385 0.7139 -0.6355
C7E C -0.0588(6) 0.6312(6) -0.1668(9)
C7A C 0.0588(6) 0.3688(6) -0.8332(9)
C7D C 0.0588(6) 0.6312(6) -0.8332(9)
H6E H -0.0656 0.6618 -0.1183
H6A H 0.0656 0.3382 -0.8817
H6D H 0.0656 0.6618 -0.8817
H7E H -0.1043 0.6067 -0.2284
H7A H 0.1043 0.3933 -0.7716
H7D H 0.1043 0.6067 -0.7716
H8E H -0.0220 0.5929 -0.1183
H8A H 0.0220 0.4071 -0.8817
H8D H 0.0220 0.5929 -0.8817
C8E C -0.0290(7) -0.0836(5) -0.6005(9)
C8D C 0.0290(7) -0.0836(5) -0.3995(9)
C8A C 0.0290(7) 0.0836(5) -0.3995(9)
H9D H 0.0488 -0.0584 -0.3280
H9E H -0.0488 -0.0584 -0.6720
H9A H 0.0488 0.0584 -0.3280
C9E C -0.2650(6) 0.5614(7) -0.5192(11)
C9A C 0.2650(6) 0.4386(7) -0.4808(11)
C9D C 0.2650(6) 0.5614(7) -0.4808(11)
H10E H -0.2435 0.6071 -0.5172
H10A H 0.2435 0.3929 -0.4828
H10D H 0.2435 0.6071 -0.4828
C10E C 0.0356(6) 0.7212(6) -0.1313(9)
C10A C -0.0356(6) 0.2788(6) -0.8687(9)
C10D C -0.0356(6) 0.7212(6) -0.8687(9)
H11E H 0.0293 0.7533 -0.0835
H11A H -0.0293 0.2467 -0.9165
H11D H -0.0293 0.7533 -0.9165
H12E H 0.0729 0.6836 -0.0815
H12A H -0.0729 0.3164 -0.9185
H12D H -0.0729 0.6836 -0.9185
H13E H 0.0502 0.7521 -0.1693
H13A H -0.0502 0.2479 -0.8307
H13D H -0.0502 0.7521 -0.8307
C11E C -0.2443(7) 0.7370(8) -0.7049(11)
C11A C 0.2443(7) 0.2630(8) -0.2951(11)
C11D C 0.2443(7) 0.7370(8) -0.2951(11)
H14E H -0.2860 0.7705 -0.7527
H14A H 0.2860 0.2295 -0.2473
H14D H 0.2860 0.7705 -0.2473
H15E H -0.2487 0.7078 -0.6524
H15A H 0.2487 0.2922 -0.3476
H15D H 0.2487 0.7078 -0.3476
H16E H -0.2001 0.7670 -0.6587
H16A H 0.2001 0.2330 -0.3413
H16D H 0.2001 0.7670 -0.3413
C12A C -0.1458(9) 0.5000 -1.0295(11)
H17A H -0.0951 0.5000 -0.9864
C13A C -0.1883(13) 0.5000 -1.1495(16)
H18A H -0.1670 0.5000 -1.1876
C14A C -0.2575(12) 0.5000 -1.2096(15)
H19A H -0.2865 0.5000 -1.2923
C15A C -0.2409(14) 0.5000 -1.027(2)
H20A H -0.2599 0.5000 -0.9849
C16E C -0.3279(7) 0.5677(10) -0.5310(14)
C16A C 0.3279(7) 0.4323(10) -0.4690(14)
C16D C 0.3279(7) 0.5677(10) -0.4690(14)
H21E H -0.3467 0.6147 -0.5303
H21A H 0.3467 0.3853 -0.4697
H21D H 0.3467 0.6147 -0.4697
C17A C 0.3610(10) 0.5000 -0.456(2)
H22A H 0.4071 0.5000 -0.4381
C18E C -0.2335(7) 0.7259(9) -0.8643(12)
C18A C 0.2335(7) 0.2741(9) -0.1357(12)
C18D C 0.2335(7) 0.7259(9) -0.1357(12)
H23E H -0.2743 0.7602 -0.9134
H23A H 0.2743 0.2398 -0.0866
H23D H 0.2743 0.7602 -0.0866
H24E H -0.1886 0.7548 -0.8187
H24A H 0.1886 0.2452 -0.1813
H24D H 0.1886 0.7548 -0.1813
H25E H -0.2323 0.6897 -0.9140
H25A H 0.2323 0.3103 -0.0860
H25D H 0.2323 0.6897 -0.0860
C19E C -0.3086(6) 0.6366(9) -0.8498(14)
C19A C 0.3086(6) 0.3634(9) -0.1502(14)
C19D C 0.3086(6) 0.6366(9) -0.1502(14)
H26E H -0.3511 0.6689 -0.8983
H26A H 0.3511 0.3311 -0.1017
H26D H 0.3511 0.6689 -0.1017
H27E H -0.3069 0.6014 -0.8999
H27A H 0.3069 0.3986 -0.1001
H27D H 0.3069 0.6014 -0.1001
H28E H -0.3114 0.6084 -0.7949
H28A H 0.3114 0.3916 -0.2051
H28D H 0.3114 0.6084 -0.2051
Cl1 Cl -0.5000 0.0000 -0.5000
Cl2 Cl -0.0458(14) 0.0000 -0.840(2)
loop_
_geom_bond_atom_site_label_1
_geom_bond_atom_site_label_2
_geom_bond_site_symmetry_1
_geom_bond_site_symmetry_2
Mn1 O1 1_555 1_555
Mn2 O2 1_555 1_555
Mn3 O3 1_555 1_555
P1 O1 1_555 1_555
P2 O4 1_555 1_555
O2 P1 1_555 1_555
O3 P1 1_555 1_555
O4 Mn1 1_555 1_555
O5 Mn3 1_555 1_555
O6 P2 1_555 1_555
N1 Mn1 1_555 1_555
N2 Mn2 1_555 1_555
N3 Mn3 1_555 1_555
C1 P1 1_555 1_555
C2 P2 1_555 1_555
C3 H1 1_555 1_555
C4 N3 1_555 1_555
H2 C4 1_555 1_555
C5 C8 1_555 1_555
C6 C1 1_555 1_555
H3 C6 1_555 1_555
H4 C6 1_555 1_555
H5 C6 1_555 1_555
C7 C1 1_555 1_555
H6 C7 1_555 1_555
H7 C7 1_555 1_555
H8 C7 1_555 1_555
C8 C4 1_555 1_555
H9 C8 1_555 1_555
C9 N1 1_555 1_555
H10 C9 1_555 1_555
C10 C1 1_555 1_555
H11 C10 1_555 1_555
H12 C10 1_555 1_555
H13 C10 1_555 1_555
C11 C2 1_555 1_555
H14 C11 1_555 1_555
H15 C11 1_555 1_555
H16 C11 1_555 1_555
C12 N2 1_555 1_555
H17 C12 1_555 1_555
C13 C12 1_555 1_555
H18 C13 1_555 1_555
C14 C3 1_555 1_555
H19 C14 1_555 1_555
C15 N2 1_555 1_555
H20 C15 1_555 1_555
C16 C9 1_555 1_555
H21 C16 1_555 1_555
C17 C16 1_555 1_555
H22 C17 1_555 1_555
C18 C2 1_555 1_555
H23 C18 1_555 1_555
H24 C18 1_555 1_555
H25 C18 1_555 1_555
C19 C2 1_555 1_555
H26 C19 1_555 1_555
H27 C19 1_555 1_555
H28 C19 1_555 1_555
Mn1A O1A 1_555 1_555
Mn2A O6 1_555 1_555
Mn3D O3E 1_555 1_555
Mn3D_2 N3D 1_555 1_555
P1E O1E 1_555 1_555
P1A O1A 1_555 1_555
P1D O1D 1_555 1_555
P2E O4E 1_555 1_555
P2A O4A 1_555 1_555
P2D O4D 1_555 1_555
O1E Mn1 1_555 1_555
O1D Mn1A 1_555 1_555
O2E Mn2 1_555 1_555
O2A Mn2A 1_555 1_555
O2D Mn2A 1_555 1_555
O3E P1E 1_555 1_555
O3A Mn3 1_555 1_555
O3D Mn3D 1_555 1_555
O4E Mn1 1_555 1_555
O4A Mn1A 1_555 1_555
O4D Mn1A 1_555 1_555
O5E Mn3D 1_555 1_555
O5A Mn3 1_555 1_555
O5D Mn3D 1_555 1_555
O6E Mn2A 1_555 1_555
O6A Mn2 1_555 1_555
O6D Mn2 1_555 1_555
N1A Mn1A 1_555 1_555
N2A Mn2A 1_555 1_555
N3D C4E 1_555 1_555
N3D_2 Mn3D 1_555 1_555
C1E P1E 1_555 1_555
C1A P1A 1_555 1_555
C1D P1D 1_555 1_555
C2E P2E 1_555 1_555
C2A P2A 1_555 1_555
C2D P2D 1_555 1_555
C3A H1A 1_555 1_555
C4E H2E 1_555 1_555
C4D N3D 1_555 1_555
C4A N3 1_555 1_555
H2D C4D 1_555 1_555
H2A C4A 1_555 1_555
C5D C5 1_555 1_555
C6E C1E 1_555 1_555
C6A C1A 1_555 1_555
C6D C1D 1_555 1_555
H3E C6E 1_555 1_555
H3A C6A 1_555 1_555
H3D C6D 1_555 1_555
H4E C6E 1_555 1_555
H4A C6A 1_555 1_555
H4D C6D 1_555 1_555
H5E C6E 1_555 1_555
H5A C6A 1_555 1_555
H5D C6D 1_555 1_555
C7E C1E 1_555 1_555
C7A C1A 1_555 1_555
C7D C1D 1_555 1_555
H6E C7E 1_555 1_555
H6A C7A 1_555 1_555
H6D C7D 1_555 1_555
H7E C7E 1_555 1_555
H7A C7A 1_555 1_555
H7D C7D 1_555 1_555
H8E C7E 1_555 1_555
H8A C7A 1_555 1_555
H8D C7D 1_555 1_555
C8E C4E 1_555 1_555
C8D C4D 1_555 1_555
C8A C5 1_555 1_555
H9D C8D 1_555 1_555
H9E C8E 1_555 1_555
H9A C8A 1_555 1_555
C9E N1 1_555 1_555
C9A N1A 1_555 1_555
C9D N1A 1_555 1_555
H10E C9E 1_555 1_555
H10A C9A 1_555 1_555
H10D C9D 1_555 1_555
C10E C1E 1_555 1_555
C10A C1A 1_555 1_555
C10D C1D 1_555 1_555
H11E C10E 1_555 1_555
H11A C10A 1_555 1_555
H11D C10D 1_555 1_555
H12E C10E 1_555 1_555
H12A C10A 1_555 1_555
H12D C10D 1_555 1_555
H13E C10E 1_555 1_555
H13A C10A 1_555 1_555
H13D C10D 1_555 1_555
C11E C2E 1_555 1_555
C11A C2A 1_555 1_555
C11D C2D 1_555 1_555
H14E C11E 1_555 1_555
H14A C11A 1_555 1_555
H14D C11D 1_555 1_555
H15E C11E 1_555 1_555
H15A C11A 1_555 1_555
H15D C11D 1_555 1_555
H16E C11E 1_555 1_555
H16A C11A 1_555 1_555
H16D C11D 1_555 1_555
C12A N2A 1_555 1_555
H17A C12A 1_555 1_555
C13A C12A 1_555 1_555
H18A C13A 1_555 1_555
C14A C3A 1_555 1_555
H19A C14A 1_555 1_555
C15A N2A 1_555 1_555
H20A C15A 1_555 1_555
C16E C17 1_555 1_555
C16A C9A 1_555 1_555
C16D C9D 1_555 1_555
H21E C16E 1_555 1_555
H21A C16A 1_555 1_555
H21D C16D 1_555 1_555
C17A C16A 1_555 1_555
H22A C17A 1_555 1_555
C18E C2E 1_555 1_555
C18A C2A 1_555 1_555
C18D C2D 1_555 1_555
H23E C18E 1_555 1_555
H23A C18A 1_555 1_555
H23D C18D 1_555 1_555
H24E C18E 1_555 1_555
H24A C18A 1_555 1_555
H24D C18D 1_555 1_555
H25E C18E 1_555 1_555
H25A C18A 1_555 1_555
H25D C18D 1_555 1_555
C19E C2E 1_555 1_555
C19A C2A 1_555 1_555
C19D C2D 1_555 1_555
H26E C19E 1_555 1_555
H26A C19A 1_555 1_555
H26D C19D 1_555 1_555
H27E C19E 1_555 1_555
H27A C19A 1_555 1_555
H27D C19D 1_555 1_555
H28E C19E 1_555 1_555
H28A C19A 1_555 1_555
H28D C19D 1_555 1_555
P2 O5 1_555 1_555
C3 C15 1_555 1_555
C13 C14 1_555 1_555
P1E O2E 1_555 1_555
P1A O2A 1_555 1_555
P1A O3A 1_555 1_555
P1D O2D 1_555 1_555
P1D O3D 1_555 1_555
P2E O5E 1_555 1_555
P2E O6E 1_555 1_555
P2A O5A 1_555 1_555
P2A O6A 1_555 1_555
P2D O5D 1_555 1_555
P2D O6D 1_555 1_555
C3A C15A 1_555 1_555
C4A C8A 1_555 1_555
C5D C8E 1_555 1_555
C5D C8D 1_555 1_555
C9E C16E 1_555 1_555
C13A C14A 1_555 1_555
C16D C17A 1_555 1_555

#END
