
#######################################################################
#
#                 Cambridge Crystallographic Data Centre
#                                CCDC 
#
#######################################################################
#
# If this CIF has been generated from an entry in the Cambridge 
# Structural Database, then it will include bibliographic, chemical, 
# crystal, experimental, refinement or atomic coordinate data resulting 
# from the CCDC's data processing and validation procedures.
#
#######################################################################

data_FENVAW
_symmetry_cell_setting           monoclinic
_symmetry_space_group_name_H-M   'C 2/c'
_symmetry_Int_Tables_number      15
_space_group_name_Hall           '-C 2yn'
loop_
_symmetry_equiv_pos_site_id
_symmetry_equiv_pos_as_xyz
1 x,y,z
2 1/2+x,1/2+y,z
3 -x,y,1/2-z
4 1/2-x,1/2+y,1/2-z
5 -x,-y,-z
6 1/2-x,1/2-y,-z
7 x,-y,1/2+z
8 1/2+x,1/2-y,1/2+z
_cell_length_a                   11.3447(10)
_cell_length_b                   13.4618(11)
_cell_length_c                   29.910(3)
_cell_angle_alpha                90
_cell_angle_beta                 98.650(2)
_cell_angle_gamma                90
_cell_volume                     4515.9
loop_
_atom_site_label
_atom_site_type_symbol
_atom_site_fract_x
_atom_site_fract_y
_atom_site_fract_z
Cu1 Cu 0.0000 0.35206(3) 0.2500
Cu2 Cu 0.16085(3) 0.40996(2) 0.118533(12)
S1 S -0.01886(7) -0.10251(5) 0.12587(3)
N1 N 0.2139(2) 0.52019(17) 0.16044(9)
N2 N 0.1294(3) 0.64202(18) 0.10944(10)
N3 N 0.1572(2) 0.50165(18) 0.06608(9)
N4 N 0.0774(2) 0.45240(17) 0.29276(8)
N5 N 0.0000 0.5910(3) 0.2500
O1 O 0.1190(2) 0.34033(14) 0.17079(7)
O2 O 0.00318(19) 0.24699(14) 0.20558(7)
O3 O 0.0995(2) 0.30461(15) 0.07958(7)
O4 O -0.1421(2) -0.13190(16) 0.11576(9)
O5 O 0.0535(2) -0.15779(14) 0.09863(8)
O6 O 0.0260(3) -0.10788(16) 0.17344(8)
C1 C 0.0554(3) 0.2637(2) 0.17188(10)
C2 C 0.0398(3) 0.19217(19) 0.13439(10)
C3 C 0.0620(3) 0.2180(2) 0.09111(10)
C4 C 0.0437(3) 0.1432(2) 0.05734(10)
H1 H 0.0525 0.1589 0.0277
C5 C 0.0137(3) 0.0488(2) 0.06750(11)
H2 H 0.0041 0.0008 0.0449
C6 C -0.0026(3) 0.0231(2) 0.11085(10)
C7 C 0.0067(3) 0.0955(2) 0.14363(10)
H3 H -0.0093 0.0797 0.1724
C8 C 0.2730(3) 0.4974(2) 0.20185(11)
H4 H 0.2982 0.4323 0.2075
C9 C 0.2971(3) 0.5651(3) 0.23552(12)
H5 H 0.3400 0.5471 0.2633
C10 C 0.2567(3) 0.6615(3) 0.22775(12)
H6 H 0.2685 0.7084 0.2508
C11 C 0.1995(3) 0.6866(2) 0.18612(11)
H7 H 0.1720 0.7511 0.1803
C12 C 0.1826(3) 0.6146(2) 0.15219(10)
C13 C 0.1395(3) 0.5992(2) 0.06846(11)
C14 C 0.1298(3) 0.6605(2) 0.03053(12)
H8 H 0.1167 0.7284 0.0330
C15 C 0.1396(4) 0.6193(3) -0.00977(13)
H9 H 0.1321 0.6587 -0.0356
C16 C 0.1610(4) 0.5187(3) -0.01274(12)
H10 H 0.1702 0.4895 -0.0402
C17 C 0.1682(4) 0.4634(3) 0.02588(12)
H11 H 0.1815 0.3954 0.0240
C18 C 0.1459(3) 0.4196(2) 0.33111(11)
H12 H 0.1591 0.3516 0.3343
C19 C 0.1956(3) 0.4793(3) 0.36465(12)
H13 H 0.2434 0.4531 0.3899
C20 C 0.1746(3) 0.5797(3) 0.36108(12)
H14 H 0.2055 0.6222 0.3844
C21 C 0.1083(3) 0.6160(2) 0.32310(12)
H15 H 0.0942 0.6838 0.3200
C22 C 0.0609(3) 0.5503(2) 0.28834(10)
H16 H 0.124(3) 0.7017(8) 0.1109(12)
H17 H 0.0000 0.6503(8) 0.2500
Cu2B Cu -0.16085(3) 0.40996(2) 0.381467(12)
Cu2A Cu -0.33915(3) -0.09004(2) 0.118533(12)
Cu2C Cu 0.33915(3) -0.09004(2) 0.381467(12)
S1B S 0.01886(7) -0.10251(5) 0.37413(3)
N1B N -0.2139(2) 0.52019(17) 0.33956(9)
N2B N -0.1294(3) 0.64202(18) 0.39056(10)
N3B N -0.1572(2) 0.50165(18) 0.43392(9)
N4B N -0.0774(2) 0.45240(17) 0.20724(8)
O1B O -0.1190(2) 0.34033(14) 0.32921(7)
O2B O -0.00318(19) 0.24699(14) 0.29442(7)
O3B O -0.0995(2) 0.30461(15) 0.42042(7)
O4B O 0.1421(2) -0.13190(16) 0.38424(9)
O4A O 0.3579(2) 0.36810(16) 0.11576(9)
O4C O -0.3579(2) 0.36810(16) 0.38424(9)
O5B O -0.0535(2) -0.15779(14) 0.40137(8)
O6B O -0.0260(3) -0.10788(16) 0.32656(8)
C1B C -0.0554(3) 0.2637(2) 0.32812(10)
C2B C -0.0398(3) 0.19217(19) 0.36561(10)
C3B C -0.0620(3) 0.2180(2) 0.40889(10)
C4B C -0.0437(3) 0.1432(2) 0.44266(10)
H1B H -0.0525 0.1589 0.4723
C5B C -0.0137(3) 0.0488(2) 0.43250(11)
H2B H -0.0041 0.0008 0.4551
C6B C 0.0026(3) 0.0231(2) 0.38915(10)
C7B C -0.0067(3) 0.0955(2) 0.35637(10)
H3B H 0.0093 0.0797 0.3276
C8B C -0.2730(3) 0.4974(2) 0.29815(11)
H4B H -0.2982 0.4323 0.2925
C9B C -0.2971(3) 0.5651(3) 0.26448(12)
H5B H -0.3400 0.5471 0.2367
C10B C -0.2567(3) 0.6615(3) 0.27225(12)
H6B H -0.2685 0.7084 0.2492
C11B C -0.1995(3) 0.6866(2) 0.31388(11)
H7B H -0.1720 0.7511 0.3197
C12B C -0.1826(3) 0.6146(2) 0.34781(10)
C13B C -0.1395(3) 0.5992(2) 0.43154(11)
C14B C -0.1298(3) 0.6605(2) 0.46947(12)
H8B H -0.1167 0.7284 0.4670
C15B C -0.1396(4) 0.6193(3) 0.50977(13)
H9B H -0.1321 0.6587 0.5356
C16B C -0.1610(4) 0.5187(3) 0.51274(12)
H10B H -0.1702 0.4895 0.5402
C17B C -0.1682(4) 0.4634(3) 0.47412(12)
H11B H -0.1815 0.3954 0.4760
C18B C -0.1459(3) 0.4196(2) 0.16889(11)
H12B H -0.1591 0.3516 0.1657
C19B C -0.1956(3) 0.4793(3) 0.13535(12)
H13B H -0.2434 0.4531 0.1101
C20B C -0.1746(3) 0.5797(3) 0.13892(12)
H14B H -0.2055 0.6222 0.1156
C21B C -0.1083(3) 0.6160(2) 0.17690(12)
H15B H -0.0942 0.6838 0.1800
C22B C -0.0609(3) 0.5503(2) 0.21166(10)
H16B H -0.124(3) 0.7017(8) 0.3891(12)
O7 O 0.0000 -0.2040(3) 0.2500
H18 H -0.001(4) -0.176(3) 0.2738(8)
H18B H 0.001(4) -0.176(3) 0.2262(8)
O8 O -0.1678(4) -0.2745(3) 0.04190(13)
loop_
_geom_bond_atom_site_label_1
_geom_bond_atom_site_label_2
_geom_bond_site_symmetry_1
_geom_bond_site_symmetry_2
Cu1 N4 1_555 1_555
Cu2 N1 1_555 1_555
S1 O4 1_555 1_555
N1 C8 1_555 1_555
N2 C12 1_555 1_555
N3 Cu2 1_555 1_555
N4 C18 1_555 1_555
N5 C22 1_555 1_555
O1 Cu2 1_555 1_555
O2 Cu1 1_555 1_555
O3 Cu2 1_555 1_555
O4 Cu2A 1_555 1_555
O5 S1 1_555 1_555
O6 S1 1_555 1_555
O7 H18 1_555 1_555
C1 O1 1_555 1_555
C2 C1 1_555 1_555
C3 O3 1_555 1_555
C4 C3 1_555 1_555
H1 C4 1_555 1_555
C5 C4 1_555 1_555
H2 C5 1_555 1_555
C6 S1 1_555 1_555
C7 C2 1_555 1_555
H3 C7 1_555 1_555
C8 H4 1_555 1_555
C9 C8 1_555 1_555
H5 C9 1_555 1_555
C10 C9 1_555 1_555
H6 C10 1_555 1_555
C11 C10 1_555 1_555
H7 C11 1_555 1_555
C12 N1 1_555 1_555
C13 N2 1_555 1_555
C14 C13 1_555 1_555
H8 C14 1_555 1_555
C15 C14 1_555 1_555
H9 C15 1_555 1_555
C16 C15 1_555 1_555
H10 C16 1_555 1_555
C17 N3 1_555 1_555
H11 C17 1_555 1_555
C18 H12 1_555 1_555
C19 C18 1_555 1_555
H13 C19 1_555 1_555
C20 C19 1_555 1_555
H14 C20 1_555 1_555
C21 C20 1_555 1_555
H15 C21 1_555 1_555
C22 N4 1_555 1_555
H16 N2 1_555 1_555
H17 N5 1_555 1_555
Cu2B N1B 1_555 1_555
Cu2C O4B 1_555 1_555
S1B O4B 1_555 1_555
N1B C8B 1_555 1_555
N2B C12B 1_555 1_555
N3B Cu2B 1_555 1_555
N4B Cu1 1_555 1_555
O1B Cu2B 1_555 1_555
O2B Cu1 1_555 1_555
O3B Cu2B 1_555 1_555
O4A Cu2 1_555 1_555
O4C Cu2B 1_555 1_555
O5B S1B 1_555 1_555
O6B S1B 1_555 1_555
C1B O1B 1_555 1_555
C2B C1B 1_555 1_555
C3B O3B 1_555 1_555
C4B C3B 1_555 1_555
H1B C4B 1_555 1_555
C5B C4B 1_555 1_555
H2B C5B 1_555 1_555
C6B S1B 1_555 1_555
C7B C2B 1_555 1_555
H3B C7B 1_555 1_555
C8B H4B 1_555 1_555
C9B C8B 1_555 1_555
H5B C9B 1_555 1_555
C10B C9B 1_555 1_555
H6B C10B 1_555 1_555
C11B C10B 1_555 1_555
H7B C11B 1_555 1_555
C12B N1B 1_555 1_555
C13B N2B 1_555 1_555
C14B C13B 1_555 1_555
H8B C14B 1_555 1_555
C15B C14B 1_555 1_555
H9B C15B 1_555 1_555
C16B C15B 1_555 1_555
H10B C16B 1_555 1_555
C17B N3B 1_555 1_555
H11B C17B 1_555 1_555
C18B N4B 1_555 1_555
H12B C18B 1_555 1_555
C19B C18B 1_555 1_555
H13B C19B 1_555 1_555
C20B C19B 1_555 1_555
H14B C20B 1_555 1_555
C21B C20B 1_555 1_555
H15B C21B 1_555 1_555
C22B N5 1_555 1_555
H16B N2B 1_555 1_555
H18B O7 1_555 1_555
N3 C13 1_555 1_555
O2 C1 1_555 1_555
C2 C3 1_555 1_555
C5 C6 1_555 1_555
C6 C7 1_555 1_555
C11 C12 1_555 1_555
C16 C17 1_555 1_555
C21 C22 1_555 1_555
N3B C13B 1_555 1_555
N4B C22B 1_555 1_555
O2B C1B 1_555 1_555
C2B C3B 1_555 1_555
C5B C6B 1_555 1_555
C6B C7B 1_555 1_555
C11B C12B 1_555 1_555
C16B C17B 1_555 1_555
C21B C22B 1_555 1_555

#END
