
#######################################################################
#
#                 Cambridge Crystallographic Data Centre
#                                CCDC 
#
#######################################################################
#
# If this CIF has been generated from an entry in the Cambridge 
# Structural Database, then it will include bibliographic, chemical, 
# crystal, experimental, refinement or atomic coordinate data resulting 
# from the CCDC's data processing and validation procedures.
#
#######################################################################

data_FENWIF
_symmetry_cell_setting           orthorhombic
_symmetry_space_group_name_H-M   'P 21 21 21'
_symmetry_Int_Tables_number      19
_space_group_name_Hall           'P 2ac 2ab'
loop_
_symmetry_equiv_pos_site_id
_symmetry_equiv_pos_as_xyz
1 x,y,z
2 1/2-x,-y,1/2+z
3 -x,1/2+y,1/2-z
4 1/2+x,1/2-y,-z
_cell_length_a                   6.9025(14)
_cell_length_b                   16.504(3)
_cell_length_c                   16.770(3)
_cell_angle_alpha                90
_cell_angle_beta                 90
_cell_angle_gamma                90
_cell_volume                     1910.42
loop_
_atom_site_label
_atom_site_type_symbol
_atom_site_fract_x
_atom_site_fract_y
_atom_site_fract_z
Cd1 Cd 0.92450(4) 0.921732(17) 0.328161(17)
N1 N 0.9259(6) 0.78431(18) 0.36322(17)
N2 N 0.9453(5) 0.91110(19) 0.46843(17)
O1 O 0.8541(4) 0.88293(19) 0.20355(17)
O2 O 1.1177(4) 0.93063(19) 0.14004(16)
O3 O 0.6800(4) 0.84642(17) 0.06338(18)
O4 O 0.1297(3) 0.55882(15) 0.16332(19)
O5 O 0.3994(4) 0.48720(15) 0.16132(17)
O6 O 1.2399(4) 0.9364(2) 0.28855(18)
C1 C 0.9235(7) 0.7225(2) 0.3120(2)
C2 C 0.9287(7) 0.6406(2) 0.3355(3)
C3 C 0.9332(7) 0.6233(2) 0.4140(3)
C4 C 0.9339(7) 0.6860(2) 0.4710(2)
C5 C 0.9347(7) 0.6723(3) 0.5555(3)
C6 C 0.9348(7) 0.7345(3) 0.6075(2)
C7 C 0.9364(7) 0.8176(3) 0.5805(2)
C8 C 0.9370(8) 0.8855(3) 0.6321(2)
C9 C 0.9462(8) 0.9612(3) 0.6025(3)
C10 C 0.9511(7) 0.9725(3) 0.5198(3)
C11 C 0.9392(6) 0.8338(2) 0.4978(2)
C12 C 0.9339(6) 0.7671(2) 0.4418(2)
C13 C 0.9576(6) 0.8955(2) 0.1433(2)
C14 C 0.8833(6) 0.8639(3) 0.0639(2)
C15 C 0.6112(6) 0.7743(2) 0.0932(2)
C16 C 0.4148(8) 0.7758(2) 0.1109(2)
C17 C 0.3232(6) 0.7050(3) 0.1342(3)
C18 C 0.4230(7) 0.6316(2) 0.1406(2)
C19 C 0.6218(5) 0.6323(2) 0.1254(2)
C20 C 0.7155(6) 0.7027(2) 0.1020(2)
C21 C 0.3137(6) 0.5545(2) 0.1569(2)
H1 H 1.342(4) 0.960(3) 0.304(2)
H2 H 1.232(7) 0.937(3) 0.2381(7)
H3 H 0.9181 0.7341 0.2578
H4 H 0.9290 0.5994 0.2977
H5 H 0.9358 0.5695 0.4306
H6 H 0.9352 0.6195 0.5747
H7 H 0.9338 0.7237 0.6619
H8 H 0.9311 0.8777 0.6870
H9 H 0.9493 1.0056 0.6367
H10 H 0.9586 1.0250 0.5000
H11 H 0.9105 0.9038 0.0229
H12 H 0.9538 0.8149 0.0503
H13 H 0.3454 0.8239 0.1072
H14 H 0.1915 0.7064 0.1458
H15 H 0.6927 0.5847 0.1311
H16 H 0.8481 0.7020 0.0922
Cd1B Cd 0.07550(4) 0.421732(17) 0.171839(17)
O4B O 0.8703(3) 1.05882(15) 0.33668(19)
O5B O 0.6006(4) 0.98720(15) 0.33868(17)
loop_
_geom_bond_atom_site_label_1
_geom_bond_atom_site_label_2
_geom_bond_site_symmetry_1
_geom_bond_site_symmetry_2
Cd1 N1 1_555 1_555
N1 C1 1_555 1_555
N2 Cd1 1_555 1_555
O1 Cd1 1_555 1_555
O2 C13 1_555 1_555
O3 C14 1_555 1_555
O4 C21 1_555 1_555
O5 C21 1_555 1_555
O6 Cd1 1_555 1_555
C1 C2 1_555 1_555
C2 C3 1_555 1_555
C3 C4 1_555 1_555
C4 C5 1_555 1_555
C5 C6 1_555 1_555
C6 C7 1_555 1_555
C7 C8 1_555 1_555
C8 C9 1_555 1_555
C9 C10 1_555 1_555
C10 N2 1_555 1_555
C11 N2 1_555 1_555
C12 N1 1_555 1_555
C13 O1 1_555 1_555
C14 C13 1_555 1_555
C15 O3 1_555 1_555
C16 C15 1_555 1_555
C17 C16 1_555 1_555
C18 C17 1_555 1_555
C19 C18 1_555 1_555
C20 C15 1_555 1_555
C21 C18 1_555 1_555
H1 O6 1_555 1_555
H2 O6 1_555 1_555
H3 C1 1_555 1_555
H4 C2 1_555 1_555
H5 C3 1_555 1_555
H6 C5 1_555 1_555
H7 C6 1_555 1_555
H8 C8 1_555 1_555
H9 C9 1_555 1_555
H10 C10 1_555 1_555
H11 C14 1_555 1_555
H12 C14 1_555 1_555
H13 C16 1_555 1_555
H14 C17 1_555 1_555
H15 C19 1_555 1_555
H16 C20 1_555 1_555
Cd1B O4 1_555 1_555
O4B Cd1 1_555 1_555
O5B Cd1 1_555 1_555
O5 Cd1B 1_555 1_555
C4 C12 1_555 1_555
C7 C11 1_555 1_555
C11 C12 1_555 1_555
C19 C20 1_555 1_555

#END
