
#######################################################################
#
#                 Cambridge Crystallographic Data Centre
#                                CCDC 
#
#######################################################################
#
# If this CIF has been generated from an entry in the Cambridge 
# Structural Database, then it will include bibliographic, chemical, 
# crystal, experimental, refinement or atomic coordinate data resulting 
# from the CCDC's data processing and validation procedures.
#
#######################################################################

data_FENXOM
_symmetry_cell_setting           monoclinic
_symmetry_space_group_name_H-M   'C 2'
_symmetry_Int_Tables_number      5
_space_group_name_Hall           'C 2y'
loop_
_symmetry_equiv_pos_site_id
_symmetry_equiv_pos_as_xyz
1 x,y,z
2 -x,y,-z
3 1/2+x,1/2+y,z
4 1/2-x,1/2+y,-z
_cell_length_a                   18.319(17)
_cell_length_b                   14.366(15)
_cell_length_c                   26.75(3)
_cell_angle_alpha                90
_cell_angle_beta                 110.29(7)
_cell_angle_gamma                90
_cell_volume                     6602.99
loop_
_atom_site_label
_atom_site_type_symbol
_atom_site_fract_x
_atom_site_fract_y
_atom_site_fract_z
Cu1 Cu 0.80059(6) 1.06108(7) 0.06778(4)
S1 S 0.79059(14) 1.30618(16) 0.11909(9)
O1 O 0.8065(5) 1.2182(5) 0.0960(3)
O2 O 0.7705(6) 1.3782(6) 0.0790(3)
O3 O 0.7270(5) 1.2936(6) 0.1400(4)
O4 O 0.8622(5) 1.3327(7) 0.1636(3)
N1 N 0.7111(4) 0.9255(5) 0.1718(3)
N2 N 0.7637(6) 1.0241(9) 0.1219(3)
N3 N 0.5211(4) 0.5585(6) 0.1839(3)
N4 N 0.4110(4) 0.5424(6) 0.1183(3)
N5 N 0.8906(4) 1.1845(6) -0.0373(3)
N6 N 0.8389(5) 1.0981(6) 0.0101(3)
N7 N 1.0836(4) 1.5523(6) -0.0524(2)
N8 N 1.1923(4) 1.5748(5) 0.0162(3)
C1 C 0.6803(4) 0.8428(5) 0.1874(3)
C2 C 0.7049(5) 0.7523(6) 0.1800(3)
H1 H 0.7443 0.7447 0.1648
C3 C 0.6737(6) 0.6774(7) 0.1942(4)
H2 H 0.6902 0.6172 0.1878
C4 C 0.6189(5) 0.6852(6) 0.2177(3)
C5 C 0.5949(6) 0.7721(9) 0.2281(4)
H3 H 0.5559 0.7783 0.2438
C6 C 0.6298(6) 0.8512(7) 0.2148(4)
H4 H 0.6182 0.9113 0.2249
C7 C 0.7505(5) 0.9288(7) 0.1366(3)
H5 H 0.7674 0.8749 0.1232
C8 C 0.7292(8) 1.0692(8) 0.1538(4)
H6 H 0.7296 1.1351 0.1562
C9 C 0.6953(7) 1.0173(7) 0.1809(4)
H7 H 0.6663 1.0387 0.2020
C10 C 0.5809(6) 0.5991(7) 0.2317(4)
H8 H 0.6214 0.5518 0.2482
H9 H 0.5564 0.6163 0.2581
C11 C 0.4477(5) 0.5928(7) 0.1590(3)
H10 H 0.4269 0.6462 0.1701
C12 C 0.4609(6) 0.4721(8) 0.1157(4)
H11 H 0.4488 0.4241 0.0896
C13 C 0.5299(6) 0.4824(8) 0.1562(4)
H12 H 0.5750 0.4445 0.1636
C14 C 0.9236(5) 1.2631(7) -0.0549(3)
C15 C 0.9782(5) 1.2551(7) -0.0795(3)
H13 H 0.9937 1.1949 -0.0866
C16 C 1.0111(5) 1.3326(7) -0.0941(3)
H14 H 1.0486 1.3246 -0.1109
C17 C 0.9900(5) 1.4215(8) -0.0845(3)
C18 C 0.9347(5) 1.4326(7) -0.0611(3)
H15 H 0.9198 1.4934 -0.0545
C19 C 0.8993(5) 1.3532(6) -0.0465(3)
H16 H 0.8598 1.3611 -0.0314
C20 C 0.8580(5) 1.1829(7) 0.0002(4)
H17 H 0.8495 1.2370 0.0178
C21 C 0.8669(8) 1.0381(8) -0.0225(5)
H18 H 0.8648 0.9720 -0.0233
C22 C 0.8981(7) 1.0954(8) -0.0529(4)
H19 H 0.9198 1.0762 -0.0787
C23 C 1.0276(5) 1.5073(7) -0.0988(3)
H20 H 1.0543 1.4889 -0.1238
H21 H 0.9864 1.5526 -0.1175
C24 C 1.1593(5) 1.5245(8) -0.0236(4)
H22 H 1.1837 1.4724 -0.0331
C25 C 1.1386(5) 1.6462(8) 0.0149(4)
H23 H 1.1467 1.6960 0.0396
C26 C 1.0739(6) 1.6310(8) -0.0275(4)
H24 H 1.0288 1.6693 -0.0383
Cu1B Cu 1.30059(6) 1.56108(7) 0.06778(4)
Cu1B_2 Cu 0.30059(6) 0.56108(7) 0.06778(4)
S1B S 1.29059(14) 1.80618(16) 0.11909(9)
O1B O 1.3065(5) 1.7182(5) 0.0960(3)
O2B O 1.2705(6) 1.8782(6) 0.0790(3)
O3B O 1.2270(5) 1.7936(6) 0.1400(4)
O4B O 1.3622(5) 1.8327(7) 0.1636(3)
N1B N 1.2111(4) 1.4255(5) 0.1718(3)
N2B N 1.2637(6) 1.5241(9) 0.1219(3)
N3B N 1.0211(4) 1.0585(6) 0.1839(3)
N4B N 0.9110(4) 1.0424(6) 0.1183(3)
N4_2 N 1.4110(4) 1.5424(6) 0.1183(3)
N5B N 0.3906(4) 0.6845(6) -0.0373(3)
N6B N 0.3389(5) 0.5981(6) 0.0101(3)
N6B_2 N 1.3389(5) 1.5981(6) 0.0101(3)
N7B N 0.5836(4) 1.0523(6) -0.0524(2)
N8B N 0.6923(4) 1.0748(5) 0.0162(3)
C1B C 1.1803(4) 1.3428(5) 0.1874(3)
C2B C 1.2049(5) 1.2523(6) 0.1800(3)
H1B H 1.2443 1.2447 0.1648
C3B C 1.1737(6) 1.1774(7) 0.1942(4)
H2B H 1.1902 1.1172 0.1878
C4B C 1.1189(5) 1.1852(6) 0.2177(3)
C5B C 1.0949(6) 1.2721(9) 0.2281(4)
H3B H 1.0559 1.2783 0.2438
C6B C 1.1298(6) 1.3512(7) 0.2148(4)
H4B H 1.1182 1.4113 0.2249
C7B C 1.2505(5) 1.4288(7) 0.1366(3)
H5B H 1.2674 1.3749 0.1232
C8B C 1.2292(8) 1.5692(8) 0.1538(4)
H6B H 1.2296 1.6351 0.1562
C9B C 1.1953(7) 1.5173(7) 0.1809(4)
H7B H 1.1663 1.5387 0.2020
C10B C 1.0809(6) 1.0991(7) 0.2317(4)
H8B H 1.1214 1.0518 0.2482
H9B H 1.0564 1.1163 0.2581
C11B C 0.9477(5) 1.0928(7) 0.1590(3)
H10B H 0.9269 1.1462 0.1701
C12B C 0.9609(6) 0.9721(8) 0.1157(4)
H11B H 0.9488 0.9241 0.0896
C13B C 1.0299(6) 0.9824(8) 0.1562(4)
H12B H 1.0750 0.9445 0.1636
C14B C 0.4236(5) 0.7631(7) -0.0549(3)
C15B C 0.4782(5) 0.7551(7) -0.0795(3)
H13B H 0.4937 0.6949 -0.0866
C16B C 0.5111(5) 0.8326(7) -0.0941(3)
H14B H 0.5486 0.8246 -0.1109
C17B C 0.4900(5) 0.9215(8) -0.0845(3)
C18B C 0.4347(5) 0.9326(7) -0.0611(3)
H15B H 0.4198 0.9934 -0.0545
C19B C 0.3993(5) 0.8532(6) -0.0465(3)
H16B H 0.3598 0.8611 -0.0314
C20B C 0.3580(5) 0.6829(7) 0.0002(4)
H17B H 0.3495 0.7370 0.0178
C21B C 0.3669(8) 0.5381(8) -0.0225(5)
H18B H 0.3648 0.4720 -0.0233
C22B C 0.3981(7) 0.5954(8) -0.0529(4)
H19B H 0.4198 0.5762 -0.0787
C23B C 0.5276(5) 1.0073(7) -0.0988(3)
H20B H 0.5543 0.9889 -0.1238
H21B H 0.4864 1.0526 -0.1175
C24B C 0.6593(5) 1.0245(8) -0.0236(4)
H22B H 0.6837 0.9724 -0.0331
C25B C 0.6386(5) 1.1462(8) 0.0149(4)
H23B H 0.6467 1.1960 0.0396
C26B C 0.5739(6) 1.1310(8) -0.0275(4)
H24B H 0.5288 1.1693 -0.0383
Cu2 Cu 0.70166(7) 0.51100(8) 0.43107(4)
S2 S 0.72085(16) 0.27069(19) 0.39700(12)
O5 O 0.6942(5) 0.3635(6) 0.3991(3)
O6 O 0.7849(10) 0.2722(9) 0.3793(7)
O7 O 0.6580(5) 0.2137(6) 0.3590(4)
O8 O 0.7368(9) 0.2328(9) 0.4511(4)
N9 N 0.6120(5) 0.3930(6) 0.5406(3)
N10 N 0.6617(5) 0.4795(6) 0.4918(3)
N11 N 0.4138(5) 0.0329(7) 0.5540(3)
N12 N 0.3106(5) 0.0032(7) 0.4838(3)
N13 N 0.7890(5) 0.6440(7) 0.3249(3)
N14 N 0.7407(4) 0.5574(5) 0.3727(2)
N15 N 0.9820(5) 1.0083(8) 0.3144(3)
N16 N 1.0905(5) 1.0284(6) 0.3828(3)
C27 C 0.5789(5) 0.3134(8) 0.5564(3)
C28 C 0.5986(6) 0.2283(9) 0.5465(4)
H25 H 0.6348 0.2204 0.5286
C29 C 0.5669(6) 0.1514(7) 0.5620(4)
H26 H 0.5847 0.0909 0.5576
C30 C 0.5084(5) 0.1623(7) 0.5844(3)
C31 C 0.4884(6) 0.2528(8) 0.5952(4)
H27 H 0.4519 0.2611 0.6127
C32 C 0.5217(6) 0.3299(7) 0.5804(4)
H28 H 0.5069 0.3913 0.5861
C33 C 0.6423(6) 0.3936(7) 0.4997(3)
H29 H 0.6481 0.3404 0.4803
C34 C 0.6461(8) 0.5291(10) 0.5282(4)
H30 H 0.6580 0.5936 0.5330
C35 C 0.6147(8) 0.4859(9) 0.5560(5)
H31 H 0.5965 0.5113 0.5823
C36 C 0.4700(6) 0.0818(8) 0.6018(4)
H32 H 0.5103 0.0373 0.6227
H33 H 0.4418 0.1049 0.6249
C37 C 0.3436(6) 0.0617(7) 0.5266(3)
H34 H 0.3190 0.1148 0.5348
C38 C 0.3656(7) -0.0636(8) 0.4862(4)
H35 H 0.3595 -0.1134 0.4617
C39 C 0.4305(6) -0.0462(8) 0.5297(4)
H36 H 0.4775 -0.0811 0.5411
C40 C 0.8195(7) 0.7272(10) 0.3068(4)
C41 C 0.8769(6) 0.7180(9) 0.2853(4)
H37 H 0.8961 0.6581 0.2813
C42 C 0.9060(6) 0.7948(9) 0.2696(4)
H38 H 0.9418 0.7874 0.2513
C43 C 0.8855(6) 0.8823(9) 0.2792(4)
C44 C 0.8287(6) 0.8924(9) 0.3038(4)
H39 H 0.8127 0.9523 0.3110
C45 C 0.7959(6) 0.8088(9) 0.3175(4)
H40 H 0.7577 0.8127 0.3340
C46 C 0.7521(6) 0.6409(8) 0.3601(3)
H41 H 0.7361 0.6946 0.3742
C47 C 0.7760(6) 0.4992(8) 0.3460(4)
H42 H 0.7798 0.4333 0.3484
C48 C 0.8046(6) 0.5573(10) 0.3148(4)
H43 H 0.8302 0.5383 0.2911
C49 C 0.9249(7) 0.9673(10) 0.2672(4)
H44 H 0.9509 0.9501 0.2418
H45 H 0.8847 1.0146 0.2498
C50 C 1.0561(7) 0.9802(8) 0.3383(4)
H46 H 1.0805 0.9324 0.3253
C51 C 1.0338(7) 1.0869(10) 0.3869(5)
H47 H 1.0409 1.1309 0.4147
C52 C 0.9680(7) 1.0735(10) 0.3469(5)
H48 H 0.9198 1.1038 0.3418
Cu2B Cu 1.20166(7) 1.01100(8) 0.43107(4)
Cu2B_2 Cu 0.20166(7) 0.01100(8) 0.43107(4)
S2B S 1.22085(16) 0.77069(19) 0.39700(12)
O5B O 1.1942(5) 0.8635(6) 0.3991(3)
O6B O 1.2849(10) 0.7722(9) 0.3793(7)
O7B O 1.1580(5) 0.7137(6) 0.3590(4)
O8B O 1.2368(9) 0.7328(9) 0.4511(4)
N9B N 1.1120(5) 0.8930(6) 0.5406(3)
N10B N 1.1617(5) 0.9795(6) 0.4918(3)
N11B N 0.9138(5) 0.5329(7) 0.5540(3)
N12B N 0.8106(5) 0.5032(7) 0.4838(3)
N12_2 N 1.3106(5) 1.0032(7) 0.4838(3)
N13B N 0.2890(5) 0.1440(7) 0.3249(3)
N14B N 0.2407(4) 0.0574(5) 0.3727(2)
N14B_2 N 1.2407(4) 1.0574(5) 0.3727(2)
N15B N 0.4820(5) 0.5083(8) 0.3144(3)
N16B N 0.5905(5) 0.5284(6) 0.3828(3)
C27B C 1.0789(5) 0.8134(8) 0.5564(3)
C28B C 1.0986(6) 0.7283(9) 0.5465(4)
H25B H 1.1348 0.7204 0.5286
C29B C 1.0669(6) 0.6514(7) 0.5620(4)
H26B H 1.0847 0.5909 0.5576
C30B C 1.0084(5) 0.6623(7) 0.5844(3)
C31B C 0.9884(6) 0.7528(8) 0.5952(4)
H27B H 0.9519 0.7611 0.6127
C32B C 1.0217(6) 0.8299(7) 0.5804(4)
H28B H 1.0069 0.8913 0.5861
C33B C 1.1423(6) 0.8936(7) 0.4997(3)
H29B H 1.1481 0.8404 0.4803
C34B C 1.1461(8) 1.0291(10) 0.5282(4)
H30B H 1.1580 1.0936 0.5330
C35B C 1.1147(8) 0.9859(9) 0.5560(5)
H31B H 1.0965 1.0113 0.5823
C36B C 0.9700(6) 0.5818(8) 0.6018(4)
H32B H 1.0103 0.5373 0.6227
H33B H 0.9418 0.6049 0.6249
C37B C 0.8436(6) 0.5617(7) 0.5266(3)
H34B H 0.8190 0.6148 0.5348
C38B C 0.8656(7) 0.4364(8) 0.4862(4)
H35B H 0.8595 0.3866 0.4617
C39B C 0.9305(6) 0.4538(8) 0.5297(4)
H36B H 0.9775 0.4189 0.5411
C40B C 0.3195(7) 0.2272(10) 0.3068(4)
C41B C 0.3769(6) 0.2180(9) 0.2853(4)
H37B H 0.3961 0.1581 0.2813
C42B C 0.4060(6) 0.2948(9) 0.2696(4)
H38B H 0.4418 0.2874 0.2513
C43B C 0.3855(6) 0.3823(9) 0.2792(4)
C44B C 0.3287(6) 0.3924(9) 0.3038(4)
H39B H 0.3127 0.4523 0.3110
C45B C 0.2959(6) 0.3088(9) 0.3175(4)
H40B H 0.2577 0.3127 0.3340
C46B C 0.2521(6) 0.1409(8) 0.3601(3)
H41B H 0.2361 0.1946 0.3742
C47B C 0.2760(6) -0.0008(8) 0.3460(4)
H42B H 0.2798 -0.0667 0.3484
C48B C 0.3046(6) 0.0573(10) 0.3148(4)
H43B H 0.3302 0.0383 0.2911
C49B C 0.4249(7) 0.4673(10) 0.2672(4)
H44B H 0.4509 0.4501 0.2418
H45B H 0.3847 0.5146 0.2498
C50B C 0.5561(7) 0.4802(8) 0.3383(4)
H46B H 0.5805 0.4324 0.3253
C51B C 0.5338(7) 0.5869(10) 0.3869(5)
H47B H 0.5409 0.6309 0.4147
C52B C 0.4680(7) 0.5735(10) 0.3469(5)
H48B H 0.4198 0.6038 0.3418
O9 O 0.8454(4) 0.7393(6) 0.1142(3)
O10 O 0.7953(5) 0.8748(6) 0.0331(3)
O11 O 0.7956(6) 0.5591(7) 0.1358(4)
O12 O 0.9055(7) 0.4684(9) 0.2393(5)
O13 O 0.4874(7) 0.8431(12) 0.3261(5)
O14 O 0.4030(8) 0.7198(8) 0.2513(4)
O15 O 0.2216(8) 0.8820(13) 0.2254(6)
O16 O 0.0694(5) 0.7806(7) 0.0977(3)
O17 O 0.0000 0.8597(12) 0.0000
O18 O 0.0088(6) 0.7276(6) 0.1738(3)
O19 O 0.1000(5) 0.8203(7) 0.2632(4)
O20 O 0.2937(7) 0.6669(11) 0.2967(6)
O21 O 0.4444(7) 0.7857(13) 0.4162(7)
O22 O 0.1736(6) 0.5482(8) 0.3171(5)
O23 O 0.0328(7) 0.5615(9) 0.2312(4)
O24 O 0.1531(10) 0.3743(16) 0.3696(6)
O25 O 0.1902(8) 0.2151(19) 0.4518(5)
O26 O 0.5000 0.708(3) 0.5000
loop_
_geom_bond_atom_site_label_1
_geom_bond_atom_site_label_2
_geom_bond_site_symmetry_1
_geom_bond_site_symmetry_2
Cu1 O1 1_555 1_555
Cu2 O5 1_555 1_555
S1 O1 1_555 1_555
S2 O5 1_555 1_555
O2 S1 1_555 1_555
O3 S1 1_555 1_555
O4 S1 1_555 1_555
O6 S2 1_555 1_555
O7 S2 1_555 1_555
O8 S2 1_555 1_555
N1 C1 1_555 1_555
N2 Cu1 1_555 1_555
N3 C10 1_555 1_555
N4 C11 1_555 1_555
N5 C14 1_555 1_555
N6 Cu1 1_555 1_555
N7 C23 1_555 1_555
N8 C24 1_555 1_555
N9 C27 1_555 1_555
N10 Cu2 1_555 1_555
N11 C36 1_555 1_555
N12 C37 1_555 1_555
N13 C40 1_555 1_555
N14 Cu2 1_555 1_555
N15 C49 1_555 1_555
N16 C50 1_555 1_555
C1 C2 1_555 1_555
C2 H1 1_555 1_555
C3 C2 1_555 1_555
H2 C3 1_555 1_555
C4 C3 1_555 1_555
C5 C4 1_555 1_555
H3 C5 1_555 1_555
C6 C1 1_555 1_555
H4 C6 1_555 1_555
C7 N1 1_555 1_555
H5 C7 1_555 1_555
C8 N2 1_555 1_555
H6 C8 1_555 1_555
C9 N1 1_555 1_555
H7 C9 1_555 1_555
C10 C4 1_555 1_555
H8 C10 1_555 1_555
H9 C10 1_555 1_555
C11 N3 1_555 1_555
H10 C11 1_555 1_555
C12 N4 1_555 1_555
H11 C12 1_555 1_555
C13 N3 1_555 1_555
H12 C13 1_555 1_555
C14 C15 1_555 1_555
C15 H13 1_555 1_555
C16 C15 1_555 1_555
H14 C16 1_555 1_555
C17 C16 1_555 1_555
C18 C17 1_555 1_555
H15 C18 1_555 1_555
C19 C14 1_555 1_555
H16 C19 1_555 1_555
C20 N5 1_555 1_555
H17 C20 1_555 1_555
C21 N6 1_555 1_555
H18 C21 1_555 1_555
C22 N5 1_555 1_555
H19 C22 1_555 1_555
C23 C17 1_555 1_555
H20 C23 1_555 1_555
H21 C23 1_555 1_555
C24 N7 1_555 1_555
H22 C24 1_555 1_555
C25 N8 1_555 1_555
H23 C25 1_555 1_555
C26 N7 1_555 1_555
H24 C26 1_555 1_555
C27 C28 1_555 1_555
C28 H25 1_555 1_555
C29 C28 1_555 1_555
H26 C29 1_555 1_555
C30 C29 1_555 1_555
C31 C30 1_555 1_555
H27 C31 1_555 1_555
C32 C27 1_555 1_555
H28 C32 1_555 1_555
C33 N9 1_555 1_555
H29 C33 1_555 1_555
C34 N10 1_555 1_555
H30 C34 1_555 1_555
C35 N9 1_555 1_555
H31 C35 1_555 1_555
C36 C30 1_555 1_555
H32 C36 1_555 1_555
H33 C36 1_555 1_555
C37 N11 1_555 1_555
H34 C37 1_555 1_555
C38 N12 1_555 1_555
H35 C38 1_555 1_555
C39 N11 1_555 1_555
H36 C39 1_555 1_555
C40 C41 1_555 1_555
C41 H37 1_555 1_555
C42 C41 1_555 1_555
H38 C42 1_555 1_555
C43 C42 1_555 1_555
C44 C43 1_555 1_555
H39 C44 1_555 1_555
C45 C40 1_555 1_555
H40 C45 1_555 1_555
C46 N13 1_555 1_555
H41 C46 1_555 1_555
C47 N14 1_555 1_555
H42 C47 1_555 1_555
C48 N13 1_555 1_555
H43 C48 1_555 1_555
C49 C43 1_555 1_555
H44 C49 1_555 1_555
H45 C49 1_555 1_555
C50 N15 1_555 1_555
H46 C50 1_555 1_555
C51 N16 1_555 1_555
H47 C51 1_555 1_555
C52 N15 1_555 1_555
H48 C52 1_555 1_555
Cu1B N8 1_555 1_555
Cu1B_2 N4 1_555 1_555
Cu2B N16 1_555 1_555
Cu2B_2 N12 1_555 1_555
S1B O1B 1_555 1_555
S2B O5B 1_555 1_555
O1B Cu1B 1_555 1_555
O2B S1B 1_555 1_555
O3B S1B 1_555 1_555
O4B S1B 1_555 1_555
O5B Cu2B 1_555 1_555
O6B S2B 1_555 1_555
O7B S2B 1_555 1_555
O8B S2B 1_555 1_555
N1B C1B 1_555 1_555
N2B Cu1B 1_555 1_555
N3B C10B 1_555 1_555
N4B Cu1 1_555 1_555
N4_2 Cu1B 1_555 1_555
N5B C14B 1_555 1_555
N6B Cu1B_2 1_555 1_555
N6B_2 Cu1B 1_555 1_555
N7B C23B 1_555 1_555
N8B Cu1 1_555 1_555
N9B C27B 1_555 1_555
N10B Cu2B 1_555 1_555
N11B C36B 1_555 1_555
N12B Cu2 1_555 1_555
N12_2 Cu2B 1_555 1_555
N13B C40B 1_555 1_555
N14B Cu2B_2 1_555 1_555
N14B_2 Cu2B 1_555 1_555
N15B C49B 1_555 1_555
N16B Cu2 1_555 1_555
C1B C2B 1_555 1_555
C2B H1B 1_555 1_555
C3B C2B 1_555 1_555
H2B C3B 1_555 1_555
C4B C3B 1_555 1_555
C5B C4B 1_555 1_555
H3B C5B 1_555 1_555
C6B C1B 1_555 1_555
H4B C6B 1_555 1_555
C7B N1B 1_555 1_555
H5B C7B 1_555 1_555
C8B N2B 1_555 1_555
H6B C8B 1_555 1_555
C9B N1B 1_555 1_555
H7B C9B 1_555 1_555
C10B C4B 1_555 1_555
H8B C10B 1_555 1_555
H9B C10B 1_555 1_555
C11B N3B 1_555 1_555
H10B C11B 1_555 1_555
C12B N4B 1_555 1_555
H11B C12B 1_555 1_555
C13B N3B 1_555 1_555
H12B C13B 1_555 1_555
C14B C15B 1_555 1_555
C15B H13B 1_555 1_555
C16B C15B 1_555 1_555
H14B C16B 1_555 1_555
C17B C16B 1_555 1_555
C18B C17B 1_555 1_555
H15B C18B 1_555 1_555
C19B C14B 1_555 1_555
H16B C19B 1_555 1_555
C20B N5B 1_555 1_555
H17B C20B 1_555 1_555
C21B N6B 1_555 1_555
H18B C21B 1_555 1_555
C22B N5B 1_555 1_555
H19B C22B 1_555 1_555
C23B C17B 1_555 1_555
H20B C23B 1_555 1_555
H21B C23B 1_555 1_555
C24B N7B 1_555 1_555
H22B C24B 1_555 1_555
C25B N8B 1_555 1_555
H23B C25B 1_555 1_555
C26B N7B 1_555 1_555
H24B C26B 1_555 1_555
C27B C28B 1_555 1_555
C28B H25B 1_555 1_555
C29B C28B 1_555 1_555
H26B C29B 1_555 1_555
C30B C29B 1_555 1_555
C31B C30B 1_555 1_555
H27B C31B 1_555 1_555
C32B C27B 1_555 1_555
H28B C32B 1_555 1_555
C33B N9B 1_555 1_555
H29B C33B 1_555 1_555
C34B N10B 1_555 1_555
H30B C34B 1_555 1_555
C35B N9B 1_555 1_555
H31B C35B 1_555 1_555
C36B C30B 1_555 1_555
H32B C36B 1_555 1_555
H33B C36B 1_555 1_555
C37B N11B 1_555 1_555
H34B C37B 1_555 1_555
C38B N12B 1_555 1_555
H35B C38B 1_555 1_555
C39B N11B 1_555 1_555
H36B C39B 1_555 1_555
C40B C41B 1_555 1_555
C41B H37B 1_555 1_555
C42B C41B 1_555 1_555
H38B C42B 1_555 1_555
C43B C42B 1_555 1_555
C44B C43B 1_555 1_555
H39B C44B 1_555 1_555
C45B C40B 1_555 1_555
H40B C45B 1_555 1_555
C46B N13B 1_555 1_555
H41B C46B 1_555 1_555
C47B N14B 1_555 1_555
H42B C47B 1_555 1_555
C48B N13B 1_555 1_555
H43B C48B 1_555 1_555
C49B C43B 1_555 1_555
H44B C49B 1_555 1_555
H45B C49B 1_555 1_555
C50B N15B 1_555 1_555
H46B C50B 1_555 1_555
C51B N16B 1_555 1_555
H47B C51B 1_555 1_555
C52B N15B 1_555 1_555
H48B C52B 1_555 1_555
N2 C7 1_555 1_555
N6 C20 1_555 1_555
N10 C33 1_555 1_555
N14 C46 1_555 1_555
C5 C6 1_555 1_555
C8 C9 1_555 1_555
C12 C13 1_555 1_555
C18 C19 1_555 1_555
C21 C22 1_555 1_555
C25 C26 1_555 1_555
C31 C32 1_555 1_555
C34 C35 1_555 1_555
C38 C39 1_555 1_555
C44 C45 1_555 1_555
C47 C48 1_555 1_555
C51 C52 1_555 1_555
N2B C7B 1_555 1_555
N4B C11B 1_555 1_555
N6B C20B 1_555 1_555
N8B C24B 1_555 1_555
N10B C33B 1_555 1_555
N12B C37B 1_555 1_555
N14B C46B 1_555 1_555
N16B C50B 1_555 1_555
C5B C6B 1_555 1_555
C8B C9B 1_555 1_555
C12B C13B 1_555 1_555
C18B C19B 1_555 1_555
C21B C22B 1_555 1_555
C25B C26B 1_555 1_555
C31B C32B 1_555 1_555
C34B C35B 1_555 1_555
C38B C39B 1_555 1_555
C44B C45B 1_555 1_555
C47B C48B 1_555 1_555
C51B C52B 1_555 1_555

#END
