
#######################################################################
#
#                 Cambridge Crystallographic Data Centre
#                                CCDC 
#
#######################################################################
#
# If this CIF has been generated from an entry in the Cambridge 
# Structural Database, then it will include bibliographic, chemical, 
# crystal, experimental, refinement or atomic coordinate data resulting 
# from the CCDC's data processing and validation procedures.
#
#######################################################################

data_FENXIH
_symmetry_cell_setting           orthorhombic
_symmetry_space_group_name_H-M   'P c c n'
_symmetry_Int_Tables_number      56
_space_group_name_Hall           '-P 2ab 2ac'
loop_
_symmetry_equiv_pos_site_id
_symmetry_equiv_pos_as_xyz
1 x,y,z
2 1/2-x,1/2-y,z
3 1/2+x,-y,1/2-z
4 -x,1/2+y,1/2-z
5 -x,-y,-z
6 1/2+x,1/2+y,-z
7 1/2-x,y,1/2+z
8 x,1/2-y,1/2+z
_cell_length_a                   34.7924(19)
_cell_length_b                   12.5064(8)
_cell_length_c                   11.5839(7)
_cell_angle_alpha                90
_cell_angle_beta                 90
_cell_angle_gamma                90
_cell_volume                     5040.48
loop_
_atom_site_label
_atom_site_type_symbol
_atom_site_fract_x
_atom_site_fract_y
_atom_site_fract_z
Eu1 Eu 0.462095(12) 0.11294(3) 0.55205(4)
Eu2 Eu 0.328559(12) 0.20238(3) 0.38911(4)
O1 O 0.32532(15) 0.1565(5) 0.5904(5)
O2 O 0.30142(16) 0.1607(4) 0.7707(5)
O3 O 0.36072(17) 0.0360(5) 0.3968(5)
O4 O 0.43952(16) 0.2833(4) 0.5322(5)
O5 O 0.38047(16) 0.2940(4) 0.4628(5)
C1 C 0.2803(2) 0.0221(6) 0.6429(7)
H1 H 0.2647 0.0389 0.5759
H2 H 0.2979 -0.0343 0.6203
C2 C 0.2269(3) -0.1062(6) 0.6776(8)
H3 H 0.2110 -0.0707 0.6216
H4 H 0.2423 -0.1594 0.6399
H5 H 0.2109 -0.1399 0.7345
O6 O 0.40118(15) 0.0493(4) 0.5450(5)
C3 C 0.2764(3) -0.0778(7) 0.8325(8)
H6 H 0.2918 -0.1339 0.8000
H7 H 0.2928 -0.0261 0.8690
H8 H 0.2591 -0.1073 0.8887
C4 C 0.4556(2) 0.4784(6) 0.4139(7)
H9 H 0.4601 0.5549 0.4160
H10 H 0.4762 0.4445 0.4568
C5 C 0.2533(2) -0.0236(6) 0.7370(7)
C6 C 0.3040(2) 0.1202(6) 0.6717(7)
C7 C 0.3840(3) 0.5055(7) 0.4095(8)
H11 H 0.3818 0.4718 0.3354
H12 H 0.3886 0.5806 0.3994
H13 H 0.3606 0.4955 0.4521
C8 C 0.4176(2) 0.4553(6) 0.4765(7)
C9 C 0.4201(3) 0.5021(6) 0.5995(8)
H14 H 0.4224 0.5784 0.5952
H15 H 0.4421 0.4730 0.6384
H16 H 0.3972 0.4839 0.6416
C10 C 0.4121(2) 0.3346(6) 0.4895(6)
C11 C 0.3815(2) -0.0045(6) 0.4724(7)
O7 O 0.20270(16) 0.1094(4) 0.7209(5)
C12 C 0.2270(2) 0.0647(6) 0.7852(7)
O8 O 0.22863(16) 0.0890(5) 0.8911(5)
O9 O 0.44503(15) 0.3513(4) 0.2592(5)
O10 O 0.47427(16) 0.5023(4) 0.2172(5)
C13 C 0.4580(2) 0.4422(6) 0.2914(7)
C14 C 0.4147(2) -0.1618(6) 0.3856(7)
H17 H 0.4111 -0.2374 0.3708
H18 H 0.4089 -0.1244 0.3143
C15 C 0.3845(2) -0.1275(6) 0.4759(7)
C16 C 0.3950(3) -0.1667(7) 0.5960(7)
H19 H 0.3760 -0.1425 0.6503
H20 H 0.4197 -0.1389 0.6173
H21 H 0.3958 -0.2434 0.5964
C17 C 0.3461(3) -0.1760(7) 0.4393(10)
H22 H 0.3399 -0.1526 0.3626
H23 H 0.3264 -0.1533 0.4917
H24 H 0.3480 -0.2526 0.4406
O11 O 0.46849(15) -0.0581(4) 0.4628(5)
O12 O 0.48089(17) -0.2117(4) 0.3806(6)
C18 C 0.4569(2) -0.1442(7) 0.4119(7)
O13 O 0.29268(18) 0.3308(5) 0.4961(5)
H25 H 0.2725 0.3503 0.4577
H26 H 0.3067 0.3866 0.5093
O14 O 0.47610(18) 0.1586(4) 0.3551(5)
H27 H 0.4992 0.1364 0.3356
H28 H 0.4753 0.2281 0.3455
O15 O 0.37372(15) 0.2260(4) 0.2303(5)
H29 H 0.3952 0.2568 0.2548
H30 H 0.3637 0.2676 0.1760
Eu1G Eu 0.462095(12) 0.38706(3) 0.05205(4)
Eu1D Eu 0.537905(12) -0.11294(3) 0.44795(4)
Eu2G Eu 0.328559(12) 0.29762(3) 0.88911(4)
Eu2F Eu 0.171441(12) 0.20238(3) 0.88911(4)
O2G O 0.30142(16) 0.3393(4) 0.2707(5)
O7F O 0.29730(16) 0.1094(4) 0.2209(5)
O8F O 0.27137(16) 0.0890(5) 0.3911(5)
O9G O 0.44503(15) 0.1487(4) 0.7592(5)
O10G O 0.47427(16) -0.0023(4) 0.7172(5)
O11D O 0.53151(15) 0.0581(4) 0.5372(5)
O12D O 0.51911(17) 0.2117(4) 0.6194(6)
loop_
_geom_bond_atom_site_label_1
_geom_bond_atom_site_label_2
_geom_bond_site_symmetry_1
_geom_bond_site_symmetry_2
Eu1 O4 1_555 1_555
Eu2 O1 1_555 1_555
O1 C6 1_555 1_555
O2 C6 1_555 1_555
O3 Eu2 1_555 1_555
O4 C10 1_555 1_555
O5 Eu2 1_555 1_555
C1 H1 1_555 1_555
H2 C1 1_555 1_555
C2 H3 1_555 1_555
H4 C2 1_555 1_555
H5 C2 1_555 1_555
O6 Eu1 1_555 1_555
C3 H6 1_555 1_555
H7 C3 1_555 1_555
H8 C3 1_555 1_555
C4 H9 1_555 1_555
H10 C4 1_555 1_555
C5 C1 1_555 1_555
C6 C1 1_555 1_555
C7 H11 1_555 1_555
H12 C7 1_555 1_555
H13 C7 1_555 1_555
C8 C4 1_555 1_555
C9 C8 1_555 1_555
H14 C9 1_555 1_555
H15 C9 1_555 1_555
H16 C9 1_555 1_555
C10 O5 1_555 1_555
C11 O3 1_555 1_555
O7 C12 1_555 1_555
C12 C5 1_555 1_555
O8 C12 1_555 1_555
O9 C13 1_555 1_555
O10 C13 1_555 1_555
C13 C4 1_555 1_555
C14 H17 1_555 1_555
H18 C14 1_555 1_555
C15 C11 1_555 1_555
C16 C15 1_555 1_555
H19 C16 1_555 1_555
H20 C16 1_555 1_555
H21 C16 1_555 1_555
C17 C15 1_555 1_555
H22 C17 1_555 1_555
H23 C17 1_555 1_555
H24 C17 1_555 1_555
O11 Eu1 1_555 1_555
O12 C18 1_555 1_555
C18 C14 1_555 1_555
O13 Eu2 1_555 1_555
H25 O13 1_555 1_555
H26 O13 1_555 1_555
O14 Eu1 1_555 1_555
H27 O14 1_555 1_555
H28 O14 1_555 1_555
O15 Eu2 1_555 1_555
H29 O15 1_555 1_555
H30 O15 1_555 1_555
Eu1G O9 1_555 1_555
Eu1D O11 1_555 1_555
Eu2G O2 1_555 1_555
Eu2F O7 1_555 1_555
O2G Eu2 1_555 1_555
O7F Eu2 1_555 1_555
O8F Eu2 1_555 1_555
O9G Eu1 1_555 1_555
O10G Eu1 1_555 1_555
O11D Eu1 1_555 1_555
O12D Eu1 1_555 1_555
C2 C5 1_555 1_555
O6 C11 1_555 1_555
C3 C5 1_555 1_555
C7 C8 1_555 1_555
C8 C10 1_555 1_555
O8 Eu2F 1_555 1_555
O10 Eu1G 1_555 1_555
C14 C15 1_555 1_555
O11 C18 1_555 1_555
O12 Eu1D 1_555 1_555
Eu1D O11D 1_555 1_555

#END
