
#######################################################################
#
#                 Cambridge Crystallographic Data Centre
#                                CCDC 
#
#######################################################################
#
# If this CIF has been generated from an entry in the Cambridge 
# Structural Database, then it will include bibliographic, chemical, 
# crystal, experimental, refinement or atomic coordinate data resulting 
# from the CCDC's data processing and validation procedures.
#
#######################################################################

data_FENXIG
_symmetry_cell_setting           monoclinic
_symmetry_space_group_name_H-M   'C 2/c'
_symmetry_Int_Tables_number      15
_space_group_name_Hall           '-C 2yn'
loop_
_symmetry_equiv_pos_site_id
_symmetry_equiv_pos_as_xyz
1 x,y,z
2 1/2+x,1/2+y,z
3 -x,y,1/2-z
4 1/2-x,1/2+y,1/2-z
5 -x,-y,-z
6 1/2-x,1/2-y,-z
7 x,-y,1/2+z
8 1/2+x,1/2-y,1/2+z
_cell_length_a                   28.6483(9)
_cell_length_b                   12.5995(3)
_cell_length_c                   15.9793(5)
_cell_angle_alpha                90
_cell_angle_beta                 98.0906(19)
_cell_angle_gamma                90
_cell_volume                     5710.39
loop_
_atom_site_label
_atom_site_type_symbol
_atom_site_fract_x
_atom_site_fract_y
_atom_site_fract_z
Co1 Co 0.5000 0.0000 0.5000
Co2 Co 0.7500 -0.7500 0.5000
S1 S 0.40324(4) 0.24998(8) 0.61676(8)
S2 S 0.86125(5) -0.95859(11) 0.68546(10)
N1 N 0.45818(12) 0.0747(3) 0.58538(19)
N2 N 0.49615(11) -0.3160(2) 0.59639(18)
N3 N 0.48434(11) -0.1512(2) 0.55160(18)
N4 N 0.80133(12) -0.8122(3) 0.59495(19)
N5 N 0.63022(11) -0.7362(2) 0.63478(18)
N6 N 0.69734(10) -0.7512(2) 0.58299(16)
N7 N 0.76033(11) -0.4247(2) 0.58893(17)
N8 N 0.76686(11) -0.5907(2) 0.54618(17)
N9 N 0.63334(11) -0.0149(2) 0.66045(19)
N10 N 0.56074(11) -0.0002(2) 0.59391(17)
C1 C 0.51769(14) -0.4189(3) 0.6067(2)
C2 C 0.49316(17) -0.5040(3) 0.6312(3)
H1 H 0.4613 -0.4956 0.6401
C3 C 0.51467(17) -0.6020(3) 0.6430(3)
H2 H 0.4978 -0.6594 0.6630
C4 C 0.55945(13) -0.6185(3) 0.6267(2)
C5 C 0.58286(16) -0.5343(3) 0.5995(3)
H3 H 0.6140 -0.5441 0.5868
C6 C 0.56252(16) -0.4343(3) 0.5899(3)
H4 H 0.5799 -0.3765 0.5717
C7 C 0.43504(14) 0.1459(3) 0.6005(2)
C8 C 0.51012(15) -0.2372(3) 0.5489(2)
H5 H 0.5356 -0.2429 0.5171
C9 C 0.45234(15) -0.1767(3) 0.6044(3)
H6 H 0.4287 -0.1302 0.6193
C10 C 0.45918(15) -0.2781(3) 0.6324(3)
H7 H 0.4417 -0.3150 0.6696
C11 C 0.82626(14) -0.8731(3) 0.6316(2)
C12 C 0.57968(13) -0.7294(3) 0.6382(2)
H8 H 0.5734 -0.7572 0.6935
H9 H 0.5630 -0.7758 0.5937
C13 C 0.65139(13) -0.7479(3) 0.5650(2)
H10 H 0.6348 -0.7532 0.5093
C14 C 0.70670(14) -0.7386(3) 0.6693(2)
H11 H 0.7372 -0.7373 0.7016
C15 C 0.66533(14) -0.7282(3) 0.7008(2)
H12 H 0.6617 -0.7173 0.7584
C16 C 0.74033(14) -0.3246(3) 0.6099(2)
C17 C 0.76473(14) -0.2318(3) 0.6008(2)
H13 H 0.7943 -0.2341 0.5803
C18 C 0.74641(14) -0.1362(3) 0.6213(2)
H14 H 0.7637 -0.0728 0.6162
C19 C 0.70265(14) -0.1312(3) 0.6495(2)
C20 C 0.67874(14) -0.2251(3) 0.6585(2)
H15 H 0.6490 -0.2228 0.6782
C21 C 0.69731(14) -0.3225(3) 0.6396(2)
H16 H 0.6808 -0.3864 0.6468
C22 C 0.73718(14) -0.5129(3) 0.5576(2)
H17 H 0.7038 -0.5184 0.5453
C23 C 0.81069(15) -0.5498(3) 0.5701(2)
H18 H 0.8393 -0.5874 0.5689
C24 C 0.80774(14) -0.4479(3) 0.5957(2)
H19 H 0.8332 -0.4017 0.6147
C25 C 0.68485(14) -0.0230(3) 0.6737(3)
H20 H 0.6966 -0.0091 0.7340
H21 H 0.6980 0.0324 0.6398
C26 C 0.60551(14) -0.0108(3) 0.5859(2)
H22 H 0.6169 -0.0152 0.5329
C27 C 0.55974(16) 0.0013(3) 0.6798(2)
H23 H 0.5320 0.0074 0.7059
C28 C 0.60398(16) -0.0071(3) 0.7213(2)
H24 H 0.6131 -0.0075 0.7809
Co2A Co 0.2500 0.7500 0.5000
S1D S 0.59676(4) -0.24998(8) 0.38324(8)
S2E S 0.63875(5) -0.54141(11) 0.31454(10)
N1D N 0.54182(12) -0.0747(3) 0.41462(19)
N2D N 0.50385(11) 0.3160(2) 0.40361(18)
N3D N 0.51566(11) 0.1512(2) 0.44840(18)
N4E N 0.69867(12) -0.6878(3) 0.40505(19)
N5D N 0.36978(11) 0.7362(2) 0.36522(18)
N6D N 0.30266(10) 0.7512(2) 0.41701(16)
N6E N 0.80266(10) -0.7488(2) 0.41701(16)
N7D N 0.23967(11) 0.4247(2) 0.41107(17)
N8D N 0.23314(11) 0.5907(2) 0.45382(17)
N8E N 0.73314(11) -0.9093(2) 0.45382(17)
N9D N 0.36666(11) 0.0149(2) 0.33955(19)
N10D N 0.43926(11) 0.0002(2) 0.40609(17)
C1D C 0.48231(14) 0.4189(3) 0.3933(2)
C2D C 0.50684(17) 0.5040(3) 0.3688(3)
H1D H 0.5387 0.4956 0.3599
C3D C 0.48533(17) 0.6020(3) 0.3570(3)
H2D H 0.5022 0.6594 0.3370
C4D C 0.44055(13) 0.6185(3) 0.3733(2)
C5D C 0.41714(16) 0.5343(3) 0.4005(3)
H3D H 0.3860 0.5441 0.4132
C6D C 0.43748(16) 0.4343(3) 0.4101(3)
H4D H 0.4201 0.3765 0.4283
C7D C 0.56496(14) -0.1459(3) 0.3995(2)
C8D C 0.48988(15) 0.2372(3) 0.4511(2)
H5D H 0.4644 0.2429 0.4829
C9D C 0.54766(15) 0.1767(3) 0.3956(3)
H6D H 0.5713 0.1302 0.3807
C10D C 0.54082(15) 0.2781(3) 0.3676(3)
H7D H 0.5583 0.3150 0.3304
C11E C 0.67374(14) -0.6269(3) 0.3684(2)
C12D C 0.42032(13) 0.7294(3) 0.3618(2)
H8D H 0.4266 0.7572 0.3065
H9D H 0.4370 0.7758 0.4063
C13D C 0.34861(13) 0.7479(3) 0.4350(2)
H10D H 0.3652 0.7532 0.4907
C14D C 0.29330(14) 0.7386(3) 0.3307(2)
H11D H 0.2628 0.7373 0.2984
C15D C 0.33467(14) 0.7282(3) 0.2992(2)
H12D H 0.3383 0.7173 0.2416
C16D C 0.25967(14) 0.3246(3) 0.3901(2)
C17D C 0.23527(14) 0.2318(3) 0.3992(2)
H13D H 0.2057 0.2341 0.4197
C18D C 0.25359(14) 0.1362(3) 0.3787(2)
H14D H 0.2363 0.0728 0.3838
C19D C 0.29735(14) 0.1312(3) 0.3505(2)
C20D C 0.32126(14) 0.2251(3) 0.3415(2)
H15D H 0.3510 0.2228 0.3218
C21D C 0.30269(14) 0.3225(3) 0.3604(2)
H16D H 0.3192 0.3864 0.3532
C22D C 0.26282(14) 0.5129(3) 0.4424(2)
H17D H 0.2962 0.5184 0.4547
C23D C 0.18931(15) 0.5498(3) 0.4299(2)
H18D H 0.1607 0.5874 0.4311
C24D C 0.19226(14) 0.4479(3) 0.4043(2)
H19D H 0.1668 0.4017 0.3853
C25D C 0.31515(14) 0.0230(3) 0.3263(3)
H20D H 0.3034 0.0091 0.2660
H21D H 0.3020 -0.0324 0.3602
C26D C 0.39449(14) 0.0108(3) 0.4141(2)
H22D H 0.3831 0.0152 0.4671
C27D C 0.44026(16) -0.0013(3) 0.3202(2)
H23D H 0.4680 -0.0074 0.2941
C28D C 0.39602(16) 0.0071(3) 0.2787(2)
H24D H 0.3869 0.0075 0.2191
loop_
_geom_bond_atom_site_label_1
_geom_bond_atom_site_label_2
_geom_bond_site_symmetry_1
_geom_bond_site_symmetry_2
Co1 N1 1_555 1_555
Co2 N4 1_555 1_555
S1 C7 1_555 1_555
S2 C11 1_555 1_555
N1 C7 1_555 1_555
N2 C1 1_555 1_555
N3 Co1 1_555 1_555
N4 C11 1_555 1_555
N5 C12 1_555 1_555
N6 Co2 1_555 1_555
N7 C16 1_555 1_555
N8 Co2 1_555 1_555
N9 C25 1_555 1_555
N10 Co1 1_555 1_555
C1 C2 1_555 1_555
C2 H1 1_555 1_555
C3 C2 1_555 1_555
H2 C3 1_555 1_555
C4 C3 1_555 1_555
C5 C4 1_555 1_555
H3 C5 1_555 1_555
C6 C1 1_555 1_555
H4 C6 1_555 1_555
C8 N2 1_555 1_555
H5 C8 1_555 1_555
C9 N3 1_555 1_555
H6 C9 1_555 1_555
C10 N2 1_555 1_555
H7 C10 1_555 1_555
C12 C4 1_555 1_555
H8 C12 1_555 1_555
H9 C12 1_555 1_555
C13 N5 1_555 1_555
H10 C13 1_555 1_555
C14 N6 1_555 1_555
H11 C14 1_555 1_555
C15 N5 1_555 1_555
H12 C15 1_555 1_555
C16 C17 1_555 1_555
C17 H13 1_555 1_555
C18 C17 1_555 1_555
H14 C18 1_555 1_555
C19 C18 1_555 1_555
C20 C19 1_555 1_555
H15 C20 1_555 1_555
C21 C16 1_555 1_555
H16 C21 1_555 1_555
C22 N7 1_555 1_555
H17 C22 1_555 1_555
C23 N8 1_555 1_555
H18 C23 1_555 1_555
C24 N7 1_555 1_555
H19 C24 1_555 1_555
C25 C19 1_555 1_555
H20 C25 1_555 1_555
H21 C25 1_555 1_555
C26 N9 1_555 1_555
H22 C26 1_555 1_555
C27 N10 1_555 1_555
H23 C27 1_555 1_555
C28 N9 1_555 1_555
H24 C28 1_555 1_555
Co2A N6D 1_555 1_555
S1D C7D 1_555 1_555
S2E C11E 1_555 1_555
N1D Co1 1_555 1_555
N2D C1D 1_555 1_555
N3D Co1 1_555 1_555
N4E Co2 1_555 1_555
N5D C12D 1_555 1_555
N6D C13D 1_555 1_555
N6E Co2 1_555 1_555
N7D C16D 1_555 1_555
N8D Co2A 1_555 1_555
N8E Co2 1_555 1_555
N9D C25D 1_555 1_555
N10D Co1 1_555 1_555
C1D C2D 1_555 1_555
C2D H1D 1_555 1_555
C3D C2D 1_555 1_555
H2D C3D 1_555 1_555
C4D C3D 1_555 1_555
C5D C4D 1_555 1_555
H3D C5D 1_555 1_555
C6D C1D 1_555 1_555
H4D C6D 1_555 1_555
C7D N1D 1_555 1_555
C8D N2D 1_555 1_555
H5D C8D 1_555 1_555
C9D N3D 1_555 1_555
H6D C9D 1_555 1_555
C10D N2D 1_555 1_555
H7D C10D 1_555 1_555
C11E N4E 1_555 1_555
C12D C4D 1_555 1_555
H8D C12D 1_555 1_555
H9D C12D 1_555 1_555
C13D N5D 1_555 1_555
H10D C13D 1_555 1_555
C14D N6D 1_555 1_555
H11D C14D 1_555 1_555
C15D N5D 1_555 1_555
H12D C15D 1_555 1_555
C16D C17D 1_555 1_555
C17D H13D 1_555 1_555
C18D C17D 1_555 1_555
H14D C18D 1_555 1_555
C19D C18D 1_555 1_555
C20D C19D 1_555 1_555
H15D C20D 1_555 1_555
C21D C16D 1_555 1_555
H16D C21D 1_555 1_555
C22D N7D 1_555 1_555
H17D C22D 1_555 1_555
C23D N8D 1_555 1_555
H18D C23D 1_555 1_555
C24D N7D 1_555 1_555
H19D C24D 1_555 1_555
C25D C19D 1_555 1_555
H20D C25D 1_555 1_555
H21D C25D 1_555 1_555
C26D N9D 1_555 1_555
H22D C26D 1_555 1_555
C27D N10D 1_555 1_555
H23D C27D 1_555 1_555
C28D N9D 1_555 1_555
H24D C28D 1_555 1_555
N3 C8 1_555 1_555
N6 C13 1_555 1_555
N8 C22 1_555 1_555
N10 C26 1_555 1_555
C5 C6 1_555 1_555
C9 C10 1_555 1_555
C14 C15 1_555 1_555
C20 C21 1_555 1_555
C23 C24 1_555 1_555
C27 C28 1_555 1_555
N3D C8D 1_555 1_555
N8D C22D 1_555 1_555
N10D C26D 1_555 1_555
C5D C6D 1_555 1_555
C9D C10D 1_555 1_555
C14D C15D 1_555 1_555
C20D C21D 1_555 1_555
C23D C24D 1_555 1_555
C27D C28D 1_555 1_555

#END
