
#######################################################################
#
#                 Cambridge Crystallographic Data Centre
#                                CCDC 
#
#######################################################################
#
# If this CIF has been generated from an entry in the Cambridge 
# Structural Database, then it will include bibliographic, chemical, 
# crystal, experimental, refinement or atomic coordinate data resulting 
# from the CCDC's data processing and validation procedures.
#
#######################################################################

data_FENXOM01
_symmetry_cell_setting           monoclinic
_symmetry_space_group_name_H-M   'C 2/c'
_symmetry_Int_Tables_number      15
_space_group_name_Hall           '-C 2yn'
loop_
_symmetry_equiv_pos_site_id
_symmetry_equiv_pos_as_xyz
1 x,y,z
2 -x,y,1/2-z
3 1/2+x,1/2+y,z
4 1/2-x,1/2+y,1/2-z
5 -x,-y,-z
6 x,-y,1/2+z
7 1/2-x,1/2-y,-z
8 1/2+x,1/2-y,1/2+z
_cell_length_a                   18.319(17)
_cell_length_b                   14.366(15)
_cell_length_c                   26.75(3)
_cell_angle_alpha                90
_cell_angle_beta                 110.29(7)
_cell_angle_gamma                90
_cell_volume                     6602.99
loop_
_atom_site_label
_atom_site_type_symbol
_atom_site_fract_x
_atom_site_fract_y
_atom_site_fract_z
Cu1 Cu 0.79946 0.52504 0.31836
S1 S 0.78487 0.76774 0.36104
O1 O 0.8062 0.6774 0.3484
O2 O 0.7668 0.8227 0.3140
O3 O 0.7210 0.7607 0.3804
O4 O 0.8521 0.8095 0.4023
N1 N 0.7110 0.3908 0.4234
N2 N 0.7615 0.4834 0.3746
N3 N 0.5196 0.0251 0.4348
N4 N 0.4102 0.0070 0.3678
N5 N 0.8893 0.6458 0.2110
N6 N 0.8386 0.5593 0.2592
N7 N 1.0849 1.0097 0.1968
N8 N 1.1908 1.0358 0.2662
C1 C 0.6804 0.3078 0.4403
C2 C 0.7045 0.2218 0.4312
H1 H 0.7433 0.2160 0.4154
C3 C 0.6725 0.1425 0.4452
H2 H 0.6888 0.0824 0.4384
C4 C 0.6167 0.1514 0.4692
C5 C 0.5944 0.2386 0.4792
H3 H 0.5570 0.2454 0.4962
C6 C 0.6264 0.3166 0.4648
H4 H 0.6110 0.3766 0.4718
C7 C 0.7492 0.3940 0.3882
H5 H 0.7656 0.3402 0.3745
C8 C 0.7266 0.5350 0.4039
H6 H 0.7249 0.6009 0.4039
C9 C 0.6954 0.4800 0.4330
H7 H 0.6680 0.5002 0.4554
C10 C 0.5780 0.0659 0.4822
H8 H 0.6184 0.0186 0.4992
H9 H 0.5528 0.0831 0.5082
C11 C 0.4458 0.0563 0.4104
H10 H 0.4232 0.1069 0.4224
C12 C 0.4636 -0.0574 0.3644
H11 H 0.4540 -0.1034 0.3374
C13 C 0.5310 -0.0456 0.4046
H12 H 0.5776 -0.0796 0.4109
C14 C 0.9224 0.7248 0.1944
C15 C 0.9782 0.7126 0.1700
H13 H 0.9934 0.6518 0.1636
C16 C 1.0114 0.7899 0.1554
H14 H 1.0484 0.7818 0.1382
C17 C 0.9908 0.8796 0.1656
C18 C 0.9339 0.8906 0.1884
H15 H 0.9176 0.9512 0.1940
C19 C 0.9004 0.8124 0.2035
H16 H 0.8625 0.8204 0.2200
C20 C 0.8578 0.6446 0.2502
H17 H 0.8507 0.6983 0.2688
C21 C 0.8604 0.5045 0.2246
H18 H 0.8534 0.4392 0.2218
C22 C 0.8917 0.5548 0.1956
H19 H 0.9116 0.5324 0.1695
C23 C 1.0288 0.9628 0.1497
H20 H 1.0562 0.9420 0.1256
H21 H 0.9880 1.0076 0.1299
C24 C 1.1578 0.9814 0.2249
H22 H 1.1824 0.9288 0.2160
C25 C 1.1365 1.1049 0.2644
H23 H 1.1436 1.1547 0.2890
C26 C 1.0717 1.0886 0.2214
H24 H 1.0256 1.1252 0.2103
Cu1B Cu 1.29946 1.02504 0.31836
Cu1B_2 Cu 0.29946 0.02504 0.31836
S1B S 1.28487 1.26774 0.36104
O1B O 1.3062 1.1774 0.3484
O2B O 1.2668 1.3227 0.3140
O3B O 1.2210 1.2607 0.3804
O4B O 1.3521 1.3095 0.4023
N1B N 1.2110 0.8908 0.4234
N2B N 1.2615 0.9834 0.3746
N3B N 1.0196 0.5251 0.4348
N4B N 0.9102 0.5070 0.3678
N4_2 N 1.4102 1.0070 0.3678
N5B N 0.3893 0.1458 0.2110
N6B N 0.3386 0.0593 0.2592
N6B_2 N 1.3386 1.0593 0.2592
N7B N 0.5849 0.5097 0.1968
N8B N 0.6908 0.5358 0.2662
C1B C 1.1804 0.8078 0.4403
C2B C 1.2045 0.7218 0.4312
H1B H 1.2433 0.7160 0.4154
C3B C 1.1725 0.6425 0.4452
H2B H 1.1888 0.5824 0.4384
C4B C 1.1167 0.6514 0.4692
C5B C 1.0944 0.7386 0.4792
H3B H 1.0570 0.7454 0.4962
C6B C 1.1264 0.8166 0.4648
H4B H 1.1110 0.8766 0.4718
C7B C 1.2492 0.8940 0.3882
H5B H 1.2656 0.8402 0.3745
C8B C 1.2266 1.0350 0.4039
H6B H 1.2249 1.1009 0.4039
C9B C 1.1954 0.9800 0.4330
H7B H 1.1680 1.0002 0.4554
C10B C 1.0780 0.5659 0.4822
H8B H 1.1184 0.5186 0.4992
H9B H 1.0528 0.5831 0.5082
C11B C 0.9458 0.5563 0.4104
H10B H 0.9232 0.6069 0.4224
C12B C 0.9636 0.4426 0.3644
H11B H 0.9540 0.3966 0.3374
C13B C 1.0310 0.4544 0.4046
H12B H 1.0776 0.4204 0.4109
C14B C 0.4224 0.2248 0.1944
C15B C 0.4782 0.2126 0.1700
H13B H 0.4934 0.1518 0.1636
C16B C 0.5114 0.2899 0.1554
H14B H 0.5484 0.2818 0.1382
C17B C 0.4908 0.3796 0.1656
C18B C 0.4339 0.3906 0.1884
H15B H 0.4176 0.4512 0.1940
C19B C 0.4004 0.3124 0.2035
H16B H 0.3625 0.3204 0.2200
C20B C 0.3578 0.1446 0.2502
H17B H 0.3507 0.1983 0.2688
C21B C 0.3604 0.0045 0.2246
H18B H 0.3534 -0.0608 0.2218
C22B C 0.3917 0.0548 0.1956
H19B H 0.4116 0.0324 0.1695
C23B C 0.5288 0.4628 0.1497
H20B H 0.5562 0.4420 0.1256
H21B H 0.4880 0.5076 0.1299
C24B C 0.6578 0.4814 0.2249
H22B H 0.6824 0.4288 0.2160
C25B C 0.6365 0.6049 0.2644
H23B H 0.6436 0.6547 0.2890
C26B C 0.5717 0.5886 0.2214
H24B H 0.5256 0.6252 0.2103
O5 O 1.4893 0.3078 0.5762
O6 O 1.4015 0.1998 0.4940
O7 O 1.2140 0.3576 0.4644
O8 O 1.0625 0.2474 0.3408
O9 O 0.8462 0.1825 0.3723
O10 O 0.8110 0.0054 0.4094
O11 O 0.8026 0.3298 0.2906
O12 O 0.9364 -0.0466 0.5040
O13 O 1.00000 0.3258 0.25000
loop_
_geom_bond_atom_site_label_1
_geom_bond_atom_site_label_2
_geom_bond_site_symmetry_1
_geom_bond_site_symmetry_2
Cu1 O1 1_555 1_555
S1 O1 1_555 1_555
O2 S1 1_555 1_555
O3 S1 1_555 1_555
O4 S1 1_555 1_555
N1 C1 1_555 1_555
N2 Cu1 1_555 1_555
N3 C10 1_555 1_555
N4 C11 1_555 1_555
N5 C14 1_555 1_555
N6 Cu1 1_555 1_555
N7 C23 1_555 1_555
N8 C24 1_555 1_555
C1 C2 1_555 1_555
C2 H1 1_555 1_555
C3 C2 1_555 1_555
H2 C3 1_555 1_555
C4 C3 1_555 1_555
C5 C4 1_555 1_555
H3 C5 1_555 1_555
C6 C1 1_555 1_555
H4 C6 1_555 1_555
C7 N1 1_555 1_555
H5 C7 1_555 1_555
C8 N2 1_555 1_555
H6 C8 1_555 1_555
C9 N1 1_555 1_555
H7 C9 1_555 1_555
C10 C4 1_555 1_555
H8 C10 1_555 1_555
H9 C10 1_555 1_555
C11 N3 1_555 1_555
H10 C11 1_555 1_555
C12 N4 1_555 1_555
H11 C12 1_555 1_555
C13 N3 1_555 1_555
H12 C13 1_555 1_555
C14 C15 1_555 1_555
C15 H13 1_555 1_555
C16 C15 1_555 1_555
H14 C16 1_555 1_555
C17 C16 1_555 1_555
C18 C17 1_555 1_555
H15 C18 1_555 1_555
C19 C14 1_555 1_555
H16 C19 1_555 1_555
C20 N5 1_555 1_555
H17 C20 1_555 1_555
C21 N6 1_555 1_555
H18 C21 1_555 1_555
C22 N5 1_555 1_555
H19 C22 1_555 1_555
C23 C17 1_555 1_555
H20 C23 1_555 1_555
H21 C23 1_555 1_555
C24 N7 1_555 1_555
H22 C24 1_555 1_555
C25 N8 1_555 1_555
H23 C25 1_555 1_555
C26 N7 1_555 1_555
H24 C26 1_555 1_555
Cu1B N8 1_555 1_555
Cu1B_2 N4 1_555 1_555
S1B O1B 1_555 1_555
O1B Cu1B 1_555 1_555
O2B S1B 1_555 1_555
O3B S1B 1_555 1_555
O4B S1B 1_555 1_555
N1B C1B 1_555 1_555
N2B Cu1B 1_555 1_555
N3B C10B 1_555 1_555
N4B Cu1 1_555 1_555
N4_2 Cu1B 1_555 1_555
N5B C14B 1_555 1_555
N6B Cu1B_2 1_555 1_555
N6B_2 Cu1B 1_555 1_555
N7B C23B 1_555 1_555
N8B Cu1 1_555 1_555
C1B C2B 1_555 1_555
C2B H1B 1_555 1_555
C3B C2B 1_555 1_555
H2B C3B 1_555 1_555
C4B C3B 1_555 1_555
C5B C4B 1_555 1_555
H3B C5B 1_555 1_555
C6B C1B 1_555 1_555
H4B C6B 1_555 1_555
C7B N1B 1_555 1_555
H5B C7B 1_555 1_555
C8B N2B 1_555 1_555
H6B C8B 1_555 1_555
C9B N1B 1_555 1_555
H7B C9B 1_555 1_555
C10B C4B 1_555 1_555
H8B C10B 1_555 1_555
H9B C10B 1_555 1_555
C11B N3B 1_555 1_555
H10B C11B 1_555 1_555
C12B N4B 1_555 1_555
H11B C12B 1_555 1_555
C13B N3B 1_555 1_555
H12B C13B 1_555 1_555
C14B C15B 1_555 1_555
C15B H13B 1_555 1_555
C16B C15B 1_555 1_555
H14B C16B 1_555 1_555
C17B C16B 1_555 1_555
C18B C17B 1_555 1_555
H15B C18B 1_555 1_555
C19B C14B 1_555 1_555
H16B C19B 1_555 1_555
C20B N5B 1_555 1_555
H17B C20B 1_555 1_555
C21B N6B 1_555 1_555
H18B C21B 1_555 1_555
C22B N5B 1_555 1_555
H19B C22B 1_555 1_555
C23B C17B 1_555 1_555
H20B C23B 1_555 1_555
H21B C23B 1_555 1_555
C24B N7B 1_555 1_555
H22B C24B 1_555 1_555
C25B N8B 1_555 1_555
H23B C25B 1_555 1_555
C26B N7B 1_555 1_555
H24B C26B 1_555 1_555
N2 C7 1_555 1_555
N6 C20 1_555 1_555
C5 C6 1_555 1_555
C8 C9 1_555 1_555
C12 C13 1_555 1_555
C18 C19 1_555 1_555
C21 C22 1_555 1_555
C25 C26 1_555 1_555
N2B C7B 1_555 1_555
N4B C11B 1_555 1_555
N6B C20B 1_555 1_555
N8B C24B 1_555 1_555
C5B C6B 1_555 1_555
C8B C9B 1_555 1_555
C12B C13B 1_555 1_555
C18B C19B 1_555 1_555
C21B C22B 1_555 1_555
C25B C26B 1_555 1_555

#END
