
#######################################################################
#
#                 Cambridge Crystallographic Data Centre
#                                CCDC 
#
#######################################################################
#
# If this CIF has been generated from an entry in the Cambridge 
# Structural Database, then it will include bibliographic, chemical, 
# crystal, experimental, refinement or atomic coordinate data resulting 
# from the CCDC's data processing and validation procedures.
#
#######################################################################

data_FENXEC
_symmetry_cell_setting           monoclinic
_symmetry_space_group_name_H-M   'C 2/c'
_symmetry_Int_Tables_number      15
_space_group_name_Hall           '-C 2yn'
loop_
_symmetry_equiv_pos_site_id
_symmetry_equiv_pos_as_xyz
1 x,y,z
2 1/2+x,1/2+y,z
3 -x,y,1/2-z
4 1/2-x,1/2+y,1/2-z
5 -x,-y,-z
6 1/2-x,1/2-y,-z
7 x,-y,1/2+z
8 1/2+x,1/2-y,1/2+z
_cell_length_a                   12.7726(13)
_cell_length_b                   15.6346(11)
_cell_length_c                   14.1345(12)
_cell_angle_alpha                90
_cell_angle_beta                 112.175(5)
_cell_angle_gamma                90
_cell_volume                     2613.81
loop_
_atom_site_label
_atom_site_type_symbol
_atom_site_fract_x
_atom_site_fract_y
_atom_site_fract_z
Br1 Br 0.31893(3) 0.36722(2) 0.35748(2)
Cu1 Cu 0.2500 0.2500 0.5000
N1 N 0.5573(2) 0.14304(17) 0.5289(2)
N2 N 0.3976(2) 0.18569(17) 0.5370(2)
N3 N 0.8788(2) 0.11141(17) 0.2706(2)
N4 N 0.8163(2) 0.16836(16) 0.1167(2)
C1 C 0.6468(3) 0.1336(2) 0.4913(3)
C2 C 0.7573(3) 0.1414(2) 0.5575(3)
H2 H 0.7749 0.1528 0.6278
C3 C 0.8433(3) 0.1324(2) 0.5202(2)
H3 H 0.9199 0.1375 0.5657
C4 C 0.8185(3) 0.1160(2) 0.4177(3)
C5 C 0.7059(3) 0.1096(3) 0.3524(3)
H4 H 0.6874 0.0995 0.2816
C6 C 0.6203(3) 0.1179(3) 0.3894(3)
H5 H 0.5435 0.1126 0.3444
C7 C 0.4635(3) 0.1908(2) 0.4848(3)
H6 H 0.4473 0.2237 0.4244
C8 C 0.4505(3) 0.1321(2) 0.6169(3)
H7 H 0.4218 0.1158 0.6672
C9 C 0.5505(3) 0.1056(2) 0.6137(3)
H8 H 0.6044 0.0687 0.6607
C10 C 0.9142(3) 0.1035(2) 0.3817(3)
H9 H 0.9737 0.1464 0.4152
H10 H 0.9475 0.0461 0.4030
C11 C 0.8551(3) 0.1846(2) 0.2161(3)
H11 H 0.8650 0.2403 0.2451
C12 C 0.8144(3) 0.0809(2) 0.1076(3)
H12 H 0.7903 0.0503 0.0449
C13 C 0.8522(3) 0.0447(2) 0.2019(3)
H13 H 0.8590 -0.0147 0.2174
Br1E Br 0.18107(3) 0.13278(2) 0.64252(2)
Cu1G Cu 0.7500 0.2500 0.0000
Cu1G_2 Cu -0.2500 0.2500 1.0000
N1E N -0.0573(2) 0.35696(17) 0.4711(2)
N2E N 0.1024(2) 0.31431(17) 0.4630(2)
N3E N -0.3788(2) 0.38859(17) 0.7294(2)
N4E N -0.3163(2) 0.33164(16) 0.8833(2)
N4G N 0.3163(2) 0.33164(16) 0.6167(2)
N4B N 0.1837(2) 0.16836(16) 0.3833(2)
C1E C -0.1468(3) 0.3664(2) 0.5087(3)
C2E C -0.2573(3) 0.3586(2) 0.4425(3)
H2E H -0.2749 0.3472 0.3722
C3E C -0.3433(3) 0.3676(2) 0.4798(2)
H3E H -0.4199 0.3625 0.4343
C4E C -0.3185(3) 0.3840(2) 0.5823(3)
C5E C -0.2059(3) 0.3904(3) 0.6476(3)
H4E H -0.1874 0.4005 0.7184
C6E C -0.1203(3) 0.3821(3) 0.6106(3)
H5E H -0.0435 0.3874 0.6556
C7E C 0.0365(3) 0.3092(2) 0.5152(3)
H6E H 0.0527 0.2763 0.5756
C8E C 0.0495(3) 0.3679(2) 0.3831(3)
H7E H 0.0782 0.3842 0.3328
C9E C -0.0505(3) 0.3944(2) 0.3863(3)
H8E H -0.1044 0.4313 0.3393
C10E C -0.4142(3) 0.3965(2) 0.6183(3)
H9E H -0.4737 0.3536 0.5848
H10E H -0.4475 0.4539 0.5970
C11E C -0.3551(3) 0.3154(2) 0.7839(3)
H11E H -0.3650 0.2597 0.7549
C12E C -0.3144(3) 0.4191(2) 0.8924(3)
H12E H -0.2903 0.4497 0.9551
C13E C -0.3522(3) 0.4553(2) 0.7981(3)
H13E H -0.3590 0.5147 0.7826
O1 O 0.5000 0.2795(8) 0.2500
H1 H 0.4517 0.3239 0.2669
H1B H 0.5483 0.3239 0.2331
loop_
_geom_bond_atom_site_label_1
_geom_bond_atom_site_label_2
_geom_bond_site_symmetry_1
_geom_bond_site_symmetry_2
Br1 Cu1 1_555 1_555
Cu1 N2 1_555 1_555
O1 H1 1_555 1_555
N1 C1 1_555 1_555
N2 C7 1_555 1_555
N3 C10 1_555 1_555
N4 C11 1_555 1_555
C1 C2 1_555 1_555
C2 H2 1_555 1_555
C3 C2 1_555 1_555
H3 C3 1_555 1_555
C4 C3 1_555 1_555
C5 C4 1_555 1_555
H4 C5 1_555 1_555
C6 C1 1_555 1_555
H5 C6 1_555 1_555
C7 N1 1_555 1_555
H6 C7 1_555 1_555
C8 N2 1_555 1_555
H7 C8 1_555 1_555
C9 N1 1_555 1_555
H8 C9 1_555 1_555
C10 C4 1_555 1_555
H9 C10 1_555 1_555
H10 C10 1_555 1_555
C11 N3 1_555 1_555
H11 C11 1_555 1_555
C12 N4 1_555 1_555
H12 C12 1_555 1_555
C13 N3 1_555 1_555
H13 C13 1_555 1_555
Br1E Cu1 1_555 1_555
Cu1G N4 1_555 1_555
Cu1G_2 N4E 1_555 1_555
H1B O1 1_555 1_555
N1E C1E 1_555 1_555
N2E Cu1 1_555 1_555
N3E C10E 1_555 1_555
N4E C11E 1_555 1_555
N4G Cu1 1_555 1_555
N4B Cu1 1_555 1_555
C1E C2E 1_555 1_555
C2E H2E 1_555 1_555
C3E C2E 1_555 1_555
H3E C3E 1_555 1_555
C4E C3E 1_555 1_555
C5E C4E 1_555 1_555
H4E C5E 1_555 1_555
C6E C1E 1_555 1_555
H5E C6E 1_555 1_555
C7E N1E 1_555 1_555
H6E C7E 1_555 1_555
C8E N2E 1_555 1_555
H7E C8E 1_555 1_555
C9E N1E 1_555 1_555
H8E C9E 1_555 1_555
C10E C4E 1_555 1_555
H9E C10E 1_555 1_555
H10E C10E 1_555 1_555
C11E N3E 1_555 1_555
H11E C11E 1_555 1_555
C12E N4E 1_555 1_555
H12E C12E 1_555 1_555
C13E N3E 1_555 1_555
H13E C13E 1_555 1_555
C5 C6 1_555 1_555
C8 C9 1_555 1_555
C12 C13 1_555 1_555
N2E C7E 1_555 1_555
C5E C6E 1_555 1_555
C8E C9E 1_555 1_555
C12E C13E 1_555 1_555

#END
