
#######################################################################
#
#                 Cambridge Crystallographic Data Centre
#                                CCDC 
#
#######################################################################
#
# If this CIF has been generated from an entry in the Cambridge 
# Structural Database, then it will include bibliographic, chemical, 
# crystal, experimental, refinement or atomic coordinate data resulting 
# from the CCDC's data processing and validation procedures.
#
#######################################################################

data_FENXON
_symmetry_cell_setting           orthorhombic
_symmetry_space_group_name_H-M   'P c c n'
_symmetry_Int_Tables_number      56
_space_group_name_Hall           '-P 2ab 2ac'
loop_
_symmetry_equiv_pos_site_id
_symmetry_equiv_pos_as_xyz
1 x,y,z
2 1/2-x,1/2-y,z
3 1/2+x,-y,1/2-z
4 -x,1/2+y,1/2-z
5 -x,-y,-z
6 1/2+x,1/2+y,-z
7 1/2-x,y,1/2+z
8 x,1/2-y,1/2+z
_cell_length_a                   34.6706(11)
_cell_length_b                   12.5002(3)
_cell_length_c                   11.5584(4)
_cell_angle_alpha                90
_cell_angle_beta                 90
_cell_angle_gamma                90
_cell_volume                     5009.29
loop_
_atom_site_label
_atom_site_type_symbol
_atom_site_fract_x
_atom_site_fract_y
_atom_site_fract_z
Tb1 Tb 0.462157(5) 0.112477(15) 0.551905(15)
Tb2 Tb 0.328543(5) 0.202872(15) 0.387455(15)
O1 O 0.32555(7) 0.1580(2) 0.5891(2)
O2 O 0.30160(8) 0.1613(2) 0.7687(2)
O3 O 0.36031(8) 0.0374(2) 0.3962(2)
O4 O 0.43962(8) 0.2818(2) 0.5321(2)
O5 O 0.38023(8) 0.2930(2) 0.4607(2)
C1 C 0.28010(11) 0.0220(3) 0.6423(3)
H1 H 0.2645 0.0381 0.5748
H2 H 0.2978 -0.0345 0.6203
C2 C 0.22684(12) -0.1066(4) 0.6756(4)
H3 H 0.2104 -0.071 0.621
H4 H 0.2425 -0.1581 0.6359
H5 H 0.2113 -0.1424 0.7325
O6 O 0.40153(8) 0.0502(2) 0.5435(3)
C3 C 0.27602(12) -0.0779(4) 0.8322(4)
H6 H 0.2916 -0.134 0.7998
H7 H 0.2924 -0.0261 0.869
H8 H 0.2586 -0.1075 0.8882
C4 C 0.45624(11) 0.4770(3) 0.4142(3)
H9 H 0.4615 0.5532 0.4175
H10 H 0.4766 0.4408 0.4564
C5 C 0.25296(11) -0.0237(3) 0.7358(3)
C6 C 0.30393(10) 0.1208(3) 0.6697(3)
C7 C 0.38395(12) 0.5060(4) 0.4114(4)
H11 H 0.383 0.4778 0.3342
H12 H 0.3875 0.5821 0.4083
H13 H 0.3602 0.4901 0.4506
C8 C 0.41736(11) 0.4553(3) 0.4766(3)
C9 C 0.42009(13) 0.5012(3) 0.5995(3)
H14 H 0.4231 0.5775 0.5955
H15 H 0.4419 0.4705 0.6385
H16 H 0.397 0.4844 0.6414
C10 C 0.41171(11) 0.3339(3) 0.4888(3)
C11 C 0.38152(11) -0.0039(3) 0.4717(3)
O7 O 0.20208(8) 0.1087(2) 0.7187(2)
C12 C 0.22666(10) 0.0650(3) 0.7835(3)
O8 O 0.22822(7) 0.0914(2) 0.8898(2)
O9 O 0.44525(8) 0.3504(2) 0.2581(2)
O10 O 0.47381(8) 0.5025(2) 0.2155(2)
C13 C 0.45793(10) 0.4418(3) 0.2894(3)
C14 C 0.41513(10) -0.1626(3) 0.3859(4)
H17 H 0.4118 -0.2386 0.3725
H18 H 0.4094 -0.1266 0.3136
C15 C 0.38414(11) -0.1275(3) 0.4751(3)
C16 C 0.39425(13) -0.1674(4) 0.5970(4)
H19 H 0.3761 -0.1387 0.6516
H20 H 0.4198 -0.1442 0.6169
H21 H 0.3932 -0.2441 0.5986
C17 C 0.34596(11) -0.1759(4) 0.4358(4)
H22 H 0.341 -0.1556 0.3571
H23 H 0.3255 -0.1502 0.4845
H24 H 0.3473 -0.2525 0.4411
O11 O 0.46884(7) -0.0581(2) 0.4634(2)
O12 O 0.48159(8) -0.2124(2) 0.3816(3)
C18 C 0.45738(11) -0.1437(3) 0.4124(3)
O13 O 0.29334(9) 0.3314(3) 0.4926(3)
H25 H 0.2961(13) 0.351(4) 0.5619(17)
H26 H 0.2737(9) 0.360(4) 0.462(3)
O14 O 0.47608(9) 0.1576(3) 0.3569(2)
H27 H 0.4914(12) 0.126(3) 0.311(3)
H28 H 0.4652(13) 0.210(3) 0.324(3)
O15 O 0.37352(8) 0.2248(2) 0.2294(2)
H29 H 0.3619(11) 0.256(3) 0.174(3)
H30 H 0.3929(9) 0.261(3) 0.250(3)
Tb1G Tb 0.462157(5) 0.387523(15) 0.051905(15)
Tb1D Tb 0.537843(5) -0.112477(15) 0.448095(15)
Tb2G Tb 0.328543(5) 0.297128(15) 0.887455(15)
Tb2F Tb 0.171457(5) 0.202872(15) 0.887455(15)
O2G O 0.30160(8) 0.3387(2) 0.2687(2)
O7F O 0.29792(8) 0.1087(2) 0.2187(2)
O8F O 0.27178(7) 0.0914(2) 0.3898(2)
O9G O 0.44525(8) 0.1496(2) 0.7581(2)
O10G O 0.47381(8) -0.0025(2) 0.7155(2)
O11D O 0.53116(7) 0.0581(2) 0.5366(2)
O12D O 0.51841(8) 0.2124(2) 0.6184(3)
loop_
_geom_bond_atom_site_label_1
_geom_bond_atom_site_label_2
_geom_bond_site_symmetry_1
_geom_bond_site_symmetry_2
Tb1 O4 1_555 1_555
Tb2 O1 1_555 1_555
O1 C6 1_555 1_555
O2 C6 1_555 1_555
O3 Tb2 1_555 1_555
O4 C10 1_555 1_555
O5 Tb2 1_555 1_555
C1 H1 1_555 1_555
H2 C1 1_555 1_555
C2 H3 1_555 1_555
H4 C2 1_555 1_555
H5 C2 1_555 1_555
O6 Tb1 1_555 1_555
C3 H6 1_555 1_555
H7 C3 1_555 1_555
H8 C3 1_555 1_555
C4 H9 1_555 1_555
H10 C4 1_555 1_555
C5 C1 1_555 1_555
C6 C1 1_555 1_555
C7 H11 1_555 1_555
H12 C7 1_555 1_555
H13 C7 1_555 1_555
C8 C4 1_555 1_555
C9 C8 1_555 1_555
H14 C9 1_555 1_555
H15 C9 1_555 1_555
H16 C9 1_555 1_555
C10 O5 1_555 1_555
C11 O3 1_555 1_555
O7 C12 1_555 1_555
C12 C5 1_555 1_555
O8 C12 1_555 1_555
O9 C13 1_555 1_555
O10 C13 1_555 1_555
C13 C4 1_555 1_555
C14 H17 1_555 1_555
H18 C14 1_555 1_555
C15 C11 1_555 1_555
C16 C15 1_555 1_555
H19 C16 1_555 1_555
H20 C16 1_555 1_555
H21 C16 1_555 1_555
C17 C15 1_555 1_555
H22 C17 1_555 1_555
H23 C17 1_555 1_555
H24 C17 1_555 1_555
O11 Tb1 1_555 1_555
O12 C18 1_555 1_555
C18 C14 1_555 1_555
O13 Tb2 1_555 1_555
H25 O13 1_555 1_555
H26 O13 1_555 1_555
O14 Tb1 1_555 1_555
H27 O14 1_555 1_555
H28 O14 1_555 1_555
O15 Tb2 1_555 1_555
H29 O15 1_555 1_555
H30 O15 1_555 1_555
Tb1G O9 1_555 1_555
Tb1D O11 1_555 1_555
Tb2G O2 1_555 1_555
Tb2F O7 1_555 1_555
O2G Tb2 1_555 1_555
O7F Tb2 1_555 1_555
O8F Tb2 1_555 1_555
O9G Tb1 1_555 1_555
O10G Tb1 1_555 1_555
O11D Tb1 1_555 1_555
O12D Tb1 1_555 1_555
C2 C5 1_555 1_555
O6 C11 1_555 1_555
C3 C5 1_555 1_555
C7 C8 1_555 1_555
C8 C10 1_555 1_555
O8 Tb2F 1_555 1_555
O10 Tb1G 1_555 1_555
C14 C15 1_555 1_555
O11 C18 1_555 1_555
O12 Tb1D 1_555 1_555
Tb1D O11D 1_555 1_555

#END
