
#######################################################################
#
#                 Cambridge Crystallographic Data Centre
#                                CCDC 
#
#######################################################################
#
# If this CIF has been generated from an entry in the Cambridge 
# Structural Database, then it will include bibliographic, chemical, 
# crystal, experimental, refinement or atomic coordinate data resulting 
# from the CCDC's data processing and validation procedures.
#
#######################################################################

data_FENXED
_symmetry_cell_setting           triclinic
_symmetry_space_group_name_H-M   'P -1'
_symmetry_Int_Tables_number      2
_space_group_name_Hall           '-P 1'
loop_
_symmetry_equiv_pos_site_id
_symmetry_equiv_pos_as_xyz
1 x,y,z
2 -x,-y,-z
_cell_length_a                   11.0074(13)
_cell_length_b                   11.1582(12)
_cell_length_c                   12.1118(12)
_cell_angle_alpha                98.660(9)
_cell_angle_beta                 103.678(9)
_cell_angle_gamma                118.293(11)
_cell_volume                     1211.28
loop_
_atom_site_label
_atom_site_type_symbol
_atom_site_fract_x
_atom_site_fract_y
_atom_site_fract_z
Ce1 Ce 0.01302(5) 0.33631(5) 0.54018(4)
Ce2 Ce -0.69511(5) 0.31269(5) 0.40995(4)
O1 O -0.5166(7) 0.3534(7) 0.3126(6)
O2 O 0.1341(7) 0.1038(6) 0.6632(5)
O3 O 0.0842(7) 0.2711(6) 0.7187(5)
O4 O -0.1376(7) -0.1604(7) 0.8048(6)
C1 C -0.4799(11) 0.1205(12) 0.1811(10)
H1 H -0.512 0.1266 0.2477
H2 H -0.4682 0.0402 0.1688
H3 H -0.5521 0.1087 0.1107
C2 C -0.4424(10) 0.3539(11) 0.8231(8)
H4 H -0.5328 0.2642 0.8034
H5 H -0.3765 0.3737 0.9008
H6 H -0.4627 0.4286 0.8233
O5 O -0.0894(7) 0.4269(7) 0.6638(5)
C3 C -0.4749(9) 0.3280(10) 0.6122(8)
C4 C -0.3895(9) 0.4374(10) 0.3166(8)
C5 C -0.3449(9) 0.3936(9) 0.2138(8)
H7 H -0.2514 0.4745 0.2202
H8 H -0.4177 0.3744 0.1391
C6 C 0.2404(11) 0.3124(10) 0.9579(8)
H9 H 0.2574 0.3022 1.0364
H10 H 0.195 0.3674 0.9501
H11 H 0.3326 0.3604 0.9455
C7 C -0.3541(11) 0.2157(10) 0.7197(9)
H12 H -0.4484 0.1313 0.7031
H13 H -0.3182 0.2049 0.6562
H14 H -0.2857 0.2294 0.7935
C8 C 0.1371(10) 0.1624(10) 0.8635(8)
C9 C -0.3701(9) 0.3462(10) 0.7297(8)
C10 C 0.2001(10) 0.0706(10) 0.8832(8)
H15 H 0.2948 0.1134 0.8744
H16 H 0.1349 -0.0228 0.8257
H17 H 0.211 0.0623 0.9622
C11 C -0.2693(12) 0.2455(11) 0.1082(8)
H18 H -0.2479 0.1715 0.1084
H19 H -0.1807 0.3344 0.1215
H20 H -0.3414 0.2211 0.0325
C12 C 0.1156(9) 0.1814(9) 0.7400(8)
O6 O -0.1257(6) 0.5996(6) 0.6262(5)
C13 C -0.2184(9) 0.2821(10) 0.3238(8)
C14 C -0.1294(9) -0.0474(9) 0.7883(7)
C15 C -0.0181(9) 0.0983(9) 0.8787(8)
H21 H -0.0078 0.0904 0.9587
H22 H -0.0531 0.1624 0.8689
C16 C -0.1374(10) 0.5057(10) 0.6783(8)
O7 O -0.1485(6) 0.4030(6) 0.4080(5)
O8 O -0.2106(7) -0.0544(7) 0.6894(6)
O9 O -0.4410(6) 0.4338(7) 0.5715(6)
O10 O -0.5962(7) 0.2132(7) 0.5597(6)
O11 O -0.1928(7) 0.1866(7) 0.3337(6)
O12 O -0.2961(7) 0.5581(6) 0.3954(5)
C17 C -0.2184(9) 0.4874(10) 0.7697(8)
H23 H -0.2325 0.5668 0.7861
H24 H -0.1551 0.493 0.8438
C18 C -0.3294(11) 0.2606(10) 0.2071(8)
O13 O 0.0839(7) 0.1618(6) 0.4670(5)
O14 O -0.1936(7) 0.1003(7) 0.5342(6)
H25 H 0.029(10) 0.081(5) 0.414(6)
H26 H 0.104(11) 0.153(10) 0.537(3)
H27 H -0.253(10) 0.035(7) 0.468(4)
H28 H -0.190(11) 0.063(9) 0.590(6)
Ce1A Ce -0.01302(5) 0.66369(5) 0.45982(4)
Ce2A Ce -0.30489(5) -0.31269(5) 0.59005(4)
Ce2A_2 Ce -0.30489(5) 0.68731(5) 0.59005(4)
Ce2_2 Ce 0.30489(5) 0.31269(5) 0.40995(4)
O4A O -0.8624(7) 0.1604(7) 0.1952(6)
O6A O 0.1257(6) 0.4004(6) 0.3738(5)
O6A_2 O -0.8743(6) 0.4004(6) 0.3738(5)
O7A O 0.1485(6) 0.5970(6) 0.5920(5)
O8A O -0.7894(7) 0.0544(7) 0.3106(6)
O9A O -0.5590(6) 0.5662(7) 0.4285(6)
O12A O 0.2961(7) 0.4419(6) 0.6046(5)
O12A_2 O -0.7039(7) 0.4419(6) 0.6046(5)
O13_2 O -0.9161(7) 0.1618(6) 0.4670(5)
H25_2 H -0.971(10) 0.081(5) 0.414(6)
H26_2 H -0.896(11) 0.153(10) 0.537(3)
loop_
_geom_bond_atom_site_label_1
_geom_bond_atom_site_label_2
_geom_bond_site_symmetry_1
_geom_bond_site_symmetry_2
Ce1 O3 1_555 1_555
Ce2 O1 1_555 1_555
O1 C4 1_555 1_555
O2 C12 1_555 1_555
O3 C12 1_555 1_555
O4 C14 1_555 1_555
C1 H1 1_555 1_555
H2 C1 1_555 1_555
H3 C1 1_555 1_555
C2 H4 1_555 1_555
H5 C2 1_555 1_555
H6 C2 1_555 1_555
O5 Ce1 1_555 1_555
C3 C9 1_555 1_555
C4 C5 1_555 1_555
C5 H7 1_555 1_555
H8 C5 1_555 1_555
C6 H9 1_555 1_555
H10 C6 1_555 1_555
H11 C6 1_555 1_555
C7 H12 1_555 1_555
H13 C7 1_555 1_555
H14 C7 1_555 1_555
C8 C6 1_555 1_555
C9 C2 1_555 1_555
C10 C8 1_555 1_555
H15 C10 1_555 1_555
H16 C10 1_555 1_555
H17 C10 1_555 1_555
C11 H18 1_555 1_555
H19 C11 1_555 1_555
H20 C11 1_555 1_555
C12 C8 1_555 1_555
O6 C16 1_555 1_555
C13 O7 1_555 1_555
C14 C15 1_555 1_555
C15 C8 1_555 1_555
H21 C15 1_555 1_555
H22 C15 1_555 1_555
C16 O5 1_555 1_555
O7 Ce1 1_555 1_555
O8 C14 1_555 1_555
O9 Ce2 1_555 1_555
O10 Ce2 1_555 1_555
O11 Ce1 1_555 1_555
O12 C4 1_555 1_555
C17 C9 1_555 1_555
H23 C17 1_555 1_555
H24 C17 1_555 1_555
C18 C1 1_555 1_555
O13 Ce1 1_555 1_555
O14 Ce1 1_555 1_555
H25 O13 1_555 1_555
H26 O13 1_555 1_555
H27 O14 1_555 1_555
H28 O14 1_555 1_555
Ce1A O6 1_555 1_555
Ce2A O4 1_555 1_555
Ce2A_2 O6 1_555 1_555
Ce2_2 O13 1_555 1_555
O4A Ce2 1_555 1_555
O6A Ce1 1_555 1_555
O6A_2 Ce2 1_555 1_555
O7A Ce1 1_555 1_555
O8A Ce2 1_555 1_555
O9A Ce2 1_555 1_555
O12A Ce1 1_555 1_555
O12A_2 Ce2 1_555 1_555
O13_2 Ce2 1_555 1_555
H25_2 O13_2 1_555 1_555
H26_2 O13_2 1_555 1_555
C3 O9 1_555 1_555
C3 O10 1_555 1_555
C5 C18 1_555 1_555
C7 C9 1_555 1_555
C11 C18 1_555 1_555
C13 O11 1_555 1_555
C13 C18 1_555 1_555
C16 C17 1_555 1_555
O7 Ce1A 1_555 1_555
O8 Ce2A 1_555 1_555
O9 Ce2A_2 1_555 1_555
O12 Ce1A 1_555 1_555
O12 Ce2A_2 1_555 1_555
Ce1A O7A 1_555 1_555
Ce2A_2 O9A 1_555 1_555
Ce2_2 O6A 1_555 1_555
Ce2_2 O12A 1_555 1_555

#END
