
#######################################################################
#
#                 Cambridge Crystallographic Data Centre
#                                CCDC 
#
#######################################################################
#
# If this CIF has been generated from an entry in the Cambridge 
# Structural Database, then it will include bibliographic, chemical, 
# crystal, experimental, refinement or atomic coordinate data resulting 
# from the CCDC's data processing and validation procedures.
#
#######################################################################

data_FENXAY
_symmetry_cell_setting           orthorhombic
_symmetry_space_group_name_H-M   'P b c a'
_symmetry_Int_Tables_number      61
_space_group_name_Hall           '-P 2ac 2ab'
loop_
_symmetry_equiv_pos_site_id
_symmetry_equiv_pos_as_xyz
1 x,y,z
2 1/2+x,1/2-y,-z
3 -x,1/2+y,1/2-z
4 1/2-x,-y,1/2+z
5 -x,-y,-z
6 1/2-x,1/2+y,z
7 x,1/2-y,1/2+z
8 1/2+x,y,1/2-z
_cell_length_a                   18.088(10)
_cell_length_b                   16.857(9)
_cell_length_c                   25.604(9)
_cell_angle_alpha                90
_cell_angle_beta                 90
_cell_angle_gamma                90
_cell_volume                     7806.9
loop_
_atom_site_label
_atom_site_type_symbol
_atom_site_fract_x
_atom_site_fract_y
_atom_site_fract_z
Ag1 Ag 0.25594(3) -0.10098(2) 0.091015(13)
N1 N 0.3270(2) 0.0337(2) 0.22311(13)
N2 N 0.3069(2) -0.0425(2) 0.15476(14)
N3 N 0.2964(2) 0.2094(2) 0.44466(13)
N4 N 0.2834(2) 0.1579(2) 0.52289(14)
C1 C 0.3146(2) 0.0887(3) 0.26507(15)
C2 C 0.3748(3) 0.1223(3) 0.28947(18)
H3 H 0.4235 0.1099 0.2783
C3 C 0.3634(3) 0.1744(3) 0.33049(18)
H4 H 0.4047 0.1983 0.3471
C4 C 0.2930(3) 0.1923(3) 0.34762(16)
C5 C 0.2340(3) 0.1591(3) 0.32157(16)
H5 H 0.1851 0.1721 0.3320
C6 C 0.2447(3) 0.1070(3) 0.28050(15)
H6 H 0.2034 0.0842 0.2631
C7 C 0.2778(3) 0.0119(3) 0.18587(17)
H7 H 0.2292 0.0327 0.1825
C8 C 0.3776(3) -0.0557(3) 0.17286(18)
H8 H 0.4119 -0.0921 0.1582
C9 C 0.3906(3) -0.0090(3) 0.21474(17)
H9 H 0.4350 -0.0062 0.2345
C10 C 0.2812(3) 0.2471(3) 0.39420(15)
H10 H 0.3136 0.2940 0.3903
H11 H 0.2293 0.2660 0.3940
C11 C 0.2490(3) 0.1891(3) 0.48188(16)
H12 H 0.1969 0.1960 0.4795
C12 C 0.3566(3) 0.1588(3) 0.51071(19)
H13 H 0.3952 0.1405 0.5328
C13 C 0.3660(3) 0.1896(3) 0.46268(18)
H14 H 0.4115 0.1964 0.4447
Ag1C Ag 0.24406(3) 0.10098(2) 0.591015(13)
N4C N 0.2166(2) -0.1579(2) 0.02289(14)
Ag2 Ag 0.25664(4) -0.18789(3) 0.235647(14)
N5 N 0.2093(2) -0.3324(2) 0.10300(13)
N6 N 0.2185(3) -0.2575(3) 0.17329(14)
N7 N 0.2937(3) -0.4527(2) -0.12913(13)
N8 N 0.2914(3) -0.3797(3) -0.19955(15)
C14 C 0.2254(3) -0.3729(3) 0.05549(16)
C15 C 0.2920(3) -0.4105(3) 0.04910(17)
H15 H 0.3280 -0.4092 0.0761
C16 C 0.3063(3) -0.4501(3) 0.00327(17)
H16 H 0.3531 -0.4748 -0.0015
C17 C 0.2543(3) -0.4548(3) -0.03591(15)
C18 C 0.1884(3) -0.4167(3) -0.02867(17)
H17 H 0.1520 -0.4188 -0.0554
C19 C 0.1734(3) -0.3755(3) 0.01643(17)
H18 H 0.1275 -0.3489 0.0205
C20 C 0.2550(3) -0.2899(3) 0.13396(16)
H19 H 0.3066 -0.2840 0.1282
C21 C 0.1475(4) -0.2807(4) 0.1679(2)
H20 H 0.1085 -0.2671 0.1912
C22 C 0.1396(3) -0.3263(3) 0.12468(19)
H21 H 0.0952 -0.3493 0.1119
C23 C 0.2690(3) -0.5020(3) -0.08573(16)
H22 H 0.2232 -0.5300 -0.0960
H23 H 0.3072 -0.5426 -0.0784
C24 C 0.2511(3) -0.4231(3) -0.16755(15)
H24 H 0.1995 -0.4322 -0.1711
C25 C 0.3604(4) -0.3818(4) -0.1809(2)
H25 H 0.4014 -0.3549 -0.1961
C26 C 0.3639(3) -0.4277(3) -0.13730(19)
H26 H 0.4064 -0.4397 -0.1170
Ag2F Ag 0.25664(4) -0.31211(3) -0.264353(14)
N8F N 0.2914(3) -0.1203(3) 0.30045(15)
O1 O 0.1050(2) 0.0712(2) 0.16923(12)
H1 H 0.0786 0.0796 0.2025
H2 H 0.0773 0.1026 0.1483
O2 O -0.0068(2) 0.0062(3) 0.05526(15)
O3 O 0.0471(3) 0.2605(2) 0.23064(15)
O4 O 0.0667(3) -0.1343(3) 0.23228(17)
O5 O 0.0714(3) -0.1359(3) 0.37065(19)
O6 O 0.3930(2) 0.0804(3) 0.62942(14)
O7 O 0.42354(18) -0.5084(2) 0.30346(12)
O8 O 0.45385(19) -0.3941(2) 0.26531(13)
O9 O 0.4334(3) -0.2737(2) 0.62557(15)
O10 O 0.4611(2) -0.1598(3) 0.59090(13)
C27 C 0.4425(6) -0.4215(7) 0.4003(5)
H27 H 0.4354 -0.4772 0.4019
C28 C 0.4501(16) -0.3844(10) 0.3520(6)
C29 C 0.4614(6) -0.3011(7) 0.3518(4)
H28 H 0.4672 -0.2745 0.3194
C30 C 0.4642(5) -0.2583(6) 0.3969(4)
H29 H 0.4737 -0.2029 0.3952
C31 C 0.4554(6) -0.2496(7) 0.4933(5)
H30 H 0.4637 -0.1940 0.4915
C32 C 0.4460(10) -0.2839(9) 0.5402(5)
C33 C 0.4367(6) -0.3687(6) 0.5414(4)
H31 H 0.4312 -0.3948 0.5740
C34 C 0.4357(5) -0.4123(6) 0.4968(4)
H32 H 0.4284 -0.4680 0.4987
C35 C 0.4453(14) -0.3760(10) 0.4482(5)
C36 C 0.4533(15) -0.2945(10) 0.4464(5)
C47 C 0.4421(3) -0.4372(4) 0.30456(19)
C48 C 0.4464(3) -0.2313(4) 0.5884(2)
C37? C 0.4523(7) -0.3341(9) 0.3720(4)
H33? H 0.4545 -0.2982 0.3435
C38? C 0.4474(19) -0.4106(10) 0.3630(8)
C39? C 0.4459(8) -0.4663(8) 0.4049(5)
H34? H 0.4441 -0.5218 0.3983
C40? C 0.4471(6) -0.4379(8) 0.4546(4)
H35? H 0.4467 -0.4750 0.4826
C41? C 0.4469(7) -0.3294(9) 0.5187(4)
H36? H 0.4433 -0.3654 0.5471
C42? C 0.4500(13) -0.2514(9) 0.5277(7)
C43? C 0.4544(7) -0.1973(9) 0.4870(4)
H37? H 0.4568 -0.1421 0.4943
C44? C 0.4554(6) -0.2226(7) 0.4370(4)
H38? H 0.4567 -0.1853 0.4092
C45? C 0.4545(15) -0.3030(11) 0.4265(5)
C46? C 0.4489(14) -0.3590(11) 0.4664(5)
loop_
_geom_bond_atom_site_label_1
_geom_bond_atom_site_label_2
_geom_bond_site_symmetry_1
_geom_bond_site_symmetry_2
Ag1 N2 1_555 1_555
Ag2 N6 1_555 1_555
O1 H1 1_555 1_555
H2 O1 1_555 1_555
O7 C47 1_555 1_555
O8 C47 1_555 1_555
O9 C48 1_555 1_555
O10 C48 1_555 1_555
N1 C1 1_555 1_555
N2 C7 1_555 1_555
N3 C10 1_555 1_555
N4 C11 1_555 1_555
N5 C14 1_555 1_555
N6 C20 1_555 1_555
N7 C23 1_555 1_555
N8 C24 1_555 1_555
C1 C2 1_555 1_555
C2 H3 1_555 1_555
C3 C2 1_555 1_555
H4 C3 1_555 1_555
C4 C3 1_555 1_555
C5 C4 1_555 1_555
H5 C5 1_555 1_555
C6 C1 1_555 1_555
H6 C6 1_555 1_555
C7 N1 1_555 1_555
H7 C7 1_555 1_555
C8 N2 1_555 1_555
H8 C8 1_555 1_555
C9 N1 1_555 1_555
H9 C9 1_555 1_555
C10 C4 1_555 1_555
H10 C10 1_555 1_555
H11 C10 1_555 1_555
C11 N3 1_555 1_555
H12 C11 1_555 1_555
C12 N4 1_555 1_555
H13 C12 1_555 1_555
C13 N3 1_555 1_555
H14 C13 1_555 1_555
C14 C15 1_555 1_555
C15 H15 1_555 1_555
C16 C15 1_555 1_555
H16 C16 1_555 1_555
C17 C16 1_555 1_555
C18 C17 1_555 1_555
H17 C18 1_555 1_555
C19 C14 1_555 1_555
H18 C19 1_555 1_555
C20 N5 1_555 1_555
H19 C20 1_555 1_555
C21 N6 1_555 1_555
H20 C21 1_555 1_555
C22 N5 1_555 1_555
H21 C22 1_555 1_555
C23 C17 1_555 1_555
H22 C23 1_555 1_555
H23 C23 1_555 1_555
C24 N7 1_555 1_555
H24 C24 1_555 1_555
C25 N8 1_555 1_555
H25 C25 1_555 1_555
C26 N7 1_555 1_555
H26 C26 1_555 1_555
C27 H27 1_555 1_555
C28 C27 1_555 1_555
C29 C28 1_555 1_555
H28 C29 1_555 1_555
C30 C29 1_555 1_555
H29 C30 1_555 1_555
C31 H30 1_555 1_555
C32 C31 1_555 1_555
C33 C32 1_555 1_555
H31 C33 1_555 1_555
C34 C33 1_555 1_555
H32 C34 1_555 1_555
C35 C27 1_555 1_555
C36 C30 1_555 1_555
C47 C28 1_555 1_555
C48 C32 1_555 1_555
Ag1C N4 1_555 1_555
Ag2F N8 1_555 1_555
N4C Ag1 1_555 1_555
N8F Ag2 1_555 1_555
C5 C6 1_555 1_555
C8 C9 1_555 1_555
C12 C13 1_555 1_555
C18 C19 1_555 1_555
C21 C22 1_555 1_555
C25 C26 1_555 1_555
C31 C36 1_555 1_555
C34 C35 1_555 1_555
C35 C36 1_555 1_555

#END
