
#######################################################################
#
#                 Cambridge Crystallographic Data Centre
#                                CCDC 
#
#######################################################################
#
# If this CIF has been generated from an entry in the Cambridge 
# Structural Database, then it will include bibliographic, chemical, 
# crystal, experimental, refinement or atomic coordinate data resulting 
# from the CCDC's data processing and validation procedures.
#
#######################################################################

data_FENYII
_symmetry_cell_setting           monoclinic
_symmetry_space_group_name_H-M   'P 21/c'
_symmetry_Int_Tables_number      14
_space_group_name_Hall           '-P 2ybc'
loop_
_symmetry_equiv_pos_site_id
_symmetry_equiv_pos_as_xyz
1 x,y,z
2 -x,1/2+y,1/2-z
3 -x,-y,-z
4 x,1/2-y,1/2+z
_cell_length_a                   11.1375(4)
_cell_length_b                   18.0442(5)
_cell_length_c                   12.7462(4)
_cell_angle_alpha                90
_cell_angle_beta                 112.496(4)
_cell_angle_gamma                90
_cell_volume                     2366.65
loop_
_atom_site_label
_atom_site_type_symbol
_atom_site_fract_x
_atom_site_fract_y
_atom_site_fract_z
Lu1 Lu 0.43282(2) 0.158832(10) 0.757267(17)
Lu2 Lu 0.46435(2) 0.335331(10) 0.604832(17)
O1 O 0.2846(4) 0.11533(17) 0.5774(3)
O2 O 0.5937(3) 0.24307(17) 0.5939(3)
C1 C 0.2676(5) 0.1786(3) 0.5350(4)
O3 O 0.3391(3) 0.23224(17) 0.5903(3)
O4 O 0.7236(4) -0.11230(17) 0.8840(3)
O5 O 0.5979(4) -0.04033(17) 0.9372(3)
C2 C 0.6978(5) -0.0493(2) 0.9138(4)
C3 C 0.6107(5) 0.1742(3) 0.6087(4)
C4 C 0.1593(5) 0.1926(3) 0.4203(4)
C5 C 0.8360(6) 0.1400(3) 0.6490(5)
H1 H 0.8616 0.1910 0.6636
H2 H 0.8956 0.1145 0.6235
H3 H 0.8369 0.1173 0.7174
C6 C 0.7859(5) 0.0156(2) 0.9204(4)
H4 H 0.7509 0.0431 0.8498
H5 H 0.8707 -0.0030 0.9284
C7 C 0.8944(5) 0.1325(3) 1.0177(5)
H6 H 0.8590 0.1573 0.9456
H7 H 0.9783 0.1126 1.0286
H8 H 0.9028 0.1672 1.0772
C8 C 0.8026(5) 0.0689(2) 1.0202(4)
C9 C 0.6586(6) 0.0548(2) 0.5272(4)
H9 H 0.6625 0.0291 0.5944
H10 H 0.7172 0.0318 0.4980
H11 H 0.5717 0.0526 0.4710
C10 C 0.6977(5) 0.1356(3) 0.5563(4)
C11 C 0.8590(5) 0.0279(3) 1.1335(4)
H12 H 0.8717 0.0622 1.1945
H13 H 0.9409 0.0062 1.1419
H14 H 0.8000 -0.0104 1.1354
C12 C 0.0312(6) 0.1691(3) 0.4309(5)
H15 H 0.0367 0.1180 0.4532
H16 H -0.0396 0.1754 0.3589
H17 H 0.0167 0.1992 0.4870
C13 C 0.1856(6) 0.1451(3) 0.3309(4)
H18 H 0.2733 0.1530 0.3370
H19 H 0.1264 0.1591 0.2563
H20 H 0.1734 0.0937 0.3435
O6 O 0.5668(4) 0.13495(18) 0.6679(3)
C14 C 0.6730(5) 0.1045(2) 1.0024(4)
O7 O 0.6105(4) 0.13214(17) 0.9041(3)
O8 O 0.6340(3) 0.10833(17) 1.0820(3)
C15 C 0.5921(6) 0.1701(2) 0.3398(4)
C16 C 0.7007(5) 0.1807(3) 0.4541(4)
H21 H 0.7032 0.2328 0.4735
H22 H 0.7817 0.1694 0.4457
O9 O 0.5850(4) 0.11160(17) 0.2836(3)
O10 O 0.5115(3) 0.22273(17) 0.2917(3)
O11 O 0.3625(4) 0.32335(17) 0.4151(3)
C17 C 0.2485(5) 0.3035(2) 0.3459(4)
C18 C 0.1474(5) 0.2761(3) 0.3884(4)
H23 H 0.0619 0.2849 0.3302
H24 H 0.1539 0.3048 0.4547
O12 O 0.2233(4) 0.3061(2) 0.2420(3)
O13 O 0.3976(4) 0.03869(17) 0.7855(3)
H25 H 0.370(5) 0.0062(19) 0.734(3)
H26 H 0.444(5) 0.017(2) 0.847(2)
Lu1C Lu 0.43282(2) 0.341168(10) 0.257267(17)
Lu2A Lu 0.53565(2) -0.164669(10) 0.895168(17)
Lu2C Lu 0.46435(2) 0.164669(10) 1.104832(17)
Lu2C_2 Lu 0.46435(2) 0.164669(10) 0.104832(17)
O4A O 0.2764(4) 0.38770(17) 0.6160(3)
O5A O 0.4021(4) 0.45967(17) 0.5628(3)
O8C O 0.6340(3) 0.39167(17) 0.5820(3)
O9C O 0.5850(4) 0.38840(17) 0.7836(3)
O10C O 0.5115(3) 0.27727(17) 0.7917(3)
O11C O 0.3625(4) 0.17665(17) 0.9151(3)
O12C O 0.2233(4) 0.1939(2) 0.7420(3)
loop_
_geom_bond_atom_site_label_1
_geom_bond_atom_site_label_2
_geom_bond_site_symmetry_1
_geom_bond_site_symmetry_2
Lu1 O1 1_555 1_555
Lu2 O2 1_555 1_555
O1 C1 1_555 1_555
O2 C3 1_555 1_555
C1 O3 1_555 1_555
O3 Lu1 1_555 1_555
O4 C2 1_555 1_555
O5 C2 1_555 1_555
C2 C6 1_555 1_555
C3 C10 1_555 1_555
C4 C1 1_555 1_555
C5 H1 1_555 1_555
H2 C5 1_555 1_555
H3 C5 1_555 1_555
C6 H4 1_555 1_555
H5 C6 1_555 1_555
C7 H6 1_555 1_555
H7 C7 1_555 1_555
H8 C7 1_555 1_555
C8 C6 1_555 1_555
C9 H9 1_555 1_555
H10 C9 1_555 1_555
H11 C9 1_555 1_555
C10 C5 1_555 1_555
C11 C8 1_555 1_555
H12 C11 1_555 1_555
H13 C11 1_555 1_555
H14 C11 1_555 1_555
C12 C4 1_555 1_555
H15 C12 1_555 1_555
H16 C12 1_555 1_555
H17 C12 1_555 1_555
C13 C4 1_555 1_555
H18 C13 1_555 1_555
H19 C13 1_555 1_555
H20 C13 1_555 1_555
O6 Lu1 1_555 1_555
C14 C8 1_555 1_555
O7 Lu1 1_555 1_555
O8 C14 1_555 1_555
C15 C16 1_555 1_555
C16 C10 1_555 1_555
H21 C16 1_555 1_555
H22 C16 1_555 1_555
O9 C15 1_555 1_555
O10 C15 1_555 1_555
O11 Lu2 1_555 1_555
C17 O11 1_555 1_555
C18 C4 1_555 1_555
H23 C18 1_555 1_555
H24 C18 1_555 1_555
O12 C17 1_555 1_555
O13 Lu1 1_555 1_555
H25 O13 1_555 1_555
H26 O13 1_555 1_555
Lu1C O10 1_555 1_555
Lu2A O4 1_555 1_555
Lu2C O8 1_555 1_555
Lu2C_2 O9 1_555 1_555
O4A Lu2 1_555 1_555
O5A Lu2 1_555 1_555
O8C Lu2 1_555 1_555
O9C Lu2 1_555 1_555
O10C Lu1 1_555 1_555
O11C Lu1 1_555 1_555
O12C Lu1 1_555 1_555
Lu2 O3 1_555 1_555
Lu2 O10C 1_555 1_555
O5 Lu2A 1_555 1_555
C3 O6 1_555 1_555
C7 C8 1_555 1_555
C9 C10 1_555 1_555
C14 O7 1_555 1_555
O10 Lu2C_2 1_555 1_555
O11 Lu1C 1_555 1_555
C17 C18 1_555 1_555
O12 Lu1C 1_555 1_555
Lu2C O11C 1_555 1_555

#END
