
#######################################################################
#
#                 Cambridge Crystallographic Data Centre
#                                CCDC 
#
#######################################################################
#
# If this CIF has been generated from an entry in the Cambridge 
# Structural Database, then it will include bibliographic, chemical, 
# crystal, experimental, refinement or atomic coordinate data resulting 
# from the CCDC's data processing and validation procedures.
#
#######################################################################

data_FEPBEH
_symmetry_cell_setting           monoclinic
_symmetry_space_group_name_H-M   'C 2/c'
_symmetry_Int_Tables_number      15
_space_group_name_Hall           '-C 2yn'
loop_
_symmetry_equiv_pos_site_id
_symmetry_equiv_pos_as_xyz
1 x,y,z
2 1/2+x,1/2+y,z
3 -x,y,1/2-z
4 1/2-x,1/2+y,1/2-z
5 -x,-y,-z
6 1/2-x,1/2-y,-z
7 x,-y,1/2+z
8 1/2+x,1/2-y,1/2+z
_cell_length_a                   16.698(2)
_cell_length_b                   5.081(1)
_cell_length_c                   25.582(2)
_cell_angle_alpha                90
_cell_angle_beta                 96.39(2)
_cell_angle_gamma                90
_cell_volume                     2156.96
loop_
_atom_site_label
_atom_site_type_symbol
_atom_site_fract_x
_atom_site_fract_y
_atom_site_fract_z
Cu1 Cu 0.25000 0.25000 0.50000
P1 P 0.25040(7) 0.7500(3) 0.57689(5)
O1 O 0.2605(2) 0.4636(7) 0.5619(1)
O2 O 0.2851(2) -0.0483(7) 0.5423(1)
C1 C 0.3010(3) 0.785(1) 0.6427(2)
C2 C 0.3555(4) 0.986(2) 0.6539(3)
C3 C 0.3976(4) 1.005(2) 0.7049(3)
C4 C 0.3825(4) 0.835(2) 0.7437(3)
C5 C 0.3263(6) 0.635(2) 0.7327(3)
C6 C 0.2850(6) 0.611(2) 0.6817(3)
C7 C 0.1452(3) 0.819(1) 0.5806(2)
O1E O 0.2395(2) 0.0364(7) 0.4381(1)
O2E O 0.2149(2) 0.5483(7) 0.4577(1)
O2_2 O 0.2851(2) 0.9517(7) 0.5423(1)
P1_2 P 0.25040(7) -0.2500(3) 0.57689(5)
P1E P 0.24960(7) -0.2500(3) 0.42311(5)
P1E_2 P 0.24960(7) 0.7500(3) 0.42311(5)
O2E_2 O 0.2149(2) -0.4517(7) 0.4577(1)
C1E C 0.1990(3) -0.285(1) 0.3573(2)
C7E C 0.3548(3) -0.319(1) 0.4194(2)
C2E C 0.1445(4) -0.486(2) 0.3461(3)
C6E C 0.2150(6) -0.111(2) 0.3183(3)
C3E C 0.1024(4) -0.505(2) 0.2951(3)
C5E C 0.1737(6) -0.135(2) 0.2673(3)
C4E C 0.1175(4) -0.335(2) 0.2563(3)
loop_
_geom_bond_atom_site_label_1
_geom_bond_atom_site_label_2
_geom_bond_site_symmetry_1
_geom_bond_site_symmetry_2
Cu1 O1 1_555 1_555
P1 O1 1_555 1_555
O2 Cu1 1_555 1_555
C1 P1 1_555 1_555
C2 C1 1_555 1_555
C3 C2 1_555 1_555
C4 C3 1_555 1_555
C5 C4 1_555 1_555
C6 C1 1_555 1_555
C7 P1 1_555 1_555
O1E Cu1 1_555 1_555
O2E Cu1 1_555 1_555
O2_2 P1 1_555 1_555
P1_2 O2 1_555 1_555
P1E O1E 1_555 1_555
P1E_2 O2E 1_555 1_555
O2E_2 P1E 1_555 1_555
C1E P1E 1_555 1_555
C7E P1E 1_555 1_555
C2E C1E 1_555 1_555
C6E C1E 1_555 1_555
C3E C2E 1_555 1_555
C5E C6E 1_555 1_555
C4E C3E 1_555 1_555
C5 C6 1_555 1_555
C5E C4E 1_555 1_555

#END
