
#######################################################################
#
#                 Cambridge Crystallographic Data Centre
#                                CCDC 
#
#######################################################################
#
# If this CIF has been generated from an entry in the Cambridge 
# Structural Database, then it will include bibliographic, chemical, 
# crystal, experimental, refinement or atomic coordinate data resulting 
# from the CCDC's data processing and validation procedures.
#
#######################################################################

data_FEPCEI
_symmetry_cell_setting           monoclinic
_symmetry_space_group_name_H-M   'P 21/n'
_symmetry_Int_Tables_number      14
_space_group_name_Hall           '-P 2yn'
loop_
_symmetry_equiv_pos_site_id
_symmetry_equiv_pos_as_xyz
1 x,y,z
2 1/2-x,1/2+y,1/2-z
3 -x,-y,-z
4 1/2+x,1/2-y,1/2+z
_cell_length_a                   11.766(12)
_cell_length_b                   9.654(4)
_cell_length_c                   15.018(7)
_cell_angle_alpha                90
_cell_angle_beta                 90.56(2)
_cell_angle_gamma                90
_cell_volume                     1705.8
loop_
_atom_site_label
_atom_site_type_symbol
_atom_site_fract_x
_atom_site_fract_y
_atom_site_fract_z
Cu1 Cu 0.5202(1) 0.3786(1) -0.3512(1)
Cl1 Cl 0.4726(1) 0.2757(2) -0.2115(1)
S1 S 0.8342(1) 0.0371(2) -0.1644(1)
C1 C 0.7900(5) 0.0404(7) -0.2706(4)
N1 N 0.6988(4) 0.1213(5) -0.2983(3)
S2 S 0.5860(1) 0.1971(2) -0.4440(1)
C2 C 0.6804(5) 0.1122(6) -0.3867(4)
C3 C 0.7654(5) 0.0078(7) -0.4222(4)
C4 C 0.8411(7) 0.0712(11) -0.4919(5)
C5 C 0.7060(8) -0.1202(9) -0.4571(7)
N2 N 0.8289(5) -0.0249(6) -0.3407(3)
S3 S 0.3731(1) 0.4764(2) -0.4324(1)
C6 C 0.2544(5) 0.4265(6) -0.3836(4)
N3 N 0.1463(4) 0.4475(6) -0.4180(3)
C7 C 0.0640(5) 0.3958(6) -0.3659(4)
S4 S -0.0725(1) 0.4021(2) -0.3819(1)
C8 C 0.1233(5) 0.3281(7) -0.2873(4)
C9 C 0.0862(8) 0.3918(14) -0.2006(6)
C10 C 0.1029(7) 0.1724(8) -0.2894(7)
N4 N 0.2410(5) 0.3609(6) -0.3079(3)
H1 H 0.8867(75) -0.0605(91) -0.3521(53)
H2 H 0.8865(76) 0.1411(96) -0.4723(58)
H3 H 0.8939(76) 0.0071(95) -0.5064(56)
H4 H 0.8047(77) 0.0920(3) -0.5428(64)
H5 H 0.6620(77) -0.1452(92) -0.4246(61)
H6 H 0.7522(68) -0.1876(95) -0.4704(51)
H7 H 0.6641(81) -0.0821(96) -0.5069(64)
H8 H 0.6695(73) 0.1562(87) -0.2624(55)
H9 H 0.2931(74) 0.3273(96) -0.2849(58)
H10 H 0.0034(72) 0.3669(82) -0.1819(56)
H11 H 0.1146(73) 0.3499(92) -0.1525(64)
H12 H 0.0972(77) 0.4772(99) -0.2074(61)
H13 H 0.0266(74) 0.1534(80) -0.2780(52)
H14 H 0.1265(74) 0.1414(85) -0.3538(59)
H15 H 0.1254(73) 0.1407(87) -0.2458(61)
H16 H 0.1301(67) 0.4885(91) -0.4652(60)
S1A S 0.6658(1) 0.5371(2) -0.3356(1)
Cu1A Cu 0.9798(1) -0.1214(1) -0.1488(1)
loop_
_geom_bond_atom_site_label_1
_geom_bond_atom_site_label_2
_geom_bond_site_symmetry_1
_geom_bond_site_symmetry_2
Cu1 Cl1 1_555 1_555
S1 C1 1_555 1_555
C1 N1 1_555 1_555
N1 C2 1_555 1_555
S2 Cu1 1_555 1_555
C2 S2 1_555 1_555
C3 C2 1_555 1_555
C4 C3 1_555 1_555
C5 C3 1_555 1_555
N2 C1 1_555 1_555
S3 Cu1 1_555 1_555
C6 S3 1_555 1_555
N3 C6 1_555 1_555
C7 N3 1_555 1_555
S4 C7 1_555 1_555
C8 C7 1_555 1_555
C9 C8 1_555 1_555
C10 C8 1_555 1_555
N4 C6 1_555 1_555
H1 N2 1_555 1_555
H2 C4 1_555 1_555
H3 C4 1_555 1_555
H4 C4 1_555 1_555
H5 C5 1_555 1_555
H6 C5 1_555 1_555
H7 C5 1_555 1_555
H8 N1 1_555 1_555
H9 N4 1_555 1_555
H10 C9 1_555 1_555
H11 C9 1_555 1_555
H12 C9 1_555 1_555
H13 C10 1_555 1_555
H14 C10 1_555 1_555
H15 C10 1_555 1_555
H16 N3 1_555 1_555
S1A Cu1 1_555 1_555
Cu1A S1 1_555 1_555
C3 N2 1_555 1_555
C8 N4 1_555 1_555

#END
