
#######################################################################
#
#                 Cambridge Crystallographic Data Centre
#                                CCDC 
#
#######################################################################
#
# If this CIF has been generated from an entry in the Cambridge 
# Structural Database, then it will include bibliographic, chemical, 
# crystal, experimental, refinement or atomic coordinate data resulting 
# from the CCDC's data processing and validation procedures.
#
#######################################################################

data_FEPCIO
_symmetry_cell_setting           triclinic
_symmetry_space_group_name_H-M   'P -1'
_symmetry_Int_Tables_number      2
_space_group_name_Hall           '-P 1'
loop_
_symmetry_equiv_pos_site_id
_symmetry_equiv_pos_as_xyz
1 x,y,z
2 -x,-y,-z
_cell_length_a                   10.2591(8)
_cell_length_b                   10.2823(8)
_cell_length_c                   11.0872(15)
_cell_angle_alpha                96.288(5)
_cell_angle_beta                 103.286(5)
_cell_angle_gamma                116.555(4)
_cell_volume                     987.445
loop_
_atom_site_label
_atom_site_type_symbol
_atom_site_fract_x
_atom_site_fract_y
_atom_site_fract_z
Ag1 Ag 0.27293(4) 0.17697(4) -0.56292(4)
Ag2 Ag 1.20022(4) 0.81579(4) -0.47316(3)
N1 N 0.2916(4) 0.3198(4) -0.7103(4)
C1 C 0.4344(5) 0.4108(5) -0.7136(4)
C2 C 0.4614(5) 0.5079(5) -0.7942(4)
H1 H 0.5607 0.5705 -0.7941
C3 C 0.3373(5) 0.5094(5) -0.8745(4)
H2 H 0.3520 0.5732 -0.9294
C4 C 0.1914(5) 0.4149(5) -0.8724(4)
H3 H 0.1064 0.4135 -0.9263
C5 C 0.1741(5) 0.3229(5) -0.7891(5)
H4 H 0.0756 0.2599 -0.7878
C6 C 0.5650(5) 0.4065(4) -0.6264(4)
N2 N 0.5409(4) 0.3554(4) -0.5279(4)
N3 N 0.9833(4) 0.6142(4) -0.5993(4)
C7 C 0.8491(5) 0.5720(5) -0.5761(4)
H5 H 0.8484 0.6237 -0.5021
C8 C 0.7117(5) 0.4549(5) -0.6578(4)
C9 C 0.7110(5) 0.3787(5) -0.7704(4)
H6 H 0.6201 0.3007 -0.8277
C10 C 0.8484(5) 0.4221(5) -0.7944(5)
H7 H 0.8520 0.3726 -0.8680
C11 C 0.9809(5) 0.5400(5) -0.7082(5)
H8 H 1.0728 0.5694 -0.7263
S1 S 0.11145(12) 0.05908(12) -0.32113(10)
O1 O 0.2342(4) 0.1600(4) -0.3637(3)
O2 O 0.0953(4) -0.0881(4) -0.3255(3)
O3 O -0.0312(3) 0.0600(3) -0.3667(3)
C12 C 0.1792(6) 0.1471(6) -0.1503(5)
F1 F 0.1904(4) 0.2822(3) -0.1352(3)
F2 F 0.0816(4) 0.0669(4) -0.0927(3)
F3 F 0.3156(4) 0.1639(4) -0.0939(3)
S2 S 0.42406(12) -0.05043(11) -0.69750(10)
O4 O 0.3456(3) -0.0291(3) -0.6110(3)
O5 O 0.4303(4) -0.1885(3) -0.7072(3)
O6 O 0.5639(4) 0.0808(3) -0.6900(3)
C13 C 0.2987(6) -0.0785(5) -0.8553(5)
F4 F 0.1616(4) -0.1991(4) -0.8798(4)
F5 F 0.2781(4) 0.0397(4) -0.8623(3)
F6 F 0.3563(4) -0.0988(4) -0.9465(3)
O7 O 0.6676(3) 0.3551(3) -0.4502(3)
H9 H 0.626(7) 0.296(7) -0.408(6)
Ag1A Ag -0.27293(4) -0.17697(4) -0.43708(4)
Ag2_2 Ag 0.20022(4) -0.18421(4) -0.47316(3)
Ag2A Ag 0.79978(4) 0.18421(4) -0.52684(3)
O2_2 O 1.0953(4) 0.9119(4) -0.3255(3)
O3A O 0.0312(3) -0.0600(3) -0.6333(3)
O4_2 O 1.3456(3) 0.9709(3) -0.6110(3)
O6A O 1.4361(4) 0.9192(3) -0.3100(3)
loop_
_geom_bond_atom_site_label_1
_geom_bond_atom_site_label_2
_geom_bond_site_symmetry_1
_geom_bond_site_symmetry_2
Ag1 N1 1_555 1_555
Ag2 N3 1_555 1_555
N1 C1 1_555 1_555
C1 C2 1_555 1_555
C2 H1 1_555 1_555
C3 C2 1_555 1_555
H2 C3 1_555 1_555
C4 C3 1_555 1_555
H3 C4 1_555 1_555
C5 N1 1_555 1_555
H4 C5 1_555 1_555
C6 C1 1_555 1_555
N2 Ag1 1_555 1_555
N3 C7 1_555 1_555
C7 H5 1_555 1_555
C8 C6 1_555 1_555
C9 C8 1_555 1_555
H6 C9 1_555 1_555
C10 C9 1_555 1_555
H7 C10 1_555 1_555
C11 N3 1_555 1_555
H8 C11 1_555 1_555
S1 O1 1_555 1_555
O1 Ag1 1_555 1_555
O2 S1 1_555 1_555
O3 S1 1_555 1_555
C12 S1 1_555 1_555
F1 C12 1_555 1_555
F2 C12 1_555 1_555
F3 C12 1_555 1_555
S2 O4 1_555 1_555
O4 Ag1 1_555 1_555
O5 S2 1_555 1_555
O6 S2 1_555 1_555
C13 S2 1_555 1_555
F4 C13 1_555 1_555
F5 C13 1_555 1_555
F6 C13 1_555 1_555
O7 N2 1_555 1_555
H9 O7 1_555 1_555
Ag1A O3 1_555 1_555
Ag2_2 O2 1_555 1_555
Ag2A O6 1_555 1_555
O2_2 Ag2 1_555 1_555
O3A Ag1 1_555 1_555
O4_2 Ag2 1_555 1_555
O6A Ag2 1_555 1_555
C4 C5 1_555 1_555
C6 N2 1_555 1_555
C7 C8 1_555 1_555
C10 C11 1_555 1_555
O4 Ag2_2 1_555 1_555

#END
