
#######################################################################
#
#                 Cambridge Crystallographic Data Centre
#                                CCDC 
#
#######################################################################
#
# If this CIF has been generated from an entry in the Cambridge 
# Structural Database, then it will include bibliographic, chemical, 
# crystal, experimental, refinement or atomic coordinate data resulting 
# from the CCDC's data processing and validation procedures.
#
#######################################################################

data_FEPCEK
_symmetry_cell_setting           monoclinic
_symmetry_space_group_name_H-M   'P 21/n'
_symmetry_Int_Tables_number      14
_space_group_name_Hall           '-P 2yn'
loop_
_symmetry_equiv_pos_site_id
_symmetry_equiv_pos_as_xyz
1 x,y,z
2 1/2-x,1/2+y,1/2-z
3 -x,-y,-z
4 1/2+x,1/2-y,1/2+z
_cell_length_a                   12.0134(6)
_cell_length_b                   9.9549(5)
_cell_length_c                   13.2918(7)
_cell_angle_alpha                90
_cell_angle_beta                 90.9902(14)
_cell_angle_gamma                90
_cell_volume                     1589.36
loop_
_atom_site_label
_atom_site_type_symbol
_atom_site_fract_x
_atom_site_fract_y
_atom_site_fract_z
C1 C 0.4684(5) 0.0919(7) 0.2035(4)
H1 H 0.5034 0.0101 0.2159
C2 C 0.4042(5) 0.1462(7) 0.2788(4)
H2 H 0.3963 0.1015 0.3397
C3 C 0.3518(4) 0.2687(7) 0.2619(4)
C4 C 0.3638(5) 0.3290(7) 0.1691(4)
H3 H 0.3284 0.4100 0.1547
C5 C 0.4300(5) 0.2666(7) 0.0971(5)
H4 H 0.4376 0.3077 0.0348
C6 C 0.2866(5) 0.3356(7) 0.3424(4)
C7 C 0.3321(4) 0.4586(7) 0.3908(4)
C8 C 0.4362(5) 0.5087(7) 0.3649(4)
H5 H 0.4792 0.4641 0.3179
C9 C 0.4743(5) 0.6244(7) 0.4094(4)
H6 H 0.5428 0.6603 0.3921
C10 C 0.4097(5) 0.6870(7) 0.4802(5)
H7 H 0.4337 0.7661 0.5108
C11 C 0.3084(5) 0.6302(7) 0.5051(4)
H8 H 0.2660 0.6719 0.5539
C12 C 0.8117(5) 0.4680(7) 0.1020(5)
N1 N 0.4829(4) 0.1496(6) 0.1144(3)
N2 N 0.2691(4) 0.5184(6) 0.4621(3)
N3 N 0.1911(4) 0.2928(5) 0.3694(4)
O1 O 0.1573(3) 0.1780(5) 0.3171(3)
H9 H 0.089(6) 0.161(7) 0.346(5)
O2 O 0.7606(3) 0.2222(5) 0.1374(3)
O3 O 0.6438(3) 0.3995(5) 0.2080(3)
O4 O 0.8306(3) 0.3589(4) 0.2769(3)
F1 F 0.9166(3) 0.4383(4) 0.0784(3)
F2 F 0.7518(3) 0.4734(5) 0.0170(3)
F3 F 0.8137(3) 0.5930(4) 0.1401(3)
S1 S 0.75453(11) 0.34842(17) 0.19079(11)
Ag1 Ag 0.61649(4) 0.08797(5) 0.01627(3)
N2C N 0.7691(4) -0.0184(6) -0.0379(3)
N3C N 0.6911(4) 0.2072(5) -0.1306(4)
Ag1C Ag 0.11649(4) 0.41203(5) 0.51627(3)
O5 O 0.0527(3) -0.1439(5) 0.6413(3)
H10 H 0.083(6) -0.056(8) 0.658(5)
H11 H 0.090(6) -0.196(8) 0.670(5)
loop_
_geom_bond_atom_site_label_1
_geom_bond_atom_site_label_2
_geom_bond_site_symmetry_1
_geom_bond_site_symmetry_2
C1 H1 1_555 1_555
C2 C1 1_555 1_555
H2 C2 1_555 1_555
C3 C2 1_555 1_555
C4 C3 1_555 1_555
H3 C4 1_555 1_555
C5 C4 1_555 1_555
H4 C5 1_555 1_555
C6 C3 1_555 1_555
C7 C6 1_555 1_555
C8 C7 1_555 1_555
H5 C8 1_555 1_555
C9 C8 1_555 1_555
H6 C9 1_555 1_555
C10 C9 1_555 1_555
H7 C10 1_555 1_555
C11 C10 1_555 1_555
H8 C11 1_555 1_555
C12 F1 1_555 1_555
N1 C1 1_555 1_555
N2 C7 1_555 1_555
N3 C6 1_555 1_555
O1 N3 1_555 1_555
H9 O1 1_555 1_555
O2 S1 1_555 1_555
O3 S1 1_555 1_555
O4 S1 1_555 1_555
F2 C12 1_555 1_555
F3 C12 1_555 1_555
S1 C12 1_555 1_555
Ag1 N1 1_555 1_555
O5 H10 1_555 1_555
H11 O5 1_555 1_555
N2C Ag1 1_555 1_555
N3C Ag1 1_555 1_555
Ag1C N2 1_555 1_555
C5 N1 1_555 1_555
C11 N2 1_555 1_555
N3 Ag1C 1_555 1_555
O2 Ag1 1_555 1_555

#END
