
#######################################################################
#
#                 Cambridge Crystallographic Data Centre
#                                CCDC 
#
#######################################################################
#
# If this CIF has been generated from an entry in the Cambridge 
# Structural Database, then it will include bibliographic, chemical, 
# crystal, experimental, refinement or atomic coordinate data resulting 
# from the CCDC's data processing and validation procedures.
#
#######################################################################

data_FEPKOC
_symmetry_cell_setting           monoclinic
_symmetry_space_group_name_H-M   'C 2/c'
_symmetry_Int_Tables_number      15
_space_group_name_Hall           '-C 2yn'
loop_
_symmetry_equiv_pos_site_id
_symmetry_equiv_pos_as_xyz
1 x,y,z
2 -x,y,1/2-z
3 1/2+x,1/2+y,z
4 1/2-x,1/2+y,1/2-z
5 -x,-y,-z
6 x,-y,1/2+z
7 1/2-x,1/2-y,-z
8 1/2+x,1/2-y,1/2+z
_cell_length_a                   23.8588(12)
_cell_length_b                   18.6112(9)
_cell_length_c                   8.4514(5)
_cell_angle_alpha                90
_cell_angle_beta                 100.598(3)
_cell_angle_gamma                90
_cell_volume                     3688.75
loop_
_atom_site_label
_atom_site_type_symbol
_atom_site_fract_x
_atom_site_fract_y
_atom_site_fract_z
Pd1 Pd 0.0000 0.0000 1.0000
Zn1 Zn 0.2500 0.2500 0.5000
N1 N 0.05963(13) 0.04446(16) 0.8957(3)
N2 N 0.3226(2) 0.2448(2) 0.6831(5)
N3 N 0.2870(2) 0.1645(2) 0.3989(5)
O1 O 0.03324(10) -0.09024(13) 0.9313(3)
O2 O 0.09740(13) -0.12988(15) 0.7916(4)
O3 O 0.19746(17) 0.1794(2) 0.6343(4)
O4 O 0.22376(18) 0.0652(2) 0.6093(5)
C1 C 0.09167(18) -0.00432(17) 0.8342(5)
C2 C 0.13577(17) 0.0159(2) 0.7571(5)
H1 H 0.1585 -0.0193 0.7175
C3 C 0.14617(16) 0.0891(2) 0.7388(5)
C4 C 0.11179(19) 0.1381(2) 0.7986(5)
H2 H 0.1171 0.1881 0.7843
C5 C 0.07011(16) 0.1149(2) 0.8783(4)
H3 H 0.0480 0.1494 0.9226
C6 C 0.07473(14) -0.0812(2) 0.8519(4)
C7 C 0.19352(19) 0.1125(3) 0.6515(5)
C8 C 0.3506(3) 0.1755(3) 0.6630(6)
H4 H 0.3313 0.1363 0.7110
H5 H 0.3910 0.1772 0.7182
C9 C 0.3473(3) 0.1619(3) 0.4820(7)
H6 H 0.3696 0.1989 0.4365
H7 H 0.3637 0.1143 0.4655
C10 C 0.2804(3) 0.1673(3) 0.2199(6)
H8 H 0.2973 0.1235 0.1817
H9 H 0.3017 0.2093 0.1895
C11 C 0.2190(3) 0.1730(3) 0.1382(6)
H10 H 0.1975 0.1345 0.1817
H11 H 0.2170 0.1628 0.0224
C12 C 0.1880(3) 0.2438(3) 0.1520(6)
H12 H 0.2113 0.2839 0.1223
H13 H 0.1512 0.2436 0.0756
H14 H 0.350(2) 0.277(3) 0.672(6)
H15 H 0.278(3) 0.1231(18) 0.413(7)
Zn1B Zn -0.2500 -0.2500 1.5000
N1D N -0.05963(13) -0.04446(16) 1.1043(3)
N2F N 0.1774(2) 0.2552(2) 0.3169(5)
N3F N 0.2130(2) 0.3355(2) 0.6011(5)
O1D O -0.03324(10) 0.09024(13) 1.0687(3)
O2D O -0.09740(13) 0.12988(15) 1.2084(4)
O3D O -0.19746(17) -0.1794(2) 1.3657(4)
O3F O 0.30254(17) 0.3206(2) 0.3657(4)
O4D O -0.22376(18) -0.0652(2) 1.3907(5)
C1D C -0.09167(18) 0.00432(17) 1.1658(5)
C2D C -0.13577(17) -0.0159(2) 1.2429(5)
H1D H -0.1585 0.0193 1.2825
C3D C -0.14617(16) -0.0891(2) 1.2612(5)
C4D C -0.11179(19) -0.1381(2) 1.2014(5)
H2D H -0.1171 -0.1881 1.2157
C5D C -0.07011(16) -0.1149(2) 1.1217(4)
H3D H -0.0480 -0.1494 1.0774
C6D C -0.07473(14) 0.0812(2) 1.1481(4)
C7D C -0.19352(19) -0.1125(3) 1.3485(5)
C8F C 0.1494(3) 0.3245(3) 0.3370(6)
H4F H 0.1687 0.3637 0.2890
H5F H 0.1090 0.3228 0.2818
C9F C 0.1527(3) 0.3381(3) 0.5180(7)
H6F H 0.1304 0.3011 0.5635
H7F H 0.1363 0.3857 0.5345
C10F C 0.2196(3) 0.3327(3) 0.7801(6)
H8F H 0.2027 0.3765 0.8183
H9F H 0.1983 0.2907 0.8105
C11F C 0.2810(3) 0.3270(3) 0.8618(6)
H10F H 0.3025 0.3655 0.8183
H11F H 0.2830 0.3372 0.9776
C12F C 0.3120(3) 0.2562(3) 0.8480(6)
H12F H 0.2887 0.2161 0.8777
H13F H 0.3488 0.2564 0.9244
H14F H 0.150(2) 0.223(3) 0.328(6)
H15F H 0.222(3) 0.3769(18) 0.587(7)
loop_
_geom_bond_atom_site_label_1
_geom_bond_atom_site_label_2
_geom_bond_site_symmetry_1
_geom_bond_site_symmetry_2
Pd1 N1 1_555 1_555
Zn1 N2 1_555 1_555
N1 C1 1_555 1_555
N2 C8 1_555 1_555
N3 Zn1 1_555 1_555
O1 Pd1 1_555 1_555
O2 C6 1_555 1_555
O3 Zn1 1_555 1_555
O4 C7 1_555 1_555
C1 C2 1_555 1_555
C2 H1 1_555 1_555
C3 C2 1_555 1_555
C4 C3 1_555 1_555
H2 C4 1_555 1_555
C5 N1 1_555 1_555
H3 C5 1_555 1_555
C6 O1 1_555 1_555
C7 O3 1_555 1_555
C8 H4 1_555 1_555
H5 C8 1_555 1_555
C9 N3 1_555 1_555
H6 C9 1_555 1_555
H7 C9 1_555 1_555
C10 N3 1_555 1_555
H8 C10 1_555 1_555
H9 C10 1_555 1_555
C11 C10 1_555 1_555
H10 C11 1_555 1_555
H11 C11 1_555 1_555
C12 C11 1_555 1_555
H12 C12 1_555 1_555
H13 C12 1_555 1_555
H14 N2 1_555 1_555
H15 N3 1_555 1_555
Zn1B O3D 1_555 1_555
N1D Pd1 1_555 1_555
N2F Zn1 1_555 1_555
N3F Zn1 1_555 1_555
O1D Pd1 1_555 1_555
O2D C6D 1_555 1_555
O3D C7D 1_555 1_555
O3F Zn1 1_555 1_555
O4D C7D 1_555 1_555
C1D N1D 1_555 1_555
C2D C1D 1_555 1_555
H1D C2D 1_555 1_555
C3D C2D 1_555 1_555
C4D C3D 1_555 1_555
H2D C4D 1_555 1_555
C5D N1D 1_555 1_555
H3D C5D 1_555 1_555
C6D O1D 1_555 1_555
C7D C3D 1_555 1_555
C8F N2F 1_555 1_555
H4F C8F 1_555 1_555
H5F C8F 1_555 1_555
C9F N3F 1_555 1_555
H6F C9F 1_555 1_555
H7F C9F 1_555 1_555
C10F N3F 1_555 1_555
H8F C10F 1_555 1_555
H9F C10F 1_555 1_555
C11F C10F 1_555 1_555
H10F C11F 1_555 1_555
H11F C11F 1_555 1_555
C12F N2 1_555 1_555
H12F C12F 1_555 1_555
H13F C12F 1_555 1_555
H14F N2F 1_555 1_555
H15F N3F 1_555 1_555
C1 C6 1_555 1_555
C3 C7 1_555 1_555
C4 C5 1_555 1_555
C8 C9 1_555 1_555
C12 N2F 1_555 1_555
C1D C6D 1_555 1_555
C4D C5D 1_555 1_555
C8F C9F 1_555 1_555
C11F C12F 1_555 1_555

#END
