
#######################################################################
#
#                 Cambridge Crystallographic Data Centre
#                                CCDC 
#
#######################################################################
#
# If this CIF has been generated from an entry in the Cambridge 
# Structural Database, then it will include bibliographic, chemical, 
# crystal, experimental, refinement or atomic coordinate data resulting 
# from the CCDC's data processing and validation procedures.
#
#######################################################################

data_FEPKUI
_symmetry_cell_setting           triclinic
_symmetry_space_group_name_H-M   'P -1'
_symmetry_Int_Tables_number      2
_space_group_name_Hall           '-P 1'
loop_
_symmetry_equiv_pos_site_id
_symmetry_equiv_pos_as_xyz
1 x,y,z
2 -x,-y,-z
_cell_length_a                   11.4952(9)
_cell_length_b                   11.5504(8)
_cell_length_c                   21.6426(16)
_cell_angle_alpha                94.3510(10)
_cell_angle_beta                 91.2180(10)
_cell_angle_gamma                113.6270(10)
_cell_volume                     2620.91
loop_
_atom_site_label
_atom_site_type_symbol
_atom_site_fract_x
_atom_site_fract_y
_atom_site_fract_z
Ni1 Ni 0.18614(4) 0.25702(4) 0.75661(2)
Ni2 Ni 0.5000 1.0000 0.5000
Co1 Co -0.08381(4) 0.54514(5) 0.73211(2)
N1 N 0.1716(3) 0.2210(3) 0.84909(17)
H1 H 0.236(4) 0.205(5) 0.861(2)
N2 N 0.2569(3) 0.4466(3) 0.79051(19)
H2 H 0.206(5) 0.485(5) 0.789(2)
N3 N 0.1946(3) 0.2909(3) 0.66428(18)
H3 H 0.114(4) 0.308(4) 0.654(2)
N4 N 0.1157(3) 0.0660(3) 0.72367(17)
H4 H 0.178(5) 0.039(5) 0.721(2)
N5 N 0.3993(3) 0.8209(3) 0.45548(15)
H5 H 0.332(3) 0.776(4) 0.4801(19)
N6 N 0.3665(3) 1.0698(3) 0.47620(15)
H6 H 0.300(5) 1.040(5) 0.502(2)
N9 N -0.2037(3) 0.6420(3) 0.73407(15)
N10 N -0.2323(3) 0.3732(3) 0.75299(15)
N11 N 0.0899(3) 0.6949(3) 0.71427(15)
O1 O -0.1435(3) 0.5234(3) 0.63932(13)
O2 O -0.2460(3) 0.5902(3) 0.57068(14)
O3 O -0.3198(5) 0.7939(5) 0.88820(17)
O4 O -0.4208(3) 0.8758(3) 0.82969(14)
O5 O 0.0109(3) 0.4256(3) 0.73264(14)
O6 O -0.0077(2) 0.2350(3) 0.75538(14)
O7 O -0.6231(3) 0.2728(3) 0.75599(15)
O8 O -0.6421(3) 0.1097(3) 0.81127(16)
O9 O -0.0053(3) 0.6171(3) 0.82122(13)
O10 O 0.1838(3) 0.7090(3) 0.87242(13)
O11 O 0.4098(2) 0.9365(3) 0.58463(12)
O12 O 0.2054(3) 0.8830(3) 0.55623(14)
C1 C 0.1860(5) 0.3403(5) 0.8844(2)
H11 H 0.2099 0.3390 0.9285
H12 H 0.1046 0.3505 0.8824
C2 C 0.2879(4) 0.4490(4) 0.8569(2)
H13 H 0.2950 0.5304 0.8787
H14 H 0.3708 0.4427 0.8625
C3 C 0.3588(4) 0.5345(4) 0.7556(3)
H15 H 0.4351 0.5152 0.7593
H16 H 0.3820 0.6225 0.7740
C4 C 0.3179(4) 0.5244(4) 0.6866(3)
H17 H 0.2342 0.5299 0.6836
H18 H 0.3798 0.5981 0.6676
C5 C 0.3077(4) 0.4029(5) 0.6488(3)
H19 H 0.3018 0.4132 0.6040
H20 H 0.3855 0.3884 0.6574
C6 C 0.1829(5) 0.1721(5) 0.6289(2)
H21 H 0.2651 0.1634 0.6313
H22 H 0.1591 0.1728 0.5848
C7 C 0.0824(4) 0.0637(4) 0.6565(2)
H23 H -0.0006 0.0701 0.6516
H24 H 0.0748 -0.0175 0.6344
C8 C 0.0111(4) -0.0215(4) 0.7573(2)
H25 H -0.0111 -0.1096 0.7393
H26 H -0.0648 -0.0022 0.7516
C9 C 0.0456(4) -0.0116(4) 0.8264(2)
H27 H -0.0202 -0.0838 0.8446
H28 H 0.1271 -0.0212 0.8313
C10 C 0.0587(4) 0.1100(4) 0.8636(2)
H29 H -0.0183 0.1258 0.8551
H30 H 0.0640 0.0992 0.9084
C11 C 0.4899(4) 0.7624(4) 0.4495(2)
H31 H 0.5447 0.7955 0.4147
H32 H 0.4440 0.6693 0.4405
C12 C 0.3320(4) 0.8183(4) 0.39506(19)
H33 H 0.2828 0.7289 0.3786
H34 H 0.3959 0.8592 0.3648
C13 C 0.2427(4) 0.8854(4) 0.4012(2)
H35 H 0.1878 0.8640 0.3625
H36 H 0.1868 0.8519 0.4355
C14 C 0.3067(4) 1.0287(4) 0.4132(2)
H37 H 0.3723 1.0623 0.3827
H38 H 0.2428 1.0647 0.4071
C15 C 0.5713(4) 0.7925(4) 0.5099(2)
H39 H 0.6361 0.7566 0.5058
H40 H 0.5172 0.7540 0.5441
C21 C -0.2516(4) 0.6484(3) 0.67780(18)
C22 C -0.3311(4) 0.7093(4) 0.66920(19)
H51 H -0.3641 0.7121 0.6290
C23 C -0.3613(4) 0.7668(4) 0.72153(19)
H52 H -0.4132 0.8125 0.7168
C24 C -0.3181(4) 0.7589(4) 0.77935(18)
C25 C -0.2370(4) 0.6959(4) 0.78345(18)
H53 H -0.2040 0.6912 0.8233
C26 C -0.2116(4) 0.5813(4) 0.62398(18)
C27 C -0.3545(4) 0.8140(4) 0.83717(19)
C28 C -0.1907(3) 0.2804(3) 0.75906(16)
C29 C -0.2696(3) 0.1597(4) 0.77312(18)
H54 H -0.2378 0.0961 0.7769
C30 C -0.3969(3) 0.1346(3) 0.78146(17)
H55 H -0.4531 0.0535 0.7922
C31 C -0.4417(3) 0.2280(4) 0.77405(18)
C32 C -0.3553(3) 0.3462(4) 0.75978(18)
H56 H -0.3852 0.4107 0.7546
C33 C -0.0514(3) 0.3177(3) 0.74799(18)
C34 C -0.5814(4) 0.2010(4) 0.78114(19)
C35 C 0.1689(4) 0.7383(3) 0.76509(17)
C36 C 0.2937(4) 0.8263(4) 0.76263(18)
H57 H 0.3490 0.8550 0.7989
C37 C 0.3353(4) 0.8710(4) 0.70630(19)
H58 H 0.4208 0.9293 0.7035
C38 C 0.2538(3) 0.8317(3) 0.65404(17)
C39 C 0.1298(4) 0.7422(3) 0.66041(17)
H59 H 0.0719 0.7142 0.6250
C40 C 0.1121(4) 0.6847(4) 0.82453(18)
C41 C 0.2918(4) 0.8875(4) 0.59260(18)
Ni1A Ni 0.81386(4) 1.74298(4) 0.24339(2)
Ni1_2 Ni -0.81386(4) 0.25702(4) 0.75661(2)
Ni1A_2 Ni 1.81386(4) 1.74298(4) 0.24339(2)
Co1A Co 1.08381(4) 1.45486(5) 0.26789(2)
N1A N 0.8284(3) 1.7790(3) 0.15091(17)
H1A H 0.764(4) 1.795(5) 0.139(2)
N2A N 0.7431(3) 1.5534(3) 0.20949(19)
H2A H 0.794(5) 1.515(5) 0.211(2)
N3A N 0.8054(3) 1.7091(3) 0.33572(18)
H3A H 0.886(4) 1.692(4) 0.346(2)
N4A N 0.8843(3) 1.9340(3) 0.27633(17)
H4A H 0.822(5) 1.961(5) 0.279(2)
N5A N 0.6007(3) 1.1791(3) 0.54452(15)
H5A H 0.668(3) 1.224(4) 0.5199(19)
N6A N 0.6335(3) 0.9302(3) 0.52380(15)
H6A H 0.700(5) 0.960(5) 0.498(2)
N9A N 1.2037(3) 1.3580(3) 0.26593(15)
N10A N 1.2323(3) 1.6268(3) 0.24701(15)
N11A N 0.9101(3) 1.3051(3) 0.28573(15)
O1A O 1.1435(3) 1.4766(3) 0.36068(13)
O2A O 1.2460(3) 1.4098(3) 0.42932(14)
O3A O 1.3198(5) 1.2061(5) 0.11180(17)
O4A O 1.4208(3) 1.1242(3) 0.17031(14)
O5A O 0.9891(3) 1.5744(3) 0.26736(14)
O6A O 1.0077(2) 1.7650(3) 0.24462(14)
O7A O 1.6231(3) 1.7272(3) 0.24401(15)
O7_2 O 0.3769(3) 0.2728(3) 0.75599(15)
O7A_2 O 0.6231(3) 1.7272(3) 0.24401(15)
O8A O 1.6421(3) 1.8903(3) 0.18873(16)
O9A O 1.0053(3) 1.3829(3) 0.17878(13)
O10A O 0.8162(3) 1.2910(3) 0.12758(13)
O11A O 0.5902(2) 1.0635(3) 0.41537(12)
O12A O 0.7946(3) 1.1170(3) 0.44377(14)
C1A C 0.8140(5) 1.6597(5) 0.1156(2)
H11A H 0.7901 1.6610 0.0715
H12A H 0.8954 1.6495 0.1176
C2A C 0.7121(4) 1.5510(4) 0.1431(2)
H13A H 0.7050 1.4696 0.1213
H14A H 0.6292 1.5573 0.1375
C3A C 0.6412(4) 1.4655(4) 0.2444(3)
H15A H 0.5649 1.4848 0.2407
H16A H 0.6180 1.3775 0.2260
C4A C 0.6821(4) 1.4756(4) 0.3134(3)
H17A H 0.7658 1.4701 0.3164
H18A H 0.6202 1.4019 0.3324
C5A C 0.6923(4) 1.5971(5) 0.3512(3)
H19A H 0.6982 1.5868 0.3960
H20A H 0.6145 1.6116 0.3426
C6A C 0.8171(5) 1.8279(5) 0.3711(2)
H21A H 0.7349 1.8366 0.3687
H22A H 0.8409 1.8272 0.4152
C7A C 0.9176(4) 1.9363(4) 0.3435(2)
H23A H 1.0006 1.9299 0.3484
H24A H 0.9252 2.0175 0.3656
C8A C 0.9889(4) 2.0215(4) 0.2427(2)
H25A H 1.0111 2.1096 0.2607
H26A H 1.0648 2.0022 0.2484
C9A C 0.9544(4) 2.0116(4) 0.1736(2)
H27A H 1.0202 2.0838 0.1554
H28A H 0.8729 2.0212 0.1687
C10A C 0.9413(4) 1.8900(4) 0.1364(2)
H29A H 1.0183 1.8742 0.1449
H30A H 0.9360 1.9008 0.0916
C11A C 0.5101(4) 1.2376(4) 0.5505(2)
H31A H 0.4553 1.2045 0.5853
H32A H 0.5560 1.3307 0.5595
C12A C 0.6680(4) 1.1817(4) 0.60494(19)
H33A H 0.7172 1.2711 0.6214
H34A H 0.6041 1.1408 0.6352
C13A C 0.7573(4) 1.1146(4) 0.5988(2)
H35A H 0.8122 1.1360 0.6375
H36A H 0.8132 1.1481 0.5645
C14A C 0.6933(4) 0.9713(4) 0.5868(2)
H37A H 0.6277 0.9377 0.6173
H38A H 0.7572 0.9353 0.5929
C15A C 0.4287(4) 1.2075(4) 0.4901(2)
H39A H 0.3639 1.2434 0.4942
H40A H 0.4828 1.2460 0.4559
C21A C 1.2516(4) 1.3516(3) 0.32220(18)
C22A C 1.3311(4) 1.2907(4) 0.33080(19)
H51A H 1.3641 1.2879 0.3710
C23A C 1.3613(4) 1.2332(4) 0.27847(19)
H52A H 1.4132 1.1875 0.2832
C24A C 1.3181(4) 1.2411(4) 0.22065(18)
C25A C 1.2370(4) 1.3041(4) 0.21655(18)
H53A H 1.2040 1.3088 0.1767
C26A C 1.2116(4) 1.4187(4) 0.37602(18)
C27A C 1.3545(4) 1.1860(4) 0.16283(19)
C28A C 1.1907(3) 1.7196(3) 0.24094(16)
C29A C 1.2696(3) 1.8403(4) 0.22688(18)
H54A H 1.2378 1.9039 0.2231
C30A C 1.3969(3) 1.8654(3) 0.21854(17)
H55A H 1.4531 1.9465 0.2078
C31A C 1.4417(3) 1.7720(4) 0.22595(18)
C32A C 1.3553(3) 1.6538(4) 0.24022(18)
H56A H 1.3852 1.5893 0.2454
C33A C 1.0514(3) 1.6823(3) 0.25201(18)
C34A C 1.5814(4) 1.7990(4) 0.21886(19)
C35A C 0.8311(4) 1.2617(3) 0.23491(17)
C36A C 0.7063(4) 1.1737(4) 0.23737(18)
H57A H 0.6510 1.1450 0.2011
C37A C 0.6647(4) 1.1290(4) 0.29370(19)
H58A H 0.5792 1.0707 0.2965
C38A C 0.7462(3) 1.1683(3) 0.34596(17)
C39A C 0.8702(4) 1.2578(3) 0.33959(17)
H59A H 0.9281 1.2858 0.3750
C40A C 0.8879(4) 1.3153(4) 0.17547(18)
C41A C 0.7082(4) 1.1125(4) 0.40740(18)
Ni3 Ni 0.5000 1.0000 0.0000
N7 N 0.3344(4) 1.0262(4) 0.00935(18)
H7 H 0.345(5) 1.067(5) 0.045(2)
N8 N 0.4486(4) 0.8547(4) 0.05621(18)
H8 H 0.446(5) 0.894(3) 0.0955(9)
O13 O 0.5775(3) 1.1313(3) 0.08008(14)
H9 H 0.663(3) 1.169(4) 0.101(2)
H10 H 0.527(3) 1.130(4) 0.1070(12)
C16 C 0.2149(4) 0.9075(5) 0.0102(2)
H41 H 0.1992 0.8567 -0.0304
H42 H 0.1417 0.9306 0.0170
C17 C 0.2260(5) 0.8290(6) 0.0611(3)
H43 H 0.2542 0.8849 0.1003
H44 H 0.1404 0.7632 0.0666
C18 C 0.3143(5) 0.7653(5) 0.0507(3)
H45 H 0.3001 0.7022 0.0814
H46 H 0.2949 0.7190 0.0088
C19 C 0.5372(6) 0.7924(5) 0.0434(3)
H47 H 0.5106 0.7383 0.0036
H48 H 0.5361 0.7381 0.0768
C20 C 0.3312(6) 1.1067(6) -0.0400(3)
H49 H 0.3031 1.0546 -0.0804
H50 H 0.2708 1.1462 -0.0305
N7A N 0.6656(4) 0.9738(4) -0.00935(18)
H7A H 0.655(5) 0.933(5) -0.045(2)
N8A N 0.5514(4) 1.1453(4) -0.05621(18)
H8A H 0.554(5) 1.106(3) -0.0955(9)
O13A O 0.4225(3) 0.8687(3) -0.08008(14)
H9A H 0.337(3) 0.831(4) -0.101(2)
H10A H 0.473(3) 0.870(4) -0.1070(12)
C16A C 0.7851(4) 1.0925(5) -0.0102(2)
H41A H 0.8008 1.1433 0.0304
H42A H 0.8583 1.0694 -0.0170
C17A C 0.7740(5) 1.1710(6) -0.0611(3)
H43A H 0.7458 1.1151 -0.1003
H44A H 0.8596 1.2368 -0.0666
C18A C 0.6857(5) 1.2347(5) -0.0507(3)
H45A H 0.6999 1.2978 -0.0814
H46A H 0.7051 1.2810 -0.0088
C19A C 0.4628(6) 1.2076(5) -0.0434(3)
H47A H 0.4894 1.2617 -0.0036
H48A H 0.4639 1.2619 -0.0768
C20A C 0.6688(6) 0.8933(6) 0.0400(3)
H49A H 0.6969 0.9454 0.0804
H50A H 0.7292 0.8538 0.0305
O14 O 0.0381(4) 0.2421(4) 0.49826(18)
O15 O 0.2426(5) 0.5985(4) 0.5232(2)
O16 O -0.0383(4) 0.5731(4) 0.41206(19)
loop_
_geom_bond_atom_site_label_1
_geom_bond_atom_site_label_2
_geom_bond_site_symmetry_1
_geom_bond_site_symmetry_2
Ni1 N1 1_555 1_555
Ni2 N5 1_555 1_555
Ni3 N7 1_555 1_555
Co1 N9 1_555 1_555
N1 H1 1_555 1_555
N2 Ni1 1_555 1_555
H2 N2 1_555 1_555
N3 Ni1 1_555 1_555
H3 N3 1_555 1_555
N4 Ni1 1_555 1_555
H4 N4 1_555 1_555
N5 H5 1_555 1_555
N6 Ni2 1_555 1_555
H6 N6 1_555 1_555
N7 H7 1_555 1_555
N8 Ni3 1_555 1_555
H8 N8 1_555 1_555
N9 C21 1_555 1_555
N10 Co1 1_555 1_555
N11 Co1 1_555 1_555
O1 Co1 1_555 1_555
O2 C26 1_555 1_555
O3 C27 1_555 1_555
O4 C27 1_555 1_555
O5 Co1 1_555 1_555
O6 Ni1 1_555 1_555
O7 C34 1_555 1_555
O8 C34 1_555 1_555
O9 Co1 1_555 1_555
O10 C40 1_555 1_555
O11 Ni2 1_555 1_555
O12 C41 1_555 1_555
O13 Ni3 1_555 1_555
H9 O13 1_555 1_555
H10 O13 1_555 1_555
C1 N1 1_555 1_555
H11 C1 1_555 1_555
H12 C1 1_555 1_555
C2 N2 1_555 1_555
H13 C2 1_555 1_555
H14 C2 1_555 1_555
C3 N2 1_555 1_555
H15 C3 1_555 1_555
H16 C3 1_555 1_555
C4 C3 1_555 1_555
H17 C4 1_555 1_555
H18 C4 1_555 1_555
C5 N3 1_555 1_555
H19 C5 1_555 1_555
H20 C5 1_555 1_555
C6 N3 1_555 1_555
H21 C6 1_555 1_555
H22 C6 1_555 1_555
C7 N4 1_555 1_555
H23 C7 1_555 1_555
H24 C7 1_555 1_555
C8 N4 1_555 1_555
H25 C8 1_555 1_555
H26 C8 1_555 1_555
C9 C8 1_555 1_555
H27 C9 1_555 1_555
H28 C9 1_555 1_555
C10 N1 1_555 1_555
H29 C10 1_555 1_555
H30 C10 1_555 1_555
C11 N5 1_555 1_555
H31 C11 1_555 1_555
H32 C11 1_555 1_555
C12 N5 1_555 1_555
H33 C12 1_555 1_555
H34 C12 1_555 1_555
C13 C12 1_555 1_555
H35 C13 1_555 1_555
H36 C13 1_555 1_555
C14 N6 1_555 1_555
H37 C14 1_555 1_555
H38 C14 1_555 1_555
C15 C11 1_555 1_555
H39 C15 1_555 1_555
H40 C15 1_555 1_555
C16 N7 1_555 1_555
H41 C16 1_555 1_555
H42 C16 1_555 1_555
C17 C16 1_555 1_555
H43 C17 1_555 1_555
H44 C17 1_555 1_555
C18 N8 1_555 1_555
H45 C18 1_555 1_555
H46 C18 1_555 1_555
C19 N8 1_555 1_555
H47 C19 1_555 1_555
H48 C19 1_555 1_555
C20 N7 1_555 1_555
H49 C20 1_555 1_555
H50 C20 1_555 1_555
C21 C22 1_555 1_555
C22 H51 1_555 1_555
C23 C22 1_555 1_555
H52 C23 1_555 1_555
C24 C23 1_555 1_555
C25 N9 1_555 1_555
H53 C25 1_555 1_555
C26 O1 1_555 1_555
C27 C24 1_555 1_555
C28 N10 1_555 1_555
C29 C28 1_555 1_555
H54 C29 1_555 1_555
C30 C29 1_555 1_555
H55 C30 1_555 1_555
C31 C30 1_555 1_555
C32 N10 1_555 1_555
H56 C32 1_555 1_555
C33 O5 1_555 1_555
C34 C31 1_555 1_555
C35 N11 1_555 1_555
C36 C35 1_555 1_555
H57 C36 1_555 1_555
C37 C36 1_555 1_555
H58 C37 1_555 1_555
C38 C37 1_555 1_555
C39 N11 1_555 1_555
H59 C39 1_555 1_555
C40 O9 1_555 1_555
C41 O11 1_555 1_555
Ni1A N1A 1_555 1_555
Ni1_2 O7 1_555 1_555
Ni1A_2 O7A 1_555 1_555
Co1A N9A 1_555 1_555
N1A H1A 1_555 1_555
N2A Ni1A 1_555 1_555
H2A N2A 1_555 1_555
N3A Ni1A 1_555 1_555
H3A N3A 1_555 1_555
N4A Ni1A 1_555 1_555
H4A N4A 1_555 1_555
N5A Ni2 1_555 1_555
H5A N5A 1_555 1_555
N6A Ni2 1_555 1_555
H6A N6A 1_555 1_555
N7A Ni3 1_555 1_555
H7A N7A 1_555 1_555
N8A Ni3 1_555 1_555
H8A N8A 1_555 1_555
N9A C21A 1_555 1_555
N10A Co1A 1_555 1_555
N11A Co1A 1_555 1_555
O1A Co1A 1_555 1_555
O2A C26A 1_555 1_555
O3A C27A 1_555 1_555
O4A C27A 1_555 1_555
O5A Co1A 1_555 1_555
O6A Ni1A 1_555 1_555
O7A C34A 1_555 1_555
O7_2 Ni1 1_555 1_555
O7A_2 Ni1A 1_555 1_555
O8A C34A 1_555 1_555
O9A Co1A 1_555 1_555
O10A C40A 1_555 1_555
O11A Ni2 1_555 1_555
O12A C41A 1_555 1_555
O13A Ni3 1_555 1_555
H9A O13A 1_555 1_555
H10A O13A 1_555 1_555
C1A N1A 1_555 1_555
H11A C1A 1_555 1_555
H12A C1A 1_555 1_555
C2A N2A 1_555 1_555
H13A C2A 1_555 1_555
H14A C2A 1_555 1_555
C3A N2A 1_555 1_555
H15A C3A 1_555 1_555
H16A C3A 1_555 1_555
C4A C3A 1_555 1_555
H17A C4A 1_555 1_555
H18A C4A 1_555 1_555
C5A N3A 1_555 1_555
H19A C5A 1_555 1_555
H20A C5A 1_555 1_555
C6A N3A 1_555 1_555
H21A C6A 1_555 1_555
H22A C6A 1_555 1_555
C7A N4A 1_555 1_555
H23A C7A 1_555 1_555
H24A C7A 1_555 1_555
C8A N4A 1_555 1_555
H25A C8A 1_555 1_555
H26A C8A 1_555 1_555
C9A C8A 1_555 1_555
H27A C9A 1_555 1_555
H28A C9A 1_555 1_555
C10A N1A 1_555 1_555
H29A C10A 1_555 1_555
H30A C10A 1_555 1_555
C11A N5A 1_555 1_555
H31A C11A 1_555 1_555
H32A C11A 1_555 1_555
C12A N5A 1_555 1_555
H33A C12A 1_555 1_555
H34A C12A 1_555 1_555
C13A C12A 1_555 1_555
H35A C13A 1_555 1_555
H36A C13A 1_555 1_555
C14A N6A 1_555 1_555
H37A C14A 1_555 1_555
H38A C14A 1_555 1_555
C15A N6 1_555 1_555
H39A C15A 1_555 1_555
H40A C15A 1_555 1_555
C16A N7A 1_555 1_555
H41A C16A 1_555 1_555
H42A C16A 1_555 1_555
C17A C16A 1_555 1_555
H43A C17A 1_555 1_555
H44A C17A 1_555 1_555
C18A N8A 1_555 1_555
H45A C18A 1_555 1_555
H46A C18A 1_555 1_555
C19A C20 1_555 1_555
H47A C19A 1_555 1_555
H48A C19A 1_555 1_555
C20A C19 1_555 1_555
H49A C20A 1_555 1_555
H50A C20A 1_555 1_555
C21A C22A 1_555 1_555
C22A H51A 1_555 1_555
C23A C22A 1_555 1_555
H52A C23A 1_555 1_555
C24A C23A 1_555 1_555
C25A N9A 1_555 1_555
H53A C25A 1_555 1_555
C26A O1A 1_555 1_555
C27A C24A 1_555 1_555
C28A N10A 1_555 1_555
C29A C28A 1_555 1_555
H54A C29A 1_555 1_555
C30A C29A 1_555 1_555
H55A C30A 1_555 1_555
C31A C30A 1_555 1_555
C32A N10A 1_555 1_555
H56A C32A 1_555 1_555
C33A O5A 1_555 1_555
C34A C31A 1_555 1_555
C35A N11A 1_555 1_555
C36A C35A 1_555 1_555
H57A C36A 1_555 1_555
C37A C36A 1_555 1_555
H58A C37A 1_555 1_555
C38A C37A 1_555 1_555
C39A N11A 1_555 1_555
H59A C39A 1_555 1_555
C40A O9A 1_555 1_555
C41A O11A 1_555 1_555
O6 C33 1_555 1_555
C1 C2 1_555 1_555
C4 C5 1_555 1_555
C6 C7 1_555 1_555
C9 C10 1_555 1_555
C13 C14 1_555 1_555
C15 N6A 1_555 1_555
C17 C18 1_555 1_555
C21 C26 1_555 1_555
C24 C25 1_555 1_555
C28 C33 1_555 1_555
C31 C32 1_555 1_555
C35 C40 1_555 1_555
C38 C39 1_555 1_555
C38 C41 1_555 1_555
N7A C20A 1_555 1_555
N8A C19A 1_555 1_555
O6A C33A 1_555 1_555
C1A C2A 1_555 1_555
C4A C5A 1_555 1_555
C6A C7A 1_555 1_555
C9A C10A 1_555 1_555
C11A C15A 1_555 1_555
C13A C14A 1_555 1_555
C17A C18A 1_555 1_555
C21A C26A 1_555 1_555
C24A C25A 1_555 1_555
C28A C33A 1_555 1_555
C31A C32A 1_555 1_555
C35A C40A 1_555 1_555
C38A C39A 1_555 1_555
C38A C41A 1_555 1_555

#END
