
#######################################################################
#
#                 Cambridge Crystallographic Data Centre
#                                CCDC 
#
#######################################################################
#
# If this CIF has been generated from an entry in the Cambridge 
# Structural Database, then it will include bibliographic, chemical, 
# crystal, experimental, refinement or atomic coordinate data resulting 
# from the CCDC's data processing and validation procedures.
#
#######################################################################

data_FEPLIX
_symmetry_cell_setting           triclinic
_symmetry_space_group_name_H-M   'P -1'
_symmetry_Int_Tables_number      2
_space_group_name_Hall           '-P 1'
loop_
_symmetry_equiv_pos_site_id
_symmetry_equiv_pos_as_xyz
1 x,y,z
2 -x,-y,-z
_cell_length_a                   11.5109(14)
_cell_length_b                   11.5916(14)
_cell_length_c                   21.717(3)
_cell_angle_alpha                91.170(2)
_cell_angle_beta                 94.449(2)
_cell_angle_gamma                113.834(2)
_cell_volume                     2638.33
loop_
_atom_site_label
_atom_site_type_symbol
_atom_site_fract_x
_atom_site_fract_y
_atom_site_fract_z
Zn1 Zn -0.23475(3) 0.19317(3) 0.255912(18)
Zn2 Zn 0.5000 0.5000 0.0000
Ni1 Ni 0.04968(3) -0.08360(3) 0.233129(17)
N1 N 0.1478(2) -0.1970(2) 0.23392(11)
N2 N 0.1979(2) 0.0847(2) 0.21640(11)
N3 N -0.1190(2) -0.2280(2) 0.25390(11)
N4 N -0.4280(3) 0.1200(2) 0.22195(14)
H1 H -0.445(4) 0.188(3) 0.2268(19)
N5 N -0.1994(3) 0.1994(3) 0.16271(15)
H2 H -0.188(3) 0.129(4) 0.1557(17)
N6 N -0.0431(3) 0.2583(3) 0.29023(16)
H3 H -0.016(4) 0.193(4) 0.286(2)
N7 N -0.2712(3) 0.1751(3) 0.34874(14)
H4 H -0.281(4) 0.244(3) 0.362(2)
N8 N 0.6827(2) 0.6020(2) 0.04467(11)
H5 H 0.732(4) 0.664(4) 0.0230(17)
N9 N 0.4292(2) 0.6331(2) 0.02383(12)
H6 H 0.457(5) 0.696(3) -0.0026(19)
O1 O 0.0197(2) -0.1422(2) 0.14077(10)
O2 O 0.0886(3) -0.2396(2) 0.07131(11)
O3 O 0.3763(2) -0.4196(2) 0.32686(11)
O4 O 0.3057(4) -0.3086(4) 0.38636(13)
O5 O 0.1128(2) -0.0089(2) 0.32231(10)
O6 O 0.2080(3) 0.1789(2) 0.37381(11)
O7 O 0.4370(2) 0.4063(2) 0.08830(10)
O8 O 0.3839(3) 0.2047(2) 0.05828(12)
O9 O -0.0671(2) 0.0109(2) 0.23108(11)
O10 O -0.2595(2) -0.0083(2) 0.25353(12)
O11 O -0.3815(2) -0.6358(2) 0.31165(14)
O12 O -0.2176(2) -0.6139(2) 0.25655(13)
C1 C 0.1502(3) -0.2449(3) 0.17761(13)
C2 C 0.2112(3) -0.3237(3) 0.16833(14)
H11 H 0.2129 -0.3551 0.1278
C3 C 0.2700(3) -0.3565(3) 0.21893(15)
H12 H 0.3133 -0.4100 0.2135
C4 C 0.2648(3) -0.3101(3) 0.27778(14)
C5 C 0.2030(3) -0.2293(3) 0.28308(14)
H13 H 0.1999 -0.1962 0.3230
C6 C 0.0806(3) -0.2062(3) 0.12468(14)
C7 C 0.3215(3) -0.3485(3) 0.33490(15)
C8 C 0.2394(3) 0.1646(3) 0.26724(13)
C9 C 0.3272(3) 0.2887(3) 0.26492(14)
H14 H 0.3557 0.3435 0.3012
C10 C 0.3726(3) 0.3310(3) 0.20873(15)
H15 H 0.4307 0.4163 0.2059
C11 C 0.3330(3) 0.2487(3) 0.15658(13)
C12 C 0.2443(3) 0.1263(3) 0.16263(13)
H16 H 0.2153 0.0696 0.1270
C13 C 0.1839(3) 0.1087(3) 0.32641(13)
C14 C 0.3881(3) 0.2900(3) 0.09555(14)
C15 C -0.1451(3) -0.3505(3) 0.26099(13)
H17 H -0.0798 -0.3795 0.2563
C16 C -0.2644(3) -0.4368(3) 0.27492(13)
C17 C -0.3585(3) -0.3933(3) 0.28139(13)
H18 H -0.4400 -0.4493 0.2919
C18 C -0.3335(3) -0.2676(3) 0.27246(13)
H19 H -0.3979 -0.2368 0.2758
C19 C -0.2126(3) -0.1882(2) 0.25862(12)
C20 C -0.1771(3) -0.0499(3) 0.24705(14)
C21 C -0.2903(3) -0.5747(3) 0.28159(15)
C22 C -0.4312(4) 0.0854(4) 0.15605(17)
H20 H -0.5127 0.0777 0.1339
H21 H -0.4253 0.0028 0.1517
C23 C -0.3204(4) 0.1861(4) 0.12837(18)
H22 H -0.3207 0.1623 0.0843
H23 H -0.3290 0.2676 0.1307
C24 C -0.0866(4) 0.3120(4) 0.1484(2)
H24 H -0.1017 0.3889 0.1565
H25 H -0.0745 0.3065 0.1039
C25 C 0.0335(4) 0.3226(4) 0.1869(2)
H26 H 0.0394 0.2398 0.1836
H27 H 0.1079 0.3847 0.1684
C26 C 0.0445(3) 0.3613(3) 0.2549(2)
H28 H 0.1334 0.3851 0.2728
H29 H 0.0245 0.4364 0.2592
C27 C -0.0397(4) 0.2905(4) 0.3560(2)
H30 H -0.0456 0.3730 0.3612
H31 H 0.0419 0.2977 0.3779
C28 C -0.1507(4) 0.1885(4) 0.38338(19)
H32 H -0.1415 0.1073 0.3809
H33 H -0.1511 0.2116 0.4275
C29 C -0.3840(4) 0.0608(3) 0.36251(17)
H34 H -0.3955 0.0643 0.4071
H35 H -0.3682 -0.0154 0.3534
C30 C -0.5052(3) 0.0501(3) 0.32487(19)
H36 H -0.5126 0.1319 0.3295
H37 H -0.5789 -0.0142 0.3429
C31 C -0.5154(3) 0.0153(3) 0.25615(17)
H38 H -0.4952 -0.0594 0.2507
H39 H -0.6042 -0.0080 0.2383
C32 C 0.7103(3) 0.4302(3) -0.00976(16)
H40 H 0.7486 0.4836 -0.0440
H41 H 0.7465 0.3662 -0.0056
C33 C 0.7414(3) 0.5115(3) 0.05022(16)
H42 H 0.7087 0.4573 0.0850
H43 H 0.8350 0.5572 0.0588
C34 C 0.6857(3) 0.6681(3) 0.10452(14)
H44 H 0.7756 0.7173 0.1209
H45 H 0.6448 0.6046 0.1346
C35 C 0.6181(3) 0.7566(3) 0.09859(15)
H46 H 0.6519 0.8122 0.0644
H47 H 0.6404 0.8111 0.1371
C36 C 0.4722(3) 0.6934(3) 0.08661(15)
H48 H 0.4380 0.6289 0.1172
H49 H 0.4373 0.7578 0.0925
Zn1A Zn 1.23475(3) 0.80683(3) -0.255912(18)
Zn1_2 Zn -0.23475(3) -0.80683(3) 0.255912(18)
Zn1A_2 Zn 1.23475(3) 1.80683(3) -0.255912(18)
Ni1A Ni 0.95032(3) 1.08360(3) -0.233129(17)
N1A N 0.8522(2) 1.1970(2) -0.23392(11)
N2A N 0.8021(2) 0.9153(2) -0.21640(11)
N3A N 1.1190(2) 1.2280(2) -0.25390(11)
N4A N 1.4280(3) 0.8800(2) -0.22195(14)
H1A H 1.445(4) 0.812(3) -0.2268(19)
N5A N 1.1994(3) 0.8006(3) -0.16271(15)
H2A H 1.188(3) 0.871(4) -0.1557(17)
N6A N 1.0431(3) 0.7417(3) -0.29023(16)
H3A H 1.016(4) 0.807(4) -0.286(2)
N7A N 1.2712(3) 0.8249(3) -0.34874(14)
H4A H 1.281(4) 0.756(3) -0.362(2)
N8A N 0.3173(2) 0.3980(2) -0.04467(11)
H5A H 0.268(4) 0.336(4) -0.0230(17)
N9A N 0.5708(2) 0.3669(2) -0.02383(12)
H6A H 0.543(5) 0.304(3) 0.0026(19)
O1A O 0.9803(2) 1.1422(2) -0.14077(10)
O2A O 0.9114(3) 1.2396(2) -0.07131(11)
O3A O 0.6237(2) 1.4196(2) -0.32686(11)
O4A O 0.6943(4) 1.3086(4) -0.38636(13)
O5A O 0.8872(2) 1.0089(2) -0.32231(10)
O6A O 0.7920(3) 0.8211(2) -0.37381(11)
O7A O 0.5630(2) 0.5937(2) -0.08830(10)
O8A O 0.6161(3) 0.7953(2) -0.05828(12)
O9A O 1.0671(2) 0.9891(2) -0.23108(11)
O10A O 1.2595(2) 1.0083(2) -0.25353(12)
O11A O 1.3815(2) 1.6358(2) -0.31165(14)
O12A O 1.2176(2) 1.6139(2) -0.25655(13)
O12_2 O -0.2176(2) 0.3861(2) 0.25655(13)
O12A_2 O 1.2176(2) 0.6139(2) -0.25655(13)
C1A C 0.8498(3) 1.2449(3) -0.17761(13)
C2A C 0.7888(3) 1.3237(3) -0.16833(14)
H11A H 0.7871 1.3551 -0.1278
C3A C 0.7300(3) 1.3565(3) -0.21893(15)
H12A H 0.6867 1.4100 -0.2135
C4A C 0.7352(3) 1.3101(3) -0.27778(14)
C5A C 0.7970(3) 1.2293(3) -0.28308(14)
H13A H 0.8001 1.1962 -0.3230
C6A C 0.9194(3) 1.2062(3) -0.12468(14)
C7A C 0.6785(3) 1.3485(3) -0.33490(15)
C8A C 0.7606(3) 0.8354(3) -0.26724(13)
C9A C 0.6728(3) 0.7113(3) -0.26492(14)
H14A H 0.6443 0.6565 -0.3012
C10A C 0.6274(3) 0.6690(3) -0.20873(15)
H15A H 0.5693 0.5837 -0.2059
C11A C 0.6670(3) 0.7513(3) -0.15658(13)
C12A C 0.7557(3) 0.8737(3) -0.16263(13)
H16A H 0.7847 0.9304 -0.1270
C13A C 0.8161(3) 0.8913(3) -0.32641(13)
C14A C 0.6119(3) 0.7100(3) -0.09555(14)
C15A C 1.1451(3) 1.3505(3) -0.26099(13)
H17A H 1.0798 1.3795 -0.2563
C16A C 1.2644(3) 1.4368(3) -0.27492(13)
C17A C 1.3585(3) 1.3933(3) -0.28139(13)
H18A H 1.4400 1.4493 -0.2919
C18A C 1.3335(3) 1.2676(3) -0.27246(13)
H19A H 1.3979 1.2368 -0.2758
C19A C 1.2126(3) 1.1882(2) -0.25862(12)
C20A C 1.1771(3) 1.0499(3) -0.24705(14)
C21A C 1.2903(3) 1.5747(3) -0.28159(15)
C22A C 1.4312(4) 0.9146(4) -0.15605(17)
H20A H 1.5127 0.9223 -0.1339
H21A H 1.4253 0.9972 -0.1517
C23A C 1.3204(4) 0.8139(4) -0.12837(18)
H22A H 1.3207 0.8377 -0.0843
H23A H 1.3290 0.7324 -0.1307
C24A C 1.0866(4) 0.6880(4) -0.1484(2)
H24A H 1.1017 0.6111 -0.1565
H25A H 1.0745 0.6935 -0.1039
C25A C 0.9665(4) 0.6774(4) -0.1869(2)
H26A H 0.9606 0.7602 -0.1836
H27A H 0.8921 0.6153 -0.1684
C26A C 0.9555(3) 0.6387(3) -0.2549(2)
H28A H 0.8666 0.6149 -0.2728
H29A H 0.9755 0.5636 -0.2592
C27A C 1.0397(4) 0.7095(4) -0.3560(2)
H30A H 1.0456 0.6270 -0.3612
H31A H 0.9581 0.7023 -0.3779
C28A C 1.1507(4) 0.8115(4) -0.38338(19)
H32A H 1.1415 0.8927 -0.3809
H33A H 1.1511 0.7884 -0.4275
C29A C 1.3840(4) 0.9392(3) -0.36251(17)
H34A H 1.3955 0.9357 -0.4071
H35A H 1.3682 1.0154 -0.3534
C30A C 1.5052(3) 0.9499(3) -0.32487(19)
H36A H 1.5126 0.8681 -0.3295
H37A H 1.5789 1.0142 -0.3429
C31A C 1.5154(3) 0.9847(3) -0.25615(17)
H38A H 1.4952 1.0594 -0.2507
H39A H 1.6042 1.0080 -0.2383
C32A C 0.2897(3) 0.5698(3) 0.00976(16)
H40A H 0.2514 0.5164 0.0440
H41A H 0.2535 0.6338 0.0056
C33A C 0.2586(3) 0.4885(3) -0.05022(16)
H42A H 0.2913 0.5427 -0.0850
H43A H 0.1650 0.4428 -0.0588
C34A C 0.3143(3) 0.3319(3) -0.10452(14)
H44A H 0.2244 0.2827 -0.1209
H45A H 0.3552 0.3954 -0.1346
C35A C 0.3819(3) 0.2434(3) -0.09859(15)
H46A H 0.3481 0.1878 -0.0644
H47A H 0.3596 0.1889 -0.1371
C36A C 0.5278(3) 0.3066(3) -0.08661(15)
H48A H 0.5620 0.3711 -0.1172
H49A H 0.5627 0.2422 -0.0925
Zn3 Zn 0.5000 0.5000 0.5000
N10 N 0.6491(3) 0.5480(3) 0.44277(15)
H7 H 0.608(4) 0.525(4) 0.4050(12)
N11 N 0.4763(4) 0.6679(3) 0.49038(14)
H8 H 0.407(6) 0.660(10) 0.465(4)
O13 O 0.3615(3) 0.4215(3) 0.41756(12)
H9 H 0.368(4) 0.476(4) 0.389(2)
H10 H 0.319(4) 0.349(2) 0.403(2)
C37 C 0.7400(4) 0.6831(5) 0.4483(2)
H50 H 0.8026 0.6979 0.4174
H51 H 0.7874 0.7023 0.4899
C38 C 0.6742(5) 0.7713(4) 0.4387(2)
H52 H 0.6180 0.7435 0.3995
H53 H 0.7401 0.8566 0.4332
C39 C 0.5944(5) 0.7826(4) 0.48960(19)
H54 H 0.6451 0.7974 0.5302
H55 H 0.5728 0.8561 0.4829
C40 C 0.3958(5) 0.6709(4) 0.5396(2)
H56 H 0.3578 0.7323 0.5305
H57 H 0.4483 0.6977 0.5798
C41 C 0.2915(5) 0.5409(5) 0.5430(2)
H58 H 0.2364 0.5417 0.5756
H59 H 0.2381 0.5144 0.5030
N10A N 0.3509(3) 0.4520(3) 0.55723(15)
H7A H 0.392(4) 0.475(4) 0.5950(12)
N11A N 0.5237(4) 0.3321(3) 0.50962(14)
H8A H 0.593(6) 0.340(10) 0.535(4)
O13A O 0.6385(3) 0.5785(3) 0.58244(12)
H9A H 0.632(4) 0.524(4) 0.611(2)
H10A H 0.681(4) 0.651(2) 0.597(2)
C37A C 0.2600(4) 0.3169(5) 0.5517(2)
H50A H 0.1974 0.3021 0.5826
H51A H 0.2126 0.2977 0.5101
C38A C 0.3258(5) 0.2287(4) 0.5613(2)
H52A H 0.3820 0.2565 0.6005
H53A H 0.2599 0.1434 0.5668
C39A C 0.4056(5) 0.2174(4) 0.51040(19)
H54A H 0.3549 0.2026 0.4698
H55A H 0.4272 0.1439 0.5171
C40A C 0.6042(5) 0.3291(4) 0.4604(2)
H56A H 0.6422 0.2677 0.4695
H57A H 0.5517 0.3023 0.4202
C41A C 0.7085(5) 0.4591(5) 0.4570(2)
H58A H 0.7636 0.4583 0.4244
H59A H 0.7619 0.4856 0.4970
O14 O 0.2576(4) 0.9676(3) 0.00390(16)
H60 H 0.310(4) 0.953(4) 0.0329(16)
H61 H 0.228(5) 0.895(3) -0.016(2)
O15 O 0.9264(4) 0.0422(3) 0.08919(15)
H62 H 0.869(4) 0.023(5) 0.059(2)
H63 H 0.934(8) -0.027(4) 0.095(4)
O16 O 0.0446(9) 0.6160(9) 0.4228(6)
O17 O 0.0840(8) 0.8713(7) 0.4358(3)
H64 H 0.049(4) 0.930(4) 0.460(2)
H65 H 0.161(3) 0.887(6) 0.452(3)
O18 O 0.3553(8) 0.9132(7) 0.4597(3)
O19 O 0.0988(3) 0.2433(5) 0.0239(2)
H66 H 0.090(6) 0.167(5) 0.000(3)
H67 H 0.049(6) 0.203(6) 0.050(3)
loop_
_geom_bond_atom_site_label_1
_geom_bond_atom_site_label_2
_geom_bond_site_symmetry_1
_geom_bond_site_symmetry_2
Zn1 N4 1_555 1_555
Zn2 N8 1_555 1_555
Zn3 N10 1_555 1_555
Ni1 N1 1_555 1_555
N1 C1 1_555 1_555
N2 Ni1 1_555 1_555
N3 Ni1 1_555 1_555
N4 H1 1_555 1_555
N5 Zn1 1_555 1_555
H2 N5 1_555 1_555
N6 Zn1 1_555 1_555
H3 N6 1_555 1_555
N7 Zn1 1_555 1_555
H4 N7 1_555 1_555
N8 H5 1_555 1_555
N9 Zn2 1_555 1_555
H6 N9 1_555 1_555
N10 H7 1_555 1_555
N11 Zn3 1_555 1_555
H8 N11 1_555 1_555
O1 Ni1 1_555 1_555
O2 C6 1_555 1_555
O3 C7 1_555 1_555
O4 C7 1_555 1_555
O5 Ni1 1_555 1_555
O6 C13 1_555 1_555
O7 Zn2 1_555 1_555
O8 C14 1_555 1_555
O9 Ni1 1_555 1_555
O10 Zn1 1_555 1_555
O11 C21 1_555 1_555
O12 C21 1_555 1_555
O13 Zn3 1_555 1_555
H9 O13 1_555 1_555
H10 O13 1_555 1_555
C1 C2 1_555 1_555
C2 H11 1_555 1_555
C3 C2 1_555 1_555
H12 C3 1_555 1_555
C4 C3 1_555 1_555
C5 N1 1_555 1_555
H13 C5 1_555 1_555
C6 O1 1_555 1_555
C7 C4 1_555 1_555
C8 N2 1_555 1_555
C9 C8 1_555 1_555
H14 C9 1_555 1_555
C10 C9 1_555 1_555
H15 C10 1_555 1_555
C11 C10 1_555 1_555
C12 N2 1_555 1_555
H16 C12 1_555 1_555
C13 O5 1_555 1_555
C14 O7 1_555 1_555
C15 N3 1_555 1_555
H17 C15 1_555 1_555
C16 C15 1_555 1_555
C17 C16 1_555 1_555
H18 C17 1_555 1_555
C18 C17 1_555 1_555
H19 C18 1_555 1_555
C19 N3 1_555 1_555
C20 O9 1_555 1_555
C21 C16 1_555 1_555
C22 N4 1_555 1_555
H20 C22 1_555 1_555
H21 C22 1_555 1_555
C23 N5 1_555 1_555
H22 C23 1_555 1_555
H23 C23 1_555 1_555
C24 N5 1_555 1_555
H24 C24 1_555 1_555
H25 C24 1_555 1_555
C25 C24 1_555 1_555
H26 C25 1_555 1_555
H27 C25 1_555 1_555
C26 N6 1_555 1_555
H28 C26 1_555 1_555
H29 C26 1_555 1_555
C27 N6 1_555 1_555
H30 C27 1_555 1_555
H31 C27 1_555 1_555
C28 N7 1_555 1_555
H32 C28 1_555 1_555
H33 C28 1_555 1_555
C29 N7 1_555 1_555
H34 C29 1_555 1_555
H35 C29 1_555 1_555
C30 C29 1_555 1_555
H36 C30 1_555 1_555
H37 C30 1_555 1_555
C31 N4 1_555 1_555
H38 C31 1_555 1_555
H39 C31 1_555 1_555
C32 H40 1_555 1_555
H41 C32 1_555 1_555
C33 N8 1_555 1_555
H42 C33 1_555 1_555
H43 C33 1_555 1_555
C34 N8 1_555 1_555
H44 C34 1_555 1_555
H45 C34 1_555 1_555
C35 C34 1_555 1_555
H46 C35 1_555 1_555
H47 C35 1_555 1_555
C36 N9 1_555 1_555
H48 C36 1_555 1_555
H49 C36 1_555 1_555
C37 N10 1_555 1_555
H50 C37 1_555 1_555
H51 C37 1_555 1_555
C38 C37 1_555 1_555
H52 C38 1_555 1_555
H53 C38 1_555 1_555
C39 N11 1_555 1_555
H54 C39 1_555 1_555
H55 C39 1_555 1_555
C40 N11 1_555 1_555
H56 C40 1_555 1_555
H57 C40 1_555 1_555
C41 C40 1_555 1_555
H58 C41 1_555 1_555
H59 C41 1_555 1_555
O14 H60 1_555 1_555
H61 O14 1_555 1_555
O15 H62 1_555 1_555
H63 O15 1_555 1_555
O17 H64 1_555 1_555
H65 O17 1_555 1_555
O19 H66 1_555 1_555
H67 O19 1_555 1_555
Zn1A N4A 1_555 1_555
Zn1_2 O12 1_555 1_555
Zn1A_2 O12A 1_555 1_555
Ni1A N1A 1_555 1_555
N1A C1A 1_555 1_555
N2A Ni1A 1_555 1_555
N3A Ni1A 1_555 1_555
N4A H1A 1_555 1_555
N5A Zn1A 1_555 1_555
H2A N5A 1_555 1_555
N6A Zn1A 1_555 1_555
H3A N6A 1_555 1_555
N7A Zn1A 1_555 1_555
H4A N7A 1_555 1_555
N8A Zn2 1_555 1_555
H5A N8A 1_555 1_555
N9A Zn2 1_555 1_555
H6A N9A 1_555 1_555
N10A Zn3 1_555 1_555
H7A N10A 1_555 1_555
N11A Zn3 1_555 1_555
H8A N11A 1_555 1_555
O1A Ni1A 1_555 1_555
O2A C6A 1_555 1_555
O3A C7A 1_555 1_555
O4A C7A 1_555 1_555
O5A Ni1A 1_555 1_555
O6A C13A 1_555 1_555
O7A Zn2 1_555 1_555
O8A C14A 1_555 1_555
O9A Ni1A 1_555 1_555
O10A Zn1A 1_555 1_555
O11A C21A 1_555 1_555
O12A C21A 1_555 1_555
O12_2 Zn1 1_555 1_555
O12A_2 Zn1A 1_555 1_555
O13A Zn3 1_555 1_555
H9A O13A 1_555 1_555
H10A O13A 1_555 1_555
C1A C2A 1_555 1_555
C2A H11A 1_555 1_555
C3A C2A 1_555 1_555
H12A C3A 1_555 1_555
C4A C3A 1_555 1_555
C5A N1A 1_555 1_555
H13A C5A 1_555 1_555
C6A O1A 1_555 1_555
C7A C4A 1_555 1_555
C8A N2A 1_555 1_555
C9A C8A 1_555 1_555
H14A C9A 1_555 1_555
C10A C9A 1_555 1_555
H15A C10A 1_555 1_555
C11A C10A 1_555 1_555
C12A N2A 1_555 1_555
H16A C12A 1_555 1_555
C13A O5A 1_555 1_555
C14A O7A 1_555 1_555
C15A N3A 1_555 1_555
H17A C15A 1_555 1_555
C16A C15A 1_555 1_555
C17A C16A 1_555 1_555
H18A C17A 1_555 1_555
C18A C17A 1_555 1_555
H19A C18A 1_555 1_555
C19A N3A 1_555 1_555
C20A O9A 1_555 1_555
C21A C16A 1_555 1_555
C22A N4A 1_555 1_555
H20A C22A 1_555 1_555
H21A C22A 1_555 1_555
C23A N5A 1_555 1_555
H22A C23A 1_555 1_555
H23A C23A 1_555 1_555
C24A N5A 1_555 1_555
H24A C24A 1_555 1_555
H25A C24A 1_555 1_555
C25A C24A 1_555 1_555
H26A C25A 1_555 1_555
H27A C25A 1_555 1_555
C26A N6A 1_555 1_555
H28A C26A 1_555 1_555
H29A C26A 1_555 1_555
C27A N6A 1_555 1_555
H30A C27A 1_555 1_555
H31A C27A 1_555 1_555
C28A N7A 1_555 1_555
H32A C28A 1_555 1_555
H33A C28A 1_555 1_555
C29A N7A 1_555 1_555
H34A C29A 1_555 1_555
H35A C29A 1_555 1_555
C30A C29A 1_555 1_555
H36A C30A 1_555 1_555
H37A C30A 1_555 1_555
C31A N4A 1_555 1_555
H38A C31A 1_555 1_555
H39A C31A 1_555 1_555
C32A N9 1_555 1_555
H40A C32A 1_555 1_555
H41A C32A 1_555 1_555
C33A N8A 1_555 1_555
H42A C33A 1_555 1_555
H43A C33A 1_555 1_555
C34A N8A 1_555 1_555
H44A C34A 1_555 1_555
H45A C34A 1_555 1_555
C35A C34A 1_555 1_555
H46A C35A 1_555 1_555
H47A C35A 1_555 1_555
C36A N9A 1_555 1_555
H48A C36A 1_555 1_555
H49A C36A 1_555 1_555
C37A N10A 1_555 1_555
H50A C37A 1_555 1_555
H51A C37A 1_555 1_555
C38A C37A 1_555 1_555
H52A C38A 1_555 1_555
H53A C38A 1_555 1_555
C39A N11A 1_555 1_555
H54A C39A 1_555 1_555
H55A C39A 1_555 1_555
C40A N11A 1_555 1_555
H56A C40A 1_555 1_555
H57A C40A 1_555 1_555
C41A N10 1_555 1_555
H58A C41A 1_555 1_555
H59A C41A 1_555 1_555
O10 C20 1_555 1_555
C1 C6 1_555 1_555
C4 C5 1_555 1_555
C8 C13 1_555 1_555
C11 C12 1_555 1_555
C11 C14 1_555 1_555
C18 C19 1_555 1_555
C19 C20 1_555 1_555
C22 C23 1_555 1_555
C25 C26 1_555 1_555
C27 C28 1_555 1_555
C30 C31 1_555 1_555
C32 C33 1_555 1_555
C32 N9A 1_555 1_555
C35 C36 1_555 1_555
C38 C39 1_555 1_555
C41 N10A 1_555 1_555
O10A C20A 1_555 1_555
C1A C6A 1_555 1_555
C4A C5A 1_555 1_555
C8A C13A 1_555 1_555
C11A C12A 1_555 1_555
C11A C14A 1_555 1_555
C18A C19A 1_555 1_555
C19A C20A 1_555 1_555
C22A C23A 1_555 1_555
C25A C26A 1_555 1_555
C27A C28A 1_555 1_555
C30A C31A 1_555 1_555
C32A C33A 1_555 1_555
C35A C36A 1_555 1_555
C38A C39A 1_555 1_555
C40A C41A 1_555 1_555

#END
