
#######################################################################
#
#                 Cambridge Crystallographic Data Centre
#                                CCDC 
#
#######################################################################
#
# If this CIF has been generated from an entry in the Cambridge 
# Structural Database, then it will include bibliographic, chemical, 
# crystal, experimental, refinement or atomic coordinate data resulting 
# from the CCDC's data processing and validation procedures.
#
#######################################################################

data_FEPLAP
_symmetry_cell_setting           triclinic
_symmetry_space_group_name_H-M   'P -1'
_symmetry_Int_Tables_number      2
_space_group_name_Hall           '-P 1'
loop_
_symmetry_equiv_pos_site_id
_symmetry_equiv_pos_as_xyz
1 x,y,z
2 -x,-y,-z
_cell_length_a                   11.4505(8)
_cell_length_b                   11.5123(8)
_cell_length_c                   21.6191(14)
_cell_angle_alpha                94.2070(10)
_cell_angle_beta                 91.5310(10)
_cell_angle_gamma                113.6120(10)
_cell_volume                     2599.32
loop_
_atom_site_label
_atom_site_type_symbol
_atom_site_fract_x
_atom_site_fract_y
_atom_site_fract_z
Ni1 Ni 0.80769(4) 0.73524(4) 0.24176(2)
Ni2 Ni 0.5000 0.0000 0.5000
Ni4 Ni 1.08174(4) 0.45178(4) 0.26858(2)
N1 N 0.8243(3) 0.7693(3) 0.14912(17)
H1 H 0.761(4) 0.785(6) 0.135(3)
N2 N 0.7390(3) 0.5449(3) 0.2100(2)
H2 H 0.802(5) 0.526(5) 0.212(2)
N3 N 0.7966(3) 0.7028(3) 0.33498(18)
H3 H 0.860(5) 0.675(6) 0.334(3)
N4 N 0.8786(3) 0.9266(3) 0.27387(17)
H4 H 0.809(3) 0.938(5) 0.268(2)
N5 N 0.6028(3) 0.1788(3) 0.54525(14)
H5 H 0.664(4) 0.216(5) 0.523(2)
N6 N 0.6322(3) -0.0714(3) 0.52428(15)
H6 H 0.701(3) -0.043(4) 0.5044(17)
N9 N 1.1966(3) 0.3535(3) 0.26650(14)
N10 N 1.2260(3) 0.6190(3) 0.24553(13)
N11 N 0.9121(3) 0.3024(3) 0.28564(14)
O1 O 1.1445(3) 0.4824(3) 0.36062(12)
O2 O 1.2468(3) 0.4149(3) 0.42947(13)
O3 O 1.3085(5) 0.1983(5) 0.11262(17)
O4 O 1.4165(3) 0.1214(3) 0.17201(14)
O5 O 0.9861(2) 0.5687(2) 0.27118(14)
O6 O 1.0012(2) 0.7570(2) 0.24502(13)
O7 O 1.6161(2) 0.7185(3) 0.24050(15)
O8 O 1.6351(3) 0.8822(3) 0.18593(16)
O9 O 1.0043(2) 0.3898(3) 0.17929(13)
O10 O 0.8162(3) 0.2866(3) 0.12739(12)
O11 O 0.5925(2) 0.0641(2) 0.41573(11)
O12 O 0.7964(3) 0.1134(3) 0.44414(14)
C1 C 0.8077(5) 0.6483(5) 0.1150(2)
H11 H 0.8893 0.6378 0.1170
H12 H 0.7829 0.6486 0.0708
C2 C 0.7059(5) 0.5391(4) 0.1428(2)
H13 H 0.6222 0.5444 0.1368
H14 H 0.6995 0.4573 0.1217
C3 C 0.6349(4) 0.4595(4) 0.2450(3)
H15 H 0.6095 0.3705 0.2273
H16 H 0.5598 0.4811 0.2406
C4 C 0.6744(4) 0.4702(4) 0.3133(3)
H17 H 0.7584 0.4649 0.3170
H18 H 0.6120 0.3964 0.3322
C5 C 0.6838(4) 0.5915(5) 0.3501(3)
H19 H 0.6057 0.6058 0.3409
H20 H 0.6893 0.5818 0.3951
C6 C 0.8093(5) 0.8249(5) 0.3678(2)
H21 H 0.8316 0.8264 0.4125
H22 H 0.7269 0.8337 0.3639
C7 C 0.9107(4) 0.9334(4) 0.3407(2)
H23 H 0.9163 1.0152 0.3615
H24 H 0.9945 0.9285 0.3472
C8 C 0.9831(4) 1.0143(4) 0.2395(2)
H25 H 1.0600 0.9965 0.2461
H26 H 1.0042 1.1029 0.2568
C9 C 0.9510(4) 1.0035(4) 0.1706(2)
H27 H 1.0183 1.0751 0.1525
H28 H 0.8697 1.0138 0.1645
C10 C 0.9377(4) 0.8807(4) 0.1344(2)
H29 H 0.9324 0.8903 0.0894
H30 H 1.0152 0.8651 0.1434
C11 C 0.5122(4) 0.2406(4) 0.55061(19)
H31 H 0.5597 0.3339 0.5589
H32 H 0.4573 0.2092 0.5856
C12 C 0.6680(4) 0.1804(4) 0.60573(17)
H33 H 0.6030 0.1393 0.6355
H34 H 0.7176 0.2699 0.6225
C13 C 0.7573(4) 0.1122(4) 0.60030(19)
H35 H 0.8144 0.1465 0.5665
H36 H 0.8115 0.1331 0.6394
C14 C 0.6940(4) -0.0315(4) 0.58770(17)
H37 H 0.7590 -0.0670 0.5930
H38 H 0.6291 -0.0665 0.6184
C15 C 0.5693(4) -0.2102(4) 0.5095(2)
H39 H 0.5152 -0.2495 0.5435
H40 H 0.6346 -0.2459 0.5053
C21 C 1.2462(4) 0.3502(3) 0.32245(17)
C22 C 1.3265(4) 0.2891(4) 0.33154(18)
H51 H 1.3601 0.2873 0.3719
C23 C 1.3567(4) 0.2300(4) 0.27924(19)
H52 H 1.4106 0.1860 0.2839
C24 C 1.3090(4) 0.2356(3) 0.22193(18)
C25 C 1.2283(4) 0.2983(3) 0.21633(18)
H53 H 1.1948 0.3024 0.1763
C26 C 1.2098(4) 0.4208(4) 0.37614(18)
C27 C 1.3460(4) 0.1816(3) 0.16537(18)
C28 C 1.1846(3) 0.7124(3) 0.24035(14)
C29 C 1.2628(3) 0.8323(3) 0.22576(16)
H54 H 1.2306 0.8958 0.2217
C30 C 1.3893(3) 0.8574(3) 0.21716(16)
H55 H 1.4452 0.9392 0.2069
C31 C 1.4352(3) 0.7641(3) 0.22335(16)
C32 C 1.3490(3) 0.6453(3) 0.23846(17)
H56 H 1.3793 0.5808 0.2439
C33 C 1.0455(3) 0.6765(3) 0.25336(16)
C34 C 1.5744(3) 0.7911(3) 0.21540(18)
C35 C 0.8322(3) 0.2598(3) 0.23455(16)
C36 C 0.7080(4) 0.1707(4) 0.23768(18)
H57 H 0.6521 0.1411 0.2013
C37 C 0.6658(4) 0.1251(3) 0.29393(17)
H58 H 0.5804 0.0656 0.2968
C38 C 0.7496(3) 0.1670(3) 0.34586(16)
C39 C 0.8728(3) 0.2571(3) 0.33998(17)
H59 H 0.9306 0.2873 0.3757
C40 C 0.8882(4) 0.3157(3) 0.17513(16)
C41 C 0.7102(4) 0.1122(3) 0.40787(16)
Ni1A Ni 0.19231(4) -0.73524(4) 0.75824(2)
Ni1_2 Ni 1.80769(4) 0.73524(4) 0.24176(2)
Ni1A_2 Ni -0.80769(4) -0.73524(4) 0.75824(2)
Ni4A Ni -0.08174(4) -0.45178(4) 0.73142(2)
N1A N 0.1757(3) -0.7693(3) 0.85088(17)
H1A H 0.239(4) -0.785(6) 0.865(3)
N2A N 0.2610(3) -0.5449(3) 0.7900(2)
H2A H 0.198(5) -0.526(5) 0.788(2)
N3A N 0.2034(3) -0.7028(3) 0.66502(18)
H3A H 0.140(5) -0.675(6) 0.666(3)
N4A N 0.1214(3) -0.9266(3) 0.72613(17)
H4A H 0.191(3) -0.938(5) 0.732(2)
N5A N 0.3972(3) -0.1788(3) 0.45475(14)
H5A H 0.336(4) -0.216(5) 0.477(2)
N6A N 0.3678(3) 0.0714(3) 0.47572(15)
H6A H 0.299(3) 0.043(4) 0.4956(17)
N9A N -0.1966(3) -0.3535(3) 0.73350(14)
N10A N -0.2260(3) -0.6190(3) 0.75447(13)
N11A N 0.0879(3) -0.3024(3) 0.71436(14)
O1A O -0.1445(3) -0.4824(3) 0.63938(12)
O2A O -0.2468(3) -0.4149(3) 0.57053(13)
O3A O -0.3085(5) -0.1983(5) 0.88738(17)
O4A O -0.4165(3) -0.1214(3) 0.82799(14)
O5A O 0.0139(2) -0.5687(2) 0.72882(14)
O6A O -0.0012(2) -0.7570(2) 0.75498(13)
O7A O -0.6161(2) -0.7185(3) 0.75950(15)
O7_2 O 0.6161(2) 0.7185(3) 0.24050(15)
O7A_2 O 0.3839(2) -0.7185(3) 0.75950(15)
O8A O -0.6351(3) -0.8822(3) 0.81407(16)
O9A O -0.0043(2) -0.3898(3) 0.82071(13)
O10A O 0.1838(3) -0.2866(3) 0.87261(12)
O11A O 0.4075(2) -0.0641(2) 0.58427(11)
O12A O 0.2036(3) -0.1134(3) 0.55586(14)
C1A C 0.1923(5) -0.6483(5) 0.8850(2)
H11A H 0.1107 -0.6378 0.8830
H12A H 0.2171 -0.6486 0.9292
C2A C 0.2941(5) -0.5391(4) 0.8572(2)
H13A H 0.3778 -0.5444 0.8632
H14A H 0.3005 -0.4573 0.8783
C3A C 0.3651(4) -0.4595(4) 0.7550(3)
H15A H 0.3905 -0.3705 0.7727
H16A H 0.4402 -0.4811 0.7594
C4A C 0.3256(4) -0.4702(4) 0.6867(3)
H17A H 0.2416 -0.4649 0.6830
H18A H 0.3880 -0.3964 0.6678
C5A C 0.3162(4) -0.5915(5) 0.6499(3)
H19A H 0.3943 -0.6058 0.6591
H20A H 0.3107 -0.5818 0.6049
C6A C 0.1907(5) -0.8249(5) 0.6322(2)
H21A H 0.1684 -0.8264 0.5875
H22A H 0.2731 -0.8337 0.6361
C7A C 0.0893(4) -0.9334(4) 0.6593(2)
H23A H 0.0837 -1.0152 0.6385
H24A H 0.0055 -0.9285 0.6528
C8A C 0.0169(4) -1.0143(4) 0.7605(2)
H25A H -0.0600 -0.9965 0.7539
H26A H -0.0042 -1.1029 0.7432
C9A C 0.0490(4) -1.0035(4) 0.8294(2)
H27A H -0.0183 -1.0751 0.8475
H28A H 0.1303 -1.0138 0.8355
C10A C 0.0623(4) -0.8807(4) 0.8656(2)
H29A H 0.0676 -0.8903 0.9106
H30A H -0.0152 -0.8651 0.8566
C11A C 0.4878(4) -0.2406(4) 0.44939(19)
H31A H 0.4403 -0.3339 0.4411
H32A H 0.5427 -0.2092 0.4144
C12A C 0.3320(4) -0.1804(4) 0.39427(17)
H33A H 0.3970 -0.1393 0.3645
H34A H 0.2824 -0.2699 0.3775
C13A C 0.2427(4) -0.1122(4) 0.39970(19)
H35A H 0.1856 -0.1465 0.4335
H36A H 0.1885 -0.1331 0.3606
C14A C 0.3060(4) 0.0315(4) 0.41230(17)
H37A H 0.2410 0.0670 0.4070
H38A H 0.3709 0.0665 0.3816
C15A C 0.4307(4) 0.2102(4) 0.4905(2)
H39A H 0.4848 0.2495 0.4565
H40A H 0.3654 0.2459 0.4947
C21A C -0.2462(4) -0.3502(3) 0.67755(17)
C22A C -0.3265(4) -0.2891(4) 0.66846(18)
H51A H -0.3601 -0.2873 0.6281
C23A C -0.3567(4) -0.2300(4) 0.72076(19)
H52A H -0.4106 -0.1860 0.7161
C24A C -0.3090(4) -0.2356(3) 0.77807(18)
C25A C -0.2283(4) -0.2983(3) 0.78367(18)
H53A H -0.1948 -0.3024 0.8237
C26A C -0.2098(4) -0.4208(4) 0.62386(18)
C27A C -0.3460(4) -0.1816(3) 0.83463(18)
C28A C -0.1846(3) -0.7124(3) 0.75965(14)
C29A C -0.2628(3) -0.8323(3) 0.77424(16)
H54A H -0.2306 -0.8958 0.7783
C30A C -0.3893(3) -0.8574(3) 0.78284(16)
H55A H -0.4452 -0.9392 0.7931
C31A C -0.4352(3) -0.7641(3) 0.77665(16)
C32A C -0.3490(3) -0.6453(3) 0.76154(17)
H56A H -0.3793 -0.5808 0.7561
C33A C -0.0455(3) -0.6765(3) 0.74664(16)
C34A C -0.5744(3) -0.7911(3) 0.78460(18)
C35A C 0.1678(3) -0.2598(3) 0.76545(16)
C36A C 0.2920(4) -0.1707(4) 0.76232(18)
H57A H 0.3479 -0.1411 0.7987
C37A C 0.3342(4) -0.1251(3) 0.70607(17)
H58A H 0.4196 -0.0656 0.7032
C38A C 0.2504(3) -0.1670(3) 0.65414(16)
C39A C 0.1272(3) -0.2571(3) 0.66002(17)
H59A H 0.0694 -0.2873 0.6243
C40A C 0.1118(4) -0.3157(3) 0.82487(16)
C41A C 0.2898(4) -0.1122(3) 0.59213(16)
Ni3 Ni 0.5000 1.0000 0.0000
N7 N 0.3334(4) 1.0256(4) 0.01065(17)
H7 H 0.332(4) 1.060(4) 0.056(2)
N8 N 0.4508(4) 0.8494(4) 0.05314(18)
H8 H 0.451(6) 0.887(3) 0.0909(9)
O13 O 0.5761(3) 1.1265(4) 0.08188(15)
H9 H 0.649(3) 1.186(4) 0.086(2)
H10 H 0.536(4) 1.131(5) 0.1135(17)
C16 C 0.2139(5) 0.9082(6) 0.0103(2)
H41 H 0.1410 0.9319 0.0178
H42 H 0.1976 0.8594 -0.0310
C17 C 0.2243(5) 0.8276(6) 0.0590(3)
H43 H 0.1377 0.7624 0.0640
H44 H 0.2528 0.8820 0.0987
C18 C 0.3139(6) 0.7587(5) 0.0486(3)
H45 H 0.3002 0.6968 0.0800
H46 H 0.2927 0.7107 0.0071
C19 C 0.5393(6) 0.7885(5) 0.0394(3)
H47 H 0.5128 0.7362 -0.0010
H48 H 0.5386 0.7323 0.0720
C20 C 0.6702(5) 0.8907(6) 0.0371(3)
H49 H 0.6982 0.9404 0.0781
H50 H 0.7314 0.8523 0.0266
N7A N 0.6666(4) 0.9744(4) -0.01065(17)
H7A H 0.668(4) 0.940(4) -0.056(2)
N8A N 0.5492(4) 1.1506(4) -0.05314(18)
H8A H 0.549(6) 1.113(3) -0.0909(9)
O13A O 0.4239(3) 0.8735(4) -0.08188(15)
H9A H 0.351(3) 0.814(4) -0.086(2)
H10A H 0.464(4) 0.869(5) -0.1135(17)
C16A C 0.7861(5) 1.0918(6) -0.0103(2)
H41A H 0.8590 1.0681 -0.0178
H42A H 0.8024 1.1406 0.0310
C17A C 0.7757(5) 1.1724(6) -0.0590(3)
H43A H 0.8623 1.2376 -0.0640
H44A H 0.7472 1.1180 -0.0987
C18A C 0.6861(6) 1.2413(5) -0.0486(3)
H45A H 0.6998 1.3032 -0.0800
H46A H 0.7073 1.2893 -0.0071
C19A C 0.4607(6) 1.2115(5) -0.0394(3)
H47A H 0.4872 1.2638 0.0010
H48A H 0.4614 1.2677 -0.0720
C20A C 0.3298(5) 1.1093(6) -0.0371(3)
H49A H 0.3018 1.0596 -0.0781
H50A H 0.2686 1.1477 -0.0266
O14 O 0.0407(5) 0.2354(7) 0.4970(3)
O15 O 0.2329(6) 0.5955(4) 0.5222(2)
O16 O 0.9640(5) 0.5807(5) 0.4142(2)
loop_
_geom_bond_atom_site_label_1
_geom_bond_atom_site_label_2
_geom_bond_site_symmetry_1
_geom_bond_site_symmetry_2
Ni1 N1 1_555 1_555
Ni2 N5 1_555 1_555
Ni3 N7 1_555 1_555
Ni4 N9 1_555 1_555
N1 H1 1_555 1_555
N2 Ni1 1_555 1_555
H2 N2 1_555 1_555
N3 Ni1 1_555 1_555
H3 N3 1_555 1_555
N4 Ni1 1_555 1_555
H4 N4 1_555 1_555
N5 H5 1_555 1_555
N6 Ni2 1_555 1_555
H6 N6 1_555 1_555
N7 H7 1_555 1_555
N8 Ni3 1_555 1_555
H8 N8 1_555 1_555
N9 C21 1_555 1_555
N10 Ni4 1_555 1_555
N11 Ni4 1_555 1_555
O1 Ni4 1_555 1_555
O2 C26 1_555 1_555
O3 C27 1_555 1_555
O4 C27 1_555 1_555
O5 Ni4 1_555 1_555
O6 Ni1 1_555 1_555
O7 C34 1_555 1_555
O8 C34 1_555 1_555
O9 Ni4 1_555 1_555
O10 C40 1_555 1_555
O11 Ni2 1_555 1_555
O12 C41 1_555 1_555
O13 Ni3 1_555 1_555
H9 O13 1_555 1_555
H10 O13 1_555 1_555
C1 N1 1_555 1_555
H11 C1 1_555 1_555
H12 C1 1_555 1_555
C2 N2 1_555 1_555
H13 C2 1_555 1_555
H14 C2 1_555 1_555
C3 N2 1_555 1_555
H15 C3 1_555 1_555
H16 C3 1_555 1_555
C4 C3 1_555 1_555
H17 C4 1_555 1_555
H18 C4 1_555 1_555
C5 N3 1_555 1_555
H19 C5 1_555 1_555
H20 C5 1_555 1_555
C6 N3 1_555 1_555
H21 C6 1_555 1_555
H22 C6 1_555 1_555
C7 N4 1_555 1_555
H23 C7 1_555 1_555
H24 C7 1_555 1_555
C8 N4 1_555 1_555
H25 C8 1_555 1_555
H26 C8 1_555 1_555
C9 C8 1_555 1_555
H27 C9 1_555 1_555
H28 C9 1_555 1_555
C10 N1 1_555 1_555
H29 C10 1_555 1_555
H30 C10 1_555 1_555
C11 N5 1_555 1_555
H31 C11 1_555 1_555
H32 C11 1_555 1_555
C12 N5 1_555 1_555
H33 C12 1_555 1_555
H34 C12 1_555 1_555
C13 C12 1_555 1_555
H35 C13 1_555 1_555
H36 C13 1_555 1_555
C14 N6 1_555 1_555
H37 C14 1_555 1_555
H38 C14 1_555 1_555
C15 N6 1_555 1_555
H39 C15 1_555 1_555
H40 C15 1_555 1_555
C16 N7 1_555 1_555
H41 C16 1_555 1_555
H42 C16 1_555 1_555
C17 C16 1_555 1_555
H43 C17 1_555 1_555
H44 C17 1_555 1_555
C18 N8 1_555 1_555
H45 C18 1_555 1_555
H46 C18 1_555 1_555
C19 N8 1_555 1_555
H47 C19 1_555 1_555
H48 C19 1_555 1_555
C20 C19 1_555 1_555
H49 C20 1_555 1_555
H50 C20 1_555 1_555
C21 C22 1_555 1_555
C22 H51 1_555 1_555
C23 C22 1_555 1_555
H52 C23 1_555 1_555
C24 C23 1_555 1_555
C25 N9 1_555 1_555
H53 C25 1_555 1_555
C26 O1 1_555 1_555
C27 C24 1_555 1_555
C28 N10 1_555 1_555
C29 C28 1_555 1_555
H54 C29 1_555 1_555
C30 C29 1_555 1_555
H55 C30 1_555 1_555
C31 C30 1_555 1_555
C32 N10 1_555 1_555
H56 C32 1_555 1_555
C33 O5 1_555 1_555
C34 C31 1_555 1_555
C35 N11 1_555 1_555
C36 C35 1_555 1_555
H57 C36 1_555 1_555
C37 C36 1_555 1_555
H58 C37 1_555 1_555
C38 C37 1_555 1_555
C39 N11 1_555 1_555
H59 C39 1_555 1_555
C40 O9 1_555 1_555
C41 O11 1_555 1_555
Ni1A N1A 1_555 1_555
Ni1_2 O7 1_555 1_555
Ni1A_2 O7A 1_555 1_555
Ni4A N9A 1_555 1_555
N1A H1A 1_555 1_555
N2A Ni1A 1_555 1_555
H2A N2A 1_555 1_555
N3A Ni1A 1_555 1_555
H3A N3A 1_555 1_555
N4A Ni1A 1_555 1_555
H4A N4A 1_555 1_555
N5A Ni2 1_555 1_555
H5A N5A 1_555 1_555
N6A Ni2 1_555 1_555
H6A N6A 1_555 1_555
N7A Ni3 1_555 1_555
H7A N7A 1_555 1_555
N8A Ni3 1_555 1_555
H8A N8A 1_555 1_555
N9A C21A 1_555 1_555
N10A Ni4A 1_555 1_555
N11A Ni4A 1_555 1_555
O1A Ni4A 1_555 1_555
O2A C26A 1_555 1_555
O3A C27A 1_555 1_555
O4A C27A 1_555 1_555
O5A Ni4A 1_555 1_555
O6A Ni1A 1_555 1_555
O7A C34A 1_555 1_555
O7_2 Ni1 1_555 1_555
O7A_2 Ni1A 1_555 1_555
O8A C34A 1_555 1_555
O9A Ni4A 1_555 1_555
O10A C40A 1_555 1_555
O11A Ni2 1_555 1_555
O12A C41A 1_555 1_555
O13A Ni3 1_555 1_555
H9A O13A 1_555 1_555
H10A O13A 1_555 1_555
C1A N1A 1_555 1_555
H11A C1A 1_555 1_555
H12A C1A 1_555 1_555
C2A N2A 1_555 1_555
H13A C2A 1_555 1_555
H14A C2A 1_555 1_555
C3A N2A 1_555 1_555
H15A C3A 1_555 1_555
H16A C3A 1_555 1_555
C4A C3A 1_555 1_555
H17A C4A 1_555 1_555
H18A C4A 1_555 1_555
C5A N3A 1_555 1_555
H19A C5A 1_555 1_555
H20A C5A 1_555 1_555
C6A N3A 1_555 1_555
H21A C6A 1_555 1_555
H22A C6A 1_555 1_555
C7A N4A 1_555 1_555
H23A C7A 1_555 1_555
H24A C7A 1_555 1_555
C8A N4A 1_555 1_555
H25A C8A 1_555 1_555
H26A C8A 1_555 1_555
C9A C8A 1_555 1_555
H27A C9A 1_555 1_555
H28A C9A 1_555 1_555
C10A N1A 1_555 1_555
H29A C10A 1_555 1_555
H30A C10A 1_555 1_555
C11A C15 1_555 1_555
H31A C11A 1_555 1_555
H32A C11A 1_555 1_555
C12A N5A 1_555 1_555
H33A C12A 1_555 1_555
H34A C12A 1_555 1_555
C13A C12A 1_555 1_555
H35A C13A 1_555 1_555
H36A C13A 1_555 1_555
C14A N6A 1_555 1_555
H37A C14A 1_555 1_555
H38A C14A 1_555 1_555
C15A C11 1_555 1_555
H39A C15A 1_555 1_555
H40A C15A 1_555 1_555
C16A N7A 1_555 1_555
H41A C16A 1_555 1_555
H42A C16A 1_555 1_555
C17A C16A 1_555 1_555
H43A C17A 1_555 1_555
H44A C17A 1_555 1_555
C18A N8A 1_555 1_555
H45A C18A 1_555 1_555
H46A C18A 1_555 1_555
C19A N8A 1_555 1_555
H47A C19A 1_555 1_555
H48A C19A 1_555 1_555
C20A N7 1_555 1_555
H49A C20A 1_555 1_555
H50A C20A 1_555 1_555
C21A C22A 1_555 1_555
C22A H51A 1_555 1_555
C23A C22A 1_555 1_555
H52A C23A 1_555 1_555
C24A C23A 1_555 1_555
C25A N9A 1_555 1_555
H53A C25A 1_555 1_555
C26A O1A 1_555 1_555
C27A C24A 1_555 1_555
C28A N10A 1_555 1_555
C29A C28A 1_555 1_555
H54A C29A 1_555 1_555
C30A C29A 1_555 1_555
H55A C30A 1_555 1_555
C31A C30A 1_555 1_555
C32A N10A 1_555 1_555
H56A C32A 1_555 1_555
C33A O5A 1_555 1_555
C34A C31A 1_555 1_555
C35A N11A 1_555 1_555
C36A C35A 1_555 1_555
H57A C36A 1_555 1_555
C37A C36A 1_555 1_555
H58A C37A 1_555 1_555
C38A C37A 1_555 1_555
C39A N11A 1_555 1_555
H59A C39A 1_555 1_555
C40A O9A 1_555 1_555
C41A O11A 1_555 1_555
O6 C33 1_555 1_555
C1 C2 1_555 1_555
C4 C5 1_555 1_555
C6 C7 1_555 1_555
C9 C10 1_555 1_555
C13 C14 1_555 1_555
C17 C18 1_555 1_555
C20 N7A 1_555 1_555
C21 C26 1_555 1_555
C24 C25 1_555 1_555
C28 C33 1_555 1_555
C31 C32 1_555 1_555
C35 C40 1_555 1_555
C38 C39 1_555 1_555
C38 C41 1_555 1_555
N5A C11A 1_555 1_555
N6A C15A 1_555 1_555
O6A C33A 1_555 1_555
C1A C2A 1_555 1_555
C4A C5A 1_555 1_555
C6A C7A 1_555 1_555
C9A C10A 1_555 1_555
C13A C14A 1_555 1_555
C17A C18A 1_555 1_555
C19A C20A 1_555 1_555
C21A C26A 1_555 1_555
C24A C25A 1_555 1_555
C28A C33A 1_555 1_555
C31A C32A 1_555 1_555
C35A C40A 1_555 1_555
C38A C39A 1_555 1_555
C38A C41A 1_555 1_555

#END
