
#######################################################################
#
#                 Cambridge Crystallographic Data Centre
#                                CCDC 
#
#######################################################################
#
# If this CIF has been generated from an entry in the Cambridge 
# Structural Database, then it will include bibliographic, chemical, 
# crystal, experimental, refinement or atomic coordinate data resulting 
# from the CCDC's data processing and validation procedures.
#
#######################################################################

data_FEPLET
_symmetry_cell_setting           triclinic
_symmetry_space_group_name_H-M   'P -1'
_symmetry_Int_Tables_number      2
_space_group_name_Hall           '-P 1'
loop_
_symmetry_equiv_pos_site_id
_symmetry_equiv_pos_as_xyz
1 x,y,z
2 -x,-y,-z
_cell_length_a                   11.4882(8)
_cell_length_b                   11.5521(8)
_cell_length_c                   21.6308(16)
_cell_angle_alpha                94.3610(10)
_cell_angle_beta                 91.3170(10)
_cell_angle_gamma                113.5840(10)
_cell_volume                     2618.81
loop_
_atom_site_label
_atom_site_type_symbol
_atom_site_fract_x
_atom_site_fract_y
_atom_site_fract_z
Ni1 Ni 0.81507(4) 0.74524(4) 0.24358(3)
Ni2 Ni 0.5000 0.0000 0.5000
Zn1 Zn 1.08489(4) 0.45614(4) 0.26909(2)
N1 N 0.8292(3) 0.7805(3) 0.15113(19)
H1 H 0.767(3) 0.803(4) 0.150(2)
N2 N 0.7459(3) 0.5566(3) 0.21017(19)
H2 H 0.785(4) 0.510(4) 0.201(2)
N3 N 0.8072(3) 0.7104(3) 0.33697(19)
H3 H 0.880(3) 0.702(4) 0.340(2)
N4 N 0.8852(3) 0.9355(3) 0.27610(18)
H4 H 0.817(3) 0.951(4) 0.271(2)
N5 N 0.6011(3) 0.1787(3) 0.54499(16)
H5 H 0.671(3) 0.232(5) 0.532(3)
N6 N 0.6336(3) -0.0697(3) 0.52362(17)
H6 H 0.679(4) -0.054(6) 0.4909(17)
N9 N 1.2071(3) 0.3602(3) 0.26684(16)
N10 N 1.2332(3) 0.6302(3) 0.24743(15)
N11 N 0.9095(3) 0.3061(3) 0.28601(15)
O1 O 1.1459(2) 0.4774(3) 0.36322(13)
O2 O 1.2491(3) 0.4081(3) 0.43019(14)
O3 O 1.3190(5) 0.2073(4) 0.11202(18)
O4 O 1.4205(3) 0.1243(3) 0.17049(14)
O5 O 0.9918(2) 0.5783(3) 0.26995(15)
O6 O 1.0095(2) 0.7683(2) 0.24461(15)
O7 O 1.6248(2) 0.7296(3) 0.24409(15)
O8 O 1.6426(3) 0.8915(3) 0.18904(17)
O9 O 1.0045(2) 0.3861(3) 0.17872(13)
O10 O 0.8157(3) 0.2922(3) 0.12851(14)
O11 O 0.5898(2) 0.0631(3) 0.41460(13)
O12 O 0.7950(3) 0.1163(3) 0.44363(15)
C1 C 0.8134(5) 0.6610(5) 0.1164(3)
H11 H 0.8946 0.6502 0.1186
H12 H 0.7900 0.6625 0.0722
C2 C 0.7105(4) 0.5514(4) 0.1434(2)
H13 H 0.6276 0.5581 0.1384
H14 H 0.7029 0.4699 0.1216
C3 C 0.6439(4) 0.4690(4) 0.2466(2)
H15 H 0.6197 0.3808 0.2283
H16 H 0.5679 0.4888 0.2431
C4 C 0.6832(4) 0.4780(4) 0.3140(3)
H17 H 0.7668 0.4721 0.3171
H18 H 0.6209 0.4043 0.3327
C5 C 0.6935(4) 0.5991(5) 0.3518(3)
H19 H 0.6161 0.6143 0.3429
H20 H 0.6985 0.5883 0.3966
C6 C 0.8209(4) 0.8308(5) 0.3718(2)
H21 H 0.8478 0.8317 0.4157
H22 H 0.7381 0.8386 0.3708
C7 C 0.9185(4) 0.9404(4) 0.3431(2)
H23 H 0.9232 1.0212 0.3645
H24 H 1.0031 0.9375 0.3484
C8 C 0.9894(4) 1.0239(4) 0.2422(2)
H25 H 1.0661 1.0059 0.2481
H26 H 1.0104 1.1119 0.2600
C9 C 0.9557(4) 1.0136(4) 0.1738(2)
H27 H 1.0217 1.0859 0.1559
H28 H 0.8744 1.0237 0.1689
C10 C 0.9418(4) 0.8916(4) 0.1352(2)
H29 H 0.9339 0.9026 0.0906
H30 H 1.0194 0.8758 0.1425
C11 C 0.5095(4) 0.2379(4) 0.5509(2)
H31 H 0.5553 0.3309 0.5599
H32 H 0.4543 0.2047 0.5855
C12 C 0.6670(4) 0.1821(4) 0.6043(2)
H33 H 0.6031 0.1411 0.6344
H34 H 0.7155 0.2717 0.6207
C13 C 0.7586(4) 0.1153(4) 0.5988(2)
H35 H 0.8151 0.1492 0.5647
H36 H 0.8127 0.1368 0.6378
C14 C 0.6939(4) -0.0289(4) 0.5865(2)
H37 H 0.7579 -0.0650 0.5923
H38 H 0.6286 -0.0625 0.6171
C15 C 0.5714(4) -0.2077(4) 0.5099(2)
H39 H 0.5170 -0.2459 0.5440
H40 H 0.6363 -0.2437 0.5062
C21 C 1.2524(3) 0.3531(3) 0.32204(18)
C22 C 1.3325(4) 0.2900(4) 0.3314(2)
H51 H 1.3647 0.2868 0.3718
C23 C 1.3630(4) 0.2322(4) 0.2789(2)
H52 H 1.4141 0.1856 0.2833
C24 C 1.3193(4) 0.2426(4) 0.22119(19)
C25 C 1.2391(3) 0.3071(3) 0.21666(19)
H53 H 1.2066 0.3131 0.1768
C26 C 1.2132(4) 0.4186(4) 0.3767(2)
C27 C 1.3553(4) 0.1860(4) 0.1632(2)
C28 C 1.1911(3) 0.7213(3) 0.24117(18)
C29 C 1.2705(3) 0.8421(3) 0.22681(18)
H54 H 1.2388 0.9057 0.2229
C30 C 1.3979(3) 0.8669(4) 0.21838(19)
H55 H 1.4543 0.9480 0.2079
C31 C 1.4419(3) 0.7735(4) 0.22534(18)
C32 C 1.3561(3) 0.6554(3) 0.24016(18)
H56 H 1.3858 0.5907 0.2453
C33 C 1.0525(3) 0.6860(3) 0.25260(18)
C34 C 1.5817(4) 0.8015(4) 0.2183(2)
C35 C 0.8312(4) 0.2647(3) 0.23614(19)
C36 C 0.7052(4) 0.1756(4) 0.2371(2)
H57 H 0.6504 0.1482 0.2005
C37 C 0.6637(4) 0.1294(4) 0.2931(2)
H58 H 0.5783 0.0703 0.2955
C38 C 0.7457(3) 0.1686(3) 0.34601(18)
C39 C 0.8690(3) 0.2599(3) 0.34061(18)
H59 H 0.9258 0.2901 0.3765
C40 C 0.8859(4) 0.3170(4) 0.17554(19)
C41 C 0.7085(4) 0.1135(4) 0.40801(19)
Ni1A Ni 0.18493(4) -0.74524(4) 0.75642(3)
Ni1_2 Ni 1.81507(4) 0.74524(4) 0.24358(3)
Ni1A_2 Ni -0.81507(4) -0.74524(4) 0.75642(3)
Zn1A Zn -0.08489(4) -0.45614(4) 0.73091(2)
N1A N 0.1708(3) -0.7805(3) 0.84887(19)
H1A H 0.233(3) -0.803(4) 0.850(2)
N2A N 0.2541(3) -0.5566(3) 0.78983(19)
H2A H 0.215(4) -0.510(4) 0.799(2)
N3A N 0.1928(3) -0.7104(3) 0.66303(19)
H3A H 0.120(3) -0.702(4) 0.660(2)
N4A N 0.1148(3) -0.9355(3) 0.72390(18)
H4A H 0.183(3) -0.951(4) 0.729(2)
N5A N 0.3989(3) -0.1787(3) 0.45501(16)
H5A H 0.329(3) -0.232(5) 0.468(3)
N6A N 0.3664(3) 0.0697(3) 0.47638(17)
H6A H 0.321(4) 0.054(6) 0.5091(17)
N9A N -0.2071(3) -0.3602(3) 0.73316(16)
N10A N -0.2332(3) -0.6302(3) 0.75257(15)
N11A N 0.0905(3) -0.3061(3) 0.71399(15)
O1A O -0.1459(2) -0.4774(3) 0.63678(13)
O2A O -0.2491(3) -0.4081(3) 0.56981(14)
O3A O -0.3190(5) -0.2073(4) 0.88798(18)
O4A O -0.4205(3) -0.1243(3) 0.82951(14)
O5A O 0.0082(2) -0.5783(3) 0.73005(15)
O6A O -0.0095(2) -0.7683(2) 0.75539(15)
O7A O -0.6248(2) -0.7296(3) 0.75591(15)
O7_2 O 0.6248(2) 0.7296(3) 0.24409(15)
O7A_2 O 0.3752(2) -0.7296(3) 0.75591(15)
O8A O -0.6426(3) -0.8915(3) 0.81096(17)
O9A O -0.0045(2) -0.3861(3) 0.82128(13)
O10A O 0.1843(3) -0.2922(3) 0.87149(14)
O11A O 0.4102(2) -0.0631(3) 0.58540(13)
O12A O 0.2050(3) -0.1163(3) 0.55637(15)
C1A C 0.1866(5) -0.6610(5) 0.8836(3)
H11A H 0.1054 -0.6502 0.8814
H12A H 0.2100 -0.6625 0.9278
C2A C 0.2895(4) -0.5514(4) 0.8566(2)
H13A H 0.3724 -0.5581 0.8616
H14A H 0.2971 -0.4699 0.8784
C3A C 0.3561(4) -0.4690(4) 0.7534(2)
H15A H 0.3803 -0.3808 0.7717
H16A H 0.4321 -0.4888 0.7569
C4A C 0.3168(4) -0.4780(4) 0.6860(3)
H17A H 0.2332 -0.4721 0.6829
H18A H 0.3791 -0.4043 0.6673
C5A C 0.3065(4) -0.5991(5) 0.6482(3)
H19A H 0.3839 -0.6143 0.6571
H20A H 0.3015 -0.5883 0.6034
C6A C 0.1791(4) -0.8308(5) 0.6282(2)
H21A H 0.1522 -0.8317 0.5843
H22A H 0.2619 -0.8386 0.6292
C7A C 0.0815(4) -0.9404(4) 0.6569(2)
H23A H 0.0768 -1.0212 0.6355
H24A H -0.0031 -0.9375 0.6516
C8A C 0.0106(4) -1.0239(4) 0.7578(2)
H25A H -0.0661 -1.0059 0.7519
H26A H -0.0104 -1.1119 0.7400
C9A C 0.0443(4) -1.0136(4) 0.8262(2)
H27A H -0.0217 -1.0859 0.8441
H28A H 0.1256 -1.0237 0.8311
C10A C 0.0582(4) -0.8916(4) 0.8648(2)
H29A H 0.0661 -0.9026 0.9094
H30A H -0.0194 -0.8758 0.8575
C11A C 0.4905(4) -0.2379(4) 0.4491(2)
H31A H 0.4447 -0.3309 0.4401
H32A H 0.5457 -0.2047 0.4145
C12A C 0.3330(4) -0.1821(4) 0.3957(2)
H33A H 0.3969 -0.1411 0.3656
H34A H 0.2845 -0.2717 0.3793
C13A C 0.2414(4) -0.1153(4) 0.4012(2)
H35A H 0.1849 -0.1492 0.4353
H36A H 0.1873 -0.1368 0.3622
C14A C 0.3061(4) 0.0289(4) 0.4135(2)
H37A H 0.2421 0.0650 0.4077
H38A H 0.3714 0.0625 0.3829
C15A C 0.4286(4) 0.2077(4) 0.4901(2)
H39A H 0.4830 0.2459 0.4560
H40A H 0.3637 0.2437 0.4938
C21A C -0.2524(3) -0.3531(3) 0.67796(18)
C22A C -0.3325(4) -0.2900(4) 0.6686(2)
H51A H -0.3647 -0.2868 0.6282
C23A C -0.3630(4) -0.2322(4) 0.7211(2)
H52A H -0.4141 -0.1856 0.7167
C24A C -0.3193(4) -0.2426(4) 0.77881(19)
C25A C -0.2391(3) -0.3071(3) 0.78334(19)
H53A H -0.2066 -0.3131 0.8232
C26A C -0.2132(4) -0.4186(4) 0.6233(2)
C27A C -0.3553(4) -0.1860(4) 0.8368(2)
C28A C -0.1911(3) -0.7213(3) 0.75883(18)
C29A C -0.2705(3) -0.8421(3) 0.77319(18)
H54A H -0.2388 -0.9057 0.7771
C30A C -0.3979(3) -0.8669(4) 0.78162(19)
H55A H -0.4543 -0.9480 0.7921
C31A C -0.4419(3) -0.7735(4) 0.77466(18)
C32A C -0.3561(3) -0.6554(3) 0.75984(18)
H56A H -0.3858 -0.5907 0.7547
C33A C -0.0525(3) -0.6860(3) 0.74740(18)
C34A C -0.5817(4) -0.8015(4) 0.7817(2)
C35A C 0.1688(4) -0.2647(3) 0.76386(19)
C36A C 0.2948(4) -0.1756(4) 0.7629(2)
H57A H 0.3496 -0.1482 0.7995
C37A C 0.3363(4) -0.1294(4) 0.7069(2)
H58A H 0.4217 -0.0703 0.7045
C38A C 0.2543(3) -0.1686(3) 0.65399(18)
C39A C 0.1310(3) -0.2599(3) 0.65939(18)
H59A H 0.0742 -0.2901 0.6235
C40A C 0.1141(4) -0.3170(4) 0.82446(19)
C41A C 0.2915(4) -0.1135(4) 0.59199(19)
Ni3 Ni 0.5000 1.0000 0.0000
N7 N 0.3328(4) 1.0253(4) 0.00948(18)
H7 H 0.328(4) 1.079(3) 0.0385(16)
N8 N 0.4507(4) 0.8527(4) 0.05677(18)
H8 H 0.463(5) 0.896(3) 0.0928(8)
O13 O 0.5772(3) 1.1295(3) 0.08047(15)
H9 H 0.650(2) 1.182(4) 0.083(2)
H10 H 0.532(4) 1.157(5) 0.101(3)
C16 C 0.2154(4) 0.9091(5) 0.0107(2)
H41 H 0.1992 0.8583 -0.0300
H42 H 0.1425 0.9329 0.0175
C17 C 0.2246(5) 0.8301(5) 0.0609(2)
H43 H 0.1384 0.7650 0.0660
H44 H 0.2523 0.8854 0.1004
C18 C 0.3143(5) 0.7628(5) 0.0512(3)
H45 H 0.2994 0.7006 0.0824
H46 H 0.2947 0.7156 0.0095
C19 C 0.5384(5) 0.7915(5) 0.0421(3)
H47 H 0.5110 0.7389 0.0019
H48 H 0.5386 0.7358 0.0747
C20 C 0.6700(5) 0.8940(5) 0.0389(2)
H49 H 0.6979 0.9454 0.0794
H50 H 0.7311 0.8553 0.0292
N7A N 0.6672(4) 0.9747(4) -0.00948(18)
H7A H 0.672(4) 0.921(3) -0.0385(16)
N8A N 0.5493(4) 1.1473(4) -0.05677(18)
H8A H 0.537(5) 1.104(3) -0.0928(8)
O13A O 0.4228(3) 0.8705(3) -0.08047(15)
H9A H 0.350(2) 0.818(4) -0.083(2)
H10A H 0.468(4) 0.843(5) -0.101(3)
C16A C 0.7846(4) 1.0909(5) -0.0107(2)
H41A H 0.8008 1.1417 0.0300
H42A H 0.8575 1.0671 -0.0175
C17A C 0.7754(5) 1.1699(5) -0.0609(2)
H43A H 0.8616 1.2350 -0.0660
H44A H 0.7477 1.1146 -0.1004
C18A C 0.6857(5) 1.2372(5) -0.0512(3)
H45A H 0.7006 1.2994 -0.0824
H46A H 0.7053 1.2844 -0.0095
C19A C 0.4616(5) 1.2085(5) -0.0421(3)
H47A H 0.4890 1.2611 -0.0019
H48A H 0.4614 1.2642 -0.0747
C20A C 0.3300(5) 1.1060(5) -0.0389(2)
H49A H 0.3021 1.0546 -0.0794
H50A H 0.2689 1.1447 -0.0292
O14 O 0.0392(4) 0.2412(4) 0.49825(19)
O15 O 0.2484(5) 0.5983(4) 0.5243(2)
H60 H 0.220(4) 0.520(5) 0.490(2)
H61 H 0.174(6) 0.623(5) 0.512(3)
O16 O 0.9615(4) 0.5702(5) 0.4132(2)
H62 H 0.964(6) 0.633(4) 0.439(2)
H63 H 1.000(6) 0.535(5) 0.436(2)
loop_
_geom_bond_atom_site_label_1
_geom_bond_atom_site_label_2
_geom_bond_site_symmetry_1
_geom_bond_site_symmetry_2
Ni1 N1 1_555 1_555
Ni2 N5 1_555 1_555
Ni3 N7 1_555 1_555
Zn1 N9 1_555 1_555
N1 H1 1_555 1_555
N2 Ni1 1_555 1_555
H2 N2 1_555 1_555
N3 Ni1 1_555 1_555
H3 N3 1_555 1_555
N4 Ni1 1_555 1_555
H4 N4 1_555 1_555
N5 H5 1_555 1_555
N6 Ni2 1_555 1_555
H6 N6 1_555 1_555
N7 H7 1_555 1_555
N8 Ni3 1_555 1_555
H8 N8 1_555 1_555
N9 C21 1_555 1_555
N10 Zn1 1_555 1_555
N11 Zn1 1_555 1_555
O1 Zn1 1_555 1_555
O2 C26 1_555 1_555
O3 C27 1_555 1_555
O4 C27 1_555 1_555
O5 Zn1 1_555 1_555
O6 Ni1 1_555 1_555
O7 C34 1_555 1_555
O8 C34 1_555 1_555
O9 Zn1 1_555 1_555
O10 C40 1_555 1_555
O11 Ni2 1_555 1_555
O12 C41 1_555 1_555
O13 Ni3 1_555 1_555
H9 O13 1_555 1_555
H10 O13 1_555 1_555
C1 N1 1_555 1_555
H11 C1 1_555 1_555
H12 C1 1_555 1_555
C2 N2 1_555 1_555
H13 C2 1_555 1_555
H14 C2 1_555 1_555
C3 N2 1_555 1_555
H15 C3 1_555 1_555
H16 C3 1_555 1_555
C4 C3 1_555 1_555
H17 C4 1_555 1_555
H18 C4 1_555 1_555
C5 N3 1_555 1_555
H19 C5 1_555 1_555
H20 C5 1_555 1_555
C6 N3 1_555 1_555
H21 C6 1_555 1_555
H22 C6 1_555 1_555
C7 N4 1_555 1_555
H23 C7 1_555 1_555
H24 C7 1_555 1_555
C8 N4 1_555 1_555
H25 C8 1_555 1_555
H26 C8 1_555 1_555
C9 C8 1_555 1_555
H27 C9 1_555 1_555
H28 C9 1_555 1_555
C10 N1 1_555 1_555
H29 C10 1_555 1_555
H30 C10 1_555 1_555
C11 N5 1_555 1_555
H31 C11 1_555 1_555
H32 C11 1_555 1_555
C12 N5 1_555 1_555
H33 C12 1_555 1_555
H34 C12 1_555 1_555
C13 C12 1_555 1_555
H35 C13 1_555 1_555
H36 C13 1_555 1_555
C14 N6 1_555 1_555
H37 C14 1_555 1_555
H38 C14 1_555 1_555
C15 N6 1_555 1_555
H39 C15 1_555 1_555
H40 C15 1_555 1_555
C16 N7 1_555 1_555
H41 C16 1_555 1_555
H42 C16 1_555 1_555
C17 C16 1_555 1_555
H43 C17 1_555 1_555
H44 C17 1_555 1_555
C18 N8 1_555 1_555
H45 C18 1_555 1_555
H46 C18 1_555 1_555
C19 N8 1_555 1_555
H47 C19 1_555 1_555
H48 C19 1_555 1_555
C20 C19 1_555 1_555
H49 C20 1_555 1_555
H50 C20 1_555 1_555
C21 C22 1_555 1_555
C22 H51 1_555 1_555
C23 C22 1_555 1_555
H52 C23 1_555 1_555
C24 C23 1_555 1_555
C25 N9 1_555 1_555
H53 C25 1_555 1_555
C26 O1 1_555 1_555
C27 C24 1_555 1_555
C28 N10 1_555 1_555
C29 C28 1_555 1_555
H54 C29 1_555 1_555
C30 C29 1_555 1_555
H55 C30 1_555 1_555
C31 C30 1_555 1_555
C32 N10 1_555 1_555
H56 C32 1_555 1_555
C33 O5 1_555 1_555
C34 C31 1_555 1_555
C35 N11 1_555 1_555
C36 C35 1_555 1_555
H57 C36 1_555 1_555
C37 C36 1_555 1_555
H58 C37 1_555 1_555
C38 C37 1_555 1_555
C39 N11 1_555 1_555
H59 C39 1_555 1_555
C40 O9 1_555 1_555
C41 O11 1_555 1_555
O15 H60 1_555 1_555
H61 O15 1_555 1_555
O16 H62 1_555 1_555
H63 O16 1_555 1_555
Ni1A N1A 1_555 1_555
Ni1_2 O7 1_555 1_555
Ni1A_2 O7A 1_555 1_555
Zn1A N9A 1_555 1_555
N1A H1A 1_555 1_555
N2A Ni1A 1_555 1_555
H2A N2A 1_555 1_555
N3A Ni1A 1_555 1_555
H3A N3A 1_555 1_555
N4A Ni1A 1_555 1_555
H4A N4A 1_555 1_555
N5A Ni2 1_555 1_555
H5A N5A 1_555 1_555
N6A Ni2 1_555 1_555
H6A N6A 1_555 1_555
N7A Ni3 1_555 1_555
H7A N7A 1_555 1_555
N8A Ni3 1_555 1_555
H8A N8A 1_555 1_555
N9A C21A 1_555 1_555
N10A Zn1A 1_555 1_555
N11A Zn1A 1_555 1_555
O1A Zn1A 1_555 1_555
O2A C26A 1_555 1_555
O3A C27A 1_555 1_555
O4A C27A 1_555 1_555
O5A Zn1A 1_555 1_555
O6A Ni1A 1_555 1_555
O7A C34A 1_555 1_555
O7_2 Ni1 1_555 1_555
O7A_2 Ni1A 1_555 1_555
O8A C34A 1_555 1_555
O9A Zn1A 1_555 1_555
O10A C40A 1_555 1_555
O11A Ni2 1_555 1_555
O12A C41A 1_555 1_555
O13A Ni3 1_555 1_555
H9A O13A 1_555 1_555
H10A O13A 1_555 1_555
C1A N1A 1_555 1_555
H11A C1A 1_555 1_555
H12A C1A 1_555 1_555
C2A N2A 1_555 1_555
H13A C2A 1_555 1_555
H14A C2A 1_555 1_555
C3A N2A 1_555 1_555
H15A C3A 1_555 1_555
H16A C3A 1_555 1_555
C4A C3A 1_555 1_555
H17A C4A 1_555 1_555
H18A C4A 1_555 1_555
C5A N3A 1_555 1_555
H19A C5A 1_555 1_555
H20A C5A 1_555 1_555
C6A N3A 1_555 1_555
H21A C6A 1_555 1_555
H22A C6A 1_555 1_555
C7A N4A 1_555 1_555
H23A C7A 1_555 1_555
H24A C7A 1_555 1_555
C8A N4A 1_555 1_555
H25A C8A 1_555 1_555
H26A C8A 1_555 1_555
C9A C8A 1_555 1_555
H27A C9A 1_555 1_555
H28A C9A 1_555 1_555
C10A N1A 1_555 1_555
H29A C10A 1_555 1_555
H30A C10A 1_555 1_555
C11A C15 1_555 1_555
H31A C11A 1_555 1_555
H32A C11A 1_555 1_555
C12A N5A 1_555 1_555
H33A C12A 1_555 1_555
H34A C12A 1_555 1_555
C13A C12A 1_555 1_555
H35A C13A 1_555 1_555
H36A C13A 1_555 1_555
C14A N6A 1_555 1_555
H37A C14A 1_555 1_555
H38A C14A 1_555 1_555
C15A C11 1_555 1_555
H39A C15A 1_555 1_555
H40A C15A 1_555 1_555
C16A N7A 1_555 1_555
H41A C16A 1_555 1_555
H42A C16A 1_555 1_555
C17A C16A 1_555 1_555
H43A C17A 1_555 1_555
H44A C17A 1_555 1_555
C18A N8A 1_555 1_555
H45A C18A 1_555 1_555
H46A C18A 1_555 1_555
C19A N8A 1_555 1_555
H47A C19A 1_555 1_555
H48A C19A 1_555 1_555
C20A N7 1_555 1_555
H49A C20A 1_555 1_555
H50A C20A 1_555 1_555
C21A C22A 1_555 1_555
C22A H51A 1_555 1_555
C23A C22A 1_555 1_555
H52A C23A 1_555 1_555
C24A C23A 1_555 1_555
C25A N9A 1_555 1_555
H53A C25A 1_555 1_555
C26A O1A 1_555 1_555
C27A C24A 1_555 1_555
C28A N10A 1_555 1_555
C29A C28A 1_555 1_555
H54A C29A 1_555 1_555
C30A C29A 1_555 1_555
H55A C30A 1_555 1_555
C31A C30A 1_555 1_555
C32A N10A 1_555 1_555
H56A C32A 1_555 1_555
C33A O5A 1_555 1_555
C34A C31A 1_555 1_555
C35A N11A 1_555 1_555
C36A C35A 1_555 1_555
H57A C36A 1_555 1_555
C37A C36A 1_555 1_555
H58A C37A 1_555 1_555
C38A C37A 1_555 1_555
C39A N11A 1_555 1_555
H59A C39A 1_555 1_555
C40A O9A 1_555 1_555
C41A O11A 1_555 1_555
O6 C33 1_555 1_555
C1 C2 1_555 1_555
C4 C5 1_555 1_555
C6 C7 1_555 1_555
C9 C10 1_555 1_555
C13 C14 1_555 1_555
C17 C18 1_555 1_555
C20 N7A 1_555 1_555
C21 C26 1_555 1_555
C24 C25 1_555 1_555
C28 C33 1_555 1_555
C31 C32 1_555 1_555
C35 C40 1_555 1_555
C38 C39 1_555 1_555
C38 C41 1_555 1_555
N5A C11A 1_555 1_555
N6A C15A 1_555 1_555
O6A C33A 1_555 1_555
C1A C2A 1_555 1_555
C4A C5A 1_555 1_555
C6A C7A 1_555 1_555
C9A C10A 1_555 1_555
C13A C14A 1_555 1_555
C17A C18A 1_555 1_555
C19A C20A 1_555 1_555
C21A C26A 1_555 1_555
C24A C25A 1_555 1_555
C28A C33A 1_555 1_555
C31A C32A 1_555 1_555
C35A C40A 1_555 1_555
C38A C39A 1_555 1_555
C38A C41A 1_555 1_555

#END
