
#######################################################################
#
#                 Cambridge Crystallographic Data Centre
#                                CCDC 
#
#######################################################################
#
# If this CIF has been generated from an entry in the Cambridge 
# Structural Database, then it will include bibliographic, chemical, 
# crystal, experimental, refinement or atomic coordinate data resulting 
# from the CCDC's data processing and validation procedures.
#
#######################################################################

data_FEPLOD
_symmetry_cell_setting           triclinic
_symmetry_space_group_name_H-M   'P -1'
_symmetry_Int_Tables_number      2
_space_group_name_Hall           '-P 1'
loop_
_symmetry_equiv_pos_site_id
_symmetry_equiv_pos_as_xyz
1 x,y,z
2 -x,-y,-z
_cell_length_a                   11.5056(8)
_cell_length_b                   11.6391(8)
_cell_length_c                   21.8286(15)
_cell_angle_alpha                91.6950(10)
_cell_angle_beta                 94.3000(10)
_cell_angle_gamma                113.4320(10)
_cell_volume                     2668.92
loop_
_atom_site_label
_atom_site_type_symbol
_atom_site_fract_x
_atom_site_fract_y
_atom_site_fract_z
Zn1 Zn -0.24319(4) 0.19325(4) 0.25587(2)
Zn2 Zn 0.5000 0.5000 0.0000
Zn4 Zn 0.04458(4) -0.08445(3) 0.230150(18)
N1 N 0.1439(3) -0.2042(3) 0.23305(13)
N2 N 0.1940(3) 0.0902(3) 0.21455(13)
N3 N -0.1295(3) -0.2313(3) 0.25186(13)
N4 N -0.4379(3) 0.1207(3) 0.22262(18)
H1 H -0.458(4) 0.185(3) 0.2275(18)
N5 N -0.2092(3) 0.1972(4) 0.16261(18)
H2 H -0.213(9) 0.119(4) 0.1528(16)
N6 N -0.0510(3) 0.2547(3) 0.28864(18)
H3 H -0.033(5) 0.192(5) 0.275(2)
N7 N -0.2769(3) 0.1752(3) 0.34831(18)
H4 H -0.280(4) 0.244(3) 0.3668(19)
N8 N 0.6829(3) 0.6021(3) 0.04436(14)
H5 H 0.728(5) 0.652(5) 0.017(2)
N9 N 0.4293(3) 0.6340(3) 0.02329(14)
H6 H 0.445(6) 0.684(4) -0.0090(19)
O1 O 0.0267(2) -0.1443(2) 0.13655(12)
O2 O 0.0943(4) -0.2466(4) 0.07099(14)
O3 O 0.3708(3) -0.4242(3) 0.32842(13)
O4 O 0.3093(4) -0.3023(4) 0.38636(15)
O5 O 0.1134(3) -0.0048(2) 0.32057(12)
O6 O 0.2071(3) 0.1807(3) 0.37153(12)
O7 O 0.4360(3) 0.4081(2) 0.08920(12)
O8 O 0.3829(3) 0.2083(3) 0.05848(13)
O9 O -0.0799(2) 0.0060(2) 0.22745(14)
O10 O -0.2705(2) -0.0122(2) 0.25193(14)
O11 O -0.3858(3) -0.6324(2) 0.31375(14)
O12 O -0.2255(3) -0.6139(2) 0.25680(16)
C1 C 0.1491(3) -0.2532(3) 0.17679(16)
C2 C 0.2096(4) -0.3325(4) 0.16900(18)
H11 H 0.2120 -0.3660 0.1291
C3 C 0.2676(4) -0.3628(4) 0.22082(18)
H12 H 0.3112 -0.4164 0.2163
C4 C 0.2617(3) -0.3154(3) 0.27840(16)
C5 C 0.1977(3) -0.2350(3) 0.28233(16)
H13 H 0.1927 -0.2014 0.3218
C6 C 0.0845(4) -0.2117(4) 0.12328(18)
C7 C 0.3185(4) -0.3489(4) 0.33624(17)
C8 C 0.2363(3) 0.1682(3) 0.26569(15)
C9 C 0.3238(3) 0.2901(3) 0.26432(16)
H14 H 0.3518 0.3441 0.3008
C10 C 0.3702(3) 0.3326(3) 0.20874(17)
H15 H 0.4295 0.4168 0.2069
C11 C 0.3306(3) 0.2530(3) 0.15601(15)
C12 C 0.2416(3) 0.1315(3) 0.16116(16)
H16 H 0.2132 0.0753 0.1255
C13 C 0.1813(3) 0.1107(3) 0.32476(16)
C14 C 0.3870(4) 0.2937(3) 0.09556(17)
C15 C -0.1539(3) -0.3514(3) 0.25980(17)
H17 H -0.0883 -0.3803 0.2554
C16 C -0.2731(3) -0.4367(3) 0.27442(16)
C17 C -0.3666(3) -0.3922(3) 0.28143(16)
H18 H -0.4471 -0.4465 0.2931
C18 C -0.3426(3) -0.2686(3) 0.27137(16)
H19 H -0.4071 -0.2377 0.2743
C19 C -0.2223(3) -0.1903(3) 0.25696(15)
C20 C -0.1893(3) -0.0541(3) 0.24460(16)
C21 C -0.2967(3) -0.5722(3) 0.28294(18)
C22 C -0.4412(4) 0.0851(5) 0.1571(3)
H20 H -0.5230 0.0768 0.1353
H21 H -0.4350 0.0028 0.1530
C23 C -0.3308(5) 0.1843(5) 0.1282(3)
H22 H -0.3319 0.1587 0.0844
H23 H -0.3392 0.2657 0.1301
C24 C -0.0974(5) 0.3093(4) 0.1479(3)
H24 H -0.1125 0.3859 0.1568
H25 H -0.0864 0.3038 0.1035
C25 C 0.0228(4) 0.3183(4) 0.1856(3)
H26 H 0.0969 0.3785 0.1668
H27 H 0.0275 0.2353 0.1821
C26 C 0.0359(4) 0.3586(4) 0.2538(2)
H28 H 0.1250 0.3825 0.2711
H29 H 0.0151 0.4329 0.2586
C27 C -0.0467(4) 0.2888(5) 0.3557(2)
H30 H -0.0539 0.3704 0.3610
H31 H 0.0352 0.2966 0.3772
C28 C -0.1559(5) 0.1874(5) 0.3823(2)
H32 H -0.1463 0.1067 0.3787
H33 H -0.1560 0.2093 0.4264
C29 C -0.3897(4) 0.0610(4) 0.3624(2)
H34 H -0.3997 0.0642 0.4070
H35 H -0.3748 -0.0152 0.3522
C30 C -0.5108(4) 0.0530(4) 0.3262(2)
H36 H -0.5160 0.1356 0.3310
H37 H -0.5842 -0.0088 0.3447
C31 C -0.5245(4) 0.0158(4) 0.2565(2)
H38 H -0.5042 -0.0586 0.2505
H39 H -0.6136 -0.0071 0.2396
C32 C 0.7093(4) 0.4286(4) -0.00944(19)
H40 H 0.7471 0.4817 -0.0433
H41 H 0.7459 0.3649 -0.0058
C33 C 0.7407(4) 0.5091(4) 0.05039(19)
H42 H 0.7067 0.4557 0.0847
H43 H 0.8341 0.5529 0.0593
C34 C 0.6849(4) 0.6695(4) 0.10355(18)
H44 H 0.7744 0.7182 0.1201
H45 H 0.6437 0.6072 0.1335
C35 C 0.6177(4) 0.7576(4) 0.09708(18)
H46 H 0.6509 0.8110 0.0626
H47 H 0.6405 0.8136 0.1351
C36 C 0.4731(4) 0.6963(4) 0.08571(17)
H48 H 0.4392 0.6335 0.1165
H49 H 0.4386 0.7610 0.0913
Zn1A Zn 1.24319(4) 0.80675(4) -0.25587(2)
Zn1_2 Zn -0.24319(4) -0.80675(4) 0.25587(2)
Zn1A_2 Zn 1.24319(4) 1.80675(4) -0.25587(2)
Zn4A Zn 0.95542(4) 1.08445(3) -0.230150(18)
N1A N 0.8561(3) 1.2042(3) -0.23305(13)
N2A N 0.8060(3) 0.9098(3) -0.21455(13)
N3A N 1.1295(3) 1.2313(3) -0.25186(13)
N4A N 1.4379(3) 0.8793(3) -0.22262(18)
H1A H 1.458(4) 0.815(3) -0.2275(18)
N5A N 1.2092(3) 0.8028(4) -0.16261(18)
H2A H 1.213(9) 0.881(4) -0.1528(16)
N6A N 1.0510(3) 0.7453(3) -0.28864(18)
H3A H 1.033(5) 0.808(5) -0.275(2)
N7A N 1.2769(3) 0.8248(3) -0.34831(18)
H4A H 1.280(4) 0.756(3) -0.3668(19)
N8A N 0.3171(3) 0.3979(3) -0.04436(14)
H5A H 0.272(5) 0.348(5) -0.017(2)
N9A N 0.5707(3) 0.3660(3) -0.02329(14)
H6A H 0.555(6) 0.316(4) 0.0090(19)
O1A O 0.9733(2) 1.1443(2) -0.13655(12)
O2A O 0.9057(4) 1.2466(4) -0.07099(14)
O3A O 0.6292(3) 1.4242(3) -0.32842(13)
O4A O 0.6907(4) 1.3023(4) -0.38636(15)
O5A O 0.8866(3) 1.0048(2) -0.32057(12)
O6A O 0.7929(3) 0.8193(3) -0.37153(12)
O7A O 0.5640(3) 0.5919(2) -0.08920(12)
O8A O 0.6171(3) 0.7917(3) -0.05848(13)
O9A O 1.0799(2) 0.9940(2) -0.22745(14)
O10A O 1.2705(2) 1.0122(2) -0.25193(14)
O11A O 1.3858(3) 1.6324(2) -0.31375(14)
O12A O 1.2255(3) 1.6139(2) -0.25680(16)
O12_2 O -0.2255(3) 0.3861(2) 0.25680(16)
O12A_2 O 1.2255(3) 0.6139(2) -0.25680(16)
C1A C 0.8509(3) 1.2532(3) -0.17679(16)
C2A C 0.7904(4) 1.3325(4) -0.16900(18)
H11A H 0.7880 1.3660 -0.1291
C3A C 0.7324(4) 1.3628(4) -0.22082(18)
H12A H 0.6888 1.4164 -0.2163
C4A C 0.7383(3) 1.3154(3) -0.27840(16)
C5A C 0.8023(3) 1.2350(3) -0.28233(16)
H13A H 0.8073 1.2014 -0.3218
C6A C 0.9155(4) 1.2117(4) -0.12328(18)
C7A C 0.6815(4) 1.3489(4) -0.33624(17)
C8A C 0.7637(3) 0.8318(3) -0.26569(15)
C9A C 0.6762(3) 0.7099(3) -0.26432(16)
H14A H 0.6482 0.6559 -0.3008
C10A C 0.6298(3) 0.6674(3) -0.20874(17)
H15A H 0.5705 0.5832 -0.2069
C11A C 0.6694(3) 0.7470(3) -0.15601(15)
C12A C 0.7584(3) 0.8685(3) -0.16116(16)
H16A H 0.7868 0.9247 -0.1255
C13A C 0.8187(3) 0.8893(3) -0.32476(16)
C14A C 0.6130(4) 0.7063(3) -0.09556(17)
C15A C 1.1539(3) 1.3514(3) -0.25980(17)
H17A H 1.0883 1.3803 -0.2554
C16A C 1.2731(3) 1.4367(3) -0.27442(16)
C17A C 1.3666(3) 1.3922(3) -0.28143(16)
H18A H 1.4471 1.4465 -0.2931
C18A C 1.3426(3) 1.2686(3) -0.27137(16)
H19A H 1.4071 1.2377 -0.2743
C19A C 1.2223(3) 1.1903(3) -0.25696(15)
C20A C 1.1893(3) 1.0541(3) -0.24460(16)
C21A C 1.2967(3) 1.5722(3) -0.28294(18)
C22A C 1.4412(4) 0.9149(5) -0.1571(3)
H20A H 1.5230 0.9232 -0.1353
H21A H 1.4350 0.9972 -0.1530
C23A C 1.3308(5) 0.8157(5) -0.1282(3)
H22A H 1.3319 0.8413 -0.0844
H23A H 1.3392 0.7343 -0.1301
C24A C 1.0974(5) 0.6907(4) -0.1479(3)
H24A H 1.1125 0.6141 -0.1568
H25A H 1.0864 0.6962 -0.1035
C25A C 0.9772(4) 0.6817(4) -0.1856(3)
H26A H 0.9031 0.6215 -0.1668
H27A H 0.9725 0.7647 -0.1821
C26A C 0.9641(4) 0.6414(4) -0.2538(2)
H28A H 0.8750 0.6175 -0.2711
H29A H 0.9849 0.5671 -0.2586
C27A C 1.0467(4) 0.7112(5) -0.3557(2)
H30A H 1.0539 0.6296 -0.3610
H31A H 0.9648 0.7034 -0.3772
C28A C 1.1559(5) 0.8126(5) -0.3823(2)
H32A H 1.1463 0.8933 -0.3787
H33A H 1.1560 0.7907 -0.4264
C29A C 1.3897(4) 0.9390(4) -0.3624(2)
H34A H 1.3997 0.9358 -0.4070
H35A H 1.3748 1.0152 -0.3522
C30A C 1.5108(4) 0.9470(4) -0.3262(2)
H36A H 1.5160 0.8644 -0.3310
H37A H 1.5842 1.0088 -0.3447
C31A C 1.5245(4) 0.9842(4) -0.2565(2)
H38A H 1.5042 1.0586 -0.2505
H39A H 1.6136 1.0071 -0.2396
C32A C 0.2907(4) 0.5714(4) 0.00944(19)
H40A H 0.2529 0.5183 0.0433
H41A H 0.2541 0.6351 0.0058
C33A C 0.2593(4) 0.4909(4) -0.05039(19)
H42A H 0.2933 0.5443 -0.0847
H43A H 0.1659 0.4471 -0.0593
C34A C 0.3151(4) 0.3305(4) -0.10355(18)
H44A H 0.2256 0.2818 -0.1201
H45A H 0.3563 0.3928 -0.1335
C35A C 0.3823(4) 0.2424(4) -0.09708(18)
H46A H 0.3491 0.1890 -0.0626
H47A H 0.3595 0.1864 -0.1351
C36A C 0.5269(4) 0.3037(4) -0.08571(17)
H48A H 0.5608 0.3665 -0.1165
H49A H 0.5614 0.2390 -0.0913
Zn3 Zn 0.5000 0.5000 0.5000
N10 N 0.6489(4) 0.5440(4) 0.44212(16)
H7 H 0.594(4) 0.515(4) 0.4063(14)
N11 N 0.4762(4) 0.6676(3) 0.48892(16)
H8 H 0.443(4) 0.667(4) 0.4506(11)
O13 O 0.3592(3) 0.4192(3) 0.41832(13)
H9 H 0.361(5) 0.479(5) 0.397(2)
H10 H 0.306(3) 0.348(2) 0.4064(19)
C37 C 0.7381(5) 0.6781(5) 0.4471(2)
H50 H 0.8001 0.6918 0.4161
H51 H 0.7861 0.6983 0.4884
C38 C 0.6724(6) 0.7662(5) 0.4376(2)
H52 H 0.6155 0.7376 0.3989
H53 H 0.7381 0.8503 0.4316
C39 C 0.5938(5) 0.7807(4) 0.4886(2)
H54 H 0.6444 0.7955 0.5290
H55 H 0.5727 0.8542 0.4818
C40 C 0.3979(6) 0.6741(5) 0.5381(2)
H56 H 0.3605 0.7356 0.5288
H57 H 0.4515 0.7020 0.5778
C41 C 0.2934(5) 0.5461(5) 0.5427(3)
H58 H 0.2390 0.5499 0.5751
H59 H 0.2394 0.5184 0.5031
N10A N 0.3511(4) 0.4560(4) 0.55788(16)
H7A H 0.406(4) 0.485(4) 0.5937(14)
N11A N 0.5238(4) 0.3324(3) 0.51108(16)
H8A H 0.557(4) 0.333(4) 0.5494(11)
O13A O 0.6408(3) 0.5808(3) 0.58168(13)
H9A H 0.639(5) 0.521(5) 0.603(2)
H10A H 0.694(3) 0.652(2) 0.5936(19)
C37A C 0.2619(5) 0.3219(5) 0.5529(2)
H50A H 0.1999 0.3082 0.5839
H51A H 0.2139 0.3017 0.5116
C38A C 0.3276(6) 0.2338(5) 0.5624(2)
H52A H 0.3845 0.2624 0.6011
H53A H 0.2619 0.1497 0.5684
C39A C 0.4062(5) 0.2193(4) 0.5114(2)
H54A H 0.3556 0.2045 0.4710
H55A H 0.4273 0.1458 0.5182
C40A C 0.6021(6) 0.3259(5) 0.4619(2)
H56A H 0.6395 0.2644 0.4712
H57A H 0.5485 0.2980 0.4222
C41A C 0.7066(5) 0.4539(5) 0.4573(3)
H58A H 0.7610 0.4501 0.4249
H59A H 0.7606 0.4816 0.4969
O14 O 0.2574(5) 0.9705(4) 0.0035(2)
H60 H 0.334(2) 0.964(4) 0.021(2)
H61 H 0.207(3) 0.908(4) 0.024(2)
O15 O 0.9316(5) 0.0412(5) 0.0866(2)
H62 H 0.870(5) 0.057(6) 0.065(3)
H63 H 0.943(7) -0.010(6) 0.059(2)
O16 O 0.3459(10) 0.9117(7) 0.4604(4)
O17 O 0.0928(4) 0.2525(5) 0.0245(2)
H64 H 0.104(9) 0.200(6) -0.002(3)
H65 H 0.046(7) 0.200(6) 0.049(3)
loop_
_geom_bond_atom_site_label_1
_geom_bond_atom_site_label_2
_geom_bond_site_symmetry_1
_geom_bond_site_symmetry_2
Zn1 N4 1_555 1_555
Zn2 N8 1_555 1_555
Zn3 N10 1_555 1_555
Zn4 N1 1_555 1_555
N1 C1 1_555 1_555
N2 Zn4 1_555 1_555
N3 Zn4 1_555 1_555
N4 H1 1_555 1_555
N5 Zn1 1_555 1_555
H2 N5 1_555 1_555
N6 Zn1 1_555 1_555
H3 N6 1_555 1_555
N7 Zn1 1_555 1_555
H4 N7 1_555 1_555
N8 H5 1_555 1_555
N9 Zn2 1_555 1_555
H6 N9 1_555 1_555
N10 H7 1_555 1_555
N11 Zn3 1_555 1_555
H8 N11 1_555 1_555
O1 Zn4 1_555 1_555
O2 C6 1_555 1_555
O3 C7 1_555 1_555
O4 C7 1_555 1_555
O5 Zn4 1_555 1_555
O6 C13 1_555 1_555
O7 Zn2 1_555 1_555
O8 C14 1_555 1_555
O9 Zn4 1_555 1_555
O10 Zn1 1_555 1_555
O11 C21 1_555 1_555
O12 C21 1_555 1_555
O13 Zn3 1_555 1_555
H9 O13 1_555 1_555
H10 O13 1_555 1_555
C1 C2 1_555 1_555
C2 H11 1_555 1_555
C3 C2 1_555 1_555
H12 C3 1_555 1_555
C4 C3 1_555 1_555
C5 N1 1_555 1_555
H13 C5 1_555 1_555
C6 O1 1_555 1_555
C7 C4 1_555 1_555
C8 N2 1_555 1_555
C9 C8 1_555 1_555
H14 C9 1_555 1_555
C10 C9 1_555 1_555
H15 C10 1_555 1_555
C11 C10 1_555 1_555
C12 N2 1_555 1_555
H16 C12 1_555 1_555
C13 O5 1_555 1_555
C14 O7 1_555 1_555
C15 N3 1_555 1_555
H17 C15 1_555 1_555
C16 C15 1_555 1_555
C17 C16 1_555 1_555
H18 C17 1_555 1_555
C18 C17 1_555 1_555
H19 C18 1_555 1_555
C19 N3 1_555 1_555
C20 O9 1_555 1_555
C21 C16 1_555 1_555
C22 N4 1_555 1_555
H20 C22 1_555 1_555
H21 C22 1_555 1_555
C23 N5 1_555 1_555
H22 C23 1_555 1_555
H23 C23 1_555 1_555
C24 N5 1_555 1_555
H24 C24 1_555 1_555
H25 C24 1_555 1_555
C25 C24 1_555 1_555
H26 C25 1_555 1_555
H27 C25 1_555 1_555
C26 N6 1_555 1_555
H28 C26 1_555 1_555
H29 C26 1_555 1_555
C27 N6 1_555 1_555
H30 C27 1_555 1_555
H31 C27 1_555 1_555
C28 N7 1_555 1_555
H32 C28 1_555 1_555
H33 C28 1_555 1_555
C29 N7 1_555 1_555
H34 C29 1_555 1_555
H35 C29 1_555 1_555
C30 C29 1_555 1_555
H36 C30 1_555 1_555
H37 C30 1_555 1_555
C31 N4 1_555 1_555
H38 C31 1_555 1_555
H39 C31 1_555 1_555
C32 H40 1_555 1_555
H41 C32 1_555 1_555
C33 N8 1_555 1_555
H42 C33 1_555 1_555
H43 C33 1_555 1_555
C34 N8 1_555 1_555
H44 C34 1_555 1_555
H45 C34 1_555 1_555
C35 C34 1_555 1_555
H46 C35 1_555 1_555
H47 C35 1_555 1_555
C36 N9 1_555 1_555
H48 C36 1_555 1_555
H49 C36 1_555 1_555
C37 N10 1_555 1_555
H50 C37 1_555 1_555
H51 C37 1_555 1_555
C38 C37 1_555 1_555
H52 C38 1_555 1_555
H53 C38 1_555 1_555
C39 N11 1_555 1_555
H54 C39 1_555 1_555
H55 C39 1_555 1_555
C40 N11 1_555 1_555
H56 C40 1_555 1_555
H57 C40 1_555 1_555
C41 C40 1_555 1_555
H58 C41 1_555 1_555
H59 C41 1_555 1_555
O14 H60 1_555 1_555
H61 O14 1_555 1_555
O15 H62 1_555 1_555
H63 O15 1_555 1_555
O17 H64 1_555 1_555
H65 O17 1_555 1_555
Zn1A N4A 1_555 1_555
Zn1_2 O12 1_555 1_555
Zn1A_2 O12A 1_555 1_555
Zn4A N1A 1_555 1_555
N1A C1A 1_555 1_555
N2A Zn4A 1_555 1_555
N3A Zn4A 1_555 1_555
N4A H1A 1_555 1_555
N5A Zn1A 1_555 1_555
H2A N5A 1_555 1_555
N6A Zn1A 1_555 1_555
H3A N6A 1_555 1_555
N7A Zn1A 1_555 1_555
H4A N7A 1_555 1_555
N8A Zn2 1_555 1_555
H5A N8A 1_555 1_555
N9A Zn2 1_555 1_555
H6A N9A 1_555 1_555
N10A Zn3 1_555 1_555
H7A N10A 1_555 1_555
N11A Zn3 1_555 1_555
H8A N11A 1_555 1_555
O1A Zn4A 1_555 1_555
O2A C6A 1_555 1_555
O3A C7A 1_555 1_555
O4A C7A 1_555 1_555
O5A Zn4A 1_555 1_555
O6A C13A 1_555 1_555
O7A Zn2 1_555 1_555
O8A C14A 1_555 1_555
O9A Zn4A 1_555 1_555
O10A Zn1A 1_555 1_555
O11A C21A 1_555 1_555
O12A C21A 1_555 1_555
O12_2 Zn1 1_555 1_555
O12A_2 Zn1A 1_555 1_555
O13A Zn3 1_555 1_555
H9A O13A 1_555 1_555
H10A O13A 1_555 1_555
C1A C2A 1_555 1_555
C2A H11A 1_555 1_555
C3A C2A 1_555 1_555
H12A C3A 1_555 1_555
C4A C3A 1_555 1_555
C5A N1A 1_555 1_555
H13A C5A 1_555 1_555
C6A O1A 1_555 1_555
C7A C4A 1_555 1_555
C8A N2A 1_555 1_555
C9A C8A 1_555 1_555
H14A C9A 1_555 1_555
C10A C9A 1_555 1_555
H15A C10A 1_555 1_555
C11A C10A 1_555 1_555
C12A N2A 1_555 1_555
H16A C12A 1_555 1_555
C13A O5A 1_555 1_555
C14A O7A 1_555 1_555
C15A N3A 1_555 1_555
H17A C15A 1_555 1_555
C16A C15A 1_555 1_555
C17A C16A 1_555 1_555
H18A C17A 1_555 1_555
C18A C17A 1_555 1_555
H19A C18A 1_555 1_555
C19A N3A 1_555 1_555
C20A O9A 1_555 1_555
C21A C16A 1_555 1_555
C22A N4A 1_555 1_555
H20A C22A 1_555 1_555
H21A C22A 1_555 1_555
C23A N5A 1_555 1_555
H22A C23A 1_555 1_555
H23A C23A 1_555 1_555
C24A N5A 1_555 1_555
H24A C24A 1_555 1_555
H25A C24A 1_555 1_555
C25A C24A 1_555 1_555
H26A C25A 1_555 1_555
H27A C25A 1_555 1_555
C26A N6A 1_555 1_555
H28A C26A 1_555 1_555
H29A C26A 1_555 1_555
C27A N6A 1_555 1_555
H30A C27A 1_555 1_555
H31A C27A 1_555 1_555
C28A N7A 1_555 1_555
H32A C28A 1_555 1_555
H33A C28A 1_555 1_555
C29A N7A 1_555 1_555
H34A C29A 1_555 1_555
H35A C29A 1_555 1_555
C30A C29A 1_555 1_555
H36A C30A 1_555 1_555
H37A C30A 1_555 1_555
C31A N4A 1_555 1_555
H38A C31A 1_555 1_555
H39A C31A 1_555 1_555
C32A N9 1_555 1_555
H40A C32A 1_555 1_555
H41A C32A 1_555 1_555
C33A N8A 1_555 1_555
H42A C33A 1_555 1_555
H43A C33A 1_555 1_555
C34A N8A 1_555 1_555
H44A C34A 1_555 1_555
H45A C34A 1_555 1_555
C35A C34A 1_555 1_555
H46A C35A 1_555 1_555
H47A C35A 1_555 1_555
C36A N9A 1_555 1_555
H48A C36A 1_555 1_555
H49A C36A 1_555 1_555
C37A N10A 1_555 1_555
H50A C37A 1_555 1_555
H51A C37A 1_555 1_555
C38A C37A 1_555 1_555
H52A C38A 1_555 1_555
H53A C38A 1_555 1_555
C39A N11A 1_555 1_555
H54A C39A 1_555 1_555
H55A C39A 1_555 1_555
C40A N11A 1_555 1_555
H56A C40A 1_555 1_555
H57A C40A 1_555 1_555
C41A N10 1_555 1_555
H58A C41A 1_555 1_555
H59A C41A 1_555 1_555
O10 C20 1_555 1_555
C1 C6 1_555 1_555
C4 C5 1_555 1_555
C8 C13 1_555 1_555
C11 C12 1_555 1_555
C11 C14 1_555 1_555
C18 C19 1_555 1_555
C19 C20 1_555 1_555
C22 C23 1_555 1_555
C25 C26 1_555 1_555
C27 C28 1_555 1_555
C30 C31 1_555 1_555
C32 C33 1_555 1_555
C32 N9A 1_555 1_555
C35 C36 1_555 1_555
C38 C39 1_555 1_555
C41 N10A 1_555 1_555
O10A C20A 1_555 1_555
C1A C6A 1_555 1_555
C4A C5A 1_555 1_555
C8A C13A 1_555 1_555
C11A C12A 1_555 1_555
C11A C14A 1_555 1_555
C18A C19A 1_555 1_555
C19A C20A 1_555 1_555
C22A C23A 1_555 1_555
C25A C26A 1_555 1_555
C27A C28A 1_555 1_555
C30A C31A 1_555 1_555
C32A C33A 1_555 1_555
C35A C36A 1_555 1_555
C38A C39A 1_555 1_555
C40A C41A 1_555 1_555

#END
