
#######################################################################
#
#                 Cambridge Crystallographic Data Centre
#                                CCDC 
#
#######################################################################
#
# If this CIF has been generated from an entry in the Cambridge 
# Structural Database, then it will include bibliographic, chemical, 
# crystal, experimental, refinement or atomic coordinate data resulting 
# from the CCDC's data processing and validation procedures.
#
#######################################################################

data_FEPMEU
_symmetry_cell_setting           triclinic
_symmetry_space_group_name_H-M   'P -1'
_symmetry_Int_Tables_number      2
_space_group_name_Hall           '-P 1'
loop_
_symmetry_equiv_pos_site_id
_symmetry_equiv_pos_as_xyz
1 x,y,z
2 -x,-y,-z
_cell_length_a                   9.706(4)
_cell_length_b                   10.184(4)
_cell_length_c                   10.607(4)
_cell_angle_alpha                62.712(4)
_cell_angle_beta                 85.470(5)
_cell_angle_gamma                69.691(4)
_cell_volume                     869.805
loop_
_atom_site_label
_atom_site_type_symbol
_atom_site_fract_x
_atom_site_fract_y
_atom_site_fract_z
Cu1 Cu 1.0000 1.0000 0.0000
N1 N 0.7830(3) 1.0611(3) 0.0152(3)
N2 N 0.9642(3) 0.3593(3) 0.4263(3)
H1 H 1.003(4) 0.260(5) 0.492(4)
N3 N 0.8193(3) 0.5090(3) 0.6154(3)
H2 H 0.849(4) 0.423(3) 0.695(3)
Ni1 Ni 1.0000 0.5000 0.5000
O1 O 1.0060(2) 0.8143(2) 0.1785(2)
O2 O 0.8579(2) 0.7046(2) 0.3284(2)
O3 O 0.2384(3) 1.2586(3) 0.0426(3)
O4 O 0.3157(3) 1.0320(4) 0.2376(3)
O5 O 1.0133(4) 0.8384(4) -0.1221(4)
H3 H 0.929(3) 0.840(7) -0.121(7)
H4 H 1.066(5) 0.748(4) -0.076(8)
C1 C 0.7498(3) 0.9556(3) 0.1349(3)
C2 C 0.6088(3) 0.9761(4) 0.1741(3)
H5 H 0.5901 0.9002 0.2582
C3 C 0.4943(3) 1.1115(4) 0.0865(3)
C4 C 0.5281(3) 1.2189(4) -0.0379(3)
H6 H 0.4538 1.3098 -0.1001
C5 C 0.6736(3) 1.1903(4) -0.0694(3)
H7 H 0.6954 1.2642 -0.1529
C6 C 0.8806(3) 0.8128(3) 0.2221(3)
C7 C 0.3361(4) 1.1358(4) 0.1273(4)
C8 C 0.8091(4) 0.3907(4) 0.3899(4)
H8 H 0.8041 0.3155 0.3600
H9 H 0.7673 0.4957 0.3109
C9 C 0.7197(4) 0.3784(4) 0.5162(4)
H10 H 0.6268 0.3721 0.4967
H11 H 0.7726 0.2806 0.5989
C10 C 0.6866(3) 0.5122(4) 0.5531(4)
H12 H 0.6463 0.6118 0.4676
H13 H 0.6125 0.5056 0.6205
C11 C 0.7949(4) 0.6405(4) 0.6467(4)
H14 H 0.7315 0.6325 0.7234
H15 H 0.7467 0.7397 0.5632
C12 C 1.0582(4) 0.3640(5) 0.3102(4)
H16 H 1.0718 0.2743 0.2939
H17 H 1.0126 0.4598 0.2230
N1A N 1.2170(3) 0.9389(3) -0.0152(3)
N2A N 1.0358(3) 0.6407(3) 0.5737(3)
H1A H 0.997(4) 0.740(5) 0.508(4)
N3A N 1.1807(3) 0.4910(3) 0.3846(3)
H2A H 1.151(4) 0.577(3) 0.305(3)
Ni1_2 Ni 1.0000 1.5000 -0.5000
O1A O 0.9940(2) 1.1857(2) -0.1785(2)
O2A O 1.1421(2) 1.2954(2) -0.3284(2)
O2A_2 O 1.1421(2) 0.2954(2) 0.6716(2)
O3A O 1.7616(3) 0.7414(3) -0.0426(3)
O4A O 1.6843(3) 0.9680(4) -0.2376(3)
O5A O 0.9867(4) 1.1616(4) 0.1221(4)
H3A H 1.071(3) 1.160(7) 0.121(7)
H4A H 0.934(5) 1.252(4) 0.076(8)
C1A C 1.2502(3) 1.0444(3) -0.1349(3)
C2A C 1.3912(3) 1.0239(4) -0.1741(3)
H5A H 1.4099 1.0998 -0.2582
C3A C 1.5057(3) 0.8885(4) -0.0865(3)
C4A C 1.4719(3) 0.7811(4) 0.0379(3)
H6A H 1.5462 0.6902 0.1001
C5A C 1.3264(3) 0.8097(4) 0.0694(3)
H7A H 1.3046 0.7358 0.1529
C6A C 1.1194(3) 1.1872(3) -0.2221(3)
C7A C 1.6639(4) 0.8642(4) -0.1273(4)
C8A C 1.1909(4) 0.6093(4) 0.6101(4)
H8A H 1.1959 0.6845 0.6400
H9A H 1.2327 0.5043 0.6891
C9A C 1.2803(4) 0.6216(4) 0.4838(4)
H10A H 1.3732 0.6279 0.5033
H11A H 1.2274 0.7194 0.4011
C10A C 1.3134(3) 0.4878(4) 0.4469(4)
H12A H 1.3537 0.3882 0.5324
H13A H 1.3875 0.4944 0.3795
C11A C 1.2051(4) 0.3595(4) 0.3533(4)
H14A H 1.2685 0.3675 0.2766
H15A H 1.2533 0.2603 0.4368
C12A C 0.9418(4) 0.6360(5) 0.6898(4)
H16A H 0.9282 0.7257 0.7061
H17A H 0.9874 0.5402 0.7770
O6 O 0.0883(4) 1.0015(3) 0.6002(3)
H18 H 0.045(6) 0.968(7) 0.670(4)
O7 O 0.5372(4) 0.3779(4) 0.2034(4)
H19 H 0.588(6) 0.286(3) 0.253(5)
H20 H 0.483(6) 0.372(7) 0.151(5)
O8 O 0.6086(4) 0.0801(4) 0.4730(4)
H21 H 0.618(6) 0.062(7) 0.558(3)
H22 H 0.688(4) 0.022(7) 0.464(6)
O9 O 0.7392(4) 0.4573(4) 0.0031(4)
H23 H 0.671(7) 0.426(11) 0.033(11)
loop_
_geom_bond_atom_site_label_1
_geom_bond_atom_site_label_2
_geom_bond_site_symmetry_1
_geom_bond_site_symmetry_2
Cu1 N1 1_555 1_555
N1 C1 1_555 1_555
N2 H1 1_555 1_555
N3 H2 1_555 1_555
Ni1 N2 1_555 1_555
O1 Cu1 1_555 1_555
O2 Ni1 1_555 1_555
O3 C7 1_555 1_555
O4 C7 1_555 1_555
O5 Cu1 1_555 1_555
H3 O5 1_555 1_555
H4 O5 1_555 1_555
C1 C2 1_555 1_555
C2 H5 1_555 1_555
C3 C2 1_555 1_555
C4 C3 1_555 1_555
H6 C4 1_555 1_555
C5 N1 1_555 1_555
H7 C5 1_555 1_555
C6 O1 1_555 1_555
C7 C3 1_555 1_555
C8 N2 1_555 1_555
H8 C8 1_555 1_555
H9 C8 1_555 1_555
C9 C8 1_555 1_555
H10 C9 1_555 1_555
H11 C9 1_555 1_555
C10 N3 1_555 1_555
H12 C10 1_555 1_555
H13 C10 1_555 1_555
C11 N3 1_555 1_555
H14 C11 1_555 1_555
H15 C11 1_555 1_555
C12 N2 1_555 1_555
H16 C12 1_555 1_555
H17 C12 1_555 1_555
O6 H18 1_555 1_555
O7 H19 1_555 1_555
H20 O7 1_555 1_555
O8 H21 1_555 1_555
H22 O8 1_555 1_555
O9 H23 1_555 1_555
N1A Cu1 1_555 1_555
N2A Ni1 1_555 1_555
H1A N2A 1_555 1_555
N3A Ni1 1_555 1_555
H2A N3A 1_555 1_555
Ni1_2 O2A 1_555 1_555
O1A Cu1 1_555 1_555
O2A C6A 1_555 1_555
O2A_2 Ni1 1_555 1_555
O3A C7A 1_555 1_555
O4A C7A 1_555 1_555
O5A Cu1 1_555 1_555
H3A O5A 1_555 1_555
H4A O5A 1_555 1_555
C1A N1A 1_555 1_555
C2A C1A 1_555 1_555
H5A C2A 1_555 1_555
C3A C2A 1_555 1_555
C4A C3A 1_555 1_555
H6A C4A 1_555 1_555
C5A N1A 1_555 1_555
H7A C5A 1_555 1_555
C6A O1A 1_555 1_555
C7A C3A 1_555 1_555
C8A N2A 1_555 1_555
H8A C8A 1_555 1_555
H9A C8A 1_555 1_555
C9A C8A 1_555 1_555
H10A C9A 1_555 1_555
H11A C9A 1_555 1_555
C10A N3A 1_555 1_555
H12A C10A 1_555 1_555
H13A C10A 1_555 1_555
C11A C12 1_555 1_555
H14A C11A 1_555 1_555
H15A C11A 1_555 1_555
C12A C11 1_555 1_555
H16A C12A 1_555 1_555
H17A C12A 1_555 1_555
N3 Ni1 1_555 1_555
O2 C6 1_555 1_555
C1 C6 1_555 1_555
C4 C5 1_555 1_555
C9 C10 1_555 1_555
N2A C12A 1_555 1_555
N3A C11A 1_555 1_555
C1A C6A 1_555 1_555
C4A C5A 1_555 1_555
C9A C10A 1_555 1_555

#END
