
#######################################################################
#
#                 Cambridge Crystallographic Data Centre
#                                CCDC 
#
#######################################################################
#
# If this CIF has been generated from an entry in the Cambridge 
# Structural Database, then it will include bibliographic, chemical, 
# crystal, experimental, refinement or atomic coordinate data resulting 
# from the CCDC's data processing and validation procedures.
#
#######################################################################

data_FEPNAR
_symmetry_cell_setting           monoclinic
_symmetry_space_group_name_H-M   'P 21/n'
_symmetry_Int_Tables_number      14
_space_group_name_Hall           '-P 2yn'
loop_
_symmetry_equiv_pos_site_id
_symmetry_equiv_pos_as_xyz
1 x,y,z
2 1/2-x,1/2+y,1/2-z
3 -x,-y,-z
4 1/2+x,1/2-y,1/2+z
_cell_length_a                   9.8425(7)
_cell_length_b                   9.0698(7)
_cell_length_c                   26.084(2)
_cell_angle_alpha                90
_cell_angle_beta                 91.2160(10)
_cell_angle_gamma                90
_cell_volume                     2327.98
loop_
_atom_site_label
_atom_site_type_symbol
_atom_site_fract_x
_atom_site_fract_y
_atom_site_fract_z
O1 O 0.8201(3) 0.7276(3) 0.25955(11)
O2 O 0.1365(3) 0.7870(3) 0.26797(11)
Pr1 Pr 0.489119(19) 1.06702(2) 0.218789(8)
O3 O 0.6768(2) 0.9169(3) 0.26063(11)
O4 O 0.3739(2) 1.0930(3) 0.13453(10)
O5 O 0.2604(3) 0.9558(3) 0.22696(11)
O6 O 0.3691(3) 1.0705(4) 0.04920(11)
N1 N 0.6352(3) 0.5865(4) 0.18770(13)
C1 C 0.5331(4) 0.5669(4) 0.15148(16)
N2 N 0.6448(3) 1.0457(4) 0.13920(12)
N3 N 0.3308(3) 0.8027(4) 0.35097(13)
H1 H 0.2782 0.7288 0.3562
C2 C 0.3294(4) 0.8907(4) 0.30942(16)
N4 N 0.4250(3) 0.9938(4) 0.31126(13)
C3 C 0.5947(4) 1.0547(5) 0.38220(18)
H2 H 0.6327 1.1368 0.3667
N5 N 0.6532(3) 0.9938(4) 0.05592(13)
H3 H 0.6264 0.9821 0.0246
C4 C 0.7128(4) 0.7899(4) 0.24629(15)
C5 C 0.2336(4) 0.8756(4) 0.26441(15)
C6 C 0.4904(4) 0.9749(5) 0.35830(16)
C7 C 0.7827(4) 0.9723(5) 0.07534(16)
C8 C 0.5770(4) 1.0364(4) 0.09505(15)
C9 C 0.7773(4) 1.0056(4) 0.12734(15)
C10 C 1.0127(4) 0.9503(5) 0.13581(19)
H4 H 1.0918 0.9421 0.1557
C11 C 0.6171(4) 0.7194(4) 0.20913(15)
C12 C 1.0161(4) 0.9177(6) 0.08345(19)
H5 H 1.0978 0.8882 0.0694
C13 C 0.8939(4) 0.9946(5) 0.15854(16)
H6 H 0.8917 1.0162 0.1934
C14 C 0.4280(4) 1.0685(4) 0.09125(16)
C15 C 0.4323(4) 0.8534(5) 0.38356(16)
C16 C 0.9025(4) 0.9279(5) 0.05211(18)
H7 H 0.9053 0.9063 0.0173
C17 C 0.4542(4) 0.6947(4) 0.15386(16)
C18 C 0.3408(4) 0.7105(5) 0.12110(18)
H8 H 0.2844 0.7925 0.1231
C19 C 0.5073(5) 0.4559(5) 0.11635(19)
H9 H 0.5614 0.3720 0.1150
C20 C 0.3160(5) 0.6013(5) 0.0861(2)
H10 H 0.2425 0.6110 0.0633
C21 C 0.3977(5) 0.4755(5) 0.0834(2)
H11 H 0.3775 0.4039 0.0589
C22 C 0.6390(5) 1.0068(7) 0.4298(2)
H12 H 0.7097 1.0567 0.4465
C23 C 0.4761(6) 0.8074(6) 0.4316(2)
H13 H 0.4364 0.7277 0.4480
C24 C 0.5802(6) 0.8845(7) 0.4536(2)
H14 H 0.6136 0.8552 0.4856
N6 N 0.5086(3) 0.7896(4) 0.19046(13)
H15 H 0.695(4) 0.522(4) 0.1978(15)
O1A O 0.6799(3) 1.2276(3) 0.24045(11)
O2A O 0.3635(3) 1.2870(3) 0.23203(11)
Pr1A Pr 0.010881(19) 0.56702(2) 0.281211(8)
Pr1A_2 Pr 1.010881(19) 0.56702(2) 0.281211(8)
loop_
_geom_bond_atom_site_label_1
_geom_bond_atom_site_label_2
_geom_bond_site_symmetry_1
_geom_bond_site_symmetry_2
O1 C4 1_555 1_555
O2 C5 1_555 1_555
Pr1 O3 1_555 1_555
O3 C4 1_555 1_555
O4 Pr1 1_555 1_555
O5 Pr1 1_555 1_555
O6 C14 1_555 1_555
N1 C1 1_555 1_555
C1 C17 1_555 1_555
N2 Pr1 1_555 1_555
N3 H1 1_555 1_555
C2 N3 1_555 1_555
N4 Pr1 1_555 1_555
C3 H2 1_555 1_555
N5 H3 1_555 1_555
C4 C11 1_555 1_555
C5 O5 1_555 1_555
C6 N4 1_555 1_555
C7 N5 1_555 1_555
C8 N2 1_555 1_555
C9 N2 1_555 1_555
C10 H4 1_555 1_555
C11 N1 1_555 1_555
C12 C10 1_555 1_555
H5 C12 1_555 1_555
C13 C9 1_555 1_555
H6 C13 1_555 1_555
C14 O4 1_555 1_555
C15 N3 1_555 1_555
C16 C7 1_555 1_555
H7 C16 1_555 1_555
C17 C18 1_555 1_555
C18 H8 1_555 1_555
C19 C1 1_555 1_555
H9 C19 1_555 1_555
C20 C18 1_555 1_555
H10 C20 1_555 1_555
C21 C19 1_555 1_555
H11 C21 1_555 1_555
C22 C3 1_555 1_555
H12 C22 1_555 1_555
C23 C15 1_555 1_555
H13 C23 1_555 1_555
C24 C22 1_555 1_555
H14 C24 1_555 1_555
N6 Pr1 1_555 1_555
H15 N1 1_555 1_555
O1A Pr1 1_555 1_555
O2A Pr1 1_555 1_555
Pr1A O2 1_555 1_555
Pr1A_2 O1 1_555 1_555
C2 N4 1_555 1_555
C2 C5 1_555 1_555
C3 C6 1_555 1_555
N5 C8 1_555 1_555
C6 C15 1_555 1_555
C7 C9 1_555 1_555
C8 C14 1_555 1_555
C10 C13 1_555 1_555
C11 N6 1_555 1_555
C12 C16 1_555 1_555
C17 N6 1_555 1_555
C20 C21 1_555 1_555
C23 C24 1_555 1_555

#END
