
#######################################################################
#
#                 Cambridge Crystallographic Data Centre
#                                CCDC 
#
#######################################################################
#
# If this CIF has been generated from an entry in the Cambridge 
# Structural Database, then it will include bibliographic, chemical, 
# crystal, experimental, refinement or atomic coordinate data resulting 
# from the CCDC's data processing and validation procedures.
#
#######################################################################

data_FEPNEV
_symmetry_cell_setting           monoclinic
_symmetry_space_group_name_H-M   'P 21/n'
_symmetry_Int_Tables_number      14
_space_group_name_Hall           '-P 2yn'
loop_
_symmetry_equiv_pos_site_id
_symmetry_equiv_pos_as_xyz
1 x,y,z
2 1/2-x,1/2+y,1/2-z
3 -x,-y,-z
4 1/2+x,1/2-y,1/2+z
_cell_length_a                   9.853(2)
_cell_length_b                   9.073(2)
_cell_length_c                   26.152(6)
_cell_angle_alpha                90
_cell_angle_beta                 91.153(4)
_cell_angle_gamma                90
_cell_volume                     2337.42
loop_
_atom_site_label
_atom_site_type_symbol
_atom_site_fract_x
_atom_site_fract_y
_atom_site_fract_z
O1 O 0.8208(5) 0.7757(6) 0.2595(2)
O2 O 0.1369(5) 0.7180(6) 0.2679(2)
Nd1 Nd 0.48920(4) 0.43653(5) 0.218737(16)
O3 O 0.6771(5) 0.5856(6) 0.2604(2)
O4 O 0.3735(6) 0.4106(6) 0.1353(2)
O5 O 0.3673(6) 0.4303(9) 0.0495(2)
O6 O 0.2613(6) 0.5486(7) 0.2265(2)
C1 C 0.5947(9) 0.4480(13) 0.3813(4)
H1 H 0.6331 0.3672 0.3652
C2 C 0.5333(8) 0.9367(10) 0.1512(3)
C3 C 0.3308(8) 0.6137(9) 0.3089(3)
N1 N 0.6454(7) 0.4554(8) 0.1394(3)
N2 N 0.6353(7) 0.9164(7) 0.1874(3)
H2 H 0.6992 0.9779 0.1948
N3 N 0.6529(7) 0.5066(9) 0.0562(3)
H3 H 0.6263 0.5182 0.0249
N4 N 0.5113(7) 0.7163(8) 0.1901(3)
C4 C 0.7146(8) 0.7146(8) 0.2460(3)
N5 N 0.4252(7) 0.5091(8) 0.3108(3)
C5 C 0.5762(8) 0.4647(9) 0.0951(3)
C6 C 0.2350(8) 0.6279(9) 0.2641(3)
N6 N 0.3309(7) 0.7014(8) 0.3512(3)
H4 H 0.2780 0.7748 0.3569
C7 C 0.8940(9) 0.5081(11) 0.1589(4)
H5 H 0.8914 0.4882 0.1937
C8 C 0.4911(8) 0.5263(9) 0.3580(3)
C9 C 0.7832(8) 0.5279(10) 0.0754(3)
C10 C 0.9027(9) 0.5733(13) 0.0522(4)
H6 H 0.9050 0.5962 0.0176
C11 C 0.4267(8) 0.4330(9) 0.0919(3)
C12 C 1.0136(9) 0.5501(12) 0.1362(4)
H7 H 1.0927 0.5571 0.1561
C13 C 0.3399(9) 0.7901(10) 0.1210(4)
H8 H 0.2831 0.7086 0.1231
C14 C 0.7778(8) 0.4964(10) 0.1280(3)
C15 C 0.4541(8) 0.8064(9) 0.1535(3)
C16 C 0.4329(9) 0.6485(11) 0.3832(4)
C17 C 0.5064(10) 1.0454(10) 0.1156(4)
H9 H 0.5608 1.1289 0.1136
C18 C 0.5814(13) 0.6154(15) 0.4542(4)
H10 H 0.6143 0.6434 0.4863
C19 C 0.6402(12) 0.4925(15) 0.4292(4)
H11 H 0.7106 0.4411 0.4453
C20 C 0.3974(11) 1.0266(11) 0.0831(4)
H12 H 0.3771 1.0986 0.0589
C21 C 0.6171(8) 0.7829(9) 0.2092(3)
C22 C 0.3161(11) 0.9014(11) 0.0858(4)
H13 H 0.2429 0.8922 0.0630
C23 C 0.4756(13) 0.6944(14) 0.4314(4)
H14 H 0.4355 0.7740 0.4476
C24 C 1.0178(9) 0.5825(13) 0.0836(4)
H15 H 1.0998 0.6108 0.0696
O1A O 0.6792(5) 0.2757(6) 0.2405(2)
O2A O 0.3631(5) 0.2180(6) 0.2321(2)
Nd1A Nd 0.01080(4) 0.93653(5) 0.281263(16)
Nd1A_2 Nd 1.01080(4) 0.93653(5) 0.281263(16)
loop_
_geom_bond_atom_site_label_1
_geom_bond_atom_site_label_2
_geom_bond_site_symmetry_1
_geom_bond_site_symmetry_2
O1 C4 1_555 1_555
O2 C6 1_555 1_555
Nd1 O3 1_555 1_555
O3 C4 1_555 1_555
O4 Nd1 1_555 1_555
O5 C11 1_555 1_555
O6 Nd1 1_555 1_555
C1 H1 1_555 1_555
C2 N2 1_555 1_555
C3 N5 1_555 1_555
N1 Nd1 1_555 1_555
N2 H2 1_555 1_555
N3 H3 1_555 1_555
N4 Nd1 1_555 1_555
C4 C21 1_555 1_555
N5 Nd1 1_555 1_555
C5 N1 1_555 1_555
C6 O6 1_555 1_555
N6 C3 1_555 1_555
H4 N6 1_555 1_555
C7 H5 1_555 1_555
C8 C1 1_555 1_555
C9 N3 1_555 1_555
C10 C9 1_555 1_555
H6 C10 1_555 1_555
C11 O4 1_555 1_555
C12 C7 1_555 1_555
H7 C12 1_555 1_555
C13 H8 1_555 1_555
C14 N1 1_555 1_555
C15 C2 1_555 1_555
C16 N6 1_555 1_555
C17 C2 1_555 1_555
H9 C17 1_555 1_555
C18 H10 1_555 1_555
C19 C1 1_555 1_555
H11 C19 1_555 1_555
C20 C17 1_555 1_555
H12 C20 1_555 1_555
C21 N2 1_555 1_555
C22 C13 1_555 1_555
H13 C22 1_555 1_555
C23 C16 1_555 1_555
H14 C23 1_555 1_555
C24 C10 1_555 1_555
H15 C24 1_555 1_555
O1A Nd1 1_555 1_555
O2A Nd1 1_555 1_555
Nd1A O2 1_555 1_555
Nd1A_2 O1 1_555 1_555
C3 C6 1_555 1_555
N3 C5 1_555 1_555
N4 C15 1_555 1_555
N4 C21 1_555 1_555
N5 C8 1_555 1_555
C5 C11 1_555 1_555
C7 C14 1_555 1_555
C8 C16 1_555 1_555
C9 C14 1_555 1_555
C12 C24 1_555 1_555
C13 C15 1_555 1_555
C18 C19 1_555 1_555
C18 C23 1_555 1_555
C20 C22 1_555 1_555

#END
