
#######################################################################
#
#                 Cambridge Crystallographic Data Centre
#                                CCDC 
#
#######################################################################
#
# If this CIF has been generated from an entry in the Cambridge 
# Structural Database, then it will include bibliographic, chemical, 
# crystal, experimental, refinement or atomic coordinate data resulting 
# from the CCDC's data processing and validation procedures.
#
#######################################################################

data_FEPNIZ
_symmetry_cell_setting           monoclinic
_symmetry_space_group_name_H-M   'P 21/n'
_symmetry_Int_Tables_number      14
_space_group_name_Hall           '-P 2yn'
loop_
_symmetry_equiv_pos_site_id
_symmetry_equiv_pos_as_xyz
1 x,y,z
2 1/2-x,1/2+y,1/2-z
3 -x,-y,-z
4 1/2+x,1/2-y,1/2+z
_cell_length_a                   9.7434(11)
_cell_length_b                   8.9656(10)
_cell_length_c                   26.000(3)
_cell_angle_alpha                90
_cell_angle_beta                 91.179(2)
_cell_angle_gamma                90
_cell_volume                     2270.76
loop_
_atom_site_label
_atom_site_type_symbol
_atom_site_fract_x
_atom_site_fract_y
_atom_site_fract_z
Gd1 Gd -0.01068(3) 0.44995(3) 0.218609(11)
C1 C -0.2649(6) 0.6434(6) 0.2631(2)
C2 C -0.1691(6) 0.6253(7) 0.3087(2)
C3 C -0.0660(6) 0.6550(7) 0.3825(2)
C4 C -0.0080(6) 0.5327(7) 0.3567(2)
C5 C -0.0232(9) 0.6957(8) 0.4317(3)
H1 H -0.0631 0.7748 0.4490
C6 C 0.0812(9) 0.6129(10) 0.4534(3)
H2 H 0.1147 0.6389 0.4859
C7 C 0.1394(8) 0.4902(9) 0.4283(3)
H3 H 0.2092 0.4362 0.4446
C8 C 0.0946(6) 0.4494(8) 0.3802(3)
H4 H 0.1322 0.3674 0.3637
C9 C -0.0750(6) 0.4405(6) 0.0930(2)
C10 C 0.0761(6) 0.4720(6) 0.0964(2)
C11 C 0.2782(6) 0.5020(6) 0.1288(2)
C12 C 0.3967(6) 0.5151(7) 0.1602(3)
H5 H 0.3946 0.4966 0.1954
C13 C 0.5164(6) 0.5565(8) 0.1366(3)
H6 H 0.5968 0.5650 0.1563
C14 C 0.5200(7) 0.5860(8) 0.0837(3)
H7 H 0.6028 0.6141 0.0695
C15 C 0.4063(6) 0.5750(7) 0.0524(3)
H8 H 0.4094 0.5952 0.0174
C16 C 0.2849(6) 0.5316(7) 0.0759(2)
C17 C 0.2165(5) 0.7221(6) 0.2454(2)
C18 C 0.1191(6) 0.7929(6) 0.2083(2)
C19 C 0.0329(6) 0.9457(6) 0.1503(2)
C20 C 0.0052(7) 1.0587(7) 0.1143(3)
H9 H 0.0582 1.1447 0.1126
C21 C -0.1054(7) 1.0345(8) 0.0815(3)
H10 H -0.1263 1.1053 0.0564
C22 C -0.1866(7) 0.9076(7) 0.0847(3)
H11 H -0.2612 0.8968 0.0621
C23 C -0.1601(6) 0.7980(7) 0.1202(3)
H12 H -0.2157 0.7140 0.1223
C24 C -0.0468(6) 0.8169(6) 0.1532(2)
N1 N -0.0734(5) 0.5177(5) 0.30895(19)
N2 N -0.1676(5) 0.7090(6) 0.35071(19)
H13 H -0.2207 0.7833 0.3568
N3 N 0.0099(4) 0.7215(5) 0.19012(19)
N4 N 0.1355(5) 0.9291(5) 0.18667(19)
H14 H 0.1985 0.9930 0.1943
N5 N 0.1444(5) 0.4649(5) 0.14064(19)
N6 N 0.1545(5) 0.5105(5) 0.05630(19)
H15 H 0.1280 0.5199 0.0247
O1 O -0.1340(4) 0.4359(5) 0.05074(16)
O2 O -0.1267(4) 0.4201(4) 0.13680(15)
O3 O 0.1780(4) 0.5953(4) 0.25995(15)
O4 O 0.3258(4) 0.7857(4) 0.25883(15)
O5 O -0.2360(4) 0.5639(4) 0.22508(15)
O6 O -0.3633(4) 0.7343(4) 0.26669(16)
Gd1A Gd -0.48932(3) 0.94995(3) 0.281391(11)
Gd1A_2 Gd 0.51068(3) 0.94995(3) 0.281391(11)
O4A O 0.1742(4) 0.2857(4) 0.24117(15)
O6A O -0.1367(4) 0.2343(4) 0.23331(16)
loop_
_geom_bond_atom_site_label_1
_geom_bond_atom_site_label_2
_geom_bond_site_symmetry_1
_geom_bond_site_symmetry_2
Gd1 N1 1_555 1_555
C1 C2 1_555 1_555
C2 N1 1_555 1_555
C3 C4 1_555 1_555
C4 C8 1_555 1_555
C5 C3 1_555 1_555
H1 C5 1_555 1_555
C6 C5 1_555 1_555
H2 C6 1_555 1_555
C7 C6 1_555 1_555
H3 C7 1_555 1_555
C8 C7 1_555 1_555
H4 C8 1_555 1_555
C9 C10 1_555 1_555
C10 N5 1_555 1_555
C11 C12 1_555 1_555
C12 H5 1_555 1_555
C13 C12 1_555 1_555
H6 C13 1_555 1_555
C14 C13 1_555 1_555
H7 C14 1_555 1_555
C15 C14 1_555 1_555
H8 C15 1_555 1_555
C16 C11 1_555 1_555
C17 C18 1_555 1_555
C18 N3 1_555 1_555
C19 C20 1_555 1_555
C20 H9 1_555 1_555
C21 C20 1_555 1_555
H10 C21 1_555 1_555
C22 C21 1_555 1_555
H11 C22 1_555 1_555
C23 C22 1_555 1_555
H12 C23 1_555 1_555
C24 C19 1_555 1_555
N1 C4 1_555 1_555
N2 C2 1_555 1_555
H13 N2 1_555 1_555
N3 Gd1 1_555 1_555
N4 C18 1_555 1_555
H14 N4 1_555 1_555
N5 Gd1 1_555 1_555
N6 C10 1_555 1_555
H15 N6 1_555 1_555
O1 C9 1_555 1_555
O2 Gd1 1_555 1_555
O3 Gd1 1_555 1_555
O4 C17 1_555 1_555
O5 Gd1 1_555 1_555
O6 C1 1_555 1_555
Gd1A O6 1_555 1_555
Gd1A_2 O4 1_555 1_555
O4A Gd1 1_555 1_555
O6A Gd1 1_555 1_555
C1 O5 1_555 1_555
C3 N2 1_555 1_555
C9 O2 1_555 1_555
C11 N5 1_555 1_555
C15 C16 1_555 1_555
C16 N6 1_555 1_555
C17 O3 1_555 1_555
C19 N4 1_555 1_555
C23 C24 1_555 1_555
C24 N3 1_555 1_555

#END
