
#######################################################################
#
#                 Cambridge Crystallographic Data Centre
#                                CCDC 
#
#######################################################################
#
# If this CIF has been generated from an entry in the Cambridge 
# Structural Database, then it will include bibliographic, chemical, 
# crystal, experimental, refinement or atomic coordinate data resulting 
# from the CCDC's data processing and validation procedures.
#
#######################################################################

data_FEPNIZ01
_symmetry_cell_setting           monoclinic
_symmetry_space_group_name_H-M   'P 21/n'
_symmetry_Int_Tables_number      14
_space_group_name_Hall           '-P 2yn'
loop_
_symmetry_equiv_pos_site_id
_symmetry_equiv_pos_as_xyz
1 x,y,z
2 1/2-x,1/2+y,1/2-z
3 -x,-y,-z
4 1/2+x,1/2-y,1/2+z
_cell_length_a                   9.7458(13)
_cell_length_b                   8.9653(12)
_cell_length_c                   25.997(4)
_cell_angle_alpha                90
_cell_angle_beta                 91.182(3)
_cell_angle_gamma                90
_cell_volume                     2270.98
loop_
_atom_site_label
_atom_site_type_symbol
_atom_site_fract_x
_atom_site_fract_y
_atom_site_fract_z
Gd1 Gd -0.01066(5) 0.55027(5) 0.218586(18)
C1 C -0.2648(10) 0.3551(11) 0.2630(4)
C2 C -0.1684(10) 0.3764(11) 0.3079(4)
C3 C -0.0062(11) 0.4698(11) 0.3574(4)
C4 C 0.0949(11) 0.5484(12) 0.3803(4)
H1 H 0.1343 0.6290 0.3636
C5 C 0.1392(13) 0.5090(16) 0.4283(4)
H2 H 0.2082 0.5643 0.4445
C6 C 0.0831(15) 0.3877(18) 0.4535(5)
H3 H 0.1175 0.3618 0.4859
C7 C -0.0222(13) 0.3045(13) 0.4317(4)
H4 H -0.0621 0.2254 0.4491
C8 C -0.0649(10) 0.3453(12) 0.3827(4)
C9 C 0.2165(10) 0.2762(11) 0.2448(4)
C10 C 0.1160(10) 0.2061(10) 0.2087(4)
C11 C 0.0311(11) 0.0553(10) 0.1501(4)
C12 C 0.0062(12) -0.0584(11) 0.1150(4)
H5 H 0.0594 -0.1445 0.1141
C13 C -0.1017(12) -0.0345(12) 0.0821(5)
H6 H -0.1214 -0.1054 0.0569
C14 C -0.1846(12) 0.0932(12) 0.0848(4)
H7 H -0.2584 0.1038 0.0618
C15 C -0.1595(11) 0.2008(11) 0.1199(4)
H8 H -0.2163 0.2838 0.1221
C16 C -0.0457(10) 0.1842(10) 0.1530(4)
C17 C -0.0757(11) 0.5630(10) 0.0935(4)
C18 C 0.0767(11) 0.5275(11) 0.0960(4)
C19 C 0.2849(11) 0.4695(11) 0.0758(4)
C20 C 0.4030(12) 0.4260(13) 0.0526(4)
H9 H 0.4051 0.4063 0.0175
C21 C 0.5175(13) 0.4128(13) 0.0833(5)
H10 H 0.6000 0.3845 0.0688
C22 C 0.5131(12) 0.4411(12) 0.1363(5)
H11 H 0.5927 0.4283 0.1561
C23 C 0.3977(12) 0.4863(12) 0.1596(5)
H12 H 0.3973 0.5081 0.1946
C24 C 0.2781(11) 0.4988(12) 0.1286(4)
N1 N 0.1455(8) 0.5361(9) 0.1406(3)
N2 N 0.1542(9) 0.4890(10) 0.0563(3)
N3 N 0.0087(8) 0.2787(8) 0.1908(3)
N4 N 0.1342(9) 0.0719(8) 0.1866(3)
H13 H 0.1980 0.0086 0.1940
N5 N -0.1672(8) 0.2937(9) 0.3506(3)
H14 H -0.2214 0.2205 0.3568
N6 N -0.0743(8) 0.4813(9) 0.3089(3)
O1 O -0.1266(7) 0.5826(7) 0.1371(3)
O2 O -0.1343(7) 0.5643(8) 0.0507(3)
O3 O 0.3262(7) 0.2142(7) 0.2588(2)
O4 O -0.3621(7) 0.2660(8) 0.2669(3)
O5 O -0.2360(7) 0.4347(7) 0.2251(3)
O6 O 0.1774(7) 0.4044(7) 0.2600(2)
H15 H 0.116(10) 0.496(10) 0.027(4)
Gd1A Gd -0.48934(5) 0.05027(5) 0.281414(18)
Gd1A_2 Gd 0.51066(5) 0.05027(5) 0.281414(18)
O3A O 0.1738(7) 0.7142(7) 0.2412(2)
O4A O -0.1379(7) 0.7660(8) 0.2331(3)
loop_
_geom_bond_atom_site_label_1
_geom_bond_atom_site_label_2
_geom_bond_site_symmetry_1
_geom_bond_site_symmetry_2
Gd1 N1 1_555 1_555
C1 C2 1_555 1_555
C2 N5 1_555 1_555
C3 C4 1_555 1_555
C4 H1 1_555 1_555
C5 C4 1_555 1_555
H2 C5 1_555 1_555
C6 C5 1_555 1_555
H3 C6 1_555 1_555
C7 C6 1_555 1_555
H4 C7 1_555 1_555
C8 C3 1_555 1_555
C9 C10 1_555 1_555
C10 N3 1_555 1_555
C11 C12 1_555 1_555
C12 H5 1_555 1_555
C13 C12 1_555 1_555
H6 C13 1_555 1_555
C14 C13 1_555 1_555
H7 C14 1_555 1_555
C15 C14 1_555 1_555
H8 C15 1_555 1_555
C16 C11 1_555 1_555
C17 C18 1_555 1_555
C18 N1 1_555 1_555
C19 C20 1_555 1_555
C20 H9 1_555 1_555
C21 C20 1_555 1_555
H10 C21 1_555 1_555
C22 C21 1_555 1_555
H11 C22 1_555 1_555
C23 C22 1_555 1_555
H12 C23 1_555 1_555
C24 C19 1_555 1_555
N1 C24 1_555 1_555
N2 C18 1_555 1_555
N3 Gd1 1_555 1_555
N4 C10 1_555 1_555
H13 N4 1_555 1_555
N5 C8 1_555 1_555
H14 N5 1_555 1_555
N6 Gd1 1_555 1_555
O1 Gd1 1_555 1_555
O2 C17 1_555 1_555
O3 C9 1_555 1_555
O4 C1 1_555 1_555
O5 Gd1 1_555 1_555
O6 Gd1 1_555 1_555
H15 N2 1_555 1_555
Gd1A O4 1_555 1_555
Gd1A_2 O3 1_555 1_555
O3A Gd1 1_555 1_555
O4A Gd1 1_555 1_555
C1 O5 1_555 1_555
C2 N6 1_555 1_555
C3 N6 1_555 1_555
C7 C8 1_555 1_555
C9 O6 1_555 1_555
C11 N4 1_555 1_555
C15 C16 1_555 1_555
C16 N3 1_555 1_555
C17 O1 1_555 1_555
C19 N2 1_555 1_555
C23 C24 1_555 1_555

#END
