
#######################################################################
#
#                 Cambridge Crystallographic Data Centre
#                                CCDC 
#
#######################################################################
#
# If this CIF has been generated from an entry in the Cambridge 
# Structural Database, then it will include bibliographic, chemical, 
# crystal, experimental, refinement or atomic coordinate data resulting 
# from the CCDC's data processing and validation procedures.
#
#######################################################################

data_FEPPUM
_symmetry_cell_setting           triclinic
_symmetry_space_group_name_H-M   'P -1'
_symmetry_Int_Tables_number      2
_space_group_name_Hall           '-P 1'
loop_
_symmetry_equiv_pos_site_id
_symmetry_equiv_pos_as_xyz
1 x,y,z
2 -x,-y,-z
_cell_length_a                   7.328(8)
_cell_length_b                   8.876(9)
_cell_length_c                   11.052(12)
_cell_angle_alpha                74.652(16)
_cell_angle_beta                 74.734(17)
_cell_angle_gamma                79.607(17)
_cell_volume                     664.008
loop_
_atom_site_label
_atom_site_type_symbol
_atom_site_fract_x
_atom_site_fract_y
_atom_site_fract_z
Co1 Co 0.79341(9) 0.64102(7) 0.82349(6)
O1 O 0.7542(5) 0.6506(4) 1.0255(3)
O2 O 0.7374(6) 0.8073(4) 1.1565(3)
O3 O 0.7900(5) 0.7753(4) 0.6234(3)
O4 O 0.7685(6) 1.0181(4) 0.4999(3)
O5 O 0.7715(5) 1.3931(4) 0.9206(4)
O6 O 0.8789(5) 1.4454(4) 0.7132(4)
O7 O 0.4939(5) 0.6545(4) 0.8406(3)
H1 H 0.4291 0.7392 0.8237
H2 H 0.4159 0.6333 0.9322
O8 O 1.0901(5) 0.6163(4) 0.8092(4)
H3 H 1.1356 0.5384 0.8590
H4 H 1.1386 0.6963 0.8039
N1 N 0.7861(5) 0.8764(4) 0.8223(4)
C1 C 0.7564(7) 0.7817(6) 1.0484(5)
C2 C 0.7806(7) 0.9174(5) 0.9305(5)
C3 C 0.7930(7) 1.0699(5) 0.9327(5)
H5 H 0.7855 1.0971 1.0097
C4 C 0.8169(7) 1.1816(5) 0.8170(5)
C5 C 0.8256(7) 1.3494(5) 0.8164(5)
C6 C 0.8219(7) 1.1381(5) 0.7056(5)
H6 H 0.8376 1.2114 0.6271
C7 C 0.8032(7) 0.9843(5) 0.7120(5)
C8 C 0.7883(7) 0.9224(5) 0.6006(5)
Co1_2 Co 0.79341(9) -0.35898(7) 0.82349(6)
Co1_3 Co 0.79341(9) 1.64102(7) 0.82349(6)
O1_2 O 0.7542(5) -0.3494(4) 1.0255(3)
O2_2 O 0.7374(6) -0.1927(4) 1.1565(3)
O3_2 O 0.7900(5) -0.2247(4) 0.6234(3)
O4_2 O 0.7685(6) 0.0181(4) 0.4999(3)
O5_2 O 0.7715(5) 0.3931(4) 0.9206(4)
O5_3 O 0.7715(5) -0.6069(4) 0.9206(4)
O6_2 O 0.8789(5) 0.4454(4) 0.7132(4)
O6_3 O 0.8789(5) -0.5546(4) 0.7132(4)
O7_2 O 0.4939(5) -0.3455(4) 0.8406(3)
H1_2 H 0.4291 -0.2608 0.8237
H2_2 H 0.4159 -0.3667 0.9322
O8_2 O 1.0901(5) -0.3837(4) 0.8092(4)
H3_2 H 1.1356 -0.4616 0.8590
H4_2 H 1.1386 -0.3037 0.8039
N1_2 N 0.7861(5) -0.1236(4) 0.8223(4)
C1_2 C 0.7564(7) -0.2183(6) 1.0484(5)
C2_2 C 0.7806(7) -0.0826(5) 0.9305(5)
C3_2 C 0.7930(7) 0.0699(5) 0.9327(5)
H5_2 H 0.7855 0.0971 1.0097
C4_2 C 0.8169(7) 0.1816(5) 0.8170(5)
C5_2 C 0.8256(7) 0.3494(5) 0.8164(5)
C6_2 C 0.8219(7) 0.1381(5) 0.7056(5)
H6_2 H 0.8376 0.2114 0.6271
C7_2 C 0.8032(7) -0.0157(5) 0.7120(5)
C8_2 C 0.7883(7) -0.0776(5) 0.6006(5)
Co2 Co 0.5000 0.5000 0.5000
O9 O 0.4787(5) 0.4229(4) 0.6947(3)
H7 H 0.4039 0.3597 0.7442
H8 H 0.4610 0.4952 0.7524
O10 O 0.7939(6) 0.4631(5) 0.4782(4)
H9 H 0.8270 0.4632 0.5466
H10 H 0.8564 0.5162 0.4077
O11 O 0.4892(6) 0.2734(5) 0.4890(5)
H11 H 0.3868 0.2471 0.4821
H12 H 0.5830 0.2017 0.4950
O9A O 0.5213(5) 0.5771(4) 0.3053(3)
H7A H 0.5961 0.6403 0.2558
H8A H 0.5390 0.5048 0.2476
O10A O 0.2061(6) 0.5369(5) 0.5218(4)
H9A H 0.1730 0.5368 0.4534
H10A H 0.1436 0.4838 0.5923
O11A O 0.5108(6) 0.7266(5) 0.5110(5)
H11A H 0.6132 0.7529 0.5179
H12A H 0.4170 0.7983 0.5050
O12 O 0.2865(7) 0.9279(5) 0.7447(4)
H13 H 0.3112 0.9390 0.6472
H14 H 0.2991 1.0090 0.7710
loop_
_geom_bond_atom_site_label_1
_geom_bond_atom_site_label_2
_geom_bond_site_symmetry_1
_geom_bond_site_symmetry_2
Co1 O1 1_555 1_555
O1 C1 1_555 1_555
O2 C1 1_555 1_555
O3 Co1 1_555 1_555
O4 C8 1_555 1_555
O5 C5 1_555 1_555
O6 C5 1_555 1_555
O7 Co1 1_555 1_555
H1 O7 1_555 1_555
H2 O7 1_555 1_555
O8 Co1 1_555 1_555
H3 O8 1_555 1_555
H4 O8 1_555 1_555
N1 Co1 1_555 1_555
C1 C2 1_555 1_555
C2 N1 1_555 1_555
C3 C2 1_555 1_555
H5 C3 1_555 1_555
C4 C3 1_555 1_555
C5 C4 1_555 1_555
C6 C4 1_555 1_555
H6 C6 1_555 1_555
C7 N1 1_555 1_555
C8 O3 1_555 1_555
Co2 O9 1_555 1_555
O9 H7 1_555 1_555
H8 O9 1_555 1_555
O10 Co2 1_555 1_555
H9 O10 1_555 1_555
H10 O10 1_555 1_555
O11 Co2 1_555 1_555
H11 O11 1_555 1_555
H12 O11 1_555 1_555
O12 H13 1_555 1_555
H14 O12 1_555 1_555
Co1_2 O1_2 1_555 1_555
Co1_3 O5 1_555 1_555
O1_2 C1_2 1_555 1_555
O2_2 C1_2 1_555 1_555
O3_2 Co1_2 1_555 1_555
O4_2 C8_2 1_555 1_555
O5_2 Co1 1_555 1_555
O5_3 Co1_2 1_555 1_555
O6_2 Co1 1_555 1_555
O6_3 Co1_2 1_555 1_555
O7_2 Co1_2 1_555 1_555
H1_2 O7_2 1_555 1_555
H2_2 O7_2 1_555 1_555
O8_2 Co1_2 1_555 1_555
H3_2 O8_2 1_555 1_555
H4_2 O8_2 1_555 1_555
N1_2 Co1_2 1_555 1_555
C1_2 C2_2 1_555 1_555
C2_2 N1_2 1_555 1_555
C3_2 C2_2 1_555 1_555
H5_2 C3_2 1_555 1_555
C4_2 C3_2 1_555 1_555
C5_2 O5_2 1_555 1_555
C6_2 C4_2 1_555 1_555
H6_2 C6_2 1_555 1_555
C7_2 N1_2 1_555 1_555
C8_2 O3_2 1_555 1_555
O9A Co2 1_555 1_555
H7A O9A 1_555 1_555
H8A O9A 1_555 1_555
O10A Co2 1_555 1_555
H9A O10A 1_555 1_555
H10A O10A 1_555 1_555
O11A Co2 1_555 1_555
H11A O11A 1_555 1_555
H12A O11A 1_555 1_555
O6 Co1_3 1_555 1_555
C6 C7 1_555 1_555
C7 C8 1_555 1_555
O6_2 C5_2 1_555 1_555
C4_2 C5_2 1_555 1_555
C6_2 C7_2 1_555 1_555
C7_2 C8_2 1_555 1_555

#END
