
#######################################################################
#
#                 Cambridge Crystallographic Data Centre
#                                CCDC 
#
#######################################################################
#
# If this CIF has been generated from an entry in the Cambridge 
# Structural Database, then it will include bibliographic, chemical, 
# crystal, experimental, refinement or atomic coordinate data resulting 
# from the CCDC's data processing and validation procedures.
#
#######################################################################

data_FEPPOG
_symmetry_cell_setting           triclinic
_symmetry_space_group_name_H-M   'P -1'
_symmetry_Int_Tables_number      2
_space_group_name_Hall           '-P 1'
loop_
_symmetry_equiv_pos_site_id
_symmetry_equiv_pos_as_xyz
1 x,y,z
2 -x,-y,-z
_cell_length_a                   7.3534(19)
_cell_length_b                   8.890(2)
_cell_length_c                   11.073(3)
_cell_angle_alpha                74.723(4)
_cell_angle_beta                 74.541(4)
_cell_angle_gamma                79.333(4)
_cell_volume                     667.863
loop_
_atom_site_label
_atom_site_type_symbol
_atom_site_fract_x
_atom_site_fract_y
_atom_site_fract_z
Fe1 Fe 0.20694(6) 0.35913(4) 0.67657(4)
O1 O 0.2102(3) 0.2248(3) 0.8764(2)
O2 O 0.2318(4) -0.0177(3) 1.0003(2)
O3 O 0.1213(4) -0.4451(3) 0.7870(2)
O4 O 0.2282(3) -0.3928(3) 0.5793(2)
O5 O 0.2621(4) 0.1930(3) 0.3442(2)
O6 O 0.2459(3) 0.3498(2) 0.4745(2)
O7 O -0.0899(3) 0.3837(3) 0.6912(3)
H1 H -0.1383 0.4591 0.6363
H2 H -0.1498 0.2986 0.6911
O8 O 0.5065(3) 0.3457(3) 0.6598(2)
H3 H 0.5554 0.2537 0.6964
H4 H 0.5661 0.3661 0.5749
N1 N 0.2139(4) 0.1233(3) 0.6775(3)
C1 C 0.2114(4) 0.0778(4) 0.8994(3)
C2 C 0.1976(4) 0.0157(3) 0.7883(3)
C3 C 0.1784(5) -0.1379(3) 0.7949(3)
H5 H 0.1623 -0.2106 0.8734
C4 C 0.1835(4) -0.1821(4) 0.6831(3)
C5 C 0.1749(4) -0.3489(4) 0.6834(3)
C6 C 0.2066(5) -0.0695(4) 0.5673(3)
H6 H 0.2130 -0.0966 0.4906
C7 C 0.2198(4) 0.0829(3) 0.5687(3)
C8 C 0.2442(5) 0.2184(4) 0.4522(3)
Fe1_2 Fe 0.20694(6) 1.35913(4) 0.67657(4)
Fe1_3 Fe 0.20694(6) -0.64087(4) 0.67657(4)
O1_2 O 0.2102(3) 1.2248(3) 0.8764(2)
O2_2 O 0.2318(4) 0.9823(3) 1.0003(2)
O3_2 O 0.1213(4) 0.5549(3) 0.7870(2)
O3_3 O 0.1213(4) 1.5549(3) 0.7870(2)
O4_2 O 0.2282(3) 0.6072(3) 0.5793(2)
O4_3 O 0.2282(3) 1.6072(3) 0.5793(2)
O5_2 O 0.2621(4) 1.1930(3) 0.3442(2)
O6_2 O 0.2459(3) 1.3498(2) 0.4745(2)
O7_2 O -0.0899(3) 1.3837(3) 0.6912(3)
H1_2 H -0.1383 1.4591 0.6363
H2_2 H -0.1498 1.2986 0.6911
O8_2 O 0.5065(3) 1.3457(3) 0.6598(2)
H3_2 H 0.5554 1.2537 0.6964
H4_2 H 0.5661 1.3661 0.5749
N1_2 N 0.2139(4) 1.1233(3) 0.6775(3)
C1_2 C 0.2114(4) 1.0778(4) 0.8994(3)
C2_2 C 0.1976(4) 1.0157(3) 0.7883(3)
C3_2 C 0.1784(5) 0.8621(3) 0.7949(3)
H5_2 H 0.1623 0.7894 0.8734
C4_2 C 0.1835(4) 0.8179(4) 0.6831(3)
C5_2 C 0.1749(4) 0.6511(4) 0.6834(3)
C6_2 C 0.2066(5) 0.9305(4) 0.5673(3)
H6_2 H 0.2130 0.9034 0.4906
C7_2 C 0.2198(4) 1.0829(3) 0.5687(3)
C8_2 C 0.2442(5) 1.2184(4) 0.4522(3)
Fe2 Fe 0.5000 0.5000 0.0000
O9 O 0.2068(4) 0.5374(3) 0.0214(3)
H7 H 0.1517 0.5148 -0.0431
H8 H 0.1156 0.4979 0.1054
O10 O 0.4781(3) 0.4230(3) 0.1953(2)
H9 H 0.4705 0.4962 0.2449
H10 H 0.3970 0.3402 0.2287
O11 O 0.5118(4) 0.7267(3) 0.0099(3)
H11 H 0.6150 0.7497 0.0332
H12 H 0.4176 0.8118 0.0076
O9A O 0.7932(4) 0.4626(3) -0.0214(3)
H7A H 0.8483 0.4852 0.0431
H8A H 0.8844 0.5021 -0.1054
O10A O 0.5219(3) 0.5770(3) -0.1953(2)
H9A H 0.5295 0.5038 -0.2449
H10A H 0.6030 0.6598 -0.2287
O11A O 0.4882(4) 0.2733(3) -0.0099(3)
H11A H 0.3850 0.2503 -0.0332
H12A H 0.5824 0.1882 -0.0076
O12 O 0.7131(5) 0.0726(3) 0.7549(3)
H13 H 0.7170 -0.0128 0.7227
H14 H 0.7286 0.0292 0.8393
loop_
_geom_bond_atom_site_label_1
_geom_bond_atom_site_label_2
_geom_bond_site_symmetry_1
_geom_bond_site_symmetry_2
Fe1 O1 1_555 1_555
O1 C1 1_555 1_555
O2 C1 1_555 1_555
O3 C5 1_555 1_555
O4 C5 1_555 1_555
O5 C8 1_555 1_555
O6 Fe1 1_555 1_555
O7 Fe1 1_555 1_555
H1 O7 1_555 1_555
H2 O7 1_555 1_555
O8 Fe1 1_555 1_555
H3 O8 1_555 1_555
H4 O8 1_555 1_555
N1 Fe1 1_555 1_555
C1 C2 1_555 1_555
C2 N1 1_555 1_555
C3 C2 1_555 1_555
H5 C3 1_555 1_555
C4 C3 1_555 1_555
C5 C4 1_555 1_555
C6 C4 1_555 1_555
H6 C6 1_555 1_555
C7 N1 1_555 1_555
C8 O6 1_555 1_555
Fe2 O9 1_555 1_555
O9 H7 1_555 1_555
H8 O9 1_555 1_555
O10 Fe2 1_555 1_555
H9 O10 1_555 1_555
H10 O10 1_555 1_555
O11 Fe2 1_555 1_555
H11 O11 1_555 1_555
H12 O11 1_555 1_555
O12 H13 1_555 1_555
H14 O12 1_555 1_555
Fe1_2 O1_2 1_555 1_555
Fe1_3 O3 1_555 1_555
O1_2 C1_2 1_555 1_555
O2_2 C1_2 1_555 1_555
O3_2 Fe1 1_555 1_555
O3_3 Fe1_2 1_555 1_555
O4_2 Fe1 1_555 1_555
O4_3 Fe1_2 1_555 1_555
O5_2 C8_2 1_555 1_555
O6_2 Fe1_2 1_555 1_555
O7_2 Fe1_2 1_555 1_555
H1_2 O7_2 1_555 1_555
H2_2 O7_2 1_555 1_555
O8_2 Fe1_2 1_555 1_555
H3_2 O8_2 1_555 1_555
H4_2 O8_2 1_555 1_555
N1_2 Fe1_2 1_555 1_555
C1_2 C2_2 1_555 1_555
C2_2 N1_2 1_555 1_555
C3_2 C2_2 1_555 1_555
H5_2 C3_2 1_555 1_555
C4_2 C3_2 1_555 1_555
C5_2 O3_2 1_555 1_555
C6_2 C4_2 1_555 1_555
H6_2 C6_2 1_555 1_555
C7_2 N1_2 1_555 1_555
C8_2 O6_2 1_555 1_555
O9A Fe2 1_555 1_555
H7A O9A 1_555 1_555
H8A O9A 1_555 1_555
O10A Fe2 1_555 1_555
H9A O10A 1_555 1_555
H10A O10A 1_555 1_555
O11A Fe2 1_555 1_555
H11A O11A 1_555 1_555
H12A O11A 1_555 1_555
O4 Fe1_3 1_555 1_555
C6 C7 1_555 1_555
C7 C8 1_555 1_555
O4_2 C5_2 1_555 1_555
C4_2 C5_2 1_555 1_555
C6_2 C7_2 1_555 1_555
C7_2 C8_2 1_555 1_555

#END
