
#######################################################################
#
#                 Cambridge Crystallographic Data Centre
#                                CCDC 
#
#######################################################################
#
# If this CIF has been generated from an entry in the Cambridge 
# Structural Database, then it will include bibliographic, chemical, 
# crystal, experimental, refinement or atomic coordinate data resulting 
# from the CCDC's data processing and validation procedures.
#
#######################################################################

data_FEPQAT
_symmetry_cell_setting           monoclinic
_symmetry_space_group_name_H-M   'P 21/c'
_symmetry_Int_Tables_number      14
_space_group_name_Hall           '-P 2ybc'
loop_
_symmetry_equiv_pos_site_id
_symmetry_equiv_pos_as_xyz
1 x,y,z
2 -x,1/2+y,1/2-z
3 -x,-y,-z
4 x,1/2-y,1/2+z
_cell_length_a                   7.1010(14)
_cell_length_b                   18.751(4)
_cell_length_c                   10.690(2)
_cell_angle_alpha                90
_cell_angle_beta                 101.41(3)
_cell_angle_gamma                90
_cell_volume                     1395.25
loop_
_atom_site_label
_atom_site_type_symbol
_atom_site_fract_x
_atom_site_fract_y
_atom_site_fract_z
Cu1 Cu 0.25945(5) 0.288594(17) 0.22540(3)
Cu2 Cu 0.0000 0.5000 0.5000
O1 O 0.1692(4) 0.37710(12) 0.3518(2)
O2 O 0.0852(3) 0.49217(11) 0.3375(2)
O3 O 0.3121(4) 0.25134(10) 0.0180(2)
O4 O 0.2826(3) 0.30026(10) -0.1783(2)
O5 O 0.2299(3) 0.63049(11) -0.0334(2)
O6 O 0.3272(3) 0.57223(11) -0.1907(2)
O7 O -0.0187(3) 0.26391(12) 0.1644(2)
H1 H -0.0734 0.2399 0.2148
H2 H -0.0801 0.3000 0.1298
O8 O 0.5350(3) 0.31065(11) 0.2922(2)
H3 H 0.5880 0.2709 0.2851
H4 H 0.5767 0.3440 0.2523
O9 O 0.2819(5) 0.49741(15) 0.5912(3)
H5 H 0.2945 0.5159 0.6652
H6 H 0.3626 0.4649 0.5829
O10 O 0.0584(6) 0.6266(2) 0.4766(4)
H7 H -0.0527 0.6174 0.4317
H8 H 0.0600 0.6531 0.5422
N1 N 0.2368(3) 0.37784(11) 0.1153(2)
C1 C 0.1507(4) 0.43561(15) 0.2979(3)
C2 C 0.2053(4) 0.44089(14) 0.1680(3)
C3 C 0.2161(4) 0.50454(14) 0.1052(3)
H9 H 0.1963 0.5474 0.1444
C4 C 0.2566(4) 0.50450(14) -0.0168(3)
C5 C 0.2727(4) 0.57486(15) -0.0866(3)
C6 C 0.2782(4) 0.43884(14) -0.0742(3)
H10 H 0.2992 0.4368 -0.1573
C7 C 0.2679(4) 0.37664(14) -0.0049(3)
C8 C 0.2915(4) 0.30215(14) -0.0583(3)
Cu1B Cu -0.25945(5) 0.711406(17) 0.77460(3)
Cu1C Cu 0.25945(5) 0.211406(17) -0.27460(3)
Cu1A Cu -0.25945(5) 0.788594(17) 1.27460(3)
O1B O -0.1692(4) 0.62290(12) 0.6482(2)
O2B O -0.0852(3) 0.50783(11) 0.6625(2)
O3B O -0.3121(4) 0.74866(10) 0.9820(2)
O4B O -0.2826(3) 0.69974(10) 1.1783(2)
O4C O 0.2826(3) 0.19974(10) 0.3217(2)
O4A O -0.2826(3) 0.80026(10) 0.6783(2)
O5B O -0.2299(3) 0.36951(11) 1.0334(2)
O6B O -0.3272(3) 0.42777(11) 1.1907(2)
O7B O 0.0187(3) 0.73609(12) 0.8356(2)
H1B H 0.0734 0.7601 0.7852
H2B H 0.0801 0.7000 0.8702
O8B O -0.5350(3) 0.68935(11) 0.7078(2)
H3B H -0.5880 0.7291 0.7149
H4B H -0.5767 0.6560 0.7477
O9B O -0.2819(5) 0.50259(15) 0.4088(3)
H5B H -0.2945 0.4841 0.3348
H6B H -0.3626 0.5351 0.4171
O10B O -0.0584(6) 0.3734(2) 0.5234(4)
H7B H 0.0527 0.3826 0.5683
H8B H -0.0600 0.3469 0.4578
N1B N -0.2368(3) 0.62216(11) 0.8847(2)
C1B C -0.1507(4) 0.56439(15) 0.7021(3)
C2B C -0.2053(4) 0.55911(14) 0.8320(3)
C3B C -0.2161(4) 0.49546(14) 0.8948(3)
H9B H -0.1963 0.4526 0.8556
C4B C -0.2566(4) 0.49550(14) 1.0168(3)
C5B C -0.2727(4) 0.42514(15) 1.0866(3)
C6B C -0.2782(4) 0.56116(14) 1.0742(3)
H10B H -0.2992 0.5632 1.1573
C7B C -0.2679(4) 0.62336(14) 1.0049(3)
C8B C -0.2915(4) 0.69785(14) 1.0583(3)
O11 O 0.7502(3) 0.31092(13) 0.7947(2)
H11 H 0.7583 0.3302 0.8668
H12 H 0.6807 0.3308 0.7308
O12 O 0.5290(4) 0.11845(13) 0.0808(2)
H13 H 0.6008 0.0972 0.0382
H14 H 0.4693 0.1550 0.0468
loop_
_geom_bond_atom_site_label_1
_geom_bond_atom_site_label_2
_geom_bond_site_symmetry_1
_geom_bond_site_symmetry_2
Cu1 O1 1_555 1_555
Cu2 O2 1_555 1_555
O1 C1 1_555 1_555
O2 C1 1_555 1_555
O3 Cu1 1_555 1_555
O4 C8 1_555 1_555
O5 C5 1_555 1_555
O6 C5 1_555 1_555
O7 Cu1 1_555 1_555
H1 O7 1_555 1_555
H2 O7 1_555 1_555
O8 Cu1 1_555 1_555
H3 O8 1_555 1_555
H4 O8 1_555 1_555
O9 Cu2 1_555 1_555
H5 O9 1_555 1_555
H6 O9 1_555 1_555
O10 Cu2 1_555 1_555
H7 O10 1_555 1_555
H8 O10 1_555 1_555
N1 Cu1 1_555 1_555
C1 C2 1_555 1_555
C2 N1 1_555 1_555
C3 C2 1_555 1_555
H9 C3 1_555 1_555
C4 C3 1_555 1_555
C5 C4 1_555 1_555
C6 C4 1_555 1_555
H10 C6 1_555 1_555
C7 N1 1_555 1_555
C8 O3 1_555 1_555
O11 H11 1_555 1_555
H12 O11 1_555 1_555
O12 H13 1_555 1_555
H14 O12 1_555 1_555
Cu1B O1B 1_555 1_555
Cu1C O4 1_555 1_555
Cu1A O4B 1_555 1_555
O1B C1B 1_555 1_555
O2B Cu2 1_555 1_555
O3B Cu1B 1_555 1_555
O4B C8B 1_555 1_555
O4C Cu1 1_555 1_555
O4A Cu1B 1_555 1_555
O5B C5B 1_555 1_555
O6B C5B 1_555 1_555
O7B Cu1B 1_555 1_555
H1B O7B 1_555 1_555
H2B O7B 1_555 1_555
O8B Cu1B 1_555 1_555
H3B O8B 1_555 1_555
H4B O8B 1_555 1_555
O9B Cu2 1_555 1_555
H5B O9B 1_555 1_555
H6B O9B 1_555 1_555
O10B Cu2 1_555 1_555
H7B O10B 1_555 1_555
H8B O10B 1_555 1_555
N1B Cu1B 1_555 1_555
C1B O2B 1_555 1_555
C2B N1B 1_555 1_555
C3B C2B 1_555 1_555
H9B C3B 1_555 1_555
C4B C3B 1_555 1_555
C5B C4B 1_555 1_555
C6B C4B 1_555 1_555
H10B C6B 1_555 1_555
C7B N1B 1_555 1_555
C8B O3B 1_555 1_555
C6 C7 1_555 1_555
C7 C8 1_555 1_555
C1B C2B 1_555 1_555
C6B C7B 1_555 1_555
C7B C8B 1_555 1_555

#END
