
#######################################################################
#
#                 Cambridge Crystallographic Data Centre
#                                CCDC 
#
#######################################################################
#
# If this CIF has been generated from an entry in the Cambridge 
# Structural Database, then it will include bibliographic, chemical, 
# crystal, experimental, refinement or atomic coordinate data resulting 
# from the CCDC's data processing and validation procedures.
#
#######################################################################

data_FEPRUO
_symmetry_cell_setting           monoclinic
_symmetry_space_group_name_H-M   'P 21/n'
_symmetry_Int_Tables_number      14
_space_group_name_Hall           '-P 2yn'
loop_
_symmetry_equiv_pos_site_id
_symmetry_equiv_pos_as_xyz
1 x,y,z
2 1/2-x,1/2+y,1/2-z
3 -x,-y,-z
4 1/2+x,1/2-y,1/2+z
_cell_length_a                   8.9167(9)
_cell_length_b                   19.3012(19)
_cell_length_c                   11.4532(11)
_cell_angle_alpha                90
_cell_angle_beta                 99.011(2)
_cell_angle_gamma                90
_cell_volume                     1946.8
loop_
_atom_site_label
_atom_site_type_symbol
_atom_site_fract_x
_atom_site_fract_y
_atom_site_fract_z
Zn1 Zn -0.20606(5) 0.18658(2) 0.04073(3)
Cl1 Cl -0.40338(12) 0.23165(6) 0.11312(9)
N1 N -0.0861(3) 0.13655(14) 0.1841(2)
N2 N 0.2532(3) -0.01446(14) 0.4699(2)
C1 C 0.3496(4) -0.01844(17) 0.6765(3)
H1 H 0.4124 -0.0398 0.7386
C2 C 0.3397(4) -0.04522(16) 0.5631(3)
C3 C 0.1768(4) 0.07007(16) 0.6011(3)
H2 H 0.1186 0.1089 0.6116
C4 C 0.0012(4) 0.13542(18) 0.3914(3)
H3 H 0.0021 0.1568 0.4643
C5 C 0.2739(4) 0.06908(18) 0.8193(3)
C6 C 0.1741(3) 0.04248(16) 0.4897(3)
C7 C 0.4220(4) -0.10823(16) 0.5380(3)
C8 C 0.2675(4) 0.03949(17) 0.6985(3)
C9 C 0.0823(4) 0.07504(15) 0.3835(2)
C10 C 0.3098(4) 0.0274(2) 0.9193(3)
H4 H 0.3310 -0.0193 0.9106
C11 C 0.0747(4) 0.04579(17) 0.2721(3)
H5 H 0.1257 0.0046 0.2627
C12 C 0.2853(5) 0.1241(2) 1.0450(3)
H6 H 0.2901 0.1427 1.1204
C13 C -0.0080(4) 0.07757(18) 0.1762(3)
H7 H -0.0102 0.0575 0.1021
C14 C 0.2424(4) 0.1379(2) 0.8369(3)
H8 H 0.2154 0.1663 0.7715
C15 C 0.4283(5) -0.12956(19) 0.4240(3)
H9 H 0.3791 -0.1040 0.3604
C16 C 0.2496(5) 0.1659(2) 0.9489(3)
H10 H 0.2303 0.2127 0.9584
C17 C 0.4968(5) -0.15063(19) 0.6273(3)
H11 H 0.4968 -0.1392 0.7062
C18 C -0.0807(5) 0.16378(19) 0.2913(3)
H12 H -0.1352 0.2042 0.2989
C19 C 0.3142(4) 0.0552(3) 1.0321(3)
H13 H 0.3367 0.0270 1.0983
Cl2 Cl -0.23349(19) 0.12229(6) -0.11958(9)
C20 C 0.5063(5) -0.18804(19) 0.4041(3)
H14 H 0.5100 -0.2005 0.3262
C21 C 0.5698(5) -0.2089(2) 0.5989(3)
H15 H 0.6170 -0.2365 0.6604
N3 N 0.5775(3) -0.22835(14) 0.4895(2)
Zn1A Zn 0.70606(5) -0.31342(2) 0.45927(3)
N3A N -0.0775(3) 0.27165(14) 0.0105(2)
loop_
_geom_bond_atom_site_label_1
_geom_bond_atom_site_label_2
_geom_bond_site_symmetry_1
_geom_bond_site_symmetry_2
Zn1 Cl1 1_555 1_555
N1 Zn1 1_555 1_555
N2 C2 1_555 1_555
C1 H1 1_555 1_555
C2 C1 1_555 1_555
C3 H2 1_555 1_555
C4 H3 1_555 1_555
C5 C8 1_555 1_555
C6 N2 1_555 1_555
C7 C2 1_555 1_555
C8 C1 1_555 1_555
C9 C4 1_555 1_555
C10 C5 1_555 1_555
H4 C10 1_555 1_555
C11 C9 1_555 1_555
H5 C11 1_555 1_555
C12 H6 1_555 1_555
C13 N1 1_555 1_555
H7 C13 1_555 1_555
C14 C5 1_555 1_555
H8 C14 1_555 1_555
C15 C7 1_555 1_555
H9 C15 1_555 1_555
C16 C12 1_555 1_555
H10 C16 1_555 1_555
C17 C7 1_555 1_555
H11 C17 1_555 1_555
C18 N1 1_555 1_555
H12 C18 1_555 1_555
C19 C10 1_555 1_555
H13 C19 1_555 1_555
Cl2 Zn1 1_555 1_555
C20 C15 1_555 1_555
H14 C20 1_555 1_555
C21 C17 1_555 1_555
H15 C21 1_555 1_555
N3 C20 1_555 1_555
Zn1A N3 1_555 1_555
N3A Zn1 1_555 1_555
C3 C6 1_555 1_555
C3 C8 1_555 1_555
C4 C18 1_555 1_555
C6 C9 1_555 1_555
C11 C13 1_555 1_555
C12 C19 1_555 1_555
C14 C16 1_555 1_555
C21 N3 1_555 1_555

#END
