
#######################################################################
#
#                 Cambridge Crystallographic Data Centre
#                                CCDC 
#
#######################################################################
#
# If this CIF has been generated from an entry in the Cambridge 
# Structural Database, then it will include bibliographic, chemical, 
# crystal, experimental, refinement or atomic coordinate data resulting 
# from the CCDC's data processing and validation procedures.
#
#######################################################################

data_FEPTEA
_symmetry_cell_setting           monoclinic
_symmetry_space_group_name_H-M   'P 21/c'
_symmetry_Int_Tables_number      14
_space_group_name_Hall           '-P 2ybc'
loop_
_symmetry_equiv_pos_site_id
_symmetry_equiv_pos_as_xyz
1 x,y,z
2 -x,1/2+y,1/2-z
3 -x,-y,-z
4 x,1/2-y,1/2+z
_cell_length_a                   7.7877(4)
_cell_length_b                   16.7015(9)
_cell_length_c                   8.6362(4)
_cell_angle_alpha                90.00
_cell_angle_beta                 113.710(2)
_cell_angle_gamma                90.00
_cell_volume                     1028.47
loop_
_atom_site_label
_atom_site_type_symbol
_atom_site_fract_x
_atom_site_fract_y
_atom_site_fract_z
Cd1 Cd 0.0000 0.0000 0.0000
Br1 Br 0.19761(7) 0.04426(3) -0.19059(6)
N1 N -0.7529(5) 0.4498(2) -0.2607(5)
N2 N -0.4828(5) 0.4001(2) -0.0891(5)
C1 C -0.5826(6) 0.4318(3) -0.2430(6)
H1 H -0.5363 0.4399 -0.3257
C2 C -0.5992(8) 0.3984(3) -0.0046(6)
H2 H -0.5695 0.3801 0.1049
C3 C -0.7639(7) 0.4283(3) -0.1114(6)
H3 H -0.8699 0.4337 -0.0880
C4 C -0.2391(7) 0.2926(3) -0.0289(6)
C5 C -0.2833(7) 0.3805(3) -0.0217(7)
H4 H -0.2260 0.3980 0.0952
H5 H -0.2257 0.4107 -0.0842
C6 C -0.3018(7) 0.1526(3) -0.0467(6)
H6 H -0.3863 0.1114 -0.0581
C7 C -0.3628(7) 0.2311(3) -0.0491(7)
H7 H -0.4858 0.2417 -0.0643
C8 C -0.0097(8) 0.1944(3) -0.0087(9)
H8 H 0.1118 0.1826 0.0035
C9 C -0.0586(8) 0.2734(3) -0.0052(9)
H9 H 0.0301 0.3136 0.0131
N3 N -0.1293(6) 0.1336(2) -0.0290(5)
Cd1C Cd -1.0000 0.5000 -0.5000
Cd1C_2 Cd 1.0000 -0.5000 0.5000
Br1B Br -0.19761(7) -0.04426(3) 0.19059(6)
N1C N 0.2471(5) 0.0502(2) 0.2393(5)
N1A N -0.2471(5) -0.0502(2) -0.2393(5)
N1B N 0.7529(5) -0.4498(2) 0.2607(5)
N2B N 0.4828(5) -0.4001(2) 0.0891(5)
C1B C 0.5826(6) -0.4318(3) 0.2430(6)
H1B H 0.5363 -0.4399 0.3257
C2B C 0.5992(8) -0.3984(3) 0.0046(6)
H2B H 0.5695 -0.3801 -0.1049
C3B C 0.7639(7) -0.4283(3) 0.1114(6)
H3B H 0.8699 -0.4337 0.0880
C4B C 0.2391(7) -0.2926(3) 0.0289(6)
C5B C 0.2833(7) -0.3805(3) 0.0217(7)
H4B H 0.2260 -0.3980 -0.0952
H5B H 0.2257 -0.4107 0.0842
C6B C 0.3018(7) -0.1526(3) 0.0467(6)
H6B H 0.3863 -0.1114 0.0581
C7B C 0.3628(7) -0.2311(3) 0.0491(7)
H7B H 0.4858 -0.2417 0.0643
C8B C 0.0097(8) -0.1944(3) 0.0087(9)
H8B H -0.1118 -0.1826 -0.0035
C9B C 0.0586(8) -0.2734(3) 0.0052(9)
H9B H -0.0301 -0.3136 -0.0131
N3B N 0.1293(6) -0.1336(2) 0.0290(5)
loop_
_geom_bond_atom_site_label_1
_geom_bond_atom_site_label_2
_geom_bond_site_symmetry_1
_geom_bond_site_symmetry_2
Cd1 Br1 1_555 1_555
N1 C1 1_555 1_555
N2 C1 1_555 1_555
C1 H1 1_555 1_555
C2 N2 1_555 1_555
H2 C2 1_555 1_555
C3 N1 1_555 1_555
H3 C3 1_555 1_555
C4 C5 1_555 1_555
C5 N2 1_555 1_555
H4 C5 1_555 1_555
H5 C5 1_555 1_555
C6 H6 1_555 1_555
C7 C4 1_555 1_555
H7 C7 1_555 1_555
C8 H8 1_555 1_555
C9 C4 1_555 1_555
H9 C9 1_555 1_555
N3 Cd1 1_555 1_555
Cd1C N1 1_555 1_555
Cd1C_2 N1B 1_555 1_555
Br1B Cd1 1_555 1_555
N1C Cd1 1_555 1_555
N1A Cd1 1_555 1_555
N1B C1B 1_555 1_555
N2B C1B 1_555 1_555
C1B H1B 1_555 1_555
C2B N2B 1_555 1_555
H2B C2B 1_555 1_555
C3B N1B 1_555 1_555
H3B C3B 1_555 1_555
C4B C5B 1_555 1_555
C5B N2B 1_555 1_555
H4B C5B 1_555 1_555
H5B C5B 1_555 1_555
C6B H6B 1_555 1_555
C7B C4B 1_555 1_555
H7B C7B 1_555 1_555
C8B H8B 1_555 1_555
C9B C4B 1_555 1_555
H9B C9B 1_555 1_555
N3B Cd1 1_555 1_555
C2 C3 1_555 1_555
C6 C7 1_555 1_555
C6 N3 1_555 1_555
C8 C9 1_555 1_555
C8 N3 1_555 1_555
C2B C3B 1_555 1_555
C6B C7B 1_555 1_555
C6B N3B 1_555 1_555
C8B C9B 1_555 1_555
C8B N3B 1_555 1_555

#END
