
#######################################################################
#
#                 Cambridge Crystallographic Data Centre
#                                CCDC 
#
#######################################################################
#
# If this CIF has been generated from an entry in the Cambridge 
# Structural Database, then it will include bibliographic, chemical, 
# crystal, experimental, refinement or atomic coordinate data resulting 
# from the CCDC's data processing and validation procedures.
#
#######################################################################

data_FEQNOF
_symmetry_cell_setting           triclinic
_symmetry_space_group_name_H-M   'P -1'
_symmetry_Int_Tables_number      2
_space_group_name_Hall           '-P 1'
loop_
_symmetry_equiv_pos_site_id
_symmetry_equiv_pos_as_xyz
1 x,y,z
2 -x,-y,-z
_cell_length_a                   7.191(5)
_cell_length_b                   10.566(7)
_cell_length_c                   11.906(5)
_cell_angle_alpha                101.66(4)
_cell_angle_beta                 107.08(4)
_cell_angle_gamma                96.72(5)
_cell_volume                     831.711
loop_
_atom_site_label
_atom_site_type_symbol
_atom_site_fract_x
_atom_site_fract_y
_atom_site_fract_z
Mn1 Mn 1.0000 0.0000 0.0000
Cr1 Cr 0.70539(6) 0.26129(4) 0.31516(4)
O1 O 0.9823(5) -0.1601(3) 0.0912(3)
N1 N 0.8228(5) 0.0992(3) 0.0979(3)
N2 N 0.6660(9) 0.5074(5) 0.1985(5)
N3 N 1.1748(4) 0.3673(3) 0.4374(3)
N4 N 1.2669(4) 0.1133(3) 0.1511(3)
N5 N 0.6366(4) 0.3516(2) 0.4653(2)
N6 N 0.7255(4) 0.1165(2) 0.4095(2)
C1 C 0.7782(5) 0.1578(3) 0.1740(3)
C2 C 0.6788(6) 0.4195(4) 0.2410(4)
C3 C 1.0072(4) 0.3356(3) 0.3992(3)
C4 C 1.4169(4) 0.1723(3) 0.2145(3)
C5 C 0.7321(5) 0.2989(3) 0.5694(3)
C6 C 0.7381(4) 0.1571(3) 0.5263(3)
C7 C 0.7593(5) 0.0721(4) 0.6024(3)
C8 C 0.7664(5) -0.0569(4) 0.5558(4)
C9 C 0.7498(5) -0.0989(3) 0.4364(4)
C10 C 0.7298(5) -0.0108(3) 0.3654(3)
H1 H 0.8690 0.3500 0.6131
H2 H 0.6528 0.3075 0.6272
H3 H 0.7683 0.1049 0.6899
H4 H 0.7843 -0.1201 0.6094
H5 H 0.7541 -0.1935 0.3996
H6 H 0.7163 -0.0427 0.2772
H7 H 0.8317 -0.2103 0.0640
H8 H 1.0796 -0.2438 0.0813
Cr1A Cr 0.29461(6) -0.26129(4) -0.31516(4)
Cr1_2 Cr 1.70539(6) 0.26129(4) 0.31516(4)
Cr1A_2 Cr 1.29461(6) -0.26129(4) -0.31516(4)
O1A O 1.0177(5) 0.1601(3) -0.0912(3)
N1A N 1.1772(5) -0.0992(3) -0.0979(3)
N2A N 0.3340(9) -0.5074(5) -0.1985(5)
N3A N -0.1748(4) -0.3673(3) -0.4374(3)
N4A N 0.7331(4) -0.1133(3) -0.1511(3)
N5A N 0.3634(4) -0.3516(2) -0.4653(2)
N6A N 0.2745(4) -0.1165(2) -0.4095(2)
C1A C 0.2218(5) -0.1578(3) -0.1740(3)
C1A_2 C 1.2218(5) -0.1578(3) -0.1740(3)
C2A C 0.3212(6) -0.4195(4) -0.2410(4)
C3A C -0.0072(4) -0.3356(3) -0.3992(3)
C4_2 C 0.4169(4) 0.1723(3) 0.2145(3)
C4A C 0.5831(4) -0.1723(3) -0.2145(3)
C5A C 0.2679(5) -0.2989(3) -0.5694(3)
C6A C 0.2619(4) -0.1571(3) -0.5263(3)
C7A C 0.2407(5) -0.0721(4) -0.6024(3)
C8A C 0.2336(5) 0.0569(4) -0.5558(4)
C9A C 0.2502(5) 0.0989(3) -0.4364(4)
C10A C 0.2702(5) 0.0108(3) -0.3654(3)
H1A H 0.1310 -0.3500 -0.6131
H2A H 0.3472 -0.3075 -0.6272
H3A H 0.2317 -0.1049 -0.6899
H4A H 0.2157 0.1201 -0.6094
H5A H 0.2459 0.1935 -0.3996
H6A H 0.2837 0.0427 -0.2772
H7A H 1.1683 0.2103 -0.0640
H8A H 0.9204 0.2438 -0.0813
O2 O 0.1373(14) 0.4389(7) 0.1535(8)
O3 O 0.2340(13) 0.6752(10) 0.1028(13)
O4 O 0.6235(7) 0.7100(5) 0.0801(6)
loop_
_geom_bond_atom_site_label_1
_geom_bond_atom_site_label_2
_geom_bond_site_symmetry_1
_geom_bond_site_symmetry_2
Mn1 O1 1_555 1_555
Cr1 N5 1_555 1_555
O1 H7 1_555 1_555
N1 Mn1 1_555 1_555
N2 C2 1_555 1_555
N3 C3 1_555 1_555
N4 Mn1 1_555 1_555
N5 C5 1_555 1_555
N6 Cr1 1_555 1_555
C1 Cr1 1_555 1_555
C2 Cr1 1_555 1_555
C3 Cr1 1_555 1_555
C4 N4 1_555 1_555
C5 C6 1_555 1_555
C6 N6 1_555 1_555
C7 C6 1_555 1_555
C8 C7 1_555 1_555
C9 C8 1_555 1_555
C10 N6 1_555 1_555
H1 C5 1_555 1_555
H2 C5 1_555 1_555
H3 C7 1_555 1_555
H4 C8 1_555 1_555
H5 C9 1_555 1_555
H6 C10 1_555 1_555
H8 O1 1_555 1_555
Cr1A N5A 1_555 1_555
Cr1_2 C4 1_555 1_555
Cr1A_2 C1A_2 1_555 1_555
O1A Mn1 1_555 1_555
N1A Mn1 1_555 1_555
N2A C2A 1_555 1_555
N3A C3A 1_555 1_555
N4A Mn1 1_555 1_555
N5A C5A 1_555 1_555
N6A Cr1A 1_555 1_555
C1A Cr1A 1_555 1_555
C1A_2 N1A 1_555 1_555
C2A Cr1A 1_555 1_555
C3A Cr1A 1_555 1_555
C4_2 Cr1 1_555 1_555
C4A Cr1A 1_555 1_555
C5A C6A 1_555 1_555
C6A N6A 1_555 1_555
C7A C6A 1_555 1_555
C8A C7A 1_555 1_555
C9A C8A 1_555 1_555
C10A N6A 1_555 1_555
H1A C5A 1_555 1_555
H2A C5A 1_555 1_555
H3A C7A 1_555 1_555
H4A C8A 1_555 1_555
H5A C9A 1_555 1_555
H6A C10A 1_555 1_555
H7A O1A 1_555 1_555
H8A O1A 1_555 1_555
N1 C1 1_555 1_555
C9 C10 1_555 1_555
N4A C4A 1_555 1_555
C9A C10A 1_555 1_555

#END
