
#######################################################################
#
#                 Cambridge Crystallographic Data Centre
#                                CCDC 
#
#######################################################################
#
# If this CIF has been generated from an entry in the Cambridge 
# Structural Database, then it will include bibliographic, chemical, 
# crystal, experimental, refinement or atomic coordinate data resulting 
# from the CCDC's data processing and validation procedures.
#
#######################################################################

data_FEQPOH
_symmetry_cell_setting           triclinic
_symmetry_space_group_name_H-M   'P -1'
_symmetry_Int_Tables_number      2
_space_group_name_Hall           '-P 1'
loop_
_symmetry_equiv_pos_site_id
_symmetry_equiv_pos_as_xyz
1 x,y,z
2 -x,-y,-z
_cell_length_a                   9.6481(11)
_cell_length_b                   9.8787(11)
_cell_length_c                   12.2188(14)
_cell_angle_alpha                78.936(2)
_cell_angle_beta                 82.489(2)
_cell_angle_gamma                78.503(2)
_cell_volume                     1114.81
loop_
_atom_site_label
_atom_site_type_symbol
_atom_site_fract_x
_atom_site_fract_y
_atom_site_fract_z
C16 C 0.0657(4) 0.6083(4) -0.0083(4)
C17 C 0.0261(6) 0.5384(6) 0.0955(4)
C18 C 0.0354(6) 0.5679(7) -0.1055(4)
C19 C 0.1266(6) 0.7134(6) -0.0203(5)
H37 H 0.0553 0.7996 -0.0281
H38 H 0.1943 0.7147 -0.0875
H39 H 0.1774 0.7071 0.0454
H40 H 0.058(3) 0.599(3) -0.172(3)
H41 H 0.050(5) 0.557(5) 0.171(5)
C16A C -0.0657(4) 0.3917(4) 0.0083(4)
C17A C -0.0261(6) 0.4616(6) -0.0955(4)
C18A C -0.0354(6) 0.4321(7) 0.1055(4)
C19A C -0.1266(6) 0.2866(6) 0.0203(5)
H37A H -0.0553 0.2004 0.0281
H38A H -0.1943 0.2853 0.0875
H39A H -0.1774 0.2929 -0.0454
H40A H -0.058(3) 0.401(3) 0.172(3)
H41A H -0.050(5) 0.443(5) -0.171(5)
Ti1 Ti 0.46195(3) 0.03002(3) 0.36678(2)
O1 O 0.32497(13) -0.02387(12) 0.30636(10)
O2 O 0.58251(11) 0.08199(11) 0.47321(9)
O3 O 0.61342(13) -0.10831(12) 0.32933(10)
O4 O 0.49308(13) 0.17522(13) 0.25263(10)
N1 N 0.29364(15) 0.19459(15) 0.44296(12)
H1 H 0.3059 0.1827 0.5178
H2 H 0.3141 0.2813 0.4106
C1 C 0.14165(18) 0.19949(19) 0.43463(16)
H3 H 0.1202 0.1038 0.4592
H4 H 0.1226 0.2293 0.3551
C2 C 0.68671(19) 0.17198(19) 0.44787(15)
H5 H 0.7436 0.1527 0.5137
C3 C 0.2137(2) -0.0755(2) 0.27274(16)
H6 H 0.1319 -0.0683 0.3320
C4 C 0.6476(2) -0.17004(19) 0.23138(15)
H7 H 0.5658 -0.1397 0.1844
C5 C 0.7895(2) 0.1414(2) 0.34671(17)
H8 H 0.7383 0.1657 0.2794
H9 H 0.8316 0.0415 0.3575
H10 H 0.8648 0.1973 0.3379
C6 C 0.6139(2) 0.3243(2) 0.43569(19)
H11 H 0.5457 0.3379 0.5012
H12 H 0.5637 0.3494 0.3679
H13 H 0.6852 0.3841 0.4301
C7 C 0.7774(2) -0.1207(2) 0.16473(18)
H14 H 0.8584 -0.1505 0.2098
H15 H 0.7585 -0.0182 0.1452
H16 H 0.7992 -0.1616 0.0961
C8 C 0.4183(2) 0.2596(2) 0.16460(16)
H17 H 0.3165 0.2478 0.1789
C9 C 0.2616(2) -0.2290(2) 0.26197(19)
H18 H 0.2924 -0.2829 0.3334
H19 H 0.3408 -0.2380 0.2033
H20 H 0.1823 -0.2652 0.2423
C10 C 0.6712(2) -0.3281(2) 0.26490(19)
H21 H 0.5858 -0.3559 0.3088
H22 H 0.7521 -0.3591 0.3101
H23 H 0.6911 -0.3714 0.1975
C11 C 0.1648(3) 0.0119(3) 0.1647(2)
H24 H 0.2433 0.0053 0.1052
H25 H 0.1342 0.1099 0.1744
H26 H 0.0851 -0.0228 0.1441
C12 C 0.4248(3) 0.4123(2) 0.1611(2)
H27 H 0.5243 0.4244 0.1515
H28 H 0.3789 0.4414 0.2313
H29 H 0.3756 0.4699 0.0982
C13 C 0.4796(3) 0.2119(3) 0.05527(18)
H30 H 0.4766 0.1122 0.0612
H31 H 0.5784 0.2262 0.0388
H32 H 0.4239 0.2664 -0.0051
C14 C 0.04174(19) 0.29818(19) 0.50408(16)
H33 H -0.0571 0.2862 0.5013
H34 H 0.0636 0.2710 0.5831
C15 C 0.05134(19) 0.45179(19) 0.46522(16)
H35 H 0.0308 0.4791 0.3859
H36 H 0.1496 0.4646 0.4694
Ti1A Ti 0.53805(3) -0.03002(3) 0.63322(2)
Ti1A_2 Ti -0.46195(3) 0.96998(3) 0.63322(2)
O1A O 0.67503(13) 0.02387(12) 0.69364(10)
O2A O 0.41749(11) -0.08199(11) 0.52679(9)
O3A O 0.38658(13) 0.10831(12) 0.67067(10)
O4A O 0.50692(13) -0.17522(13) 0.74737(10)
N1A N -0.29364(15) 0.80541(15) 0.55704(12)
N1A_2 N 0.70636(15) -0.19459(15) 0.55704(12)
H1A H -0.3059 0.8173 0.4822
H1A_2 H 0.6941 -0.1827 0.4822
H2A H -0.3141 0.7187 0.5894
H2A_2 H 0.6859 -0.2813 0.5894
C1A C -0.14165(18) 0.80051(19) 0.56537(16)
H3A H -0.1202 0.8962 0.5408
H4A H -0.1226 0.7707 0.6449
C2A C 0.31329(19) -0.17198(19) 0.55213(15)
H5A H 0.2564 -0.1527 0.4863
C3A C 0.7863(2) 0.0755(2) 0.72726(16)
H6A H 0.8681 0.0683 0.6680
C4A C 0.3524(2) 0.17004(19) 0.76862(15)
H7A H 0.4342 0.1397 0.8156
C5A C 0.2105(2) -0.1414(2) 0.65329(17)
H8A H 0.2617 -0.1657 0.7206
H9A H 0.1684 -0.0415 0.6425
H10A H 0.1352 -0.1973 0.6621
C6A C 0.3861(2) -0.3243(2) 0.56431(19)
H11A H 0.4543 -0.3379 0.4988
H12A H 0.4363 -0.3494 0.6321
H13A H 0.3148 -0.3841 0.5699
C7A C 0.2226(2) 0.1207(2) 0.83527(18)
H14A H 0.1416 0.1505 0.7902
H15A H 0.2415 0.0182 0.8548
H16A H 0.2008 0.1616 0.9039
C8A C 0.5817(2) -0.2596(2) 0.83540(16)
H17A H 0.6835 -0.2478 0.8211
C9A C 0.7384(2) 0.2290(2) 0.73803(19)
H18A H 0.7076 0.2829 0.6666
H19A H 0.6592 0.2380 0.7967
H20A H 0.8177 0.2652 0.7577
C10A C 0.3288(2) 0.3281(2) 0.73510(19)
H21A H 0.4142 0.3559 0.6912
H22A H 0.2479 0.3591 0.6899
H23A H 0.3089 0.3714 0.8025
C11A C 0.8352(3) -0.0119(3) 0.8353(2)
H24A H 0.7567 -0.0053 0.8948
H25A H 0.8658 -0.1099 0.8256
H26A H 0.9149 0.0228 0.8559
C12A C 0.5752(3) -0.4123(2) 0.8389(2)
H27A H 0.4757 -0.4244 0.8485
H28A H 0.6211 -0.4414 0.7687
H29A H 0.6244 -0.4699 0.9018
C13A C 0.5204(3) -0.2119(3) 0.94473(18)
H30A H 0.5234 -0.1122 0.9388
H31A H 0.4216 -0.2262 0.9612
H32A H 0.5761 -0.2664 1.0051
C14A C -0.04174(19) 0.70182(19) 0.49592(16)
H33A H 0.0571 0.7138 0.4987
H34A H -0.0636 0.7290 0.4169
C15A C -0.05134(19) 0.54821(19) 0.53478(16)
H35A H -0.0308 0.5209 0.6141
H36A H -0.1496 0.5354 0.5306
loop_
_geom_bond_atom_site_label_1
_geom_bond_atom_site_label_2
_geom_bond_site_symmetry_1
_geom_bond_site_symmetry_2
Ti1 O1 1_555 1_555
O1 C3 1_555 1_555
O2 Ti1 1_555 1_555
O3 Ti1 1_555 1_555
O4 Ti1 1_555 1_555
N1 Ti1 1_555 1_555
H1 N1 1_555 1_555
H2 N1 1_555 1_555
C1 N1 1_555 1_555
H3 C1 1_555 1_555
H4 C1 1_555 1_555
C2 O2 1_555 1_555
H5 C2 1_555 1_555
C3 H6 1_555 1_555
C4 O3 1_555 1_555
H7 C4 1_555 1_555
C5 C2 1_555 1_555
H8 C5 1_555 1_555
H9 C5 1_555 1_555
H10 C5 1_555 1_555
C6 C2 1_555 1_555
H11 C6 1_555 1_555
H12 C6 1_555 1_555
H13 C6 1_555 1_555
C7 C4 1_555 1_555
H14 C7 1_555 1_555
H15 C7 1_555 1_555
H16 C7 1_555 1_555
C8 O4 1_555 1_555
H17 C8 1_555 1_555
C9 C3 1_555 1_555
H18 C9 1_555 1_555
H19 C9 1_555 1_555
H20 C9 1_555 1_555
C10 C4 1_555 1_555
H21 C10 1_555 1_555
H22 C10 1_555 1_555
H23 C10 1_555 1_555
C11 C3 1_555 1_555
H24 C11 1_555 1_555
H25 C11 1_555 1_555
H26 C11 1_555 1_555
C12 C8 1_555 1_555
H27 C12 1_555 1_555
H28 C12 1_555 1_555
H29 C12 1_555 1_555
C13 C8 1_555 1_555
H30 C13 1_555 1_555
H31 C13 1_555 1_555
H32 C13 1_555 1_555
C14 C1 1_555 1_555
H33 C14 1_555 1_555
H34 C14 1_555 1_555
C15 C14 1_555 1_555
H35 C15 1_555 1_555
H36 C15 1_555 1_555
C16 C17 1_555 1_555
C17 H41 1_555 1_555
C18 C16 1_555 1_555
C19 C16 1_555 1_555
H37 C19 1_555 1_555
H38 C19 1_555 1_555
H39 C19 1_555 1_555
H40 C18 1_555 1_555
Ti1A O2 1_555 1_555
Ti1A_2 N1A 1_555 1_555
O1A Ti1A 1_555 1_555
O2A Ti1 1_555 1_555
O3A Ti1A 1_555 1_555
O4A Ti1A 1_555 1_555
N1A H1A 1_555 1_555
N1A_2 Ti1A 1_555 1_555
H1A_2 N1A_2 1_555 1_555
H2A N1A 1_555 1_555
H2A_2 N1A_2 1_555 1_555
C1A N1A 1_555 1_555
H3A C1A 1_555 1_555
H4A C1A 1_555 1_555
C2A O2A 1_555 1_555
H5A C2A 1_555 1_555
C3A O1A 1_555 1_555
H6A C3A 1_555 1_555
C4A O3A 1_555 1_555
H7A C4A 1_555 1_555
C5A C2A 1_555 1_555
H8A C5A 1_555 1_555
H9A C5A 1_555 1_555
H10A C5A 1_555 1_555
C6A C2A 1_555 1_555
H11A C6A 1_555 1_555
H12A C6A 1_555 1_555
H13A C6A 1_555 1_555
C7A C4A 1_555 1_555
H14A C7A 1_555 1_555
H15A C7A 1_555 1_555
H16A C7A 1_555 1_555
C8A O4A 1_555 1_555
H17A C8A 1_555 1_555
C9A C3A 1_555 1_555
H18A C9A 1_555 1_555
H19A C9A 1_555 1_555
H20A C9A 1_555 1_555
C10A C4A 1_555 1_555
H21A C10A 1_555 1_555
H22A C10A 1_555 1_555
H23A C10A 1_555 1_555
C11A C3A 1_555 1_555
H24A C11A 1_555 1_555
H25A C11A 1_555 1_555
H26A C11A 1_555 1_555
C12A C8A 1_555 1_555
H27A C12A 1_555 1_555
H28A C12A 1_555 1_555
H29A C12A 1_555 1_555
C13A C8A 1_555 1_555
H30A C13A 1_555 1_555
H31A C13A 1_555 1_555
H32A C13A 1_555 1_555
C14A C1A 1_555 1_555
H33A C14A 1_555 1_555
H34A C14A 1_555 1_555
C15A C15 1_555 1_555
H35A C15A 1_555 1_555
H36A C15A 1_555 1_555
C16A C17A 1_555 1_555
C17A C18 1_555 1_555
C18A C17 1_555 1_555
C19A C16A 1_555 1_555
H37A C19A 1_555 1_555
H38A C19A 1_555 1_555
H39A C19A 1_555 1_555
H40A C18A 1_555 1_555
H41A C17A 1_555 1_555
Ti1A O2A 1_555 1_555
C14A C15A 1_555 1_555
C16A C18A 1_555 1_555

#END
