
#######################################################################
#
#                 Cambridge Crystallographic Data Centre
#                                CCDC 
#
#######################################################################
#
# If this CIF has been generated from an entry in the Cambridge 
# Structural Database, then it will include bibliographic, chemical, 
# crystal, experimental, refinement or atomic coordinate data resulting 
# from the CCDC's data processing and validation procedures.
#
#######################################################################

data_FEQQUP
_symmetry_cell_setting           monoclinic
_symmetry_space_group_name_H-M   'C 2'
_symmetry_Int_Tables_number      5
_space_group_name_Hall           'C 2y'
loop_
_symmetry_equiv_pos_site_id
_symmetry_equiv_pos_as_xyz
1 x,y,z
2 -x,y,-z
3 1/2+x,1/2+y,z
4 1/2-x,1/2+y,-z
_cell_length_a                   19.2468(9)
_cell_length_b                   8.1427(4)
_cell_length_c                   10.6572(5)
_cell_angle_alpha                90
_cell_angle_beta                 96.715(2)
_cell_angle_gamma                90
_cell_volume                     1658.75
loop_
_atom_site_label
_atom_site_type_symbol
_atom_site_fract_x
_atom_site_fract_y
_atom_site_fract_z
C1 C 0.13626(14) 0.1784(4) 0.0508(2)
C2 C 0.17895(15) 0.2951(4) 0.0048(3)
H1 H 0.1607 0.3648 -0.0627
C3 C 0.24910(13) 0.3113(4) 0.0572(2)
H2 H 0.2774 0.3944 0.0267
C4 C 0.27752(13) 0.2073(4) 0.1529(2)
C5 C 0.23383(13) 0.0903(4) 0.1969(2)
H3 H 0.2522 0.0187 0.2629
C6 C 0.16455(14) 0.0744(4) 0.1479(2)
H4 H 0.1361 -0.0072 0.1801
C7 C 0.35140(13) 0.2221(3) 0.2198(2)
H5 H 0.3733 0.1120 0.2223
H6 H 0.3484 0.2560 0.3082
C8 C 0.39936(14) 0.3416(4) 0.1620(2)
H7 H 0.3737 0.4484 0.1508
C9 C 0.46781(15) 0.3759(4) 0.2481(3)
C10 C -0.36445(15) 0.6361(4) -0.4481(3)
C11 C -0.33056(15) 0.5170(4) -0.5129(3)
H8 H -0.3533 0.4715 -0.5889
C12 C -0.26356(14) 0.4646(4) -0.4667(2)
H9 H -0.2416 0.3823 -0.5114
C13 C -0.22803(13) 0.5295(3) -0.3572(2)
C14 C -0.26253(13) 0.6481(3) -0.2929(2)
H10 H -0.2396 0.6938 -0.2171
C15 C -0.32976(14) 0.7010(4) -0.3370(2)
H11 H -0.3521 0.7817 -0.2912
C16 C -0.15693(12) 0.4630(3) -0.3040(2)
H12 H -0.1523 0.3505 -0.3371
H13 H -0.1558 0.4543 -0.2111
C17 C -0.09339(14) 0.5620(4) -0.3321(2)
H14 H -0.0991 0.6791 -0.3072
C18 C -0.02977(14) 0.4871(4) -0.2521(2)
Co1 Co 0.0000 0.34419(6) 0.0000
Co2 Co 0.5000 0.46626(6) 0.0000
Co3 Co 0.0000 0.38187(6) -0.5000
Co4 Co -0.5000 0.50709(6) -0.5000
N1 N 0.41909(14) 0.2953(4) 0.0367(2)
H15 H 0.3901(18) 0.320(6) -0.030(3)
H16 H 0.4388(15) 0.200(3) 0.029(3)
N2 N -0.08261(14) 0.5532(4) -0.4674(2)
H17 H -0.1239(10) 0.549(4) -0.510(3)
H18 H -0.077(2) 0.644(5) -0.487(4)
O1 O 0.06800(10) 0.1665(3) 0.0036(2)
O2 O -0.43124(10) 0.6794(3) -0.49010(19)
O3 O 0.51744(10) 0.4341(3) 0.19873(19)
O4 O 0.46807(11) 0.3505(3) 0.36633(18)
O5 O 0.01549(10) 0.4121(3) -0.30413(18)
O6 O -0.02794(11) 0.5080(3) -0.13348(18)
C1A C -0.13626(14) 0.1784(4) -0.0508(2)
C2A C -0.17895(15) 0.2951(4) -0.0048(3)
H1A H -0.1607 0.3648 0.0627
C3A C -0.24910(13) 0.3113(4) -0.0572(2)
H2A H -0.2774 0.3944 -0.0267
C4A C -0.27752(13) 0.2073(4) -0.1529(2)
C5A C -0.23383(13) 0.0903(4) -0.1969(2)
H3A H -0.2522 0.0187 -0.2629
C6A C -0.16455(14) 0.0744(4) -0.1479(2)
H4A H -0.1361 -0.0072 -0.1801
C7A C -0.35140(13) 0.2221(3) -0.2198(2)
H5A H -0.3733 0.1120 -0.2223
H6A H -0.3484 0.2560 -0.3082
C8A C -0.39936(14) 0.3416(4) -0.1620(2)
H7A H -0.3737 0.4484 -0.1508
C9A C -0.46781(15) 0.3759(4) -0.2481(3)
C10A C 0.36445(15) 0.6361(4) 0.4481(3)
C11A C 0.33056(15) 0.5170(4) 0.5129(3)
H8A H 0.3533 0.4715 0.5889
C12A C 0.26356(14) 0.4646(4) 0.4667(2)
H9A H 0.2416 0.3823 0.5114
C13A C 0.22803(13) 0.5295(3) 0.3572(2)
C14A C 0.26253(13) 0.6481(3) 0.2929(2)
H10A H 0.2396 0.6938 0.2171
C15A C 0.32976(14) 0.7010(4) 0.3370(2)
H11A H 0.3521 0.7817 0.2912
C16A C 0.15693(12) 0.4630(3) 0.3040(2)
H12A H 0.1523 0.3505 0.3371
H13A H 0.1558 0.4543 0.2111
C17A C 0.09339(14) 0.5620(4) 0.3321(2)
H14A H 0.0991 0.6791 0.3072
C18A C 0.02977(14) 0.4871(4) 0.2521(2)
Co2B Co 0.0000 -0.03374(6) 0.0000
Co2_2 Co -0.5000 0.46626(6) 0.0000
Co3B Co -0.5000 0.88187(6) -0.5000
Co3_2 Co 0.0000 0.38187(6) 0.5000
Co3B_2 Co 0.5000 0.88187(6) 0.5000
Co4_2 Co 0.5000 0.50709(6) 0.5000
N1A N -0.41909(14) 0.2953(4) -0.0367(2)
N1A_2 N 0.58091(14) 0.2953(4) -0.0367(2)
H15A H -0.3901(18) 0.320(6) 0.030(3)
H15A_2 H 0.6099(18) 0.320(6) 0.030(3)
H16A H -0.4388(15) 0.200(3) -0.029(3)
H16A_2 H 0.5612(15) 0.200(3) -0.029(3)
N2A N 0.08261(14) 0.5532(4) 0.4674(2)
N2A_2 N 0.08261(14) 0.5532(4) -0.5326(2)
H17A H 0.1239(10) 0.549(4) 0.510(3)
H17A_2 H 0.1239(10) 0.549(4) -0.490(3)
H18A H 0.077(2) 0.644(5) 0.487(4)
H18A_2 H 0.077(2) 0.644(5) -0.513(4)
O1A O -0.06800(10) 0.1665(3) -0.0036(2)
O1B O 0.56800(10) 0.6665(3) 0.0036(2)
O1C O 0.43200(10) 0.6665(3) -0.0036(2)
O2A O 0.43124(10) 0.6794(3) 0.49010(19)
O2B O 0.06876(10) 0.1794(3) -0.49010(19)
O2C O -0.06876(10) 0.1794(3) -0.50990(19)
O2A_2 O -0.56876(10) 0.6794(3) -0.50990(19)
O3A O -0.51744(10) 0.4341(3) -0.19873(19)
O3A_2 O 0.48256(10) 0.4341(3) -0.19873(19)
O4A O -0.46807(11) 0.3505(3) -0.36633(18)
O4_2 O -0.53193(11) 0.3505(3) -0.63367(18)
O5A O -0.01549(10) 0.4121(3) 0.30413(18)
O5A_2 O -0.01549(10) 0.4121(3) -0.69587(18)
O6A O 0.02794(11) 0.5080(3) 0.13348(18)
loop_
_geom_bond_atom_site_label_1
_geom_bond_atom_site_label_2
_geom_bond_site_symmetry_1
_geom_bond_site_symmetry_2
C1 C2 1_555 1_555
C2 H1 1_555 1_555
C3 C2 1_555 1_555
H2 C3 1_555 1_555
C4 C3 1_555 1_555
C5 C4 1_555 1_555
H3 C5 1_555 1_555
C6 C1 1_555 1_555
H4 C6 1_555 1_555
C7 C4 1_555 1_555
H5 C7 1_555 1_555
H6 C7 1_555 1_555
C8 C7 1_555 1_555
H7 C8 1_555 1_555
C9 C8 1_555 1_555
C10 C11 1_555 1_555
C11 H8 1_555 1_555
C12 C11 1_555 1_555
H9 C12 1_555 1_555
C13 C12 1_555 1_555
C14 C13 1_555 1_555
H10 C14 1_555 1_555
C15 C10 1_555 1_555
H11 C15 1_555 1_555
C16 C13 1_555 1_555
H12 C16 1_555 1_555
H13 C16 1_555 1_555
C17 C16 1_555 1_555
H14 C17 1_555 1_555
C18 C17 1_555 1_555
Co1 O1 1_555 1_555
Co2 N1 1_555 1_555
Co3 N2 1_555 1_555
Co4 O2 1_555 1_555
N1 C8 1_555 1_555
H15 N1 1_555 1_555
H16 N1 1_555 1_555
N2 C17 1_555 1_555
H17 N2 1_555 1_555
H18 N2 1_555 1_555
O1 C1 1_555 1_555
O2 C10 1_555 1_555
O3 C9 1_555 1_555
O4 C9 1_555 1_555
O5 C18 1_555 1_555
O6 C18 1_555 1_555
C1A C2A 1_555 1_555
C2A H1A 1_555 1_555
C3A C2A 1_555 1_555
H2A C3A 1_555 1_555
C4A C3A 1_555 1_555
C5A C4A 1_555 1_555
H3A C5A 1_555 1_555
C6A C1A 1_555 1_555
H4A C6A 1_555 1_555
C7A C4A 1_555 1_555
H5A C7A 1_555 1_555
H6A C7A 1_555 1_555
C8A C7A 1_555 1_555
H7A C8A 1_555 1_555
C9A C8A 1_555 1_555
C10A C11A 1_555 1_555
C11A H8A 1_555 1_555
C12A C11A 1_555 1_555
H9A C12A 1_555 1_555
C13A C12A 1_555 1_555
C14A C13A 1_555 1_555
H10A C14A 1_555 1_555
C15A C10A 1_555 1_555
H11A C15A 1_555 1_555
C16A C13A 1_555 1_555
H12A C16A 1_555 1_555
H13A C16A 1_555 1_555
C17A C16A 1_555 1_555
H14A C17A 1_555 1_555
C18A C17A 1_555 1_555
Co2B O1 1_555 1_555
Co2_2 N1A 1_555 1_555
Co3B O2 1_555 1_555
Co3_2 N2A 1_555 1_555
Co3B_2 O2A 1_555 1_555
Co4_2 O4 1_555 1_555
N1A C8A 1_555 1_555
N1A_2 Co2 1_555 1_555
H15A N1A 1_555 1_555
H15A_2 N1A_2 1_555 1_555
H16A N1A 1_555 1_555
H16A_2 N1A_2 1_555 1_555
N2A C17A 1_555 1_555
N2A_2 Co3 1_555 1_555
H17A N2A 1_555 1_555
H17A_2 N2A_2 1_555 1_555
H18A N2A 1_555 1_555
H18A_2 N2A_2 1_555 1_555
O1A Co1 1_555 1_555
O1B Co2 1_555 1_555
O1C Co2 1_555 1_555
O2A C10A 1_555 1_555
O2B Co3 1_555 1_555
O2C Co3 1_555 1_555
O2A_2 Co4 1_555 1_555
O3A C9A 1_555 1_555
O3A_2 Co2 1_555 1_555
O4A Co4 1_555 1_555
O4_2 Co4 1_555 1_555
O5A C18A 1_555 1_555
O5A_2 Co3 1_555 1_555
O6A Co1 1_555 1_555
C5 C6 1_555 1_555
C14 C15 1_555 1_555
Co1 O6 1_555 1_555
Co2 O3 1_555 1_555
Co3 O5 1_555 1_555
C1A O1A 1_555 1_555
C5A C6A 1_555 1_555
C9A O4A 1_555 1_555
C14A C15A 1_555 1_555
C18A O6A 1_555 1_555
Co2B O1A 1_555 1_555
Co2_2 O3A 1_555 1_555
Co3B O2A_2 1_555 1_555
Co3_2 O5A 1_555 1_555
Co4_2 O2A 1_555 1_555

#END
