
#######################################################################
#
#                 Cambridge Crystallographic Data Centre
#                                CCDC 
#
#######################################################################
#
# If this CIF has been generated from an entry in the Cambridge 
# Structural Database, then it will include bibliographic, chemical, 
# crystal, experimental, refinement or atomic coordinate data resulting 
# from the CCDC's data processing and validation procedures.
#
#######################################################################

data_FEQREA
_symmetry_cell_setting           monoclinic
_symmetry_space_group_name_H-M   'C 2'
_symmetry_Int_Tables_number      5
_space_group_name_Hall           'C 2y'
loop_
_symmetry_equiv_pos_site_id
_symmetry_equiv_pos_as_xyz
1 x,y,z
2 -x,y,-z
3 1/2+x,1/2+y,z
4 1/2-x,1/2+y,-z
_cell_length_a                   19.2243(6)
_cell_length_b                   8.0889(2)
_cell_length_c                   10.7037(3)
_cell_angle_alpha                90
_cell_angle_beta                 96.7490(10)
_cell_angle_gamma                90
_cell_volume                     1652.93
loop_
_atom_site_label
_atom_site_type_symbol
_atom_site_fract_x
_atom_site_fract_y
_atom_site_fract_z
Zn1 Zn 0.5000 0.53210(7) 0.5000
Zn2 Zn 0.5000 0.15460(7) 0.5000
Zn3 Zn 0.0000 -0.00986(7) 0.0000
Zn4 Zn 1.0000 -0.38988(7) 1.0000
O1 O 0.93220(14) -0.1878(4) 0.9995(3)
O2 O -0.01469(15) 0.0531(4) 0.2997(3)
O3 O 0.43054(14) 0.3267(4) 0.4932(2)
O4 O 0.48289(15) 0.0841(4) 0.7971(3)
C1 C 0.86379(19) -0.1751(5) 0.9507(3)
C2 C 0.3643(2) 0.2823(6) 0.4499(4)
C3 C 0.0291(2) 0.1331(5) 0.2508(3)
C4 C 0.5322(2) 0.0253(5) 0.7501(3)
N1 N 0.08240(17) 0.2022(5) 0.4659(3)
H1 H 0.1254(13) 0.172(5) 0.499(4)
H2 H 0.067(2) 0.298(4) 0.496(4)
O5 O 0.53267(15) -0.0024(4) 0.6319(2)
O6 O 0.02746(15) 0.1534(4) 0.1321(2)
C5 C 0.09237(18) 0.2077(5) 0.3316(3)
H3 H 0.0982 0.3253 0.3061
N2 N 0.58042(18) -0.0575(5) 0.9591(3)
H4 H 0.6156(17) -0.036(6) 1.016(3)
H5 H 0.560(2) -0.157(4) 0.955(4)
C6 C 0.60065(18) -0.0105(5) 0.8345(3)
H6 H 0.6265 0.0967 0.8462
C7 C 0.8203(2) -0.0576(6) 0.9955(3)
H7 H 0.8384 0.0131 1.0625
C8 C 0.3297(2) 0.1642(6) 0.5143(4)
H8 H 0.3520 0.1198 0.5909
C9 C 0.75019(18) -0.0415(5) 0.9437(3)
H9 H 0.7216 0.0410 0.9749
C10 C 0.83573(18) -0.2802(5) 0.8539(3)
H10 H 0.8643 -0.3624 0.8224
C11 C 0.76621(18) -0.2644(5) 0.8041(3)
H11 H 0.7480 -0.3372 0.7386
C12 C 0.33039(18) 0.3473(5) 0.3377(3)
H12 H 0.3531 0.4278 0.2922
C13 C 0.26280(18) 0.2933(5) 0.2926(3)
H13 H 0.2401 0.3385 0.2165
C14 C 0.26287(19) 0.1102(5) 0.4678(3)
H14 H 0.2406 0.0280 0.5125
C15 C 0.22805(17) 0.1748(5) 0.3568(3)
C16 C 0.15680(17) 0.1080(5) 0.3033(3)
H15 H 0.1522 -0.0056 0.3358
H16 H 0.1558 0.0998 0.2108
C17 C 0.72205(17) -0.1457(5) 0.8465(3)
C18 C 0.64878(18) -0.1308(5) 0.7786(3)
H17 H 0.6267 -0.2416 0.7760
H18 H 0.6524 -0.0972 0.6907
Zn1B Zn 0.0000 0.03210(7) 0.5000
Zn1B_2 Zn 1.0000 1.03210(7) 0.5000
Zn2B Zn 1.0000 0.65460(7) 0.5000
Zn3_2 Zn 1.0000 -0.00986(7) 1.0000
Zn3B Zn 0.5000 0.49014(7) 0.0000
Zn4B Zn 0.5000 0.11012(7) 1.0000
Zn4_2 Zn 0.0000 -0.38988(7) 0.0000
Zn4B_2 Zn 0.5000 0.11012(7) 0.0000
O1A O 0.06780(14) -0.1878(4) 0.0005(3)
O1_2 O -0.06780(14) -0.1878(4) -0.0005(3)
O1A_2 O 1.06780(14) -0.1878(4) 1.0005(3)
O2B O 0.48531(15) 0.5531(4) 0.2997(3)
O2C O 0.51469(15) 0.5531(4) 0.7003(3)
O3B O 0.93054(14) 0.8267(4) 0.4932(2)
O3A O 0.56946(14) 0.3267(4) 0.5068(2)
O4A O 0.51711(15) 0.0841(4) 0.2029(3)
O4C O 1.01711(15) -0.4159(4) 1.2029(3)
O4B O 0.98289(15) -0.4159(4) 0.7971(3)
C1A C 0.13621(19) -0.1751(5) 0.0493(3)
C2B C 0.8643(2) 0.7823(6) 0.4499(4)
C3B C 0.5291(2) 0.6331(5) 0.2508(3)
C4A C 0.4678(2) 0.0253(5) 0.2499(3)
N1B N 0.58240(17) 0.7022(5) 0.4659(3)
N1C N 0.41760(17) 0.7022(5) 0.5341(3)
H1B H 0.6254(13) 0.672(5) 0.499(4)
H1C H 0.3746(13) 0.672(5) 0.501(4)
H2B H 0.567(2) 0.798(4) 0.496(4)
H2C H 0.433(2) 0.798(4) 0.504(4)
O5A O 0.46733(15) -0.0024(4) 0.3681(2)
O6B O 0.52746(15) 0.6534(4) 0.1321(2)
O6A O -0.02746(15) 0.1534(4) -0.1321(2)
C5B C 0.59237(18) 0.7077(5) 0.3316(3)
H3B H 0.5982 0.8253 0.3061
N2A N 0.41958(18) -0.0575(5) 0.0409(3)
N2C N 0.91958(18) -0.5575(5) 1.0409(3)
N2B N 1.08042(18) -0.5575(5) 0.9591(3)
H4A H 0.3844(17) -0.036(6) -0.016(3)
H4C H 0.8844(17) -0.536(6) 0.984(3)
H4B H 1.1156(17) -0.536(6) 1.016(3)
H5A H 0.440(2) -0.157(4) 0.045(4)
H5C H 0.940(2) -0.657(4) 1.045(4)
H5B H 1.060(2) -0.657(4) 0.955(4)
C6A C 0.39935(18) -0.0105(5) 0.1655(3)
H6A H 0.3735 0.0967 0.1538
C7A C 0.1797(2) -0.0576(6) 0.0045(3)
H7A H 0.1616 0.0131 -0.0625
C8B C 0.8297(2) 0.6642(6) 0.5143(4)
H8B H 0.8520 0.6198 0.5909
C9A C 0.24981(18) -0.0415(5) 0.0563(3)
H9A H 0.2784 0.0410 0.0251
C10A C 0.16427(18) -0.2802(5) 0.1461(3)
H10A H 0.1357 -0.3624 0.1776
C11A C 0.23379(18) -0.2644(5) 0.1959(3)
H11A H 0.2520 -0.3372 0.2614
C12B C 0.83039(18) 0.8473(5) 0.3377(3)
H12B H 0.8531 0.9278 0.2922
C13B C 0.76280(18) 0.7933(5) 0.2926(3)
H13B H 0.7401 0.8385 0.2165
C14B C 0.76287(19) 0.6102(5) 0.4678(3)
H14B H 0.7406 0.5280 0.5125
C15B C 0.72805(17) 0.6748(5) 0.3568(3)
C16B C 0.65680(17) 0.6080(5) 0.3033(3)
H15B H 0.6522 0.4944 0.3358
H16B H 0.6558 0.5998 0.2108
C17A C 0.27795(17) -0.1457(5) 0.1535(3)
C18A C 0.35122(18) -0.1308(5) 0.2214(3)
H17A H 0.3733 -0.2416 0.2240
H18A H 0.3476 -0.0972 0.3093
loop_
_geom_bond_atom_site_label_1
_geom_bond_atom_site_label_2
_geom_bond_site_symmetry_1
_geom_bond_site_symmetry_2
Zn1 O3 1_555 1_555
Zn2 O3 1_555 1_555
Zn3 O6 1_555 1_555
Zn4 O1 1_555 1_555
O1 C1 1_555 1_555
O2 C3 1_555 1_555
O3 C2 1_555 1_555
O4 C4 1_555 1_555
C1 C7 1_555 1_555
C2 C8 1_555 1_555
C3 O6 1_555 1_555
C4 O5 1_555 1_555
N1 H1 1_555 1_555
H2 N1 1_555 1_555
O5 Zn2 1_555 1_555
C5 C3 1_555 1_555
H3 C5 1_555 1_555
N2 H4 1_555 1_555
H5 N2 1_555 1_555
C6 C4 1_555 1_555
H6 C6 1_555 1_555
C7 H7 1_555 1_555
C8 H8 1_555 1_555
C9 C7 1_555 1_555
H9 C9 1_555 1_555
C10 C1 1_555 1_555
H10 C10 1_555 1_555
C11 C10 1_555 1_555
H11 C11 1_555 1_555
C12 C2 1_555 1_555
H12 C12 1_555 1_555
C13 C12 1_555 1_555
H13 C13 1_555 1_555
C14 C8 1_555 1_555
H14 C14 1_555 1_555
C15 C13 1_555 1_555
C16 C5 1_555 1_555
H15 C16 1_555 1_555
H16 C16 1_555 1_555
C17 C9 1_555 1_555
C18 C6 1_555 1_555
H17 C18 1_555 1_555
H18 C18 1_555 1_555
Zn1B O2 1_555 1_555
Zn1B_2 O3B 1_555 1_555
Zn2B O3B 1_555 1_555
Zn3_2 O1 1_555 1_555
Zn3B O6B 1_555 1_555
Zn4B O4 1_555 1_555
Zn4_2 O1A 1_555 1_555
Zn4B_2 O4A 1_555 1_555
O1A Zn3 1_555 1_555
O1_2 Zn3 1_555 1_555
O1A_2 Zn4 1_555 1_555
O2B Zn1 1_555 1_555
O2C Zn1 1_555 1_555
O3B C2B 1_555 1_555
O3A Zn1 1_555 1_555
O4A C4A 1_555 1_555
O4C Zn4 1_555 1_555
O4B Zn4 1_555 1_555
C1A O1A 1_555 1_555
C2B C8B 1_555 1_555
C3B O2B 1_555 1_555
C4A O5A 1_555 1_555
N1B Zn1 1_555 1_555
N1C Zn1 1_555 1_555
H1B N1B 1_555 1_555
H1C N1C 1_555 1_555
H2B N1B 1_555 1_555
H2C N1C 1_555 1_555
O5A Zn2 1_555 1_555
O6B C3B 1_555 1_555
O6A Zn3 1_555 1_555
C5B C3B 1_555 1_555
H3B C5B 1_555 1_555
N2A Zn4B_2 1_555 1_555
N2C Zn4 1_555 1_555
N2B Zn4 1_555 1_555
H4A N2A 1_555 1_555
H4C N2C 1_555 1_555
H4B N2B 1_555 1_555
H5A N2A 1_555 1_555
H5C N2C 1_555 1_555
H5B N2B 1_555 1_555
C6A C4A 1_555 1_555
H6A C6A 1_555 1_555
C7A C1A 1_555 1_555
H7A C7A 1_555 1_555
C8B H8B 1_555 1_555
C9A C7A 1_555 1_555
H9A C9A 1_555 1_555
C10A C1A 1_555 1_555
H10A C10A 1_555 1_555
C11A C10A 1_555 1_555
H11A C11A 1_555 1_555
C12B C2B 1_555 1_555
H12B C12B 1_555 1_555
C13B C12B 1_555 1_555
H13B C13B 1_555 1_555
C14B C8B 1_555 1_555
H14B C14B 1_555 1_555
C15B C13B 1_555 1_555
C16B C5B 1_555 1_555
H15B C16B 1_555 1_555
H16B C16B 1_555 1_555
C17A C9A 1_555 1_555
C18A C6A 1_555 1_555
H17A C18A 1_555 1_555
H18A C18A 1_555 1_555
Zn2 O3A 1_555 1_555
N1 C5 1_555 1_555
N1 Zn1B 1_555 1_555
N2 C6 1_555 1_555
N2 Zn4B 1_555 1_555
C11 C17 1_555 1_555
C14 C15 1_555 1_555
C15 C16 1_555 1_555
C17 C18 1_555 1_555
Zn3_2 O1A_2 1_555 1_555
Zn4_2 O1_2 1_555 1_555
N1B C5B 1_555 1_555
N2A C6A 1_555 1_555
C11A C17A 1_555 1_555
C14B C15B 1_555 1_555
C15B C16B 1_555 1_555
C17A C18A 1_555 1_555

#END
