
#######################################################################
#
#                 Cambridge Crystallographic Data Centre
#                                CCDC 
#
#######################################################################
#
# If this CIF has been generated from an entry in the Cambridge 
# Structural Database, then it will include bibliographic, chemical, 
# crystal, experimental, refinement or atomic coordinate data resulting 
# from the CCDC's data processing and validation procedures.
#
#######################################################################

data_FEQVAA
_symmetry_cell_setting           monoclinic
_symmetry_space_group_name_H-M   'P 21/c'
_symmetry_Int_Tables_number      14
_space_group_name_Hall           '-P 2ybc'
loop_
_symmetry_equiv_pos_site_id
_symmetry_equiv_pos_as_xyz
1 x,y,z
2 -x,1/2+y,1/2-z
3 -x,-y,-z
4 x,1/2-y,1/2+z
_cell_length_a                   6.4686(4)
_cell_length_b                   6.1096(4)
_cell_length_c                   19.9050(13)
_cell_angle_alpha                90
_cell_angle_beta                 91.842(6)
_cell_angle_gamma                90
_cell_volume                     786.25
loop_
_atom_site_label
_atom_site_type_symbol
_atom_site_fract_x
_atom_site_fract_y
_atom_site_fract_z
Zn1 Zn 0.92354(13) 0.84604(13) 0.20039(4)
C1 C 0.8202(8) 0.4914(9) 0.0963(3)
C2 C 0.7814(8) 0.4431(9) 0.0287(3)
H1 H 0.7968 0.3091 0.0073
C3 C 0.7151(8) 0.6382(9) 0.0005(3)
C4 C 0.8951(8) 0.3587(9) 0.1547(3)
C5 C 0.6547(8) 0.7092(9) -0.0694(3)
N1 N 0.7790(8) 0.7018(8) 0.1089(2)
N2 N 0.7156(7) 0.7870(8) 0.0501(2)
H2 H 0.6793 0.9214 0.0447
O1 O 0.9459(6) 0.4692(7) 0.20707(19)
O2 O 0.9010(7) 0.1571(7) 0.1494(2)
O3 O 0.6329(7) 0.8454(9) 0.2504(3)
H3 H 0.5929 0.8644 0.2902
H4 H 0.5304 0.7979 0.2269
O4 O 0.6696(7) 0.5733(7) -0.1158(2)
O5 O 1.2443(7) 0.8220(7) 0.1658(2)
H5 H 1.2378 0.6956 0.1480
H6 H 1.2775 0.9123 0.1355
O6 O 0.5967(7) 0.9045(7) -0.0755(2)
Zn1A Zn 1.07646(13) 0.34604(13) 0.29961(4)
Zn1_2 Zn 0.92354(13) -0.15396(13) 0.20039(4)
O1A O 1.0541(6) 0.9692(7) 0.29293(19)
O2_2 O 0.9010(7) 1.1571(7) 0.1494(2)
loop_
_geom_bond_atom_site_label_1
_geom_bond_atom_site_label_2
_geom_bond_site_symmetry_1
_geom_bond_site_symmetry_2
Zn1 N1 1_555 1_555
C1 C2 1_555 1_555
C2 H1 1_555 1_555
C3 C2 1_555 1_555
C4 C1 1_555 1_555
C5 C3 1_555 1_555
N1 C1 1_555 1_555
N2 C3 1_555 1_555
H2 N2 1_555 1_555
O1 Zn1 1_555 1_555
O2 C4 1_555 1_555
O3 Zn1 1_555 1_555
H3 O3 1_555 1_555
H4 O3 1_555 1_555
O4 C5 1_555 1_555
O5 Zn1 1_555 1_555
H5 O5 1_555 1_555
H6 O5 1_555 1_555
O6 C5 1_555 1_555
Zn1A O1 1_555 1_555
Zn1_2 O2 1_555 1_555
O1A Zn1 1_555 1_555
O2_2 Zn1 1_555 1_555
C4 O1 1_555 1_555
N1 N2 1_555 1_555

#END
