
#######################################################################
#
#                 Cambridge Crystallographic Data Centre
#                                CCDC 
#
#######################################################################
#
# If this CIF has been generated from an entry in the Cambridge 
# Structural Database, then it will include bibliographic, chemical, 
# crystal, experimental, refinement or atomic coordinate data resulting 
# from the CCDC's data processing and validation procedures.
#
#######################################################################

data_FEQVIH
_symmetry_cell_setting           orthorhombic
_symmetry_space_group_name_H-M   'P c c n'
_symmetry_Int_Tables_number      56
_space_group_name_Hall           '-P 2ab 2ac'
loop_
_symmetry_equiv_pos_site_id
_symmetry_equiv_pos_as_xyz
1 x,y,z
2 1/2-x,1/2-y,z
3 -x,1/2+y,1/2-z
4 1/2+x,-y,1/2-z
5 -x,-y,-z
6 1/2+x,1/2+y,-z
7 x,1/2-y,1/2+z
8 1/2-x,y,1/2+z
_cell_length_a                   14.078(8)
_cell_length_b                   19.575(12)
_cell_length_c                   22.714(13)
_cell_angle_alpha                90
_cell_angle_beta                 90
_cell_angle_gamma                90
_cell_volume                     6259.45
loop_
_atom_site_label
_atom_site_type_symbol
_atom_site_fract_x
_atom_site_fract_y
_atom_site_fract_z
Co1 Co 0.7500 0.7500 0.32689(3)
Co2 Co 0.7500 1.2500 0.28028(3)
O1 O 0.82523(18) 0.84205(13) 0.32649(11)
O2 O 0.9754(2) 0.81179(15) 0.30678(14)
O3 O 0.83205(18) 1.16027(13) 0.28343(11)
O4 O 0.7249(2) 1.07799(15) 0.27146(17)
O5 O 1.1450(2) 1.03532(15) 0.27525(16)
O6 O 0.8813(2) 0.69524(15) 0.32290(13)
O7 O 0.8786(2) 1.30865(15) 0.27974(12)
C1 C 0.9101(3) 0.8554(2) 0.31223(16)
C2 C 0.9343(3) 0.92861(19) 0.30203(16)
C3 C 1.0284(3) 0.9482(2) 0.29574(18)
H1 H 1.0762 0.9158 0.3000
C4 C 1.0523(3) 1.0160(2) 0.28312(19)
C5 C 0.9811(3) 1.0647(2) 0.27902(18)
H2 H 0.9968 1.1101 0.2719
C6 C 0.8860(3) 1.0459(2) 0.28555(16)
C7 C 0.8626(3) 0.9778(2) 0.29691(16)
H3 H 0.7993 0.9651 0.3011
C8 C 0.8090(3) 1.0984(2) 0.27927(17)
N4 N 0.7500 0.7500 0.2335(2)
C21 C 0.7756(3) 0.6950(2) 0.20249(17)
H12 H 0.7936 0.6560 0.2230
C22 C 0.7500 0.7500 0.1087(2)
C23 C 0.7769(3) 0.6927(2) 0.14145(18)
H13 H 0.7956 0.6529 0.1223
C24 C 0.7500 0.7500 0.0440(2)
C25 C 0.7533(3) 0.6898(2) 0.01200(17)
H14 H 0.7555 0.6481 0.0315
C26 C 0.7532(3) 0.6915(2) -0.04839(18)
H15 H 0.7555 0.6503 -0.0688
N5 N 0.7500 0.7500 -0.07942(19)
N6 N 0.7500 1.2500 0.1867(2)
C27 C 0.8143(3) 1.2141(2) 0.15546(18)
H16 H 0.8596 1.1891 0.1760
C28 C 0.7500 1.2500 0.0626(3)
C29 C 0.8166(3) 1.2124(2) 0.09479(17)
H17 H 0.8623 1.1865 0.0754
C30 C 0.7500 1.2500 -0.0021(2)
C31 C 0.7199(3) 1.3064(2) -0.03450(17)
H18 H 0.6993 1.3455 -0.0151
C32 C 0.7206(3) 1.3047(2) -0.09513(17)
H19 H 0.6998 1.3430 -0.1157
N7 N 0.7500 1.2500 -0.1256(2)
H20 H 1.1834 0.9987 0.2629
H21 H 0.925(3) 0.728(2) 0.324(2)
H22 H 0.899(4) 0.667(2) 0.3516(16)
H23 H 0.928(2) 1.302(3) 0.2553(18)
H24 H 0.854(4) 1.3509(12) 0.276(2)
Co1F Co 0.7500 0.7500 -0.17311(3)
Co2F Co 0.7500 1.2500 -0.21972(3)
Co2_2 Co 0.7500 0.2500 0.28028(3)
O1A O 0.67477(18) 0.65795(13) 0.32649(11)
O2A O 0.5246(2) 0.68821(15) 0.30678(14)
O3A O 0.66795(18) 0.33973(13) 0.28343(11)
O3A_2 O 0.66795(18) 1.33973(13) 0.28343(11)
O4A O 0.7751(2) 0.42201(15) 0.27146(17)
O5A O 0.3550(2) 0.46468(15) 0.27525(16)
O6A O 0.6187(2) 0.80476(15) 0.32290(13)
O7A O 0.6214(2) 1.19135(15) 0.27974(12)
C1A C 0.5899(3) 0.6446(2) 0.31223(16)
C2A C 0.5657(3) 0.57139(19) 0.30203(16)
C3A C 0.4716(3) 0.5518(2) 0.29574(18)
H1A H 0.4238 0.5842 0.3000
C4A C 0.4477(3) 0.4840(2) 0.28312(19)
C5A C 0.5189(3) 0.4353(2) 0.27902(18)
H2A H 0.5032 0.3899 0.2719
C6A C 0.6140(3) 0.4541(2) 0.28555(16)
C7A C 0.6374(3) 0.5222(2) 0.29691(16)
H3A H 0.7007 0.5349 0.3011
C8A C 0.6910(3) 0.4016(2) 0.27927(17)
C21A C 0.7244(3) 0.8050(2) 0.20249(17)
H12A H 0.7064 0.8440 0.2230
C23A C 0.7231(3) 0.8073(2) 0.14145(18)
H13A H 0.7044 0.8471 0.1223
C25A C 0.7467(3) 0.8102(2) 0.01200(17)
H14A H 0.7445 0.8519 0.0315
C26A C 0.7468(3) 0.8085(2) -0.04839(18)
H15A H 0.7445 0.8497 -0.0688
N5F N 0.7500 0.7500 0.42058(19)
C27A C 0.6857(3) 1.2859(2) 0.15546(18)
H16A H 0.6404 1.3109 0.1760
C29A C 0.6834(3) 1.2876(2) 0.09479(17)
H17A H 0.6377 1.3135 0.0754
C31A C 0.7801(3) 1.1936(2) -0.03450(17)
H18A H 0.8007 1.1545 -0.0151
C32A C 0.7794(3) 1.1953(2) -0.09513(17)
H19A H 0.8002 1.1570 -0.1157
N7F N 0.7500 1.2500 0.3744(2)
H20A H 0.3166 0.5013 0.2629
H21A H 0.575(3) 0.772(2) 0.324(2)
H22A H 0.601(4) 0.833(2) 0.3516(16)
H23A H 0.572(2) 1.198(3) 0.2553(18)
H24A H 0.646(4) 1.1491(12) 0.276(2)
N1 N 0.0270(3) 0.2906(3) 0.4483(3)
N2 N -0.1725(5) -0.0294(3) 0.5277(4)
C9 C 0.0245(4) 0.2692(3) 0.5037(3)
H4 H 0.0451 0.2992 0.5328
C10 C -0.0062(3) 0.2063(3) 0.5208(2)
H5 H -0.0053 0.1947 0.5604
C11 C -0.0386(3) 0.1596(3) 0.4797(2)
C12 C -0.0343(4) 0.1810(3) 0.4212(2)
H6 H -0.0534 0.1520 0.3910
C13 C -0.0013(4) 0.2461(4) 0.4087(3)
H7 H 0.0010 0.2592 0.3694
C14 C -0.0820(4) 0.0935(3) 0.4969(2)
C15 C -0.1118(5) 0.0819(3) 0.5527(3)
H8 H -0.1037 0.1149 0.5818
C16 C -0.1542(6) 0.0205(5) 0.5656(3)
H9 H -0.1718 0.0132 0.6046
C17 C -0.1441(7) -0.0164(4) 0.4741(4)
H10 H -0.1552 -0.0496 0.4457
C18 C -0.0985(5) 0.0434(4) 0.4559(3)
H11 H -0.0798 0.0491 0.4169
N3 N 1.0213(5) 0.4954(4) 0.3871(3)
O8 O 0.9836(4) 0.6042(3) 0.3919(2)
C19 C 1.0423(10) 0.5597(5) 0.3733(7)
C20 C 1.0706(9) 0.4365(5) 0.3628(6)
C34 C 0.933(2) 0.4632(16) 0.380(2)
C33? C 0.9596(9) 0.5461(5) 0.3753(6)
loop_
_geom_bond_atom_site_label_1
_geom_bond_atom_site_label_2
_geom_bond_site_symmetry_1
_geom_bond_site_symmetry_2
Co1 O1 1_555 1_555
Co2 O3 1_555 1_555
N1 C9 1_555 1_555
N2 C16 1_555 1_555
N3 C19 1_555 1_555
O1 C1 1_555 1_555
O2 C1 1_555 1_555
O3 C8 1_555 1_555
O4 C8 1_555 1_555
O5 C4 1_555 1_555
O6 Co1 1_555 1_555
O7 Co2 1_555 1_555
O8 C19 1_555 1_555
C1 C2 1_555 1_555
C2 C3 1_555 1_555
C3 H1 1_555 1_555
C4 C3 1_555 1_555
C5 C4 1_555 1_555
H2 C5 1_555 1_555
C6 C5 1_555 1_555
C7 C2 1_555 1_555
H3 C7 1_555 1_555
C8 C6 1_555 1_555
C9 H4 1_555 1_555
C10 C9 1_555 1_555
H5 C10 1_555 1_555
C11 C10 1_555 1_555
C12 C11 1_555 1_555
H6 C12 1_555 1_555
C13 N1 1_555 1_555
H7 C13 1_555 1_555
C14 C11 1_555 1_555
C15 C14 1_555 1_555
H8 C15 1_555 1_555
C16 C15 1_555 1_555
H9 C16 1_555 1_555
C17 N2 1_555 1_555
H10 C17 1_555 1_555
C18 C14 1_555 1_555
H11 C18 1_555 1_555
C20 N3 1_555 1_555
N4 Co1 1_555 1_555
C21 N4 1_555 1_555
H12 C21 1_555 1_555
C22 C23 1_555 1_555
C23 C21 1_555 1_555
H13 C23 1_555 1_555
C24 C22 1_555 1_555
C25 C24 1_555 1_555
H14 C25 1_555 1_555
C26 C25 1_555 1_555
H15 C26 1_555 1_555
N5 C26 1_555 1_555
N6 Co2 1_555 1_555
C27 N6 1_555 1_555
H16 C27 1_555 1_555
C28 C29 1_555 1_555
C29 C27 1_555 1_555
H17 C29 1_555 1_555
C30 C28 1_555 1_555
C31 C30 1_555 1_555
H18 C31 1_555 1_555
C32 C31 1_555 1_555
H19 C32 1_555 1_555
N7 C32 1_555 1_555
C34 N3 1_555 1_555
H20 O5 1_555 1_555
H21 O6 1_555 1_555
H22 O6 1_555 1_555
H23 O7 1_555 1_555
H24 O7 1_555 1_555
Co1F N5 1_555 1_555
Co2F N7 1_555 1_555
Co2_2 O3A 1_555 1_555
O1A Co1 1_555 1_555
O2A C1A 1_555 1_555
O3A C8A 1_555 1_555
O3A_2 Co2 1_555 1_555
O4A C8A 1_555 1_555
O5A C4A 1_555 1_555
O6A Co1 1_555 1_555
O7A Co2 1_555 1_555
C1A O1A 1_555 1_555
C2A C1A 1_555 1_555
C3A C2A 1_555 1_555
H1A C3A 1_555 1_555
C4A C3A 1_555 1_555
C5A C4A 1_555 1_555
H2A C5A 1_555 1_555
C6A C5A 1_555 1_555
C7A C2A 1_555 1_555
H3A C7A 1_555 1_555
C8A C6A 1_555 1_555
C21A N4 1_555 1_555
H12A C21A 1_555 1_555
C23A C22 1_555 1_555
H13A C23A 1_555 1_555
C25A C24 1_555 1_555
H14A C25A 1_555 1_555
C26A N5 1_555 1_555
H15A C26A 1_555 1_555
N5F Co1 1_555 1_555
C27A N6 1_555 1_555
H16A C27A 1_555 1_555
C29A C28 1_555 1_555
H17A C29A 1_555 1_555
C31A C30 1_555 1_555
H18A C31A 1_555 1_555
C32A N7 1_555 1_555
H19A C32A 1_555 1_555
N7F Co2 1_555 1_555
H20A O5A 1_555 1_555
H21A O6A 1_555 1_555
H22A O6A 1_555 1_555
H23A O7A 1_555 1_555
H24A O7A 1_555 1_555
C6 C7 1_555 1_555
C12 C13 1_555 1_555
C17 C18 1_555 1_555
C6A C7A 1_555 1_555
C21A C23A 1_555 1_555
C25A C26A 1_555 1_555
C27A C29A 1_555 1_555
C31A C32A 1_555 1_555

#END
