
#######################################################################
#
#                 Cambridge Crystallographic Data Centre
#                                CCDC 
#
#######################################################################
#
# If this CIF has been generated from an entry in the Cambridge 
# Structural Database, then it will include bibliographic, chemical, 
# crystal, experimental, refinement or atomic coordinate data resulting 
# from the CCDC's data processing and validation procedures.
#
#######################################################################

data_FEQVEE
_symmetry_cell_setting           monoclinic
_symmetry_space_group_name_H-M   'C 2/c'
_symmetry_Int_Tables_number      15
_space_group_name_Hall           '-C 2yn'
loop_
_symmetry_equiv_pos_site_id
_symmetry_equiv_pos_as_xyz
1 x,y,z
2 -x,y,1/2-z
3 1/2+x,1/2+y,z
4 1/2-x,1/2+y,1/2-z
5 -x,-y,-z
6 x,-y,1/2+z
7 1/2-x,1/2-y,-z
8 1/2+x,1/2-y,1/2+z
_cell_length_a                   21.596(3)
_cell_length_b                   7.2420(3)
_cell_length_c                   14.019(4)
_cell_angle_alpha                90
_cell_angle_beta                 128.59(3)
_cell_angle_gamma                90
_cell_volume                     1713.76
loop_
_atom_site_label
_atom_site_type_symbol
_atom_site_fract_x
_atom_site_fract_y
_atom_site_fract_z
Zn1 Zn 0.29258(2) 0.33144(7) 0.70985(4)
Zn2 Zn 0.5000 0.14762(11) 0.7500
C1 C 0.4335(2) 0.2925(5) 0.9616(4)
C2 C 0.5138(2) 0.2613(6) 1.0474(4)
H1 H 0.5444 0.2636 1.1320
C3 C 0.5383(2) 0.2263(6) 0.9795(3)
C4 C 0.3699(2) 0.3304(6) 0.9702(3)
C5 C 0.6163(2) 0.1725(6) 1.0137(4)
N1 N 0.41169(17) 0.2802(5) 0.8481(3)
N2 N 0.47644(17) 0.2387(5) 0.8592(3)
O1 O 0.30009(14) 0.3484(4) 0.8675(2)
O2 O 0.38453(15) 0.3411(4) 1.0711(2)
O3 O 0.5000 -0.1274(6) 0.7500
H2 H 0.4625 -0.1727 0.6928
O4 O 0.67442(14) 0.1655(5) 1.1245(2)
O5 O 0.27583(16) 0.1184(4) 0.6058(3)
H3 H 0.2601 0.0257 0.6192
H4 H 0.3128 0.1146 0.6034
O6 O 0.61676(14) 0.1367(4) 0.9257(2)
O7 O 0.30108(17) 0.5751(4) 0.6506(3)
H5 H 0.3389 0.5726 0.6502
H6 H 0.2773 0.6573 0.6399
Zn1A Zn 0.70742(2) 0.33144(7) 0.79015(4)
Zn1F Zn 0.20742(2) 0.16856(7) 0.29015(4)
Zn1G Zn 0.79258(2) 0.16856(7) 1.20985(4)
C1A C 0.5665(2) 0.2925(5) 0.5384(4)
C2A C 0.4862(2) 0.2613(6) 0.4526(4)
H1A H 0.4556 0.2636 0.3680
C3A C 0.4617(2) 0.2263(6) 0.5205(3)
C4A C 0.6301(2) 0.3304(6) 0.5298(3)
C5A C 0.3837(2) 0.1725(6) 0.4863(4)
N1A N 0.58831(17) 0.2802(5) 0.6519(3)
N2A N 0.52356(17) 0.2387(5) 0.6408(3)
O1A O 0.69991(14) 0.3484(4) 0.6325(2)
O2A O 0.61547(15) 0.3411(4) 0.4289(2)
H2A H 0.5375 -0.1727 0.8072
O4A O 0.32558(14) 0.1655(5) 0.3755(2)
O4F O 0.82558(14) 0.3345(5) 0.8755(2)
O4G O 0.17442(14) 0.3345(5) 0.6245(2)
O5A O 0.72417(16) 0.1184(4) 0.8942(3)
H3A H 0.7399 0.0257 0.8808
H4A H 0.6872 0.1146 0.8966
O6A O 0.38324(14) 0.1367(4) 0.5743(2)
O7A O 0.69892(17) 0.5751(4) 0.8494(3)
H5A H 0.6611 0.5726 0.8498
H6A H 0.7227 0.6573 0.8601
loop_
_geom_bond_atom_site_label_1
_geom_bond_atom_site_label_2
_geom_bond_site_symmetry_1
_geom_bond_site_symmetry_2
Zn1 N1 1_555 1_555
Zn2 N2 1_555 1_555
C1 C2 1_555 1_555
C2 H1 1_555 1_555
C3 C2 1_555 1_555
C4 C1 1_555 1_555
C5 C3 1_555 1_555
N1 C1 1_555 1_555
N2 C3 1_555 1_555
O1 Zn1 1_555 1_555
O2 C4 1_555 1_555
O3 Zn2 1_555 1_555
H2 O3 1_555 1_555
O4 C5 1_555 1_555
O5 Zn1 1_555 1_555
H3 O5 1_555 1_555
H4 O5 1_555 1_555
O6 Zn2 1_555 1_555
O7 Zn1 1_555 1_555
H5 O7 1_555 1_555
H6 O7 1_555 1_555
Zn1A N1A 1_555 1_555
Zn1F O4A 1_555 1_555
Zn1G O4 1_555 1_555
C1A C2A 1_555 1_555
C2A H1A 1_555 1_555
C3A C2A 1_555 1_555
C4A C1A 1_555 1_555
C5A C3A 1_555 1_555
N1A C1A 1_555 1_555
N2A Zn2 1_555 1_555
O1A Zn1A 1_555 1_555
O2A C4A 1_555 1_555
H2A O3 1_555 1_555
O4A C5A 1_555 1_555
O4F Zn1A 1_555 1_555
O4G Zn1 1_555 1_555
O5A Zn1A 1_555 1_555
H3A O5A 1_555 1_555
H4A O5A 1_555 1_555
O6A Zn2 1_555 1_555
O7A Zn1A 1_555 1_555
H5A O7A 1_555 1_555
H6A O7A 1_555 1_555
C4 O1 1_555 1_555
C5 O6 1_555 1_555
N1 N2 1_555 1_555
C3A N2A 1_555 1_555
C4A O1A 1_555 1_555
C5A O6A 1_555 1_555
N1A N2A 1_555 1_555

#END
