
#######################################################################
#
#                 Cambridge Crystallographic Data Centre
#                                CCDC 
#
#######################################################################
#
# If this CIF has been generated from an entry in the Cambridge 
# Structural Database, then it will include bibliographic, chemical, 
# crystal, experimental, refinement or atomic coordinate data resulting 
# from the CCDC's data processing and validation procedures.
#
#######################################################################

data_FEQWUU
_symmetry_cell_setting           triclinic
_symmetry_space_group_name_H-M   'P -1'
_symmetry_Int_Tables_number      2
_space_group_name_Hall           '-P 1'
loop_
_symmetry_equiv_pos_site_id
_symmetry_equiv_pos_as_xyz
1 x,y,z
2 -x,-y,-z
_cell_length_a                   7.283(3)
_cell_length_b                   9.935(4)
_cell_length_c                   11.082(5)
_cell_angle_alpha                102.576(6)
_cell_angle_beta                 105.764(7)
_cell_angle_gamma                109.146(5)
_cell_volume                     686.238
loop_
_atom_site_label
_atom_site_type_symbol
_atom_site_fract_x
_atom_site_fract_y
_atom_site_fract_z
Eu1 Eu 0.81997(3) 0.55149(2) 0.581988(18)
O1 O 0.6828(5) 0.3991(4) 0.7286(3)
O2 O 0.7673(5) 0.6452(4) 0.7890(3)
O3 O 0.0939(5) 0.5364(4) 0.7487(3)
O4 O 0.2931(4) 0.4634(4) 0.6485(3)
O5 O 0.5276(4) 0.6457(3) 0.5416(3)
O6 O 0.8441(5) 0.8094(3) 0.5825(3)
O7 O 0.1340(4) 0.6625(3) 0.5334(3)
O8 O 0.2880(7) 0.8501(4) 0.7282(4)
C1 C 0.6833(6) 0.5188(5) 0.7983(4)
C2 C 0.5820(6) 0.5068(5) 0.8999(4)
C3 C 0.6968(7) 0.5026(5) 1.0208(4)
H1 H 0.8298 0.5048 1.0349
C4 C 0.3829(7) 0.5047(5) 0.8788(4)
C5 C 0.2455(6) 0.5023(5) 0.7467(4)
C6 C 0.6523(7) 0.7748(5) 0.5518(4)
C7 C 0.5676(6) 0.8891(5) 0.5249(4)
C8 C 0.6698(7) 0.9914(5) 0.4721(4)
H2 H 0.7843 0.9852 0.4534
C9 C 0.3947(6) 0.8971(5) 0.5535(4)
C10 C 0.2687(6) 0.7963(5) 0.6137(4)
Eu1A Eu 0.18003(3) 0.44851(2) 1.418012(18)
Eu1_2 Eu -0.18003(3) 0.55149(2) 0.581988(18)
Eu1A_2 Eu 0.18003(3) 0.44851(2) 0.418012(18)
Eu1A_3 Eu 1.18003(3) 0.44851(2) 1.418012(18)
Eu1_3 Eu 0.81997(3) 0.55149(2) 1.581988(18)
Eu1_4 Eu 0.81997(3) 1.55149(2) 0.581988(18)
Eu1A_4 Eu 0.18003(3) 1.44851(2) 0.418012(18)
Eu1A_5 Eu 1.18003(3) 1.44851(2) 0.418012(18)
O1A O 0.3172(5) 0.6009(4) 1.2714(3)
O2A O 0.2327(5) 0.3548(4) 1.2110(3)
O3A O 0.9061(5) 0.4636(4) 1.2513(3)
O3_2 O 1.0939(5) 0.5364(4) 0.7487(3)
O3A_2 O -0.0939(5) 0.4636(4) 1.2513(3)
O4A O 0.7069(4) 0.5366(4) 1.3515(3)
O4A_2 O 0.7069(4) 0.5366(4) 0.3515(3)
O4_2 O 0.2931(4) 0.4634(4) 1.6485(3)
O5A O 0.4724(4) 1.3543(3) 0.4584(3)
O5A_2 O 0.4724(4) 0.3543(3) 0.4584(3)
O5_2 O 0.5276(4) 0.6457(3) 1.5416(3)
O5A_3 O 0.4724(4) 0.3543(3) 1.4584(3)
O6A O 0.1559(5) 1.1906(3) 0.4175(3)
O6A_2 O 0.1559(5) 0.1906(3) 1.4175(3)
O7A O 0.8660(4) 1.3375(3) 0.4666(3)
O7_2 O 1.1340(4) 0.6625(3) 0.5334(3)
O7A_2 O 0.8660(4) 0.3375(3) 0.4666(3)
O7_3 O 0.1340(4) 0.6625(3) 1.5334(3)
O7A_3 O -0.1340(4) 0.3375(3) 1.4666(3)
O8A O 0.7120(7) 1.1499(4) 0.2718(4)
C1A C 0.3167(6) 0.4812(5) 1.2017(4)
C2A C 0.4180(6) 0.4932(5) 1.1001(4)
C3A C 0.3032(7) 0.4974(5) 0.9792(4)
H1A H 0.1702 0.4952 0.9651
C4A C 0.6171(7) 0.4953(5) 1.1212(4)
C5A C 0.7545(6) 0.4977(5) 1.2533(4)
C6A C 0.3477(7) 1.2252(5) 0.4482(4)
C7A C 0.4324(6) 1.1109(5) 0.4751(4)
C8A C 0.3302(7) 1.0086(5) 0.5279(4)
H2A H 0.2157 1.0148 0.5466
C9A C 0.6053(6) 1.1029(5) 0.4465(4)
C10A C 0.7313(6) 1.2037(5) 0.3863(4)
C11 C 0.7224(12) 0.1682(8) 0.9275(8)
H3 H 0.6215 0.1964 0.9476
C12 C 0.8083(11) 0.0903(8) 0.9975(7)
H4 H 0.7705 0.0706 1.0676
C13 C 0.9511(10) 0.0413(6) 0.9633(5)
C14 C 1.0057(11) 0.0759(7) 0.8581(6)
H5 H 1.0972 0.0424 0.8300
C15 C 0.9213(11) 0.1599(7) 0.7976(6)
H6 H 0.9618 0.1876 0.7308
N1 N 0.7829(9) 0.2025(6) 0.8323(5)
H7 H 0.7315 0.2539 0.7916
C11A C 1.2776(12) -0.1682(8) 1.0725(8)
H3A H 1.3785 -0.1964 1.0524
C12A C 1.1917(11) -0.0903(8) 1.0025(7)
H4A H 1.2295 -0.0706 0.9324
C13A C 1.0489(10) -0.0413(6) 1.0367(5)
C14A C 0.9943(11) -0.0759(7) 1.1419(6)
H5A H 0.9028 -0.0424 1.1700
C15A C 1.0787(11) -0.1599(7) 1.2024(6)
H6A H 1.0382 -0.1876 1.2692
N1A N 1.2171(9) -0.2025(6) 1.1677(5)
H7A H 1.2685 -0.2539 1.2084
loop_
_geom_bond_atom_site_label_1
_geom_bond_atom_site_label_2
_geom_bond_site_symmetry_1
_geom_bond_site_symmetry_2
Eu1 O1 1_555 1_555
O1 C1 1_555 1_555
O2 Eu1 1_555 1_555
O3 C5 1_555 1_555
O4 C5 1_555 1_555
O5 Eu1 1_555 1_555
O6 Eu1 1_555 1_555
O7 C10 1_555 1_555
O8 C10 1_555 1_555
C1 O2 1_555 1_555
C2 C1 1_555 1_555
C3 C2 1_555 1_555
H1 C3 1_555 1_555
C4 C2 1_555 1_555
C5 C4 1_555 1_555
C6 O5 1_555 1_555
C7 C6 1_555 1_555
C8 C7 1_555 1_555
H2 C8 1_555 1_555
C9 C7 1_555 1_555
C10 C9 1_555 1_555
C11 H3 1_555 1_555
C12 C11 1_555 1_555
H4 C12 1_555 1_555
C13 C12 1_555 1_555
C14 C13 1_555 1_555
H5 C14 1_555 1_555
C15 C14 1_555 1_555
H6 C15 1_555 1_555
N1 C11 1_555 1_555
H7 N1 1_555 1_555
Eu1A O1A 1_555 1_555
Eu1_2 O3 1_555 1_555
Eu1A_2 O4 1_555 1_555
Eu1A_3 O3A 1_555 1_555
Eu1_3 O4A 1_555 1_555
Eu1_4 O5A 1_555 1_555
Eu1A_4 O5A 1_555 1_555
Eu1A_5 O7A 1_555 1_555
O1A C1A 1_555 1_555
O2A Eu1A 1_555 1_555
O3A C5A 1_555 1_555
O3_2 Eu1 1_555 1_555
O3A_2 Eu1A 1_555 1_555
O4A C5A 1_555 1_555
O4A_2 Eu1 1_555 1_555
O4_2 Eu1A 1_555 1_555
O5A C6A 1_555 1_555
O5A_2 Eu1 1_555 1_555
O5_2 Eu1A 1_555 1_555
O5A_3 Eu1A 1_555 1_555
O6A Eu1A_4 1_555 1_555
O6A_2 Eu1A 1_555 1_555
O7A Eu1_4 1_555 1_555
O7_2 Eu1 1_555 1_555
O7A_2 Eu1 1_555 1_555
O7_3 Eu1A 1_555 1_555
O7A_3 Eu1A 1_555 1_555
O8A C10A 1_555 1_555
C1A O2A 1_555 1_555
C2A C1A 1_555 1_555
C3A C4 1_555 1_555
H1A C3A 1_555 1_555
C4A C3 1_555 1_555
C5A C4A 1_555 1_555
C6A O6A 1_555 1_555
C7A C6A 1_555 1_555
C8A C9 1_555 1_555
H2A C8A 1_555 1_555
C9A C8 1_555 1_555
C10A O7A 1_555 1_555
C11A H3A 1_555 1_555
C12A C11A 1_555 1_555
H4A C12A 1_555 1_555
C13A C13 1_555 1_555
C14A C13A 1_555 1_555
H5A C14A 1_555 1_555
C15A C14A 1_555 1_555
H6A C15A 1_555 1_555
N1A C11A 1_555 1_555
H7A N1A 1_555 1_555
O5 Eu1A_2 1_555 1_555
O6 C6 1_555 1_555
O7 Eu1_2 1_555 1_555
O7 Eu1A_2 1_555 1_555
C15 N1 1_555 1_555
Eu1A_2 O5A_2 1_555 1_555
Eu1_3 O5_2 1_555 1_555
Eu1_3 O5A_3 1_555 1_555
C2A C3A 1_555 1_555
C2A C4A 1_555 1_555
C7A C8A 1_555 1_555
C7A C9A 1_555 1_555
C9A C10A 1_555 1_555
C12A C13A 1_555 1_555
C15A N1A 1_555 1_555

#END
