
#######################################################################
#
#                 Cambridge Crystallographic Data Centre
#                                CCDC 
#
#######################################################################
#
# If this CIF has been generated from an entry in the Cambridge 
# Structural Database, then it will include bibliographic, chemical, 
# crystal, experimental, refinement or atomic coordinate data resulting 
# from the CCDC's data processing and validation procedures.
#
#######################################################################

data_FEQWOO
_symmetry_cell_setting           triclinic
_symmetry_space_group_name_H-M   'P -1'
_symmetry_Int_Tables_number      2
_space_group_name_Hall           '-P 1'
loop_
_symmetry_equiv_pos_site_id
_symmetry_equiv_pos_as_xyz
1 x,y,z
2 -x,-y,-z
_cell_length_a                   7.396(2)
_cell_length_b                   10.066(3)
_cell_length_c                   11.205(3)
_cell_angle_alpha                101.871(5)
_cell_angle_beta                 106.130(5)
_cell_angle_gamma                109.589(4)
_cell_volume                     712.623
loop_
_atom_site_label
_atom_site_type_symbol
_atom_site_fract_x
_atom_site_fract_y
_atom_site_fract_z
Pr1 Pr 0.82335(4) 0.55560(3) 0.58507(2)
O1 O 0.6882(5) 0.4020(4) 0.7367(3)
O2 O 0.7631(5) 0.6432(4) 0.7910(3)
O3 O 0.1029(5) 0.5363(4) 0.7494(3)
O4 O 0.2957(5) 0.4631(4) 0.6512(3)
O5 O 0.5254(5) 0.6475(3) 0.5397(3)
O6 O 0.8383(5) 0.8121(4) 0.5815(4)
O7 O 0.1349(5) 0.6628(3) 0.5280(3)
O8 O 0.2729(7) 0.8452(5) 0.7191(4)
C1 C 0.6815(7) 0.5173(6) 0.8019(5)
C2 C 0.5816(7) 0.5060(6) 0.9013(4)
C3 C 0.6934(7) 0.5025(6) 1.0223(4)
H1 H 0.8240 0.5035 1.0370
C4 C 0.3836(7) 0.5026(6) 0.8785(4)
C5 C 0.2502(7) 0.5017(5) 0.7481(5)
C6 C 0.6481(7) 0.7750(5) 0.5499(5)
C7 C 0.5651(7) 0.8889(5) 0.5236(5)
C8 C 0.6671(7) 0.9915(5) 0.4730(5)
H2 H 0.7795 0.9854 0.4544
C9 C 0.3931(7) 0.8959(5) 0.5511(5)
C10 C 0.2648(7) 0.7949(5) 0.6082(5)
Pr1A Pr 0.17665(4) 0.44440(3) 1.41493(2)
Pr1_2 Pr -0.17665(4) 0.55560(3) 0.58507(2)
Pr1A_2 Pr 0.17665(4) 0.44440(3) 0.41493(2)
Pr1A_3 Pr 1.17665(4) 0.44440(3) 1.41493(2)
Pr1_3 Pr 0.82335(4) 0.55560(3) 1.58507(2)
Pr1_4 Pr 0.82335(4) 1.55560(3) 0.58507(2)
Pr1A_4 Pr 0.17665(4) 1.44440(3) 0.41493(2)
Pr1A_5 Pr 1.17665(4) 1.44440(3) 0.41493(2)
O1A O 0.3118(5) 0.5980(4) 1.2633(3)
O2A O 0.2369(5) 0.3568(4) 1.2090(3)
O3A O 0.8971(5) 0.4637(4) 1.2506(3)
O3_2 O 1.1029(5) 0.5363(4) 0.7494(3)
O3A_2 O -0.1029(5) 0.4637(4) 1.2506(3)
O4A O 0.7043(5) 0.5369(4) 1.3488(3)
O4A_2 O 0.7043(5) 0.5369(4) 0.3488(3)
O4_2 O 0.2957(5) 0.4631(4) 1.6512(3)
O5A O 0.4746(5) 1.3525(3) 0.4603(3)
O5A_2 O 0.4746(5) 0.3525(3) 0.4603(3)
O5_2 O 0.5254(5) 0.6475(3) 1.5397(3)
O5A_3 O 0.4746(5) 0.3525(3) 1.4603(3)
O6A O 0.1617(5) 1.1879(4) 0.4185(4)
O6A_2 O 0.1617(5) 0.1879(4) 1.4185(4)
O7A O 0.8651(5) 1.3372(3) 0.4720(3)
O7_2 O 1.1349(5) 0.6628(3) 0.5280(3)
O7A_2 O 0.8651(5) 0.3372(3) 0.4720(3)
O7_3 O 0.1349(5) 0.6628(3) 1.5280(3)
O7A_3 O -0.1349(5) 0.3372(3) 1.4720(3)
O8A O 0.7271(7) 1.1548(5) 0.2809(4)
C1A C 0.3185(7) 0.4827(6) 1.1981(5)
C2A C 0.4184(7) 0.4940(6) 1.0987(4)
C3A C 0.3066(7) 0.4975(6) 0.9777(4)
H1A H 0.1760 0.4965 0.9630
C4A C 0.6164(7) 0.4974(6) 1.1215(4)
C5A C 0.7498(7) 0.4983(5) 1.2519(5)
C6A C 0.3519(7) 1.2250(5) 0.4501(5)
C7A C 0.4349(7) 1.1111(5) 0.4764(5)
C8A C 0.3329(7) 1.0085(5) 0.5270(5)
H2A H 0.2205 1.0146 0.5456
C9A C 0.6069(7) 1.1041(5) 0.4489(5)
C10A C 0.7352(7) 1.2051(5) 0.3918(5)
C11 C 0.7278(16) 0.1702(10) 0.9387(11)
H3 H 0.6330 0.2001 0.9625
C12 C 0.8131(14) 0.0909(10) 1.0040(9)
H4 H 0.7790 0.0694 1.0738
C13 C 0.9516(12) 0.0424(7) 0.9653(6)
C14 C 1.0006(13) 0.0785(8) 0.8607(7)
H5 H 1.0902 0.0468 0.8319
C15 C 0.9139(14) 0.1625(8) 0.8000(7)
H6 H 0.9480 0.1892 0.7318
N1 N 0.7823(11) 0.2042(6) 0.8401(6)
H7 H 0.7295 0.2553 0.8012
C11A C 1.2722(16) -0.1702(10) 1.0613(11)
H3A H 1.3670 -0.2001 1.0375
C12A C 1.1869(14) -0.0909(10) 0.9960(9)
H4A H 1.2210 -0.0694 0.9262
C13A C 1.0484(12) -0.0424(7) 1.0347(6)
C14A C 0.9994(13) -0.0785(8) 1.1393(7)
H5A H 0.9098 -0.0468 1.1681
C15A C 1.0861(14) -0.1625(8) 1.2000(7)
H6A H 1.0520 -0.1892 1.2682
N1A N 1.2177(11) -0.2042(6) 1.1599(6)
H7A H 1.2705 -0.2553 1.1988
O9 O 0.584(5) 0.823(3) 0.905(3)
loop_
_geom_bond_atom_site_label_1
_geom_bond_atom_site_label_2
_geom_bond_site_symmetry_1
_geom_bond_site_symmetry_2
Pr1 O1 1_555 1_555
O1 C1 1_555 1_555
O2 Pr1 1_555 1_555
O3 C5 1_555 1_555
O4 C5 1_555 1_555
O5 Pr1 1_555 1_555
O6 Pr1 1_555 1_555
O7 C10 1_555 1_555
O8 C10 1_555 1_555
C1 O2 1_555 1_555
C2 C1 1_555 1_555
C3 C2 1_555 1_555
H1 C3 1_555 1_555
C4 C2 1_555 1_555
C5 C4 1_555 1_555
C6 O5 1_555 1_555
C7 C6 1_555 1_555
C8 C7 1_555 1_555
H2 C8 1_555 1_555
C9 C7 1_555 1_555
C10 C9 1_555 1_555
C11 H3 1_555 1_555
C12 C11 1_555 1_555
H4 C12 1_555 1_555
C13 C12 1_555 1_555
C14 C13 1_555 1_555
H5 C14 1_555 1_555
C15 C14 1_555 1_555
H6 C15 1_555 1_555
N1 C11 1_555 1_555
H7 N1 1_555 1_555
Pr1A O1A 1_555 1_555
Pr1_2 O3 1_555 1_555
Pr1A_2 O4 1_555 1_555
Pr1A_3 O3A 1_555 1_555
Pr1_3 O4A 1_555 1_555
Pr1_4 O5A 1_555 1_555
Pr1A_4 O5A 1_555 1_555
Pr1A_5 O7A 1_555 1_555
O1A C1A 1_555 1_555
O2A Pr1A 1_555 1_555
O3A C5A 1_555 1_555
O3_2 Pr1 1_555 1_555
O3A_2 Pr1A 1_555 1_555
O4A C5A 1_555 1_555
O4A_2 Pr1 1_555 1_555
O4_2 Pr1A 1_555 1_555
O5A C6A 1_555 1_555
O5A_2 Pr1 1_555 1_555
O5_2 Pr1A 1_555 1_555
O5A_3 Pr1A 1_555 1_555
O6A Pr1A_4 1_555 1_555
O6A_2 Pr1A 1_555 1_555
O7A Pr1_4 1_555 1_555
O7_2 Pr1 1_555 1_555
O7A_2 Pr1 1_555 1_555
O7_3 Pr1A 1_555 1_555
O7A_3 Pr1A 1_555 1_555
O8A C10A 1_555 1_555
C1A O2A 1_555 1_555
C2A C1A 1_555 1_555
C3A C4 1_555 1_555
H1A C3A 1_555 1_555
C4A C3 1_555 1_555
C5A C4A 1_555 1_555
C6A O6A 1_555 1_555
C7A C6A 1_555 1_555
C8A C9 1_555 1_555
H2A C8A 1_555 1_555
C9A C8 1_555 1_555
C10A O7A 1_555 1_555
C11A H3A 1_555 1_555
C12A C11A 1_555 1_555
H4A C12A 1_555 1_555
C13A C13 1_555 1_555
C14A C13A 1_555 1_555
H5A C14A 1_555 1_555
C15A C14A 1_555 1_555
H6A C15A 1_555 1_555
N1A C11A 1_555 1_555
H7A N1A 1_555 1_555
O5 Pr1A_2 1_555 1_555
O6 C6 1_555 1_555
O7 Pr1_2 1_555 1_555
O7 Pr1A_2 1_555 1_555
C15 N1 1_555 1_555
Pr1A_2 O5A_2 1_555 1_555
Pr1_3 O5_2 1_555 1_555
Pr1_3 O5A_3 1_555 1_555
C2A C3A 1_555 1_555
C2A C4A 1_555 1_555
C7A C8A 1_555 1_555
C7A C9A 1_555 1_555
C9A C10A 1_555 1_555
C12A C13A 1_555 1_555
C15A N1A 1_555 1_555

#END
