
#######################################################################
#
#                 Cambridge Crystallographic Data Centre
#                                CCDC 
#
#######################################################################
#
# If this CIF has been generated from an entry in the Cambridge 
# Structural Database, then it will include bibliographic, chemical, 
# crystal, experimental, refinement or atomic coordinate data resulting 
# from the CCDC's data processing and validation procedures.
#
#######################################################################

data_FEQXAB
_symmetry_cell_setting           triclinic
_symmetry_space_group_name_H-M   'P -1'
_symmetry_Int_Tables_number      2
_space_group_name_Hall           '-P 1'
loop_
_symmetry_equiv_pos_site_id
_symmetry_equiv_pos_as_xyz
1 x,y,z
2 -x,-y,-z
_cell_length_a                   7.255(3)
_cell_length_b                   9.910(4)
_cell_length_c                   11.050(4)
_cell_angle_alpha                102.585(6)
_cell_angle_beta                 105.721(6)
_cell_angle_gamma                109.010(6)
_cell_volume                     680.899
loop_
_atom_site_label
_atom_site_type_symbol
_atom_site_fract_x
_atom_site_fract_y
_atom_site_fract_z
Gd1 Gd 0.81914(5) 0.55062(3) 0.58120(3)
O1 O 0.6825(7) 0.3985(5) 0.7274(4)
O2 O 0.7677(7) 0.6453(5) 0.7880(4)
O3 O 0.0930(6) 0.5355(5) 0.7474(4)
O4 O 0.2930(6) 0.4632(5) 0.6480(3)
O5 O 0.5273(6) 0.6456(4) 0.5416(4)
O6 O 0.8441(6) 0.8077(5) 0.5830(4)
O7 O 0.1340(6) 0.6621(4) 0.5339(4)
O8 O 0.2891(8) 0.8510(5) 0.7291(4)
C1 C 0.6818(9) 0.5186(7) 0.7968(5)
C2 C 0.5809(9) 0.5071(7) 0.8989(5)
C3 C 0.6979(9) 0.5032(7) 1.0209(5)
H1 H 0.8311 0.5050 1.0345
C4 C 0.3813(10) 0.5034(7) 0.8778(5)
C5 C 0.2461(9) 0.5026(7) 0.7473(5)
C6 C 0.6517(9) 0.7737(7) 0.5509(5)
C7 C 0.5679(9) 0.8887(6) 0.5242(5)
C8 C 0.6713(9) 0.9915(7) 0.4722(6)
H2 H 0.7869 0.9854 0.4541
C9 C 0.3933(9) 0.8963(6) 0.5536(5)
C10 C 0.2696(9) 0.7963(7) 0.6142(5)
Gd1A Gd 0.18086(5) 0.44938(3) 1.41880(3)
Gd1_2 Gd -0.18086(5) 0.55062(3) 0.58120(3)
Gd1A_2 Gd 0.18086(5) 0.44938(3) 0.41880(3)
Gd1A_3 Gd 1.18086(5) 0.44938(3) 1.41880(3)
Gd1_3 Gd 0.81914(5) 0.55062(3) 1.58120(3)
Gd1_4 Gd 0.81914(5) 1.55062(3) 0.58120(3)
Gd1A_4 Gd 0.18086(5) 1.44938(3) 0.41880(3)
Gd1A_5 Gd 1.18086(5) 1.44938(3) 0.41880(3)
O1A O 0.3175(7) 0.6015(5) 1.2726(4)
O2A O 0.2323(7) 0.3547(5) 1.2120(4)
O3A O 0.9070(6) 0.4645(5) 1.2526(4)
O3_2 O 1.0930(6) 0.5355(5) 0.7474(4)
O3A_2 O -0.0930(6) 0.4645(5) 1.2526(4)
O4A O 0.7070(6) 0.5368(5) 1.3520(3)
O4A_2 O 0.7070(6) 0.5368(5) 0.3520(3)
O4_2 O 0.2930(6) 0.4632(5) 1.6480(3)
O5A O 0.4727(6) 1.3544(4) 0.4584(4)
O5A_2 O 0.4727(6) 0.3544(4) 0.4584(4)
O5_2 O 0.5273(6) 0.6456(4) 1.5416(4)
O5A_3 O 0.4727(6) 0.3544(4) 1.4584(4)
O6A O 0.1559(6) 1.1923(5) 0.4170(4)
O6A_2 O 0.1559(6) 0.1923(5) 1.4170(4)
O7A O 0.8660(6) 1.3379(4) 0.4661(4)
O7_2 O 1.1340(6) 0.6621(4) 0.5339(4)
O7A_2 O 0.8660(6) 0.3379(4) 0.4661(4)
O7_3 O 0.1340(6) 0.6621(4) 1.5339(4)
O7A_3 O -0.1340(6) 0.3379(4) 1.4661(4)
O8A O 0.7109(8) 1.1490(5) 0.2709(4)
C1A C 0.3182(9) 0.4814(7) 1.2032(5)
C2A C 0.4191(9) 0.4929(7) 1.1011(5)
C3A C 0.3021(9) 0.4968(7) 0.9791(5)
H1A H 0.1689 0.4950 0.9655
C4A C 0.6187(10) 0.4966(7) 1.1222(5)
C5A C 0.7539(9) 0.4974(7) 1.2527(5)
C6A C 0.3483(9) 1.2263(7) 0.4491(5)
C7A C 0.4321(9) 1.1113(6) 0.4758(5)
C8A C 0.3287(9) 1.0085(7) 0.5278(6)
H2A H 0.2131 1.0146 0.5459
C9A C 0.6067(9) 1.1037(6) 0.4464(5)
C10A C 0.7304(9) 1.2037(7) 0.3858(5)
C11 C 0.7229(16) 0.1682(11) 0.9272(9)
H3 H 0.6221 0.1973 0.9473
C12 C 0.8055(15) 0.0906(10) 0.9964(9)
H4 H 0.7655 0.0700 1.0658
C13 C 0.9516(13) 0.0415(8) 0.9626(7)
C14 C 1.0087(14) 0.0766(9) 0.8590(7)
H5 H 1.1037 0.0449 0.8332
C15 C 0.9233(15) 0.1582(10) 0.7958(8)
H6 H 0.9622 0.1831 0.7273
N1 N 0.7850(12) 0.2029(7) 0.8309(7)
H7 H 0.7348 0.2553 0.7903
C11A C 1.2771(16) -0.1682(11) 1.0728(9)
H3A H 1.3779 -0.1973 1.0527
C12A C 1.1945(15) -0.0906(10) 1.0036(9)
H4A H 1.2345 -0.0700 0.9342
C13A C 1.0484(13) -0.0415(8) 1.0374(7)
C14A C 0.9913(14) -0.0766(9) 1.1410(7)
H5A H 0.8963 -0.0449 1.1668
C15A C 1.0767(15) -0.1582(10) 1.2042(8)
H6A H 1.0378 -0.1831 1.2727
N1A N 1.2150(12) -0.2029(7) 1.1691(7)
H7A H 1.2652 -0.2553 1.2097
loop_
_geom_bond_atom_site_label_1
_geom_bond_atom_site_label_2
_geom_bond_site_symmetry_1
_geom_bond_site_symmetry_2
Gd1 O1 1_555 1_555
O1 C1 1_555 1_555
O2 Gd1 1_555 1_555
O3 C5 1_555 1_555
O4 C5 1_555 1_555
O5 Gd1 1_555 1_555
O6 Gd1 1_555 1_555
O7 C10 1_555 1_555
O8 C10 1_555 1_555
C1 O2 1_555 1_555
C2 C1 1_555 1_555
C3 C2 1_555 1_555
H1 C3 1_555 1_555
C4 C2 1_555 1_555
C5 C4 1_555 1_555
C6 O5 1_555 1_555
C7 C6 1_555 1_555
C8 C7 1_555 1_555
H2 C8 1_555 1_555
C9 C7 1_555 1_555
C10 C9 1_555 1_555
C11 H3 1_555 1_555
C12 C11 1_555 1_555
H4 C12 1_555 1_555
C13 C12 1_555 1_555
C14 C13 1_555 1_555
H5 C14 1_555 1_555
C15 C14 1_555 1_555
H6 C15 1_555 1_555
N1 C11 1_555 1_555
H7 N1 1_555 1_555
Gd1A O1A 1_555 1_555
Gd1_2 O3 1_555 1_555
Gd1A_2 O4 1_555 1_555
Gd1A_3 O3A 1_555 1_555
Gd1_3 O4A 1_555 1_555
Gd1_4 O5A 1_555 1_555
Gd1A_4 O5A 1_555 1_555
Gd1A_5 O7A 1_555 1_555
O1A C1A 1_555 1_555
O2A Gd1A 1_555 1_555
O3A C5A 1_555 1_555
O3_2 Gd1 1_555 1_555
O3A_2 Gd1A 1_555 1_555
O4A C5A 1_555 1_555
O4A_2 Gd1 1_555 1_555
O4_2 Gd1A 1_555 1_555
O5A C6A 1_555 1_555
O5A_2 Gd1 1_555 1_555
O5_2 Gd1A 1_555 1_555
O5A_3 Gd1A 1_555 1_555
O6A Gd1A_4 1_555 1_555
O6A_2 Gd1A 1_555 1_555
O7A Gd1_4 1_555 1_555
O7_2 Gd1 1_555 1_555
O7A_2 Gd1 1_555 1_555
O7_3 Gd1A 1_555 1_555
O7A_3 Gd1A 1_555 1_555
O8A C10A 1_555 1_555
C1A O2A 1_555 1_555
C2A C1A 1_555 1_555
C3A C4 1_555 1_555
H1A C3A 1_555 1_555
C4A C3 1_555 1_555
C5A C4A 1_555 1_555
C6A O6A 1_555 1_555
C7A C6A 1_555 1_555
C8A C9 1_555 1_555
H2A C8A 1_555 1_555
C9A C8 1_555 1_555
C10A O7A 1_555 1_555
C11A H3A 1_555 1_555
C12A C11A 1_555 1_555
H4A C12A 1_555 1_555
C13A C13 1_555 1_555
C14A C13A 1_555 1_555
H5A C14A 1_555 1_555
C15A C14A 1_555 1_555
H6A C15A 1_555 1_555
N1A C11A 1_555 1_555
H7A N1A 1_555 1_555
O5 Gd1A_2 1_555 1_555
O6 C6 1_555 1_555
O7 Gd1_2 1_555 1_555
O7 Gd1A_2 1_555 1_555
C15 N1 1_555 1_555
Gd1A_2 O5A_2 1_555 1_555
Gd1_3 O5_2 1_555 1_555
Gd1_3 O5A_3 1_555 1_555
C2A C3A 1_555 1_555
C2A C4A 1_555 1_555
C7A C8A 1_555 1_555
C7A C9A 1_555 1_555
C9A C10A 1_555 1_555
C12A C13A 1_555 1_555
C15A N1A 1_555 1_555

#END
