
#######################################################################
#
#                 Cambridge Crystallographic Data Centre
#                                CCDC 
#
#######################################################################
#
# If this CIF has been generated from an entry in the Cambridge 
# Structural Database, then it will include bibliographic, chemical, 
# crystal, experimental, refinement or atomic coordinate data resulting 
# from the CCDC's data processing and validation procedures.
#
#######################################################################

data_FEQYOP01
_symmetry_cell_setting           triclinic
_symmetry_space_group_name_H-M   'P -1'
_symmetry_Int_Tables_number      2
_space_group_name_Hall           '-P 1'
loop_
_symmetry_equiv_pos_site_id
_symmetry_equiv_pos_as_xyz
1 x,y,z
2 -x,-y,-z
_cell_length_a                   10.0370(12)
_cell_length_b                   11.5936(19)
_cell_length_c                   13.420(2)
_cell_angle_alpha                113.717(17)
_cell_angle_beta                 100.266(11)
_cell_angle_gamma                91.496(13)
_cell_volume                     1398.53
loop_
_atom_site_label
_atom_site_type_symbol
_atom_site_fract_x
_atom_site_fract_y
_atom_site_fract_z
Zn1 Zn 0.0000 0.0000 0.0000
N1 N 0.2102(6) -0.0006(6) 0.0177(5)
H1 H 0.2269 -0.0504 -0.0502
N2 N 0.0157(6) -0.1342(6) 0.0712(5)
H2 H 0.0162 -0.0873 0.1444
C1 C 0.2574(8) -0.0630(7) 0.0926(7)
H3 H 0.2617 -0.0005 0.1689
C2 C 0.3963(9) -0.1054(9) 0.0860(8)
H4 H 0.4605 -0.0340 0.1000
H5 H 0.3946 -0.1687 0.0115
C3 C 0.4433(9) -0.1619(10) 0.1695(9)
H6 H 0.4490 -0.0981 0.2444
H7 H 0.5332 -0.1889 0.1629
C4 C 0.3420(10) -0.2747(10) 0.1473(9)
H8 H 0.3429 -0.3418 0.0751
H9 H 0.3687 -0.3073 0.2033
C5 C 0.2000(9) -0.2340(9) 0.1507(8)
H10 H 0.1365 -0.3075 0.1323
H11 H 0.1979 -0.1742 0.2256
C6 C 0.1539(8) -0.1744(8) 0.0707(7)
H12 H 0.1533 -0.2382 -0.0044
C7 C -0.0971(10) -0.2356(9) 0.0357(9)
H13 H -0.0878 -0.2632 0.0965
C8 C -0.2343(8) -0.1825(8) 0.0320(8)
H14 H -0.3032 -0.2498 0.0196
H15 H -0.2331 -0.1163 0.1051
C9 C 0.2808(8) 0.1288(8) 0.0517(7)
H16 H 0.2623 0.1848 0.1230
H17 H 0.3784 0.1248 0.0608
C10 C -0.0936(11) -0.3481(10) -0.0611(10)
H18 H -0.0046 -0.3761 -0.0542
H19 H -0.1130 -0.3301 -0.1258
H20 H -0.1602 -0.4133 -0.0682
Zn2 Zn 0.0000 0.5000 0.5000
N3 N -0.2085(6) 0.4927(6) 0.4816(5)
H21 H -0.2269 0.5708 0.5267
N4 N -0.0353(6) 0.5306(6) 0.3546(5)
H22 H -0.0343 0.4522 0.3003
C11 C -0.2682(8) 0.4734(8) 0.3671(7)
H23 H -0.2626 0.3846 0.3189
C12 C -0.4155(9) 0.4976(10) 0.3466(9)
H24 H -0.4243 0.5856 0.3915
H25 H -0.4698 0.4451 0.3687
C13 C -0.4686(11) 0.4673(12) 0.2236(10)
H26 H -0.5632 0.4832 0.2118
H27 H -0.4628 0.3787 0.1783
C14 C -0.3823(11) 0.5508(13) 0.1895(10)
H28 H -0.4133 0.5313 0.1112
H29 H -0.3923 0.6391 0.2321
C15 C -0.2345(10) 0.5297(11) 0.2114(8)
H30 H -0.1806 0.5843 0.1911
H31 H -0.2247 0.4426 0.1646
C16 C -0.1795(9) 0.5556(8) 0.3327(7)
H32 H -0.1859 0.6449 0.3788
C17 C 0.0663(9) 0.6111(9) 0.3345(8)
H33 H 0.0464 0.5932 0.2552
C18 C 0.2094(9) 0.5713(9) 0.3631(8)
H34 H 0.2067 0.4808 0.3199
H35 H 0.2726 0.6130 0.3381
C19 C -0.2661(9) 0.4013(8) 0.5192(7)
H36 H -0.3640 0.4030 0.5091
H37 H -0.2486 0.3165 0.4726
C20 C 0.0580(10) 0.7505(8) 0.3997(8)
H38 H -0.0322 0.7705 0.3793
H39 H 0.1227 0.7995 0.3835
H40 H 0.0782 0.7701 0.4778
Cr1 Cr 0.07348(13) 0.18786(12) 0.30298(11)
O1 O 0.0717(6) 0.0611(6) 0.3273(5)
O2 O 0.2300(5) 0.2574(6) 0.3390(5)
O3 O -0.0255(5) 0.2885(5) 0.3739(5)
O4 O 0.0167(6) 0.1470(5) 0.1701(4)
N1A N -0.2102(6) 0.0006(6) -0.0177(5)
H1A H -0.2269 0.0504 0.0502
C1A C -0.2574(8) 0.0630(7) -0.0926(7)
H3A H -0.2617 0.0005 -0.1689
C2A C -0.3963(9) 0.1054(9) -0.0860(8)
H4A H -0.4605 0.0340 -0.1000
H5A H -0.3946 0.1687 -0.0115
C3A C -0.4433(9) 0.1619(10) -0.1695(9)
H6A H -0.4490 0.0981 -0.2444
H7A H -0.5332 0.1889 -0.1629
C4A C -0.3420(10) 0.2747(10) -0.1473(9)
H8A H -0.3429 0.3418 -0.0751
H9A H -0.3687 0.3073 -0.2033
C5A C -0.2000(9) 0.2340(9) -0.1507(8)
H10A H -0.1365 0.3075 -0.1323
H11A H -0.1979 0.1742 -0.2256
C6A C -0.1539(8) 0.1744(8) -0.0707(7)
N2A N -0.0157(6) 0.1342(6) -0.0712(5)
N3A N 0.2085(6) 0.5073(6) 0.5184(5)
H21A H 0.2269 0.4292 0.4733
C11A C 0.2682(8) 0.5266(8) 0.6329(7)
H23A H 0.2626 0.6154 0.6811
C12A C 0.4155(9) 0.5024(10) 0.6534(9)
H24A H 0.4243 0.4144 0.6085
H25A H 0.4698 0.5549 0.6313
C13A C 0.4686(11) 0.5327(12) 0.7764(10)
H26A H 0.5632 0.5168 0.7882
H27A H 0.4628 0.6213 0.8217
C14A C 0.3823(11) 0.4492(13) 0.8105(10)
H28A H 0.4133 0.4687 0.8888
H29A H 0.3923 0.3609 0.7679
C15A C 0.2345(10) 0.4703(11) 0.7886(8)
H30A H 0.1806 0.4157 0.8089
H31A H 0.2247 0.5574 0.8354
C16A C 0.1795(9) 0.4444(8) 0.6673(7)
N4A N 0.0353(6) 0.4694(6) 0.6454(5)
O3A O 0.0255(5) 0.7115(5) 0.6261(5)
Cr1A Cr -0.07348(13) 0.81214(12) 0.69702(11)
O1A O -0.0717(6) 0.9389(6) 0.6727(5)
O2A O -0.2300(5) 0.7426(6) 0.6610(5)
O4A O -0.0167(6) 0.8530(5) 0.8299(4)
Zn1A Zn 0.0000 1.0000 1.0000
H22A H 0.0343 0.5478 0.6997
C17A C -0.0663(9) 0.3889(9) 0.6655(8)
H33A H -0.0464 0.4068 0.7448
C18A C -0.2094(9) 0.4287(9) 0.6369(8)
H34A H -0.2067 0.5192 0.6801
H35A H -0.2726 0.3870 0.6619
C20A C -0.0580(10) 0.2495(8) 0.6003(8)
H38A H 0.0322 0.2295 0.6207
H39A H -0.1227 0.2005 0.6165
H40A H -0.0782 0.2299 0.5222
H32A H 0.1859 0.3551 0.6212
C19A C 0.2661(9) 0.5987(8) 0.4808(7)
H36A H 0.3640 0.5970 0.4909
H37A H 0.2486 0.6835 0.5274
O4A_2 O -0.0167(6) -0.1470(5) -0.1701(4)
H2A H -0.0162 0.0873 -0.1444
C7A C 0.0971(10) 0.2356(9) -0.0357(9)
H13A H 0.0878 0.2632 -0.0965
C8A C 0.2343(8) 0.1825(8) -0.0320(8)
H14A H 0.3032 0.2498 -0.0196
H15A H 0.2331 0.1163 -0.1051
C10A C 0.0936(11) 0.3481(10) 0.0611(10)
H18A H 0.0046 0.3761 0.0542
H19A H 0.1130 0.3301 0.1258
H20A H 0.1602 0.4133 0.0682
H12A H -0.1533 0.2382 0.0044
C9A C -0.2808(8) -0.1288(8) -0.0517(7)
H16A H -0.2623 -0.1848 -0.1230
H17A H -0.3784 -0.1248 -0.0608
O5 O 0.1820(7) 0.0459(8) 0.6691(6)
H41 H 0.2340 0.0814 0.7425
H42 H 0.0921 0.0103 0.6588
O6 O 0.2855(7) 0.0535(8) 0.4957(7)
H43 H 0.2642 0.0092 0.5374
H44 H 0.2319 0.0167 0.4230
O7 O 0.5541(8) 0.1620(7) 0.5390(7)
H45 H 0.4639 0.1234 0.5352
H46 H 0.5465 0.1746 0.4698
O8 O 0.4901(6) 0.1784(7) 0.3324(6)
H47 H 0.5405 0.1629 0.2755
H48 H 0.4075 0.2001 0.3014
O9 O 0.7075(7) 0.1234(6) 0.2265(5)
H49 H 0.7890 0.1024 0.2596
H50 H 0.7043 0.1245 0.1560
loop_
_geom_bond_atom_site_label_1
_geom_bond_atom_site_label_2
_geom_bond_site_symmetry_1
_geom_bond_site_symmetry_2
Zn1 N1 1_555 1_555
N1 H1 1_555 1_555
N2 Zn1 1_555 1_555
H2 N2 1_555 1_555
C1 N1 1_555 1_555
H3 C1 1_555 1_555
C2 C1 1_555 1_555
H4 C2 1_555 1_555
H5 C2 1_555 1_555
C3 C2 1_555 1_555
H6 C3 1_555 1_555
H7 C3 1_555 1_555
C4 C3 1_555 1_555
H8 C4 1_555 1_555
H9 C4 1_555 1_555
C5 C4 1_555 1_555
H10 C5 1_555 1_555
H11 C5 1_555 1_555
C6 N2 1_555 1_555
H12 C6 1_555 1_555
C7 N2 1_555 1_555
H13 C7 1_555 1_555
C8 C7 1_555 1_555
H14 C8 1_555 1_555
H15 C8 1_555 1_555
C9 N1 1_555 1_555
H16 C9 1_555 1_555
H17 C9 1_555 1_555
C10 C7 1_555 1_555
H18 C10 1_555 1_555
H19 C10 1_555 1_555
H20 C10 1_555 1_555
Zn2 N3 1_555 1_555
N3 H21 1_555 1_555
N4 Zn2 1_555 1_555
H22 N4 1_555 1_555
C11 N3 1_555 1_555
H23 C11 1_555 1_555
C12 C11 1_555 1_555
H24 C12 1_555 1_555
H25 C12 1_555 1_555
C13 C12 1_555 1_555
H26 C13 1_555 1_555
H27 C13 1_555 1_555
C14 C13 1_555 1_555
H28 C14 1_555 1_555
H29 C14 1_555 1_555
C15 C14 1_555 1_555
H30 C15 1_555 1_555
H31 C15 1_555 1_555
C16 N4 1_555 1_555
H32 C16 1_555 1_555
C17 N4 1_555 1_555
H33 C17 1_555 1_555
C18 C17 1_555 1_555
H34 C18 1_555 1_555
H35 C18 1_555 1_555
C19 N3 1_555 1_555
H36 C19 1_555 1_555
H37 C19 1_555 1_555
C20 C17 1_555 1_555
H38 C20 1_555 1_555
H39 C20 1_555 1_555
H40 C20 1_555 1_555
Cr1 O1 1_555 1_555
O2 Cr1 1_555 1_555
O3 Zn2 1_555 1_555
O4 Zn1 1_555 1_555
O5 H41 1_555 1_555
H42 O5 1_555 1_555
O6 H43 1_555 1_555
H44 O6 1_555 1_555
O7 H45 1_555 1_555
H46 O7 1_555 1_555
O8 H47 1_555 1_555
H48 O8 1_555 1_555
O9 H49 1_555 1_555
H50 O9 1_555 1_555
N1A Zn1 1_555 1_555
H1A N1A 1_555 1_555
C1A N1A 1_555 1_555
H3A C1A 1_555 1_555
C2A C1A 1_555 1_555
H4A C2A 1_555 1_555
H5A C2A 1_555 1_555
C3A C2A 1_555 1_555
H6A C3A 1_555 1_555
H7A C3A 1_555 1_555
C4A C3A 1_555 1_555
H8A C4A 1_555 1_555
H9A C4A 1_555 1_555
C5A C4A 1_555 1_555
H10A C5A 1_555 1_555
H11A C5A 1_555 1_555
C6A C1A 1_555 1_555
N2A Zn1 1_555 1_555
N3A Zn2 1_555 1_555
H21A N3A 1_555 1_555
C11A N3A 1_555 1_555
H23A C11A 1_555 1_555
C12A C11A 1_555 1_555
H24A C12A 1_555 1_555
H25A C12A 1_555 1_555
C13A C12A 1_555 1_555
H26A C13A 1_555 1_555
H27A C13A 1_555 1_555
C14A C13A 1_555 1_555
H28A C14A 1_555 1_555
H29A C14A 1_555 1_555
C15A C14A 1_555 1_555
H30A C15A 1_555 1_555
H31A C15A 1_555 1_555
C16A C11A 1_555 1_555
N4A Zn2 1_555 1_555
O3A Zn2 1_555 1_555
Cr1A O3A 1_555 1_555
O1A Cr1A 1_555 1_555
O2A Cr1A 1_555 1_555
O4A Cr1A 1_555 1_555
Zn1A O4A 1_555 1_555
H22A N4A 1_555 1_555
C17A N4A 1_555 1_555
H33A C17A 1_555 1_555
C18A C19 1_555 1_555
H34A C18A 1_555 1_555
H35A C18A 1_555 1_555
C20A C17A 1_555 1_555
H38A C20A 1_555 1_555
H39A C20A 1_555 1_555
H40A C20A 1_555 1_555
H32A C16A 1_555 1_555
C19A C18 1_555 1_555
H36A C19A 1_555 1_555
H37A C19A 1_555 1_555
O4A_2 Zn1 1_555 1_555
H2A N2A 1_555 1_555
C7A N2A 1_555 1_555
H13A C7A 1_555 1_555
C8A C9 1_555 1_555
H14A C8A 1_555 1_555
H15A C8A 1_555 1_555
C10A C7A 1_555 1_555
H18A C10A 1_555 1_555
H19A C10A 1_555 1_555
H20A C10A 1_555 1_555
H12A C6A 1_555 1_555
C9A C8 1_555 1_555
H16A C9A 1_555 1_555
H17A C9A 1_555 1_555
C1 C6 1_555 1_555
C5 C6 1_555 1_555
C11 C16 1_555 1_555
C15 C16 1_555 1_555
Cr1 O4 1_555 1_555
Cr1 O3 1_555 1_555
N1A C9A 1_555 1_555
C5A C6A 1_555 1_555
C6A N2A 1_555 1_555
N3A C19A 1_555 1_555
C15A C16A 1_555 1_555
C16A N4A 1_555 1_555
C17A C18A 1_555 1_555
C7A C8A 1_555 1_555

#END
