
#######################################################################
#
#                 Cambridge Crystallographic Data Centre
#                                CCDC 
#
#######################################################################
#
# If this CIF has been generated from an entry in the Cambridge 
# Structural Database, then it will include bibliographic, chemical, 
# crystal, experimental, refinement or atomic coordinate data resulting 
# from the CCDC's data processing and validation procedures.
#
#######################################################################

data_FERBOU
_symmetry_cell_setting           monoclinic
_symmetry_space_group_name_H-M   'C 2/c'
_symmetry_Int_Tables_number      15
_space_group_name_Hall           '-C 2yn'
loop_
_symmetry_equiv_pos_site_id
_symmetry_equiv_pos_as_xyz
1 x,y,z
2 1/2+x,1/2+y,z
3 -x,y,1/2-z
4 1/2-x,1/2+y,1/2-z
5 -x,-y,-z
6 1/2-x,1/2-y,-z
7 x,-y,1/2+z
8 1/2+x,1/2-y,1/2+z
_cell_length_a                   13.0937(9)
_cell_length_b                   17.7646(12)
_cell_length_c                   15.7526(11)
_cell_angle_alpha                90
_cell_angle_beta                 94.853(4)
_cell_angle_gamma                90
_cell_volume                     3650.99
loop_
_atom_site_label
_atom_site_type_symbol
_atom_site_fract_x
_atom_site_fract_y
_atom_site_fract_z
C1 C 0.52118(6) 0.52537(4) 0.08365(4)
C2 C 0.45771(5) 0.57054(4) 0.01707(4)
C3 C 0.51221(5) 0.22433(4) 0.09769(4)
C4 C 0.59102(6) 0.22817(4) 0.04228(5)
C5 C 0.59552(8) 0.17658(5) -0.02415(5)
C6 C 0.52240(9) 0.12020(5) -0.03742(6)
C7 C 0.44598(8) 0.11478(5) 0.01781(6)
C8 C 0.44054(6) 0.16545(4) 0.08462(5)
C9 C 0.30955(5) 0.43543(4) 0.23041(4)
C10 C 0.27606(5) 0.47013(4) 0.15263(5)
C11 C 0.19009(5) 0.51668(4) 0.14551(6)
C12 C 0.13417(6) 0.52941(5) 0.21521(7)
C13 C 0.16465(6) 0.49442(5) 0.29201(6)
C14 C 0.25076(5) 0.44792(4) 0.30005(5)
C15 C 0.20042(7) 0.27481(5) 0.14880(6)
C16 C 0.13759(6) 0.21254(5) 0.10569(5)
C17 C 0.13639(6) 0.14897(4) 0.23547(5)
C18 C 0.19831(6) 0.21092(5) 0.27984(5)
H1 H 0.6417(9) 0.2691(6) 0.0496(8)
H2 H 0.6526(11) 0.1812(8) -0.0643(10)
H3 H 0.5240(11) 0.0860(8) -0.0860(10)
H4 H 0.3946(12) 0.0736(9) 0.0084(11)
H5 H 0.3846(9) 0.1608(6) 0.1245(8)
H6 H 0.3147(8) 0.4609(6) 0.1028(8)
H7 H 0.1660(9) 0.5403(7) 0.0881(8)
H8 H 0.0753(10) 0.5624(7) 0.2093(9)
H9 H 0.1239(10) 0.5012(8) 0.3417(9)
H10 H 0.2722(9) 0.4227(7) 0.3526(8)
H11 H 0.5938(8) 0.5378(6) 0.0852(7)
H12 H 0.3859(9) 0.5581(6) 0.0162(8)
H13 H 0.1542(11) 0.3123(8) 0.1711(9)
H14 H 0.1840(9) 0.1730(7) 0.0840(8)
H15 H 0.1823(9) 0.1100(6) 0.2174(7)
H16 H 0.2445(9) 0.1911(7) 0.3288(8)
H17 H 0.4999(8) 0.5326(6) 0.1403(8)
H18 H 0.4706(8) 0.6232(7) 0.0262(7)
H19 H 0.2499(11) 0.2982(8) 0.1070(9)
H20 H 0.0906(9) 0.2333(7) 0.0568(8)
H21 H 0.0903(10) 0.1279(8) 0.2773(9)
H22 H 0.1532(10) 0.2511(7) 0.3013(9)
Li1 Li 0.39890(10) 0.28282(7) 0.24028(8)
Li2 Li 0.50559(9) 0.38260(7) 0.16566(8)
O1 O 0.51102(4) 0.44607(3) 0.06589(3)
O2 O 0.50504(4) 0.27426(3) 0.15981(3)
O3 O 0.39319(4) 0.39260(3) 0.23737(3)
O4 O 0.26226(4) 0.24548(3) 0.22128(4)
O5 O 0.07472(4) 0.17753(3) 0.16342(4)
C1D C 0.47882(6) 0.47463(4) -0.08365(4)
C2D C 0.54229(5) 0.42946(4) -0.01707(4)
C3B C 0.48779(5) 0.22433(4) 0.40231(4)
C4B C 0.40898(6) 0.22817(4) 0.45772(5)
C5B C 0.40448(8) 0.17658(5) 0.52415(5)
C6B C 0.47760(9) 0.12020(5) 0.53742(6)
C7B C 0.55402(8) 0.11478(5) 0.48219(6)
C8B C 0.55946(6) 0.16545(4) 0.41538(5)
C9B C 0.69045(5) 0.43543(4) 0.26959(4)
C10B C 0.72394(5) 0.47013(4) 0.34737(5)
C11B C 0.80991(5) 0.51668(4) 0.35449(6)
C12B C 0.86583(6) 0.52941(5) 0.28479(7)
C13B C 0.83535(6) 0.49442(5) 0.20799(6)
C14B C 0.74924(5) 0.44792(4) 0.19995(5)
C15B C 0.79958(7) 0.27481(5) 0.35120(6)
C16B C 0.86241(6) 0.21254(5) 0.39431(5)
C17B C 0.86361(6) 0.14897(4) 0.26453(5)
C18B C 0.80169(6) 0.21092(5) 0.22016(5)
H1B H 0.3583(9) 0.2691(6) 0.4504(8)
H2B H 0.3474(11) 0.1812(8) 0.5643(10)
H3B H 0.4760(11) 0.0860(8) 0.5860(10)
H4B H 0.6054(12) 0.0736(9) 0.4916(11)
H5B H 0.6154(9) 0.1608(6) 0.3755(8)
H6B H 0.6853(8) 0.4609(6) 0.3972(8)
H7B H 0.8340(9) 0.5403(7) 0.4119(8)
H8B H 0.9247(10) 0.5624(7) 0.2907(9)
H9B H 0.8761(10) 0.5012(8) 0.1583(9)
H10B H 0.7278(9) 0.4227(7) 0.1474(8)
H11D H 0.4062(8) 0.4622(6) -0.0852(7)
H12D H 0.6141(9) 0.4419(6) -0.0162(8)
H13B H 0.8458(11) 0.3123(8) 0.3289(9)
H14B H 0.8160(9) 0.1730(7) 0.4160(8)
H15B H 0.8177(9) 0.1100(6) 0.2826(7)
H16B H 0.7555(9) 0.1911(7) 0.1712(8)
H17D H 0.5001(8) 0.4674(6) -0.1403(8)
H18D H 0.5294(8) 0.3768(7) -0.0262(7)
H19B H 0.7501(11) 0.2982(8) 0.3930(9)
H20B H 0.9094(9) 0.2333(7) 0.4432(8)
H21B H 0.9097(10) 0.1279(8) 0.2227(9)
H22B H 0.8468(10) 0.2511(7) 0.1987(9)
Li1B Li 0.60110(10) 0.28282(7) 0.25972(8)
Li2B Li 0.49441(9) 0.38260(7) 0.33434(8)
Li2D Li 0.49441(9) 0.61740(7) -0.16566(8)
O1D O 0.48898(4) 0.55393(3) -0.06589(3)
O1B O 0.48898(4) 0.44607(3) 0.43411(3)
O2B O 0.49496(4) 0.27426(3) 0.34019(3)
O3B O 0.60681(4) 0.39260(3) 0.26263(3)
O4B O 0.73774(4) 0.24548(3) 0.27872(4)
O5B O 0.92528(4) 0.17753(3) 0.33658(4)
loop_
_geom_bond_atom_site_label_1
_geom_bond_atom_site_label_2
_geom_bond_site_symmetry_1
_geom_bond_site_symmetry_2
C1 C2 1_555 1_555
C2 H12 1_555 1_555
C3 C4 1_555 1_555
C4 C5 1_555 1_555
C5 C6 1_555 1_555
C6 C7 1_555 1_555
C7 C8 1_555 1_555
C8 C3 1_555 1_555
C9 C10 1_555 1_555
C10 C11 1_555 1_555
C11 C12 1_555 1_555
C12 C13 1_555 1_555
C13 C14 1_555 1_555
C14 C9 1_555 1_555
C15 C16 1_555 1_555
C16 H14 1_555 1_555
C17 C18 1_555 1_555
C18 H16 1_555 1_555
H1 C4 1_555 1_555
H2 C5 1_555 1_555
H3 C6 1_555 1_555
H4 C7 1_555 1_555
H5 C8 1_555 1_555
H6 C10 1_555 1_555
H7 C11 1_555 1_555
H8 C12 1_555 1_555
H9 C13 1_555 1_555
H10 C14 1_555 1_555
H11 C1 1_555 1_555
H13 C15 1_555 1_555
H15 C17 1_555 1_555
H17 C1 1_555 1_555
H18 C2 1_555 1_555
H19 C15 1_555 1_555
H20 C16 1_555 1_555
H21 C17 1_555 1_555
H22 C18 1_555 1_555
Li1 O2 1_555 1_555
Li2 O1 1_555 1_555
O1 C1 1_555 1_555
O2 C3 1_555 1_555
O3 C9 1_555 1_555
O4 C15 1_555 1_555
O5 C16 1_555 1_555
C1D C2D 1_555 1_555
C2D O1 1_555 1_555
C3B C4B 1_555 1_555
C4B C5B 1_555 1_555
C5B C6B 1_555 1_555
C6B C7B 1_555 1_555
C7B C8B 1_555 1_555
C8B C3B 1_555 1_555
C9B C10B 1_555 1_555
C10B C11B 1_555 1_555
C11B C12B 1_555 1_555
C12B C13B 1_555 1_555
C13B C14B 1_555 1_555
C14B C9B 1_555 1_555
C15B C16B 1_555 1_555
C16B H14B 1_555 1_555
C17B C18B 1_555 1_555
C18B H16B 1_555 1_555
H1B C4B 1_555 1_555
H2B C5B 1_555 1_555
H3B C6B 1_555 1_555
H4B C7B 1_555 1_555
H5B C8B 1_555 1_555
H6B C10B 1_555 1_555
H7B C11B 1_555 1_555
H8B C12B 1_555 1_555
H9B C13B 1_555 1_555
H10B C14B 1_555 1_555
H11D C1D 1_555 1_555
H12D C2D 1_555 1_555
H13B C15B 1_555 1_555
H15B C17B 1_555 1_555
H17D C1D 1_555 1_555
H18D C2D 1_555 1_555
H19B C15B 1_555 1_555
H20B C16B 1_555 1_555
H21B C17B 1_555 1_555
H22B C18B 1_555 1_555
Li1B O2 1_555 1_555
Li2B O3 1_555 1_555
Li2D O1D 1_555 1_555
O1D C2 1_555 1_555
O1B Li2B 1_555 1_555
O2B Li1 1_555 1_555
O3B Li2 1_555 1_555
O4B C15B 1_555 1_555
O5B C16B 1_555 1_555
C17 O5 1_555 1_555
C18 O4 1_555 1_555
Li1 O3 1_555 1_555
Li1 O4 1_555 1_555
Li2 O2 1_555 1_555
Li2 O3 1_555 1_555
C1D O1D 1_555 1_555
C3B O2B 1_555 1_555
C9B O3B 1_555 1_555
C17B O5B 1_555 1_555
C18B O4B 1_555 1_555
Li1B O2B 1_555 1_555
Li1B O3B 1_555 1_555
Li1B O4B 1_555 1_555
Li2B O2B 1_555 1_555
Li2B O3B 1_555 1_555

#END
