
#######################################################################
#
#                 Cambridge Crystallographic Data Centre
#                                CCDC 
#
#######################################################################
#
# If this CIF has been generated from an entry in the Cambridge 
# Structural Database, then it will include bibliographic, chemical, 
# crystal, experimental, refinement or atomic coordinate data resulting 
# from the CCDC's data processing and validation procedures.
#
#######################################################################

data_FERCOV
_symmetry_cell_setting           triclinic
_symmetry_space_group_name_H-M   'P -1'
_symmetry_Int_Tables_number      2
_space_group_name_Hall           '-P 1'
loop_
_symmetry_equiv_pos_site_id
_symmetry_equiv_pos_as_xyz
1 x,y,z
2 -x,-y,-z
_cell_length_a                   7.8605(8)
_cell_length_b                   11.7030(11)
_cell_length_c                   22.549(2)
_cell_angle_alpha                86.840(2)
_cell_angle_beta                 89.118(2)
_cell_angle_gamma                89.024(2)
_cell_volume                     2070.64
loop_
_atom_site_label
_atom_site_type_symbol
_atom_site_fract_x
_atom_site_fract_y
_atom_site_fract_z
Cu1 Cu 0.69035(3) 0.79493(2) 0.090904(12)
Cu2 Cu 0.19722(3) 0.70267(2) 0.405832(12)
O1 O 0.7930(2) 0.66526(14) 0.15500(7)
O2 O 0.7518(3) 0.51135(16) 0.10381(8)
O3 O 0.6096(2) 0.88747(14) 0.15509(7)
O4 O 0.5728(2) 1.05143(14) 0.10028(7)
O5 O 0.4338(2) 1.39920(15) 0.22095(8)
H1 H 0.433(4) 1.465(3) 0.2327(13)
O6 O 0.4106(2) 1.36818(15) 0.31929(8)
O7 O 0.2637(2) 0.97909(15) 0.39992(8)
O8 O 0.2726(2) 0.83401(14) 0.33936(7)
O9 O 1.1398(2) 0.61431(14) 0.33825(7)
O10 O 1.0845(2) 0.45826(14) 0.39677(7)
O11 O 0.9568(2) 0.10365(15) 0.28467(8)
H2 H 0.968(4) 0.034(3) 0.2777(13)
O12 O 0.8973(2) 0.12899(15) 0.18813(8)
N1 N 0.9179(2) 0.86442(16) 0.07232(8)
N2 N 0.7270(2) 0.74601(16) 0.01077(8)
N3 N 0.4685(2) 0.71837(16) 0.07812(8)
N4 N 0.4282(2) 0.63293(16) 0.42637(8)
N5 N 0.2222(2) 0.75395(16) 0.48577(8)
N6 N -0.0362(2) 0.77326(16) 0.42007(9)
C1 C 1.0076(3) 0.9259(2) 0.10854(11)
H9 H 0.959(4) 0.939(2) 0.1428(13)
C2 C 1.1666(3) 0.9671(2) 0.09280(11)
H10 H 1.227(4) 1.009(2) 0.1218(12)
C3 C 1.2349(3) 0.9442(2) 0.03768(12)
H11 H 1.341(4) 0.969(2) 0.0274(12)
C4 C 1.1424(3) 0.8812(2) -0.00032(11)
H12 H 1.183(4) 0.867(2) -0.0385(13)
C5 C 0.9848(3) 0.84205(19) 0.01830(10)
C6 C 0.8710(3) 0.7747(2) -0.01772(10)
C7 C 0.8987(3) 0.7442(2) -0.07606(11)
H13 H 0.995(4) 0.765(2) -0.0942(12)
C8 C 0.7731(3) 0.6852(2) -0.10281(11)
H14 H 0.787(4) 0.665(2) -0.1404(13)
C9 C 0.6228(3) 0.6573(2) -0.07272(11)
H15 H 0.532(4) 0.621(2) -0.0917(12)
C10 C 0.6034(3) 0.6902(2) -0.01484(10)
C11 C 0.4546(3) 0.6705(2) 0.02506(10)
C12 C 0.3126(3) 0.6095(2) 0.01117(12)
H16 H 0.308(4) 0.580(2) -0.0239(13)
C13 C 0.1822(3) 0.5977(2) 0.05315(12)
H17 H 0.078(4) 0.556(2) 0.0435(12)
C14 C 0.1978(3) 0.6460(2) 0.10713(12)
H18 H 0.114(4) 0.641(2) 0.1351(13)
C15 C 0.3421(3) 0.7060(2) 0.11796(11)
H19 H 0.359(3) 0.740(2) 0.1523(13)
C16 C 0.7980(3) 0.5578(2) 0.14823(10)
C17 C 0.8703(3) 0.4832(2) 0.19927(10)
C18 C 0.5628(3) 0.9939(2) 0.14705(10)
C19 C 0.4879(3) 1.0441(2) 0.20230(10)
C20 C 0.4854(3) 1.1617(2) 0.20789(10)
H20 H 0.523(3) 1.209(2) 0.1796(12)
C21 C 0.4241(3) 1.2069(2) 0.26022(10)
C22 C 0.3647(3) 1.1341(2) 0.30648(10)
H21 H 0.325(3) 1.162(2) 0.3418(12)
C23 C 0.3604(3) 1.0164(2) 0.30066(10)
C24 C 0.4214(3) 0.9730(2) 0.24829(10)
H22 H 0.417(3) 0.896(2) 0.2458(11)
C25 C 0.4231(3) 1.3319(2) 0.27016(11)
C26 C 0.2922(3) 0.9384(2) 0.35128(10)
C27 C 0.5233(3) 0.5663(2) 0.39273(11)
H23 H 0.477(3) 0.549(2) 0.3575(12)
C28 C 0.6815(3) 0.5243(2) 0.41054(11)
H24 H 0.746(4) 0.478(2) 0.3847(12)
C29 C 0.7417(3) 0.5507(2) 0.46517(11)
H25 H 0.845(4) 0.523(2) 0.4780(12)
C30 C 0.6425(3) 0.6180(2) 0.50119(11)
H26 H 0.681(4) 0.636(2) 0.5369(13)
C31 C 0.4866(3) 0.6581(2) 0.48041(10)
C32 C 0.3661(3) 0.7280(2) 0.51492(10)
C33 C 0.3884(3) 0.7627(2) 0.57198(11)
H27 H 0.486(4) 0.743(2) 0.5926(12)
C34 C 0.2569(3) 0.8222(2) 0.59845(11)
H28 H 0.272(4) 0.845(2) 0.6378(13)
C35 C 0.1073(3) 0.8467(2) 0.56838(11)
H29 H 0.018(4) 0.886(2) 0.5859(12)
C36 C 0.0937(3) 0.81140(19) 0.51086(10)
C37 C -0.0535(3) 0.82740(19) 0.47147(10)
C38 C -0.1988(3) 0.8906(2) 0.48444(11)
H30 H -0.205(3) 0.925(2) 0.5178(13)
C39 C -0.3281(3) 0.8992(2) 0.44322(11)
H31 H -0.427(4) 0.943(2) 0.4498(12)
C40 C -0.3095(3) 0.8440(2) 0.39083(11)
H32 H -0.395(4) 0.845(2) 0.3642(13)
C41 C -0.1628(3) 0.7808(2) 0.38137(11)
H33 H -0.146(3) 0.742(2) 0.3464(12)
C42 C 1.0844(3) 0.5111(2) 0.34836(10)
C43 C 1.0099(3) 0.4593(2) 0.29479(10)
C44 C 0.9964(3) 0.3407(2) 0.29320(10)
H34 H 1.035(3) 0.295(2) 0.3221(12)
C45 C 0.9264(3) 0.2935(2) 0.24371(10)
C46 C 0.8622(3) 0.3653(2) 0.19788(10)
H35 H 0.809(3) 0.335(2) 0.1659(12)
C47 C 0.9493(3) 0.5294(2) 0.24716(10)
H36 H 0.959(3) 0.607(2) 0.2484(11)
C48 C 0.9251(3) 0.1674(2) 0.23582(11)
Cu2_2 Cu 1.19722(3) 0.70267(2) 0.405832(12)
O9_2 O 0.1398(2) 0.61431(14) 0.33825(7)
O13 O 0.7005(2) 0.75883(17) 0.25422(8)
H3 H 0.659(4) 0.808(3) 0.2370(14)
H4 H 0.738(4) 0.715(3) 0.2315(14)
O14 O 0.3981(3) 0.61854(16) 0.24866(8)
H5 H 0.480(4) 0.658(3) 0.2559(13)
H6 H 0.336(4) 0.625(3) 0.2743(14)
O15 O 0.0087(3) 0.88828(16) 0.25873(8)
H7 H 0.087(4) 0.855(3) 0.2788(13)
H8 H -0.071(4) 0.844(3) 0.2608(13)
loop_
_geom_bond_atom_site_label_1
_geom_bond_atom_site_label_2
_geom_bond_site_symmetry_1
_geom_bond_site_symmetry_2
Cu1 O1 1_555 1_555
Cu2 O8 1_555 1_555
O1 C16 1_555 1_555
O2 C16 1_555 1_555
O3 Cu1 1_555 1_555
O4 C18 1_555 1_555
O5 H1 1_555 1_555
O6 C25 1_555 1_555
O7 C26 1_555 1_555
O8 C26 1_555 1_555
O9 C42 1_555 1_555
O10 C42 1_555 1_555
O11 H2 1_555 1_555
O12 C48 1_555 1_555
O13 H3 1_555 1_555
H4 O13 1_555 1_555
O14 H5 1_555 1_555
H6 O14 1_555 1_555
O15 H7 1_555 1_555
H8 O15 1_555 1_555
N1 Cu1 1_555 1_555
N2 Cu1 1_555 1_555
N3 Cu1 1_555 1_555
N4 Cu2 1_555 1_555
N5 Cu2 1_555 1_555
N6 Cu2 1_555 1_555
C1 N1 1_555 1_555
H9 C1 1_555 1_555
C2 C1 1_555 1_555
H10 C2 1_555 1_555
C3 C2 1_555 1_555
H11 C3 1_555 1_555
C4 C3 1_555 1_555
H12 C4 1_555 1_555
C5 N1 1_555 1_555
C6 N2 1_555 1_555
C7 C6 1_555 1_555
H13 C7 1_555 1_555
C8 C7 1_555 1_555
H14 C8 1_555 1_555
C9 C8 1_555 1_555
H15 C9 1_555 1_555
C10 N2 1_555 1_555
C11 N3 1_555 1_555
C12 C11 1_555 1_555
H16 C12 1_555 1_555
C13 C12 1_555 1_555
H17 C13 1_555 1_555
C14 C13 1_555 1_555
H18 C14 1_555 1_555
C15 N3 1_555 1_555
H19 C15 1_555 1_555
C16 C17 1_555 1_555
C17 C46 1_555 1_555
C18 O3 1_555 1_555
C19 C18 1_555 1_555
C20 C19 1_555 1_555
H20 C20 1_555 1_555
C21 C20 1_555 1_555
C22 C21 1_555 1_555
H21 C22 1_555 1_555
C23 C22 1_555 1_555
C24 C19 1_555 1_555
H22 C24 1_555 1_555
C25 O5 1_555 1_555
C26 C23 1_555 1_555
C27 N4 1_555 1_555
H23 C27 1_555 1_555
C28 C27 1_555 1_555
H24 C28 1_555 1_555
C29 C28 1_555 1_555
H25 C29 1_555 1_555
C30 C29 1_555 1_555
H26 C30 1_555 1_555
C31 N4 1_555 1_555
C32 N5 1_555 1_555
C33 C32 1_555 1_555
H27 C33 1_555 1_555
C34 C33 1_555 1_555
H28 C34 1_555 1_555
C35 C34 1_555 1_555
H29 C35 1_555 1_555
C36 N5 1_555 1_555
C37 N6 1_555 1_555
C38 C37 1_555 1_555
H30 C38 1_555 1_555
C39 C38 1_555 1_555
H31 C39 1_555 1_555
C40 C39 1_555 1_555
H32 C40 1_555 1_555
C41 N6 1_555 1_555
H33 C41 1_555 1_555
C42 C43 1_555 1_555
C43 C44 1_555 1_555
C44 H34 1_555 1_555
C45 C44 1_555 1_555
C46 C45 1_555 1_555
H35 C46 1_555 1_555
C47 C17 1_555 1_555
H36 C47 1_555 1_555
C48 O11 1_555 1_555
Cu2_2 O9 1_555 1_555
O9_2 Cu2 1_555 1_555
C4 C5 1_555 1_555
C5 C6 1_555 1_555
C9 C10 1_555 1_555
C10 C11 1_555 1_555
C14 C15 1_555 1_555
C21 C25 1_555 1_555
C23 C24 1_555 1_555
C30 C31 1_555 1_555
C31 C32 1_555 1_555
C35 C36 1_555 1_555
C36 C37 1_555 1_555
C40 C41 1_555 1_555
C43 C47 1_555 1_555
C45 C48 1_555 1_555

#END
