
#######################################################################
#
#                 Cambridge Crystallographic Data Centre
#                                CCDC 
#
#######################################################################
#
# If this CIF has been generated from an entry in the Cambridge 
# Structural Database, then it will include bibliographic, chemical, 
# crystal, experimental, refinement or atomic coordinate data resulting 
# from the CCDC's data processing and validation procedures.
#
#######################################################################

data_FERCAH
_symmetry_cell_setting           tetragonal
_symmetry_space_group_name_H-M   'I 41/a'
_symmetry_Int_Tables_number      88
_space_group_name_Hall           '-I 4ad'
loop_
_symmetry_equiv_pos_site_id
_symmetry_equiv_pos_as_xyz
1 x,y,z
2 3/4-y,1/4+x,1/4+z
3 1/2+x,1/2+y,1/2+z
4 1/4-y,3/4+x,3/4+z
5 1/4+y,1/4-x,1/4+z
6 1/2-x,-y,1/2+z
7 3/4+y,3/4-x,3/4+z
8 -x,1/2-y,z
9 -x,-y,-z
10 1/4+y,3/4-x,3/4-z
11 1/2-x,1/2-y,1/2-z
12 3/4+y,1/4-x,1/4-z
13 3/4-y,3/4+x,3/4-z
14 1/2+x,y,1/2-z
15 1/4-y,1/4+x,1/4-z
16 x,1/2+y,-z
_cell_length_a                   15.0031(1)
_cell_length_b                   15.0031(1)
_cell_length_c                   24.7185(4)
_cell_angle_alpha                90
_cell_angle_beta                 90
_cell_angle_gamma                90
_cell_volume                     5563.96
loop_
_atom_site_label
_atom_site_type_symbol
_atom_site_fract_x
_atom_site_fract_y
_atom_site_fract_z
Li1 Li -0.47597(10) 0.33343(10) -0.08624(6)
O1 O -0.59312(4) 0.27688(4) -0.08515(2)
O2 O -0.68026(4) 0.27824(4) -0.21540(2)
C1 C -0.34485(6) 0.18654(6) -0.05387(4)
C2 C -0.31562(7) 0.22750(7) -0.00703(4)
H1 H -0.3397 0.2838 0.0029
C3 C -0.25083(7) 0.18751(9) 0.02636(5)
H2 H -0.2332 0.2166 0.0588
C4 C -0.21317(7) 0.10819(9) 0.01313(5)
H3 H -0.1686 0.0830 0.0357
C5 C -0.24040(7) 0.06294(8) -0.03436(4)
C6 C -0.20448(10) -0.02100(10) -0.04980(6)
H4 H -0.1603 -0.0480 -0.0276
C7 C -0.23156(12) -0.06361(11) -0.09528(6)
H5 H -0.2058 -0.1193 -0.1049
C8 C -0.29736(12) -0.02584(9) -0.12816(5)
H6 H -0.3161 -0.0560 -0.1600
C9 C -0.33485(8) 0.05429(7) -0.11472(4)
H7 H -0.3803 0.0786 -0.1370
C10 C -0.30695(6) 0.10153(7) -0.06814(4)
C11 C -0.66842(7) 0.27427(6) -0.27306(4)
H8 H -0.6054 0.2603 -0.2814
H9 H -0.6826 0.3330 -0.2891
C12 C -0.72800(7) 0.20410(6) -0.29741(4)
H10 H -0.7890 0.3552 -0.2168
H11 H -0.7798 0.2967 -0.1628
Li1L Li -0.58343(10) 0.27403(10) -0.16376(6)
Li1G Li -0.52403(10) 0.16657(10) -0.08624(6)
Li1I Li -0.41657(10) 0.22597(10) -0.16376(6)
Li1F Li -0.91657(10) 0.22597(10) -0.33624(6)
Li1O Li -0.47597(10) -0.16657(10) 0.08624(6)
O1L O -0.52688(4) 0.15688(4) -0.16485(2)
O1G O -0.40688(4) 0.22312(4) -0.08515(2)
O1I O -0.47312(4) 0.34312(4) -0.16485(2)
O2I O -0.47176(4) 0.43026(4) -0.03460(2)
O2J O -0.81974(4) 0.22176(4) -0.28460(2)
O2G O -0.31974(4) 0.22176(4) -0.21540(2)
O2L O -0.52824(4) 0.06974(4) -0.03460(2)
O2D O -0.47176(4) -0.06974(4) 0.03460(2)
C1L C -0.43654(6) 0.40515(6) -0.19613(4)
C1I C -0.56346(6) 0.09485(6) -0.19613(4)
C1G C -0.65515(6) 0.31346(6) -0.05387(4)
C2L C -0.47750(7) 0.43438(7) -0.24297(4)
C2I C -0.52250(7) 0.06562(7) -0.24297(4)
C2G C -0.68438(7) 0.27250(7) -0.00703(4)
H1L H -0.5338 0.4103 -0.2529
H1I H -0.4662 0.0897 -0.2529
H1G H -0.6603 0.2162 0.0029
C3L C -0.43751(9) 0.49917(7) -0.27636(5)
C3I C -0.56249(9) 0.00083(7) -0.27636(5)
C3G C -0.74917(7) 0.31249(9) 0.02636(5)
H2L H -0.4666 0.5168 -0.3088
H2I H -0.5334 -0.0168 -0.3088
H2G H -0.7668 0.2834 0.0588
C4L C -0.35819(9) 0.53683(7) -0.26313(5)
C4I C -0.64181(9) -0.03683(7) -0.26313(5)
C4G C -0.78683(7) 0.39181(9) 0.01313(5)
H3L H -0.3330 0.5814 -0.2857
H3I H -0.6670 -0.0814 -0.2857
H3G H -0.8314 0.4170 0.0357
C5L C -0.31294(8) 0.50960(7) -0.21564(4)
C5I C -0.68706(8) -0.00960(7) -0.21564(4)
C5G C -0.75960(7) 0.43706(8) -0.03436(4)
C6L C -0.22900(10) 0.54552(10) -0.20020(6)
C6I C -0.77100(10) -0.04552(10) -0.20020(6)
C6G C -0.79552(10) 0.52100(10) -0.04980(6)
H4L H -0.2020 0.5897 -0.2224
H4I H -0.7980 -0.0897 -0.2224
H4G H -0.8397 0.5480 -0.0276
C7L C -0.18639(11) 0.51844(12) -0.15472(6)
C7I C -0.81361(11) -0.01844(12) -0.15472(6)
C7G C -0.76844(12) 0.56361(11) -0.09528(6)
H5L H -0.1307 0.5442 -0.1451
H5I H -0.8693 -0.0442 -0.1451
H5G H -0.7942 0.6193 -0.1049
C8L C -0.22416(9) 0.45264(12) -0.12184(5)
C8I C -0.77584(9) 0.04736(12) -0.12184(5)
C8G C -0.70264(12) 0.52584(9) -0.12816(5)
H6L H -0.1940 0.4339 -0.0900
H6I H -0.8060 0.0661 -0.0900
H6G H -0.6839 0.5560 -0.1600
C9L C -0.30429(7) 0.41515(8) -0.13528(4)
C9I C -0.69571(7) 0.08485(8) -0.13528(4)
C9G C -0.66515(8) 0.44571(7) -0.11472(4)
H7L H -0.3286 0.3697 -0.1130
H7I H -0.6714 0.1303 -0.1130
H7G H -0.6197 0.4214 -0.1370
C10L C -0.35153(7) 0.44305(6) -0.18186(4)
C10I C -0.64847(7) 0.05695(6) -0.18186(4)
C10G C -0.69305(6) 0.39847(7) -0.06814(4)
C11J C -0.83158(7) 0.22573(6) -0.22694(4)
C11L C -0.52427(6) 0.08158(7) 0.02306(4)
C11D C -0.47573(6) -0.08158(7) -0.02306(4)
H8J H -0.8946 0.2397 -0.2186
H8L H -0.5103 0.1446 0.0314
H8D H -0.4897 -0.1446 -0.0314
H9J H -0.8174 0.1670 -0.2109
H9L H -0.5830 0.0674 0.0391
H9D H -0.4170 -0.0674 -0.0391
C12J C -0.77200(7) 0.29590(6) -0.20259(4)
C12L C -0.45410(6) 0.02200(7) 0.04741(4)
C12D C -0.54590(6) -0.02200(7) -0.04741(4)
H10J H -0.7110 0.1448 -0.2832
H10L H -0.6052 -0.0390 -0.0332
H10D H -0.3948 0.0390 0.0332
H11J H -0.7202 0.2033 -0.3372
H11L H -0.5467 -0.0298 -0.0872
H11D H -0.4533 0.0298 0.0872
loop_
_geom_bond_atom_site_label_1
_geom_bond_atom_site_label_2
_geom_bond_site_symmetry_1
_geom_bond_site_symmetry_2
Li1 O1 1_555 1_555
O1 Li1L 1_555 1_555
O2 C11 1_555 1_555
C1 C2 1_555 1_555
C2 H1 1_555 1_555
C3 C2 1_555 1_555
H2 C3 1_555 1_555
C4 C3 1_555 1_555
H3 C4 1_555 1_555
C5 C4 1_555 1_555
C6 C5 1_555 1_555
H4 C6 1_555 1_555
C7 C6 1_555 1_555
H5 C7 1_555 1_555
C8 C7 1_555 1_555
H6 C8 1_555 1_555
C9 C8 1_555 1_555
H7 C9 1_555 1_555
C10 C1 1_555 1_555
C11 H8 1_555 1_555
H9 C11 1_555 1_555
C12 C11 1_555 1_555
H10 C12J 1_555 1_555
H11 C12J 1_555 1_555
Li1L O2 1_555 1_555
Li1G O1 1_555 1_555
Li1I O1L 1_555 1_555
Li1F O2J 1_555 1_555
Li1O O2D 1_555 1_555
O1L Li1L 1_555 1_555
O1G Li1 1_555 1_555
O1I Li1 1_555 1_555
O2I Li1 1_555 1_555
O2J C12 1_555 1_555
O2G Li1I 1_555 1_555
O2L Li1G 1_555 1_555
O2D C11D 1_555 1_555
C1L O1I 1_555 1_555
C1I O1L 1_555 1_555
C1G O1 1_555 1_555
C2L C1L 1_555 1_555
C2I C1I 1_555 1_555
C2G C1G 1_555 1_555
H1L C2L 1_555 1_555
H1I C2I 1_555 1_555
H1G C2G 1_555 1_555
C3L C2L 1_555 1_555
C3I C2I 1_555 1_555
C3G C2G 1_555 1_555
H2L C3L 1_555 1_555
H2I C3I 1_555 1_555
H2G C3G 1_555 1_555
C4L C3L 1_555 1_555
C4I C3I 1_555 1_555
C4G C3G 1_555 1_555
H3L C4L 1_555 1_555
H3I C4I 1_555 1_555
H3G C4G 1_555 1_555
C5L C4L 1_555 1_555
C5I C4I 1_555 1_555
C5G C4G 1_555 1_555
C6L C5L 1_555 1_555
C6I C5I 1_555 1_555
C6G C5G 1_555 1_555
H4L C6L 1_555 1_555
H4I C6I 1_555 1_555
H4G C6G 1_555 1_555
C7L C6L 1_555 1_555
C7I C6I 1_555 1_555
C7G C6G 1_555 1_555
H5L C7L 1_555 1_555
H5I C7I 1_555 1_555
H5G C7G 1_555 1_555
C8L C7L 1_555 1_555
C8I C7I 1_555 1_555
C8G C7G 1_555 1_555
H6L C8L 1_555 1_555
H6I C8I 1_555 1_555
H6G C8G 1_555 1_555
C9L C8L 1_555 1_555
C9I C8I 1_555 1_555
C9G C8G 1_555 1_555
H7L C9L 1_555 1_555
H7I C9I 1_555 1_555
H7G C9G 1_555 1_555
C10L C1L 1_555 1_555
C10I C1I 1_555 1_555
C10G C1G 1_555 1_555
C11J O2J 1_555 1_555
C11L O2L 1_555 1_555
C11D H8D 1_555 1_555
H8J C11J 1_555 1_555
H8L C11L 1_555 1_555
H9J C11J 1_555 1_555
H9L C11L 1_555 1_555
H9D C11D 1_555 1_555
C12J O2 1_555 1_555
C12L O2D 1_555 1_555
C12D O2L 1_555 1_555
H10J C12 1_555 1_555
H10L C12D 1_555 1_555
H10D C12L 1_555 1_555
H11J C12 1_555 1_555
H11L C12D 1_555 1_555
H11D C12L 1_555 1_555
C1 O1G 1_555 1_555
C5 C10 1_555 1_555
C9 C10 1_555 1_555
Li1L O1I 1_555 1_555
Li1G O1L 1_555 1_555
Li1G O1G 1_555 1_555
Li1I O1G 1_555 1_555
Li1I O1I 1_555 1_555
C5L C10L 1_555 1_555
C5I C10I 1_555 1_555
C5G C10G 1_555 1_555
C9L C10L 1_555 1_555
C9I C10I 1_555 1_555
C9G C10G 1_555 1_555
C11J C12J 1_555 1_555
C11L C12L 1_555 1_555
C11D C12D 1_555 1_555

#END
