
#######################################################################
#
#                 Cambridge Crystallographic Data Centre
#                                CCDC 
#
#######################################################################
#
# If this CIF has been generated from an entry in the Cambridge 
# Structural Database, then it will include bibliographic, chemical, 
# crystal, experimental, refinement or atomic coordinate data resulting 
# from the CCDC's data processing and validation procedures.
#
#######################################################################

data_FERCIP
_symmetry_cell_setting           triclinic
_symmetry_space_group_name_H-M   'P -1'
_symmetry_Int_Tables_number      2
_space_group_name_Hall           '-P 1'
loop_
_symmetry_equiv_pos_site_id
_symmetry_equiv_pos_as_xyz
1 x,y,z
2 -x,-y,-z
_cell_length_a                   7.722(2)
_cell_length_b                   10.082(3)
_cell_length_c                   12.348(3)
_cell_angle_alpha                101.944(5)
_cell_angle_beta                 104.207(5)
_cell_angle_gamma                95.869(5)
_cell_volume                     899.804
loop_
_atom_site_label
_atom_site_type_symbol
_atom_site_fract_x
_atom_site_fract_y
_atom_site_fract_z
Cu1 Cu 0.05028(6) 0.79649(4) 0.69179(4)
O1 O 0.1793(3) 0.6508(2) 0.6420(2)
O2 O 0.3968(3) 0.8219(2) 0.6529(2)
O3 O 0.6072(3) 0.6402(3) 0.8103(2)
O4 O 0.8654(3) 0.6760(3) 0.7614(2)
N1 N 0.1968(4) 0.8760(3) 0.8574(3)
N2 N -0.0312(4) 0.9744(3) 0.7192(3)
N3 N -0.1076(4) 0.7897(3) 0.5317(3)
C1 C 0.3060(5) 0.8119(4) 0.9214(3)
H1 H 0.3333 0.7264 0.8865
C2 C 0.3820(6) 0.8670(5) 1.0392(4)
H2 H 0.4582 0.8194 1.0849
C3 C 0.3422(7) 0.9960(6) 1.0883(4)
H3 H 0.3940 1.0375 1.1678
C4 C 0.2298(7) 1.0600(5) 1.0213(4)
H4 H 0.1999 1.1455 1.0540
C5 C 0.1588(6) 1.0003(4) 0.9052(4)
C6 C 0.0341(6) 1.0596(4) 0.8231(4)
C7 C -0.0185(7) 1.1914(4) 0.8423(5)
H5 H 0.0249 1.2547 0.9153
C8 C -0.1365(7) 1.2248(5) 0.7499(6)
H6 H -0.1738 1.3123 0.7611
C9 C -0.1986(6) 1.1373(5) 0.6463(5)
H7 H -0.2787 1.1623 0.5849
C10 C -0.1434(5) 1.0081(4) 0.6302(4)
C11 C -0.1937(5) 0.8993(4) 0.5228(4)
C12 C -0.3159(6) 0.9019(5) 0.4179(5)
H8 H -0.3737 0.9796 0.4105
C13 C -0.3491(7) 0.7906(6) 0.3276(4)
H9 H -0.4340 0.7903 0.2573
C14 C -0.2643(6) 0.6798(5) 0.3349(4)
H10 H -0.2874 0.6029 0.2712
C15 C -0.1433(5) 0.6837(4) 0.4389(3)
H11 H -0.0820 0.6074 0.4452
C16 C 0.5951(4) 0.5711(3) 0.6130(3)
C17 C 0.4203(5) 0.5942(3) 0.5646(3)
C18 C 0.3283(4) 0.5230(3) 0.4522(3)
H12 H 0.2101 0.5394 0.4192
C19 C 0.6958(5) 0.6356(3) 0.7381(3)
C20 C 0.3296(4) 0.6990(3) 0.6267(3)
Cu1A Cu 0.94972(6) 0.20351(4) 0.30821(4)
Cu1_2 Cu 1.05028(6) 0.79649(4) 0.69179(4)
Cu1A_2 Cu -0.05028(6) 0.20351(4) 0.30821(4)
O1A O 0.8207(3) 0.3492(2) 0.3580(2)
O2A O 0.6032(3) 0.1781(2) 0.3471(2)
O3A O 0.3928(3) 0.3598(3) 0.1897(2)
O4A O 0.1346(3) 0.3240(3) 0.2386(2)
O4_2 O -0.1346(3) 0.6760(3) 0.7614(2)
O4A_2 O 1.1346(3) 0.3240(3) 0.2386(2)
N1A N 0.8032(4) 0.1240(3) 0.1426(3)
N2A N 1.0312(4) 0.0256(3) 0.2808(3)
N3A N 1.1076(4) 0.2103(3) 0.4683(3)
C1A C 0.6940(5) 0.1881(4) 0.0786(3)
H1A H 0.6667 0.2736 0.1135
C2A C 0.6180(6) 0.1330(5) -0.0392(4)
H2A H 0.5418 0.1806 -0.0849
C3A C 0.6578(7) 0.0040(6) -0.0883(4)
H3A H 0.6060 -0.0375 -0.1678
C4A C 0.7702(7) -0.0600(5) -0.0213(4)
H4A H 0.8001 -0.1455 -0.0540
C5A C 0.8412(6) -0.0003(4) 0.0948(4)
C6A C 0.9659(6) -0.0596(4) 0.1769(4)
C7A C 1.0185(7) -0.1914(4) 0.1577(5)
H5A H 0.9751 -0.2547 0.0847
C8A C 1.1365(7) -0.2248(5) 0.2501(6)
H6A H 1.1738 -0.3123 0.2389
C9A C 1.1986(6) -0.1373(5) 0.3537(5)
H7A H 1.2787 -0.1623 0.4151
C10A C 1.1434(5) -0.0081(4) 0.3698(4)
C11A C 1.1937(5) 0.1007(4) 0.4772(4)
C12A C 1.3159(6) 0.0981(5) 0.5821(5)
H8A H 1.3737 0.0204 0.5895
C13A C 1.3491(7) 0.2094(6) 0.6724(4)
H9A H 1.4340 0.2097 0.7427
C14A C 1.2643(6) 0.3202(5) 0.6651(4)
H10A H 1.2874 0.3971 0.7288
C15A C 1.1433(5) 0.3163(4) 0.5611(3)
H11A H 1.0820 0.3926 0.5548
C16A C 0.4049(4) 0.4289(3) 0.3870(3)
C17A C 0.5797(5) 0.4058(3) 0.4354(3)
C18A C 0.6717(4) 0.4770(3) 0.5478(3)
H12A H 0.7899 0.4606 0.5808
C19A C 0.3042(5) 0.3644(3) 0.2619(3)
C20A C 0.6704(4) 0.3010(3) 0.3733(3)
loop_
_geom_bond_atom_site_label_1
_geom_bond_atom_site_label_2
_geom_bond_site_symmetry_1
_geom_bond_site_symmetry_2
Cu1 O1 1_555 1_555
O1 C20 1_555 1_555
O2 C20 1_555 1_555
O3 C19 1_555 1_555
O4 C19 1_555 1_555
N1 Cu1 1_555 1_555
N2 Cu1 1_555 1_555
N3 Cu1 1_555 1_555
C1 N1 1_555 1_555
H1 C1 1_555 1_555
C2 C1 1_555 1_555
H2 C2 1_555 1_555
C3 C2 1_555 1_555
H3 C3 1_555 1_555
C4 C3 1_555 1_555
H4 C4 1_555 1_555
C5 N1 1_555 1_555
C6 N2 1_555 1_555
C7 C6 1_555 1_555
H5 C7 1_555 1_555
C8 C7 1_555 1_555
H6 C8 1_555 1_555
C9 C8 1_555 1_555
H7 C9 1_555 1_555
C10 N2 1_555 1_555
C11 N3 1_555 1_555
C12 C11 1_555 1_555
H8 C12 1_555 1_555
C13 C12 1_555 1_555
H9 C13 1_555 1_555
C14 C13 1_555 1_555
H10 C14 1_555 1_555
C15 N3 1_555 1_555
H11 C15 1_555 1_555
C16 C17 1_555 1_555
C17 C18 1_555 1_555
C18 H12 1_555 1_555
C19 C16 1_555 1_555
C20 C17 1_555 1_555
Cu1A O1A 1_555 1_555
Cu1_2 O4 1_555 1_555
Cu1A_2 O4A 1_555 1_555
O1A C20A 1_555 1_555
O2A C20A 1_555 1_555
O3A C19A 1_555 1_555
O4A C19A 1_555 1_555
O4_2 Cu1 1_555 1_555
O4A_2 Cu1A 1_555 1_555
N1A Cu1A 1_555 1_555
N2A Cu1A 1_555 1_555
N3A Cu1A 1_555 1_555
C1A N1A 1_555 1_555
H1A C1A 1_555 1_555
C2A C1A 1_555 1_555
H2A C2A 1_555 1_555
C3A C2A 1_555 1_555
H3A C3A 1_555 1_555
C4A C3A 1_555 1_555
H4A C4A 1_555 1_555
C5A N1A 1_555 1_555
C6A N2A 1_555 1_555
C7A C6A 1_555 1_555
H5A C7A 1_555 1_555
C8A C7A 1_555 1_555
H6A C8A 1_555 1_555
C9A C8A 1_555 1_555
H7A C9A 1_555 1_555
C10A N2A 1_555 1_555
C11A N3A 1_555 1_555
C12A C11A 1_555 1_555
H8A C12A 1_555 1_555
C13A C12A 1_555 1_555
H9A C13A 1_555 1_555
C14A C13A 1_555 1_555
H10A C14A 1_555 1_555
C15A N3A 1_555 1_555
H11A C15A 1_555 1_555
C16A C18 1_555 1_555
C17A C16A 1_555 1_555
C18A C16 1_555 1_555
H12A C18A 1_555 1_555
C19A C16A 1_555 1_555
C20A C17A 1_555 1_555
C4 C5 1_555 1_555
C5 C6 1_555 1_555
C9 C10 1_555 1_555
C10 C11 1_555 1_555
C14 C15 1_555 1_555
C4A C5A 1_555 1_555
C5A C6A 1_555 1_555
C9A C10A 1_555 1_555
C10A C11A 1_555 1_555
C14A C15A 1_555 1_555
C17A C18A 1_555 1_555

#END
