
#######################################################################
#
#                 Cambridge Crystallographic Data Centre
#                                CCDC 
#
#######################################################################
#
# If this CIF has been generated from an entry in the Cambridge 
# Structural Database, then it will include bibliographic, chemical, 
# crystal, experimental, refinement or atomic coordinate data resulting 
# from the CCDC's data processing and validation procedures.
#
#######################################################################

data_FERFUD
_symmetry_cell_setting           tetragonal
_symmetry_space_group_name_H-M   'I 41/a'
_symmetry_Int_Tables_number      88
_space_group_name_Hall           'I -4 -1bw'
loop_
_symmetry_equiv_pos_site_id
_symmetry_equiv_pos_as_xyz
1 x,y,z
2 -x,-y,z
3 x,1/2+y,1/4-z
4 -x,1/2-y,1/4-z
5 y,-x,-z
6 -y,x,-z
7 -y,1/2+x,1/4+z
8 y,1/2-x,1/4+z
9 1/2+x,1/2+y,1/2+z
10 1/2-x,1/2-y,1/2+z
11 1/2+x,y,3/4-z
12 1/2-x,-y,3/4-z
13 1/2+y,1/2-x,1/2-z
14 1/2-y,1/2+x,1/2-z
15 1/2-y,x,3/4+z
16 1/2+y,-x,3/4+z
_cell_length_a                   15.278(2)
_cell_length_b                   15.278(2)
_cell_length_c                   15.218(3)
_cell_angle_alpha                90
_cell_angle_beta                 90
_cell_angle_gamma                90
_cell_volume                     3552.14
loop_
_atom_site_label
_atom_site_type_symbol
_atom_site_fract_x
_atom_site_fract_y
_atom_site_fract_z
Pb1 Pb 0.27112(2) 0.30217(2) 0.03571(2)
O1 O 0.1367(4) 0.2523(4) -0.0511(4)
O2 O 0.0138(4) 0.1747(4) -0.0660(4)
O3 O 0.1605(4) 0.3216(4) 0.6224(4)
O4 O 0.0983(4) 0.4554(4) 0.6304(4)
C1 C 0.0791(5) 0.1788(5) 0.0731(5)
N1 N 0.1467(4) 0.2089(4) 0.1165(4)
N2 N 0.1905(5) 0.3451(4) 0.4521(5)
C2 C 0.1469(5) 0.4080(5) 0.4931(5)
C3 C 0.1141(5) 0.4811(5) 0.4500(6)
H1 H 0.0822 0.5259 0.4807
C4 C 0.0130(5) 0.1297(5) 0.1123(6)
H2 H -0.0346 0.1062 0.0785
C5 C 0.0757(5) 0.2026(6) -0.0234(6)
C6 C 0.1337(5) 0.3940(6) 0.5907(6)
O5 O 0.4399(5) 0.3511(5) 0.0500(5)
H3 H 0.4758 0.3347 0.0892
H4 H 0.4510 0.3861 0.0082
O6 O 0.1966(5) 0.4656(4) 0.0062(5)
H5 H 0.1479 0.4751 -0.0192
H6 H 0.2308 0.5045 0.0270
Pb1N Pb 0.19783(2) 0.27112(2) -0.21429(2)
O3G O 0.3216(4) 0.3395(4) -0.1276(4)
O1G O 0.2523(4) 0.3633(4) 0.1989(4)
Pb1G Pb 0.30217(2) 0.22888(2) 0.28571(2)
C5G C 0.2026(6) 0.4243(5) 0.2266(6)
O2G O 0.1747(4) 0.4862(4) 0.1840(4)
C1G C 0.1788(5) 0.4209(5) 0.3231(5)
N1G N 0.2089(4) 0.3533(4) 0.3665(4)
O1I O 0.3633(4) 0.2477(4) 0.4489(4)
Pb1I Pb 0.22888(2) 0.19783(2) 0.53571(2)
O1N O 0.2477(4) 0.1367(4) 0.6989(4)
Pb1N_2 Pb 0.19783(2) 0.27112(2) 0.78571(2)
O3I O 0.3395(4) 0.1784(4) 0.1224(4)
N2I N 0.3095(5) 0.1549(4) -0.0479(5)
O3N O 0.1784(4) 0.1605(4) 0.3724(4)
C6N C 0.1060(6) 0.1337(5) 0.3407(6)
O4N O 0.0446(4) 0.0983(4) 0.3804(4)
C2N C 0.0920(5) 0.1469(5) 0.2431(5)
N2N N 0.1549(4) 0.1905(5) 0.2021(5)
C3N C 0.0189(5) 0.1141(5) 0.2000(6)
O5G O 0.3511(5) 0.0601(5) 0.3000(5)
H3G H 0.3347 0.0242 0.3392
H4G H 0.3861 0.0490 0.2582
O6G O 0.4656(4) 0.3034(5) 0.2562(5)
H5G H 0.4751 0.3521 0.2308
H6G H 0.5045 0.2692 0.2770
C4G C 0.1297(5) 0.4870(5) 0.3623(6)
H2G H 0.1062 0.5346 0.3285
H1N H -0.0259 0.0822 0.2307
loop_
_geom_bond_atom_site_label_1
_geom_bond_atom_site_label_2
_geom_bond_site_symmetry_1
_geom_bond_site_symmetry_2
Pb1 O1 1_555 1_555
O1 C5 1_555 1_555
O2 C5 1_555 1_555
O3 C6 1_555 1_555
O4 C6 1_555 1_555
C1 N1 1_555 1_555
N1 Pb1 1_555 1_555
N2 C2 1_555 1_555
C2 C3 1_555 1_555
C3 H1 1_555 1_555
C4 C1 1_555 1_555
H2 C4 1_555 1_555
C5 C1 1_555 1_555
C6 C2 1_555 1_555
O5 Pb1 1_555 1_555
H3 O5 1_555 1_555
H4 O5 1_555 1_555
O6 Pb1 1_555 1_555
H5 O6 1_555 1_555
H6 O6 1_555 1_555
Pb1N O1 1_555 1_555
O3G Pb1 1_555 1_555
O1G Pb1 1_555 1_555
Pb1G O1G 1_555 1_555
C5G O1G 1_555 1_555
O2G C5G 1_555 1_555
C1G C5G 1_555 1_555
N1G N2 1_555 1_555
O1I Pb1G 1_555 1_555
Pb1I O3 1_555 1_555
O1N Pb1I 1_555 1_555
Pb1N_2 O3 1_555 1_555
O3I Pb1 1_555 1_555
N2I Pb1 1_555 1_555
O3N Pb1G 1_555 1_555
C6N O3N 1_555 1_555
O4N C6N 1_555 1_555
C2N C6N 1_555 1_555
N2N N1 1_555 1_555
C3N C4 1_555 1_555
O5G Pb1G 1_555 1_555
H3G O5G 1_555 1_555
H4G O5G 1_555 1_555
O6G Pb1G 1_555 1_555
H5G O6G 1_555 1_555
H6G O6G 1_555 1_555
C4G C3 1_555 1_555
H2G C4G 1_555 1_555
H1N C3N 1_555 1_555
N2 Pb1I 1_555 1_555
Pb1N O3G 1_555 1_555
Pb1G O3I 1_555 1_555
Pb1G N1G 1_555 1_555
Pb1G N2N 1_555 1_555
C1G N1G 1_555 1_555
C1G C4G 1_555 1_555
O1I Pb1I 1_555 1_555
Pb1I O3N 1_555 1_555
O1N Pb1N_2 1_555 1_555
C2N N2N 1_555 1_555
C2N C3N 1_555 1_555

#END
