
#######################################################################
#
#                 Cambridge Crystallographic Data Centre
#                                CCDC 
#
#######################################################################
#
# If this CIF has been generated from an entry in the Cambridge 
# Structural Database, then it will include bibliographic, chemical, 
# crystal, experimental, refinement or atomic coordinate data resulting 
# from the CCDC's data processing and validation procedures.
#
#######################################################################

data_FERGUG
_symmetry_cell_setting           tetragonal
_symmetry_space_group_name_H-M   'I -4 2 d'
_symmetry_Int_Tables_number      122
_space_group_name_Hall           'I -4 2bw'
loop_
_symmetry_equiv_pos_site_id
_symmetry_equiv_pos_as_xyz
1 x,y,z
2 -x,-y,z
3 y,-x,-z
4 -y,x,-z
5 1/2-x,y,3/4-z
6 1/2+x,-y,3/4-z
7 1/2-y,-x,3/4+z
8 1/2+y,x,3/4+z
9 1/2+x,1/2+y,1/2+z
10 1/2-x,1/2-y,1/2+z
11 1/2+y,1/2-x,1/2-z
12 1/2-y,1/2+x,1/2-z
13 -x,1/2+y,1/4-z
14 x,1/2-y,1/4-z
15 -y,1/2-x,1/4+z
16 y,1/2+x,1/4+z
_cell_length_a                   22.3139(2)
_cell_length_b                   22.3139(2)
_cell_length_c                   43.2016(8)
_cell_angle_alpha                90
_cell_angle_beta                 90
_cell_angle_gamma                90
_cell_volume                     21510.5
loop_
_atom_site_label
_atom_site_type_symbol
_atom_site_fract_x
_atom_site_fract_y
_atom_site_fract_z
Cd1 Cd 0.50000 0.00000 0.75000
O1 O 0.5881(3) -0.0292(4) 0.77351(16)
O2 O 0.5502(4) 0.0512(4) 0.79492(15)
O3 O 0.7599(4) -0.0822(3) 0.84416(18)
C1 C 0.5891(5) 0.0122(6) 0.7938(3)
C2 C 0.6384(5) 0.0109(5) 0.8186(2)
C3 C 0.6753(5) -0.0378(5) 0.8198(2)
H1 H 0.6721 -0.07 0.8055
C4 C 0.7198(5) -0.0372(6) 0.8444(3)
C5 C 0.7265(4) 0.0112(5) 0.86396(18)
C6 C 0.6889(5) 0.0559(5) 0.8614(2)
H2 H 0.6925 0.0888 0.8752
C7 C 0.6443(5) 0.0570(5) 0.8395(2)
H3 H 0.6174 0.0899 0.8388
C8 C 0.7438(7) -0.1365(6) 0.8301(5)
H4 H 0.7775 -0.1645 0.8312
H5 H 0.7333 -0.1293 0.8084
H6 H 0.7092 -0.1537 0.8409
O1D O 0.9119(3) -0.0292(4) 0.97649(16)
O2D O 0.9498(4) 0.0512(4) 0.95508(15)
O3D O 0.7401(4) -0.0822(3) 0.90584(18)
C1D C 0.9109(5) 0.0122(6) 0.9562(3)
C2D C 0.8616(5) 0.0109(5) 0.9314(2)
C3D C 0.8247(5) -0.0378(5) 0.9302(2)
H1D H 0.8279 -0.07 0.9445
C4D C 0.7802(5) -0.0372(6) 0.9056(3)
C5D C 0.7735(4) 0.0112(5) 0.88604(18)
C6D C 0.8111(5) 0.0559(5) 0.8886(2)
H2D H 0.8075 0.0888 0.8748
C7D C 0.8557(5) 0.0570(5) 0.9105(2)
H3D H 0.8826 0.0899 0.9112
C8D C 0.7562(7) -0.1365(6) 0.9199(5)
H4D H 0.7225 -0.1645 0.9188
H5D H 0.7667 -0.1293 0.9416
H6D H 0.7908 -0.1537 0.9091
O1A O 0.4119(3) 0.0292(4) 0.77351(16)
O2A O 0.4498(4) -0.0512(4) 0.79492(15)
O3A O 0.2401(4) 0.0822(3) 0.84416(18)
C1A C 0.4109(5) -0.0122(6) 0.7938(3)
C2A C 0.3616(5) -0.0109(5) 0.8186(2)
C3A C 0.3247(5) 0.0378(5) 0.8198(2)
H1A H 0.3279 0.07 0.8055
C4A C 0.2802(5) 0.0372(6) 0.8444(3)
C5A C 0.2735(4) -0.0112(5) 0.86396(18)
C6A C 0.3111(5) -0.0559(5) 0.8614(2)
H2A H 0.3075 -0.0888 0.8752
C7A C 0.3557(5) -0.0570(5) 0.8395(2)
H3A H 0.3826 -0.0899 0.8388
C8A C 0.2562(7) 0.1365(6) 0.8301(5)
H4A H 0.2225 0.1645 0.8312
H5A H 0.2667 0.1293 0.8084
H6A H 0.2908 0.1537 0.8409
O1E O 0.0881(3) 0.0292(4) 0.97649(16)
O2E O 0.0502(4) -0.0512(4) 0.95508(15)
O3E O 0.2599(4) 0.0822(3) 0.90584(18)
C1E C 0.0891(5) -0.0122(6) 0.9562(3)
C2E C 0.1384(5) -0.0109(5) 0.9314(2)
C3E C 0.1753(5) 0.0378(5) 0.9302(2)
H1E H 0.1721 0.07 0.9445
C4E C 0.2198(5) 0.0372(6) 0.9056(3)
C5E C 0.2265(4) -0.0112(5) 0.88604(18)
C6E C 0.1889(5) -0.0559(5) 0.8886(2)
H2E H 0.1925 -0.0888 0.8748
C7E C 0.1443(5) -0.0570(5) 0.9105(2)
H3E H 0.1174 -0.0899 0.9112
C8E C 0.2438(7) 0.1365(6) 0.9199(5)
H4E H 0.2775 0.1645 0.9188
H5E H 0.2333 0.1293 0.9416
H6E H 0.2092 0.1537 0.9091
Cd1D Cd 0.00000 0.00000 1.00000
Cd1D_2 Cd 1.00000 0.00000 1.00000
O1J O 0.4708(4) -0.0881(3) 0.72649(16)
O1K O 0.5292(4) 0.0881(3) 0.72649(16)
O2J O 0.5512(4) -0.0502(4) 0.70508(15)
O2K O 0.4488(4) 0.0502(4) 0.70508(15)
Cd2 Cd 0.86572(3) 0.86809(3) 0.676095(11)
Cd3 Cd 0.86336(4) 0.75000 0.625
O4 O 0.8249(3) 0.9113(3) 0.72291(14)
O5 O 0.9040(3) 0.9475(3) 0.70275(15)
O6 O 0.9168(3) 1.2819(3) 0.89998(14)
O7 O 0.8208(3) 1.2954(2) 0.89322(13)
O8 O 0.9575(3) 1.1256(3) 0.77114(17)
O9 O 0.7708(3) 1.1601(3) 0.80131(14)
O10 O 0.8835(3) 0.7847(3) 0.70428(13)
O11 O 0.8558(3) 0.7134(2) 0.67116(12)
O12 O 0.9164(3) 0.4147(3) 0.88151(16)
O13 O 0.8214(3) 0.4318(3) 0.88900(12)
O14 O 0.8027(4) 0.5368(4) 0.73557(19)
O15 O 0.7622(4) 0.5692(3) 0.80088(19)
C9 C 0.8667(5) 0.9480(4) 0.7224(2)
C10 C 0.8651(5) 0.9931(4) 0.7475(2)
C11 C 0.9110(5) 1.0342(5) 0.7476(2)
H7 H 0.9422 1.0312 0.7327
C12 C 0.9121(5) 1.0811(5) 0.7697(2)
C13 C 0.8690(4) 1.0848(4) 0.79227(17)
C14 C 0.8248(5) 1.0428(4) 0.7918(2)
H8 H 0.7943 1.0442 0.8071
C15 C 0.8229(4) 0.9973(4) 0.7692(2)
H9 H 0.791 0.9692 0.7695
C16 C 0.8697(4) 1.1326(4) 0.81664(15)
C17 C 0.8186(5) 1.1695(4) 0.8213(2)
C18 C 0.8185(4) 1.2122(4) 0.84436(17)
H10 H 0.7836 1.2356 0.8479
C19 C 0.8700(5) 1.2213(4) 0.86263(17)
C20 C 0.9182(4) 1.1848(4) 0.8583(2)
H11 H 0.9529 1.1899 0.8708
C21 C 0.9172(4) 1.1404(4) 0.8361(2)
H12 H 0.9507 1.1145 0.8342
C22 C 0.8693(5) 1.2694(4) 0.88639(16)
C23 C 1.0084(5) 1.1231(5) 0.7504(3)
H13 H 1.0347 1.1574 0.7543
H14 H 0.9943 1.1244 0.7289
H15 H 1.0306 1.0858 0.7539
C24 C 0.7197(4) 1.1961(4) 0.8046(2)
H16 H 0.6904 1.1854 0.7886
H17 H 0.7309 1.2383 0.8024
H18 H 0.7021 1.1896 0.8251
C25 C 0.8700(4) 0.7316(4) 0.6970(2)
C26 C 0.8697(4) 0.6851(4) 0.72214(17)
C27 C 0.8393(4) 0.6326(4) 0.71771(18)
H19 H 0.8191 0.6257 0.6987
C28 C 0.8376(5) 0.5900(4) 0.7403(2)
C29 C 0.8681(4) 0.5975(4) 0.7672(2)
C30 C 0.9026(6) 0.6473(5) 0.7707(2)
H20 H 0.9281 0.6506 0.7882
C31 C 0.9012(5) 0.6934(5) 0.7490(2)
H21 H 0.9218 0.7299 0.7528
C32 C 0.8664(5) 0.5532(4) 0.79440(19)
C33 C 0.8143(4) 0.5424(4) 0.8112(2)
C34 C 0.8152(4) 0.5039(4) 0.83599(18)
H22 H 0.7791 0.4959 0.847
C35 C 0.8672(4) 0.4771(4) 0.84504(17)
C36 C 0.9188(4) 0.4848(4) 0.8271(2)
H23 H 0.9544 0.4635 0.832
C37 C 0.9177(4) 0.5233(4) 0.8022(2)
H24 H 0.9531 0.5292 0.7903
C38 C 0.8662(5) 0.4381(4) 0.8740(2)
C39 C 0.7679(7) 0.5331(7) 0.7090(3)
H25 H 0.7476 0.4942 0.7084
H26 H 0.7937 0.5372 0.6907
H27 H 0.738 0.5653 0.709
C40 C 0.7049(5) 0.5535(7) 0.8142(4)
H28 H 0.673 0.5754 0.8034
H29 H 0.7046 0.5642 0.8362
H30 H 0.6982 0.5103 0.812
Cd2J Cd 0.36809(3) 0.63428(3) 0.823905(11)
O4J O 0.4113(3) 0.6751(3) 0.77709(14)
O5J O 0.4475(3) 0.5960(3) 0.79725(15)
O6J O 0.7819(3) 0.5832(3) 0.60002(14)
O7J O 0.7954(2) 0.6792(3) 0.60678(13)
O8J O 0.6256(3) 0.5425(3) 0.72886(17)
O9J O 0.6601(3) 0.7292(3) 0.69869(14)
O10J O 0.2847(3) 0.6165(3) 0.79572(13)
O11J O 0.2134(2) 0.6442(3) 0.82884(12)
O12J O -0.0853(3) 0.5836(3) 0.61849(16)
O13J O -0.0682(3) 0.6786(3) 0.61100(12)
O14J O 0.0368(4) 0.6973(4) 0.76443(19)
O15J O 0.0692(3) 0.7378(4) 0.69912(19)
C9J C 0.4480(4) 0.6333(5) 0.7776(2)
C10J C 0.4931(4) 0.6349(5) 0.7525(2)
C11J C 0.5342(5) 0.5890(5) 0.7524(2)
H7J H 0.5312 0.5578 0.7673
C12J C 0.5811(5) 0.5879(5) 0.7303(2)
C13J C 0.5848(4) 0.6310(4) 0.70773(17)
C14J C 0.5428(4) 0.6752(5) 0.7082(2)
H8J H 0.5442 0.7057 0.6929
C15J C 0.4973(4) 0.6771(4) 0.7308(2)
H9J H 0.4692 0.709 0.7305
C16J C 0.6326(4) 0.6303(4) 0.68336(15)
C17J C 0.6695(4) 0.6814(5) 0.6787(2)
C18J C 0.7122(4) 0.6815(4) 0.65564(17)
H10J H 0.7356 0.7164 0.6521
C19J C 0.7213(4) 0.6300(5) 0.63737(17)
C20J C 0.6848(4) 0.5818(4) 0.6417(2)
H11J H 0.6899 0.5471 0.6292
C21J C 0.6404(4) 0.5828(4) 0.6639(2)
H12J H 0.6145 0.5493 0.6658
C22J C 0.7694(4) 0.6307(5) 0.61361(16)
C23J C 0.6231(5) 0.4916(5) 0.7496(3)
H13J H 0.6574 0.4653 0.7457
H14J H 0.6244 0.5057 0.7711
H15J H 0.5858 0.4694 0.7461
C24J C 0.6961(4) 0.7803(4) 0.6954(2)
H16J H 0.6854 0.8096 0.7114
H17J H 0.7383 0.7691 0.6976
H18J H 0.6896 0.7979 0.6749
C25J C 0.2316(4) 0.6300(4) 0.8030(2)
C26J C 0.1851(4) 0.6303(4) 0.77786(17)
C27J C 0.1326(4) 0.6607(4) 0.78229(18)
H19J H 0.1257 0.6809 0.8013
C28J C 0.0900(4) 0.6624(5) 0.7597(2)
C29J C 0.0975(4) 0.6319(4) 0.7328(2)
C30J C 0.1473(5) 0.5974(6) 0.7293(2)
H20J H 0.1506 0.5719 0.7118
C31J C 0.1934(5) 0.5988(5) 0.7510(2)
H21J H 0.2299 0.5782 0.7472
C32J C 0.0532(4) 0.6336(5) 0.70560(19)
C33J C 0.0424(4) 0.6857(4) 0.6888(2)
C34J C 0.0039(4) 0.6848(4) 0.66401(18)
H22J H -0.0041 0.7209 0.653
C35J C -0.0229(4) 0.6328(4) 0.65496(17)
C36J C -0.0152(4) 0.5812(4) 0.6729(2)
H23J H -0.0365 0.5456 0.668
C37J C 0.0233(4) 0.5823(4) 0.6978(2)
H24J H 0.0292 0.5469 0.7097
C38J C -0.0619(4) 0.6338(5) 0.6260(2)
C39J C 0.0331(7) 0.7321(7) 0.7910(3)
H25J H -0.0058 0.7524 0.7916
H26J H 0.0372 0.7063 0.8093
H27J H 0.0653 0.762 0.791
C40J C 0.0535(7) 0.7951(5) 0.6858(4)
H28J H 0.0754 0.827 0.6966
H29J H 0.0642 0.7954 0.6638
H30J H 0.0103 0.8018 0.688
Cd2M Cd -0.13428(3) 0.63191(3) 0.573905(11)
Cd2M_2 Cd 0.86572(3) 0.63191(3) 0.573905(11)
Cd2O Cd 0.86809(3) 0.36572(3) 0.926095(11)
Cd2O_2 Cd 0.86809(3) 1.36572(3) 0.926095(11)
Cd3_2 Cd -0.13664(4) 0.75000 0.625
Cd3J Cd 0.25000 0.63664(4) 0.875
Cd3K Cd 0.75000 0.36336(4) 0.875
Cd3K_2 Cd 0.75000 1.36336(4) 0.875
O6E O 0.4168(3) 0.7181(3) 0.85002(14)
O6G O 0.7819(3) 0.9168(3) 0.64998(14)
O7E O 0.3208(3) 0.7046(2) 0.85678(13)
O7G O 0.7954(2) 0.8208(3) 0.64322(13)
O11M O 0.8558(3) 0.7866(2) 0.57884(12)
O12E O 0.4164(3) 0.5853(3) 0.86849(16)
O12G O 0.9147(3) 0.9164(3) 0.63151(16)
O13E O 0.3214(3) 0.5682(3) 0.86100(12)
O13G O 0.9318(3) 0.8214(3) 0.63900(12)
O13J_2 O 0.9318(3) 0.6786(3) 0.61100(12)
Cl1 Cl 0.8289(11) 0.8134(10) 0.7685(6)
O16 O 0.0981(10) 0.3029(9) 0.9408(5)
N1 N 0.2049(10) 0.2915(7) 0.9469(6)
C41 C 0.2111(12) 0.2899(13) 0.9799(5)
H31 H 0.2534 0.2848 0.9853
H32 H 0.1879 0.2563 0.9882
H33 H 0.1962 0.3275 0.9887
C42 C 0.2664(11) 0.2858(12) 0.9318(6)
H34 H 0.2971 0.2827 0.948
H35 H 0.2742 0.3213 0.9191
H36 H 0.2674 0.2499 0.9188
C43 C 0.1515(11) 0.2969(8) 0.9285(6)
H37 H 0.1551 0.296 0.9066
O17 O 0.4368(6) 0.1470(8) 0.8482(4)
N2 N 0.4223(6) 0.1006(8) 0.8916(4)
C44 C 0.4091(13) 0.1610(9) 0.9047(5)
H38 H 0.3989 0.1571 0.9266
H39 H 0.3752 0.1788 0.8935
H40 H 0.4443 0.1868 0.9024
C45 C 0.4172(9) 0.0506(8) 0.9139(4)
H41 H 0.4056 0.0664 0.9342
H42 H 0.456 0.0302 0.9157
H43 H 0.3868 0.0222 0.9067
C46 C 0.4392(8) 0.0942(10) 0.8616(4)
H44 H 0.4507 0.0578 0.8519
N3 N 0.4772(6) 0.1583(6) 0.7860(3)
H45 H 0.4627 0.152 0.8057
H46 H 0.4895 0.1219 0.7783
C47 C 0.5269(7) 0.1968(9) 0.7877(5)
H47 H 0.5586 0.178 0.8
H48 H 0.5149 0.2346 0.7974
H49 H 0.5418 0.2049 0.7667
C48 C 0.4266(6) 0.1823(6) 0.7657(3)
H50 H 0.3914 0.1563 0.7677
H51 H 0.4397 0.1831 0.7441
H52 H 0.4162 0.223 0.7724
N4 N 0.0374(7) 0.3627(7) 0.8957(4)
H53 H 0.053 0.3394 0.9113
H54 H -0.0037 0.3602 0.8969
C49 C 0.0555(9) 0.4266(8) 0.9013(4)
H55 H 0.0452 0.438 0.9226
H56 H 0.0343 0.4528 0.8868
H57 H 0.0988 0.4307 0.8982
C50 C 0.0567(12) 0.3375(9) 0.8656(5)
H58 H 0.0426 0.296 0.8639
H59 H 0.1006 0.3383 0.8644
H60 H 0.0398 0.3614 0.8487
loop_
_geom_bond_atom_site_label_1
_geom_bond_atom_site_label_2
_geom_bond_site_symmetry_1
_geom_bond_site_symmetry_2
Cd1 O1 1_555 1_555
O1 C1 1_555 1_555
O2 Cd1 1_555 1_555
O3 C4 1_555 1_555
C1 O2 1_555 1_555
C2 C1 1_555 1_555
C3 C2 1_555 1_555
H1 C3 1_555 1_555
C4 C3 1_555 1_555
C5 C4 1_555 1_555
C6 C5 1_555 1_555
H2 C6 1_555 1_555
C7 C2 1_555 1_555
H3 C7 1_555 1_555
C8 O3 1_555 1_555
H4 C8 1_555 1_555
H5 C8 1_555 1_555
H6 C8 1_555 1_555
Cd2 O4 1_555 1_555
Cd3 O11 1_555 1_555
O4 C9 1_555 1_555
O5 Cd2 1_555 1_555
O6 C22 1_555 1_555
O7 C22 1_555 1_555
O8 C12 1_555 1_555
O9 C17 1_555 1_555
O10 Cd2 1_555 1_555
O11 C25 1_555 1_555
O12 C38 1_555 1_555
O13 C38 1_555 1_555
O14 C28 1_555 1_555
O15 C33 1_555 1_555
C9 O5 1_555 1_555
C10 C9 1_555 1_555
C11 C10 1_555 1_555
H7 C11 1_555 1_555
C12 C11 1_555 1_555
C13 C12 1_555 1_555
C14 C13 1_555 1_555
H8 C14 1_555 1_555
C15 C10 1_555 1_555
H9 C15 1_555 1_555
C16 C13 1_555 1_555
C17 C16 1_555 1_555
C18 C17 1_555 1_555
H10 C18 1_555 1_555
C19 C18 1_555 1_555
C20 C19 1_555 1_555
H11 C20 1_555 1_555
C21 C16 1_555 1_555
H12 C21 1_555 1_555
C22 C19 1_555 1_555
C23 O8 1_555 1_555
H13 C23 1_555 1_555
H14 C23 1_555 1_555
H15 C23 1_555 1_555
C24 O9 1_555 1_555
H16 C24 1_555 1_555
H17 C24 1_555 1_555
H18 C24 1_555 1_555
C25 O10 1_555 1_555
C26 C25 1_555 1_555
C27 C26 1_555 1_555
H19 C27 1_555 1_555
C28 C27 1_555 1_555
C29 C28 1_555 1_555
C30 C29 1_555 1_555
H20 C30 1_555 1_555
C31 C26 1_555 1_555
H21 C31 1_555 1_555
C32 C29 1_555 1_555
C33 C32 1_555 1_555
C34 C33 1_555 1_555
H22 C34 1_555 1_555
C35 C34 1_555 1_555
C36 C35 1_555 1_555
H23 C36 1_555 1_555
C37 C32 1_555 1_555
H24 C37 1_555 1_555
C38 C35 1_555 1_555
C39 O14 1_555 1_555
H25 C39 1_555 1_555
H26 C39 1_555 1_555
H27 C39 1_555 1_555
C40 O15 1_555 1_555
H28 C40 1_555 1_555
H29 C40 1_555 1_555
H30 C40 1_555 1_555
O16 C43 1_555 1_555
N1 C41 1_555 1_555
C41 H31 1_555 1_555
H32 C41 1_555 1_555
H33 C41 1_555 1_555
C42 N1 1_555 1_555
H34 C42 1_555 1_555
H35 C42 1_555 1_555
H36 C42 1_555 1_555
C43 N1 1_555 1_555
H37 C43 1_555 1_555
O17 C46 1_555 1_555
N2 C44 1_555 1_555
C44 H38 1_555 1_555
H39 C44 1_555 1_555
H40 C44 1_555 1_555
C45 N2 1_555 1_555
H41 C45 1_555 1_555
H42 C45 1_555 1_555
H43 C45 1_555 1_555
C46 N2 1_555 1_555
H44 C46 1_555 1_555
N3 H45 1_555 1_555
H46 N3 1_555 1_555
C47 N3 1_555 1_555
H47 C47 1_555 1_555
H48 C47 1_555 1_555
H49 C47 1_555 1_555
C48 N3 1_555 1_555
H50 C48 1_555 1_555
H51 C48 1_555 1_555
H52 C48 1_555 1_555
N4 H53 1_555 1_555
H54 N4 1_555 1_555
C49 N4 1_555 1_555
H55 C49 1_555 1_555
H56 C49 1_555 1_555
H57 C49 1_555 1_555
C50 N4 1_555 1_555
H58 C50 1_555 1_555
H59 C50 1_555 1_555
H60 C50 1_555 1_555
O1D C1D 1_555 1_555
O2D C1D 1_555 1_555
O3D C4D 1_555 1_555
C1D C2D 1_555 1_555
C2D C3D 1_555 1_555
C3D H1D 1_555 1_555
C4D C3D 1_555 1_555
C5D C5 1_555 1_555
C6D C5D 1_555 1_555
H2D C6D 1_555 1_555
C7D C2D 1_555 1_555
H3D C7D 1_555 1_555
C8D O3D 1_555 1_555
H4D C8D 1_555 1_555
H5D C8D 1_555 1_555
H6D C8D 1_555 1_555
O1A Cd1 1_555 1_555
O2A Cd1 1_555 1_555
O3A C4A 1_555 1_555
C1A O1A 1_555 1_555
C2A C1A 1_555 1_555
C3A C2A 1_555 1_555
H1A C3A 1_555 1_555
C4A C3A 1_555 1_555
C5A C4A 1_555 1_555
C6A C5A 1_555 1_555
H2A C6A 1_555 1_555
C7A C2A 1_555 1_555
H3A C7A 1_555 1_555
C8A O3A 1_555 1_555
H4A C8A 1_555 1_555
H5A C8A 1_555 1_555
H6A C8A 1_555 1_555
O1E C1E 1_555 1_555
O2E C1E 1_555 1_555
O3E C4E 1_555 1_555
C1E C2E 1_555 1_555
C2E C3E 1_555 1_555
C3E H1E 1_555 1_555
C4E C3E 1_555 1_555
C5E C5A 1_555 1_555
C6E C5E 1_555 1_555
H2E C6E 1_555 1_555
C7E C2E 1_555 1_555
H3E C7E 1_555 1_555
C8E O3E 1_555 1_555
H4E C8E 1_555 1_555
H5E C8E 1_555 1_555
H6E C8E 1_555 1_555
Cd1D O1E 1_555 1_555
Cd1D_2 O1D 1_555 1_555
O1J Cd1 1_555 1_555
O1K Cd1 1_555 1_555
O2J Cd1 1_555 1_555
O2K Cd1 1_555 1_555
Cd2J O4J 1_555 1_555
O4J C9J 1_555 1_555
O5J Cd2J 1_555 1_555
O6J C22J 1_555 1_555
O7J Cd3 1_555 1_555
O8J C12J 1_555 1_555
O9J C17J 1_555 1_555
O10J Cd2J 1_555 1_555
O11J C25J 1_555 1_555
O12J C38J 1_555 1_555
O13J C38J 1_555 1_555
O14J C28J 1_555 1_555
O15J C33J 1_555 1_555
C9J O5J 1_555 1_555
C10J C9J 1_555 1_555
C11J C10J 1_555 1_555
H7J C11J 1_555 1_555
C12J C11J 1_555 1_555
C13J C12J 1_555 1_555
C14J C13J 1_555 1_555
H8J C14J 1_555 1_555
C15J C10J 1_555 1_555
H9J C15J 1_555 1_555
C16J C13J 1_555 1_555
C17J C16J 1_555 1_555
C18J C17J 1_555 1_555
H10J C18J 1_555 1_555
C19J C18J 1_555 1_555
C20J C19J 1_555 1_555
H11J C20J 1_555 1_555
C21J C16J 1_555 1_555
H12J C21J 1_555 1_555
C22J O7J 1_555 1_555
C23J O8J 1_555 1_555
H13J C23J 1_555 1_555
H14J C23J 1_555 1_555
H15J C23J 1_555 1_555
C24J O9J 1_555 1_555
H16J C24J 1_555 1_555
H17J C24J 1_555 1_555
H18J C24J 1_555 1_555
C25J O10J 1_555 1_555
C26J C25J 1_555 1_555
C27J C26J 1_555 1_555
H19J C27J 1_555 1_555
C28J C27J 1_555 1_555
C29J C28J 1_555 1_555
C30J C29J 1_555 1_555
H20J C30J 1_555 1_555
C31J C26J 1_555 1_555
H21J C31J 1_555 1_555
C32J C29J 1_555 1_555
C33J C32J 1_555 1_555
C34J C33J 1_555 1_555
H22J C34J 1_555 1_555
C35J C34J 1_555 1_555
C36J C35J 1_555 1_555
H23J C36J 1_555 1_555
C37J C32J 1_555 1_555
H24J C37J 1_555 1_555
C38J C35J 1_555 1_555
C39J O14J 1_555 1_555
H25J C39J 1_555 1_555
H26J C39J 1_555 1_555
H27J C39J 1_555 1_555
C40J O15J 1_555 1_555
H28J C40J 1_555 1_555
H29J C40J 1_555 1_555
H30J C40J 1_555 1_555
Cd2M O12J 1_555 1_555
Cd2M_2 O6J 1_555 1_555
Cd2O O12 1_555 1_555
Cd2O_2 O6 1_555 1_555
Cd3_2 O13J 1_555 1_555
Cd3J O11J 1_555 1_555
Cd3K O13 1_555 1_555
Cd3K_2 O7 1_555 1_555
O6E Cd2J 1_555 1_555
O6G Cd2 1_555 1_555
O7E Cd2J 1_555 1_555
O7G Cd2 1_555 1_555
O11M Cd3 1_555 1_555
O12E Cd2J 1_555 1_555
O12G Cd2 1_555 1_555
O13E Cd2J 1_555 1_555
O13G Cd2 1_555 1_555
O13J_2 Cd3 1_555 1_555
C6 C7 1_555 1_555
Cd3 O7G 1_555 1_555
Cd3 O13G 1_555 1_555
O7 Cd2O_2 1_555 1_555
O13 Cd2O 1_555 1_555
C14 C15 1_555 1_555
C20 C21 1_555 1_555
C30 C31 1_555 1_555
C36 C37 1_555 1_555
O2D Cd1D_2 1_555 1_555
C4D C5D 1_555 1_555
C6D C7D 1_555 1_555
O2A C1A 1_555 1_555
C6A C7A 1_555 1_555
O2E Cd1D 1_555 1_555
C4E C5E 1_555 1_555
C6E C7E 1_555 1_555
O7J Cd2M_2 1_555 1_555
O13J Cd2M 1_555 1_555
C14J C15J 1_555 1_555
C19J C22J 1_555 1_555
C20J C21J 1_555 1_555
C30J C31J 1_555 1_555
C36J C37J 1_555 1_555
Cd2M_2 O13J_2 1_555 1_555
Cd3J O7E 1_555 1_555
Cd3J O13E 1_555 1_555

#END
