
#######################################################################
#
#                 Cambridge Crystallographic Data Centre
#                                CCDC 
#
#######################################################################
#
# If this CIF has been generated from an entry in the Cambridge 
# Structural Database, then it will include bibliographic, chemical, 
# crystal, experimental, refinement or atomic coordinate data resulting 
# from the CCDC's data processing and validation procedures.
#
#######################################################################

data_FERMIZ
_symmetry_cell_setting           triclinic
_symmetry_space_group_name_H-M   'P -1'
_symmetry_Int_Tables_number      2
_space_group_name_Hall           '-P 1'
loop_
_symmetry_equiv_pos_site_id
_symmetry_equiv_pos_as_xyz
1 x,y,z
2 -x,-y,-z
_cell_length_a                   9.272
_cell_length_b                   10.243
_cell_length_c                   12.570
_cell_angle_alpha                83.373(7)
_cell_angle_beta                 77.797(7)
_cell_angle_gamma                78.706(7)
_cell_volume                     1140.83
loop_
_atom_site_label
_atom_site_type_symbol
_atom_site_fract_x
_atom_site_fract_y
_atom_site_fract_z
Mn1 Mn 0.37032(4) 1.37788(3) 0.46487(3)
N1 N 0.2168(3) 1.3804(2) 0.63238(18)
N2 N -0.4676(3) 1.3958(2) 1.30277(18)
O1 O 0.2050(3) 1.2872(2) 0.3697(2)
O2 O 0.3674(2) 1.1651(2) 0.45932(17)
O3 O 0.4458(2) 0.6680(2) 0.45477(17)
O4 O 0.2584(2) 0.57594(18) 0.43178(16)
C1 C 0.2069(3) 1.0520(3) 0.3929(2)
C2 C 0.2884(3) 0.9263(3) 0.4145(2)
H5 H 0.3817 0.9184 0.4332
C3 C 0.2312(3) 0.8117(2) 0.40821(19)
C4 C 0.0919(3) 0.8247(3) 0.3802(2)
H6 H 0.0527 0.7487 0.3767
C5 C 0.0107(3) 0.9498(3) 0.3574(2)
H7 H -0.0823 0.9576 0.3381
C6 C 0.0685(3) 1.0633(3) 0.3633(2)
H8 H 0.0145 1.1472 0.3474
C7 C 0.2627(3) 1.1765(3) 0.4073(2)
C8 C 0.3183(3) 0.6755(2) 0.43366(19)
C9 C 0.2585(3) 1.2973(3) 0.7154(2)
H9 H 0.3508 1.2406 0.7024
C10 C 0.1721(4) 1.2914(3) 0.8188(2)
H10 H 0.2070 1.2324 0.8736
C11 C 0.0328(3) 1.3734(3) 0.8414(2)
C12 C -0.0116(3) 1.4581(3) 0.7556(2)
H11 H -0.1045 1.5141 0.7662
C13 C 0.0819(3) 1.4594(3) 0.6541(2)
H12 H 0.0497 1.5178 0.5981
C14 C -0.0565(4) 1.3645(3) 0.9523(2)
H13 H -0.0156 1.3026 1.0029
C15 C -0.1898(4) 1.4364(3) 0.9871(2)
H14 H -0.2301 1.5004 0.9376
C16 C -0.2792(3) 1.4232(3) 1.0978(2)
C17 C -0.4245(4) 1.4940(3) 1.1194(2)
H15 H -0.4615 1.5531 1.0655
C18 C -0.5141(4) 1.4772(3) 1.2205(2)
H16 H -0.6117 1.5246 1.2323
C19 C -0.3260(3) 1.3308(3) 1.2827(2)
H17 H -0.2906 1.2750 1.3389
C20 C -0.2294(3) 1.3415(3) 1.1840(2)
H18 H -0.1316 1.2946 1.1749
Mn1_2 Mn 1.37032(4) 1.37788(3) -0.53513(3)
Mn1_3 Mn -0.62968(4) 1.37788(3) 1.46487(3)
Mn1A Mn 0.62968(4) 0.62212(3) 0.53513(3)
Mn1_4 Mn 0.37032(4) 0.37788(3) 0.46487(3)
Mn1A_2 Mn 0.62968(4) 1.62212(3) 0.53513(3)
N1_2 N 1.2168(3) 1.3804(2) -0.36762(18)
N2_2 N 0.5324(3) 1.3958(2) 0.30277(18)
N2_3 N 1.5324(3) 1.3958(2) -0.69723(18)
O1A O 0.7950(3) 0.7128(2) 0.6303(2)
O1_2 O 1.2050(3) 1.2872(2) -0.6303(2)
O2A O 0.6326(2) 0.8349(2) 0.54068(17)
O2_2 O 1.3674(2) 1.1651(2) -0.54068(17)
O3A O 0.5542(2) 1.3320(2) 0.54523(17)
O3A_2 O 1.5542(2) 1.3320(2) -0.45477(17)
O4A O 0.7416(2) 1.42406(18) 0.56822(16)
O4_2 O 0.2584(2) 1.57594(18) 0.43178(16)
O4_3 O 1.2584(2) 1.57594(18) -0.56822(16)
C1A C 0.7931(3) 0.9480(3) 0.6071(2)
C2A C 0.7116(3) 1.0737(3) 0.5855(2)
H5A H 0.6183 1.0816 0.5668
C3A C 0.7688(3) 1.1883(2) 0.59179(19)
C4A C 0.9081(3) 1.1753(3) 0.6198(2)
H6A H 0.9473 1.2513 0.6233
C5A C 0.9893(3) 1.0502(3) 0.6426(2)
H7A H 1.0823 1.0424 0.6619
C6A C 0.9315(3) 0.9367(3) 0.6367(2)
H8A H 0.9855 0.8528 0.6526
C7A C 0.7373(3) 0.8235(3) 0.5927(2)
C8A C 0.6817(3) 1.3245(2) 0.56634(19)
C9_2 C 1.2585(3) 1.2973(3) -0.2846(2)
H9_2 H 1.3508 1.2406 -0.2976
C10_2 C 1.1721(4) 1.2914(3) -0.1812(2)
H10_2 H 1.2070 1.2324 -0.1264
C11_2 C 1.0328(3) 1.3734(3) -0.1586(2)
C12_2 C 0.9884(3) 1.4581(3) -0.2444(2)
H11_2 H 0.8955 1.5141 -0.2338
C13_2 C 1.0819(3) 1.4594(3) -0.3459(2)
H12_2 H 1.0497 1.5178 -0.4019
C14_2 C 0.9435(4) 1.3645(3) -0.0477(2)
H13_2 H 0.9844 1.3026 0.0029
C15_2 C 0.8102(4) 1.4364(3) -0.0129(2)
H14_2 H 0.7699 1.5004 -0.0624
C16_2 C 0.7208(3) 1.4232(3) 0.0978(2)
C17_2 C 0.5755(4) 1.4940(3) 0.1194(2)
H15_2 H 0.5385 1.5531 0.0655
C18_2 C 0.4859(4) 1.4772(3) 0.2205(2)
H16_2 H 0.3883 1.5246 0.2323
C19_2 C 0.6740(3) 1.3308(3) 0.2827(2)
H17_2 H 0.7094 1.2750 0.3389
C20_2 C 0.7706(3) 1.3415(3) 0.1840(2)
H18_2 H 0.8684 1.2946 0.1749
N3 N 0.5160(3) 0.8322(3) 0.9713(3)
C21 C 0.4434(4) 0.8777(4) 0.8899(3)
H19 H 0.4979 0.8738 0.8188
C22 C 0.2921(4) 0.9304(4) 0.9046(3)
H20 H 0.2474 0.9611 0.8446
C23 C 0.2074(4) 0.9372(3) 1.0096(3)
C24 C 0.2845(4) 0.8925(4) 1.0934(3)
H21 H 0.2340 0.8974 1.1655
C25 C 0.4348(4) 0.8410(4) 1.0713(3)
H22 H 0.4824 0.8105 1.1299
C26 C 0.0454(4) 0.9879(4) 1.0350(3)
H23 H 0.0033 1.0044 1.1073
N3A N -0.5160(3) 1.1678(3) 1.0287(3)
C21A C -0.4434(4) 1.1223(4) 1.1101(3)
H19A H -0.4979 1.1262 1.1812
C22A C -0.2921(4) 1.0696(4) 1.0954(3)
H20A H -0.2474 1.0389 1.1554
C23A C -0.2074(4) 1.0628(3) 0.9904(3)
C24A C -0.2845(4) 1.1075(4) 0.9066(3)
H21A H -0.2340 1.1026 0.8345
C25A C -0.4348(4) 1.1590(4) 0.9287(3)
H22A H -0.4824 1.1895 0.8701
C26A C -0.0454(4) 1.0121(4) 0.9650(3)
H23A H -0.0033 0.9956 0.8927
O5 O 0.8267(3) 0.7538(3) -0.1331(3)
H1 H 0.737(3) 0.783(4) -0.101(3)
H2 H 0.831(7) 0.767(6) -0.2025(18)
O6 O 0.3598(5) 0.9901(5) 0.6470(4)
H3 H 0.300(3) 0.952(3) 0.696(3)
H4 H 0.445(3) 0.938(3) 0.630(3)
loop_
_geom_bond_atom_site_label_1
_geom_bond_atom_site_label_2
_geom_bond_site_symmetry_1
_geom_bond_site_symmetry_2
Mn1 N1 1_555 1_555
N1 C9 1_555 1_555
N2 C18 1_555 1_555
N3 C21 1_555 1_555
O1 Mn1 1_555 1_555
O2 Mn1 1_555 1_555
O3 C8 1_555 1_555
O4 C8 1_555 1_555
O5 H1 1_555 1_555
H2 O5 1_555 1_555
O6 H3 1_555 1_555
H4 O6 1_555 1_555
C1 C2 1_555 1_555
C2 H5 1_555 1_555
C3 C2 1_555 1_555
C4 C3 1_555 1_555
H6 C4 1_555 1_555
C5 C4 1_555 1_555
H7 C5 1_555 1_555
C6 C1 1_555 1_555
H8 C6 1_555 1_555
C7 O1 1_555 1_555
C8 C3 1_555 1_555
C9 H9 1_555 1_555
C10 C9 1_555 1_555
H10 C10 1_555 1_555
C11 C10 1_555 1_555
C12 C11 1_555 1_555
H11 C12 1_555 1_555
C13 N1 1_555 1_555
H12 C13 1_555 1_555
C14 C11 1_555 1_555
H13 C14 1_555 1_555
C15 C14 1_555 1_555
H14 C15 1_555 1_555
C16 C15 1_555 1_555
C17 C16 1_555 1_555
H15 C17 1_555 1_555
C18 C17 1_555 1_555
H16 C18 1_555 1_555
C19 N2 1_555 1_555
H17 C19 1_555 1_555
C20 C16 1_555 1_555
H18 C20 1_555 1_555
C21 H19 1_555 1_555
C22 C21 1_555 1_555
H20 C22 1_555 1_555
C23 C22 1_555 1_555
C24 C23 1_555 1_555
H21 C24 1_555 1_555
C25 N3 1_555 1_555
H22 C25 1_555 1_555
C26 C23 1_555 1_555
H23 C26 1_555 1_555
Mn1_2 N1_2 1_555 1_555
Mn1_3 N2 1_555 1_555
Mn1A O3 1_555 1_555
Mn1_4 O4 1_555 1_555
Mn1A_2 O4A 1_555 1_555
N1_2 C9_2 1_555 1_555
N2_2 Mn1 1_555 1_555
N2_3 Mn1_2 1_555 1_555
N3A C21A 1_555 1_555
O1A Mn1A 1_555 1_555
O1_2 Mn1_2 1_555 1_555
O2A Mn1A 1_555 1_555
O2_2 Mn1_2 1_555 1_555
O3A Mn1 1_555 1_555
O3A_2 Mn1_2 1_555 1_555
O4A C8A 1_555 1_555
O4_2 Mn1 1_555 1_555
O4_3 Mn1_2 1_555 1_555
C1A C2A 1_555 1_555
C2A H5A 1_555 1_555
C3A C2A 1_555 1_555
C4A C3A 1_555 1_555
H6A C4A 1_555 1_555
C5A C4A 1_555 1_555
H7A C5A 1_555 1_555
C6A C1A 1_555 1_555
H8A C6A 1_555 1_555
C7A O1A 1_555 1_555
C8A O3A 1_555 1_555
C9_2 H9_2 1_555 1_555
C10_2 C9_2 1_555 1_555
H10_2 C10_2 1_555 1_555
C11_2 C10_2 1_555 1_555
C12_2 C11_2 1_555 1_555
H11_2 C12_2 1_555 1_555
C13_2 N1_2 1_555 1_555
H12_2 C13_2 1_555 1_555
C14_2 C11_2 1_555 1_555
H13_2 C14_2 1_555 1_555
C15_2 C14_2 1_555 1_555
H14_2 C15_2 1_555 1_555
C16_2 C15_2 1_555 1_555
C17_2 C16_2 1_555 1_555
H15_2 C17_2 1_555 1_555
C18_2 N2_2 1_555 1_555
H16_2 C18_2 1_555 1_555
C19_2 N2_2 1_555 1_555
H17_2 C19_2 1_555 1_555
C20_2 C16_2 1_555 1_555
H18_2 C20_2 1_555 1_555
C21A H19A 1_555 1_555
C22A C21A 1_555 1_555
H20A C22A 1_555 1_555
C23A C22A 1_555 1_555
C24A C23A 1_555 1_555
H21A C24A 1_555 1_555
C25A N3A 1_555 1_555
H22A C25A 1_555 1_555
C26A C26 1_555 1_555
H23A C26A 1_555 1_555
O2 C7 1_555 1_555
C1 C7 1_555 1_555
C5 C6 1_555 1_555
C12 C13 1_555 1_555
C19 C20 1_555 1_555
C24 C25 1_555 1_555
O2A C7A 1_555 1_555
C1A C7A 1_555 1_555
C3A C8A 1_555 1_555
C5A C6A 1_555 1_555
C12_2 C13_2 1_555 1_555
C17_2 C18_2 1_555 1_555
C19_2 C20_2 1_555 1_555
C23A C26A 1_555 1_555
C24A C25A 1_555 1_555

#END
