
#######################################################################
#
#                 Cambridge Crystallographic Data Centre
#                                CCDC 
#
#######################################################################
#
# If this CIF has been generated from an entry in the Cambridge 
# Structural Database, then it will include bibliographic, chemical, 
# crystal, experimental, refinement or atomic coordinate data resulting 
# from the CCDC's data processing and validation procedures.
#
#######################################################################

data_FERNIB
_symmetry_cell_setting           monoclinic
_symmetry_space_group_name_H-M   'P 21'
_symmetry_Int_Tables_number      4
_space_group_name_Hall           'P 2yb'
loop_
_symmetry_equiv_pos_site_id
_symmetry_equiv_pos_as_xyz
1 x,y,z
2 -x,1/2+y,-z
_cell_length_a                   6.3364(7)
_cell_length_b                   9.8456(9)
_cell_length_c                   16.314(2)
_cell_angle_alpha                90
_cell_angle_beta                 96.190(10)
_cell_angle_gamma                90
_cell_volume                     1011.83
loop_
_atom_site_label
_atom_site_type_symbol
_atom_site_fract_x
_atom_site_fract_y
_atom_site_fract_z
Cu1 Cu 1.29394(12) 0.30702(9) 0.40147(5)
Cl1 Cl 1.5807(2) 0.3044(3) 0.49635(12)
Cl2 Cl 1.4427(3) 0.1699(2) 0.31236(14)
N1 N 0.9033(10) 0.6456(7) 0.5387(5)
N2 N 1.1451(10) 0.4550(7) 0.4648(4)
N3 N 1.0555(10) 0.3630(7) 0.3144(4)
C1 C 1.2043(14) 0.5002(9) 0.5414(7)
H1 H 1.3291 0.4688 0.5705
C2 C 1.0794(14) 0.5935(10) 0.5770(7)
H2 H 1.1214 0.6211 0.6308
C3 C 0.8464(13) 0.5986(10) 0.4611(6)
H3 H 0.7215 0.6305 0.4324
C4 C 0.9656(13) 0.5063(9) 0.4236(6)
C5 C 0.9112(12) 0.4553(8) 0.3389(5)
C6 C 0.7405(12) 0.4995(9) 0.2895(5)
H4 H 0.6493 0.5634 0.3085
C7 C 0.7021(12) 0.4471(9) 0.2086(5)
C8 C 0.8513(12) 0.3547(9) 0.1836(5)
C9 C 1.0198(12) 0.3162(11) 0.2381(4)
H5 H 1.1149 0.2534 0.2206
C10 C 0.5221(13) 0.4904(12) 0.1471(6)
H6 H 0.5306 0.5875 0.1377
H7 H 0.3883 0.4717 0.1687
C11 C 0.5300(15) 0.4159(12) 0.0667(6)
H8 H 0.4126 0.4364 0.0244
C12 C 0.5744(19) 0.2635(12) 0.0806(9)
H9 H 0.5400 0.2075 0.0321
H10 H 0.5162 0.2258 0.1283
C13 C 0.8098(14) 0.3045(13) 0.0963(5)
H11 H 0.9121 0.2387 0.0789
C14 C 0.7552(14) 0.4259(12) 0.0370(6)
C15 C 0.8857(17) 0.5573(13) 0.0528(7)
H12 H 0.9116 0.5731 0.1111
H13 H 0.8081 0.6324 0.0270
H14 H 1.0186 0.5480 0.0302
C16 C 0.761(2) 0.3816(17) -0.0545(7)
H15 H 0.9054 0.3638 -0.0644
H16 H 0.7043 0.4529 -0.0905
H17 H 0.6780 0.3008 -0.0651
Cu1A Cu 0.70606(12) 0.80702(9) 0.59853(5)
N1A N 1.0967(10) 0.1456(7) 0.4613(5)
O1 O 0.8720(10) 0.8742(7) 0.2506(4)
H18 H 0.9188 0.8464 0.2067
H19 H 0.9149 0.9548 0.2608
O2 O 0.2319(16) 0.7092(11) 0.2582(7)
H20 H 0.1970 0.7561 0.2983
H21 H 0.1340 0.6527 0.2432
O3? O 0.274(3) 0.712(2) 0.2753(11)
H22? H 0.3339 0.6543 0.2466
H23? H 0.2755 0.7895 0.2527
loop_
_geom_bond_atom_site_label_1
_geom_bond_atom_site_label_2
_geom_bond_site_symmetry_1
_geom_bond_site_symmetry_2
Cu1 Cl1 1_555 1_555
Cl2 Cu1 1_555 1_555
N1 C2 1_555 1_555
N2 Cu1 1_555 1_555
N3 Cu1 1_555 1_555
C1 N2 1_555 1_555
H1 C1 1_555 1_555
C2 C1 1_555 1_555
H2 C2 1_555 1_555
C3 N1 1_555 1_555
H3 C3 1_555 1_555
C4 N2 1_555 1_555
C5 N3 1_555 1_555
C6 C5 1_555 1_555
H4 C6 1_555 1_555
C7 C6 1_555 1_555
C8 C7 1_555 1_555
C9 N3 1_555 1_555
H5 C9 1_555 1_555
C10 C7 1_555 1_555
H6 C10 1_555 1_555
H7 C10 1_555 1_555
C11 C10 1_555 1_555
H8 C11 1_555 1_555
C12 C11 1_555 1_555
H9 C12 1_555 1_555
H10 C12 1_555 1_555
C13 C8 1_555 1_555
H11 C13 1_555 1_555
C14 C11 1_555 1_555
C15 C14 1_555 1_555
H12 C15 1_555 1_555
H13 C15 1_555 1_555
H14 C15 1_555 1_555
C16 C14 1_555 1_555
H15 C16 1_555 1_555
H16 C16 1_555 1_555
H17 C16 1_555 1_555
O1 H18 1_555 1_555
H19 O1 1_555 1_555
O2 H20 1_555 1_555
H21 O2 1_555 1_555
Cu1A N1 1_555 1_555
N1A Cu1 1_555 1_555
C3 C4 1_555 1_555
C4 C5 1_555 1_555
C8 C9 1_555 1_555
C12 C13 1_555 1_555
C13 C14 1_555 1_555

#END
