
#######################################################################
#
#                 Cambridge Crystallographic Data Centre
#                                CCDC 
#
#######################################################################
#
# If this CIF has been generated from an entry in the Cambridge 
# Structural Database, then it will include bibliographic, chemical, 
# crystal, experimental, refinement or atomic coordinate data resulting 
# from the CCDC's data processing and validation procedures.
#
#######################################################################

data_FERNOG
_symmetry_cell_setting           triclinic
_symmetry_space_group_name_H-M   'P -1'
_symmetry_Int_Tables_number      2
_space_group_name_Hall           '-P 1'
loop_
_symmetry_equiv_pos_site_id
_symmetry_equiv_pos_as_xyz
1 x,y,z
2 -x,-y,-z
_cell_length_a                   11.806(2)
_cell_length_b                   13.415(3)
_cell_length_c                   15.060(3)
_cell_angle_alpha                115.16(3)
_cell_angle_beta                 94.80(3)
_cell_angle_gamma                97.33(3)
_cell_volume                     2115.81
loop_
_atom_site_label
_atom_site_type_symbol
_atom_site_fract_x
_atom_site_fract_y
_atom_site_fract_z
Cu1 Cu 0.5000 1.0000 0.5000
N1 N 0.3267(3) 0.9588(3) 0.4637(2)
O1 O 0.4758(2) 0.9348(2) 0.3305(2)
O2 O 0.3281(3) 0.8784(3) 0.2065(2)
O3 O 0.1216(3) 0.8533(3) 0.2374(2)
H1 H 0.1759 0.8540 0.2049
C1 C 0.2551(4) 0.9668(3) 0.5291(3)
H2 H 0.2859 0.9950 0.5973
C2 C 0.1366(4) 0.9349(4) 0.4999(4)
H3 H 0.0871 0.9402 0.5477
C3 C 0.0910(4) 0.8956(4) 0.4021(4)
H4 H 0.0099 0.8728 0.3814
C4 C 0.1650(4) 0.8895(4) 0.3331(3)
C5 C 0.2839(4) 0.9210(3) 0.3669(3)
C6 C 0.3716(4) 0.9113(3) 0.2970(3)
N2 N 0.5044(3) 0.8416(2) 0.4849(2)
C7 C 0.4580(3) 0.8094(3) 0.5488(3)
H5 H 0.4277 0.8627 0.6017
C8 C 0.4519(4) 0.7033(3) 0.5417(3)
H6 H 0.4175 0.6845 0.5886
C9 C 0.4963(4) 0.6233(3) 0.4657(3)
C10 C 0.5474(4) 0.6571(3) 0.4007(3)
H7 H 0.5809 0.6062 0.3486
C11 C 0.5493(4) 0.7658(3) 0.4125(3)
H8 H 0.5839 0.7873 0.3671
C12 C 0.4861(4) 0.5045(3) 0.4525(3)
H9 H 0.4063 0.4643 0.4214
H10 H 0.5390 0.4667 0.4065
Cu1_2 Cu 0.5000 0.0000 0.5000
N1A N 0.6733(3) 1.0412(3) 0.5363(2)
O1A O 0.5242(2) 1.0652(2) 0.6695(2)
O2A O 0.6719(3) 1.1216(3) 0.7935(2)
O3A O 0.8784(3) 1.1467(3) 0.7626(2)
H1A H 0.8241 1.1460 0.7951
C1A C 0.7449(4) 1.0332(3) 0.4709(3)
H2A H 0.7141 1.0050 0.4027
C2A C 0.8634(4) 1.0651(4) 0.5001(4)
H3A H 0.9129 1.0598 0.4523
C3A C 0.9090(4) 1.1044(4) 0.5979(4)
H4A H 0.9901 1.1272 0.6186
C4A C 0.8350(4) 1.1105(4) 0.6669(3)
C5A C 0.7161(4) 1.0790(3) 0.6331(3)
C6A C 0.6284(4) 1.0887(3) 0.7030(3)
N2A N 0.4956(3) 0.1584(2) 0.5151(2)
N2A_2 N 0.4956(3) 1.1584(2) 0.5151(2)
C7A C 0.5420(3) 0.1906(3) 0.4512(3)
H5A H 0.5723 0.1373 0.3983
C8A C 0.5481(4) 0.2967(3) 0.4583(3)
H6A H 0.5825 0.3155 0.4114
C9A C 0.5037(4) 0.3767(3) 0.5343(3)
C10A C 0.4526(4) 0.3429(3) 0.5993(3)
H7A H 0.4191 0.3938 0.6514
C11A C 0.4507(4) 0.2342(3) 0.5875(3)
H8A H 0.4161 0.2127 0.6329
C12A C 0.5139(4) 0.4955(3) 0.5475(3)
H9A H 0.5937 0.5357 0.5786
H10A H 0.4610 0.5333 0.5935
Cu2 Cu 0.0000 0.0000 0.0000
N3 N 0.1097(3) 0.0739(3) 0.1312(3)
O4 O -0.1245(3) 0.0217(2) 0.1121(2)
O5 O -0.1148(3) 0.0823(3) 0.2759(2)
O6 O 0.0757(4) 0.1588(3) 0.3888(2)
H11 H 0.0037 0.1497 0.3736
C13 C 0.2236(4) 0.1012(4) 0.1405(4)
H12 H 0.2580 0.0872 0.0825
C14 C 0.2944(5) 0.1497(4) 0.2325(4)
H13 H 0.3756 0.1694 0.2372
C15 C 0.2446(5) 0.1686(4) 0.3168(4)
H14 H 0.2914 0.2007 0.3802
C16 C 0.1260(5) 0.1403(4) 0.3078(3)
C17 C 0.0592(4) 0.0934(3) 0.2129(3)
C18 C -0.0703(4) 0.0621(3) 0.1976(4)
N4 N -0.0148(3) 0.1528(3) 0.0080(2)
C19 C 0.0756(4) 0.2168(3) -0.0026(3)
H15 H 0.1460 0.1894 -0.0130
C20 C 0.0701(4) 0.3199(3) 0.0009(3)
H16 H 0.1362 0.3626 -0.0063
C21 C -0.0313(4) 0.3621(3) 0.0151(3)
C22 C -0.1247(4) 0.2953(3) 0.0250(3)
H17 H -0.1963 0.3205 0.0344
C23 C -0.1134(4) 0.1929(3) 0.0211(3)
H18 H -0.1785 0.1486 0.0280
C24 C -0.0426(4) 0.4748(3) 0.0208(4)
H19 H -0.1204 0.4683 -0.0136
H20 H -0.0391 0.5275 0.0915
Cu2_2 Cu 0.0000 1.0000 0.0000
N3A N -0.1097(3) -0.0739(3) -0.1312(3)
O4A O 0.1245(3) -0.0217(2) -0.1121(2)
O5A O 0.1148(3) -0.0823(3) -0.2759(2)
O6A O -0.0757(4) -0.1588(3) -0.3888(2)
H11A H -0.0037 -0.1497 -0.3736
C13A C -0.2236(4) -0.1012(4) -0.1405(4)
H12A H -0.2580 -0.0872 -0.0825
C14A C -0.2944(5) -0.1497(4) -0.2325(4)
H13A H -0.3756 -0.1694 -0.2372
C15A C -0.2446(5) -0.1686(4) -0.3168(4)
H14A H -0.2914 -0.2007 -0.3802
C16A C -0.1260(5) -0.1403(4) -0.3078(3)
C17A C -0.0592(4) -0.0934(3) -0.2129(3)
C18A C 0.0703(4) -0.0621(3) -0.1976(4)
N4A N 0.0148(3) 0.8472(3) -0.0080(2)
N4A_2 N 0.0148(3) -0.1528(3) -0.0080(2)
C19A C -0.0756(4) 0.7832(3) 0.0026(3)
H15A H -0.1460 0.8106 0.0130
C20A C -0.0701(4) 0.6801(3) -0.0009(3)
H16A H -0.1362 0.6374 0.0063
C21A C 0.0313(4) 0.6379(3) -0.0151(3)
C22A C 0.1247(4) 0.7047(3) -0.0250(3)
H17A H 0.1963 0.6795 -0.0344
C23A C 0.1134(4) 0.8071(3) -0.0211(3)
H18A H 0.1785 0.8514 -0.0280
C24A C 0.0426(4) 0.5252(3) -0.0208(4)
H19A H 0.1204 0.5317 0.0136
H20A H 0.0391 0.4725 -0.0915
Cu3 Cu 0.5000 0.5000 1.0000
N5 N 0.6112(3) 0.6380(3) 1.0937(2)
O7 O 0.6195(2) 0.4258(2) 1.0697(2)
O8 O 0.7519(3) 0.4918(3) 1.2055(2)
O9 O 0.8526(3) 0.6944(3) 1.2824(3)
H21 H 0.8372 0.6281 1.2749
C25 C 0.6120(4) 0.7395(3) 1.0995(3)
H22 H 0.5537 0.7505 1.0588
C26 C 0.6956(4) 0.8299(3) 1.1635(3)
H23 H 0.6958 0.9016 1.1653
C27 C 0.7780(4) 0.8153(4) 1.2242(4)
H24 H 0.8366 0.8765 1.2677
C28 C 0.7754(4) 0.7100(3) 1.2214(3)
C29 C 0.6915(3) 0.6212(3) 1.1537(3)
C30 C 0.6860(3) 0.5029(3) 1.1413(3)
N6 N 0.3989(3) 0.5181(3) 1.1106(3)
N7 N -0.2075(4) 0.4701(4) 1.4583(3)
C31 C 0.3826(4) 0.4430(4) 1.1473(3)
H25 H 0.4231 0.3821 1.1250
C32 C 0.3097(4) 0.4502(5) 1.2156(4)
H26 H 0.3001 0.3944 1.2387
C33 C 0.2508(4) 0.5382(5) 1.2507(4)
C34 C 0.2690(4) 0.6165(4) 1.2133(4)
H27 H 0.2311 0.6792 1.2357
C35 C 0.3420(4) 0.6033(4) 1.1440(4)
H28 H 0.3523 0.6574 1.1188
C36 C 0.1678(5) 0.5494(6) 1.3246(5)
H29 H 0.2058 0.5379 1.3798
H30 H 0.1515 0.6266 1.3527
C37 C 0.0621(6) 0.4733(7) 1.2838(5)
H31 H 0.0805 0.3969 1.2554
H32 H 0.0268 0.4848 1.2277
C38 C -0.1707(5) 0.3788(5) 1.3992(5)
H33 H -0.2065 0.3093 1.3956
C39 C -0.0856(5) 0.3767(5) 1.3431(4)
H34 H -0.0657 0.3074 1.3006
C40 C -0.0287(4) 0.4754(5) 1.3485(4)
C41 C -0.0638(4) 0.5729(4) 1.4118(4)
H35 H -0.0268 0.6438 1.4195
C42 C -0.1530(4) 0.5652(4) 1.4632(4)
H36 H -0.1770 0.6325 1.5049
N5A N 0.3888(3) 0.3620(3) 0.9063(2)
O7A O 0.3805(2) 0.5742(2) 0.9303(2)
O8A O 0.2481(3) 0.5082(3) 0.7945(2)
O9A O 0.1474(3) 0.3056(3) 0.7176(3)
H21A H 0.1628 0.3719 0.7251
C25A C 0.3880(4) 0.2605(3) 0.9005(3)
H22A H 0.4463 0.2495 0.9412
C26A C 0.3044(4) 0.1701(3) 0.8365(3)
H23A H 0.3042 0.0984 0.8347
C27A C 0.2220(4) 0.1847(4) 0.7758(4)
H24A H 0.1634 0.1235 0.7323
C28A C 0.2246(4) 0.2900(3) 0.7786(3)
C29A C 0.3085(3) 0.3788(3) 0.8463(3)
C30A C 0.3140(3) 0.4971(3) 0.8587(3)
N6A N 0.6011(3) 0.4819(3) 0.8894(3)
N7A N 1.2075(4) 0.5299(4) 0.5417(3)
C31A C 0.6174(4) 0.5570(4) 0.8527(3)
H25A H 0.5769 0.6179 0.8750
C32A C 0.6903(4) 0.5498(5) 0.7844(4)
H26A H 0.6999 0.6056 0.7613
C33A C 0.7492(4) 0.4618(5) 0.7493(4)
C34A C 0.7310(4) 0.3835(4) 0.7867(4)
H27A H 0.7689 0.3208 0.7643
C35A C 0.6580(4) 0.3967(4) 0.8560(4)
H28A H 0.6477 0.3426 0.8812
C36A C 0.8322(5) 0.4506(6) 0.6754(5)
H29A H 0.7942 0.4621 0.6202
H30A H 0.8485 0.3734 0.6473
C37A C 0.9379(6) 0.5267(7) 0.7162(5)
H31A H 0.9195 0.6031 0.7446
H32A H 0.9732 0.5152 0.7723
C38A C 1.1707(5) 0.6212(5) 0.6008(5)
H33A H 1.2065 0.6907 0.6044
C39A C 1.0856(5) 0.6233(5) 0.6569(4)
H34A H 1.0657 0.6926 0.6994
C40A C 1.0287(4) 0.5246(5) 0.6515(4)
C41A C 1.0638(4) 0.4271(4) 0.5882(4)
H35A H 1.0268 0.3562 0.5805
C42A C 1.1530(4) 0.4348(4) 0.5368(4)
H36A H 1.1770 0.3675 0.4951
O10 O 0.4773(3) 0.9689(3) 0.1178(3)
O11 O -0.3387(4) 0.1239(3) 0.2531(3)
O12 O 0.4584(4) 0.1446(4) 0.0606(3)
O13 O 0.6121(4) 0.3040(4) 1.2212(4)
loop_
_geom_bond_atom_site_label_1
_geom_bond_atom_site_label_2
_geom_bond_site_symmetry_1
_geom_bond_site_symmetry_2
Cu1 N1 1_555 1_555
N1 C1 1_555 1_555
O1 Cu1 1_555 1_555
O2 C6 1_555 1_555
O3 H1 1_555 1_555
C1 H2 1_555 1_555
C2 C1 1_555 1_555
H3 C2 1_555 1_555
C3 C2 1_555 1_555
H4 C3 1_555 1_555
C4 O3 1_555 1_555
C5 N1 1_555 1_555
C6 O1 1_555 1_555
N2 Cu1 1_555 1_555
C7 N2 1_555 1_555
H5 C7 1_555 1_555
C8 C7 1_555 1_555
H6 C8 1_555 1_555
C9 C8 1_555 1_555
C10 C9 1_555 1_555
H7 C10 1_555 1_555
C11 N2 1_555 1_555
H8 C11 1_555 1_555
C12 C9 1_555 1_555
H9 C12 1_555 1_555
H10 C12 1_555 1_555
Cu2 N3 1_555 1_555
N3 C13 1_555 1_555
O4 Cu2 1_555 1_555
O5 C18 1_555 1_555
O6 H11 1_555 1_555
C13 H12 1_555 1_555
C14 C13 1_555 1_555
H13 C14 1_555 1_555
C15 C14 1_555 1_555
H14 C15 1_555 1_555
C16 O6 1_555 1_555
C17 N3 1_555 1_555
C18 O4 1_555 1_555
N4 Cu2 1_555 1_555
C19 N4 1_555 1_555
H15 C19 1_555 1_555
C20 C19 1_555 1_555
H16 C20 1_555 1_555
C21 C20 1_555 1_555
C22 C21 1_555 1_555
H17 C22 1_555 1_555
C23 N4 1_555 1_555
H18 C23 1_555 1_555
C24 C21 1_555 1_555
H19 C24 1_555 1_555
H20 C24 1_555 1_555
Cu3 N5 1_555 1_555
N5 C25 1_555 1_555
O7 Cu3 1_555 1_555
O8 C30 1_555 1_555
O9 H21 1_555 1_555
C25 H22 1_555 1_555
C26 C25 1_555 1_555
H23 C26 1_555 1_555
C27 C26 1_555 1_555
H24 C27 1_555 1_555
C28 O9 1_555 1_555
C29 N5 1_555 1_555
C30 O7 1_555 1_555
N6 Cu3 1_555 1_555
N7 C38 1_555 1_555
C31 N6 1_555 1_555
H25 C31 1_555 1_555
C32 C31 1_555 1_555
H26 C32 1_555 1_555
C33 C32 1_555 1_555
C34 C33 1_555 1_555
H27 C34 1_555 1_555
C35 N6 1_555 1_555
H28 C35 1_555 1_555
C36 C33 1_555 1_555
H29 C36 1_555 1_555
H30 C36 1_555 1_555
C37 C36 1_555 1_555
H31 C37 1_555 1_555
H32 C37 1_555 1_555
C38 H33 1_555 1_555
C39 C38 1_555 1_555
H34 C39 1_555 1_555
C40 C37 1_555 1_555
C41 C40 1_555 1_555
H35 C41 1_555 1_555
C42 N7 1_555 1_555
H36 C42 1_555 1_555
Cu1_2 N2A 1_555 1_555
N1A Cu1 1_555 1_555
O1A Cu1 1_555 1_555
O2A C6A 1_555 1_555
O3A H1A 1_555 1_555
C1A N1A 1_555 1_555
H2A C1A 1_555 1_555
C2A C1A 1_555 1_555
H3A C2A 1_555 1_555
C3A C2A 1_555 1_555
H4A C3A 1_555 1_555
C4A O3A 1_555 1_555
C5A N1A 1_555 1_555
C6A O1A 1_555 1_555
N2A C7A 1_555 1_555
N2A_2 Cu1 1_555 1_555
C7A H5A 1_555 1_555
C8A C7A 1_555 1_555
H6A C8A 1_555 1_555
C9A C8A 1_555 1_555
C10A C9A 1_555 1_555
H7A C10A 1_555 1_555
C11A N2A 1_555 1_555
H8A C11A 1_555 1_555
C12A C12 1_555 1_555
H9A C12A 1_555 1_555
H10A C12A 1_555 1_555
Cu2_2 N4A 1_555 1_555
N3A Cu2 1_555 1_555
O4A Cu2 1_555 1_555
O5A C18A 1_555 1_555
O6A H11A 1_555 1_555
C13A N3A 1_555 1_555
H12A C13A 1_555 1_555
C14A C13A 1_555 1_555
H13A C14A 1_555 1_555
C15A C14A 1_555 1_555
H14A C15A 1_555 1_555
C16A O6A 1_555 1_555
C17A N3A 1_555 1_555
C18A O4A 1_555 1_555
N4A C19A 1_555 1_555
N4A_2 Cu2 1_555 1_555
C19A H15A 1_555 1_555
C20A C19A 1_555 1_555
H16A C20A 1_555 1_555
C21A C20A 1_555 1_555
C22A C21A 1_555 1_555
H17A C22A 1_555 1_555
C23A N4A 1_555 1_555
H18A C23A 1_555 1_555
C24A C24 1_555 1_555
H19A C24A 1_555 1_555
H20A C24A 1_555 1_555
N5A Cu3 1_555 1_555
O7A Cu3 1_555 1_555
O8A C30A 1_555 1_555
O9A H21A 1_555 1_555
C25A N5A 1_555 1_555
H22A C25A 1_555 1_555
C26A C25A 1_555 1_555
H23A C26A 1_555 1_555
C27A C26A 1_555 1_555
H24A C27A 1_555 1_555
C28A O9A 1_555 1_555
C29A N5A 1_555 1_555
C30A O7A 1_555 1_555
N6A Cu3 1_555 1_555
N7A C38A 1_555 1_555
C31A N6A 1_555 1_555
H25A C31A 1_555 1_555
C32A C31A 1_555 1_555
H26A C32A 1_555 1_555
C33A C32A 1_555 1_555
C34A C33A 1_555 1_555
H27A C34A 1_555 1_555
C35A N6A 1_555 1_555
H28A C35A 1_555 1_555
C36A C33A 1_555 1_555
H29A C36A 1_555 1_555
H30A C36A 1_555 1_555
C37A C36A 1_555 1_555
H31A C37A 1_555 1_555
H32A C37A 1_555 1_555
C38A H33A 1_555 1_555
C39A C38A 1_555 1_555
H34A C39A 1_555 1_555
C40A C37A 1_555 1_555
C41A C40A 1_555 1_555
H35A C41A 1_555 1_555
C42A N7A 1_555 1_555
H36A C42A 1_555 1_555
C3 C4 1_555 1_555
C4 C5 1_555 1_555
C5 C6 1_555 1_555
C10 C11 1_555 1_555
C15 C16 1_555 1_555
C16 C17 1_555 1_555
C17 C18 1_555 1_555
C22 C23 1_555 1_555
C27 C28 1_555 1_555
C28 C29 1_555 1_555
C29 C30 1_555 1_555
C34 C35 1_555 1_555
C39 C40 1_555 1_555
C41 C42 1_555 1_555
C3A C4A 1_555 1_555
C4A C5A 1_555 1_555
C5A C6A 1_555 1_555
C9A C12A 1_555 1_555
C10A C11A 1_555 1_555
C15A C16A 1_555 1_555
C16A C17A 1_555 1_555
C17A C18A 1_555 1_555
C21A C24A 1_555 1_555
C22A C23A 1_555 1_555
C27A C28A 1_555 1_555
C28A C29A 1_555 1_555
C29A C30A 1_555 1_555
C34A C35A 1_555 1_555
C39A C40A 1_555 1_555
C41A C42A 1_555 1_555

#END
