
#######################################################################
#
#                 Cambridge Crystallographic Data Centre
#                                CCDC 
#
#######################################################################
#
# If this CIF has been generated from an entry in the Cambridge 
# Structural Database, then it will include bibliographic, chemical, 
# crystal, experimental, refinement or atomic coordinate data resulting 
# from the CCDC's data processing and validation procedures.
#
#######################################################################

data_FERTEC
_symmetry_cell_setting           monoclinic
_symmetry_space_group_name_H-M   'P 21/c'
_symmetry_Int_Tables_number      14
_space_group_name_Hall           '-P 2ybc'
loop_
_symmetry_equiv_pos_site_id
_symmetry_equiv_pos_as_xyz
1 x,y,z
2 -x,1/2+y,1/2-z
3 -x,-y,-z
4 x,1/2-y,1/2+z
_cell_length_a                   15.075(1)
_cell_length_b                   21.742(1)
_cell_length_c                   25.522(1)
_cell_angle_alpha                90
_cell_angle_beta                 97.60(1)
_cell_angle_gamma                90
_cell_volume                     8291.62
loop_
_atom_site_label
_atom_site_type_symbol
_atom_site_fract_x
_atom_site_fract_y
_atom_site_fract_z
K1 K 0.11384(11) 0.76358(8) -0.50797(6)
K2 K 0.31244(13) 0.78460(9) -0.58369(6)
K3 K 0.49529(11) 0.69801(10) -0.33076(7)
K4 K 0.30845(13) 0.68928(9) -0.23570(7)
Ti1 Ti 0.25738(8) 0.75848(6) -0.36982(5)
Ti2 Ti 0.34042(9) 0.84403(6) -0.44777(5)
Ti3 Ti 0.31694(9) 0.67466(6) -0.44900(5)
O1 O 0.2878(3) 0.7634(2) -0.44356(17)
O2 O 0.2913(3) 0.6793(2) -0.37749(18)
O3 O 0.3737(7) 0.6036(4) -0.2974(3)
H1 H 0.370(9) 0.555(7) -0.305(5)
H2 H 0.381(11) 0.622(8) -0.316(6)
N1 N -0.0555(4) 0.7799(3) -0.5874(2)
O4 O 0.1323(3) 0.7768(2) -0.40216(18)
O5 O 0.1923(3) 0.7550(3) -0.30852(17)
C1 C 0.0728(5) 0.7867(3) -0.3685(3)
C2 C 0.1061(5) 0.7728(4) -0.3160(3)
C3 C 0.0538(6) 0.7767(4) -0.2757(3)
H3 H 0.0771 0.7659 -0.2405
C4 C -0.0345(6) 0.7971(5) -0.2880(3)
H4 H -0.0722 0.7998 -0.2611
C5 C -0.0672(6) 0.8133(5) -0.3391(3)
H5 H -0.1269 0.8280 -0.3465
C6 C -0.0151(5) 0.8088(4) -0.3805(3)
C7 C -0.0563(5) 0.8317(4) -0.4318(3)
H6 H -0.1133 0.8506 -0.4324
N2 N -0.0254(4) 0.8295(3) -0.4753(3)
C8 C -0.0788(5) 0.8598(4) -0.5201(3)
H7 H -0.0401 0.8881 -0.5374
H8 H -0.1265 0.8846 -0.5071
C9 C -0.1208(5) 0.8139(4) -0.5600(3)
H9 H -0.1557 0.7840 -0.5418
H10 H -0.1630 0.8357 -0.5867
O6 O 0.2466(3) 0.8561(2) -0.50838(18)
O7 O 0.3402(4) 0.9330(2) -0.45223(19)
C10 C 0.2441(5) 0.9130(4) -0.5286(3)
C11 C 0.2960(5) 0.9568(4) -0.4975(3)
C12 C 0.2991(6) 1.0174(4) -0.5126(3)
H11 H 0.3336 1.0465 -0.4909
C13 C 0.2499(6) 1.0353(4) -0.5608(4)
H12 H 0.2507 1.0770 -0.5718
C14 C 0.2005(6) 0.9926(4) -0.5924(3)
H13 H 0.1694 1.0056 -0.6254
C15 C 0.1947(5) 0.9307(4) -0.5775(3)
C16 C 0.1391(5) 0.8896(4) -0.6128(3)
H14 H 0.1108 0.9068 -0.6450
N3 N 0.1247(4) 0.8330(3) -0.6050(2)
C17 C 0.0596(6) 0.8045(4) -0.6462(3)
H15 H 0.0715 0.7598 -0.6478
H16 H 0.0664 0.8226 -0.6810
C18 C -0.0345(6) 0.8150(4) -0.6341(3)
H17 H -0.0430 0.8594 -0.6278
H18 H -0.0772 0.8030 -0.6653
O8 O 0.1959(3) 0.6534(2) -0.48367(18)
O9 O 0.3268(3) 0.5855(2) -0.4512(2)
C19 C 0.1812(5) 0.5931(3) -0.4942(3)
C20 C 0.2569(5) 0.5561(4) -0.4762(3)
C21 C 0.2530(6) 0.4930(4) -0.4861(4)
H19 H 0.3032 0.4677 -0.4747
C22 C 0.1763(6) 0.4673(4) -0.5125(4)
H20 H 0.1740 0.4243 -0.5189
C23 C 0.1034(7) 0.5028(4) -0.5295(4)
H21 H 0.0515 0.4842 -0.5480
C24 C 0.1041(5) 0.5671(4) -0.5198(3)
C25 C 0.0199(6) 0.5987(4) -0.5385(3)
H22 H -0.0283 0.5737 -0.5539
N4 N 0.0048(4) 0.6565(3) -0.5364(3)
C26 C -0.0874(6) 0.6742(4) -0.5577(4)
H23 H -0.1168 0.6932 -0.5292
H24 H -0.1217 0.6369 -0.5699
C27 C -0.0893(6) 0.7189(4) -0.6030(3)
H25 H -0.0530 0.7018 -0.6292
H26 H -0.1517 0.7228 -0.6205
N5 N 0.6566(5) 0.6842(4) -0.2563(3)
O10 O 0.3617(3) 0.7700(2) -0.31477(18)
O11 O 0.2879(3) 0.8509(2) -0.37726(17)
C28 C 0.3786(5) 0.8278(4) -0.2992(3)
C29 C 0.3373(5) 0.8739(4) -0.3323(3)
C30 C 0.3470(6) 0.9353(4) -0.3206(3)
H27 H 0.3172 0.9651 -0.3438
C31 C 0.4001(6) 0.9539(5) -0.2749(4)
H28 H 0.4064 0.9962 -0.2660
C32 C 0.4442(6) 0.9088(4) -0.2424(3)
H29 H 0.4816 0.9214 -0.2113
C33 C 0.4357(5) 0.8454(4) -0.2535(3)
C34 C 0.4905(5) 0.8030(5) -0.2185(3)
H30 H 0.5264 0.8208 -0.1890
N6 N 0.4955(4) 0.7447(4) -0.2233(2)
C35 C 0.5628(6) 0.7130(5) -0.1854(3)
H31 H 0.5331 0.6941 -0.1571
H32 H 0.6070 0.7433 -0.1690
C36 C 0.6105(6) 0.6639(5) -0.2126(3)
H33 H 0.6550 0.6440 -0.1859
H34 H 0.5662 0.6321 -0.2261
O12 O 0.4535(3) 0.8340(2) -0.40217(18)
O13 O 0.4199(3) 0.8304(2) -0.50035(18)
C37 C 0.5266(5) 0.8249(3) -0.4267(3)
C38 C 0.5084(5) 0.8235(4) -0.4820(3)
C39 C 0.5764(6) 0.8156(4) -0.5120(4)
H35 H 0.5646 0.8165 -0.5495
C40 C 0.6631(6) 0.8061(4) -0.4868(4)
H36 H 0.7107 0.8007 -0.5073
C41 C 0.6807(5) 0.8045(4) -0.4326(3)
H37 H 0.7401 0.7970 -0.4163
C42 C 0.6133(5) 0.8139(4) -0.4012(3)
C43 C 0.6296(5) 0.8126(4) -0.3424(3)
H38 H 0.5829 0.8248 -0.3231
N7 N 0.7033(5) 0.7958(4) -0.3174(3)
C44 C 0.7099(6) 0.7938(5) -0.2600(4)
H39 H 0.6533 0.8087 -0.2488
H40 H 0.7588 0.8213 -0.2444
C45 C 0.7283(6) 0.7286(5) -0.2398(4)
H41 H 0.7840 0.7138 -0.2523
H42 H 0.7389 0.7296 -0.2007
O14 O 0.4477(3) 0.6743(2) -0.43189(18)
O15 O 0.3523(3) 0.6869(2) -0.52050(18)
C46 C 0.4930(5) 0.6690(3) -0.4738(3)
C47 C 0.4397(5) 0.6763(3) -0.5228(3)
C48 C 0.4774(6) 0.6725(4) -0.5692(3)
H43 H 0.4411 0.6771 -0.6024
C49 C 0.5687(6) 0.6620(4) -0.5670(3)
H44 H 0.5950 0.6598 -0.5988
C50 C 0.6209(5) 0.6547(4) -0.5192(3)
H45 H 0.6830 0.6469 -0.5186
C51 C 0.5849(5) 0.6587(3) -0.4709(3)
C52 C 0.6503(5) 0.6507(4) -0.4232(3)
H46 H 0.7103 0.6433 -0.4291
N8 N 0.6368(4) 0.6525(4) -0.3762(3)
C53 C 0.7170(6) 0.6450(6) -0.3363(3)
H47 H 0.7528 0.6833 -0.3343
H48 H 0.7546 0.6112 -0.3473
C54 C 0.6912(7) 0.6307(5) -0.2824(4)
H49 H 0.6451 0.5980 -0.2861
H50 H 0.7443 0.6145 -0.2596
O16 O 0.2704(4) 0.7153(3) -0.6689(2)
C55 C 0.2432(6) 0.6696(5) -0.6953(4)
H51 H 0.2500 0.6700 -0.7317
N9 N 0.2070(7) 0.6222(5) -0.6780(3)
C56 C 0.1816(11) 0.6217(7) -0.6257(5)
H52 H 0.1359 0.6532 -0.6231
H53 H 0.2341 0.6303 -0.5998
H54 H 0.1573 0.5812 -0.6185
C57 C 0.1758(11) 0.5715(7) -0.7139(5)
H55 H 0.1895 0.5809 -0.7495
H56 H 0.1110 0.5666 -0.7148
H57 H 0.2061 0.5334 -0.7013
O18 O 0.3740(4) 0.8703(3) -0.6462(2)
C61 C 0.4081(12) 0.9132(10) -0.6206(8)
H65 H 0.4277 0.9038 -0.5846
N11 N 0.4222(6) 0.9679(4) -0.6332(3)
C62 C 0.4692(16) 1.0055(11) -0.5993(9)
H66 H 0.5284 0.9876 -0.5881
H67 H 0.4761 1.0453 -0.6163
H68 H 0.4379 1.0113 -0.5684
C63 C 0.3830(19) 0.9914(13) -0.6765(11)
H69 H 0.3319 0.9656 -0.6904
H70 H 0.3619 1.0329 -0.6696
H71 H 0.4253 0.9936 -0.7025
O19 O 0.1510(5) 0.6181(4) -0.2544(3)
C64 C 0.1300(9) 0.6208(5) -0.3019(6)
H72 H 0.1775 0.6241 -0.3228
N12 N 0.0477(7) 0.6198(5) -0.3279(4)
C65 C 0.0303(12) 0.6281(7) -0.3845(6)
H73 H 0.0813 0.6128 -0.4008
H74 H 0.0214 0.6719 -0.3925
H75 H -0.0237 0.6052 -0.3985
C66 C -0.0272(10) 0.6173(8) -0.2987(7)
H76 H -0.0057 0.6105 -0.2612
H77 H -0.0668 0.5834 -0.3120
H78 H -0.0601 0.6562 -0.3029
K4C K 0.30845(13) 0.81072(9) -0.73570(7)
O16C O 0.2704(4) 0.7847(3) -0.1689(2)
O18C O 0.3740(4) 0.6297(3) -0.1462(2)
O17 O 0.5105(8) 0.5417(6) -0.3237(5)
C58 C 0.4904(8) 0.5354(6) -0.3715(5)
H58 H 0.4351 0.5499 -0.3894
N10 N 0.5518(12) 0.5064(8) -0.3976(7)
C59 C 0.5346(15) 0.4969(10) -0.4543(8)
H59 H 0.5288 0.4528 -0.4618
H60 H 0.5843 0.5137 -0.4709
H61 H 0.4789 0.5178 -0.4684
C60 C 0.6451(18) 0.4781(13) -0.3731(11)
H62 H 0.6936 0.5054 -0.3806
H63 H 0.6528 0.4376 -0.3887
H64 H 0.6466 0.4739 -0.3347
O20 O 0.8055(8) 0.9354(6) 0.3408(5)
C67 C 0.8203(10) 0.9629(7) 0.3847(6)
H79 H 0.7901 0.9532 0.4141
N13 N 0.8833(7) 1.0072(5) 0.3860(4)
C68 C 0.8994(9) 1.0403(7) 0.4352(5)
H80 H 0.8815 1.0834 0.4294
H81 H 0.9632 1.0384 0.4489
H82 H 0.8644 1.0217 0.4609
C69 C 0.9315(12) 1.0251(8) 0.3470(7)
H83 H 0.9177 0.9979 0.3164
H84 H 0.9956 1.0226 0.3600
H85 H 0.9159 1.0675 0.3366
O21 O 0.8443(13) 0.9269(9) -0.1802(7)
C70 C 0.9409(17) 0.9459(12) -0.1791(9)
H86 H 0.9859 0.9125 -0.1742
H87 H 0.9597 0.9836 -0.1589
C71 C 0.8851(17) 0.9570(13) -0.2454(10)
H88 H 0.8421 0.9236 -0.2544
H89 H 0.9294 0.9569 -0.2703
H90 H 0.8535 0.9965 -0.2476
C72 C 0.7771(19) 0.9695(14) -0.1782(11)
H91 H 0.7540 0.9843 -0.2141
H92 H 0.7992 1.0052 -0.1561
C73 C 0.7069(17) 0.9369(12) -0.1545(10)
H93 H 0.6763 0.9081 -0.1804
H94 H 0.6636 0.9666 -0.1442
H95 H 0.7339 0.9141 -0.1233
loop_
_geom_bond_atom_site_label_1
_geom_bond_atom_site_label_2
_geom_bond_site_symmetry_1
_geom_bond_site_symmetry_2
K1 O1 1_555 1_555
K2 O6 1_555 1_555
K3 O3 1_555 1_555
K4 O3 1_555 1_555
Ti1 O1 1_555 1_555
Ti2 O1 1_555 1_555
Ti3 O1 1_555 1_555
O2 Ti1 1_555 1_555
O3 H1 1_555 1_555
H2 O3 1_555 1_555
N1 C9 1_555 1_555
O4 K1 1_555 1_555
O5 K4 1_555 1_555
C1 O4 1_555 1_555
C2 O5 1_555 1_555
C3 C2 1_555 1_555
H3 C3 1_555 1_555
C4 C3 1_555 1_555
H4 C4 1_555 1_555
C5 C4 1_555 1_555
H5 C5 1_555 1_555
C6 C1 1_555 1_555
C7 C6 1_555 1_555
H6 C7 1_555 1_555
N2 K1 1_555 1_555
C8 N2 1_555 1_555
H7 C8 1_555 1_555
H8 C8 1_555 1_555
C9 C8 1_555 1_555
H9 C9 1_555 1_555
H10 C9 1_555 1_555
O6 K1 1_555 1_555
O7 Ti2 1_555 1_555
C10 O6 1_555 1_555
C11 O7 1_555 1_555
C12 C11 1_555 1_555
H11 C12 1_555 1_555
C13 C12 1_555 1_555
H12 C13 1_555 1_555
C14 C13 1_555 1_555
H13 C14 1_555 1_555
C15 C10 1_555 1_555
C16 C15 1_555 1_555
H14 C16 1_555 1_555
N3 K1 1_555 1_555
C17 N3 1_555 1_555
H15 C17 1_555 1_555
H16 C17 1_555 1_555
C18 N1 1_555 1_555
H17 C18 1_555 1_555
H18 C18 1_555 1_555
O8 K1 1_555 1_555
O9 Ti3 1_555 1_555
C19 O8 1_555 1_555
C20 O9 1_555 1_555
C21 C20 1_555 1_555
H19 C21 1_555 1_555
C22 C21 1_555 1_555
H20 C22 1_555 1_555
C23 C22 1_555 1_555
H21 C23 1_555 1_555
C24 C19 1_555 1_555
C25 C24 1_555 1_555
H22 C25 1_555 1_555
N4 K1 1_555 1_555
C26 N4 1_555 1_555
H23 C26 1_555 1_555
H24 C26 1_555 1_555
C27 N1 1_555 1_555
H25 C27 1_555 1_555
H26 C27 1_555 1_555
N5 K3 1_555 1_555
O10 K3 1_555 1_555
O11 Ti1 1_555 1_555
C28 O10 1_555 1_555
C29 O11 1_555 1_555
C30 C29 1_555 1_555
H27 C30 1_555 1_555
C31 C30 1_555 1_555
H28 C31 1_555 1_555
C32 C31 1_555 1_555
H29 C32 1_555 1_555
C33 C28 1_555 1_555
C34 C33 1_555 1_555
H30 C34 1_555 1_555
N6 K3 1_555 1_555
C35 N6 1_555 1_555
H31 C35 1_555 1_555
H32 C35 1_555 1_555
C36 N5 1_555 1_555
H33 C36 1_555 1_555
H34 C36 1_555 1_555
O12 Ti2 1_555 1_555
O13 K2 1_555 1_555
C37 O12 1_555 1_555
C38 O13 1_555 1_555
C39 C38 1_555 1_555
H35 C39 1_555 1_555
C40 C39 1_555 1_555
H36 C40 1_555 1_555
C41 C40 1_555 1_555
H37 C41 1_555 1_555
C42 C37 1_555 1_555
C43 C42 1_555 1_555
H38 C43 1_555 1_555
N7 C43 1_555 1_555
C44 N7 1_555 1_555
H39 C44 1_555 1_555
H40 C44 1_555 1_555
C45 N5 1_555 1_555
H41 C45 1_555 1_555
H42 C45 1_555 1_555
O14 K3 1_555 1_555
O15 K2 1_555 1_555
C46 O14 1_555 1_555
C47 O15 1_555 1_555
C48 C47 1_555 1_555
H43 C48 1_555 1_555
C49 C48 1_555 1_555
H44 C49 1_555 1_555
C50 C49 1_555 1_555
H45 C50 1_555 1_555
C51 C46 1_555 1_555
C52 C51 1_555 1_555
H46 C52 1_555 1_555
N8 K3 1_555 1_555
C53 N8 1_555 1_555
H47 C53 1_555 1_555
H48 C53 1_555 1_555
C54 N5 1_555 1_555
H49 C54 1_555 1_555
H50 C54 1_555 1_555
O16 K2 1_555 1_555
C55 O16 1_555 1_555
H51 C55 1_555 1_555
N9 C55 1_555 1_555
C56 N9 1_555 1_555
H52 C56 1_555 1_555
H53 C56 1_555 1_555
H54 C56 1_555 1_555
C57 N9 1_555 1_555
H55 C57 1_555 1_555
H56 C57 1_555 1_555
H57 C57 1_555 1_555
O17 C58 1_555 1_555
C58 H58 1_555 1_555
N10 C58 1_555 1_555
C59 N10 1_555 1_555
H59 C59 1_555 1_555
H60 C59 1_555 1_555
H61 C59 1_555 1_555
C60 N10 1_555 1_555
H62 C60 1_555 1_555
H63 C60 1_555 1_555
H64 C60 1_555 1_555
O18 K2 1_555 1_555
C61 O18 1_555 1_555
H65 C61 1_555 1_555
N11 C61 1_555 1_555
C62 N11 1_555 1_555
H66 C62 1_555 1_555
H67 C62 1_555 1_555
H68 C62 1_555 1_555
C63 N11 1_555 1_555
H69 C63 1_555 1_555
H70 C63 1_555 1_555
H71 C63 1_555 1_555
O19 K4 1_555 1_555
C64 O19 1_555 1_555
H72 C64 1_555 1_555
N12 C64 1_555 1_555
C65 N12 1_555 1_555
H73 C65 1_555 1_555
H74 C65 1_555 1_555
H75 C65 1_555 1_555
C66 N12 1_555 1_555
H76 C66 1_555 1_555
H77 C66 1_555 1_555
H78 C66 1_555 1_555
O20 C67 1_555 1_555
C67 H79 1_555 1_555
N13 C67 1_555 1_555
C68 N13 1_555 1_555
H80 C68 1_555 1_555
H81 C68 1_555 1_555
H82 C68 1_555 1_555
C69 N13 1_555 1_555
H83 C69 1_555 1_555
H84 C69 1_555 1_555
H85 C69 1_555 1_555
O21 C70 1_555 1_555
C70 H86 1_555 1_555
H87 C70 1_555 1_555
C71 C70 1_555 1_555
H88 C71 1_555 1_555
H89 C71 1_555 1_555
H90 C71 1_555 1_555
C72 O21 1_555 1_555
H91 C72 1_555 1_555
H92 C72 1_555 1_555
C73 C72 1_555 1_555
H93 C73 1_555 1_555
H94 C73 1_555 1_555
H95 C73 1_555 1_555
K4C O16 1_555 1_555
O16C K4 1_555 1_555
O18C K4 1_555 1_555
K2 N3 1_555 1_555
K4 O10 1_555 1_555
K4 N6 1_555 1_555
Ti1 O4 1_555 1_555
Ti1 O5 1_555 1_555
Ti1 O10 1_555 1_555
Ti2 O6 1_555 1_555
Ti2 O11 1_555 1_555
Ti2 O13 1_555 1_555
Ti3 O2 1_555 1_555
Ti3 O8 1_555 1_555
Ti3 O14 1_555 1_555
Ti3 O15 1_555 1_555
C1 C2 1_555 1_555
C5 C6 1_555 1_555
C7 N2 1_555 1_555
C10 C11 1_555 1_555
C14 C15 1_555 1_555
C16 N3 1_555 1_555
C17 C18 1_555 1_555
C19 C20 1_555 1_555
C23 C24 1_555 1_555
C25 N4 1_555 1_555
C26 C27 1_555 1_555
C28 C29 1_555 1_555
C32 C33 1_555 1_555
C34 N6 1_555 1_555
C35 C36 1_555 1_555
C37 C38 1_555 1_555
C41 C42 1_555 1_555
C44 C45 1_555 1_555
C46 C47 1_555 1_555
C50 C51 1_555 1_555
C52 N8 1_555 1_555
C53 C54 1_555 1_555
O18 K4C 1_555 1_555

#END
