
#######################################################################
#
#                 Cambridge Crystallographic Data Centre
#                                CCDC 
#
#######################################################################
#
# If this CIF has been generated from an entry in the Cambridge 
# Structural Database, then it will include bibliographic, chemical, 
# crystal, experimental, refinement or atomic coordinate data resulting 
# from the CCDC's data processing and validation procedures.
#
#######################################################################

data_FERWUV
_symmetry_cell_setting           orthorhombic
_symmetry_space_group_name_H-M   'P 21 21 21'
_symmetry_Int_Tables_number      19
_space_group_name_Hall           'P 2ac 2ab'
loop_
_symmetry_equiv_pos_site_id
_symmetry_equiv_pos_as_xyz
1 x,y,z
2 1/2-x,-y,1/2+z
3 -x,1/2+y,1/2-z
4 1/2+x,1/2-y,-z
_cell_length_a                   6.9494(3)
_cell_length_b                   9.1996(4)
_cell_length_c                   28.2990(12)
_cell_angle_alpha                90
_cell_angle_beta                 90
_cell_angle_gamma                90
_cell_volume                     1809.2
loop_
_atom_site_label
_atom_site_type_symbol
_atom_site_fract_x
_atom_site_fract_y
_atom_site_fract_z
Cu1 Cu 0.24421(5) 0.45969(4) 0.366743(13)
Cu2 Cu 0.47362(6) 0.45790(4) 0.121490(14)
Cu3 Cu -0.45226(5) 0.44867(5) 0.413410(15)
N1 N 0.0713(4) 0.5402(3) -0.01918(9)
C1 C 0.0067(4) 0.4506(4) 0.01483(11)
C2 C 0.1105(5) 0.4311(3) 0.05714(12)
N2 N 0.2765(4) 0.5002(3) 0.06422(10)
C3 C 0.3367(6) 0.5909(4) 0.03042(13)
H1 H 0.4499 0.6428 0.0352
C4 C 0.2392(6) 0.6105(4) -0.01070(12)
H2 H 0.2886 0.6732 -0.0334
C5 C -0.1789(7) 0.3699(6) 0.00605(17)
H3 H -0.2516 0.4193 -0.0179
H4 H -0.2524 0.3661 0.0347
H5 H -0.1506 0.2728 -0.0043
C6 C 0.0410(6) 0.3317(5) 0.09485(14)
H6 H 0.1386 0.3215 0.1186
H7 H 0.0128 0.2383 0.0814
H8 H -0.0734 0.3713 0.1089
N3 N 0.3440(4) 0.4553(4) 0.19325(9)
C7 C 0.2145(5) 0.5465(4) 0.21128(11)
C8 C 0.1730(5) 0.5464(4) 0.26024(11)
N4 N 0.2630(4) 0.4554(3) 0.28957(9)
C9 C 0.3924(6) 0.3632(5) 0.27062(13)
H9 H 0.4570 0.2983 0.2902
C10 C 0.4311(6) 0.3630(5) 0.22294(12)
H10 H 0.5200 0.2970 0.2110
C11 C 0.1180(8) 0.6495(6) 0.17793(15)
H11 H 0.1806 0.6453 0.1477
H12 H 0.1262 0.7465 0.1902
H13 H -0.0147 0.6227 0.1744
C12 C 0.0263(8) 0.6459(6) 0.28111(17)
H14 H -0.0993 0.6188 0.2701
H15 H 0.0535 0.7441 0.2717
H16 H 0.0304 0.6389 0.3149
N5 N -0.0289(4) 0.4515(3) 0.38588(10)
C13 C -0.1869(5) 0.4444(4) 0.39678(11)
N6 N 0.4403(4) 0.7578(3) 0.38195(10)
C14 C 0.3896(5) 0.6397(3) 0.38124(12)
N7 N 0.3969(4) 0.1448(3) 0.37924(11)
C15 C 0.3638(5) 0.2654(3) 0.38066(11)
Cu2B Cu 0.52638(6) 0.95790(4) 0.378510(14)
Cu2B_2 Cu 0.52638(6) -0.04210(4) 0.378510(14)
Cu3A Cu -0.04774(5) 0.55133(5) -0.086590(15)
Cu3_2 Cu 0.54774(5) 0.44867(5) 0.413410(15)
N1A N -0.5713(4) 0.4598(3) 0.48082(9)
N6B N 0.5597(4) 0.2578(3) 0.11805(10)
C14_2 C -0.6104(5) 0.6397(3) 0.38124(12)
N7B N 0.6031(4) 0.6448(3) 0.12076(11)
C15_2 C -0.6362(5) 0.2654(3) 0.38066(11)
loop_
_geom_bond_atom_site_label_1
_geom_bond_atom_site_label_2
_geom_bond_site_symmetry_1
_geom_bond_site_symmetry_2
Cu1 N4 1_555 1_555
Cu2 N2 1_555 1_555
Cu3 C13 1_555 1_555
N1 C1 1_555 1_555
C1 C2 1_555 1_555
C2 N2 1_555 1_555
N2 C3 1_555 1_555
C3 H1 1_555 1_555
C4 N1 1_555 1_555
H2 C4 1_555 1_555
C5 C1 1_555 1_555
H3 C5 1_555 1_555
H4 C5 1_555 1_555
H5 C5 1_555 1_555
C6 C2 1_555 1_555
H6 C6 1_555 1_555
H7 C6 1_555 1_555
H8 C6 1_555 1_555
N3 Cu2 1_555 1_555
C7 N3 1_555 1_555
C8 C7 1_555 1_555
N4 C8 1_555 1_555
C9 N4 1_555 1_555
H9 C9 1_555 1_555
C10 N3 1_555 1_555
H10 C10 1_555 1_555
C11 C7 1_555 1_555
H11 C11 1_555 1_555
H12 C11 1_555 1_555
H13 C11 1_555 1_555
C12 C8 1_555 1_555
H14 C12 1_555 1_555
H15 C12 1_555 1_555
H16 C12 1_555 1_555
N5 Cu1 1_555 1_555
C13 N5 1_555 1_555
N6 C14 1_555 1_555
C14 Cu1 1_555 1_555
N7 C15 1_555 1_555
C15 Cu1 1_555 1_555
Cu2B N6 1_555 1_555
Cu2B_2 N7 1_555 1_555
Cu3A N1 1_555 1_555
Cu3_2 C14 1_555 1_555
N1A Cu3 1_555 1_555
N6B Cu2 1_555 1_555
C14_2 Cu3 1_555 1_555
N7B Cu2 1_555 1_555
C15_2 Cu3 1_555 1_555
C3 C4 1_555 1_555
C9 C10 1_555 1_555
C15 Cu3_2 1_555 1_555

#END
