
#######################################################################
#
#                 Cambridge Crystallographic Data Centre
#                                CCDC 
#
#######################################################################
#
# If this CIF has been generated from an entry in the Cambridge 
# Structural Database, then it will include bibliographic, chemical, 
# crystal, experimental, refinement or atomic coordinate data resulting 
# from the CCDC's data processing and validation procedures.
#
#######################################################################

data_FESBAI
_symmetry_cell_setting           monoclinic
_symmetry_space_group_name_H-M   'P 21/c'
_symmetry_Int_Tables_number      14
_space_group_name_Hall           '-P 2ybc'
loop_
_symmetry_equiv_pos_site_id
_symmetry_equiv_pos_as_xyz
1 x,y,z
2 -x,1/2+y,1/2-z
3 -x,-y,-z
4 x,1/2-y,1/2+z
_cell_length_a                   9.354(4)
_cell_length_b                   14.614(7)
_cell_length_c                   19.726(9)
_cell_angle_alpha                90
_cell_angle_beta                 94.889(8)
_cell_angle_gamma                90
_cell_volume                     2686.72
loop_
_atom_site_label
_atom_site_type_symbol
_atom_site_fract_x
_atom_site_fract_y
_atom_site_fract_z
C1 C 0.2187(11) 0.3001(8) 0.6231(5)
H1 H 0.2489 0.2991 0.5794
C2 C 0.2123(15) 0.3127(13) 0.7295(7)
H2 H 0.2402 0.3250 0.7750
C3 C 0.0830(15) 0.2810(11) 0.7069(7)
H3 H 0.0079 0.2658 0.7328
C4 C -0.0272(12) 0.2341(8) 0.5906(6)
H4 H -0.0103 0.2510 0.5444
H5 H -0.1200 0.2585 0.6000
C5 C -0.0310(11) 0.1303(8) 0.5960(6)
C6 C -0.1412(11) 0.0840(7) 0.6193(6)
H6 H -0.2185 0.1166 0.6336
C7 C -0.1429(11) -0.0106(9) 0.6226(6)
H7 H -0.2216 -0.0400 0.6385
C8 C -0.0262(10) -0.0639(8) 0.6019(5)
C9 C 0.0915(11) -0.0130(8) 0.5788(6)
H8 H 0.1703 -0.0441 0.5645
C10 C 0.0897(12) 0.0788(8) 0.5776(6)
H9 H 0.1695 0.1099 0.5643
C11 C -0.0302(10) -0.1615(8) 0.6000(5)
C12 C -0.1578(11) -0.2123(8) 0.5808(5)
H10 H -0.2424 -0.1802 0.5695
C13 C -0.1614(11) -0.3038(9) 0.5785(6)
H11 H -0.2479 -0.3335 0.5666
C14 C -0.0385(12) -0.3546(8) 0.5935(6)
C15 C 0.0888(12) -0.3084(9) 0.6137(7)
H12 H 0.1724 -0.3414 0.6251
C16 C 0.0913(11) -0.2168(9) 0.6169(7)
H13 H 0.1775 -0.1882 0.6310
C17 C -0.0403(12) -0.4581(9) 0.5899(7)
H14 H -0.0748 -0.4770 0.5443
H15 H 0.0568 -0.4810 0.5991
C18 C -0.2523(11) -0.5436(7) 0.6231(5)
H16 H -0.2884 -0.5566 0.5788
C19 C -0.1143(14) -0.4941(11) 0.7088(7)
H17 H -0.0380 -0.4675 0.7350
C20 C -0.2247(14) -0.5345(9) 0.7308(6)
H18 H -0.2405 -0.5399 0.7765
C21 C 0.5216(10) 0.2043(7) 1.0447(5)
C22 C 0.5261(9) 0.2886(6) 0.9993(4)
C23 C 0.5337(8) 0.2767(6) 0.9296(4)
H19 H 0.5435 0.2185 0.9114
C24 C 0.5266(9) 0.3524(6) 0.8881(4)
C25 C 0.5143(8) 0.4403(6) 0.9157(4)
H20 H 0.5103 0.4907 0.8869
C26 C 0.5079(8) 0.4537(6) 0.9854(4)
C27 C 0.5139(9) 0.3748(6) 1.0267(4)
H21 H 0.5094 0.3810 1.0734
C28 C 0.5291(9) 0.3429(6) 0.8119(4)
Cu1 Cu 0.50346(13) 0.36221(8) 0.68196(5)
N1 N 0.3006(9) 0.3252(7) 0.6765(4)
N2 N 0.0839(9) 0.2756(6) 0.6377(5)
N3 N -0.3159(9) -0.5683(6) 0.6782(4)
N4 N -0.1322(9) -0.4986(6) 0.6390(4)
O1 O 0.5426(8) 0.2198(5) 1.1084(3)
O2 O 0.4929(10) 0.1293(5) 1.0182(4)
O3 O 0.5714(7) 0.2683(5) 0.7886(3)
O4 O 0.4890(7) 0.4080(4) 0.7764(3)
C21B C 0.4784(10) 0.7957(7) 0.9553(5)
C22B C 0.4739(9) 0.7114(6) 1.0007(4)
C23B C 0.4663(8) 0.7233(6) 1.0704(4)
H19B H 0.4565 0.7815 1.0886
C24B C 0.4734(9) 0.6476(6) 1.1119(4)
C25B C 0.4857(8) 0.5597(6) 1.0843(4)
H20B H 0.4897 0.5093 1.1131
C26B C 0.4921(8) 0.5463(6) 1.0146(4)
C27B C 0.4861(9) 0.6252(6) 0.9733(4)
H21B H 0.4906 0.6190 0.9266
C28B C 0.4709(9) 0.6571(6) 1.1881(4)
O1B O 0.4574(8) 0.7802(5) 0.8916(3)
O2B O 0.5071(10) 0.8707(5) 0.9818(4)
O3B O 0.4286(7) 0.7317(5) 1.2114(3)
O4B O 0.5110(7) 0.5920(4) 1.2236(3)
C1B C 0.7813(11) 0.6999(8) 1.3769(5)
H1B H 0.7511 0.7009 1.4206
C2B C 0.7877(15) 0.6873(13) 1.2705(7)
H2B H 0.7598 0.6750 1.2250
C3B C 0.9170(15) 0.7190(11) 1.2931(7)
H3B H 0.9921 0.7342 1.2672
C4B C 1.0272(12) 0.7659(8) 1.4094(6)
H4B H 1.0103 0.7490 1.4556
H5B H 1.1200 0.7415 1.4000
C5B C 1.0310(11) 0.8697(8) 1.4040(6)
C6B C 1.1412(11) 0.9160(7) 1.3807(6)
H6B H 1.2185 0.8834 1.3664
C7B C 1.1429(11) 1.0106(9) 1.3774(6)
H7B H 1.2216 1.0400 1.3615
C8B C 1.0262(10) 1.0639(8) 1.3981(5)
C9B C 0.9085(11) 1.0130(8) 1.4212(6)
H8B H 0.8297 1.0441 1.4355
C10B C 0.9103(12) 0.9212(8) 1.4224(6)
H9B H 0.8305 0.8901 1.4357
C11B C 1.0302(10) 1.1615(8) 1.4000(5)
C12B C 1.1578(11) 1.2123(8) 1.4192(5)
H10B H 1.2424 1.1802 1.4305
C13B C 1.1614(11) 1.3038(9) 1.4215(6)
H11B H 1.2479 1.3335 1.4334
C14B C 1.0385(12) 1.3546(8) 1.4065(6)
C15B C 0.9112(12) 1.3084(9) 1.3863(7)
H12B H 0.8276 1.3414 1.3749
C16B C 0.9087(11) 1.2168(9) 1.3831(7)
H13B H 0.8225 1.1882 1.3690
C17B C 1.0403(12) 1.4581(9) 1.4101(7)
H14B H 1.0748 1.4770 1.4557
H15B H 0.9432 1.4810 1.4009
C18B C 1.2523(11) 1.5436(7) 1.3769(5)
H16B H 1.2884 1.5566 1.4212
C19B C 1.1143(14) 1.4941(11) 1.2912(7)
H17B H 1.0380 1.4675 1.2650
C20B C 1.2247(14) 1.5345(9) 1.2692(6)
H18B H 1.2405 1.5399 1.2235
Cu1B Cu 0.49654(13) 0.63779(8) 1.31804(5)
N1B N 0.6994(9) 0.6748(7) 1.3235(4)
N2B N 0.9161(9) 0.7244(6) 1.3623(5)
N3B N 1.3159(9) 1.5683(6) 1.3218(4)
N4B N 1.1322(9) 1.4986(6) 1.3610(4)
Cu1_2 Cu -0.49654(13) -0.63779(8) 0.68196(5)
Cu1A Cu 0.49654(13) 0.86221(8) 0.81804(5)
Cu1B_2 Cu 1.49654(13) 1.63779(8) 1.31804(5)
Cu1C Cu 0.50346(13) 0.13779(8) 1.18196(5)
N3_2 N 0.6841(9) 0.4317(6) 0.6782(4)
N3B_2 N 0.3159(9) 0.5683(6) 1.3218(4)
O1A O 0.4574(8) 0.7198(5) 1.3916(3)
O1C O 0.5426(8) 0.2802(5) 0.6084(3)
O5 O 0.6876(17) 1.0096(9) 0.9386(9)
H22 H 0.612(11) 1.029(13) 0.918(10)
H23 H 0.71(2) 0.960(7) 0.924(10)
loop_
_geom_bond_atom_site_label_1
_geom_bond_atom_site_label_2
_geom_bond_site_symmetry_1
_geom_bond_site_symmetry_2
C1 H1 1_555 1_555
C2 H2 1_555 1_555
C3 C2 1_555 1_555
H3 C3 1_555 1_555
C4 H4 1_555 1_555
H5 C4 1_555 1_555
C5 C4 1_555 1_555
C6 C5 1_555 1_555
H6 C6 1_555 1_555
C7 C6 1_555 1_555
H7 C7 1_555 1_555
C8 C7 1_555 1_555
C9 C8 1_555 1_555
H8 C9 1_555 1_555
C10 C5 1_555 1_555
H9 C10 1_555 1_555
C11 C8 1_555 1_555
C12 C11 1_555 1_555
H10 C12 1_555 1_555
C13 C12 1_555 1_555
H11 C13 1_555 1_555
C14 C13 1_555 1_555
C15 C14 1_555 1_555
H12 C15 1_555 1_555
C16 C11 1_555 1_555
H13 C16 1_555 1_555
C17 C14 1_555 1_555
H14 C17 1_555 1_555
H15 C17 1_555 1_555
C18 H16 1_555 1_555
C19 H17 1_555 1_555
C20 C19 1_555 1_555
H18 C20 1_555 1_555
C21 C22 1_555 1_555
C22 C23 1_555 1_555
C23 H19 1_555 1_555
C24 C23 1_555 1_555
C25 C24 1_555 1_555
H20 C25 1_555 1_555
C26 C25 1_555 1_555
C27 C22 1_555 1_555
H21 C27 1_555 1_555
C28 C24 1_555 1_555
Cu1 N1 1_555 1_555
N1 C1 1_555 1_555
N2 C1 1_555 1_555
N3 C18 1_555 1_555
N4 C17 1_555 1_555
O1 C21 1_555 1_555
O2 C21 1_555 1_555
O3 C28 1_555 1_555
O4 C28 1_555 1_555
O5 H22 1_555 1_555
H23 O5 1_555 1_555
C21B C22B 1_555 1_555
C22B C23B 1_555 1_555
C23B H19B 1_555 1_555
C24B C23B 1_555 1_555
C25B C24B 1_555 1_555
H20B C25B 1_555 1_555
C26B C26 1_555 1_555
C27B C22B 1_555 1_555
H21B C27B 1_555 1_555
C28B C24B 1_555 1_555
O1B C21B 1_555 1_555
O2B C21B 1_555 1_555
O3B C28B 1_555 1_555
O4B C28B 1_555 1_555
C1B H1B 1_555 1_555
C2B H2B 1_555 1_555
C3B C2B 1_555 1_555
H3B C3B 1_555 1_555
C4B H4B 1_555 1_555
H5B C4B 1_555 1_555
C5B C4B 1_555 1_555
C6B C5B 1_555 1_555
H6B C6B 1_555 1_555
C7B C6B 1_555 1_555
H7B C7B 1_555 1_555
C8B C7B 1_555 1_555
C9B C8B 1_555 1_555
H8B C9B 1_555 1_555
C10B C5B 1_555 1_555
H9B C10B 1_555 1_555
C11B C8B 1_555 1_555
C12B C11B 1_555 1_555
H10B C12B 1_555 1_555
C13B C12B 1_555 1_555
H11B C13B 1_555 1_555
C14B C13B 1_555 1_555
C15B C14B 1_555 1_555
H12B C15B 1_555 1_555
C16B C11B 1_555 1_555
H13B C16B 1_555 1_555
C17B C14B 1_555 1_555
H14B C17B 1_555 1_555
H15B C17B 1_555 1_555
C18B H16B 1_555 1_555
C19B H17B 1_555 1_555
C20B C19B 1_555 1_555
H18B C20B 1_555 1_555
Cu1B O3B 1_555 1_555
N1B C1B 1_555 1_555
N2B C1B 1_555 1_555
N3B C18B 1_555 1_555
N4B C17B 1_555 1_555
Cu1_2 N3 1_555 1_555
Cu1A O1B 1_555 1_555
Cu1B_2 N3B 1_555 1_555
Cu1C O1 1_555 1_555
N3_2 Cu1 1_555 1_555
N3B_2 Cu1B 1_555 1_555
O1A Cu1B 1_555 1_555
O1C Cu1 1_555 1_555
C2 N1 1_555 1_555
C3 N2 1_555 1_555
C4 N2 1_555 1_555
C9 C10 1_555 1_555
C15 C16 1_555 1_555
C18 N4 1_555 1_555
C19 N4 1_555 1_555
C20 N3 1_555 1_555
C26 C27 1_555 1_555
Cu1 O3 1_555 1_555
Cu1 O4 1_555 1_555
C25B C26B 1_555 1_555
C26B C27B 1_555 1_555
O4B Cu1B 1_555 1_555
C2B N1B 1_555 1_555
C3B N2B 1_555 1_555
C4B N2B 1_555 1_555
C9B C10B 1_555 1_555
C15B C16B 1_555 1_555
C18B N4B 1_555 1_555
C19B N4B 1_555 1_555
C20B N3B 1_555 1_555
Cu1B N1B 1_555 1_555

#END
