
#######################################################################
#
#                 Cambridge Crystallographic Data Centre
#                                CCDC 
#
#######################################################################
#
# If this CIF has been generated from an entry in the Cambridge 
# Structural Database, then it will include bibliographic, chemical, 
# crystal, experimental, refinement or atomic coordinate data resulting 
# from the CCDC's data processing and validation procedures.
#
#######################################################################

data_FESCEN
_symmetry_cell_setting           monoclinic
_symmetry_space_group_name_H-M   'P 2/c'
_symmetry_Int_Tables_number      13
_space_group_name_Hall           '-P 2yc'
loop_
_symmetry_equiv_pos_site_id
_symmetry_equiv_pos_as_xyz
1 x,y,z
2 -x,y,1/2-z
3 -x,-y,-z
4 x,-y,1/2+z
_cell_length_a                   19.31(2)
_cell_length_b                   8.558(11)
_cell_length_c                   27.25(4)
_cell_angle_alpha                90
_cell_angle_beta                 108.28(3)
_cell_angle_gamma                90
_cell_volume                     4275.94
loop_
_atom_site_label
_atom_site_type_symbol
_atom_site_fract_x
_atom_site_fract_y
_atom_site_fract_z
C1 C 0.4558(3) 0.3822(6) 0.6657(2)
H1 H 0.4381 0.4835 0.6584
C2 C 0.5283(3) 0.3620(7) 0.6928(3)
H2 H 0.5594 0.4473 0.7028
C3 C 0.5532(3) 0.2152(8) 0.7045(3)
H3 H 0.6016 0.1991 0.7240
C4 C 0.5073(3) 0.0875(6) 0.6877(2)
H4 H 0.5242 -0.0144 0.6949
C5 C 0.4357(3) 0.1187(5) 0.65993(18)
C6 C 0.3817(2) -0.0043(5) 0.64026(16)
C7 C 0.2789(2) -0.1112(4) 0.60214(16)
C8 C 0.2040(2) -0.1476(5) 0.57136(17)
C9 C 0.1692(3) -0.0720(5) 0.52543(18)
H5 H 0.1945 0.0040 0.5136
C10 C 0.0987(3) -0.1051(5) 0.49671(19)
H6 H 0.0766 -0.0525 0.4659
C11 C 0.0600(3) -0.2210(5) 0.51474(17)
C12 C 0.0952(3) -0.2994(6) 0.5600(2)
H7 H 0.0705 -0.3761 0.5721
C13 C 0.1668(3) -0.2651(6) 0.5875(2)
H8 H 0.1903 -0.3215 0.6172
C14 C -0.0187(3) -0.2508(5) 0.48596(19)
C15 C -0.0479(3) -0.2183(6) 0.43390(19)
H9 H -0.0182 -0.1861 0.4148
C16 C -0.1225(3) -0.2348(6) 0.4108(2)
H10 H -0.1417 -0.2067 0.3762
C17 C -0.1382(3) -0.3241(7) 0.4831(2)
H11 H -0.1684 -0.3626 0.5010
C18 C -0.0648(3) -0.3102(6) 0.5104(2)
H12 H -0.0472 -0.3408 0.5449
C19 C 0.3111(2) 0.4307(4) 0.52416(16)
C20 C 0.3109(2) 0.5256(4) 0.47816(15)
C21 C 0.3123(3) 0.6881(4) 0.48384(16)
H13 H 0.3191 0.7331 0.5161
C22 C 0.3034(3) 0.7808(4) 0.44082(16)
C23 C 0.3009(4) 0.9558(5) 0.4467(2)
C24 C 0.2934(3) 0.7143(5) 0.39307(18)
H14 H 0.2863 0.7790 0.3645
C25 C 0.2935(3) 0.5522(4) 0.38636(16)
C26 C 0.3007(2) 0.4613(4) 0.42944(14)
H15 H 0.2986 0.3531 0.4258
C27 C 0.2859(3) 0.4808(4) 0.33488(16)
C28 C 0.2790(2) 0.5729(4) 0.29154(15)
H16 H 0.2761 0.6808 0.2944
C29 C 0.2763(2) 0.5092(4) 0.24446(14)
C30 C 0.2778(3) 0.3502(4) 0.23910(16)
H17 H 0.2762 0.3065 0.2075
C31 C 0.2818(4) 0.2531(4) 0.28177(17)
C32 C 0.2863(3) 0.3206(5) 0.32738(18)
H18 H 0.2899 0.2558 0.3555
C33 C 0.2796(5) 0.0797(6) 0.2740(2)
C34 C 0.2742(2) 0.6056(4) 0.19882(15)
Mn1 Mn 0.28966(3) 0.28856(6) 0.60466(2)
N1 N 0.4096(2) 0.2634(4) 0.64934(13)
N2 N 0.3110(2) 0.0291(3) 0.61253(12)
N3 N 0.3282(2) -0.2183(4) 0.62340(16)
N4 N 0.3944(2) -0.1566(4) 0.64801(17)
H19 H 0.4343 -0.2036 0.6644
N5 N -0.1690(2) -0.2884(4) 0.43467(15)
O1 O 0.3284(2) 1.0035(3) 0.49351(12)
H20 H 0.3408 0.9280 0.5128
O2 O 0.2710(4) 1.0424(4) 0.41090(15)
O3 O 0.2687(2) 0.7514(3) 0.19958(11)
O4 O 0.28093(18) 0.5374(3) 0.15953(10)
O5 O 0.2718(3) 0.0362(4) 0.22800(14)
H21 H 0.2300 0.0545 0.2097
O6 O 0.3009(6) -0.0096(5) 0.30879(18)
O7 O 0.30591(17) 0.2831(3) 0.52111(10)
O8 O 0.31460(19) 0.4966(3) 0.56534(10)
Mn1B Mn -0.28966(3) -0.28856(6) 0.39534(2)
Mn1C Mn 0.28966(3) 0.71144(6) 0.10466(2)
N5B N 0.1690(2) 0.2884(4) 0.56533(15)
O4C O 0.28093(18) 0.4626(3) 0.65953(10)
loop_
_geom_bond_atom_site_label_1
_geom_bond_atom_site_label_2
_geom_bond_site_symmetry_1
_geom_bond_site_symmetry_2
C1 H1 1_555 1_555
C2 C1 1_555 1_555
H2 C2 1_555 1_555
C3 C2 1_555 1_555
H3 C3 1_555 1_555
C4 C3 1_555 1_555
H4 C4 1_555 1_555
C5 C4 1_555 1_555
C6 C5 1_555 1_555
C7 C8 1_555 1_555
C8 C9 1_555 1_555
C9 H5 1_555 1_555
C10 C9 1_555 1_555
H6 C10 1_555 1_555
C11 C10 1_555 1_555
C12 C11 1_555 1_555
H7 C12 1_555 1_555
C13 C8 1_555 1_555
H8 C13 1_555 1_555
C14 C11 1_555 1_555
C15 C14 1_555 1_555
H9 C15 1_555 1_555
C16 C15 1_555 1_555
H10 C16 1_555 1_555
C17 H11 1_555 1_555
C18 C14 1_555 1_555
H12 C18 1_555 1_555
C19 C20 1_555 1_555
C20 C21 1_555 1_555
C21 H13 1_555 1_555
C22 C21 1_555 1_555
C23 C22 1_555 1_555
C24 C22 1_555 1_555
H14 C24 1_555 1_555
C25 C24 1_555 1_555
C26 C20 1_555 1_555
H15 C26 1_555 1_555
C27 C25 1_555 1_555
C28 C27 1_555 1_555
H16 C28 1_555 1_555
C29 C28 1_555 1_555
C30 C29 1_555 1_555
H17 C30 1_555 1_555
C31 C30 1_555 1_555
C32 C27 1_555 1_555
H18 C32 1_555 1_555
C33 C31 1_555 1_555
C34 C29 1_555 1_555
Mn1 N1 1_555 1_555
N1 C1 1_555 1_555
N2 C6 1_555 1_555
N3 C7 1_555 1_555
N4 C6 1_555 1_555
H19 N4 1_555 1_555
N5 C16 1_555 1_555
O1 C23 1_555 1_555
H20 O1 1_555 1_555
O2 C23 1_555 1_555
O3 C34 1_555 1_555
O4 C34 1_555 1_555
O5 C33 1_555 1_555
H21 O5 1_555 1_555
O6 C33 1_555 1_555
O7 C19 1_555 1_555
O8 C19 1_555 1_555
Mn1B N5 1_555 1_555
Mn1C O4 1_555 1_555
N5B Mn1 1_555 1_555
O4C Mn1 1_555 1_555
C5 N1 1_555 1_555
C7 N2 1_555 1_555
C12 C13 1_555 1_555
C17 C18 1_555 1_555
C17 N5 1_555 1_555
C25 C26 1_555 1_555
C31 C32 1_555 1_555
Mn1 N2 1_555 1_555
Mn1 O7 1_555 1_555
Mn1 O8 1_555 1_555
N3 N4 1_555 1_555

#END
