
#######################################################################
#
#                 Cambridge Crystallographic Data Centre
#                                CCDC 
#
#######################################################################
#
# If this CIF has been generated from an entry in the Cambridge 
# Structural Database, then it will include bibliographic, chemical, 
# crystal, experimental, refinement or atomic coordinate data resulting 
# from the CCDC's data processing and validation procedures.
#
#######################################################################

data_FESHUI
_symmetry_cell_setting           triclinic
_symmetry_space_group_name_H-M   'P -1'
_symmetry_Int_Tables_number      2
_space_group_name_Hall           '-P 1'
loop_
_symmetry_equiv_pos_site_id
_symmetry_equiv_pos_as_xyz
1 x,y,z
2 -x,-y,-z
_cell_length_a                   12.568(4)
_cell_length_b                   13.049(4)
_cell_length_c                   13.520(3)
_cell_angle_alpha                82.23(2)
_cell_angle_beta                 74.24(2)
_cell_angle_gamma                63.88(3)
_cell_volume                     1915.68
loop_
_atom_site_label
_atom_site_type_symbol
_atom_site_fract_x
_atom_site_fract_y
_atom_site_fract_z
Ru1 Ru 0.5000 0.0000 0.5000
Ru2 Ru 0.0000 0.0000 0.0000
Mn1 Mn 0.29269(17) -0.09206(16) 0.25350(13)
O1 O 0.4027(7) -0.2123(7) 0.1638(6)
O2 O 0.2664(7) -0.1938(6) 0.3600(6)
N1 N 0.3078(9) 0.0266(8) 0.1488(6)
N2 N -0.0775(11) 0.1715(10) 0.0278(8)
N3 N 0.4573(13) 0.1689(11) 0.4520(8)
O3 O 0.1339(8) 0.0332(8) -0.0825(6)
N4 N 0.1381(9) -0.0730(8) 0.1839(7)
N5 N 0.4356(9) -0.0739(8) 0.3174(7)
N6 N 0.1778(8) 0.0415(9) 0.3391(7)
O4 O 0.3280(9) 0.0631(9) 0.5643(6)
C1 C 0.0893(12) 0.2581(11) 0.3349(10)
H1 H 0.1452 0.2562 0.3732
H2 H 0.0144 0.2635 0.3834
C2 C 0.3523(11) 0.0097(12) 0.0515(9)
H3 H 0.3499 0.0716 0.0076
C3 C 0.1355(11) 0.0421(11) 0.4364(9)
H4 H 0.0857 0.1118 0.4686
C4 C -0.0007(13) 0.2182(12) -0.0266(10)
C5 C 0.0874(10) -0.0483(10) 0.1224(8)
C6 C 0.4586(10) -0.0431(11) 0.3785(9)
C7 C 0.1454(12) 0.1503(11) 0.2732(9)
H5 H 0.0864 0.1536 0.2367
C8 C 0.4253(11) -0.2052(13) 0.0608(9)
C9 C 0.2230(12) -0.1706(13) 0.4622(9)
C10 C 0.1143(13) 0.1409(12) -0.0910(10)
C11 C 0.2317(12) 0.2402(10) 0.1192(9)
H6 H 0.3054 0.2330 0.0679
H7 H 0.1727 0.2420 0.0844
C12 C 0.4068(11) -0.1045(12) 0.0079(8)
C13 C 0.3410(16) 0.2364(15) 0.4874(11)
C14 C 0.1622(12) -0.0615(14) 0.4982(9)
C15 C 0.2726(15) 0.1771(14) 0.5510(10)
C16 C 0.1194(11) -0.0460(13) 0.6071(9)
H8 H 0.0788 0.0272 0.6335
C17 C 0.2603(12) 0.1382(11) 0.1954(9)
H9 H 0.3191 0.1380 0.2305
C18 C 0.1379(12) -0.1377(15) 0.6713(10)
H10 H 0.1093 -0.1264 0.7418
C19 C 0.4873(13) -0.2020(16) -0.1499(10)
H11 H 0.5101 -0.2013 -0.2214
C20 C 0.2397(12) -0.2648(12) 0.5284(9)
H12 H 0.2779 -0.3381 0.5022
C21 C 0.4383(11) -0.1066(14) -0.1024(10)
H13 H 0.4232 -0.0385 -0.1400
C22 C 0.1456(14) 0.2531(13) 0.5940(10)
H14 H 0.0934 0.2242 0.6373
C23 C 0.2924(15) 0.3602(14) 0.4657(11)
C24 C -0.1801(13) 0.2329(12) 0.0805(10)
H15 H -0.2308 0.1989 0.1165
C25 C 0.4787(12) -0.3085(13) 0.0085(9)
H16 H 0.4947 -0.3772 0.0451
C26 C 0.1986(14) -0.2486(14) 0.6350(10)
H17 H 0.2117 -0.3108 0.6804
C27 C -0.2228(13) 0.3535(12) 0.0879(10)
H18 H -0.3000 0.3964 0.1277
C28 C 0.5338(16) 0.2084(15) 0.3962(11)
H19 H 0.6150 0.1593 0.3705
C29 C 0.3742(17) 0.3969(15) 0.4072(10)
H20 H 0.3465 0.4740 0.3890
C30 C 0.1894(14) 0.1921(15) -0.1516(12)
H21 H 0.2632 0.1463 -0.1944
C31 C 0.1569(15) 0.3091(15) -0.1496(13)
H22 H 0.2077 0.3401 -0.1917
C32 C 0.5073(13) -0.3074(15) -0.0968(11)
H23 H 0.5393 -0.3746 -0.1326
C33 C -0.1485(13) 0.4065(13) 0.0353(10)
H24 H -0.1742 0.4845 0.0410
C34 C 0.1030(14) 0.3691(13) 0.5696(10)
H25 H 0.0215 0.4156 0.5977
C35 C -0.0322(14) 0.3390(11) -0.0274(10)
C36 C 0.0618(13) 0.3634(10) 0.2600(9)
H26 H -0.0002 0.3697 0.2268
H27 H 0.0317 0.4326 0.2979
C37 C 0.4897(18) 0.3319(16) 0.3745(11)
H28 H 0.5433 0.3628 0.3380
C38 C 0.1807(12) 0.3481(12) 0.1784(11)
H29 H 0.1642 0.4130 0.1310
H30 H 0.2408 0.3458 0.2120
C39 C 0.0522(17) 0.3767(16) -0.0867(12)
H31 H 0.0358 0.4531 -0.0830
C40 C 0.1729(14) 0.4197(14) 0.5072(10)
H32 H 0.1365 0.4976 0.4930
Mn1A Mn -0.29269(17) 0.09206(16) -0.25350(13)
O1A O -0.4027(7) 0.2123(7) -0.1638(6)
O2A O -0.2664(7) 0.1938(6) -0.3600(6)
N1A N -0.3078(9) -0.0266(8) -0.1488(6)
N2A N 0.0775(11) -0.1715(10) -0.0278(8)
O3A O -0.1339(8) -0.0332(8) 0.0825(6)
N4A N -0.1381(9) 0.0730(8) -0.1839(7)
N5A N -0.4356(9) 0.0739(8) -0.3174(7)
N6A N -0.1778(8) -0.0415(9) -0.3391(7)
C1A C -0.0893(12) -0.2581(11) -0.3349(10)
H1A H -0.1452 -0.2562 -0.3732
H2A H -0.0144 -0.2635 -0.3834
C2A C -0.3523(11) -0.0097(12) -0.0515(9)
H3A H -0.3499 -0.0716 -0.0076
C3A C -0.1355(11) -0.0421(11) -0.4364(9)
H4A H -0.0857 -0.1118 -0.4686
C4A C 0.0007(13) -0.2182(12) 0.0266(10)
C5A C -0.0874(10) 0.0483(10) -0.1224(8)
C6A C -0.4586(10) 0.0431(11) -0.3785(9)
C7A C -0.1454(12) -0.1503(11) -0.2732(9)
H5A H -0.0864 -0.1536 -0.2367
C8A C -0.4253(11) 0.2052(13) -0.0608(9)
C9A C -0.2230(12) 0.1706(13) -0.4622(9)
C10A C -0.1143(13) -0.1409(12) 0.0910(10)
C11A C -0.2317(12) -0.2402(10) -0.1192(9)
H6A H -0.3054 -0.2330 -0.0679
H7A H -0.1727 -0.2420 -0.0844
C12A C -0.4068(11) 0.1045(12) -0.0079(8)
C14A C -0.1622(12) 0.0615(14) -0.4982(9)
C16A C -0.1194(11) 0.0460(13) -0.6071(9)
H8A H -0.0788 -0.0272 -0.6335
C17A C -0.2603(12) -0.1382(11) -0.1954(9)
H9A H -0.3191 -0.1380 -0.2305
C18A C -0.1379(12) 0.1377(15) -0.6713(10)
H10A H -0.1093 0.1264 -0.7418
C19A C -0.4873(13) 0.2020(16) 0.1499(10)
H11A H -0.5101 0.2013 0.2214
C20A C -0.2397(12) 0.2648(12) -0.5284(9)
H12A H -0.2779 0.3381 -0.5022
C21A C -0.4383(11) 0.1066(14) 0.1024(10)
H13A H -0.4232 0.0385 0.1400
C24A C 0.1801(13) -0.2329(12) -0.0805(10)
H15A H 0.2308 -0.1989 -0.1165
C25A C -0.4787(12) 0.3085(13) -0.0085(9)
H16A H -0.4947 0.3772 -0.0451
C26A C -0.1986(14) 0.2486(14) -0.6350(10)
H17A H -0.2117 0.3108 -0.6804
C27A C 0.2228(13) -0.3535(12) -0.0879(10)
H18A H 0.3000 -0.3964 -0.1277
C30A C -0.1894(14) -0.1921(15) 0.1516(12)
H21A H -0.2632 -0.1463 0.1944
C31A C -0.1569(15) -0.3091(15) 0.1496(13)
H22A H -0.2077 -0.3401 0.1917
C32A C -0.5073(13) 0.3074(15) 0.0968(11)
H23A H -0.5393 0.3746 0.1326
C33A C 0.1485(13) -0.4065(13) -0.0353(10)
H24A H 0.1742 -0.4845 -0.0410
C35A C 0.0322(14) -0.3390(11) 0.0274(10)
C36A C -0.0618(13) -0.3634(10) -0.2600(9)
H26A H 0.0002 -0.3697 -0.2268
H27A H -0.0317 -0.4326 -0.2979
C38A C -0.1807(12) -0.3481(12) -0.1784(11)
H29A H -0.1642 -0.4130 -0.1310
H30A H -0.2408 -0.3458 -0.2120
C39A C -0.0522(17) -0.3767(16) 0.0867(12)
H31A H -0.0358 -0.4531 0.0830
N3A N 0.5427(13) -0.1689(11) 0.5480(8)
O4A O 0.6720(9) -0.0631(9) 0.4357(6)
C13A C 0.6590(16) -0.2364(15) 0.5126(11)
C15A C 0.7274(15) -0.1771(14) 0.4490(10)
C22A C 0.8544(14) -0.2531(13) 0.4060(10)
H14A H 0.9066 -0.2242 0.3627
C23A C 0.7076(15) -0.3602(14) 0.5343(11)
C28A C 0.4662(16) -0.2084(15) 0.6038(11)
H19A H 0.3850 -0.1593 0.6295
C29A C 0.6258(17) -0.3969(15) 0.5928(10)
H20A H 0.6535 -0.4740 0.6110
C34A C 0.8970(14) -0.3691(13) 0.4304(10)
H25A H 0.9785 -0.4156 0.4023
C37A C 0.5103(18) -0.3319(16) 0.6255(11)
H28A H 0.4567 -0.3628 0.6620
C40A C 0.8271(14) -0.4197(14) 0.4928(10)
H32A H 0.8635 -0.4976 0.5070
Ru1_2 Ru -0.5000 0.0000 -0.5000
C6A_2 C 0.5414(10) 0.0431(11) 0.6215(9)
O5 O 0.1716(13) 0.6567(12) 0.3235(9)
H33 H 0.2000 0.7017 0.3262
C41 C 0.194(2) 0.6297(17) 0.2228(13)
H34 H 0.1515 0.6966 0.1856
H35 H 0.1674 0.5721 0.2200
H36 H 0.2805 0.6014 0.1925
O6 O 0.5504(17) 0.5749(11) 0.2516(10)
H37 H 0.5524 0.6235 0.2066
C42 C 0.5775(17) 0.5979(15) 0.3375(13)
H38 H 0.6021 0.6594 0.3213
H39 H 0.6426 0.5310 0.3565
H40 H 0.5065 0.6191 0.3937
loop_
_geom_bond_atom_site_label_1
_geom_bond_atom_site_label_2
_geom_bond_site_symmetry_1
_geom_bond_site_symmetry_2
Ru1 N3 1_555 1_555
Ru2 N2 1_555 1_555
Mn1 O1 1_555 1_555
O1 C8 1_555 1_555
O2 Mn1 1_555 1_555
N1 Mn1 1_555 1_555
N2 C4 1_555 1_555
N3 C13 1_555 1_555
O3 Ru2 1_555 1_555
N4 Mn1 1_555 1_555
N5 Mn1 1_555 1_555
N6 Mn1 1_555 1_555
O4 Ru1 1_555 1_555
C1 H1 1_555 1_555
H2 C1 1_555 1_555
C2 N1 1_555 1_555
H3 C2 1_555 1_555
C3 N6 1_555 1_555
H4 C3 1_555 1_555
C4 C10 1_555 1_555
C5 Ru2 1_555 1_555
C6 Ru1 1_555 1_555
C7 N6 1_555 1_555
H5 C7 1_555 1_555
C8 C12 1_555 1_555
C9 O2 1_555 1_555
C10 O3 1_555 1_555
C11 H6 1_555 1_555
H7 C11 1_555 1_555
C12 C2 1_555 1_555
C13 C15 1_555 1_555
C14 C3 1_555 1_555
C15 O4 1_555 1_555
C16 C14 1_555 1_555
H8 C16 1_555 1_555
C17 N1 1_555 1_555
H9 C17 1_555 1_555
C18 C16 1_555 1_555
H10 C18 1_555 1_555
C19 H11 1_555 1_555
C20 C9 1_555 1_555
H12 C20 1_555 1_555
C21 C12 1_555 1_555
H13 C21 1_555 1_555
C22 C15 1_555 1_555
H14 C22 1_555 1_555
C23 C13 1_555 1_555
C24 N2 1_555 1_555
H15 C24 1_555 1_555
C25 C8 1_555 1_555
H16 C25 1_555 1_555
C26 C18 1_555 1_555
H17 C26 1_555 1_555
C27 C24 1_555 1_555
H18 C27 1_555 1_555
C28 N3 1_555 1_555
H19 C28 1_555 1_555
C29 C23 1_555 1_555
H20 C29 1_555 1_555
C30 C10 1_555 1_555
H21 C30 1_555 1_555
C31 C30 1_555 1_555
H22 C31 1_555 1_555
C32 C19 1_555 1_555
H23 C32 1_555 1_555
C33 C27 1_555 1_555
H24 C33 1_555 1_555
C34 C22 1_555 1_555
H25 C34 1_555 1_555
C35 C4 1_555 1_555
C36 C1 1_555 1_555
H26 C36 1_555 1_555
H27 C36 1_555 1_555
C37 C28 1_555 1_555
H28 C37 1_555 1_555
C38 C11 1_555 1_555
H29 C38 1_555 1_555
H30 C38 1_555 1_555
C39 C31 1_555 1_555
H31 C39 1_555 1_555
C40 C23 1_555 1_555
H32 C40 1_555 1_555
O5 H33 1_555 1_555
C41 O5 1_555 1_555
H34 C41 1_555 1_555
H35 C41 1_555 1_555
H36 C41 1_555 1_555
O6 H37 1_555 1_555
C42 O6 1_555 1_555
H38 C42 1_555 1_555
H39 C42 1_555 1_555
H40 C42 1_555 1_555
Mn1A O1A 1_555 1_555
O1A C8A 1_555 1_555
O2A Mn1A 1_555 1_555
N1A Mn1A 1_555 1_555
N2A Ru2 1_555 1_555
O3A Ru2 1_555 1_555
N4A Mn1A 1_555 1_555
N5A Mn1A 1_555 1_555
N6A Mn1A 1_555 1_555
C1A H1A 1_555 1_555
H2A C1A 1_555 1_555
C2A N1A 1_555 1_555
H3A C2A 1_555 1_555
C3A N6A 1_555 1_555
H4A C3A 1_555 1_555
C4A N2A 1_555 1_555
C5A Ru2 1_555 1_555
C6A N5A 1_555 1_555
C7A N6A 1_555 1_555
H5A C7A 1_555 1_555
C8A C12A 1_555 1_555
C9A O2A 1_555 1_555
C10A O3A 1_555 1_555
C11A H6A 1_555 1_555
H7A C11A 1_555 1_555
C12A C2A 1_555 1_555
C14A C3A 1_555 1_555
C16A C14A 1_555 1_555
H8A C16A 1_555 1_555
C17A N1A 1_555 1_555
H9A C17A 1_555 1_555
C18A C16A 1_555 1_555
H10A C18A 1_555 1_555
C19A H11A 1_555 1_555
C20A C9A 1_555 1_555
H12A C20A 1_555 1_555
C21A C12A 1_555 1_555
H13A C21A 1_555 1_555
C24A N2A 1_555 1_555
H15A C24A 1_555 1_555
C25A C8A 1_555 1_555
H16A C25A 1_555 1_555
C26A C18A 1_555 1_555
H17A C26A 1_555 1_555
C27A C24A 1_555 1_555
H18A C27A 1_555 1_555
C30A C10A 1_555 1_555
H21A C30A 1_555 1_555
C31A C30A 1_555 1_555
H22A C31A 1_555 1_555
C32A C19A 1_555 1_555
H23A C32A 1_555 1_555
C33A C27A 1_555 1_555
H24A C33A 1_555 1_555
C35A C4A 1_555 1_555
C36A C1A 1_555 1_555
H26A C36A 1_555 1_555
H27A C36A 1_555 1_555
C38A C11A 1_555 1_555
H29A C38A 1_555 1_555
H30A C38A 1_555 1_555
C39A C31A 1_555 1_555
H31A C39A 1_555 1_555
N3A Ru1 1_555 1_555
O4A Ru1 1_555 1_555
C13A N3A 1_555 1_555
C15A O4A 1_555 1_555
C22A C15A 1_555 1_555
H14A C22A 1_555 1_555
C23A C13A 1_555 1_555
C28A N3A 1_555 1_555
H19A C28A 1_555 1_555
C29A C23A 1_555 1_555
H20A C29A 1_555 1_555
C34A C22A 1_555 1_555
H25A C34A 1_555 1_555
C37A C28A 1_555 1_555
H28A C37A 1_555 1_555
C40A C23A 1_555 1_555
H32A C40A 1_555 1_555
Ru1_2 C6A 1_555 1_555
C6A_2 Ru1 1_555 1_555
N4 C5 1_555 1_555
N5 C6 1_555 1_555
C1 C7 1_555 1_555
C7 C17 1_555 1_555
C9 C14 1_555 1_555
C11 C17 1_555 1_555
C19 C21 1_555 1_555
C20 C26 1_555 1_555
C25 C32 1_555 1_555
C29 C37 1_555 1_555
C33 C35 1_555 1_555
C34 C40 1_555 1_555
C35 C39 1_555 1_555
C36 C38 1_555 1_555
N4A C5A 1_555 1_555
C1A C7A 1_555 1_555
C4A C10A 1_555 1_555
C7A C17A 1_555 1_555
C9A C14A 1_555 1_555
C11A C17A 1_555 1_555
C19A C21A 1_555 1_555
C20A C26A 1_555 1_555
C25A C32A 1_555 1_555
C33A C35A 1_555 1_555
C35A C39A 1_555 1_555
C36A C38A 1_555 1_555
C13A C15A 1_555 1_555
C29A C37A 1_555 1_555
C34A C40A 1_555 1_555

#END
