
#######################################################################
#
#                 Cambridge Crystallographic Data Centre
#                                CCDC 
#
#######################################################################
#
# If this CIF has been generated from an entry in the Cambridge 
# Structural Database, then it will include bibliographic, chemical, 
# crystal, experimental, refinement or atomic coordinate data resulting 
# from the CCDC's data processing and validation procedures.
#
#######################################################################

data_FESKAQ
_symmetry_cell_setting           monoclinic
_symmetry_space_group_name_H-M   'P 21/n'
_symmetry_Int_Tables_number      14
_space_group_name_Hall           '-P 2yn'
loop_
_symmetry_equiv_pos_site_id
_symmetry_equiv_pos_as_xyz
1 x,y,z
2 1/2-x,1/2+y,1/2-z
3 -x,-y,-z
4 1/2+x,1/2-y,1/2+z
_cell_length_a                   17.096(3)
_cell_length_b                   9.765(2)
_cell_length_c                   6.3166(8)
_cell_angle_alpha                90
_cell_angle_beta                 90.42(1)
_cell_angle_gamma                90
_cell_volume                     1054.48
loop_
_atom_site_label
_atom_site_type_symbol
_atom_site_fract_x
_atom_site_fract_y
_atom_site_fract_z
La1 La 0.4326(1) 0.1821(2) 0.3845(2)
O1 O 0.5618(7) 0.034(1) 0.368(2)
O2 O 0.5720(8) 0.237(1) 0.224(2)
O3 O 0.7039(7) -0.250(1) -0.267(2)
O4 O 0.8300(7) -0.270(1) -0.194(2)
O5 O 0.5669(7) -0.210(1) 0.001(2)
O6 O 0.6451(7) -0.213(1) 0.293(2)
O7 O 0.6359(7) 0.003(1) -0.147(2)
C1 C 0.6033(9) 0.124(2) 0.256(3)
C2 C 0.688(1) 0.068(2) 0.187(3)
C3 C 0.6728(9) -0.057(2) 0.040(3)
C4 C 0.761(1) -0.084(2) -0.003(3)
C5 C 0.7662(8) -0.206(2) -0.174(3)
C6 C 0.618(1) -0.176(3) 0.116(3)
O8 O 0.5194(6) 0.288(1) 0.677(2)
O9 O 0.4324(7) 0.446(1) 0.295(2)
La1B La 0.5674(1) -0.1821(2) 0.6155(2)
La1B_2 La 0.5674(1) -0.1821(2) -0.3845(2)
O1B O 0.4382(7) -0.034(1) 0.632(2)
O3B O 0.2961(7) 0.250(1) 0.267(2)
O5B O 0.4331(7) 0.210(1) -0.001(2)
O6B O 0.3549(7) 0.213(1) 0.707(2)
O7B O 0.3641(7) -0.003(1) 0.147(2)
O10 O 0.1301(6) 0.011(1) 0.574(2)
loop_
_geom_bond_atom_site_label_1
_geom_bond_atom_site_label_2
_geom_bond_site_symmetry_1
_geom_bond_site_symmetry_2
La1 O1 1_555 1_555
O1 C1 1_555 1_555
O2 La1 1_555 1_555
O3 C5 1_555 1_555
O4 C5 1_555 1_555
O5 C6 1_555 1_555
O6 C6 1_555 1_555
O7 C3 1_555 1_555
C1 O2 1_555 1_555
C2 C1 1_555 1_555
C3 C2 1_555 1_555
C4 C3 1_555 1_555
C5 C4 1_555 1_555
C6 C3 1_555 1_555
O8 La1 1_555 1_555
O9 La1 1_555 1_555
La1B O1 1_555 1_555
La1B_2 O3 1_555 1_555
O1B La1 1_555 1_555
O3B La1 1_555 1_555
O5B La1 1_555 1_555
O6B La1 1_555 1_555
O7B La1 1_555 1_555
O5 La1B_2 1_555 1_555
O6 La1B 1_555 1_555
O7 La1B_2 1_555 1_555
La1B O1B 1_555 1_555

#END
