
#######################################################################
#
#                 Cambridge Crystallographic Data Centre
#                                CCDC 
#
#######################################################################
#
# If this CIF has been generated from an entry in the Cambridge 
# Structural Database, then it will include bibliographic, chemical, 
# crystal, experimental, refinement or atomic coordinate data resulting 
# from the CCDC's data processing and validation procedures.
#
#######################################################################

data_FESKOF
_symmetry_cell_setting           monoclinic
_symmetry_space_group_name_H-M   'P 21/c'
_symmetry_Int_Tables_number      14
_space_group_name_Hall           '-P 2ybc'
loop_
_symmetry_equiv_pos_site_id
_symmetry_equiv_pos_as_xyz
1 x,y,z
2 -x,1/2+y,1/2-z
3 -x,-y,-z
4 x,1/2-y,1/2+z
_cell_length_a                   16.4268(9)
_cell_length_b                   8.3969(4)
_cell_length_c                   9.8644(6)
_cell_angle_alpha                90
_cell_angle_beta                 90.462(3)
_cell_angle_gamma                90
_cell_volume                     1360.59
loop_
_atom_site_label
_atom_site_type_symbol
_atom_site_fract_x
_atom_site_fract_y
_atom_site_fract_z
Ca1 Ca 0.9898(3) 0.4257(5) 0.3179(4)
B1 B 0.8606(3) 0.2554(5) 0.5774(4)
O1 O 0.8914(5) 0.3941(7) 0.6602(8)
O2 O 0.8680(6) 0.1115(7) 0.6679(8)
O3 O 0.9234(5) 0.2330(10) 0.4689(7)
C1 C 0.7720(3) 0.284(2) 0.5089(6)
C2 C 0.7085(3) 0.310(2) 0.6207(6)
C3 C 0.6243(3) 0.346(2) 0.5568(6)
C4 C 0.5559(5) 0.3530(18) 0.6612(10)
B2 B 1.1064(2) 0.2433(5) 0.1392(4)
O4 O 1.0592(6) 0.3889(7) 0.0963(8)
O5 O 1.0832(6) 0.1157(9) 0.0380(8)
O6 O 1.0679(6) 0.1914(11) 0.2700(6)
C5 C 1.2039(3) 0.265(2) 0.1565(6)
C6 C 1.2488(4) 0.291(2) 0.0221(6)
C7 C 1.3394(3) 0.3319(18) 0.0477(6)
C8 C 1.3856(6) 0.357(2) -0.0848(8)
Ca1A Ca 1.0102(3) -0.0743(5) 0.1821(4)
Ca1B Ca 1.0102(3) 0.5743(5) 0.6821(4)
Ca1C Ca 0.9898(3) 0.0743(5) -0.1821(4)
Ca1C_2 Ca 0.9898(3) 0.0743(5) 0.8179(4)
O1B O 1.1086(5) 0.6059(7) 0.3398(8)
O2C O 0.8680(6) 0.3885(7) 0.1679(8)
O5A O 0.9168(6) 0.6157(9) 0.4620(8)
O5C O 1.0832(6) 0.3843(9) 0.5380(8)
O6A O 0.9321(6) 0.6914(11) 0.2300(6)
loop_
_geom_bond_atom_site_label_1
_geom_bond_atom_site_label_2
_geom_bond_site_symmetry_1
_geom_bond_site_symmetry_2
Ca1 O3 1_555 1_555
B1 O1 1_555 1_555
O1 Ca1B 1_555 1_555
O2 B1 1_555 1_555
O3 B1 1_555 1_555
C1 B1 1_555 1_555
C2 C1 1_555 1_555
C3 C2 1_555 1_555
C4 C3 1_555 1_555
B2 O4 1_555 1_555
O4 Ca1 1_555 1_555
O5 B2 1_555 1_555
O6 Ca1 1_555 1_555
C5 B2 1_555 1_555
C6 C5 1_555 1_555
C7 C6 1_555 1_555
C8 C7 1_555 1_555
Ca1A O5 1_555 1_555
Ca1B O5A 1_555 1_555
Ca1C O5 1_555 1_555
Ca1C_2 O2 1_555 1_555
O1B Ca1 1_555 1_555
O2C Ca1 1_555 1_555
O5A Ca1 1_555 1_555
O5C Ca1 1_555 1_555
O6A Ca1 1_555 1_555
B2 O6 1_555 1_555
O6 Ca1A 1_555 1_555
Ca1B O5C 1_555 1_555

#END
