
#######################################################################
#
#                 Cambridge Crystallographic Data Centre
#                                CCDC 
#
#######################################################################
#
# If this CIF has been generated from an entry in the Cambridge 
# Structural Database, then it will include bibliographic, chemical, 
# crystal, experimental, refinement or atomic coordinate data resulting 
# from the CCDC's data processing and validation procedures.
#
#######################################################################

data_FESLOF
_symmetry_cell_setting           orthorhombic
_symmetry_space_group_name_H-M   'P b c a'
_symmetry_Int_Tables_number      61
_space_group_name_Hall           '-P 2ac 2ab'
loop_
_symmetry_equiv_pos_site_id
_symmetry_equiv_pos_as_xyz
1 x,y,z
2 1/2+x,1/2-y,-z
3 -x,1/2+y,1/2-z
4 1/2-x,-y,1/2+z
5 -x,-y,-z
6 1/2-x,1/2+y,z
7 x,1/2-y,1/2+z
8 1/2+x,y,1/2-z
_cell_length_a                   16.8821(5)
_cell_length_b                   19.0164(6)
_cell_length_c                   7.34180(13)
_cell_angle_alpha                90
_cell_angle_beta                 90
_cell_angle_gamma                90
_cell_volume                     2356.99
loop_
_atom_site_label
_atom_site_type_symbol
_atom_site_fract_x
_atom_site_fract_y
_atom_site_fract_z
C1 C 0.3442(5) 0.2266(7) -0.0298(21)
C2 C 0.3112(6) 0.1612(5) 0.0052(21)
C3 C 0.0166(8) -0.1054(4) 0.2420(23)
C4 C 0.0819(6) -0.0680(7) 0.1857(23)
C5 C -0.0532(6) -0.0713(6) 0.2854(22)
Cu1 Cu 0.17175(16) 0.06769(14) 0.1218(4)
N1 N 0.2339(7) 0.1581(4) 0.0517(17)
C6 C -0.0552(6) 0.0017(6) 0.2851(24)
C7 C 0.2960(7) 0.2855(5) -0.0390(19)
N2 N 0.0780(5) 0.0040(6) 0.1911(19)
C8 C 0.0103(8) 0.0387(4) 0.2259(25)
N3 N 0.0862(6) 0.1376(6) 0.1636(20)
C9 C 0.2178(6) 0.2805(5) 0.0196(21)
C10 C 0.1864(5) 0.2161(6) 0.0602(23)
C11 C 0.0140(7) 0.1155(5) 0.2208(27)
O1 O -0.0475(6) 0.1496(6) 0.2392(15)
C12 C 0.1045(6) 0.2048(6) 0.1161(32)
O2 O 0.0608(6) 0.2561(5) 0.1356(19)
C13 C 0.2362(10) -0.0017(9) -0.0233(24)
N4 N 0.2716(7) -0.0411(6) -0.1054(21)
H1 H 0.34894 0.12388 -0.00508
H2 H 0.40221 0.23433 -0.05595
H3 H 0.32022 0.33248 -0.06561
H4 H 0.18861 0.32115 0.02639
H5 H 0.01458 -0.15646 0.24545
H6 H -0.10247 0.02547 0.30868
H7 H -0.09997 -0.09707 0.32202
H8 H 0.12735 -0.09612 0.16325
Cu1C Cu 0.32825(16) -0.06769(14) -0.3782(4)
N4C N 0.2284(7) 0.0411(6) 0.3946(21)
loop_
_geom_bond_atom_site_label_1
_geom_bond_atom_site_label_2
_geom_bond_site_symmetry_1
_geom_bond_site_symmetry_2
C1 C2 1_555 1_555
C2 N1 1_555 1_555
C3 C4 1_555 1_555
C4 N2 1_555 1_555
C5 C3 1_555 1_555
Cu1 N1 1_555 1_555
N1 C10 1_555 1_555
C6 C5 1_555 1_555
C7 C1 1_555 1_555
N2 Cu1 1_555 1_555
C8 C6 1_555 1_555
N3 Cu1 1_555 1_555
C9 C7 1_555 1_555
C10 C9 1_555 1_555
C11 C8 1_555 1_555
O1 C11 1_555 1_555
C12 N3 1_555 1_555
O2 C12 1_555 1_555
C13 Cu1 1_555 1_555
N4 C13 1_555 1_555
H1 C2 1_555 1_555
H2 C1 1_555 1_555
H3 C7 1_555 1_555
H4 C9 1_555 1_555
H5 C3 1_555 1_555
H6 C6 1_555 1_555
H7 C5 1_555 1_555
H8 C4 1_555 1_555
Cu1C N4 1_555 1_555
N4C Cu1 1_555 1_555
N2 C8 1_555 1_555
N3 C11 1_555 1_555
C10 C12 1_555 1_555

#END
