
#######################################################################
#
#                 Cambridge Crystallographic Data Centre
#                                CCDC 
#
#######################################################################
#
# If this CIF has been generated from an entry in the Cambridge 
# Structural Database, then it will include bibliographic, chemical, 
# crystal, experimental, refinement or atomic coordinate data resulting 
# from the CCDC's data processing and validation procedures.
#
#######################################################################

data_FESXOS
_symmetry_cell_setting           triclinic
_symmetry_space_group_name_H-M   'P -1'
_symmetry_Int_Tables_number      2
_space_group_name_Hall           '-P 1'
loop_
_symmetry_equiv_pos_site_id
_symmetry_equiv_pos_as_xyz
1 x,y,z
2 -x,-y,-z
_cell_length_a                   8.0394(14)
_cell_length_b                   8.8500(15)
_cell_length_c                   9.4594(16)
_cell_angle_alpha                90.930(2)
_cell_angle_beta                 97.192(2)
_cell_angle_gamma                102.019(2)
_cell_volume                     652.47
loop_
_atom_site_label
_atom_site_type_symbol
_atom_site_fract_x
_atom_site_fract_y
_atom_site_fract_z
Co1 Co 0.5000 0.0000 0.5000
Co2 Co 1.0000 0.0000 0.0000
O1 O 1.1679(2) 0.3411(2) 0.71182(19)
O2 O 0.3325(2) -0.2654(2) 0.13008(19)
O3 O 0.3515(2) -0.1673(2) 0.35161(19)
N1 N 0.8298(3) 0.0291(2) 0.1509(2)
C1 C 0.4130(3) -0.1781(3) 0.2373(3)
C2 C 1.0354(3) 0.3206(3) 0.2728(3)
H1 H 1.0060 0.3135 0.1743
C3 C 0.6795(3) -0.0748(3) 0.1123(3)
C4 C 0.5844(3) -0.0862(3) 0.2248(2)
C5 C 0.9997(3) 0.2174(3) 0.5045(3)
H2 H 0.9460 0.1429 0.5617
C6 C 1.1276(3) 0.3414(3) 0.5659(3)
C7 C 0.8195(3) 0.0802(3) 0.2849(3)
C8 C 0.9534(3) 0.2063(3) 0.3573(3)
C9 C 1.2072(3) 0.4556(3) 0.4828(3)
H3 H 1.2907 0.5387 0.5245
C10 C 1.3000(4) 0.4648(3) 0.7788(3)
H4 H 1.4059 0.4622 0.7429
H5 H 1.3138 0.4533 0.8801
H6 H 1.2687 0.5619 0.7583
C11 C 1.1592(3) 0.4431(3) 0.3356(3)
H7 H 1.2116 0.5186 0.2788
O4 O 0.7556(2) -0.1114(2) -0.11427(18)
O5 O 0.5019(2) -0.2426(2) -0.0712(2)
O6 O 0.9850(2) 0.2104(2) -0.0862(2)
H8 H 0.8840 0.2140 -0.1083
O7 O 0.6094(3) -0.1695(2) 0.60211(19)
H9 H 0.6434 -0.1417 0.6857
N2 N 0.6723(3) 0.0119(2) 0.3344(2)
C12 C 0.6446(3) -0.1467(3) -0.0318(3)
H10 H 0.440(5) -0.256(5) 0.008(4)
O1A O -0.1679(2) -0.3411(2) 0.28818(19)
O2A O 0.6675(2) 0.2654(2) 0.86992(19)
O3A O 0.6485(2) 0.1673(2) 0.64839(19)
N1A N 0.1702(3) -0.0291(2) 0.8491(2)
C1A C 0.5870(3) 0.1781(3) 0.7627(3)
C2A C -0.0354(3) -0.3206(3) 0.7272(3)
H1A H -0.0060 -0.3135 0.8257
C3A C 0.3205(3) 0.0748(3) 0.8877(3)
C4A C 0.4156(3) 0.0862(3) 0.7752(2)
C5A C 0.0003(3) -0.2174(3) 0.4955(3)
H2A H 0.0540 -0.1429 0.4383
C6A C -0.1276(3) -0.3414(3) 0.4341(3)
C7A C 0.1805(3) -0.0802(3) 0.7151(3)
C8A C 0.0466(3) -0.2063(3) 0.6427(3)
C9A C -0.2072(3) -0.4556(3) 0.5172(3)
H3A H -0.2907 -0.5387 0.4755
C10A C -0.3000(4) -0.4648(3) 0.2212(3)
H4A H -0.4059 -0.4622 0.2571
H5A H -0.3138 -0.4533 0.1199
H6A H -0.2687 -0.5619 0.2417
C11A C -0.1592(3) -0.4431(3) 0.6644(3)
H7A H -0.2116 -0.5186 0.7212
O4A O 0.2444(2) 0.1114(2) 1.11427(18)
O5A O 0.4981(2) 0.2426(2) 1.0712(2)
O7A O 0.3906(3) 0.1695(2) 0.39789(19)
H9A H 0.3566 0.1417 0.3143
N2A N 0.3277(3) -0.0119(2) 0.6656(2)
C12A C 0.3554(3) 0.1467(3) 1.0318(3)
H10A H 0.560(5) 0.256(5) 0.992(4)
O6A O 1.0150(2) -0.2104(2) 0.0862(2)
H8A H 1.1160 -0.2140 0.1083
Co2_2 Co 0.0000 0.0000 1.0000
N1A_2 N 1.1702(3) -0.0291(2) -0.1509(2)
O4A_2 O 1.2444(2) 0.1114(2) 0.11427(18)
loop_
_geom_bond_atom_site_label_1
_geom_bond_atom_site_label_2
_geom_bond_site_symmetry_1
_geom_bond_site_symmetry_2
Co1 O3 1_555 1_555
Co2 N1 1_555 1_555
O1 C6 1_555 1_555
O2 C1 1_555 1_555
O3 C1 1_555 1_555
N1 C3 1_555 1_555
C1 C4 1_555 1_555
C2 H1 1_555 1_555
C3 C4 1_555 1_555
C4 N2 1_555 1_555
C5 H2 1_555 1_555
C6 C5 1_555 1_555
C7 N1 1_555 1_555
C8 C2 1_555 1_555
C9 C6 1_555 1_555
H3 C9 1_555 1_555
C10 O1 1_555 1_555
H4 C10 1_555 1_555
H5 C10 1_555 1_555
H6 C10 1_555 1_555
C11 C2 1_555 1_555
H7 C11 1_555 1_555
O4 Co2 1_555 1_555
O5 C12 1_555 1_555
O6 Co2 1_555 1_555
H8 O6 1_555 1_555
O7 Co1 1_555 1_555
H9 O7 1_555 1_555
N2 Co1 1_555 1_555
C12 C3 1_555 1_555
H10 O5 1_555 1_555
O1A C6A 1_555 1_555
O2A C1A 1_555 1_555
O3A Co1 1_555 1_555
N1A C3A 1_555 1_555
C1A O3A 1_555 1_555
C2A H1A 1_555 1_555
C3A C4A 1_555 1_555
C4A C1A 1_555 1_555
C5A H2A 1_555 1_555
C6A C5A 1_555 1_555
C7A N1A 1_555 1_555
C8A C2A 1_555 1_555
C9A C6A 1_555 1_555
H3A C9A 1_555 1_555
C10A O1A 1_555 1_555
H4A C10A 1_555 1_555
H5A C10A 1_555 1_555
H6A C10A 1_555 1_555
C11A C2A 1_555 1_555
H7A C11A 1_555 1_555
O4A C12A 1_555 1_555
O5A C12A 1_555 1_555
O7A Co1 1_555 1_555
H9A O7A 1_555 1_555
N2A Co1 1_555 1_555
C12A C3A 1_555 1_555
H10A O5A 1_555 1_555
O6A Co2 1_555 1_555
H8A O6A 1_555 1_555
Co2_2 N1A 1_555 1_555
N1A_2 Co2 1_555 1_555
O4A_2 Co2 1_555 1_555
C5 C8 1_555 1_555
C7 C8 1_555 1_555
C7 N2 1_555 1_555
C9 C11 1_555 1_555
O4 C12 1_555 1_555
C4A N2A 1_555 1_555
C5A C8A 1_555 1_555
C7A C8A 1_555 1_555
C7A N2A 1_555 1_555
C9A C11A 1_555 1_555
O4A Co2_2 1_555 1_555

#END
