
#######################################################################
#
#                 Cambridge Crystallographic Data Centre
#                                CCDC 
#
#######################################################################
#
# If this CIF has been generated from an entry in the Cambridge 
# Structural Database, then it will include bibliographic, chemical, 
# crystal, experimental, refinement or atomic coordinate data resulting 
# from the CCDC's data processing and validation procedures.
#
#######################################################################

data_FETBUC
_symmetry_cell_setting           monoclinic
_symmetry_space_group_name_H-M   'P 21/m'
_symmetry_Int_Tables_number      11
_space_group_name_Hall           '-P 2yb'
loop_
_symmetry_equiv_pos_site_id
_symmetry_equiv_pos_as_xyz
1 x,y,z
2 -x,1/2+y,-z
3 -x,-y,-z
4 x,1/2-y,z
_cell_length_a                   7.0513(14)
_cell_length_b                   15.903(3)
_cell_length_c                   9.862(2)
_cell_angle_alpha                90
_cell_angle_beta                 101.96(3)
_cell_angle_gamma                90
_cell_volume                     1081.89
loop_
_atom_site_label
_atom_site_type_symbol
_atom_site_fract_x
_atom_site_fract_y
_atom_site_fract_z
Ce1 Ce 0.66880(5) 0.7500 0.27882(4)
Fe1 Fe 0.31215(14) 0.7500 0.72364(10)
O1 O 0.4025(8) 0.6572(3) 0.2461(6)
O2 O 0.8094(9) 0.6056(4) 0.2993(13)
H1 H 0.9326(18) 0.606(9) 0.318(18)
H2 H 0.769(19) 0.555(3) 0.303(17)
O3 O 0.9784(10) 0.7500 0.1767(7)
H3 H 0.964(18) 0.7500 0.0889(16)
H4 H 1.099(4) 0.7500 0.214(11)
N1 N 0.6175(14) 0.7500 0.5370(8)
N2 N 0.6076(16) 0.7500 0.0016(7)
N3 N -0.0138(12) 0.7500 0.8883(9)
N4 N 0.2837(11) 0.5568(4) 0.7183(8)
N5 N 0.9961(12) 0.7500 0.4639(9)
N6 N 0.2053(12) 0.4202(5) 0.1917(13)
H5 H 0.1683 0.3687 0.1803
C1 C 0.5048(12) 0.7500 0.6081(7)
C2 C 0.4947(12) 0.7500 -0.0974(8)
C3 C 0.1093(12) 0.7500 0.8319(8)
C4 C 0.3005(9) 0.6283(4) 0.7215(6)
C5 C 1.1195(11) 0.7500 0.5567(8)
C6 C 0.2369(14) 0.4626(6) 0.0843(12)
H6 H 0.2166 0.4369 -0.0023
C7 C 0.2992(12) 0.5435(6) 0.0985(9)
H7 H 0.3179 0.5733 0.0212
C8 C 0.3357(8) 0.5826(5) 0.2296(6)
C9 C 0.2930(11) 0.5357(5) 0.3405(9)
H8 H 0.3085 0.5596 0.4281
C10 C 0.2283(14) 0.4541(6) 0.3185(13)
H9 H 0.2006 0.4226 0.3914
Fe1_2 Fe 0.31215(14) 0.7500 -0.27636(10)
Fe1_3 Fe 1.31215(14) 0.7500 0.72364(10)
O1C O 0.4025(8) 0.8428(3) 0.2461(6)
O2C O 0.8094(9) 0.8944(4) 0.2993(13)
H1C H 0.9326(18) 0.894(9) 0.318(18)
H2C H 0.769(19) 0.945(3) 0.303(17)
N4C N 0.2837(11) 0.9432(4) 0.7183(8)
N6C N 0.2053(12) 1.0798(5) 0.1917(13)
H5C H 0.1683 1.1313 0.1803
C2_2 C 0.4947(12) 0.7500 0.9026(8)
C4C C 0.3005(9) 0.8717(4) 0.7215(6)
C5_2 C 0.1195(11) 0.7500 0.5567(8)
C6C C 0.2369(14) 1.0374(6) 0.0843(12)
H6C H 0.2166 1.0631 -0.0023
C7C C 0.2992(12) 0.9565(6) 0.0985(9)
H7C H 0.3179 0.9267 0.0212
C8C C 0.3357(8) 0.9174(5) 0.2296(6)
C9C C 0.2930(11) 0.9643(5) 0.3405(9)
H8C H 0.3085 0.9404 0.4281
C10C C 0.2283(14) 1.0459(6) 0.3185(13)
H9C H 0.2006 1.0774 0.3914
loop_
_geom_bond_atom_site_label_1
_geom_bond_atom_site_label_2
_geom_bond_site_symmetry_1
_geom_bond_site_symmetry_2
Ce1 O1 1_555 1_555
Fe1 C1 1_555 1_555
O1 C8 1_555 1_555
O2 Ce1 1_555 1_555
H1 O2 1_555 1_555
H2 O2 1_555 1_555
O3 Ce1 1_555 1_555
H3 O3 1_555 1_555
H4 O3 1_555 1_555
N1 Ce1 1_555 1_555
N2 Ce1 1_555 1_555
N3 C3 1_555 1_555
N4 C4 1_555 1_555
N5 Ce1 1_555 1_555
N6 H5 1_555 1_555
C1 N1 1_555 1_555
C2 N2 1_555 1_555
C3 Fe1 1_555 1_555
C4 Fe1 1_555 1_555
C5 N5 1_555 1_555
C6 N6 1_555 1_555
H6 C6 1_555 1_555
C7 C6 1_555 1_555
H7 C7 1_555 1_555
C8 C7 1_555 1_555
C9 C8 1_555 1_555
H8 C9 1_555 1_555
C10 N6 1_555 1_555
H9 C10 1_555 1_555
Fe1_2 C2 1_555 1_555
Fe1_3 C5 1_555 1_555
O1C Ce1 1_555 1_555
O2C Ce1 1_555 1_555
H1C O2C 1_555 1_555
H2C O2C 1_555 1_555
N4C C4C 1_555 1_555
N6C H5C 1_555 1_555
C2_2 Fe1 1_555 1_555
C4C Fe1 1_555 1_555
C5_2 Fe1 1_555 1_555
C6C N6C 1_555 1_555
H6C C6C 1_555 1_555
C7C C6C 1_555 1_555
H7C C7C 1_555 1_555
C8C O1C 1_555 1_555
C9C C8C 1_555 1_555
H8C C9C 1_555 1_555
C10C N6C 1_555 1_555
H9C C10C 1_555 1_555
C9 C10 1_555 1_555
C7C C8C 1_555 1_555
C9C C10C 1_555 1_555

#END
