
#######################################################################
#
#                 Cambridge Crystallographic Data Centre
#                                CCDC 
#
#######################################################################
#
# If this CIF has been generated from an entry in the Cambridge 
# Structural Database, then it will include bibliographic, chemical, 
# crystal, experimental, refinement or atomic coordinate data resulting 
# from the CCDC's data processing and validation procedures.
#
#######################################################################

data_FETBIQ
_symmetry_cell_setting           monoclinic
_symmetry_space_group_name_H-M   'P c'
_symmetry_Int_Tables_number      7
_space_group_name_Hall           'P -2yc'
loop_
_symmetry_equiv_pos_site_id
_symmetry_equiv_pos_as_xyz
1 x,y,z
2 x,-y,1/2+z
_cell_length_a                   7.193(3)
_cell_length_b                   9.776(3)
_cell_length_c                   10.17(4)
_cell_angle_alpha                90
_cell_angle_beta                 94.3(2)
_cell_angle_gamma                90
_cell_volume                     713.129
loop_
_atom_site_label
_atom_site_type_symbol
_atom_site_fract_x
_atom_site_fract_y
_atom_site_fract_z
Fe1 Fe 1.4982(7) -0.3997(6) -1.0379(5)
Fe2 Fe 0.4623(7) 0.1161(6) -1.3249(5)
P1 P 2.2902(15) -0.5951(11) -1.2723(11)
P2 P 1.2845(16) -0.1175(11) -1.1232(12)
O1 O 1.730(4) -0.395(3) -1.164(3)
O2 O 1.734(4) -0.520(3) -0.993(3)
O3 O 0.655(4) 0.145(3) -1.156(3)
O4 O 0.723(4) -0.006(3) -1.309(3)
O5 O 2.412(4) -0.557(3) -1.152(3)
O6 O 2.349(4) -0.530(3) -1.394(3)
O7 O 2.277(4) -0.752(3) -1.286(3)
O8 O 1.347(5) -0.041(3) -1.245(3)
O9 O 1.358(4) -0.045(3) -0.993(3)
O10 O 1.340(4) -0.270(3) -1.135(3)
O11 O 1.612(4) -0.254(3) -0.918(3)
C1 C 2.057(6) -0.529(4) -1.257(5)
C2 C 1.987(6) -0.563(5) -1.131(5)
C3 C 1.810(7) -0.486(5) -1.091(5)
C4 C 1.052(7) -0.114(5) -1.137(5)
C5 C 0.960(6) 0.032(5) -1.131(5)
C6 C 0.778(7) 0.060(5) -1.204(5)
H1 H 2.0667 -0.4327 -1.2609
H2 H 1.9837 -0.5696 -1.3202
H3 H 1.9649 -0.6597 -1.1270
H4 H 2.0926 -0.5459 -1.0592
H5 H 1.0233 -0.1489 -1.2221
H6 H 1.0124 -0.1724 -1.0703
H7 H 0.9467 0.0449 -1.0327
H8 H 1.0539 0.0975 -1.1515
Fe1_2 Fe 2.4982(7) -0.3997(6) -1.0379(5)
Fe1A Fe 2.4982(7) -0.6003(6) -1.5379(5)
Fe2A Fe 1.4623(7) -0.1161(6) -0.8249(5)
Fe2_2 Fe 1.4623(7) 0.1161(6) -1.3249(5)
Fe2_3 Fe 2.4623(7) -0.8839(6) -1.3249(5)
O5_2 O 1.412(4) -0.557(3) -1.152(3)
O6A O 1.349(4) -0.470(3) -0.894(3)
O7_2 O 0.277(4) 0.248(3) -1.286(3)
O8_2 O 0.347(5) -0.041(3) -1.245(3)
O9A O 0.358(4) 0.045(3) -1.493(3)
O11A O 0.612(4) 0.254(3) -1.418(3)
N1 N 0.524(6) 0.245(5) 1.078(5)
loop_
_geom_bond_atom_site_label_1
_geom_bond_atom_site_label_2
_geom_bond_site_symmetry_1
_geom_bond_site_symmetry_2
Fe1 O1 1_555 1_555
Fe2 O3 1_555 1_555
P1 O5 1_555 1_555
P2 O8 1_555 1_555
O1 C3 1_555 1_555
O2 Fe1 1_555 1_555
O3 C6 1_555 1_555
O4 Fe2 1_555 1_555
O5 Fe1_2 1_555 1_555
O6 P1 1_555 1_555
O7 P1 1_555 1_555
O8 Fe2_2 1_555 1_555
O9 P2 1_555 1_555
O10 Fe1 1_555 1_555
O11 Fe1 1_555 1_555
C1 P1 1_555 1_555
C2 C1 1_555 1_555
C3 O2 1_555 1_555
C4 P2 1_555 1_555
C5 C4 1_555 1_555
C6 O4 1_555 1_555
H1 C1 1_555 1_555
H2 C1 1_555 1_555
H3 C2 1_555 1_555
H4 C2 1_555 1_555
H5 C4 1_555 1_555
H6 C4 1_555 1_555
H7 C5 1_555 1_555
H8 C5 1_555 1_555
Fe1A O6 1_555 1_555
Fe2A O9 1_555 1_555
Fe2_3 O7 1_555 1_555
O5_2 Fe1 1_555 1_555
O6A Fe1 1_555 1_555
O7_2 Fe2 1_555 1_555
O8_2 Fe2 1_555 1_555
O9A Fe2 1_555 1_555
O11A Fe2 1_555 1_555
P2 O10 1_555 1_555
O11 Fe2A 1_555 1_555
C2 C3 1_555 1_555
C5 C6 1_555 1_555

#END
