
#######################################################################
#
#                 Cambridge Crystallographic Data Centre
#                                CCDC 
#
#######################################################################
#
# If this CIF has been generated from an entry in the Cambridge 
# Structural Database, then it will include bibliographic, chemical, 
# crystal, experimental, refinement or atomic coordinate data resulting 
# from the CCDC's data processing and validation procedures.
#
#######################################################################

data_FETDUE
_symmetry_cell_setting           monoclinic
_symmetry_space_group_name_H-M   'C 2/c'
_symmetry_Int_Tables_number      15
_space_group_name_Hall           '-C 2yn'
loop_
_symmetry_equiv_pos_site_id
_symmetry_equiv_pos_as_xyz
1 x,y,z
2 1/2+x,1/2+y,z
3 -x,y,1/2-z
4 1/2-x,1/2+y,1/2-z
5 -x,-y,-z
6 1/2-x,1/2-y,-z
7 x,-y,1/2+z
8 1/2+x,1/2-y,1/2+z
_cell_length_a                   19.921(4)
_cell_length_b                   3.7496(7)
_cell_length_c                   19.303(4)
_cell_angle_alpha                90
_cell_angle_beta                 109.21(3)
_cell_angle_gamma                90
_cell_volume                     1361.57
loop_
_atom_site_label
_atom_site_type_symbol
_atom_site_fract_x
_atom_site_fract_y
_atom_site_fract_z
Ca1 Ca 0.5000 0.56249(12) 0.7500
O1 O 0.54525(6) 0.0618(3) 0.70404(7)
O2 O 0.36766(8) 0.6495(5) 0.67211(8)
O3 O 0.42943(7) 0.4777(5) 0.60743(9)
O4 O 0.31599(7) 0.5394(5) 0.55617(8)
N1 N 0.37021(8) 0.5552(4) 0.61114(8)
N2 N 0.67982(10) 0.0526(5) 0.58544(10)
H1 H 0.7103(12) 0.056(7) 0.5601(14)
C1 C 0.70175(10) 0.1874(6) 0.65353(12)
H2 H 0.7477 0.2767 0.6731
C2 C 0.65772(9) 0.1954(5) 0.69433(10)
H3 H 0.6738 0.2913 0.7414
C3 C 0.58776(9) 0.0592(4) 0.66605(9)
C4 C 0.56726(10) -0.0780(5) 0.59370(10)
H4 H 0.5217 -0.1694 0.5723
C5 C 0.61349(12) -0.0776(6) 0.55518(11)
H5 H 0.5992 -0.1678 0.5077
Ca1_2 Ca 0.5000 -0.43751(12) 0.7500
Ca1_3 Ca 0.5000 1.56249(12) 0.7500
O1B O 0.45475(6) 0.0618(3) 0.79596(7)
O1_2 O 0.54525(6) 1.0618(3) 0.70404(7)
O1B_2 O 0.45475(6) 1.0618(3) 0.79596(7)
O2B O 0.63234(8) 0.6495(5) 0.82789(8)
O3B O 0.57057(7) 0.4777(5) 0.89257(9)
O4B O 0.68401(7) 0.5394(5) 0.94383(8)
N1B N 0.62979(8) 0.5552(4) 0.88886(8)
N2_2 N 0.67982(10) 1.0526(5) 0.58544(10)
H1_2 H 0.7103(12) 1.056(7) 0.5601(14)
C1_2 C 0.70175(10) 1.1874(6) 0.65353(12)
H2_2 H 0.7477 1.2767 0.6731
C2_2 C 0.65772(9) 1.1954(5) 0.69433(10)
H3_2 H 0.6738 1.2913 0.7414
C3_2 C 0.58776(9) 1.0592(4) 0.66605(9)
C4_2 C 0.56726(10) 0.9220(5) 0.59370(10)
H4_2 H 0.5217 0.8306 0.5723
C5_2 C 0.61349(12) 0.9224(6) 0.55518(11)
H5_2 H 0.5992 0.8322 0.5077
loop_
_geom_bond_atom_site_label_1
_geom_bond_atom_site_label_2
_geom_bond_site_symmetry_1
_geom_bond_site_symmetry_2
Ca1 O1 1_555 1_555
O1 C3 1_555 1_555
O2 Ca1 1_555 1_555
O3 Ca1 1_555 1_555
O4 N1 1_555 1_555
N1 O2 1_555 1_555
N2 H1 1_555 1_555
C1 N2 1_555 1_555
H2 C1 1_555 1_555
C2 C1 1_555 1_555
H3 C2 1_555 1_555
C3 C2 1_555 1_555
C4 C3 1_555 1_555
H4 C4 1_555 1_555
C5 N2 1_555 1_555
H5 C5 1_555 1_555
Ca1_2 O1 1_555 1_555
Ca1_3 O1_2 1_555 1_555
O1B Ca1 1_555 1_555
O1_2 Ca1 1_555 1_555
O1B_2 Ca1 1_555 1_555
O2B Ca1 1_555 1_555
O3B Ca1 1_555 1_555
O4B N1B 1_555 1_555
N1B O2B 1_555 1_555
N2_2 H1_2 1_555 1_555
C1_2 N2_2 1_555 1_555
H2_2 C1_2 1_555 1_555
C2_2 C1_2 1_555 1_555
H3_2 C2_2 1_555 1_555
C3_2 O1_2 1_555 1_555
C4_2 C3_2 1_555 1_555
H4_2 C4_2 1_555 1_555
C5_2 N2_2 1_555 1_555
H5_2 C5_2 1_555 1_555
O3 N1 1_555 1_555
C4 C5 1_555 1_555
Ca1_2 O1B 1_555 1_555
Ca1_3 O1B_2 1_555 1_555
O3B N1B 1_555 1_555
C2_2 C3_2 1_555 1_555
C4_2 C5_2 1_555 1_555

#END
