
#######################################################################
#
#                 Cambridge Crystallographic Data Centre
#                                CCDC 
#
#######################################################################
#
# If this CIF has been generated from an entry in the Cambridge 
# Structural Database, then it will include bibliographic, chemical, 
# crystal, experimental, refinement or atomic coordinate data resulting 
# from the CCDC's data processing and validation procedures.
#
#######################################################################

data_FETFAM02
_symmetry_cell_setting           monoclinic
_symmetry_space_group_name_H-M   'P 21/c'
_symmetry_Int_Tables_number      14
_space_group_name_Hall           '-P 2ybc'
loop_
_symmetry_equiv_pos_site_id
_symmetry_equiv_pos_as_xyz
1 x,y,z
2 -x,1/2+y,1/2-z
3 -x,-y,-z
4 x,1/2-y,1/2+z
_cell_length_a                   7.8474(16)
_cell_length_b                   20.968(4)
_cell_length_c                   9.4203(19)
_cell_angle_alpha                90
_cell_angle_beta                 112.89(3)
_cell_angle_gamma                90
_cell_volume                     1427.99
loop_
_atom_site_label
_atom_site_type_symbol
_atom_site_fract_x
_atom_site_fract_y
_atom_site_fract_z
Ni1 Ni 0.48015(6) 0.31704(2) 0.25399(4)
V1 V 0.16723(7) 0.26962(3) -0.11161(5)
V2 V 0.92044(8) 0.33219(3) 0.52966(6)
N1 N 0.3966(4) 0.40588(14) 0.2934(3)
O1 O 0.6947(4) 0.31449(14) 0.4675(3)
O2 O 0.2679(4) 0.31345(13) 0.0430(3)
C1 C 0.2343(6) 0.4848(2) 0.3754(4)
H1 H 0.1464 0.4939 0.4162
N2 N 0.6352(4) 0.37248(14) 0.1655(3)
O3 O 0.0127(5) 0.2164(2) -0.0781(4)
O4 O 0.9444(4) 0.40592(14) 0.4938(3)
O5 O 0.3249(4) 0.26939(14) 0.3490(3)
C2 C 0.7166(5) 0.48267(19) 0.1492(4)
C3 C 0.3255(6) 0.5329(2) 0.3371(4)
H2 H 0.3002 0.5751 0.3520
C4 C 0.6156(5) 0.43536(17) 0.1883(3)
O6 O 0.5876(5) 0.22996(14) 0.2113(4)
C5 C 0.7508(6) 0.3550(2) 0.1008(4)
H3 H 0.7617 0.3118 0.0830
C6 C 0.2747(5) 0.42151(19) 0.3526(4)
H4 H 0.2131 0.3890 0.3803
C7 C 0.4875(5) 0.45362(18) 0.2543(3)
C8 C 0.8410(6) 0.4626(2) 0.0844(5)
H5 H 0.9125 0.4923 0.0591
C9 C 0.8568(6) 0.3987(2) 0.0585(5)
H6 H 0.9368 0.3848 0.0135
O7 O 0.0301(4) 0.31887(14) -0.2665(3)
C10 C 0.4583(5) 0.51860(18) 0.2749(4)
C11 C 0.6907(6) 0.5485(2) 0.1767(5)
H7 H 0.7599 0.5796 0.1531
C12 C 0.5660(7) 0.56555(19) 0.2367(5)
H8 H 0.5501 0.6085 0.2534
H9 H 0.587(9) 0.225(3) 0.136(8)
H10 H 0.706(10) 0.229(3) 0.257(7)
V1C V 0.16723(7) 0.23038(3) 0.38839(5)
V2C V -0.07956(8) 0.16781(3) 0.02966(6)
V2_2 V -0.07956(8) 0.33219(3) -0.47034(6)
O3C O 1.0127(5) 0.2836(2) 0.4219(4)
O5C O 0.3249(4) 0.23061(14) -0.1510(3)
O7_2 O 1.0301(4) 0.31887(14) 0.7335(3)
loop_
_geom_bond_atom_site_label_1
_geom_bond_atom_site_label_2
_geom_bond_site_symmetry_1
_geom_bond_site_symmetry_2
Ni1 N1 1_555 1_555
V1 O2 1_555 1_555
V2 O1 1_555 1_555
N1 C6 1_555 1_555
O1 Ni1 1_555 1_555
O2 Ni1 1_555 1_555
C1 H1 1_555 1_555
N2 Ni1 1_555 1_555
O3 V1 1_555 1_555
O4 V2 1_555 1_555
O5 Ni1 1_555 1_555
C2 C4 1_555 1_555
C3 C1 1_555 1_555
H2 C3 1_555 1_555
C4 N2 1_555 1_555
O6 Ni1 1_555 1_555
C5 N2 1_555 1_555
H3 C5 1_555 1_555
C6 C1 1_555 1_555
H4 C6 1_555 1_555
C7 N1 1_555 1_555
C8 C2 1_555 1_555
H5 C8 1_555 1_555
C9 C5 1_555 1_555
H6 C9 1_555 1_555
O7 V1 1_555 1_555
C10 C3 1_555 1_555
C11 C2 1_555 1_555
H7 C11 1_555 1_555
C12 C10 1_555 1_555
H8 C12 1_555 1_555
H9 O6 1_555 1_555
H10 O6 1_555 1_555
V1C O5 1_555 1_555
V2C O3 1_555 1_555
V2_2 O7 1_555 1_555
O3C V2 1_555 1_555
O5C V1 1_555 1_555
O7_2 V2 1_555 1_555
C4 C7 1_555 1_555
C7 C10 1_555 1_555
C8 C9 1_555 1_555
C11 C12 1_555 1_555

#END
