
#######################################################################
#
#                 Cambridge Crystallographic Data Centre
#                                CCDC 
#
#######################################################################
#
# If this CIF has been generated from an entry in the Cambridge 
# Structural Database, then it will include bibliographic, chemical, 
# crystal, experimental, refinement or atomic coordinate data resulting 
# from the CCDC's data processing and validation procedures.
#
#######################################################################

data_FETHES01
_symmetry_cell_setting           triclinic
_symmetry_space_group_name_H-M   'P -1'
_symmetry_Int_Tables_number      2
_space_group_name_Hall           '-P 1'
loop_
_symmetry_equiv_pos_site_id
_symmetry_equiv_pos_as_xyz
1 x,y,z
2 -x,-y,-z
_cell_length_a                   8.3069(17)
_cell_length_b                   11.246(2)
_cell_length_c                   12.590(3)
_cell_angle_alpha                112.68(3)
_cell_angle_beta                 97.66(3)
_cell_angle_gamma                95.51(3)
_cell_volume                     1061.45
loop_
_atom_site_label
_atom_site_type_symbol
_atom_site_fract_x
_atom_site_fract_y
_atom_site_fract_z
C1 C -0.1499(3) -0.1283(3) -0.5321(2)
C2 C -0.2653(4) -0.0480(3) -0.5421(3)
C3 C -0.3494(4) -0.0665(3) -0.6521(3)
H1 H -0.4257 -0.0130 -0.6583
C4 C -0.3202(4) -0.1634(3) -0.7517(3)
H2 H -0.3762 -0.1754 -0.8251
C5 C -0.2048(3) -0.2443(3) -0.7417(2)
C6 C -0.1209(3) -0.2260(3) -0.6338(2)
H3 H -0.0439 -0.2791 -0.6282
C7 C -0.0616(4) -0.1098(3) -0.4164(2)
C8 C -0.3610(3) -0.3707(3) -0.4720(2)
C9 C -0.2432(4) -0.4516(3) -0.4700(3)
C10 C -0.1555(4) -0.4387(3) -0.3627(3)
H4 H -0.0764 -0.4915 -0.3611
C11 C -0.1847(4) -0.3489(3) -0.2593(3)
H5 H -0.1262 -0.3414 -0.1881
C12 C -0.3036(3) -0.2685(3) -0.2619(2)
C13 C -0.3896(3) -0.2793(3) -0.3663(2)
H6 H -0.4677 -0.2255 -0.3672
C14 C -0.4539(4) -0.3820(3) -0.5842(2)
O1 O -0.0865(3) -0.0248(2) -0.32591(19)
O2 O 0.0439(3) -0.1890(2) -0.41790(19)
H7 H 0.0885 -0.1727 -0.3506
O3 O -0.2986(3) 0.0483(2) -0.4482(2)
H8 H -0.2426 0.0504 -0.3886
O4 O -0.3309(3) -0.4502(2) -0.92933(18)
O5 O -0.1024(3) -0.3072(2) -0.93911(19)
O6 O -0.0590(3) -0.4430(2) -0.83045(19)
O7 O -0.5579(3) -0.3001(2) -0.57443(19)
H9 H -0.6058 -0.3117 -0.6398
O8 O -0.4346(3) -0.4640(2) -0.67924(18)
O9 O -0.2104(3) -0.5426(3) -0.5674(2)
H10 H -0.2683 -0.5416 -0.6250
O10 O -0.1838(3) -0.0849(2) -0.05917(19)
O11 O -0.4500(3) -0.0750(2) -0.15812(19)
O12 O -0.4252(3) -0.2359(2) -0.07572(19)
O13 O -0.7292(3) -0.3410(2) -0.7792(2)
O14 O 0.1999(3) -0.1227(2) -0.2055(2)
O15 O -0.2540(3) 0.1560(3) -0.1328(2)
S1 S -0.17025(8) -0.36895(7) -0.86959(6)
S2 S -0.34398(9) -0.15789(7) -0.12876(6)
Ag1 Ag -0.58836(3) -0.52659(2) -0.875010(19)
Ag2 Ag 0.02530(3) 0.06590(3) -0.11929(2)
H11 H 0.187(6) -0.182(3) -0.180(4)
H12 H -0.833(3) -0.368(4) -0.790(4)
H13 H 0.308(2) -0.100(4) -0.195(4)
H14 H -0.737(5) -0.274(3) -0.802(4)
H15 H -0.321(5) 0.079(3) -0.160(4)
H18 H -0.240(5) 0.194(4) -0.0557(17)
O4A O -0.6691(3) -0.5498(2) -1.07067(18)
O5A O 0.1024(3) 0.3072(2) -0.06089(19)
O10A O 0.1838(3) 0.0849(2) 0.05917(19)
O12A O -0.5748(3) -0.7641(2) -0.92428(19)
Ag1A Ag -0.41164(3) -0.47341(2) -1.124990(19)
Ag1A_2 Ag -0.41164(3) -0.47341(2) -0.124990(19)
Ag2A Ag -0.02530(3) -0.06590(3) -0.88071(2)
Ag2A_2 Ag -0.02530(3) -0.06590(3) 0.11929(2)
O16 O 0.7737(3) 0.2994(3) 0.1069(3)
H16 H 0.815(5) 0.378(2) 0.148(3)
H17 H 0.673(3) 0.265(4) 0.105(4)
loop_
_geom_bond_atom_site_label_1
_geom_bond_atom_site_label_2
_geom_bond_site_symmetry_1
_geom_bond_site_symmetry_2
C1 C2 1_555 1_555
C2 C3 1_555 1_555
C3 H1 1_555 1_555
C4 C3 1_555 1_555
H2 C4 1_555 1_555
C5 C4 1_555 1_555
C6 C1 1_555 1_555
H3 C6 1_555 1_555
C7 C1 1_555 1_555
C8 C9 1_555 1_555
C9 C10 1_555 1_555
C10 H4 1_555 1_555
C11 C10 1_555 1_555
H5 C11 1_555 1_555
C12 C11 1_555 1_555
C13 C8 1_555 1_555
H6 C13 1_555 1_555
C14 C8 1_555 1_555
O1 C7 1_555 1_555
O2 C7 1_555 1_555
H7 O2 1_555 1_555
O3 C2 1_555 1_555
H8 O3 1_555 1_555
O4 S1 1_555 1_555
O5 S1 1_555 1_555
O6 S1 1_555 1_555
O7 C14 1_555 1_555
H9 O7 1_555 1_555
O8 C14 1_555 1_555
O9 C9 1_555 1_555
H10 O9 1_555 1_555
O10 S2 1_555 1_555
O11 S2 1_555 1_555
O12 S2 1_555 1_555
O13 Ag1 1_555 1_555
O14 Ag2 1_555 1_555
O15 Ag2 1_555 1_555
O16 H16 1_555 1_555
S1 C5 1_555 1_555
S2 C12 1_555 1_555
Ag1 O4 1_555 1_555
Ag2 O1 1_555 1_555
H11 O14 1_555 1_555
H12 O13 1_555 1_555
H13 O14 1_555 1_555
H14 O13 1_555 1_555
H15 O15 1_555 1_555
H17 O16 1_555 1_555
H18 O15 1_555 1_555
O4A Ag1 1_555 1_555
O5A Ag2 1_555 1_555
O10A Ag2 1_555 1_555
O12A Ag1 1_555 1_555
Ag1A O4 1_555 1_555
Ag1A_2 O12 1_555 1_555
Ag2A O5 1_555 1_555
Ag2A_2 O10 1_555 1_555
C5 C6 1_555 1_555
C12 C13 1_555 1_555
O8 Ag1 1_555 1_555
O4A Ag1A 1_555 1_555

#END
