
#######################################################################
#
#                 Cambridge Crystallographic Data Centre
#                                CCDC 
#
#######################################################################
#
# If this CIF has been generated from an entry in the Cambridge 
# Structural Database, then it will include bibliographic, chemical, 
# crystal, experimental, refinement or atomic coordinate data resulting 
# from the CCDC's data processing and validation procedures.
#
#######################################################################

data_FETHUI
_symmetry_cell_setting           monoclinic
_symmetry_space_group_name_H-M   'P 21/c'
_symmetry_Int_Tables_number      14
_space_group_name_Hall           '-P 2ybc'
loop_
_symmetry_equiv_pos_site_id
_symmetry_equiv_pos_as_xyz
1 x,y,z
2 -x,1/2+y,1/2-z
3 -x,-y,-z
4 x,1/2-y,1/2+z
_cell_length_a                   13.199(3)
_cell_length_b                   5.6990(10)
_cell_length_c                   11.039(2)
_cell_angle_alpha                90
_cell_angle_beta                 112.79(3)
_cell_angle_gamma                90
_cell_volume                     765.54
loop_
_atom_site_label
_atom_site_type_symbol
_atom_site_fract_x
_atom_site_fract_y
_atom_site_fract_z
Hg1 Hg 0.57380(3) 0.64585(7) 0.53826(4)
S1 S 0.7463(2) 0.2789(4) 0.4123(2)
O1 O 0.7157(7) 0.8490(10) 0.6432(7)
O2 O 0.5116(5) 0.9750(10) 0.3585(6)
O3 O 0.6908(6) 0.4980(10) 0.3591(7)
O4 O 0.7536(5) 0.2420(10) 0.5446(6)
O5 O 0.7000(6) 0.0820(10) 0.3276(7)
C1 C 0.8786(6) 0.3170(10) 0.4216(7)
C2 C 0.9133(7) 0.1530(10) 0.3534(8)
C3 C 1.0206(7) 0.168(2) 0.3621(8)
C4 C 1.0895(7) 0.3420(10) 0.4349(8)
C5 C 0.9468(4) 0.4930(10) 0.4979(7)
H1 H 0.7210 0.8685 0.7218
H2 H 0.7105 0.9820 0.6063
H3 H 0.4624 0.9224 0.2881
H4 H 0.5659 1.0210 0.3414
H5 H 0.8660 0.0373 0.3033
H6 H 1.0463 0.0586 0.3182
H7 H 1.1612 0.3493 0.4393
Hg1B Hg 0.42620(3) 1.35415(7) 0.46174(4)
Hg1B_2 Hg 0.42620(3) 0.35415(7) 0.46174(4)
Hg1B_3 Hg 1.42620(3) 0.35415(7) 0.46174(4)
Hg1_2 Hg 0.57380(3) 1.64585(7) 0.53826(4)
S1B S 1.2537(2) 0.7211(4) 0.5877(2)
O1B O 0.2843(7) 1.1510(10) 0.3568(7)
O2B O 0.4884(5) 1.0250(10) 0.6415(6)
O3B O 1.3092(6) 0.5020(10) 0.6409(7)
O3B_2 O 0.3092(6) 1.5020(10) 0.6409(7)
O4B O 1.2464(5) 0.7580(10) 0.4554(6)
O5B O 1.3000(6) 0.9180(10) 0.6724(7)
C1B C 1.1214(6) 0.6830(10) 0.5784(7)
C2B C 1.0867(7) 0.8470(10) 0.6466(8)
C3B C 0.9794(7) 0.832(2) 0.6379(8)
C4B C 0.9105(7) 0.6580(10) 0.5651(8)
C5B C 1.0532(4) 0.5070(10) 0.5021(7)
H1B H 0.2790 1.1315 0.2782
H2B H 0.2895 1.0180 0.3937
H3B H 0.5376 1.0776 0.7119
H4B H 0.4341 0.9790 0.6586
H5B H 1.1340 0.9627 0.6967
H6B H 0.9537 0.9414 0.6818
H7B H 0.8388 0.6507 0.5607
loop_
_geom_bond_atom_site_label_1
_geom_bond_atom_site_label_2
_geom_bond_site_symmetry_1
_geom_bond_site_symmetry_2
Hg1 O1 1_555 1_555
S1 O3 1_555 1_555
O1 H1 1_555 1_555
O2 Hg1 1_555 1_555
O3 Hg1 1_555 1_555
O4 S1 1_555 1_555
O5 S1 1_555 1_555
C1 S1 1_555 1_555
C2 C1 1_555 1_555
C3 C2 1_555 1_555
C4 C3 1_555 1_555
C5 C1 1_555 1_555
H2 O1 1_555 1_555
H3 O2 1_555 1_555
H4 O2 1_555 1_555
H5 C2 1_555 1_555
H6 C3 1_555 1_555
H7 C4 1_555 1_555
Hg1B O2 1_555 1_555
Hg1B_2 Hg1 1_555 1_555
Hg1B_3 O3B 1_555 1_555
Hg1_2 Hg1B 1_555 1_555
S1B O3B 1_555 1_555
O1B Hg1B 1_555 1_555
O2B Hg1 1_555 1_555
O3B_2 Hg1B 1_555 1_555
O4B S1B 1_555 1_555
O5B S1B 1_555 1_555
C1B S1B 1_555 1_555
C2B C1B 1_555 1_555
C3B C2B 1_555 1_555
C4B C5 1_555 1_555
C5B C4 1_555 1_555
H1B O1B 1_555 1_555
H2B O1B 1_555 1_555
H3B O2B 1_555 1_555
H4B O2B 1_555 1_555
H5B C2B 1_555 1_555
H6B C3B 1_555 1_555
H7B C4B 1_555 1_555
C5 C5B 1_555 1_555
Hg1B O2B 1_555 1_555
C1B C5B 1_555 1_555
C3B C4B 1_555 1_555

#END
