
#######################################################################
#
#                 Cambridge Crystallographic Data Centre
#                                CCDC 
#
#######################################################################
#
# If this CIF has been generated from an entry in the Cambridge 
# Structural Database, then it will include bibliographic, chemical, 
# crystal, experimental, refinement or atomic coordinate data resulting 
# from the CCDC's data processing and validation procedures.
#
#######################################################################

data_FETHIW
_symmetry_cell_setting           monoclinic
_symmetry_space_group_name_H-M   'P 2/n'
_symmetry_Int_Tables_number      13
_space_group_name_Hall           '-P 2yac'
loop_
_symmetry_equiv_pos_site_id
_symmetry_equiv_pos_as_xyz
1 x,y,z
2 1/2-x,y,1/2-z
3 -x,-y,-z
4 1/2+x,-y,1/2+z
_cell_length_a                   7.493(2)
_cell_length_b                   16.237(3)
_cell_length_c                   8.253(2)
_cell_angle_alpha                90
_cell_angle_beta                 92.91(3)
_cell_angle_gamma                90
_cell_volume                     1002.8
loop_
_atom_site_label
_atom_site_type_symbol
_atom_site_fract_x
_atom_site_fract_y
_atom_site_fract_z
Ag1 Ag 0.7500 0.49393(2) 0.7500
Ag2 Ag 0.7500 0.48836(3) 0.2500
Ag3 Ag 1.2500 0.92255(2) -0.2500
Ag4 Ag 1.2500 0.75147(2) 0.7500
S1 S 0.92830(10) 0.63097(5) 0.50650(10)
O1 O 0.7488(3) 0.6163(2) 0.5588(4)
O2 O 0.9751(4) 0.57670(10) 0.3742(3)
O3 O 1.0610(4) 0.6291(2) 0.6421(3)
O4 O 1.1192(4) 0.7661(2) -0.0274(3)
O5 O 1.1124(4) 0.9033(2) -0.0077(3)
O6 O 0.9917(4) 0.9681(2) 0.2517(3)
O7 O 0.6103(4) 0.4246(2) 0.5116(3)
C1 C 1.0182(4) 0.8221(2) 0.2120(4)
C2 C 0.9976(4) 0.7432(2) 0.2756(4)
C3 C 0.9362(4) 0.7322(2) 0.4285(4)
C4 C 0.8915(5) 0.8001(2) 0.5229(4)
C5 C 0.9107(5) 0.8786(2) 0.4620(4)
C6 C 0.9745(5) 0.8898(2) 0.3073(4)
C7 C 1.0880(5) 0.8311(2) 0.0461(4)
H1 H 1.019(8) 0.963(4) 0.153(3)
H2 H 0.498(2) 0.417(3) 0.506(7)
H3 H 0.663(6) 0.383(3) 0.470(10)
H4 H 1.0257 0.6975 0.2138
H5 H 0.8492 0.7924 0.6258
H6 H 0.8812 0.9240 0.5239
Ag1C Ag 1.2500 0.50607(2) 0.2500
Ag1C_2 Ag 0.2500 0.50607(2) 1.2500
Ag2C Ag 1.2500 0.51164(3) 0.7500
Ag2_2 Ag 0.7500 0.48836(3) 1.2500
Ag2C_2 Ag 0.2500 0.51164(3) 0.7500
Ag3_2 Ag 1.2500 0.92255(2) 0.7500
Ag3C Ag 0.7500 1.07745(2) 0.2500
Ag3_3 Ag 0.2500 0.92255(2) 1.7500
Ag3C_2 Ag 0.7500 1.07745(2) 1.2500
Ag4_2 Ag 1.2500 0.75147(2) -0.2500
Ag4_3 Ag 0.2500 0.75147(2) 0.7500
Ag4_4 Ag 0.2500 0.75147(2) 1.7500
S1A S 0.57170(10) 0.63097(5) 0.99350(10)
O1A O 0.7512(3) 0.6163(2) 0.9412(4)
O2A O 0.5249(4) 0.57670(10) 1.1258(3)
O2C O 0.4751(4) 0.42330(10) 0.8742(3)
O2B O 1.0249(4) 0.42330(10) 0.6258(3)
O2A_2 O 0.5249(4) 0.57670(10) 0.1258(3)
O3A O 0.4390(4) 0.6291(2) 0.8579(3)
O3C O 0.5610(4) 0.3709(2) 0.1421(3)
O3B O 0.9390(4) 0.3709(2) 0.3579(3)
O3A_2 O 1.4390(4) 0.6291(2) 0.8579(3)
O4A O 0.3808(4) 0.7661(2) 1.5274(3)
O4_2 O 1.1192(4) 0.7661(2) 0.9726(3)
O4A_2 O 1.3808(4) 0.7661(2) 0.5274(3)
O5A O 0.3876(4) 0.9033(2) 1.5077(3)
O5A_2 O 1.3876(4) 0.9033(2) -0.4923(3)
O6A O 0.5083(4) 0.9681(2) 1.2483(3)
O6C O 1.4917(4) 1.0319(2) -0.2483(3)
O6B O 1.0083(4) 1.0319(2) -0.2517(3)
O7A O 0.8897(4) 0.4246(2) 0.9884(3)
O7A_2 O 0.8897(4) 0.4246(2) -0.0116(3)
C1A C 0.4818(4) 0.8221(2) 1.2880(4)
C2A C 0.5024(4) 0.7432(2) 1.2244(4)
C3A C 0.5638(4) 0.7322(2) 1.0715(4)
C4A C 0.6085(5) 0.8001(2) 0.9771(4)
C5A C 0.5893(5) 0.8786(2) 1.0380(4)
C6A C 0.5255(5) 0.8898(2) 1.1927(4)
C7A C 0.4120(5) 0.8311(2) 1.4539(4)
H1A H 0.481(8) 0.963(4) 1.347(3)
H1C H 1.519(8) 1.037(4) -0.347(3)
H1B H 0.981(8) 1.037(4) -0.153(3)
H2A H 1.002(2) 0.417(3) 0.994(7)
H2A_2 H 1.002(2) 0.417(3) -0.006(7)
H3A H 0.837(6) 0.383(3) 1.030(10)
H3A_2 H 0.837(6) 0.383(3) 0.030(10)
H4A H 0.4743 0.6975 1.2862
H5A H 0.6508 0.7924 0.8742
H6A H 0.6188 0.9240 0.9761
loop_
_geom_bond_atom_site_label_1
_geom_bond_atom_site_label_2
_geom_bond_site_symmetry_1
_geom_bond_site_symmetry_2
Ag1 O1 1_555 1_555
Ag2 O2 1_555 1_555
Ag3 O5 1_555 1_555
Ag4 O3 1_555 1_555
S1 O1 1_555 1_555
O2 S1 1_555 1_555
O3 S1 1_555 1_555
O4 C7 1_555 1_555
O5 C7 1_555 1_555
O6 C6 1_555 1_555
O7 Ag1 1_555 1_555
C1 C2 1_555 1_555
C2 C3 1_555 1_555
C3 S1 1_555 1_555
C4 C3 1_555 1_555
C5 C4 1_555 1_555
C6 C1 1_555 1_555
C7 C1 1_555 1_555
H1 O6 1_555 1_555
H2 O7 1_555 1_555
H3 O7 1_555 1_555
H4 C2 1_555 1_555
H5 C4 1_555 1_555
H6 C5 1_555 1_555
Ag1C O2 1_555 1_555
Ag1C_2 O2A 1_555 1_555
Ag2C O3 1_555 1_555
Ag2_2 O2A 1_555 1_555
Ag2C_2 O2C 1_555 1_555
Ag3_2 Ag4 1_555 1_555
Ag3C O6 1_555 1_555
Ag3_3 Ag4_4 1_555 1_555
Ag3C_2 O6A 1_555 1_555
Ag4_2 Ag3 1_555 1_555
Ag4_3 O3A 1_555 1_555
Ag4_4 O4A 1_555 1_555
S1A O1A 1_555 1_555
O1A Ag1 1_555 1_555
O2A S1A 1_555 1_555
O2C Ag1 1_555 1_555
O2B Ag1 1_555 1_555
O2A_2 Ag2 1_555 1_555
O3A Ag2C_2 1_555 1_555
O3C Ag2 1_555 1_555
O3B Ag2 1_555 1_555
O3A_2 Ag4 1_555 1_555
O4A C7A 1_555 1_555
O4_2 Ag4 1_555 1_555
O4A_2 Ag4 1_555 1_555
O5A Ag3_3 1_555 1_555
O5A_2 Ag3 1_555 1_555
O6A C6A 1_555 1_555
O6C Ag3 1_555 1_555
O6B Ag3 1_555 1_555
O7A Ag1 1_555 1_555
O7A_2 Ag2 1_555 1_555
C1A C2A 1_555 1_555
C2A C3A 1_555 1_555
C3A S1A 1_555 1_555
C4A C3A 1_555 1_555
C5A C4A 1_555 1_555
C6A C1A 1_555 1_555
C7A O5A 1_555 1_555
H1A O6A 1_555 1_555
H1C O6C 1_555 1_555
H1B O6B 1_555 1_555
H2A O7A 1_555 1_555
H2A_2 O7A_2 1_555 1_555
H3A O7A 1_555 1_555
H3A_2 O7A_2 1_555 1_555
H4A C2A 1_555 1_555
H5A C4A 1_555 1_555
H6A C5A 1_555 1_555
Ag2 O7 1_555 1_555
O4 Ag4_2 1_555 1_555
C5 C6 1_555 1_555
Ag2C O2B 1_555 1_555
Ag2C O3A_2 1_555 1_555
Ag2_2 O7A 1_555 1_555
S1A O3A 1_555 1_555
C1A C7A 1_555 1_555
C5A C6A 1_555 1_555

#END
