
#######################################################################
#
#                 Cambridge Crystallographic Data Centre
#                                CCDC 
#
#######################################################################
#
# If this CIF has been generated from an entry in the Cambridge 
# Structural Database, then it will include bibliographic, chemical, 
# crystal, experimental, refinement or atomic coordinate data resulting 
# from the CCDC's data processing and validation procedures.
#
#######################################################################

data_FETHIW01
_symmetry_cell_setting           monoclinic
_symmetry_space_group_name_H-M   'P 2/n'
_symmetry_Int_Tables_number      13
_space_group_name_Hall           '-P 2yac'
loop_
_symmetry_equiv_pos_site_id
_symmetry_equiv_pos_as_xyz
1 x,y,z
2 1/2-x,y,1/2-z
3 -x,-y,-z
4 1/2+x,-y,1/2+z
_cell_length_a                   7.4894(15)
_cell_length_b                   16.237(3)
_cell_length_c                   8.2217(16)
_cell_angle_alpha                90
_cell_angle_beta                 92.90(3)
_cell_angle_gamma                90
_cell_volume                     998.523
loop_
_atom_site_label
_atom_site_type_symbol
_atom_site_fract_x
_atom_site_fract_y
_atom_site_fract_z
C1 C 1.0634(7) 0.2318(3) 0.0715(6)
C2 C 1.0019(7) 0.2434(3) 0.2250(6)
H1 H 0.9734 0.1980 0.2877
C3 C 0.9821(7) 0.3218(3) 0.2866(6)
C4 C 1.0259(7) 0.3894(3) 0.1923(7)
C5 C 1.0885(8) 0.3785(3) 0.0386(7)
H2 H 1.1177 0.4239 -0.0235
C6 C 1.1076(7) 0.2997(3) -0.0231(6)
H3 H 1.1495 0.2921 -0.1266
C7 C 0.9115(7) 0.3308(3) 0.4542(6)
O1 O 1.0254(6) 0.0763(2) 0.1263(5)
O2 O 1.2503(5) 0.1160(3) -0.0580(6)
O3 O 0.9381(6) 0.1281(2) -0.1404(5)
O4 O 0.8877(6) 0.4031(3) 0.5074(5)
O5 O 0.8803(6) 0.2659(3) 0.5275(5)
O6 O 1.0081(6) 0.4682(3) 0.2485(5)
O7 O 0.6098(5) 0.0760(3) 0.0107(5)
S1 S 1.07129(17) 0.13017(8) -0.00564(15)
Ag1 Ag 0.7500 0.42270(4) 0.7500
Ag2 Ag 0.7500 0.25147(4) -0.2500
Ag3 Ag 0.7500 0.00655(4) 0.2500
Ag4 Ag 1.2500 -0.01147(5) 0.2500
C1A C 0.4366(7) 0.2318(3) 1.4285(6)
C2A C 0.4981(7) 0.2434(3) 1.2750(6)
H1A H 0.5266 0.1980 1.2123
C3A C 0.5179(7) 0.3218(3) 1.2134(6)
C4A C 0.4741(7) 0.3894(3) 1.3077(7)
C5A C 0.4115(8) 0.3785(3) 1.4614(7)
H2A H 0.3823 0.4239 1.5235
C6A C 0.3924(7) 0.2997(3) 1.5231(6)
H3A H 0.3505 0.2921 1.6266
C7A C 0.5885(7) 0.3308(3) 1.0458(6)
O1A O 0.4746(6) 0.0763(2) 1.3737(5)
O1A_2 O 0.4746(6) 0.0763(2) 0.3737(5)
O1A_3 O 1.4746(6) 0.0763(2) 0.3737(5)
O2A O 0.2497(5) 0.1160(3) 1.5580(6)
O2C O 0.7503(5) -0.1160(3) 0.4420(6)
O2B O 0.7497(5) -0.1160(3) 0.0580(6)
O3A O 0.5619(6) 0.1281(2) 1.6404(5)
O3A_2 O 0.5619(6) 0.1281(2) -0.3596(5)
O3C O 1.4381(6) -0.1281(2) 0.3596(5)
O3B O 1.0619(6) -0.1281(2) 0.1404(5)
O4A O 0.6123(6) 0.4031(3) 0.9926(5)
O5A O 0.6197(6) 0.2659(3) 0.9725(5)
O5_2 O 0.8803(6) 0.2659(3) -0.4725(5)
O5A_2 O 0.6197(6) 0.2659(3) -0.0275(5)
O6A O 0.4919(6) 0.4682(3) 1.2515(5)
O6C O 0.5081(6) 0.5318(3) 0.7485(5)
O6B O 0.9919(6) 0.5318(3) 0.7515(5)
O7A O 0.8902(5) 0.0760(3) 0.4893(5)
O7C O 1.1098(5) -0.0760(3) 0.5107(5)
O7B O 1.3902(5) -0.0760(3) -0.0107(5)
S1A S 0.42871(17) 0.13017(8) 1.50564(15)
Ag1C Ag 1.2500 0.57730(4) 0.2500
Ag1_2 Ag 0.7500 0.42270(4) -0.2500
Ag1C_2 Ag 0.2500 0.57730(4) 1.2500
Ag2_2 Ag 0.7500 0.25147(4) 0.7500
Ag2_3 Ag 0.7500 0.25147(4) 1.7500
Ag3C Ag 1.2500 -0.00655(4) -0.2500
Ag3_2 Ag 0.7500 0.00655(4) 1.2500
Ag3C_2 Ag 0.2500 -0.00655(4) 1.7500
Ag4C Ag 0.7500 0.01147(5) -0.2500
Ag4_2 Ag 0.2500 -0.01147(5) 1.2500
Ag4C_2 Ag 0.7500 0.01147(5) 1.7500
loop_
_geom_bond_atom_site_label_1
_geom_bond_atom_site_label_2
_geom_bond_site_symmetry_1
_geom_bond_site_symmetry_2
C1 C2 1_555 1_555
C2 H1 1_555 1_555
C3 C2 1_555 1_555
C4 C3 1_555 1_555
C5 C4 1_555 1_555
H2 C5 1_555 1_555
C6 C1 1_555 1_555
H3 C6 1_555 1_555
C7 C3 1_555 1_555
O1 S1 1_555 1_555
O2 S1 1_555 1_555
O3 S1 1_555 1_555
O4 C7 1_555 1_555
O5 C7 1_555 1_555
O6 C4 1_555 1_555
O7 Ag3 1_555 1_555
S1 C1 1_555 1_555
Ag1 O4 1_555 1_555
Ag2 O3 1_555 1_555
Ag3 O1 1_555 1_555
Ag4 O1 1_555 1_555
C1A C2A 1_555 1_555
C2A H1A 1_555 1_555
C3A C2A 1_555 1_555
C4A C3A 1_555 1_555
C5A C4A 1_555 1_555
H2A C5A 1_555 1_555
C6A C1A 1_555 1_555
H3A C6A 1_555 1_555
C7A C3A 1_555 1_555
O1A S1A 1_555 1_555
O1A_2 Ag3 1_555 1_555
O1A_3 Ag4 1_555 1_555
O2A S1A 1_555 1_555
O2C Ag3 1_555 1_555
O2B Ag3 1_555 1_555
O3A S1A 1_555 1_555
O3A_2 Ag2 1_555 1_555
O3C Ag4 1_555 1_555
O3B Ag4 1_555 1_555
O4A Ag1 1_555 1_555
O5A C7A 1_555 1_555
O5_2 Ag2 1_555 1_555
O5A_2 Ag2 1_555 1_555
O6A C4A 1_555 1_555
O6C Ag1 1_555 1_555
O6B Ag1 1_555 1_555
O7A Ag3 1_555 1_555
O7C Ag4 1_555 1_555
O7B Ag4 1_555 1_555
S1A C1A 1_555 1_555
Ag1C O6 1_555 1_555
Ag1_2 Ag2 1_555 1_555
Ag1C_2 O6A 1_555 1_555
Ag2_2 O5 1_555 1_555
Ag2_3 O3A 1_555 1_555
Ag3C O2 1_555 1_555
Ag3_2 O1A 1_555 1_555
Ag3C_2 O2A 1_555 1_555
Ag4C O3 1_555 1_555
Ag4_2 O1A 1_555 1_555
Ag4C_2 O3A 1_555 1_555
C5 C6 1_555 1_555
O7 Ag4C 1_555 1_555
Ag1 Ag2_2 1_555 1_555
C5A C6A 1_555 1_555
C7A O4A 1_555 1_555
O3A_2 Ag4C 1_555 1_555
O5A Ag2_2 1_555 1_555
O7B Ag3C 1_555 1_555

#END
