
#######################################################################
#
#                 Cambridge Crystallographic Data Centre
#                                CCDC 
#
#######################################################################
#
# If this CIF has been generated from an entry in the Cambridge 
# Structural Database, then it will include bibliographic, chemical, 
# crystal, experimental, refinement or atomic coordinate data resulting 
# from the CCDC's data processing and validation procedures.
#
#######################################################################

data_FETJOE
_symmetry_cell_setting           monoclinic
_symmetry_space_group_name_H-M   'P 21/n'
_symmetry_Int_Tables_number      14
_space_group_name_Hall           '-P 2yn'
loop_
_symmetry_equiv_pos_site_id
_symmetry_equiv_pos_as_xyz
1 x,y,z
2 1/2-x,1/2+y,1/2-z
3 -x,-y,-z
4 1/2+x,1/2-y,1/2+z
_cell_length_a                   7.9612(2)
_cell_length_b                   11.8020(3)
_cell_length_c                   15.3935(4)
_cell_angle_alpha                90
_cell_angle_beta                 99.6140(10)
_cell_angle_gamma                90
_cell_volume                     1426.03
loop_
_atom_site_label
_atom_site_type_symbol
_atom_site_fract_x
_atom_site_fract_y
_atom_site_fract_z
Zn1 Zn 0.08941(3) 0.58751(3) 0.25379(2)
O1 O 0.2173(2) 0.5804(2) 0.15460(10)
O2 O 0.3963(2) 0.4486(2) 0.21980(10)
O3 O 0.6641(2) 0.6426(2) 0.20600(10)
O4 O 0.8693(2) 0.5247(2) 0.17910(10)
O5 O -0.0421(3) 0.7341(2) 0.2760(2)
N1 N 0.0981(3) 0.4768(2) 0.36070(10)
N2 N 0.2857(3) 0.6640(2) 0.34770(10)
C1 C 0.2031(3) 0.5140(2) 0.4348(2)
C2 C 0.0138(3) 0.3813(3) 0.3653(2)
C3 C 0.0261(4) 0.3171(2) 0.4421(2)
C4 C 0.1279(4) 0.3542(3) 0.5173(2)
C5 C 0.2199(3) 0.4554(3) 0.5155(2)
C6 C 0.3309(4) 0.5014(3) 0.5904(2)
C7 C 0.4173(4) 0.5985(3) 0.5846(2)
C8 C 0.4041(3) 0.6597(2) 0.5033(2)
C9 C 0.4967(4) 0.7582(3) 0.4920(2)
C10 C 0.4848(4) 0.8050(3) 0.4102(2)
C11 C 0.3775(4) 0.7553(3) 0.3396(2)
C12 C 0.2983(3) 0.6152(2) 0.4283(2)
C13 C 0.3447(3) 0.5136(2) 0.15850(10)
C14 C 0.4288(3) 0.5117(2) 0.07690(10)
C15 C 0.6048(3) 0.5244(2) 0.08090(10)
C16 C 0.3266(3) 0.4883(2) -0.00390(10)
C17 C 0.7202(3) 0.5667(2) 0.1635(2)
H1 H -0.009(6) 0.802(2) 0.277(3)
H2 H -0.146(2) 0.727(4) 0.254(2)
H3 H -0.0572 0.3556 0.3150
H4 H -0.0342 0.2496 0.4423
H5 H 0.1360 0.3127 0.5691
H6 H 0.3434 0.4633 0.6440
H7 H 0.4870 0.6266 0.6345
H8 H 0.5658 0.7914 0.5399
H9 H 0.5474 0.8694 0.4016
H10 H 0.3704 0.7880 0.2841
H11 H 0.2096 0.4810 -0.0064
Zn1B Zn 0.91059(3) 0.41249(3) -0.25379(2)
Zn1_2 Zn 1.08941(3) 0.58751(3) 0.25379(2)
Zn1B_2 Zn -0.08941(3) 0.41249(3) -0.25379(2)
O1B O 0.7827(2) 0.4196(2) -0.15460(10)
O2B O 0.6037(2) 0.5514(2) -0.21980(10)
O3B O 0.3359(2) 0.3574(2) -0.20600(10)
O4B O 0.1307(2) 0.4753(2) -0.17910(10)
O4_2 O -0.1307(2) 0.5247(2) 0.17910(10)
O4B_2 O 1.1307(2) 0.4753(2) -0.17910(10)
O5B O 1.0421(3) 0.2659(2) -0.2760(2)
N1B N 0.9019(3) 0.5232(2) -0.36070(10)
N2B N 0.7143(3) 0.3360(2) -0.34770(10)
C1B C 0.7969(3) 0.4860(2) -0.4348(2)
C2B C 0.9862(3) 0.6187(3) -0.3653(2)
C3B C 0.9739(4) 0.6829(2) -0.4421(2)
C4B C 0.8721(4) 0.6458(3) -0.5173(2)
C5B C 0.7801(3) 0.5446(3) -0.5155(2)
C6B C 0.6691(4) 0.4986(3) -0.5904(2)
C7B C 0.5827(4) 0.4015(3) -0.5846(2)
C8B C 0.5959(3) 0.3403(2) -0.5033(2)
C9B C 0.5033(4) 0.2418(3) -0.4920(2)
C10B C 0.5152(4) 0.1950(3) -0.4102(2)
C11B C 0.6225(4) 0.2447(3) -0.3396(2)
C12B C 0.7017(3) 0.3848(2) -0.4283(2)
C13B C 0.6553(3) 0.4864(2) -0.15850(10)
C14B C 0.5712(3) 0.4883(2) -0.07690(10)
C15B C 0.3952(3) 0.4756(2) -0.08090(10)
C16B C 0.6734(3) 0.5117(2) 0.00390(10)
C17B C 0.2798(3) 0.4333(2) -0.1635(2)
H1B H 1.009(6) 0.198(2) -0.277(3)
H2B H 1.146(2) 0.273(4) -0.254(2)
H3B H 1.0572 0.6444 -0.3150
H4B H 1.0342 0.7504 -0.4423
H5B H 0.8640 0.6873 -0.5691
H6B H 0.6566 0.5367 -0.6440
H7B H 0.5130 0.3734 -0.6345
H8B H 0.4342 0.2086 -0.5399
H9B H 0.4526 0.1306 -0.4016
H10B H 0.6296 0.2120 -0.2841
H11B H 0.7904 0.5190 0.0064
loop_
_geom_bond_atom_site_label_1
_geom_bond_atom_site_label_2
_geom_bond_site_symmetry_1
_geom_bond_site_symmetry_2
Zn1 O1 1_555 1_555
O1 C13 1_555 1_555
O2 C13 1_555 1_555
O3 C17 1_555 1_555
O4 C17 1_555 1_555
O5 Zn1 1_555 1_555
N1 Zn1 1_555 1_555
N2 Zn1 1_555 1_555
C1 N1 1_555 1_555
C2 N1 1_555 1_555
C3 C2 1_555 1_555
C4 C3 1_555 1_555
C5 C1 1_555 1_555
C6 C5 1_555 1_555
C7 C6 1_555 1_555
C8 C7 1_555 1_555
C9 C8 1_555 1_555
C10 C9 1_555 1_555
C11 N2 1_555 1_555
C12 N2 1_555 1_555
C13 C14 1_555 1_555
C14 C15 1_555 1_555
C15 C17 1_555 1_555
C16 C14 1_555 1_555
H1 O5 1_555 1_555
H2 O5 1_555 1_555
H3 C2 1_555 1_555
H4 C3 1_555 1_555
H5 C4 1_555 1_555
H6 C6 1_555 1_555
H7 C7 1_555 1_555
H8 C9 1_555 1_555
H9 C10 1_555 1_555
H10 C11 1_555 1_555
H11 C16 1_555 1_555
Zn1B O1B 1_555 1_555
Zn1_2 O4 1_555 1_555
Zn1B_2 O4B 1_555 1_555
O1B C13B 1_555 1_555
O2B C13B 1_555 1_555
O3B C17B 1_555 1_555
O4B C17B 1_555 1_555
O4_2 Zn1 1_555 1_555
O4B_2 Zn1B 1_555 1_555
O5B Zn1B 1_555 1_555
N1B Zn1B 1_555 1_555
N2B Zn1B 1_555 1_555
C1B N1B 1_555 1_555
C2B N1B 1_555 1_555
C3B C2B 1_555 1_555
C4B C3B 1_555 1_555
C5B C1B 1_555 1_555
C6B C5B 1_555 1_555
C7B C6B 1_555 1_555
C8B C7B 1_555 1_555
C9B C8B 1_555 1_555
C10B C9B 1_555 1_555
C11B N2B 1_555 1_555
C12B N2B 1_555 1_555
C13B C14B 1_555 1_555
C14B C15B 1_555 1_555
C15B C16 1_555 1_555
C16B C15 1_555 1_555
C17B C15B 1_555 1_555
H1B O5B 1_555 1_555
H2B O5B 1_555 1_555
H3B C2B 1_555 1_555
H4B C3B 1_555 1_555
H5B C4B 1_555 1_555
H6B C6B 1_555 1_555
H7B C7B 1_555 1_555
H8B C9B 1_555 1_555
H9B C10B 1_555 1_555
H10B C11B 1_555 1_555
H11B C16B 1_555 1_555
C1 C12 1_555 1_555
C4 C5 1_555 1_555
C8 C12 1_555 1_555
C10 C11 1_555 1_555
C1B C12B 1_555 1_555
C4B C5B 1_555 1_555
C8B C12B 1_555 1_555
C10B C11B 1_555 1_555
C14B C16B 1_555 1_555

#END
