
#######################################################################
#
#                 Cambridge Crystallographic Data Centre
#                                CCDC 
#
#######################################################################
#
# If this CIF has been generated from an entry in the Cambridge 
# Structural Database, then it will include bibliographic, chemical, 
# crystal, experimental, refinement or atomic coordinate data resulting 
# from the CCDC's data processing and validation procedures.
#
#######################################################################

data_FETJOE01
_symmetry_cell_setting           monoclinic
_symmetry_space_group_name_H-M   'P 21/n'
_symmetry_Int_Tables_number      14
_space_group_name_Hall           '-P 2yn'
loop_
_symmetry_equiv_pos_site_id
_symmetry_equiv_pos_as_xyz
1 x,y,z
2 1/2-x,1/2+y,1/2-z
3 -x,-y,-z
4 1/2+x,1/2-y,1/2+z
_cell_length_a                   7.9585(4)
_cell_length_b                   11.7976(5)
_cell_length_c                   15.3951(7)
_cell_angle_alpha                90
_cell_angle_beta                 99.6080(10)
_cell_angle_gamma                90
_cell_volume                     1425.19
loop_
_atom_site_label
_atom_site_type_symbol
_atom_site_fract_x
_atom_site_fract_y
_atom_site_fract_z
C1 C 0.7197(2) 0.93308(15) 0.66320(12)
Zn1 Zn 0.08915(2) 0.912215(19) 0.753815(13)
O1 O 0.21726(19) 0.91963(12) 0.65459(10)
O2 O 0.66416(17) 0.85687(13) 0.70607(9)
O3 O 0.86902(16) 0.97495(12) 0.67922(9)
N1 N 0.2852(2) 0.83602(14) 0.84754(10)
C2 C 0.6048(2) 0.97551(15) 0.58109(12)
N2 N 0.0986(2) 1.02267(13) 0.86051(11)
C3 C 0.3447(2) 0.98590(15) 0.65808(12)
C4 C 0.4280(2) 0.98805(14) 0.57674(11)
C5 C 0.2205(3) 1.04423(18) 1.01521(13)
O4 O -0.0428(2) 0.76596(14) 0.77662(13)
O5 O 0.39651(19) 1.05110(13) 0.71960(10)
C6 C 0.4964(3) 0.74130(19) 0.99202(16)
C7 C 0.2024(2) 0.98616(16) 0.93444(12)
C8 C 0.4036(2) 0.84056(17) 1.00273(13)
C9 C 0.2984(2) 0.88422(17) 0.92822(12)
C10 C 0.6731(2) 0.98826(15) 0.50384(12)
C11 C 0.4178(3) 0.9013(2) 1.08425(15)
C12 C 0.0272(3) 1.18292(18) 0.94250(16)
C13 C 0.3777(3) 0.74399(18) 0.83958(15)
C14 C 0.1274(3) 1.14591(18) 1.01672(15)
C15 C 0.4843(3) 0.6946(2) 0.90971(17)
C16 C 0.0126(3) 1.11867(18) 0.86500(14)
C17 C 0.3310(3) 0.9983(2) 1.09046(14)
H1 H -0.057(3) 1.1434(18) 0.8144(14)
H2 H 0.792(3) 0.978(2) 0.5069(15)
H3 H 0.495(3) 0.870(2) 1.1303(16)
H4 H 0.332(3) 1.038(2) 1.1432(18)
H5 H 0.567(4) 0.708(2) 1.0373(18)
H6 H 0.130(4) 1.192(3) 1.068(2)
H7 H 0.369(4) 0.719(2) 0.777(2)
H8 H -0.040(4) 1.247(2) 0.937(2)
H9 H 0.540(4) 0.634(3) 0.8995(19)
H10 H -0.118(5) 0.765(3) 0.745(2)
H11 H -0.022(6) 0.692(4) 0.772(3)
C1B C 0.2803(2) 1.06692(15) 0.33680(12)
Zn1B Zn 0.91085(2) 1.087785(19) 0.246185(13)
Zn1_2 Zn 1.08915(2) 0.912215(19) 0.753815(13)
Zn1B_2 Zn -0.08915(2) 1.087785(19) 0.246185(13)
O1B O 0.78274(19) 1.08037(12) 0.34541(10)
O2B O 0.33584(17) 1.14313(13) 0.29393(9)
O3B O 0.13098(16) 1.02505(12) 0.32078(9)
O3_2 O -0.13098(16) 0.97495(12) 0.67922(9)
O3B_2 O 1.13098(16) 1.02505(12) 0.32078(9)
N1B N 0.7148(2) 1.16398(14) 0.15246(10)
C2B C 0.3952(2) 1.02449(15) 0.41891(12)
N2B N 0.9014(2) 0.97733(13) 0.13949(11)
C3B C 0.6553(2) 1.01410(15) 0.34192(12)
C4B C 0.5720(2) 1.01195(14) 0.42326(11)
C5B C 0.7795(3) 0.95577(18) -0.01521(13)
O4B O 1.0428(2) 1.23404(14) 0.22338(13)
O5B O 0.60349(19) 0.94890(13) 0.28040(10)
C6B C 0.5036(3) 1.25870(19) 0.00798(16)
C7B C 0.7976(2) 1.01384(16) 0.06556(12)
C8B C 0.5964(2) 1.15944(17) -0.00273(13)
C9B C 0.7016(2) 1.11578(17) 0.07178(12)
C10B C 0.3269(2) 1.01174(15) 0.49616(12)
C11B C 0.5822(3) 1.0987(2) -0.08425(15)
C12B C 0.9728(3) 0.81708(18) 0.05750(16)
C13B C 0.6223(3) 1.25601(18) 0.16042(15)
C14B C 0.8726(3) 0.85409(18) -0.01672(15)
C15B C 0.5157(3) 1.3054(2) 0.09029(17)
C16B C 0.9874(3) 0.88133(18) 0.13500(14)
C17B C 0.6690(3) 1.0017(2) -0.09046(14)
H1B H 1.057(3) 0.8566(18) 0.1856(14)
H2B H 0.208(3) 1.022(2) 0.4931(15)
H3B H 0.505(3) 1.130(2) -0.1303(16)
H4B H 0.668(3) 0.962(2) -0.1432(18)
H5B H 0.433(4) 1.292(2) -0.0373(18)
H6B H 0.870(4) 0.808(3) -0.068(2)
H7B H 0.631(4) 1.281(2) 0.223(2)
H8B H 1.040(4) 0.753(2) 0.063(2)
H9B H 0.460(4) 1.366(3) 0.1005(19)
H10B H 1.118(5) 1.235(3) 0.255(2)
H11B H 1.022(6) 1.308(4) 0.228(3)
loop_
_geom_bond_atom_site_label_1
_geom_bond_atom_site_label_2
_geom_bond_site_symmetry_1
_geom_bond_site_symmetry_2
C1 O2 1_555 1_555
Zn1 O1 1_555 1_555
O1 C3 1_555 1_555
O3 C1 1_555 1_555
N1 Zn1 1_555 1_555
C2 C1 1_555 1_555
N2 Zn1 1_555 1_555
C3 C4 1_555 1_555
C4 C2 1_555 1_555
C5 C7 1_555 1_555
O4 Zn1 1_555 1_555
O5 C3 1_555 1_555
C6 C8 1_555 1_555
C7 N2 1_555 1_555
C8 C9 1_555 1_555
C9 N1 1_555 1_555
C10 C2 1_555 1_555
C11 C8 1_555 1_555
C12 C14 1_555 1_555
C13 N1 1_555 1_555
C14 C5 1_555 1_555
C15 C6 1_555 1_555
C16 N2 1_555 1_555
C17 C5 1_555 1_555
H1 C16 1_555 1_555
H2 C10 1_555 1_555
H3 C11 1_555 1_555
H4 C17 1_555 1_555
H5 C6 1_555 1_555
H6 C14 1_555 1_555
H7 C13 1_555 1_555
H8 C12 1_555 1_555
H9 C15 1_555 1_555
H10 O4 1_555 1_555
H11 O4 1_555 1_555
C1B O2B 1_555 1_555
Zn1B O1B 1_555 1_555
Zn1_2 O3 1_555 1_555
Zn1B_2 O3B 1_555 1_555
O1B C3B 1_555 1_555
O3B C1B 1_555 1_555
O3_2 Zn1 1_555 1_555
O3B_2 Zn1B 1_555 1_555
N1B Zn1B 1_555 1_555
C2B C1B 1_555 1_555
N2B Zn1B 1_555 1_555
C3B C4B 1_555 1_555
C4B C10 1_555 1_555
C5B C7B 1_555 1_555
O4B Zn1B 1_555 1_555
O5B C3B 1_555 1_555
C6B C8B 1_555 1_555
C7B N2B 1_555 1_555
C8B C9B 1_555 1_555
C9B N1B 1_555 1_555
C10B C4 1_555 1_555
C11B C8B 1_555 1_555
C12B C14B 1_555 1_555
C13B N1B 1_555 1_555
C14B C5B 1_555 1_555
C15B C6B 1_555 1_555
C16B N2B 1_555 1_555
C17B C5B 1_555 1_555
H1B C16B 1_555 1_555
H2B C10B 1_555 1_555
H3B C11B 1_555 1_555
H4B C17B 1_555 1_555
H5B C6B 1_555 1_555
H6B C14B 1_555 1_555
H7B C13B 1_555 1_555
H8B C12B 1_555 1_555
H9B C15B 1_555 1_555
H10B O4B 1_555 1_555
H11B O4B 1_555 1_555
C7 C9 1_555 1_555
C11 C17 1_555 1_555
C12 C16 1_555 1_555
C13 C15 1_555 1_555
C2B C4B 1_555 1_555
C2B C10B 1_555 1_555
C7B C9B 1_555 1_555
C11B C17B 1_555 1_555
C12B C16B 1_555 1_555
C13B C15B 1_555 1_555

#END
