
#######################################################################
#
#                 Cambridge Crystallographic Data Centre
#                                CCDC 
#
#######################################################################
#
# If this CIF has been generated from an entry in the Cambridge 
# Structural Database, then it will include bibliographic, chemical, 
# crystal, experimental, refinement or atomic coordinate data resulting 
# from the CCDC's data processing and validation procedures.
#
#######################################################################

data_FETKIZ
_symmetry_cell_setting           monoclinic
_symmetry_space_group_name_H-M   'P 21/c'
_symmetry_Int_Tables_number      14
_space_group_name_Hall           '-P 2ybc'
loop_
_symmetry_equiv_pos_site_id
_symmetry_equiv_pos_as_xyz
1 x,y,z
2 -x,1/2+y,1/2-z
3 -x,-y,-z
4 x,1/2-y,1/2+z
_cell_length_a                   17.6227(9)
_cell_length_b                   11.3661(5)
_cell_length_c                   17.1939(7)
_cell_angle_alpha                90
_cell_angle_beta                 110.011(2)
_cell_angle_gamma                90
_cell_volume                     3236.04
loop_
_atom_site_label
_atom_site_type_symbol
_atom_site_fract_x
_atom_site_fract_y
_atom_site_fract_z
Co1 Co 0.43203(3) 0.53041(4) 0.37799(3)
O1 O 0.5503(2) 0.5222(2) 0.3853(2)
O2 O 0.5940(2) 0.4636(3) 0.5162(2)
O3 O 0.3040(2) 0.5428(3) 0.3044(2)
O4 O 0.3935(2) 0.5408(3) 0.2415(2)
N3 N 0.4290(2) 0.3434(3) 0.3754(2)
N4 N 0.4378(2) -0.2820(3) 0.3824(2)
N5 N 0.9794(3) 0.3747(7) 0.4301(4)
N6 N 0.0137(3) 0.6357(6) -0.1281(3)
C1 C 0.4700(3) 0.2827(4) 0.3357(3)
C2 C 0.4736(3) 0.1613(4) 0.3339(3)
C3 C 0.4328(2) 0.0952(3) 0.3768(2)
C4 C 0.3910(3) 0.1582(4) 0.4181(3)
C5 C 0.3900(3) 0.2796(4) 0.4160(3)
C6 C 0.3787(3) -0.2203(4) 0.3949(4)
C7 C 0.3749(3) -0.0995(4) 0.3931(4)
C8 C 0.4352(2) -0.0352(3) 0.3782(3)
C9 C 0.4962(3) -0.0985(4) 0.3646(3)
C10 C 0.4948(3) -0.2201(4) 0.3671(3)
C11 C 0.6038(3) 0.4843(3) 0.4491(3)
C12 C 0.6860(2) 0.4605(3) 0.4438(3)
C13 C 0.6959(3) 0.4482(4) 0.3682(3)
C14 C 0.7713(3) 0.4246(5) 0.3628(3)
C15 C 0.8373(3) 0.4161(5) 0.4361(3)
C16 C 0.8280(3) 0.4290(5) 0.5120(3)
C17 C 0.7527(3) 0.4495(4) 0.5164(3)
C18 C 0.9170(3) 0.3919(6) 0.4319(4)
C19 C 0.3216(3) 0.5499(3) 0.2394(3)
C20 C 0.2553(3) 0.5700(4) 0.1578(3)
C21 C 0.1755(3) 0.5627(5) 0.1540(3)
C22 C 0.1138(3) 0.5805(5) 0.0795(3)
C23 C 0.1322(3) 0.6053(5) 0.0091(3)
C24 C 0.2115(3) 0.6130(5) 0.0123(3)
C25 C 0.2734(3) 0.5951(5) 0.0873(3)
C26 C 0.0662(3) 0.6229(6) -0.0688(3)
H3 H 0.4983 0.3258 0.3070
H4 H 0.5032 0.1230 0.3043
H5 H 0.3629 0.1176 0.4481
H6 H 0.3603 0.3202 0.4445
H7 H 0.3368 -0.2623 0.4058
H8 H 0.3309 -0.0603 0.4020
H9 H 0.5390 -0.0589 0.3536
H10 H 0.5374 -0.2618 0.3572
H11 H 0.6505 0.4559 0.3189
H12 H 0.7777 0.4145 0.3106
H13 H 0.8736 0.4236 0.5613
H14 H 0.7460 0.4562 0.5688
H15 H 0.1633 0.5454 0.2025
H16 H 0.0591 0.5759 0.0766
H17 H 0.2236 0.6304 -0.0362
H18 H 0.3281 0.6001 0.0902
Co1B Co 0.56797(3) 0.46959(4) 0.62201(3)
Co1_2 Co 0.43203(3) -0.46959(4) 0.37799(3)
O2B O 0.4060(2) 0.5364(3) 0.4838(2)
N4_2 N 0.4378(2) 0.7180(3) 0.3824(2)
O5 O 0.1870(3) 0.9846(6) 0.3173(4)
N1 N 0.0881(5) 1.1194(8) 0.2967(4)
C27 C 0.1618(8) 1.0708(13) 0.3334(7)
C28 C 0.0255(9) 1.0816(15) 0.2338(8)
C29 C 0.0820(10) 1.2340(10) 0.3260(7)
H19 H 0.1976 1.1139 0.3784
H20 H -0.0241 1.0923 0.2467
H21 H 0.0326 0.9980 0.2242
H22 H 0.0217 1.1267 0.1840
H23 H 0.0359 1.2384 0.3451
H24 H 0.0750 1.2911 0.2812
H25 H 0.1317 1.2529 0.3721
O6 O 0.2909(4) 0.2142(5) 0.5336(4)
N2 N 0.2234(2) 0.2451(4) 0.6211(3)
C30 C 0.2831(7) 0.2219(8) 0.5971(9)
C31 C 0.1444(5) 0.2590(10) 0.5708(9)
C32 C 0.2368(9) 0.2518(9) 0.7068(5)
H26 H 0.3319 0.2079 0.6418
H27 H 0.1159 0.3072 0.5990
H28 H 0.1185 0.1812 0.5585
H29 H 0.1425 0.2969 0.5191
H30 H 0.2172 0.3275 0.7194
H31 H 0.2948 0.2447 0.7378
H32 H 0.2078 0.1877 0.7227
O7 O 0.1730(10) 0.720(2) 0.3202(11)
H1 H 0.2150 0.6829 0.3149
H2 H 0.1862 0.7951 0.3181
loop_
_geom_bond_atom_site_label_1
_geom_bond_atom_site_label_2
_geom_bond_site_symmetry_1
_geom_bond_site_symmetry_2
Co1 O1 1_555 1_555
O1 C11 1_555 1_555
O2 C11 1_555 1_555
O3 Co1 1_555 1_555
O4 Co1 1_555 1_555
O5 C27 1_555 1_555
O6 C30 1_555 1_555
O7 H1 1_555 1_555
N1 C27 1_555 1_555
N2 C30 1_555 1_555
N3 Co1 1_555 1_555
N4 C6 1_555 1_555
N5 C18 1_555 1_555
N6 C26 1_555 1_555
C1 N3 1_555 1_555
C2 C1 1_555 1_555
C3 C2 1_555 1_555
C4 C3 1_555 1_555
C5 N3 1_555 1_555
C6 C7 1_555 1_555
C7 C8 1_555 1_555
C8 C3 1_555 1_555
C9 C8 1_555 1_555
C10 N4 1_555 1_555
C11 C12 1_555 1_555
C12 C13 1_555 1_555
C13 C14 1_555 1_555
C14 C15 1_555 1_555
C15 C16 1_555 1_555
C16 C17 1_555 1_555
C17 C12 1_555 1_555
C18 C15 1_555 1_555
C19 O3 1_555 1_555
C20 C19 1_555 1_555
C21 C20 1_555 1_555
C22 C21 1_555 1_555
C23 C22 1_555 1_555
C24 C23 1_555 1_555
C25 C20 1_555 1_555
C26 C23 1_555 1_555
C27 H19 1_555 1_555
C28 N1 1_555 1_555
C29 N1 1_555 1_555
C30 H26 1_555 1_555
C31 N2 1_555 1_555
C32 N2 1_555 1_555
H2 O7 1_555 1_555
H3 C1 1_555 1_555
H4 C2 1_555 1_555
H5 C4 1_555 1_555
H6 C5 1_555 1_555
H7 C6 1_555 1_555
H8 C7 1_555 1_555
H9 C9 1_555 1_555
H10 C10 1_555 1_555
H11 C13 1_555 1_555
H12 C14 1_555 1_555
H13 C16 1_555 1_555
H14 C17 1_555 1_555
H15 C21 1_555 1_555
H16 C22 1_555 1_555
H17 C24 1_555 1_555
H18 C25 1_555 1_555
H20 C28 1_555 1_555
H21 C28 1_555 1_555
H22 C28 1_555 1_555
H23 C29 1_555 1_555
H24 C29 1_555 1_555
H25 C29 1_555 1_555
H27 C31 1_555 1_555
H28 C31 1_555 1_555
H29 C31 1_555 1_555
H30 C32 1_555 1_555
H31 C32 1_555 1_555
H32 C32 1_555 1_555
Co1B O2 1_555 1_555
Co1_2 N4 1_555 1_555
O2B Co1 1_555 1_555
N4_2 Co1 1_555 1_555
O4 C19 1_555 1_555
C4 C5 1_555 1_555
C9 C10 1_555 1_555
C24 C25 1_555 1_555

#END
