
#######################################################################
#
#                 Cambridge Crystallographic Data Centre
#                                CCDC 
#
#######################################################################
#
# If this CIF has been generated from an entry in the Cambridge 
# Structural Database, then it will include bibliographic, chemical, 
# crystal, experimental, refinement or atomic coordinate data resulting 
# from the CCDC's data processing and validation procedures.
#
#######################################################################

data_FETKUL
_symmetry_cell_setting           orthorhombic
_symmetry_space_group_name_H-M   'C 2 2 21'
_symmetry_Int_Tables_number      20
_space_group_name_Hall           'C 2n 2'
loop_
_symmetry_equiv_pos_site_id
_symmetry_equiv_pos_as_xyz
1 x,y,z
2 -x,-y,1/2+z
3 -x,y,1/2-z
4 x,-y,-z
5 1/2+x,1/2+y,z
6 1/2-x,1/2-y,1/2+z
7 1/2-x,1/2+y,1/2-z
8 1/2+x,1/2-y,-z
_cell_length_a                   11.4626(6)
_cell_length_b                   12.0032(9)
_cell_length_c                   16.7541(9)
_cell_angle_alpha                90
_cell_angle_beta                 90
_cell_angle_gamma                90
_cell_volume                     2305.16
loop_
_atom_site_label
_atom_site_type_symbol
_atom_site_fract_x
_atom_site_fract_y
_atom_site_fract_z
Fe1 Fe 0.69232(3) 0.5000 0.0000
N1 N 0.69258(16) 0.41557(14) 0.10494(9)
N2 N 0.66661(14) 0.32129(15) 0.11761(9)
N3 N 0.64264(19) 0.22990(16) 0.13373(12)
N4 N 0.69594(16) 0.64899(13) 0.06089(10)
N5 N 0.76363(15) 0.66735(14) 0.11328(10)
N6 N 0.82889(19) 0.68931(17) 0.16284(12)
N7 N 0.50296(17) 0.5000 0.0000
C1 C 0.44278(14) 0.40438(14) 0.00200(15)
H1 H 0.4848 0.3362 0.0034
C2 C 0.32194(14) 0.40041(13) 0.00209(13)
H2 H 0.2825 0.3308 0.0036
C3 C 0.2587(2) 0.5000 0.0000
C4 C 0.1295(2) 0.5000 0.0000
C5 C 0.06571(18) 0.41411(17) 0.03565(12)
H3 H 0.1049 0.3536 0.0605
C6 C -0.05449(18) 0.41773(17) 0.03451(12)
H4 H -0.0962 0.3589 0.0595
N8 N -0.11587(17) 0.5000 0.0000
N9 N 0.5000 0.40351(19) 0.2500
C7 C 0.5829(2) 0.46241(17) 0.28723(13)
H5 H 0.6424 0.4226 0.3145
C8 C 0.58738(19) 0.57798(18) 0.28841(12)
H6 H 0.6492 0.6153 0.3151
C9 C 0.5000 0.6388(2) 0.2500
C10 C 0.5000 0.7621(2) 0.2500
C11 C 0.60332(18) 0.82270(17) 0.25538(13)
H7 H 0.6761 0.7852 0.2590
C12 C 0.59897(19) 0.93868(16) 0.25546(13)
H8 H 0.6703 0.9786 0.2596
N10 N 0.5000 0.9967(2) 0.2500
Na1 Na 0.5000 0.19824(9) 0.2500
Fe1_2 Fe -0.30768(3) 0.5000 0.0000
N1C N 0.69258(16) 0.58443(14) -0.10494(9)
N2C N 0.66661(14) 0.67871(15) -0.11761(9)
N3C N 0.64264(19) 0.77010(16) -0.13373(12)
N3B N 0.35736(19) 0.22990(16) 0.36627(12)
N4C N 0.69594(16) 0.35101(13) -0.06089(10)
N5C N 0.76363(15) 0.33265(14) -0.11328(10)
N6C N 0.82889(19) 0.31069(17) -0.16284(12)
N6D N 0.32889(19) 0.18931(17) 0.16284(12)
N6F N 0.67111(19) 0.18931(17) 0.33716(12)
C1C C 0.44278(14) 0.59562(14) -0.00200(15)
H1C H 0.4848 0.6638 -0.0034
C2C C 0.32194(14) 0.59959(13) -0.00209(13)
H2C H 0.2825 0.6692 -0.0036
C5C C 0.06571(18) 0.58589(17) -0.03565(12)
H3C H 0.1049 0.6464 -0.0605
C6C C -0.05449(18) 0.58227(17) -0.03451(12)
H4C H -0.0962 0.6411 -0.0595
N8_2 N 0.88413(17) 0.5000 0.0000
C7B C 0.4171(2) 0.46241(17) 0.21277(13)
H5B H 0.3576 0.4226 0.1855
C8B C 0.41262(19) 0.57798(18) 0.21159(12)
H6B H 0.3508 0.6153 0.1849
C11B C 0.39668(18) 0.82270(17) 0.24462(13)
H7B H 0.3239 0.7852 0.2410
C12B C 0.40103(19) 0.93868(16) 0.24454(13)
H8B H 0.3297 0.9786 0.2404
N10_2 N 0.5000 -0.0033(2) 0.2500
Na1D Na 1.0000 0.69824(9) 0.2500
Na1_2 Na 0.5000 1.19824(9) 0.2500
Na1A Na 0.5000 0.80176(9) -0.2500
Na1E Na 1.0000 0.30176(9) -0.2500
loop_
_geom_bond_atom_site_label_1
_geom_bond_atom_site_label_2
_geom_bond_site_symmetry_1
_geom_bond_site_symmetry_2
Fe1 N1 1_555 1_555
N1 N2 1_555 1_555
N2 N3 1_555 1_555
N3 Na1 1_555 1_555
N4 Fe1 1_555 1_555
N5 N4 1_555 1_555
N6 N5 1_555 1_555
N7 Fe1 1_555 1_555
C1 N7 1_555 1_555
H1 C1 1_555 1_555
C2 C1 1_555 1_555
H2 C2 1_555 1_555
C3 C2 1_555 1_555
C4 C3 1_555 1_555
C5 C4 1_555 1_555
H3 C5 1_555 1_555
C6 C5 1_555 1_555
H4 C6 1_555 1_555
N8 C6 1_555 1_555
N9 C7 1_555 1_555
C7 H5 1_555 1_555
C8 C7 1_555 1_555
H6 C8 1_555 1_555
C9 C8 1_555 1_555
C10 C9 1_555 1_555
C11 C10 1_555 1_555
H7 C11 1_555 1_555
C12 C11 1_555 1_555
H8 C12 1_555 1_555
N10 C12 1_555 1_555
Na1 N9 1_555 1_555
Fe1_2 N8 1_555 1_555
N1C Fe1 1_555 1_555
N2C N1C 1_555 1_555
N3C N2C 1_555 1_555
N3B Na1 1_555 1_555
N4C Fe1 1_555 1_555
N5C N4C 1_555 1_555
N6C N5C 1_555 1_555
N6D Na1 1_555 1_555
N6F Na1 1_555 1_555
C1C N7 1_555 1_555
H1C C1C 1_555 1_555
C2C C3 1_555 1_555
H2C C2C 1_555 1_555
C5C C4 1_555 1_555
H3C C5C 1_555 1_555
C6C N8 1_555 1_555
H4C C6C 1_555 1_555
N8_2 Fe1 1_555 1_555
C7B N9 1_555 1_555
H5B C7B 1_555 1_555
C8B C9 1_555 1_555
H6B C8B 1_555 1_555
C11B C10 1_555 1_555
H7B C11B 1_555 1_555
C12B N10 1_555 1_555
H8B C12B 1_555 1_555
N10_2 Na1 1_555 1_555
Na1D N6 1_555 1_555
Na1_2 N10 1_555 1_555
Na1A N3C 1_555 1_555
Na1E N6C 1_555 1_555
C1C C2C 1_555 1_555
C5C C6C 1_555 1_555
C7B C8B 1_555 1_555
C11B C12B 1_555 1_555

#END
