
#######################################################################
#
#                 Cambridge Crystallographic Data Centre
#                                CCDC 
#
#######################################################################
#
# If this CIF has been generated from an entry in the Cambridge 
# Structural Database, then it will include bibliographic, chemical, 
# crystal, experimental, refinement or atomic coordinate data resulting 
# from the CCDC's data processing and validation procedures.
#
#######################################################################

data_FETMOH
_symmetry_cell_setting           monoclinic
_symmetry_space_group_name_H-M   'P 21/c'
_symmetry_Int_Tables_number      14
_space_group_name_Hall           '-P 2ybc'
loop_
_symmetry_equiv_pos_site_id
_symmetry_equiv_pos_as_xyz
1 x,y,z
2 -x,1/2+y,1/2-z
3 -x,-y,-z
4 x,1/2-y,1/2+z
_cell_length_a                   15.795(3)
_cell_length_b                   7.917(2)
_cell_length_c                   9.829(2)
_cell_angle_alpha                90
_cell_angle_beta                 90.65(3)
_cell_angle_gamma                90
_cell_volume                     1229.03
loop_
_atom_site_label
_atom_site_type_symbol
_atom_site_fract_x
_atom_site_fract_y
_atom_site_fract_z
Ca1 Ca 0.63980(10) 0.46040(10) 0.3150(10)
O1 O 0.6002(3) 0.6325(6) 0.4971(5)
O2 O 0.6221(3) 0.8152(6) 0.6611(6)
O3 O 0.7458(3) 0.7036(6) 0.3826(5)
O4 O 0.8931(3) 1.1001(6) 0.0910(5)
O5 O 0.6951(3) 1.3101(6) 0.1307(5)
O6 O 0.7447(3) 1.1687(6) -0.0463(5)
O7 O 0.5671(3) 0.2318(6) 0.4330(6)
O8 O 0.4985(4) 0.4383(8) 0.2220(7)
C1 C 0.6406(4) 0.7506(8) 0.5503(7)
C2 C 0.7146(4) 0.8237(8) 0.4755(7)
C3 C 0.8124(4) 0.7531(8) 0.3015(7)
C4 C 0.8728(4) 0.6315(8) 0.2781(7)
C5 C 0.9380(4) 0.6689(8) 0.1874(8)
C6 C 0.9426(4) 0.8253(8) 0.1263(7)
C7 C 0.8824(4) 0.9469(8) 0.1557(7)
C8 C 0.8161(4) 0.9121(9) 0.2433(8)
C9 C 0.8408(4) 1.2363(8) 0.1334(7)
C10 C 0.7529(4) 1.2358(8) 0.0674(7)
H1 H 0.5192 0.2674 0.4599
H2 H 0.5972 0.2034 0.5017
H3 H 0.4620 0.4020 0.2775
H4 H 0.4804 0.5268 0.1828
H5 H 0.6971 0.9248 0.4271
H6 H 0.7590 0.8545 0.5399
H7 H 0.8704 0.5272 0.3214
H8 H 0.9786 0.5874 0.1683
H9 H 0.9859 0.8490 0.0658
H10 H 0.7754 0.9934 0.2623
H11 H 0.8688 1.3419 0.1118
H12 H 0.8348 1.2310 0.2314
Ca1C Ca 0.63980(10) 1.03960(10) 0.8150(10)
Ca1_2 Ca 0.63980(10) 1.46040(10) 0.3150(10)
Ca1C_2 Ca 0.63980(10) 1.03960(10) -0.1850(10)
O2C O 0.6221(3) 0.6848(6) 0.1611(6)
O5_2 O 0.6951(3) 0.3101(6) 0.1307(5)
O6C O 0.7447(3) 0.3313(6) 0.4537(5)
loop_
_geom_bond_atom_site_label_1
_geom_bond_atom_site_label_2
_geom_bond_site_symmetry_1
_geom_bond_site_symmetry_2
Ca1 O1 1_555 1_555
O1 C1 1_555 1_555
O2 C1 1_555 1_555
O3 Ca1 1_555 1_555
O4 C7 1_555 1_555
O5 C10 1_555 1_555
O6 C10 1_555 1_555
O7 Ca1 1_555 1_555
O8 Ca1 1_555 1_555
C1 C2 1_555 1_555
C2 O3 1_555 1_555
C3 O3 1_555 1_555
C4 C3 1_555 1_555
C5 C4 1_555 1_555
C6 C5 1_555 1_555
C7 C6 1_555 1_555
C8 C3 1_555 1_555
C9 O4 1_555 1_555
C10 C9 1_555 1_555
H1 O7 1_555 1_555
H2 O7 1_555 1_555
H3 O8 1_555 1_555
H4 O8 1_555 1_555
H5 C2 1_555 1_555
H6 C2 1_555 1_555
H7 C4 1_555 1_555
H8 C5 1_555 1_555
H9 C6 1_555 1_555
H10 C8 1_555 1_555
H11 C9 1_555 1_555
H12 C9 1_555 1_555
Ca1C O2 1_555 1_555
Ca1_2 O5 1_555 1_555
Ca1C_2 O6 1_555 1_555
O2C Ca1 1_555 1_555
O5_2 Ca1 1_555 1_555
O6C Ca1 1_555 1_555
C7 C8 1_555 1_555

#END
