
#######################################################################
#
#                 Cambridge Crystallographic Data Centre
#                                CCDC 
#
#######################################################################
#
# If this CIF has been generated from an entry in the Cambridge 
# Structural Database, then it will include bibliographic, chemical, 
# crystal, experimental, refinement or atomic coordinate data resulting 
# from the CCDC's data processing and validation procedures.
#
#######################################################################

data_FETTIH
_symmetry_cell_setting           monoclinic
_symmetry_space_group_name_H-M   'C 2/c'
_symmetry_Int_Tables_number      15
_space_group_name_Hall           '-C 2yn'
loop_
_symmetry_equiv_pos_site_id
_symmetry_equiv_pos_as_xyz
1 x,y,z
2 1/2+x,1/2+y,z
3 -x,y,1/2-z
4 1/2-x,1/2+y,1/2-z
5 -x,-y,-z
6 1/2-x,1/2-y,-z
7 x,-y,1/2+z
8 1/2+x,1/2-y,1/2+z
_cell_length_a                   16.247(5)
_cell_length_b                   12.759(2)
_cell_length_c                   16.526(8)
_cell_angle_alpha                90
_cell_angle_beta                 118.40(5)
_cell_angle_gamma                90
_cell_volume                     3013.47
loop_
_atom_site_label
_atom_site_type_symbol
_atom_site_fract_x
_atom_site_fract_y
_atom_site_fract_z
U1 U 0.2500 0.2500 0.0000
O1 O 0.2187(4) 0.2571(7) -0.1559(3)
O2 O 0.2849(6) 0.0814(6) -0.0567(5)
O3 O 0.3409(5) 0.0919(6) 0.0888(4)
O4 O 0.3582(7) -0.0523(7) 0.0292(6)
O5 O 0.1412(5) 0.1962(6) -0.0260(4)
N1 N 0.1601(5) 0.2760(6) -0.3082(5)
N2 N 0.3280(7) 0.0359(8) 0.0188(6)
C1 C 0.1570(5) 0.2319(7) -0.2364(5)
C2 C 0.0782(6) 0.1586(8) -0.2495(6)
C3 C 0.0000 0.2259(9) -0.250
C4 C 0.2320(8) 0.357(1) -0.2930(7)
C5 C 0.2128(8) 0.459(1) -0.2603(8)
C6 C 0.1140(9) 0.500(1) -0.3137(9)
C7 C 0.100(1) 0.609(2) -0.282(1)
C8 C 0.0924(6) 0.257(1) -0.4048(6)
C9 C 0.131(1) 0.174(1) -0.4445(9)
C10 C 0.054(1) 0.158(2) -0.551(1)
C11 C 0.075(2) 0.094(2) -0.600(2)
O1E O 0.2813(4) 0.2429(7) 0.1559(3)
O2E O 0.2151(6) 0.4186(6) 0.0567(5)
O3E O 0.1591(5) 0.4081(6) -0.0888(4)
O5E O 0.3588(5) 0.3038(6) 0.0260(4)
C2B C -0.0782(6) 0.1586(8) -0.2505(6)
C1E C 0.3430(5) 0.2681(7) 0.2364(5)
N2E N 0.1720(7) 0.4641(8) -0.0188(6)
C1B C -0.1570(5) 0.2319(7) -0.2636(5)
N1E N 0.3399(5) 0.2240(6) 0.3082(5)
C2E C 0.4218(6) 0.3414(8) 0.2495(6)
O4E O 0.1418(7) 0.5523(7) -0.0292(6)
O1B O -0.2187(4) 0.2571(7) -0.3441(3)
N1B N -0.1601(5) 0.2760(6) -0.1918(5)
C4E C 0.2680(8) 0.143(1) 0.2930(7)
C8E C 0.4076(6) 0.243(1) 0.4048(6)
C3E C 0.5000 0.2741(9) 0.250
U1B U -0.2500 0.2500 -0.5000
C4B C -0.2320(8) 0.357(1) -0.2070(7)
C8B C -0.0924(6) 0.257(1) -0.0952(6)
C5E C 0.2872(8) 0.041(1) 0.2603(8)
C9E C 0.369(1) 0.326(1) 0.4445(9)
C2G C 0.5782(6) 0.3414(8) 0.2505(6)
O1G O -0.2813(4) 0.2429(7) -0.6559(3)
O2B O -0.2849(6) 0.0814(6) -0.4433(5)
O2G O -0.2151(6) 0.4186(6) -0.5567(5)
O3B O -0.3409(5) 0.0919(6) -0.5888(4)
O3G O -0.1591(5) 0.4081(6) -0.4112(4)
O5B O -0.1412(5) 0.1962(6) -0.4740(4)
O5G O -0.3588(5) 0.3038(6) -0.5260(4)
C5B C -0.2128(8) 0.459(1) -0.2397(8)
C9B C -0.131(1) 0.174(1) -0.0555(9)
C6E C 0.3860(9) 0.000(1) 0.3137(9)
C10E C 0.446(1) 0.342(2) 0.551(1)
C1G C 0.6570(5) 0.2681(7) 0.2636(5)
N2B N -0.3280(7) 0.0359(8) -0.5188(6)
N2G N -0.1720(7) 0.4641(8) -0.4812(6)
C6B C -0.1140(9) 0.500(1) -0.1863(9)
C10B C -0.054(1) 0.158(2) 0.051(1)
C7E C 0.400(1) -0.109(2) 0.282(1)
C11E C 0.425(2) 0.406(2) 0.600(2)
O1G_2 O 0.7187(4) 0.2429(7) 0.3441(3)
N1G N 0.6601(5) 0.2240(6) 0.1918(5)
O4B O -0.3582(7) -0.0523(7) -0.5292(6)
O4G O -0.1418(7) 0.5523(7) -0.4708(6)
C7B C -0.100(1) 0.609(2) -0.218(1)
C11B C -0.075(2) 0.094(2) 0.100(2)
C4G C 0.7320(8) 0.143(1) 0.2070(7)
C8G C 0.5924(6) 0.243(1) 0.0952(6)
C5G C 0.7128(8) 0.041(1) 0.2397(8)
C9G C 0.631(1) 0.326(1) 0.0555(9)
C6G C 0.6140(9) 0.000(1) 0.1863(9)
C10G C 0.554(1) 0.342(2) -0.051(1)
C7G C 0.600(1) -0.109(2) 0.218(1)
C11G C 0.575(2) 0.406(2) -0.100(2)
U1B_2 U 0.7500 0.2500 0.5000
loop_
_geom_bond_atom_site_label_1
_geom_bond_atom_site_label_2
_geom_bond_site_symmetry_1
_geom_bond_site_symmetry_2
U1 O1 1_555 1_555
O1 C1 1_555 1_555
O2 U1 1_555 1_555
O3 U1 1_555 1_555
O4 N2 1_555 1_555
O5 U1 1_555 1_555
N1 C1 1_555 1_555
N2 O2 1_555 1_555
C1 C2 1_555 1_555
C2 C3 1_555 1_555
C3 C2B 1_555 1_555
C4 N1 1_555 1_555
C5 C4 1_555 1_555
C6 C5 1_555 1_555
C7 C6 1_555 1_555
C8 N1 1_555 1_555
C9 C8 1_555 1_555
C10 C9 1_555 1_555
C11 C10 1_555 1_555
O1E U1 1_555 1_555
O2E U1 1_555 1_555
O3E U1 1_555 1_555
O5E U1 1_555 1_555
C2B C1B 1_555 1_555
C1E O1E 1_555 1_555
N2E O2E 1_555 1_555
C1B O1B 1_555 1_555
N1E C1E 1_555 1_555
C2E C1E 1_555 1_555
O4E N2E 1_555 1_555
O1B U1B 1_555 1_555
N1B C1B 1_555 1_555
C4E N1E 1_555 1_555
C8E N1E 1_555 1_555
C3E C2E 1_555 1_555
U1B O1G 1_555 1_555
C4B N1B 1_555 1_555
C8B N1B 1_555 1_555
C5E C4E 1_555 1_555
C9E C8E 1_555 1_555
C2G C3E 1_555 1_555
O2B U1B 1_555 1_555
O2G U1B 1_555 1_555
O3B U1B 1_555 1_555
O3G U1B 1_555 1_555
O5B U1B 1_555 1_555
O5G U1B 1_555 1_555
C5B C4B 1_555 1_555
C9B C8B 1_555 1_555
C6E C5E 1_555 1_555
C10E C9E 1_555 1_555
C1G C2G 1_555 1_555
N2B O2B 1_555 1_555
N2G O2G 1_555 1_555
C6B C5B 1_555 1_555
C10B C9B 1_555 1_555
C7E C6E 1_555 1_555
C11E C10E 1_555 1_555
O1G_2 C1G 1_555 1_555
N1G C1G 1_555 1_555
O4B N2B 1_555 1_555
O4G N2G 1_555 1_555
C7B C6B 1_555 1_555
C11B C10B 1_555 1_555
C4G N1G 1_555 1_555
C8G N1G 1_555 1_555
C5G C4G 1_555 1_555
C9G C8G 1_555 1_555
C6G C5G 1_555 1_555
C10G C9G 1_555 1_555
C7G C6G 1_555 1_555
C11G C10G 1_555 1_555
U1B_2 O1G_2 1_555 1_555
O3 N2 1_555 1_555
O3E N2E 1_555 1_555
O3B N2B 1_555 1_555
O3G N2G 1_555 1_555

#END
