
#######################################################################
#
#                 Cambridge Crystallographic Data Centre
#                                CCDC 
#
#######################################################################
#
# If this CIF has been generated from an entry in the Cambridge 
# Structural Database, then it will include bibliographic, chemical, 
# crystal, experimental, refinement or atomic coordinate data resulting 
# from the CCDC's data processing and validation procedures.
#
#######################################################################

data_FEVFUJ
_symmetry_cell_setting           tetragonal
_symmetry_space_group_name_H-M   'I 41/a'
_symmetry_Int_Tables_number      88
_space_group_name_Hall           '-I 4ad'
loop_
_symmetry_equiv_pos_site_id
_symmetry_equiv_pos_as_xyz
1 x,y,z
2 1/2-x,-y,1/2+z
3 3/4-y,1/4+x,1/4+z
4 3/4+y,3/4-x,3/4+z
5 1/2+x,1/2+y,1/2+z
6 -x,1/2-y,z
7 1/4-y,3/4+x,3/4+z
8 1/4+y,1/4-x,1/4+z
9 -x,-y,-z
10 1/2+x,y,1/2-z
11 1/4+y,3/4-x,3/4-z
12 1/4-y,1/4+x,1/4-z
13 1/2-x,1/2-y,1/2-z
14 x,1/2+y,-z
15 3/4+y,1/4-x,1/4-z
16 3/4-y,3/4+x,3/4-z
_cell_length_a                   30.835(14)
_cell_length_b                   30.835(14)
_cell_length_c                   29.306(7)
_cell_angle_alpha                90
_cell_angle_beta                 90
_cell_angle_gamma                90
_cell_volume                     27864.1
loop_
_atom_site_label
_atom_site_type_symbol
_atom_site_fract_x
_atom_site_fract_y
_atom_site_fract_z
Cu1 Cu 0.076552(9) 0.380434(9) -0.021465(10)
Cu2 Cu 0.128492(9) 0.323738(9) 0.055104(9)
Cu3 Cu 0.149946(9) 0.425672(10) 0.038828(10)
N1 N 0.05361(5) 0.32862(5) -0.00085(5)
N2 N 0.07906(5) 0.30279(5) 0.02593(6)
N3 N 0.17357(6) 0.34987(5) 0.08726(6)
N4 N 0.17531(5) 0.39436(5) 0.08618(6)
N5 N 0.29573(6) 0.37888(6) 0.23756(6)
N6 N 0.31792(6) 0.35147(6) 0.20923(6)
C1 C 0.01622(6) 0.30739(6) -0.00893(6)
C2 C 0.01698(6) 0.26663(6) 0.01250(6)
C3 C 0.05744(6) 0.26557(6) 0.03458(6)
C4 C 0.07781(6) 0.23493(6) 0.06693(7)
C5 C 0.09127(7) 0.19365(7) 0.05450(8)
H1 H 0.0854 0.1830 0.0247
C6 C 0.11327(8) 0.16805(7) 0.08555(9)
H2 H 0.1221 0.1396 0.0771
C7 C 0.12253(7) 0.18340(8) 0.12862(8)
H3 H 0.1384 0.1659 0.1494
C8 C 0.10888(8) 0.22403(7) 0.14151(7)
H4 H 0.1149 0.2344 0.1714
C9 C 0.08649(7) 0.24977(7) 0.11108(7)
H5 H 0.0769 0.2777 0.1202
C10 C -0.01959(7) 0.32817(7) -0.03414(7)
C11 C -0.04466(8) 0.30483(9) -0.06529(8)
H6 H -0.0377 0.2755 -0.0720
C12 C -0.07974(9) 0.32454(11) -0.08646(10)
H7 H -0.0968 0.3085 -0.1076
C13 C -0.09014(10) 0.36703(11) -0.07718(11)
H8 H -0.1142 0.3802 -0.0919
C14 C -0.06596(9) 0.39033(10) -0.04687(11)
H9 H -0.0732 0.4197 -0.0406
C15 C -0.03072(8) 0.37105(8) -0.02515(8)
H10 H -0.0141 0.3874 -0.0039
C16 C 0.20145(6) 0.33616(6) 0.11974(7)
C17 C 0.22189(7) 0.37193(7) 0.13954(7)
C18 C 0.20412(7) 0.40795(7) 0.11763(7)
C19 C 0.20839(7) 0.29005(7) 0.13087(8)
C20 C 0.21538(8) 0.25926(8) 0.09708(9)
H11 H 0.2131 0.2672 0.0659
C21 C 0.22570(9) 0.21685(8) 0.10880(11)
H12 H 0.2307 0.1960 0.0855
C22 C 0.22876(10) 0.20492(8) 0.15394(12)
H13 H 0.2362 0.1760 0.1617
C23 C 0.22103(9) 0.23486(9) 0.18775(10)
H14 H 0.2226 0.2265 0.2189
C24 C 0.21094(8) 0.27701(8) 0.17625(8)
H15 H 0.2056 0.2976 0.1998
C25 C 0.21205(9) 0.45439(7) 0.12473(8)
C26 C 0.25463(12) 0.46975(9) 0.12922(11)
H16 H 0.2784 0.4502 0.1272
C27 C 0.26193(19) 0.51388(12) 0.13674(15)
H17 H 0.2907 0.5245 0.1400
C28 C 0.2271(2) 0.54206(11) 0.13945(17)
H18 H 0.2320 0.5721 0.1445
C29 C 0.1863(2) 0.52730(12) 0.13497(16)
H19 H 0.1627 0.5470 0.1369
C30 C 0.17815(13) 0.48320(9) 0.12754(12)
H20 H 0.1492 0.4732 0.1244
C31 C 0.25855(7) 0.39039(7) 0.21644(7)
C32 C 0.25659(6) 0.37038(6) 0.17383(7)
C33 C 0.29475(7) 0.34653(7) 0.17070(7)
C34 C 0.22709(8) 0.42024(7) 0.23712(8)
C35 C 0.23988(10) 0.45965(9) 0.25540(11)
H21 H 0.2697 0.4675 0.2556
C36 C 0.20902(14) 0.48751(12) 0.27334(14)
H22 H 0.2180 0.5141 0.2867
C37 C 0.16663(14) 0.47747(15) 0.27210(15)
H23 H 0.1459 0.4974 0.2837
C38 C 0.15311(11) 0.43831(13) 0.25406(14)
H24 H 0.1232 0.4310 0.2537
C39 C 0.18339(9) 0.41007(10) 0.23661(9)
H25 H 0.1742 0.3832 0.2240
C40 C 0.31093(7) 0.32022(8) 0.13196(7)
C41 C 0.32848(9) 0.27957(9) 0.13891(9)
H26 H 0.3298 0.2681 0.1690
C42 C 0.34417(12) 0.25535(11) 0.10293(12)
H27 H 0.3565 0.2276 0.1082
C43 C 0.34168(14) 0.27201(14) 0.05894(12)
H28 H 0.3526 0.2557 0.0340
C44 C 0.32372(13) 0.31154(13) 0.05152(10)
H29 H 0.3218 0.3226 0.0213
C45 C 0.30807(10) 0.33616(10) 0.08792(9)
H30 H 0.2955 0.3638 0.0825
N1E N -0.05361(5) 0.17138(5) -0.00085(5)
N2E N -0.07906(5) 0.19721(5) 0.02593(6)
C1E C -0.01622(6) 0.19261(6) -0.00893(6)
C2E C -0.01698(6) 0.23337(6) 0.01250(6)
C3E C -0.05744(6) 0.23443(6) 0.03458(6)
C4E C -0.07781(6) 0.26507(6) 0.06693(7)
C5E C -0.09127(7) 0.30635(7) 0.05450(8)
H1E H -0.0854 0.3170 0.0247
C6E C -0.11327(8) 0.33195(7) 0.08555(9)
H2E H -0.1221 0.3604 0.0771
C7E C -0.12253(7) 0.31660(8) 0.12862(8)
H3E H -0.1384 0.3341 0.1494
C8E C -0.10888(8) 0.27597(7) 0.14151(7)
H4E H -0.1149 0.2656 0.1714
C9E C -0.08649(7) 0.25023(7) 0.11108(7)
H5E H -0.0769 0.2223 0.1202
C10E C 0.01959(7) 0.17183(7) -0.03414(7)
C11E C 0.04466(8) 0.19517(9) -0.06529(8)
H6E H 0.0377 0.2245 -0.0720
C12E C 0.07974(9) 0.17546(11) -0.08646(10)
H7E H 0.0968 0.1915 -0.1076
C13E C 0.09014(10) 0.13297(11) -0.07718(11)
H8E H 0.1142 0.1198 -0.0919
C14E C 0.06596(9) 0.10967(10) -0.04687(11)
H9E H 0.0732 0.0803 -0.0406
C15E C 0.03072(8) 0.12895(8) -0.02515(8)
H10E H 0.0141 0.1126 -0.0039
Cu1E Cu -0.076552(9) 0.119566(9) -0.021465(10)
Cu2E Cu -0.128492(9) 0.176262(9) 0.055104(9)
Cu3E Cu -0.149946(9) 0.074328(10) 0.038828(10)
N3E N -0.17357(6) 0.15013(5) 0.08726(6)
N4E N -0.17531(5) 0.10564(5) 0.08618(6)
N5E N -0.29573(6) 0.12112(6) 0.23756(6)
N6E N -0.31792(6) 0.14853(6) 0.20923(6)
C16E C -0.20145(6) 0.16384(6) 0.11974(7)
C17E C -0.22189(7) 0.12807(7) 0.13954(7)
C18E C -0.20412(7) 0.09205(7) 0.11763(7)
C19E C -0.20839(7) 0.20995(7) 0.13087(8)
C20E C -0.21538(8) 0.24074(8) 0.09708(9)
H11E H -0.2131 0.2328 0.0659
C21E C -0.22570(9) 0.28315(8) 0.10880(11)
H12E H -0.2307 0.3040 0.0855
C22E C -0.22876(10) 0.29508(8) 0.15394(12)
H13E H -0.2362 0.3240 0.1617
C23E C -0.22103(9) 0.26514(9) 0.18775(10)
H14E H -0.2226 0.2735 0.2189
C24E C -0.21094(8) 0.22299(8) 0.17625(8)
H15E H -0.2056 0.2024 0.1998
C25E C -0.21205(9) 0.04561(7) 0.12473(8)
C26E C -0.25463(12) 0.03025(9) 0.12922(11)
H16E H -0.2784 0.0498 0.1272
C27E C -0.26193(19) -0.01388(12) 0.13674(15)
H17E H -0.2907 -0.0245 0.1400
C28E C -0.2271(2) -0.04206(11) 0.13945(17)
H18E H -0.2320 -0.0721 0.1445
C29E C -0.1863(2) -0.02730(12) 0.13497(16)
H19E H -0.1627 -0.0470 0.1369
C30E C -0.17815(13) 0.01680(9) 0.12754(12)
H20E H -0.1492 0.0268 0.1244
C31E C -0.25855(7) 0.10961(7) 0.21644(7)
C32E C -0.25659(6) 0.12962(6) 0.17383(7)
C33E C -0.29475(7) 0.15347(7) 0.17070(7)
C34E C -0.22709(8) 0.07976(7) 0.23712(8)
C35E C -0.23988(10) 0.04035(9) 0.25540(11)
H21E H -0.2697 0.0325 0.2556
C36E C -0.20902(14) 0.01249(12) 0.27334(14)
H22E H -0.2180 -0.0141 0.2867
C37E C -0.16663(14) 0.02253(15) 0.27210(15)
H23E H -0.1459 0.0026 0.2837
C38E C -0.15311(11) 0.06169(13) 0.25406(14)
H24E H -0.1232 0.0690 0.2537
C39E C -0.18339(9) 0.08993(10) 0.23661(9)
H25E H -0.1742 0.1168 0.2240
C40E C -0.31093(7) 0.17978(8) 0.13196(7)
C41E C -0.32848(9) 0.22043(9) 0.13891(9)
H26E H -0.3298 0.2319 0.1690
C42E C -0.34417(12) 0.24465(11) 0.10293(12)
H27E H -0.3565 0.2724 0.1082
C43E C -0.34168(14) 0.22799(14) 0.05894(12)
H28E H -0.3526 0.2443 0.0340
C44E C -0.32372(13) 0.18846(13) 0.05152(10)
H29E H -0.3218 0.1774 0.0213
C45E C -0.30807(10) 0.16384(10) 0.08792(9)
H30E H -0.2955 0.1362 0.0825
Cu1B Cu 0.369566(9) 0.326552(9) 0.228535(10)
Cu1G Cu -0.369566(9) 0.173448(9) 0.228535(10)
Cu3B Cu 0.324328(10) 0.399946(9) 0.288828(10)
Cu3G Cu -0.324328(10) 0.100054(9) 0.288828(10)
N5C N 0.12888(6) 0.45427(6) -0.01244(6)
N5F N -0.12888(6) 0.04573(6) -0.01244(6)
N6C N 0.10147(6) 0.43208(6) -0.04077(6)
N6F N -0.10147(6) 0.06792(6) -0.04077(6)
loop_
_geom_bond_atom_site_label_1
_geom_bond_atom_site_label_2
_geom_bond_site_symmetry_1
_geom_bond_site_symmetry_2
Cu1 N1 1_555 1_555
Cu2 N2 1_555 1_555
Cu3 N4 1_555 1_555
N1 N2 1_555 1_555
N2 C3 1_555 1_555
N3 Cu2 1_555 1_555
N4 N3 1_555 1_555
N5 N6 1_555 1_555
N6 C33 1_555 1_555
C1 N1 1_555 1_555
C2 C1 1_555 1_555
C3 C2 1_555 1_555
C4 C3 1_555 1_555
C5 C4 1_555 1_555
H1 C5 1_555 1_555
C6 C5 1_555 1_555
H2 C6 1_555 1_555
C7 C6 1_555 1_555
H3 C7 1_555 1_555
C8 C7 1_555 1_555
H4 C8 1_555 1_555
C9 C4 1_555 1_555
H5 C9 1_555 1_555
C10 C1 1_555 1_555
C11 C10 1_555 1_555
H6 C11 1_555 1_555
C12 C11 1_555 1_555
H7 C12 1_555 1_555
C13 C12 1_555 1_555
H8 C13 1_555 1_555
C14 C13 1_555 1_555
H9 C14 1_555 1_555
C15 C10 1_555 1_555
H10 C15 1_555 1_555
C16 N3 1_555 1_555
C17 C16 1_555 1_555
C18 N4 1_555 1_555
C19 C16 1_555 1_555
C20 C19 1_555 1_555
H11 C20 1_555 1_555
C21 C20 1_555 1_555
H12 C21 1_555 1_555
C22 C21 1_555 1_555
H13 C22 1_555 1_555
C23 C22 1_555 1_555
H14 C23 1_555 1_555
C24 C19 1_555 1_555
H15 C24 1_555 1_555
C25 C18 1_555 1_555
C26 C25 1_555 1_555
H16 C26 1_555 1_555
C27 C26 1_555 1_555
H17 C27 1_555 1_555
C28 C27 1_555 1_555
H18 C28 1_555 1_555
C29 C28 1_555 1_555
H19 C29 1_555 1_555
C30 C25 1_555 1_555
H20 C30 1_555 1_555
C31 N5 1_555 1_555
C32 C17 1_555 1_555
C33 C32 1_555 1_555
C34 C31 1_555 1_555
C35 C34 1_555 1_555
H21 C35 1_555 1_555
C36 C35 1_555 1_555
H22 C36 1_555 1_555
C37 C36 1_555 1_555
H23 C37 1_555 1_555
C38 C37 1_555 1_555
H24 C38 1_555 1_555
C39 C34 1_555 1_555
H25 C39 1_555 1_555
C40 C33 1_555 1_555
C41 C40 1_555 1_555
H26 C41 1_555 1_555
C42 C41 1_555 1_555
H27 C42 1_555 1_555
C43 C42 1_555 1_555
H28 C43 1_555 1_555
C44 C43 1_555 1_555
H29 C44 1_555 1_555
C45 C40 1_555 1_555
H30 C45 1_555 1_555
N1E N2E 1_555 1_555
N2E C3E 1_555 1_555
C1E N1E 1_555 1_555
C2E C2 1_555 1_555
C3E C2E 1_555 1_555
C4E C3E 1_555 1_555
C5E C4E 1_555 1_555
H1E C5E 1_555 1_555
C6E C5E 1_555 1_555
H2E C6E 1_555 1_555
C7E C6E 1_555 1_555
H3E C7E 1_555 1_555
C8E C7E 1_555 1_555
H4E C8E 1_555 1_555
C9E C4E 1_555 1_555
H5E C9E 1_555 1_555
C10E C1E 1_555 1_555
C11E C10E 1_555 1_555
H6E C11E 1_555 1_555
C12E C11E 1_555 1_555
H7E C12E 1_555 1_555
C13E C12E 1_555 1_555
H8E C13E 1_555 1_555
C14E C13E 1_555 1_555
H9E C14E 1_555 1_555
C15E C10E 1_555 1_555
H10E C15E 1_555 1_555
Cu1E N1E 1_555 1_555
Cu2E N2E 1_555 1_555
Cu3E N4E 1_555 1_555
N3E Cu2E 1_555 1_555
N4E N3E 1_555 1_555
N5E N6E 1_555 1_555
N6E C33E 1_555 1_555
C16E N3E 1_555 1_555
C17E C16E 1_555 1_555
C18E N4E 1_555 1_555
C19E C16E 1_555 1_555
C20E C19E 1_555 1_555
H11E C20E 1_555 1_555
C21E C20E 1_555 1_555
H12E C21E 1_555 1_555
C22E C21E 1_555 1_555
H13E C22E 1_555 1_555
C23E C22E 1_555 1_555
H14E C23E 1_555 1_555
C24E C19E 1_555 1_555
H15E C24E 1_555 1_555
C25E C18E 1_555 1_555
C26E C25E 1_555 1_555
H16E C26E 1_555 1_555
C27E C26E 1_555 1_555
H17E C27E 1_555 1_555
C28E C27E 1_555 1_555
H18E C28E 1_555 1_555
C29E C28E 1_555 1_555
H19E C29E 1_555 1_555
C30E C25E 1_555 1_555
H20E C30E 1_555 1_555
C31E N5E 1_555 1_555
C32E C17E 1_555 1_555
C33E C32E 1_555 1_555
C34E C31E 1_555 1_555
C35E C34E 1_555 1_555
H21E C35E 1_555 1_555
C36E C35E 1_555 1_555
H22E C36E 1_555 1_555
C37E C36E 1_555 1_555
H23E C37E 1_555 1_555
C38E C37E 1_555 1_555
H24E C38E 1_555 1_555
C39E C34E 1_555 1_555
H25E C39E 1_555 1_555
C40E C33E 1_555 1_555
C41E C40E 1_555 1_555
H26E C41E 1_555 1_555
C42E C41E 1_555 1_555
H27E C42E 1_555 1_555
C43E C42E 1_555 1_555
H28E C43E 1_555 1_555
C44E C43E 1_555 1_555
H29E C44E 1_555 1_555
C45E C40E 1_555 1_555
H30E C45E 1_555 1_555
Cu1B N6 1_555 1_555
Cu1G N6E 1_555 1_555
Cu3B N5 1_555 1_555
Cu3G N5E 1_555 1_555
N5C Cu3 1_555 1_555
N5F Cu3E 1_555 1_555
N6C Cu1 1_555 1_555
N6F Cu1E 1_555 1_555
C8 C9 1_555 1_555
C14 C15 1_555 1_555
C17 C18 1_555 1_555
C23 C24 1_555 1_555
C29 C30 1_555 1_555
C31 C32 1_555 1_555
C38 C39 1_555 1_555
C44 C45 1_555 1_555
C1E C2E 1_555 1_555
C8E C9E 1_555 1_555
C14E C15E 1_555 1_555
C17E C18E 1_555 1_555
C23E C24E 1_555 1_555
C29E C30E 1_555 1_555
C31E C32E 1_555 1_555
C38E C39E 1_555 1_555
C44E C45E 1_555 1_555
N5C N6C 1_555 1_555
N5F N6F 1_555 1_555

#END
