
#######################################################################
#
#                 Cambridge Crystallographic Data Centre
#                                CCDC 
#
#######################################################################
#
# If this CIF has been generated from an entry in the Cambridge 
# Structural Database, then it will include bibliographic, chemical, 
# crystal, experimental, refinement or atomic coordinate data resulting 
# from the CCDC's data processing and validation procedures.
#
#######################################################################

data_FEVLUO
_symmetry_cell_setting           monoclinic
_symmetry_space_group_name_H-M   'P 21/c'
_symmetry_Int_Tables_number      14
_space_group_name_Hall           '-P 2ybc'
loop_
_symmetry_equiv_pos_site_id
_symmetry_equiv_pos_as_xyz
1 x,y,z
2 -x,1/2+y,1/2-z
3 -x,-y,-z
4 x,1/2-y,1/2+z
_cell_length_a                   10.062(2)
_cell_length_b                   30.127(6)
_cell_length_c                   17.064(3)
_cell_angle_alpha                90
_cell_angle_beta                 102.35(3)
_cell_angle_gamma                90
_cell_volume                     5053.04
loop_
_atom_site_label
_atom_site_type_symbol
_atom_site_fract_x
_atom_site_fract_y
_atom_site_fract_z
Co1 Co 0.12216(5) 0.055903(16) 0.15813(3)
Co2 Co 0.87000(5) 0.056200(16) 0.31543(3)
O1 O 0.2053(3) 0.05694(9) 0.03920(16)
O2 O 0.3329(3) 0.05711(9) 0.16016(16)
O3 O 0.3127(3) 0.06236(10) -0.08338(17)
O4 O 0.9300(2) 0.05309(8) 0.09016(14)
O5 O 0.8380(3) 0.04657(8) 0.19604(15)
O6 O 0.6577(3) 0.05947(9) 0.31235(16)
O7 O 0.7873(3) 0.05904(9) 0.43176(16)
O8 O 0.6786(3) 0.05759(12) 0.55720(18)
O9 O 0.1539(3) 0.06235(8) 0.27752(15)
O10 O 0.0624(2) 0.06005(8) 0.38370(14)
N1 N 0.1117(3) 0.12700(10) 0.14861(18)
N2 N 0.0382(4) 0.28531(11) 0.05709(19)
N3 N 0.0415(4) 0.33093(11) 0.0594(2)
N4 N 0.1216(3) 0.48546(10) 0.16991(17)
N5 N 0.1263(3) -0.01493(10) 0.17154(18)
N6 N 0.1808(3) -0.16862(11) 0.2910(2)
N7 N 0.1803(3) -0.21396(11) 0.2944(2)
N8 N 0.1275(3) -0.37283(10) 0.19891(18)
C1 C 0.3218(4) 0.05680(12) 0.0858(3)
C2 C 0.4460(4) 0.05722(12) 0.0502(2)
C3 C 0.4335(4) 0.05934(13) -0.0326(2)
C4 C 0.5494(4) 0.05748(13) -0.0644(2)
H1 H 0.5413 0.0580 -0.1215
C5 C 0.6764(4) 0.05494(12) -0.0148(2)
H2 H 0.7565 0.0542 -0.0369
C6 C 0.6902(4) 0.05310(11) 0.0689(2)
C7 C 0.5740(4) 0.05384(11) 0.0998(2)
H3 H 0.5821 0.0517 0.1568
C8 C 0.8288(4) 0.05058(11) 0.1225(2)
C9 C 0.1630(4) 0.06113(11) 0.3515(2)
C10 C 0.3019(4) 0.06137(11) 0.4051(2)
C11 C 0.3164(4) 0.06048(13) 0.4885(2)
H4 H 0.2367 0.0608 0.5110
C12 C 0.4438(4) 0.05949(15) 0.5376(2)
H5 H 0.4535 0.0585 0.5948
C13 C 0.5588(4) 0.05946(14) 0.5048(2)
C14 C 0.5472(4) 0.06009(12) 0.4225(2)
C15 C 0.4177(4) 0.06082(11) 0.3734(2)
H6 H 0.4081 0.0610 0.3162
C16 C 0.6706(4) 0.05953(13) 0.3868(2)
C17 C 0.1734(4) 0.15314(13) 0.2084(2)
H7 H 0.2214 0.1392 0.2569
C18 C 0.1704(4) 0.19904(13) 0.2046(2)
H8 H 0.2169 0.2167 0.2489
C19 C 0.0994(4) 0.21915(12) 0.1354(2)
C20 C 0.0338(4) 0.19207(13) 0.0735(2)
H9 H -0.0162 0.2048 0.0244
C21 C 0.0418(4) 0.14661(13) 0.0828(2)
H10 H -0.0053 0.1282 0.0399
C22 C 0.0920(4) 0.26770(13) 0.1255(2)
C23 C 0.0994(4) 0.34587(12) 0.1297(2)
C24 C 0.1097(4) 0.39410(13) 0.1461(2)
C25 C 0.1968(4) 0.41228(14) 0.2121(2)
H11 H 0.2547 0.3935 0.2502
C26 C 0.1992(4) 0.45762(13) 0.2217(2)
H12 H 0.2588 0.4702 0.2678
C27 C 0.0390(4) 0.46754(13) 0.1066(2)
H13 H -0.0172 0.4870 0.0690
C28 C 0.0292(4) 0.42266(13) 0.0927(2)
H14 H -0.0321 0.4112 0.0462
C29 C 0.0411(4) -0.04175(13) 0.1228(2)
H15 H -0.0202 -0.0290 0.0774
C30 C 0.0369(4) -0.08717(13) 0.1360(2)
H16 H -0.0261 -0.1057 0.1002
C31 C 0.1251(4) -0.10564(12) 0.2016(2)
C32 C 0.2140(4) -0.07806(13) 0.2509(2)
H17 H 0.2762 -0.0899 0.2968
C33 C 0.2121(4) -0.03322(14) 0.2343(2)
H18 H 0.2755 -0.0142 0.2687
C34 C 0.1281(4) -0.15347(13) 0.2197(2)
C35 C 0.1279(4) -0.23190(13) 0.2261(2)
C36 C 0.1232(4) -0.28082(13) 0.2147(2)
C37 C 0.0674(4) -0.30101(13) 0.1425(2)
H19 H 0.0273 -0.2834 0.0966
C38 C 0.0705(4) -0.34691(13) 0.1371(2)
H20 H 0.0309 -0.3607 0.0868
C39 C 0.1825(4) -0.35235(13) 0.2669(2)
H21 H 0.2241 -0.3707 0.3114
C40 C 0.1825(4) -0.30759(13) 0.2784(2)
H22 H 0.2226 -0.2947 0.3294
S1 S 0.15476(11) 0.30526(3) 0.19962(6)
S2 S 0.06970(12) -0.19430(4) 0.15055(6)
H31 H 0.7414 0.0557 0.5286
Co1_2 Co 1.12216(5) 0.055903(16) 0.15813(3)
Co2_2 Co -0.13000(5) 0.056200(16) 0.31543(3)
Co2A Co 0.13000(5) 0.556200(16) 0.18457(3)
Co2A_2 Co 0.13000(5) -0.443800(16) 0.18457(3)
O4_2 O -0.0700(2) 0.05309(8) 0.09016(14)
O10_2 O 1.0624(2) 0.06005(8) 0.38370(14)
N4A N 0.8784(3) -0.01454(10) 0.33009(17)
N8A N 0.8725(3) 0.12717(10) 0.30109(18)
N9 N 0.2748(5) 0.2603(2) -0.1079(3)
N10 N 0.5101(4) 0.33400(14) 0.2435(3)
N11 N 0.4635(4) 0.33182(15) 0.1626(3)
N12 N 0.6935(5) 0.2838(2) 0.5290(3)
C41 C 0.3083(7) 0.3009(3) -0.0815(4)
H23 H 0.2969 0.3239 -0.1212
C42 C 0.3647(6) 0.31238(19) -0.0038(4)
H24 H 0.3819 0.3428 0.0120
C43 C 0.3936(5) 0.2791(2) 0.0534(3)
C44 C 0.3614(5) 0.23640(19) 0.0278(3)
H25 H 0.3786 0.2123 0.0655
C45 C 0.3030(5) 0.2295(2) -0.0527(4)
H26 H 0.2830 0.1995 -0.0701
C46 C 0.4510(5) 0.29027(17) 0.1375(3)
C47 C 0.5323(5) 0.29482(16) 0.2785(3)
C48 C 0.5848(5) 0.29028(18) 0.3633(3)
C49 C 0.5999(6) 0.32697(19) 0.4117(3)
H27 H 0.5712 0.3554 0.3889
C50 C 0.6551(7) 0.3220(2) 0.4937(4)
H28 H 0.6670 0.3481 0.5267
C51 C 0.6789(5) 0.2491(2) 0.4822(4)
H29 H 0.7060 0.2210 0.5071
C52 C 0.6252(5) 0.25045(17) 0.3997(3)
H30 H 0.6175 0.2240 0.3676
S3 S 0.49631(13) 0.25181(4) 0.21195(8)
O11 O -0.4957(5) -0.36206(18) 0.2650(4)
loop_
_geom_bond_atom_site_label_1
_geom_bond_atom_site_label_2
_geom_bond_site_symmetry_1
_geom_bond_site_symmetry_2
Co1 O1 1_555 1_555
Co2 O5 1_555 1_555
O1 C1 1_555 1_555
O2 Co1 1_555 1_555
O3 C3 1_555 1_555
O4 C8 1_555 1_555
O5 C8 1_555 1_555
O6 Co2 1_555 1_555
O7 Co2 1_555 1_555
O8 C13 1_555 1_555
O9 Co1 1_555 1_555
O10 C9 1_555 1_555
N1 Co1 1_555 1_555
N2 N3 1_555 1_555
N3 C23 1_555 1_555
N4 C26 1_555 1_555
N5 Co1 1_555 1_555
N6 N7 1_555 1_555
N7 C35 1_555 1_555
N8 C38 1_555 1_555
N9 C41 1_555 1_555
N10 N11 1_555 1_555
N11 C46 1_555 1_555
N12 C50 1_555 1_555
C1 O2 1_555 1_555
C2 C1 1_555 1_555
C3 C2 1_555 1_555
C4 C3 1_555 1_555
H1 C4 1_555 1_555
C5 C4 1_555 1_555
H2 C5 1_555 1_555
C6 C5 1_555 1_555
C7 C2 1_555 1_555
H3 C7 1_555 1_555
C8 C6 1_555 1_555
C9 O9 1_555 1_555
C10 C9 1_555 1_555
C11 C10 1_555 1_555
H4 C11 1_555 1_555
C12 C11 1_555 1_555
H5 C12 1_555 1_555
C13 C12 1_555 1_555
C14 C13 1_555 1_555
C15 C10 1_555 1_555
H6 C15 1_555 1_555
C16 O6 1_555 1_555
C17 N1 1_555 1_555
H7 C17 1_555 1_555
C18 C17 1_555 1_555
H8 C18 1_555 1_555
C19 C18 1_555 1_555
C20 C19 1_555 1_555
H9 C20 1_555 1_555
C21 N1 1_555 1_555
H10 C21 1_555 1_555
C22 N2 1_555 1_555
C23 C24 1_555 1_555
C24 C25 1_555 1_555
C25 H11 1_555 1_555
C26 C25 1_555 1_555
H12 C26 1_555 1_555
C27 N4 1_555 1_555
H13 C27 1_555 1_555
C28 C24 1_555 1_555
H14 C28 1_555 1_555
C29 N5 1_555 1_555
H15 C29 1_555 1_555
C30 C29 1_555 1_555
H16 C30 1_555 1_555
C31 C30 1_555 1_555
C32 C31 1_555 1_555
H17 C32 1_555 1_555
C33 N5 1_555 1_555
H18 C33 1_555 1_555
C34 N6 1_555 1_555
C35 C36 1_555 1_555
C36 C37 1_555 1_555
C37 H19 1_555 1_555
C38 C37 1_555 1_555
H20 C38 1_555 1_555
C39 N8 1_555 1_555
H21 C39 1_555 1_555
C40 C36 1_555 1_555
H22 C40 1_555 1_555
C41 H23 1_555 1_555
C42 C41 1_555 1_555
H24 C42 1_555 1_555
C43 C42 1_555 1_555
C44 C43 1_555 1_555
H25 C44 1_555 1_555
C45 N9 1_555 1_555
H26 C45 1_555 1_555
C46 C43 1_555 1_555
C47 N10 1_555 1_555
C48 C47 1_555 1_555
C49 C48 1_555 1_555
H27 C49 1_555 1_555
C50 C49 1_555 1_555
H28 C50 1_555 1_555
C51 N12 1_555 1_555
H29 C51 1_555 1_555
C52 C48 1_555 1_555
H30 C52 1_555 1_555
S1 C22 1_555 1_555
S2 C34 1_555 1_555
S3 C46 1_555 1_555
H31 O8 1_555 1_555
Co1_2 O4 1_555 1_555
Co2_2 O10 1_555 1_555
Co2A N4 1_555 1_555
Co2A_2 N8 1_555 1_555
O4_2 Co1 1_555 1_555
O10_2 Co2 1_555 1_555
N4A Co2 1_555 1_555
N8A Co2 1_555 1_555
O7 C16 1_555 1_555
C6 C7 1_555 1_555
C14 C15 1_555 1_555
C14 C16 1_555 1_555
C19 C22 1_555 1_555
C20 C21 1_555 1_555
C23 S1 1_555 1_555
C27 C28 1_555 1_555
C31 C34 1_555 1_555
C32 C33 1_555 1_555
C35 S2 1_555 1_555
C39 C40 1_555 1_555
C44 C45 1_555 1_555
C47 S3 1_555 1_555
C51 C52 1_555 1_555

#END
