
#######################################################################
#
#                 Cambridge Crystallographic Data Centre
#                                CCDC 
#
#######################################################################
#
# If this CIF has been generated from an entry in the Cambridge 
# Structural Database, then it will include bibliographic, chemical, 
# crystal, experimental, refinement or atomic coordinate data resulting 
# from the CCDC's data processing and validation procedures.
#
#######################################################################

data_FEVNIE
_symmetry_cell_setting           triclinic
_symmetry_space_group_name_H-M   'P -1'
_symmetry_Int_Tables_number      2
_space_group_name_Hall           '-P 1'
loop_
_symmetry_equiv_pos_site_id
_symmetry_equiv_pos_as_xyz
1 x,y,z
2 -x,-y,-z
_cell_length_a                   20.495(3)
_cell_length_b                   22.701(3)
_cell_length_c                   27.435(3)
_cell_angle_alpha                84.146(3)
_cell_angle_beta                 78.935(3)
_cell_angle_gamma                67.636(2)
_cell_volume                     11578.9
loop_
_atom_site_label
_atom_site_type_symbol
_atom_site_fract_x
_atom_site_fract_y
_atom_site_fract_z
O5 O 0.8984(4) -0.0144(3) 0.4180(3)
O6 O 1.0260(4) -0.1305(4) 0.4239(4)
O7 O 1.1214(6) -0.1621(5) 0.3382(5)
O8 O 1.1327(7) -0.1155(6) 0.2386(5)
O9 O 1.0363(8) -0.0568(5) 0.1846(5)
O10 O 0.8860(9) -0.0468(5) 0.1868(5)
O11 O 0.7997(6) -0.0617(4) 0.2778(4)
O12 O 0.7990(4) 0.0113(3) 0.3613(3)
C13 C 0.8067(5) 0.0637(4) 0.3792(5)
C14 C 0.7655(6) 0.1260(5) 0.3681(5)
H17 H 0.7300 0.1346 0.3478
C15 C 0.7756(6) 0.1758(5) 0.3861(5)
H18 H 0.7468 0.2187 0.3789
C16 C 0.8265(6) 0.1631(5) 0.4141(5)
H19 H 0.8345 0.1974 0.4257
C17 C 0.8685(5) 0.1001(5) 0.4266(5)
H20 H 0.9034 0.0918 0.4473
C18 C 0.8576(5) 0.0496(4) 0.4077(5)
C19 C 0.9429(6) -0.0272(5) 0.4539(5)
H21 H 0.9147 -0.0055 0.4850
H22 H 0.9814 -0.0104 0.4419
C20 C 0.9749(6) -0.0974(5) 0.4642(5)
H23 H 0.9982 -0.1051 0.4939
H24 H 0.9363 -0.1146 0.4718
C21 C 1.0931(7) -0.1274(7) 0.4216(7)
H25 H 1.1078 -0.1376 0.4548
H26 H 1.0913 -0.0838 0.4113
C22 C 1.1471(8) -0.1752(7) 0.3840(6)
H27 H 1.1944 -0.1713 0.3797
H28 H 1.1527 -0.2192 0.3961
C23 C 1.1712(9) -0.1987(8) 0.2960(7)
H29 H 1.2137 -0.2317 0.3075
H30 H 1.1475 -0.2198 0.2794
C24 C 1.1914(12) -0.1536(11) 0.2628(8)
H31 H 1.2048 -0.1261 0.2815
H32 H 1.2332 -0.1761 0.2378
C25 C 1.1300(14) -0.0570(10) 0.2182(9)
C26 C 1.1831(12) -0.0309(10) 0.2288(9)
H33 H 1.2159 -0.0539 0.2505
C27 C 1.184(3) 0.026(2) 0.207(2)
H34 H 1.2207 0.0420 0.2082
C28 C 1.117(2) 0.0631(12) 0.1799(14)
H35 H 1.1082 0.1065 0.1701
C29 C 1.0739(13) 0.0368(10) 0.1700(9)
H36 H 1.0389 0.0588 0.1496
C30 C 1.0806(12) -0.0251(9) 0.1906(8)
C31 C 0.9891(13) -0.0302(10) 0.1456(9)
H37 H 0.9582 0.0148 0.1525
H38 H 1.0190 -0.0315 0.1125
C32 C 0.9462(16) -0.0663(11) 0.1459(9)
H39 H 0.9750 -0.1122 0.1500
H40 H 0.9284 -0.0596 0.1139
C33 C 0.8315(13) -0.0701(8) 0.1928(8)
H41 H 0.8524 -0.1169 0.1985
H42 H 0.8122 -0.0621 0.1614
C34 C 0.7721(11) -0.0438(8) 0.2331(8)
H43 H 0.7512 0.0032 0.2293
H44 H 0.7344 -0.0608 0.2329
C35 C 0.7424(8) -0.0382(7) 0.3198(7)
H45 H 0.7504 -0.0699 0.3478
H46 H 0.6960 -0.0322 0.3102
C36 C 0.7398(7) 0.0251(5) 0.3362(5)
H47 H 0.7431 0.0538 0.3070
H48 H 0.6943 0.0462 0.3587
O13 O 0.6348(4) -0.6490(4) 0.4687(3)
O14 O 0.5900(6) -0.6299(5) 0.5766(4)
O15 O 0.5756(4) -0.5069(4) 0.6028(3)
O16 O 0.5663(4) -0.5976(4) 0.3944(3)
C37 C 0.6402(6) -0.6217(5) 0.3842(5)
C38 C 0.6797(7) -0.6187(6) 0.3356(6)
H49 H 0.6555 -0.6009 0.3082
C39 C 0.7541(7) -0.6424(7) 0.3291(7)
H50 H 0.7812 -0.6427 0.2968
C40 C 0.7879(6) -0.6651(6) 0.3693(7)
H51 H 0.8386 -0.6797 0.3646
C41 C 0.7497(6) -0.6674(5) 0.4176(5)
H52 H 0.7742 -0.6827 0.4451
C42 C 0.6769(6) -0.6471(5) 0.4241(5)
C43 C 0.6701(8) -0.6882(6) 0.5068(7)
H53 H 0.7066 -0.6731 0.5139
H54 H 0.6945 -0.7327 0.4959
C44 C 0.6184(9) -0.6856(6) 0.5508(7)
H55 H 0.5784 -0.6937 0.5413
H56 H 0.6410 -0.7209 0.5737
C45 C 0.6309(7) -0.6202(6) 0.6088(7)
H57 H 0.6751 -0.6164 0.5891
H58 H 0.6449 -0.6572 0.6322
C46 C 0.5881(7) -0.5599(7) 0.6378(5)
H59 H 0.5420 -0.5617 0.6556
H60 H 0.6151 -0.5554 0.6626
C47 C 0.5485(7) -0.4478(6) 0.6263(6)
H61 H 0.5593 -0.4158 0.6023
H62 H 0.5740 -0.4521 0.6544
C48 C 0.5294(7) -0.5765(6) 0.3548(5)
H63 H 0.5420 -0.6120 0.3322
H64 H 0.5429 -0.5422 0.3358
O13A O 0.3652(4) -0.3510(4) 0.5313(3)
O14A O 0.4100(6) -0.3701(5) 0.4234(4)
O15A O 0.4244(4) -0.4931(4) 0.3972(3)
O16A O 0.4337(4) -0.4024(4) 0.6056(3)
C37A C 0.3598(6) -0.3783(5) 0.6158(5)
C38A C 0.3203(7) -0.3813(6) 0.6644(6)
H49A H 0.3445 -0.3991 0.6918
C39A C 0.2459(7) -0.3576(7) 0.6709(7)
H50A H 0.2188 -0.3573 0.7032
C40A C 0.2121(6) -0.3349(6) 0.6307(7)
H51A H 0.1614 -0.3203 0.6354
C41A C 0.2503(6) -0.3326(5) 0.5824(5)
H52A H 0.2258 -0.3173 0.5549
C42A C 0.3231(6) -0.3529(5) 0.5759(5)
C43A C 0.3299(8) -0.3118(6) 0.4932(7)
H53A H 0.2934 -0.3269 0.4861
H54A H 0.3055 -0.2673 0.5041
C44A C 0.3816(9) -0.3144(6) 0.4492(7)
H55A H 0.4216 -0.3063 0.4587
H56A H 0.3590 -0.2791 0.4263
C45A C 0.3691(7) -0.3798(6) 0.3912(7)
H57A H 0.3249 -0.3836 0.4109
H58A H 0.3551 -0.3428 0.3678
C46A C 0.4119(7) -0.4401(7) 0.3622(5)
H59A H 0.4580 -0.4383 0.3444
H60A H 0.3849 -0.4446 0.3374
C47A C 0.4515(7) -0.5522(6) 0.3737(6)
H61A H 0.4407 -0.5842 0.3977
H62A H 0.4260 -0.5479 0.3456
C48A C 0.4706(7) -0.4235(6) 0.6452(5)
H63A H 0.4580 -0.3880 0.6678
H64A H 0.4571 -0.4578 0.6642
O17 O 0.6724(7) -0.6114(10) -0.0465(7)
O18 O 0.5504(10) -0.6459(10) -0.0560(7)
O19 O 0.4352(10) -0.5545(15) -0.0899(7)
O20 O 0.6786(7) -0.5235(11) 0.0078(9)
C49 C 0.7247(10) -0.5391(16) -0.0406(10)
C50 C 0.7728(12) -0.5113(16) -0.0583(12)
H65 H 0.7774 -0.4801 -0.0401
C51 C 0.8140(13) -0.5300(15) -0.1028(11)
H66 H 0.8470 -0.5099 -0.1153
C52 C 0.8129(15) -0.5734(15) -0.1307(13)
H67 H 0.8427 -0.5842 -0.1621
C53 C 0.7677(10) -0.5999(14) -0.1116(11)
H68 H 0.7656 -0.6320 -0.1303
C54 C 0.7218(16) -0.5862(16) -0.0663(12)
C55 C 0.6725(16) -0.6645(14) -0.0748(11)
H69 H 0.6623 -0.6481 -0.1085
H70 H 0.7209 -0.6982 -0.0787
C56 C 0.6224(13) -0.6920(13) -0.0523(9)
H71 H 0.6271 -0.7031 -0.0170
H72 H 0.6313 -0.7314 -0.0693
C57 C 0.5368(18) -0.6574(15) -0.1036(12)
H73 H 0.5522 -0.7035 -0.1092
H74 H 0.5600 -0.6373 -0.1317
C58 C 0.4553(16) -0.6243(19) -0.0950(14)
H75 H 0.4361 -0.6317 -0.1233
H76 H 0.4344 -0.6423 -0.0644
C59 C 0.3593(16) -0.513(2) -0.0858(13)
H77 H 0.3572 -0.4691 -0.0928
H78 H 0.3410 -0.5243 -0.1131
C60 C 0.6913(16) -0.487(2) 0.0405(11)
H79 H 0.6829 -0.4434 0.0267
H80 H 0.7411 -0.5069 0.0470
O17A O 0.3276(7) -0.3886(10) 0.0465(7)
O18A O 0.4496(10) -0.3541(10) 0.0560(7)
O19A O 0.5648(10) -0.4455(15) 0.0899(7)
O20A O 0.3214(7) -0.4765(11) -0.0078(9)
C49A C 0.2753(10) -0.4609(16) 0.0406(10)
C50A C 0.2272(12) -0.4887(16) 0.0583(12)
H65A H 0.2226 -0.5199 0.0401
C51A C 0.1860(13) -0.4700(15) 0.1028(11)
H66A H 0.1530 -0.4901 0.1153
C52A C 0.1871(15) -0.4266(15) 0.1307(13)
H67A H 0.1573 -0.4158 0.1621
C53A C 0.2323(10) -0.4001(14) 0.1116(11)
H68A H 0.2344 -0.3680 0.1303
C54A C 0.2782(16) -0.4138(16) 0.0663(12)
C55A C 0.3275(16) -0.3355(14) 0.0748(11)
H69A H 0.3377 -0.3519 0.1085
H70A H 0.2791 -0.3018 0.0787
C56A C 0.3776(13) -0.3080(13) 0.0523(9)
H71A H 0.3729 -0.2969 0.0170
H72A H 0.3687 -0.2686 0.0693
C57A C 0.4632(18) -0.3426(15) 0.1036(12)
H73A H 0.4478 -0.2965 0.1092
H74A H 0.4400 -0.3627 0.1317
C58A C 0.5447(16) -0.3757(19) 0.0950(14)
H75A H 0.5639 -0.3683 0.1233
H76A H 0.5656 -0.3577 0.0644
C59A C 0.6407(16) -0.487(2) 0.0858(13)
H77A H 0.6428 -0.5309 0.0928
H78A H 0.6590 -0.4757 0.1131
C60A C 0.3087(16) -0.513(2) -0.0405(11)
H79A H 0.3171 -0.5566 -0.0267
H80A H 0.2589 -0.4931 -0.0470
S1 S 0.86818(16) 0.93898(14) 0.59563(14)
O21 O 0.8502(5) 0.9181(4) 0.5549(3)
O22 O 0.8635(5) 0.9012(4) 0.6405(4)
O23 O 0.9302(4) 0.9561(4) 0.5852(4)
C61 C 0.7978(7) 1.0128(6) 0.6094(6)
F1 F 0.7335(4) 1.0062(5) 0.6198(5)
F2 F 0.8065(5) 1.0393(4) 0.6490(4)
F3 F 0.7939(5) 1.0551(4) 0.5702(4)
S2 S 0.39170(19) 0.32060(15) 0.49757(16)
O24 O 0.3766(9) 0.3199(7) 0.4470(4)
O25 O 0.4188(6) 0.2602(5) 0.5168(7)
O26 O 0.4233(5) 0.3654(4) 0.5013(5)
C62 C 0.3007(8) 0.3555(6) 0.5234(9)
F4 F 0.2991(8) 0.3623(7) 0.5744(6)
F5 F 0.2657(5) 0.4098(4) 0.5160(5)
F6 F 0.2661(4) 0.3161(4) 0.5247(4)
S3 S 0.1181(2) -0.34284(18) 0.47052(18)
O27 O 0.1071(11) -0.3115(7) 0.4286(6)
O28 O 0.0892(10) -0.3889(9) 0.4814(10)
O29 O 0.1830(6) -0.3668(7) 0.4849(5)
C63 C 0.0643(11) -0.2876(8) 0.5141(8)
F7 F 0.0004(6) -0.2574(8) 0.5093(9)
F8 F 0.0643(9) -0.3104(5) 0.5616(6)
F9 F 0.0838(8) -0.2395(5) 0.5180(5)
S4 S 0.6924(3) -0.6363(3) 0.7682(2)
O30 O 0.7414(13) -0.6925(10) 0.7891(8)
O31 O 0.6595(16) -0.6450(11) 0.7311(7)
O32 O 0.6502(8) -0.5938(6) 0.8080(5)
C64 C 0.752(2) -0.6046(14) 0.7347(11)
F10 F 0.7140(10) -0.5453(8) 0.7146(7)
F11 F 0.7951(10) -0.6295(8) 0.6969(7)
F12 F 0.7865(10) -0.5842(16) 0.7615(7)
S5 S 0.7264(5) -0.3030(5) 0.9852(3)
O33 O 0.6962(15) -0.2454(10) 1.0122(10)
O34 O 0.7657(13) -0.2921(13) 0.9388(6)
O35 O 0.6767(11) -0.3354(12) 0.9859(7)
C65 C 0.7877(13) -0.3566(12) 1.0207(9)
F13 F 0.8295(15) -0.3291(14) 1.0341(11)
F14 F 0.8224(17) -0.4107(13) 0.9929(12)
F15 F 0.7537(15) -0.3687(18) 1.0659(8)
S6 S 0.6298(5) -0.4281(6) 0.2515(3)
O36 O 0.6842(12) -0.4156(12) 0.2675(8)
O37 O 0.5775(10) -0.4320(15) 0.2923(5)
O38 O 0.6547(19) -0.4717(15) 0.2096(9)
C66 C 0.5891(14) -0.3604(13) 0.2141(10)
F16 F 0.5272(15) -0.3611(19) 0.2045(14)
F17 F 0.6411(19) -0.366(2) 0.1718(11)
F18 F 0.5743(19) -0.3062(12) 0.2378(13)
S7 S 0.5842(9) 1.0095(9) 0.7150(6)
O39 O 0.5782(9) 1.0216(7) 0.6644(6)
O40 O 0.5902(18) 0.9498(11) 0.7378(13)
O41 O 0.6336(15) 1.0372(18) 0.7289(12)
C67 C 0.5044(10) 1.0664(8) 0.7467(6)
F19 F 0.503(2) 1.1241(11) 0.7268(9)
F20 F 0.4553(17) 1.0393(16) 0.7439(10)
F21 F 0.517(2) 1.0657(14) 0.7943(8)
Cl1 Cl 0.8653(9) -0.3886(7) 0.3629(7)
N1 N 0.9141(8) -0.4572(6) 0.5608(6)
C68 C 0.9198(8) -0.4330(7) 0.5244(6)
C69 C 0.9304(11) -0.4003(10) 0.4799(7)
H81 H 0.8840 -0.3709 0.4721
H82 H 0.9545 -0.4307 0.4533
H83 H 0.9600 -0.3761 0.4829
N2 N 0.7351(7) -0.4180(6) 0.6531(5)
C70 C 0.7439(7) -0.4576(7) 0.6268(5)
C71 C 0.7524(9) -0.5034(9) 0.5926(6)
H84 H 0.7184 -0.4844 0.5695
H85 H 0.7436 -0.5399 0.6106
H86 H 0.8013 -0.5176 0.5740
N3 N 0.631(2) -0.2257(17) 0.6984(13)
C72 C 0.605(3) -0.258(2) 0.6861(12)
C73 C 0.579(2) -0.3035(16) 0.6784(17)
H87 H 0.5474 -0.3098 0.7085
H88 H 0.6190 -0.3437 0.6703
H89 H 0.5519 -0.2892 0.6508
N4 N 0.5517(14) 0.5814(13) 0.7527(9)
C74 C 0.5218(12) 0.5477(13) 0.7675(8)
C75 C 0.4892(12) 0.4985(13) 0.7833(10)
H90 H 0.4924 0.4862 0.8183
H91 H 0.5150 0.4609 0.7629
H92 H 0.4389 0.5161 0.7791
N5 N 0.9580(13) -0.7684(11) 0.7876(10)
C76 C 0.9124(14) -0.7731(13) 0.8139(11)
C77 C 0.857(2) -0.7873(14) 0.8504(11)
H93 H 0.8117 -0.7504 0.8522
H94 H 0.8716 -0.7965 0.8831
H95 H 0.8502 -0.8244 0.8399
N6 N 0.5555(13) 1.134(3) 0.3952(11)
C78 C 0.5454(11) 1.1118(10) 0.358(2)
C79 C 0.551(2) 1.108(2) 0.2877(14)
H96 H 0.5029 1.1282 0.2790
H97 H 0.5714 1.0634 0.2781
H98 H 0.5814 1.1305 0.2701
O42 O 0.7610(11) -0.1979(7) 0.2532(9)
O43 O 0.7311(17) -0.8565(16) 0.2361(8)
O44 O 0.6455(15) -0.7905(15) 0.6629(19)
O45 O 0.8945(18) -0.8475(15) 0.1553(11)
O46 O 0.728(3) -0.7508(15) 0.2469(18)
O47 O 0.013(5) -0.780(3) 0.0956(19)
O48 O 0.410(2) -0.3762(18) -0.1120(13)
O49 O 0.297(3) -0.020(2) 1.0438(18)
Yb1 Yb 0.07417(2) -0.646440(18) 0.276850(19)
O50 O 0.1919(4) -0.6870(3) 0.2460(3)
O51 O 0.1083(4) -0.7537(3) 0.2698(3)
O52 O -0.0283(3) -0.6671(3) 0.2972(3)
O53 O -0.0123(3) -0.5563(3) 0.3059(3)
O54 O 0.1162(4) -1.5663(3) 0.2614(3)
O55 O 0.0921(3) -0.6683(3) 0.3543(3)
N7 N 0.2314(4) -0.6586(4) 0.2166(4)
N8 N 0.4658(8) -0.5419(10) 0.0549(7)
N9 N 0.1589(5) -0.7879(4) 0.2344(4)
N10 N 0.4223(8) -0.9712(8) 0.0509(6)
N11 N -0.0331(4) -0.7241(3) 0.2975(4)
N12 N -0.0380(6) -1.0275(4) 0.2931(4)
N13 N -0.0771(4) -0.5458(3) 0.3314(4)
N14 N -0.4204(4) -0.4823(4) 0.4672(4)
N15 N 0.0852(4) -1.5061(4) 0.2751(4)
N16 N -0.0503(5) -1.1881(4) 0.3336(4)
N17 N 0.1506(5) -0.7105(4) 0.3720(4)
N18 N 0.4481(5) -0.9320(4) 0.4615(5)
C80 C 0.2690(6) -0.6321(5) 0.2362(4)
H99 H 0.2653 -0.6314 0.2712
C81 C 0.3122(6) -0.6063(6) 0.2053(5)
H100 H 0.3374 -0.5863 0.2189
C82 C 0.3199(7) -0.6087(8) 0.1543(5)
C83 C 0.2799(8) -0.6329(8) 0.1367(5)
H101 H 0.2820 -0.6326 0.1018
C84 C 0.2354(7) -0.6584(7) 0.1676(5)
H102 H 0.2077 -0.6758 0.1540
C85 C 0.3709(8) -0.5819(8) 0.1205(6)
C86 C 0.3846(8) -0.5312(9) 0.1323(6)
H103 H 0.3622 -0.5113 0.1632
C87 C 0.4304(10) -0.5088(11) 0.1002(8)
H104 H 0.4386 -0.4724 0.1076
C88 C 0.4483(11) -0.5857(12) 0.0435(8)
H105 H 0.4680 -0.6036 0.0117
C89 C 0.4029(10) -0.6081(11) 0.0747(7)
H106 H 0.3928 -0.6423 0.0649
C90 C 0.5179(9) -0.5192(10) 0.0222(7)
H107 H 0.5615 -0.5559 0.0098
H108 H 0.5318 -0.4918 0.0406
C91 C 0.1483(7) -0.7838(5) 0.1882(5)
H109 H 0.1029 -0.7563 0.1808
C92 C 0.2003(7) -0.8177(6) 0.1491(6)
H110 H 0.1915 -0.8137 0.1159
C93 C 0.2646(8) -0.8571(7) 0.1625(5)
C94 C 0.2741(9) -0.8622(7) 0.2129(7)
H111 H 0.3178 -0.8916 0.2217
C95 C 0.2248(8) -0.8278(6) 0.2476(5)
H112 H 0.2335 -0.8298 0.2807
C96 C 0.3211(8) -0.8950(7) 0.1238(7)
C97 C 0.3251(11) -0.8721(10) 0.0746(6)
H113 H 0.2976 -0.8301 0.0644
C98 C 0.3763(12) -0.9197(16) 0.0407(8)
H114 H 0.3742 -0.9103 0.0063
C99 C 0.4172(14) -0.9873(13) 0.0946(10)
H115 H 0.4499 -1.0286 0.1019
C100 C 0.3731(11) -0.9562(9) 0.1335(7)
H116 H 0.3758 -0.9738 0.1663
C101 C 0.4750(10) -1.0113(11) 0.0093(7)
H117 H 0.4975 -1.0555 0.0221
H118 H 0.4492 -1.0126 -0.0173
C102 C -0.0529(6) -0.7389(5) 0.2585(5)
H119 H -0.0638 -0.7090 0.2316
C103 C -0.0577(6) -0.7989(5) 0.2569(5)
H120 H -0.0730 -0.8091 0.2294
C104 C -0.0399(5) -0.8435(5) 0.2960(5)
C105 C -0.0210(5) -0.8234(4) 0.3366(4)
H121 H -0.0097 -0.8514 0.3645
C106 C -0.0188(5) -0.7637(4) 0.3360(4)
H122 H -0.0067 -0.7507 0.3637
C107 C -0.0418(6) -0.9077(5) 0.2955(5)
C108 C -0.0881(6) -0.9199(5) 0.2713(5)
H123 H -0.1208 -0.8863 0.2545
C109 C -0.0869(7) -0.9800(5) 0.2715(5)
H124 H -0.1204 -0.9883 0.2564
C110 C 0.0084(6) -1.0192(5) 0.3161(5)
H125 H 0.0417 -1.0541 0.3314
C111 C 0.0071(6) -0.9591(5) 0.3173(4)
H126 H 0.0405 -0.9521 0.3335
C112 C -0.0339(7) -1.0959(5) 0.2894(5)
H127 H -0.0583 -1.0975 0.2620
H128 H 0.0168 -1.1246 0.2815
C113 C -0.1318(6) -0.5277(5) 0.3070(4)
H129 H -0.1234 -0.5247 0.2717
C114 C -0.2011(5) -0.5132(5) 0.3325(4)
H130 H -0.2405 -0.5000 0.3151
C115 C -0.2118(5) -0.5186(4) 0.3847(4)
C116 C -0.1537(5) -0.5373(4) 0.4086(4)
H131 H -0.1600 -0.5412 0.4438
C117 C -0.0850(5) -0.5508(5) 0.3807(5)
H132 H -0.0446 -0.5634 0.3969
C118 C -0.2857(5) -0.5059(4) 0.4125(4)
C119 C -0.3455(5) -0.4751(5) 0.3913(5)
H133 H -0.3412 -0.4608 0.3575
C120 C -0.4122(5) -0.4649(5) 0.4193(5)
H134 H -0.4535 -0.4448 0.4039
C121 C -0.3651(6) -0.5121(5) 0.4874(4)
H135 H -0.3719 -0.5261 0.5211
C122 C -0.2947(6) -0.5251(5) 0.4624(4)
H136 H -0.2549 -0.5462 0.4789
C123 C -0.4933(5) -0.4696(5) 0.4950(5)
H137 H -0.5288 -0.4394 0.4755
H138 H -0.4987 -0.4499 0.5269
C124 C 0.0524(6) -1.4628(5) 0.2431(5)
H139 H 0.0504 -1.4753 0.2115
C125 C 0.0207(6) -1.3991(5) 0.2552(5)
H140 H -0.0016 -1.3678 0.2317
C126 C 0.0221(5) -1.3821(4) 0.3010(4)
C127 C 0.0558(5) -1.4305(4) 0.3347(4)
H141 H 0.0573 -1.4200 0.3670
C128 C 0.0863(5) -1.4928(5) 0.3206(5)
H142 H 0.1079 -1.5259 0.3432
C129 C -0.0062(5) -1.3148(4) 0.3148(4)
C130 C -0.0654(7) -1.2706(5) 0.2963(5)
H143 H -0.0903 -1.2839 0.2765
C131 C -0.0878(6) -1.2061(5) 0.3071(5)
H144 H -0.1290 -1.1755 0.2959
C132 C 0.0024(6) -1.2287(5) 0.3528(5)
H145 H 0.0251 -1.2145 0.3737
C133 C 0.0263(6) -1.2929(5) 0.3432(4)
H146 H 0.0663 -1.3220 0.3569
C134 C -0.0683(7) -1.1185(4) 0.3370(5)
H147 H -0.0500 -1.1102 0.3655
H148 H -0.1208 -1.0956 0.3419
C135 C 0.1613(6) -0.7737(5) 0.3766(4)
H149 H 0.1279 -0.7881 0.3669
C136 C 0.2183(6) -0.8158(5) 0.3946(5)
H150 H 0.2246 -0.8597 0.3971
C137 C 0.2671(5) -0.7976(5) 0.4095(4)
C138 C 0.2533(6) -0.7321(5) 0.4063(5)
H151 H 0.2848 -0.7169 0.4177
C139 C 0.1970(6) -0.6902(5) 0.3877(4)
H152 H 0.1895 -0.6461 0.3855
C140 C 0.3301(6) -0.8424(5) 0.4280(5)
C141 C 0.3634(7) -0.9067(5) 0.4094(6)
H153 H 0.3447 -0.9185 0.3844
C142 C 0.4196(6) -0.9489(5) 0.4271(5)
H154 H 0.4400 -0.9912 0.4155
C143 C 0.4198(6) -0.8726(5) 0.4797(6)
H155 H 0.4399 -0.8616 0.5042
C144 C 0.3622(6) -0.8291(5) 0.4622(5)
H156 H 0.3432 -0.7871 0.4743
C145 C 0.5123(6) -0.9801(5) 0.4793(6)
H157 H 0.5396 -0.9586 0.4915
H158 H 0.5438 -1.0076 0.4517
S8 S -0.0024(4) -0.6022(3) 0.1734(3)
O56 O 0.0484(6) -0.6309(4) 0.2037(4)
O57 O -0.0360(15) -0.6450(12) 0.1604(10)
O58 O -0.0556(8) -0.5415(7) 0.1868(6)
C146 C 0.0381(13) -0.5914(12) 0.1122(6)
F22 F 0.0746(17) -0.5544(15) 0.1165(11)
F23 F 0.0785(17) -0.6523(12) 0.0943(7)
F24 F -0.0120(12) -0.5609(13) 0.0824(7)
Yb1A Yb 0.92583(2) -0.353560(18) -0.276850(19)
Yb1_2 Yb 0.07417(2) -1.646440(18) 0.276850(19)
Yb1A_2 Yb 0.92583(2) -1.353560(18) -0.276850(19)
Yb1A_3 Yb -1.07417(2) -0.353560(18) 0.723150(19)
Yb1A_4 Yb 0.92583(2) -1.353560(18) 0.723150(19)
Yb1_3 Yb 0.07417(2) 0.353560(18) 0.276850(19)
O50A O 0.8081(4) -0.3130(3) -0.2460(3)
O51A O 0.8917(4) -1.2463(3) -0.2698(3)
O51A_2 O 0.8917(4) -0.2463(3) -0.2698(3)
O52_2 O -0.0283(3) 0.3329(3) 0.2972(3)
O52A O 1.0283(3) -0.3329(3) -0.2972(3)
O53A O -0.9877(3) -0.4437(3) 0.6941(3)
O53A_2 O 1.0123(3) -0.4437(3) -0.3059(3)
O54_2 O 0.1162(4) -0.5663(3) 0.2614(3)
O54A O 0.8838(4) -0.4337(3) -0.2614(3)
O55A O 0.9079(3) -1.3317(3) 0.6457(3)
O55A_2 O 0.9079(3) -0.3317(3) -0.3543(3)
N7A N 0.7686(4) -0.3414(4) -0.2166(4)
N8A N 0.5342(8) -0.4581(10) -0.0549(7)
N9A N 0.8411(5) -1.2121(4) -0.2344(4)
N10A N 0.5777(8) -1.0288(8) -0.0509(6)
N11_2 N -0.0331(4) 0.2759(3) 0.2975(4)
N12_2 N -0.0380(6) -0.0275(4) 0.2931(4)
N13A N -0.9229(4) -0.4542(3) 0.6686(4)
N14A N -0.5796(4) -0.5177(4) 0.5328(4)
N15_2 N 0.0852(4) -0.5061(4) 0.2751(4)
N16_2 N -0.0503(5) -0.1881(4) 0.3336(4)
N17A N 0.8494(5) -1.2895(4) 0.6280(4)
N18A N 0.5519(5) -1.0680(4) 0.5385(5)
C80A C 0.7310(6) -0.3679(5) -0.2362(4)
H99A H 0.7347 -0.3686 -0.2712
C81A C 0.6878(6) -0.3937(6) -0.2053(5)
H100A H 0.6626 -0.4137 -0.2189
C82A C 0.6801(7) -0.3913(8) -0.1543(5)
C83A C 0.7201(8) -0.3671(8) -0.1367(5)
H101A H 0.7180 -0.3674 -0.1018
C84A C 0.7646(7) -0.3416(7) -0.1676(5)
H102A H 0.7923 -0.3242 -0.1540
C85A C 0.6291(8) -0.4181(8) -0.1205(6)
C86A C 0.6154(8) -0.4688(9) -0.1323(6)
H103A H 0.6378 -0.4887 -0.1632
C87A C 0.5696(10) -0.4912(11) -0.1002(8)
H104A H 0.5614 -0.5276 -0.1076
C88A C 0.5517(11) -0.4143(12) -0.0435(8)
H105A H 0.5320 -0.3964 -0.0117
C89A C 0.5971(10) -0.3919(11) -0.0747(7)
H106A H 0.6072 -0.3577 -0.0649
C90A C 0.4821(9) -0.4808(10) -0.0222(7)
H107A H 0.4385 -0.4441 -0.0098
H108A H 0.4682 -0.5082 -0.0406
C91A C 0.8517(7) -1.2162(5) -0.1882(5)
H109A H 0.8971 -1.2437 -0.1808
C92A C 0.7997(7) -1.1823(6) -0.1491(6)
H110A H 0.8085 -1.1863 -0.1159
C93A C 0.7354(8) -1.1429(7) -0.1625(5)
C94A C 0.7259(9) -1.1378(7) -0.2129(7)
H111A H 0.6822 -1.1084 -0.2217
C95A C 0.7752(8) -1.1722(6) -0.2476(5)
H112A H 0.7665 -1.1702 -0.2807
C96A C 0.6789(8) -1.1050(7) -0.1238(7)
C97A C 0.6749(11) -1.1279(10) -0.0746(6)
H113A H 0.7024 -1.1699 -0.0644
C98A C 0.6237(12) -1.0803(16) -0.0407(8)
H114A H 0.6258 -1.0897 -0.0063
C99A C 0.5828(14) -1.0127(13) -0.0946(10)
H115A H 0.5501 -0.9714 -0.1019
C100A C 0.6269(11) -1.0438(9) -0.1335(7)
H116A H 0.6242 -1.0262 -0.1663
C101A C 0.5250(10) -0.9887(11) -0.0093(7)
H117A H 0.5025 -0.9445 -0.0221
H118A H 0.5508 -0.9874 0.0173
C102_2 C -0.0529(6) 0.2611(5) 0.2585(5)
H119_2 H -0.0638 0.2910 0.2316
C103_2 C -0.0577(6) 0.2011(5) 0.2569(5)
H120_2 H -0.0730 0.1909 0.2294
C104_2 C -0.0399(5) 0.1565(5) 0.2960(5)
C105_2 C -0.0210(5) 0.1766(4) 0.3366(4)
H121_2 H -0.0097 0.1486 0.3645
C106_2 C -0.0188(5) 0.2363(4) 0.3360(4)
H122_2 H -0.0067 0.2493 0.3637
C107_2 C -0.0418(6) 0.0923(5) 0.2955(5)
C108_2 C -0.0881(6) 0.0801(5) 0.2713(5)
H123_2 H -0.1208 0.1137 0.2545
C109_2 C -0.0869(7) 0.0200(5) 0.2715(5)
H124_2 H -0.1204 0.0117 0.2564
C110_2 C 0.0084(6) -0.0192(5) 0.3161(5)
H125_2 H 0.0417 -0.0541 0.3314
C111_2 C 0.0071(6) 0.0409(5) 0.3173(4)
H126_2 H 0.0405 0.0479 0.3335
C112_2 C -0.0339(7) -0.0959(5) 0.2894(5)
H127_2 H -0.0583 -0.0975 0.2620
H128_2 H 0.0168 -0.1246 0.2815
C113A C -0.8682(6) -0.4723(5) 0.6930(4)
H129A H -0.8766 -0.4753 0.7283
C114A C -0.7989(5) -0.4868(5) 0.6675(4)
H130A H -0.7595 -0.5000 0.6849
C115A C -0.7882(5) -0.4814(4) 0.6153(4)
C116A C -0.8463(5) -0.4627(4) 0.5914(4)
H131A H -0.8400 -0.4588 0.5562
C117A C -0.9150(5) -0.4492(5) 0.6193(5)
H132A H -0.9554 -0.4366 0.6031
C118A C -0.7143(5) -0.4941(4) 0.5875(4)
C119A C -0.6545(5) -0.5249(5) 0.6087(5)
H133A H -0.6588 -0.5392 0.6425
C120A C -0.5878(5) -0.5351(5) 0.5807(5)
H134A H -0.5465 -0.5552 0.5961
C121A C -0.6349(6) -0.4879(5) 0.5126(4)
H135A H -0.6281 -0.4739 0.4789
C122A C -0.7053(6) -0.4749(5) 0.5376(4)
H136A H -0.7451 -0.4538 0.5211
C123A C -0.5067(5) -0.5304(5) 0.5050(5)
H137A H -0.4712 -0.5606 0.5245
H138A H -0.5013 -0.5501 0.4731
C124_2 C 0.0524(6) -0.4628(5) 0.2431(5)
H139_2 H 0.0504 -0.4753 0.2115
C125_2 C 0.0207(6) -0.3991(5) 0.2552(5)
H140_2 H -0.0016 -0.3678 0.2317
C126_2 C 0.0221(5) -0.3821(4) 0.3010(4)
C127_2 C 0.0558(5) -0.4305(4) 0.3347(4)
H141_2 H 0.0573 -0.4200 0.3670
C128_2 C 0.0863(5) -0.4928(5) 0.3206(5)
H142_2 H 0.1079 -0.5259 0.3432
C129_2 C -0.0062(5) -0.3148(4) 0.3148(4)
C130_2 C -0.0654(7) -0.2706(5) 0.2963(5)
H143_2 H -0.0903 -0.2839 0.2765
C131_2 C -0.0878(6) -0.2061(5) 0.3071(5)
H144_2 H -0.1290 -0.1755 0.2959
C132_2 C 0.0024(6) -0.2287(5) 0.3528(5)
H145_2 H 0.0251 -0.2145 0.3737
C133_2 C 0.0263(6) -0.2929(5) 0.3432(4)
H146_2 H 0.0663 -0.3220 0.3569
C134_2 C -0.0683(7) -0.1185(4) 0.3370(5)
H147_2 H -0.0500 -0.1102 0.3655
H148_2 H -0.1208 -0.0956 0.3419
C135A C 0.8387(6) -1.2263(5) 0.6234(4)
H149A H 0.8721 -1.2119 0.6331
C136A C 0.7817(6) -1.1842(5) 0.6054(5)
H150A H 0.7754 -1.1403 0.6029
C137A C 0.7329(5) -1.2024(5) 0.5905(4)
C138A C 0.7467(6) -1.2679(5) 0.5937(5)
H151A H 0.7152 -1.2831 0.5823
C139A C 0.8030(6) -1.3098(5) 0.6123(4)
H152A H 0.8105 -1.3539 0.6145
C140A C 0.6699(6) -1.1576(5) 0.5720(5)
C141A C 0.6366(7) -1.0933(5) 0.5906(6)
H153A H 0.6553 -1.0815 0.6156
C142A C 0.5804(6) -1.0511(5) 0.5729(5)
H154A H 0.5600 -1.0088 0.5845
C143A C 0.5802(6) -1.1274(5) 0.5203(6)
H155A H 0.5601 -1.1384 0.4958
C144A C 0.6378(6) -1.1709(5) 0.5378(5)
H156A H 0.6568 -1.2129 0.5257
C145A C 0.4877(6) -1.0199(5) 0.5207(6)
H157A H 0.4604 -1.0414 0.5085
H158A H 0.4562 -0.9924 0.5483
S8A S 1.0024(4) -0.3978(3) -0.1734(3)
O56A O 0.9516(6) -0.3691(4) -0.2037(4)
O57A O 1.0360(15) -0.3550(12) -0.1604(10)
O58A O 1.0556(8) -0.4585(7) -0.1868(6)
C146A C 0.9619(13) -0.4086(12) -0.1122(6)
F22A F 0.9254(17) -0.4456(15) -0.1165(11)
F23A F 0.9215(17) -0.3477(12) -0.0943(7)
F24A F 1.0120(12) -0.4391(13) -0.0824(7)
O1 O 0.6951(4) -0.0475(4) 0.4633(4)
O2 O 0.6236(5) 0.0690(5) 0.5229(5)
O3 O 0.4923(5) 0.1053(5) 0.5833(4)
O4 O 0.6482(6) -0.1053(6) 0.4105(5)
C1 C 0.7147(8) -0.1415(8) 0.4226(6)
C2 C 0.7590(11) -0.2030(8) 0.4064(7)
H1 H 0.7442 -0.2243 0.3851
C3 C 0.8238(11) -0.2316(8) 0.4220(7)
H2 H 0.8536 -0.2731 0.4110
C4 C 0.8475(8) -0.2032(7) 0.4526(6)
H3 H 0.8919 -0.2253 0.4637
C5 C 0.8051(7) -0.1407(6) 0.4674(5)
H4 H 0.8216 -0.1205 0.4883
C6 C 0.7404(7) -0.1084(6) 0.4522(5)
C7 C 0.7289(7) -0.0115(6) 0.4833(6)
H5 H 0.7762 -0.0177 0.4628
H6 H 0.7361 -0.0268 0.5176
C8 C 0.6816(7) 0.0581(6) 0.4829(7)
H7 H 0.7095 0.0843 0.4864
H8 H 0.6634 0.0705 0.4510
C9 C 0.5898(9) 0.1247(9) 0.5366(10)
H9 H 0.5655 0.1488 0.5088
H10 H 0.6257 0.1426 0.5400
C10 C 0.5365(8) 0.1399(8) 0.5814(7)
H11 H 0.5604 0.1289 0.6110
H12 H 0.5075 0.1861 0.5814
C11 C 0.4367(10) 0.117(2) 0.6238(8)
H13 H 0.4383 0.1531 0.6403
H14 H 0.4529 0.0796 0.6466
C12 C 0.6237(12) -0.1279(19) 0.3741(8)
H15 H 0.6406 -0.1111 0.3414
H16 H 0.6483 -0.1748 0.3739
O1A O 0.3049(4) 0.0475(4) 0.5367(4)
O2A O 0.3764(5) -0.0690(5) 0.4771(5)
O3A O 0.5077(5) -0.1053(5) 0.4167(4)
O4A O 0.3518(6) 0.1053(6) 0.5895(5)
C1A C 0.2853(8) 0.1415(8) 0.5774(6)
C2A C 0.2410(11) 0.2030(8) 0.5936(7)
H1A H 0.2558 0.2243 0.6149
C3A C 0.1762(11) 0.2316(8) 0.5780(7)
H2A H 0.1464 0.2731 0.5890
C4A C 0.1525(8) 0.2032(7) 0.5474(6)
H3A H 0.1081 0.2253 0.5363
C5A C 0.1949(7) 0.1407(6) 0.5326(5)
H4A H 0.1784 0.1205 0.5117
C6A C 0.2596(7) 0.1084(6) 0.5478(5)
C7A C 0.2711(7) 0.0115(6) 0.5167(6)
H5A H 0.2238 0.0177 0.5372
H6A H 0.2639 0.0268 0.4824
C8A C 0.3184(7) -0.0581(6) 0.5171(7)
H7A H 0.2905 -0.0843 0.5136
H8A H 0.3366 -0.0705 0.5490
C9A C 0.4102(9) -0.1247(9) 0.4634(10)
H9A H 0.4345 -0.1488 0.4912
H10A H 0.3743 -0.1426 0.4600
C10A C 0.4635(8) -0.1399(8) 0.4186(7)
H11A H 0.4396 -0.1289 0.3890
H12A H 0.4925 -0.1861 0.4186
C11A C 0.5633(10) -0.117(2) 0.3762(8)
H13A H 0.5617 -0.1531 0.3597
H14A H 0.5471 -0.0796 0.3534
C12A C 0.3763(12) 0.1279(19) 0.6259(8)
H15A H 0.3594 0.1111 0.6586
H16A H 0.3517 0.1748 0.6261
O59? O 0.4969(11) -0.1408(9) 0.9597(6)
O60? O 0.4989(16) -0.1441(10) 1.0676(8)
O61? O 0.3919(14) 0.0871(12) 0.9162(9)
O62? O 0.4415(11) -0.0462(10) 0.9048(8)
C147? C 0.4909(8) -0.0973(7) 0.8783(7)
C148? C 0.5117(11) -0.1018(8) 0.8271(7)
H159? H 0.4910 -0.0665 0.8059
C149? C 0.5627(11) -0.1580(10) 0.8070(5)
H160? H 0.5769 -0.1610 0.7720
C150? C 0.5929(8) -0.2096(8) 0.8380(7)
H161? H 0.6278 -0.2480 0.8243
C151? C 0.5721(9) -0.2051(8) 0.8892(7)
H162? H 0.5928 -0.2405 0.9105
C152? C 0.5211(9) -0.1490(9) 0.9094(5)
C153? C 0.509(2) -0.1978(15) 0.9915(11)
H163? H 0.5608 -0.2190 0.9930
H164? H 0.4932 -0.2279 0.9780
C154? C 0.4675(16) -0.1787(11) 1.0428(10)
H165? H 0.4173 -0.1514 1.0403
H166? H 0.4671 -0.2173 1.0630
C155? C 0.526(3) -0.204(4) 1.094(3)
H167? H 0.5616 -0.2355 1.0705
H168? H 0.4988 -0.2242 1.1197
C156? C 0.579(3) -0.168(4) 1.099(3)
H169? H 0.6218 -0.2026 1.1084
H170? H 0.5448 -0.1547 1.1308
C157? C 0.346(3) 0.055(4) 0.909(3)
H171? H 0.3307 0.0344 0.9396
H172? H 0.3036 0.0849 0.8950
C158? C 0.393(3) 0.009(4) 0.873(3)
H173? H 0.4224 0.0278 0.8482
H174? H 0.3654 -0.0066 0.8553
Cl2? Cl 0.812(2) -0.3622(11) 0.3262(19)
N19? N 0.562(2) 1.245(2) 0.4262(16)
C159? C 0.5828(13) 1.2453(13) 0.404(3)
C160? C 0.595(2) 1.2539(15) 0.338(3)
H175? H 0.5726 1.2989 0.3280
H176? H 0.5736 1.2286 0.3243
H177? H 0.6466 1.2390 0.3243
loop_
_geom_bond_atom_site_label_1
_geom_bond_atom_site_label_2
_geom_bond_site_symmetry_1
_geom_bond_site_symmetry_2
O1 C6 1_555 1_555
O2 C8 1_555 1_555
O3 C10 1_555 1_555
O4 C1 1_555 1_555
C1 C2 1_555 1_555
C2 H1 1_555 1_555
C3 C2 1_555 1_555
H2 C3 1_555 1_555
C4 C3 1_555 1_555
H3 C4 1_555 1_555
C5 C4 1_555 1_555
H4 C5 1_555 1_555
C6 C1 1_555 1_555
C7 O1 1_555 1_555
H5 C7 1_555 1_555
H6 C7 1_555 1_555
C8 C7 1_555 1_555
H7 C8 1_555 1_555
H8 C8 1_555 1_555
C9 O2 1_555 1_555
H9 C9 1_555 1_555
H10 C9 1_555 1_555
C10 C9 1_555 1_555
H11 C10 1_555 1_555
H12 C10 1_555 1_555
C11 O3 1_555 1_555
H13 C11 1_555 1_555
H14 C11 1_555 1_555
C12 O4 1_555 1_555
H15 C12 1_555 1_555
H16 C12 1_555 1_555
O5 C18 1_555 1_555
O6 C20 1_555 1_555
O7 C22 1_555 1_555
O8 C24 1_555 1_555
O9 C30 1_555 1_555
O10 C32 1_555 1_555
O11 C34 1_555 1_555
O12 C13 1_555 1_555
C13 C14 1_555 1_555
C14 H17 1_555 1_555
C15 C14 1_555 1_555
H18 C15 1_555 1_555
C16 C15 1_555 1_555
H19 C16 1_555 1_555
C17 C16 1_555 1_555
H20 C17 1_555 1_555
C18 C13 1_555 1_555
C19 O5 1_555 1_555
H21 C19 1_555 1_555
H22 C19 1_555 1_555
C20 C19 1_555 1_555
H23 C20 1_555 1_555
H24 C20 1_555 1_555
C21 O6 1_555 1_555
H25 C21 1_555 1_555
H26 C21 1_555 1_555
C22 C21 1_555 1_555
H27 C22 1_555 1_555
H28 C22 1_555 1_555
C23 O7 1_555 1_555
H29 C23 1_555 1_555
H30 C23 1_555 1_555
C24 C23 1_555 1_555
H31 C24 1_555 1_555
H32 C24 1_555 1_555
C25 O8 1_555 1_555
C26 C25 1_555 1_555
H33 C26 1_555 1_555
C27 C26 1_555 1_555
H34 C27 1_555 1_555
C28 C27 1_555 1_555
H35 C28 1_555 1_555
C29 C28 1_555 1_555
H36 C29 1_555 1_555
C30 C25 1_555 1_555
C31 O9 1_555 1_555
H37 C31 1_555 1_555
H38 C31 1_555 1_555
C32 C31 1_555 1_555
H39 C32 1_555 1_555
H40 C32 1_555 1_555
C33 O10 1_555 1_555
H41 C33 1_555 1_555
H42 C33 1_555 1_555
C34 C33 1_555 1_555
H43 C34 1_555 1_555
H44 C34 1_555 1_555
C35 O11 1_555 1_555
H45 C35 1_555 1_555
H46 C35 1_555 1_555
C36 O12 1_555 1_555
H47 C36 1_555 1_555
H48 C36 1_555 1_555
O13 C42 1_555 1_555
O14 C44 1_555 1_555
O15 C46 1_555 1_555
O16 C37 1_555 1_555
C37 C38 1_555 1_555
C38 H49 1_555 1_555
C39 C38 1_555 1_555
H50 C39 1_555 1_555
C40 C39 1_555 1_555
H51 C40 1_555 1_555
C41 C40 1_555 1_555
H52 C41 1_555 1_555
C42 C37 1_555 1_555
C43 O13 1_555 1_555
H53 C43 1_555 1_555
H54 C43 1_555 1_555
C44 C43 1_555 1_555
H55 C44 1_555 1_555
H56 C44 1_555 1_555
C45 O14 1_555 1_555
H57 C45 1_555 1_555
H58 C45 1_555 1_555
C46 C45 1_555 1_555
H59 C46 1_555 1_555
H60 C46 1_555 1_555
C47 O15 1_555 1_555
H61 C47 1_555 1_555
H62 C47 1_555 1_555
C48 O16 1_555 1_555
H63 C48 1_555 1_555
H64 C48 1_555 1_555
O17 C54 1_555 1_555
O18 C56 1_555 1_555
O19 C58 1_555 1_555
O20 C49 1_555 1_555
C49 C50 1_555 1_555
C50 H65 1_555 1_555
C51 C50 1_555 1_555
H66 C51 1_555 1_555
C52 C51 1_555 1_555
H67 C52 1_555 1_555
C53 C52 1_555 1_555
H68 C53 1_555 1_555
C54 C49 1_555 1_555
C55 O17 1_555 1_555
H69 C55 1_555 1_555
H70 C55 1_555 1_555
C56 C55 1_555 1_555
H71 C56 1_555 1_555
H72 C56 1_555 1_555
C57 O18 1_555 1_555
H73 C57 1_555 1_555
H74 C57 1_555 1_555
C58 C57 1_555 1_555
H75 C58 1_555 1_555
H76 C58 1_555 1_555
C59 O19 1_555 1_555
H77 C59 1_555 1_555
H78 C59 1_555 1_555
C60 O20 1_555 1_555
H79 C60 1_555 1_555
H80 C60 1_555 1_555
S1 O21 1_555 1_555
O22 S1 1_555 1_555
O23 S1 1_555 1_555
C61 S1 1_555 1_555
F1 C61 1_555 1_555
F2 C61 1_555 1_555
F3 C61 1_555 1_555
S2 O24 1_555 1_555
O25 S2 1_555 1_555
O26 S2 1_555 1_555
C62 S2 1_555 1_555
F4 C62 1_555 1_555
F5 C62 1_555 1_555
F6 C62 1_555 1_555
S3 O27 1_555 1_555
O28 S3 1_555 1_555
O29 S3 1_555 1_555
C63 S3 1_555 1_555
F7 C63 1_555 1_555
F8 C63 1_555 1_555
F9 C63 1_555 1_555
S4 O30 1_555 1_555
O31 S4 1_555 1_555
O32 S4 1_555 1_555
C64 S4 1_555 1_555
F10 C64 1_555 1_555
F11 C64 1_555 1_555
F12 C64 1_555 1_555
S5 O33 1_555 1_555
O34 S5 1_555 1_555
O35 S5 1_555 1_555
C65 S5 1_555 1_555
F13 C65 1_555 1_555
F14 C65 1_555 1_555
F15 C65 1_555 1_555
S6 O36 1_555 1_555
O37 S6 1_555 1_555
O38 S6 1_555 1_555
C66 S6 1_555 1_555
F16 C66 1_555 1_555
F17 C66 1_555 1_555
F18 C66 1_555 1_555
S7 O39 1_555 1_555
O40 S7 1_555 1_555
O41 S7 1_555 1_555
C67 S7 1_555 1_555
F19 C67 1_555 1_555
F20 C67 1_555 1_555
F21 C67 1_555 1_555
N1 C68 1_555 1_555
C68 C69 1_555 1_555
C69 H81 1_555 1_555
H82 C69 1_555 1_555
H83 C69 1_555 1_555
N2 C70 1_555 1_555
C70 C71 1_555 1_555
C71 H84 1_555 1_555
H85 C71 1_555 1_555
H86 C71 1_555 1_555
N3 C72 1_555 1_555
C72 C73 1_555 1_555
C73 H87 1_555 1_555
H88 C73 1_555 1_555
H89 C73 1_555 1_555
N4 C74 1_555 1_555
C74 C75 1_555 1_555
C75 H90 1_555 1_555
H91 C75 1_555 1_555
H92 C75 1_555 1_555
N5 C76 1_555 1_555
C76 C77 1_555 1_555
C77 H93 1_555 1_555
H94 C77 1_555 1_555
H95 C77 1_555 1_555
N6 C78 1_555 1_555
C78 C79 1_555 1_555
C79 H96 1_555 1_555
H97 C79 1_555 1_555
H98 C79 1_555 1_555
Yb1 O50 1_555 1_555
O50 N7 1_555 1_555
O51 Yb1 1_555 1_555
O52 Yb1 1_555 1_555
O53 Yb1 1_555 1_555
O54 N15 1_555 1_555
O55 Yb1 1_555 1_555
N7 C80 1_555 1_555
N8 C87 1_555 1_555
N9 O51 1_555 1_555
N10 C98 1_555 1_555
N11 O52 1_555 1_555
N12 C109 1_555 1_555
N13 O53 1_555 1_555
N14 C120 1_555 1_555
N15 C124 1_555 1_555
N16 C131 1_555 1_555
N17 O55 1_555 1_555
N18 C142 1_555 1_555
C80 H99 1_555 1_555
C81 C80 1_555 1_555
H100 C81 1_555 1_555
C82 C81 1_555 1_555
C83 C82 1_555 1_555
H101 C83 1_555 1_555
C84 N7 1_555 1_555
H102 C84 1_555 1_555
C85 C82 1_555 1_555
C86 C85 1_555 1_555
H103 C86 1_555 1_555
C87 C86 1_555 1_555
H104 C87 1_555 1_555
C88 N8 1_555 1_555
H105 C88 1_555 1_555
C89 C85 1_555 1_555
H106 C89 1_555 1_555
C90 N8 1_555 1_555
H107 C90 1_555 1_555
H108 C90 1_555 1_555
C91 N9 1_555 1_555
H109 C91 1_555 1_555
C92 C91 1_555 1_555
H110 C92 1_555 1_555
C93 C92 1_555 1_555
C94 C93 1_555 1_555
H111 C94 1_555 1_555
C95 N9 1_555 1_555
H112 C95 1_555 1_555
C96 C93 1_555 1_555
C97 C96 1_555 1_555
H113 C97 1_555 1_555
C98 C97 1_555 1_555
H114 C98 1_555 1_555
C99 N10 1_555 1_555
H115 C99 1_555 1_555
C100 C96 1_555 1_555
H116 C100 1_555 1_555
C101 N10 1_555 1_555
H117 C101 1_555 1_555
H118 C101 1_555 1_555
C102 N11 1_555 1_555
H119 C102 1_555 1_555
C103 C102 1_555 1_555
H120 C103 1_555 1_555
C104 C103 1_555 1_555
C105 C104 1_555 1_555
H121 C105 1_555 1_555
C106 N11 1_555 1_555
H122 C106 1_555 1_555
C107 C104 1_555 1_555
C108 C107 1_555 1_555
H123 C108 1_555 1_555
C109 C108 1_555 1_555
H124 C109 1_555 1_555
C110 N12 1_555 1_555
H125 C110 1_555 1_555
C111 C107 1_555 1_555
H126 C111 1_555 1_555
C112 N12 1_555 1_555
H127 C112 1_555 1_555
H128 C112 1_555 1_555
C113 N13 1_555 1_555
H129 C113 1_555 1_555
C114 C113 1_555 1_555
H130 C114 1_555 1_555
C115 C114 1_555 1_555
C116 C115 1_555 1_555
H131 C116 1_555 1_555
C117 N13 1_555 1_555
H132 C117 1_555 1_555
C118 C115 1_555 1_555
C119 C118 1_555 1_555
H133 C119 1_555 1_555
C120 C119 1_555 1_555
H134 C120 1_555 1_555
C121 N14 1_555 1_555
H135 C121 1_555 1_555
C122 C118 1_555 1_555
H136 C122 1_555 1_555
C123 N14 1_555 1_555
H137 C123 1_555 1_555
H138 C123 1_555 1_555
C124 H139 1_555 1_555
C125 C124 1_555 1_555
H140 C125 1_555 1_555
C126 C125 1_555 1_555
C127 C126 1_555 1_555
H141 C127 1_555 1_555
C128 N15 1_555 1_555
H142 C128 1_555 1_555
C129 C126 1_555 1_555
C130 C129 1_555 1_555
H143 C130 1_555 1_555
C131 C130 1_555 1_555
H144 C131 1_555 1_555
C132 N16 1_555 1_555
H145 C132 1_555 1_555
C133 C129 1_555 1_555
H146 C133 1_555 1_555
C134 N16 1_555 1_555
H147 C134 1_555 1_555
H148 C134 1_555 1_555
C135 N17 1_555 1_555
H149 C135 1_555 1_555
C136 C135 1_555 1_555
H150 C136 1_555 1_555
C137 C136 1_555 1_555
C138 C137 1_555 1_555
H151 C138 1_555 1_555
C139 N17 1_555 1_555
H152 C139 1_555 1_555
C140 C137 1_555 1_555
C141 C140 1_555 1_555
H153 C141 1_555 1_555
C142 C141 1_555 1_555
H154 C142 1_555 1_555
C143 N18 1_555 1_555
H155 C143 1_555 1_555
C144 C140 1_555 1_555
H156 C144 1_555 1_555
C145 N18 1_555 1_555
H157 C145 1_555 1_555
H158 C145 1_555 1_555
S8 O56 1_555 1_555
O56 Yb1 1_555 1_555
O57 S8 1_555 1_555
O58 S8 1_555 1_555
C146 S8 1_555 1_555
F22 C146 1_555 1_555
F23 C146 1_555 1_555
F24 C146 1_555 1_555
O1A C6A 1_555 1_555
O2A C8A 1_555 1_555
O3A C10A 1_555 1_555
O4A C1A 1_555 1_555
C1A C2A 1_555 1_555
C2A H1A 1_555 1_555
C3A C2A 1_555 1_555
H2A C3A 1_555 1_555
C4A C3A 1_555 1_555
H3A C4A 1_555 1_555
C5A C4A 1_555 1_555
H4A C5A 1_555 1_555
C6A C1A 1_555 1_555
C7A O1A 1_555 1_555
H5A C7A 1_555 1_555
H6A C7A 1_555 1_555
C8A C7A 1_555 1_555
H7A C8A 1_555 1_555
H8A C8A 1_555 1_555
C9A O2A 1_555 1_555
H9A C9A 1_555 1_555
H10A C9A 1_555 1_555
C10A C9A 1_555 1_555
H11A C10A 1_555 1_555
H12A C10A 1_555 1_555
C11A C12 1_555 1_555
H13A C11A 1_555 1_555
H14A C11A 1_555 1_555
C12A C11 1_555 1_555
H15A C12A 1_555 1_555
H16A C12A 1_555 1_555
O13A C42A 1_555 1_555
O14A C44A 1_555 1_555
O15A C46A 1_555 1_555
O16A C37A 1_555 1_555
C37A C38A 1_555 1_555
C38A H49A 1_555 1_555
C39A C38A 1_555 1_555
H50A C39A 1_555 1_555
C40A C39A 1_555 1_555
H51A C40A 1_555 1_555
C41A C40A 1_555 1_555
H52A C41A 1_555 1_555
C42A C37A 1_555 1_555
C43A O13A 1_555 1_555
H53A C43A 1_555 1_555
H54A C43A 1_555 1_555
C44A C43A 1_555 1_555
H55A C44A 1_555 1_555
H56A C44A 1_555 1_555
C45A O14A 1_555 1_555
H57A C45A 1_555 1_555
H58A C45A 1_555 1_555
C46A C45A 1_555 1_555
H59A C46A 1_555 1_555
H60A C46A 1_555 1_555
C47A C48 1_555 1_555
H61A C47A 1_555 1_555
H62A C47A 1_555 1_555
C48A C47 1_555 1_555
H63A C48A 1_555 1_555
H64A C48A 1_555 1_555
O17A C54A 1_555 1_555
O18A C56A 1_555 1_555
O19A C58A 1_555 1_555
O20A C49A 1_555 1_555
C49A C50A 1_555 1_555
C50A H65A 1_555 1_555
C51A C50A 1_555 1_555
H66A C51A 1_555 1_555
C52A C51A 1_555 1_555
H67A C52A 1_555 1_555
C53A C52A 1_555 1_555
H68A C53A 1_555 1_555
C54A C49A 1_555 1_555
C55A O17A 1_555 1_555
H69A C55A 1_555 1_555
H70A C55A 1_555 1_555
C56A C55A 1_555 1_555
H71A C56A 1_555 1_555
H72A C56A 1_555 1_555
C57A O18A 1_555 1_555
H73A C57A 1_555 1_555
H74A C57A 1_555 1_555
C58A C57A 1_555 1_555
H75A C58A 1_555 1_555
H76A C58A 1_555 1_555
C59A C60 1_555 1_555
H77A C59A 1_555 1_555
H78A C59A 1_555 1_555
C60A C59 1_555 1_555
H79A C60A 1_555 1_555
H80A C60A 1_555 1_555
Yb1A O50A 1_555 1_555
Yb1_2 O54 1_555 1_555
Yb1A_2 O51A 1_555 1_555
Yb1A_3 O53A 1_555 1_555
Yb1A_4 O55A 1_555 1_555
Yb1_3 O52_2 1_555 1_555
O50A N7A 1_555 1_555
O51A N9A 1_555 1_555
O51A_2 Yb1A 1_555 1_555
O52_2 N11_2 1_555 1_555
O52A Yb1A 1_555 1_555
O53A N13A 1_555 1_555
O53A_2 Yb1A 1_555 1_555
O54_2 Yb1 1_555 1_555
O54A Yb1A 1_555 1_555
O55A N17A 1_555 1_555
O55A_2 Yb1A 1_555 1_555
N7A C80A 1_555 1_555
N8A C87A 1_555 1_555
N9A C91A 1_555 1_555
N10A C98A 1_555 1_555
N11_2 C102_2 1_555 1_555
N12_2 C109_2 1_555 1_555
N13A C113A 1_555 1_555
N14A C120A 1_555 1_555
N15_2 O54_2 1_555 1_555
N16_2 C131_2 1_555 1_555
N17A C135A 1_555 1_555
N18A C142A 1_555 1_555
C80A H99A 1_555 1_555
C81A C80A 1_555 1_555
H100A C81A 1_555 1_555
C82A C81A 1_555 1_555
C83A C82A 1_555 1_555
H101A C83A 1_555 1_555
C84A N7A 1_555 1_555
H102A C84A 1_555 1_555
C85A C82A 1_555 1_555
C86A C85A 1_555 1_555
H103A C86A 1_555 1_555
C87A C86A 1_555 1_555
H104A C87A 1_555 1_555
C88A N8A 1_555 1_555
H105A C88A 1_555 1_555
C89A C85A 1_555 1_555
H106A C89A 1_555 1_555
C90A C90 1_555 1_555
H107A C90A 1_555 1_555
H108A C90A 1_555 1_555
C91A H109A 1_555 1_555
C92A C91A 1_555 1_555
H110A C92A 1_555 1_555
C93A C92A 1_555 1_555
C94A C93A 1_555 1_555
H111A C94A 1_555 1_555
C95A N9A 1_555 1_555
H112A C95A 1_555 1_555
C96A C93A 1_555 1_555
C97A C96A 1_555 1_555
H113A C97A 1_555 1_555
C98A C97A 1_555 1_555
H114A C98A 1_555 1_555
C99A N10A 1_555 1_555
H115A C99A 1_555 1_555
C100A C96A 1_555 1_555
H116A C100A 1_555 1_555
C101A C101 1_555 1_555
H117A C101A 1_555 1_555
H118A C101A 1_555 1_555
C102_2 H119_2 1_555 1_555
C103_2 C102_2 1_555 1_555
H120_2 C103_2 1_555 1_555
C104_2 C103_2 1_555 1_555
C105_2 C104_2 1_555 1_555
H121_2 C105_2 1_555 1_555
C106_2 N11_2 1_555 1_555
H122_2 C106_2 1_555 1_555
C107_2 C104_2 1_555 1_555
C108_2 C107_2 1_555 1_555
H123_2 C108_2 1_555 1_555
C109_2 C108_2 1_555 1_555
H124_2 C109_2 1_555 1_555
C110_2 N12_2 1_555 1_555
H125_2 C110_2 1_555 1_555
C111_2 C107_2 1_555 1_555
H126_2 C111_2 1_555 1_555
C112_2 N12_2 1_555 1_555
H127_2 C112_2 1_555 1_555
H128_2 C112_2 1_555 1_555
C113A H129A 1_555 1_555
C114A C113A 1_555 1_555
H130A C114A 1_555 1_555
C115A C114A 1_555 1_555
C116A C115A 1_555 1_555
H131A C116A 1_555 1_555
C117A N13A 1_555 1_555
H132A C117A 1_555 1_555
C118A C115A 1_555 1_555
C119A C118A 1_555 1_555
H133A C119A 1_555 1_555
C120A C119A 1_555 1_555
H134A C120A 1_555 1_555
C121A N14A 1_555 1_555
H135A C121A 1_555 1_555
C122A C118A 1_555 1_555
H136A C122A 1_555 1_555
C123A C123 1_555 1_555
H137A C123A 1_555 1_555
H138A C123A 1_555 1_555
C124_2 N15_2 1_555 1_555
H139_2 C124_2 1_555 1_555
C125_2 C124_2 1_555 1_555
H140_2 C125_2 1_555 1_555
C126_2 C125_2 1_555 1_555
C127_2 C126_2 1_555 1_555
H141_2 C127_2 1_555 1_555
C128_2 N15_2 1_555 1_555
H142_2 C128_2 1_555 1_555
C129_2 C126_2 1_555 1_555
C130_2 C129_2 1_555 1_555
H143_2 C130_2 1_555 1_555
C131_2 C130_2 1_555 1_555
H144_2 C131_2 1_555 1_555
C132_2 N16_2 1_555 1_555
H145_2 C132_2 1_555 1_555
C133_2 C129_2 1_555 1_555
H146_2 C133_2 1_555 1_555
C134_2 N16_2 1_555 1_555
H147_2 C134_2 1_555 1_555
H148_2 C134_2 1_555 1_555
C135A H149A 1_555 1_555
C136A C135A 1_555 1_555
H150A C136A 1_555 1_555
C137A C136A 1_555 1_555
C138A C137A 1_555 1_555
H151A C138A 1_555 1_555
C139A N17A 1_555 1_555
H152A C139A 1_555 1_555
C140A C137A 1_555 1_555
C141A C140A 1_555 1_555
H153A C141A 1_555 1_555
C142A C141A 1_555 1_555
H154A C142A 1_555 1_555
C143A N18A 1_555 1_555
H155A C143A 1_555 1_555
C144A C140A 1_555 1_555
H156A C144A 1_555 1_555
C145A C145 1_555 1_555
H157A C145A 1_555 1_555
H158A C145A 1_555 1_555
S8A O56A 1_555 1_555
O56A Yb1A 1_555 1_555
O57A S8A 1_555 1_555
O58A S8A 1_555 1_555
C146A S8A 1_555 1_555
F22A C146A 1_555 1_555
F23A C146A 1_555 1_555
F24A C146A 1_555 1_555
C5 C6 1_555 1_555
C17 C18 1_555 1_555
C29 C30 1_555 1_555
C35 C36 1_555 1_555
C41 C42 1_555 1_555
C53 C54 1_555 1_555
C83 C84 1_555 1_555
C88 C89 1_555 1_555
C94 C95 1_555 1_555
C99 C100 1_555 1_555
C105 C106 1_555 1_555
C110 C111 1_555 1_555
C112 C134 1_555 1_555
C116 C117 1_555 1_555
C121 C122 1_555 1_555
C127 C128 1_555 1_555
C132 C133 1_555 1_555
C138 C139 1_555 1_555
C143 C144 1_555 1_555
O3A C11A 1_555 1_555
O4A C12A 1_555 1_555
C5A C6A 1_555 1_555
O15A C47A 1_555 1_555
O16A C48A 1_555 1_555
C41A C42A 1_555 1_555
O19A C59A 1_555 1_555
O20A C60A 1_555 1_555
C53A C54A 1_555 1_555
N8A C90A 1_555 1_555
N10A C101A 1_555 1_555
N14A C123A 1_555 1_555
N18A C145A 1_555 1_555
C83A C84A 1_555 1_555
C88A C89A 1_555 1_555
C94A C95A 1_555 1_555
C99A C100A 1_555 1_555
C105_2 C106_2 1_555 1_555
C110_2 C111_2 1_555 1_555
C112_2 C134_2 1_555 1_555
C116A C117A 1_555 1_555
C121A C122A 1_555 1_555
C127_2 C128_2 1_555 1_555
C132_2 C133_2 1_555 1_555
C138A C139A 1_555 1_555
C143A C144A 1_555 1_555

#END
