
#######################################################################
#
#                 Cambridge Crystallographic Data Centre
#                                CCDC 
#
#######################################################################
#
# If this CIF has been generated from an entry in the Cambridge 
# Structural Database, then it will include bibliographic, chemical, 
# crystal, experimental, refinement or atomic coordinate data resulting 
# from the CCDC's data processing and validation procedures.
#
#######################################################################

data_FEVNEA
_symmetry_cell_setting           triclinic
_symmetry_space_group_name_H-M   'P -1'
_symmetry_Int_Tables_number      2
_space_group_name_Hall           '-P 1'
loop_
_symmetry_equiv_pos_site_id
_symmetry_equiv_pos_as_xyz
1 x,y,z
2 -x,-y,-z
_cell_length_a                   17.5661(13)
_cell_length_b                   23.4327(13)
_cell_length_c                   27.0910(17)
_cell_angle_alpha                78.0860(10)
_cell_angle_beta                 80.5090(10)
_cell_angle_gamma                74.0460(10)
_cell_volume                     10421.2
loop_
_atom_site_label
_atom_site_type_symbol
_atom_site_fract_x
_atom_site_fract_y
_atom_site_fract_z
O6 O -0.9216(8) 0.0283(4) 0.6561(5)
O7 O -1.1909(7) 0.1587(5) 0.6816(4)
O8 O -1.2145(6) 0.2373(4) 0.7534(5)
O9 O -1.0317(13) 0.1376(7) 0.6202(6)
O10 O -1.1388(7) 0.2282(4) 0.8296(4)
O11 O -1.0143(10) 0.1216(7) 0.8714(5)
O12 O -0.8689(9) 0.0879(4) 0.8134(6)
O13 O -0.8414(7) 0.0142(8) 0.7300(7)
C45 C -0.8386(8) -0.0360(6) 0.7152(6)
C46 C -0.7996(9) -0.0933(8) 0.7374(6)
H43 H -0.7706 -0.0982 0.7653
C47 C -0.8032(10) -0.1435(5) 0.7189(8)
H44 H -0.7766 -0.1827 0.7341
C48 C -0.8457(10) -0.1364(5) 0.6782(8)
H45 H -0.8482 -0.1707 0.6655
C49 C -0.8847(8) -0.0791(7) 0.6559(6)
H46 H -0.9138 -0.0742 0.6281
C50 C -0.8812(7) -0.0289(4) 0.6745(5)
C51 C -0.9595(13) 0.0410(15) 0.6064(8)
H47 H -0.9208 0.0225 0.5797
H48 H -1.0068 0.0244 0.6118
C52 C -0.9825(16) 0.1065(13) 0.5917(8)
H49 H -0.9332 0.1208 0.5860
H50 H -1.0036 0.1154 0.5585
C53 C -1.0989(14) 0.1253(16) 0.6091(8)
H51 H -1.1024 0.0846 0.6270
H52 H -1.0944 0.1254 0.5721
C54 C -1.178(3) 0.1738(9) 0.6254(11)
H53 H -1.1714 0.2152 0.6146
H54 H -1.2242 0.1705 0.6102
C55 C -1.2634(12) 0.1823(10) 0.7113(12)
H55 H -1.2648 0.1594 0.7464
H56 H -1.3099 0.1802 0.6961
C56 C -1.2642(14) 0.2458(8) 0.7112(11)
H57 H -1.3190 0.2705 0.7188
H58 H -1.2396 0.2642 0.6784
C57 C -1.2078(10) 0.2898(6) 0.7681(8)
C58 C -1.2387(11) 0.3473(8) 0.7399(9)
H59 H -1.2681 0.3504 0.7126
C59 C -1.2275(12) 0.3980(7) 0.7511(12)
H60 H -1.2458 0.4362 0.7308
C60 C -1.1893(9) 0.3926(8) 0.7920(11)
H61 H -1.1843 0.4275 0.8025
C61 C -1.1584(9) 0.3374(8) 0.8177(8)
H62 H -1.1287 0.3346 0.8448
C62 C -1.1676(8) 0.2841(6) 0.8067(7)
C63 C -1.1044(17) 0.2206(11) 0.8765(8)
H63 H -1.0598 0.2404 0.8700
H64 H -1.1452 0.2402 0.9018
C64 C -1.076(2) 0.1589(11) 0.8962(7)
H65 H -1.0612 0.1567 0.9303
H66 H -1.1223 0.1408 0.9014
C65 C -0.9448(19) 0.122(2) 0.8876(13)
H67 H -0.9341 0.1620 0.8761
H68 H -0.9500 0.1135 0.9251
C66 C -0.8847(15) 0.0806(8) 0.8696(9)
H69 H -0.8953 0.0405 0.8828
H70 H -0.8359 0.0812 0.8831
C67 C -0.7942(12) 0.032(2) 0.7868(14)
H71 H -0.7545 0.0512 0.7639
H72 H -0.7666 0.0029 0.8140
C68 C -0.822(5) 0.0085(16) 0.7645(14)
H73 H -0.7845 -0.0318 0.7665
H74 H -0.8698 0.0021 0.7880
O14 O -0.6395(6) 0.4202(8) 0.0513(3)
O15 O -0.5976(5) 0.4909(7) 0.1161(3)
O16 O -0.6000(6) 0.6081(7) 0.0807(3)
O17 O -0.5628(8) 0.3842(11) -0.0331(4)
C69 C -0.6455(11) 0.3968(15) -0.0280(6)
C70 C -0.6878(11) 0.3869(13) -0.0624(5)
H75 H -0.6608 0.3720 -0.0924
C71 C -0.7728(10) 0.3991(10) -0.0528(8)
H76 H -0.8024 0.3942 -0.0773
C72 C -0.8115(11) 0.4175(10) -0.0091(7)
H77 H -0.8680 0.4269 -0.0035
C73 C -0.7674(9) 0.4227(9) 0.0277(6)
H78 H -0.7938 0.4335 0.0592
C74 C -0.6856(9) 0.4120(11) 0.0181(6)
C75 C -0.6781(9) 0.4274(10) 0.1011(5)
H79 H -0.6971 0.3913 0.1179
H80 H -0.7242 0.4630 0.0995
C76 C -0.6168(10) 0.4356(10) 0.1296(5)
H81 H -0.6363 0.4301 0.1663
H82 H -0.5675 0.4035 0.1247
C77 C -0.6515(8) 0.5357(10) 0.1385(5)
H83 H -0.6652 0.5200 0.1748
H84 H -0.7010 0.5483 0.1218
C78 C -0.6173(9) 0.5892(10) 0.1341(5)
H85 H -0.6563 0.6218 0.1496
H86 H -0.5682 0.5776 0.1511
C79 C -0.5657(12) 0.6594(14) 0.0703(7)
H87 H -0.5945 0.6873 0.0940
H88 H -0.5750 0.6808 0.0354
C80 C -0.5221(13) 0.3544(18) -0.0747(7)
H89 H -0.5385 0.3168 -0.0729
H90 H -0.5346 0.3808 -0.1074
O14A O -0.3605(6) 0.5798(8) -0.0513(3)
O15A O -0.4024(5) 0.5091(7) -0.1161(3)
O16A O -0.4000(6) 0.3919(7) -0.0807(3)
O17A O -0.4372(8) 0.6158(11) 0.0331(4)
C69A C -0.3545(11) 0.6032(15) 0.0280(6)
C70A C -0.3122(11) 0.6131(13) 0.0624(5)
H75A H -0.3392 0.6280 0.0924
C71A C -0.2272(10) 0.6009(10) 0.0528(8)
H76A H -0.1976 0.6058 0.0773
C72A C -0.1885(11) 0.5825(10) 0.0091(7)
H77A H -0.1320 0.5731 0.0035
C73A C -0.2326(9) 0.5773(9) -0.0277(6)
H78A H -0.2062 0.5665 -0.0592
C74A C -0.3144(9) 0.5880(11) -0.0181(6)
C75A C -0.3219(9) 0.5726(10) -0.1011(5)
H79A H -0.3029 0.6087 -0.1179
H80A H -0.2758 0.5370 -0.0995
C76A C -0.3832(10) 0.5644(10) -0.1296(5)
H81A H -0.3637 0.5699 -0.1663
H82A H -0.4325 0.5965 -0.1247
C77A C -0.3485(8) 0.4643(10) -0.1385(5)
H83A H -0.3348 0.4800 -0.1748
H84A H -0.2990 0.4517 -0.1218
C78A C -0.3827(9) 0.4108(10) -0.1341(5)
H85A H -0.3437 0.3782 -0.1496
H86A H -0.4318 0.4224 -0.1511
C79A C -0.4343(12) 0.3406(14) -0.0703(7)
H87A H -0.4055 0.3127 -0.0940
H88A H -0.4250 0.3192 -0.0354
C80A C -0.4779(13) 0.6456(18) 0.0747(7)
H89A H -0.4615 0.6832 0.0729
H90A H -0.4654 0.6192 0.1074
S2 S 0.9168(3) 0.4047(3) 0.91683(16)
O21 O 0.9637(10) 0.3603(8) 0.8830(4)
O22 O 0.8677(7) 0.4578(6) 0.8922(6)
O23 O 0.8800(6) 0.3771(5) 0.9623(3)
C82 C 0.9904(11) 0.4303(8) 0.9364(6)
F4 F 0.9671(11) 0.4676(8) 0.9610(8)
F5 F 1.0417(8) 0.3839(6) 0.9611(5)
F6 F 1.0423(6) 0.4459(5) 0.8971(5)
S3 S -0.5817(3) 0.5101(4) 0.75351(16)
O24 O -0.5766(10) 0.4655(13) 0.8016(5)
O25 O -0.5505(8) 0.4873(12) 0.7075(4)
O26 O -0.6555(6) 0.5498(8) 0.7524(4)
C83 C -0.5166(13) 0.558(2) 0.7603(12)
F7 F -0.4387(10) 0.5168(18) 0.7547(5)
F8 F -0.5302(15) 0.5718(18) 0.8001(6)
F9 F -0.5227(13) 0.6020(17) 0.7166(7)
S4 S -0.0588(5) 0.8990(4) 0.5775(4)
O27 O -0.1151(10) 0.8969(9) 0.5439(7)
O28 O -0.023(2) 0.9456(16) 0.5521(16)
O29 O -0.0891(13) 0.8985(13) 0.6290(8)
C84 C 0.0032(14) 0.8305(16) 0.5788(9)
F10 F 0.0431(13) 0.8226(13) 0.5327(7)
F11 F 0.0553(17) 0.8117(12) 0.6102(10)
F12 F -0.0249(12) 0.7871(8) 0.5945(8)
S5 S -0.8715(4) 0.8835(3) 0.9322(2)
O30 O -0.8604(14) 0.9384(9) 0.8971(6)
O31 O -0.9412(12) 0.8675(10) 0.9213(7)
O32 O -0.8510(13) 0.8595(10) 0.9784(6)
C85 C -0.7989(15) 0.8272(11) 0.9010(10)
F13 F -0.7341(13) 0.8227(13) 0.9071(15)
F14 F -0.8148(17) 0.7731(10) 0.9169(14)
F15 F -0.8168(17) 0.8384(13) 0.8539(10)
S6 S -0.1174(6) 0.3579(4) 0.5671(2)
O33 O -0.0556(18) 0.3875(9) 0.5855(5)
O34 O -0.1603(9) 0.3236(7) 0.6109(5)
O35 O -0.1463(18) 0.4069(11) 0.5281(8)
C86 C -0.057(2) 0.3028(18) 0.5337(12)
F16 F -0.124(2) 0.2936(16) 0.5180(10)
F17 F -0.0112(12) 0.3264(8) 0.4959(5)
F18 F -0.0064(12) 0.2684(8) 0.5626(6)
S7 S -0.8046(7) 0.2260(5) 0.8862(5)
O36 O -0.816(2) 0.2419(19) 0.9379(9)
O37 O -0.7290(17) 0.1831(16) 0.8783(10)
O38 O -0.867(2) 0.219(2) 0.8642(11)
C87 C -0.7831(14) 0.2876(10) 0.8423(11)
F19 F -0.762(2) 0.2763(18) 0.8019(9)
F20 F -0.7242(19) 0.3024(18) 0.8589(11)
F21 F -0.8388(18) 0.3362(13) 0.8502(11)
N9 N -0.987(2) 0.2886(8) 0.0502(7)
C88 C -0.9959(19) 0.2636(8) 0.0200(7)
C89 C -1.0054(13) 0.2367(8) -0.0195(6)
H91 H -1.0189 0.1984 -0.0044
H92 H -0.9577 0.2293 -0.0441
H93 H -1.0499 0.2639 -0.0367
N10 N -0.803(3) 0.466(2) 0.7257(17)
C90 C -0.780(3) 0.4222(17) 0.7076(17)
C91 C -0.734(6) 0.375(2) 0.683(2)
H94 H -0.7020 0.3935 0.6541
H95 H -0.7013 0.3546 0.7101
H96 H -0.7550 0.3456 0.6713
N11 N -0.573(5) 0.3274(18) 0.822(2)
C92 C -0.519(8) 0.339(5) 0.793(7)
C93 C -0.474(4) 0.378(6) 0.763(2)
H97 H -0.5088 0.4007 0.7365
H98 H -0.4252 0.3536 0.7465
H99 H -0.4612 0.4052 0.7806
O39 O 0.4937(11) 0.7686(8) 0.3305(6)
O40 O -0.7929(19) 0.6963(8) 0.7800(12)
O41 O 0.578(2) 0.9773(15) 0.2721(11)
O42 O -0.487(4) 0.2196(15) 0.3208(19)
O43 O 0.088(3) 0.014(2) 0.053(2)
O44 O -0.143(5) 0.090(3) 0.494(3)
H136 H 0.2626 0.0651 0.1713
O80 O 0.299(6) 0.076(4) 0.196(2)
H139 H 0.1694 0.1123 0.0120
O79 O 0.165(2) 0.092(2) -0.0075(14)
S8 S 0.4989(5) 0.1285(4) 0.1962(3)
O55 O 0.5595(14) 0.1067(12) 0.1538(10)
O56 O 0.4420(14) 0.1824(11) 0.1827(9)
O57 O 0.463(2) 0.0857(15) 0.2274(12)
C140 C 0.5484(17) 0.1406(15) 0.2427(10)
F22 F 0.6165(16) 0.1367(12) 0.2339(11)
F23 F 0.548(2) 0.0987(16) 0.2851(11)
F24 F 0.504(2) 0.1845(14) 0.2658(13)
Cl2 Cl -0.700(3) 0.191(4) 0.756(2)
Cl3 Cl -0.779(5) 0.200(2) 0.687(3)
N16 N -0.6078(19) 0.6761(13) 0.9172(12)
C141 C -0.5714(17) 0.7104(14) 0.9191(12)
C142 C -0.520(2) 0.7433(15) 0.9255(15)
H152 H -0.4765 0.7440 0.8975
H153 H -0.4968 0.7248 0.9574
H154 H -0.5505 0.7846 0.9278
N17 N -0.143(6) 0.561(3) 0.392(5)
C143 C -0.150(3) 0.605(3) 0.4084(19)
C144 C -0.152(3) 0.666(2) 0.406(3)
H155 H -0.1505 0.6704 0.4412
H156 H -0.2008 0.6928 0.3936
H157 H -0.1054 0.6764 0.3847
O58 O -0.388(3) 0.605(3) 0.4287(16)
O59 O -0.435(5) 0.252(2) 0.831(2)
O60 O -0.411(3) 0.1621(15) 0.9643(15)
S9 S 0.4380(12) 0.8829(9) 0.3355(9)
O71 O 0.493(2) 0.9066(16) 0.3587(15)
O72 O 0.397(2) 0.8451(15) 0.3708(13)
O73 O 0.458(2) 0.8650(15) 0.2875(13)
C191 C 0.3655(16) 0.9493(10) 0.3158(10)
F25 F 0.392(3) 0.9849(12) 0.2856(14)
F26 F 0.327(3) 0.9770(16) 0.3543(14)
F27 F 0.3055(18) 0.9373(16) 0.3004(16)
O76 O 0.210(2) 0.0471(15) 0.1389(11)
N23 N -0.820(3) 0.448(3) 0.447(3)
C195 C -0.885(3) 0.443(4) 0.449(2)
C196 C -0.956(2) 0.4366(19) 0.4365(15)
H213 H -0.9738 0.4021 0.4572
H214 H -0.9520 0.4341 0.4004
H215 H -0.9942 0.4741 0.4433
O78 O 0.577(3) 0.217(2) 0.1959(13)
O82 O -0.5656(11) 0.1676(8) 0.4745(12)
O83 O -0.422(2) 0.117(4) 0.404(3)
O84 O -0.3383(13) 0.0102(17) 0.4150(10)
O85 O -0.6702(14) 0.1165(10) 0.5463(9)
C198 C -0.7068(16) 0.1696(7) 0.5105(7)
C199 C -0.7865(14) 0.2000(10) 0.5088(8)
H216 H -0.8264 0.1860 0.5325
C200 C -0.8080(12) 0.2509(10) 0.4722(9)
H217 H -0.8625 0.2717 0.4710
C201 C -0.7497(17) 0.2714(7) 0.4374(7)
H218 H -0.7644 0.3062 0.4125
C202 C -0.6700(14) 0.2410(9) 0.4392(7)
H219 H -0.6301 0.2550 0.4154
C203 C -0.6485(12) 0.1901(9) 0.4757(9)
C204 C -0.524(3) 0.1969(17) 0.4508(19)
H220 H -0.4973 0.2084 0.4753
H221 H -0.5590 0.2345 0.4344
C205 C -0.466(6) 0.176(4) 0.414(4)
H222 H -0.4239 0.1961 0.4106
H223 H -0.4896 0.1886 0.3825
C206 C -0.350(3) 0.1132(18) 0.4186(19)
H224 H -0.3266 0.1466 0.3995
C207 C -0.301(3) 0.0547(18) 0.406(2)
H226 H -0.2548 0.0416 0.4261
H227 H -0.2799 0.0607 0.3698
C208 C -0.301(2) -0.0318(16) 0.3894(15)
H228 H -0.3400 -0.0479 0.3774
H229 H -0.2700 -0.0133 0.3597
C209 C -0.7320(18) 0.0889(15) 0.5779(16)
H230 H -0.7662 0.1176 0.5995
H231 H -0.7661 0.0815 0.5554
O82A O -0.4344(11) -0.1676(8) 0.5255(12)
O83A O -0.578(2) -0.117(4) 0.596(3)
O84A O -0.6617(13) -0.0102(17) 0.5850(10)
O85A O -0.3298(14) -0.1165(10) 0.4537(9)
C198A C -0.2932(16) -0.1696(7) 0.4895(7)
C199A C -0.2135(14) -0.2000(10) 0.4912(8)
H216A H -0.1736 -0.1860 0.4675
C200A C -0.1920(12) -0.2509(10) 0.5278(9)
H217A H -0.1375 -0.2717 0.5290
C201A C -0.2503(17) -0.2714(7) 0.5626(7)
H218A H -0.2356 -0.3062 0.5875
C202A C -0.3300(14) -0.2410(9) 0.5608(7)
H219A H -0.3699 -0.2550 0.5846
C203A C -0.3515(12) -0.1901(9) 0.5243(9)
C204A C -0.476(3) -0.1969(17) 0.5492(19)
H220A H -0.5027 -0.2084 0.5247
H221A H -0.4410 -0.2345 0.5656
C205A C -0.534(6) -0.176(4) 0.586(4)
H222A H -0.5761 -0.1961 0.5894
H223A H -0.5104 -0.1886 0.6175
C206A C -0.650(3) -0.1132(18) 0.5814(19)
H224A H -0.6734 -0.1466 0.6005
C207A C -0.699(3) -0.0547(18) 0.594(2)
H226A H -0.7452 -0.0416 0.5739
H227A H -0.7201 -0.0607 0.6302
C208A C -0.699(2) 0.0318(16) 0.6106(15)
H228A H -0.6600 0.0479 0.6226
H229A H -0.7300 0.0133 0.6403
C209A C -0.2680(18) -0.0889(15) 0.4221(16)
H230A H -0.2338 -0.1176 0.4005
H231A H -0.2339 -0.0815 0.4446
Sm1 Sm -0.92122(2) 0.368150(17) 0.224460(14)
O1 O -0.8606(5) 0.4519(5) 0.1873(3)
H1 H -0.8653 0.4765 0.2124
H2 H -0.8053 0.4363 0.1762
O2 O -0.9824(6) 0.4405(3) 0.2761(3)
N1 N -0.9890(6) 0.4991(3) 0.2742(3)
C1 C -0.9661(9) 0.5140(4) 0.3139(4)
H3 H -0.9452 0.4838 0.3409
C2 C -0.9733(8) 0.5731(4) 0.3147(4)
H4 H -0.9603 0.5838 0.3437
C3 C -0.9990(5) 0.6181(3) 0.2749(3)
C4 C -1.0179(7) 0.6001(4) 0.2340(5)
H5 H -1.0343 0.6288 0.2050
C5 C -1.0128(9) 0.5397(5) 0.2357(5)
C6 C -1.0006(6) 0.6804(4) 0.2755(4)
C7 C -0.9594(7) 0.6955(4) 0.3071(4)
H7 H -0.9285 0.6652 0.3301
C8 C -0.9632(8) 0.7562(5) 0.3055(4)
H8 H -0.9347 0.7663 0.3280
N2 N -1.0041(5) 0.7997(3) 0.2744(4)
C9 C -1.0417(9) 0.7854(4) 0.2413(6)
H9 H -1.0683 0.8164 0.2168
C10 C -1.0423(8) 0.7269(4) 0.2419(6)
H10 H -1.0716 0.7181 0.2192
C11 C -1.0058(9) 0.8621(4) 0.2760(6)
H11 H -0.9956 0.8654 0.3100
H12 H -1.0590 0.8886 0.2693
O3 O -1.0116(5) 0.4353(3) 0.1739(4)
N3 N -1.0744(7) 0.4369(4) 0.1524(4)
C12 C -1.1454(9) 0.4613(7) 0.1719(5)
H13 H -1.1523 0.4774 0.2023
C13 C -1.2084(8) 0.4639(9) 0.1496(5)
H14 H -1.2599 0.4796 0.1659
C14 C -1.2027(7) 0.4449(7) 0.1041(4)
C15 C -1.1300(7) 0.4189(6) 0.0844(5)
H15 H -1.1226 0.4044 0.0533
C16 C -1.0649(7) 0.4131(5) 0.1099(6)
H16 H -1.0133 0.3922 0.0972
C17 C -1.2739(7) 0.4515(9) 0.0776(4)
C18 C -1.2684(8) 0.4441(10) 0.0298(4)
H17 H -1.2173 0.4372 0.0106
C19 C -1.3351(7) 0.4460(11) 0.0061(4)
H18 H -1.3296 0.4347 -0.0262
N4 N -1.4081(6) 0.4649(10) 0.0324(4)
C20 C -1.4163(8) 0.4753(11) 0.0797(5)
H19 H -1.4680 0.4887 0.0967
C21 C -1.3507(7) 0.4670(11) 0.1038(4)
H20 H -1.3571 0.4717 0.1384
C22 C -1.4809(9) 0.4673(13) 0.0084(6)
H21 H -1.4654 0.4459 -0.0210
H22 H -1.5183 0.4481 0.0333
O4 O -1.0024(6) 1.3154(3) 0.2003(4)
N5 N -0.9992(7) 1.2565(3) 0.2085(4)
C23 C -1.0040(12) 1.2345(5) 0.1666(6)
H23 H -1.0105 1.2600 0.1346
C24 C -0.9989(12) 1.1731(5) 0.1727(6)
C25 C -0.9856(9) 1.1359(4) 0.2182(5)
C26 C -0.9830(7) 1.1612(4) 0.2591(5)
H25 H -0.9762 1.1372 0.2917
C27 C -0.9906(7) 1.2233(4) 0.2513(5)
H26 H -0.9893 1.2412 0.2795
C28 C -0.9739(7) 1.0693(4) 0.2240(4)
C29 C -1.0068(10) 1.0474(5) 0.1907(5)
H27 H -1.0359 1.0735 0.1646
C30 C -0.9947(9) 0.9848(5) 0.1976(5)
H28 H -1.0159 0.9682 0.1754
N6 N -0.9550(6) 0.9480(3) 0.2338(4)
C31 C -0.9221(8) 0.9679(4) 0.2643(5)
H29 H -0.8906 0.9407 0.2887
C32 C -0.9338(8) 1.0293(4) 0.2606(5)
H30 H -0.9131 1.0440 0.2844
C33 C -0.9435(9) 0.8814(4) 0.2366(5)
H31 H -0.9487 0.8727 0.2033
H32 H -0.8897 0.8594 0.2460
O5 O -0.8473(4) 0.2656(3) 0.2400(2)
N7 N -0.8059(4) 0.2292(4) 0.2755(3)
C34 C -0.8249(7) 0.2294(8) 0.3219(5)
H33 H -0.8715 0.2581 0.3323
C35 C -0.7818(7) 0.1898(8) 0.3597(5)
H34 H -0.7988 0.1923 0.3945
C36 C -0.7158(7) 0.1480(6) 0.3462(6)
C37 C -0.7039(13) 0.1443(8) 0.2974(10)
H35 H -0.6634 0.1116 0.2866
C38 C -0.7475(11) 0.1859(7) 0.2603(7)
H36 H -0.7348 0.1827 0.2253
C39 C -0.6642(7) 0.1057(6) 0.3825(6)
C40 C -0.6937(9) 0.0885(10) 0.4296(8)
H37 H -0.7487 0.1037 0.4401
C41 C -0.6450(10) 0.0479(8) 0.4645(8)
H38 H -0.6684 0.0353 0.4977
N8 N -0.5719(9) 0.0279(5) 0.4531(7)
C42 C -0.5411(11) 0.0474(10) 0.4089(10)
H39 H -0.4851 0.0344 0.4005
C43 C -0.5853(11) 0.0861(9) 0.3733(9)
H40 H -0.5593 0.0995 0.3411
C44 C -0.5209(10) -0.0146(6) 0.4883(8)
H41 H -0.5538 -0.0362 0.5149
H42 H -0.4821 -0.0448 0.4699
S1 S -0.7585(2) 0.3882(2) 0.28446(17)
O18 O -0.8140(5) 0.3614(5) 0.2735(3)
O19 O -0.7475(5) 0.4408(5) 0.2478(4)
O20 O -0.7674(11) 0.3979(13) 0.3393(5)
C81 C -0.6723(14) 0.3368(11) 0.2850(9)
F1 F -0.6074(9) 0.3552(9) 0.2936(9)
F2 F -0.6464(9) 0.3252(7) 0.2383(8)
F3 F -0.6643(7) 0.2818(7) 0.3105(6)
N12 N -1.049(3) 0.3481(19) 0.3262(15)
C94 C -1.059(3) 0.363(2) 0.374(2)
H100 H -1.0138 0.3557 0.3918
C95 C -1.1299(15) 0.3865(11) 0.3944(8)
H101 H -1.1346 0.4008 0.4254
C96 C -1.2010(12) 0.3922(10) 0.3730(10)
C97 C -1.194(2) 0.3748(13) 0.3249(13)
H102 H -1.2402 0.3781 0.3094
C98 C -1.1190(17) 0.3530(11) 0.3012(10)
H103 H -1.1127 0.3412 0.2690
C99 C -1.2787(10) 0.4156(11) 0.4013(6)
C100 C -1.2882(13) 0.4107(13) 0.4532(8)
H104 H -1.2453 0.3875 0.4718
C101 C -1.3571(11) 0.4382(14) 0.4784(7)
H105 H -1.3600 0.4382 0.5138
N13 N -1.4217(9) 0.4655(10) 0.4537(6)
C102 C -1.4201(14) 0.4655(13) 0.4020(8)
C103 C -1.3466(11) 0.4440(11) 0.3750(7)
H107 H -1.3418 0.4484 0.3391
C104 C -1.497(2) 0.4940(19) 0.4851(8)
O50 O -0.8812(12) 0.3420(7) 0.1402(5)
N14 N -0.8294(9) 0.3079(7) 0.1171(6)
C117 C -0.8416(8) 0.2919(7) 0.0729(6)
H126 H -0.8909 0.3089 0.0592
C118 C -0.7816(9) 0.2510(7) 0.0489(6)
H127 H -0.7898 0.2401 0.0186
C119 C -0.7094(8) 0.2261(6) 0.0690(6)
C120 C -0.6973(8) 0.2420(7) 0.1131(6)
H128 H -0.6480 0.2250 0.1269
C121 C -0.7573(11) 0.2830(8) 0.1372(5)
H129 H -0.7490 0.2939 0.1674
C122 C -0.6485(14) 0.1788(14) 0.0431(12)
C123 C -0.5953(17) 0.1381(15) 0.0718(14)
H130 H -0.5920 0.1444 0.1049
C124 C -0.5443(15) 0.0863(18) 0.0539(12)
H131 H -0.5076 0.0575 0.0744
N15 N -0.5503(11) 0.0795(10) 0.0054(9)
C125 C -0.5965(14) 0.1221(14) -0.0237(11)
H132 H -0.5932 0.1193 -0.0585
C126 C -0.6488(17) 0.1701(12) -0.0063(9)
H133 H -0.6853 0.1976 -0.0276
C127 C -0.493(3) 0.024(2) -0.0147(17)
H134 H -0.5096 0.0215 -0.0465
H135 H -0.4423 0.0346 -0.0214
H159 H -0.8002 0.2201 0.0645
O66 O -0.983(2) 0.3252(11) 0.3046(9)
Sm1_2 Sm -0.92122(2) -0.631850(17) 0.224460(14)
Sm1_3 Sm -0.92122(2) 1.368150(17) 0.224460(14)
Sm1A Sm -2.07878(2) 0.631850(17) -0.224460(14)
Sm1A_2 Sm -0.07878(2) -0.368150(17) 0.775540(14)
Sm1A_3 Sm -2.07878(2) 0.631850(17) 0.775540(14)
Sm1A_4 Sm -0.07878(2) -0.368150(17) -0.224460(14)
O1_2 O -0.8606(5) -0.5481(5) 0.1873(3)
H1_2 H -0.8653 -0.5235 0.2124
H2_2 H -0.8053 -0.5637 0.1762
O2_2 O -0.9824(6) -0.5595(3) 0.2761(3)
N1_2 N -0.9890(6) -0.5009(3) 0.2742(3)
C1_2 C -0.9661(9) -0.4860(4) 0.3139(4)
H3_2 H -0.9452 -0.5162 0.3409
C2_2 C -0.9733(8) -0.4269(4) 0.3147(4)
H4_2 H -0.9603 -0.4162 0.3437
C3_2 C -0.9990(5) -0.3819(3) 0.2749(3)
C4_2 C -1.0179(7) -0.3999(4) 0.2340(5)
H5_2 H -1.0343 -0.3712 0.2050
C5_2 C -1.0128(9) -0.4603(5) 0.2357(5)
C6_2 C -1.0006(6) -0.3196(4) 0.2755(4)
C7_2 C -0.9594(7) -0.3045(4) 0.3071(4)
H7_2 H -0.9285 -0.3348 0.3301
C8_2 C -0.9632(8) -0.2438(5) 0.3055(4)
H8_2 H -0.9347 -0.2337 0.3280
N2_2 N -1.0041(5) -0.2003(3) 0.2744(4)
C9_2 C -1.0417(9) -0.2146(4) 0.2413(6)
H9_2 H -1.0683 -0.1836 0.2168
C10_2 C -1.0423(8) -0.2731(4) 0.2419(6)
H10_2 H -1.0716 -0.2819 0.2192
C11_2 C -1.0058(9) -0.1379(4) 0.2760(6)
H11_2 H -0.9956 -0.1346 0.3100
H12_2 H -1.0590 -0.1114 0.2693
O3A O -1.9884(5) 0.5647(3) -0.1739(4)
O3_2 O -1.0116(5) -0.5647(3) 0.1739(4)
N3A N -1.9256(7) 0.5631(4) -0.1524(4)
C12A C -1.8546(9) 0.5387(7) -0.1719(5)
H13A H -1.8477 0.5226 -0.2023
C13A C -1.7916(8) 0.5361(9) -0.1496(5)
H14A H -1.7401 0.5204 -0.1659
C14A C -1.7973(7) 0.5551(7) -0.1041(4)
C15A C -1.8700(7) 0.5811(6) -0.0844(5)
H15A H -1.8774 0.5956 -0.0533
C16A C -1.9351(7) 0.5869(5) -0.1099(6)
H16A H -1.9867 0.6078 -0.0972
C17A C -1.7261(7) 0.5485(9) -0.0776(4)
C18A C -1.7316(8) 0.5559(10) -0.0298(4)
H17A H -1.7827 0.5628 -0.0106
C19A C -1.6649(7) 0.5540(11) -0.0061(4)
H18A H -1.6704 0.5653 0.0262
N4A N -1.5919(6) 0.5351(10) -0.0324(4)
C20A C -1.5837(8) 0.5247(11) -0.0797(5)
H19A H -1.5320 0.5113 -0.0967
C21A C -1.6493(7) 0.5330(11) -0.1038(4)
H20A H -1.6429 0.5283 -0.1384
C22A C -1.5191(9) 0.5327(13) -0.0084(6)
H21A H -1.5346 0.5541 0.0210
H22A H -1.4817 0.5519 -0.0333
O4_2 O -1.0024(6) 0.3154(3) 0.2003(4)
O4_3 O -1.0024(6) -0.6846(3) 0.2003(4)
N5_2 N -0.9992(7) 0.2565(3) 0.2085(4)
C23_2 C -1.0040(12) 0.2345(5) 0.1666(6)
H23_2 H -1.0105 0.2600 0.1346
C24_2 C -0.9989(12) 0.1731(5) 0.1727(6)
C25_2 C -0.9856(9) 0.1359(4) 0.2182(5)
C26_2 C -0.9830(7) 0.1612(4) 0.2591(5)
H25_2 H -0.9762 0.1372 0.2917
C27_2 C -0.9906(7) 0.2233(4) 0.2513(5)
H26_2 H -0.9893 0.2412 0.2795
C28_2 C -0.9739(7) 0.0693(4) 0.2240(4)
C29_2 C -1.0068(10) 0.0474(5) 0.1907(5)
H27_2 H -1.0359 0.0735 0.1646
C30_2 C -0.9947(9) -0.0152(5) 0.1976(5)
H28_2 H -1.0159 -0.0318 0.1754
N6_2 N -0.9550(6) -0.0520(3) 0.2338(4)
C31_2 C -0.9221(8) -0.0321(4) 0.2643(5)
H29_2 H -0.8906 -0.0593 0.2887
C32_2 C -0.9338(8) 0.0293(4) 0.2606(5)
H30_2 H -0.9131 0.0440 0.2844
C33_2 C -0.9435(9) -0.1186(4) 0.2366(5)
H31_2 H -0.9487 -0.1273 0.2033
H32_2 H -0.8897 -0.1406 0.2460
O5A O -0.1527(4) -0.2656(3) 0.7600(2)
O5_2 O -0.8473(4) -0.7344(3) 0.2400(2)
N7A N -0.1941(4) -0.2292(4) 0.7245(3)
C34A C -0.1751(7) -0.2294(8) 0.6781(5)
H33A H -0.1285 -0.2581 0.6677
C35A C -0.2182(7) -0.1898(8) 0.6403(5)
H34A H -0.2012 -0.1923 0.6055
C36A C -0.2842(7) -0.1480(6) 0.6538(6)
C37A C -0.2961(13) -0.1443(8) 0.7026(10)
H35A H -0.3366 -0.1116 0.7134
C38A C -0.2525(11) -0.1859(7) 0.7397(7)
H36A H -0.2652 -0.1827 0.7747
C39A C -0.3358(7) -0.1057(6) 0.6175(6)
C40A C -0.3063(9) -0.0885(10) 0.5704(8)
H37A H -0.2513 -0.1037 0.5599
C41A C -0.3550(10) -0.0479(8) 0.5355(8)
H38A H -0.3316 -0.0353 0.5023
N8A N -0.4281(9) -0.0279(5) 0.5469(7)
C42A C -0.4589(11) -0.0474(10) 0.5911(10)
H39A H -0.5149 -0.0344 0.5995
C43A C -0.4147(11) -0.0861(9) 0.6267(9)
H40A H -0.4407 -0.0995 0.6589
C44A C -0.4791(10) 0.0146(6) 0.5117(8)
H41A H -0.4462 0.0362 0.4851
H42A H -0.5179 0.0448 0.5301
S1_2 S -0.7585(2) -0.6118(2) 0.28446(17)
O18_2 O -0.8140(5) -0.6386(5) 0.2735(3)
O19_2 O -0.7475(5) -0.5592(5) 0.2478(4)
O20_2 O -0.7674(11) -0.6021(13) 0.3393(5)
C81_2 C -0.6723(14) -0.6632(11) 0.2850(9)
F1_2 F -0.6074(9) -0.6448(9) 0.2936(9)
F2_2 F -0.6464(9) -0.6748(7) 0.2383(8)
F3_2 F -0.6643(7) -0.7182(7) 0.3105(6)
N12A N -1.951(3) 0.6519(19) 0.6738(15)
C94A C -1.941(3) 0.637(2) 0.626(2)
H100A H -1.9862 0.6443 0.6082
C95A C -1.8701(15) 0.6135(11) 0.6056(8)
H101A H -1.8654 0.5992 0.5746
C96A C -1.7990(12) 0.6078(10) 0.6270(10)
C97A C -1.806(2) 0.6252(13) 0.6751(13)
H102A H -1.7598 0.6219 0.6906
C98A C -1.8810(17) 0.6470(11) 0.6988(10)
H103A H -1.8873 0.6588 0.7310
C99A C -1.7213(10) 0.5844(11) 0.5987(6)
C100A C -1.7118(13) 0.5893(13) 0.5468(8)
H104A H -1.7547 0.6125 0.5282
C101A C -1.6429(11) 0.5618(14) 0.5216(7)
H105A H -1.6400 0.5618 0.4862
N13A N -1.5783(9) 0.5345(10) 0.5463(6)
C102A C -1.5799(14) 0.5345(13) 0.5980(8)
C103A C -1.6534(11) 0.5560(11) 0.6250(7)
H107A H -1.6582 0.5516 0.6609
C104A C -1.503(2) 0.5060(19) 0.5149(8)
O50A O -0.1188(12) -0.3420(7) -0.1402(5)
O50_2 O -0.8812(12) -0.6580(7) 0.1402(5)
N14A N -0.1706(9) -0.3079(7) -0.1171(6)
C117A C -0.1584(8) -0.2919(7) -0.0729(6)
H126A H -0.1091 -0.3089 -0.0592
C118A C -0.2184(9) -0.2510(7) -0.0489(6)
H127A H -0.2102 -0.2401 -0.0186
C119A C -0.2906(8) -0.2261(6) -0.0690(6)
C120A C -0.3027(8) -0.2420(7) -0.1131(6)
H128A H -0.3520 -0.2250 -0.1269
C121A C -0.2427(11) -0.2830(8) -0.1372(5)
H129A H -0.2510 -0.2939 -0.1674
C122A C -0.3515(14) -0.1788(14) -0.0431(12)
C123A C -0.4047(17) -0.1381(15) -0.0718(14)
H130A H -0.4080 -0.1444 -0.1049
C124A C -0.4557(15) -0.0863(18) -0.0539(12)
H131A H -0.4924 -0.0575 -0.0744
N15A N -0.4497(11) -0.0795(10) -0.0054(9)
C125A C -0.4035(14) -0.1221(14) 0.0237(11)
H132A H -0.4068 -0.1193 0.0585
C126A C -0.3512(17) -0.1701(12) 0.0063(9)
H133A H -0.3147 -0.1976 0.0276
C127A C -0.507(3) -0.024(2) 0.0147(17)
H134A H -0.4904 -0.0215 0.0465
H135A H -0.5577 -0.0346 0.0214
H159A H -0.1998 -0.2201 -0.0645
O66A O -2.017(2) 0.6748(11) 0.6954(9)
O66_2 O -0.983(2) -0.6748(11) 0.3046(9)
H6? H -0.0272 0.5276 0.2079
H24? H -0.0048 0.1567 0.1447
O45? O -0.976(3) 0.3234(19) 0.3039(17)
H106? H -0.4675 0.4795 0.3859
H108? H -0.4874 0.4909 0.5199
H109? H -0.5175 0.5361 0.4708
O46? O -0.4830(10) 0.3463(8) 0.4394(7)
O47? O -0.627(2) 0.4497(14) 0.4180(8)
O48? O -0.5955(15) 0.5621(12) 0.3912(10)
O49? O -0.6131(14) 0.6297(9) 0.4760(8)
C105? C -0.3608(18) 0.2985(16) 0.4710(12)
C106? C -0.281(2) 0.257(2) 0.4684(14)
H110? H -0.2542 0.2401 0.4977
C107? C -0.249(2) 0.2458(16) 0.4234(17)
H111? H -0.1951 0.2226 0.4202
C108? C -0.285(2) 0.2639(13) 0.383(2)
H112? H -0.2587 0.2545 0.3507
C109? C -0.3732(19) 0.3011(17) 0.3877(15)
H113? H -0.4037 0.3129 0.3597
C110? C -0.4042(17) 0.3157(14) 0.4335(12)
C111? C -0.5277(18) 0.3588(14) 0.3994(13)
H114? H -0.5230 0.3211 0.3867
H115? H -0.5068 0.3869 0.3714
C112? C -0.6161(18) 0.3870(11) 0.4160(10)
H116? H -0.6496 0.3830 0.3915
H117? H -0.6327 0.3656 0.4498
C113? C -0.6432(18) 0.4872(15) 0.3709(9)
H118? H -0.6882 0.4789 0.3583
H119? H -0.5958 0.4801 0.3454
C114? C -0.663(2) 0.5475(16) 0.3797(16)
H120? H -0.7061 0.5526 0.4083
H121? H -0.6831 0.5752 0.3491
C115? C -0.613(2) 0.6308(18) 0.3939(18)
H122? H -0.5615 0.6408 0.3914
H123? H -0.6385 0.6535 0.3631
C116? C -0.659(4) 0.6522(14) 0.434(3)
H124? H -0.7087 0.6383 0.4408
H125? H -0.6733 0.6968 0.4271
O51? O 0.7015(11) 0.9781(11) -0.0153(8)
O52? O 0.668(6) 0.006(5) 0.098(3)
O53? O 0.5080(13) 0.9214(10) 0.1330(8)
O54? O 0.3439(12) 0.9909(9) 0.1080(7)
C128? C 0.2843(9) 0.0429(8) 0.1006(7)
C129? C 0.2437(11) 0.0747(9) 0.1390(6)
C130? C 0.1754(11) 0.1206(8) 0.1301(7)
H137? H 0.1476 0.1423 0.1563
C131? C 0.1477(9) 0.1346(7) 0.0828(8)
H138? H 0.1010 0.1659 0.0767
C132? C 0.1883(11) 0.1028(8) 0.0443(6)
C133? C 0.2566(11) 0.0569(8) 0.0532(6)
C134? C 0.732(3) 0.959(2) 0.0319(16)
H140? H 0.7429 0.9147 0.0428
H141? H 0.7805 0.9726 0.0323
C135? C 0.669(6) 0.988(6) 0.059(3)
H142? H 0.6445 0.0243 0.0349
H143? H 0.6311 0.9623 0.0665
C136? C 0.619(3) 0.957(4) 0.1375(16)
H144? H 0.6339 0.9221 0.1194
H145? H 0.6512 0.9437 0.1664
C137? C 0.5425(19) 0.9536(16) 0.1619(11)
H146? H 0.5079 0.9946 0.1631
H147? H 0.5464 0.9317 0.1972
C138? C 0.423(2) 0.915(3) 0.1625(18)
H148? H 0.4330 0.9116 0.1981
H149? H 0.4247 0.8735 0.1591
C139? C 0.287(7) 0.957(5) 0.169(2)
H150? H 0.2524 0.9317 0.1648
H151? H 0.2639 0.9834 0.1948
Cl1? Cl -0.841(3) 0.1850(17) 0.647(3)
O61? O -0.8196(8) 0.3599(5) 0.1541(5)
N18? N -0.7840(9) 0.3094(5) 0.1380(6)
C145? C -0.8172(9) 0.2882(7) 0.1045(7)
H158? H -0.8671 0.3103 0.0933
C146? C -0.7774(9) 0.2346(7) 0.0874(6)
C147? C -0.7045(8) 0.2022(5) 0.1038(5)
C148? C -0.6712(7) 0.2233(6) 0.1373(6)
H160? H -0.6213 0.2012 0.1485
C149? C -0.7110(8) 0.2770(6) 0.1544(6)
H161? H -0.6883 0.2914 0.1773
C150? C -0.6592(15) 0.1466(9) 0.0817(8)
C151? C -0.5886(15) 0.1102(11) 0.1002(10)
H162? H -0.5669 0.1216 0.1255
C152? C -0.5522(16) 0.0602(13) 0.0822(10)
H163? H -0.5082 0.0336 0.0980
N19? N -0.5750(10) 0.0450(7) 0.0423(6)
C153? C -0.6408(14) 0.0818(8) 0.0231(8)
H164? H -0.6572 0.0732 -0.0056
C154? C -0.6836(13) 0.1298(8) 0.0428(9)
H165? H -0.7318 0.1527 0.0296
C155? C -0.534(2) 0.992(2) 0.021(2)
H166? H -0.4896 0.9708 0.0404
H167? H -0.5664 0.9646 0.0205
O62? O 0.4867(18) 0.1694(10) -0.0251(8)
O63? O 0.4076(14) 0.1293(11) -0.0916(9)
O64? O 0.3779(11) 0.0116(7) -0.0784(8)
O65? O 0.406(2) 0.8844(14) -0.021(2)
C156? C 0.4448(16) 0.8306(11) -0.0436(16)
C157? C 0.436(2) 0.8016(16) -0.0813(15)
H168? H 0.3983 0.8215 -0.1048
C158? C 0.481(3) 0.7435(16) -0.0846(12)
H169? H 0.4752 0.7236 -0.1104
C159? C 0.536(2) 0.7144(10) -0.0502(12)
H170? H 0.5674 0.6746 -0.0525
C160? C 0.5452(16) 0.7434(11) -0.0125(11)
H171? H 0.5826 0.7235 0.0111
C161? C 0.4995(18) 0.8015(11) -0.0091(11)
C162? C 0.441(3) 0.2016(15) -0.065(2)
H172? H 0.3847 0.2146 -0.0512
H173? H 0.4603 0.2380 -0.0809
C163? C 0.449(3) 0.1658(16) -0.0995(18)
H174? H 0.4383 0.1922 -0.1324
H175? H 0.5057 0.1428 -0.1035
C164? C 0.414(3) 0.081(3) -0.120(2)
H176? H 0.4265 0.0962 -0.1565
H177? H 0.4591 0.0472 -0.1094
C165? C 0.346(3) 0.0583(16) -0.1145(16)
H178? H 0.2966 0.0856 -0.1015
H179? H 0.3388 0.0453 -0.1455
C166? C 0.318(2) 0.9826(13) -0.0569(15)
H180? H 0.2862 0.0053 -0.0302
H181? H 0.2829 0.9890 -0.0836
C167? C 0.327(4) 0.940(4) -0.042(5)
H182? H 0.3084 0.9220 -0.0661
H183? H 0.2863 0.9396 -0.0116
N20? N -0.051(2) 0.357(2) 0.332(2)
C168? C -0.040(3) 0.3767(19) 0.371(2)
H184? H -0.9888 0.3696 0.3809
C169? C -0.1105(16) 0.4106(13) 0.3984(10)
H185? H -0.1075 0.4257 0.4278
C170? C -0.1822(14) 0.4198(11) 0.3793(8)
C171? C -0.1863(17) 0.3993(15) 0.3335(17)
H186? H -0.2351 0.4071 0.3195
C172? C -0.114(2) 0.3670(12) 0.3106(12)
H187? H -0.1119 0.3532 0.2796
C173? C -0.2571(11) 0.4572(10) 0.4050(7)
C174? C -0.2596(15) 0.461(2) 0.4561(12)
H188? H -0.2193 0.4368 0.4762
C175? C -0.3257(14) 0.5036(16) 0.4762(10)
H189? H -0.3217 0.5197 0.5048
N21? N -0.3915(13) 0.5202(13) 0.4555(7)
C176? C -0.3985(14) 0.5038(16) 0.4089(9)
H190? H -0.4487 0.5113 0.3968
C177? C -0.3277(14) 0.4763(13) 0.3820(9)
H191? H -0.3274 0.4706 0.3483
C178? C -0.4682(14) 0.5552(13) 0.4834(10)
H192? H -0.4540 0.5635 0.5138
H193? H -0.4947 0.5926 0.4634
O67? O -0.5247(12) 0.6038(9) 0.5505(6)
O68? O -0.4137(11) 0.4882(15) 0.5869(8)
O69? O -0.4370(19) 0.3835(15) 0.6085(10)
O70? O -0.4020(14) 0.3123(9) 0.5179(11)
C179? C -0.6494(15) 0.6555(10) 0.5158(9)
C180? C -0.7260(14) 0.6927(13) 0.5197(11)
H194? H -0.7589 0.6989 0.4936
C181? C -0.7546(13) 0.7209(13) 0.5619(13)
H195? H -0.8070 0.7463 0.5646
C182? C -0.7066(19) 0.7118(13) 0.6002(10)
H196? H -0.7261 0.7310 0.6290
C183? C -0.6299(18) 0.6745(15) 0.5963(9)
H197? H -0.5970 0.6683 0.6224
C184? C -0.6013(13) 0.6464(12) 0.5541(10)
C185? C -0.476(2) 0.596(2) 0.5902(12)
H198? H -0.5067 0.5843 0.6231
H199? H -0.4653 0.6350 0.5907
C186? C -0.388(3) 0.544(2) 0.585(3)
H200? H -0.3592 0.5518 0.5508
H201? H -0.3501 0.5392 0.6100
C187? C -0.389(4) 0.451(2) 0.6319(14)
H202? H -0.3333 0.4495 0.6342
H203? H -0.4227 0.4672 0.6615
C188? C -0.396(4) 0.395(2) 0.6329(14)
H204? H -0.3416 0.3708 0.6245
H205? H -0.4129 0.3798 0.6687
C189? C -0.421(3) 0.310(2) 0.6047(16)
H206? H -0.4000 0.2857 0.6363
H207? H -0.4737 0.3020 0.6042
C190? C -0.371(2) 0.2887(16) 0.5640(12)
H208? H -0.3600 0.2442 0.5696
H209? H -0.3194 0.2992 0.5622
S10? S 0.2433(9) 0.9827(7) 0.1304(6)
O74? O 0.301(3) 0.970(2) 0.0848(19)
O75? O 0.1754(14) 0.9496(8) 0.1414(10)
C192? C 0.312(4) 0.954(3) 0.179(2)
F28? F 0.3436(18) 0.896(2) 0.1697(12)
F29? F 0.281(2) 0.9514(17) 0.2208(11)
F30? F 0.3666(10) 0.9720(10) 0.1652(9)
N22? N -0.775(7) 0.705(3) 0.008(3)
C193? C -0.711(5) 0.688(3) 0.986(3)
C194? C -0.660(3) 0.666(3) 0.945(4)
H210? H -0.6647 0.6997 0.9165
H211? H -0.6859 0.6364 0.9390
H212? H -0.6035 0.6470 0.9482
O77? O 0.5185(10) 0.0801(14) 0.2298(4)
O81? O 0.392(3) 0.8959(17) 0.526(4)
C197? C 0.418(3) 0.830(3) 0.501(3)
H225? H -0.6457 0.8862 0.5446
loop_
_geom_bond_atom_site_label_1
_geom_bond_atom_site_label_2
_geom_bond_site_symmetry_1
_geom_bond_site_symmetry_2
Sm1 O1 1_555 1_555
O1 H1 1_555 1_555
H2 O1 1_555 1_555
O2 Sm1 1_555 1_555
N1 O2 1_555 1_555
C1 N1 1_555 1_555
H3 C1 1_555 1_555
C2 C1 1_555 1_555
H4 C2 1_555 1_555
C3 C2 1_555 1_555
C4 C3 1_555 1_555
H5 C4 1_555 1_555
C5 N1 1_555 1_555
C6 C3 1_555 1_555
C7 C6 1_555 1_555
H7 C7 1_555 1_555
C8 C7 1_555 1_555
H8 C8 1_555 1_555
N2 C8 1_555 1_555
C9 N2 1_555 1_555
H9 C9 1_555 1_555
C10 C6 1_555 1_555
H10 C10 1_555 1_555
C11 N2 1_555 1_555
H11 C11 1_555 1_555
H12 C11 1_555 1_555
O3 Sm1 1_555 1_555
N3 O3 1_555 1_555
C12 N3 1_555 1_555
H13 C12 1_555 1_555
C13 C12 1_555 1_555
H14 C13 1_555 1_555
C14 C13 1_555 1_555
C15 C14 1_555 1_555
H15 C15 1_555 1_555
C16 N3 1_555 1_555
H16 C16 1_555 1_555
C17 C14 1_555 1_555
C18 C17 1_555 1_555
H17 C18 1_555 1_555
C19 C18 1_555 1_555
H18 C19 1_555 1_555
N4 C19 1_555 1_555
C20 N4 1_555 1_555
H19 C20 1_555 1_555
C21 C17 1_555 1_555
H20 C21 1_555 1_555
C22 N4 1_555 1_555
H21 C22 1_555 1_555
H22 C22 1_555 1_555
O4 N5 1_555 1_555
N5 C23 1_555 1_555
C23 H23 1_555 1_555
C24 C23 1_555 1_555
C25 C24 1_555 1_555
C26 C25 1_555 1_555
H25 C26 1_555 1_555
C27 N5 1_555 1_555
H26 C27 1_555 1_555
C28 C25 1_555 1_555
C29 C28 1_555 1_555
H27 C29 1_555 1_555
C30 C29 1_555 1_555
H28 C30 1_555 1_555
N6 C30 1_555 1_555
C31 N6 1_555 1_555
H29 C31 1_555 1_555
C32 C28 1_555 1_555
H30 C32 1_555 1_555
C33 C11 1_555 1_555
H31 C33 1_555 1_555
H32 C33 1_555 1_555
O5 Sm1 1_555 1_555
N7 O5 1_555 1_555
C34 N7 1_555 1_555
H33 C34 1_555 1_555
C35 C34 1_555 1_555
H34 C35 1_555 1_555
C36 C35 1_555 1_555
C37 C36 1_555 1_555
H35 C37 1_555 1_555
C38 N7 1_555 1_555
H36 C38 1_555 1_555
C39 C36 1_555 1_555
C40 C39 1_555 1_555
H37 C40 1_555 1_555
C41 C40 1_555 1_555
H38 C41 1_555 1_555
N8 C41 1_555 1_555
C42 N8 1_555 1_555
H39 C42 1_555 1_555
C43 C39 1_555 1_555
H40 C43 1_555 1_555
C44 N8 1_555 1_555
H41 C44 1_555 1_555
H42 C44 1_555 1_555
O6 C50 1_555 1_555
O7 C54 1_555 1_555
O8 C56 1_555 1_555
O9 C52 1_555 1_555
O10 C62 1_555 1_555
O11 C64 1_555 1_555
O12 C66 1_555 1_555
O13 C45 1_555 1_555
C45 C46 1_555 1_555
C46 H43 1_555 1_555
C47 C46 1_555 1_555
H44 C47 1_555 1_555
C48 C47 1_555 1_555
H45 C48 1_555 1_555
C49 C48 1_555 1_555
H46 C49 1_555 1_555
C50 C45 1_555 1_555
C51 O6 1_555 1_555
H47 C51 1_555 1_555
H48 C51 1_555 1_555
C52 C51 1_555 1_555
H49 C52 1_555 1_555
H50 C52 1_555 1_555
C53 O9 1_555 1_555
H51 C53 1_555 1_555
H52 C53 1_555 1_555
C54 C53 1_555 1_555
H53 C54 1_555 1_555
H54 C54 1_555 1_555
C55 O7 1_555 1_555
H55 C55 1_555 1_555
H56 C55 1_555 1_555
C56 C55 1_555 1_555
H57 C56 1_555 1_555
H58 C56 1_555 1_555
C57 O8 1_555 1_555
C58 C57 1_555 1_555
H59 C58 1_555 1_555
C59 C58 1_555 1_555
H60 C59 1_555 1_555
C60 C59 1_555 1_555
H61 C60 1_555 1_555
C61 C60 1_555 1_555
H62 C61 1_555 1_555
C62 C57 1_555 1_555
C63 O10 1_555 1_555
H63 C63 1_555 1_555
H64 C63 1_555 1_555
C64 C63 1_555 1_555
H65 C64 1_555 1_555
H66 C64 1_555 1_555
C65 O11 1_555 1_555
H67 C65 1_555 1_555
H68 C65 1_555 1_555
C66 C65 1_555 1_555
H69 C66 1_555 1_555
H70 C66 1_555 1_555
C67 O12 1_555 1_555
H71 C67 1_555 1_555
H72 C67 1_555 1_555
C68 O13 1_555 1_555
H73 C68 1_555 1_555
H74 C68 1_555 1_555
O14 C74 1_555 1_555
O15 C76 1_555 1_555
O16 C78 1_555 1_555
O17 C69 1_555 1_555
C69 C70 1_555 1_555
C70 H75 1_555 1_555
C71 C70 1_555 1_555
H76 C71 1_555 1_555
C72 C71 1_555 1_555
H77 C72 1_555 1_555
C73 C72 1_555 1_555
H78 C73 1_555 1_555
C74 C69 1_555 1_555
C75 O14 1_555 1_555
H79 C75 1_555 1_555
H80 C75 1_555 1_555
C76 C75 1_555 1_555
H81 C76 1_555 1_555
H82 C76 1_555 1_555
C77 O15 1_555 1_555
H83 C77 1_555 1_555
H84 C77 1_555 1_555
C78 C77 1_555 1_555
H85 C78 1_555 1_555
H86 C78 1_555 1_555
C79 O16 1_555 1_555
H87 C79 1_555 1_555
H88 C79 1_555 1_555
C80 O17 1_555 1_555
H89 C80 1_555 1_555
H90 C80 1_555 1_555
S1 O18 1_555 1_555
O18 Sm1 1_555 1_555
O19 S1 1_555 1_555
O20 S1 1_555 1_555
C81 S1 1_555 1_555
F1 C81 1_555 1_555
F2 C81 1_555 1_555
F3 C81 1_555 1_555
S2 O21 1_555 1_555
O22 S2 1_555 1_555
O23 S2 1_555 1_555
C82 S2 1_555 1_555
F4 C82 1_555 1_555
F5 C82 1_555 1_555
F6 C82 1_555 1_555
S3 O24 1_555 1_555
O25 S3 1_555 1_555
O26 S3 1_555 1_555
C83 S3 1_555 1_555
F7 C83 1_555 1_555
F8 C83 1_555 1_555
F9 C83 1_555 1_555
S4 O27 1_555 1_555
O28 S4 1_555 1_555
O29 S4 1_555 1_555
C84 S4 1_555 1_555
F10 C84 1_555 1_555
F11 C84 1_555 1_555
F12 C84 1_555 1_555
S5 O30 1_555 1_555
O31 S5 1_555 1_555
O32 S5 1_555 1_555
C85 S5 1_555 1_555
F13 C85 1_555 1_555
F14 C85 1_555 1_555
F15 C85 1_555 1_555
S6 O33 1_555 1_555
O34 S6 1_555 1_555
O35 S6 1_555 1_555
C86 S6 1_555 1_555
F16 C86 1_555 1_555
F17 C86 1_555 1_555
F18 C86 1_555 1_555
S7 O36 1_555 1_555
O37 S7 1_555 1_555
O38 S7 1_555 1_555
C87 S7 1_555 1_555
F19 C87 1_555 1_555
F20 C87 1_555 1_555
F21 C87 1_555 1_555
N9 C88 1_555 1_555
C88 C89 1_555 1_555
C89 H91 1_555 1_555
H92 C89 1_555 1_555
H93 C89 1_555 1_555
N10 C90 1_555 1_555
C90 C91 1_555 1_555
C91 H94 1_555 1_555
H95 C91 1_555 1_555
H96 C91 1_555 1_555
N11 C92 1_555 1_555
C92 C93 1_555 1_555
C93 H97 1_555 1_555
H98 C93 1_555 1_555
H99 C93 1_555 1_555
N12 C94 1_555 1_555
C94 H100 1_555 1_555
C95 C94 1_555 1_555
H101 C95 1_555 1_555
C96 C95 1_555 1_555
C97 C96 1_555 1_555
H102 C97 1_555 1_555
C98 N12 1_555 1_555
H103 C98 1_555 1_555
C99 C96 1_555 1_555
C100 C99 1_555 1_555
H104 C100 1_555 1_555
C101 C100 1_555 1_555
H105 C101 1_555 1_555
N13 C101 1_555 1_555
C102 N13 1_555 1_555
C103 C99 1_555 1_555
H107 C103 1_555 1_555
C104 N13 1_555 1_555
O50 Sm1 1_555 1_555
N14 O50 1_555 1_555
C117 N14 1_555 1_555
H126 C117 1_555 1_555
C118 C117 1_555 1_555
H127 C118 1_555 1_555
C119 C118 1_555 1_555
C120 C119 1_555 1_555
H128 C120 1_555 1_555
C121 N14 1_555 1_555
H129 C121 1_555 1_555
C122 C119 1_555 1_555
C123 C122 1_555 1_555
H130 C123 1_555 1_555
C124 C123 1_555 1_555
H131 C124 1_555 1_555
N15 C124 1_555 1_555
C125 N15 1_555 1_555
H132 C125 1_555 1_555
C126 C122 1_555 1_555
H133 C126 1_555 1_555
C127 N15 1_555 1_555
H134 C127 1_555 1_555
H135 C127 1_555 1_555
H136 O80 1_555 1_555
H139 O79 1_555 1_555
S8 O55 1_555 1_555
O56 S8 1_555 1_555
O57 S8 1_555 1_555
C140 S8 1_555 1_555
F22 C140 1_555 1_555
F23 C140 1_555 1_555
F24 C140 1_555 1_555
N16 C141 1_555 1_555
C141 C142 1_555 1_555
C142 H152 1_555 1_555
H153 C142 1_555 1_555
H154 C142 1_555 1_555
N17 C143 1_555 1_555
C143 C144 1_555 1_555
C144 H155 1_555 1_555
H156 C144 1_555 1_555
H157 C144 1_555 1_555
H159 C118 1_555 1_555
O66 Sm1 1_555 1_555
S9 O71 1_555 1_555
O72 S9 1_555 1_555
O73 S9 1_555 1_555
C191 S9 1_555 1_555
F25 C191 1_555 1_555
F26 C191 1_555 1_555
F27 C191 1_555 1_555
N23 C195 1_555 1_555
C195 C196 1_555 1_555
C196 H213 1_555 1_555
H214 C196 1_555 1_555
H215 C196 1_555 1_555
O82 C203 1_555 1_555
O83 C205 1_555 1_555
O84 C207 1_555 1_555
O85 C198 1_555 1_555
C198 C199 1_555 1_555
C199 H216 1_555 1_555
C200 C199 1_555 1_555
H217 C200 1_555 1_555
C201 C200 1_555 1_555
H218 C201 1_555 1_555
C202 C201 1_555 1_555
H219 C202 1_555 1_555
C203 C198 1_555 1_555
C204 O82 1_555 1_555
H220 C204 1_555 1_555
H221 C204 1_555 1_555
C205 C204 1_555 1_555
H222 C205 1_555 1_555
H223 C205 1_555 1_555
C206 O83 1_555 1_555
H224 C206 1_555 1_555
C207 C206 1_555 1_555
H226 C207 1_555 1_555
H227 C207 1_555 1_555
C208 O84 1_555 1_555
H228 C208 1_555 1_555
H229 C208 1_555 1_555
C209 O85 1_555 1_555
H230 C209 1_555 1_555
H231 C209 1_555 1_555
Sm1_2 O1_2 1_555 1_555
Sm1_3 O4 1_555 1_555
Sm1A O3A 1_555 1_555
Sm1A_2 O5A 1_555 1_555
Sm1A_3 O66A 1_555 1_555
Sm1A_4 O50A 1_555 1_555
O1_2 H1_2 1_555 1_555
H2_2 O1_2 1_555 1_555
O2_2 Sm1_2 1_555 1_555
N1_2 O2_2 1_555 1_555
C1_2 N1_2 1_555 1_555
H3_2 C1_2 1_555 1_555
C2_2 C1_2 1_555 1_555
H4_2 C2_2 1_555 1_555
C3_2 C2_2 1_555 1_555
C4_2 C3_2 1_555 1_555
H5_2 C4_2 1_555 1_555
C5_2 N1_2 1_555 1_555
C6_2 C3_2 1_555 1_555
C7_2 C6_2 1_555 1_555
H7_2 C7_2 1_555 1_555
C8_2 C7_2 1_555 1_555
H8_2 C8_2 1_555 1_555
N2_2 C8_2 1_555 1_555
C9_2 N2_2 1_555 1_555
H9_2 C9_2 1_555 1_555
C10_2 C6_2 1_555 1_555
H10_2 C10_2 1_555 1_555
C11_2 N2_2 1_555 1_555
H11_2 C11_2 1_555 1_555
H12_2 C11_2 1_555 1_555
O3A N3A 1_555 1_555
O3_2 Sm1_2 1_555 1_555
N3A C12A 1_555 1_555
C12A H13A 1_555 1_555
C13A C12A 1_555 1_555
H14A C13A 1_555 1_555
C14A C13A 1_555 1_555
C15A C14A 1_555 1_555
H15A C15A 1_555 1_555
C16A N3A 1_555 1_555
H16A C16A 1_555 1_555
C17A C14A 1_555 1_555
C18A C17A 1_555 1_555
H17A C18A 1_555 1_555
C19A C18A 1_555 1_555
H18A C19A 1_555 1_555
N4A C19A 1_555 1_555
C20A N4A 1_555 1_555
H19A C20A 1_555 1_555
C21A C17A 1_555 1_555
H20A C21A 1_555 1_555
C22A C22 1_555 1_555
H21A C22A 1_555 1_555
H22A C22A 1_555 1_555
O4_2 Sm1 1_555 1_555
O4_3 Sm1_2 1_555 1_555
N5_2 O4_2 1_555 1_555
C23_2 N5_2 1_555 1_555
H23_2 C23_2 1_555 1_555
C24_2 C23_2 1_555 1_555
C25_2 C24_2 1_555 1_555
C26_2 C25_2 1_555 1_555
H25_2 C26_2 1_555 1_555
C27_2 N5_2 1_555 1_555
H26_2 C27_2 1_555 1_555
C28_2 C25_2 1_555 1_555
C29_2 C28_2 1_555 1_555
H27_2 C29_2 1_555 1_555
C30_2 C29_2 1_555 1_555
H28_2 C30_2 1_555 1_555
N6_2 C30_2 1_555 1_555
C31_2 N6_2 1_555 1_555
H29_2 C31_2 1_555 1_555
C32_2 C28_2 1_555 1_555
H30_2 C32_2 1_555 1_555
C33_2 C11_2 1_555 1_555
H31_2 C33_2 1_555 1_555
H32_2 C33_2 1_555 1_555
O5A N7A 1_555 1_555
O5_2 Sm1_2 1_555 1_555
N7A C34A 1_555 1_555
C34A H33A 1_555 1_555
C35A C34A 1_555 1_555
H34A C35A 1_555 1_555
C36A C35A 1_555 1_555
C37A C36A 1_555 1_555
H35A C37A 1_555 1_555
C38A N7A 1_555 1_555
H36A C38A 1_555 1_555
C39A C36A 1_555 1_555
C40A C39A 1_555 1_555
H37A C40A 1_555 1_555
C41A C40A 1_555 1_555
H38A C41A 1_555 1_555
N8A C41A 1_555 1_555
C42A N8A 1_555 1_555
H39A C42A 1_555 1_555
C43A C39A 1_555 1_555
H40A C43A 1_555 1_555
C44A C44 1_555 1_555
H41A C44A 1_555 1_555
H42A C44A 1_555 1_555
O14A C74A 1_555 1_555
O15A C76A 1_555 1_555
O16A C78A 1_555 1_555
O17A C69A 1_555 1_555
C69A C70A 1_555 1_555
C70A H75A 1_555 1_555
C71A C70A 1_555 1_555
H76A C71A 1_555 1_555
C72A C71A 1_555 1_555
H77A C72A 1_555 1_555
C73A C72A 1_555 1_555
H78A C73A 1_555 1_555
C74A C69A 1_555 1_555
C75A O14A 1_555 1_555
H79A C75A 1_555 1_555
H80A C75A 1_555 1_555
C76A C75A 1_555 1_555
H81A C76A 1_555 1_555
H82A C76A 1_555 1_555
C77A O15A 1_555 1_555
H83A C77A 1_555 1_555
H84A C77A 1_555 1_555
C78A C77A 1_555 1_555
H85A C78A 1_555 1_555
H86A C78A 1_555 1_555
C79A C80 1_555 1_555
H87A C79A 1_555 1_555
H88A C79A 1_555 1_555
C80A C79 1_555 1_555
H89A C80A 1_555 1_555
H90A C80A 1_555 1_555
S1_2 O18_2 1_555 1_555
O18_2 Sm1_2 1_555 1_555
O19_2 S1_2 1_555 1_555
O20_2 S1_2 1_555 1_555
C81_2 S1_2 1_555 1_555
F1_2 C81_2 1_555 1_555
F2_2 C81_2 1_555 1_555
F3_2 C81_2 1_555 1_555
N12A C94A 1_555 1_555
C94A H100A 1_555 1_555
C95A C94A 1_555 1_555
H101A C95A 1_555 1_555
C96A C95A 1_555 1_555
C97A C96A 1_555 1_555
H102A C97A 1_555 1_555
C98A N12A 1_555 1_555
H103A C98A 1_555 1_555
C99A C96A 1_555 1_555
C100A C99A 1_555 1_555
H104A C100A 1_555 1_555
C101A C100A 1_555 1_555
H105A C101A 1_555 1_555
N13A C101A 1_555 1_555
C102A N13A 1_555 1_555
C103A C99A 1_555 1_555
H107A C103A 1_555 1_555
C104A C104 1_555 1_555
O50A N14A 1_555 1_555
O50_2 Sm1_2 1_555 1_555
N14A C117A 1_555 1_555
C117A H126A 1_555 1_555
C118A C117A 1_555 1_555
H127A C118A 1_555 1_555
C119A C118A 1_555 1_555
C120A C119A 1_555 1_555
H128A C120A 1_555 1_555
C121A N14A 1_555 1_555
H129A C121A 1_555 1_555
C122A C119A 1_555 1_555
C123A C122A 1_555 1_555
H130A C123A 1_555 1_555
C124A C123A 1_555 1_555
H131A C124A 1_555 1_555
N15A C124A 1_555 1_555
C125A N15A 1_555 1_555
H132A C125A 1_555 1_555
C126A C122A 1_555 1_555
H133A C126A 1_555 1_555
C127A C127 1_555 1_555
H134A C127A 1_555 1_555
H135A C127A 1_555 1_555
H159A C118A 1_555 1_555
O66A N12A 1_555 1_555
O66_2 Sm1_2 1_555 1_555
O82A C203A 1_555 1_555
O83A C205A 1_555 1_555
O84A C207A 1_555 1_555
O85A C198A 1_555 1_555
C198A C199A 1_555 1_555
C199A H216A 1_555 1_555
C200A C199A 1_555 1_555
H217A C200A 1_555 1_555
C201A C200A 1_555 1_555
H218A C201A 1_555 1_555
C202A C201A 1_555 1_555
H219A C202A 1_555 1_555
C203A C198A 1_555 1_555
C204A O82A 1_555 1_555
H220A C204A 1_555 1_555
H221A C204A 1_555 1_555
C205A C204A 1_555 1_555
H222A C205A 1_555 1_555
H223A C205A 1_555 1_555
C206A O83A 1_555 1_555
H224A C206A 1_555 1_555
C207A C206A 1_555 1_555
H226A C207A 1_555 1_555
H227A C207A 1_555 1_555
C208A C209 1_555 1_555
H228A C208A 1_555 1_555
H229A C208A 1_555 1_555
C209A C208 1_555 1_555
H230A C209A 1_555 1_555
H231A C209A 1_555 1_555
C4 C5 1_555 1_555
C9 C10 1_555 1_555
C15 C16 1_555 1_555
C20 C21 1_555 1_555
C26 C27 1_555 1_555
N6 C33 1_555 1_555
C31 C32 1_555 1_555
C37 C38 1_555 1_555
C42 C43 1_555 1_555
C49 C50 1_555 1_555
C61 C62 1_555 1_555
C67 C68 1_555 1_555
C73 C74 1_555 1_555
N12 O66 1_555 1_555
C97 C98 1_555 1_555
C102 C103 1_555 1_555
C120 C121 1_555 1_555
C125 C126 1_555 1_555
C202 C203 1_555 1_555
C4_2 C5_2 1_555 1_555
C9_2 C10_2 1_555 1_555
C15A C16A 1_555 1_555
N4A C22A 1_555 1_555
C20A C21A 1_555 1_555
C26_2 C27_2 1_555 1_555
N6_2 C33_2 1_555 1_555
C31_2 C32_2 1_555 1_555
C37A C38A 1_555 1_555
N8A C44A 1_555 1_555
C42A C43A 1_555 1_555
O16A C79A 1_555 1_555
O17A C80A 1_555 1_555
C73A C74A 1_555 1_555
C97A C98A 1_555 1_555
N13A C104A 1_555 1_555
C102A C103A 1_555 1_555
C120A C121A 1_555 1_555
N15A C127A 1_555 1_555
C125A C126A 1_555 1_555
O84A C208A 1_555 1_555
O85A C209A 1_555 1_555
C202A C203A 1_555 1_555

#END
