
#######################################################################
#
#                 Cambridge Crystallographic Data Centre
#                                CCDC 
#
#######################################################################
#
# If this CIF has been generated from an entry in the Cambridge 
# Structural Database, then it will include bibliographic, chemical, 
# crystal, experimental, refinement or atomic coordinate data resulting 
# from the CCDC's data processing and validation procedures.
#
#######################################################################

data_FEVNUR
_symmetry_cell_setting           triclinic
_symmetry_space_group_name_H-M   'P -1'
_symmetry_Int_Tables_number      2
_space_group_name_Hall           '-P 1'
loop_
_symmetry_equiv_pos_site_id
_symmetry_equiv_pos_as_xyz
1 x,y,z
2 -x,-y,-z
_cell_length_a                   11.0180(5)
_cell_length_b                   12.4823(10)
_cell_length_c                   12.7410(6)
_cell_angle_alpha                107.495(2)
_cell_angle_beta                 108.0150(10)
_cell_angle_gamma                97.391(2)
_cell_volume                     1541.11
loop_
_atom_site_label
_atom_site_type_symbol
_atom_site_fract_x
_atom_site_fract_y
_atom_site_fract_z
O1 O 0.2492(3) 0.1426(3) 0.3163(3)
O2 O 0.2513(3) 0.3040(3) 0.1634(4)
Cl1 Cl -0.01055(9) 0.08661(7) -0.09067(7)
Cl2 Cl 0.33807(9) 0.05067(9) 0.06616(8)
Cd1 Cd 0.15141(2) 0.11319(2) 0.11811(2)
C1 C 0.0008(3) 0.1305(3) 0.4725(3)
C2 C -0.1374(3) 0.1362(3) 0.5807(3)
H1 H -0.1590 0.0751 0.6113
C3 C -0.2223(3) 0.1025(3) 0.4488(3)
H2 H -0.2831 0.0249 0.4171
C4 C -0.2661(3) 0.2685(3) 0.5592(3)
C5 C -0.1561(3) 0.0679(3) 0.2668(3)
H3 H -0.0797 0.0472 0.2496
H4 H -0.2292 -0.0015 0.2264
C6 C -0.4043(3) 0.1849(3) 0.3471(3)
H5 H -0.4640 0.2267 0.3756
H6 H -0.4522 0.1036 0.3031
C7 C -0.1139(3) 0.2129(3) 0.1773(3)
C8 C -0.3264(3) 0.1646(3) 0.1771(3)
H7 H -0.3880 0.0874 0.1308
C9 C -0.3261(3) 0.2386(3) 0.0996(3)
H8 H -0.3828 0.1944 0.0158
C10 C -0.4085(3) 0.3240(3) 0.2445(3)
C11 C -0.1454(3) 0.3208(3) 0.0411(3)
H9 H -0.2166 0.2955 -0.0364
H10 H -0.0699 0.2929 0.0288
C12 C -0.4030(3) 0.4233(3) 0.1025(3)
H11 H -0.4380 0.3877 0.0160
H12 H -0.4710 0.4554 0.1263
C13 C 0.0198(3) 0.5092(3) 0.1401(3)
C14 C -0.2016(3) 0.5186(3) 0.0750(3)
H13 H -0.2503 0.5036 -0.0096
C15 C -0.1097(3) 0.6434(3) 0.1408(3)
H14 H -0.1259 0.6914 0.0909
C16 C -0.2560(3) 0.6158(3) 0.2354(3)
C17 C 0.1410(3) 0.7143(3) 0.2365(3)
H15 H 0.2151 0.6845 0.2229
H16 H 0.1353 0.7791 0.2084
C18 C -0.1115(3) 0.8117(3) 0.3122(3)
H17 H -0.0978 0.8546 0.2621
H18 H -0.1862 0.8309 0.3337
N1 N -0.0042(3) 0.1510(2) 0.5818(2)
N2 N -0.1253(3) 0.1030(3) 0.3931(2)
N3 N -0.1694(3) 0.2421(2) 0.6374(2)
N4 N -0.2936(3) 0.1916(3) 0.4474(2)
N5 N -0.1915(3) 0.1556(2) 0.2195(2)
N6 N -0.1880(3) 0.2683(2) 0.1144(2)
N7 N -0.3678(3) 0.2322(2) 0.2679(2)
N8 N -0.3763(3) 0.3340(3) 0.1517(3)
N9 N -0.1085(3) 0.4464(2) 0.0906(3)
N10 N 0.0221(3) 0.6243(2) 0.1667(2)
N11 N -0.2885(3) 0.5172(2) 0.1394(3)
N12 N -0.1440(3) 0.6878(2) 0.2445(2)
O3 O 0.1008(2) 0.1322(2) 0.4494(2)
O4 O 0.0013(2) 0.2135(2) 0.1936(2)
O5 O 0.1169(2) 0.4699(2) 0.1544(2)
O6 O -0.3214(3) 0.3461(2) 0.5846(2)
O7 O -0.4657(3) 0.3852(2) 0.2958(2)
O8 O -0.3151(3) 0.6380(2) 0.3025(2)
C1A C -0.0008(3) 0.8695(3) 0.5275(3)
C2A C 0.1374(3) 0.8638(3) 0.4193(3)
H1A H 0.1590 0.9249 0.3887
C3A C 0.2223(3) 0.8975(3) 0.5512(3)
H2A H 0.2831 0.9751 0.5829
C4A C 0.2661(3) 0.7315(3) 0.4408(3)
C5A C 0.1561(3) 0.9321(3) 0.7332(3)
H3A H 0.0797 0.9528 0.7504
H4A H 0.2292 1.0015 0.7736
C6A C 0.4043(3) 0.8151(3) 0.6529(3)
H5A H 0.4640 0.7733 0.6244
H6A H 0.4522 0.8964 0.6969
C7A C 0.1139(3) 0.7871(3) 0.8227(3)
C8A C 0.3264(3) 0.8354(3) 0.8229(3)
H7A H 0.3880 0.9126 0.8692
C9A C 0.3261(3) 0.7614(3) 0.9004(3)
H8A H 0.3828 0.8056 0.9842
C10A C 0.4085(3) 0.6760(3) 0.7555(3)
C11A C 0.1454(3) 0.6792(3) 0.9589(3)
H9A H 0.2166 0.7045 1.0364
H10A H 0.0699 0.7071 0.9712
C12A C 0.4030(3) 0.5767(3) 0.8975(3)
H11A H 0.4380 0.6123 0.9840
H12A H 0.4710 0.5446 0.8737
C13A C -0.0198(3) 0.4908(3) 0.8599(3)
C14A C 0.2016(3) 0.4814(3) 0.9250(3)
H13A H 0.2503 0.4964 1.0096
C15A C 0.1097(3) 0.3566(3) 0.8592(3)
H14A H 0.1259 0.3086 0.9091
C16A C 0.2560(3) 0.3842(3) 0.7646(3)
C17A C -0.1410(3) 0.2857(3) 0.7635(3)
H15A H -0.2151 0.3155 0.7771
H16A H -0.1353 0.2209 0.7916
C18A C 0.1115(3) 0.1883(3) 0.6878(3)
H17A H 0.0978 0.1454 0.7379
H18A H 0.1862 0.1691 0.6663
N1A N 0.0042(3) 0.8490(2) 0.4182(2)
N2A N 0.1253(3) 0.8970(3) 0.6069(2)
N3A N 0.1694(3) 0.7579(2) 0.3626(2)
N4A N 0.2936(3) 0.8084(3) 0.5526(2)
N5A N 0.1915(3) 0.8444(2) 0.7805(2)
N6A N 0.1880(3) 0.7317(2) 0.8856(2)
N7A N 0.3678(3) 0.7678(2) 0.7321(2)
N8A N 0.3763(3) 0.6660(3) 0.8483(3)
N9A N 0.1085(3) 0.5536(2) 0.9094(3)
N10A N -0.0221(3) 0.3757(2) 0.8333(2)
N11A N 0.2885(3) 0.4828(2) 0.8606(3)
N12A N 0.1440(3) 0.3122(2) 0.7555(2)
O3A O -0.1008(2) 0.8678(2) 0.5506(2)
O4A O -0.0013(2) 0.7865(2) 0.8064(2)
O5A O -0.1169(2) 0.5301(2) 0.8456(2)
O6A O 0.3214(3) 0.6539(2) 0.4154(2)
O7A O 0.4657(3) 0.6148(2) 0.7042(2)
O8A O 0.3151(3) 0.3620(2) 0.6975(2)
O1A O -0.2492(3) -0.1426(3) -0.3163(3)
O2A O -0.2513(3) -0.3040(3) -0.1634(4)
Cl1A Cl 0.01055(9) -0.08661(7) 0.09067(7)
Cl2A Cl -0.33807(9) -0.05067(9) -0.06616(8)
Cd1A Cd -0.15141(2) -0.11319(2) -0.11811(2)
Cd1A_2 Cd -0.15141(2) 0.88681(2) 0.88189(2)
O4A_2 O -0.0013(2) -0.2135(2) -0.1936(2)
loop_
_geom_bond_atom_site_label_1
_geom_bond_atom_site_label_2
_geom_bond_site_symmetry_1
_geom_bond_site_symmetry_2
O1 Cd1 1_555 1_555
O2 Cd1 1_555 1_555
Cl1 Cd1 1_555 1_555
Cl2 Cd1 1_555 1_555
Cd1 O4 1_555 1_555
C1 N1 1_555 1_555
C2 H1 1_555 1_555
C3 C2 1_555 1_555
H2 C3 1_555 1_555
C4 N3 1_555 1_555
C5 H3 1_555 1_555
H4 C5 1_555 1_555
C6 H5 1_555 1_555
H6 C6 1_555 1_555
C7 N5 1_555 1_555
C8 H7 1_555 1_555
C9 C8 1_555 1_555
H8 C9 1_555 1_555
C10 N7 1_555 1_555
C11 H9 1_555 1_555
H10 C11 1_555 1_555
C12 H11 1_555 1_555
H12 C12 1_555 1_555
C13 N9 1_555 1_555
C14 H13 1_555 1_555
C15 C14 1_555 1_555
H14 C15 1_555 1_555
C16 N11 1_555 1_555
C17 H15 1_555 1_555
H16 C17 1_555 1_555
C18 H17 1_555 1_555
H18 C18 1_555 1_555
N1 C2 1_555 1_555
N2 C1 1_555 1_555
N3 C2 1_555 1_555
N4 C3 1_555 1_555
N5 C5 1_555 1_555
N6 C7 1_555 1_555
N7 C6 1_555 1_555
N8 C9 1_555 1_555
N9 C11 1_555 1_555
N10 C13 1_555 1_555
N11 C12 1_555 1_555
N12 C15 1_555 1_555
O3 C1 1_555 1_555
O4 C7 1_555 1_555
O5 C13 1_555 1_555
O6 C4 1_555 1_555
O7 C10 1_555 1_555
O8 C16 1_555 1_555
C1A N1A 1_555 1_555
C2A H1A 1_555 1_555
C3A C2A 1_555 1_555
H2A C3A 1_555 1_555
C4A N3A 1_555 1_555
C5A H3A 1_555 1_555
H4A C5A 1_555 1_555
C6A H5A 1_555 1_555
H6A C6A 1_555 1_555
C7A N5A 1_555 1_555
C8A H7A 1_555 1_555
C9A C8A 1_555 1_555
H8A C9A 1_555 1_555
C10A N7A 1_555 1_555
C11A H9A 1_555 1_555
H10A C11A 1_555 1_555
C12A H11A 1_555 1_555
H12A C12A 1_555 1_555
C13A N9A 1_555 1_555
C14A H13A 1_555 1_555
C15A C14A 1_555 1_555
H14A C15A 1_555 1_555
C16A N11A 1_555 1_555
C17A N3 1_555 1_555
H15A C17A 1_555 1_555
H16A C17A 1_555 1_555
C18A N1 1_555 1_555
H17A C18A 1_555 1_555
H18A C18A 1_555 1_555
N1A C18 1_555 1_555
N2A C1A 1_555 1_555
N3A C17 1_555 1_555
N4A C3A 1_555 1_555
N5A C5A 1_555 1_555
N6A C7A 1_555 1_555
N7A C6A 1_555 1_555
N8A C9A 1_555 1_555
N9A C11A 1_555 1_555
N10A C13A 1_555 1_555
N11A C12A 1_555 1_555
N12A C15A 1_555 1_555
O3A C1A 1_555 1_555
O4A C7A 1_555 1_555
O5A C13A 1_555 1_555
O6A C4A 1_555 1_555
O7A C10A 1_555 1_555
O8A C16A 1_555 1_555
O1A Cd1A 1_555 1_555
O2A Cd1A 1_555 1_555
Cl1A Cd1 1_555 1_555
Cl2A Cd1A 1_555 1_555
Cd1A Cl1 1_555 1_555
Cd1A_2 O4A 1_555 1_555
O4A_2 Cd1A 1_555 1_555
C3 N2 1_555 1_555
C4 N4 1_555 1_555
C5 N2 1_555 1_555
C6 N4 1_555 1_555
C8 N5 1_555 1_555
C8 N7 1_555 1_555
C9 N6 1_555 1_555
C10 N8 1_555 1_555
C11 N6 1_555 1_555
C12 N8 1_555 1_555
C14 N9 1_555 1_555
C14 N11 1_555 1_555
C15 N10 1_555 1_555
C16 N12 1_555 1_555
C17 N10 1_555 1_555
C18 N12 1_555 1_555
C2A N1A 1_555 1_555
C2A N3A 1_555 1_555
C3A N2A 1_555 1_555
C4A N4A 1_555 1_555
C5A N2A 1_555 1_555
C6A N4A 1_555 1_555
C8A N5A 1_555 1_555
C8A N7A 1_555 1_555
C9A N6A 1_555 1_555
C10A N8A 1_555 1_555
C11A N6A 1_555 1_555
C12A N8A 1_555 1_555
C14A N9A 1_555 1_555
C14A N11A 1_555 1_555
C15A N10A 1_555 1_555
C16A N12A 1_555 1_555
C17A N10A 1_555 1_555
C18A N12A 1_555 1_555
Cl1A Cd1A 1_555 1_555

#END
