
#######################################################################
#
#                 Cambridge Crystallographic Data Centre
#                                CCDC 
#
#######################################################################
#
# If this CIF has been generated from an entry in the Cambridge 
# Structural Database, then it will include bibliographic, chemical, 
# crystal, experimental, refinement or atomic coordinate data resulting 
# from the CCDC's data processing and validation procedures.
#
#######################################################################

data_FEVPIH
_symmetry_cell_setting           rhombohedral
_symmetry_space_group_name_H-M   'R -3 m'
_symmetry_Int_Tables_number      166
_space_group_name_Hall           '-R 3 2"'
loop_
_symmetry_equiv_pos_site_id
_symmetry_equiv_pos_as_xyz
1 x,y,z
2 -y,x-y,z
3 -x+y,-x,z
4 y,x,-z
5 -x,-x+y,-z
6 x-y,-y,-z
7 2/3+x,1/3+y,1/3+z
8 2/3-y,1/3+x-y,1/3+z
9 2/3-x+y,1/3-x,1/3+z
10 2/3+y,1/3+x,1/3-z
11 2/3-x,1/3-x+y,1/3-z
12 2/3+x-y,1/3-y,1/3-z
13 1/3+x,2/3+y,2/3+z
14 1/3-y,2/3+x-y,2/3+z
15 1/3-x+y,2/3-x,2/3+z
16 1/3+y,2/3+x,2/3-z
17 1/3-x,2/3-x+y,2/3-z
18 1/3+x-y,2/3-y,2/3-z
19 -x,-y,-z
20 y,-x+y,-z
21 x-y,x,-z
22 -y,-x,z
23 x,x-y,z
24 -x+y,y,z
25 1/3-x,2/3-y,2/3-z
26 1/3+y,2/3-x+y,2/3-z
27 1/3+x-y,2/3+x,2/3-z
28 1/3-y,2/3-x,2/3+z
29 1/3+x,2/3+x-y,2/3+z
30 1/3-x+y,2/3+y,2/3+z
31 2/3-x,1/3-y,1/3-z
32 2/3+y,1/3-x+y,1/3-z
33 2/3+x-y,1/3+x,1/3-z
34 2/3-y,1/3-x,1/3+z
35 2/3+x,1/3+x-y,1/3+z
36 2/3-x+y,1/3+y,1/3+z
_cell_length_a                   20.073(4)
_cell_length_b                   20.073(4)
_cell_length_c                   15.195(6)
_cell_angle_alpha                90
_cell_angle_beta                 90
_cell_angle_gamma                120
_cell_volume                     5302.2
loop_
_atom_site_label
_atom_site_type_symbol
_atom_site_fract_x
_atom_site_fract_y
_atom_site_fract_z
Cl1 Cl 0.26092(11) 0.3333 -0.1667
Cd1 Cd 0.20749(3) 0.41499(7) -0.18555(6)
Cl2 Cl 0.21103(12) 0.4221(2) -0.3504(2)
O1 O 0.3195(5) 0.5242(4) -0.1836(3)
C1 C 0.22252(17) 0.4450(3) 0.0452(3)
C2 C 0.2274(2) 0.3771(2) 0.1674(2)
H1 H 0.2192 0.3244 0.1628
C3 C 0.21586(16) 0.4317(3) 0.2991(3)
C4 C 0.3344(2) 0.4242(2) 0.2821(2)
H2 H 0.3373 0.3778 0.2698
H3 H 0.3372 0.4315 0.3460
N1 N 0.26666(19) 0.4230(2) 0.0913(2)
N2 N 0.26107(19) 0.4123(2) 0.2515(2)
O2 O 0.23866(17) 0.4773(3) -0.0259(3)
O3 O 0.22972(15) 0.4594(3) 0.3733(3)
C1J C 0.44415(17) 0.55581(34) 0.2881(3)
C2J C 0.4393(2) 0.4830(3) 0.1659(2)
H1J H 0.4475 0.4385 0.1705
C3J C 0.45081(16) 0.54917(34) 0.0342(3)
C4J C 0.3323(2) 0.4231(3) 0.0512(2)
H2J H 0.3294 0.3738 0.0635
H3J H 0.3295 0.4276 -0.0127
N1J N 0.40001(19) 0.48967(28) 0.2420(2)
N2J N 0.40560(19) 0.48456(28) 0.0818(2)
O2J O 0.42801(17) 0.57197(34) 0.3592(3)
O3J O 0.43695(15) 0.56301(34) -0.0400(3)
C2W C 0.1497(3) 0.3771(2) 0.1674(2)
H1W H 0.1052 0.3244 0.1628
C4W C 0.0898(3) 0.4242(2) 0.2821(2)
H2W H 0.0405 0.3778 0.2698
H3W H 0.0943 0.4315 0.3460
N1W N 0.15634(28) 0.4230(2) 0.0913(2)
N2W N 0.15123(28) 0.4123(2) 0.2515(2)
C1I C 0.1117(3) 0.55585(17) 0.2881(3)
C2EA C 0.0438(2) 0.4830(3) 0.1659(2)
H1EA H -0.0089 0.4385 0.1705
C3I C 0.0984(3) 0.54919(16) 0.0342(3)
C4EA C 0.0909(2) 0.4231(3) 0.0512(2)
H2EA H 0.0445 0.3738 0.0635
H3EA H 0.0982 0.4276 -0.0127
N1EA N 0.0897(2) 0.48967(28) 0.2420(2)
N2EA N 0.0790(2) 0.48456(28) 0.0818(2)
O2I O 0.1440(3) 0.57199(17) 0.3592(3)
O3I O 0.1261(3) 0.56305(15) -0.0400(3)
C2FA C 0.5170(3) 0.5607(2) 0.1659(2)
H1FA H 0.5615 0.5525 0.1705
C4FA C 0.5769(3) 0.6677(2) 0.0512(2)
H2FA H 0.6262 0.6706 0.0635
H3FA H 0.5724 0.6705 -0.0127
N1FA N 0.51033(28) 0.59999(19) 0.2420(2)
N2FA N 0.51544(28) 0.59440(19) 0.0818(2)
C2I C 0.0438(2) 0.5607(2) 0.1659(2)
H1I H -0.0089 0.5525 0.1705
C4I C 0.0909(2) 0.6677(2) 0.0512(2)
H2I H 0.0445 0.6706 0.0635
H3I H 0.0982 0.6705 -0.0127
N1I N 0.0897(2) 0.59999(19) 0.2420(2)
N2I N 0.0790(2) 0.59440(19) 0.0818(2)
C1A C 0.5550(3) 0.77752(34) 0.0452(3)
C2U C 0.6229(2) 0.7726(2) 0.1674(2)
H1U H 0.6756 0.7808 0.1628
C3A C 0.5683(3) 0.78416(34) 0.2991(3)
C4U C 0.5758(2) 0.6656(2) 0.2821(2)
H2U H 0.6222 0.6627 0.2698
H3U H 0.5685 0.6628 0.3460
N1U N 0.5770(2) 0.73334(19) 0.0913(2)
N2U N 0.5877(2) 0.73893(19) 0.2515(2)
O2A O 0.5227(3) 0.76136(34) -0.0259(3)
O3A O 0.5406(3) 0.77032(34) 0.3733(3)
C2A C 0.6229(2) 0.8503(3) 0.1674(2)
H1A H 0.6756 0.8948 0.1628
C4A C 0.5758(2) 0.9102(3) 0.2821(2)
H2A H 0.6222 0.9595 0.2698
H3A H 0.5685 0.9057 0.3460
N1A N 0.5770(2) 0.84366(28) 0.0913(2)
N2A N 0.5877(2) 0.84877(28) 0.2515(2)
C1B C 0.22248(34) 0.77748(17) 0.0452(3)
C2B C 0.1497(3) 0.7726(2) 0.1674(2)
H1B H 0.1052 0.7808 0.1628
C3B C 0.21584(34) 0.78414(16) 0.2991(3)
C4B C 0.0898(3) 0.6656(2) 0.2821(2)
H2B H 0.0405 0.6627 0.2698
H3B H 0.0943 0.6628 0.3460
N1B N 0.15634(28) 0.73334(19) 0.0913(2)
N2B N 0.15123(28) 0.73893(19) 0.2515(2)
O2B O 0.23864(34) 0.76134(17) -0.0259(3)
O3B O 0.22968(34) 0.77028(15) 0.3733(3)
C1K C 0.44419(34) 0.8883(3) 0.2881(3)
C2K C 0.5170(3) 0.9562(2) 0.1659(2)
H1K H 0.5615 1.0089 0.1705
C3K C 0.45083(34) 0.9016(3) 0.0342(3)
C4K C 0.5769(3) 0.9091(2) 0.0512(2)
H2K H 0.6262 0.9555 0.0635
H3K H 0.5724 0.9018 -0.0127
N1K N 0.51033(28) 0.9103(2) 0.2420(2)
N2K N 0.51544(28) 0.9210(2) 0.0818(2)
O2K O 0.42803(34) 0.8560(3) 0.3592(3)
O3K O 0.43699(34) 0.8739(3) -0.0400(3)
C2V C 0.2274(2) 0.8503(3) 0.1674(2)
H1V H 0.2192 0.8948 0.1628
C4V C 0.3344(2) 0.9102(3) 0.2821(2)
H2V H 0.3373 0.9595 0.2698
H3V H 0.3372 0.9057 0.3460
N1V N 0.26666(19) 0.84366(28) 0.0913(2)
N2V N 0.26107(19) 0.84877(28) 0.2515(2)
C2DA C 0.4393(2) 0.9562(2) 0.1659(2)
H1DA H 0.4475 1.0089 0.1705
C4DA C 0.3323(2) 0.9091(2) 0.0512(2)
H2DA H 0.3294 0.9555 0.0635
H3DA H 0.3295 0.9018 -0.0127
N1DA N 0.40001(19) 0.9103(2) 0.2420(2)
N2DA N 0.40560(19) 0.9210(2) 0.0818(2)
Cl1A Cl 0.6667 0.92762(11) -0.1667
Cd1A Cd 0.58501(7) 0.79250(8) -0.18555(6)
Cl2A Cl 0.5779(2) 0.78893(23) -0.3504(2)
O1A O 0.4758(4) 0.7953(6) -0.1836(3)
Cl1B Cl 0.07238(11) 0.73908(11) -0.1667
Cd1B Cd 0.20750(8) 0.79251(3) -0.18555(6)
Cl2B Cl 0.21107(23) 0.78897(12) -0.3504(2)
O1B O 0.2047(6) 0.6805(5) -0.1836(3)
Cd1I Cd 0.08166(7) 0.54082(3) 0.51888(6)
Cl2I Cl 0.0888(2) 0.54436(12) 0.6837(2)
O1I O 0.1909(4) 0.6528(5) 0.5169(3)
Cd1J Cd 0.45918(3) 0.54083(8) 0.51888(6)
Cl2J Cl 0.45564(12) 0.54440(23) 0.6837(2)
O1J O 0.3472(5) 0.5380(6) 0.5169(3)
Cd1K Cd 0.45917(8) 0.91834(7) 0.51888(6)
Cl2K Cl 0.45560(23) 0.9112(2) 0.6837(2)
O1K O 0.4620(6) 0.8091(4) 0.5169(3)
Cl1U Cl 0.6667 0.73908(11) -0.1667
O1U O 0.4758(4) 0.6805(5) -0.1836(3)
Cl1V Cl 0.26092(11) 0.92762(11) -0.1667
O1V O 0.3195(5) 0.7953(6) -0.1836(3)
Cl1W Cl 0.07238(11) 0.3333 -0.1667
O1W O 0.2047(6) 0.5242(4) -0.1836(3)
O1DA O 0.3472(5) 0.8091(4) 0.5169(3)
O1EA O 0.1909(4) 0.5380(6) 0.5169(3)
O1FA O 0.4620(6) 0.6528(5) 0.5169(3)
Cl1I Cl -0.0000 0.59425(11) 0.5000
Cl1J Cl 0.40575(11) 0.40571(11) 0.5000
Cl1K Cl 0.59429(11) 1.0000 0.5000
Cl1DA Cl 0.40575(11) 1.0000 0.5000
Cl1EA Cl -0.0000 0.40571(11) 0.5000
Cl1FA Cl 0.59429(11) 0.59425(11) 0.5000
Cd1O Cd 0.74832(7) 0.87416(3) -0.14778(6)
Cd1P Cd 0.12584(3) 0.87417(8) -0.14778(6)
Cd1Q Cd 0.12583(8) 0.25168(7) -0.14778(6)
loop_
_geom_bond_atom_site_label_1
_geom_bond_atom_site_label_2
_geom_bond_site_symmetry_1
_geom_bond_site_symmetry_2
Cl1 Cd1 1_555 1_555
Cd1 Cl2 1_555 1_555
O1 Cd1 1_555 1_555
C1 N1 1_555 1_555
C2 H1 1_555 1_555
C3 N2 1_555 1_555
C4 H2 1_555 1_555
H3 C4 1_555 1_555
N1 C2 1_555 1_555
N2 C2 1_555 1_555
O2 Cd1 1_555 1_555
O3 C3 1_555 1_555
C1J N1J 1_555 1_555
C2J H1J 1_555 1_555
C3J N2J 1_555 1_555
C4J N1 1_555 1_555
H2J C4J 1_555 1_555
H3J C4J 1_555 1_555
N1J C4 1_555 1_555
N2J C2J 1_555 1_555
O2J C1J 1_555 1_555
O3J C3J 1_555 1_555
C2W C2 1_555 1_555
H1W C2W 1_555 1_555
C4W H2W 1_555 1_555
H3W C4W 1_555 1_555
N1W C1 1_555 1_555
N2W C3 1_555 1_555
C1I N1EA 1_555 1_555
C2EA H1EA 1_555 1_555
C3I N2EA 1_555 1_555
C4EA N1W 1_555 1_555
H2EA C4EA 1_555 1_555
H3EA C4EA 1_555 1_555
N1EA C4W 1_555 1_555
N2EA C2EA 1_555 1_555
O2I C1I 1_555 1_555
O3I C3I 1_555 1_555
C2FA C2J 1_555 1_555
H1FA C2FA 1_555 1_555
C4FA H2FA 1_555 1_555
H3FA C4FA 1_555 1_555
N1FA C1J 1_555 1_555
N2FA C3J 1_555 1_555
C2I C2EA 1_555 1_555
H1I C2I 1_555 1_555
C4I H2I 1_555 1_555
H3I C4I 1_555 1_555
N1I C1I 1_555 1_555
N2I C3I 1_555 1_555
C1A N1U 1_555 1_555
C2U H1U 1_555 1_555
C3A N2U 1_555 1_555
C4U N1FA 1_555 1_555
H2U C4U 1_555 1_555
H3U C4U 1_555 1_555
N1U C4FA 1_555 1_555
N2U C2U 1_555 1_555
O2A C1A 1_555 1_555
O3A C3A 1_555 1_555
C2A C2U 1_555 1_555
H1A C2A 1_555 1_555
C4A H2A 1_555 1_555
H3A C4A 1_555 1_555
N1A C1A 1_555 1_555
N2A C3A 1_555 1_555
C1B N1B 1_555 1_555
C2B H1B 1_555 1_555
C3B N2B 1_555 1_555
C4B N1I 1_555 1_555
H2B C4B 1_555 1_555
H3B C4B 1_555 1_555
N1B C4I 1_555 1_555
N2B C2B 1_555 1_555
O2B C1B 1_555 1_555
O3B C3B 1_555 1_555
C1K N1K 1_555 1_555
C2K H1K 1_555 1_555
C3K N2K 1_555 1_555
C4K N1A 1_555 1_555
H2K C4K 1_555 1_555
H3K C4K 1_555 1_555
N1K C4A 1_555 1_555
N2K C2K 1_555 1_555
O2K C1K 1_555 1_555
O3K C3K 1_555 1_555
C2V C2B 1_555 1_555
H1V C2V 1_555 1_555
C4V H2V 1_555 1_555
H3V C4V 1_555 1_555
N1V C1B 1_555 1_555
N2V C3B 1_555 1_555
C2DA C2K 1_555 1_555
H1DA C2DA 1_555 1_555
C4DA N1V 1_555 1_555
H2DA C4DA 1_555 1_555
H3DA C4DA 1_555 1_555
N1DA C1K 1_555 1_555
N2DA C3K 1_555 1_555
Cl1A Cd1A 1_555 1_555
Cd1A O2A 1_555 1_555
Cl2A Cd1A 1_555 1_555
O1A Cd1A 1_555 1_555
Cl1B Cd1B 1_555 1_555
Cd1B O2B 1_555 1_555
Cl2B Cd1B 1_555 1_555
O1B Cd1B 1_555 1_555
Cd1I O2I 1_555 1_555
Cl2I Cd1I 1_555 1_555
O1I Cd1I 1_555 1_555
Cd1J O2J 1_555 1_555
Cl2J Cd1J 1_555 1_555
O1J Cd1J 1_555 1_555
Cd1K O2K 1_555 1_555
Cl2K Cd1K 1_555 1_555
O1K Cd1K 1_555 1_555
Cl1U Cd1A 1_555 1_555
O1U Cd1A 1_555 1_555
Cl1V Cd1B 1_555 1_555
O1V Cd1B 1_555 1_555
Cl1W Cd1 1_555 1_555
O1W Cd1 1_555 1_555
O1DA Cd1K 1_555 1_555
O1EA Cd1I 1_555 1_555
O1FA Cd1J 1_555 1_555
Cl1I Cd1I 1_555 1_555
Cl1J Cd1J 1_555 1_555
Cl1K Cd1K 1_555 1_555
Cl1DA Cd1K 1_555 1_555
Cl1EA Cd1I 1_555 1_555
Cl1FA Cd1J 1_555 1_555
Cd1O Cl1A 1_555 1_555
Cd1P Cl1B 1_555 1_555
Cd1Q Cl1 1_555 1_555
C1 O2 1_555 1_555
C4 N2 1_555 1_555
C2J N1J 1_555 1_555
C4J N2J 1_555 1_555
C2W N1W 1_555 1_555
C2W N2W 1_555 1_555
C4W N2W 1_555 1_555
C2EA N1EA 1_555 1_555
C4EA N2EA 1_555 1_555
C2FA N1FA 1_555 1_555
C2FA N2FA 1_555 1_555
C4FA N2FA 1_555 1_555
C2I N1I 1_555 1_555
C2I N2I 1_555 1_555
C4I N2I 1_555 1_555
C2U N1U 1_555 1_555
C4U N2U 1_555 1_555
C2A N1A 1_555 1_555
C2A N2A 1_555 1_555
C4A N2A 1_555 1_555
C2B N1B 1_555 1_555
C4B N2B 1_555 1_555
C2K N1K 1_555 1_555
C4K N2K 1_555 1_555
C2V N1V 1_555 1_555
C2V N2V 1_555 1_555
C4V N2V 1_555 1_555
C4V N1DA 1_555 1_555
C2DA N1DA 1_555 1_555
C2DA N2DA 1_555 1_555
C4DA N2DA 1_555 1_555
Cl1U Cd1O 1_555 1_555
Cl1V Cd1P 1_555 1_555
Cl1W Cd1Q 1_555 1_555

#END
