
#######################################################################
#
#                 Cambridge Crystallographic Data Centre
#                                CCDC 
#
#######################################################################
#
# If this CIF has been generated from an entry in the Cambridge 
# Structural Database, then it will include bibliographic, chemical, 
# crystal, experimental, refinement or atomic coordinate data resulting 
# from the CCDC's data processing and validation procedures.
#
#######################################################################

data_FEVQIG
_symmetry_cell_setting           triclinic
_symmetry_space_group_name_H-M   'P -1'
_symmetry_Int_Tables_number      2
_space_group_name_Hall           '-P 1'
loop_
_symmetry_equiv_pos_site_id
_symmetry_equiv_pos_as_xyz
1 x,y,z
2 -x,-y,-z
_cell_length_a                   9.060(3)
_cell_length_b                   9.848(3)
_cell_length_c                   13.208(4)
_cell_angle_alpha                86.76(3)
_cell_angle_beta                 79.04(3)
_cell_angle_gamma                88.14(2)
_cell_volume                     1154.83
loop_
_atom_site_label
_atom_site_type_symbol
_atom_site_fract_x
_atom_site_fract_y
_atom_site_fract_z
O7 O -0.9456(13) 0.5595(11) -0.3835(9)
C19 C -1.0134(9) 0.5718(8) -0.4750(6)
C19A C -0.9866(9) 0.4282(8) -0.5250(6)
O7A O -1.0544(13) 0.4405(11) -0.6165(9)
Cd1 Cd -0.50521(3) -0.08926(2) -0.24097(2)
N1 N -0.1818(4) -0.5813(3) -0.2341(3)
N2 N -0.1351(4) -0.7039(3) -0.2631(3)
C1 C -0.0080(4) -0.7518(4) -0.2369(3)
N3 N 0.0679(4) -0.6908(3) -0.1754(3)
N4 N 0.0221(4) -0.5674(3) -0.1466(3)
C2 C -0.0975(4) -0.5138(4) -0.1816(3)
N5 N -0.6894(4) -0.2043(4) -0.0587(3)
O1 O -0.6437(4) -0.0834(3) -0.0677(2)
O2 O -0.6444(4) -0.2774(3) -0.1325(3)
O3 O -0.7747(4) -0.2428(5) 0.0189(3)
N6 N -0.3649(4) -0.1666(4) -0.4387(3)
O4 O -0.4447(4) -0.2452(3) -0.3731(2)
O5 O -0.3482(4) -0.0496(3) -0.4128(2)
O6 O -0.3072(5) -0.2054(4) -0.5233(3)
N7 N -0.3010(3) -0.1793(3) -0.1772(2)
C3 C -0.2580(4) -0.3084(4) -0.1949(3)
H1 H -0.3102 -0.3572 -0.2344
C4 C -0.1402(4) -0.3732(4) -0.1576(3)
C5 C -0.0634(5) -0.2992(4) -0.0983(3)
H2 H 0.0165 -0.3388 -0.0715
C6 C -0.1077(5) -0.1661(4) -0.0797(3)
H3 H -0.0584 -0.1149 -0.0398
C7 C -0.2251(5) -0.1104(4) -0.1206(3)
H4 H -0.2532 -0.0202 -0.1084
N8 N 0.2616(3) -1.0430(3) -0.2877(2)
C8 C 0.1890(4) -0.9300(4) -0.2513(3)
H5 H 0.2321 -0.8801 -0.2072
C9 C 0.0541(4) -0.8835(4) -0.2753(3)
C10 C -0.0128(5) -0.9603(4) -0.3377(3)
H6 H -0.1042 -0.9325 -0.3553
C11 C 0.0583(5) -1.0784(5) -0.3734(4)
H7 H 0.0147 -1.1325 -0.4147
C12 C 1.1955(5) -2.1165(4) -0.3472(3)
H8 H 1.2430 -2.1962 -0.3722
N9 N 0.6162(4) -0.5255(3) -0.5787(3)
N10 N 0.3898(4) -0.4068(3) -0.5110(3)
C13 C 0.5058(4) -0.4346(4) -0.5869(3)
N11 N 0.4746(3) -0.1445(3) -0.7741(2)
C14 C 0.4661(4) -0.2217(4) -0.6876(3)
H9 H 0.4279 -0.1830 -0.6250
C15 C 0.5116(4) -0.3577(4) -0.6864(3)
C16 C 0.5660(5) -0.4161(4) -0.7795(4)
H10 H 0.6010 -0.5059 -0.7810
C17 C 0.5672(5) -0.3388(4) -0.8701(4)
H11 H 0.5985 -0.3765 -0.9338
C18 C 0.5210(4) -0.2045(4) -0.8638(3)
H12 H 0.5218 -0.1525 -0.9249
N8_2 N -0.7384(3) -0.0430(3) -0.2877(2)
Cd1_2 Cd 0.49479(3) -1.08926(2) -0.24097(2)
O1_2 O 0.3563(4) -1.0834(3) -0.0677(2)
N5_2 N 0.3106(4) -1.2043(4) -0.0587(3)
O2_2 O 0.3556(4) -1.2774(3) -0.1325(3)
O4_2 O 0.5553(4) -1.2452(3) -0.3731(2)
N6_2 N 0.6351(4) -1.1666(4) -0.4387(3)
O5_2 O 0.6518(4) -1.0496(3) -0.4128(2)
N7_2 N 0.6990(3) -1.1793(3) -0.1772(2)
C3_2 C 0.7420(4) -1.3084(4) -0.1949(3)
H1_2 H 0.6898 -1.3572 -0.2344
C4_2 C 0.8598(4) -1.3732(4) -0.1576(3)
C2_2 C 0.9025(4) -1.5138(4) -0.1816(3)
N1_2 N 0.8182(4) -1.5813(3) -0.2341(3)
N2_2 N 0.8649(4) -1.7039(3) -0.2631(3)
C1_2 C 0.9920(4) -1.7518(4) -0.2369(3)
N3_2 N 1.0679(4) -1.6908(3) -0.1754(3)
N4_2 N 1.0221(4) -1.5674(3) -0.1466(3)
C9_2 C 1.0541(4) -1.8835(4) -0.2753(3)
C8_2 C 1.1890(4) -1.9300(4) -0.2513(3)
C10_2 C 0.9872(5) -1.9603(4) -0.3377(3)
H6_2 H 0.8958 -1.9325 -0.3553
C11_2 C 1.0583(5) -2.0784(5) -0.3734(4)
H7_2 H 1.0147 -2.1325 -0.4147
N8_3 N 1.2616(3) -2.0430(3) -0.2877(2)
Cd1_3 Cd 1.49479(3) -2.08926(2) -0.24097(2)
Cd1A Cd 0.50521(3) 0.08926(2) -0.75903(2)
N11A N -0.4746(3) 0.1445(3) -0.2259(2)
N9A N 0.3838(4) -0.4745(3) -0.4213(3)
C5_2 C 0.9366(5) -1.2992(4) -0.0983(3)
H2_2 H 1.0165 -1.3388 -0.0715
C6_2 C 0.8923(5) -1.1661(4) -0.0797(3)
H3_2 H 0.9416 -1.1149 -0.0398
C7_2 C 0.7749(5) -1.1104(4) -0.1206(3)
H4_2 H 0.7468 -1.0202 -0.1084
N11A_2 N 0.5254(3) -0.8555(3) -0.2259(2)
C14A C 0.5339(4) -0.7783(4) -0.3124(3)
H9A H 0.5721 -0.8170 -0.3750
C15A C 0.4884(4) -0.6423(4) -0.3136(3)
C13A C 0.4942(4) -0.5654(4) -0.4131(3)
N10A N 0.6102(4) -0.5932(3) -0.4890(3)
C16A C 0.4340(5) -0.5839(4) -0.2205(4)
H10A H 0.3990 -0.4941 -0.2190
C17A C 0.4328(5) -0.6612(4) -0.1299(4)
H11A H 0.4015 -0.6235 -0.0662
C18A C 0.4790(4) -0.7955(4) -0.1362(3)
H12A H 0.4782 -0.8475 -0.0751
O6_2 O 0.6928(5) -1.2054(4) -0.5233(3)
O3_2 O 0.2253(4) -1.2428(5) 0.0189(3)
C12_2 C 0.1955(5) -1.1165(4) -0.3472(3)
H8_2 H 0.2430 -1.1962 -0.3722
H5_2 H 1.2321 -1.8801 -0.2072
loop_
_geom_bond_atom_site_label_1
_geom_bond_atom_site_label_2
_geom_bond_site_symmetry_1
_geom_bond_site_symmetry_2
Cd1 O1 1_555 1_555
N1 N2 1_555 1_555
N2 C1 1_555 1_555
C1 N3 1_555 1_555
N3 N4 1_555 1_555
N4 C2 1_555 1_555
C2 N1 1_555 1_555
N5 O1 1_555 1_555
O2 Cd1 1_555 1_555
O3 N5 1_555 1_555
N6 O4 1_555 1_555
O4 Cd1 1_555 1_555
O5 Cd1 1_555 1_555
O6 N6 1_555 1_555
N7 Cd1 1_555 1_555
C3 N7 1_555 1_555
H1 C3 1_555 1_555
C4 C2 1_555 1_555
C5 C4 1_555 1_555
H2 C5 1_555 1_555
C6 C5 1_555 1_555
H3 C6 1_555 1_555
C7 N7 1_555 1_555
H4 C7 1_555 1_555
N8 C8 1_555 1_555
C8 H5 1_555 1_555
C9 C1 1_555 1_555
C10 C9 1_555 1_555
H6 C10 1_555 1_555
C11 C10 1_555 1_555
H7 C11 1_555 1_555
C12 H8 1_555 1_555
N9 C13 1_555 1_555
N10 C13 1_555 1_555
C13 C15 1_555 1_555
N11 C14 1_555 1_555
C14 H9 1_555 1_555
C15 C14 1_555 1_555
C16 C15 1_555 1_555
H10 C16 1_555 1_555
C17 C16 1_555 1_555
H11 C17 1_555 1_555
C18 N11 1_555 1_555
H12 C18 1_555 1_555
O7 C19 1_555 1_555
C19 C19A 1_555 1_555
N8_2 Cd1 1_555 1_555
Cd1_2 N8 1_555 1_555
O1_2 Cd1_2 1_555 1_555
N5_2 O1_2 1_555 1_555
O2_2 Cd1_2 1_555 1_555
O4_2 Cd1_2 1_555 1_555
N6_2 O4_2 1_555 1_555
O5_2 Cd1_2 1_555 1_555
N7_2 Cd1_2 1_555 1_555
C3_2 N7_2 1_555 1_555
H1_2 C3_2 1_555 1_555
C4_2 C3_2 1_555 1_555
C2_2 C4_2 1_555 1_555
N1_2 C2_2 1_555 1_555
N2_2 N1_2 1_555 1_555
C1_2 N2_2 1_555 1_555
N3_2 C1_2 1_555 1_555
N4_2 C2_2 1_555 1_555
C9_2 C1_2 1_555 1_555
C8_2 C9_2 1_555 1_555
C10_2 C9_2 1_555 1_555
H6_2 C10_2 1_555 1_555
C11_2 C12 1_555 1_555
H7_2 C11_2 1_555 1_555
N8_3 C12 1_555 1_555
Cd1_3 N8_3 1_555 1_555
Cd1A N11 1_555 1_555
N11A Cd1 1_555 1_555
N9A N10 1_555 1_555
C5_2 C4_2 1_555 1_555
H2_2 C5_2 1_555 1_555
C6_2 C5_2 1_555 1_555
H3_2 C6_2 1_555 1_555
C7_2 N7_2 1_555 1_555
H4_2 C7_2 1_555 1_555
N11A_2 Cd1_2 1_555 1_555
C14A N11A_2 1_555 1_555
H9A C14A 1_555 1_555
C15A C14A 1_555 1_555
C13A N9A 1_555 1_555
N10A N9 1_555 1_555
C16A C15A 1_555 1_555
H10A C16A 1_555 1_555
C17A C16A 1_555 1_555
H11A C17A 1_555 1_555
C18A N11A_2 1_555 1_555
H12A C18A 1_555 1_555
O6_2 N6_2 1_555 1_555
O3_2 N5_2 1_555 1_555
C12_2 N8 1_555 1_555
H8_2 C12_2 1_555 1_555
C19A O7A 1_555 1_555
H5_2 C8_2 1_555 1_555
N5 O2 1_555 1_555
N6 O5 1_555 1_555
C3 C4 1_555 1_555
C6 C7 1_555 1_555
C8 C9 1_555 1_555
C11 C12_2 1_555 1_555
C17 C18 1_555 1_555
N5_2 O2_2 1_555 1_555
N6_2 O5_2 1_555 1_555
N3_2 N4_2 1_555 1_555
C8_2 N8_3 1_555 1_555
C10_2 C11_2 1_555 1_555
C6_2 C7_2 1_555 1_555
C15A C13A 1_555 1_555
C13A N10A 1_555 1_555
C17A C18A 1_555 1_555

#END
