
#######################################################################
#
#                 Cambridge Crystallographic Data Centre
#                                CCDC 
#
#######################################################################
#
# If this CIF has been generated from an entry in the Cambridge 
# Structural Database, then it will include bibliographic, chemical, 
# crystal, experimental, refinement or atomic coordinate data resulting 
# from the CCDC's data processing and validation procedures.
#
#######################################################################

data_FEVQAY
_symmetry_cell_setting           monoclinic
_symmetry_space_group_name_H-M   'C 2/c'
_symmetry_Int_Tables_number      15
_space_group_name_Hall           '-C 2yn'
loop_
_symmetry_equiv_pos_site_id
_symmetry_equiv_pos_as_xyz
1 x,y,z
2 1/2+x,1/2+y,z
3 x,-y,1/2+z
4 1/2+x,1/2-y,1/2+z
5 -x,-y,-z
6 1/2-x,1/2-y,-z
7 -x,y,1/2-z
8 1/2-x,1/2+y,1/2-z
_cell_length_a                   20.177(7)
_cell_length_b                   6.381(2)
_cell_length_c                   11.071(3)
_cell_angle_alpha                90
_cell_angle_beta                 111.80(2)
_cell_angle_gamma                90
_cell_volume                     1323.45
loop_
_atom_site_label
_atom_site_type_symbol
_atom_site_fract_x
_atom_site_fract_y
_atom_site_fract_z
Cu1 Cu 0.0000 0.35389(9) 0.2500
Sn1 Sn -0.2500 0.7500 0.0000
C1 C -0.0910(2) 0.4918(5) 0.1719(4)
N1 N -0.1435(2) 0.5784(6) 0.1215(4)
C2 C -0.1937(5) 1.0283(14) 0.0356(9)
H1 H -0.2261(10) 1.1428(23) 0.001(11)
H2 H -0.1592(47) 1.0248(81) -0.005(11)
H3 H -0.1696(56) 1.0467(98) 0.1277(10)
C3 C -0.2961(7) 0.6294(24) 0.1332(15)
H4 H -0.2609(21) 0.631(19) 0.2200(22)
H5 H -0.3122(61) 0.4884(75) 0.1093(75)
H6 H -0.3358(44) 0.716(12) 0.1297(93)
C4 C -0.2581(7) 0.5520(18) -0.1587(9)
H7 H -0.2914(47) 0.6110(94) -0.2377(17)
H8 H -0.2744(60) 0.4160(57) -0.1450(54)
H9 H -0.2121(14) 0.539(15) -0.1653(70)
N2 N 0.0004(2) 0.1340(5) 0.1011(3)
C5 C 0.0321(2) -0.0555(6) 0.1237(3)
H10 H 0.0551(2) -0.0995(6) 0.2092(3)
C6 C -0.0314(2) 0.1864(6) -0.0240(4)
H11 H -0.0540(2) 0.3159(6) -0.0448(4)
C6D C 0.0314(2) -0.1864(6) 0.0240(4)
N2D N -0.0004(2) -0.1340(5) -0.1011(3)
C5D C -0.0321(2) 0.0555(6) -0.1237(3)
H10D H -0.0551(2) 0.0995(6) -0.2092(3)
H11D H 0.0540(2) -0.3159(6) 0.0448(4)
C1F C 0.0910(2) 0.4918(5) 0.3281(4)
N1F N 0.1435(2) 0.5784(6) 0.3785(4)
C2E C -0.3063(5) 0.4717(14) -0.0356(9)
H1E H -0.2739(10) 0.3572(23) -0.001(11)
H2E H -0.3408(47) 0.4752(81) 0.005(11)
H3E H -0.3304(56) 0.4533(98) -0.1277(10)
C3E C -0.2039(7) 0.8706(24) -0.1332(15)
H4E H -0.2391(21) 0.869(19) -0.2200(22)
H5E H -0.1878(61) 1.0116(75) -0.1093(75)
H6E H -0.1642(44) 0.784(12) -0.1297(93)
C4E C -0.2419(7) 0.9480(18) 0.1587(9)
H7E H -0.2086(47) 0.8890(94) 0.2377(17)
H8E H -0.2256(60) 1.0840(57) 0.1450(54)
H9E H -0.2879(14) 0.961(15) 0.1653(70)
N2F N -0.0004(2) 0.1340(5) 0.3989(3)
N1E N -0.3565(2) 0.9216(6) -0.1215(4)
Cu1B Cu 0.0000 -0.35389(9) -0.2500
Sn1C Sn 0.2500 0.7500 0.5000
loop_
_geom_bond_atom_site_label_1
_geom_bond_atom_site_label_2
_geom_bond_site_symmetry_1
_geom_bond_site_symmetry_2
Cu1 C1 1_555 1_555
Sn1 N1 1_555 1_555
C1 N1 1_555 1_555
C2 Sn1 1_555 1_555
H1 C2 1_555 1_555
H2 C2 1_555 1_555
H3 C2 1_555 1_555
C3 Sn1 1_555 1_555
H4 C3 1_555 1_555
H5 C3 1_555 1_555
H6 C3 1_555 1_555
C4 Sn1 1_555 1_555
H7 C4 1_555 1_555
H8 C4 1_555 1_555
H9 C4 1_555 1_555
N2 Cu1 1_555 1_555
C5 N2 1_555 1_555
H10 C5 1_555 1_555
C6 N2 1_555 1_555
H11 C6 1_555 1_555
C6D C5 1_555 1_555
N2D C6D 1_555 1_555
C5D C6 1_555 1_555
H10D C5D 1_555 1_555
H11D C6D 1_555 1_555
C1F Cu1 1_555 1_555
N1F C1F 1_555 1_555
C2E Sn1 1_555 1_555
H1E C2E 1_555 1_555
H2E C2E 1_555 1_555
H3E C2E 1_555 1_555
C3E Sn1 1_555 1_555
H4E C3E 1_555 1_555
H5E C3E 1_555 1_555
H6E C3E 1_555 1_555
C4E Sn1 1_555 1_555
H7E C4E 1_555 1_555
H8E C4E 1_555 1_555
H9E C4E 1_555 1_555
N2F Cu1 1_555 1_555
N1E Sn1 1_555 1_555
Cu1B N2D 1_555 1_555
Sn1C N1F 1_555 1_555
N2D C5D 1_555 1_555

#END
