
#######################################################################
#
#                 Cambridge Crystallographic Data Centre
#                                CCDC 
#
#######################################################################
#
# If this CIF has been generated from an entry in the Cambridge 
# Structural Database, then it will include bibliographic, chemical, 
# crystal, experimental, refinement or atomic coordinate data resulting 
# from the CCDC's data processing and validation procedures.
#
#######################################################################

data_FEVQOM
_symmetry_cell_setting           triclinic
_symmetry_space_group_name_H-M   'P -1'
_symmetry_Int_Tables_number      2
_space_group_name_Hall           '-P 1'
loop_
_symmetry_equiv_pos_site_id
_symmetry_equiv_pos_as_xyz
1 x,y,z
2 -x,-y,-z
_cell_length_a                   8.981(16)
_cell_length_b                   9.93(2)
_cell_length_c                   13.19(2)
_cell_angle_alpha                94.12(15)
_cell_angle_beta                 102.35(13)
_cell_angle_gamma                88.12(15)
_cell_volume                     1145.93
loop_
_atom_site_label
_atom_site_type_symbol
_atom_site_fract_x
_atom_site_fract_y
_atom_site_fract_z
C19 C 0.565(3) -1.484(2) -0.0054(19)
Cl1 Cl 0.4160(9) -1.3793(8) -0.0179(6)
C19A C 0.435(3) -1.516(2) 0.0054(19)
Cl1A Cl 0.5840(9) -1.6207(8) 0.0179(6)
Cd1 Cd 1.00019(5) -1.08661(5) -0.26132(4)
N1 N 0.5753(6) -0.6856(5) -0.3247(4)
N2 N 0.5297(7) -0.5632(6) -0.3522(5)
C1 C 0.4102(7) -0.5096(6) -0.3179(5)
N3 N 0.3268(6) -0.5728(6) -0.2638(5)
N4 N 0.3716(6) -0.6952(6) -0.2360(5)
C2 C 0.4988(7) -0.7459(6) -0.2647(5)
N5 N 1.1285(7) -1.1600(6) -0.0596(4)
O1 O 1.0549(6) -1.2417(5) -0.1301(4)
O2 O 1.1502(7) -1.0448(5) -0.0852(4)
O3 O 1.1727(7) -1.1936(6) 0.0292(4)
N6 N 0.8097(6) -1.2031(6) -0.4454(4)
O4 O 0.8548(5) -1.0822(5) -0.4354(3)
O5 O 0.7201(6) -1.2437(6) -0.5251(4)
O6 O 0.8600(6) -1.2772(5) -0.3725(4)
N7 N 0.7629(6) -1.0400(5) -0.2184(4)
C3 C 0.6920(7) -0.9267(6) -0.2532(4)
H1 H 0.7363 -0.8771 -0.2979
C4 C 0.5572(7) -0.8774(6) -0.2278(4)
C5 C 0.4938(8) -0.9509(7) -0.1624(5)
H2 H 0.4022 -0.9203 -0.1424
C6 C 0.5647(8) -1.0679(7) -0.1270(5)
H3 H 0.5217 -1.1202 -0.0833
C7 C 0.6987(8) -1.1089(7) -0.1553(5)
H4 H 0.7480 -1.1892 -0.1291
N8 N 0.2064(6) -0.1753(5) -0.3234(4)
C8 C 0.2492(7) -0.3045(6) -0.3056(4)
H5 H 0.1959 -0.3530 -0.2654
C9 C 0.3666(7) -0.3693(6) -0.3426(4)
C10 C 0.4453(7) -0.2974(7) -0.4017(5)
H6 H 0.5274 -0.3385 -0.4281
C11 C 0.4010(8) -0.1659(7) -0.4206(5)
H7 H 0.4517 -0.1154 -0.4611
C12 C -0.7177(7) 0.8923(7) -0.3803(5)
H8 H -0.7466 0.9834 -0.3934
N9 N 0.1119(7) 0.4707(6) 0.0836(5)
N10 N -0.1071(8) 0.5979(6) 0.0068(5)
C13 C 0.0019(8) 0.5672(6) 0.0873(6)
N11 N -0.0323(6) 0.8554(5) 0.2754(4)
C14 C -0.0344(8) 0.7743(7) 0.1886(5)
H9 H -0.0678 0.8131 0.1237
C15 C 0.0077(9) 0.6407(6) 0.1866(6)
C16 C 0.0597(9) 0.5851(7) 0.2816(6)
H10 H 0.0947 0.4939 0.2841
C17 C 0.0600(9) 0.6639(7) 0.3726(6)
H11 H 0.0909 0.6267 0.4384
C18 C 0.0143(8) 0.7978(7) 0.3659(5)
H12 H 0.0161 0.8518 0.4285
N8_2 N 1.2064(6) -1.1753(5) -0.3234(4)
Cd1_2 Cd 0.00019(5) -0.08661(5) -0.26132(4)
O1_2 O 0.0549(6) -0.2417(5) -0.1301(4)
N5_2 N 0.1285(7) -0.1600(6) -0.0596(4)
O2_2 O 0.1502(7) -0.0448(5) -0.0852(4)
O4_2 O -0.1452(5) -0.0822(5) -0.4354(3)
N6_2 N -0.1903(6) -0.2031(6) -0.4454(4)
O5_2 O -0.2799(6) -0.2437(6) -0.5251(4)
O6_2 O -0.1400(6) -0.2772(5) -0.3725(4)
N7_2 N -0.2371(6) -0.0400(5) -0.2184(4)
C3_2 C -0.3080(7) 0.0733(6) -0.2532(4)
H1_2 H -0.2637 0.1229 -0.2979
C4_2 C -0.4428(7) 0.1226(6) -0.2278(4)
C2_2 C -0.5012(7) 0.2541(6) -0.2647(5)
N1_2 N -0.4247(6) 0.3144(5) -0.3247(4)
N2_2 N -0.4703(7) 0.4368(6) -0.3522(5)
C1_2 C -0.5898(7) 0.4904(6) -0.3179(5)
N3_2 N -0.6732(6) 0.4272(6) -0.2638(5)
N4_2 N -0.6284(6) 0.3048(6) -0.2360(5)
C9_2 C -0.6334(7) 0.6307(6) -0.3426(4)
C8_2 C -0.7508(7) 0.6955(6) -0.3056(4)
C10_2 C -0.5547(7) 0.7026(7) -0.4017(5)
H6_2 H -0.4726 0.6615 -0.4281
C11_2 C -0.5990(8) 0.8341(7) -0.4206(5)
H7_2 H -0.5483 0.8846 -0.4611
N8_3 N -0.7936(6) 0.8247(5) -0.3234(4)
Cd1_3 Cd -0.99981(5) 0.91339(5) -0.26132(4)
Cd1A Cd -0.00019(5) 1.08661(5) 0.26132(4)
N11A N 1.0323(6) -0.8554(5) -0.2754(4)
N9A N -0.1119(7) 0.5293(6) -0.0836(5)
C5_2 C -0.5062(8) 0.0491(7) -0.1624(5)
H2_2 H -0.5978 0.0797 -0.1424
C6_2 C -0.4353(8) -0.0679(7) -0.1270(5)
H3_2 H -0.4783 -0.1202 -0.0833
C7_2 C -0.3013(8) -0.1089(7) -0.1553(5)
H4_2 H -0.2520 -0.1892 -0.1291
N11A_2 N 0.0323(6) 0.1446(5) -0.2754(4)
C14A C 0.0344(8) 0.2257(7) -0.1886(5)
H9A H 0.0678 0.1869 -0.1237
C15A C -0.0077(9) 0.3593(6) -0.1866(6)
C13A C -0.0019(8) 0.4328(6) -0.0873(6)
N10A N 0.1071(8) 0.4021(6) -0.0068(5)
C16A C -0.0597(9) 0.4149(7) -0.2816(6)
H10A H -0.0947 0.5061 -0.2841
C17A C -0.0600(9) 0.3361(7) -0.3726(6)
H11A H -0.0909 0.3733 -0.4384
C18A C -0.0143(8) 0.2022(7) -0.3659(5)
H12A H -0.0161 0.1482 -0.4285
O3_2 O 0.1727(7) -0.1936(6) 0.0292(4)
C12_2 C 0.2823(7) -0.1077(7) -0.3803(5)
H8_2 H 0.2534 -0.0166 -0.3934
H5_2 H -0.8041 0.6470 -0.2654
Cl2? Cl 0.4975(10) -0.3728(8) 0.9435(7)
loop_
_geom_bond_atom_site_label_1
_geom_bond_atom_site_label_2
_geom_bond_site_symmetry_1
_geom_bond_site_symmetry_2
Cd1 O1 1_555 1_555
N1 N2 1_555 1_555
N2 C1 1_555 1_555
C1 N3 1_555 1_555
N3 N4 1_555 1_555
N4 C2 1_555 1_555
C2 N1 1_555 1_555
N5 O1 1_555 1_555
O2 Cd1 1_555 1_555
O3 N5 1_555 1_555
N6 O4 1_555 1_555
O4 Cd1 1_555 1_555
O5 N6 1_555 1_555
O6 Cd1 1_555 1_555
N7 Cd1 1_555 1_555
C3 N7 1_555 1_555
H1 C3 1_555 1_555
C4 C2 1_555 1_555
C5 C4 1_555 1_555
H2 C5 1_555 1_555
C6 C5 1_555 1_555
H3 C6 1_555 1_555
C7 N7 1_555 1_555
H4 C7 1_555 1_555
N8 C8 1_555 1_555
C8 H5 1_555 1_555
C9 C1 1_555 1_555
C10 C9 1_555 1_555
H6 C10 1_555 1_555
C11 C10 1_555 1_555
H7 C11 1_555 1_555
C12 H8 1_555 1_555
N9 C13 1_555 1_555
N10 C13 1_555 1_555
C13 C15 1_555 1_555
N11 C14 1_555 1_555
C14 H9 1_555 1_555
C15 C14 1_555 1_555
C16 C15 1_555 1_555
H10 C16 1_555 1_555
C17 C16 1_555 1_555
H11 C17 1_555 1_555
C18 N11 1_555 1_555
H12 C18 1_555 1_555
C19 Cl1 1_555 1_555
Cl1 C19A 1_555 1_555
N8_2 Cd1 1_555 1_555
Cd1_2 N8 1_555 1_555
O1_2 Cd1_2 1_555 1_555
N5_2 O1_2 1_555 1_555
O2_2 Cd1_2 1_555 1_555
O4_2 Cd1_2 1_555 1_555
N6_2 O4_2 1_555 1_555
O5_2 N6_2 1_555 1_555
O6_2 Cd1_2 1_555 1_555
N7_2 Cd1_2 1_555 1_555
C3_2 N7_2 1_555 1_555
H1_2 C3_2 1_555 1_555
C4_2 C3_2 1_555 1_555
C2_2 C4_2 1_555 1_555
N1_2 C2_2 1_555 1_555
N2_2 N1_2 1_555 1_555
C1_2 N2_2 1_555 1_555
N3_2 C1_2 1_555 1_555
N4_2 C2_2 1_555 1_555
C9_2 C1_2 1_555 1_555
C8_2 C9_2 1_555 1_555
C10_2 C9_2 1_555 1_555
H6_2 C10_2 1_555 1_555
C11_2 C12 1_555 1_555
H7_2 C11_2 1_555 1_555
N8_3 C12 1_555 1_555
Cd1_3 N8_3 1_555 1_555
Cd1A N11 1_555 1_555
N11A Cd1 1_555 1_555
N9A N10 1_555 1_555
C5_2 C4_2 1_555 1_555
H2_2 C5_2 1_555 1_555
C6_2 C5_2 1_555 1_555
H3_2 C6_2 1_555 1_555
C7_2 N7_2 1_555 1_555
H4_2 C7_2 1_555 1_555
N11A_2 Cd1_2 1_555 1_555
C14A N11A_2 1_555 1_555
H9A C14A 1_555 1_555
C15A C14A 1_555 1_555
C13A N9A 1_555 1_555
N10A N9 1_555 1_555
C16A C15A 1_555 1_555
H10A C16A 1_555 1_555
C17A C16A 1_555 1_555
H11A C17A 1_555 1_555
C18A N11A_2 1_555 1_555
H12A C18A 1_555 1_555
O3_2 N5_2 1_555 1_555
C12_2 N8 1_555 1_555
H8_2 C12_2 1_555 1_555
C19A C19 1_555 1_555
Cl1A C19 1_555 1_555
H5_2 C8_2 1_555 1_555
N5 O2 1_555 1_555
N6 O6 1_555 1_555
C3 C4 1_555 1_555
C6 C7 1_555 1_555
C8 C9 1_555 1_555
C11 C12_2 1_555 1_555
C17 C18 1_555 1_555
N5_2 O2_2 1_555 1_555
N6_2 O6_2 1_555 1_555
N3_2 N4_2 1_555 1_555
C8_2 N8_3 1_555 1_555
C10_2 C11_2 1_555 1_555
C6_2 C7_2 1_555 1_555
C15A C13A 1_555 1_555
C13A N10A 1_555 1_555
C17A C18A 1_555 1_555
C19A Cl1A 1_555 1_555

#END
