
#######################################################################
#
#                 Cambridge Crystallographic Data Centre
#                                CCDC 
#
#######################################################################
#
# If this CIF has been generated from an entry in the Cambridge 
# Structural Database, then it will include bibliographic, chemical, 
# crystal, experimental, refinement or atomic coordinate data resulting 
# from the CCDC's data processing and validation procedures.
#
#######################################################################

data_FEVRED
_symmetry_cell_setting           triclinic
_symmetry_space_group_name_H-M   'P -1'
_symmetry_Int_Tables_number      2
_space_group_name_Hall           '-P 1'
loop_
_symmetry_equiv_pos_site_id
_symmetry_equiv_pos_as_xyz
1 x,y,z
2 -x,-y,-z
_cell_length_a                   9.1110(18)
_cell_length_b                   12.474(3)
_cell_length_c                   13.171(3)
_cell_angle_alpha                117.79(3)
_cell_angle_beta                 102.39(3)
_cell_angle_gamma                101.13(3)
_cell_volume                     1216.73
loop_
_atom_site_label
_atom_site_type_symbol
_atom_site_fract_x
_atom_site_fract_y
_atom_site_fract_z
Zn1 Zn 0.09797(7) 0.65996(6) 0.83541(5)
N1 N 0.0162(5) 0.0784(4) 0.3669(4)
N2 N 0.0513(5) 0.0276(4) 0.2644(4)
C1 C 0.1662(6) 0.1065(5) 0.2569(5)
N3 N 0.2525(5) 0.2266(4) 0.3445(4)
N4 N 0.2165(5) 0.2788(4) 0.4469(4)
C2 C 0.0958(6) 0.2006(5) 0.4508(5)
N5 N 0.2140(6) 0.6743(4) 0.6722(4)
O1 O 0.0720(5) 0.6719(4) 0.6655(4)
O2 O 0.2986(5) 0.6818(4) 0.7669(4)
O3 O 0.2627(5) 0.6708(4) 0.5920(4)
N6 N 0.2644(5) 0.6850(4) 1.0528(4)
O4 O 0.1165(4) 0.6590(4) 0.9966(3)
O5 O 0.3613(5) 0.7024(4) 1.0027(4)
O6 O 0.3055(4) 0.6914(4) 1.1508(4)
N7 N 0.0620(5) 0.4543(4) 0.7367(4)
C4 C 0.0913(6) 0.3923(5) 0.6316(4)
H3 H 0.1396 0.4420 0.6031
C5 C 0.0552(6) 0.2618(5) 0.5642(5)
C6 C -0.0186(6) 0.1862(5) 0.6032(5)
H4 H -0.0468 0.0951 0.5578
C7 C -0.0488(7) 0.2500(6) 0.7108(5)
H5 H -0.0981 0.2029 0.7412
C8 C -0.0072(6) 0.3816(5) 0.7733(5)
H6 H -0.0291 0.4231 0.8469
N8 N 0.1660(5) -0.1317(4) -0.0529(4)
C9 C 0.1363(6) -0.0760(5) 0.0537(5)
H7 H 0.0650 -0.1295 0.0678
C10 C 0.2029(6) 0.0520(5) 0.1415(5)
C11 C 0.3094(6) 0.1324(5) 0.1242(5)
H8 H 0.3607 0.2214 0.1849
C12 C 0.3381(6) 0.0772(5) 0.0143(5)
H9 H 0.4078 0.1287 -0.0026
C13 C 0.2653(6) -1.0507(5) -1.0682(5)
H10 H 0.2863 -1.0857 -1.1426
N9 N -0.6500(5) -0.5856(4) -0.0415(4)
N10 N -0.4060(5) -0.4295(5) 0.1209(4)
C14 C -0.5528(6) -0.5148(5) 0.0769(5)
N11 N -0.8451(5) -0.6024(4) 0.2094(4)
C15 C -0.7761(6) -0.5975(5) 0.1294(5)
H11 H -0.8395 -0.6442 0.0448
C16 C -0.6170(6) -0.5271(5) 0.1659(5)
C17 C -0.5234(6) -0.4620(6) 0.2899(5)
H12 H -0.4133 -0.4147 0.3174
C18 C -0.5917(6) -0.4669(6) 0.3722(5)
H13 H -0.5301 -0.4229 0.4569
C19 C -0.7516(6) -0.5372(5) 0.3284(5)
H14 H -0.7985 -0.5399 0.3854
N8_2 N 0.1660(5) 0.8683(4) 0.9471(4)
Zn1_2 Zn 0.09797(7) -0.34004(6) -0.16459(5)
O1_2 O 0.0720(5) -0.3281(4) -0.3345(4)
N5_2 N 0.2140(6) -0.3257(4) -0.3278(4)
O2_2 O 0.2986(5) -0.3182(4) -0.2331(4)
O4_2 O 0.1165(4) -0.3410(4) -0.0034(3)
N6_2 N 0.2644(5) -0.3150(4) 0.0528(4)
O5_2 O 0.3613(5) -0.2976(4) 0.0027(4)
O6_2 O 0.3055(4) -0.3086(4) 0.1508(4)
N7_2 N 0.0620(5) -0.5457(4) -0.2633(4)
C4_2 C 0.0913(6) -0.6077(5) -0.3684(4)
H3_2 H 0.1396 -0.5580 -0.3969
C5_2 C 0.0552(6) -0.7382(5) -0.4358(5)
C2_2 C 0.0958(6) -0.7994(5) -0.5492(5)
N1_2 N 0.0162(5) -0.9216(4) -0.6331(4)
N2_2 N 0.0513(5) -0.9724(4) -0.7356(4)
C1_2 C 0.1662(6) -0.8935(5) -0.7431(5)
N3_2 N 0.2525(5) -0.7734(4) -0.6555(4)
N4_2 N 0.2165(5) -0.7212(4) -0.5531(4)
C10_2 C 0.2029(6) -0.9480(5) -0.8585(5)
C9_2 C 0.1363(6) -1.0760(5) -0.9463(5)
C11_2 C 0.3094(6) -0.8676(5) -0.8758(5)
H8_2 H 0.3607 -0.7786 -0.8151
C12_2 C 0.3381(6) -0.9228(5) -0.9857(5)
H9_2 H 0.4078 -0.8713 -1.0026
N8_3 N 0.1660(5) -1.1317(4) -1.0529(4)
Zn1_3 Zn 0.09797(7) -1.34004(6) -1.16459(5)
Zn1A Zn -1.09797(7) -0.65996(6) 0.16459(5)
N11A N -0.1549(5) 0.6024(4) 0.7906(4)
N9A N -0.3500(5) -0.4144(4) 0.0415(4)
C6_2 C -0.0186(6) -0.8138(5) -0.3968(5)
H4_2 H -0.0468 -0.9049 -0.4422
C7_2 C -0.0488(7) -0.7500(6) -0.2892(5)
H5_2 H -0.0981 -0.7971 -0.2588
C8_2 C -0.0072(6) -0.6184(5) -0.2267(5)
H6_2 H -0.0291 -0.5769 -0.1531
N11A_2 N -0.1549(5) -0.3976(4) -0.2094(4)
C15A C -0.2239(6) -0.4025(5) -0.1294(5)
H11A H -0.1605 -0.3558 -0.0448
C16A C -0.3830(6) -0.4729(5) -0.1659(5)
C14A C -0.4472(6) -0.4852(5) -0.0769(5)
N10A N -0.5940(5) -0.5705(5) -0.1209(4)
C17A C -0.4766(6) -0.5380(6) -0.2899(5)
H12A H -0.5867 -0.5853 -0.3174
C18A C -0.4083(6) -0.5331(6) -0.3722(5)
H13A H -0.4699 -0.5771 -0.4569
C19A C -0.2484(6) -0.4628(5) -0.3284(5)
H14A H -0.2015 -0.4601 -0.3854
O3_2 O 0.2627(5) -0.3292(4) -0.4080(4)
C13_2 C 0.2653(6) -0.0507(5) -0.0682(5)
H10_2 H 0.2863 -0.0857 -0.1426
H7_2 H 0.0650 -1.1295 -0.9322
Cl1 Cl -0.5670(3) -0.0177(2) 0.7030(2)
Cl2 Cl -0.6158(2) 0.1091(2) 0.56799(18)
C3 C -0.6405(8) 0.0972(7) 0.6922(7)
H1 H -0.5837 0.1820 0.7693
H2 H -0.7554 0.0734 0.6813
loop_
_geom_bond_atom_site_label_1
_geom_bond_atom_site_label_2
_geom_bond_site_symmetry_1
_geom_bond_site_symmetry_2
Zn1 O1 1_555 1_555
Cl1 C3 1_555 1_555
N1 N2 1_555 1_555
Cl2 C3 1_555 1_555
N2 C1 1_555 1_555
C1 N3 1_555 1_555
N3 N4 1_555 1_555
N4 C2 1_555 1_555
C2 N1 1_555 1_555
N5 O1 1_555 1_555
C3 H1 1_555 1_555
H2 C3 1_555 1_555
O2 Zn1 1_555 1_555
O3 N5 1_555 1_555
N6 O4 1_555 1_555
O4 Zn1 1_555 1_555
O5 N6 1_555 1_555
O6 N6 1_555 1_555
N7 Zn1 1_555 1_555
C4 N7 1_555 1_555
H3 C4 1_555 1_555
C5 C2 1_555 1_555
C6 C5 1_555 1_555
H4 C6 1_555 1_555
C7 C6 1_555 1_555
H5 C7 1_555 1_555
C8 N7 1_555 1_555
H6 C8 1_555 1_555
N8 C9 1_555 1_555
C9 H7 1_555 1_555
C10 C1 1_555 1_555
C11 C10 1_555 1_555
H8 C11 1_555 1_555
C12 C11 1_555 1_555
H9 C12 1_555 1_555
C13 H10 1_555 1_555
N9 C14 1_555 1_555
N10 C14 1_555 1_555
C14 C16 1_555 1_555
N11 C15 1_555 1_555
C15 H11 1_555 1_555
C16 C15 1_555 1_555
C17 C16 1_555 1_555
H12 C17 1_555 1_555
C18 C17 1_555 1_555
H13 C18 1_555 1_555
C19 N11 1_555 1_555
H14 C19 1_555 1_555
N8_2 Zn1 1_555 1_555
Zn1_2 N8 1_555 1_555
O1_2 Zn1_2 1_555 1_555
N5_2 O1_2 1_555 1_555
O2_2 Zn1_2 1_555 1_555
O4_2 Zn1_2 1_555 1_555
N6_2 O4_2 1_555 1_555
O5_2 N6_2 1_555 1_555
O6_2 N6_2 1_555 1_555
N7_2 Zn1_2 1_555 1_555
C4_2 N7_2 1_555 1_555
H3_2 C4_2 1_555 1_555
C5_2 C4_2 1_555 1_555
C2_2 C5_2 1_555 1_555
N1_2 C2_2 1_555 1_555
N2_2 N1_2 1_555 1_555
C1_2 N2_2 1_555 1_555
N3_2 C1_2 1_555 1_555
N4_2 C2_2 1_555 1_555
C10_2 C1_2 1_555 1_555
C9_2 C10_2 1_555 1_555
C11_2 C10_2 1_555 1_555
H8_2 C11_2 1_555 1_555
C12_2 C13 1_555 1_555
H9_2 C12_2 1_555 1_555
N8_3 C13 1_555 1_555
Zn1_3 N8_3 1_555 1_555
Zn1A N11 1_555 1_555
N11A Zn1 1_555 1_555
N9A N10 1_555 1_555
C6_2 C5_2 1_555 1_555
H4_2 C6_2 1_555 1_555
C7_2 C6_2 1_555 1_555
H5_2 C7_2 1_555 1_555
C8_2 N7_2 1_555 1_555
H6_2 C8_2 1_555 1_555
N11A_2 Zn1_2 1_555 1_555
C15A N11A_2 1_555 1_555
H11A C15A 1_555 1_555
C16A C15A 1_555 1_555
C14A N9A 1_555 1_555
N10A N9 1_555 1_555
C17A C16A 1_555 1_555
H12A C17A 1_555 1_555
C18A C17A 1_555 1_555
H13A C18A 1_555 1_555
C19A N11A_2 1_555 1_555
H14A C19A 1_555 1_555
O3_2 N5_2 1_555 1_555
C13_2 N8 1_555 1_555
H10_2 C13_2 1_555 1_555
H7_2 C9_2 1_555 1_555
N5 O2 1_555 1_555
C4 C5 1_555 1_555
C7 C8 1_555 1_555
C9 C10 1_555 1_555
C12 C13_2 1_555 1_555
C18 C19 1_555 1_555
N5_2 O2_2 1_555 1_555
N3_2 N4_2 1_555 1_555
C9_2 N8_3 1_555 1_555
C11_2 C12_2 1_555 1_555
C7_2 C8_2 1_555 1_555
C16A C14A 1_555 1_555
C14A N10A 1_555 1_555
C18A C19A 1_555 1_555

#END
