
#######################################################################
#
#                 Cambridge Crystallographic Data Centre
#                                CCDC 
#
#######################################################################
#
# If this CIF has been generated from an entry in the Cambridge 
# Structural Database, then it will include bibliographic, chemical, 
# crystal, experimental, refinement or atomic coordinate data resulting 
# from the CCDC's data processing and validation procedures.
#
#######################################################################

data_FEVROP
_symmetry_cell_setting           triclinic
_symmetry_space_group_name_H-M   'P -1'
_symmetry_Int_Tables_number      2
_space_group_name_Hall           '-P 1'
loop_
_symmetry_equiv_pos_site_id
_symmetry_equiv_pos_as_xyz
1 x,y,z
2 -x,-y,-z
_cell_length_a                   6.79710(10)
_cell_length_b                   10.94010(10)
_cell_length_c                   19.8713(3)
_cell_angle_alpha                104.7060(10)
_cell_angle_beta                 93.2990(10)
_cell_angle_gamma                100.9080(10)
_cell_volume                     1394.72
loop_
_atom_site_label
_atom_site_type_symbol
_atom_site_fract_x
_atom_site_fract_y
_atom_site_fract_z
Cs1 Cs 0.19170(3) 0.826303(15) -0.030382(9)
N1 N 0.2140(4) 0.7779(3) 0.11969(15)
N2 N 0.0962(5) 0.3945(3) 0.14968(16)
N3 N 0.2046(4) 0.4246(3) 0.37595(15)
N4 N 0.3588(4) 0.8464(2) 0.48901(14)
N5 N 0.3792(4) 1.0638(2) 0.32566(15)
C1 C 0.2265(4) 0.7565(3) 0.17298(16)
C2 C 0.1470(4) 0.4865(3) 0.19410(16)
C3 C 0.2190(4) 0.5105(3) 0.35220(15)
C4 C 0.3304(4) 0.8036(2) 0.42979(15)
C5 C 0.3407(4) 0.9542(3) 0.31697(15)
C6 C 0.2421(3) 0.7278(2) 0.23857(14)
C7 C 0.2076(4) 0.6034(2) 0.24877(14)
C8 C 0.2367(4) 0.6152(2) 0.32077(14)
C9 C 0.2899(4) 0.7482(2) 0.35600(14)
C10 C 0.2928(3) 0.8173(2) 0.30470(14)
N6 N 0.3126(4) 1.0987(2) 0.13067(13)
C11 C 0.3724(7) 1.2081(3) 0.1942(2)
H1 H 0.3942 1.2896 0.1810
H2 H 0.4973 1.2009 0.2187
H3 H 0.2653 1.2064 0.2252
O1 O 0.4478(3) 1.0541(2) 0.10144(12)
O2 O 0.1346(3) 1.0584(2) 0.10972(12)
Cs2 Cs -0.30816(3) 0.330429(15) 0.400334(9)
N7 N -0.2800(4) 0.8495(3) 0.03115(15)
N8 N -0.3603(5) 0.4440(3) 0.06272(17)
N9 N -0.3125(4) 0.4827(3) 0.28403(15)
N10 N -0.1560(4) 0.8951(3) 0.39752(16)
N11 N -0.1638(5) 1.1241(3) 0.25069(18)
C12 C -0.2770(4) 0.8216(3) 0.08306(17)
C13 C -0.3357(4) 0.5421(3) 0.10236(17)
C14 C -0.2954(4) 0.5671(3) 0.25919(16)
C15 C -0.1899(4) 0.8546(3) 0.33868(16)
C16 C -0.1913(4) 1.0132(3) 0.23298(16)
C17 C -0.2693(4) 0.7881(3) 0.14756(15)
C18 C -0.2989(4) 0.6617(2) 0.15583(15)
C19 C -0.2752(4) 0.6716(3) 0.22798(15)
C20 C -0.2304(4) 0.8040(3) 0.26484(15)
C21 C -0.2281(4) 0.8758(2) 0.21524(15)
N12 N -0.1952(3) 0.6799(2) 0.49292(13)
C22 C -0.1434(5) 0.8136(3) 0.53939(16)
H4 H -0.2453 0.8611 0.5295
H5 H -0.0110 0.8572 0.5310
H6 H -0.1397 0.8110 0.5884
O3 O -0.3725(3) 0.6275(2) 0.47675(13)
O4 O -0.0574(3) 0.6259(2) 0.47472(12)
Cs1A Cs -0.19170(3) 0.173697(15) 0.030382(9)
Cs1A_2 Cs -0.19170(3) 1.173697(15) 0.030382(9)
Cs1A_3 Cs 0.80830(3) 1.173697(15) 0.030382(9)
N2A N -0.0962(5) 0.6055(3) -0.14968(16)
N4A N -0.3588(4) 0.1536(2) 0.51099(14)
N5_2 N -0.6208(4) 0.0638(2) 0.32566(15)
O1A O 0.5522(3) 0.9459(2) -0.10144(12)
O2A O -0.1346(3) 0.9416(2) -0.10972(12)
Cs2_2 Cs -0.30816(3) 1.330429(15) 0.400334(9)
Cs2_3 Cs 0.69184(3) 1.330429(15) 0.400334(9)
Cs2A Cs -0.69184(3) 0.669571(15) 0.599666(9)
Cs2A_2 Cs 0.30816(3) 0.669571(15) 0.599666(9)
N7A N 0.2800(4) 1.1505(3) -0.03115(15)
N8A N 0.3603(5) 0.5560(3) -0.06272(17)
N11_2 N -0.1638(5) 0.1241(3) 0.25069(18)
O3A O -0.6275(3) 0.3725(2) 0.52325(13)
O4A O 0.0574(3) 0.3741(2) 0.52528(12)
loop_
_geom_bond_atom_site_label_1
_geom_bond_atom_site_label_2
_geom_bond_site_symmetry_1
_geom_bond_site_symmetry_2
Cs1 N1 1_555 1_555
N1 C1 1_555 1_555
N2 C2 1_555 1_555
N3 C3 1_555 1_555
N4 C4 1_555 1_555
N5 C5 1_555 1_555
C1 C6 1_555 1_555
C2 C7 1_555 1_555
C3 C8 1_555 1_555
C4 C9 1_555 1_555
C5 C10 1_555 1_555
C6 C7 1_555 1_555
C7 C8 1_555 1_555
C8 C9 1_555 1_555
C9 C10 1_555 1_555
C10 C6 1_555 1_555
N6 C11 1_555 1_555
C11 H1 1_555 1_555
H2 C11 1_555 1_555
H3 C11 1_555 1_555
O1 Cs1 1_555 1_555
O2 Cs1 1_555 1_555
Cs2 N3 1_555 1_555
N7 Cs1 1_555 1_555
N8 C13 1_555 1_555
N9 Cs2 1_555 1_555
N10 C15 1_555 1_555
N11 C16 1_555 1_555
C12 N7 1_555 1_555
C13 C18 1_555 1_555
C14 N9 1_555 1_555
C15 C20 1_555 1_555
C16 C21 1_555 1_555
C17 C12 1_555 1_555
C18 C17 1_555 1_555
C19 C14 1_555 1_555
C20 C19 1_555 1_555
C21 C17 1_555 1_555
N12 C22 1_555 1_555
C22 H4 1_555 1_555
H5 C22 1_555 1_555
H6 C22 1_555 1_555
O3 Cs2 1_555 1_555
O4 Cs2 1_555 1_555
Cs1A N2 1_555 1_555
Cs1A_2 O2 1_555 1_555
Cs1A_3 O1 1_555 1_555
N2A Cs1 1_555 1_555
N4A Cs2 1_555 1_555
N5_2 Cs2 1_555 1_555
O1A Cs1 1_555 1_555
O2A Cs1 1_555 1_555
Cs2_2 N11 1_555 1_555
Cs2_3 N5 1_555 1_555
Cs2A O3 1_555 1_555
Cs2A_2 N4 1_555 1_555
N7A Cs1 1_555 1_555
N8A Cs1 1_555 1_555
N11_2 Cs2 1_555 1_555
O3A Cs2 1_555 1_555
O4A Cs2 1_555 1_555
N6 O1 1_555 1_555
N6 O2 1_555 1_555
N7 Cs1A_2 1_555 1_555
N8 Cs1A 1_555 1_555
C18 C19 1_555 1_555
C20 C21 1_555 1_555
N12 O3 1_555 1_555
N12 O4 1_555 1_555
O4 Cs2A_2 1_555 1_555
Cs1A_2 O2A 1_555 1_555
Cs1A_2 N7A 1_555 1_555
Cs1A_3 O1A 1_555 1_555
Cs2A O3A 1_555 1_555
Cs2A_2 O4A 1_555 1_555

#END
