
#######################################################################
#
#                 Cambridge Crystallographic Data Centre
#                                CCDC 
#
#######################################################################
#
# If this CIF has been generated from an entry in the Cambridge 
# Structural Database, then it will include bibliographic, chemical, 
# crystal, experimental, refinement or atomic coordinate data resulting 
# from the CCDC's data processing and validation procedures.
#
#######################################################################

data_FEVREF
_symmetry_cell_setting           monoclinic
_symmetry_space_group_name_H-M   'P 21/n'
_symmetry_Int_Tables_number      14
_space_group_name_Hall           '-P 2yn'
loop_
_symmetry_equiv_pos_site_id
_symmetry_equiv_pos_as_xyz
1 x,y,z
2 1/2-x,1/2+y,1/2-z
3 -x,-y,-z
4 1/2+x,1/2-y,1/2+z
_cell_length_a                   10.1661(1)
_cell_length_b                   21.4687(2)
_cell_length_c                   20.1130(3)
_cell_angle_alpha                90
_cell_angle_beta                 97.091(1)
_cell_angle_gamma                90
_cell_volume                     4356.15
loop_
_atom_site_label
_atom_site_type_symbol
_atom_site_fract_x
_atom_site_fract_y
_atom_site_fract_z
K3 K -0.93568(6) 0.41052(3) 0.96627(3)
K1 K 0.12642(5) 0.13019(2) 0.85712(3)
K2 K -0.36449(5) 0.11240(2) 0.84982(2)
K3_2 K 0.06432(6) 0.41052(3) 0.96627(3)
C1 C 0.1585(2) 0.28206(12) 0.74408(16)
N1 N 0.1673(3) 0.23854(12) 0.77706(17)
N2 N 0.1872(3) 0.43359(12) 0.84497(12)
C2 C 0.1726(2) 0.41867(11) 0.79005(14)
C3 C 0.1324(2) 0.50144(11) 0.66392(11)
N3 N 0.1328(2) 0.55505(10) 0.66513(11)
C4 C 0.0973(2) 0.41402(13) 0.53936(14)
N4 N 0.0869(3) 0.42621(14) 0.48383(13)
C5 C 0.1089(2) 0.27880(13) 0.59177(16)
N5 N 0.0981(3) 0.23329(12) 0.56161(16)
C6 C 0.1457(2) 0.33526(11) 0.70170(13)
C7 C 0.1522(2) 0.39808(11) 0.72239(12)
C8 C 0.1327(2) 0.43540(11) 0.66429(12)
C9 C 0.1147(2) 0.39574(11) 0.60806(12)
C10 C 0.1226(2) 0.33399(11) 0.63140(13)
C11 C -0.0677(2) 0.27247(12) 1.05804(13)
N6 N -0.0748(3) 0.31780(12) 1.02796(14)
C12 C -0.0982(2) 0.14212(12) 0.99723(13)
N7 N -0.1205(3) 0.13233(13) 0.94116(12)
C13 C -0.0586(2) 0.04604(12) 1.11410(12)
N8 N -0.0667(2) -0.00678(11) 1.11255(14)
C14 C 0.0011(2) 0.11909(12) 1.24504(13)
N9 N 0.0232(3) 0.09840(12) 1.29750(12)
C15 C -0.0044(2) 0.25839(12) 1.21221(13)
N10 N 0.0170(2) 0.29719(12) 1.25111(13)
C16 C -0.0573(2) 0.21577(10) 1.09487(12)
C17 C -0.0256(2) 0.14551(10) 1.17965(11)
C18 C -0.0704(2) 0.15572(11) 1.06674(11)
C19 C -0.0511(2) 0.11215(10) 1.11950(11)
C20 C -0.0291(2) 0.20941(10) 1.16461(11)
C21 C 0.2729(2) 0.29181(12) 1.09864(12)
N11 N 0.2532(3) 0.33473(11) 1.06491(13)
N12 N 0.2241(2) 0.14337(14) 0.99325(12)
C22 C 0.2503(2) 0.15713(12) 1.04800(13)
N13 N 0.2966(2) 0.01632(11) 1.16760(13)
C23 C 0.2993(2) 0.06978(12) 1.16997(13)
C24 C 0.3585(2) 0.15053(12) 1.29645(13)
N14 N 0.3856(3) 0.13156(13) 1.34958(12)
N15 N 0.3601(2) 0.33291(10) 1.28403(11)
C25 C 0.3430(2) 0.28932(11) 1.25141(12)
C26 C 0.2935(2) 0.23756(10) 1.13912(11)
C27 C 0.2814(2) 0.17562(11) 1.11622(11)
C28 C 0.3029(2) 0.13608(10) 1.17188(12)
C29 C 0.3282(2) 0.17326(11) 1.22968(11)
C30 C 0.3228(2) 0.23584(10) 1.20933(11)
N16 N 0.2796(2) 0.52463(11) 1.00680(11)
O1 O 0.3288(2) 0.47304(10) 1.00538(11)
O2 O 0.1622(2) 0.53454(10) 0.98820(11)
C31 C 0.3639(3) 0.57793(15) 1.03230(15)
H1 H 0.3464 0.5882 1.0779
H2 H 0.3435 0.6141 1.0031
H3 H 0.4575 0.5667 1.0328
N17 N 0.1417(2) 0.45481(11) 1.16461(11)
O3 O 0.0857(2) 0.43191(15) 1.20813(13)
O4 O 0.0862(3) 0.46972(14) 1.10987(12)
C32 C 0.2853(3) 0.46472(15) 1.17769(15)
H4 H 0.3284 0.4460 1.1416
H5 H 0.3196 0.4453 1.2205
H6 H 0.3040 0.5095 1.1798
N18 N 0.1372(2) 0.07884(12) 0.67129(11)
O5 O 0.0774(2) 0.05600(14) 0.62099(11)
O6 O 0.0944(2) 0.07876(13) 0.72504(11)
C33 C 0.2697(3) 0.10388(15) 0.66649(15)
H7 H 0.3076 0.1200 0.7103
H8 H 0.2634 0.1377 0.6335
H9 H 0.3266 0.0708 0.6525
N19 N -0.5114(5) 0.2448(2) 0.9027(3)
O7 O -0.3981(4) 0.25505(19) 0.8948(2)
O8 O -0.5631(4) 0.1937(2) 0.8969(2)
C34 C -0.5927(10) 0.2986(3) 0.9164(5)
H10 H -0.5783 0.3325 0.8854
H11 H -0.5676 0.3126 0.9626
H12 H -0.6865 0.2867 0.9103
K1_2 K -0.87358(5) 0.13019(2) 0.85712(3)
K1A K 0.37358(5) 0.63019(2) 0.64288(3)
K1B K -0.12642(5) -0.13019(2) 1.14288(3)
K1C K 0.62642(5) 0.36981(2) 1.35712(3)
K2A K -0.13551(5) 0.61240(2) 0.65018(2)
K2B K 0.36449(5) -0.11240(2) 1.15018(2)
K2C K 0.13551(5) 0.38760(2) 0.34982(2)
K2C_2 K 0.13551(5) 0.38760(2) 1.34982(2)
K3B K -0.06432(6) 0.58948(3) 1.03373(3)
K3C K 0.56432(6) 0.08948(3) 1.46627(3)
N3A N -0.6328(2) 0.05505(10) 0.83487(11)
N3A_2 N 0.3672(2) 0.05505(10) 0.83487(11)
N4C N -0.4131(3) 0.07379(14) 0.98383(13)
N8B N 0.0667(2) 0.00678(11) 0.88745(14)
N10C N -0.4830(2) 0.20281(12) 0.75111(13)
N13B N -0.2966(2) -0.01632(11) 0.83240(13)
N14C N -0.1144(3) 0.36844(13) 0.84958(12)
N15C N -0.1399(2) 0.16709(10) 0.78403(11)
O2B O -0.1622(2) 0.46546(10) 1.01180(11)
O3C O -0.4143(2) 0.06809(15) 0.70813(13)
O4B O -0.0862(3) 0.53028(14) 0.89013(12)
N20? N 0.3125(8) 0.2660(4) 0.9108(4)
O9? O 0.3529(7) 0.2148(3) 0.8960(3)
O10? O 0.1958(6) 0.2769(3) 0.9153(3)
C35? C 0.4083(14) 0.3141(5) 0.9213(7)
H13? H 0.4431 0.3234 0.8790
H14? H 0.4810 0.3007 0.9548
H15? H 0.3671 0.3516 0.9373
loop_
_geom_bond_atom_site_label_1
_geom_bond_atom_site_label_2
_geom_bond_site_symmetry_1
_geom_bond_site_symmetry_2
K1 N1 1_555 1_555
K2 N7 1_555 1_555
K3_2 N2 1_555 1_555
C1 N1 1_555 1_555
N2 C2 1_555 1_555
C2 C7 1_555 1_555
C3 N3 1_555 1_555
N3 K1A 1_555 1_555
C4 N4 1_555 1_555
N4 K2C 1_555 1_555
C5 N5 1_555 1_555
C6 C1 1_555 1_555
C7 C6 1_555 1_555
C8 C3 1_555 1_555
C9 C4 1_555 1_555
C10 C5 1_555 1_555
C11 N6 1_555 1_555
N6 K3_2 1_555 1_555
C12 N7 1_555 1_555
N7 K1 1_555 1_555
C13 N8 1_555 1_555
N8 K1B 1_555 1_555
C14 N9 1_555 1_555
C15 N10 1_555 1_555
N10 K2C_2 1_555 1_555
C16 C11 1_555 1_555
C17 C14 1_555 1_555
C18 C12 1_555 1_555
C19 C13 1_555 1_555
C20 C15 1_555 1_555
C21 N11 1_555 1_555
N11 K3_2 1_555 1_555
N12 K1 1_555 1_555
C22 N12 1_555 1_555
N13 C23 1_555 1_555
C23 C28 1_555 1_555
C24 N14 1_555 1_555
N14 K3C 1_555 1_555
N15 C25 1_555 1_555
C25 C30 1_555 1_555
C26 C21 1_555 1_555
C27 C22 1_555 1_555
C28 C27 1_555 1_555
C29 C24 1_555 1_555
C30 C26 1_555 1_555
N16 O1 1_555 1_555
O1 K3_2 1_555 1_555
O2 K3_2 1_555 1_555
C31 N16 1_555 1_555
H1 C31 1_555 1_555
H2 C31 1_555 1_555
H3 C31 1_555 1_555
N17 O3 1_555 1_555
O3 K2C_2 1_555 1_555
O4 K3_2 1_555 1_555
C32 N17 1_555 1_555
H4 C32 1_555 1_555
H5 C32 1_555 1_555
H6 C32 1_555 1_555
N18 O5 1_555 1_555
O6 K1 1_555 1_555
C33 N18 1_555 1_555
H7 C33 1_555 1_555
H8 C33 1_555 1_555
H9 C33 1_555 1_555
N19 O7 1_555 1_555
O7 K2 1_555 1_555
O8 K2 1_555 1_555
C34 N19 1_555 1_555
H10 C34 1_555 1_555
H11 C34 1_555 1_555
H12 C34 1_555 1_555
K1_2 N3A 1_555 1_555
K1C N15 1_555 1_555
K2A N3 1_555 1_555
K2B N13 1_555 1_555
K2C_2 N15 1_555 1_555
K3B O2 1_555 1_555
N3A K2 1_555 1_555
N3A_2 K1 1_555 1_555
N4C K2 1_555 1_555
N8B K1 1_555 1_555
N10C K2 1_555 1_555
N13B K2 1_555 1_555
N14C K3_2 1_555 1_555
N15C K1 1_555 1_555
O2B K3_2 1_555 1_555
O3C K2 1_555 1_555
O4B K3_2 1_555 1_555
K2 N15C 1_555 1_555
C6 C10 1_555 1_555
C7 C8 1_555 1_555
C8 C9 1_555 1_555
C9 C10 1_555 1_555
C16 C18 1_555 1_555
C16 C20 1_555 1_555
C17 C19 1_555 1_555
C17 C20 1_555 1_555
C18 C19 1_555 1_555
C26 C27 1_555 1_555
C28 C29 1_555 1_555
C29 C30 1_555 1_555
N16 O2 1_555 1_555
N17 O4 1_555 1_555
O4 K3B 1_555 1_555
N18 O6 1_555 1_555
N19 O8 1_555 1_555
K3B O2B 1_555 1_555
K3B O4B 1_555 1_555

#END
