
#######################################################################
#
#                 Cambridge Crystallographic Data Centre
#                                CCDC 
#
#######################################################################
#
# If this CIF has been generated from an entry in the Cambridge 
# Structural Database, then it will include bibliographic, chemical, 
# crystal, experimental, refinement or atomic coordinate data resulting 
# from the CCDC's data processing and validation procedures.
#
#######################################################################

data_FEVRIJ
_symmetry_cell_setting           monoclinic
_symmetry_space_group_name_H-M   'C 2/c'
_symmetry_Int_Tables_number      15
_space_group_name_Hall           '-C 2yn'
loop_
_symmetry_equiv_pos_site_id
_symmetry_equiv_pos_as_xyz
1 x,y,z
2 -x,y,1/2-z
3 1/2+x,1/2+y,z
4 1/2-x,1/2+y,1/2-z
5 -x,-y,-z
6 x,-y,1/2+z
7 1/2-x,1/2-y,-z
8 1/2+x,1/2-y,1/2+z
_cell_length_a                   9.8086(2)
_cell_length_b                   10.7961(3)
_cell_length_c                   10.0091(3)
_cell_angle_alpha                90
_cell_angle_beta                 105.494(2)
_cell_angle_gamma                90
_cell_volume                     1021.39
loop_
_atom_site_label
_atom_site_type_symbol
_atom_site_fract_x
_atom_site_fract_y
_atom_site_fract_z
K1 K 0.0000 0.0000 0.0000
C1 C -0.5000 -0.11662(11) 0.2500
C2 C -0.5000 -0.24792(11) 0.2500
N1 N -0.5000 -0.35464(11) 0.2500
C3 C -0.41959(9) -0.03942(8) 0.18609(9)
N2 N -0.24255(9) -0.10065(9) 0.04925(10)
C4 C -0.32220(9) -0.07607(8) 0.11088(9)
C5 C -0.45066(9) 0.08446(8) 0.21026(9)
N3 N -0.36183(10) 0.28044(8) 0.11442(10)
C6 C -0.39891(9) 0.19212(8) 0.15798(9)
C3A C -0.58041(9) -0.03942(8) 0.31391(9)
N2A N -0.75745(9) -0.10065(9) 0.45075(10)
C4A C -0.67780(9) -0.07607(8) 0.38912(9)
C5A C -0.54934(9) 0.08446(8) 0.28974(9)
N3A N -0.63817(10) 0.28044(8) 0.38558(10)
C6A C -0.60109(9) 0.19212(8) 0.34202(9)
K1A K -1.0000 0.0000 0.5000
K1B K -0.5000 -0.5000 0.0000
K1B_2 K -0.5000 0.5000 0.0000
K1C K -0.5000 -0.5000 0.5000
K1C_2 K -0.5000 0.5000 0.5000
N1B N 0.0000 0.14536(11) 0.2500
N1F N 0.0000 -0.14536(11) -0.2500
N2D N 0.24255(9) 0.10065(9) -0.04925(10)
N3B N 0.13817(10) -0.21956(8) 0.11442(10)
N3F N -0.13817(10) 0.21956(8) -0.11442(10)
loop_
_geom_bond_atom_site_label_1
_geom_bond_atom_site_label_2
_geom_bond_site_symmetry_1
_geom_bond_site_symmetry_2
K1 N2 1_555 1_555
C1 C2 1_555 1_555
C2 N1 1_555 1_555
N1 K1B 1_555 1_555
C3 C1 1_555 1_555
N2 C4 1_555 1_555
C4 C3 1_555 1_555
C5 C3 1_555 1_555
N3 C6 1_555 1_555
C6 C5 1_555 1_555
C3A C1 1_555 1_555
N2A C4A 1_555 1_555
C4A C3A 1_555 1_555
C5A C5 1_555 1_555
N3A C6A 1_555 1_555
C6A C5A 1_555 1_555
K1A N2A 1_555 1_555
K1B_2 N3 1_555 1_555
K1C N1 1_555 1_555
K1C_2 N3A 1_555 1_555
N1B K1 1_555 1_555
N1F K1 1_555 1_555
N2D K1 1_555 1_555
N3B K1 1_555 1_555
N3F K1 1_555 1_555
C3A C5A 1_555 1_555

#END
