
#######################################################################
#
#                 Cambridge Crystallographic Data Centre
#                                CCDC 
#
#######################################################################
#
# If this CIF has been generated from an entry in the Cambridge 
# Structural Database, then it will include bibliographic, chemical, 
# crystal, experimental, refinement or atomic coordinate data resulting 
# from the CCDC's data processing and validation procedures.
#
#######################################################################

data_FEVSAC
_symmetry_cell_setting           monoclinic
_symmetry_space_group_name_H-M   'P 21/n'
_symmetry_Int_Tables_number      14
_space_group_name_Hall           '-P 2yn'
loop_
_symmetry_equiv_pos_site_id
_symmetry_equiv_pos_as_xyz
1 x,y,z
2 1/2-x,1/2+y,1/2-z
3 -x,-y,-z
4 1/2+x,1/2-y,1/2+z
_cell_length_a                   10.24030(10)
_cell_length_b                   21.7334(3)
_cell_length_c                   20.4170(3)
_cell_angle_alpha                90
_cell_angle_beta                 95.3010(10)
_cell_angle_gamma                90
_cell_volume                     4524.5
loop_
_atom_site_label
_atom_site_type_symbol
_atom_site_fract_x
_atom_site_fract_y
_atom_site_fract_z
Rb1 Rb 0.63228(3) 0.117467(14) 0.351664(16)
Rb2 Rb 0.57007(3) 0.096809(15) -0.035801(16)
N1 N 0.7607(3) 0.17250(14) 0.06647(16)
N2 N 0.7330(3) 0.36519(15) 0.00014(16)
N3 N 0.7983(3) 0.48566(15) 0.17539(17)
N4 N 0.8758(3) 0.36680(16) 0.35010(16)
N5 N 0.8586(3) 0.17191(14) 0.28194(15)
C1 C 0.7782(3) 0.21493(16) 0.09924(17)
C2 C 0.7568(3) 0.34968(15) 0.05287(17)
C3 C 0.8014(3) 0.43311(17) 0.17504(17)
C4 C 0.8543(3) 0.34991(16) 0.29678(18)
C5 C 0.8436(3) 0.21462(16) 0.25022(17)
C6 C 0.7969(3) 0.26807(14) 0.14024(15)
C7 C 0.7859(3) 0.33003(14) 0.11908(15)
C8 C 0.8049(3) 0.36750(13) 0.17497(15)
C9 C 0.8285(3) 0.32969(14) 0.23059(15)
C10 C 0.8242(3) 0.26838(14) 0.20919(15)
N6 N 0.4191(3) 0.18400(15) 0.03871(18)
N7 N 0.3781(3) 0.36222(15) -0.05263(17)
N8 N 0.4416(3) 0.50680(15) 0.10887(18)
N9 N 0.5309(3) 0.40726(15) 0.29536(17)
N10 N 0.5180(3) 0.21139(15) 0.25662(17)
C11 C 0.4303(3) 0.22932(16) 0.06659(19)
C12 C 0.4027(3) 0.35537(15) 0.00271(19)
C13 C 0.4478(3) 0.45453(16) 0.11294(17)
C14 C 0.5072(3) 0.38632(16) 0.24452(19)
C15 C 0.4975(3) 0.24823(16) 0.21720(18)
C16 C 0.4450(3) 0.28639(13) 0.10089(15)
C17 C 0.4325(3) 0.34518(14) 0.07108(16)
C18 C 0.4528(3) 0.38954(13) 0.12059(16)
C19 C 0.4785(3) 0.35898(14) 0.18133(15)
C20 C 0.4740(3) 0.29491(14) 0.16851(16)
N11 N 0.6466(3) 0.05050(15) 0.16163(17)
N12 N 0.7801(3) -0.02369(14) 0.00508(15)
O1 O 0.5945(3) 0.03157(17) 0.10972(16)
O2 O 0.5893(3) 0.07709(18) 0.20254(16)
O3 O 0.6656(3) -0.03381(11) -0.01365(14)
O4 O 0.8300(3) 0.02735(12) 0.00277(14)
C21 C 0.7886(4) 0.04230(18) 0.1751(2)
H1 H 0.8322 0.0593 0.1396
H2 H 0.8085 -0.0008 0.1792
H3 H 0.8183 0.0630 0.2153
C22 C 0.8622(4) -0.07486(19) 0.0332(2)
H4 H 0.8814 -0.0686 0.0796
H5 H 0.9425 -0.0763 0.0125
H6 H 0.8158 -0.1130 0.0257
Rb3 Rb 0.62275(3) 0.363974(13) 0.858861(15)
N13 N 0.6681(3) 0.26096(15) 0.75882(19)
N14 N 0.5954(3) 0.25485(17) 0.5461(2)
N15 N 0.5836(4) 0.06370(16) 0.48164(17)
N16 N 0.6354(3) -0.05642(13) 0.66571(14)
N17 N 0.6874(3) 0.06950(15) 0.83512(17)
C23 C 0.6579(3) 0.21661(17) 0.7291(2)
C24 C 0.6059(3) 0.21282(17) 0.5788(2)
C25 C 0.5959(4) 0.07781(16) 0.53527(19)
C26 C 0.6334(3) -0.00390(16) 0.66183(15)
C27 C 0.6716(3) 0.08298(15) 0.78082(19)
C28 C 0.6436(3) 0.16202(14) 0.69053(18)
C29 C 0.6201(3) 0.16035(14) 0.62148(18)
C30 C 0.6128(3) 0.09804(14) 0.60167(17)
C31 C 0.6320(3) 0.06174(14) 0.65902(16)
C32 C 0.6508(3) 0.10083(14) 0.71370(17)
N18 N 0.6411(3) 0.42096(16) 0.67053(17)
N19 N 0.8210(4) 0.23388(18) 0.90728(16)
O5 O 0.5952(3) 0.42312(15) 0.72339(15)
O6 O 0.5835(3) 0.44032(19) 0.61967(16)
O7 O 0.7041(4) 0.22477(15) 0.91274(16)
O8 O 0.8678(3) 0.28487(15) 0.89453(16)
C33 C 0.7755(4) 0.3985(2) 0.6681(2)
H7 H 0.8304 0.4316 0.6560
H8 H 0.8078 0.3830 0.7106
H9 H 0.7762 0.3661 0.6362
C34 C 0.9119(4) 0.18239(19) 0.9171(2)
H10 H 0.8759 0.1471 0.8936
H11 H 0.9941 0.1932 0.9011
H12 H 0.9256 0.1729 0.9632
Rb1A Rb 0.86772(3) 0.617467(14) 0.148336(16)
Rb1B Rb 0.36772(3) -0.117467(14) 0.648336(16)
Rb1C Rb 0.13228(3) 0.382533(14) -0.148336(16)
Rb2_2 Rb 0.57007(3) 0.096809(15) 0.964199(16)
Rb2B Rb 0.42993(3) -0.096809(15) 0.035801(16)
Rb2C Rb 1.07007(3) 0.403191(15) 0.464199(16)
N2_2 N 0.7330(3) 0.36519(15) 1.00014(16)
N3A N 0.7017(3) -0.01434(15) 0.32461(17)
N4C N 0.3758(3) 0.13320(16) -0.14990(16)
N5C N 0.3586(3) 0.32809(14) 0.78194(15)
N7_2 N 0.3781(3) 0.36222(15) 0.94737(17)
N7C N 0.8781(3) 0.13778(15) 0.44737(17)
N8B N 0.5584(3) 0.49320(15) 0.89113(18)
O3B O 0.3344(3) 0.03381(11) 0.01365(14)
Rb3_2 Rb 0.62275(3) 0.363974(13) -0.141139(15)
Rb3A Rb 0.87725(3) -0.136026(13) 0.641139(15)
Rb3B Rb 0.37725(3) 0.636026(13) 0.141139(15)
Rb3C Rb 1.12275(3) 0.136026(13) 0.358861(15)
N16A N 0.8646(3) 0.44358(13) 0.83429(14)
N16B N 0.3646(3) 0.05642(13) 0.33429(14)
N17_2 N 0.6874(3) 0.06950(15) -0.16488(17)
O7_2 O 0.7041(4) 0.22477(15) -0.08726(16)
loop_
_geom_bond_atom_site_label_1
_geom_bond_atom_site_label_2
_geom_bond_site_symmetry_1
_geom_bond_site_symmetry_2
Rb1 N5 1_555 1_555
Rb2 N1 1_555 1_555
N1 C1 1_555 1_555
N2 C2 1_555 1_555
N3 C3 1_555 1_555
N4 C4 1_555 1_555
N5 C5 1_555 1_555
C1 C6 1_555 1_555
C2 C7 1_555 1_555
C3 C8 1_555 1_555
C4 C9 1_555 1_555
C5 C10 1_555 1_555
C6 C7 1_555 1_555
C7 C8 1_555 1_555
C8 C9 1_555 1_555
C9 C10 1_555 1_555
C10 C6 1_555 1_555
N6 Rb2 1_555 1_555
N7 C12 1_555 1_555
N8 C13 1_555 1_555
N9 C14 1_555 1_555
N10 Rb1 1_555 1_555
C11 N6 1_555 1_555
C12 C17 1_555 1_555
C13 C18 1_555 1_555
C14 C19 1_555 1_555
C15 N10 1_555 1_555
C16 C11 1_555 1_555
C17 C16 1_555 1_555
C18 C17 1_555 1_555
C19 C18 1_555 1_555
C20 C15 1_555 1_555
N11 O1 1_555 1_555
N12 O3 1_555 1_555
O1 Rb2 1_555 1_555
O2 Rb1 1_555 1_555
O3 Rb2 1_555 1_555
O4 Rb2 1_555 1_555
C21 N11 1_555 1_555
H1 C21 1_555 1_555
H2 C21 1_555 1_555
H3 C21 1_555 1_555
C22 N12 1_555 1_555
H4 C22 1_555 1_555
H5 C22 1_555 1_555
H6 C22 1_555 1_555
Rb3 N13 1_555 1_555
N13 C23 1_555 1_555
N14 C24 1_555 1_555
N15 Rb1 1_555 1_555
N16 C26 1_555 1_555
N17 C27 1_555 1_555
C23 C28 1_555 1_555
C24 C29 1_555 1_555
C25 N15 1_555 1_555
C26 C31 1_555 1_555
C27 C32 1_555 1_555
C28 C29 1_555 1_555
C29 C30 1_555 1_555
C30 C25 1_555 1_555
C31 C30 1_555 1_555
C32 C28 1_555 1_555
N18 O5 1_555 1_555
N19 O7 1_555 1_555
O5 Rb3 1_555 1_555
O6 N18 1_555 1_555
O7 Rb3 1_555 1_555
O8 Rb3 1_555 1_555
C33 N18 1_555 1_555
H7 C33 1_555 1_555
H8 C33 1_555 1_555
H9 C33 1_555 1_555
C34 N19 1_555 1_555
H10 C34 1_555 1_555
H11 C34 1_555 1_555
H12 C34 1_555 1_555
Rb1A N3 1_555 1_555
Rb1B N16 1_555 1_555
Rb1C N7 1_555 1_555
Rb2_2 N17 1_555 1_555
Rb2B O3 1_555 1_555
Rb2C N4 1_555 1_555
N2_2 Rb3 1_555 1_555
N3A Rb1 1_555 1_555
N4C Rb2 1_555 1_555
N5C Rb3 1_555 1_555
N7_2 Rb3 1_555 1_555
N7C Rb1 1_555 1_555
N8B Rb3 1_555 1_555
O3B Rb2 1_555 1_555
Rb3_2 N2 1_555 1_555
Rb3A N16 1_555 1_555
Rb3B N8 1_555 1_555
Rb3C N5 1_555 1_555
N16A Rb3 1_555 1_555
N16B Rb1 1_555 1_555
N17_2 Rb2 1_555 1_555
O7_2 Rb2 1_555 1_555
N7 Rb3_2 1_555 1_555
C16 C20 1_555 1_555
C19 C20 1_555 1_555
N11 O2 1_555 1_555
N12 O4 1_555 1_555
C31 C32 1_555 1_555
N19 O8 1_555 1_555
O7 Rb2_2 1_555 1_555
Rb2B O3B 1_555 1_555
N7C Rb3C 1_555 1_555
Rb3_2 O7_2 1_555 1_555

#END
