
#######################################################################
#
#                 Cambridge Crystallographic Data Centre
#                                CCDC 
#
#######################################################################
#
# If this CIF has been generated from an entry in the Cambridge 
# Structural Database, then it will include bibliographic, chemical, 
# crystal, experimental, refinement or atomic coordinate data resulting 
# from the CCDC's data processing and validation procedures.
#
#######################################################################

data_FEVTEF
_symmetry_cell_setting           monoclinic
_symmetry_space_group_name_H-M   'C 2/c'
_symmetry_Int_Tables_number      15
_space_group_name_Hall           '-C 2yn'
loop_
_symmetry_equiv_pos_site_id
_symmetry_equiv_pos_as_xyz
1 x,y,z
2 1/2+x,1/2+y,z
3 x,-y,1/2+z
4 1/2+x,1/2-y,1/2+z
5 -x,-y,-z
6 1/2-x,1/2-y,-z
7 -x,y,1/2-z
8 1/2-x,1/2+y,1/2-z
_cell_length_a                   23.846(3)
_cell_length_b                   11.3010(13)
_cell_length_c                   20.3262(11)
_cell_angle_alpha                90
_cell_angle_beta                 103.446(7)
_cell_angle_gamma                90
_cell_volume                     5327.44
loop_
_atom_site_label
_atom_site_type_symbol
_atom_site_fract_x
_atom_site_fract_y
_atom_site_fract_z
Co1 Co -0.5000 1.30672(8) -0.2500
Cl1 Cl -0.46197(7) 1.19444(15) -0.15825(9)
Cl2 Cl -0.57082(5) 1.42289(12) -0.22514(6)
Cl1F Cl -0.53803(7) 1.19444(15) -0.34175(9)
Cl2F Cl -0.42918(5) 1.42289(12) -0.27486(6)
Co2 Co -0.2500 0.7500 0.0000
C1 C -0.3102(2) 0.5900(5) 0.1205(3)
H1 H -0.3340(2) 0.5561(5) 0.1478(3)
H2 H -0.2712(2) 0.5963(5) 0.1468(3)
H3 H -0.3111(2) 0.5404(5) 0.0819(3)
O1 O -0.30955(12) 0.7747(3) 0.06095(14)
C2 C -0.3326(2) 0.7117(4) 0.0970(2)
N1 N -0.3770(2) 0.7513(4) 0.1200(2)
H4 H -0.3922(2) 0.7050(4) 0.1446(2)
C3 C -0.4008(2) 0.8691(5) 0.1057(3)
H5 H -0.3701(2) 0.9235(5) 0.1022(3)
H6 H -0.4170(2) 0.8951(5) 0.1428(3)
C4 C -0.4473(2) 0.8731(5) 0.0406(3)
H7 H -0.4768(2) 0.8150(5) 0.0424(3)
H8 H -0.4307(2) 0.8538(5) 0.0026(3)
C5 C -0.4742(2) 0.9966(5) 0.0306(3)
H9 H -0.4452(2) 1.0531(5) 0.0246(3)
H10 H -0.4868(2) 1.0188(5) 0.0710(3)
C6 C -0.3175(3) 1.0422(6) -0.0259(3)
H11 H -0.3457(3) 1.1042(6) -0.0362(3)
H12 H -0.2806(3) 1.0722(6) -0.0292(3)
H13 H -0.3152(3) 1.0141(6) 0.0193(3)
O2 O -0.30584(12) 0.8515(3) -0.0728(2)
C7 C -0.3347(2) 0.9431(5) -0.0746(3)
N2 N -0.3838(2) 0.9556(6) -0.1207(3)
H14 H -0.4070(2) 1.0123(6) -0.1174(3)
C8 C -0.3982(4) 0.8708(10) -0.1777(6)
H15 H -0.3943(4) 0.9070(10) -0.2197(6)
H16 H -0.3738(4) 0.8011(10) -0.1691(6)
C9 C -0.4555(6) 0.8430(13) -0.1796(7)
H17 H -0.4802(6) 0.9119(13) -0.1898(7)
H18 H -0.4597(6) 0.8081(13) -0.1374(7)
C10 C -0.46765(14) 0.7544(12) -0.2367(7)
H19 H -0.45421(14) 0.6764(12) -0.2204(7)
H20 H -0.44852(14) 0.7774(12) -0.2719(7)
C11 C -0.2977(2) 0.6003(6) -0.1611(2)
H21 H -0.3203(2) 0.5617(6) -0.2005(2)
H22 H -0.2581(2) 0.5766(6) -0.1544(2)
H23 H -0.3006(2) 0.6845(6) -0.1672(2)
O3 O -0.29870(13) 0.6029(3) -0.0431(2)
C12 C -0.3197(2) 0.5663(4) -0.1007(2)
N3 N -0.3638(2) 0.4920(4) -0.1113(2)
H24 H -0.3777(2) 0.4688(4) -0.1522(2)
C13 C -0.3902(3) 0.4472(6) -0.0594(3)
H25 H -0.3623(3) 0.4492(6) -0.0162(3)
H26 H -0.4015(3) 0.3655(6) -0.0693(3)
C14 C -0.4426(3) 0.5191(7) -0.0544(3)
H27 H -0.4700(3) 0.5184(7) -0.0979(3)
H28 H -0.4311(3) 0.6004(7) -0.0437(3)
C15 C -0.4720(3) 0.4717(7) -0.0005(4)
H29 H -0.4782(3) 0.3874(7) -0.0076(4)
H30 H -0.4460(3) 0.4823(7) 0.0435(4)
O1E O -0.19045(12) 0.7253(3) -0.06095(14)
O2E O -0.19416(12) 0.6485(3) 0.0728(2)
O3E O -0.20130(13) 0.8971(3) 0.0431(2)
C5D C -0.5258(2) 1.0034(5) -0.0306(3)
C10F C -0.53235(14) 0.7544(12) -0.2633(7)
C15D C -0.5280(3) 0.5283(7) 0.0005(4)
C4D C -0.5527(2) 1.1269(5) -0.0406(3)
H9D H -0.5548(2) 0.9469(5) -0.0246(3)
H10D H -0.5132(2) 0.9812(5) -0.0710(3)
C9F C -0.5445(6) 0.8430(13) -0.3204(7)
H19F H -0.54579(14) 0.6764(12) -0.2796(7)
H20F H -0.55148(14) 0.7774(12) -0.2281(7)
C14D C -0.5574(3) 0.4809(7) 0.0544(3)
H29D H -0.5218(3) 0.6126(7) 0.0076(4)
H30D H -0.5540(3) 0.5177(7) -0.0435(4)
C3D C -0.5992(2) 1.1309(5) -0.1057(3)
H7D H -0.5232(2) 1.1850(5) -0.0424(3)
H8D H -0.5693(2) 1.1462(5) -0.0026(3)
C8F C -0.6018(4) 0.8708(10) -0.3223(6)
H17F H -0.5198(6) 0.9119(13) -0.3102(7)
H18F H -0.5403(6) 0.8081(13) -0.3626(7)
C13D C -0.6098(3) 0.5528(6) 0.0594(3)
H27D H -0.5300(3) 0.4816(7) 0.0979(3)
H28D H -0.5689(3) 0.3996(7) 0.0437(3)
N1D N -0.6230(2) 1.2487(4) -0.1200(2)
H5D H -0.6299(2) 1.0765(5) -0.1022(3)
H6D H -0.5830(2) 1.1049(5) -0.1428(3)
N2F N -0.6162(2) 0.9556(6) -0.3793(3)
H15F H -0.6057(4) 0.9070(10) -0.2803(6)
H16F H -0.6262(4) 0.8011(10) -0.3309(6)
N3D N -0.6362(2) 0.5080(4) 0.1113(2)
H25D H -0.6377(3) 0.5508(6) 0.0162(3)
H26D H -0.5985(3) 0.6345(6) 0.0693(3)
C2D C -0.6674(2) 1.2883(4) -0.0970(2)
H4D H -0.6078(2) 1.2950(4) -0.1446(2)
C7F C -0.6653(2) 0.9431(5) -0.4254(3)
H14F H -0.5930(2) 1.0123(6) -0.3826(3)
C12D C -0.6803(2) 0.4337(4) 0.1007(2)
H24D H -0.6223(2) 0.5312(4) 0.1522(2)
C1D C -0.6898(2) 1.4100(5) -0.1205(3)
O1D O -0.69045(12) 1.2253(3) -0.06095(14)
C6F C -0.6825(3) 1.0422(6) -0.4741(3)
O2F O -0.69416(12) 0.8515(3) -0.4272(2)
C11D C -0.7023(2) 0.3997(6) 0.1611(2)
O3D O -0.70130(13) 0.3971(3) 0.0431(2)
H1D H -0.6660(2) 1.4439(5) -0.1478(3)
H2D H -0.7288(2) 1.4037(5) -0.1468(3)
H3D H -0.6889(2) 1.4596(5) -0.0819(3)
Co2A Co -0.7500 1.2500 0.0000
H11F H -0.6543(3) 1.1042(6) -0.4638(3)
H12F H -0.7194(3) 1.0722(6) -0.4708(3)
H13F H -0.6848(3) 1.0141(6) -0.5193(3)
Co2C Co -0.7500 0.7500 -0.5000
H21D H -0.6797(2) 0.4383(6) 0.2005(2)
H22D H -0.7419(2) 0.4234(6) 0.1544(2)
H23D H -0.6994(2) 0.3155(6) 0.1672(2)
Co2A_2 Co -0.7500 0.2500 0.0000
O4 O -0.3107(5) 1.1430(11) -0.2164(6)
C16 C -0.2864(5) 1.2372(13) -0.1879(8)
H31 H -0.3075(5) 1.2651(13) -0.1555(8)
H32 H -0.2885(5) 1.2983(13) -0.2220(8)
C17 C -0.2271(5) 1.2189(12) -0.1539(11)
H33 H -0.2110(5) 1.2918(12) -0.1337(11)
H34 H -0.2059(5) 1.1927(12) -0.1860(11)
H35 H -0.2248(5) 1.1600(12) -0.1194(11)
O5? O -0.1388(6) 1.2534(17) -0.1323(9)
C18? C -0.1957(6) 1.2636(15) -0.1532(9)
H36? H -0.2122(6) 1.2804(15) -0.1148(9)
H37? H -0.2118(6) 1.1894(15) -0.1731(9)
C19? C -0.2104(11) 1.3542(18) -0.2010(10)
H38? H -0.2516(11) 1.3596(18) -0.2155(10)
H39? H -0.1944(11) 1.3372(18) -0.2392(10)
H40? H -0.1951(11) 1.4279(18) -0.1810(10)
loop_
_geom_bond_atom_site_label_1
_geom_bond_atom_site_label_2
_geom_bond_site_symmetry_1
_geom_bond_site_symmetry_2
Co1 Cl1 1_555 1_555
Cl2 Co1 1_555 1_555
Co2 O1 1_555 1_555
C1 H1 1_555 1_555
H2 C1 1_555 1_555
H3 C1 1_555 1_555
O1 C2 1_555 1_555
C2 C1 1_555 1_555
N1 C2 1_555 1_555
H4 N1 1_555 1_555
C3 N1 1_555 1_555
H5 C3 1_555 1_555
H6 C3 1_555 1_555
C4 C3 1_555 1_555
H7 C4 1_555 1_555
H8 C4 1_555 1_555
C5 C4 1_555 1_555
H9 C5 1_555 1_555
H10 C5 1_555 1_555
C6 H11 1_555 1_555
H12 C6 1_555 1_555
H13 C6 1_555 1_555
O2 Co2 1_555 1_555
C7 C6 1_555 1_555
N2 C7 1_555 1_555
H14 N2 1_555 1_555
C8 N2 1_555 1_555
H15 C8 1_555 1_555
H16 C8 1_555 1_555
C9 C8 1_555 1_555
H17 C9 1_555 1_555
H18 C9 1_555 1_555
C10 C9 1_555 1_555
H19 C10 1_555 1_555
H20 C10 1_555 1_555
C11 H21 1_555 1_555
H22 C11 1_555 1_555
H23 C11 1_555 1_555
O3 Co2 1_555 1_555
C12 C11 1_555 1_555
N3 C12 1_555 1_555
H24 N3 1_555 1_555
C13 N3 1_555 1_555
H25 C13 1_555 1_555
H26 C13 1_555 1_555
C14 C13 1_555 1_555
H27 C14 1_555 1_555
H28 C14 1_555 1_555
C15 C14 1_555 1_555
H29 C15 1_555 1_555
H30 C15 1_555 1_555
O4 C16 1_555 1_555
C16 H31 1_555 1_555
H32 C16 1_555 1_555
C17 C16 1_555 1_555
H33 C17 1_555 1_555
H34 C17 1_555 1_555
H35 C17 1_555 1_555
Cl1F Co1 1_555 1_555
Cl2F Co1 1_555 1_555
O1E Co2 1_555 1_555
O2E Co2 1_555 1_555
O3E Co2 1_555 1_555
C5D C5 1_555 1_555
C10F C10 1_555 1_555
C15D C15 1_555 1_555
C4D C5D 1_555 1_555
H9D C5D 1_555 1_555
H10D C5D 1_555 1_555
C9F C10F 1_555 1_555
H19F C10F 1_555 1_555
H20F C10F 1_555 1_555
C14D C15D 1_555 1_555
H29D C15D 1_555 1_555
H30D C15D 1_555 1_555
C3D C4D 1_555 1_555
H7D C4D 1_555 1_555
H8D C4D 1_555 1_555
C8F C9F 1_555 1_555
H17F C9F 1_555 1_555
H18F C9F 1_555 1_555
C13D C14D 1_555 1_555
H27D C14D 1_555 1_555
H28D C14D 1_555 1_555
N1D C3D 1_555 1_555
H5D C3D 1_555 1_555
H6D C3D 1_555 1_555
N2F C8F 1_555 1_555
H15F C8F 1_555 1_555
H16F C8F 1_555 1_555
N3D C13D 1_555 1_555
H25D C13D 1_555 1_555
H26D C13D 1_555 1_555
C2D N1D 1_555 1_555
H4D N1D 1_555 1_555
C7F N2F 1_555 1_555
H14F N2F 1_555 1_555
C12D N3D 1_555 1_555
H24D N3D 1_555 1_555
C1D C2D 1_555 1_555
O1D C2D 1_555 1_555
C6F C7F 1_555 1_555
O2F C7F 1_555 1_555
C11D C12D 1_555 1_555
O3D C12D 1_555 1_555
H1D C1D 1_555 1_555
H2D C1D 1_555 1_555
H3D C1D 1_555 1_555
Co2A O1D 1_555 1_555
H11F C6F 1_555 1_555
H12F C6F 1_555 1_555
H13F C6F 1_555 1_555
Co2C O2F 1_555 1_555
H21D C11D 1_555 1_555
H22D C11D 1_555 1_555
H23D C11D 1_555 1_555
Co2A_2 O3D 1_555 1_555
O2 C7 1_555 1_555
O3 C12 1_555 1_555

#END
