
#######################################################################
#
#                 Cambridge Crystallographic Data Centre
#                                CCDC 
#
#######################################################################
#
# If this CIF has been generated from an entry in the Cambridge 
# Structural Database, then it will include bibliographic, chemical, 
# crystal, experimental, refinement or atomic coordinate data resulting 
# from the CCDC's data processing and validation procedures.
#
#######################################################################

data_FEVYIO
_symmetry_cell_setting           orthorhombic
_symmetry_space_group_name_H-M   'P b c a'
_symmetry_Int_Tables_number      61
_space_group_name_Hall           '-P 2ac 2ab'
loop_
_symmetry_equiv_pos_site_id
_symmetry_equiv_pos_as_xyz
1 x,y,z
2 1/2+x,y,1/2-z
3 x,1/2-y,1/2+z
4 1/2-x,1/2+y,z
5 -x,-y,-z
6 1/2-x,-y,1/2+z
7 -x,1/2+y,1/2-z
8 1/2+x,1/2-y,-z
_cell_length_a                   13.285(5)
_cell_length_b                   9.569(2)
_cell_length_c                   16.460(3)
_cell_angle_alpha                90
_cell_angle_beta                 90
_cell_angle_gamma                90
_cell_volume                     2092.46
loop_
_atom_site_label
_atom_site_type_symbol
_atom_site_fract_x
_atom_site_fract_y
_atom_site_fract_z
Co1 Co 0.0000 0.5000 0.5000
C1 C -0.0995(6) 0.1384(7) 0.4955(4)
H1 H -0.1250(6) 0.0492(7) 0.4785(4)
H2 H -0.1548(6) 0.1998(7) 0.5073(4)
H3 H -0.0591(6) 0.1267(7) 0.5434(4)
O1 O 0.0055(4) 0.3132(5) 0.4338(3)
C2 C -0.0364(5) 0.2002(6) 0.4288(4)
N1 N -0.0307(4) 0.1236(6) 0.3607(3)
H4 H -0.0562(4) 0.0410(6) 0.3601(3)
C3 C 0.0178(5) 0.1777(8) 0.2877(4)
H5 H 0.0419(5) 0.1003(8) 0.2550(4)
H6 H 0.0753(5) 0.2343(8) 0.3030(4)
C4 C -0.2301(6) 0.0194(11) 0.1287(5)
H7 H -0.2805(6) 0.0382(11) 0.1691(5)
H8 H -0.2554(6) 0.0448(11) 0.0761(5)
H9 H -0.2138(6) -0.0783(11) 0.1292(5)
O2 O -0.0622(3) 0.0964(5) 0.1033(3)
C5 C -0.1379(5) 0.1027(7) 0.1469(4)
N2 N -0.1408(4) 0.1852(6) 0.2111(3)
H10 H 0.1961(4) 0.6913(6) 0.2618(3)
C6 C -0.0551(5) 0.2656(7) 0.2378(4)
H11 H -0.0203(5) 0.3028(7) 0.1908(4)
H12 H -0.0782(5) 0.3438(7) 0.2704(4)
O3 O 0.1388(4) 0.4511(5) 0.5507(3)
H13 H 0.1513(67) 0.3688(44) 0.5752(47)
H14 H 0.1715(65) 0.5174(76) 0.5791(53)
O2B O -0.0622(3) 0.4036(5) 0.6033(3)
Co1B Co 0.0000 0.0000 0.0000
Co1F Co 0.0000 1.0000 0.0000
O1F O -0.0055(4) 0.8132(5) 0.0662(3)
C2F C 0.0364(5) 0.7002(6) 0.0712(4)
C1F C 0.0995(6) 0.6384(7) 0.0045(4)
H1F H 0.1250(6) 0.5492(7) 0.0215(4)
H2F H 0.1548(6) 0.6998(7) -0.0073(4)
H3F H 0.0591(6) 0.6267(7) -0.0434(4)
N1F N 0.0307(4) 0.6236(6) 0.1393(3)
H4F H 0.0562(4) 0.5410(6) 0.1399(3)
C3F C -0.0178(5) 0.6777(8) 0.2123(4)
H5F H -0.0419(5) 0.6003(8) 0.2450(4)
H6F H -0.0753(5) 0.7343(8) 0.1970(4)
C6F C 0.0551(5) 0.7656(7) 0.2622(4)
N2F N 0.1408(4) 0.6852(6) 0.2889(3)
C5F C 0.1379(5) 0.6027(7) 0.3531(4)
C4F C 0.2301(6) 0.5194(11) 0.3713(5)
H7F H 0.2805(6) 0.5382(11) 0.3309(5)
H8F H 0.2554(6) 0.5448(11) 0.4239(5)
H9F H 0.2138(6) 0.4217(11) 0.3708(5)
O2F O 0.0622(3) 0.5964(5) 0.3967(3)
O1D O -0.0055(4) 0.6868(5) 0.5662(3)
O3D O -0.1388(4) 0.5489(5) 0.4493(3)
H13D H -0.1513(67) 0.6312(44) 0.4248(47)
H14D H -0.1715(65) 0.4826(76) 0.4209(53)
H11F H 0.0203(5) 0.8028(7) 0.3092(4)
H12F H 0.0782(5) 0.8438(7) 0.2296(4)
H10F H -0.1961(4) 0.1913(6) 0.2382(3)
Br1 Br 0.20171(5) 0.15746(7) 0.64633(4)
loop_
_geom_bond_atom_site_label_1
_geom_bond_atom_site_label_2
_geom_bond_site_symmetry_1
_geom_bond_site_symmetry_2
Co1 O1 1_555 1_555
C1 H1 1_555 1_555
H2 C1 1_555 1_555
H3 C1 1_555 1_555
O1 C2 1_555 1_555
C2 C1 1_555 1_555
N1 C2 1_555 1_555
H4 N1 1_555 1_555
C3 N1 1_555 1_555
H5 C3 1_555 1_555
H6 C3 1_555 1_555
C4 H7 1_555 1_555
H8 C4 1_555 1_555
H9 C4 1_555 1_555
O2 C5 1_555 1_555
C5 C4 1_555 1_555
N2 C5 1_555 1_555
H10 N2F 1_555 1_555
C6 C3 1_555 1_555
H11 C6 1_555 1_555
H12 C6 1_555 1_555
O3 Co1 1_555 1_555
H13 O3 1_555 1_555
H14 O3 1_555 1_555
O2B Co1 1_555 1_555
Co1B O2 1_555 1_555
Co1F O1F 1_555 1_555
O1F C2F 1_555 1_555
C2F C1F 1_555 1_555
C1F H1F 1_555 1_555
H2F C1F 1_555 1_555
H3F C1F 1_555 1_555
N1F C2F 1_555 1_555
H4F N1F 1_555 1_555
C3F N1F 1_555 1_555
H5F C3F 1_555 1_555
H6F C3F 1_555 1_555
C6F C3F 1_555 1_555
N2F C6F 1_555 1_555
C5F N2F 1_555 1_555
C4F C5F 1_555 1_555
H7F C4F 1_555 1_555
H8F C4F 1_555 1_555
H9F C4F 1_555 1_555
O2F Co1 1_555 1_555
O1D Co1 1_555 1_555
O3D Co1 1_555 1_555
H13D O3D 1_555 1_555
H14D O3D 1_555 1_555
H11F C6F 1_555 1_555
H12F C6F 1_555 1_555
H10F N2 1_555 1_555
N2 C6 1_555 1_555
C5F O2F 1_555 1_555

#END
