
#######################################################################
#
#                 Cambridge Crystallographic Data Centre
#                                CCDC 
#
#######################################################################
#
# If this CIF has been generated from an entry in the Cambridge 
# Structural Database, then it will include bibliographic, chemical, 
# crystal, experimental, refinement or atomic coordinate data resulting 
# from the CCDC's data processing and validation procedures.
#
#######################################################################

data_FEWBUG
_symmetry_cell_setting           triclinic
_symmetry_space_group_name_H-M   'P -1'
_symmetry_Int_Tables_number      2
_space_group_name_Hall           '-P 1'
loop_
_symmetry_equiv_pos_site_id
_symmetry_equiv_pos_as_xyz
1 x,y,z
2 -x,-y,-z
_cell_length_a                   7.756(2)
_cell_length_b                   10.743(3)
_cell_length_c                   10.816(3)
_cell_angle_alpha                68.674(4)
_cell_angle_beta                 84.017(4)
_cell_angle_gamma                74.430(3)
_cell_volume                     808.679
loop_
_atom_site_label
_atom_site_type_symbol
_atom_site_fract_x
_atom_site_fract_y
_atom_site_fract_z
Co1 Co 0.5000 0.5000 0.0000
O1 O 0.3000(3) 0.4560(2) -0.0819(3)
O2 O 0.4093(3) 0.3976(2) 0.1909(2)
N1 N 0.6855(3) 0.3104(3) -0.0004(3)
C1 C 0.8542(4) 0.3082(3) -0.0433(4)
H1 H 0.8885 0.3909 -0.0742
C2 C 0.9796(4) 0.1906(3) -0.0443(3)
H2 H 1.0951 0.1952 -0.0750
C3 C 0.9338(4) 0.0645(3) 0.0006(3)
C4 C 0.7589(4) 0.0659(3) 0.0459(3)
H3 H 0.7209 -0.0153 0.0770
C5 C 0.6417(4) 0.1893(3) 0.0441(3)
H4 H 0.5258 0.1878 0.0758
H5 H 0.327(15) 0.394(7) -0.113(9)
H6 H 0.229(14) 0.526(7) -0.128(10)
H7 H 0.334(12) 0.356(12) 0.193(8)
H8 H 0.403(4) 0.420(3) 0.260(2)
N1A N 1.3145(3) -0.3104(3) 0.0004(3)
C1A C 1.1458(4) -0.3082(3) 0.0433(4)
H1A H 1.1115 -0.3909 0.0742
C2A C 1.0204(4) -0.1906(3) 0.0443(3)
H2A H 0.9049 -0.1952 0.0750
C3A C 1.0662(4) -0.0645(3) -0.0006(3)
C4A C 1.2411(4) -0.0659(3) -0.0459(3)
H3A H 1.2791 0.0153 -0.0770
C5A C 1.3583(4) -0.1893(3) -0.0441(3)
H4A H 1.4742 -0.1878 -0.0758
O1A O 0.7000(3) 0.5440(2) 0.0819(3)
O2A O 0.5907(3) 0.6024(2) -0.1909(2)
H5A H 0.673(15) 0.606(7) 0.113(9)
H6A H 0.771(14) 0.474(7) 0.128(10)
H7A H 0.666(12) 0.644(12) -0.193(8)
H8A H 0.597(4) 0.580(3) -0.260(2)
Co1_2 Co 1.5000 -0.5000 0.0000
N1A_2 N 0.3145(3) 0.6896(3) 0.0004(3)
O3 O 0.9383(4) 0.3372(3) 0.2704(3)
O4 O 1.2005(4) 0.2197(3) 0.2278(3)
O5 O 1.3492(4) -0.0035(3) 0.2250(3)
O6 O 1.3148(4) -0.2113(3) 0.3077(4)
N2 N 0.5309(4) 0.0498(3) 0.4679(3)
C6 C 0.7078(4) 0.0140(4) 0.4171(3)
C7 C 0.7942(4) 0.1188(4) 0.3650(3)
H9 H 0.7323 0.2072 0.3610
C8 C 0.9698(4) 0.0986(3) 0.3180(3)
C9 C 1.0606(4) -0.0371(3) 0.3239(3)
C10 C 0.9682(5) -0.1406(4) 0.3714(3)
H10 H 1.0263 -0.2287 0.3720
C11 C 0.7945(5) -0.1175(4) 0.4174(4)
H11 H 0.7363 -0.1884 0.4480
C12 C 1.0403(5) 0.2277(4) 0.2682(3)
C13 C 1.2534(5) -0.0876(4) 0.2837(4)
O3A O 0.0617(4) -0.3372(3) 0.7296(3)
O4A O -0.2005(4) -0.2197(3) 0.7722(3)
O5A O -0.3492(4) 0.0035(3) 0.7750(3)
O6A O -0.3148(4) 0.2113(3) 0.6923(4)
N2A N 0.4691(4) -0.0498(3) 0.5321(3)
C6A C 0.2922(4) -0.0140(4) 0.5829(3)
C7A C 0.2058(4) -0.1188(4) 0.6350(3)
H9A H 0.2677 -0.2072 0.6390
C8A C 0.0302(4) -0.0986(3) 0.6820(3)
C9A C -0.0606(4) 0.0371(3) 0.6761(3)
C10A C 0.0318(5) 0.1406(4) 0.6286(3)
H10A H -0.0263 0.2287 0.6280
C11A C 0.2055(5) 0.1175(4) 0.5826(4)
H11A H 0.2637 0.1884 0.5520
C12A C -0.0403(5) -0.2277(4) 0.7318(3)
C13A C -0.2534(5) 0.0876(4) 0.7163(4)
O7 O 0.1215(10) 0.4816(6) 0.5892(6)
H12 H 0.187(14) 0.531(12) 0.586(16)
H13 H 0.019(7) 0.507(14) 0.615(15)
O8 O 0.3395(4) 0.2732(3) 0.7937(3)
H14 H 0.271(12) 0.320(13) 0.731(8)
H15 H 0.444(5) 0.253(13) 0.770(11)
O9 O 0.3859(12) 0.5022(8) 0.4002(7)
loop_
_geom_bond_atom_site_label_1
_geom_bond_atom_site_label_2
_geom_bond_site_symmetry_1
_geom_bond_site_symmetry_2
Co1 O1 1_555 1_555
O1 H5 1_555 1_555
O2 Co1 1_555 1_555
N1 Co1 1_555 1_555
C1 N1 1_555 1_555
H1 C1 1_555 1_555
C2 C1 1_555 1_555
H2 C2 1_555 1_555
C3 C2 1_555 1_555
C4 C3 1_555 1_555
H3 C4 1_555 1_555
C5 N1 1_555 1_555
H4 C5 1_555 1_555
H6 O1 1_555 1_555
H7 O2 1_555 1_555
H8 O2 1_555 1_555
O3 C12 1_555 1_555
O4 C12 1_555 1_555
O5 C13 1_555 1_555
O6 C13 1_555 1_555
N2 C6 1_555 1_555
C6 C7 1_555 1_555
C7 H9 1_555 1_555
C8 C7 1_555 1_555
C9 C8 1_555 1_555
C10 C9 1_555 1_555
H10 C10 1_555 1_555
C11 C6 1_555 1_555
H11 C11 1_555 1_555
C12 C8 1_555 1_555
C13 C9 1_555 1_555
O7 H12 1_555 1_555
H13 O7 1_555 1_555
O8 H14 1_555 1_555
H15 O8 1_555 1_555
N1A C1A 1_555 1_555
C1A H1A 1_555 1_555
C2A C1A 1_555 1_555
H2A C2A 1_555 1_555
C3A C3 1_555 1_555
C4A C3A 1_555 1_555
H3A C4A 1_555 1_555
C5A N1A 1_555 1_555
H4A C5A 1_555 1_555
O1A Co1 1_555 1_555
O2A Co1 1_555 1_555
H5A O1A 1_555 1_555
H6A O1A 1_555 1_555
H7A O2A 1_555 1_555
H8A O2A 1_555 1_555
Co1_2 N1A 1_555 1_555
N1A_2 Co1 1_555 1_555
O3A C12A 1_555 1_555
O4A C12A 1_555 1_555
O5A C13A 1_555 1_555
O6A C13A 1_555 1_555
N2A N2 1_555 1_555
C6A N2A 1_555 1_555
C7A C6A 1_555 1_555
H9A C7A 1_555 1_555
C8A C7A 1_555 1_555
C9A C8A 1_555 1_555
C10A C9A 1_555 1_555
H10A C10A 1_555 1_555
C11A C6A 1_555 1_555
H11A C11A 1_555 1_555
C12A C8A 1_555 1_555
C13A C9A 1_555 1_555
C4 C5 1_555 1_555
C10 C11 1_555 1_555
C2A C3A 1_555 1_555
C4A C5A 1_555 1_555
C10A C11A 1_555 1_555

#END
