
#######################################################################
#
#                 Cambridge Crystallographic Data Centre
#                                CCDC 
#
#######################################################################
#
# If this CIF has been generated from an entry in the Cambridge 
# Structural Database, then it will include bibliographic, chemical, 
# crystal, experimental, refinement or atomic coordinate data resulting 
# from the CCDC's data processing and validation procedures.
#
#######################################################################

data_FEWFOE
_symmetry_cell_setting           triclinic
_symmetry_space_group_name_H-M   'P -1'
_symmetry_Int_Tables_number      2
_space_group_name_Hall           '-P 1'
loop_
_symmetry_equiv_pos_site_id
_symmetry_equiv_pos_as_xyz
1 x,y,z
2 -x,-y,-z
_cell_length_a                   9.8773(13)
_cell_length_b                   11.0725(14)
_cell_length_c                   13.0064(17)
_cell_angle_alpha                101.1320(10)
_cell_angle_beta                 92.9350(10)
_cell_angle_gamma                104.7860(10)
_cell_volume                     1341.89
loop_
_atom_site_label
_atom_site_type_symbol
_atom_site_fract_x
_atom_site_fract_y
_atom_site_fract_z
O1 O 1.06935(16) -0.09371(16) 0.34578(12)
O2 O 0.40649(15) 0.07456(14) 0.37897(11)
O3 O 0.61482(15) -0.24728(13) 0.41817(13)
Nd1 Nd 0.765241(7) -0.013961(7) 0.503804(6)
O4 O 0.90991(17) 0.16434(14) 0.44519(14)
O5 O 0.67768(15) 0.17658(13) 0.57225(14)
O6 O 1.14100(16) 0.18643(13) 0.45527(13)
O7 O 0.58074(14) -0.01788(14) 0.37412(11)
O8 O 1.25790(15) 0.45916(13) 0.51930(12)
O9 O 0.3272(2) 0.1271(3) 0.19650(18)
O10 O 0.84179(15) -0.10454(15) 0.33795(12)
O11 O 0.67513(15) -0.29475(16) 0.18495(11)
N1 N 1.1766(2) 0.56458(16) 0.40406(16)
N2 N 0.4937(3) 0.1655(3) 0.08293(19)
N3 N 0.7831(2) -0.37767(19) 0.04768(14)
C1 C 1.0346(2) 0.22305(16) 0.43834(14)
C2 C 1.05279(18) 0.34654(16) 0.40150(14)
C3 C 0.9551(2) 0.3524(2) 0.32434(18)
H1 H 0.8790 0.2817 0.2981
C4 C 1.16367(19) 0.45851(17) 0.44010(15)
C5 C 0.9689(3) 0.4632(2) 0.2852(2)
H2 H 0.9046 0.4671 0.2320
C6 C 1.0806(3) 0.5659(2) 0.3278(2)
H3 H 1.0905 0.6405 0.3027
C7 C 0.4551(2) 0.1253(2) 0.16938(18)
C8 C 0.2412(4) 0.1834(5) 0.1379(4)
H4 H 0.2625 0.2745 0.1669
H5 H 0.2610 0.1712 0.0649
C9 C 0.6162(4) 0.1540(4) 0.0518(2)
H6 H 0.6442 0.1829 -0.0083
C10 C 0.5397(2) 0.07576(19) 0.23169(14)
C11 C 0.6641(2) 0.0610(2) 0.19421(18)
H7 H 0.7208 0.0239 0.2300
C12 C 0.50480(18) 0.04172(16) 0.33580(13)
C13 C 0.94595(19) -0.13307(16) 0.30150(13)
C14 C 0.92650(19) -0.22207(17) 0.19480(14)
C15 C 0.7948(2) -0.29893(18) 0.14105(14)
C16 C 1.0448(2) -0.2311(2) 0.14485(16)
H8 H 1.1332 -0.1826 0.1772
C17 C 1.0329(3) -0.3119(2) 0.04694(19)
H9 H 1.1120 -0.3179 0.0126
C18 C 0.9005(3) -0.3825(2) 0.00255(18)
H10 H 0.8920 -0.4369 -0.0629
C19 C 0.5437(2) -0.3624(3) 0.11961(19)
H11 H 0.5334 -0.4538 0.1053
H12 H 0.5431 -0.3354 0.0530
C20 C 0.4259(3) -0.3325(3) 0.1775(2)
H13 H 0.4182 -0.3714 0.2377
H14 H 0.3395 -0.3654 0.1318
H15 H 0.4442 -0.2416 0.2005
C21 C 1.3568(3) 0.5820(2) 0.5658(2)
H16 H 1.3065 0.6456 0.5879
H17 H 1.4190 0.6104 0.5148
C22 C 0.0988(4) 0.1251(4) 0.1438(4)
H18 H 0.0758 0.0370 0.1081
H19 H 0.0412 0.1680 0.1111
H20 H 0.0818 0.1305 0.2164
C23 C 1.4402(4) 0.5647(3) 0.6592(3)
H21 H 1.3770 0.5284 0.7057
H22 H 1.4996 0.6462 0.6960
H23 H 1.4973 0.5086 0.6356
C24 C 0.7046(3) 0.1015(4) 0.1033(2)
H24 H 0.7889 0.0935 0.0778
H25 H 0.721(3) 0.248(2) 0.568(3)
H26 H 0.5943(18) 0.167(3) 0.575(3)
H27 H 0.665(3) -0.284(3) 0.449(2)
H28 H 0.634(4) -0.255(4) 0.3572(16)
O1A O 0.93065(16) 0.09371(16) 0.65422(12)
O2A O 0.59351(15) -0.07456(14) 0.62103(11)
Nd1A Nd 0.234759(7) 0.013961(7) 0.496196(6)
Nd1A_2 Nd 1.234759(7) 0.013961(7) 0.496196(6)
O6A O 0.85900(16) -0.18643(13) 0.54473(13)
loop_
_geom_bond_atom_site_label_1
_geom_bond_atom_site_label_2
_geom_bond_site_symmetry_1
_geom_bond_site_symmetry_2
O1 C13 1_555 1_555
O2 C12 1_555 1_555
O3 Nd1 1_555 1_555
Nd1 O4 1_555 1_555
O4 C1 1_555 1_555
O5 Nd1 1_555 1_555
O6 C1 1_555 1_555
O7 Nd1 1_555 1_555
O8 C4 1_555 1_555
O9 C7 1_555 1_555
O10 Nd1 1_555 1_555
O11 C15 1_555 1_555
N1 C4 1_555 1_555
N2 C7 1_555 1_555
N3 C15 1_555 1_555
C1 C2 1_555 1_555
C2 C3 1_555 1_555
C3 H1 1_555 1_555
C4 C2 1_555 1_555
C5 C3 1_555 1_555
H2 C5 1_555 1_555
C6 N1 1_555 1_555
H3 C6 1_555 1_555
C7 C10 1_555 1_555
C8 O9 1_555 1_555
H4 C8 1_555 1_555
H5 C8 1_555 1_555
C9 N2 1_555 1_555
H6 C9 1_555 1_555
C10 C11 1_555 1_555
C11 H7 1_555 1_555
C12 O7 1_555 1_555
C13 O10 1_555 1_555
C14 C13 1_555 1_555
C15 C14 1_555 1_555
C16 C14 1_555 1_555
H8 C16 1_555 1_555
C17 C16 1_555 1_555
H9 C17 1_555 1_555
C18 N3 1_555 1_555
H10 C18 1_555 1_555
C19 O11 1_555 1_555
H11 C19 1_555 1_555
H12 C19 1_555 1_555
C20 C19 1_555 1_555
H13 C20 1_555 1_555
H14 C20 1_555 1_555
H15 C20 1_555 1_555
C21 O8 1_555 1_555
H16 C21 1_555 1_555
H17 C21 1_555 1_555
C22 C8 1_555 1_555
H18 C22 1_555 1_555
H19 C22 1_555 1_555
H20 C22 1_555 1_555
C23 C21 1_555 1_555
H21 C23 1_555 1_555
H22 C23 1_555 1_555
H23 C23 1_555 1_555
C24 C9 1_555 1_555
H24 C24 1_555 1_555
H25 O5 1_555 1_555
H26 O5 1_555 1_555
H27 O3 1_555 1_555
H28 O3 1_555 1_555
O1A Nd1 1_555 1_555
O2A Nd1 1_555 1_555
Nd1A O2 1_555 1_555
Nd1A_2 O1 1_555 1_555
O6A Nd1 1_555 1_555
O6 Nd1A_2 1_555 1_555
C5 C6 1_555 1_555
C10 C12 1_555 1_555
C11 C24 1_555 1_555
C17 C18 1_555 1_555

#END
