
#######################################################################
#
#                 Cambridge Crystallographic Data Centre
#                                CCDC 
#
#######################################################################
#
# If this CIF has been generated from an entry in the Cambridge 
# Structural Database, then it will include bibliographic, chemical, 
# crystal, experimental, refinement or atomic coordinate data resulting 
# from the CCDC's data processing and validation procedures.
#
#######################################################################

data_FEWFIY
_symmetry_cell_setting           triclinic
_symmetry_space_group_name_H-M   'P -1'
_symmetry_Int_Tables_number      2
_space_group_name_Hall           '-P 1'
loop_
_symmetry_equiv_pos_site_id
_symmetry_equiv_pos_as_xyz
1 x,y,z
2 -x,-y,-z
_cell_length_a                   9.7992(9)
_cell_length_b                   11.0186(10)
_cell_length_c                   13.0739(12)
_cell_angle_alpha                101.1960(10)
_cell_angle_beta                 93.0790(10)
_cell_angle_gamma                104.3880(10)
_cell_volume                     1333.59
loop_
_atom_site_label
_atom_site_type_symbol
_atom_site_fract_x
_atom_site_fract_y
_atom_site_fract_z
O1 O -0.0707(2) 0.0941(2) 1.15105(17)
O2 O 0.5822(2) -0.0152(2) 0.87622(16)
O3 O -0.0928(2) 0.1635(2) 0.94503(19)
Sm1 Sm 0.234865(10) 0.013030(9) 0.997052(8)
O4 O 0.4028(2) 0.0733(2) 0.88034(16)
O5 O 0.3217(2) -0.17688(18) 0.9277(2)
O6 O 0.3853(2) 0.24469(19) 1.08091(17)
O7 O 0.1401(2) 0.18363(19) 0.95618(18)
O8 O 0.1583(2) 0.1039(2) 1.15989(16)
O9 O 0.3244(3) 0.1330(4) 0.7028(3)
O10 O 0.2574(2) 0.4569(2) 1.01919(18)
O11 O 0.3237(2) 0.2932(2) 1.31397(15)
N1 N 0.4880(4) 0.1667(4) 0.5869(3)
N2 N 0.1766(3) 0.5624(2) 0.9042(2)
N3 N 0.2128(3) 0.3748(3) 1.45016(19)
C1 C 0.5031(3) 0.0424(2) 0.8383(2)
C2 C 0.5369(3) 0.0767(3) 0.7345(2)
C3 C 0.4516(4) 0.1283(3) 0.6736(2)
C4 C 0.6604(4) 0.0595(4) 0.6958(2)
H1 H 0.7181 0.0223 0.7314
C5 C 0.6989(5) 0.0973(6) 0.6041(3)
H2 H 0.7817 0.0858 0.5769
C6 C 0.6095(6) 0.1531(6) 0.5541(3)
H3 H 0.6368 0.1823 0.4943
C7 C 0.1631(3) 0.4566(3) 0.9399(2)
C8 C 0.0335(3) 0.2213(2) 0.9384(2)
C9 C 0.0514(3) 0.3446(2) 0.9012(2)
C10 C -0.0448(3) 0.3502(3) 0.8238(3)
H4 H -0.1206 0.2791 0.7970
C11 C 0.0808(4) 0.5637(3) 0.8268(3)
H5 H 0.0912 0.6381 0.8011
C12 C 0.3559(4) 0.5800(3) 1.0652(4)
H6 H 0.3049 0.6441 1.0867
H7 H 0.4191 0.6080 1.0148
C13 C -0.0309(4) 0.4608(3) 0.7846(3)
H8 H -0.0956 0.4645 0.7314
C14 C 0.4394(6) 0.5617(4) 1.1594(4)
H9 H 0.3751 0.5252 1.2051
H10 H 0.4988 0.6432 1.1966
H11 H 0.4972 0.5051 1.1363
C15 C 0.0522(3) 0.1322(2) 1.19567(19)
C16 C 0.0716(3) 0.2202(3) 1.3027(2)
C17 C 0.2022(3) 0.2971(3) 1.3573(2)
C18 C -0.0369(4) 0.3088(3) 1.4502(3)
H12 H -0.1167 0.3143 1.4843
C19 C -0.0487(3) 0.2283(3) 1.3520(2)
H13 H -0.1375 0.1799 1.3194
C20 C 0.4555(4) 0.3620(4) 1.3801(3)
H14 H 0.4561 0.3349 1.4464
H15 H 0.4647 0.4535 1.3942
C21 C 0.0942(4) 0.3791(3) 1.4949(2)
H16 H 0.1019 0.4332 1.5603
C22 C 0.5746(4) 0.3326(5) 1.3234(3)
H17 H 0.5617 0.2415 1.3063
H18 H 0.6623 0.3727 1.3672
H19 H 0.5769 0.3647 1.2601
C23 C 0.2363(5) 0.1910(7) 0.6470(6)
H20 H 0.2498 0.2799 0.6821
H21 H 0.2625 0.1892 0.5763
C24 C 0.0953(7) 0.1244(6) 0.6432(5)
H22 H 0.0800 0.0395 0.6012
H23 H 0.0359 0.1685 0.6130
H24 H 0.0724 0.1191 0.7130
H25 H 0.406(2) -0.178(6) 0.936(5)
H26 H 0.268(5) -0.250(3) 0.908(5)
H27 H 0.365(7) 0.247(7) 1.142(2)
H28 H 0.341(7) 0.288(6) 1.054(5)
O1A O 0.0707(2) -0.0941(2) 0.84895(17)
O2A O 0.4178(2) 0.0152(2) 1.12378(16)
O3A O 0.0928(2) -0.1635(2) 1.05497(19)
Sm1A Sm -0.234865(10) -0.013030(9) 1.002948(8)
Sm1A_2 Sm 0.765135(10) -0.013030(9) 1.002948(8)
loop_
_geom_bond_atom_site_label_1
_geom_bond_atom_site_label_2
_geom_bond_site_symmetry_1
_geom_bond_site_symmetry_2
O1 C15 1_555 1_555
O2 C1 1_555 1_555
O3 C8 1_555 1_555
Sm1 O4 1_555 1_555
O4 C1 1_555 1_555
O5 Sm1 1_555 1_555
O6 Sm1 1_555 1_555
O7 Sm1 1_555 1_555
O8 Sm1 1_555 1_555
O9 C3 1_555 1_555
O10 C7 1_555 1_555
O11 C17 1_555 1_555
N1 C3 1_555 1_555
N2 C7 1_555 1_555
N3 C17 1_555 1_555
C1 C2 1_555 1_555
C2 C3 1_555 1_555
C4 C2 1_555 1_555
H1 C4 1_555 1_555
C5 C4 1_555 1_555
H2 C5 1_555 1_555
C6 N1 1_555 1_555
H3 C6 1_555 1_555
C7 C9 1_555 1_555
C8 O7 1_555 1_555
C9 C8 1_555 1_555
C10 C9 1_555 1_555
H4 C10 1_555 1_555
C11 N2 1_555 1_555
H5 C11 1_555 1_555
C12 O10 1_555 1_555
H6 C12 1_555 1_555
H7 C12 1_555 1_555
C13 C10 1_555 1_555
H8 C13 1_555 1_555
C14 C12 1_555 1_555
H9 C14 1_555 1_555
H10 C14 1_555 1_555
H11 C14 1_555 1_555
C15 O8 1_555 1_555
C16 C15 1_555 1_555
C17 C16 1_555 1_555
C18 H12 1_555 1_555
C19 C16 1_555 1_555
H13 C19 1_555 1_555
C20 O11 1_555 1_555
H14 C20 1_555 1_555
H15 C20 1_555 1_555
C21 N3 1_555 1_555
H16 C21 1_555 1_555
C22 C20 1_555 1_555
H17 C22 1_555 1_555
H18 C22 1_555 1_555
H19 C22 1_555 1_555
C23 O9 1_555 1_555
H20 C23 1_555 1_555
H21 C23 1_555 1_555
C24 C23 1_555 1_555
H22 C24 1_555 1_555
H23 C24 1_555 1_555
H24 C24 1_555 1_555
H25 O5 1_555 1_555
H26 O5 1_555 1_555
H27 O6 1_555 1_555
H28 O6 1_555 1_555
O1A Sm1 1_555 1_555
O2A Sm1 1_555 1_555
O3A Sm1 1_555 1_555
Sm1A O1 1_555 1_555
Sm1A_2 O2 1_555 1_555
O3 Sm1A 1_555 1_555
C5 C6 1_555 1_555
C11 C13 1_555 1_555
C18 C19 1_555 1_555
C18 C21 1_555 1_555

#END
