
#######################################################################
#
#                 Cambridge Crystallographic Data Centre
#                                CCDC 
#
#######################################################################
#
# If this CIF has been generated from an entry in the Cambridge 
# Structural Database, then it will include bibliographic, chemical, 
# crystal, experimental, refinement or atomic coordinate data resulting 
# from the CCDC's data processing and validation procedures.
#
#######################################################################

data_FEWFEU
_symmetry_cell_setting           triclinic
_symmetry_space_group_name_H-M   'P -1'
_symmetry_Int_Tables_number      2
_space_group_name_Hall           '-P 1'
loop_
_symmetry_equiv_pos_site_id
_symmetry_equiv_pos_as_xyz
1 x,y,z
2 -x,-y,-z
_cell_length_a                   9.7636(6)
_cell_length_b                   10.9977(7)
_cell_length_c                   13.1059(8)
_cell_angle_alpha                101.3070(10)
_cell_angle_beta                 93.0500(10)
_cell_angle_gamma                104.1960(10)
_cell_volume                     1330.2
loop_
_atom_site_label
_atom_site_type_symbol
_atom_site_fract_x
_atom_site_fract_y
_atom_site_fract_z
O1 O 0.4008(2) 0.57303(19) -0.11886(15)
O2 O 1.0941(2) 0.33668(19) 0.05492(18)
O3 O 0.6148(2) 0.25697(18) -0.08047(16)
Eu1 Eu 0.765180(10) 0.487489(9) 0.002662(7)
O4 O 0.9289(2) 0.5940(2) 0.14958(16)
O5 O 0.6788(2) 0.67707(18) 0.07214(19)
O6 O 1.1586(2) 0.6039(2) 0.15920(15)
O7 O 0.5824(2) 0.4858(2) -0.12245(15)
O8 O 0.8605(2) 0.31770(19) 0.04374(17)
O9 O 1.3234(2) 0.7925(2) 0.31365(15)
O10 O 0.3243(3) 0.6369(4) -0.2941(2)
O11 O 0.7430(2) 0.0444(2) -0.01905(17)
N1 N 1.2113(3) 0.8735(3) 0.44955(18)
N2 N 0.4859(4) 0.6674(4) -0.4110(2)
N3 N 0.8231(3) -0.0621(2) 0.0961(2)
C1 C 1.0516(3) 0.6317(2) 0.19440(18)
C2 C 1.0701(3) 0.7191(2) 0.30183(19)
C3 C 1.2012(3) 0.7962(3) 0.3563(2)
C4 C 1.0926(4) 0.8771(3) 0.4936(2)
H1 H 1.0999 0.9308 0.5591
C5 C 0.9608(4) 0.8069(3) 0.4486(2)
H2 H 0.8806 0.8124 0.4826
C6 C 0.9493(3) 0.7270(3) 0.3508(2)
H3 H 0.8604 0.6786 0.3180
C7 C 1.4547(4) 0.8613(4) 0.3790(3)
H4 H 1.4554 0.8344 0.4452
H5 H 1.4631 0.9529 0.3932
C8 C 0.9669(3) 0.2798(2) 0.06132(19)
C9 C 0.9491(3) 0.1567(2) 0.0992(2)
C10 C 1.0448(3) 0.1501(3) 0.1765(2)
H6 H 1.1210 0.2211 0.2032
C11 C 1.0313(4) 0.0404(3) 0.2162(3)
H7 H 1.0958 0.0370 0.2698
C12 C 0.9197(4) -0.0628(3) 0.1736(3)
H8 H 0.9097 -0.1372 0.1993
C13 C 0.6437(4) -0.0787(3) -0.0661(3)
H9 H 0.5790 -0.1065 -0.0166
H10 H 0.6946 -0.1435 -0.0871
C14 C 0.8372(3) 0.0445(3) 0.0603(2)
C15 C 0.5025(3) 0.5433(2) -0.16077(19)
C16 C 0.5357(3) 0.5763(3) -0.2646(2)
C17 C 0.4505(3) 0.6303(3) -0.3240(2)
C18 C 0.6071(5) 0.6505(6) -0.4448(3)
H11 H 0.6332 0.6771 -0.5057
C19 C 0.6968(5) 0.5958(5) -0.3952(3)
H12 H 0.7799 0.5844 -0.4225
C20 C 0.6591(3) 0.5586(3) -0.3035(2)
H13 H 0.7173 0.5216 -0.2681
C21 C 0.2355(5) 0.6952(6) -0.3505(5)
H14 H 0.2438 0.7825 -0.3131
H15 H 0.2661 0.6982 -0.4194
C22 C 0.5628(6) -0.0593(4) -0.1603(4)
H16 H 0.5049 -0.0021 -0.1378
H17 H 0.5034 -0.1405 -0.1982
H18 H 0.6287 -0.0229 -0.2050
C23 C 1.5751(4) 0.8325(5) 0.3227(3)
H19 H 1.5598 0.7411 0.3015
H20 H 1.6620 0.8682 0.3683
H21 H 1.5811 0.8695 0.2621
C24 C 0.0958(6) 0.6237(6) -0.3600(6)
H22 H 0.0737 0.5641 -0.4264
H23 H 0.0341 0.6799 -0.3552
H24 H 0.0827 0.5773 -0.3048
H25 H 0.660(7) 0.213(6) -0.054(5)
H26 H 0.606(7) 0.232(6) -0.1449(9)
H27 H 0.721(6) 0.754(2) 0.083(6)
H28 H 0.5921(15) 0.662(6) 0.058(5)
O1A O 0.5992(2) 0.42697(19) 0.11886(15)
O2A O 0.9059(2) 0.66332(19) -0.05492(18)
Eu1A Eu 0.234820(10) 0.512511(9) -0.002662(7)
Eu1A_2 Eu 1.234820(10) 0.512511(9) -0.002662(7)
O6A O 0.8414(2) 0.3961(2) -0.15920(15)
loop_
_geom_bond_atom_site_label_1
_geom_bond_atom_site_label_2
_geom_bond_site_symmetry_1
_geom_bond_site_symmetry_2
O1 C15 1_555 1_555
O2 C8 1_555 1_555
O3 Eu1 1_555 1_555
Eu1 O4 1_555 1_555
O4 C1 1_555 1_555
O5 Eu1 1_555 1_555
O6 C1 1_555 1_555
O7 Eu1 1_555 1_555
O8 Eu1 1_555 1_555
O9 C3 1_555 1_555
O10 C17 1_555 1_555
O11 C13 1_555 1_555
N1 C3 1_555 1_555
N2 C17 1_555 1_555
N3 C12 1_555 1_555
C1 C2 1_555 1_555
C2 C3 1_555 1_555
C4 N1 1_555 1_555
H1 C4 1_555 1_555
C5 C4 1_555 1_555
H2 C5 1_555 1_555
C6 C2 1_555 1_555
H3 C6 1_555 1_555
C7 O9 1_555 1_555
H4 C7 1_555 1_555
H5 C7 1_555 1_555
C8 O8 1_555 1_555
C9 C8 1_555 1_555
C10 C9 1_555 1_555
H6 C10 1_555 1_555
C11 C10 1_555 1_555
H7 C11 1_555 1_555
C12 C11 1_555 1_555
H8 C12 1_555 1_555
C13 H9 1_555 1_555
H10 C13 1_555 1_555
C14 O11 1_555 1_555
C15 O7 1_555 1_555
C16 C15 1_555 1_555
C17 C16 1_555 1_555
C18 N2 1_555 1_555
H11 C18 1_555 1_555
C19 C18 1_555 1_555
H12 C19 1_555 1_555
C20 C16 1_555 1_555
H13 C20 1_555 1_555
C21 O10 1_555 1_555
H14 C21 1_555 1_555
H15 C21 1_555 1_555
C22 C13 1_555 1_555
H16 C22 1_555 1_555
H17 C22 1_555 1_555
H18 C22 1_555 1_555
C23 C7 1_555 1_555
H19 C23 1_555 1_555
H20 C23 1_555 1_555
H21 C23 1_555 1_555
C24 C21 1_555 1_555
H22 C24 1_555 1_555
H23 C24 1_555 1_555
H24 C24 1_555 1_555
H25 O3 1_555 1_555
H26 O3 1_555 1_555
H27 O5 1_555 1_555
H28 O5 1_555 1_555
O1A Eu1 1_555 1_555
O2A Eu1 1_555 1_555
Eu1A O1 1_555 1_555
Eu1A_2 O2 1_555 1_555
O6A Eu1 1_555 1_555
O6 Eu1A_2 1_555 1_555
N3 C14 1_555 1_555
C5 C6 1_555 1_555
C9 C14 1_555 1_555
C19 C20 1_555 1_555

#END
