
#######################################################################
#
#                 Cambridge Crystallographic Data Centre
#                                CCDC 
#
#######################################################################
#
# If this CIF has been generated from an entry in the Cambridge 
# Structural Database, then it will include bibliographic, chemical, 
# crystal, experimental, refinement or atomic coordinate data resulting 
# from the CCDC's data processing and validation procedures.
#
#######################################################################

data_FEWGOE
_symmetry_cell_setting           triclinic
_symmetry_space_group_name_H-M   'P -1'
_symmetry_Int_Tables_number      2
_space_group_name_Hall           '-P 1'
loop_
_symmetry_equiv_pos_site_id
_symmetry_equiv_pos_as_xyz
1 x,y,z
2 -x,-y,-z
_cell_length_a                   9.7820(10)
_cell_length_b                   18.303(3)
_cell_length_c                   18.832(3)
_cell_angle_alpha                99.820(10)
_cell_angle_beta                 99.170(10)
_cell_angle_gamma                96.740(10)
_cell_volume                     3243.41
loop_
_atom_site_label
_atom_site_type_symbol
_atom_site_fract_x
_atom_site_fract_y
_atom_site_fract_z
Zn1 Zn -0.10446(14) 0.11089(6) 0.06439(6)
Ag1 Ag 0.42232(11) 0.07681(6) 0.54901(5)
Ag2 Ag 0.39066(11) 0.60741(5) 0.05157(6)
C1 C -0.1641(11) -0.0372(5) 0.1173(5)
C2 C -0.1415(12) -0.0662(6) 0.1836(6)
H1 H -0.1859 -0.1115 0.1907
C3 C -0.0477(12) -0.0182(6) 0.2330(6)
H2 H -0.0130 -0.0240 0.2803
C4 C -0.0089(11) 0.0445(5) 0.2004(5)
C5 C 0.0865(11) 0.1082(5) 0.2335(5)
C6 C 0.1214(11) 0.1713(5) 0.2036(5)
C7 C 0.2141(12) 0.2390(6) 0.2392(6)
H3 H 0.2690 0.2469 0.2857
C8 C 0.2090(12) 0.2885(6) 0.1950(5)
H4 H 0.2564 0.3373 0.2054
C9 C 0.1149(12) 0.2517(6) 0.1273(6)
C10 C 0.0744(11) 0.2849(5) 0.0666(5)
C11 C -0.0173(11) 0.2510(5) 0.0022(5)
C12 C -0.0490(11) 0.2840(6) -0.0617(5)
H5 H -0.0164 0.3326 -0.0661
C13 C -0.1319(11) 0.2331(5) -0.1124(6)
H6 H -0.1672 0.2393 -0.1594
C14 C -0.1596(11) 0.1667(5) -0.0844(5)
C15 C -0.2431(11) 0.0997(5) -0.1184(5)
C16 C -0.2666(11) 0.0342(5) -0.0890(5)
C17 C -0.3403(12) -0.0363(6) -0.1286(6)
H7 H -0.3774 -0.0470 -0.1785
C18 C -0.3482(11) -0.0846(6) -0.0835(5)
H8 H -0.3914 -0.1342 -0.0951
C19 C -0.2743(11) -0.0428(5) -0.0114(5)
C20 C -0.2540(11) -0.0722(5) 0.0523(5)
C21 C 0.3813(14) 0.1096(6) 0.3917(6)
H9 H 0.4784 0.1135 0.4000
C22 C 0.3110(13) 0.1143(6) 0.3232(6)
H10 H 0.3609 0.1207 0.2860
C23 C 0.1680(12) 0.1097(5) 0.3099(5)
C24 C 0.0970(14) 0.1020(6) 0.3667(6)
H11 H 0.0001 0.0992 0.3601
C25 C 0.1765(15) 0.0984(7) 0.4351(7)
H12 H 0.1300 0.0953 0.4741
C26 C 0.3505(13) 0.4469(6) 0.0726(6)
H13 H 0.4456 0.4545 0.0712
C27 C 0.2891(13) 0.3751(6) 0.0739(5)
H14 H 0.3422 0.3363 0.0762
C28 C 0.1454(12) 0.3631(6) 0.0715(5)
C29 C 0.0680(13) 0.4220(6) 0.0729(5)
H15 H -0.0273 0.4155 0.0739
C30 C 0.1437(13) 0.4929(7) 0.0726(6)
H16 H 0.0945 0.5334 0.0721
C31 C -0.5356(13) 0.0703(6) -0.2845(6)
H17 H -0.6325 0.0571 -0.2945
C32 C -0.4658(12) 0.0759(6) -0.2124(6)
H18 H -0.5163 0.0671 -0.1761
C33 C -0.3217(12) 0.0946(5) -0.1952(5)
C34 C -0.2506(13) 0.1068(5) -0.2524(6)
H19 H -0.1537 0.1192 -0.2438
C35 C -0.3305(13) 0.0997(6) -0.3226(6)
H20 H -0.2832 0.1074 -0.3605
C36 C -0.3520(12) -0.2726(6) 0.0731(5)
H21 H -0.3076 -0.3107 0.0889
C37 C -0.2722(12) -0.2055(5) 0.0719(5)
H22 H -0.1752 -0.1994 0.0852
C38 C -0.3377(12) -0.1470(6) 0.0506(5)
C39 C -0.4797(11) -0.1597(6) 0.0287(5)
H23 H -0.5273 -0.1224 0.0135
C40 C -0.5511(13) -0.2291(6) 0.0295(5)
H24 H -0.6475 -0.2370 0.0129
C41 C 0.2425(18) 0.4852(8) -0.2185(8)
C42 C 0.356(2) 0.4917(11) -0.2478(12)
H25 H 0.4405 0.4896 -0.2182
C43 C 0.360(3) 0.5015(12) -0.3209(14)
H26 H 0.4429 0.5069 -0.3394
C44 C 0.231(3) 0.5022(11) -0.3610(11)
C45 C 0.111(3) 0.5004(12) -0.3354(13)
H27 H 0.0278 0.5041 -0.3651
C46 C 0.116(2) 0.4922(10) -0.2588(12)
H28 H 0.0358 0.4918 -0.2381
C47 C 0.222(3) 0.5224(15) -0.4371(12)
H29 H 0.1256 0.5207 -0.4586
H30 H 0.2635 0.4872 -0.4677
H31 H 0.2712 0.5720 -0.4327
C48 C 0.8882(15) 0.1430(7) 0.5426(7)
C49 C 0.9910(13) 0.1108(7) 0.5822(6)
H32 H 0.9997 0.0608 0.5662
C50 C 1.0794(14) 0.1514(7) 0.6442(7)
H33 H 1.1502 0.1297 0.6680
C51 C 1.0630(17) 0.2256(8) 0.6716(8)
C52 C 0.9591(19) 0.2573(10) 0.6347(10)
H34 H 0.9441 0.3054 0.6537
C53 C 0.8757(17) 0.2172(9) 0.5689(8)
H35 H 0.8112 0.2406 0.5424
C54 C 1.1528(18) 0.2694(9) 0.7424(8)
H36 H 1.2169 0.2388 0.7619
H37 H 1.0941 0.2835 0.7771
H38 H 1.2045 0.3136 0.7331
N1 N -0.0810(9) 0.0318(4) 0.1292(4)
N2 N 0.0612(9) 0.1802(4) 0.1340(4)
N3 N -0.0869(9) 0.1789(4) -0.0120(4)
N4 N -0.2249(9) 0.0291(4) -0.0171(4)
N5 N 0.3130(11) 0.0994(5) 0.4467(5)
N6 N 0.2829(10) 0.5054(5) 0.0731(5)
N7 N -0.4722(10) 0.0825(5) -0.3391(5)
N8 N -0.4950(10) -0.2847(5) 0.0515(4)
O1 O 0.3666(9) 0.4344(4) -0.1111(5)
O2 O 0.2776(9) 0.5527(4) -0.0858(4)
O3 O 0.1169(9) 0.4360(5) -0.1220(5)
O4 O 0.6460(8) 0.0696(4) 0.4922(4)
O5 O 0.7482(9) 0.1432(4) 0.4146(5)
O6 O 0.8368(9) 0.0287(4) 0.4360(5)
S1 S 0.2502(4) 0.47605(19) -0.12635(19)
S2 S 0.7723(4) 0.0923(2) 0.46469(17)
C55 C -0.2879(19) 0.1811(10) 0.1800(10)
N9 N -0.2989(19) 0.2441(10) 0.2058(9)
C56 C -0.265(2) 0.3074(11) 0.1636(10)
H39 H -0.2780 0.3545 0.1911
H40 H -0.3256 0.2972 0.1166
H41 H -0.1691 0.3100 0.1568
C57 C -0.323(2) 0.2691(12) 0.2851(11)
H42 H -0.3286 0.3218 0.2940
H43 H -0.2460 0.2595 0.3191
H44 H -0.4083 0.2416 0.2914
C58 C -0.3085(15) 0.1223(7) 0.2266(7)
H45 H -0.2969 0.0744 0.2001
H46 H -0.4010 0.1197 0.2379
H47 H -0.2406 0.1356 0.2712
O7 O -0.2583(8) 0.1652(4) 0.1144(4)
Ag1_2 Ag -0.57768(11) 0.07681(6) -0.45099(5)
Ag1A Ag 0.57768(11) -0.07681(6) 0.45099(5)
Ag2_2 Ag -0.60934(11) -0.39259(5) 0.05157(6)
N7_2 N 0.5278(10) 0.0825(5) 0.6609(5)
N8_2 N 0.5050(10) 0.7153(5) 0.0515(4)
O4A O 0.3540(8) -0.0696(4) 0.5078(4)
loop_
_geom_bond_atom_site_label_1
_geom_bond_atom_site_label_2
_geom_bond_site_symmetry_1
_geom_bond_site_symmetry_2
Zn1 N1 1_555 1_555
Ag1 N5 1_555 1_555
Ag2 N6 1_555 1_555
C1 C2 1_555 1_555
C2 H1 1_555 1_555
C3 C2 1_555 1_555
H2 C3 1_555 1_555
C4 C3 1_555 1_555
C5 C4 1_555 1_555
C6 C5 1_555 1_555
C7 C6 1_555 1_555
H3 C7 1_555 1_555
C8 C7 1_555 1_555
H4 C8 1_555 1_555
C9 C8 1_555 1_555
C10 C9 1_555 1_555
C11 C10 1_555 1_555
C12 C11 1_555 1_555
H5 C12 1_555 1_555
C13 C12 1_555 1_555
H6 C13 1_555 1_555
C14 C13 1_555 1_555
C15 C14 1_555 1_555
C16 C15 1_555 1_555
C17 C16 1_555 1_555
H7 C17 1_555 1_555
C18 C17 1_555 1_555
H8 C18 1_555 1_555
C19 C18 1_555 1_555
C20 C1 1_555 1_555
C21 H9 1_555 1_555
C22 C21 1_555 1_555
H10 C22 1_555 1_555
C23 C5 1_555 1_555
C24 C23 1_555 1_555
H11 C24 1_555 1_555
C25 C24 1_555 1_555
H12 C25 1_555 1_555
C26 H13 1_555 1_555
C27 C26 1_555 1_555
H14 C27 1_555 1_555
C28 C10 1_555 1_555
C29 C28 1_555 1_555
H15 C29 1_555 1_555
C30 C29 1_555 1_555
H16 C30 1_555 1_555
C31 H17 1_555 1_555
C32 C31 1_555 1_555
H18 C32 1_555 1_555
C33 C15 1_555 1_555
C34 C33 1_555 1_555
H19 C34 1_555 1_555
C35 C34 1_555 1_555
H20 C35 1_555 1_555
C36 H21 1_555 1_555
C37 C36 1_555 1_555
H22 C37 1_555 1_555
C38 C20 1_555 1_555
C39 C38 1_555 1_555
H23 C39 1_555 1_555
C40 C39 1_555 1_555
H24 C40 1_555 1_555
C41 C42 1_555 1_555
C42 H25 1_555 1_555
C43 C42 1_555 1_555
H26 C43 1_555 1_555
C44 C43 1_555 1_555
C45 C44 1_555 1_555
H27 C45 1_555 1_555
C46 C41 1_555 1_555
H28 C46 1_555 1_555
C47 C44 1_555 1_555
H29 C47 1_555 1_555
H30 C47 1_555 1_555
H31 C47 1_555 1_555
C48 C49 1_555 1_555
C49 H32 1_555 1_555
C50 C49 1_555 1_555
H33 C50 1_555 1_555
C51 C50 1_555 1_555
C52 C51 1_555 1_555
H34 C52 1_555 1_555
C53 C48 1_555 1_555
H35 C53 1_555 1_555
C54 C51 1_555 1_555
H36 C54 1_555 1_555
H37 C54 1_555 1_555
H38 C54 1_555 1_555
N1 C1 1_555 1_555
N2 Zn1 1_555 1_555
N3 Zn1 1_555 1_555
N4 Zn1 1_555 1_555
N5 C21 1_555 1_555
N6 C26 1_555 1_555
N7 C31 1_555 1_555
N8 C36 1_555 1_555
O1 S1 1_555 1_555
O2 Ag2 1_555 1_555
O3 S1 1_555 1_555
O4 Ag1 1_555 1_555
O5 S2 1_555 1_555
O6 S2 1_555 1_555
S1 C41 1_555 1_555
S2 C48 1_555 1_555
C55 N9 1_555 1_555
N9 C56 1_555 1_555
C56 H39 1_555 1_555
H40 C56 1_555 1_555
H41 C56 1_555 1_555
C57 N9 1_555 1_555
H42 C57 1_555 1_555
H43 C57 1_555 1_555
H44 C57 1_555 1_555
C58 C55 1_555 1_555
H45 C58 1_555 1_555
H46 C58 1_555 1_555
H47 C58 1_555 1_555
O7 Zn1 1_555 1_555
Ag1_2 N7 1_555 1_555
Ag1A O4 1_555 1_555
Ag2_2 N8 1_555 1_555
N7_2 Ag1 1_555 1_555
N8_2 Ag2 1_555 1_555
O4A Ag1 1_555 1_555
C4 N1 1_555 1_555
C6 N2 1_555 1_555
C9 N2 1_555 1_555
C11 N3 1_555 1_555
C14 N3 1_555 1_555
C16 N4 1_555 1_555
C19 C20 1_555 1_555
C19 N4 1_555 1_555
C22 C23 1_555 1_555
C25 N5 1_555 1_555
C27 C28 1_555 1_555
C30 N6 1_555 1_555
C32 C33 1_555 1_555
C35 N7 1_555 1_555
C37 C38 1_555 1_555
C40 N8 1_555 1_555
C45 C46 1_555 1_555
C52 C53 1_555 1_555
O2 S1 1_555 1_555
O4 S2 1_555 1_555
C55 O7 1_555 1_555
Ag1A O4A 1_555 1_555

#END
