
#######################################################################
#
#                 Cambridge Crystallographic Data Centre
#                                CCDC 
#
#######################################################################
#
# If this CIF has been generated from an entry in the Cambridge 
# Structural Database, then it will include bibliographic, chemical, 
# crystal, experimental, refinement or atomic coordinate data resulting 
# from the CCDC's data processing and validation procedures.
#
#######################################################################

data_FEWHAS
_symmetry_cell_setting           monoclinic
_symmetry_space_group_name_H-M   'P 21/n'
_symmetry_Int_Tables_number      14
_space_group_name_Hall           '-P 2yn'
loop_
_symmetry_equiv_pos_site_id
_symmetry_equiv_pos_as_xyz
1 x,y,z
2 1/2-x,1/2+y,1/2-z
3 -x,-y,-z
4 1/2+x,1/2-y,1/2+z
_cell_length_a                   7.247(4)
_cell_length_b                   6.814(4)
_cell_length_c                   29.631(17)
_cell_angle_alpha                90
_cell_angle_beta                 90.015(9)
_cell_angle_gamma                90
_cell_volume                     1463.21
loop_
_atom_site_label
_atom_site_type_symbol
_atom_site_fract_x
_atom_site_fract_y
_atom_site_fract_z
O1 O 1.1391(7) 1.1509(7) 0.23453(16)
H1 H 1.131(9) 1.266(4) 0.224(2)
H2 H 1.226(7) 1.130(9) 0.2524(19)
Zn1 Zn 0.94245(12) 0.95288(8) 0.23042(3)
O2 O 1.1045(7) 0.5328(6) 0.20642(14)
O3 O 0.9732(7) 0.8006(6) 0.17700(12)
C1 C 1.0235(9) 0.6209(9) 0.1752(2)
C2 C 0.9727(10) 0.5151(9) 0.1326(2)
C3 C 0.8961(10) 0.6179(9) 0.09713(19)
H3 H 0.8773 0.7525 0.0997
C4 C 0.8470(10) 0.5212(9) 0.0576(2)
C5 C 0.8685(10) 0.3196(9) 0.0546(2)
H4 H 0.8295 0.2534 0.0289
C6 C 0.9479(11) 0.2164(8) 0.0899(2)
H5 H 0.9652 0.0816 0.0875
C7 C 1.0011(10) 0.3138(9) 0.1284(2)
H6 H 1.0567 0.2446 0.1518
C8 C 0.7707(10) 0.6337(10) 0.0199(2)
N1 N 0.7725(9) 0.8303(8) 0.02175(18)
N2 N 0.7105(10) 0.9309(8) -0.01284(19)
C9 C 0.6460(10) 0.8291(9) -0.0479(2)
N3 N 0.6359(9) 0.6310(8) -0.04990(17)
N4 N 0.6983(9) 0.5327(7) -0.01522(17)
C10 C 0.5820(10) 0.9381(9) -0.08846(19)
C11 C 0.5957(11) 1.1393(10) -0.0908(2)
H7 H 0.6428 1.2095 -0.0664
C12 C 0.5401(12) 1.2356(9) -0.1288(2)
H8 H 0.5518 1.3714 -0.1302
C13 C 0.4677(10) 1.1366(8) -0.1648(2)
H9 H 0.4272 1.2049 -0.1901
C14 C 0.4553(10) 0.9358(8) -0.16334(18)
C15 C 0.5150(9) 0.8371(8) -0.12473(19)
H10 H 0.509 0.7008 -0.1237
C16 C 0.3950(9) 0.8207(9) -0.20288(19)
O4 O 0.2730(6) 0.8797(6) -0.22991(15)
O5 O 0.4755(6) 0.6579(6) -0.20979(12)
Zn1B Zn 0.05755(12) 1.04712(8) -0.23042(3)
Zn1C Zn 0.44245(12) 0.54712(8) -0.26958(3)
O4B O 0.7270(6) 1.1203(6) 0.22991(15)
O5C O 0.9755(6) 0.8421(6) 0.29021(12)
loop_
_geom_bond_atom_site_label_1
_geom_bond_atom_site_label_2
_geom_bond_site_symmetry_1
_geom_bond_site_symmetry_2
O1 H1 1_555 1_555
H2 O1 1_555 1_555
Zn1 O1 1_555 1_555
O2 C1 1_555 1_555
O3 Zn1 1_555 1_555
C1 O3 1_555 1_555
C2 C1 1_555 1_555
C3 C2 1_555 1_555
H3 C3 1_555 1_555
C4 C3 1_555 1_555
C5 C4 1_555 1_555
H4 C5 1_555 1_555
C6 C5 1_555 1_555
H5 C6 1_555 1_555
C7 C2 1_555 1_555
H6 C7 1_555 1_555
C8 C4 1_555 1_555
N1 C8 1_555 1_555
N2 N1 1_555 1_555
C9 N2 1_555 1_555
N3 C9 1_555 1_555
N4 C8 1_555 1_555
C10 C9 1_555 1_555
C11 C10 1_555 1_555
H7 C11 1_555 1_555
C12 C11 1_555 1_555
H8 C12 1_555 1_555
C13 C12 1_555 1_555
H9 C13 1_555 1_555
C14 C13 1_555 1_555
C15 C10 1_555 1_555
H10 C15 1_555 1_555
C16 C14 1_555 1_555
O4 C16 1_555 1_555
O5 C16 1_555 1_555
Zn1B O4 1_555 1_555
Zn1C O5 1_555 1_555
O4B Zn1 1_555 1_555
O5C Zn1 1_555 1_555
C6 C7 1_555 1_555
N3 N4 1_555 1_555
C14 C15 1_555 1_555

#END
