
#######################################################################
#
#                 Cambridge Crystallographic Data Centre
#                                CCDC 
#
#######################################################################
#
# If this CIF has been generated from an entry in the Cambridge 
# Structural Database, then it will include bibliographic, chemical, 
# crystal, experimental, refinement or atomic coordinate data resulting 
# from the CCDC's data processing and validation procedures.
#
#######################################################################

data_FEWNEA
_symmetry_cell_setting           orthorhombic
_symmetry_space_group_name_H-M   'I 2 a m'
_symmetry_Int_Tables_number      46
_space_group_name_Hall           'I -2c 2'
loop_
_symmetry_equiv_pos_site_id
_symmetry_equiv_pos_as_xyz
1 x,y,z
2 x,y,1/2-z
3 1/2+x,1/2-y,z
4 1/2+x,1/2-y,1/2-z
5 1/2+x,1/2+y,1/2+z
6 1/2+x,1/2+y,-z
7 x,-y,1/2+z
8 x,-y,-z
_cell_length_a                   6.992(3)
_cell_length_b                   15.207(7)
_cell_length_c                   17.175(8)
_cell_angle_alpha                90
_cell_angle_beta                 90
_cell_angle_gamma                90
_cell_volume                     1826.17
loop_
_atom_site_label
_atom_site_type_symbol
_atom_site_fract_x
_atom_site_fract_y
_atom_site_fract_z
Mn1 Mn 0.5000 0.5000 0.0000
O1 O 0.2655(4) 0.4080(2) -0.0378(1)
O2 O -0.2642(3) 0.4008(2) 0.0245(1)
N1 N 0.3653(5) 0.4148(2) 0.1127(1)
N2 N 0.2099(5) 0.3643(5) 0.0854(2)
N3 N -0.3598(5) 0.4462(2) -0.1204(2)
N4 N -0.2037(5) 0.3899(2) -0.1036(2)
C1 C 0.1708(4) 0.3662(3) 0.0102(1)
C2 C 0.0013(7) 0.3118(1) -0.0150(1)
C3 C -0.1685(5) 0.3713(1) -0.0295(2)
H1 H -0.029(7) 0.279(2) 0.026(2)
H2 H 0.042(8) 0.290(2) -0.060(2)
H3 H 0.46(1) 0.369(3) 0.133(3)
H4 H 0.33(1) 0.468(4) 0.144(4)
H5 H 0.145(7) 0.335(2) 0.116(3)
H6 H -0.439(7) 0.409(3) -0.147(2)
H7 H -0.143(6) 0.355(2) -0.141(2)
H8 H -0.314(7) 0.492(2) -0.150(3)
O1G O 0.2655(4) 0.5920(2) 0.0378(1)
O2G O -0.2642(3) 0.5992(2) -0.0245(1)
N1G N 0.3653(5) 0.5852(2) -0.1127(1)
N2G N 0.2099(5) 0.6357(5) -0.0854(2)
N3G N -0.3598(5) 0.5538(2) 0.1204(2)
N4G N -0.2037(5) 0.6101(2) 0.1036(2)
C1G C 0.1708(4) 0.6338(3) -0.0102(1)
C2G C 0.0013(7) 0.6882(1) 0.0150(1)
C3G C -0.1685(5) 0.6287(1) 0.0295(2)
H1G H -0.029(7) 0.721(2) -0.026(2)
H2G H 0.042(8) 0.710(2) 0.060(2)
H3G H 0.46(1) 0.631(3) -0.133(3)
H4G H 0.33(1) 0.532(4) -0.144(4)
H5G H 0.145(7) 0.665(2) -0.116(3)
H6G H -0.439(7) 0.591(3) 0.147(2)
H7G H -0.143(6) 0.645(2) 0.141(2)
H8G H -0.314(7) 0.508(2) 0.150(3)
O2_2 O 0.7358(3) 0.4008(2) 0.0245(1)
O2G_2 O 0.7358(3) 0.5992(2) -0.0245(1)
N3_2 N 0.6402(5) 0.4462(2) -0.1204(2)
N3G_2 N 0.6402(5) 0.5538(2) 0.1204(2)
Mn1_2 Mn -0.5000 0.5000 0.0000
H6_2 H 0.561(7) 0.409(3) -0.147(2)
H8_2 H 0.686(7) 0.492(2) -0.150(3)
H6G_2 H 0.561(7) 0.591(3) 0.147(2)
H8G_2 H 0.686(7) 0.508(2) 0.150(3)
Cl1 Cl 0.3400(2) 0.1596(2) 0.2500
O3 O 0.508(11) 0.1063(6) 0.2500
O4 O 0.1773(9) 0.1051(4) 0.2500
O5 O 0.3452(7) 0.2118(2) 0.1818(1)
O5A O 0.3452(7) 0.2118(2) 0.3182(1)
N5 N 0.4493(6) 0.7527(3) 0.2500
O6 O 0.4456(6) 0.8353(2) 0.2500
O7 O 0.444(1) 0.7132(2) 0.1887(2)
O7A O 0.444(1) 0.7132(2) 0.3113(2)
O8 O 0.2745(7) 0.5362(3) 0.2500
H9 H 0.19(1) 0.515(3) 0.220(3)
H9A H 0.19(1) 0.515(3) 0.280(3)
loop_
_geom_bond_atom_site_label_1
_geom_bond_atom_site_label_2
_geom_bond_site_symmetry_1
_geom_bond_site_symmetry_2
Mn1 O1 1_555 1_555
O1 C1 1_555 1_555
O2 C3 1_555 1_555
N1 Mn1 1_555 1_555
N2 N1 1_555 1_555
N3 N4 1_555 1_555
N4 C3 1_555 1_555
C1 N2 1_555 1_555
C2 C1 1_555 1_555
C3 C2 1_555 1_555
Cl1 O3 1_555 1_555
O4 Cl1 1_555 1_555
O5 Cl1 1_555 1_555
N5 O6 1_555 1_555
O7 N5 1_555 1_555
O8 H9 1_555 1_555
H1 C2 1_555 1_555
H2 C2 1_555 1_555
H3 N1 1_555 1_555
H4 N1 1_555 1_555
H5 N2 1_555 1_555
H6 N3 1_555 1_555
H7 N4 1_555 1_555
H8 N3 1_555 1_555
O5A Cl1 1_555 1_555
O7A N5 1_555 1_555
H9A O8 1_555 1_555
O1G Mn1 1_555 1_555
O2G C3G 1_555 1_555
N1G Mn1 1_555 1_555
N2G N1G 1_555 1_555
N3G N4G 1_555 1_555
N4G C3G 1_555 1_555
C1G O1G 1_555 1_555
C2G C1G 1_555 1_555
C3G C2G 1_555 1_555
H1G C2G 1_555 1_555
H2G C2G 1_555 1_555
H3G N1G 1_555 1_555
H4G N1G 1_555 1_555
H5G N2G 1_555 1_555
H6G N3G 1_555 1_555
H7G N4G 1_555 1_555
H8G N3G 1_555 1_555
O2_2 Mn1 1_555 1_555
O2G_2 Mn1 1_555 1_555
N3_2 Mn1 1_555 1_555
N3G_2 Mn1 1_555 1_555
Mn1_2 O2 1_555 1_555
H6_2 N3_2 1_555 1_555
H8_2 N3_2 1_555 1_555
H6G_2 N3G_2 1_555 1_555
H8G_2 N3G_2 1_555 1_555
N3 Mn1_2 1_555 1_555
O2G Mn1_2 1_555 1_555
N2G C1G 1_555 1_555
N3G Mn1_2 1_555 1_555

#END
