
#######################################################################
#
#                 Cambridge Crystallographic Data Centre
#                                CCDC 
#
#######################################################################
#
# If this CIF has been generated from an entry in the Cambridge 
# Structural Database, then it will include bibliographic, chemical, 
# crystal, experimental, refinement or atomic coordinate data resulting 
# from the CCDC's data processing and validation procedures.
#
#######################################################################

data_FEWQIJ
_symmetry_cell_setting           rhombohedral
_symmetry_space_group_name_H-M   'R -3'
_symmetry_Int_Tables_number      148
_space_group_name_Hall           '-R 3'
loop_
_symmetry_equiv_pos_site_id
_symmetry_equiv_pos_as_xyz
1 x,y,z
2 -y,x-y,z
3 -x+y,-x,z
4 2/3+x,1/3+y,1/3+z
5 2/3-y,1/3+x-y,1/3+z
6 2/3-x+y,1/3-x,1/3+z
7 1/3+x,2/3+y,2/3+z
8 1/3-y,2/3+x-y,2/3+z
9 1/3-x+y,2/3-x,2/3+z
10 -x,-y,-z
11 y,-x+y,-z
12 x-y,x,-z
13 1/3-x,2/3-y,2/3-z
14 1/3+y,2/3-x+y,2/3-z
15 1/3+x-y,2/3+x,2/3-z
16 2/3-x,1/3-y,1/3-z
17 2/3+y,1/3-x+y,1/3-z
18 2/3+x-y,1/3+x,1/3-z
_cell_length_a                   27.3934(11)
_cell_length_b                   27.3934(11)
_cell_length_c                   7.0054(3)
_cell_angle_alpha                90
_cell_angle_beta                 90
_cell_angle_gamma                120
_cell_volume                     4552.56
loop_
_atom_site_label
_atom_site_type_symbol
_atom_site_fract_x
_atom_site_fract_y
_atom_site_fract_z
Cu1 Cu 0.8333 0.6667 0.1667
Dy1 Dy 0.73911(2) 0.41371(2) 0.04902(7)
C1 C 0.7716(6) 0.5552(5) 0.2704(17)
N1 N 0.7846(6) 0.6055(5) 0.3435(17)
O1 O 0.6667 0.3333 -0.1667
C2 C 0.7675(8) 0.6097(6) 0.516(2)
H1 H 0.7781 0.6449 0.5677
C3 C 0.7946(6) 0.5572(5) 0.0759(19)
N2 N 0.7185(5) 0.5102(4) 0.5514(14)
O2 O 0.7236(4) 0.4552(3) 0.3259(11)
C4 C 0.7334(7) 0.5611(6) 0.617(2)
H2 H 0.7205 0.5642 0.7371
C5 C 0.7386(5) 0.5059(5) 0.3759(16)
O3 O 0.7825(4) 0.5129(4) -0.0109(12)
O4 O 0.8238(4) 0.6055(4) 0.0020(14)
O5 O 0.6667 0.3333 0.154(2)
O6 O 0.6590(3) 0.4174(3) -0.0532(11)
O7 O 0.7406(8) 0.6653(7) 0.005(2)
Cu1A Cu 0.3333 0.1666 0.1667
Dy1A Dy 0.58629(2) 0.32540(3) 0.04902(7)
C1A C 0.4448(5) 0.2164(8) 0.2704(17)
N1A N 0.3945(5) 0.1791(8) 0.3435(17)
C2A C 0.3903(6) 0.1578(10) 0.516(2)
H1A H 0.3551 0.1332 0.5677
C3A C 0.4428(5) 0.2374(8) 0.0759(19)
N2A N 0.4898(4) 0.2083(6) 0.5514(14)
O2A O 0.5448(3) 0.2684(5) 0.3259(11)
C4A C 0.4389(6) 0.1723(9) 0.617(2)
H2A H 0.4358 0.1563 0.7371
C5A C 0.4941(5) 0.2327(7) 0.3759(16)
O3A O 0.4871(4) 0.2696(6) -0.0109(12)
O4A O 0.3945(4) 0.2183(6) 0.0020(14)
O6A O 0.5826(3) 0.2416(4) -0.0532(11)
O7A O 0.3347(7) 0.0753(11) 0.005(2)
Cu1B Cu 0.8334 0.1667 0.1667
Dy1B Dy 0.67460(3) 0.26089(2) 0.04902(7)
C1B C 0.7836(8) 0.2284(6) 0.2704(17)
N1B N 0.8209(8) 0.2154(6) 0.3435(17)
C2B C 0.8422(10) 0.2325(8) 0.516(2)
H1B H 0.8668 0.2219 0.5677
C3B C 0.7626(8) 0.2054(6) 0.0759(19)
N2B N 0.7917(6) 0.2815(5) 0.5514(14)
O2B O 0.7316(5) 0.2764(4) 0.3259(11)
C4B C 0.8277(9) 0.2666(7) 0.617(2)
H2B H 0.8437 0.2795 0.7371
C5B C 0.7673(7) 0.2614(5) 0.3759(16)
O3B O 0.7304(6) 0.2175(4) -0.0109(12)
O4B O 0.7817(6) 0.1762(4) 0.0020(14)
O6B O 0.7584(4) 0.3410(3) -0.0532(11)
O7B O 0.9247(11) 0.2594(8) 0.005(2)
Dy1O Dy 0.92756(2) 0.91962(2) 0.28431(7)
C1O C 0.8951(6) 0.7781(5) 0.0629(17)
N1O N 0.8821(6) 0.7278(5) -0.0102(17)
C2O C 0.8992(8) 0.7236(6) -0.183(2)
H1O H 0.8886 0.6884 -0.2344
C3O C 0.8721(6) 0.7761(5) 0.2574(19)
N2O N 0.9482(5) 0.8231(4) -0.2181(14)
O2O O 0.9431(4) 0.8781(3) 0.0074(11)
C4O C 0.9333(7) 0.7722(6) -0.284(2)
H2O H 0.9462 0.7691 -0.4038
C5O C 0.9281(5) 0.8274(5) -0.0426(16)
O3O O 0.8842(4) 0.8204(4) 0.3442(12)
O4O O 0.8429(4) 0.7278(4) 0.3313(14)
O5O O 1.0000 1.0000 0.179(2)
O6O O 1.0077(3) 0.9159(3) 0.3865(11)
O7O O 0.9261(8) 0.6680(7) 0.328(2)
Dy1P Dy 0.08038(2) 0.00793(3) 0.28431(7)
C1P C 0.2219(5) 0.1169(8) 0.0629(17)
N1P N 0.2722(5) 0.1542(8) -0.0102(17)
C2P C 0.2764(6) 0.1755(10) -0.183(2)
H1P H 0.3116 0.2001 -0.2344
C3P C 0.2239(5) 0.0959(8) 0.2574(19)
N2P N 0.1769(4) 0.1250(6) -0.2181(14)
O2P O 0.1219(3) 0.0649(5) 0.0074(11)
C4P C 0.2278(6) 0.1610(9) -0.284(2)
H2P H 0.2309 0.1770 -0.4038
C5P C 0.1726(5) 0.1006(7) -0.0426(16)
O3P O 0.1796(4) 0.0637(6) 0.3442(12)
O4P O 0.2722(4) 0.1150(6) 0.3313(14)
O6P O 0.0841(3) 0.0917(4) 0.3865(11)
O7P O 0.3320(7) 0.2580(11) 0.328(2)
Dy1Q Dy 0.99207(3) 0.07244(2) 0.28431(7)
C1Q C 0.8831(8) 0.1049(6) 0.0629(17)
N1Q N 0.8458(8) 0.1179(6) -0.0102(17)
C2Q C 0.8245(10) 0.1008(8) -0.183(2)
H1Q H 0.7999 0.1114 -0.2344
C3Q C 0.9041(8) 0.1279(6) 0.2574(19)
N2Q N 0.8750(6) 0.0518(5) -0.2181(14)
O2Q O 0.9351(5) 0.0569(4) 0.0074(11)
C4Q C 0.8390(9) 0.0667(7) -0.284(2)
H2Q H 0.8230 0.0538 -0.4038
C5Q C 0.8994(7) 0.0719(5) -0.0426(16)
O3Q O 0.9363(6) 0.1158(4) 0.3442(12)
O4Q O 0.8850(6) 0.1571(4) 0.3313(14)
O6Q O 0.9083(4) -0.0077(3) 0.3865(11)
O7Q O 0.7420(11) 0.0739(8) 0.328(2)
Dy1F Dy 0.07244(2) 0.08038(2) -0.28431(7)
Dy1F_2 Dy 0.07244(2) 0.08038(2) 0.71569(7)
Dy1G Dy 0.91962(2) -0.00793(3) -0.28431(7)
Dy1G_2 Dy 0.91962(2) -0.00793(3) 0.71569(7)
Dy1H Dy 1.00793(3) 0.92756(2) -0.28431(7)
Dy1H_2 Dy 1.00793(3) 0.92756(2) 0.71569(7)
Dy1O_2 Dy 0.92756(2) -0.08038(2) 0.28431(7)
Dy1P_2 Dy 1.08038(2) 1.00793(3) 0.28431(7)
Dy1Q_2 Dy -0.00793(3) 0.07244(2) 0.28431(7)
Dy1Q_3 Dy 0.99207(3) 1.07244(2) 0.28431(7)
Dy1L Dy 0.59422(2) 0.25296(2) -0.38235(7)
Dy1L_2 Dy 0.59422(2) 0.25296(2) 0.61765(7)
Dy1M Dy 0.74704(2) 0.34127(3) -0.38235(7)
Dy1M_2 Dy 0.74704(2) 0.34127(3) 0.61765(7)
Dy1N Dy 0.65873(3) 0.40578(2) -0.38235(7)
Dy1N_2 Dy 0.65873(3) 0.40578(2) 0.61765(7)
O1F O 0.0000 -0.0000 0.5000
O1F_2 O 1.0000 -0.0000 0.5000
O1F_3 O 1.0000 1.0000 0.5000
N2F N 1.0518(5) 0.1769(4) 0.2181(14)
N2G N 0.8231(4) 0.8750(6) 0.2181(14)
N2H N 0.1250(6) -0.0518(5) 0.2181(14)
N2L N 0.6148(5) 0.1565(4) 0.1153(14)
N2M N 0.8435(4) 0.4584(6) 0.1153(14)
N2N N 0.5416(6) 0.3852(5) 0.1153(14)
O2F O 1.0569(4) 0.1219(3) -0.0074(11)
O2G O 0.8781(3) 0.9351(5) -0.0074(11)
O2H O 0.0649(5) -0.0569(4) -0.0074(11)
O2L O 0.6097(4) 0.2115(3) 0.3408(11)
O2M O 0.7885(3) 0.3983(5) 0.3408(11)
O2N O 0.6017(5) 0.3903(4) 0.3408(11)
O5O_2 O -0.0000 0.0000 0.179(2)
O5O_3 O 1.0000 0.0000 0.179(2)
O6F O 0.9923(3) 0.0841(3) 0.6135(11)
O6G O 0.9159(3) 0.9083(4) 0.6135(11)
O6H O 0.0917(4) 0.0077(3) 0.6135(11)
O6O_2 O 0.0077(3) -0.0841(3) 0.3865(11)
O6P_2 O 1.0841(3) 0.0917(4) 0.3865(11)
O6Q_2 O 0.9083(4) 0.9923(3) 0.3865(11)
O6L O 0.6743(3) 0.2493(3) -0.2801(11)
O6M O 0.7507(3) 0.4251(4) -0.2801(11)
O6N O 0.5749(4) 0.3257(3) -0.2801(11)
O8 O 0.8526(6) 0.5410(6) 0.635(2)
H3 H 0.8289 0.5060 0.6430
loop_
_geom_bond_atom_site_label_1
_geom_bond_atom_site_label_2
_geom_bond_site_symmetry_1
_geom_bond_site_symmetry_2
Cu1 N1 1_555 1_555
Dy1 O1 1_555 1_555
C1 N1 1_555 1_555
N1 C2 1_555 1_555
O1 Dy1A 1_555 1_555
C2 H1 1_555 1_555
C3 C1 1_555 1_555
N2 C4 1_555 1_555
O2 Dy1 1_555 1_555
C4 C2 1_555 1_555
H2 C4 1_555 1_555
C5 C1 1_555 1_555
O3 Dy1 1_555 1_555
O4 Cu1 1_555 1_555
O5 Dy1 1_555 1_555
O6 Dy1 1_555 1_555
O7 Cu1 1_555 1_555
O8 H3 1_555 1_555
Cu1A N1A 1_555 1_555
Dy1A O5 1_555 1_555
C1A N1A 1_555 1_555
N1A C2A 1_555 1_555
C2A H1A 1_555 1_555
C3A C1A 1_555 1_555
N2A C4A 1_555 1_555
O2A Dy1A 1_555 1_555
C4A C2A 1_555 1_555
H2A C4A 1_555 1_555
C5A C1A 1_555 1_555
O3A Dy1A 1_555 1_555
O4A Cu1A 1_555 1_555
O6A Dy1A 1_555 1_555
O7A Cu1A 1_555 1_555
Cu1B N1B 1_555 1_555
Dy1B O1 1_555 1_555
C1B N1B 1_555 1_555
N1B C2B 1_555 1_555
C2B H1B 1_555 1_555
C3B C1B 1_555 1_555
N2B C4B 1_555 1_555
O2B Dy1B 1_555 1_555
C4B C2B 1_555 1_555
H2B C4B 1_555 1_555
C5B C1B 1_555 1_555
O3B Dy1B 1_555 1_555
O4B Cu1B 1_555 1_555
O6B Dy1 1_555 1_555
O7B Cu1B 1_555 1_555
Dy1O O2O 1_555 1_555
C1O N1O 1_555 1_555
N1O Cu1 1_555 1_555
C2O N1O 1_555 1_555
H1O C2O 1_555 1_555
C3O C1O 1_555 1_555
N2O C4O 1_555 1_555
O2O C5O 1_555 1_555
C4O C2O 1_555 1_555
H2O C4O 1_555 1_555
C5O C1O 1_555 1_555
O3O Dy1O 1_555 1_555
O4O Cu1 1_555 1_555
O5O Dy1O 1_555 1_555
O6O Dy1O 1_555 1_555
O7O Cu1 1_555 1_555
Dy1P O2P 1_555 1_555
C1P N1P 1_555 1_555
N1P Cu1A 1_555 1_555
C2P N1P 1_555 1_555
H1P C2P 1_555 1_555
C3P C1P 1_555 1_555
N2P C4P 1_555 1_555
O2P C5P 1_555 1_555
C4P C2P 1_555 1_555
H2P C4P 1_555 1_555
C5P C1P 1_555 1_555
O3P Dy1P 1_555 1_555
O4P Cu1A 1_555 1_555
O6P Dy1P 1_555 1_555
O7P Cu1A 1_555 1_555
Dy1Q O2Q 1_555 1_555
C1Q N1Q 1_555 1_555
N1Q Cu1B 1_555 1_555
C2Q N1Q 1_555 1_555
H1Q C2Q 1_555 1_555
C3Q C1Q 1_555 1_555
N2Q C4Q 1_555 1_555
O2Q C5Q 1_555 1_555
C4Q C2Q 1_555 1_555
H2Q C4Q 1_555 1_555
C5Q C1Q 1_555 1_555
O3Q Dy1Q 1_555 1_555
O4Q Cu1B 1_555 1_555
O6Q Dy1Q 1_555 1_555
O7Q Cu1B 1_555 1_555
Dy1F N2P 1_555 1_555
Dy1F_2 O6P 1_555 1_555
Dy1G N2Q 1_555 1_555
Dy1G_2 O6Q 1_555 1_555
Dy1H N2O 1_555 1_555
Dy1H_2 O6O 1_555 1_555
Dy1O_2 O6Q 1_555 1_555
Dy1P_2 O5O 1_555 1_555
Dy1Q_2 O6P 1_555 1_555
Dy1Q_3 O5O 1_555 1_555
Dy1L O1 1_555 1_555
Dy1L_2 N2A 1_555 1_555
Dy1M O1 1_555 1_555
Dy1M_2 N2B 1_555 1_555
Dy1N O1 1_555 1_555
Dy1N_2 N2 1_555 1_555
O1F Dy1P 1_555 1_555
O1F_2 Dy1Q 1_555 1_555
O1F_3 Dy1O 1_555 1_555
N2F Dy1Q 1_555 1_555
N2G Dy1O 1_555 1_555
N2H Dy1P 1_555 1_555
N2L Dy1B 1_555 1_555
N2M Dy1 1_555 1_555
N2N Dy1A 1_555 1_555
O2F Dy1Q 1_555 1_555
O2G Dy1O 1_555 1_555
O2H Dy1P 1_555 1_555
O2L Dy1B 1_555 1_555
O2M Dy1 1_555 1_555
O2N Dy1A 1_555 1_555
O5O_2 Dy1P 1_555 1_555
O5O_3 Dy1Q 1_555 1_555
O6F Dy1Q 1_555 1_555
O6G Dy1O 1_555 1_555
O6H Dy1P 1_555 1_555
O6O_2 Dy1P 1_555 1_555
O6P_2 Dy1Q 1_555 1_555
O6Q_2 Dy1O 1_555 1_555
O6L Dy1B 1_555 1_555
O6M Dy1 1_555 1_555
O6N Dy1A 1_555 1_555
C3 O3 1_555 1_555
C3 O4 1_555 1_555
N2 C5 1_555 1_555
O2 C5 1_555 1_555
O2 Dy1N_2 1_555 1_555
O5 Dy1B 1_555 1_555
O6 Dy1A 1_555 1_555
O6 Dy1N 1_555 1_555
C3A O3A 1_555 1_555
C3A O4A 1_555 1_555
N2A C5A 1_555 1_555
O2A C5A 1_555 1_555
O2A Dy1L_2 1_555 1_555
O6A Dy1B 1_555 1_555
O6A Dy1L 1_555 1_555
Dy1B O6B 1_555 1_555
C3B O3B 1_555 1_555
C3B O4B 1_555 1_555
N2B C5B 1_555 1_555
O2B C5B 1_555 1_555
O2B Dy1M_2 1_555 1_555
O6B Dy1M 1_555 1_555
C3O O3O 1_555 1_555
C3O O4O 1_555 1_555
N2O C5O 1_555 1_555
O2O Dy1H 1_555 1_555
O6O Dy1P_2 1_555 1_555
C3P O3P 1_555 1_555
C3P O4P 1_555 1_555
N2P C5P 1_555 1_555
O2P Dy1F 1_555 1_555
C3Q O3Q 1_555 1_555
C3Q O4Q 1_555 1_555
N2Q C5Q 1_555 1_555
O2Q Dy1G 1_555 1_555
Dy1F_2 O1F 1_555 1_555
Dy1F_2 O6H 1_555 1_555
Dy1G_2 O1F_2 1_555 1_555
Dy1G_2 O6F 1_555 1_555
Dy1H_2 O1F_3 1_555 1_555
Dy1H_2 O6G 1_555 1_555
Dy1O_2 O1F_2 1_555 1_555
Dy1O_2 O5O_3 1_555 1_555
Dy1P_2 O1F_3 1_555 1_555
Dy1Q_2 O1F 1_555 1_555
Dy1Q_2 O5O_2 1_555 1_555
Dy1Q_3 O1F_3 1_555 1_555
Dy1Q_3 O6Q_2 1_555 1_555
Dy1L O6L 1_555 1_555
Dy1L O6N 1_555 1_555
Dy1L_2 O2L 1_555 1_555
Dy1M O6L 1_555 1_555
Dy1M O6M 1_555 1_555
Dy1M_2 O2M 1_555 1_555
Dy1N O6M 1_555 1_555
Dy1N O6N 1_555 1_555
Dy1N_2 O2N 1_555 1_555

#END
