
#######################################################################
#
#                 Cambridge Crystallographic Data Centre
#                                CCDC 
#
#######################################################################
#
# If this CIF has been generated from an entry in the Cambridge 
# Structural Database, then it will include bibliographic, chemical, 
# crystal, experimental, refinement or atomic coordinate data resulting 
# from the CCDC's data processing and validation procedures.
#
#######################################################################

data_FEWTIM
_symmetry_cell_setting           monoclinic
_symmetry_space_group_name_H-M   'C 2/c'
_symmetry_Int_Tables_number      15
_space_group_name_Hall           '-C 2yn'
loop_
_symmetry_equiv_pos_site_id
_symmetry_equiv_pos_as_xyz
1 x,y,z
2 -x,y,1/2-z
3 1/2+x,1/2+y,z
4 1/2-x,1/2+y,1/2-z
5 -x,-y,-z
6 x,-y,1/2+z
7 1/2-x,1/2-y,-z
8 1/2+x,1/2-y,1/2+z
_cell_length_a                   23.615(4)
_cell_length_b                   12.1786(14)
_cell_length_c                   14.595(2)
_cell_angle_alpha                90
_cell_angle_beta                 90.199(15)
_cell_angle_gamma                90
_cell_volume                     4197.46
loop_
_atom_site_label
_atom_site_type_symbol
_atom_site_fract_x
_atom_site_fract_y
_atom_site_fract_z
Cd1 Cd 0.926255(9) -0.032450(16) 0.832009(15)
N1 N 0.86777(10) -0.18215(19) 0.79257(17)
O1 O 0.89188(10) 0.0242(2) 0.96555(18)
C1 C 0.94766(12) -0.2903(2) 0.84302(19)
S1 S 0.73057(4) -0.11935(7) 0.95335(8)
N2 N 0.97563(10) -0.19486(19) 0.86051(17)
O2 O 0.50126(10) -0.42369(19) 0.86342(19)
S2 S 0.73481(4) 0.12605(6) 1.01145(7)
C2 C 0.89004(12) -0.2834(2) 0.8061(2)
N3 N 0.85370(12) -0.5777(2) 0.7872(2)
O3 O 0.58657(10) -0.45604(18) 0.80354(17)
S3 S 0.65116(4) -0.30229(7) 0.90192(8)
C3 C 0.81563(13) -0.1740(3) 0.7596(2)
H1 H 0.8003 -0.1043 0.7512
N4 N 0.96490(12) -0.5905(2) 0.8582(2)
C4 C 0.78282(14) -0.2646(3) 0.7369(2)
H2 H 0.7466 -0.2555 0.7129
O4 O 0.82276(11) 0.0583(2) 0.86757(18)
N5 N 0.64562(12) 0.0032(2) 0.9843(2)
C5 C 0.80451(14) -0.3677(3) 0.7504(2)
H3 H 0.7830 -0.4293 0.7359
C6 C 0.85950(12) -0.3798(2) 0.7864(2)
N6 N 0.62303(11) -0.0975(2) 0.9585(2)
C7 C 0.88527(14) -0.4865(2) 0.8040(2)
C8 C 0.87873(16) -0.6720(3) 0.8088(3)
H4 H 0.8586 -0.7369 0.8002
C9 C 0.93332(15) -0.6781(3) 0.8435(3)
H5 H 0.9483 -0.7469 0.8569
C10 C 0.94013(14) -0.4930(2) 0.8398(2)
C11 C 0.97214(12) -0.3928(2) 0.8599(2)
C12 C 1.02659(13) -0.3962(3) 0.8973(2)
H6 H 1.0439 -0.4631 0.9099
C13 C 1.05428(13) -0.2989(2) 0.9152(2)
H7 H 1.0907 -0.2995 0.9397
C14 C 1.02754(13) -0.2005(3) 0.8966(2)
H8 H 1.0465 -0.1355 0.9099
C15 C 0.84251(14) 0.0540(2) 0.9457(2)
C16 C 0.80723(13) 0.0856(3) 1.0295(2)
H9 H 0.8092(15) 0.030(3) 1.075(3)
H10 H 0.8222(13) 0.146(3) 1.054(2)
C17 C 0.70026(13) 0.0044(2) 0.9844(2)
C18 C 0.66196(13) -0.1681(2) 0.9407(2)
C19 C 0.57494(12) -0.3053(2) 0.9044(2)
H11 H 0.5622 -0.3086 0.9675
H12 H 0.5601 -0.2385 0.8772
C20 C 0.55253(13) -0.4039(2) 0.8523(2)
Cd1B Cd 0.426255(9) -0.532450(16) 0.832009(15)
Cd1C Cd 0.573745(9) -0.532450(16) 0.667991(15)
O2B O 1.00126(10) 0.07631(19) 0.86342(19)
O3C O 0.91343(10) 0.04396(18) 0.69646(17)
loop_
_geom_bond_atom_site_label_1
_geom_bond_atom_site_label_2
_geom_bond_site_symmetry_1
_geom_bond_site_symmetry_2
Cd1 N1 1_555 1_555
N1 C2 1_555 1_555
O1 Cd1 1_555 1_555
C1 N2 1_555 1_555
S1 C17 1_555 1_555
N2 Cd1 1_555 1_555
O2 C20 1_555 1_555
S2 C16 1_555 1_555
C2 C1 1_555 1_555
N3 C7 1_555 1_555
O3 C20 1_555 1_555
S3 C18 1_555 1_555
C3 N1 1_555 1_555
H1 C3 1_555 1_555
N4 C9 1_555 1_555
C4 C3 1_555 1_555
H2 C4 1_555 1_555
O4 Cd1 1_555 1_555
N5 N6 1_555 1_555
C5 C4 1_555 1_555
H3 C5 1_555 1_555
C6 C2 1_555 1_555
N6 C18 1_555 1_555
C7 C6 1_555 1_555
C8 N3 1_555 1_555
H4 C8 1_555 1_555
C9 C8 1_555 1_555
H5 C9 1_555 1_555
C10 N4 1_555 1_555
C11 C1 1_555 1_555
C12 C11 1_555 1_555
H6 C12 1_555 1_555
C13 C12 1_555 1_555
H7 C13 1_555 1_555
C14 N2 1_555 1_555
H8 C14 1_555 1_555
C15 O1 1_555 1_555
C16 C15 1_555 1_555
H9 C16 1_555 1_555
H10 C16 1_555 1_555
C17 S2 1_555 1_555
C18 S1 1_555 1_555
C19 S3 1_555 1_555
H11 C19 1_555 1_555
H12 C19 1_555 1_555
C20 C19 1_555 1_555
Cd1B O2 1_555 1_555
Cd1C O3 1_555 1_555
O2B Cd1 1_555 1_555
O3C Cd1 1_555 1_555
O4 C15 1_555 1_555
N5 C17 1_555 1_555
C5 C6 1_555 1_555
C7 C10 1_555 1_555
C10 C11 1_555 1_555
C13 C14 1_555 1_555

#END
