
#######################################################################
#
#                 Cambridge Crystallographic Data Centre
#                                CCDC 
#
#######################################################################
#
# If this CIF has been generated from an entry in the Cambridge 
# Structural Database, then it will include bibliographic, chemical, 
# crystal, experimental, refinement or atomic coordinate data resulting 
# from the CCDC's data processing and validation procedures.
#
#######################################################################

data_FEWTOS
_symmetry_cell_setting           triclinic
_symmetry_space_group_name_H-M   'P -1'
_symmetry_Int_Tables_number      2
_space_group_name_Hall           '-P 1'
loop_
_symmetry_equiv_pos_site_id
_symmetry_equiv_pos_as_xyz
1 x,y,z
2 -x,-y,-z
_cell_length_a                   9.4120(7)
_cell_length_b                   10.4276(8)
_cell_length_c                   11.2794(9)
_cell_angle_alpha                69.9360(10)
_cell_angle_beta                 85.7410(10)
_cell_angle_gamma                85.5820(10)
_cell_volume                     1035.38
loop_
_atom_site_label
_atom_site_type_symbol
_atom_site_fract_x
_atom_site_fract_y
_atom_site_fract_z
Cd1 Cd 0.74132(2) 0.18235(2) 0.489190(18)
S1 S 1.24132(8) 0.29027(8) 0.62707(7)
O1 O 0.9854(2) 0.1738(2) 0.55771(19)
O2 O 0.7553(3) -0.0454(2) 0.5034(2)
H1 H 0.8251 -0.0827 0.4840
H2 H 0.6789 -0.0685 0.4838
C1 C 1.4035(3) 0.0680(3) 0.7713(3)
N1 N 0.6293(2) 0.3725(2) 0.3334(2)
O3 O 0.8327(2) 0.3415(2) 0.5656(2)
N2 N 0.8604(2) 0.2210(2) 0.2879(2)
C2 C 0.9519(3) 0.2791(3) 0.5858(3)
O4 O 1.6476(2) 0.0920(3) 0.7052(2)
N3 N 0.6433(3) 0.6627(3) -0.1039(2)
C3 C 0.8099(3) 0.3253(3) 0.1889(2)
O5 O 1.4939(2) 0.1414(2) 0.5570(2)
N4 N 0.8695(3) 0.4934(3) -0.1551(2)
C4 C 0.6874(3) 0.4094(3) 0.2145(2)
N5 N 1.1652(2) 0.1061(3) 0.8499(2)
C5 C 1.0439(3) 0.1710(3) 0.1499(3)
H3 H 1.1246 0.1176 0.1400
C6 C 0.9921(3) 0.2747(3) 0.0483(3)
H4 H 1.0358 0.2913 -0.0318
C7 C 0.5190(3) 0.4492(3) 0.3580(3)
H5 H 0.4771 0.4227 0.4394
C8 C 1.2699(3) 0.1405(3) 0.7609(3)
C9 C 0.4638(3) 0.5662(3) 0.2683(3)
H6 H 0.3884 0.6185 0.2898
C10 C 0.6359(3) 0.5234(3) 0.1165(3)
C11 C 0.8721(3) 0.3558(3) 0.0666(3)
C12 C 0.7013(4) 0.6841(3) -0.2183(3)
H7 H 0.6669 0.7581 -0.2848
C13 C 0.8135(4) 0.5985(4) -0.2431(3)
H8 H 0.8496 0.6176 -0.3260
C14 C 0.8124(3) 0.4695(3) -0.0359(3)
C15 C 0.6984(3) 0.5525(3) -0.0108(3)
C16 C 1.0560(3) 0.3378(3) 0.6470(3)
H9 H 1.0306 0.3098 0.7369
H10 H 1.0438 0.4367 0.6133
C17 C 0.9745(3) 0.1466(3) 0.2678(3)
H11 H 1.0096 0.0748 0.3359
C18 C 1.4257(3) -0.0400(3) 0.8813(3)
H12 H 1.5134 -0.0891 0.8927
C19 C 1.3175(3) -0.0756(3) 0.9751(3)
H13 H 1.3311 -0.1478 1.0502
C20 C 1.5235(3) 0.1027(3) 0.6715(3)
C21 C 1.1907(3) -0.0014(3) 0.9534(3)
H14 H 1.1169 -0.0274 1.0149
C22 C 0.5224(3) 0.6035(3) 0.1473(3)
H15 H 0.4869 0.6818 0.0857
Cd1_2 Cd 1.74132(2) 0.18235(2) 0.489190(18)
O4_2 O 0.6476(2) 0.0920(3) 0.7052(2)
O5_2 O 0.4939(2) 0.1414(2) 0.5570(2)
loop_
_geom_bond_atom_site_label_1
_geom_bond_atom_site_label_2
_geom_bond_site_symmetry_1
_geom_bond_site_symmetry_2
Cd1 O1 1_555 1_555
S1 C8 1_555 1_555
O1 C2 1_555 1_555
O2 Cd1 1_555 1_555
H1 O2 1_555 1_555
H2 O2 1_555 1_555
C1 C8 1_555 1_555
N1 Cd1 1_555 1_555
O3 Cd1 1_555 1_555
N2 Cd1 1_555 1_555
C2 O3 1_555 1_555
O4 C20 1_555 1_555
N3 C12 1_555 1_555
C3 N2 1_555 1_555
O5 C20 1_555 1_555
N4 C13 1_555 1_555
C4 N1 1_555 1_555
N5 C8 1_555 1_555
C5 H3 1_555 1_555
C6 C5 1_555 1_555
H4 C6 1_555 1_555
C7 N1 1_555 1_555
H5 C7 1_555 1_555
C9 C7 1_555 1_555
H6 C9 1_555 1_555
C10 C4 1_555 1_555
C11 C3 1_555 1_555
C12 H7 1_555 1_555
C13 C12 1_555 1_555
H8 C13 1_555 1_555
C14 N4 1_555 1_555
C15 N3 1_555 1_555
C16 S1 1_555 1_555
H9 C16 1_555 1_555
H10 C16 1_555 1_555
C17 N2 1_555 1_555
H11 C17 1_555 1_555
C18 C1 1_555 1_555
H12 C18 1_555 1_555
C19 C18 1_555 1_555
H13 C19 1_555 1_555
C20 C1 1_555 1_555
C21 N5 1_555 1_555
H14 C21 1_555 1_555
C22 C9 1_555 1_555
H15 C22 1_555 1_555
Cd1_2 O4 1_555 1_555
O4_2 Cd1 1_555 1_555
O5_2 Cd1 1_555 1_555
C2 C16 1_555 1_555
C3 C4 1_555 1_555
O5 Cd1_2 1_555 1_555
C5 C17 1_555 1_555
C6 C11 1_555 1_555
C10 C15 1_555 1_555
C10 C22 1_555 1_555
C11 C14 1_555 1_555
C14 C15 1_555 1_555
C19 C21 1_555 1_555

#END
