
#######################################################################
#
#                 Cambridge Crystallographic Data Centre
#                                CCDC 
#
#######################################################################
#
# If this CIF has been generated from an entry in the Cambridge 
# Structural Database, then it will include bibliographic, chemical, 
# crystal, experimental, refinement or atomic coordinate data resulting 
# from the CCDC's data processing and validation procedures.
#
#######################################################################

data_FEWTEI
_symmetry_cell_setting           triclinic
_symmetry_space_group_name_H-M   'P -1'
_symmetry_Int_Tables_number      2
_space_group_name_Hall           '-P 1'
loop_
_symmetry_equiv_pos_site_id
_symmetry_equiv_pos_as_xyz
1 x,y,z
2 -x,-y,-z
_cell_length_a                   10.1091(7)
_cell_length_b                   11.3814(7)
_cell_length_c                   16.0648(11)
_cell_angle_alpha                105.1990(10)
_cell_angle_beta                 107.5430(10)
_cell_angle_gamma                91.1510(10)
_cell_volume                     1690.84
loop_
_atom_site_label
_atom_site_type_symbol
_atom_site_fract_x
_atom_site_fract_y
_atom_site_fract_z
Cd1 Cd 0.03681(2) -0.366069(18) 0.078971(14)
N1 N 0.0002(3) -0.2254(2) 0.20202(18)
O1 O 0.2444(2) -0.1510(2) -0.14212(18)
C1 C 0.1110(4) -0.1110(3) 0.3582(2)
S1 S 0.64960(9) 0.14329(8) -0.16514(6)
Cd2 Cd 0.11446(2) -0.31621(2) -0.115414(16)
N2 N 0.1889(3) -0.3930(2) 0.21249(17)
C2 C 0.6325(3) 0.0168(3) -0.1232(2)
O2 O 0.3501(2) -0.2869(2) -0.07936(19)
O3 O 0.1030(2) -0.45602(17) -0.04196(13)
C3 C 0.7410(3) -0.1468(3) -0.0696(2)
N3 N -0.0529(3) -0.3240(2) -0.26025(19)
C4 C 0.2332(4) -0.6684(4) -0.2985(3)
H1 H 0.3038 -0.7192 -0.2888
O4 O 0.8548(2) -0.2993(2) -0.00970(16)
N4 N 0.1321(3) -0.4905(3) -0.23907(19)
N5 N 0.2393(4) 0.0035(3) 0.5126(2)
C5 C 0.3458(5) 0.0129(5) 0.5856(3)
H2 H 0.3594 0.0808 0.6356
O5 O 0.9718(2) -0.1859(2) -0.06425(16)
O6 O 0.5203(3) 0.1980(3) -0.1770(3)
N6 N 0.4289(3) -0.1730(3) 0.5238(2)
C6 C 0.4388(5) -0.0742(5) 0.5913(3)
H3 H 0.5119 -0.0626 0.6453
N7 N -0.2821(4) -0.5570(3) -0.5708(2)
O7 O 0.7687(2) 0.2245(2) -0.09607(16)
C7 C -0.1890(5) -0.7384(4) -0.6285(3)
H4 H -0.1952 -0.8040 -0.6788
O8 O 0.6778(4) 0.0903(3) -0.24964(18)
N8 N -0.0884(4) -0.7293(3) -0.5512(2)
C8 C -0.2853(5) -0.6541(4) -0.6371(3)
H5 H -0.3556 -0.6669 -0.6925
C9 C 0.4924(3) -0.1389(3) -0.1022(2)
C10 C 0.4002(4) -0.3784(4) 0.3716(3)
H6 H 0.4707 -0.3750 0.4253
C11 C 0.0277(4) -0.6131(3) -0.3952(2)
C12 C -0.2319(5) -0.2394(4) -0.3544(3)
H7 H -0.2848 -0.1744 -0.3605
C13 C -0.0658(3) -0.4218(3) -0.3323(2)
C14 C 0.1007(3) -0.2096(3) 0.2828(2)
C15 C 0.6109(3) -0.1959(3) -0.0731(2)
H8 H 0.6037 -0.2671 -0.0558
C16 C 0.2256(4) -0.0963(3) 0.4419(2)
C17 C 0.0337(3) -0.5126(3) -0.3210(2)
C18 C 0.2021(3) -0.3002(3) 0.2883(2)
C19 C 0.3079(3) -0.2884(3) 0.3694(2)
C20 C -0.0819(4) -0.6304(3) -0.4816(2)
C21 C -0.1666(4) -0.4354(3) -0.4167(3)
C22 C -0.1783(4) -0.5435(3) -0.4917(3)
C23 C 0.8663(3) -0.2150(3) -0.0457(2)
C24 C 0.5035(3) -0.0319(3) -0.1272(2)
H9 H 0.4245 0.0067 -0.1465
C25 C 0.7511(3) -0.0402(3) -0.0937(2)
H10 H 0.8377 -0.0062 -0.0902
C26 C 0.2806(4) -0.4748(3) 0.2160(2)
H11 H 0.2733 -0.5369 0.1635
C27 C 0.3871(4) -0.4707(4) 0.2953(3)
H12 H 0.4487 -0.5303 0.2962
C28 C 0.1325(4) -0.6927(4) -0.3814(3)
H13 H 0.1329 -0.7609 -0.4282
C29 C 0.3524(3) -0.1950(3) -0.1079(2)
C30 C 0.3211(4) -0.1833(3) 0.4472(2)
C31 C 0.0116(4) -0.0273(4) 0.3491(3)
H14 H 0.0149 0.0395 0.3979
C32 C -0.2496(4) -0.3391(4) -0.4264(3)
H15 H -0.3163 -0.3439 -0.4820
C33 C -0.1339(4) -0.2353(3) -0.2714(3)
H16 H -0.1248 -0.1679 -0.2218
C34 C -0.0903(5) -0.0456(4) 0.2674(3)
H17 H -0.1578 0.0085 0.2602
C35 C 0.2298(4) -0.5672(4) -0.2286(3)
H18 H 0.2984 -0.5525 -0.1723
C36 C -0.0929(4) -0.1444(4) 0.1955(3)
H19 H -0.1626 -0.1549 0.1402
Cd1_2 Cd 1.03681(2) -0.366069(18) 0.078971(14)
Cd1A Cd -0.03681(2) -0.633931(18) -0.078971(14)
Cd1A_2 Cd 0.96319(2) 0.366069(18) -0.078971(14)
Cd2_2 Cd 1.11446(2) -0.31621(2) -0.115414(16)
O3A O -0.1030(2) -0.54398(17) 0.04196(13)
O4_2 O -0.1452(2) -0.2993(2) -0.00970(16)
O5_2 O -0.0282(2) -0.1859(2) -0.06425(16)
O7A O 0.2313(2) -0.2245(2) 0.09607(16)
O9 O 0.4047(4) -0.4485(5) 0.0458(4)
H20 H 0.462(9) -0.411(9) 0.046(6)
H21 H 0.445(8) -0.370(7) 0.081(5)
loop_
_geom_bond_atom_site_label_1
_geom_bond_atom_site_label_2
_geom_bond_site_symmetry_1
_geom_bond_site_symmetry_2
Cd1 N1 1_555 1_555
N1 C14 1_555 1_555
O1 Cd2 1_555 1_555
C1 C14 1_555 1_555
S1 C2 1_555 1_555
Cd2 O2 1_555 1_555
N2 Cd1 1_555 1_555
C2 C24 1_555 1_555
O2 C29 1_555 1_555
O3 Cd1 1_555 1_555
C3 C15 1_555 1_555
N3 Cd2 1_555 1_555
C4 H1 1_555 1_555
O4 C23 1_555 1_555
N4 Cd2 1_555 1_555
N5 C5 1_555 1_555
C5 H2 1_555 1_555
O5 C23 1_555 1_555
O6 S1 1_555 1_555
N6 C6 1_555 1_555
C6 C5 1_555 1_555
H3 C6 1_555 1_555
N7 C8 1_555 1_555
O7 S1 1_555 1_555
C7 H4 1_555 1_555
O8 S1 1_555 1_555
N8 C7 1_555 1_555
C8 C7 1_555 1_555
H5 C8 1_555 1_555
C9 C15 1_555 1_555
C10 H6 1_555 1_555
C11 C17 1_555 1_555
C12 H7 1_555 1_555
C13 N3 1_555 1_555
C14 C18 1_555 1_555
C15 H8 1_555 1_555
C16 C1 1_555 1_555
C17 N4 1_555 1_555
C18 N2 1_555 1_555
C19 C10 1_555 1_555
C20 N8 1_555 1_555
C21 C13 1_555 1_555
C22 N7 1_555 1_555
C23 C3 1_555 1_555
C24 C9 1_555 1_555
H9 C24 1_555 1_555
C25 C2 1_555 1_555
H10 C25 1_555 1_555
C26 N2 1_555 1_555
H11 C26 1_555 1_555
C27 C10 1_555 1_555
H12 C27 1_555 1_555
C28 C4 1_555 1_555
H13 C28 1_555 1_555
C29 O1 1_555 1_555
C30 N6 1_555 1_555
C31 C1 1_555 1_555
H14 C31 1_555 1_555
C32 C12 1_555 1_555
H15 C32 1_555 1_555
C33 N3 1_555 1_555
H16 C33 1_555 1_555
C34 C31 1_555 1_555
H17 C34 1_555 1_555
C35 C4 1_555 1_555
H18 C35 1_555 1_555
C36 N1 1_555 1_555
H19 C36 1_555 1_555
O9 H20 1_555 1_555
H21 O9 1_555 1_555
Cd1_2 O4 1_555 1_555
Cd1A O3 1_555 1_555
Cd1A_2 O7 1_555 1_555
Cd2_2 O5 1_555 1_555
O3A Cd1 1_555 1_555
O4_2 Cd1 1_555 1_555
O5_2 Cd2 1_555 1_555
O7A Cd1 1_555 1_555
Cd2 O3 1_555 1_555
C3 C25 1_555 1_555
N4 C35 1_555 1_555
N5 C16 1_555 1_555
C9 C29 1_555 1_555
C11 C20 1_555 1_555
C11 C28 1_555 1_555
C12 C33 1_555 1_555
C13 C17 1_555 1_555
C16 C30 1_555 1_555
C18 C19 1_555 1_555
C19 C30 1_555 1_555
C20 C22 1_555 1_555
C21 C22 1_555 1_555
C21 C32 1_555 1_555
C26 C27 1_555 1_555
C34 C36 1_555 1_555
Cd1A O3A 1_555 1_555

#END
