
#######################################################################
#
#                 Cambridge Crystallographic Data Centre
#                                CCDC 
#
#######################################################################
#
# If this CIF has been generated from an entry in the Cambridge 
# Structural Database, then it will include bibliographic, chemical, 
# crystal, experimental, refinement or atomic coordinate data resulting 
# from the CCDC's data processing and validation procedures.
#
#######################################################################

data_FEWZOY
_symmetry_cell_setting           monoclinic
_symmetry_space_group_name_H-M   'P 2/c'
_symmetry_Int_Tables_number      13
_space_group_name_Hall           '-P 2yc'
loop_
_symmetry_equiv_pos_site_id
_symmetry_equiv_pos_as_xyz
1 x,y,z
2 -x,y,1/2-z
3 -x,-y,-z
4 x,-y,1/2+z
_cell_length_a                   8.8702(2)
_cell_length_b                   9.2216(3)
_cell_length_c                   13.7007(3)
_cell_angle_alpha                90
_cell_angle_beta                 107.309(2)
_cell_angle_gamma                90
_cell_volume                     1069.93
loop_
_atom_site_label
_atom_site_type_symbol
_atom_site_fract_x
_atom_site_fract_y
_atom_site_fract_z
Cd1 Cd 0.0000 0.661776(15) 0.2500
Cd2 Cd -0.5000 1.0000 0.0000
S1 S -0.56394(4) 0.74789(4) 0.08055(3)
S2 S 0.07373(4) 0.86953(4) 0.13398(3)
N1 N -0.35565(14) 1.31805(13) 0.27827(8)
N2 N -0.49968(13) 1.13105(13) 0.16046(8)
C1 C -0.35721(16) 1.22507(16) 0.19074(10)
H1 H -0.3564(18) 1.2823(19) 0.1355(12)
H2 H -0.2674(19) 1.1620(16) 0.2100(13)
C2 C -0.5000 1.4079(2) 0.2500
H3 H -0.5007(17) 1.4690(17) 0.1967(11)
C3 C -0.35813(16) 1.22540(16) 0.36481(10)
H4 H -0.2688(19) 1.1671(15) 0.3817(12)
H5 H -0.3569(19) 1.2828(18) 0.4193(12)
C4 C -0.5000 1.0404(2) 0.2500
H6 H -0.598(2) 0.9834(19) 0.2318(13)
N3 N -0.25519(14) 0.63871(14) 0.15228(10)
N4 N -0.23584(14) 0.97654(14) 0.06778(9)
C5 C -0.38199(16) 0.68677(15) 0.12292(10)
C6 C -0.10787(16) 0.93337(15) 0.09539(10)
C7 C -0.0299(2) 0.3741(2) 0.09386(14)
H7 H -0.1350 0.4128 0.0706
H8 H -0.0301 0.2868 0.1319
H9 H 0.0065 0.3529 0.0361
O1 O 0.07210(13) 0.47744(13) 0.15749(9)
H10 H 0.153(3) 0.447(2) 0.1759(15)
N1A N -0.64435(14) 1.31805(13) 0.22173(8)
N2A N -0.50032(13) 1.13105(13) 0.33954(8)
C1A C -0.64279(16) 1.22507(16) 0.30926(10)
H1A H -0.6436(18) 1.2823(19) 0.3645(12)
H2A H -0.7326(19) 1.1620(16) 0.2900(13)
H3A H -0.4993(17) 1.4690(17) 0.3033(11)
C3A C -0.64187(16) 1.22540(16) 0.13519(10)
H4A H -0.7312(19) 1.1671(15) 0.1183(12)
H5A H -0.6431(19) 1.2828(18) 0.0807(12)
H6A H -0.402(2) 0.9834(19) 0.2682(13)
C7A C 0.0299(2) 0.3741(2) 0.40614(14)
H7A H 0.1350 0.4128 0.4294
H8A H 0.0301 0.2868 0.3681
H9A H -0.0065 0.3529 0.4639
O1A O -0.07210(13) 0.47744(13) 0.34251(9)
H10A H -0.153(3) 0.447(2) 0.3241(15)
S1A S 0.56394(4) 0.74789(4) 0.41945(3)
N3A N 0.25519(14) 0.63871(14) 0.34772(10)
C5A C 0.38199(16) 0.68677(15) 0.37708(10)
S2A S -0.07373(4) 0.86953(4) 0.36602(3)
N4A N 0.23584(14) 0.97654(14) 0.43222(9)
C6A C 0.10787(16) 0.93337(15) 0.40461(10)
Cd2A Cd -0.5000 1.0000 0.5000
Cd2A_2 Cd 0.5000 1.0000 0.5000
S1B S -0.43606(4) 1.25211(4) -0.08055(3)
N2B N -0.50032(13) 0.86895(13) -0.16046(8)
N4B N -0.76416(14) 1.02346(14) -0.06778(9)
loop_
_geom_bond_atom_site_label_1
_geom_bond_atom_site_label_2
_geom_bond_site_symmetry_1
_geom_bond_site_symmetry_2
Cd1 S2 1_555 1_555
Cd2 S1 1_555 1_555
S1 C5 1_555 1_555
S2 C6 1_555 1_555
N1 C1 1_555 1_555
N2 Cd2 1_555 1_555
C1 N2 1_555 1_555
H1 C1 1_555 1_555
H2 C1 1_555 1_555
C2 N1 1_555 1_555
H3 C2 1_555 1_555
C3 N1 1_555 1_555
H4 C3 1_555 1_555
H5 C3 1_555 1_555
C4 N2 1_555 1_555
H6 C4 1_555 1_555
N3 Cd1 1_555 1_555
N4 Cd2 1_555 1_555
C5 N3 1_555 1_555
C6 N4 1_555 1_555
C7 H7 1_555 1_555
H8 C7 1_555 1_555
H9 C7 1_555 1_555
O1 Cd1 1_555 1_555
H10 O1 1_555 1_555
N1A C2 1_555 1_555
N2A C3 1_555 1_555
C1A N1A 1_555 1_555
H1A C1A 1_555 1_555
H2A C1A 1_555 1_555
H3A C2 1_555 1_555
C3A N2 1_555 1_555
H4A C3A 1_555 1_555
H5A C3A 1_555 1_555
H6A C4 1_555 1_555
C7A H7A 1_555 1_555
H8A C7A 1_555 1_555
H9A C7A 1_555 1_555
O1A Cd1 1_555 1_555
H10A O1A 1_555 1_555
S1A C5A 1_555 1_555
N3A Cd1 1_555 1_555
C5A N3A 1_555 1_555
S2A Cd1 1_555 1_555
N4A C6A 1_555 1_555
C6A S2A 1_555 1_555
Cd2A N2A 1_555 1_555
Cd2A_2 S1A 1_555 1_555
S1B Cd2 1_555 1_555
N2B Cd2 1_555 1_555
N4B Cd2 1_555 1_555
C4 N2A 1_555 1_555
C7 O1 1_555 1_555
N1A C3A 1_555 1_555
N2A C1A 1_555 1_555
C7A O1A 1_555 1_555
N4A Cd2A_2 1_555 1_555

#END
