
#######################################################################
#
#                 Cambridge Crystallographic Data Centre
#                                CCDC 
#
#######################################################################
#
# If this CIF has been generated from an entry in the Cambridge 
# Structural Database, then it will include bibliographic, chemical, 
# crystal, experimental, refinement or atomic coordinate data resulting 
# from the CCDC's data processing and validation procedures.
#
#######################################################################

data_FEXDOD
_symmetry_cell_setting           monoclinic
_symmetry_space_group_name_H-M   'P 21/c'
_symmetry_Int_Tables_number      14
_space_group_name_Hall           '-P 2ybc'
loop_
_symmetry_equiv_pos_site_id
_symmetry_equiv_pos_as_xyz
1 x,y,z
2 -x,1/2+y,1/2-z
3 -x,-y,-z
4 x,1/2-y,1/2+z
_cell_length_a                   11.2413(17)
_cell_length_b                   18.498(3)
_cell_length_c                   11.1404(16)
_cell_angle_alpha                90
_cell_angle_beta                 99.012(4)
_cell_angle_gamma                90
_cell_volume                     2287.96
loop_
_atom_site_label
_atom_site_type_symbol
_atom_site_fract_x
_atom_site_fract_y
_atom_site_fract_z
Mn1 Mn 0.42993(6) 0.43862(3) 0.58301(6)
S1 S 1.34074(10) 0.68989(6) 1.44284(10)
S2 S 0.46022(11) 0.33734(6) 0.83478(11)
O1 O 0.5783(3) 0.51285(17) 0.5981(2)
O2 O 1.4462(3) 0.65289(19) 1.4143(3)
O3 O 1.3526(4) 0.76653(18) 1.4376(3)
O4 O 1.3092(3) 0.6639(2) 1.5571(3)
O5 O 0.3841(3) 0.38345(18) 0.7394(3)
O6 O 0.3123(3) 0.52236(18) 0.6415(3)
H1 H 0.333(5) 0.5560(12) 0.601(3)
N1 N 0.7244(3) 0.61627(19) 0.5386(3)
N2 N 0.9417(3) 0.6182(2) 0.9512(3)
N3 N 0.9454(4) 0.5931(2) 1.0570(4)
C1 C 0.7425(4) 0.5912(2) 0.6548(4)
C2 C 0.6642(4) 0.5342(2) 0.6830(4)
C3 C 0.6860(4) 0.5049(3) 0.7985(4)
H2 H 0.6389 0.4666 0.8180
C4 C 0.7772(4) 0.5317(3) 0.8860(4)
H3 H 0.7901 0.5102 0.9625
C5 C 0.8488(4) 0.5887(2) 0.8636(4)
C6 C 0.8351(4) 0.6188(2) 0.7451(4)
C7 C 0.9067(4) 0.6753(3) 0.7089(5)
H4 H 0.9667 0.6964 0.7650
C8 C 0.8872(5) 0.6985(3) 0.5915(5)
H5 H 0.9347 0.7350 0.5666
C9 C 0.7959(4) 0.6673(3) 0.5089(5)
H6 H 0.7849 0.6833 0.4288
C10 C 1.0411(4) 0.6208(3) 1.1436(4)
C11 C 1.0409(5) 0.5984(3) 1.2628(5)
H7 H 0.9799 0.5682 1.2808
C12 C 1.1306(5) 0.6205(3) 1.3543(4)
H8 H 1.1296 0.6055 1.4339
C13 C 1.2204(4) 0.6642(2) 1.3284(4)
C14 C 1.2207(4) 0.6881(3) 1.2104(4)
H9 H 1.2813 0.7190 1.1936
C15 C 1.1312(4) 0.6661(2) 1.1173(4)
H10 H 1.1318 0.6818 1.0380
C16 C 0.4306(5) 0.2462(3) 0.7872(5)
H11 H 0.3457 0.2401 0.7605
H12 H 0.4564 0.2142 0.8540
H13 H 0.4736 0.2353 0.7215
C17 C 0.3789(6) 0.3389(4) 0.9581(5)
H14 H 0.3876 0.3854 0.9966
H15 H 0.4097 0.3022 1.0157
H16 H 0.2953 0.3298 0.9290
C18 C 0.2706(4) 0.5301(3) 0.7575(5)
H17 H 0.2481 0.4825 0.7854
C19 C 0.3715(7) 0.5612(4) 0.8492(7)
H18 H 0.4362 0.5268 0.8642
H19 H 0.3420 0.5713 0.9237
H20 H 0.4003 0.6050 0.8177
C20 C 0.1606(7) 0.5800(4) 0.7434(8)
H21 H 0.1845 0.6282 0.7258
H22 H 0.1270 0.5802 0.8175
H23 H 0.1013 0.5630 0.6780
Mn1B Mn 0.57007(6) 0.56138(3) 0.41699(6)
Mn1B_2 Mn 1.57007(6) 0.56138(3) 1.41699(6)
O1B O 0.4217(3) 0.48715(17) 0.4019(2)
O2B O 0.5538(3) 0.34711(19) 0.5857(3)
N1B N 0.2756(3) 0.38373(19) 0.4614(3)
loop_
_geom_bond_atom_site_label_1
_geom_bond_atom_site_label_2
_geom_bond_site_symmetry_1
_geom_bond_site_symmetry_2
Mn1 O1 1_555 1_555
S1 O2 1_555 1_555
S2 O5 1_555 1_555
O1 C2 1_555 1_555
O2 Mn1B_2 1_555 1_555
O3 S1 1_555 1_555
O4 S1 1_555 1_555
O5 Mn1 1_555 1_555
O6 Mn1 1_555 1_555
H1 O6 1_555 1_555
N1 C1 1_555 1_555
N2 N3 1_555 1_555
N3 C10 1_555 1_555
C1 C2 1_555 1_555
C2 C3 1_555 1_555
C3 H2 1_555 1_555
C4 C3 1_555 1_555
H3 C4 1_555 1_555
C5 N2 1_555 1_555
C6 C1 1_555 1_555
C7 C6 1_555 1_555
H4 C7 1_555 1_555
C8 C7 1_555 1_555
H5 C8 1_555 1_555
C9 N1 1_555 1_555
H6 C9 1_555 1_555
C10 C11 1_555 1_555
C11 H7 1_555 1_555
C12 C11 1_555 1_555
H8 C12 1_555 1_555
C13 S1 1_555 1_555
C14 C13 1_555 1_555
H9 C14 1_555 1_555
C15 C10 1_555 1_555
H10 C15 1_555 1_555
C16 S2 1_555 1_555
H11 C16 1_555 1_555
H12 C16 1_555 1_555
H13 C16 1_555 1_555
C17 S2 1_555 1_555
H14 C17 1_555 1_555
H15 C17 1_555 1_555
H16 C17 1_555 1_555
C18 O6 1_555 1_555
H17 C18 1_555 1_555
C19 C18 1_555 1_555
H18 C19 1_555 1_555
H19 C19 1_555 1_555
H20 C19 1_555 1_555
C20 C18 1_555 1_555
H21 C20 1_555 1_555
H22 C20 1_555 1_555
H23 C20 1_555 1_555
Mn1B O1 1_555 1_555
O1B Mn1 1_555 1_555
O2B Mn1 1_555 1_555
N1B Mn1 1_555 1_555
N1 Mn1B 1_555 1_555
C4 C5 1_555 1_555
C5 C6 1_555 1_555
C8 C9 1_555 1_555
C12 C13 1_555 1_555
C14 C15 1_555 1_555
Mn1B O1B 1_555 1_555

#END
