
#######################################################################
#
#                 Cambridge Crystallographic Data Centre
#                                CCDC 
#
#######################################################################
#
# If this CIF has been generated from an entry in the Cambridge 
# Structural Database, then it will include bibliographic, chemical, 
# crystal, experimental, refinement or atomic coordinate data resulting 
# from the CCDC's data processing and validation procedures.
#
#######################################################################

data_FEXFAR
_symmetry_cell_setting           monoclinic
_symmetry_space_group_name_H-M   'P n'
_symmetry_Int_Tables_number      7
_space_group_name_Hall           'P -2yac'
loop_
_symmetry_equiv_pos_site_id
_symmetry_equiv_pos_as_xyz
1 x,y,z
2 1/2+x,-y,1/2+z
_cell_length_a                   11.5830(6)
_cell_length_b                   19.5406(10)
_cell_length_c                   14.6815(8)
_cell_angle_alpha                90
_cell_angle_beta                 106.4590(10)
_cell_angle_gamma                90
_cell_volume                     3186.83
loop_
_atom_site_label
_atom_site_type_symbol
_atom_site_fract_x
_atom_site_fract_y
_atom_site_fract_z
Si1 Si 0.6584(8) 0.2493(5) 0.3010(7)
W1 W 0.43998(10) 0.23995(6) 0.08001(8)
W2 W 0.60326(9) 0.17851(6) 0.50713(7)
W3 W 0.39261(9) 0.34466(6) 0.25358(8)
W4 W 0.93593(9) 0.33346(6) 0.32108(9)
W5 W 0.92393(9) 0.15055(6) 0.34648(8)
W6 W 0.72169(9) 0.32510(6) 0.10241(7)
W7 W 0.87397(10) 0.26097(6) 0.52791(8)
W8 W 0.65124(10) 0.07065(6) 0.32214(8)
W9 W 0.61067(10) 0.35349(6) 0.48327(8)
W10 W 0.38067(9) 0.17055(6) 0.27843(8)
W11 W 0.67618(10) 0.42823(5) 0.28000(8)
W12 W 0.71438(9) 0.14209(6) 0.12671(8)
O1 O 1.0738(15) 0.3621(9) 0.3402(13)
O2 O 0.755(2) 0.3609(13) 0.011(2)
O3 O 0.9553(17) 0.2368(9) 0.3126(14)
O4 O 0.7484(17) 0.2347(9) 0.0613(15)
O5 O 0.7266(14) 0.0970(9) 0.0295(12)
O6 O 0.4919(13) 0.1022(8) 0.2735(11)
O7 O 0.6288(16) -0.0115(9) 0.3362(14)
O8 O 0.2602(17) 0.1206(10) 0.2754(14)
O9 O 0.4581(15) 0.1827(9) 0.4063(13)
O10 O 0.5603(15) 0.2736(9) 0.5026(13)
O11 O 0.5771(16) 0.1443(10) 0.6017(14)
O12 O 0.5808(15) 0.4145(9) 0.5589(13)
O13 O 0.983(2) 0.2637(12) 0.6223(18)
O14 O 0.2613(15) 0.3936(9) 0.2368(13)
O15 O 0.3474(17) 0.2314(10) -0.0339(15)
O16 O 0.9075(16) 0.1835(9) 0.4600(14)
O17 O 1.0365(18) 0.1034(11) 0.3660(16)
O18 O 0.5166(15) 0.4000(9) 0.2370(13)
O19 O 0.5548(13) 0.1692(8) 0.0908(11)
O20 O 0.9210(16) 0.3151(9) 0.4384(14)
O21 O 0.7784(15) 0.3325(9) 0.5577(14)
O22 O 0.6774(14) 0.4038(8) 0.3992(12)
O23 O 0.8246(15) 0.0716(9) 0.3594(13)
O24 O 0.8744(16) 0.1266(9) 0.2057(14)
O25 O 0.6644(13) 0.0636(8) 0.1935(12)
O26 O 0.6924(14) 0.4123(8) 0.1504(12)
O27 O 0.7190(13) 0.1762(8) 0.2833(12)
O28 O 0.7654(14) 0.1985(8) 0.5733(12)
O29 O 0.5597(15) 0.3032(9) 0.0711(13)
O30 O 0.5175(14) 0.2510(7) 0.2478(12)
O31 O 0.3507(17) 0.1802(10) 0.1373(15)
O32 O 0.6686(17) 0.5168(10) 0.2721(15)
O33 O 0.7259(13) 0.3115(8) 0.2605(11)
O34 O 0.8887(18) 0.3390(10) 0.1810(15)
O35 O 0.6562(13) 0.1092(8) 0.4354(11)
O36 O 0.3114(15) 0.2610(8) 0.2747(12)
O37 O 0.6767(15) 0.2583(8) 0.4132(12)
O38 O 0.4722(16) 0.3483(10) 0.3836(14)
O39 O 0.8541(14) 0.4237(8) 0.3149(12)
O40 O 0.3587(15) 0.3160(9) 0.1199(13)
O41 O 0.7574(16) 0.4402(10) 0.7492(14)
O42 O 0.7725(14) -0.0185(8) -0.0861(12)
O43 O 0.530(2) 0.0548(14) -0.156(2)
C1 C 0.7110(17) 0.5812(12) 0.4864(16)
C2 C 0.8207(15) 0.5405(10) 0.5182(14)
C3 C 0.910(2) 0.5421(16) 0.4690(18)
C4 C 0.8848(18) 0.5831(12) 0.3846(16)
C5 C 0.779(3) 0.6204(17) 0.366(2)
C6 C 0.683(2) 0.6278(12) 0.4096(16)
C7 C 0.573(4) 0.664(4) 0.382(4)
H1 H 0.5462 0.6903 0.3271
C8 C 0.514(3) 0.6551(16) 0.448(2)
H2 H 0.4517 0.6859 0.4448
C9 C 0.531(2) 0.6066(12) 0.5199(19)
H3 H 0.4745 0.5997 0.5527
C10 C 1.016(3) 0.451(2) 0.571(3)
H4 H 1.0758 0.4181 0.5881
C11 C 0.920(2) 0.4559(15) 0.611(2)
H5 H 0.9241 0.4249 0.6594
C12 C 0.501(3) -0.0382(18) 0.094(2)
C13 C 0.6056(18) -0.0820(12) 0.1151(16)
C14 C 0.624(2) -0.1294(15) 0.191(2)
C15 C 0.5371(17) -0.1411(12) 0.2407(16)
C16 C 0.434(2) -0.1020(15) 0.210(2)
C17 C 0.414(2) -0.0454(12) 0.1441(19)
C18 C 0.3176(18) 0.0009(10) 0.1135(16)
H6 H 0.2564 -0.0005 0.1431
C19 C 0.309(3) 0.0471(17) 0.044(2)
H7 H 0.2469 0.0789 0.0283
C20 C 0.397(2) 0.0459(14) -0.005(2)
H8 H 0.3903 0.0763 -0.0552
C21 C 0.7372(17) -0.1617(12) 0.2190(18)
H9 H 0.7523 -0.1912 0.2708
C22 C 0.826(2) -0.1530(17) 0.176(2)
H10 H 0.8985 -0.1765 0.1945
C23 C 0.798(3) -0.1056(18) 0.103(3)
H11 H 0.8566 -0.0964 0.0728
Cu1 Cu 0.6890(3) 0.50439(19) 0.6461(3)
Cu2 Cu 0.6298(4) -0.0059(2) -0.0386(3)
N1 N 0.6332(17) 0.5704(12) 0.5402(16)
N2 N 0.8239(19) 0.4968(10) 0.5910(15)
N3 N 0.7571(18) 0.6703(10) 0.2958(14)
H12 H 0.8086 0.6775 0.2647
H13 H 0.6919 0.6939 0.2834
N4 N 0.974(3) 0.6099(18) 0.349(2)
H14 H 0.9615 0.6475 0.3174
H15 H 1.0414 0.5888 0.3584
N5 N 0.4896(18) 0.0028(10) 0.0170(15)
N6 N 0.6938(17) -0.0720(11) 0.0715(16)
N7 N 0.541(4) -0.173(2) 0.326(2)
H16 H 0.4838 -0.1667 0.3515
H17 H 0.6008 -0.1990 0.3528
N8 N 0.3494(18) -0.0869(12) 0.2571(16)
H18 H 0.3578 -0.1027 0.3133
H19 H 0.2884 -0.0616 0.2304
C24 C 1.013(4) 0.500(3) 0.505(4)
H20 H 1.0798 0.5069 0.4829
O44 O 0.567(2) 0.5173(17) 0.717(2)
O14A O 0.7613(15) 0.6064(9) 0.7368(13)
O17A O 0.5365(18) -0.1034(11) -0.1340(16)
Cu1A Cu 0.1890(3) 0.49561(19) 0.1461(3)
Cu2A Cu 1.1298(4) 0.0059(2) 0.4614(3)
O45 O 0.977(2) 0.0432(12) 0.9817(19)
O46 O 0.265(2) 0.2576(11) 0.4825(19)
O47 O 0.834(2) 0.5203(12) 0.1072(18)
O48 O 0.802(3) 0.5005(16) 0.911(2)
O49 O 0.064(3) 0.216(2) 0.136(3)
O50 O 0.554(2) 0.9782(12) 0.6970(18)
O51 O 0.634(2) 0.3223(15) 0.763(2)
O52 O 0.947(3) 0.1663(16) 0.961(2)
O53 O 0.751(4) 0.651(2) 0.095(3)
loop_
_geom_bond_atom_site_label_1
_geom_bond_atom_site_label_2
_geom_bond_site_symmetry_1
_geom_bond_site_symmetry_2
Si1 O27 1_555 1_555
W1 O15 1_555 1_555
W2 O9 1_555 1_555
W3 O14 1_555 1_555
W4 O1 1_555 1_555
W5 O3 1_555 1_555
W6 O2 1_555 1_555
W7 O13 1_555 1_555
W8 O6 1_555 1_555
W9 O10 1_555 1_555
W10 O6 1_555 1_555
W11 O18 1_555 1_555
W12 O4 1_555 1_555
O3 W4 1_555 1_555
O4 W6 1_555 1_555
O5 W12 1_555 1_555
O7 W8 1_555 1_555
O8 W10 1_555 1_555
O9 W10 1_555 1_555
O10 W2 1_555 1_555
O11 W2 1_555 1_555
O12 W9 1_555 1_555
O14 Cu1A 1_555 1_555
O16 W5 1_555 1_555
O17 W5 1_555 1_555
O18 W3 1_555 1_555
O19 W1 1_555 1_555
O20 W4 1_555 1_555
O21 W7 1_555 1_555
O22 W9 1_555 1_555
O23 W5 1_555 1_555
O24 W5 1_555 1_555
O25 W8 1_555 1_555
O26 W6 1_555 1_555
O27 W5 1_555 1_555
O28 W2 1_555 1_555
O29 W1 1_555 1_555
O30 Si1 1_555 1_555
O31 W1 1_555 1_555
O32 W11 1_555 1_555
O33 Si1 1_555 1_555
O34 W4 1_555 1_555
O35 W2 1_555 1_555
O36 W3 1_555 1_555
O37 Si1 1_555 1_555
O38 W3 1_555 1_555
O39 W4 1_555 1_555
O40 W1 1_555 1_555
O41 Cu1 1_555 1_555
O42 Cu2 1_555 1_555
O43 Cu2 1_555 1_555
C1 C2 1_555 1_555
C2 C3 1_555 1_555
C3 C4 1_555 1_555
C4 C5 1_555 1_555
C5 C6 1_555 1_555
C6 C1 1_555 1_555
C7 C6 1_555 1_555
H1 C7 1_555 1_555
C8 C7 1_555 1_555
H2 C8 1_555 1_555
C9 C8 1_555 1_555
H3 C9 1_555 1_555
C10 H4 1_555 1_555
C11 C10 1_555 1_555
H5 C11 1_555 1_555
C12 C13 1_555 1_555
C13 C14 1_555 1_555
C14 C15 1_555 1_555
C15 C16 1_555 1_555
C16 C17 1_555 1_555
C17 C12 1_555 1_555
C18 C17 1_555 1_555
H6 C18 1_555 1_555
C19 C18 1_555 1_555
H7 C19 1_555 1_555
C20 C19 1_555 1_555
H8 C20 1_555 1_555
C21 C14 1_555 1_555
H9 C21 1_555 1_555
C22 C21 1_555 1_555
H10 C22 1_555 1_555
C23 C22 1_555 1_555
H11 C23 1_555 1_555
Cu1 O12 1_555 1_555
Cu2 O5 1_555 1_555
N1 C1 1_555 1_555
N2 C2 1_555 1_555
N3 C5 1_555 1_555
H12 N3 1_555 1_555
H13 N3 1_555 1_555
N4 C4 1_555 1_555
H14 N4 1_555 1_555
H15 N4 1_555 1_555
N5 C12 1_555 1_555
N6 C13 1_555 1_555
N7 C15 1_555 1_555
H16 N7 1_555 1_555
H17 N7 1_555 1_555
N8 C16 1_555 1_555
H18 N8 1_555 1_555
H19 N8 1_555 1_555
C24 C3 1_555 1_555
H20 C24 1_555 1_555
O44 Cu1 1_555 1_555
O14A Cu1 1_555 1_555
O17A Cu2 1_555 1_555
Cu2A O17 1_555 1_555
W1 O30 1_555 1_555
W2 O37 1_555 1_555
W3 O30 1_555 1_555
W3 O40 1_555 1_555
W4 O33 1_555 1_555
W6 O29 1_555 1_555
W6 O33 1_555 1_555
W6 O34 1_555 1_555
W7 O16 1_555 1_555
W7 O20 1_555 1_555
W7 O28 1_555 1_555
W7 O37 1_555 1_555
W8 O23 1_555 1_555
W8 O27 1_555 1_555
W8 O35 1_555 1_555
W9 O21 1_555 1_555
W9 O37 1_555 1_555
W9 O38 1_555 1_555
W10 O30 1_555 1_555
W10 O31 1_555 1_555
W10 O36 1_555 1_555
W11 O22 1_555 1_555
W11 O26 1_555 1_555
W11 O33 1_555 1_555
W11 O39 1_555 1_555
W12 O19 1_555 1_555
W12 O24 1_555 1_555
W12 O25 1_555 1_555
W12 O27 1_555 1_555
C9 N1 1_555 1_555
C10 C24 1_555 1_555
C11 N2 1_555 1_555
C20 N5 1_555 1_555
C23 N6 1_555 1_555
Cu1 N1 1_555 1_555
Cu1 N2 1_555 1_555
Cu2 N5 1_555 1_555
Cu2 N6 1_555 1_555

#END
