
#######################################################################
#
#                 Cambridge Crystallographic Data Centre
#                                CCDC 
#
#######################################################################
#
# If this CIF has been generated from an entry in the Cambridge 
# Structural Database, then it will include bibliographic, chemical, 
# crystal, experimental, refinement or atomic coordinate data resulting 
# from the CCDC's data processing and validation procedures.
#
#######################################################################

data_FEXVIP01
_symmetry_cell_setting           monoclinic
_symmetry_space_group_name_H-M   'C 2/c'
_symmetry_Int_Tables_number      15
_space_group_name_Hall           '-C 2yn'
loop_
_symmetry_equiv_pos_site_id
_symmetry_equiv_pos_as_xyz
1 x,y,z
2 -x,y,1/2-z
3 1/2+x,1/2+y,z
4 1/2-x,1/2+y,1/2-z
5 -x,-y,-z
6 x,-y,1/2+z
7 1/2-x,1/2-y,-z
8 1/2+x,1/2-y,1/2+z
_cell_length_a                   26.148(2)
_cell_length_b                   9.2104(7)
_cell_length_c                   23.6166(18)
_cell_angle_alpha                90
_cell_angle_beta                 108.3570(10)
_cell_angle_gamma                90
_cell_volume                     5398.24
loop_
_atom_site_label
_atom_site_type_symbol
_atom_site_fract_x
_atom_site_fract_y
_atom_site_fract_z
Cd1 Cd 0.184904(8) 0.95009(2) 0.259621(9)
O1 O 0.30347(12) 1.3607(3) 0.14322(11)
O2 O 0.29458(11) 1.2004(3) 0.20694(10)
O3 O 0.18501(10) 1.0827(2) 0.16793(11)
O4 O 0.23069(10) 0.8807(2) 0.19251(10)
O5 O 0.19133(9) 0.7966(2) 0.06368(10)
O6 O -0.05462(14) 0.8755(4) -0.0928(2)
O7 O -0.05205(12) 0.6473(3) -0.06581(17)
H1 H -0.0847 0.6539 -0.0818
O8 O 0.27252(9) 1.0711(2) 0.30330(10)
H2 H 0.2807 1.0867 0.2717
H3 H 0.2658 1.1556 0.3136
N1 N 0.09844(10) 0.8667(3) 0.20677(12)
N2 N -0.14840(11) 0.1576(3) 0.21306(12)
C1 C 0.27209(11) 1.1282(3) 0.10529(13)
C2 C 0.23854(12) 1.0112(3) 0.10831(13)
C3 C 0.22283(13) 0.9164(3) 0.06032(14)
C4 C 0.23885(15) 0.9346(4) 0.01035(14)
H4 H 0.2275 0.8697 -0.0213
C5 C 0.27187(15) 1.0498(4) 0.00766(15)
H5 H 0.2831 1.0626 -0.0257
C6 C 0.28804(13) 1.1457(4) 0.05484(13)
H6 H 0.3100 1.2236 0.0529
C7 C 0.29109(12) 1.2364(3) 0.15510(14)
C8 C 0.21673(12) 0.9903(3) 0.15984(13)
C9 C 0.13762(14) 0.7975(4) 0.03051(14)
C10 C 0.11001(16) 0.9196(4) 0.0046(2)
H7 H 0.1277 1.0082 0.0078
C11 C 0.05557(17) 0.9097(4) -0.0265(2)
H8 H 0.0369 0.9927 -0.0439
C12 C 0.02848(15) 0.7797(4) -0.03229(15)
C13 C 0.05691(15) 0.6589(4) -0.00547(16)
H9 H 0.0392 0.5704 -0.0084
C14 C 0.11120(15) 0.6666(4) 0.02559(16)
H10 H 0.1299 0.5837 0.0431
C15 C -0.02968(16) 0.7735(4) -0.06668(18)
C16 C 0.09253(15) 0.7528(5) 0.1717(2)
H11 H 0.1234 0.7053 0.1700
C17 C 0.04331(16) 0.7001(5) 0.13749(19)
H12 H 0.0417 0.6173 0.1144
C18 C -0.00295(14) 0.7680(4) 0.13711(16)
C19 C 0.00300(17) 0.8864(6) 0.1721(3)
H13 H -0.0273 0.9371 0.1737
C20 C 0.05365(17) 0.9330(5) 0.2057(3)
H14 H 0.0562 1.0160 0.2289
C21 C -0.05726(16) 0.7155(4) 0.09817(19)
H15 H -0.0844 0.7845 0.1008
H16 H -0.0574 0.7143 0.0571
C22 C -0.07275(19) 0.5672(5) 0.1138(2)
H17 H -0.1061 0.5383 0.0839
H18 H -0.0451 0.4986 0.1122
C23 C -0.0797(2) 0.5588(5) 0.1704(2)
H19 H -0.1048 0.6337 0.1732
H20 H -0.0454 0.5792 0.2004
C24 C -0.14283(19) 0.1755(5) 0.16002(17)
H21 H -0.1559 0.1038 0.1314
C25 C -0.1184(2) 0.2964(6) 0.1449(2)
H22 H -0.1138 0.3018 0.1075
C26 C -0.1008(2) 0.4090(5) 0.18509(19)
C27 C -0.1061(3) 0.3868(6) 0.2389(2)
H23 H -0.0935 0.4567 0.2685
C28 C -0.1297(3) 0.2634(5) 0.2515(2)
H24 H -0.1326 0.2537 0.2896
Cd1A Cd -0.184904(8) -0.04991(2) 0.240379(9)
Cd1C Cd 0.315096(8) 1.45009(2) 0.240379(9)
O1C O 0.19653(12) 0.8607(3) 0.35678(11)
O2C O 0.20542(11) 0.7004(3) 0.29306(10)
N2A N 0.14840(11) 1.1576(3) 0.28694(12)
O9 O 0.15801(10) 1.3520(3) 0.11516(13)
H25 H 0.1702 1.2734 0.1333
H26 H 0.1778 1.4161 0.1374
loop_
_geom_bond_atom_site_label_1
_geom_bond_atom_site_label_2
_geom_bond_site_symmetry_1
_geom_bond_site_symmetry_2
Cd1 O3 1_555 1_555
O1 C7 1_555 1_555
O2 C7 1_555 1_555
O3 C8 1_555 1_555
O4 Cd1 1_555 1_555
O5 C3 1_555 1_555
O6 C15 1_555 1_555
O7 H1 1_555 1_555
O8 Cd1 1_555 1_555
H2 O8 1_555 1_555
H3 O8 1_555 1_555
N1 Cd1 1_555 1_555
N2 C24 1_555 1_555
C1 C2 1_555 1_555
C2 C3 1_555 1_555
C3 C4 1_555 1_555
C4 H4 1_555 1_555
C5 C4 1_555 1_555
H5 C5 1_555 1_555
C6 C1 1_555 1_555
H6 C6 1_555 1_555
C7 C1 1_555 1_555
C8 O4 1_555 1_555
C9 O5 1_555 1_555
C10 C9 1_555 1_555
H7 C10 1_555 1_555
C11 C10 1_555 1_555
H8 C11 1_555 1_555
C12 C11 1_555 1_555
C13 C12 1_555 1_555
H9 C13 1_555 1_555
C14 C9 1_555 1_555
H10 C14 1_555 1_555
C15 O7 1_555 1_555
C16 N1 1_555 1_555
H11 C16 1_555 1_555
C17 C16 1_555 1_555
H12 C17 1_555 1_555
C18 C17 1_555 1_555
C19 C18 1_555 1_555
H13 C19 1_555 1_555
C20 N1 1_555 1_555
H14 C20 1_555 1_555
C21 C18 1_555 1_555
H15 C21 1_555 1_555
H16 C21 1_555 1_555
C22 C21 1_555 1_555
H17 C22 1_555 1_555
H18 C22 1_555 1_555
C23 C22 1_555 1_555
H19 C23 1_555 1_555
H20 C23 1_555 1_555
C24 H21 1_555 1_555
C25 C24 1_555 1_555
H22 C25 1_555 1_555
C26 C23 1_555 1_555
C27 C26 1_555 1_555
H23 C27 1_555 1_555
C28 N2 1_555 1_555
H24 C28 1_555 1_555
O9 H25 1_555 1_555
H26 O9 1_555 1_555
Cd1A N2 1_555 1_555
Cd1C O1 1_555 1_555
O1C Cd1 1_555 1_555
O2C Cd1 1_555 1_555
N2A Cd1 1_555 1_555
O2 Cd1C 1_555 1_555
C2 C8 1_555 1_555
C5 C6 1_555 1_555
C12 C15 1_555 1_555
C13 C14 1_555 1_555
C19 C20 1_555 1_555
C25 C26 1_555 1_555
C27 C28 1_555 1_555

#END
