
#######################################################################
#
#                 Cambridge Crystallographic Data Centre
#                                CCDC 
#
#######################################################################
#
# If this CIF has been generated from an entry in the Cambridge 
# Structural Database, then it will include bibliographic, chemical, 
# crystal, experimental, refinement or atomic coordinate data resulting 
# from the CCDC's data processing and validation procedures.
#
#######################################################################

data_FEXVIO
_symmetry_cell_setting           triclinic
_symmetry_space_group_name_H-M   'P -1'
_symmetry_Int_Tables_number      2
_space_group_name_Hall           '-P 1'
loop_
_symmetry_equiv_pos_site_id
_symmetry_equiv_pos_as_xyz
1 x,y,z
2 -x,-y,-z
_cell_length_a                   10.179(2)
_cell_length_b                   10.668(2)
_cell_length_c                   11.205(2)
_cell_angle_alpha                107.50(3)
_cell_angle_beta                 104.05(3)
_cell_angle_gamma                100.44(3)
_cell_volume                     1082.39
loop_
_atom_site_label
_atom_site_type_symbol
_atom_site_fract_x
_atom_site_fract_y
_atom_site_fract_z
Mo1 Mo 0.53946(5) 1.03720(5) 0.36243(4)
Mo2 Mo 0.29636(5) 1.20951(5) 0.51061(5)
Mo3 Mo 0.15355(5) 0.88439(5) 0.31947(5)
Mo4 Mo 0.35952(5) 0.67239(5) 0.31280(5)
Co1 Co -0.17827(8) 0.60961(8) 0.21207(7)
O1 O 0.0217(4) 0.7630(4) 0.3257(4)
O2 O 0.0733(4) 0.9322(4) 0.1966(4)
O3 O 0.2542(4) 0.7728(4) 0.2317(3)
O4 O 0.3644(4) 1.0525(4) 0.3624(3)
O5 O 0.5465(4) 0.8684(4) 0.3493(4)
O6 O 0.2310(4) 0.5601(4) 0.3284(4)
O7 O 0.4840(4) 1.3123(4) 0.5436(4)
O8 O 0.2099(4) 1.2550(4) 0.3903(4)
O9 O 0.1770(4) 1.0348(4) 0.4747(4)
O10 O 0.2589(4) 1.3019(4) 0.6498(4)
O11 O 0.6692(4) 1.1540(4) 0.5142(3)
O12 O 0.5755(4) 1.0698(4) 0.2322(4)
O13 O 0.4021(4) 0.5807(4) 0.1797(4)
O14 O -0.3794(4) 0.4705(5) 0.1095(4)
N1 N -0.1041(5) 0.4599(5) 0.2699(4)
N2 N -0.0890(5) 0.5258(5) 0.0676(4)
N3 N 0.2098(5) 0.2769(5) -0.0907(4)
C1 C -0.1370(6) 0.4193(6) 0.3640(6)
H1 H -0.1645 0.4799 0.4285
C2 C -0.1323(6) 0.2933(7) 0.3703(6)
H2 H -0.1497 0.2693 0.4413
C3 C -0.1020(6) 0.2035(7) 0.2715(7)
H3 H -0.1041 0.1137 0.2704
C4 C -0.0682(6) 0.2427(6) 0.1728(6)
H4 H -0.0483 0.1805 0.1032
C5 C -0.0643(6) 0.3728(6) 0.1782(5)
C6 C -0.0247(5) 0.4324(5) 0.0828(5)
C7 C 0.0736(5) 0.4055(5) 0.0142(5)
C8 C 0.1664(6) 0.3129(6) 0.0165(6)
C9 C 0.2121(6) 0.2732(6) 0.1226(5)
H5 H 0.1863 0.3057 0.1998
C10 C 0.2960(7) 0.1854(7) 0.1131(6)
H6 H 0.3260 0.1530 0.1825
C11 C 0.3366(8) 0.1448(8) 0.0005(7)
H7 H 0.3941 0.0838 -0.0081
C12 C 0.2924(7) 0.1939(7) -0.0980(6)
H8 H 0.3220 0.1675 -0.1738
Mo1A Mo 0.46054(5) 0.96280(5) 0.63757(4)
Mo2A Mo 0.70364(5) 0.79049(5) 0.48939(5)
Mo3A Mo 0.84645(5) 1.11561(5) 0.68053(5)
Mo4A Mo 0.64048(5) 1.32761(5) 0.68720(5)
Co1A Co 1.17827(8) 1.39039(8) 0.78793(7)
Co1A_2 Co 0.17827(8) 1.39039(8) 0.78793(7)
Co1A_3 Co 0.17827(8) 0.39039(8) -0.21207(7)
Co1_2 Co 0.82173(8) 0.60961(8) 0.21207(7)
O1A O 0.9783(4) 1.2370(4) 0.6743(4)
O2A O 0.9267(4) 1.0678(4) 0.8034(4)
O3A O 0.7458(4) 1.2272(4) 0.7683(3)
O4A O 0.6356(4) 0.9475(4) 0.6376(3)
O5A O 0.4535(4) 1.1316(4) 0.6507(4)
O6A O 0.7690(4) 1.4399(4) 0.6716(4)
O7A O 0.5160(4) 0.6877(4) 0.4564(4)
O8A O 0.7901(4) 0.7450(4) 0.6097(4)
O9A O 0.8230(4) 0.9652(4) 0.5253(4)
O10A O 0.7411(4) 0.6981(4) 0.3502(4)
O10A_2 O -0.2589(4) 0.6981(4) 0.3502(4)
O10_2 O 1.2589(4) 1.3019(4) 0.6498(4)
O11A O 0.3308(4) 0.8460(4) 0.4858(3)
O12A O 0.4245(4) 0.9302(4) 0.7678(4)
O13A O 0.5979(4) 1.4193(4) 0.8203(4)
O14A O 1.3794(4) 1.5295(5) 0.8905(4)
N1A N 0.1041(5) 0.5401(5) -0.2699(4)
N1A_2 N 1.1041(5) 1.5401(5) 0.7301(4)
N2A N 0.0890(5) 0.4742(5) -0.0676(4)
N2A_2 N 1.0890(5) 1.4742(5) 0.9324(4)
N3A N -0.2098(5) 0.7231(5) 0.0907(4)
N3_2 N 1.2098(5) 1.2769(5) 0.9093(4)
C1A C 0.1370(6) 0.5807(6) -0.3640(6)
H1A H 0.1645 0.5201 -0.4285
C2A C 0.1323(6) 0.7067(7) -0.3703(6)
H2A H 0.1497 0.7307 -0.4413
C3A C 0.1020(6) 0.7965(7) -0.2715(7)
H3A H 0.1041 0.8863 -0.2704
C4A C 0.0682(6) 0.7573(6) -0.1728(6)
H4A H 0.0483 0.8195 -0.1032
C5A C 0.0643(6) 0.6272(6) -0.1782(5)
C6A C 0.0247(5) 0.5676(5) -0.0828(5)
C7A C -0.0736(5) 0.5945(5) -0.0142(5)
C8A C -0.1664(6) 0.6871(6) -0.0165(6)
C9A C -0.2121(6) 0.7268(6) -0.1226(5)
H5A H -0.1863 0.6943 -0.1998
C10A C -0.2960(7) 0.8146(7) -0.1131(6)
H6A H -0.3260 0.8470 -0.1825
C11A C -0.3366(8) 0.8552(8) -0.0005(7)
H7A H -0.3941 0.9162 0.0081
C12A C -0.2924(7) 0.8061(7) 0.0980(6)
H8A H -0.3220 0.8325 0.1738
O15 O 0.6371(9) 0.2115(9) 0.9720(9)
O16 O 0.5436(13) 0.4177(12) 0.3426(13)
loop_
_geom_bond_atom_site_label_1
_geom_bond_atom_site_label_2
_geom_bond_site_symmetry_1
_geom_bond_site_symmetry_2
Mo1 O4 1_555 1_555
Mo2 O4 1_555 1_555
Mo3 O1 1_555 1_555
Mo4 O3 1_555 1_555
Co1 O1 1_555 1_555
O2 Mo3 1_555 1_555
O3 Mo3 1_555 1_555
O4 Mo3 1_555 1_555
O5 Mo1 1_555 1_555
O6 Mo4 1_555 1_555
O7 Mo2 1_555 1_555
O8 Mo2 1_555 1_555
O9 Mo2 1_555 1_555
O10 Mo2 1_555 1_555
O11 Mo1 1_555 1_555
O12 Mo1 1_555 1_555
O13 Mo4 1_555 1_555
O14 Co1 1_555 1_555
N1 Co1 1_555 1_555
N2 Co1 1_555 1_555
N3 C8 1_555 1_555
C1 N1 1_555 1_555
H1 C1 1_555 1_555
C2 C1 1_555 1_555
H2 C2 1_555 1_555
C3 C2 1_555 1_555
H3 C3 1_555 1_555
C4 C3 1_555 1_555
H4 C4 1_555 1_555
C5 N1 1_555 1_555
C6 N2 1_555 1_555
C7 C6 1_555 1_555
C8 C7 1_555 1_555
C9 C8 1_555 1_555
H5 C9 1_555 1_555
C10 C9 1_555 1_555
H6 C10 1_555 1_555
C11 C10 1_555 1_555
H7 C11 1_555 1_555
C12 N3 1_555 1_555
H8 C12 1_555 1_555
Mo1A O4A 1_555 1_555
Mo2A O5 1_555 1_555
Mo3A O11 1_555 1_555
Mo4A O7 1_555 1_555
Co1A O1A 1_555 1_555
Co1A_2 O10 1_555 1_555
Co1A_3 N3 1_555 1_555
Co1_2 O10A 1_555 1_555
O1A Mo3A 1_555 1_555
O2A Mo3A 1_555 1_555
O3A Mo3A 1_555 1_555
O4A Mo2A 1_555 1_555
O5A Mo2 1_555 1_555
O6A Mo4A 1_555 1_555
O7A Mo4 1_555 1_555
O8A Mo2A 1_555 1_555
O9A Mo2A 1_555 1_555
O10A Mo2A 1_555 1_555
O10A_2 Co1 1_555 1_555
O10_2 Co1A 1_555 1_555
O11A Mo3 1_555 1_555
O12A Mo1A 1_555 1_555
O13A Mo4A 1_555 1_555
O14A Co1A 1_555 1_555
N1A Co1A_3 1_555 1_555
N1A_2 Co1A 1_555 1_555
N2A C7 1_555 1_555
N2A_2 Co1A 1_555 1_555
N3A Co1 1_555 1_555
N3_2 Co1A 1_555 1_555
C1A N1A 1_555 1_555
H1A C1A 1_555 1_555
C2A C1A 1_555 1_555
H2A C2A 1_555 1_555
C3A C2A 1_555 1_555
H3A C3A 1_555 1_555
C4A C3A 1_555 1_555
H4A C4A 1_555 1_555
C5A N1A 1_555 1_555
C6A N2A 1_555 1_555
C7A N2 1_555 1_555
C8A N3A 1_555 1_555
C9A C8A 1_555 1_555
H5A C9A 1_555 1_555
C10A C9A 1_555 1_555
H6A C10A 1_555 1_555
C11A C10A 1_555 1_555
H7A C11A 1_555 1_555
C12A N3A 1_555 1_555
H8A C12A 1_555 1_555
Mo3 O9 1_555 1_555
Mo4 O5 1_555 1_555
Mo4 O11A 1_555 1_555
O11 Mo4A 1_555 1_555
C4 C5 1_555 1_555
C5 C6 1_555 1_555
C11 C12 1_555 1_555
Mo1A O5A 1_555 1_555
Mo1A O11A 1_555 1_555
Mo2A O7A 1_555 1_555
Mo3A O4A 1_555 1_555
Mo3A O9A 1_555 1_555
Mo4A O3A 1_555 1_555
Mo4A O5A 1_555 1_555
Co1A_3 N2A 1_555 1_555
C4A C5A 1_555 1_555
C5A C6A 1_555 1_555
C6A C7A 1_555 1_555
C7A C8A 1_555 1_555
C11A C12A 1_555 1_555

#END
