
#######################################################################
#
#                 Cambridge Crystallographic Data Centre
#                                CCDC 
#
#######################################################################
#
# If this CIF has been generated from an entry in the Cambridge 
# Structural Database, then it will include bibliographic, chemical, 
# crystal, experimental, refinement or atomic coordinate data resulting 
# from the CCDC's data processing and validation procedures.
#
#######################################################################

data_FEXVOU
_symmetry_cell_setting           triclinic
_symmetry_space_group_name_H-M   'P -1'
_symmetry_Int_Tables_number      2
_space_group_name_Hall           '-P 1'
loop_
_symmetry_equiv_pos_site_id
_symmetry_equiv_pos_as_xyz
1 x,y,z
2 -x,-y,-z
_cell_length_a                   10.1424(5)
_cell_length_b                   10.6684(5)
_cell_length_c                   11.1433(5)
_cell_angle_alpha                108.1240(10)
_cell_angle_beta                 103.6800(10)
_cell_angle_gamma                100.3030(10)
_cell_volume                     1071
loop_
_atom_site_label
_atom_site_type_symbol
_atom_site_fract_x
_atom_site_fract_y
_atom_site_fract_z
Mo1 Mo 0.53972(3) 1.03864(3) 0.36292(3)
Mo2 Mo 0.70597(3) 0.78977(3) 0.48755(3)
Mo3 Mo 0.15456(3) 0.88362(3) 0.31701(3)
Mo4 Mo 0.36232(3) 0.67119(3) 0.30994(3)
Ni1 Ni 0.82774(5) 0.61225(5) 0.20965(4)
O1 O 0.5184(2) 0.6867(3) 0.4543(2)
O2 O 0.7451(3) 0.6997(2) 0.3483(2)
O3 O 0.7925(3) 0.7434(3) 0.6090(3)
O4 O 0.5481(2) 0.8690(2) 0.3473(2)
O5 O 0.8251(3) 0.9670(3) 0.5265(2)
O6 O 0.5762(3) 1.0728(3) 0.2327(3)
O7 O 0.3651(2) 1.0535(3) 0.3630(2)
O8 O 0.6670(2) 1.1551(2) 0.5164(2)
O9 O 0.0228(3) 0.7588(2) 0.3211(2)
O10 O 0.0756(3) 0.9322(3) 0.1939(3)
O11 O 0.2561(2) 0.7721(3) 0.2285(2)
O12 O 0.2333(3) 0.5575(3) 0.3246(3)
O13 O 0.4054(3) 0.5799(3) 0.1760(3)
O14 O 0.6286(3) 0.4741(3) 0.1089(3)
N1 N 0.8918(3) 0.4634(3) 0.2704(3)
N2 N 0.9123(3) 0.5295(3) 0.0692(3)
N3 N 1.2124(3) 0.2766(3) -0.0906(3)
C1 C 0.8589(4) 0.4259(4) 0.3663(4)
C2 C 0.8663(4) 0.2995(4) 0.3744(4)
C3 C 0.8970(4) 0.2065(4) 0.2760(4)
C4 C 0.9314(4) 0.2444(4) 0.1759(4)
C5 C 0.9350(4) 0.3762(4) 0.1807(4)
C6 C 0.9777(3) 0.4337(3) 0.0856(3)
C7 C 1.0718(3) 0.4040(3) 0.0134(3)
C8 C 1.1655(4) 0.3117(4) 0.0163(3)
C9 C 1.2121(4) 0.2705(4) 0.1217(4)
C10 C 1.3001(5) 0.1859(5) 0.1128(4)
C11 C 1.3427(6) 0.1452(5) 0.0011(4)
C12 C 1.2981(4) 0.1948(5) -0.0978(4)
H1 H 0.835(5) 0.492(4) 0.429(4)
H2 H 0.853(5) 0.281(5) 0.438(5)
H3 H 0.900(5) 0.111(5) 0.275(5)
H4 H 0.952(5) 0.178(5) 0.103(5)
H5 H 1.196(6) 0.307(5) 0.190(5)
H6 H 1.341(4) 0.160(4) 0.185(4)
H7 H 1.393(6) 0.089(5) -0.006(5)
H8 H 1.326(4) 0.182(4) -0.161(4)
Mo1A Mo 0.46028(3) 0.96136(3) 0.63708(3)
Mo2A Mo 0.29403(3) 1.21023(3) 0.51245(3)
Mo3A Mo 0.84544(3) 1.11638(3) 0.68299(3)
Mo4A Mo 0.63768(3) 1.32881(3) 0.69006(3)
Ni1A Ni 0.17226(5) 1.38775(5) 0.79035(4)
Ni1_2 Ni -0.17226(5) 0.61225(5) 0.20965(4)
Ni1A_2 Ni 1.17226(5) 0.38775(5) -0.20965(4)
Ni1A_3 Ni 1.17226(5) 1.38775(5) 0.79035(4)
O1A O 0.4816(2) 1.3133(3) 0.5457(2)
O2A O 0.2549(3) 1.3003(2) 0.6517(2)
O3A O 0.2075(3) 1.2566(3) 0.3910(3)
O4A O 0.4519(2) 1.1310(2) 0.6527(2)
O5A O 0.1749(3) 1.0330(3) 0.4735(2)
O6A O 0.4238(3) 0.9272(3) 0.7673(3)
O7A O 0.6349(2) 0.9465(3) 0.6370(2)
O8A O 0.3330(2) 0.8449(2) 0.4836(2)
O9A O 0.9772(3) 1.2412(2) 0.6789(2)
O9_2 O 1.0228(3) 0.7588(2) 0.3211(2)
O9A_2 O -0.0228(3) 1.2412(2) 0.6789(2)
O10A O 0.9244(3) 1.0678(3) 0.8061(3)
O11A O 0.7439(2) 1.2279(3) 0.7715(2)
O12A O 0.7667(3) 1.4425(3) 0.6754(3)
O13A O 0.5946(3) 1.4201(3) 0.8240(3)
O14A O 0.3714(3) 1.5259(3) 0.8911(3)
N1A N 1.1082(3) 0.5366(3) -0.2704(3)
N1A_2 N 0.1082(3) 1.5366(3) 0.7296(3)
N2A N 1.0877(3) 0.4705(3) -0.0692(3)
N2A_2 N 0.0877(3) 1.4705(3) 0.9308(3)
N3A N 0.7876(3) 0.7234(3) 0.0906(3)
N3_2 N 0.2124(3) 1.2766(3) 0.9094(3)
C1A C 1.1411(4) 0.5741(4) -0.3663(4)
C2A C 1.1337(4) 0.7005(4) -0.3744(4)
C3A C 1.1030(4) 0.7935(4) -0.2760(4)
C4A C 1.0686(4) 0.7556(4) -0.1759(4)
C5A C 1.0650(4) 0.6238(4) -0.1807(4)
C6A C 1.0223(3) 0.5663(3) -0.0856(3)
C7A C 0.9282(3) 0.5960(3) -0.0134(3)
C8A C 0.8345(4) 0.6883(4) -0.0163(3)
C9A C 0.7879(4) 0.7295(4) -0.1217(4)
C10A C 0.6999(5) 0.8141(5) -0.1128(4)
C11A C 0.6573(6) 0.8548(5) -0.0011(4)
C12A C 0.7019(4) 0.8052(5) 0.0978(4)
H1A H 1.165(5) 0.508(4) -0.429(4)
H2A H 1.147(5) 0.719(5) -0.438(5)
H3A H 1.100(5) 0.889(5) -0.275(5)
H4A H 1.048(5) 0.822(5) -0.103(5)
H5A H 0.804(6) 0.693(5) -0.190(5)
H6A H 0.659(4) 0.840(4) -0.185(4)
H7A H 0.607(6) 0.911(5) 0.006(5)
H8A H 0.674(4) 0.818(4) 0.161(4)
O15 O 0.6370(8) 0.2128(7) 0.9754(7)
O16 O 0.5469(15) 0.4150(15) 0.3371(15)
loop_
_geom_bond_atom_site_label_1
_geom_bond_atom_site_label_2
_geom_bond_site_symmetry_1
_geom_bond_site_symmetry_2
Mo1 O4 1_555 1_555
Mo2 O1 1_555 1_555
Mo3 O7 1_555 1_555
Mo4 O1 1_555 1_555
Ni1 O2 1_555 1_555
O2 Mo2 1_555 1_555
O3 Mo2 1_555 1_555
O4 Mo2 1_555 1_555
O5 Mo2 1_555 1_555
O6 Mo1 1_555 1_555
O7 Mo1 1_555 1_555
O8 Mo1 1_555 1_555
O9 Mo3 1_555 1_555
O10 Mo3 1_555 1_555
O11 Mo3 1_555 1_555
O12 Mo4 1_555 1_555
O13 Mo4 1_555 1_555
O14 Ni1 1_555 1_555
N1 Ni1 1_555 1_555
N2 Ni1 1_555 1_555
N3 C8 1_555 1_555
C1 N1 1_555 1_555
C2 C1 1_555 1_555
C3 C2 1_555 1_555
C4 C3 1_555 1_555
C5 N1 1_555 1_555
C6 N2 1_555 1_555
C7 C6 1_555 1_555
C8 C7 1_555 1_555
C9 C8 1_555 1_555
C10 C9 1_555 1_555
C11 C10 1_555 1_555
C12 N3 1_555 1_555
H1 C1 1_555 1_555
H2 C2 1_555 1_555
H3 C3 1_555 1_555
H4 C4 1_555 1_555
H5 C9 1_555 1_555
H6 C10 1_555 1_555
H7 C11 1_555 1_555
H8 C12 1_555 1_555
Mo1A O4A 1_555 1_555
Mo2A O7 1_555 1_555
Mo3A O5 1_555 1_555
Mo4A O8 1_555 1_555
Ni1A O2A 1_555 1_555
Ni1_2 O9 1_555 1_555
Ni1A_2 N3 1_555 1_555
Ni1A_3 O9A 1_555 1_555
O1A Mo2A 1_555 1_555
O2A Mo2A 1_555 1_555
O3A Mo2A 1_555 1_555
O4A Mo2A 1_555 1_555
O5A Mo3 1_555 1_555
O6A Mo1A 1_555 1_555
O7A Mo2 1_555 1_555
O8A Mo3 1_555 1_555
O9A Mo3A 1_555 1_555
O9_2 Ni1 1_555 1_555
O9A_2 Ni1A 1_555 1_555
O10A Mo3A 1_555 1_555
O11A Mo3A 1_555 1_555
O12A Mo4A 1_555 1_555
O13A Mo4A 1_555 1_555
O14A Ni1A 1_555 1_555
N1A Ni1A_2 1_555 1_555
N1A_2 Ni1A 1_555 1_555
N2A C7 1_555 1_555
N2A_2 Ni1A 1_555 1_555
N3A Ni1 1_555 1_555
N3_2 Ni1A 1_555 1_555
C1A N1A 1_555 1_555
C2A C1A 1_555 1_555
C3A C2A 1_555 1_555
C4A C3A 1_555 1_555
C5A N1A 1_555 1_555
C6A N2A 1_555 1_555
C7A N2 1_555 1_555
C8A N3A 1_555 1_555
C9A C8A 1_555 1_555
C10A C9A 1_555 1_555
C11A C10A 1_555 1_555
C12A N3A 1_555 1_555
H1A C1A 1_555 1_555
H2A C2A 1_555 1_555
H3A C3A 1_555 1_555
H4A C4A 1_555 1_555
H5A C9A 1_555 1_555
H6A C10A 1_555 1_555
H7A C11A 1_555 1_555
H8A C12A 1_555 1_555
Mo4 O4 1_555 1_555
Mo4 O11 1_555 1_555
Mo4 O8A 1_555 1_555
O8 Mo3A 1_555 1_555
C4 C5 1_555 1_555
C5 C6 1_555 1_555
C11 C12 1_555 1_555
Mo1A O7A 1_555 1_555
Mo1A O8A 1_555 1_555
Mo2A O5A 1_555 1_555
Mo3A O7A 1_555 1_555
Mo4A O1A 1_555 1_555
Mo4A O4A 1_555 1_555
Mo4A O11A 1_555 1_555
Ni1A_2 N2A 1_555 1_555
C4A C5A 1_555 1_555
C5A C6A 1_555 1_555
C6A C7A 1_555 1_555
C7A C8A 1_555 1_555
C11A C12A 1_555 1_555

#END
