
#######################################################################
#
#                 Cambridge Crystallographic Data Centre
#                                CCDC 
#
#######################################################################
#
# If this CIF has been generated from an entry in the Cambridge 
# Structural Database, then it will include bibliographic, chemical, 
# crystal, experimental, refinement or atomic coordinate data resulting 
# from the CCDC's data processing and validation procedures.
#
#######################################################################

data_FEXVUA
_symmetry_cell_setting           triclinic
_symmetry_space_group_name_H-M   'P -1'
_symmetry_Int_Tables_number      2
_space_group_name_Hall           '-P 1'
loop_
_symmetry_equiv_pos_site_id
_symmetry_equiv_pos_as_xyz
1 x,y,z
2 -x,-y,-z
_cell_length_a                   11.4125(11)
_cell_length_b                   12.1127(12)
_cell_length_c                   12.5140(12)
_cell_angle_alpha                114.864(2)
_cell_angle_beta                 103.576(2)
_cell_angle_gamma                93.308(2)
_cell_volume                     1501.51
loop_
_atom_site_label
_atom_site_type_symbol
_atom_site_fract_x
_atom_site_fract_y
_atom_site_fract_z
Mo1 Mo 0.30460(3) 0.52747(3) -0.06146(3)
Mo2 Mo 0.00795(3) 0.37877(3) -0.28139(3)
Mo3 Mo 0.25587(3) 0.61702(3) 0.21862(3)
Mo4 Mo -0.00077(3) 0.65556(3) 0.01344(3)
Cu1 Cu 0.44522(4) 0.82654(4) 0.17017(4)
Cu2 Cu 0.54224(4) 1.14179(4) 0.31673(4)
O1 O 0.3865(2) 0.6742(2) -0.0099(2)
O2 O 0.3904(3) 0.4262(3) -0.1333(3)
O3 O 0.1609(2) 0.4987(3) -0.1802(2)
O4 O -0.0481(2) 0.4641(2) -0.3542(2)
O5 O 0.0582(3) 0.2639(3) -0.3861(2)
O6 O -0.0685(2) 0.5058(2) -0.1196(2)
O7 O -0.1485(2) 0.2895(2) -0.3002(2)
O8 O 0.3046(2) 0.5434(3) 0.3052(2)
O9 O 0.2935(2) 0.4972(2) 0.0684(2)
O10 O 0.3760(2) 0.7338(2) 0.2611(2)
O11 O 0.0662(2) 0.3203(2) -0.1348(2)
O12 O 0.1604(2) 0.6694(2) 0.0649(2)
O13 O -0.0302(2) 0.7702(2) -0.0289(2)
N1 N 0.3139(3) 0.9303(3) 0.1695(3)
N2 N 0.5083(3) 1.0587(3) 0.1234(3)
N3 N 0.2959(3) 0.8043(3) -0.2984(3)
N4 N 0.6262(3) 0.8720(3) 0.2409(3)
N5 N 0.5282(3) 1.0580(3) 0.4336(2)
N6 N 0.5721(3) 0.7626(3) 0.5931(3)
C1 C 0.2350(3) 0.9428(3) 0.2374(3)
C2 C 0.1468(3) 1.0164(4) 0.2385(3)
C3 C 0.1355(4) 1.0774(4) 0.1654(4)
C4 C 0.2163(4) 1.0651(4) 0.0958(4)
C5 C 0.3035(3) 0.9919(3) 0.1006(3)
C6 C 0.4034(3) 0.9881(3) 0.0412(3)
C7 C 0.3935(3) 0.9258(3) -0.0846(3)
C8 C 0.2854(3) 0.8405(3) -0.1832(3)
C9 C 0.1821(3) 0.7962(3) -0.1621(3)
C10 C 0.0857(4) 0.7177(3) -0.2610(3)
C11 C 0.0941(4) 0.6845(4) -0.3779(3)
C12 C 0.2006(3) 0.7280(4) -0.3931(3)
C13 C 0.7070(4) 0.8581(3) 0.1737(4)
C14 C 0.8291(4) 0.9112(4) 0.2265(4)
C15 C 0.8740(4) 0.9796(4) 0.3526(4)
C16 C 0.7932(3) 0.9908(4) 0.4224(4)
C17 C 0.6727(3) 0.9365(3) 0.3638(3)
C18 C 0.5804(3) 0.9621(3) 0.4344(3)
C19 C 0.5517(3) 0.9005(3) 0.5009(3)
C20 C 0.5991(3) 0.7908(3) 0.5059(3)
C21 C 0.6628(4) 0.7196(4) 0.4285(3)
C22 C 0.7055(4) 0.6203(4) 0.4430(4)
C23 C 0.6815(4) 0.5945(4) 0.5341(4)
C24 C 0.6137(4) 0.6669(4) 0.6066(4)
H1 H 0.240(4) 0.897(4) 0.283(4)
H2 H 0.097(5) 1.025(5) 0.291(5)
H3 H 0.077(4) 1.123(4) 0.167(3)
H4 H 0.209(4) 1.102(4) 0.051(4)
H5 H 0.175(4) 0.819(4) -0.081(4)
H6 H 0.021(4) 0.692(4) -0.249(4)
H7 H 0.036(5) 0.635(5) -0.440(4)
H8 H 0.208(3) 0.706(4) -0.469(4)
H9 H 0.675(4) 0.811(4) 0.097(5)
H10 H 0.875(4) 0.895(4) 0.179(4)
H11 H 0.955(4) 1.020(4) 0.387(4)
H12 H 0.824(5) 1.039(5) 0.505(5)
H13 H 0.676(4) 0.736(4) 0.369(4)
H14 H 0.746(5) 0.565(5) 0.389(5)
H15 H 0.711(4) 0.532(4) 0.545(4)
H16 H 0.593(4) 0.655(4) 0.659(5)
Mo1A Mo -0.30460(3) 0.47253(3) 0.06146(3)
Mo2A Mo -0.00795(3) 0.62123(3) 0.28139(3)
Mo3A Mo -0.25587(3) 0.38298(3) -0.21862(3)
Mo4A Mo 0.00077(3) 0.34444(3) -0.01344(3)
Cu1A Cu 0.55478(4) 1.17346(4) -0.17017(4)
Cu1A_2 Cu 0.55478(4) 1.17346(4) 0.82983(4)
Cu1A_3 Cu -0.44522(4) 0.17346(4) -0.17017(4)
Cu2A Cu 0.45776(4) 0.85821(4) -0.31673(4)
Cu2A_2 Cu 0.45776(4) 0.85821(4) 0.68327(4)
O1A O 0.6135(2) 1.3258(2) 0.0099(2)
O1A_2 O -0.3865(2) 0.3258(2) 0.0099(2)
O2A O -0.3904(3) 0.5738(3) 0.1333(3)
O3A O -0.1609(2) 0.5013(3) 0.1802(2)
O4A O 0.0481(2) 0.5359(2) 0.3542(2)
O5A O -0.0582(3) 0.7361(3) 0.3861(2)
O6A O 0.0685(2) 0.4942(2) 0.1196(2)
O7A O 0.1485(2) 0.7105(2) 0.3002(2)
O8A O -0.3046(2) 0.4566(3) -0.3052(2)
O9A O -0.2935(2) 0.5028(2) -0.0684(2)
O10A O -0.3760(2) 0.2662(2) -0.2611(2)
O10A_2 O 0.6240(2) 1.2662(2) -0.2611(2)
O11A O -0.0662(2) 0.6797(2) 0.1348(2)
O12A O -0.1604(2) 0.3306(2) -0.0649(2)
O13A O 0.0302(2) 0.2298(2) 0.0289(2)
N1A N 0.6861(3) 1.0697(3) -0.1695(3)
N2A N 0.4917(3) 0.9413(3) -0.1234(3)
N3A N 0.7041(3) 1.1957(3) 0.2984(3)
N4A N 0.3738(3) 1.1280(3) 0.7591(3)
N4A_2 N 0.3738(3) 1.1280(3) -0.2409(3)
N5A N 0.4718(3) 0.9420(3) 0.5664(2)
N5A_2 N 0.4718(3) 0.9420(3) -0.4336(2)
N6A N 0.4279(3) 1.2374(3) 0.4069(3)
N6_2 N 0.5721(3) 0.7626(3) -0.4069(3)
C1A C 0.7650(3) 1.0572(3) -0.2374(3)
C2A C 0.8532(3) 0.9836(4) -0.2385(3)
C3A C 0.8645(4) 0.9226(4) -0.1654(4)
C4A C 0.7837(4) 0.9349(4) -0.0958(4)
C5A C 0.6965(3) 1.0081(3) -0.1006(3)
C6A C 0.5966(3) 1.0119(3) -0.0412(3)
C7A C 0.6065(3) 1.0742(3) 0.0846(3)
C8A C 0.7146(3) 1.1595(3) 0.1832(3)
C9A C 0.8179(3) 1.2038(3) 0.1621(3)
C10A C 0.9143(4) 1.2823(3) 0.2610(3)
C11A C 0.9059(4) 1.3155(4) 0.3779(3)
C12A C 0.7994(3) 1.2720(4) 0.3931(3)
C13A C 0.2930(4) 1.1419(3) 0.8263(4)
C14A C 0.1709(4) 1.0888(4) 0.7735(4)
C15A C 0.1260(4) 1.0204(4) 0.6474(4)
C16A C 0.2068(3) 1.0092(4) 0.5776(4)
C17A C 0.3273(3) 1.0635(3) 0.6362(3)
C18A C 0.4196(3) 1.0379(3) 0.5656(3)
C19A C 0.4483(3) 1.0995(3) 0.4991(3)
C20A C 0.4009(3) 1.2092(3) 0.4941(3)
C21A C 0.3372(4) 1.2804(4) 0.5715(3)
C22A C 0.2945(4) 1.3797(4) 0.5570(4)
C23A C 0.3185(4) 1.4055(4) 0.4659(4)
C24A C 0.3863(4) 1.3331(4) 0.3934(4)
H1A H 0.760(4) 1.103(4) -0.283(4)
H2A H 0.903(5) 0.975(5) -0.291(5)
H3A H 0.923(4) 0.877(4) -0.167(3)
H4A H 0.791(4) 0.898(4) -0.051(4)
H5A H 0.825(4) 1.181(4) 0.081(4)
H6A H 0.979(4) 1.308(4) 0.249(4)
H7A H 0.964(5) 1.365(5) 0.440(4)
H8A H 0.792(3) 1.294(4) 0.469(4)
H9A H 0.325(4) 1.189(4) 0.903(5)
H10A H 0.125(4) 1.105(4) 0.821(4)
H11A H 0.045(4) 0.980(4) 0.613(4)
H12A H 0.176(5) 0.961(5) 0.495(5)
H13A H 0.324(4) 1.264(4) 0.631(4)
H14A H 0.254(5) 1.435(5) 0.611(5)
H15A H 0.289(4) 1.468(4) 0.455(4)
H16A H 0.407(4) 1.345(4) 0.341(5)
O14 O 0.5762(3) 0.6871(3) 0.8736(3)
H17 H 0.512(5) 0.681(4) 0.896(4)
H18 H 0.613(8) 0.619(8) 0.878(8)
loop_
_geom_bond_atom_site_label_1
_geom_bond_atom_site_label_2
_geom_bond_site_symmetry_1
_geom_bond_site_symmetry_2
Mo1 O1 1_555 1_555
Mo2 O3 1_555 1_555
Mo3 O8 1_555 1_555
Mo4 O6 1_555 1_555
Cu1 O1 1_555 1_555
Cu2 N2 1_555 1_555
O2 Mo1 1_555 1_555
O3 Mo1 1_555 1_555
O4 Mo2 1_555 1_555
O5 Mo2 1_555 1_555
O6 Mo2 1_555 1_555
O7 Mo2 1_555 1_555
O9 Mo1 1_555 1_555
O10 Mo3 1_555 1_555
O11 Mo2 1_555 1_555
O12 Mo3 1_555 1_555
O13 Mo4 1_555 1_555
O14 H17 1_555 1_555
N1 Cu1 1_555 1_555
N2 C6 1_555 1_555
N3 C8 1_555 1_555
N4 Cu1 1_555 1_555
N5 Cu2 1_555 1_555
N6 C20 1_555 1_555
C1 N1 1_555 1_555
C2 C1 1_555 1_555
C3 C2 1_555 1_555
C4 C3 1_555 1_555
C5 N1 1_555 1_555
C6 C5 1_555 1_555
C7 C6 1_555 1_555
C8 C7 1_555 1_555
C9 C8 1_555 1_555
C10 C9 1_555 1_555
C11 C10 1_555 1_555
C12 N3 1_555 1_555
C13 N4 1_555 1_555
C14 C13 1_555 1_555
C15 C14 1_555 1_555
C16 C15 1_555 1_555
C17 N4 1_555 1_555
C18 N5 1_555 1_555
C19 C18 1_555 1_555
C20 C19 1_555 1_555
C21 C20 1_555 1_555
C22 C21 1_555 1_555
C23 C22 1_555 1_555
C24 N6 1_555 1_555
H1 C1 1_555 1_555
H2 C2 1_555 1_555
H3 C3 1_555 1_555
H4 C4 1_555 1_555
H5 C9 1_555 1_555
H6 C10 1_555 1_555
H7 C11 1_555 1_555
H8 C12 1_555 1_555
H9 C13 1_555 1_555
H10 C14 1_555 1_555
H11 C15 1_555 1_555
H12 C16 1_555 1_555
H13 C21 1_555 1_555
H14 C22 1_555 1_555
H15 C23 1_555 1_555
H16 C24 1_555 1_555
H18 O14 1_555 1_555
Mo1A O1A_2 1_555 1_555
Mo2A O3A 1_555 1_555
Mo3A O6 1_555 1_555
Mo4A O11 1_555 1_555
Cu1A O1A 1_555 1_555
Cu1A_2 N4A 1_555 1_555
Cu1A_3 O1A_2 1_555 1_555
Cu2A N3 1_555 1_555
Cu2A_2 N6 1_555 1_555
O2A Mo1A 1_555 1_555
O3A Mo1A 1_555 1_555
O4A Mo2A 1_555 1_555
O5A Mo2A 1_555 1_555
O6A Mo3 1_555 1_555
O7A Mo3 1_555 1_555
O8A Mo3A 1_555 1_555
O9A Mo1A 1_555 1_555
O10A Mo3A 1_555 1_555
O10A_2 Cu1A 1_555 1_555
O11A Mo4 1_555 1_555
O12A Mo3A 1_555 1_555
O13A Mo4A 1_555 1_555
N1A Cu1A 1_555 1_555
N2A C7 1_555 1_555
N3A Cu2 1_555 1_555
N4A C13A 1_555 1_555
N4A_2 Cu1A 1_555 1_555
N5A C19 1_555 1_555
N5A_2 Cu2A 1_555 1_555
N6A Cu2 1_555 1_555
N6_2 Cu2A 1_555 1_555
C1A N1A 1_555 1_555
C2A C1A 1_555 1_555
C3A C2A 1_555 1_555
C4A C3A 1_555 1_555
C5A N1A 1_555 1_555
C6A N2A 1_555 1_555
C7A N2 1_555 1_555
C8A N3A 1_555 1_555
C9A C8A 1_555 1_555
C10A C9A 1_555 1_555
C11A C10A 1_555 1_555
C12A N3A 1_555 1_555
C13A C14A 1_555 1_555
C14A C15A 1_555 1_555
C15A C16A 1_555 1_555
C16A C17A 1_555 1_555
C17A N4A 1_555 1_555
C18A N5A 1_555 1_555
C19A N5 1_555 1_555
C20A N6A 1_555 1_555
C21A C20A 1_555 1_555
C22A C21A 1_555 1_555
C23A C22A 1_555 1_555
C24A N6A 1_555 1_555
H1A C1A 1_555 1_555
H2A C2A 1_555 1_555
H3A C3A 1_555 1_555
H4A C4A 1_555 1_555
H5A C9A 1_555 1_555
H6A C10A 1_555 1_555
H7A C11A 1_555 1_555
H8A C12A 1_555 1_555
H9A C13A 1_555 1_555
H10A C14A 1_555 1_555
H11A C15A 1_555 1_555
H12A C16A 1_555 1_555
H13A C21A 1_555 1_555
H14A C22A 1_555 1_555
H15A C23A 1_555 1_555
H16A C24A 1_555 1_555
Mo3 O9 1_555 1_555
Mo4 O12 1_555 1_555
Cu1 O10 1_555 1_555
O7 Mo3A 1_555 1_555
C4 C5 1_555 1_555
C11 C12 1_555 1_555
C16 C17 1_555 1_555
C17 C18 1_555 1_555
C23 C24 1_555 1_555
Mo2A O6A 1_555 1_555
Mo2A O7A 1_555 1_555
Mo2A O11A 1_555 1_555
Mo3A O9A 1_555 1_555
Mo4A O6A 1_555 1_555
Mo4A O12A 1_555 1_555
Cu1A_3 O10A 1_555 1_555
Cu2A N2A 1_555 1_555
Cu2A_2 N5A 1_555 1_555
C4A C5A 1_555 1_555
C5A C6A 1_555 1_555
C6A C7A 1_555 1_555
C7A C8A 1_555 1_555
C11A C12A 1_555 1_555
C17A C18A 1_555 1_555
C18A C19A 1_555 1_555
C19A C20A 1_555 1_555
C23A C24A 1_555 1_555

#END
