
#######################################################################
#
#                 Cambridge Crystallographic Data Centre
#                                CCDC 
#
#######################################################################
#
# If this CIF has been generated from an entry in the Cambridge 
# Structural Database, then it will include bibliographic, chemical, 
# crystal, experimental, refinement or atomic coordinate data resulting 
# from the CCDC's data processing and validation procedures.
#
#######################################################################

data_FEYDAP
_symmetry_cell_setting           orthorhombic
_symmetry_space_group_name_H-M   'P 21 c n'
_symmetry_Int_Tables_number      33
_space_group_name_Hall           'P -2n 2a'
loop_
_symmetry_equiv_pos_site_id
_symmetry_equiv_pos_as_xyz
1 x,y,z
2 1/2+x,-y,-z
3 x,1/2-y,1/2+z
4 1/2+x,1/2+y,1/2-z
_cell_length_a                   8.9643(8)
_cell_length_b                   12.3703(10)
_cell_length_c                   15.6460(14)
_cell_angle_alpha                90
_cell_angle_beta                 90
_cell_angle_gamma                90
_cell_volume                     1735
loop_
_atom_site_label
_atom_site_type_symbol
_atom_site_fract_x
_atom_site_fract_y
_atom_site_fract_z
Hg1 Hg 0.81760(4) 0.19373(3) 0.71251(2)
Hg2 Hg 1.18279(3) 0.35760(3) 0.714370(19)
Cl1 Cl 0.8794(3) 0.39493(19) 0.70201(13)
Cl2 Cl 0.7483(3) 0.10774(18) 0.84376(14)
Cl3 Cl 1.1001(2) 0.14400(19) 0.69840(14)
Cl4 Cl 1.2113(3) 0.40176(18) 0.85863(14)
S1 S 0.4966(3) 0.2672(2) 0.69171(14)
N1 N 0.7473(9) 0.1552(6) 0.5773(5)
N2 N 0.2305(9) 0.3643(6) 0.5781(5)
C1 C 0.8530(10) 0.1420(7) 0.5170(6)
H1 H 0.9547 0.1494 0.5331
C2 C 0.8202(12) 0.1181(7) 0.4329(6)
H2 H 0.8972 0.1100 0.3917
C3 C 0.6723(13) 0.1063(8) 0.4105(6)
H3 H 0.6459 0.0910 0.3529
C4 C 0.5615(11) 0.1171(8) 0.4725(6)
H4 H 0.4593 0.1085 0.4578
C5 C 0.6022(10) 0.1405(7) 0.5555(6)
C6 C 0.4844(10) 0.1483(7) 0.6235(6)
H5 H 0.4905 0.0831 0.6600
H6 H 0.3854 0.1480 0.5955
C7 C 0.1178(11) 0.3628(7) 0.5220(7)
H7 H 0.0184 0.3596 0.5429
C8 C 0.1410(11) 0.3656(7) 0.4343(6)
H8 H 0.0597 0.3639 0.3954
C9 C 0.2860(12) 0.3710(8) 0.4057(6)
H9 H 0.3053 0.3726 0.3460
C10 C 0.4023(11) 0.3740(7) 0.4619(6)
H10 H 0.5021 0.3786 0.4417
C11 C 0.3727(10) 0.3703(7) 0.5496(5)
C12 C 0.4991(10) 0.3758(8) 0.6133(6)
H11 H 0.4942 0.4459 0.6437
H12 H 0.5950 0.3733 0.5819
Hg2_2 Hg 0.18279(3) 0.35760(3) 0.714370(19)
S1_2 S 1.4966(3) 0.2672(2) 0.69171(14)
N2_2 N 1.2305(9) 0.3643(6) 0.5781(5)
loop_
_geom_bond_atom_site_label_1
_geom_bond_atom_site_label_2
_geom_bond_site_symmetry_1
_geom_bond_site_symmetry_2
Hg1 Cl1 1_555 1_555
Hg2 Cl1 1_555 1_555
Cl2 Hg1 1_555 1_555
Cl3 Hg1 1_555 1_555
Cl4 Hg2 1_555 1_555
S1 Hg1 1_555 1_555
N1 Hg1 1_555 1_555
N2 C7 1_555 1_555
C1 N1 1_555 1_555
H1 C1 1_555 1_555
C2 C1 1_555 1_555
H2 C2 1_555 1_555
C3 C2 1_555 1_555
H3 C3 1_555 1_555
C4 C3 1_555 1_555
H4 C4 1_555 1_555
C5 N1 1_555 1_555
C6 S1 1_555 1_555
H5 C6 1_555 1_555
H6 C6 1_555 1_555
C7 H7 1_555 1_555
C8 C7 1_555 1_555
H8 C8 1_555 1_555
C9 C8 1_555 1_555
H9 C9 1_555 1_555
C10 C9 1_555 1_555
H10 C10 1_555 1_555
C11 N2 1_555 1_555
C12 S1 1_555 1_555
H11 C12 1_555 1_555
H12 C12 1_555 1_555
Hg2_2 S1 1_555 1_555
S1_2 Hg2 1_555 1_555
N2_2 Hg2 1_555 1_555
Hg2 Cl3 1_555 1_555
N2 Hg2_2 1_555 1_555
C4 C5 1_555 1_555
C5 C6 1_555 1_555
C10 C11 1_555 1_555
C11 C12 1_555 1_555

#END
