
#######################################################################
#
#                 Cambridge Crystallographic Data Centre
#                                CCDC 
#
#######################################################################
#
# If this CIF has been generated from an entry in the Cambridge 
# Structural Database, then it will include bibliographic, chemical, 
# crystal, experimental, refinement or atomic coordinate data resulting 
# from the CCDC's data processing and validation procedures.
#
#######################################################################

data_FEYJOJ
_symmetry_cell_setting           monoclinic
_symmetry_space_group_name_H-M   'P 21/n'
_symmetry_Int_Tables_number      14
_space_group_name_Hall           '-P 2yn'
loop_
_symmetry_equiv_pos_site_id
_symmetry_equiv_pos_as_xyz
1 x,y,z
2 1/2-x,1/2+y,1/2-z
3 -x,-y,-z
4 1/2+x,1/2-y,1/2+z
_cell_length_a                   14.279(3)
_cell_length_b                   13.006(2)
_cell_length_c                   17.515(3)
_cell_angle_alpha                90
_cell_angle_beta                 96.872(4)
_cell_angle_gamma                90
_cell_volume                     3229.39
loop_
_atom_site_label
_atom_site_type_symbol
_atom_site_fract_x
_atom_site_fract_y
_atom_site_fract_z
Co1 Co 0.00145(3) 0.93298(3) 0.22604(2)
Co2 Co -0.43054(3) 1.72838(4) -0.13121(3)
O1 O -0.0892(2) 1.0729(2) 0.27024(15)
O2 O -0.05748(18) 1.0416(2) 0.15280(15)
O3 O -0.37869(18) 1.5046(2) -0.22530(14)
O4 O -0.35551(19) 1.5922(2) -0.11409(14)
O5 O -0.06098(17) 1.16710(19) -0.16287(14)
O6 O -0.11754(19) 1.2619(2) -0.26415(14)
O7 O -0.45242(15) 1.35584(17) 0.18586(13)
O8 O -0.35775(18) 1.3359(2) 0.29363(14)
C1 C -0.2254(2) 1.3790(3) -0.17286(19)
H1 H -0.2273 1.3982 -0.2254
C2 C -0.3420(2) 1.5181(3) -0.1566(2)
C3 C -0.2775(3) 1.4335(3) -0.1247(2)
C4 C -0.2753(3) 1.4047(3) -0.0482(2)
H2 H -0.3085 1.4445 -0.0146
C5 C -0.2290(3) 1.2804(3) 0.0601(2)
C6 C -0.1705(2) 1.2970(3) -0.1447(2)
C7 C -0.2252(3) 1.3182(3) -0.0200(2)
C8 C -0.1717(3) 1.2662(3) -0.0689(2)
H3 H -0.1353 1.2084 -0.0501
C9 C -0.1647(3) 1.2087(3) 0.0934(2)
H4 H -0.1182 1.1821 0.0642
C10 C -0.0996(3) 1.0923(3) 0.2000(2)
C11 C -0.3005(2) 1.2834(3) 0.1780(2)
C12 C -0.3736(2) 1.3250(3) 0.2234(2)
C13 C -0.2334(3) 1.2148(3) 0.2118(2)
H5 H -0.2331 1.1954 0.2641
C14 C -0.2995(3) 1.3145(3) 0.1030(2)
H6 H -0.3472 1.3596 0.0801
C15 C -0.1666(3) 1.1750(3) 0.1681(2)
C16 C -0.1117(2) 1.2377(3) -0.1952(2)
O9 O -0.3170(3) 1.8175(3) -0.0849(2)
C17 C -0.2476(4) 1.8010(6) -0.0588(4)
H7 H -0.2377 1.7306 -0.0457
N1 N -0.1702(3) 1.8613(4) -0.0406(3)
C18 C -0.0825(11) 1.8176(16) 0.0034(13)
H8 H -0.0311 1.8188 -0.0290
H9 H -0.0648 1.8589 0.0496
H10 H -0.0943 1.7465 0.0182
C20 C -0.180(3) 1.972(2) -0.048(3)
H14 H -0.2446 1.9890 -0.0698
H15 H -0.1667 2.0039 0.0030
H16 H -0.1356 1.9983 -0.0816
O10 O -0.5132(2) 1.8619(2) -0.1476(2)
C22 C -0.5560(4) 1.9133(5) -0.1082(4)
H20 H -0.5484 1.8977 -0.0548
N2 N -0.6138(3) 1.9905(3) -0.1308(3)
C23 C -0.6333(5) 2.0247(5) -0.2090(4)
H21 H -0.7016 2.0241 -0.2243
H22 H -0.6091 2.0947 -0.2134
H23 H -0.6026 1.9786 -0.2426
C24 C -0.6592(6) 2.0450(7) -0.0724(5)
H24 H -0.6326 2.0214 -0.0212
H25 H -0.6483 2.1190 -0.0769
H26 H -0.7271 2.0312 -0.0799
O11 O -0.4691(2) 1.6974(2) -0.02274(15)
H27 H -0.4463 1.6372 0.0042
H28 H -0.5096 1.7433 -0.0001
Co1C Co -0.49855(3) 1.56702(3) -0.27396(2)
Co1B Co -0.00145(3) 1.06702(3) -0.22604(2)
Co1A Co -0.50145(3) 1.43298(3) 0.27396(2)
Co2A Co -0.06946(3) 1.22838(4) -0.36879(3)
Co2B Co -0.56946(3) 1.27162(4) 0.13121(3)
O3C O 0.12131(18) 0.9954(2) 0.27470(14)
O5B O 0.06098(17) 0.83290(19) 0.16287(14)
O6A O -0.38246(19) 1.7619(2) -0.23585(14)
O7A O -0.04758(15) 0.85584(17) 0.31414(13)
O7B O -0.54758(15) 1.64416(17) -0.18586(13)
O8A O -0.14225(18) 0.8359(2) 0.20637(14)
O12 O 0.0559(3) 0.3169(3) 0.42478(19)
C25 C 0.0615(3) 0.2769(4) 0.3616(3)
H29 H 0.0377 0.2090 0.3541
N3 N 0.0975(3) 0.3204(3) 0.3037(2)
C26 C 0.1013(4) 0.2684(4) 0.2309(3)
H30 H 0.0762 0.1986 0.2338
H31 H 0.1668 0.2651 0.2196
H32 H 0.0633 0.3065 0.1899
C27 C 0.1371(4) 0.4217(3) 0.3103(3)
H33 H 0.1006 0.4676 0.2737
H34 H 0.2027 0.4195 0.2991
H35 H 0.1351 0.4474 0.3627
O13 O 0.0514(3) 0.9707(3) 0.5677(2)
C19? C 0.3518(13) 0.5509(14) 0.4248(10)
H11? H 0.3375 0.4920 0.4563
H12? H 0.4192 0.5508 0.4188
H13? H 0.3148 0.5460 0.3741
C21? C 0.357(5) 0.653(3) 0.531(3)
H17? H 0.4067 0.6038 0.5481
H18? H 0.3034 0.6435 0.5601
H19? H 0.3814 0.7233 0.5383
O14? O 0.1473(3) 0.9093(3) 0.5841(2)
loop_
_geom_bond_atom_site_label_1
_geom_bond_atom_site_label_2
_geom_bond_site_symmetry_1
_geom_bond_site_symmetry_2
Co1 O2 1_555 1_555
Co2 O4 1_555 1_555
O1 C10 1_555 1_555
O2 C10 1_555 1_555
O3 C2 1_555 1_555
O4 C2 1_555 1_555
O5 C16 1_555 1_555
O6 C16 1_555 1_555
O7 C12 1_555 1_555
O8 C12 1_555 1_555
C1 H1 1_555 1_555
C2 C3 1_555 1_555
C3 C1 1_555 1_555
C4 C3 1_555 1_555
H2 C4 1_555 1_555
C5 C7 1_555 1_555
C6 C1 1_555 1_555
C7 C4 1_555 1_555
C8 C6 1_555 1_555
H3 C8 1_555 1_555
C9 C5 1_555 1_555
H4 C9 1_555 1_555
C10 C15 1_555 1_555
C11 C12 1_555 1_555
C13 C11 1_555 1_555
H5 C13 1_555 1_555
C14 C5 1_555 1_555
H6 C14 1_555 1_555
C15 C9 1_555 1_555
C16 C6 1_555 1_555
O9 Co2 1_555 1_555
C17 O9 1_555 1_555
H7 C17 1_555 1_555
N1 C17 1_555 1_555
C18 N1 1_555 1_555
H8 C18 1_555 1_555
H9 C18 1_555 1_555
H10 C18 1_555 1_555
C20 N1 1_555 1_555
H14 C20 1_555 1_555
H15 C20 1_555 1_555
H16 C20 1_555 1_555
O10 Co2 1_555 1_555
C22 O10 1_555 1_555
H20 C22 1_555 1_555
N2 C22 1_555 1_555
C23 N2 1_555 1_555
H21 C23 1_555 1_555
H22 C23 1_555 1_555
H23 C23 1_555 1_555
C24 N2 1_555 1_555
H24 C24 1_555 1_555
H25 C24 1_555 1_555
H26 C24 1_555 1_555
O11 Co2 1_555 1_555
H27 O11 1_555 1_555
H28 O11 1_555 1_555
O12 C25 1_555 1_555
C25 H29 1_555 1_555
N3 C25 1_555 1_555
C26 N3 1_555 1_555
H30 C26 1_555 1_555
H31 C26 1_555 1_555
H32 C26 1_555 1_555
C27 N3 1_555 1_555
H33 C27 1_555 1_555
H34 C27 1_555 1_555
H35 C27 1_555 1_555
Co1C O3 1_555 1_555
Co1B O5 1_555 1_555
Co1A O7 1_555 1_555
Co2A O6 1_555 1_555
Co2B O7 1_555 1_555
O3C Co1 1_555 1_555
O5B Co1 1_555 1_555
O6A Co2 1_555 1_555
O7A Co1 1_555 1_555
O7B Co2 1_555 1_555
O8A Co1 1_555 1_555
O8 Co1A 1_555 1_555
C7 C8 1_555 1_555
C11 C14 1_555 1_555
C13 C15 1_555 1_555
Co1C O7B 1_555 1_555

#END
