
#######################################################################
#
#                 Cambridge Crystallographic Data Centre
#                                CCDC 
#
#######################################################################
#
# If this CIF has been generated from an entry in the Cambridge 
# Structural Database, then it will include bibliographic, chemical, 
# crystal, experimental, refinement or atomic coordinate data resulting 
# from the CCDC's data processing and validation procedures.
#
#######################################################################

data_FEYKUQ
_symmetry_cell_setting           monoclinic
_symmetry_space_group_name_H-M   'P 21/n'
_symmetry_Int_Tables_number      14
_space_group_name_Hall           '-P 2yn'
loop_
_symmetry_equiv_pos_site_id
_symmetry_equiv_pos_as_xyz
1 x,y,z
2 1/2-x,1/2+y,1/2-z
3 -x,-y,-z
4 1/2+x,1/2-y,1/2+z
_cell_length_a                   10.644(3)
_cell_length_b                   23.889(5)
_cell_length_c                   21.917(5)
_cell_angle_alpha                90
_cell_angle_beta                 90.65(2)
_cell_angle_gamma                90
_cell_volume                     5572.58
loop_
_atom_site_label
_atom_site_type_symbol
_atom_site_fract_x
_atom_site_fract_y
_atom_site_fract_z
La1 La -0.06090(3) -0.942850(11) -0.209100(14)
O1 O -0.3671(3) -0.84185(15) -0.41078(18)
O2 O -0.2069(4) -0.95206(17) -0.29371(19)
O3 O -0.2617(3) -0.68865(14) -0.33423(19)
O4 O -0.3755(4) -0.52990(16) -0.33453(19)
O5 O -0.0038(4) -0.63629(17) -0.52510(18)
O6 O 0.2599(4) -0.58982(17) -0.65373(18)
O7 O 0.1541(4) -0.99015(19) -0.2044(2)
O8 O 0.0322(4) -1.01683(17) -0.2791(2)
O9 O 0.2188(5) -1.0526(2) -0.2705(3)
O10 O -0.0877(4) -0.84270(16) -0.2528(2)
O11 O 0.0671(4) -0.89118(17) -0.28674(19)
O12 O 0.0550(4) -0.80231(19) -0.3068(2)
O13 O 0.0252(5) -0.9369(2) -0.0984(2)
O14 O 0.0843(6) -0.8720(2) -0.1570(3)
O15 O 0.1471(7) -0.8725(2) -0.0620(3)
N1 N -0.2283(4) -0.7330(2) -0.4541(2)
N2 N -0.2174(5) -0.9350(2) -0.3939(3)
H1 H -0.2615 -0.9240 -0.4248
N3 N -0.3922(4) -0.60698(19) -0.3922(2)
H2 H -0.3577 -0.6378 -0.4035
N4 N 0.1126(5) -0.6510(2) -0.6294(2)
H3 H 0.0587 -0.6620 -0.6030
N5 N 0.1378(5) -1.0207(2) -0.2515(3)
N6 N 0.0123(5) -0.8442(2) -0.2828(2)
N7 N 0.0862(6) -0.8934(3) -0.1044(3)
C1 C -0.3104(6) -0.7739(3) -0.4858(3)
H4 H -0.3468 -0.7562 -0.5217
H5 H -0.2592 -0.8049 -0.4995
C2 C -0.4149(6) -0.7966(3) -0.4474(3)
H6 H -0.4829 -0.8099 -0.4734
H7 H -0.4474 -0.7673 -0.4213
C3 C -0.4427(5) -0.8650(2) -0.3676(3)
C4 C -0.5627(6) -0.8464(3) -0.3579(3)
H8 H -0.5960 -0.8177 -0.3817
C5 C -0.6343(6) -0.8705(3) -0.3124(4)
H9 H -0.7153 -0.8575 -0.3057
C6 C -0.5871(6) -0.9135(4) -0.2770(4)
H10 H -0.6353 -0.9299 -0.2466
C7 C -0.4681(6) -0.9312(3) -0.2877(3)
H11 H -0.4359 -0.9602 -0.2639
C8 C -0.3917(5) -0.9083(2) -0.3326(3)
C9 C -0.2648(5) -0.9323(2) -0.3388(3)
C10 C -0.0895(11) -0.9567(6) -0.4032(6)
H12 H -0.0400 -0.9516 -0.3662
H13 H -0.0935 -0.9965 -0.4119
C11 C -0.0268(10) -0.9268(7) -0.4556(6)
C12 C 0.0710(15) -0.8893(8) -0.4453(7)
H14 H 0.1005 -0.8845 -0.4055
C13 C 0.1268(18) -0.8585(9) -0.4916(7)
H15 H 0.1998 -0.8378 -0.4856
C14 C 0.0647(18) -0.8614(7) -0.5476(8)
H16 H 0.0914 -0.8369 -0.5778
C15 C -0.0334(14) -0.8973(8) -0.5630(6)
H17 H -0.0654 -0.9006 -0.6025
C16 C -0.0794(11) -0.9277(8) -0.5140(5)
H18 H -0.1498 -0.9500 -0.5206
C24 C -0.1617(5) -0.7561(2) -0.4016(3)
H26 H -0.1510 -0.7961 -0.4076
H27 H -0.0788 -0.7394 -0.3990
C25 C -0.2287(5) -0.7464(2) -0.3425(3)
H28 H -0.1751 -0.7583 -0.3089
H29 H -0.3044 -0.7690 -0.3419
C26 C -0.1719(5) -0.6499(2) -0.3223(3)
C27 C -0.0499(6) -0.6624(2) -0.3027(3)
H30 H -0.0257 -0.6996 -0.2980
C28 C 0.0354(6) -0.6200(3) -0.2900(3)
H31 H 0.1167 -0.6291 -0.2775
C29 C 0.0014(6) -0.5648(3) -0.2959(3)
H32 H 0.0584 -0.5364 -0.2869
C30 C -0.1203(5) -0.5522(3) -0.3156(3)
H33 H -0.1440 -0.5149 -0.3199
C31 C -0.2064(5) -0.5936(2) -0.3288(2)
C32 C -0.3320(5) -0.5760(2) -0.3517(3)
C33 C -0.5138(6) -0.5923(3) -0.4191(3)
H34 H -0.5502 -0.5616 -0.3965
H35 H -0.5021 -0.5800 -0.4609
C34 C -0.6019(5) -0.6414(2) -0.4184(3)
C35 C -0.6394(9) -0.6631(3) -0.3646(4)
H36 H -0.6068 -0.6486 -0.3283
C36 C -0.7248(9) -0.7062(4) -0.3627(5)
H37 H -0.7514 -0.7194 -0.3251
C37 C -0.7695(7) -0.7291(3) -0.4129(6)
H38 H -0.8264 -0.7586 -0.4106
C38 C -0.7332(9) -0.7099(3) -0.4679(5)
H39 H -0.7654 -0.7259 -0.5035
C39 C -0.6450(7) -0.6650(3) -0.4711(4)
H40 H -0.6175 -0.6521 -0.5087
C40 C -0.1410(6) -0.7099(3) -0.5000(3)
H41 H -0.0732 -0.7362 -0.5068
H42 H -0.1855 -0.7043 -0.5384
C41 C -0.0877(6) -0.6548(3) -0.4781(3)
H43 H -0.1543 -0.6277 -0.4721
H44 H -0.0425 -0.6598 -0.4398
C42 C 0.0740(5) -0.5921(2) -0.5135(3)
C43 C 0.0705(7) -0.5620(3) -0.4583(3)
H45 H 0.0119 -0.5716 -0.4290
C44 C 0.1532(7) -0.5179(3) -0.4469(3)
H46 H 0.1500 -0.4985 -0.4101
C45 C 0.2399(6) -0.5032(3) -0.4904(3)
H47 H 0.2949 -0.4736 -0.4835
C46 C 0.2440(6) -0.5329(2) -0.5442(3)
H48 H 0.3027 -0.5227 -0.5732
C47 C 0.1638(5) -0.5774(2) -0.5569(3)
C48 C 0.1808(5) -0.6069(2) -0.6159(3)
C49 C 0.1215(8) -0.6834(3) -0.6870(3)
H49 H 0.2031 -0.7012 -0.6892
H50 H 0.1122 -0.6584 -0.7217
C50 C 0.0208(10) -0.7266(3) -0.6887(3)
C51 C 0.0541(12) -0.7814(4) -0.7016(4)
H51 H 0.1372 -0.7908 -0.7094
C52 C -0.0400(16) -0.8222(5) -0.7027(5)
H52 H -0.0192 -0.8591 -0.7118
C53 C -0.1618(16) -0.8089(6) -0.6906(6)
H53 H -0.2221 -0.8371 -0.6903
C54 C -0.1980(12) -0.7529(6) -0.6785(5)
H54 H -0.2815 -0.7437 -0.6716
C55 C -0.1055(11) -0.7126(4) -0.6772(4)
H55 H -0.1266 -0.6756 -0.6687
La1A La -0.43910(3) -0.442850(11) -0.290900(14)
La1C La 0.43910(3) -0.557150(11) -0.709100(14)
O4A O -0.1245(4) -1.02990(16) -0.16547(19)
O6C O -0.2401(4) -0.91018(17) -0.15373(18)
O16 O -0.3590(15) 0.8309(7) 0.6500(7)
O17 O -0.309(2) 0.9110(9) 0.6491(9)
O18 O -0.6042(17) 0.9428(7) 0.5158(8)
O20 O -0.392(3) 0.7415(12) 0.6111(13)
O22 O -0.506(4) 0.9521(16) 0.5989(19)
O25 O -0.646(5) 1.003(2) 0.571(2)
C17? C -0.8925(13) 0.9666(7) 0.4190(9)
H19? H -0.9414 0.9834 0.3862
H20? H -0.8637 0.9961 0.4462
C18? C -0.9710(9) 0.9246(7) 0.4534(6)
C19? C -1.0958(9) 0.9145(9) 0.4378(6)
H21? H -1.1274 0.9300 0.4018
C20? C -1.1759(15) 0.8825(10) 0.4734(8)
H22? H -1.2611 0.8787 0.4646
C21? C -1.1184(17) 0.8565(9) 0.5230(10)
H23? H -1.1668 0.8311 0.5447
C22? C -0.9958(16) 0.8646(9) 0.5436(8)
H24? H -0.9646 0.8493 0.5797
C23? C -0.9240(12) 0.8976(8) 0.5051(6)
H25? H -0.8392 0.9020 0.5145
O19? O -0.448(2) 0.7732(11) 0.6402(12)
O21? O -0.421(4) 0.8911(18) 0.6146(19)
O23? O -0.566(5) 0.994(2) 0.546(3)
O24? O -0.472(4) 0.8644(17) 0.5953(17)
O26? O -0.632(7) 0.962(3) 0.593(3)
O27? O -0.536(6) 0.988(3) 0.491(3)
loop_
_geom_bond_atom_site_label_1
_geom_bond_atom_site_label_2
_geom_bond_site_symmetry_1
_geom_bond_site_symmetry_2
La1 O2 1_555 1_555
O1 C2 1_555 1_555
O2 C9 1_555 1_555
O3 C25 1_555 1_555
O4 C32 1_555 1_555
O5 C41 1_555 1_555
O6 C48 1_555 1_555
O7 La1 1_555 1_555
O8 La1 1_555 1_555
O9 N5 1_555 1_555
O10 La1 1_555 1_555
O11 La1 1_555 1_555
O12 N6 1_555 1_555
O13 La1 1_555 1_555
O14 La1 1_555 1_555
O15 N7 1_555 1_555
N1 C1 1_555 1_555
N2 H1 1_555 1_555
N3 H2 1_555 1_555
N4 H3 1_555 1_555
N5 O7 1_555 1_555
N6 O10 1_555 1_555
N7 O13 1_555 1_555
C1 H4 1_555 1_555
H5 C1 1_555 1_555
C2 C1 1_555 1_555
H6 C2 1_555 1_555
H7 C2 1_555 1_555
C3 O1 1_555 1_555
C4 C3 1_555 1_555
H8 C4 1_555 1_555
C5 C4 1_555 1_555
H9 C5 1_555 1_555
C6 C5 1_555 1_555
H10 C6 1_555 1_555
C7 C6 1_555 1_555
H11 C7 1_555 1_555
C8 C3 1_555 1_555
C9 N2 1_555 1_555
C10 N2 1_555 1_555
H12 C10 1_555 1_555
H13 C10 1_555 1_555
C11 C10 1_555 1_555
C12 C11 1_555 1_555
H14 C12 1_555 1_555
C13 C12 1_555 1_555
H15 C13 1_555 1_555
C14 C13 1_555 1_555
H16 C14 1_555 1_555
C15 C14 1_555 1_555
H17 C15 1_555 1_555
C16 C11 1_555 1_555
H18 C16 1_555 1_555
C24 N1 1_555 1_555
H26 C24 1_555 1_555
H27 C24 1_555 1_555
C25 C24 1_555 1_555
H28 C25 1_555 1_555
H29 C25 1_555 1_555
C26 O3 1_555 1_555
C27 C26 1_555 1_555
H30 C27 1_555 1_555
C28 C27 1_555 1_555
H31 C28 1_555 1_555
C29 C28 1_555 1_555
H32 C29 1_555 1_555
C30 C29 1_555 1_555
H33 C30 1_555 1_555
C31 C26 1_555 1_555
C32 N3 1_555 1_555
C33 N3 1_555 1_555
H34 C33 1_555 1_555
H35 C33 1_555 1_555
C34 C33 1_555 1_555
C35 C34 1_555 1_555
H36 C35 1_555 1_555
C36 C35 1_555 1_555
H37 C36 1_555 1_555
C37 C36 1_555 1_555
H38 C37 1_555 1_555
C38 C37 1_555 1_555
H39 C38 1_555 1_555
C39 C34 1_555 1_555
H40 C39 1_555 1_555
C40 N1 1_555 1_555
H41 C40 1_555 1_555
H42 C40 1_555 1_555
C41 C40 1_555 1_555
H43 C41 1_555 1_555
H44 C41 1_555 1_555
C42 O5 1_555 1_555
C43 C42 1_555 1_555
H45 C43 1_555 1_555
C44 C43 1_555 1_555
H46 C44 1_555 1_555
C45 C44 1_555 1_555
H47 C45 1_555 1_555
C46 C45 1_555 1_555
H48 C46 1_555 1_555
C47 C42 1_555 1_555
C48 N4 1_555 1_555
C49 N4 1_555 1_555
H49 C49 1_555 1_555
H50 C49 1_555 1_555
C50 C49 1_555 1_555
C51 C50 1_555 1_555
H51 C51 1_555 1_555
C52 C51 1_555 1_555
H52 C52 1_555 1_555
C53 C52 1_555 1_555
H53 C53 1_555 1_555
C54 C53 1_555 1_555
H54 C54 1_555 1_555
C55 C50 1_555 1_555
H55 C55 1_555 1_555
La1A O4 1_555 1_555
La1C O6 1_555 1_555
O4A La1 1_555 1_555
O6C La1 1_555 1_555
O8 N5 1_555 1_555
O11 N6 1_555 1_555
O14 N7 1_555 1_555
C7 C8 1_555 1_555
C8 C9 1_555 1_555
C15 C16 1_555 1_555
C30 C31 1_555 1_555
C31 C32 1_555 1_555
C38 C39 1_555 1_555
C46 C47 1_555 1_555
C47 C48 1_555 1_555
C54 C55 1_555 1_555

#END
