
#######################################################################
#
#                 Cambridge Crystallographic Data Centre
#                                CCDC 
#
#######################################################################
#
# If this CIF has been generated from an entry in the Cambridge 
# Structural Database, then it will include bibliographic, chemical, 
# crystal, experimental, refinement or atomic coordinate data resulting 
# from the CCDC's data processing and validation procedures.
#
#######################################################################

data_FEYPIJ
_symmetry_cell_setting           triclinic
_symmetry_space_group_name_H-M   'P -1'
_symmetry_Int_Tables_number      2
_space_group_name_Hall           '-P 1'
loop_
_symmetry_equiv_pos_site_id
_symmetry_equiv_pos_as_xyz
1 x,y,z
2 -x,-y,-z
_cell_length_a                   7.960(6)
_cell_length_b                   8.294(6)
_cell_length_c                   12.598(10)
_cell_angle_alpha                97.131(15)
_cell_angle_beta                 93.498(14)
_cell_angle_gamma                108.003(15)
_cell_volume                     780.519
loop_
_atom_site_label
_atom_site_type_symbol
_atom_site_fract_x
_atom_site_fract_y
_atom_site_fract_z
Ag1 Ag 0.5000 0.5000 0.0000
Ag2 Ag 0.0000 0.5000 0.0000
S1 S 0.2708(3) 0.5133(3) -0.20619(17)
O1 O 0.0992(8) 0.5350(8) -0.2233(5)
O2 O 0.4173(7) 0.6707(7) -0.1739(5)
N1 N -0.0137(9) 0.2539(10) -0.0791(6)
N2 N 0.2765(8) 0.3922(9) -0.1183(5)
C1 C -0.1555(12) 0.1138(14) -0.0789(8)
H1 H -0.2557 0.1259 -0.0490
C2 C -0.1551(13) -0.0454(13) -0.1218(7)
H2 H -0.2565 -0.1398 -0.1247
C3 C -0.0045(14) -0.0657(13) -0.1606(8)
H3 H -0.0007 -0.1745 -0.1861
C4 C 0.1435(12) 0.0790(12) -0.1614(7)
C5 C 0.1347(10) 0.2396(11) -0.1208(6)
C6 C 0.3121(14) 0.0575(15) -0.2008(10)
H4 H 0.3041 0.0491 -0.2777
H5 H 0.3277 -0.0449 -0.1801
H6 H 0.4117 0.1547 -0.1695
C7 C 0.3136(9) 0.4060(11) -0.3287(6)
C8 C 0.1738(10) 0.3119(12) -0.4116(7)
C9 C 0.2163(11) 0.2263(12) -0.4992(7)
H7 H 0.1254 0.1673 -0.5533
C10 C -0.0181(12) 0.3044(16) -0.4091(9)
H8 H -0.0889 0.2254 -0.4695
H9 H -0.0275 0.4163 -0.4126
H10 H -0.0598 0.2666 -0.3436
C11 C 0.4272(13) 0.1223(14) -0.6102(7)
H11 H 0.3226 0.0307 -0.6417
H12 H 0.5182 0.0757 -0.5890
H13 H 0.4684 0.1976 -0.6619
C12 C 0.3842(11) 0.2203(12) -0.5139(7)
C13 C 0.5170(11) 0.3141(12) -0.4337(7)
H14 H 0.6326 0.3158 -0.4426
C14 C 0.4884(10) 0.4055(11) -0.3410(7)
C15 C 0.6497(11) 0.4937(14) -0.2570(8)
H15 H 0.7411 0.4428 -0.2699
H16 H 0.6147 0.4798 -0.1862
H17 H 0.6940 0.6137 -0.2624
Ag2_2 Ag 1.0000 0.5000 0.0000
S1A S 0.7292(3) 0.4867(3) 0.20619(17)
O1A O 0.9008(8) 0.4650(8) 0.2233(5)
O2A O 0.5827(7) 0.3293(7) 0.1739(5)
N1A N 0.0137(9) 0.7461(10) 0.0791(6)
N1A_2 N 1.0137(9) 0.7461(10) 0.0791(6)
N2A N 0.7235(8) 0.6078(9) 0.1183(5)
C1A C 1.1555(12) 0.8862(14) 0.0789(8)
H1A H 1.2557 0.8741 0.0490
C2A C 1.1551(13) 1.0454(13) 0.1218(7)
H2A H 1.2565 1.1398 0.1247
C3A C 1.0045(14) 1.0657(13) 0.1606(8)
H3A H 1.0007 1.1745 0.1861
C4A C 0.8565(12) 0.9210(12) 0.1614(7)
C5A C 0.8653(10) 0.7604(11) 0.1208(6)
C6A C 0.6879(14) 0.9425(15) 0.2008(10)
H4A H 0.6959 0.9509 0.2777
H5A H 0.6723 1.0449 0.1801
H6A H 0.5883 0.8453 0.1695
C7A C 0.6864(9) 0.5940(11) 0.3287(6)
C8A C 0.8262(10) 0.6881(12) 0.4116(7)
C9A C 0.7837(11) 0.7737(12) 0.4992(7)
H7A H 0.8746 0.8327 0.5533
C10A C 1.0181(12) 0.6956(16) 0.4091(9)
H8A H 1.0889 0.7746 0.4695
H9A H 1.0275 0.5837 0.4126
H10A H 1.0598 0.7334 0.3436
C11A C 0.5728(13) 0.8777(14) 0.6102(7)
H11A H 0.6774 0.9693 0.6417
H12A H 0.4818 0.9243 0.5890
H13A H 0.5316 0.8024 0.6619
C12A C 0.6158(11) 0.7797(12) 0.5139(7)
C13A C 0.4830(11) 0.6859(12) 0.4337(7)
H14A H 0.3674 0.6842 0.4426
C14A C 0.5116(10) 0.5945(11) 0.3410(7)
C15A C 0.3503(11) 0.5063(14) 0.2570(8)
H15A H 0.2589 0.5572 0.2699
H16A H 0.3853 0.5202 0.1862
H17A H 0.3060 0.3863 0.2624
loop_
_geom_bond_atom_site_label_1
_geom_bond_atom_site_label_2
_geom_bond_site_symmetry_1
_geom_bond_site_symmetry_2
Ag1 N2 1_555 1_555
Ag2 N1 1_555 1_555
S1 O1 1_555 1_555
O2 S1 1_555 1_555
N1 C1 1_555 1_555
N2 S1 1_555 1_555
C1 H1 1_555 1_555
C2 C1 1_555 1_555
H2 C2 1_555 1_555
C3 C2 1_555 1_555
H3 C3 1_555 1_555
C4 C3 1_555 1_555
C5 N1 1_555 1_555
C6 C4 1_555 1_555
H4 C6 1_555 1_555
H5 C6 1_555 1_555
H6 C6 1_555 1_555
C7 S1 1_555 1_555
C8 C7 1_555 1_555
C9 C8 1_555 1_555
H7 C9 1_555 1_555
C10 C8 1_555 1_555
H8 C10 1_555 1_555
H9 C10 1_555 1_555
H10 C10 1_555 1_555
C11 H11 1_555 1_555
H12 C11 1_555 1_555
H13 C11 1_555 1_555
C12 C9 1_555 1_555
C13 C12 1_555 1_555
H14 C13 1_555 1_555
C14 C7 1_555 1_555
C15 C14 1_555 1_555
H15 C15 1_555 1_555
H16 C15 1_555 1_555
H17 C15 1_555 1_555
Ag2_2 N1A_2 1_555 1_555
S1A O1A 1_555 1_555
O2A S1A 1_555 1_555
N1A Ag2 1_555 1_555
N1A_2 C1A 1_555 1_555
N2A Ag1 1_555 1_555
C1A H1A 1_555 1_555
C2A C1A 1_555 1_555
H2A C2A 1_555 1_555
C3A C2A 1_555 1_555
H3A C3A 1_555 1_555
C4A C3A 1_555 1_555
C5A N1A_2 1_555 1_555
C6A C4A 1_555 1_555
H4A C6A 1_555 1_555
H5A C6A 1_555 1_555
H6A C6A 1_555 1_555
C7A S1A 1_555 1_555
C8A C7A 1_555 1_555
C9A C8A 1_555 1_555
H7A C9A 1_555 1_555
C10A C8A 1_555 1_555
H8A C10A 1_555 1_555
H9A C10A 1_555 1_555
H10A C10A 1_555 1_555
C11A H11A 1_555 1_555
H12A C11A 1_555 1_555
H13A C11A 1_555 1_555
C12A C9A 1_555 1_555
C13A C12A 1_555 1_555
H14A C13A 1_555 1_555
C14A C7A 1_555 1_555
C15A C14A 1_555 1_555
H15A C15A 1_555 1_555
H16A C15A 1_555 1_555
H17A C15A 1_555 1_555
N2 C5 1_555 1_555
C4 C5 1_555 1_555
C11 C12 1_555 1_555
C13 C14 1_555 1_555
S1A N2A 1_555 1_555
N2A C5A 1_555 1_555
C4A C5A 1_555 1_555
C11A C12A 1_555 1_555
C13A C14A 1_555 1_555

#END
