
#######################################################################
#
#                 Cambridge Crystallographic Data Centre
#                                CCDC 
#
#######################################################################
#
# If this CIF has been generated from an entry in the Cambridge 
# Structural Database, then it will include bibliographic, chemical, 
# crystal, experimental, refinement or atomic coordinate data resulting 
# from the CCDC's data processing and validation procedures.
#
#######################################################################

data_FEYPEF
_symmetry_cell_setting           triclinic
_symmetry_space_group_name_H-M   'P -1'
_symmetry_Int_Tables_number      2
_space_group_name_Hall           '-P 1'
loop_
_symmetry_equiv_pos_site_id
_symmetry_equiv_pos_as_xyz
1 x,y,z
2 -x,-y,-z
_cell_length_a                   6.2951(6)
_cell_length_b                   8.2405(8)
_cell_length_c                   13.7554(13)
_cell_angle_alpha                95.041(2)
_cell_angle_beta                 94.465(2)
_cell_angle_gamma                102.787(2)
_cell_volume                     689.684
loop_
_atom_site_label
_atom_site_type_symbol
_atom_site_fract_x
_atom_site_fract_y
_atom_site_fract_z
Ag1 Ag 0.0000 0.5000 0.0000
Ag2 Ag 0.5000 0.5000 0.0000
S1 S 0.23762(19) 0.50385(13) 0.20555(7)
O1 O 0.0594(6) 0.3589(4) 0.1831(2)
O2 O 0.4561(6) 0.4758(4) 0.2101(2)
N1 N 0.5297(6) 0.7484(4) 0.0661(3)
N2 N 0.1998(5) 0.6316(4) 0.1282(2)
C1 C 0.6959(8) 0.8771(6) 0.0556(4)
H1 H 0.8044 0.8576 0.0169
C2 C 0.7123(9) 1.0344(6) 0.0989(4)
H2 H 0.8297 1.1212 0.0905
C3 C 0.5500(9) 1.0616(5) 0.1556(4)
H3 H 0.5569 1.1691 0.1848
C4 C 0.3760(8) 0.9320(5) 0.1703(3)
C5 C 0.3728(7) 0.7725(5) 0.1234(3)
C6 C 0.1984(10) 0.9618(6) 0.2307(4)
H4 H 0.2416 0.9554 0.2985
H5 H 0.0665 0.8782 0.2096
H6 H 0.1729 1.0707 0.2228
C7 C 0.2108(7) 0.5992(5) 0.3227(3)
C8 C 0.3934(8) 0.6785(7) 0.3832(4)
H7 H 0.5316 0.6766 0.3642
C9 C 0.3733(9) 0.7616(8) 0.4728(4)
H8 H 0.4992 0.8168 0.5127
C10 C 0.1739(9) 0.7647(7) 0.5040(3)
C11 C -0.0085(9) 0.6811(8) 0.4428(4)
H9 H -0.1465 0.6793 0.4631
C12 C 0.0068(8) 0.6001(7) 0.3526(3)
H10 H -0.1191 0.5465 0.3122
C13 C 0.1490(12) 0.8549(9) 0.6012(4)
H11 H 0.1826 0.7914 0.6532
H12 H 0.0011 0.8673 0.6022
H13 H 0.2474 0.9634 0.6100
Ag2_2 Ag -0.5000 0.5000 0.0000
S1A S -0.23762(19) 0.49615(13) -0.20555(7)
O1A O -0.0594(6) 0.6411(4) -0.1831(2)
O2A O -0.4561(6) 0.5242(4) -0.2101(2)
N1A N 0.4703(6) 0.2516(4) -0.0661(3)
N1A_2 N -0.5297(6) 0.2516(4) -0.0661(3)
N2A N -0.1998(5) 0.3684(4) -0.1282(2)
C1A C -0.6959(8) 0.1229(6) -0.0556(4)
H1A H -0.8044 0.1424 -0.0169
C2A C -0.7123(9) -0.0344(6) -0.0989(4)
H2A H -0.8297 -0.1212 -0.0905
C3A C -0.5500(9) -0.0616(5) -0.1556(4)
H3A H -0.5569 -0.1691 -0.1848
C4A C -0.3760(8) 0.0680(5) -0.1703(3)
C5A C -0.3728(7) 0.2275(5) -0.1234(3)
C6A C -0.1984(10) 0.0382(6) -0.2307(4)
H4A H -0.2416 0.0446 -0.2985
H5A H -0.0665 0.1218 -0.2096
H6A H -0.1729 -0.0707 -0.2228
C7A C -0.2108(7) 0.4008(5) -0.3227(3)
C8A C -0.3934(8) 0.3215(7) -0.3832(4)
H7A H -0.5316 0.3234 -0.3642
C9A C -0.3733(9) 0.2384(8) -0.4728(4)
H8A H -0.4992 0.1832 -0.5127
C10A C -0.1739(9) 0.2353(7) -0.5040(3)
C11A C 0.0085(9) 0.3189(8) -0.4428(4)
H9A H 0.1465 0.3207 -0.4631
C12A C -0.0068(8) 0.3999(7) -0.3526(3)
H10A H 0.1191 0.4535 -0.3122
C13A C -0.1490(12) 0.1451(9) -0.6012(4)
H11A H -0.1826 0.2086 -0.6532
H12A H -0.0011 0.1327 -0.6022
H13A H -0.2474 0.0366 -0.6100
loop_
_geom_bond_atom_site_label_1
_geom_bond_atom_site_label_2
_geom_bond_site_symmetry_1
_geom_bond_site_symmetry_2
Ag1 N2 1_555 1_555
Ag2 N1 1_555 1_555
S1 O1 1_555 1_555
O2 S1 1_555 1_555
N1 C1 1_555 1_555
N2 S1 1_555 1_555
C1 H1 1_555 1_555
C2 C1 1_555 1_555
H2 C2 1_555 1_555
C3 C2 1_555 1_555
H3 C3 1_555 1_555
C4 C3 1_555 1_555
C5 N1 1_555 1_555
C6 C4 1_555 1_555
H4 C6 1_555 1_555
H5 C6 1_555 1_555
H6 C6 1_555 1_555
C7 S1 1_555 1_555
C8 C7 1_555 1_555
H7 C8 1_555 1_555
C9 C8 1_555 1_555
H8 C9 1_555 1_555
C10 C9 1_555 1_555
C11 C10 1_555 1_555
H9 C11 1_555 1_555
C12 C7 1_555 1_555
H10 C12 1_555 1_555
C13 C10 1_555 1_555
H11 C13 1_555 1_555
H12 C13 1_555 1_555
H13 C13 1_555 1_555
Ag2_2 N1A_2 1_555 1_555
S1A O1A 1_555 1_555
O2A S1A 1_555 1_555
N1A Ag2 1_555 1_555
N1A_2 C1A 1_555 1_555
N2A Ag1 1_555 1_555
C1A H1A 1_555 1_555
C2A C1A 1_555 1_555
H2A C2A 1_555 1_555
C3A C2A 1_555 1_555
H3A C3A 1_555 1_555
C4A C3A 1_555 1_555
C5A N1A_2 1_555 1_555
C6A C4A 1_555 1_555
H4A C6A 1_555 1_555
H5A C6A 1_555 1_555
H6A C6A 1_555 1_555
C7A S1A 1_555 1_555
C8A C7A 1_555 1_555
H7A C8A 1_555 1_555
C9A C8A 1_555 1_555
H8A C9A 1_555 1_555
C10A C9A 1_555 1_555
C11A C10A 1_555 1_555
H9A C11A 1_555 1_555
C12A C7A 1_555 1_555
H10A C12A 1_555 1_555
C13A C10A 1_555 1_555
H11A C13A 1_555 1_555
H12A C13A 1_555 1_555
H13A C13A 1_555 1_555
N2 C5 1_555 1_555
C4 C5 1_555 1_555
C11 C12 1_555 1_555
S1A N2A 1_555 1_555
N2A C5A 1_555 1_555
C4A C5A 1_555 1_555
C11A C12A 1_555 1_555

#END
