
#######################################################################
#
#                 Cambridge Crystallographic Data Centre
#                                CCDC 
#
#######################################################################
#
# If this CIF has been generated from an entry in the Cambridge 
# Structural Database, then it will include bibliographic, chemical, 
# crystal, experimental, refinement or atomic coordinate data resulting 
# from the CCDC's data processing and validation procedures.
#
#######################################################################

data_FEYQAB
_symmetry_cell_setting           monoclinic
_symmetry_space_group_name_H-M   'P 21/n'
_symmetry_Int_Tables_number      14
_space_group_name_Hall           '-P 2yn'
loop_
_symmetry_equiv_pos_site_id
_symmetry_equiv_pos_as_xyz
1 x,y,z
2 1/2-x,1/2+y,1/2-z
3 -x,-y,-z
4 1/2+x,1/2-y,1/2+z
_cell_length_a                   6.4633(1)
_cell_length_b                   14.1345(2)
_cell_length_c                   21.2253(3)
_cell_angle_alpha                90
_cell_angle_beta                 97.859(1)
_cell_angle_gamma                90
_cell_volume                     1920.84
loop_
_atom_site_label
_atom_site_type_symbol
_atom_site_fract_x
_atom_site_fract_y
_atom_site_fract_z
Mn1 Mn -0.21393(6) 0.20743(2) -0.05624(2)
O1 O -0.1176(3) 0.15978(15) 0.04043(9)
O2 O -0.1796(3) 0.08424(14) -0.11242(10)
O3 O -0.5438(3) 0.18693(13) -0.04790(8)
O4 O -0.8737(3) 0.23127(13) -0.05461(8)
O5 O -0.8095(3) -0.00275(14) -0.10668(10)
O6 O -0.5151(3) -0.03007(13) -0.14737(10)
N1 N -0.2426(3) 0.35845(14) -0.02154(10)
N2 N -0.2696(3) 0.3022(2) -0.14431(10)
C1 C -0.7400(4) 0.1947(2) -0.15066(12)
C2 C -0.7856(4) 0.2742(2) -0.18792(13)
C3 C -0.7916(5) 0.2704(2) -0.25292(15)
C4 C -0.7542(6) 0.1862(3) -0.28100(14)
C5 C -0.7101(5) 0.1050(2) -0.24472(13)
C6 C -0.7055(4) 0.1085(2) -0.17929(11)
C7 C -0.7197(4) 0.2036(2) -0.07935(12)
C8 C -0.6735(4) 0.0182(2) -0.14119(12)
C9 C -0.2333(5) 0.3845(2) 0.03863(15)
C10 C -0.2369(5) 0.4784(3) 0.0579(2)
C11 C -0.2501(5) 0.5477(2) 0.0126(2)
C12 C -0.2631(5) 0.5236(2) -0.0519(2)
C13 C -0.2596(4) 0.4258(2) -0.06712(14)
C14 C -0.2722(4) 0.3966(2) -0.13194(14)
C15 C -0.2871(5) 0.4650(3) -0.1806(2)
C16 C -0.3008(6) 0.4328(4) -0.2432(2)
C17 C -0.2993(6) 0.3386(4) -0.2553(2)
C18 C -0.2821(5) 0.2750(3) -0.20396(14)
C19 C -0.2786(6) 0.5905(3) -0.1023(3)
C20 C -0.2878(6) 0.5634(3) -0.1626(3)
H1 H -0.8126(4) 0.3312(2) -0.16874(13)
H2 H -0.8208(5) 0.3244(2) -0.27748(15)
H3 H -0.7583(6) 0.1833(3) -0.32493(14)
H4 H -0.6836(5) 0.0483(2) -0.26436(13)
H5 H -0.2240(5) 0.3376(2) 0.06963(15)
H6 H -0.2304(5) 0.4938(3) 0.1007(2)
H7 H -0.2504(5) 0.6110(2) 0.0246(2)
H8 H -0.3109(6) 0.4759(4) -0.2765(2)
H9 H -0.3096(6) 0.3165(4) -0.2969(2)
H10 H -0.2794(5) 0.2105(3) -0.21259(14)
H11 H -0.2823(6) 0.6547(3) -0.0929(3)
H12 H -0.2949(6) 0.6093(3) -0.1942(3)
O4_2 O 0.1263(3) 0.23127(13) -0.05461(8)
Mn1_2 Mn -1.21393(6) 0.20743(2) -0.05624(2)
O7 O -0.3156(4) -0.1751(2) -0.07855(10)
loop_
_geom_bond_atom_site_label_1
_geom_bond_atom_site_label_2
_geom_bond_site_symmetry_1
_geom_bond_site_symmetry_2
Mn1 O1 1_555 1_555
O2 Mn1 1_555 1_555
O3 Mn1 1_555 1_555
O4 C7 1_555 1_555
O5 C8 1_555 1_555
O6 C8 1_555 1_555
N1 Mn1 1_555 1_555
N2 Mn1 1_555 1_555
C1 C2 1_555 1_555
C2 C3 1_555 1_555
C3 C4 1_555 1_555
C4 C5 1_555 1_555
C5 C6 1_555 1_555
C6 C1 1_555 1_555
C7 O3 1_555 1_555
C8 C6 1_555 1_555
C9 N1 1_555 1_555
C10 C9 1_555 1_555
C11 C10 1_555 1_555
C12 C11 1_555 1_555
C13 N1 1_555 1_555
C14 N2 1_555 1_555
C15 C14 1_555 1_555
C16 C15 1_555 1_555
C17 C16 1_555 1_555
C18 N2 1_555 1_555
C19 C12 1_555 1_555
C20 C15 1_555 1_555
H1 C2 1_555 1_555
H2 C3 1_555 1_555
H3 C4 1_555 1_555
H4 C5 1_555 1_555
H5 C9 1_555 1_555
H6 C10 1_555 1_555
H7 C11 1_555 1_555
H8 C16 1_555 1_555
H9 C17 1_555 1_555
H10 C18 1_555 1_555
H11 C19 1_555 1_555
H12 C20 1_555 1_555
O4_2 Mn1 1_555 1_555
Mn1_2 O4 1_555 1_555
C1 C7 1_555 1_555
C12 C13 1_555 1_555
C13 C14 1_555 1_555
C17 C18 1_555 1_555
C19 C20 1_555 1_555

#END
