
#######################################################################
#
#                 Cambridge Crystallographic Data Centre
#                                CCDC 
#
#######################################################################
#
# If this CIF has been generated from an entry in the Cambridge 
# Structural Database, then it will include bibliographic, chemical, 
# crystal, experimental, refinement or atomic coordinate data resulting 
# from the CCDC's data processing and validation procedures.
#
#######################################################################

data_FEYQAB01
_symmetry_cell_setting           monoclinic
_symmetry_space_group_name_H-M   'P 21/n'
_symmetry_Int_Tables_number      14
_space_group_name_Hall           '-P 2yn'
loop_
_symmetry_equiv_pos_site_id
_symmetry_equiv_pos_as_xyz
1 x,y,z
2 1/2-x,1/2+y,1/2-z
3 -x,-y,-z
4 1/2+x,1/2-y,1/2+z
_cell_length_a                   6.470(3)
_cell_length_b                   14.149(6)
_cell_length_c                   21.250(8)
_cell_angle_alpha                90
_cell_angle_beta                 97.763(5)
_cell_angle_gamma                90
_cell_volume                     1927.48
loop_
_atom_site_label
_atom_site_type_symbol
_atom_site_fract_x
_atom_site_fract_y
_atom_site_fract_z
Mn1 Mn 0.71406(4) 0.707384(16) 0.056370(11)
N1 N 0.7697(2) 0.80246(10) 0.14442(7)
N2 N 0.7434(2) 0.85822(9) 0.02163(7)
O1 O 0.6798(2) 0.58507(10) 0.11272(8)
O2 O 0.04400(18) 0.68678(9) 0.04820(5)
O3 O 0.37441(18) 0.73154(9) 0.05477(6)
O4 O 0.6190(3) 0.66021(11) -0.04004(7)
O5 O 0.0148(2) 0.46978(9) 0.14721(7)
O6 O 0.3096(2) 0.49726(9) 0.10691(7)
C1 C 0.7829(3) 0.77453(19) 0.20425(9)
C2 C 0.7988(4) 0.8391(3) 0.25528(12)
C3 C 0.8009(4) 0.9325(3) 0.24302(14)
C4 C 0.7879(3) 0.96531(17) 0.18063(12)
C5 C 0.7884(4) 1.0639(2) 0.1625(2)
C6 C 0.7777(4) 1.09103(17) 0.1021(2)
C7 C 0.7628(3) 1.02331(13) 0.05158(14)
C8 C 0.7500(3) 1.04754(17) -0.01273(16)
C9 C 0.7369(3) 0.97875(19) -0.05761(14)
C10 C 0.7331(3) 0.88466(16) -0.03879(10)
C11 C 0.7593(3) 0.92634(12) 0.06681(10)
C12 C 0.7727(3) 0.89669(14) 0.13211(9)
C13 C 0.2204(3) 0.70415(10) 0.07932(8)
C14 C 0.2409(3) 0.69437(11) 0.15080(8)
C15 C 0.2865(3) 0.77448(13) 0.18813(9)
C16 C 0.2931(3) 0.77005(17) 0.25333(10)
C17 C 0.2544(4) 0.68527(18) 0.28135(10)
C18 C 0.2099(3) 0.60454(16) 0.24492(9)
C19 C 0.2055(3) 0.60846(12) 0.17934(8)
C20 C 0.1735(3) 0.51800(11) 0.14096(8)
H2 H 0.553(4) 0.5586(17) 0.1099(11)
H3 H 0.497(5) 0.665(2) -0.0473(14)
H4 H 0.311(3) 0.8311(15) 0.1682(9)
H5 H 0.731(4) 0.8366(19) -0.0676(12)
H6 H 0.185(4) 0.5457(15) 0.2635(10)
H7 H 0.667(5) 0.605(3) -0.0593(15)
H8 H 0.782(4) 0.7059(16) 0.2108(11)
H9 H 0.722(4) 0.9977(19) -0.1023(13)
H10 H 0.330(4) 0.8203(17) 0.2799(12)
H11 H 0.808(4) 0.9786(18) 0.2741(12)
H12 H 0.258(4) 0.6772(18) 0.3275(13)
H14 H 0.773(4) 0.5497(19) 0.1191(13)
H15 H 0.752(4) 1.1121(19) -0.0233(12)
H16 H 0.778(5) 1.158(2) 0.0875(14)
H17 H 0.815(5) 0.817(2) 0.2945(15)
H18 H 0.800(5) 1.109(2) 0.1984(15)
Mn1_2 Mn -0.28594(4) 0.707384(16) 0.056370(11)
O2_2 O 1.04400(18) 0.68678(9) 0.04820(5)
O7 O -0.1859(3) 0.32427(12) 0.07848(9)
H1 H -0.121(4) 0.3681(19) 0.0987(12)
H13 H -0.141(4) 0.319(2) 0.0452(14)
loop_
_geom_bond_atom_site_label_1
_geom_bond_atom_site_label_2
_geom_bond_site_symmetry_1
_geom_bond_site_symmetry_2
Mn1 N1 1_555 1_555
N1 C1 1_555 1_555
N2 Mn1 1_555 1_555
O1 Mn1 1_555 1_555
O2 C13 1_555 1_555
O3 Mn1 1_555 1_555
O4 Mn1 1_555 1_555
O5 C20 1_555 1_555
O6 C20 1_555 1_555
O7 H1 1_555 1_555
C1 C2 1_555 1_555
C2 C3 1_555 1_555
C3 C4 1_555 1_555
C4 C5 1_555 1_555
C5 C6 1_555 1_555
C6 C7 1_555 1_555
C7 C8 1_555 1_555
C8 C9 1_555 1_555
C9 C10 1_555 1_555
C10 N2 1_555 1_555
C11 N2 1_555 1_555
C12 N1 1_555 1_555
C13 O3 1_555 1_555
C14 C13 1_555 1_555
C15 C14 1_555 1_555
C16 C15 1_555 1_555
C17 C16 1_555 1_555
C18 C17 1_555 1_555
C19 C14 1_555 1_555
C20 C19 1_555 1_555
H2 O1 1_555 1_555
H3 O4 1_555 1_555
H4 C15 1_555 1_555
H5 C10 1_555 1_555
H6 C18 1_555 1_555
H7 O4 1_555 1_555
H8 C1 1_555 1_555
H9 C9 1_555 1_555
H10 C16 1_555 1_555
H11 C3 1_555 1_555
H12 C17 1_555 1_555
H13 O7 1_555 1_555
H14 O1 1_555 1_555
H15 C8 1_555 1_555
H16 C6 1_555 1_555
H17 C2 1_555 1_555
H18 C5 1_555 1_555
Mn1_2 O2 1_555 1_555
O2_2 Mn1 1_555 1_555
C4 C12 1_555 1_555
C7 C11 1_555 1_555
C11 C12 1_555 1_555
C18 C19 1_555 1_555

#END
