
#######################################################################
#
#                 Cambridge Crystallographic Data Centre
#                                CCDC 
#
#######################################################################
#
# If this CIF has been generated from an entry in the Cambridge 
# Structural Database, then it will include bibliographic, chemical, 
# crystal, experimental, refinement or atomic coordinate data resulting 
# from the CCDC's data processing and validation procedures.
#
#######################################################################

data_FEYQEH
_symmetry_cell_setting           orthorhombic
_symmetry_space_group_name_H-M   'P b c a'
_symmetry_Int_Tables_number      61
_space_group_name_Hall           '-P 2ac 2ab'
loop_
_symmetry_equiv_pos_site_id
_symmetry_equiv_pos_as_xyz
1 x,y,z
2 1/2-x,-y,1/2+z
3 -x,1/2+y,1/2-z
4 1/2+x,1/2-y,-z
5 -x,-y,-z
6 1/2+x,y,1/2-z
7 x,1/2-y,1/2+z
8 1/2-x,1/2+y,z
_cell_length_a                   9.3030(16)
_cell_length_b                   10.3074(17)
_cell_length_c                   21.522(4)
_cell_angle_alpha                90
_cell_angle_beta                 90
_cell_angle_gamma                90
_cell_volume                     2063.74
loop_
_atom_site_label
_atom_site_type_symbol
_atom_site_fract_x
_atom_site_fract_y
_atom_site_fract_z
Zn1 Zn 0.09146(8) 0.60660(7) 0.05792(3)
N1 N 0.2366(6) 0.7391(5) 0.0321(2)
C1 C 0.2480(8) 0.8588(6) 0.0566(3)
O1 O 0.1077(6) 0.5811(5) 0.1469(2)
O2 O 0.0254(7) 0.7808(6) 0.1618(2)
C2 C 0.0747(8) 0.6769(8) 0.1815(3)
C3 C 0.1036(8) 0.6573(7) 0.2490(3)
C4 C 0.1958(10) 0.5633(9) 0.2700(4)
C5 C 0.0383(10) 0.7340(9) 0.2937(4)
C6 C 0.2180(12) 0.5488(10) 0.3324(4)
C7 C 0.0663(12) 0.7085(11) 0.3553(4)
N2 N 0.1543(9) 0.6168(8) 0.3758(3)
C8 C 0.3372(7) 0.7399(6) -0.0132(3)
N3 N 0.3671(8) 0.6387(6) -0.0510(4)
N4 N 0.3476(6) 0.9295(5) 0.0300(3)
N5 N 0.4085(6) 0.8518(5) -0.0157(2)
H1 H 0.406(8) 0.659(7) -0.086(3)
H2 H 0.320(9) 0.563(9) -0.046(4)
H3 H 0.186(7) 0.886(7) 0.095(3)
H4 H 0.234(7) 0.517(6) 0.245(3)
H5 H 0.282(10) 0.495(9) 0.349(4)
H6 H -0.019(10) 0.803(9) 0.279(4)
H7 H 0.018(8) 0.752(8) 0.381(4)
Zn1C Zn 0.59146(8) 0.89340(7) -0.05792(3)
Zn1G Zn 0.40854(8) 1.10660(7) 0.05792(3)
N4G N 0.1524(6) 0.4295(5) 0.0300(3)
N5C N -0.0915(6) 0.6482(5) 0.0157(2)
loop_
_geom_bond_atom_site_label_1
_geom_bond_atom_site_label_2
_geom_bond_site_symmetry_1
_geom_bond_site_symmetry_2
Zn1 N1 1_555 1_555
N1 C1 1_555 1_555
C1 N4 1_555 1_555
O1 Zn1 1_555 1_555
O2 C2 1_555 1_555
C2 O1 1_555 1_555
C3 C2 1_555 1_555
C4 C3 1_555 1_555
C5 C3 1_555 1_555
C6 C4 1_555 1_555
C7 C5 1_555 1_555
N2 C6 1_555 1_555
C8 N1 1_555 1_555
N3 C8 1_555 1_555
N4 N5 1_555 1_555
N5 C8 1_555 1_555
H1 N3 1_555 1_555
H2 N3 1_555 1_555
H3 C1 1_555 1_555
H4 C4 1_555 1_555
H5 C6 1_555 1_555
H6 C5 1_555 1_555
H7 C7 1_555 1_555
Zn1C N5 1_555 1_555
Zn1G N4 1_555 1_555
N4G Zn1 1_555 1_555
N5C Zn1 1_555 1_555
C7 N2 1_555 1_555

#END
