
#######################################################################
#
#                 Cambridge Crystallographic Data Centre
#                                CCDC 
#
#######################################################################
#
# If this CIF has been generated from an entry in the Cambridge 
# Structural Database, then it will include bibliographic, chemical, 
# crystal, experimental, refinement or atomic coordinate data resulting 
# from the CCDC's data processing and validation procedures.
#
#######################################################################

data_FEYQAB02
_symmetry_cell_setting           monoclinic
_symmetry_space_group_name_H-M   'P 21/c'
_symmetry_Int_Tables_number      14
_space_group_name_Hall           '-P 2ybc'
loop_
_symmetry_equiv_pos_site_id
_symmetry_equiv_pos_as_xyz
1 x,y,z
2 -x,1/2+y,1/2-z
3 -x,-y,-z
4 x,1/2-y,1/2+z
_cell_length_a                   6.4197(11)
_cell_length_b                   14.0261(14)
_cell_length_c                   21.434(3)
_cell_angle_alpha                90
_cell_angle_beta                 99.429(14)
_cell_angle_gamma                90
_cell_volume                     1903.91
loop_
_atom_site_label
_atom_site_type_symbol
_atom_site_fract_x
_atom_site_fract_y
_atom_site_fract_z
Mn1 Mn 0.33995(6) 0.29325(3) 0.05927(3)
O1 O 0.0017(3) 0.31545(13) 0.05126(13)
O2 O -0.3223(3) 0.26594(13) 0.05927(12)
O3 O 0.1343(3) 0.53568(13) 0.14638(13)
C1 C -0.0936(4) 0.3091(2) 0.1526(2)
C2 C -0.1000(4) 0.2298(2) 0.1932(2)
H1 H -0.1461 0.1713 0.1758
C3 C -0.0399(5) 0.2371(2) 0.2574(2)
H2 H -0.0484 0.1842 0.2830
C4 C 0.0334(4) 0.3233(2) 0.2842(2)
H3 H 0.0768 0.3284 0.3277
C5 C 0.0408(4) 0.4019(2) 0.2451(2)
H4 H 0.0908 0.4596 0.2630
C6 C -0.0236(4) 0.3969(2) 0.1808(2)
C7 C -0.1428(4) 0.2970(2) 0.0841(2)
C8 C -0.0327(4) 0.4854(2) 0.1403(2)
O4 O -0.2037(3) 0.50462(13) 0.10581(14)
O5 O 0.3442(3) 0.34029(13) -0.03599(13)
H5 H 0.4599 0.3340 -0.0478
H6 H 0.2800 0.3895 -0.0498
O6 O 0.4339(3) 0.41554(13) 0.11585(13)
H7 H 0.5500 0.4427 0.1183
H8 H 0.3583 0.4560 0.1294
N1 N 0.2756(3) 0.1416(2) 0.0236(2)
N2 N 0.3682(3) 0.1964(2) 0.1461(2)
C9 C 0.2273(4) 0.1163(2) -0.0360(2)
H9 H 0.2054 0.1641 -0.0665
C10 C 0.2068(4) 0.0207(2) -0.0562(2)
H10 H 0.1719 0.0054 -0.0988
C11 C 0.2402(4) -0.0493(2) -0.0107(2)
H11 H 0.2297 -0.1131 -0.0226
C12 C 0.2895(4) -0.0255(2) 0.0528(2)
C13 C 0.3277(4) -0.0942(2) 0.1027(2)
H12 H 0.3190 -0.1588 0.0929
C14 C 0.3762(5) -0.0671(2) 0.1638(3)
H13 H 0.3999 -0.1134 0.1952
C15 C 0.3918(4) 0.0320(2) 0.1813(2)
C16 C 0.4407(5) 0.0627(3) 0.2435(3)
H14 H 0.4654 0.0183 0.2761
C17 C 0.4525(4) 0.1584(3) 0.2571(2)
H15 H 0.4842 0.1804 0.2985
C18 C 0.4142(5) 0.2223(3) 0.2049(3)
H16 H 0.4227 0.2873 0.2135
C19 C 0.3061(4) 0.0725(2) 0.0686(2)
C20 C 0.3568(4) 0.1007(2) 0.1331(3)
Mn1_2 Mn -0.66005(6) 0.29325(3) 0.05927(3)
O2_2 O 0.6777(3) 0.26594(13) 0.05927(12)
O7 O 0.2623(3) 0.67530(14) 0.07229(14)
H17 H 0.1823 0.6750 0.0383
H18 H 0.2162 0.6392 0.0969
loop_
_geom_bond_atom_site_label_1
_geom_bond_atom_site_label_2
_geom_bond_site_symmetry_1
_geom_bond_site_symmetry_2
Mn1 O1 1_555 1_555
O1 C7 1_555 1_555
O2 C7 1_555 1_555
O3 C8 1_555 1_555
C1 C2 1_555 1_555
C2 H1 1_555 1_555
C3 C2 1_555 1_555
H2 C3 1_555 1_555
C4 C3 1_555 1_555
H3 C4 1_555 1_555
C5 C4 1_555 1_555
H4 C5 1_555 1_555
C6 C1 1_555 1_555
C7 C1 1_555 1_555
C8 C6 1_555 1_555
O4 C8 1_555 1_555
O5 Mn1 1_555 1_555
H5 O5 1_555 1_555
H6 O5 1_555 1_555
O6 Mn1 1_555 1_555
H7 O6 1_555 1_555
H8 O6 1_555 1_555
N1 Mn1 1_555 1_555
N2 Mn1 1_555 1_555
C9 N1 1_555 1_555
H9 C9 1_555 1_555
C10 C9 1_555 1_555
H10 C10 1_555 1_555
C11 C10 1_555 1_555
H11 C11 1_555 1_555
C12 C11 1_555 1_555
C13 C12 1_555 1_555
H12 C13 1_555 1_555
C14 C13 1_555 1_555
H13 C14 1_555 1_555
C15 C14 1_555 1_555
C16 C15 1_555 1_555
H14 C16 1_555 1_555
C17 C16 1_555 1_555
H15 C17 1_555 1_555
C18 N2 1_555 1_555
H16 C18 1_555 1_555
C19 N1 1_555 1_555
C20 N2 1_555 1_555
O7 H17 1_555 1_555
H18 O7 1_555 1_555
Mn1_2 O2 1_555 1_555
O2_2 Mn1 1_555 1_555
C5 C6 1_555 1_555
C12 C19 1_555 1_555
C15 C20 1_555 1_555
C17 C18 1_555 1_555
C19 C20 1_555 1_555

#END
