
#######################################################################
#
#                 Cambridge Crystallographic Data Centre
#                                CCDC 
#
#######################################################################
#
# If this CIF has been generated from an entry in the Cambridge 
# Structural Database, then it will include bibliographic, chemical, 
# crystal, experimental, refinement or atomic coordinate data resulting 
# from the CCDC's data processing and validation procedures.
#
#######################################################################

data_FEYQOQ
_symmetry_cell_setting           triclinic
_symmetry_space_group_name_H-M   'P -1'
_symmetry_Int_Tables_number      2
_space_group_name_Hall           '-P 1'
loop_
_symmetry_equiv_pos_site_id
_symmetry_equiv_pos_as_xyz
1 x,y,z
2 -x,-y,-z
_cell_length_a                   8.67860(10)
_cell_length_b                   10.38310(10)
_cell_length_c                   13.6693(2)
_cell_angle_alpha                101.3547(7)
_cell_angle_beta                 106.1204(7)
_cell_angle_gamma                93.9593(5)
_cell_volume                     1150.11
loop_
_atom_site_label
_atom_site_type_symbol
_atom_site_fract_x
_atom_site_fract_y
_atom_site_fract_z
Pr1 Pr 0.41800(2) 1.10693(2) 0.372514(16)
Pr2 Pr 0.26044(2) 1.006350(19) 0.021760(15)
O1 O 0.2997(4) 1.2968(3) 0.4558(2)
O2 O 0.1386(3) 1.1793(3) 0.3070(2)
O3 O 0.3879(3) 1.0527(3) 0.5442(2)
O4 O 0.3592(4) 0.9970(3) 0.6854(2)
O5 O 0.5271(6) 1.3054(4) 0.3284(3)
O6 O 0.2464(4) 0.8911(3) 0.3321(2)
O7 O 0.4284(4) 1.1668(3) 0.1800(2)
O8 O 0.2356(4) 0.9320(3) 0.1806(2)
O9 O 0.7116(3) 1.7844(3) 0.0439(2)
O10 O 0.5138(3) 1.9021(3) 0.0525(2)
O11 O 0.0340(3) 0.1280(2) 0.0507(2)
O12 O -0.1716(3) 0.2406(3) 0.0425(2)
O13 O 0.6590(4) 1.2375(3) 0.5149(3)
O14 O 0.1702(5) 0.9479(4) -0.1772(3)
H1 H 0.230(6) 0.963(5) -0.209(4)
H2 H 0.084(7) 0.912(6) -0.218(4)
C1 C 0.1670(5) 1.2767(4) 0.3850(3)
C2 C 0.0405(6) 1.3674(5) 0.3926(4)
H3 H -0.0646 1.3139 0.3690
H4 H 0.0401 1.4256 0.3450
C3 C 0.0620(6) 1.4517(5) 0.5002(4)
H5 H 0.1698 1.5010 0.5267
H6 H 0.0524 1.3945 0.5469
C4 C 0.3125(5) 1.0561(4) 0.6120(3)
C5 C 0.1686(5) 1.1289(5) 0.6038(4)
H7 H 0.2007 1.2211 0.6062
H8 H 0.1295 1.1259 0.6634
C6 C 0.0328(5) 1.0710(5) 0.5041(4)
H9 H -0.0546 1.1249 0.5007
H10 H 0.0720 1.0747 0.4447
C7 C 0.5129(5) 1.2743(4) 0.2336(3)
C8 C 0.6010(6) 1.3661(4) 0.1888(4)
H11 H 0.7109 1.3925 0.2345
H12 H 0.6064 1.3191 0.1213
C9 C 0.5212(6) 1.4879(5) 0.1757(5)
H13 H 0.5067 1.5294 0.2421
H14 H 0.4145 1.4609 0.1257
C10 C 0.6118(5) 1.5902(4) 0.1396(4)
H15 H 0.6355 1.5479 0.0765
H16 H 0.7138 1.6254 0.1929
C11 C 0.5148(5) 1.7035(4) 0.1178(3)
H17 H 0.4076 1.6662 0.0717
H18 H 0.5021 1.7510 0.1831
C12 C 0.5861(4) 1.8008(4) 0.0697(3)
C13 C 0.1896(4) 0.8605(4) 0.2335(3)
C14 C 0.0642(5) 0.7405(4) 0.1869(4)
H19 H -0.0022 0.7480 0.1188
H20 H -0.0056 0.7376 0.2311
C15 C 0.1380(5) 0.6136(4) 0.1751(4)
H21 H 0.2114 0.6100 0.2422
H22 H 0.2011 0.6140 0.1267
C16 C 0.0128(5) 0.4888(4) 0.1357(3)
H23 H -0.0436 0.4831 0.1871
H24 H -0.0662 0.4949 0.0714
C17 C 0.0929(4) 0.3643(4) 0.1161(3)
H25 H 0.1588 0.3754 0.0707
H26 H 0.1646 0.3551 0.1821
C18 C -0.0226(4) 0.2385(4) 0.0675(3)
Pr1A Pr -0.41800(2) 1.89307(2) 0.627486(16)
Pr1A_2 Pr 0.58200(2) 0.89307(2) 0.627486(16)
Pr1_2 Pr -0.58200(2) 1.10693(2) 0.372514(16)
Pr1A_3 Pr -0.41800(2) 0.89307(2) 0.627486(16)
Pr1A_4 Pr 0.58200(2) 1.89307(2) -0.372514(16)
Pr1_3 Pr 0.41800(2) 2.10693(2) 0.372514(16)
Pr2A Pr 0.73956(2) 1.993650(19) -0.021760(15)
Pr2_2 Pr 0.26044(2) 2.006350(19) 0.021760(15)
Pr2_3 Pr 0.26044(2) 0.006350(19) 0.021760(15)
Pr2A_2 Pr -0.26044(2) -0.006350(19) -0.021760(15)
Pr2A_3 Pr 0.73956(2) 0.993650(19) -0.021760(15)
Pr2A_4 Pr -0.26044(2) 0.993650(19) -0.021760(15)
O1A O -0.2997(4) 1.7032(3) 0.5442(2)
O2A O -0.1386(3) 1.8207(3) 0.6930(2)
O3A O -0.3879(3) 0.9473(3) 0.4558(2)
O3A_2 O 0.6121(3) 0.9473(3) 0.4558(2)
O3_2 O -0.6121(3) 2.0527(3) 0.5442(2)
O3A_3 O -0.3879(3) 1.9473(3) 0.4558(2)
O4A O -0.3592(4) 1.0030(3) 0.3146(2)
O4A_2 O 0.6408(4) 1.0030(3) 0.3146(2)
O4_2 O -0.6408(4) 1.9970(3) 0.6854(2)
O5A O 0.4729(6) 1.6946(4) -0.3284(3)
O5A_2 O -0.5271(6) 1.6946(4) 0.6716(3)
O6_2 O 0.2464(4) 1.8911(3) 0.3321(2)
O6A O -0.2464(4) 2.1089(3) 0.6679(2)
O7A O 0.5716(4) 1.8332(3) -0.1800(2)
O7A_2 O -0.4284(4) 1.8332(3) 0.8200(2)
O8_2 O 0.2356(4) 1.9320(3) 0.1806(2)
O8A O -0.2356(4) 2.0680(3) 0.8194(2)
O8A_2 O 0.7644(4) 2.0680(3) -0.1806(2)
O9A O 0.2884(3) 1.2156(3) -0.0439(2)
O10A O 0.4862(3) 1.0979(3) -0.0525(2)
O10_2 O 0.5138(3) 0.9021(3) 0.0525(2)
O10A_2 O 0.4862(3) 2.0979(3) -0.0525(2)
O11_2 O 0.0340(3) 1.1280(2) 0.0507(2)
O11A O -0.0340(3) 0.8720(2) -0.0507(2)
O11_3 O 1.0340(3) 2.1280(2) 0.0507(2)
O11A_2 O 0.9660(3) 1.8720(2) -0.0507(2)
O12_2 O -0.1716(3) 1.2406(3) 0.0425(2)
O12A O 0.1716(3) 0.7594(3) -0.0425(2)
O12_3 O 0.8284(3) 2.2406(3) 0.0425(2)
O13A O -0.6590(4) 1.7625(3) 0.4851(3)
O14A O 0.8298(5) 2.0521(4) 0.1772(3)
H1A H 0.770(6) 2.037(5) 0.209(4)
H2A H 0.916(7) 2.088(6) 0.218(4)
C1A C -0.1670(5) 1.7233(4) 0.6150(3)
C2A C -0.0405(6) 1.6326(5) 0.6074(4)
H3A H 0.0646 1.6861 0.6310
H4A H -0.0401 1.5744 0.6550
C3A C -0.0620(6) 1.5483(5) 0.4998(4)
H5A H -0.1698 1.4990 0.4733
H6A H -0.0524 1.6055 0.4531
C4A C -0.3125(5) 0.9439(4) 0.3880(3)
C5A C -0.1686(5) 0.8711(5) 0.3962(4)
H7A H -0.2007 0.7789 0.3938
H8A H -0.1295 0.8741 0.3366
C6A C -0.0328(5) 0.9290(5) 0.4959(4)
H9A H 0.0546 0.8751 0.4993
H10A H -0.0720 0.9253 0.5553
C7A C 0.4871(5) 1.7257(4) -0.2336(3)
C8A C 0.3990(6) 1.6339(4) -0.1888(4)
H11A H 0.2891 1.6075 -0.2345
H12A H 0.3936 1.6809 -0.1213
C9A C 0.4788(6) 1.5121(5) -0.1757(5)
H13A H 0.4933 1.4706 -0.2421
H14A H 0.5855 1.5391 -0.1257
C10A C 0.3882(5) 1.4098(4) -0.1396(4)
H15A H 0.3645 1.4521 -0.0765
H16A H 0.2862 1.3746 -0.1929
C11A C 0.4852(5) 1.2965(4) -0.1178(3)
H17A H 0.5924 1.3338 -0.0717
H18A H 0.4979 1.2490 -0.1831
C12A C 0.4139(4) 1.1992(4) -0.0697(3)
C13_2 C 0.1896(4) 1.8605(4) 0.2335(3)
C14_2 C 0.0642(5) 1.7405(4) 0.1869(4)
H19_2 H -0.0022 1.7480 0.1188
H20_2 H -0.0056 1.7376 0.2311
C15_2 C 0.1380(5) 1.6136(4) 0.1751(4)
H21_2 H 0.2114 1.6100 0.2422
H22_2 H 0.2011 1.6140 0.1267
C16_2 C 0.0128(5) 1.4888(4) 0.1357(3)
H23_2 H -0.0436 1.4831 0.1871
H24_2 H -0.0662 1.4949 0.0714
C17_2 C 0.0929(4) 1.3643(4) 0.1161(3)
H25_2 H 0.1588 1.3754 0.0707
H26_2 H 0.1646 1.3551 0.1821
C18_2 C -0.0226(4) 1.2385(4) 0.0675(3)
O15 O 0.5727(10) 1.4533(7) 0.5923(6)
loop_
_geom_bond_atom_site_label_1
_geom_bond_atom_site_label_2
_geom_bond_site_symmetry_1
_geom_bond_site_symmetry_2
Pr1 O1 1_555 1_555
Pr2 O7 1_555 1_555
O1 C1 1_555 1_555
O2 Pr1 1_555 1_555
O3 Pr1 1_555 1_555
O4 C4 1_555 1_555
O5 Pr1 1_555 1_555
O6 Pr1 1_555 1_555
O7 Pr1 1_555 1_555
O8 Pr1 1_555 1_555
O9 C12 1_555 1_555
O10 C12 1_555 1_555
O11 C18 1_555 1_555
O12 C18 1_555 1_555
O13 Pr1 1_555 1_555
O14 Pr2 1_555 1_555
H1 O14 1_555 1_555
H2 O14 1_555 1_555
C1 O2 1_555 1_555
C2 C1 1_555 1_555
H3 C2 1_555 1_555
H4 C2 1_555 1_555
C3 C2 1_555 1_555
H5 C3 1_555 1_555
H6 C3 1_555 1_555
C4 O3 1_555 1_555
C5 C4 1_555 1_555
H7 C5 1_555 1_555
H8 C5 1_555 1_555
C6 C5 1_555 1_555
H9 C6 1_555 1_555
H10 C6 1_555 1_555
C7 O5 1_555 1_555
C8 C7 1_555 1_555
H11 C8 1_555 1_555
H12 C8 1_555 1_555
C9 C8 1_555 1_555
H13 C9 1_555 1_555
H14 C9 1_555 1_555
C10 C9 1_555 1_555
H15 C10 1_555 1_555
H16 C10 1_555 1_555
C11 C10 1_555 1_555
H17 C11 1_555 1_555
H18 C11 1_555 1_555
C12 C11 1_555 1_555
C13 O6 1_555 1_555
C14 C13 1_555 1_555
H19 C14 1_555 1_555
H20 C14 1_555 1_555
C15 C14 1_555 1_555
H21 C15 1_555 1_555
H22 C15 1_555 1_555
C16 C15 1_555 1_555
H23 C16 1_555 1_555
H24 C16 1_555 1_555
C17 C16 1_555 1_555
H25 C17 1_555 1_555
H26 C17 1_555 1_555
C18 C17 1_555 1_555
Pr1A O1A 1_555 1_555
Pr1A_2 O3 1_555 1_555
Pr1_2 O3A 1_555 1_555
Pr1A_3 O3A 1_555 1_555
Pr1A_4 O5A 1_555 1_555
Pr1_3 O6_2 1_555 1_555
Pr2A O9 1_555 1_555
Pr2_2 O10 1_555 1_555
Pr2_3 O11 1_555 1_555
Pr2A_2 O11 1_555 1_555
Pr2A_3 O10A 1_555 1_555
Pr2A_4 O11_2 1_555 1_555
O1A C1A 1_555 1_555
O2A Pr1A 1_555 1_555
O3A C4A 1_555 1_555
O3A_2 Pr1 1_555 1_555
O3_2 Pr1A 1_555 1_555
O3A_3 Pr1A 1_555 1_555
O4A Pr1_2 1_555 1_555
O4A_2 Pr1 1_555 1_555
O4_2 Pr1A 1_555 1_555
O5A C7A 1_555 1_555
O5A_2 Pr1A 1_555 1_555
O6_2 C13_2 1_555 1_555
O6A Pr1A 1_555 1_555
O7A Pr1A_4 1_555 1_555
O7A_2 Pr1A 1_555 1_555
O8_2 Pr1_3 1_555 1_555
O8A Pr1A 1_555 1_555
O8A_2 Pr1A_4 1_555 1_555
O9A Pr2 1_555 1_555
O10A Pr2 1_555 1_555
O10_2 Pr2 1_555 1_555
O10A_2 Pr2A 1_555 1_555
O11_2 Pr2 1_555 1_555
O11A Pr2 1_555 1_555
O11_3 Pr2A 1_555 1_555
O11A_2 Pr2A 1_555 1_555
O12_2 Pr2A_4 1_555 1_555
O12A Pr2 1_555 1_555
O12_3 Pr2A 1_555 1_555
O13A Pr1A 1_555 1_555
O14A Pr2A 1_555 1_555
H1A O14A 1_555 1_555
H2A O14A 1_555 1_555
C1A O2A 1_555 1_555
C2A C1A 1_555 1_555
H3A C2A 1_555 1_555
H4A C2A 1_555 1_555
C3A C3 1_555 1_555
H5A C3A 1_555 1_555
H6A C3A 1_555 1_555
C4A O4A 1_555 1_555
C5A C4A 1_555 1_555
H7A C5A 1_555 1_555
H8A C5A 1_555 1_555
C6A C6 1_555 1_555
H9A C6A 1_555 1_555
H10A C6A 1_555 1_555
C7A O7A 1_555 1_555
C8A C7A 1_555 1_555
H11A C8A 1_555 1_555
H12A C8A 1_555 1_555
C9A C8A 1_555 1_555
H13A C9A 1_555 1_555
H14A C9A 1_555 1_555
C10A C9A 1_555 1_555
H15A C10A 1_555 1_555
H16A C10A 1_555 1_555
C11A C10A 1_555 1_555
H17A C11A 1_555 1_555
H18A C11A 1_555 1_555
C12A O9A 1_555 1_555
C13_2 O8_2 1_555 1_555
C14_2 C13_2 1_555 1_555
H19_2 C14_2 1_555 1_555
H20_2 C14_2 1_555 1_555
C15_2 C14_2 1_555 1_555
H21_2 C15_2 1_555 1_555
H22_2 C15_2 1_555 1_555
C16_2 C15_2 1_555 1_555
H23_2 C16_2 1_555 1_555
H24_2 C16_2 1_555 1_555
C17_2 C16_2 1_555 1_555
H25_2 C17_2 1_555 1_555
H26_2 C17_2 1_555 1_555
C18_2 O11_2 1_555 1_555
Pr2 O8 1_555 1_555
O4 Pr1A_2 1_555 1_555
O7 C7 1_555 1_555
O8 C13 1_555 1_555
O10 Pr2A 1_555 1_555
O12 Pr2A_2 1_555 1_555
Pr1A_2 O3A_2 1_555 1_555
Pr2A O7A 1_555 1_555
Pr2A O8A_2 1_555 1_555
Pr2_2 O8_2 1_555 1_555
Pr2_2 O10A_2 1_555 1_555
Pr2A_3 O10_2 1_555 1_555
Pr2A_4 O11A 1_555 1_555
O10A C12A 1_555 1_555
O12_2 C18_2 1_555 1_555
C2A C3A 1_555 1_555
C5A C6A 1_555 1_555
C11A C12A 1_555 1_555
C17_2 C18_2 1_555 1_555

#END
