
#######################################################################
#
#                 Cambridge Crystallographic Data Centre
#                                CCDC 
#
#######################################################################
#
# If this CIF has been generated from an entry in the Cambridge 
# Structural Database, then it will include bibliographic, chemical, 
# crystal, experimental, refinement or atomic coordinate data resulting 
# from the CCDC's data processing and validation procedures.
#
#######################################################################

data_FEYTUA
_symmetry_cell_setting           triclinic
_symmetry_space_group_name_H-M   'P -1'
_symmetry_Int_Tables_number      2
_space_group_name_Hall           '-P 1'
loop_
_symmetry_equiv_pos_site_id
_symmetry_equiv_pos_as_xyz
1 x,y,z
2 -x,-y,-z
_cell_length_a                   6.7840(7)
_cell_length_b                   7.6611(8)
_cell_length_c                   18.6422(18)
_cell_angle_alpha                81.212(5)
_cell_angle_beta                 87.658(4)
_cell_angle_gamma                86.753(5)
_cell_volume                     955.468
loop_
_atom_site_label
_atom_site_type_symbol
_atom_site_fract_x
_atom_site_fract_y
_atom_site_fract_z
Na1 Na 0.36091(12) 0.74837(12) 0.04868(5)
O1 O 0.3542(2) 0.9992(2) 0.09968(11)
O2 O 0.3380(3) 0.4566(2) 0.09316(11)
C1 C 0.1749(3) 0.7664(3) -0.19079(13)
C2 C 0.3372(3) 0.8304(3) -0.23308(13)
H1 H 0.4436 0.8764 -0.2115
C3 C 0.3401(3) 0.8255(3) -0.30690(13)
C4 C 0.1914(4) 0.7552(3) -0.34036(13)
H2 H 0.1974 0.7505 -0.3910
C5 C 0.0349(3) 0.6926(3) -0.29693(14)
C6 C 0.0203(3) 0.6979(3) -0.22333(13)
H3 H -0.0923 0.6560 -0.1953
C7 C 0.1639(3) 0.7712(3) -0.11024(13)
O3 O 0.3204(2) 0.7854(2) -0.07840(9)
O4 O -0.0050(2) 0.7608(3) -0.07947(9)
N1 N -0.1252(3) 0.6155(3) -0.33102(13)
O5 O -0.2698(3) 0.5694(3) -0.29307(12)
O6 O -0.1041(3) 0.6019(3) -0.39537(11)
N2 N 0.5082(3) 0.8975(3) -0.35229(12)
O7 O 0.5129(3) 0.8835(3) -0.41670(11)
O8 O 0.6352(3) 0.9661(3) -0.32270(11)
C8 C -0.1716(3) 0.7377(3) 0.16991(13)
C9 C -0.0135(3) 0.7897(3) 0.20651(13)
H4 H 0.1047 0.8221 0.1799
C10 C -0.0253(3) 0.7949(3) 0.28009(13)
H5 H 0.0842 0.8311 0.3033
C11 C -0.1982(4) 0.7470(3) 0.32131(13)
C12 C -0.3555(3) 0.6889(3) 0.28468(13)
H6 H -0.4718 0.6512 0.3113
C13 C -0.3417(3) 0.6864(3) 0.21144(13)
H7 H -0.4502 0.6490 0.1880
C14 C -0.1650(3) 0.7351(3) 0.09155(13)
O9 O 0.0048(2) 0.7756(3) 0.05751(9)
O10 O -0.3053(2) 0.6986(3) 0.05810(10)
N3 N -0.2160(3) 0.7577(3) 0.39409(12)
C15 C -0.0520(5) 0.8110(4) 0.43259(15)
H8 H 0.0450 0.7113 0.4426
H9 H -0.1015 0.8472 0.4785
H10 H 0.0108 0.9104 0.4026
C16 C -0.3745(5) 0.6714(4) 0.43847(15)
H11 H -0.5011 0.7336 0.4253
H12 H -0.3518 0.6741 0.4899
H13 H -0.3772 0.5484 0.4301
H14 H 0.0012 0.7804 0.0080
H15 H 0.4489 0.3960 0.0918
H16 H 0.2594 0.3873 0.0805
H17 H 0.2713 1.0765 0.0967
H18 H 0.4471 1.0645 0.0944
Na1_2 Na -0.63909(12) 0.74837(12) 0.04868(5)
O10_2 O 0.6947(2) 0.6986(3) 0.05810(10)
loop_
_geom_bond_atom_site_label_1
_geom_bond_atom_site_label_2
_geom_bond_site_symmetry_1
_geom_bond_site_symmetry_2
Na1 O1 1_555 1_555
O1 H17 1_555 1_555
O2 Na1 1_555 1_555
C1 C2 1_555 1_555
C2 H1 1_555 1_555
C3 C2 1_555 1_555
C4 C3 1_555 1_555
H2 C4 1_555 1_555
C5 C4 1_555 1_555
C6 C1 1_555 1_555
H3 C6 1_555 1_555
C7 C1 1_555 1_555
O3 Na1 1_555 1_555
O4 C7 1_555 1_555
N1 C5 1_555 1_555
O5 N1 1_555 1_555
O6 N1 1_555 1_555
N2 C3 1_555 1_555
O7 N2 1_555 1_555
O8 N2 1_555 1_555
C8 C9 1_555 1_555
C9 H4 1_555 1_555
C10 C9 1_555 1_555
H5 C10 1_555 1_555
C11 C10 1_555 1_555
C12 C11 1_555 1_555
H6 C12 1_555 1_555
C13 C8 1_555 1_555
H7 C13 1_555 1_555
C14 C8 1_555 1_555
O9 Na1 1_555 1_555
O10 C14 1_555 1_555
N3 C11 1_555 1_555
C15 N3 1_555 1_555
H8 C15 1_555 1_555
H9 C15 1_555 1_555
H10 C15 1_555 1_555
C16 N3 1_555 1_555
H11 C16 1_555 1_555
H12 C16 1_555 1_555
H13 C16 1_555 1_555
H14 O9 1_555 1_555
H15 O2 1_555 1_555
H16 O2 1_555 1_555
H18 O1 1_555 1_555
Na1_2 O10 1_555 1_555
O10_2 Na1 1_555 1_555
C5 C6 1_555 1_555
C7 O3 1_555 1_555
C12 C13 1_555 1_555
C14 O9 1_555 1_555

#END
