
#######################################################################
#
#                 Cambridge Crystallographic Data Centre
#                                CCDC 
#
#######################################################################
#
# If this CIF has been generated from an entry in the Cambridge 
# Structural Database, then it will include bibliographic, chemical, 
# crystal, experimental, refinement or atomic coordinate data resulting 
# from the CCDC's data processing and validation procedures.
#
#######################################################################

data_FEYXAJ
_symmetry_cell_setting           monoclinic
_symmetry_space_group_name_H-M   'P 21/c'
_symmetry_Int_Tables_number      14
_space_group_name_Hall           '-P 2ybc'
loop_
_symmetry_equiv_pos_site_id
_symmetry_equiv_pos_as_xyz
1 x,y,z
2 -x,1/2+y,1/2-z
3 -x,-y,-z
4 x,1/2-y,1/2+z
_cell_length_a                   11.0319(5)
_cell_length_b                   6.8524(4)
_cell_length_c                   7.7018(4)
_cell_angle_alpha                90
_cell_angle_beta                 105.444(3)
_cell_angle_gamma                90
_cell_volume                     561.194
loop_
_atom_site_label
_atom_site_type_symbol
_atom_site_fract_x
_atom_site_fract_y
_atom_site_fract_z
Cu1 Cu 0.00000 0.00000 0.00000
Br1 Br 0.0933(2) 0.2051(6) 0.2589(5)
N1 N 0.3146(9) -0.3913(13) 0.115(4)
N2 N 0.3542(11) -0.2229(13) 0.055(3)
N3 N 0.2804(9) -0.0756(14) 0.035(4)
N4 N 0.1702(9) -0.1519(13) 0.052(4)
C1 C 0.1947(9) -0.3381(15) 0.077(5)
C2 C 0.3781(13) -0.5829(15) 0.142(4)
H1 H 0.1309 -0.4294 0.0679
H2 H 0.4673 -0.5644 0.16740
H3 H 0.3495 -0.6602 0.0348
H4 H 0.3587 -0.6488 0.2412
Cu1C Cu 0.00000 0.50000 0.50000
Cu1C_2 Cu 0.00000 0.50000 -0.50000
Br1C Br 0.0933(2) 0.2949(6) -0.2411(5)
Br1B Br -0.0933(2) -0.2051(6) -0.2589(5)
Br1A Br -0.0933(2) -0.2949(6) 0.2411(5)
N1B N -0.3146(9) 0.3913(13) -0.115(4)
N2B N -0.3542(11) 0.2229(13) -0.055(3)
N3B N -0.2804(9) 0.0756(14) -0.035(4)
N4B N -0.1702(9) 0.1519(13) -0.052(4)
C1B C -0.1947(9) 0.3381(15) -0.077(5)
C2B C -0.3781(13) 0.5829(15) -0.142(4)
H1B H -0.1309 0.4294 -0.0679
H2B H -0.4673 0.5644 -0.16740
H3B H -0.3495 0.6602 -0.0348
H4B H -0.3587 0.6488 -0.2412
loop_
_geom_bond_atom_site_label_1
_geom_bond_atom_site_label_2
_geom_bond_site_symmetry_1
_geom_bond_site_symmetry_2
Cu1 Br1 1_555 1_555
Br1 Cu1C 1_555 1_555
N1 N2 1_555 1_555
N2 N3 1_555 1_555
N3 N4 1_555 1_555
N4 Cu1 1_555 1_555
C1 N1 1_555 1_555
C2 N1 1_555 1_555
H1 C1 1_555 1_555
H2 C2 1_555 1_555
H3 C2 1_555 1_555
H4 C2 1_555 1_555
Cu1C_2 Br1C 1_555 1_555
Br1C Cu1 1_555 1_555
Br1B Cu1 1_555 1_555
Br1A Cu1 1_555 1_555
N1B N2B 1_555 1_555
N2B N3B 1_555 1_555
N3B N4B 1_555 1_555
N4B Cu1 1_555 1_555
C1B N1B 1_555 1_555
C2B N1B 1_555 1_555
H1B C1B 1_555 1_555
H2B C2B 1_555 1_555
H3B C2B 1_555 1_555
H4B C2B 1_555 1_555
N4 C1 1_555 1_555
N4B C1B 1_555 1_555

#END
