
#######################################################################
#
#                 Cambridge Crystallographic Data Centre
#                                CCDC 
#
#######################################################################
#
# If this CIF has been generated from an entry in the Cambridge 
# Structural Database, then it will include bibliographic, chemical, 
# crystal, experimental, refinement or atomic coordinate data resulting 
# from the CCDC's data processing and validation procedures.
#
#######################################################################

data_FEZBUI
_symmetry_cell_setting           monoclinic
_symmetry_space_group_name_H-M   'C 2/c'
_symmetry_Int_Tables_number      15
_space_group_name_Hall           '-C 2yn'
loop_
_symmetry_equiv_pos_site_id
_symmetry_equiv_pos_as_xyz
1 x,y,z
2 1/2+x,1/2+y,z
3 -x,y,1/2-z
4 1/2-x,1/2+y,1/2-z
5 -x,-y,-z
6 1/2-x,1/2-y,-z
7 x,-y,1/2+z
8 1/2+x,1/2-y,1/2+z
_cell_length_a                   19.4328(7)
_cell_length_b                   7.1420(3)
_cell_length_c                   18.0426(5)
_cell_angle_alpha                90
_cell_angle_beta                 118.0351(11)
_cell_angle_gamma                90
_cell_volume                     2210.28
loop_
_atom_site_label
_atom_site_type_symbol
_atom_site_fract_x
_atom_site_fract_y
_atom_site_fract_z
Cd1 Cd 0.318255(9) 0.01454(2) 0.030101(10)
Zn1 Zn 0.5000 -0.24461(6) 0.2500
O1 O 0.45928(11) -0.0296(3) 0.15289(12)
O2 O 0.43529(10) 0.1157(3) 0.03654(11)
O3 O 0.67353(11) 0.3043(3) 0.40621(11)
O4 O 0.77354(11) 0.4208(3) 0.39460(11)
O5 O 0.77129(10) 0.4223(3) 0.11610(11)
O6 O 0.67079(10) 0.2949(3) 0.00570(10)
C1 C 0.56148(13) 0.1594(3) 0.15072(15)
C2 C 0.59619(13) 0.2066(3) 0.10159(14)
H1 H 0.5710 0.1794 0.0445
C3 C 0.66888(13) 0.2949(3) 0.13726(14)
C4 C 0.70512(13) 0.3411(3) 0.22215(14)
H2 H 0.7527 0.4035 0.2459
C5 C 0.66999(13) 0.2937(3) 0.27177(14)
C6 C 0.59867(13) 0.2022(3) 0.23580(14)
H3 H 0.5756 0.1693 0.2689
C7 C 0.48127(13) 0.0740(3) 0.11119(14)
C8 C 0.70566(13) 0.3394(3) 0.08233(14)
C9 C 0.70834(13) 0.3421(3) 0.36357(14)
O7 O 0.45979(14) -0.4447(3) 0.14868(16)
H4 H 0.4183 -0.5084 0.1222
H5 H 0.4809 -0.4291 0.1171
O8 O 0.39130(12) -0.2627(3) 0.24528(14)
H6 H 0.3926 -0.2639 0.2930
H7 H 0.3537 -0.1934 0.2126
Cd1B Cd 0.681745(9) 0.01454(2) 0.469899(10)
Cd1G Cd 0.818255(9) 0.48546(2) 0.530101(10)
Cd1A Cd 0.818255(9) 0.51454(2) 0.030101(10)
Cd1D Cd 0.681745(9) -0.01454(2) -0.030101(10)
Cd1E Cd 0.181745(9) 0.48546(2) -0.030101(10)
Cd1C Cd 0.181745(9) 0.51454(2) 0.469899(10)
Cd1F Cd 0.318255(9) -0.01454(2) 0.530101(10)
O1B O 0.54072(11) -0.0296(3) 0.34711(12)
O2B O 0.56471(10) 0.1157(3) 0.46346(11)
O3B O 0.32647(11) 0.3043(3) 0.09379(11)
O4B O 0.22646(11) 0.4208(3) 0.10540(11)
O4G O 0.27354(11) 0.0792(3) -0.10540(11)
O4E O 0.72646(11) 0.0792(3) 0.60540(11)
O5B O 0.22871(10) 0.4223(3) 0.38390(11)
O5A O 0.27129(10) -0.0777(3) 0.11610(11)
O5C O 0.72871(10) -0.0777(3) 0.38390(11)
O6B O 0.32921(10) 0.2949(3) 0.49430(10)
O6D O 0.32921(10) -0.2949(3) -0.00570(10)
O6F O 0.67079(10) -0.2949(3) 0.50570(10)
C1B C 0.43852(13) 0.1594(3) 0.34928(15)
C2B C 0.40381(13) 0.2066(3) 0.39841(14)
H1B H 0.4290 0.1794 0.4555
C3B C 0.33112(13) 0.2949(3) 0.36274(14)
C4B C 0.29488(13) 0.3411(3) 0.27785(14)
H2B H 0.2473 0.4035 0.2541
C5B C 0.33001(13) 0.2937(3) 0.22823(14)
C6B C 0.40133(13) 0.2022(3) 0.26420(14)
H3B H 0.4244 0.1693 0.2311
C7B C 0.51873(13) 0.0740(3) 0.38881(14)
C8B C 0.29434(13) 0.3394(3) 0.41767(14)
C9B C 0.29166(13) 0.3421(3) 0.13643(14)
O7B O 0.54021(14) -0.4447(3) 0.35132(16)
H4B H 0.5817 -0.5084 0.3778
H5B H 0.5191 -0.4291 0.3829
O8B O 0.60870(12) -0.2627(3) 0.25472(14)
H6B H 0.6074 -0.2639 0.2070
H7B H 0.6463 -0.1934 0.2874
O9 O 0.4295(2) 0.3198(5) -0.0930(2)
H8 H 0.4303 0.2550 -0.0531
H9 H 0.4404 0.4325 -0.0766
loop_
_geom_bond_atom_site_label_1
_geom_bond_atom_site_label_2
_geom_bond_site_symmetry_1
_geom_bond_site_symmetry_2
Cd1 O1 1_555 1_555
Zn1 O1 1_555 1_555
O1 C7 1_555 1_555
O2 Cd1 1_555 1_555
O3 C9 1_555 1_555
O4 C9 1_555 1_555
O5 C8 1_555 1_555
O6 C8 1_555 1_555
C1 C2 1_555 1_555
C2 H1 1_555 1_555
C3 C2 1_555 1_555
C4 C3 1_555 1_555
H2 C4 1_555 1_555
C5 C4 1_555 1_555
C6 C1 1_555 1_555
H3 C6 1_555 1_555
C7 O2 1_555 1_555
C8 C3 1_555 1_555
C9 C5 1_555 1_555
O7 Zn1 1_555 1_555
H4 O7 1_555 1_555
H5 O7 1_555 1_555
O8 Zn1 1_555 1_555
H6 O8 1_555 1_555
H7 O8 1_555 1_555
O9 H8 1_555 1_555
H9 O9 1_555 1_555
Cd1B O3 1_555 1_555
Cd1G O4 1_555 1_555
Cd1A O5 1_555 1_555
Cd1D O6 1_555 1_555
Cd1E O4B 1_555 1_555
Cd1C O5B 1_555 1_555
Cd1F O6B 1_555 1_555
O1B Zn1 1_555 1_555
O2B Cd1B 1_555 1_555
O3B Cd1 1_555 1_555
O4B C9B 1_555 1_555
O4G Cd1 1_555 1_555
O4E Cd1B 1_555 1_555
O5B C8B 1_555 1_555
O5A Cd1 1_555 1_555
O5C Cd1B 1_555 1_555
O6B C8B 1_555 1_555
O6D Cd1 1_555 1_555
O6F Cd1B 1_555 1_555
C1B C2B 1_555 1_555
C2B H1B 1_555 1_555
C3B C2B 1_555 1_555
C4B C3B 1_555 1_555
H2B C4B 1_555 1_555
C5B C4B 1_555 1_555
C6B C1B 1_555 1_555
H3B C6B 1_555 1_555
C7B O1B 1_555 1_555
C8B C3B 1_555 1_555
C9B O3B 1_555 1_555
O7B Zn1 1_555 1_555
H4B O7B 1_555 1_555
H5B O7B 1_555 1_555
O8B Zn1 1_555 1_555
H6B O8B 1_555 1_555
H7B O8B 1_555 1_555
C1 C7 1_555 1_555
C5 C6 1_555 1_555
Cd1B O1B 1_555 1_555
O2B C7B 1_555 1_555
C1B C7B 1_555 1_555
C5B C6B 1_555 1_555
C5B C9B 1_555 1_555

#END
