
#######################################################################
#
#                 Cambridge Crystallographic Data Centre
#                                CCDC 
#
#######################################################################
#
# If this CIF has been generated from an entry in the Cambridge 
# Structural Database, then it will include bibliographic, chemical, 
# crystal, experimental, refinement or atomic coordinate data resulting 
# from the CCDC's data processing and validation procedures.
#
#######################################################################

data_FEZNUU
_symmetry_cell_setting           orthorhombic
_symmetry_space_group_name_H-M   'C m c m'
_symmetry_Int_Tables_number      63
_space_group_name_Hall           '-C 2n 2'
loop_
_symmetry_equiv_pos_site_id
_symmetry_equiv_pos_as_xyz
1 x,y,z
2 1/2+x,1/2+y,z
3 x,-y,-z
4 -x,y,1/2-z
5 -x,-y,1/2+z
6 1/2+x,1/2-y,-z
7 1/2-x,1/2+y,1/2-z
8 1/2-x,1/2-y,1/2+z
9 -x,-y,-z
10 1/2-x,1/2-y,-z
11 -x,y,z
12 x,-y,1/2+z
13 x,y,1/2-z
14 1/2-x,1/2+y,z
15 1/2+x,1/2-y,1/2+z
16 1/2+x,1/2+y,1/2-z
_cell_length_a                   7.7667(11)
_cell_length_b                   11.3513(13)
_cell_length_c                   10.1368(13)
_cell_angle_alpha                90
_cell_angle_beta                 90
_cell_angle_gamma                90
_cell_volume                     893.682
loop_
_atom_site_label
_atom_site_type_symbol
_atom_site_fract_x
_atom_site_fract_y
_atom_site_fract_z
Eu1 Eu -0.5000 0.21291(22) -0.2500
C1 C -0.358(5) -0.1106(31) -0.2500
C2 C -0.3506(34) 0.3677(21) 0.0618(25)
N1 N -0.5000 -0.0269(26) -0.2500
N2 N -0.212(4) -0.1214(19) -0.2500
N3 N -0.5000 0.3362(17) -0.0013(19)
N4 N -0.2061(29) 0.3537(18) 0.0932(18)
Eu1N Eu -1.0000 0.28709(22) -0.7500
Eu1N_2 Eu 0.0000 0.28709(22) 0.2500
Eu1N_3 Eu 0.0000 0.28709(22) -0.7500
Eu1N_4 Eu -1.0000 0.28709(22) 0.2500
Eu1A Eu 0.0000 -0.28709(22) -0.2500
Eu1A_2 Eu -1.0000 -0.28709(22) -0.2500
C1J C -0.642(5) -0.1106(31) -0.2500
C2J C -0.6494(34) 0.3677(21) 0.0618(25)
C2C C -0.6494(34) 0.3677(21) -0.5618(25)
C2L C -0.3506(34) 0.3677(21) -0.5618(25)
N2A N -0.712(4) 0.3786(19) -0.2500
N2M N -0.288(4) 0.3786(19) -0.2500
N2J N -0.788(4) -0.1214(19) -0.2500
N3L N -0.5000 0.3362(17) -0.4987(19)
N4N N -0.7061(29) 0.1463(18) -0.4068(18)
N4I N -0.2939(29) 0.1463(18) -0.0932(18)
N4E N -0.7061(29) 0.1463(18) -0.0932(18)
N4G N -0.2939(29) 0.1463(18) -0.4068(18)
N4J N -0.7939(29) 0.3537(18) 0.0932(18)
N4C N -0.7939(29) 0.3537(18) -0.5932(18)
N4L N -0.2061(29) 0.3537(18) -0.5932(18)
loop_
_geom_bond_atom_site_label_1
_geom_bond_atom_site_label_2
_geom_bond_site_symmetry_1
_geom_bond_site_symmetry_2
Eu1 N1 1_555 1_555
C1 N1 1_555 1_555
C2 N3 1_555 1_555
N1 C1J 1_555 1_555
N2 C1 1_555 1_555
N3 Eu1 1_555 1_555
N4 C2 1_555 1_555
Eu1N N4C 1_555 1_555
Eu1N_2 N4 1_555 1_555
Eu1N_3 N4L 1_555 1_555
Eu1N_4 N4J 1_555 1_555
Eu1A N2 1_555 1_555
Eu1A_2 N2J 1_555 1_555
C1J N2J 1_555 1_555
C2J N3 1_555 1_555
C2C N3L 1_555 1_555
C2L N3L 1_555 1_555
N2A Eu1 1_555 1_555
N2M Eu1 1_555 1_555
N3L Eu1 1_555 1_555
N4N Eu1 1_555 1_555
N4I Eu1 1_555 1_555
N4E Eu1 1_555 1_555
N4G Eu1 1_555 1_555
N4J C2J 1_555 1_555
N4C C2C 1_555 1_555
N4L C2L 1_555 1_555

#END
