
#######################################################################
#
#                 Cambridge Crystallographic Data Centre
#                                CCDC 
#
#######################################################################
#
# If this CIF has been generated from an entry in the Cambridge 
# Structural Database, then it will include bibliographic, chemical, 
# crystal, experimental, refinement or atomic coordinate data resulting 
# from the CCDC's data processing and validation procedures.
#
#######################################################################

data_FEZPOQ
_symmetry_cell_setting           orthorhombic
_symmetry_space_group_name_H-M   'C m c m'
_symmetry_Int_Tables_number      63
_space_group_name_Hall           '-C 2n 2'
loop_
_symmetry_equiv_pos_site_id
_symmetry_equiv_pos_as_xyz
1 x,y,z
2 1/2+x,1/2+y,z
3 x,-y,-z
4 -x,y,1/2-z
5 -x,-y,1/2+z
6 1/2+x,1/2-y,-z
7 1/2-x,1/2+y,1/2-z
8 1/2-x,1/2-y,1/2+z
9 -x,-y,-z
10 1/2-x,1/2-y,-z
11 -x,y,z
12 x,-y,1/2+z
13 x,y,1/2-z
14 1/2-x,1/2+y,z
15 1/2+x,1/2-y,1/2+z
16 1/2+x,1/2+y,1/2-z
_cell_length_a                   7.94935(33)
_cell_length_b                   11.5215(4)
_cell_length_c                   10.2096(4)
_cell_angle_alpha                90
_cell_angle_beta                 90
_cell_angle_gamma                90
_cell_volume                     935.081
loop_
_atom_site_label
_atom_site_type_symbol
_atom_site_fract_x
_atom_site_fract_y
_atom_site_fract_z
Ce1 Ce 0.0000 0.28847(12) 0.2500
C1 C 0.1334(19) 0.5903(13) 0.2500
C2 C 0.1474(15) 0.1383(10) 0.5535(11)
N1 N 0.0000 0.5221(12) 0.2500
N2 N 0.2708(14) 0.6274(10) 0.2500
N3 N 0.0000 0.1597(8) 0.4853(10)
N4 N 0.2653(11) 0.1335(7) 0.5923(8)
Ce1A Ce 0.5000 0.78847(12) 0.2500
Ce1N Ce 0.5000 0.21153(12) 0.7500
Ce1A_2 Ce -0.5000 0.78847(12) 0.2500
Ce1N_2 Ce -0.5000 0.21153(12) 0.7500
Ce1N_3 Ce -0.5000 0.21153(12) -0.2500
Ce1N_4 Ce 0.5000 0.21153(12) -0.2500
C1J C -0.1334(19) 0.5903(13) 0.2500
C2J C -0.1474(15) 0.1383(10) 0.5535(11)
C2L C 0.1474(15) 0.1383(10) -0.0535(11)
C2C C -0.1474(15) 0.1383(10) -0.0535(11)
N2M N 0.2292(14) 0.1274(10) 0.2500
N2A N -0.2292(14) 0.1274(10) 0.2500
N2J N -0.2708(14) 0.6274(10) 0.2500
N3L N 0.0000 0.1597(8) 0.0147(10)
N4I N 0.2347(11) 0.3665(7) 0.4077(8)
N4E N -0.2347(11) 0.3665(7) 0.4077(8)
N4G N 0.2347(11) 0.3665(7) 0.0923(8)
N4N N -0.2347(11) 0.3665(7) 0.0923(8)
N4J N -0.2653(11) 0.1335(7) 0.5923(8)
N4L N 0.2653(11) 0.1335(7) -0.0923(8)
N4C N -0.2653(11) 0.1335(7) -0.0923(8)
loop_
_geom_bond_atom_site_label_1
_geom_bond_atom_site_label_2
_geom_bond_site_symmetry_1
_geom_bond_site_symmetry_2
Ce1 N1 1_555 1_555
C1 N1 1_555 1_555
C2 N3 1_555 1_555
N1 C1J 1_555 1_555
N2 C1 1_555 1_555
N3 Ce1 1_555 1_555
N4 C2 1_555 1_555
Ce1A N2 1_555 1_555
Ce1N N4 1_555 1_555
Ce1A_2 N2J 1_555 1_555
Ce1N_2 N4J 1_555 1_555
Ce1N_3 N4C 1_555 1_555
Ce1N_4 N4L 1_555 1_555
C1J N2J 1_555 1_555
C2J N3 1_555 1_555
C2L N3L 1_555 1_555
C2C N3L 1_555 1_555
N2M Ce1 1_555 1_555
N2A Ce1 1_555 1_555
N3L Ce1 1_555 1_555
N4I Ce1 1_555 1_555
N4E Ce1 1_555 1_555
N4G Ce1 1_555 1_555
N4N Ce1 1_555 1_555
N4J C2J 1_555 1_555
N4L C2L 1_555 1_555
N4C C2C 1_555 1_555

#END
