
#######################################################################
#
#                 Cambridge Crystallographic Data Centre
#                                CCDC 
#
#######################################################################
#
# If this CIF has been generated from an entry in the Cambridge 
# Structural Database, then it will include bibliographic, chemical, 
# crystal, experimental, refinement or atomic coordinate data resulting 
# from the CCDC's data processing and validation procedures.
#
#######################################################################

data_FEZPUW
_symmetry_cell_setting           orthorhombic
_symmetry_space_group_name_H-M   'C m c m'
_symmetry_Int_Tables_number      63
_space_group_name_Hall           '-C 2n 2'
loop_
_symmetry_equiv_pos_site_id
_symmetry_equiv_pos_as_xyz
1 x,y,z
2 1/2+x,1/2+y,z
3 x,-y,-z
4 -x,y,1/2-z
5 -x,-y,1/2+z
6 1/2+x,1/2-y,-z
7 1/2-x,1/2+y,1/2-z
8 1/2-x,1/2-y,1/2+z
9 -x,-y,-z
10 1/2-x,1/2-y,-z
11 -x,y,z
12 x,-y,1/2+z
13 x,y,1/2-z
14 1/2-x,1/2+y,z
15 1/2+x,1/2-y,1/2+z
16 1/2+x,1/2+y,1/2-z
_cell_length_a                   7.9988(9)
_cell_length_b                   11.5822(12)
_cell_length_c                   10.2668(11)
_cell_angle_alpha                90
_cell_angle_beta                 90
_cell_angle_gamma                90
_cell_volume                     951.154
loop_
_atom_site_label
_atom_site_type_symbol
_atom_site_fract_x
_atom_site_fract_y
_atom_site_fract_z
La1 La 0.0000 0.28962(29) 0.2500
C1 C 0.1216(35) 0.5961(24) 0.2500
C2 C 0.1492(26) 0.1347(19) 0.5562(22)
N1 N 0.0000 0.4953(33) 0.2500
N2 N 0.2649(28) 0.6253(22) 0.2500
N3 N 0.0000 0.1733(23) 0.4910(24)
N4 N 0.2597(25) 0.1353(16) 0.5983(19)
La1A La 0.5000 0.78962(29) 0.2500
La1N La 0.5000 0.21038(29) 0.7500
La1A_2 La -0.5000 0.78962(29) 0.2500
La1N_2 La -0.5000 0.21038(29) 0.7500
La1N_3 La -0.5000 0.21038(29) -0.2500
La1N_4 La 0.5000 0.21038(29) -0.2500
C1J C -0.1216(35) 0.5961(24) 0.2500
C2J C -0.1492(26) 0.1347(19) 0.5562(22)
C2L C 0.1492(26) 0.1347(19) -0.0562(22)
C2C C -0.1492(26) 0.1347(19) -0.0562(22)
N2M N 0.2351(28) 0.1253(22) 0.2500
N2A N -0.2351(28) 0.1253(22) 0.2500
N2J N -0.2649(28) 0.6253(22) 0.2500
N3L N 0.0000 0.1733(23) 0.0090(24)
N4I N 0.2403(25) 0.3647(16) 0.4017(19)
N4E N -0.2403(25) 0.3647(16) 0.4017(19)
N4G N 0.2403(25) 0.3647(16) 0.0983(19)
N4N N -0.2403(25) 0.3647(16) 0.0983(19)
N4J N -0.2597(25) 0.1353(16) 0.5983(19)
N4L N 0.2597(25) 0.1353(16) -0.0983(19)
N4C N -0.2597(25) 0.1353(16) -0.0983(19)
loop_
_geom_bond_atom_site_label_1
_geom_bond_atom_site_label_2
_geom_bond_site_symmetry_1
_geom_bond_site_symmetry_2
La1 N1 1_555 1_555
C1 N1 1_555 1_555
C2 N3 1_555 1_555
N1 C1J 1_555 1_555
N2 C1 1_555 1_555
N3 La1 1_555 1_555
N4 C2 1_555 1_555
La1A N2 1_555 1_555
La1N N4 1_555 1_555
La1A_2 N2J 1_555 1_555
La1N_2 N4J 1_555 1_555
La1N_3 N4C 1_555 1_555
La1N_4 N4L 1_555 1_555
C1J N2J 1_555 1_555
C2J N3 1_555 1_555
C2L N3L 1_555 1_555
C2C N3L 1_555 1_555
N2M La1 1_555 1_555
N2A La1 1_555 1_555
N3L La1 1_555 1_555
N4I La1 1_555 1_555
N4E La1 1_555 1_555
N4G La1 1_555 1_555
N4N La1 1_555 1_555
N4J C2J 1_555 1_555
N4L C2L 1_555 1_555
N4C C2C 1_555 1_555

#END
