
#######################################################################
#
#                 Cambridge Crystallographic Data Centre
#                                CCDC 
#
#######################################################################
#
# If this CIF has been generated from an entry in the Cambridge 
# Structural Database, then it will include bibliographic, chemical, 
# crystal, experimental, refinement or atomic coordinate data resulting 
# from the CCDC's data processing and validation procedures.
#
#######################################################################

data_FEZPAC
_symmetry_cell_setting           orthorhombic
_symmetry_space_group_name_H-M   'C m c m'
_symmetry_Int_Tables_number      63
_space_group_name_Hall           '-C 2n 2'
loop_
_symmetry_equiv_pos_site_id
_symmetry_equiv_pos_as_xyz
1 x,y,z
2 1/2+x,1/2+y,z
3 x,-y,-z
4 -x,y,1/2-z
5 -x,-y,1/2+z
6 1/2+x,1/2-y,-z
7 1/2-x,1/2+y,1/2-z
8 1/2-x,1/2-y,1/2+z
9 -x,-y,-z
10 1/2-x,1/2-y,-z
11 -x,y,z
12 x,-y,1/2+z
13 x,y,1/2-z
14 1/2-x,1/2+y,z
15 1/2+x,1/2-y,1/2+z
16 1/2+x,1/2+y,1/2-z
_cell_length_a                   7.8130(5)
_cell_length_b                   11.3864(6)
_cell_length_c                   10.1204(5)
_cell_angle_alpha                90
_cell_angle_beta                 90
_cell_angle_gamma                90
_cell_volume                     900.33
loop_
_atom_site_label
_atom_site_type_symbol
_atom_site_fract_x
_atom_site_fract_y
_atom_site_fract_z
Sm1 Sm -0.5000 0.21273(15) -0.2500
C1 C -0.3722(25) -0.0877(17) -0.2500
C2 C -0.3647(19) 0.3605(12) 0.0496(14)
N1 N -0.5000 -0.0123(17) -0.2500
N2 N -0.2332(17) -0.1284(12) -0.2500
N3 N -0.5000 0.3335(11) -0.0258(15)
N4 N -0.2243(15) 0.3625(9) 0.0949(10)
Sm1N Sm -1.0000 0.28727(15) -0.7500
Sm1N_2 Sm 0.0000 0.28727(15) 0.2500
Sm1N_3 Sm 0.0000 0.28727(15) -0.7500
Sm1N_4 Sm -1.0000 0.28727(15) 0.2500
Sm1A Sm 0.0000 -0.28727(15) -0.2500
Sm1A_2 Sm -1.0000 -0.28727(15) -0.2500
C1J C -0.6278(25) -0.0877(17) -0.2500
C2J C -0.6353(19) 0.3605(12) 0.0496(14)
C2C C -0.6353(19) 0.3605(12) -0.5496(14)
C2L C -0.3647(19) 0.3605(12) -0.5496(14)
N2A N -0.7332(17) 0.3716(12) -0.2500
N2M N -0.2668(17) 0.3716(12) -0.2500
N2J N -0.7668(17) -0.1284(12) -0.2500
N3L N -0.5000 0.3335(11) -0.4742(15)
N4N N -0.7243(15) 0.1375(9) -0.4051(10)
N4I N -0.2757(15) 0.1375(9) -0.0949(10)
N4E N -0.7243(15) 0.1375(9) -0.0949(10)
N4G N -0.2757(15) 0.1375(9) -0.4051(10)
N4J N -0.7757(15) 0.3625(9) 0.0949(10)
N4C N -0.7757(15) 0.3625(9) -0.5949(10)
N4L N -0.2243(15) 0.3625(9) -0.5949(10)
loop_
_geom_bond_atom_site_label_1
_geom_bond_atom_site_label_2
_geom_bond_site_symmetry_1
_geom_bond_site_symmetry_2
Sm1 N1 1_555 1_555
C1 N1 1_555 1_555
C2 N3 1_555 1_555
N1 C1J 1_555 1_555
N2 C1 1_555 1_555
N3 Sm1 1_555 1_555
N4 C2 1_555 1_555
Sm1N N4C 1_555 1_555
Sm1N_2 N4 1_555 1_555
Sm1N_3 N4L 1_555 1_555
Sm1N_4 N4J 1_555 1_555
Sm1A N2 1_555 1_555
Sm1A_2 N2J 1_555 1_555
C1J N2J 1_555 1_555
C2J N3 1_555 1_555
C2C N3L 1_555 1_555
C2L N3L 1_555 1_555
N2A Sm1 1_555 1_555
N2M Sm1 1_555 1_555
N3L Sm1 1_555 1_555
N4N Sm1 1_555 1_555
N4I Sm1 1_555 1_555
N4E Sm1 1_555 1_555
N4G Sm1 1_555 1_555
N4J C2J 1_555 1_555
N4C C2C 1_555 1_555
N4L C2L 1_555 1_555

#END
