
#######################################################################
#
#                 Cambridge Crystallographic Data Centre
#                                CCDC 
#
#######################################################################
#
# If this CIF has been generated from an entry in the Cambridge 
# Structural Database, then it will include bibliographic, chemical, 
# crystal, experimental, refinement or atomic coordinate data resulting 
# from the CCDC's data processing and validation procedures.
#
#######################################################################

data_FEZPEG
_symmetry_cell_setting           orthorhombic
_symmetry_space_group_name_H-M   'C m c m'
_symmetry_Int_Tables_number      63
_space_group_name_Hall           '-C 2n 2'
loop_
_symmetry_equiv_pos_site_id
_symmetry_equiv_pos_as_xyz
1 x,y,z
2 1/2+x,1/2+y,z
3 x,-y,-z
4 -x,y,1/2-z
5 -x,-y,1/2+z
6 1/2+x,1/2-y,-z
7 1/2-x,1/2+y,1/2-z
8 1/2-x,1/2-y,1/2+z
9 -x,-y,-z
10 1/2-x,1/2-y,-z
11 -x,y,z
12 x,-y,1/2+z
13 x,y,1/2-z
14 1/2-x,1/2+y,z
15 1/2+x,1/2-y,1/2+z
16 1/2+x,1/2+y,1/2-z
_cell_length_a                   7.87787(34)
_cell_length_b                   11.4459(4)
_cell_length_c                   10.1554(4)
_cell_angle_alpha                90
_cell_angle_beta                 90
_cell_angle_gamma                90
_cell_volume                     915.705
loop_
_atom_site_label
_atom_site_type_symbol
_atom_site_fract_x
_atom_site_fract_y
_atom_site_fract_z
Nd1 Nd -0.5000 0.21172(11) -0.2500
C1 C -0.3660(17) -0.0889(11) -0.2500
C2 C -0.3626(12) 0.3601(8) 0.0498(9)
N1 N -0.5000 -0.0172(12) -0.2500
N2 N -0.2307(12) -0.1315(8) -0.2500
N3 N -0.5000 0.3371(8) -0.0200(9)
N4 N -0.2282(9) 0.3646(6) 0.0939(6)
Nd1N Nd -1.0000 0.28828(11) -0.7500
Nd1N_2 Nd 0.0000 0.28828(11) 0.2500
Nd1N_3 Nd 0.0000 0.28828(11) -0.7500
Nd1N_4 Nd -1.0000 0.28828(11) 0.2500
Nd1A Nd 0.0000 -0.28828(11) -0.2500
Nd1A_2 Nd -1.0000 -0.28828(11) -0.2500
C1J C -0.6340(17) -0.0889(11) -0.2500
C2J C -0.6374(12) 0.3601(8) 0.0498(9)
C2C C -0.6374(12) 0.3601(8) -0.5498(9)
C2L C -0.3626(12) 0.3601(8) -0.5498(9)
N2A N -0.7307(12) 0.3685(8) -0.2500
N2M N -0.2693(12) 0.3685(8) -0.2500
N2J N -0.7693(12) -0.1315(8) -0.2500
N3L N -0.5000 0.3371(8) -0.4800(9)
N4N N -0.7282(9) 0.1354(6) -0.4061(6)
N4I N -0.2718(9) 0.1354(6) -0.0939(6)
N4E N -0.7282(9) 0.1354(6) -0.0939(6)
N4G N -0.2718(9) 0.1354(6) -0.4061(6)
N4J N -0.7718(9) 0.3646(6) 0.0939(6)
N4C N -0.7718(9) 0.3646(6) -0.5939(6)
N4L N -0.2282(9) 0.3646(6) -0.5939(6)
loop_
_geom_bond_atom_site_label_1
_geom_bond_atom_site_label_2
_geom_bond_site_symmetry_1
_geom_bond_site_symmetry_2
Nd1 N1 1_555 1_555
C1 N1 1_555 1_555
C2 N3 1_555 1_555
N1 C1J 1_555 1_555
N2 C1 1_555 1_555
N3 Nd1 1_555 1_555
N4 C2 1_555 1_555
Nd1N N4C 1_555 1_555
Nd1N_2 N4 1_555 1_555
Nd1N_3 N4L 1_555 1_555
Nd1N_4 N4J 1_555 1_555
Nd1A N2 1_555 1_555
Nd1A_2 N2J 1_555 1_555
C1J N2J 1_555 1_555
C2J N3 1_555 1_555
C2C N3L 1_555 1_555
C2L N3L 1_555 1_555
N2A Nd1 1_555 1_555
N2M Nd1 1_555 1_555
N3L Nd1 1_555 1_555
N4N Nd1 1_555 1_555
N4I Nd1 1_555 1_555
N4E Nd1 1_555 1_555
N4G Nd1 1_555 1_555
N4J C2J 1_555 1_555
N4C C2C 1_555 1_555
N4L C2L 1_555 1_555

#END
