
#######################################################################
#
#                 Cambridge Crystallographic Data Centre
#                                CCDC 
#
#######################################################################
#
# If this CIF has been generated from an entry in the Cambridge 
# Structural Database, then it will include bibliographic, chemical, 
# crystal, experimental, refinement or atomic coordinate data resulting 
# from the CCDC's data processing and validation procedures.
#
#######################################################################

data_FEZPIK
_symmetry_cell_setting           orthorhombic
_symmetry_space_group_name_H-M   'C m c m'
_symmetry_Int_Tables_number      63
_space_group_name_Hall           '-C 2n 2'
loop_
_symmetry_equiv_pos_site_id
_symmetry_equiv_pos_as_xyz
1 x,y,z
2 1/2+x,1/2+y,z
3 x,-y,-z
4 -x,y,1/2-z
5 -x,-y,1/2+z
6 1/2+x,1/2-y,-z
7 1/2-x,1/2+y,1/2-z
8 1/2-x,1/2-y,1/2+z
9 -x,-y,-z
10 1/2-x,1/2-y,-z
11 -x,y,z
12 x,-y,1/2+z
13 x,y,1/2-z
14 1/2-x,1/2+y,z
15 1/2+x,1/2-y,1/2+z
16 1/2+x,1/2+y,1/2-z
_cell_length_a                   7.9045(5)
_cell_length_b                   11.4619(6)
_cell_length_c                   10.1674(6)
_cell_angle_alpha                90
_cell_angle_beta                 90
_cell_angle_gamma                90
_cell_volume                     921.172
loop_
_atom_site_label
_atom_site_type_symbol
_atom_site_fract_x
_atom_site_fract_y
_atom_site_fract_z
Pr1 Pr 0.0000 0.28905(15) 0.2500
C1 C 0.1403(22) 0.5895(14) 0.2500
C2 C 0.1442(17) 0.1410(10) 0.5505(13)
N1 N 0.0000 0.5114(18) 0.2500
N2 N 0.2645(16) 0.6344(11) 0.2500
N3 N 0.0000 0.1608(10) 0.4851(12)
N4 N 0.2709(14) 0.1346(8) 0.6010(10)
Pr1A Pr 0.5000 0.78905(15) 0.2500
Pr1N Pr 0.5000 0.21095(15) 0.7500
Pr1A_2 Pr -0.5000 0.78905(15) 0.2500
Pr1N_2 Pr -0.5000 0.21095(15) 0.7500
Pr1N_3 Pr -0.5000 0.21095(15) -0.2500
Pr1N_4 Pr 0.5000 0.21095(15) -0.2500
C1J C -0.1403(22) 0.5895(14) 0.2500
C2J C -0.1442(17) 0.1410(10) 0.5505(13)
C2L C 0.1442(17) 0.1410(10) -0.0505(13)
C2C C -0.1442(17) 0.1410(10) -0.0505(13)
N2M N 0.2355(16) 0.1344(11) 0.2500
N2A N -0.2355(16) 0.1344(11) 0.2500
N2J N -0.2645(16) 0.6344(11) 0.2500
N3L N 0.0000 0.1608(10) 0.0149(12)
N4I N 0.2291(14) 0.3654(8) 0.3990(10)
N4E N -0.2291(14) 0.3654(8) 0.3990(10)
N4G N 0.2291(14) 0.3654(8) 0.1010(10)
N4N N -0.2291(14) 0.3654(8) 0.1010(10)
N4J N -0.2709(14) 0.1346(8) 0.6010(10)
N4L N 0.2709(14) 0.1346(8) -0.1010(10)
N4C N -0.2709(14) 0.1346(8) -0.1010(10)
loop_
_geom_bond_atom_site_label_1
_geom_bond_atom_site_label_2
_geom_bond_site_symmetry_1
_geom_bond_site_symmetry_2
Pr1 N1 1_555 1_555
C1 N1 1_555 1_555
C2 N3 1_555 1_555
N1 C1J 1_555 1_555
N2 C1 1_555 1_555
N3 Pr1 1_555 1_555
N4 C2 1_555 1_555
Pr1A N2 1_555 1_555
Pr1N N4 1_555 1_555
Pr1A_2 N2J 1_555 1_555
Pr1N_2 N4J 1_555 1_555
Pr1N_3 N4C 1_555 1_555
Pr1N_4 N4L 1_555 1_555
C1J N2J 1_555 1_555
C2J N3 1_555 1_555
C2L N3L 1_555 1_555
C2C N3L 1_555 1_555
N2M Pr1 1_555 1_555
N2A Pr1 1_555 1_555
N3L Pr1 1_555 1_555
N4I Pr1 1_555 1_555
N4E Pr1 1_555 1_555
N4G Pr1 1_555 1_555
N4N Pr1 1_555 1_555
N4J C2J 1_555 1_555
N4L C2L 1_555 1_555
N4C C2C 1_555 1_555

#END
