
#######################################################################
#
#                 Cambridge Crystallographic Data Centre
#                                CCDC 
#
#######################################################################
#
# If this CIF has been generated from an entry in the Cambridge 
# Structural Database, then it will include bibliographic, chemical, 
# crystal, experimental, refinement or atomic coordinate data resulting 
# from the CCDC's data processing and validation procedures.
#
#######################################################################

data_FEZREJ
_symmetry_cell_setting           tetragonal
_symmetry_space_group_name_H-M   'P 43 21 2'
_symmetry_Int_Tables_number      96
_space_group_name_Hall           'P 4nw 2abw'
loop_
_symmetry_equiv_pos_site_id
_symmetry_equiv_pos_as_xyz
1 x,y,z
2 -x,-y,1/2+z
3 1/2-y,1/2+x,3/4+z
4 1/2+y,1/2-x,1/4+z
5 1/2-x,1/2+y,3/4-z
6 1/2+x,1/2-y,1/4-z
7 y,x,-z
8 -y,-x,1/2-z
_cell_length_a                   17.7647(2)
_cell_length_b                   17.7647(2)
_cell_length_c                   13.3815(3)
_cell_angle_alpha                90
_cell_angle_beta                 90
_cell_angle_gamma                90
_cell_volume                     4222.99
loop_
_atom_site_label
_atom_site_type_symbol
_atom_site_fract_x
_atom_site_fract_y
_atom_site_fract_z
Ba1 Ba -0.135881(19) 0.38573(2) 0.82207(3)
C1 C -0.0823(4) 0.5739(4) 0.7416(6)
C2 C -0.0426(6) 0.7009(5) 0.7218(8)
H1 H -0.0247 0.6925 0.7886
H2 H -0.0778 0.7419 0.7219
H3 H -0.0009 0.7129 0.6791
C3 C -0.1102(6) 0.6359(6) 0.5870(6)
H4 H -0.1329 0.5880 0.5728
H5 H -0.0711 0.6458 0.5393
H6 H -0.1478 0.6747 0.5828
C4 C -0.0348(17) 0.2032(19) 0.8051(18)
C5 C 0.0731(12) 0.1216(14) 0.7861(15)
H7 H 0.0802 0.1403 0.7194
H8 H 0.0602 0.0692 0.7835
H9 H 0.1187 0.1279 0.8236
C6 C -0.0013(14) 0.1358(16) 0.9346(13)
H10 H -0.0438 0.1621 0.9617
H11 H 0.0421 0.1448 0.9757
H12 H -0.0118 0.0828 0.9328
O1 O -0.1127(3) 0.5153(3) 0.7155(4)
O2 O -0.1260(3) 0.4940(2) 0.9745(3)
O3 O -0.1051(4) 0.3831(3) 1.0343(4)
O4 O -0.0765(4) 0.4818(3) 1.1198(4)
O5 O -0.0778(4) 0.2453(4) 0.8357(6)
N1 N -0.0787(4) 0.6348(3) 0.6863(4)
N2 N -0.1029(3) 0.4519(3) 1.0446(4)
N3 N 0.0135(7) 0.1626(7) 0.8335(9)
Cd1 Cd -0.33432(3) 0.33432(3) 0.7500
C7 C -0.3088(3) 0.5675(3) 0.7142(4)
C8 C -0.2682(3) 0.6094(3) 0.7845(4)
H13 H -0.2419 0.5846 0.8348
C9 C -0.2667(4) 0.6873(3) 0.7804(4)
C10 C -0.3042(4) 0.7243(4) 0.7025(4)
H14 H -0.3029 0.7766 0.6988
C11 C -0.3435(4) 0.6834(4) 0.6307(5)
H15 H -0.3676 0.7079 0.5783
C12 C -0.3463(4) 0.6047(4) 0.6383(4)
H16 H -0.3737 0.5772 0.5917
C13 C -0.3133(4) 0.4842(3) 0.7229(4)
C14 C -0.2255(3) 0.7308(3) 0.8573(4)
O6 O -0.2773(2) 0.4523(2) 0.7919(3)
O7 O -0.3532(3) 0.4479(2) 0.6626(3)
O8 O -0.1793(3) 0.6983(3) 0.9124(3)
O9 O -0.2396(2) 0.8010(2) 0.8657(3)
Ba1G Ba -0.38573(2) 0.135881(19) 0.67793(3)
C1G C -0.5739(4) 0.0823(4) 0.7584(6)
C2G C -0.7009(5) 0.0426(6) 0.7782(8)
H1G H -0.6925 0.0247 0.7114
H2G H -0.7419 0.0778 0.7781
H3G H -0.7129 0.0009 0.8209
C3G C -0.6359(6) 0.1102(6) 0.9130(6)
H4G H -0.5880 0.1329 0.9272
H5G H -0.6458 0.0711 0.9607
H6G H -0.6747 0.1478 0.9172
C4G C -0.2032(19) 0.0348(17) 0.6949(18)
C5G C -0.1216(14) -0.0731(12) 0.7139(15)
H7G H -0.1403 -0.0802 0.7806
H8G H -0.0692 -0.0602 0.7165
H9G H -0.1279 -0.1187 0.6764
C6G C -0.1358(16) 0.0013(14) 0.5654(13)
H10G H -0.1621 0.0438 0.5383
H11G H -0.1448 -0.0421 0.5243
H12G H -0.0828 0.0118 0.5672
O1G O -0.5153(3) 0.1127(3) 0.7845(4)
O2G O -0.4940(2) 0.1260(3) 0.5255(3)
O3G O -0.3831(3) 0.1051(4) 0.4657(4)
O4G O -0.4818(3) 0.0765(4) 0.3802(4)
O5G O -0.2453(4) 0.0778(4) 0.6643(6)
N1G N -0.6348(3) 0.0787(4) 0.8137(4)
N2G N -0.4519(3) 0.1029(3) 0.4554(4)
N3G N -0.1626(7) -0.0135(7) 0.6665(9)
C7G C -0.5675(3) 0.3088(3) 0.7858(4)
C8G C -0.6094(3) 0.2682(3) 0.7155(4)
H13G H -0.5846 0.2419 0.6652
C9G C -0.6873(3) 0.2667(4) 0.7196(4)
C10G C -0.7243(4) 0.3042(4) 0.7975(4)
H14G H -0.7766 0.3029 0.8012
C11G C -0.6834(4) 0.3435(4) 0.8693(5)
H15G H -0.7079 0.3676 0.9217
C12G C -0.6047(4) 0.3463(4) 0.8617(4)
H16G H -0.5772 0.3737 0.9083
C13G C -0.4842(3) 0.3133(4) 0.7771(4)
C14G C -0.7308(3) 0.2255(3) 0.6427(4)
O6G O -0.4523(2) 0.2773(2) 0.7081(3)
O7G O -0.4479(2) 0.3532(3) 0.8374(3)
O8G O -0.6983(3) 0.1793(3) 0.5876(3)
O9G O -0.8010(2) 0.2396(2) 0.6343(3)
Ba1B Ba -0.88573(2) 0.364119(19) 0.57207(3)
Ba1C Ba -0.11427(2) 0.635881(19) 1.07207(3)
Ba1D Ba -0.364119(19) 0.88573(2) 0.92793(3)
Ba1E Ba -0.635881(19) 0.11427(2) 0.42793(3)
O2B O 0.0060(2) 0.3740(3) 0.7245(3)
O2D O -0.3740(3) -0.0060(2) 0.7755(3)
O4B O 0.0182(3) 0.4235(4) 0.8698(4)
O4D O -0.4235(4) -0.0182(3) 0.6302(4)
Cd1B Cd -0.83432(3) 0.16568(3) 0.5000
Cd1C Cd -0.16568(3) 0.83432(3) 1.0000
O8B O -0.1983(3) 0.3207(3) 0.6624(3)
O8D O -0.3207(3) 0.1983(3) 0.8376(3)
O9B O -0.3010(2) 0.2604(2) 0.6157(3)
O9D O -0.2604(2) 0.3010(2) 0.8843(3)
loop_
_geom_bond_atom_site_label_1
_geom_bond_atom_site_label_2
_geom_bond_site_symmetry_1
_geom_bond_site_symmetry_2
Ba1 O1 1_555 1_555
C1 O1 1_555 1_555
C2 H1 1_555 1_555
H2 C2 1_555 1_555
H3 C2 1_555 1_555
C3 H4 1_555 1_555
H5 C3 1_555 1_555
H6 C3 1_555 1_555
C4 O5 1_555 1_555
C5 H7 1_555 1_555
H8 C5 1_555 1_555
H9 C5 1_555 1_555
C6 H10 1_555 1_555
H11 C6 1_555 1_555
H12 C6 1_555 1_555
O2 Ba1 1_555 1_555
O3 Ba1 1_555 1_555
O4 N2 1_555 1_555
O5 Ba1 1_555 1_555
N1 C1 1_555 1_555
N2 O2 1_555 1_555
N3 C4 1_555 1_555
Cd1 O6 1_555 1_555
C7 C8 1_555 1_555
C8 H13 1_555 1_555
C9 C8 1_555 1_555
C10 C9 1_555 1_555
H14 C10 1_555 1_555
C11 C10 1_555 1_555
H15 C11 1_555 1_555
C12 C7 1_555 1_555
H16 C12 1_555 1_555
C13 C7 1_555 1_555
C14 C9 1_555 1_555
O6 Ba1 1_555 1_555
O7 Cd1 1_555 1_555
O8 C14 1_555 1_555
O9 C14 1_555 1_555
Ba1G O1G 1_555 1_555
C1G O1G 1_555 1_555
C2G H1G 1_555 1_555
H2G C2G 1_555 1_555
H3G C2G 1_555 1_555
C3G H4G 1_555 1_555
H5G C3G 1_555 1_555
H6G C3G 1_555 1_555
C4G O5G 1_555 1_555
C5G H7G 1_555 1_555
H8G C5G 1_555 1_555
H9G C5G 1_555 1_555
C6G H10G 1_555 1_555
H11G C6G 1_555 1_555
H12G C6G 1_555 1_555
O2G Ba1G 1_555 1_555
O3G Ba1G 1_555 1_555
O4G N2G 1_555 1_555
O5G Ba1G 1_555 1_555
N1G C1G 1_555 1_555
N2G O2G 1_555 1_555
N3G C4G 1_555 1_555
C7G C8G 1_555 1_555
C8G H13G 1_555 1_555
C9G C8G 1_555 1_555
C10G C9G 1_555 1_555
H14G C10G 1_555 1_555
C11G C10G 1_555 1_555
H15G C11G 1_555 1_555
C12G C7G 1_555 1_555
H16G C12G 1_555 1_555
C13G C7G 1_555 1_555
C14G C9G 1_555 1_555
O6G Cd1 1_555 1_555
O7G Cd1 1_555 1_555
O8G C14G 1_555 1_555
O9G C14G 1_555 1_555
Ba1B O9G 1_555 1_555
Ba1C O2 1_555 1_555
Ba1D O9 1_555 1_555
Ba1E O2G 1_555 1_555
O2B Ba1 1_555 1_555
O2D Ba1G 1_555 1_555
O4B Ba1 1_555 1_555
O4D Ba1G 1_555 1_555
Cd1B O8G 1_555 1_555
Cd1C O8 1_555 1_555
O8B Ba1 1_555 1_555
O8D Cd1 1_555 1_555
O9B Cd1 1_555 1_555
O9D Ba1 1_555 1_555
C2 N1 1_555 1_555
C3 N1 1_555 1_555
C5 N3 1_555 1_555
C6 N3 1_555 1_555
O3 N2 1_555 1_555
O4 Ba1C 1_555 1_555
Cd1 O8B 1_555 1_555
Cd1 O9D 1_555 1_555
C11 C12 1_555 1_555
C13 O6 1_555 1_555
C13 O7 1_555 1_555
O8 Ba1C 1_555 1_555
O9 Cd1C 1_555 1_555
Ba1G O6G 1_555 1_555
Ba1G O8D 1_555 1_555
Ba1G O9B 1_555 1_555
C2G N1G 1_555 1_555
C3G N1G 1_555 1_555
C5G N3G 1_555 1_555
C6G N3G 1_555 1_555
O3G N2G 1_555 1_555
O4G Ba1E 1_555 1_555
C11G C12G 1_555 1_555
C13G O6G 1_555 1_555
C13G O7G 1_555 1_555
O8G Ba1E 1_555 1_555
O9G Cd1B 1_555 1_555

#END
