
#######################################################################
#
#                 Cambridge Crystallographic Data Centre
#                                CCDC 
#
#######################################################################
#
# If this CIF has been generated from an entry in the Cambridge 
# Structural Database, then it will include bibliographic, chemical, 
# crystal, experimental, refinement or atomic coordinate data resulting 
# from the CCDC's data processing and validation procedures.
#
#######################################################################

data_FEZSAF
_symmetry_cell_setting           triclinic
_symmetry_space_group_name_H-M   'P -1'
_symmetry_Int_Tables_number      2
_space_group_name_Hall           '-P 1'
loop_
_symmetry_equiv_pos_site_id
_symmetry_equiv_pos_as_xyz
1 x,y,z
2 -x,-y,-z
_cell_length_a                   18.720(4)
_cell_length_b                   19.474(4)
_cell_length_c                   19.815(4)
_cell_angle_alpha                96.30(3)
_cell_angle_beta                 96.07(3)
_cell_angle_gamma                90.12(3)
_cell_volume                     7139.06
loop_
_atom_site_label
_atom_site_type_symbol
_atom_site_fract_x
_atom_site_fract_y
_atom_site_fract_z
W1 W -0.81662(3) 0.09621(3) -0.14651(3)
W2 W -0.88227(3) -0.08677(3) -0.16327(3)
W3 W -0.65310(3) 0.01597(3) -0.39709(3)
W4 W -0.68954(3) -0.04697(3) -0.10639(2)
W5 W -0.83387(3) -0.20544(3) -0.29163(3)
W6 W -0.57939(3) 0.00253(3) -0.21945(3)
W7 W -0.71406(3) -0.15175(3) -0.41448(3)
W8 W -0.64035(3) -0.16482(3) -0.23497(3)
W9 W -0.70577(3) 0.14613(3) -0.25672(3)
W10 W -0.83251(3) -0.01935(3) -0.45054(3)
W11 W -0.94961(3) -0.07207(3) -0.32995(3)
Co1 Co -0.87758(9) 0.10181(10) -0.30770(9)
Ag1 Ag -0.76997(9) -0.21950(9) -0.12318(8)
Ag2 Ag -0.77889(9) 0.16568(9) -0.41807(7)
Ag3 Ag -0.47140(6) 0.09562(7) -0.47956(6)
Ag4 Ag -0.97093(6) -0.91100(7) 0.01030(6)
Ag5 Ag -0.63502(7) -0.99523(8) 0.14379(8)
P1 P -0.76423(15) -0.03123(16) -0.27553(14)
O1 O -0.7481(4) -0.0406(4) -0.3501(4)
O2 O -0.6984(4) -0.0512(4) -0.2293(4)
O3 O -0.7827(4) 0.0445(5) -0.2556(4)
O4 O -0.8272(4) -0.0782(4) -0.2672(4)
O5 O -0.6818(5) 0.0953(4) -0.3444(4)
O6 O -0.5957(4) -0.0059(5) -0.3165(4)
O7 O -0.6687(5) -0.0512(5) -0.0194(4)
O8 O -0.7358(5) 0.0349(5) -0.1121(4)
O9 O -0.6563(5) 0.2186(6) -0.2489(6)
O10 O -0.7405(4) 0.1540(5) -0.1694(4)
O11 O -0.8321(6) 0.1376(5) -0.0703(4)
O12 O -0.8769(5) -0.0136(5) -0.5296(5)
O13 O -0.8820(4) 0.1290(5) -0.2050(4)
O14 O -1.0365(5) -0.0861(5) -0.3648(4)
O15 O -0.8647(5) -0.1812(5) -0.2012(4)
O16 O -1.0722(5) -0.8983(5) 0.0954(5)
O17 O -0.7843(4) -0.1109(5) -0.4699(4)
O18 O -0.5911(5) 0.0496(5) -0.4415(4)
O19 O -0.6515(4) -0.1359(5) -0.1409(4)
O20 O -0.5666(4) -0.0962(4) -0.2294(4)
O21 O -0.7362(4) -0.1986(5) -0.2435(4)
O22 O -0.5086(4) -1.0292(5) 0.2029(5)
O23 O -0.7823(4) -0.0907(5) -0.1235(4)
O24 O -0.6558(4) -0.1601(5) -0.3307(4)
O25 O -0.9414(4) 0.0181(4) -0.3084(4)
O26 O -0.6017(4) -0.0078(5) -0.1285(4)
O27 O -0.6323(4) 0.0828(4) -0.2199(4)
O28 O -0.8980(4) -0.0720(4) -0.4076(4)
O29 O -0.9584(4) -0.0829(5) -0.2330(4)
O30 O -0.6475(4) -0.0812(5) -0.4290(4)
O31 O -0.5887(5) -0.2365(5) -0.2274(5)
O32 O -0.8485(5) -0.2923(5) -0.3016(5)
O33 O -0.7862(4) -0.1915(4) -0.3704(4)
O34 O -0.7372(4) 0.0188(5) -0.4593(4)
O35 O -0.8500(5) 0.0599(4) -0.4007(4)
O36 O -0.6891(5) -0.2203(5) -0.4678(5)
O37 O -0.9191(4) -0.1726(5) -0.3302(4)
O38 O -0.7891(5) 0.1685(5) -0.3013(4)
O39 O -0.8687(4) 0.0093(5) -0.1484(4)
C1 C -0.9456(8) 0.2367(8) -0.3312(7)
H1 H -0.9185 0.2511 -0.2899
C2 C -0.9835(7) 0.2857(8) -0.3663(8)
H2 H -0.9794 0.3321 -0.3491
C3 C -1.0271(8) 0.2662(8) -0.4265(7)
C4 C -1.0273(8) 0.1967(9) -0.4499(7)
H3 H -1.0545 0.1805 -0.4906
C5 C -0.9882(8) 0.1520(8) -0.4138(7)
H4 H -0.9900 0.1057 -0.4313
C6 C -1.0661(8) 0.3183(9) -0.4635(8)
C7 C -1.0483(8) 0.3838(8) -0.4459(9)
H5 H -1.0134 0.3961 -0.4095
C8 C -1.0796(10) 0.4309(10) -0.4792(11)
H6 H -1.0625 0.4760 -0.4676
C9 C -1.1371(8) 0.4203(9) -0.5314(7)
C10 C -1.1589(9) 0.3524(9) -0.5458(8)
H7 H -1.1975 0.3408 -0.5787
C11 C -1.1691(9) 0.4780(9) -0.5694(9)
C12 C -1.1325(12) 0.5398(10) -0.5675(10)
H8 H -1.0863 0.5453 -0.5451
C13 C -1.1638(14) 0.5925(11) -0.5983(10)
H9 H -1.1379 0.6336 -0.5962
C14 C -1.2298(12) 0.5887(12) -0.6315(11)
C15 C -1.2658(13) 0.5265(15) -0.6334(14)
H10 H -1.3127 0.5220 -0.6542
C16 C -1.2354(10) 0.4729(11) -0.6064(12)
H11 H -1.2598 0.4306 -0.6128
C17 C -0.6614(13) -0.2393(11) 0.0022(12)
H12 H -0.6472 -0.1951 -0.0047
C18 C -0.6202(13) -0.2707(11) 0.0499(11)
H13 H -0.5784 -0.2498 0.0727
C19 C -0.6431(13) -0.3360(12) 0.0638(12)
C20 C -0.7081(12) -0.3636(12) 0.0290(11)
H14 H -0.7270 -0.4047 0.0398
C21 C -0.7435(13) -0.3286(11) -0.0215(11)
H15 H -0.7845 -0.3488 -0.0465
C22 C -0.6022(11) -0.3765(12) 0.1145(10)
C23 C -0.6196(11) -0.4418(9) 0.1103(9)
H16 H -0.6536 -0.4613 0.0759
C24 C -0.5878(11) -0.4795(11) 0.1558(10)
H17 H -0.6012 -0.5258 0.1531
C25 C -0.5335(13) -0.4528(12) 0.2094(10)
C26 C -0.5157(15) -0.3829(13) 0.2132(12)
H18 H -0.4799 -0.3630 0.2457
C27 C -0.5027(10) -0.5007(10) 0.2599(9)
C28 C -0.4931(12) -0.5679(11) 0.2406(11)
H19 H -0.5077 -0.5854 0.1956
C29 C -0.4616(12) -0.6130(11) 0.2859(11)
H20 H -0.4549 -0.6593 0.2712
C30 C -0.4422(12) -0.5882(13) 0.3487(14)
C31 C -0.4568(15) -0.5178(14) 0.3741(11)
H21 H -0.4468 -0.5006 0.4198
C32 C -0.4853(14) -0.4799(13) 0.3272(12)
H22 H -0.4944 -0.4340 0.3419
C33 C -0.7826(9) 0.2809(11) -0.5153(9)
H23 H -0.7382 0.2937 -0.4915
C34 C -0.8152(8) 0.3252(9) -0.5584(8)
H24 H -0.7913 0.3654 -0.5651
C35 C -0.8832(8) 0.3107(8) -0.5919(7)
C36 C -0.9105(8) 0.2469(8) -0.5817(8)
H25 H -0.9551 0.2325 -0.6041
C37 C -0.8740(9) 0.2042(9) -0.5396(8)
H26 H -0.8947 0.1618 -0.5348
C38 C -0.9206(8) 0.3603(9) -0.6320(8)
C39 C -0.8838(7) 0.4122(8) -0.6478(8)
H27 H -0.8348 0.4157 -0.6338
C40 C -0.9134(9) 0.4575(10) -0.6816(10)
H28 H -0.8847 0.4937 -0.6907
C41 C -0.9881(9) 0.4576(10) -0.7072(8)
C42 C -1.0272(9) 0.4022(10) -0.6925(9)
H29 H -1.0760 0.3983 -0.7071
C43 C -1.0211(9) 0.5123(9) -0.7452(9)
C44 C -0.9847(12) 0.5507(12) -0.7870(12)
H30 H -0.9365 0.5416 -0.7911
C45 C -1.0177(12) 0.6021(13) -0.8230(13)
H31 H -0.9908 0.6253 -0.8505
C46 C -1.0841(11) 0.6186(10) -0.8192(10)
C47 C -1.1197(13) 0.5872(12) -0.7777(12)
H32 H -1.1667 0.6002 -0.7723
C48 C -1.0878(12) 0.5320(11) -0.7390(12)
H33 H -1.1149 0.5110 -0.7102
C49 C -1.0112(9) -0.8378(13) -0.1141(9)
H34 H -0.9697 -0.8600 -0.1264
C50 C -1.0434(9) -0.7958(12) -0.1575(10)
H35 H -1.0227 -0.7890 -0.1969
C51 C -1.1050(8) -0.7634(8) -0.1450(8)
C52 C -1.1292(10) -0.7763(9) -0.0831(8)
H36 H -1.1717 -0.7564 -0.0707
C53 C -1.0916(8) -0.8179(8) -0.0398(8)
H37 H -1.1083 -0.8231 0.0019
C54 C -1.1428(9) -0.7171(10) -0.1907(9)
C55 C -1.1283(9) -0.7154(10) -0.2534(8)
H38 H -1.0940 -0.7453 -0.2701
C56 C -1.1607(9) -0.6722(11) -0.2946(10)
H39 H -1.1465 -0.6706 -0.3380
C57 C -1.2153(9) -0.6297(10) -0.2734(8)
C58 C -1.2305(13) -0.6360(12) -0.2098(11)
H40 H -1.2679 -0.6100 -0.1936
C59 C -1.2558(8) -0.5825(10) -0.3160(9)
C60 C -1.2609(11) -0.5940(12) -0.3860(10)
H41 H -1.2416 -0.6339 -0.4066
C61 C -1.2941(11) -0.5476(15) -0.4261(10)
H42 H -1.2941 -0.5539 -0.4733
C62 C -1.3278(9) -0.4905(11) -0.3939(10)
C63 C -1.3271(13) -0.4765(13) -0.3244(11)
H43 H -1.3492 -0.4381 -0.3038
C64 C -1.2899(12) -0.5255(11) -0.2866(10)
H44 H -1.2882 -0.5190 -0.2393
C65 C -0.8416(8) -1.0030(8) 0.0425(7)
H45 H -0.8333 -0.9971 -0.0020
C66 C -0.7924(7) -1.0402(8) 0.0799(6)
H46 H -0.7517 -1.0570 0.0609
C67 C -0.8027(7) -1.0529(8) 0.1451(7)
C68 C -0.8666(7) -1.0249(8) 0.1706(6)
H47 H -0.8780 -1.0323 0.2138
C69 C -0.9104(7) -0.9868(8) 0.1296(7)
H48 H -0.9507 -0.9677 0.1476
C70 C -0.7516(10) -1.0907(10) 0.1874(9)
C71 C -0.7744(7) -1.1314(8) 0.2364(7)
H49 H -0.8229 -1.1342 0.2425
C72 C -0.7255(7) -1.1660(8) 0.2742(7)
H50 H -0.7408 -1.1902 0.3080
C73 C -0.6557(8) -1.1665(8) 0.2645(7)
C74 C -0.6370(8) -1.1266(8) 0.2146(8)
H51 H -0.5889 -1.1256 0.2066
C75 C -0.5996(8) -1.2011(8) 0.3066(7)
C76 C -0.5266(9) -1.1906(11) 0.3066(8)
H52 H -0.5104 -1.1610 0.2776
C77 C -0.4781(9) -1.2226(11) 0.3479(9)
H53 H -0.4293 -1.2142 0.3470
C78 C -0.4998(9) -1.2669(8) 0.3909(8)
C79 C -0.5684(10) -1.2765(11) 0.3960(11)
H54 H -0.5827 -1.3033 0.4284
C80 C -0.6197(11) -1.2465(11) 0.3527(11)
H55 H -0.6681 -1.2565 0.3540
C81 C -0.5018(9) 0.1707(11) -0.6056(9)
H56 H -0.4526 0.1641 -0.6059
C82 C -0.5360(8) 0.2030(10) -0.6569(9)
H57 H -0.5114 0.2145 -0.6926
C83 C -0.6099(7) 0.2192(8) -0.6553(7)
C84 C -0.6417(7) 0.1959(8) -0.6016(7)
H58 H -0.6900 0.2046 -0.5979
C85 C -0.6043(7) 0.1608(8) -0.5544(7)
H59 H -0.6283 0.1451 -0.5202
C86 C -0.6482(9) 0.2583(9) -0.7087(7)
C87 C -0.7129(8) 0.2789(9) -0.6975(8)
H60 H -0.7342 0.2687 -0.6594
C88 C -0.7471(10) 0.3161(11) -0.7455(9)
H61 H -0.7921 0.3330 -0.7370
C89 C -0.7222(9) 0.3313(9) -0.8044(9)
C90 C -0.6558(9) 0.3056(10) -0.8123(9)
H62 H -0.6348 0.3128 -0.8515
C91 C -0.7602(10) 0.3719(10) -0.8544(10)
C92 C -0.8177(15) 0.4073(16) -0.8425(14)
H63 H -0.8394 0.4040 -0.8029
C93 C -0.8479(17) 0.4531(16) -0.8935(16)
H64 H -0.8836 0.4842 -0.8826
C94 C -0.8253(16) 0.4497(14) -0.9514(15)
C95 C -0.7746(14) 0.4140(17) -0.9612(14)
H65 H -0.7561 0.4151 -1.0028
C96 C -0.7407(14) 0.3708(14) -0.9164(12)
H66 H -0.7046 0.3415 -0.9303
C97 C -0.3295(7) 0.0461(8) -0.4097(6)
H67 H -0.3108 0.0727 -0.4401
C98 C -0.2842(8) 0.0102(8) -0.3713(7)
H68 H -0.2352 0.0124 -0.3756
C99 C -0.3084(13) -0.0303(10) -0.3250(10)
C100 C -0.3817(7) -0.0270(8) -0.3194(7)
H69 H -0.4015 -0.0503 -0.2871
C101 C -0.4242(7) 0.0102(7) -0.3607(6)
H70 H -0.4732 0.0105 -0.3564
C102 C -0.2591(7) -0.0735(8) -0.2848(7)
C103 C -0.1944(7) -0.0959(8) -0.3081(8)
H71 H -0.1812 -0.0853 -0.3497
C104 C -0.2369(8) -0.1300(8) -0.1902(7)
H72 H -0.2523 -0.1421 -0.1499
C105 C -0.1707(7) -0.1540(8) -0.2061(7)
C106 C -0.1499(8) -0.1353(9) -0.2657(8)
H73 H -0.1053 -0.1490 -0.2786
C107 C -0.1247(8) -0.1994(9) -0.1637(8)
C108 C -0.0630(11) -0.2296(12) -0.1860(11)
H74 H -0.0504 -0.2203 -0.2283
C109 C -0.0184(13) -0.2732(14) -0.1490(13)
H75 H 0.0212 -0.2951 -0.1659
C110 C -0.0377(13) -0.2805(10) -0.0881(12)
C111 C -0.0948(12) -0.2504(11) -0.0593(11)
H76 H -0.1052 -0.2582 -0.0159
C112 C -0.1359(10) -0.2080(10) -0.0982(9)
H77 H -0.1731 -0.1841 -0.0790
C113 C -0.5565(9) -0.8635(9) 0.1090(8)
H78 H -0.5212 -0.8733 0.1432
C114 C -0.5480(9) -0.8030(9) 0.0786(8)
H79 H -0.5107 -0.7720 0.0951
C115 C -0.5953(9) -0.7900(8) 0.0244(8)
C116 C -0.6518(10) -0.8377(8) 0.0055(8)
H80 H -0.6864 -0.8306 -0.0302
C117 C -0.6560(9) -0.8950(8) 0.0397(7)
H81 H -0.6928 -0.9270 0.0249
C118 C -0.5928(11) -0.7267(9) -0.0107(8)
C119 C -0.6183(19) -0.7293(12) -0.0789(11)
H82 H -0.6331 -0.7707 -0.1046
C120 C -0.6206(12) -0.6687(11) -0.1065(10)
H83 H -0.6293 -0.6701 -0.1537
C121 C -0.6110(12) -0.6056(10) -0.0692(10)
C122 C -0.5817(10) -0.6086(9) -0.0058(8)
H84 H -0.5655 -0.5671 0.0188
C123 C -0.6319(12) -0.5443(11) -0.1003(11)
C124 C -0.5997(11) -0.4823(11) -0.0833(11)
H85 H -0.5608 -0.4781 -0.0497
C125 C -0.6235(12) -0.4209(11) -0.1157(13)
H86 H -0.5996 -0.3786 -0.1045
C126 C -0.6795(13) -0.4281(11) -0.1608(11)
C127 C -0.7188(10) -0.4856(10) -0.1736(9)
H87 H -0.7631 -0.4858 -0.1997
C128 C -0.6938(12) -0.5447(10) -0.1482(9)
H88 H -0.7181 -0.5862 -0.1628
N1 N -0.9470(6) 0.1697(6) -0.3548(5)
N2 N -1.1248(8) 0.3012(9) -0.5123(8)
N3 N -0.7210(9) -0.2659(9) -0.0363(9)
N4 N -0.5542(14) -0.3429(11) 0.1654(11)
N5 N -0.8114(7) 0.2209(8) -0.5061(6)
N6 N -0.9945(9) 0.3526(9) -0.6565(10)
N7 N -1.0338(6) -0.8500(8) -0.0557(6)
N8 N -1.1946(10) -0.6785(10) -0.1669(8)
N9 N -0.9009(6) -0.9746(6) 0.0661(6)
N10 N -0.6835(6) -1.0890(6) 0.1766(6)
N11 N -0.5329(6) 0.1475(7) -0.5549(6)
N12 N -0.6180(8) 0.2690(10) -0.7645(7)
N13 N -0.4007(6) 0.0459(6) -0.4067(5)
N14 N -0.2799(6) -0.0921(6) -0.2264(6)
N15 N -0.6095(6) -0.9068(6) 0.0934(6)
N16 N -0.5728(8) -0.6664(8) 0.0270(7)
Br1 Br -1.27218(15) 0.66168(13) -0.67519(12)
Br2 Br -0.40225(16) -0.64854(16) 0.41185(17)
Br3 Br -1.13040(15) 0.68772(13) -0.86347(14)
Br4 Br -1.37631(15) -0.42513(14) -0.44683(14)
Br5 Br -0.43041(11) -1.31225(11) 0.44614(10)
Br6 Br -0.87771(19) 0.50661(18) -1.01243(19)
Br7 Br 0.01851(17) -0.34614(14) -0.03658(15)
Br8 Br -0.71313(17) -0.35239(14) -0.20816(15)
W2A W -1.11773(3) -0.91323(3) 0.16327(3)
W6A W -0.42061(3) -1.00253(3) 0.21945(3)
O16A O -0.9278(5) -0.1017(5) -0.0954(5)
O22A O -0.4914(4) 0.0292(5) -0.2029(5)
O40 O -0.0938(6) 0.0688(7) 0.6746(6)
O41 O -0.8203(11) 0.8188(11) 0.3938(10)
O42 O -0.5283(13) 0.9488(13) 0.0334(12)
loop_
_geom_bond_atom_site_label_1
_geom_bond_atom_site_label_2
_geom_bond_site_symmetry_1
_geom_bond_site_symmetry_2
W1 O3 1_555 1_555
W2 O4 1_555 1_555
W3 O1 1_555 1_555
W4 O2 1_555 1_555
W5 O4 1_555 1_555
W6 O2 1_555 1_555
W7 O1 1_555 1_555
W8 O2 1_555 1_555
W9 O3 1_555 1_555
W10 O1 1_555 1_555
W11 O4 1_555 1_555
Co1 O3 1_555 1_555
Ag1 O15 1_555 1_555
Ag2 O35 1_555 1_555
Ag3 O18 1_555 1_555
Ag4 O16 1_555 1_555
Ag5 O22 1_555 1_555
P1 O1 1_555 1_555
O2 P1 1_555 1_555
O3 P1 1_555 1_555
O4 P1 1_555 1_555
O5 W3 1_555 1_555
O6 W3 1_555 1_555
O7 W4 1_555 1_555
O8 W1 1_555 1_555
O9 W9 1_555 1_555
O10 W1 1_555 1_555
O11 W1 1_555 1_555
O12 W10 1_555 1_555
O13 W1 1_555 1_555
O14 W11 1_555 1_555
O15 W2 1_555 1_555
O16 W2A 1_555 1_555
O17 W7 1_555 1_555
O18 W3 1_555 1_555
O19 W4 1_555 1_555
O20 W6 1_555 1_555
O21 W5 1_555 1_555
O22 W6A 1_555 1_555
O23 W2 1_555 1_555
O24 W7 1_555 1_555
O25 W11 1_555 1_555
O26 W4 1_555 1_555
O27 W6 1_555 1_555
O28 W10 1_555 1_555
O29 W2 1_555 1_555
O30 W3 1_555 1_555
O31 W8 1_555 1_555
O32 W5 1_555 1_555
O33 W5 1_555 1_555
O34 W3 1_555 1_555
O35 W10 1_555 1_555
O36 W7 1_555 1_555
O37 W5 1_555 1_555
O38 W9 1_555 1_555
O39 W1 1_555 1_555
C1 H1 1_555 1_555
C2 C1 1_555 1_555
H2 C2 1_555 1_555
C3 C2 1_555 1_555
C4 C3 1_555 1_555
H3 C4 1_555 1_555
C5 C4 1_555 1_555
H4 C5 1_555 1_555
C6 C3 1_555 1_555
C7 C6 1_555 1_555
H5 C7 1_555 1_555
C8 C7 1_555 1_555
H6 C8 1_555 1_555
C9 C8 1_555 1_555
C10 C9 1_555 1_555
H7 C10 1_555 1_555
C11 C9 1_555 1_555
C12 C11 1_555 1_555
H8 C12 1_555 1_555
C13 C12 1_555 1_555
H9 C13 1_555 1_555
C14 C13 1_555 1_555
C15 C14 1_555 1_555
H10 C15 1_555 1_555
C16 C11 1_555 1_555
H11 C16 1_555 1_555
C17 H12 1_555 1_555
C18 C17 1_555 1_555
H13 C18 1_555 1_555
C19 C18 1_555 1_555
C20 C19 1_555 1_555
H14 C20 1_555 1_555
C21 C20 1_555 1_555
H15 C21 1_555 1_555
C22 C19 1_555 1_555
C23 C22 1_555 1_555
H16 C23 1_555 1_555
C24 C23 1_555 1_555
H17 C24 1_555 1_555
C25 C24 1_555 1_555
C26 C25 1_555 1_555
H18 C26 1_555 1_555
C27 C25 1_555 1_555
C28 C27 1_555 1_555
H19 C28 1_555 1_555
C29 C28 1_555 1_555
H20 C29 1_555 1_555
C30 C29 1_555 1_555
C31 C30 1_555 1_555
H21 C31 1_555 1_555
C32 C27 1_555 1_555
H22 C32 1_555 1_555
C33 H23 1_555 1_555
C34 C33 1_555 1_555
H24 C34 1_555 1_555
C35 C34 1_555 1_555
C36 C35 1_555 1_555
H25 C36 1_555 1_555
C37 C36 1_555 1_555
H26 C37 1_555 1_555
C38 C35 1_555 1_555
C39 C38 1_555 1_555
H27 C39 1_555 1_555
C40 C39 1_555 1_555
H28 C40 1_555 1_555
C41 C40 1_555 1_555
C42 C41 1_555 1_555
H29 C42 1_555 1_555
C43 C41 1_555 1_555
C44 C43 1_555 1_555
H30 C44 1_555 1_555
C45 C44 1_555 1_555
H31 C45 1_555 1_555
C46 C45 1_555 1_555
C47 C46 1_555 1_555
H32 C47 1_555 1_555
C48 C43 1_555 1_555
H33 C48 1_555 1_555
C49 H34 1_555 1_555
C50 C49 1_555 1_555
H35 C50 1_555 1_555
C51 C50 1_555 1_555
C52 C51 1_555 1_555
H36 C52 1_555 1_555
C53 C52 1_555 1_555
H37 C53 1_555 1_555
C54 C51 1_555 1_555
C55 C54 1_555 1_555
H38 C55 1_555 1_555
C56 C55 1_555 1_555
H39 C56 1_555 1_555
C57 C56 1_555 1_555
C58 C57 1_555 1_555
H40 C58 1_555 1_555
C59 C57 1_555 1_555
C60 C59 1_555 1_555
H41 C60 1_555 1_555
C61 C60 1_555 1_555
H42 C61 1_555 1_555
C62 C61 1_555 1_555
C63 C62 1_555 1_555
H43 C63 1_555 1_555
C64 C59 1_555 1_555
H44 C64 1_555 1_555
C65 H45 1_555 1_555
C66 C65 1_555 1_555
H46 C66 1_555 1_555
C67 C66 1_555 1_555
C68 C67 1_555 1_555
H47 C68 1_555 1_555
C69 C68 1_555 1_555
H48 C69 1_555 1_555
C70 C67 1_555 1_555
C71 C70 1_555 1_555
H49 C71 1_555 1_555
C72 C71 1_555 1_555
H50 C72 1_555 1_555
C73 C72 1_555 1_555
C74 C73 1_555 1_555
H51 C74 1_555 1_555
C75 C73 1_555 1_555
C76 C75 1_555 1_555
H52 C76 1_555 1_555
C77 C76 1_555 1_555
H53 C77 1_555 1_555
C78 C77 1_555 1_555
C79 C78 1_555 1_555
H54 C79 1_555 1_555
C80 C75 1_555 1_555
H55 C80 1_555 1_555
C81 H56 1_555 1_555
C82 C81 1_555 1_555
H57 C82 1_555 1_555
C83 C82 1_555 1_555
C84 C83 1_555 1_555
H58 C84 1_555 1_555
C85 C84 1_555 1_555
H59 C85 1_555 1_555
C86 C83 1_555 1_555
C87 C86 1_555 1_555
H60 C87 1_555 1_555
C88 C87 1_555 1_555
H61 C88 1_555 1_555
C89 C88 1_555 1_555
C90 C89 1_555 1_555
H62 C90 1_555 1_555
C91 C89 1_555 1_555
C92 C91 1_555 1_555
H63 C92 1_555 1_555
C93 C92 1_555 1_555
H64 C93 1_555 1_555
C94 C93 1_555 1_555
C95 C94 1_555 1_555
H65 C95 1_555 1_555
C96 C91 1_555 1_555
H66 C96 1_555 1_555
C97 H67 1_555 1_555
C98 C97 1_555 1_555
H68 C98 1_555 1_555
C99 C98 1_555 1_555
C100 C99 1_555 1_555
H69 C100 1_555 1_555
C101 C100 1_555 1_555
H70 C101 1_555 1_555
C102 C99 1_555 1_555
C103 C102 1_555 1_555
H71 C103 1_555 1_555
C104 H72 1_555 1_555
C105 C104 1_555 1_555
C106 C103 1_555 1_555
H73 C106 1_555 1_555
C107 C105 1_555 1_555
C108 C107 1_555 1_555
H74 C108 1_555 1_555
C109 C108 1_555 1_555
H75 C109 1_555 1_555
C110 C109 1_555 1_555
C111 C110 1_555 1_555
H76 C111 1_555 1_555
C112 C107 1_555 1_555
H77 C112 1_555 1_555
C113 H78 1_555 1_555
C114 C113 1_555 1_555
H79 C114 1_555 1_555
C115 C114 1_555 1_555
C116 C115 1_555 1_555
H80 C116 1_555 1_555
C117 C116 1_555 1_555
H81 C117 1_555 1_555
C118 C115 1_555 1_555
C119 C118 1_555 1_555
H82 C119 1_555 1_555
C120 C119 1_555 1_555
H83 C120 1_555 1_555
C121 C120 1_555 1_555
C122 C121 1_555 1_555
H84 C122 1_555 1_555
C123 C121 1_555 1_555
C124 C123 1_555 1_555
H85 C124 1_555 1_555
C125 C124 1_555 1_555
H86 C125 1_555 1_555
C126 C125 1_555 1_555
C127 C126 1_555 1_555
H87 C127 1_555 1_555
C128 C123 1_555 1_555
H88 C128 1_555 1_555
N1 Co1 1_555 1_555
N2 C6 1_555 1_555
N3 Ag1 1_555 1_555
N4 C22 1_555 1_555
N5 Ag2 1_555 1_555
N6 C38 1_555 1_555
N7 Ag4 1_555 1_555
N8 C54 1_555 1_555
N9 Ag4 1_555 1_555
N10 Ag5 1_555 1_555
N11 Ag3 1_555 1_555
N12 C86 1_555 1_555
N13 Ag3 1_555 1_555
N14 C102 1_555 1_555
N15 Ag5 1_555 1_555
N16 C118 1_555 1_555
Br1 C14 1_555 1_555
Br2 C30 1_555 1_555
Br3 C46 1_555 1_555
Br4 C62 1_555 1_555
Br5 C78 1_555 1_555
Br6 C94 1_555 1_555
Br7 C110 1_555 1_555
Br8 Ag1 1_555 1_555
O16A W2 1_555 1_555
O22A W6 1_555 1_555
W2 O39 1_555 1_555
W4 O8 1_555 1_555
W4 O23 1_555 1_555
W5 O15 1_555 1_555
W6 O6 1_555 1_555
W6 O26 1_555 1_555
W7 O30 1_555 1_555
W7 O33 1_555 1_555
W8 O19 1_555 1_555
W8 O20 1_555 1_555
W8 O21 1_555 1_555
W8 O24 1_555 1_555
W9 O5 1_555 1_555
W9 O10 1_555 1_555
W9 O27 1_555 1_555
W10 O17 1_555 1_555
W10 O34 1_555 1_555
W11 O28 1_555 1_555
W11 O29 1_555 1_555
W11 O37 1_555 1_555
Co1 O13 1_555 1_555
Co1 O25 1_555 1_555
Co1 O35 1_555 1_555
Co1 O38 1_555 1_555
Ag1 O21 1_555 1_555
Ag1 O23 1_555 1_555
Ag2 O38 1_555 1_555
C1 N1 1_555 1_555
C5 N1 1_555 1_555
C10 N2 1_555 1_555
C15 C16 1_555 1_555
C17 N3 1_555 1_555
C21 N3 1_555 1_555
C26 N4 1_555 1_555
C31 C32 1_555 1_555
C33 N5 1_555 1_555
C37 N5 1_555 1_555
C42 N6 1_555 1_555
C47 C48 1_555 1_555
C49 N7 1_555 1_555
C53 N7 1_555 1_555
C58 N8 1_555 1_555
C63 C64 1_555 1_555
C65 N9 1_555 1_555
C69 N9 1_555 1_555
C70 N10 1_555 1_555
C74 N10 1_555 1_555
C79 C80 1_555 1_555
C81 N11 1_555 1_555
C85 N11 1_555 1_555
C90 N12 1_555 1_555
C95 C96 1_555 1_555
C97 N13 1_555 1_555
C101 N13 1_555 1_555
C104 N14 1_555 1_555
C105 C106 1_555 1_555
C111 C112 1_555 1_555
C113 N15 1_555 1_555
C117 N15 1_555 1_555
C122 N16 1_555 1_555
C126 Br8 1_555 1_555
C127 C128 1_555 1_555

#END
