
#######################################################################
#
#                 Cambridge Crystallographic Data Centre
#                                CCDC 
#
#######################################################################
#
# If this CIF has been generated from an entry in the Cambridge 
# Structural Database, then it will include bibliographic, chemical, 
# crystal, experimental, refinement or atomic coordinate data resulting 
# from the CCDC's data processing and validation procedures.
#
#######################################################################

data_FEZTEL
_symmetry_cell_setting           orthorhombic
_symmetry_space_group_name_H-M   'P b c m'
_symmetry_Int_Tables_number      57
_space_group_name_Hall           '-P 2c 2b'
loop_
_symmetry_equiv_pos_site_id
_symmetry_equiv_pos_as_xyz
1 x,y,z
2 -x,-y,1/2+z
3 x,1/2-y,-z
4 -x,1/2+y,1/2-z
5 -x,-y,-z
6 x,y,1/2-z
7 -x,1/2+y,z
8 x,1/2-y,1/2+z
_cell_length_a                   5.3331(5)
_cell_length_b                   6.8981(4)
_cell_length_c                   18.1411(16)
_cell_angle_alpha                90
_cell_angle_beta                 90
_cell_angle_gamma                90
_cell_volume                     667.379
loop_
_atom_site_label
_atom_site_type_symbol
_atom_site_fract_x
_atom_site_fract_y
_atom_site_fract_z
Ca1 Ca 0.15809(12) 0.2500 0.0000
S1 S 0.52774(15) 0.16541(12) -0.2500
O1 O 0.4515(3) 0.1692(3) -0.08771(9)
O2 O 0.8333(3) 0.0631(2) -0.05682(8)
C1 C 0.7334(4) 0.0940(3) -0.18238(13)
C2 C 0.6653(4) 0.1112(3) -0.10321(12)
C3 C 0.9508(5) 0.0216(3) -0.21109(13)
H1 H 1.0839 -0.0227 -0.1826
O1E O 0.4515(3) 0.1692(3) -0.41229(9)
O2E O 0.8333(3) 0.0631(2) -0.44318(8)
C1E C 0.7334(4) 0.0940(3) -0.31762(13)
C2E C 0.6653(4) 0.1112(3) -0.39679(12)
C3E C 0.9508(5) 0.0216(3) -0.28891(13)
H1E H 1.0839 -0.0227 -0.3174
Ca1_2 Ca 1.15809(12) 0.2500 0.0000
Ca1A Ca 0.84191(12) -0.2500 -0.5000
Ca1D Ca 0.84191(12) -0.2500 0.0000
Ca1E Ca 0.15809(12) 0.2500 -0.5000
Ca1E_2 Ca 1.15809(12) 0.2500 -0.5000
O1B O 0.4515(3) 0.3308(3) 0.08771(9)
O2_2 O -0.1667(3) 0.0631(2) -0.05682(8)
O2B O -0.1667(3) 0.4369(2) 0.05682(8)
O2D O 0.1667(3) -0.0631(2) 0.05682(8)
O2F O 0.1667(3) 0.5631(2) -0.05682(8)
loop_
_geom_bond_atom_site_label_1
_geom_bond_atom_site_label_2
_geom_bond_site_symmetry_1
_geom_bond_site_symmetry_2
Ca1 O1 1_555 1_555
S1 C1 1_555 1_555
O1 C2 1_555 1_555
O2 C2 1_555 1_555
C1 C2 1_555 1_555
C3 C1 1_555 1_555
H1 C3 1_555 1_555
O1E C2E 1_555 1_555
O2E C2E 1_555 1_555
C1E S1 1_555 1_555
C2E C1E 1_555 1_555
C3E C3 1_555 1_555
H1E C3E 1_555 1_555
Ca1_2 O2 1_555 1_555
Ca1A O2E 1_555 1_555
Ca1D O2 1_555 1_555
Ca1E O1E 1_555 1_555
Ca1E_2 O2E 1_555 1_555
O1B Ca1 1_555 1_555
O2_2 Ca1 1_555 1_555
O2B Ca1 1_555 1_555
O2D Ca1 1_555 1_555
O2F Ca1 1_555 1_555
C1E C3E 1_555 1_555

#END
