
#######################################################################
#
#                 Cambridge Crystallographic Data Centre
#                                CCDC 
#
#######################################################################
#
# If this CIF has been generated from an entry in the Cambridge 
# Structural Database, then it will include bibliographic, chemical, 
# crystal, experimental, refinement or atomic coordinate data resulting 
# from the CCDC's data processing and validation procedures.
#
#######################################################################

data_FEZVOW
_symmetry_cell_setting           monoclinic
_symmetry_space_group_name_H-M   'P 21/n'
_symmetry_Int_Tables_number      14
_space_group_name_Hall           '-P 2yn'
loop_
_symmetry_equiv_pos_site_id
_symmetry_equiv_pos_as_xyz
1 x,y,z
2 1/2-x,1/2+y,1/2-z
3 -x,-y,-z
4 1/2+x,1/2-y,1/2+z
_cell_length_a                   12.0510(9)
_cell_length_b                   12.1079(9)
_cell_length_c                   12.4511(10)
_cell_angle_alpha                90
_cell_angle_beta                 102.948(2)
_cell_angle_gamma                90
_cell_volume                     1770.58
loop_
_atom_site_label
_atom_site_type_symbol
_atom_site_fract_x
_atom_site_fract_y
_atom_site_fract_z
Cd1 Cd 0.16965(7) 0.87086(7) 0.91770(6)
C1 C 0.3552(14) 1.1741(11) 1.0960(9)
C2 C -0.0494(11) 0.5581(11) 0.8343(10)
H1 H -0.0530 0.5016 0.7807
C3 C 0.2834(11) 1.0836(11) 1.0597(9)
H2 H 0.2284 1.0637 1.1003
C4 C -0.1717(8) 0.6977(9) 1.1535(9)
H3 H -0.1232 0.7601 1.1578
C5 C 0.3664(11) 1.0577(10) 0.9170(10)
H4 H 0.3711 1.0190 0.8518
C6 C -0.1195(10) 0.5533(10) 0.9072(10)
H5 H -0.1717 0.4942 0.9047
C7 C 0.4399(11) 1.1442(10) 0.9498(11)
H6 H 0.4957 1.1624 0.9096
C8 C -0.0377(9) 0.7236(9) 0.9790(9)
H7 H -0.0365 0.7849 1.0270
N1 N 0.0321(7) 0.7259(8) 0.9098(7)
N2 N 0.2893(7) 1.0251(7) 0.9714(7)
C9 C -0.1121(9) 0.6380(9) 0.9857(9)
C10 C 0.0247(11) 0.6428(11) 0.8382(10)
H8 H 0.0735 0.6431 0.7879
C11 C -0.1780(8) 0.6297(8) 1.0703(8)
H9 H -0.2301 0.5699 1.0647
C12 C 0.2859(14) 1.2251(12) 1.2481(16)
H10 H 0.2305 1.1693 1.2238
C13 C 0.3561(14) 1.2487(16) 1.2024(17)
H11 H 0.4091 1.3067 1.2257
C14 C 0.2934(14) 1.3036(14) 1.3666(10)
C15 C 0.4323(11) 1.2021(11) 1.0380(12)
H12 H 0.4813 1.2634 1.0602
C16 C -0.2369(9) 0.6826(11) 1.2430(10)
O1 O 0.2280(8) 1.2720(8) 1.4194(8)
O3 O -0.2176(8) 0.7412(7) 1.3247(7)
O5 O 0.0133(7) 0.9755(8) 0.8381(6)
H13 H 0.0341 1.0403 0.8284
O6 O -0.3050(9) 0.6044(7) 1.2341(7)
O7 O 0.3641(9) 1.3814(9) 1.3947(9)
Cd1A Cd 0.33035(7) 1.37086(7) 1.58230(6)
Cd1C Cd -0.33035(7) 0.62914(7) 1.41770(6)
O1A O 0.2720(8) 0.7720(8) 1.0806(8)
O3C O 0.2824(8) 0.7588(7) 0.8247(7)
O6C O 0.1950(9) 0.8956(7) 0.7341(7)
O7A O 0.1359(9) 0.8814(9) 1.1053(9)
O2 O -0.1007(8) 0.9206(9) 0.6301(7)
O4 O 0.3998(9) 0.5690(7) 0.9033(7)
loop_
_geom_bond_atom_site_label_1
_geom_bond_atom_site_label_2
_geom_bond_site_symmetry_1
_geom_bond_site_symmetry_2
Cd1 N1 1_555 1_555
C1 C3 1_555 1_555
C2 H1 1_555 1_555
C3 H2 1_555 1_555
C4 H3 1_555 1_555
C5 H4 1_555 1_555
C6 C2 1_555 1_555
H5 C6 1_555 1_555
C7 C5 1_555 1_555
H6 C7 1_555 1_555
C8 H7 1_555 1_555
N1 C8 1_555 1_555
N2 Cd1 1_555 1_555
C9 C6 1_555 1_555
C10 C2 1_555 1_555
H8 C10 1_555 1_555
C11 C4 1_555 1_555
H9 C11 1_555 1_555
C12 H10 1_555 1_555
C13 C1 1_555 1_555
H11 C13 1_555 1_555
C14 C12 1_555 1_555
C15 C1 1_555 1_555
H12 C15 1_555 1_555
C16 C4 1_555 1_555
O1 C14 1_555 1_555
O3 C16 1_555 1_555
O5 Cd1 1_555 1_555
H13 O5 1_555 1_555
O6 C16 1_555 1_555
O7 C14 1_555 1_555
Cd1A O1 1_555 1_555
Cd1C O3 1_555 1_555
O1A Cd1 1_555 1_555
O3C Cd1 1_555 1_555
O6C Cd1 1_555 1_555
O7A Cd1 1_555 1_555
C3 N2 1_555 1_555
C5 N2 1_555 1_555
C7 C15 1_555 1_555
C8 C9 1_555 1_555
N1 C10 1_555 1_555
C9 C11 1_555 1_555
C12 C13 1_555 1_555
O6 Cd1C 1_555 1_555
O7 Cd1A 1_555 1_555

#END
