
#######################################################################
#
#                 Cambridge Crystallographic Data Centre
#                                CCDC 
#
#######################################################################
#
# If this CIF has been generated from an entry in the Cambridge 
# Structural Database, then it will include bibliographic, chemical, 
# crystal, experimental, refinement or atomic coordinate data resulting 
# from the CCDC's data processing and validation procedures.
#
#######################################################################

data_FEZWEN
_symmetry_cell_setting           triclinic
_symmetry_space_group_name_H-M   'P -1'
_symmetry_Int_Tables_number      2
_space_group_name_Hall           '-P 1'
loop_
_symmetry_equiv_pos_site_id
_symmetry_equiv_pos_as_xyz
1 x,y,z
2 -x,-y,-z
_cell_length_a                   7.552(2)
_cell_length_b                   9.627(3)
_cell_length_c                   11.897(4)
_cell_angle_alpha                66.733(5)
_cell_angle_beta                 81.748(9)
_cell_angle_gamma                85.531(10)
_cell_volume                     786.165
loop_
_atom_site_label
_atom_site_type_symbol
_atom_site_fract_x
_atom_site_fract_y
_atom_site_fract_z
Zn1 Zn 0.11249(2) 0.660732(17) 0.262581(13)
O1 O 0.90199(15) 0.09499(13) 0.12145(10)
O2 O 0.07151(16) 0.85078(14) 0.11757(11)
O3 O 0.14233(15) 0.42260(12) 0.39665(10)
O4 O 0.04034(15) 0.48151(13) 0.21856(10)
O5 O -0.14946(16) 0.68681(14) 0.34848(11)
O6 O 0.68084(17) -0.03311(14) 0.26237(12)
N1 N 0.38706(18) 0.64970(15) 0.16758(12)
C1 C 0.19883(19) 0.12101(17) 0.41393(13)
H1 H 0.2433 0.1539 0.4699
C2 C 0.23840(18) -0.03697(16) 0.43031(13)
C3 C 0.3162(2) -0.33186(17) 0.45983(15)
H2 H 0.3442 -0.4335 0.4693
N2 N 0.21791(17) -0.24528(14) 0.37018(12)
C4 C 0.3384(2) -0.12902(17) 0.52401(13)
H3 H 0.3792 -0.0898 0.5773
C5 C 0.09183(19) 0.38331(17) 0.31624(14)
C6 C 0.10714(19) 0.22364(17) 0.32891(14)
H4 H 0.0509 0.1938 0.2758
C7 C 0.1806(2) -0.10140(17) 0.35567(14)
H5 H 0.1120 -0.0405 0.2919
C8 C 0.3778(2) -0.27778(18) 0.53869(15)
H6 H 0.4459 -0.3415 0.6018
C9 C 0.4837(2) 0.77596(18) 0.11500(15)
H7 H 0.4333 0.8667 0.1209
C10 C 0.46274(19) 0.52229(16) 0.16099(13)
H8 H 0.3943 0.4331 0.1969
C11 C 0.6359(2) 0.51222(17) 0.10462(14)
C12 C 0.7482(2) 0.08621(17) 0.18523(13)
C13 C 0.7310(2) 0.64527(18) 0.04800(15)
H9 H 0.8482 0.6446 0.0065
C14 C 0.6460(2) 0.23101(18) 0.16955(14)
H10 H 0.5240 0.2259 0.2041
C15 C 0.6540(2) 0.77919(18) 0.05250(17)
H11 H 0.7168 0.8712 0.0135
C16 C 0.71829(19) 0.36679(17) 0.10937(14)
H12 H 0.8342 0.3699 0.0653
H13 H -0.149(3) 0.663(3) 0.427(2)
H14 H 0.087(3) 0.848(3) 0.051(2)
H15 H -0.199(4) 0.773(4) 0.324(3)
H16 H 0.011(4) 0.920(4) 0.125(3)
Zn1_2 Zn 0.11249(2) -0.339268(17) 0.262581(13)
N2_2 N 0.21791(17) 0.75472(14) 0.37018(12)
loop_
_geom_bond_atom_site_label_1
_geom_bond_atom_site_label_2
_geom_bond_site_symmetry_1
_geom_bond_site_symmetry_2
Zn1 O2 1_555 1_555
O1 C12 1_555 1_555
O2 H14 1_555 1_555
O3 Zn1 1_555 1_555
O4 Zn1 1_555 1_555
O5 Zn1 1_555 1_555
O6 C12 1_555 1_555
N1 Zn1 1_555 1_555
C1 H1 1_555 1_555
C2 C1 1_555 1_555
C3 H2 1_555 1_555
N2 C3 1_555 1_555
C4 C2 1_555 1_555
H3 C4 1_555 1_555
C5 O3 1_555 1_555
C6 C1 1_555 1_555
H4 C6 1_555 1_555
C7 C2 1_555 1_555
H5 C7 1_555 1_555
C8 C3 1_555 1_555
H6 C8 1_555 1_555
C9 N1 1_555 1_555
H7 C9 1_555 1_555
C10 N1 1_555 1_555
H8 C10 1_555 1_555
C11 C10 1_555 1_555
C12 C14 1_555 1_555
C13 C11 1_555 1_555
H9 C13 1_555 1_555
C14 H10 1_555 1_555
C15 C9 1_555 1_555
H11 C15 1_555 1_555
C16 C11 1_555 1_555
H12 C16 1_555 1_555
H13 O5 1_555 1_555
H15 O5 1_555 1_555
H16 O2 1_555 1_555
Zn1_2 N2 1_555 1_555
N2_2 Zn1 1_555 1_555
O4 C5 1_555 1_555
N2 C7 1_555 1_555
C4 C8 1_555 1_555
C5 C6 1_555 1_555
C13 C15 1_555 1_555
C14 C16 1_555 1_555

#END
