
#######################################################################
#
#                 Cambridge Crystallographic Data Centre
#                                CCDC 
#
#######################################################################
#
# If this CIF has been generated from an entry in the Cambridge 
# Structural Database, then it will include bibliographic, chemical, 
# crystal, experimental, refinement or atomic coordinate data resulting 
# from the CCDC's data processing and validation procedures.
#
#######################################################################

data_FEZWEN01
_symmetry_cell_setting           triclinic
_symmetry_space_group_name_H-M   'P -1'
_symmetry_Int_Tables_number      2
_space_group_name_Hall           '-P 1'
loop_
_symmetry_equiv_pos_site_id
_symmetry_equiv_pos_as_xyz
1 x,y,z
2 -x,-y,-z
_cell_length_a                   7.6337(4)
_cell_length_b                   9.6381(5)
_cell_length_c                   11.9809(6)
_cell_angle_alpha                66.9760(10)
_cell_angle_beta                 81.3290(10)
_cell_angle_gamma                84.9230(10)
_cell_volume                     801.574
loop_
_atom_site_label
_atom_site_type_symbol
_atom_site_fract_x
_atom_site_fract_y
_atom_site_fract_z
Zn1 Zn 0.61425(4) 0.66113(3) 0.26178(2)
O1 O 1.3980(3) 0.0917(2) 0.12036(17)
O2 O 1.1851(3) -0.0319(2) 0.2651(2)
O3 O 0.5699(3) 0.8486(2) 0.11746(17)
O4 O 0.3543(3) 0.6882(2) 0.34888(18)
N1 N 0.7172(3) 0.7542(2) 0.36921(19)
N2 N 0.8887(3) 0.6497(2) 0.1672(2)
C1 C 1.1515(4) 0.7750(3) 0.0544(3)
H1 H 1.2122 0.8645 0.0170
C2 C 1.2292(4) 0.6415(3) 0.0497(3)
H2 H 1.3428 0.6404 0.0091
C3 C 0.9841(4) 0.7732(3) 0.1148(3)
H3 H 0.9345 0.8627 0.1196
C4 C 0.8751(4) 0.7226(3) 0.5341(3)
H4 H 0.9418 0.6601 0.5947
C5 C 0.8138(4) 0.6694(3) 0.4568(3)
H5 H 0.8410 0.5698 0.4661
C6 C 0.8361(4) 0.8704(3) 0.5204(2)
H6 H 0.8753 0.9083 0.5724
C7 C 1.2184(3) 0.3639(3) 0.1111(2)
H7 H 1.3304 0.3662 0.0674
C8 C 1.2489(4) 0.0851(3) 0.1859(2)
C9 C 1.1497(3) 0.2307(3) 0.1711(2)
H8 H 1.0322 0.2268 0.2065
C10 C 0.9654(3) 0.5218(3) 0.1612(2)
H9 H 0.8995 0.4350 0.1965
C11 C 0.6805(3) 0.8985(3) 0.3552(2)
H10 H 0.6138 0.9584 0.2936
C12 C 1.1364(3) 0.5100(3) 0.1058(2)
C13 C 0.7379(3) 0.9621(3) 0.4286(2)
C14 C 0.6996(3) 1.1203(3) 0.4120(2)
H11 H 0.7427 1.1517 0.4666
C15 C 0.6116(3) 1.2234(3) 0.3292(2)
H12 H 0.5577 1.1951 0.2770
C16 C 0.5959(3) 1.3831(3) 0.3166(3)
O5 O 0.6445(3) 1.42217(19) 0.39579(17)
O6 O 0.5457(2) 1.48083(19) 0.21955(18)
Zn1_2 Zn 0.61425(4) 1.66113(3) 0.26178(2)
O5_2 O 0.6445(3) 0.42217(19) 0.39579(17)
O6_2 O 0.5457(2) 0.48083(19) 0.21955(18)
loop_
_geom_bond_atom_site_label_1
_geom_bond_atom_site_label_2
_geom_bond_site_symmetry_1
_geom_bond_site_symmetry_2
Zn1 O3 1_555 1_555
O1 C8 1_555 1_555
O2 C8 1_555 1_555
O4 Zn1 1_555 1_555
N1 Zn1 1_555 1_555
N2 Zn1 1_555 1_555
C1 H1 1_555 1_555
C2 C1 1_555 1_555
H2 C2 1_555 1_555
C3 N2 1_555 1_555
H3 C3 1_555 1_555
C4 H4 1_555 1_555
C5 N1 1_555 1_555
H5 C5 1_555 1_555
C6 C4 1_555 1_555
H6 C6 1_555 1_555
C7 H7 1_555 1_555
C8 C9 1_555 1_555
C9 C7 1_555 1_555
H8 C9 1_555 1_555
C10 N2 1_555 1_555
H9 C10 1_555 1_555
C11 N1 1_555 1_555
H10 C11 1_555 1_555
C12 C2 1_555 1_555
C13 C6 1_555 1_555
C14 C13 1_555 1_555
H11 C14 1_555 1_555
C15 C14 1_555 1_555
H12 C15 1_555 1_555
C16 C15 1_555 1_555
O5 C16 1_555 1_555
O6 C16 1_555 1_555
Zn1_2 O5 1_555 1_555
O5_2 Zn1 1_555 1_555
O6_2 Zn1 1_555 1_555
C1 C3 1_555 1_555
C4 C5 1_555 1_555
C7 C12 1_555 1_555
C10 C12 1_555 1_555
C11 C13 1_555 1_555
O6 Zn1_2 1_555 1_555

#END
