
#######################################################################
#
#                 Cambridge Crystallographic Data Centre
#                                CCDC 
#
#######################################################################
#
# If this CIF has been generated from an entry in the Cambridge 
# Structural Database, then it will include bibliographic, chemical, 
# crystal, experimental, refinement or atomic coordinate data resulting 
# from the CCDC's data processing and validation procedures.
#
#######################################################################

data_FIBCEA01
_symmetry_cell_setting           orthorhombic
_symmetry_space_group_name_H-M   'P n m a'
_symmetry_Int_Tables_number      62
_space_group_name_Hall           '-P 2ac 2n'
loop_
_symmetry_equiv_pos_site_id
_symmetry_equiv_pos_as_xyz
1 x,y,z
2 1/2-x,-y,1/2+z
3 -x,1/2+y,-z
4 1/2+x,1/2-y,1/2-z
5 -x,-y,-z
6 1/2+x,y,1/2-z
7 x,1/2-y,z
8 1/2-x,1/2+y,1/2+z
_cell_length_a                   17.3474(16)
_cell_length_b                   7.3247(6)
_cell_length_c                   9.1907(9)
_cell_angle_alpha                90
_cell_angle_beta                 90
_cell_angle_gamma                90
_cell_volume                     1167.81
loop_
_atom_site_label
_atom_site_type_symbol
_atom_site_fract_x
_atom_site_fract_y
_atom_site_fract_z
C1 C 0.33501 0.10876 -0.04573
N1 N 0.40797 0.15589 -0.02551
H1 H 0.31871 -0.03537 -0.05025
N2 N 0.28558 0.25000 -0.05943
H2 H 0.22867 0.25000 -0.07521
Fe1 Fe 0.50000 0.00000 0.00000
C2 C 0.56151 0.10876 0.29256
N3 N 0.53431 0.15589 0.16320
H3 H 0.56759 -0.03537 0.32147
N4 N 0.57994 0.25000 0.38022
H4 H 0.60116 0.25000 0.48115
C3 C 0.60348 0.10876 -0.24683
N5 N 0.55772 0.15589 -0.13769
H5 H 0.61370 -0.03537 -0.27122
N6 N 0.63448 0.25000 -0.32079
C1F C 0.33501 0.39124 -0.04573
N1F N 0.40797 0.34411 -0.02551
H1F H 0.31871 0.53537 -0.05025
C2F C 0.56151 0.39124 0.29256
N3F N 0.53431 0.34411 0.16320
H3F H 0.56759 0.53537 0.32147
C3F C 0.60348 0.39124 -0.24683
N5F N 0.55772 0.34411 -0.13769
H5F H 0.61370 0.53537 -0.27122
N1D N 0.59203 -0.15589 0.02551
Fe1B Fe 0.50000 0.50000 0.00000
N3D N 0.46569 -0.15589 -0.16320
N5D N 0.44228 -0.15589 0.13769
F1 F 0.30265 0.09807 0.59133
B1 B 0.32087 0.25000 0.51292
F2 F 0.39784 0.25000 0.48314
F3 F 0.28035 0.25000 0.38587
F1F F 0.30265 0.40193 0.59133
loop_
_geom_bond_atom_site_label_1
_geom_bond_atom_site_label_2
_geom_bond_site_symmetry_1
_geom_bond_site_symmetry_2
C1 N1 1_555 1_555
N1 Fe1 1_555 1_555
H1 C1 1_555 1_555
N2 C1 1_555 1_555
H2 N2 1_555 1_555
Fe1 N3 1_555 1_555
C2 N3 1_555 1_555
N3 N3F 1_555 1_555
H3 C2 1_555 1_555
N4 C2 1_555 1_555
H4 N4 1_555 1_555
C3 N5 1_555 1_555
N5 Fe1 1_555 1_555
H5 C3 1_555 1_555
N6 C3 1_555 1_555
F1 B1 1_555 1_555
B1 F2 1_555 1_555
F3 B1 1_555 1_555
C1F N2 1_555 1_555
N1F N1 1_555 1_555
H1F C1F 1_555 1_555
C2F N4 1_555 1_555
N3F C2F 1_555 1_555
H3F C2F 1_555 1_555
C3F N6 1_555 1_555
N5F N5 1_555 1_555
H5F C3F 1_555 1_555
N1D Fe1 1_555 1_555
Fe1B N1F 1_555 1_555
N3D Fe1 1_555 1_555
N5D Fe1 1_555 1_555
F1F B1 1_555 1_555
C1F N1F 1_555 1_555
N3F Fe1B 1_555 1_555
C3F N5F 1_555 1_555
N5F Fe1B 1_555 1_555

#END
