
#######################################################################
#
#                 Cambridge Crystallographic Data Centre
#                                CCDC 
#
#######################################################################
#
# If this CIF has been generated from an entry in the Cambridge 
# Structural Database, then it will include bibliographic, chemical, 
# crystal, experimental, refinement or atomic coordinate data resulting 
# from the CCDC's data processing and validation procedures.
#
#######################################################################

data_FIBCUQ
_symmetry_cell_setting           monoclinic
_symmetry_space_group_name_H-M   'P 2/c'
_symmetry_Int_Tables_number      13
_space_group_name_Hall           '-P 2yc'
loop_
_symmetry_equiv_pos_site_id
_symmetry_equiv_pos_as_xyz
1 x,y,z
2 -x,y,1/2-z
3 -x,-y,-z
4 x,-y,1/2+z
_cell_length_a                   17.795(6)
_cell_length_b                   7.305(2)
_cell_length_c                   24.447(6)
_cell_angle_alpha                90
_cell_angle_beta                 133.221(15)
_cell_angle_gamma                90
_cell_volume                     2315.81
loop_
_atom_site_label
_atom_site_type_symbol
_atom_site_fract_x
_atom_site_fract_y
_atom_site_fract_z
Zn1 Zn 0.5000 -0.04081(9) 0.7500
Zn2 Zn 1.0000 0.50492(9) 0.7500
O1 O 0.8826(2) 0.3759(4) 0.72552(17)
O2 O 0.8240(2) 0.3251(4) 0.61184(18)
O3 O 0.6769(3) 0.1096(5) 0.77584(19)
O4 O 0.5061(2) 0.0914(5) 0.68230(18)
O5 O 0.3524(3) 0.2020(7) 0.4253(2)
O6 O 0.4470(3) 0.2926(7) 0.4052(2)
N1 N 0.9527(3) 0.6943(5) 0.67027(19)
N2 N 0.9519(3) 0.9535(5) 0.6243(2)
N3 N 0.3882(3) -0.2154(5) 0.66867(19)
N4 N 0.2804(3) -0.4477(5) 0.6078(2)
N5 N 0.4350(3) 0.2462(6) 0.4462(2)
C1 C 0.8137(3) 0.3290(6) 0.6566(3)
C2 C 0.7088(3) 0.2807(6) 0.6288(2)
C3 C 0.6213(3) 0.2817(6) 0.5512(2)
H1 H 0.6274 0.3090 0.5172
C4 C 0.5262(3) 0.2412(6) 0.5262(3)
C5 C 0.5143(4) 0.1933(6) 0.5752(3)
H2 H 0.4495 0.1653 0.5568
C6 C 0.6024(3) 0.1879(6) 0.6533(2)
C7 C 0.6987(3) 0.2351(6) 0.6797(2)
H3 H 0.7565 0.2364 0.7310
C8 C 0.5959(3) 0.1250(6) 0.7086(2)
C9 C 0.3555(3) -0.2271(6) 0.5987(2)
H4 H 0.3759 -0.1493 0.5808
C10 C 0.3414(3) -0.3504(6) 0.6716(2)
C11 C 0.2885(3) -0.3706(6) 0.5598(3)
H5 H 0.2553 -0.4087 0.5115
C12 C 0.2138(3) -0.6064(6) 0.5881(3)
H6 H 0.2405 -0.6669 0.6337
H7 H 0.2158 -0.6934 0.5591
C13 C 0.1035(3) -0.5498(6) 0.5432(3)
C14 C 0.0693(4) -0.5006(6) 0.5775(3)
H8 H 0.1153 -0.5015 0.6296
C15 C 0.0327(4) -0.5506(6) 0.4644(3)
H9 H 0.0540 -0.5853 0.4402
C16 C 0.8509(3) 0.7441(6) 0.6098(2)
H10 H 0.7931 0.6789 0.5923
C17 C 0.8493(3) 0.9047(6) 0.5801(3)
H11 H 0.7916 0.9678 0.5389
C18 C 1.0117(3) 0.8237(6) 0.6776(2)
C19 C 0.9856(4) 1.1100(6) 0.6068(3)
H12 H 1.0520 1.1535 0.6527
H13 H 0.9364 1.2094 0.5859
C20 C 0.9941(3) 1.0565(5) 0.5519(2)
C21 C 0.9062(4) 1.0473(6) 0.4760(3)
H14 H 0.8427 1.0789 0.4593
C22 C 1.0882(4) 1.0087(6) 0.5756(3)
H15 H 1.1480 1.0142 0.6263
C23 C 0.3563(4) -0.3862(7) 0.7386(3)
H16 H 0.4223 -0.4422 0.7774
H17 H 0.3030 -0.4667 0.7249
H18 H 0.3530 -0.2727 0.7567
C24 C 1.1265(3) 0.8267(7) 0.7359(3)
H19 H 1.1496 0.9209 0.7719
H20 H 1.1522 0.8507 0.7126
H21 H 1.1517 0.7102 0.7608
N1B N 1.0473(3) 1.3057(5) 0.32973(19)
N2B N 1.0481(3) 1.0465(5) 0.3757(2)
C16B C 1.1491(3) 1.2559(6) 0.3902(2)
H10B H 1.2069 1.3211 0.4077
C17B C 1.1507(3) 1.0953(6) 0.4199(3)
H11B H 1.2084 1.0322 0.4611
C18B C 0.9883(3) 1.1763(6) 0.3224(2)
C19B C 1.0144(4) 0.8900(6) 0.3932(3)
H12B H 0.9480 0.8465 0.3473
H13B H 1.0636 0.7906 0.4141
C20B C 1.0059(3) 0.9435(5) 0.4481(2)
C21B C 1.0938(4) 0.9527(6) 0.5240(3)
H14B H 1.1573 0.9211 0.5407
C22B C 0.9118(4) 0.9913(6) 0.4244(3)
H15B H 0.8520 0.9858 0.3737
C24B C 0.8735(3) 1.1733(7) 0.2641(3)
H19B H 0.8504 1.0791 0.2281
H20B H 0.8478 1.1493 0.2874
H21B H 0.8483 1.2898 0.2392
N3B N -0.3882(3) -0.7846(5) 0.33133(19)
N4B N -0.2804(3) -0.5523(5) 0.3922(2)
C9B C -0.3555(3) -0.7729(6) 0.4013(2)
H4B H -0.3759 -0.8507 0.4192
C10B C -0.3414(3) -0.6496(6) 0.3284(2)
C11B C -0.2885(3) -0.6294(6) 0.4402(3)
H5B H -0.2553 -0.5913 0.4885
C12B C -0.2138(3) -0.3936(6) 0.4119(3)
H6B H -0.2405 -0.3331 0.3663
H7B H -0.2158 -0.3066 0.4409
C13B C -0.1035(3) -0.4502(6) 0.4568(3)
C14B C -0.0693(4) -0.4994(6) 0.4225(3)
H8B H -0.1153 -0.4985 0.3704
C15B C -0.0327(4) -0.4494(6) 0.5356(3)
H9B H -0.0540 -0.4147 0.5598
C23B C -0.3563(4) -0.6138(7) 0.2614(3)
H16B H -0.4223 -0.5578 0.2226
H17B H -0.3030 -0.5333 0.2751
H18B H -0.3530 -0.7273 0.2433
O1A O 0.1174(2) 0.3759(4) 0.77448(17)
O2A O 0.1760(2) 0.3251(4) 0.88816(18)
O3A O 0.3231(3) 0.1096(5) 0.72416(19)
O4A O 0.4939(2) 0.0914(5) 0.81770(18)
O5A O 0.6476(3) 0.2020(7) 1.0747(2)
O6A O 0.5530(3) 0.2926(7) 1.0948(2)
N5A N 0.5650(3) 0.2462(6) 1.0538(2)
C1A C 0.1863(3) 0.3290(6) 0.8434(3)
C2A C 0.2912(3) 0.2807(6) 0.8712(2)
C3A C 0.3787(3) 0.2817(6) 0.9488(2)
H1A H 0.3726 0.3090 0.9828
C4A C 0.4738(3) 0.2412(6) 0.9738(3)
C5A C 0.4857(4) 0.1933(6) 0.9248(3)
H2A H 0.5505 0.1653 0.9432
C6A C 0.3976(3) 0.1879(6) 0.8467(2)
C7A C 0.3013(3) 0.2351(6) 0.8203(2)
H3A H 0.2435 0.2364 0.7690
C8A C 0.4041(3) 0.1250(6) 0.7914(2)
Zn1B Zn -0.5000 -0.95919(9) 0.2500
Zn2_2 Zn 0.0000 0.50492(9) 0.7500
Zn2B Zn 1.0000 1.49508(9) 0.2500
O1A_2 O 1.1174(2) 0.3759(4) 0.77448(17)
N1A N 1.0473(3) 0.6943(5) 0.82973(19)
N3A N 0.6118(3) -0.2154(5) 0.83133(19)
loop_
_geom_bond_atom_site_label_1
_geom_bond_atom_site_label_2
_geom_bond_site_symmetry_1
_geom_bond_site_symmetry_2
Zn1 O4 1_555 1_555
Zn2 O1 1_555 1_555
O1 C1 1_555 1_555
O2 C1 1_555 1_555
O3 C8 1_555 1_555
O4 C8 1_555 1_555
O5 N5 1_555 1_555
O6 N5 1_555 1_555
N1 Zn2 1_555 1_555
N2 C17 1_555 1_555
N3 Zn1 1_555 1_555
N4 C10 1_555 1_555
N5 C4 1_555 1_555
C1 C2 1_555 1_555
C2 C3 1_555 1_555
C3 H1 1_555 1_555
C4 C3 1_555 1_555
C5 C4 1_555 1_555
H2 C5 1_555 1_555
C6 C5 1_555 1_555
C7 C2 1_555 1_555
H3 C7 1_555 1_555
C8 C6 1_555 1_555
C9 N3 1_555 1_555
H4 C9 1_555 1_555
C10 N3 1_555 1_555
C11 N4 1_555 1_555
H5 C11 1_555 1_555
C12 N4 1_555 1_555
H6 C12 1_555 1_555
H7 C12 1_555 1_555
C13 C12 1_555 1_555
C14 C13 1_555 1_555
H8 C14 1_555 1_555
C15 C13 1_555 1_555
H9 C15 1_555 1_555
C16 N1 1_555 1_555
H10 C16 1_555 1_555
C17 C16 1_555 1_555
H11 C17 1_555 1_555
C18 N1 1_555 1_555
C19 N2 1_555 1_555
H12 C19 1_555 1_555
H13 C19 1_555 1_555
C20 C19 1_555 1_555
C21 C20 1_555 1_555
H14 C21 1_555 1_555
C22 C20 1_555 1_555
H15 C22 1_555 1_555
C23 C10 1_555 1_555
H16 C23 1_555 1_555
H17 C23 1_555 1_555
H18 C23 1_555 1_555
C24 C18 1_555 1_555
H19 C24 1_555 1_555
H20 C24 1_555 1_555
H21 C24 1_555 1_555
N1B C16B 1_555 1_555
N2B C17B 1_555 1_555
C16B H10B 1_555 1_555
C17B C16B 1_555 1_555
H11B C17B 1_555 1_555
C18B N1B 1_555 1_555
C19B N2B 1_555 1_555
H12B C19B 1_555 1_555
H13B C19B 1_555 1_555
C20B C19B 1_555 1_555
C21B C22 1_555 1_555
H14B C21B 1_555 1_555
C22B C21 1_555 1_555
H15B C22B 1_555 1_555
C24B C18B 1_555 1_555
H19B C24B 1_555 1_555
H20B C24B 1_555 1_555
H21B C24B 1_555 1_555
N3B C9B 1_555 1_555
N4B C10B 1_555 1_555
C9B H4B 1_555 1_555
C10B N3B 1_555 1_555
C11B N4B 1_555 1_555
H5B C11B 1_555 1_555
C12B N4B 1_555 1_555
H6B C12B 1_555 1_555
H7B C12B 1_555 1_555
C13B C12B 1_555 1_555
C14B C15 1_555 1_555
H8B C14B 1_555 1_555
C15B C14 1_555 1_555
H9B C15B 1_555 1_555
C23B C10B 1_555 1_555
H16B C23B 1_555 1_555
H17B C23B 1_555 1_555
H18B C23B 1_555 1_555
O1A C1A 1_555 1_555
O2A C1A 1_555 1_555
O3A C8A 1_555 1_555
O4A Zn1 1_555 1_555
O5A N5A 1_555 1_555
O6A N5A 1_555 1_555
N5A C4A 1_555 1_555
C1A C2A 1_555 1_555
C2A C3A 1_555 1_555
C3A H1A 1_555 1_555
C4A C3A 1_555 1_555
C5A C4A 1_555 1_555
H2A C5A 1_555 1_555
C6A C5A 1_555 1_555
C7A C2A 1_555 1_555
H3A C7A 1_555 1_555
C8A O4A 1_555 1_555
Zn1B N3B 1_555 1_555
Zn2_2 O1A 1_555 1_555
Zn2B N1B 1_555 1_555
O1A_2 Zn2 1_555 1_555
N1A Zn2 1_555 1_555
N3A Zn1 1_555 1_555
N2 C18 1_555 1_555
C6 C7 1_555 1_555
C9 C11 1_555 1_555
N2B C18B 1_555 1_555
C20B C21B 1_555 1_555
C20B C22B 1_555 1_555
C9B C11B 1_555 1_555
C13B C14B 1_555 1_555
C13B C15B 1_555 1_555
C6A C7A 1_555 1_555
C6A C8A 1_555 1_555

#END
