
#######################################################################
#
#                 Cambridge Crystallographic Data Centre
#                                CCDC 
#
#######################################################################
#
# If this CIF has been generated from an entry in the Cambridge 
# Structural Database, then it will include bibliographic, chemical, 
# crystal, experimental, refinement or atomic coordinate data resulting 
# from the CCDC's data processing and validation procedures.
#
#######################################################################

data_FIBDIE
_symmetry_cell_setting           triclinic
_symmetry_space_group_name_H-M   'P -1'
_symmetry_Int_Tables_number      2
_space_group_name_Hall           '-P 1'
loop_
_symmetry_equiv_pos_site_id
_symmetry_equiv_pos_as_xyz
1 x,y,z
2 -x,-y,-z
_cell_length_a                   8.7890(2)
_cell_length_b                   11.5290(2)
_cell_length_c                   14.4980(3)
_cell_angle_alpha                89.1000(8)
_cell_angle_beta                 82.2150(9)
_cell_angle_gamma                70.8690(9)
_cell_volume                     1374.49
loop_
_atom_site_label
_atom_site_type_symbol
_atom_site_fract_x
_atom_site_fract_y
_atom_site_fract_z
N1 N 1.0420(4) 0.2136(3) 0.4904(2)
N2 N 0.8117(4) 0.3952(3) 0.7993(2)
N3 N 0.9234(4) 0.1960(3) 0.7867(2)
C1 C 0.9696(5) 0.3149(4) 0.4463(3)
H1 H 0.9908 0.3170 0.3810
C2 C 0.8651(5) 0.4152(4) 0.4960(3)
H2 H 0.8147 0.4867 0.4648
C3 C 0.8323(5) 0.4130(3) 0.5917(3)
H3 H 0.7591 0.4824 0.6256
C4 C 0.9086(4) 0.3071(3) 0.6377(2)
C5 C 1.0156(4) 0.2076(3) 0.5839(2)
H4 H 1.0700 0.1352 0.6129
C6 C 1.1543(6) 0.1063(4) 0.4347(3)
H5 H 1.0924 0.0620 0.4088
H6 H 1.2263 0.0525 0.4741
H7 H 1.2181 0.1336 0.3846
C7 C 0.8817(4) 0.2994(3) 0.7389(2)
C8 C 0.7848(5) 0.3547(3) 0.8976(2)
C9 C 0.9019(4) 0.2196(3) 0.8906(2)
C10 C 0.6056(4) 0.3674(3) 0.9172(3)
H8 H 0.5402 0.4515 0.9079
H9 H 0.5801 0.3460 0.9810
H10 H 0.5822 0.3127 0.8752
C11 C 0.8233(5) 0.4388(4) 0.9644(3)
H11 H 0.9333 0.4395 0.9459
H12 H 0.8137 0.4090 1.0271
H13 H 0.7474 0.5215 0.9626
C12 C 1.0711(5) 0.2041(4) 0.9150(3)
H14 H 1.1428 0.1213 0.8981
H15 H 1.0641 0.2188 0.9814
H16 H 1.1138 0.2625 0.8811
C13 C 0.8329(5) 0.1297(4) 0.9423(3)
H17 H 0.7361 0.1295 0.9173
H18 H 0.8052 0.1537 1.0078
H19 H 0.9131 0.0482 0.9349
O1 O 0.7605(4) 0.5078(2) 0.77731(19)
O2 O 0.9869(4) 0.0870(2) 0.75053(19)
Cr1 Cr 0.43506(7) 0.24726(5) 0.64424(4)
Mn1 Mn 0.35420(7) 0.77260(5) 0.72924(3)
O3 O 0.2265(3) 0.3273(2) 0.71966(16)
O4 O 0.4569(3) 0.4119(2) 0.65201(17)
O5 O 0.3418(3) 0.2858(2) 0.52620(16)
O6 O 0.6426(3) 0.1825(2) 0.55898(15)
O7 O 0.4014(3) 0.0850(2) 0.65222(16)
O8 O 0.5320(3) 0.1946(2) 0.75810(16)
O9 O 0.0951(4) 0.4981(3) 0.8043(3)
O10 O 0.3156(4) 0.6000(2) 0.7126(2)
O11 O 0.4220(3) 0.2818(2) 0.37326(16)
O12 O 0.7357(3) 0.1697(2) 0.40632(16)
O13 O 0.4049(3) -0.0605(2) 0.75704(18)
O14 O 0.5075(3) 0.0732(2) 0.87592(17)
O15 O 0.1210(3) 0.8539(2) 0.8067(2)
H20 H 0.052(4) 0.822(3) 0.814(3)
H21 H 0.081(4) 0.9256(17) 0.800(3)
O16 O 0.4836(3) 0.6924(2) 0.84133(18)
H22 H 0.568(3) 0.638(3) 0.823(3)
H23 H 0.515(4) 0.740(3) 0.872(2)
C14 C 0.2054(5) 0.4381(3) 0.7469(3)
C15 C 0.3357(5) 0.4900(3) 0.7007(2)
C16 C 0.4484(4) 0.2609(3) 0.4546(2)
C17 C 0.6246(4) 0.1993(3) 0.4735(2)
C18 C 0.4276(4) 0.0343(3) 0.7300(2)
C19 C 0.4942(4) 0.1049(3) 0.7958(2)
Mn1A Mn 0.64580(7) 0.22740(5) 0.27076(3)
Mn1_2 Mn 0.35420(7) -0.22740(5) 0.72924(3)
O11A O 0.5780(3) 0.7182(2) 0.62674(16)
O12A O 0.2643(3) 0.8303(2) 0.59368(16)
O13_2 O 0.4049(3) 0.9395(2) 0.75704(18)
O17 O 0.4006(4) 0.1634(2) 1.06437(19)
H24 H 0.411(5) 0.153(3) 1.0081(12)
H25 H 0.429(5) 0.096(2) 1.086(2)
O18 O -0.1005(4) 0.7433(3) 0.8072(3)
H26 H -0.158(3) 0.766(4) 0.860(2)
H27 H -0.069(5) 0.6709(15) 0.812(3)
loop_
_geom_bond_atom_site_label_1
_geom_bond_atom_site_label_2
_geom_bond_site_symmetry_1
_geom_bond_site_symmetry_2
N1 C1 1_555 1_555
N2 C7 1_555 1_555
N3 C7 1_555 1_555
C1 H1 1_555 1_555
C2 C1 1_555 1_555
H2 C2 1_555 1_555
C3 C2 1_555 1_555
H3 C3 1_555 1_555
C4 C3 1_555 1_555
C5 N1 1_555 1_555
H4 C5 1_555 1_555
C6 N1 1_555 1_555
H5 C6 1_555 1_555
H6 C6 1_555 1_555
H7 C6 1_555 1_555
C7 C4 1_555 1_555
C8 N2 1_555 1_555
C9 N3 1_555 1_555
C10 C8 1_555 1_555
H8 C10 1_555 1_555
H9 C10 1_555 1_555
H10 C10 1_555 1_555
C11 C8 1_555 1_555
H11 C11 1_555 1_555
H12 C11 1_555 1_555
H13 C11 1_555 1_555
C12 C9 1_555 1_555
H14 C12 1_555 1_555
H15 C12 1_555 1_555
H16 C12 1_555 1_555
C13 C9 1_555 1_555
H17 C13 1_555 1_555
H18 C13 1_555 1_555
H19 C13 1_555 1_555
O1 N2 1_555 1_555
O2 N3 1_555 1_555
Cr1 O3 1_555 1_555
Mn1 O10 1_555 1_555
O3 C14 1_555 1_555
O4 Cr1 1_555 1_555
O5 Cr1 1_555 1_555
O6 Cr1 1_555 1_555
O7 Cr1 1_555 1_555
O8 Cr1 1_555 1_555
O9 C14 1_555 1_555
O10 C15 1_555 1_555
O11 C16 1_555 1_555
O12 C17 1_555 1_555
O13 C18 1_555 1_555
O14 C19 1_555 1_555
O15 Mn1 1_555 1_555
H20 O15 1_555 1_555
H21 O15 1_555 1_555
O16 Mn1 1_555 1_555
H22 O16 1_555 1_555
H23 O16 1_555 1_555
C14 C15 1_555 1_555
C15 O4 1_555 1_555
C16 O5 1_555 1_555
C17 O6 1_555 1_555
C18 O7 1_555 1_555
C19 O8 1_555 1_555
O17 H24 1_555 1_555
H25 O17 1_555 1_555
O18 H26 1_555 1_555
H27 O18 1_555 1_555
Mn1A O11 1_555 1_555
Mn1_2 O13 1_555 1_555
O11A Mn1 1_555 1_555
O12A Mn1 1_555 1_555
O13_2 Mn1 1_555 1_555
C4 C5 1_555 1_555
C8 C9 1_555 1_555
O12 Mn1A 1_555 1_555
C16 C17 1_555 1_555
C18 C19 1_555 1_555

#END
