
#######################################################################
#
#                 Cambridge Crystallographic Data Centre
#                                CCDC 
#
#######################################################################
#
# If this CIF has been generated from an entry in the Cambridge 
# Structural Database, then it will include bibliographic, chemical, 
# crystal, experimental, refinement or atomic coordinate data resulting 
# from the CCDC's data processing and validation procedures.
#
#######################################################################

data_FIBFIG
_symmetry_cell_setting           triclinic
_symmetry_space_group_name_H-M   'P -1'
_symmetry_Int_Tables_number      2
_space_group_name_Hall           '-P 1'
loop_
_symmetry_equiv_pos_site_id
_symmetry_equiv_pos_as_xyz
1 x,y,z
2 -x,-y,-z
_cell_length_a                   12.264
_cell_length_b                   12.937
_cell_length_c                   13.399
_cell_angle_alpha                62.833(10)
_cell_angle_beta                 69.486(13)
_cell_angle_gamma                75.666(14)
_cell_volume                     1761.6
loop_
_atom_site_label
_atom_site_type_symbol
_atom_site_fract_x
_atom_site_fract_y
_atom_site_fract_z
Zn1 Zn 0.15542(3) 0.02108(3) 0.30056(3)
Zn2 Zn 0.29892(3) 0.34460(3) 0.28926(3)
Cl1 Cl 0.03887(7) 0.13254(7) 0.18782(8)
Cl2 Cl 0.09416(9) -0.14069(8) 0.45281(8)
Cl3 Cl 0.46068(7) 0.32560(7) 0.15527(8)
O1 O 0.03838(19) -0.41166(19) 0.1420(2)
O2 O 0.48491(18) -0.10898(18) 0.12576(18)
O3 O 0.2959(2) 0.57765(19) 0.42643(19)
O4 O 0.2100(2) 0.1288(2) 0.3401(2)
O5 O 0.2618(2) 0.2010(2) 0.4313(2)
N1 N 0.1655(2) -0.5558(2) 0.2178(2)
N2 N 0.3203(2) -0.0184(2) 0.1979(2)
N3 N 0.3248(2) 0.4386(2) 0.3658(2)
C1 C -0.1106(3) -0.5079(3) 0.1449(3)
C2 C -0.1670(3) -0.6086(3) 0.1917(4)
H1 H -0.1387 -0.6789 0.2435
C3 C -0.2653(3) -0.6025(4) 0.1600(4)
H2 H -0.3021 -0.6694 0.1897
C4 C -0.3097(3) -0.4972(4) 0.0842(4)
H3 H -0.3758 -0.4940 0.0636
C5 C -0.2553(3) -0.3975(4) 0.0396(3)
H4 H -0.2853 -0.3270 -0.0103
C6 C -0.1554(3) -0.4025(3) 0.0694(3)
H5 H -0.1185 -0.3355 0.0388
C7 C 0.2003(3) -0.3483(3) 0.1538(3)
C8 C 0.1342(3) -0.2517(3) 0.1741(3)
H6 H 0.0532 -0.2429 0.1886
C9 C 0.1885(3) -0.1691(3) 0.1727(3)
H7 H 0.1440 -0.1049 0.1863
C10 C 0.3101(3) -0.1818(3) 0.1509(3)
C11 C 0.3765(3) -0.2744(3) 0.1230(3)
H8 H 0.4577 -0.2806 0.1036
C12 C 0.3224(3) -0.3571(3) 0.1239(3)
H9 H 0.3672 -0.4182 0.1046
C13 C 0.6383(3) -0.0189(3) 0.1266(3)
C14 C 0.7267(3) -0.0950(3) 0.0884(3)
H10 H 0.7086 -0.1468 0.0675
C15 C 0.8417(3) -0.0932(3) 0.0820(3)
H11 H 0.9006 -0.1442 0.0571
C16 C 0.8691(3) -0.0157(3) 0.1125(3)
H12 H 0.9460 -0.0162 0.1099
C17 C 0.7821(3) 0.0622(3) 0.1469(3)
H13 H 0.8011 0.1155 0.1653
C18 C 0.6672(3) 0.0614(3) 0.1540(3)
H14 H 0.6091 0.1140 0.1770
C19 C -0.0035(3) -0.5162(3) 0.1731(3)
C20 C 0.0739(3) -0.6035(3) 0.2196(3)
H15 H 0.0676 -0.6828 0.2483
C21 C 0.1401(3) -0.4422(3) 0.1708(3)
C22 C 0.3667(3) -0.1007(3) 0.1599(3)
C23 C 0.5155(3) -0.0245(3) 0.1450(3)
C24 C 0.4151(3) 0.0313(3) 0.1873(3)
H16 H 0.4094 0.0933 0.2066
C25 C 0.4898(3) 0.6305(3) 0.3797(3)
C26 C 0.4422(3) 0.7184(3) 0.4202(3)
H17 H 0.3615 0.7339 0.4459
C27 C 0.5162(4) 0.7825(3) 0.4217(3)
H18 H 0.4846 0.8410 0.4491
C28 C 0.6362(4) 0.7610(3) 0.3832(3)
H19 H 0.6850 0.8042 0.3855
C29 C 0.6836(3) 0.6751(3) 0.3412(3)
H20 H 0.7644 0.6616 0.3138
C30 C 0.6114(3) 0.6088(3) 0.3396(3)
H21 H 0.6435 0.5504 0.3122
C31 C 0.4152(3) 0.5586(3) 0.3798(3)
C32 C 0.4328(3) 0.4735(3) 0.3430(3)
H22 H 0.5051 0.4430 0.3082
C33 C 0.2477(3) 0.5019(3) 0.4163(3)
C34 C 0.1212(3) 0.4998(3) 0.4603(3)
C35 C 0.0699(3) 0.3989(3) 0.4948(3)
H23 H 0.1169 0.3315 0.4915
C36 C 0.0500(3) 0.6005(3) 0.4666(3)
H24 H 0.0837 0.6674 0.4446
C37 C 0.2307(3) 0.1198(3) 0.4263(4)
C38 C 0.2206(4) 0.0054(4) 0.5377(4)
H25 H 0.1992 -0.0534 0.5253
H26 H 0.1618 0.0188 0.6014
H27 H 0.2945 -0.0204 0.5557
Zn1_2 Zn 0.15542(3) -0.97892(3) 0.30056(3)
Zn1_3 Zn 0.15542(3) 1.02108(3) 0.30056(3)
Zn2_2 Zn 0.29892(3) -0.65540(3) 0.28926(3)
Zn2A Zn -0.29892(3) 0.65540(3) 0.71074(3)
Cl1_2 Cl 0.03887(7) -0.86746(7) 0.18782(8)
Cl2_2 Cl 0.09416(9) -1.14069(8) 0.45281(8)
Cl3_2 Cl 0.46068(7) -0.67440(7) 0.15527(8)
O1_2 O 0.03838(19) 0.58834(19) 0.1420(2)
O2_2 O 0.48491(18) 0.89102(18) 0.12576(18)
O3A O -0.2959(2) 0.42235(19) 0.57357(19)
O4_2 O 0.2100(2) -0.8712(2) 0.3401(2)
O5_2 O 0.2618(2) -0.7990(2) 0.4313(2)
N1_2 N 0.1655(2) 0.4442(2) 0.2178(2)
N2_2 N 0.3203(2) 0.9816(2) 0.1979(2)
N2_3 N 0.3203(2) -1.0184(2) 0.1979(2)
N3A N -0.3248(2) 0.5614(2) 0.6342(2)
N3_2 N 0.3248(2) -0.5614(2) 0.3658(2)
C1_2 C -0.1106(3) 0.4921(3) 0.1449(3)
C2_2 C -0.1670(3) 0.3914(3) 0.1917(4)
H1_2 H -0.1387 0.3211 0.2435
C3_2 C -0.2653(3) 0.3975(4) 0.1600(4)
H2_2 H -0.3021 0.3306 0.1897
C4_2 C -0.3097(3) 0.5028(4) 0.0842(4)
H3_2 H -0.3758 0.5060 0.0636
C5_2 C -0.2553(3) 0.6025(4) 0.0396(3)
H4_2 H -0.2853 0.6730 -0.0103
C6_2 C -0.1554(3) 0.5975(3) 0.0694(3)
H5_2 H -0.1185 0.6645 0.0388
C7_2 C 0.2003(3) 0.6517(3) 0.1538(3)
C8_2 C 0.1342(3) 0.7483(3) 0.1741(3)
H6_2 H 0.0532 0.7571 0.1886
C9_2 C 0.1885(3) 0.8309(3) 0.1727(3)
H7_2 H 0.1440 0.8951 0.1863
C10_2 C 0.3101(3) 0.8182(3) 0.1509(3)
C11_2 C 0.3765(3) 0.7256(3) 0.1230(3)
H8_2 H 0.4577 0.7194 0.1036
C12_2 C 0.3224(3) 0.6429(3) 0.1239(3)
H9_2 H 0.3672 0.5818 0.1046
C13_2 C 0.6383(3) 0.9811(3) 0.1266(3)
C14_2 C 0.7267(3) 0.9050(3) 0.0884(3)
H10_2 H 0.7086 0.8532 0.0675
C15_2 C 0.8417(3) 0.9068(3) 0.0820(3)
H11_2 H 0.9006 0.8558 0.0571
C16_2 C 0.8691(3) 0.9843(3) 0.1125(3)
H12_2 H 0.9460 0.9838 0.1099
C17_2 C 0.7821(3) 1.0622(3) 0.1469(3)
H13_2 H 0.8011 1.1155 0.1653
C18_2 C 0.6672(3) 1.0614(3) 0.1540(3)
H14_2 H 0.6091 1.1140 0.1770
C19_2 C -0.0035(3) 0.4838(3) 0.1731(3)
C20_2 C 0.0739(3) 0.3965(3) 0.2196(3)
H15_2 H 0.0676 0.3172 0.2483
C21_2 C 0.1401(3) 0.5578(3) 0.1708(3)
C22_2 C 0.3667(3) 0.8993(3) 0.1599(3)
C23_2 C 0.5155(3) 0.9755(3) 0.1450(3)
C24_2 C 0.4151(3) 1.0313(3) 0.1873(3)
H16_2 H 0.4094 1.0933 0.2066
C25A C -0.4898(3) 0.3695(3) 0.6203(3)
C26A C -0.4422(3) 0.2816(3) 0.5798(3)
H17A H -0.3615 0.2661 0.5541
C27A C -0.5162(4) 0.2175(3) 0.5783(3)
H18A H -0.4846 0.1590 0.5509
C28A C -0.6362(4) 0.2390(3) 0.6168(3)
H19A H -0.6850 0.1958 0.6145
C29A C -0.6836(3) 0.3249(3) 0.6588(3)
H20A H -0.7644 0.3384 0.6862
C30A C -0.6114(3) 0.3912(3) 0.6604(3)
H21A H -0.6435 0.4496 0.6878
C31A C -0.4152(3) 0.4414(3) 0.6202(3)
C32A C -0.4328(3) 0.5265(3) 0.6570(3)
H22A H -0.5051 0.5570 0.6918
C33A C -0.2477(3) 0.4981(3) 0.5837(3)
C34A C -0.1212(3) 0.5002(3) 0.5397(3)
C35A C -0.0699(3) 0.6011(3) 0.5052(3)
H23A H -0.1169 0.6685 0.5085
C36A C -0.0500(3) 0.3995(3) 0.5334(3)
H24A H -0.0837 0.3326 0.5554
C37_2 C 0.2307(3) -0.8802(3) 0.4263(4)
C38_2 C 0.2206(4) -0.9946(4) 0.5377(4)
H25_2 H 0.1992 -1.0534 0.5253
H26_2 H 0.1618 -0.9812 0.6014
H27_2 H 0.2945 -1.0204 0.5557
loop_
_geom_bond_atom_site_label_1
_geom_bond_atom_site_label_2
_geom_bond_site_symmetry_1
_geom_bond_site_symmetry_2
Zn1 Cl1 1_555 1_555
Zn2 Cl3 1_555 1_555
Cl2 Zn1 1_555 1_555
O1 C19 1_555 1_555
O2 C22 1_555 1_555
O3 C31 1_555 1_555
O4 Zn1 1_555 1_555
O5 Zn2 1_555 1_555
N1 C20 1_555 1_555
N2 Zn1 1_555 1_555
N3 Zn2 1_555 1_555
C1 C2 1_555 1_555
C2 H1 1_555 1_555
C3 C2 1_555 1_555
H2 C3 1_555 1_555
C4 C3 1_555 1_555
H3 C4 1_555 1_555
C5 C4 1_555 1_555
H4 C5 1_555 1_555
C6 C1 1_555 1_555
H5 C6 1_555 1_555
C7 C8 1_555 1_555
C8 H6 1_555 1_555
C9 C8 1_555 1_555
H7 C9 1_555 1_555
C10 C9 1_555 1_555
C11 C10 1_555 1_555
H8 C11 1_555 1_555
C12 C7 1_555 1_555
H9 C12 1_555 1_555
C13 C14 1_555 1_555
C14 H10 1_555 1_555
C15 C14 1_555 1_555
H11 C15 1_555 1_555
C16 C15 1_555 1_555
H12 C16 1_555 1_555
C17 C16 1_555 1_555
H13 C17 1_555 1_555
C18 C13 1_555 1_555
H14 C18 1_555 1_555
C19 C1 1_555 1_555
C20 C19 1_555 1_555
H15 C20 1_555 1_555
C21 O1 1_555 1_555
C22 N2 1_555 1_555
C23 O2 1_555 1_555
C24 N2 1_555 1_555
H16 C24 1_555 1_555
C25 C26 1_555 1_555
C26 H17 1_555 1_555
C27 C26 1_555 1_555
H18 C27 1_555 1_555
C28 C27 1_555 1_555
H19 C28 1_555 1_555
C29 C28 1_555 1_555
H20 C29 1_555 1_555
C30 C25 1_555 1_555
H21 C30 1_555 1_555
C31 C25 1_555 1_555
C32 N3 1_555 1_555
H22 C32 1_555 1_555
C33 O3 1_555 1_555
C34 C33 1_555 1_555
C35 C34 1_555 1_555
H23 C35 1_555 1_555
C36 C34 1_555 1_555
H24 C36 1_555 1_555
C37 O4 1_555 1_555
C38 C37 1_555 1_555
H25 C38 1_555 1_555
H26 C38 1_555 1_555
H27 C38 1_555 1_555
Zn1_2 Cl1_2 1_555 1_555
Zn1_3 N2_2 1_555 1_555
Zn2_2 N1 1_555 1_555
Zn2A N3A 1_555 1_555
Cl2_2 Zn1_2 1_555 1_555
Cl3_2 Zn2_2 1_555 1_555
O1_2 C19_2 1_555 1_555
O2_2 C22_2 1_555 1_555
O3A C31A 1_555 1_555
O4_2 Zn1_2 1_555 1_555
O5_2 Zn2_2 1_555 1_555
N1_2 Zn2 1_555 1_555
N2_2 C22_2 1_555 1_555
N2_3 Zn1_2 1_555 1_555
N3A C32A 1_555 1_555
N3_2 Zn2_2 1_555 1_555
C1_2 C2_2 1_555 1_555
C2_2 H1_2 1_555 1_555
C3_2 C2_2 1_555 1_555
H2_2 C3_2 1_555 1_555
C4_2 C3_2 1_555 1_555
H3_2 C4_2 1_555 1_555
C5_2 C4_2 1_555 1_555
H4_2 C5_2 1_555 1_555
C6_2 C1_2 1_555 1_555
H5_2 C6_2 1_555 1_555
C7_2 C8_2 1_555 1_555
C8_2 H6_2 1_555 1_555
C9_2 C8_2 1_555 1_555
H7_2 C9_2 1_555 1_555
C10_2 C9_2 1_555 1_555
C11_2 C10_2 1_555 1_555
H8_2 C11_2 1_555 1_555
C12_2 C7_2 1_555 1_555
H9_2 C12_2 1_555 1_555
C13_2 C14_2 1_555 1_555
C14_2 H10_2 1_555 1_555
C15_2 C14_2 1_555 1_555
H11_2 C15_2 1_555 1_555
C16_2 C15_2 1_555 1_555
H12_2 C16_2 1_555 1_555
C17_2 C16_2 1_555 1_555
H13_2 C17_2 1_555 1_555
C18_2 C13_2 1_555 1_555
H14_2 C18_2 1_555 1_555
C19_2 C1_2 1_555 1_555
C20_2 N1_2 1_555 1_555
H15_2 C20_2 1_555 1_555
C21_2 O1_2 1_555 1_555
C22_2 C10_2 1_555 1_555
C23_2 O2_2 1_555 1_555
C24_2 N2_2 1_555 1_555
H16_2 C24_2 1_555 1_555
C25A C26A 1_555 1_555
C26A H17A 1_555 1_555
C27A C26A 1_555 1_555
H18A C27A 1_555 1_555
C28A C27A 1_555 1_555
H19A C28A 1_555 1_555
C29A C28A 1_555 1_555
H20A C29A 1_555 1_555
C30A C25A 1_555 1_555
H21A C30A 1_555 1_555
C31A C25A 1_555 1_555
C32A C31A 1_555 1_555
H22A C32A 1_555 1_555
C33A O3A 1_555 1_555
C34A C33A 1_555 1_555
C35A C36 1_555 1_555
H23A C35A 1_555 1_555
C36A C35 1_555 1_555
H24A C36A 1_555 1_555
C37_2 O4_2 1_555 1_555
C38_2 C37_2 1_555 1_555
H25_2 C38_2 1_555 1_555
H26_2 C38_2 1_555 1_555
H27_2 C38_2 1_555 1_555
O5 C37 1_555 1_555
N1 C21 1_555 1_555
N3 C33 1_555 1_555
C5 C6 1_555 1_555
C7 C21 1_555 1_555
C10 C22 1_555 1_555
C11 C12 1_555 1_555
C13 C23 1_555 1_555
C17 C18 1_555 1_555
C23 C24 1_555 1_555
C29 C30 1_555 1_555
C31 C32 1_555 1_555
O5_2 C37_2 1_555 1_555
N1_2 C21_2 1_555 1_555
N3A C33A 1_555 1_555
C5_2 C6_2 1_555 1_555
C7_2 C21_2 1_555 1_555
C11_2 C12_2 1_555 1_555
C13_2 C23_2 1_555 1_555
C17_2 C18_2 1_555 1_555
C19_2 C20_2 1_555 1_555
C23_2 C24_2 1_555 1_555
C29A C30A 1_555 1_555
C34A C35A 1_555 1_555
C34A C36A 1_555 1_555

#END
