
#######################################################################
#
#                 Cambridge Crystallographic Data Centre
#                                CCDC 
#
#######################################################################
#
# If this CIF has been generated from an entry in the Cambridge 
# Structural Database, then it will include bibliographic, chemical, 
# crystal, experimental, refinement or atomic coordinate data resulting 
# from the CCDC's data processing and validation procedures.
#
#######################################################################

data_FIBGED
_symmetry_cell_setting           monoclinic
_symmetry_space_group_name_H-M   'P 21/n'
_symmetry_Int_Tables_number      14
_space_group_name_Hall           '-P 2yn'
loop_
_symmetry_equiv_pos_site_id
_symmetry_equiv_pos_as_xyz
1 x,y,z
2 1/2-x,1/2+y,1/2-z
3 -x,-y,-z
4 1/2+x,1/2-y,1/2+z
_cell_length_a                   14.4872(8)
_cell_length_b                   7.1430(4)
_cell_length_c                   18.454(1)
_cell_angle_alpha                90
_cell_angle_beta                 95.719(1)
_cell_angle_gamma                90
_cell_volume                     1900.15
loop_
_atom_site_label
_atom_site_type_symbol
_atom_site_fract_x
_atom_site_fract_y
_atom_site_fract_z
Cu1 Cu 1.26145(2) 1.21052(6) -0.036725(19)
Cu2 Cu 1.09971(2) 1.56356(5) -0.018235(19)
N1 N 1.20917(17) 1.0955(4) 0.05157(14)
N2 N 1.37410(17) 1.1852(4) 0.02877(14)
N3 N 1.35635(19) 1.3029(4) -0.10269(14)
C1 C 1.1213(2) 1.0406(5) 0.05549(18)
H1 H 1.0762 1.0671 0.0159
C2 C 1.0943(2) 0.9465(5) 0.11537(19)
H2 H 1.0318 0.9073 0.1165
C3 C 1.1596(2) 0.9101(5) 0.17363(18)
H3 H 1.1423 0.8459 0.2153
C4 C 1.2510(2) 0.9688(5) 0.17061(17)
H4 H 1.2968 0.9464 0.2102
C5 C 1.2732(2) 1.0600(4) 0.10879(16)
C6 C 1.3684(2) 1.1212(4) 0.09653(16)
C7 C 1.4470(2) 1.1134(5) 0.14605(17)
H5 H 1.4433 1.0720 0.1946
C8 C 1.5312(2) 1.1678(5) 0.12260(17)
H6 H 1.5858 1.1630 0.1556
C9 C 1.5369(2) 1.2292(5) 0.05174(18)
H7 H 1.5947 1.2636 0.0354
C10 C 1.4550(2) 1.2387(4) 0.00550(16)
C11 C 1.4445(2) 1.2977(4) -0.07158(17)
C12 C 1.5199(2) 1.3365(5) -0.11126(18)
H8 H 1.5814 1.3361 -0.0879
C13 C 1.5035(3) 1.3752(5) -0.18461(19)
H9 H 1.5536 1.4005 -0.2127
C14 C 1.4133(3) 1.3767(6) -0.2166(2)
H10 H 1.4006 1.4005 -0.2673
C15 C 1.3414(3) 1.3433(6) -0.17423(18)
H11 H 1.2793 1.3489 -0.1963
N4 N 1.14212(19) 1.2944(4) -0.08270(14)
N5 N 1.11646(19) 1.2931(4) -0.14638(15)
N6 N 1.0873(3) 1.2928(7) -0.20649(18)
N7 N 1.03445(18) 1.4590(4) 0.06278(14)
N8 N 1.05851(17) 1.4218(4) 0.12622(14)
N9 N 1.0788(2) 1.3836(5) 0.18545(15)
N10 N 1.22852(19) 1.5744(5) 0.02806(15)
N11 N 1.25067(17) 1.5360(4) 0.09066(14)
N12 N 1.2765(2) 1.5001(5) 0.14994(15)
N13 N 1.1207(2) 0.7508(4) -0.09379(16)
N14 N 1.19082(18) 0.8360(4) -0.09600(14)
N15 N 1.2574(2) 0.9240(4) -0.10038(17)
Cu2B Cu 0.90029(2) 1.43644(5) 0.018235(19)
Cu2_2 Cu 1.09971(2) 0.56356(5) -0.018235(19)
N7B N 0.96555(18) 1.5410(4) -0.06278(14)
N13_2 N 1.1207(2) 1.7508(4) -0.09379(16)
loop_
_geom_bond_atom_site_label_1
_geom_bond_atom_site_label_2
_geom_bond_site_symmetry_1
_geom_bond_site_symmetry_2
Cu1 N1 1_555 1_555
Cu2 N4 1_555 1_555
N1 C1 1_555 1_555
N2 Cu1 1_555 1_555
N3 Cu1 1_555 1_555
C1 H1 1_555 1_555
C2 C1 1_555 1_555
H2 C2 1_555 1_555
C3 C2 1_555 1_555
H3 C3 1_555 1_555
C4 C3 1_555 1_555
H4 C4 1_555 1_555
C5 N1 1_555 1_555
C6 N2 1_555 1_555
C7 C6 1_555 1_555
H5 C7 1_555 1_555
C8 C7 1_555 1_555
H6 C8 1_555 1_555
C9 C8 1_555 1_555
H7 C9 1_555 1_555
C10 N2 1_555 1_555
C11 N3 1_555 1_555
C12 C11 1_555 1_555
H8 C12 1_555 1_555
C13 C12 1_555 1_555
H9 C13 1_555 1_555
C14 C13 1_555 1_555
H10 C14 1_555 1_555
C15 N3 1_555 1_555
H11 C15 1_555 1_555
N4 Cu1 1_555 1_555
N5 N4 1_555 1_555
N6 N5 1_555 1_555
N7 Cu2 1_555 1_555
N8 N7 1_555 1_555
N9 N8 1_555 1_555
N10 Cu2 1_555 1_555
N11 N10 1_555 1_555
N12 N11 1_555 1_555
N13 N14 1_555 1_555
N14 N15 1_555 1_555
N15 Cu1 1_555 1_555
Cu2B N7 1_555 1_555
Cu2_2 N13 1_555 1_555
N7B Cu2 1_555 1_555
N13_2 Cu2 1_555 1_555
C4 C5 1_555 1_555
C5 C6 1_555 1_555
C9 C10 1_555 1_555
C10 C11 1_555 1_555
C14 C15 1_555 1_555
Cu2B N7B 1_555 1_555

#END
