
#######################################################################
#
#                 Cambridge Crystallographic Data Centre
#                                CCDC 
#
#######################################################################
#
# If this CIF has been generated from an entry in the Cambridge 
# Structural Database, then it will include bibliographic, chemical, 
# crystal, experimental, refinement or atomic coordinate data resulting 
# from the CCDC's data processing and validation procedures.
#
#######################################################################

data_FIBJEG
_symmetry_cell_setting           monoclinic
_symmetry_space_group_name_H-M   'P 21/n'
_symmetry_Int_Tables_number      14
_space_group_name_Hall           '-P 2yn'
loop_
_symmetry_equiv_pos_site_id
_symmetry_equiv_pos_as_xyz
1 x,y,z
2 1/2-x,1/2+y,1/2-z
3 -x,-y,-z
4 1/2+x,1/2-y,1/2+z
_cell_length_a                   7.687(2)
_cell_length_b                   12.699(3)
_cell_length_c                   11.674(2)
_cell_angle_alpha                90
_cell_angle_beta                 93.631(4)
_cell_angle_gamma                90
_cell_volume                     1137.3
loop_
_atom_site_label
_atom_site_type_symbol
_atom_site_fract_x
_atom_site_fract_y
_atom_site_fract_z
Cd1 Cd 0.60578(2) 0.273353(15) 0.840369(16)
O1 O 0.7330(3) 0.39596(15) 0.71986(16)
O2 O 0.7484(3) 0.44656(16) 0.53804(17)
O3 O 0.3484(3) 0.32937(17) 0.28325(16)
O4 O 0.5808(3) 0.41793(19) 0.34686(18)
H1 H 0.642(5) 0.426(3) 0.405(3)
O5 O 0.5128(3) 0.10284(16) 0.88882(19)
H2 H 0.6043 0.0528 0.8994
H3 H 0.4263 0.0958 0.9430
N1 N 0.4628(3) 0.25908(18) 0.6619(2)
N2 N 0.3046(3) 0.23730(18) 0.4947(2)
N3 N 0.3726(3) 0.36547(19) 0.9087(2)
C1 C 0.5335(3) 0.3213(2) 0.5816(2)
C2 C 0.4376(3) 0.3076(2) 0.4780(2)
C3 C 0.3273(4) 0.2113(2) 0.6064(2)
H4 H 0.2544 0.1638 0.6423
C4 C 0.6820(3) 0.3917(2) 0.6169(2)
C5 C 0.4528(4) 0.3526(2) 0.3631(2)
C6 C 0.3537(4) 0.3859(2) 1.0195(2)
H5 H 0.4415 0.3634 1.0736
C7 C 0.2114(4) 0.4386(2) 1.0585(2)
H6 H 0.2053 0.4522 1.1373
C8 C 0.0777(3) 0.4714(2) 0.9812(2)
C9 C 0.0975(4) 0.4493(3) 0.8663(3)
H7 H 0.0104 0.4695 0.8104
C10 C 0.2442(4) 0.3980(3) 0.8341(3)
H8 H 0.2549 0.3850 0.7556
Cd1C Cd 1.10578(2) 0.226647(15) 1.340369(16)
Cd1C_2 Cd 0.10578(2) 0.226647(15) 0.340369(16)
Cd1B Cd -0.60578(2) 0.726647(15) 1.159631(16)
O1C O 1.2330(3) 0.10404(15) 1.21986(16)
O2C O 1.2484(3) 0.05344(16) 1.03804(17)
O3C O 0.8484(3) 0.17063(17) 0.78325(16)
O3_2 O 1.3484(3) 0.32937(17) 1.28325(16)
O4C O 1.0808(3) 0.08207(19) 0.84686(18)
H1C H 1.142(5) 0.074(3) 0.905(3)
O5C O 1.0128(3) 0.39716(16) 1.38882(19)
H2C H 1.1043 0.4472 1.3994
H3C H 0.9263 0.4042 1.4430
N1C N 0.9628(3) 0.24092(18) 1.1619(2)
N2C N 0.8046(3) 0.26270(18) 0.9947(2)
N2_2 N 1.3046(3) 0.23730(18) 1.4947(2)
N3B N -0.3726(3) 0.63453(19) 1.0913(2)
N3C N 0.8726(3) 0.13453(19) 1.4087(2)
C1C C 1.0335(3) 0.1787(2) 1.0816(2)
C2C C 0.9376(3) 0.1924(2) 0.9780(2)
C3C C 0.8273(4) 0.2887(2) 1.1064(2)
H4C H 0.7544 0.3362 1.1423
C4C C 1.1820(3) 0.1083(2) 1.1169(2)
C5C C 0.9528(4) 0.1474(2) 0.8631(2)
C6B C -0.3537(4) 0.6141(2) 0.9805(2)
H5B H -0.4415 0.6366 0.9264
C7B C -0.2114(4) 0.5614(2) 0.9415(2)
H6B H -0.2053 0.5478 0.8627
C8B C -0.0777(3) 0.5286(2) 1.0188(2)
C9B C -0.0975(4) 0.5507(3) 1.1337(3)
H7B H -0.0104 0.5305 1.1896
C10B C -0.2442(4) 0.6020(3) 1.1659(3)
H8B H -0.2549 0.6150 1.2444
loop_
_geom_bond_atom_site_label_1
_geom_bond_atom_site_label_2
_geom_bond_site_symmetry_1
_geom_bond_site_symmetry_2
Cd1 O1 1_555 1_555
O1 C4 1_555 1_555
O2 C4 1_555 1_555
O3 C5 1_555 1_555
O4 H1 1_555 1_555
O5 Cd1 1_555 1_555
H2 O5 1_555 1_555
H3 O5 1_555 1_555
N1 Cd1 1_555 1_555
N2 C2 1_555 1_555
N3 Cd1 1_555 1_555
C1 N1 1_555 1_555
C2 C1 1_555 1_555
C3 N1 1_555 1_555
H4 C3 1_555 1_555
C4 C1 1_555 1_555
C5 O4 1_555 1_555
C6 N3 1_555 1_555
H5 C6 1_555 1_555
C7 C6 1_555 1_555
H6 C7 1_555 1_555
C8 C7 1_555 1_555
C9 C8 1_555 1_555
H7 C9 1_555 1_555
C10 N3 1_555 1_555
H8 C10 1_555 1_555
Cd1C O1C 1_555 1_555
Cd1C_2 O3 1_555 1_555
Cd1B N3B 1_555 1_555
O1C C4C 1_555 1_555
O2C C4C 1_555 1_555
O3C Cd1 1_555 1_555
O3_2 Cd1C 1_555 1_555
O4C H1C 1_555 1_555
O5C Cd1C 1_555 1_555
H2C O5C 1_555 1_555
H3C O5C 1_555 1_555
N1C Cd1C 1_555 1_555
N2C Cd1 1_555 1_555
N2_2 Cd1C 1_555 1_555
N3B C6B 1_555 1_555
N3C Cd1C 1_555 1_555
C1C N1C 1_555 1_555
C2C N2C 1_555 1_555
C3C N1C 1_555 1_555
H4C C3C 1_555 1_555
C4C C1C 1_555 1_555
C5C O3C 1_555 1_555
C6B H5B 1_555 1_555
C7B C6B 1_555 1_555
H6B C7B 1_555 1_555
C8B C8 1_555 1_555
C9B C8B 1_555 1_555
H7B C9B 1_555 1_555
C10B N3B 1_555 1_555
H8B C10B 1_555 1_555
N2 C3 1_555 1_555
N2 Cd1C_2 1_555 1_555
C2 C5 1_555 1_555
C9 C10 1_555 1_555
O4C C5C 1_555 1_555
N2C C3C 1_555 1_555
C1C C2C 1_555 1_555
C2C C5C 1_555 1_555
C7B C8B 1_555 1_555
C9B C10B 1_555 1_555

#END
