
#######################################################################
#
#                 Cambridge Crystallographic Data Centre
#                                CCDC 
#
#######################################################################
#
# If this CIF has been generated from an entry in the Cambridge 
# Structural Database, then it will include bibliographic, chemical, 
# crystal, experimental, refinement or atomic coordinate data resulting 
# from the CCDC's data processing and validation procedures.
#
#######################################################################

data_FIBKAE
_symmetry_cell_setting           triclinic
_symmetry_space_group_name_H-M   'P -1'
_symmetry_Int_Tables_number      2
_space_group_name_Hall           '-P 1'
loop_
_symmetry_equiv_pos_site_id
_symmetry_equiv_pos_as_xyz
1 x,y,z
2 -x,-y,-z
_cell_length_a                   8.6427(6)
_cell_length_b                   12.3466(9)
_cell_length_c                   12.8266(10)
_cell_angle_alpha                96.6670(10)
_cell_angle_beta                 94.7390(10)
_cell_angle_gamma                101.7440(10)
_cell_volume                     1323.02
loop_
_atom_site_label
_atom_site_type_symbol
_atom_site_fract_x
_atom_site_fract_y
_atom_site_fract_z
Cu1 Cu 0.0000 0.5000 -1.0000
Cu2 Cu 0.0000 0.0000 -0.5000
Mo1 Mo 0.19575(3) -0.02000(2) -1.025322(19)
Mo2 Mo -0.06030(3) 0.09884(2) -1.18494(2)
Mo3 Mo 0.26004(3) 0.26248(2) -1.05089(2)
Mo4 Mo 0.10766(3) 0.17996(2) -0.837260(19)
O1 O 0.0292(2) 0.11256(17) -1.00996(15)
O2 O 0.0677(2) -0.04917(16) -1.16306(15)
O3 O 0.2082(2) 0.02008(17) -0.87310(15)
O4 O 0.3294(2) 0.09701(18) -1.05228(17)
O5 O 0.1508(3) 0.18412(18) -1.18227(16)
O6 O 0.2859(3) 0.25048(18) -0.90269(16)
O7 O 0.2927(3) -0.12554(19) -1.03572(18)
O8 O -0.1658(3) 0.20021(19) -1.16781(19)
O9 O -0.0943(3) 0.04919(19) -1.31638(17)
O10 O 0.1559(3) 0.3672(2) -1.04011(19)
O11 O 0.4412(3) 0.3247(2) -1.0787(2)
O12 O 0.2001(3) 0.19504(19) -0.71270(17)
O13 O -0.0058(3) 0.27789(18) -0.83316(18)
O14 O 0.5559(4) 0.5486(3) -0.6134(2)
O15 O 0.7401(3) 0.2306(2) -0.5246(2)
N1 N 0.0999(4) 0.5240(2) -0.8491(2)
N2 N 0.5116(4) 0.4077(3) -0.7495(3)
H1 H 0.4468 0.3729 -0.8030
N3 N 0.5339(3) 0.2065(3) -0.6485(2)
H2 H 0.4323 0.1872 -0.6632
N4 N 0.2324(3) 0.0484(2) -0.4454(2)
C1 C 0.0180(5) 0.5557(3) -0.7705(3)
H3 H -0.0821 0.5699 -0.7869
C2 C 0.0792(6) 0.5675(4) -0.6660(3)
H4 H 0.0204 0.5895 -0.6129
C3 C 0.2255(6) 0.5471(4) -0.6405(3)
H5 H 0.2676 0.5549 -0.5702
C4 C 0.3101(5) 0.5146(3) -0.7203(3)
C5 C 0.2443(5) 0.5057(3) -0.8237(3)
H6 H 0.3030 0.4862 -0.8778
C6 C 0.4714(5) 0.4919(4) -0.6912(3)
C7 C 0.6593(5) 0.3714(4) -0.7275(3)
H7 H 0.7104 0.4073 -0.6585
H8 H 0.7304 0.3940 -0.7795
C8 C 0.6305(5) 0.2464(4) -0.7302(3)
H9 H 0.5775 0.2107 -0.7989
H10 H 0.7320 0.2247 -0.7210
C9 C 0.5969(4) 0.1992(3) -0.5529(3)
C10 C 0.4877(4) 0.1474(3) -0.4785(3)
C11 C 0.3298(4) 0.0994(3) -0.5094(2)
H11 H 0.2887 0.1026 -0.5780
C12 C 0.2931(4) 0.0429(3) -0.3471(3)
H12 H 0.2272 0.0063 -0.3025
C13 C 0.4489(4) 0.0892(3) -0.3096(3)
H13 H 0.4871 0.0849 -0.2405
C14 C 0.5479(4) 0.1421(3) -0.3758(3)
H14 H 0.6538 0.1739 -0.3520
O16 O -0.1735(3) 0.3755(2) -0.9700(2)
H15 H -0.1401 0.3270 -0.9378
H16 H -0.2072 0.3298 -1.0260
O17 O 0.0010(3) 0.15180(19) -0.5226(2)
H17 H -0.0889 0.1696 -0.5209
H18 H 0.0720 0.2057 -0.4898
Mo1A Mo -0.19575(3) 0.02000(2) -0.974678(19)
Mo2A Mo 0.06030(3) -0.09884(2) -0.81506(2)
Mo3A Mo -0.26004(3) -0.26248(2) -0.94911(2)
Mo4A Mo -0.10766(3) -0.17996(2) -1.162740(19)
O1A O -0.0292(2) -0.11256(17) -0.99004(15)
O2A O -0.0677(2) 0.04917(16) -0.83694(15)
O3A O -0.2082(2) -0.02008(17) -1.12690(15)
O4A O -0.3294(2) -0.09701(18) -0.94772(17)
O5A O -0.1508(3) -0.18412(18) -0.81773(16)
O6A O -0.2859(3) -0.25048(18) -1.09731(16)
O7A O -0.2927(3) 0.12554(19) -0.96428(18)
O8A O 0.1658(3) -0.20021(19) -0.83219(19)
O9A O 0.0943(3) -0.04919(19) -0.68362(17)
O10A O -0.1559(3) -0.3672(2) -0.95989(19)
O11A O -0.4412(3) -0.3247(2) -0.9213(2)
O12A O -0.2001(3) -0.19504(19) -1.28730(17)
O13A O 0.0058(3) -0.27789(18) -1.16684(18)
O14A O -0.5559(4) 0.4514(3) -1.3866(2)
O15A O -0.7401(3) 0.7694(2) -1.4754(2)
N1A N -0.0999(4) 0.4760(2) -1.1509(2)
N2A N -0.5116(4) 0.5923(3) -1.2505(3)
H1A H -0.4468 0.6271 -1.1970
N3A N -0.5339(3) 0.7935(3) -1.3515(2)
H2A H -0.4323 0.8128 -1.3368
N4A N -0.2324(3) 0.9516(2) -1.5546(2)
C1A C -0.0180(5) 0.4443(3) -1.2295(3)
H3A H 0.0821 0.4301 -1.2131
C2A C -0.0792(6) 0.4325(4) -1.3340(3)
H4A H -0.0204 0.4105 -1.3871
C3A C -0.2255(6) 0.4529(4) -1.3595(3)
H5A H -0.2676 0.4451 -1.4298
C4A C -0.3101(5) 0.4854(3) -1.2797(3)
C5A C -0.2443(5) 0.4943(3) -1.1763(3)
H6A H -0.3030 0.5138 -1.1222
C6A C -0.4714(5) 0.5081(4) -1.3088(3)
C7A C -0.6593(5) 0.6286(4) -1.2725(3)
H7A H -0.7104 0.5927 -1.3415
H8A H -0.7304 0.6060 -1.2205
C8A C -0.6305(5) 0.7536(4) -1.2698(3)
H9A H -0.5775 0.7893 -1.2011
H10A H -0.7320 0.7753 -1.2790
C9A C -0.5969(4) 0.8008(3) -1.4471(3)
C10A C -0.4877(4) 0.8526(3) -1.5215(3)
C11A C -0.3298(4) 0.9006(3) -1.4906(2)
H11A H -0.2887 0.8974 -1.4220
C12A C -0.2931(4) 0.9571(3) -1.6529(3)
H12A H -0.2272 0.9937 -1.6975
C13A C -0.4489(4) 0.9108(3) -1.6904(3)
H13A H -0.4871 0.9151 -1.7595
C14A C -0.5479(4) 0.8579(3) -1.6242(3)
H14A H -0.6538 0.8261 -1.6480
O16A O 0.1735(3) 0.6245(2) -1.0300(2)
H15A H 0.1401 0.6730 -1.0622
H16A H 0.2072 0.6702 -0.9740
O17A O -0.0010(3) -0.15180(19) -0.4774(2)
H17A H 0.0889 -0.1696 -0.4791
H18A H -0.0720 -0.2057 -0.5102
Cu1_2 Cu 0.0000 -0.5000 -1.0000
Cu2_2 Cu 0.0000 0.0000 -1.5000
Cu2_3 Cu 0.0000 1.0000 -1.5000
O9_2 O -0.0943(3) 0.04919(19) -0.31638(17)
O10A_2 O -0.1559(3) 0.6328(2) -0.95989(19)
N4A_2 N -0.2324(3) -0.0484(2) -0.5546(2)
O18 O -0.1891(4) 0.7065(3) -0.6300(3)
O19? O -0.2009(12) 0.6599(8) -0.4814(8)
loop_
_geom_bond_atom_site_label_1
_geom_bond_atom_site_label_2
_geom_bond_site_symmetry_1
_geom_bond_site_symmetry_2
Cu1 O10 1_555 1_555
Cu2 N4 1_555 1_555
Mo1 O1 1_555 1_555
Mo2 O1 1_555 1_555
Mo3 O1 1_555 1_555
Mo4 O1 1_555 1_555
O1 Mo1A 1_555 1_555
O2 Mo1 1_555 1_555
O3 Mo1 1_555 1_555
O4 Mo1 1_555 1_555
O5 Mo2 1_555 1_555
O6 Mo3 1_555 1_555
O7 Mo1 1_555 1_555
O8 Mo2 1_555 1_555
O9 Mo2 1_555 1_555
O10 Mo3 1_555 1_555
O11 Mo3 1_555 1_555
O12 Mo4 1_555 1_555
O13 Mo4 1_555 1_555
O14 C6 1_555 1_555
O15 C9 1_555 1_555
N1 Cu1 1_555 1_555
N2 H1 1_555 1_555
N3 H2 1_555 1_555
N4 C11 1_555 1_555
C1 N1 1_555 1_555
H3 C1 1_555 1_555
C2 C1 1_555 1_555
H4 C2 1_555 1_555
C3 C2 1_555 1_555
H5 C3 1_555 1_555
C4 C3 1_555 1_555
C5 N1 1_555 1_555
H6 C5 1_555 1_555
C6 N2 1_555 1_555
C7 N2 1_555 1_555
H7 C7 1_555 1_555
H8 C7 1_555 1_555
C8 N3 1_555 1_555
H9 C8 1_555 1_555
H10 C8 1_555 1_555
C9 N3 1_555 1_555
C10 C9 1_555 1_555
C11 C10 1_555 1_555
H11 C11 1_555 1_555
C12 N4 1_555 1_555
H12 C12 1_555 1_555
C13 C12 1_555 1_555
H13 C13 1_555 1_555
C14 C10 1_555 1_555
H14 C14 1_555 1_555
O16 Cu1 1_555 1_555
H15 O16 1_555 1_555
H16 O16 1_555 1_555
O17 Cu2 1_555 1_555
H17 O17 1_555 1_555
H18 O17 1_555 1_555
Mo1A O1A 1_555 1_555
Mo2A O3 1_555 1_555
Mo3A O1A 1_555 1_555
Mo4A O2 1_555 1_555
O1A Mo1 1_555 1_555
O2A Mo4 1_555 1_555
O3A Mo2 1_555 1_555
O4A Mo1A 1_555 1_555
O5A Mo2A 1_555 1_555
O6A Mo3A 1_555 1_555
O7A Mo1A 1_555 1_555
O8A Mo2A 1_555 1_555
O9A Cu2 1_555 1_555
O10A Mo3A 1_555 1_555
O11A Mo3A 1_555 1_555
O12A Mo4A 1_555 1_555
O13A Mo4A 1_555 1_555
O14A C6A 1_555 1_555
O15A C9A 1_555 1_555
N1A Cu1 1_555 1_555
N2A H1A 1_555 1_555
N3A H2A 1_555 1_555
N4A C11A 1_555 1_555
C1A N1A 1_555 1_555
H3A C1A 1_555 1_555
C2A C1A 1_555 1_555
H4A C2A 1_555 1_555
C3A C2A 1_555 1_555
H5A C3A 1_555 1_555
C4A C3A 1_555 1_555
C5A N1A 1_555 1_555
H6A C5A 1_555 1_555
C6A N2A 1_555 1_555
C7A N2A 1_555 1_555
H7A C7A 1_555 1_555
H8A C7A 1_555 1_555
C8A N3A 1_555 1_555
H9A C8A 1_555 1_555
H10A C8A 1_555 1_555
C9A N3A 1_555 1_555
C10A C9A 1_555 1_555
C11A C10A 1_555 1_555
H11A C11A 1_555 1_555
C12A N4A 1_555 1_555
H12A C12A 1_555 1_555
C13A C12A 1_555 1_555
H13A C13A 1_555 1_555
C14A C10A 1_555 1_555
H14A C14A 1_555 1_555
O16A Cu1 1_555 1_555
H15A O16A 1_555 1_555
H16A O16A 1_555 1_555
O17A Cu2 1_555 1_555
H17A O17A 1_555 1_555
H18A O17A 1_555 1_555
Cu1_2 O10A 1_555 1_555
Cu2_2 O9 1_555 1_555
Cu2_3 N4A 1_555 1_555
O9_2 Cu2 1_555 1_555
O10A_2 Cu1 1_555 1_555
N4A_2 Cu2 1_555 1_555
Mo2 O2 1_555 1_555
Mo3 O4 1_555 1_555
Mo3 O5 1_555 1_555
Mo4 O3 1_555 1_555
Mo4 O6 1_555 1_555
C4 C5 1_555 1_555
C4 C6 1_555 1_555
C7 C8 1_555 1_555
C13 C14 1_555 1_555
Mo1A O2A 1_555 1_555
Mo1A O3A 1_555 1_555
Mo2A O1A 1_555 1_555
Mo2A O2A 1_555 1_555
Mo2A O9A 1_555 1_555
Mo3A O4A 1_555 1_555
Mo3A O5A 1_555 1_555
Mo4A O1A 1_555 1_555
Mo4A O3A 1_555 1_555
Mo4A O6A 1_555 1_555
C4A C5A 1_555 1_555
C4A C6A 1_555 1_555
C7A C8A 1_555 1_555
C13A C14A 1_555 1_555

#END
