
#######################################################################
#
#                 Cambridge Crystallographic Data Centre
#                                CCDC 
#
#######################################################################
#
# If this CIF has been generated from an entry in the Cambridge 
# Structural Database, then it will include bibliographic, chemical, 
# crystal, experimental, refinement or atomic coordinate data resulting 
# from the CCDC's data processing and validation procedures.
#
#######################################################################

data_FIBKIL
_symmetry_cell_setting           orthorhombic
_symmetry_space_group_name_H-M   'P b c a'
_symmetry_Int_Tables_number      61
_space_group_name_Hall           '-P 2ac 2ab'
loop_
_symmetry_equiv_pos_site_id
_symmetry_equiv_pos_as_xyz
1 x,y,z
2 1/2-x,-y,1/2+z
3 -x,1/2+y,1/2-z
4 1/2+x,1/2-y,-z
5 -x,-y,-z
6 1/2+x,y,1/2-z
7 x,1/2-y,1/2+z
8 1/2-x,1/2+y,z
_cell_length_a                   14.080(3)
_cell_length_b                   5.6874(13)
_cell_length_c                   18.666(4)
_cell_angle_alpha                90
_cell_angle_beta                 90
_cell_angle_gamma                90
_cell_volume                     1494.75
loop_
_atom_site_label
_atom_site_type_symbol
_atom_site_fract_x
_atom_site_fract_y
_atom_site_fract_z
Cd1 Cd 0.5000 0.0000 0.0000
S1 S 0.34149(5) 0.24007(14) 0.04649(5)
N1 N 0.42377(17) -0.1108(5) -0.10584(13)
N2 N 0.31835(18) -0.3531(5) -0.30192(14)
H1 H 0.2838 -0.4799 -0.3033
H2 H 0.3298 -0.2755 -0.3411
N3 N 0.43722(18) 0.6695(4) 0.06093(14)
C1 C 0.3719(2) -0.3095(5) -0.11117(18)
H3 H 0.3585 -0.3933 -0.0690
C2 C 0.3376(2) -0.3961(5) -0.17482(17)
H4 H 0.3026 -0.5369 -0.1754
C3 C 0.3546(2) -0.2761(5) -0.23821(16)
C4 C 0.4076(2) -0.0697(6) -0.23327(17)
H5 H 0.4213 0.0185 -0.2746
C5 C 0.4396(2) 0.0037(6) -0.16761(17)
H6 H 0.4749 0.1437 -0.1657
C6 C 0.39820(19) 0.4920(5) 0.05555(15)
Cd1_2 Cd 0.5000 1.0000 0.0000
Cd1_3 Cd 0.5000 -1.0000 0.0000
S1D S 0.65851(5) -0.24007(14) -0.04649(5)
N1D N 0.57623(17) 0.1108(5) 0.10584(13)
N2D N 0.68165(18) 0.3531(5) 0.30192(14)
H1D H 0.7162 0.4799 0.3033
H2D H 0.6702 0.2755 0.3411
N3D N 0.56278(18) -0.6695(4) -0.06093(14)
N3_2 N 0.43722(18) -0.3305(4) 0.06093(14)
N3D_2 N 0.56278(18) 0.3305(4) -0.06093(14)
C1D C 0.6281(2) 0.3095(5) 0.11117(18)
H3D H 0.6415 0.3933 0.0690
C2D C 0.6624(2) 0.3961(5) 0.17482(17)
H4D H 0.6974 0.5369 0.1754
C3D C 0.6454(2) 0.2761(5) 0.23821(16)
C4D C 0.5924(2) 0.0697(6) 0.23327(17)
H5D H 0.5787 -0.0185 0.2746
C5D C 0.5604(2) -0.0037(6) 0.16761(17)
H6D H 0.5251 -0.1437 0.1657
C6D C 0.60180(19) -0.4920(5) -0.05555(15)
loop_
_geom_bond_atom_site_label_1
_geom_bond_atom_site_label_2
_geom_bond_site_symmetry_1
_geom_bond_site_symmetry_2
Cd1 S1 1_555 1_555
S1 C6 1_555 1_555
N1 Cd1 1_555 1_555
N2 H1 1_555 1_555
H2 N2 1_555 1_555
N3 C6 1_555 1_555
C1 N1 1_555 1_555
H3 C1 1_555 1_555
C2 C1 1_555 1_555
H4 C2 1_555 1_555
C3 N2 1_555 1_555
C4 C3 1_555 1_555
H5 C4 1_555 1_555
C5 N1 1_555 1_555
H6 C5 1_555 1_555
Cd1_2 N3 1_555 1_555
Cd1_3 N3D 1_555 1_555
S1D Cd1 1_555 1_555
N1D Cd1 1_555 1_555
N2D H1D 1_555 1_555
H2D N2D 1_555 1_555
N3D C6D 1_555 1_555
N3_2 Cd1 1_555 1_555
N3D_2 Cd1 1_555 1_555
C1D N1D 1_555 1_555
H3D C1D 1_555 1_555
C2D C1D 1_555 1_555
H4D C2D 1_555 1_555
C3D N2D 1_555 1_555
C4D C3D 1_555 1_555
H5D C4D 1_555 1_555
C5D N1D 1_555 1_555
H6D C5D 1_555 1_555
C6D S1D 1_555 1_555
C2 C3 1_555 1_555
C4 C5 1_555 1_555
C2D C3D 1_555 1_555
C4D C5D 1_555 1_555

#END
