
#######################################################################
#
#                 Cambridge Crystallographic Data Centre
#                                CCDC 
#
#######################################################################
#
# If this CIF has been generated from an entry in the Cambridge 
# Structural Database, then it will include bibliographic, chemical, 
# crystal, experimental, refinement or atomic coordinate data resulting 
# from the CCDC's data processing and validation procedures.
#
#######################################################################

data_FIBLAF
_symmetry_cell_setting           orthorhombic
_symmetry_space_group_name_H-M   'P b c a'
_symmetry_Int_Tables_number      61
_space_group_name_Hall           '-P 2ac 2ab'
loop_
_symmetry_equiv_pos_site_id
_symmetry_equiv_pos_as_xyz
1 x,y,z
2 1/2-x,-y,1/2+z
3 -x,1/2+y,1/2-z
4 1/2+x,1/2-y,-z
5 -x,-y,-z
6 1/2+x,y,1/2-z
7 x,1/2-y,1/2+z
8 1/2-x,1/2+y,z
_cell_length_a                   7.1869(2)
_cell_length_b                   17.6336(5)
_cell_length_c                   18.4088(6)
_cell_angle_alpha                90
_cell_angle_beta                 90
_cell_angle_gamma                90
_cell_volume                     2332.96
loop_
_atom_site_label
_atom_site_type_symbol
_atom_site_fract_x
_atom_site_fract_y
_atom_site_fract_z
Cu1 Cu 0.80315(4) 0.137329(17) 0.300953(18)
S1 S 1.08844(8) 0.08689(3) 0.27870(4)
F1 F 1.2765(3) 0.15950(12) 0.38000(11)
N1 N 0.7165(3) 0.14891(13) 0.40726(13)
F2 F 1.3659(2) 0.04554(10) 0.36018(9)
F3 F 1.1137(2) 0.06581(13) 0.41898(10)
N2 N 0.7624(3) 0.25553(13) 0.30789(12)
C1 C 0.7025(4) 0.09364(19) 0.45678(17)
H1 H 0.7289 0.0442 0.4425
C2 C 0.6739(3) 0.22032(15) 0.42820(15)
C3 C 1.2127(4) 0.09027(17) 0.36077(17)
C4 C 0.7880(4) 0.30628(16) 0.25484(19)
H2 H 0.8355 0.2895 0.2107
C5 C 0.6941(3) 0.27933(15) 0.37143(16)
C6 C 0.6758(5) 0.40689(18) 0.3272(2)
H3 H 0.6459 0.4578 0.3337
C7 C 0.7470(4) 0.38254(17) 0.2625(2)
H4 H 0.7675 0.4164 0.2246
C8 C 0.6482(5) 0.35533(16) 0.3831(2)
H5 H 0.6002 0.3711 0.4275
C9 C 0.6202(4) 0.23676(19) 0.49897(16)
H6 H 0.5911 0.2863 0.5122
C10 C 0.6104(4) 0.1793(2) 0.54942(17)
H7 H 0.5771 0.1897 0.5972
C11 C 0.6507(4) 0.1062(2) 0.52821(17)
H8 H 0.6433 0.0663 0.5611
Cu1E Cu 1.30315(4) 0.137329(17) 0.199047(18)
S1E S 0.58844(8) 0.08689(3) 0.22130(4)
loop_
_geom_bond_atom_site_label_1
_geom_bond_atom_site_label_2
_geom_bond_site_symmetry_1
_geom_bond_site_symmetry_2
Cu1 S1 1_555 1_555
S1 C3 1_555 1_555
F1 C3 1_555 1_555
N1 Cu1 1_555 1_555
F2 C3 1_555 1_555
F3 C3 1_555 1_555
N2 Cu1 1_555 1_555
C1 N1 1_555 1_555
H1 C1 1_555 1_555
C2 N1 1_555 1_555
C4 N2 1_555 1_555
H2 C4 1_555 1_555
C5 N2 1_555 1_555
C6 H3 1_555 1_555
C7 C4 1_555 1_555
H4 C7 1_555 1_555
C8 C5 1_555 1_555
H5 C8 1_555 1_555
C9 C2 1_555 1_555
H6 C9 1_555 1_555
C10 C9 1_555 1_555
H7 C10 1_555 1_555
C11 C1 1_555 1_555
H8 C11 1_555 1_555
Cu1E S1 1_555 1_555
S1E Cu1 1_555 1_555
C2 C5 1_555 1_555
C6 C7 1_555 1_555
C6 C8 1_555 1_555
C10 C11 1_555 1_555

#END
