
#######################################################################
#
#                 Cambridge Crystallographic Data Centre
#                                CCDC 
#
#######################################################################
#
# If this CIF has been generated from an entry in the Cambridge 
# Structural Database, then it will include bibliographic, chemical, 
# crystal, experimental, refinement or atomic coordinate data resulting 
# from the CCDC's data processing and validation procedures.
#
#######################################################################

data_FIBMUA
_symmetry_cell_setting           triclinic
_symmetry_space_group_name_H-M   'P -1'
_symmetry_Int_Tables_number      2
_space_group_name_Hall           '-P 1'
loop_
_symmetry_equiv_pos_site_id
_symmetry_equiv_pos_as_xyz
1 x,y,z
2 -x,-y,-z
_cell_length_a                   7.664(6)
_cell_length_b                   8.100(6)
_cell_length_c                   9.356(9)
_cell_angle_alpha                65.189(11)
_cell_angle_beta                 73.599(14)
_cell_angle_gamma                68.431(7)
_cell_volume                     484.601
loop_
_atom_site_label
_atom_site_type_symbol
_atom_site_fract_x
_atom_site_fract_y
_atom_site_fract_z
C1 C 0.277(2) 0.9286(18) 0.9085(16)
H1 H 0.3751 0.9516 0.9380
H2 H 0.1821 0.9004 1.0019
C2 C 0.1835(17) 1.1101(16) 0.7757(16)
H3 H 0.1132 1.0764 0.7257
H4 H 0.0932 1.1995 0.8245
C3 C 0.322(2) 1.2068(19) 0.6488(15)
H5 H 0.4083 1.1187 0.5973
H6 H 0.2516 1.3141 0.5689
C4 C 0.614(2) 1.2852(18) 0.6384(16)
H7 H 0.6912 1.2435 0.5566
C5 C 0.6576(19) 1.3696(17) 0.7175(15)
H8 H 0.7716 1.3976 0.6964
C6 C 0.3748(18) 1.3488(18) 0.8193(15)
H9 H 0.2558 1.3586 0.8819
N1 N 0.3579(13) 0.7698(12) 0.8581(11)
H10 H 0.4397 0.8042 0.7684
H11 H 0.2632 0.7555 0.8294
N2 N 0.4342(15) 1.2749(14) 0.7045(12)
N3 N 0.5103(15) 1.4068(14) 0.8315(12)
O1 O 0.8334(16) 0.5581(15) 0.8650(13)
O2 O 0.7337(16) 0.8478(16) 0.6627(14)
O3 O 1.028(2) 0.650(3) 0.628(2)
O4 O 0.953(4) 0.808(3) 0.805(3)
Cl1 Cl 0.8884(5) 0.7173(5) 0.7415(5)
Cu1 Cu 0.5000 0.5000 1.0000
C1A C 0.723(2) 0.0714(18) 1.0915(16)
H1A H 0.6249 0.0484 1.0620
H2A H 0.8179 0.0996 0.9981
C2A C 0.8165(17) -0.1101(16) 1.2243(16)
H3A H 0.8868 -0.0764 1.2743
H4A H 0.9068 -0.1995 1.1755
C3A C 0.678(2) -0.2068(19) 1.3512(15)
H5A H 0.5917 -0.1187 1.4027
H6A H 0.7484 -0.3141 1.4311
C4A C 0.386(2) -0.2852(18) 1.3616(16)
H7A H 0.3088 -0.2435 1.4434
C5A C 0.3424(19) -0.3696(17) 1.2825(15)
H8A H 0.2284 -0.3976 1.3036
C6A C 0.6252(18) -0.3488(18) 1.1807(15)
H9A H 0.7442 -0.3586 1.1181
N1A N 0.6421(13) 0.2302(12) 1.1419(11)
H10A H 0.5603 0.1958 1.2316
H11A H 0.7368 0.2445 1.1706
N2A N 0.5658(15) -0.2749(14) 1.2955(12)
N3A N 0.4897(15) -0.4068(14) 1.1685(12)
O1A O 0.1666(16) 0.4419(15) 1.1350(13)
O2A O 0.2663(16) 0.1522(16) 1.3373(14)
O3A O -0.028(2) 0.350(3) 1.372(2)
O4A O 0.047(4) 0.192(3) 1.195(3)
Cl1A Cl 0.1116(5) 0.2827(5) 1.2585(5)
N3_2 N 0.5103(15) 0.4068(14) 0.8315(12)
N3A_2 N 0.4897(15) 0.5932(14) 1.1685(12)
Cu1_2 Cu 0.5000 -0.5000 1.0000
Cu1_3 Cu 0.5000 1.5000 1.0000
loop_
_geom_bond_atom_site_label_1
_geom_bond_atom_site_label_2
_geom_bond_site_symmetry_1
_geom_bond_site_symmetry_2
C1 H1 1_555 1_555
H2 C1 1_555 1_555
C2 C1 1_555 1_555
H3 C2 1_555 1_555
H4 C2 1_555 1_555
C3 C2 1_555 1_555
H5 C3 1_555 1_555
H6 C3 1_555 1_555
C4 H7 1_555 1_555
C5 C4 1_555 1_555
H8 C5 1_555 1_555
C6 H9 1_555 1_555
N1 C1 1_555 1_555
H10 N1 1_555 1_555
H11 N1 1_555 1_555
N2 C3 1_555 1_555
N3 C5 1_555 1_555
O1 Cl1 1_555 1_555
O2 Cl1 1_555 1_555
O3 Cl1 1_555 1_555
O4 Cl1 1_555 1_555
Cu1 N1 1_555 1_555
C1A H1A 1_555 1_555
H2A C1A 1_555 1_555
C2A C1A 1_555 1_555
H3A C2A 1_555 1_555
H4A C2A 1_555 1_555
C3A C2A 1_555 1_555
H5A C3A 1_555 1_555
H6A C3A 1_555 1_555
C4A H7A 1_555 1_555
C5A C4A 1_555 1_555
H8A C5A 1_555 1_555
C6A H9A 1_555 1_555
N1A Cu1 1_555 1_555
H10A N1A 1_555 1_555
H11A N1A 1_555 1_555
N2A C3A 1_555 1_555
N3A C5A 1_555 1_555
O1A Cu1 1_555 1_555
O2A Cl1A 1_555 1_555
O3A Cl1A 1_555 1_555
O4A Cl1A 1_555 1_555
Cl1A O1A 1_555 1_555
N3_2 Cu1 1_555 1_555
N3A_2 Cu1 1_555 1_555
Cu1_2 N3A 1_555 1_555
Cu1_3 N3 1_555 1_555
C4 N2 1_555 1_555
C6 N2 1_555 1_555
C6 N3 1_555 1_555
O1 Cu1 1_555 1_555
C1A N1A 1_555 1_555
C4A N2A 1_555 1_555
C6A N2A 1_555 1_555
C6A N3A 1_555 1_555

#END
