
#######################################################################
#
#                 Cambridge Crystallographic Data Centre
#                                CCDC 
#
#######################################################################
#
# If this CIF has been generated from an entry in the Cambridge 
# Structural Database, then it will include bibliographic, chemical, 
# crystal, experimental, refinement or atomic coordinate data resulting 
# from the CCDC's data processing and validation procedures.
#
#######################################################################

data_FIBMOU
_symmetry_cell_setting           triclinic
_symmetry_space_group_name_H-M   'P -1'
_symmetry_Int_Tables_number      2
_space_group_name_Hall           '-P 1'
loop_
_symmetry_equiv_pos_site_id
_symmetry_equiv_pos_as_xyz
1 x,y,z
2 -x,-y,-z
_cell_length_a                   7.886(3)
_cell_length_b                   8.054(3)
_cell_length_c                   8.974(5)
_cell_angle_alpha                92.949(6)
_cell_angle_beta                 97.346(6)
_cell_angle_gamma                118.189(4)
_cell_volume                     494.153
loop_
_atom_site_label
_atom_site_type_symbol
_atom_site_fract_x
_atom_site_fract_y
_atom_site_fract_z
C1 C 0.7482(5) 0.4159(5) 0.7237(4)
H1 H 0.7270 0.3338 0.8026
H2 H 0.6391 0.4414 0.7075
C2 C 0.9356(5) 0.6032(5) 0.7786(4)
H3 H 1.0401 0.5759 0.8146
H4 H 0.9713 0.6750 0.6937
C3 C 0.9178(6) 0.7249(6) 0.9050(5)
H5 H 0.8788 0.6523 0.9891
H6 H 1.0445 0.8353 0.9407
C4 C 0.6341(6) 0.7875(6) 0.9316(4)
H7 H 0.6093 0.7445 1.0248
C5 C 0.5393(6) 0.8614(6) 0.8451(4)
H8 H 0.4376 0.8790 0.8702
C6 C 0.7578(6) 0.8611(5) 0.7254(4)
H9 H 0.8364 0.8776 0.6525
C7 C 0.2458(5) 0.1663(5) 0.6553(4)
N1 N 0.7500(4) 0.3147(4) 0.5828(3)
H10 H 0.8646 0.3137 0.5933
H11 H 0.7496 0.3845 0.5077
N2 N 0.7738(4) 0.7884(4) 0.8546(3)
N3 N 0.6160(5) 0.9063(4) 0.7150(3)
N4 N 0.2702(5) 0.0367(5) 0.6344(4)
S1 S 0.21460(17) 0.35058(17) 0.68925(13)
Cd1 Cd 0.5000 0.0000 0.5000
C1A C 0.2518(5) -0.4159(5) 0.2763(4)
H1A H 0.2730 -0.3338 0.1974
H2A H 0.3609 -0.4414 0.2925
C2A C 0.0644(5) -0.6032(5) 0.2214(4)
H3A H -0.0401 -0.5759 0.1854
H4A H 0.0287 -0.6750 0.3063
C3A C 0.0822(6) -0.7249(6) 0.0950(5)
H5A H 0.1212 -0.6523 0.0109
H6A H -0.0445 -0.8353 0.0593
C4A C 0.3659(6) -0.7875(6) 0.0684(4)
H7A H 0.3907 -0.7445 -0.0248
C5A C 0.4607(6) -0.8614(6) 0.1549(4)
H8A H 0.5624 -0.8790 0.1298
C6A C 0.2422(6) -0.8611(5) 0.2746(4)
H9A H 0.1636 -0.8776 0.3475
C7A C 0.7542(5) -0.1663(5) 0.3447(4)
N1A N 0.2500(4) -0.3147(4) 0.4172(3)
H10A H 0.1354 -0.3137 0.4067
H11A H 0.2504 -0.3845 0.4923
N2A N 0.2262(4) -0.7884(4) 0.1454(3)
N3A N 0.3840(5) -0.9063(4) 0.2850(3)
N4A N 0.7298(5) -0.0367(5) 0.3656(4)
S1A S 0.78540(17) -0.35058(17) 0.31075(13)
N3_2 N 0.6160(5) -0.0937(4) 0.7150(3)
N3A_2 N 0.3840(5) 0.0937(4) 0.2850(3)
Cd1_2 Cd 0.5000 -1.0000 0.5000
Cd1_3 Cd 0.5000 1.0000 0.5000
loop_
_geom_bond_atom_site_label_1
_geom_bond_atom_site_label_2
_geom_bond_site_symmetry_1
_geom_bond_site_symmetry_2
C1 H1 1_555 1_555
H2 C1 1_555 1_555
C2 C1 1_555 1_555
H3 C2 1_555 1_555
H4 C2 1_555 1_555
C3 C2 1_555 1_555
H5 C3 1_555 1_555
H6 C3 1_555 1_555
C4 H7 1_555 1_555
C5 C4 1_555 1_555
H8 C5 1_555 1_555
C6 H9 1_555 1_555
C7 N4 1_555 1_555
N1 C1 1_555 1_555
H10 N1 1_555 1_555
H11 N1 1_555 1_555
N2 C3 1_555 1_555
N3 C5 1_555 1_555
N4 Cd1 1_555 1_555
S1 C7 1_555 1_555
Cd1 N1 1_555 1_555
C1A H1A 1_555 1_555
H2A C1A 1_555 1_555
C2A C1A 1_555 1_555
H3A C2A 1_555 1_555
H4A C2A 1_555 1_555
C3A C2A 1_555 1_555
H5A C3A 1_555 1_555
H6A C3A 1_555 1_555
C4A H7A 1_555 1_555
C5A C4A 1_555 1_555
H8A C5A 1_555 1_555
C6A H9A 1_555 1_555
C7A N4A 1_555 1_555
N1A Cd1 1_555 1_555
H10A N1A 1_555 1_555
H11A N1A 1_555 1_555
N2A C3A 1_555 1_555
N3A C5A 1_555 1_555
N4A Cd1 1_555 1_555
S1A C7A 1_555 1_555
N3_2 Cd1 1_555 1_555
N3A_2 Cd1 1_555 1_555
Cd1_2 N3A 1_555 1_555
Cd1_3 N3 1_555 1_555
C4 N2 1_555 1_555
C6 N2 1_555 1_555
C6 N3 1_555 1_555
C1A N1A 1_555 1_555
C4A N2A 1_555 1_555
C6A N2A 1_555 1_555
C6A N3A 1_555 1_555

#END
