
#######################################################################
#
#                 Cambridge Crystallographic Data Centre
#                                CCDC 
#
#######################################################################
#
# If this CIF has been generated from an entry in the Cambridge 
# Structural Database, then it will include bibliographic, chemical, 
# crystal, experimental, refinement or atomic coordinate data resulting 
# from the CCDC's data processing and validation procedures.
#
#######################################################################

data_FIBMIO
_symmetry_cell_setting           monoclinic
_symmetry_space_group_name_H-M   'P 21/c'
_symmetry_Int_Tables_number      14
_space_group_name_Hall           '-P 2ybc'
loop_
_symmetry_equiv_pos_site_id
_symmetry_equiv_pos_as_xyz
1 x,y,z
2 -x,1/2+y,1/2-z
3 -x,-y,-z
4 x,1/2-y,1/2+z
_cell_length_a                   9.314(6)
_cell_length_b                   11.184(10)
_cell_length_c                   10.571(9)
_cell_angle_alpha                90
_cell_angle_beta                 118.95(4)
_cell_angle_gamma                90
_cell_volume                     963.56
loop_
_atom_site_label
_atom_site_type_symbol
_atom_site_fract_x
_atom_site_fract_y
_atom_site_fract_z
C1 C 0.2757(15) 0.0395(11) 0.6408(13)
H1 H 0.2046 0.0900 0.5598
H2 H 0.3631 0.0895 0.7109
C2 C 0.1775(14) -0.0085(10) 0.7095(13)
H3 H 0.2470 -0.0597 0.7901
H4 H 0.0873 -0.0565 0.6393
C3 C 0.1089(13) 0.0927(10) 0.7634(12)
H5 H 0.0339 0.1409 0.6817
H6 H 0.0476 0.0582 0.8069
C4 C 0.3608(16) 0.1338(11) 1.0004(13)
H7 H 0.3724 0.0594 1.0436
C5 C 0.4618(16) 0.2292(10) 1.0558(12)
H8 H 0.5558 0.2307 1.1457
C6 C 0.2718(13) 0.2834(9) 0.8462(12)
H9 H 0.2091 0.3272 0.7624
C7 C 0.2415(13) -0.0955(9) 0.1815(12)
N1 N 0.3488(12) -0.0516(9) 0.5889(11)
H10 H 0.2659 -0.0952 0.5215
H11 H 0.4083 -0.1008 0.6635
N2 N 0.2391(11) 0.1690(8) 0.8692(10)
N3 N 0.4065(11) 0.3234(7) 0.9611(9)
N4 N 0.3182(12) -0.0497(9) 0.2905(10)
S1 S 0.1338(5) -0.1623(3) 0.0250(3)
Ni1 Ni 0.5000 0.0000 0.5000
C1B C 0.7243(15) -0.0395(11) 0.3592(13)
H1B H 0.7954 -0.0900 0.4402
H2B H 0.6369 -0.0895 0.2891
C2B C 0.8225(14) 0.0085(10) 0.2905(13)
H3B H 0.7530 0.0597 0.2099
H4B H 0.9127 0.0565 0.3607
C3B C 0.8911(13) -0.0927(10) 0.2366(12)
H5B H 0.9661 -0.1409 0.3183
H6B H 0.9524 -0.0582 0.1931
C4B C 0.6392(16) -0.1338(11) -0.0004(13)
H7B H 0.6276 -0.0594 -0.0436
C5B C 0.5382(16) -0.2292(10) -0.0558(12)
H8B H 0.4442 -0.2307 -0.1457
C6B C 0.7282(13) -0.2834(9) 0.1538(12)
H9B H 0.7909 -0.3272 0.2376
C7B C 0.7585(13) 0.0955(9) 0.8185(12)
N1B N 0.6512(12) 0.0516(9) 0.4111(11)
H10B H 0.7341 0.0952 0.4785
H11B H 0.5917 0.1008 0.3365
N2B N 0.7609(11) -0.1690(8) 0.1308(10)
N3B N 0.5935(11) -0.3234(7) 0.0389(9)
N4B N 0.6818(12) 0.0497(9) 0.7095(10)
S1B S 0.8662(5) 0.1623(3) 0.9750(3)
N3A N 0.5935(11) -0.1766(7) 0.5389(9)
N3C N 0.4065(11) 0.1766(7) 0.4611(9)
Ni1A Ni 0.5000 -0.5000 0.0000
Ni1A_2 Ni 0.5000 0.5000 1.0000
loop_
_geom_bond_atom_site_label_1
_geom_bond_atom_site_label_2
_geom_bond_site_symmetry_1
_geom_bond_site_symmetry_2
C1 H1 1_555 1_555
H2 C1 1_555 1_555
C2 C1 1_555 1_555
H3 C2 1_555 1_555
H4 C2 1_555 1_555
C3 C2 1_555 1_555
H5 C3 1_555 1_555
H6 C3 1_555 1_555
C4 H7 1_555 1_555
C5 C4 1_555 1_555
H8 C5 1_555 1_555
C6 H9 1_555 1_555
C7 N4 1_555 1_555
N1 C1 1_555 1_555
H10 N1 1_555 1_555
H11 N1 1_555 1_555
N2 C3 1_555 1_555
N3 C5 1_555 1_555
N4 Ni1 1_555 1_555
S1 C7 1_555 1_555
Ni1 N1 1_555 1_555
C1B H1B 1_555 1_555
H2B C1B 1_555 1_555
C2B C1B 1_555 1_555
H3B C2B 1_555 1_555
H4B C2B 1_555 1_555
C3B C2B 1_555 1_555
H5B C3B 1_555 1_555
H6B C3B 1_555 1_555
C4B H7B 1_555 1_555
C5B C4B 1_555 1_555
H8B C5B 1_555 1_555
C6B H9B 1_555 1_555
C7B N4B 1_555 1_555
N1B Ni1 1_555 1_555
H10B N1B 1_555 1_555
H11B N1B 1_555 1_555
N2B C3B 1_555 1_555
N3B C5B 1_555 1_555
N4B Ni1 1_555 1_555
S1B C7B 1_555 1_555
N3A Ni1 1_555 1_555
N3C Ni1 1_555 1_555
Ni1A N3B 1_555 1_555
Ni1A_2 N3 1_555 1_555
C4 N2 1_555 1_555
C6 N2 1_555 1_555
C6 N3 1_555 1_555
C1B N1B 1_555 1_555
C4B N2B 1_555 1_555
C6B N2B 1_555 1_555
C6B N3B 1_555 1_555

#END
