
#######################################################################
#
#                 Cambridge Crystallographic Data Centre
#                                CCDC 
#
#######################################################################
#
# If this CIF has been generated from an entry in the Cambridge 
# Structural Database, then it will include bibliographic, chemical, 
# crystal, experimental, refinement or atomic coordinate data resulting 
# from the CCDC's data processing and validation procedures.
#
#######################################################################

data_FIBMEK
_symmetry_cell_setting           triclinic
_symmetry_space_group_name_H-M   'P -1'
_symmetry_Int_Tables_number      2
_space_group_name_Hall           '-P 1'
loop_
_symmetry_equiv_pos_site_id
_symmetry_equiv_pos_as_xyz
1 x,y,z
2 -x,-y,-z
_cell_length_a                   10.024(5)
_cell_length_b                   10.737(5)
_cell_length_c                   16.378(5)
_cell_angle_alpha                94.493(5)
_cell_angle_beta                 93.353(5)
_cell_angle_gamma                91.068(5)
_cell_volume                     1753.82
loop_
_atom_site_label
_atom_site_type_symbol
_atom_site_fract_x
_atom_site_fract_y
_atom_site_fract_z
Cd1 Cd 0.236009(19) 0.061959(17) 0.652094(11)
Cd2 Cd 0.25252(2) 0.262826(17) 0.830837(11)
O1 O 0.10149(19) 0.20222(19) 0.72702(12)
C1 C 0.3322(3) -0.3585(2) 0.90069(17)
O2 O 0.2416(3) -0.0615(2) 0.75729(13)
O3 O -0.61225(19) 0.2343(2) 0.71951(12)
N1 N 0.2082(2) 0.1834(2) 1.54279(14)
O4 O 0.3737(2) -0.57561(17) 0.90223(13)
O5 O -0.0220(2) 0.05862(19) 0.65358(13)
O6 O 0.3264(2) 0.07484(18) 0.85797(14)
N2 N 0.3352(2) -0.2932(2) 0.52277(15)
C2 C 0.0023(4) 0.1781(5) 1.0364(2)
H1 H -0.0691 0.1402 1.0594
O7 O -0.5198(2) 0.0626(2) 0.66790(14)
O8 O 0.2162(2) -0.52034(18) 0.81380(13)
N3 N 0.1111(3) 0.2348(3) 1.07748(15)
C3 C 0.1650(3) -0.1723(3) 0.50808(19)
H2 H 0.0837 -0.1409 0.4898
N4 N 0.1793(3) 0.2580(2) 1.42157(14)
C4 C -0.0117(3) 0.1529(3) 0.70219(16)
C5 C -0.3753(3) 0.2224(3) 0.73403(17)
N5 N 0.2502(3) -0.1154(2) 0.56802(16)
C6 C 0.0524(3) 0.3202(3) 1.21164(18)
H3 H -0.0124 0.3658 1.1849
C7 C 0.3056(3) -0.4933(2) 0.86953(17)
C8 C 0.3225(3) -0.1387(2) 0.88150(17)
C9 C 0.1636(3) 0.2598(3) 1.33374(17)
C10 C 0.1914(3) 0.1550(3) 1.46321(17)
H4 H 0.1883 0.0738 1.4387
C11 C 0.5310(3) -0.5416(3) 0.41841(19)
C12 C 0.1362(3) 0.2456(3) 1.16570(18)
C13 C -0.1345(3) 0.2165(3) 0.73140(17)
C14 C 0.2162(3) -0.2806(3) 0.47943(19)
H5 H 0.1780 -0.3365 0.4380
N6 N 0.1345(3) 0.2496(3) 0.94579(15)
C15 C 0.4538(3) -0.4371(3) 0.43486(19)
H6 H 0.4219 -0.3927 0.3915
C16 C 0.4231(3) -0.3973(3) 0.51399(18)
C17 C 0.3731(3) -0.1125(3) 0.96157(18)
H7 H 0.3847 -0.0298 0.9826
C18 C 0.3517(3) -0.1898(3) 0.5753(2)
H8 H 0.4256 -0.1736 0.6118
C19 C -0.0352(4) 0.4072(4) 1.3438(2)
H9 H 0.0085 0.4834 1.3668
H10 H -0.0674 0.3618 1.3872
H11 H -0.1089 0.4264 1.3072
C20 C 0.3869(3) -0.3311(3) 0.97939(18)
H12 H 0.4108 -0.3955 1.0117
C21 C -0.2609(3) 0.1649(3) 0.70862(17)
H13 H -0.2686 0.0903 0.6756
C22 C -0.3628(3) 0.3334(3) 0.7845(2)
H14 H -0.4388 0.3725 0.8028
C23 C 0.2067(3) 0.3114(3) 1.55298(19)
H15 H 0.2165 0.3586 1.6031
C24 C 0.2993(3) -0.2627(2) 0.85164(16)
H16 H 0.2617 -0.2813 0.7987
C25 C -0.5108(3) 0.1681(3) 0.70551(18)
C26 C 0.2930(3) -0.0339(3) 0.82745(19)
C27 C -0.2378(3) 0.3854(3) 0.8074(2)
H17 H -0.2299 0.4593 0.8411
C28 C 0.1888(4) 0.3582(3) 1.4792(2)
H18 H 0.1838 0.4421 1.4692
C29 C 0.5656(4) -0.5758(3) 0.33120(19)
H19 H 0.5027 -0.6379 0.3061
H20 H 0.6541 -0.6085 0.3310
H21 H 0.5620 -0.5027 0.3009
C30 C 0.0632(3) 0.3285(3) 1.29700(18)
C31 C 0.2351(3) 0.1767(3) 1.20238(19)
C32 C 0.1877(4) 0.2768(3) 1.02023(18)
H22 H 0.2687 0.3199 1.0320
C33 C 0.4064(4) -0.2074(3) 1.01056(19)
H23 H 0.4417 -0.1888 1.0640
C34 C 0.2484(3) 0.1871(3) 1.28759(19)
H24 H 0.3157 0.1443 1.3141
C35 C 0.0175(4) 0.1872(4) 0.9558(2)
H25 H -0.0427 0.1558 0.9135
C36 C -0.1244(3) 0.3280(3) 0.78041(19)
H26 H -0.0407 0.3645 0.7952
C37 C 0.3247(4) 0.0916(4) 1.1535(2)
H27 H 0.2719 0.0249 1.1244
H28 H 0.3902 0.0573 1.1900
H29 H 0.3689 0.1384 1.1149
N2A N 0.6648(2) -0.7068(2) 0.47723(15)
C3A C 0.8350(3) -0.8277(3) 0.49192(19)
H2A H 0.9163 -0.8591 0.5102
N5A N 0.7498(3) -0.8846(2) 0.43198(16)
C11A C 0.4690(3) -0.4584(3) 0.58159(19)
C14A C 0.7838(3) -0.7194(3) 0.52057(19)
H5A H 0.8220 -0.6635 0.5620
C15A C 0.5462(3) -0.5629(3) 0.56514(19)
H6A H 0.5781 -0.6073 0.6085
C16A C 0.5769(3) -0.6027(3) 0.48601(18)
C18A C 0.6483(3) -0.8102(3) 0.4247(2)
H8A H 0.5744 -0.8264 0.3882
C29A C 0.4344(4) -0.4242(3) 0.66880(19)
H19A H 0.4973 -0.3621 0.6939
H20A H 0.3459 -0.3915 0.6690
H21A H 0.4380 -0.4973 0.6991
Cd1A Cd 0.763991(19) -1.061959(17) 0.347906(11)
Cd2A Cd 0.74748(2) -1.262826(17) 0.169163(11)
O1A O 0.89851(19) -1.20222(19) 0.27298(12)
C1A C 0.6678(3) -0.6415(2) 0.09931(17)
O2A O 0.7584(3) -0.9385(2) 0.24271(13)
O3A O 1.61225(19) -1.2343(2) 0.28049(12)
N1A N 0.7918(2) -1.1834(2) -0.54279(14)
O4A O 0.6263(2) -0.42439(17) 0.09777(13)
O5A O 1.0220(2) -1.05862(19) 0.34642(13)
O6A O 0.6736(2) -1.07484(18) 0.14203(14)
C2A C 0.9977(4) -1.1781(5) -0.0364(2)
H1A H 1.0691 -1.1402 -0.0594
O7A O 1.5198(2) -1.0626(2) 0.33210(14)
O8A O 0.7838(2) -0.47966(18) 0.18620(13)
N3A N 0.8889(3) -1.2348(3) -0.07748(15)
N4A N 0.8207(3) -1.2580(2) -0.42157(14)
C4A C 1.0117(3) -1.1529(3) 0.29781(16)
C5A C 1.3753(3) -1.2224(3) 0.26597(17)
C6A C 0.9476(3) -1.3202(3) -0.21164(18)
H3A H 1.0124 -1.3658 -0.1849
C7A C 0.6944(3) -0.5067(2) 0.13047(17)
C8A C 0.6775(3) -0.8613(2) 0.11850(17)
C9A C 0.8364(3) -1.2598(3) -0.33374(17)
C10A C 0.8086(3) -1.1550(3) -0.46321(17)
H4A H 0.8117 -1.0738 -0.4387
C12A C 0.8638(3) -1.2456(3) -0.16570(18)
C13A C 1.1345(3) -1.2165(3) 0.26860(17)
N6A N 0.8655(3) -1.2496(3) 0.05421(15)
C17A C 0.6269(3) -0.8875(3) 0.03843(18)
H7A H 0.6153 -0.9702 0.0174
C19A C 1.0352(4) -1.4072(4) -0.3438(2)
H9A H 0.9915 -1.4834 -0.3668
H10A H 1.0674 -1.3618 -0.3872
H11A H 1.1089 -1.4264 -0.3072
C20A C 0.6131(3) -0.6689(3) 0.02061(18)
H12A H 0.5892 -0.6045 -0.0117
C21A C 1.2609(3) -1.1649(3) 0.29138(17)
H13A H 1.2686 -1.0903 0.3244
C22A C 1.3628(3) -1.3334(3) 0.2155(2)
H14A H 1.4388 -1.3725 0.1972
C23A C 0.7933(3) -1.3114(3) -0.55298(19)
H15A H 0.7835 -1.3586 -0.6031
C24A C 0.7007(3) -0.7373(2) 0.14836(16)
H16A H 0.7383 -0.7187 0.2013
C25A C 1.5108(3) -1.1681(3) 0.29449(18)
C26A C 0.7070(3) -0.9661(3) 0.17255(19)
C27A C 1.2378(3) -1.3854(3) 0.1926(2)
H17A H 1.2299 -1.4593 0.1589
C28A C 0.8112(4) -1.3582(3) -0.4792(2)
H18A H 0.8162 -1.4421 -0.4692
C30A C 0.9368(3) -1.3285(3) -0.29700(18)
C31A C 0.7649(3) -1.1767(3) -0.20238(19)
C32A C 0.8123(4) -1.2768(3) -0.02023(18)
H22A H 0.7313 -1.3199 -0.0320
C33A C 0.5936(4) -0.7926(3) -0.01056(19)
H23A H 0.5583 -0.8112 -0.0640
C34A C 0.7516(3) -1.1871(3) -0.28759(19)
H24A H 0.6843 -1.1443 -0.3141
C35A C 0.9825(4) -1.1872(4) 0.0442(2)
H25A H 1.0427 -1.1558 0.0865
C36A C 1.1244(3) -1.3280(3) 0.21959(19)
H26A H 1.0407 -1.3645 0.2048
C37A C 0.6753(4) -1.0916(4) -0.1535(2)
H27A H 0.7281 -1.0249 -0.1244
H28A H 0.6098 -1.0573 -0.1900
H29A H 0.6311 -1.1384 -0.1149
Cd1_2 Cd -0.763991(19) 0.061959(17) 0.652094(11)
Cd1_3 Cd 0.236009(19) 0.061959(17) 1.652094(11)
Cd1A_2 Cd 0.763991(19) -1.061959(17) -0.652094(11)
Cd1A_3 Cd 1.763991(19) -1.061959(17) 0.347906(11)
Cd2_2 Cd -0.74748(2) 0.262826(17) 0.830837(11)
Cd2_3 Cd 0.25252(2) -0.737174(17) 0.830837(11)
Cd2A_2 Cd 0.74748(2) -0.262826(17) 0.169163(11)
Cd2A_3 Cd 1.74748(2) -1.262826(17) 0.169163(11)
O3_2 O 0.38775(19) 0.2343(2) 0.71951(12)
O3A_2 O 0.61225(19) -1.2343(2) 0.28049(12)
N1_2 N 0.2082(2) 0.1834(2) 0.54279(14)
N1A_2 N 0.7918(2) -1.1834(2) 0.45721(14)
O4_2 O 0.3737(2) 0.42439(17) 0.90223(13)
O4A_2 O 0.6263(2) -1.42439(17) 0.09777(13)
O7_2 O 0.4802(2) 0.0626(2) 0.66790(14)
O7A_2 O 0.5198(2) -1.0626(2) 0.33210(14)
O8_2 O 0.2162(2) 0.47966(18) 0.81380(13)
O8A_2 O 0.7838(2) -1.47966(18) 0.18620(13)
loop_
_geom_bond_atom_site_label_1
_geom_bond_atom_site_label_2
_geom_bond_site_symmetry_1
_geom_bond_site_symmetry_2
Cd1 O1 1_555 1_555
Cd2 O1 1_555 1_555
O1 C4 1_555 1_555
C1 C7 1_555 1_555
O2 Cd1 1_555 1_555
O3 C25 1_555 1_555
N1 C10 1_555 1_555
O4 C7 1_555 1_555
O5 Cd1 1_555 1_555
O6 Cd2 1_555 1_555
N2 C14 1_555 1_555
C2 H1 1_555 1_555
O7 C25 1_555 1_555
O8 C7 1_555 1_555
N3 C2 1_555 1_555
C3 H2 1_555 1_555
N4 C9 1_555 1_555
C4 O5 1_555 1_555
C5 C21 1_555 1_555
N5 Cd1 1_555 1_555
C6 H3 1_555 1_555
C8 C17 1_555 1_555
C9 C30 1_555 1_555
C10 N4 1_555 1_555
H4 C10 1_555 1_555
C11 C15 1_555 1_555
C12 N3 1_555 1_555
C13 C4 1_555 1_555
C14 C3 1_555 1_555
H5 C14 1_555 1_555
N6 Cd2 1_555 1_555
C15 H6 1_555 1_555
C16 N2 1_555 1_555
C17 H7 1_555 1_555
C18 N2 1_555 1_555
H8 C18 1_555 1_555
C19 H9 1_555 1_555
H10 C19 1_555 1_555
H11 C19 1_555 1_555
C20 C1 1_555 1_555
H12 C20 1_555 1_555
C21 C13 1_555 1_555
H13 C21 1_555 1_555
C22 C5 1_555 1_555
H14 C22 1_555 1_555
C23 N1 1_555 1_555
H15 C23 1_555 1_555
C24 C1 1_555 1_555
H16 C24 1_555 1_555
C25 C5 1_555 1_555
C26 O2 1_555 1_555
C27 C22 1_555 1_555
H17 C27 1_555 1_555
C28 N4 1_555 1_555
H18 C28 1_555 1_555
C29 C11 1_555 1_555
H19 C29 1_555 1_555
H20 C29 1_555 1_555
H21 C29 1_555 1_555
C30 C6 1_555 1_555
C31 C12 1_555 1_555
C32 N3 1_555 1_555
H22 C32 1_555 1_555
C33 C17 1_555 1_555
H23 C33 1_555 1_555
C34 C9 1_555 1_555
H24 C34 1_555 1_555
C35 C2 1_555 1_555
H25 C35 1_555 1_555
C36 C13 1_555 1_555
H26 C36 1_555 1_555
C37 C31 1_555 1_555
H27 C37 1_555 1_555
H28 C37 1_555 1_555
H29 C37 1_555 1_555
N2A C14A 1_555 1_555
C3A H2A 1_555 1_555
N5A C3A 1_555 1_555
C11A C16 1_555 1_555
C14A C3A 1_555 1_555
H5A C14A 1_555 1_555
C15A C11A 1_555 1_555
H6A C15A 1_555 1_555
C16A C11 1_555 1_555
C18A N2A 1_555 1_555
H8A C18A 1_555 1_555
C29A C11A 1_555 1_555
H19A C29A 1_555 1_555
H20A C29A 1_555 1_555
H21A C29A 1_555 1_555
Cd1A N5A 1_555 1_555
Cd2A O1A 1_555 1_555
O1A Cd1A 1_555 1_555
C1A C7A 1_555 1_555
O2A Cd1A 1_555 1_555
O3A C25A 1_555 1_555
N1A C10A 1_555 1_555
O4A C7A 1_555 1_555
O5A Cd1A 1_555 1_555
O6A Cd2A 1_555 1_555
C2A H1A 1_555 1_555
O7A C25A 1_555 1_555
O8A C7A 1_555 1_555
N3A C2A 1_555 1_555
N4A C9A 1_555 1_555
C4A O1A 1_555 1_555
C5A C21A 1_555 1_555
C6A H3A 1_555 1_555
C8A C17A 1_555 1_555
C9A C30A 1_555 1_555
C10A N4A 1_555 1_555
H4A C10A 1_555 1_555
C12A N3A 1_555 1_555
C13A C4A 1_555 1_555
N6A Cd2A 1_555 1_555
C17A H7A 1_555 1_555
C19A H9A 1_555 1_555
H10A C19A 1_555 1_555
H11A C19A 1_555 1_555
C20A C1A 1_555 1_555
H12A C20A 1_555 1_555
C21A C13A 1_555 1_555
H13A C21A 1_555 1_555
C22A C5A 1_555 1_555
H14A C22A 1_555 1_555
C23A N1A 1_555 1_555
H15A C23A 1_555 1_555
C24A C1A 1_555 1_555
H16A C24A 1_555 1_555
C25A C5A 1_555 1_555
C26A O2A 1_555 1_555
C27A C22A 1_555 1_555
H17A C27A 1_555 1_555
C28A N4A 1_555 1_555
H18A C28A 1_555 1_555
C30A C6A 1_555 1_555
C31A C12A 1_555 1_555
C32A N3A 1_555 1_555
H22A C32A 1_555 1_555
C33A C17A 1_555 1_555
H23A C33A 1_555 1_555
C34A C9A 1_555 1_555
H24A C34A 1_555 1_555
C35A C2A 1_555 1_555
H25A C35A 1_555 1_555
C36A C13A 1_555 1_555
H26A C36A 1_555 1_555
C37A C31A 1_555 1_555
H27A C37A 1_555 1_555
H28A C37A 1_555 1_555
H29A C37A 1_555 1_555
Cd1_2 O3 1_555 1_555
Cd1_3 N1 1_555 1_555
Cd1A_2 N1A 1_555 1_555
Cd1A_3 O3A 1_555 1_555
Cd2_2 O3 1_555 1_555
Cd2_3 O4 1_555 1_555
Cd2A_2 O4A 1_555 1_555
Cd2A_3 O3A 1_555 1_555
O3_2 Cd1 1_555 1_555
O3A_2 Cd1A 1_555 1_555
N1_2 Cd1 1_555 1_555
N1A_2 Cd1A 1_555 1_555
O4_2 Cd2 1_555 1_555
O4A_2 Cd2A 1_555 1_555
O7_2 Cd1 1_555 1_555
O7A_2 Cd1A 1_555 1_555
O8_2 Cd2 1_555 1_555
O8A_2 Cd2A 1_555 1_555
Cd2 O3_2 1_555 1_555
O6 C26 1_555 1_555
O7 Cd1_2 1_555 1_555
O8 Cd2_3 1_555 1_555
C3 N5 1_555 1_555
N5 C18 1_555 1_555
C6 C12 1_555 1_555
C8 C24 1_555 1_555
C8 C26 1_555 1_555
N6 C32 1_555 1_555
N6 C35 1_555 1_555
C15 C16 1_555 1_555
C19 C30 1_555 1_555
C20 C33 1_555 1_555
C23 C28 1_555 1_555
C27 C36 1_555 1_555
C31 C34 1_555 1_555
N2A C16A 1_555 1_555
N5A C18A 1_555 1_555
C15A C16A 1_555 1_555
Cd2A O3A_2 1_555 1_555
O5A C4A 1_555 1_555
O6A C26A 1_555 1_555
O7A Cd1A_3 1_555 1_555
O8A Cd2A_2 1_555 1_555
C6A C12A 1_555 1_555
C8A C24A 1_555 1_555
C8A C26A 1_555 1_555
N6A C32A 1_555 1_555
N6A C35A 1_555 1_555
C19A C30A 1_555 1_555
C20A C33A 1_555 1_555
C23A C28A 1_555 1_555
C27A C36A 1_555 1_555
C31A C34A 1_555 1_555

#END
