
#######################################################################
#
#                 Cambridge Crystallographic Data Centre
#                                CCDC 
#
#######################################################################
#
# If this CIF has been generated from an entry in the Cambridge 
# Structural Database, then it will include bibliographic, chemical, 
# crystal, experimental, refinement or atomic coordinate data resulting 
# from the CCDC's data processing and validation procedures.
#
#######################################################################

data_FIBMAG
_symmetry_cell_setting           monoclinic
_symmetry_space_group_name_H-M   'C 2/c'
_symmetry_Int_Tables_number      15
_space_group_name_Hall           '-C 2yn'
loop_
_symmetry_equiv_pos_site_id
_symmetry_equiv_pos_as_xyz
1 x,y,z
2 -x,y,1/2-z
3 1/2+x,1/2+y,z
4 1/2-x,1/2+y,1/2-z
5 -x,-y,-z
6 x,-y,1/2+z
7 1/2-x,1/2-y,-z
8 1/2+x,1/2-y,1/2+z
_cell_length_a                   25.328(5)
_cell_length_b                   11.327(5)
_cell_length_c                   20.358(5)
_cell_angle_alpha                90
_cell_angle_beta                 110.460(5)
_cell_angle_gamma                90
_cell_volume                     5472.07
loop_
_atom_site_label
_atom_site_type_symbol
_atom_site_fract_x
_atom_site_fract_y
_atom_site_fract_z
Cd1 Cd 0.763216(10) 0.21931(2) 0.123035(12)
O1 O 0.77495(10) 0.3702(2) -0.01551(13)
O2 O 0.82631(11) 0.3317(3) 0.09600(14)
O3 O 0.72981(14) 0.1361(3) 0.21446(15)
O4 O 0.79175(14) 0.2810(3) 0.23996(16)
N1 N 0.33133(13) 0.5750(3) 0.15344(17)
N2 N 0.60439(14) 0.4125(4) 0.09155(19)
N3 N 0.68525(13) 0.3377(3) 0.09524(18)
N4 N 0.40776(13) 0.4792(3) 0.15599(18)
C1 C 0.82108(14) 0.3633(3) 0.03442(18)
C2 C 0.7520(2) 0.2423(4) 0.4647(2)
C3 C 0.97388(14) 0.4777(3) 0.00459(19)
C4 C 0.45860(15) 0.4569(4) 0.1411(2)
C5 C 0.87451(14) 0.3988(3) 0.02332(18)
C6 C 0.64492(16) 0.3324(4) 0.1223(2)
H1 H 0.6445 0.2807 0.1576
C7 C 0.87327(16) 0.4431(4) -0.0404(2)
H2 H 0.8392 0.4470 -0.0777
C8 C 0.76059(18) 0.2093(4) 0.2571(2)
C9 C 0.92233(16) 0.4820(4) -0.0493(2)
H3 H 0.9204 0.5116 -0.0926
C10 C 0.54581(17) 0.5383(4) 0.1366(2)
C11 C 0.55403(16) 0.4309(4) 0.1083(2)
C12 C 0.97485(18) 0.4283(6) 0.0673(2)
H4 H 1.0090 0.4210 0.1041
C13 C 0.37519(16) 0.5756(4) 0.1330(2)
H5 H 0.3828 0.6350 0.1061
C14 C 0.75910(19) 0.2167(4) 0.3303(2)
C15 C 0.51568(18) 0.3401(4) 0.0961(3)
H6 H 0.5228 0.2698 0.0771
C16 C 0.46648(18) 0.3506(4) 0.1116(3)
C17 C 0.49693(17) 0.5478(4) 0.1534(2)
H7 H 0.4901 0.6173 0.1734
C18 C 0.6698(2) 0.4235(5) 0.0455(2)
H8 H 0.6906 0.4467 0.0180
C19 C 0.92592(18) 0.3894(5) 0.0763(2)
H9 H 0.9279 0.3564 0.1189
C20 C 0.3833(2) 0.4135(4) 0.1943(3)
H10 H 0.3964 0.3426 0.2173
C21 C 0.5870(2) 0.6393(6) 0.1516(4)
H11 H 0.6248 0.6089 0.1683
H12 H 0.5817 0.6896 0.1867
H13 H 0.5809 0.6838 0.1094
C22 C 0.33629(19) 0.4731(4) 0.1919(3)
H14 H 0.3111 0.4486 0.2132
C23 C 0.7879(3) 0.3034(7) 0.3748(3)
H15 H 0.8104 0.3550 0.3607
C24 C 0.7279(3) 0.1396(5) 0.3539(3)
H16 H 0.7092 0.0776 0.3253
C25 C 0.4234(3) 0.2519(6) 0.0931(5)
H17 H 0.4287 0.2039 0.1338
H18 H 0.4281 0.2043 0.0565
H19 H 0.3862 0.2850 0.0774
C26 C 0.7842(3) 0.3164(7) 0.4414(3)
H20 H 0.8042 0.3769 0.4704
C27 C 0.6204(2) 0.4693(6) 0.0418(3)
H21 H 0.6005 0.5284 0.0114
C28 C 0.7241(3) 0.1528(5) 0.4202(3)
H22 H 0.7022 0.1002 0.4347
O1D O 1.22505(10) 0.6298(2) 0.01551(13)
O2D O 1.17369(11) 0.6683(3) -0.09600(14)
C1D C 1.17892(14) 0.6367(3) -0.03442(18)
C3D C 1.02612(14) 0.5223(3) -0.00459(19)
C5D C 1.12549(14) 0.6012(3) -0.02332(18)
C7D C 1.12673(16) 0.5569(4) 0.0404(2)
H2D H 1.1608 0.5530 0.0777
C9D C 1.07767(16) 0.5180(4) 0.0493(2)
H3D H 1.0796 0.4884 0.0926
C12D C 1.02515(18) 0.5717(6) -0.0673(2)
H4D H 0.9910 0.5790 -0.1041
C19D C 1.07408(18) 0.6106(5) -0.0763(2)
H9D H 1.0721 0.6436 -0.1189
O3F O 0.77019(14) 0.3639(3) 0.78554(15)
O4F O 0.70825(14) 0.2190(3) 0.76004(16)
C2F C 0.7480(2) 0.2577(4) 0.5353(2)
C8F C 0.73941(18) 0.2907(4) 0.7429(2)
C14F C 0.74090(19) 0.2833(4) 0.6697(2)
C23F C 0.7121(3) 0.1966(7) 0.6252(3)
H15F H 0.6896 0.1450 0.6393
C24F C 0.7721(3) 0.3604(5) 0.6461(3)
H16F H 0.7908 0.4224 0.6747
C26F C 0.7158(3) 0.1836(7) 0.5586(3)
H20F H 0.6958 0.1231 0.5296
C28F C 0.7759(3) 0.3472(5) 0.5798(3)
H22F H 0.7978 0.3998 0.5653
Cd1D Cd 1.236784(10) 0.78069(2) -0.123035(12)
N1D N 1.66867(13) 0.4250(3) -0.15344(17)
N2D N 1.39561(14) 0.5875(4) -0.09155(19)
N3D N 1.31475(13) 0.6623(3) -0.09524(18)
N4D N 1.59224(13) 0.5208(3) -0.15599(18)
C4D C 1.54140(15) 0.5431(4) -0.1411(2)
C6D C 1.35508(16) 0.6676(4) -0.1223(2)
H1D H 1.3555 0.7193 -0.1576
C10D C 1.45419(17) 0.4617(4) -0.1366(2)
C11D C 1.44597(16) 0.5691(4) -0.1083(2)
C13D C 1.62481(16) 0.4244(4) -0.1330(2)
H5D H 1.6172 0.3650 -0.1061
C15D C 1.48432(18) 0.6599(4) -0.0961(3)
H6D H 1.4772 0.7302 -0.0771
C16D C 1.53352(18) 0.6494(4) -0.1116(3)
C17D C 1.50307(17) 0.4522(4) -0.1534(2)
H7D H 1.5099 0.3827 -0.1734
C18D C 1.3302(2) 0.5765(5) -0.0455(2)
H8D H 1.3094 0.5533 -0.0180
C20D C 1.6167(2) 0.5865(4) -0.1943(3)
H10D H 1.6036 0.6574 -0.2173
C21D C 1.4130(2) 0.3607(6) -0.1516(4)
H11D H 1.3752 0.3911 -0.1683
H12D H 1.4183 0.3104 -0.1867
H13D H 1.4191 0.3162 -0.1094
C22D C 1.66371(19) 0.5269(4) -0.1919(3)
H14D H 1.6889 0.5514 -0.2132
C25D C 1.5766(3) 0.7481(6) -0.0931(5)
H17D H 1.5713 0.7961 -0.1338
H18D H 1.5719 0.7957 -0.0565
H19D H 1.6138 0.7150 -0.0774
C27D C 1.3796(2) 0.5307(6) -0.0418(3)
H21D H 1.3995 0.4716 -0.0114
Cd1B Cd 0.263216(10) 0.71931(2) 0.123035(12)
Cd1B_2 Cd 1.263216(10) 0.71931(2) 0.123035(12)
Cd1F Cd 0.736784(10) 0.28069(2) -0.123035(12)
Cd1F_2 Cd 0.736784(10) 0.28069(2) 0.876965(12)
Cd1F_3 Cd 1.736784(10) 0.28069(2) -0.123035(12)
O1B O 1.27495(10) 0.8702(2) -0.01551(13)
O1F O 0.72505(10) 0.1298(2) 0.01551(13)
O3D O 1.27019(14) 0.8639(3) -0.21446(15)
O4D O 1.20825(14) 0.7190(3) -0.23996(16)
N1B N 0.83133(13) 0.0750(3) 0.15344(17)
N1F N 1.16867(13) 0.9250(3) -0.15344(17)
O5 O 0.5000 0.8010(7) 0.2500
H23 H 0.4727(19) 0.7589(18) 0.251(6)
H23A H 0.5273(19) 0.7589(18) 0.249(6)
O6 O 0.8943(5) 0.4132(12) 0.2322(5)
H24 H 0.8713 0.3936 0.1921
H25 H 0.9250 0.3846 0.2311
O7 O 0.8528(7) 0.4733(10) 0.2886(5)
H26 H 0.8475 0.4434 0.2485
H27 H 0.8692 0.5397 0.2918
loop_
_geom_bond_atom_site_label_1
_geom_bond_atom_site_label_2
_geom_bond_site_symmetry_1
_geom_bond_site_symmetry_2
Cd1 O2 1_555 1_555
O1 C1 1_555 1_555
O2 C1 1_555 1_555
O3 Cd1 1_555 1_555
O4 Cd1 1_555 1_555
N1 C13 1_555 1_555
N2 C6 1_555 1_555
N3 Cd1 1_555 1_555
N4 C4 1_555 1_555
C1 C5 1_555 1_555
C2 C26 1_555 1_555
C3 C9 1_555 1_555
C4 C16 1_555 1_555
C5 C7 1_555 1_555
C6 N3 1_555 1_555
H1 C6 1_555 1_555
C7 H2 1_555 1_555
C8 O3 1_555 1_555
C9 C7 1_555 1_555
H3 C9 1_555 1_555
C10 C11 1_555 1_555
C11 N2 1_555 1_555
C12 C3 1_555 1_555
H4 C12 1_555 1_555
C13 N4 1_555 1_555
H5 C13 1_555 1_555
C14 C8 1_555 1_555
C15 C11 1_555 1_555
H6 C15 1_555 1_555
C16 C15 1_555 1_555
C17 C4 1_555 1_555
H7 C17 1_555 1_555
C18 N3 1_555 1_555
H8 C18 1_555 1_555
C19 C5 1_555 1_555
H9 C19 1_555 1_555
C20 N4 1_555 1_555
H10 C20 1_555 1_555
C21 C10 1_555 1_555
H11 C21 1_555 1_555
H12 C21 1_555 1_555
H13 C21 1_555 1_555
C22 N1 1_555 1_555
H14 C22 1_555 1_555
C23 C14 1_555 1_555
H15 C23 1_555 1_555
C24 C14 1_555 1_555
H16 C24 1_555 1_555
C25 C16 1_555 1_555
H17 C25 1_555 1_555
H18 C25 1_555 1_555
H19 C25 1_555 1_555
C26 C23 1_555 1_555
H20 C26 1_555 1_555
C27 N2 1_555 1_555
H21 C27 1_555 1_555
C28 C2 1_555 1_555
H22 C28 1_555 1_555
O5 H23 1_555 1_555
O6 H24 1_555 1_555
H25 O6 1_555 1_555
O7 H26 1_555 1_555
H27 O7 1_555 1_555
O1D C1D 1_555 1_555
O2D C1D 1_555 1_555
C1D C5D 1_555 1_555
C3D C3 1_555 1_555
C5D C7D 1_555 1_555
C7D H2D 1_555 1_555
C9D C3D 1_555 1_555
H3D C9D 1_555 1_555
C12D C3D 1_555 1_555
H4D C12D 1_555 1_555
C19D C5D 1_555 1_555
H9D C19D 1_555 1_555
O3F C8F 1_555 1_555
O4F C8F 1_555 1_555
C2F C2 1_555 1_555
C8F C14F 1_555 1_555
C14F C23F 1_555 1_555
C23F H15F 1_555 1_555
C24F C14F 1_555 1_555
H16F C24F 1_555 1_555
C26F C2F 1_555 1_555
H20F C26F 1_555 1_555
C28F C2F 1_555 1_555
H22F C28F 1_555 1_555
Cd1D O2D 1_555 1_555
N1D C13D 1_555 1_555
N2D C6D 1_555 1_555
N3D Cd1D 1_555 1_555
N4D C4D 1_555 1_555
C4D C16D 1_555 1_555
C6D N3D 1_555 1_555
H1D C6D 1_555 1_555
C10D C11D 1_555 1_555
C11D N2D 1_555 1_555
C13D N4D 1_555 1_555
H5D C13D 1_555 1_555
C15D C11D 1_555 1_555
H6D C15D 1_555 1_555
C16D C15D 1_555 1_555
C17D C4D 1_555 1_555
H7D C17D 1_555 1_555
C18D N3D 1_555 1_555
H8D C18D 1_555 1_555
C20D N4D 1_555 1_555
H10D C20D 1_555 1_555
C21D C10D 1_555 1_555
H11D C21D 1_555 1_555
H12D C21D 1_555 1_555
H13D C21D 1_555 1_555
C22D N1D 1_555 1_555
H14D C22D 1_555 1_555
C25D C16D 1_555 1_555
H17D C25D 1_555 1_555
H18D C25D 1_555 1_555
H19D C25D 1_555 1_555
C27D N2D 1_555 1_555
H21D C27D 1_555 1_555
Cd1B N1 1_555 1_555
Cd1B_2 O1D 1_555 1_555
Cd1F O1 1_555 1_555
Cd1F_2 O3F 1_555 1_555
Cd1F_3 N1D 1_555 1_555
O1B Cd1D 1_555 1_555
O1F Cd1 1_555 1_555
O3D Cd1D 1_555 1_555
O4D Cd1D 1_555 1_555
N1B Cd1 1_555 1_555
N1F Cd1D 1_555 1_555
H23A O5 1_555 1_555
O4 C8 1_555 1_555
C10 C17 1_555 1_555
C12 C19 1_555 1_555
C18 C27 1_555 1_555
C20 C22 1_555 1_555
C24 C28 1_555 1_555
C7D C9D 1_555 1_555
C12D C19D 1_555 1_555
O4F Cd1F_2 1_555 1_555
C23F C26F 1_555 1_555
C24F C28F 1_555 1_555
C10D C17D 1_555 1_555
C18D C27D 1_555 1_555
C20D C22D 1_555 1_555

#END
