
#######################################################################
#
#                 Cambridge Crystallographic Data Centre
#                                CCDC 
#
#######################################################################
#
# If this CIF has been generated from an entry in the Cambridge 
# Structural Database, then it will include bibliographic, chemical, 
# crystal, experimental, refinement or atomic coordinate data resulting 
# from the CCDC's data processing and validation procedures.
#
#######################################################################

data_FIBNEL
_symmetry_cell_setting           trigonal
_symmetry_space_group_name_H-M   'P -3'
_symmetry_Int_Tables_number      147
_space_group_name_Hall           '-P 3'
loop_
_symmetry_equiv_pos_site_id
_symmetry_equiv_pos_as_xyz
1 x,y,z
2 -y,x-y,z
3 -x+y,-x,z
4 -x,-y,-z
5 y,-x+y,-z
6 x-y,x,-z
_cell_length_a                   19.0705(13)
_cell_length_b                   19.0705(13)
_cell_length_c                   8.4887(8)
_cell_angle_alpha                90
_cell_angle_beta                 90
_cell_angle_gamma                120
_cell_volume                     2673.6
loop_
_atom_site_label
_atom_site_type_symbol
_atom_site_fract_x
_atom_site_fract_y
_atom_site_fract_z
Zn1 Zn 0.36625(4) 0.33741(4) 0.42277(9)
C1 C 0.0633(4) -0.0175(4) 0.2635(8)
H1 H 0.1054 -0.0288 0.2650
C2 C 0.0788(4) 0.0626(4) 0.2624(8)
C3 C 0.2000(4) 0.1904(4) 0.3538(9)
H2 H 0.1771 0.1985 0.4437
C4 C 0.2845(4) 0.2057(5) 0.1714(9)
H3 H 0.3314 0.2278 0.1108
C5 C 0.2161(5) 0.1362(5) 0.1403(10)
H4 H 0.2076 0.1010 0.0573
C6 C 0.2549(3) 0.6007(3) 0.5518(8)
H5 H 0.2025 0.5567 0.5517
C7 C 0.3211(4) 0.5894(3) 0.5518(8)
C8 C 0.3518(4) 0.4826(4) 0.4785(8)
H6 H 0.3968 0.5148 0.4164
C9 C 0.2585(4) 0.3814(4) 0.6018(9)
H7 H 0.2265 0.3290 0.6399
C10 C 0.2478(4) 0.4444(4) 0.6353(9)
H8 H 0.2083 0.4444 0.6997
C11 C 0.4917(5) 0.4341(6) 0.2354(13)
C12 C 0.5612(6) 0.4658(7) 0.1287(12)
C13 C 0.5868(6) 0.4224(8) 0.0583(13)
H9 H 0.5571 0.3669 0.0763
C14 C 0.6557(6) 0.4500(7) -0.0443(13)
H10 H 0.6681 0.4132 -0.0900
C15 C 0.6101(6) 0.5450(7) 0.0932(12)
H11 H 0.5982 0.5823 0.1381
C16 C 0.6811(6) 0.5760(8) -0.0124(12)
H12 H 0.7121 0.6309 -0.0358
C17 C 0.6985(6) 0.5239(8) -0.0711(13)
C18 C 0.7728(6) 0.5490(7) -0.1803(12)
H13 H 0.7816 0.5100 -0.2269
C19 C 0.8216(5) 0.6245(6) -0.2051(9)
H14 H 0.8124 0.6621 -0.1533
C20 C 0.8929(4) 0.6551(5) -0.3137(9)
N1 N 0.2744(3) 0.2391(3) 0.3067(7)
N2 N 0.1608(3) 0.1267(3) 0.2544(7)
N3 N 0.3232(3) 0.4057(3) 0.5040(6)
N4 N 0.3081(3) 0.5092(3) 0.5532(7)
O1 O 0.4506(4) 0.3623(4) 0.2597(8)
O2 O 0.4787(4) 0.4851(5) 0.2951(10)
O3 O 0.8981(3) 0.6022(3) -0.3971(6)
O4 O 0.9411(4) 0.7290(4) -0.3194(8)
C1A C 0.0175(4) 0.0808(6) 0.2635(8)
H1A H 0.0288 0.1342 0.2650
C2A C -0.0626(4) 0.0162(6) 0.2624(8)
C3A C -0.1904(4) 0.0096(6) 0.3538(9)
H2A H -0.1985 -0.0214 0.4437
C4A C -0.2057(5) 0.0788(6) 0.1714(9)
H3A H -0.2278 0.1036 0.1108
C5A C -0.1362(5) 0.0799(7) 0.1403(10)
H4A H -0.1010 0.1066 0.0573
N1A N -0.2391(3) 0.0353(4) 0.3067(7)
N2A N -0.1267(3) 0.0341(4) 0.2544(7)
C1B C -0.0808(6) -0.0633(4) 0.2635(8)
H1B H -0.1342 -0.1054 0.2650
C2B C -0.0162(6) -0.0788(4) 0.2624(8)
C3B C -0.0096(6) -0.2000(4) 0.3538(9)
H2B H 0.0214 -0.1771 0.4437
C4B C -0.0788(6) -0.2845(4) 0.1714(9)
H3B H -0.1036 -0.3314 0.1108
C5B C -0.0799(7) -0.2161(5) 0.1403(10)
H4B H -0.1066 -0.2076 0.0573
N1B N -0.0353(4) -0.2744(3) 0.3067(7)
N2B N -0.0341(4) -0.1608(3) 0.2544(7)
C6A C 0.3993(3) 0.6542(4) 0.5518(8)
H5A H 0.4433 0.6458 0.5517
C7A C 0.4106(3) 0.7317(5) 0.5518(8)
C8A C 0.5174(4) 0.8692(6) 0.4785(8)
H6A H 0.4852 0.8820 0.4164
C9A C 0.6186(4) 0.8771(6) 0.6018(9)
H7A H 0.6710 0.8975 0.6399
C10A C 0.5556(4) 0.8034(6) 0.6353(9)
H8A H 0.5556 0.7639 0.6997
N3A N 0.5943(3) 0.9175(4) 0.5040(6)
N4A N 0.4908(3) 0.7989(4) 0.5532(7)
C6B C 0.3458(4) 0.7451(3) 0.5518(8)
H5B H 0.3542 0.7975 0.5517
C7B C 0.2683(5) 0.6789(4) 0.5518(8)
C8B C 0.1308(6) 0.6482(4) 0.4785(8)
H6B H 0.1180 0.6032 0.4164
C9B C 0.1229(6) 0.7415(4) 0.6018(9)
H7B H 0.1025 0.7735 0.6399
C10B C 0.1966(6) 0.7522(4) 0.6353(9)
H8B H 0.2361 0.7917 0.6997
N3B N 0.0825(4) 0.6768(3) 0.5040(6)
N4B N 0.2011(4) 0.6919(3) 0.5532(7)
Zn1A Zn -0.33741(4) 0.02884(6) 0.42277(9)
C11A C -0.4341(6) 0.0576(8) 0.2354(13)
C12A C -0.4658(7) 0.0954(9) 0.1287(12)
C13A C -0.4224(8) 0.1644(10) 0.0583(13)
H9A H -0.3669 0.1902 0.0763
C14A C -0.4500(7) 0.2057(9) -0.0443(13)
H10A H -0.4132 0.2549 -0.0900
C15A C -0.5450(7) 0.0651(9) 0.0932(12)
H11A H -0.5823 0.0159 0.1381
C16A C -0.5760(8) 0.1051(10) -0.0124(12)
H12A H -0.6309 0.0812 -0.0358
C17A C -0.5239(8) 0.1746(10) -0.0711(13)
C18A C -0.5490(7) 0.2238(9) -0.1803(12)
H13A H -0.5100 0.2716 -0.2269
C19A C -0.6245(6) 0.1971(8) -0.2051(9)
H14A H -0.6621 0.1503 -0.1533
C20A C -0.6551(5) 0.2378(6) -0.3137(9)
O1A O -0.3623(4) 0.0883(6) 0.2597(8)
O2A O -0.4851(5) -0.0064(6) 0.2951(10)
O3A O -0.6022(3) 0.2959(4) -0.3971(6)
O4A O -0.7290(4) 0.2121(6) -0.3194(8)
Zn1A_2 Zn 0.66259(4) 0.02884(6) 1.42277(9)
C11A_2 C 0.5659(6) 0.0576(8) 1.2354(13)
C12A_2 C 0.5342(7) 0.0954(9) 1.1287(12)
C13A_2 C 0.5776(8) 0.1644(10) 1.0583(13)
H9A_2 H 0.6331 0.1902 1.0763
C14A_2 C 0.5500(7) 0.2057(9) 0.9557(13)
H10A_2 H 0.5868 0.2549 0.9100
C15A_2 C 0.4550(7) 0.0651(9) 1.0932(12)
H11A_2 H 0.4177 0.0159 1.1381
C16A_2 C 0.4240(8) 0.1051(10) 0.9876(12)
H12A_2 H 0.3691 0.0812 0.9642
C17A_2 C 0.4761(8) 0.1746(10) 0.9289(13)
C18A_2 C 0.4510(7) 0.2238(9) 0.8197(12)
H13A_2 H 0.4900 0.2716 0.7731
C19A_2 C 0.3755(6) 0.1971(8) 0.7949(9)
H14A_2 H 0.3379 0.1503 0.8467
C20A_2 C 0.3449(5) 0.2378(6) 0.6863(9)
O1A_2 O 0.6377(4) 0.0883(6) 1.2597(8)
O2A_2 O 0.5149(5) -0.0064(6) 1.2951(10)
O3A_2 O 0.3978(3) 0.2959(4) 0.6029(6)
O4A_2 O 0.2710(4) 0.2121(6) 0.6806(8)
Zn1_2 Zn -0.63375(4) 0.33741(4) -0.57723(9)
Zn1A_3 Zn 0.66259(4) 1.02884(6) 0.42277(9)
Zn1B Zn -0.02884(6) -0.36625(4) 0.42277(9)
Zn1B_2 Zn -0.02884(6) 0.63375(4) 0.42277(9)
Zn1B_3 Zn 0.97116(6) 0.63375(4) -0.57723(9)
N1A_2 N 0.7609(3) 0.0353(4) 1.3067(7)
N3A_2 N -0.4057(3) -0.0825(4) 0.5040(6)
N3A_3 N 0.5943(3) -0.0825(4) 1.5040(6)
O3B O -0.2959(4) 0.1019(3) 0.6029(6)
O3B_2 O 0.7041(4) 0.1019(3) 1.6029(6)
loop_
_geom_bond_atom_site_label_1
_geom_bond_atom_site_label_2
_geom_bond_site_symmetry_1
_geom_bond_site_symmetry_2
Zn1 N1 1_555 1_555
C1 H1 1_555 1_555
C2 C1 1_555 1_555
C3 H2 1_555 1_555
C4 H3 1_555 1_555
C5 C4 1_555 1_555
H4 C5 1_555 1_555
C6 H5 1_555 1_555
C7 C6 1_555 1_555
C8 H6 1_555 1_555
C9 H7 1_555 1_555
C10 C9 1_555 1_555
H8 C10 1_555 1_555
C11 C12 1_555 1_555
C12 C13 1_555 1_555
C13 H9 1_555 1_555
C14 C13 1_555 1_555
H10 C14 1_555 1_555
C15 C12 1_555 1_555
H11 C15 1_555 1_555
C16 C15 1_555 1_555
H12 C16 1_555 1_555
C17 C14 1_555 1_555
C18 C17 1_555 1_555
H13 C18 1_555 1_555
C19 C18 1_555 1_555
H14 C19 1_555 1_555
C20 C19 1_555 1_555
N1 C3 1_555 1_555
N2 C2 1_555 1_555
N3 Zn1 1_555 1_555
N4 C7 1_555 1_555
O1 Zn1 1_555 1_555
O2 C11 1_555 1_555
O3 C20 1_555 1_555
O4 C20 1_555 1_555
C1A C2 1_555 1_555
H1A C1A 1_555 1_555
C2A C1A 1_555 1_555
C3A H2A 1_555 1_555
C4A H3A 1_555 1_555
C5A C4A 1_555 1_555
H4A C5A 1_555 1_555
N1A C3A 1_555 1_555
N2A C2A 1_555 1_555
C1B C2A 1_555 1_555
H1B C1B 1_555 1_555
C2B C1 1_555 1_555
C3B H2B 1_555 1_555
C4B H3B 1_555 1_555
C5B C4B 1_555 1_555
H4B C5B 1_555 1_555
N1B C3B 1_555 1_555
N2B C2B 1_555 1_555
C6A C7 1_555 1_555
H5A C6A 1_555 1_555
C7A C6A 1_555 1_555
C8A H6A 1_555 1_555
C9A H7A 1_555 1_555
C10A C9A 1_555 1_555
H8A C10A 1_555 1_555
N3A C8A 1_555 1_555
N4A C7A 1_555 1_555
C6B C7A 1_555 1_555
H5B C6B 1_555 1_555
C7B C6 1_555 1_555
C8B H6B 1_555 1_555
C9B H7B 1_555 1_555
C10B C9B 1_555 1_555
H8B C10B 1_555 1_555
N3B C8B 1_555 1_555
N4B C7B 1_555 1_555
Zn1A N1A 1_555 1_555
C11A C12A 1_555 1_555
C12A C13A 1_555 1_555
C13A H9A 1_555 1_555
C14A C13A 1_555 1_555
H10A C14A 1_555 1_555
C15A C12A 1_555 1_555
H11A C15A 1_555 1_555
C16A C15A 1_555 1_555
H12A C16A 1_555 1_555
C17A C14A 1_555 1_555
C18A C17A 1_555 1_555
H13A C18A 1_555 1_555
C19A C18A 1_555 1_555
H14A C19A 1_555 1_555
C20A C19A 1_555 1_555
O1A Zn1A 1_555 1_555
O2A C11A 1_555 1_555
O3A C20A 1_555 1_555
O4A C20A 1_555 1_555
Zn1A_2 O1A_2 1_555 1_555
C11A_2 C12A_2 1_555 1_555
C12A_2 C13A_2 1_555 1_555
C13A_2 H9A_2 1_555 1_555
C14A_2 C13A_2 1_555 1_555
H10A_2 C14A_2 1_555 1_555
C15A_2 C12A_2 1_555 1_555
H11A_2 C15A_2 1_555 1_555
C16A_2 C15A_2 1_555 1_555
H12A_2 C16A_2 1_555 1_555
C17A_2 C14A_2 1_555 1_555
C18A_2 C17A_2 1_555 1_555
H13A_2 C18A_2 1_555 1_555
C19A_2 C18A_2 1_555 1_555
H14A_2 C19A_2 1_555 1_555
C20A_2 C19A_2 1_555 1_555
O1A_2 C11A_2 1_555 1_555
O2A_2 C11A_2 1_555 1_555
O3A_2 Zn1 1_555 1_555
O4A_2 C20A_2 1_555 1_555
Zn1_2 O3A 1_555 1_555
Zn1A_3 N3A 1_555 1_555
Zn1B N1B 1_555 1_555
Zn1B_2 N3B 1_555 1_555
Zn1B_3 O3 1_555 1_555
N1A_2 Zn1A_2 1_555 1_555
N3A_2 Zn1A 1_555 1_555
N3A_3 Zn1A_2 1_555 1_555
O3B Zn1A 1_555 1_555
O3B_2 Zn1A_2 1_555 1_555
C3 N2 1_555 1_555
C4 N1 1_555 1_555
C5 N2 1_555 1_555
C8 N3 1_555 1_555
C8 N4 1_555 1_555
C9 N3 1_555 1_555
C10 N4 1_555 1_555
C11 O1 1_555 1_555
C16 C17 1_555 1_555
C3A N2A 1_555 1_555
C4A N1A 1_555 1_555
C5A N2A 1_555 1_555
C1B C2B 1_555 1_555
C3B N2B 1_555 1_555
C4B N1B 1_555 1_555
C5B N2B 1_555 1_555
C8A N4A 1_555 1_555
C9A N3A 1_555 1_555
C10A N4A 1_555 1_555
C6B C7B 1_555 1_555
C8B N4B 1_555 1_555
C9B N3B 1_555 1_555
C10B N4B 1_555 1_555
C11A O1A 1_555 1_555
C16A C17A 1_555 1_555
C16A_2 C17A_2 1_555 1_555
C20A_2 O3A_2 1_555 1_555

#END
