
#######################################################################
#
#                 Cambridge Crystallographic Data Centre
#                                CCDC 
#
#######################################################################
#
# If this CIF has been generated from an entry in the Cambridge 
# Structural Database, then it will include bibliographic, chemical, 
# crystal, experimental, refinement or atomic coordinate data resulting 
# from the CCDC's data processing and validation procedures.
#
#######################################################################

data_FIBNAH
_symmetry_cell_setting           triclinic
_symmetry_space_group_name_H-M   'P -1'
_symmetry_Int_Tables_number      2
_space_group_name_Hall           '-P 1'
loop_
_symmetry_equiv_pos_site_id
_symmetry_equiv_pos_as_xyz
1 x,y,z
2 -x,-y,-z
_cell_length_a                   8.551(6)
_cell_length_b                   9.175(6)
_cell_length_c                   15.817(10)
_cell_angle_alpha                94.818(12)
_cell_angle_beta                 93.103(12)
_cell_angle_gamma                94.539(11)
_cell_volume                     1230.36
loop_
_atom_site_label
_atom_site_type_symbol
_atom_site_fract_x
_atom_site_fract_y
_atom_site_fract_z
C1 C 0.5300(11) 0.2383(11) 0.3579(8)
H1 H 0.5495 0.3370 0.3856
H2 H 0.5888 0.2336 0.3071
C2 C 0.5921(11) 0.1305(11) 0.4176(7)
H3 H 0.5278 0.1285 0.4662
H4 H 0.5822 0.0328 0.3881
C3 C 0.7609(12) 0.1690(11) 0.4485(7)
H5 H 0.7709 0.2664 0.4784
H6 H 0.7910 0.1003 0.4887
C4 C 0.8953(13) 0.0486(12) 0.3250(8)
H7 H 0.8430 -0.0447 0.3217
C5 C 1.0110(12) 0.0946(11) 0.2776(8)
H8 H 1.0546 0.0360 0.2357
C6 C 0.9658(11) 0.2786(10) 0.3596(7)
H9 H 0.9676 0.3730 0.3863
C7 C 0.9686(13) 0.5014(13) 0.1901(7)
H10 H 0.9710 0.5708 0.2400
H11 H 0.8988 0.4165 0.1994
C8 C 0.9062(12) 0.5718(12) 0.1129(8)
H12 H 0.9804 0.6524 0.1017
H13 H 0.8992 0.5001 0.0639
C9 C 0.7499(11) 0.6279(12) 0.1230(9)
H14 H 0.7569 0.7017 0.1710
H15 H 0.7193 0.6745 0.0726
C10 C 0.5795(13) 0.3920(12) 0.0805(7)
H16 H 0.6209 0.3666 0.0286
C11 C 0.4585(12) 0.3181(11) 0.1151(7)
H17 H 0.4008 0.2338 0.0902
C12 C 0.5386(12) 0.5040(11) 0.2011(7)
H18 H 0.5467 0.5734 0.2479
N1 N 0.3696(8) 0.2127(9) 0.3337(5)
H19 H 0.3193 0.2051 0.3819
H20 H 0.3565 0.1236 0.3046
N2 N 0.8699(8) 0.1658(8) 0.3787(5)
N3 N 1.0566(9) 0.2413(8) 0.2995(5)
N4 N 1.1303(9) 0.4553(9) 0.1778(6)
H21 H 1.1909 0.5370 0.1695
H22 H 1.1245 0.3977 0.1286
N5 N 0.6295(9) 0.5116(9) 0.1365(6)
N6 N 0.4351(8) 0.3883(9) 0.1928(5)
O1 O 0.2814(11) 0.5488(10) 0.3591(6)
H23 H 0.3324 0.5444 0.4064
H24 H 0.2432 0.6282 0.3478
Cu1 Cu 0.24978(12) 0.35040(12) 0.26380(8)
N3_2 N 0.0566(9) 0.2413(8) 0.2995(5)
N4_2 N 0.1303(9) 0.4553(9) 0.1778(6)
Cu1_2 Cu 1.24978(12) 0.35040(12) 0.26380(8)
C13 C 0.757(2) 0.0338(17) 0.0633(11)
H25 H 0.7806 -0.0623 0.0772
H26 H 0.6975 0.0261 0.0097
H27 H 0.6971 0.0778 0.1067
C14 C 0.907(2) 0.1271(15) 0.0575(10)
N7 N 1.0015(19) 0.2044(14) 0.0491(9)
O2 O 0.2023(11) 0.1919(8) 0.5097(6)
O3 O 0.0936(19) 0.383(2) 0.5665(16)
O4 O 0.291(3) 0.2906(16) 0.6418(9)
O5 O 0.343(4) 0.4162(19) 0.5413(15)
Cl1 Cl 0.2256(3) 0.3186(3) 0.56570(18)
O6 O 0.262(3) 0.7956(17) 0.2291(14)
O7 O 0.4997(17) 0.886(2) 0.2110(15)
O8 O 0.2964(18) 0.9890(12) 0.1537(9)
O9 O 0.362(3) 0.7558(19) 0.1073(10)
Cl2 Cl 0.3591(4) 0.8592(3) 0.1722(2)
loop_
_geom_bond_atom_site_label_1
_geom_bond_atom_site_label_2
_geom_bond_site_symmetry_1
_geom_bond_site_symmetry_2
C1 H1 1_555 1_555
H2 C1 1_555 1_555
C2 C1 1_555 1_555
H3 C2 1_555 1_555
H4 C2 1_555 1_555
C3 C2 1_555 1_555
H5 C3 1_555 1_555
H6 C3 1_555 1_555
C4 H7 1_555 1_555
C5 C4 1_555 1_555
H8 C5 1_555 1_555
C6 H9 1_555 1_555
C7 H10 1_555 1_555
H11 C7 1_555 1_555
C8 C7 1_555 1_555
H12 C8 1_555 1_555
H13 C8 1_555 1_555
C9 C8 1_555 1_555
H14 C9 1_555 1_555
H15 C9 1_555 1_555
C10 H16 1_555 1_555
C11 C10 1_555 1_555
H17 C11 1_555 1_555
C12 H18 1_555 1_555
N1 C1 1_555 1_555
H19 N1 1_555 1_555
H20 N1 1_555 1_555
N2 C3 1_555 1_555
N3 C5 1_555 1_555
N4 C7 1_555 1_555
H21 N4 1_555 1_555
H22 N4 1_555 1_555
N5 C9 1_555 1_555
N6 C11 1_555 1_555
O1 H23 1_555 1_555
H24 O1 1_555 1_555
Cu1 N1 1_555 1_555
C13 H25 1_555 1_555
H26 C13 1_555 1_555
H27 C13 1_555 1_555
C14 C13 1_555 1_555
N7 C14 1_555 1_555
O2 Cl1 1_555 1_555
O3 Cl1 1_555 1_555
O4 Cl1 1_555 1_555
O5 Cl1 1_555 1_555
O6 Cl2 1_555 1_555
O7 Cl2 1_555 1_555
O8 Cl2 1_555 1_555
O9 Cl2 1_555 1_555
N3_2 Cu1 1_555 1_555
N4_2 Cu1 1_555 1_555
Cu1_2 N3 1_555 1_555
C4 N2 1_555 1_555
C6 N2 1_555 1_555
C6 N3 1_555 1_555
C10 N5 1_555 1_555
C12 N5 1_555 1_555
C12 N6 1_555 1_555
N4 Cu1_2 1_555 1_555
N6 Cu1 1_555 1_555
O1 Cu1 1_555 1_555

#END
