
#######################################################################
#
#                 Cambridge Crystallographic Data Centre
#                                CCDC 
#
#######################################################################
#
# If this CIF has been generated from an entry in the Cambridge 
# Structural Database, then it will include bibliographic, chemical, 
# crystal, experimental, refinement or atomic coordinate data resulting 
# from the CCDC's data processing and validation procedures.
#
#######################################################################

data_FIBSOZ
_symmetry_cell_setting           triclinic
_symmetry_space_group_name_H-M   'P -1'
_symmetry_Int_Tables_number      2
_space_group_name_Hall           '-P 1'
loop_
_symmetry_equiv_pos_site_id
_symmetry_equiv_pos_as_xyz
1 x,y,z
2 -x,-y,-z
_cell_length_a                   6.977(2)
_cell_length_b                   9.459(3)
_cell_length_c                   9.483(3)
_cell_angle_alpha                106.57(2)
_cell_angle_beta                 109.72(3)
_cell_angle_gamma                91.08(2)
_cell_volume                     560.054
loop_
_atom_site_label
_atom_site_type_symbol
_atom_site_fract_x
_atom_site_fract_y
_atom_site_fract_z
Co1 Co 0.0000 0.0000 0.0000
O1 O 0.2562(3) -0.1167(2) 0.0282(3)
H1 H 0.279(7) -0.169(6) 0.090(5)
O2 O 0.0747(3) 0.0829(2) -0.1582(2)
O3 O -0.1676(4) 0.2236(3) -0.2401(3)
C1 C 0.3495(6) -0.1790(4) -0.0850(4)
H2 H 0.2828 -0.2805 -0.1469
H3 H 0.4958 -0.1811 -0.0303
H4 H 0.3338 -0.1181 -0.1553
N1 N 0.1870(4) 0.1883(3) 0.1875(3)
C2 C 0.3295(5) 0.1721(3) 0.3154(4)
H5 H 0.3446 0.0743 0.3219
C3 C 0.4565(5) 0.2897(3) 0.4392(4)
H6 H 0.5567 0.2719 0.5271
C4 C 0.4356(5) 0.4353(3) 0.4334(3)
C5 C 0.2883(5) 0.4509(3) 0.2994(4)
H7 H 0.2690 0.5470 0.2888
C6 C 0.1708(5) 0.3277(3) 0.1823(4)
H8 H 0.0717 0.3420 0.0918
C7 C -0.0045(5) 0.1719(3) -0.2289(3)
C8 C 0.1319(5) 0.2291(4) -0.3084(4)
Cl1 Cl 0.28742(16) 0.09375(12) -0.36282(13)
Cl2 Cl 0.29623(17) 0.38860(12) -0.16184(13)
Cl3 Cl -0.00995(14) 0.28133(11) -0.47268(11)
Co1_2 Co 1.0000 1.0000 1.0000
O1A O -0.2562(3) 0.1167(2) -0.0282(3)
H1A H -0.279(7) 0.169(6) -0.090(5)
O2A O -0.0747(3) -0.0829(2) 0.1582(2)
O3A O 0.1676(4) -0.2236(3) 0.2401(3)
C1A C -0.3495(6) 0.1790(4) 0.0850(4)
H2A H -0.2828 0.2805 0.1469
H3A H -0.4958 0.1811 0.0303
H4A H -0.3338 0.1181 0.1553
N1A N 0.8130(4) 0.8117(3) 0.8125(3)
N1A_2 N -0.1870(4) -0.1883(3) -0.1875(3)
C2A C 0.6705(5) 0.8279(3) 0.6846(4)
H5A H 0.6554 0.9257 0.6781
C3A C 0.5435(5) 0.7103(3) 0.5608(4)
H6A H 0.4433 0.7281 0.4729
C4A C 0.5644(5) 0.5647(3) 0.5666(3)
C5A C 0.7117(5) 0.5491(3) 0.7006(4)
H7A H 0.7310 0.4530 0.7112
C6A C 0.8292(5) 0.6723(3) 0.8177(4)
H8A H 0.9283 0.6580 0.9082
C7A C 0.0045(5) -0.1719(3) 0.2289(3)
C8A C -0.1319(5) -0.2291(4) 0.3084(4)
Cl1A Cl -0.28742(16) -0.09375(12) 0.36282(13)
Cl2A Cl -0.29623(17) -0.38860(12) 0.16184(13)
Cl3A Cl 0.00995(14) -0.28133(11) 0.47268(11)
loop_
_geom_bond_atom_site_label_1
_geom_bond_atom_site_label_2
_geom_bond_site_symmetry_1
_geom_bond_site_symmetry_2
Co1 O1 1_555 1_555
O1 H1 1_555 1_555
O2 Co1 1_555 1_555
O3 C7 1_555 1_555
C1 O1 1_555 1_555
H2 C1 1_555 1_555
H3 C1 1_555 1_555
H4 C1 1_555 1_555
N1 Co1 1_555 1_555
C2 N1 1_555 1_555
H5 C2 1_555 1_555
C3 C2 1_555 1_555
H6 C3 1_555 1_555
C4 C3 1_555 1_555
C5 C4 1_555 1_555
H7 C5 1_555 1_555
C6 N1 1_555 1_555
H8 C6 1_555 1_555
C7 O2 1_555 1_555
C8 C7 1_555 1_555
Cl1 C8 1_555 1_555
Cl2 C8 1_555 1_555
Cl3 C8 1_555 1_555
Co1_2 N1A 1_555 1_555
O1A Co1 1_555 1_555
H1A O1A 1_555 1_555
O2A Co1 1_555 1_555
O3A C7A 1_555 1_555
C1A O1A 1_555 1_555
H2A C1A 1_555 1_555
H3A C1A 1_555 1_555
H4A C1A 1_555 1_555
N1A C2A 1_555 1_555
N1A_2 Co1 1_555 1_555
C2A H5A 1_555 1_555
C3A C2A 1_555 1_555
H6A C3A 1_555 1_555
C4A C4 1_555 1_555
C5A C4A 1_555 1_555
H7A C5A 1_555 1_555
C6A N1A 1_555 1_555
H8A C6A 1_555 1_555
C7A O2A 1_555 1_555
C8A C7A 1_555 1_555
Cl1A C8A 1_555 1_555
Cl2A C8A 1_555 1_555
Cl3A C8A 1_555 1_555
C5 C6 1_555 1_555
C3A C4A 1_555 1_555
C5A C6A 1_555 1_555

#END
