
#######################################################################
#
#                 Cambridge Crystallographic Data Centre
#                                CCDC 
#
#######################################################################
#
# If this CIF has been generated from an entry in the Cambridge 
# Structural Database, then it will include bibliographic, chemical, 
# crystal, experimental, refinement or atomic coordinate data resulting 
# from the CCDC's data processing and validation procedures.
#
#######################################################################

data_FIBVER
_symmetry_cell_setting           monoclinic
_symmetry_space_group_name_H-M   'P 21/m'
_symmetry_Int_Tables_number      11
_space_group_name_Hall           '-P 2yb'
loop_
_symmetry_equiv_pos_site_id
_symmetry_equiv_pos_as_xyz
1 x,y,z
2 -x,1/2+y,-z
3 -x,-y,-z
4 x,1/2-y,z
_cell_length_a                   5.071(2)
_cell_length_b                   17.606(5)
_cell_length_c                   6.913(3)
_cell_angle_alpha                90
_cell_angle_beta                 107.51(3)
_cell_angle_gamma                90
_cell_volume                     588.595
loop_
_atom_site_label
_atom_site_type_symbol
_atom_site_fract_x
_atom_site_fract_y
_atom_site_fract_z
Sr1 Sr 0.0793(2) 0.2500 0.2332(2)
O1 O 0.4704(18) 0.2500 0.5716(13)
O2 O 0.4549(20) 0.2500 0.0409(14)
O3 O -0.1236(13) 0.3424(4) 0.4518(9)
O4 O 0.3162(12) 0.1104(3) 0.2303(8)
O5 O -0.1486(12) 0.3524(3) -0.0300(9)
O6 O 0.6418(13) -0.1048(4) 0.2409(11)
O7 O 0.6965(16) 0.0054(4) 0.3727(14)
N1 N 0.5475(14) -0.0409(4) 0.2571(10)
C1 C 0.1908(16) 0.0563(5) 0.1311(12)
C2 C -0.0983(16) 0.4213(5) -0.0202(12)
C3 C 0.2728(16) -0.0214(5) 0.1331(12)
O3C O -0.1236(13) 0.1576(4) 0.4518(9)
O4C O 0.3162(12) 0.3896(3) 0.2303(8)
O5C O -0.1486(12) 0.1476(3) -0.0300(9)
C2C C -0.0983(16) 0.0787(5) -0.0202(12)
C1C C 0.1908(16) 0.4437(5) 0.1311(12)
C3A C -0.2728(16) 0.4786(5) -0.1331(12)
C2A C 0.0983(16) -0.0787(5) 0.0202(12)
C3B C -0.2728(16) 0.0214(5) -0.1331(12)
C3C C 0.2728(16) 0.5214(5) 0.1331(12)
N1A N -0.5475(14) 0.4591(4) -0.2571(10)
C1A C -0.1908(16) 0.5563(5) -0.1311(12)
O5A O 0.1486(12) -0.1476(3) 0.0300(9)
C1B C -0.1908(16) -0.0563(5) -0.1311(12)
N1B N -0.5475(14) 0.0409(4) -0.2571(10)
N1C N 0.5475(14) 0.5409(4) 0.2571(10)
C2B C 0.0983(16) 0.5787(5) 0.0202(12)
O6A O -0.6418(13) 0.3952(4) -0.2409(11)
O7A O -0.6965(16) 0.5054(4) -0.3727(14)
O4A O -0.3162(12) 0.6104(3) -0.2303(8)
Sr1A Sr -0.0793(2) -0.2500 -0.2332(2)
O4B O -0.3162(12) -0.1104(3) -0.2303(8)
O6B O -0.6418(13) 0.1048(4) -0.2409(11)
O7B O -0.6965(16) -0.0054(4) -0.3727(14)
O6C O 0.6418(13) 0.6048(4) 0.2409(11)
O7C O 0.6965(16) 0.4946(4) 0.3727(14)
O5B O 0.1486(12) 0.6476(3) 0.0300(9)
Sr1A_2 Sr -0.0793(2) 0.7500 -0.2332(2)
O1A O -0.4704(18) -0.2500 -0.5716(13)
O2A O -0.4549(20) -0.2500 -0.0409(14)
O3B O 0.1236(13) -0.3424(4) -0.4518(9)
O3A O 0.1236(13) -0.1576(4) -0.4518(9)
O4A_2 O -0.3162(12) -0.3896(3) -0.2303(8)
O5B_2 O 0.1486(12) -0.3524(3) 0.0300(9)
loop_
_geom_bond_atom_site_label_1
_geom_bond_atom_site_label_2
_geom_bond_site_symmetry_1
_geom_bond_site_symmetry_2
Sr1 O1 1_555 1_555
O2 Sr1 1_555 1_555
O3 Sr1 1_555 1_555
O4 Sr1 1_555 1_555
O5 Sr1 1_555 1_555
O6 N1 1_555 1_555
O7 N1 1_555 1_555
N1 C3 1_555 1_555
C1 O4 1_555 1_555
C2 O5 1_555 1_555
C3 C1 1_555 1_555
O3C Sr1 1_555 1_555
O4C Sr1 1_555 1_555
O5C Sr1 1_555 1_555
C2C C1 1_555 1_555
C1C C2 1_555 1_555
C3A C2 1_555 1_555
C2A C3 1_555 1_555
C3B C2C 1_555 1_555
C3C C1C 1_555 1_555
N1A C3A 1_555 1_555
C1A C3A 1_555 1_555
O5A C2A 1_555 1_555
C1B C2A 1_555 1_555
N1B C3B 1_555 1_555
N1C C3C 1_555 1_555
C2B C3C 1_555 1_555
O6A N1A 1_555 1_555
O7A N1A 1_555 1_555
O4A C1A 1_555 1_555
Sr1A O5A 1_555 1_555
O4B C1B 1_555 1_555
O6B N1B 1_555 1_555
O7B N1B 1_555 1_555
O6C N1C 1_555 1_555
O7C N1C 1_555 1_555
O5B C2B 1_555 1_555
Sr1A_2 O4A 1_555 1_555
O1A Sr1A 1_555 1_555
O2A Sr1A 1_555 1_555
O3B Sr1A 1_555 1_555
O3A Sr1A 1_555 1_555
O4A_2 Sr1A 1_555 1_555
O5B_2 Sr1A 1_555 1_555
O4C C1C 1_555 1_555
O5C C2C 1_555 1_555
C3B C1B 1_555 1_555
C1A C2B 1_555 1_555
Sr1A O4B 1_555 1_555
O5B Sr1A_2 1_555 1_555

#END
