
#######################################################################
#
#                 Cambridge Crystallographic Data Centre
#                                CCDC 
#
#######################################################################
#
# If this CIF has been generated from an entry in the Cambridge 
# Structural Database, then it will include bibliographic, chemical, 
# crystal, experimental, refinement or atomic coordinate data resulting 
# from the CCDC's data processing and validation procedures.
#
#######################################################################

data_FIBVET
_symmetry_cell_setting           triclinic
_symmetry_space_group_name_H-M   'P -1'
_symmetry_Int_Tables_number      2
_space_group_name_Hall           '-P 1'
loop_
_symmetry_equiv_pos_site_id
_symmetry_equiv_pos_as_xyz
1 x,y,z
2 -x,-y,-z
_cell_length_a                   8.2928(8)
_cell_length_b                   10.6284(10)
_cell_length_c                   11.9918(11)
_cell_angle_alpha                69.3930(10)
_cell_angle_beta                 75.9580(10)
_cell_angle_gamma                79.757(2)
_cell_volume                     954.773
loop_
_atom_site_label
_atom_site_type_symbol
_atom_site_fract_x
_atom_site_fract_y
_atom_site_fract_z
Zn1 Zn 0.10990(4) 1.04067(3) 1.05878(3)
S1 S 0.79529(11) 0.45194(9) 0.77961(7)
S2 S 0.71109(11) 0.38673(8) 0.66704(7)
N1 N 0.2179(3) 1.0387(3) 1.1939(2)
O1 O 0.2715(2) 0.9010(2) 0.99781(19)
O2 O 0.1029(2) 0.8367(2) 0.91148(19)
O3 O 0.9606(3) 0.8829(2) 0.1676(2)
O4 O 0.7961(3) 0.8051(2) 0.09106(19)
C1 C 0.2403(4) 0.8323(3) 0.9406(2)
C2 C 0.3804(4) 0.7380(3) 0.9005(3)
C3 C 0.5262(4) 0.7020(3) 0.9474(3)
H1 H 0.5395 0.7379 1.0047
C4 C 0.6495(3) 0.6142(3) 0.9093(3)
H2 H 0.7465 0.5881 0.9411
C5 C 0.6275(4) 0.5655(3) 0.8237(3)
N2 N 0.4917(3) 0.5984(3) 0.7740(3)
C6 C 0.3696(4) 0.6832(3) 0.8142(3)
H3 H 0.2730 0.7061 0.7821
C7 C 0.8613(4) 0.8025(3) 0.1760(3)
C8 C 0.8182(3) 0.6974(3) 0.2977(3)
C9 C 0.7385(4) 0.5861(3) 0.3151(3)
H4 H 0.7055 0.5753 0.2505
C10 C 0.7090(4) 0.4921(3) 0.4285(3)
H5 H 0.6588 0.4152 0.4415
C11 C 0.7545(4) 0.5135(3) 0.5222(3)
N3 N 0.8265(4) 0.6208(3) 0.5105(2)
C12 C 0.8595(4) 0.7099(3) 0.3977(3)
H6 H 0.9135 0.7842 0.3865
C13 C 0.3648(4) 0.9690(3) 1.2113(3)
H7 H 0.4199 0.9219 1.1583
C14 C 0.4388(4) 0.9634(4) 1.3040(3)
H8 H 0.5407 0.9119 1.3135
C15 C 0.3625(4) 1.0339(4) 1.3826(3)
C16 C 0.2141(5) 1.1124(5) 1.3599(4)
H9 H 0.1611 1.1667 1.4070
C17 C 0.1456(5) 1.1097(5) 1.2673(4)
H10 H 0.0437 1.1601 1.2557
C18 C 0.4343(5) 1.0347(5) 1.4825(4)
H11 H 0.3775 1.0925 1.5253
N1A N 0.7821(3) 0.9613(3) 1.8061(2)
C13A C 0.6352(4) 1.0310(3) 1.7887(3)
H7A H 0.5801 1.0781 1.8417
C14A C 0.5612(4) 1.0366(4) 1.6960(3)
H8A H 0.4593 1.0881 1.6865
C15A C 0.6375(4) 0.9661(4) 1.6174(3)
C16A C 0.7859(5) 0.8876(5) 1.6401(4)
H9A H 0.8389 0.8333 1.5930
C17A C 0.8544(5) 0.8903(5) 1.7327(4)
H10A H 0.9563 0.8399 1.7443
C18A C 0.5657(5) 0.9653(5) 1.5175(4)
H11A H 0.6225 0.9075 1.4747
Zn1A Zn -0.10990(4) 0.95933(3) 0.94122(3)
S1A S -0.79529(11) 1.54806(9) 1.22039(7)
S2A S -0.71109(11) 1.61327(8) 1.33296(7)
O1A O -0.2715(2) 1.0990(2) 1.00219(19)
O2A O -0.1029(2) 1.1633(2) 1.08852(19)
O3A O -0.9606(3) 1.1171(2) 1.8324(2)
O4A O -0.7961(3) 1.1949(2) 1.90894(19)
C1A C -0.2403(4) 1.1677(3) 1.0594(2)
C2A C -0.3804(4) 1.2620(3) 1.0995(3)
C3A C -0.5262(4) 1.2980(3) 1.0526(3)
H1A H -0.5395 1.2621 0.9953
C4A C -0.6495(3) 1.3858(3) 1.0907(3)
H2A H -0.7465 1.4119 1.0589
C5A C -0.6275(4) 1.4345(3) 1.1763(3)
N2A N -0.4917(3) 1.4016(3) 1.2260(3)
C6A C -0.3696(4) 1.3168(3) 1.1858(3)
H3A H -0.2730 1.2939 1.2179
C7A C -0.8613(4) 1.1975(3) 1.8240(3)
C8A C -0.8182(3) 1.3026(3) 1.7023(3)
C9A C -0.7385(4) 1.4139(3) 1.6849(3)
H4A H -0.7055 1.4247 1.7495
C10A C -0.7090(4) 1.5079(3) 1.5715(3)
H5A H -0.6588 1.5848 1.5585
C11A C -0.7545(4) 1.4865(3) 1.4778(3)
N3A N -0.8265(4) 1.3792(3) 1.4895(2)
C12A C -0.8595(4) 1.2901(3) 1.6023(3)
H6A H -0.9135 1.2158 1.6135
Zn1_2 Zn -0.89010(4) 1.04067(3) 2.05878(3)
Zn1_3 Zn 1.10990(4) 1.04067(3) 0.05878(3)
Zn1A_2 Zn -1.10990(4) 0.95933(3) 1.94122(3)
Zn1A_3 Zn 0.89010(4) 0.95933(3) -0.05878(3)
Zn1A_4 Zn 0.89010(4) 0.95933(3) 1.94122(3)
N1A_2 N -0.2179(3) 0.9613(3) 0.8061(2)
O3_2 O -0.0394(3) 0.8829(2) 1.1676(2)
O3A_2 O 0.0394(3) 1.1171(2) 0.8324(2)
O4_2 O -0.2039(3) 0.8051(2) 1.09106(19)
O4A_2 O 0.2039(3) 1.1949(2) 0.90894(19)
O5 O 0.975(5) 0.550(3) 0.998(5)
loop_
_geom_bond_atom_site_label_1
_geom_bond_atom_site_label_2
_geom_bond_site_symmetry_1
_geom_bond_site_symmetry_2
Zn1 N1 1_555 1_555
S1 S2 1_555 1_555
S2 C11 1_555 1_555
N1 C13 1_555 1_555
O1 Zn1 1_555 1_555
O2 C1 1_555 1_555
O3 C7 1_555 1_555
O4 C7 1_555 1_555
C1 O1 1_555 1_555
C2 C1 1_555 1_555
C3 C2 1_555 1_555
H1 C3 1_555 1_555
C4 C3 1_555 1_555
H2 C4 1_555 1_555
C5 S1 1_555 1_555
N2 C5 1_555 1_555
C6 C2 1_555 1_555
H3 C6 1_555 1_555
C7 C8 1_555 1_555
C8 C9 1_555 1_555
C9 H4 1_555 1_555
C10 C9 1_555 1_555
H5 C10 1_555 1_555
C11 C10 1_555 1_555
N3 C11 1_555 1_555
C12 C8 1_555 1_555
H6 C12 1_555 1_555
C13 H7 1_555 1_555
C14 C13 1_555 1_555
H8 C14 1_555 1_555
C15 C14 1_555 1_555
C16 C15 1_555 1_555
H9 C16 1_555 1_555
C17 N1 1_555 1_555
H10 C17 1_555 1_555
C18 C15 1_555 1_555
H11 C18 1_555 1_555
N1A C13A 1_555 1_555
C13A H7A 1_555 1_555
C14A C13A 1_555 1_555
H8A C14A 1_555 1_555
C15A C14A 1_555 1_555
C16A C15A 1_555 1_555
H9A C16A 1_555 1_555
C17A N1A 1_555 1_555
H10A C17A 1_555 1_555
C18A C18 1_555 1_555
H11A C18A 1_555 1_555
Zn1A O2 1_555 1_555
S1A S2A 1_555 1_555
S2A C11A 1_555 1_555
O1A Zn1A 1_555 1_555
O2A Zn1 1_555 1_555
O3A C7A 1_555 1_555
O4A C7A 1_555 1_555
C1A O1A 1_555 1_555
C2A C1A 1_555 1_555
C3A C2A 1_555 1_555
H1A C3A 1_555 1_555
C4A C3A 1_555 1_555
H2A C4A 1_555 1_555
C5A S1A 1_555 1_555
N2A C5A 1_555 1_555
C6A C2A 1_555 1_555
H3A C6A 1_555 1_555
C7A C8A 1_555 1_555
C8A C9A 1_555 1_555
C9A H4A 1_555 1_555
C10A C9A 1_555 1_555
H5A C10A 1_555 1_555
C11A C10A 1_555 1_555
N3A C11A 1_555 1_555
C12A C8A 1_555 1_555
H6A C12A 1_555 1_555
Zn1_2 O4A 1_555 1_555
Zn1_3 O3 1_555 1_555
Zn1A_2 O3A 1_555 1_555
Zn1A_3 O4 1_555 1_555
Zn1A_4 N1A 1_555 1_555
N1A_2 Zn1A 1_555 1_555
O3_2 Zn1 1_555 1_555
O3A_2 Zn1A 1_555 1_555
O4_2 Zn1A 1_555 1_555
O4A_2 Zn1 1_555 1_555
C4 C5 1_555 1_555
N2 C6 1_555 1_555
N3 C12 1_555 1_555
C16 C17 1_555 1_555
C15A C18A 1_555 1_555
C16A C17A 1_555 1_555
O2A C1A 1_555 1_555
C4A C5A 1_555 1_555
N2A C6A 1_555 1_555
N3A C12A 1_555 1_555

#END
