
#######################################################################
#
#                 Cambridge Crystallographic Data Centre
#                                CCDC 
#
#######################################################################
#
# If this CIF has been generated from an entry in the Cambridge 
# Structural Database, then it will include bibliographic, chemical, 
# crystal, experimental, refinement or atomic coordinate data resulting 
# from the CCDC's data processing and validation procedures.
#
#######################################################################

data_FIBVAN
_symmetry_cell_setting           monoclinic
_symmetry_space_group_name_H-M   'P 21/m'
_symmetry_Int_Tables_number      11
_space_group_name_Hall           '-P 2yb'
loop_
_symmetry_equiv_pos_site_id
_symmetry_equiv_pos_as_xyz
1 x,y,z
2 -x,1/2+y,-z
3 -x,-y,-z
4 x,1/2-y,z
_cell_length_a                   5.122(2)
_cell_length_b                   16.920(8)
_cell_length_c                   7.027(2)
_cell_angle_alpha                90
_cell_angle_beta                 108.79(3)
_cell_angle_gamma                90
_cell_volume                     576.534
loop_
_atom_site_label
_atom_site_type_symbol
_atom_site_fract_x
_atom_site_fract_y
_atom_site_fract_z
Ca1 Ca 0.1044(9) 0.2500 0.2292(7)
O1 O 0.4810(35) 0.2500 0.5355(27)
O2 O 0.4201(32) 0.2500 0.0319(27)
O3 O -0.1001(21) 0.3383(6) 0.4281(18)
O4 O 0.3215(21) 0.1123(6) 0.2317(17)
O5 O -0.1500(23) 0.3467(6) -0.0178(19)
O6 O 0.6482(25) -0.1076(8) 0.2371(22)
O7 O 0.6928(28) 0.0030(9) 0.3769(26)
N1 N 0.5479(27) -0.0432(8) 0.2520(24)
C1 C 0.1876(30) 0.0563(9) 0.1321(24)
C2 C -0.1024(29) 0.4186(8) -0.0117(26)
C3 C 0.2753(31) -0.0224(9) 0.1313(25)
O3C O -0.1001(21) 0.1617(6) 0.4281(18)
O4C O 0.3215(21) 0.3877(6) 0.2317(17)
O5C O -0.1500(23) 0.1533(6) -0.0178(19)
C2C C -0.1024(29) 0.0814(8) -0.0117(26)
C1C C 0.1876(30) 0.4437(9) 0.1321(24)
C3A C -0.2753(31) 0.4776(9) -0.1313(25)
C2A C 0.1024(29) -0.0814(8) 0.0117(26)
C3B C -0.2753(31) 0.0224(9) -0.1313(25)
C3C C 0.2753(31) 0.5224(9) 0.1313(25)
N1A N -0.5479(27) 0.4568(8) -0.2520(24)
C1A C -0.1876(30) 0.5563(9) -0.1321(24)
O5A O 0.1500(23) -0.1533(6) 0.0178(19)
C1B C -0.1876(30) -0.0563(9) -0.1321(24)
N1B N -0.5479(27) 0.0432(8) -0.2520(24)
N1C N 0.5479(27) 0.5432(8) 0.2520(24)
C2B C 0.1024(29) 0.5814(8) 0.0117(26)
O6A O -0.6482(25) 0.3924(8) -0.2371(22)
O7A O -0.6928(28) 0.5030(9) -0.3769(26)
O4A O -0.3215(21) 0.6123(6) -0.2317(17)
Ca1A Ca -0.1044(9) -0.2500 -0.2292(7)
O4B O -0.3215(21) -0.1123(6) -0.2317(17)
O6B O -0.6482(25) 0.1076(8) -0.2371(22)
O7B O -0.6928(28) -0.0030(9) -0.3769(26)
O6C O 0.6482(25) 0.6076(8) 0.2371(22)
O7C O 0.6928(28) 0.4970(9) 0.3769(26)
O5B O 0.1500(23) 0.6533(6) 0.0178(19)
Ca1A_2 Ca -0.1044(9) 0.7500 -0.2292(7)
O1A O -0.4810(35) -0.2500 -0.5355(27)
O2A O -0.4201(32) -0.2500 -0.0319(27)
O3B O 0.1001(21) -0.3383(6) -0.4281(18)
O3A O 0.1001(21) -0.1617(6) -0.4281(18)
O4A_2 O -0.3215(21) -0.3877(6) -0.2317(17)
O5B_2 O 0.1500(23) -0.3467(6) 0.0178(19)
loop_
_geom_bond_atom_site_label_1
_geom_bond_atom_site_label_2
_geom_bond_site_symmetry_1
_geom_bond_site_symmetry_2
Ca1 O1 1_555 1_555
O2 Ca1 1_555 1_555
O3 Ca1 1_555 1_555
O4 Ca1 1_555 1_555
O5 Ca1 1_555 1_555
O6 N1 1_555 1_555
O7 N1 1_555 1_555
N1 C3 1_555 1_555
C1 O4 1_555 1_555
C2 O5 1_555 1_555
C3 C1 1_555 1_555
O3C Ca1 1_555 1_555
O4C Ca1 1_555 1_555
O5C Ca1 1_555 1_555
C2C C1 1_555 1_555
C1C C2 1_555 1_555
C3A C2 1_555 1_555
C2A C3 1_555 1_555
C3B C2C 1_555 1_555
C3C C1C 1_555 1_555
N1A C3A 1_555 1_555
C1A C3A 1_555 1_555
O5A C2A 1_555 1_555
C1B C2A 1_555 1_555
N1B C3B 1_555 1_555
N1C C3C 1_555 1_555
C2B C3C 1_555 1_555
O6A N1A 1_555 1_555
O7A N1A 1_555 1_555
O4A C1A 1_555 1_555
Ca1A O5A 1_555 1_555
O4B C1B 1_555 1_555
O6B N1B 1_555 1_555
O7B N1B 1_555 1_555
O6C N1C 1_555 1_555
O7C N1C 1_555 1_555
O5B C2B 1_555 1_555
Ca1A_2 O4A 1_555 1_555
O1A Ca1A 1_555 1_555
O2A Ca1A 1_555 1_555
O3B Ca1A 1_555 1_555
O3A Ca1A 1_555 1_555
O4A_2 Ca1A 1_555 1_555
O5B_2 Ca1A 1_555 1_555
O4C C1C 1_555 1_555
O5C C2C 1_555 1_555
C3B C1B 1_555 1_555
C1A C2B 1_555 1_555
Ca1A O4B 1_555 1_555
O5B Ca1A_2 1_555 1_555

#END
