
#######################################################################
#
#                 Cambridge Crystallographic Data Centre
#                                CCDC 
#
#######################################################################
#
# If this CIF has been generated from an entry in the Cambridge 
# Structural Database, then it will include bibliographic, chemical, 
# crystal, experimental, refinement or atomic coordinate data resulting 
# from the CCDC's data processing and validation procedures.
#
#######################################################################

data_FIBWOD
_symmetry_cell_setting           monoclinic
_symmetry_space_group_name_H-M   'P 21/c'
_symmetry_Int_Tables_number      14
_space_group_name_Hall           '-P 2ybc'
loop_
_symmetry_equiv_pos_site_id
_symmetry_equiv_pos_as_xyz
1 x,y,z
2 -x,1/2+y,1/2-z
3 -x,-y,-z
4 x,1/2-y,1/2+z
_cell_length_a                   7.913(2)
_cell_length_b                   26.360(7)
_cell_length_c                   11.563(3)
_cell_angle_alpha                90
_cell_angle_beta                 106.864(3)
_cell_angle_gamma                90
_cell_volume                     2308.17
loop_
_atom_site_label
_atom_site_type_symbol
_atom_site_fract_x
_atom_site_fract_y
_atom_site_fract_z
Dy1 Dy 0.08504(3) 0.726122(8) 0.658258(18)
Dy2 Dy 0.40193(3) 0.804850(9) 0.985620(19)
C1 C 0.3396(6) 0.83109(19) 0.7428(4)
C2 C 0.2693(6) 0.86736(19) 0.6404(4)
C3 C 0.2732(8) 0.9173(2) 0.6757(5)
H1 H 0.3260 0.9258 0.7562
C4 C 0.2008(9) 0.9547(2) 0.5947(6)
H2 H 0.2012 0.9880 0.6212
C5 C 0.1273(9) 0.9435(2) 0.4743(6)
H3 H 0.0770 0.9690 0.4197
C6 C 0.1290(8) 0.8941(2) 0.4355(5)
H4 H 0.0822 0.8865 0.3539
C7 C 0.2005(6) 0.8552(2) 0.5179(4)
C8 C 0.2138(6) 0.80441(19) 0.4677(4)
C9 C -0.2736(6) 0.78301(19) 0.4862(4)
C10 C -0.3275(6) 0.83687(19) 0.4604(4)
C11 C -0.2678(7) 0.8729(2) 0.5502(5)
H5 H -0.1858 0.8639 0.6226
C12 C -0.3290(9) 0.9219(2) 0.5329(6)
H6 H -0.2904 0.9457 0.5943
C13 C -0.4475(8) 0.9358(2) 0.4247(6)
H7 H -0.4876 0.9691 0.4128
C14 C -0.5063(7) 0.9006(2) 0.3346(5)
H8 H -0.5863 0.9102 0.2617
C15 C -0.4483(6) 0.85129(19) 0.3510(4)
C16 C -0.5095(6) 0.81412(18) 0.2506(4)
C17 C -0.2157(6) 0.63443(19) 0.5746(4)
C18 C -0.1864(6) 0.59337(19) 0.4923(4)
C19 C -0.3091(7) 0.5545(2) 0.4680(5)
H9 H -0.4045 0.5562 0.4995
C20 C -0.2930(8) 0.5128(2) 0.3972(6)
H10 H -0.3752 0.4866 0.3830
C21 C -0.1533(8) 0.5114(2) 0.3490(6)
H11 H -0.1403 0.4840 0.3015
C22 C -0.0331(7) 0.5504(2) 0.3711(5)
H12 H 0.0594 0.5492 0.3366
C23 C -0.0445(6) 0.59117(19) 0.4423(4)
C24 C 0.0957(6) 0.63097(19) 0.4554(4)
O1 O 0.4861(5) 0.83971(15) 0.8164(3)
O2 O 0.2398(4) 0.79644(14) 0.7658(3)
O3 O 0.2579(4) 0.76655(13) 0.5399(3)
O4 O 0.1909(5) 0.79996(14) 0.3575(3)
O5 O -0.1108(4) 0.77263(14) 0.5150(3)
O6 O -0.3901(5) 0.75125(14) 0.4834(3)
O7 O -0.4200(5) 0.77855(14) 0.2356(3)
O8 O -0.6611(4) 0.82344(14) 0.1709(3)
O9 O -0.3717(4) 0.64253(14) 0.5721(3)
O10 O -0.0849(4) 0.65641(13) 0.6455(3)
O11 O 0.0653(4) 0.67789(13) 0.4685(3)
O12 O 0.2436(4) 0.61702(14) 0.4490(3)
O13 O -0.1063(5) 0.76445(16) 0.7564(3)
H13 H -0.192(5) 0.749(2) 0.754(6)
H14 H -0.059(7) 0.776(2) 0.821(3)
Dy1C Dy 0.08504(3) 0.773878(8) 0.158258(18)
Dy1C_2 Dy -0.91496(3) 0.773878(8) 0.158258(18)
Dy2C Dy 0.40193(3) 0.695150(9) 0.485620(19)
Dy2C_2 Dy -0.59807(3) 0.695150(9) 0.485620(19)
Dy2_2 Dy -0.59807(3) 0.804850(9) -0.014380(19)
O3C O 0.2579(4) 0.73345(13) 1.0399(3)
O4C O 0.1909(5) 0.70004(14) 0.8575(3)
O6C O 0.6099(5) 0.74875(14) 0.9834(3)
O7_2 O 0.5800(5) 0.77855(14) 1.2356(3)
O8C O 0.3389(4) 0.67656(14) 0.6709(3)
O8_2 O 0.3389(4) 0.82344(14) 1.1709(3)
O9C O 0.6283(4) 0.85747(14) 1.0721(3)
O11C O 0.0653(4) 0.82211(13) 0.9685(3)
O12C O 0.2436(4) 0.88298(14) 0.9490(3)
loop_
_geom_bond_atom_site_label_1
_geom_bond_atom_site_label_2
_geom_bond_site_symmetry_1
_geom_bond_site_symmetry_2
Dy1 O2 1_555 1_555
Dy2 O1 1_555 1_555
C1 C2 1_555 1_555
C2 C3 1_555 1_555
C3 H1 1_555 1_555
C4 C3 1_555 1_555
H2 C4 1_555 1_555
C5 C4 1_555 1_555
H3 C5 1_555 1_555
C6 C5 1_555 1_555
H4 C6 1_555 1_555
C7 C2 1_555 1_555
C8 C7 1_555 1_555
C9 C10 1_555 1_555
C10 C11 1_555 1_555
C11 H5 1_555 1_555
C12 C11 1_555 1_555
H6 C12 1_555 1_555
C13 C12 1_555 1_555
H7 C13 1_555 1_555
C14 C13 1_555 1_555
H8 C14 1_555 1_555
C15 C10 1_555 1_555
C16 C15 1_555 1_555
C17 C18 1_555 1_555
C18 C19 1_555 1_555
C19 H9 1_555 1_555
C20 C19 1_555 1_555
H10 C20 1_555 1_555
C21 C20 1_555 1_555
H11 C21 1_555 1_555
C22 C21 1_555 1_555
H12 C22 1_555 1_555
C23 C18 1_555 1_555
C24 C23 1_555 1_555
O1 C1 1_555 1_555
O2 Dy2 1_555 1_555
O3 Dy1 1_555 1_555
O4 C8 1_555 1_555
O5 Dy1 1_555 1_555
O6 C9 1_555 1_555
O7 C16 1_555 1_555
O8 C16 1_555 1_555
O9 C17 1_555 1_555
O10 Dy1 1_555 1_555
O11 Dy1 1_555 1_555
O12 C24 1_555 1_555
O13 Dy1 1_555 1_555
H13 O13 1_555 1_555
H14 O13 1_555 1_555
Dy1C O4 1_555 1_555
Dy1C_2 O8 1_555 1_555
Dy2C O3 1_555 1_555
Dy2C_2 O6 1_555 1_555
Dy2_2 O7 1_555 1_555
O3C Dy2 1_555 1_555
O4C Dy1 1_555 1_555
O6C Dy2 1_555 1_555
O7_2 Dy2 1_555 1_555
O8C Dy1 1_555 1_555
O8_2 Dy2 1_555 1_555
O9C Dy2 1_555 1_555
O11C Dy2 1_555 1_555
O12C Dy2 1_555 1_555
C1 O2 1_555 1_555
C6 C7 1_555 1_555
C8 O3 1_555 1_555
C9 O5 1_555 1_555
C14 C15 1_555 1_555
C17 O10 1_555 1_555
C22 C23 1_555 1_555
C24 O11 1_555 1_555
O8 Dy2_2 1_555 1_555
O9 Dy2C_2 1_555 1_555
O11 Dy2C 1_555 1_555
O12 Dy2C 1_555 1_555
Dy2C O8C 1_555 1_555

#END
