
#######################################################################
#
#                 Cambridge Crystallographic Data Centre
#                                CCDC 
#
#######################################################################
#
# If this CIF has been generated from an entry in the Cambridge 
# Structural Database, then it will include bibliographic, chemical, 
# crystal, experimental, refinement or atomic coordinate data resulting 
# from the CCDC's data processing and validation procedures.
#
#######################################################################

data_FIBXAR
_symmetry_cell_setting           monoclinic
_symmetry_space_group_name_H-M   'P 21/n'
_symmetry_Int_Tables_number      14
_space_group_name_Hall           '-P 2yn'
loop_
_symmetry_equiv_pos_site_id
_symmetry_equiv_pos_as_xyz
1 x,y,z
2 1/2-x,1/2+y,1/2-z
3 -x,-y,-z
4 1/2+x,1/2-y,1/2+z
_cell_length_a                   11.902(5)
_cell_length_b                   8.377(4)
_cell_length_c                   19.291(9)
_cell_angle_alpha                90
_cell_angle_beta                 98.545(9)
_cell_angle_gamma                90
_cell_volume                     1902.02
loop_
_atom_site_label
_atom_site_type_symbol
_atom_site_fract_x
_atom_site_fract_y
_atom_site_fract_z
Cu1 Cu 0.87148(4) 0.32348(6) 0.00780(2)
Cu2 Cu 1.0000 0.0000 0.0000
N1 N 0.5324(3) 0.3379(5) 0.05207(19)
N2 N 0.5268(3) 0.2251(5) -0.06214(19)
N3 N 0.6963(3) 0.3534(4) -0.00589(17)
N4 N 0.3790(3) 0.1927(6) 0.0006(2)
N5 N 0.6939(3) 0.4694(5) 0.10239(18)
H1 H 0.7573 0.5114 0.0956
N6 N 0.6823(3) 0.2590(6) -0.11918(19)
H2 H 0.7500 0.2971 -0.1159
C1 C 0.4820(4) 0.2513(6) -0.0026(2)
C2 C 0.6379(4) 0.3826(5) 0.0485(2)
C3 C 0.6307(4) 0.2781(6) -0.0610(2)
C4 C 0.6597(4) 0.4986(5) 0.1685(2)
C5 C 0.5748(5) 0.4160(7) 0.1955(3)
H3 H 0.5315 0.3408 0.1678
C6 C 0.5538(4) 0.4440(7) 0.2628(2)
H4 H 0.4971 0.3868 0.2801
C7 C 0.6161(4) 0.5562(6) 0.3047(2)
C8 C 0.7012(5) 0.6373(6) 0.2776(3)
H5 H 0.7444 0.7125 0.3053
C9 C 0.7229(4) 0.6089(6) 0.2108(2)
H6 H 0.7808 0.6645 0.1938
C10 C 0.5933(4) 0.5880(6) 0.3775(2)
C11 C 0.6407(4) 0.1858(6) -0.1839(2)
C12 C 0.5339(5) 0.1290(9) -0.2039(3)
H7 H 0.4811 0.1326 -0.1728
C13 C 0.5031(4) 0.0658(9) -0.2704(3)
H8 H 0.4285 0.0322 -0.2835
C14 C 0.5765(4) 0.0507(6) -0.3171(2)
C15 C 0.6864(5) 0.1062(9) -0.2954(3)
H9 H 0.7403 0.0955 -0.3254
C16 C 0.7173(5) 0.1759(10) -0.2314(3)
H10 H 0.7902 0.2170 -0.2196
C17 C 0.5412(4) -0.0209(5) -0.3877(2)
C18 C 0.3238(5) 0.2194(9) 0.0624(3)
H11 H 0.3726 0.2824 0.0959
H12 H 0.3094 0.1185 0.0830
H13 H 0.2533 0.2747 0.0490
C19 C 0.3172(5) 0.0998(9) -0.0554(3)
H14 H 0.3616 0.0898 -0.0928
H15 H 0.2467 0.1520 -0.0725
H16 H 0.3020 -0.0044 -0.0382
O1 O 0.5294(3) 0.4931(4) 0.40336(18)
O2 O 0.6482(3) 0.7031(4) 0.40903(17)
O3 O 0.4389(3) -0.0399(4) -0.41159(16)
O4 O 0.6238(2) -0.0595(4) -0.42083(15)
O5 O 1.0149(3) 0.2249(4) 0.00688(18)
H17 H 1.0774 0.2750 0.0092
Cu1B Cu 1.12852(4) -0.32348(6) -0.00780(2)
N1B N 1.4676(3) -0.3379(5) -0.05207(19)
N2B N 1.4732(3) -0.2251(5) 0.06214(19)
N3B N 1.3037(3) -0.3534(4) 0.00589(17)
N4B N 1.6210(3) -0.1927(6) -0.0006(2)
N5B N 1.3061(3) -0.4694(5) -0.10239(18)
H1B H 1.2427 -0.5114 -0.0956
N6B N 1.3177(3) -0.2590(6) 0.11918(19)
H2B H 1.2500 -0.2971 0.1159
C1B C 1.5180(4) -0.2513(6) 0.0026(2)
C2B C 1.3621(4) -0.3826(5) -0.0485(2)
C3B C 1.3693(4) -0.2781(6) 0.0610(2)
C4B C 1.3403(4) -0.4986(5) -0.1685(2)
C5B C 1.4252(5) -0.4160(7) -0.1955(3)
H3B H 1.4685 -0.3408 -0.1678
C6B C 1.4462(4) -0.4440(7) -0.2628(2)
H4B H 1.5029 -0.3868 -0.2801
C7B C 1.3839(4) -0.5562(6) -0.3047(2)
C8B C 1.2988(5) -0.6373(6) -0.2776(3)
H5B H 1.2556 -0.7125 -0.3053
C9B C 1.2771(4) -0.6089(6) -0.2108(2)
H6B H 1.2192 -0.6645 -0.1938
C10B C 1.4067(4) -0.5880(6) -0.3775(2)
C11B C 1.3593(4) -0.1858(6) 0.1839(2)
C12B C 1.4661(5) -0.1290(9) 0.2039(3)
H7B H 1.5189 -0.1326 0.1728
C13B C 1.4969(4) -0.0658(9) 0.2704(3)
H8B H 1.5715 -0.0322 0.2835
C14B C 1.4235(4) -0.0507(6) 0.3171(2)
C15B C 1.3136(5) -0.1062(9) 0.2954(3)
H9B H 1.2597 -0.0955 0.3254
C16B C 1.2827(5) -0.1759(10) 0.2314(3)
H10B H 1.2098 -0.2170 0.2196
C17B C 1.4588(4) 0.0209(5) 0.3877(2)
C18B C 1.6762(5) -0.2194(9) -0.0624(3)
H11B H 1.6274 -0.2824 -0.0959
H12B H 1.6906 -0.1185 -0.0830
H13B H 1.7467 -0.2747 -0.0490
C19B C 1.6828(5) -0.0998(9) 0.0554(3)
H14B H 1.6384 -0.0898 0.0928
H15B H 1.7533 -0.1520 0.0725
H16B H 1.6980 0.0044 0.0382
O1B O 1.4706(3) -0.4931(4) -0.40336(18)
O2B O 1.3518(3) -0.7031(4) -0.40903(17)
O3B O 1.5611(3) 0.0399(4) 0.41159(16)
O4B O 1.3762(2) 0.0595(4) 0.42083(15)
O5B O 0.9851(3) -0.2249(4) -0.00688(18)
H17B H 0.9226 -0.2750 -0.0092
Cu1A Cu 0.62852(4) -0.17652(6) -0.50780(2)
Cu1A_2 Cu 0.62852(4) 0.82348(6) 0.49220(2)
Cu1A_3 Cu 1.62852(4) -0.17652(6) 0.49220(2)
Cu1C Cu 0.37148(4) 0.17652(6) -0.49220(2)
Cu1C_2 Cu 1.37148(4) -0.82348(6) -0.49220(2)
Cu1C_3 Cu 1.37148(4) 0.17652(6) 0.50780(2)
Cu2A Cu 0.5000 0.5000 0.5000
Cu2A_2 Cu 1.5000 -0.5000 -0.5000
O1A O 0.9706(3) -0.0069(4) 0.09664(18)
O1C O 1.0294(3) 0.0069(4) -0.09664(18)
O2A O 0.8518(3) 0.2031(4) 0.09097(17)
O2C O 1.1482(3) -0.2031(4) -0.09097(17)
O3A O 1.0611(3) -0.5399(4) -0.08841(16)
O3C O 0.9389(3) 0.5399(4) 0.08841(16)
O4A O 0.8762(2) 0.4405(4) -0.07917(15)
O4C O 1.1238(2) -0.4405(4) 0.07917(15)
loop_
_geom_bond_atom_site_label_1
_geom_bond_atom_site_label_2
_geom_bond_site_symmetry_1
_geom_bond_site_symmetry_2
Cu1 N3 1_555 1_555
Cu2 O5 1_555 1_555
N1 C1 1_555 1_555
N2 C1 1_555 1_555
N3 C2 1_555 1_555
N4 C1 1_555 1_555
N5 H1 1_555 1_555
N6 H2 1_555 1_555
C2 N1 1_555 1_555
C3 N2 1_555 1_555
C4 N5 1_555 1_555
C5 C4 1_555 1_555
H3 C5 1_555 1_555
C6 C5 1_555 1_555
H4 C6 1_555 1_555
C7 C6 1_555 1_555
C8 C7 1_555 1_555
H5 C8 1_555 1_555
C9 C4 1_555 1_555
H6 C9 1_555 1_555
C10 C7 1_555 1_555
C11 N6 1_555 1_555
C12 C11 1_555 1_555
H7 C12 1_555 1_555
C13 C12 1_555 1_555
H8 C13 1_555 1_555
C14 C13 1_555 1_555
C15 C14 1_555 1_555
H9 C15 1_555 1_555
C16 C11 1_555 1_555
H10 C16 1_555 1_555
C17 C14 1_555 1_555
C18 N4 1_555 1_555
H11 C18 1_555 1_555
H12 C18 1_555 1_555
H13 C18 1_555 1_555
C19 N4 1_555 1_555
H14 C19 1_555 1_555
H15 C19 1_555 1_555
H16 C19 1_555 1_555
O1 C10 1_555 1_555
O2 C10 1_555 1_555
O3 C17 1_555 1_555
O4 C17 1_555 1_555
O5 Cu1 1_555 1_555
H17 O5 1_555 1_555
Cu1B N3B 1_555 1_555
N1B C1B 1_555 1_555
N2B C1B 1_555 1_555
N3B C2B 1_555 1_555
N4B C1B 1_555 1_555
N5B H1B 1_555 1_555
N6B H2B 1_555 1_555
C2B N1B 1_555 1_555
C3B N2B 1_555 1_555
C4B N5B 1_555 1_555
C5B C4B 1_555 1_555
H3B C5B 1_555 1_555
C6B C5B 1_555 1_555
H4B C6B 1_555 1_555
C7B C6B 1_555 1_555
C8B C7B 1_555 1_555
H5B C8B 1_555 1_555
C9B C4B 1_555 1_555
H6B C9B 1_555 1_555
C10B C7B 1_555 1_555
C11B N6B 1_555 1_555
C12B C11B 1_555 1_555
H7B C12B 1_555 1_555
C13B C12B 1_555 1_555
H8B C13B 1_555 1_555
C14B C13B 1_555 1_555
C15B C14B 1_555 1_555
H9B C15B 1_555 1_555
C16B C11B 1_555 1_555
H10B C16B 1_555 1_555
C17B C14B 1_555 1_555
C18B N4B 1_555 1_555
H11B C18B 1_555 1_555
H12B C18B 1_555 1_555
H13B C18B 1_555 1_555
C19B N4B 1_555 1_555
H14B C19B 1_555 1_555
H15B C19B 1_555 1_555
H16B C19B 1_555 1_555
O1B C10B 1_555 1_555
O2B C10B 1_555 1_555
O3B C17B 1_555 1_555
O4B C17B 1_555 1_555
O5B Cu2 1_555 1_555
H17B O5B 1_555 1_555
Cu1A O4 1_555 1_555
Cu1A_2 O2 1_555 1_555
Cu1A_3 O3B 1_555 1_555
Cu1C O3 1_555 1_555
Cu1C_2 O2B 1_555 1_555
Cu1C_3 O4B 1_555 1_555
Cu2A O1 1_555 1_555
Cu2A_2 O1B 1_555 1_555
O1A Cu2 1_555 1_555
O1C Cu2 1_555 1_555
O2A Cu1 1_555 1_555
O2C Cu1B 1_555 1_555
O3A Cu1B 1_555 1_555
O3C Cu1 1_555 1_555
O4A Cu1 1_555 1_555
O4C Cu1B 1_555 1_555
N3 C3 1_555 1_555
N5 C2 1_555 1_555
N6 C3 1_555 1_555
C8 C9 1_555 1_555
C15 C16 1_555 1_555
Cu1B O5B 1_555 1_555
N3B C3B 1_555 1_555
N5B C2B 1_555 1_555
N6B C3B 1_555 1_555
C8B C9B 1_555 1_555
C15B C16B 1_555 1_555

#END
