
#######################################################################
#
#                 Cambridge Crystallographic Data Centre
#                                CCDC 
#
#######################################################################
#
# If this CIF has been generated from an entry in the Cambridge 
# Structural Database, then it will include bibliographic, chemical, 
# crystal, experimental, refinement or atomic coordinate data resulting 
# from the CCDC's data processing and validation procedures.
#
#######################################################################

data_FICKUX
_symmetry_cell_setting           orthorhombic
_symmetry_space_group_name_H-M   'P b a 2'
_symmetry_Int_Tables_number      32
_space_group_name_Hall           'P 2 -2ab'
loop_
_symmetry_equiv_pos_site_id
_symmetry_equiv_pos_as_xyz
1 x,y,z
2 -x,-y,z
3 1/2-x,1/2+y,z
4 1/2+x,1/2-y,z
_cell_length_a                   12.882(4)
_cell_length_b                   19.068(5)
_cell_length_c                   10.214(3)
_cell_angle_alpha                90
_cell_angle_beta                 90
_cell_angle_gamma                90
_cell_volume                     2508.91
loop_
_atom_site_label
_atom_site_type_symbol
_atom_site_fract_x
_atom_site_fract_y
_atom_site_fract_z
Pb1 Pb 0.71623(13) 0.19284(7) 0.00000
Pb2 Pb 0.77376(12) 0.34570(7) 0.47030(49)
O1 O 0.7432(21) 0.3633(14) 0.1964(42)
O2 O 0.8668(39) 0.4149(27) 0.3121(54)
O3 O 0.7327(50) 0.3675(32) -0.2578(75)
O4 O 0.8566(35) 0.4203(24) -0.3808(52)
O5 O 0.6849(23) 0.1953(16) 0.2595(45)
O6 O 0.6230(46) 0.1120(28) 0.1390(55)
O7 O 0.7231(44) 0.1874(26) 0.6977(68)
O8 O 0.6345(44) 0.1174(28) 0.8446(56)
O9 O 0.9526(21) 0.2942(14) 0.4599(67)
O10 O 1.0746(23) 0.2123(15) 0.4378(53)
O11 O 0.8672(25) 0.1138(16) 0.0671(46)
O12 O 0.8356(40) 0.0364(27) 0.2522(63)
O13 O 0.4029(22) 0.2201(15) -0.0422(68)
O14 O 0.5572(21) 0.2707(14) -0.0297(73)
O15 O 0.3589(35) 0.4715(20) -0.3174(56)
O16 O 0.3812(26) 0.3703(16) -0.4463(46)
O17 O 0.6580(20) 0.4545(14) 0.4324(46)
N1 N 0.8132(20) 0.4108(12) -0.0432(51)
H1 H 0.8150(20) 0.3584(12) -0.0440(51)
H2 H 0.7388(20) 0.4258(12) -0.0424(51)
N2 N 0.6666(31) 0.1321(19) 0.4818(58)
H3 H 0.6517(31) 0.1835(19) 0.4749(58)
H4 H 0.7436(31) 0.1259(19) 0.4874(58)
N3 N 1.0216(37) 0.1737(20) 0.2011(60)
H5 H 1.0163(37) 0.1754(20) 0.1035(60)
H6 H 1.0965(37) 0.1782(20) 0.2253(60)
N4 N 0.5286(29) 0.3179(18) -0.2894(54)
H7 H 0.5424(29) 0.3095(18) -0.3844(54)
H8 H 0.5953(29) 0.3108(18) -0.2410(54)
C1 C 0.8184(32) 0.4050(21) 0.2079(48)
C2 C 0.8640(33) 0.4351(22) 0.0810(49)
H9 H 0.9402(33) 0.4256(22) 0.0746(49)
H10 H 0.8543(33) 0.4870(22) 0.0874(49)
C3 C 0.8171(52) 0.3941(38) -0.2809(63)
C4 C 0.8618(58) 0.4403(36) -0.1675(58)
H11 H 0.8511(58) 0.4921(36) -0.1740(58)
H12 H 0.9382(58) 0.4311(36) -0.1633(58)
C5 C 0.6468(47) 0.1346(24) 0.2441(51)
C6 C 0.6246(32) 0.0928(19) 0.3651(44)
H13 H 0.5482(32) 0.0851(19) 0.3746(44)
H14 H 0.6588(32) 0.0459(19) 0.3568(44)
C7 C 0.6617(54) 0.1391(32) 0.7307(57)
C8 C 0.6224(72) 0.1023(43) 0.6085(59)
H15 H 0.6350(72) 0.0506(43) 0.6136(59)
H16 H 0.5458(72) 0.1103(43) 0.6045(59)
C9 C 0.9993(33) 0.2480(23) 0.3960(52)
C10 C 0.9629(48) 0.2341(28) 0.2587(60)
H17 H 0.9727(48) 0.2770(28) 0.2037(60)
H18 H 0.8872(48) 0.2224(28) 0.2598(60)
C11 C 0.8830(38) 0.0809(26) 0.1762(60)
C12 C 0.9805(43) 0.1049(25) 0.2445(71)
H19 H 1.0356(43) 0.0683(25) 0.2360(71)
H20 H 0.9620(43) 0.1091(25) 0.3393(71)
C13 C 0.4740(30) 0.2501(24) -0.0989(42)
C14 C 0.4517(43) 0.2657(27) -0.2387(56)
H21 H 0.4562(43) 0.2222(27) -0.2931(56)
H22 H 0.3801(43) 0.2853(27) -0.2478(56)
C15 C 0.4022(28) 0.4102(17) -0.3450(51)
C16 C 0.4917(53) 0.3910(29) -0.2662(81)
H23 H 0.5495(53) 0.4233(29) -0.2917(81)
H24 H 0.4760(53) 0.3992(29) -0.1715(81)
O8_2 O 0.6345(44) 0.1174(28) -0.1554(56)
Pb1_2 Pb 0.71623(13) 0.19284(7) 1.00000
Pb2C Pb 1.27376(12) 0.15430(7) 0.47030(49)
O3_2 O 0.7327(50) 0.3675(32) 0.7422(75)
O4_2 O 0.8566(35) 0.4203(24) 0.6192(52)
C3_2 C 0.8171(52) 0.3941(38) 0.7191(63)
O10C O 0.5746(23) 0.2877(15) 0.4378(53)
Pb2_2 Pb 0.77376(12) 0.34570(7) -0.52970(49)
O18 O 0.1308(32) 0.0204(19) -0.0743(61)
loop_
_geom_bond_atom_site_label_1
_geom_bond_atom_site_label_2
_geom_bond_site_symmetry_1
_geom_bond_site_symmetry_2
Pb1 O5 1_555 1_555
Pb2 O1 1_555 1_555
O1 C1 1_555 1_555
O2 Pb2 1_555 1_555
O3 C3 1_555 1_555
O4 C3 1_555 1_555
O5 C5 1_555 1_555
O6 Pb1 1_555 1_555
O7 C7 1_555 1_555
O8 C7 1_555 1_555
O9 Pb2 1_555 1_555
O10 C9 1_555 1_555
O11 Pb1 1_555 1_555
O12 C11 1_555 1_555
O13 C13 1_555 1_555
O14 Pb1 1_555 1_555
O15 C15 1_555 1_555
O16 C15 1_555 1_555
O17 Pb2 1_555 1_555
N1 H1 1_555 1_555
H2 N1 1_555 1_555
N2 H3 1_555 1_555
H4 N2 1_555 1_555
N3 H5 1_555 1_555
H6 N3 1_555 1_555
N4 H7 1_555 1_555
H8 N4 1_555 1_555
C1 O2 1_555 1_555
C2 N1 1_555 1_555
H9 C2 1_555 1_555
H10 C2 1_555 1_555
C3 C4 1_555 1_555
C4 N1 1_555 1_555
H11 C4 1_555 1_555
H12 C4 1_555 1_555
C5 O6 1_555 1_555
C6 N2 1_555 1_555
H13 C6 1_555 1_555
H14 C6 1_555 1_555
C7 C8 1_555 1_555
C8 N2 1_555 1_555
H15 C8 1_555 1_555
H16 C8 1_555 1_555
C9 O9 1_555 1_555
C10 N3 1_555 1_555
H17 C10 1_555 1_555
H18 C10 1_555 1_555
C11 O11 1_555 1_555
C12 N3 1_555 1_555
H19 C12 1_555 1_555
H20 C12 1_555 1_555
C13 O14 1_555 1_555
C14 N4 1_555 1_555
H21 C14 1_555 1_555
H22 C14 1_555 1_555
C15 C16 1_555 1_555
C16 N4 1_555 1_555
H23 C16 1_555 1_555
H24 C16 1_555 1_555
O8_2 Pb1 1_555 1_555
Pb1_2 O8 1_555 1_555
Pb2C O10 1_555 1_555
O3_2 Pb2 1_555 1_555
O4_2 Pb2 1_555 1_555
C3_2 O3_2 1_555 1_555
O10C Pb2 1_555 1_555
Pb2_2 O3 1_555 1_555
O4 Pb2_2 1_555 1_555
C1 C2 1_555 1_555
C5 C6 1_555 1_555
C9 C10 1_555 1_555
C11 C12 1_555 1_555
C13 C14 1_555 1_555
O4_2 C3_2 1_555 1_555

#END
