
#######################################################################
#
#                 Cambridge Crystallographic Data Centre
#                                CCDC 
#
#######################################################################
#
# If this CIF has been generated from an entry in the Cambridge 
# Structural Database, then it will include bibliographic, chemical, 
# crystal, experimental, refinement or atomic coordinate data resulting 
# from the CCDC's data processing and validation procedures.
#
#######################################################################

data_FICKIN
_symmetry_cell_setting           triclinic
_symmetry_space_group_name_H-M   'P -1'
_symmetry_Int_Tables_number      2
_space_group_name_Hall           '-P 1'
loop_
_symmetry_equiv_pos_site_id
_symmetry_equiv_pos_as_xyz
1 x,y,z
2 -x,-y,-z
_cell_length_a                   11.476(2)
_cell_length_b                   12.667(2)
_cell_length_c                   13.512(3)
_cell_angle_alpha                103.635(2)
_cell_angle_beta                 99.747(2)
_cell_angle_gamma                108.5040(10)
_cell_volume                     1745.49
loop_
_atom_site_label
_atom_site_type_symbol
_atom_site_fract_x
_atom_site_fract_y
_atom_site_fract_z
Lu1 Lu 0.469874(17) 0.418951(15) 0.600911(13)
Lu2 Lu 0.854113(18) 0.458713(17) 0.853676(15)
O1 O 0.6479(3) 0.4147(3) 0.5447(2)
O2 O 0.6765(3) 0.4914(3) 0.4134(2)
O3 O 0.9867(4) 0.3821(4) 0.8135(3)
O4 O 1.1501(4) 0.4167(3) 0.7458(3)
O5 O 0.3480(4) 0.2464(3) 0.4613(2)
O6 O 0.4186(3) 0.3955(3) 0.4075(2)
O7 O 0.4899(3) -0.2703(3) 0.3558(3)
O8 O 0.2955(3) -0.3065(3) 0.2619(2)
O9 O 0.8011(3) 0.3689(3) 0.9695(3)
O10 O 0.9829(3) 0.3787(3) 1.0630(3)
O11 O 0.2763(3) 0.4561(3) 1.0965(2)
O12 O 0.4312(3) 0.4845(3) 1.2331(2)
O13 O 0.3168(4) 0.3336(3) 0.6764(3)
H1 H 0.2632 0.3601 0.6980
H2 H 0.3475 0.3213 0.7324
O14 O 0.8593(3) 0.5316(3) 0.7173(2)
H3 H 0.7943 0.4956 0.6647
H4 H 0.9125 0.5626 0.6859
N1 N 0.9720(4) 0.3698(3) 0.3845(3)
N2 N 0.5951(4) 0.0837(3) 0.4152(3)
N3 N 0.4319(4) 0.2887(4) 0.8880(3)
C1 C 0.7004(4) 0.4340(4) 0.4721(3)
C2 C 0.8029(4) 0.3844(4) 0.4602(3)
C3 C 0.8769(4) 0.4075(4) 0.3911(3)
H5 H 0.8595 0.4508 0.3478
C4 C 0.9936(5) 0.3050(4) 0.4458(4)
H6 H 1.0603 0.2789 0.4412
C5 C 0.9239(4) 0.2747(4) 0.5150(4)
C6 C 0.8261(4) 0.3166(4) 0.5211(3)
H7 H 0.7761 0.2985 0.5667
C7 C 0.9394(4) 0.1884(4) 0.5726(4)
C8 C 0.8881(5) 0.0757(5) 0.5192(5)
H8 H 0.8515 0.0522 0.4469
C9 C 0.8877(6) -0.0100(6) 0.5697(7)
H9 H 0.8521 -0.0891 0.5310
C10 C 0.9401(7) 0.0243(7) 0.6760(7)
H10 H 0.9409 -0.0315 0.7099
C11 C 0.9916(6) 0.1413(6) 0.7331(6)
H11 H 1.0266 0.1643 0.8057
C12 C 0.9915(5) 0.2258(5) 0.6825(5)
C13 C 1.0488(5) 0.3515(5) 0.7507(4)
C14 C 0.3602(4) 0.2857(4) 0.3870(3)
C15 C 0.3037(4) 0.2070(4) 0.2745(3)
C16 C 0.2284(4) 0.2431(4) 0.2095(3)
H12 H 0.2201 0.3142 0.2361
C17 C 0.1650(5) 0.1759(4) 0.1054(4)
H13 H 0.1145 0.2012 0.0626
C18 C 0.1784(5) 0.0711(4) 0.0671(4)
H14 H 0.1371 0.0250 -0.0025
C19 C 0.2527(5) 0.0339(4) 0.1313(4)
H15 H 0.2609 -0.0372 0.1039
C20 C 0.3155(4) 0.0997(4) 0.2357(3)
C21 C 0.3954(4) 0.0520(4) 0.2979(3)
C22 C 0.5158(5) 0.1220(4) 0.3638(4)
H16 H 0.5433 0.2019 0.3728
C23 C 0.5560(5) -0.0306(4) 0.3991(4)
H17 H 0.6102 -0.0590 0.4343
C24 C 0.4401(4) -0.1104(4) 0.3335(3)
C25 C 0.3575(4) -0.0672(4) 0.2846(3)
H18 H 0.2767 -0.1180 0.2428
C26 C 0.4068(4) -0.2382(4) 0.3167(3)
C27 C 0.8626(5) 0.3407(4) 1.0362(4)
C28 C 0.7905(4) 0.2526(4) 1.0834(3)
C29 C 0.8589(5) 0.1993(4) 1.1344(4)
H19 H 0.9458 0.2219 1.1404
C30 C 0.8016(6) 0.1140(5) 1.1764(4)
H20 H 0.8489 0.0782 1.2090
C31 C 0.6741(7) 0.0822(5) 1.1697(5)
H21 H 0.6336 0.0238 1.1969
C32 C 0.6065(6) 0.1378(5) 1.1224(5)
H22 H 0.5205 0.1171 1.1200
C33 C 0.6610(5) 0.2229(4) 1.0783(4)
C34 C 0.5742(4) 0.2766(4) 1.0354(4)
C35 C 0.5219(5) 0.2529(5) 0.9284(4)
H23 H 0.5518 0.2088 0.8811
C36 C 0.3879(5) 0.3502(4) 0.9562(3)
H24 H 0.3241 0.3746 0.9301
C37 C 0.4339(4) 0.3792(4) 1.0649(3)
C38 C 0.5289(4) 0.3447(4) 1.1049(4)
H25 H 0.5629 0.3663 1.1775
C39 C 0.3776(4) 0.4464(4) 1.1367(3)
Lu1A Lu 0.530126(17) -0.418951(15) 0.399089(13)
Lu1A_2 Lu 0.530126(17) 0.581049(15) 0.399089(13)
Lu1A_3 Lu 0.530126(17) 0.581049(15) 1.399089(13)
Lu2A Lu 0.145887(18) -0.458713(17) 0.146324(15)
Lu2A_2 Lu 0.145887(18) 0.541287(17) 1.146324(15)
Lu2A_3 Lu 1.145887(18) 0.541287(17) 1.146324(15)
O2A O 0.3235(3) 0.5086(3) 0.5866(2)
O6A O 0.5814(3) 0.6045(3) 0.5925(2)
O7A O 0.5101(3) 0.2703(3) 0.6442(3)
O8A O 0.7045(3) 0.3065(3) 0.7381(2)
O10A O 1.0171(3) 0.6213(3) 0.9370(3)
O11A O 0.7237(3) 0.5439(3) 0.9035(2)
O12A O 0.5688(3) 0.5155(3) 0.7669(2)
loop_
_geom_bond_atom_site_label_1
_geom_bond_atom_site_label_2
_geom_bond_site_symmetry_1
_geom_bond_site_symmetry_2
Lu1 O1 1_555 1_555
Lu2 O3 1_555 1_555
O1 C1 1_555 1_555
O2 C1 1_555 1_555
O3 C13 1_555 1_555
O4 C13 1_555 1_555
O5 Lu1 1_555 1_555
O6 Lu1 1_555 1_555
O7 C26 1_555 1_555
O8 C26 1_555 1_555
O9 Lu2 1_555 1_555
O10 C27 1_555 1_555
O11 C39 1_555 1_555
O12 C39 1_555 1_555
O13 Lu1 1_555 1_555
H1 O13 1_555 1_555
H2 O13 1_555 1_555
O14 Lu2 1_555 1_555
H3 O14 1_555 1_555
H4 O14 1_555 1_555
N1 C3 1_555 1_555
N2 C22 1_555 1_555
N3 C35 1_555 1_555
C1 C2 1_555 1_555
C2 C3 1_555 1_555
C3 H5 1_555 1_555
C4 N1 1_555 1_555
H6 C4 1_555 1_555
C5 C4 1_555 1_555
C6 C2 1_555 1_555
H7 C6 1_555 1_555
C7 C5 1_555 1_555
C8 C7 1_555 1_555
H8 C8 1_555 1_555
C9 C8 1_555 1_555
H9 C9 1_555 1_555
C10 C9 1_555 1_555
H10 C10 1_555 1_555
C11 C10 1_555 1_555
H11 C11 1_555 1_555
C12 C7 1_555 1_555
C13 C12 1_555 1_555
C14 O5 1_555 1_555
C15 C14 1_555 1_555
C16 C15 1_555 1_555
H12 C16 1_555 1_555
C17 C16 1_555 1_555
H13 C17 1_555 1_555
C18 C17 1_555 1_555
H14 C18 1_555 1_555
C19 C18 1_555 1_555
H15 C19 1_555 1_555
C20 C15 1_555 1_555
C21 C20 1_555 1_555
C22 C21 1_555 1_555
H16 C22 1_555 1_555
C23 N2 1_555 1_555
H17 C23 1_555 1_555
C24 C23 1_555 1_555
C25 C21 1_555 1_555
H18 C25 1_555 1_555
C26 C24 1_555 1_555
C27 O9 1_555 1_555
C28 C27 1_555 1_555
C29 C28 1_555 1_555
H19 C29 1_555 1_555
C30 C29 1_555 1_555
H20 C30 1_555 1_555
C31 C30 1_555 1_555
H21 C31 1_555 1_555
C32 C31 1_555 1_555
H22 C32 1_555 1_555
C33 C28 1_555 1_555
C34 C33 1_555 1_555
C35 C34 1_555 1_555
H23 C35 1_555 1_555
C36 N3 1_555 1_555
H24 C36 1_555 1_555
C37 C36 1_555 1_555
C38 C34 1_555 1_555
H25 C38 1_555 1_555
C39 C37 1_555 1_555
Lu1A O7 1_555 1_555
Lu1A_2 O2 1_555 1_555
Lu1A_3 O12 1_555 1_555
Lu2A O8 1_555 1_555
Lu2A_2 O11 1_555 1_555
Lu2A_3 O10 1_555 1_555
O2A Lu1 1_555 1_555
O6A Lu1 1_555 1_555
O7A Lu1 1_555 1_555
O8A Lu2 1_555 1_555
O10A Lu2 1_555 1_555
O11A Lu2 1_555 1_555
O12A Lu1 1_555 1_555
O6 C14 1_555 1_555
O6 Lu1A_2 1_555 1_555
C5 C6 1_555 1_555
C11 C12 1_555 1_555
C19 C20 1_555 1_555
C24 C25 1_555 1_555
C32 C33 1_555 1_555
C37 C38 1_555 1_555
Lu1A_2 O6A 1_555 1_555

#END
