
#######################################################################
#
#                 Cambridge Crystallographic Data Centre
#                                CCDC 
#
#######################################################################
#
# If this CIF has been generated from an entry in the Cambridge 
# Structural Database, then it will include bibliographic, chemical, 
# crystal, experimental, refinement or atomic coordinate data resulting 
# from the CCDC's data processing and validation procedures.
#
#######################################################################

data_FICLIM
_symmetry_cell_setting           monoclinic
_symmetry_space_group_name_H-M   'P 21/n'
_symmetry_Int_Tables_number      14
_space_group_name_Hall           '-P 2yn'
loop_
_symmetry_equiv_pos_site_id
_symmetry_equiv_pos_as_xyz
1 x,y,z
2 1/2-x,1/2+y,1/2-z
3 -x,-y,-z
4 1/2+x,1/2-y,1/2+z
_cell_length_a                   4.8423(7)
_cell_length_b                   15.743(3)
_cell_length_c                   11.072(2)
_cell_angle_alpha                90
_cell_angle_beta                 95.75(1)
_cell_angle_gamma                90
_cell_volume                     839.798
loop_
_atom_site_label
_atom_site_type_symbol
_atom_site_fract_x
_atom_site_fract_y
_atom_site_fract_z
Pb1 Pb 0.26410(5) -0.51893(2) 0.14154(3)
O1 O 0.2321(12) -0.41583(39) -0.06279(62)
O2 O -0.0563(11) -0.31132(42) -0.12540(77)
O3 O 0.0798(13) -0.13577(62) 0.12886(88)
O4 O 0.4076(22) -0.03586(48) 0.17108(81)
O5 O 0.0293(12) -0.09961(49) -0.24419(73)
O6 O 0.3764(14) -0.09295(45) -0.36234(64)
N1 N 0.3218(10) -0.18980(38) -0.07237(54)
H1 H 0.1168(10) -0.17996(38) -0.08228(54)
C1 C 0.1654(12) -0.33893(42) -0.07309(66)
C2 C 0.3700(13) -0.27462(48) -0.01396(72)
H2 H 0.3439(13) -0.26913(48) 0.07416(72)
H3 H 0.5639(13) -0.29459(48) -0.02050(72)
C3 C 0.2896(16) -0.09716(50) 0.10979(79)
C4 C 0.4486(16) -0.11864(52) 0.00075(86)
H4 H 0.4565(16) -0.06777(52) -0.05288(86)
H5 H 0.6431(16) -0.13316(52) 0.03311(86)
C5 C 0.2608(14) -0.11985(46) -0.27381(67)
C6 C 0.4225(14) -0.18792(40) -0.19664(67)
H6 H 0.3878(14) -0.24462(40) -0.23599(67)
H7 H 0.6262(14) -0.17620(40) -0.19186(67)
O1B O -0.2321(12) -0.58417(39) 0.06279(62)
O1B_2 O 0.7679(12) -0.58417(39) 0.06279(62)
Pb1B Pb -0.26410(5) -0.48107(2) -0.14154(3)
Pb1B_2 Pb 0.73590(5) -0.48107(2) -0.14154(3)
C1B C -0.1654(12) -0.66107(42) 0.07309(66)
O2B O 0.0563(11) -0.68868(42) 0.12540(77)
O4A O 0.0924(22) -0.53586(48) 0.32892(81)
O5C O 0.5293(12) -0.40039(49) 0.25581(73)
O6C O -0.1236(14) -0.40705(45) 0.13766(64)
Pb1A Pb 0.23590(5) -0.01893(2) 0.35846(3)
Pb1C Pb -0.23590(5) 0.01893(2) -0.35846(3)
Pb1C_2 Pb 0.76410(5) 0.01893(2) -0.35846(3)
loop_
_geom_bond_atom_site_label_1
_geom_bond_atom_site_label_2
_geom_bond_site_symmetry_1
_geom_bond_site_symmetry_2
Pb1 O1 1_555 1_555
O1 C1 1_555 1_555
O2 C1 1_555 1_555
O3 C3 1_555 1_555
O4 C3 1_555 1_555
O5 C5 1_555 1_555
O6 C5 1_555 1_555
N1 H1 1_555 1_555
C1 C2 1_555 1_555
C2 N1 1_555 1_555
H2 C2 1_555 1_555
H3 C2 1_555 1_555
C3 C4 1_555 1_555
C4 N1 1_555 1_555
H4 C4 1_555 1_555
H5 C4 1_555 1_555
C5 C6 1_555 1_555
C6 N1 1_555 1_555
H6 C6 1_555 1_555
H7 C6 1_555 1_555
O1B Pb1 1_555 1_555
O1B_2 Pb1 1_555 1_555
Pb1B O1 1_555 1_555
Pb1B_2 O1 1_555 1_555
C1B O1B 1_555 1_555
O2B Pb1 1_555 1_555
O4A Pb1 1_555 1_555
O5C Pb1 1_555 1_555
O6C Pb1 1_555 1_555
Pb1A O4 1_555 1_555
Pb1C O5 1_555 1_555
Pb1C_2 O6 1_555 1_555
O2 Pb1B 1_555 1_555
O1B Pb1B 1_555 1_555
O1B_2 Pb1B_2 1_555 1_555
C1B O2B 1_555 1_555

#END
