
#######################################################################
#
#                 Cambridge Crystallographic Data Centre
#                                CCDC 
#
#######################################################################
#
# If this CIF has been generated from an entry in the Cambridge 
# Structural Database, then it will include bibliographic, chemical, 
# crystal, experimental, refinement or atomic coordinate data resulting 
# from the CCDC's data processing and validation procedures.
#
#######################################################################

data_FICWOE
_symmetry_cell_setting           monoclinic
_symmetry_space_group_name_H-M   'P 21/n'
_symmetry_Int_Tables_number      14
_space_group_name_Hall           '-P 2yn'
loop_
_symmetry_equiv_pos_site_id
_symmetry_equiv_pos_as_xyz
1 x,y,z
2 1/2-x,1/2+y,1/2-z
3 -x,-y,-z
4 1/2+x,1/2-y,1/2+z
_cell_length_a                   12.486(2)
_cell_length_b                   9.4430(10)
_cell_length_c                   16.839(2)
_cell_angle_alpha                90
_cell_angle_beta                 108.289(2)
_cell_angle_gamma                90
_cell_volume                     1885.12
loop_
_atom_site_label
_atom_site_type_symbol
_atom_site_fract_x
_atom_site_fract_y
_atom_site_fract_z
Co1 Co 0.5000 0.5000 0.5000
Co2 Co 0.0000 0.5000 0.5000
S1 S 0.25329(5) 0.36127(7) 0.51985(4)
O1 O 0.35526(15) 0.4470(2) 0.53129(12)
O2 O 0.17400(14) 0.44946(19) 0.55036(11)
O3 O 0.20038(16) 0.3282(2) 0.43151(12)
O4 O 0.28205(18) 0.2335(2) 0.56972(13)
O5 O -0.00036(17) 0.5488(2) 0.62367(12)
H1 H -0.0632(15) 0.592(3) 0.612(2)
H2 H 0.046(2) 0.598(3) 0.6611(15)
N1 N 0.60081(18) 0.3919(2) 0.61077(14)
N2 N 0.49823(18) 0.6982(2) 0.57082(14)
N3 N -0.04650(18) 0.2874(2) 0.52054(14)
C1 C 0.5656(2) 0.3697(3) 0.67742(18)
H7 H 0.4957 0.4052 0.6762
C2 C 0.6282(3) 0.2971(4) 0.74721(19)
H8 H 0.6014 0.2864 0.7926
C3 C 0.7295(3) 0.2409(4) 0.7496(2)
H9 H 0.7724 0.1898 0.7959
C4 C 0.7667(3) 0.2614(4) 0.6820(2)
H10 H 0.8355 0.2241 0.6818
C5 C 0.7013(2) 0.3375(3) 0.61463(19)
H11 H 0.7281 0.3519 0.5696
C6 C 0.5510(2) 0.8141(3) 0.55798(19)
H12 H 0.5862 0.8114 0.5168
C7 C 0.5564(3) 0.9376(3) 0.6023(2)
H13 H 0.5952 1.0157 0.5917
C8 C 0.5037(3) 0.9438(4) 0.6625(2)
H14 H 0.5060 1.0260 0.6933
C9 C 0.4476(3) 0.8263(4) 0.6762(2)
H15 H 0.4107 0.8277 0.7163
C10 C 0.4467(3) 0.7067(3) 0.62978(19)
H16 H 0.4085 0.6274 0.6396
C11 C -0.1377(2) 0.2238(3) 0.46978(19)
H17 H -0.1810 0.2728 0.4227
C12 C -0.1711(3) 0.0896(3) 0.4834(2)
H18 H -0.2353 0.0493 0.4462
C13 C -0.1086(3) 0.0163(3) 0.5526(2)
H19 H -0.1294 -0.0746 0.5632
C14 C -0.0143(3) 0.0802(3) 0.6061(2)
H20 H 0.0294 0.0334 0.6539
C15 C 0.0144(2) 0.2143(3) 0.58789(18)
H21 H 0.0788 0.2561 0.6239
Co1_2 Co -0.5000 0.5000 0.5000
S1B S -0.25329(5) 0.63873(7) 0.48015(4)
O1B O 0.64474(15) 0.5530(2) 0.46871(12)
O1B_2 O -0.35526(15) 0.5530(2) 0.46871(12)
O2B O -0.17400(14) 0.55054(19) 0.44964(11)
O3B O -0.20038(16) 0.6718(2) 0.56849(12)
O4B O -0.28205(18) 0.7665(2) 0.43028(13)
O5B O 0.00036(17) 0.4512(2) 0.37633(12)
H1B H 0.0632(15) 0.408(3) 0.388(2)
H2B H -0.046(2) 0.402(3) 0.3389(15)
N1B N 0.39919(18) 0.6081(2) 0.38923(14)
N2B N 0.50177(18) 0.3018(2) 0.42918(14)
N3B N 0.04650(18) 0.7126(2) 0.47946(14)
C1B C 0.4344(2) 0.6303(3) 0.32258(18)
H7B H 0.5043 0.5948 0.3238
C2B C 0.3718(3) 0.7029(4) 0.25279(19)
H8B H 0.3986 0.7136 0.2074
C3B C 0.2705(3) 0.7591(4) 0.2504(2)
H9B H 0.2276 0.8102 0.2041
C4B C 0.2333(3) 0.7386(4) 0.3180(2)
H10B H 0.1645 0.7759 0.3182
C5B C 0.2987(2) 0.6625(3) 0.38537(19)
H11B H 0.2719 0.6481 0.4304
C6B C 0.4490(2) 0.1859(3) 0.44202(19)
H12B H 0.4138 0.1886 0.4832
C7B C 0.4436(3) 0.0624(3) 0.3977(2)
H13B H 0.4048 -0.0157 0.4083
C8B C 0.4963(3) 0.0562(4) 0.3375(2)
H14B H 0.4940 -0.0260 0.3067
C9B C 0.5524(3) 0.1737(4) 0.3238(2)
H15B H 0.5893 0.1723 0.2837
C10B C 0.5533(3) 0.2933(3) 0.37022(19)
H16B H 0.5915 0.3726 0.3604
C11B C 0.1377(2) 0.7762(3) 0.53022(19)
H17B H 0.1810 0.7272 0.5773
C12B C 0.1711(3) 0.9104(3) 0.5166(2)
H18B H 0.2353 0.9507 0.5538
C13B C 0.1086(3) 0.9837(3) 0.4474(2)
H19B H 0.1294 1.0746 0.4368
C14B C 0.0143(3) 0.9198(3) 0.3939(2)
H20B H -0.0294 0.9666 0.3461
C15B C -0.0144(2) 0.7857(3) 0.41211(18)
H21B H -0.0788 0.7439 0.3761
O6 O 0.1564(2) 0.7038(3) 0.75883(17)
H3 H 0.167(3) 0.706(4) 0.8111(8)
H4 H 0.175(4) 0.785(2) 0.746(3)
O7 O 0.2166(3) 0.9841(3) 0.77666(17)
H5 H 0.255(3) 0.974(4) 0.8277(9)
H6 H 0.248(3) 1.052(3) 0.759(3)
loop_
_geom_bond_atom_site_label_1
_geom_bond_atom_site_label_2
_geom_bond_site_symmetry_1
_geom_bond_site_symmetry_2
Co1 O1 1_555 1_555
Co2 O2 1_555 1_555
S1 O1 1_555 1_555
O2 S1 1_555 1_555
O3 S1 1_555 1_555
O4 S1 1_555 1_555
O5 Co2 1_555 1_555
H1 O5 1_555 1_555
H2 O5 1_555 1_555
O6 H3 1_555 1_555
H4 O6 1_555 1_555
O7 H5 1_555 1_555
H6 O7 1_555 1_555
N1 Co1 1_555 1_555
N2 Co1 1_555 1_555
N3 Co2 1_555 1_555
C1 N1 1_555 1_555
H7 C1 1_555 1_555
C2 C1 1_555 1_555
H8 C2 1_555 1_555
C3 C2 1_555 1_555
H9 C3 1_555 1_555
C4 C3 1_555 1_555
H10 C4 1_555 1_555
C5 N1 1_555 1_555
H11 C5 1_555 1_555
C6 N2 1_555 1_555
H12 C6 1_555 1_555
C7 C6 1_555 1_555
H13 C7 1_555 1_555
C8 C7 1_555 1_555
H14 C8 1_555 1_555
C9 C8 1_555 1_555
H15 C9 1_555 1_555
C10 N2 1_555 1_555
H16 C10 1_555 1_555
C11 N3 1_555 1_555
H17 C11 1_555 1_555
C12 C11 1_555 1_555
H18 C12 1_555 1_555
C13 C12 1_555 1_555
H19 C13 1_555 1_555
C14 C13 1_555 1_555
H20 C14 1_555 1_555
C15 N3 1_555 1_555
H21 C15 1_555 1_555
Co1_2 O1B_2 1_555 1_555
S1B O1B_2 1_555 1_555
O1B Co1 1_555 1_555
O2B Co2 1_555 1_555
O3B S1B 1_555 1_555
O4B S1B 1_555 1_555
O5B Co2 1_555 1_555
H1B O5B 1_555 1_555
H2B O5B 1_555 1_555
N1B Co1 1_555 1_555
N2B Co1 1_555 1_555
N3B Co2 1_555 1_555
C1B N1B 1_555 1_555
H7B C1B 1_555 1_555
C2B C1B 1_555 1_555
H8B C2B 1_555 1_555
C3B C2B 1_555 1_555
H9B C3B 1_555 1_555
C4B C3B 1_555 1_555
H10B C4B 1_555 1_555
C5B N1B 1_555 1_555
H11B C5B 1_555 1_555
C6B N2B 1_555 1_555
H12B C6B 1_555 1_555
C7B C6B 1_555 1_555
H13B C7B 1_555 1_555
C8B C7B 1_555 1_555
H14B C8B 1_555 1_555
C9B C8B 1_555 1_555
H15B C9B 1_555 1_555
C10B N2B 1_555 1_555
H16B C10B 1_555 1_555
C11B N3B 1_555 1_555
H17B C11B 1_555 1_555
C12B C11B 1_555 1_555
H18B C12B 1_555 1_555
C13B C12B 1_555 1_555
H19B C13B 1_555 1_555
C14B C13B 1_555 1_555
H20B C14B 1_555 1_555
C15B N3B 1_555 1_555
H21B C15B 1_555 1_555
C4 C5 1_555 1_555
C9 C10 1_555 1_555
C14 C15 1_555 1_555
S1B O2B 1_555 1_555
C4B C5B 1_555 1_555
C9B C10B 1_555 1_555
C14B C15B 1_555 1_555

#END
