
#######################################################################
#
#                 Cambridge Crystallographic Data Centre
#                                CCDC 
#
#######################################################################
#
# If this CIF has been generated from an entry in the Cambridge 
# Structural Database, then it will include bibliographic, chemical, 
# crystal, experimental, refinement or atomic coordinate data resulting 
# from the CCDC's data processing and validation procedures.
#
#######################################################################

data_FICYUL01
_symmetry_cell_setting           monoclinic
_symmetry_space_group_name_H-M   'P 21/c'
_symmetry_Int_Tables_number      14
_space_group_name_Hall           '-P 2ybc'
loop_
_symmetry_equiv_pos_site_id
_symmetry_equiv_pos_as_xyz
1 x,y,z
2 -x,1/2+y,1/2-z
3 -x,-y,-z
4 x,1/2-y,1/2+z
_cell_length_a                   14.7936(11)
_cell_length_b                   5.8222(4)
_cell_length_c                   20.3933(15)
_cell_angle_alpha                90
_cell_angle_beta                 94.830(1)
_cell_angle_gamma                90
_cell_volume                     1750.26
loop_
_atom_site_label
_atom_site_type_symbol
_atom_site_fract_x
_atom_site_fract_y
_atom_site_fract_z
K1 K 0.77365(2) -0.08156(6) 0.568831(16)
O1 O 0.75229(7) 0.30797(19) 0.47686(5)
O2 O 0.67897(7) 0.6357(2) 0.49551(5)
O3 O 0.37231(8) 0.7581(2) 0.40913(6)
O4 O 0.29580(8) 0.4897(2) 0.35541(6)
O5 O 0.45682(8) -0.1792(2) 0.28284(5)
O6 O 0.60280(8) -0.1943(2) 0.30361(6)
O7 O 0.87838(7) -0.5016(2) 0.54418(5)
H1 H 0.8279 -0.5691 0.5250
O8 O 0.90697(8) -0.8083(2) 0.60965(6)
O9 O 1.11048(8) 0.0842(2) 0.54188(6)
O10 O 1.20254(8) 0.1422(2) 0.62871(6)
O11 O 1.13232(8) -0.7129(2) 0.79739(6)
O12 O 1.23954(8) -0.4624(2) 0.79227(6)
N1 N 0.36597(9) 0.5684(2) 0.38271(6)
N2 N 0.52877(9) -0.1061(2) 0.30921(6)
N3 N 1.14322(9) 0.0330(2) 0.59710(7)
N4 N 1.16768(9) -0.5509(2) 0.77114(6)
C1 C 0.60311(10) 0.3642(3) 0.42564(7)
C2 C 0.52503(10) 0.4990(3) 0.42237(7)
H2 H 0.5243 0.6397 0.4459
C3 C 0.44844(10) 0.4253(3) 0.38440(7)
C4 C 0.44613(10) 0.2254(3) 0.34783(7)
H3 H 0.3929 0.1766 0.3223
C5 C 0.52605(10) 0.1002(3) 0.35064(7)
C6 C 0.60415(10) 0.1624(3) 0.38930(7)
H4 H 0.6570 0.0691 0.3908
C7 C 0.68420(10) 0.4458(3) 0.46924(7)
C8 C 1.00264(10) -0.4839(3) 0.62377(7)
C9 C 1.03404(10) -0.2846(3) 0.59604(7)
H5 H 1.0049 -0.2244 0.5564
C10 C 1.10877(10) -0.1755(3) 0.62737(7)
C11 C 1.15401(10) -0.2544(3) 0.68527(7)
H6 H 1.2050 -0.1761 0.7061
C12 C 1.12053(10) -0.4538(3) 0.71090(7)
C13 C 1.04570(10) -0.5706(3) 0.68185(7)
H7 H 1.0244 -0.7066 0.7012
C14 C 0.92292(10) -0.6140(3) 0.59101(7)
K1_2 K 0.77365(2) 0.91844(6) 0.568831(16)
K1B K 0.22635(2) 1.08156(6) 0.431169(16)
K1B_2 K 0.22635(2) 0.08156(6) 0.431169(16)
K1_3 K 0.77365(2) -1.08156(6) 0.568831(16)
K1B_3 K 1.22635(2) 0.08156(6) 0.431169(16)
K1A K 1.22635(2) -0.58156(6) 0.931169(16)
O2_2 O 0.67897(7) -0.3643(2) 0.49551(5)
O3B O 0.62769(8) 0.2419(2) 0.59087(6)
O4B O 0.70420(8) -0.4897(2) 0.64459(6)
O8_2 O 0.90697(8) 0.1917(2) 0.60965(6)
O9B O 0.88952(8) -0.0842(2) 0.45812(6)
O11A O 0.86768(8) -0.2129(2) 0.70261(6)
O12A O 0.76046(8) 0.0376(2) 0.70773(6)
loop_
_geom_bond_atom_site_label_1
_geom_bond_atom_site_label_2
_geom_bond_site_symmetry_1
_geom_bond_site_symmetry_2
K1 O1 1_555 1_555
O1 C7 1_555 1_555
O2 C7 1_555 1_555
O3 N1 1_555 1_555
O4 N1 1_555 1_555
O5 N2 1_555 1_555
O6 N2 1_555 1_555
O7 K1 1_555 1_555
H1 O7 1_555 1_555
O8 C14 1_555 1_555
O9 N3 1_555 1_555
O10 N3 1_555 1_555
O11 N4 1_555 1_555
O12 N4 1_555 1_555
N1 C3 1_555 1_555
N2 C5 1_555 1_555
N3 C10 1_555 1_555
N4 C12 1_555 1_555
C1 C2 1_555 1_555
C2 H2 1_555 1_555
C3 C2 1_555 1_555
C4 C3 1_555 1_555
H3 C4 1_555 1_555
C5 C4 1_555 1_555
C6 C1 1_555 1_555
H4 C6 1_555 1_555
C7 C1 1_555 1_555
C8 C9 1_555 1_555
C9 H5 1_555 1_555
C10 C9 1_555 1_555
C11 C10 1_555 1_555
H6 C11 1_555 1_555
C12 C11 1_555 1_555
C13 C8 1_555 1_555
H7 C13 1_555 1_555
C14 O7 1_555 1_555
K1_2 O2 1_555 1_555
K1B O3 1_555 1_555
K1B_2 O4 1_555 1_555
K1_3 O8 1_555 1_555
K1B_3 O9 1_555 1_555
K1A O11 1_555 1_555
O2_2 K1 1_555 1_555
O3B K1 1_555 1_555
O4B K1 1_555 1_555
O8_2 K1 1_555 1_555
O9B K1 1_555 1_555
O11A K1 1_555 1_555
O12A K1 1_555 1_555
O12 K1A 1_555 1_555
C5 C6 1_555 1_555
C8 C14 1_555 1_555
C12 C13 1_555 1_555

#END
