
#######################################################################
#
#                 Cambridge Crystallographic Data Centre
#                                CCDC 
#
#######################################################################
#
# If this CIF has been generated from an entry in the Cambridge 
# Structural Database, then it will include bibliographic, chemical, 
# crystal, experimental, refinement or atomic coordinate data resulting 
# from the CCDC's data processing and validation procedures.
#
#######################################################################

data_FIDDIF
_symmetry_cell_setting           monoclinic
_symmetry_space_group_name_H-M   'P 21/n'
_symmetry_Int_Tables_number      14
_space_group_name_Hall           '-P 2yn'
loop_
_symmetry_equiv_pos_site_id
_symmetry_equiv_pos_as_xyz
1 x,y,z
2 1/2-x,1/2+y,1/2-z
3 -x,-y,-z
4 1/2+x,1/2-y,1/2+z
_cell_length_a                   11.044(2)
_cell_length_b                   18.734(5)
_cell_length_c                   16.019(5)
_cell_angle_alpha                90
_cell_angle_beta                 105.56(2)
_cell_angle_gamma                90
_cell_volume                     3192.83
loop_
_atom_site_label
_atom_site_type_symbol
_atom_site_fract_x
_atom_site_fract_y
_atom_site_fract_z
Ta1 Ta 0.21304(3) 0.24910(2) 0.22119(2)
Ta2 Ta 0.14660(3) 0.12569(2) 0.14643(2)
Cl1 Cl 0.1420(2) 0.3710(2) 0.1631(2)
Cl2 Cl 0.4329(2) 0.2977(1) 0.2666(2)
Cl3 Cl 0.1823(2) 0.2887(1) 0.3639(1)
Cl4 Cl -0.0100(2) 0.1035(1) -0.0007(1)
Cl5 Cl 0.2871(2) 0.0319(1) 0.1052(2)
Cl6 Cl 0.0442(2) 0.0240(1) 0.2060(1)
S1 S 0.2462(2) 0.2168(1) 0.0832(1)
S2 S -0.0015(2) 0.2082(1) 0.1774(1)
S3 S 0.2930(2) 0.1373(1) 0.2860(1)
Na1 Na 0.1371(4) 0.0074(3) -0.0579(2)
Na2 Na 0.3091(4) 0.4094(2) 0.3252(3)
O1 O 0.2694(9) 0.0388(9) -0.1381(6)
C1 C 0.4033(9) 0.2074(7) 0.0625(7)
C2 C 0.392(1) 0.249(1) -0.0183(9)
C3 C 0.270(1) 0.261(1) -0.0695(8)
C4 C 0.175(1) 0.2642(6) -0.0193(6)
C5 C -0.1301(9) 0.2496(6) 0.0921(7)
C6 C -0.248(1) 0.225(1) 0.113(1)
C7 C -0.235(1) 0.195(1) 0.1953(9)
C8 C -0.102(1) 0.1883(7) 0.2501(6)
C9 C 0.268(1) 0.1015(6) 0.3866(6)
C10 C 0.405(1) 0.0888(9) 0.4440(7)
C11 C 0.487(1) 0.0638(8) 0.3900(9)
C12 C 0.463(1) 0.1115(6) 0.3115(8)
C13 C 0.399(1) 0.035(1) -0.118(1)
C14 C 0.421(2) 0.063(1) -0.202(1)
C15 C 0.322(2) 0.070(2) -0.261(1)
C16 C 0.219(2) 0.063(2) -0.225(1)
Na1B Na -0.1371(4) -0.0074(3) 0.0579(2)
Na2C Na -0.1909(4) 0.0906(2) -0.1748(3)
Na2A Na 0.1909(4) -0.0906(2) 0.1748(3)
Cl4B Cl 0.0100(2) -0.1035(1) 0.0007(1)
Cl6B Cl -0.0442(2) -0.0240(1) -0.2060(1)
Cl4C Cl 0.4900(2) 0.3965(1) 0.4993(1)
Cl5A Cl 0.2129(2) 0.5319(1) 0.3948(2)
Cl6A Cl 0.4558(2) 0.5240(1) 0.2940(1)
Cl5B Cl -0.2871(2) -0.0319(1) -0.1052(2)
O1B O -0.2694(9) -0.0388(9) 0.1381(6)
Cl1C Cl -0.3580(2) 0.1290(2) -0.3369(2)
Cl2C Cl -0.0671(2) 0.2023(1) -0.2334(2)
Cl3C Cl -0.3177(2) 0.2113(1) -0.1361(1)
Cl1A Cl 0.3580(2) -0.1290(2) 0.3369(2)
Cl2A Cl 0.0671(2) -0.2023(1) 0.2334(2)
Cl3A Cl 0.3177(2) -0.2113(1) 0.1361(1)
Ta2B Ta -0.14660(3) -0.12569(2) -0.14643(2)
Ta2C Ta 0.64660(3) 0.37431(2) 0.64643(2)
Na1A Na 0.3629(4) 0.5074(3) 0.5579(2)
Na1C Na 0.6371(4) 0.4926(3) 0.4421(2)
Ta2A Ta 0.35340(3) 0.62569(2) 0.35357(2)
C13B C -0.399(1) -0.035(1) 0.118(1)
C16B C -0.219(2) -0.063(2) 0.225(1)
Ta1C Ta -0.28696(3) 0.25090(2) -0.27881(2)
Ta1A Ta 0.28696(3) -0.25090(2) 0.27881(2)
Ta1B Ta -0.21304(3) -0.24910(2) -0.22119(2)
S1B S -0.2462(2) -0.2168(1) -0.0832(1)
S2B S 0.0015(2) -0.2082(1) -0.1774(1)
S3B S -0.2930(2) -0.1373(1) -0.2860(1)
Ta1C_2 Ta 0.71304(3) 0.25090(2) 0.72119(2)
Cl5C Cl 0.7871(2) 0.4681(1) 0.6052(2)
Cl6C Cl 0.5442(2) 0.4760(1) 0.7060(1)
S1C S 0.7462(2) 0.2832(1) 0.5832(1)
S2C S 0.4985(2) 0.2918(1) 0.6774(1)
S3C S 0.7930(2) 0.3627(1) 0.7860(1)
Cl4A Cl 0.5100(2) 0.6035(1) 0.5007(1)
O1A O 0.2306(9) 0.5388(9) 0.6381(6)
O1C O 0.7694(9) 0.4612(9) 0.3619(6)
Ta1A_2 Ta 0.28696(3) 0.74910(2) 0.27881(2)
S1A S 0.2538(2) 0.7168(1) 0.4168(1)
S2A S 0.5015(2) 0.7082(1) 0.3226(1)
S3A S 0.2070(2) 0.6373(1) 0.2140(1)
C14B C -0.421(2) -0.063(1) 0.202(1)
C15B C -0.322(2) -0.070(2) 0.261(1)
Ta2C_2 Ta -0.35340(3) 0.37431(2) -0.35357(2)
S1C_2 S -0.2538(2) 0.2832(1) -0.4168(1)
S2C_2 S -0.5015(2) 0.2918(1) -0.3226(1)
S3C_2 S -0.2070(2) 0.3627(1) -0.2140(1)
Ta2A_2 Ta 0.35340(3) -0.37431(2) 0.35357(2)
S1A_2 S 0.2538(2) -0.2832(1) 0.4168(1)
S2A_2 S 0.5015(2) -0.2918(1) 0.3226(1)
S3A_2 S 0.2070(2) -0.3627(1) 0.2140(1)
Cl1B Cl -0.1420(2) -0.3710(2) -0.1631(2)
Cl2B Cl -0.4329(2) -0.2977(1) -0.2666(2)
Cl3B Cl -0.1823(2) -0.2887(1) -0.3639(1)
C1B C -0.4033(9) -0.2074(7) -0.0625(7)
C4B C -0.175(1) -0.2642(6) 0.0193(6)
C5B C 0.1301(9) -0.2496(6) -0.0921(7)
C8B C 0.102(1) -0.1883(7) -0.2501(6)
C9B C -0.268(1) -0.1015(6) -0.3866(6)
C12B C -0.463(1) -0.1115(6) -0.3115(8)
Na2B Na 0.6909(4) 0.5906(2) 0.6748(3)
C1C C 0.9033(9) 0.2926(7) 0.5625(7)
C4C C 0.675(1) 0.2358(6) 0.4807(6)
C5C C 0.3699(9) 0.2504(6) 0.5921(7)
C8C C 0.398(1) 0.3117(7) 0.7501(6)
C9C C 0.768(1) 0.3985(6) 0.8866(6)
C12C C 0.963(1) 0.3885(6) 0.8115(8)
C13A C 0.101(1) 0.535(1) 0.618(1)
C16A C 0.281(2) 0.563(2) 0.725(1)
C13C C 0.899(1) 0.465(1) 0.382(1)
C16C C 0.719(2) 0.437(2) 0.275(1)
C1A C 0.0967(9) 0.7074(7) 0.4375(7)
C4A C 0.325(1) 0.7642(6) 0.5193(6)
C5A C 0.6301(9) 0.7496(6) 0.4079(7)
C8A C 0.602(1) 0.6883(7) 0.2499(6)
C9A C 0.232(1) 0.6015(6) 0.1134(6)
C12A C 0.037(1) 0.6115(6) 0.1885(8)
Na2B_2 Na -0.3091(4) -0.4094(2) -0.3252(3)
C2B C -0.392(1) -0.249(1) 0.0183(9)
C3B C -0.270(1) -0.261(1) 0.0695(8)
C6B C 0.248(1) -0.225(1) -0.113(1)
C7B C 0.235(1) -0.195(1) -0.1953(9)
C10B C -0.405(1) -0.0888(9) -0.4440(7)
C11B C -0.487(1) -0.0638(8) -0.3900(9)
Cl1B_2 Cl 0.8580(2) 0.6290(2) 0.8369(2)
Cl2B_2 Cl 0.5671(2) 0.7023(1) 0.7334(2)
Cl3B_2 Cl 0.8177(2) 0.7113(1) 0.6361(1)
C2C C 0.892(1) 0.251(1) 0.4817(9)
C3C C 0.770(1) 0.239(1) 0.4305(8)
C6C C 0.252(1) 0.275(1) 0.613(1)
C7C C 0.265(1) 0.305(1) 0.6953(9)
C10C C 0.905(1) 0.4112(9) 0.9440(7)
C11C C 0.987(1) 0.4362(8) 0.8900(9)
C14A C 0.079(2) 0.563(1) 0.702(1)
C15A C 0.178(2) 0.570(2) 0.761(1)
C14C C 0.921(2) 0.437(1) 0.298(1)
C15C C 0.822(2) 0.430(2) 0.239(1)
C2A C 0.108(1) 0.749(1) 0.5183(9)
C3A C 0.230(1) 0.761(1) 0.5695(8)
C6A C 0.748(1) 0.725(1) 0.387(1)
C7A C 0.735(1) 0.695(1) 0.3047(9)
C10A C 0.095(1) 0.5888(9) 0.0560(7)
C11A C 0.013(1) 0.5638(8) 0.1100(9)
loop_
_geom_bond_atom_site_label_1
_geom_bond_atom_site_label_2
_geom_bond_site_symmetry_1
_geom_bond_site_symmetry_2
Ta1 Ta2 1_555 1_555
Ta2 Cl4 1_555 1_555
Cl1 Ta1 1_555 1_555
Cl2 Ta1 1_555 1_555
Cl3 Ta1 1_555 1_555
Cl4 Na1 1_555 1_555
Cl5 Ta2 1_555 1_555
Cl6 Ta2 1_555 1_555
S1 Ta1 1_555 1_555
S2 Ta1 1_555 1_555
S3 Ta1 1_555 1_555
Na1 Cl5 1_555 1_555
Na2 Cl1 1_555 1_555
O1 Na1 1_555 1_555
C1 S1 1_555 1_555
C2 C1 1_555 1_555
C3 C2 1_555 1_555
C4 S1 1_555 1_555
C5 S2 1_555 1_555
C6 C5 1_555 1_555
C7 C6 1_555 1_555
C8 S2 1_555 1_555
C9 S3 1_555 1_555
C10 C9 1_555 1_555
C11 C10 1_555 1_555
C12 S3 1_555 1_555
C13 O1 1_555 1_555
C14 C13 1_555 1_555
C15 C14 1_555 1_555
C16 O1 1_555 1_555
Na1B Cl4 1_555 1_555
Na2C Cl4 1_555 1_555
Na2A Cl5 1_555 1_555
Cl4B Na1 1_555 1_555
Cl6B Na1 1_555 1_555
Cl4C Na2 1_555 1_555
Cl5A Na2 1_555 1_555
Cl6A Na2 1_555 1_555
Cl5B Na1B 1_555 1_555
O1B Na1B 1_555 1_555
Cl1C Na2C 1_555 1_555
Cl2C Na2C 1_555 1_555
Cl3C Na2C 1_555 1_555
Cl1A Na2A 1_555 1_555
Cl2A Na2A 1_555 1_555
Cl3A Na2A 1_555 1_555
Ta2B Cl4B 1_555 1_555
Ta2C Cl4C 1_555 1_555
Na1A Cl4C 1_555 1_555
Na1C Cl4C 1_555 1_555
Ta2A Cl5A 1_555 1_555
C13B O1B 1_555 1_555
C16B O1B 1_555 1_555
Ta1C Cl1C 1_555 1_555
Ta1A Cl1A 1_555 1_555
Ta1B Ta2B 1_555 1_555
S1B Ta2B 1_555 1_555
S2B Ta2B 1_555 1_555
S3B Ta2B 1_555 1_555
Ta1C_2 Ta2C 1_555 1_555
Cl5C Ta2C 1_555 1_555
Cl6C Ta2C 1_555 1_555
S1C Ta2C 1_555 1_555
S2C Ta2C 1_555 1_555
S3C Ta2C 1_555 1_555
Cl4A Na1A 1_555 1_555
O1A Na1A 1_555 1_555
O1C Na1C 1_555 1_555
Ta1A_2 Ta2A 1_555 1_555
S1A Ta2A 1_555 1_555
S2A Ta2A 1_555 1_555
S3A Ta2A 1_555 1_555
C14B C13B 1_555 1_555
C15B C16B 1_555 1_555
Ta2C_2 Ta1C 1_555 1_555
S1C_2 Ta1C 1_555 1_555
S2C_2 Ta1C 1_555 1_555
S3C_2 Ta1C 1_555 1_555
Ta2A_2 Ta1A 1_555 1_555
S1A_2 Ta1A 1_555 1_555
S2A_2 Ta1A 1_555 1_555
S3A_2 Ta1A 1_555 1_555
Cl1B Ta1B 1_555 1_555
Cl2B Ta1B 1_555 1_555
Cl3B Ta1B 1_555 1_555
C1B S1B 1_555 1_555
C4B S1B 1_555 1_555
C5B S2B 1_555 1_555
C8B S2B 1_555 1_555
C9B S3B 1_555 1_555
C12B S3B 1_555 1_555
Na2B Cl5C 1_555 1_555
C1C S1C 1_555 1_555
C4C S1C 1_555 1_555
C5C S2C 1_555 1_555
C8C S2C 1_555 1_555
C9C S3C 1_555 1_555
C12C S3C 1_555 1_555
C13A O1A 1_555 1_555
C16A O1A 1_555 1_555
C13C O1C 1_555 1_555
C16C O1C 1_555 1_555
C1A S1A 1_555 1_555
C4A S1A 1_555 1_555
C5A S2A 1_555 1_555
C8A S2A 1_555 1_555
C9A S3A 1_555 1_555
C12A S3A 1_555 1_555
Na2B_2 Cl1B 1_555 1_555
C2B C1B 1_555 1_555
C3B C4B 1_555 1_555
C6B C5B 1_555 1_555
C7B C8B 1_555 1_555
C10B C9B 1_555 1_555
C11B C12B 1_555 1_555
Cl1B_2 Na2B 1_555 1_555
Cl2B_2 Na2B 1_555 1_555
Cl3B_2 Na2B 1_555 1_555
C2C C1C 1_555 1_555
C3C C4C 1_555 1_555
C6C C5C 1_555 1_555
C7C C8C 1_555 1_555
C10C C9C 1_555 1_555
C11C C12C 1_555 1_555
C14A C13A 1_555 1_555
C15A C16A 1_555 1_555
C14C C13C 1_555 1_555
C15C C16C 1_555 1_555
C2A C1A 1_555 1_555
C3A C4A 1_555 1_555
C6A C5A 1_555 1_555
C7A C8A 1_555 1_555
C10A C9A 1_555 1_555
C11A C12A 1_555 1_555
Ta2 S1 1_555 1_555
Ta2 S2 1_555 1_555
Ta2 S3 1_555 1_555
Cl2 Na2 1_555 1_555
Cl3 Na2 1_555 1_555
Cl6 Na1B 1_555 1_555
Cl6 Na2A 1_555 1_555
C3 C4 1_555 1_555
C7 C8 1_555 1_555
C11 C12 1_555 1_555
C15 C16 1_555 1_555
Na1B Cl4B 1_555 1_555
Na2C Cl5B 1_555 1_555
Na2C Cl6B 1_555 1_555
Na2A Cl4B 1_555 1_555
Cl6B Ta2B 1_555 1_555
Cl5A Na1A 1_555 1_555
Cl6A Ta2A 1_555 1_555
Cl6A Na1C 1_555 1_555
Cl5B Ta2B 1_555 1_555
Cl2C Ta1C 1_555 1_555
Cl3C Ta1C 1_555 1_555
Cl2A Ta1A 1_555 1_555
Cl3A Ta1A 1_555 1_555
Na1A Cl6C 1_555 1_555
Na1C Cl4A 1_555 1_555
Na1C Cl5C 1_555 1_555
Ta2A Cl4A 1_555 1_555
Ta1B S1B 1_555 1_555
Ta1B S2B 1_555 1_555
Ta1B S3B 1_555 1_555
Ta1C_2 S1C 1_555 1_555
Ta1C_2 S2C 1_555 1_555
Ta1C_2 S3C 1_555 1_555
Cl6C Na2B 1_555 1_555
Cl4A Na2B 1_555 1_555
Ta1A_2 S1A 1_555 1_555
Ta1A_2 S2A 1_555 1_555
Ta1A_2 S3A 1_555 1_555
C14B C15B 1_555 1_555
Cl2B Na2B_2 1_555 1_555
Cl3B Na2B_2 1_555 1_555
C2B C3B 1_555 1_555
C6B C7B 1_555 1_555
C10B C11B 1_555 1_555
C2C C3C 1_555 1_555
C6C C7C 1_555 1_555
C10C C11C 1_555 1_555
C14A C15A 1_555 1_555
C14C C15C 1_555 1_555
C2A C3A 1_555 1_555
C6A C7A 1_555 1_555
C10A C11A 1_555 1_555

#END
