
#######################################################################
#
#                 Cambridge Crystallographic Data Centre
#                                CCDC 
#
#######################################################################
#
# If this CIF has been generated from an entry in the Cambridge 
# Structural Database, then it will include bibliographic, chemical, 
# crystal, experimental, refinement or atomic coordinate data resulting 
# from the CCDC's data processing and validation procedures.
#
#######################################################################

data_FIDPAJ
_symmetry_cell_setting           triclinic
_symmetry_space_group_name_H-M   'P -1'
_symmetry_Int_Tables_number      2
_space_group_name_Hall           '-P 1'
loop_
_symmetry_equiv_pos_site_id
_symmetry_equiv_pos_as_xyz
1 x,y,z
2 -x,-y,-z
_cell_length_a                   12.766(2)
_cell_length_b                   14.050(2)
_cell_length_c                   10.820(2)
_cell_angle_alpha                101.97(2)
_cell_angle_beta                 105.86(2)
_cell_angle_gamma                84.03(1)
_cell_volume                     1823.92
loop_
_atom_site_label
_atom_site_type_symbol
_atom_site_fract_x
_atom_site_fract_y
_atom_site_fract_z
Hg1 Hg 0.0000 0.0000 0.0000
Hg2 Hg 0.37062(2) 0.02549(2) 0.44052(3)
Hg3 Hg 0.08681(3) 0.02978(2) 0.38808(3)
S1 S -0.0783(1) -0.0599(1) 0.2006(2)
S2 S 0.3038(2) 0.0453(1) 0.6380(2)
S3 S 0.2062(2) 0.0901(1) 0.2259(2)
S4 S 0.4799(2) 0.1741(1) 0.4828(2)
S5 S 0.1492(2) -0.1115(1) 0.4864(2)
S6 S 0.3848(2) -0.1127(1) 0.2671(2)
S7 S 0.0684(2) -0.1599(1) 0.0328(2)
S8 S 0.0627(2) 0.2018(1) 0.3878(2)
C1 C -0.0069(5) -0.1632(5) 0.1426(6)
C2 C 0.1432(6) 0.1993(5) 0.2814(7)
C3 C 0.2550(6) -0.0695(5) 0.6186(6)
C4 C 0.5321(5) 0.1970(5) 0.6512(7)
N1 N 0.5134(5) 0.2831(4) 0.7220(6)
C5 C 0.5662(7) 0.3111(6) 0.8618(8)
C6 C 0.4970(9) 0.2901(8) 0.9443(9)
C7 C 0.4352(8) 0.3577(6) 0.6641(9)
C8 C 0.4912(10) 0.4297(7) 0.6198(12)
N2 N -0.0109(5) -0.2468(4) 0.1803(5)
C9 C -0.0721(7) -0.2556(6) 0.2744(8)
C10 C -0.1932(8) -0.2717(6) 0.2073(10)
C11 C 0.0482(7) -0.3379(5) 0.1318(8)
C12 C 0.1575(8) -0.3516(7) 0.2234(9)
N3 N 0.2944(5) -0.1229(5) 0.7072(6)
C13 C 0.2503(8) -0.2172(7) 0.7003(10)
C14 C 0.3085(10) -0.3015(8) 0.6283(13)
C15 C 0.3891(7) -0.0966(8) 0.8194(8)
C16 C 0.3534(9) -0.0444(11) 0.9369(9)
N4 N 0.1506(5) 0.2802(4) 0.2423(6)
C17 C 0.2129(8) 0.2831(7) 0.1458(9)
C18 C 0.3188(10) 0.3254(12) 0.2044(12)
C19 C 0.0859(8) 0.3716(6) 0.2796(9)
C20 C 0.1443(11) 0.4298(8) 0.4104(12)
H1 H 0.6180(7) 0.3703(6) 0.9143(8)
H2 H 0.6158(7) 0.2474(6) 0.8343(8)
H3 H 0.5491(9) 0.2706(8) 1.0333(9)
H4 H 0.4454(9) 0.2308(8) 0.8913(9)
H5 H 0.4469(9) 0.3545(8) 0.9681(9)
H6 H 0.3617(8) 0.3915(6) 0.6884(9)
H7 H 0.4151(8) 0.2941(6) 0.5883(9)
H8 H 0.4356(10) 0.4526(7) 0.5352(12)
H9 H 0.5645(10) 0.3962(7) 0.5945(12)
H10 H 0.5117(10) 0.4922(7) 0.6974(12)
H11 H -0.0376(7) -0.3172(6) 0.3201(8)
H12 H -0.0650(7) -0.1900(6) 0.3482(8)
H13 H -0.2351(8) -0.2778(6) 0.2793(10)
H14 H -0.2003(8) -0.3379(6) 0.1348(10)
H15 H -0.2292(8) -0.2109(6) 0.1605(10)
H16 H 0.0591(7) -0.3336(5) 0.0376(8)
H17 H 0.0002(7) -0.3994(5) 0.1215(8)
H18 H 0.1973(8) -0.418(57) 0.1852(9)
H19 H 0.1475(8) -0.3556(7) 0.3181(9)
H20 H 0.2066(8) -0.2911(7) 0.2328(9)
H21 H 0.2593(8) -0.2285(7) 0.7985(10)
H22 H 0.1649(8) -0.2157(7) 0.6490(10)
H23 H 0.2737(10) -0.3688(8) 0.6267(13)
H24 H 0.3941(10) -0.3040(8) 0.6787(13)
H25 H 0.2991(10) -0.2920(8) 0.5293(13)
H26 H 0.4361(7) -0.1621(8) 0.8419(8)
H27 H 0.4391(7) -0.0500(8) 0.7942(8)
H28 H 0.4244(9) -0.0262(11) 1.0171(9)
H29 H 0.3038(9) -0.0907(11) 0.9632(9)
H30 H 0.3065(9) 0.0216(11) 0.9159(9)
H31 H 0.1656(8) 0.3264(7) 0.0761(9)
H32 H 0.2253(8) 0.2096(7) 0.0957(9)
H33 H 0.3598(10) 0.3256(12) 0.1293(12)
H34 H 0.3673(10) 0.2823(12) 0.2735(12)
H35 H 0.3079(10) 0.3992(12) 0.2546(12)
H36 H 0.0744(8) 0.4163(6) 0.2064(9)
H37 H 0.0075(8) 0.3527(6) 0.2845(9)
H38 H 0.0958(11) 0.4952(8) 0.4348(12)
H39 H 0.2224(11) 0.4493(8) 0.4050(12)
H40 H 0.1566(11) 0.3861(8) 0.4848(12)
S1A S 0.0783(1) 0.0599(1) -0.2006(2)
S7A S -0.0684(2) 0.1599(1) -0.0328(2)
C4A C 0.4679(5) -0.1970(5) 0.3488(7)
S6A S 0.6152(2) 0.1127(1) 0.7329(2)
Hg3A Hg -0.08681(3) -0.02978(2) -0.38808(3)
C1A C 0.0069(5) 0.1632(5) -0.1426(6)
S4A S 0.5201(2) -0.1741(1) 0.5172(2)
N1A N 0.4866(5) -0.2831(4) 0.2780(6)
Hg2A Hg 0.62938(2) -0.02549(2) 0.55948(3)
S3A S -0.2062(2) -0.0901(1) -0.2259(2)
S5A S -0.1492(2) 0.1115(1) -0.4864(2)
S8A S -0.0627(2) -0.2018(1) -0.3878(2)
N2A N 0.0109(5) 0.2468(4) -0.1803(5)
C5A C 0.4338(7) -0.3111(6) 0.1382(8)
C7A C 0.5648(8) -0.3577(6) 0.3359(9)
S2A S 0.6962(2) -0.0453(1) 0.3620(2)
S3A_2 S 0.7938(2) -0.0901(1) 0.7741(2)
Hg2A_2 Hg -0.37062(2) -0.02549(2) -0.44052(3)
C2A C -0.1432(6) -0.1993(5) -0.2814(7)
C3A C -0.2550(6) 0.0695(5) -0.6186(6)
C9A C 0.0721(7) 0.2556(6) -0.2744(8)
C11A C -0.0482(7) 0.3379(5) -0.1318(8)
C6A C 0.5030(9) -0.2901(8) 0.0557(9)
H1A H 0.3820(7) -0.3703(6) 0.0857(8)
H2A H 0.3842(7) -0.2474(6) 0.1657(8)
C8A C 0.5088(10) -0.4297(7) 0.3802(12)
H6A H 0.6383(8) -0.3915(6) 0.3116(9)
H7A H 0.5849(8) -0.2941(6) 0.4117(9)
C3A_2 C 0.7450(6) 0.0695(5) 0.3814(6)
N4A N -0.1506(5) -0.2802(4) -0.2423(6)
S2A_2 S -0.3038(2) -0.0453(1) -0.6380(2)
N3A N -0.2944(5) 0.1229(5) -0.7072(6)
C10A C 0.1932(8) 0.2717(6) -0.2073(10)
H11A H 0.0376(7) 0.3172(6) -0.3201(8)
H12A H 0.0650(7) 0.1900(6) -0.3482(8)
C12A C -0.1575(8) 0.3516(7) -0.2234(9)
H16A H -0.0591(7) 0.3336(5) -0.0376(8)
H17A H -0.0002(7) 0.3994(5) -0.1215(8)
H3A H 0.4509(9) -0.2706(8) -0.0333(9)
H4A H 0.5546(9) -0.2308(8) 0.1087(9)
H5A H 0.5531(9) -0.3545(8) 0.0319(9)
H8A H 0.5644(10) -0.4526(7) 0.4648(12)
H9A H 0.4355(10) -0.3962(7) 0.4055(12)
H10A H 0.4883(10) -0.4922(7) 0.3026(12)
C17A C -0.2129(8) -0.2831(7) -0.1458(9)
C19A C -0.0859(8) -0.3716(6) -0.2796(9)
C13A C -0.2503(8) 0.2172(7) -0.7003(10)
C15A C -0.3891(7) 0.0966(8) -0.8194(8)
H13A H 0.2351(8) 0.2778(6) -0.2793(10)
H14A H 0.2003(8) 0.3379(6) -0.1348(10)
H15A H 0.2292(8) 0.2109(6) -0.1605(10)
H18A H -0.1973(8) 0.418(57) -0.1852(9)
H19A H -0.1475(8) 0.3556(7) -0.3181(9)
H20A H -0.2066(8) 0.2911(7) -0.2328(9)
C18A C -0.3188(10) -0.3254(12) -0.2044(12)
H31A H -0.1656(8) -0.3264(7) -0.0761(9)
H32A H -0.2253(8) -0.2096(7) -0.0957(9)
C20A C -0.1443(11) -0.4298(8) -0.4104(12)
H36A H -0.0744(8) -0.4163(6) -0.2064(9)
H37A H -0.0075(8) -0.3527(6) -0.2845(9)
C14A C -0.3085(10) 0.3015(8) -0.6283(13)
H21A H -0.2593(8) 0.2285(7) -0.7985(10)
H22A H -0.1649(8) 0.2157(7) -0.6490(10)
C16A C -0.3534(9) 0.0444(11) -0.9369(9)
H26A H -0.4361(7) 0.1621(8) -0.8419(8)
H27A H -0.4391(7) 0.0500(8) -0.7942(8)
H33A H -0.3598(10) -0.3256(12) -0.1293(12)
H34A H -0.3673(10) -0.2823(12) -0.2735(12)
H35A H -0.3079(10) -0.3992(12) -0.2546(12)
H38A H -0.0958(11) -0.4952(8) -0.4348(12)
H39A H -0.2224(11) -0.4493(8) -0.4050(12)
H40A H -0.1566(11) -0.3861(8) -0.4848(12)
H23A H -0.2737(10) 0.3688(8) -0.6267(13)
H24A H -0.3941(10) 0.3040(8) -0.6787(13)
H25A H -0.2991(10) 0.2920(8) -0.5293(13)
H28A H -0.4244(9) 0.0262(11) -1.0171(9)
H29A H -0.3038(9) 0.0907(11) -0.9632(9)
H30A H -0.3065(9) -0.0216(11) -0.9159(9)
Cl1 Cl 0.2179(2) 0.5412(1) 0.8645(2)
O1 O 0.2114(6) 0.6454(4) 0.8959(7)
O2 O 0.3176(11) 0.4989(9) 0.9237(16)
O3 O 0.2064(18) 0.5062(13) 0.7312(13)
O4 O 0.1329(13) 0.5117(9) 0.9047(19)
loop_
_geom_bond_atom_site_label_1
_geom_bond_atom_site_label_2
_geom_bond_site_symmetry_1
_geom_bond_site_symmetry_2
Cl1 O1 1_555 1_555
O2 Cl1 1_555 1_555
O3 Cl1 1_555 1_555
O4 Cl1 1_555 1_555
Hg1 S1 1_555 1_555
Hg2 S2 1_555 1_555
Hg3 S1 1_555 1_555
S1 C1 1_555 1_555
S2 C3 1_555 1_555
S3 Hg2 1_555 1_555
S4 Hg2 1_555 1_555
S5 Hg3 1_555 1_555
S6 Hg2 1_555 1_555
S7 Hg1 1_555 1_555
S8 Hg3 1_555 1_555
C1 S7 1_555 1_555
C2 S3 1_555 1_555
C3 S5 1_555 1_555
C4 S4 1_555 1_555
N1 C4 1_555 1_555
C5 N1 1_555 1_555
C6 C5 1_555 1_555
C7 N1 1_555 1_555
C8 C7 1_555 1_555
N2 C1 1_555 1_555
C9 N2 1_555 1_555
C10 C9 1_555 1_555
C11 N2 1_555 1_555
C12 C11 1_555 1_555
N3 C3 1_555 1_555
C13 N3 1_555 1_555
C14 C13 1_555 1_555
C15 N3 1_555 1_555
C16 C15 1_555 1_555
N4 C2 1_555 1_555
C17 N4 1_555 1_555
C18 C17 1_555 1_555
C19 N4 1_555 1_555
C20 C19 1_555 1_555
H1 C5 1_555 1_555
H2 C5 1_555 1_555
H3 C6 1_555 1_555
H4 C6 1_555 1_555
H5 C6 1_555 1_555
H6 C7 1_555 1_555
H7 C7 1_555 1_555
H8 C8 1_555 1_555
H9 C8 1_555 1_555
H10 C8 1_555 1_555
H11 C9 1_555 1_555
H12 C9 1_555 1_555
H13 C10 1_555 1_555
H14 C10 1_555 1_555
H15 C10 1_555 1_555
H16 C11 1_555 1_555
H17 C11 1_555 1_555
H18 C12 1_555 1_555
H19 C12 1_555 1_555
H20 C12 1_555 1_555
H21 C13 1_555 1_555
H22 C13 1_555 1_555
H23 C14 1_555 1_555
H24 C14 1_555 1_555
H25 C14 1_555 1_555
H26 C15 1_555 1_555
H27 C15 1_555 1_555
H28 C16 1_555 1_555
H29 C16 1_555 1_555
H30 C16 1_555 1_555
H31 C17 1_555 1_555
H32 C17 1_555 1_555
H33 C18 1_555 1_555
H34 C18 1_555 1_555
H35 C18 1_555 1_555
H36 C19 1_555 1_555
H37 C19 1_555 1_555
H38 C20 1_555 1_555
H39 C20 1_555 1_555
H40 C20 1_555 1_555
S1A Hg1 1_555 1_555
S7A Hg1 1_555 1_555
C4A S6 1_555 1_555
S6A C4 1_555 1_555
Hg3A S1A 1_555 1_555
C1A S1A 1_555 1_555
S4A C4A 1_555 1_555
N1A C4A 1_555 1_555
Hg2A S6A 1_555 1_555
S3A Hg3A 1_555 1_555
S5A Hg3A 1_555 1_555
S8A Hg3A 1_555 1_555
N2A C1A 1_555 1_555
C5A N1A 1_555 1_555
C7A N1A 1_555 1_555
S2A Hg2A 1_555 1_555
S3A_2 Hg2A 1_555 1_555
Hg2A_2 S3A 1_555 1_555
C2A S3A 1_555 1_555
C3A S5A 1_555 1_555
C9A N2A 1_555 1_555
C11A N2A 1_555 1_555
C6A C5A 1_555 1_555
H1A C5A 1_555 1_555
H2A C5A 1_555 1_555
C8A C7A 1_555 1_555
H6A C7A 1_555 1_555
H7A C7A 1_555 1_555
C3A_2 S2A 1_555 1_555
N4A C2A 1_555 1_555
S2A_2 C3A 1_555 1_555
N3A C3A 1_555 1_555
C10A C9A 1_555 1_555
H11A C9A 1_555 1_555
H12A C9A 1_555 1_555
C12A C11A 1_555 1_555
H16A C11A 1_555 1_555
H17A C11A 1_555 1_555
H3A C6A 1_555 1_555
H4A C6A 1_555 1_555
H5A C6A 1_555 1_555
H8A C8A 1_555 1_555
H9A C8A 1_555 1_555
H10A C8A 1_555 1_555
C17A N4A 1_555 1_555
C19A N4A 1_555 1_555
C13A N3A 1_555 1_555
C15A N3A 1_555 1_555
H13A C10A 1_555 1_555
H14A C10A 1_555 1_555
H15A C10A 1_555 1_555
H18A C12A 1_555 1_555
H19A C12A 1_555 1_555
H20A C12A 1_555 1_555
C18A C17A 1_555 1_555
H31A C17A 1_555 1_555
H32A C17A 1_555 1_555
C20A C19A 1_555 1_555
H36A C19A 1_555 1_555
H37A C19A 1_555 1_555
C14A C13A 1_555 1_555
H21A C13A 1_555 1_555
H22A C13A 1_555 1_555
C16A C15A 1_555 1_555
H26A C15A 1_555 1_555
H27A C15A 1_555 1_555
H33A C18A 1_555 1_555
H34A C18A 1_555 1_555
H35A C18A 1_555 1_555
H38A C20A 1_555 1_555
H39A C20A 1_555 1_555
H40A C20A 1_555 1_555
H23A C14A 1_555 1_555
H24A C14A 1_555 1_555
H25A C14A 1_555 1_555
H28A C16A 1_555 1_555
H29A C16A 1_555 1_555
H30A C16A 1_555 1_555
Hg3 S3 1_555 1_555
S8 C2 1_555 1_555
S7A C1A 1_555 1_555
S4A Hg2A 1_555 1_555
S8A C2A 1_555 1_555

#END
