
#######################################################################
#
#                 Cambridge Crystallographic Data Centre
#                                CCDC 
#
#######################################################################
#
# If this CIF has been generated from an entry in the Cambridge 
# Structural Database, then it will include bibliographic, chemical, 
# crystal, experimental, refinement or atomic coordinate data resulting 
# from the CCDC's data processing and validation procedures.
#
#######################################################################

data_FIDSUG
_symmetry_cell_setting           triclinic
_symmetry_space_group_name_H-M   'P -1'
_symmetry_Int_Tables_number      2
_space_group_name_Hall           '-P 1'
loop_
_symmetry_equiv_pos_site_id
_symmetry_equiv_pos_as_xyz
1 x,y,z
2 -x,-y,-z
_cell_length_a                   8.955(6)
_cell_length_b                   15.915(7)
_cell_length_c                   10.29(4)
_cell_angle_alpha                79.20(3)
_cell_angle_beta                 68.24(2)
_cell_angle_gamma                76.44(3)
_cell_volume                     1315.83
loop_
_atom_site_label
_atom_site_type_symbol
_atom_site_fract_x
_atom_site_fract_y
_atom_site_fract_z
Cu1 Cu 1.0000 0.0000 0.0000
O1 O 0.7893(5) 0.0536(3) 0.1263(4)
O2 O 1.0528(5) -0.0754(3) 0.1537(4)
C1 C 0.7494(7) 0.0427(4) 0.2580(6)
C2 C 0.5853(10) 0.1011(5) 0.3302(8)
C3 C 0.8271(8) -0.0138(5) 0.3392(7)
C4 C 0.9703(8) -0.0695(4) 0.2814(7)
C5 C 1.0395(15) -0.1301(9) 0.3837(11)
F1 F 0.4626(5) 0.0728(3) 0.3221(5)
F2 F 0.5764(6) 0.1809(3) 0.2709(5)
F3 F 0.5556(6) 0.0996(4) 0.4656(5)
F4 F 1.1756(12) -0.1289(11) 0.3717(12)
F5 F 0.9591(10) -0.1371(7) 0.5057(7)
F6 F 1.0714(23) -0.2070(6) 0.3502(13)
Cu2 Cu 1.0000 0.5000 0.0000
O3 O 0.8688(5) 0.4325(3) 0.1588(5)
O4 O 1.1784(5) 0.4724(3) 0.0735(5)
C6 C 0.8933(8) 0.4117(4) 0.2731(7)
C7 C 0.7577(13) 0.3743(8) 0.3893(10)
C8 C 1.0280(9) 0.4170(5) 0.3034(7)
C9 C 1.1606(8) 0.4453(4) 0.1996(8)
C10 C 1.3075(13) 0.4477(9) 0.2405(12)
F7 F 0.7433(13) 0.3027(6) 0.3660(8)
F8 F 0.6190(8) 0.4247(7) 0.4050(8)
F9 F 0.7682(7) 0.3600(5) 0.5114(6)
F10 F 1.2932(9) 0.4239(7) 0.3644(8)
F11 F 1.3533(11) 0.5191(6) 0.2051(10)
F12 F 1.4357(9) 0.3953(7) 0.1666(10)
O5 O 1.1037(6) 0.1079(3) 0.0488(5)
O6 O 1.0969(6) 0.3886(3) -0.1597(5)
N1 N 1.1522(7) 0.1773(3) -0.0244(6)
N2 N 1.1500(6) 0.3098(3) -0.1212(5)
C11 C 1.0568(8) 0.2512(4) -0.0493(7)
C12 C 0.8764(8) 0.2670(5) -0.0043(9)
C13 C 1.3271(8) 0.2702(4) -0.1744(8)
C14 C 1.4302(9) 0.3334(5) -0.1714(9)
C15 C 1.3651(10) 0.2541(6) -0.3265(8)
C16 C 1.3270(9) 0.1877(5) -0.0720(9)
C17 C 1.3501(15) 0.1999(7) 0.0628(12)
C18 C 1.4373(10) 0.1065(5) -0.1342(13)
O1A O 1.2107(5) -0.0536(3) -0.1263(4)
O2A O 0.9472(5) 0.0754(3) -0.1537(4)
O5A O 0.8963(6) -0.1079(3) -0.0488(5)
O3A O 1.1312(5) 0.5675(3) -0.1588(5)
O4A O 0.8216(5) 0.5276(3) -0.0735(5)
O6A O 0.9031(6) 0.6114(3) 0.1597(5)
C4A C 1.0297(8) 0.0695(4) -0.2814(7)
C1A C 1.2506(7) -0.0427(4) -0.2580(6)
C3A C 1.1729(8) 0.0138(5) -0.3392(7)
C5A C 0.9605(15) 0.1301(9) -0.3837(11)
C2A C 1.4147(10) -0.1011(5) -0.3302(8)
F4A F 0.8244(12) 0.1289(11) -0.3717(12)
F5A F 1.0409(10) 0.1371(7) -0.5057(7)
F6A F 0.9286(23) 0.2070(6) -0.3502(13)
F1A F 1.5374(5) -0.0728(3) -0.3221(5)
F2A F 1.4236(6) -0.1809(3) -0.2709(5)
F3A F 1.4444(6) -0.0996(4) -0.4656(5)
C9A C 0.8394(8) 0.5547(4) -0.1996(8)
C6A C 1.1067(8) 0.5883(4) -0.2731(7)
C8A C 0.9720(9) 0.5830(5) -0.3034(7)
C10A C 0.6925(13) 0.5523(9) -0.2405(12)
C7A C 1.2423(13) 0.6257(8) -0.3893(10)
F10A F 0.7068(9) 0.5761(7) -0.3644(8)
F11A F 0.6467(11) 0.4809(6) -0.2051(10)
F12A F 0.5643(9) 0.6047(7) -0.1666(10)
F7A F 1.2567(13) 0.6973(6) -0.3660(8)
F8A F 1.3810(8) 0.5753(7) -0.4050(8)
F9A F 1.2318(7) 0.6400(5) -0.5114(6)
N1A N 0.8478(7) -0.1773(3) 0.0244(6)
C11A C 0.9432(8) -0.2512(4) 0.0493(7)
C16A C 0.6730(9) -0.1877(5) 0.0720(9)
N2A N 0.8500(6) -0.3098(3) 0.1212(5)
C12A C 1.1236(8) -0.2670(5) 0.0043(9)
C13A C 0.6729(8) -0.2702(4) 0.1744(8)
C17A C 0.6499(15) -0.1999(7) -0.0628(12)
C18A C 0.5627(10) -0.1065(5) 0.1342(13)
O6A_2 O 0.9031(6) -0.3886(3) 0.1597(5)
C14A C 0.5698(9) -0.3334(5) 0.1714(9)
C15A C 0.6349(10) -0.2541(6) 0.3265(8)
Cu2_2 Cu 1.0000 -0.5000 0.0000
loop_
_geom_bond_atom_site_label_1
_geom_bond_atom_site_label_2
_geom_bond_site_symmetry_1
_geom_bond_site_symmetry_2
Cu1 O1 1_555 1_555
O1 C1 1_555 1_555
O2 Cu1 1_555 1_555
C1 C2 1_555 1_555
C2 F1 1_555 1_555
C3 C1 1_555 1_555
C4 O2 1_555 1_555
C5 C4 1_555 1_555
F2 C2 1_555 1_555
F3 C2 1_555 1_555
F4 C5 1_555 1_555
F5 C5 1_555 1_555
F6 C5 1_555 1_555
Cu2 O3 1_555 1_555
O3 C6 1_555 1_555
O4 Cu2 1_555 1_555
C6 C7 1_555 1_555
C7 F7 1_555 1_555
C8 C6 1_555 1_555
C9 O4 1_555 1_555
C10 C9 1_555 1_555
F8 C7 1_555 1_555
F9 C7 1_555 1_555
F10 C10 1_555 1_555
F11 C10 1_555 1_555
F12 C10 1_555 1_555
O5 Cu1 1_555 1_555
O6 Cu2 1_555 1_555
N1 O5 1_555 1_555
N2 O6 1_555 1_555
C11 N1 1_555 1_555
C12 C11 1_555 1_555
C13 N2 1_555 1_555
C14 C13 1_555 1_555
C15 C13 1_555 1_555
C16 N1 1_555 1_555
C17 C16 1_555 1_555
C18 C16 1_555 1_555
O1A Cu1 1_555 1_555
O2A Cu1 1_555 1_555
O5A Cu1 1_555 1_555
O3A Cu2 1_555 1_555
O4A Cu2 1_555 1_555
O6A Cu2 1_555 1_555
C4A O2A 1_555 1_555
C1A O1A 1_555 1_555
C3A C4A 1_555 1_555
C5A C4A 1_555 1_555
C2A C1A 1_555 1_555
F4A C5A 1_555 1_555
F5A C5A 1_555 1_555
F6A C5A 1_555 1_555
F1A C2A 1_555 1_555
F2A C2A 1_555 1_555
F3A C2A 1_555 1_555
C9A O4A 1_555 1_555
C6A O3A 1_555 1_555
C8A C9A 1_555 1_555
C10A C9A 1_555 1_555
C7A C6A 1_555 1_555
F10A C10A 1_555 1_555
F11A C10A 1_555 1_555
F12A C10A 1_555 1_555
F7A C7A 1_555 1_555
F8A C7A 1_555 1_555
F9A C7A 1_555 1_555
N1A O5A 1_555 1_555
C11A N1A 1_555 1_555
C16A N1A 1_555 1_555
N2A C11A 1_555 1_555
C12A C11A 1_555 1_555
C13A C16A 1_555 1_555
C17A C16A 1_555 1_555
C18A C16A 1_555 1_555
O6A_2 N2A 1_555 1_555
C14A C13A 1_555 1_555
C15A C13A 1_555 1_555
Cu2_2 O6A_2 1_555 1_555
C3 C4 1_555 1_555
C8 C9 1_555 1_555
N2 C11 1_555 1_555
C13 C16 1_555 1_555
C1A C3A 1_555 1_555
C6A C8A 1_555 1_555
N2A C13A 1_555 1_555

#END
