
#######################################################################
#
#                 Cambridge Crystallographic Data Centre
#                                CCDC 
#
#######################################################################
#
# If this CIF has been generated from an entry in the Cambridge 
# Structural Database, then it will include bibliographic, chemical, 
# crystal, experimental, refinement or atomic coordinate data resulting 
# from the CCDC's data processing and validation procedures.
#
#######################################################################

data_FIDTUJ
_symmetry_cell_setting           monoclinic
_symmetry_space_group_name_H-M   'P 21/c'
_symmetry_Int_Tables_number      14
_space_group_name_Hall           '-P 2ybc'
loop_
_symmetry_equiv_pos_site_id
_symmetry_equiv_pos_as_xyz
1 x,y,z
2 -x,1/2+y,1/2-z
3 -x,-y,-z
4 x,1/2-y,1/2+z
_cell_length_a                   16.258(2)
_cell_length_b                   9.5904(11)
_cell_length_c                   18.920(2)
_cell_angle_alpha                90
_cell_angle_beta                 102.346(2)
_cell_angle_gamma                90
_cell_volume                     2881.8
loop_
_atom_site_label
_atom_site_type_symbol
_atom_site_fract_x
_atom_site_fract_y
_atom_site_fract_z
C1 C 0.0891(2) 0.2677(4) 0.2711(2)
H1 H 0.1166 0.2104 0.3084
C2 C 0.0024(3) 0.2669(5) 0.2530(3)
H2 H -0.0279 0.2106 0.2783
C3 C -0.0392(2) 0.3490(4) 0.1976(2)
H3 H -0.0977 0.3481 0.1846
C4 C 0.00693(19) 0.4333(3) 0.16128(17)
C5 C 0.09383(19) 0.4293(3) 0.18286(17)
H4 H 0.1254 0.4858 0.1587
C6 C -0.0032(2) 0.6166(3) 0.06710(18)
C7 C -0.0681(2) 0.6886(3) 0.00980(18)
H5 H -0.1126 0.7239 0.0318
H6 H -0.0929 0.6208 -0.0266
C8 C -0.0325(2) 0.8088(3) -0.02704(18)
H7 H 0.0196 0.7789 -0.0395
H8 H -0.0720 0.8316 -0.0717
C9 C -0.0154(2) 0.9395(3) 0.01950(18)
H9 H -0.0668 0.9669 0.0341
H10 H 0.0264 0.9184 0.0629
C10 C 0.5263(2) -0.4385(3) 0.4926(2)
H11 H 0.5648 -0.4696 0.4631
H12 H 0.5597 -0.4049 0.5381
C11 C 0.4733(2) -0.3186(3) 0.4541(2)
H13 H 0.4390 -0.3522 0.4089
H14 H 0.4357 -0.2856 0.4840
C12 C 0.5275(2) -0.1987(3) 0.4386(2)
H15 H 0.5636 -0.2316 0.4074
H16 H 0.5634 -0.1683 0.4837
C13 C 0.4767(2) -0.0749(4) 0.4028(2)
C14 C 0.4123(2) 0.1939(3) 0.32837(17)
H17 H 0.3715 0.1298 0.3346
C15 C 0.49651(19) 0.1609(3) 0.35401(17)
C16 C 0.5562(2) 0.2574(4) 0.3445(2)
H18 H 0.6132 0.2392 0.3615
C17 C 0.5305(2) 0.3815(4) 0.3095(2)
H19 H 0.5700 0.4469 0.3020
C18 C 0.4462(2) 0.4067(4) 0.28597(19)
H20 H 0.4291 0.4908 0.2630
C19 C 0.25719(18) 0.1173(3) 0.03713(16)
H21 H 0.2703 0.2118 0.0383
C20 C 0.25015(18) 0.0443(3) -0.02731(16)
C21 C 0.2316(2) -0.0976(3) -0.02829(18)
H22 H 0.2282 -0.1488 -0.0706
C22 C 0.2181(2) -0.1624(3) 0.03344(18)
H23 H 0.2048 -0.2568 0.0323
C23 C 0.2242(2) -0.0880(3) 0.09651(18)
H24 H 0.2142 -0.1324 0.1376
C24 C 0.24527(18) 0.0532(3) 0.09961(16)
C25 C 0.25104(19) 0.1332(3) 0.16844(16)
C26 C 0.25910(19) 0.1190(3) -0.09449(17)
N1 N 0.13468(16) 0.3484(3) 0.23663(13)
N2 N 0.38750(16) 0.3149(3) 0.29489(13)
N3 N -0.03635(16) 0.5171(3) 0.10482(14)
H25 H -0.0899 0.5046 0.0924
N4 N 0.52397(16) 0.0343(3) 0.38904(15)
H26 H 0.5775 0.0251 0.4036
O1 O 0.26323(13) 0.2660(2) 0.16617(11)
O2 O 0.27844(15) 0.5751(2) 0.21746(13)
H27 H 0.2761 0.6349 0.2501
H28 H 0.2392 0.5906 0.1807
O3 O 0.24419(16) 0.0739(2) 0.22500(12)
O4 O 0.26095(14) 0.0443(2) -0.14937(11)
O5 O 0.26256(16) 0.2491(2) -0.09509(12)
O6 O 0.07130(14) 0.6426(2) 0.07901(14)
O7 O 0.40002(16) -0.0731(3) 0.38878(18)
Cu1 Cu 0.26215(2) 0.35270(4) 0.261831(19)
C1B C -0.0891(2) 1.7323(4) -0.2711(2)
H1B H -0.1166 1.7896 -0.3084
C2B C -0.0024(3) 1.7331(5) -0.2530(3)
H2B H 0.0279 1.7894 -0.2783
C3B C 0.0392(2) 1.6510(4) -0.1976(2)
H3B H 0.0977 1.6519 -0.1846
C4B C -0.00693(19) 1.5667(3) -0.16128(17)
C5B C -0.09383(19) 1.5707(3) -0.18286(17)
H4B H -0.1254 1.5142 -0.1587
C6B C 0.0032(2) 1.3834(3) -0.06710(18)
C7B C 0.0681(2) 1.3114(3) -0.00980(18)
H5B H 0.1126 1.2761 -0.0318
H6B H 0.0929 1.3792 0.0266
C8B C 0.0325(2) 1.1912(3) 0.02704(18)
H7B H -0.0196 1.2211 0.0395
H8B H 0.0720 1.1684 0.0717
C9B C 0.0154(2) 1.0605(3) -0.01950(18)
H9B H 0.0668 1.0331 -0.0341
H10B H -0.0264 1.0816 -0.0629
N1B N -0.13468(16) 1.6516(3) -0.23663(13)
N3B N 0.03635(16) 1.4829(3) -0.10482(14)
H25B H 0.0899 1.4954 -0.0924
O6B O -0.07130(14) 1.3574(2) -0.07901(14)
C10B C 0.4737(2) -0.5615(3) 0.5074(2)
H11B H 0.4352 -0.5304 0.5369
H12B H 0.4403 -0.5951 0.4619
C11B C 0.5267(2) -0.6814(3) 0.5459(2)
H13B H 0.5610 -0.6478 0.5911
H14B H 0.5643 -0.7144 0.5160
C12B C 0.4725(2) -0.8013(3) 0.5614(2)
H15B H 0.4364 -0.7684 0.5926
H16B H 0.4366 -0.8317 0.5163
C13B C 0.5233(2) -0.9251(4) 0.5972(2)
C14B C 0.5877(2) -1.1939(3) 0.67163(17)
H17B H 0.6285 -1.1298 0.6654
C15B C 0.50349(19) -1.1609(3) 0.64599(17)
C16B C 0.4438(2) -1.2574(4) 0.6555(2)
H18B H 0.3868 -1.2392 0.6385
C17B C 0.4695(2) -1.3815(4) 0.6905(2)
H19B H 0.4300 -1.4469 0.6980
C18B C 0.5538(2) -1.4067(4) 0.71403(19)
H20B H 0.5709 -1.4908 0.7370
N2B N 0.61250(16) -1.3149(3) 0.70511(13)
N4B N 0.47603(16) -1.0343(3) 0.61096(15)
H26B H 0.4225 -1.0251 0.5964
O7B O 0.59998(16) -0.9269(3) 0.61122(18)
C19B C -0.25719(18) 1.8827(3) -0.03713(16)
H21B H -0.2703 1.7882 -0.0383
C20B C -0.25015(18) 1.9557(3) 0.02731(16)
C21B C -0.2316(2) 2.0976(3) 0.02829(18)
H22B H -0.2282 2.1488 0.0706
C22B C -0.2181(2) 2.1624(3) -0.03344(18)
H23B H -0.2048 2.2568 -0.0323
C23B C -0.2242(2) 2.0880(3) -0.09651(18)
H24B H -0.2142 2.1324 -0.1376
C24B C -0.24527(18) 1.9468(3) -0.09961(16)
C25B C -0.25104(19) 1.8668(3) -0.16844(16)
C26B C -0.25910(19) 1.8810(3) 0.09449(17)
O1B O -0.26323(13) 1.7340(2) -0.16617(11)
O2B O -0.27844(15) 1.4249(2) -0.21746(13)
H27B H -0.2761 1.3651 -0.2501
H28B H -0.2392 1.4094 -0.1807
O3B O -0.24419(16) 1.9261(2) -0.22500(12)
O4B O -0.26095(14) 1.9557(2) 0.14937(11)
O5B O -0.26256(16) 1.7509(2) 0.09509(12)
Cu1B Cu -0.26215(2) 1.64730(4) -0.261831(19)
N2B_2 N -0.38750(16) 1.6851(3) -0.29489(13)
O4A O -0.26095(14) 1.5443(2) -0.35063(11)
O4C O 0.26095(14) 0.4557(2) 0.35063(11)
Cu1A Cu -0.26215(2) 1.85270(4) 0.238169(19)
Cu1B_2 Cu 0.73785(2) -1.35270(4) 0.738169(19)
Cu1C Cu 0.26215(2) 0.14730(4) -0.238169(19)
O8 O 0.29465(14) 0.4956(2) 0.08107(12)
H29 H 0.2706 0.5006 0.0366
H30 H 0.2810 0.4196 0.0987
O9 O 0.22241(14) -0.0088(2) 0.43218(13)
H31 H 0.2444 -0.0623 0.4055
H32 H 0.2356 0.0753 0.4255
O10 O 0.25613(17) -0.1805(3) 0.29639(16)
H33 H 0.3071 -0.1802 0.3194
H34 H 0.2467 -0.1082 0.2699
loop_
_geom_bond_atom_site_label_1
_geom_bond_atom_site_label_2
_geom_bond_site_symmetry_1
_geom_bond_site_symmetry_2
C1 H1 1_555 1_555
C2 C1 1_555 1_555
H2 C2 1_555 1_555
C3 C2 1_555 1_555
H3 C3 1_555 1_555
C4 C3 1_555 1_555
C5 C4 1_555 1_555
H4 C5 1_555 1_555
C6 C7 1_555 1_555
C7 H5 1_555 1_555
H6 C7 1_555 1_555
C8 C7 1_555 1_555
H7 C8 1_555 1_555
H8 C8 1_555 1_555
C9 C8 1_555 1_555
H9 C9 1_555 1_555
H10 C9 1_555 1_555
C10 H11 1_555 1_555
H12 C10 1_555 1_555
C11 C10 1_555 1_555
H13 C11 1_555 1_555
H14 C11 1_555 1_555
C12 C11 1_555 1_555
H15 C12 1_555 1_555
H16 C12 1_555 1_555
C13 C12 1_555 1_555
C14 H17 1_555 1_555
C15 C14 1_555 1_555
C16 C15 1_555 1_555
H18 C16 1_555 1_555
C17 C16 1_555 1_555
H19 C17 1_555 1_555
C18 C17 1_555 1_555
H20 C18 1_555 1_555
C19 H21 1_555 1_555
C20 C19 1_555 1_555
C21 C20 1_555 1_555
H22 C21 1_555 1_555
C22 C21 1_555 1_555
H23 C22 1_555 1_555
C23 C22 1_555 1_555
H24 C23 1_555 1_555
C24 C19 1_555 1_555
C25 C24 1_555 1_555
C26 C20 1_555 1_555
N1 C1 1_555 1_555
N2 C14 1_555 1_555
N3 C4 1_555 1_555
H25 N3 1_555 1_555
N4 C13 1_555 1_555
H26 N4 1_555 1_555
O1 C25 1_555 1_555
O2 H27 1_555 1_555
H28 O2 1_555 1_555
O3 C25 1_555 1_555
O4 C26 1_555 1_555
O5 C26 1_555 1_555
O6 C6 1_555 1_555
O7 C13 1_555 1_555
Cu1 N1 1_555 1_555
O8 H29 1_555 1_555
H30 O8 1_555 1_555
O9 H31 1_555 1_555
H32 O9 1_555 1_555
O10 H33 1_555 1_555
H34 O10 1_555 1_555
C1B H1B 1_555 1_555
C2B C1B 1_555 1_555
H2B C2B 1_555 1_555
C3B C2B 1_555 1_555
H3B C3B 1_555 1_555
C4B C3B 1_555 1_555
C5B C4B 1_555 1_555
H4B C5B 1_555 1_555
C6B C7B 1_555 1_555
C7B H5B 1_555 1_555
H6B C7B 1_555 1_555
C8B C7B 1_555 1_555
H7B C8B 1_555 1_555
H8B C8B 1_555 1_555
C9B C9 1_555 1_555
H9B C9B 1_555 1_555
H10B C9B 1_555 1_555
N1B C1B 1_555 1_555
N3B C4B 1_555 1_555
H25B N3B 1_555 1_555
O6B C6B 1_555 1_555
C10B C10 1_555 1_555
H11B C10B 1_555 1_555
H12B C10B 1_555 1_555
C11B C10B 1_555 1_555
H13B C11B 1_555 1_555
H14B C11B 1_555 1_555
C12B C11B 1_555 1_555
H15B C12B 1_555 1_555
H16B C12B 1_555 1_555
C13B C12B 1_555 1_555
C14B H17B 1_555 1_555
C15B C14B 1_555 1_555
C16B C15B 1_555 1_555
H18B C16B 1_555 1_555
C17B C16B 1_555 1_555
H19B C17B 1_555 1_555
C18B C17B 1_555 1_555
H20B C18B 1_555 1_555
N2B C14B 1_555 1_555
N4B C13B 1_555 1_555
H26B N4B 1_555 1_555
O7B C13B 1_555 1_555
C19B H21B 1_555 1_555
C20B C19B 1_555 1_555
C21B C20B 1_555 1_555
H22B C21B 1_555 1_555
C22B C21B 1_555 1_555
H23B C22B 1_555 1_555
C23B C22B 1_555 1_555
H24B C23B 1_555 1_555
C24B C19B 1_555 1_555
C25B C24B 1_555 1_555
C26B C20B 1_555 1_555
O1B C25B 1_555 1_555
O2B H27B 1_555 1_555
H28B O2B 1_555 1_555
O3B C25B 1_555 1_555
O4B C26B 1_555 1_555
O5B C26B 1_555 1_555
Cu1B N1B 1_555 1_555
N2B_2 Cu1B 1_555 1_555
O4A Cu1B 1_555 1_555
O4C Cu1 1_555 1_555
Cu1A O4B 1_555 1_555
Cu1B_2 N2B 1_555 1_555
Cu1C O4 1_555 1_555
C5 N1 1_555 1_555
C6 N3 1_555 1_555
C15 N4 1_555 1_555
C18 N2 1_555 1_555
C23 C24 1_555 1_555
N2 Cu1 1_555 1_555
O1 Cu1 1_555 1_555
O2 Cu1 1_555 1_555
O3 Cu1 1_555 1_555
C5B N1B 1_555 1_555
C6B N3B 1_555 1_555
C8B C9B 1_555 1_555
C15B N4B 1_555 1_555
C18B N2B 1_555 1_555
C23B C24B 1_555 1_555
O1B Cu1B 1_555 1_555
O2B Cu1B 1_555 1_555
O3B Cu1B 1_555 1_555

#END
