
#######################################################################
#
#                 Cambridge Crystallographic Data Centre
#                                CCDC 
#
#######################################################################
#
# If this CIF has been generated from an entry in the Cambridge 
# Structural Database, then it will include bibliographic, chemical, 
# crystal, experimental, refinement or atomic coordinate data resulting 
# from the CCDC's data processing and validation procedures.
#
#######################################################################

data_FIDTIX
_symmetry_cell_setting           monoclinic
_symmetry_space_group_name_H-M   'C 2/c'
_symmetry_Int_Tables_number      15
_space_group_name_Hall           '-C 2yn'
loop_
_symmetry_equiv_pos_site_id
_symmetry_equiv_pos_as_xyz
1 x,y,z
2 -x,y,1/2-z
3 1/2+x,1/2+y,z
4 1/2-x,1/2+y,1/2-z
5 -x,-y,-z
6 x,-y,1/2+z
7 1/2-x,1/2-y,-z
8 1/2+x,1/2-y,1/2+z
_cell_length_a                   12.5972(3)
_cell_length_b                   10.0305(3)
_cell_length_c                   13.8663(4)
_cell_angle_alpha                90
_cell_angle_beta                 94.4830(10)
_cell_angle_gamma                90
_cell_volume                     1746.73
loop_
_atom_site_label
_atom_site_type_symbol
_atom_site_fract_x
_atom_site_fract_y
_atom_site_fract_z
Mg1 Mg 0.76563(3) 0.17734(4) 0.60745(3)
O1 O 0.85118(9) 0.15457(11) 0.73487(7)
O2 O 0.81386(8) 0.65720(9) 1.03509(7)
O3 O 0.65543(9) 0.29240(12) 0.66715(8)
O4 O 0.88240(9) 0.05495(13) 0.55720(8)
O5 O 0.90101(8) 0.05010(9) 0.87264(7)
O6 O 0.87558(10) 0.50826(11) 1.14414(7)
C1 C 0.88363(12) 0.31283(14) 0.97444(9)
N1 N 0.84163(10) 0.39399(11) 0.82947(8)
N2 N 0.83514(9) 0.49740(11) 0.88895(8)
C2 C 0.87445(10) 0.15207(13) 0.82368(9)
C3 C 0.85120(10) 0.54291(13) 1.06005(9)
C4 C 0.86076(10) 0.44896(13) 0.97796(9)
C5 C 0.87011(10) 0.28056(12) 0.87718(9)
H1 H 0.8336(16) 0.408(2) 0.7646(15)
H2 H 0.940(2) 0.046(2) 0.586(2)
H3 H 0.9038(15) 0.256(2) 1.0251(15)
H4 H 0.8850(18) 0.026(2) 0.5029(19)
H5 H 0.6000(18) 0.262(2) 0.6931(17)
H6 H 0.6420(16) 0.373(2) 0.6628(15)
Mg1C Mg 0.73437(3) 0.67734(4) 0.89255(3)
Mg1E Mg 0.76563(3) 0.82266(4) 1.10745(3)
O2C O 0.68614(8) 0.15720(9) 0.46491(7)
O2E O 0.81386(8) 0.34280(9) 0.53509(7)
N2C N 0.66486(9) -0.00260(11) 0.61105(8)
O7 O 0.5000 0.16452(15) 0.7500
H7 H 0.4659(19) 0.111(3) 0.7059(18)
H7A H 0.5341(19) 0.111(3) 0.7941(18)
loop_
_geom_bond_atom_site_label_1
_geom_bond_atom_site_label_2
_geom_bond_site_symmetry_1
_geom_bond_site_symmetry_2
Mg1 O1 1_555 1_555
O1 C2 1_555 1_555
O2 C3 1_555 1_555
O3 Mg1 1_555 1_555
O4 Mg1 1_555 1_555
O5 C2 1_555 1_555
O6 C3 1_555 1_555
C1 C4 1_555 1_555
N1 N2 1_555 1_555
N2 C4 1_555 1_555
C2 C5 1_555 1_555
C3 C4 1_555 1_555
C5 C1 1_555 1_555
H1 N1 1_555 1_555
H2 O4 1_555 1_555
H3 C1 1_555 1_555
H4 O4 1_555 1_555
H5 O3 1_555 1_555
H6 O3 1_555 1_555
O7 H7 1_555 1_555
Mg1C O2 1_555 1_555
Mg1E O2 1_555 1_555
O2C Mg1 1_555 1_555
O2E Mg1 1_555 1_555
N2C Mg1 1_555 1_555
H7A O7 1_555 1_555
N1 C5 1_555 1_555
N2 Mg1C 1_555 1_555

#END
