
#######################################################################
#
#                 Cambridge Crystallographic Data Centre
#                                CCDC 
#
#######################################################################
#
# If this CIF has been generated from an entry in the Cambridge 
# Structural Database, then it will include bibliographic, chemical, 
# crystal, experimental, refinement or atomic coordinate data resulting 
# from the CCDC's data processing and validation procedures.
#
#######################################################################

data_FIDWIY
_symmetry_cell_setting           monoclinic
_symmetry_space_group_name_H-M   'C c'
_symmetry_Int_Tables_number      9
_space_group_name_Hall           'C -2yc'
loop_
_symmetry_equiv_pos_site_id
_symmetry_equiv_pos_as_xyz
1 x,y,z
2 1/2+x,1/2+y,z
3 x,-y,1/2+z
4 1/2+x,1/2-y,1/2+z
_cell_length_a                   16.8292(8)
_cell_length_b                   17.4783(10)
_cell_length_c                   8.2787(4)
_cell_angle_alpha                90
_cell_angle_beta                 104.494(6)
_cell_angle_gamma                90
_cell_volume                     2357.64
loop_
_atom_site_label
_atom_site_type_symbol
_atom_site_fract_x
_atom_site_fract_y
_atom_site_fract_z
Li1 Li 0.5000 0.0511(3) 0.5000
Li2 Li 0.6126(3) -0.0637(3) 0.7353(6)
N1 N 0.4896(2) 0.1576(1) 0.5950(3)
C1 C 0.4659(2) 0.2191(2) 0.5046(4)
C2 C 0.4604(2) 0.2903(2) 0.5699(5)
C3 C 0.4819(2) 0.2984(2) 0.7393(5)
C4 C 0.5076(2) 0.2355(2) 0.8354(5)
C5 C 0.5103(2) 0.1665(2) 0.7597(4)
N2 N 0.6615(2) -0.1700(1) 0.7076(3)
C6 C 0.7179(2) -0.1771(2) 0.6213(4)
C7 C 0.7532(2) -0.2460(3) 0.6037(5)
C8 C 0.7311(3) -0.3097(3) 0.6738(6)
C9 C 0.6736(3) -0.3040(2) 0.7605(5)
C10 C 0.6403(2) -0.2336(2) 0.7755(4)
S1 S 0.6490(1) 0.0230(1) 0.5283(1)
C11 C 0.7062(2) 0.0991(2) 0.6609(4)
C12 C 0.7964(2) 0.0918(2) 0.6866(3)
C13 C 0.8406(2) 0.1400(2) 0.6084(4)
C14 C 0.9248(2) 0.1315(2) 0.6338(4)
C15 C 0.9650(2) 0.0755(2) 0.7350(5)
C16 C 0.9234(2) 0.0278(2) 0.8153(5)
C17 C 0.8399(2) 0.0360(2) 0.7904(4)
S2 S 0.4620(1) -0.0422(1) 0.6924(1)
C18 C 0.3840(2) -0.1024(2) 0.5619(4)
C19 C 0.3001(2) -0.0908(2) 0.5910(3)
C20 C 0.2538(2) -0.0276(2) 0.5273(4)
C21 C 0.1758(2) -0.0179(2) 0.5486(5)
C22 C 0.1426(2) -0.0714(2) 0.6342(4)
C23 C 0.1887(2) -0.1344(2) 0.7001(4)
C24 C 0.2667(2) -0.1436(2) 0.6788(4)
H1 H 0.4516 0.2138 0.3854
H2 H 0.4419 0.3333 0.4984
H3 H 0.4790 0.3474 0.7897
H4 H 0.5235 0.2397 0.9548
H5 H 0.5279 0.1224 0.8285
H6 H 0.7344 -0.1326 0.5699
H7 H 0.7940 -0.2492 0.5411
H8 H 0.7559 -0.3581 0.6619
H9 H 0.6563 -0.3484 0.8108
H10 H 0.5996 -0.2298 0.8382
H11 H 0.6935 0.0971 0.7677
H12 H 0.6892 0.1476 0.6091
H13 H 0.8127 0.1796 0.5359
H14 H 0.9546 0.1655 0.5794
H15 H 1.0231 0.0694 0.7504
H16 H 0.9522 -0.0112 0.8887
H17 H 0.8110 0.0020 0.8467
H18 H 0.3995 -0.1549 0.5847
H19 H 0.3814 -0.0911 0.4472
H20 H 0.2762 0.0102 0.4670
H21 H 0.1444 0.0265 0.5034
H22 H 0.0880 -0.0650 0.6479
H23 H 0.1663 -0.1720 0.7610
H24 H 0.2983 -0.1876 0.7258
S2B S 0.4620(1) 0.0422(1) 0.1924(1)
Li2B Li 0.6126(3) 0.0637(3) 0.2353(6)
S1B S 0.6490(1) -0.0230(1) 1.0283(1)
Li1B Li 0.5000 -0.0511(3) 1.0000
Li1B_2 Li 0.5000 -0.0511(3) 0.0000
C18B C 0.3840(2) 0.1024(2) 0.0619(4)
N2B N 0.6615(2) 0.1700(1) 0.2076(3)
S1B_2 S 0.6490(1) -0.0230(1) 0.0283(1)
Li2B_2 Li 0.6126(3) 0.0637(3) 1.2353(6)
C11B C 0.7062(2) -0.0991(2) 1.1609(4)
N1B N 0.4896(2) -0.1576(1) 1.0950(3)
S2B_2 S 0.4620(1) 0.0422(1) 1.1924(1)
C19B C 0.3001(2) 0.0908(2) 0.0910(3)
H18B H 0.3995 0.1549 0.0847
H19B H 0.3814 0.0911 -0.0528
C6B C 0.7179(2) 0.1771(2) 0.1213(4)
C10B C 0.6403(2) 0.2336(2) 0.2755(4)
C12B C 0.7964(2) -0.0918(2) 1.1866(3)
H11B H 0.6935 -0.0971 1.2677
H12B H 0.6892 -0.1476 1.1091
C1B C 0.4659(2) -0.2191(2) 1.0046(4)
C5B C 0.5103(2) -0.1665(2) 1.2597(4)
C20B C 0.2538(2) 0.0276(2) 0.0273(4)
C24B C 0.2667(2) 0.1436(2) 0.1788(4)
C7B C 0.7532(2) 0.2460(3) 0.1037(5)
H6B H 0.7344 0.1326 0.0699
C9B C 0.6736(3) 0.3040(2) 0.2605(5)
H10B H 0.5996 0.2298 0.3382
C13B C 0.8406(2) -0.1400(2) 1.1084(4)
C17B C 0.8399(2) -0.0360(2) 1.2904(4)
C2B C 0.4604(2) -0.2903(2) 1.0699(5)
H1B H 0.4516 -0.2138 0.8854
C4B C 0.5076(2) -0.2355(2) 1.3354(5)
H5B H 0.5279 -0.1224 1.3285
C21B C 0.1758(2) 0.0179(2) 0.0486(5)
H20B H 0.2762 -0.0102 -0.0330
C23B C 0.1887(2) 0.1344(2) 0.2001(4)
H24B H 0.2983 0.1876 0.2258
C8B C 0.7311(3) 0.3097(3) 0.1738(6)
H7B H 0.7940 0.2492 0.0411
H9B H 0.6563 0.3484 0.3108
C14B C 0.9248(2) -0.1315(2) 1.1338(4)
H13B H 0.8127 -0.1796 1.0359
C16B C 0.9234(2) -0.0278(2) 1.3153(5)
H17B H 0.8110 -0.0020 1.3467
C3B C 0.4819(2) -0.2984(2) 1.2393(5)
H2B H 0.4419 -0.3333 0.9984
H4B H 0.5235 -0.2397 1.4548
C22B C 0.1426(2) 0.0714(2) 0.1342(4)
H21B H 0.1444 -0.0265 0.0034
H23B H 0.1663 0.1720 0.2610
H8B H 0.7559 0.3581 0.1619
C15B C 0.9650(2) -0.0755(2) 1.2350(5)
H14B H 0.9546 -0.1655 1.0794
H16B H 0.9522 0.0112 1.3887
H3B H 0.4790 -0.3474 1.2897
H22B H 0.0880 0.0650 0.1479
H15B H 1.0231 -0.0694 1.2504
loop_
_geom_bond_atom_site_label_1
_geom_bond_atom_site_label_2
_geom_bond_site_symmetry_1
_geom_bond_site_symmetry_2
Li1 N1 1_555 1_555
Li2 N2 1_555 1_555
N1 C1 1_555 1_555
C1 C2 1_555 1_555
C2 C3 1_555 1_555
C3 C4 1_555 1_555
C4 C5 1_555 1_555
C5 N1 1_555 1_555
N2 C6 1_555 1_555
C6 C7 1_555 1_555
C7 C8 1_555 1_555
C8 C9 1_555 1_555
C9 C10 1_555 1_555
C10 N2 1_555 1_555
S1 Li1 1_555 1_555
C11 S1 1_555 1_555
C12 C11 1_555 1_555
C13 C12 1_555 1_555
C14 C13 1_555 1_555
C15 C14 1_555 1_555
C16 C15 1_555 1_555
C17 C12 1_555 1_555
S2 Li1 1_555 1_555
C18 S2 1_555 1_555
C19 C18 1_555 1_555
C20 C19 1_555 1_555
C21 C20 1_555 1_555
C22 C21 1_555 1_555
C23 C22 1_555 1_555
C24 C19 1_555 1_555
H1 C1 1_555 1_555
H2 C2 1_555 1_555
H3 C3 1_555 1_555
H4 C4 1_555 1_555
H5 C5 1_555 1_555
H6 C6 1_555 1_555
H7 C7 1_555 1_555
H8 C8 1_555 1_555
H9 C9 1_555 1_555
H10 C10 1_555 1_555
H11 C11 1_555 1_555
H12 C11 1_555 1_555
H13 C13 1_555 1_555
H14 C14 1_555 1_555
H15 C15 1_555 1_555
H16 C16 1_555 1_555
H17 C17 1_555 1_555
H18 C18 1_555 1_555
H19 C18 1_555 1_555
H20 C20 1_555 1_555
H21 C21 1_555 1_555
H22 C22 1_555 1_555
H23 C23 1_555 1_555
H24 C24 1_555 1_555
S2B Li1 1_555 1_555
Li2B S1 1_555 1_555
S1B Li2 1_555 1_555
Li1B S2 1_555 1_555
Li1B_2 S2B 1_555 1_555
C18B S2B 1_555 1_555
N2B Li2B 1_555 1_555
S1B_2 Li2B 1_555 1_555
Li2B_2 S1B 1_555 1_555
C11B S1B 1_555 1_555
N1B Li1B 1_555 1_555
S2B_2 Li1B 1_555 1_555
C19B C18B 1_555 1_555
H18B C18B 1_555 1_555
H19B C18B 1_555 1_555
C6B N2B 1_555 1_555
C10B N2B 1_555 1_555
C12B C11B 1_555 1_555
H11B C11B 1_555 1_555
H12B C11B 1_555 1_555
C1B N1B 1_555 1_555
C5B N1B 1_555 1_555
C20B C19B 1_555 1_555
C24B C19B 1_555 1_555
C7B C6B 1_555 1_555
H6B C6B 1_555 1_555
C9B C10B 1_555 1_555
H10B C10B 1_555 1_555
C13B C12B 1_555 1_555
C17B C12B 1_555 1_555
C2B C1B 1_555 1_555
H1B C1B 1_555 1_555
C4B C5B 1_555 1_555
H5B C5B 1_555 1_555
C21B C20B 1_555 1_555
H20B C20B 1_555 1_555
C23B C24B 1_555 1_555
H24B C24B 1_555 1_555
C8B C7B 1_555 1_555
H7B C7B 1_555 1_555
H9B C9B 1_555 1_555
C14B C13B 1_555 1_555
H13B C13B 1_555 1_555
C16B C17B 1_555 1_555
H17B C17B 1_555 1_555
C3B C2B 1_555 1_555
H2B C2B 1_555 1_555
H4B C4B 1_555 1_555
C22B C21B 1_555 1_555
H21B C21B 1_555 1_555
H23B C23B 1_555 1_555
H8B C8B 1_555 1_555
C15B C14B 1_555 1_555
H14B C14B 1_555 1_555
H16B C16B 1_555 1_555
H3B C3B 1_555 1_555
H22B C22B 1_555 1_555
H15B C15B 1_555 1_555
Li2 S1 1_555 1_555
Li2 S2 1_555 1_555
C16 C17 1_555 1_555
C23 C24 1_555 1_555
S2B Li2B 1_555 1_555
S1B Li1B 1_555 1_555
C9B C8B 1_555 1_555
C4B C3B 1_555 1_555
C23B C22B 1_555 1_555
C16B C15B 1_555 1_555

#END
