
#######################################################################
#
#                 Cambridge Crystallographic Data Centre
#                                CCDC 
#
#######################################################################
#
# If this CIF has been generated from an entry in the Cambridge 
# Structural Database, then it will include bibliographic, chemical, 
# crystal, experimental, refinement or atomic coordinate data resulting 
# from the CCDC's data processing and validation procedures.
#
#######################################################################

data_FIDWAS
_symmetry_cell_setting           triclinic
_symmetry_space_group_name_H-M   'P -1'
_symmetry_Int_Tables_number      2
_space_group_name_Hall           '-P 1'
loop_
_symmetry_equiv_pos_site_id
_symmetry_equiv_pos_as_xyz
1 x,y,z
2 -x,-y,-z
_cell_length_a                   9.0708(11)
_cell_length_b                   10.1621(12)
_cell_length_c                   11.7772(14)
_cell_angle_alpha                99.457(2)
_cell_angle_beta                 106.621(2)
_cell_angle_gamma                108.491(2)
_cell_volume                     946.896
loop_
_atom_site_label
_atom_site_type_symbol
_atom_site_fract_x
_atom_site_fract_y
_atom_site_fract_z
Co1 Co 0.25526(5) 0.21823(4) 0.63171(4)
O1 O 0.1955(3) 0.6474(3) 0.8693(2)
N1 N 0.2918(3) 0.2794(3) 0.8255(2)
C1 C 0.2458(4) 0.3856(3) 0.8656(3)
H1 H 0.1922 0.4237 0.8080
O2 O 0.0085(3) 0.2008(2) 0.5891(2)
H2 H 0.020(5) 0.282(4) 0.594(3)
H3 H -0.0656(2) 0.15161(17) 0.51683(15)
O3 O 0.4717(2) 1.16005(17) 0.66970(15)
N2 N 0.2286(2) 0.55427(17) 1.03216(15)
H4 H 0.2203 0.5623 1.1037
C2 C 0.2744(4) 0.4415(3) 0.9894(3)
C3 C 0.3513(4) 0.3820(4) 1.0748(3)
H5 H 0.3727 0.4168 1.1584
O4 O 0.2223(3) 0.9964(2) 0.62244(19)
N3 N 0.80249(19) 0.84787(16) 0.57886(14)
H6 H 0.8588 0.9306 0.5730
H7 H 0.8349 0.7775 0.5679
O5 O 0.14496(19) 0.48556(16) 0.60022(14)
C4 C 0.39533(19) 0.27074(16) 1.03343(14)
H8 H 0.4450 0.2281 1.0888
C5 C 0.3651(4) 0.2226(4) 0.9087(3)
H9 H 0.3969 0.1482 0.8819
O6 O 0.3684(3) 0.4262(2) 0.63546(19)
C6 C 0.1961(4) 0.6519(4) 0.9740(3)
C7 C 0.1642(5) 0.7691(4) 1.0476(3)
H10 H 0.2694 0.8390 1.1085
H11 H 0.0946 0.7266 1.0916
C8 C 0.0797(5) 0.8467(4) 0.9679(3)
H12 H -0.0249 0.7765 0.9065
H13 H 0.1499 0.8899 0.9246
C9 C 0.0454(5) 0.9639(4) 1.0412(3)
H14 H 0.1503 1.0366 1.1003
H15 H -0.0213 0.9218 1.0871
C10 C 0.4038(4) 0.6633(3) 0.6216(3)
C11 C 0.3464(4) 0.7748(3) 0.6339(3)
H16 H 0.2425 0.7572 0.6403
C12 C 0.4447(4) 0.9123(3) 0.6366(3)
C13 C 0.5996(4) 0.9401(3) 0.6252(3)
H17 H 0.6661 1.0332 0.6297
C14 C 0.6545(4) 0.8273(3) 0.6070(3)
C15 C 0.5577(4) 0.6897(3) 0.6090(3)
H18 H 0.5968 0.6156 0.6019
C16 C 0.2965(4) 0.5143(3) 0.6187(3)
C17 C 0.3781(4) 1.0296(3) 0.6437(3)
O1A O -0.1955(3) 1.3526(3) 1.1307(2)
N1A N -0.2918(3) 1.7206(3) 1.1745(2)
C1A C -0.2458(4) 1.6144(3) 1.1344(3)
H1A H -0.1922 1.5763 1.1920
N2A N -0.2286(2) 1.44573(17) 0.96784(15)
H4A H -0.2203 1.4377 0.8963
C2A C -0.2744(4) 1.5585(3) 1.0106(3)
C3A C -0.3513(4) 1.6180(4) 0.9252(3)
H5A H -0.3727 1.5832 0.8416
C4A C -0.39533(19) 1.72926(16) 0.96657(14)
H8A H -0.4450 1.7719 0.9112
C5A C -0.3651(4) 1.7774(4) 1.0913(3)
H9A H -0.3969 1.8518 1.1181
C6A C -0.1961(4) 1.3481(4) 1.0260(3)
C7A C -0.1642(5) 1.2309(4) 0.9524(3)
H10A H -0.2694 1.1610 0.8915
H11A H -0.0946 1.2734 0.9084
C8A C -0.0797(5) 1.1533(4) 1.0321(3)
H12A H 0.0249 1.2235 1.0935
H13A H -0.1499 1.1101 1.0754
C9A C -0.0454(5) 1.0361(4) 0.9588(3)
H14A H -0.1503 0.9634 0.8997
H15A H 0.0213 1.0782 0.9129
Co1A Co -0.25526(5) 1.78177(4) 1.36829(4)
O2A O -0.0085(3) 1.7992(2) 1.4109(2)
H2A H -0.020(5) 1.718(4) 1.406(3)
H3A H 0.0656(2) 1.84839(17) 1.48317(15)
O3A O -0.4717(2) 0.83995(17) 1.33030(15)
O4A O -0.2223(3) 1.0036(2) 1.37756(19)
N3A N -0.80249(19) 1.15213(16) 1.42114(14)
H6A H -0.8588 1.0694 1.4270
H7A H -0.8349 1.2225 1.4321
O5A O -0.14496(19) 1.51444(16) 1.39978(14)
O6A O -0.3684(3) 1.5738(2) 1.36454(19)
C10A C -0.4038(4) 1.3367(3) 1.3784(3)
C11A C -0.3464(4) 1.2252(3) 1.3661(3)
H16A H -0.2425 1.2428 1.3597
C12A C -0.4447(4) 1.0877(3) 1.3634(3)
C13A C -0.5996(4) 1.0599(3) 1.3748(3)
H17A H -0.6661 0.9668 1.3703
C14A C -0.6545(4) 1.1727(3) 1.3930(3)
C15A C -0.5577(4) 1.3103(3) 1.3910(3)
H18A H -0.5968 1.3844 1.3981
C16A C -0.2965(4) 1.4857(3) 1.3813(3)
C17A C -0.3781(4) 0.9704(3) 1.3563(3)
Co1_2 Co -0.74474(5) 1.21823(4) 1.63171(4)
Co1_3 Co 0.25526(5) 1.21823(4) 0.63171(4)
Co1A_2 Co -0.25526(5) 0.78177(4) 1.36829(4)
Co1A_3 Co 0.74474(5) 0.78177(4) 0.36829(4)
O3_2 O 0.4717(2) 0.16005(17) 0.66970(15)
O3A_2 O -0.4717(2) 1.83995(17) 1.33030(15)
O4_2 O 0.2223(3) -0.0036(2) 0.62244(19)
O4A_2 O -0.2223(3) 2.0036(2) 1.37756(19)
N3_2 N -0.19751(19) 1.84787(16) 1.57886(14)
N3A_2 N 0.19751(19) 0.15213(16) 0.42114(14)
O7 O -0.0576(4) 0.6362(3) 0.6602(3)
H19 H 0.009(5) 0.650(5) 0.723(4)
H20 H -0.037(6) 0.590(5) 0.602(4)
O8 O -0.2236(4) 0.3902(4) 0.7249(3)
H21 H -0.312(6) 0.345(6) 0.689(5)
H22 H -0.13003(19) 0.41228(16) 0.71654(14)
loop_
_geom_bond_atom_site_label_1
_geom_bond_atom_site_label_2
_geom_bond_site_symmetry_1
_geom_bond_site_symmetry_2
Co1 N1 1_555 1_555
O1 C6 1_555 1_555
N1 C1 1_555 1_555
C1 H1 1_555 1_555
O2 Co1 1_555 1_555
H2 O2 1_555 1_555
H3 O2 1_555 1_555
O3 C17 1_555 1_555
N2 H4 1_555 1_555
C2 C1 1_555 1_555
C3 C2 1_555 1_555
H5 C3 1_555 1_555
O4 C17 1_555 1_555
N3 H6 1_555 1_555
H7 N3 1_555 1_555
O5 C16 1_555 1_555
C4 C3 1_555 1_555
H8 C4 1_555 1_555
C5 N1 1_555 1_555
H9 C5 1_555 1_555
O6 Co1 1_555 1_555
C6 N2 1_555 1_555
C7 C6 1_555 1_555
H10 C7 1_555 1_555
H11 C7 1_555 1_555
C8 C7 1_555 1_555
H12 C8 1_555 1_555
H13 C8 1_555 1_555
C9 C8 1_555 1_555
H14 C9 1_555 1_555
H15 C9 1_555 1_555
C10 C11 1_555 1_555
C11 H16 1_555 1_555
C12 C11 1_555 1_555
C13 C12 1_555 1_555
H17 C13 1_555 1_555
C14 N3 1_555 1_555
C15 C10 1_555 1_555
H18 C15 1_555 1_555
C16 O6 1_555 1_555
C17 C12 1_555 1_555
O7 H19 1_555 1_555
H20 O7 1_555 1_555
O8 H21 1_555 1_555
H22 O8 1_555 1_555
O1A C6A 1_555 1_555
N1A C1A 1_555 1_555
C1A H1A 1_555 1_555
N2A H4A 1_555 1_555
C2A C1A 1_555 1_555
C3A C2A 1_555 1_555
H5A C3A 1_555 1_555
C4A C3A 1_555 1_555
H8A C4A 1_555 1_555
C5A N1A 1_555 1_555
H9A C5A 1_555 1_555
C6A N2A 1_555 1_555
C7A C6A 1_555 1_555
H10A C7A 1_555 1_555
H11A C7A 1_555 1_555
C8A C7A 1_555 1_555
H12A C8A 1_555 1_555
H13A C8A 1_555 1_555
C9A C9 1_555 1_555
H14A C9A 1_555 1_555
H15A C9A 1_555 1_555
Co1A N1A 1_555 1_555
O2A Co1A 1_555 1_555
H2A O2A 1_555 1_555
H3A O2A 1_555 1_555
O3A C17A 1_555 1_555
O4A C17A 1_555 1_555
N3A H6A 1_555 1_555
H7A N3A 1_555 1_555
O5A C16A 1_555 1_555
O6A Co1A 1_555 1_555
C10A C11A 1_555 1_555
C11A H16A 1_555 1_555
C12A C11A 1_555 1_555
C13A C12A 1_555 1_555
H17A C13A 1_555 1_555
C14A N3A 1_555 1_555
C15A C10A 1_555 1_555
H18A C15A 1_555 1_555
C16A O6A 1_555 1_555
C17A C12A 1_555 1_555
Co1_2 N3A 1_555 1_555
Co1_3 O3 1_555 1_555
Co1A_2 O3A 1_555 1_555
Co1A_3 N3 1_555 1_555
O3_2 Co1 1_555 1_555
O3A_2 Co1A 1_555 1_555
O4_2 Co1 1_555 1_555
O4A_2 Co1A 1_555 1_555
N3_2 Co1A 1_555 1_555
N3A_2 Co1 1_555 1_555
N2 C2 1_555 1_555
O4 Co1_3 1_555 1_555
C4 C5 1_555 1_555
C10 C16 1_555 1_555
C13 C14 1_555 1_555
C14 C15 1_555 1_555
N2A C2A 1_555 1_555
C4A C5A 1_555 1_555
C8A C9A 1_555 1_555
O4A Co1A_2 1_555 1_555
C10A C16A 1_555 1_555
C13A C14A 1_555 1_555
C14A C15A 1_555 1_555

#END
