
#######################################################################
#
#                 Cambridge Crystallographic Data Centre
#                                CCDC 
#
#######################################################################
#
# If this CIF has been generated from an entry in the Cambridge 
# Structural Database, then it will include bibliographic, chemical, 
# crystal, experimental, refinement or atomic coordinate data resulting 
# from the CCDC's data processing and validation procedures.
#
#######################################################################

data_FIDWEU
_symmetry_cell_setting           monoclinic
_symmetry_space_group_name_H-M   'P 21/c'
_symmetry_Int_Tables_number      14
_space_group_name_Hall           '-P 2ybc'
loop_
_symmetry_equiv_pos_site_id
_symmetry_equiv_pos_as_xyz
1 x,y,z
2 -x,1/2+y,1/2-z
3 -x,-y,-z
4 x,1/2-y,1/2+z
_cell_length_a                   9.8032(7)
_cell_length_b                   18.0044(12)
_cell_length_c                   8.8064(4)
_cell_angle_alpha                90
_cell_angle_beta                 100.172(5)
_cell_angle_gamma                90
_cell_volume                     1529.91
loop_
_atom_site_label
_atom_site_type_symbol
_atom_site_fract_x
_atom_site_fract_y
_atom_site_fract_z
Li1 Li 0.4984(6) 0.7761(3) -0.1421(7)
N1 N 0.3115(3) 0.7206(2) -0.1855(4)
C1 C 0.2007(4) 0.7458(2) -0.2772(5)
C2 C 0.0788(4) 0.7098(3) -0.3137(5)
C3 C 0.0716(6) 0.6416(4) -0.2549(5)
C4 C 0.1857(7) 0.6119(4) -0.1622(7)
C5 C 0.3028(5) 0.6539(3) -0.1307(5)
N2 N 0.4285(3) 0.8857(2) -0.1498(3)
C6 C 0.3462(4) 0.9076(2) -0.0552(4)
C7 C 0.2952(4) 0.9791(3) -0.0510(5)
C8 C 0.3295(4) 1.0291(2) -0.1512(5)
C9 C 0.4139(4) 1.0074(2) -0.2522(5)
C10 C 0.4607(4) 0.9359(2) -0.2469(4)
S1 S 0.6075(1) 0.7522(1) 0.1338(1)
C11 C 0.7385(3) 0.6849(2) 0.1550(4)
C12 C 0.8133(3) 0.6658(2) 0.3000(4)
C13 C 0.9174(3) 0.6141(2) 0.3169(5)
C14 C 0.9515(4) 0.5787(4) 0.1921(5)
C15 C 0.8780(5) 0.5952(2) 0.0486(5)
C16 C 0.7741(4) 0.6476(2) 0.0307(4)
H1 H 0.2071 0.7941 -0.3218
H2 H 0.0007 0.7320 -0.3792
H3 H -0.0131 0.6137 -0.2773
H4 H 0.1831 0.5627 -0.1208
H5 H 0.3825 0.6334 -0.0650
H6 H 0.3201 0.8717 0.0151
H7 H 0.2369 0.9927 0.0215
H8 H 0.2956 1.0791 -0.1523
H9 H 0.4396 1.0420 -0.3253
H10 H 0.5201 0.9214 -0.3175
H11 H 0.7911 0.6896 0.3901
H12 H 0.9672 0.6029 0.4182
H13 H 1.0249 0.5424 0.2043
H14 H 0.8994 0.5701 -0.0404
H15 H 0.7250 0.6585 -0.0712
S1C S 0.6075(1) 0.7478(1) -0.3662(1)
Li1C Li 0.4984(6) 0.7239(3) 0.3579(7)
Li1C_2 Li 0.4984(6) 0.7239(3) -0.6421(7)
C11C C 0.7385(3) 0.8151(2) -0.3450(4)
N1C N 0.3115(3) 0.7794(2) 0.3145(4)
N2C N 0.4285(3) 0.6143(2) 0.3502(3)
S1C_2 S 0.6075(1) 0.7478(1) 0.6338(1)
C12C C 0.8133(3) 0.8342(2) -0.2000(4)
C16C C 0.7741(4) 0.8524(2) -0.4693(4)
C1C C 0.2007(4) 0.7542(2) 0.2228(5)
C5C C 0.3028(5) 0.8461(3) 0.3693(5)
C6C C 0.3462(4) 0.5924(2) 0.4448(4)
C10C C 0.4607(4) 0.5641(2) 0.2531(4)
C13C C 0.9174(3) 0.8859(2) -0.1831(5)
H11C H 0.7911 0.8104 -0.1099
C15C C 0.8780(5) 0.9048(2) -0.4514(5)
H15C H 0.7250 0.8415 -0.5712
C2C C 0.0788(4) 0.7902(3) 0.1863(5)
H1C H 0.2071 0.7059 0.1782
C4C C 0.1857(7) 0.8881(4) 0.3378(7)
H5C H 0.3825 0.8666 0.4350
C7C C 0.2952(4) 0.5209(3) 0.4490(5)
H6C H 0.3201 0.6283 0.5151
C9C C 0.4139(4) 0.4926(2) 0.2478(5)
H10C H 0.5201 0.5786 0.1825
C14C C 0.9515(4) 0.9213(4) -0.3079(5)
H12C H 0.9672 0.8971 -0.0818
H14C H 0.8994 0.9299 -0.5404
C3C C 0.0716(6) 0.8584(4) 0.2451(5)
H2C H 0.0007 0.7680 0.1208
H4C H 0.1831 0.9373 0.3792
C8C C 0.3295(4) 0.4709(2) 0.3488(5)
H7C H 0.2369 0.5073 0.5215
H9C H 0.4396 0.4580 0.1747
H13C H 1.0249 0.9576 -0.2957
H3C H -0.0131 0.8863 0.2227
H8C H 0.2956 0.4209 0.3477
loop_
_geom_bond_atom_site_label_1
_geom_bond_atom_site_label_2
_geom_bond_site_symmetry_1
_geom_bond_site_symmetry_2
Li1 N1 1_555 1_555
N1 C1 1_555 1_555
C1 C2 1_555 1_555
C2 C3 1_555 1_555
C3 C4 1_555 1_555
C4 C5 1_555 1_555
C5 N1 1_555 1_555
N2 Li1 1_555 1_555
C6 N2 1_555 1_555
C7 C6 1_555 1_555
C8 C7 1_555 1_555
C9 C8 1_555 1_555
C10 N2 1_555 1_555
S1 Li1 1_555 1_555
C11 S1 1_555 1_555
C12 C11 1_555 1_555
C13 C12 1_555 1_555
C14 C13 1_555 1_555
C15 C14 1_555 1_555
C16 C11 1_555 1_555
H1 C1 1_555 1_555
H2 C2 1_555 1_555
H3 C3 1_555 1_555
H4 C4 1_555 1_555
H5 C5 1_555 1_555
H6 C6 1_555 1_555
H7 C7 1_555 1_555
H8 C8 1_555 1_555
H9 C9 1_555 1_555
H10 C10 1_555 1_555
H11 C12 1_555 1_555
H12 C13 1_555 1_555
H13 C14 1_555 1_555
H14 C15 1_555 1_555
H15 C16 1_555 1_555
S1C Li1 1_555 1_555
Li1C S1 1_555 1_555
Li1C_2 S1C 1_555 1_555
C11C S1C 1_555 1_555
N1C Li1C 1_555 1_555
N2C Li1C 1_555 1_555
S1C_2 Li1C 1_555 1_555
C12C C11C 1_555 1_555
C16C C11C 1_555 1_555
C1C N1C 1_555 1_555
C5C N1C 1_555 1_555
C6C N2C 1_555 1_555
C10C N2C 1_555 1_555
C13C C12C 1_555 1_555
H11C C12C 1_555 1_555
C15C C16C 1_555 1_555
H15C C16C 1_555 1_555
C2C C1C 1_555 1_555
H1C C1C 1_555 1_555
C4C C5C 1_555 1_555
H5C C5C 1_555 1_555
C7C C6C 1_555 1_555
H6C C6C 1_555 1_555
C9C C10C 1_555 1_555
H10C C10C 1_555 1_555
C14C C13C 1_555 1_555
H12C C13C 1_555 1_555
H14C C15C 1_555 1_555
C3C C2C 1_555 1_555
H2C C2C 1_555 1_555
H4C C4C 1_555 1_555
C8C C7C 1_555 1_555
H7C C7C 1_555 1_555
H9C C9C 1_555 1_555
H13C C14C 1_555 1_555
H3C C3C 1_555 1_555
H8C C8C 1_555 1_555
C9 C10 1_555 1_555
C15 C16 1_555 1_555
C15C C14C 1_555 1_555
C4C C3C 1_555 1_555
C9C C8C 1_555 1_555

#END
