
#######################################################################
#
#                 Cambridge Crystallographic Data Centre
#                                CCDC 
#
#######################################################################
#
# If this CIF has been generated from an entry in the Cambridge 
# Structural Database, then it will include bibliographic, chemical, 
# crystal, experimental, refinement or atomic coordinate data resulting 
# from the CCDC's data processing and validation procedures.
#
#######################################################################

data_FIFBIH
_symmetry_cell_setting           trigonal
_symmetry_space_group_name_H-M   'P 31 2 1'
_symmetry_Int_Tables_number      152
_space_group_name_Hall           'P 31 2"'
loop_
_symmetry_equiv_pos_site_id
_symmetry_equiv_pos_as_xyz
1 x,y,z
2 -y,x-y,1/3+z
3 -x+y,-x,2/3+z
4 y,x,-z
5 -x,-x+y,1/3-z
6 x-y,-y,2/3-z
_cell_length_a                   11.9375(13)
_cell_length_b                   11.9375(13)
_cell_length_c                   17.2686(18)
_cell_angle_alpha                90
_cell_angle_beta                 90
_cell_angle_gamma                120
_cell_volume                     2131.15
loop_
_atom_site_label
_atom_site_type_symbol
_atom_site_fract_x
_atom_site_fract_y
_atom_site_fract_z
Cd1 Cd 0.0000 0.47401(5) 0.1667
S1 S 0.25536(13) 0.91362(13) 0.30438(7)
O1 O 0.1279(4) 0.6970(4) 0.2206(2)
O2 O 0.2122(4) 0.6099(4) 0.1464(2)
C1 C 0.1396(7) 0.3245(7) 0.3538(4)
H1 H 0.2060 0.3163 0.3762
N1 N 0.0136(5) 0.2658(5) 0.3777(2)
C2 C 0.3744(5) 0.9293(5) 0.2350(3)
C3 C 0.4955(6) 1.0384(6) 0.2323(3)
H2 H 0.5170 1.1039 0.2683
C4 C 0.2221(6) 0.7050(5) 0.1851(3)
C5 C 0.3470(5) 0.8272(5) 0.1848(3)
C6 C 0.5571(7) 0.9506(7) 0.1257(4)
H3 H 0.6170 0.9579 0.0887
N2 N 0.0287(4) 0.3806(5) 0.2747(2)
C7 C -0.0486(6) 0.3043(6) 0.3289(3)
C8 C 0.5843(6) 1.0522(8) 0.1779(4)
H4 H 0.6631 1.1289 0.1752
C9 C 0.1487(6) 0.3961(7) 0.2919(4)
H5 H 0.2244 0.4484 0.2646
C10 C 0.4402(6) 0.8423(6) 0.1318(3)
H6 H 0.4213 0.7740 0.0984
C11 C -0.1862(6) 0.2692(8) 0.3415(4)
H7 H -0.2106 0.3114 0.3033
H8 H -0.1953 0.2964 0.3922
H9 H -0.2409 0.1772 0.3370
C12 C -0.0380(10) 0.1830(8) 0.4444(4)
H10 H 0.0175 0.2263 0.4884
H11 H -0.1226 0.1718 0.4559
C13 C -0.1092(15) -0.0381(12) 0.4935(8)
H12 H -0.1966 -0.0991 0.4770
H13 H -0.1149 -0.0008 0.5422
C14 C -0.0500(18) 0.0630(11) 0.4370(7)
H14 H 0.0367 0.0776 0.4291
H15 H -0.0964 0.0271 0.3889
S1E S 0.34174(18) 1.08638(13) 0.36229(7)
O1E O 0.4309(6) 1.3030(4) 0.4461(2)
O2E O 0.6023(6) 1.3901(4) 0.5203(2)
C2E C 0.4451(7) 1.0707(5) 0.4317(3)
C3E C 0.4571(8) 0.9616(6) 0.4344(3)
H2E H 0.4131 0.8961 0.3984
C4E C 0.5171(8) 1.2950(5) 0.4816(3)
C5E C 0.5198(7) 1.1728(5) 0.4819(3)
C6E C 0.6065(10) 1.0494(7) 0.5410(4)
H3E H 0.6591 1.0421 0.5780
C8E C 0.5321(10) 0.9478(8) 0.4888(4)
H4E H 0.5342 0.8711 0.4915
C10E C 0.5979(8) 1.1577(6) 0.5349(3)
H6E H 0.6473 1.2260 0.5683
C1C C 0.3245(7) 0.1396(7) 0.6462(4)
H1C H 0.3163 0.2060 0.6238
N1C N 0.2658(5) 0.0136(5) 0.6223(2)
N2C N 0.3806(5) 0.0287(4) 0.7253(2)
C7C C 0.3043(6) -0.0486(6) 0.6711(3)
C9C C 0.3961(7) 0.1487(6) 0.7081(4)
H5C H 0.4484 0.2244 0.7354
C11C C 0.2692(8) -0.1862(6) 0.6585(4)
H7C H 0.3114 -0.2106 0.6967
H8C H 0.2964 -0.1953 0.6078
H9C H 0.1772 -0.2409 0.6630
C12C C 0.1830(8) -0.0380(10) 0.5556(4)
H10C H 0.2263 0.0175 0.5116
H11C H 0.1718 -0.1226 0.5441
C13C C -0.0381(12) -0.1092(15) 0.5065(8)
H12C H -0.0991 -0.1966 0.5230
H13C H -0.0008 -0.1149 0.4578
C14C C 0.0630(11) -0.0500(18) 0.5630(7)
H14C H 0.0776 0.0367 0.5709
H15C H 0.0271 -0.0964 0.6111
Cd1A Cd 0.52599(5) 1.52599(5) 0.5000
Cd1B Cd 0.47401(5) 0.0000 0.8334
O1D O -0.1279(4) 0.5691(6) 0.1127(2)
O2D O -0.2122(4) 0.3977(6) 0.1869(2)
N2D N -0.0287(4) 0.3519(6) 0.0586(2)
loop_
_geom_bond_atom_site_label_1
_geom_bond_atom_site_label_2
_geom_bond_site_symmetry_1
_geom_bond_site_symmetry_2
Cd1 O1 1_555 1_555
S1 C2 1_555 1_555
O1 C4 1_555 1_555
O2 Cd1 1_555 1_555
C1 H1 1_555 1_555
N1 C1 1_555 1_555
C2 C3 1_555 1_555
C3 H2 1_555 1_555
C4 O2 1_555 1_555
C5 C2 1_555 1_555
C6 H3 1_555 1_555
N2 Cd1 1_555 1_555
C7 N1 1_555 1_555
C8 C3 1_555 1_555
H4 C8 1_555 1_555
C9 C1 1_555 1_555
H5 C9 1_555 1_555
C10 C5 1_555 1_555
H6 C10 1_555 1_555
C11 C7 1_555 1_555
H7 C11 1_555 1_555
H8 C11 1_555 1_555
H9 C11 1_555 1_555
C12 N1 1_555 1_555
H10 C12 1_555 1_555
H11 C12 1_555 1_555
C13 H12 1_555 1_555
H13 C13 1_555 1_555
C14 C12 1_555 1_555
H14 C14 1_555 1_555
H15 C14 1_555 1_555
S1E S1 1_555 1_555
O1E C4E 1_555 1_555
O2E C4E 1_555 1_555
C2E S1E 1_555 1_555
C3E C2E 1_555 1_555
H2E C3E 1_555 1_555
C4E C5E 1_555 1_555
C5E C2E 1_555 1_555
C6E H3E 1_555 1_555
C8E C3E 1_555 1_555
H4E C8E 1_555 1_555
C10E C5E 1_555 1_555
H6E C10E 1_555 1_555
C1C H1C 1_555 1_555
N1C C1C 1_555 1_555
N2C C7C 1_555 1_555
C7C N1C 1_555 1_555
C9C C1C 1_555 1_555
H5C C9C 1_555 1_555
C11C C7C 1_555 1_555
H7C C11C 1_555 1_555
H8C C11C 1_555 1_555
H9C C11C 1_555 1_555
C12C N1C 1_555 1_555
H10C C12C 1_555 1_555
H11C C12C 1_555 1_555
C13C C13 1_555 1_555
H12C C13C 1_555 1_555
H13C C13C 1_555 1_555
C14C C12C 1_555 1_555
H14C C14C 1_555 1_555
H15C C14C 1_555 1_555
Cd1A O1E 1_555 1_555
Cd1B N2C 1_555 1_555
O1D Cd1 1_555 1_555
O2D Cd1 1_555 1_555
N2D Cd1 1_555 1_555
C4 C5 1_555 1_555
C6 C8 1_555 1_555
C6 C10 1_555 1_555
N2 C7 1_555 1_555
N2 C9 1_555 1_555
C13 C14 1_555 1_555
O2E Cd1A 1_555 1_555
C6E C8E 1_555 1_555
C6E C10E 1_555 1_555
N2C C9C 1_555 1_555
C13C C14C 1_555 1_555

#END
