
#######################################################################
#
#                 Cambridge Crystallographic Data Centre
#                                CCDC 
#
#######################################################################
#
# If this CIF has been generated from an entry in the Cambridge 
# Structural Database, then it will include bibliographic, chemical, 
# crystal, experimental, refinement or atomic coordinate data resulting 
# from the CCDC's data processing and validation procedures.
#
#######################################################################

data_FIFCII
_symmetry_cell_setting           orthorhombic
_symmetry_space_group_name_H-M   'P 21 21 21'
_symmetry_Int_Tables_number      19
_space_group_name_Hall           'P 2ac 2ab'
loop_
_symmetry_equiv_pos_site_id
_symmetry_equiv_pos_as_xyz
1 x,y,z
2 1/2-x,-y,1/2+z
3 1/2+x,1/2-y,-z
4 -x,1/2+y,1/2-z
_cell_length_a                   14.532(3)
_cell_length_b                   5.0260(10)
_cell_length_c                   19.667(4)
_cell_angle_alpha                90
_cell_angle_beta                 90
_cell_angle_gamma                90
_cell_volume                     1436.44
loop_
_atom_site_label
_atom_site_type_symbol
_atom_site_fract_x
_atom_site_fract_y
_atom_site_fract_z
Na1 Na 0.92101(19) 0.3182(5) 0.68448(13)
Br1 Br 0.63522(5) -0.48475(16) 0.78949(4)
Br2 Br 0.84166(5) 0.96680(14) 0.42404(3)
N1 N 0.7746(4) 0.0795(11) 0.6796(3)
N2 N 0.8263(4) 0.4571(11) 0.5870(3)
B1 B 0.9611(6) 0.2986(16) 0.8330(4)
F1 F 0.8771(3) 0.3490(9) 0.8029(2)
F2 F 1.0281(3) 0.2630(8) 0.7817(2)
F3 F 0.9892(3) 0.5140(9) 0.87275(18)
F4 F 0.9586(3) 0.0706(8) 0.8726(2)
C1 C 0.7487(5) -0.1012(14) 0.7251(3)
H1 H 0.7885 -0.1399 0.7621
C2 C 0.6651(5) -0.2358(12) 0.7204(3)
C3 C 0.6063(5) -0.1891(15) 0.6677(4)
H2 H 0.5500 -0.2839 0.6641
C4 C 0.6305(4) 0.0005(14) 0.6190(3)
C5 C 0.5735(5) 0.0642(15) 0.5621(4)
H3 H 0.5167 -0.0270 0.5565
C6 C 0.5985(5) 0.2525(16) 0.5157(4)
H4 H 0.5587 0.2935 0.4788
C7 C 0.6852(5) 0.3894(13) 0.5226(3)
C8 C 0.7145(5) 0.5847(14) 0.4749(4)
H5 H 0.6771 0.6303 0.4371
C9 C 0.7972(5) 0.7042(13) 0.4849(3)
C10 C 0.8516(5) 0.6402(13) 0.5412(3)
H6 H 0.9087 0.7297 0.5471
C11 C 0.7444(4) 0.3334(13) 0.5779(3)
C12 C 0.7165(5) 0.1298(13) 0.6266(3)
Na1C Na 1.07899(19) -0.1818(5) 0.81552(13)
Na1C_2 Na 1.07899(19) 0.8182(5) 0.81552(13)
F2C F 0.9719(3) 0.7630(8) 0.7183(2)
F3C F 1.0108(3) 0.0140(9) 0.62725(18)
F4C F 1.0414(3) 0.5706(8) 0.6274(2)
loop_
_geom_bond_atom_site_label_1
_geom_bond_atom_site_label_2
_geom_bond_site_symmetry_1
_geom_bond_site_symmetry_2
Na1 N1 1_555 1_555
Br1 C2 1_555 1_555
Br2 C9 1_555 1_555
N1 C1 1_555 1_555
N2 Na1 1_555 1_555
B1 F1 1_555 1_555
F1 Na1 1_555 1_555
F2 Na1 1_555 1_555
F3 B1 1_555 1_555
F4 B1 1_555 1_555
C1 H1 1_555 1_555
C2 C1 1_555 1_555
C3 C2 1_555 1_555
H2 C3 1_555 1_555
C4 C3 1_555 1_555
C5 C4 1_555 1_555
H3 C5 1_555 1_555
C6 C5 1_555 1_555
H4 C6 1_555 1_555
C7 C6 1_555 1_555
C8 C7 1_555 1_555
H5 C8 1_555 1_555
C9 C8 1_555 1_555
C10 N2 1_555 1_555
H6 C10 1_555 1_555
C11 N2 1_555 1_555
C12 N1 1_555 1_555
Na1C F2 1_555 1_555
Na1C_2 F3 1_555 1_555
F2C Na1 1_555 1_555
F3C Na1 1_555 1_555
F4C Na1 1_555 1_555
B1 F2 1_555 1_555
F4 Na1C 1_555 1_555
C4 C12 1_555 1_555
C7 C11 1_555 1_555
C9 C10 1_555 1_555
C11 C12 1_555 1_555
Na1C_2 F2C 1_555 1_555

#END
