
#######################################################################
#
#                 Cambridge Crystallographic Data Centre
#                                CCDC 
#
#######################################################################
#
# If this CIF has been generated from an entry in the Cambridge 
# Structural Database, then it will include bibliographic, chemical, 
# crystal, experimental, refinement or atomic coordinate data resulting 
# from the CCDC's data processing and validation procedures.
#
#######################################################################

data_FIFLUD
_symmetry_cell_setting           monoclinic
_symmetry_space_group_name_H-M   'C 2'
_symmetry_Int_Tables_number      5
_space_group_name_Hall           'C 2y'
loop_
_symmetry_equiv_pos_site_id
_symmetry_equiv_pos_as_xyz
1 x,y,z
2 -x,y,-z
3 1/2+x,1/2+y,z
4 1/2-x,1/2+y,-z
_cell_length_a                   25.266(3)
_cell_length_b                   11.4902(12)
_cell_length_c                   22.880(2)
_cell_angle_alpha                90
_cell_angle_beta                 90.492(2)
_cell_angle_gamma                90
_cell_volume                     6642.08
loop_
_atom_site_label
_atom_site_type_symbol
_atom_site_fract_x
_atom_site_fract_y
_atom_site_fract_z
W1 W 0.560889(10) 0.99069(2) 0.676389(11)
W2 W 0.678804(11) 1.07534(2) 0.847216(11)
W3 W 0.554442(11) 0.92914(2) 0.818041(11)
W4 W 0.683898(11) 1.14248(2) 0.705535(12)
W5 W 0.662535(11) 0.77587(3) 0.891265(11)
W6 W 0.656851(11) 0.56522(2) 0.791277(11)
W7 W 0.786568(11) 1.00766(2) 0.770591(12)
W8 W 0.664943(10) 0.63595(2) 0.637582(11)
W9 W 0.548115(11) 0.71317(2) 0.720347(11)
W10 W 0.770512(11) 0.70719(2) 0.816289(11)
W11 W 0.779072(10) 0.77676(2) 0.662295(11)
W12 W 0.678903(11) 0.91392(2) 0.596828(11)
B1 B 0.6690(3) 0.8524(7) 0.7446(3)
O1 O 0.51821(17) 1.0701(4) 0.63620(18)
O2 O 0.52455(18) 0.8427(4) 0.67386(19)
O3 O 0.53042(18) 1.0141(4) 0.75143(18)
O4 O 0.61207(19) 1.1066(4) 0.6956(2)
O5 O 0.60802(16) 0.9382(4) 0.61869(17)
O6 O 0.60937(18) 0.8643(4) 0.74025(18)
O7 O 0.49515(17) 0.6270(4) 0.7053(2)
O8 O 0.51949(18) 0.7947(4) 0.78666(18)
O9 O 0.58832(18) 0.6177(4) 0.77055(18)
O10 O 0.59485(17) 0.6690(4) 0.66010(17)
O11 O 0.50526(18) 0.9698(4) 0.86338(17)
O12 O 0.59541(18) 0.8287(4) 0.86595(18)
O13 O 0.60591(18) 1.0426(4) 0.83481(18)
O14 O 0.64332(18) 0.6200(4) 0.86949(19)
O15 O 0.73010(18) 0.5626(4) 0.80990(18)
O16 O 0.67235(17) 0.5622(4) 0.71121(18)
O17 O 0.68277(17) 0.7605(4) 0.79043(18)
O18 O 0.6520(2) 0.7619(4) 0.96513(19)
O19 O 0.73512(18) 0.7317(4) 0.89007(18)
O20 O 0.68440(17) 0.9344(4) 0.8871(2)
O21 O 0.82839(16) 0.6501(4) 0.84255(17)
O22 O 0.78819(18) 0.8628(4) 0.81241(18)
O23 O 0.78242(17) 0.6968(4) 0.73501(17)
O24 O 0.6737(2) 1.1868(4) 0.78280(19)
O25 O 0.75453(18) 1.0781(4) 0.83763(19)
O26 O 0.69486(17) 0.9674(4) 0.7612(2)
O27 O 0.6877(2) 1.2735(4) 0.6738(2)
O28 O 0.76020(17) 1.1285(4) 0.72251(19)
O29 O 0.69875(18) 1.0451(4) 0.63906(19)
O30 O 0.79417(17) 0.9128(4) 0.70220(16)
O31 O 0.83829(16) 0.7437(4) 0.6337(2)
O32 O 0.74105(16) 0.6414(4) 0.63183(18)
O33 O 0.75130(16) 0.8643(4) 0.59750(17)
O34 O 0.68945(16) 0.8118(4) 0.68540(17)
O35 O 0.65463(19) 0.5210(4) 0.5932(2)
O36 O 0.66094(18) 0.7545(4) 0.5795(2)
O37 O 0.6772(2) 0.9670(4) 0.52691(17)
O38 O 0.64452(19) 0.4228(4) 0.8049(2)
O39 O 0.84903(19) 1.0589(4) 0.7793(2)
O40 O 0.6778(2) 1.1714(4) 0.9025(2)
Ni1 Ni 0.5000 0.34279(9) 0.5000
Ni2 Ni 0.5000 0.34038(10) 0.0000
N1 N 0.5002(2) 0.3445(5) 0.0950(2)
N2 N 0.49866(19) 0.3428(4) 0.40475(19)
N3 N 0.5000 0.5343(6) 0.5000
N4 N 0.5000 1.1545(6) 0.5000
N5 N 0.5000 0.1480(7) 0.0000
N6 N 0.5833(2) 0.3449(5) 0.0016(2)
N7 N 0.6640(2) 0.4077(5) -0.0022(2)
N8 N 0.8070(3) 0.4731(6) -0.0478(3)
H1 H 0.8230 0.4763 -0.0126
H2 H 0.8013 0.5461 -0.0608
C1 C 0.5357(3) 0.3996(6) 0.1242(3)
H3 H 0.5623 0.4371 0.1035
C2 C 0.5369(3) 0.4069(6) 0.1859(3)
H4 H 0.5620 0.4523 0.2053
C3 C 0.4993(2) 0.3437(6) 0.2167(2)
C4 C 0.4623(2) 0.2846(5) 0.1862(2)
H5 H 0.4353 0.2467 0.2059
C5 C 0.4641(2) 0.2796(6) 0.1259(2)
H6 H 0.4405 0.2316 0.1058
C6 C 0.4978(2) 0.3483(6) 0.2823(3)
C7 C 0.4512(3) 0.3476(6) 0.3135(2)
H7 H 0.4187 0.3486 0.2941
C8 C 0.4537(2) 0.3455(6) 0.3736(3)
H8 H 0.4220 0.3459 0.3939
C9 C 0.5425(2) 0.3393(6) 0.3756(3)
H9 H 0.5741 0.3375 0.3968
C10 C 0.5454(3) 0.3382(6) 0.3153(3)
H10 H 0.5779 0.3309 0.2968
C11 C 0.5311(3) 0.5918(6) 0.5358(3)
H11 H 0.5530 0.5506 0.5613
C12 C 0.5322(2) 0.7112(5) 0.5369(2)
H12 H 0.5551 0.7485 0.5629
C13 C 0.5000 0.7787(7) 0.5000
C14 C 0.5000 0.9063(7) 0.5000
C15 C 0.5461(2) 0.9667(6) 0.5013(3)
H13 H 0.5784 0.9280 0.5033
C16 C 0.5441(2) 1.0906(6) 0.4996(3)
H14 H 0.5762 1.1302 0.4982
C17 C 0.5442(4) -0.0341(8) -0.0109(4)
H15 H 0.5757 -0.0739 -0.0171
C18 C 0.5000 -0.0918(10) 0.0000
C19 C 0.5000 -0.2276(10) 0.0000
C20 C 0.5174(3) -0.2941(8) -0.0495(4)
H16 H 0.5300 -0.2568 -0.0827
C21 C 0.6149(3) 0.4137(6) -0.0222(3)
H17 H 0.6046 0.4648 -0.0517
C22 C 0.6650(3) 0.3278(7) 0.0393(3)
H18 H 0.6940 0.3057 0.0619
C23 C 0.6133(3) 0.2827(6) 0.0426(3)
H19 H 0.6015 0.2236 0.0670
C24 C 0.7108(3) 0.4794(7) -0.0158(3)
H20 H 0.7241 0.5148 0.0199
H21 H 0.7003 0.5415 -0.0422
C25 C 0.7568(3) 0.4070(8) -0.0448(4)
H22 H 0.7630 0.3372 -0.0212
C26 C 0.7468(3) 0.3720(6) -0.1031(3)
H23 H 0.7296 0.4342 -0.1246
H24 H 0.7239 0.3042 -0.1037
C27 C 0.7996(4) 0.3432(10) -0.1303(5)
H25 H 0.8052 0.2597 -0.1310
H26 H 0.8012 0.3727 -0.1700
C28 C 0.8405(3) 0.4021(8) -0.0921(4)
H27 H 0.8629 0.4530 -0.1149
H28 H 0.8625 0.3453 -0.0721
N9 N 0.58319(19) 0.3424(4) 0.50002(19)
C29 C 0.6824(3) 0.2936(7) 0.5183(3)
H29 H 0.7028 0.3621 0.5269
H30 H 0.6966 0.2557 0.4845
H31 H 0.6840 0.2414 0.5511
C30 C 0.6277(2) 0.3260(5) 0.5070(2)
C31 C 0.5154(4) -0.4080(7) -0.0472(4)
H32 H 0.5252 -0.4480 -0.0807
N10 N 0.5000 -0.4746(5) 0.0000
C32 C 0.5428(3) 0.0851(7) -0.0129(3)
H33 H 0.5733 0.1244 -0.0239
C11A C 0.4689(3) 0.5918(6) 0.4642(3)
H11A H 0.4470 0.5506 0.4387
C12A C 0.4678(2) 0.7112(5) 0.4631(2)
H12A H 0.4449 0.7485 0.4371
C15A C 0.4539(2) 0.9667(6) 0.4987(3)
H13A H 0.4216 0.9280 0.4967
C16A C 0.4559(2) 1.0906(6) 0.5004(3)
H14A H 0.4238 1.1302 0.5018
C17A C 0.4558(4) -0.0341(8) 0.0109(4)
H15A H 0.4243 -0.0739 0.0171
C20A C 0.4826(3) -0.2941(8) 0.0495(4)
H16A H 0.4700 -0.2568 0.0827
C31A C 0.4846(4) -0.4080(7) 0.0472(4)
H32A H 0.4748 -0.4480 0.0807
C32A C 0.4572(3) 0.0851(7) 0.0129(3)
H33A H 0.4267 0.1244 0.0239
N1A N 0.4998(2) 0.3445(5) -0.0950(2)
N2A N 0.50134(19) 0.3428(4) -0.40475(19)
N6A N 0.4167(2) 0.3449(5) -0.0016(2)
N7A N 0.3360(2) 0.4077(5) 0.0022(2)
N8A N 0.1930(3) 0.4731(6) 0.0478(3)
H1A H 0.1770 0.4763 0.0126
H2A H 0.1987 0.5461 0.0608
C1A C 0.4643(3) 0.3996(6) -0.1242(3)
H3A H 0.4377 0.4371 -0.1035
C2A C 0.4631(3) 0.4069(6) -0.1859(3)
H4A H 0.4380 0.4523 -0.2053
C3A C 0.5007(2) 0.3437(6) -0.2167(2)
C4A C 0.5377(2) 0.2846(5) -0.1862(2)
H5A H 0.5647 0.2467 -0.2059
C5A C 0.5359(2) 0.2796(6) -0.1259(2)
H6A H 0.5595 0.2316 -0.1058
C6A C 0.5022(2) 0.3483(6) -0.2823(3)
C7A C 0.5488(3) 0.3476(6) -0.3135(2)
H7A H 0.5813 0.3486 -0.2941
C8A C 0.5463(2) 0.3455(6) -0.3736(3)
H8A H 0.5780 0.3459 -0.3939
C9A C 0.4575(2) 0.3393(6) -0.3756(3)
H9A H 0.4259 0.3375 -0.3968
C10A C 0.4546(3) 0.3382(6) -0.3153(3)
H10A H 0.4221 0.3309 -0.2968
C21A C 0.3851(3) 0.4137(6) 0.0222(3)
H17A H 0.3954 0.4648 0.0517
C22A C 0.3350(3) 0.3278(7) -0.0393(3)
H18A H 0.3060 0.3057 -0.0619
C23A C 0.3867(3) 0.2827(6) -0.0426(3)
H19A H 0.3985 0.2236 -0.0670
C24A C 0.2892(3) 0.4794(7) 0.0158(3)
H20A H 0.2759 0.5148 -0.0199
H21A H 0.2997 0.5415 0.0422
C25A C 0.2432(3) 0.4070(8) 0.0448(4)
H22A H 0.2370 0.3372 0.0212
C26A C 0.2532(3) 0.3720(6) 0.1031(3)
H23A H 0.2704 0.4342 0.1246
H24A H 0.2761 0.3042 0.1037
C27A C 0.2004(4) 0.3432(10) 0.1303(5)
H25A H 0.1948 0.2597 0.1310
H26A H 0.1988 0.3727 0.1700
C28A C 0.1595(3) 0.4021(8) 0.0921(4)
H27A H 0.1371 0.4530 0.1149
H28A H 0.1375 0.3453 0.0721
N9A N 0.41681(19) 0.3424(4) 0.49998(19)
C29A C 0.3176(3) 0.2936(7) 0.4817(3)
H29A H 0.2972 0.3621 0.4731
H30A H 0.3034 0.2557 0.5155
H31A H 0.3160 0.2414 0.4489
C30A C 0.3723(2) 0.3260(5) 0.4930(2)
Ni1_2 Ni 0.5000 0.34279(9) -0.5000
Ni1_3 Ni 0.5000 1.34279(9) 0.5000
Ni2_2 Ni 0.5000 -0.65962(10) 0.0000
N2A_2 N 0.50134(19) 0.3428(4) 0.59525(19)
N4_2 N 0.5000 0.1545(6) 0.5000
N10_2 N 0.5000 0.5254(5) 0.0000
C33 C 0.5950(2) 0.8974(4) 0.3143(2)
H34 H 0.6324 0.8763 0.3107
C34 C 0.5897(3) 0.8212(6) 0.3642(3)
H35 H 0.5531 0.7982 0.3685
H36 H 0.6008 0.8616 0.3995
N11 N 0.6083(3) 1.0176(5) 0.3219(2)
H37 H 0.5852 1.0521 0.3461
H38 H 0.6411 1.0245 0.3373
C35 C 0.6060(4) 1.0696(6) 0.2665(3)
H39 H 0.6399 1.1042 0.2569
H40 H 0.5791 1.1298 0.2654
C36 C 0.5932(4) 0.9786(5) 0.2266(3)
H41 H 0.6211 0.9723 0.1979
H42 H 0.5607 0.9984 0.2061
C37 C 0.6819(2) 0.7356(5) 0.3688(2)
H43 H 0.7046 0.7792 0.3457
C38 C 0.6966(4) 0.6804(9) 0.4218(5)
H44 H 0.7259 0.6969 0.4451
N12 N 0.6242(3) 0.7138(7) 0.3552(3)
C39 C 0.6081(5) 0.6210(10) 0.3986(5)
H45 H 0.5744 0.5897 0.4028
N13 N 0.6550(4) 0.5899(9) 0.4325(4)
H46 H 0.6583 0.5300 0.4547
C40 C 0.5866(4) 0.8670(7) 0.2550(3)
H47 H 0.5513 0.8360 0.2486
H48 H 0.6125 0.8109 0.2418
O41 O 0.7217(2) 0.9099(5) 0.2824(2)
O42 O 0.6996(3) 0.9566(5) 0.4131(2)
O43 O 0.5808(6) 0.7095(14) 0.1494(7)
loop_
_geom_bond_atom_site_label_1
_geom_bond_atom_site_label_2
_geom_bond_site_symmetry_1
_geom_bond_site_symmetry_2
W1 O1 1_555 1_555
W2 O13 1_555 1_555
W3 O3 1_555 1_555
W4 O4 1_555 1_555
W5 O12 1_555 1_555
W6 O9 1_555 1_555
W7 O22 1_555 1_555
W8 O10 1_555 1_555
W9 O2 1_555 1_555
W10 O15 1_555 1_555
W11 O23 1_555 1_555
W12 O5 1_555 1_555
B1 O6 1_555 1_555
O2 W1 1_555 1_555
O3 W1 1_555 1_555
O4 W1 1_555 1_555
O5 W1 1_555 1_555
O6 W1 1_555 1_555
O7 W9 1_555 1_555
O8 W3 1_555 1_555
O9 W9 1_555 1_555
O10 W9 1_555 1_555
O11 W3 1_555 1_555
O12 W3 1_555 1_555
O13 W3 1_555 1_555
O14 W5 1_555 1_555
O15 W6 1_555 1_555
O16 W6 1_555 1_555
O17 W5 1_555 1_555
O18 W5 1_555 1_555
O19 W5 1_555 1_555
O20 W2 1_555 1_555
O21 W10 1_555 1_555
O22 W10 1_555 1_555
O23 W10 1_555 1_555
O24 W2 1_555 1_555
O25 W2 1_555 1_555
O26 W2 1_555 1_555
O27 W4 1_555 1_555
O28 W4 1_555 1_555
O29 W4 1_555 1_555
O30 W7 1_555 1_555
O31 W11 1_555 1_555
O32 W8 1_555 1_555
O33 W11 1_555 1_555
O34 W8 1_555 1_555
O35 W8 1_555 1_555
O36 W8 1_555 1_555
O37 W12 1_555 1_555
O38 W6 1_555 1_555
O39 W7 1_555 1_555
O40 W2 1_555 1_555
Ni1 N2 1_555 1_555
Ni2 N1 1_555 1_555
N1 C1 1_555 1_555
N2 C8 1_555 1_555
N3 Ni1 1_555 1_555
N4 C16 1_555 1_555
N5 Ni2 1_555 1_555
N6 Ni2 1_555 1_555
N7 C21 1_555 1_555
N8 H1 1_555 1_555
H2 N8 1_555 1_555
C1 H3 1_555 1_555
C2 C1 1_555 1_555
H4 C2 1_555 1_555
C3 C2 1_555 1_555
C4 C3 1_555 1_555
H5 C4 1_555 1_555
C5 N1 1_555 1_555
H6 C5 1_555 1_555
C6 C3 1_555 1_555
C7 C6 1_555 1_555
H7 C7 1_555 1_555
C8 C7 1_555 1_555
H8 C8 1_555 1_555
C9 N2 1_555 1_555
H9 C9 1_555 1_555
C10 C6 1_555 1_555
H10 C10 1_555 1_555
C11 N3 1_555 1_555
H11 C11 1_555 1_555
C12 C11 1_555 1_555
H12 C12 1_555 1_555
C13 C12 1_555 1_555
C14 C13 1_555 1_555
C15 C14 1_555 1_555
H13 C15 1_555 1_555
C16 C15 1_555 1_555
H14 C16 1_555 1_555
C17 H15 1_555 1_555
C18 C17 1_555 1_555
C19 C18 1_555 1_555
C20 C19 1_555 1_555
H16 C20 1_555 1_555
C21 N6 1_555 1_555
H17 C21 1_555 1_555
C22 N7 1_555 1_555
H18 C22 1_555 1_555
C23 N6 1_555 1_555
H19 C23 1_555 1_555
C24 N7 1_555 1_555
H20 C24 1_555 1_555
H21 C24 1_555 1_555
C25 N8 1_555 1_555
H22 C25 1_555 1_555
C26 C25 1_555 1_555
H23 C26 1_555 1_555
H24 C26 1_555 1_555
C27 C26 1_555 1_555
H25 C27 1_555 1_555
H26 C27 1_555 1_555
C28 N8 1_555 1_555
H27 C28 1_555 1_555
H28 C28 1_555 1_555
N9 Ni1 1_555 1_555
C29 H29 1_555 1_555
H30 C29 1_555 1_555
H31 C29 1_555 1_555
C30 N9 1_555 1_555
C31 C20 1_555 1_555
H32 C31 1_555 1_555
N10 C31 1_555 1_555
C32 N5 1_555 1_555
H33 C32 1_555 1_555
C33 H34 1_555 1_555
C34 C33 1_555 1_555
H35 C34 1_555 1_555
H36 C34 1_555 1_555
N11 C33 1_555 1_555
H37 N11 1_555 1_555
H38 N11 1_555 1_555
C35 N11 1_555 1_555
H39 C35 1_555 1_555
H40 C35 1_555 1_555
C36 C35 1_555 1_555
H41 C36 1_555 1_555
H42 C36 1_555 1_555
C37 H43 1_555 1_555
C38 C37 1_555 1_555
H44 C38 1_555 1_555
N12 C34 1_555 1_555
C39 N12 1_555 1_555
H45 C39 1_555 1_555
N13 C38 1_555 1_555
H46 N13 1_555 1_555
C40 C33 1_555 1_555
H47 C40 1_555 1_555
H48 C40 1_555 1_555
C11A N3 1_555 1_555
H11A C11A 1_555 1_555
C12A C13 1_555 1_555
H12A C12A 1_555 1_555
C15A C14 1_555 1_555
H13A C15A 1_555 1_555
C16A N4 1_555 1_555
H14A C16A 1_555 1_555
C17A C18 1_555 1_555
H15A C17A 1_555 1_555
C20A C19 1_555 1_555
H16A C20A 1_555 1_555
C31A N10 1_555 1_555
H32A C31A 1_555 1_555
C32A N5 1_555 1_555
H33A C32A 1_555 1_555
N1A Ni2 1_555 1_555
N2A C8A 1_555 1_555
N6A Ni2 1_555 1_555
N7A C21A 1_555 1_555
N8A H1A 1_555 1_555
H2A N8A 1_555 1_555
C1A N1A 1_555 1_555
H3A C1A 1_555 1_555
C2A C1A 1_555 1_555
H4A C2A 1_555 1_555
C3A C2A 1_555 1_555
C4A C3A 1_555 1_555
H5A C4A 1_555 1_555
C5A N1A 1_555 1_555
H6A C5A 1_555 1_555
C6A C3A 1_555 1_555
C7A C6A 1_555 1_555
H7A C7A 1_555 1_555
C8A C7A 1_555 1_555
H8A C8A 1_555 1_555
C9A N2A 1_555 1_555
H9A C9A 1_555 1_555
C10A C6A 1_555 1_555
H10A C10A 1_555 1_555
C21A N6A 1_555 1_555
H17A C21A 1_555 1_555
C22A N7A 1_555 1_555
H18A C22A 1_555 1_555
C23A N6A 1_555 1_555
H19A C23A 1_555 1_555
C24A N7A 1_555 1_555
H20A C24A 1_555 1_555
H21A C24A 1_555 1_555
C25A N8A 1_555 1_555
H22A C25A 1_555 1_555
C26A C25A 1_555 1_555
H23A C26A 1_555 1_555
H24A C26A 1_555 1_555
C27A C26A 1_555 1_555
H25A C27A 1_555 1_555
H26A C27A 1_555 1_555
C28A N8A 1_555 1_555
H27A C28A 1_555 1_555
H28A C28A 1_555 1_555
N9A Ni1 1_555 1_555
C29A H29A 1_555 1_555
H30A C29A 1_555 1_555
H31A C29A 1_555 1_555
C30A N9A 1_555 1_555
Ni1_2 N2A 1_555 1_555
Ni1_3 N4 1_555 1_555
Ni2_2 N10 1_555 1_555
N2A_2 Ni1 1_555 1_555
N4_2 Ni1 1_555 1_555
N10_2 Ni2 1_555 1_555
W3 O6 1_555 1_555
W4 O24 1_555 1_555
W4 O26 1_555 1_555
W5 O20 1_555 1_555
W6 O14 1_555 1_555
W6 O17 1_555 1_555
W7 O25 1_555 1_555
W7 O26 1_555 1_555
W7 O28 1_555 1_555
W8 O16 1_555 1_555
W9 O6 1_555 1_555
W9 O8 1_555 1_555
W10 O17 1_555 1_555
W10 O19 1_555 1_555
W11 O30 1_555 1_555
W11 O32 1_555 1_555
W11 O34 1_555 1_555
W12 O29 1_555 1_555
W12 O33 1_555 1_555
W12 O34 1_555 1_555
W12 O36 1_555 1_555
B1 O17 1_555 1_555
B1 O26 1_555 1_555
B1 O34 1_555 1_555
C4 C5 1_555 1_555
C9 C10 1_555 1_555
C17 C32 1_555 1_555
C22 C23 1_555 1_555
C24 C25 1_555 1_555
C27 C28 1_555 1_555
C29 C30 1_555 1_555
C36 C40 1_555 1_555
C37 N12 1_555 1_555
C39 N13 1_555 1_555
C11A C12A 1_555 1_555
C15A C16A 1_555 1_555
C17A C32A 1_555 1_555
C20A C31A 1_555 1_555
C4A C5A 1_555 1_555
C9A C10A 1_555 1_555
C22A C23A 1_555 1_555
C24A C25A 1_555 1_555
C27A C28A 1_555 1_555
C29A C30A 1_555 1_555

#END
