
#######################################################################
#
#                 Cambridge Crystallographic Data Centre
#                                CCDC 
#
#######################################################################
#
# If this CIF has been generated from an entry in the Cambridge 
# Structural Database, then it will include bibliographic, chemical, 
# crystal, experimental, refinement or atomic coordinate data resulting 
# from the CCDC's data processing and validation procedures.
#
#######################################################################

data_FIFMAK
_symmetry_cell_setting           monoclinic
_symmetry_space_group_name_H-M   'C 2'
_symmetry_Int_Tables_number      5
_space_group_name_Hall           'C 2y'
loop_
_symmetry_equiv_pos_site_id
_symmetry_equiv_pos_as_xyz
1 x,y,z
2 -x,y,-z
3 1/2+x,1/2+y,z
4 1/2-x,1/2+y,-z
_cell_length_a                   25.187(4)
_cell_length_b                   11.4826(17)
_cell_length_c                   22.862(4)
_cell_angle_alpha                90
_cell_angle_beta                 90.373(3)
_cell_angle_gamma                90
_cell_volume                     6611.83
loop_
_atom_site_label
_atom_site_type_symbol
_atom_site_fract_x
_atom_site_fract_y
_atom_site_fract_z
W1 W 0.664101(13) 0.06997(3) 0.637529(17)
O1 O 0.6533(2) 0.1874(5) 0.5948(3)
O2 O 0.7400(2) 0.0640(5) 0.6314(3)
O3 O 0.6606(2) -0.0495(5) 0.5806(3)
O4 O 0.6725(2) 0.1466(6) 0.7117(3)
O5 O 0.5939(2) 0.0346(5) 0.6621(3)
O6 O 0.6881(2) -0.1086(5) 0.6853(2)
W2 W 0.778725(13) -0.07016(3) 0.661980(17)
W3 W 0.678516(14) -0.20778(3) 0.596889(17)
W4 W 0.656261(14) 0.14043(3) 0.791521(17)
W5 W 0.547012(14) -0.00840(3) 0.720976(18)
B1 B 0.6673(3) -0.1415(8) 0.7434(4)
O7 O 0.8390(2) -0.0385(6) 0.6316(3)
O8 O 0.7519(2) -0.1551(5) 0.5999(3)
O9 O 0.7944(2) -0.2060(5) 0.7012(3)
O10 O 0.7835(2) 0.0116(5) 0.7362(3)
O11 O 0.6777(2) -0.2636(7) 0.5276(3)
O12 O 0.6975(2) -0.3405(5) 0.6392(3)
O13 O 0.6066(2) -0.2335(5) 0.6198(3)
O14 O 0.7301(2) 0.1431(6) 0.8115(3)
O15 O 0.6830(2) -0.0569(5) 0.7918(3)
O16 O 0.6434(2) 0.2833(6) 0.8047(3)
O17 O 0.5879(2) 0.0867(6) 0.7711(3)
O18 O 0.6433(2) 0.0865(5) 0.8704(3)
O19 O 0.5184(2) -0.0874(6) 0.7874(3)
O20 O 0.6087(2) -0.1608(5) 0.7418(3)
O21 O 0.5254(2) -0.1403(5) 0.6730(3)
O22 O 0.4938(2) 0.0784(5) 0.7078(3)
O23 O 0.6939(2) -0.2632(5) 0.7608(3)
W6 W 0.786625(14) -0.30228(3) 0.770029(18)
W7 W 0.770178(14) -0.00152(3) 0.816363(17)
W8 W 0.683618(14) -0.43734(3) 0.705391(18)
W9 W 0.560012(13) -0.28562(3) 0.676565(17)
W10 W 0.661851(14) -0.07022(4) 0.891400(17)
W11 W 0.553725(14) -0.22493(3) 0.818252(18)
W12 W 0.678905(14) -0.37021(3) 0.847166(17)
O24 O 0.7592(2) -0.4237(6) 0.7225(3)
O25 O 0.8502(2) -0.3518(6) 0.7784(3)
O26 O 0.7538(2) -0.3715(5) 0.8354(3)
O27 O 0.7867(2) -0.1596(6) 0.8130(3)
O28 O 0.82854(19) 0.0547(5) 0.8427(3)
O29 O 0.7336(2) -0.0291(5) 0.8881(3)
O30 O 0.6868(2) -0.5697(6) 0.6724(3)
O31 O 0.6734(2) -0.4800(6) 0.7835(3)
O32 O 0.6122(2) -0.3981(5) 0.6942(3)
O33 O 0.5301(2) -0.3096(5) 0.7521(3)
O34 O 0.5158(2) -0.3662(6) 0.6361(3)
O35 O 0.6844(2) -0.2312(5) 0.8873(3)
O36 O 0.6519(3) -0.0564(5) 0.9649(3)
O37 O 0.5947(2) -0.1255(5) 0.8673(3)
O38 O 0.6059(2) -0.3395(5) 0.8352(3)
O39 O 0.5049(2) -0.2670(5) 0.8634(3)
O40 O 0.6773(2) -0.4668(6) 0.9035(3)
Ni1 Ni 1.0000 -0.13086(14) 0.0000
Ni2 Ni 1.0000 -0.13870(13) -0.5000
N1 N 0.9990(3) -0.1349(7) -0.0959(3)
N2 N 1.0017(2) -0.1371(6) -0.4056(3)
N3 N 1.0000 0.0598(11) 0.0000
N4 N 1.0000 0.0546(9) -0.5000
N5 N 0.9161(3) -0.1350(7) -0.0003(3)
N6 N 0.8348(3) -0.1991(6) 0.0034(3)
N7 N 0.6913(3) -0.2706(9) 0.0472(5)
H1 H 0.6971 -0.3414 0.0629
H2 H 0.6764 -0.2792 0.0115
N8 N 0.9159(2) -0.1399(6) -0.4991(3)
C1 C 1.0367(4) -0.0754(9) -0.1241(5)
H3 H 1.0616 -0.0318 -0.1033
C2 C 1.0382(3) -0.0794(8) -0.1845(4)
H4 H 1.0659 -0.0427 -0.2040
C3 C 0.9998(3) -0.1364(8) -0.2162(4)
C4 C 0.9613(3) -0.1992(9) -0.1860(4)
H5 H 0.9354 -0.2421 -0.2056
C5 C 0.9631(3) -0.1948(8) -0.1240(4)
H6 H 0.9379 -0.2360 -0.1027
C6 C 1.0011(3) -0.1373(8) -0.2821(4)
C7 C 1.0479(4) -0.1411(8) -0.3127(4)
H7 H 1.0805 -0.1452 -0.2934
C8 C 1.0449(3) -0.1386(7) -0.3730(4)
H8 H 1.0771 -0.1378 -0.3928
C9 C 0.9584(3) -0.1324(8) -0.3752(4)
H9 H 0.9268 -0.1257 -0.3963
C10 C 0.9542(4) -0.1362(9) -0.3141(4)
H10 H 0.9213 -0.1379 -0.2959
C11 C 1.0424(4) 0.1235(10) -0.0135(5)
H11 H 1.0724 0.0818 -0.0247
C12 C 1.0479(5) 0.2441(10) -0.0131(5)
H12 H 1.0791 0.2849 -0.0206
C13 C 1.0000 0.2927(17) 0.0000
C14 C 1.0000 0.4356(19) 0.0000
C15 C 1.0187(7) 0.5070(17) -0.0532(9)
H13 H 1.0307 0.4738 -0.0878
C16 C 1.0158(5) 0.6309(14) -0.0435(7)
H14 H 1.0275 0.6765 -0.0745
C17 C 1.0455(3) 0.1113(7) -0.5005(4)
H15 H 1.0774 0.0705 -0.5025
C18 C 1.0457(3) 0.2377(7) -0.4979(4)
H16 H 1.0778 0.2771 -0.4949
C19 C 1.0000 0.2988(9) -0.5000
C20 C 1.0000 0.4270(11) -0.5000
C21 C 1.0332(3) 0.4888(8) -0.4628(4)
H17 H 1.0566 0.4502 -0.4378
C22 C 1.0308(3) 0.6116(7) -0.4637(4)
H18 H 1.0520 0.6523 -0.4373
C23 C 0.8833(3) -0.2099(9) 0.0232(5)
H19 H 0.8934 -0.2647 0.0511
C24 C 0.8359(4) -0.1131(9) -0.0373(4)
H20 H 0.8072 -0.0862 -0.0592
C25 C 0.8870(3) -0.0731(9) -0.0400(4)
H21 H 0.8995 -0.0146 -0.0644
C26 C 0.7881(3) -0.2737(7) 0.0169(4)
H22 H 0.7986 -0.3344 0.0441
H23 H 0.7754 -0.3106 -0.0187
C27 C 0.7428(3) -0.1994(8) 0.0441(4)
H24 H 0.7368 -0.1300 0.0199
C28 C 0.7513(3) -0.1640(8) 0.1050(4)
H25 H 0.7673 -0.2271 0.1270
H26 H 0.7748 -0.0972 0.1067
C29 C 0.6998(5) -0.1341(10) 0.1295(7)
H27 H 0.6956 -0.0502 0.1308
H28 H 0.6973 -0.1638 0.1691
C30 C 0.6542(5) -0.1901(11) 0.0898(5)
H29 H 0.6347 -0.1315 0.0679
H30 H 0.6297 -0.2367 0.1125
C31 C 0.8724(3) -0.1210(7) -0.5070(4)
C32 C 0.8190(4) -0.0916(9) -0.5211(5)
H31 H 0.8156 -0.0084 -0.5236
H32 H 0.7959 -0.1206 -0.4912
H33 H 0.8094 -0.1258 -0.5580
N9 N 1.0000 0.6730(8) -0.5000
N10 N 1.0000 0.6866(14) 0.0000
C11A C 0.9576(4) 0.1235(10) 0.0135(5)
H11A H 0.9276 0.0818 0.0247
C12A C 0.9521(5) 0.2441(10) 0.0131(5)
H12A H 0.9209 0.2849 0.0206
C15A C 0.9813(7) 0.5070(17) 0.0532(9)
H13A H 0.9693 0.4738 0.0878
C16A C 0.9842(5) 0.6309(14) 0.0435(7)
H14A H 0.9725 0.6765 0.0745
C17A C 0.9545(3) 0.1113(7) -0.4995(4)
H15A H 0.9226 0.0705 -0.4975
C18A C 0.9543(3) 0.2377(7) -0.5021(4)
H16A H 0.9222 0.2771 -0.5051
C21A C 0.9668(3) 0.4888(8) -0.5372(4)
H17A H 0.9434 0.4502 -0.5622
C22A C 0.9692(3) 0.6116(7) -0.5363(4)
H18A H 0.9480 0.6523 -0.5627
N1A N 1.0010(3) -0.1349(7) -0.9041(3)
N2A N 0.9983(2) -0.1371(6) -0.5944(3)
N8A N 1.0841(2) -0.1399(6) -0.5009(3)
C1A C 0.9633(4) -0.0754(9) -0.8759(5)
H3A H 0.9384 -0.0318 -0.8967
C2A C 0.9618(3) -0.0794(8) -0.8155(4)
H4A H 0.9341 -0.0427 -0.7960
C3A C 1.0002(3) -0.1364(8) -0.7838(4)
C4A C 1.0387(3) -0.1992(9) -0.8140(4)
H5A H 1.0646 -0.2421 -0.7944
C5A C 1.0369(3) -0.1948(8) -0.8760(4)
H6A H 1.0621 -0.2360 -0.8973
C6A C 0.9989(3) -0.1373(8) -0.7179(4)
C7A C 0.9521(4) -0.1411(8) -0.6873(4)
H7A H 0.9195 -0.1452 -0.7066
C8A C 0.9551(3) -0.1386(7) -0.6270(4)
H8A H 0.9229 -0.1378 -0.6072
C9A C 1.0416(3) -0.1324(8) -0.6248(4)
H9A H 1.0732 -0.1257 -0.6037
C10A C 1.0458(4) -0.1362(9) -0.6859(4)
H10A H 1.0787 -0.1379 -0.7041
C31A C 1.1276(3) -0.1210(7) -0.4930(4)
C32A C 1.1810(4) -0.0916(9) -0.4789(5)
H31A H 1.1844 -0.0084 -0.4764
H32A H 1.2041 -0.1206 -0.5088
H33A H 1.1906 -0.1258 -0.4420
N5A N 1.0839(3) -0.1350(7) 0.0003(3)
N6A N 1.1652(3) -0.1991(6) -0.0034(3)
N7A N 1.3087(3) -0.2706(9) -0.0472(5)
H1A H 1.3029 -0.3414 -0.0629
H2A H 1.3236 -0.2792 -0.0115
C23A C 1.1167(3) -0.2099(9) -0.0232(5)
H19A H 1.1066 -0.2647 -0.0511
C24A C 1.1641(4) -0.1131(9) 0.0373(4)
H20A H 1.1928 -0.0862 0.0592
C25A C 1.1130(3) -0.0731(9) 0.0400(4)
H21A H 1.1005 -0.0146 0.0644
C26A C 1.2119(3) -0.2737(7) -0.0169(4)
H22A H 1.2014 -0.3344 -0.0441
H23A H 1.2246 -0.3106 0.0187
C27A C 1.2572(3) -0.1994(8) -0.0441(4)
H24A H 1.2632 -0.1300 -0.0199
C28A C 1.2487(3) -0.1640(8) -0.1050(4)
H25A H 1.2327 -0.2271 -0.1270
H26A H 1.2252 -0.0972 -0.1067
C29A C 1.3002(5) -0.1341(10) -0.1295(7)
H27A H 1.3044 -0.0502 -0.1308
H28A H 1.3027 -0.1638 -0.1691
C30A C 1.3458(5) -0.1901(11) -0.0898(5)
H29A H 1.3653 -0.1315 -0.0679
H30A H 1.3703 -0.2367 -0.1125
Ni1_2 Ni 1.0000 -0.13086(14) -1.0000
Ni1_3 Ni 1.0000 0.86914(14) 0.0000
Ni2_2 Ni 1.0000 0.86130(13) -0.5000
N1A_2 N 1.0010(3) -0.1349(7) 0.0959(3)
N9_2 N 1.0000 -0.3270(8) -0.5000
N10_2 N 1.0000 -0.3134(14) 0.0000
N11 N 0.5938(4) -0.2765(9) 0.2275(5)
H34 H 0.5903 -0.2838 0.1902
N12 N 0.5983(3) -0.2005(8) 0.3153(4)
N13 N 0.6091(3) 0.0776(9) 0.4049(4)
H35 H 0.5910 0.1367 0.3882
H36 H 0.5886 0.0445 0.4324
C33 C 0.5896(4) -0.1835(11) 0.2609(5)
H37 H 0.5810 -0.1106 0.2459
C34 C 0.6047(4) -0.3534(11) 0.2669(5)
H38 H 0.6115 -0.4311 0.2582
C35 C 0.6053(4) -0.3124(11) 0.3200(6)
H39 H 0.6099 -0.3546 0.3544
C36 C 0.5892(4) -0.1169(9) 0.3661(5)
H40 H 0.5969 -0.1561 0.4028
H41 H 0.5523 -0.0929 0.3665
C37 C 0.6249(4) -0.0096(9) 0.3602(5)
H42 H 0.6201 0.0240 0.3211
C38 C 0.6837(3) -0.0326(8) 0.3710(4)
H43 H 0.6900 -0.1154 0.3755
H44 H 0.7044 -0.0045 0.3383
C39 C 0.6981(4) 0.0279(8) 0.4232(5)
H45 H 0.7335 0.0603 0.4198
H46 H 0.6976 -0.0247 0.4564
C40 C 0.6596(4) 0.1196(10) 0.4308(5)
H47 H 0.6712 0.1899 0.4112
H48 H 0.6550 0.1366 0.4720
O41 O 0.7210(2) -0.2052(6) 0.2815(3)
O42 O 0.6999(3) -0.2533(6) 0.4117(3)
loop_
_geom_bond_atom_site_label_1
_geom_bond_atom_site_label_2
_geom_bond_site_symmetry_1
_geom_bond_site_symmetry_2
W1 O1 1_555 1_555
O2 W1 1_555 1_555
O3 W1 1_555 1_555
O4 W1 1_555 1_555
O5 W1 1_555 1_555
O6 W1 1_555 1_555
W2 O2 1_555 1_555
W3 O3 1_555 1_555
W4 O4 1_555 1_555
W5 O5 1_555 1_555
B1 O6 1_555 1_555
O7 W2 1_555 1_555
O8 W2 1_555 1_555
O9 W2 1_555 1_555
O10 W2 1_555 1_555
O11 W3 1_555 1_555
O12 W3 1_555 1_555
O13 W3 1_555 1_555
O14 W4 1_555 1_555
O15 W4 1_555 1_555
O16 W4 1_555 1_555
O17 W4 1_555 1_555
O18 W4 1_555 1_555
O19 W5 1_555 1_555
O20 W5 1_555 1_555
O21 W5 1_555 1_555
O22 W5 1_555 1_555
O23 B1 1_555 1_555
W6 O9 1_555 1_555
W7 O10 1_555 1_555
W8 O12 1_555 1_555
W9 O13 1_555 1_555
W10 O15 1_555 1_555
W11 O19 1_555 1_555
W12 O23 1_555 1_555
O24 W6 1_555 1_555
O25 W6 1_555 1_555
O26 W6 1_555 1_555
O27 W6 1_555 1_555
O28 W7 1_555 1_555
O29 W7 1_555 1_555
O30 W8 1_555 1_555
O31 W8 1_555 1_555
O32 W8 1_555 1_555
O33 W9 1_555 1_555
O34 W9 1_555 1_555
O35 W10 1_555 1_555
O36 W10 1_555 1_555
O37 W10 1_555 1_555
O38 W11 1_555 1_555
O39 W11 1_555 1_555
O40 W12 1_555 1_555
Ni1 N1 1_555 1_555
Ni2 N2 1_555 1_555
N1 C1 1_555 1_555
N2 C8 1_555 1_555
N3 Ni1 1_555 1_555
N4 Ni2 1_555 1_555
N5 Ni1 1_555 1_555
N6 C23 1_555 1_555
N7 H1 1_555 1_555
H2 N7 1_555 1_555
N8 Ni2 1_555 1_555
C1 H3 1_555 1_555
C2 C1 1_555 1_555
H4 C2 1_555 1_555
C3 C2 1_555 1_555
C4 C3 1_555 1_555
H5 C4 1_555 1_555
C5 N1 1_555 1_555
H6 C5 1_555 1_555
C6 C3 1_555 1_555
C7 C6 1_555 1_555
H7 C7 1_555 1_555
C8 C7 1_555 1_555
H8 C8 1_555 1_555
C9 N2 1_555 1_555
H9 C9 1_555 1_555
C10 C6 1_555 1_555
H10 C10 1_555 1_555
C11 N3 1_555 1_555
H11 C11 1_555 1_555
C12 C11 1_555 1_555
H12 C12 1_555 1_555
C13 C12 1_555 1_555
C14 C13 1_555 1_555
C15 C14 1_555 1_555
H13 C15 1_555 1_555
C16 C15 1_555 1_555
H14 C16 1_555 1_555
C17 N4 1_555 1_555
H15 C17 1_555 1_555
C18 C17 1_555 1_555
H16 C18 1_555 1_555
C19 C18 1_555 1_555
C20 C19 1_555 1_555
C21 C20 1_555 1_555
H17 C21 1_555 1_555
C22 C21 1_555 1_555
H18 C22 1_555 1_555
C23 N5 1_555 1_555
H19 C23 1_555 1_555
C24 N6 1_555 1_555
H20 C24 1_555 1_555
C25 N5 1_555 1_555
H21 C25 1_555 1_555
C26 N6 1_555 1_555
H22 C26 1_555 1_555
H23 C26 1_555 1_555
C27 N7 1_555 1_555
H24 C27 1_555 1_555
C28 C27 1_555 1_555
H25 C28 1_555 1_555
H26 C28 1_555 1_555
C29 C28 1_555 1_555
H27 C29 1_555 1_555
H28 C29 1_555 1_555
C30 N7 1_555 1_555
H29 C30 1_555 1_555
H30 C30 1_555 1_555
C31 N8 1_555 1_555
C32 C31 1_555 1_555
H31 C32 1_555 1_555
H32 C32 1_555 1_555
H33 C32 1_555 1_555
N9 C22 1_555 1_555
N10 C16 1_555 1_555
N11 H34 1_555 1_555
N12 C33 1_555 1_555
N13 H35 1_555 1_555
H36 N13 1_555 1_555
C33 N11 1_555 1_555
H37 C33 1_555 1_555
C34 N11 1_555 1_555
H38 C34 1_555 1_555
C35 N12 1_555 1_555
H39 C35 1_555 1_555
C36 N12 1_555 1_555
H40 C36 1_555 1_555
H41 C36 1_555 1_555
C37 N13 1_555 1_555
H42 C37 1_555 1_555
C38 C37 1_555 1_555
H43 C38 1_555 1_555
H44 C38 1_555 1_555
C39 C38 1_555 1_555
H45 C39 1_555 1_555
H46 C39 1_555 1_555
C40 N13 1_555 1_555
H47 C40 1_555 1_555
H48 C40 1_555 1_555
C11A N3 1_555 1_555
H11A C11A 1_555 1_555
C12A C13 1_555 1_555
H12A C12A 1_555 1_555
C15A C14 1_555 1_555
H13A C15A 1_555 1_555
C16A N10 1_555 1_555
H14A C16A 1_555 1_555
C17A N4 1_555 1_555
H15A C17A 1_555 1_555
C18A C19 1_555 1_555
H16A C18A 1_555 1_555
C21A C20 1_555 1_555
H17A C21A 1_555 1_555
C22A N9 1_555 1_555
H18A C22A 1_555 1_555
N1A C1A 1_555 1_555
N2A Ni2 1_555 1_555
N8A Ni2 1_555 1_555
C1A H3A 1_555 1_555
C2A C1A 1_555 1_555
H4A C2A 1_555 1_555
C3A C2A 1_555 1_555
C4A C3A 1_555 1_555
H5A C4A 1_555 1_555
C5A N1A 1_555 1_555
H6A C5A 1_555 1_555
C6A C3A 1_555 1_555
C7A C6A 1_555 1_555
H7A C7A 1_555 1_555
C8A N2A 1_555 1_555
H8A C8A 1_555 1_555
C9A N2A 1_555 1_555
H9A C9A 1_555 1_555
C10A C6A 1_555 1_555
H10A C10A 1_555 1_555
C31A N8A 1_555 1_555
C32A C31A 1_555 1_555
H31A C32A 1_555 1_555
H32A C32A 1_555 1_555
H33A C32A 1_555 1_555
N5A Ni1 1_555 1_555
N6A C23A 1_555 1_555
N7A H1A 1_555 1_555
H2A N7A 1_555 1_555
C23A N5A 1_555 1_555
H19A C23A 1_555 1_555
C24A N6A 1_555 1_555
H20A C24A 1_555 1_555
C25A N5A 1_555 1_555
H21A C25A 1_555 1_555
C26A N6A 1_555 1_555
H22A C26A 1_555 1_555
H23A C26A 1_555 1_555
C27A N7A 1_555 1_555
H24A C27A 1_555 1_555
C28A C27A 1_555 1_555
H25A C28A 1_555 1_555
H26A C28A 1_555 1_555
C29A C28A 1_555 1_555
H27A C29A 1_555 1_555
H28A C29A 1_555 1_555
C30A N7A 1_555 1_555
H29A C30A 1_555 1_555
H30A C30A 1_555 1_555
Ni1_2 N1A 1_555 1_555
Ni1_3 N10 1_555 1_555
Ni2_2 N9 1_555 1_555
N1A_2 Ni1 1_555 1_555
N9_2 Ni2 1_555 1_555
N10_2 Ni1 1_555 1_555
O6 W2 1_555 1_555
O6 W3 1_555 1_555
W3 O8 1_555 1_555
W5 O17 1_555 1_555
B1 O15 1_555 1_555
B1 O20 1_555 1_555
O14 W7 1_555 1_555
O15 W7 1_555 1_555
O18 W10 1_555 1_555
O20 W9 1_555 1_555
O20 W11 1_555 1_555
O21 W9 1_555 1_555
O23 W6 1_555 1_555
O23 W8 1_555 1_555
W7 O27 1_555 1_555
W8 O24 1_555 1_555
W9 O32 1_555 1_555
W10 O29 1_555 1_555
W11 O33 1_555 1_555
W11 O37 1_555 1_555
W12 O26 1_555 1_555
W12 O31 1_555 1_555
W12 O35 1_555 1_555
W12 O38 1_555 1_555
C4 C5 1_555 1_555
C9 C10 1_555 1_555
C24 C25 1_555 1_555
C26 C27 1_555 1_555
C29 C30 1_555 1_555
C34 C35 1_555 1_555
C36 C37 1_555 1_555
C39 C40 1_555 1_555
C11A C12A 1_555 1_555
C15A C16A 1_555 1_555
C17A C18A 1_555 1_555
C21A C22A 1_555 1_555
C4A C5A 1_555 1_555
C7A C8A 1_555 1_555
C9A C10A 1_555 1_555
C24A C25A 1_555 1_555
C26A C27A 1_555 1_555
C29A C30A 1_555 1_555

#END
