
#######################################################################
#
#                 Cambridge Crystallographic Data Centre
#                                CCDC 
#
#######################################################################
#
# If this CIF has been generated from an entry in the Cambridge 
# Structural Database, then it will include bibliographic, chemical, 
# crystal, experimental, refinement or atomic coordinate data resulting 
# from the CCDC's data processing and validation procedures.
#
#######################################################################

data_FIFNIS
_symmetry_cell_setting           tetragonal
_symmetry_space_group_name_H-M   'P 41 21 2'
_symmetry_Int_Tables_number      92
_space_group_name_Hall           'P 4abw 2nw'
loop_
_symmetry_equiv_pos_site_id
_symmetry_equiv_pos_as_xyz
1 x,y,z
2 -x,-y,1/2+z
3 1/2-y,1/2+x,1/4+z
4 1/2+y,1/2-x,3/4+z
5 1/2-x,1/2+y,1/4-z
6 1/2+x,1/2-y,3/4-z
7 y,x,-z
8 -y,-x,1/2-z
_cell_length_a                   8.1469(2)
_cell_length_b                   8.1469(2)
_cell_length_c                   17.8046(5)
_cell_angle_alpha                90
_cell_angle_beta                 90
_cell_angle_gamma                90
_cell_volume                     1181.73
loop_
_atom_site_label
_atom_site_type_symbol
_atom_site_fract_x
_atom_site_fract_y
_atom_site_fract_z
Mn1 Mn 0.25991(3) 0.25991(3) 0.0000
O1 O 0.12556(15) 0.40041(16) 0.08716(7)
O2 O 0.10093(15) 0.60395(15) 0.17023(7)
N1 N 0.45399(13) 0.45399(13) 0.0000
N2 N 1.06538(14) 1.06538(14) 0.0000
C1 C 0.1719(2) 0.5226(2) 0.12144(9)
H1 H 0.2763 0.5596 0.1088
C2 C 0.5954(2) 0.4330(2) 0.03682(10)
H2 H 0.6109 0.3364 0.0638
C3 C 0.7194(2) 0.5480(2) 0.03661(10)
H3 H 0.8181 0.5265 0.0609
C4 C 0.69558(18) 0.69558(18) 0.0000
C5 C 0.82459(19) 0.82459(19) 0.0000
C6 C 0.98731(19) 0.7840(2) -0.01335(10)
H4 H 1.0182 0.6757 -0.0219
C7 C 1.1017(2) 0.9080(2) -0.01362(10)
H5 H 1.2103 0.8811 -0.0238
Mn1B Mn 0.24009(3) 0.75991(3) 0.2500
Mn1_2 Mn 1.25991(3) 1.25991(3) 0.0000
Mn1C Mn 0.75991(3) 0.24009(3) -0.2500
O1F O 0.40041(16) 0.12556(15) -0.08716(7)
O2F O 0.60395(15) 0.10093(15) -0.17023(7)
O2C O 0.10395(15) 0.39907(15) -0.07977(7)
O2D O 0.39907(15) 0.10395(15) 0.07977(7)
N2_2 N 0.06538(14) 0.06538(14) 0.0000
C1F C 0.5226(2) 0.1719(2) -0.12144(9)
H1F H 0.5596 0.2763 -0.1088
C2F C 0.4330(2) 0.5954(2) -0.03682(10)
H2F H 0.3364 0.6109 -0.0638
C3F C 0.5480(2) 0.7194(2) -0.03661(10)
H3F H 0.5265 0.8181 -0.0609
C6F C 0.7840(2) 0.98731(19) 0.01335(10)
H4F H 0.6757 1.0182 0.0219
C7F C 0.9080(2) 1.1017(2) 0.01362(10)
H5F H 0.8811 1.2103 0.0238
loop_
_geom_bond_atom_site_label_1
_geom_bond_atom_site_label_2
_geom_bond_site_symmetry_1
_geom_bond_site_symmetry_2
Mn1 O1 1_555 1_555
O1 C1 1_555 1_555
O2 C1 1_555 1_555
N1 Mn1 1_555 1_555
N2 C7 1_555 1_555
C1 H1 1_555 1_555
C2 N1 1_555 1_555
H2 C2 1_555 1_555
C3 C2 1_555 1_555
H3 C3 1_555 1_555
C4 C3 1_555 1_555
C5 C4 1_555 1_555
C6 C5 1_555 1_555
H4 C6 1_555 1_555
C7 C6 1_555 1_555
H5 C7 1_555 1_555
Mn1B O2 1_555 1_555
Mn1_2 N2 1_555 1_555
Mn1C O2F 1_555 1_555
O1F Mn1 1_555 1_555
O2F C1F 1_555 1_555
O2C Mn1 1_555 1_555
O2D Mn1 1_555 1_555
N2_2 Mn1 1_555 1_555
C1F O1F 1_555 1_555
H1F C1F 1_555 1_555
C2F N1 1_555 1_555
H2F C2F 1_555 1_555
C3F C4 1_555 1_555
H3F C3F 1_555 1_555
C6F C5 1_555 1_555
H4F C6F 1_555 1_555
C7F N2 1_555 1_555
H5F C7F 1_555 1_555
C2F C3F 1_555 1_555
C6F C7F 1_555 1_555

#END
