
#######################################################################
#
#                 Cambridge Crystallographic Data Centre
#                                CCDC 
#
#######################################################################
#
# If this CIF has been generated from an entry in the Cambridge 
# Structural Database, then it will include bibliographic, chemical, 
# crystal, experimental, refinement or atomic coordinate data resulting 
# from the CCDC's data processing and validation procedures.
#
#######################################################################

data_FIFNUE01
_symmetry_cell_setting           monoclinic
_symmetry_space_group_name_H-M   'C c'
_symmetry_Int_Tables_number      9
_space_group_name_Hall           'C -2yc'
loop_
_symmetry_equiv_pos_site_id
_symmetry_equiv_pos_as_xyz
1 x,y,z
2 x,-y,1/2+z
3 1/2+x,1/2+y,z
4 1/2+x,1/2-y,1/2+z
_cell_length_a                   10.5245(11)
_cell_length_b                   20.292(2)
_cell_length_c                   8.1405(8)
_cell_angle_alpha                90
_cell_angle_beta                 102.250(2)
_cell_angle_gamma                90
_cell_volume                     1698.93
loop_
_atom_site_label
_atom_site_type_symbol
_atom_site_fract_x
_atom_site_fract_y
_atom_site_fract_z
Co1 Co 0.45406(13) 0.25374(3) 0.37208(14)
O1 O 0.2962(4) 0.20260(19) 0.2226(5)
O2 O 0.5250(4) 0.2834(2) 0.1625(5)
N1 N 0.3562(5) 0.3469(2) 0.3657(6)
N2 N 0.0511(5) 0.6599(2) 0.3821(6)
C1 C 0.2441(7) 0.3546(3) 0.4202(9)
H1 H 0.2063 0.3165 0.4583
C2 C 0.4053(7) 0.4024(3) 0.3137(10)
H2 H 0.4834 0.3993 0.2734
C3 C 0.2340(6) 0.4707(3) 0.3724(8)
C4 C 0.1718(6) 0.5361(3) 0.3790(8)
C5 C -0.0050(6) 0.6041(3) 0.4148(9)
H3 H -0.0886 0.6071 0.4409
C6 C 0.1824(6) 0.4131(3) 0.4237(8)
H4 H 0.1030 0.4147 0.4616
C7 C 0.2340(7) 0.5941(3) 0.3458(9)
H5 H 0.3185 0.5927 0.3219
C8 C 0.0482(6) 0.5428(3) 0.4139(9)
H6 H 0.0015 0.5050 0.4368
O3 O 0.3927(6) 0.2313(3) 0.5917(8)
C9 C 0.1703(6) 0.6535(3) 0.3485(8)
H7 H 0.2136 0.6924 0.3252
C10 C 0.3486(7) 0.4636(3) 0.3156(10)
H8 H 0.3882 0.5011 0.2778
O4 O 0.1174(4) 0.19857(19) 0.0211(5)
C11 C 0.1953(7) 0.2276(2) 0.1349(8)
O5 O 0.5112(6) 0.2884(3) -0.1129(6)
C12 C 0.4877(7) 0.2632(3) 0.0127(9)
H9 H 0.174(5) 0.270(3) 0.144(6)
H10 H 0.431(7) 0.224(4) 0.011(8)
H11 H 0.346(8) 0.194(5) 0.599(10)
H12 H 0.415(7) 0.244(3) 0.649(10)
Co1B Co -0.04594(13) 0.75374(3) 0.37208(14)
Co1C Co -0.04594(13) 0.24626(3) -0.12792(14)
N2B N 0.5511(5) 0.1599(2) 0.3821(6)
O4C O 0.6174(4) 0.30143(19) 0.5211(5)
O6 O 0.0588(8) 0.0758(4) 0.2294(12)
O7 O 0.3531(6) 0.0922(3) 0.0136(7)
O8 O 0.2452(5) 0.1356(2) 0.6937(6)
O9 O 0.6884(8) 0.4838(3) 0.0187(10)
loop_
_geom_bond_atom_site_label_1
_geom_bond_atom_site_label_2
_geom_bond_site_symmetry_1
_geom_bond_site_symmetry_2
Co1 O1 1_555 1_555
O1 C11 1_555 1_555
O2 Co1 1_555 1_555
N1 Co1 1_555 1_555
N2 C5 1_555 1_555
C1 N1 1_555 1_555
H1 C1 1_555 1_555
C2 N1 1_555 1_555
H2 C2 1_555 1_555
C3 C4 1_555 1_555
C4 C7 1_555 1_555
C5 H3 1_555 1_555
C6 C1 1_555 1_555
H4 C6 1_555 1_555
C7 H5 1_555 1_555
C8 C4 1_555 1_555
H6 C8 1_555 1_555
O3 Co1 1_555 1_555
C9 N2 1_555 1_555
H7 C9 1_555 1_555
C10 C2 1_555 1_555
H8 C10 1_555 1_555
O4 C11 1_555 1_555
C11 H9 1_555 1_555
O5 C12 1_555 1_555
C12 O2 1_555 1_555
H10 C12 1_555 1_555
H11 O3 1_555 1_555
H12 O3 1_555 1_555
Co1B N2 1_555 1_555
Co1C O4 1_555 1_555
N2B Co1 1_555 1_555
O4C Co1 1_555 1_555
C3 C6 1_555 1_555
C3 C10 1_555 1_555
C5 C8 1_555 1_555
C7 C9 1_555 1_555

#END
