
#######################################################################
#
#                 Cambridge Crystallographic Data Centre
#                                CCDC 
#
#######################################################################
#
# If this CIF has been generated from an entry in the Cambridge 
# Structural Database, then it will include bibliographic, chemical, 
# crystal, experimental, refinement or atomic coordinate data resulting 
# from the CCDC's data processing and validation procedures.
#
#######################################################################

data_FIFNAK
_symmetry_cell_setting           triclinic
_symmetry_space_group_name_H-M   'P -1'
_symmetry_Int_Tables_number      2
_space_group_name_Hall           '-P 1'
loop_
_symmetry_equiv_pos_site_id
_symmetry_equiv_pos_as_xyz
1 x,y,z
2 -x,-y,-z
_cell_length_a                   11.7680(4)
_cell_length_b                   12.1790(4)
_cell_length_c                   12.6422(4)
_cell_angle_alpha                77.8860(10)
_cell_angle_beta                 65.2130(10)
_cell_angle_gamma                63.5380(10)
_cell_volume                     1472.05
loop_
_atom_site_label
_atom_site_type_symbol
_atom_site_fract_x
_atom_site_fract_y
_atom_site_fract_z
Cu1 Cu 1.02413(5) -0.10495(4) 0.18211(5)
Cu2 Cu 0.02090(4) 0.65724(4) 0.43853(4)
P1 P 1.23082(9) 0.32987(8) -0.11000(8)
P2 P 0.92088(9) 0.37677(8) 0.30111(7)
N1 N 1.1474(3) 0.2527(3) 0.1177(2)
N2 N 0.2001(3) 0.5294(3) 0.3783(3)
N3 N 0.8480(3) 0.0242(3) 0.2219(3)
N4 N 1.1863(3) -0.2465(3) 0.1239(3)
N5 N -0.1623(3) 0.7770(3) 0.4616(3)
C1 C 1.2103(3) 0.0321(3) 0.2020(3)
C2 C 1.3575(4) -0.0271(3) 0.1819(3)
C3 C 1.3748(3) 0.0848(3) 0.1184(3)
C4 C 1.2288(3) 0.1412(3) 0.1420(3)
C5 C 1.2072(4) 0.3367(3) 0.0397(3)
H1 H 1.2950 0.3164 0.0438
H2 H 1.1480 0.4199 0.0661
C6 C 0.9985(3) 0.2932(3) 0.1677(3)
H3 H 0.9761 0.2222 0.1843
H4 H 0.9605 0.3456 0.1111
C7 C 0.3028(4) 0.5245(3) 0.4035(3)
H5 H 0.2867 0.5880 0.4450
C8 C 0.4313(3) 0.4292(3) 0.3705(3)
H6 H 0.4986 0.4298 0.3904
C9 C 0.4602(3) 0.3327(3) 0.3079(3)
C10 C 0.3544(4) 0.3415(3) 0.2778(3)
H7 H 0.3692 0.2813 0.2330
C11 C 0.2291(4) 0.4385(4) 0.3142(4)
H8 H 0.1608 0.4415 0.2933
C12 C 0.5936(3) 0.2258(3) 0.2771(3)
C13 C 0.6787(3) 0.1992(3) 0.3368(3)
H9 H 0.6520 0.2485 0.3972
C14 C 0.8026(3) 0.1001(3) 0.3069(3)
H10 H 0.8579 0.0848 0.3480
C15 C 0.7632(4) 0.0480(4) 0.1657(4)
H11 H 0.7901 -0.0051 0.1085
C16 C 0.6393(4) 0.1472(4) 0.1894(4)
H12 H 0.5861 0.1615 0.1465
C17 C 1.2955(4) -0.2740(3) 0.1504(3)
H13 H 1.2877 -0.2250 0.2026
C18 C 1.4183(4) -0.3711(3) 0.1040(3)
H14 H 1.4908 -0.3863 0.1252
C19 C 1.4349(3) -0.4468(3) 0.0257(3)
C20 C 1.3209(4) -0.4175(3) -0.0018(4)
H15 H 1.3264 -0.4645 -0.0543
C21 C 1.2009(4) -0.3195(4) 0.0486(4)
H16 H 1.1263 -0.3029 0.0298
C22 C -0.2364(4) 0.7694(4) 0.4095(4)
H17 H -0.1972 0.7040 0.3608
C23 C -0.3671(4) 0.8527(4) 0.4236(4)
H18 H -0.4141 0.8413 0.3861
C24 C -0.4298(3) 0.9527(3) 0.4923(3)
C25 C -0.3528(4) 0.9605(4) 0.5476(4)
H19 H -0.3894 1.0258 0.5956
C26 C -0.2235(4) 0.8724(4) 0.5314(4)
H20 H -0.1759 0.8792 0.5709
O1 O 1.1112(3) 0.0008(2) 0.2513(2)
O2 O 1.4324(3) -0.1279(2) 0.2118(2)
O3 O 1.4699(3) 0.1183(2) 0.0696(2)
O4 O 1.0897(2) 0.3691(2) -0.1138(2)
O5 O 1.3125(3) 0.1922(2) -0.1410(2)
H21 H 1.3946 0.1750 -0.1635
O6 O 1.3065(2) 0.4087(2) -0.1820(2)
O7 O 0.9628(3) 0.2950(2) 0.3956(2)
O8 O 0.9604(2) 0.4869(2) 0.2709(2)
O9 O 0.7641(2) 0.4218(2) 0.3316(2)
H22 H 0.7410 0.4757 0.2844
Cu1A Cu 1.97587(5) -0.89505(4) -0.18211(5)
Cu1A_2 Cu -0.02413(5) 1.10495(4) 0.81789(5)
Cu2A Cu 0.97910(4) 0.34276(4) 0.56147(4)
Cu2A_2 Cu -1.02090(4) 1.34276(4) 0.56147(4)
Cu2A_3 Cu 2.97910(4) -1.65724(4) -0.43853(4)
P1A P -0.23082(9) 0.67013(8) 1.11000(8)
P2A P 0.07912(9) 0.62323(8) 0.69889(7)
N1A N -0.1474(3) 0.7473(3) 0.8823(2)
N2A N 2.7999(3) -1.5294(3) -0.3783(3)
N2A_2 N 0.7999(3) 0.4706(3) 0.6217(3)
N3A N 2.1520(3) -1.0242(3) -0.2219(3)
N4A N 1.8137(3) -0.7535(3) -0.1239(3)
N5A N -0.8377(3) 1.2230(3) 0.5384(3)
N5A_2 N 1.1623(3) 0.2230(3) 0.5384(3)
C1A C -0.2103(3) 0.9679(3) 0.7980(3)
C2A C -0.3575(4) 1.0271(3) 0.8181(3)
C3A C -0.3748(3) 0.9152(3) 0.8816(3)
C4A C -0.2288(3) 0.8588(3) 0.8580(3)
C5A C -0.2072(4) 0.6633(3) 0.9603(3)
H1A H -0.2950 0.6836 0.9562
H2A H -0.1480 0.5801 0.9339
C6A C 0.0015(3) 0.7068(3) 0.8323(3)
H3A H 0.0239 0.7778 0.8157
H4A H 0.0395 0.6544 0.8889
C7A C 2.6972(4) -1.5245(3) -0.4035(3)
H5A H 2.7133 -1.5880 -0.4450
C8A C 2.5687(3) -1.4292(3) -0.3705(3)
H6A H 2.5014 -1.4298 -0.3904
C9A C 2.5398(3) -1.3327(3) -0.3079(3)
C10A C 2.6456(4) -1.3415(3) -0.2778(3)
H7A H 2.6308 -1.2813 -0.2330
C11A C 2.7709(4) -1.4385(4) -0.3142(4)
H8A H 2.8392 -1.4415 -0.2933
C12A C 2.4064(3) -1.2258(3) -0.2771(3)
C13A C 2.3213(3) -1.1992(3) -0.3368(3)
H9A H 2.3480 -1.2485 -0.3972
C14A C 2.1974(3) -1.1001(3) -0.3069(3)
H10A H 2.1421 -1.0848 -0.3480
C15A C 2.2368(4) -1.0480(4) -0.1657(4)
H11A H 2.2099 -0.9949 -0.1085
C16A C 2.3607(4) -1.1472(4) -0.1894(4)
H12A H 2.4139 -1.1615 -0.1465
C17A C 1.7045(4) -0.7260(3) -0.1504(3)
H13A H 1.7123 -0.7750 -0.2026
C18A C 1.5817(4) -0.6289(3) -0.1040(3)
H14A H 1.5092 -0.6137 -0.1252
C19A C 1.5651(3) -0.5532(3) -0.0257(3)
C20A C 1.6791(4) -0.5825(3) 0.0018(4)
H15A H 1.6736 -0.5355 0.0543
C21A C 1.7991(4) -0.6805(4) -0.0486(4)
H16A H 1.8737 -0.6971 -0.0298
C22A C -0.7636(4) 1.2306(4) 0.5905(4)
H17A H -0.8028 1.2960 0.6392
C23A C -0.6329(4) 1.1473(4) 0.5764(4)
H18A H -0.5859 1.1587 0.6139
C24A C -0.5702(3) 1.0473(3) 0.5077(3)
C25A C -0.6472(4) 1.0395(4) 0.4524(4)
H19A H -0.6106 0.9742 0.4044
C26A C -0.7765(4) 1.1276(4) 0.4686(4)
H20A H -0.8241 1.1208 0.4291
O1A O -0.1112(3) 0.9992(2) 0.7487(2)
O1A_2 O 1.8888(3) -1.0008(2) -0.2513(2)
O2A O -0.4324(3) 1.1279(2) 0.7882(2)
O3A O -0.4699(3) 0.8817(2) 0.9304(2)
O4A O -0.0897(2) 0.6309(2) 1.1138(2)
O5A O -0.3125(3) 0.8078(2) 1.1410(2)
H21A H -0.3946 0.8250 1.1635
O6A O -0.3065(2) 0.5913(2) 1.1820(2)
O7A O 0.0372(3) 0.7050(2) 0.6044(2)
O8A O 0.0396(2) 0.5131(2) 0.7291(2)
O9A O 0.2359(2) 0.5782(2) 0.6684(2)
H22A H 0.2590 0.5243 0.7156
O10 O 1.1668(4) -0.1422(4) 0.4509(4)
O11 O 1.4558(4) -0.3083(3) 0.4027(3)
loop_
_geom_bond_atom_site_label_1
_geom_bond_atom_site_label_2
_geom_bond_site_symmetry_1
_geom_bond_site_symmetry_2
Cu1 N3 1_555 1_555
Cu2 N2 1_555 1_555
P1 C5 1_555 1_555
P2 C6 1_555 1_555
N1 C4 1_555 1_555
N2 C7 1_555 1_555
N3 C14 1_555 1_555
N4 Cu1 1_555 1_555
N5 Cu2 1_555 1_555
C1 C2 1_555 1_555
C2 C3 1_555 1_555
C3 C4 1_555 1_555
C4 C1 1_555 1_555
C5 N1 1_555 1_555
H1 C5 1_555 1_555
H2 C5 1_555 1_555
C6 N1 1_555 1_555
H3 C6 1_555 1_555
H4 C6 1_555 1_555
C7 H5 1_555 1_555
C8 C7 1_555 1_555
H6 C8 1_555 1_555
C9 C8 1_555 1_555
C10 C9 1_555 1_555
H7 C10 1_555 1_555
C11 N2 1_555 1_555
H8 C11 1_555 1_555
C12 C9 1_555 1_555
C13 C12 1_555 1_555
H9 C13 1_555 1_555
C14 C13 1_555 1_555
H10 C14 1_555 1_555
C15 N3 1_555 1_555
H11 C15 1_555 1_555
C16 C12 1_555 1_555
H12 C16 1_555 1_555
C17 N4 1_555 1_555
H13 C17 1_555 1_555
C18 C17 1_555 1_555
H14 C18 1_555 1_555
C19 C18 1_555 1_555
C20 C19 1_555 1_555
H15 C20 1_555 1_555
C21 N4 1_555 1_555
H16 C21 1_555 1_555
C22 N5 1_555 1_555
H17 C22 1_555 1_555
C23 C22 1_555 1_555
H18 C23 1_555 1_555
C24 C23 1_555 1_555
C25 C24 1_555 1_555
H19 C25 1_555 1_555
C26 N5 1_555 1_555
H20 C26 1_555 1_555
O1 Cu1 1_555 1_555
O2 C2 1_555 1_555
O3 C3 1_555 1_555
O4 P1 1_555 1_555
O5 P1 1_555 1_555
H21 O5 1_555 1_555
O6 P1 1_555 1_555
O7 P2 1_555 1_555
O8 P2 1_555 1_555
O9 P2 1_555 1_555
H22 O9 1_555 1_555
Cu1A N3A 1_555 1_555
Cu1A_2 O1A 1_555 1_555
Cu2A O7 1_555 1_555
Cu2A_2 N5A 1_555 1_555
Cu2A_3 N2A 1_555 1_555
P1A C5A 1_555 1_555
P2A C6A 1_555 1_555
N1A C4A 1_555 1_555
N2A C7A 1_555 1_555
N2A_2 Cu2A 1_555 1_555
N3A C14A 1_555 1_555
N4A Cu1A 1_555 1_555
N5A C22A 1_555 1_555
N5A_2 Cu2A 1_555 1_555
C1A C2A 1_555 1_555
C2A C3A 1_555 1_555
C3A C4A 1_555 1_555
C4A C1A 1_555 1_555
C5A N1A 1_555 1_555
H1A C5A 1_555 1_555
H2A C5A 1_555 1_555
C6A N1A 1_555 1_555
H3A C6A 1_555 1_555
H4A C6A 1_555 1_555
C7A H5A 1_555 1_555
C8A C7A 1_555 1_555
H6A C8A 1_555 1_555
C9A C8A 1_555 1_555
C10A C9A 1_555 1_555
H7A C10A 1_555 1_555
C11A N2A 1_555 1_555
H8A C11A 1_555 1_555
C12A C9A 1_555 1_555
C13A C12A 1_555 1_555
H9A C13A 1_555 1_555
C14A C13A 1_555 1_555
H10A C14A 1_555 1_555
C15A N3A 1_555 1_555
H11A C15A 1_555 1_555
C16A C12A 1_555 1_555
H12A C16A 1_555 1_555
C17A N4A 1_555 1_555
H13A C17A 1_555 1_555
C18A C17A 1_555 1_555
H14A C18A 1_555 1_555
C19A C19 1_555 1_555
C20A C19A 1_555 1_555
H15A C20A 1_555 1_555
C21A N4A 1_555 1_555
H16A C21A 1_555 1_555
C22A H17A 1_555 1_555
C23A C22A 1_555 1_555
H18A C23A 1_555 1_555
C24A C24 1_555 1_555
C25A C24A 1_555 1_555
H19A C25A 1_555 1_555
C26A N5A 1_555 1_555
H20A C26A 1_555 1_555
O1A C1A 1_555 1_555
O1A_2 Cu1A 1_555 1_555
O2A C2A 1_555 1_555
O3A C3A 1_555 1_555
O4A P1A 1_555 1_555
O5A P1A 1_555 1_555
H21A O5A 1_555 1_555
O6A P1A 1_555 1_555
O7A Cu2 1_555 1_555
O8A P2A 1_555 1_555
O9A P2A 1_555 1_555
H22A O9A 1_555 1_555
C1 O1 1_555 1_555
C10 C11 1_555 1_555
C15 C16 1_555 1_555
C20 C21 1_555 1_555
C25 C26 1_555 1_555
P2A O7A 1_555 1_555
C10A C11A 1_555 1_555
C15A C16A 1_555 1_555
C18A C19A 1_555 1_555
C20A C21A 1_555 1_555
C23A C24A 1_555 1_555
C25A C26A 1_555 1_555

#END
