
#######################################################################
#
#                 Cambridge Crystallographic Data Centre
#                                CCDC 
#
#######################################################################
#
# If this CIF has been generated from an entry in the Cambridge 
# Structural Database, then it will include bibliographic, chemical, 
# crystal, experimental, refinement or atomic coordinate data resulting 
# from the CCDC's data processing and validation procedures.
#
#######################################################################

data_FIFNEO
_symmetry_cell_setting           triclinic
_symmetry_space_group_name_H-M   'P -1'
_symmetry_Int_Tables_number      2
_space_group_name_Hall           '-P 1'
loop_
_symmetry_equiv_pos_site_id
_symmetry_equiv_pos_as_xyz
1 x,y,z
2 -x,-y,-z
_cell_length_a                   7.62670(10)
_cell_length_b                   8.16890(10)
_cell_length_c                   12.8587(4)
_cell_angle_alpha                95.724(2)
_cell_angle_beta                 103.905(2)
_cell_angle_gamma                90.657(2)
_cell_volume                     773.245
loop_
_atom_site_label
_atom_site_type_symbol
_atom_site_fract_x
_atom_site_fract_y
_atom_site_fract_z
Mn1 Mn 0.22907(14) 0.61377(12) 0.88766(8)
P1 P 0.5117(2) 0.3107(2) 0.85808(14)
P2 P 1.1082(2) 0.2508(2) 0.99023(14)
N1 N 0.8003(7) 0.1290(7) 0.8421(4)
H1 H 0.7342 0.0434 0.8430
C1 C 0.7241(9) 0.2937(8) 0.8198(5)
H2 H 0.8085 0.3804 0.8602
H3 H 0.7056 0.3063 0.7437
C2 C 1.0016(9) 0.1274(9) 0.8627(6)
H4 H 1.0403 0.0149 0.8658
H5 H 1.0397 0.1714 0.8040
O1 O 0.0247(8) 0.5239(8) 0.7326(4)
O3 O 0.3031(8) 0.8154(6) 0.8041(4)
O9 O 0.3905(7) 0.1567(6) 0.7953(4)
H6 H 0.3175 0.1857 0.7430
O10 O 0.4300(6) 0.4688(6) 0.8250(4)
O11 O 0.5554(6) 0.2800(6) 0.9751(4)
O12 O 1.2797(6) 0.1500(6) 1.0376(4)
H7 H 1.3677 0.1864 1.0200
O13 O 1.1676(6) 0.4168(6) 0.9677(4)
O14 O 0.9775(6) 0.2418(6) 1.0606(4)
Mn1A Mn 0.77093(14) 0.38623(12) 1.11234(8)
Mn1_2 Mn 1.22907(14) 0.61377(12) 0.88766(8)
Mn1A_2 Mn -0.22907(14) 0.38623(12) 1.11234(8)
P1A P 0.4883(2) 0.6893(2) 1.14192(14)
P2A P -0.1082(2) 0.7492(2) 1.00977(14)
N1A N 0.1997(7) 0.8710(7) 1.1579(4)
H1A H 0.2658 0.9566 1.1570
C1A C 0.2759(9) 0.7063(8) 1.1802(5)
H2A H 0.1915 0.6196 1.1398
H3A H 0.2944 0.6937 1.2563
C2A C -0.0016(9) 0.8726(9) 1.1373(6)
H4A H -0.0403 0.9851 1.1342
H5A H -0.0397 0.8286 1.1960
O1A O 0.9753(8) 0.4761(8) 1.2674(4)
O3A O 0.6969(8) 0.1846(6) 1.1959(4)
O9A O 0.6095(7) 0.8433(6) 1.2047(4)
H6A H 0.6825 0.8143 1.2570
O10A O 0.5700(6) 0.5312(6) 1.1750(4)
O11A O 0.4446(6) 0.7200(6) 1.0249(4)
O12A O -0.2797(6) 0.8500(6) 0.9624(4)
H7A H -0.3677 0.8136 0.9800
O13A O -0.1676(6) 0.5832(6) 1.0323(4)
O13_2 O 0.1676(6) 0.4168(6) 0.9677(4)
O13A_2 O 0.8324(6) 0.5832(6) 1.0323(4)
O14A O 0.0225(6) 0.7582(6) 0.9394(4)
Mn2 Mn 1.5000 0.5000 1.5000
C3 C 1.4250(10) 1.0323(8) 1.4271(6)
C4 C 1.4753(10) 0.8771(8) 1.4716(6)
O2 O 1.3347(8) 1.0733(6) 1.3389(4)
O4 O 1.4424(7) 0.7277(6) 1.4356(4)
O6 O 1.3957(8) 0.3936(6) 1.3271(4)
O8 O 1.2204(8) 0.4887(7) 1.5180(5)
Mn2_2 Mn 1.5000 1.5000 1.5000
C3A C 1.5750(10) 0.9677(8) 1.5729(6)
C4A C 1.5247(10) 1.1229(8) 1.5284(6)
O2A O 1.6653(8) 0.9267(6) 1.6611(4)
O4A O 1.5576(7) 1.2723(6) 1.5644(4)
O4A_2 O 1.5576(7) 0.2723(6) 1.5644(4)
O6A O 1.6043(8) 0.6064(6) 1.6729(4)
O8A O 1.7796(8) 0.5113(7) 1.4820(5)
C5 C 0.9341(10) 0.9087(9) 1.4428(6)
C6 C 1.0710(10) 0.9119(9) 1.5435(6)
O5 O 0.8537(8) 0.7912(7) 1.3753(4)
O7 O 1.1556(8) 0.8030(7) 1.5950(4)
C5A C 1.0659(10) 1.0913(9) 1.5572(6)
C6A C 0.9290(10) 1.0881(9) 1.4565(6)
O5A O 1.1463(8) 1.2088(7) 1.6247(4)
O7A O 0.8444(8) 1.1970(7) 1.4050(4)
loop_
_geom_bond_atom_site_label_1
_geom_bond_atom_site_label_2
_geom_bond_site_symmetry_1
_geom_bond_site_symmetry_2
Mn1 O1 1_555 1_555
Mn2 O4 1_555 1_555
P1 C1 1_555 1_555
P2 C2 1_555 1_555
N1 H1 1_555 1_555
C1 N1 1_555 1_555
H2 C1 1_555 1_555
H3 C1 1_555 1_555
C2 N1 1_555 1_555
H4 C2 1_555 1_555
H5 C2 1_555 1_555
C3 C4 1_555 1_555
C4 O4 1_555 1_555
C5 C6 1_555 1_555
C6 O7 1_555 1_555
O2 C3 1_555 1_555
O3 Mn1 1_555 1_555
O5 C5 1_555 1_555
O6 Mn2 1_555 1_555
O8 Mn2 1_555 1_555
O9 P1 1_555 1_555
H6 O9 1_555 1_555
O10 Mn1 1_555 1_555
O11 P1 1_555 1_555
O12 P2 1_555 1_555
H7 O12 1_555 1_555
O13 P2 1_555 1_555
O14 P2 1_555 1_555
Mn1A O11 1_555 1_555
Mn1_2 O13 1_555 1_555
Mn1A_2 O13A 1_555 1_555
Mn2_2 O4A 1_555 1_555
P1A C1A 1_555 1_555
P2A C2A 1_555 1_555
N1A H1A 1_555 1_555
C1A N1A 1_555 1_555
H2A C1A 1_555 1_555
H3A C1A 1_555 1_555
C2A N1A 1_555 1_555
H4A C2A 1_555 1_555
H5A C2A 1_555 1_555
C3A C4 1_555 1_555
C4A C3 1_555 1_555
C5A C6 1_555 1_555
C6A C5 1_555 1_555
O1A Mn1A 1_555 1_555
O2A C3A 1_555 1_555
O3A Mn1A 1_555 1_555
O4A C4A 1_555 1_555
O4A_2 Mn2 1_555 1_555
O5A C5A 1_555 1_555
O6A Mn2 1_555 1_555
O7A C6A 1_555 1_555
O8A Mn2 1_555 1_555
O9A P1A 1_555 1_555
H6A O9A 1_555 1_555
O10A Mn1A 1_555 1_555
O11A Mn1 1_555 1_555
O12A P2A 1_555 1_555
H7A O12A 1_555 1_555
O13A P2A 1_555 1_555
O13_2 Mn1 1_555 1_555
O13A_2 Mn1A 1_555 1_555
O14A Mn1 1_555 1_555
P1 O10 1_555 1_555
O14 Mn1A 1_555 1_555
P1A O10A 1_555 1_555
P1A O11A 1_555 1_555
P2A O14A 1_555 1_555
C3A C4A 1_555 1_555
C5A C6A 1_555 1_555

#END
