
#######################################################################
#
#                 Cambridge Crystallographic Data Centre
#                                CCDC 
#
#######################################################################
#
# If this CIF has been generated from an entry in the Cambridge 
# Structural Database, then it will include bibliographic, chemical, 
# crystal, experimental, refinement or atomic coordinate data resulting 
# from the CCDC's data processing and validation procedures.
#
#######################################################################

data_FIFPAM
_symmetry_cell_setting           monoclinic
_symmetry_space_group_name_H-M   'C c'
_symmetry_Int_Tables_number      9
_space_group_name_Hall           'C -2yc'
loop_
_symmetry_equiv_pos_site_id
_symmetry_equiv_pos_as_xyz
1 x,y,z
2 x,-y,1/2+z
3 1/2+x,1/2+y,z
4 1/2+x,1/2-y,1/2+z
_cell_length_a                   10.4815(2)
_cell_length_b                   20.0601(4)
_cell_length_c                   8.1266(2)
_cell_angle_alpha                90
_cell_angle_beta                 102.633(9)
_cell_angle_gamma                90
_cell_volume                     1667.33
loop_
_atom_site_label
_atom_site_type_symbol
_atom_site_fract_x
_atom_site_fract_y
_atom_site_fract_z
Ni1 Ni 0.94204(6) 0.253886(13) 0.51023(7)
O1 O 0.78412(18) 0.20359(7) 0.3619(2)
O2 O 0.60551(18) 0.19932(8) 0.1568(2)
O3 O 1.01202(17) 0.28371(8) 0.3018(2)
O4 O 1.0020(2) 0.28747(10) 0.0268(2)
O5 O 0.8828(2) 0.23164(9) 0.7305(2)
N1 N 0.8448(2) 0.34603(9) 0.5043(3)
N2 N 0.5369(2) 0.66150(9) 0.5181(3)
C1 C 0.8945(3) 0.40165(11) 0.4526(4)
H1 H 0.968(3) 0.3949(14) 0.400(4)
C2 C 0.7340(3) 0.35271(12) 0.5567(4)
H2 H 0.695(3) 0.3137(14) 0.585(4)
C3 C 0.8380(3) 0.46412(12) 0.4561(4)
H3 H 0.874(3) 0.4996(14) 0.394(4)
C4 C 0.6703(3) 0.41225(12) 0.5618(4)
H4 H 0.5926 0.4137 0.5992
C5 C 0.7230(3) 0.47042(11) 0.5105(4)
C6 C 0.6596(3) 0.53653(11) 0.5163(3)
C7 C 0.7206(3) 0.59533(12) 0.4827(4)
H5 H 0.816(3) 0.5952(13) 0.472(3)
C8 C 0.5368(3) 0.54326(12) 0.5544(4)
H6 H 0.491(3) 0.5049(15) 0.582(3)
C9 C 0.6567(3) 0.65531(12) 0.4828(4)
H7 H 0.692(3) 0.6975(14) 0.445(4)
C10 C 0.4808(3) 0.60525(11) 0.5545(4)
H8 H 0.385(3) 0.6090(14) 0.575(4)
C11 C 0.6834(3) 0.22880(9) 0.2724(4)
H9 H 0.661(2) 0.2797(11) 0.291(3)
C12 C 0.9744(3) 0.26363(14) 0.1525(4)
H10 H 0.918(3) 0.2196(16) 0.148(4)
H11 H 0.924(3) 0.2490(13) 0.838(3)
H12 H 0.830(3) 0.1966(12) 0.745(4)
Ni1C Ni 0.44204(6) 0.246114(13) 0.01023(7)
Ni1B Ni 0.44204(6) 0.753886(13) 0.51023(7)
O2C O 1.10551(18) 0.30068(8) 0.6568(2)
N2B N 1.0369(2) 0.16150(9) 0.5181(3)
O6 O 0.7331(2) 0.13531(9) 0.8330(3)
H13 H 0.656(3) 0.1596(19) 0.826(5)
H14 H 0.776(3) 0.131(2) 0.946(3)
O7 O 0.8438(3) 0.09199(11) 0.1538(3)
H15 H 0.835(4) 0.1171(18) 0.253(4)
H16 H 0.780(3) 0.0582(15) 0.159(5)
O8 O 0.6767(4) -0.01531(13) 0.1596(4)
H17 H 0.709(6) -0.055(2) 0.221(7)
H18 H 0.657(17) -0.029(4) 0.044(3)
O9 O 1.0458(4) 0.4228(2) 0.8733(6)
H19 H 1.056(7) 0.3769(11) 0.878(8)
H20 H 1.083(5) 0.438(2) 0.782(5)
loop_
_geom_bond_atom_site_label_1
_geom_bond_atom_site_label_2
_geom_bond_site_symmetry_1
_geom_bond_site_symmetry_2
Ni1 O1 1_555 1_555
O1 C11 1_555 1_555
O2 C11 1_555 1_555
O3 Ni1 1_555 1_555
O4 C12 1_555 1_555
O5 Ni1 1_555 1_555
N1 Ni1 1_555 1_555
N2 C9 1_555 1_555
C1 N1 1_555 1_555
H1 C1 1_555 1_555
C2 N1 1_555 1_555
H2 C2 1_555 1_555
C3 C1 1_555 1_555
H3 C3 1_555 1_555
C4 C2 1_555 1_555
H4 C4 1_555 1_555
C5 C3 1_555 1_555
C6 C5 1_555 1_555
C7 C6 1_555 1_555
H5 C7 1_555 1_555
C8 C6 1_555 1_555
H6 C8 1_555 1_555
C9 C7 1_555 1_555
H7 C9 1_555 1_555
C10 N2 1_555 1_555
H8 C10 1_555 1_555
C11 H9 1_555 1_555
C12 O3 1_555 1_555
H10 C12 1_555 1_555
H11 O5 1_555 1_555
H12 O5 1_555 1_555
O6 H13 1_555 1_555
H14 O6 1_555 1_555
O7 H15 1_555 1_555
H16 O7 1_555 1_555
O8 H17 1_555 1_555
H18 O8 1_555 1_555
O9 H19 1_555 1_555
H20 O9 1_555 1_555
Ni1C O2 1_555 1_555
Ni1B N2 1_555 1_555
O2C Ni1 1_555 1_555
N2B Ni1 1_555 1_555
C4 C5 1_555 1_555
C8 C10 1_555 1_555

#END
