
#######################################################################
#
#                 Cambridge Crystallographic Data Centre
#                                CCDC 
#
#######################################################################
#
# If this CIF has been generated from an entry in the Cambridge 
# Structural Database, then it will include bibliographic, chemical, 
# crystal, experimental, refinement or atomic coordinate data resulting 
# from the CCDC's data processing and validation procedures.
#
#######################################################################

data_FIFROC
_symmetry_cell_setting           monoclinic
_symmetry_space_group_name_H-M   'P 21/c'
_symmetry_Int_Tables_number      14
_space_group_name_Hall           '-P 2ybc'
loop_
_symmetry_equiv_pos_site_id
_symmetry_equiv_pos_as_xyz
1 x,y,z
2 -x,1/2+y,1/2-z
3 -x,-y,-z
4 x,1/2-y,1/2+z
_cell_length_a                   4.867(2)
_cell_length_b                   29.028(9)
_cell_length_c                   15.164(5)
_cell_angle_alpha                90
_cell_angle_beta                 90.08(2)
_cell_angle_gamma                90
_cell_volume                     2142.36
loop_
_atom_site_label
_atom_site_type_symbol
_atom_site_fract_x
_atom_site_fract_y
_atom_site_fract_z
Cu1 Cu 0.4542(4) 0.33947(6) 0.20356(14)
O1 O 0.8977(19) 0.3602(3) 0.2050(8)
O2 O 1.280(2) 0.4022(3) 0.2038(8)
N1 N 0.865(3) 0.4377(4) 0.1987(9)
H1 H 0.6855 0.4348 0.1967
N2 N 0.405(3) 0.3392(5) 0.3377(7)
H2 H 0.2199 0.3383 0.3494
H3 H 0.4800 0.3123 0.3591
N3 N 0.558(2) 0.2725(4) 0.2016(9)
H4 H 0.6590 0.2669 0.1515
H5 H 0.6694 0.2665 0.2493
N4 N 0.395(3) 0.3384(5) 0.0695(8)
H6 H 0.4751 0.3121 0.0473
H7 H 0.2093 0.3364 0.0585
C1 C 1.004(3) 0.3992(6) 0.2028(11)
C2 C 0.969(4) 0.4841(5) 0.1969(9)
H8 H 0.8897 0.5005 0.1456
H9 H 1.1709 0.4833 0.1896
C3 C 0.899(3) 0.5106(5) 0.2812(8)
H10 H 0.9598 0.5429 0.2749
H11 H 0.6968 0.5107 0.2894
C4 C 1.034(4) 0.4894(6) 0.3622(9)
H12 H 0.9811 0.5068 0.4149
H13 H 1.2346 0.4904 0.3555
H14 H 0.9750 0.4573 0.3684
C5 C 0.521(4) 0.3768(5) 0.3868(8)
H15 H 0.4750 0.4061 0.3572
H16 H 0.7238 0.3737 0.3876
C6 C 0.415(4) 0.3780(5) 0.4819(9)
H17 H 0.4550 0.3484 0.5114
H18 H 0.2129 0.3825 0.4816
C7 C 0.552(5) 0.4175(5) 0.5331(9)
H19 H 0.4790 0.4184 0.5933
H20 H 0.5129 0.4468 0.5035
H21 H 0.7507 0.4125 0.5351
C8 C 0.326(3) 0.2403(4) 0.2036(12)
H22 H 0.2110 0.2455 0.1507
H23 H 0.2127 0.2470 0.2561
C9 C 0.411(3) 0.1896(4) 0.2062(13)
H24 H 0.5146 0.1834 0.2611
H25 H 0.5320 0.1827 0.1556
C10 C 0.156(3) 0.1582(5) 0.2026(14)
H26 H 0.2135 0.1259 0.2044
H27 H 0.0543 0.1640 0.1478
H28 H 0.0367 0.1647 0.2531
C11 C 0.504(4) 0.3781(5) 0.0213(8)
H29 H 0.7043 0.3801 0.0325
H30 H 0.4192 0.4064 0.0454
C12 C 0.457(4) 0.3773(5) -0.0778(8)
H31 H 0.2580 0.3791 -0.0902
H32 H 0.5268 0.3479 -0.1022
C13 C 0.604(4) 0.4176(5) -0.1229(10)
H33 H 0.5713 0.4164 -0.1866
H34 H 0.8023 0.4156 -0.1114
H35 H 0.5338 0.4468 -0.0994
Cu1_2 Cu 1.4542(4) 0.33947(6) 0.20356(14)
O2_2 O 0.280(2) 0.4022(3) 0.2038(8)
Cl1 Cl 0.9632(9) 0.25080(16) 0.4565(3)
O3 O 1.2568(19) 0.2515(4) 0.4568(8)
O4 O 0.852(3) 0.2388(7) 0.3731(9)
O5 O 0.876(3) 0.2974(5) 0.4777(13)
O6 O 0.868(3) 0.2200(6) 0.5226(11)
Cl2? Cl 0.9632(9) 0.25080(16) 0.4565(3)
O7? O 1.2568(19) 0.2515(4) 0.4568(8)
O8? O 0.883(4) 0.2028(4) 0.4475(13)
O9? O 0.862(3) 0.2762(6) 0.3835(10)
O10? O 0.850(3) 0.2676(7) 0.5366(10)
loop_
_geom_bond_atom_site_label_1
_geom_bond_atom_site_label_2
_geom_bond_site_symmetry_1
_geom_bond_site_symmetry_2
Cu1 O1 1_555 1_555
O1 C1 1_555 1_555
O2 C1 1_555 1_555
N1 H1 1_555 1_555
N2 Cu1 1_555 1_555
H2 N2 1_555 1_555
H3 N2 1_555 1_555
N3 Cu1 1_555 1_555
H4 N3 1_555 1_555
H5 N3 1_555 1_555
N4 Cu1 1_555 1_555
H6 N4 1_555 1_555
H7 N4 1_555 1_555
C1 N1 1_555 1_555
C2 N1 1_555 1_555
H8 C2 1_555 1_555
H9 C2 1_555 1_555
C3 C2 1_555 1_555
H10 C3 1_555 1_555
H11 C3 1_555 1_555
C4 C3 1_555 1_555
H12 C4 1_555 1_555
H13 C4 1_555 1_555
H14 C4 1_555 1_555
C5 N2 1_555 1_555
H15 C5 1_555 1_555
H16 C5 1_555 1_555
C6 C5 1_555 1_555
H17 C6 1_555 1_555
H18 C6 1_555 1_555
C7 C6 1_555 1_555
H19 C7 1_555 1_555
H20 C7 1_555 1_555
H21 C7 1_555 1_555
C8 N3 1_555 1_555
H22 C8 1_555 1_555
H23 C8 1_555 1_555
C9 C8 1_555 1_555
H24 C9 1_555 1_555
H25 C9 1_555 1_555
C10 C9 1_555 1_555
H26 C10 1_555 1_555
H27 C10 1_555 1_555
H28 C10 1_555 1_555
C11 N4 1_555 1_555
H29 C11 1_555 1_555
H30 C11 1_555 1_555
C12 C11 1_555 1_555
H31 C12 1_555 1_555
H32 C12 1_555 1_555
C13 C12 1_555 1_555
H33 C13 1_555 1_555
H34 C13 1_555 1_555
H35 C13 1_555 1_555
Cl1 O3 1_555 1_555
O4 Cl1 1_555 1_555
O5 Cl1 1_555 1_555
O6 Cl1 1_555 1_555
Cu1_2 O2 1_555 1_555
O2_2 Cu1 1_555 1_555

#END
