
#######################################################################
#
#                 Cambridge Crystallographic Data Centre
#                                CCDC 
#
#######################################################################
#
# If this CIF has been generated from an entry in the Cambridge 
# Structural Database, then it will include bibliographic, chemical, 
# crystal, experimental, refinement or atomic coordinate data resulting 
# from the CCDC's data processing and validation procedures.
#
#######################################################################

data_FIFXAU
_symmetry_cell_setting           monoclinic
_symmetry_space_group_name_H-M   'P 21/c'
_symmetry_Int_Tables_number      14
_space_group_name_Hall           '-P 2ybc'
loop_
_symmetry_equiv_pos_site_id
_symmetry_equiv_pos_as_xyz
1 x,y,z
2 -x,1/2+y,1/2-z
3 -x,-y,-z
4 x,1/2-y,1/2+z
_cell_length_a                   10.97(3)
_cell_length_b                   14.45(3)
_cell_length_c                   16.52(4)
_cell_angle_alpha                90
_cell_angle_beta                 97.53(7)
_cell_angle_gamma                90
_cell_volume                     2596.11
loop_
_atom_site_label
_atom_site_type_symbol
_atom_site_fract_x
_atom_site_fract_y
_atom_site_fract_z
Zn1 Zn 0.70331(7) 0.20202(6) 0.19143(4)
N1 N 0.8138(5) 0.1327(4) 0.1181(3)
N2 N 0.6350(5) 0.3136(4) 0.1203(3)
N3 N 0.0805(7) -0.0658(7) 0.2894(5)
H1 H 0.0345 -0.0480 0.3248
H2 H 0.0644 -0.1167 0.2632
N4 N 1.2390(8) 0.2299(7) 0.5918(5)
H3 H 1.2888 0.2757 0.5907
H4 H 1.2460 0.1932 0.6332
O1 O 0.5607(4) 0.1149(4) 0.1781(3)
O2 O 0.5343(5) 0.2121(4) 0.2759(4)
O3 O 0.8328(4) 0.2401(4) 0.2776(3)
O4 O 0.7934(6) 0.1026(5) 0.3265(4)
C1 C 0.9365(6) 0.1322(5) 0.1347(4)
H5 H 0.9736 0.1675 0.1782
C2 C 1.0100(6) 0.0810(6) 0.0896(4)
H6 H 1.0949 0.0827 0.1036
C3 C 0.9609(5) 0.0274(4) 0.0244(4)
C4 C 0.8349(6) 0.0275(6) 0.0059(4)
H7 H 0.7957 -0.0071 -0.0373
C5 C 0.7674(7) 0.0822(6) 0.0552(5)
H8 H 0.6823 0.0825 0.0420
C6 C 0.6769(9) 0.3386(7) 0.0513(6)
H9 H 0.7416 0.3055 0.0341
C7 C 0.6275(9) 0.4117(7) 0.0048(6)
H10 H 0.6621 0.4285 -0.0415
C8 C 0.5281(6) 0.4608(5) 0.0250(4)
C9 C 0.4847(6) 0.4330(5) 0.0946(4)
H11 H 0.4177 0.4631 0.1119
C10 C 0.5393(6) 0.3608(5) 0.1391(4)
H12 H 0.5067 0.3436 0.1861
C11 C 0.5001(7) 0.1420(6) 0.2348(4)
C12 C 0.3880(6) 0.0903(5) 0.2483(4)
C13 C 0.3558(7) 0.0094(5) 0.2059(4)
H13 H 0.4044 -0.0110 0.1674
C14 C 0.2561(8) -0.0412(6) 0.2184(5)
H14 H 0.2379 -0.0956 0.1892
C15 C 0.1813(8) -0.0122(7) 0.2746(6)
C16 C 0.2099(8) 0.0710(7) 0.3162(5)
H15 H 0.1590 0.0936 0.3525
C17 C 0.3135(7) 0.1189(6) 0.3033(5)
H16 H 0.3336 0.1727 0.3330
C18 C 0.8533(7) 0.1748(7) 0.3318(5)
C19 C 0.9548(6) 0.1914(5) 0.3999(4)
C20 C 0.9726(7) 0.1315(6) 0.4654(5)
H17 H 0.9196 0.0815 0.4669
C21 C 1.0658(8) 0.1433(7) 0.5284(5)
H18 H 1.0737 0.1025 0.5723
C22 C 1.1477(8) 0.2151(6) 0.5270(6)
C23 C 1.1357(9) 0.2747(6) 0.4592(6)
H19 H 1.1924 0.3220 0.4560
C24 C 1.0388(5) 0.2626(3) 0.3970(3)
H20 H 1.0302 0.3029 0.3527
Zn1B Zn 1.29669(7) -0.20202(6) -0.19143(4)
Zn1B_2 Zn 0.29669(7) 0.79798(6) -0.19143(4)
N1B N 1.1862(5) -0.1327(4) -0.1181(3)
N2B N 0.3650(5) 0.6864(4) -0.1203(3)
N2B_2 N 1.3650(5) -0.3136(4) -0.1203(3)
N3B N 1.9195(7) 0.0658(7) -0.2894(5)
H1B H 1.9655 0.0480 -0.3248
H2B H 1.9356 0.1167 -0.2632
N4B N 0.7610(8) -0.2299(7) -0.5918(5)
H3B H 0.7112 -0.2757 -0.5907
H4B H 0.7540 -0.1932 -0.6332
O1B O 1.4393(4) -0.1149(4) -0.1781(3)
O2B O 1.4657(5) -0.2121(4) -0.2759(4)
O3B O 1.1672(4) -0.2401(4) -0.2776(3)
O4B O 1.2066(6) -0.1026(5) -0.3265(4)
C1B C 1.0635(6) -0.1322(5) -0.1347(4)
H5B H 1.0264 -0.1675 -0.1782
C2B C 0.9900(6) -0.0810(6) -0.0896(4)
H6B H 0.9051 -0.0827 -0.1036
C3B C 1.0391(5) -0.0274(4) -0.0244(4)
C4B C 1.1651(6) -0.0275(6) -0.0059(4)
H7B H 1.2043 0.0071 0.0373
C5B C 1.2326(7) -0.0822(6) -0.0552(5)
H8B H 1.3177 -0.0825 -0.0420
C6B C 0.3231(9) 0.6614(7) -0.0513(6)
H9B H 0.2584 0.6945 -0.0341
C7B C 0.3725(9) 0.5883(7) -0.0048(6)
H10B H 0.3379 0.5715 0.0415
C8B C 0.4719(6) 0.5392(5) -0.0250(4)
C9B C 0.5153(6) 0.5670(5) -0.0946(4)
H11B H 0.5823 0.5369 -0.1119
C10B C 0.4607(6) 0.6392(5) -0.1391(4)
H12B H 0.4933 0.6564 -0.1861
C11B C 1.4999(7) -0.1420(6) -0.2348(4)
C12B C 1.6120(6) -0.0903(5) -0.2483(4)
C13B C 1.6442(7) -0.0094(5) -0.2059(4)
H13B H 1.5956 0.0110 -0.1674
C14B C 1.7439(8) 0.0412(6) -0.2184(5)
H14B H 1.7621 0.0956 -0.1892
C15B C 1.8187(8) 0.0122(7) -0.2746(6)
C16B C 1.7901(8) -0.0710(7) -0.3162(5)
H15B H 1.8410 -0.0936 -0.3525
C17B C 1.6865(7) -0.1189(6) -0.3033(5)
H16B H 1.6664 -0.1727 -0.3330
C18B C 1.1467(7) -0.1748(7) -0.3318(5)
C19B C 1.0452(6) -0.1914(5) -0.3999(4)
C20B C 1.0274(7) -0.1315(6) -0.4654(5)
H17B H 1.0804 -0.0815 -0.4669
C21B C 0.9342(8) -0.1433(7) -0.5284(5)
H18B H 0.9263 -0.1025 -0.5723
C22B C 0.8523(8) -0.2151(6) -0.5270(6)
C23B C 0.8643(9) -0.2747(6) -0.4592(6)
H19B H 0.8076 -0.3220 -0.4560
C24B C 0.9612(5) -0.2626(3) -0.3970(3)
H20B H 0.9698 -0.3029 -0.3527
O5 O 0.7585(5) -0.0792(3) 0.2712(3)
O6 O 0.4268(5) 0.1018(3) 0.0239(3)
O7 O 0.4295(5) 0.1458(3) -0.1372(3)
loop_
_geom_bond_atom_site_label_1
_geom_bond_atom_site_label_2
_geom_bond_site_symmetry_1
_geom_bond_site_symmetry_2
Zn1 N1 1_555 1_555
N1 C1 1_555 1_555
N2 Zn1 1_555 1_555
N3 H1 1_555 1_555
H2 N3 1_555 1_555
N4 H3 1_555 1_555
H4 N4 1_555 1_555
O1 Zn1 1_555 1_555
O2 Zn1 1_555 1_555
O3 Zn1 1_555 1_555
O4 C18 1_555 1_555
C1 H5 1_555 1_555
C2 C1 1_555 1_555
H6 C2 1_555 1_555
C3 C2 1_555 1_555
C4 C3 1_555 1_555
H7 C4 1_555 1_555
C5 N1 1_555 1_555
H8 C5 1_555 1_555
C6 N2 1_555 1_555
H9 C6 1_555 1_555
C7 C6 1_555 1_555
H10 C7 1_555 1_555
C8 C7 1_555 1_555
C9 C8 1_555 1_555
H11 C9 1_555 1_555
C10 N2 1_555 1_555
H12 C10 1_555 1_555
C11 O1 1_555 1_555
C12 C11 1_555 1_555
C13 C12 1_555 1_555
H13 C13 1_555 1_555
C14 C13 1_555 1_555
H14 C14 1_555 1_555
C15 N3 1_555 1_555
C16 C15 1_555 1_555
H15 C16 1_555 1_555
C17 C12 1_555 1_555
H16 C17 1_555 1_555
C18 O3 1_555 1_555
C19 C18 1_555 1_555
C20 C19 1_555 1_555
H17 C20 1_555 1_555
C21 C20 1_555 1_555
H18 C21 1_555 1_555
C22 N4 1_555 1_555
C23 C22 1_555 1_555
H19 C23 1_555 1_555
C24 C19 1_555 1_555
H20 C24 1_555 1_555
Zn1B N1B 1_555 1_555
Zn1B_2 N2B 1_555 1_555
N1B C1B 1_555 1_555
N2B C6B 1_555 1_555
N2B_2 Zn1B 1_555 1_555
N3B H1B 1_555 1_555
H2B N3B 1_555 1_555
N4B H3B 1_555 1_555
H4B N4B 1_555 1_555
O1B Zn1B 1_555 1_555
O2B Zn1B 1_555 1_555
O3B Zn1B 1_555 1_555
O4B C18B 1_555 1_555
C1B H5B 1_555 1_555
C2B C1B 1_555 1_555
H6B C2B 1_555 1_555
C3B C3 1_555 1_555
C4B C3B 1_555 1_555
H7B C4B 1_555 1_555
C5B N1B 1_555 1_555
H8B C5B 1_555 1_555
C6B H9B 1_555 1_555
C7B C6B 1_555 1_555
H10B C7B 1_555 1_555
C8B C8 1_555 1_555
C9B C8B 1_555 1_555
H11B C9B 1_555 1_555
C10B N2B 1_555 1_555
H12B C10B 1_555 1_555
C11B O1B 1_555 1_555
C12B C11B 1_555 1_555
C13B C12B 1_555 1_555
H13B C13B 1_555 1_555
C14B C13B 1_555 1_555
H14B C14B 1_555 1_555
C15B N3B 1_555 1_555
C16B C15B 1_555 1_555
H15B C16B 1_555 1_555
C17B C12B 1_555 1_555
H16B C17B 1_555 1_555
C18B O3B 1_555 1_555
C19B C18B 1_555 1_555
C20B C19B 1_555 1_555
H17B C20B 1_555 1_555
C21B C20B 1_555 1_555
H18B C21B 1_555 1_555
C22B N4B 1_555 1_555
C23B C22B 1_555 1_555
H19B C23B 1_555 1_555
C24B C19B 1_555 1_555
H20B C24B 1_555 1_555
O2 C11 1_555 1_555
C4 C5 1_555 1_555
C9 C10 1_555 1_555
C14 C15 1_555 1_555
C16 C17 1_555 1_555
C21 C22 1_555 1_555
C23 C24 1_555 1_555
O2B C11B 1_555 1_555
C2B C3B 1_555 1_555
C4B C5B 1_555 1_555
C7B C8B 1_555 1_555
C9B C10B 1_555 1_555
C14B C15B 1_555 1_555
C16B C17B 1_555 1_555
C21B C22B 1_555 1_555
C23B C24B 1_555 1_555

#END
