
#######################################################################
#
#                 Cambridge Crystallographic Data Centre
#                                CCDC 
#
#######################################################################
#
# If this CIF has been generated from an entry in the Cambridge 
# Structural Database, then it will include bibliographic, chemical, 
# crystal, experimental, refinement or atomic coordinate data resulting 
# from the CCDC's data processing and validation procedures.
#
#######################################################################

data_FIFZEA
_symmetry_cell_setting           monoclinic
_symmetry_space_group_name_H-M   'P 21/c'
_symmetry_Int_Tables_number      14
_space_group_name_Hall           '-P 2ybc'
loop_
_symmetry_equiv_pos_site_id
_symmetry_equiv_pos_as_xyz
1 x,y,z
2 -x,1/2+y,1/2-z
3 -x,-y,-z
4 x,1/2-y,1/2+z
_cell_length_a                   9.152(4)
_cell_length_b                   13.638(4)
_cell_length_c                   10.030(2)
_cell_angle_alpha                90
_cell_angle_beta                 101.286(15)
_cell_angle_gamma                90
_cell_volume                     1227.69
loop_
_atom_site_label
_atom_site_type_symbol
_atom_site_fract_x
_atom_site_fract_y
_atom_site_fract_z
I1 I 0.35769(3) 0.609064(17) 0.58762(2)
Cu1 Cu 0.50802(5) 0.56186(3) 0.40001(5)
S1 S 0.04357(12) 0.63437(8) -0.18790(10)
N1 N 0.3590(3) 0.5811(2) 0.2182(3)
C1 C 0.4044(5) 0.5827(3) 0.0999(4)
H1 H 0.5056 0.5707 0.1005
C2 C 0.3126(5) 0.6009(3) -0.0226(4)
H2 H 0.3519 0.6029 -0.1025
C3 C 0.1614(4) 0.6163(3) -0.0290(4)
C4 C 0.1133(4) 0.6136(3) 0.0924(4)
H3 H 0.0120 0.6230 0.0943
C5 C 0.2148(4) 0.5971(3) 0.2116(4)
H4 H 0.1793 0.5972 0.2935
N2 N -0.3216(3) 0.8405(2) -0.1083(3)
C6 C -0.1770(4) 0.8571(3) -0.0542(4)
H5 H -0.1529 0.9143 -0.0023
C7 C -0.0628(4) 0.7958(3) -0.0699(4)
H6 H 0.0362 0.8106 -0.0294
C8 C -0.0967(4) 0.7117(3) -0.1469(4)
C9 C -0.2442(4) 0.6924(3) -0.2007(4)
H7 H -0.2710 0.6350 -0.2517
C10 C -0.3518(4) 0.7574(3) -0.1794(4)
H8 H -0.4518 0.7428 -0.2166
I1B I 0.64231(3) 0.390936(17) 0.41238(2)
Cu1B Cu 0.49198(5) 0.43814(3) 0.59999(5)
Cu1C Cu -0.49198(5) 0.93814(3) -0.09999(5)
N2C N 0.6784(3) 0.6595(2) 0.3917(3)
loop_
_geom_bond_atom_site_label_1
_geom_bond_atom_site_label_2
_geom_bond_site_symmetry_1
_geom_bond_site_symmetry_2
I1 Cu1 1_555 1_555
Cu1 N1 1_555 1_555
S1 C3 1_555 1_555
N1 C1 1_555 1_555
C1 H1 1_555 1_555
C2 C1 1_555 1_555
H2 C2 1_555 1_555
C3 C2 1_555 1_555
C4 C3 1_555 1_555
H3 C4 1_555 1_555
C5 N1 1_555 1_555
H4 C5 1_555 1_555
N2 C6 1_555 1_555
C6 H5 1_555 1_555
C7 C6 1_555 1_555
H6 C7 1_555 1_555
C8 S1 1_555 1_555
C9 C8 1_555 1_555
H7 C9 1_555 1_555
C10 N2 1_555 1_555
H8 C10 1_555 1_555
I1B Cu1 1_555 1_555
Cu1B I1 1_555 1_555
Cu1C N2 1_555 1_555
N2C Cu1 1_555 1_555
C4 C5 1_555 1_555
C7 C8 1_555 1_555
C9 C10 1_555 1_555
I1B Cu1B 1_555 1_555

#END
