
#######################################################################
#
#                 Cambridge Crystallographic Data Centre
#                                CCDC 
#
#######################################################################
#
# If this CIF has been generated from an entry in the Cambridge 
# Structural Database, then it will include bibliographic, chemical, 
# crystal, experimental, refinement or atomic coordinate data resulting 
# from the CCDC's data processing and validation procedures.
#
#######################################################################

data_FIFZUP10
_symmetry_cell_setting           monoclinic
_symmetry_space_group_name_H-M   'C 2/m'
_symmetry_Int_Tables_number      12
_space_group_name_Hall           '-C 2y'
loop_
_symmetry_equiv_pos_site_id
_symmetry_equiv_pos_as_xyz
1 x,y,z
2 1/2+x,1/2+y,z
3 -x,y,-z
4 1/2-x,1/2+y,-z
5 -x,-y,-z
6 1/2-x,1/2-y,-z
7 x,-y,z
8 1/2+x,1/2-y,z
_cell_length_a                   6.835(1)
_cell_length_b                   13.321(2)
_cell_length_c                   6.806(1)
_cell_angle_alpha                90
_cell_angle_beta                 90.54(2)
_cell_angle_gamma                90
_cell_volume                     619.652
loop_
_atom_site_label
_atom_site_type_symbol
_atom_site_fract_x
_atom_site_fract_y
_atom_site_fract_z
Cu1 Cu 0.0000 0.2925(1) 0.5000
Cl1 Cl 0.1378(1) 0.1781(1) 0.7017(1)
N1 N 0.0977(2) 0.4110(2) 0.6692(3)
C1 C 0.0543(4) 0.5000 0.5939(4)
C2 C 0.2487(4) 0.5000 0.9316(5)
C3 C 0.1975(3) 0.4108(2) 0.8412(3)
H1 H 0.3148(66) 0.5000 1.0495(99)
H2 H 0.2267(47) 0.3470(39) 0.8819(65)
Cl1E Cl 0.3622(1) 0.3219(1) 0.2983(1)
Cl1B Cl -0.1378(1) 0.1781(1) 0.2983(1)
Cl1G Cl -0.3622(1) 0.3219(1) 0.7017(1)
N1B N -0.0977(2) 0.4110(2) 0.3308(3)
Cu1E Cu 0.5000 0.2075(1) 0.5000
N1F N 0.0977(2) 0.5890(2) 0.6692(3)
C1B C -0.0543(4) 0.5000 0.4061(4)
C3F C 0.1975(3) 0.5892(2) 0.8412(3)
Cu1E_2 Cu -0.5000 0.2075(1) 0.5000
C3B C -0.1975(3) 0.4108(2) 0.1588(3)
Cl1B_2 Cl 0.8622(1) 0.1781(1) 0.2983(1)
Cl1G_2 Cl 0.6378(1) 0.3219(1) 0.7017(1)
N1E N 0.4023(2) 0.0890(2) 0.3308(3)
N1G N 0.5977(2) 0.0890(2) 0.6692(3)
Cu1D Cu 0.0000 0.7075(1) 0.5000
N1D N -0.0977(2) 0.5890(2) 0.3308(3)
H2F H 0.2267(47) 0.6530(39) 0.8819(65)
C2B C -0.2487(4) 0.5000 0.0684(5)
H2B H -0.2267(47) 0.3470(39) 0.1181(65)
C1C C 0.4457(4) 0.0000 0.4061(4)
C3E C 0.3025(3) 0.0892(2) 0.1588(3)
C1A C 0.5543(4) 0.0000 0.5939(4)
C3G C 0.6975(3) 0.0892(2) 0.8412(3)
Cl1D Cl -0.1378(1) 0.8219(1) 0.2983(1)
Cl1A Cl -0.3622(1) 0.6781(1) 0.7017(1)
Cl1F Cl 0.1378(1) 0.8219(1) 0.7017(1)
Cl1C Cl 0.3622(1) 0.6781(1) 0.2983(1)
C3D C -0.1975(3) 0.5892(2) 0.1588(3)
H1B H -0.3148(66) 0.5000 -0.0495(99)
N1C N 0.4023(2) -0.0890(2) 0.3308(3)
C2C C 0.2513(4) 0.0000 0.0684(5)
H2E H 0.2733(47) 0.1530(39) 0.1181(65)
N1A N 0.5977(2) -0.0890(2) 0.6692(3)
C2A C 0.7487(4) 0.0000 0.9316(5)
H2G H 0.7267(47) 0.1530(39) 0.8819(65)
Cu1A Cu -0.5000 0.7925(1) 0.5000
Cu1A_2 Cu 0.5000 0.7925(1) 0.5000
H2D H -0.2267(47) 0.6530(39) 0.1181(65)
Cu1A_3 Cu 0.5000 -0.2075(1) 0.5000
C3C C 0.3025(3) -0.0892(2) 0.1588(3)
H1C H 0.1852(66) 0.0000 -0.0495(99)
C3A C 0.6975(3) -0.0892(2) 0.8412(3)
H1A H 0.8148(66) 0.0000 1.0495(99)
H2C H 0.2733(47) -0.1530(39) 0.1181(65)
H2A H 0.7267(47) -0.1530(39) 0.8819(65)
Cl1_2 Cl -0.8622(1) 0.1781(1) 0.7017(1)
Cl1E_2 Cl -0.6378(1) 0.3219(1) 0.2983(1)
N1E_2 N -0.5977(2) 0.0890(2) 0.3308(3)
N1G_2 N -0.4023(2) 0.0890(2) 0.6692(3)
loop_
_geom_bond_atom_site_label_1
_geom_bond_atom_site_label_2
_geom_bond_site_symmetry_1
_geom_bond_site_symmetry_2
Cu1 Cl1 1_555 1_555
Cl1 Cu1E 1_555 1_555
N1 Cu1 1_555 1_555
C1 N1 1_555 1_555
C2 C3 1_555 1_555
C3 N1 1_555 1_555
H1 C2 1_555 1_555
H2 C3 1_555 1_555
Cl1E Cu1 1_555 1_555
Cl1B Cu1 1_555 1_555
Cl1G Cu1 1_555 1_555
N1B Cu1 1_555 1_555
Cu1E Cl1E 1_555 1_555
N1F C1 1_555 1_555
C1B C1 1_555 1_555
C3F C2 1_555 1_555
Cu1E_2 Cl1B 1_555 1_555
C3B N1B 1_555 1_555
Cl1B_2 Cu1E 1_555 1_555
Cl1G_2 Cu1E 1_555 1_555
N1E Cu1E 1_555 1_555
N1G Cu1E 1_555 1_555
Cu1D N1F 1_555 1_555
N1D C1B 1_555 1_555
H2F C3F 1_555 1_555
C2B C3B 1_555 1_555
H2B C3B 1_555 1_555
C1C N1E 1_555 1_555
C3E N1E 1_555 1_555
C1A N1G 1_555 1_555
C3G N1G 1_555 1_555
Cl1D Cu1D 1_555 1_555
Cl1A Cu1D 1_555 1_555
Cl1F Cu1D 1_555 1_555
Cl1C Cu1D 1_555 1_555
C3D N1D 1_555 1_555
H1B C2B 1_555 1_555
N1C C1C 1_555 1_555
C2C C3E 1_555 1_555
H2E C3E 1_555 1_555
N1A C1A 1_555 1_555
C2A C3G 1_555 1_555
H2G C3G 1_555 1_555
Cu1A Cl1D 1_555 1_555
Cu1A_2 Cl1F 1_555 1_555
H2D C3D 1_555 1_555
Cu1A_3 N1C 1_555 1_555
C3C N1C 1_555 1_555
H1C C2C 1_555 1_555
C3A N1A 1_555 1_555
H1A C2A 1_555 1_555
H2C C3C 1_555 1_555
H2A C3A 1_555 1_555
Cl1_2 Cu1E_2 1_555 1_555
Cl1E_2 Cu1E_2 1_555 1_555
N1E_2 Cu1E_2 1_555 1_555
N1G_2 Cu1E_2 1_555 1_555
Cl1G Cu1E_2 1_555 1_555
N1B C1B 1_555 1_555
N1F C3F 1_555 1_555
Cu1D N1D 1_555 1_555
C2B C3D 1_555 1_555
C1C C1A 1_555 1_555
Cl1A Cu1A 1_555 1_555
Cl1C Cu1A_2 1_555 1_555
C2C C3C 1_555 1_555
N1A Cu1A_3 1_555 1_555
C2A C3A 1_555 1_555

#END
