
#######################################################################
#
#                 Cambridge Crystallographic Data Centre
#                                CCDC 
#
#######################################################################
#
# If this CIF has been generated from an entry in the Cambridge 
# Structural Database, then it will include bibliographic, chemical, 
# crystal, experimental, refinement or atomic coordinate data resulting 
# from the CCDC's data processing and validation procedures.
#
#######################################################################

data_FIFZOJ10
_symmetry_cell_setting           monoclinic
_symmetry_space_group_name_H-M   'C 2/m'
_symmetry_Int_Tables_number      12
_space_group_name_Hall           '-C 2y'
loop_
_symmetry_equiv_pos_site_id
_symmetry_equiv_pos_as_xyz
1 x,y,z
2 1/2+x,1/2+y,z
3 -x,y,-z
4 1/2-x,1/2+y,-z
5 -x,-y,-z
6 1/2-x,1/2-y,-z
7 x,-y,z
8 1/2+x,1/2-y,z
_cell_length_a                   7.100(1)
_cell_length_b                   13.504(2)
_cell_length_c                   7.063(1)
_cell_angle_alpha                90
_cell_angle_beta                 90.69(4)
_cell_angle_gamma                90
_cell_volume                     677.14
loop_
_atom_site_label
_atom_site_type_symbol
_atom_site_fract_x
_atom_site_fract_y
_atom_site_fract_z
Cu1 Cu 0.0000 0.2947(1) 0.5000
Br1 Br 0.1357(1) 0.1730(1) 0.7069(1)
N1 N 0.0932(5) 0.4118(3) 0.6643(4)
C1 C 0.0527(8) 0.5000 0.5902(7)
C2 C 0.2394(10) 0.5000 0.9175(9)
C3 C 0.1913(6) 0.4122(3) 0.8299(5)
H1 H 0.3221(92) 0.5000 1.0257(72)
H2 H 0.2065(99) 0.3473(24) 0.8827(93)
Br1E Br 0.3643(1) 0.3270(1) 0.2931(1)
Br1B Br -0.1357(1) 0.1730(1) 0.2931(1)
Br1G Br -0.3643(1) 0.3270(1) 0.7069(1)
N1B N -0.0932(5) 0.4118(3) 0.3357(4)
Cu1E Cu 0.5000 0.2053(1) 0.5000
N1F N 0.0932(5) 0.5882(3) 0.6643(4)
C1B C -0.0527(8) 0.5000 0.4098(7)
C3F C 0.1913(6) 0.5878(3) 0.8299(5)
Cu1E_2 Cu -0.5000 0.2053(1) 0.5000
C3B C -0.1913(6) 0.4122(3) 0.1701(5)
Br1B_2 Br 0.8643(1) 0.1730(1) 0.2931(1)
Br1G_2 Br 0.6357(1) 0.3270(1) 0.7069(1)
N1E N 0.4068(5) 0.0882(3) 0.3357(4)
N1G N 0.5932(5) 0.0882(3) 0.6643(4)
Cu1D Cu 0.0000 0.7053(1) 0.5000
N1D N -0.0932(5) 0.5882(3) 0.3357(4)
H2F H 0.2065(99) 0.6527(24) 0.8827(93)
C2B C -0.2394(10) 0.5000 0.0825(9)
H2B H -0.2065(99) 0.3473(24) 0.1173(93)
C1C C 0.4473(8) 0.0000 0.4098(7)
C3E C 0.3087(6) 0.0878(3) 0.1701(5)
C1A C 0.5527(8) 0.0000 0.5902(7)
C3G C 0.6913(6) 0.0878(3) 0.8299(5)
Br1D Br -0.1357(1) 0.8270(1) 0.2931(1)
Br1A Br -0.3643(1) 0.6730(1) 0.7069(1)
Br1F Br 0.1357(1) 0.8270(1) 0.7069(1)
Br1C Br 0.3643(1) 0.6730(1) 0.2931(1)
C3D C -0.1913(6) 0.5878(3) 0.1701(5)
H1B H -0.3221(92) 0.5000 -0.0257(72)
N1C N 0.4068(5) -0.0882(3) 0.3357(4)
C2C C 0.2606(10) 0.0000 0.0825(9)
H2E H 0.2935(99) 0.1527(24) 0.1173(93)
N1A N 0.5932(5) -0.0882(3) 0.6643(4)
C2A C 0.7394(10) 0.0000 0.9175(9)
H2G H 0.7065(99) 0.1527(24) 0.8827(93)
Cu1A Cu -0.5000 0.7947(1) 0.5000
Cu1A_2 Cu 0.5000 0.7947(1) 0.5000
H2D H -0.2065(99) 0.6527(24) 0.1173(93)
Cu1A_3 Cu 0.5000 -0.2053(1) 0.5000
C3C C 0.3087(6) -0.0878(3) 0.1701(5)
H1C H 0.1779(92) 0.0000 -0.0257(72)
C3A C 0.6913(6) -0.0878(3) 0.8299(5)
H1A H 0.8221(92) 0.0000 1.0257(72)
H2C H 0.2935(99) -0.1527(24) 0.1173(93)
H2A H 0.7065(99) -0.1527(24) 0.8827(93)
Br1_2 Br -0.8643(1) 0.1730(1) 0.7069(1)
Br1E_2 Br -0.6357(1) 0.3270(1) 0.2931(1)
N1E_2 N -0.5932(5) 0.0882(3) 0.3357(4)
N1G_2 N -0.4068(5) 0.0882(3) 0.6643(4)
loop_
_geom_bond_atom_site_label_1
_geom_bond_atom_site_label_2
_geom_bond_site_symmetry_1
_geom_bond_site_symmetry_2
Cu1 Br1 1_555 1_555
Br1 Cu1E 1_555 1_555
N1 Cu1 1_555 1_555
C1 N1 1_555 1_555
C2 C3 1_555 1_555
C3 N1 1_555 1_555
H1 C2 1_555 1_555
H2 C3 1_555 1_555
Br1E Cu1 1_555 1_555
Br1B Cu1 1_555 1_555
Br1G Cu1 1_555 1_555
N1B Cu1 1_555 1_555
Cu1E Br1E 1_555 1_555
N1F C1 1_555 1_555
C1B C1 1_555 1_555
C3F C2 1_555 1_555
Cu1E_2 Br1B 1_555 1_555
C3B N1B 1_555 1_555
Br1B_2 Cu1E 1_555 1_555
Br1G_2 Cu1E 1_555 1_555
N1E Cu1E 1_555 1_555
N1G Cu1E 1_555 1_555
Cu1D N1F 1_555 1_555
N1D C1B 1_555 1_555
H2F C3F 1_555 1_555
C2B C3B 1_555 1_555
H2B C3B 1_555 1_555
C1C N1E 1_555 1_555
C3E N1E 1_555 1_555
C1A N1G 1_555 1_555
C3G N1G 1_555 1_555
Br1D Cu1D 1_555 1_555
Br1A Cu1D 1_555 1_555
Br1F Cu1D 1_555 1_555
Br1C Cu1D 1_555 1_555
C3D N1D 1_555 1_555
H1B C2B 1_555 1_555
N1C C1C 1_555 1_555
C2C C3E 1_555 1_555
H2E C3E 1_555 1_555
N1A C1A 1_555 1_555
C2A C3G 1_555 1_555
H2G C3G 1_555 1_555
Cu1A Br1D 1_555 1_555
Cu1A_2 Br1F 1_555 1_555
H2D C3D 1_555 1_555
Cu1A_3 N1C 1_555 1_555
C3C N1C 1_555 1_555
H1C C2C 1_555 1_555
C3A N1A 1_555 1_555
H1A C2A 1_555 1_555
H2C C3C 1_555 1_555
H2A C3A 1_555 1_555
Br1_2 Cu1E_2 1_555 1_555
Br1E_2 Cu1E_2 1_555 1_555
N1E_2 Cu1E_2 1_555 1_555
N1G_2 Cu1E_2 1_555 1_555
Br1G Cu1E_2 1_555 1_555
N1B C1B 1_555 1_555
N1F C3F 1_555 1_555
Cu1D N1D 1_555 1_555
C2B C3D 1_555 1_555
C1C C1A 1_555 1_555
Br1A Cu1A 1_555 1_555
Br1C Cu1A_2 1_555 1_555
C2C C3C 1_555 1_555
N1A Cu1A_3 1_555 1_555
C2A C3A 1_555 1_555

#END
