
#######################################################################
#
#                 Cambridge Crystallographic Data Centre
#                                CCDC 
#
#######################################################################
#
# If this CIF has been generated from an entry in the Cambridge 
# Structural Database, then it will include bibliographic, chemical, 
# crystal, experimental, refinement or atomic coordinate data resulting 
# from the CCDC's data processing and validation procedures.
#
#######################################################################

data_FIFZUQ
_symmetry_cell_setting           monoclinic
_symmetry_space_group_name_H-M   'P 21/c'
_symmetry_Int_Tables_number      14
_space_group_name_Hall           '-P 2ybc'
loop_
_symmetry_equiv_pos_site_id
_symmetry_equiv_pos_as_xyz
1 x,y,z
2 -x,1/2+y,1/2-z
3 -x,-y,-z
4 x,1/2-y,1/2+z
_cell_length_a                   12.331(14)
_cell_length_b                   7.804(9)
_cell_length_c                   18.64(2)
_cell_angle_alpha                90
_cell_angle_beta                 103.405(10)
_cell_angle_gamma                90
_cell_volume                     1744.88
loop_
_atom_site_label
_atom_site_type_symbol
_atom_site_fract_x
_atom_site_fract_y
_atom_site_fract_z
Cu1 Cu 0.34299(4) 0.52539(6) 0.15183(3)
N1 N 0.4939(3) 0.8140(5) 0.2011(2)
N2 N 0.4111(3) 0.7544(5) 0.1659(3)
N3 N 0.5745(4) 0.8822(7) 0.2314(2)
N4 N 0.4624(3) 0.4056(5) 0.1119(2)
C1 C 0.4449(3) 0.2355(5) 0.1030(2)
C2 C 0.5216(4) 0.1300(6) 0.0806(2)
H1 H 0.5092 0.0126 0.0755
C3 C 0.6159(4) 0.2016(7) 0.0661(3)
H2 H 0.6682 0.1330 0.0511
C4 C 0.6327(4) 0.3764(7) 0.0741(3)
H3 H 0.6958 0.4269 0.0640
C5 C 0.5547(4) 0.4746(7) 0.0973(3)
H4 H 0.5662 0.5921 0.1030
C6 C 0.3408(4) 0.1678(6) 0.1217(3)
H5 H 0.3092 0.0770 0.0877
H6 H 0.3582 0.1211 0.1712
N5 N 0.2601(3) 0.3094(4) 0.1164(2)
H7 H 0.2255 0.3235 0.0681
C7 C 0.1729(4) 0.2906(6) 0.1591(3)
H8 H 0.2067 0.2633 0.2102
H9 H 0.1216 0.1995 0.1386
C8 C 0.1125(3) 0.4599(6) 0.1539(3)
H10 H 0.0622 0.4594 0.1869
H11 H 0.0685 0.4761 0.1040
N6 N 0.1942(3) 0.6057(5) 0.1741(2)
C9 C 0.2154(4) 0.6446(7) 0.2552(3)
H12 H 0.2803 0.7183 0.2684
H13 H 0.2333 0.5382 0.2822
C10 C 0.1188(5) 0.7310(9) 0.2805(3)
H14 H 0.1060 0.8428 0.2588
H15 H 0.1375 0.7412 0.3333
H16 H 0.0526 0.6628 0.2654
C11 C 0.1532(4) 0.7626(6) 0.1306(3)
H17 H 0.1992 0.8591 0.1518
H18 H 0.0776 0.7860 0.1346
C12 C 0.1544(5) 0.7485(8) 0.0498(3)
H19 H 0.2293 0.7284 0.0452
H20 H 0.1271 0.8531 0.0250
H21 H 0.1077 0.6549 0.0280
Cu1A Cu 0.65701(4) 1.02539(6) 0.34817(3)
N3A N 0.4255(4) 0.3822(7) 0.2686(2)
Cl1 Cl 0.17713(9) 1.22562(16) -0.08780(7)
O1 O 0.1373(4) 1.3487(7) -0.0438(3)
O2 O 0.1536(5) 1.2872(9) -0.1601(3)
O3 O 0.1227(4) 1.0693(7) -0.0877(4)
O4 O 0.2934(3) 1.2033(6) -0.0598(3)
loop_
_geom_bond_atom_site_label_1
_geom_bond_atom_site_label_2
_geom_bond_site_symmetry_1
_geom_bond_site_symmetry_2
Cu1 N2 1_555 1_555
Cl1 O1 1_555 1_555
O2 Cl1 1_555 1_555
O3 Cl1 1_555 1_555
O4 Cl1 1_555 1_555
N1 N2 1_555 1_555
N3 N1 1_555 1_555
N4 Cu1 1_555 1_555
C1 N4 1_555 1_555
C2 C1 1_555 1_555
H1 C2 1_555 1_555
C3 C2 1_555 1_555
H2 C3 1_555 1_555
C4 C3 1_555 1_555
H3 C4 1_555 1_555
C5 N4 1_555 1_555
H4 C5 1_555 1_555
C6 C1 1_555 1_555
H5 C6 1_555 1_555
H6 C6 1_555 1_555
N5 Cu1 1_555 1_555
H7 N5 1_555 1_555
C7 N5 1_555 1_555
H8 C7 1_555 1_555
H9 C7 1_555 1_555
C8 C7 1_555 1_555
H10 C8 1_555 1_555
H11 C8 1_555 1_555
N6 Cu1 1_555 1_555
C9 N6 1_555 1_555
H12 C9 1_555 1_555
H13 C9 1_555 1_555
C10 C9 1_555 1_555
H14 C10 1_555 1_555
H15 C10 1_555 1_555
H16 C10 1_555 1_555
C11 N6 1_555 1_555
H17 C11 1_555 1_555
H18 C11 1_555 1_555
C12 C11 1_555 1_555
H19 C12 1_555 1_555
H20 C12 1_555 1_555
H21 C12 1_555 1_555
Cu1A N3 1_555 1_555
N3A Cu1 1_555 1_555
C4 C5 1_555 1_555
C6 N5 1_555 1_555
C8 N6 1_555 1_555

#END
