
#######################################################################
#
#                 Cambridge Crystallographic Data Centre
#                                CCDC 
#
#######################################################################
#
# If this CIF has been generated from an entry in the Cambridge 
# Structural Database, then it will include bibliographic, chemical, 
# crystal, experimental, refinement or atomic coordinate data resulting 
# from the CCDC's data processing and validation procedures.
#
#######################################################################

data_FIGHEJ
_symmetry_cell_setting           monoclinic
_symmetry_space_group_name_H-M   'P 21'
_symmetry_Int_Tables_number      4
_space_group_name_Hall           'P 2yb'
loop_
_symmetry_equiv_pos_site_id
_symmetry_equiv_pos_as_xyz
1 x,y,z
2 -x,1/2+y,-z
_cell_length_a                   7.057(7)
_cell_length_b                   14.116(14)
_cell_length_c                   8.743(9)
_cell_angle_alpha                90
_cell_angle_beta                 112.356(19)
_cell_angle_gamma                90
_cell_volume                     805.486
loop_
_atom_site_label
_atom_site_type_symbol
_atom_site_fract_x
_atom_site_fract_y
_atom_site_fract_z
Cd1 Cd -0.04970(12) -0.30239(6) -0.49138(11)
O1 O -0.2289(11) -0.0352(6) -0.3190(10)
N1 N -0.2786(14) -0.1792(9) -0.6659(13)
N2 N -0.1077(14) -0.1769(9) -0.3275(13)
N3 N -0.0440(16) -0.1516(9) -0.1633(14)
N4 N -0.0159(16) 0.1022(9) 0.2508(13)
C1 C -0.3646(19) -0.1829(12) -0.8301(18)
H1 H -0.3482 -0.2369 -0.8846
C2 C -0.476(2) -0.1089(14) -0.9204(17)
H2 H -0.5340 -0.1134 -1.0351
C3 C -0.505(2) -0.0288(12) -0.8455(18)
H3 H -0.5798 0.0218 -0.9073
C4 C -0.4182(18) -0.0249(11) -0.6735(18)
H4 H -0.4342 0.0279 -0.6158
C5 C -0.3078(15) -0.1029(10) -0.5930(15)
C6 C -0.2138(15) -0.1059(9) -0.4157(15)
C7 C -0.1152(18) -0.0686(10) -0.1643(16)
C8 C -0.0868(16) -0.0082(10) -0.0212(15)
C9 C -0.1559(18) 0.0831(9) -0.0369(17)
H5 H -0.2262 0.1091 -0.1409
C10 C -0.120(2) 0.1359(11) 0.1031(16)
H6 H -0.1715 0.1972 0.0927
C11 C 0.0510(16) 0.0133(11) 0.2698(17)
H7 H 0.1210 -0.0105 0.3756
C12 C 0.0178(18) -0.0442(11) 0.1343(17)
H8 H 0.0655 -0.1062 0.1481
I1 I 0.32604(16) -0.24887(10) -0.4783(2)
I2 I -0.25835(13) -0.43986(7) -0.71361(12)
Cd1A Cd 0.04970(12) 0.19761(6) 0.49138(11)
N4A N 0.0159(16) -0.3978(9) -0.2508(13)
loop_
_geom_bond_atom_site_label_1
_geom_bond_atom_site_label_2
_geom_bond_site_symmetry_1
_geom_bond_site_symmetry_2
Cd1 N1 1_555 1_555
O1 C6 1_555 1_555
N1 C1 1_555 1_555
N2 Cd1 1_555 1_555
N3 N2 1_555 1_555
N4 C10 1_555 1_555
C1 H1 1_555 1_555
C2 C1 1_555 1_555
H2 C2 1_555 1_555
C3 C2 1_555 1_555
H3 C3 1_555 1_555
C4 C3 1_555 1_555
H4 C4 1_555 1_555
C5 N1 1_555 1_555
C6 N2 1_555 1_555
C7 O1 1_555 1_555
C8 C7 1_555 1_555
C9 C8 1_555 1_555
H5 C9 1_555 1_555
C10 C9 1_555 1_555
H6 C10 1_555 1_555
C11 N4 1_555 1_555
H7 C11 1_555 1_555
C12 C8 1_555 1_555
H8 C12 1_555 1_555
I1 Cd1 1_555 1_555
I2 Cd1 1_555 1_555
Cd1A N4 1_555 1_555
N4A Cd1 1_555 1_555
N3 C7 1_555 1_555
C4 C5 1_555 1_555
C5 C6 1_555 1_555
C11 C12 1_555 1_555

#END
