
#######################################################################
#
#                 Cambridge Crystallographic Data Centre
#                                CCDC 
#
#######################################################################
#
# If this CIF has been generated from an entry in the Cambridge 
# Structural Database, then it will include bibliographic, chemical, 
# crystal, experimental, refinement or atomic coordinate data resulting 
# from the CCDC's data processing and validation procedures.
#
#######################################################################

data_FIGHIN
_symmetry_cell_setting           orthorhombic
_symmetry_space_group_name_H-M   'P 21 21 21'
_symmetry_Int_Tables_number      19
_space_group_name_Hall           'P 2ac 2ab'
loop_
_symmetry_equiv_pos_site_id
_symmetry_equiv_pos_as_xyz
1 x,y,z
2 1/2-x,-y,1/2+z
3 -x,1/2+y,1/2-z
4 1/2+x,1/2-y,-z
_cell_length_a                   8.2949(9)
_cell_length_b                   14.7244(17)
_cell_length_c                   21.236(2)
_cell_angle_alpha                90
_cell_angle_beta                 90
_cell_angle_gamma                90
_cell_volume                     2593.71
loop_
_atom_site_label
_atom_site_type_symbol
_atom_site_fract_x
_atom_site_fract_y
_atom_site_fract_z
Cd1 Cd -0.51908(5) -1.07063(3) -0.20036(2)
I1 I -0.32408(5) -0.93918(3) -0.14425(2)
I2 I -0.39586(6) -1.11140(3) -0.32386(2)
N1 N -0.3892(6) -1.2066(3) -0.1595(2)
N2 N -0.6937(6) -1.2055(3) -0.2136(3)
N3 N -0.8447(6) -1.2295(3) -0.2362(3)
N4 N -1.2607(6) -1.4777(3) -0.2714(3)
O1 O -0.7275(5) -1.3516(3) -0.1964(2)
O2 O -0.6673(7) -1.0842(3) -0.1003(3)
H1 H -0.7254 -1.1307 -0.0933
H2 H -0.6604 -1.0425 -0.0728
C1 C -0.2424(8) -1.2081(5) -0.1350(4)
H3 H -0.1839 -1.1542 -0.1344
C2 C -0.1713(9) -1.2851(5) -0.1103(3)
H4 H -0.0689 -1.2828 -0.0925
C3 C -0.2565(8) -1.3655(5) -0.1129(4)
H5 H -0.2123 -1.4186 -0.0967
C4 C -0.4083(8) -1.3661(4) -0.1398(3)
H6 H -0.4682 -1.4194 -0.1423
C5 C -0.4680(7) -1.2852(4) -0.1628(3)
C6 C -0.6284(7) -1.2784(4) -0.1910(3)
C7 C -0.8602(7) -1.3152(4) -0.2256(3)
C8 C -0.9953(7) -1.3727(4) -0.2409(3)
C9 C -1.0005(8) -1.4633(4) -0.2253(3)
H7 H -0.9149 -1.4904 -0.2041
C10 C -1.1345(8) -1.5131(4) -0.2416(3)
H8 H -1.1369 -1.5745 -0.2313
C11 C -1.2558(8) -1.3902(5) -0.2869(3)
H9 H -1.3430 -1.3653 -0.3084
C12 C -1.1274(8) -1.3352(4) -0.2726(3)
H10 H -1.1282 -1.2741 -0.2837
Cd1B Cd -1.48092(5) -1.57063(3) -0.29964(2)
N4B N -0.7393(6) -0.9777(3) -0.2286(3)
N5 N -0.6198(10) -0.8157(5) 0.0286(4)
O3 O -0.6802(9) -0.9600(5) 0.0001(4)
C13 C -0.580(2) -0.7225(8) 0.0108(8)
H11 H -0.5660 -0.7191 -0.0340
H12 H -0.4816 -0.7045 0.0312
H13 H -0.6654 -0.6826 0.0234
C14 C -0.643(2) -0.8323(9) 0.0934(5)
H14 H -0.6691 -0.8951 0.0997
H15 H -0.7297 -0.7951 0.1086
H16 H -0.5460 -0.8178 0.1159
C15 C -0.6430(12) -0.8823(7) -0.0118(5)
H17 H -0.6293 -0.8681 -0.0542
N6 N -0.6813(7) -0.3885(4) -0.0193(3)
O4 O -0.7791(7) -0.2547(4) -0.0562(3)
C16 C -0.5457(9) -0.4367(7) 0.0064(4)
H18 H -0.4584 -0.3950 0.0134
H19 H -0.5121 -0.4829 -0.0226
H20 H -0.5760 -0.4642 0.0456
C17 C -0.8290(10) -0.4392(6) -0.0332(5)
H21 H -0.9091 -0.3985 -0.0496
H22 H -0.8685 -0.4668 0.0047
H23 H -0.8063 -0.4855 -0.0638
C18 C -0.6739(10) -0.3001(5) -0.0327(3)
H24 H -0.5781 -0.2704 -0.0229
loop_
_geom_bond_atom_site_label_1
_geom_bond_atom_site_label_2
_geom_bond_site_symmetry_1
_geom_bond_site_symmetry_2
Cd1 I1 1_555 1_555
I2 Cd1 1_555 1_555
N1 Cd1 1_555 1_555
N2 Cd1 1_555 1_555
N3 N2 1_555 1_555
N4 C10 1_555 1_555
O1 C6 1_555 1_555
O2 Cd1 1_555 1_555
H1 O2 1_555 1_555
H2 O2 1_555 1_555
C1 N1 1_555 1_555
H3 C1 1_555 1_555
C2 C1 1_555 1_555
H4 C2 1_555 1_555
C3 C2 1_555 1_555
H5 C3 1_555 1_555
C4 C3 1_555 1_555
H6 C4 1_555 1_555
C5 N1 1_555 1_555
C6 N2 1_555 1_555
C7 N3 1_555 1_555
C8 C7 1_555 1_555
C9 C8 1_555 1_555
H7 C9 1_555 1_555
C10 C9 1_555 1_555
H8 C10 1_555 1_555
C11 N4 1_555 1_555
H9 C11 1_555 1_555
C12 C8 1_555 1_555
H10 C12 1_555 1_555
N5 C13 1_555 1_555
O3 C15 1_555 1_555
C13 H11 1_555 1_555
H12 C13 1_555 1_555
H13 C13 1_555 1_555
C14 N5 1_555 1_555
H14 C14 1_555 1_555
H15 C14 1_555 1_555
H16 C14 1_555 1_555
C15 N5 1_555 1_555
H17 C15 1_555 1_555
N6 C16 1_555 1_555
O4 C18 1_555 1_555
C16 H18 1_555 1_555
H19 C16 1_555 1_555
H20 C16 1_555 1_555
C17 N6 1_555 1_555
H21 C17 1_555 1_555
H22 C17 1_555 1_555
H23 C17 1_555 1_555
C18 N6 1_555 1_555
H24 C18 1_555 1_555
Cd1B N4 1_555 1_555
N4B Cd1 1_555 1_555
O1 C7 1_555 1_555
C4 C5 1_555 1_555
C5 C6 1_555 1_555
C11 C12 1_555 1_555

#END
