
#######################################################################
#
#                 Cambridge Crystallographic Data Centre
#                                CCDC 
#
#######################################################################
#
# If this CIF has been generated from an entry in the Cambridge 
# Structural Database, then it will include bibliographic, chemical, 
# crystal, experimental, refinement or atomic coordinate data resulting 
# from the CCDC's data processing and validation procedures.
#
#######################################################################

data_FIGKOX
_symmetry_cell_setting           triclinic
_symmetry_space_group_name_H-M   'P -1'
_symmetry_Int_Tables_number      2
_space_group_name_Hall           '-P 1'
loop_
_symmetry_equiv_pos_site_id
_symmetry_equiv_pos_as_xyz
1 x,y,z
2 -x,-y,-z
_cell_length_a                   10.3018(5)
_cell_length_b                   12.7947(6)
_cell_length_c                   13.3295(6)
_cell_angle_alpha                61.7650(10)
_cell_angle_beta                 79.3140(10)
_cell_angle_gamma                77.0900(10)
_cell_volume                     1502.25
loop_
_atom_site_label
_atom_site_type_symbol
_atom_site_fract_x
_atom_site_fract_y
_atom_site_fract_z
Cd1 Cd 0.26570(4) 0.05711(3) 0.40736(3)
Cd2 Cd 0.17345(4) -0.25715(4) 0.53226(4)
O1 O 0.3896(4) -0.1425(4) 0.4654(4)
O2 O 0.3627(4) -0.2838(4) 0.4247(5)
O3 O 0.6594(5) -0.2141(4) 0.5441(4)
O4 O 0.7097(5) -0.0345(4) 0.4250(3)
O5 O 0.8738(5) -0.1060(5) 0.0864(4)
O6 O 0.9252(4) -0.1917(4) -0.3628(3)
O7 O 1.1307(4) -0.2182(5) -0.3176(4)
O8 O 0.8805(4) 0.0542(4) -0.4068(3)
O9 O 0.9320(5) 0.1619(4) -0.3366(4)
N1 N 0.4036(5) 0.1215(5) 0.2500(4)
N2 N 0.5941(5) 0.1669(5) 0.1471(4)
N3 N 0.9169(5) 0.4794(4) -0.3555(4)
N4 N 1.0835(5) 0.5797(4) -0.4095(4)
C1 C 0.4258(6) -0.2073(6) 0.4156(5)
C2 C 0.5499(6) -0.1884(5) 0.3324(5)
C3 C 0.6583(5) -0.1469(4) 0.3442(4)
C4 C 0.7639(5) -0.1190(5) 0.2575(5)
H1 H 0.8341 -0.0877 0.2630
C5 C 0.7637(6) -0.1378(5) 0.1651(5)
C6 C 0.6600(6) -0.1829(6) 0.1530(5)
H2 H 0.6618 -0.1967 0.0902
C7 C 0.5554(6) -0.2065(6) 0.2361(6)
H3 H 0.4850 -0.2359 0.2282
C8 C 0.6731(5) -0.1311(5) 0.4456(5)
C9 C 0.8933(6) -0.1267(6) -0.0094(5)
C10 C 0.9217(6) -0.2432(6) 0.0028(5)
H4 H 0.9194 -0.3083 0.0751
C11 C 0.9533(6) -0.2610(5) -0.0934(5)
H5 H 0.9715 -0.3386 -0.0863
C12 C 0.9581(5) -0.1623(5) -0.2021(4)
C13 C 0.9265(5) -0.0451(5) -0.2144(5)
C14 C 0.8965(6) -0.0286(5) -0.1162(5)
H6 H 0.8786 0.0486 -0.1224
C15 C 1.0059(5) -0.1907(5) -0.3048(5)
C16 C 0.9131(6) 0.0651(5) -0.3271(5)
C17 C 0.4111(7) 0.1101(6) 0.1511(5)
H7 H 0.3449 0.0857 0.1320
C18 C 0.5242(6) 0.1384(7) 0.0872(5)
H8 H 0.5510 0.1389 0.0164
C19 C 0.5191(6) 0.1553(5) 0.2425(4)
H9 H 0.5444 0.1693 0.2980
C20 C 0.7282(6) 0.2058(6) 0.1104(5)
H10 H 0.7593 0.2101 0.1726
H11 H 0.7916 0.1473 0.0923
C21 C 0.7215(6) 0.3247(6) 0.0091(5)
C22 C 0.6841(9) 0.4296(7) 0.0196(7)
H12 H 0.6624 0.4256 0.0921
C23 C 0.6781(9) 0.5421(7) -0.0763(7)
H13 H 0.6592 0.6120 -0.0674
C24 C 0.7006(9) 0.5483(7) -0.1852(7)
H14 H 0.6903 0.6227 -0.2492
C25 C 0.7379(6) 0.4456(6) -0.1985(5)
C26 C 0.7501(6) 0.3336(6) -0.1026(5)
H15 H 0.7771 0.2642 -0.1122
C27 C 0.7790(6) 0.4527(7) -0.3169(5)
H16 H 0.7737 0.3769 -0.3148
H17 H 0.7182 0.5151 -0.3703
C28 C 1.0312(7) 0.3966(6) -0.3349(6)
H18 H 1.0373 0.3136 -0.3030
C29 C 1.1308(7) 0.4588(6) -0.3696(6)
H19 H 1.2209 0.4254 -0.3674
C30 C 0.9525(6) 0.5880(5) -0.4005(5)
H20 H 0.8929 0.6597 -0.4224
O10 O 0.3709(13) -0.3778(12) 0.6726(9)
H21 H 0.3723 -0.4398 0.7370
H22 H 0.4243 -0.3942 0.6233
Cd1A Cd 0.73430(4) -0.05711(3) -0.40736(3)
Cd1A_2 Cd 0.73430(4) -0.05711(3) 0.59264(3)
Cd2_2 Cd 1.17345(4) -0.25715(4) -0.46774(4)
Cd2_3 Cd 1.17345(4) 0.74285(4) -0.46774(4)
Cd2A Cd 0.82655(4) 0.25715(4) -0.53226(4)
O3A O 0.3406(5) 0.2141(4) 0.4559(4)
O4A O 0.2903(5) 0.0345(4) 0.5750(3)
O6A O 0.0748(4) 0.1917(4) 0.3628(3)
O7_2 O 0.1307(4) -0.2182(5) 0.6824(4)
O8A O 0.1195(4) -0.0542(4) 0.4068(3)
O9A O 0.0680(5) -0.1619(4) 0.3366(4)
N4_2 N 0.0835(5) -0.4203(4) 0.5905(4)
H23 H 0.4673 0.5783 0.4098
H24 H 0.4820 0.4680 0.4094
O11 O 0.5076(19) 0.5062(12) 0.4378(13)
loop_
_geom_bond_atom_site_label_1
_geom_bond_atom_site_label_2
_geom_bond_site_symmetry_1
_geom_bond_site_symmetry_2
Cd1 O1 1_555 1_555
Cd2 O1 1_555 1_555
O1 C1 1_555 1_555
O2 Cd2 1_555 1_555
O3 C8 1_555 1_555
O4 C8 1_555 1_555
O5 C5 1_555 1_555
O6 C15 1_555 1_555
O7 C15 1_555 1_555
O8 C16 1_555 1_555
O9 C16 1_555 1_555
N1 Cd1 1_555 1_555
N2 C18 1_555 1_555
N3 C27 1_555 1_555
N4 C29 1_555 1_555
C1 O2 1_555 1_555
C2 C1 1_555 1_555
C3 C2 1_555 1_555
C4 C3 1_555 1_555
H1 C4 1_555 1_555
C5 C4 1_555 1_555
C6 C5 1_555 1_555
H2 C6 1_555 1_555
C7 C2 1_555 1_555
H3 C7 1_555 1_555
C8 C3 1_555 1_555
C9 O5 1_555 1_555
C10 C9 1_555 1_555
H4 C10 1_555 1_555
C11 C10 1_555 1_555
H5 C11 1_555 1_555
C12 C11 1_555 1_555
C13 C12 1_555 1_555
C14 C9 1_555 1_555
H6 C14 1_555 1_555
C15 C12 1_555 1_555
C16 C13 1_555 1_555
C17 N1 1_555 1_555
H7 C17 1_555 1_555
C18 C17 1_555 1_555
H8 C18 1_555 1_555
C19 N1 1_555 1_555
H9 C19 1_555 1_555
C20 N2 1_555 1_555
H10 C20 1_555 1_555
H11 C20 1_555 1_555
C21 C20 1_555 1_555
C22 C21 1_555 1_555
H12 C22 1_555 1_555
C23 C22 1_555 1_555
H13 C23 1_555 1_555
C24 C23 1_555 1_555
H14 C24 1_555 1_555
C25 C24 1_555 1_555
C26 C21 1_555 1_555
H15 C26 1_555 1_555
C27 C25 1_555 1_555
H16 C27 1_555 1_555
H17 C27 1_555 1_555
C28 N3 1_555 1_555
H18 C28 1_555 1_555
C29 C28 1_555 1_555
H19 C29 1_555 1_555
C30 N3 1_555 1_555
H20 C30 1_555 1_555
O10 Cd2 1_555 1_555
H21 O10 1_555 1_555
H22 O10 1_555 1_555
H23 O11 1_555 1_555
H24 O11 1_555 1_555
Cd1A O6 1_555 1_555
Cd1A_2 O3 1_555 1_555
Cd2_2 O7 1_555 1_555
Cd2_3 N4 1_555 1_555
Cd2A O8 1_555 1_555
O3A Cd1 1_555 1_555
O4A Cd1 1_555 1_555
O6A Cd1 1_555 1_555
O7_2 Cd2 1_555 1_555
O8A Cd1 1_555 1_555
O9A Cd2 1_555 1_555
N4_2 Cd2 1_555 1_555
Cd2 O8A 1_555 1_555
O4 Cd1A_2 1_555 1_555
O8 Cd1A 1_555 1_555
O9 Cd2A 1_555 1_555
N2 C19 1_555 1_555
N4 C30 1_555 1_555
C6 C7 1_555 1_555
C13 C14 1_555 1_555
C25 C26 1_555 1_555

#END
