
#######################################################################
#
#                 Cambridge Crystallographic Data Centre
#                                CCDC 
#
#######################################################################
#
# If this CIF has been generated from an entry in the Cambridge 
# Structural Database, then it will include bibliographic, chemical, 
# crystal, experimental, refinement or atomic coordinate data resulting 
# from the CCDC's data processing and validation procedures.
#
#######################################################################

data_FIGKUD
_symmetry_cell_setting           monoclinic
_symmetry_space_group_name_H-M   'P 21/c'
_symmetry_Int_Tables_number      14
_space_group_name_Hall           '-P 2ybc'
loop_
_symmetry_equiv_pos_site_id
_symmetry_equiv_pos_as_xyz
1 x,y,z
2 -x,1/2+y,1/2-z
3 -x,-y,-z
4 x,1/2-y,1/2+z
_cell_length_a                   10.907(2)
_cell_length_b                   18.093(3)
_cell_length_c                   14.803(3)
_cell_angle_alpha                90
_cell_angle_beta                 96.270(3)
_cell_angle_gamma                90
_cell_volume                     2903.76
loop_
_atom_site_label
_atom_site_type_symbol
_atom_site_fract_x
_atom_site_fract_y
_atom_site_fract_z
Cu1 Cu 0.91924(5) 1.00394(3) -0.11007(3)
O1 O 0.8873(3) 0.94908(15) 0.0044(2)
O2 O 0.7351(3) 0.90620(18) -0.0915(2)
O3 O 0.6265(4) 0.97502(19) 0.0777(3)
O4 O 0.5994(4) 0.9389(2) 0.2131(3)
H1 H 0.6425 0.9157 0.2522
O5 O 0.8443(3) 0.64922(16) 0.0859(2)
O6 O 1.0261(3) 0.56253(16) -0.2875(2)
O7 O 1.1744(3) 0.50442(16) -0.2036(2)
O8 O 1.2771(3) 0.51200(18) -0.0526(2)
H2 H 1.2440 0.5100 -0.1050
O9 O 1.2723(3) 0.5894(2) 0.0602(3)
N1 N 0.8221(3) 1.08885(18) -0.0756(2)
N2 N 0.6835(3) 1.15214(18) -0.0120(2)
N3 N 0.8318(3) 1.1419(2) 0.1938(3)
N4 N 0.9890(3) 1.08129(19) 0.1512(2)
C1 C 0.7139(4) 1.0860(2) -0.0437(3)
H3 H 0.6652 1.0438 -0.0432
C2 C 0.8629(5) 1.1604(2) -0.0640(3)
H4 H 0.9368 1.1788 -0.0807
C3 C 0.7786(5) 1.1992(2) -0.0245(3)
H5 H 0.7837 1.2489 -0.0085
C4 C 0.5700(4) 1.1680(3) 0.0288(4)
H6 H 0.5456 1.1244 0.0604
H7 H 0.5047 1.1795 -0.0190
C5 C 0.5849(4) 1.2313(2) 0.0942(3)
C6 C 0.5308(4) 1.2985(3) 0.0672(4)
H8 H 0.4849 1.3022 0.0106
C7 C 0.5440(5) 1.3598(3) 0.1229(5)
H9 H 0.5066 1.4042 0.1043
C8 C 0.6120(5) 1.3548(3) 0.2053(5)
H10 H 0.6231 1.3962 0.2425
C9 C 0.6630(5) 1.2900(4) 0.2330(4)
H11 H 0.7087 1.2876 0.2897
C10 C 0.6503(4) 1.2261(3) 0.1800(3)
C11 C 0.7059(5) 1.1553(3) 0.2174(4)
H12 H 0.7077 1.1561 0.2830
H13 H 0.6535 1.1146 0.1947
C12 C 0.8712(4) 1.0787(3) 0.1614(3)
H14 H 0.8213 1.0376 0.1478
C13 C 1.0261(4) 1.1504(2) 0.1778(3)
H15 H 1.1056 1.1688 0.1771
C14 C 0.9311(4) 1.1881(3) 0.2052(3)
H16 H 0.9326 1.2361 0.2276
C15 C 0.7964(4) 0.9054(2) -0.0172(3)
C16 C 0.7721(4) 0.8467(2) 0.0507(3)
C17 C 0.8196(4) 0.7774(2) 0.0368(3)
H17 H 0.8663 0.7698 -0.0113
C18 C 0.7985(4) 0.7192(2) 0.0932(3)
C19 C 0.7280(4) 0.7294(2) 0.1647(3)
H18 H 0.7121 0.6900 0.2020
C20 C 0.6822(4) 0.7980(2) 0.1795(3)
H19 H 0.6366 0.8053 0.2283
C21 C 0.7023(4) 0.8572(2) 0.1231(3)
C22 C 0.6403(4) 0.9292(2) 0.1349(3)
C23 C 0.9055(4) 0.6300(2) 0.0115(3)
C24 C 0.8444(5) 0.6263(3) -0.0741(3)
H20 H 0.7621 0.6403 -0.0851
C25 C 0.9082(4) 0.6011(3) -0.1443(3)
H21 H 0.8683 0.6001 -0.2031
C26 C 1.0292(4) 0.5775(2) -0.1295(3)
C27 C 1.0902(4) 0.5827(2) -0.0411(3)
C28 C 1.0254(4) 0.6101(2) 0.0276(3)
H22 H 1.0655 0.6148 0.0861
C29 C 1.0809(4) 0.5469(2) -0.2118(3)
C30 C 1.2226(4) 0.5615(3) -0.0082(3)
Cu1A Cu 1.08076(5) 0.50394(3) -0.38993(3)
Cu1B Cu 1.08076(5) 0.99606(3) 0.11007(3)
O1B O 1.1127(3) 1.05092(15) -0.0044(2)
O6A O 0.9739(3) 1.06253(16) -0.2125(2)
N4B N 1.0110(3) 0.91871(19) -0.1512(2)
O10 O 0.5293(4) 0.9207(2) 0.6046(3)
H23 H 0.5612 0.9542 0.6399
H24 H 0.4516 0.9270 0.5958
O11 O 0.5408(3) 0.94921(19) 0.7822(3)
H25 H 0.5477 0.9063 0.8041
H26 H 0.5978 0.9763 0.8083
loop_
_geom_bond_atom_site_label_1
_geom_bond_atom_site_label_2
_geom_bond_site_symmetry_1
_geom_bond_site_symmetry_2
Cu1 O1 1_555 1_555
O1 C15 1_555 1_555
O2 Cu1 1_555 1_555
O3 C22 1_555 1_555
O4 H1 1_555 1_555
O5 C18 1_555 1_555
O6 C29 1_555 1_555
O7 C29 1_555 1_555
O8 H2 1_555 1_555
O9 C30 1_555 1_555
N1 Cu1 1_555 1_555
N2 C1 1_555 1_555
N3 C11 1_555 1_555
N4 C12 1_555 1_555
C1 N1 1_555 1_555
H3 C1 1_555 1_555
C2 N1 1_555 1_555
H4 C2 1_555 1_555
C3 N2 1_555 1_555
H5 C3 1_555 1_555
C4 N2 1_555 1_555
H6 C4 1_555 1_555
H7 C4 1_555 1_555
C5 C4 1_555 1_555
C6 C5 1_555 1_555
H8 C6 1_555 1_555
C7 C6 1_555 1_555
H9 C7 1_555 1_555
C8 C7 1_555 1_555
H10 C8 1_555 1_555
C9 C8 1_555 1_555
H11 C9 1_555 1_555
C10 C5 1_555 1_555
C11 C10 1_555 1_555
H12 C11 1_555 1_555
H13 C11 1_555 1_555
C12 N3 1_555 1_555
H14 C12 1_555 1_555
C13 N4 1_555 1_555
H15 C13 1_555 1_555
C14 N3 1_555 1_555
H16 C14 1_555 1_555
C15 O2 1_555 1_555
C16 C15 1_555 1_555
C17 C16 1_555 1_555
H17 C17 1_555 1_555
C18 C17 1_555 1_555
C19 C18 1_555 1_555
H18 C19 1_555 1_555
C20 C19 1_555 1_555
H19 C20 1_555 1_555
C21 C16 1_555 1_555
C22 O4 1_555 1_555
C23 O5 1_555 1_555
C24 C23 1_555 1_555
H20 C24 1_555 1_555
C25 C24 1_555 1_555
H21 C25 1_555 1_555
C26 C25 1_555 1_555
C27 C26 1_555 1_555
C28 C23 1_555 1_555
H22 C28 1_555 1_555
C29 C26 1_555 1_555
C30 O8 1_555 1_555
O10 H23 1_555 1_555
H24 O10 1_555 1_555
O11 H25 1_555 1_555
H26 O11 1_555 1_555
Cu1A O6 1_555 1_555
Cu1B O1 1_555 1_555
O1B Cu1 1_555 1_555
O6A Cu1 1_555 1_555
N4B Cu1 1_555 1_555
N4 Cu1B 1_555 1_555
C2 C3 1_555 1_555
C9 C10 1_555 1_555
C13 C14 1_555 1_555
C20 C21 1_555 1_555
C21 C22 1_555 1_555
C27 C28 1_555 1_555
C27 C30 1_555 1_555
Cu1B O1B 1_555 1_555

#END
