
#######################################################################
#
#                 Cambridge Crystallographic Data Centre
#                                CCDC 
#
#######################################################################
#
# If this CIF has been generated from an entry in the Cambridge 
# Structural Database, then it will include bibliographic, chemical, 
# crystal, experimental, refinement or atomic coordinate data resulting 
# from the CCDC's data processing and validation procedures.
#
#######################################################################

data_FIGKIQ
_symmetry_cell_setting           orthorhombic
_symmetry_space_group_name_H-M   'P 21 21 21'
_symmetry_Int_Tables_number      19
_space_group_name_Hall           'P 2ac 2ab'
loop_
_symmetry_equiv_pos_site_id
_symmetry_equiv_pos_as_xyz
1 x,y,z
2 1/2-x,-y,1/2+z
3 1/2+x,1/2-y,-z
4 -x,1/2+y,1/2-z
_cell_length_a                   9.3050(6)
_cell_length_b                   17.8403(12)
_cell_length_c                   21.9501(15)
_cell_angle_alpha                90
_cell_angle_beta                 90
_cell_angle_gamma                90
_cell_volume                     3643.8
loop_
_atom_site_label
_atom_site_type_symbol
_atom_site_fract_x
_atom_site_fract_y
_atom_site_fract_z
C1 C 0.2553(9) 1.0029(5) 0.9745(4)
H1 H 0.2595 0.9948 1.0191
H2 H 0.3264 0.9692 0.9551
C2 C 0.0965(9) 0.8805(5) 0.9093(4)
H3 H 0.1446 0.8485 0.9400
H4 H 0.0026 0.8573 0.8997
C3 C 0.3028(10) 1.0775(5) 0.7118(3)
H5 H 0.3327 1.0802 0.6685
H6 H 0.3889 1.0873 0.7370
C4 C 0.2810(9) 1.2269(4) 0.7744(4)
H7 H 0.3835 1.2189 0.7642
H8 H 0.2555 1.2789 0.7630
C5 C 0.1942(12) 1.1593(6) 1.0120(4)
H9 H 0.2209 1.2123 1.0090
H10 H 0.2134 1.1413 1.0534
H11 H 0.0918 1.1535 1.0028
C6 C 0.4945(9) 1.1124(5) 0.9796(4)
H12 H 0.5540 1.0816 0.9526
H13 H 0.5060 1.0952 1.0217
H14 H 0.5245 1.1649 0.9765
C7 C 0.0717(10) 1.2554(5) 0.8727(4)
H15 H 0.0112 1.2470 0.8368
H16 H 0.0807 1.3093 0.8802
H17 H 0.0277 1.2313 0.9082
C8 C 0.3877(12) 1.2783(5) 0.8962(4)
H18 H 0.3714 1.2788 0.9403
H19 H 0.3760 1.3291 0.8799
H20 H 0.4854 1.2605 0.8878
C9 C 0.0653(12) 0.9670(6) 0.6832(5)
H21 H 0.0181 0.9199 0.6944
H22 H 0.0877 0.9664 0.6396
H23 H 0.0010 1.0091 0.6921
C10 C 0.3717(13) 0.9135(6) 0.6912(5)
H24 H 0.4632 0.9164 0.7132
H25 H 0.3862 0.9289 0.6487
H26 H 0.3357 0.8619 0.6923
C11 C 0.1299(13) 0.8063(6) 0.7890(5)
H27 H 0.0326 0.8208 0.7765
H28 H 0.1259 0.7593 0.8120
H29 H 0.1900 0.7994 0.7527
C12 C 0.3907(11) 0.8477(6) 0.8597(5)
H30 H 0.4482 0.8400 0.8228
H31 H 0.3817 0.8001 0.8817
H32 H 0.4379 0.8847 0.8858
C13 C -0.0403(9) 0.9530(5) 1.0205(4)
C14 C -0.1624(11) 0.9940(6) 1.0334(4)
H33 H -0.1893 1.0340 1.0072
C15 C -0.2466(12) 0.9776(8) 1.0840(5)
H34 H -0.3283 1.0074 1.0934
C16 C -0.2103(10) 0.9180(7) 1.1202(5)
H35 H -0.2706 0.9039 1.1532
C17 C -0.0845(10) 0.8778(5) 1.1086(4)
H36 H -0.0557 0.8385 1.1351
C18 C -0.0025(8) 0.8955(5) 1.0584(4)
H37 H 0.0818 0.8673 1.0499
C19 C 0.1733(8) 1.2002(5) 0.6452(3)
C20 C 0.0954(10) 1.1666(5) 0.5991(4)
H38 H 0.0374 1.1243 0.6084
C21 C 0.0993(10) 1.1925(6) 0.5403(4)
H39 H 0.0444 1.1684 0.5095
C22 C 0.1849(11) 1.2548(6) 0.5259(4)
H40 H 0.1885 1.2740 0.4856
C23 C 0.2633(9) 1.2873(6) 0.5719(3)
H41 H 0.3233 1.3289 0.5628
C24 C 0.2575(8) 1.2614(5) 0.6303(3)
H42 H 0.3118 1.2857 0.6612
C25 C -0.2100(11) 1.1104(7) 0.8456(8)
H43 H -0.2133 1.1002 0.8899
H44 H -0.1651 1.1602 0.8399
C26 C -0.3500(9) 1.1135(5) 0.8238(6)
H45 H -0.3485 1.1332 0.7816
H46 H -0.4055 1.1492 0.8491
C27 C -0.1903(9) 0.9847(5) 0.8181(5)
H47 H -0.1977 0.9671 0.8608
H48 H -0.1305 0.9482 0.7955
C28 C -0.3337(11) 0.9861(7) 0.7913(6)
H49 H -0.3789 0.9361 0.7948
H50 H -0.3273 0.9992 0.7475
Li1 Li 0.0949(12) 1.0569(7) 0.8425(5)
Li2 Li 0.3653(13) 1.0412(9) 0.8360(7)
N1 N 0.2697(6) 1.1232(3) 0.8815(3)
N2 N 0.2151(6) 0.9678(3) 0.8055(3)
O1 O -0.1207(5) 1.0554(3) 0.8175(3)
O2 O -0.4218(5) 1.0428(3) 0.8241(3)
Si1 Si 0.3018(2) 1.10378(12) 0.95664(9)
Si2 Si 0.2090(2) 0.88209(12) 0.83819(11)
Si3 Si 0.2370(2) 0.97771(12) 0.72831(10)
Si4 Si 0.2548(2) 1.21417(12) 0.85908(10)
As1 As 0.06318(8) 0.97878(5) 0.94476(4)
As2 As 0.16265(8) 1.15671(4) 0.72702(3)
Li2_2 Li -0.6347(13) 1.0412(9) 0.8360(7)
O2_2 O 0.5782(5) 1.0428(3) 0.8241(3)
loop_
_geom_bond_atom_site_label_1
_geom_bond_atom_site_label_2
_geom_bond_site_symmetry_1
_geom_bond_site_symmetry_2
C1 H1 1_555 1_555
H2 C1 1_555 1_555
C2 H3 1_555 1_555
H4 C2 1_555 1_555
C3 H5 1_555 1_555
H6 C3 1_555 1_555
C4 H7 1_555 1_555
H8 C4 1_555 1_555
C5 H9 1_555 1_555
H10 C5 1_555 1_555
H11 C5 1_555 1_555
C6 H12 1_555 1_555
H13 C6 1_555 1_555
H14 C6 1_555 1_555
C7 H15 1_555 1_555
H16 C7 1_555 1_555
H17 C7 1_555 1_555
C8 H18 1_555 1_555
H19 C8 1_555 1_555
H20 C8 1_555 1_555
C9 H21 1_555 1_555
H22 C9 1_555 1_555
H23 C9 1_555 1_555
C10 H24 1_555 1_555
H25 C10 1_555 1_555
H26 C10 1_555 1_555
C11 H27 1_555 1_555
H28 C11 1_555 1_555
H29 C11 1_555 1_555
C12 H30 1_555 1_555
H31 C12 1_555 1_555
H32 C12 1_555 1_555
C13 C14 1_555 1_555
C14 H33 1_555 1_555
C15 C14 1_555 1_555
H34 C15 1_555 1_555
C16 C15 1_555 1_555
H35 C16 1_555 1_555
C17 C16 1_555 1_555
H36 C17 1_555 1_555
C18 C13 1_555 1_555
H37 C18 1_555 1_555
C19 C20 1_555 1_555
C20 H38 1_555 1_555
C21 C20 1_555 1_555
H39 C21 1_555 1_555
C22 C21 1_555 1_555
H40 C22 1_555 1_555
C23 C22 1_555 1_555
H41 C23 1_555 1_555
C24 C19 1_555 1_555
H42 C24 1_555 1_555
C25 H43 1_555 1_555
H44 C25 1_555 1_555
C26 C25 1_555 1_555
H45 C26 1_555 1_555
H46 C26 1_555 1_555
C27 H47 1_555 1_555
H48 C27 1_555 1_555
C28 C27 1_555 1_555
H49 C28 1_555 1_555
H50 C28 1_555 1_555
Li1 N1 1_555 1_555
Li2 N1 1_555 1_555
N1 Si1 1_555 1_555
N2 Li1 1_555 1_555
O1 C25 1_555 1_555
O2 C26 1_555 1_555
Si1 C1 1_555 1_555
Si2 C2 1_555 1_555
Si3 C3 1_555 1_555
Si4 C4 1_555 1_555
As1 C1 1_555 1_555
As2 C3 1_555 1_555
Li2_2 O2 1_555 1_555
O2_2 Li2 1_555 1_555
C2 As1 1_555 1_555
C4 As2 1_555 1_555
C5 Si1 1_555 1_555
C6 Si1 1_555 1_555
C7 Si4 1_555 1_555
C8 Si4 1_555 1_555
C9 Si3 1_555 1_555
C10 Si3 1_555 1_555
C11 Si2 1_555 1_555
C12 Si2 1_555 1_555
C13 As1 1_555 1_555
C17 C18 1_555 1_555
C19 As2 1_555 1_555
C23 C24 1_555 1_555
C27 O1 1_555 1_555
C28 O2 1_555 1_555
Li1 O1 1_555 1_555
Li1 As1 1_555 1_555
Li2 N2 1_555 1_555
N1 Si4 1_555 1_555
N2 Si2 1_555 1_555
N2 Si3 1_555 1_555

#END
