
#######################################################################
#
#                 Cambridge Crystallographic Data Centre
#                                CCDC 
#
#######################################################################
#
# If this CIF has been generated from an entry in the Cambridge 
# Structural Database, then it will include bibliographic, chemical, 
# crystal, experimental, refinement or atomic coordinate data resulting 
# from the CCDC's data processing and validation procedures.
#
#######################################################################

data_FIGLIS
_symmetry_cell_setting           triclinic
_symmetry_space_group_name_H-M   'P -1'
_symmetry_Int_Tables_number      2
_space_group_name_Hall           '-P 1'
loop_
_symmetry_equiv_pos_site_id
_symmetry_equiv_pos_as_xyz
1 x,y,z
2 -x,-y,-z
_cell_length_a                   10.9642(8)
_cell_length_b                   12.8833(9)
_cell_length_c                   15.6596(12)
_cell_angle_alpha                77.7990(10)
_cell_angle_beta                 71.2030(10)
_cell_angle_gamma                82.6690(10)
_cell_volume                     2042.49
loop_
_atom_site_label
_atom_site_type_symbol
_atom_site_fract_x
_atom_site_fract_y
_atom_site_fract_z
Pb1 Pb 0.03855(2) 0.642333(17) 0.481392(16)
Pb2 Pb -0.06521(2) 0.628334(16) 1.096031(16)
N1 N 0.0808(4) 0.8391(3) 0.4407(3)
N2 N 0.1503(5) 0.7084(4) 0.5815(3)
N3 N 0.2834(4) 1.1226(3) 0.5039(3)
H1 H 0.2745 1.1784 0.4646
N4 N 0.3399(4) 1.0177(3) 0.6198(3)
N5 N -0.0132(4) 0.8190(3) 1.1056(3)
N6 N 0.1632(5) 0.6916(4) 1.0022(3)
N7 N 0.3032(4) 1.0962(3) 0.9658(3)
H2 H 0.2689 1.1521 0.9886
N8 N 0.4468(4) 0.9888(4) 0.8806(3)
O1 O 0.1217(4) 1.2795(3) 0.6036(3)
O2 O 0.1891(4) 1.4362(3) 0.5213(3)
O3 O 0.2714(4) 1.2779(3) 0.8363(3)
O4 O 0.3172(4) 1.4207(4) 0.8743(4)
O5 O -0.1441(4) 0.7107(3) 0.5892(3)
O6 O -0.0842(4) 0.5498(3) 0.6487(3)
O7 O -0.1291(4) 0.7366(3) 0.9652(3)
O8 O -0.0517(5) 0.5816(3) 0.9274(3)
O9 O -0.0126(6) 0.6154(5) 1.2509(4)
C1 C 0.0467(5) 0.9014(4) 0.3715(4)
H3 H -0.0012 0.8735 0.3433
C2 C 0.0797(5) 1.0063(4) 0.3397(4)
H4 H 0.0563 1.0465 0.2900
C3 C 0.1463(5) 1.0497(4) 0.3816(4)
H5 H 0.1689 1.1198 0.3611
C4 C 0.1807(5) 0.9864(4) 0.4571(4)
C5 C 0.2457(5) 1.0234(4) 0.5096(4)
C6 C 0.2812(5) 0.9597(4) 0.5813(4)
C7 C 0.2519(5) 0.8502(4) 0.6087(4)
C8 C 0.2850(6) 0.7788(5) 0.6793(4)
H6 H 0.3303 0.8013 0.7124
C9 C 0.2511(7) 0.6756(5) 0.7001(4)
H7 H 0.2724 0.6275 0.7473
C10 C 0.1843(6) 0.6446(5) 0.6489(4)
H8 H 0.1621 0.5743 0.6630
C11 C 0.1837(5) 0.8111(4) 0.5604(4)
C12 C 0.1473(5) 0.8808(4) 0.4844(4)
C13 C 0.3374(5) 1.1166(4) 0.5717(4)
C14 C 0.3924(5) 1.2071(4) 0.5870(4)
C15 C 0.5089(6) 1.1874(5) 0.6074(4)
H9 H 0.5452 1.1180 0.6140
C16 C 0.5723(6) 1.2676(5) 0.6180(4)
H10 H 0.6478 1.2514 0.6345
C17 C 0.5239(6) 1.3706(5) 0.6043(4)
H11 H 0.5674 1.4252 0.6096
C18 C 0.4095(6) 1.3933(5) 0.5826(4)
H12 H 0.3773 1.4637 0.5727
C19 C 0.3415(6) 1.3131(4) 0.5752(4)
C20 C 0.2079(6) 1.3455(5) 0.5652(4)
C21 C -0.0955(6) 0.8781(4) 1.1610(4)
H13 H -0.1723 0.8494 1.1993
C22 C -0.0741(6) 0.9804(4) 1.1653(4)
H14 H -0.1342 1.0181 1.2067
C23 C 0.0371(5) 1.0252(4) 1.1076(4)
H15 H 0.0517 1.0947 1.1078
C24 C 0.1284(5) 0.9653(4) 1.0487(4)
C25 C 0.2494(6) 0.9983(4) 0.9875(4)
C26 C 0.3400(5) 0.9351(4) 0.9347(4)
C27 C 0.3170(6) 0.8268(4) 0.9392(4)
C28 C 0.4066(6) 0.7530(4) 0.8947(4)
H16 H 0.4887 0.7729 0.8586
C29 C 0.3734(6) 0.6521(5) 0.9044(4)
H17 H 0.4324 0.6020 0.8758
C30 C 0.2502(6) 0.6255(5) 0.9576(4)
H18 H 0.2273 0.5570 0.9623
C31 C 0.1951(6) 0.7916(4) 0.9952(4)
C32 C 0.1002(5) 0.8596(4) 1.0507(3)
C33 C 0.4208(5) 1.0867(4) 0.9015(4)
C34 C 0.5129(5) 1.1717(4) 0.8612(4)
C35 C 0.6439(6) 1.1374(5) 0.8377(4)
H19 H 0.6672 1.0649 0.8443
C36 C 0.7388(6) 1.2086(5) 0.8051(4)
H20 H 0.8252 1.1838 0.7887
C37 C 0.7072(6) 1.3159(5) 0.7965(4)
H21 H 0.7712 1.3643 0.7760
C38 C 0.5791(6) 1.3507(5) 0.8189(4)
H22 H 0.5575 1.4234 0.8145
C39 C 0.4800(6) 1.2810(4) 0.8480(4)
C40 C 0.3465(6) 1.3307(5) 0.8539(4)
C41 C -0.1608(6) 0.6303(5) 0.6531(4)
C42 C -0.2769(6) 0.6345(5) 0.7380(4)
H23 H -0.3363 0.5828 0.7417
H24 H -0.3214 0.7045 0.7325
C43 C -0.2390(6) 0.6113(5) 0.8263(4)
H25 H -0.3165 0.6061 0.8786
H26 H -0.1897 0.5433 0.8300
C44 C -0.1590(7) 0.6974(5) 0.8310(4)
H27 H -0.0867 0.7085 0.7753
H28 H -0.2118 0.7638 0.8346
C45 C -0.1090(6) 0.6684(5) 0.9123(4)
Pb1A Pb -0.03855(2) 1.357667(17) 0.518608(16)
Pb2A Pb 0.06521(2) 0.371666(16) 0.903969(16)
Pb2A_2 Pb 0.06521(2) 1.371666(16) 0.903969(16)
O1A O -0.1217(4) 0.7205(3) 0.3964(3)
O2A O -0.1891(4) 0.5638(3) 0.4787(3)
O3A O -0.2714(4) 0.7221(3) 1.1637(3)
O4A O -0.3172(4) 0.5793(4) 1.1257(4)
O8A O 0.0517(5) 0.4184(3) 1.0726(3)
O10 O 0.5465(4) 0.9156(3) 0.7051(3)
loop_
_geom_bond_atom_site_label_1
_geom_bond_atom_site_label_2
_geom_bond_site_symmetry_1
_geom_bond_site_symmetry_2
Pb1 N1 1_555 1_555
Pb2 N5 1_555 1_555
N1 C1 1_555 1_555
N2 Pb1 1_555 1_555
N3 H1 1_555 1_555
N4 C6 1_555 1_555
N5 C21 1_555 1_555
N6 Pb2 1_555 1_555
N7 H2 1_555 1_555
N8 C26 1_555 1_555
O1 C20 1_555 1_555
O2 C20 1_555 1_555
O3 C40 1_555 1_555
O4 C40 1_555 1_555
O5 Pb1 1_555 1_555
O6 Pb1 1_555 1_555
O7 Pb2 1_555 1_555
O8 Pb2 1_555 1_555
O9 Pb2 1_555 1_555
C1 H3 1_555 1_555
C2 C1 1_555 1_555
H4 C2 1_555 1_555
C3 C2 1_555 1_555
H5 C3 1_555 1_555
C4 C3 1_555 1_555
C5 N3 1_555 1_555
C6 C5 1_555 1_555
C7 C6 1_555 1_555
C8 C7 1_555 1_555
H6 C8 1_555 1_555
C9 C8 1_555 1_555
H7 C9 1_555 1_555
C10 N2 1_555 1_555
H8 C10 1_555 1_555
C11 N2 1_555 1_555
C12 N1 1_555 1_555
C13 N3 1_555 1_555
C14 C13 1_555 1_555
C15 C14 1_555 1_555
H9 C15 1_555 1_555
C16 C15 1_555 1_555
H10 C16 1_555 1_555
C17 C16 1_555 1_555
H11 C17 1_555 1_555
C18 C17 1_555 1_555
H12 C18 1_555 1_555
C19 C14 1_555 1_555
C20 C19 1_555 1_555
C21 H13 1_555 1_555
C22 C21 1_555 1_555
H14 C22 1_555 1_555
C23 C22 1_555 1_555
H15 C23 1_555 1_555
C24 C23 1_555 1_555
C25 N7 1_555 1_555
C26 C25 1_555 1_555
C27 C26 1_555 1_555
C28 C27 1_555 1_555
H16 C28 1_555 1_555
C29 C28 1_555 1_555
H17 C29 1_555 1_555
C30 N6 1_555 1_555
H18 C30 1_555 1_555
C31 N6 1_555 1_555
C32 N5 1_555 1_555
C33 N7 1_555 1_555
C34 C33 1_555 1_555
C35 C34 1_555 1_555
H19 C35 1_555 1_555
C36 C35 1_555 1_555
H20 C36 1_555 1_555
C37 C36 1_555 1_555
H21 C37 1_555 1_555
C38 C37 1_555 1_555
H22 C38 1_555 1_555
C39 C34 1_555 1_555
C40 C39 1_555 1_555
C41 O5 1_555 1_555
C42 C41 1_555 1_555
H23 C42 1_555 1_555
H24 C42 1_555 1_555
C43 C42 1_555 1_555
H25 C43 1_555 1_555
H26 C43 1_555 1_555
C44 C43 1_555 1_555
H27 C44 1_555 1_555
H28 C44 1_555 1_555
C45 O7 1_555 1_555
Pb1A O1 1_555 1_555
Pb2A O8 1_555 1_555
Pb2A_2 O3 1_555 1_555
O1A Pb1 1_555 1_555
O2A Pb1 1_555 1_555
O3A Pb2 1_555 1_555
O4A Pb2 1_555 1_555
O8A Pb2 1_555 1_555
N4 C13 1_555 1_555
N8 C33 1_555 1_555
O2 Pb1A 1_555 1_555
O4 Pb2A_2 1_555 1_555
O6 C41 1_555 1_555
O8 C45 1_555 1_555
C4 C5 1_555 1_555
C4 C12 1_555 1_555
C7 C11 1_555 1_555
C9 C10 1_555 1_555
C11 C12 1_555 1_555
C18 C19 1_555 1_555
C24 C25 1_555 1_555
C24 C32 1_555 1_555
C27 C31 1_555 1_555
C29 C30 1_555 1_555
C31 C32 1_555 1_555
C38 C39 1_555 1_555
C44 C45 1_555 1_555
Pb2A O8A 1_555 1_555

#END
