
#######################################################################
#
#                 Cambridge Crystallographic Data Centre
#                                CCDC 
#
#######################################################################
#
# If this CIF has been generated from an entry in the Cambridge 
# Structural Database, then it will include bibliographic, chemical, 
# crystal, experimental, refinement or atomic coordinate data resulting 
# from the CCDC's data processing and validation procedures.
#
#######################################################################

data_FIGLOY
_symmetry_cell_setting           triclinic
_symmetry_space_group_name_H-M   'P -1'
_symmetry_Int_Tables_number      2
_space_group_name_Hall           '-P 1'
loop_
_symmetry_equiv_pos_site_id
_symmetry_equiv_pos_as_xyz
1 x,y,z
2 -x,-y,-z
_cell_length_a                   7.544(2)
_cell_length_b                   10.203(3)
_cell_length_c                   13.114(3)
_cell_angle_alpha                85.292(3)
_cell_angle_beta                 74.805(3)
_cell_angle_gamma                71.300(3)
_cell_volume                     922.689
loop_
_atom_site_label
_atom_site_type_symbol
_atom_site_fract_x
_atom_site_fract_y
_atom_site_fract_z
Pb1 Pb 0.13898(4) -0.14498(3) 0.33071(2)
N1 N 0.2085(9) -0.1276(6) 0.1265(5)
N2 N 0.1761(9) 0.0843(6) 0.2491(5)
N3 N 0.2843(9) 0.1874(7) -0.1770(5)
H1 H 0.2953 0.1426 -0.2322
N4 N 0.2707(10) 0.3591(7) -0.0761(5)
O1 O -0.0361(8) 0.3304(6) -0.2762(4)
O2 O 0.1083(9) 0.2933(6) -0.4464(4)
O3 O -0.1798(7) -0.0400(6) 0.3137(4)
O4 O -0.1643(8) 0.0238(6) 0.4661(4)
C1 C 0.2219(13) -0.2321(9) 0.0682(6)
H2 H 0.2136 -0.3143 0.1022
C2 C 0.2475(12) -0.2260(8) -0.0402(6)
H3 H 0.2535 -0.3015 -0.0777
C3 C 0.2639(11) -0.1068(8) -0.0908(6)
H4 H 0.2808 -0.1002 -0.1636
C4 C 0.2551(10) 0.0064(8) -0.0330(6)
C5 C 0.2662(11) 0.1366(8) -0.0749(5)
C6 C 0.2585(11) 0.2435(8) -0.0149(6)
C7 C 0.2309(11) 0.2307(8) 0.0967(6)
C8 C 0.2178(11) 0.3357(8) 0.1632(6)
H5 H 0.2323 0.4196 0.1355
C9 C 0.1833(12) 0.3127(9) 0.2693(6)
H6 H 0.1738 0.3815 0.3146
C10 C 0.1624(11) 0.1881(9) 0.3101(6)
H7 H 0.1377 0.1754 0.3830
C11 C 0.2109(10) 0.1041(7) 0.1430(5)
C12 C 0.2260(10) -0.0092(8) 0.0776(5)
C13 C 0.2815(11) 0.3211(8) -0.1740(6)
C14 C 0.2994(12) 0.4176(8) -0.2637(6)
C15 C 0.4024(14) 0.5072(10) -0.2607(7)
H8 H 0.4654 0.4975 -0.2070
C16 C 0.4145(14) 0.6094(10) -0.3340(7)
H9 H 0.4774 0.6720 -0.3273
C17 C 0.3319(13) 0.6189(10) -0.4183(7)
H10 H 0.3400 0.6875 -0.4689
C18 C 0.2378(11) 0.5259(9) -0.4266(6)
H11 H 0.1875 0.5300 -0.4848
C19 C 0.2168(11) 0.4257(8) -0.3489(6)
C20 C 0.0886(12) 0.3431(8) -0.3588(7)
C21 C -0.2612(11) 0.0072(8) 0.4077(6)
C22 C -0.4749(11) 0.0336(10) 0.4485(6)
H12 H -0.5390 0.1326 0.4559
H13 H -0.5224 -0.0006 0.3975
O3A O -0.8202(7) 0.0400(6) 0.6863(4)
O4A O -0.8357(8) -0.0238(6) 0.5339(4)
C21A C -0.7388(11) -0.0072(8) 0.5923(6)
C22A C -0.5251(11) -0.0336(10) 0.5515(6)
H12A H -0.4610 -0.1326 0.5441
H13A H -0.4776 0.0006 0.6025
Pb1A Pb -1.13898(4) 0.14498(3) 0.66929(2)
N1A N -1.2085(9) 0.1276(6) 0.8735(5)
N2A N -1.1761(9) -0.0843(6) 0.7509(5)
N3A N -1.2843(9) -0.1874(7) 1.1770(5)
H1A H -1.2953 -0.1426 1.2322
N4A N -1.2707(10) -0.3591(7) 1.0761(5)
O1A O -0.9639(8) -0.3304(6) 1.2762(4)
O2A O -1.1083(9) -0.2933(6) 1.4464(4)
C1A C -1.2219(13) 0.2321(9) 0.9318(6)
H2A H -1.2136 0.3143 0.8978
C2A C -1.2475(12) 0.2260(8) 1.0402(6)
H3A H -1.2535 0.3015 1.0777
C3A C -1.2639(11) 0.1068(8) 1.0908(6)
H4A H -1.2808 0.1002 1.1636
C4A C -1.2551(10) -0.0064(8) 1.0330(6)
C5A C -1.2662(11) -0.1366(8) 1.0749(5)
C6A C -1.2585(11) -0.2435(8) 1.0149(6)
C7A C -1.2309(11) -0.2307(8) 0.9033(6)
C8A C -1.2178(11) -0.3357(8) 0.8368(6)
H5A H -1.2323 -0.4196 0.8645
C9A C -1.1833(12) -0.3127(9) 0.7307(6)
H6A H -1.1738 -0.3815 0.6854
C10A C -1.1624(11) -0.1881(9) 0.6899(6)
H7A H -1.1377 -0.1754 0.6170
C11A C -1.2109(10) -0.1041(7) 0.8570(5)
C12A C -1.2260(10) 0.0092(8) 0.9224(5)
C13A C -1.2815(11) -0.3211(8) 1.1740(6)
C14A C -1.2994(12) -0.4176(8) 1.2637(6)
C15A C -1.4024(14) -0.5072(10) 1.2607(7)
H8A H -1.4654 -0.4975 1.2070
C16A C -1.4145(14) -0.6094(10) 1.3340(7)
H9A H -1.4774 -0.6720 1.3273
C17A C -1.3319(13) -0.6189(10) 1.4183(7)
H10A H -1.3400 -0.6875 1.4689
C18A C -1.2378(11) -0.5259(9) 1.4266(6)
H11A H -1.1875 -0.5300 1.4848
C19A C -1.2168(11) -0.4257(8) 1.3489(6)
C20A C -1.0886(12) -0.3431(8) 1.3588(7)
Pb1_2 Pb -0.86102(4) -0.14498(3) 1.33071(2)
Pb1A_2 Pb -0.13898(4) 0.14498(3) -0.33071(2)
O1_2 O -1.0361(8) 0.3304(6) 0.7238(4)
O1A_2 O 0.0361(8) -0.3304(6) 0.2762(4)
O2_2 O -0.8917(9) 0.2933(6) 0.5536(4)
O2A_2 O -0.1083(9) -0.2933(6) 0.4464(4)
loop_
_geom_bond_atom_site_label_1
_geom_bond_atom_site_label_2
_geom_bond_site_symmetry_1
_geom_bond_site_symmetry_2
Pb1 N1 1_555 1_555
N1 C1 1_555 1_555
N2 Pb1 1_555 1_555
N3 H1 1_555 1_555
N4 C6 1_555 1_555
O1 C20 1_555 1_555
O2 C20 1_555 1_555
O3 Pb1 1_555 1_555
O4 Pb1 1_555 1_555
C1 H2 1_555 1_555
C2 C1 1_555 1_555
H3 C2 1_555 1_555
C3 C2 1_555 1_555
H4 C3 1_555 1_555
C4 C3 1_555 1_555
C5 N3 1_555 1_555
C6 C5 1_555 1_555
C7 C6 1_555 1_555
C8 C7 1_555 1_555
H5 C8 1_555 1_555
C9 C8 1_555 1_555
H6 C9 1_555 1_555
C10 N2 1_555 1_555
H7 C10 1_555 1_555
C11 N2 1_555 1_555
C12 N1 1_555 1_555
C13 N3 1_555 1_555
C14 C13 1_555 1_555
C15 C14 1_555 1_555
H8 C15 1_555 1_555
C16 C15 1_555 1_555
H9 C16 1_555 1_555
C17 C16 1_555 1_555
H10 C17 1_555 1_555
C18 C17 1_555 1_555
H11 C18 1_555 1_555
C19 C14 1_555 1_555
C20 C19 1_555 1_555
C21 O3 1_555 1_555
C22 C21 1_555 1_555
H12 C22 1_555 1_555
H13 C22 1_555 1_555
O3A C21A 1_555 1_555
O4A C21A 1_555 1_555
C21A C22A 1_555 1_555
C22A C22 1_555 1_555
H12A C22A 1_555 1_555
H13A C22A 1_555 1_555
Pb1A O3A 1_555 1_555
N1A Pb1A 1_555 1_555
N2A Pb1A 1_555 1_555
N3A H1A 1_555 1_555
N4A C6A 1_555 1_555
O1A C20A 1_555 1_555
O2A C20A 1_555 1_555
C1A N1A 1_555 1_555
H2A C1A 1_555 1_555
C2A C1A 1_555 1_555
H3A C2A 1_555 1_555
C3A C2A 1_555 1_555
H4A C3A 1_555 1_555
C4A C3A 1_555 1_555
C5A N3A 1_555 1_555
C6A C5A 1_555 1_555
C7A C6A 1_555 1_555
C8A C7A 1_555 1_555
H5A C8A 1_555 1_555
C9A C8A 1_555 1_555
H6A C9A 1_555 1_555
C10A N2A 1_555 1_555
H7A C10A 1_555 1_555
C11A N2A 1_555 1_555
C12A N1A 1_555 1_555
C13A N3A 1_555 1_555
C14A C13A 1_555 1_555
C15A C14A 1_555 1_555
H8A C15A 1_555 1_555
C16A C15A 1_555 1_555
H9A C16A 1_555 1_555
C17A C16A 1_555 1_555
H10A C17A 1_555 1_555
C18A C17A 1_555 1_555
H11A C18A 1_555 1_555
C19A C14A 1_555 1_555
C20A C19A 1_555 1_555
Pb1_2 O1A 1_555 1_555
Pb1A_2 O1 1_555 1_555
O1_2 Pb1A 1_555 1_555
O1A_2 Pb1 1_555 1_555
O2_2 Pb1A 1_555 1_555
O2A_2 Pb1 1_555 1_555
N4 C13 1_555 1_555
O2 Pb1A_2 1_555 1_555
O4 C21 1_555 1_555
C4 C5 1_555 1_555
C4 C12 1_555 1_555
C7 C11 1_555 1_555
C9 C10 1_555 1_555
C11 C12 1_555 1_555
C18 C19 1_555 1_555
O4A Pb1A 1_555 1_555
N4A C13A 1_555 1_555
O2A Pb1_2 1_555 1_555
C4A C5A 1_555 1_555
C4A C12A 1_555 1_555
C7A C11A 1_555 1_555
C9A C10A 1_555 1_555
C11A C12A 1_555 1_555
C18A C19A 1_555 1_555

#END
