
#######################################################################
#
#                 Cambridge Crystallographic Data Centre
#                                CCDC 
#
#######################################################################
#
# If this CIF has been generated from an entry in the Cambridge 
# Structural Database, then it will include bibliographic, chemical, 
# crystal, experimental, refinement or atomic coordinate data resulting 
# from the CCDC's data processing and validation procedures.
#
#######################################################################

data_FIGLEO
_symmetry_cell_setting           monoclinic
_symmetry_space_group_name_H-M   'P 21/c'
_symmetry_Int_Tables_number      14
_space_group_name_Hall           '-P 2ybc'
loop_
_symmetry_equiv_pos_site_id
_symmetry_equiv_pos_as_xyz
1 x,y,z
2 -x,1/2+y,1/2-z
3 -x,-y,-z
4 x,1/2-y,1/2+z
_cell_length_a                   10.2588(11)
_cell_length_b                   15.5304(16)
_cell_length_c                   17.2357(17)
_cell_angle_alpha                90
_cell_angle_beta                 104.624(2)
_cell_angle_gamma                90
_cell_volume                     2657.09
loop_
_atom_site_label
_atom_site_type_symbol
_atom_site_fract_x
_atom_site_fract_y
_atom_site_fract_z
Cu1 Cu 0.40190(3) 0.249447(15) 0.137124(16)
O1 O 0.46315(16) 0.19631(11) 0.27980(10)
O2 O 0.26530(16) 0.21556(11) 0.19569(9)
O3 O 0.08967(18) 0.11221(12) 0.50975(11)
O4 O -0.45590(17) 0.21308(11) 0.59031(11)
O5 O -0.3302(2) 0.32350(14) 0.64535(14)
N1 N 0.37907(19) 0.36996(12) 0.16902(11)
N2 N 0.2806(2) 0.48380(12) 0.20347(11)
N3 N 0.3299(2) 0.44322(13) 0.46954(11)
N4 N 0.3649(2) 0.35660(12) 0.57252(11)
C1 C 0.3387(2) 0.19823(13) 0.26513(13)
C2 C 0.2694(2) 0.17949(13) 0.32965(12)
C3 C 0.3379(2) 0.13498(14) 0.39721(13)
H1 H 0.4268 0.1185 0.4021
C4 C 0.2770(2) 0.11478(15) 0.45696(13)
H2 H 0.3233 0.0838 0.5016
C5 C 0.1460(2) 0.14097(14) 0.45019(13)
C6 C 0.0767(2) 0.18818(14) 0.38509(14)
H3 H -0.0100 0.2079 0.3822
C7 C 0.1382(2) 0.20570(14) 0.32412(13)
H4 H 0.0911 0.2354 0.2789
C8 C -0.0229(2) 0.15347(16) 0.52436(13)
C9 C -0.0094(3) 0.23381(18) 0.55823(18)
H5 H 0.0699 0.2650 0.5641
C10 C -0.1174(3) 0.26757(17) 0.58363(17)
H6 H -0.1096 0.3215 0.6078
C11 C -0.2356(2) 0.22196(16) 0.57329(13)
C12 C -0.2462(2) 0.14210(15) 0.53672(14)
H7 H -0.3263 0.1113 0.5287
C13 C -0.1392(2) 0.10748(16) 0.51194(15)
H8 H -0.1466 0.0538 0.4873
C14 C -0.3482(3) 0.25708(14) 0.60575(16)
C15 C 0.4610(3) 0.44048(16) 0.17093(16)
H9 H 0.5448 0.4400 0.1594
C16 C 0.4003(3) 0.51057(16) 0.19228(16)
H10 H 0.4341 0.5664 0.1982
C17 C 0.2711(2) 0.39917(14) 0.18886(13)
H11 H 0.1980 0.3653 0.1922
C18 C 0.1777(3) 0.53898(17) 0.22456(15)
H12 H 0.1202 0.5629 0.1759
H13 H 0.2220 0.5865 0.2574
C19 C 0.0928(3) 0.49101(15) 0.26894(14)
C20 C -0.0421(3) 0.4772(2) 0.2327(2)
H14 H -0.0776 0.4967 0.1806
C21 C -0.1248(4) 0.4353(3) 0.2719(3)
H15 H -0.2151 0.4263 0.2464
C22 C -0.0744(3) 0.4072(2) 0.3477(3)
H16 H -0.1303 0.3792 0.3745
C23 C 0.0592(3) 0.41976(18) 0.38562(19)
H17 H 0.0924 0.4006 0.4380
C24 C 0.1452(2) 0.46053(15) 0.34682(14)
C25 C 0.2943(3) 0.47031(18) 0.38597(15)
H18 H 0.3450 0.4363 0.3565
H19 H 0.3197 0.5301 0.3829
C26 C 0.3592(2) 0.36338(15) 0.49607(14)
H20 H 0.3738 0.3179 0.4642
C27 C 0.3177(3) 0.49127(18) 0.53355(17)
H21 H 0.2983 0.5498 0.5336
C28 C 0.3393(3) 0.43766(17) 0.59646(16)
H22 H 0.3371 0.4531 0.6483
Cu1C Cu -0.59810(3) 0.250553(15) 0.637124(16)
Cu1C_2 Cu 0.40190(3) 0.250553(15) 0.637124(16)
O4C O 0.54410(17) 0.28692(11) 0.09031(11)
N4C N 0.3649(2) 0.14340(12) 0.07252(11)
O6 O 0.6194(7) 0.3123(4) 0.3927(4)
H23 H 0.5783 0.3009 0.3445
H24 H 0.6274 0.2666 0.4207
O7? O 0.7291(11) 0.2473(5) 0.3360(7)
H25? H 0.6611 0.2481 0.2958
H26? H 0.7174 0.2832 0.3708
loop_
_geom_bond_atom_site_label_1
_geom_bond_atom_site_label_2
_geom_bond_site_symmetry_1
_geom_bond_site_symmetry_2
Cu1 O1 1_555 1_555
O1 C1 1_555 1_555
O2 Cu1 1_555 1_555
O3 C5 1_555 1_555
O4 C14 1_555 1_555
O5 C14 1_555 1_555
N1 Cu1 1_555 1_555
N2 C16 1_555 1_555
N3 C25 1_555 1_555
N4 C26 1_555 1_555
C1 O2 1_555 1_555
C2 C1 1_555 1_555
C3 C2 1_555 1_555
H1 C3 1_555 1_555
C4 C3 1_555 1_555
H2 C4 1_555 1_555
C5 C4 1_555 1_555
C6 C5 1_555 1_555
H3 C6 1_555 1_555
C7 C2 1_555 1_555
H4 C7 1_555 1_555
C8 O3 1_555 1_555
C9 C8 1_555 1_555
H5 C9 1_555 1_555
C10 C9 1_555 1_555
H6 C10 1_555 1_555
C11 C10 1_555 1_555
C12 C11 1_555 1_555
H7 C12 1_555 1_555
C13 C8 1_555 1_555
H8 C13 1_555 1_555
C14 C11 1_555 1_555
C15 N1 1_555 1_555
H9 C15 1_555 1_555
C16 C15 1_555 1_555
H10 C16 1_555 1_555
C17 N1 1_555 1_555
H11 C17 1_555 1_555
C18 N2 1_555 1_555
H12 C18 1_555 1_555
H13 C18 1_555 1_555
C19 C18 1_555 1_555
C20 C19 1_555 1_555
H14 C20 1_555 1_555
C21 C20 1_555 1_555
H15 C21 1_555 1_555
C22 C21 1_555 1_555
H16 C22 1_555 1_555
C23 C22 1_555 1_555
H17 C23 1_555 1_555
C24 C19 1_555 1_555
C25 C24 1_555 1_555
H18 C25 1_555 1_555
H19 C25 1_555 1_555
C26 N3 1_555 1_555
H20 C26 1_555 1_555
C27 N3 1_555 1_555
H21 C27 1_555 1_555
C28 N4 1_555 1_555
H22 C28 1_555 1_555
O6 H23 1_555 1_555
H24 O6 1_555 1_555
Cu1C O4 1_555 1_555
Cu1C_2 N4 1_555 1_555
O4C Cu1 1_555 1_555
N4C Cu1 1_555 1_555
N2 C17 1_555 1_555
C6 C7 1_555 1_555
C12 C13 1_555 1_555
C23 C24 1_555 1_555
C27 C28 1_555 1_555

#END
