
#######################################################################
#
#                 Cambridge Crystallographic Data Centre
#                                CCDC 
#
#######################################################################
#
# If this CIF has been generated from an entry in the Cambridge 
# Structural Database, then it will include bibliographic, chemical, 
# crystal, experimental, refinement or atomic coordinate data resulting 
# from the CCDC's data processing and validation procedures.
#
#######################################################################

data_FIGLUE
_symmetry_cell_setting           monoclinic
_symmetry_space_group_name_H-M   'P 21/n'
_symmetry_Int_Tables_number      14
_space_group_name_Hall           '-P 2yn'
loop_
_symmetry_equiv_pos_site_id
_symmetry_equiv_pos_as_xyz
1 x,y,z
2 1/2-x,1/2+y,1/2-z
3 -x,-y,-z
4 1/2+x,1/2-y,1/2+z
_cell_length_a                   6.832(6)
_cell_length_b                   22.930(19)
_cell_length_c                   11.463(9)
_cell_angle_alpha                90
_cell_angle_beta                 91.001(14)
_cell_angle_gamma                90
_cell_volume                     1795.49
loop_
_atom_site_label
_atom_site_type_symbol
_atom_site_fract_x
_atom_site_fract_y
_atom_site_fract_z
Pb1 Pb 0.66215(13) 1.05431(4) 0.65118(9)
N1 N 0.619(3) 0.9498(8) 0.7435(17)
N2 N 0.739(3) 1.0438(7) 0.8697(16)
N3 N 0.675(3) 0.8308(7) 1.1040(19)
N4 N 0.761(3) 0.9085(7) 1.2094(16)
H1 H 0.7881 0.9297 1.2694
O1 O 1.134(2) 0.8579(7) 1.3003(16)
O2 O 1.127(3) 0.8747(7) 1.4893(17)
O3 O 0.998(2) 1.0205(7) 0.6448(13)
O4 O 1.252(2) 1.0059(7) 0.5321(15)
C1 C 0.540(4) 0.9041(12) 0.679(2)
H2 H 0.4988 0.9111 0.6026
C2 C 0.519(5) 0.8487(10) 0.724(2)
H3 H 0.4792 0.8179 0.6766
C3 C 0.558(4) 0.8395(10) 0.844(2)
H4 H 0.5346 0.8035 0.8780
C4 C 0.632(3) 0.8854(10) 0.908(2)
C5 C 0.682(3) 0.8798(10) 1.033(2)
C6 C 0.744(3) 0.9275(9) 1.099(2)
C7 C 0.768(3) 0.9857(10) 1.048(2)
C8 C 0.821(3) 1.0357(10) 1.111(3)
H5 H 0.8451 1.0339 1.1909
C9 C 0.837(3) 1.0865(10) 1.053(2)
H6 H 0.8776 1.1197 1.0937
C10 C 0.796(3) 1.0904(10) 0.938(2)
H7 H 0.8076 1.1267 0.9030
C11 C 0.719(3) 0.9904(9) 0.928(2)
C12 C 0.656(3) 0.9403(10) 0.862(2)
C13 C 0.728(3) 0.8505(8) 1.211(2)
C14 C 0.722(4) 0.8148(10) 1.320(2)
C15 C 0.562(4) 0.7810(10) 1.333(3)
H8 H 0.4664 0.7797 1.2740
C16 C 0.540(4) 0.7488(11) 1.431(3)
H9 H 0.4300 0.7251 1.4380
C17 C 0.679(4) 0.7504(11) 1.525(3)
H10 H 0.6617 0.7295 1.5936
C18 C 0.845(4) 0.7853(9) 1.508(2)
H11 H 0.9440 0.7860 1.5641
C19 C 0.861(4) 0.8175(9) 1.411(2)
C20 C 1.056(4) 0.8511(9) 1.402(3)
C21 C 1.075(3) 1.0068(9) 0.5501(17)
O3B O 1.002(2) 0.9795(7) 0.3552(13)
O4B O 0.748(2) 0.9941(7) 0.4679(15)
C21B C 0.925(3) 0.9932(9) 0.4499(17)
Pb1B Pb 1.33785(13) 0.94569(4) 0.34882(9)
N1B N 1.381(3) 1.0502(8) 0.2565(17)
N2B N 1.261(3) 0.9562(7) 0.1303(16)
N3B N 1.325(3) 1.1692(7) -0.1040(19)
N4B N 1.239(3) 1.0915(7) -0.2094(16)
H1B H 1.2119 1.0703 -0.2694
O1B O 0.866(2) 1.1421(7) -0.3003(16)
O2B O 0.873(3) 1.1253(7) -0.4893(17)
C1B C 1.460(4) 1.0959(12) 0.321(2)
H2B H 1.5012 1.0889 0.3974
C2B C 1.481(5) 1.1513(10) 0.276(2)
H3B H 1.5208 1.1821 0.3234
C3B C 1.442(4) 1.1605(10) 0.156(2)
H4B H 1.4654 1.1965 0.1220
C4B C 1.368(3) 1.1146(10) 0.092(2)
C5B C 1.318(3) 1.1202(10) -0.033(2)
C6B C 1.256(3) 1.0725(9) -0.099(2)
C7B C 1.232(3) 1.0143(10) -0.048(2)
C8B C 1.179(3) 0.9643(10) -0.111(3)
H5B H 1.1549 0.9661 -0.1909
C9B C 1.163(3) 0.9135(10) -0.053(2)
H6B H 1.1224 0.8803 -0.0937
C10B C 1.204(3) 0.9096(10) 0.062(2)
H7B H 1.1924 0.8733 0.0970
C11B C 1.281(3) 1.0096(9) 0.072(2)
C12B C 1.344(3) 1.0597(10) 0.138(2)
C13B C 1.272(3) 1.1495(8) -0.211(2)
C14B C 1.278(4) 1.1852(10) -0.320(2)
C15B C 1.438(4) 1.2190(10) -0.333(3)
H8B H 1.5336 1.2203 -0.2740
C16B C 1.460(4) 1.2512(11) -0.431(3)
H9B H 1.5700 1.2749 -0.4380
C17B C 1.321(4) 1.2496(11) -0.525(3)
H10B H 1.3383 1.2705 -0.5936
C18B C 1.155(4) 1.2147(9) -0.508(2)
H11B H 1.0560 1.2140 -0.5641
C19B C 1.139(4) 1.1825(9) -0.411(2)
C20B C 0.944(4) 1.1489(9) -0.402(3)
Pb1_2 Pb 0.66215(13) 1.05431(4) -0.34882(9)
Pb1B_2 Pb 1.33785(13) 0.94569(4) 1.34882(9)
O1_2 O 1.134(2) 0.8579(7) 0.3003(16)
O1B_2 O 0.866(2) 1.1421(7) 0.6997(16)
O2_2 O 1.127(3) 0.8747(7) 0.4893(17)
O2B_2 O 0.873(3) 1.1253(7) 0.5107(17)
loop_
_geom_bond_atom_site_label_1
_geom_bond_atom_site_label_2
_geom_bond_site_symmetry_1
_geom_bond_site_symmetry_2
Pb1 N1 1_555 1_555
N1 C1 1_555 1_555
N2 Pb1 1_555 1_555
N3 C5 1_555 1_555
N4 H1 1_555 1_555
O1 C20 1_555 1_555
O2 C20 1_555 1_555
O3 Pb1 1_555 1_555
O4 C21 1_555 1_555
C1 H2 1_555 1_555
C2 C1 1_555 1_555
H3 C2 1_555 1_555
C3 C2 1_555 1_555
H4 C3 1_555 1_555
C4 C3 1_555 1_555
C5 C4 1_555 1_555
C6 N4 1_555 1_555
C7 C6 1_555 1_555
C8 C7 1_555 1_555
H5 C8 1_555 1_555
C9 C8 1_555 1_555
H6 C9 1_555 1_555
C10 N2 1_555 1_555
H7 C10 1_555 1_555
C11 N2 1_555 1_555
C12 N1 1_555 1_555
C13 N3 1_555 1_555
C14 C13 1_555 1_555
C15 C14 1_555 1_555
H8 C15 1_555 1_555
C16 C15 1_555 1_555
H9 C16 1_555 1_555
C17 C16 1_555 1_555
H10 C17 1_555 1_555
C18 C17 1_555 1_555
H11 C18 1_555 1_555
C19 C14 1_555 1_555
C20 C19 1_555 1_555
C21 O3 1_555 1_555
O3B C21B 1_555 1_555
O4B Pb1 1_555 1_555
C21B C21 1_555 1_555
Pb1B O4 1_555 1_555
N1B Pb1B 1_555 1_555
N2B Pb1B 1_555 1_555
N3B C5B 1_555 1_555
N4B H1B 1_555 1_555
O1B C20B 1_555 1_555
O2B C20B 1_555 1_555
C1B N1B 1_555 1_555
H2B C1B 1_555 1_555
C2B C1B 1_555 1_555
H3B C2B 1_555 1_555
C3B C2B 1_555 1_555
H4B C3B 1_555 1_555
C4B C3B 1_555 1_555
C5B C4B 1_555 1_555
C6B N4B 1_555 1_555
C7B C6B 1_555 1_555
C8B C7B 1_555 1_555
H5B C8B 1_555 1_555
C9B C8B 1_555 1_555
H6B C9B 1_555 1_555
C10B N2B 1_555 1_555
H7B C10B 1_555 1_555
C11B N2B 1_555 1_555
C12B N1B 1_555 1_555
C13B N3B 1_555 1_555
C14B C13B 1_555 1_555
C15B C14B 1_555 1_555
H8B C15B 1_555 1_555
C16B C15B 1_555 1_555
H9B C16B 1_555 1_555
C17B C16B 1_555 1_555
H10B C17B 1_555 1_555
C18B C17B 1_555 1_555
H11B C18B 1_555 1_555
C19B C14B 1_555 1_555
C20B C19B 1_555 1_555
Pb1_2 O1B 1_555 1_555
Pb1B_2 O1 1_555 1_555
O1_2 Pb1B 1_555 1_555
O1B_2 Pb1 1_555 1_555
O2_2 Pb1B 1_555 1_555
O2B_2 Pb1 1_555 1_555
N4 C13 1_555 1_555
O2 Pb1B_2 1_555 1_555
C4 C12 1_555 1_555
C5 C6 1_555 1_555
C7 C11 1_555 1_555
C9 C10 1_555 1_555
C11 C12 1_555 1_555
C18 C19 1_555 1_555
O3B Pb1B 1_555 1_555
O4B C21B 1_555 1_555
N4B C13B 1_555 1_555
O2B Pb1_2 1_555 1_555
C4B C12B 1_555 1_555
C5B C6B 1_555 1_555
C7B C11B 1_555 1_555
C9B C10B 1_555 1_555
C11B C12B 1_555 1_555
C18B C19B 1_555 1_555

#END
