
#######################################################################
#
#                 Cambridge Crystallographic Data Centre
#                                CCDC 
#
#######################################################################
#
# If this CIF has been generated from an entry in the Cambridge 
# Structural Database, then it will include bibliographic, chemical, 
# crystal, experimental, refinement or atomic coordinate data resulting 
# from the CCDC's data processing and validation procedures.
#
#######################################################################

data_FIGMOZ
_symmetry_cell_setting           orthorhombic
_symmetry_space_group_name_H-M   'P 21 21 21'
_symmetry_Int_Tables_number      19
_space_group_name_Hall           'P 2ac 2ab'
loop_
_symmetry_equiv_pos_site_id
_symmetry_equiv_pos_as_xyz
1 x,y,z
2 1/2-x,-y,1/2+z
3 -x,1/2+y,1/2-z
4 1/2+x,1/2-y,-z
_cell_length_a                   8.974(3)
_cell_length_b                   14.663(5)
_cell_length_c                   15.036(5)
_cell_angle_alpha                90
_cell_angle_beta                 90
_cell_angle_gamma                90
_cell_volume                     1978.52
loop_
_atom_site_label
_atom_site_type_symbol
_atom_site_fract_x
_atom_site_fract_y
_atom_site_fract_z
Cd1 Cd 1.02330(2) 0.673149(15) 0.230142(15)
Cl1 Cl 1.01809(10) 0.55582(6) 0.11238(6)
N1 N 0.8082(3) 0.7535(2) 0.18171(19)
N2 N 0.9556(3) 0.79058(18) 0.33474(16)
N3 N 0.9924(3) 0.80154(17) 0.42286(16)
N4 N 0.7685(3) 0.85788(18) 0.39909(17)
N5 N 0.7427(3) 0.85528(18) 0.69358(18)
N6 N 0.5097(3) 0.85263(19) 0.39028(19)
N7 N 0.8984(4) 0.5804(2) 0.3329(2)
N8 N 0.7544(4) 0.4409(3) 0.3474(3)
N9 N 0.8384(4) 0.2841(2) 0.3497(2)
C1 C 0.7593(4) 0.7469(3) 0.0983(2)
H1 H 0.7967 0.7005 0.0625
C2 C 0.6560(4) 0.8057(3) 0.0630(3)
H2 H 0.6244 0.7992 0.0044
C3 C 0.6003(4) 0.8740(3) 0.1154(3)
H3 H 0.5297 0.9144 0.0930
C4 C 0.6503(4) 0.8823(3) 0.2024(2)
H4 H 0.6147 0.9283 0.2392
C5 C 0.7542(3) 0.8204(2) 0.2326(2)
C6 C 0.8231(3) 0.8243(3) 0.3220(2)
C7 C 0.8791(3) 0.8427(2) 0.4606(2)
C8 C 0.8748(3) 0.8595(2) 0.5561(2)
C9 C 1.0069(4) 0.8753(2) 0.6013(2)
H5 H 1.0959 0.8828 0.5704
C10 C 1.0039(4) 0.8797(2) 0.6927(2)
H6 H 1.0909 0.8901 0.7248
C11 C 0.8708(3) 0.8686(2) 0.7358(3)
H7 H 0.8701 0.8704 0.7976
C12 C 0.7453(3) 0.8513(2) 0.6049(2)
H8 H 0.6560 0.8425 0.5747
C13 C 0.6269(3) 0.9020(3) 0.4119(2)
C14 C 0.6220(4) 0.9891(3) 0.4437(2)
H9 H 0.7084 1.0207 0.4584
C15 C 0.4830(5) 1.0281(3) 0.4531(2)
H10 H 0.4738 1.0870 0.4752
C16 C 0.3590(4) 0.9796(4) 0.4296(3)
H11 H 0.2644 1.0052 0.4342
C17 C 0.3780(4) 0.8934(4) 0.3997(3)
H12 H 0.2933 0.8604 0.3845
C18 C 0.8383(4) 0.5125(3) 0.3379(3)
C19 C 0.8069(4) 0.3589(3) 0.3472(3)
Cd1B Cd 0.97670(2) 0.173149(15) 0.269858(15)
Cd1C Cd 0.52330(2) 0.826851(15) 0.769858(15)
N5C N 1.2427(3) 0.64472(18) 0.30642(18)
N9B N 1.1616(4) 0.7841(2) 0.1503(2)
loop_
_geom_bond_atom_site_label_1
_geom_bond_atom_site_label_2
_geom_bond_site_symmetry_1
_geom_bond_site_symmetry_2
Cd1 Cl1 1_555 1_555
N1 Cd1 1_555 1_555
N2 Cd1 1_555 1_555
N3 N2 1_555 1_555
N4 C6 1_555 1_555
N5 C11 1_555 1_555
N6 C13 1_555 1_555
N7 Cd1 1_555 1_555
N8 C18 1_555 1_555
N9 C19 1_555 1_555
C1 N1 1_555 1_555
H1 C1 1_555 1_555
C2 C1 1_555 1_555
H2 C2 1_555 1_555
C3 C2 1_555 1_555
H3 C3 1_555 1_555
C4 C3 1_555 1_555
H4 C4 1_555 1_555
C5 N1 1_555 1_555
C6 N2 1_555 1_555
C7 N3 1_555 1_555
C8 C7 1_555 1_555
C9 C8 1_555 1_555
H5 C9 1_555 1_555
C10 C9 1_555 1_555
H6 C10 1_555 1_555
C11 C10 1_555 1_555
H7 C11 1_555 1_555
C12 N5 1_555 1_555
H8 C12 1_555 1_555
C13 N4 1_555 1_555
C14 C13 1_555 1_555
H9 C14 1_555 1_555
C15 C14 1_555 1_555
H10 C15 1_555 1_555
C16 C15 1_555 1_555
H11 C16 1_555 1_555
C17 N6 1_555 1_555
H12 C17 1_555 1_555
C18 N7 1_555 1_555
C19 N8 1_555 1_555
Cd1B N9 1_555 1_555
Cd1C N5 1_555 1_555
N5C Cd1 1_555 1_555
N9B Cd1 1_555 1_555
N4 C7 1_555 1_555
C4 C5 1_555 1_555
C5 C6 1_555 1_555
C8 C12 1_555 1_555
C16 C17 1_555 1_555

#END
