
#######################################################################
#
#                 Cambridge Crystallographic Data Centre
#                                CCDC 
#
#######################################################################
#
# If this CIF has been generated from an entry in the Cambridge 
# Structural Database, then it will include bibliographic, chemical, 
# crystal, experimental, refinement or atomic coordinate data resulting 
# from the CCDC's data processing and validation procedures.
#
#######################################################################

data_FIGMIT
_symmetry_cell_setting           orthorhombic
_symmetry_space_group_name_H-M   'P 21 21 21'
_symmetry_Int_Tables_number      19
_space_group_name_Hall           'P 2ac 2ab'
loop_
_symmetry_equiv_pos_site_id
_symmetry_equiv_pos_as_xyz
1 x,y,z
2 1/2-x,-y,1/2+z
3 -x,1/2+y,1/2-z
4 1/2+x,1/2-y,-z
_cell_length_a                   9.180(3)
_cell_length_b                   14.849(4)
_cell_length_c                   15.203(4)
_cell_angle_alpha                90
_cell_angle_beta                 90
_cell_angle_gamma                90
_cell_volume                     2072.38
loop_
_atom_site_label
_atom_site_type_symbol
_atom_site_fract_x
_atom_site_fract_y
_atom_site_fract_z
Cd1 Cd 0.48099(2) 0.676986(13) 0.767887(13)
Br1 Br 0.48371(4) 0.55140(2) 0.88771(2)
N1 N 0.6956(3) 0.75456(18) 0.81559(17)
N2 N 0.5509(3) 0.79042(15) 0.66289(15)
N3 N 0.5149(3) 0.80097(14) 0.57526(14)
N4 N 0.7366(3) 0.85586(15) 0.59840(16)
N5 N 0.7637(3) 0.85278(16) 0.30611(17)
N6 N 0.9907(3) 0.85141(17) 0.60743(17)
N7 N 0.3475(4) 0.7903(2) 0.8486(2)
N8 N 0.2569(4) 0.9433(2) 0.8459(3)
N9 N 0.3918(4) 1.0833(2) 0.8338(2)
C1 C 0.7457(4) 0.7471(2) 0.8976(2)
H1 H 0.7086 0.7015 0.9330
C2 C 0.8503(4) 0.8041(2) 0.9325(2)
H2 H 0.8827 0.7969 0.9900
C3 C 0.9049(4) 0.8710(3) 0.8803(2)
H3 H 0.9750 0.9104 0.9020
C4 C 0.8544(4) 0.8797(2) 0.7944(2)
H4 H 0.8899 0.9250 0.7580
C5 C 0.7499(3) 0.81953(19) 0.76398(19)
C6 C 0.6828(3) 0.8225(2) 0.67593(18)
C7 C 0.6270(3) 0.84056(18) 0.53732(19)
C8 C 0.6316(3) 0.85796(18) 0.4424(2)
C9 C 0.7596(3) 0.84729(18) 0.3947(2)
H5 H 0.8456 0.8359 0.4250
C10 C 0.6393(3) 0.8695(2) 0.2639(2)
H6 H 0.6412 0.8727 0.2029
C11 C 0.5075(4) 0.88224(19) 0.30615(19)
H7 H 0.4233 0.8945 0.2743
C12 C 0.5042(4) 0.87629(18) 0.39715(19)
H8 H 0.4172 0.8845 0.4275
C13 C 0.8752(3) 0.8999(2) 0.5853(2)
C14 C 1.1202(4) 0.8929(3) 0.5973(3)
H9 H 1.2037 0.8613 0.6131
C15 C 1.1372(5) 0.9782(4) 0.5654(3)
H10 H 1.2293 1.0037 0.5599
C16 C 1.0143(5) 1.0256(2) 0.5417(2)
H11 H 1.0219 1.0834 0.5188
C17 C 0.8796(4) 0.9856(2) 0.5525(2)
H12 H 0.7944 1.0161 0.5380
C18 C 0.3132(4) 0.8605(3) 0.8457(2)
C19 C 0.3364(4) 1.0159(3) 0.8379(2)
Cd1B Cd 0.51901(2) 1.176986(13) 0.732113(13)
Cd1C Cd 0.98099(2) 0.823014(13) 0.232113(13)
N5C N 0.2637(3) 0.64722(16) 0.69389(17)
N9B N 0.6082(4) 0.5833(2) 0.6662(2)
loop_
_geom_bond_atom_site_label_1
_geom_bond_atom_site_label_2
_geom_bond_site_symmetry_1
_geom_bond_site_symmetry_2
Cd1 Br1 1_555 1_555
N1 Cd1 1_555 1_555
N2 Cd1 1_555 1_555
N3 N2 1_555 1_555
N4 C6 1_555 1_555
N5 C9 1_555 1_555
N6 C13 1_555 1_555
N7 Cd1 1_555 1_555
N8 C18 1_555 1_555
N9 C19 1_555 1_555
C1 N1 1_555 1_555
H1 C1 1_555 1_555
C2 C1 1_555 1_555
H2 C2 1_555 1_555
C3 C2 1_555 1_555
H3 C3 1_555 1_555
C4 C3 1_555 1_555
H4 C4 1_555 1_555
C5 N1 1_555 1_555
C6 N2 1_555 1_555
C7 N3 1_555 1_555
C8 C7 1_555 1_555
C9 C8 1_555 1_555
H5 C9 1_555 1_555
C10 N5 1_555 1_555
H6 C10 1_555 1_555
C11 C10 1_555 1_555
H7 C11 1_555 1_555
C12 C8 1_555 1_555
H8 C12 1_555 1_555
C13 N4 1_555 1_555
C14 N6 1_555 1_555
H9 C14 1_555 1_555
C15 C14 1_555 1_555
H10 C15 1_555 1_555
C16 C15 1_555 1_555
H11 C16 1_555 1_555
C17 C13 1_555 1_555
H12 C17 1_555 1_555
C18 N7 1_555 1_555
C19 N8 1_555 1_555
Cd1B N9 1_555 1_555
Cd1C N5 1_555 1_555
N5C Cd1 1_555 1_555
N9B Cd1 1_555 1_555
N4 C7 1_555 1_555
C4 C5 1_555 1_555
C5 C6 1_555 1_555
C11 C12 1_555 1_555
C16 C17 1_555 1_555

#END
