
#######################################################################
#
#                 Cambridge Crystallographic Data Centre
#                                CCDC 
#
#######################################################################
#
# If this CIF has been generated from an entry in the Cambridge 
# Structural Database, then it will include bibliographic, chemical, 
# crystal, experimental, refinement or atomic coordinate data resulting 
# from the CCDC's data processing and validation procedures.
#
#######################################################################

data_FIGMUF
_symmetry_cell_setting           monoclinic
_symmetry_space_group_name_H-M   'C 2/c'
_symmetry_Int_Tables_number      15
_space_group_name_Hall           '-C 2yn'
loop_
_symmetry_equiv_pos_site_id
_symmetry_equiv_pos_as_xyz
1 x,y,z
2 -x,y,1/2-z
3 1/2+x,1/2+y,z
4 1/2-x,1/2+y,1/2-z
5 -x,-y,-z
6 x,-y,1/2+z
7 1/2-x,1/2-y,-z
8 1/2+x,1/2-y,1/2+z
_cell_length_a                   13.6957(15)
_cell_length_b                   25.051(3)
_cell_length_c                   13.4397(14)
_cell_angle_alpha                90
_cell_angle_beta                 93.016(2)
_cell_angle_gamma                90
_cell_volume                     4604.65
loop_
_atom_site_label
_atom_site_type_symbol
_atom_site_fract_x
_atom_site_fract_y
_atom_site_fract_z
Cd1 Cd 0.22276(2) 0.415172(12) 0.56559(2)
N1 N 0.3801(3) 0.45262(14) 0.5961(3)
N2 N 0.3353(3) 0.34761(14) 0.5961(3)
N3 N 0.3312(3) 0.29297(14) 0.5887(3)
N4 N 0.4847(2) 0.31844(14) 0.5965(2)
C1 C 0.3846(3) 0.18765(17) 0.5216(3)
H1 H 0.3309 0.2035 0.4882
N5 N 0.6409(3) 0.30708(18) 0.6713(3)
N6 N 0.1668(4) 0.49347(18) 0.5025(4)
N7 N 0.0994(8) 0.5508(7) 0.3710(10)
N8 N 0.1688(4) 0.5762(2) 0.2183(4)
C2 C 0.3974(4) 0.50538(18) 0.6047(3)
H2 H 0.3451 0.5289 0.5959
C3 C 0.4897(4) 0.5259(2) 0.6259(3)
H3 H 0.4995 0.5626 0.6304
C4 C 0.5671(4) 0.4910(2) 0.6404(4)
H4 H 0.6299 0.5039 0.6552
C5 C 0.5507(4) 0.4363(2) 0.6328(4)
H5 H 0.6018 0.4122 0.6429
C6 C 0.4560(3) 0.41864(16) 0.6097(3)
C7 C 0.4275(3) 0.36225(17) 0.6007(3)
C8 C 0.4214(3) 0.27605(17) 0.5891(3)
C9 C 0.4481(3) 0.21952(16) 0.5798(3)
N9 N 0.3977(3) 0.13540(14) 0.5118(3)
C10 C 0.4740(3) 0.11271(19) 0.5597(4)
H6 H 0.4833 0.0762 0.5526
C11 C 0.5397(3) 0.14112(19) 0.6195(4)
H7 H 0.5922 0.1240 0.6524
C12 C 0.5268(3) 0.19559(19) 0.6301(3)
H8 H 0.5703 0.2156 0.6704
C13 C 0.5889(3) 0.31660(18) 0.5872(3)
C14 C 0.7384(4) 0.3063(2) 0.6641(4)
H9 H 0.7777 0.2994 0.7212
C15 C 0.7821(4) 0.3151(3) 0.5765(5)
H10 H 0.8499 0.3148 0.5751
C16 C 0.7259(4) 0.3246(3) 0.4902(5)
H11 H 0.7549 0.3302 0.4301
C17 C 0.6253(4) 0.3256(2) 0.4953(4)
H12 H 0.5843 0.3321 0.4392
C18 C 0.1449(4) 0.5221(2) 0.4417(4)
C19 C 0.1449(5) 0.5650(2) 0.2952(5)
Cl1 Cl 0.3131(4) 0.3650(2) 0.3141(4)
O1 O 0.2777(9) 0.4078(4) 0.3767(6)
O2 O 0.3923(8) 0.3391(5) 0.3619(8)
O3 O 0.3362(9) 0.3904(5) 0.2215(6)
O4 O 0.2323(9) 0.3291(5) 0.2935(13)
Cd1E Cd 0.22276(2) 0.584828(12) 0.06559(2)
Cd1F Cd 0.27724(2) 0.084828(12) 0.43441(2)
N8E N 0.1688(4) 0.4238(2) 0.7183(4)
N9F N 0.1023(3) 0.36460(14) 0.4882(3)
O9 O 0.5000 0.2385(10) 0.2500
N10? N 0.135(2) 0.5652(9) 0.3946(14)
Cl2? Cl 0.2865(4) 0.3810(2) 0.2958(5)
O5? O 0.3101(10) 0.3917(6) 0.3980(6)
O6? O 0.2250(8) 0.4253(4) 0.2569(9)
O7? O 0.3736(7) 0.3808(5) 0.2408(7)
O8? O 0.2332(8) 0.3332(4) 0.2805(11)
loop_
_geom_bond_atom_site_label_1
_geom_bond_atom_site_label_2
_geom_bond_site_symmetry_1
_geom_bond_site_symmetry_2
Cd1 N1 1_555 1_555
N1 C2 1_555 1_555
N2 Cd1 1_555 1_555
N3 N2 1_555 1_555
N4 C7 1_555 1_555
C1 H1 1_555 1_555
N5 C13 1_555 1_555
N6 Cd1 1_555 1_555
N7 C18 1_555 1_555
N8 C19 1_555 1_555
C2 H2 1_555 1_555
C3 C2 1_555 1_555
H3 C3 1_555 1_555
C4 C3 1_555 1_555
H4 C4 1_555 1_555
C5 C4 1_555 1_555
H5 C5 1_555 1_555
C6 N1 1_555 1_555
C7 N2 1_555 1_555
C8 N3 1_555 1_555
C9 C1 1_555 1_555
N9 C1 1_555 1_555
C10 N9 1_555 1_555
H6 C10 1_555 1_555
C11 C10 1_555 1_555
H7 C11 1_555 1_555
C12 C9 1_555 1_555
H8 C12 1_555 1_555
C13 N4 1_555 1_555
C14 N5 1_555 1_555
H9 C14 1_555 1_555
C15 C14 1_555 1_555
H10 C15 1_555 1_555
C16 C15 1_555 1_555
H11 C16 1_555 1_555
C17 C13 1_555 1_555
H12 C17 1_555 1_555
C18 N6 1_555 1_555
C19 N7 1_555 1_555
Cl1 O1 1_555 1_555
O1 Cd1 1_555 1_555
O2 Cl1 1_555 1_555
O3 Cl1 1_555 1_555
O4 Cl1 1_555 1_555
Cd1E N8 1_555 1_555
Cd1F N9 1_555 1_555
N8E Cd1 1_555 1_555
N9F Cd1 1_555 1_555
N4 C8 1_555 1_555
C5 C6 1_555 1_555
C6 C7 1_555 1_555
C8 C9 1_555 1_555
C11 C12 1_555 1_555
C16 C17 1_555 1_555

#END
