
#######################################################################
#
#                 Cambridge Crystallographic Data Centre
#                                CCDC 
#
#######################################################################
#
# If this CIF has been generated from an entry in the Cambridge 
# Structural Database, then it will include bibliographic, chemical, 
# crystal, experimental, refinement or atomic coordinate data resulting 
# from the CCDC's data processing and validation procedures.
#
#######################################################################

data_FIGQIX
_symmetry_cell_setting           monoclinic
_symmetry_space_group_name_H-M   'C 2/c'
_symmetry_Int_Tables_number      15
_space_group_name_Hall           '-C 2yn'
loop_
_symmetry_equiv_pos_site_id
_symmetry_equiv_pos_as_xyz
1 x,y,z
2 -x,y,1/2-z
3 1/2+x,1/2+y,z
4 1/2-x,1/2+y,1/2-z
5 -x,-y,-z
6 x,-y,1/2+z
7 1/2-x,1/2-y,-z
8 1/2+x,1/2-y,1/2+z
_cell_length_a                   23.476(3)
_cell_length_b                   8.8641(10)
_cell_length_c                   17.5434(19)
_cell_angle_alpha                90
_cell_angle_beta                 110.8840(10)
_cell_angle_gamma                90
_cell_volume                     3410.84
loop_
_atom_site_label
_atom_site_type_symbol
_atom_site_fract_x
_atom_site_fract_y
_atom_site_fract_z
Cu1 Cu 0.343759(14) 0.87736(3) 0.071388(19)
O1 O 0.51062(9) 0.3690(2) 0.36223(14)
O2 O 0.31818(9) 1.0695(2) 0.01595(11)
O3 O 0.32049(9) 1.0109(2) -0.10665(12)
O4 O 0.22689(8) 1.60139(19) -0.10774(11)
O5 O 0.15860(8) 1.4561(2) -0.19634(11)
O6 O 0.33462(9) 0.7416(2) -0.04119(12)
H1 H 0.3300(14) 0.820(3) -0.0689(18)
H2 H 0.3012(10) 0.696(3) -0.0607(18)
N1 N 0.36570(10) 0.6866(2) 0.13644(13)
N2 N 0.56634(10) -0.0719(2) 0.41220(13)
N3 N 0.41698(10) 0.2930(2) 0.27541(14)
H3 H 0.3942(12) 0.215(3) 0.2545(17)
C1 C 0.40519(14) 0.6914(3) 0.21330(17)
H4 H 0.4220 0.7865 0.2349
C2 C 0.34048(12) 0.5525(3) 0.10849(17)
H5 H 0.3108 0.5473 0.0550
C3 C 0.35556(12) 0.4222(3) 0.15359(17)
H6 H 0.3366 0.3295 0.1314
C4 C 0.39884(12) 0.4274(3) 0.23206(16)
C5 C 0.42283(14) 0.5669(3) 0.26277(17)
H7 H 0.4510 0.5763 0.3171
C6 C 0.29791(13) 1.2631(3) -0.08172(17)
H8 H 0.3343 1.3263 -0.0544
H9 H 0.2652 1.2967 -0.0623
C7 C 0.47256(12) 0.2702(3) 0.33522(16)
C8 C 0.48680(12) 0.1112(3) 0.36432(15)
C9 C 0.46582(13) -0.1314(3) 0.40670(17)
H10 H 0.4388 -0.2017 0.4168
C10 C 0.54691(12) 0.0658(3) 0.38474(15)
H11 H 0.5756 0.1362 0.3789
C11 C 0.44517(12) 0.0102(3) 0.37456(16)
H12 H 0.4035 0.0370 0.3600
C12 C 0.52609(12) -0.1683(3) 0.42367(17)
H13 H 0.5397 -0.2661 0.4444
C13 C 0.31334(11) 1.1014(3) -0.05665(16)
C14 C 0.27710(14) 1.2891(3) -0.17358(16)
H14 H 0.3100 1.2577 -0.1931
H15 H 0.2410 1.2255 -0.2013
C15 C 0.26106(13) 1.4538(3) -0.19649(17)
H16 H 0.2978 1.5173 -0.1720
H17 H 0.2471 1.4651 -0.2565
C16 C 0.21151(12) 1.5060(3) -0.16647(15)
Cu1A Cu 0.656241(14) -0.12264(3) 0.428612(19)
Cu1F Cu 0.156241(14) 1.62264(3) -0.071388(19)
O4F O 0.27311(8) 0.89861(19) 0.10774(11)
O5F O 0.34140(8) 1.0439(2) 0.19634(11)
N2A N 0.43366(10) 0.9281(2) 0.08780(13)
O7 O 0.57297(18) 0.4889(4) 0.5327(2)
H18 H 0.552(2) 0.445(6) 0.4831(19)
H19 H 0.590(2) 0.576(4) 0.522(3)
loop_
_geom_bond_atom_site_label_1
_geom_bond_atom_site_label_2
_geom_bond_site_symmetry_1
_geom_bond_site_symmetry_2
Cu1 O2 1_555 1_555
O1 C7 1_555 1_555
O2 C13 1_555 1_555
O3 C13 1_555 1_555
O4 C16 1_555 1_555
O5 C16 1_555 1_555
O6 Cu1 1_555 1_555
H1 O6 1_555 1_555
H2 O6 1_555 1_555
N1 Cu1 1_555 1_555
N2 C10 1_555 1_555
N3 H3 1_555 1_555
C1 N1 1_555 1_555
H4 C1 1_555 1_555
C2 N1 1_555 1_555
H5 C2 1_555 1_555
C3 C2 1_555 1_555
H6 C3 1_555 1_555
C4 N3 1_555 1_555
C5 C1 1_555 1_555
H7 C5 1_555 1_555
C6 H8 1_555 1_555
H9 C6 1_555 1_555
C7 N3 1_555 1_555
C8 C7 1_555 1_555
C9 H10 1_555 1_555
C10 C8 1_555 1_555
H11 C10 1_555 1_555
C11 C8 1_555 1_555
H12 C11 1_555 1_555
C12 N2 1_555 1_555
H13 C12 1_555 1_555
C13 C6 1_555 1_555
C14 C6 1_555 1_555
H14 C14 1_555 1_555
H15 C14 1_555 1_555
C15 C14 1_555 1_555
H16 C15 1_555 1_555
H17 C15 1_555 1_555
C16 C15 1_555 1_555
O7 H18 1_555 1_555
H19 O7 1_555 1_555
Cu1A N2 1_555 1_555
Cu1F O4 1_555 1_555
O4F Cu1 1_555 1_555
O5F Cu1 1_555 1_555
N2A Cu1 1_555 1_555
O5 Cu1F 1_555 1_555
C3 C4 1_555 1_555
C4 C5 1_555 1_555
C9 C11 1_555 1_555
C9 C12 1_555 1_555

#END
