
#######################################################################
#
#                 Cambridge Crystallographic Data Centre
#                                CCDC 
#
#######################################################################
#
# If this CIF has been generated from an entry in the Cambridge 
# Structural Database, then it will include bibliographic, chemical, 
# crystal, experimental, refinement or atomic coordinate data resulting 
# from the CCDC's data processing and validation procedures.
#
#######################################################################

data_FIGREU
_symmetry_cell_setting           triclinic
_symmetry_space_group_name_H-M   'P -1'
_symmetry_Int_Tables_number      2
_space_group_name_Hall           '-P 1'
loop_
_symmetry_equiv_pos_site_id
_symmetry_equiv_pos_as_xyz
1 x,y,z
2 -x,-y,-z
_cell_length_a                   6.570(3)
_cell_length_b                   13.987(6)
_cell_length_c                   14.694(6)
_cell_angle_alpha                77.243(7)
_cell_angle_beta                 89.427(7)
_cell_angle_gamma                85.409(10)
_cell_volume                     1312.7
loop_
_atom_site_label
_atom_site_type_symbol
_atom_site_fract_x
_atom_site_fract_y
_atom_site_fract_z
Cu1 Cu 0.06910(10) 0.00355(5) 0.91543(5)
Cu2 Cu 1.44726(11) 0.41697(5) 0.55232(6)
O1 O -0.1471(6) 0.1086(3) 0.8667(3)
O2 O -0.2510(6) 0.1054(3) 1.0114(3)
O3 O -0.8734(6) 0.0926(3) 1.0909(3)
O4 O -0.7636(6) 0.1041(3) 0.9452(3)
O5 O 1.2788(7) 0.4330(3) 0.4384(3)
O6 O 1.3643(7) 0.5734(3) 0.3474(3)
O7 O 0.6669(7) 0.3570(3) 0.4880(4)
O8 O 0.7547(7) 0.4970(3) 0.3968(3)
O9 O 0.7923(7) 0.0551(4) 0.5424(3)
N1 N 1.3056(8) 0.2775(4) 0.6067(4)
N2 N 0.2392(7) -0.0188(3) 0.7937(3)
N3 N 0.7217(7) 0.0597(4) 0.6929(4)
H1 H 0.756(9) 0.089(4) 0.748(4)
C1 C 0.4155(8) 0.0222(4) 0.7756(4)
H2 H 0.4522 0.0653 0.8133
C2 C 0.5484(8) 0.0068(4) 0.7064(4)
C3 C 0.4981(9) -0.0590(5) 0.6537(4)
H3 H 0.5860 -0.0737 0.6061
C4 C 0.3160(10) -0.1028(5) 0.6727(4)
H4 H 0.2770 -0.1478 0.6374
C5 C 0.1922(9) -0.0814(4) 0.7423(4)
H5 H 0.0681 -0.1123 0.7543
C6 C 1.1390(11) 0.2829(5) 0.6578(5)
H6 H 1.1259 0.3327 0.6926
C7 C 0.9866(10) 0.2225(5) 0.6636(5)
H7 H 0.8716 0.2304 0.7017
C8 C 0.9984(9) 0.1498(5) 0.6144(4)
C9 C 1.1699(9) 0.1413(4) 0.5620(4)
H8 H 1.1862 0.0907 0.5282
C10 C 1.3189(9) 0.2063(4) 0.5582(4)
H9 H 1.4348 0.2005 0.5200
C11 C 0.8304(9) 0.0827(5) 0.6123(5)
C12 C -0.2589(8) 0.1396(4) 0.9262(4)
C13 C -0.4141(8) 0.2246(4) 0.8881(4)
H10 H -0.5138 0.2006 0.8501
H11 H -0.3417 0.2754 0.8451
C14 C -0.5360(9) 0.2757(4) 0.9561(4)
C15 C -0.6341(9) 0.2074(4) 1.0393(4)
H12 H -0.5220 0.1734 1.0818
H13 H -0.7174 0.2498 1.0736
C16 C -0.7671(8) 0.1296(4) 1.0219(4)
C17 C -0.7027(11) 0.3460(5) 0.8991(5)
H14 H -0.7948 0.3083 0.8715
H15 H -0.6395 0.3928 0.8494
H16 H -0.7804 0.3820 0.9400
C18 C -0.3943(11) 0.3370(5) 0.9977(5)
H17 H -0.4701 0.3684 1.0424
H18 H -0.3428 0.3876 0.9476
H19 H -0.2793 0.2941 1.0295
C19 C 1.2693(9) 0.4976(5) 0.3632(5)
C20 C 1.1324(10) 0.4839(5) 0.2853(5)
H20 H 1.2099 0.4982 0.2263
H21 H 1.0150 0.5339 0.2791
C21 C 1.0474(10) 0.3822(5) 0.2946(5)
C22 C 0.9375(10) 0.3434(5) 0.3865(5)
H22 H 0.8760 0.2830 0.3796
H23 H 1.0447 0.3226 0.4353
C23 C 0.7746(9) 0.4042(5) 0.4252(5)
C24 C 0.8936(13) 0.3930(6) 0.2133(6)
H24 H 0.7828 0.4425 0.2189
H25 H 0.8371 0.3297 0.2157
H26 H 0.9635 0.4135 0.1538
C25 C 1.2223(11) 0.3074(5) 0.2836(5)
H27 H 1.2928 0.3308 0.2248
H28 H 1.1680 0.2442 0.2833
H29 H 1.3186 0.2990 0.3358
Cu1_2 Cu -0.93090(10) 0.00355(5) 0.91543(5)
Cu1A Cu -1.06910(10) -0.00355(5) 1.08457(5)
Cu1A_2 Cu -0.06910(10) -0.00355(5) 1.08457(5)
Cu2_2 Cu 0.44726(11) 0.41697(5) 0.55232(6)
Cu2A Cu 0.55274(11) 0.58303(5) 0.44768(6)
Cu2A_2 Cu 1.55274(11) 0.58303(5) 0.44768(6)
O2A O 0.2510(6) -0.1054(3) 0.9886(3)
O3A O -0.1266(6) -0.0926(3) 0.9091(3)
O4_2 O 0.2364(6) 0.1041(3) 0.9452(3)
O6A O 1.6357(7) 0.4266(3) 0.6526(3)
O7_2 O 1.6669(7) 0.3570(3) 0.4880(4)
O8A O 1.2453(7) 0.5030(3) 0.6032(3)
loop_
_geom_bond_atom_site_label_1
_geom_bond_atom_site_label_2
_geom_bond_site_symmetry_1
_geom_bond_site_symmetry_2
Cu1 O1 1_555 1_555
Cu2 O5 1_555 1_555
O1 C12 1_555 1_555
O2 C12 1_555 1_555
O3 C16 1_555 1_555
O4 C16 1_555 1_555
O5 C19 1_555 1_555
O6 C19 1_555 1_555
O7 C23 1_555 1_555
O8 C23 1_555 1_555
O9 C11 1_555 1_555
N1 Cu2 1_555 1_555
N2 Cu1 1_555 1_555
N3 H1 1_555 1_555
C1 N2 1_555 1_555
H2 C1 1_555 1_555
C2 N3 1_555 1_555
C3 C2 1_555 1_555
H3 C3 1_555 1_555
C4 C3 1_555 1_555
H4 C4 1_555 1_555
C5 N2 1_555 1_555
H5 C5 1_555 1_555
C6 N1 1_555 1_555
H6 C6 1_555 1_555
C7 C6 1_555 1_555
H7 C7 1_555 1_555
C8 C7 1_555 1_555
C9 C8 1_555 1_555
H8 C9 1_555 1_555
C10 N1 1_555 1_555
H9 C10 1_555 1_555
C11 N3 1_555 1_555
C12 C13 1_555 1_555
C13 H10 1_555 1_555
H11 C13 1_555 1_555
C14 C13 1_555 1_555
C15 C14 1_555 1_555
H12 C15 1_555 1_555
H13 C15 1_555 1_555
C16 C15 1_555 1_555
C17 C14 1_555 1_555
H14 C17 1_555 1_555
H15 C17 1_555 1_555
H16 C17 1_555 1_555
C18 C14 1_555 1_555
H17 C18 1_555 1_555
H18 C18 1_555 1_555
H19 C18 1_555 1_555
C19 C20 1_555 1_555
C20 H20 1_555 1_555
H21 C20 1_555 1_555
C21 C20 1_555 1_555
C22 C21 1_555 1_555
H22 C22 1_555 1_555
H23 C22 1_555 1_555
C23 C22 1_555 1_555
C24 C21 1_555 1_555
H24 C24 1_555 1_555
H25 C24 1_555 1_555
H26 C24 1_555 1_555
C25 C21 1_555 1_555
H27 C25 1_555 1_555
H28 C25 1_555 1_555
H29 C25 1_555 1_555
Cu1_2 O4 1_555 1_555
Cu1A O3 1_555 1_555
Cu1A_2 O2 1_555 1_555
Cu2_2 O7 1_555 1_555
Cu2A O8 1_555 1_555
Cu2A_2 O6 1_555 1_555
O2A Cu1 1_555 1_555
O3A Cu1 1_555 1_555
O4_2 Cu1 1_555 1_555
O6A Cu2 1_555 1_555
O7_2 Cu2 1_555 1_555
O8A Cu2 1_555 1_555
C1 C2 1_555 1_555
C4 C5 1_555 1_555
C8 C11 1_555 1_555
C9 C10 1_555 1_555

#END
