
#######################################################################
#
#                 Cambridge Crystallographic Data Centre
#                                CCDC 
#
#######################################################################
#
# If this CIF has been generated from an entry in the Cambridge 
# Structural Database, then it will include bibliographic, chemical, 
# crystal, experimental, refinement or atomic coordinate data resulting 
# from the CCDC's data processing and validation procedures.
#
#######################################################################

data_FIGRIX
_symmetry_cell_setting           orthorhombic
_symmetry_space_group_name_H-M   'F d d 2'
_symmetry_Int_Tables_number      43
_space_group_name_Hall           'F 2 -2d'
loop_
_symmetry_equiv_pos_site_id
_symmetry_equiv_pos_as_xyz
1 x,y,z
2 -x,-y,z
3 1/4-x,1/4+y,1/4+z
4 3/4+x,3/4-y,1/4+z
5 x,1/2+y,1/2+z
6 1/2+x,y,1/2+z
7 1/2+x,1/2+y,z
8 -x,1/2-y,1/2+z
9 1/2-x,-y,1/2+z
10 1/2-x,1/2-y,z
11 1/4-x,3/4+y,3/4+z
12 3/4-x,1/4+y,3/4+z
13 3/4-x,3/4+y,1/4+z
14 3/4+x,1/4-y,3/4+z
15 1/4+x,3/4-y,3/4+z
16 1/4+x,1/4-y,1/4+z
_cell_length_a                   39.214(4)
_cell_length_b                   31.751(5)
_cell_length_c                   11.367(2)
_cell_angle_alpha                90
_cell_angle_beta                 90
_cell_angle_gamma                90
_cell_volume                     14152.9
loop_
_atom_site_label
_atom_site_type_symbol
_atom_site_fract_x
_atom_site_fract_y
_atom_site_fract_z
Ag1 Ag 0.59460(3) 0.63122(3) 0.25000
O1 O 0.5546(4) 0.5905(5) 0.3473(15)
O2 O 0.5509(6) 0.6282(5) 0.486(2)
C1 C 0.5470(4) 0.5962(5) 0.440(2)
C2 C 0.5349(5) 0.5638(5) 0.525(2)
F1 F 0.5032(3) 0.5613(5) 0.5242(18)
F2 F 0.5442(4) 0.5259(3) 0.4921(16)
F3 F 0.5439(4) 0.5682(4) 0.6352(12)
Fe1 Fe 0.62483(6) 0.75464(7) 0.3499(2)
C3 C 0.6131(4) 0.7368(4) 0.1846(13)
C4 C 0.6483(4) 0.7310(5) 0.2095(14)
C5 C 0.6632(4) 0.7706(5) 0.2352(15)
C6 C 0.6349(5) 0.8005(4) 0.2300(13)
C7 C 0.6057(4) 0.7790(4) 0.2018(12)
C8 C 0.6388(3) 0.5331(4) 0.2554(14)
C9 C 0.6063(4) 0.5135(4) 0.2644(15)
C10 C 0.6109(4) 0.4706(5) 0.2461(16)
C11 C 0.6448(4) 0.4615(5) 0.2181(13)
C12 C 0.6623(4) 0.5012(4) 0.2265(13)
P1 P 0.58390(10) 0.69497(12) 0.1456(4)
C13 C 0.5420(3) 0.7202(4) 0.1532(13)
C14 C 0.5200(3) 0.7082(4) 0.2440(17)
C15 C 0.4896(4) 0.7266(5) 0.2525(18)
C16 C 0.4794(3) 0.7585(5) 0.1686(14)
C17 C 0.5022(4) 0.7699(5) 0.0840(15)
C18 C 0.5328(4) 0.7517(5) 0.0758(14)
C19 C 0.5912(4) 0.6868(4) -0.0094(14)
C20 C 0.5757(4) 0.6536(5) -0.0638(13)
C21 C 0.5804(5) 0.6432(5) -0.1787(15)
C22 C 0.6019(5) 0.6661(5) -0.2397(19)
C23 C 0.6194(5) 0.7002(6) -0.1923(17)
C24 C 0.6134(5) 0.7097(5) -0.0721(16)
P2 P 0.64570(10) 0.58847(12) 0.2724(4)
C25 C 0.6799(4) 0.6006(4) 0.1744(14)
C26 C 0.6742(4) 0.6250(4) 0.0753(13)
C27 C 0.6989(4) 0.6325(5) -0.0042(17)
C28 C 0.7310(4) 0.6139(5) 0.007(2)
C29 C 0.7365(4) 0.5898(5) 0.100(2)
C30 C 0.7135(4) 0.5820(5) 0.1859(14)
C31 C 0.6617(4) 0.5929(4) 0.4244(13)
C32 C 0.6472(4) 0.5748(5) 0.5163(15)
C33 C 0.6598(5) 0.5811(6) 0.6235(15)
C34 C 0.6865(6) 0.6061(6) 0.6427(16)
C35 C 0.7014(5) 0.6238(6) 0.5582(15)
C36 C 0.6903(5) 0.6196(5) 0.4440(15)
H1 H 0.66014 0.70466 0.20844
H2 H 0.68651 0.77634 0.25274
H3 H 0.63627 0.83003 0.24370
H4 H 0.58353 0.79126 0.19492
H5 H 0.58523 0.52721 0.28091
H6 H 0.59316 0.45012 0.25098
H7 H 0.65437 0.43493 0.19775
H8 H 0.68625 0.50522 0.21485
H9 H 0.52677 0.68718 0.29905
H10 H 0.47443 0.71849 0.31440
H11 H 0.45739 0.77120 0.17245
H12 H 0.49619 0.79140 0.02902
H13 H 0.54842 0.76042 0.01604
H14 H 0.56062 0.63655 -0.01837
H15 H 0.56863 0.62028 -0.21332
H16 H 0.60556 0.65933 -0.32040
H17 H 0.63485 0.71639 -0.23749
H18 H 0.62494 0.73261 -0.03623
H19 H 0.65222 0.63701 0.06305
H20 H 0.69446 0.65066 -0.06883
H21 H 0.74834 0.61822 -0.04987
H22 H 0.75826 0.57686 0.10693
H23 H 0.71923 0.56495 0.25200
H24 H 0.62757 0.55740 0.50570
H25 H 0.64925 0.56718 0.68780
H26 H 0.69412 0.61047 0.72091
H27 H 0.72099 0.64033 0.57349
H28 H 0.70118 0.63374 0.38063
Ag1J Ag 0.65540(3) 0.38122(3) 0.00000
Ag1B Ag 0.65540(3) 0.88122(3) 0.50000
O1J O 0.6954(4) 0.3405(5) 0.0973(15)
O2J O 0.6991(6) 0.3782(5) 0.236(2)
C1J C 0.7030(4) 0.3462(5) 0.190(2)
C2J C 0.7151(5) 0.3138(5) 0.275(2)
F1J F 0.7468(3) 0.3113(5) 0.2742(18)
F2J F 0.7058(4) 0.2759(3) 0.2421(16)
F3J F 0.7061(4) 0.3182(4) 0.3852(12)
Fe1J Fe 0.62517(6) 0.50464(7) 0.0999(2)
C3J C 0.6369(4) 0.4868(4) -0.0654(13)
C4J C 0.6017(4) 0.4810(5) -0.0405(14)
C5J C 0.5868(4) 0.5206(5) -0.0148(15)
C6J C 0.6151(5) 0.5505(4) -0.0200(13)
C7J C 0.6443(4) 0.5290(4) -0.0482(12)
C8B C 0.6112(3) 0.7831(4) 0.5054(14)
C9B C 0.6437(4) 0.7635(4) 0.5144(15)
C10B C 0.6391(4) 0.7206(5) 0.4961(16)
C11B C 0.6052(4) 0.7115(5) 0.4681(13)
C12B C 0.5877(4) 0.7512(4) 0.4765(13)
P1J P 0.66610(10) 0.44497(12) -0.1044(4)
C13J C 0.7080(3) 0.4702(4) -0.0968(13)
C14J C 0.7300(3) 0.4582(4) -0.0060(17)
C15J C 0.7604(4) 0.4766(5) 0.0025(18)
C16J C 0.7706(3) 0.5085(5) -0.0814(14)
C17J C 0.7478(4) 0.5199(5) -0.1660(15)
C18J C 0.7172(4) 0.5017(5) -0.1742(14)
C19J C 0.6588(4) 0.4368(4) -0.2594(14)
C20J C 0.6743(4) 0.4036(5) -0.3138(13)
C21J C 0.6696(5) 0.3932(5) -0.4287(15)
C22J C 0.6481(5) 0.4161(5) -0.4897(19)
C23J C 0.6306(5) 0.4502(6) -0.4423(17)
C24J C 0.6366(5) 0.4597(5) -0.3221(16)
P2B P 0.60430(10) 0.83847(12) 0.5224(4)
P2J P 0.60430(10) 0.33847(12) 0.0224(4)
C25B C 0.5701(4) 0.8506(4) 0.4244(14)
C26B C 0.5758(4) 0.8750(4) 0.3253(13)
C27B C 0.5511(4) 0.8825(5) 0.2458(17)
C28B C 0.5190(4) 0.8639(5) 0.257(2)
C29B C 0.5135(4) 0.8398(5) 0.350(2)
C30B C 0.5365(4) 0.8320(5) 0.4359(14)
C31B C 0.5883(4) 0.8429(4) 0.6744(13)
C32B C 0.6028(4) 0.8248(5) 0.7663(15)
C33B C 0.5902(5) 0.8311(6) 0.8735(15)
C34B C 0.5635(6) 0.8561(6) 0.8927(16)
C35B C 0.5486(5) 0.8738(6) 0.8082(15)
C36B C 0.5597(5) 0.8696(5) 0.6940(15)
H1J H 0.58986 0.45466 -0.04156
H2J H 0.56349 0.52634 0.00274
H3J H 0.61373 0.58003 -0.00630
H4J H 0.66647 0.54126 -0.05508
H5B H 0.66477 0.77721 0.53091
H6B H 0.65684 0.70012 0.50098
H7B H 0.59563 0.68493 0.44775
H8B H 0.56375 0.75522 0.46485
H9J H 0.72323 0.43718 0.04905
H10J H 0.77557 0.46849 0.06440
H11J H 0.79261 0.52120 -0.07755
H12J H 0.75381 0.54140 -0.22098
H13J H 0.70158 0.51042 -0.23396
H14J H 0.68938 0.38655 -0.26837
H15J H 0.68137 0.37028 -0.46332
H16J H 0.64444 0.40933 -0.57040
H17J H 0.61515 0.46639 -0.48749
H18J H 0.62506 0.48261 -0.28623
H19B H 0.59778 0.88701 0.31305
H20B H 0.55554 0.90066 0.18117
H21B H 0.50166 0.86822 0.20013
H22B H 0.49174 0.82686 0.35693
H23B H 0.53077 0.81495 0.50200
H24B H 0.62243 0.80740 0.75570
H25B H 0.60075 0.81718 0.93780
H26B H 0.55588 0.86047 0.97091
H27B H 0.52901 0.89033 0.82349
H28B H 0.54882 0.88374 0.63063
O3 O 0.75000 0.75000 0.469(3)
N1 N 0.74992 0.69843 0.30375
C37 C 0.74455 0.70683 0.19142
C38 C 0.73935 0.71496 0.08272
loop_
_geom_bond_atom_site_label_1
_geom_bond_atom_site_label_2
_geom_bond_site_symmetry_1
_geom_bond_site_symmetry_2
Ag1 O1 1_555 1_555
O1 C1 1_555 1_555
O2 C1 1_555 1_555
C1 C2 1_555 1_555
C2 F1 1_555 1_555
F2 C2 1_555 1_555
F3 C2 1_555 1_555
Fe1 C3 1_555 1_555
C3 C4 1_555 1_555
C4 Fe1 1_555 1_555
C5 Fe1 1_555 1_555
C6 Fe1 1_555 1_555
C7 Fe1 1_555 1_555
C8 C9 1_555 1_555
C9 C10 1_555 1_555
C10 C11 1_555 1_555
C11 C12 1_555 1_555
C12 C8 1_555 1_555
P1 Ag1 1_555 1_555
C13 P1 1_555 1_555
C14 C13 1_555 1_555
C15 C14 1_555 1_555
C16 C15 1_555 1_555
C17 C16 1_555 1_555
C18 C13 1_555 1_555
C19 P1 1_555 1_555
C20 C19 1_555 1_555
C21 C20 1_555 1_555
C22 C21 1_555 1_555
C23 C22 1_555 1_555
C24 C19 1_555 1_555
P2 Ag1 1_555 1_555
C25 P2 1_555 1_555
C26 C25 1_555 1_555
C27 C26 1_555 1_555
C28 C27 1_555 1_555
C29 C28 1_555 1_555
C30 C25 1_555 1_555
C31 P2 1_555 1_555
C32 C31 1_555 1_555
C33 C32 1_555 1_555
C34 C33 1_555 1_555
C35 C34 1_555 1_555
C36 C31 1_555 1_555
N1 C37 1_555 1_555
C37 C38 1_555 1_555
H1 C4 1_555 1_555
H2 C5 1_555 1_555
H3 C6 1_555 1_555
H4 C7 1_555 1_555
H5 C9 1_555 1_555
H6 C10 1_555 1_555
H7 C11 1_555 1_555
H8 C12 1_555 1_555
H9 C14 1_555 1_555
H10 C15 1_555 1_555
H11 C16 1_555 1_555
H12 C17 1_555 1_555
H13 C18 1_555 1_555
H14 C20 1_555 1_555
H15 C21 1_555 1_555
H16 C22 1_555 1_555
H17 C23 1_555 1_555
H18 C24 1_555 1_555
H19 C26 1_555 1_555
H20 C27 1_555 1_555
H21 C28 1_555 1_555
H22 C29 1_555 1_555
H23 C30 1_555 1_555
H24 C32 1_555 1_555
H25 C33 1_555 1_555
H26 C34 1_555 1_555
H27 C35 1_555 1_555
H28 C36 1_555 1_555
Ag1J O1J 1_555 1_555
Ag1B P2B 1_555 1_555
O1J C1J 1_555 1_555
O2J C1J 1_555 1_555
C1J C2J 1_555 1_555
C2J F1J 1_555 1_555
F2J C2J 1_555 1_555
F3J C2J 1_555 1_555
Fe1J C8 1_555 1_555
C3J Fe1J 1_555 1_555
C4J Fe1J 1_555 1_555
C5J Fe1J 1_555 1_555
C6J Fe1J 1_555 1_555
C7J Fe1J 1_555 1_555
C8B Fe1 1_555 1_555
C9B Fe1 1_555 1_555
C10B Fe1 1_555 1_555
C11B Fe1 1_555 1_555
C12B Fe1 1_555 1_555
P1J Ag1J 1_555 1_555
C13J P1J 1_555 1_555
C14J C13J 1_555 1_555
C15J C14J 1_555 1_555
C16J C15J 1_555 1_555
C17J C16J 1_555 1_555
C18J C13J 1_555 1_555
C19J P1J 1_555 1_555
C20J C19J 1_555 1_555
C21J C20J 1_555 1_555
C22J C21J 1_555 1_555
C23J C22J 1_555 1_555
C24J C19J 1_555 1_555
P2B C8B 1_555 1_555
P2J Ag1J 1_555 1_555
C25B P2B 1_555 1_555
C26B C25B 1_555 1_555
C27B C26B 1_555 1_555
C28B C27B 1_555 1_555
C29B C28B 1_555 1_555
C30B C25B 1_555 1_555
C31B P2B 1_555 1_555
C32B C31B 1_555 1_555
C33B C32B 1_555 1_555
C34B C33B 1_555 1_555
C35B C34B 1_555 1_555
C36B C31B 1_555 1_555
H1J C4J 1_555 1_555
H2J C5J 1_555 1_555
H3J C6J 1_555 1_555
H4J C7J 1_555 1_555
H5B C9B 1_555 1_555
H6B C10B 1_555 1_555
H7B C11B 1_555 1_555
H8B C12B 1_555 1_555
H9J C14J 1_555 1_555
H10J C15J 1_555 1_555
H11J C16J 1_555 1_555
H12J C17J 1_555 1_555
H13J C18J 1_555 1_555
H14J C20J 1_555 1_555
H15J C21J 1_555 1_555
H16J C22J 1_555 1_555
H17J C23J 1_555 1_555
H18J C24J 1_555 1_555
H19B C26B 1_555 1_555
H20B C27B 1_555 1_555
H21B C28B 1_555 1_555
H22B C29B 1_555 1_555
H23B C30B 1_555 1_555
H24B C32B 1_555 1_555
H25B C33B 1_555 1_555
H26B C34B 1_555 1_555
H27B C35B 1_555 1_555
H28B C36B 1_555 1_555
C3 C7 1_555 1_555
C3 P1 1_555 1_555
C4 C5 1_555 1_555
C5 C6 1_555 1_555
C6 C7 1_555 1_555
C8 P2 1_555 1_555
C9 Fe1J 1_555 1_555
C10 Fe1J 1_555 1_555
C11 Fe1J 1_555 1_555
C12 Fe1J 1_555 1_555
C17 C18 1_555 1_555
C23 C24 1_555 1_555
C29 C30 1_555 1_555
C35 C36 1_555 1_555
C3J C4J 1_555 1_555
C3J C7J 1_555 1_555
C3J P1J 1_555 1_555
C4J C5J 1_555 1_555
C5J C6J 1_555 1_555
C6J C7J 1_555 1_555
C8B C9B 1_555 1_555
C8B C12B 1_555 1_555
C9B C10B 1_555 1_555
C10B C11B 1_555 1_555
C11B C12B 1_555 1_555
C17J C18J 1_555 1_555
C23J C24J 1_555 1_555
C29B C30B 1_555 1_555
C35B C36B 1_555 1_555

#END
