
#######################################################################
#
#                 Cambridge Crystallographic Data Centre
#                                CCDC 
#
#######################################################################
#
# If this CIF has been generated from an entry in the Cambridge 
# Structural Database, then it will include bibliographic, chemical, 
# crystal, experimental, refinement or atomic coordinate data resulting 
# from the CCDC's data processing and validation procedures.
#
#######################################################################

data_FIGSOF
_symmetry_cell_setting           orthorhombic
_symmetry_space_group_name_H-M   'P 21 21 21'
_symmetry_Int_Tables_number      19
_space_group_name_Hall           'P 2ac 2ab'
loop_
_symmetry_equiv_pos_site_id
_symmetry_equiv_pos_as_xyz
1 x,y,z
2 1/2-x,-y,1/2+z
3 1/2+x,1/2-y,-z
4 -x,1/2+y,1/2-z
_cell_length_a                   12.5000(15)
_cell_length_b                   17.889(2)
_cell_length_c                   24.773(3)
_cell_angle_alpha                90
_cell_angle_beta                 90
_cell_angle_gamma                90
_cell_volume                     5539.55
loop_
_atom_site_label
_atom_site_type_symbol
_atom_site_fract_x
_atom_site_fract_y
_atom_site_fract_z
Cd1 Cd 0.56186(5) -0.06330(4) 0.346178(18)
Cd2 Cd 0.94882(5) 0.43561(4) 0.364185(19)
O1 O 0.7167(5) 0.0082(4) 0.3907(2)
O2 O 0.6692(6) 0.0205(3) 0.3063(2)
O3 O 0.9765(5) 0.3083(3) 0.3919(2)
O4 O 0.8598(5) 0.3326(3) 0.3296(2)
O5 O 0.5480(7) -0.1761(3) 0.3890(2)
O6 O 0.6431(5) -0.1799(3) 0.3164(2)
O7 O 0.8051(5) -0.5009(4) 0.4111(2)
O8 O 0.8373(6) -0.4779(4) 0.3262(2)
N1 N 0.4518(6) -0.0140(4) 0.4076(2)
N2 N 0.3607(6) -0.0030(5) 0.4830(3)
H1 H 0.3333 -0.0148 0.5137
N3 N 0.4496(6) -0.0785(4) 0.2758(2)
N4 N 0.3181(7) -0.1293(4) 0.2270(3)
H2 H 0.2582 -0.1507 0.2198
N5 N 1.0626(7) 0.4797(4) 0.4260(2)
N6 N 1.1500(6) 0.4911(4) 0.5034(3)
H3 H 1.1778 0.4796 0.5340
N7 N 1.0553(6) 0.4247(4) 0.2896(2)
N8 N 1.1798(6) 0.3719(4) 0.2386(3)
H4 H 1.2383 0.3497 0.2299
C1 C 0.7276(8) 0.0353(4) 0.3444(4)
C2 C 0.8263(7) 0.0865(4) 0.3329(3)
H5 H 0.8896 0.0558 0.3401
C3 C 0.8358(9) 0.1116(5) 0.2746(3)
H6 H 0.7666 0.1112 0.2569
H7 H 0.8844 0.0795 0.2547
C4 C 0.8807(8) 0.1926(5) 0.2788(3)
H8 H 0.9403 0.1990 0.2541
H9 H 0.8256 0.2285 0.2694
C5 C 0.9180(8) 0.2052(5) 0.3375(3)
C6 C 0.8367(9) 0.1564(5) 0.3698(4)
C7 C 0.8778(10) 0.1347(5) 0.4252(3)
H10 H 0.8504 0.1689 0.4516
H11 H 0.9546 0.1365 0.4253
H12 H 0.8546 0.0849 0.4337
C8 C 0.7318(8) 0.1934(5) 0.3751(4)
H13 H 0.7058 0.2069 0.3399
H14 H 0.7391 0.2375 0.3968
H15 H 0.6821 0.1597 0.3919
C9 C 1.0336(9) 0.1724(5) 0.3436(4)
H16 H 1.0816 0.1987 0.3201
H17 H 1.0330 0.1203 0.3343
H18 H 1.0570 0.1780 0.3803
C10 C 0.9183(8) 0.2853(5) 0.3544(3)
C11 C 0.6001(8) -0.2121(5) 0.3540(4)
C12 C 0.5948(7) -0.2998(4) 0.3569(3)
C13 C 0.5757(8) -0.3258(4) 0.4149(3)
H19 H 0.4998 -0.3321 0.4216
H20 H 0.6037 -0.2895 0.4403
C14 C 0.6344(9) -0.4006(5) 0.4208(3)
H21 H 0.6892 -0.3972 0.4484
H22 H 0.5847 -0.4399 0.4307
C15 C 0.6846(7) -0.4170(4) 0.3660(3)
H23 H 0.6302 -0.4428 0.3445
C16 C 0.7009(7) -0.3396(5) 0.3402(3)
C17 C 0.7202(8) -0.3456(5) 0.2783(3)
H24 H 0.6635 -0.3740 0.2621
H25 H 0.7873 -0.3701 0.2717
H26 H 0.7217 -0.2964 0.2628
C18 C 0.7980(8) -0.3003(6) 0.3634(4)
H27 H 0.8573 -0.3343 0.3645
H28 H 0.7821 -0.2833 0.3993
H29 H 0.8160 -0.2582 0.3412
C19 C 0.7817(8) -0.4672(5) 0.3676(4)
C20 C 0.5002(8) -0.3203(5) 0.3217(4)
H30 H 0.5122 -0.3025 0.2857
H31 H 0.4365 -0.2978 0.3360
H32 H 0.4919 -0.3736 0.3211
C21 C 0.4185(8) -0.0474(5) 0.4522(3)
H33 H 0.4342 -0.0968 0.4608
C22 C 0.3505(7) 0.0657(7) 0.4574(3)
C23 C 0.4109(6) 0.0583(5) 0.4108(3)
C24 C 0.4179(8) 0.1184(5) 0.3744(3)
H34 H 0.4577 0.1152 0.3428
C25 C 0.3619(9) 0.1833(6) 0.3881(4)
C26 C 0.3069(10) 0.1884(6) 0.4362(5)
C27 C 0.3013(8) 0.1324(7) 0.4716(4)
H35 H 0.2659 0.1378 0.5044
C28 C 0.3772(11) 0.2475(5) 0.3479(4)
H36 H 0.3108 0.2573 0.3297
H37 H 0.4306 0.2338 0.3218
H38 H 0.3997 0.2915 0.3668
C29 C 0.2451(11) 0.2638(7) 0.4493(5)
H39 H 0.1946 0.2740 0.4211
H40 H 0.2955 0.3042 0.4517
H41 H 0.2080 0.2587 0.4830
C30 C 0.3557(8) -0.1131(6) 0.2757(4)
H42 H 0.3192 -0.1251 0.3073
C31 C 0.3923(8) -0.1063(5) 0.1904(3)
C32 C 0.4742(7) -0.0728(5) 0.2208(3)
C33 C 0.5623(8) -0.0420(4) 0.1957(3)
H43 H 0.6170 -0.0202 0.2157
C34 C 0.5669(8) -0.0446(4) 0.1390(3)
C35 C 0.4863(7) -0.0799(5) 0.1103(3)
C36 C 0.3991(8) -0.1101(5) 0.1358(3)
H44 H 0.3451 -0.1330 0.1159
C37 C 0.6626(8) -0.0102(6) 0.1117(4)
H45 H 0.7040 0.0170 0.1377
H46 H 0.6390 0.0232 0.0838
H47 H 0.7058 -0.0490 0.0961
C38 C 0.4943(8) -0.0869(5) 0.0478(3)
H48 H 0.5260 -0.1341 0.0385
H49 H 0.5379 -0.0471 0.0339
H50 H 0.4241 -0.0837 0.0323
C39 C 1.0900(7) 0.4472(6) 0.4712(3)
H51 H 1.0701 0.3987 0.4803
C40 C 1.1050(6) 0.5501(5) 0.4294(3)
C41 C 1.1584(7) 0.5586(6) 0.4774(3)
C42 C 1.2141(8) 0.6242(6) 0.4905(4)
H52 H 1.2513 0.6283 0.5229
C43 C 1.2123(8) 0.6818(6) 0.4547(4)
C44 C 1.1576(10) 0.6734(6) 0.4051(4)
C45 C 1.1031(8) 0.6084(5) 0.3920(3)
H53 H 1.0667 0.6037 0.3594
C46 C 1.2724(11) 0.7518(6) 0.4664(4)
H54 H 1.2234 0.7931 0.4681
H55 H 1.3238 0.7606 0.4383
H56 H 1.3087 0.7469 0.5004
C47 C 1.1607(11) 0.7385(5) 0.3644(4)
H57 H 1.2307 0.7607 0.3645
H58 H 1.1086 0.7753 0.3744
H59 H 1.1450 0.7200 0.3289
C48 C 1.1506(9) 0.3914(5) 0.2885(4)
H60 H 1.1921 0.3827 0.3191
C49 C 1.0992(7) 0.3946(4) 0.2028(4)
C50 C 1.0231(7) 0.4272(5) 0.2363(3)
C51 C 0.9287(7) 0.4577(5) 0.2135(3)
H61 H 0.8766 0.4803 0.2348
C52 C 0.9181(8) 0.4522(6) 0.1580(4)
C53 C 0.9969(8) 0.4198(5) 0.1245(3)
C54 C 1.0894(9) 0.3909(5) 0.1477(3)
H62 H 1.1428 0.3697 0.1265
C55 C 0.8234(8) 0.4880(6) 0.1331(4)
H63 H 0.7806 0.5109 0.1607
H64 H 0.7818 0.4510 0.1145
H65 H 0.8464 0.5255 0.1079
C56 C 0.9852(8) 0.4199(5) 0.0645(3)
H66 H 0.9896 0.4703 0.0513
H67 H 0.9171 0.3990 0.0549
H68 H 1.0413 0.3905 0.0487
Cd2_2 Cd 0.94882(5) -0.56439(4) 0.364185(19)
O7_2 O 0.8051(5) 0.4991(4) 0.4111(2)
O8_2 O 0.8373(6) 0.5221(4) 0.3262(2)
loop_
_geom_bond_atom_site_label_1
_geom_bond_atom_site_label_2
_geom_bond_site_symmetry_1
_geom_bond_site_symmetry_2
Cd1 O1 1_555 1_555
Cd2 O3 1_555 1_555
O1 C1 1_555 1_555
O2 Cd1 1_555 1_555
O3 C10 1_555 1_555
O4 Cd2 1_555 1_555
O5 Cd1 1_555 1_555
O6 Cd1 1_555 1_555
O7 C19 1_555 1_555
O8 C19 1_555 1_555
N1 Cd1 1_555 1_555
N2 H1 1_555 1_555
N3 Cd1 1_555 1_555
N4 H2 1_555 1_555
N5 Cd2 1_555 1_555
N6 H3 1_555 1_555
N7 Cd2 1_555 1_555
N8 H4 1_555 1_555
C1 O2 1_555 1_555
C2 C1 1_555 1_555
H5 C2 1_555 1_555
C3 C2 1_555 1_555
H6 C3 1_555 1_555
H7 C3 1_555 1_555
C4 C3 1_555 1_555
H8 C4 1_555 1_555
H9 C4 1_555 1_555
C5 C4 1_555 1_555
C6 C2 1_555 1_555
C7 C6 1_555 1_555
H10 C7 1_555 1_555
H11 C7 1_555 1_555
H12 C7 1_555 1_555
C8 C6 1_555 1_555
H13 C8 1_555 1_555
H14 C8 1_555 1_555
H15 C8 1_555 1_555
C9 C5 1_555 1_555
H16 C9 1_555 1_555
H17 C9 1_555 1_555
H18 C9 1_555 1_555
C10 O4 1_555 1_555
C11 O5 1_555 1_555
C12 C11 1_555 1_555
C13 C12 1_555 1_555
H19 C13 1_555 1_555
H20 C13 1_555 1_555
C14 C13 1_555 1_555
H21 C14 1_555 1_555
H22 C14 1_555 1_555
C15 C14 1_555 1_555
H23 C15 1_555 1_555
C16 C12 1_555 1_555
C17 C16 1_555 1_555
H24 C17 1_555 1_555
H25 C17 1_555 1_555
H26 C17 1_555 1_555
C18 C16 1_555 1_555
H27 C18 1_555 1_555
H28 C18 1_555 1_555
H29 C18 1_555 1_555
C19 C15 1_555 1_555
C20 C12 1_555 1_555
H30 C20 1_555 1_555
H31 C20 1_555 1_555
H32 C20 1_555 1_555
C21 N1 1_555 1_555
H33 C21 1_555 1_555
C22 N2 1_555 1_555
C23 N1 1_555 1_555
C24 C23 1_555 1_555
H34 C24 1_555 1_555
C25 C24 1_555 1_555
C26 C25 1_555 1_555
C27 C22 1_555 1_555
H35 C27 1_555 1_555
C28 C25 1_555 1_555
H36 C28 1_555 1_555
H37 C28 1_555 1_555
H38 C28 1_555 1_555
C29 C26 1_555 1_555
H39 C29 1_555 1_555
H40 C29 1_555 1_555
H41 C29 1_555 1_555
C30 N3 1_555 1_555
H42 C30 1_555 1_555
C31 N4 1_555 1_555
C32 N3 1_555 1_555
C33 C32 1_555 1_555
H43 C33 1_555 1_555
C34 C33 1_555 1_555
C35 C34 1_555 1_555
C36 C31 1_555 1_555
H44 C36 1_555 1_555
C37 C34 1_555 1_555
H45 C37 1_555 1_555
H46 C37 1_555 1_555
H47 C37 1_555 1_555
C38 C35 1_555 1_555
H48 C38 1_555 1_555
H49 C38 1_555 1_555
H50 C38 1_555 1_555
C39 N5 1_555 1_555
H51 C39 1_555 1_555
C40 N5 1_555 1_555
C41 N6 1_555 1_555
C42 C41 1_555 1_555
H52 C42 1_555 1_555
C43 C42 1_555 1_555
C44 C43 1_555 1_555
C45 C40 1_555 1_555
H53 C45 1_555 1_555
C46 C43 1_555 1_555
H54 C46 1_555 1_555
H55 C46 1_555 1_555
H56 C46 1_555 1_555
C47 C44 1_555 1_555
H57 C47 1_555 1_555
H58 C47 1_555 1_555
H59 C47 1_555 1_555
C48 N7 1_555 1_555
H60 C48 1_555 1_555
C49 N8 1_555 1_555
C50 N7 1_555 1_555
C51 C50 1_555 1_555
H61 C51 1_555 1_555
C52 C51 1_555 1_555
C53 C52 1_555 1_555
C54 C49 1_555 1_555
H62 C54 1_555 1_555
C55 C52 1_555 1_555
H63 C55 1_555 1_555
H64 C55 1_555 1_555
H65 C55 1_555 1_555
C56 C53 1_555 1_555
H66 C56 1_555 1_555
H67 C56 1_555 1_555
H68 C56 1_555 1_555
Cd2_2 O7 1_555 1_555
O7_2 Cd2 1_555 1_555
O8_2 Cd2 1_555 1_555
O6 C11 1_555 1_555
O8 Cd2_2 1_555 1_555
N2 C21 1_555 1_555
N4 C30 1_555 1_555
N6 C39 1_555 1_555
N8 C48 1_555 1_555
C5 C6 1_555 1_555
C5 C10 1_555 1_555
C15 C16 1_555 1_555
C22 C23 1_555 1_555
C26 C27 1_555 1_555
C31 C32 1_555 1_555
C35 C36 1_555 1_555
C40 C41 1_555 1_555
C44 C45 1_555 1_555
C49 C50 1_555 1_555
C53 C54 1_555 1_555

#END
