
#######################################################################
#
#                 Cambridge Crystallographic Data Centre
#                                CCDC 
#
#######################################################################
#
# If this CIF has been generated from an entry in the Cambridge 
# Structural Database, then it will include bibliographic, chemical, 
# crystal, experimental, refinement or atomic coordinate data resulting 
# from the CCDC's data processing and validation procedures.
#
#######################################################################

data_FIGSUL01
_symmetry_cell_setting           monoclinic
_symmetry_space_group_name_H-M   'P 21/c'
_symmetry_Int_Tables_number      14
_space_group_name_Hall           '-P 2ybc'
loop_
_symmetry_equiv_pos_site_id
_symmetry_equiv_pos_as_xyz
1 x,y,z
2 -x,1/2+y,1/2-z
3 -x,-y,-z
4 x,1/2-y,1/2+z
_cell_length_a                   13.4585(9)
_cell_length_b                   7.0943(5)
_cell_length_c                   32.655(2)
_cell_angle_alpha                90
_cell_angle_beta                 99.6260(10)
_cell_angle_gamma                90
_cell_volume                     3073.96
loop_
_atom_site_label
_atom_site_type_symbol
_atom_site_fract_x
_atom_site_fract_y
_atom_site_fract_z
Pb1 Pb 0.266247(9) 0.762119(17) 0.119095(4)
C1 C 0.4813(3) 1.3044(6) 0.40937(12)
H1 H 0.5231 1.3227 0.4348
C2 C 0.3775(3) 1.3178(6) 0.40817(12)
H2 H 0.3511 1.3466 0.4320
C3 C 0.3158(3) 1.2877(5) 0.37131(11)
H3 H 0.2463 1.2965 0.3696
C4 C 0.3573(3) 1.2433(4) 0.33585(11)
C5 C 0.2982(3) 1.2074(5) 0.29575(11)
C6 C 0.3443(3) 1.1750(5) 0.26155(10)
C7 C 0.4512(2) 1.1674(5) 0.26377(10)
C8 C 0.5004(3) 1.1374(5) 0.22984(11)
H4 H 0.4636 1.1185 0.2034
C9 C 0.6028(3) 1.1362(5) 0.23605(11)
H5 H 0.6368 1.1179 0.2138
C10 C 0.6564(3) 1.1624(5) 0.27587(11)
H6 H 0.7264 1.1566 0.2797
C11 C 0.5107(3) 1.1975(5) 0.30330(11)
C12 C 0.4631(3) 1.2376(4) 0.33974(11)
C13 C 0.0752(2) 1.1579(5) 0.22081(11)
C14 C -0.0006(3) 1.2282(5) 0.24087(13)
H7 H 0.0169 1.2835 0.2669
C15 C -0.1013(3) 1.2178(5) 0.22311(13)
H8 H -0.1506 1.2637 0.2373
C16 C -0.1282(3) 1.1392(5) 0.18432(12)
H9 H -0.1957 1.1301 0.1723
C17 C -0.0538(3) 1.0736(5) 0.16331(11)
H10 H -0.0724 1.0227 0.1369
C18 C 0.0475(2) 1.0817(5) 0.18052(10)
C19 C 0.1184(2) 0.9913(5) 0.15551(10)
C20 C -0.0378(3) 0.4393(5) -0.12996(11)
H11 H -0.0803 0.4669 -0.1547
C21 C 0.0647(3) 0.4675(5) -0.12807(11)
H12 H 0.0905 0.5085 -0.1512
C22 C 0.1271(3) 0.4335(5) -0.09126(11)
H13 H 0.1960 0.4543 -0.0889
C23 C 0.0871(3) 0.3675(5) -0.05726(10)
C24 C 0.1465(2) 0.3321(5) -0.01739(10)
C25 C 0.1026(3) 0.2728(4) 0.01562(11)
C26 C -0.0028(3) 0.2354(4) 0.01214(11)
C27 C -0.0513(3) 0.1706(5) 0.04441(11)
H14 H -0.0148 0.1493 0.0708
C28 C -0.1529(3) 0.1393(5) 0.03645(11)
H15 H -0.1864 0.0966 0.0574
C29 C -0.2059(3) 0.1719(5) -0.00327(11)
H16 H -0.2750 0.1496 -0.0082
C30 C -0.0631(3) 0.2665(4) -0.02754(11)
C31 C -0.0176(2) 0.3370(5) -0.06226(10)
C32 C 0.2673(3) 0.3066(5) 0.03381(11)
C33 C 0.5006(3) 0.2924(5) 0.11801(13)
H17 H 0.5188 0.2793 0.1466
C34 C 0.5750(3) 0.3106(6) 0.09382(14)
H18 H 0.6424 0.3123 0.1062
C35 C 0.5490(3) 0.3263(7) 0.05139(14)
H19 H 0.5988 0.3393 0.0350
C36 C 0.4488(3) 0.3227(7) 0.03337(13)
H20 H 0.4320 0.3305 0.0046
C37 C 0.3717(3) 0.3077(5) 0.05705(11)
C38 C 0.3986(3) 0.2933(5) 0.10035(11)
C39 C 0.3246(3) 0.2786(5) 0.13023(11)
C40 C 0.1785(2) 1.1719(5) 0.24423(11)
N1 N 0.5240(2) 1.2673(4) 0.37659(9)
N2 N 0.6127(2) 1.1954(4) 0.30871(9)
N3 N 0.1955(2) 1.2039(4) 0.28503(9)
N4 N 0.2668(2) 1.1537(4) 0.22875(9)
H21 H 0.2725 1.1329 0.2033
N5 N -0.0790(2) 0.3752(4) -0.09849(8)
N6 N -0.1630(2) 0.2332(4) -0.03452(9)
N7 N 0.2483(2) 0.3525(4) -0.00616(9)
N8 N 0.1807(2) 0.2576(4) 0.04852(9)
H22 H 0.1763 0.2241 0.0735
O1 O 0.11579(18) 1.0397(4) 0.11840(7)
O2 O 0.17500(17) 0.8614(3) 0.17318(7)
O3 O 0.2668(2) 0.4141(4) 0.13358(8)
O4 O 0.32789(18) 0.1282(3) 0.15074(7)
Pb1_2 Pb 0.266247(9) -0.237881(17) 0.119095(4)
Pb1A Pb 0.733753(9) 1.262119(17) 0.380905(4)
Pb1B Pb -0.266247(9) 0.237881(17) -0.119095(4)
N1A N 0.4760(2) 0.7673(4) 0.12341(9)
N2A N 0.3873(2) 0.6954(4) 0.19129(9)
N5B N 0.0790(2) 0.6248(4) 0.09849(8)
N6B N 0.1630(2) 0.7668(4) 0.03452(9)
O4_2 O 0.32789(18) 1.1282(3) 0.15074(7)
loop_
_geom_bond_atom_site_label_1
_geom_bond_atom_site_label_2
_geom_bond_site_symmetry_1
_geom_bond_site_symmetry_2
Pb1 O1 1_555 1_555
C1 H1 1_555 1_555
C2 C1 1_555 1_555
H2 C2 1_555 1_555
C3 C2 1_555 1_555
H3 C3 1_555 1_555
C4 C3 1_555 1_555
C5 C4 1_555 1_555
C6 C5 1_555 1_555
C7 C6 1_555 1_555
C8 C7 1_555 1_555
H4 C8 1_555 1_555
C9 C8 1_555 1_555
H5 C9 1_555 1_555
C10 C9 1_555 1_555
H6 C10 1_555 1_555
C11 C7 1_555 1_555
C12 C4 1_555 1_555
C13 C14 1_555 1_555
C14 H7 1_555 1_555
C15 C14 1_555 1_555
H8 C15 1_555 1_555
C16 C15 1_555 1_555
H9 C16 1_555 1_555
C17 C16 1_555 1_555
H10 C17 1_555 1_555
C18 C13 1_555 1_555
C19 C18 1_555 1_555
C20 H11 1_555 1_555
C21 C20 1_555 1_555
H12 C21 1_555 1_555
C22 C21 1_555 1_555
H13 C22 1_555 1_555
C23 C22 1_555 1_555
C24 C23 1_555 1_555
C25 C24 1_555 1_555
C26 C25 1_555 1_555
C27 C26 1_555 1_555
H14 C27 1_555 1_555
C28 C27 1_555 1_555
H15 C28 1_555 1_555
C29 C28 1_555 1_555
H16 C29 1_555 1_555
C30 C26 1_555 1_555
C31 C23 1_555 1_555
C32 C37 1_555 1_555
C33 H17 1_555 1_555
C34 C33 1_555 1_555
H18 C34 1_555 1_555
C35 C34 1_555 1_555
H19 C35 1_555 1_555
C36 C35 1_555 1_555
H20 C36 1_555 1_555
C37 C36 1_555 1_555
C38 C33 1_555 1_555
C39 C38 1_555 1_555
C40 C13 1_555 1_555
N1 C1 1_555 1_555
N2 C10 1_555 1_555
N3 C5 1_555 1_555
N4 C6 1_555 1_555
H21 N4 1_555 1_555
N5 C20 1_555 1_555
N6 C29 1_555 1_555
N7 C24 1_555 1_555
N8 C25 1_555 1_555
H22 N8 1_555 1_555
O1 C19 1_555 1_555
O2 Pb1 1_555 1_555
O3 Pb1 1_555 1_555
O4 C39 1_555 1_555
Pb1_2 O4 1_555 1_555
Pb1A N1 1_555 1_555
Pb1B N5 1_555 1_555
N1A Pb1 1_555 1_555
N2A Pb1 1_555 1_555
N5B Pb1 1_555 1_555
N6B Pb1 1_555 1_555
O4_2 Pb1 1_555 1_555
C11 C12 1_555 1_555
C11 N2 1_555 1_555
C12 N1 1_555 1_555
C17 C18 1_555 1_555
C19 O2 1_555 1_555
C30 C31 1_555 1_555
C30 N6 1_555 1_555
C31 N5 1_555 1_555
C32 N7 1_555 1_555
C32 N8 1_555 1_555
C37 C38 1_555 1_555
C39 O3 1_555 1_555
C40 N3 1_555 1_555
C40 N4 1_555 1_555
N2 Pb1A 1_555 1_555
N6 Pb1B 1_555 1_555

#END
