
#######################################################################
#
#                 Cambridge Crystallographic Data Centre
#                                CCDC 
#
#######################################################################
#
# If this CIF has been generated from an entry in the Cambridge 
# Structural Database, then it will include bibliographic, chemical, 
# crystal, experimental, refinement or atomic coordinate data resulting 
# from the CCDC's data processing and validation procedures.
#
#######################################################################

data_FIGSUL
_symmetry_cell_setting           monoclinic
_symmetry_space_group_name_H-M   'P 21/c'
_symmetry_Int_Tables_number      14
_space_group_name_Hall           '-P 2ybc'
loop_
_symmetry_equiv_pos_site_id
_symmetry_equiv_pos_as_xyz
1 x,y,z
2 -x,1/2+y,1/2-z
3 -x,-y,-z
4 x,1/2-y,1/2+z
_cell_length_a                   13.458(10)
_cell_length_b                   7.132(6)
_cell_length_c                   32.75(2)
_cell_angle_alpha                90
_cell_angle_beta                 99.832(9)
_cell_angle_gamma                90
_cell_volume                     3097.26
loop_
_atom_site_label
_atom_site_type_symbol
_atom_site_fract_x
_atom_site_fract_y
_atom_site_fract_z
Pb1 Pb 0.265495(16) 0.73694(3) 0.119178(6)
N1 N 0.3866(3) 0.8037(7) 0.19148(14)
N2 N 0.4750(4) 0.7332(7) 0.12396(14)
N3 N 0.7325(3) 0.8439(7) 0.27166(13)
H1 H 0.7268 0.8628 0.2971
N4 N 0.8036(3) 0.7959(7) 0.21526(14)
N5 N 0.0790(4) 0.8745(7) 0.09907(13)
N6 N 0.1634(4) 0.7355(7) 0.03517(14)
N7 N -0.2497(4) 0.8529(7) 0.00691(14)
N8 N -0.1820(3) 0.7583(7) -0.04790(13)
H2 H -0.1776 0.7250 -0.0728
O1 O 0.8239(3) 1.1373(6) 0.32652(11)
O2 O 0.8850(3) 0.9618(6) 0.38182(11)
O3 O -0.2667(3) 0.9169(6) -0.13286(13)
O4 O -0.3288(3) 0.6289(6) -0.15039(12)
C1 C 0.3431(5) 0.8385(9) 0.22451(18)
H3 H 0.2732 0.8481 0.2205
C2 C 0.3965(4) 0.8612(9) 0.26434(17)
H4 H 0.3625 0.8768 0.2866
C3 C 0.4994(4) 0.8606(8) 0.27067(16)
H5 H 0.5364 0.8797 0.2970
C4 C 0.5483(4) 0.8306(8) 0.23651(16)
C5 C 0.6560(4) 0.8242(8) 0.23881(17)
C6 C 0.7011(4) 0.7927(8) 0.20449(17)
C7 C 0.6417(4) 0.7592(8) 0.16452(17)
C8 C 0.6835(5) 0.7141(9) 0.12938(17)
H6 H 0.7530 0.7044 0.1312
C9 C 0.6210(5) 0.6845(10) 0.09233(19)
H7 H 0.6472 0.6563 0.0686
C10 C 0.5185(5) 0.6973(10) 0.09109(19)
H8 H 0.4767 0.6798 0.0657
C11 C 0.5363(4) 0.7631(8) 0.16051(16)
C12 C 0.4884(4) 0.8014(8) 0.19731(17)
C13 C 0.8209(4) 0.8276(8) 0.25603(17)
C14 C 0.9246(4) 0.8410(8) 0.27995(17)
C15 C 1.0008(5) 0.7675(9) 0.25969(19)
H9 H 0.9830 0.7100 0.2340
C16 C 1.1010(5) 0.7801(9) 0.2775(2)
H10 H 1.1504 0.7349 0.2634
C17 C 1.1283(5) 0.8594(9) 0.3162(2)
H11 H 1.1959 0.8687 0.3282
C18 C 1.0543(4) 0.9247(8) 0.33694(18)
H12 H 1.0732 0.9756 0.3633
C19 C 0.9521(4) 0.9171(8) 0.31985(16)
C20 C 0.8828(4) 1.0099(8) 0.34464(18)
C21 C 0.0367(4) 0.9385(8) 0.13057(17)
H13 H 0.0791 0.9655 0.1554
C22 C -0.0646(5) 0.9670(9) 0.12869(17)
H14 H -0.0898 1.0080 0.1519
C23 C -0.1287(4) 0.9338(8) 0.09176(17)
H15 H -0.1977 0.9548 0.0894
C24 C -0.0876(4) 0.8677(8) 0.05800(15)
C25 C -0.1474(4) 0.8329(9) 0.01759(17)
C26 C -0.1034(4) 0.7730(8) -0.01507(16)
C27 C 0.0018(4) 0.7368(7) -0.01154(16)
C28 C 0.0505(5) 0.6726(8) -0.04343(17)
H16 H 0.0135 0.6515 -0.0697
C29 C 0.1528(4) 0.6407(9) -0.03614(18)
H17 H 0.1860 0.5984 -0.0571
C30 C 0.2050(5) 0.6740(9) 0.00385(19)
H18 H 0.2741 0.6514 0.0089
C31 C 0.0623(4) 0.7690(8) 0.02804(16)
C32 C 0.0169(4) 0.8379(8) 0.06282(16)
C33 C -0.2685(5) 0.8065(9) -0.03357(17)
C34 C -0.3725(4) 0.8070(9) -0.05638(19)
C35 C -0.4492(5) 0.8227(12) -0.0336(2)
H19 H -0.4323 0.8307 -0.0049
C36 C -0.5502(5) 0.8273(12) -0.0513(2)
H20 H -0.5997 0.8406 -0.0349
C37 C -0.5760(5) 0.8116(10) -0.0937(2)
H21 H -0.6434 0.8151 -0.1063
C38 C -0.5018(5) 0.7908(9) -0.11734(19)
H22 H -0.5199 0.7763 -0.1459
C39 C -0.3992(5) 0.7909(9) -0.09953(19)
C40 C -0.3247(5) 0.7804(10) -0.12978(18)
Pb1A Pb 0.734505(16) 1.23694(3) 0.380822(6)
Pb1B Pb -0.265495(16) 0.26306(3) -0.119178(6)
Pb1B_2 Pb -0.265495(16) 1.26306(3) -0.119178(6)
O1A O 0.1761(3) 0.6373(6) 0.17348(11)
O2A O 0.1150(3) 0.4618(6) 0.11818(11)
O3B O 0.2667(3) 1.0831(6) 0.13286(13)
O4B O 0.3288(3) 0.3711(6) 0.15039(12)
loop_
_geom_bond_atom_site_label_1
_geom_bond_atom_site_label_2
_geom_bond_site_symmetry_1
_geom_bond_site_symmetry_2
Pb1 N1 1_555 1_555
N1 C1 1_555 1_555
N2 Pb1 1_555 1_555
N3 H1 1_555 1_555
N4 C6 1_555 1_555
N5 Pb1 1_555 1_555
N6 Pb1 1_555 1_555
N7 C25 1_555 1_555
N8 H2 1_555 1_555
O1 C20 1_555 1_555
O2 C20 1_555 1_555
O3 C40 1_555 1_555
O4 C40 1_555 1_555
C1 H3 1_555 1_555
C2 C1 1_555 1_555
H4 C2 1_555 1_555
C3 C2 1_555 1_555
H5 C3 1_555 1_555
C4 C3 1_555 1_555
C5 N3 1_555 1_555
C6 C5 1_555 1_555
C7 C6 1_555 1_555
C8 C7 1_555 1_555
H6 C8 1_555 1_555
C9 C8 1_555 1_555
H7 C9 1_555 1_555
C10 N2 1_555 1_555
H8 C10 1_555 1_555
C11 N2 1_555 1_555
C12 N1 1_555 1_555
C13 N3 1_555 1_555
C14 C13 1_555 1_555
C15 C14 1_555 1_555
H9 C15 1_555 1_555
C16 C15 1_555 1_555
H10 C16 1_555 1_555
C17 C16 1_555 1_555
H11 C17 1_555 1_555
C18 C17 1_555 1_555
H12 C18 1_555 1_555
C19 C14 1_555 1_555
C20 C19 1_555 1_555
C21 N5 1_555 1_555
H13 C21 1_555 1_555
C22 C21 1_555 1_555
H14 C22 1_555 1_555
C23 C22 1_555 1_555
H15 C23 1_555 1_555
C24 C23 1_555 1_555
C25 C24 1_555 1_555
C26 N8 1_555 1_555
C27 C26 1_555 1_555
C28 C27 1_555 1_555
H16 C28 1_555 1_555
C29 C28 1_555 1_555
H17 C29 1_555 1_555
C30 N6 1_555 1_555
H18 C30 1_555 1_555
C31 N6 1_555 1_555
C32 N5 1_555 1_555
C33 N7 1_555 1_555
C34 C33 1_555 1_555
C35 C34 1_555 1_555
H19 C35 1_555 1_555
C36 C35 1_555 1_555
H20 C36 1_555 1_555
C37 C36 1_555 1_555
H21 C37 1_555 1_555
C38 C37 1_555 1_555
H22 C38 1_555 1_555
C39 C34 1_555 1_555
C40 C39 1_555 1_555
Pb1A O1 1_555 1_555
Pb1B O4 1_555 1_555
Pb1B_2 O3 1_555 1_555
O1A Pb1 1_555 1_555
O2A Pb1 1_555 1_555
O3B Pb1 1_555 1_555
O4B Pb1 1_555 1_555
N4 C13 1_555 1_555
N8 C33 1_555 1_555
O2 Pb1A 1_555 1_555
C4 C5 1_555 1_555
C4 C12 1_555 1_555
C7 C11 1_555 1_555
C9 C10 1_555 1_555
C11 C12 1_555 1_555
C18 C19 1_555 1_555
C24 C32 1_555 1_555
C25 C26 1_555 1_555
C27 C31 1_555 1_555
C29 C30 1_555 1_555
C31 C32 1_555 1_555
C38 C39 1_555 1_555

#END
