
#######################################################################
#
#                 Cambridge Crystallographic Data Centre
#                                CCDC 
#
#######################################################################
#
# If this CIF has been generated from an entry in the Cambridge 
# Structural Database, then it will include bibliographic, chemical, 
# crystal, experimental, refinement or atomic coordinate data resulting 
# from the CCDC's data processing and validation procedures.
#
#######################################################################

data_FIGSIZ
_symmetry_cell_setting           monoclinic
_symmetry_space_group_name_H-M   'C 2'
_symmetry_Int_Tables_number      5
_space_group_name_Hall           'C 2y'
loop_
_symmetry_equiv_pos_site_id
_symmetry_equiv_pos_as_xyz
1 x,y,z
2 -x,y,-z
3 1/2+x,1/2+y,z
4 1/2-x,1/2+y,-z
_cell_length_a                   20.118(2)
_cell_length_b                   11.3378(11)
_cell_length_c                   16.8977(17)
_cell_angle_alpha                90
_cell_angle_beta                 91.8460(10)
_cell_angle_gamma                90
_cell_volume                     3852.26
loop_
_atom_site_label
_atom_site_type_symbol
_atom_site_fract_x
_atom_site_fract_y
_atom_site_fract_z
Zn1 Zn 0.72139(5) 0.2545(3) 0.79079(5)
Zn2 Zn 0.76594(5) -0.0411(3) 0.70672(5)
C1 C 0.8042(5) -0.2794(9) 0.7594(6)
H1 H 0.7624 -0.2853 0.7811
C2 C 0.9028(5) -0.3256(11) 0.7235(6)
C3 C 0.9631(6) -0.3776(12) 0.7063(7)
H2 H 0.9718 -0.4545 0.7228
C4 C 1.0110(6) -0.3161(13) 0.6645(8)
C5 C 0.9939(6) -0.1996(12) 0.6414(7)
C6 C 0.9330(5) -0.1465(12) 0.6579(6)
H3 H 0.9235 -0.0694 0.6424
C7 C 0.8882(5) -0.2124(9) 0.6977(6)
C8 C 1.0766(6) -0.3702(16) 0.6464(9)
H4 H 1.0769 -0.3915 0.5915
H5 H 1.0836 -0.4393 0.6784
H6 H 1.1115 -0.3143 0.6578
C9 C 1.0460(6) -0.1238(17) 0.5954(7)
H7 H 1.0301 -0.0442 0.5901
H8 H 1.0517 -0.1570 0.5438
H9 H 1.0878 -0.1240 0.6243
C10 C 0.6806(5) 0.4891(10) 0.7355(6)
H10 H 0.7205 0.4959 0.7095
C11 C 0.5824(4) 0.5357(9) 0.7801(6)
C12 C 0.5219(5) 0.5827(12) 0.7991(7)
H11 H 0.5104 0.6592 0.7844
C13 C 0.4793(5) 0.5143(12) 0.8399(6)
C14 C 0.4943(4) 0.3991(11) 0.8654(6)
C15 C 0.5554(5) 0.3539(10) 0.8464(5)
H12 H 0.5669 0.2783 0.8633
C16 C 0.6000(4) 0.4175(9) 0.8029(5)
C17 C 0.4107(7) 0.5624(17) 0.8610(9)
H13 H 0.4078 0.5667 0.9175
H14 H 0.3767 0.5109 0.8399
H15 H 0.4049 0.6398 0.8387
C18 C 0.4471(6) 0.3314(14) 0.9110(7)
H16 H 0.4652 0.2546 0.9223
H17 H 0.4060 0.3235 0.8810
H18 H 0.4392 0.3716 0.9598
C19 C 0.8086(4) 0.1915(10) 0.6595(5)
C20 C 0.8517(6) 0.2583(12) 0.6004(6)
C21 C 0.8327(7) 0.2297(10) 0.5151(6)
C22 C 0.8670(7) 0.3321(10) 0.4663(6)
H19 H 0.9122 0.3070 0.4542
C23 C 0.8718(7) 0.4401(10) 0.5248(6)
H20 H 0.9177 0.4645 0.5335
H21 H 0.8463 0.5065 0.5041
C24 C 0.8427(7) 0.3944(10) 0.6017(6)
H22 H 0.7960 0.4148 0.6041
H23 H 0.8662 0.4283 0.6474
C25 C 0.8297(5) 0.3572(9) 0.3898(6)
C26 C 0.9265(6) 0.2378(11) 0.6240(6)
H24 H 0.9394 0.1599 0.6082
H25 H 0.9327 0.2458 0.6803
H26 H 0.9533 0.2950 0.5979
C27 C 0.7611(7) 0.2208(11) 0.4977(7)
H27 H 0.7431 0.1563 0.5269
H28 H 0.7535 0.2074 0.4420
H29 H 0.7398 0.2928 0.5126
C28 C 0.8594(7) 0.1114(10) 0.4895(6)
H30 H 0.8522 0.0539 0.5300
H31 H 0.9062 0.1180 0.4809
H32 H 0.8369 0.0872 0.4413
C29 C 0.6799(5) 0.0229(10) 0.8432(5)
C30 C 0.6431(5) -0.0349(9) 0.9100(7)
C31 C 0.5960(7) 0.0442(12) 0.9568(6)
H33 H 0.6126 0.1244 0.9604
H34 H 0.5516 0.0449 0.9327
C32 C 0.5968(8) -0.0154(13) 1.0387(7)
H35 H 0.6131 0.0397 1.0788
H36 H 0.5520 -0.0385 1.0516
C33 C 0.6420(7) -0.1249(14) 1.0381(8)
H37 H 0.6157 -0.1950 1.0241
C34 C 0.6907(6) -0.0974(9) 0.9721(8)
C35 C 0.6794(4) -0.1446(11) 1.1165(5)
C36 C 0.6086(5) -0.1435(9) 0.8726(7)
H38 H 0.5613 -0.1356 0.8763
H39 H 0.6232 -0.2133 0.9002
H40 H 0.6198 -0.1493 0.8179
C37 C 0.7536(7) -0.0261(15) 0.9944(10)
H41 H 0.7411 0.0488 1.0159
H42 H 0.7791 -0.0139 0.9481
H43 H 0.7799 -0.0688 1.0333
C38 C 0.7306(6) -0.2055(11) 0.9455(8)
H44 H 0.7729 -0.1802 0.9271
H45 H 0.7064 -0.2452 0.9034
H46 H 0.7372 -0.2585 0.9893
N1 N 0.8252(4) -0.1842(8) 0.7238(5)
N2 N 0.8479(4) -0.3656(8) 0.7615(5)
H47 H 0.8430 -0.4340 0.7826
N3 N 0.6636(4) 0.3917(8) 0.7758(5)
N4 N 0.6353(4) 0.5746(8) 0.7362(5)
H48 H 0.6383 0.6421 0.7134
O1 O 0.7603(4) 0.2411(9) 0.6875(4)
O2 O 0.8250(3) 0.0852(8) 0.6750(4)
O3 O 0.8389(5) 0.2891(8) 0.3326(4)
O4 O 0.7919(3) 0.4462(8) 0.3849(4)
O5 O 0.6639(3) 0.1259(7) 0.8260(4)
O6 O 0.7268(3) -0.0342(10) 0.8101(4)
O7 O 0.6795(4) -0.0764(7) 1.1739(4)
O8 O 0.7166(3) -0.2399(8) 1.1188(4)
Zn1C Zn 0.77861(5) -0.2455(3) 1.20921(5)
Zn2C Zn 0.73406(5) 0.4589(3) 0.29328(5)
O4C O 0.7081(3) -0.0538(8) 0.6151(4)
O8C O 0.7834(3) 0.2601(8) 0.8812(4)
loop_
_geom_bond_atom_site_label_1
_geom_bond_atom_site_label_2
_geom_bond_site_symmetry_1
_geom_bond_site_symmetry_2
Zn1 N3 1_555 1_555
Zn2 N1 1_555 1_555
C1 H1 1_555 1_555
C2 C3 1_555 1_555
C3 H2 1_555 1_555
C4 C3 1_555 1_555
C5 C4 1_555 1_555
C6 C5 1_555 1_555
H3 C6 1_555 1_555
C7 C2 1_555 1_555
C8 C4 1_555 1_555
H4 C8 1_555 1_555
H5 C8 1_555 1_555
H6 C8 1_555 1_555
C9 C5 1_555 1_555
H7 C9 1_555 1_555
H8 C9 1_555 1_555
H9 C9 1_555 1_555
C10 H10 1_555 1_555
C11 C12 1_555 1_555
C12 H11 1_555 1_555
C13 C12 1_555 1_555
C14 C13 1_555 1_555
C15 C14 1_555 1_555
H12 C15 1_555 1_555
C16 C11 1_555 1_555
C17 C13 1_555 1_555
H13 C17 1_555 1_555
H14 C17 1_555 1_555
H15 C17 1_555 1_555
C18 C14 1_555 1_555
H16 C18 1_555 1_555
H17 C18 1_555 1_555
H18 C18 1_555 1_555
C19 C20 1_555 1_555
C20 C21 1_555 1_555
C21 C22 1_555 1_555
C22 H19 1_555 1_555
C23 C22 1_555 1_555
H20 C23 1_555 1_555
H21 C23 1_555 1_555
C24 C20 1_555 1_555
H22 C24 1_555 1_555
H23 C24 1_555 1_555
C25 C22 1_555 1_555
C26 C20 1_555 1_555
H24 C26 1_555 1_555
H25 C26 1_555 1_555
H26 C26 1_555 1_555
C27 C21 1_555 1_555
H27 C27 1_555 1_555
H28 C27 1_555 1_555
H29 C27 1_555 1_555
C28 C21 1_555 1_555
H30 C28 1_555 1_555
H31 C28 1_555 1_555
H32 C28 1_555 1_555
C29 C30 1_555 1_555
C30 C31 1_555 1_555
C31 H33 1_555 1_555
H34 C31 1_555 1_555
C32 C31 1_555 1_555
H35 C32 1_555 1_555
H36 C32 1_555 1_555
C33 C32 1_555 1_555
H37 C33 1_555 1_555
C34 C30 1_555 1_555
C35 C33 1_555 1_555
C36 C30 1_555 1_555
H38 C36 1_555 1_555
H39 C36 1_555 1_555
H40 C36 1_555 1_555
C37 C34 1_555 1_555
H41 C37 1_555 1_555
H42 C37 1_555 1_555
H43 C37 1_555 1_555
C38 C34 1_555 1_555
H44 C38 1_555 1_555
H45 C38 1_555 1_555
H46 C38 1_555 1_555
N1 C1 1_555 1_555
N2 C1 1_555 1_555
H47 N2 1_555 1_555
N3 C10 1_555 1_555
N4 C10 1_555 1_555
H48 N4 1_555 1_555
O1 Zn1 1_555 1_555
O2 Zn2 1_555 1_555
O3 C25 1_555 1_555
O4 C25 1_555 1_555
O5 Zn1 1_555 1_555
O6 Zn2 1_555 1_555
O7 C35 1_555 1_555
O8 C35 1_555 1_555
Zn1C O8 1_555 1_555
Zn2C O4 1_555 1_555
O4C Zn2 1_555 1_555
O8C Zn1 1_555 1_555
C2 N2 1_555 1_555
C6 C7 1_555 1_555
C7 N1 1_555 1_555
C11 N4 1_555 1_555
C15 C16 1_555 1_555
C16 N3 1_555 1_555
C19 O1 1_555 1_555
C19 O2 1_555 1_555
C23 C24 1_555 1_555
C29 O5 1_555 1_555
C29 O6 1_555 1_555
C33 C34 1_555 1_555

#END
