
#######################################################################
#
#                 Cambridge Crystallographic Data Centre
#                                CCDC 
#
#######################################################################
#
# If this CIF has been generated from an entry in the Cambridge 
# Structural Database, then it will include bibliographic, chemical, 
# crystal, experimental, refinement or atomic coordinate data resulting 
# from the CCDC's data processing and validation procedures.
#
#######################################################################

data_FIGTUL
_symmetry_cell_setting           orthorhombic
_symmetry_space_group_name_H-M   'P n a 21'
_symmetry_Int_Tables_number      33
_space_group_name_Hall           'P 2c -2n'
loop_
_symmetry_equiv_pos_site_id
_symmetry_equiv_pos_as_xyz
1 x,y,z
2 -x,-y,1/2+z
3 1/2+x,1/2-y,z
4 1/2-x,1/2+y,1/2+z
_cell_length_a                   29.0956(8)
_cell_length_b                   15.9080(4)
_cell_length_c                   14.3610(4)
_cell_angle_alpha                90
_cell_angle_beta                 90
_cell_angle_gamma                90
_cell_volume                     6647.03
loop_
_atom_site_label
_atom_site_type_symbol
_atom_site_fract_x
_atom_site_fract_y
_atom_site_fract_z
U1 U 0.083750(8) 0.203458(14) 0.42493(2)
S1 S 0.14719(6) 0.31256(12) 0.50790(13)
S2 S 0.12882(7) 0.11988(13) 0.57030(14)
S3 S 0.18432(8) 0.13995(14) 0.73811(15)
S4 S 0.19725(7) 0.35089(13) 0.67620(14)
C1 C 0.1661(2) 0.2718(4) 0.6145(5)
C2 C 0.1601(2) 0.1906(5) 0.6405(5)
C3 C 0.2256(3) 0.2146(5) 0.7819(6)
H1 H 0.2360 0.1969 0.8430
H2 H 0.2521 0.2159 0.7408
C4 C 0.2049(3) 0.3029(6) 0.7886(5)
H3 H 0.2248 0.3380 0.8262
H4 H 0.1753 0.2994 0.8197
S5 S 0.11594(7) 0.33772(12) 0.31163(13)
S6 S 0.01711(6) 0.24647(11) 0.28702(13)
S7 S 0.00060(7) 0.33121(13) 0.11002(14)
S8 S 0.11030(7) 0.41638(13) 0.12943(14)
C5 C 0.0823(3) 0.3494(4) 0.2094(5)
C6 C 0.0405(2) 0.3139(4) 0.2016(5)
C7 C 0.0266(3) 0.4123(5) 0.0408(6)
H5 H 0.0111 0.4143 -0.0190
H6 H 0.0216 0.4659 0.0713
C8 C 0.0767(3) 0.4017(5) 0.0243(5)
H7 H 0.0867 0.4419 -0.0222
H8 H 0.0823 0.3457 0.0000
S9 S 0.07274(6) 0.02553(11) 0.40683(12)
S10 S 0.14645(7) 0.14079(12) 0.29536(14)
S11 S 0.20282(7) -0.01113(13) 0.25628(15)
S12 S 0.12931(8) -0.12378(13) 0.38497(15)
C9 C 0.1243(2) -0.0159(5) 0.3613(5)
C10 C 0.1543(3) 0.0322(5) 0.3137(5)
C11 C 0.1793(3) -0.1105(5) 0.2197(6)
H9 H 0.1517 -0.1007 0.1834
H10 H 0.2014 -0.1390 0.1801
C12 C 0.1678(4) -0.1662(6) 0.3023(8)
H11 H 0.1962 -0.1801 0.3340
H12 H 0.1549 -0.2183 0.2789
S13 S -0.00421(6) 0.13308(11) 0.46935(13)
S14 S 0.03470(6) 0.31329(12) 0.54337(13)
S15 S -0.05776(7) 0.37098(13) 0.58709(15)
S16 S -0.09891(7) 0.18151(13) 0.50212(15)
C13 C -0.0407(2) 0.2141(5) 0.5067(5)
C14 C -0.0247(2) 0.2874(5) 0.5403(5)
C15 C -0.1123(3) 0.3211(6) 0.6140(7)
H13 H -0.1082 0.2832 0.6663
H14 H -0.1343 0.3638 0.6323
C16 C -0.1314(3) 0.2719(5) 0.5313(7)
H15 H -0.1325 0.3088 0.4775
H16 H -0.1626 0.2548 0.5454
Na1 Na 0.21187(10) 0.27116(18) 0.3443(2)
Na2 Na 0.04532(10) 0.03231(18) 0.6049(2)
Na3 Na -0.00486(10) 0.06884(18) 0.2787(2)
Na4 Na 0.02660(10) 0.40654(18) 0.3775(2)
O1 O 0.26641(15) 0.1859(3) 0.4182(5)
O2 O 0.24369(18) 0.2727(3) 0.1932(4)
O3 O 0.24899(18) 0.3996(3) 0.3711(4)
O4 O 0.02266(19) 0.0827(4) 0.7558(4)
O5 O -0.02424(17) -0.0485(4) 0.6250(4)
O6 O 0.07831(17) -0.0825(3) 0.6981(3)
O7 O -0.03909(18) 0.4679(3) 0.3283(4)
O8 O 0.06280(18) 0.5342(3) 0.4040(3)
C17 C 0.2499(3) 0.1467(6) 0.5009(6)
H17 H 0.2179 0.1607 0.5107
H18 H 0.2674 0.1660 0.5543
C18 C 0.2553(3) 0.0537(6) 0.4896(6)
H19 H 0.2286 0.0289 0.4599
H20 H 0.2606 0.0263 0.5490
C19 C 0.2976(2) 0.0484(4) 0.4269(8)
H21 H 0.3257 0.0513 0.4632
H22 H 0.2976 -0.0031 0.3909
C20 C 0.2928(3) 0.1248(5) 0.3643(5)
H23 H 0.3227 0.1473 0.3482
H24 H 0.2766 0.1102 0.3074
C21 C 0.2355(3) 0.3506(5) 0.1427(6)
H25 H 0.2629 0.3855 0.1429
H26 H 0.2105 0.3819 0.1709
C22 C 0.2232(4) 0.3251(6) 0.0440(6)
H27 H 0.1998 0.3618 0.0182
H28 H 0.2500 0.3261 0.0038
C23 C 0.2055(3) 0.2374(6) 0.0560(7)
H29 H 0.1739 0.2372 0.0777
H30 H 0.2076 0.2055 -0.0014
C24 C 0.2376(3) 0.2041(5) 0.1285(5)
H31 H 0.2244 0.1556 0.1595
H32 H 0.2667 0.1881 0.1009
C25 C 0.2244(3) 0.4769(5) 0.3623(7)
H33 H 0.1922 0.4661 0.3500
H34 H 0.2368 0.5100 0.3113
C26 C 0.2300(3) 0.5236(6) 0.4535(6)
H35 H 0.2075 0.5054 0.4992
H36 H 0.2275 0.5839 0.4449
C27 C 0.2783(3) 0.4978(6) 0.4809(6)
H37 H 0.2835 0.5050 0.5472
H38 H 0.3012 0.5293 0.4465
C28 C 0.2782(3) 0.4047(6) 0.4533(5)
H39 H 0.3091 0.3857 0.4391
H40 H 0.2659 0.3703 0.5033
C29 C -0.0136(3) 0.1459(5) 0.7522(6)
H41 H -0.0416 0.1243 0.7800
H42 H -0.0200 0.1616 0.6882
C30 C 0.0042(3) 0.2219(5) 0.8074(6)
H43 H -0.0076 0.2742 0.7820
H44 H -0.0042 0.2180 0.8726
C31 C 0.0555(3) 0.2155(5) 0.7947(6)
H45 H 0.0718 0.2433 0.8451
H46 H 0.0651 0.2399 0.7359
C32 C 0.0638(3) 0.1202(5) 0.7962(6)
H47 H 0.0907 0.1058 0.7598
H48 H 0.0682 0.1006 0.8595
C33 C -0.0693(3) -0.0100(5) 0.6349(5)
H49 H -0.0679 0.0491 0.6185
H50 H -0.0799 -0.0147 0.6987
C34 C -0.1016(3) -0.0562(5) 0.5698(6)
H51 H -0.1045 -0.0271 0.5108
H52 H -0.1318 -0.0626 0.5974
C35 C -0.0780(3) -0.1417(5) 0.5572(6)
H53 H -0.0843 -0.1791 0.6090
H54 H -0.0871 -0.1686 0.4995
C36 C -0.0279(3) -0.1142(5) 0.5551(6)
H55 H -0.0078 -0.1609 0.5700
H56 H -0.0198 -0.0927 0.4941
C37 C 0.0859(3) -0.1532(5) 0.6362(6)
H57 H 0.0813 -0.1363 0.5719
H58 H 0.0646 -0.1983 0.6504
C38 C 0.1343(3) -0.1815(7) 0.6510(7)
H59 H 0.1553 -0.1519 0.6101
H60 H 0.1374 -0.2415 0.6408
C39 C 0.1428(3) -0.1590(6) 0.7520(6)
H61 H 0.1299 -0.2008 0.7937
H62 H 0.1753 -0.1526 0.7648
C40 C 0.1178(3) -0.0765(5) 0.7598(6)
H63 H 0.1079 -0.0669 0.8234
H64 H 0.1376 -0.0305 0.7410
C41 C -0.0395(3) 0.5407(6) 0.2697(7)
H65 H -0.0209 0.5314 0.2145
H66 H -0.0276 0.5892 0.3027
C42 C -0.0897(3) 0.5542(6) 0.2434(6)
H67 H -0.1057 0.5872 0.2899
H68 H -0.0926 0.5813 0.1832
C43 C -0.1073(3) 0.4647(6) 0.2406(6)
H69 H -0.1401 0.4627 0.2521
H70 H -0.1009 0.4389 0.1808
C44 C -0.0812(3) 0.4214(5) 0.3172(6)
H71 H -0.0988 0.4219 0.3746
H72 H -0.0747 0.3635 0.3005
C45 C 0.0896(3) 0.5736(5) 0.3347(6)
H73 H 0.0702 0.5965 0.2860
H74 H 0.1108 0.5338 0.3069
C46 C 0.1155(3) 0.6430(6) 0.3833(7)
H75 H 0.1014 0.6972 0.3715
H76 H 0.1473 0.6448 0.3629
C47 C 0.1124(4) 0.6199(6) 0.4875(7)
H77 H 0.1426 0.6189 0.5161
H78 H 0.0931 0.6593 0.5210
C48 C 0.0911(3) 0.5328(5) 0.4862(6)
H79 H 0.1146 0.4896 0.4818
H80 H 0.0728 0.5230 0.5416
Na2A Na -0.04532(10) -0.03231(18) 0.1049(2)
Na3A Na 0.00486(10) -0.06884(18) 0.7787(2)
O4A O -0.02266(19) -0.0827(4) 0.2558(4)
O5A O 0.02424(17) 0.0485(4) 0.1250(4)
O6A O -0.07831(17) 0.0825(3) 0.1981(3)
loop_
_geom_bond_atom_site_label_1
_geom_bond_atom_site_label_2
_geom_bond_site_symmetry_1
_geom_bond_site_symmetry_2
U1 S1 1_555 1_555
S1 C1 1_555 1_555
S2 U1 1_555 1_555
S3 C2 1_555 1_555
S4 C1 1_555 1_555
C1 C2 1_555 1_555
C2 S2 1_555 1_555
C3 S3 1_555 1_555
H1 C3 1_555 1_555
H2 C3 1_555 1_555
C4 S4 1_555 1_555
H3 C4 1_555 1_555
H4 C4 1_555 1_555
S5 U1 1_555 1_555
S6 U1 1_555 1_555
S7 C6 1_555 1_555
S8 C5 1_555 1_555
C5 S5 1_555 1_555
C6 S6 1_555 1_555
C7 S7 1_555 1_555
H5 C7 1_555 1_555
H6 C7 1_555 1_555
C8 S8 1_555 1_555
H7 C8 1_555 1_555
H8 C8 1_555 1_555
S9 U1 1_555 1_555
S10 U1 1_555 1_555
S11 C10 1_555 1_555
S12 C9 1_555 1_555
C9 S9 1_555 1_555
C10 S10 1_555 1_555
C11 S11 1_555 1_555
H9 C11 1_555 1_555
H10 C11 1_555 1_555
C12 S12 1_555 1_555
H11 C12 1_555 1_555
H12 C12 1_555 1_555
S13 U1 1_555 1_555
S14 U1 1_555 1_555
S15 C14 1_555 1_555
S16 C13 1_555 1_555
C13 S13 1_555 1_555
C14 S14 1_555 1_555
C15 S15 1_555 1_555
H13 C15 1_555 1_555
H14 C15 1_555 1_555
C16 S16 1_555 1_555
H15 C16 1_555 1_555
H16 C16 1_555 1_555
Na1 S1 1_555 1_555
Na2 S2 1_555 1_555
Na3 S6 1_555 1_555
Na4 S5 1_555 1_555
O1 Na1 1_555 1_555
O2 Na1 1_555 1_555
O3 Na1 1_555 1_555
O4 Na2 1_555 1_555
O5 Na2 1_555 1_555
O6 Na2 1_555 1_555
O7 Na4 1_555 1_555
O8 Na4 1_555 1_555
C17 O1 1_555 1_555
H17 C17 1_555 1_555
H18 C17 1_555 1_555
C18 C17 1_555 1_555
H19 C18 1_555 1_555
H20 C18 1_555 1_555
C19 C18 1_555 1_555
H21 C19 1_555 1_555
H22 C19 1_555 1_555
C20 O1 1_555 1_555
H23 C20 1_555 1_555
H24 C20 1_555 1_555
C21 O2 1_555 1_555
H25 C21 1_555 1_555
H26 C21 1_555 1_555
C22 C21 1_555 1_555
H27 C22 1_555 1_555
H28 C22 1_555 1_555
C23 C22 1_555 1_555
H29 C23 1_555 1_555
H30 C23 1_555 1_555
C24 O2 1_555 1_555
H31 C24 1_555 1_555
H32 C24 1_555 1_555
C25 O3 1_555 1_555
H33 C25 1_555 1_555
H34 C25 1_555 1_555
C26 C25 1_555 1_555
H35 C26 1_555 1_555
H36 C26 1_555 1_555
C27 C26 1_555 1_555
H37 C27 1_555 1_555
H38 C27 1_555 1_555
C28 O3 1_555 1_555
H39 C28 1_555 1_555
H40 C28 1_555 1_555
C29 O4 1_555 1_555
H41 C29 1_555 1_555
H42 C29 1_555 1_555
C30 C29 1_555 1_555
H43 C30 1_555 1_555
H44 C30 1_555 1_555
C31 C30 1_555 1_555
H45 C31 1_555 1_555
H46 C31 1_555 1_555
C32 O4 1_555 1_555
H47 C32 1_555 1_555
H48 C32 1_555 1_555
C33 O5 1_555 1_555
H49 C33 1_555 1_555
H50 C33 1_555 1_555
C34 C33 1_555 1_555
H51 C34 1_555 1_555
H52 C34 1_555 1_555
C35 C34 1_555 1_555
H53 C35 1_555 1_555
H54 C35 1_555 1_555
C36 O5 1_555 1_555
H55 C36 1_555 1_555
H56 C36 1_555 1_555
C37 O6 1_555 1_555
H57 C37 1_555 1_555
H58 C37 1_555 1_555
C38 C37 1_555 1_555
H59 C38 1_555 1_555
H60 C38 1_555 1_555
C39 C38 1_555 1_555
H61 C39 1_555 1_555
H62 C39 1_555 1_555
C40 O6 1_555 1_555
H63 C40 1_555 1_555
H64 C40 1_555 1_555
C41 O7 1_555 1_555
H65 C41 1_555 1_555
H66 C41 1_555 1_555
C42 C41 1_555 1_555
H67 C42 1_555 1_555
H68 C42 1_555 1_555
C43 C42 1_555 1_555
H69 C43 1_555 1_555
H70 C43 1_555 1_555
C44 O7 1_555 1_555
H71 C44 1_555 1_555
H72 C44 1_555 1_555
C45 O8 1_555 1_555
H73 C45 1_555 1_555
H74 C45 1_555 1_555
C46 C45 1_555 1_555
H75 C46 1_555 1_555
H76 C46 1_555 1_555
C47 C46 1_555 1_555
H77 C47 1_555 1_555
H78 C47 1_555 1_555
C48 O8 1_555 1_555
H79 C48 1_555 1_555
H80 C48 1_555 1_555
Na2A O4A 1_555 1_555
Na3A O4 1_555 1_555
O4A Na3 1_555 1_555
O5A Na3 1_555 1_555
O6A Na3 1_555 1_555
C3 C4 1_555 1_555
S5 Na1 1_555 1_555
S6 Na4 1_555 1_555
C5 C6 1_555 1_555
C5 Na4 1_555 1_555
C6 Na4 1_555 1_555
C7 C8 1_555 1_555
S9 Na2 1_555 1_555
S9 Na3 1_555 1_555
S10 Na1 1_555 1_555
C9 C10 1_555 1_555
C11 C12 1_555 1_555
S13 Na2 1_555 1_555
S13 Na3 1_555 1_555
S14 Na4 1_555 1_555
C13 C14 1_555 1_555
C15 C16 1_555 1_555
O5 Na3A 1_555 1_555
O6 Na3A 1_555 1_555
C19 C20 1_555 1_555
C23 C24 1_555 1_555
C27 C28 1_555 1_555
C31 C32 1_555 1_555
C35 C36 1_555 1_555
C39 C40 1_555 1_555
C43 C44 1_555 1_555
C47 C48 1_555 1_555
Na2A O5A 1_555 1_555
Na2A O6A 1_555 1_555

#END
