
#######################################################################
#
#                 Cambridge Crystallographic Data Centre
#                                CCDC 
#
#######################################################################
#
# If this CIF has been generated from an entry in the Cambridge 
# Structural Database, then it will include bibliographic, chemical, 
# crystal, experimental, refinement or atomic coordinate data resulting 
# from the CCDC's data processing and validation procedures.
#
#######################################################################

data_FIGTUM
_symmetry_cell_setting           triclinic
_symmetry_space_group_name_H-M   'P -1'
_symmetry_Int_Tables_number      2
_space_group_name_Hall           '-P 1'
loop_
_symmetry_equiv_pos_site_id
_symmetry_equiv_pos_as_xyz
1 x,y,z
2 -x,-y,-z
_cell_length_a                   9.2471(17)
_cell_length_b                   11.594(2)
_cell_length_c                   21.989(4)
_cell_angle_alpha                89.402(3)
_cell_angle_beta                 80.613(3)
_cell_angle_gamma                85.254(3)
_cell_volume                     2317.91
loop_
_atom_site_label
_atom_site_type_symbol
_atom_site_fract_x
_atom_site_fract_y
_atom_site_fract_z
Cd1 Cd -0.28650(6) 0.22062(5) 0.37992(2)
Cd2 Cd 0.12698(6) 0.71281(5) 0.10661(3)
O1 O -0.2564(8) 0.1257(6) 0.2854(3)
H1 H -0.3132 0.1758 0.2695
H2 H -0.2940 0.0538 0.2905
C1 C 0.0942(9) 0.1486(7) 0.4912(4)
H3 H 0.1161 0.1816 0.5266
C2 C 0.1840(9) 0.0561(7) 0.4619(4)
H4 H 0.2669 0.0262 0.4776
C3 C 0.1482(10) 0.0104(7) 0.4101(4)
H5 H 0.2075 -0.0504 0.3894
C4 C 0.0240(9) 0.0550(7) 0.3884(4)
H6 H -0.0004 0.0217 0.3535
C5 C -0.0267(7) 0.1896(6) 0.4667(3)
C6 C -0.1311(7) 0.2879(6) 0.4918(3)
C7 C -0.2452(7) 0.4404(6) 0.5408(3)
C8 C -0.2846(7) 0.5425(6) 0.5812(3)
C9 C -0.4295(8) 0.5907(7) 0.5867(3)
H7 H -0.4951 0.5540 0.5672
C10 C -0.3828(8) 0.7383(7) 0.6465(4)
H8 H -0.4149 0.8062 0.6686
C11 C -0.2427(9) 0.6955(6) 0.6438(4)
H9 H -0.1809 0.7337 0.6647
C12 C -0.1874(8) 0.5963(7) 0.6107(4)
H10 H -0.0899 0.5672 0.6085
C13 C -0.0247(7) 0.3494(6) 0.5835(3)
C14 C -0.0661(8) 0.2949(7) 0.6384(3)
H11 H -0.1594 0.2689 0.6488
C15 C 0.0364(10) 0.2801(9) 0.6779(4)
H12 H 0.0154 0.2419 0.7153
C16 C 0.1703(9) 0.3239(9) 0.6598(4)
H13 H 0.2409 0.3168 0.6855
C17 C 0.2002(9) 0.3774(8) 0.6045(4)
H14 H 0.2926 0.4045 0.5930
C18 C 0.4460(10) 0.5556(9) 0.0961(5)
H15 H 0.3908 0.5127 0.1259
C19 C 0.5942(11) 0.5222(8) 0.0792(5)
H16 H 0.6381 0.4592 0.0978
C20 C 0.6731(10) 0.5833(9) 0.0350(5)
H17 H 0.7728 0.5627 0.0226
C21 C 0.6049(10) 0.6765(8) 0.0084(4)
H18 H 0.6581 0.7188 -0.0224
C22 C 0.4578(8) 0.7063(7) 0.0277(4)
C23 C 0.3715(8) 0.8047(7) 0.0048(4)
C24 C 0.2921(8) 0.9543(7) -0.0452(3)
C25 C 0.2772(8) 1.0512(7) -0.0871(4)
C26 C 0.3957(9) 1.1004(8) -0.1216(5)
H19 H 0.4915 1.0697 -0.1208
C27 C 0.3674(9) 1.1974(8) -0.1576(5)
H20 H 0.4444 1.2314 -0.1818
C28 C 0.2217(10) 1.2428(8) -0.1567(4)
H21 H 0.2023 1.3076 -0.1802
C29 C 0.1390(8) 1.1016(7) -0.0891(4)
H22 H 0.0605 1.0686 -0.0654
C30 C 0.5423(8) 0.8609(6) -0.0913(4)
C31 C 0.5418(9) 0.7935(8) -0.1415(4)
H23 H 0.4577 0.7597 -0.1479
C32 C 0.6714(11) 0.7775(9) -0.1825(4)
H24 H 0.6777 0.7313 -0.2173
C33 C 0.7893(10) 0.8305(9) -0.1711(5)
H25 H 0.8782 0.8204 -0.1980
C34 C 0.7773(9) 0.8988(8) -0.1201(5)
H26 H 0.8583 0.9369 -0.1139
C35 C -0.4203(10) -0.0351(9) 0.4186(4)
C36 C -0.5196(11) -0.2018(9) 0.3991(6)
C37 C -0.0639(11) 0.3868(8) 0.2837(4)
C38 C 0.0541(10) 0.4992(8) 0.2090(4)
C39 C 0.0482(12) 0.6596(10) -0.0293(5)
C40 C 0.1183(14) 0.7252(14) -0.1270(6)
C41 C 0.2376(10) 0.8672(8) 0.2203(4)
C42 C 0.3936(14) 0.9616(9) 0.2687(4)
N1 N -0.0638(6) 0.1444(5) 0.4155(3)
N2 N -0.2475(6) 0.3215(5) 0.4667(3)
N3 N -0.3186(6) 0.4180(5) 0.4971(3)
N4 N -0.1254(6) 0.3604(5) 0.5395(3)
N5 N -0.4776(7) 0.6864(5) 0.6185(3)
N6 N 0.1021(7) 0.3930(6) 0.5656(3)
N7 N 0.3793(7) 0.6457(6) 0.0719(3)
N8 N 0.2386(7) 0.8399(6) 0.0317(3)
N9 N 0.1856(7) 0.9315(6) 0.0008(3)
N10 N 0.4101(7) 0.8755(6) -0.0445(3)
N11 N 0.1086(7) 1.1930(6) -0.1217(3)
N12 N 0.6540(7) 0.9133(7) -0.0784(4)
N13 N -0.3809(9) 0.0542(7) 0.4140(4)
N14 N -0.4629(16) -0.1363(8) 0.4341(5)
N15 N -0.5707(11) -0.2683(8) 0.3724(6)
N16 N -0.1512(9) 0.3493(7) 0.3194(4)
N17 N 0.0517(10) 0.4213(9) 0.2490(5)
N18 N 0.0758(11) 0.5639(8) 0.1702(5)
N19 N 0.0550(10) 0.6361(8) 0.0192(5)
N20 N 0.0236(15) 0.6745(13) -0.0833(6)
N21 N 0.1785(14) 0.7667(12) -0.1663(6)
N22 N 0.1990(10) 0.8186(8) 0.1821(4)
N23 N 0.2628(11) 0.9240(9) 0.2666(4)
N24 N 0.4970(11) 0.9998(9) 0.2752(4)
Cd1A Cd -0.71350(6) 0.77938(5) 0.62008(2)
Cd2A Cd -0.12698(6) 1.28719(5) -0.10661(3)
N5A N -0.5224(7) 0.3136(5) 0.3815(3)
N11A N -0.1086(7) 0.8070(6) 0.1217(3)
loop_
_geom_bond_atom_site_label_1
_geom_bond_atom_site_label_2
_geom_bond_site_symmetry_1
_geom_bond_site_symmetry_2
Cd1 O1 1_555 1_555
Cd2 N7 1_555 1_555
O1 H1 1_555 1_555
H2 O1 1_555 1_555
C1 H3 1_555 1_555
C2 C1 1_555 1_555
H4 C2 1_555 1_555
C3 C2 1_555 1_555
H5 C3 1_555 1_555
C4 C3 1_555 1_555
H6 C4 1_555 1_555
C5 C1 1_555 1_555
C6 C5 1_555 1_555
C7 C8 1_555 1_555
C8 C9 1_555 1_555
C9 H7 1_555 1_555
C10 H8 1_555 1_555
C11 C10 1_555 1_555
H9 C11 1_555 1_555
C12 C8 1_555 1_555
H10 C12 1_555 1_555
C13 C14 1_555 1_555
C14 H11 1_555 1_555
C15 C14 1_555 1_555
H12 C15 1_555 1_555
C16 C15 1_555 1_555
H13 C16 1_555 1_555
C17 C16 1_555 1_555
H14 C17 1_555 1_555
C18 H15 1_555 1_555
C19 C18 1_555 1_555
H16 C19 1_555 1_555
C20 C19 1_555 1_555
H17 C20 1_555 1_555
C21 C20 1_555 1_555
H18 C21 1_555 1_555
C22 C21 1_555 1_555
C23 C22 1_555 1_555
C24 C25 1_555 1_555
C25 C26 1_555 1_555
C26 H19 1_555 1_555
C27 C26 1_555 1_555
H20 C27 1_555 1_555
C28 C27 1_555 1_555
H21 C28 1_555 1_555
C29 C25 1_555 1_555
H22 C29 1_555 1_555
C30 C31 1_555 1_555
C31 H23 1_555 1_555
C32 C31 1_555 1_555
H24 C32 1_555 1_555
C33 C32 1_555 1_555
H25 C33 1_555 1_555
C34 C33 1_555 1_555
H26 C34 1_555 1_555
C35 N13 1_555 1_555
C36 N14 1_555 1_555
C37 N16 1_555 1_555
C38 N17 1_555 1_555
C39 N19 1_555 1_555
C40 N20 1_555 1_555
C41 N22 1_555 1_555
C42 N23 1_555 1_555
N1 Cd1 1_555 1_555
N2 Cd1 1_555 1_555
N3 C7 1_555 1_555
N4 C6 1_555 1_555
N5 C9 1_555 1_555
N6 C13 1_555 1_555
N7 C18 1_555 1_555
N8 Cd2 1_555 1_555
N9 C24 1_555 1_555
N10 C23 1_555 1_555
N11 C28 1_555 1_555
N12 C30 1_555 1_555
N13 Cd1 1_555 1_555
N14 C35 1_555 1_555
N15 C36 1_555 1_555
N16 Cd1 1_555 1_555
N17 C37 1_555 1_555
N18 Cd2 1_555 1_555
N19 Cd2 1_555 1_555
N20 C39 1_555 1_555
N21 C40 1_555 1_555
N22 Cd2 1_555 1_555
N23 C41 1_555 1_555
N24 C42 1_555 1_555
Cd1A N5 1_555 1_555
Cd2A N11 1_555 1_555
N5A Cd1 1_555 1_555
N11A Cd2 1_555 1_555
C4 N1 1_555 1_555
C5 N1 1_555 1_555
C6 N2 1_555 1_555
C7 N4 1_555 1_555
C10 N5 1_555 1_555
C11 C12 1_555 1_555
C13 N4 1_555 1_555
C17 N6 1_555 1_555
C22 N7 1_555 1_555
C23 N8 1_555 1_555
C24 N10 1_555 1_555
C29 N11 1_555 1_555
C30 N10 1_555 1_555
C34 N12 1_555 1_555
C38 N18 1_555 1_555
N2 N3 1_555 1_555
N8 N9 1_555 1_555

#END
