
#######################################################################
#
#                 Cambridge Crystallographic Data Centre
#                                CCDC 
#
#######################################################################
#
# If this CIF has been generated from an entry in the Cambridge 
# Structural Database, then it will include bibliographic, chemical, 
# crystal, experimental, refinement or atomic coordinate data resulting 
# from the CCDC's data processing and validation procedures.
#
#######################################################################

data_FIGTAS
_symmetry_cell_setting           triclinic
_symmetry_space_group_name_H-M   'P -1'
_symmetry_Int_Tables_number      2
_space_group_name_Hall           '-P 1'
loop_
_symmetry_equiv_pos_site_id
_symmetry_equiv_pos_as_xyz
1 x,y,z
2 -x,-y,-z
_cell_length_a                   12.6370(12)
_cell_length_b                   14.2041(14)
_cell_length_c                   15.2945(15)
_cell_angle_alpha                106.791(9)
_cell_angle_beta                 113.403(9)
_cell_angle_gamma                97.220(8)
_cell_volume                     2319.99
loop_
_atom_site_label
_atom_site_type_symbol
_atom_site_fract_x
_atom_site_fract_y
_atom_site_fract_z
Ni1 Ni 0.41740(7) -0.04181(6) 0.40271(6)
O1 O 0.3948(4) 0.0730(3) 0.5092(3)
N1 N 0.2741(4) -0.0398(4) 0.2837(3)
O2 O 0.4727(4) -0.1494(3) 0.3258(3)
O3 O 0.5198(4) 0.0705(3) 0.3906(3)
O4 O 0.3420(4) -0.1457(3) 0.4435(3)
C1 C 0.4267(6) 0.1363(5) 0.5979(5)
C2 C 0.2361(6) 0.0457(5) 0.2920(5)
C3 C 0.2175(6) -0.1191(5) 0.1951(4)
C4 C 0.3461(5) 0.2002(5) 0.6148(4)
H1 H 0.2763 0.1011 0.3541
C5 C 0.1413(7) 0.0547(6) 0.2136(5)
C6 C 0.1202(6) -0.1163(5) 0.1116(5)
H2 H 0.2434 -0.1780 0.1886
C7 C 0.3884(5) 0.2843(4) 0.7069(4)
C8 C 0.2277(5) 0.1779(5) 0.5397(4)
H3 H 0.1170 0.1144 0.2223
C9 C 0.0821(6) -0.0287(6) 0.1198(6)
H4 H 0.0811 -0.1731 0.0506
H5 H 0.4669 0.3005 0.7574
C10 C 0.3130(5) 0.3436(4) 0.7226(4)
C11 C 0.1527(5) 0.2367(4) 0.5543(4)
H6 H 0.1991 0.1222 0.4784
C12 C -0.0168(7) -0.0239(7) 0.0300(6)
H7 H 0.3405 0.3987 0.7841
C13 C 0.1982(5) 0.3201(5) 0.6471(5)
H8 H 0.0743 0.2213 0.5040
H9 H -0.0203 0.0413 0.0720
C14 C -0.1381(7) -0.0730(8) 0.0057(7)
O5 O 0.1157(3) 0.3733(3) 0.6541(3)
H10 H -0.1920 -0.0382 -0.0276
H11 H -0.1419 -0.0701 0.0678
H12 H -0.1606 -0.1431 -0.0391
C15 C 0.1546(6) 0.4677(4) 0.7382(4)
H13 H 0.1982 0.4578 0.8017
H14 H 0.0850 0.4886 0.7397
C16 C 0.2338(6) 0.5517(5) 0.7320(5)
O6 O 0.1705(4) 0.5658(3) 0.6401(3)
H15 H 0.2572 0.6146 0.7900
H16 H 0.3059 0.5333 0.7340
C17 C 0.2286(5) 0.6365(5) 0.6185(5)
C18 C 0.3449(6) 0.6972(5) 0.6828(5)
C19 C 0.1634(6) 0.6449(5) 0.5240(5)
H17 H 0.3891 0.6902 0.7446
C20 C 0.3955(6) 0.7689(5) 0.6544(5)
C21 C 0.2167(6) 0.7155(5) 0.4968(5)
H18 H 0.0855 0.6038 0.4801
H19 H 0.4730 0.8107 0.6987
C22 C 0.3325(6) 0.7789(5) 0.5613(4)
H20 H 0.1739 0.7206 0.4337
C23 C 0.3894(6) 0.8606(5) 0.5364(5)
O1A O 0.6052(4) -0.0730(3) 0.4908(3)
Ni1A Ni 0.58260(7) 0.04181(6) 0.59729(6)
O2A O 0.5273(4) 0.1494(3) 0.6742(3)
C12A C 0.0168(7) 0.0239(7) -0.0300(6)
C9A C -0.0821(6) 0.0287(6) -0.1198(6)
H9A H 0.0203 -0.0413 -0.0720
C14A C 0.1381(7) 0.0730(8) -0.0057(7)
C5A C -0.1413(7) -0.0547(6) -0.2136(5)
C6A C -0.1202(6) 0.1163(5) -0.1116(5)
H10A H 0.1920 0.0382 0.0276
H11A H 0.1419 0.0701 -0.0678
H12A H 0.1606 0.1431 0.0391
C2A C -0.2361(6) -0.0457(5) -0.2920(5)
H3A H -0.1170 -0.1144 -0.2223
H4A H -0.0811 0.1731 -0.0506
C3A C -0.2175(6) 0.1191(5) -0.1951(4)
N1A N -0.2741(4) 0.0398(4) -0.2837(3)
H1A H -0.2763 -0.1011 -0.3541
H2A H -0.2434 0.1780 -0.1886
Ni1A_2 Ni -0.41740(7) 0.04181(6) -0.40271(6)
O1A_2 O -0.3948(4) -0.0730(3) -0.5092(3)
O2A_2 O -0.4727(4) 0.1494(3) -0.3258(3)
O1_2 O -0.6052(4) 0.0730(3) -0.4908(3)
O3A O -0.5198(4) -0.0705(3) -0.3906(3)
O4A O -0.3420(4) 0.1457(3) -0.4435(3)
C1A C -0.4267(6) -0.1363(5) -0.5979(5)
Ni1_2 Ni -0.58260(7) -0.04181(6) -0.59729(6)
O2_2 O -0.5273(4) -0.1494(3) -0.6742(3)
C4A C -0.3461(5) -0.2002(5) -0.6148(4)
C7A C -0.3884(5) -0.2843(4) -0.7069(4)
C8A C -0.2277(5) -0.1779(5) -0.5397(4)
O3A_2 O 0.4802(4) 0.9295(3) 0.6094(3)
O4_2 O 0.3420(4) 0.8543(3) 0.4435(3)
H5A H -0.4669 -0.3005 -0.7574
C10A C -0.3130(5) -0.3436(4) -0.7226(4)
C11A C -0.1527(5) -0.2367(4) -0.5543(4)
H6A H -0.1991 -0.1222 -0.4784
Ni1A_3 Ni 0.58260(7) 1.04181(6) 0.59729(6)
Ni1_3 Ni 0.41740(7) 0.95819(6) 0.40271(6)
H7A H -0.3405 -0.3987 -0.7841
C13A C -0.1982(5) -0.3201(5) -0.6471(5)
H8A H -0.0743 -0.2213 -0.5040
O5A O -0.1157(3) -0.3733(3) -0.6541(3)
C15A C -0.1546(6) -0.4677(4) -0.7382(4)
H13A H -0.1982 -0.4578 -0.8017
H14A H -0.0850 -0.4886 -0.7397
C16A C -0.2338(6) -0.5517(5) -0.7320(5)
O6A O -0.1705(4) -0.5658(3) -0.6401(3)
H15A H -0.2572 -0.6146 -0.7900
H16A H -0.3059 -0.5333 -0.7340
C17A C -0.2286(5) -0.6365(5) -0.6185(5)
C18A C -0.3449(6) -0.6972(5) -0.6828(5)
C19A C -0.1634(6) -0.6449(5) -0.5240(5)
H17A H -0.3891 -0.6902 -0.7446
C20A C -0.3955(6) -0.7689(5) -0.6544(5)
C21A C -0.2167(6) -0.7155(5) -0.4968(5)
H18A H -0.0855 -0.6038 -0.4801
H19A H -0.4730 -0.8107 -0.6987
C22A C -0.3325(6) -0.7789(5) -0.5613(4)
H20A H -0.1739 -0.7206 -0.4337
C23A C -0.3894(6) -0.8606(5) -0.5364(5)
O3_2 O -0.4802(4) -0.9295(3) -0.6094(3)
O4A_2 O -0.3420(4) -0.8543(3) -0.4435(3)
Ni1_4 Ni -0.58260(7) -1.04181(6) -0.59729(6)
Ni1A_4 Ni -0.41740(7) -0.95819(6) -0.40271(6)
Ni2 Ni 0.11964(7) 0.53372(6) 1.06512(5)
O7 O 0.1297(3) 0.4154(3) 0.9600(3)
N2 N 0.2583(4) 0.5293(4) 1.1911(3)
C24 C 0.3120(6) 0.6088(5) 1.2793(5)
H21 H 0.2931 0.6704 1.2817
C25 C 0.3960(6) 0.6025(6) 1.3688(5)
H22 H 0.4322 0.6596 1.4296
C26 C 0.2861(6) 0.4422(5) 1.1892(5)
H23 H 0.2478 0.3863 1.1274
C27 C 0.3679(6) 0.4296(6) 1.2729(5)
H24 H 0.3852 0.3670 1.2672
C28 C 0.4256(6) 0.5122(6) 1.3676(5)
C29 C 0.5227(6) 0.5079(6) 1.4649(5)
H25 H 0.5331 0.4403 1.4373
C30 C 0.6425(6) 0.5730(6) 1.5009(5)
H26 H 0.7005 0.5550 1.5520
H27 H 0.6448 0.6433 1.5301
H28 H 0.6606 0.5634 1.4441
O8 O 0.0704(4) -0.3578(3) 1.1451(3)
O9 O -0.0768(4) -0.0032(3) 1.3859(3)
O10 O -0.1048(4) 0.1557(3) 1.3093(3)
O11 O -0.1920(4) 0.3624(3) 0.9777(3)
O12 O 0.0035(4) 0.4285(3) 1.0773(3)
C31 C -0.0372(5) -0.3523(4) 1.1191(4)
C32 C -0.0534(5) -0.2622(5) 1.1902(4)
C33 C 0.0455(5) -0.1969(4) 1.2821(4)
H29 H 0.1196 -0.2110 1.3007
C34 C 0.0334(5) -0.1116(4) 1.3452(4)
H30 H 0.0991 -0.0682 1.4063
C35 C -0.0788(6) -0.0908(4) 1.3165(4)
C36 C -0.1764(6) -0.1563(4) 1.2278(4)
H31 H -0.2511 -0.1436 1.2100
C37 C -0.1635(5) -0.2421(4) 1.1640(4)
H32 H -0.2296 -0.2859 1.1034
C38 C -0.1824(6) 0.0303(5) 1.3596(5)
H33 H -0.2502 -0.0269 1.3372
H34 H -0.1754 0.0823 1.4205
C39 C -0.2076(5) 0.0739(4) 1.2752(4)
H35 H -0.2781 0.0989 1.2630
H36 H -0.2216 0.0214 1.2117
C40 C -0.1056(6) 0.2037(5) 1.2451(4)
C41 C -0.2046(5) 0.1780(5) 1.1495(4)
H37 H -0.2725 0.1260 1.1277
C42 C -0.1994(5) 0.2325(5) 1.0869(4)
H38 H -0.2646 0.2163 1.0233
C43 C -0.0976(5) 0.3105(4) 1.1194(4)
C44 C -0.0001(5) 0.3332(4) 1.2153(4)
H39 H 0.0690 0.3842 1.2376
C45 C -0.0057(5) 0.2807(4) 1.2766(4)
H40 H 0.0591 0.2975 1.3406
C46 C -0.0949(6) 0.3706(5) 1.0542(4)
N2A N 0.7417(4) 0.4707(4) 1.8089(3)
C24A C 0.6880(6) 0.3912(5) 1.7207(5)
H21A H 0.7069 0.3296 1.7183
C25A C 0.6040(6) 0.3975(6) 1.6312(5)
H22A H 0.5678 0.3404 1.5704
C26A C 0.7139(6) 0.5578(5) 1.8108(5)
H23A H 0.7522 0.6137 1.8726
C27A C 0.6321(6) 0.5704(6) 1.7271(5)
H24A H 0.6148 0.6330 1.7328
C28A C 0.5744(6) 0.4878(6) 1.6324(5)
C29A C 0.4773(6) 0.4921(6) 1.5351(5)
H25A H 0.4669 0.5597 1.5627
C30A C 0.3575(6) 0.4270(6) 1.4991(5)
H26A H 0.2995 0.4450 1.4480
H27A H 0.3552 0.3567 1.4699
H28A H 0.3394 0.4366 1.5559
Ni2A Ni -0.11964(7) -0.53372(6) 0.93488(5)
O7A O -0.1297(3) -0.4154(3) 1.0400(3)
Ni2_2 Ni 0.11964(7) -0.46628(6) 1.06512(5)
Ni2A_2 Ni -0.11964(7) 0.46628(6) 0.93488(5)
Ni2A_3 Ni 0.88036(7) 0.46628(6) 1.93488(5)
O8_2 O 0.0704(4) 0.6422(3) 1.1451(3)
O11A O 0.1920(4) 0.6376(3) 1.0223(3)
O12A O -0.0035(4) 0.5715(3) 0.9227(3)
Ni2A_4 Ni 0.88036(7) 1.46628(6) 1.93488(5)
Ni2_3 Ni 1.11964(7) 1.53372(6) 2.06512(5)
O7_2 O 1.1297(3) 1.4154(3) 1.9600(3)
C31A C 1.0372(5) 1.3523(4) 1.8809(4)
O8A O 0.9296(4) 1.3578(3) 1.8549(3)
O9A O 1.0768(4) 1.0032(3) 1.6141(3)
C35A C 1.0788(6) 1.0908(4) 1.6835(4)
C38A C 1.1824(6) 0.9697(5) 1.6404(5)
O10A O 1.1048(4) 0.8443(3) 1.6907(3)
C39A C 1.2076(5) 0.9261(4) 1.7248(4)
C40A C 1.1056(6) 0.7963(5) 1.7549(4)
O11A_2 O 1.1920(4) 0.6376(3) 2.0223(3)
C46A C 1.0949(6) 0.6294(5) 1.9458(4)
Ni2_4 Ni 1.11964(7) 0.53372(6) 2.06512(5)
O12A_2 O 0.9965(4) 0.5715(3) 1.9227(3)
C32A C 1.0534(5) 1.2622(5) 1.8098(4)
C33A C 0.9545(5) 1.1969(4) 1.7179(4)
C37A C 1.1635(5) 1.2421(4) 1.8360(4)
H29A H 0.8804 1.2110 1.6993
C34A C 0.9666(5) 1.1116(4) 1.6548(4)
H30A H 0.9009 1.0682 1.5937
C36A C 1.1764(6) 1.1563(4) 1.7722(4)
H31A H 1.2511 1.1436 1.7900
H32A H 1.2296 1.2859 1.8966
H33A H 1.2502 1.0269 1.6628
H34A H 1.1754 0.9177 1.5795
H35A H 1.2781 0.9011 1.7370
H36A H 1.2216 0.9786 1.7883
C41A C 1.2046(5) 0.8220(5) 1.8505(4)
C45A C 1.0057(5) 0.7193(4) 1.7234(4)
H37A H 1.2725 0.8740 1.8723
C42A C 1.1994(5) 0.7675(5) 1.9131(4)
H38A H 1.2646 0.7837 1.9767
C43A C 1.0976(5) 0.6895(4) 1.8806(4)
C44A C 1.0001(5) 0.6668(4) 1.7847(4)
H39A H 0.9310 0.6158 1.7624
H40A H 0.9409 0.7025 1.6594
O7A_2 O 0.8703(3) 0.5846(3) 2.0400(3)
O8A_2 O 0.9296(4) 0.3578(3) 1.8549(3)
O11_2 O 0.8080(4) 0.3624(3) 1.9777(3)
O12_2 O 1.0035(4) 0.4285(3) 2.0773(3)
loop_
_geom_bond_atom_site_label_1
_geom_bond_atom_site_label_2
_geom_bond_site_symmetry_1
_geom_bond_site_symmetry_2
Ni1 O1 1_555 1_555
O1 C1 1_555 1_555
N1 Ni1 1_555 1_555
O2 Ni1 1_555 1_555
O3 Ni1 1_555 1_555
O4 Ni1 1_555 1_555
C1 C4 1_555 1_555
C2 N1 1_555 1_555
C3 N1 1_555 1_555
C4 C7 1_555 1_555
H1 C2 1_555 1_555
C5 C2 1_555 1_555
C6 C3 1_555 1_555
H2 C3 1_555 1_555
C7 H5 1_555 1_555
C8 C4 1_555 1_555
H3 C5 1_555 1_555
C9 C5 1_555 1_555
H4 C6 1_555 1_555
C10 C7 1_555 1_555
C11 C8 1_555 1_555
H6 C8 1_555 1_555
C12 C9 1_555 1_555
H7 C10 1_555 1_555
C13 C10 1_555 1_555
H8 C11 1_555 1_555
H9 C12 1_555 1_555
C14 C12 1_555 1_555
O5 C13 1_555 1_555
H10 C14 1_555 1_555
H11 C14 1_555 1_555
H12 C14 1_555 1_555
C15 O5 1_555 1_555
H13 C15 1_555 1_555
H14 C15 1_555 1_555
C16 C15 1_555 1_555
O6 C16 1_555 1_555
H15 C16 1_555 1_555
H16 C16 1_555 1_555
C17 O6 1_555 1_555
C18 C17 1_555 1_555
C19 C17 1_555 1_555
H17 C18 1_555 1_555
C20 C18 1_555 1_555
C21 C19 1_555 1_555
H18 C19 1_555 1_555
H19 C20 1_555 1_555
C22 C20 1_555 1_555
H20 C21 1_555 1_555
C23 C22 1_555 1_555
Ni2 O7 1_555 1_555
N2 Ni2 1_555 1_555
C24 N2 1_555 1_555
H21 C24 1_555 1_555
C25 C24 1_555 1_555
H22 C25 1_555 1_555
C26 N2 1_555 1_555
H23 C26 1_555 1_555
C27 C26 1_555 1_555
H24 C27 1_555 1_555
C28 C25 1_555 1_555
C29 C28 1_555 1_555
H25 C29 1_555 1_555
C30 C29 1_555 1_555
H26 C30 1_555 1_555
H27 C30 1_555 1_555
H28 C30 1_555 1_555
O8 C31 1_555 1_555
O9 C35 1_555 1_555
O10 C39 1_555 1_555
O11 C46 1_555 1_555
O12 Ni2 1_555 1_555
C31 C32 1_555 1_555
C32 C33 1_555 1_555
C33 H29 1_555 1_555
C34 C33 1_555 1_555
H30 C34 1_555 1_555
C35 C34 1_555 1_555
C36 C35 1_555 1_555
H31 C36 1_555 1_555
C37 C32 1_555 1_555
H32 C37 1_555 1_555
C38 O9 1_555 1_555
H33 C38 1_555 1_555
H34 C38 1_555 1_555
C39 C38 1_555 1_555
H35 C39 1_555 1_555
H36 C39 1_555 1_555
C40 O10 1_555 1_555
C41 C40 1_555 1_555
H37 C41 1_555 1_555
C42 C41 1_555 1_555
H38 C42 1_555 1_555
C43 C42 1_555 1_555
C44 C43 1_555 1_555
H39 C44 1_555 1_555
C45 C40 1_555 1_555
H40 C45 1_555 1_555
C46 O12 1_555 1_555
O1A Ni1 1_555 1_555
Ni1A O1 1_555 1_555
O2A C1 1_555 1_555
C12A C12 1_555 1_555
C9A C12A 1_555 1_555
H9A C12A 1_555 1_555
C14A C12A 1_555 1_555
C5A C9A 1_555 1_555
C6A C9A 1_555 1_555
H10A C14A 1_555 1_555
H11A C14A 1_555 1_555
H12A C14A 1_555 1_555
C2A C5A 1_555 1_555
H3A C5A 1_555 1_555
H4A C6A 1_555 1_555
C3A C6A 1_555 1_555
N1A C2A 1_555 1_555
H1A C2A 1_555 1_555
H2A C3A 1_555 1_555
Ni1A_2 N1A 1_555 1_555
O1A_2 Ni1A_2 1_555 1_555
O2A_2 Ni1A_2 1_555 1_555
O1_2 Ni1A_2 1_555 1_555
O3A Ni1A_2 1_555 1_555
O4A Ni1A_2 1_555 1_555
C1A O1A_2 1_555 1_555
Ni1_2 O1A_2 1_555 1_555
O2_2 C1A 1_555 1_555
C4A C1A 1_555 1_555
C7A C4A 1_555 1_555
C8A C4A 1_555 1_555
O3A_2 C23 1_555 1_555
O4_2 C23 1_555 1_555
H5A C7A 1_555 1_555
C10A C7A 1_555 1_555
C11A C8A 1_555 1_555
H6A C8A 1_555 1_555
Ni1A_3 O3A_2 1_555 1_555
Ni1_3 O4_2 1_555 1_555
H7A C10A 1_555 1_555
C13A C10A 1_555 1_555
H8A C11A 1_555 1_555
O5A C13A 1_555 1_555
C15A O5A 1_555 1_555
H13A C15A 1_555 1_555
H14A C15A 1_555 1_555
C16A C15A 1_555 1_555
O6A C16A 1_555 1_555
H15A C16A 1_555 1_555
H16A C16A 1_555 1_555
C17A O6A 1_555 1_555
C18A C17A 1_555 1_555
C19A C17A 1_555 1_555
H17A C18A 1_555 1_555
C20A C18A 1_555 1_555
C21A C19A 1_555 1_555
H18A C19A 1_555 1_555
H19A C20A 1_555 1_555
C22A C20A 1_555 1_555
H20A C21A 1_555 1_555
C23A C22A 1_555 1_555
O3_2 C23A 1_555 1_555
O4A_2 C23A 1_555 1_555
Ni1_4 O3_2 1_555 1_555
Ni1A_4 O4A_2 1_555 1_555
N2A C24A 1_555 1_555
C24A H21A 1_555 1_555
C25A C24A 1_555 1_555
H22A C25A 1_555 1_555
C26A N2A 1_555 1_555
H23A C26A 1_555 1_555
C27A C26A 1_555 1_555
H24A C27A 1_555 1_555
C28A C25A 1_555 1_555
C29A C29 1_555 1_555
H25A C29A 1_555 1_555
C30A C29A 1_555 1_555
H26A C30A 1_555 1_555
H27A C30A 1_555 1_555
H28A C30A 1_555 1_555
Ni2A O7A 1_555 1_555
O7A C31 1_555 1_555
Ni2_2 O8 1_555 1_555
Ni2A_2 O11 1_555 1_555
Ni2A_3 N2A 1_555 1_555
O8_2 Ni2 1_555 1_555
O11A Ni2 1_555 1_555
O12A Ni2 1_555 1_555
Ni2A_4 O8A 1_555 1_555
Ni2_3 O7_2 1_555 1_555
O7_2 C31A 1_555 1_555
C31A O8A 1_555 1_555
O9A C35A 1_555 1_555
C35A C34A 1_555 1_555
C38A O9A 1_555 1_555
O10A C39A 1_555 1_555
C39A C38A 1_555 1_555
C40A O10A 1_555 1_555
O11A_2 C46A 1_555 1_555
C46A O12A_2 1_555 1_555
Ni2_4 O11A_2 1_555 1_555
O12A_2 Ni2A_3 1_555 1_555
C32A C31A 1_555 1_555
C33A C32A 1_555 1_555
C37A C32A 1_555 1_555
H29A C33A 1_555 1_555
C34A C33A 1_555 1_555
H30A C34A 1_555 1_555
C36A C35A 1_555 1_555
H31A C36A 1_555 1_555
H32A C37A 1_555 1_555
H33A C38A 1_555 1_555
H34A C38A 1_555 1_555
H35A C39A 1_555 1_555
H36A C39A 1_555 1_555
C41A C40A 1_555 1_555
C45A C40A 1_555 1_555
H37A C41A 1_555 1_555
C42A C41A 1_555 1_555
H38A C42A 1_555 1_555
C43A C46A 1_555 1_555
C44A C45A 1_555 1_555
H39A C44A 1_555 1_555
H40A C45A 1_555 1_555
O7A_2 Ni2A_3 1_555 1_555
O8A_2 Ni2A_3 1_555 1_555
O11_2 Ni2A_3 1_555 1_555
O12_2 Ni2A_3 1_555 1_555
C6 C9 1_555 1_555
C11 C13 1_555 1_555
C21 C22 1_555 1_555
C27 C28 1_555 1_555
O12 Ni2A_2 1_555 1_555
C36 C37 1_555 1_555
C43 C46 1_555 1_555
C44 C45 1_555 1_555
O1A Ni1A 1_555 1_555
Ni1A O2A 1_555 1_555
C3A N1A 1_555 1_555
O1_2 Ni1_2 1_555 1_555
Ni1_2 O2_2 1_555 1_555
C11A C13A 1_555 1_555
C21A C22A 1_555 1_555
C27A C28A 1_555 1_555
C28A C29A 1_555 1_555
Ni2A_2 O12A 1_555 1_555
Ni2_4 O12A_2 1_555 1_555
Ni2_4 O12_2 1_555 1_555
C37A C36A 1_555 1_555
C42A C43A 1_555 1_555
C43A C44A 1_555 1_555

#END
