
#######################################################################
#
#                 Cambridge Crystallographic Data Centre
#                                CCDC 
#
#######################################################################
#
# If this CIF has been generated from an entry in the Cambridge 
# Structural Database, then it will include bibliographic, chemical, 
# crystal, experimental, refinement or atomic coordinate data resulting 
# from the CCDC's data processing and validation procedures.
#
#######################################################################

data_FIGWUN
_symmetry_cell_setting           triclinic
_symmetry_space_group_name_H-M   'P -1'
_symmetry_Int_Tables_number      2
_space_group_name_Hall           '-P 1'
loop_
_symmetry_equiv_pos_site_id
_symmetry_equiv_pos_as_xyz
1 x,y,z
2 -x,-y,-z
_cell_length_a                   6.355(6)
_cell_length_b                   11.531(9)
_cell_length_c                   5.548(5)
_cell_angle_alpha                104.07
_cell_angle_beta                 109.06
_cell_angle_gamma                81.85
_cell_volume                     371.874
loop_
_atom_site_label
_atom_site_type_symbol
_atom_site_fract_x
_atom_site_fract_y
_atom_site_fract_z
U1 U 0.0000 0.0000 0.0000
O1 O -0.1243(21) 0.2132(8) 0.0283(23)
O2 O 0.0920(20) 0.1725(8) 0.3899(22)
O3 O -0.3500(21) 0.2655(9) 0.4672(24)
O4 O -0.3801(20) 0.4201(10) 0.7893(25)
O5 O -0.2178(21) -0.0193(11) 0.0943(26)
O6 O 0.2810(21) -0.0516(9) 0.3884(23)
C1 C -0.0156(25) 0.3778(10) 0.3859(27)
C2 C -0.1387(26) 0.4339(11) 0.5538(28)
C3 C 0.1232(26) 0.4448(11) 0.3302(28)
C4 C -0.0178(25) 0.2482(10) 0.2650(28)
C5 C -0.3006(26) 0.3648(11) 0.6000(29)
O1A O 0.1243(21) -0.2132(8) -0.0283(23)
O2A O -0.0920(20) -0.1725(8) -0.3899(22)
O5A O 0.2178(21) 0.0193(11) -0.0943(26)
O6A O -0.2810(21) 0.0516(9) -0.3884(23)
C3A C -0.1232(26) 0.5552(11) 0.6698(28)
C2A C 0.1387(26) 0.5661(11) 0.4462(28)
C1A C 0.0156(25) 0.6222(10) 0.6141(27)
C5A C 0.3006(26) 0.6352(11) 0.4000(29)
C4A C 0.0178(25) 0.7518(10) 0.7350(28)
O3A O 0.3500(21) 0.7345(9) 0.5328(24)
O4A O 0.3801(20) 0.5799(10) 0.2107(25)
O1A_2 O 0.1243(21) 0.7868(8) 0.9717(23)
O2A_2 O -0.0920(20) 0.8275(8) 0.6101(22)
U1_2 U 0.0000 1.0000 1.0000
O7 O 0.6187(22) 0.7191(12) 0.1079(26)
loop_
_geom_bond_atom_site_label_1
_geom_bond_atom_site_label_2
_geom_bond_site_symmetry_1
_geom_bond_site_symmetry_2
U1 O1 1_555 1_555
O1 C4 1_555 1_555
O2 U1 1_555 1_555
O3 C5 1_555 1_555
O4 C5 1_555 1_555
O5 U1 1_555 1_555
O6 U1 1_555 1_555
C1 C2 1_555 1_555
C2 C5 1_555 1_555
C3 C1 1_555 1_555
C4 O2 1_555 1_555
O1A U1 1_555 1_555
O2A U1 1_555 1_555
O5A U1 1_555 1_555
O6A U1 1_555 1_555
C3A C2 1_555 1_555
C2A C3 1_555 1_555
C1A C3A 1_555 1_555
C5A C2A 1_555 1_555
C4A C1A 1_555 1_555
O3A C5A 1_555 1_555
O4A C5A 1_555 1_555
O1A_2 C4A 1_555 1_555
O2A_2 C4A 1_555 1_555
U1_2 O1A_2 1_555 1_555
C1 C4 1_555 1_555
C2A C1A 1_555 1_555
O2A_2 U1_2 1_555 1_555

#END
