
#######################################################################
#
#                 Cambridge Crystallographic Data Centre
#                                CCDC 
#
#######################################################################
#
# If this CIF has been generated from an entry in the Cambridge 
# Structural Database, then it will include bibliographic, chemical, 
# crystal, experimental, refinement or atomic coordinate data resulting 
# from the CCDC's data processing and validation procedures.
#
#######################################################################

data_FIGXUQ
_symmetry_cell_setting           triclinic
_symmetry_space_group_name_H-M   'P -1'
_symmetry_Int_Tables_number      2
_space_group_name_Hall           '-P 1'
loop_
_symmetry_equiv_pos_site_id
_symmetry_equiv_pos_as_xyz
1 x,y,z
2 -x,-y,-z
_cell_length_a                   7.1476(4)
_cell_length_b                   11.2218(6)
_cell_length_c                   15.4597(8)
_cell_angle_alpha                82.665(3)
_cell_angle_beta                 77.383(2)
_cell_angle_gamma                84.547(3)
_cell_volume                     1197.27
loop_
_atom_site_label
_atom_site_type_symbol
_atom_site_fract_x
_atom_site_fract_y
_atom_site_fract_z
Y1 Y 0.51592(4) 0.66326(3) 0.35091(2)
Y2 Y 0.48124(4) 0.77147(3) 0.75631(2)
Cu1 Cu 0.19494(6) 0.81213(4) 1.04293(3)
C1 C 0.3836(5) 0.4919(3) 0.8041(2)
C2 C 0.3141(5) 0.5340(3) 0.8928(2)
C3 C 0.2462(5) 0.4745(3) 0.9768(2)
H1 H 0.2308 0.3910 0.9931
C4 C 0.2059(5) 0.5685(3) 1.0314(2)
C5 C 0.1260(5) 0.5819(3) 1.1261(2)
C6 C 0.5665(4) 1.0532(3) 0.7401(2)
C7 C 0.4555(5) 1.0355(3) 0.8333(2)
C8 C 0.3723(5) 1.1162(3) 0.8954(2)
H2 H 0.3761 1.2013 0.8894
C9 C 0.2833(5) 1.0408(3) 0.9677(2)
C10 C 0.1578(5) 1.0534(3) 1.0569(2)
C11 C 0.5683(5) 0.7651(3) 0.5411(2)
C12 C 0.7604(5) 0.7209(3) 0.5587(2)
C13 C 0.9293(5) 0.6784(3) 0.5035(2)
H3 H 0.9570 0.6812 0.4403
C14 C 1.0456(5) 0.6316(3) 0.5610(2)
C15 C 1.2287(5) 0.5543(3) 0.5454(2)
N1 N 0.3169(4) 0.6539(3) 0.89542(18)
N2 N 0.2515(4) 0.6731(3) 0.98058(18)
N3 N 0.4201(4) 0.9209(3) 0.86610(18)
N4 N 0.3148(4) 0.9258(3) 0.94913(18)
N5 N 0.7748(4) 0.7052(3) 0.64491(19)
N6 N 0.9491(4) 0.6497(3) 0.64448(19)
H4 H 0.9955 0.6275 0.6928
O1 O 0.4565(3) 0.5685(2) 0.74054(15)
O2 O 0.3690(3) 0.3836(2) 0.79358(15)
O3 O 0.0873(3) 0.4939(2) 1.18301(16)
O4 O 0.1035(3) 0.6923(2) 1.14554(15)
O5 O 0.6109(3) 0.9584(2) 0.70079(16)
O6 O 0.6132(3) 1.1561(2) 0.70448(15)
O7 O 0.0986(3) 1.1553(2) 1.08030(16)
O8 O 0.1099(3) 0.9549(2) 1.10504(15)
O9 O 0.4416(3) 0.7942(2) 0.60739(15)
O10 O 0.5404(3) 0.7693(2) 0.46346(16)
O11 O 1.3275(3) 0.5609(2) 0.46818(15)
O12 O 1.2616(3) 0.4836(2) 0.61162(15)
O13 O 0.1626(3) 0.8410(2) 0.75895(16)
H5 H 0.1504 0.8925 0.7142
H6 H 0.0921 0.8374 0.8121
O14 O 0.7235(3) 0.7172(2) 0.83320(16)
H7 H 0.7778 0.6450 0.8339
H8 H 0.7460 0.7750 0.8606
O15 O 0.2266(3) 0.6318(2) 0.30726(16)
H9 H 0.2109 0.6765 0.2599
H10 H 0.1939 0.5587 0.3241
O16 O 0.7972(3) 0.7658(2) 0.29319(15)
H11 H 0.8234 0.8255 0.3179
H12 H 0.8563 0.7427 0.2425
Y1_2 Y 1.51592(4) 0.66326(3) 0.35091(2)
Y1A Y 0.48408(4) 0.33674(3) 0.64909(2)
Y1A_2 Y 0.48408(4) 1.33674(3) 0.64909(2)
Y1A_3 Y 1.48408(4) 0.33674(3) 0.64909(2)
O2A O 0.6310(3) 0.6164(2) 0.20642(15)
O6A O 0.3868(3) 0.8439(2) 0.29552(15)
O11_2 O 0.3275(3) 0.5609(2) 0.46818(15)
O12A O 0.7384(3) 0.5164(2) 0.38838(15)
O17 O 0.2401(4) 0.9776(3) 0.48470(19)
H13 H 0.2769 1.0156 0.4326
H14 H 0.2852 0.9089 0.5058
O18 O 0.9315(4) 0.9551(2) 0.35520(17)
H15 H 0.8672 0.9632 0.4085
H16 H 1.0536 0.9410 0.3382
loop_
_geom_bond_atom_site_label_1
_geom_bond_atom_site_label_2
_geom_bond_site_symmetry_1
_geom_bond_site_symmetry_2
Y1 O10 1_555 1_555
Y2 N1 1_555 1_555
Cu1 N2 1_555 1_555
C1 C2 1_555 1_555
C2 C3 1_555 1_555
C3 H1 1_555 1_555
C4 C3 1_555 1_555
C5 C4 1_555 1_555
C6 C7 1_555 1_555
C7 C8 1_555 1_555
C8 H2 1_555 1_555
C9 C8 1_555 1_555
C10 C9 1_555 1_555
C11 C12 1_555 1_555
C12 C13 1_555 1_555
C13 H3 1_555 1_555
C14 C13 1_555 1_555
C15 C14 1_555 1_555
N1 C2 1_555 1_555
N2 C4 1_555 1_555
N3 Y2 1_555 1_555
N4 Cu1 1_555 1_555
N5 Y2 1_555 1_555
N6 C14 1_555 1_555
H4 N6 1_555 1_555
O1 Y2 1_555 1_555
O2 C1 1_555 1_555
O3 C5 1_555 1_555
O4 Cu1 1_555 1_555
O5 Y2 1_555 1_555
O6 C6 1_555 1_555
O7 C10 1_555 1_555
O8 Cu1 1_555 1_555
O9 Y2 1_555 1_555
O10 C11 1_555 1_555
O11 C15 1_555 1_555
O12 C15 1_555 1_555
O13 Y2 1_555 1_555
H5 O13 1_555 1_555
H6 O13 1_555 1_555
O14 Y2 1_555 1_555
H7 O14 1_555 1_555
H8 O14 1_555 1_555
O15 Y1 1_555 1_555
H9 O15 1_555 1_555
H10 O15 1_555 1_555
O16 Y1 1_555 1_555
H11 O16 1_555 1_555
H12 O16 1_555 1_555
O17 H13 1_555 1_555
H14 O17 1_555 1_555
O18 H15 1_555 1_555
H16 O18 1_555 1_555
Y1_2 O11 1_555 1_555
Y1A O2 1_555 1_555
Y1A_2 O6 1_555 1_555
Y1A_3 O12 1_555 1_555
O2A Y1 1_555 1_555
O6A Y1 1_555 1_555
O11_2 Y1 1_555 1_555
O12A Y1 1_555 1_555
C1 O1 1_555 1_555
C5 O4 1_555 1_555
C6 O5 1_555 1_555
C7 N3 1_555 1_555
C9 N4 1_555 1_555
C10 O8 1_555 1_555
C11 O9 1_555 1_555
C12 N5 1_555 1_555
N1 N2 1_555 1_555
N3 N4 1_555 1_555
N5 N6 1_555 1_555

#END
