
#######################################################################
#
#                 Cambridge Crystallographic Data Centre
#                                CCDC 
#
#######################################################################
#
# If this CIF has been generated from an entry in the Cambridge 
# Structural Database, then it will include bibliographic, chemical, 
# crystal, experimental, refinement or atomic coordinate data resulting 
# from the CCDC's data processing and validation procedures.
#
#######################################################################

data_FIGXIE
_symmetry_cell_setting           triclinic
_symmetry_space_group_name_H-M   'P -1'
_symmetry_Int_Tables_number      2
_space_group_name_Hall           '-P 1'
loop_
_symmetry_equiv_pos_site_id
_symmetry_equiv_pos_as_xyz
1 x,y,z
2 -x,-y,-z
_cell_length_a                   7.1518(3)
_cell_length_b                   11.2144(5)
_cell_length_c                   15.4635(7)
_cell_angle_alpha                82.6950(10)
_cell_angle_beta                 77.369(2)
_cell_angle_gamma                84.6290(10)
_cell_volume                     1197.61
loop_
_atom_site_label
_atom_site_type_symbol
_atom_site_fract_x
_atom_site_fract_y
_atom_site_fract_z
Dy1 Dy 0.51564(2) 0.662135(13) 0.350288(10)
Dy2 Dy 0.47948(2) 0.770669(13) 0.756262(10)
Cu1 Cu 0.19373(6) 0.81215(3) 1.04263(3)
C1 C 0.3826(5) 0.4899(3) 0.8047(2)
C2 C 0.3137(5) 0.5331(3) 0.8933(2)
C3 C 0.2459(5) 0.4745(3) 0.9774(2)
H1 H 0.2308 0.3909 0.9942
C4 C 0.2053(5) 0.5684(3) 1.0313(2)
C5 C 0.1257(5) 0.5823(3) 1.1258(2)
C6 C 0.5665(5) 1.0529(3) 0.7409(2)
C7 C 0.4553(5) 1.0360(3) 0.8334(2)
C8 C 0.3726(5) 1.1155(3) 0.8955(2)
H2 H 0.3759 1.2007 0.8897
C9 C 0.2843(4) 1.0401(3) 0.9678(2)
C10 C 0.1584(5) 1.0533(3) 1.0568(2)
C11 C 0.5676(5) 0.7652(3) 0.5412(2)
C12 C 0.7597(5) 0.7207(3) 0.5591(2)
C13 C 0.9282(5) 0.6785(3) 0.5037(2)
H3 H 0.9560 0.6817 0.4405
C14 C 1.0434(5) 0.6318(3) 0.5610(2)
C15 C 1.2274(4) 0.5544(3) 0.5456(2)
N1 N 0.3158(4) 0.6530(3) 0.89586(19)
N2 N 0.2500(4) 0.6731(3) 0.98006(19)
N3 N 0.4181(4) 0.9201(3) 0.86645(19)
N4 N 0.3129(4) 0.9247(3) 0.94860(19)
N5 N 0.7739(4) 0.7052(3) 0.64437(19)
N6 N 0.9474(4) 0.6494(3) 0.6445(2)
H4 H 0.9934 0.6269 0.6928
O1 O 0.4554(3) 0.5651(2) 0.74135(16)
O2 O 0.3675(3) 0.3811(2) 0.79579(16)
O3 O 0.0875(4) 0.4948(2) 1.18311(17)
O4 O 0.1025(4) 0.6928(2) 1.14508(16)
O5 O 0.6108(4) 0.9581(2) 0.70060(17)
O6 O 0.6143(3) 1.1557(2) 0.70526(16)
O7 O 0.1005(3) 1.1553(2) 1.08060(17)
O8 O 0.1100(3) 0.9546(2) 1.10446(16)
O9 O 0.4407(3) 0.7933(2) 0.60672(16)
O10 O 0.5415(3) 0.7694(2) 0.46296(16)
O11 O 1.3270(3) 0.5606(2) 0.46822(16)
O12 O 1.2602(3) 0.4851(2) 0.61190(16)
O13 O 0.1591(3) 0.8412(2) 0.75863(17)
H5 H 0.1469 0.8927 0.7139
H6 H 0.0886 0.8376 0.8118
O14 O 0.7230(3) 0.7164(2) 0.83370(17)
H7 H 0.7773 0.6442 0.8344
H8 H 0.7456 0.7742 0.8611
O15 O 0.2242(3) 0.6323(2) 0.30674(17)
H9 H 0.2086 0.6770 0.2594
H10 H 0.1916 0.5592 0.3236
O16 O 0.7978(3) 0.7673(2) 0.29266(17)
H11 H 0.8240 0.8270 0.3174
H12 H 0.8569 0.7441 0.2420
Dy1_2 Dy 1.51564(2) 0.662135(13) 0.350288(10)
Dy1A Dy 0.48436(2) 0.337865(13) 0.649712(10)
Dy1A_2 Dy 0.48436(2) 1.337865(13) 0.649712(10)
Dy1A_3 Dy 1.48436(2) 0.337865(13) 0.649712(10)
O2A O 0.6325(3) 0.6189(2) 0.20421(16)
O6A O 0.3857(3) 0.8443(2) 0.29474(16)
O11_2 O 0.3270(3) 0.5606(2) 0.46822(16)
O12A O 0.7398(3) 0.5149(2) 0.38810(16)
O17 O 0.2412(4) 0.9778(3) 0.4842(2)
H13 H 0.2780 1.0158 0.4322
H14 H 0.2862 0.9091 0.5053
O18 O 0.9327(4) 0.9549(3) 0.35522(18)
H15 H 0.8684 0.9631 0.4086
H16 H 1.0548 0.9409 0.3382
loop_
_geom_bond_atom_site_label_1
_geom_bond_atom_site_label_2
_geom_bond_site_symmetry_1
_geom_bond_site_symmetry_2
Dy1 O10 1_555 1_555
Dy2 N1 1_555 1_555
Cu1 N2 1_555 1_555
C1 C2 1_555 1_555
C2 C3 1_555 1_555
C3 H1 1_555 1_555
C4 C3 1_555 1_555
C5 C4 1_555 1_555
C6 C7 1_555 1_555
C7 C8 1_555 1_555
C8 H2 1_555 1_555
C9 C8 1_555 1_555
C10 C9 1_555 1_555
C11 C12 1_555 1_555
C12 C13 1_555 1_555
C13 H3 1_555 1_555
C14 C13 1_555 1_555
C15 C14 1_555 1_555
N1 C2 1_555 1_555
N2 C4 1_555 1_555
N3 Dy2 1_555 1_555
N4 Cu1 1_555 1_555
N5 Dy2 1_555 1_555
N6 C14 1_555 1_555
H4 N6 1_555 1_555
O1 Dy2 1_555 1_555
O2 C1 1_555 1_555
O3 C5 1_555 1_555
O4 Cu1 1_555 1_555
O5 Dy2 1_555 1_555
O6 C6 1_555 1_555
O7 C10 1_555 1_555
O8 Cu1 1_555 1_555
O9 Dy2 1_555 1_555
O10 C11 1_555 1_555
O11 C15 1_555 1_555
O12 C15 1_555 1_555
O13 Dy2 1_555 1_555
H5 O13 1_555 1_555
H6 O13 1_555 1_555
O14 Dy2 1_555 1_555
H7 O14 1_555 1_555
H8 O14 1_555 1_555
O15 Dy1 1_555 1_555
H9 O15 1_555 1_555
H10 O15 1_555 1_555
O16 Dy1 1_555 1_555
H11 O16 1_555 1_555
H12 O16 1_555 1_555
O17 H13 1_555 1_555
H14 O17 1_555 1_555
O18 H15 1_555 1_555
H16 O18 1_555 1_555
Dy1_2 O11 1_555 1_555
Dy1A O2 1_555 1_555
Dy1A_2 O6 1_555 1_555
Dy1A_3 O12 1_555 1_555
O2A Dy1 1_555 1_555
O6A Dy1 1_555 1_555
O11_2 Dy1 1_555 1_555
O12A Dy1 1_555 1_555
C1 O1 1_555 1_555
C5 O4 1_555 1_555
C6 O5 1_555 1_555
C7 N3 1_555 1_555
C9 N4 1_555 1_555
C10 O8 1_555 1_555
C11 O9 1_555 1_555
C12 N5 1_555 1_555
N1 N2 1_555 1_555
N3 N4 1_555 1_555
N5 N6 1_555 1_555

#END
