
#######################################################################
#
#                 Cambridge Crystallographic Data Centre
#                                CCDC 
#
#######################################################################
#
# If this CIF has been generated from an entry in the Cambridge 
# Structural Database, then it will include bibliographic, chemical, 
# crystal, experimental, refinement or atomic coordinate data resulting 
# from the CCDC's data processing and validation procedures.
#
#######################################################################

data_FIGXEA
_symmetry_cell_setting           triclinic
_symmetry_space_group_name_H-M   'P -1'
_symmetry_Int_Tables_number      2
_space_group_name_Hall           '-P 1'
loop_
_symmetry_equiv_pos_site_id
_symmetry_equiv_pos_as_xyz
1 x,y,z
2 -x,-y,-z
_cell_length_a                   7.1693(3)
_cell_length_b                   11.2220(5)
_cell_length_c                   15.5135(7)
_cell_angle_alpha                82.772(2)
_cell_angle_beta                 77.2510(10)
_cell_angle_gamma                84.525(2)
_cell_volume                     1204.72
loop_
_atom_site_label
_atom_site_type_symbol
_atom_site_fract_x
_atom_site_fract_y
_atom_site_fract_z
Tb1 Tb 0.516055(15) 0.661783(10) 0.349435(7)
Tb2 Tb 0.476488(16) 0.769456(10) 0.756222(7)
Cu1 Cu 0.19190(4) 0.81193(3) 1.042588(19)
C1 C 0.3815(4) 0.4872(2) 0.80630(16)
C2 C 0.3117(4) 0.5319(2) 0.89417(16)
C3 C 0.2447(4) 0.4736(2) 0.97844(16)
H1 H 0.2302 0.3902 0.9955
C4 C 0.2042(3) 0.5684(2) 1.03170(16)
C5 C 0.1250(3) 0.5827(2) 1.12637(16)
C6 C 0.5646(3) 1.0525(2) 0.74140(16)
C7 C 0.4540(3) 1.0350(2) 0.83393(16)
C8 C 0.3725(3) 1.1146(2) 0.89669(16)
H2 H 0.3774 1.1996 0.8914
C9 C 0.2832(3) 1.0393(2) 0.96844(16)
C10 C 0.1591(3) 1.0526(2) 1.05757(17)
C11 C 0.5672(3) 0.7642(2) 0.54083(16)
C12 C 0.7584(3) 0.7194(2) 0.55885(16)
C13 C 0.9276(3) 0.6787(2) 0.50334(16)
H3 H 0.9560 0.6832 0.4403
C14 C 1.0433(3) 0.6307(2) 0.56042(16)
C15 C 1.2260(3) 0.5546(2) 0.54544(17)
N1 N 0.3124(3) 0.65207(19) 0.89627(14)
N2 N 0.2469(3) 0.67224(19) 0.98046(14)
N3 N 0.4152(3) 0.9201(2) 0.86650(14)
N4 N 0.3110(3) 0.92453(19) 0.94904(14)
N5 N 0.7714(3) 0.7027(2) 0.64427(14)
N6 N 0.9457(3) 0.6475(2) 0.64416(14)
H4 H 0.9913 0.6250 0.6923
O1 O 0.4534(3) 0.56208(16) 0.74193(12)
O2 O 0.3670(3) 0.37874(16) 0.79817(12)
O3 O 0.0874(3) 0.49542(16) 1.18342(12)
O4 O 0.1014(3) 0.69353(16) 1.14486(12)
O5 O 0.6077(3) 0.95783(16) 0.70139(12)
O6 O 0.6129(2) 1.15520(16) 0.70677(12)
O7 O 0.1031(3) 1.15480(16) 1.08166(12)
O8 O 0.1097(3) 0.95439(16) 1.10507(12)
O9 O 0.4395(2) 0.79214(17) 0.60641(12)
O10 O 0.5421(3) 0.76923(17) 0.46283(12)
O11 O 1.3258(3) 0.56026(17) 0.46779(12)
O12 O 1.2590(3) 0.48495(16) 0.61121(12)
O13 O 0.1559(3) 0.84166(18) 0.75787(12)
H5 H 0.1436 0.8931 0.7131
H6 H 0.0854 0.8380 0.8111
O14 O 0.7206(3) 0.71505(17) 0.83360(12)
H7 H 0.7749 0.6429 0.8343
H8 H 0.7431 0.7729 0.8610
O15 O 0.2232(3) 0.63370(17) 0.30582(12)
H9 H 0.2075 0.6784 0.2585
H10 H 0.1905 0.5606 0.3227
O16 O 0.7989(3) 0.76817(17) 0.29239(12)
H11 H 0.8251 0.8279 0.3171
H12 H 0.8580 0.7450 0.2417
Tb1_2 Tb 1.516055(15) 0.661783(10) 0.349435(7)
Tb1A Tb 0.483945(15) 0.338217(10) 0.650565(7)
Tb1A_2 Tb 0.483945(15) 1.338217(10) 0.650565(7)
Tb1A_3 Tb 1.483945(15) 0.338217(10) 0.650565(7)
O2A O 0.6330(3) 0.62126(16) 0.20183(12)
O6A O 0.3871(2) 0.84480(16) 0.29323(12)
O11_2 O 0.3258(3) 0.56026(17) 0.46779(12)
O12A O 0.7410(3) 0.51505(16) 0.38879(12)
O17 O 0.2423(3) 0.9776(2) 0.48289(15)
H13 H 0.2792 1.0156 0.4308
H14 H 0.2874 0.9089 0.5040
O18 O 0.9333(3) 0.95541(19) 0.35648(14)
H15 H 0.8691 0.9635 0.4098
H16 H 1.0555 0.9413 0.3395
loop_
_geom_bond_atom_site_label_1
_geom_bond_atom_site_label_2
_geom_bond_site_symmetry_1
_geom_bond_site_symmetry_2
Tb1 O10 1_555 1_555
Tb2 N1 1_555 1_555
Cu1 N2 1_555 1_555
C1 C2 1_555 1_555
C2 C3 1_555 1_555
C3 H1 1_555 1_555
C4 C3 1_555 1_555
C5 C4 1_555 1_555
C6 C7 1_555 1_555
C7 C8 1_555 1_555
C8 H2 1_555 1_555
C9 C8 1_555 1_555
C10 C9 1_555 1_555
C11 C12 1_555 1_555
C12 C13 1_555 1_555
C13 H3 1_555 1_555
C14 C13 1_555 1_555
C15 C14 1_555 1_555
N1 C2 1_555 1_555
N2 C4 1_555 1_555
N3 Tb2 1_555 1_555
N4 Cu1 1_555 1_555
N5 Tb2 1_555 1_555
N6 C14 1_555 1_555
H4 N6 1_555 1_555
O1 Tb2 1_555 1_555
O2 C1 1_555 1_555
O3 C5 1_555 1_555
O4 Cu1 1_555 1_555
O5 Tb2 1_555 1_555
O6 C6 1_555 1_555
O7 C10 1_555 1_555
O8 Cu1 1_555 1_555
O9 Tb2 1_555 1_555
O10 C11 1_555 1_555
O11 C15 1_555 1_555
O12 C15 1_555 1_555
O13 Tb2 1_555 1_555
H5 O13 1_555 1_555
H6 O13 1_555 1_555
O14 Tb2 1_555 1_555
H7 O14 1_555 1_555
H8 O14 1_555 1_555
O15 Tb1 1_555 1_555
H9 O15 1_555 1_555
H10 O15 1_555 1_555
O16 Tb1 1_555 1_555
H11 O16 1_555 1_555
H12 O16 1_555 1_555
O17 H13 1_555 1_555
H14 O17 1_555 1_555
O18 H15 1_555 1_555
H16 O18 1_555 1_555
Tb1_2 O11 1_555 1_555
Tb1A O2 1_555 1_555
Tb1A_2 O6 1_555 1_555
Tb1A_3 O12 1_555 1_555
O2A Tb1 1_555 1_555
O6A Tb1 1_555 1_555
O11_2 Tb1 1_555 1_555
O12A Tb1 1_555 1_555
C1 O1 1_555 1_555
C5 O4 1_555 1_555
C6 O5 1_555 1_555
C7 N3 1_555 1_555
C9 N4 1_555 1_555
C10 O8 1_555 1_555
C11 O9 1_555 1_555
C12 N5 1_555 1_555
N1 N2 1_555 1_555
N3 N4 1_555 1_555
N5 N6 1_555 1_555

#END
