
#######################################################################
#
#                 Cambridge Crystallographic Data Centre
#                                CCDC 
#
#######################################################################
#
# If this CIF has been generated from an entry in the Cambridge 
# Structural Database, then it will include bibliographic, chemical, 
# crystal, experimental, refinement or atomic coordinate data resulting 
# from the CCDC's data processing and validation procedures.
#
#######################################################################

data_FIGXOK
_symmetry_cell_setting           triclinic
_symmetry_space_group_name_H-M   'P -1'
_symmetry_Int_Tables_number      2
_space_group_name_Hall           '-P 1'
loop_
_symmetry_equiv_pos_site_id
_symmetry_equiv_pos_as_xyz
1 x,y,z
2 -x,-y,-z
_cell_length_a                   7.1245(3)
_cell_length_b                   11.2018(5)
_cell_length_c                   15.4103(7)
_cell_angle_alpha                82.608(2)
_cell_angle_beta                 77.4360(10)
_cell_angle_gamma                84.553(2)
_cell_volume                     1187.58
loop_
_atom_site_label
_atom_site_type_symbol
_atom_site_fract_x
_atom_site_fract_y
_atom_site_fract_z
Er1 Er 0.514491(13) 0.663461(8) 0.351548(6)
Er2 Er 0.483425(13) 0.771923(8) 0.756482(6)
Cu1 Cu 0.19621(4) 0.81254(2) 1.042772(18)
C1 C 0.3859(3) 0.4927(2) 0.80292(15)
C2 C 0.3164(3) 0.5342(2) 0.89204(15)
C3 C 0.2470(3) 0.4752(2) 0.97632(15)
H1 H 0.2303 0.3917 0.9929
C4 C 0.2082(3) 0.5685(2) 1.03035(15)
C5 C 0.1273(3) 0.5815(2) 1.12583(15)
C6 C 0.5689(3) 1.0533(2) 0.73950(15)
C7 C 0.4573(3) 1.03644(19) 0.83235(15)
C8 C 0.3722(3) 1.1168(2) 0.89438(15)
H2 H 0.3743 1.2021 0.8882
C9 C 0.2841(3) 1.04094(19) 0.96704(15)
C10 C 0.1570(3) 1.0541(2) 1.05644(15)
C11 C 0.5672(3) 0.76577(19) 0.54187(15)
C12 C 0.7603(3) 0.72153(19) 0.55944(15)
C13 C 0.9291(3) 0.6784(2) 0.50362(15)
H3 H 0.9560 0.6807 0.4403
C14 C 1.0470(3) 0.6321(2) 0.56140(15)
C15 C 1.2297(3) 0.5544(2) 0.54600(15)
N1 N 0.3202(3) 0.65454(17) 0.89494(13)
N2 N 0.2542(3) 0.67333(17) 0.97991(12)
N3 N 0.4218(3) 0.92103(17) 0.86557(13)
N4 N 0.3162(3) 0.92575(17) 0.94838(13)
N5 N 0.7761(3) 0.70739(17) 0.64507(13)
N6 N 0.9508(3) 0.65164(18) 0.64510(13)
H4 H 0.9976 0.6302 0.6936
O1 O 0.4597(2) 0.56982(14) 0.73990(11)
O2 O 0.3712(2) 0.38469(14) 0.79227(11)
O3 O 0.0874(2) 0.49433(14) 1.18252(11)
O4 O 0.1039(2) 0.69295(14) 1.14518(11)
O5 O 0.6129(2) 0.95809(14) 0.70014(11)
O6 O 0.6159(2) 1.15598(14) 0.70325(11)
O7 O 0.0977(2) 1.15649(14) 1.07923(11)
O8 O 0.1101(2) 0.95553(14) 1.10461(11)
O9 O 0.4406(2) 0.79462(15) 0.60804(11)
O10 O 0.5386(2) 0.76931(15) 0.46386(11)
O11 O 1.3290(2) 0.55978(15) 0.46820(11)
O12 O 1.2622(2) 0.48371(15) 0.61228(11)
O13 O 0.1644(2) 0.84012(16) 0.75956(11)
H5 H 0.1522 0.8916 0.7148
H6 H 0.0939 0.8365 0.8128
O14 O 0.7254(2) 0.71756(15) 0.83313(11)
H7 H 0.7797 0.6454 0.8338
H8 H 0.7480 0.7754 0.8605
O15 O 0.2264(2) 0.63164(15) 0.30772(11)
H9 H 0.2107 0.6763 0.2604
H10 H 0.1937 0.5586 0.3246
O16 O 0.7953(2) 0.76548(15) 0.29366(11)
H11 H 0.8215 0.8252 0.3184
H12 H 0.8544 0.7424 0.2430
Er1_2 Er 1.514491(13) 0.663461(8) 0.351548(6)
Er1A Er 0.485509(13) 0.336539(8) 0.648452(6)
Er1A_2 Er 0.485509(13) 1.336539(8) 0.648452(6)
Er1A_3 Er 1.485509(13) 0.336539(8) 0.648452(6)
O2A O 0.6288(2) 0.61531(14) 0.20773(11)
O6A O 0.3841(2) 0.84402(14) 0.29675(11)
O11_2 O 0.3290(2) 0.55978(15) 0.46820(11)
O12A O 0.7378(2) 0.51629(15) 0.38772(11)
O17 O 0.2394(3) 0.97791(19) 0.48538(13)
H13 H 0.2762 1.0160 0.4333
H14 H 0.2845 0.9093 0.5065
O18 O 0.9304(3) 0.95494(17) 0.35378(12)
H15 H 0.8661 0.9631 0.4071
H16 H 1.0525 0.9409 0.3368
loop_
_geom_bond_atom_site_label_1
_geom_bond_atom_site_label_2
_geom_bond_site_symmetry_1
_geom_bond_site_symmetry_2
Er1 O10 1_555 1_555
Er2 N1 1_555 1_555
Cu1 N2 1_555 1_555
C1 C2 1_555 1_555
C2 C3 1_555 1_555
C3 H1 1_555 1_555
C4 C3 1_555 1_555
C5 C4 1_555 1_555
C6 C7 1_555 1_555
C7 C8 1_555 1_555
C8 H2 1_555 1_555
C9 C8 1_555 1_555
C10 C9 1_555 1_555
C11 C12 1_555 1_555
C12 C13 1_555 1_555
C13 H3 1_555 1_555
C14 C13 1_555 1_555
C15 C14 1_555 1_555
N1 C2 1_555 1_555
N2 C4 1_555 1_555
N3 Er2 1_555 1_555
N4 Cu1 1_555 1_555
N5 Er2 1_555 1_555
N6 C14 1_555 1_555
H4 N6 1_555 1_555
O1 Er2 1_555 1_555
O2 C1 1_555 1_555
O3 C5 1_555 1_555
O4 Cu1 1_555 1_555
O5 Er2 1_555 1_555
O6 C6 1_555 1_555
O7 C10 1_555 1_555
O8 Cu1 1_555 1_555
O9 Er2 1_555 1_555
O10 C11 1_555 1_555
O11 C15 1_555 1_555
O12 C15 1_555 1_555
O13 Er2 1_555 1_555
H5 O13 1_555 1_555
H6 O13 1_555 1_555
O14 Er2 1_555 1_555
H7 O14 1_555 1_555
H8 O14 1_555 1_555
O15 Er1 1_555 1_555
H9 O15 1_555 1_555
H10 O15 1_555 1_555
O16 Er1 1_555 1_555
H11 O16 1_555 1_555
H12 O16 1_555 1_555
O17 H13 1_555 1_555
H14 O17 1_555 1_555
O18 H15 1_555 1_555
H16 O18 1_555 1_555
Er1_2 O11 1_555 1_555
Er1A O2 1_555 1_555
Er1A_2 O6 1_555 1_555
Er1A_3 O12 1_555 1_555
O2A Er1 1_555 1_555
O6A Er1 1_555 1_555
O11_2 Er1 1_555 1_555
O12A Er1 1_555 1_555
C1 O1 1_555 1_555
C5 O4 1_555 1_555
C6 O5 1_555 1_555
C7 N3 1_555 1_555
C9 N4 1_555 1_555
C10 O8 1_555 1_555
C11 O9 1_555 1_555
C12 N5 1_555 1_555
N1 N2 1_555 1_555
N3 N4 1_555 1_555
N5 N6 1_555 1_555

#END
