
#######################################################################
#
#                 Cambridge Crystallographic Data Centre
#                                CCDC 
#
#######################################################################
#
# If this CIF has been generated from an entry in the Cambridge 
# Structural Database, then it will include bibliographic, chemical, 
# crystal, experimental, refinement or atomic coordinate data resulting 
# from the CCDC's data processing and validation procedures.
#
#######################################################################

data_FIGYAX
_symmetry_cell_setting           triclinic
_symmetry_space_group_name_H-M   'P -1'
_symmetry_Int_Tables_number      2
_space_group_name_Hall           '-P 1'
loop_
_symmetry_equiv_pos_site_id
_symmetry_equiv_pos_as_xyz
1 x,y,z
2 -x,-y,-z
_cell_length_a                   6.9914(5)
_cell_length_b                   17.1874(10)
_cell_length_c                   19.9307(13)
_cell_angle_alpha                66.266(3)
_cell_angle_beta                 84.632(4)
_cell_angle_gamma                81.115(4)
_cell_volume                     2164.78
loop_
_atom_site_label
_atom_site_type_symbol
_atom_site_fract_x
_atom_site_fract_y
_atom_site_fract_z
Eu1 Eu 0.75835(8) 0.10226(3) 0.29890(2)
Eu2 Eu 0.18735(8) 0.44625(3) 0.11088(2)
Eu3 Eu 0.41476(8) 0.21301(3) 0.09135(2)
Eu4 Eu 0.40617(8) 0.27175(3) -0.39791(3)
Cu1 Cu 0.75335(19) 0.15589(7) 0.50785(6)
Cu2 Cu 0.15790(19) 0.54582(7) 0.29130(6)
Cu3 Cu 0.55330(19) 0.12638(7) -0.09579(6)
C1 C 0.8439(14) -0.0032(5) 0.6185(5)
C2 C 0.7894(14) -0.0197(5) 0.5556(5)
C3 C 0.7640(15) -0.0902(6) 0.5401(5)
H1 H 0.7789 -0.1492 0.5718
C4 C 0.7125(15) -0.0530(6) 0.4682(5)
C5 C 0.6500(14) -0.0866(6) 0.4168(5)
C6 C 0.7671(14) 0.3288(6) 0.4622(5)
C7 C 0.7943(14) 0.3109(5) 0.3956(5)
C8 C 0.8347(13) 0.3555(5) 0.3209(4)
H2 H 0.8527 0.4142 0.2959
C9 C 0.8423(15) 0.2940(5) 0.2917(5)
C10 C 0.8892(15) 0.2976(6) 0.2170(5)
C11 C 0.2959(15) 0.4085(6) 0.4157(5)
C12 C 0.2975(15) 0.3748(6) 0.3589(5)
C13 C 0.3571(15) 0.2964(6) 0.3552(5)
H3 H 0.4065 0.2443 0.3932
C14 C 0.3284(14) 0.3113(5) 0.2834(5)
C15 C 0.3738(14) 0.2540(6) 0.2447(5)
C16 C 0.0982(14) 0.7234(5) 0.2227(5)
C17 C 0.1342(14) 0.6926(6) 0.1627(5)
C18 C 0.1671(13) 0.7258(5) 0.0869(5)
H4 H 0.1636 0.7843 0.0544
C19 C 0.2061(14) 0.6540(5) 0.0695(5)
C20 C 0.2729(15) 0.6446(6) 0.0017(5)
C21 C 0.7657(14) 0.0585(6) 0.1752(5)
C22 C 0.7400(15) 0.0390(6) 0.1115(5)
C23 C 0.8189(14) -0.0269(5) 0.0892(5)
H5 H 0.9007 -0.0779 0.1157
C24 C 0.7504(14) -0.0006(5) 0.0200(5)
C25 C 0.7715(14) -0.0339(6) -0.0390(5)
C26 C 0.2156(14) 0.4008(5) -0.0371(5)
C27 C 0.2883(14) 0.3484(6) -0.0804(5)
C28 C 0.2819(14) 0.3680(6) -0.1555(5)
H6 H 0.2339 0.4206 -0.1933
C29 C 0.3638(14) 0.2911(6) -0.1610(5)
C30 C 0.4095(14) 0.2604(5) -0.2206(5)
N1 N 0.7632(11) 0.0511(4) 0.4942(4)
N2 N 0.7177(12) 0.0326(4) 0.4391(4)
N3 N 0.7794(12) 0.2288(5) 0.4075(4)
N4 N 0.8055(11) 0.2164(4) 0.3453(4)
N5 N 0.2403(12) 0.4327(5) 0.2927(4)
N6 N 0.2593(12) 0.3949(4) 0.2448(4)
N7 N 0.1574(12) 0.6045(5) 0.1876(4)
N8 N 0.2008(12) 0.5813(4) 0.1304(4)
N9 N 0.6306(12) 0.1013(4) 0.0574(4)
N10 N 0.6392(12) 0.0754(5) 0.0017(4)
N11 N 0.3672(11) 0.2661(4) -0.0441(4)
N12 N 0.4149(12) 0.2320(4) -0.0942(4)
O1 O 0.8274(10) 0.0758(4) 0.6084(3)
O2 O 0.9120(10) -0.0629(4) 0.6748(3)
O3 O 0.6381(10) -0.0365(4) 0.3506(3)
O4 O 0.6003(10) -0.1620(4) 0.4435(3)
O5 O 0.7188(10) 0.2659(4) 0.5216(3)
O6 O 0.7802(12) 0.4014(4) 0.4601(4)
O7 O 0.8816(10) 0.2284(4) 0.2087(3)
O8 O 0.9336(10) 0.3649(4) 0.1681(3)
O9 O 0.2385(10) 0.4897(4) 0.3962(3)
O10 O 0.3417(10) 0.3599(4) 0.4796(3)
O11 O 0.3319(10) 0.2819(4) 0.1767(3)
O12 O 0.4502(10) 0.1782(4) 0.2818(3)
O13 O 0.1212(10) 0.6641(4) 0.2880(3)
O14 O 0.0480(11) 0.7997(4) 0.2097(3)
O15 O 0.2738(10) 0.5684(4) 0.0021(3)
O16 O 0.3342(9) 0.7047(4) -0.0517(3)
O17 O 0.6660(10) 0.1278(4) 0.1760(3)
O18 O 0.8778(11) 0.0133(4) 0.2253(3)
O19 O 0.6998(10) 0.0216(4) -0.1015(3)
O20 O 0.8571(11) -0.1051(4) -0.0303(3)
O21 O 0.2695(10) 0.3727(4) 0.0288(3)
O22 O 0.1089(9) 0.4693(4) -0.0671(3)
O23 O 0.4956(10) 0.1827(4) -0.1999(3)
O24 O 0.3713(10) 0.3047(4) -0.2860(3)
O25 O -0.1558(10) 0.5333(4) 0.3248(3)
H7 H -0.1553 0.4959 0.3683
H8 H -0.2021 0.5840 0.3174
O26 O 0.5286(10) 0.4416(4) 0.1146(3)
H9 H 0.5580 0.4923 0.0944
H10 H 0.5862 0.4120 0.0915
O27 O 0.3084(10) 0.0766(4) 0.1817(3)
H11 H 0.2375 0.0690 0.2161
H12 H 0.2697 0.0463 0.1579
O28 O 0.0724(10) 0.2278(4) 0.0826(3)
H13 H 0.0155 0.2250 0.1230
H14 H 0.0519 0.1862 0.0726
O29 O 0.6602(11) 0.1781(4) -0.3238(4)
H15 H 0.6446 0.1652 -0.2785
H16 H 0.7386 0.1415 -0.3341
O30 O 0.2069(11) 0.1720(4) -0.3120(3)
H17 H 0.2148 0.1204 -0.3066
H18 H 0.1424 0.1870 -0.2813
O31 O 0.0857(11) 0.3423(4) -0.4072(4)
H19 H 0.0311 0.3796 -0.4447
H20 H 0.0106 0.3391 -0.3709
O32 O 0.5433(11) 0.4003(4) -0.4226(4)
H21 H 0.6108 0.4149 -0.4623
H22 H 0.5991 0.4259 -0.4029
Eu1A Eu 1.24165(8) -0.10226(3) 0.70110(2)
Eu2_2 Eu 1.18735(8) 0.44625(3) 0.11088(2)
Eu2A Eu -0.18735(8) 0.55375(3) -0.11088(2)
Eu3A Eu 0.58524(8) 0.78699(3) -0.09135(2)
Eu4_2 Eu 0.40617(8) 0.27175(3) 0.60209(3)
Eu4A Eu 0.59383(8) -0.27175(3) 0.39791(3)
Cu1A Cu 0.24665(19) -0.15589(7) 0.49215(6)
O2A O 1.0880(10) 0.0629(4) 0.3252(3)
O4A O 0.3997(10) 0.1620(4) -0.4435(3)
O4A_2 O 0.3997(10) 0.1620(4) 0.5565(3)
O5_2 O 0.7188(10) 0.2659(4) -0.4784(3)
O8_2 O -0.0664(10) 0.3649(4) 0.1681(3)
O10_2 O 0.3417(10) 0.3599(4) -0.5204(3)
O16A O 0.6658(9) 0.2953(4) 0.0517(3)
O22A O -0.1089(9) 0.5307(4) 0.0671(3)
loop_
_geom_bond_atom_site_label_1
_geom_bond_atom_site_label_2
_geom_bond_site_symmetry_1
_geom_bond_site_symmetry_2
Eu1 N2 1_555 1_555
Eu2 N6 1_555 1_555
Eu3 N9 1_555 1_555
Eu4 O24 1_555 1_555
Cu1 N1 1_555 1_555
Cu2 N5 1_555 1_555
Cu3 N10 1_555 1_555
C1 C2 1_555 1_555
C2 C3 1_555 1_555
C3 H1 1_555 1_555
C4 C3 1_555 1_555
C5 C4 1_555 1_555
C6 C7 1_555 1_555
C7 C8 1_555 1_555
C8 H2 1_555 1_555
C9 C8 1_555 1_555
C10 C9 1_555 1_555
C11 C12 1_555 1_555
C12 C13 1_555 1_555
C13 H3 1_555 1_555
C14 C13 1_555 1_555
C15 C14 1_555 1_555
C16 C17 1_555 1_555
C17 C18 1_555 1_555
C18 H4 1_555 1_555
C19 C18 1_555 1_555
C20 C19 1_555 1_555
C21 C22 1_555 1_555
C22 C23 1_555 1_555
C23 H5 1_555 1_555
C24 C23 1_555 1_555
C25 C24 1_555 1_555
C26 C27 1_555 1_555
C27 C28 1_555 1_555
C28 H6 1_555 1_555
C29 C28 1_555 1_555
C30 C29 1_555 1_555
N1 C2 1_555 1_555
N2 C4 1_555 1_555
N3 Cu1 1_555 1_555
N4 Eu1 1_555 1_555
N5 C12 1_555 1_555
N6 C14 1_555 1_555
N7 Cu2 1_555 1_555
N8 Eu2 1_555 1_555
N9 C22 1_555 1_555
N10 C24 1_555 1_555
N11 Eu3 1_555 1_555
N12 Cu3 1_555 1_555
O1 Cu1 1_555 1_555
O2 C1 1_555 1_555
O3 Eu1 1_555 1_555
O4 C5 1_555 1_555
O5 Cu1 1_555 1_555
O6 C6 1_555 1_555
O7 Eu1 1_555 1_555
O8 C10 1_555 1_555
O9 Cu2 1_555 1_555
O10 C11 1_555 1_555
O11 Eu2 1_555 1_555
O12 Eu1 1_555 1_555
O13 Cu2 1_555 1_555
O14 C16 1_555 1_555
O15 Eu2 1_555 1_555
O16 C20 1_555 1_555
O17 Eu1 1_555 1_555
O18 Eu1 1_555 1_555
O19 Cu3 1_555 1_555
O20 C25 1_555 1_555
O21 Eu2 1_555 1_555
O22 C26 1_555 1_555
O23 Cu3 1_555 1_555
O24 C30 1_555 1_555
O25 Cu2 1_555 1_555
H7 O25 1_555 1_555
H8 O25 1_555 1_555
O26 Eu2 1_555 1_555
H9 O26 1_555 1_555
H10 O26 1_555 1_555
O27 Eu3 1_555 1_555
H11 O27 1_555 1_555
H12 O27 1_555 1_555
O28 Eu3 1_555 1_555
H13 O28 1_555 1_555
H14 O28 1_555 1_555
O29 Eu4 1_555 1_555
H15 O29 1_555 1_555
H16 O29 1_555 1_555
O30 Eu4 1_555 1_555
H17 O30 1_555 1_555
H18 O30 1_555 1_555
O31 Eu4 1_555 1_555
H19 O31 1_555 1_555
H20 O31 1_555 1_555
O32 Eu4 1_555 1_555
H21 O32 1_555 1_555
H22 O32 1_555 1_555
Eu1A O2 1_555 1_555
Eu2_2 O8 1_555 1_555
Eu2A O22 1_555 1_555
Eu3A O16 1_555 1_555
Eu4_2 O5 1_555 1_555
Eu4A O4 1_555 1_555
Cu1A O4 1_555 1_555
O2A Eu1 1_555 1_555
O4A Eu4 1_555 1_555
O4A_2 Cu1 1_555 1_555
O5_2 Eu4 1_555 1_555
O8_2 Eu2 1_555 1_555
O10_2 Eu4 1_555 1_555
O16A Eu3 1_555 1_555
O22A Eu2 1_555 1_555
Eu3 O11 1_555 1_555
Eu3 O17 1_555 1_555
Eu3 O21 1_555 1_555
C1 O1 1_555 1_555
C5 O3 1_555 1_555
C6 O5 1_555 1_555
C7 N3 1_555 1_555
C9 N4 1_555 1_555
C10 O7 1_555 1_555
C11 O9 1_555 1_555
C15 O11 1_555 1_555
C15 O12 1_555 1_555
C16 O13 1_555 1_555
C17 N7 1_555 1_555
C19 N8 1_555 1_555
C20 O15 1_555 1_555
C21 O17 1_555 1_555
C21 O18 1_555 1_555
C25 O19 1_555 1_555
C26 O21 1_555 1_555
C27 N11 1_555 1_555
C29 N12 1_555 1_555
C30 O23 1_555 1_555
N1 N2 1_555 1_555
N3 N4 1_555 1_555
N5 N6 1_555 1_555
N7 N8 1_555 1_555
N9 N10 1_555 1_555
N11 N12 1_555 1_555
O10 Eu4_2 1_555 1_555
Eu4_2 O4A_2 1_555 1_555

#END
