
#######################################################################
#
#                 Cambridge Crystallographic Data Centre
#                                CCDC 
#
#######################################################################
#
# If this CIF has been generated from an entry in the Cambridge 
# Structural Database, then it will include bibliographic, chemical, 
# crystal, experimental, refinement or atomic coordinate data resulting 
# from the CCDC's data processing and validation procedures.
#
#######################################################################

data_FIGZUS
_symmetry_cell_setting           triclinic
_symmetry_space_group_name_H-M   'P -1'
_symmetry_Int_Tables_number      2
_space_group_name_Hall           '-P 1'
loop_
_symmetry_equiv_pos_site_id
_symmetry_equiv_pos_as_xyz
1 x,y,z
2 -x,-y,-z
_cell_length_a                   10.1624(2)
_cell_length_b                   21.5001(2)
_cell_length_c                   27.9291(4)
_cell_angle_alpha                104.614(11)
_cell_angle_beta                 99.824(9)
_cell_angle_gamma                101.566(8)
_cell_volume                     5625.28
loop_
_atom_site_label
_atom_site_type_symbol
_atom_site_fract_x
_atom_site_fract_y
_atom_site_fract_z
La1 La 0.89887(6) 0.14072(3) 0.50116(2)
La2 La 0.89221(7) 0.34093(3) 0.55990(2)
La3 La 0.47919(7) 0.34655(3) 0.49336(2)
La4 La 0.24536(6) 0.14461(3) 0.44767(2)
Cu1 Cu 1.9068(3) 0.51310(16) 0.97012(8)
Cu2 Cu 0.7697(3) 0.37228(18) 1.07133(8)
Cu3 Cu 0.6771(2) 0.29658(10) 0.97735(6)
Cu4 Cu 0.3099(3) 0.26802(11) 1.00077(7)
Cu5 Cu 0.7954(2) 0.20654(12) 1.01897(7)
Cu6 Cu 0.6720(2) 0.09265(11) 0.92228(7)
Cu7 Cu 0.7906(2) 0.04213(11) 0.98309(7)
Na1 Na 0.6770(6) 0.0321(3) 0.5647(2)
I1 I 2.11035(11) 0.47668(5) 0.93756(4)
I2 I 0.94738(10) 0.33137(5) 1.02469(4)
I3 I 0.53149(10) 0.37638(5) 1.02369(4)
I4 I 0.53140(9) 0.17472(4) 0.97222(3)
I5 I 0.94291(11) 0.13901(5) 0.96378(4)
I6 I 0.57007(11) -0.03173(5) 0.92268(4)
C1 C 1.7447(16) 0.5119(9) 0.8721(5)
H1 H 1.8317 0.5273 0.8669
C2 C 1.6136(17) 0.4764(8) 0.9236(5)
H2 H 1.6053 0.4671 0.9539
C3 C 1.6326(17) 0.5034(8) 0.8340(6)
H3 H 1.6432 0.5129 0.8040
C4 C 1.4958(17) 0.4660(8) 0.8860(6)
H4 H 1.4103 0.4488 0.8917
C5 C 1.4996(16) 0.4795(7) 0.8417(5)
C6 C 1.3726(15) 0.4712(6) 0.8010(5)
C7 C 1.3733(16) 0.4623(7) 0.7502(6)
H5 H 1.4556 0.4621 0.7399
C8 C 1.2475(16) 0.4719(7) 0.8149(5)
H6 H 1.2443 0.4766 0.8487
C9 C 1.2547(15) 0.4537(7) 0.7150(5)
H7 H 1.2574 0.4469 0.6810
C10 C 1.1269(16) 0.4657(7) 0.7797(5)
H8 H 1.0458 0.4689 0.7902
C11 C 1.1292(14) 0.4548(6) 0.7291(5)
C12 C 0.9995(16) 0.4456(7) 0.6901(6)
C13 C 0.5382(16) 0.2859(8) 0.8735(5)
H9 H 0.4616 0.2684 0.8846
C14 C 0.7646(18) 0.3304(8) 0.8891(6)
H10 H 0.8513 0.3448 0.9113
C15 C 0.5166(16) 0.2908(8) 0.8250(5)
H11 H 0.4281 0.2766 0.8041
C16 C 0.7569(15) 0.3386(8) 0.8416(5)
H12 H 0.8357 0.3581 0.8327
C17 C 0.6297(15) 0.3174(7) 0.8071(5)
C18 C 0.6123(16) 0.3221(7) 0.7546(5)
C19 C 0.4871(15) 0.3253(8) 0.7267(6)
H13 H 0.4119 0.3238 0.7416
C20 C 0.7213(15) 0.3223(8) 0.7306(5)
H14 H 0.8052 0.3190 0.7478
C21 C 0.4706(15) 0.3306(7) 0.6775(5)
H15 H 0.3860 0.3331 0.6603
C22 C 0.7073(13) 0.3274(7) 0.6807(5)
H16 H 0.7818 0.3277 0.6654
C23 C 0.5817(14) 0.3320(6) 0.6542(5)
C24 C 0.5640(13) 0.3383(6) 0.6025(4)
C25 C 1.1995(18) 0.3074(7) 0.9147(5)
H17 H 1.2173 0.3485 0.9390
C26 C 1.1923(16) 0.1964(7) 0.8950(6)
H18 H 1.2035 0.1594 0.9051
C27 C 1.1475(17) 0.3016(7) 0.8654(5)
H19 H 1.1329 0.3389 0.8565
C28 C 1.1402(15) 0.1883(7) 0.8439(5)
H20 H 1.1217 0.1467 0.8202
C29 C 1.1157(13) 0.2415(6) 0.8283(5)
C30 C 1.0552(13) 0.2333(6) 0.7739(5)
C31 C 1.0941(13) 0.2826(6) 0.7505(5)
H21 H 1.1578 0.3222 0.7699
C32 C 0.9593(15) 0.1748(6) 0.7441(5)
H22 H 0.9322 0.1412 0.7585
C33 C 1.0416(13) 0.2742(6) 0.7004(5)
H23 H 1.0690 0.3080 0.6863
C34 C 0.9037(13) 0.1659(6) 0.6934(4)
H24 H 0.8373 0.1270 0.6742
C35 C 0.9473(12) 0.2153(6) 0.6705(4)
C36 C 0.8926(12) 0.2020(6) 0.6146(4)
C37 C 1.6811(16) 0.1433(8) 0.8326(5)
H25 H 1.7674 0.1695 0.8519
C38 C 1.4917(17) 0.0578(10) 0.8210(7)
H26 H 1.4458 0.0236 0.8316
C39 C 1.6299(15) 0.1543(7) 0.7884(5)
H27 H 1.6824 0.1869 0.7780
C40 C 1.4317(18) 0.0672(10) 0.7760(6)
H28 H 1.3457 0.0399 0.7573
C41 C 1.4989(16) 0.1176(8) 0.7580(5)
C42 C 1.4333(14) 0.1319(7) 0.7129(5)
C43 C 1.2917(15) 0.1232(8) 0.6992(6)
H29 H 1.2374 0.1086 0.7198
C44 C 1.5117(14) 0.1520(7) 0.6806(5)
H30 H 1.6069 0.1579 0.6889
C45 C 1.2281(14) 0.1355(7) 0.6555(5)
H31 H 1.1332 0.1309 0.6479
C46 C 1.4510(13) 0.1631(7) 0.6364(4)
H32 H 1.5046 0.1763 0.6151
C47 C 1.3064(13) 0.1544(6) 0.6240(5)
C48 C 1.2402(14) 0.1603(6) 0.5724(5)
C49 C -0.2105(16) -0.0055(8) 0.0720(6)
H33 H -0.3042 -0.0227 0.0569
C50 C 0.0075(16) 0.0461(8) 0.0686(6)
H34 H 0.0675 0.0653 0.0516
C51 C -0.1630(15) -0.0126(8) 0.1186(5)
H35 H -0.2239 -0.0337 0.1344
C52 C 0.0606(15) 0.0397(7) 0.1156(5)
H36 H 0.1552 0.0546 0.1295
C53 C -0.0242(16) 0.0116(7) 0.1421(5)
C54 C 0.0348(13) 0.0068(6) 0.1929(5)
C55 C -0.0385(17) 0.0170(8) 0.2313(6)
H37 H -0.1266 0.0235 0.2239
C56 C 0.1655(15) -0.0037(7) 0.2049(5)
H38 H 0.2164 -0.0097 0.1801
C57 C 0.0193(16) 0.0174(8) 0.2801(5)
H39 H -0.0308 0.0241 0.3051
C58 C 0.2202(15) -0.0052(7) 0.2533(5)
H40 H 0.3050 -0.0152 0.2603
C59 C 0.1486(15) 0.0082(6) 0.2921(5)
C60 C 0.2115(14) 0.0091(6) 0.3453(4)
C61 C 0.2850(17) 0.3068(8) 0.1041(6)
H41 H 0.2695 0.3448 0.0965
C62 C 0.3202(16) 0.2040(8) 0.0781(6)
H42 H 0.3305 0.1691 0.0528
C63 C 0.2919(15) 0.3040(7) 0.1529(5)
H43 H 0.2815 0.3401 0.1772
C64 C 0.3276(16) 0.1978(7) 0.1277(5)
H44 H 0.3417 0.1589 0.1341
C65 C 0.3142(13) 0.2483(6) 0.1670(5)
C66 C 0.3286(14) 0.2430(6) 0.2199(5)
C67 C 0.3162(16) 0.2951(7) 0.2598(6)
H45 H 0.3021 0.3339 0.2533
C68 C 0.3482(17) 0.1862(7) 0.2306(5)
H46 H 0.3546 0.1509 0.2046
C69 C 0.3246(17) 0.2896(7) 0.3072(6)
H47 H 0.3157 0.3245 0.3329
C70 C 0.3587(16) 0.1802(7) 0.2796(5)
H48 H 0.3740 0.1417 0.2864
C71 C 0.3462(12) 0.2323(6) 0.3181(4)
C72 C 0.3506(14) 0.2249(8) 0.3708(5)
C73 C 0.9259(16) 0.1948(10) 0.1164(6)
H49 H 0.9994 0.1942 0.1007
C74 C 0.7073(16) 0.1971(9) 0.1139(6)
H50 H 0.6237 0.1999 0.0961
C75 C 0.9465(16) 0.1909(10) 0.1669(5)
H51 H 1.0324 0.1895 0.1839
C76 C 0.7152(15) 0.1912(9) 0.1616(6)
H52 H 0.6371 0.1884 0.1749
C77 C 0.8380(14) 0.1892(6) 0.1905(5)
C78 C 0.8530(14) 0.1835(6) 0.2432(5)
C79 C 0.9776(16) 0.1820(10) 0.2711(6)
H53 H 1.0541 0.1845 0.2569
C80 C 0.7431(16) 0.1816(10) 0.2674(6)
H54 H 0.6584 0.1842 0.2503
C81 C 0.7577(15) 0.1760(8) 0.3171(5)
H55 H 0.6826 0.1743 0.3322
C82 C 0.9900(16) 0.1769(9) 0.3196(6)
H56 H 1.0758 0.1760 0.3370
C83 C 0.8833(15) 0.1730(8) 0.3438(5)
C84 C 0.8975(13) 0.1645(6) 0.3962(4)
C85 C 0.8981(18) 0.3699(8) 0.1741(6)
H57 H 0.9775 0.3704 0.1617
C86 C 0.6702(16) 0.3671(8) 0.1632(6)
H58 H 0.5870 0.3668 0.1431
C87 C 0.9074(16) 0.3698(8) 0.2231(5)
H59 H 0.9922 0.3715 0.2430
C88 C 0.6711(16) 0.3654(8) 0.2120(6)
H60 H 0.5897 0.3631 0.2232
C89 C 0.7903(14) 0.3671(6) 0.2446(5)
C90 C 0.7950(14) 0.3641(7) 0.2976(5)
C91 C 0.9105(15) 0.3593(10) 0.3285(6)
H61 H 0.9898 0.3586 0.3162
C92 C 0.6818(19) 0.3699(13) 0.3199(7)
H62 H 0.6044 0.3772 0.3013
C93 C 0.9131(16) 0.3553(9) 0.3771(5)
H63 H 0.9935 0.3520 0.3968
C94 C 0.682(2) 0.3650(13) 0.3676(7)
H64 H 0.6041 0.3677 0.3806
C95 C 0.7980(13) 0.3560(7) 0.3969(5)
C96 C 0.8037(15) 0.3511(7) 0.4489(6)
C97 C 0.5968(12) 0.1955(6) 0.4901(4)
C98 C 0.5574(11) 0.1187(6) 0.4758(4)
C99 C 1.1985(13) 0.3663(6) 0.5327(5)
C100 C 1.1534(11) 0.2902(6) 0.5100(4)
C101 C 0.4648(13) 0.4896(6) 0.4724(5)
C102 C 0.9414(11) -0.0104(5) 0.5130(4)
N1 N 1.7380(15) 0.4996(7) 0.9166(4)
N2 N 0.6612(12) 0.3044(5) 0.9060(4)
N3 N 1.2266(12) 0.2555(6) 0.9299(4)
N4 N 1.6141(14) 0.0966(7) 0.8499(5)
N5 N -0.1302(13) 0.0248(6) 0.0465(5)
N6 N 0.2993(13) 0.2576(6) 0.0668(4)
N7 N 0.8125(11) 0.1990(6) 0.0913(4)
N8 N 0.7815(14) 0.3691(7) 0.1418(5)
O1 O 0.9843(11) 0.4026(5) 0.6477(3)
O2 O 0.9160(15) 0.4784(7) 0.7009(5)
O3 O 0.4498(9) 0.3435(5) 0.5808(3)
O4 O 0.6626(9) 0.3396(4) 0.5789(3)
O5 O 0.9237(10) 0.2498(5) 0.5960(3)
O6 O 0.8290(9) 0.1448(4) 0.5868(3)
O7 O 1.1200(10) 0.1656(5) 0.5660(3)
O8 O 1.3141(10) 0.1581(5) 0.5402(3)
O9 O 0.1618(11) 0.0377(5) 0.3803(3)
O10 O 0.3083(10) -0.0185(5) 0.3516(4)
O11 O 0.3645(12) 0.2759(6) 0.4063(4)
O12 O 0.3330(12) 0.1680(6) 0.3754(4)
O13 O 1.0091(9) 0.1555(4) 0.4172(3)
O14 O 0.7995(9) 0.1651(5) 0.4173(3)
O15 O 0.6968(11) 0.3471(5) 0.4669(4)
O16 O 0.9168(11) 0.3509(6) 0.4753(4)
O17 O 0.7253(8) 0.2231(4) 0.5071(3)
O18 O 0.5003(8) 0.2228(4) 0.4847(3)
O19 O 0.6515(9) 0.0905(4) 0.4841(3)
O20 O 0.4333(8) 0.0892(4) 0.4563(4)
O21 O 1.1373(9) 0.3906(4) 0.5657(4)
O22 O 1.0384(8) 0.2603(4) 0.5141(3)
O23 O 1.2878(9) 0.3965(4) 0.5155(4)
O24 O 1.2383(8) 0.2629(4) 0.4893(3)
O25 O 0.4534(10) 0.4314(4) 0.4461(3)
O26 O 0.4223(10) 0.5328(4) 0.4544(3)
O27 O 0.8664(9) 0.0281(4) 0.5228(3)
O28 O 0.9360(8) -0.0640(4) 0.5245(3)
O29 O 0.8003(13) 0.0313(5) 0.4158(4)
H65 H 0.7762 -0.0035 0.4246
H66 H 0.8638 0.0269 0.4000
O30 O 0.8880(16) 0.4593(6) 0.5649(7)
H67 H 0.9697 0.4826 0.5692
H68 H 0.8541 0.4748 0.5897
O31 O 0.4541(12) 0.0464(5) 0.5497(6)
H69 H 0.4391 0.0679 0.5774
H70 H 0.3962 0.0086 0.5380
C101A C 0.5352(13) 0.5104(6) 0.5276(5)
O25A O 0.5466(10) 0.5686(4) 0.5539(3)
O26A O 0.5777(10) 0.4672(4) 0.5456(3)
C102A C 1.0586(11) 0.0104(5) 0.4870(4)
O27A O 1.1336(9) -0.0281(4) 0.4772(3)
O28A O 1.0640(8) 0.0640(4) 0.4755(3)
La1A La 0.10113(6) -0.14072(3) 0.49884(2)
La2A La 0.10779(7) -0.34093(3) 0.44010(2)
La3A La 0.52081(7) -0.34655(3) 0.50664(2)
La4A La 0.75464(6) -0.14461(3) 0.55233(2)
Cu1A Cu -0.9068(3) -0.51310(16) 0.02988(8)
Cu2A Cu 0.2303(3) -0.37228(18) -0.07133(8)
Cu3A Cu 0.3229(2) -0.29658(10) 0.02265(6)
Cu4A Cu 0.6901(3) -0.26802(11) -0.00077(7)
Cu5A Cu 0.2046(2) -0.20654(12) -0.01897(7)
Cu6A Cu 0.3280(2) -0.09265(11) 0.07772(7)
Cu7A Cu 0.2094(2) -0.04213(11) 0.01691(7)
Na1A Na 0.3230(6) -0.0321(3) 0.4353(2)
I1A I -1.11035(11) -0.47668(5) 0.06244(4)
I2A I 0.05262(10) -0.33137(5) -0.02469(4)
I3A I 0.46851(10) -0.37638(5) -0.02369(4)
I4A I 0.46860(9) -0.17472(4) 0.02778(3)
I5A I 0.05709(11) -0.13901(5) 0.03622(4)
I6A I 0.42993(11) 0.03173(5) 0.07732(4)
C1A C -0.7447(16) -0.5119(9) 0.1279(5)
H1A H -0.8317 -0.5273 0.1331
C2A C -0.6136(17) -0.4764(8) 0.0764(5)
H2A H -0.6053 -0.4671 0.0461
C3A C -0.6326(17) -0.5034(8) 0.1660(6)
H3A H -0.6432 -0.5129 0.1960
C4A C -0.4958(17) -0.4660(8) 0.1140(6)
H4A H -0.4103 -0.4488 0.1083
C5A C -0.4996(16) -0.4795(7) 0.1583(5)
C6A C -0.3726(15) -0.4712(6) 0.1990(5)
C7A C -0.3733(16) -0.4623(7) 0.2498(6)
H5A H -0.4556 -0.4621 0.2601
C8A C -0.2475(16) -0.4719(7) 0.1851(5)
H6A H -0.2443 -0.4766 0.1513
C9A C -0.2547(15) -0.4537(7) 0.2850(5)
H7A H -0.2574 -0.4469 0.3190
C10A C -0.1269(16) -0.4657(7) 0.2203(5)
H8A H -0.0458 -0.4689 0.2098
C11A C -0.1292(14) -0.4548(6) 0.2709(5)
C12A C 0.0005(16) -0.4456(7) 0.3099(6)
C13A C 0.4618(16) -0.2859(8) 0.1265(5)
H9A H 0.5384 -0.2684 0.1154
C14A C 0.2354(18) -0.3304(8) 0.1109(6)
H10A H 0.1487 -0.3448 0.0887
C15A C 0.4834(16) -0.2908(8) 0.1750(5)
H11A H 0.5719 -0.2766 0.1959
C16A C 0.2431(15) -0.3386(8) 0.1584(5)
H12A H 0.1643 -0.3581 0.1673
C17A C 0.3703(15) -0.3174(7) 0.1929(5)
C18A C 0.3877(16) -0.3221(7) 0.2454(5)
C19A C 0.5129(15) -0.3253(8) 0.2733(6)
H13A H 0.5881 -0.3238 0.2584
C20A C 0.2787(15) -0.3223(8) 0.2694(5)
H14A H 0.1948 -0.3190 0.2522
C21A C 0.5294(15) -0.3306(7) 0.3225(5)
H15A H 0.6140 -0.3331 0.3397
C22A C 0.2927(13) -0.3274(7) 0.3193(5)
H16A H 0.2182 -0.3277 0.3346
C23A C 0.4183(14) -0.3320(6) 0.3458(5)
C24A C 0.4360(13) -0.3383(6) 0.3975(4)
C25A C -0.1995(18) -0.3074(7) 0.0853(5)
H17A H -0.2173 -0.3485 0.0610
C26A C -0.1923(16) -0.1964(7) 0.1050(6)
H18A H -0.2035 -0.1594 0.0949
C27A C -0.1475(17) -0.3016(7) 0.1346(5)
H19A H -0.1329 -0.3389 0.1435
C28A C -0.1402(15) -0.1883(7) 0.1561(5)
H20A H -0.1217 -0.1467 0.1798
C29A C -0.1157(13) -0.2415(6) 0.1717(5)
C30A C -0.0552(13) -0.2333(6) 0.2261(5)
C31A C -0.0941(13) -0.2826(6) 0.2495(5)
H21A H -0.1578 -0.3222 0.2301
C32A C 0.0407(15) -0.1748(6) 0.2559(5)
H22A H 0.0678 -0.1412 0.2415
C33A C -0.0416(13) -0.2742(6) 0.2996(5)
H23A H -0.0690 -0.3080 0.3137
C34A C 0.0963(13) -0.1659(6) 0.3066(4)
H24A H 0.1627 -0.1270 0.3258
C35A C 0.0527(12) -0.2153(6) 0.3295(4)
C36A C 0.1074(12) -0.2020(6) 0.3854(4)
C37A C -0.6811(16) -0.1433(8) 0.1674(5)
H25A H -0.7674 -0.1695 0.1481
C38A C -0.4917(17) -0.0578(10) 0.1790(7)
H26A H -0.4458 -0.0236 0.1684
C39A C -0.6299(15) -0.1543(7) 0.2116(5)
H27A H -0.6824 -0.1869 0.2220
C40A C -0.4317(18) -0.0672(10) 0.2240(6)
H28A H -0.3457 -0.0399 0.2427
C41A C -0.4989(16) -0.1176(8) 0.2420(5)
C42A C -0.4333(14) -0.1319(7) 0.2871(5)
C43A C -0.2917(15) -0.1232(8) 0.3008(6)
H29A H -0.2374 -0.1086 0.2802
C44A C -0.5117(14) -0.1520(7) 0.3194(5)
H30A H -0.6069 -0.1579 0.3111
C45A C -0.2281(14) -0.1355(7) 0.3445(5)
H31A H -0.1332 -0.1309 0.3521
C46A C -0.4510(13) -0.1631(7) 0.3636(4)
H32A H -0.5046 -0.1763 0.3849
C47A C -0.3064(13) -0.1544(6) 0.3760(5)
C48A C -0.2402(14) -0.1603(6) 0.4276(5)
C49A C 1.2105(16) 0.0055(8) 0.9280(6)
H33A H 1.3042 0.0227 0.9431
C50A C 0.9925(16) -0.0461(8) 0.9314(6)
H34A H 0.9325 -0.0653 0.9484
C51A C 1.1630(15) 0.0126(8) 0.8814(5)
H35A H 1.2239 0.0337 0.8656
C52A C 0.9394(15) -0.0397(7) 0.8844(5)
H36A H 0.8448 -0.0546 0.8705
C53A C 1.0242(16) -0.0116(7) 0.8579(5)
C54A C 0.9652(13) -0.0068(6) 0.8071(5)
C55A C 1.0385(17) -0.0170(8) 0.7687(6)
H37A H 1.1266 -0.0235 0.7761
C56A C 0.8345(15) 0.0037(7) 0.7951(5)
H38A H 0.7836 0.0097 0.8199
C57A C 0.9807(16) -0.0174(8) 0.7199(5)
H39A H 1.0308 -0.0241 0.6949
C58A C 0.7798(15) 0.0052(7) 0.7467(5)
H40A H 0.6950 0.0152 0.7397
C59A C 0.8514(15) -0.0082(6) 0.7079(5)
C60A C 0.7885(14) -0.0091(6) 0.6547(4)
C61A C 0.7150(17) -0.3068(8) 0.8959(6)
H41A H 0.7305 -0.3448 0.9035
C62A C 0.6798(16) -0.2040(8) 0.9219(6)
H42A H 0.6695 -0.1691 0.9472
C63A C 0.7081(15) -0.3040(7) 0.8471(5)
H43A H 0.7185 -0.3401 0.8228
C64A C 0.6724(16) -0.1978(7) 0.8723(5)
H44A H 0.6583 -0.1589 0.8659
C65A C 0.6858(13) -0.2483(6) 0.8330(5)
C66A C 0.6714(14) -0.2430(6) 0.7801(5)
C67A C 0.6838(16) -0.2951(7) 0.7402(6)
H45A H 0.6979 -0.3339 0.7467
C68A C 0.6518(17) -0.1862(7) 0.7694(5)
H46A H 0.6454 -0.1509 0.7954
C69A C 0.6754(17) -0.2896(7) 0.6928(6)
H47A H 0.6843 -0.3245 0.6671
C70A C 0.6413(16) -0.1802(7) 0.7204(5)
H48A H 0.6260 -0.1417 0.7136
C71A C 0.6538(12) -0.2323(6) 0.6819(4)
C72A C 0.6494(14) -0.2249(8) 0.6292(5)
C73A C 0.0741(16) -0.1948(10) 0.8836(6)
H49A H 0.0006 -0.1942 0.8993
C74A C 0.2927(16) -0.1971(9) 0.8861(6)
H50A H 0.3763 -0.1999 0.9039
C75A C 0.0535(16) -0.1909(10) 0.8331(5)
H51A H -0.0324 -0.1895 0.8161
C76A C 0.2848(15) -0.1912(9) 0.8384(6)
H52A H 0.3629 -0.1884 0.8251
C77A C 0.1620(14) -0.1892(6) 0.8095(5)
C78A C 0.1470(14) -0.1835(6) 0.7568(5)
C79A C 0.0224(16) -0.1820(10) 0.7289(6)
H53A H -0.0541 -0.1845 0.7431
C80A C 0.2569(16) -0.1816(10) 0.7326(6)
H54A H 0.3416 -0.1842 0.7497
C81A C 0.2423(15) -0.1760(8) 0.6829(5)
H55A H 0.3174 -0.1743 0.6678
C82A C 0.0100(16) -0.1769(9) 0.6804(6)
H56A H -0.0758 -0.1760 0.6630
C83A C 0.1167(15) -0.1730(8) 0.6562(5)
C84A C 0.1025(13) -0.1645(6) 0.6038(4)
C85A C 0.1019(18) -0.3699(8) 0.8259(6)
H57A H 0.0225 -0.3704 0.8383
C86A C 0.3298(16) -0.3671(8) 0.8368(6)
H58A H 0.4130 -0.3668 0.8569
C87A C 0.0926(16) -0.3698(8) 0.7769(5)
H59A H 0.0078 -0.3715 0.7570
C88A C 0.3289(16) -0.3654(8) 0.7880(6)
H60A H 0.4103 -0.3631 0.7768
C89A C 0.2097(14) -0.3671(6) 0.7554(5)
C90A C 0.2050(14) -0.3641(7) 0.7024(5)
C91A C 0.0895(15) -0.3593(10) 0.6715(6)
H61A H 0.0102 -0.3586 0.6838
C92A C 0.3182(19) -0.3699(13) 0.6801(7)
H62A H 0.3956 -0.3772 0.6987
C93A C 0.0869(16) -0.3553(9) 0.6229(5)
H63A H 0.0065 -0.3520 0.6032
C94A C 0.318(2) -0.3650(13) 0.6324(7)
H64A H 0.3959 -0.3677 0.6194
C95A C 0.2020(13) -0.3560(7) 0.6031(5)
C96A C 0.1963(15) -0.3511(7) 0.5511(6)
C97A C 0.4032(12) -0.1955(6) 0.5099(4)
C98A C 0.4426(11) -0.1187(6) 0.5242(4)
C99A C -0.1985(13) -0.3663(6) 0.4673(5)
C100A C -0.1534(11) -0.2902(6) 0.4900(4)
N1A N -0.7380(15) -0.4996(7) 0.0834(4)
N2A N 0.3388(12) -0.3044(5) 0.0940(4)
N3A N -0.2266(12) -0.2555(6) 0.0701(4)
N4A N -0.6141(14) -0.0966(7) 0.1501(5)
N5A N 1.1302(13) -0.0248(6) 0.9535(5)
N6A N 0.7007(13) -0.2576(6) 0.9332(4)
N7A N 0.1875(11) -0.1990(6) 0.9087(4)
N8A N 0.2185(14) -0.3691(7) 0.8582(5)
O1A O 0.0157(11) -0.4026(5) 0.3523(3)
O2A O 0.0840(15) -0.4784(7) 0.2991(5)
O3A O 0.5502(9) -0.3435(5) 0.4192(3)
O4A O 0.3374(9) -0.3396(4) 0.4211(3)
O5A O 0.0763(10) -0.2498(5) 0.4040(3)
O6A O 0.1710(9) -0.1448(4) 0.4132(3)
O7A O -0.1200(10) -0.1656(5) 0.4340(3)
O8A O -0.3141(10) -0.1581(5) 0.4598(3)
O9A O 0.8382(11) -0.0377(5) 0.6197(3)
O10A O 0.6917(10) 0.0185(5) 0.6484(4)
O11A O 0.6355(12) -0.2759(6) 0.5937(4)
O12A O 0.6670(12) -0.1680(6) 0.6246(4)
O13A O -0.0091(9) -0.1555(4) 0.5828(3)
O14A O 0.2005(9) -0.1651(5) 0.5827(3)
O15A O 0.3032(11) -0.3471(5) 0.5331(4)
O16A O 0.0832(11) -0.3509(6) 0.5247(4)
O17A O 0.2747(8) -0.2231(4) 0.4929(3)
O18A O 0.4997(8) -0.2228(4) 0.5153(3)
O19A O 0.3485(9) -0.0905(4) 0.5159(3)
O20A O 0.5667(8) -0.0892(4) 0.5437(4)
O21A O -0.1373(9) -0.3906(4) 0.4343(4)
O22A O -0.0384(8) -0.2603(4) 0.4859(3)
O23A O -0.2878(9) -0.3965(4) 0.4845(4)
O24A O -0.2383(8) -0.2629(4) 0.5107(3)
O29A O 0.1997(13) -0.0313(5) 0.5842(4)
H65A H 0.2238 0.0035 0.5754
H66A H 0.1362 -0.0269 0.6000
O30A O 0.1120(16) -0.4593(6) 0.4351(7)
H67A H 0.0303 -0.4826 0.4308
H68A H 0.1459 -0.4748 0.4103
O31A O 0.5459(12) -0.0464(5) 0.4503(6)
H69A H 0.5609 -0.0679 0.4226
H70A H 0.6038 -0.0086 0.4620
La1A_2 La 1.10113(6) -0.14072(3) 0.49884(2)
La3_2 La 1.47919(7) 0.34655(3) 0.49336(2)
La3A_2 La -0.47919(7) -0.34655(3) 0.50664(2)
La3A_3 La 0.52081(7) 0.65345(3) 0.50664(2)
La4_2 La 1.24536(6) 0.14461(3) 0.44767(2)
La4A_2 La -0.24536(6) -0.14461(3) 0.55233(2)
Cu1_2 Cu -1.0932(3) -0.48690(16) -0.02988(8)
Cu1_3 Cu -0.0932(3) -0.48690(16) -0.02988(8)
Cu1A_2 Cu 1.0932(3) 0.48690(16) 1.02988(8)
Cu1A_3 Cu 2.0932(3) 0.48690(16) 1.02988(8)
Cu2_2 Cu -1.2303(3) -0.62772(18) 0.07133(8)
Cu2_3 Cu 0.7697(3) 0.37228(18) 0.07133(8)
Cu2A_2 Cu 0.2303(3) -0.37228(18) 0.92867(8)
Cu2A_3 Cu 2.2303(3) 0.62772(18) 0.92867(8)
Cu4_2 Cu 0.3099(3) 0.26802(11) 0.00077(7)
Cu4_3 Cu 1.3099(3) 0.26802(11) 1.00077(7)
Cu4A_2 Cu -0.3099(3) -0.26802(11) -0.00077(7)
Cu4A_3 Cu 0.6901(3) -0.26802(11) 0.99923(7)
Cu5_2 Cu 0.7954(2) 0.20654(12) 0.01897(7)
Cu5A_2 Cu 0.2046(2) -0.20654(12) 0.98103(7)
Cu6_2 Cu 1.6720(2) 0.09265(11) 0.92228(7)
Cu6A_2 Cu -0.6720(2) -0.09265(11) 0.07772(7)
Cu7_2 Cu -0.2094(2) 0.04213(11) -0.01691(7)
Cu7A_2 Cu 1.2094(2) -0.04213(11) 1.01691(7)
Na1A_2 Na 1.3230(6) -0.0321(3) 0.4353(2)
I1_2 I -0.88965(11) -0.52332(5) -0.06244(4)
I1_3 I 0.11035(11) -0.52332(5) -0.06244(4)
I1A_2 I 0.88965(11) 0.52332(5) 1.06244(4)
I1A_3 I 1.88965(11) 0.52332(5) 1.06244(4)
I2_2 I -1.05262(10) -0.66863(5) 0.02469(4)
I2A_2 I 2.05262(10) 0.66863(5) 0.97531(4)
N3_2 N 0.2266(12) 0.2555(6) 0.9299(4)
N3A_2 N 0.7734(12) -0.2555(6) 0.0701(4)
N4_2 N 0.6141(14) 0.0966(7) 0.8499(5)
N4A_2 N 0.3859(14) -0.0966(7) 0.1501(5)
N5_2 N 0.8698(13) 0.0248(6) 1.0465(5)
N5A_2 N 0.1302(13) -0.0248(6) -0.0465(5)
N6_2 N 0.2993(13) 0.2576(6) 1.0668(4)
N6A_2 N 0.7007(13) -0.2576(6) -0.0668(4)
N7_2 N 0.8125(11) 0.1990(6) 1.0913(4)
N7A_2 N 0.1875(11) -0.1990(6) -0.0913(4)
N8_2 N 0.7815(14) 0.3691(7) 1.1418(5)
N8A_2 N 0.2185(14) -0.3691(7) -0.1418(5)
O8_2 O 0.3141(10) 0.1581(5) 0.5402(3)
O8A_2 O 0.6859(10) -0.1581(5) 0.4598(3)
O13_2 O 0.0091(9) 0.1555(4) 0.4172(3)
O13A_2 O 0.9909(9) -0.1555(4) 0.5828(3)
O23_2 O 0.2878(9) 0.3965(4) 0.5155(4)
O23A_2 O 0.7122(9) -0.3965(4) 0.4845(4)
O24_2 O 0.2383(8) 0.2629(4) 0.4893(3)
O24A_2 O 0.7617(8) -0.2629(4) 0.5107(3)
O25A_2 O 0.5466(10) -0.4314(4) 0.5539(3)
O26_2 O 0.4223(10) -0.4672(4) 0.4544(3)
O27A_2 O 0.1336(9) -0.0281(4) 0.4772(3)
O28_2 O -0.0640(8) -0.0640(4) 0.5245(3)
O28A_2 O 0.0640(8) 0.0640(4) 0.4755(3)
O32 O 0.272(2) 0.4514(8) 0.2632(6)
H71 H 0.2402 0.4313 0.2316
H72 H 0.2160 0.4729 0.2743
O33 O 0.787(5) 0.531(2) 0.6331(12)
H73 H 0.8069 0.5403 0.6653
H74 H 0.8176 0.5666 0.6255
O34 O 0.500(2) 0.4935(12) 0.3528(7)
H75 H 0.5186 0.5309 0.3472
H76 H 0.5023 0.4643 0.3262
O35 O 0.844(2) 0.4957(9) 0.4801(10)
H77 H 0.7795 0.4948 0.4562
H78 H 0.8469 0.5256 0.5071
O36 O 0.5785(14) 0.0395(8) 0.3490(5)
H79 H 0.5303 0.0168 0.3638
H80 H 0.6267 0.0199 0.3313
loop_
_geom_bond_atom_site_label_1
_geom_bond_atom_site_label_2
_geom_bond_site_symmetry_1
_geom_bond_site_symmetry_2
La1 O5 1_555 1_555
La2 O1 1_555 1_555
La3 O3 1_555 1_555
La4 O9 1_555 1_555
Cu1 I1 1_555 1_555
Cu2 I2 1_555 1_555
Cu3 I2 1_555 1_555
Cu4 I3 1_555 1_555
Cu5 I2 1_555 1_555
Cu6 I4 1_555 1_555
Cu7 I5 1_555 1_555
Na1 O6 1_555 1_555
I1 Cu1A_3 1_555 1_555
I2 Cu1A_2 1_555 1_555
I3 Cu2 1_555 1_555
I4 Cu3 1_555 1_555
I5 Cu5 1_555 1_555
I6 Cu6 1_555 1_555
C1 H1 1_555 1_555
C2 H2 1_555 1_555
C3 C1 1_555 1_555
H3 C3 1_555 1_555
C4 C2 1_555 1_555
H4 C4 1_555 1_555
C5 C3 1_555 1_555
C6 C5 1_555 1_555
C7 C6 1_555 1_555
H5 C7 1_555 1_555
C8 C6 1_555 1_555
H6 C8 1_555 1_555
C9 C7 1_555 1_555
H7 C9 1_555 1_555
C10 C8 1_555 1_555
H8 C10 1_555 1_555
C11 C9 1_555 1_555
C12 C11 1_555 1_555
C13 H9 1_555 1_555
C14 H10 1_555 1_555
C15 C13 1_555 1_555
H11 C15 1_555 1_555
C16 C14 1_555 1_555
H12 C16 1_555 1_555
C17 C15 1_555 1_555
C18 C17 1_555 1_555
C19 C18 1_555 1_555
H13 C19 1_555 1_555
C20 C18 1_555 1_555
H14 C20 1_555 1_555
C21 C19 1_555 1_555
H15 C21 1_555 1_555
C22 C20 1_555 1_555
H16 C22 1_555 1_555
C23 C21 1_555 1_555
C24 C23 1_555 1_555
C25 H17 1_555 1_555
C26 H18 1_555 1_555
C27 C25 1_555 1_555
H19 C27 1_555 1_555
C28 C26 1_555 1_555
H20 C28 1_555 1_555
C29 C27 1_555 1_555
C30 C29 1_555 1_555
C31 C30 1_555 1_555
H21 C31 1_555 1_555
C32 C30 1_555 1_555
H22 C32 1_555 1_555
C33 C31 1_555 1_555
H23 C33 1_555 1_555
C34 C32 1_555 1_555
H24 C34 1_555 1_555
C35 C33 1_555 1_555
C36 C35 1_555 1_555
C37 H25 1_555 1_555
C38 H26 1_555 1_555
C39 C37 1_555 1_555
H27 C39 1_555 1_555
C40 C38 1_555 1_555
H28 C40 1_555 1_555
C41 C39 1_555 1_555
C42 C41 1_555 1_555
C43 C42 1_555 1_555
H29 C43 1_555 1_555
C44 C42 1_555 1_555
H30 C44 1_555 1_555
C45 C43 1_555 1_555
H31 C45 1_555 1_555
C46 C44 1_555 1_555
H32 C46 1_555 1_555
C47 C45 1_555 1_555
C48 C47 1_555 1_555
C49 H33 1_555 1_555
C50 H34 1_555 1_555
C51 C49 1_555 1_555
H35 C51 1_555 1_555
C52 C50 1_555 1_555
H36 C52 1_555 1_555
C53 C51 1_555 1_555
C54 C53 1_555 1_555
C55 C54 1_555 1_555
H37 C55 1_555 1_555
C56 C54 1_555 1_555
H38 C56 1_555 1_555
C57 C55 1_555 1_555
H39 C57 1_555 1_555
C58 C56 1_555 1_555
H40 C58 1_555 1_555
C59 C57 1_555 1_555
C60 C59 1_555 1_555
C61 H41 1_555 1_555
C62 H42 1_555 1_555
C63 C61 1_555 1_555
H43 C63 1_555 1_555
C64 C62 1_555 1_555
H44 C64 1_555 1_555
C65 C63 1_555 1_555
C66 C65 1_555 1_555
C67 C66 1_555 1_555
H45 C67 1_555 1_555
C68 C66 1_555 1_555
H46 C68 1_555 1_555
C69 C67 1_555 1_555
H47 C69 1_555 1_555
C70 C68 1_555 1_555
H48 C70 1_555 1_555
C71 C69 1_555 1_555
C72 C71 1_555 1_555
C73 H49 1_555 1_555
C74 H50 1_555 1_555
C75 C73 1_555 1_555
H51 C75 1_555 1_555
C76 C74 1_555 1_555
H52 C76 1_555 1_555
C77 C75 1_555 1_555
C78 C77 1_555 1_555
C79 C78 1_555 1_555
H53 C79 1_555 1_555
C80 C78 1_555 1_555
H54 C80 1_555 1_555
C81 C80 1_555 1_555
H55 C81 1_555 1_555
C82 C79 1_555 1_555
H56 C82 1_555 1_555
C83 C81 1_555 1_555
C84 C83 1_555 1_555
C85 H57 1_555 1_555
C86 H58 1_555 1_555
C87 C85 1_555 1_555
H59 C87 1_555 1_555
C88 C86 1_555 1_555
H60 C88 1_555 1_555
C89 C87 1_555 1_555
C90 C89 1_555 1_555
C91 C90 1_555 1_555
H61 C91 1_555 1_555
C92 C90 1_555 1_555
H62 C92 1_555 1_555
C93 C91 1_555 1_555
H63 C93 1_555 1_555
C94 C92 1_555 1_555
H64 C94 1_555 1_555
C95 C93 1_555 1_555
C96 C95 1_555 1_555
C97 C98 1_555 1_555
C98 O19 1_555 1_555
C99 C100 1_555 1_555
C100 O22 1_555 1_555
C101 O25 1_555 1_555
C102 O27 1_555 1_555
N1 Cu1 1_555 1_555
N2 Cu3 1_555 1_555
N3 C25 1_555 1_555
N4 C37 1_555 1_555
N5 C49 1_555 1_555
N6 C61 1_555 1_555
N7 C73 1_555 1_555
N8 C85 1_555 1_555
O1 C12 1_555 1_555
O2 C12 1_555 1_555
O3 C24 1_555 1_555
O4 La2 1_555 1_555
O5 La2 1_555 1_555
O6 La1 1_555 1_555
O7 La1 1_555 1_555
O8 C48 1_555 1_555
O9 C60 1_555 1_555
O10 C60 1_555 1_555
O11 La3 1_555 1_555
O12 La4 1_555 1_555
O13 La1 1_555 1_555
O14 La1 1_555 1_555
O15 La3 1_555 1_555
O16 La2 1_555 1_555
O17 La1 1_555 1_555
O18 La3 1_555 1_555
O19 La1 1_555 1_555
O20 La4 1_555 1_555
O21 La2 1_555 1_555
O22 La1 1_555 1_555
O23 C99 1_555 1_555
O24 C100 1_555 1_555
O25 La3 1_555 1_555
O26 C101 1_555 1_555
O27 La1 1_555 1_555
O28 C102 1_555 1_555
O29 La1 1_555 1_555
H65 O29 1_555 1_555
H66 O29 1_555 1_555
O30 La2 1_555 1_555
H67 O30 1_555 1_555
H68 O30 1_555 1_555
O31 Na1 1_555 1_555
H69 O31 1_555 1_555
H70 O31 1_555 1_555
O32 H71 1_555 1_555
H72 O32 1_555 1_555
O33 H73 1_555 1_555
H74 O33 1_555 1_555
O34 H75 1_555 1_555
H76 O34 1_555 1_555
O35 H77 1_555 1_555
H78 O35 1_555 1_555
O36 H79 1_555 1_555
H80 O36 1_555 1_555
C101A C101 1_555 1_555
O25A C101A 1_555 1_555
O26A La3 1_555 1_555
C102A C102 1_555 1_555
O27A C102A 1_555 1_555
O28A La1 1_555 1_555
La1A O5A 1_555 1_555
La2A O1A 1_555 1_555
La3A O3A 1_555 1_555
La4A O28 1_555 1_555
Cu1A I1A 1_555 1_555
Cu2A I2A 1_555 1_555
Cu3A I2A 1_555 1_555
Cu4A I3A 1_555 1_555
Cu5A I2A 1_555 1_555
Cu6A I4A 1_555 1_555
Cu7A I5A 1_555 1_555
Na1A O9 1_555 1_555
I1A Cu1_2 1_555 1_555
I2A Cu1_3 1_555 1_555
I3A Cu2A 1_555 1_555
I4A Cu3A 1_555 1_555
I5A Cu5A 1_555 1_555
I6A Cu6A 1_555 1_555
C1A H1A 1_555 1_555
C2A H2A 1_555 1_555
C3A C1A 1_555 1_555
H3A C3A 1_555 1_555
C4A C2A 1_555 1_555
H4A C4A 1_555 1_555
C5A C3A 1_555 1_555
C6A C5A 1_555 1_555
C7A C6A 1_555 1_555
H5A C7A 1_555 1_555
C8A C6A 1_555 1_555
H6A C8A 1_555 1_555
C9A C7A 1_555 1_555
H7A C9A 1_555 1_555
C10A C8A 1_555 1_555
H8A C10A 1_555 1_555
C11A C9A 1_555 1_555
C12A C11A 1_555 1_555
C13A H9A 1_555 1_555
C14A H10A 1_555 1_555
C15A C13A 1_555 1_555
H11A C15A 1_555 1_555
C16A C14A 1_555 1_555
H12A C16A 1_555 1_555
C17A C15A 1_555 1_555
C18A C17A 1_555 1_555
C19A C18A 1_555 1_555
H13A C19A 1_555 1_555
C20A C18A 1_555 1_555
H14A C20A 1_555 1_555
C21A C19A 1_555 1_555
H15A C21A 1_555 1_555
C22A C20A 1_555 1_555
H16A C22A 1_555 1_555
C23A C21A 1_555 1_555
C24A C23A 1_555 1_555
C25A H17A 1_555 1_555
C26A H18A 1_555 1_555
C27A C25A 1_555 1_555
H19A C27A 1_555 1_555
C28A C26A 1_555 1_555
H20A C28A 1_555 1_555
C29A C27A 1_555 1_555
C30A C29A 1_555 1_555
C31A C30A 1_555 1_555
H21A C31A 1_555 1_555
C32A C30A 1_555 1_555
H22A C32A 1_555 1_555
C33A C31A 1_555 1_555
H23A C33A 1_555 1_555
C34A C32A 1_555 1_555
H24A C34A 1_555 1_555
C35A C33A 1_555 1_555
C36A C35A 1_555 1_555
C37A H25A 1_555 1_555
C38A H26A 1_555 1_555
C39A C37A 1_555 1_555
H27A C39A 1_555 1_555
C40A C38A 1_555 1_555
H28A C40A 1_555 1_555
C41A C39A 1_555 1_555
C42A C41A 1_555 1_555
C43A C42A 1_555 1_555
H29A C43A 1_555 1_555
C44A C42A 1_555 1_555
H30A C44A 1_555 1_555
C45A C43A 1_555 1_555
H31A C45A 1_555 1_555
C46A C44A 1_555 1_555
H32A C46A 1_555 1_555
C47A C45A 1_555 1_555
C48A C47A 1_555 1_555
C49A H33A 1_555 1_555
C50A H34A 1_555 1_555
C51A C49A 1_555 1_555
H35A C51A 1_555 1_555
C52A C50A 1_555 1_555
H36A C52A 1_555 1_555
C53A C51A 1_555 1_555
C54A C53A 1_555 1_555
C55A C54A 1_555 1_555
H37A C55A 1_555 1_555
C56A C54A 1_555 1_555
H38A C56A 1_555 1_555
C57A C55A 1_555 1_555
H39A C57A 1_555 1_555
C58A C56A 1_555 1_555
H40A C58A 1_555 1_555
C59A C57A 1_555 1_555
C60A C59A 1_555 1_555
C61A H41A 1_555 1_555
C62A H42A 1_555 1_555
C63A C61A 1_555 1_555
H43A C63A 1_555 1_555
C64A C62A 1_555 1_555
H44A C64A 1_555 1_555
C65A C63A 1_555 1_555
C66A C65A 1_555 1_555
C67A C66A 1_555 1_555
H45A C67A 1_555 1_555
C68A C66A 1_555 1_555
H46A C68A 1_555 1_555
C69A C67A 1_555 1_555
H47A C69A 1_555 1_555
C70A C68A 1_555 1_555
H48A C70A 1_555 1_555
C71A C69A 1_555 1_555
C72A C71A 1_555 1_555
C73A H49A 1_555 1_555
C74A H50A 1_555 1_555
C75A C73A 1_555 1_555
H51A C75A 1_555 1_555
C76A C74A 1_555 1_555
H52A C76A 1_555 1_555
C77A C75A 1_555 1_555
C78A C77A 1_555 1_555
C79A C78A 1_555 1_555
H53A C79A 1_555 1_555
C80A C78A 1_555 1_555
H54A C80A 1_555 1_555
C81A C80A 1_555 1_555
H55A C81A 1_555 1_555
C82A C79A 1_555 1_555
H56A C82A 1_555 1_555
C83A C81A 1_555 1_555
C84A C83A 1_555 1_555
C85A H57A 1_555 1_555
C86A H58A 1_555 1_555
C87A C85A 1_555 1_555
H59A C87A 1_555 1_555
C88A C86A 1_555 1_555
H60A C88A 1_555 1_555
C89A C87A 1_555 1_555
C90A C89A 1_555 1_555
C91A C90A 1_555 1_555
H61A C91A 1_555 1_555
C92A C90A 1_555 1_555
H62A C92A 1_555 1_555
C93A C91A 1_555 1_555
H63A C93A 1_555 1_555
C94A C92A 1_555 1_555
H64A C94A 1_555 1_555
C95A C93A 1_555 1_555
C96A C95A 1_555 1_555
C97A C98A 1_555 1_555
C98A O19A 1_555 1_555
C99A C100A 1_555 1_555
C100A O22A 1_555 1_555
N1A Cu1A 1_555 1_555
N2A Cu3A 1_555 1_555
N3A C25A 1_555 1_555
N4A C37A 1_555 1_555
N5A C49A 1_555 1_555
N6A C61A 1_555 1_555
N7A C73A 1_555 1_555
N8A C85A 1_555 1_555
O1A C12A 1_555 1_555
O2A C12A 1_555 1_555
O3A C24A 1_555 1_555
O4A La2A 1_555 1_555
O5A La2A 1_555 1_555
O6A La1A 1_555 1_555
O7A La1A 1_555 1_555
O8A C48A 1_555 1_555
O9A Na1 1_555 1_555
O10A Na1 1_555 1_555
O11A La3A 1_555 1_555
O12A La4A 1_555 1_555
O13A La1A 1_555 1_555
O14A La1A 1_555 1_555
O15A La3A 1_555 1_555
O16A La2A 1_555 1_555
O17A La1A 1_555 1_555
O18A La3A 1_555 1_555
O19A La1A 1_555 1_555
O20A Na1 1_555 1_555
O21A La2A 1_555 1_555
O22A La1A 1_555 1_555
O23A C99A 1_555 1_555
O24A C100A 1_555 1_555
O29A La1A 1_555 1_555
H65A O29A 1_555 1_555
H66A O29A 1_555 1_555
O30A La2A 1_555 1_555
H67A O30A 1_555 1_555
H68A O30A 1_555 1_555
O31A Na1A 1_555 1_555
H69A O31A 1_555 1_555
H70A O31A 1_555 1_555
La1A_2 O28 1_555 1_555
La3_2 O23 1_555 1_555
La3A_2 O23A 1_555 1_555
La3A_3 O26 1_555 1_555
La4_2 O8 1_555 1_555
La4A_2 O8A 1_555 1_555
Cu1_2 I1_2 1_555 1_555
Cu1_3 I1_3 1_555 1_555
Cu1A_2 I1A_2 1_555 1_555
Cu1A_3 I1A_3 1_555 1_555
Cu2_2 I1A 1_555 1_555
Cu2_3 N8 1_555 1_555
Cu2A_2 N8A 1_555 1_555
Cu2A_3 I1 1_555 1_555
Cu4_2 N6 1_555 1_555
Cu4_3 N3 1_555 1_555
Cu4A_2 N3A 1_555 1_555
Cu4A_3 N6A 1_555 1_555
Cu5_2 N7 1_555 1_555
Cu5A_2 N7A 1_555 1_555
Cu6_2 N4 1_555 1_555
Cu6A_2 N4A 1_555 1_555
Cu7_2 N5 1_555 1_555
Cu7A_2 N5A 1_555 1_555
Na1A_2 O27A 1_555 1_555
I1_2 Cu1A 1_555 1_555
I1_3 Cu2A 1_555 1_555
I1A_2 Cu2 1_555 1_555
I1A_3 Cu1 1_555 1_555
I2_2 Cu1A 1_555 1_555
I2A_2 Cu1 1_555 1_555
N3_2 Cu4 1_555 1_555
N3A_2 Cu4A 1_555 1_555
N4_2 Cu6 1_555 1_555
N4A_2 Cu6A 1_555 1_555
N5_2 Cu7 1_555 1_555
N5A_2 Cu7A 1_555 1_555
N6_2 Cu4 1_555 1_555
N6A_2 Cu4A 1_555 1_555
N7_2 Cu5 1_555 1_555
N7A_2 Cu5A 1_555 1_555
N8_2 Cu2 1_555 1_555
N8A_2 Cu2A 1_555 1_555
O8_2 La4 1_555 1_555
O8A_2 La4A 1_555 1_555
O13_2 La4 1_555 1_555
O13A_2 La4A 1_555 1_555
O23_2 La3 1_555 1_555
O23A_2 La3A 1_555 1_555
O24_2 La3 1_555 1_555
O24A_2 La3A 1_555 1_555
O25A_2 La3A 1_555 1_555
O26_2 La3A 1_555 1_555
O27A_2 La1A 1_555 1_555
O28_2 La1A 1_555 1_555
O28A_2 La4 1_555 1_555
La2 O17 1_555 1_555
La2 O22 1_555 1_555
La3 O4 1_555 1_555
La4 O18 1_555 1_555
La4 O24_2 1_555 1_555
Cu3 I3 1_555 1_555
Cu4 I4 1_555 1_555
Cu5 I4 1_555 1_555
Cu6 I5 1_555 1_555
Cu7 I6 1_555 1_555
Na1 O19 1_555 1_555
Na1 O27 1_555 1_555
C1 N1 1_555 1_555
C2 N1 1_555 1_555
C4 C5 1_555 1_555
C10 C11 1_555 1_555
C13 N2 1_555 1_555
C14 N2 1_555 1_555
C16 C17 1_555 1_555
C22 C23 1_555 1_555
C24 O4 1_555 1_555
C26 N3 1_555 1_555
C28 C29 1_555 1_555
C34 C35 1_555 1_555
C36 O5 1_555 1_555
C36 O6 1_555 1_555
C38 N4 1_555 1_555
C40 C41 1_555 1_555
C46 C47 1_555 1_555
C48 O7 1_555 1_555
C50 N5 1_555 1_555
C52 C53 1_555 1_555
C58 C59 1_555 1_555
C62 N6 1_555 1_555
C64 C65 1_555 1_555
C70 C71 1_555 1_555
C72 O11 1_555 1_555
C72 O12 1_555 1_555
C74 N7 1_555 1_555
C76 C77 1_555 1_555
C82 C83 1_555 1_555
C84 O13 1_555 1_555
C84 O14 1_555 1_555
C86 N8 1_555 1_555
C88 C89 1_555 1_555
C94 C95 1_555 1_555
C96 O15 1_555 1_555
C96 O16 1_555 1_555
C97 O17 1_555 1_555
C97 O18 1_555 1_555
C98 O20 1_555 1_555
C99 O21 1_555 1_555
O10 Na1A 1_555 1_555
O13 La4_2 1_555 1_555
O20 Na1A 1_555 1_555
O24 La3_2 1_555 1_555
O24 La4_2 1_555 1_555
C101A O26A 1_555 1_555
O25A La3A_3 1_555 1_555
C102A O28A 1_555 1_555
O27A La1A_2 1_555 1_555
O28A La4_2 1_555 1_555
La2A O17A 1_555 1_555
La2A O22A 1_555 1_555
La3A O4A 1_555 1_555
La4A O9A 1_555 1_555
La4A O18A 1_555 1_555
La4A O20A 1_555 1_555
La4A O24A_2 1_555 1_555
Cu3A I3A 1_555 1_555
Cu4A I4A 1_555 1_555
Cu5A I4A 1_555 1_555
Cu6A I5A 1_555 1_555
Cu7A I6A 1_555 1_555
Na1A O6A 1_555 1_555
Na1A O19A 1_555 1_555
Na1A O27A_2 1_555 1_555
C1A N1A 1_555 1_555
C2A N1A 1_555 1_555
C4A C5A 1_555 1_555
C10A C11A 1_555 1_555
C13A N2A 1_555 1_555
C14A N2A 1_555 1_555
C16A C17A 1_555 1_555
C22A C23A 1_555 1_555
C24A O4A 1_555 1_555
C26A N3A 1_555 1_555
C28A C29A 1_555 1_555
C34A C35A 1_555 1_555
C36A O5A 1_555 1_555
C36A O6A 1_555 1_555
C38A N4A 1_555 1_555
C40A C41A 1_555 1_555
C46A C47A 1_555 1_555
C48A O7A 1_555 1_555
C50A N5A 1_555 1_555
C52A C53A 1_555 1_555
C58A C59A 1_555 1_555
C60A O9A 1_555 1_555
C60A O10A 1_555 1_555
C62A N6A 1_555 1_555
C64A C65A 1_555 1_555
C70A C71A 1_555 1_555
C72A O11A 1_555 1_555
C72A O12A 1_555 1_555
C74A N7A 1_555 1_555
C76A C77A 1_555 1_555
C82A C83A 1_555 1_555
C84A O13A 1_555 1_555
C84A O14A 1_555 1_555
C86A N8A 1_555 1_555
C88A C89A 1_555 1_555
C94A C95A 1_555 1_555
C96A O15A 1_555 1_555
C96A O16A 1_555 1_555
C97A O17A 1_555 1_555
C97A O18A 1_555 1_555
C98A O20A 1_555 1_555
C99A O21A 1_555 1_555
O13A La4A_2 1_555 1_555
O24A La3A_2 1_555 1_555
O24A La4A_2 1_555 1_555
La1A_2 O13A_2 1_555 1_555
La4A_2 O28_2 1_555 1_555
Cu2_2 I2_2 1_555 1_555
Cu2A_3 I2A_2 1_555 1_555

#END
