
#######################################################################
#
#                 Cambridge Crystallographic Data Centre
#                                CCDC 
#
#######################################################################
#
# If this CIF has been generated from an entry in the Cambridge 
# Structural Database, then it will include bibliographic, chemical, 
# crystal, experimental, refinement or atomic coordinate data resulting 
# from the CCDC's data processing and validation procedures.
#
#######################################################################

data_FIHBOP
_symmetry_cell_setting           rhombohedral
_symmetry_space_group_name_H-M   'R -3 c'
_symmetry_Int_Tables_number      167
_space_group_name_Hall           '-R 3 2"c'
loop_
_symmetry_equiv_pos_site_id
_symmetry_equiv_pos_as_xyz
1 x,y,z
2 -y,x-y,z
3 -x+y,-x,z
4 y,x,1/2-z
5 x-y,-y,1/2-z
6 -x,-x+y,1/2-z
7 2/3+x,1/3+y,1/3+z
8 2/3-y,1/3+x-y,1/3+z
9 2/3-x+y,1/3-x,1/3+z
10 2/3+y,1/3+x,5/6-z
11 2/3+x-y,1/3-y,5/6-z
12 2/3-x,1/3-x+y,5/6-z
13 1/3+x,2/3+y,2/3+z
14 1/3-y,2/3+x-y,2/3+z
15 1/3-x+y,2/3-x,2/3+z
16 1/3+y,2/3+x,1/6-z
17 1/3+x-y,2/3-y,1/6-z
18 1/3-x,2/3-x+y,1/6-z
19 -x,-y,-z
20 y,-x+y,-z
21 x-y,x,-z
22 -y,-x,1/2+z
23 -x+y,y,1/2+z
24 x,x-y,1/2+z
25 1/3-x,2/3-y,2/3-z
26 1/3+y,2/3-x+y,2/3-z
27 1/3+x-y,2/3+x,2/3-z
28 1/3-y,2/3-x,1/6+z
29 1/3-x+y,2/3+y,1/6+z
30 1/3+x,2/3+x-y,1/6+z
31 2/3-x,1/3-y,1/3-z
32 2/3+y,1/3-x+y,1/3-z
33 2/3+x-y,1/3+x,1/3-z
34 2/3-y,1/3-x,5/6+z
35 2/3-x+y,1/3+y,5/6+z
36 2/3+x,1/3+x-y,5/6+z
_cell_length_a                   18.4215(3)
_cell_length_b                   18.4215(3)
_cell_length_c                   47.8464(14)
_cell_angle_alpha                90
_cell_angle_beta                 90
_cell_angle_gamma                120
_cell_volume                     14061.4
loop_
_atom_site_label
_atom_site_type_symbol
_atom_site_fract_x
_atom_site_fract_y
_atom_site_fract_z
Cd1 Cd 0.882770(19) 0.089106(19) 0.017805(6)
C1 C 0.7982(3) 0.0024(3) 0.07567(9)
C2 C 0.8129(4) -0.0667(3) 0.07219(10)
C3 C 0.7870(4) -0.1264(4) 0.09289(12)
H1 H 0.7976 -0.1705 0.0910
C4 C 0.7447(5) -0.1222(4) 0.11685(13)
H2 H 0.7238 -0.1651 0.1300
C5 C 0.7354(5) -0.0558(4) 0.12030(13)
H3 H 0.7097 -0.0515 0.1364
C6 C 0.8484(3) -0.0817(3) 0.04609(8)
C7 C 0.7508(3) 0.0775(3) 0.10608(11)
H4 H 0.7051 0.0613 0.1192
H5 H 0.7350 0.0927 0.0887
C8 C 0.8279(3) 0.1533(3) 0.11745(10)
C9 C 0.856(2) 0.2289(13) 0.1039(9)
H6 H 0.8312 0.2305 0.0872
C10 C 0.921(3) 0.3033(14) 0.1151(10)
H7 H 0.9368 0.3547 0.1068
C11 C 0.9630(3) 0.2991(3) 0.13906(10)
C12 C 0.9475(4) 0.2231(3) 0.14738(13)
H8 H 0.9825 0.2189 0.1605
C13 C 0.8796(4) 0.1501(3) 0.13671(14)
H9 H 0.8699 0.0982 0.1430
C14 C 1.0355(3) 0.3789(3) 0.15018(10)
N1 N 0.7621(3) 0.0053(2) 0.10107(8)
O1 O 0.8126(2) 0.0590(2) 0.05886(6)
O2 O 0.8438(2) -0.04825(18) 0.02347(6)
O3 O 0.8772(3) -0.1293(2) 0.04777(7)
O4 O 1.0291(2) 0.4438(2) 0.14797(8)
O5 O 1.0945(2) 0.3738(2) 0.16137(8)
Cd1A Cd 0.910894(19) -0.206336(27) 0.017805(6)
Cd1P Cd 1.126997(27) 0.577561(19) 0.148862(6)
Cd1T Cd 0.793664(27) -0.117230(19) -0.017805(6)
Cd1CA Cd 1.216103(19) 0.460331(27) 0.184472(6)
O2S O 0.95175(18) 0.10795(27) -0.02347(6)
O3B O 0.9935(4) 0.1228(3) 0.04777(7)
O4P O 0.9186(3) 0.2229(2) 0.01870(8)
O5IA O 0.7612(2) 0.0540(3) -0.00530(8)
O6 O 0.8883(12) 0.4814(12) 0.1284(5)
O7 O 1.0000 0.0000 0.147(2)
C15? C 0.8307(14) 0.2289(13) 0.1153(6)
H10? H 0.7877 0.2323 0.1064
C16? C 0.8977(15) 0.3001(17) 0.1265(6)
H11? H 0.8979 0.3506 0.1254
loop_
_geom_bond_atom_site_label_1
_geom_bond_atom_site_label_2
_geom_bond_site_symmetry_1
_geom_bond_site_symmetry_2
Cd1 O1 1_555 1_555
C1 C2 1_555 1_555
C2 C3 1_555 1_555
C3 H1 1_555 1_555
C4 C3 1_555 1_555
H2 C4 1_555 1_555
C5 C4 1_555 1_555
H3 C5 1_555 1_555
C6 C2 1_555 1_555
C7 H4 1_555 1_555
H5 C7 1_555 1_555
C8 C7 1_555 1_555
C9 C8 1_555 1_555
H6 C9 1_555 1_555
C10 C9 1_555 1_555
H7 C10 1_555 1_555
C11 C10 1_555 1_555
C12 C11 1_555 1_555
H8 C12 1_555 1_555
C13 C8 1_555 1_555
H9 C13 1_555 1_555
C14 C11 1_555 1_555
N1 C1 1_555 1_555
O1 C1 1_555 1_555
O2 Cd1 1_555 1_555
O3 C6 1_555 1_555
O4 C14 1_555 1_555
O5 C14 1_555 1_555
Cd1A O3 1_555 1_555
Cd1P O4 1_555 1_555
Cd1T O2 1_555 1_555
Cd1CA O5 1_555 1_555
O2S Cd1 1_555 1_555
O3B Cd1 1_555 1_555
O4P Cd1 1_555 1_555
O5IA Cd1 1_555 1_555
C5 N1 1_555 1_555
C6 O2 1_555 1_555
C7 N1 1_555 1_555
C12 C13 1_555 1_555

#END
