
#######################################################################
#
#                 Cambridge Crystallographic Data Centre
#                                CCDC 
#
#######################################################################
#
# If this CIF has been generated from an entry in the Cambridge 
# Structural Database, then it will include bibliographic, chemical, 
# crystal, experimental, refinement or atomic coordinate data resulting 
# from the CCDC's data processing and validation procedures.
#
#######################################################################

data_FIHBUV
_symmetry_cell_setting           rhombohedral
_symmetry_space_group_name_H-M   'R -3 c'
_symmetry_Int_Tables_number      167
_space_group_name_Hall           '-R 3 2"c'
loop_
_symmetry_equiv_pos_site_id
_symmetry_equiv_pos_as_xyz
1 x,y,z
2 -y,x-y,z
3 -x+y,-x,z
4 x-y,-y,1/2-z
5 -x,-x+y,1/2-z
6 y,x,1/2-z
7 2/3+x,1/3+y,1/3+z
8 2/3-y,1/3+x-y,1/3+z
9 2/3-x+y,1/3-x,1/3+z
10 2/3+x-y,1/3-y,5/6-z
11 2/3-x,1/3-x+y,5/6-z
12 2/3+y,1/3+x,5/6-z
13 1/3+x,2/3+y,2/3+z
14 1/3-y,2/3+x-y,2/3+z
15 1/3-x+y,2/3-x,2/3+z
16 1/3+x-y,2/3-y,1/6-z
17 1/3-x,2/3-x+y,1/6-z
18 1/3+y,2/3+x,1/6-z
19 -x,-y,-z
20 y,-x+y,-z
21 x-y,x,-z
22 -x+y,y,1/2+z
23 x,x-y,1/2+z
24 -y,-x,1/2+z
25 1/3-x,2/3-y,2/3-z
26 1/3+y,2/3-x+y,2/3-z
27 1/3+x-y,2/3+x,2/3-z
28 1/3-x+y,2/3+y,1/6+z
29 1/3+x,2/3+x-y,1/6+z
30 1/3-y,2/3-x,1/6+z
31 2/3-x,1/3-y,1/3-z
32 2/3+y,1/3-x+y,1/3-z
33 2/3+x-y,1/3+x,1/3-z
34 2/3-x+y,1/3+y,5/6+z
35 2/3+x,1/3+x-y,5/6+z
36 2/3-y,1/3-x,5/6+z
_cell_length_a                   18.2630(14)
_cell_length_b                   18.2630(14)
_cell_length_c                   47.393(3)
_cell_angle_alpha                90
_cell_angle_beta                 90
_cell_angle_gamma                120
_cell_volume                     13689.5
loop_
_atom_site_label
_atom_site_type_symbol
_atom_site_fract_x
_atom_site_fract_y
_atom_site_fract_z
Mn1 Mn 0.88307(7) 0.08733(7) 0.01751(2)
C1 C 0.4673(5) 0.1300(5) -0.09254(14)
C2 C 0.4816(7) 0.2130(7) -0.09570(17)
C3 C 0.4569(7) 0.2480(7) -0.07443(17)
H1 H 0.4675 0.3032 -0.0763
C4 C 0.4162(8) 0.2016(7) -0.05020(18)
H2 H 0.3971 0.2243 -0.0364
C5 C 0.4056(7) 0.1249(7) -0.04733(19)
H3 H 0.3787 0.0939 -0.0312
C6 C 0.5189(5) 0.2659(5) -0.12210(14)
C7 C 0.4203(5) 0.0065(6) -0.06180(17)
H4 H 0.4059 -0.0240 -0.0796
H5 H 0.3731 -0.0240 -0.0490
C8 C 0.4978(5) 0.0077(6) -0.04953(16)
C9 C 0.5489(7) 0.0620(7) -0.0305(2)
H6 H 0.5386 0.1043 -0.0243
C10 C 0.6163(6) 0.0587(6) -0.0196(2)
H7 H 0.6511 0.0990 -0.0065
C11 C 0.6331(5) -0.0030(5) -0.02757(16)
C12 C 0.5877(19) -0.0520(17) -0.0501(7)
H8 H 0.6012 -0.0907 -0.0578
C13 C 0.522(2) -0.0442(19) -0.0614(7)
H9 H 0.4948 -0.0749 -0.0775
C14 C 0.7066(5) -0.0101(5) -0.01618(15)
N1 N 0.4320(4) 0.0906(5) -0.06662(12)
O1 O 0.4824(3) 0.0883(3) -0.10965(10)
O2 O 0.5130(3) 0.2254(3) -0.14499(9)
O3 O 0.5474(4) 0.3427(3) -0.12082(10)
O4 O 0.7015(3) -0.0817(3) -0.01820(11)
O5 O 0.7673(3) 0.0550(3) -0.00527(10)
Mn1I Mn 0.46241(10) 0.24600(7) -0.18418(2)
Mn1T Mn 0.79574(10) -0.11693(7) -0.01751(2)
Mn1HA Mn 0.54974(7) 0.12907(10) -0.14916(2)
Mn1IA Mn 0.57934(7) 0.45026(7) -0.14916(2)
O1BA O 0.8157(3) 0.0608(4) 0.05702(10)
O2I O 0.9543(4) 0.1079(3) -0.02168(9)
O2BA O 0.8463(3) -0.0457(4) 0.02168(9)
O3CA O 0.9906(3) 0.1193(4) 0.04585(10)
O4S O 0.9183(3) 0.2168(4) 0.01820(11)
O6 O 0.7416(11) 0.1876(12) 0.0356(4)
C15? C 0.563(2) -0.076(2) -0.0359(7)
H10? H 0.5589 -0.1286 -0.0330
C16? C 0.497(2) -0.071(2) -0.0486(8)
H11? H 0.4519 -0.1191 -0.0566
loop_
_geom_bond_atom_site_label_1
_geom_bond_atom_site_label_2
_geom_bond_site_symmetry_1
_geom_bond_site_symmetry_2
Mn1 O5 1_555 1_555
C1 C2 1_555 1_555
C2 C3 1_555 1_555
C3 H1 1_555 1_555
C4 C3 1_555 1_555
H2 C4 1_555 1_555
C5 C4 1_555 1_555
H3 C5 1_555 1_555
C6 C2 1_555 1_555
C7 H4 1_555 1_555
H5 C7 1_555 1_555
C8 C7 1_555 1_555
C9 C8 1_555 1_555
H6 C9 1_555 1_555
C10 C9 1_555 1_555
H7 C10 1_555 1_555
C11 C10 1_555 1_555
C12 C11 1_555 1_555
H8 C12 1_555 1_555
C13 C8 1_555 1_555
H9 C13 1_555 1_555
C14 C11 1_555 1_555
N1 C1 1_555 1_555
O1 C1 1_555 1_555
O2 C6 1_555 1_555
O3 C6 1_555 1_555
O4 C14 1_555 1_555
O5 C14 1_555 1_555
Mn1I O2 1_555 1_555
Mn1T O4 1_555 1_555
Mn1HA O1 1_555 1_555
Mn1IA O3 1_555 1_555
O1BA Mn1 1_555 1_555
O2I Mn1 1_555 1_555
O2BA Mn1 1_555 1_555
O3CA Mn1 1_555 1_555
O4S Mn1 1_555 1_555
C5 N1 1_555 1_555
C7 N1 1_555 1_555
C12 C13 1_555 1_555
O2 Mn1HA 1_555 1_555
Mn1T O2BA 1_555 1_555

#END
