
#######################################################################
#
#                 Cambridge Crystallographic Data Centre
#                                CCDC 
#
#######################################################################
#
# If this CIF has been generated from an entry in the Cambridge 
# Structural Database, then it will include bibliographic, chemical, 
# crystal, experimental, refinement or atomic coordinate data resulting 
# from the CCDC's data processing and validation procedures.
#
#######################################################################

data_FIHBAB
_symmetry_cell_setting           triclinic
_symmetry_space_group_name_H-M   'P -1'
_symmetry_Int_Tables_number      2
_space_group_name_Hall           '-P 1'
loop_
_symmetry_equiv_pos_site_id
_symmetry_equiv_pos_as_xyz
1 x,y,z
2 -x,-y,-z
_cell_length_a                   4.6970(8)
_cell_length_b                   9.9490(14)
_cell_length_c                   15.105(2)
_cell_angle_alpha                103.050(12)
_cell_angle_beta                 92.105(13)
_cell_angle_gamma                96.701(13)
_cell_volume                     681.483
loop_
_atom_site_label
_atom_site_type_symbol
_atom_site_fract_x
_atom_site_fract_y
_atom_site_fract_z
Co1 Co -0.24723(12) 0.11463(6) -0.30001(4)
C1 C 0.4268(8) 0.1889(5) 0.3057(3)
C2 C 0.2416(8) 0.2422(4) 0.3758(3)
C3 C 0.2407(10) 0.3820(5) 0.4043(3)
H1 H 0.1215 0.4151 0.4499
C4 C 0.4131(10) 0.4779(5) 0.3674(4)
H2 H 0.4117 0.5732 0.3882
C5 C 0.5810(10) 0.4265(5) 0.3007(3)
H3 H 0.6946 0.4879 0.2744
C6 C 0.0363(8) 0.1479(5) 0.4167(3)
C7 C 0.7768(9) 0.2429(5) 0.1960(3)
H4 H 0.8236 0.1510 0.1975
H5 H 0.9548 0.3059 0.2057
C8 C 0.6386(9) 0.2385(4) 0.1042(3)
C9 C 0.3941(9) 0.1463(5) 0.0702(3)
H6 H 0.3070 0.0915 0.1065
C10 C 0.2784(9) 0.1350(5) -0.0169(3)
H7 H 0.1113 0.0745 -0.0379
C11 C 0.4072(9) 0.2121(4) -0.0731(3)
C12 C 0.6456(10) 0.3059(5) -0.0397(3)
H8 H 0.7325 0.3598 -0.0766
C13 C 0.7581(10) 0.3206(5) 0.0490(3)
H9 H 0.9161 0.3866 0.0715
C14 C 0.2883(9) 0.1913(4) -0.1692(3)
N1 N 0.5888(7) 0.2890(4) 0.2710(2)
O1 O 0.4562(6) 0.0647(3) 0.2732(2)
O2 O 0.0229(6) 0.0177(3) 0.3905(2)
O3 O -0.1179(6) 0.2062(3) 0.4760(2)
O4 O 0.0324(6) 0.1358(3) -0.1869(2)
O5 O 0.4493(6) 0.2306(3) -0.2269(2)
O6 O 0.0115(7) 0.2832(3) -0.3327(2)
H10 H 0.182(5) 0.265(5) -0.313(3)
H11 H 0.011(9) 0.273(4) -0.3934(8)
O7 O -0.5134(6) 0.1269(3) -0.4127(2)
H12 H -0.674(7) 0.065(5) -0.426(4)
H13 H -0.439(13) 0.138(6) -0.465(2)
Co1_2 Co 0.75277(12) 0.11463(6) -0.30001(4)
Co1A Co 0.24723(12) -0.11463(6) 0.30001(4)
O1A O -0.4562(6) -0.0647(3) -0.2732(2)
O2A O -0.0229(6) -0.0177(3) -0.3905(2)
O5_2 O -0.5507(6) 0.2306(3) -0.2269(2)
loop_
_geom_bond_atom_site_label_1
_geom_bond_atom_site_label_2
_geom_bond_site_symmetry_1
_geom_bond_site_symmetry_2
Co1 O4 1_555 1_555
C1 C2 1_555 1_555
C2 C3 1_555 1_555
C3 H1 1_555 1_555
C4 C3 1_555 1_555
H2 C4 1_555 1_555
C5 C4 1_555 1_555
H3 C5 1_555 1_555
C6 C2 1_555 1_555
C7 H4 1_555 1_555
H5 C7 1_555 1_555
C8 C7 1_555 1_555
C9 C8 1_555 1_555
H6 C9 1_555 1_555
C10 C9 1_555 1_555
H7 C10 1_555 1_555
C11 C10 1_555 1_555
C12 C11 1_555 1_555
H8 C12 1_555 1_555
C13 C8 1_555 1_555
H9 C13 1_555 1_555
C14 C11 1_555 1_555
N1 C1 1_555 1_555
O1 C1 1_555 1_555
O2 C6 1_555 1_555
O3 C6 1_555 1_555
O4 C14 1_555 1_555
O5 C14 1_555 1_555
O6 Co1 1_555 1_555
H10 O6 1_555 1_555
H11 O6 1_555 1_555
O7 Co1 1_555 1_555
H12 O7 1_555 1_555
H13 O7 1_555 1_555
Co1_2 O5 1_555 1_555
Co1A O1 1_555 1_555
O1A Co1 1_555 1_555
O2A Co1 1_555 1_555
O5_2 Co1 1_555 1_555
C5 N1 1_555 1_555
C7 N1 1_555 1_555
C12 C13 1_555 1_555
O2 Co1A 1_555 1_555

#END
