
#######################################################################
#
#                 Cambridge Crystallographic Data Centre
#                                CCDC 
#
#######################################################################
#
# If this CIF has been generated from an entry in the Cambridge 
# Structural Database, then it will include bibliographic, chemical, 
# crystal, experimental, refinement or atomic coordinate data resulting 
# from the CCDC's data processing and validation procedures.
#
#######################################################################

data_FIHCIK
_symmetry_cell_setting           triclinic
_symmetry_space_group_name_H-M   'P -1'
_symmetry_Int_Tables_number      2
_space_group_name_Hall           '-P 1'
loop_
_symmetry_equiv_pos_site_id
_symmetry_equiv_pos_as_xyz
1 x,y,z
2 -x,-y,-z
_cell_length_a                   8.2290(4)
_cell_length_b                   9.7350(5)
_cell_length_c                   14.8300(8)
_cell_angle_alpha                89.604(4)
_cell_angle_beta                 76.115(4)
_cell_angle_gamma                65.898(5)
_cell_volume                     1047.18
loop_
_atom_site_label
_atom_site_type_symbol
_atom_site_fract_x
_atom_site_fract_y
_atom_site_fract_z
Mn1 Mn 0.08666(4) 0.36185(4) 0.16090(2)
C1 C -0.2430(3) 0.3301(2) 0.29063(15)
C2 C -0.3800(3) 0.4369(2) 0.25042(15)
C3 C -0.5604(3) 0.4991(3) 0.30074(17)
H1 H -0.6492 0.5658 0.2738
C4 C -0.6153(3) 0.4649(3) 0.39190(16)
H2 H -0.7386 0.5080 0.4253
C5 C -0.4847(3) 0.3682(3) 0.42983(16)
H3 H -0.5186 0.3461 0.4907
C6 C -0.3255(3) 0.4806(3) 0.15382(16)
C7 C -0.1647(3) 0.2002(3) 0.42686(16)
H4 H -0.2076 0.2286 0.4937
H5 H -0.0507 0.2119 0.4043
C8 C -0.1282(3) 0.0368(2) 0.40746(15)
C9 C -0.2136(3) -0.0320(3) 0.47171(16)
H6 H -0.2884 0.0211 0.5291
C10 C -0.1899(3) -0.1788(3) 0.45213(16)
H7 H -0.2488 -0.2230 0.4964
C11 C -0.0792(3) -0.2605(2) 0.36727(15)
C12 C 0.0106(3) -0.1931(3) 0.30386(16)
H8 H 0.0874 -0.2470 0.2470
C13 C -0.0120(3) -0.0467(3) 0.32372(17)
H9 H 0.0511 -0.0039 0.2806
C14 C -0.0615(3) -0.4175(3) 0.34301(17)
C15 C 0.3548(3) 0.0185(3) 0.14676(16)
C16 C 0.4623(3) -0.1176(3) 0.17411(19)
H10 H 0.4884 -0.2085 0.1414
C17 C 0.5303(4) -0.1174(3) 0.2502(2)
H11 H 0.6020 -0.2081 0.2697
C18 C 0.4915(3) 0.0174(3) 0.29702(19)
H12 H 0.5391 0.0203 0.3475
C19 C 0.3799(3) 0.1490(3) 0.26744(17)
H13 H 0.3495 0.2406 0.3006
C20 C 0.2800(3) 0.0277(3) 0.06376(16)
C21 C 0.3172(3) -0.0991(3) 0.00673(19)
H14 H 0.3890 -0.1952 0.0200
C22 C 0.2464(4) -0.0812(4) -0.07000(19)
H15 H 0.2700 -0.1652 -0.1091
C23 C 0.1410(4) 0.0613(4) -0.08824(19)
H16 H 0.0926 0.0758 -0.1399
C24 C 0.1083(3) 0.1827(3) -0.02858(18)
H17 H 0.0369 0.2793 -0.0413
N1 N -0.3044(2) 0.3020(2) 0.38106(13)
N2 N 0.3132(2) 0.1510(2) 0.19329(13)
N3 N 0.1740(2) 0.1687(2) 0.04686(13)
O1 O -0.07660(19) 0.25885(17) 0.24949(11)
O2 O -0.1675(2) 0.4784(2) 0.12389(11)
O3 O -0.4449(2) 0.5239(2) 0.10893(12)
O4 O -0.1636(3) -0.4637(3) 0.39505(15)
O5 O 0.0603(2) -0.4885(2) 0.26881(12)
O6 O 0.2645(3) 0.4583(2) 0.07526(12)
H18 H 0.300(4) 0.460(4) 0.0138(8)
H19 H 0.344(3) 0.483(4) 0.095(2)
Mn1_2 Mn 0.08666(4) -0.63815(4) 0.16090(2)
O5_2 O 0.0603(2) 0.5115(2) 0.26881(12)
loop_
_geom_bond_atom_site_label_1
_geom_bond_atom_site_label_2
_geom_bond_site_symmetry_1
_geom_bond_site_symmetry_2
Mn1 N2 1_555 1_555
C1 C2 1_555 1_555
C2 C3 1_555 1_555
C3 H1 1_555 1_555
C4 C3 1_555 1_555
H2 C4 1_555 1_555
C5 C4 1_555 1_555
H3 C5 1_555 1_555
C6 C2 1_555 1_555
C7 H4 1_555 1_555
H5 C7 1_555 1_555
C8 C7 1_555 1_555
C9 C8 1_555 1_555
H6 C9 1_555 1_555
C10 C9 1_555 1_555
H7 C10 1_555 1_555
C11 C10 1_555 1_555
C12 C11 1_555 1_555
H8 C12 1_555 1_555
C13 C8 1_555 1_555
H9 C13 1_555 1_555
C14 C11 1_555 1_555
C15 C16 1_555 1_555
C16 H10 1_555 1_555
C17 C16 1_555 1_555
H11 C17 1_555 1_555
C18 C17 1_555 1_555
H12 C18 1_555 1_555
C19 C18 1_555 1_555
H13 C19 1_555 1_555
C20 C15 1_555 1_555
C21 C20 1_555 1_555
H14 C21 1_555 1_555
C22 C21 1_555 1_555
H15 C22 1_555 1_555
C23 C22 1_555 1_555
H16 C23 1_555 1_555
C24 C23 1_555 1_555
H17 C24 1_555 1_555
N1 C1 1_555 1_555
N2 C15 1_555 1_555
N3 Mn1 1_555 1_555
O1 Mn1 1_555 1_555
O2 Mn1 1_555 1_555
O3 C6 1_555 1_555
O4 C14 1_555 1_555
O5 C14 1_555 1_555
O6 Mn1 1_555 1_555
H18 O6 1_555 1_555
H19 O6 1_555 1_555
Mn1_2 O5 1_555 1_555
O5_2 Mn1 1_555 1_555
C1 O1 1_555 1_555
C5 N1 1_555 1_555
C6 O2 1_555 1_555
C7 N1 1_555 1_555
C12 C13 1_555 1_555
C19 N2 1_555 1_555
C20 N3 1_555 1_555
C24 N3 1_555 1_555

#END
