
#######################################################################
#
#                 Cambridge Crystallographic Data Centre
#                                CCDC 
#
#######################################################################
#
# If this CIF has been generated from an entry in the Cambridge 
# Structural Database, then it will include bibliographic, chemical, 
# crystal, experimental, refinement or atomic coordinate data resulting 
# from the CCDC's data processing and validation procedures.
#
#######################################################################

data_FIHCEG
_symmetry_cell_setting           triclinic
_symmetry_space_group_name_H-M   'P -1'
_symmetry_Int_Tables_number      2
_space_group_name_Hall           '-P 1'
loop_
_symmetry_equiv_pos_site_id
_symmetry_equiv_pos_as_xyz
1 x,y,z
2 -x,-y,-z
_cell_length_a                   7.9160(6)
_cell_length_b                   9.8470(6)
_cell_length_c                   12.3770(9)
_cell_angle_alpha                103.997(6)
_cell_angle_beta                 94.233(6)
_cell_angle_gamma                107.480(6)
_cell_volume                     881.647
loop_
_atom_site_label
_atom_site_type_symbol
_atom_site_fract_x
_atom_site_fract_y
_atom_site_fract_z
Cd1 Cd 0.65083(4) 0.05839(3) 0.89914(3)
C1 C 0.3432(7) -0.1951(5) 0.7008(4)
C2 C 0.3539(6) -0.2730(5) 0.5808(4)
C3 C 0.2391(7) -0.4138(5) 0.5296(4)
H1 H 0.1607 -0.4637 0.5704
C4 C 0.2387(7) -0.4821(5) 0.4180(4)
H2 H 0.1569 -0.5761 0.3840
C5 C 0.3567(6) -0.4140(4) 0.3566(4)
C6 C 0.4749(6) -0.2757(5) 0.4080(4)
H3 H 0.5568 -0.2279 0.3680
C7 C 0.4739(6) -0.2052(5) 0.5203(4)
H4 H 0.5556 -0.1112 0.5543
C8 C 0.3378(6) -0.4915(4) 0.2327(4)
H5 H 0.3115 -0.5968 0.2236
H6 H 0.2363 -0.4788 0.1923
C9 C 0.6272(7) -0.5012(5) 0.1838(4)
H7 H 0.6167 -0.5731 0.2220
C10 C 0.7709(7) -0.4621(5) 0.1322(4)
H8 H 0.8599 -0.5056 0.1350
C11 C 0.7833(6) -0.3548(4) 0.0746(4)
H9 H 0.8820 -0.3275 0.0386
C12 C 0.6546(5) -0.2880(4) 0.0691(3)
C13 C 0.5026(6) -0.3261(4) 0.1276(3)
C14 C 0.6747(5) -0.1808(4) -0.0006(3)
C15 C 0.8562(7) 0.1507(5) 0.7005(4)
H10 H 0.8187 0.2321 0.7259
C16 C 0.9132(7) 0.1314(5) 0.5979(4)
H11 H 0.9122 0.1980 0.5561
C17 C 0.9715(5) 0.0143(4) 0.5568(4)
C18 C 0.9766(7) -0.0741(6) 0.6266(4)
H12 H 1.0224 -0.1515 0.6056
C19 C 0.9134(7) -0.0477(6) 0.7281(4)
H13 H 0.9150 -0.1112 0.7725
N1 N 0.4975(5) -0.4378(3) 0.1809(3)
N2 N 0.8504(5) 0.0627(4) 0.7662(3)
O1 O 0.4552(5) -0.0676(4) 0.7415(3)
O2 O 0.2229(4) -0.2582(3) 0.7469(3)
O3 O 0.8027(4) -0.1576(3) -0.0536(3)
O4 O 0.5561(4) -0.1190(3) -0.0078(2)
O5 O 0.3782(4) -0.2747(3) 0.1334(2)
O6 O 0.8667(4) 0.1986(3) 1.0493(3)
H14 H 0.828(6) 0.203(5) 1.104(4)
H15 H 0.966(3) 0.174(5) 1.059(4)
C15A C 1.1438(7) -0.1507(5) 0.2995(4)
H10A H 1.1813 -0.2321 0.2741
C16A C 1.0868(7) -0.1314(5) 0.4021(4)
H11A H 1.0878 -0.1980 0.4439
C17A C 1.0285(5) -0.0143(4) 0.4432(4)
C18A C 1.0234(7) 0.0741(6) 0.3734(4)
H12A H 0.9776 0.1515 0.3944
C19A C 1.0866(7) 0.0477(6) 0.2719(4)
H13A H 1.0850 0.1112 0.2275
N2A N 1.1496(5) -0.0627(4) 0.2338(3)
Cd1A Cd 0.34917(4) -0.05839(3) 0.10086(3)
C1A C 0.6568(7) 0.1951(5) 0.2992(4)
C2A C 0.6461(6) 0.2730(5) 0.4192(4)
C3A C 0.7609(7) 0.4138(5) 0.4704(4)
H1A H 0.8393 0.4637 0.4296
C4A C 0.7613(7) 0.4821(5) 0.5820(4)
H2A H 0.8431 0.5761 0.6160
C5A C 0.6433(6) 0.4140(4) 0.6434(4)
C6A C 0.5251(6) 0.2757(5) 0.5920(4)
H3A H 0.4432 0.2279 0.6320
C7A C 0.5261(6) 0.2052(5) 0.4797(4)
H4A H 0.4444 0.1112 0.4457
C8A C 0.6622(6) 0.4915(4) 0.7673(4)
H5A H 0.6885 0.5968 0.7764
H6A H 0.7637 0.4788 0.8077
C9A C 0.3728(7) 0.5012(5) 0.8162(4)
H7A H 0.3833 0.5731 0.7780
C10A C 0.2291(7) 0.4621(5) 0.8678(4)
H8A H 0.1401 0.5056 0.8650
C11A C 0.2167(6) 0.3548(4) 0.9254(4)
H9A H 0.1180 0.3275 0.9614
C12A C 0.3454(5) 0.2880(4) 0.9309(3)
C13A C 0.4974(6) 0.3261(4) 0.8724(3)
C14A C 0.3253(5) 0.1808(4) 1.0006(3)
N1A N 0.5025(5) 0.4378(3) 0.8191(3)
O1A O 0.5448(5) 0.0676(4) 0.2585(3)
O2A O 0.7771(4) 0.2582(3) 0.2531(3)
O3A O 0.1973(4) 0.1576(3) 1.0536(3)
O4A O 0.4439(4) 0.1190(3) 1.0078(2)
O5A O 0.6218(4) 0.2747(3) 0.8666(2)
O6A O 0.1333(4) -0.1986(3) -0.0493(3)
H14A H 0.172(6) -0.203(5) -0.104(4)
H15A H 0.034(3) -0.174(5) -0.059(4)
Cd1_2 Cd 0.65083(4) 0.05839(3) -0.10086(3)
Cd1A_2 Cd 0.34917(4) -0.05839(3) 1.10086(3)
Cd1A_3 Cd 1.34917(4) -0.05839(3) 0.10086(3)
N2A_2 N 0.1496(5) -0.0627(4) 0.2338(3)
O4_2 O 0.5561(4) -0.1190(3) 0.9922(2)
O4A_2 O 0.4439(4) 0.1190(3) 0.0078(2)
loop_
_geom_bond_atom_site_label_1
_geom_bond_atom_site_label_2
_geom_bond_site_symmetry_1
_geom_bond_site_symmetry_2
Cd1 N2 1_555 1_555
C1 C2 1_555 1_555
C2 C3 1_555 1_555
C3 H1 1_555 1_555
C4 C3 1_555 1_555
H2 C4 1_555 1_555
C5 C4 1_555 1_555
C6 C5 1_555 1_555
H3 C6 1_555 1_555
C7 C2 1_555 1_555
H4 C7 1_555 1_555
C8 C5 1_555 1_555
H5 C8 1_555 1_555
H6 C8 1_555 1_555
C9 H7 1_555 1_555
C10 C9 1_555 1_555
H8 C10 1_555 1_555
C11 C10 1_555 1_555
H9 C11 1_555 1_555
C12 C11 1_555 1_555
C13 C12 1_555 1_555
C14 C12 1_555 1_555
C15 H10 1_555 1_555
C16 C15 1_555 1_555
H11 C16 1_555 1_555
C17 C16 1_555 1_555
C18 C17 1_555 1_555
H12 C18 1_555 1_555
C19 C18 1_555 1_555
H13 C19 1_555 1_555
N1 C8 1_555 1_555
N2 C15 1_555 1_555
O1 Cd1 1_555 1_555
O2 C1 1_555 1_555
O3 C14 1_555 1_555
O4 C14 1_555 1_555
O5 C13 1_555 1_555
O6 Cd1 1_555 1_555
H14 O6 1_555 1_555
H15 O6 1_555 1_555
C15A H10A 1_555 1_555
C16A C15A 1_555 1_555
H11A C16A 1_555 1_555
C17A C17 1_555 1_555
C18A C17A 1_555 1_555
H12A C18A 1_555 1_555
C19A C18A 1_555 1_555
H13A C19A 1_555 1_555
N2A C15A 1_555 1_555
Cd1A O4 1_555 1_555
C1A C2A 1_555 1_555
C2A C3A 1_555 1_555
C3A H1A 1_555 1_555
C4A C3A 1_555 1_555
H2A C4A 1_555 1_555
C5A C4A 1_555 1_555
C6A C5A 1_555 1_555
H3A C6A 1_555 1_555
C7A C2A 1_555 1_555
H4A C7A 1_555 1_555
C8A C5A 1_555 1_555
H5A C8A 1_555 1_555
H6A C8A 1_555 1_555
C9A H7A 1_555 1_555
C10A C9A 1_555 1_555
H8A C10A 1_555 1_555
C11A C10A 1_555 1_555
H9A C11A 1_555 1_555
C12A C11A 1_555 1_555
C13A C12A 1_555 1_555
C14A C12A 1_555 1_555
N1A C8A 1_555 1_555
O1A Cd1A 1_555 1_555
O2A C1A 1_555 1_555
O3A C14A 1_555 1_555
O4A Cd1 1_555 1_555
O5A Cd1 1_555 1_555
O6A Cd1A 1_555 1_555
H14A O6A 1_555 1_555
H15A O6A 1_555 1_555
Cd1_2 O4 1_555 1_555
Cd1A_2 O4A 1_555 1_555
Cd1A_3 N2A 1_555 1_555
N2A_2 Cd1A 1_555 1_555
O4_2 Cd1 1_555 1_555
O4A_2 Cd1A 1_555 1_555
C1 O1 1_555 1_555
C6 C7 1_555 1_555
C9 N1 1_555 1_555
C13 N1 1_555 1_555
C19 N2 1_555 1_555
O5 Cd1A 1_555 1_555
C16A C17A 1_555 1_555
C19A N2A 1_555 1_555
C1A O1A 1_555 1_555
C6A C7A 1_555 1_555
C9A N1A 1_555 1_555
C13A N1A 1_555 1_555
C13A O5A 1_555 1_555
C14A O4A 1_555 1_555
Cd1_2 O4A_2 1_555 1_555
Cd1A_2 O4_2 1_555 1_555

#END
