
#######################################################################
#
#                 Cambridge Crystallographic Data Centre
#                                CCDC 
#
#######################################################################
#
# If this CIF has been generated from an entry in the Cambridge 
# Structural Database, then it will include bibliographic, chemical, 
# crystal, experimental, refinement or atomic coordinate data resulting 
# from the CCDC's data processing and validation procedures.
#
#######################################################################

data_FIHKEO
_symmetry_cell_setting           monoclinic
_symmetry_space_group_name_H-M   'P 21/n'
_symmetry_Int_Tables_number      14
_space_group_name_Hall           '-P 2yn'
loop_
_symmetry_equiv_pos_site_id
_symmetry_equiv_pos_as_xyz
1 x,y,z
2 1/2-x,1/2+y,1/2-z
3 -x,-y,-z
4 1/2+x,1/2-y,1/2+z
_cell_length_a                   20.150(5)
_cell_length_b                   6.903(5)
_cell_length_c                   20.342(5)
_cell_angle_alpha                90
_cell_angle_beta                 116.516(5)
_cell_angle_gamma                90
_cell_volume                     2531.85
loop_
_atom_site_label
_atom_site_type_symbol
_atom_site_fract_x
_atom_site_fract_y
_atom_site_fract_z
Ag1 Ag 0.08181(2) 0.01541(6) 0.17423(2)
O1 O -0.1640(2) -0.1661(6) -0.1346(2)
O2 O 0.4069(2) 0.2093(6) 0.3907(2)
N1 N 0.1731(3) -0.0773(7) 0.4121(3)
N2 N 0.1530(3) -0.0129(7) 0.2970(2)
N3 N -0.2286(3) 0.0374(7) -0.0111(3)
N4 N -0.0421(3) -0.0286(7) 0.1259(3)
C1 C -0.0970(3) -0.0441(8) 0.0546(3)
N5 N 0.3019(3) 0.0160(7) 0.4776(3)
N6 N 0.3477(3) 0.1373(7) 0.3972(3)
C2 C 0.2253(3) 0.0358(8) 0.3453(3)
N7 N -0.1618(3) -0.0998(7) -0.0711(3)
C3 C 0.2377(3) -0.0050(8) 0.4162(3)
C4 C -0.1634(3) 0.0276(8) 0.0491(3)
N8 N -0.0404(3) -0.2038(7) -0.0143(2)
H1 H -0.0456 -0.2461 -0.0561
H2 H 0.0014 -0.2171 0.0241
N9 N 0.2845(3) 0.1508(7) 0.2707(3)
H3 H 0.3243 0.1947 0.2704
H4 H 0.2452 0.1343 0.2300
N10 N -0.1490(3) 0.0888(8) 0.1179(3)
C5 C 0.3550(3) 0.0876(8) 0.4645(3)
H5 H 0.4012 0.1057 0.5044
C6 C -0.0961(3) -0.1189(8) -0.0092(3)
C7 C 0.2837(3) 0.1086(8) 0.3338(3)
C8 C -0.2244(3) -0.0267(8) -0.0701(3)
H6 H -0.2673 -0.0220 -0.1144
C9 C 0.1585(4) -0.1349(9) 0.4744(3)
H7 H 0.2052 -0.1629 0.5168
H8 H 0.1289 -0.2524 0.4617
C10 C 0.1184(4) 0.0204(11) 0.4943(4)
H9 H 0.0700 0.0416 0.4534
H10 H 0.1461 0.1406 0.5037
C11 C -0.0755(3) 0.0495(9) 0.1611(3)
H11 H -0.0517 0.0763 0.2112
C12 C 0.1251(3) -0.0781(9) 0.3396(3)
H12 H 0.0764 -0.1214 0.3218
C13 C 0.1092(5) -0.0357(14) 0.5617(4)
H13 H 0.0835 0.0657 0.5733
H14 H 0.1571 -0.0549 0.6024
H15 H 0.0810 -0.1535 0.5521
C14 C -0.2009(4) 0.1850(13) 0.1399(4)
H16 H -0.2294 0.2803 0.1030
H17 H -0.1729 0.2531 0.1858
C15 C -0.2531(5) 0.0473(17) 0.1494(5)
H18 H -0.2888 0.1209 0.1591
H19 H -0.2802 -0.0228 0.1038
C16 C -0.2165(6) -0.094(2) 0.2093(6)
H20 H -0.2532 -0.1774 0.2122
H21 H -0.1907 -0.0258 0.2550
H22 H -0.1818 -0.1694 0.1997
Ag1A Ag 0.41819(2) 0.51541(6) 0.32577(2)
Ag1B Ag -0.08181(2) -0.01541(6) -0.17423(2)
O1B O 0.1640(2) 0.1661(6) 0.1346(2)
O2A O 0.0931(2) -0.2907(6) 0.1093(2)
S1 S 0.02151(10) 0.4160(2) 0.31281(9)
F1 F -0.0242(3) 0.7269(6) 0.3528(3)
O3 O 0.0118(3) 0.2132(7) 0.3233(3)
F2 F 0.0056(4) 0.4928(8) 0.4307(3)
O4 O -0.0209(3) 0.4825(7) 0.2384(3)
F3 F -0.0961(3) 0.4814(7) 0.3311(3)
O5 O 0.0954(3) 0.4878(8) 0.3494(3)
C17 C -0.0253(4) 0.5312(12) 0.3596(5)
O6 O 0.4882(3) -0.0914(7) 0.3789(3)
H23 H 0.462(6) -0.006(14) 0.380(6)
H24 H 0.500(5) -0.084(14) 0.343(5)
O7 O -0.1575(8) 0.613(2) 0.1272(7)
loop_
_geom_bond_atom_site_label_1
_geom_bond_atom_site_label_2
_geom_bond_site_symmetry_1
_geom_bond_site_symmetry_2
Ag1 N2 1_555 1_555
O1 N7 1_555 1_555
O2 N6 1_555 1_555
N1 C3 1_555 1_555
N2 C2 1_555 1_555
N3 C4 1_555 1_555
N4 Ag1 1_555 1_555
C1 N4 1_555 1_555
N5 C3 1_555 1_555
N6 C5 1_555 1_555
C2 C3 1_555 1_555
N7 C6 1_555 1_555
C4 C1 1_555 1_555
N8 H1 1_555 1_555
H2 N8 1_555 1_555
N9 H3 1_555 1_555
H4 N9 1_555 1_555
N10 C4 1_555 1_555
C5 N5 1_555 1_555
H5 C5 1_555 1_555
C6 C1 1_555 1_555
C7 N6 1_555 1_555
C8 N3 1_555 1_555
H6 C8 1_555 1_555
C9 N1 1_555 1_555
H7 C9 1_555 1_555
H8 C9 1_555 1_555
C10 C9 1_555 1_555
H9 C10 1_555 1_555
H10 C10 1_555 1_555
C11 N4 1_555 1_555
H11 C11 1_555 1_555
C12 N1 1_555 1_555
H12 C12 1_555 1_555
C13 C10 1_555 1_555
H13 C13 1_555 1_555
H14 C13 1_555 1_555
H15 C13 1_555 1_555
C14 N10 1_555 1_555
H16 C14 1_555 1_555
H17 C14 1_555 1_555
C15 C14 1_555 1_555
H18 C15 1_555 1_555
H19 C15 1_555 1_555
C16 C15 1_555 1_555
H20 C16 1_555 1_555
H21 C16 1_555 1_555
H22 C16 1_555 1_555
S1 O3 1_555 1_555
F1 C17 1_555 1_555
F2 C17 1_555 1_555
O4 S1 1_555 1_555
F3 C17 1_555 1_555
O5 S1 1_555 1_555
C17 S1 1_555 1_555
O6 H23 1_555 1_555
H24 O6 1_555 1_555
Ag1A O2 1_555 1_555
Ag1B O1 1_555 1_555
O1B Ag1 1_555 1_555
O2A Ag1 1_555 1_555
N2 C12 1_555 1_555
C2 C7 1_555 1_555
N7 C8 1_555 1_555
N8 C6 1_555 1_555
N9 C7 1_555 1_555
N10 C11 1_555 1_555

#END
