
#######################################################################
#
#                 Cambridge Crystallographic Data Centre
#                                CCDC 
#
#######################################################################
#
# If this CIF has been generated from an entry in the Cambridge 
# Structural Database, then it will include bibliographic, chemical, 
# crystal, experimental, refinement or atomic coordinate data resulting 
# from the CCDC's data processing and validation procedures.
#
#######################################################################

data_FIHKAK
_symmetry_cell_setting           monoclinic
_symmetry_space_group_name_H-M   'P 21/c'
_symmetry_Int_Tables_number      14
_space_group_name_Hall           '-P 2ybc'
loop_
_symmetry_equiv_pos_site_id
_symmetry_equiv_pos_as_xyz
1 x,y,z
2 -x,1/2+y,1/2-z
3 -x,-y,-z
4 x,1/2-y,1/2+z
_cell_length_a                   16.106(5)
_cell_length_b                   6.901(5)
_cell_length_c                   21.480(5)
_cell_angle_alpha                90
_cell_angle_beta                 93.470(5)
_cell_angle_gamma                90
_cell_volume                     2383.07
loop_
_atom_site_label
_atom_site_type_symbol
_atom_site_fract_x
_atom_site_fract_y
_atom_site_fract_z
Ag1 Ag 0.60359(3) 0.02853(8) 0.87686(2)
O1 O 0.5278(3) -0.1867(8) 1.1489(2)
O2 O 0.4801(3) 0.2175(7) 0.6025(2)
N1 N 0.5929(4) -0.1157(8) 1.1197(3)
N2 N 0.7860(4) 0.0845(9) 1.0313(3)
N3 N 0.7608(4) -0.0457(9) 0.7176(3)
N4 N 0.6799(4) -0.0230(9) 0.9678(3)
C1 C 0.6305(5) 0.0594(10) 0.7211(3)
N5 N 0.6585(4) 0.0191(9) 0.7826(3)
N6 N 0.5519(4) 0.1492(8) 0.6314(2)
C2 C 0.6609(4) -0.0478(10) 1.0294(3)
N7 N 0.6878(4) 0.0307(8) 0.6181(3)
N8 N 0.5254(4) -0.2081(9) 1.0268(2)
H1 H 0.4856 -0.2522 1.0477
H2 H 0.5226 -0.2170 0.9868
C3 C 0.7256(5) 0.0178(10) 1.0693(3)
N9 N 0.4863(4) 0.1738(9) 0.7233(3)
H3 H 0.4432 0.2172 0.7022
H4 H 0.4856 0.1612 0.7631
C4 C 0.7540(5) 0.0540(11) 0.9714(3)
H5 H 0.7827 0.0854 0.9365
N10 N 0.7300(4) 0.0197(8) 1.1320(3)
C5 C 0.6624(5) -0.0473(11) 1.1544(3)
H6 H 0.6604 -0.0496 1.1976
C6 C 0.6933(5) 0.0188(10) 0.6799(3)
C7 C 0.6159(4) 0.0945(10) 0.5962(3)
H7 H 0.6073 0.1038 0.5531
C8 C 0.5902(4) -0.1276(9) 1.0559(3)
C9 C 0.5538(4) 0.1264(10) 0.6946(3)
C10 C 0.8409(4) -0.1041(12) 0.6948(3)
H8 H 0.8335 -0.1325 0.6506
H9 H 0.8592 -0.2222 0.7159
C11 C 0.9296(7) -0.1710(16) 1.0485(5)
H10 H 0.9656 -0.2595 1.0716
H11 H 0.9520 -0.1439 1.0090
H12 H 0.8754 -0.2278 1.0418
C12 C 0.7359(4) -0.0397(10) 0.7770(3)
H13 H 0.7708 -0.0744 0.8113
C13 C 0.9084(6) 0.0506(14) 0.7050(4)
H14 H 0.9538 0.0215 0.6788
H15 H 0.8856 0.1755 0.6923
C14 C 0.8675(5) 0.1653(13) 1.0501(4)
H16 H 0.8605 0.2771 1.0767
H17 H 0.8944 0.2085 1.0134
C15 C 0.9419(6) 0.0629(16) 0.7719(5)
H18 H 0.9842 0.1608 0.7758
H19 H 0.9652 -0.0599 0.7847
H20 H 0.8976 0.0955 0.7980
C16 C 0.9229(6) 0.0165(15) 1.0851(4)
H21 H 0.9780 0.0709 1.0932
H22 H 0.9003 -0.0115 1.1250
Ag1A Ag 0.39641(3) 0.52853(8) 0.62314(2)
Ag1B Ag 0.39641(3) -0.02853(8) 1.12314(2)
O1B O 0.4722(3) 0.1867(8) 0.8511(2)
O2A O 0.5199(3) -0.2825(7) 0.8975(2)
P1 P 0.8270(2) -0.4703(4) 0.87293(15)
F1 F 0.8452(3) -0.2467(8) 0.8881(3)
F2 F 0.7937(4) -0.4974(8) 0.9418(3)
F3 F 0.7349(4) -0.4134(11) 0.8475(3)
F4 F 0.8582(6) -0.4415(11) 0.8052(4)
F5 F 0.8059(7) -0.6918(10) 0.8592(4)
F6 F 0.9167(5) -0.5267(14) 0.8995(5)
O3 O 0.3830(3) -0.0813(8) 0.5593(3)
loop_
_geom_bond_atom_site_label_1
_geom_bond_atom_site_label_2
_geom_bond_site_symmetry_1
_geom_bond_site_symmetry_2
Ag1 N4 1_555 1_555
O1 N1 1_555 1_555
O2 N6 1_555 1_555
N1 C5 1_555 1_555
N2 C3 1_555 1_555
N3 C6 1_555 1_555
N4 C2 1_555 1_555
C1 N5 1_555 1_555
N5 Ag1 1_555 1_555
N6 C7 1_555 1_555
C2 C3 1_555 1_555
N7 C6 1_555 1_555
N8 H1 1_555 1_555
H2 N8 1_555 1_555
C3 N10 1_555 1_555
N9 H3 1_555 1_555
H4 N9 1_555 1_555
C4 N2 1_555 1_555
H5 C4 1_555 1_555
N10 C5 1_555 1_555
C5 H6 1_555 1_555
C6 C1 1_555 1_555
C7 N7 1_555 1_555
H7 C7 1_555 1_555
C8 N1 1_555 1_555
C9 C1 1_555 1_555
C10 N3 1_555 1_555
H8 C10 1_555 1_555
H9 C10 1_555 1_555
C11 H10 1_555 1_555
H11 C11 1_555 1_555
H12 C11 1_555 1_555
C12 N3 1_555 1_555
H13 C12 1_555 1_555
C13 C10 1_555 1_555
H14 C13 1_555 1_555
H15 C13 1_555 1_555
C14 N2 1_555 1_555
H16 C14 1_555 1_555
H17 C14 1_555 1_555
C15 C13 1_555 1_555
H18 C15 1_555 1_555
H19 C15 1_555 1_555
H20 C15 1_555 1_555
C16 C11 1_555 1_555
H21 C16 1_555 1_555
H22 C16 1_555 1_555
P1 F1 1_555 1_555
F2 P1 1_555 1_555
F3 P1 1_555 1_555
F4 P1 1_555 1_555
F5 P1 1_555 1_555
F6 P1 1_555 1_555
Ag1A O2 1_555 1_555
Ag1B O1 1_555 1_555
O1B Ag1 1_555 1_555
O2A Ag1 1_555 1_555
N4 C4 1_555 1_555
N5 C12 1_555 1_555
N6 C9 1_555 1_555
C2 C8 1_555 1_555
N8 C8 1_555 1_555
N9 C9 1_555 1_555
C14 C16 1_555 1_555

#END
