
#######################################################################
#
#                 Cambridge Crystallographic Data Centre
#                                CCDC 
#
#######################################################################
#
# If this CIF has been generated from an entry in the Cambridge 
# Structural Database, then it will include bibliographic, chemical, 
# crystal, experimental, refinement or atomic coordinate data resulting 
# from the CCDC's data processing and validation procedures.
#
#######################################################################

data_FIHMUE
_symmetry_cell_setting           orthorhombic
_symmetry_space_group_name_H-M   'P b n b'
_symmetry_Int_Tables_number      56
_space_group_name_Hall           '-P 2bc 2ab'
loop_
_symmetry_equiv_pos_site_id
_symmetry_equiv_pos_as_xyz
1 x,y,z
2 1/2-x,1/2+y,z
3 1/2+x,-y,1/2+z
4 -x,1/2-y,1/2+z
5 -x,-y,-z
6 1/2+x,1/2-y,-z
7 1/2-x,y,1/2-z
8 x,1/2+y,1/2-z
_cell_length_a                   9.964(2)
_cell_length_b                   12.414(3)
_cell_length_c                   12.510(3)
_cell_angle_alpha                90
_cell_angle_beta                 90
_cell_angle_gamma                90
_cell_volume                     1547.4
loop_
_atom_site_label
_atom_site_type_symbol
_atom_site_fract_x
_atom_site_fract_y
_atom_site_fract_z
Sn1 Sn 0.0784 0.1913(1) 0.2404(1)
Cl1 Cl 0.1713(3) 0.3031(2) 0.3873(2)
Cl2 Cl -0.0887(3) 0.1078(3) 0.3453(2)
N1 N 0.0197(8) 0.0669(5) 0.0862(6)
C1 C 0.1012(9) 0.0643(7) 0.0018(7)
C2 C -0.0845(9) 0.0003(7) 0.0807(7)
C3 C -0.0229(12) 0.3135(8) 0.1543(8)
C4 C 0.2500 0.0939(8) 0.2500
H1 H 0.1767 0.1123 0.0011
H2 H -0.1487 -0.0008 0.1379
H3 H -0.0201 0.3795 0.1942
H4 H -0.1147 0.2926 0.1434
H5 H 0.0200 0.3237 0.0864
H6 H 0.2445 0.0493 0.3125
C2D C 0.0845(9) -0.0003(7) -0.0807(7)
C1D C -0.1012(9) -0.0643(7) -0.0018(7)
Sn1F Sn 0.4216 0.1913(1) 0.2596(1)
H6F H 0.2555 0.0493 0.1875
N1D N -0.0197(8) -0.0669(5) -0.0862(6)
H2D H 0.1487 0.0008 -0.1379
H1D H -0.1767 -0.1123 -0.0011
Cl1F Cl 0.3287(3) 0.3031(2) 0.1127(2)
Cl2F Cl 0.5887(3) 0.1078(3) 0.1547(2)
N1F N 0.4803(8) 0.0669(5) 0.4138(6)
C3F C 0.5229(12) 0.3135(8) 0.3457(8)
Sn1D Sn -0.0784 -0.1913(1) -0.2404(1)
H3F H 0.5201 0.3795 0.3058
H4F H 0.6147 0.2926 0.3566
H5F H 0.4800 0.3237 0.4136
loop_
_geom_bond_atom_site_label_1
_geom_bond_atom_site_label_2
_geom_bond_site_symmetry_1
_geom_bond_site_symmetry_2
Sn1 Cl1 1_555 1_555
Cl2 Sn1 1_555 1_555
N1 Sn1 1_555 1_555
C1 N1 1_555 1_555
C2 N1 1_555 1_555
C3 Sn1 1_555 1_555
C4 Sn1 1_555 1_555
H1 C1 1_555 1_555
H2 C2 1_555 1_555
H3 C3 1_555 1_555
H4 C3 1_555 1_555
H5 C3 1_555 1_555
H6 C4 1_555 1_555
C2D C1 1_555 1_555
C1D C2 1_555 1_555
Sn1F C4 1_555 1_555
H6F C4 1_555 1_555
N1D C2D 1_555 1_555
H2D C2D 1_555 1_555
H1D C1D 1_555 1_555
Cl1F Sn1F 1_555 1_555
Cl2F Sn1F 1_555 1_555
N1F Sn1F 1_555 1_555
C3F Sn1F 1_555 1_555
Sn1D N1D 1_555 1_555
H3F C3F 1_555 1_555
H4F C3F 1_555 1_555
H5F C3F 1_555 1_555
C1D N1D 1_555 1_555

#END
