
#######################################################################
#
#                 Cambridge Crystallographic Data Centre
#                                CCDC 
#
#######################################################################
#
# If this CIF has been generated from an entry in the Cambridge 
# Structural Database, then it will include bibliographic, chemical, 
# crystal, experimental, refinement or atomic coordinate data resulting 
# from the CCDC's data processing and validation procedures.
#
#######################################################################

data_FIHVUO
_symmetry_cell_setting           triclinic
_symmetry_space_group_name_H-M   'P -1'
_symmetry_Int_Tables_number      2
_space_group_name_Hall           '-P 1'
loop_
_symmetry_equiv_pos_site_id
_symmetry_equiv_pos_as_xyz
1 x,y,z
2 -x,-y,-z
_cell_length_a                   7.9778(6)
_cell_length_b                   8.6860(7)
_cell_length_c                   11.045(1)
_cell_angle_alpha                86.985(2)
_cell_angle_beta                 73.162(1)
_cell_angle_gamma                88.675(2)
_cell_volume                     731.513
loop_
_atom_site_label
_atom_site_type_symbol
_atom_site_fract_x
_atom_site_fract_y
_atom_site_fract_z
Cd1 Cd 0.5000 0.5000 0.0000
Cd2 Cd -0.5000 0.0000 0.5000
O1 O 0.2846(5) 0.3340(5) 0.0031(4)
O2 O 0.3706(5) 0.2523(5) -0.1929(4)
O3 O -0.2324(5) 0.1158(5) 0.4526(5)
O4 O -0.2994(5) 0.3410(5) 0.3716(5)
O5 O -0.5269(5) 0.0145(5) 0.2900(4)
N1 N -0.3782(5) 0.3069(5) 0.1236(4)
H1 H -0.3573 0.3606 0.1846
H2 H -0.4524 0.2342 0.1656
N2 N -0.1657(6) -0.0582(5) -0.2064(5)
H3 H -0.0797 -0.0684 -0.2797
H4 H -0.1883 -0.1525 -0.1688
N3 N 0.3040(5) 0.5872(5) 0.1971(4)
H5 H 0.2238 0.6408 0.1694
H6 H 0.3744 0.6488 0.2216
N4 N 0.3493(6) 0.2390(5) 0.5431(4)
H7 H 0.2818 0.2355 0.6244
H8 H 0.4501 0.2876 0.5352
C1 C 0.2575(7) 0.2746(6) -0.0907(5)
C2 C 0.0722(6) 0.2224(6) -0.0740(5)
C3 C -0.0654(7) 0.2826(6) 0.0208(5)
H9 H -0.0435 0.3571 0.0717
C4 C -0.2346(7) 0.2319(6) 0.0396(5)
C5 C -0.2665(6) 0.1166(6) -0.0339(5)
H10 H -0.3797 0.0804 -0.0195
C6 C -0.1288(6) 0.0548(6) -0.1292(5)
C7 C 0.0403(6) 0.1090(6) -0.1496(5)
H11 H 0.1321 0.0699 -0.2136
C8 C -0.2004(7) 0.2529(7) 0.4116(5)
C9 C -0.0185(6) 0.3114(6) 0.4027(5)
C10 C 0.0527(6) 0.4290(6) 0.3125(5)
H12 H -0.0141 0.4754 0.2641
C11 C 0.2236(6) 0.4767(6) 0.2952(5)
C12 C 0.3173(6) 0.4153(6) 0.3746(5)
H13 H 0.4290 0.4515 0.3666
C13 C 0.2465(6) 0.3011(6) 0.4653(5)
C14 C 0.0779(7) 0.2455(6) 0.4791(5)
H14 H 0.0314 0.1661 0.5382
H15 H -0.455(8) -0.047(7) 0.227(5)
H16 H -0.644(4) 0.021(8) 0.290(7)
Cd1_2 Cd -0.5000 0.5000 0.0000
Cd1_3 Cd 1.5000 0.5000 0.0000
Cd2_2 Cd 0.5000 0.0000 0.5000
Cd2_3 Cd 1.5000 1.0000 -0.5000
Cd2_4 Cd 0.5000 1.0000 -0.5000
O1A O 0.7154(5) 0.6660(5) -0.0031(4)
O2A O 0.6294(5) 0.7477(5) 0.1929(4)
O3A O 1.2324(5) 0.8842(5) -0.4526(5)
O3A_2 O -0.7676(5) -0.1158(5) 0.5474(5)
O4A O 1.2994(5) 0.6590(5) -0.3716(5)
O5A O -0.4731(5) -0.0145(5) 0.7100(4)
N1A N 1.3782(5) 0.6931(5) -0.1236(4)
N1_2 N 0.6218(5) 0.3069(5) 0.1236(4)
N1A_2 N 0.3782(5) 0.6931(5) -0.1236(4)
H1A H 1.3573 0.6394 -0.1846
H1_2 H 0.6427 0.3606 0.1846
H1A_2 H 0.3573 0.6394 -0.1846
H2A H 1.4524 0.7658 -0.1656
H2_2 H 0.5476 0.2342 0.1656
H2A_2 H 0.4524 0.7658 -0.1656
N2A N 1.1657(6) 1.0582(5) 0.2064(5)
H3A H 1.0797 1.0684 0.2797
H4A H 1.1883 1.1525 0.1688
N3A N 0.6960(5) 0.4128(5) -0.1971(4)
H5A H 0.7762 0.3592 -0.1694
H6A H 0.6256 0.3512 -0.2216
N4A N 0.6507(6) 0.7610(5) -0.5431(4)
N4_2 N -0.6507(6) 0.2390(5) 0.5431(4)
N4A_2 N -0.3493(6) -0.2390(5) 0.4569(4)
H7A H 0.7182 0.7645 -0.6244
H7_2 H -0.7182 0.2355 0.6244
H7A_2 H -0.2818 -0.2355 0.3756
H8A H 0.5499 0.7124 -0.5352
H8_2 H -0.5499 0.2876 0.5352
H8A_2 H -0.4501 -0.2876 0.4648
C1A C 0.7425(7) 0.7254(6) 0.0907(5)
C2A C 0.9278(6) 0.7776(6) 0.0740(5)
C3A C 1.0654(7) 0.7174(6) -0.0208(5)
H9A H 1.0435 0.6429 -0.0717
C4A C 1.2346(7) 0.7681(6) -0.0396(5)
C5A C 1.2665(6) 0.8834(6) 0.0339(5)
H10A H 1.3797 0.9196 0.0195
C6A C 1.1288(6) 0.9452(6) 0.1292(5)
C7A C 0.9597(6) 0.8910(6) 0.1496(5)
H11A H 0.8679 0.9301 0.2136
C8A C 1.2004(7) 0.7471(7) -0.4116(5)
C9A C 1.0185(6) 0.6886(6) -0.4027(5)
C10A C 0.9473(6) 0.5710(6) -0.3125(5)
H12A H 1.0141 0.5246 -0.2641
C11A C 0.7764(6) 0.5233(6) -0.2952(5)
C12A C 0.6827(6) 0.5847(6) -0.3746(5)
H13A H 0.5710 0.5485 -0.3666
C13A C 0.7535(6) 0.6989(6) -0.4653(5)
C14A C 0.9221(7) 0.7545(6) -0.4791(5)
H14A H 0.9686 0.8339 -0.5382
H15A H -0.545(8) 0.047(7) 0.773(5)
H16A H -0.356(4) -0.021(8) 0.710(7)
loop_
_geom_bond_atom_site_label_1
_geom_bond_atom_site_label_2
_geom_bond_site_symmetry_1
_geom_bond_site_symmetry_2
Cd1 O1 1_555 1_555
Cd2 O3 1_555 1_555
O1 C1 1_555 1_555
O2 C1 1_555 1_555
O3 C8 1_555 1_555
O4 C8 1_555 1_555
O5 Cd2 1_555 1_555
N1 H1 1_555 1_555
H2 N1 1_555 1_555
N2 H3 1_555 1_555
H4 N2 1_555 1_555
N3 Cd1 1_555 1_555
H5 N3 1_555 1_555
H6 N3 1_555 1_555
N4 H7 1_555 1_555
H8 N4 1_555 1_555
C1 C2 1_555 1_555
C2 C3 1_555 1_555
C3 H9 1_555 1_555
C4 N1 1_555 1_555
C5 C4 1_555 1_555
H10 C5 1_555 1_555
C6 N2 1_555 1_555
C7 C2 1_555 1_555
H11 C7 1_555 1_555
C8 C9 1_555 1_555
C9 C10 1_555 1_555
C10 H12 1_555 1_555
C11 N3 1_555 1_555
C12 C11 1_555 1_555
H13 C12 1_555 1_555
C13 N4 1_555 1_555
C14 C9 1_555 1_555
H14 C14 1_555 1_555
H15 O5 1_555 1_555
H16 O5 1_555 1_555
Cd1_2 N1 1_555 1_555
Cd1_3 N1A 1_555 1_555
Cd2_2 N4 1_555 1_555
Cd2_3 O3A 1_555 1_555
Cd2_4 N4A 1_555 1_555
O1A Cd1 1_555 1_555
O2A C1A 1_555 1_555
O3A C8A 1_555 1_555
O3A_2 Cd2 1_555 1_555
O4A C8A 1_555 1_555
O5A Cd2 1_555 1_555
N1A H1A 1_555 1_555
N1_2 Cd1 1_555 1_555
N1A_2 Cd1 1_555 1_555
H1_2 N1_2 1_555 1_555
H1A_2 N1A_2 1_555 1_555
H2A N1A 1_555 1_555
H2_2 N1_2 1_555 1_555
H2A_2 N1A_2 1_555 1_555
N2A H3A 1_555 1_555
H4A N2A 1_555 1_555
N3A Cd1 1_555 1_555
H5A N3A 1_555 1_555
H6A N3A 1_555 1_555
N4A H7A 1_555 1_555
N4_2 Cd2 1_555 1_555
N4A_2 Cd2 1_555 1_555
H7_2 N4_2 1_555 1_555
H7A_2 N4A_2 1_555 1_555
H8A N4A 1_555 1_555
H8_2 N4_2 1_555 1_555
H8A_2 N4A_2 1_555 1_555
C1A O1A 1_555 1_555
C2A C1A 1_555 1_555
C3A C2A 1_555 1_555
H9A C3A 1_555 1_555
C4A N1A 1_555 1_555
C5A C4A 1_555 1_555
H10A C5A 1_555 1_555
C6A N2A 1_555 1_555
C7A C2A 1_555 1_555
H11A C7A 1_555 1_555
C8A C9A 1_555 1_555
C9A C10A 1_555 1_555
C10A H12A 1_555 1_555
C11A N3A 1_555 1_555
C12A C11A 1_555 1_555
H13A C12A 1_555 1_555
C13A N4A 1_555 1_555
C14A C9A 1_555 1_555
H14A C14A 1_555 1_555
H15A O5A 1_555 1_555
H16A O5A 1_555 1_555
C3 C4 1_555 1_555
C5 C6 1_555 1_555
C6 C7 1_555 1_555
C10 C11 1_555 1_555
C12 C13 1_555 1_555
C13 C14 1_555 1_555
C3A C4A 1_555 1_555
C5A C6A 1_555 1_555
C6A C7A 1_555 1_555
C10A C11A 1_555 1_555
C12A C13A 1_555 1_555
C13A C14A 1_555 1_555

#END
