
#######################################################################
#
#                 Cambridge Crystallographic Data Centre
#                                CCDC 
#
#######################################################################
#
# If this CIF has been generated from an entry in the Cambridge 
# Structural Database, then it will include bibliographic, chemical, 
# crystal, experimental, refinement or atomic coordinate data resulting 
# from the CCDC's data processing and validation procedures.
#
#######################################################################

data_FIHVEZ
_symmetry_cell_setting           orthorhombic
_symmetry_space_group_name_H-M   'P b c a'
_symmetry_Int_Tables_number      61
_space_group_name_Hall           '-P 2ac 2ab'
loop_
_symmetry_equiv_pos_site_id
_symmetry_equiv_pos_as_xyz
1 x,y,z
2 1/2-x,-y,1/2+z
3 1/2+x,1/2-y,-z
4 -x,1/2+y,1/2-z
5 -x,-y,-z
6 1/2+x,y,1/2-z
7 1/2-x,1/2+y,z
8 x,1/2-y,1/2+z
_cell_length_a                   10.18228(16)
_cell_length_b                   10.40395(15)
_cell_length_c                   31.8223(6)
_cell_angle_alpha                90
_cell_angle_beta                 90
_cell_angle_gamma                90
_cell_volume                     3371.13
loop_
_atom_site_label
_atom_site_type_symbol
_atom_site_fract_x
_atom_site_fract_y
_atom_site_fract_z
Zn1 Zn 0.03209(9) 0.75486(9) 0.37599(3)
S1 S -0.0154(2) 0.9570(2) 0.40527(7)
S2 S 0.1651(3) 1.0717(2) 0.47191(8)
S3 S 0.23791(19) 0.7456(2) 0.34627(7)
S4 S 0.33300(18) 0.5705(2) 0.27617(6)
N1 N 0.1519(8) 0.8352(7) 0.4549(2)
N2 N 0.2418(9) 0.8453(7) 0.4869(2)
N3 N 0.4826(6) 0.9068(6) 0.58923(17)
N4 N 0.0956(6) 0.5772(7) 0.3010(2)
N5 N 0.1007(6) 0.4874(7) 0.2698(2)
N6 N 0.1325(6) 0.2607(6) 0.16343(18)
C1 C 0.1015(8) 0.9427(8) 0.4443(2)
C2 C 0.2586(8) 0.9630(7) 0.4998(2)
C3 C 0.4001(7) 0.8882(7) 0.5570(2)
H1 H 0.3751 0.8049 0.5500
C4 C 0.3508(7) 0.9912(7) 0.5337(2)
C5 C 0.3943(9) 1.1131(8) 0.5445(3)
H2 H 0.3654 1.1841 0.5293
C6 C 0.4797(10) 1.1296(8) 0.5774(3)
H3 H 0.5091 1.2108 0.5851
C7 C 0.5214(8) 1.0182(8) 0.5991(2)
H4 H 0.5794 1.0273 0.6215
C8 C 0.2093(7) 0.6298(8) 0.3088(2)
C9 C 0.2149(7) 0.4716(8) 0.2539(2)
C10 C 0.1294(7) 0.3491(7) 0.1945(2)
H5 H 0.0507 0.3919 0.1994
C11 C 0.2369(7) 0.3801(7) 0.2195(2)
C12 C 0.3522(8) 0.3149(9) 0.2115(3)
H6 H 0.4261 0.3306 0.2279
C13 C 0.3578(7) 0.2288(8) 0.1802(3)
H7 H 0.4366 0.1876 0.1741
C14 C 0.2450(8) 0.2009(8) 0.1568(3)
H8 H 0.2494 0.1384 0.1360
Zn1B Zn 0.53209(9) 0.74514(9) 0.62401(3)
Zn1C Zn -0.03209(9) 0.25486(9) 0.12401(3)
N3B N -0.0174(6) 0.5932(6) 0.41077(17)
N6C N -0.1325(6) 0.7607(6) 0.33657(18)
loop_
_geom_bond_atom_site_label_1
_geom_bond_atom_site_label_2
_geom_bond_site_symmetry_1
_geom_bond_site_symmetry_2
Zn1 S1 1_555 1_555
S1 C1 1_555 1_555
S2 C1 1_555 1_555
S3 Zn1 1_555 1_555
S4 C8 1_555 1_555
N1 N2 1_555 1_555
N2 C2 1_555 1_555
N3 C3 1_555 1_555
N4 N5 1_555 1_555
N5 C9 1_555 1_555
N6 C10 1_555 1_555
C1 N1 1_555 1_555
C2 S2 1_555 1_555
C3 H1 1_555 1_555
C4 C2 1_555 1_555
C5 C4 1_555 1_555
H2 C5 1_555 1_555
C6 C5 1_555 1_555
H3 C6 1_555 1_555
C7 N3 1_555 1_555
H4 C7 1_555 1_555
C8 S3 1_555 1_555
C9 S4 1_555 1_555
C10 H5 1_555 1_555
C11 C9 1_555 1_555
C12 C11 1_555 1_555
H6 C12 1_555 1_555
C13 C12 1_555 1_555
H7 C13 1_555 1_555
C14 N6 1_555 1_555
H8 C14 1_555 1_555
Zn1B N3 1_555 1_555
Zn1C N6 1_555 1_555
N3B Zn1 1_555 1_555
N6C Zn1 1_555 1_555
N4 C8 1_555 1_555
C3 C4 1_555 1_555
C6 C7 1_555 1_555
C10 C11 1_555 1_555
C13 C14 1_555 1_555

#END
