
#######################################################################
#
#                 Cambridge Crystallographic Data Centre
#                                CCDC 
#
#######################################################################
#
# If this CIF has been generated from an entry in the Cambridge 
# Structural Database, then it will include bibliographic, chemical, 
# crystal, experimental, refinement or atomic coordinate data resulting 
# from the CCDC's data processing and validation procedures.
#
#######################################################################

data_FIHWIE
_symmetry_cell_setting           monoclinic
_symmetry_space_group_name_H-M   'C 2/c'
_symmetry_Int_Tables_number      15
_space_group_name_Hall           '-C 2yn'
loop_
_symmetry_equiv_pos_site_id
_symmetry_equiv_pos_as_xyz
1 x,y,z
2 -x,y,1/2-z
3 1/2+x,1/2+y,z
4 1/2-x,1/2+y,1/2-z
5 -x,-y,-z
6 x,-y,1/2+z
7 1/2-x,1/2-y,-z
8 1/2+x,1/2-y,1/2+z
_cell_length_a                   18.122(4)
_cell_length_b                   12.194(2)
_cell_length_c                   8.6444(17)
_cell_angle_alpha                90
_cell_angle_beta                 116.77(3)
_cell_angle_gamma                90
_cell_volume                     1705.5
loop_
_atom_site_label
_atom_site_type_symbol
_atom_site_fract_x
_atom_site_fract_y
_atom_site_fract_z
Pb1 Pb 0.0000 0.035888(15) -0.2500
S1 S -0.05325(6) 0.16095(8) -0.01264(13)
S2 S 0.05629(6) 0.36562(8) 0.10868(14)
N1 N 0.07751(19) 0.2109(3) -0.0632(4)
N2 N 0.13814(19) 0.2853(3) -0.0397(4)
N3 N 0.3296(2) 0.5187(3) 0.1334(5)
C1 C 0.0286(2) 0.2396(3) 0.0047(5)
C2 C 0.1356(2) 0.3707(3) 0.0471(5)
C3 C 0.1954(2) 0.4615(3) 0.0919(5)
C4 C 0.2726(2) 0.4407(3) 0.1003(5)
H1 H 0.2851 0.3694 0.0820
C5 C 0.3098(2) 0.6213(3) 0.1591(5)
H2 H 0.3482 0.6769 0.1793
C6 C 0.2358(2) 0.6479(3) 0.1568(6)
H3 H 0.2247 0.7196 0.1763
C7 C 0.1777(3) 0.5658(3) 0.1249(6)
H4 H 0.1277 0.5812 0.1259
S1A S 0.05325(6) 0.16095(8) -0.48736(13)
S2A S -0.05629(6) 0.36562(8) -0.60868(14)
N1A N -0.07751(19) 0.2109(3) -0.4368(4)
N2A N -0.13814(19) 0.2853(3) -0.4603(4)
N3A N -0.3296(2) 0.5187(3) -0.6334(5)
C1A C -0.0286(2) 0.2396(3) -0.5047(5)
C2A C -0.1356(2) 0.3707(3) -0.5471(5)
C3A C -0.1954(2) 0.4615(3) -0.5919(5)
C4A C -0.2726(2) 0.4407(3) -0.6003(5)
H1A H -0.2851 0.3694 -0.5820
C5A C -0.3098(2) 0.6213(3) -0.6591(5)
H2A H -0.3482 0.6769 -0.6793
C6A C -0.2358(2) 0.6479(3) -0.6568(6)
H3A H -0.2247 0.7196 -0.6763
C7A C -0.1777(3) 0.5658(3) -0.6249(6)
H4A H -0.1277 0.5812 -0.6259
Pb1F Pb -0.5000 0.464112(15) -0.7500
Pb1F_2 Pb 0.5000 0.464112(15) 0.2500
N3F N 0.1704(2) -0.0187(3) -0.1334(5)
N3G N -0.1704(2) -0.0187(3) -0.3666(5)
loop_
_geom_bond_atom_site_label_1
_geom_bond_atom_site_label_2
_geom_bond_site_symmetry_1
_geom_bond_site_symmetry_2
Pb1 S1 1_555 1_555
S1 C1 1_555 1_555
S2 C1 1_555 1_555
N1 Pb1 1_555 1_555
N2 N1 1_555 1_555
N3 C4 1_555 1_555
C1 N1 1_555 1_555
C2 S2 1_555 1_555
C3 C2 1_555 1_555
C4 C3 1_555 1_555
H1 C4 1_555 1_555
C5 N3 1_555 1_555
H2 C5 1_555 1_555
C6 C5 1_555 1_555
H3 C6 1_555 1_555
C7 C3 1_555 1_555
H4 C7 1_555 1_555
S1A Pb1 1_555 1_555
S2A C1A 1_555 1_555
N1A Pb1 1_555 1_555
N2A N1A 1_555 1_555
N3A C4A 1_555 1_555
C1A S1A 1_555 1_555
C2A S2A 1_555 1_555
C3A C2A 1_555 1_555
C4A C3A 1_555 1_555
H1A C4A 1_555 1_555
C5A N3A 1_555 1_555
H2A C5A 1_555 1_555
C6A C5A 1_555 1_555
H3A C6A 1_555 1_555
C7A C3A 1_555 1_555
H4A C7A 1_555 1_555
Pb1F N3A 1_555 1_555
Pb1F_2 N3 1_555 1_555
N3F Pb1 1_555 1_555
N3G Pb1 1_555 1_555
N2 C2 1_555 1_555
C6 C7 1_555 1_555
N1A C1A 1_555 1_555
N2A C2A 1_555 1_555
C6A C7A 1_555 1_555

#END
