
#######################################################################
#
#                 Cambridge Crystallographic Data Centre
#                                CCDC 
#
#######################################################################
#
# If this CIF has been generated from an entry in the Cambridge 
# Structural Database, then it will include bibliographic, chemical, 
# crystal, experimental, refinement or atomic coordinate data resulting 
# from the CCDC's data processing and validation procedures.
#
#######################################################################

data_FIHWUQ
_symmetry_cell_setting           tetragonal
_symmetry_space_group_name_H-M   'I 41 c d'
_symmetry_Int_Tables_number      110
_space_group_name_Hall           'I 4bw -2c'
loop_
_symmetry_equiv_pos_site_id
_symmetry_equiv_pos_as_xyz
1 x,y,z
2 -y,1/2+x,1/4+z
3 1/2-x,1/2-y,1/2+z
4 1/2+y,-x,3/4+z
5 -x,y,1/2+z
6 -y,1/2-x,3/4+z
7 1/2+x,1/2-y,z
8 1/2+y,x,1/4+z
9 1/2+x,1/2+y,1/2+z
10 1/2-y,x,3/4+z
11 -x,-y,z
12 y,1/2-x,1/4+z
13 1/2-x,1/2+y,z
14 1/2-y,-x,1/4+z
15 x,-y,1/2+z
16 y,1/2+x,3/4+z
_cell_length_a                   11.1466(16)
_cell_length_b                   11.1466(16)
_cell_length_c                   27.164(5)
_cell_angle_alpha                90
_cell_angle_beta                 90
_cell_angle_gamma                90
_cell_volume                     3375.04
loop_
_atom_site_label
_atom_site_type_symbol
_atom_site_fract_x
_atom_site_fract_y
_atom_site_fract_z
Co1 Co 0.5000 1.0000 -0.03633(4)
S1 S 0.44958(11) 0.77189(13) -0.03025(5)
S2 S 0.65202(12) 0.68575(11) 0.03875(5)
N1 N 0.6081(4) 0.9040(4) 0.01694(15)
N2 N 0.7050(4) 0.9091(4) 0.04821(14)
N3 N 0.9629(4) 0.8667(3) 0.16053(15)
C1 C 0.5684(4) 0.7939(5) 0.00800(17)
C2 C 0.7377(5) 0.8031(4) 0.06275(17)
C3 C 0.8371(5) 0.7831(4) 0.09773(17)
C4 C 0.8920(5) 0.6733(5) 0.10322(19)
H1 H 0.8666 0.6073 0.0850
C5 C 0.9862(5) 0.6630(4) 0.13661(19)
H2 H 1.0279 0.5911 0.1397
C6 C 1.0164(5) 0.7601(4) 0.16488(18)
H3 H 1.0770 0.7514 0.1881
C7 C 0.8767(5) 0.8769(4) 0.12692(18)
H4 H 0.8408 0.9515 0.1228
S1J S 0.55042(11) 1.22811(13) -0.03025(5)
S2J S 0.34798(12) 1.31425(11) 0.03875(5)
N1J N 0.3919(4) 1.0960(4) 0.01694(15)
N2J N 0.2950(4) 1.0909(4) 0.04821(14)
N3J N 0.0371(4) 1.1333(3) 0.16053(15)
C1J C 0.4316(4) 1.2061(5) 0.00800(17)
C2J C 0.2623(5) 1.1969(4) 0.06275(17)
C3J C 0.1629(5) 1.2169(4) 0.09773(17)
C4J C 0.1080(5) 1.3267(5) 0.10322(19)
H1J H 0.1334 1.3927 0.0850
C5J C 0.0138(5) 1.3370(4) 0.13661(19)
H2J H -0.0279 1.4089 0.1397
C6J C -0.0164(5) 1.2399(4) 0.16488(18)
H3J H -0.0770 1.2486 0.1881
C7J C 0.1233(5) 1.1231(4) 0.12692(18)
H4J H 0.1592 1.0485 0.1228
Co1A Co 0.0000 1.0000 0.21367(4)
Co1A_2 Co 1.0000 1.0000 0.21367(4)
N3C N 0.3667(3) 1.0371(4) -0.08947(15)
N3I N 0.6333(3) 0.9629(4) -0.08947(15)
loop_
_geom_bond_atom_site_label_1
_geom_bond_atom_site_label_2
_geom_bond_site_symmetry_1
_geom_bond_site_symmetry_2
Co1 S1 1_555 1_555
S1 C1 1_555 1_555
S2 C1 1_555 1_555
N1 Co1 1_555 1_555
N2 N1 1_555 1_555
N3 C6 1_555 1_555
C1 N1 1_555 1_555
C2 S2 1_555 1_555
C3 C2 1_555 1_555
C4 C3 1_555 1_555
H1 C4 1_555 1_555
C5 C4 1_555 1_555
H2 C5 1_555 1_555
C6 C5 1_555 1_555
H3 C6 1_555 1_555
C7 N3 1_555 1_555
H4 C7 1_555 1_555
S1J Co1 1_555 1_555
S2J C1J 1_555 1_555
N1J Co1 1_555 1_555
N2J N1J 1_555 1_555
N3J C6J 1_555 1_555
C1J S1J 1_555 1_555
C2J S2J 1_555 1_555
C3J C2J 1_555 1_555
C4J C3J 1_555 1_555
H1J C4J 1_555 1_555
C5J C4J 1_555 1_555
H2J C5J 1_555 1_555
C6J C5J 1_555 1_555
H3J C6J 1_555 1_555
C7J N3J 1_555 1_555
H4J C7J 1_555 1_555
Co1A N3J 1_555 1_555
Co1A_2 N3 1_555 1_555
N3C Co1 1_555 1_555
N3I Co1 1_555 1_555
N2 C2 1_555 1_555
C3 C7 1_555 1_555
N1J C1J 1_555 1_555
N2J C2J 1_555 1_555
C3J C7J 1_555 1_555

#END
