
#######################################################################
#
#                 Cambridge Crystallographic Data Centre
#                                CCDC 
#
#######################################################################
#
# If this CIF has been generated from an entry in the Cambridge 
# Structural Database, then it will include bibliographic, chemical, 
# crystal, experimental, refinement or atomic coordinate data resulting 
# from the CCDC's data processing and validation procedures.
#
#######################################################################

data_FIHXUQ
_symmetry_cell_setting           monoclinic
_symmetry_space_group_name_H-M   'C 2/c'
_symmetry_Int_Tables_number      15
_space_group_name_Hall           '-C 2yn'
loop_
_symmetry_equiv_pos_site_id
_symmetry_equiv_pos_as_xyz
1 x,y,z
2 1/2+x,1/2+y,z
3 -x,y,1/2-z
4 1/2-x,1/2+y,1/2-z
5 -x,-y,-z
6 1/2-x,1/2-y,-z
7 x,-y,1/2+z
8 1/2+x,1/2-y,1/2+z
_cell_length_a                   16.3442(5)
_cell_length_b                   16.2092(6)
_cell_length_c                   8.9481(3)
_cell_angle_alpha                90
_cell_angle_beta                 119.435(2)
_cell_angle_gamma                90
_cell_volume                     2064.58
loop_
_atom_site_label
_atom_site_type_symbol
_atom_site_fract_x
_atom_site_fract_y
_atom_site_fract_z
Zn1 Zn 0.2500 0.2500 0.5000
O1 O 0.14303(9) 0.16127(8) 0.46108(17)
O2 O 0.02993(9) 0.22467(9) 0.49108(18)
N1 N 0.17163(11) 0.34810(9) 0.52126(19)
H1 H 0.1134 0.3269 0.4965
N2 N 0.31296(11) 0.24212(9) 0.7697(2)
H2 H 0.3714 0.2676 0.8168
C1 C 0.22138(14) 0.37055(12) 0.7050(2)
H3 H 0.1792 0.4030 0.7326
H4 H 0.2768 0.4050 0.7307
C2 C 0.25278(14) 0.29231(12) 0.8140(2)
H5 H 0.2880 0.3073 0.9371
H6 H 0.1970 0.2599 0.7941
C3 C 0.32769(14) 0.15594(12) 0.8346(2)
H7 H 0.2662 0.1278 0.7877
H8 H 0.3570 0.1566 0.9612
C4 C 0.39026(14) 0.10833(12) 0.7833(3)
H9 H 0.4131 0.0583 0.8558
H10 H 0.4458 0.1429 0.8105
C5 C 0.15403(14) 0.41841(12) 0.4048(2)
H11 H 0.1117 0.4581 0.4172
H12 H 0.2141 0.4470 0.4383
C6 C 0.03380(12) 0.07774(11) 0.4894(2)
C7 C -0.03742(12) 0.07038(11) 0.5310(2)
H13 H -0.0632 0.1185 0.5525
C8 C 0.07091(13) 0.00667(11) 0.4589(2)
H14 H 0.1197 0.0110 0.4308
C9 C 0.07134(12) 0.16152(11) 0.4793(2)
Zn1A Zn -0.2500 -0.2500 0.5000
O1D O -0.14303(9) -0.16127(8) 0.53892(17)
O1E O 0.35697(9) 0.33873(8) 0.53892(17)
O2D O -0.02993(9) -0.22467(9) 0.50892(18)
N1E N 0.32837(11) 0.15190(9) 0.47874(19)
H1E H 0.3866 0.1731 0.5035
N2E N 0.18704(11) 0.25788(9) 0.2303(2)
H2E H 0.1286 0.2324 0.1832
C1E C 0.27862(14) 0.12945(12) 0.2950(2)
H3E H 0.3208 0.0970 0.2674
H4E H 0.2232 0.0950 0.2693
C2E C 0.24722(14) 0.20769(12) 0.1860(2)
H5E H 0.2120 0.1927 0.0629
H6E H 0.3030 0.2401 0.2059
C3E C 0.17231(14) 0.34406(12) 0.1654(2)
H7E H 0.2338 0.3722 0.2123
H8E H 0.1430 0.3434 0.0388
C4E C 0.10974(14) 0.39167(12) 0.2167(3)
H9E H 0.0869 0.4417 0.1442
H10E H 0.0542 0.3571 0.1895
C5E C 0.34597(14) 0.08159(12) 0.5952(2)
H11E H 0.3883 0.0419 0.5828
H12E H 0.2859 0.0530 0.5617
C6D C -0.03380(12) -0.07774(11) 0.5106(2)
C7D C 0.03742(12) -0.07038(11) 0.4690(2)
H13D H 0.0632 -0.1185 0.4475
C8D C -0.07091(13) -0.00667(11) 0.5411(2)
H14D H -0.1197 -0.0110 0.5692
C9D C -0.07134(12) -0.16152(11) 0.5207(2)
O3 O 0.0000 0.2988(2) 0.7500
H15 H 0.011(3) 0.2602(19) 0.693(5)
H15B H -0.011(3) 0.2602(19) 0.807(5)
loop_
_geom_bond_atom_site_label_1
_geom_bond_atom_site_label_2
_geom_bond_site_symmetry_1
_geom_bond_site_symmetry_2
Zn1 O1 1_555 1_555
O1 C9 1_555 1_555
O2 C9 1_555 1_555
N1 Zn1 1_555 1_555
H1 N1 1_555 1_555
N2 Zn1 1_555 1_555
H2 N2 1_555 1_555
C1 N1 1_555 1_555
H3 C1 1_555 1_555
H4 C1 1_555 1_555
C2 N2 1_555 1_555
H5 C2 1_555 1_555
H6 C2 1_555 1_555
C3 N2 1_555 1_555
H7 C3 1_555 1_555
H8 C3 1_555 1_555
C4 C3 1_555 1_555
H9 C4 1_555 1_555
H10 C4 1_555 1_555
C5 N1 1_555 1_555
H11 C5 1_555 1_555
H12 C5 1_555 1_555
C6 C7 1_555 1_555
C7 H13 1_555 1_555
C8 C6 1_555 1_555
H14 C8 1_555 1_555
C9 C6 1_555 1_555
O3 H15 1_555 1_555
Zn1A O1D 1_555 1_555
O1D C9D 1_555 1_555
O1E Zn1 1_555 1_555
O2D C9D 1_555 1_555
N1E Zn1 1_555 1_555
H1E N1E 1_555 1_555
N2E Zn1 1_555 1_555
H2E N2E 1_555 1_555
C1E N1E 1_555 1_555
H3E C1E 1_555 1_555
H4E C1E 1_555 1_555
C2E N2E 1_555 1_555
H5E C2E 1_555 1_555
H6E C2E 1_555 1_555
C3E N2E 1_555 1_555
H7E C3E 1_555 1_555
H8E C3E 1_555 1_555
C4E C5 1_555 1_555
H9E C4E 1_555 1_555
H10E C4E 1_555 1_555
C5E C4 1_555 1_555
H11E C5E 1_555 1_555
H12E C5E 1_555 1_555
C6D C7D 1_555 1_555
C7D C8 1_555 1_555
H13D C7D 1_555 1_555
C8D C7 1_555 1_555
H14D C8D 1_555 1_555
C9D C6D 1_555 1_555
H15B O3 1_555 1_555
C1 C2 1_555 1_555
N1E C5E 1_555 1_555
C1E C2E 1_555 1_555
C3E C4E 1_555 1_555
C6D C8D 1_555 1_555

#END
