
#######################################################################
#
#                 Cambridge Crystallographic Data Centre
#                                CCDC 
#
#######################################################################
#
# If this CIF has been generated from an entry in the Cambridge 
# Structural Database, then it will include bibliographic, chemical, 
# crystal, experimental, refinement or atomic coordinate data resulting 
# from the CCDC's data processing and validation procedures.
#
#######################################################################

data_FIHXOL
_symmetry_cell_setting           orthorhombic
_symmetry_space_group_name_H-M   'P n m a'
_symmetry_Int_Tables_number      62
_space_group_name_Hall           '-P 2ac 2n'
loop_
_symmetry_equiv_pos_site_id
_symmetry_equiv_pos_as_xyz
1 x,y,z
2 1/2-x,-y,1/2+z
3 1/2+x,1/2-y,1/2-z
4 -x,1/2+y,-z
5 -x,-y,-z
6 1/2+x,y,1/2-z
7 1/2-x,1/2+y,1/2+z
8 x,1/2-y,z
_cell_length_a                   11.767(2)
_cell_length_b                   16.892(3)
_cell_length_c                   15.087(3)
_cell_angle_alpha                90
_cell_angle_beta                 90
_cell_angle_gamma                90
_cell_volume                     2998.82
loop_
_atom_site_label
_atom_site_type_symbol
_atom_site_fract_x
_atom_site_fract_y
_atom_site_fract_z
Cd1 Cd 0.24471(4) 0.2500 0.25434(3)
S1 S -0.13097(14) 0.2500 0.75306(9)
O1 O 0.0898(5) 0.2500 0.3417(3)
O2 O 0.2464(4) 0.2500 0.4195(3)
O3 O -0.1934(3) 0.1773(2) 0.7551(2)
O4 O 0.1797(4) 0.3140(3) 1.1207(3)
N1 N 0.3615(4) 0.1452(3) 0.2647(2)
N2 N 0.4256(5) 0.1135(4) 0.3314(4)
N3 N 0.4294(4) 0.0303(3) 0.2310(3)
C1 C 0.1421(6) 0.2500 0.4142(4)
C2 C 0.0740(6) 0.2500 0.4990(4)
C3 C 0.1292(5) 0.2500 0.5783(4)
H1 H 0.2082 0.2500 0.5794
C4 C 0.0688(5) 0.2500 0.6578(4)
H2 H 0.1071 0.2500 0.7118
C5 C -0.0471(6) 0.2500 0.6557(4)
C6 C -0.1027(6) 0.2500 0.5762(5)
H3 H -0.1817 0.2500 0.5750
C7 C -0.0426(7) 0.2500 0.4978(5)
H4 H -0.0811 0.2500 0.4440
C8 C -0.0362(6) 0.2500 0.8456(4)
C9 C -0.0042(4) 0.1782(3) 0.8831(3)
H5 H -0.0265 0.1304 0.8579
C10 C 0.0615(4) 0.1799(3) 0.9590(3)
H6 H 0.0848 0.1323 0.9843
C11 C 0.0935(6) 0.2500 0.9979(4)
C12 C 0.1558(6) 0.2500 1.0852(5)
C13 C 0.3680(5) 0.0905(3) 0.2039(3)
H7 H 0.3337 0.0937 0.1485
C14 C 0.4660(4) 0.0443(3) 0.3136(3)
H8 H 0.5100 0.0117 0.3495
C15 C 0.4577(6) -0.0429(3) 0.1827(4)
H9 H 0.3953 -0.0803 0.1874
H10 H 0.5248 -0.0671 0.2083
C16 C 0.4792(5) -0.0232(3) 0.0863(3)
C17 C 0.3893(5) -0.0242(3) 0.0248(4)
C18 C 0.5877(5) 0.0007(3) 0.0623(4)
C19 C 0.6814(6) 0.0035(4) 0.1307(5)
H11 H 0.6584 0.0366 0.1792
H12 H 0.7491 0.0247 0.1043
H13 H 0.6962 -0.0491 0.1521
C20 C 0.2696(5) -0.0488(4) 0.0496(5)
H14 H 0.2455 -0.0914 0.0119
H15 H 0.2192 -0.0046 0.0423
H16 H 0.2682 -0.0659 0.1103
O3G O -0.1934(3) 0.3227(2) 0.7551(2)
O4G O 0.1797(4) 0.1860(3) 1.1207(3)
C9G C -0.0042(4) 0.3218(3) 0.8831(3)
H5G H -0.0265 0.3696 0.8579
C10G C 0.0615(4) 0.3201(3) 0.9590(3)
H6G H 0.0848 0.3677 0.9843
N1D N 0.6385(4) -0.1452(3) -0.2647(2)
N2D N 0.5744(5) -0.1135(4) -0.3314(4)
N3D N 0.5706(4) -0.0303(3) -0.2310(3)
C13D C 0.6320(5) -0.0905(3) -0.2039(3)
H7D H 0.6663 -0.0937 -0.1485
C14D C 0.5340(4) -0.0443(3) -0.3136(3)
H8D H 0.4900 -0.0117 -0.3495
C15D C 0.5423(6) 0.0429(3) -0.1827(4)
H9D H 0.6047 0.0803 -0.1874
H10D H 0.4752 0.0671 -0.2083
C16D C 0.5208(5) 0.0232(3) -0.0863(3)
C17D C 0.6107(5) 0.0242(3) -0.0248(4)
C18D C 0.4123(5) -0.0007(3) -0.0623(4)
C19D C 0.3186(6) -0.0035(4) -0.1307(5)
H11D H 0.3416 -0.0366 -0.1792
H12D H 0.2509 -0.0247 -0.1043
H13D H 0.3038 0.0491 -0.1521
C20D C 0.7304(5) 0.0488(4) -0.0496(5)
H14D H 0.7545 0.0914 -0.0119
H15D H 0.7808 0.0046 -0.0423
H16D H 0.7318 0.0659 -0.1103
Cd1_2 Cd 0.24471(4) 0.2500 1.25434(3)
Cd1C Cd 0.75529(4) -0.2500 -0.25434(3)
O4_2 O 0.1797(4) 0.3140(3) 0.1207(3)
O4G_2 O 0.1797(4) 0.1860(3) 0.1207(3)
N1G N 0.3615(4) 0.3548(3) 0.2647(2)
loop_
_geom_bond_atom_site_label_1
_geom_bond_atom_site_label_2
_geom_bond_site_symmetry_1
_geom_bond_site_symmetry_2
Cd1 O1 1_555 1_555
S1 O3 1_555 1_555
O1 C1 1_555 1_555
O2 Cd1 1_555 1_555
O4 C12 1_555 1_555
N1 Cd1 1_555 1_555
N2 N1 1_555 1_555
N3 C13 1_555 1_555
C1 O2 1_555 1_555
C2 C1 1_555 1_555
C3 C2 1_555 1_555
H1 C3 1_555 1_555
C4 C3 1_555 1_555
H2 C4 1_555 1_555
C5 S1 1_555 1_555
C6 C5 1_555 1_555
H3 C6 1_555 1_555
C7 C2 1_555 1_555
H4 C7 1_555 1_555
C8 S1 1_555 1_555
C9 C8 1_555 1_555
H5 C9 1_555 1_555
C10 C9 1_555 1_555
H6 C10 1_555 1_555
C11 C10 1_555 1_555
C12 C11 1_555 1_555
C13 N1 1_555 1_555
H7 C13 1_555 1_555
C14 N2 1_555 1_555
H8 C14 1_555 1_555
C15 N3 1_555 1_555
H9 C15 1_555 1_555
H10 C15 1_555 1_555
C16 C15 1_555 1_555
C17 C16 1_555 1_555
C18 C16 1_555 1_555
C19 C18 1_555 1_555
H11 C19 1_555 1_555
H12 C19 1_555 1_555
H13 C19 1_555 1_555
C20 C17 1_555 1_555
H14 C20 1_555 1_555
H15 C20 1_555 1_555
H16 C20 1_555 1_555
O3G S1 1_555 1_555
O4G C12 1_555 1_555
C9G C8 1_555 1_555
H5G C9G 1_555 1_555
C10G C11 1_555 1_555
H6G C10G 1_555 1_555
N1D N2D 1_555 1_555
N2D C14D 1_555 1_555
N3D C13D 1_555 1_555
C13D N1D 1_555 1_555
H7D C13D 1_555 1_555
C14D N3D 1_555 1_555
H8D C14D 1_555 1_555
C15D N3D 1_555 1_555
H9D C15D 1_555 1_555
H10D C15D 1_555 1_555
C16D C15D 1_555 1_555
C17D C18 1_555 1_555
C18D C17 1_555 1_555
C19D C18D 1_555 1_555
H11D C19D 1_555 1_555
H12D C19D 1_555 1_555
H13D C19D 1_555 1_555
C20D C17D 1_555 1_555
H14D C20D 1_555 1_555
H15D C20D 1_555 1_555
H16D C20D 1_555 1_555
Cd1_2 O4 1_555 1_555
Cd1C N1D 1_555 1_555
O4_2 Cd1 1_555 1_555
O4G_2 Cd1 1_555 1_555
N1G Cd1 1_555 1_555
N3 C14 1_555 1_555
C4 C5 1_555 1_555
C6 C7 1_555 1_555
O4G Cd1_2 1_555 1_555
C9G C10G 1_555 1_555
C16D C17D 1_555 1_555
C16D C18D 1_555 1_555

#END
