
#######################################################################
#
#                 Cambridge Crystallographic Data Centre
#                                CCDC 
#
#######################################################################
#
# If this CIF has been generated from an entry in the Cambridge 
# Structural Database, then it will include bibliographic, chemical, 
# crystal, experimental, refinement or atomic coordinate data resulting 
# from the CCDC's data processing and validation procedures.
#
#######################################################################

data_FIHYUS
_symmetry_cell_setting           monoclinic
_symmetry_space_group_name_H-M   'C 2/c'
_symmetry_Int_Tables_number      15
_space_group_name_Hall           '-C 2yn'
loop_
_symmetry_equiv_pos_site_id
_symmetry_equiv_pos_as_xyz
1 x,y,z
2 -x,y,1/2-z
3 1/2+x,1/2+y,z
4 1/2-x,1/2+y,1/2-z
5 -x,-y,-z
6 x,-y,1/2+z
7 1/2-x,1/2-y,-z
8 1/2+x,1/2-y,1/2+z
_cell_length_a                   21.044(4)
_cell_length_b                   7.8301(16)
_cell_length_c                   21.178(4)
_cell_angle_alpha                90
_cell_angle_beta                 118.94(3)
_cell_angle_gamma                90
_cell_volume                     3053.88
loop_
_atom_site_label
_atom_site_type_symbol
_atom_site_fract_x
_atom_site_fract_y
_atom_site_fract_z
W1 W 0.79068(2) -0.39217(5) 0.10901(2)
W2 W 0.86740(2) -0.15806(5) 0.03494(2)
W3 W 0.72986(2) -0.00455(5) 0.05008(2)
O1 O 0.6887(4) -0.4380(9) 0.0599(4)
O2 O 0.7135(5) 0.1715(10) 0.0873(5)
O3 O 0.7500 -0.2500 0.0000
O4 O 0.8283(4) 0.0213(8) 0.0684(4)
O5 O 0.8212(4) -0.4908(10) 0.1898(4)
O6 O 0.8775(4) -0.2843(9) 0.1171(4)
O7 O 0.8621(4) -0.3723(9) -0.0096(4)
O8 O 0.7654(4) -0.1672(9) 0.1270(4)
O9 O 0.8005(4) -0.5596(9) 0.0474(4)
O10 O 0.9534(4) -0.0907(9) 0.0610(5)
Cu1 Cu 1.0000 -0.2888(2) 0.2500
C1 C 1.1412(6) -0.1252(15) 0.1779(7)
H1 H 1.1591 -0.1764 0.1501
C2 C 0.9894(7) -0.6836(15) 0.1087(7)
H2 H 0.9637 -0.7845 0.0902
C3 C 1.1649(7) 0.0351(16) 0.2076(7)
H3 H 1.1992 0.0930 0.1999
C4 C 0.9842(6) -0.5950(13) 0.1615(7)
H4 H 0.9553 -0.6394 0.1797
C5 C 1.0687(6) -0.4651(15) 0.1093(6)
H5 H 1.0976 -0.4190 0.0915
C6 C 1.0341(7) -0.6188(15) 0.0838(7)
H6 H 1.0408 -0.6791 0.0497
C7 C 1.0601(5) -0.3802(12) 0.1618(6)
C8 C 1.0900(6) -0.2080(14) 0.1906(6)
C9 C 1.1376(6) 0.1080(14) 0.2484(6)
H7 H 1.1528 0.2156 0.2687
C10 C 1.0867(6) 0.0166(13) 0.2585(6)
H8 H 1.0688 0.0646 0.2870
N1 N 1.0623(4) -0.1361(10) 0.2295(5)
N2 N 1.0195(5) -0.4442(11) 0.1890(5)
W1A W 1.20932(2) -0.39217(5) 0.39099(2)
W2A W 1.13260(2) -0.15806(5) 0.46506(2)
W3A W 1.27014(2) -0.00455(5) 0.44992(2)
O1A O 1.3113(4) -0.4380(9) 0.4401(4)
O2A O 1.2865(5) 0.1715(10) 0.4127(5)
O4A O 1.1717(4) 0.0213(8) 0.4316(4)
O5A O 1.1788(4) -0.4908(10) 0.3102(4)
O6A O 1.1225(4) -0.2843(9) 0.3829(4)
O7A O 1.1379(4) -0.3723(9) 0.5096(4)
O8A O 1.2346(4) -0.1672(9) 0.3730(4)
O9A O 1.1995(4) -0.5596(9) 0.4526(4)
O10A O 1.0466(4) -0.0907(9) 0.4390(5)
C1A C 0.8588(6) -0.1252(15) 0.3221(7)
H1A H 0.8409 -0.1764 0.3499
C2A C 1.0106(7) -0.6836(15) 0.3913(7)
H2A H 1.0363 -0.7845 0.4098
C3A C 0.8351(7) 0.0351(16) 0.2924(7)
H3A H 0.8008 0.0930 0.3001
C4A C 1.0158(6) -0.5950(13) 0.3385(7)
H4A H 1.0447 -0.6394 0.3203
C5A C 0.9313(6) -0.4651(15) 0.3907(6)
H5A H 0.9024 -0.4190 0.4085
C6A C 0.9659(7) -0.6188(15) 0.4162(7)
H6A H 0.9592 -0.6791 0.4503
C7A C 0.9399(5) -0.3802(12) 0.3382(6)
C8A C 0.9100(6) -0.2080(14) 0.3094(6)
C9A C 0.8624(6) 0.1080(14) 0.2516(6)
H7A H 0.8472 0.2156 0.2313
C10A C 0.9133(6) 0.0166(13) 0.2415(6)
H8A H 0.9312 0.0646 0.2130
N1A N 0.9377(4) -0.1361(10) 0.2705(5)
N2A N 0.9805(5) -0.4442(11) 0.3110(5)
W1F W 0.70932(2) -0.10783(5) -0.10901(2)
W2F W 0.63260(2) -0.34194(5) -0.03494(2)
W2G W 1.36740(2) -0.34194(5) 0.53494(2)
W3F W 0.77014(2) -0.49545(5) -0.05008(2)
W3G W 1.22986(2) -0.49545(5) 0.55008(2)
O1F O 0.8113(4) -0.0620(9) -0.0599(4)
O1G O 1.1887(4) -0.0620(9) 0.5599(4)
O3A O 1.2500 -0.2500 0.5000
O7F O 0.6379(4) -0.1277(9) 0.0096(4)
O7G O 1.3621(4) -0.1277(9) 0.4904(4)
O9F O 0.6995(4) 0.0596(9) -0.0474(4)
O9G O 1.3005(4) 0.0596(9) 0.5474(4)
loop_
_geom_bond_atom_site_label_1
_geom_bond_atom_site_label_2
_geom_bond_site_symmetry_1
_geom_bond_site_symmetry_2
W1 O1 1_555 1_555
W2 O3 1_555 1_555
W3 O2 1_555 1_555
O1 W2F 1_555 1_555
O3 W1 1_555 1_555
O4 W2 1_555 1_555
O5 W1 1_555 1_555
O6 W1 1_555 1_555
O7 W2 1_555 1_555
O8 W1 1_555 1_555
O9 W1 1_555 1_555
O10 W2 1_555 1_555
Cu1 O6 1_555 1_555
C1 H1 1_555 1_555
C2 H2 1_555 1_555
C3 C1 1_555 1_555
H3 C3 1_555 1_555
C4 C2 1_555 1_555
H4 C4 1_555 1_555
C5 H5 1_555 1_555
C6 C2 1_555 1_555
H6 C6 1_555 1_555
C7 C5 1_555 1_555
C8 C1 1_555 1_555
C9 C3 1_555 1_555
H7 C9 1_555 1_555
C10 C9 1_555 1_555
H8 C10 1_555 1_555
N1 Cu1 1_555 1_555
N2 Cu1 1_555 1_555
W1A O1A 1_555 1_555
W2A O4A 1_555 1_555
W3A O2A 1_555 1_555
O1A W2G 1_555 1_555
O4A W3A 1_555 1_555
O5A W1A 1_555 1_555
O6A Cu1 1_555 1_555
O7A W2A 1_555 1_555
O8A W1A 1_555 1_555
O9A W1A 1_555 1_555
O10A W2A 1_555 1_555
C1A H1A 1_555 1_555
C2A H2A 1_555 1_555
C3A C1A 1_555 1_555
H3A C3A 1_555 1_555
C4A C2A 1_555 1_555
H4A C4A 1_555 1_555
C5A H5A 1_555 1_555
C6A C2A 1_555 1_555
H6A C6A 1_555 1_555
C7A C5A 1_555 1_555
C8A C1A 1_555 1_555
C9A C3A 1_555 1_555
H7A C9A 1_555 1_555
C10A C9A 1_555 1_555
H8A C10A 1_555 1_555
N1A Cu1 1_555 1_555
N2A Cu1 1_555 1_555
W1F O3 1_555 1_555
W2F O3 1_555 1_555
W2G O3A 1_555 1_555
W3F O3 1_555 1_555
W3G O7A 1_555 1_555
O1F W2 1_555 1_555
O1G W2A 1_555 1_555
O3A W1A 1_555 1_555
O7F W3 1_555 1_555
O7G W3A 1_555 1_555
O9F W3 1_555 1_555
O9G W3A 1_555 1_555
W2 O6 1_555 1_555
W3 O3 1_555 1_555
W3 O4 1_555 1_555
W3 O8 1_555 1_555
O7 W3F 1_555 1_555
O9 W3F 1_555 1_555
C4 N2 1_555 1_555
C5 C6 1_555 1_555
C7 C8 1_555 1_555
C7 N2 1_555 1_555
C8 N1 1_555 1_555
C10 N1 1_555 1_555
W1A O6A 1_555 1_555
W2A O6A 1_555 1_555
W2A O3A 1_555 1_555
W3A O8A 1_555 1_555
W3A O3A 1_555 1_555
O9A W3G 1_555 1_555
C4A N2A 1_555 1_555
C5A C6A 1_555 1_555
C7A C8A 1_555 1_555
C7A N2A 1_555 1_555
C8A N1A 1_555 1_555
C10A N1A 1_555 1_555
W1F O1F 1_555 1_555
W1F O9F 1_555 1_555
W2F O7F 1_555 1_555
W2G O7G 1_555 1_555
W3G O3A 1_555 1_555

#END
