
#######################################################################
#
#                 Cambridge Crystallographic Data Centre
#                                CCDC 
#
#######################################################################
#
# If this CIF has been generated from an entry in the Cambridge 
# Structural Database, then it will include bibliographic, chemical, 
# crystal, experimental, refinement or atomic coordinate data resulting 
# from the CCDC's data processing and validation procedures.
#
#######################################################################

data_FIHYEC
_symmetry_cell_setting           monoclinic
_symmetry_space_group_name_H-M   'P 21/c'
_symmetry_Int_Tables_number      14
_space_group_name_Hall           '-P 2ybc'
loop_
_symmetry_equiv_pos_site_id
_symmetry_equiv_pos_as_xyz
1 x,y,z
2 -x,1/2+y,1/2-z
3 -x,-y,-z
4 x,1/2-y,1/2+z
_cell_length_a                   17.725(3)
_cell_length_b                   9.5417(19)
_cell_length_c                   16.701(3)
_cell_angle_alpha                90
_cell_angle_beta                 106.28(3)
_cell_angle_gamma                90
_cell_volume                     2711.33
loop_
_atom_site_label
_atom_site_type_symbol
_atom_site_fract_x
_atom_site_fract_y
_atom_site_fract_z
Zn1 Zn 0.80191(4) 1.09129(7) 0.62197(4)
O1 O 0.8044(3) 1.2052(5) 0.5275(4)
O2 O 0.8360(4) 1.0130(7) 0.4788(4)
O3 O 0.7857(4) 1.2612(10) 0.1951(6)
O4 O 0.7710(5) 1.4292(11) 0.2711(5)
N1 N 1.0017(3) 0.9255(6) 0.7833(3)
N2 N 1.0197(4) 0.8843(9) 0.7132(4)
N3 N 0.9073(3) 1.0045(6) 0.6814(3)
N4 N 0.6219(4) 0.8198(6) 0.5096(3)
N5 N 0.6043(5) 0.8327(8) 0.5816(5)
N6 N 0.7132(3) 0.9521(6) 0.5846(3)
C1 C 1.1312(7) 1.1175(15) 0.9541(8)
H1 H 1.1416 1.2118 0.9740
H2 H 1.1188 1.1168 0.8943
H3 H 1.1767 1.0605 0.9771
C2 C 1.0637(4) 1.0608(10) 0.9800(5)
C3 C 1.0245(4) 0.9435(9) 0.9342(4)
C4 C 0.9616(5) 0.8846(9) 0.9568(5)
C5 C 0.9184(9) 0.7628(12) 0.9084(8)
H4 H 0.9236 0.6829 0.9444
H5 H 0.9401 0.7414 0.8632
H6 H 0.8638 0.7863 0.8865
C6 C 1.0515(5) 0.8812(11) 0.8652(5)
H7 H 1.1053 0.9097 0.8711
H8 H 1.0505 0.7798 0.8690
C7 C 0.9356(4) 0.9961(7) 0.7634(4)
H9 H 0.9119 1.0347 0.8015
C8 C 0.9610(5) 0.9356(10) 0.6542(5)
H10 H 0.9570 0.9249 0.5978
C9 C 0.6604(5) 0.9145(8) 0.6257(5)
H11 H 0.6634 0.9437 0.6796
C10 C 0.6866(4) 0.8918(6) 0.5114(4)
H12 H 0.7093 0.8984 0.4677
C11 C 0.5726(5) 0.7344(9) 0.4408(5)
H13 H 0.6047 0.6994 0.4068
H14 H 0.5317 0.7930 0.4059
C12 C 0.5353(4) 0.6127(7) 0.4726(4)
C13 C 0.4559(4) 0.6185(7) 0.4678(5)
C14 C 0.4086(6) 0.7477(10) 0.4355(8)
H15 H 0.4382 0.8294 0.4589
H16 H 0.3604 0.7456 0.4511
H17 H 0.3969 0.7507 0.3758
C15 C 0.5794(4) 0.4955(8) 0.5048(5)
C16 C 0.6669(5) 0.4956(11) 0.5122(8)
H18 H 0.6961 0.4849 0.5696
H19 H 0.6809 0.5826 0.4912
H20 H 0.6788 0.4194 0.4802
C17 C 0.8232(5) 1.1372(9) 0.4717(5)
C18 C 0.8282(6) 1.2230(12) 0.3987(6)
H21 H 0.8155 1.3191 0.4088
H22 H 0.8824 1.2221 0.3968
C19 C 0.7782(6) 1.1822(13) 0.3155(6)
H23 H 0.8051 1.1041 0.2970
C20 C 0.7777(8) 1.3049(18) 0.2547(10)
C21 C 0.6948(6) 1.1317(13) 0.3089(6)
C22 C 0.6360(7) 1.1908(13) 0.3380(7)
H24 H 0.6468 1.2722 0.3698
C23 C 0.5631(8) 1.1330(15) 0.3213(9)
H25 H 0.5246 1.1694 0.3436
C24 C 0.5494(8) 1.0183(15) 0.2699(9)
H26 H 0.4988 0.9813 0.2549
C25 C 0.6000(9) 0.9588(15) 0.2414(9)
H27 H 0.5876 0.8793 0.2080
C26 C 0.6737(8) 1.0155(13) 0.2614(8)
H28 H 0.7115 0.9718 0.2412
N1B N 0.9983(3) 1.0745(6) 1.2167(3)
N2B N 0.9803(4) 1.1157(9) 1.2868(4)
N3B N 1.0927(3) 0.9955(6) 1.3186(3)
C1B C 0.8688(7) 0.8825(15) 1.0459(8)
H1B H 0.8584 0.7882 1.0260
H2B H 0.8812 0.8832 1.1057
H3B H 0.8233 0.9395 1.0229
C2B C 0.9363(4) 0.9392(10) 1.0200(5)
C3B C 0.9755(4) 1.0565(9) 1.0658(4)
C4B C 1.0384(5) 1.1154(9) 1.0432(5)
C5B C 1.0816(9) 1.2372(12) 1.0916(8)
H4B H 1.0764 1.3171 1.0556
H5B H 1.0599 1.2586 1.1368
H6B H 1.1362 1.2137 1.1135
C6B C 0.9485(5) 1.1188(11) 1.1348(5)
H7B H 0.8947 1.0903 1.1289
H8B H 0.9495 1.2202 1.1310
C7B C 1.0644(4) 1.0039(7) 1.2366(4)
H9B H 1.0881 0.9653 1.1985
C8B C 1.0390(5) 1.0644(10) 1.3458(5)
H10B H 1.0430 1.0751 1.4022
N4B N 0.3781(4) 0.1802(6) 0.4904(3)
N5B N 0.3957(5) 0.1673(8) 0.4184(5)
N6B N 0.2868(3) 0.0479(6) 0.4154(3)
C9B C 0.3396(5) 0.0855(8) 0.3743(5)
H11B H 0.3366 0.0563 0.3204
C10B C 0.3134(4) 0.1082(6) 0.4886(4)
H12B H 0.2907 0.1016 0.5323
C11B C 0.4274(5) 0.2656(9) 0.5592(5)
H13B H 0.3953 0.3006 0.5932
H14B H 0.4683 0.2070 0.5941
C12B C 0.4647(4) 0.3873(7) 0.5274(4)
C13B C 0.5441(4) 0.3815(7) 0.5322(5)
C14B C 0.5914(6) 0.2523(10) 0.5645(8)
H15B H 0.5618 0.1706 0.5411
H16B H 0.6396 0.2544 0.5489
H17B H 0.6031 0.2493 0.6242
C15B C 0.4206(4) 0.5045(8) 0.4952(5)
C16B C 0.3331(5) 0.5044(11) 0.4878(8)
H18B H 0.3039 0.5151 0.4304
H19B H 0.3191 0.4174 0.5088
H20B H 0.3212 0.5806 0.5198
Zn1B Zn 0.19809(4) -0.09129(7) 0.37803(4)
O1B O 0.1956(3) -0.2052(5) 0.4725(4)
O2B O 0.1640(4) -0.0130(7) 0.5212(4)
O3B O 0.2143(4) -0.2612(10) 0.8049(6)
O4B O 0.2290(5) -0.4292(11) 0.7289(5)
C17B C 0.1768(5) -0.1372(9) 0.5283(5)
C18B C 0.1718(6) -0.2230(12) 0.6013(6)
H21B H 0.1845 -0.3191 0.5912
H22B H 0.1176 -0.2221 0.6032
C19B C 0.2218(6) -0.1822(13) 0.6845(6)
H23B H 0.1949 -0.1041 0.7030
C20B C 0.2223(8) -0.3049(18) 0.7453(10)
C21B C 0.3052(6) -0.1317(13) 0.6911(6)
C22B C 0.3640(7) -0.1908(13) 0.6620(7)
H24B H 0.3532 -0.2722 0.6302
C23B C 0.4369(8) -0.1330(15) 0.6787(9)
H25B H 0.4754 -0.1694 0.6564
C24B C 0.4506(8) -0.0183(15) 0.7301(9)
H26B H 0.5012 0.0187 0.7451
C25B C 0.4000(9) 0.0412(15) 0.7586(9)
H27B H 0.4124 0.1207 0.7920
C26B C 0.3263(8) -0.0155(13) 0.7386(8)
H28B H 0.2885 0.0282 0.7588
Zn1A Zn 0.19809(4) -0.40871(7) 0.87803(4)
Zn1B_2 Zn 1.19809(4) 0.90871(7) 1.37803(4)
Zn1C Zn 0.80191(4) 1.40871(7) 0.12197(4)
O3A O 0.2143(4) -0.2388(10) 0.3049(6)
O3C O 0.7857(4) 1.2388(10) 0.6951(6)
N3B_2 N 0.0927(3) -0.0045(6) 0.3186(3)
loop_
_geom_bond_atom_site_label_1
_geom_bond_atom_site_label_2
_geom_bond_site_symmetry_1
_geom_bond_site_symmetry_2
Zn1 O1 1_555 1_555
O1 C17 1_555 1_555
O2 C17 1_555 1_555
O3 C20 1_555 1_555
O4 C20 1_555 1_555
N1 N2 1_555 1_555
N2 C8 1_555 1_555
N3 Zn1 1_555 1_555
N4 N5 1_555 1_555
N5 C9 1_555 1_555
N6 Zn1 1_555 1_555
C1 H1 1_555 1_555
H2 C1 1_555 1_555
H3 C1 1_555 1_555
C2 C1 1_555 1_555
C3 C2 1_555 1_555
C4 C3 1_555 1_555
C5 C4 1_555 1_555
H4 C5 1_555 1_555
H5 C5 1_555 1_555
H6 C5 1_555 1_555
C6 N1 1_555 1_555
H7 C6 1_555 1_555
H8 C6 1_555 1_555
C7 N1 1_555 1_555
H9 C7 1_555 1_555
C8 N3 1_555 1_555
H10 C8 1_555 1_555
C9 N6 1_555 1_555
H11 C9 1_555 1_555
C10 N4 1_555 1_555
H12 C10 1_555 1_555
C11 N4 1_555 1_555
H13 C11 1_555 1_555
H14 C11 1_555 1_555
C12 C11 1_555 1_555
C13 C12 1_555 1_555
C14 C13 1_555 1_555
H15 C14 1_555 1_555
H16 C14 1_555 1_555
H17 C14 1_555 1_555
C15 C12 1_555 1_555
C16 C15 1_555 1_555
H18 C16 1_555 1_555
H19 C16 1_555 1_555
H20 C16 1_555 1_555
C17 C18 1_555 1_555
C18 H21 1_555 1_555
H22 C18 1_555 1_555
C19 C18 1_555 1_555
H23 C19 1_555 1_555
C20 C19 1_555 1_555
C21 C19 1_555 1_555
C22 C21 1_555 1_555
H24 C22 1_555 1_555
C23 C22 1_555 1_555
H25 C23 1_555 1_555
C24 C23 1_555 1_555
H26 C24 1_555 1_555
C25 C24 1_555 1_555
H27 C25 1_555 1_555
C26 C21 1_555 1_555
H28 C26 1_555 1_555
N1B N2B 1_555 1_555
N2B C8B 1_555 1_555
N3B C7B 1_555 1_555
C1B H1B 1_555 1_555
H2B C1B 1_555 1_555
H3B C1B 1_555 1_555
C2B C4 1_555 1_555
C3B C2B 1_555 1_555
C4B C2 1_555 1_555
C5B C4B 1_555 1_555
H4B C5B 1_555 1_555
H5B C5B 1_555 1_555
H6B C5B 1_555 1_555
C6B N1B 1_555 1_555
H7B C6B 1_555 1_555
H8B C6B 1_555 1_555
C7B N1B 1_555 1_555
H9B C7B 1_555 1_555
C8B N3B 1_555 1_555
H10B C8B 1_555 1_555
N4B N5B 1_555 1_555
N5B C9B 1_555 1_555
N6B C9B 1_555 1_555
C9B H11B 1_555 1_555
C10B N4B 1_555 1_555
H12B C10B 1_555 1_555
C11B N4B 1_555 1_555
H13B C11B 1_555 1_555
H14B C11B 1_555 1_555
C12B C11B 1_555 1_555
C13B C15 1_555 1_555
C14B C13B 1_555 1_555
H15B C14B 1_555 1_555
H16B C14B 1_555 1_555
H17B C14B 1_555 1_555
C15B C13 1_555 1_555
C16B C15B 1_555 1_555
H18B C16B 1_555 1_555
H19B C16B 1_555 1_555
H20B C16B 1_555 1_555
Zn1B N6B 1_555 1_555
O1B Zn1B 1_555 1_555
O2B C17B 1_555 1_555
O3B C20B 1_555 1_555
O4B C20B 1_555 1_555
C17B O1B 1_555 1_555
C18B C17B 1_555 1_555
H21B C18B 1_555 1_555
H22B C18B 1_555 1_555
C19B C18B 1_555 1_555
H23B C19B 1_555 1_555
C20B C19B 1_555 1_555
C21B C19B 1_555 1_555
C22B C21B 1_555 1_555
H24B C22B 1_555 1_555
C23B C22B 1_555 1_555
H25B C23B 1_555 1_555
C24B C23B 1_555 1_555
H26B C24B 1_555 1_555
C25B C24B 1_555 1_555
H27B C25B 1_555 1_555
C26B C21B 1_555 1_555
H28B C26B 1_555 1_555
Zn1A O3B 1_555 1_555
Zn1B_2 N3B 1_555 1_555
Zn1C O3 1_555 1_555
O3A Zn1B 1_555 1_555
O3C Zn1 1_555 1_555
N3B_2 Zn1B 1_555 1_555
N3 C7 1_555 1_555
N6 C10 1_555 1_555
C3 C6 1_555 1_555
C25 C26 1_555 1_555
C1B C2B 1_555 1_555
C3B C4B 1_555 1_555
C3B C6B 1_555 1_555
N6B C10B 1_555 1_555
C12B C13B 1_555 1_555
C12B C15B 1_555 1_555
C25B C26B 1_555 1_555

#END
