
#######################################################################
#
#                 Cambridge Crystallographic Data Centre
#                                CCDC 
#
#######################################################################
#
# If this CIF has been generated from an entry in the Cambridge 
# Structural Database, then it will include bibliographic, chemical, 
# crystal, experimental, refinement or atomic coordinate data resulting 
# from the CCDC's data processing and validation procedures.
#
#######################################################################

data_FIHZOM
_symmetry_cell_setting           monoclinic
_symmetry_space_group_name_H-M   'C 2/c'
_symmetry_Int_Tables_number      15
_space_group_name_Hall           '-C 2yn'
loop_
_symmetry_equiv_pos_site_id
_symmetry_equiv_pos_as_xyz
1 x,y,z
2 1/2+x,1/2+y,z
3 -x,y,1/2-z
4 1/2-x,1/2+y,1/2-z
5 -x,-y,-z
6 1/2-x,1/2-y,-z
7 x,-y,1/2+z
8 1/2+x,1/2-y,1/2+z
_cell_length_a                   21.060(4)
_cell_length_b                   17.305(3)
_cell_length_c                   15.150(3)
_cell_angle_alpha                90
_cell_angle_beta                 131.239(2)
_cell_angle_gamma                90
_cell_volume                     4151.84
loop_
_atom_site_label
_atom_site_type_symbol
_atom_site_fract_x
_atom_site_fract_y
_atom_site_fract_z
La1 La 0.5000 0.27242(9) 0.2500
Cu1 Cu 0.78407(17) 0.50299(17) 0.6702(2)
C1 C 0.6326(15) 0.4266(14) 0.462(2)
C2 C 0.6515(15) 0.4954(14) 0.422(2)
C3 C 0.6051(19) 0.5147(18) 0.305(2)
H1 H 0.5589 0.4852 0.2452
C4 C 0.629(2) 0.579(2) 0.280(3)
H2 H 0.5992 0.5932 0.2025
C5 C 0.698(2) 0.6218(19) 0.369(3)
H3 H 0.7136 0.6655 0.3524
C6 C 0.7430(16) 0.5993(15) 0.485(2)
C7 C 0.8227(16) 0.6360(16) 0.591(3)
C8 C 0.2682(13) -0.0696(14) 0.329(2)
C9 C 0.3411(13) -0.0133(13) 0.399(2)
C10 C 0.3930(14) 0.0002(13) 0.517(2)
H4 H 0.3864 -0.0273 0.5636
C11 C 0.4554(15) 0.0557(15) 0.566(2)
H5 H 0.4908 0.0661 0.6463
C12 C 0.4653(14) 0.0960(14) 0.497(2)
H6 H 0.5063 0.1341 0.5293
C13 C 0.4129(13) 0.0779(13) 0.3797(19)
C14 C 0.4166(14) 0.1112(13) 0.290(2)
N1 N 0.7186(12) 0.5362(11) 0.5082(17)
N2 N 0.3526(10) 0.0249(10) 0.3334(15)
O1 O 0.6778(12) 0.4191(11) 0.5700(15)
O3 O 0.8585(12) 0.6061(11) 0.6882(17)
O5 O 0.8493(14) 0.6952(12) 0.575(2)
O7 O 0.2508(10) -0.1075(11) 0.3791(15)
O9 O 0.2290(10) -0.0721(11) 0.2189(14)
O11 O 0.3651(11) 0.0833(10) 0.1892(14)
O12 O 0.4697(10) 0.1624(10) 0.3245(14)
O13 O 0.3993(11) 0.3185(12) 0.2765(16)
H16 H 0.3584 0.3393 0.2159
H17 H 0.4114 0.3166 0.3240
O14 O 0.3581(12) 0.2213(10) 0.0710(16)
H18 H 0.3485 0.2357 0.0116
H19 H 0.3328 0.1898 0.0597
O15 O 0.5734(11) 0.3824(11) 0.3866(16)
Cu1B Cu 0.21593(17) 0.50299(17) -0.1702(2)
Cu1G Cu 0.28407(17) -0.00299(17) 0.1702(2)
Cu1E Cu 0.71593(17) -0.00299(17) 0.3298(2)
C1B C 0.3674(15) 0.4266(14) 0.038(2)
C2B C 0.3485(15) 0.4954(14) 0.078(2)
C3B C 0.3949(19) 0.5147(18) 0.195(2)
H1B H 0.4411 0.4852 0.2548
C4B C 0.371(2) 0.579(2) 0.220(3)
H2B H 0.4008 0.5932 0.2975
C5B C 0.302(2) 0.6218(19) 0.131(3)
H3B H 0.2864 0.6655 0.1476
C6B C 0.2570(16) 0.5993(15) 0.015(2)
C7B C 0.1773(16) 0.6360(16) -0.091(3)
C8B C 0.7318(13) -0.0696(14) 0.171(2)
C9B C 0.6589(13) -0.0133(13) 0.101(2)
C10B C 0.6070(14) 0.0002(13) -0.017(2)
H4B H 0.6136 -0.0273 -0.0636
C11B C 0.5446(15) 0.0557(15) -0.066(2)
H5B H 0.5092 0.0661 -0.1463
C12B C 0.5347(14) 0.0960(14) 0.003(2)
H6B H 0.4937 0.1341 -0.0293
C13B C 0.5871(13) 0.0779(13) 0.1203(19)
C14B C 0.5834(14) 0.1112(13) 0.210(2)
N1B N 0.2814(12) 0.5362(11) -0.0082(17)
N2B N 0.6474(10) 0.0249(10) 0.1666(15)
N2G N 0.8526(10) 0.4751(10) 0.8334(15)
N2E N 0.1474(10) 0.4751(10) -0.3334(15)
O1B O 0.3222(12) 0.4191(11) -0.0700(15)
O3B O 0.1415(12) 0.6061(11) -0.1882(17)
O5B O 0.1507(14) 0.6952(12) -0.075(2)
O7B O 0.7492(10) -0.1075(11) 0.1209(15)
O9B O 0.7710(10) -0.0721(11) 0.2811(14)
O9G O 0.7290(10) 0.5721(11) 0.7189(14)
O9E O 0.2710(10) 0.5721(11) -0.2189(14)
O11B O 0.6349(11) 0.0833(10) 0.3108(14)
O11G O 0.8651(11) 0.4167(10) 0.6892(14)
O11E O 0.1349(11) 0.4167(10) -0.1892(14)
O12B O 0.5303(10) 0.1624(10) 0.1755(14)
O13B O 0.6007(11) 0.3185(12) 0.2235(16)
H16B H 0.6416 0.3393 0.2841
H17B H 0.5886 0.3166 0.1760
O14B O 0.6419(12) 0.2213(10) 0.4290(16)
H18B H 0.6515 0.2357 0.4884
H19B H 0.6672 0.1898 0.4403
O15B O 0.4266(11) 0.3824(11) 0.1134(16)
O2 O 0.188(3) -0.233(2) 0.132(3)
H7 H 0.1933 -0.1995 0.1759
H8 H 0.1839 -0.2674 0.1713
O4 O 0.170(3) 0.2270(16) 0.132(3)
H9 H 0.1900 0.2440 0.1969
H10 H 0.2169 0.2061 0.1253
O6 O 0.5000 -0.252(2) 0.2500
H11 H 0.4531 -0.2548 0.1844
H11B H 0.5469 -0.2548 0.3156
O8 O 0.0498(15) -0.0632(17) 0.026(2)
H12 H 0.0693 -0.0679 0.0936
H13 H 0.0321 -0.0222 -0.0145
O10 O 0.006(3) 0.208(2) 0.065(5)
H14 H 0.0232 0.2320 0.1240
H15 H -0.0390 0.2348 0.0192
loop_
_geom_bond_atom_site_label_1
_geom_bond_atom_site_label_2
_geom_bond_site_symmetry_1
_geom_bond_site_symmetry_2
La1 O12 1_555 1_555
Cu1 N1 1_555 1_555
C1 C2 1_555 1_555
C2 C3 1_555 1_555
C3 H1 1_555 1_555
C4 C3 1_555 1_555
H2 C4 1_555 1_555
C5 C4 1_555 1_555
H3 C5 1_555 1_555
C6 C5 1_555 1_555
C7 C6 1_555 1_555
C8 C9 1_555 1_555
C9 C10 1_555 1_555
C10 H4 1_555 1_555
C11 C10 1_555 1_555
H5 C11 1_555 1_555
C12 C11 1_555 1_555
H6 C12 1_555 1_555
C13 C12 1_555 1_555
C14 C13 1_555 1_555
N1 C2 1_555 1_555
N2 C9 1_555 1_555
O1 Cu1 1_555 1_555
O2 H7 1_555 1_555
H8 O2 1_555 1_555
O3 Cu1 1_555 1_555
O4 H9 1_555 1_555
H10 O4 1_555 1_555
O5 C7 1_555 1_555
O6 H11 1_555 1_555
O7 C8 1_555 1_555
O8 H12 1_555 1_555
H13 O8 1_555 1_555
O9 C8 1_555 1_555
O10 H14 1_555 1_555
H15 O10 1_555 1_555
O11 C14 1_555 1_555
O12 C14 1_555 1_555
O13 La1 1_555 1_555
H16 O13 1_555 1_555
H17 O13 1_555 1_555
O14 La1 1_555 1_555
H18 O14 1_555 1_555
H19 O14 1_555 1_555
O15 La1 1_555 1_555
Cu1B N1B 1_555 1_555
Cu1G N2 1_555 1_555
Cu1E N2B 1_555 1_555
C1B C2B 1_555 1_555
C2B C3B 1_555 1_555
C3B H1B 1_555 1_555
C4B C3B 1_555 1_555
H2B C4B 1_555 1_555
C5B C4B 1_555 1_555
H3B C5B 1_555 1_555
C6B C5B 1_555 1_555
C7B C6B 1_555 1_555
C8B C9B 1_555 1_555
C9B C10B 1_555 1_555
C10B H4B 1_555 1_555
C11B C10B 1_555 1_555
H5B C11B 1_555 1_555
C12B C11B 1_555 1_555
H6B C12B 1_555 1_555
C13B C12B 1_555 1_555
C14B C13B 1_555 1_555
N1B C2B 1_555 1_555
N2B C9B 1_555 1_555
N2G Cu1 1_555 1_555
N2E Cu1B 1_555 1_555
O1B Cu1B 1_555 1_555
O3B Cu1B 1_555 1_555
O5B C7B 1_555 1_555
H11B O6 1_555 1_555
O7B C8B 1_555 1_555
O9B Cu1E 1_555 1_555
O9G Cu1 1_555 1_555
O9E Cu1B 1_555 1_555
O11B Cu1E 1_555 1_555
O11G Cu1 1_555 1_555
O11E Cu1B 1_555 1_555
O12B La1 1_555 1_555
O13B La1 1_555 1_555
H16B O13B 1_555 1_555
H17B O13B 1_555 1_555
O14B La1 1_555 1_555
H18B O14B 1_555 1_555
H19B O14B 1_555 1_555
O15B La1 1_555 1_555
C1 O1 1_555 1_555
C1 O15 1_555 1_555
C6 N1 1_555 1_555
C7 O3 1_555 1_555
C13 N2 1_555 1_555
O9 Cu1G 1_555 1_555
O11 Cu1G 1_555 1_555
C1B O1B 1_555 1_555
C1B O15B 1_555 1_555
C6B N1B 1_555 1_555
C7B O3B 1_555 1_555
C8B O9B 1_555 1_555
C13B N2B 1_555 1_555
C14B O11B 1_555 1_555
C14B O12B 1_555 1_555

#END
