
#######################################################################
#
#                 Cambridge Crystallographic Data Centre
#                                CCDC 
#
#######################################################################
#
# If this CIF has been generated from an entry in the Cambridge 
# Structural Database, then it will include bibliographic, chemical, 
# crystal, experimental, refinement or atomic coordinate data resulting 
# from the CCDC's data processing and validation procedures.
#
#######################################################################

data_FIJBUV
_symmetry_cell_setting           monoclinic
_symmetry_space_group_name_H-M   'C 2/c'
_symmetry_Int_Tables_number      15
_space_group_name_Hall           '-C 2yn'
loop_
_symmetry_equiv_pos_site_id
_symmetry_equiv_pos_as_xyz
1 x,y,z
2 1/2+x,1/2+y,z
3 -x,y,1/2-z
4 1/2-x,1/2+y,1/2-z
5 -x,-y,-z
6 1/2-x,1/2-y,-z
7 x,-y,1/2+z
8 1/2+x,1/2-y,1/2+z
_cell_length_a                   19.824(2)
_cell_length_b                   7.0417(3)
_cell_length_c                   7.511(1)
_cell_angle_alpha                90
_cell_angle_beta                 102.116(9)
_cell_angle_gamma                90
_cell_volume                     1025.14
loop_
_atom_site_label
_atom_site_type_symbol
_atom_site_fract_x
_atom_site_fract_y
_atom_site_fract_z
Ag1 Ag 0.08432(5) 0.0048(1) 0.1920(1)
Ag2 Ag 0.15822(5) -0.3122(1) 0.9427(1)
O1 O 0.1440(4) -0.1085(10) 0.4587(7)
O2 O 0.2553(4) -0.2575(11) 0.8070(8)
O3 O -0.1078(5) -0.4939(10) -0.1848(10)
O4 O 0.0166(4) -0.1847(9) -0.0479(9)
C1 C 0.2018(6) -0.1847(12) 0.4811(10)
C2 C 0.2523(5) -0.2530(12) 0.6394(10)
C3 C -0.0487(6) -0.4929(12) -0.0853(11)
C4 C 0.0069(6) -0.3547(12) -0.0217(10)
Ag1E Ag 0.41568(5) -0.5048(1) 0.8080(1)
Ag1F Ag 0.08432(5) -0.0048(1) 0.6920(1)
Ag1D Ag -0.08432(5) -0.0048(1) -0.1920(1)
Ag1C Ag 0.41568(5) -0.4952(1) 0.3080(1)
Ag1_2 Ag 0.08432(5) -0.9952(1) 0.1920(1)
Ag1D_2 Ag -0.08432(5) -1.0048(1) -0.1920(1)
Ag2E Ag 0.34178(5) -0.1878(1) 0.0573(1)
Ag2E_2 Ag 0.34178(5) -0.1878(1) 1.0573(1)
Ag2B Ag -0.15822(5) -0.3122(1) -0.4427(1)
Ag2D Ag -0.15822(5) -0.6878(1) 0.0573(1)
Ag2_2 Ag 0.15822(5) -0.3122(1) -0.0573(1)
Ag2F Ag 0.15822(5) -0.6878(1) 0.4427(1)
O1E O 0.3560(4) -0.3915(10) 0.5413(7)
O1F O 0.1440(4) 0.1085(10) -0.0413(7)
O1C O 0.3560(4) -0.6085(10) 1.0413(7)
O2E O 0.2447(4) -0.2425(11) 0.1930(8)
O2E_2 O 0.2447(4) -0.2425(11) 1.1930(8)
O2_2 O 0.2553(4) -0.2575(11) -0.1930(8)
O3D O 0.1078(5) -0.5061(10) 0.1848(10)
O3B O 0.1078(5) -0.4939(10) 0.6848(10)
O3D_2 O 0.1078(5) -0.5061(10) 1.1848(10)
O3A O 0.3922(5) 0.0061(10) -0.1848(10)
O3G O 0.3922(5) -0.0061(10) 0.3152(10)
O4D O -0.0166(4) -0.8153(9) 0.0479(9)
O4D_2 O -0.0166(4) 0.1847(9) 0.0479(9)
O4A O 0.5166(4) -0.6847(9) 0.9521(9)
O4E O 0.4834(4) -0.3153(9) 1.0479(9)
C1E C 0.2982(6) -0.3153(12) 0.5189(10)
C2E C 0.2477(5) -0.2470(12) 0.3606(10)
C3D C 0.0487(6) -0.5071(12) 0.0853(11)
C4D C -0.0069(6) -0.6453(12) 0.0217(10)
loop_
_geom_bond_atom_site_label_1
_geom_bond_atom_site_label_2
_geom_bond_site_symmetry_1
_geom_bond_site_symmetry_2
Ag1 O1 1_555 1_555
Ag2 O2 1_555 1_555
O1 C1 1_555 1_555
O2 C2 1_555 1_555
O3 C3 1_555 1_555
O4 Ag1 1_555 1_555
C1 C2 1_555 1_555
C2 C1E 1_555 1_555
C3 C4 1_555 1_555
C4 O4 1_555 1_555
Ag1E O1E 1_555 1_555
Ag1F O1 1_555 1_555
Ag1D O4 1_555 1_555
Ag1C O1E 1_555 1_555
Ag1_2 O4D 1_555 1_555
Ag1D_2 O4D 1_555 1_555
Ag2E O2E 1_555 1_555
Ag2E_2 O2 1_555 1_555
Ag2B O3 1_555 1_555
Ag2D O3 1_555 1_555
Ag2_2 O2E 1_555 1_555
Ag2F O3D 1_555 1_555
O1E C1E 1_555 1_555
O1F Ag1 1_555 1_555
O1C Ag1E 1_555 1_555
O2E C2E 1_555 1_555
O2E_2 Ag2 1_555 1_555
O2_2 Ag2E 1_555 1_555
O3D Ag2_2 1_555 1_555
O3B Ag2 1_555 1_555
O3D_2 Ag2 1_555 1_555
O3A Ag2E 1_555 1_555
O3G Ag2E 1_555 1_555
O4D C4D 1_555 1_555
O4D_2 Ag1 1_555 1_555
O4A Ag1E 1_555 1_555
O4E Ag1E 1_555 1_555
C1E C2E 1_555 1_555
C2E C1 1_555 1_555
C3D C4 1_555 1_555
C4D C3 1_555 1_555
Ag1D O4D_2 1_555 1_555
Ag2E_2 O2E_2 1_555 1_555
Ag2_2 O2_2 1_555 1_555
Ag2F O3B 1_555 1_555
O3D C3D 1_555 1_555
C3D C4D 1_555 1_555

#END
