
#######################################################################
#
#                 Cambridge Crystallographic Data Centre
#                                CCDC 
#
#######################################################################
#
# If this CIF has been generated from an entry in the Cambridge 
# Structural Database, then it will include bibliographic, chemical, 
# crystal, experimental, refinement or atomic coordinate data resulting 
# from the CCDC's data processing and validation procedures.
#
#######################################################################

data_FIJBUX
_symmetry_cell_setting           triclinic
_symmetry_space_group_name_H-M   'P -1'
_symmetry_Int_Tables_number      2
_space_group_name_Hall           '-P 1'
loop_
_symmetry_equiv_pos_site_id
_symmetry_equiv_pos_as_xyz
1 x,y,z
2 -x,-y,-z
_cell_length_a                   11.5360(7)
_cell_length_b                   13.3668(8)
_cell_length_c                   18.7525(13)
_cell_angle_alpha                71.3860(10)
_cell_angle_beta                 72.2200(10)
_cell_angle_gamma                69.0040(10)
_cell_volume                     2498.1
loop_
_atom_site_label
_atom_site_type_symbol
_atom_site_fract_x
_atom_site_fract_y
_atom_site_fract_z
Ni1 Ni 0.32700(3) 0.37723(3) 0.178675(19)
N1 N 0.1685(2) 0.48284(19) 0.13148(13)
O1 O 0.3543(2) 0.51284(16) 0.19648(11)
C1 C 0.1700(3) 0.5730(2) 0.07611(17)
H1 H 0.2379 0.6028 0.0585
O2 O 0.4439(3) 0.3977(2) 0.06911(12)
H2 H 0.5108 0.4122 0.0674
H3 H 0.4620 0.3610 0.0356
N2 N 0.0640(2) 0.61784(19) 0.04741(13)
C2 C -0.0156(3) 0.5521(2) 0.08775(16)
O3 O 0.5114(3) 0.5497(2) 0.09767(13)
N3 N 0.3128(2) 0.8521(2) -0.20175(15)
O4 O 0.2959(2) 0.24227(16) 0.16808(11)
C3 C 0.0509(3) 0.4674(2) 0.14001(16)
N4 N 0.5034(2) 0.7267(2) -0.21485(14)
O5 O 0.3356(3) 0.2528(2) 0.04222(14)
C4 C -0.0042(3) 0.3862(3) 0.19014(18)
H4 H 0.0379 0.3291 0.2255
N5 N 0.2165(2) 0.35252(19) 0.29188(13)
O6 O 0.6958(3) 0.8317(2) 0.10623(17)
C5 C -0.1240(4) 0.3943(3) 0.1849(2)
H5 H -0.1636 0.3418 0.2180
N6 N 0.0518(2) 0.3908(2) 0.38893(14)
O7 O 0.5910(3) 0.9332(3) 0.18844(19)
C6 C -0.1880(3) 0.4785(3) 0.1316(2)
H6 H -0.2682 0.4799 0.1299
C7 C -0.1358(3) 0.5595(3) 0.08172(19)
H7 H -0.1782 0.6157 0.0461
O8 O 0.3135(3) 0.7867(3) 0.41804(17)
C8 C 0.0293(3) 0.7176(3) -0.01305(19)
H8 H -0.0398 0.7727 0.0104
H9 H -0.0017 0.7001 -0.0489
O9 O 0.2874(4) 0.6322(3) 0.42760(16)
N7 N 0.6099(3) 0.8557(3) 0.16125(18)
C9 C 0.1377(3) 0.7663(3) -0.05735(19)
H10 H 0.2074 0.7118 -0.0809
H11 H 0.1679 0.7859 -0.0222
O10 O 0.2955(4) -0.2122(3) 0.0590(2)
N8 N 0.3242(3) 0.7118(3) 0.39057(17)
C10 C 0.0951(3) 0.8682(3) -0.1196(2)
H12 H 0.0220 0.9204 -0.0960
H13 H 0.0686 0.8473 -0.1558
O11 O 0.3723(6) -0.0880(3) -0.0238(3)
C11 C 0.1990(3) 0.9247(3) -0.1637(2)
H14 H 0.1658 0.9890 -0.2021
H15 H 0.2219 0.9498 -0.1281
N9 N 0.3172(5) -0.1234(3) 0.0385(3)
O12 O 0.0965(4) -0.1651(3) 0.3201(2)
C12 C 0.4214(3) 0.7986(2) -0.17584(17)
H16 H 0.4368 0.8115 -0.1342
N10 N 0.0970(3) -0.0693(3) 0.2996(3)
O13 O 0.0415(3) -0.0028(3) 0.3394(2)
C13 C 0.3233(3) 0.8110(3) -0.26335(18)
C14 C 0.4432(3) 0.7324(3) -0.27080(17)
C15 C 0.4823(4) 0.6732(3) -0.3270(2)
H17 H 0.5610 0.6205 -0.3333
C16 C 0.3964(6) 0.6974(4) -0.3739(2)
H18 H 0.4188 0.6581 -0.4114
C17 C 0.2803(6) 0.7771(5) -0.3664(3)
H19 H 0.2278 0.7914 -0.3997
C18 C 0.2410(4) 0.8352(4) -0.3111(2)
H20 H 0.1627 0.8886 -0.3057
C19 C 0.1238(3) 0.4302(2) 0.32086(16)
H21 H 0.1092 0.5049 0.2970
C20 C 0.2053(3) 0.2534(2) 0.34485(16)
C21 C 0.1016(3) 0.2775(3) 0.40530(17)
C22 C 0.0637(4) 0.1946(3) 0.4665(2)
H22 H -0.0055 0.2108 0.5067
C23 C 0.1342(5) 0.0886(4) 0.4639(2)
H23 H 0.1121 0.0313 0.5035
C24 C 0.2373(4) 0.0635(3) 0.4045(2)
H24 H 0.2822 -0.0100 0.4052
C25 C 0.2757(3) 0.1449(3) 0.34391(18)
H25 H 0.3455 0.1276 0.3043
C26 C -0.0624(3) 0.4557(3) 0.4340(2)
H26 H -0.1299 0.4216 0.4471
H27 H -0.0900 0.5290 0.4019
C27 C -0.0431(4) 0.4660(4) 0.5078(2)
H28 H -0.1249 0.4991 0.5380
H29 H -0.0079 0.3931 0.5380
C28 C 0.4364(3) 0.5621(2) 0.16005(16)
C29 C 0.4468(3) 0.6415(2) 0.19899(16)
C30 C 0.5237(3) 0.7112(2) 0.16097(17)
H30 H 0.5718 0.7091 0.1113
C31 C 0.5269(3) 0.7832(2) 0.19876(17)
C32 C 0.4594(3) 0.7885(3) 0.27277(18)
H31 H 0.4614 0.8389 0.2966
C33 C 0.3891(3) 0.7154(3) 0.30929(17)
C34 C 0.3805(3) 0.6430(2) 0.27385(17)
H32 H 0.3305 0.5957 0.3002
C35 C 0.3035(3) 0.2097(2) 0.11071(17)
C36 C 0.2674(3) 0.1033(2) 0.13119(17)
C37 C 0.3040(4) 0.0408(3) 0.0773(2)
H33 H 0.3481 0.0650 0.0277
C38 C 0.2747(4) -0.0569(3) 0.0976(2)
C39 C 0.2056(4) -0.0952(3) 0.1698(3)
H34 H 0.1851 -0.1609 0.1824
C40 C 0.1691(3) -0.0310(3) 0.2216(2)
C41 C 0.1989(3) 0.0672(3) 0.2043(2)
H35 H 0.1734 0.1081 0.2412
N5A N -0.2165(2) 0.64748(19) 0.70812(13)
N6A N -0.0518(2) 0.6092(2) 0.61107(14)
C19A C -0.1238(3) 0.5698(2) 0.67914(16)
H21A H -0.1092 0.4951 0.7030
C20A C -0.2053(3) 0.7466(2) 0.65515(16)
C21A C -0.1016(3) 0.7225(3) 0.59470(17)
C22A C -0.0637(4) 0.8054(3) 0.5335(2)
H22A H 0.0055 0.7892 0.4933
C23A C -0.1342(5) 0.9114(4) 0.5361(2)
H23A H -0.1121 0.9687 0.4965
C24A C -0.2373(4) 0.9365(3) 0.5955(2)
H24A H -0.2822 1.0100 0.5948
C25A C -0.2757(3) 0.8551(3) 0.65609(18)
H25A H -0.3455 0.8724 0.6957
C26A C 0.0624(3) 0.5443(3) 0.5660(2)
H26A H 0.1299 0.5784 0.5529
H27A H 0.0900 0.4710 0.5981
C27A C 0.0431(4) 0.5340(4) 0.4922(2)
H28A H 0.1249 0.5009 0.4620
H29A H 0.0079 0.6069 0.4620
Ni1A Ni -0.32700(3) 0.62277(3) 0.821325(19)
N1A N -0.1685(2) 0.51716(19) 0.86852(13)
O1A O -0.3543(2) 0.48716(16) 0.80352(11)
C1A C -0.1700(3) 0.4270(2) 0.92389(17)
H1A H -0.2379 0.3972 0.9415
O2A O -0.4439(3) 0.6023(2) 0.93089(12)
H2A H -0.5108 0.5878 0.9326
H3A H -0.4620 0.6390 0.9644
N2A N -0.0640(2) 0.38216(19) 0.95259(13)
C2A C 0.0156(3) 0.4479(2) 0.91225(16)
O3A O -0.5114(3) 0.4503(2) 0.90233(13)
N3A N -0.3128(2) 0.1479(2) 1.20175(15)
O4A O -0.2959(2) 0.75773(16) 0.83192(11)
C3A C -0.0509(3) 0.5326(2) 0.85999(16)
N4A N -0.5034(2) 0.2733(2) 1.21485(14)
O5A O -0.3356(3) 0.7472(2) 0.95778(14)
C4A C 0.0042(3) 0.6138(3) 0.80986(18)
H4A H -0.0379 0.6709 0.7745
O6A O -0.6958(3) 0.1683(2) 0.89377(17)
C5A C 0.1240(4) 0.6057(3) 0.8151(2)
H5A H 0.1636 0.6582 0.7820
O7A O -0.5910(3) 0.0668(3) 0.81156(19)
C6A C 0.1880(3) 0.5215(3) 0.8684(2)
H6A H 0.2682 0.5201 0.8701
C7A C 0.1358(3) 0.4405(3) 0.91828(19)
H7A H 0.1782 0.3843 0.9539
O8A O -0.3135(3) 0.2133(3) 0.58196(17)
C8A C -0.0293(3) 0.2824(3) 1.01305(19)
H8A H 0.0398 0.2273 0.9896
H9A H 0.0017 0.2999 1.0489
O9A O -0.2874(4) 0.3678(3) 0.57240(16)
N7A N -0.6099(3) 0.1443(3) 0.83875(18)
C9A C -0.1377(3) 0.2337(3) 1.05735(19)
H10A H -0.2074 0.2882 1.0809
H11A H -0.1679 0.2141 1.0222
O10A O -0.2955(4) 1.2122(3) 0.9410(2)
N8A N -0.3242(3) 0.2882(3) 0.60943(17)
C10A C -0.0951(3) 0.1318(3) 1.1196(2)
H12A H -0.0220 0.0796 1.0960
H13A H -0.0686 0.1527 1.1558
O11A O -0.3723(6) 1.0880(3) 1.0238(3)
C11A C -0.1990(3) 0.0753(3) 1.1637(2)
H14A H -0.1658 0.0110 1.2021
H15A H -0.2219 0.0502 1.1281
N9A N -0.3172(5) 1.1234(3) 0.9615(3)
O12A O -0.0965(4) 1.1651(3) 0.6799(2)
C12A C -0.4214(3) 0.2014(2) 1.17584(17)
H16A H -0.4368 0.1885 1.1342
N10A N -0.0970(3) 1.0693(3) 0.7004(3)
O13A O -0.0415(3) 1.0028(3) 0.6606(2)
C13A C -0.3233(3) 0.1890(3) 1.26335(18)
C14A C -0.4432(3) 0.2676(3) 1.27080(17)
C15A C -0.4823(4) 0.3268(3) 1.3270(2)
H17A H -0.5610 0.3795 1.3333
C16A C -0.3964(6) 0.3026(4) 1.3739(2)
H18A H -0.4188 0.3419 1.4114
C17A C -0.2803(6) 0.2229(5) 1.3664(3)
H19A H -0.2278 0.2086 1.3997
C18A C -0.2410(4) 0.1648(4) 1.3111(2)
H20A H -0.1627 0.1114 1.3057
C28A C -0.4364(3) 0.4379(2) 0.83995(16)
C29A C -0.4468(3) 0.3585(2) 0.80101(16)
C30A C -0.5237(3) 0.2888(2) 0.83903(17)
H30A H -0.5718 0.2909 0.8887
C31A C -0.5269(3) 0.2168(2) 0.80124(17)
C32A C -0.4594(3) 0.2115(3) 0.72723(18)
H31A H -0.4614 0.1611 0.7034
C33A C -0.3891(3) 0.2846(3) 0.69071(17)
C34A C -0.3805(3) 0.3570(2) 0.72615(17)
H32A H -0.3305 0.4043 0.6998
C35A C -0.3035(3) 0.7903(2) 0.88929(17)
C36A C -0.2674(3) 0.8967(2) 0.86881(17)
C37A C -0.3040(4) 0.9592(3) 0.9227(2)
H33A H -0.3481 0.9350 0.9723
C38A C -0.2747(4) 1.0569(3) 0.9024(2)
C39A C -0.2056(4) 1.0952(3) 0.8302(3)
H34A H -0.1851 1.1609 0.8176
C40A C -0.1691(3) 1.0310(3) 0.7784(2)
C41A C -0.1989(3) 0.9328(3) 0.7957(2)
H35A H -0.1734 0.8919 0.7588
Ni1_2 Ni -0.67300(3) 0.37723(3) 1.178675(19)
Ni1A_2 Ni 0.67300(3) 0.62277(3) -0.178675(19)
N4_2 N -0.4966(2) 0.7267(2) 0.78515(14)
N4A_2 N 0.4966(2) 0.2733(2) 0.21485(14)
O14 O 0.0155(12) -0.2206(14) 0.1672(8)
N11 N 0.3124(3) 0.1806(2) 0.58816(16)
N12 N 0.1746(4) 0.1951(4) 0.6998(2)
C42 C 0.4543(3) 0.0189(3) 0.53519(19)
H36 H 0.3896 -0.0194 0.5540
H37 H 0.5004 -0.0012 0.5755
C43 C 0.3910(4) 0.1403(3) 0.5193(2)
H38 H 0.4558 0.1783 0.4951
H39 H 0.3378 0.1589 0.4829
C44 C 0.2246(5) 0.1394(4) 0.6442(3)
H40 H 0.2014 0.0795 0.6442
C45 C 0.2341(4) 0.2769(4) 0.6782(2)
C46 C 0.3171(4) 0.2705(3) 0.6084(2)
C47 C 0.3847(4) 0.3472(4) 0.5709(3)
H41 H 0.4397 0.3437 0.5232
C48 C 0.3681(6) 0.4282(5) 0.6063(4)
H42 H 0.4114 0.4810 0.5820
C49 C 0.2896(6) 0.4320(5) 0.6757(4)
H43 H 0.2836 0.4868 0.6983
C50 C 0.2186(5) 0.3620(4) 0.7152(3)
H44 H 0.1639 0.3681 0.7627
N11A N 0.6876(3) -0.1806(2) 0.41184(16)
N12A N 0.8254(4) -0.1951(4) 0.3002(2)
C42A C 0.5457(3) -0.0189(3) 0.46481(19)
H36A H 0.6104 0.0194 0.4460
H37A H 0.4996 0.0012 0.4245
C43A C 0.6090(4) -0.1403(3) 0.4807(2)
H38A H 0.5442 -0.1783 0.5049
H39A H 0.6622 -0.1589 0.5171
C44A C 0.7754(5) -0.1394(4) 0.3558(3)
H40A H 0.7986 -0.0795 0.3558
C45A C 0.7659(4) -0.2769(4) 0.3218(2)
C46A C 0.6829(4) -0.2705(3) 0.3916(2)
C47A C 0.6153(4) -0.3472(4) 0.4291(3)
H41A H 0.5603 -0.3437 0.4768
C48A C 0.6319(6) -0.4282(5) 0.3937(4)
H42A H 0.5886 -0.4810 0.4180
C49A C 0.7104(6) -0.4320(5) 0.3243(4)
H43A H 0.7164 -0.4868 0.3017
C50A C 0.7814(5) -0.3620(4) 0.2848(3)
H44A H 0.8361 -0.3681 0.2373
loop_
_geom_bond_atom_site_label_1
_geom_bond_atom_site_label_2
_geom_bond_site_symmetry_1
_geom_bond_site_symmetry_2
Ni1 N1 1_555 1_555
N1 C1 1_555 1_555
O1 Ni1 1_555 1_555
C1 H1 1_555 1_555
O2 Ni1 1_555 1_555
H2 O2 1_555 1_555
H3 O2 1_555 1_555
N2 C1 1_555 1_555
C2 N2 1_555 1_555
O3 C28 1_555 1_555
N3 C11 1_555 1_555
O4 Ni1 1_555 1_555
C3 N1 1_555 1_555
N4 C12 1_555 1_555
O5 C35 1_555 1_555
C4 C3 1_555 1_555
H4 C4 1_555 1_555
N5 Ni1 1_555 1_555
O6 N7 1_555 1_555
C5 C4 1_555 1_555
H5 C5 1_555 1_555
N6 C19 1_555 1_555
O7 N7 1_555 1_555
C6 C5 1_555 1_555
H6 C6 1_555 1_555
C7 C2 1_555 1_555
H7 C7 1_555 1_555
O8 N8 1_555 1_555
C8 N2 1_555 1_555
H8 C8 1_555 1_555
H9 C8 1_555 1_555
O9 N8 1_555 1_555
N7 C31 1_555 1_555
C9 C8 1_555 1_555
H10 C9 1_555 1_555
H11 C9 1_555 1_555
O10 N9 1_555 1_555
N8 C33 1_555 1_555
C10 C9 1_555 1_555
H12 C10 1_555 1_555
H13 C10 1_555 1_555
O11 N9 1_555 1_555
C11 C10 1_555 1_555
H14 C11 1_555 1_555
H15 C11 1_555 1_555
N9 C38 1_555 1_555
O12 N10 1_555 1_555
C12 N3 1_555 1_555
H16 C12 1_555 1_555
N10 O13 1_555 1_555
C13 N3 1_555 1_555
C14 N4 1_555 1_555
C15 C14 1_555 1_555
H17 C15 1_555 1_555
C16 C15 1_555 1_555
H18 C16 1_555 1_555
C17 C16 1_555 1_555
H19 C17 1_555 1_555
C18 C13 1_555 1_555
H20 C18 1_555 1_555
C19 N5 1_555 1_555
H21 C19 1_555 1_555
C20 N5 1_555 1_555
C21 N6 1_555 1_555
C22 C21 1_555 1_555
H22 C22 1_555 1_555
C23 C22 1_555 1_555
H23 C23 1_555 1_555
C24 C23 1_555 1_555
H24 C24 1_555 1_555
C25 C20 1_555 1_555
H25 C25 1_555 1_555
C26 N6 1_555 1_555
H26 C26 1_555 1_555
H27 C26 1_555 1_555
C27 C26 1_555 1_555
H28 C27 1_555 1_555
H29 C27 1_555 1_555
C28 O1 1_555 1_555
C29 C28 1_555 1_555
C30 C29 1_555 1_555
H30 C30 1_555 1_555
C31 C30 1_555 1_555
C32 C31 1_555 1_555
H31 C32 1_555 1_555
C33 C32 1_555 1_555
C34 C29 1_555 1_555
H32 C34 1_555 1_555
C35 O4 1_555 1_555
C36 C35 1_555 1_555
C37 C36 1_555 1_555
H33 C37 1_555 1_555
C38 C37 1_555 1_555
C39 C38 1_555 1_555
H34 C39 1_555 1_555
C40 N10 1_555 1_555
C41 C36 1_555 1_555
H35 C41 1_555 1_555
N11 C43 1_555 1_555
N12 C44 1_555 1_555
C42 H36 1_555 1_555
H37 C42 1_555 1_555
C43 C42 1_555 1_555
H38 C43 1_555 1_555
H39 C43 1_555 1_555
C44 N11 1_555 1_555
H40 C44 1_555 1_555
C45 N12 1_555 1_555
C46 N11 1_555 1_555
C47 C46 1_555 1_555
H41 C47 1_555 1_555
C48 C47 1_555 1_555
H42 C48 1_555 1_555
C49 C48 1_555 1_555
H43 C49 1_555 1_555
C50 C45 1_555 1_555
H44 C50 1_555 1_555
N5A C19A 1_555 1_555
N6A C19A 1_555 1_555
C19A H21A 1_555 1_555
C20A N5A 1_555 1_555
C21A N6A 1_555 1_555
C22A C21A 1_555 1_555
H22A C22A 1_555 1_555
C23A C22A 1_555 1_555
H23A C23A 1_555 1_555
C24A C23A 1_555 1_555
H24A C24A 1_555 1_555
C25A C20A 1_555 1_555
H25A C25A 1_555 1_555
C26A N6A 1_555 1_555
H26A C26A 1_555 1_555
H27A C26A 1_555 1_555
C27A C27 1_555 1_555
H28A C27A 1_555 1_555
H29A C27A 1_555 1_555
Ni1A N5A 1_555 1_555
N1A Ni1A 1_555 1_555
O1A Ni1A 1_555 1_555
C1A N1A 1_555 1_555
H1A C1A 1_555 1_555
O2A Ni1A 1_555 1_555
H2A O2A 1_555 1_555
H3A O2A 1_555 1_555
N2A C1A 1_555 1_555
C2A N2A 1_555 1_555
O3A C28A 1_555 1_555
N3A C11A 1_555 1_555
O4A Ni1A 1_555 1_555
C3A N1A 1_555 1_555
N4A C12A 1_555 1_555
O5A C35A 1_555 1_555
C4A C3A 1_555 1_555
H4A C4A 1_555 1_555
O6A N7A 1_555 1_555
C5A C4A 1_555 1_555
H5A C5A 1_555 1_555
O7A N7A 1_555 1_555
C6A C5A 1_555 1_555
H6A C6A 1_555 1_555
C7A C2A 1_555 1_555
H7A C7A 1_555 1_555
O8A N8A 1_555 1_555
C8A N2A 1_555 1_555
H8A C8A 1_555 1_555
H9A C8A 1_555 1_555
O9A N8A 1_555 1_555
N7A C31A 1_555 1_555
C9A C8A 1_555 1_555
H10A C9A 1_555 1_555
H11A C9A 1_555 1_555
O10A N9A 1_555 1_555
N8A C33A 1_555 1_555
C10A C9A 1_555 1_555
H12A C10A 1_555 1_555
H13A C10A 1_555 1_555
O11A N9A 1_555 1_555
C11A C10A 1_555 1_555
H14A C11A 1_555 1_555
H15A C11A 1_555 1_555
N9A C38A 1_555 1_555
O12A N10A 1_555 1_555
C12A N3A 1_555 1_555
H16A C12A 1_555 1_555
N10A O13A 1_555 1_555
C13A N3A 1_555 1_555
C14A N4A 1_555 1_555
C15A C14A 1_555 1_555
H17A C15A 1_555 1_555
C16A C15A 1_555 1_555
H18A C16A 1_555 1_555
C17A C16A 1_555 1_555
H19A C17A 1_555 1_555
C18A C13A 1_555 1_555
H20A C18A 1_555 1_555
C28A O1A 1_555 1_555
C29A C28A 1_555 1_555
C30A C29A 1_555 1_555
H30A C30A 1_555 1_555
C31A C30A 1_555 1_555
C32A C31A 1_555 1_555
H31A C32A 1_555 1_555
C33A C32A 1_555 1_555
C34A C29A 1_555 1_555
H32A C34A 1_555 1_555
C35A O4A 1_555 1_555
C36A C35A 1_555 1_555
C37A C36A 1_555 1_555
H33A C37A 1_555 1_555
C38A C37A 1_555 1_555
C39A C38A 1_555 1_555
H34A C39A 1_555 1_555
C40A N10A 1_555 1_555
C41A C36A 1_555 1_555
H35A C41A 1_555 1_555
Ni1_2 N4A 1_555 1_555
Ni1A_2 N4 1_555 1_555
N4_2 Ni1A 1_555 1_555
N4A_2 Ni1 1_555 1_555
N11A C43A 1_555 1_555
N12A C44A 1_555 1_555
C42A C42 1_555 1_555
H36A C42A 1_555 1_555
H37A C42A 1_555 1_555
C43A C42A 1_555 1_555
H38A C43A 1_555 1_555
H39A C43A 1_555 1_555
C44A N11A 1_555 1_555
H40A C44A 1_555 1_555
C45A N12A 1_555 1_555
C46A N11A 1_555 1_555
C47A C46A 1_555 1_555
H41A C47A 1_555 1_555
C48A C47A 1_555 1_555
H42A C48A 1_555 1_555
C49A C48A 1_555 1_555
H43A C49A 1_555 1_555
C50A C45A 1_555 1_555
H44A C50A 1_555 1_555
C2 C3 1_555 1_555
C6 C7 1_555 1_555
C13 C14 1_555 1_555
C17 C18 1_555 1_555
C20 C21 1_555 1_555
C24 C25 1_555 1_555
C33 C34 1_555 1_555
C39 C40 1_555 1_555
C40 C41 1_555 1_555
C45 C46 1_555 1_555
C49 C50 1_555 1_555
C20A C21A 1_555 1_555
C24A C25A 1_555 1_555
C26A C27A 1_555 1_555
C2A C3A 1_555 1_555
C6A C7A 1_555 1_555
C13A C14A 1_555 1_555
C17A C18A 1_555 1_555
C33A C34A 1_555 1_555
C39A C40A 1_555 1_555
C40A C41A 1_555 1_555
C45A C46A 1_555 1_555
C49A C50A 1_555 1_555

#END
