
#######################################################################
#
#                 Cambridge Crystallographic Data Centre
#                                CCDC 
#
#######################################################################
#
# If this CIF has been generated from an entry in the Cambridge 
# Structural Database, then it will include bibliographic, chemical, 
# crystal, experimental, refinement or atomic coordinate data resulting 
# from the CCDC's data processing and validation procedures.
#
#######################################################################

data_FIJCAE
_symmetry_cell_setting           triclinic
_symmetry_space_group_name_H-M   'P -1'
_symmetry_Int_Tables_number      2
_space_group_name_Hall           '-P 1'
loop_
_symmetry_equiv_pos_site_id
_symmetry_equiv_pos_as_xyz
1 x,y,z
2 -x,-y,-z
_cell_length_a                   9.6380(19)
_cell_length_b                   12.545(3)
_cell_length_c                   13.703(3)
_cell_angle_alpha                73.81(3)
_cell_angle_beta                 74.37(3)
_cell_angle_gamma                70.42(3)
_cell_volume                     1470.47
loop_
_atom_site_label
_atom_site_type_symbol
_atom_site_fract_x
_atom_site_fract_y
_atom_site_fract_z
Cd1 Cd -0.34674(2) 0.33106(2) 0.571571(15)
O1 O 0.1569(3) 0.3584(4) 0.0714(2)
N1 N 1.4237(3) 0.3247(3) -0.3318(2)
N2 N 0.3089(3) 0.3644(3) 0.1706(2)
H1 H 0.3091 0.3702 0.2331
N3 N -0.1899(3) 0.3741(3) 0.4155(2)
C1 C -0.0801(4) 0.4190(4) 0.4115(3)
H2 H -0.0844 0.4506 0.4681
C2 C 0.0479(4) 0.3737(4) 0.2464(3)
C3 C 1.3766(4) 0.3558(3) -0.2395(3)
H3 H 1.4422 0.3806 -0.2156
C4 C 0.0399(4) 0.4215(3) 0.3283(3)
H4 H 0.1150 0.4554 0.3275
C5 C 1.3303(4) 0.2872(3) -0.3640(3)
H5 H 1.3625 0.2642 -0.4288
C6 C -0.1839(4) 0.3316(4) 0.3342(3)
H6 H -0.2625 0.3012 0.3354
C7 C 1.1410(4) 0.3166(4) -0.2114(3)
C8 C 0.4470(4) 0.3543(4) 0.0994(3)
C9 C 0.9948(4) 0.3176(4) -0.1511(3)
C10 C -0.0679(4) 0.3302(4) 0.2489(3)
H7 H -0.0676 0.2999 0.1926
C11 C 1.1898(4) 0.2811(4) -0.3063(3)
H8 H 1.1277 0.2534 -0.3307
C12 C 0.6236(4) 0.2881(4) -0.0475(3)
H9 H 0.6488 0.2499 -0.1034
C13 C 0.7278(4) 0.3340(4) -0.0317(3)
C14 C 0.5507(4) 0.3999(4) 0.1161(3)
H10 H 0.5256 0.4379 0.1722
C15 C 0.6904(4) 0.3897(4) 0.0506(3)
H11 H 0.7606 0.4209 0.0619
C16 C 0.8728(4) 0.3243(4) -0.0987(3)
C17 C 1.2375(4) 0.3537(4) -0.1774(3)
H12 H 1.2085 0.3771 -0.1129
C18 C 0.4837(4) 0.2978(4) 0.0178(3)
H13 H 0.4138 0.2661 0.0068
C19 C 0.1764(4) 0.3661(4) 0.1531(3)
O2 O -0.4600(3) 0.5473(3) 0.5580(2)
N4 N -0.3886(3) 0.5560(3) 0.6184(2)
O3 O -0.3367(3) 0.1760(3) 0.5106(2)
N5 N -0.2895(8) -0.0113(5) 0.5140(5)
C20 C -0.2893(10) 0.0042(7) 0.4055(5)
H14 H -0.3143 0.0869 0.3740
H15 H -0.3639 -0.0289 0.3984
H16 H -0.1895 -0.0349 0.3706
C21 C -0.2595(17) -0.1330(7) 0.5734(9)
H17 H -0.2656 -0.1343 0.6463
H18 H -0.1589 -0.1775 0.5448
H19 H -0.3342 -0.1672 0.5683
C22 C -0.3199(6) 0.0758(5) 0.5540(5)
H20 H -0.3306 0.0602 0.6272
O4 O -0.0919(3) 0.2312(3) 0.6131(2)
O5 O -0.2801(3) 0.1929(3) 0.7288(2)
O6 O -0.0531(4) 0.1069(4) 0.7550(3)
N6 N -0.1394(4) 0.1751(4) 0.6997(3)
O7 O -0.3985(4) 0.6495(3) 0.6346(2)
O8 O -0.3039(3) 0.4627(3) 0.6605(3)
Cd1_2 Cd 1.65326(2) 0.33106(2) -0.428429(15)
Cd1A Cd -0.65326(2) 0.66894(2) 0.428429(15)
N1_2 N -0.5763(3) 0.3247(3) 0.6682(2)
O2A O -0.5400(3) 0.4527(3) 0.4420(2)
N7 N 0.6959(8) 0.9768(6) 0.0811(6)
O9 O 0.5117(9) 1.0159(8) 0.2190(6)
C23 C 0.5709(11) 0.9681(9) 0.1417(9)
H21 H 0.5196 0.9230 0.1277
C24 C 0.7950(13) 1.0245(10) 0.1033(9)
H22 H 0.7482 1.0557 0.1662
H23 H 0.8168 1.0867 0.0452
H24 H 0.8887 0.9641 0.1138
C25 C 0.7586(14) 0.9269(9) -0.0156(8)
H25 H 0.6858 0.8944 -0.0264
H26 H 0.8524 0.8657 -0.0076
H27 H 0.7781 0.9881 -0.0755
loop_
_geom_bond_atom_site_label_1
_geom_bond_atom_site_label_2
_geom_bond_site_symmetry_1
_geom_bond_site_symmetry_2
Cd1 N3 1_555 1_555
O1 C19 1_555 1_555
N1 C3 1_555 1_555
N2 H1 1_555 1_555
N3 C1 1_555 1_555
C1 H2 1_555 1_555
C2 C4 1_555 1_555
C3 H3 1_555 1_555
C4 C1 1_555 1_555
H4 C4 1_555 1_555
C5 N1 1_555 1_555
H5 C5 1_555 1_555
C6 N3 1_555 1_555
H6 C6 1_555 1_555
C7 C9 1_555 1_555
C8 N2 1_555 1_555
C9 C16 1_555 1_555
C10 C2 1_555 1_555
H7 C10 1_555 1_555
C11 C5 1_555 1_555
H8 C11 1_555 1_555
C12 H9 1_555 1_555
C13 C12 1_555 1_555
C14 C8 1_555 1_555
H10 C14 1_555 1_555
C15 C13 1_555 1_555
H11 C15 1_555 1_555
C16 C13 1_555 1_555
C17 C3 1_555 1_555
H12 C17 1_555 1_555
C18 C8 1_555 1_555
H13 C18 1_555 1_555
C19 N2 1_555 1_555
O2 Cd1 1_555 1_555
N4 O2 1_555 1_555
O3 Cd1 1_555 1_555
N5 C20 1_555 1_555
C20 H14 1_555 1_555
H15 C20 1_555 1_555
H16 C20 1_555 1_555
C21 N5 1_555 1_555
H17 C21 1_555 1_555
H18 C21 1_555 1_555
H19 C21 1_555 1_555
C22 O3 1_555 1_555
H20 C22 1_555 1_555
O4 Cd1 1_555 1_555
O5 Cd1 1_555 1_555
O6 N6 1_555 1_555
N6 O4 1_555 1_555
O7 N4 1_555 1_555
O8 Cd1 1_555 1_555
N7 C23 1_555 1_555
O9 C23 1_555 1_555
C23 H21 1_555 1_555
C24 N7 1_555 1_555
H22 C24 1_555 1_555
H23 C24 1_555 1_555
H24 C24 1_555 1_555
C25 N7 1_555 1_555
H25 C25 1_555 1_555
H26 C25 1_555 1_555
H27 C25 1_555 1_555
Cd1_2 N1 1_555 1_555
Cd1A O2 1_555 1_555
N1_2 Cd1 1_555 1_555
O2A Cd1 1_555 1_555
C2 C19 1_555 1_555
C6 C10 1_555 1_555
C7 C11 1_555 1_555
C7 C17 1_555 1_555
C12 C18 1_555 1_555
C14 C15 1_555 1_555
N4 O8 1_555 1_555
N5 C22 1_555 1_555
O5 N6 1_555 1_555
Cd1A O2A 1_555 1_555

#END
