
#######################################################################
#
#                 Cambridge Crystallographic Data Centre
#                                CCDC 
#
#######################################################################
#
# If this CIF has been generated from an entry in the Cambridge 
# Structural Database, then it will include bibliographic, chemical, 
# crystal, experimental, refinement or atomic coordinate data resulting 
# from the CCDC's data processing and validation procedures.
#
#######################################################################

data_FIJDAE
_symmetry_cell_setting           monoclinic
_symmetry_space_group_name_H-M   'P 21/n'
_symmetry_Int_Tables_number      14
_space_group_name_Hall           '-P 2yn'
loop_
_symmetry_equiv_pos_site_id
_symmetry_equiv_pos_as_xyz
1 x,y,z
2 1/2-x,1/2+y,1/2-z
3 -x,-y,-z
4 1/2+x,1/2-y,1/2+z
_cell_length_a                   8.3639(3)
_cell_length_b                   17.9914(8)
_cell_length_c                   9.9617(4)
_cell_angle_alpha                90
_cell_angle_beta                 102.687(1)
_cell_angle_gamma                90
_cell_volume                     1462.42
loop_
_atom_site_label
_atom_site_type_symbol
_atom_site_fract_x
_atom_site_fract_y
_atom_site_fract_z
Pb1 Pb 0.747585(15) 0.028903(7) 0.495535(12)
O1 O 0.7330(3) -0.07550(16) 0.3291(3)
O2 O 0.4930(3) -0.05728(16) 0.3795(3)
O3 O 0.2490(3) -0.41609(16) 0.1397(3)
H1 H 0.243(6) -0.287(2) 0.225(4)
O4 O 0.4912(3) -0.43532(16) 0.0938(3)
C1 C 0.5381(5) -0.1737(2) 0.2780(4)
C2 C 0.3816(5) -0.1993(3) 0.2778(5)
H2 H 0.326(6) -0.172(3) 0.303(5)
C3 C 0.3346(5) -0.2697(2) 0.2303(5)
C4 C 0.4416(5) -0.3158(2) 0.1832(4)
C5 C 0.5971(6) -0.2904(3) 0.1817(5)
H3 H 0.658(7) -0.317(3) 0.147(5)
C6 C 0.6448(6) -0.2198(3) 0.2303(5)
H4 H 0.734(7) -0.203(3) 0.237(5)
C7 C 0.5901(5) -0.0978(2) 0.3316(4)
C8 C 0.3918(5) -0.3937(2) 0.1366(4)
O5 O 0.9531(4) 0.09849(19) 0.7093(3)
H5 H 1.064(9) 0.088(4) 0.691(7)
C9 C 0.9585(7) 0.0696(4) 0.8444(5)
H7 H 0.847(7) 0.056(3) 0.861(5)
H8 H 1.008(9) 0.173(4) 0.948(7)
C10 C 1.0253(9) 0.1242(5) 0.9547(6)
H9 H 1.027(9) 0.034(4) 0.862(7)
H10 H 1.154(10) 0.138(4) 0.959(7)
H11 H 1.038(8) 0.109(3) 1.050(7)
Pb1B Pb 0.252415(15) -0.028903(7) 0.504465(12)
Pb1C Pb 0.247585(15) -0.528903(7) -0.004465(12)
Pb1A Pb 0.752415(15) -0.471097(7) 0.004465(12)
O2B O 0.5070(3) 0.05728(16) 0.6205(3)
O3C O 0.7490(3) -0.08391(16) 0.6397(3)
O4C O 0.9912(3) -0.06468(16) 0.5938(3)
O4A O 1.0088(3) 0.06468(16) 0.4062(3)
O6 O 0.5442(4) 0.1147(2) 0.2907(4)
H6 H 0.470(8) 0.103(4) 0.318(7)
C11 C 0.5033(9) 0.1009(6) 0.1468(7)
H12 H 0.4458 0.1451 0.1003
H13 H 0.4255 0.0587 0.1292
C12 C 0.6389(9) 0.0843(5) 0.0855(7)
H14 H 0.5987 0.0746 -0.0129
H15 H 0.6966 0.0403 0.1298
H16 H 0.7143 0.1267 0.0977
loop_
_geom_bond_atom_site_label_1
_geom_bond_atom_site_label_2
_geom_bond_site_symmetry_1
_geom_bond_site_symmetry_2
Pb1 O1 1_555 1_555
O1 C7 1_555 1_555
O2 Pb1 1_555 1_555
O3 C8 1_555 1_555
H1 C3 1_555 1_555
O4 C8 1_555 1_555
C1 C2 1_555 1_555
C2 H2 1_555 1_555
C3 C2 1_555 1_555
C4 C3 1_555 1_555
C5 C4 1_555 1_555
H3 C5 1_555 1_555
C6 C1 1_555 1_555
H4 C6 1_555 1_555
C7 O2 1_555 1_555
C8 C4 1_555 1_555
O5 Pb1 1_555 1_555
H5 O5 1_555 1_555
O6 H6 1_555 1_555
C9 O5 1_555 1_555
H7 C9 1_555 1_555
H8 C10 1_555 1_555
C10 C9 1_555 1_555
H9 C9 1_555 1_555
H10 C10 1_555 1_555
H11 C10 1_555 1_555
C11 O6 1_555 1_555
H12 C11 1_555 1_555
H13 C11 1_555 1_555
C12 C11 1_555 1_555
H14 C12 1_555 1_555
H15 C12 1_555 1_555
H16 C12 1_555 1_555
Pb1B O2 1_555 1_555
Pb1C O3 1_555 1_555
Pb1A O4 1_555 1_555
O2B Pb1 1_555 1_555
O3C Pb1 1_555 1_555
O4C Pb1 1_555 1_555
O4A Pb1 1_555 1_555
O4 Pb1C 1_555 1_555
C1 C7 1_555 1_555
C5 C6 1_555 1_555
Pb1B O2B 1_555 1_555

#END
