
#######################################################################
#
#                 Cambridge Crystallographic Data Centre
#                                CCDC 
#
#######################################################################
#
# If this CIF has been generated from an entry in the Cambridge 
# Structural Database, then it will include bibliographic, chemical, 
# crystal, experimental, refinement or atomic coordinate data resulting 
# from the CCDC's data processing and validation procedures.
#
#######################################################################

data_FIJDIM12
_symmetry_cell_setting           monoclinic
_symmetry_space_group_name_H-M   'C 2/c'
_symmetry_Int_Tables_number      15
_space_group_name_Hall           '-C 2yn'
loop_
_symmetry_equiv_pos_site_id
_symmetry_equiv_pos_as_xyz
1 x,y,z
2 -x,y,1/2-z
3 1/2+x,1/2+y,z
4 1/2-x,1/2+y,1/2-z
5 -x,-y,-z
6 x,-y,1/2+z
7 1/2-x,1/2-y,-z
8 1/2+x,1/2-y,1/2+z
_cell_length_a                   24.804(2)
_cell_length_b                   10.7115(4)
_cell_length_c                   17.332(2)
_cell_angle_alpha                90
_cell_angle_beta                 129.90(2)
_cell_angle_gamma                90
_cell_volume                     3532.72
loop_
_atom_site_label
_atom_site_type_symbol
_atom_site_fract_x
_atom_site_fract_y
_atom_site_fract_z
Mn1 Mn 0.17575(3) 0.81853(6) 0.39062(4)
Mn2 Mn 0.0000 0.71754(8) 0.2500
O1 O 0.15811(15) 0.6589(3) 0.3081(2)
O2 O 0.04769(15) 0.5890(3) 0.2167(2)
O3 O 0.21145(14) 0.3072(3) 0.02447(19)
O4 O 0.09875(14) 0.2700(3) -0.0860(2)
O5 O 0.14611(15) 0.9353(3) 0.2653(2)
O6 O 0.05018(15) 0.8693(3) 0.2342(2)
O7 O 0.18113(17) 0.9810(3) 0.4680(2)
N1 N 0.1419(3) 1.1624(5) 0.4837(4)
C1 C 0.1077(2) 0.5940(4) 0.2405(3)
C2 C 0.1195(2) 0.5161(4) 0.1799(3)
C3 C 0.1819(2) 0.5268(4) 0.1968(3)
H1 H 0.2177 0.5807 0.2484
C4 C 0.0674(2) 0.4381(4) 0.1034(3)
H2 H 0.0249 0.4283 0.0924
C5 C 0.1930(2) 0.4599(4) 0.1396(3)
H3 H 0.2368 0.4656 0.1538
C6 C 0.0766(2) 0.3746(4) 0.0431(3)
H4 H 0.0398 0.3241 -0.0106
C7 C 0.1400(2) 0.3847(4) 0.0615(3)
C8 C 0.1506(2) 0.3179(4) -0.0040(3)
C9 C 0.0810(2) 0.9197(4) 0.2063(3)
C10 C 0.0387(2) 0.9633(4) 0.1003(3)
C11 C 0.0715(2) 1.0241(5) 0.0686(3)
H5 H 0.1205 1.0407 0.1153
C12 C -0.0325(2) 0.9402(4) 0.0307(3)
H6 H -0.0552 0.8989 0.0515
C13 C 0.1372(3) 1.0645(6) 0.4323(4)
H7 H 0.0971 1.0591 0.3630
C14 C 0.1987(4) 1.1697(6) 0.5925(5)
H8 H 0.2129 1.0837 0.6195
H9 H 0.1802 1.2100 0.6228
C15 C 0.0831(5) 1.2540(7) 0.4323(6)
H10 H 0.0386 1.2097 0.3801
H11 H 0.0796 1.2880 0.4821
C16 C 0.2617(4) 1.2389(7) 0.6249(6)
H12 H 0.2942 1.2481 0.6982
H13 H 0.2478 1.3216 0.5934
H14 H 0.2849 1.1927 0.6045
C17 C 0.0903(5) 1.3548(7) 0.3866(6)
H15 H 0.0535 1.4166 0.3626
H16 H 0.0860 1.3237 0.3297
H17 H 0.1365 1.3937 0.4359
Mn1D Mn -0.17575(3) 0.18147(6) -0.39062(4)
Mn1C Mn 0.32425(3) 0.31853(6) 0.10938(4)
Mn1E Mn 0.17575(3) 0.18147(6) -0.10938(4)
Mn1D_2 Mn -0.17575(3) 1.18147(6) -0.39062(4)
Mn1G Mn -0.32425(3) 0.68147(6) -0.10938(4)
Mn1A Mn -0.17575(3) 0.81853(6) 0.10938(4)
Mn2D Mn 0.0000 0.28246(8) -0.2500
Mn2D_2 Mn 0.0000 1.28246(8) -0.2500
O1D O -0.15811(15) 0.3411(3) -0.3081(2)
O2D O -0.04769(15) 0.4110(3) -0.2167(2)
O2A O -0.04769(15) 0.5890(3) 0.2833(2)
O3D O -0.21145(14) 0.6928(3) -0.02447(19)
O3C O 0.28855(14) 0.8072(3) 0.47553(19)
O3E O 0.21145(14) 0.6928(3) 0.52447(19)
O3G O -0.28855(14) 0.1928(3) -0.47553(19)
O3A O -0.21145(14) 0.3072(3) -0.52447(19)
O4D O -0.09875(14) 0.7300(3) 0.0860(2)
O4E O 0.09875(14) 0.7300(3) 0.4140(2)
O4A O -0.09875(14) 0.2700(3) -0.4140(2)
O5D O -0.14611(15) 1.0647(3) -0.2653(2)
O5D_2 O -0.14611(15) 0.0647(3) -0.2653(2)
O6D O -0.05018(15) 1.1307(3) -0.2342(2)
O6A O -0.05018(15) 0.8693(3) 0.2658(2)
O7D O -0.18113(17) 0.0190(3) -0.4680(2)
N1D N -0.1419(3) -0.1624(5) -0.4837(4)
C1D C -0.1077(2) 0.4060(4) -0.2405(3)
C2D C -0.1195(2) 0.4839(4) -0.1799(3)
C3D C -0.1819(2) 0.4732(4) -0.1968(3)
H1D H -0.2177 0.4193 -0.2484
C4D C -0.0674(2) 0.5619(4) -0.1034(3)
H2D H -0.0249 0.5717 -0.0924
C5D C -0.1930(2) 0.5401(4) -0.1396(3)
H3D H -0.2368 0.5344 -0.1538
C6D C -0.0766(2) 0.6254(4) -0.0431(3)
H4D H -0.0398 0.6759 0.0106
C7D C -0.1400(2) 0.6153(4) -0.0615(3)
C8D C -0.1506(2) 0.6821(4) 0.0040(3)
C9D C -0.0810(2) 1.0803(4) -0.2063(3)
C10D C -0.0387(2) 1.0367(4) -0.1003(3)
C11D C -0.0715(2) 0.9759(5) -0.0686(3)
H5D H -0.1205 0.9593 -0.1153
C12D C 0.0325(2) 1.0598(4) -0.0307(3)
H6D H 0.0552 1.1011 -0.0515
C13D C -0.1372(3) -0.0645(6) -0.4323(4)
H7D H -0.0971 -0.0591 -0.3630
C14D C -0.1987(4) -0.1697(6) -0.5925(5)
H8D H -0.2129 -0.0837 -0.6195
H9D H -0.1802 -0.2100 -0.6228
C15D C -0.0831(5) -0.2540(7) -0.4323(6)
H10D H -0.0386 -0.2097 -0.3801
H11D H -0.0796 -0.2880 -0.4821
C16D C -0.2617(4) -0.2389(7) -0.6249(6)
H12D H -0.2942 -0.2481 -0.6982
H13D H -0.2478 -0.3216 -0.5934
H14D H -0.2849 -0.1927 -0.6045
C17D C -0.0903(5) -0.3548(7) -0.3866(6)
H15D H -0.0535 -0.4166 -0.3626
H16D H -0.0860 -0.3237 -0.3297
H17D H -0.1365 -0.3937 -0.4359
loop_
_geom_bond_atom_site_label_1
_geom_bond_atom_site_label_2
_geom_bond_site_symmetry_1
_geom_bond_site_symmetry_2
Mn1 O1 1_555 1_555
Mn2 O2 1_555 1_555
O1 C1 1_555 1_555
O2 C1 1_555 1_555
O3 C8 1_555 1_555
O4 C8 1_555 1_555
O5 Mn1 1_555 1_555
O6 Mn2 1_555 1_555
O7 Mn1 1_555 1_555
N1 C13 1_555 1_555
C1 C2 1_555 1_555
C2 C3 1_555 1_555
C3 H1 1_555 1_555
C4 C2 1_555 1_555
H2 C4 1_555 1_555
C5 C3 1_555 1_555
H3 C5 1_555 1_555
C6 C4 1_555 1_555
H4 C6 1_555 1_555
C7 C5 1_555 1_555
C8 C7 1_555 1_555
C9 O5 1_555 1_555
C10 C9 1_555 1_555
C11 C10 1_555 1_555
H5 C11 1_555 1_555
C12 C10 1_555 1_555
H6 C12 1_555 1_555
C13 O7 1_555 1_555
H7 C13 1_555 1_555
C14 N1 1_555 1_555
H8 C14 1_555 1_555
H9 C14 1_555 1_555
C15 N1 1_555 1_555
H10 C15 1_555 1_555
H11 C15 1_555 1_555
C16 C14 1_555 1_555
H12 C16 1_555 1_555
H13 C16 1_555 1_555
H14 C16 1_555 1_555
C17 C15 1_555 1_555
H15 C17 1_555 1_555
H16 C17 1_555 1_555
H17 C17 1_555 1_555
Mn1D O1D 1_555 1_555
Mn1C O3 1_555 1_555
Mn1E O3 1_555 1_555
Mn1D_2 O5D 1_555 1_555
Mn1G O3D 1_555 1_555
Mn1A O3D 1_555 1_555
Mn2D O4 1_555 1_555
Mn2D_2 O6D 1_555 1_555
O1D C1D 1_555 1_555
O2D Mn2D 1_555 1_555
O2A Mn2 1_555 1_555
O3D C8D 1_555 1_555
O3C Mn1 1_555 1_555
O3E Mn1 1_555 1_555
O3G Mn1D 1_555 1_555
O3A Mn1D 1_555 1_555
O4D Mn2 1_555 1_555
O4E Mn1 1_555 1_555
O4A Mn1D 1_555 1_555
O5D C9D 1_555 1_555
O5D_2 Mn1D 1_555 1_555
O6D C9D 1_555 1_555
O6A Mn2 1_555 1_555
O7D Mn1D 1_555 1_555
N1D C13D 1_555 1_555
C1D O2D 1_555 1_555
C2D C1D 1_555 1_555
C3D C2D 1_555 1_555
H1D C3D 1_555 1_555
C4D C2D 1_555 1_555
H2D C4D 1_555 1_555
C5D C3D 1_555 1_555
H3D C5D 1_555 1_555
C6D C4D 1_555 1_555
H4D C6D 1_555 1_555
C7D C5D 1_555 1_555
C8D O4D 1_555 1_555
C9D C10D 1_555 1_555
C10D C11D 1_555 1_555
C11D C12 1_555 1_555
H5D C11D 1_555 1_555
C12D C11 1_555 1_555
H6D C12D 1_555 1_555
C13D O7D 1_555 1_555
H7D C13D 1_555 1_555
C14D N1D 1_555 1_555
H8D C14D 1_555 1_555
H9D C14D 1_555 1_555
C15D N1D 1_555 1_555
H10D C15D 1_555 1_555
H11D C15D 1_555 1_555
C16D C14D 1_555 1_555
H12D C16D 1_555 1_555
H13D C16D 1_555 1_555
H14D C16D 1_555 1_555
C17D C15D 1_555 1_555
H15D C17D 1_555 1_555
H16D C17D 1_555 1_555
H17D C17D 1_555 1_555
Mn2 O4E 1_555 1_555
O4 Mn1E 1_555 1_555
O6 C9 1_555 1_555
C6 C7 1_555 1_555
Mn1A O4D 1_555 1_555
Mn2D O4A 1_555 1_555
C6D C7D 1_555 1_555
C7D C8D 1_555 1_555
C10D C12D 1_555 1_555

#END
