
#######################################################################
#
#                 Cambridge Crystallographic Data Centre
#                                CCDC 
#
#######################################################################
#
# If this CIF has been generated from an entry in the Cambridge 
# Structural Database, then it will include bibliographic, chemical, 
# crystal, experimental, refinement or atomic coordinate data resulting 
# from the CCDC's data processing and validation procedures.
#
#######################################################################

data_FIJDIM10
_symmetry_cell_setting           monoclinic
_symmetry_space_group_name_H-M   'I 2/a'
_symmetry_Int_Tables_number      15
_space_group_name_Hall           '-I 2ya'
loop_
_symmetry_equiv_pos_site_id
_symmetry_equiv_pos_as_xyz
1 x,y,z
2 1/2+x,1/2+y,1/2+z
3 1/2-x,y,-z
4 -x,1/2+y,1/2-z
5 -x,-y,-z
6 1/2-x,1/2-y,1/2-z
7 1/2+x,-y,z
8 x,1/2-y,1/2+z
_cell_length_a                   19.1076
_cell_length_b                   10.6527
_cell_length_c                   17.3907
_cell_angle_alpha                90
_cell_angle_beta                 94.172
_cell_angle_gamma                90
_cell_volume                     3530.45
loop_
_atom_site_label
_atom_site_type_symbol
_atom_site_fract_x
_atom_site_fract_y
_atom_site_fract_z
Mn1 Mn 0.25000 1.02979 0.00000
Mn2 Mn 0.07416 0.92912 -0.03447
O1 O 0.03869(5) 1.05763(10) 0.06269(6)
O2 O 0.15175(5) 1.01827(10) 0.06525(6)
O3 O 0.20315(6) 1.34034(11) 0.41858(7)
O4 O 0.09217(6) 1.41158(14) 0.39968(8)
O5 O 0.19892(6) 0.87672(12) -0.06482(6)
O6 O 0.10278(7) 0.80859(18) -0.12993(10)
O7 O 0.06869(8) 0.76686(12) 0.03874(10)
N1 N 0.1091(1) 0.5862(2) 0.0964(1)
C1 C 0.09998(5) 1.06737(11) 0.09553(5)
C2 C 0.11062(5) 1.13445(10) 0.17127(6)
C3 C 0.05703(6) 1.21068(11) 0.19653(6)
C4 C 0.06801(6) 1.27790(11) 0.26508(6)
C5 C 0.13125(5) 1.26619(10) 0.31055(6)
C6 C 0.18350(6) 1.18616(12) 0.28658(7)
C7 C 0.17386(6) 1.12232(12) 0.21648(7)
C8 C 0.14312(6) 1.34486(11) 0.38256(6)
C9 C 0.16834(6) 0.82586(11) -0.12416(7)
C10 C 0.21072(5) 0.78514(10) -0.18897(6)
C11 C 0.28296(6) 0.80859(12) -0.18532(7)
C12 C 0.17773(6) 0.72638(13) -0.25352(7)
C13 C 0.11367(9) 0.68246(15) 0.04704(10)
C14 C 0.0504(1) 0.5795(2) 0.1464(1)
C15 C -0.0133(1) 0.5078(2) 0.1111(1)
C16 C 0.1655(1) 0.4918(2) 0.1035(1)
C17 C 0.1583(1) 0.3875(2) 0.0442(1)
H1 H 0.00716 1.21720 0.16282
H2 H 0.02698 1.33882 0.28354
H3 H 0.23183 1.17394 0.32244
H4 H 0.21554 1.06367 0.19726
H5 H 0.30852 0.85285 -0.13465
H6 H 0.12173 0.70881 -0.25657
H7 H 0.15865 0.68730 0.01281
H8 H 0.03388 0.67315 0.15870
H9 H 0.06845 0.53360 0.19903
H10 H -0.03466 0.55718 0.05889
H11 H -0.05296 0.50282 0.15377
H12 H 0.00316 0.41276 0.09584
H13 H 0.16744 0.45043 0.16004
H14 H 0.21419 0.53748 0.09648
H15 H 0.10691 0.34264 0.04825
H16 H 0.20095 0.31952 0.05705
H17 H 0.16218 0.42780 -0.01359
Mn1G Mn 0.25000 1.47021 0.50000
Mn1G_2 Mn 0.25000 0.47021 -0.50000
Mn1G_3 Mn 0.25000 1.47021 -0.50000
Mn2B Mn 0.42584 0.92912 0.03447
Mn2D Mn -0.07416 1.07088 0.03447
Mn2G Mn 0.07416 1.57088 0.46553
Mn2E Mn 0.42584 0.57088 -0.46553
Mn2F Mn 0.57416 1.07088 -0.03447
Mn2E_2 Mn 0.42584 1.57088 -0.46553
O1B O 0.46131(5) 1.05763(10) -0.06269(6)
O1D O -0.03869(5) 0.94237(10) -0.06269(6)
O1F O 0.53869(5) 0.94237(10) 0.06269(6)
O2B O 0.34825(5) 1.01827(10) -0.06525(6)
O3B O 0.29685(6) 1.34034(11) -0.41858(7)
O3G O 0.20315(6) 1.15966(11) -0.08142(7)
O3E O 0.29685(6) 1.15966(11) 0.08142(7)
O4B O 0.40783(6) 1.41158(14) -0.39968(8)
O4G O 0.09217(6) 1.08842(14) -0.10032(8)
O4E O 0.40783(6) 1.08842(14) 0.10032(8)
O5E O 0.30108(6) 0.62328(12) -0.43518(6)
O5B O 0.30108(6) 0.87672(12) 0.06482(6)
O6E O 0.39722(7) 0.69141(18) -0.37007(10)
O6B O 0.39722(7) 0.80859(18) 0.12993(10)
O7B O 0.43131(8) 0.76686(12) -0.03874(10)
N1B N 0.3909(1) 0.5862(2) -0.0964(1)
C1B C 0.40002(5) 1.06737(11) -0.09553(5)
C2B C 0.38938(5) 1.13445(10) -0.17127(6)
C3B C 0.44297(6) 1.21068(11) -0.19653(6)
C4B C 0.43199(6) 1.27790(11) -0.26508(6)
C5B C 0.36875(5) 1.26619(10) -0.31055(6)
C6B C 0.31650(6) 1.18616(12) -0.28658(7)
C7B C 0.32614(6) 1.12232(12) -0.21648(7)
C8B C 0.35688(6) 1.34486(11) -0.38256(6)
C9E C 0.33166(6) 0.67414(11) -0.37584(7)
C10E C 0.28928(5) 0.71486(10) -0.31103(6)
C11E C 0.21704(6) 0.69141(12) -0.31468(7)
C12E C 0.32227(6) 0.77362(13) -0.24648(7)
C13B C 0.38633(9) 0.68246(15) -0.04704(10)
C14B C 0.4496(1) 0.5795(2) -0.1464(1)
C15B C 0.5133(1) 0.5078(2) -0.1111(1)
C16B C 0.3345(1) 0.4918(2) -0.1035(1)
C17B C 0.3417(1) 0.3875(2) -0.0442(1)
H1B H 0.49284 1.21720 -0.16282
H2B H 0.47302 1.33882 -0.28354
H3B H 0.26817 1.17394 -0.32244
H4B H 0.28446 1.06367 -0.19726
H5E H 0.19148 0.64715 -0.36535
H6E H 0.37827 0.79119 -0.24343
H7B H 0.34135 0.68730 -0.01281
H8B H 0.46612 0.67315 -0.15870
H9B H 0.43155 0.53360 -0.19903
H10B H 0.53466 0.55718 -0.05889
H11B H 0.55296 0.50282 -0.15377
H12B H 0.49684 0.41276 -0.09584
H13B H 0.33256 0.45043 -0.16004
H14B H 0.28581 0.53748 -0.09648
H15B H 0.39309 0.34264 -0.04825
H16B H 0.29905 0.31952 -0.05705
H17B H 0.33782 0.42780 0.01359
loop_
_geom_bond_atom_site_label_1
_geom_bond_atom_site_label_2
_geom_bond_site_symmetry_1
_geom_bond_site_symmetry_2
Mn1 O2 1_555 1_555
Mn2 O1 1_555 1_555
O1 C1 1_555 1_555
O2 Mn2 1_555 1_555
O3 C8 1_555 1_555
O4 C8 1_555 1_555
O5 Mn1 1_555 1_555
O6 Mn2 1_555 1_555
O7 Mn2 1_555 1_555
N1 C13 1_555 1_555
C1 O2 1_555 1_555
C2 C1 1_555 1_555
C3 C2 1_555 1_555
C4 C3 1_555 1_555
C5 C4 1_555 1_555
C6 C5 1_555 1_555
C7 C2 1_555 1_555
C8 C5 1_555 1_555
C9 O5 1_555 1_555
C10 C9 1_555 1_555
C11 C10 1_555 1_555
C12 C10 1_555 1_555
C13 O7 1_555 1_555
C14 N1 1_555 1_555
C15 C14 1_555 1_555
C16 N1 1_555 1_555
C17 C16 1_555 1_555
H1 C3 1_555 1_555
H2 C4 1_555 1_555
H3 C6 1_555 1_555
H4 C7 1_555 1_555
H5 C11 1_555 1_555
H6 C12 1_555 1_555
H7 C13 1_555 1_555
H8 C14 1_555 1_555
H9 C14 1_555 1_555
H10 C15 1_555 1_555
H11 C15 1_555 1_555
H12 C15 1_555 1_555
H13 C16 1_555 1_555
H14 C16 1_555 1_555
H15 C17 1_555 1_555
H16 C17 1_555 1_555
H17 C17 1_555 1_555
Mn1G O3 1_555 1_555
Mn1G_2 O5E 1_555 1_555
Mn1G_3 O3B 1_555 1_555
Mn2B O1B 1_555 1_555
Mn2D O1 1_555 1_555
Mn2G O4 1_555 1_555
Mn2E O6E 1_555 1_555
Mn2F O1B 1_555 1_555
Mn2E_2 O4B 1_555 1_555
O1B C1B 1_555 1_555
O1D Mn2 1_555 1_555
O1F Mn2B 1_555 1_555
O2B Mn1 1_555 1_555
O3B C8B 1_555 1_555
O3G Mn1 1_555 1_555
O3E Mn1 1_555 1_555
O4B C8B 1_555 1_555
O4G Mn2 1_555 1_555
O4E Mn2B 1_555 1_555
O5E C9E 1_555 1_555
O5B Mn1 1_555 1_555
O6E C9E 1_555 1_555
O6B Mn2B 1_555 1_555
O7B Mn2B 1_555 1_555
N1B C13B 1_555 1_555
C1B O2B 1_555 1_555
C2B C1B 1_555 1_555
C3B C2B 1_555 1_555
C4B C3B 1_555 1_555
C5B C4B 1_555 1_555
C6B C5B 1_555 1_555
C7B C2B 1_555 1_555
C8B C5B 1_555 1_555
C9E C10E 1_555 1_555
C10E C11E 1_555 1_555
C11E C12 1_555 1_555
C12E C11 1_555 1_555
C13B O7B 1_555 1_555
C14B N1B 1_555 1_555
C15B C14B 1_555 1_555
C16B N1B 1_555 1_555
C17B C16B 1_555 1_555
H1B C3B 1_555 1_555
H2B C4B 1_555 1_555
H3B C6B 1_555 1_555
H4B C7B 1_555 1_555
H5E C11E 1_555 1_555
H6E C12E 1_555 1_555
H7B C13B 1_555 1_555
H8B C14B 1_555 1_555
H9B C14B 1_555 1_555
H10B C15B 1_555 1_555
H11B C15B 1_555 1_555
H12B C15B 1_555 1_555
H13B C16B 1_555 1_555
H14B C16B 1_555 1_555
H15B C17B 1_555 1_555
H16B C17B 1_555 1_555
H17B C17B 1_555 1_555
O6 C9 1_555 1_555
C6 C7 1_555 1_555
Mn2B O2B 1_555 1_555
Mn2D O1D 1_555 1_555
Mn2F O1F 1_555 1_555
C6B C7B 1_555 1_555
C10E C12E 1_555 1_555

#END
