
#######################################################################
#
#                 Cambridge Crystallographic Data Centre
#                                CCDC 
#
#######################################################################
#
# If this CIF has been generated from an entry in the Cambridge 
# Structural Database, then it will include bibliographic, chemical, 
# crystal, experimental, refinement or atomic coordinate data resulting 
# from the CCDC's data processing and validation procedures.
#
#######################################################################

data_FIJDIM11
_symmetry_cell_setting           monoclinic
_symmetry_space_group_name_H-M   'I 2/a'
_symmetry_Int_Tables_number      15
_space_group_name_Hall           '-I 2ya'
loop_
_symmetry_equiv_pos_site_id
_symmetry_equiv_pos_as_xyz
1 x,y,z
2 1/2+x,1/2+y,1/2+z
3 1/2-x,y,-z
4 -x,1/2+y,1/2-z
5 -x,-y,-z
6 1/2-x,1/2-y,1/2-z
7 1/2+x,-y,z
8 x,1/2-y,1/2+z
_cell_length_a                   19.117(4)
_cell_length_b                   10.657(2)
_cell_length_c                   17.412(4)
_cell_angle_alpha                90
_cell_angle_beta                 94.24(3)
_cell_angle_gamma                90
_cell_volume                     3537.64
loop_
_atom_site_label
_atom_site_type_symbol
_atom_site_fract_x
_atom_site_fract_y
_atom_site_fract_z
Mn1 Mn 0.2500 1.03017(2) 1.0000
Mn2 Mn 0.425842(9) 0.929917(16) 1.034999(10)
O1 O 0.46126(5) 1.05716(9) 0.93733(5)
O2 O 0.34823(5) 1.01771(9) 0.93484(5)
O3 O 0.29688(5) 1.33983(10) 0.58129(6)
O4 O 0.40802(5) 1.40952(11) 0.59994(7)
O5 O 0.30114(5) 0.87698(10) 1.06504(6)
O6 O 0.39714(6) 0.81115(14) 1.13117(8)
C1 C 0.39991(6) 1.06681(10) 0.90445(6)
C2 C 0.38928(6) 1.13402(11) 0.82874(6)
C3 C 0.44262(6) 1.20996(12) 0.80363(8)
H1 H 0.4854 1.2155 0.8326
C4 C 0.43183(6) 1.27741(13) 0.73513(8)
H2 H 0.4668 1.3305 0.7197
C5 C 0.36875(6) 1.26568(11) 0.68955(7)
C6 C 0.31644(7) 1.18589(14) 0.71341(8)
H3 H 0.2750 1.1756 0.6826
C7 C 0.32618(7) 1.12147(14) 0.78337(8)
H4 H 0.2907 1.0704 0.7997
C8 C 0.35692(6) 1.34381(11) 0.61726(7)
C9 C 0.33158(6) 0.82699(12) 1.12460(7)
C10 C 0.28923(6) 0.78571(12) 1.18912(7)
C11 C 0.21710(7) 0.80829(15) 1.18527(8)
H5 H 0.1952 0.8471 1.1421
C12 C 0.32223(7) 0.72741(16) 1.25377(9)
H6 H 0.3703 0.7123 1.2563
O7 O 0.43132(7) 0.76688(11) 0.96244(8)
N1 N 0.39110(12) 0.58679(15) 0.90479(12)
C13 C 0.38647(11) 0.68279(17) 0.95340(11)
H7 H 0.3474 0.6870 0.9821
C14 C 0.44983(16) 0.5792(2) 0.85493(14)
H8 H 0.4641 0.6638 0.8427
H9 H 0.4333 0.5391 0.8070
C15 C 0.51334(19) 0.5088(3) 0.8885(2)
H10 H 0.5352 0.5553 0.9310
H11 H 0.5460 0.4982 0.8498
H12 H 0.4992 0.4280 0.9062
C16 C 0.3342(2) 0.4923(2) 0.89709(17)
H13 H 0.3331 0.4560 0.8459
H14 H 0.2898 0.5343 0.9019
C17 C 0.34166(18) 0.3885(2) 0.95543(16)
H15 H 0.3875 0.3520 0.9550
H16 H 0.3068 0.3254 0.9429
H17 H 0.3354 0.4217 1.0057
Mn1G Mn 0.2500 1.46983(2) 0.5000
Mn1G_2 Mn 0.2500 0.46983(2) 1.5000
Mn1G_3 Mn 0.2500 1.46983(2) 1.5000
Mn2B Mn 0.074158(9) 0.929917(16) 0.965001(10)
Mn2D Mn 0.574158(9) 1.070083(16) 0.965001(10)
Mn2G Mn 0.425842(9) 1.570083(16) 0.534999(10)
Mn2E Mn 0.074158(9) 0.570083(16) 1.465001(10)
Mn2F Mn -0.074158(9) 1.070083(16) 1.034999(10)
Mn2E_2 Mn 0.074158(9) 1.570083(16) 1.465001(10)
O1B O 0.03874(5) 1.05716(9) 1.06267(5)
O1D O 0.53874(5) 0.94284(9) 1.06267(5)
O1F O -0.03874(5) 0.94284(9) 0.93733(5)
O2B O 0.15177(5) 1.01771(9) 1.06516(5)
O3B O 0.20312(5) 1.33983(10) 1.41871(6)
O3G O 0.29688(5) 1.16017(10) 1.08129(6)
O3E O 0.20312(5) 1.16017(10) 0.91871(6)
O4B O 0.09198(5) 1.40952(11) 1.40006(7)
O4G O 0.40802(5) 1.09048(11) 1.09994(7)
O4E O 0.09198(5) 1.09048(11) 0.90006(7)
O5E O 0.19886(5) 0.62302(10) 1.43496(6)
O5B O 0.19886(5) 0.87698(10) 0.93496(6)
O6E O 0.10286(6) 0.68885(14) 1.36883(8)
O6B O 0.10286(6) 0.81115(14) 0.86883(8)
C1B C 0.10009(6) 1.06681(10) 1.09555(6)
C2B C 0.11072(6) 1.13402(11) 1.17126(6)
C3B C 0.05738(6) 1.20996(12) 1.19637(8)
H1B H 0.0146 1.2155 1.1674
C4B C 0.06817(6) 1.27741(13) 1.26487(8)
H2B H 0.0332 1.3305 1.2803
C5B C 0.13125(6) 1.26568(11) 1.31045(7)
C6B C 0.18356(7) 1.18589(14) 1.28659(8)
H3B H 0.2250 1.1756 1.3174
C7B C 0.17382(7) 1.12147(14) 1.21663(8)
H4B H 0.2093 1.0704 1.2003
C8B C 0.14308(6) 1.34381(11) 1.38274(7)
C9E C 0.16842(6) 0.67301(12) 1.37540(7)
C10E C 0.21077(6) 0.71429(12) 1.31088(7)
C11E C 0.28290(7) 0.69171(15) 1.31473(8)
H5E H 0.3048 0.6529 1.3579
C12E C 0.17777(7) 0.77259(16) 1.24623(9)
H6E H 0.1297 0.7877 1.2437
O7B O 0.06868(7) 0.76688(11) 1.03756(8)
N1B N 0.10890(12) 0.58679(15) 1.09521(12)
C13B C 0.11353(11) 0.68279(17) 1.04660(11)
H7B H 0.1526 0.6870 1.0179
C14B C 0.05017(16) 0.5792(2) 1.14507(14)
H8B H 0.0359 0.6638 1.1573
H9B H 0.0667 0.5391 1.1930
C15B C -0.01334(19) 0.5088(3) 1.1115(2)
H10B H -0.0352 0.5553 1.0690
H11B H -0.0460 0.4982 1.1502
H12B H 0.0008 0.4280 1.0938
C16B C 0.1658(2) 0.4923(2) 1.10291(17)
H13B H 0.1669 0.4560 1.1541
H14B H 0.2102 0.5343 1.0981
C17B C 0.15834(18) 0.3885(2) 1.04457(16)
H15B H 0.1125 0.3520 1.0450
H16B H 0.1932 0.3254 1.0571
H17B H 0.1646 0.4217 0.9943
loop_
_geom_bond_atom_site_label_1
_geom_bond_atom_site_label_2
_geom_bond_site_symmetry_1
_geom_bond_site_symmetry_2
Mn1 O2 1_555 1_555
Mn2 O1 1_555 1_555
O1 C1 1_555 1_555
O2 Mn2 1_555 1_555
O3 C8 1_555 1_555
O4 C8 1_555 1_555
O5 Mn1 1_555 1_555
O6 Mn2 1_555 1_555
C1 O2 1_555 1_555
C2 C1 1_555 1_555
C3 C2 1_555 1_555
H1 C3 1_555 1_555
C4 C3 1_555 1_555
H2 C4 1_555 1_555
C5 C4 1_555 1_555
C6 C5 1_555 1_555
H3 C6 1_555 1_555
C7 C2 1_555 1_555
H4 C7 1_555 1_555
C8 C5 1_555 1_555
C9 O5 1_555 1_555
C10 C9 1_555 1_555
C11 C10 1_555 1_555
H5 C11 1_555 1_555
C12 C10 1_555 1_555
H6 C12 1_555 1_555
O7 Mn2 1_555 1_555
N1 C13 1_555 1_555
C13 O7 1_555 1_555
H7 C13 1_555 1_555
C14 N1 1_555 1_555
H8 C14 1_555 1_555
H9 C14 1_555 1_555
C15 C14 1_555 1_555
H10 C15 1_555 1_555
H11 C15 1_555 1_555
H12 C15 1_555 1_555
C16 N1 1_555 1_555
H13 C16 1_555 1_555
H14 C16 1_555 1_555
C17 C16 1_555 1_555
H15 C17 1_555 1_555
H16 C17 1_555 1_555
H17 C17 1_555 1_555
Mn1G O3 1_555 1_555
Mn1G_2 O5E 1_555 1_555
Mn1G_3 O3B 1_555 1_555
Mn2B O1B 1_555 1_555
Mn2D O1 1_555 1_555
Mn2G O4 1_555 1_555
Mn2E O6E 1_555 1_555
Mn2F O1B 1_555 1_555
Mn2E_2 O4B 1_555 1_555
O1B C1B 1_555 1_555
O1D Mn2 1_555 1_555
O1F Mn2B 1_555 1_555
O2B Mn1 1_555 1_555
O3B C8B 1_555 1_555
O3G Mn1 1_555 1_555
O3E Mn1 1_555 1_555
O4B C8B 1_555 1_555
O4G Mn2 1_555 1_555
O4E Mn2B 1_555 1_555
O5E C9E 1_555 1_555
O5B Mn1 1_555 1_555
O6E C9E 1_555 1_555
O6B Mn2B 1_555 1_555
C1B O2B 1_555 1_555
C2B C1B 1_555 1_555
C3B C2B 1_555 1_555
H1B C3B 1_555 1_555
C4B C3B 1_555 1_555
H2B C4B 1_555 1_555
C5B C4B 1_555 1_555
C6B C5B 1_555 1_555
H3B C6B 1_555 1_555
C7B C2B 1_555 1_555
H4B C7B 1_555 1_555
C8B C5B 1_555 1_555
C9E C10E 1_555 1_555
C10E C11E 1_555 1_555
C11E C12 1_555 1_555
H5E C11E 1_555 1_555
C12E C11 1_555 1_555
H6E C12E 1_555 1_555
O7B Mn2B 1_555 1_555
N1B C13B 1_555 1_555
C13B O7B 1_555 1_555
H7B C13B 1_555 1_555
C14B N1B 1_555 1_555
H8B C14B 1_555 1_555
H9B C14B 1_555 1_555
C15B C14B 1_555 1_555
H10B C15B 1_555 1_555
H11B C15B 1_555 1_555
H12B C15B 1_555 1_555
C16B N1B 1_555 1_555
H13B C16B 1_555 1_555
H14B C16B 1_555 1_555
C17B C16B 1_555 1_555
H15B C17B 1_555 1_555
H16B C17B 1_555 1_555
H17B C17B 1_555 1_555
O6 C9 1_555 1_555
C6 C7 1_555 1_555
Mn2B O2B 1_555 1_555
Mn2D O1D 1_555 1_555
Mn2F O1F 1_555 1_555
C6B C7B 1_555 1_555
C10E C12E 1_555 1_555

#END
