
#######################################################################
#
#                 Cambridge Crystallographic Data Centre
#                                CCDC 
#
#######################################################################
#
# If this CIF has been generated from an entry in the Cambridge 
# Structural Database, then it will include bibliographic, chemical, 
# crystal, experimental, refinement or atomic coordinate data resulting 
# from the CCDC's data processing and validation procedures.
#
#######################################################################

data_FIJFUA
_symmetry_cell_setting           triclinic
_symmetry_space_group_name_H-M   'P -1'
_symmetry_Int_Tables_number      2
_space_group_name_Hall           '-P 1'
loop_
_symmetry_equiv_pos_site_id
_symmetry_equiv_pos_as_xyz
1 x,y,z
2 -x,-y,-z
_cell_length_a                   9.8294(4)
_cell_length_b                   12.1098(5)
_cell_length_c                   14.6279(6)
_cell_angle_alpha                109.7500(10)
_cell_angle_beta                 103.6130(10)
_cell_angle_gamma                100.1400(10)
_cell_volume                     1529.29
loop_
_atom_site_label
_atom_site_type_symbol
_atom_site_fract_x
_atom_site_fract_y
_atom_site_fract_z
Tb1 Tb -0.23970(3) -0.97874(2) -1.004694(17)
O1 O -0.0476(4) -0.7924(3) -0.9482(3)
H1 H -0.049(6) -0.753(4) -0.986(3)
H2 H 0.035(3) -0.801(5) -0.929(4)
O2 O -0.3468(4) -1.1057(3) -0.9254(3)
H3 H -0.426(3) -1.092(4) -0.921(4)
H4 H -0.377(5) -1.178(2) -0.970(3)
O3 O -0.2876(3) -0.8460(3) -0.8631(2)
O4 O -0.5202(3) -0.9316(3) -0.8892(2)
O5 O -0.2306(3) -0.1821(3) -0.0901(2)
O6 O -0.4164(4) -0.3184(3) -0.0895(2)
O7 O -0.0356(3) -0.9838(3) -0.8925(2)
O8 O 0.1820(3) -1.0152(3) -0.8455(2)
C1 C -0.4867(5) -0.7995(4) -0.6832(3)
H5 H -0.5652 -0.8720 -0.7198
C2 C -0.3862(5) -0.7677(4) -0.7297(3)
C3 C -0.2731(5) -0.6596(4) -0.6774(4)
H6 H -0.2039 -0.6398 -0.7092
C4 C -0.1499(6) -0.4643(5) -0.5253(4)
H7 H -0.0843 -0.4397 -0.5578
C5 C -0.1384(6) -0.3903(5) -0.4296(4)
H8 H -0.0626 -0.3158 -0.3955
C6 C -0.2309(5) -0.3421(4) -0.2804(3)
H9 H -0.1577 -0.2660 -0.2460
C7 C -0.3295(5) -0.3737(4) -0.2337(3)
C8 C -0.4388(5) -0.4851(4) -0.2840(3)
H10 H -0.5067 -0.5058 -0.2517
C9 C -0.5607(6) -0.6808(5) -0.4357(4)
H11 H -0.6281 -0.7039 -0.4039
C10 C -0.5718(5) -0.7559(5) -0.5310(4)
H12 H -0.6467 -0.8310 -0.5649
C11 C -0.4721(5) -0.7244(4) -0.5825(4)
C12 C -0.3594(5) -0.6128(4) -0.5303(3)
C13 C -0.2602(5) -0.5803(4) -0.5794(4)
C14 C -0.2373(5) -0.4205(4) -0.3776(4)
C15 C -0.3477(5) -0.5347(4) -0.4294(3)
C16 C -0.4489(5) -0.5665(4) -0.3815(4)
C17 C -0.3993(5) -0.8536(4) -0.8354(4)
C18 C -0.3280(5) -0.2865(5) -0.1303(4)
C19 C 0.0438(5) -0.9995(4) -0.7320(3)
C20 C -0.0639(5) -0.9548(5) -0.6979(4)
H13 H -0.1263 -0.9251 -0.7380
C21 C -0.0818(5) -0.9529(5) -0.6058(4)
C22 C 0.0092(5) -0.9996(4) -0.5473(3)
C23 C 0.1187(5) -1.0456(5) -0.5814(4)
C24 C 0.1348(5) -1.0438(4) -0.6736(4)
H14 H 0.2091 -1.0733 -0.6967
C25 C 0.0640(5) -0.9995(4) -0.8306(4)
C26 C -0.1882(6) -0.9028(6) -0.5664(4)
H15 H -0.2453 -0.8660 -0.6027
C27 C 0.2097(6) -1.0938(6) -0.5208(4)
H16 H 0.2852 -1.1232 -0.5422
O9 O -0.3406(4) -0.8376(4) -1.0623(3)
C28 C -0.3284(7) -0.7314(8) -1.0294(6)
H17 H -0.2862 -0.6860 -0.9576
N1 N -0.3718(7) -0.6710(6) -1.0893(5)
C32 C -0.3449(12) -0.5424(7) -1.0478(8)
H25 H -0.3153 -0.5116 -0.9729
H26 H -0.4339 -0.5211 -1.0733
H27 H -0.2670 -0.5054 -1.0686
C33 C -0.4245(11) -0.7409(8) -1.1996(6)
H28 H -0.4423 -0.8283 -1.2140
H29 H -0.3512 -0.7166 -1.2296
H30 H -0.5155 -0.7250 -1.2294
Tb1A Tb -0.76030(3) -1.02126(2) -0.995306(17)
Tb1_2 Tb -0.23970(3) 0.02126(2) -0.004694(17)
Tb1A_2 Tb 0.23970(3) -1.02126(2) -0.995306(17)
Tb1A_3 Tb 0.23970(3) -1.02126(2) 0.004694(17)
Tb1_3 Tb -0.23970(3) -0.97874(2) -0.004694(17)
Tb1A_4 Tb -0.76030(3) -2.02126(2) -1.995306(17)
O1A O -0.9524(4) -1.2076(3) -1.0518(3)
H1A H -0.951(6) -1.247(4) -1.014(3)
H2A H -1.035(3) -1.199(5) -1.071(4)
O2A O -0.6532(4) -0.8943(3) -1.0746(3)
H3A H -0.574(3) -0.908(4) -1.079(4)
H4A H -0.623(5) -0.822(2) -1.030(3)
O3A O -0.7124(3) -1.1540(3) -1.1369(2)
O4A O -0.4798(3) -1.0684(3) -1.1108(2)
O5A O -0.7694(3) -1.8179(3) -1.9099(2)
O5_2 O -0.2306(3) -1.1821(3) -1.0901(2)
O5A_2 O -0.7694(3) -0.8179(3) -0.9099(2)
O6A O -0.5836(4) -1.6816(3) -1.9105(2)
O7A O 0.0356(3) -1.0162(3) -0.1075(2)
O7A_2 O -0.9644(3) -1.0162(3) -1.1075(2)
O8A O -0.1820(3) -0.9848(3) -0.1545(2)
O8A_2 O -0.1820(3) -0.9848(3) -1.1545(2)
O8_2 O -0.8180(3) -1.0152(3) -0.8455(2)
C1A C -0.5133(5) -1.2005(4) -1.3168(3)
H5A H -0.4348 -1.1280 -1.2802
C2A C -0.6138(5) -1.2323(4) -1.2703(3)
C3A C -0.7269(5) -1.3404(4) -1.3226(4)
H6A H -0.7961 -1.3602 -1.2908
C4A C -0.8501(6) -1.5357(5) -1.4747(4)
H7A H -0.9157 -1.5603 -1.4422
C5A C -0.8616(6) -1.6097(5) -1.5704(4)
H8A H -0.9374 -1.6842 -1.6045
C6A C -0.7691(5) -1.6579(4) -1.7196(3)
H9A H -0.8423 -1.7340 -1.7540
C7A C -0.6705(5) -1.6263(4) -1.7663(3)
C8A C -0.5612(5) -1.5149(4) -1.7160(3)
H10A H -0.4933 -1.4942 -1.7483
C9A C -0.4393(6) -1.3192(5) -1.5643(4)
H11A H -0.3719 -1.2961 -1.5961
C10A C -0.4282(5) -1.2441(5) -1.4690(4)
H12A H -0.3533 -1.1690 -1.4351
C11A C -0.5279(5) -1.2756(4) -1.4175(4)
C12A C -0.6406(5) -1.3872(4) -1.4697(3)
C13A C -0.7398(5) -1.4197(4) -1.4206(4)
C14A C -0.7627(5) -1.5795(4) -1.6224(4)
C15A C -0.6523(5) -1.4653(4) -1.5706(3)
C16A C -0.5511(5) -1.4335(4) -1.6185(4)
C17A C -0.6007(5) -1.1464(4) -1.1646(4)
C18A C -0.6720(5) -1.7135(5) -1.8697(4)
C19A C -0.0438(5) -1.0005(4) -0.2680(3)
C20A C 0.0639(5) -1.0452(5) -0.3021(4)
H13A H 0.1263 -1.0749 -0.2620
C21A C 0.0818(5) -1.0471(5) -0.3942(4)
C22A C -0.0092(5) -1.0004(4) -0.4527(3)
C23A C -0.1187(5) -0.9544(5) -0.4186(4)
C24A C -0.1348(5) -0.9562(4) -0.3264(4)
H14A H -0.2091 -0.9267 -0.3033
C25A C -0.0640(5) -1.0005(4) -0.1694(4)
C26A C 0.1882(6) -1.0972(6) -0.4336(4)
H15A H 0.2453 -1.1340 -0.3973
C27A C -0.2097(6) -0.9062(6) -0.4792(4)
H16A H -0.2852 -0.8768 -0.4578
O9A O -0.6594(4) -1.1624(4) -0.9377(3)
C28A C -0.6716(7) -1.2686(8) -0.9706(6)
H17A H -0.7138 -1.3140 -1.0424
N1A N -0.6282(7) -1.3290(6) -0.9107(5)
C32A C -0.6551(12) -1.4576(7) -0.9522(8)
H25A H -0.6847 -1.4884 -1.0271
H26A H -0.5661 -1.4789 -0.9267
H27A H -0.7330 -1.4946 -0.9314
C33A C -0.5755(11) -1.2591(8) -0.8004(6)
H28A H -0.5577 -1.1717 -0.7860
H29A H -0.6488 -1.2834 -0.7704
H30A H -0.4845 -1.2750 -0.7706
O10 O -0.0333(5) -0.6689(4) -1.0744(4)
C29 C 0.0508(8) -0.6870(7) -1.1228(6)
H18 H 0.1102 -0.7383 -1.1118
C30 C 0.1630(10) -0.6701(9) -1.2505(7)
H19 H 0.2130 -0.7246 -1.2289
H20 H 0.2351 -0.5955 -1.2388
H21 H 0.1068 -0.7114 -1.3236
C31 C -0.0243(10) -0.5595(8) -1.2143(8)
H22 H -0.0863 -0.5465 -1.1703
H23 H -0.0856 -0.5987 -1.2863
H24 H 0.0400 -0.4806 -1.2019
N2 N 0.0641(7) -0.6382(6) -1.1910(5)
loop_
_geom_bond_atom_site_label_1
_geom_bond_atom_site_label_2
_geom_bond_site_symmetry_1
_geom_bond_site_symmetry_2
Tb1 O1 1_555 1_555
O1 H1 1_555 1_555
H2 O1 1_555 1_555
O2 Tb1 1_555 1_555
H3 O2 1_555 1_555
H4 O2 1_555 1_555
O3 Tb1 1_555 1_555
O4 C17 1_555 1_555
O5 C18 1_555 1_555
O6 C18 1_555 1_555
O7 Tb1 1_555 1_555
O8 C25 1_555 1_555
C1 H5 1_555 1_555
C2 C1 1_555 1_555
C3 C2 1_555 1_555
H6 C3 1_555 1_555
C4 H7 1_555 1_555
C5 C4 1_555 1_555
H8 C5 1_555 1_555
C6 H9 1_555 1_555
C7 C6 1_555 1_555
C8 C7 1_555 1_555
H10 C8 1_555 1_555
C9 H11 1_555 1_555
C10 C9 1_555 1_555
H12 C10 1_555 1_555
C11 C1 1_555 1_555
C12 C11 1_555 1_555
C13 C3 1_555 1_555
C14 C5 1_555 1_555
C15 C12 1_555 1_555
C16 C8 1_555 1_555
C17 O3 1_555 1_555
C18 C7 1_555 1_555
C19 C20 1_555 1_555
C20 H13 1_555 1_555
C21 C20 1_555 1_555
C22 C21 1_555 1_555
C23 C22 1_555 1_555
C24 C19 1_555 1_555
H14 C24 1_555 1_555
C25 O7 1_555 1_555
C26 C21 1_555 1_555
H15 C26 1_555 1_555
C27 C23 1_555 1_555
H16 C27 1_555 1_555
O9 Tb1 1_555 1_555
C28 O9 1_555 1_555
H17 C28 1_555 1_555
N1 C28 1_555 1_555
O10 C29 1_555 1_555
C29 H18 1_555 1_555
C30 H19 1_555 1_555
H20 C30 1_555 1_555
H21 C30 1_555 1_555
C31 H22 1_555 1_555
H23 C31 1_555 1_555
H24 C31 1_555 1_555
N2 C29 1_555 1_555
C32 N1 1_555 1_555
H25 C32 1_555 1_555
H26 C32 1_555 1_555
H27 C32 1_555 1_555
C33 N1 1_555 1_555
H28 C33 1_555 1_555
H29 C33 1_555 1_555
H30 C33 1_555 1_555
Tb1A O4 1_555 1_555
Tb1_2 O5 1_555 1_555
Tb1A_2 O8 1_555 1_555
Tb1A_3 O7A 1_555 1_555
Tb1_3 O8A 1_555 1_555
Tb1A_4 O5A 1_555 1_555
O1A Tb1A 1_555 1_555
H1A O1A 1_555 1_555
H2A O1A 1_555 1_555
O2A Tb1A 1_555 1_555
H3A O2A 1_555 1_555
H4A O2A 1_555 1_555
O3A Tb1A 1_555 1_555
O4A Tb1 1_555 1_555
O5A C18A 1_555 1_555
O5_2 Tb1 1_555 1_555
O5A_2 Tb1A 1_555 1_555
O6A C18A 1_555 1_555
O7A C25A 1_555 1_555
O7A_2 Tb1A 1_555 1_555
O8A C25A 1_555 1_555
O8A_2 Tb1 1_555 1_555
O8_2 Tb1A 1_555 1_555
C1A H5A 1_555 1_555
C2A C1A 1_555 1_555
C3A C2A 1_555 1_555
H6A C3A 1_555 1_555
C4A H7A 1_555 1_555
C5A C4A 1_555 1_555
H8A C5A 1_555 1_555
C6A H9A 1_555 1_555
C7A C6A 1_555 1_555
C8A C7A 1_555 1_555
H10A C8A 1_555 1_555
C9A H11A 1_555 1_555
C10A C9A 1_555 1_555
H12A C10A 1_555 1_555
C11A C1A 1_555 1_555
C12A C11A 1_555 1_555
C13A C3A 1_555 1_555
C14A C5A 1_555 1_555
C15A C12A 1_555 1_555
C16A C8A 1_555 1_555
C17A O3A 1_555 1_555
C18A C7A 1_555 1_555
C19A C20A 1_555 1_555
C20A H13A 1_555 1_555
C21A C20A 1_555 1_555
C22A C22 1_555 1_555
C23A C22A 1_555 1_555
C24A C19A 1_555 1_555
H14A C24A 1_555 1_555
C25A C19A 1_555 1_555
C26A C27 1_555 1_555
H15A C26A 1_555 1_555
C27A C26 1_555 1_555
H16A C27A 1_555 1_555
O9A Tb1A 1_555 1_555
C28A O9A 1_555 1_555
H17A C28A 1_555 1_555
N1A C28A 1_555 1_555
C32A N1A 1_555 1_555
H25A C32A 1_555 1_555
H26A C32A 1_555 1_555
H27A C32A 1_555 1_555
C33A N1A 1_555 1_555
H28A C33A 1_555 1_555
H29A C33A 1_555 1_555
H30A C33A 1_555 1_555
C2 C17 1_555 1_555
C4 C13 1_555 1_555
C6 C14 1_555 1_555
C9 C16 1_555 1_555
C10 C11 1_555 1_555
C12 C13 1_555 1_555
C14 C15 1_555 1_555
C15 C16 1_555 1_555
C19 C25 1_555 1_555
C23 C24 1_555 1_555
C30 N2 1_555 1_555
C31 N2 1_555 1_555
O4A C17A 1_555 1_555
C2A C17A 1_555 1_555
C4A C13A 1_555 1_555
C6A C14A 1_555 1_555
C9A C16A 1_555 1_555
C10A C11A 1_555 1_555
C12A C13A 1_555 1_555
C14A C15A 1_555 1_555
C15A C16A 1_555 1_555
C21A C22A 1_555 1_555
C21A C26A 1_555 1_555
C23A C24A 1_555 1_555
C23A C27A 1_555 1_555

#END
