
#######################################################################
#
#                 Cambridge Crystallographic Data Centre
#                                CCDC 
#
#######################################################################
#
# If this CIF has been generated from an entry in the Cambridge 
# Structural Database, then it will include bibliographic, chemical, 
# crystal, experimental, refinement or atomic coordinate data resulting 
# from the CCDC's data processing and validation procedures.
#
#######################################################################

data_FIJFAG
_symmetry_cell_setting           tetragonal
_symmetry_space_group_name_H-M   'I 41/a'
_symmetry_Int_Tables_number      88
_space_group_name_Hall           '-I 4ad'
loop_
_symmetry_equiv_pos_site_id
_symmetry_equiv_pos_as_xyz
1 x,y,z
2 3/4-y,1/4+x,1/4+z
3 1/2+x,1/2+y,1/2+z
4 1/4-y,3/4+x,3/4+z
5 1/4+y,1/4-x,1/4+z
6 1/2-x,-y,1/2+z
7 3/4+y,3/4-x,3/4+z
8 -x,1/2-y,z
9 -x,-y,-z
10 1/4+y,3/4-x,3/4-z
11 1/2-x,1/2-y,1/2-z
12 3/4+y,1/4-x,1/4-z
13 3/4-y,3/4+x,3/4-z
14 1/2+x,y,1/2-z
15 1/4-y,1/4+x,1/4-z
16 x,1/2+y,-z
_cell_length_a                   7.261(4)
_cell_length_b                   7.261(4)
_cell_length_c                   25.471(19)
_cell_angle_alpha                90
_cell_angle_beta                 90
_cell_angle_gamma                90
_cell_volume                     1342.89
loop_
_atom_site_label
_atom_site_type_symbol
_atom_site_fract_x
_atom_site_fract_y
_atom_site_fract_z
Zn1 Zn 0.0000 0.2500 0.02854(6)
O1 O -0.1825(12) 0.3879(12) -0.0124(3)
O2 O -0.1602(10) 0.6012(9) -0.0718(3)
C1 C -0.2207(12) 0.4531(12) -0.0566(3)
C2 C -0.3625(11) 0.3562(11) -0.0900(3)
C3 C -0.2580(12) 0.2174(13) -0.1250(4)
H1 H -0.192(12) 0.270(10) -0.147(3)
H2 H -0.193(11) 0.121(12) -0.104(3)
C4 C -0.5000 0.2500 -0.0551(5)
H3 H -0.574(9) 0.343(10) -0.036(3)
Zn1I Zn -0.5000 -0.2500 -0.27854(6)
Zn1O Zn 0.0000 0.7500 -0.02854(6)
Zn1C Zn 0.0000 -0.2500 -0.22146(6)
Zn1_2 Zn -1.0000 0.2500 0.02854(6)
Zn1O_2 Zn -1.0000 -0.2500 -0.02854(6)
Zn1I_2 Zn -0.5000 0.7500 -0.27854(6)
Zn1C_2 Zn -1.0000 0.7500 -0.22146(6)
O1I O -0.3621(12) -0.0675(12) -0.2376(3)
O1G O -0.8175(12) 0.1121(12) -0.0124(3)
O1L O -0.6379(12) 0.5675(12) -0.2376(3)
O1G_2 O 0.1825(12) 0.1121(12) -0.0124(3)
O1L_2 O -0.6379(12) -0.4325(12) -0.2376(3)
O2I O -0.1488(9) -0.0898(10) -0.1782(3)
O2G O -0.8398(10) -0.1012(9) -0.0718(3)
O2L O -0.8512(9) 0.5898(10) -0.1782(3)
O2O O -0.1602(10) 0.1012(9) 0.0718(3)
O2H O 0.1602(10) 0.3988(9) 0.0718(3)
O2C O -0.3512(9) -0.4102(10) -0.3218(3)
O2F O -0.6488(9) -0.0898(10) -0.3218(3)
C1I C -0.2969(12) -0.0293(12) -0.1934(3)
C1G C -0.7793(12) 0.0469(12) -0.0566(3)
C1L C -0.7031(12) 0.5293(12) -0.1934(3)
C2I C -0.3938(11) 0.1125(11) -0.1600(3)
C2G C -0.6375(11) 0.1438(11) -0.0900(3)
C2L C -0.6062(11) 0.3875(11) -0.1600(3)
C3I C -0.5326(13) 0.0080(12) -0.1250(4)
C3G C -0.7420(12) 0.2826(13) -0.1250(4)
C3L C -0.4674(13) 0.4920(12) -0.1250(4)
H1L H -0.520(10) 0.558(12) -0.103(3)
H1G H -0.808(12) 0.230(10) -0.147(3)
H1I H -0.480(10) -0.058(12) -0.103(3)
H2L H -0.371(12) 0.557(11) -0.146(3)
H2G H -0.807(11) 0.379(12) -0.104(3)
H2I H -0.629(12) -0.057(11) -0.146(3)
C4I C -0.5000 0.2500 -0.1949(5)
H3G H -0.426(9) 0.157(10) -0.036(3)
H3L H -0.593(10) 0.176(9) -0.214(3)
H3I H -0.407(10) 0.324(9) -0.214(3)
loop_
_geom_bond_atom_site_label_1
_geom_bond_atom_site_label_2
_geom_bond_site_symmetry_1
_geom_bond_site_symmetry_2
Zn1 O1 1_555 1_555
O1 C1 1_555 1_555
O2 C1 1_555 1_555
C1 C2 1_555 1_555
C2 C3 1_555 1_555
C3 H1 1_555 1_555
H2 C3 1_555 1_555
C4 C2 1_555 1_555
H3 C4 1_555 1_555
Zn1I O1I 1_555 1_555
Zn1O O2 1_555 1_555
Zn1C O2I 1_555 1_555
Zn1_2 O1G 1_555 1_555
Zn1O_2 O2G 1_555 1_555
Zn1I_2 O1L 1_555 1_555
Zn1C_2 O2L 1_555 1_555
O1I C1I 1_555 1_555
O1G C1G 1_555 1_555
O1L C1L 1_555 1_555
O1G_2 Zn1 1_555 1_555
O1L_2 Zn1I 1_555 1_555
O2I C1I 1_555 1_555
O2G C1G 1_555 1_555
O2L C1L 1_555 1_555
O2O Zn1 1_555 1_555
O2H Zn1 1_555 1_555
O2C Zn1I 1_555 1_555
O2F Zn1I 1_555 1_555
C1I C2I 1_555 1_555
C1G C2G 1_555 1_555
C1L C2L 1_555 1_555
C2I C3 1_555 1_555
C2G C4 1_555 1_555
C2L C3G 1_555 1_555
C3I C2I 1_555 1_555
C3G C2G 1_555 1_555
C3L C2 1_555 1_555
H1L C3L 1_555 1_555
H1G C3G 1_555 1_555
H1I C3I 1_555 1_555
H2L C3L 1_555 1_555
H2G C3G 1_555 1_555
H2I C3I 1_555 1_555
C4I C2I 1_555 1_555
H3G C4 1_555 1_555
H3L C4I 1_555 1_555
H3I C4I 1_555 1_555
C2G C3I 1_555 1_555
C2L C3L 1_555 1_555
C2L C4I 1_555 1_555

#END
