
#######################################################################
#
#                 Cambridge Crystallographic Data Centre
#                                CCDC 
#
#######################################################################
#
# If this CIF has been generated from an entry in the Cambridge 
# Structural Database, then it will include bibliographic, chemical, 
# crystal, experimental, refinement or atomic coordinate data resulting 
# from the CCDC's data processing and validation procedures.
#
#######################################################################

data_FIJMIV
_symmetry_cell_setting           monoclinic
_symmetry_space_group_name_H-M   'P 21/c'
_symmetry_Int_Tables_number      14
_space_group_name_Hall           '-P 2ybc'
loop_
_symmetry_equiv_pos_site_id
_symmetry_equiv_pos_as_xyz
1 x,y,z
2 -x,1/2+y,1/2-z
3 -x,-y,-z
4 x,1/2-y,1/2+z
_cell_length_a                   10.604(3)
_cell_length_b                   9.180(3)
_cell_length_c                   10.375(3)
_cell_angle_alpha                90
_cell_angle_beta                 99.265(13)
_cell_angle_gamma                90
_cell_volume                     996.776
loop_
_atom_site_label
_atom_site_type_symbol
_atom_site_fract_x
_atom_site_fract_y
_atom_site_fract_z
N1 N 0.5749(4) 0.2645(4) 0.1638(4)
N2 N 0.6103(4) 0.0590(4) 0.4076(3)
C1 C 0.7066(4) 0.0068(5) 0.4365(4)
C2 C 0.8311(4) -0.0562(6) 0.4730(6)
H1 H 0.8902 0.0179 0.5093
H2 H 0.8588 -0.0975 0.3973
H3 H 0.8275 -0.1311 0.5369
Cu1 Cu 0.46417(5) 0.16082(5) 0.30252(5)
Cl1 Cl 0.34291(11) 0.32936(11) 0.37986(10)
N3 N 0.6242(3) 0.4999(4) 0.3327(3)
C3 C 0.7276(4) 0.4180(4) 0.3007(3)
C4 C 0.7027(4) 0.3014(4) 0.2137(4)
C5 C 0.8050(4) 0.2212(4) 0.1849(5)
H4 H 0.7898 0.1415 0.1292
C6 C 0.9529(4) 0.3729(5) 0.3210(5)
H5 H 1.0363 0.3978 0.3564
C7 C 0.8514(4) 0.4519(4) 0.3520(4)
H6 H 0.8673 0.5302 0.4091
C8 C 0.9291(4) 0.2570(5) 0.2374(5)
H7 H 0.9966 0.2025 0.2159
H8 H 0.549(4) 0.333(4) 0.148(5)
H9 H 0.583(4) 0.208(4) 0.118(4)
H10 H 0.653(4) 0.559(4) 0.419(4)
H11 H 0.547(4) 0.464(4) 0.324(4)
Cu1A Cu 0.53583(5) 0.66082(5) 0.19748(5)
N3A N 0.3758(3) -0.0001(4) 0.1673(3)
H10A H 0.347(4) 0.059(4) 0.081(4)
H11A H 0.453(4) -0.036(4) 0.176(4)
loop_
_geom_bond_atom_site_label_1
_geom_bond_atom_site_label_2
_geom_bond_site_symmetry_1
_geom_bond_site_symmetry_2
N1 Cu1 1_555 1_555
N2 C1 1_555 1_555
C1 C2 1_555 1_555
C2 H1 1_555 1_555
H2 C2 1_555 1_555
H3 C2 1_555 1_555
Cu1 N2 1_555 1_555
Cl1 Cu1 1_555 1_555
N3 C3 1_555 1_555
C3 C4 1_555 1_555
C4 N1 1_555 1_555
C5 C4 1_555 1_555
H4 C5 1_555 1_555
C6 H5 1_555 1_555
C7 C3 1_555 1_555
H6 C7 1_555 1_555
C8 C5 1_555 1_555
H7 C8 1_555 1_555
H8 N1 1_555 1_555
H9 N1 1_555 1_555
H10 N3 1_555 1_555
H11 N3 1_555 1_555
Cu1A N3 1_555 1_555
N3A Cu1 1_555 1_555
H10A N3A 1_555 1_555
H11A N3A 1_555 1_555
C6 C7 1_555 1_555
C6 C8 1_555 1_555

#END
