
#######################################################################
#
#                 Cambridge Crystallographic Data Centre
#                                CCDC 
#
#######################################################################
#
# If this CIF has been generated from an entry in the Cambridge 
# Structural Database, then it will include bibliographic, chemical, 
# crystal, experimental, refinement or atomic coordinate data resulting 
# from the CCDC's data processing and validation procedures.
#
#######################################################################

data_FIJMOB
_symmetry_cell_setting           monoclinic
_symmetry_space_group_name_H-M   'P 21/c'
_symmetry_Int_Tables_number      14
_space_group_name_Hall           '-P 2ybc'
loop_
_symmetry_equiv_pos_site_id
_symmetry_equiv_pos_as_xyz
1 x,y,z
2 -x,1/2+y,1/2-z
3 -x,-y,-z
4 x,1/2-y,1/2+z
_cell_length_a                   10.758(4)
_cell_length_b                   9.284(6)
_cell_length_c                   10.598(5)
_cell_angle_alpha                90
_cell_angle_beta                 99.67(3)
_cell_angle_gamma                90
_cell_volume                     1043.46
loop_
_atom_site_label
_atom_site_type_symbol
_atom_site_fract_x
_atom_site_fract_y
_atom_site_fract_z
Br1 Br 0.33092(4) 0.32628(4) 0.37476(4)
Cu1 Cu 0.46689(5) 0.15556(5) 0.29919(5)
N1 N 0.3783(3) -0.0035(3) 0.1693(3)
N2 N 0.6110(3) 0.0620(4) 0.4081(3)
C1 C 0.2974(3) -0.1982(3) 0.2862(3)
C2 C 0.2746(3) -0.0843(3) 0.2000(3)
C3 C 0.1952(4) -0.2770(4) 0.3150(4)
H1 H 0.2094 -0.3555 0.3701
C4 C 0.7089(4) 0.0166(4) 0.4385(4)
C5 C 0.1515(4) -0.0472(4) 0.1492(4)
H2 H 0.1364 0.0309 0.0937
C6 C 0.0508(4) -0.1247(5) 0.1801(5)
H3 H -0.0314 -0.0991 0.1453
C7 C 0.0730(4) -0.2395(4) 0.2623(5)
H4 H 0.0056 -0.2923 0.2827
C8 C 0.8349(5) -0.0396(6) 0.4746(5)
H5 H 0.8596 -0.0884 0.4028
H6 H 0.8368 -0.1061 0.5442
H7 H 0.8922 0.0383 0.5006
N3 N 0.4243(4) -0.2366(4) 0.3347(3)
H8 H 0.349(4) 0.040(4) 0.092(4)
H9 H 0.440(4) -0.058(4) 0.156(4)
H10 H 0.461(4) -0.152(5) 0.363(4)
H11 H 0.420(5) -0.283(5) 0.384(5)
Cu1A Cu 0.53311(5) -0.34444(5) 0.20081(5)
N3A N 0.5757(4) 0.2634(4) 0.1653(3)
H10A H 0.539(4) 0.348(5) 0.137(4)
H11A H 0.580(5) 0.217(5) 0.116(5)
loop_
_geom_bond_atom_site_label_1
_geom_bond_atom_site_label_2
_geom_bond_site_symmetry_1
_geom_bond_site_symmetry_2
Br1 Cu1 1_555 1_555
Cu1 N1 1_555 1_555
N1 C2 1_555 1_555
N2 Cu1 1_555 1_555
C1 C2 1_555 1_555
C2 C5 1_555 1_555
C3 C1 1_555 1_555
H1 C3 1_555 1_555
C4 N2 1_555 1_555
C5 H2 1_555 1_555
C6 C5 1_555 1_555
H3 C6 1_555 1_555
C7 C3 1_555 1_555
H4 C7 1_555 1_555
C8 C4 1_555 1_555
H5 C8 1_555 1_555
H6 C8 1_555 1_555
H7 C8 1_555 1_555
N3 C1 1_555 1_555
H8 N1 1_555 1_555
H9 N1 1_555 1_555
H10 N3 1_555 1_555
H11 N3 1_555 1_555
Cu1A N3 1_555 1_555
N3A Cu1 1_555 1_555
H10A N3A 1_555 1_555
H11A N3A 1_555 1_555
C6 C7 1_555 1_555

#END
