
#######################################################################
#
#                 Cambridge Crystallographic Data Centre
#                                CCDC 
#
#######################################################################
#
# If this CIF has been generated from an entry in the Cambridge 
# Structural Database, then it will include bibliographic, chemical, 
# crystal, experimental, refinement or atomic coordinate data resulting 
# from the CCDC's data processing and validation procedures.
#
#######################################################################

data_FIJNIW
_symmetry_cell_setting           monoclinic
_symmetry_space_group_name_H-M   'P 21/c'
_symmetry_Int_Tables_number      14
_space_group_name_Hall           '-P 2ybc'
loop_
_symmetry_equiv_pos_site_id
_symmetry_equiv_pos_as_xyz
1 x,y,z
2 -x,1/2+y,1/2-z
3 -x,-y,-z
4 x,1/2-y,1/2+z
_cell_length_a                   8.4028(5)
_cell_length_b                   21.3726(13)
_cell_length_c                   10.5617(7)
_cell_angle_alpha                90
_cell_angle_beta                 95.1200(10)
_cell_angle_gamma                90
_cell_volume                     1889.2
loop_
_atom_site_label
_atom_site_type_symbol
_atom_site_fract_x
_atom_site_fract_y
_atom_site_fract_z
Cd1 Cd 0.0000 0.5000 0.0000
C1 C 0.2663(4) 0.40713(14) 0.1236(3)
H1 H 0.2769 0.4021 0.0354
C2 C 0.3471(4) 0.36652(14) 0.2071(3)
H2 H 0.4122 0.3344 0.1771
C3 C 0.3319(3) 0.37328(13) 0.3365(3)
C4 C 0.2376(3) 0.42168(13) 0.3761(3)
H3 H 0.2258 0.4279 0.4639
C5 C 0.1613(3) 0.46044(13) 0.2856(3)
H4 H 0.0973 0.4935 0.3132
C6 C 0.4083(3) 0.32875(13) 0.4275(3)
C7 C 0.5563(3) 0.25373(13) 0.4930(2)
C8 C 0.8068(4) 0.12390(13) 0.3798(3)
H5 H 0.8357 0.1069 0.3020
C9 C 0.7080(3) 0.17550(13) 0.3755(3)
H6 H 0.6687 0.1932 0.2964
C10 C 0.6672(3) 0.20101(12) 0.4889(3)
C11 C 0.7283(3) 0.17376(13) 0.6031(3)
H7 H 0.7042 0.1907 0.6823
C12 C 0.8246(3) 0.12177(13) 0.5985(3)
H8 H 0.8647 0.1030 0.6763
N1 N 0.1730(3) 0.45367(11) 0.1600(2)
N2 N 0.3856(3) 0.32162(11) 0.5461(2)
N3 N 0.4844(3) 0.27196(11) 0.5896(2)
N4 N 0.8645(3) 0.09636(11) 0.4894(2)
O1 O 0.5152(2) 0.28734(9) 0.38656(17)
N5 N 0.1748(3) 0.47224(12) -0.1539(2)
C13 C 0.2832(4) 0.46536(14) -0.2107(3)
C14 C 0.4230(4) 0.45605(18) -0.2806(4)
H9 H 0.5200 0.4612 -0.2228
H10 H 0.4226 0.4869 -0.3493
H11 H 0.4206 0.4138 -0.3166
Cd1C Cd 1.0000 0.0000 0.5000
Cd1C_2 Cd -1.0000 1.0000 -0.5000
C1B C -0.2663(4) 0.59287(14) -0.1236(3)
H1B H -0.2769 0.5979 -0.0354
C2B C -0.3471(4) 0.63348(14) -0.2071(3)
H2B H -0.4122 0.6656 -0.1771
C3B C -0.3319(3) 0.62672(13) -0.3365(3)
C4B C -0.2376(3) 0.57832(13) -0.3761(3)
H3B H -0.2258 0.5721 -0.4639
C5B C -0.1613(3) 0.53956(13) -0.2856(3)
H4B H -0.0973 0.5065 -0.3132
C6B C -0.4083(3) 0.67125(13) -0.4275(3)
C7B C -0.5563(3) 0.74627(13) -0.4930(2)
C8B C -0.8068(4) 0.87610(13) -0.3798(3)
H5B H -0.8357 0.8931 -0.3020
C9B C -0.7080(3) 0.82450(13) -0.3755(3)
H6B H -0.6687 0.8068 -0.2964
C10B C -0.6672(3) 0.79899(12) -0.4889(3)
C11B C -0.7283(3) 0.82624(13) -0.6031(3)
H7B H -0.7042 0.8093 -0.6823
C12B C -0.8246(3) 0.87823(13) -0.5985(3)
H8B H -0.8647 0.8970 -0.6763
N1B N -0.1730(3) 0.54633(11) -0.1600(2)
N2B N -0.3856(3) 0.67838(11) -0.5461(2)
N3B N -0.4844(3) 0.72804(11) -0.5896(2)
N4B N -0.8645(3) 0.90364(11) -0.4894(2)
N4C N -0.1355(3) 0.40364(11) -0.0106(2)
N4A N 0.1355(3) 0.59636(11) 0.0106(2)
O1B O -0.5152(2) 0.71266(9) -0.38656(17)
N5B N -0.1748(3) 0.52776(12) 0.1539(2)
C13B C -0.2832(4) 0.53464(14) 0.2107(3)
C14B C -0.4230(4) 0.54395(18) 0.2806(4)
H9B H -0.5200 0.5388 0.2228
H10B H -0.4226 0.5131 0.3493
H11B H -0.4206 0.5862 0.3166
N6 N 0.2617(5) 0.18344(17) 0.3732(4)
C15 C 0.1774(5) 0.20699(17) 0.2985(4)
C16 C 0.0720(5) 0.23754(19) 0.2020(4)
H12 H 0.0109 0.2702 0.2413
H13 H -0.0017 0.2067 0.1606
H14 H 0.1353 0.2565 0.1385
Cl1 Cl 0.83778(10) 0.39192(4) 0.49224(8)
O2 O 0.8759(4) 0.33735(15) 0.4238(3)
O3 O 0.9734(4) 0.40727(16) 0.5828(3)
O4 O 0.7112(4) 0.3816(2) 0.5663(3)
O5 O 0.8151(7) 0.4404(2) 0.4069(4)
loop_
_geom_bond_atom_site_label_1
_geom_bond_atom_site_label_2
_geom_bond_site_symmetry_1
_geom_bond_site_symmetry_2
Cd1 N1 1_555 1_555
C1 H1 1_555 1_555
C2 C1 1_555 1_555
H2 C2 1_555 1_555
C3 C2 1_555 1_555
C4 C3 1_555 1_555
H3 C4 1_555 1_555
C5 C4 1_555 1_555
H4 C5 1_555 1_555
C6 C3 1_555 1_555
C7 C10 1_555 1_555
C8 H5 1_555 1_555
C9 C8 1_555 1_555
H6 C9 1_555 1_555
C10 C9 1_555 1_555
C11 C10 1_555 1_555
H7 C11 1_555 1_555
C12 C11 1_555 1_555
H8 C12 1_555 1_555
N1 C1 1_555 1_555
N2 C6 1_555 1_555
N3 C7 1_555 1_555
N4 C8 1_555 1_555
O1 C6 1_555 1_555
N5 Cd1 1_555 1_555
C13 N5 1_555 1_555
C14 C13 1_555 1_555
H9 C14 1_555 1_555
H10 C14 1_555 1_555
H11 C14 1_555 1_555
N6 C15 1_555 1_555
C15 C16 1_555 1_555
C16 H12 1_555 1_555
H13 C16 1_555 1_555
H14 C16 1_555 1_555
Cl1 O2 1_555 1_555
O3 Cl1 1_555 1_555
O4 Cl1 1_555 1_555
O5 Cl1 1_555 1_555
Cd1C N4 1_555 1_555
Cd1C_2 N4B 1_555 1_555
C1B H1B 1_555 1_555
C2B C1B 1_555 1_555
H2B C2B 1_555 1_555
C3B C2B 1_555 1_555
C4B C3B 1_555 1_555
H3B C4B 1_555 1_555
C5B C4B 1_555 1_555
H4B C5B 1_555 1_555
C6B C3B 1_555 1_555
C7B C10B 1_555 1_555
C8B H5B 1_555 1_555
C9B C8B 1_555 1_555
H6B C9B 1_555 1_555
C10B C9B 1_555 1_555
C11B C10B 1_555 1_555
H7B C11B 1_555 1_555
C12B C11B 1_555 1_555
H8B C12B 1_555 1_555
N1B Cd1 1_555 1_555
N2B C6B 1_555 1_555
N3B C7B 1_555 1_555
N4B C8B 1_555 1_555
N4C Cd1 1_555 1_555
N4A Cd1 1_555 1_555
O1B C6B 1_555 1_555
N5B Cd1 1_555 1_555
C13B N5B 1_555 1_555
C14B C13B 1_555 1_555
H9B C14B 1_555 1_555
H10B C14B 1_555 1_555
H11B C14B 1_555 1_555
C5 N1 1_555 1_555
C7 O1 1_555 1_555
C12 N4 1_555 1_555
N2 N3 1_555 1_555
C1B N1B 1_555 1_555
C5B N1B 1_555 1_555
C7B O1B 1_555 1_555
C12B N4B 1_555 1_555
N2B N3B 1_555 1_555

#END
