
#######################################################################
#
#                 Cambridge Crystallographic Data Centre
#                                CCDC 
#
#######################################################################
#
# If this CIF has been generated from an entry in the Cambridge 
# Structural Database, then it will include bibliographic, chemical, 
# crystal, experimental, refinement or atomic coordinate data resulting 
# from the CCDC's data processing and validation procedures.
#
#######################################################################

data_FIJNAO
_symmetry_cell_setting           triclinic
_symmetry_space_group_name_H-M   'P -1'
_symmetry_Int_Tables_number      2
_space_group_name_Hall           '-P 1'
loop_
_symmetry_equiv_pos_site_id
_symmetry_equiv_pos_as_xyz
1 x,y,z
2 -x,-y,-z
_cell_length_a                   6.915(3)
_cell_length_b                   9.518(1)
_cell_length_c                   9.742(1)
_cell_angle_alpha                68.44(1)
_cell_angle_beta                 75.22(2)
_cell_angle_gamma                89.80(2)
_cell_volume                     573.685
loop_
_atom_site_label
_atom_site_type_symbol
_atom_site_fract_x
_atom_site_fract_y
_atom_site_fract_z
Na1 Na 0.0778(2) 0.68740(16) 0.33923(15)
C1 C 0.2707(5) 0.6766(4) -0.0213(4)
H1 H 0.2931 0.7811 -0.0505
C2 C 0.3352(5) 0.6157(4) -0.1330(4)
C3 C 0.3024(5) 0.4598(4) -0.0887(4)
H2 H 0.3436 0.4153 -0.1604
C4 C 0.2079(5) 0.3704(4) 0.0633(4)
C5 C 0.1482(5) 0.4432(4) 0.1654(4)
H3 H 0.0834 0.3841 0.2671
C6 C 0.4346(5) 0.7172(4) -0.2980(4)
C7 C 0.1691(5) 0.2010(4) 0.1150(4)
N1 N 0.1785(5) 0.5935(4) 0.1256(3)
O1 O 0.4730(4) 0.8542(3) -0.3291(3)
O2 O 0.4685(4) 0.6550(3) -0.3953(3)
O3 O 0.2505(4) 0.1396(3) 0.0242(3)
O4 O 0.0535(4) 0.1295(3) 0.2462(3)
O5 O 0.2219(4) 0.4930(3) 0.5129(3)
H4 H 0.2021 0.5061 0.5969
H5 H 0.3475 0.4980 0.4728
O6 O 0.3862(4) 0.8642(3) 0.1860(3)
H6 H 0.4870 0.8135 0.1776
H7 H 0.3737 0.9163 0.0973
O7 O 0.1266(4) 0.8518(3) 0.4712(3)
H8 H 0.0307 0.8306 0.5524
H9 H 0.1280 0.9439 0.4127
O8 O -0.1541(4) 0.8750(3) 0.2389(3)
Na2 Na 0.5035(2) 0.89057(16) -0.60976(15)
H10 H -0.0672 0.8995 0.2759
H11 H -0.1358 0.9350 0.1458
Na1A Na -0.0778(2) 0.31260(16) 0.66077(15)
O1A O 0.5270(4) 1.1458(3) -0.6709(3)
O5A O -0.2219(4) 0.5070(3) 0.4871(3)
O6_2 O 0.3862(4) 0.8642(3) -0.8140(3)
O7_2 O 0.1266(4) 0.8518(3) -0.5288(3)
O8_2 O 0.8459(4) 0.8750(3) -0.7611(3)
Na2A Na 0.4965(2) 1.10943(16) -0.39024(15)
Na2_2 Na 0.5035(2) 0.89057(16) 0.39024(15)
Na2_3 Na -0.4965(2) 0.89057(16) 0.39024(15)
loop_
_geom_bond_atom_site_label_1
_geom_bond_atom_site_label_2
_geom_bond_site_symmetry_1
_geom_bond_site_symmetry_2
Na1 N1 1_555 1_555
C1 H1 1_555 1_555
C2 C1 1_555 1_555
C3 C2 1_555 1_555
H2 C3 1_555 1_555
C4 C3 1_555 1_555
C5 C4 1_555 1_555
H3 C5 1_555 1_555
C6 C2 1_555 1_555
C7 C4 1_555 1_555
N1 C1 1_555 1_555
O1 C6 1_555 1_555
O2 C6 1_555 1_555
O3 C7 1_555 1_555
O4 C7 1_555 1_555
O5 Na1 1_555 1_555
H4 O5 1_555 1_555
H5 O5 1_555 1_555
O6 Na1 1_555 1_555
H6 O6 1_555 1_555
H7 O6 1_555 1_555
O7 Na1 1_555 1_555
H8 O7 1_555 1_555
H9 O7 1_555 1_555
O8 Na1 1_555 1_555
Na2 O1 1_555 1_555
H10 O8 1_555 1_555
H11 O8 1_555 1_555
Na1A O5 1_555 1_555
O1A Na2 1_555 1_555
O5A Na1 1_555 1_555
O6_2 Na2 1_555 1_555
O7_2 Na2 1_555 1_555
O8_2 Na2 1_555 1_555
Na2A O1 1_555 1_555
Na2_2 O6 1_555 1_555
Na2_3 O8 1_555 1_555
C5 N1 1_555 1_555
O2 Na2 1_555 1_555
O7 Na2_2 1_555 1_555
Na1A O5A 1_555 1_555
O1A Na2A 1_555 1_555

#END
