
#######################################################################
#
#                 Cambridge Crystallographic Data Centre
#                                CCDC 
#
#######################################################################
#
# If this CIF has been generated from an entry in the Cambridge 
# Structural Database, then it will include bibliographic, chemical, 
# crystal, experimental, refinement or atomic coordinate data resulting 
# from the CCDC's data processing and validation procedures.
#
#######################################################################

data_FIJPAQ
_symmetry_cell_setting           monoclinic
_symmetry_space_group_name_H-M   'P 2/n'
_symmetry_Int_Tables_number      13
_space_group_name_Hall           '-P 2yac'
loop_
_symmetry_equiv_pos_site_id
_symmetry_equiv_pos_as_xyz
1 x,y,z
2 1/2-x,y,1/2-z
3 -x,-y,-z
4 1/2+x,-y,1/2+z
_cell_length_a                   17.2733(11)
_cell_length_b                   5.2173(3)
_cell_length_c                   20.4069(13)
_cell_angle_alpha                90
_cell_angle_beta                 102.8690(10)
_cell_angle_gamma                90
_cell_volume                     1792.88
loop_
_atom_site_label
_atom_site_type_symbol
_atom_site_fract_x
_atom_site_fract_y
_atom_site_fract_z
Hg1 Hg 0.2500 0.56388(4) 0.2500
Hg2 Hg 0.2500 -1.50838(4) 0.7500
I1 I 0.389988(17) 0.68532(6) 0.326481(16)
I2 I 0.105088(15) -1.61400(6) 0.766225(14)
C1 C 0.2528(2) 0.1441(8) 0.3767(2)
H1 H 0.3062 0.2029 0.3881
C2 C 0.2310(3) -0.0537(8) 0.4140(2)
H2 H 0.2685 -0.1294 0.4499
C3 C 0.1532(2) -0.1387(7) 0.3975(2)
C4 C 0.0999(3) -0.0196(8) 0.3452(2)
H3 H 0.0458 -0.0709 0.3332
C5 C 0.1282(3) 0.1756(8) 0.3111(2)
H4 H 0.0920 0.2568 0.2753
C6 C 0.1242(2) -0.3488(8) 0.4331(2)
C7 C 0.1263(2) -0.6547(7) 0.5020(2)
C8 C 0.2584(2) -1.0649(8) 0.6307(2)
H5 H 0.3134 -1.0927 0.6485
C9 C 0.2363(2) -0.8778(8) 0.5821(2)
H6 H 0.2752 -0.7779 0.5674
C10 C 0.1563(2) -0.8396(8) 0.55543(19)
C11 C 0.1015(2) -0.9899(8) 0.5784(2)
H7 H 0.0462 -0.9683 0.5608
C12 C 0.1290(2) -1.1711(8) 0.6272(2)
H8 H 0.0914 -1.2742 0.6427
N1 N 0.2029(2) 0.2564(6) 0.32561(17)
N2 N 0.0538(2) -0.4416(7) 0.42033(19)
N3 N 0.0548(2) -0.6433(7) 0.46598(18)
N4 N 0.20637(19) -1.2081(7) 0.65373(17)
O1 O 0.17511(16) -0.4723(5) 0.48439(14)
Hg2_2 Hg 0.2500 -1.50838(4) -0.2500
I1A I 0.110012(17) 0.68532(6) 0.173519(16)
I2A I 0.394912(15) -1.61400(6) 0.733775(14)
C1A C 0.2472(2) 0.1441(8) 0.1233(2)
H1A H 0.1938 0.2029 0.1119
C2A C 0.2690(3) -0.0537(8) 0.0860(2)
H2A H 0.2315 -0.1294 0.0501
C3A C 0.3468(2) -0.1387(7) 0.1025(2)
C4A C 0.4001(3) -0.0196(8) 0.1548(2)
H3A H 0.4542 -0.0709 0.1668
C5A C 0.3718(3) 0.1756(8) 0.1889(2)
H4A H 0.4080 0.2568 0.2247
C6A C 0.3758(2) -0.3488(8) 0.0669(2)
C7A C 0.3737(2) -0.6547(7) -0.0020(2)
C8A C 0.2416(2) -1.0649(8) -0.1307(2)
H5A H 0.1866 -1.0927 -0.1485
C9A C 0.2637(2) -0.8778(8) -0.0821(2)
H6A H 0.2248 -0.7779 -0.0674
C10A C 0.3437(2) -0.8396(8) -0.05543(19)
C11A C 0.3985(2) -0.9899(8) -0.0784(2)
H7A H 0.4538 -0.9683 -0.0608
C12A C 0.3710(2) -1.1711(8) -0.1272(2)
H8A H 0.4086 -1.2742 -0.1427
N1A N 0.2971(2) 0.2564(6) 0.17439(17)
N2A N 0.4462(2) -0.4416(7) 0.07967(19)
N3A N 0.4452(2) -0.6433(7) 0.03402(18)
N4A N 0.29363(19) -1.2081(7) -0.15373(17)
N4A_2 N 0.29363(19) -1.2081(7) 0.84627(17)
O1A O 0.32489(16) -0.4723(5) 0.01561(14)
C13 C 0.5810(3) 0.4073(11) 0.4582(3)
C14 C 0.5391(3) 0.1827(11) 0.4241(3)
H9 H 0.4841 0.1830 0.4294
H10 H 0.5657 0.0260 0.4439
H11 H 0.5395 0.1893 0.3761
N5 N 0.6119(3) 0.5774(10) 0.4832(3)
loop_
_geom_bond_atom_site_label_1
_geom_bond_atom_site_label_2
_geom_bond_site_symmetry_1
_geom_bond_site_symmetry_2
Hg1 I1 1_555 1_555
Hg2 I2 1_555 1_555
C1 H1 1_555 1_555
C2 C1 1_555 1_555
H2 C2 1_555 1_555
C3 C2 1_555 1_555
C4 C3 1_555 1_555
H3 C4 1_555 1_555
C5 C4 1_555 1_555
H4 C5 1_555 1_555
C6 C3 1_555 1_555
C7 C10 1_555 1_555
C8 H5 1_555 1_555
C9 C8 1_555 1_555
H6 C9 1_555 1_555
C10 C9 1_555 1_555
C11 C10 1_555 1_555
H7 C11 1_555 1_555
C12 C11 1_555 1_555
H8 C12 1_555 1_555
C13 C14 1_555 1_555
C14 H9 1_555 1_555
H10 C14 1_555 1_555
H11 C14 1_555 1_555
N1 Hg1 1_555 1_555
N2 C6 1_555 1_555
N3 C7 1_555 1_555
N4 Hg2 1_555 1_555
N5 C13 1_555 1_555
O1 C6 1_555 1_555
Hg2_2 N4A 1_555 1_555
I1A Hg1 1_555 1_555
I2A Hg2 1_555 1_555
C1A H1A 1_555 1_555
C2A C1A 1_555 1_555
H2A C2A 1_555 1_555
C3A C2A 1_555 1_555
C4A C3A 1_555 1_555
H3A C4A 1_555 1_555
C5A C4A 1_555 1_555
H4A C5A 1_555 1_555
C6A C3A 1_555 1_555
C7A C10A 1_555 1_555
C8A H5A 1_555 1_555
C9A C8A 1_555 1_555
H6A C9A 1_555 1_555
C10A C9A 1_555 1_555
C11A C10A 1_555 1_555
H7A C11A 1_555 1_555
C12A C11A 1_555 1_555
H8A C12A 1_555 1_555
N1A Hg1 1_555 1_555
N2A C6A 1_555 1_555
N3A C7A 1_555 1_555
N4A C8A 1_555 1_555
N4A_2 Hg2 1_555 1_555
O1A C6A 1_555 1_555
C1 N1 1_555 1_555
C5 N1 1_555 1_555
C7 O1 1_555 1_555
C8 N4 1_555 1_555
C12 N4 1_555 1_555
N2 N3 1_555 1_555
C1A N1A 1_555 1_555
C5A N1A 1_555 1_555
C7A O1A 1_555 1_555
C12A N4A 1_555 1_555
N2A N3A 1_555 1_555

#END
