
#######################################################################
#
#                 Cambridge Crystallographic Data Centre
#                                CCDC 
#
#######################################################################
#
# If this CIF has been generated from an entry in the Cambridge 
# Structural Database, then it will include bibliographic, chemical, 
# crystal, experimental, refinement or atomic coordinate data resulting 
# from the CCDC's data processing and validation procedures.
#
#######################################################################

data_FIJPEU
_symmetry_cell_setting           monoclinic
_symmetry_space_group_name_H-M   'P 21/n'
_symmetry_Int_Tables_number      14
_space_group_name_Hall           '-P 2yn'
loop_
_symmetry_equiv_pos_site_id
_symmetry_equiv_pos_as_xyz
1 x,y,z
2 1/2-x,1/2+y,1/2-z
3 -x,-y,-z
4 1/2+x,1/2-y,1/2+z
_cell_length_a                   5.470(4)
_cell_length_b                   16.271(13)
_cell_length_c                   16.486(12)
_cell_angle_alpha                90
_cell_angle_beta                 93.197(15)
_cell_angle_gamma                90
_cell_volume                     1465.01
loop_
_atom_site_label
_atom_site_type_symbol
_atom_site_fract_x
_atom_site_fract_y
_atom_site_fract_z
Hg1 Hg 0.86225(10) 0.19465(4) -0.13453(4)
Br1 Br 0.8510(3) 0.24375(10) -0.27779(10)
Br2 Br 1.0801(3) 0.15838(11) -0.00496(12)
N1 N 0.5638(19) 0.2951(6) -0.0893(8)
N2 N 0.2518(18) 0.4758(7) 0.1141(7)
N3 N 0.353(2) 0.5007(7) 0.1925(8)
N4 N 1.075(2) 0.4184(7) 0.3445(9)
O1 O 0.6132(15) 0.4181(5) 0.1363(6)
C1 C 0.569(2) 0.3294(7) -0.0154(8)
H1 H 0.6950 0.3144 0.0219
C2 C 0.403(3) 0.3843(8) 0.0082(9)
C3 C 0.214(2) 0.4049(8) -0.0495(9)
H2 H 0.0937 0.4422 -0.0361
C4 C 0.205(3) 0.3711(9) -0.1233(10)
H3 H 0.0794 0.3851 -0.1610
C5 C 0.379(3) 0.3160(9) -0.1440(9)
H4 H 0.3717 0.2927 -0.1956
C6 C 0.417(3) 0.4233(8) 0.0837(10)
C7 C 0.557(3) 0.4666(9) 0.2001(10)
C8 C 0.907(3) 0.4157(8) 0.2825(11)
H5 H 0.9090 0.3714 0.2469
C9 C 0.730(2) 0.4763(8) 0.2687(10)
C10 C 0.730(3) 0.5411(8) 0.3200(11)
H6 H 0.6155 0.5830 0.3127
C11 C 0.906(3) 0.5434(9) 0.3837(11)
H7 H 0.9099 0.5876 0.4195
C12 C 1.073(3) 0.4820(9) 0.3948(10)
H8 H 1.1876 0.4847 0.4384
Hg1C Hg 1.36225(10) 0.30535(4) 0.36547(4)
N4C N 0.575(2) 0.0816(7) -0.1555(9)
loop_
_geom_bond_atom_site_label_1
_geom_bond_atom_site_label_2
_geom_bond_site_symmetry_1
_geom_bond_site_symmetry_2
Hg1 Br1 1_555 1_555
Br2 Hg1 1_555 1_555
N1 Hg1 1_555 1_555
N2 N3 1_555 1_555
N3 C7 1_555 1_555
N4 C8 1_555 1_555
O1 C6 1_555 1_555
C1 N1 1_555 1_555
H1 C1 1_555 1_555
C2 C1 1_555 1_555
C3 C2 1_555 1_555
H2 C3 1_555 1_555
C4 C3 1_555 1_555
H3 C4 1_555 1_555
C5 N1 1_555 1_555
H4 C5 1_555 1_555
C6 N2 1_555 1_555
C7 O1 1_555 1_555
C8 H5 1_555 1_555
C9 C7 1_555 1_555
C10 C9 1_555 1_555
H6 C10 1_555 1_555
C11 C10 1_555 1_555
H7 C11 1_555 1_555
C12 N4 1_555 1_555
H8 C12 1_555 1_555
Hg1C N4 1_555 1_555
N4C Hg1 1_555 1_555
C2 C6 1_555 1_555
C4 C5 1_555 1_555
C8 C9 1_555 1_555
C11 C12 1_555 1_555

#END
