
#######################################################################
#
#                 Cambridge Crystallographic Data Centre
#                                CCDC 
#
#######################################################################
#
# If this CIF has been generated from an entry in the Cambridge 
# Structural Database, then it will include bibliographic, chemical, 
# crystal, experimental, refinement or atomic coordinate data resulting 
# from the CCDC's data processing and validation procedures.
#
#######################################################################

data_FIJRUM
_symmetry_cell_setting           monoclinic
_symmetry_space_group_name_H-M   'P 21/c'
_symmetry_Int_Tables_number      14
_space_group_name_Hall           '-P 2ybc'
loop_
_symmetry_equiv_pos_site_id
_symmetry_equiv_pos_as_xyz
1 x,y,z
2 -x,1/2+y,1/2-z
3 -x,-y,-z
4 x,1/2-y,1/2+z
_cell_length_a                   12.168(17)
_cell_length_b                   16.75(2)
_cell_length_c                   15.29(2)
_cell_angle_alpha                90
_cell_angle_beta                 98.930(10)
_cell_angle_gamma                90
_cell_volume                     3078.54
loop_
_atom_site_label
_atom_site_type_symbol
_atom_site_fract_x
_atom_site_fract_y
_atom_site_fract_z
Ni1 Ni 0.54360(9) 0.78812(6) 0.44670(6)
N1 N 0.6354(5) 0.8816(4) 0.3797(4)
C1 C 0.7267(8) 0.8556(6) 0.3335(6)
H1 H 0.7424 0.8981 0.2941
H2 H 0.7018 0.8096 0.2972
C2 C 0.8353(10) 0.8335(7) 0.3945(8)
H3 H 0.8929 0.8219 0.3591
H4 H 0.8237 0.7862 0.4284
C3 C 0.8729(10) 0.9040(7) 0.4586(8)
H5 H 0.9351 0.8875 0.5024
H6 H 0.8966 0.9486 0.4257
C4 C 0.7770(8) 0.9289(6) 0.5039(6)
H7 H 0.7987 0.9746 0.5416
H8 H 0.7580 0.8856 0.5410
C5 C 0.6764(8) 0.9503(5) 0.4363(6)
H9 H 0.6173 0.9691 0.4670
H10 H 0.6959 0.9934 0.3992
C6 C 0.5446(8) 0.9093(6) 0.3072(6)
H11 H 0.5683 0.9579 0.2811
H12 H 0.5325 0.8690 0.2611
C7 C 0.4379(7) 0.9246(5) 0.3412(6)
H13 H 0.3799 0.9385 0.2926
H14 H 0.4470 0.9687 0.3829
N2 N 0.4060(5) 0.8498(4) 0.3866(4)
H15 H 0.3654 0.8180 0.3464
H16 H 0.3634 0.8631 0.4275
N3 N 0.4314(6) 0.7080(4) 0.4955(5)
C8 C 0.3781(9) 0.6865(5) 0.5485(6)
N4 N 0.3157(10) 0.6546(5) 0.6001(7)
C9 C 0.2760(8) 0.6951(5) 0.6593(6)
N5 N 0.2382(6) 0.7227(4) 0.7156(5)
N6 N 0.5367(6) 0.8577(4) 0.5624(5)
C10 C 0.5191(7) 0.8623(5) 0.6340(5)
N7 N 0.4923(9) 0.8758(5) 0.7117(5)
C11 C 0.5194(7) 0.8255(5) 0.7774(6)
N8 N 0.5403(6) 0.7863(4) 0.8377(4)
N9 N 0.6762(6) 0.7264(4) 0.5164(5)
C12 C 0.7466(9) 0.7034(5) 0.5642(6)
N10 N 0.8344(7) 0.6687(5) 0.6165(6)
C13 C 0.9158(8) 0.7118(5) 0.6564(6)
N11 N 0.9891(7) 0.7450(4) 0.6987(5)
N12 N 0.1335(6) 0.7407(4) 0.8745(5)
C14 C 0.1540(7) 0.6959(6) 0.9330(6)
N13 N 0.1891(8) 0.6400(5) 0.9902(5)
C15 C 0.1584(7) 0.6398(5) 1.0700(5)
N14 N 0.1351(6) 0.6326(4) 1.1394(4)
Ni2 Ni 0.12598(9) 0.80791(6) 0.76011(6)
N15 N 0.2603(6) 0.8777(4) 0.8194(5)
H17 H 0.3025 0.8498 0.8623
H18 H 0.3029 0.8919 0.7788
C16 C 0.2162(11) 0.9481(7) 0.8564(9)
H19 H 0.2523 0.9526 0.9174
H20 H 0.2390 0.9940 0.8250
C17 C 0.1071(11) 0.9542(10) 0.8561(15)
H21 H 0.0867 1.0081 0.8369
H22 H 0.0960 0.9506 0.9174
N16 N 0.0269(6) 0.9029(4) 0.8073(4)
C18 C -0.0467(10) 0.8735(7) 0.8681(7)
H23 H -0.0007 0.8514 0.9199
H24 H -0.0912 0.8303 0.8391
C19 C -0.1254(11) 0.9349(8) 0.8993(8)
H25 H -0.0825 0.9760 0.9339
H26 H -0.1721 0.9089 0.9369
C20 C -0.1986(11) 0.9729(7) 0.8195(9)
H27 H -0.2482 0.9332 0.7885
H28 H -0.2433 1.0154 0.8389
C21 C -0.1216(12) 1.0062(8) 0.7582(8)
H29 H -0.1663 1.0269 0.7050
H30 H -0.0792 1.0503 0.7876
C22 C -0.0424(12) 0.9446(7) 0.7327(7)
H31 H -0.0851 0.9049 0.6957
H32 H 0.0067 0.9704 0.6971
Ni1C Ni 0.54360(9) 0.71188(6) 0.94670(6)
N8C N 0.5403(6) 0.7137(4) 0.3377(4)
N11_2 N -0.0109(7) 0.7450(4) 0.6987(5)
N14C N 0.1351(6) 0.8674(4) 0.6394(4)
Ni2_2 Ni 1.12598(9) 0.80791(6) 0.76011(6)
Ni2C Ni 0.12598(9) 0.69209(6) 1.26011(6)
O1 O 0.481(3) 1.013(2) 1.0435(17)
loop_
_geom_bond_atom_site_label_1
_geom_bond_atom_site_label_2
_geom_bond_site_symmetry_1
_geom_bond_site_symmetry_2
Ni1 N1 1_555 1_555
N1 C1 1_555 1_555
C1 H1 1_555 1_555
H2 C1 1_555 1_555
C2 C1 1_555 1_555
H3 C2 1_555 1_555
H4 C2 1_555 1_555
C3 C2 1_555 1_555
H5 C3 1_555 1_555
H6 C3 1_555 1_555
C4 C3 1_555 1_555
H7 C4 1_555 1_555
H8 C4 1_555 1_555
C5 N1 1_555 1_555
H9 C5 1_555 1_555
H10 C5 1_555 1_555
C6 N1 1_555 1_555
H11 C6 1_555 1_555
H12 C6 1_555 1_555
C7 C6 1_555 1_555
H13 C7 1_555 1_555
H14 C7 1_555 1_555
N2 Ni1 1_555 1_555
H15 N2 1_555 1_555
H16 N2 1_555 1_555
N3 Ni1 1_555 1_555
C8 N3 1_555 1_555
N4 C8 1_555 1_555
C9 N4 1_555 1_555
N5 C9 1_555 1_555
N6 Ni1 1_555 1_555
C10 N6 1_555 1_555
N7 C10 1_555 1_555
C11 N7 1_555 1_555
N8 C11 1_555 1_555
N9 Ni1 1_555 1_555
C12 N9 1_555 1_555
N10 C12 1_555 1_555
C13 N10 1_555 1_555
N11 C13 1_555 1_555
N12 C14 1_555 1_555
C14 N13 1_555 1_555
N13 C15 1_555 1_555
C15 N14 1_555 1_555
N14 Ni2C 1_555 1_555
Ni2 N5 1_555 1_555
N15 Ni2 1_555 1_555
H17 N15 1_555 1_555
H18 N15 1_555 1_555
C16 N15 1_555 1_555
H19 C16 1_555 1_555
H20 C16 1_555 1_555
C17 C16 1_555 1_555
H21 C17 1_555 1_555
H22 C17 1_555 1_555
N16 Ni2 1_555 1_555
C18 N16 1_555 1_555
H23 C18 1_555 1_555
H24 C18 1_555 1_555
C19 C18 1_555 1_555
H25 C19 1_555 1_555
H26 C19 1_555 1_555
C20 C19 1_555 1_555
H27 C20 1_555 1_555
H28 C20 1_555 1_555
C21 C20 1_555 1_555
H29 C21 1_555 1_555
H30 C21 1_555 1_555
C22 N16 1_555 1_555
H31 C22 1_555 1_555
H32 C22 1_555 1_555
Ni1C N8 1_555 1_555
N8C Ni1 1_555 1_555
N11_2 Ni2 1_555 1_555
N14C Ni2 1_555 1_555
Ni2_2 N11 1_555 1_555
C4 C5 1_555 1_555
C7 N2 1_555 1_555
N12 Ni2 1_555 1_555
C17 N16 1_555 1_555
C21 C22 1_555 1_555

#END
