
#######################################################################
#
#                 Cambridge Crystallographic Data Centre
#                                CCDC 
#
#######################################################################
#
# If this CIF has been generated from an entry in the Cambridge 
# Structural Database, then it will include bibliographic, chemical, 
# crystal, experimental, refinement or atomic coordinate data resulting 
# from the CCDC's data processing and validation procedures.
#
#######################################################################

data_FIJROG
_symmetry_cell_setting           orthorhombic
_symmetry_space_group_name_H-M   'P n 21 a'
_symmetry_Int_Tables_number      33
_space_group_name_Hall           'P -2ac -2n'
loop_
_symmetry_equiv_pos_site_id
_symmetry_equiv_pos_as_xyz
1 x,y,z
2 1/2-x,1/2+y,1/2+z
3 -x,1/2+y,-z
4 1/2+x,y,1/2-z
_cell_length_a                   14.98(2)
_cell_length_b                   11.761(17)
_cell_length_c                   8.014(12)
_cell_angle_alpha                90
_cell_angle_beta                 90
_cell_angle_gamma                90
_cell_volume                     1411.9
loop_
_atom_site_label
_atom_site_type_symbol
_atom_site_fract_x
_atom_site_fract_y
_atom_site_fract_z
Ni1 Ni 0.87922(4) 0.75827(13) 0.79752(9)
N1 N 0.9913(5) 0.7375(8) 0.9489(9)
C1 C 1.0609(5) 0.7661(11) 0.9811(8)
C2 C 1.2070(6) 0.7935(6) 0.9347(9)
N2 N 1.1387(5) 0.8035(8) 1.0304(9)
N3 N 1.2709(5) 0.7881(5) 0.8547(9)
N4 N 0.8328(5) 0.5983(6) 0.8694(8)
H1 H 0.7924 0.5733 0.7948
H2 H 0.8785 0.5487 0.8712
C3 C 0.7920(8) 0.6038(8) 1.0339(11)
H3 H 0.7545 0.5377 1.0519
H4 H 0.8379 0.6047 1.1192
C4 C 0.7381(7) 0.7079(8) 1.0440(13)
H5 H 0.7097 0.7117 1.1526
H6 H 0.6915 0.7051 0.9601
N5 N 0.7921(5) 0.8106(6) 1.0186(10)
C5 C 0.8423(7) 0.8388(9) 1.1766(9)
H7 H 0.8014 0.8394 1.2704
H8 H 0.8873 0.7813 1.1974
C6 C 0.8864(7) 0.9541(9) 1.1604(14)
H9 H 0.9201 0.9703 1.2611
H10 H 0.9279 0.9528 1.0675
O1 O 0.8217(4) 1.0425(5) 1.1341(9)
C7 C 0.7743(6) 1.0184(7) 0.9880(11)
H11 H 0.8153 1.0192 0.8943
H12 H 0.7305 1.0779 0.9697
C8 C 0.7275(7) 0.9060(7) 0.9925(12)
H13 H 0.6839 0.9061 1.0821
H14 H 0.6958 0.8944 0.8882
N6 N 0.9460(5) 0.6778(7) 0.5975(10)
C9 C 0.9720(6) 0.6315(8) 0.4808(11)
N7 N 0.9940(11) 0.5923(11) 0.3433(12)
C10 C 1.0329(6) 0.4948(7) 0.3153(9)
N8 N 1.0689(5) 0.4171(6) 0.2755(10)
Ni1C Ni 1.37922(4) 0.75827(13) 0.70248(9)
Ni1B Ni 1.12078(4) 0.25827(13) 0.20248(9)
N3C N 0.7709(5) 0.7881(5) 0.6453(9)
N8B N 0.9311(5) 0.9171(6) 0.7245(10)
loop_
_geom_bond_atom_site_label_1
_geom_bond_atom_site_label_2
_geom_bond_site_symmetry_1
_geom_bond_site_symmetry_2
Ni1 N1 1_555 1_555
N1 C1 1_555 1_555
C1 N2 1_555 1_555
C2 N2 1_555 1_555
N3 C2 1_555 1_555
N4 Ni1 1_555 1_555
H1 N4 1_555 1_555
H2 N4 1_555 1_555
C3 N4 1_555 1_555
H3 C3 1_555 1_555
H4 C3 1_555 1_555
C4 C3 1_555 1_555
H5 C4 1_555 1_555
H6 C4 1_555 1_555
N5 Ni1 1_555 1_555
C5 N5 1_555 1_555
H7 C5 1_555 1_555
H8 C5 1_555 1_555
C6 C5 1_555 1_555
H9 C6 1_555 1_555
H10 C6 1_555 1_555
O1 C6 1_555 1_555
C7 O1 1_555 1_555
H11 C7 1_555 1_555
H12 C7 1_555 1_555
C8 N5 1_555 1_555
H13 C8 1_555 1_555
H14 C8 1_555 1_555
N6 Ni1 1_555 1_555
C9 N6 1_555 1_555
N7 C9 1_555 1_555
C10 N7 1_555 1_555
N8 C10 1_555 1_555
Ni1C N3 1_555 1_555
Ni1B N8 1_555 1_555
N3C Ni1 1_555 1_555
N8B Ni1 1_555 1_555
C4 N5 1_555 1_555
C7 C8 1_555 1_555

#END
