
#######################################################################
#
#                 Cambridge Crystallographic Data Centre
#                                CCDC 
#
#######################################################################
#
# If this CIF has been generated from an entry in the Cambridge 
# Structural Database, then it will include bibliographic, chemical, 
# crystal, experimental, refinement or atomic coordinate data resulting 
# from the CCDC's data processing and validation procedures.
#
#######################################################################

data_FIJRIA
_symmetry_cell_setting           monoclinic
_symmetry_space_group_name_H-M   'P 21/c'
_symmetry_Int_Tables_number      14
_space_group_name_Hall           '-P 2ybc'
loop_
_symmetry_equiv_pos_site_id
_symmetry_equiv_pos_as_xyz
1 x,y,z
2 -x,1/2+y,1/2-z
3 -x,-y,-z
4 x,1/2-y,1/2+z
_cell_length_a                   9.2495(18)
_cell_length_b                   6.3378(13)
_cell_length_c                   16.111(3)
_cell_angle_alpha                90
_cell_angle_beta                 98.08(3)
_cell_angle_gamma                90
_cell_volume                     935.075
loop_
_atom_site_label
_atom_site_type_symbol
_atom_site_fract_x
_atom_site_fract_y
_atom_site_fract_z
V1 V 0.35119(6) 0.09073(10) 0.63887(4)
P1 P 0.40239(9) 0.58170(15) 0.68703(6)
O1 O 0.3979(3) 0.3938(4) 0.62800(15)
O2 O 0.2789(3) 0.5525(5) 0.74464(16)
H1 H 0.3147 0.5693 0.7951
O3 O 0.3680(3) 0.7769(4) 0.63407(15)
O4 O 0.5495(2) 0.5986(4) 0.74333(14)
O5 O 0.1843(3) 0.1082(4) 0.65362(16)
C1 C 0.4235(4) 0.0033(6) 0.4735(2)
O6 O 0.3198(3) 0.0661(4) 0.50953(15)
O7 O 0.4179(3) -0.0527(4) 0.39881(15)
V1_2 V 0.35119(6) -0.90927(10) 0.63887(4)
V1_3 V 0.35119(6) 1.09073(10) 0.63887(4)
V1A V 0.64881(6) 0.59073(10) 0.86113(4)
V1B V 0.64881(6) -0.09073(10) 0.36113(4)
V1A_2 V 0.64881(6) -0.40927(10) 0.86113(4)
P1_2 P 0.40239(9) -0.41830(15) 0.68703(6)
O1_2 O 0.3979(3) -0.6062(4) 0.62800(15)
O2_2 O 0.2789(3) -0.4475(5) 0.74464(16)
H1_2 H 0.3147 -0.4307 0.7951
O3_2 O 0.3680(3) -0.2231(4) 0.63407(15)
O3_3 O 0.3680(3) -1.2231(4) 0.63407(15)
O4_2 O 0.5495(2) -0.4014(4) 0.74333(14)
O4A O 0.4505(2) 0.0986(4) 0.75667(14)
O4A_2 O 0.4505(2) -0.9014(4) 0.75667(14)
O5_2 O 0.1843(3) -0.8918(4) 0.65362(16)
C1B C 0.5765(4) -0.0033(6) 0.5265(2)
O6B O 0.6802(3) -0.0661(4) 0.49047(15)
O6_2 O 0.3198(3) -0.9339(4) 0.50953(15)
O7B O 0.5821(3) 0.0527(4) 0.60119(15)
O7B_2 O 0.5821(3) -0.9473(4) 0.60119(15)
N1 N 0.2060(4) 0.3618(6) 0.3439(2)
H2 H 0.268(5) 0.326(9) 0.304(3)
C2 C 0.0785(5) 0.2661(8) 0.3457(3)
H3 H 0.0448 0.1626 0.3049
C3 C -0.0035(4) 0.3183(8) 0.4072(3)
H4 H -0.0943 0.2497 0.4092
C4 C 0.0444(4) 0.4694(6) 0.4662(2)
C5 C 0.1792(4) 0.5620(7) 0.4628(3)
H5 H 0.2164 0.6648 0.5032
C6 C 0.2587(5) 0.5035(7) 0.4005(3)
H6 H 0.3517 0.5650 0.3981
N1B N -0.2060(4) 0.6382(6) 0.6561(2)
H2B H -0.268(5) 0.674(9) 0.696(3)
C2B C -0.0785(5) 0.7339(8) 0.6543(3)
H3B H -0.0448 0.8374 0.6951
C3B C 0.0035(4) 0.6817(8) 0.5928(3)
H4B H 0.0943 0.7503 0.5908
C4B C -0.0444(4) 0.5306(6) 0.5338(2)
C5B C -0.1792(4) 0.4380(7) 0.5372(3)
H5B H -0.2164 0.3352 0.4968
C6B C -0.2587(5) 0.4965(7) 0.5995(3)
H6B H -0.3517 0.4350 0.6019
loop_
_geom_bond_atom_site_label_1
_geom_bond_atom_site_label_2
_geom_bond_site_symmetry_1
_geom_bond_site_symmetry_2
V1 O1 1_555 1_555
P1 O1 1_555 1_555
O2 P1 1_555 1_555
H1 O2 1_555 1_555
O3 P1 1_555 1_555
O4 P1 1_555 1_555
O5 V1 1_555 1_555
C1 O6 1_555 1_555
O6 V1 1_555 1_555
O7 C1 1_555 1_555
N1 H2 1_555 1_555
C2 N1 1_555 1_555
H3 C2 1_555 1_555
C3 C2 1_555 1_555
H4 C3 1_555 1_555
C4 C3 1_555 1_555
C5 C4 1_555 1_555
H5 C5 1_555 1_555
C6 N1 1_555 1_555
H6 C6 1_555 1_555
V1_2 O1_2 1_555 1_555
V1_3 O3 1_555 1_555
V1A O4 1_555 1_555
V1B O7 1_555 1_555
V1A_2 O4_2 1_555 1_555
P1_2 O1_2 1_555 1_555
O2_2 P1_2 1_555 1_555
H1_2 O2_2 1_555 1_555
O3_2 V1 1_555 1_555
O3_3 V1_2 1_555 1_555
O4_2 P1_2 1_555 1_555
O4A V1 1_555 1_555
O4A_2 V1_2 1_555 1_555
O5_2 V1_2 1_555 1_555
C1B C1 1_555 1_555
O6B V1B 1_555 1_555
O6_2 V1_2 1_555 1_555
O7B V1 1_555 1_555
O7B_2 V1_2 1_555 1_555
N1B H2B 1_555 1_555
C2B N1B 1_555 1_555
H3B C2B 1_555 1_555
C3B C2B 1_555 1_555
H4B C3B 1_555 1_555
C4B C4 1_555 1_555
C5B C4B 1_555 1_555
H5B C5B 1_555 1_555
C6B N1B 1_555 1_555
H6B C6B 1_555 1_555
C5 C6 1_555 1_555
P1_2 O3_2 1_555 1_555
C1B O6B 1_555 1_555
C1B O7B 1_555 1_555
C3B C4B 1_555 1_555
C5B C6B 1_555 1_555

#END
