
#######################################################################
#
#                 Cambridge Crystallographic Data Centre
#                                CCDC 
#
#######################################################################
#
# If this CIF has been generated from an entry in the Cambridge 
# Structural Database, then it will include bibliographic, chemical, 
# crystal, experimental, refinement or atomic coordinate data resulting 
# from the CCDC's data processing and validation procedures.
#
#######################################################################

data_FIJREW
_symmetry_cell_setting           monoclinic
_symmetry_space_group_name_H-M   'P 21/c'
_symmetry_Int_Tables_number      14
_space_group_name_Hall           '-P 2ybc'
loop_
_symmetry_equiv_pos_site_id
_symmetry_equiv_pos_as_xyz
1 x,y,z
2 -x,1/2+y,1/2-z
3 -x,-y,-z
4 x,1/2-y,1/2+z
_cell_length_a                   14.147(6)
_cell_length_b                   18.094(7)
_cell_length_c                   20.457(9)
_cell_angle_alpha                90
_cell_angle_beta                 102.567(5)
_cell_angle_gamma                90
_cell_volume                     5111.04
loop_
_atom_site_label
_atom_site_type_symbol
_atom_site_fract_x
_atom_site_fract_y
_atom_site_fract_z
Ag1 Ag 0.23590(2) 0.60605(2) 0.46343(2)
F1 F 0.2453(3) 0.8495(2) 0.3086(2)
F2 F 0.0947(2) 0.8174(2) 0.2707(1)
F3 F 0.3080(2) 0.7192(2) 0.2756(1)
F4 F 0.1605(2) 0.6750(2) 0.2488(1)
F5 F 0.2280(2) 0.8359(1) 0.1783(1)
F6 F 0.1101(2) 0.7576(2) 0.1467(1)
F7 F 0.3592(2) 0.7378(2) 0.1610(1)
F8 F 0.2534(2) 0.6489(1) 0.1451(1)
O1 O 0.2239(3) 0.6996(2) 0.3840(2)
O2 O 0.1448(3) 0.8004(2) 0.4053(2)
O3 O 0.2799(3) 0.7957(2) 0.0447(2)
O4 O 0.1743(3) 0.7018(2) 0.0267(2)
C1 C 0.4067(3) 0.5830(2) 0.4767(3)
C2 C 0.3800(3) 0.5301(3) 0.4263(3)
C3 C 0.3764(4) 0.4556(3) 0.4428(3)
C4 C 0.3957(3) 0.4334(3) 0.5090(3)
C5 C 0.3994(4) 0.4871(3) 0.5567(3)
C6 C 0.4049(3) 0.5611(3) 0.5416(3)
C7 C 0.4579(4) 0.6534(3) 0.4647(4)
C8 C 0.4311(4) 0.3564(3) 0.5281(5)
C9 C 0.0851(3) 0.5443(3) 0.4427(3)
C10 C 0.1388(3) 0.4909(3) 0.4839(3)
C11 C 0.1395(4) 0.4870(3) 0.5515(3)
C12 C 0.0849(3) 0.5361(3) 0.5803(3)
C13 C 0.0489(4) 0.5979(3) 0.5426(3)
C14 C 0.0479(4) 0.6027(3) 0.4754(3)
C15 C 0.0445(5) 0.5292(4) 0.3694(3)
C16 C 0.0525(5) 0.5159(5) 0.6436(3)
C33 C 0.1840(4) 0.7586(3) 0.3701(2)
C34 C 0.1828(3) 0.7913(3) 0.2999(2)
C35 C 0.2148(3) 0.7370(2) 0.2516(2)
C36 C 0.2035(3) 0.7639(2) 0.1779(2)
C37 C 0.2648(3) 0.7227(2) 0.1366(2)
C38 C 0.2385(3) 0.7430(2) 0.0618(2)
H1 H 0.378(3) 0.550(3) 0.384(2)
H2 H 0.366(4) 0.427(3) 0.414(3)
H3 H 0.408(4) 0.473(3) 0.602(3)
H4 H 0.413(3) 0.597(3) 0.573(2)
H5 H 0.432(3) 0.673(3) 0.427(2)
H6 H 0.451(4) 0.688(3) 0.495(3)
H7 H 0.395(4) 0.326(3) 0.501(3)
H8 H 0.416(4) 0.337(3) 0.565(3)
H9 H 0.169(4) 0.453(3) 0.460(2)
H10 H 0.171(4) 0.450(3) 0.574(3)
H11 H 0.019(4) 0.628(3) 0.558(3)
H12 H 0.014(4) 0.640(3) 0.444(3)
H13 H 0.088(3) 0.504(3) 0.350(2)
H14 H 0.036(4) 0.571(3) 0.349(3)
H15 H 0.108(4) 0.494(3) 0.673(3)
H16 H 0.039(4) 0.559(3) 0.662(3)
H33 H 0.159(4) 0.705(3) -0.031(3)
Ag1C Ag 0.23590(2) 0.89395(2) 0.96343(2)
Ag1C_2 Ag 0.23590(2) 0.89395(2) -0.03657(2)
Ag1B Ag 0.76410(2) 0.39395(2) 0.53657(2)
Ag1B_2 Ag -0.23590(2) 0.39395(2) 0.53657(2)
F1C F 0.2453(3) 0.6505(2) 0.8086(2)
F2C F 0.0947(2) 0.6826(2) 0.7707(1)
F3C F 0.3080(2) 0.7808(2) 0.7756(1)
F4C F 0.1605(2) 0.8250(2) 0.7488(1)
F5C F 0.2280(2) 0.6641(1) 0.6783(1)
F6C F 0.1101(2) 0.7424(2) 0.6467(1)
F7C F 0.3592(2) 0.7622(2) 0.6610(1)
F8C F 0.2534(2) 0.8511(1) 0.6451(1)
O1C O 0.2239(3) 0.8004(2) 0.8840(2)
O2C O 0.1448(3) 0.6996(2) 0.9053(2)
O3C O 0.2799(3) 0.7043(2) 0.5447(2)
O3_2 O 0.2799(3) 0.7957(2) 1.0447(2)
O4C O 0.1743(3) 0.7982(2) 0.5267(2)
C1B C 0.5933(3) 0.4170(2) 0.5233(3)
C1C C 0.4067(3) 0.9170(2) 0.9767(3)
C2B C 0.6200(3) 0.4699(3) 0.5737(3)
C3B C 0.6236(4) 0.5444(3) 0.5572(3)
C4B C 0.6043(3) 0.5666(3) 0.4910(3)
C5B C 0.6006(4) 0.5129(3) 0.4433(3)
C6B C 0.5951(3) 0.4389(3) 0.4584(3)
C7B C 0.5421(4) 0.3466(3) 0.5353(4)
C8B C 0.5689(4) 0.6436(3) 0.4719(5)
C9B C -0.0851(3) 0.4557(3) 0.5573(3)
C9C C 0.0851(3) 0.9557(3) 0.9427(3)
C10B C -0.1388(3) 0.5091(3) 0.5161(3)
C11B C -0.1395(4) 0.5130(3) 0.4485(3)
C12B C -0.0849(3) 0.4639(3) 0.4197(3)
C13B C -0.0489(4) 0.4021(3) 0.4574(3)
C14B C -0.0479(4) 0.3973(3) 0.5246(3)
C15B C -0.0445(5) 0.4708(4) 0.6306(3)
C16B C -0.0525(5) 0.4841(5) 0.3564(3)
C33C C 0.1840(4) 0.7414(3) 0.8701(2)
C34C C 0.1828(3) 0.7087(3) 0.7999(2)
C35C C 0.2148(3) 0.7630(2) 0.7516(2)
C36C C 0.2035(3) 0.7361(2) 0.6779(2)
C37C C 0.2648(3) 0.7773(2) 0.6366(2)
C38C C 0.2385(3) 0.7570(2) 0.5618(2)
H1B H 0.622(3) 0.450(3) 0.616(2)
H2B H 0.634(4) 0.573(3) 0.586(3)
H3B H 0.592(4) 0.527(3) 0.398(3)
H4B H 0.587(3) 0.403(3) 0.427(2)
H5B H 0.568(3) 0.327(3) 0.573(2)
H6B H 0.549(4) 0.312(3) 0.505(3)
H7B H 0.605(4) 0.674(3) 0.499(3)
H8B H 0.584(4) 0.663(3) 0.435(3)
H9B H -0.169(4) 0.547(3) 0.540(2)
H10B H -0.171(4) 0.550(3) 0.426(3)
H11B H -0.019(4) 0.372(3) 0.442(3)
H12B H -0.014(4) 0.360(3) 0.556(3)
H13B H -0.088(3) 0.496(3) 0.650(2)
H14B H -0.036(4) 0.429(3) 0.651(3)
H15B H -0.108(4) 0.506(3) 0.327(3)
H16B H -0.039(4) 0.441(3) 0.338(3)
H33C H 0.159(4) 0.795(3) 0.469(3)
Ag2 Ag 0.24692(2) 0.38691(2) 0.00075(2)
F9 F 0.3334(3) 0.2385(2) 0.2066(2)
F10 F 0.2406(3) 0.1444(2) 0.1727(2)
F11 F 0.1598(4) 0.3215(2) 0.1981(2)
F12 F 0.0862(4) 0.2177(3) 0.1831(2)
F13 F 0.2877(3) 0.2975(3) 0.3169(2)
F14 F 0.2297(4) 0.1684(2) 0.2992(2)
F15 F 0.1152(3) 0.3334(3) 0.3149(2)
F16 F 0.0677(3) 0.2084(2) 0.3042(2)
O5 O 0.2743(3) 0.3039(2) 0.0907(2)
O6 O 0.1670(3) 0.2111(2) 0.0590(2)
O7 O 0.2638(3) 0.2202(2) 0.4287(2)
O8 O 0.1351(3) 0.2875(2) 0.4375(2)
C17 C 0.4156(3) 0.4151(2) 0.0107(2)
C18 C 0.4120(3) 0.4641(3) 0.0627(3)
C19 C 0.3990(3) 0.5393(3) 0.0492(3)
C20 C 0.3893(3) 0.5661(2) -0.0150(3)
C21 C 0.3711(3) 0.5163(3) -0.0671(3)
C22 C 0.3835(3) 0.4408(3) -0.0545(3)
C23 C 0.4738(4) 0.3436(3) 0.0239(4)
C24 C 0.4165(4) 0.6446(3) -0.0274(4)
C25 C 0.1044(4) 0.4576(3) -0.0422(3)
C26 C 0.1417(4) 0.5114(3) 0.0052(3)
C27 C 0.1191(4) 0.5118(3) 0.0670(3)
C28 C 0.0591(3) 0.4580(3) 0.0857(3)
C29 C 0.0407(4) 0.3962(3) 0.0452(3)
C30 C 0.0620(4) 0.3952(3) -0.0176(3)
C31 C 0.0856(5) 0.4758(4) -0.1158(3)
C32 C 0.0047(5) 0.4729(4) 0.1394(3)
C39 C 0.2278(4) 0.2485(3) 0.1000(2)
C40 C 0.2453(5) 0.2193(3) 0.1726(3)
C41 C 0.1742(8) 0.2500(4) 0.2095(3)
C42 C 0.2198(7) 0.2386(5) 0.2887(4)
C44 C 0.1475(7) 0.2580(7) 0.3288(5)
C46 C 0.1935(4) 0.2583(3) 0.4069(2)
H17 H 0.429(3) 0.447(3) 0.105(2)
H18 H 0.401(3) 0.568(3) 0.084(2)
H19 H 0.363(4) 0.533(3) -0.111(3)
H20 H 0.380(3) 0.415(3) -0.088(2)
H21 H 0.466(4) 0.321(3) 0.059(3)
H22 H 0.454(4) 0.312(3) -0.021(3)
H23 H 0.393(4) 0.676(3) 0.002(3)
H24 H 0.384(4) 0.661(3) -0.073(3)
H25 H 0.173(3) 0.550(3) -0.009(2)
H26 H 0.135(4) 0.546(3) 0.095(3)
H27 H -0.004(6) 0.361(5) 0.059(4)
H28 H 0.034(4) 0.361(3) -0.052(3)
H29 H 0.142(4) 0.488(3) -0.127(2)
H30 H 0.069(4) 0.430(3) -0.142(3)
H31 H 0.040(4) 0.485(3) 0.178(3)
H32 H -0.013(4) 0.429(3) 0.157(3)
Ag2C Ag 0.24692(2) 0.11309(2) -0.49925(2)
Ag2C_2 Ag 0.24692(2) 0.11309(2) 0.50075(2)
Ag2B Ag 0.75308(2) 0.61309(2) -0.00075(2)
Ag2B_2 Ag -0.24692(2) 0.61309(2) -0.00075(2)
F9C F 0.3334(3) 0.2615(2) -0.2934(2)
F10C F 0.2406(3) 0.3556(2) -0.3273(2)
F11C F 0.1598(4) 0.1785(2) -0.3019(2)
F12C F 0.0862(4) 0.2823(3) -0.3169(2)
F13C F 0.2877(3) 0.2025(3) -0.1831(2)
F14C F 0.2297(4) 0.3316(2) -0.2008(2)
F15C F 0.1152(3) 0.1666(3) -0.1851(2)
F16C F 0.0677(3) 0.2916(2) -0.1958(2)
O5C O 0.2743(3) 0.1961(2) -0.4093(2)
O6C O 0.1670(3) 0.2889(2) -0.4410(2)
O7C O 0.2638(3) 0.2798(2) -0.0713(2)
O7_2 O 0.2638(3) 0.2202(2) -0.5713(2)
O8C O 0.1351(3) 0.2125(2) -0.0625(2)
C17B C 0.5844(3) 0.5849(2) -0.0107(2)
C17C C 0.4156(3) 0.0849(2) -0.4893(2)
C18B C 0.5880(3) 0.5359(3) -0.0627(3)
C19B C 0.6010(3) 0.4607(3) -0.0492(3)
C20B C 0.6107(3) 0.4339(2) 0.0150(3)
C21B C 0.6289(3) 0.4837(3) 0.0671(3)
C22B C 0.6165(3) 0.5592(3) 0.0545(3)
C23B C 0.5262(4) 0.6564(3) -0.0239(4)
C24B C 0.5835(4) 0.3554(3) 0.0274(4)
C25B C -0.1044(4) 0.5424(3) 0.0422(3)
C25C C 0.1044(4) 0.0424(3) -0.5422(3)
C26B C -0.1417(4) 0.4886(3) -0.0052(3)
C27B C -0.1191(4) 0.4882(3) -0.0670(3)
C28B C -0.0591(3) 0.5420(3) -0.0857(3)
C29B C -0.0407(4) 0.6038(3) -0.0452(3)
C30B C -0.0620(4) 0.6048(3) 0.0176(3)
C31B C -0.0856(5) 0.5242(4) 0.1158(3)
C32B C -0.0047(5) 0.5271(4) -0.1394(3)
C39C C 0.2278(4) 0.2515(3) -0.4000(2)
C40C C 0.2453(5) 0.2807(3) -0.3274(3)
C41C C 0.1742(8) 0.2500(4) -0.2905(3)
C42C C 0.2198(7) 0.2614(5) -0.2113(4)
C44C C 0.1475(7) 0.2420(7) -0.1712(5)
C46C C 0.1935(4) 0.2417(3) -0.0931(2)
H17B H 0.571(3) 0.553(3) -0.105(2)
H18B H 0.599(3) 0.432(3) -0.084(2)
H19B H 0.637(4) 0.467(3) 0.111(3)
H20B H 0.620(3) 0.585(3) 0.088(2)
H21B H 0.534(4) 0.679(3) -0.059(3)
H22B H 0.546(4) 0.688(3) 0.021(3)
H23B H 0.607(4) 0.324(3) -0.002(3)
H24B H 0.616(4) 0.339(3) 0.073(3)
H25B H -0.173(3) 0.450(3) 0.009(2)
H26B H -0.135(4) 0.454(3) -0.095(3)
H27B H 0.004(6) 0.639(5) -0.059(4)
H28B H -0.034(4) 0.639(3) 0.052(3)
H29B H -0.142(4) 0.512(3) 0.127(2)
H30B H -0.069(4) 0.570(3) 0.142(3)
H31B H -0.040(4) 0.515(3) -0.178(3)
H32B H 0.013(4) 0.571(3) -0.157(3)
C47 C 0.4014(4) 0.4860(3) 0.2457(3)
C48 C 0.4528(5) 0.5500(3) 0.2433(3)
C49 C 0.5518(5) 0.5486(4) 0.2481(3)
C50 C 0.6003(5) 0.4811(5) 0.2548(3)
C51 C 0.5495(6) 0.4179(4) 0.2588(4)
C52 C 0.4517(5) 0.4196(3) 0.2537(3)
C53 C 0.2933(5) 0.4869(4) 0.2392(4)
H35 H 0.425(4) 0.594(3) 0.239(3)
H36 H 0.583(4) 0.591(3) 0.247(3)
H37 H 0.675(4) 0.479(3) 0.259(3)
H38 H 0.582(4) 0.368(3) 0.259(3)
H39 H 0.420(4) 0.372(3) 0.254(3)
H40 H 0.273(4) 0.539(3) 0.248(3)
H41 H 0.282(4) 0.447(3) 0.274(3)
H42 H 0.263(4) 0.464(3) 0.197(3)
C43? C 0.1529(8) 0.2268(6) 0.2829(5)
C45? C 0.1926(9) 0.2919(7) 0.3334(6)
H34? H 0.157(4) 0.219(3) 0.003(3)
loop_
_geom_bond_atom_site_label_1
_geom_bond_atom_site_label_2
_geom_bond_site_symmetry_1
_geom_bond_site_symmetry_2
Ag1 O1 1_555 1_555
Ag2 O5 1_555 1_555
F1 C34 1_555 1_555
F2 C34 1_555 1_555
F3 C35 1_555 1_555
F4 C35 1_555 1_555
F5 C36 1_555 1_555
F6 C36 1_555 1_555
F7 C37 1_555 1_555
F8 C37 1_555 1_555
F9 C40 1_555 1_555
F10 C40 1_555 1_555
F11 C41 1_555 1_555
F12 C41 1_555 1_555
F13 C42 1_555 1_555
F14 C42 1_555 1_555
F15 C44 1_555 1_555
F16 C44 1_555 1_555
O1 C33 1_555 1_555
O2 C33 1_555 1_555
O3 C38 1_555 1_555
O4 C38 1_555 1_555
O5 C39 1_555 1_555
O6 C39 1_555 1_555
O7 C46 1_555 1_555
O8 C46 1_555 1_555
C1 Ag1 1_555 1_555
C2 C1 1_555 1_555
C3 C2 1_555 1_555
C4 C3 1_555 1_555
C5 C4 1_555 1_555
C6 C1 1_555 1_555
C7 C1 1_555 1_555
C8 C4 1_555 1_555
C9 Ag1 1_555 1_555
C10 C9 1_555 1_555
C11 C10 1_555 1_555
C12 C11 1_555 1_555
C13 C12 1_555 1_555
C14 C9 1_555 1_555
C15 C9 1_555 1_555
C16 C12 1_555 1_555
C17 Ag2 1_555 1_555
C18 C17 1_555 1_555
C19 C18 1_555 1_555
C20 C19 1_555 1_555
C21 C20 1_555 1_555
C22 C17 1_555 1_555
C23 C17 1_555 1_555
C24 C20 1_555 1_555
C25 Ag2 1_555 1_555
C26 C25 1_555 1_555
C27 C26 1_555 1_555
C28 C27 1_555 1_555
C29 C28 1_555 1_555
C30 C25 1_555 1_555
C31 C25 1_555 1_555
C32 C28 1_555 1_555
C33 C34 1_555 1_555
C34 C35 1_555 1_555
C35 C36 1_555 1_555
C36 C37 1_555 1_555
C37 C38 1_555 1_555
C39 C40 1_555 1_555
C40 C41 1_555 1_555
C41 C42 1_555 1_555
C42 C44 1_555 1_555
C44 C46 1_555 1_555
C47 C48 1_555 1_555
C48 C49 1_555 1_555
C49 C50 1_555 1_555
C50 C51 1_555 1_555
C51 C52 1_555 1_555
C52 C47 1_555 1_555
C53 C47 1_555 1_555
H1 C2 1_555 1_555
H2 C3 1_555 1_555
H3 C5 1_555 1_555
H4 C6 1_555 1_555
H5 C7 1_555 1_555
H6 C7 1_555 1_555
H7 C8 1_555 1_555
H8 C8 1_555 1_555
H9 C10 1_555 1_555
H10 C11 1_555 1_555
H11 C13 1_555 1_555
H12 C14 1_555 1_555
H13 C15 1_555 1_555
H14 C15 1_555 1_555
H15 C16 1_555 1_555
H16 C16 1_555 1_555
H17 C18 1_555 1_555
H18 C19 1_555 1_555
H19 C21 1_555 1_555
H20 C22 1_555 1_555
H21 C23 1_555 1_555
H22 C23 1_555 1_555
H23 C24 1_555 1_555
H24 C24 1_555 1_555
H25 C26 1_555 1_555
H26 C27 1_555 1_555
H27 C29 1_555 1_555
H28 C30 1_555 1_555
H29 C31 1_555 1_555
H30 C31 1_555 1_555
H31 C32 1_555 1_555
H32 C32 1_555 1_555
H33 O4 1_555 1_555
H35 C48 1_555 1_555
H36 C49 1_555 1_555
H37 C50 1_555 1_555
H38 C51 1_555 1_555
H39 C52 1_555 1_555
H40 C53 1_555 1_555
H41 C53 1_555 1_555
H42 C53 1_555 1_555
Ag1C O1C 1_555 1_555
Ag1C_2 O3 1_555 1_555
Ag1B C1B 1_555 1_555
Ag1B_2 C9B 1_555 1_555
Ag2C O5C 1_555 1_555
Ag2C_2 O7 1_555 1_555
Ag2B C17B 1_555 1_555
Ag2B_2 C25B 1_555 1_555
F1C C34C 1_555 1_555
F2C C34C 1_555 1_555
F3C C35C 1_555 1_555
F4C C35C 1_555 1_555
F5C C36C 1_555 1_555
F6C C36C 1_555 1_555
F7C C37C 1_555 1_555
F8C C37C 1_555 1_555
F9C C40C 1_555 1_555
F10C C40C 1_555 1_555
F11C C41C 1_555 1_555
F12C C41C 1_555 1_555
F13C C42C 1_555 1_555
F14C C42C 1_555 1_555
F15C C44C 1_555 1_555
F16C C44C 1_555 1_555
O1C C33C 1_555 1_555
O2C C33C 1_555 1_555
O3C Ag1 1_555 1_555
O3_2 Ag1C 1_555 1_555
O4C C38C 1_555 1_555
O5C C39C 1_555 1_555
O6C C39C 1_555 1_555
O7C Ag2 1_555 1_555
O7_2 Ag2C 1_555 1_555
O8C C46C 1_555 1_555
C1B C2B 1_555 1_555
C1C Ag1C 1_555 1_555
C2B C3B 1_555 1_555
C3B C4B 1_555 1_555
C4B C5B 1_555 1_555
C5B C6B 1_555 1_555
C6B C1B 1_555 1_555
C7B C8 1_555 1_555
C8B C7 1_555 1_555
C9B C10B 1_555 1_555
C9C Ag1C 1_555 1_555
C10B C11B 1_555 1_555
C11B C12B 1_555 1_555
C12B C13B 1_555 1_555
C13B C14B 1_555 1_555
C14B C9B 1_555 1_555
C15B C16 1_555 1_555
C16B C15 1_555 1_555
C17B C18B 1_555 1_555
C17C Ag2C 1_555 1_555
C18B C19B 1_555 1_555
C19B C20B 1_555 1_555
C20B C21B 1_555 1_555
C21B C22B 1_555 1_555
C22B C17B 1_555 1_555
C23B C24 1_555 1_555
C24B C23 1_555 1_555
C25B C26B 1_555 1_555
C25C Ag2C 1_555 1_555
C26B C27B 1_555 1_555
C27B C28B 1_555 1_555
C28B C29B 1_555 1_555
C29B C30B 1_555 1_555
C30B C25B 1_555 1_555
C31B C32 1_555 1_555
C32B C31 1_555 1_555
C33C C34C 1_555 1_555
C34C C35C 1_555 1_555
C35C C36C 1_555 1_555
C36C C37C 1_555 1_555
C37C C38C 1_555 1_555
C38C O3C 1_555 1_555
C39C C40C 1_555 1_555
C40C C41C 1_555 1_555
C41C C42C 1_555 1_555
C42C C44C 1_555 1_555
C44C C46C 1_555 1_555
C46C O7C 1_555 1_555
H1B C2B 1_555 1_555
H2B C3B 1_555 1_555
H3B C5B 1_555 1_555
H4B C6B 1_555 1_555
H5B C7B 1_555 1_555
H6B C7B 1_555 1_555
H7B C8B 1_555 1_555
H8B C8B 1_555 1_555
H9B C10B 1_555 1_555
H10B C11B 1_555 1_555
H11B C13B 1_555 1_555
H12B C14B 1_555 1_555
H13B C15B 1_555 1_555
H14B C15B 1_555 1_555
H15B C16B 1_555 1_555
H16B C16B 1_555 1_555
H17B C18B 1_555 1_555
H18B C19B 1_555 1_555
H19B C21B 1_555 1_555
H20B C22B 1_555 1_555
H21B C23B 1_555 1_555
H22B C23B 1_555 1_555
H23B C24B 1_555 1_555
H24B C24B 1_555 1_555
H25B C26B 1_555 1_555
H26B C27B 1_555 1_555
H27B C29B 1_555 1_555
H28B C30B 1_555 1_555
H29B C31B 1_555 1_555
H30B C31B 1_555 1_555
H31B C32B 1_555 1_555
H32B C32B 1_555 1_555
H33C O4C 1_555 1_555
C5 C6 1_555 1_555
C13 C14 1_555 1_555
C21 C22 1_555 1_555
C29 C30 1_555 1_555
C1B C7B 1_555 1_555
C4B C8B 1_555 1_555
C9B C15B 1_555 1_555
C12B C16B 1_555 1_555
C17B C23B 1_555 1_555
C20B C24B 1_555 1_555
C25B C31B 1_555 1_555
C28B C32B 1_555 1_555

#END
