
#######################################################################
#
#                 Cambridge Crystallographic Data Centre
#                                CCDC 
#
#######################################################################
#
# If this CIF has been generated from an entry in the Cambridge 
# Structural Database, then it will include bibliographic, chemical, 
# crystal, experimental, refinement or atomic coordinate data resulting 
# from the CCDC's data processing and validation procedures.
#
#######################################################################

data_FIJRAS
_symmetry_cell_setting           orthorhombic
_symmetry_space_group_name_H-M   'F d d 2'
_symmetry_Int_Tables_number      43
_space_group_name_Hall           'F 2 -2d'
loop_
_symmetry_equiv_pos_site_id
_symmetry_equiv_pos_as_xyz
1 x,y,z
2 -x,-y,z
3 1/4-x,1/4+y,1/4+z
4 1/4+x,1/4-y,1/4+z
5 x,1/2+y,1/2+z
6 -x,1/2-y,1/2+z
7 1/4-x,3/4+y,3/4+z
8 1/4+x,3/4-y,3/4+z
9 1/2+x,y,1/2+z
10 1/2-x,-y,1/2+z
11 3/4-x,1/4+y,3/4+z
12 3/4+x,1/4-y,3/4+z
13 1/2+x,1/2+y,z
14 1/2-x,1/2-y,z
15 3/4-x,3/4+y,1/4+z
16 3/4+x,3/4-y,1/4+z
_cell_length_a                   34.878(3)
_cell_length_b                   9.4075(8)
_cell_length_c                   20.312(2)
_cell_angle_alpha                90
_cell_angle_beta                 90
_cell_angle_gamma                90
_cell_volume                     6664.67
loop_
_atom_site_label
_atom_site_type_symbol
_atom_site_fract_x
_atom_site_fract_y
_atom_site_fract_z
Ag1 Ag 0.39273(2) -0.18953(7) 0.23413(3)
Ag2 Ag 0.36458(3) 0.09094(8) 0.12572(4)
F1 F 0.2857(2) 0.1735(8) 0.3313(4)
F2 F 0.2914(2) 0.1710(8) 0.2295(4)
F3 F 0.2988(2) 0.4272(6) 0.2818(6)
F4 F 0.3516(5) 0.3342(8) 0.2194(5)
F5 F 0.3879(2) 0.3063(6) 0.3295(5)
F6 F 0.3344(3) 0.3502(10) 0.3847(3)
O1 O 0.3547(2) 0.0173(6) 0.2379(3)
O2 O 0.3463(2) 0.0176(6) 0.3463(3)
O3 O 0.3696(3) 0.5944(8) 0.2592(4)
O4 O 0.3767(2) 0.5990(6) 0.3679(3)
C1 C 0.4629(2) -0.1663(7) 0.2567(4)
C2 C 0.4579(2) -0.0960(10) 0.3169(4)
C3 C 0.4557(3) 0.052(1) 0.3180(5)
C4 C 0.4581(2) 0.1330(8) 0.2616(5)
C5 C 0.4548(2) 0.0621(9) 0.2035(4)
C6 C 0.4575(2) -0.0858(9) 0.2002(4)
C7 C 0.4845(2) -0.3049(9) 0.2534(5)
C8 C 0.4710(3) 0.2876(8) 0.2639(6)
C9 C 0.3411(2) 0.0606(7) 0.2904(4)
C10 C 0.3120(2) 0.1839(8) 0.2854(4)
C11 C 0.3269(3) 0.330(1) 0.289(2)
C12 C 0.3589(3) 0.3835(10) 0.3175(7)
C13 C 0.3700(2) 0.5433(8) 0.3139(4)
H1 H 0.4560 -0.1487 0.3567
H2 H 0.4524 0.0987 0.3591
H3 H 0.4505 0.1145 0.1642
H4 H 0.4557 -0.1319 0.1587
H5 H 0.4749 -0.3663 0.2867
H6 H 0.4803 -0.3464 0.2114
H7 H 0.4581 0.3387 0.2302
H8 H 0.4644 0.3262 0.3056
Ag1_2 Ag 0.39273(2) -1.18953(7) 0.23413(3)
Ag1_3 Ag 0.39273(2) 0.81047(7) 0.23413(3)
Ag1N Ag 0.35727(2) 0.56047(7) 0.48413(3)
Ag1A Ag 0.60727(2) 0.18953(7) 0.23413(3)
Ag1N_2 Ag 0.35727(2) -0.43953(7) 0.48413(3)
Ag2_2 Ag 0.36458(3) -0.90906(8) 0.12572(4)
Ag2N Ag 0.38542(3) -0.15906(8) 0.37572(4)
Ag2N_2 Ag 0.38542(3) 0.84094(8) 0.37572(4)
Ag2N_3 Ag 0.38542(3) -1.15906(8) 0.37572(4)
F1_2 F 0.2857(2) -0.8265(8) 0.3313(4)
F2_2 F 0.2914(2) -0.8290(8) 0.2295(4)
F3_2 F 0.2988(2) -0.5728(6) 0.2818(6)
F4_2 F 0.3516(5) -0.6658(8) 0.2194(5)
F5_2 F 0.3879(2) -0.6937(6) 0.3295(5)
F6_2 F 0.3344(3) -0.6498(10) 0.3847(3)
O1_2 O 0.3547(2) -0.9827(6) 0.2379(3)
O2_2 O 0.3463(2) -0.9824(6) 0.3463(3)
O2J O 0.4037(2) 0.2676(6) 0.0963(3)
O2J_2 O 0.4037(2) -0.7324(6) 0.0963(3)
O3_2 O 0.3696(3) -0.4056(8) 0.2592(4)
O3_3 O 0.3696(3) -1.4056(8) 0.2592(4)
O4_2 O 0.3767(2) -0.4010(6) 0.3679(3)
O4J O 0.3733(2) -0.1510(6) 0.1179(3)
O4J_2 O 0.3733(2) -1.1510(6) 0.1179(3)
C1A C 0.5371(2) 0.1663(7) 0.2567(4)
C1_2 C 0.4629(2) -1.1663(7) 0.2567(4)
C2A C 0.5421(2) 0.0960(10) 0.3169(4)
C3A C 0.5443(3) -0.052(1) 0.3180(5)
C4A C 0.5419(2) -0.1330(8) 0.2616(5)
C5A C 0.5452(2) -0.0621(9) 0.2035(4)
C6A C 0.5425(2) 0.0858(9) 0.2002(4)
C7A C 0.5155(2) 0.3049(9) 0.2534(5)
C8A C 0.5290(3) -0.2876(8) 0.2639(6)
C9_2 C 0.3411(2) -0.9394(7) 0.2904(4)
C10_2 C 0.3120(2) -0.8161(8) 0.2854(4)
C11_2 C 0.3269(3) -0.670(1) 0.289(2)
C12_2 C 0.3589(3) -0.6165(10) 0.3175(7)
C13_2 C 0.3700(2) -0.4567(8) 0.3139(4)
H1A H 0.5440 0.1487 0.3567
H2A H 0.5476 -0.0987 0.3591
H3A H 0.5495 -0.1145 0.1642
H4A H 0.5443 0.1319 0.1587
H5A H 0.5251 0.3663 0.2867
H6A H 0.5197 0.3464 0.2114
H7A H 0.5419 -0.3387 0.2302
H8A H 0.5356 -0.3262 0.3056
O5 O 0.2500 0.7500 0.1515(7)
C14 C 0.2817(4) 0.767(3) 0.1909(8)
C15 C 0.2700(4) 0.779(1) 0.2589(7)
H9 H 0.2980 0.6864 0.1860
H10 H 0.2951 0.8500 0.1782
H11 H 0.2862 0.7239 0.2867
H12 H 0.2704 0.8751 0.2728
C14M C 0.2183(4) 0.733(3) 0.1909(8)
C15M C 0.2300(4) 0.721(1) 0.2589(7)
H9M H 0.2020 0.8136 0.1860
H10M H 0.2049 0.6500 0.1782
H11M H 0.2138 0.7761 0.2867
H12M H 0.2296 0.6249 0.2728
loop_
_geom_bond_atom_site_label_1
_geom_bond_atom_site_label_2
_geom_bond_site_symmetry_1
_geom_bond_site_symmetry_2
Ag1 O1 1_555 1_555
Ag2 O1 1_555 1_555
F1 C10 1_555 1_555
F2 C10 1_555 1_555
F3 C11 1_555 1_555
F4 C11 1_555 1_555
F5 C12 1_555 1_555
F6 C12 1_555 1_555
O1 C9 1_555 1_555
O2 C9 1_555 1_555
O3 C13 1_555 1_555
O4 C13 1_555 1_555
O5 C14 1_555 1_555
C1 Ag1 1_555 1_555
C2 C1 1_555 1_555
C3 C2 1_555 1_555
C4 C3 1_555 1_555
C5 C4 1_555 1_555
C6 C1 1_555 1_555
C7 C1 1_555 1_555
C8 C4 1_555 1_555
C9 C10 1_555 1_555
C10 C11 1_555 1_555
C11 C12 1_555 1_555
C12 C13 1_555 1_555
C14 C15 1_555 1_555
C15 H11 1_555 1_555
H1 C2 1_555 1_555
H2 C3 1_555 1_555
H3 C5 1_555 1_555
H4 C6 1_555 1_555
H5 C7 1_555 1_555
H6 C7 1_555 1_555
H7 C8 1_555 1_555
H8 C8 1_555 1_555
H9 C14 1_555 1_555
H10 C14 1_555 1_555
H12 C15 1_555 1_555
Ag1_2 O1_2 1_555 1_555
Ag1_3 O3 1_555 1_555
Ag1N O4 1_555 1_555
Ag1A C1A 1_555 1_555
Ag1N_2 O4_2 1_555 1_555
Ag2_2 O1_2 1_555 1_555
Ag2N O2 1_555 1_555
Ag2N_2 O4 1_555 1_555
Ag2N_3 O2_2 1_555 1_555
F1_2 C10_2 1_555 1_555
F2_2 C10_2 1_555 1_555
F3_2 C11_2 1_555 1_555
F4_2 C11_2 1_555 1_555
F5_2 C12_2 1_555 1_555
F6_2 C12_2 1_555 1_555
O1_2 C9_2 1_555 1_555
O2_2 C9_2 1_555 1_555
O2J Ag2 1_555 1_555
O2J_2 Ag2_2 1_555 1_555
O3_2 Ag1 1_555 1_555
O3_3 Ag1_2 1_555 1_555
O4_2 Ag2N 1_555 1_555
O4J Ag1 1_555 1_555
O4J_2 Ag1_2 1_555 1_555
C1A C2A 1_555 1_555
C1_2 Ag1_2 1_555 1_555
C2A C3A 1_555 1_555
C3A C4A 1_555 1_555
C4A C5A 1_555 1_555
C5A C6A 1_555 1_555
C6A C1A 1_555 1_555
C7A C8 1_555 1_555
C8A C7 1_555 1_555
C9_2 C10_2 1_555 1_555
C10_2 C11_2 1_555 1_555
C11_2 C12_2 1_555 1_555
C12_2 C13_2 1_555 1_555
C13_2 O3_2 1_555 1_555
C14M O5 1_555 1_555
C15M C15 1_555 1_555
H1A C2A 1_555 1_555
H2A C3A 1_555 1_555
H3A C5A 1_555 1_555
H4A C6A 1_555 1_555
H5A C7A 1_555 1_555
H6A C7A 1_555 1_555
H7A C8A 1_555 1_555
H8A C8A 1_555 1_555
H9M C14M 1_555 1_555
H10M C14M 1_555 1_555
H11M C15M 1_555 1_555
H12M C15M 1_555 1_555
Ag2 O4J 1_555 1_555
C5 C6 1_555 1_555
Ag2_2 O4J_2 1_555 1_555
O4_2 C13_2 1_555 1_555
C1A C7A 1_555 1_555
C4A C8A 1_555 1_555
C14M C15M 1_555 1_555

#END
