
#######################################################################
#
#                 Cambridge Crystallographic Data Centre
#                                CCDC 
#
#######################################################################
#
# If this CIF has been generated from an entry in the Cambridge 
# Structural Database, then it will include bibliographic, chemical, 
# crystal, experimental, refinement or atomic coordinate data resulting 
# from the CCDC's data processing and validation procedures.
#
#######################################################################

data_FIJSOI
_symmetry_cell_setting           monoclinic
_symmetry_space_group_name_H-M   'P 21/c'
_symmetry_Int_Tables_number      14
_space_group_name_Hall           '-P 2ybc'
loop_
_symmetry_equiv_pos_site_id
_symmetry_equiv_pos_as_xyz
1 x,y,z
2 -x,1/2+y,1/2-z
3 -x,-y,-z
4 x,1/2-y,1/2+z
_cell_length_a                   18.2284(15)
_cell_length_b                   6.6962(4)
_cell_length_c                   14.9753(10)
_cell_angle_alpha                90
_cell_angle_beta                 114.218(5)
_cell_angle_gamma                90
_cell_volume                     1667.03
loop_
_atom_site_label
_atom_site_type_symbol
_atom_site_fract_x
_atom_site_fract_y
_atom_site_fract_z
C1 C 0.2705(2) -0.0357(5) 0.5896(3)
H1 H 0.2604 -0.1616 0.6174
H2 H 0.3117 0.0413 0.6433
C2 C 0.3008(2) -0.0823(5) 0.5116(3)
H3 H 0.3551 -0.1430 0.5414
H4 H 0.2641 -0.1766 0.4628
C3 C 0.3656(2) 0.1577(5) 0.4485(3)
H5 H 0.4091 0.0659 0.4670
C4 C 0.3731(2) 0.3428(5) 0.4038(3)
C5 C 0.31184(19) 0.4929(5) 0.3734(3)
C6 C 0.3282(2) 0.6729(5) 0.3344(3)
H6 H 0.2884 0.7746 0.3136
C7 C 0.3992(2) 0.7051(5) 0.3257(3)
H7 H 0.4087 0.8272 0.2999
C8 C 0.4574(2) 0.5548(6) 0.3554(3)
C9 C 0.44587(19) 0.3777(5) 0.3937(3)
H8 H 0.4867 0.2785 0.4135
C10 C 0.18635(19) 0.2167(5) 0.6210(3)
H9 H 0.1944 0.1373 0.6801
H10 H 0.1310 0.2712 0.5948
C11 C 0.2458(2) 0.3892(5) 0.6501(3)
H11 H 0.2376 0.4701 0.5923
H12 H 0.3008 0.3365 0.6779
H13 H 0.2374 0.4721 0.6991
C12 C 0.12265(19) -0.0501(6) 0.5030(3)
H14 H 0.1333 -0.1512 0.4615
H15 H 0.0765 0.0316 0.4596
C13 C 0.0981(2) -0.1588(6) 0.5760(3)
H16 H 0.0544 -0.2523 0.5409
H17 H 0.0798 -0.0613 0.6113
H18 H 0.1443 -0.2325 0.6228
C14 C 0.0799(2) 0.0716(5) 0.2350(3)
C15 C -0.0469(2) -0.0050(5) 0.1258(3)
N1 N 0.19463(16) 0.0826(4) 0.5461(2)
N2 N 0.30357(17) 0.1080(4) 0.4651(2)
N3 N 0.53396(17) 0.5887(5) 0.3477(3)
N4 N 0.14051(18) 0.0559(5) 0.3034(2)
N5 N 0.01600(18) 0.1104(5) 0.1556(3)
N6 N -0.10617(17) -0.0947(4) 0.0891(2)
O1 O 0.24295(13) 0.4741(4) 0.37871(19)
O2 O 0.58391(13) 0.4527(4) 0.3707(2)
O3 O 0.54529(15) 0.7529(4) 0.3185(2)
Cu1 Cu 0.20520(3) 0.25680(7) 0.43565(3)
N6A N 0.10617(17) 0.4053(4) 0.4109(2)
Cu1A Cu -0.20520(3) -0.24320(7) 0.06435(3)
loop_
_geom_bond_atom_site_label_1
_geom_bond_atom_site_label_2
_geom_bond_site_symmetry_1
_geom_bond_site_symmetry_2
C1 H1 1_555 1_555
H2 C1 1_555 1_555
C2 C1 1_555 1_555
H3 C2 1_555 1_555
H4 C2 1_555 1_555
C3 H5 1_555 1_555
C4 C3 1_555 1_555
C5 C4 1_555 1_555
C6 C5 1_555 1_555
H6 C6 1_555 1_555
C7 C6 1_555 1_555
H7 C7 1_555 1_555
C8 C7 1_555 1_555
C9 C4 1_555 1_555
H8 C9 1_555 1_555
C10 H9 1_555 1_555
H10 C10 1_555 1_555
C11 C10 1_555 1_555
H11 C11 1_555 1_555
H12 C11 1_555 1_555
H13 C11 1_555 1_555
C12 H14 1_555 1_555
H15 C12 1_555 1_555
C13 C12 1_555 1_555
H16 C13 1_555 1_555
H17 C13 1_555 1_555
H18 C13 1_555 1_555
C14 N4 1_555 1_555
C15 N5 1_555 1_555
N1 C1 1_555 1_555
N2 C2 1_555 1_555
N3 C8 1_555 1_555
N4 Cu1 1_555 1_555
N5 C14 1_555 1_555
N6 C15 1_555 1_555
O1 C5 1_555 1_555
O2 N3 1_555 1_555
O3 N3 1_555 1_555
Cu1 N1 1_555 1_555
N6A Cu1 1_555 1_555
Cu1A N6 1_555 1_555
C3 N2 1_555 1_555
C8 C9 1_555 1_555
C10 N1 1_555 1_555
C12 N1 1_555 1_555
N2 Cu1 1_555 1_555
O1 Cu1 1_555 1_555

#END
