
#######################################################################
#
#                 Cambridge Crystallographic Data Centre
#                                CCDC 
#
#######################################################################
#
# If this CIF has been generated from an entry in the Cambridge 
# Structural Database, then it will include bibliographic, chemical, 
# crystal, experimental, refinement or atomic coordinate data resulting 
# from the CCDC's data processing and validation procedures.
#
#######################################################################

data_FIJSEY
_symmetry_cell_setting           triclinic
_symmetry_space_group_name_H-M   'P -1'
_symmetry_Int_Tables_number      2
_space_group_name_Hall           '-P 1'
loop_
_symmetry_equiv_pos_site_id
_symmetry_equiv_pos_as_xyz
1 x,y,z
2 -x,-y,-z
_cell_length_a                   8.4156(6)
_cell_length_b                   10.2270(7)
_cell_length_c                   12.2368(8)
_cell_angle_alpha                108.562(2)
_cell_angle_beta                 95.281(2)
_cell_angle_gamma                106.662(2)
_cell_volume                     936.783
loop_
_atom_site_label
_atom_site_type_symbol
_atom_site_fract_x
_atom_site_fract_y
_atom_site_fract_z
Ce1 Ce 0.22684(3) 0.06518(3) 0.13242(2)
N1 N 0.1431(6) -0.1100(5) 0.2481(4)
O1 O -0.0176(5) 0.0696(5) 0.2300(4)
O2 O -0.1845(6) 0.0151(6) 0.3511(4)
O3 O 0.3968(5) -0.0975(5) 0.1357(4)
O4 O 0.4516(6) -0.2762(5) 0.1834(4)
O5 O 0.2221(6) 0.3219(5) 0.1471(4)
O6 O 0.0135(5) 0.1453(4) 0.0113(4)
O7 O 0.3810(6) 0.5119(5) -0.1264(5)
O8 O 0.2961(5) 0.3059(5) -0.0913(4)
H1 H 0.3867 0.2989 -0.1119
O9 O 0.2996(6) -0.0016(6) -0.0673(4)
H2 H 0.3856 0.0715 -0.0556
H3 H 0.2010 -0.0455 -0.1079
O10 O 0.5223(6) 0.2182(5) 0.1448(5)
H4 H 0.5717 0.1570 0.1228
H5 H 0.5512 0.3008 0.1389
O11 O 0.3636(8) 0.1981(6) 0.3453(5)
H6 H 0.3399 0.2755 0.3691
H7 H 0.3342 0.1505 0.3890
C1 C -0.0696(8) 0.0003(7) 0.2971(5)
C2 C 0.0174(8) -0.1067(7) 0.3064(5)
C3 C -0.0307(8) -0.1982(7) 0.3702(6)
H8 H -0.1193 -0.1937 0.4126
C4 C 0.0547(9) -0.2955(8) 0.3697(6)
H9 H 0.0235 -0.3605 0.4109
C5 C 0.1846(9) -0.2982(8) 0.3096(6)
H10 H 0.2445 -0.3642 0.3088
C6 C 0.2262(7) -0.2020(7) 0.2498(5)
C7 C 0.3703(8) -0.1931(7) 0.1849(5)
C8 C 0.1015(7) 0.2799(7) 0.0635(5)
C9 C 0.0507(7) 0.3925(6) 0.0274(5)
C10 C 0.0860(8) 0.5724(6) -0.0650(5)
H11 H 0.1465 0.6226 -0.1098
C11 C 0.1392(7) 0.4656(6) -0.0398(5)
C12 C 0.2849(8) 0.4310(7) -0.0895(5)
O5A O -0.2221(6) 0.6781(5) -0.1471(4)
O6A O -0.0135(5) 0.8547(4) -0.0113(4)
O7A O -0.3810(6) 0.4881(5) 0.1264(5)
O8A O -0.2961(5) 0.6941(5) 0.0913(4)
H1A H -0.3867 0.7011 0.1119
C8A C -0.1015(7) 0.7201(7) -0.0635(5)
C9A C -0.0507(7) 0.6075(6) -0.0274(5)
C10A C -0.0860(8) 0.4276(6) 0.0650(5)
H11A H -0.1465 0.3774 0.1098
C11A C -0.1392(7) 0.5344(6) 0.0398(5)
C12A C -0.2849(8) 0.5690(7) 0.0895(5)
Ce1A Ce -0.22684(3) -0.06518(3) -0.13242(2)
N1A N -0.1431(6) 0.1100(5) -0.2481(4)
O1A O 0.0176(5) -0.0696(5) -0.2300(4)
O2A O 0.1845(6) -0.0151(6) -0.3511(4)
O3A O -0.3968(5) 0.0975(5) -0.1357(4)
O4A O -0.4516(6) 0.2762(5) -0.1834(4)
O9A O -0.2996(6) 0.0016(6) 0.0673(4)
H2A H -0.3856 -0.0715 0.0556
H3A H -0.2010 0.0455 0.1079
O10A O -0.5223(6) -0.2182(5) -0.1448(5)
H4A H -0.5717 -0.1570 -0.1228
H5A H -0.5512 -0.3008 -0.1389
O11A O -0.3636(8) -0.1981(6) -0.3453(5)
H6A H -0.3399 -0.2755 -0.3691
H7A H -0.3342 -0.1505 -0.3890
C1A C 0.0696(8) -0.0003(7) -0.2971(5)
C2A C -0.0174(8) 0.1067(7) -0.3064(5)
C3A C 0.0307(8) 0.1982(7) -0.3702(6)
H8A H 0.1193 0.1937 -0.4126
C4A C -0.0547(9) 0.2955(8) -0.3697(6)
H9A H -0.0235 0.3605 -0.4109
C5A C -0.1846(9) 0.2982(8) -0.3096(6)
H10A H -0.2445 0.3642 -0.3088
C6A C -0.2262(7) 0.2020(7) -0.2498(5)
C7A C -0.3703(8) 0.1931(7) -0.1849(5)
Ce1_2 Ce 0.22684(3) 1.06518(3) 0.13242(2)
Ce1A_2 Ce -0.22684(3) 0.93482(3) -0.13242(2)
O5A_2 O -0.2221(6) -0.3219(5) -0.1471(4)
O6A_2 O -0.0135(5) -0.1453(4) -0.0113(4)
O12 O 0.4020(6) 0.0970(7) 0.5237(5)
H12 H 0.3204 0.0692 0.5551
H13 H 0.4710 0.0546 0.5001
O13 O 0.4716(8) 0.4119(7) -0.3600(5)
H14 H 0.4519 0.3217 -0.3934
H15 H 0.4463 0.4406 -0.2937
loop_
_geom_bond_atom_site_label_1
_geom_bond_atom_site_label_2
_geom_bond_site_symmetry_1
_geom_bond_site_symmetry_2
Ce1 N1 1_555 1_555
N1 C2 1_555 1_555
O1 Ce1 1_555 1_555
O2 C1 1_555 1_555
O3 Ce1 1_555 1_555
O4 C7 1_555 1_555
O5 Ce1 1_555 1_555
O6 Ce1 1_555 1_555
O7 C12 1_555 1_555
O8 H1 1_555 1_555
O9 Ce1 1_555 1_555
H2 O9 1_555 1_555
H3 O9 1_555 1_555
O10 Ce1 1_555 1_555
H4 O10 1_555 1_555
H5 O10 1_555 1_555
O11 Ce1 1_555 1_555
H6 O11 1_555 1_555
H7 O11 1_555 1_555
C1 O1 1_555 1_555
C2 C1 1_555 1_555
C3 C2 1_555 1_555
H8 C3 1_555 1_555
C4 C3 1_555 1_555
H9 C4 1_555 1_555
C5 C4 1_555 1_555
H10 C5 1_555 1_555
C6 N1 1_555 1_555
C7 O3 1_555 1_555
C8 O5 1_555 1_555
C9 C8 1_555 1_555
C10 H11 1_555 1_555
C11 C9 1_555 1_555
C12 O8 1_555 1_555
O12 H12 1_555 1_555
H13 O12 1_555 1_555
O13 H14 1_555 1_555
H15 O13 1_555 1_555
O5A C8A 1_555 1_555
O6A C8A 1_555 1_555
O7A C12A 1_555 1_555
O8A H1A 1_555 1_555
C8A C9A 1_555 1_555
C9A C10 1_555 1_555
C10A C9 1_555 1_555
H11A C10A 1_555 1_555
C11A C9A 1_555 1_555
C12A O8A 1_555 1_555
Ce1A O6 1_555 1_555
N1A Ce1A 1_555 1_555
O1A Ce1A 1_555 1_555
O2A C1A 1_555 1_555
O3A Ce1A 1_555 1_555
O4A C7A 1_555 1_555
O9A Ce1A 1_555 1_555
H2A O9A 1_555 1_555
H3A O9A 1_555 1_555
O10A Ce1A 1_555 1_555
H4A O10A 1_555 1_555
H5A O10A 1_555 1_555
O11A Ce1A 1_555 1_555
H6A O11A 1_555 1_555
H7A O11A 1_555 1_555
C1A O1A 1_555 1_555
C2A N1A 1_555 1_555
C3A C2A 1_555 1_555
H8A C3A 1_555 1_555
C4A C3A 1_555 1_555
H9A C4A 1_555 1_555
C5A C4A 1_555 1_555
H10A C5A 1_555 1_555
C6A N1A 1_555 1_555
C7A O3A 1_555 1_555
Ce1_2 O6A 1_555 1_555
Ce1A_2 O5A 1_555 1_555
O5A_2 Ce1A 1_555 1_555
O6A_2 Ce1 1_555 1_555
O6 C8 1_555 1_555
C5 C6 1_555 1_555
C6 C7 1_555 1_555
C10 C11 1_555 1_555
C11 C12 1_555 1_555
O6A Ce1A_2 1_555 1_555
C10A C11A 1_555 1_555
C11A C12A 1_555 1_555
Ce1A O6A_2 1_555 1_555
C1A C2A 1_555 1_555
C5A C6A 1_555 1_555
C6A C7A 1_555 1_555

#END
