
#######################################################################
#
#                 Cambridge Crystallographic Data Centre
#                                CCDC 
#
#######################################################################
#
# If this CIF has been generated from an entry in the Cambridge 
# Structural Database, then it will include bibliographic, chemical, 
# crystal, experimental, refinement or atomic coordinate data resulting 
# from the CCDC's data processing and validation procedures.
#
#######################################################################

data_FIJSAU
_symmetry_cell_setting           monoclinic
_symmetry_space_group_name_H-M   'P 21/c'
_symmetry_Int_Tables_number      14
_space_group_name_Hall           '-P 2ybc'
loop_
_symmetry_equiv_pos_site_id
_symmetry_equiv_pos_as_xyz
1 x,y,z
2 -x,1/2+y,1/2-z
3 -x,-y,-z
4 x,1/2-y,1/2+z
_cell_length_a                   9.358(3)
_cell_length_b                   13.079(4)
_cell_length_c                   7.568(2)
_cell_angle_alpha                90
_cell_angle_beta                 107.344(5)
_cell_angle_gamma                90
_cell_volume                     884.157
loop_
_atom_site_label
_atom_site_type_symbol
_atom_site_fract_x
_atom_site_fract_y
_atom_site_fract_z
K1 K 0.35553(8) 0.18326(5) 0.05718(10)
N1 N 0.6183(2) 0.19411(18) 0.3863(4)
N2 N 0.6895(2) 0.28730(17) 0.4269(4)
H1 H 0.6476 0.3446 0.3858
N3 N 0.7057(2) -0.03893(17) 0.6182(3)
N4 N 0.6429(2) -0.03246(18) 0.2896(3)
N5 N 0.9883(3) 0.13153(19) 0.6726(4)
O1 O 0.7260(2) -0.13335(14) 0.6258(3)
O2 O 0.7107(3) 0.00942(16) 0.7639(3)
O3 O 0.5954(2) -0.12249(15) 0.2719(3)
O4 O 0.6476(2) 0.01723(16) 0.1504(3)
O5 O 0.9993(2) 0.03835(17) 0.6909(4)
O6 O 1.0938(2) 0.19028(17) 0.7459(4)
C1 C 0.7189(3) 0.1251(2) 0.4727(4)
C2 C 0.8549(3) 0.1748(2) 0.5671(4)
C3 C 0.8310(3) 0.2795(2) 0.5372(4)
C4 C 0.6850(3) 0.0166(2) 0.4589(4)
N6 N 0.9223(3) 0.35909(19) 0.5939(4)
H2 H 0.8914 0.4200 0.5597
H3 H 1.0121 0.3495 0.6647
K1_2 K 1.35553(8) 0.18326(5) 1.05718(10)
K1A K 0.64447(8) -0.31674(5) 0.44282(10)
K1B K 0.64447(8) -0.18326(5) -0.05718(10)
K1B_2 K 0.64447(8) -0.18326(5) 0.94282(10)
O1A O 0.2740(2) 0.36665(14) -0.1258(3)
O1B O 0.2740(2) 0.13335(14) 0.3742(3)
O2B O 0.2893(3) -0.00942(16) 0.2361(3)
O3A O 0.4046(2) 0.37751(15) 0.2281(3)
O3B O 0.4046(2) 0.12249(15) -0.2719(3)
O4B O 0.3524(2) -0.01723(16) -0.1504(3)
O6_2 O 0.0938(2) 0.19028(17) -0.2541(4)
loop_
_geom_bond_atom_site_label_1
_geom_bond_atom_site_label_2
_geom_bond_site_symmetry_1
_geom_bond_site_symmetry_2
K1 N1 1_555 1_555
N1 N2 1_555 1_555
N2 H1 1_555 1_555
N3 O1 1_555 1_555
N4 O3 1_555 1_555
N5 O5 1_555 1_555
O1 K1A 1_555 1_555
O2 N3 1_555 1_555
O3 K1A 1_555 1_555
O4 N4 1_555 1_555
O6 N5 1_555 1_555
C1 N1 1_555 1_555
C2 N5 1_555 1_555
C3 N2 1_555 1_555
C4 N3 1_555 1_555
N6 C3 1_555 1_555
H2 N6 1_555 1_555
H3 N6 1_555 1_555
K1_2 O6 1_555 1_555
K1B O3 1_555 1_555
K1B_2 O1 1_555 1_555
O1A K1 1_555 1_555
O1B K1 1_555 1_555
O2B K1 1_555 1_555
O3A K1 1_555 1_555
O3B K1 1_555 1_555
O4B K1 1_555 1_555
O6_2 K1 1_555 1_555
N4 C4 1_555 1_555
O2 K1B_2 1_555 1_555
O4 K1B 1_555 1_555
C1 C2 1_555 1_555
C1 C4 1_555 1_555
C2 C3 1_555 1_555

#END
