
#######################################################################
#
#                 Cambridge Crystallographic Data Centre
#                                CCDC 
#
#######################################################################
#
# If this CIF has been generated from an entry in the Cambridge 
# Structural Database, then it will include bibliographic, chemical, 
# crystal, experimental, refinement or atomic coordinate data resulting 
# from the CCDC's data processing and validation procedures.
#
#######################################################################

data_FIJTEZ
_symmetry_cell_setting           monoclinic
_symmetry_space_group_name_H-M   'P 21/c'
_symmetry_Int_Tables_number      14
_space_group_name_Hall           '-P 2ybc'
loop_
_symmetry_equiv_pos_site_id
_symmetry_equiv_pos_as_xyz
1 x,y,z
2 -x,1/2+y,1/2-z
3 -x,-y,-z
4 x,1/2-y,1/2+z
_cell_length_a                   11.0127(13)
_cell_length_b                   12.4725(15)
_cell_length_c                   20.454(2)
_cell_angle_alpha                90
_cell_angle_beta                 91.237(2)
_cell_angle_gamma                90
_cell_volume                     2808.82
loop_
_atom_site_label
_atom_site_type_symbol
_atom_site_fract_x
_atom_site_fract_y
_atom_site_fract_z
Mn1 Mn 1.0000 0.5000 0.0000
S1 S 1.01920(15) 0.82776(11) -0.11503(7)
N1 N 1.0661(3) 0.6279(2) -0.06162(16)
C1 C 1.0481(4) 0.7103(3) -0.08427(18)
N2 N 0.8060(3) 0.5679(2) -0.01738(14)
C2 C 0.7163(3) 0.5091(3) -0.04348(18)
H1 H 0.7288 0.4356 -0.0473
N3 N 0.5227(2) 0.3791(2) -0.09527(13)
C3 C 0.7849(4) 0.6734(3) -0.01155(17)
H2 H 0.8456 0.7165 0.0067
N4 N 0.4326(2) 0.3263(2) -0.12963(13)
H3 H 0.3803 0.3625 -0.1523
C4 C 0.6777(4) 0.7205(3) -0.03135(17)
H4 H 0.6660 0.7939 -0.0261
N5 N 0.2963(2) 0.49922(19) -0.32926(13)
H5 H 0.3221 0.4898 -0.3682
C5 C 0.5883(3) 0.6581(3) -0.05881(17)
H6 H 0.5157 0.6890 -0.0731
N6 N 0.2159(2) 0.5814(2) -0.31638(13)
C6 C 0.6057(3) 0.5498(3) -0.06528(15)
N7 N 0.0178(3) 0.88641(19) -0.41153(14)
C7 C 0.5141(3) 0.4809(3) -0.09563(16)
H7 H 0.4467 0.5124 -0.1160
O1 O 0.4845(2) 0.16170(18) -0.09111(13)
C8 C 0.4245(3) 0.2185(3) -0.12837(17)
C9 C 0.3293(3) 0.1770(2) -0.17494(17)
C10 C 0.2370(4) 0.1131(3) -0.1510(2)
H8 H 0.2362 0.0956 -0.1068
C11 C 0.1466(4) 0.0758(3) -0.1926(2)
H9 H 0.0851 0.0326 -0.1767
C12 C 0.1475(4) 0.1024(3) -0.2577(2)
H10 H 0.0859 0.0779 -0.2857
C13 C 0.2383(3) 0.1644(2) -0.28148(18)
H11 H 0.2377 0.1817 -0.3257
C14 C 0.3317(3) 0.2024(2) -0.24111(16)
C15 C 0.4382(3) 0.2561(2) -0.27059(15)
C16 C 0.5435(3) 0.1962(3) -0.27760(16)
H12 H 0.5466 0.1268 -0.2609
C17 C 0.6432(3) 0.2367(3) -0.30850(19)
H13 H 0.7129 0.1952 -0.3122
C18 C 0.6396(3) 0.3390(3) -0.33395(19)
H14 H 0.7063 0.3668 -0.3552
C19 C 0.5353(3) 0.3998(3) -0.32744(18)
H15 H 0.5325 0.4686 -0.3449
C20 C 0.4354(3) 0.3605(2) -0.29573(15)
C21 C 0.3337(3) 0.4341(2) -0.28032(18)
O2 O 0.29186(19) 0.43945(16) -0.22534(11)
C22 C 0.1974(3) 0.6463(3) -0.36335(18)
H16 H 0.2364 0.6356 -0.4027
C23 C 0.1156(3) 0.7375(2) -0.35655(18)
C24 C 0.0617(3) 0.7667(3) -0.29880(18)
H17 H 0.0782 0.7287 -0.2605
C25 C -0.0162(3) 0.8520(3) -0.29872(18)
H18 H -0.0556 0.8709 -0.2606
C26 C -0.0361(3) 0.9094(3) -0.35504(18)
H19 H -0.0895 0.9671 -0.3541
C27 C 0.0912(3) 0.8002(2) -0.41179(17)
H20 H 0.1276 0.7814 -0.4508
S1B S 0.98080(15) 0.17224(11) 0.11503(7)
N1B N 0.9339(3) 0.3721(2) 0.06162(16)
C1B C 0.9519(4) 0.2897(3) 0.08427(18)
N2B N 1.1940(3) 0.4321(2) 0.01738(14)
C2B C 1.2837(3) 0.4909(3) 0.04348(18)
H1B H 1.2712 0.5644 0.0473
N3B N 1.4773(2) 0.6209(2) 0.09527(13)
C3B C 1.2151(4) 0.3266(3) 0.01155(17)
H2B H 1.1544 0.2835 -0.0067
N4B N 1.5674(2) 0.6737(2) 0.12963(13)
H3B H 1.6197 0.6375 0.1523
C4B C 1.3223(4) 0.2795(3) 0.03135(17)
H4B H 1.3340 0.2061 0.0261
N5B N 1.7037(2) 0.50078(19) 0.32926(13)
H5B H 1.6779 0.5102 0.3682
C5B C 1.4117(3) 0.3419(3) 0.05881(17)
H6B H 1.4843 0.3110 0.0731
N6B N 1.7841(2) 0.4186(2) 0.31638(13)
C6B C 1.3943(3) 0.4502(3) 0.06528(15)
N7B N 1.9822(3) 0.11359(19) 0.41153(14)
C7B C 1.4859(3) 0.5191(3) 0.09563(16)
H7B H 1.5533 0.4876 0.1160
O1B O 1.5155(2) 0.83830(18) 0.09111(13)
C8B C 1.5755(3) 0.7815(3) 0.12837(17)
C9B C 1.6707(3) 0.8230(2) 0.17494(17)
C10B C 1.7630(4) 0.8869(3) 0.1510(2)
H8B H 1.7638 0.9044 0.1068
C11B C 1.8534(4) 0.9242(3) 0.1926(2)
H9B H 1.9149 0.9674 0.1767
C12B C 1.8525(4) 0.8976(3) 0.2577(2)
H10B H 1.9141 0.9221 0.2857
C13B C 1.7617(3) 0.8356(2) 0.28148(18)
H11B H 1.7623 0.8183 0.3257
C14B C 1.6683(3) 0.7976(2) 0.24111(16)
C15B C 1.5618(3) 0.7439(2) 0.27059(15)
C16B C 1.4565(3) 0.8038(3) 0.27760(16)
H12B H 1.4534 0.8732 0.2609
C17B C 1.3568(3) 0.7633(3) 0.30850(19)
H13B H 1.2871 0.8048 0.3122
C18B C 1.3604(3) 0.6610(3) 0.33395(19)
H14B H 1.2937 0.6332 0.3552
C19B C 1.4647(3) 0.6002(3) 0.32744(18)
H15B H 1.4675 0.5314 0.3449
C20B C 1.5646(3) 0.6395(2) 0.29573(15)
C21B C 1.6663(3) 0.5659(2) 0.28032(18)
O2B O 1.70814(19) 0.56055(16) 0.22534(11)
C22B C 1.8026(3) 0.3537(3) 0.36335(18)
H16B H 1.7636 0.3644 0.4027
C23B C 1.8844(3) 0.2625(2) 0.35655(18)
C24B C 1.9383(3) 0.2333(3) 0.29880(18)
H17B H 1.9218 0.2713 0.2605
C25B C 2.0162(3) 0.1480(3) 0.29872(18)
H18B H 2.0556 0.1291 0.2606
C26B C 2.0361(3) 0.0906(3) 0.35504(18)
H19B H 2.0895 0.0329 0.3541
C27B C 1.9088(3) 0.1998(2) 0.41179(17)
H20B H 1.8724 0.2186 0.4508
Mn1A Mn 0.0000 1.0000 -0.5000
Mn1A_2 Mn 2.0000 0.0000 0.5000
N7A N 0.9822(3) 0.38641(19) -0.08847(14)
N7C N 1.0178(3) 0.61359(19) 0.08847(14)
O3 O 1.3640(5) 1.0044(3) 0.0262(2)
H21 H 1.4075 1.0409 0.0006
H22 H 1.3759 0.9378 0.0203
O4 O 0.6677(6) 0.2777(5) -0.4966(3)
O5 O 1.1290(19) 0.9865(17) -0.0051(10)
O6? O 1.0899(17) 1.0466(16) -0.0050(9)
loop_
_geom_bond_atom_site_label_1
_geom_bond_atom_site_label_2
_geom_bond_site_symmetry_1
_geom_bond_site_symmetry_2
Mn1 N1 1_555 1_555
S1 C1 1_555 1_555
N1 C1 1_555 1_555
N2 Mn1 1_555 1_555
C2 N2 1_555 1_555
H1 C2 1_555 1_555
N3 N4 1_555 1_555
C3 N2 1_555 1_555
H2 C3 1_555 1_555
N4 H3 1_555 1_555
C4 C3 1_555 1_555
H4 C4 1_555 1_555
N5 H5 1_555 1_555
C5 C4 1_555 1_555
H6 C5 1_555 1_555
N6 N5 1_555 1_555
C6 C2 1_555 1_555
N7 C26 1_555 1_555
C7 N3 1_555 1_555
H7 C7 1_555 1_555
O1 C8 1_555 1_555
C8 N4 1_555 1_555
C9 C8 1_555 1_555
C10 C9 1_555 1_555
H8 C10 1_555 1_555
C11 C10 1_555 1_555
H9 C11 1_555 1_555
C12 C11 1_555 1_555
H10 C12 1_555 1_555
C13 C12 1_555 1_555
H11 C13 1_555 1_555
C14 C9 1_555 1_555
C15 C14 1_555 1_555
C16 C15 1_555 1_555
H12 C16 1_555 1_555
C17 C16 1_555 1_555
H13 C17 1_555 1_555
C18 C17 1_555 1_555
H14 C18 1_555 1_555
C19 C18 1_555 1_555
H15 C19 1_555 1_555
C20 C15 1_555 1_555
C21 N5 1_555 1_555
O2 C21 1_555 1_555
C22 N6 1_555 1_555
H16 C22 1_555 1_555
C23 C22 1_555 1_555
C24 C23 1_555 1_555
H17 C24 1_555 1_555
C25 C24 1_555 1_555
H18 C25 1_555 1_555
C26 C25 1_555 1_555
H19 C26 1_555 1_555
C27 N7 1_555 1_555
H20 C27 1_555 1_555
O3 H21 1_555 1_555
H22 O3 1_555 1_555
S1B C1B 1_555 1_555
N1B Mn1 1_555 1_555
C1B N1B 1_555 1_555
N2B Mn1 1_555 1_555
C2B N2B 1_555 1_555
H1B C2B 1_555 1_555
N3B N4B 1_555 1_555
C3B N2B 1_555 1_555
H2B C3B 1_555 1_555
N4B H3B 1_555 1_555
C4B C3B 1_555 1_555
H4B C4B 1_555 1_555
N5B H5B 1_555 1_555
C5B C4B 1_555 1_555
H6B C5B 1_555 1_555
N6B N5B 1_555 1_555
C6B C2B 1_555 1_555
N7B C26B 1_555 1_555
C7B N3B 1_555 1_555
H7B C7B 1_555 1_555
O1B C8B 1_555 1_555
C8B N4B 1_555 1_555
C9B C8B 1_555 1_555
C10B C9B 1_555 1_555
H8B C10B 1_555 1_555
C11B C10B 1_555 1_555
H9B C11B 1_555 1_555
C12B C11B 1_555 1_555
H10B C12B 1_555 1_555
C13B C12B 1_555 1_555
H11B C13B 1_555 1_555
C14B C9B 1_555 1_555
C15B C14B 1_555 1_555
C16B C15B 1_555 1_555
H12B C16B 1_555 1_555
C17B C16B 1_555 1_555
H13B C17B 1_555 1_555
C18B C17B 1_555 1_555
H14B C18B 1_555 1_555
C19B C18B 1_555 1_555
H15B C19B 1_555 1_555
C20B C15B 1_555 1_555
C21B N5B 1_555 1_555
O2B C21B 1_555 1_555
C22B N6B 1_555 1_555
H16B C22B 1_555 1_555
C23B C22B 1_555 1_555
C24B C23B 1_555 1_555
H17B C24B 1_555 1_555
C25B C24B 1_555 1_555
H18B C25B 1_555 1_555
C26B C25B 1_555 1_555
H19B C26B 1_555 1_555
C27B N7B 1_555 1_555
H20B C27B 1_555 1_555
Mn1A N7 1_555 1_555
Mn1A_2 N7B 1_555 1_555
N7A Mn1 1_555 1_555
N7C Mn1 1_555 1_555
C5 C6 1_555 1_555
C6 C7 1_555 1_555
C13 C14 1_555 1_555
C19 C20 1_555 1_555
C20 C21 1_555 1_555
C23 C27 1_555 1_555
C5B C6B 1_555 1_555
C6B C7B 1_555 1_555
C13B C14B 1_555 1_555
C19B C20B 1_555 1_555
C20B C21B 1_555 1_555
C23B C27B 1_555 1_555

#END
