
#######################################################################
#
#                 Cambridge Crystallographic Data Centre
#                                CCDC 
#
#######################################################################
#
# If this CIF has been generated from an entry in the Cambridge 
# Structural Database, then it will include bibliographic, chemical, 
# crystal, experimental, refinement or atomic coordinate data resulting 
# from the CCDC's data processing and validation procedures.
#
#######################################################################

data_FIJWOM
_symmetry_cell_setting           orthorhombic
_symmetry_space_group_name_H-M   'P 21 21 21'
_symmetry_Int_Tables_number      19
_space_group_name_Hall           'P 2ac 2ab'
loop_
_symmetry_equiv_pos_site_id
_symmetry_equiv_pos_as_xyz
1 x,y,z
2 1/2-x,-y,1/2+z
3 1/2+x,1/2-y,-z
4 -x,1/2+y,1/2-z
_cell_length_a                   8.2832(4)
_cell_length_b                   15.7072(10)
_cell_length_c                   16.3589(9)
_cell_angle_alpha                90
_cell_angle_beta                 90
_cell_angle_gamma                90
_cell_volume                     2128.39
loop_
_atom_site_label
_atom_site_type_symbol
_atom_site_fract_x
_atom_site_fract_y
_atom_site_fract_z
Zn1 Zn 0.12719(9) 0.56751(5) 0.17134(4)
O1 O 0.2697(6) 0.6970(3) 0.2690(4)
O2 O 0.0293(5) 0.6389(3) 0.2550(3)
O3 O -0.1066(6) 0.7450(3) 0.3640(3)
O4 O -0.2907(7) 0.4310(4) 0.5863(3)
O5 O -0.4856(6) 0.5202(3) 0.6241(3)
N1 N 0.2097(7) 0.6237(4) 0.0688(3)
N2 N 0.3794(8) 0.6578(4) -0.0277(4)
N3 N 0.9531(7) 0.5453(4) -0.2443(4)
N4 N 1.1924(6) 0.5053(4) -0.2876(4)
C1 C 0.1265(9) 0.6925(4) 0.2862(4)
C2 C 0.0612(8) 0.7535(4) 0.3488(4)
H1 H 0.1190 0.7451 0.3997
H2 H 0.0824 0.8112 0.3305
C3 C -0.1589(8) 0.6845(4) 0.4185(4)
C4 C -0.0620(8) 0.6365(5) 0.4689(4)
H3 H 0.0494 0.6440 0.4683
C5 C -0.1310(8) 0.5776(4) 0.5200(4)
H4 H -0.0647 0.5437 0.5524
C6 C -0.2977(7) 0.5673(5) 0.5246(4)
C7 C -0.3972(8) 0.6156(4) 0.4728(4)
C8 C -0.3251(8) 0.6738(4) 0.4204(4)
H5 H -0.3896 0.7063 0.3859
C9 C -0.5811(8) 0.6062(5) 0.4710(5)
H6 H -0.6241 0.6182 0.5243
H7 H -0.6088 0.5490 0.4557
H8 H -0.6257 0.6453 0.4321
C10 C -0.3602(9) 0.5003(4) 0.5820(4)
C11 C 0.1262(11) 0.6392(5) -0.0017(4)
H9 H 0.0148 0.6354 -0.0074
C12 C 0.2300(10) 0.6608(5) -0.0619(5)
H10 H 0.2045 0.6748 -0.1156
C13 C 0.3620(10) 0.6350(5) 0.0507(4)
H11 H 0.4469 0.6281 0.0873
C14 C 0.5342(10) 0.6689(5) -0.0700(6)
H12 H 0.6199 0.6728 -0.0297
H13 H 0.5321 0.7220 -0.1003
C15 C 0.5704(9) 0.5976(5) -0.1274(5)
H14 H 0.5004 0.6012 -0.1748
H15 H 0.5510 0.5435 -0.1006
C16 C 0.7456(10) 0.6033(5) -0.1540(5)
H16 H 0.7663 0.6594 -0.1763
H17 H 0.8148 0.5957 -0.1067
C17 C 0.7854(9) 0.5388(5) -0.2154(6)
H18 H 0.7130 0.5451 -0.2616
H19 H 0.7682 0.4827 -0.1922
C18 C 1.0297(9) 0.6174(5) -0.2702(5)
H20 H 0.9893 0.6726 -0.2695
C19 C 1.1767(8) 0.5920(4) -0.2973(4)
H21 H 1.2551 0.6277 -0.3191
C20 C 1.0542(8) 0.4805(5) -0.2549(5)
H22 H 1.0305 0.4244 -0.2411
Zn1A Zn -0.62719(9) 0.43249(5) 0.67134(4)
Zn1A_2 Zn 1.37281(9) 0.43249(5) -0.32866(4)
O5A O -0.0144(6) 0.4798(3) 0.1241(3)
N4A N 0.3076(6) 0.4947(4) 0.2124(4)
O6 O 0.8027(7) 0.3117(4) 0.7045(4)
H23 H 0.7634 0.3427 0.6668
H24 H 0.7274 0.2883 0.7318
loop_
_geom_bond_atom_site_label_1
_geom_bond_atom_site_label_2
_geom_bond_site_symmetry_1
_geom_bond_site_symmetry_2
Zn1 O2 1_555 1_555
O1 C1 1_555 1_555
O2 C1 1_555 1_555
O3 C2 1_555 1_555
O4 C10 1_555 1_555
O5 C10 1_555 1_555
N1 Zn1 1_555 1_555
N2 C12 1_555 1_555
N3 C17 1_555 1_555
N4 C19 1_555 1_555
C1 C2 1_555 1_555
C2 H1 1_555 1_555
H2 C2 1_555 1_555
C3 O3 1_555 1_555
C4 C3 1_555 1_555
H3 C4 1_555 1_555
C5 C4 1_555 1_555
H4 C5 1_555 1_555
C6 C5 1_555 1_555
C7 C6 1_555 1_555
C8 C3 1_555 1_555
H5 C8 1_555 1_555
C9 C7 1_555 1_555
H6 C9 1_555 1_555
H7 C9 1_555 1_555
H8 C9 1_555 1_555
C10 C6 1_555 1_555
C11 N1 1_555 1_555
H9 C11 1_555 1_555
C12 C11 1_555 1_555
H10 C12 1_555 1_555
C13 N1 1_555 1_555
H11 C13 1_555 1_555
C14 N2 1_555 1_555
H12 C14 1_555 1_555
H13 C14 1_555 1_555
C15 C14 1_555 1_555
H14 C15 1_555 1_555
H15 C15 1_555 1_555
C16 C15 1_555 1_555
H16 C16 1_555 1_555
H17 C16 1_555 1_555
C17 C16 1_555 1_555
H18 C17 1_555 1_555
H19 C17 1_555 1_555
C18 N3 1_555 1_555
H20 C18 1_555 1_555
C19 C18 1_555 1_555
H21 C19 1_555 1_555
C20 N3 1_555 1_555
H22 C20 1_555 1_555
O6 H23 1_555 1_555
H24 O6 1_555 1_555
Zn1A O5 1_555 1_555
Zn1A_2 N4 1_555 1_555
O5A Zn1 1_555 1_555
N4A Zn1 1_555 1_555
N2 C13 1_555 1_555
N4 C20 1_555 1_555
C7 C8 1_555 1_555

#END
