
#######################################################################
#
#                 Cambridge Crystallographic Data Centre
#                                CCDC 
#
#######################################################################
#
# If this CIF has been generated from an entry in the Cambridge 
# Structural Database, then it will include bibliographic, chemical, 
# crystal, experimental, refinement or atomic coordinate data resulting 
# from the CCDC's data processing and validation procedures.
#
#######################################################################

data_FIKDEK
_symmetry_cell_setting           monoclinic
_symmetry_space_group_name_H-M   'P 21/n'
_symmetry_Int_Tables_number      14
_space_group_name_Hall           '-P 2yn'
loop_
_symmetry_equiv_pos_site_id
_symmetry_equiv_pos_as_xyz
1 x,y,z
2 1/2-x,1/2+y,1/2-z
3 -x,-y,-z
4 1/2+x,1/2-y,1/2+z
_cell_length_a                   12.706(3)
_cell_length_b                   9.3334(18)
_cell_length_c                   13.792(3)
_cell_angle_alpha                90
_cell_angle_beta                 102.513(3)
_cell_angle_gamma                90
_cell_volume                     1596.75
loop_
_atom_site_label
_atom_site_type_symbol
_atom_site_fract_x
_atom_site_fract_y
_atom_site_fract_z
C1 C 0.37431(14) 0.83835(18) 0.00780(13)
C2 C 0.38143(13) 0.98729(17) 0.02544(13)
C3 C 0.34902(13) 1.03743(17) -0.07320(13)
C4 C 0.38425(13) 0.41444(18) 0.50813(13)
C5 C 0.39439(13) 0.26609(18) 0.52793(13)
C6 C 0.36458(14) 0.21323(17) 0.43032(13)
N1 N 0.39916(12) 0.52451(16) 0.57763(12)
N2 N 0.35231(12) 0.44379(16) 0.40911(12)
N3 N 0.33996(13) 0.32007(16) 0.36149(11)
N4 N 0.42533(15) 0.1977(2) 0.61487(13)
N5 N 0.35242(12) 0.06966(16) 0.40045(11)
N6 N 0.39721(13) 0.72973(16) 0.07783(12)
N7 N 0.34130(12) 0.80600(16) -0.09101(11)
N8 N 0.32561(12) 0.92776(16) -0.14013(11)
N9 N 0.40840(13) 1.05978(18) 0.11014(12)
N10 N 0.34085(12) 1.17912(16) -0.10498(11)
O1 O 0.42705(12) 0.49213(16) 0.66722(11)
O2 O 0.38348(11) 0.65068(14) 0.54903(11)
O3 O 0.31920(13) 0.03931(15) 0.31117(11)
O4 O 0.37428(13) -0.02396(14) 0.46562(11)
O5 O 0.38640(14) 0.60305(15) 0.04946(12)
O6 O 0.42762(13) 0.76266(16) 0.16715(11)
O7 O 0.30737(12) 1.20771(15) -0.19470(10)
O8 O 0.36782(12) 1.27445(14) -0.04156(11)
O9 O 0.40970(19) 0.90464(19) -0.32066(14)
O10 O 0.0833(2) 0.8530(2) 0.33180(14)
K1 K 0.17141(5) 1.02383(5) -0.33572(3)
K2 K 0.30651(4) 0.72956(5) 0.33381(3)
H1 H 0.400(2) 0.830(3) -0.357(2)
H2 H 0.414(2) 1.160(3) 0.114(2)
H3 H 0.4240(16) 1.012(2) 0.1657(17)
H4 H 0.4251(18) 0.246(2) 0.6689(19)
H5 H 0.4224(19) 0.107(3) 0.6199(19)
H6 H 0.079(2) 0.866(3) 0.279(3)
H7 H 0.099(2) 0.922(4) 0.358(2)
H8 H 0.393(2) 0.886(3) -0.273(2)
N3A N 0.16004(13) 0.82007(16) 0.13851(11)
N7A N 0.15870(12) 1.30600(16) -0.40899(11)
O1A O 0.07295(12) 0.99213(16) -0.16722(11)
O3_2 O 0.31920(13) 1.03931(15) 0.31117(11)
O3A O 0.18080(13) 0.53931(15) 0.18883(11)
O4_2 O 0.37428(13) 0.97604(14) 0.46562(11)
O5A O 0.11360(14) 1.10305(15) -0.54946(12)
O7A O 0.19263(12) 0.70771(15) -0.30530(10)
O8A O 0.13218(12) 0.77445(14) -0.45844(11)
K1A K 0.32859(5) 0.52383(5) -0.16428(3)
K1A_2 K 0.32859(5) 0.52383(5) 0.83572(3)
K1A_3 K 0.32859(5) 1.52383(5) -0.16428(3)
K2_2 K 0.30651(4) -0.27044(5) 0.33381(3)
K2A K 0.19349(4) 0.22956(5) 0.16619(3)
loop_
_geom_bond_atom_site_label_1
_geom_bond_atom_site_label_2
_geom_bond_site_symmetry_1
_geom_bond_site_symmetry_2
C1 C2 1_555 1_555
C2 C3 1_555 1_555
C3 N8 1_555 1_555
C4 C5 1_555 1_555
C5 C6 1_555 1_555
C6 N3 1_555 1_555
N1 C4 1_555 1_555
N2 C4 1_555 1_555
N3 N2 1_555 1_555
N4 C5 1_555 1_555
N5 C6 1_555 1_555
N6 C1 1_555 1_555
N7 C1 1_555 1_555
N8 N7 1_555 1_555
N9 C2 1_555 1_555
N10 C3 1_555 1_555
O1 N1 1_555 1_555
O2 N1 1_555 1_555
O3 N5 1_555 1_555
O4 N5 1_555 1_555
O5 N6 1_555 1_555
O6 N6 1_555 1_555
O7 N10 1_555 1_555
O8 N10 1_555 1_555
O9 K1 1_555 1_555
O10 K2 1_555 1_555
K1 N8 1_555 1_555
K2 N2 1_555 1_555
H1 O9 1_555 1_555
H2 N9 1_555 1_555
H3 N9 1_555 1_555
H4 N4 1_555 1_555
H5 N4 1_555 1_555
H6 O10 1_555 1_555
H7 O10 1_555 1_555
H8 O9 1_555 1_555
N3A K2 1_555 1_555
N7A K1 1_555 1_555
O1A K1 1_555 1_555
O3_2 K2 1_555 1_555
O3A K2 1_555 1_555
O4_2 K2 1_555 1_555
O5A K1 1_555 1_555
O7A K1 1_555 1_555
O8A K1 1_555 1_555
K1A N7 1_555 1_555
K1A_2 O1 1_555 1_555
K1A_3 O7 1_555 1_555
K2_2 O3 1_555 1_555
K2A N3 1_555 1_555
O2 K2 1_555 1_555
O3 K2A 1_555 1_555
O4 K2_2 1_555 1_555
O5 K1A 1_555 1_555
O6 K2 1_555 1_555
O7 K1 1_555 1_555
O8 K1A_3 1_555 1_555
O3A K2A 1_555 1_555
O7A K1A 1_555 1_555

#END
