
#######################################################################
#
#                 Cambridge Crystallographic Data Centre
#                                CCDC 
#
#######################################################################
#
# If this CIF has been generated from an entry in the Cambridge 
# Structural Database, then it will include bibliographic, chemical, 
# crystal, experimental, refinement or atomic coordinate data resulting 
# from the CCDC's data processing and validation procedures.
#
#######################################################################

data_FIKDAG
_symmetry_cell_setting           monoclinic
_symmetry_space_group_name_H-M   'C 2/c'
_symmetry_Int_Tables_number      15
_space_group_name_Hall           '-C 2yn'
loop_
_symmetry_equiv_pos_site_id
_symmetry_equiv_pos_as_xyz
1 x,y,z
2 -x,y,1/2-z
3 1/2+x,1/2+y,z
4 1/2-x,1/2+y,1/2-z
5 -x,-y,-z
6 x,-y,1/2+z
7 1/2-x,1/2-y,-z
8 1/2+x,1/2-y,1/2+z
_cell_length_a                   19.848(4)
_cell_length_b                   13.247(3)
_cell_length_c                   12.243(2)
_cell_angle_alpha                90
_cell_angle_beta                 119.36(3)
_cell_angle_gamma                90
_cell_volume                     2805.55
loop_
_atom_site_label
_atom_site_type_symbol
_atom_site_fract_x
_atom_site_fract_y
_atom_site_fract_z
Cu1 Cu 0.5000 0.669307(17) 0.2500
O1 O 0.38231(7) 0.51783(10) 0.09132(9)
O2 O 0.44432(5) 0.56745(7) 0.29065(8)
O3 O 0.36971(7) -0.22462(9) 0.13374(10)
O4 O 0.46595(6) -0.22575(8) 0.32847(10)
N1 N 0.30554(6) 0.26101(8) 0.30387(10)
C1 C 0.39966(8) 0.50900(11) 0.20197(13)
C2 C 0.36571(7) 0.42273(10) 0.23932(11)
C3 C 0.40071(8) 0.38891(11) 0.36280(13)
H1 H 0.4446 0.4210 0.4244
C4 C 0.36963(8) 0.30727(11) 0.39310(13)
H2 H 0.3930 0.2841 0.4753
C5 C 0.27021(8) 0.29397(11) 0.18404(12)
H3 H 0.2254 0.2622 0.1244
C6 C 0.29942(8) 0.37311(11) 0.14964(12)
H4 H 0.2753 0.3941 0.0665
C7 C 0.27395(7) 0.17029(10) 0.33837(12)
H5 H 0.2868 0.1747 0.4256
H6 H 0.2181 0.1686 0.2872
C8 C 0.30814(7) 0.07563(10) 0.31763(11)
C9 C 0.37399(8) 0.03257(11) 0.41210(13)
H7 H 0.3979 0.0617 0.4914
C10 C 0.40533(8) -0.05409(11) 0.39038(14)
H8 H 0.4494 -0.0833 0.4552
C11 C 0.37041(7) -0.09682(10) 0.27125(12)
C12 C 0.30458(8) -0.05424(11) 0.17751(12)
H9 H 0.2807 -0.0827 0.0978
C13 C 0.27335(7) 0.03103(11) 0.20083(12)
H10 H 0.2282 0.0587 0.1367
C14 C 0.40475(8) -0.19007(11) 0.24225(13)
O1A O 0.61769(7) 0.51783(10) 0.40868(9)
O2A O 0.55568(5) 0.56745(7) 0.20935(8)
O3A O 0.63029(7) -0.22462(9) 0.36626(10)
O4A O 0.53405(6) -0.22575(8) 0.17153(10)
N1A N 0.69446(6) 0.26101(8) 0.19613(10)
C1A C 0.60034(8) 0.50900(11) 0.29803(13)
C2A C 0.63429(7) 0.42273(10) 0.26068(11)
C3A C 0.59929(8) 0.38891(11) 0.13720(13)
H1A H 0.5554 0.4210 0.0756
C4A C 0.63037(8) 0.30727(11) 0.10690(13)
H2A H 0.6070 0.2841 0.0247
C5A C 0.72979(8) 0.29397(11) 0.31596(12)
H3A H 0.7746 0.2622 0.3756
C6A C 0.70058(8) 0.37311(11) 0.35036(12)
H4A H 0.7247 0.3941 0.4335
C7A C 0.72605(7) 0.17029(10) 0.16163(12)
H5A H 0.7132 0.1747 0.0744
H6A H 0.7819 0.1686 0.2128
C8A C 0.69186(7) 0.07563(10) 0.18237(11)
C9A C 0.62601(8) 0.03257(11) 0.08790(13)
H7A H 0.6021 0.0617 0.0086
C10A C 0.59467(8) -0.05409(11) 0.10962(14)
H8A H 0.5506 -0.0833 0.0448
C11A C 0.62959(7) -0.09682(10) 0.22875(12)
C12A C 0.69542(8) -0.05424(11) 0.32249(12)
H9A H 0.7193 -0.0827 0.4022
C13A C 0.72665(7) 0.03103(11) 0.29917(12)
H10A H 0.7718 0.0587 0.3633
C14A C 0.59525(8) -0.19007(11) 0.25775(13)
Cu1_2 Cu 0.5000 -0.330693(17) 0.2500
O3_2 O 0.36971(7) 0.77538(9) 0.13374(10)
O3A_2 O 0.63029(7) 0.77538(9) 0.36626(10)
O4_2 O 0.46595(6) 0.77425(8) 0.32847(10)
O4A_2 O 0.53405(6) 0.77425(8) 0.17153(10)
O5 O 0.10224(8) 0.17251(12) 0.01767(13)
H11 H 0.0931 0.1186 0.0583
H12 H 0.1603 0.1900 0.0642
O6 O 0.0953(2) 0.3257(2) -0.1407(4)
H13 H 0.1488 0.3316 -0.0783
H14 H 0.0433 0.3312 -0.2076
loop_
_geom_bond_atom_site_label_1
_geom_bond_atom_site_label_2
_geom_bond_site_symmetry_1
_geom_bond_site_symmetry_2
Cu1 O2 1_555 1_555
O1 C1 1_555 1_555
O2 C1 1_555 1_555
O3 C14 1_555 1_555
O4 C14 1_555 1_555
N1 C4 1_555 1_555
C1 C2 1_555 1_555
C2 C3 1_555 1_555
C3 H1 1_555 1_555
C4 C3 1_555 1_555
H2 C4 1_555 1_555
C5 N1 1_555 1_555
H3 C5 1_555 1_555
C6 C2 1_555 1_555
H4 C6 1_555 1_555
C7 N1 1_555 1_555
H5 C7 1_555 1_555
H6 C7 1_555 1_555
C8 C7 1_555 1_555
C9 C8 1_555 1_555
H7 C9 1_555 1_555
C10 C9 1_555 1_555
H8 C10 1_555 1_555
C11 C10 1_555 1_555
C12 C11 1_555 1_555
H9 C12 1_555 1_555
C13 C8 1_555 1_555
H10 C13 1_555 1_555
C14 C11 1_555 1_555
O5 H11 1_555 1_555
H12 O5 1_555 1_555
O6 H13 1_555 1_555
H14 O6 1_555 1_555
O1A C1A 1_555 1_555
O2A Cu1 1_555 1_555
O3A C14A 1_555 1_555
O4A C14A 1_555 1_555
N1A C4A 1_555 1_555
C1A O2A 1_555 1_555
C2A C1A 1_555 1_555
C3A C2A 1_555 1_555
H1A C3A 1_555 1_555
C4A C3A 1_555 1_555
H2A C4A 1_555 1_555
C5A N1A 1_555 1_555
H3A C5A 1_555 1_555
C6A C2A 1_555 1_555
H4A C6A 1_555 1_555
C7A N1A 1_555 1_555
H5A C7A 1_555 1_555
H6A C7A 1_555 1_555
C8A C7A 1_555 1_555
C9A C8A 1_555 1_555
H7A C9A 1_555 1_555
C10A C9A 1_555 1_555
H8A C10A 1_555 1_555
C11A C10A 1_555 1_555
C12A C11A 1_555 1_555
H9A C12A 1_555 1_555
C13A C8A 1_555 1_555
H10A C13A 1_555 1_555
C14A C11A 1_555 1_555
Cu1_2 O3 1_555 1_555
O3_2 Cu1 1_555 1_555
O3A_2 Cu1 1_555 1_555
O4_2 Cu1 1_555 1_555
O4A_2 Cu1 1_555 1_555
O4 Cu1_2 1_555 1_555
C5 C6 1_555 1_555
C12 C13 1_555 1_555
O3A Cu1_2 1_555 1_555
O4A Cu1_2 1_555 1_555
C5A C6A 1_555 1_555
C12A C13A 1_555 1_555

#END
