
#######################################################################
#
#                 Cambridge Crystallographic Data Centre
#                                CCDC 
#
#######################################################################
#
# If this CIF has been generated from an entry in the Cambridge 
# Structural Database, then it will include bibliographic, chemical, 
# crystal, experimental, refinement or atomic coordinate data resulting 
# from the CCDC's data processing and validation procedures.
#
#######################################################################

data_FIKGUB
_symmetry_cell_setting           orthorhombic
_symmetry_space_group_name_H-M   'P n n m'
_symmetry_Int_Tables_number      58
_space_group_name_Hall           '-P 2 2n'
loop_
_symmetry_equiv_pos_site_id
_symmetry_equiv_pos_as_xyz
1 x,y,z
2 -x,-y,z
3 1/2+x,1/2-y,1/2-z
4 1/2-x,1/2+y,1/2-z
5 -x,-y,-z
6 x,y,-z
7 1/2-x,1/2+y,1/2+z
8 1/2+x,1/2-y,1/2+z
_cell_length_a                   8.199(1)
_cell_length_b                   13.130(1)
_cell_length_c                   6.913(1)
_cell_angle_alpha                90
_cell_angle_beta                 90
_cell_angle_gamma                90
_cell_volume                     744.204
loop_
_atom_site_label
_atom_site_type_symbol
_atom_site_fract_x
_atom_site_fract_y
_atom_site_fract_z
Cu1 Cu 0.50000 0.50000 0.50000
S1 S 0.54201(6) 0.25913(3) 0.50000
O1 O 0.44607(17) 0.35490(10) 0.50000
O2 O 0.63567(18) 0.24874(9) 0.32452(22)
N1 N 0.50000 0.50000 0.20228(23)
N2 N 0.17181(21) 0.50709(12) 0.50000
C1 C 0.39006(28) 0.16391(15) 0.50000
C2 C 0.40744(16) 0.43483(9) 0.10041(18)
C3 C 0.07585(26) 0.58949(16) 0.50000
C4 C 0.09358(25) 0.41751(15) 0.50000
H1 H 0.4467(51) 0.0851(33) 0.5000
H2 H 0.3239(25) 0.1709(15) 0.3882(28)
H3 H 0.3471(21) 0.3887(13) 0.1702(26)
H4 H 0.1236(31) 0.6524(22) 0.5000
H5 H 0.1412(32) 0.3600(24) 0.5000
O1D O 0.55393(17) 0.64510(10) 0.50000
N1D N 0.50000 0.50000 0.79772(23)
N2D N 0.82819(21) 0.49291(12) 0.50000
O2E O 0.63567(18) 0.24874(9) 0.67548(22)
C2A C 0.59256(16) 0.56517(9) 0.10041(18)
H2E H 0.3239(25) 0.1709(15) 0.6118(28)
C2E C 0.40744(16) 0.43483(9) -0.10041(18)
C4D C -0.09358(25) 0.58249(15) 0.50000
C3D C -0.07585(26) 0.41051(16) 0.50000
S1D S 0.45799(6) 0.74087(3) 0.50000
C2D C 0.59256(16) 0.56517(9) -0.10041(18)
H3A H 0.6529(21) 0.6113(13) 0.1702(26)
N1D_2 N 0.50000 0.50000 -0.20228(23)
H3E H 0.3471(21) 0.3887(13) -0.1702(26)
N2D_2 N -0.17181(21) 0.49291(12) 0.50000
H5D H -0.1412(32) 0.6400(24) 0.5000
H4D H -0.1236(31) 0.3476(22) 0.5000
O2D O 0.36433(18) 0.75126(9) 0.67548(22)
O2A O 0.36433(18) 0.75126(9) 0.32452(22)
C1D C 0.60994(28) 0.83609(15) 0.50000
H1D H 0.5533(51) 0.9149(33) 0.5000
H2D H 0.6761(25) 0.8291(15) 0.6118(28)
H2A H 0.6761(25) 0.8291(15) 0.3882(28)
H3D H 0.6529(21) 0.6113(13) -0.1702(26)
Cu1_2 Cu 0.50000 0.50000 -0.50000
Cu1_3 Cu -0.50000 0.50000 0.50000
loop_
_geom_bond_atom_site_label_1
_geom_bond_atom_site_label_2
_geom_bond_site_symmetry_1
_geom_bond_site_symmetry_2
Cu1 O1 1_555 1_555
S1 O1 1_555 1_555
O2 S1 1_555 1_555
N1 Cu1 1_555 1_555
N2 Cu1 1_555 1_555
C1 S1 1_555 1_555
C2 N1 1_555 1_555
C3 N2 1_555 1_555
C4 N2 1_555 1_555
H1 C1 1_555 1_555
H2 C1 1_555 1_555
H3 C2 1_555 1_555
H4 C3 1_555 1_555
H5 C4 1_555 1_555
O1D Cu1 1_555 1_555
N1D Cu1 1_555 1_555
N2D Cu1 1_555 1_555
O2E S1 1_555 1_555
C2A N1 1_555 1_555
H2E C1 1_555 1_555
C2E C2 1_555 1_555
C4D C3 1_555 1_555
C3D C4 1_555 1_555
S1D O1D 1_555 1_555
C2D C2A 1_555 1_555
H3A C2A 1_555 1_555
N1D_2 C2E 1_555 1_555
H3E C2E 1_555 1_555
N2D_2 C4D 1_555 1_555
H5D C4D 1_555 1_555
H4D C3D 1_555 1_555
O2D S1D 1_555 1_555
O2A S1D 1_555 1_555
C1D S1D 1_555 1_555
H1D C1D 1_555 1_555
H2D C1D 1_555 1_555
H2A C1D 1_555 1_555
H3D C2D 1_555 1_555
Cu1_2 N1D_2 1_555 1_555
Cu1_3 N2D_2 1_555 1_555
C3D N2D_2 1_555 1_555
C2D N1D_2 1_555 1_555

#END
