
#######################################################################
#
#                 Cambridge Crystallographic Data Centre
#                                CCDC 
#
#######################################################################
#
# If this CIF has been generated from an entry in the Cambridge 
# Structural Database, then it will include bibliographic, chemical, 
# crystal, experimental, refinement or atomic coordinate data resulting 
# from the CCDC's data processing and validation procedures.
#
#######################################################################

data_FIKHUE
_symmetry_cell_setting           orthorhombic
_symmetry_space_group_name_H-M   'P 2 2 21'
_symmetry_Int_Tables_number      17
_space_group_name_Hall           'P 2c 2'
loop_
_symmetry_equiv_pos_site_id
_symmetry_equiv_pos_as_xyz
1 x,y,z
2 -x,-y,1/2+z
3 -x,y,1/2-z
4 x,-y,-z
_cell_length_a                   11.3112(18)
_cell_length_b                   15.137(2)
_cell_length_c                   29.387(5)
_cell_angle_alpha                90
_cell_angle_beta                 90
_cell_angle_gamma                90
_cell_volume                     5031.57
loop_
_atom_site_label
_atom_site_type_symbol
_atom_site_fract_x
_atom_site_fract_y
_atom_site_fract_z
Cd1 Cd 0.40141(6) 0.0000 0.5000
Cd2 Cd 0.82952(6) 0.0000 0.5000
Cd3 Cd 0.59325(4) 0.01793(3) 0.59995(2)
O1 O 0.5029(5) 0.1004(3) 0.5392(3)
O2 O 0.4843(5) 0.1417(4) 0.6079(3)
O3 O -0.2345(4) 0.1011(3) 0.6042(2)
O4 O -0.1389(5) 0.1185(4) 0.5392(2)
O5 O 0.7020(4) -0.0675(3) 0.5468(2)
O6 O 0.6362(5) -0.1293(4) 0.6078(2)
O7 O 1.4047(5) -0.0557(4) 0.5784(3)
O8 O 1.2648(6) -0.0934(4) 0.5299(3)
C1 C -0.1725(6) 0.1425(6) 0.5778(3)
C2 C -0.1214(6) 0.2341(5) 0.5906(3)
C3 C -0.1850(7) 0.2994(6) 0.5598(3)
H1 H -0.2667 0.3040 0.5696
H2 H -0.1851 0.2761 0.5290
C4 C -0.1304(6) 0.3934(5) 0.5589(4)
H3 H -0.1710 0.4292 0.5365
H4 H -0.1407 0.4211 0.5884
C5 C -0.0007(6) 0.3891(5) 0.5475(4)
H5 H 0.0318 0.4483 0.5480
H6 H 0.0084 0.3661 0.5169
C6 C 0.0714(6) 0.3293(5) 0.5814(3)
C7 C 0.0123(6) 0.2350(5) 0.5826(3)
H7 H 0.0215 0.2127 0.5515
C8 C 0.0803(6) 0.1708(5) 0.6113(3)
H8 H 0.0401 0.1143 0.6114
H9 H 0.0839 0.1922 0.6424
C9 C 0.2739(6) 0.2453(5) 0.5862(3)
C10 C 0.2073(5) 0.1589(5) 0.5926(3)
H10 H 0.2514 0.1216 0.6134
H11 H 0.2031 0.1286 0.5636
C11 C 0.1946(7) 0.3151(5) 0.5616(4)
H12 H 0.1814 0.2912 0.5310
C12 C 0.3838(7) 0.2289(5) 0.5543(3)
H13 H 0.3523 0.2142 0.5242
C13 C 0.3218(7) 0.2871(5) 0.6252(3)
H14 H 0.3130 0.2637 0.6543
C14 C 0.4585(7) 0.1547(6) 0.5682(3)
C15 C 0.4519(8) 0.3143(6) 0.5490(4)
H15 H 0.5293 0.3073 0.5628
H16 H 0.4636 0.3259 0.5169
C16 C -0.1581(8) 0.2520(6) 0.6423(3)
H17 H -0.1278 0.3083 0.6517
H18 H -0.1258 0.2065 0.6613
H19 H -0.2427 0.2520 0.6448
C17 C 0.3840(7) 0.3667(6) 0.6171(3)
C18 C 0.2709(7) 0.4002(6) 0.5543(3)
H20 H 0.2709 0.4151 0.5221
H21 H 0.2348 0.4489 0.5706
C19 C 0.4462(6) 0.4178(6) 0.6537(3)
H22 H 0.4283 0.3730 0.6767
C20 C 0.5744(7) 0.4018(10) 0.6570(5)
H23 H 0.6050 0.4311 0.6835
H24 H 0.6130 0.4244 0.6304
H25 H 0.5888 0.3394 0.6594
C21 C 0.0799(6) 0.3761(5) 0.6257(3)
H26 H 0.1209 0.3395 0.6472
H27 H 0.0019 0.3887 0.6368
H28 H 0.1225 0.4304 0.6217
C22 C 1.3159(6) -0.1018(5) 0.5645(3)
C23 C 1.2782(6) -0.1800(5) 0.5992(4)
C24 C 1.3459(8) -0.2605(5) 0.5799(4)
H29 H 1.3388 -0.2609 0.5470
H30 H 1.4291 -0.2550 0.5874
C25 C 1.2989(6) -0.3469(4) 0.5988(3)
H31 H 1.3099 -0.3483 0.6315
H32 H 1.3425 -0.3959 0.5857
C26 C 1.1655(6) -0.3566(5) 0.5874(3)
H33 H 1.1547 -0.3541 0.5547
H34 H 1.1374 -0.4136 0.5979
C27 C 1.0950(7) -0.2851(5) 0.6093(3)
C28 C 1.1463(6) -0.1954(5) 0.5938(3)
H35 H 1.1320 -0.1931 0.5609
C29 C 1.0717(6) -0.1153(5) 0.6144(3)
H36 H 1.0695 -0.1193 0.6474
H37 H 1.1077 -0.0594 0.6061
C30 C 0.9475(6) -0.1212(5) 0.5952(3)
H38 H 0.9001 -0.0746 0.6087
H39 H 0.9513 -0.1100 0.5627
C31 C 0.8847(6) -0.2086(4) 0.6027(3)
C32 C 0.9675(6) -0.2855(5) 0.5873(3)
H40 H 0.9784 -0.2793 0.5544
C33 C 0.8998(7) -0.3747(5) 0.5952(3)
H41 H 0.8982 -0.4084 0.5671
H42 H 0.9405 -0.4095 0.6180
C34 C 0.7726(6) -0.3558(5) 0.6109(3)
H43 H 0.7299 -0.4113 0.6159
C35 C 0.7116(6) -0.3011(5) 0.5732(3)
H44 H 0.7122 -0.3343 0.5449
H45 H 0.6299 -0.2902 0.5815
C36 C 0.7756(6) -0.2129(5) 0.5663(3)
H46 H 0.8070 -0.2100 0.5352
C37 C 0.8365(7) -0.2260(6) 0.6484(3)
H47 H 0.8471 -0.1875 0.6727
C38 C 0.7742(7) -0.3042(7) 0.6521(3)
C39 C 0.6968(6) -0.1314(5) 0.5753(3)
C40 C 1.3228(9) -0.1618(7) 0.6496(4)
H48 H 1.2984 -0.2093 0.6690
H49 H 1.2895 -0.1073 0.6604
H50 H 1.4075 -0.1576 0.6497
C41 C 1.0885(8) -0.3016(6) 0.6616(3)
H51 H 1.1670 -0.3023 0.6741
H52 H 1.0511 -0.3575 0.6673
H53 H 1.0435 -0.2553 0.6757
C42 C 0.3991(11) 0.4890(7) 0.6820(4)
H54 H 0.4515 0.4994 0.7071
H55 H 0.3226 0.4725 0.6932
H56 H 0.3923 0.5419 0.6641
C43 C 0.3931(9) 0.3902(7) 0.5696(4)
H57 H 0.4386 0.4447 0.5653
C44 C 0.7037(6) -0.3334(7) 0.6915(3)
H58 H 0.7352 -0.3914 0.7000
C45 C 0.5767(7) -0.3471(10) 0.6832(4)
H59 H 0.5403 -0.3701 0.7102
H60 H 0.5665 -0.3883 0.6587
H61 H 0.5405 -0.2918 0.6753
C46 C 0.7258(12) -0.2755(9) 0.7310(4)
H62 H 0.8093 -0.2718 0.7365
H63 H 0.6872 -0.2994 0.7573
H64 H 0.6952 -0.2175 0.7248
O9 O 0.6010(9) 0.0160(6) 0.6759(3)
O10 O 1.0454(5) 0.0000 0.5000
N1 N 0.6435(14) 0.0880(5) 0.7429(4)
C47 C 0.6207(15) 0.0826(11) 0.6926(5)
H65 H 0.6227 0.1336 0.6750
C48 C 0.6393(18) 0.0092(8) 0.7710(6)
H66 H 0.6182 -0.0407 0.7526
H67 H 0.5814 0.0169 0.7946
H68 H 0.7154 -0.0007 0.7845
C49 C 0.6692(19) 0.1759(7) 0.7594(6)
H69 H 0.6543 0.2182 0.7357
H70 H 0.7507 0.1793 0.7684
H71 H 0.6196 0.1888 0.7851
Cd3C Cd 0.59325(4) -0.01793(3) 0.40005(2)
O1C O 0.5029(5) -0.1004(3) 0.4608(3)
O2C O 0.4843(5) -0.1417(4) 0.3921(3)
O3C O -0.2345(4) -0.1011(3) 0.3958(2)
O4C O -0.1389(5) -0.1185(4) 0.4608(2)
O5C O 0.7020(4) 0.0675(3) 0.4532(2)
O6C O 0.6362(5) 0.1293(4) 0.3922(2)
O7C O 1.4047(5) 0.0557(4) 0.4216(3)
O8C O 1.2648(6) 0.0934(4) 0.4701(3)
C1C C -0.1725(6) -0.1425(6) 0.4222(3)
C2C C -0.1214(6) -0.2341(5) 0.4094(3)
C3C C -0.1850(7) -0.2994(6) 0.4402(3)
H1C H -0.2667 -0.3040 0.4304
H2C H -0.1851 -0.2761 0.4710
C4C C -0.1304(6) -0.3934(5) 0.4411(4)
H3C H -0.1710 -0.4292 0.4635
H4C H -0.1407 -0.4211 0.4116
C5C C -0.0007(6) -0.3891(5) 0.4525(4)
H5C H 0.0318 -0.4483 0.4520
H6C H 0.0084 -0.3661 0.4831
C6C C 0.0714(6) -0.3293(5) 0.4186(3)
C7C C 0.0123(6) -0.2350(5) 0.4174(3)
H7C H 0.0215 -0.2127 0.4485
C8C C 0.0803(6) -0.1708(5) 0.3887(3)
H8C H 0.0401 -0.1143 0.3886
H9C H 0.0839 -0.1922 0.3576
C9C C 0.2739(6) -0.2453(5) 0.4138(3)
C10C C 0.2073(5) -0.1589(5) 0.4074(3)
H10C H 0.2514 -0.1216 0.3866
H11C H 0.2031 -0.1286 0.4364
C11C C 0.1946(7) -0.3151(5) 0.4384(4)
H12C H 0.1814 -0.2912 0.4690
C12C C 0.3838(7) -0.2289(5) 0.4457(3)
H13C H 0.3523 -0.2142 0.4758
C13C C 0.3218(7) -0.2871(5) 0.3748(3)
H14C H 0.3130 -0.2637 0.3457
C14C C 0.4585(7) -0.1547(6) 0.4318(3)
C15C C 0.4519(8) -0.3143(6) 0.4510(4)
H15C H 0.5293 -0.3073 0.4372
H16C H 0.4636 -0.3259 0.4831
C16C C -0.1581(8) -0.2520(6) 0.3577(3)
H17C H -0.1278 -0.3083 0.3483
H18C H -0.1258 -0.2065 0.3387
H19C H -0.2427 -0.2520 0.3552
C17C C 0.3840(7) -0.3667(6) 0.3829(3)
C18C C 0.2709(7) -0.4002(6) 0.4457(3)
H20C H 0.2709 -0.4151 0.4779
H21C H 0.2348 -0.4489 0.4294
C19C C 0.4462(6) -0.4178(6) 0.3463(3)
H22C H 0.4283 -0.3730 0.3233
C20C C 0.5744(7) -0.4018(10) 0.3430(5)
H23C H 0.6050 -0.4311 0.3165
H24C H 0.6130 -0.4244 0.3696
H25C H 0.5888 -0.3394 0.3406
C21C C 0.0799(6) -0.3761(5) 0.3743(3)
H26C H 0.1209 -0.3395 0.3528
H27C H 0.0019 -0.3887 0.3632
H28C H 0.1225 -0.4304 0.3783
C22C C 1.3159(6) 0.1018(5) 0.4355(3)
C23C C 1.2782(6) 0.1800(5) 0.4008(4)
C24C C 1.3459(8) 0.2605(5) 0.4201(4)
H29C H 1.3388 0.2609 0.4530
H30C H 1.4291 0.2550 0.4126
C25C C 1.2989(6) 0.3469(4) 0.4012(3)
H31C H 1.3099 0.3483 0.3685
H32C H 1.3425 0.3959 0.4143
C26C C 1.1655(6) 0.3566(5) 0.4126(3)
H33C H 1.1547 0.3541 0.4453
H34C H 1.1374 0.4136 0.4021
C27C C 1.0950(7) 0.2851(5) 0.3907(3)
C28C C 1.1463(6) 0.1954(5) 0.4062(3)
H35C H 1.1320 0.1931 0.4391
C29C C 1.0717(6) 0.1153(5) 0.3856(3)
H36C H 1.0695 0.1193 0.3526
H37C H 1.1077 0.0594 0.3939
C30C C 0.9475(6) 0.1212(5) 0.4048(3)
H38C H 0.9001 0.0746 0.3913
H39C H 0.9513 0.1100 0.4373
C31C C 0.8847(6) 0.2086(4) 0.3973(3)
C32C C 0.9675(6) 0.2855(5) 0.4127(3)
H40C H 0.9784 0.2793 0.4456
C33C C 0.8998(7) 0.3747(5) 0.4048(3)
H41C H 0.8982 0.4084 0.4329
H42C H 0.9405 0.4095 0.3820
C34C C 0.7726(6) 0.3558(5) 0.3891(3)
H43C H 0.7299 0.4113 0.3841
C35C C 0.7116(6) 0.3011(5) 0.4268(3)
H44C H 0.7122 0.3343 0.4551
H45C H 0.6299 0.2902 0.4185
C36C C 0.7756(6) 0.2129(5) 0.4337(3)
H46C H 0.8070 0.2100 0.4648
C37C C 0.8365(7) 0.2260(6) 0.3516(3)
H47C H 0.8471 0.1875 0.3273
C38C C 0.7742(7) 0.3042(7) 0.3479(3)
C39C C 0.6968(6) 0.1314(5) 0.4247(3)
C40C C 1.3228(9) 0.1618(7) 0.3504(4)
H48C H 1.2984 0.2093 0.3310
H49C H 1.2895 0.1073 0.3396
H50C H 1.4075 0.1576 0.3503
C41C C 1.0885(8) 0.3016(6) 0.3384(3)
H51C H 1.1670 0.3023 0.3259
H52C H 1.0511 0.3575 0.3327
H53C H 1.0435 0.2553 0.3243
C42C C 0.3991(11) -0.4890(7) 0.3180(4)
H54C H 0.4515 -0.4994 0.2929
H55C H 0.3226 -0.4725 0.3068
H56C H 0.3923 -0.5419 0.3359
C43C C 0.3931(9) -0.3902(7) 0.4304(4)
H57C H 0.4386 -0.4447 0.4347
C44C C 0.7037(6) 0.3334(7) 0.3085(3)
H58C H 0.7352 0.3914 0.3000
C45C C 0.5767(7) 0.3471(10) 0.3168(4)
H59C H 0.5403 0.3701 0.2898
H60C H 0.5665 0.3883 0.3413
H61C H 0.5405 0.2918 0.3247
C46C C 0.7258(12) 0.2755(9) 0.2690(4)
H62C H 0.8093 0.2718 0.2635
H63C H 0.6872 0.2994 0.2427
H64C H 0.6952 0.2175 0.2752
O9C O 0.6010(9) -0.0160(6) 0.3241(3)
N1C N 0.6435(14) -0.0880(5) 0.2571(4)
C47C C 0.6207(15) -0.0826(11) 0.3074(5)
H65C H 0.6227 -0.1336 0.3250
C48C C 0.6393(18) -0.0092(8) 0.2290(6)
H66C H 0.6182 0.0407 0.2474
H67C H 0.5814 -0.0169 0.2054
H68C H 0.7154 0.0007 0.2155
C49C C 0.6692(19) -0.1759(7) 0.2406(6)
H69C H 0.6543 -0.2182 0.2643
H70C H 0.7507 -0.1793 0.2316
H71C H 0.6196 -0.1888 0.2149
Cd1_2 Cd 1.40141(6) 0.0000 0.5000
Cd2_2 Cd -0.17048(6) 0.0000 0.5000
Cd3_2 Cd -0.40675(4) 0.01793(3) 0.59995(2)
Cd3_3 Cd 1.59325(4) 0.01793(3) 0.59995(2)
Cd3C_2 Cd -0.40675(4) -0.01793(3) 0.40005(2)
Cd3C_3 Cd 1.59325(4) -0.01793(3) 0.40005(2)
O3_2 O 0.7655(4) 0.1011(3) 0.6042(2)
O3C_2 O 0.7655(4) -0.1011(3) 0.3958(2)
O4_2 O 0.8611(5) 0.1185(4) 0.5392(2)
O4C_2 O 0.8611(5) -0.1185(4) 0.4608(2)
O7_2 O 0.4047(5) -0.0557(4) 0.5784(3)
O7C_2 O 0.4047(5) 0.0557(4) 0.4216(3)
O8_2 O 0.2648(6) -0.0934(4) 0.5299(3)
O8C_2 O 0.2648(6) 0.0934(4) 0.4701(3)
O11 O 1.0000 0.0203(14) 0.7500
loop_
_geom_bond_atom_site_label_1
_geom_bond_atom_site_label_2
_geom_bond_site_symmetry_1
_geom_bond_site_symmetry_2
Cd1 O1 1_555 1_555
Cd2 O5 1_555 1_555
Cd3 O1 1_555 1_555
O1 C14 1_555 1_555
O2 Cd3 1_555 1_555
O3 C1 1_555 1_555
O4 C1 1_555 1_555
O5 Cd3 1_555 1_555
O6 Cd3 1_555 1_555
O7 C22 1_555 1_555
O8 C22 1_555 1_555
C1 C2 1_555 1_555
C2 C3 1_555 1_555
C3 H1 1_555 1_555
H2 C3 1_555 1_555
C4 C3 1_555 1_555
H3 C4 1_555 1_555
H4 C4 1_555 1_555
C5 C4 1_555 1_555
H5 C5 1_555 1_555
H6 C5 1_555 1_555
C6 C5 1_555 1_555
C7 C2 1_555 1_555
H7 C7 1_555 1_555
C8 C7 1_555 1_555
H8 C8 1_555 1_555
H9 C8 1_555 1_555
C9 C10 1_555 1_555
C10 C8 1_555 1_555
H10 C10 1_555 1_555
H11 C10 1_555 1_555
C11 C6 1_555 1_555
H12 C11 1_555 1_555
C12 C9 1_555 1_555
H13 C12 1_555 1_555
C13 C9 1_555 1_555
H14 C13 1_555 1_555
C14 O2 1_555 1_555
C15 C12 1_555 1_555
H15 C15 1_555 1_555
H16 C15 1_555 1_555
C16 C2 1_555 1_555
H17 C16 1_555 1_555
H18 C16 1_555 1_555
H19 C16 1_555 1_555
C17 C13 1_555 1_555
C18 C11 1_555 1_555
H20 C18 1_555 1_555
H21 C18 1_555 1_555
C19 C17 1_555 1_555
H22 C19 1_555 1_555
C20 C19 1_555 1_555
H23 C20 1_555 1_555
H24 C20 1_555 1_555
H25 C20 1_555 1_555
C21 C6 1_555 1_555
H26 C21 1_555 1_555
H27 C21 1_555 1_555
H28 C21 1_555 1_555
C22 C23 1_555 1_555
C23 C24 1_555 1_555
C24 H29 1_555 1_555
H30 C24 1_555 1_555
C25 C24 1_555 1_555
H31 C25 1_555 1_555
H32 C25 1_555 1_555
C26 C25 1_555 1_555
H33 C26 1_555 1_555
H34 C26 1_555 1_555
C27 C26 1_555 1_555
C28 C23 1_555 1_555
H35 C28 1_555 1_555
C29 C28 1_555 1_555
H36 C29 1_555 1_555
H37 C29 1_555 1_555
C30 C29 1_555 1_555
H38 C30 1_555 1_555
H39 C30 1_555 1_555
C31 C30 1_555 1_555
C32 C27 1_555 1_555
H40 C32 1_555 1_555
C33 C32 1_555 1_555
H41 C33 1_555 1_555
H42 C33 1_555 1_555
C34 C33 1_555 1_555
H43 C34 1_555 1_555
C35 C34 1_555 1_555
H44 C35 1_555 1_555
H45 C35 1_555 1_555
C36 C31 1_555 1_555
H46 C36 1_555 1_555
C37 C31 1_555 1_555
H47 C37 1_555 1_555
C38 C34 1_555 1_555
C39 O5 1_555 1_555
C40 C23 1_555 1_555
H48 C40 1_555 1_555
H49 C40 1_555 1_555
H50 C40 1_555 1_555
C41 C27 1_555 1_555
H51 C41 1_555 1_555
H52 C41 1_555 1_555
H53 C41 1_555 1_555
C42 C19 1_555 1_555
H54 C42 1_555 1_555
H55 C42 1_555 1_555
H56 C42 1_555 1_555
C43 C15 1_555 1_555
H57 C43 1_555 1_555
C44 C38 1_555 1_555
H58 C44 1_555 1_555
C45 C44 1_555 1_555
H59 C45 1_555 1_555
H60 C45 1_555 1_555
H61 C45 1_555 1_555
C46 C44 1_555 1_555
H62 C46 1_555 1_555
H63 C46 1_555 1_555
H64 C46 1_555 1_555
O9 Cd3 1_555 1_555
O10 Cd2 1_555 1_555
N1 C47 1_555 1_555
C47 O9 1_555 1_555
H65 C47 1_555 1_555
C48 N1 1_555 1_555
H66 C48 1_555 1_555
H67 C48 1_555 1_555
H68 C48 1_555 1_555
C49 N1 1_555 1_555
H69 C49 1_555 1_555
H70 C49 1_555 1_555
H71 C49 1_555 1_555
Cd3C O1C 1_555 1_555
O1C Cd1 1_555 1_555
O2C Cd3C 1_555 1_555
O3C C1C 1_555 1_555
O4C C1C 1_555 1_555
O5C Cd2 1_555 1_555
O6C Cd3C 1_555 1_555
O7C C22C 1_555 1_555
O8C C22C 1_555 1_555
C1C C2C 1_555 1_555
C2C C3C 1_555 1_555
C3C H1C 1_555 1_555
H2C C3C 1_555 1_555
C4C C3C 1_555 1_555
H3C C4C 1_555 1_555
H4C C4C 1_555 1_555
C5C C4C 1_555 1_555
H5C C5C 1_555 1_555
H6C C5C 1_555 1_555
C6C C5C 1_555 1_555
C7C C2C 1_555 1_555
H7C C7C 1_555 1_555
C8C C7C 1_555 1_555
H8C C8C 1_555 1_555
H9C C8C 1_555 1_555
C9C C10C 1_555 1_555
C10C C8C 1_555 1_555
H10C C10C 1_555 1_555
H11C C10C 1_555 1_555
C11C C6C 1_555 1_555
H12C C11C 1_555 1_555
C12C C9C 1_555 1_555
H13C C12C 1_555 1_555
C13C C9C 1_555 1_555
H14C C13C 1_555 1_555
C14C O1C 1_555 1_555
C15C C12C 1_555 1_555
H15C C15C 1_555 1_555
H16C C15C 1_555 1_555
C16C C2C 1_555 1_555
H17C C16C 1_555 1_555
H18C C16C 1_555 1_555
H19C C16C 1_555 1_555
C17C C13C 1_555 1_555
C18C C11C 1_555 1_555
H20C C18C 1_555 1_555
H21C C18C 1_555 1_555
C19C C17C 1_555 1_555
H22C C19C 1_555 1_555
C20C C19C 1_555 1_555
H23C C20C 1_555 1_555
H24C C20C 1_555 1_555
H25C C20C 1_555 1_555
C21C C6C 1_555 1_555
H26C C21C 1_555 1_555
H27C C21C 1_555 1_555
H28C C21C 1_555 1_555
C22C C23C 1_555 1_555
C23C C24C 1_555 1_555
C24C H29C 1_555 1_555
H30C C24C 1_555 1_555
C25C C24C 1_555 1_555
H31C C25C 1_555 1_555
H32C C25C 1_555 1_555
C26C C25C 1_555 1_555
H33C C26C 1_555 1_555
H34C C26C 1_555 1_555
C27C C26C 1_555 1_555
C28C C23C 1_555 1_555
H35C C28C 1_555 1_555
C29C C28C 1_555 1_555
H36C C29C 1_555 1_555
H37C C29C 1_555 1_555
C30C C29C 1_555 1_555
H38C C30C 1_555 1_555
H39C C30C 1_555 1_555
C31C C30C 1_555 1_555
C32C C27C 1_555 1_555
H40C C32C 1_555 1_555
C33C C32C 1_555 1_555
H41C C33C 1_555 1_555
H42C C33C 1_555 1_555
C34C C33C 1_555 1_555
H43C C34C 1_555 1_555
C35C C34C 1_555 1_555
H44C C35C 1_555 1_555
H45C C35C 1_555 1_555
C36C C31C 1_555 1_555
H46C C36C 1_555 1_555
C37C C31C 1_555 1_555
H47C C37C 1_555 1_555
C38C C34C 1_555 1_555
C39C O5C 1_555 1_555
C40C C23C 1_555 1_555
H48C C40C 1_555 1_555
H49C C40C 1_555 1_555
H50C C40C 1_555 1_555
C41C C27C 1_555 1_555
H51C C41C 1_555 1_555
H52C C41C 1_555 1_555
H53C C41C 1_555 1_555
C42C C19C 1_555 1_555
H54C C42C 1_555 1_555
H55C C42C 1_555 1_555
H56C C42C 1_555 1_555
C43C C15C 1_555 1_555
H57C C43C 1_555 1_555
C44C C38C 1_555 1_555
H58C C44C 1_555 1_555
C45C C44C 1_555 1_555
H59C C45C 1_555 1_555
H60C C45C 1_555 1_555
H61C C45C 1_555 1_555
C46C C44C 1_555 1_555
H62C C46C 1_555 1_555
H63C C46C 1_555 1_555
H64C C46C 1_555 1_555
O9C Cd3C 1_555 1_555
N1C C47C 1_555 1_555
C47C O9C 1_555 1_555
H65C C47C 1_555 1_555
C48C N1C 1_555 1_555
H66C C48C 1_555 1_555
H67C C48C 1_555 1_555
H68C C48C 1_555 1_555
C49C N1C 1_555 1_555
H69C C49C 1_555 1_555
H70C C49C 1_555 1_555
H71C C49C 1_555 1_555
Cd1_2 O7 1_555 1_555
Cd2_2 O4 1_555 1_555
Cd3_2 O3 1_555 1_555
Cd3_3 O7 1_555 1_555
Cd3C_2 O3C 1_555 1_555
Cd3C_3 O7C 1_555 1_555
O3_2 Cd3 1_555 1_555
O3C_2 Cd3C 1_555 1_555
O4_2 Cd2 1_555 1_555
O4C_2 Cd2 1_555 1_555
O7_2 Cd1 1_555 1_555
O7C_2 Cd1 1_555 1_555
O8_2 Cd1 1_555 1_555
O8C_2 Cd1 1_555 1_555
Cd3 O7_2 1_555 1_555
O6 C39 1_555 1_555
O8 Cd1_2 1_555 1_555
C6 C7 1_555 1_555
C9 C11 1_555 1_555
C12 C14 1_555 1_555
C17 C43 1_555 1_555
C18 C43 1_555 1_555
C27 C28 1_555 1_555
C31 C32 1_555 1_555
C35 C36 1_555 1_555
C36 C39 1_555 1_555
C37 C38 1_555 1_555
Cd3C O5C 1_555 1_555
Cd3C O7C_2 1_555 1_555
O2C C14C 1_555 1_555
O4C Cd2_2 1_555 1_555
O6C C39C 1_555 1_555
O7C Cd1_2 1_555 1_555
O8C Cd1_2 1_555 1_555
C6C C7C 1_555 1_555
C9C C11C 1_555 1_555
C12C C14C 1_555 1_555
C17C C43C 1_555 1_555
C18C C43C 1_555 1_555
C27C C28C 1_555 1_555
C31C C32C 1_555 1_555
C35C C36C 1_555 1_555
C36C C39C 1_555 1_555
C37C C38C 1_555 1_555

#END
