
#######################################################################
#
#                 Cambridge Crystallographic Data Centre
#                                CCDC 
#
#######################################################################
#
# If this CIF has been generated from an entry in the Cambridge 
# Structural Database, then it will include bibliographic, chemical, 
# crystal, experimental, refinement or atomic coordinate data resulting 
# from the CCDC's data processing and validation procedures.
#
#######################################################################

data_FIKKUH
_symmetry_cell_setting           monoclinic
_symmetry_space_group_name_H-M   'P 21/c'
_symmetry_Int_Tables_number      14
_space_group_name_Hall           '-P 2ybc'
loop_
_symmetry_equiv_pos_site_id
_symmetry_equiv_pos_as_xyz
1 x,y,z
2 -x,1/2+y,1/2-z
3 -x,-y,-z
4 x,1/2-y,1/2+z
_cell_length_a                   11.637(3)
_cell_length_b                   6.2655(16)
_cell_length_c                   18.056(5)
_cell_angle_alpha                90
_cell_angle_beta                 90.764(3)
_cell_angle_gamma                90
_cell_volume                     1316.38
loop_
_atom_site_label
_atom_site_type_symbol
_atom_site_fract_x
_atom_site_fract_y
_atom_site_fract_z
Na1 Na 0.58019(10) -0.18037(18) 0.54168(7)
O1 O 0.53460(15) 0.1593(3) 0.56128(11)
C1 C 0.5517(3) 0.3191(5) 0.60714(16)
C2 C 0.4604(3) 0.4644(5) 0.62385(16)
C3 C 0.4813(3) 0.6466(5) 0.66611(16)
H1 H 0.4202 0.7434 0.6750
C4 C 0.5898(3) 0.6894(5) 0.69546(16)
H2 H 0.6042 0.8182 0.7217
C5 C 0.6763(3) 0.5415(5) 0.68581(17)
H3 H 0.7493 0.5667 0.7083
C6 C 0.6600(3) 0.3557(5) 0.64390(17)
C7 C 0.7517(3) 0.1915(5) 0.64588(18)
C8 C 0.7865(3) 0.0745(5) 0.58398(18)
H4 H 0.7521 0.1039 0.5371
C9 C 0.8700(3) -0.0833(5) 0.58941(19)
H5 H 0.8910 -0.1627 0.5469
C10 C 0.9223(3) -0.1239(5) 0.65695(19)
H6 H 0.9795 -0.2316 0.6610
C11 C 0.8918(3) -0.0084(5) 0.71866(18)
H7 H 0.9283 -0.0361 0.7651
C12 C 0.8081(3) 0.1477(5) 0.71293(18)
H8 H 0.7885 0.2272 0.7557
C13 C 0.3398(3) 0.4151(5) 0.60233(16)
C14 C 0.2652(3) 0.5728(5) 0.57588(17)
H9 H 0.2948 0.7099 0.5642
C15 C 0.1484(3) 0.5333(5) 0.56627(18)
H10 H 0.0997 0.6424 0.5472
C16 C 0.1026(3) 0.3368(6) 0.58421(17)
H11 H 0.0223 0.3119 0.5795
C17 C 0.1753(3) 0.1774(5) 0.60906(17)
H12 H 0.1448 0.0410 0.6207
C18 C 0.2928(3) 0.2138(5) 0.61726(16)
H13 H 0.3417 0.1009 0.6332
Na1_2 Na 0.58019(10) 0.81963(18) 0.54168(7)
Na1B Na 0.41981(10) 0.18037(18) 0.45832(7)
O1B O 0.46540(15) -0.1593(3) 0.43872(11)
C2_2 C 0.4604(3) -0.5356(5) 0.62385(16)
C3_2 C 0.4813(3) -0.3534(5) 0.66611(16)
C4_2 C 0.5898(3) -0.3106(5) 0.69546(16)
loop_
_geom_bond_atom_site_label_1
_geom_bond_atom_site_label_2
_geom_bond_site_symmetry_1
_geom_bond_site_symmetry_2
Na1 O1 1_555 1_555
O1 C1 1_555 1_555
C1 C2 1_555 1_555
C2 C3 1_555 1_555
C3 H1 1_555 1_555
C4 C3 1_555 1_555
H2 C4 1_555 1_555
C5 C4 1_555 1_555
H3 C5 1_555 1_555
C6 C1 1_555 1_555
C7 C6 1_555 1_555
C8 Na1 1_555 1_555
H4 C8 1_555 1_555
C9 C8 1_555 1_555
H5 C9 1_555 1_555
C10 C9 1_555 1_555
H6 C10 1_555 1_555
C11 C10 1_555 1_555
H7 C11 1_555 1_555
C12 C7 1_555 1_555
H8 C12 1_555 1_555
C13 C2 1_555 1_555
C14 C13 1_555 1_555
H9 C14 1_555 1_555
C15 C14 1_555 1_555
H10 C15 1_555 1_555
C16 C15 1_555 1_555
H11 C16 1_555 1_555
C17 C16 1_555 1_555
H12 C17 1_555 1_555
C18 C13 1_555 1_555
H13 C18 1_555 1_555
Na1_2 C2 1_555 1_555
Na1B O1 1_555 1_555
O1B Na1 1_555 1_555
C2_2 Na1 1_555 1_555
C3_2 Na1 1_555 1_555
C4_2 Na1 1_555 1_555
C3 Na1_2 1_555 1_555
C4 Na1_2 1_555 1_555
C5 C6 1_555 1_555
C7 C8 1_555 1_555
C11 C12 1_555 1_555
C17 C18 1_555 1_555
Na1B O1B 1_555 1_555
C2_2 C3_2 1_555 1_555
C3_2 C4_2 1_555 1_555

#END
