
#######################################################################
#
#                 Cambridge Crystallographic Data Centre
#                                CCDC 
#
#######################################################################
#
# If this CIF has been generated from an entry in the Cambridge 
# Structural Database, then it will include bibliographic, chemical, 
# crystal, experimental, refinement or atomic coordinate data resulting 
# from the CCDC's data processing and validation procedures.
#
#######################################################################

data_FIKNIX
_symmetry_cell_setting           monoclinic
_symmetry_space_group_name_H-M   'P 21/a'
_symmetry_Int_Tables_number      14
_space_group_name_Hall           '-P 2yab'
loop_
_symmetry_equiv_pos_site_id
_symmetry_equiv_pos_as_xyz
1 x,y,z
2 1/2-x,1/2+y,-z
3 -x,-y,-z
4 1/2+x,1/2-y,z
_cell_length_a                   14.779(2)
_cell_length_b                   8.364(2)
_cell_length_c                   15.4923(3)
_cell_angle_alpha                90
_cell_angle_beta                 93.8722(5)
_cell_angle_gamma                90
_cell_volume                     1910.66
loop_
_atom_site_label
_atom_site_type_symbol
_atom_site_fract_x
_atom_site_fract_y
_atom_site_fract_z
Zn1 Zn -0.09268(3) 0.20691(6) -0.04477(3)
Cu1 Cu -0.35314(3) 0.20814(6) 0.45041(3)
O1 O -0.3828(2) 0.0011(3) 0.5016(2)
O2 O -0.4402(2) -0.1062(4) 0.6186(2)
O3 O -0.5280(2) 0.2917(3) 0.8433(2)
O4 O -0.5241(2) 0.5536(3) 0.8148(2)
O5 O -0.3388(2) 0.4190(3) 0.4002(2)
O6 O -0.2870(2) 0.5461(4) 0.2878(2)
O7 O -0.1575(2) 0.1894(4) 0.0634(2)
O8 O -0.1580(2) -0.0762(4) 0.0813(2)
O9 O -0.2130(2) 0.2167(4) 0.5186(2)
O10 O 0.0318(2) 0.1768(4) 0.0225(2)
O11 O -0.1960(2) 0.0910(4) -0.1116(2)
O12 O -0.1043(2) 0.4477(4) -0.0570(2)
N1 N -0.4104(2) 0.2935(4) 0.5528(2)
N2 N -0.3103(2) 0.1361(4) 0.3370(2)
C1 C -0.4359(3) 0.1773(5) 0.6060(2)
C2 C -0.4710(3) 0.2131(5) 0.6839(2)
C3 C -0.4788(3) 0.3713(5) 0.7088(2)
C4 C -0.4535(3) 0.4899(5) 0.6531(2)
C5 C -0.4194(3) 0.4456(5) 0.5752(2)
C6 C -0.4191(3) 0.0088(5) 0.5750(2)
C7 C -0.5128(3) 0.4121(5) 0.7957(2)
C8 C -0.2843(3) 0.2604(5) 0.2899(2)
C9 C -0.2429(3) 0.2386(5) 0.2132(2)
C10 C -0.2265(3) 0.0876(5) 0.1843(2)
C11 C -0.2536(3) -0.0413(5) 0.2326(2)
C12 C -0.2954(3) -0.0116(5) 0.3085(2)
C13 C -0.3044(3) 0.4221(5) 0.3262(2)
C14 C -0.1765(3) 0.0622(5) 0.1023(2)
H1 H -0.4898 0.1297 0.7204
H2 H -0.4594 0.5995 0.6677
H3 H -0.4019 0.5267 0.5367
H4 H -0.2258 0.3287 0.1806
H5 H -0.2437 -0.1478 0.2141
H6 H -0.3143 -0.0999 0.3415
Zn1C Zn -0.59268(3) 0.29309(6) 0.95523(3)
O3C O -0.0280(2) 0.2083(3) -0.1567(2)
O13 O -0.3790(2) 0.0704(4) 0.8984(2)
O14 O -0.5114(3) 0.1250(4) 0.2086(2)
loop_
_geom_bond_atom_site_label_1
_geom_bond_atom_site_label_2
_geom_bond_site_symmetry_1
_geom_bond_site_symmetry_2
Zn1 O7 1_555 1_555
Cu1 O1 1_555 1_555
O1 C6 1_555 1_555
O2 C6 1_555 1_555
O3 C7 1_555 1_555
O4 C7 1_555 1_555
O5 Cu1 1_555 1_555
O6 C13 1_555 1_555
O7 C14 1_555 1_555
O8 C14 1_555 1_555
O9 Cu1 1_555 1_555
O10 Zn1 1_555 1_555
O11 Zn1 1_555 1_555
O12 Zn1 1_555 1_555
N1 Cu1 1_555 1_555
N2 Cu1 1_555 1_555
C1 N1 1_555 1_555
C2 C1 1_555 1_555
C3 C2 1_555 1_555
C4 C3 1_555 1_555
C5 N1 1_555 1_555
C6 C1 1_555 1_555
C7 C3 1_555 1_555
C8 N2 1_555 1_555
C9 C8 1_555 1_555
C10 C9 1_555 1_555
C11 C10 1_555 1_555
C12 N2 1_555 1_555
C13 O5 1_555 1_555
C14 C10 1_555 1_555
H1 C2 1_555 1_555
H2 C4 1_555 1_555
H3 C5 1_555 1_555
H4 C9 1_555 1_555
H5 C11 1_555 1_555
H6 C12 1_555 1_555
Zn1C O3 1_555 1_555
O3C Zn1 1_555 1_555
C4 C5 1_555 1_555
C8 C13 1_555 1_555
C11 C12 1_555 1_555

#END
