
#######################################################################
#
#                 Cambridge Crystallographic Data Centre
#                                CCDC 
#
#######################################################################
#
# If this CIF has been generated from an entry in the Cambridge 
# Structural Database, then it will include bibliographic, chemical, 
# crystal, experimental, refinement or atomic coordinate data resulting 
# from the CCDC's data processing and validation procedures.
#
#######################################################################

data_FIKNET
_symmetry_cell_setting           monoclinic
_symmetry_space_group_name_H-M   'P 21/a'
_symmetry_Int_Tables_number      14
_space_group_name_Hall           '-P 2yab'
loop_
_symmetry_equiv_pos_site_id
_symmetry_equiv_pos_as_xyz
1 x,y,z
2 1/2-x,1/2+y,-z
3 -x,-y,-z
4 1/2+x,1/2-y,z
_cell_length_a                   14.683(2)
_cell_length_b                   8.398(1)
_cell_length_c                   15.4555(2)
_cell_angle_alpha                90
_cell_angle_beta                 93.0221(4)
_cell_angle_gamma                90
_cell_volume                     1903.13
loop_
_atom_site_label
_atom_site_type_symbol
_atom_site_fract_x
_atom_site_fract_y
_atom_site_fract_z
Cu1 Cu -0.35253(3) 0.21279(4) 0.45088(2)
Cu2 Cu -0.09608(3) 0.18944(4) -0.04709(2)
O1 O -0.3833(2) 0.0066(3) 0.5017(1)
O2 O -0.4401(2) -0.1029(3) 0.6181(2)
O3 O -0.5346(2) 0.2953(2) 0.8450(1)
O4 O -0.5259(2) 0.5563(3) 0.8177(1)
O5 O -0.3375(2) 0.4234(3) 0.4000(1)
O6 O -0.2860(2) 0.5483(3) 0.2865(1)
O7 O -0.1590(2) 0.1854(3) 0.0590(1)
O8 O -0.1558(2) -0.0769(3) 0.0817(2)
O9 O -0.2117(2) 0.2199(3) 0.5184(2)
O10 O 0.0257(2) 0.1833(3) 0.0190(1)
O11 O -0.2031(2) 0.1028(4) -0.1122(1)
O12 O -0.1092(2) 0.4497(3) -0.0579(2)
N1 N -0.4112(2) 0.2967(3) 0.5535(2)
N2 N -0.3086(2) 0.1404(3) 0.3376(1)
C1 C -0.4371(2) 0.1808(4) 0.6077(2)
C2 C -0.4730(2) 0.2144(3) 0.6854(2)
C3 C -0.4817(2) 0.3735(3) 0.7113(2)
C4 C -0.4555(2) 0.4915(3) 0.6550(2)
C5 C -0.4201(2) 0.4478(4) 0.5768(2)
C6 C -0.4198(2) 0.0132(4) 0.5750(2)
C7 C -0.5167(2) 0.4144(4) 0.7972(2)
C8 C -0.2836(2) 0.2629(4) 0.2888(2)
C9 C -0.2426(2) 0.2421(4) 0.2113(2)
C10 C -0.2254(2) 0.0889(4) 0.1828(2)
C11 C -0.2530(2) -0.0382(4) 0.2331(2)
C12 C -0.2946(2) -0.0078(4) 0.3101(2)
C13 C -0.3032(2) 0.4256(4) 0.3256(2)
C14 C -0.1764(2) 0.0607(4) 0.1005(2)
H1 H -0.4919 0.1306 0.7217
H2 H -0.4616 0.6007 0.6696
H3 H -0.4017 0.5290 0.5387
H4 H -0.2263 0.3316 0.1779
H5 H -0.2434 -0.1447 0.2149
H6 H -0.3137 -0.0949 0.3439
Cu2C Cu -0.59608(3) 0.31056(4) 0.95291(2)
O3C O -0.0346(2) 0.2047(2) -0.1550(1)
O13 O -0.3834(2) 0.0710(4) 0.8946(2)
O14 O -0.5089(2) 0.1258(3) 0.2097(2)
loop_
_geom_bond_atom_site_label_1
_geom_bond_atom_site_label_2
_geom_bond_site_symmetry_1
_geom_bond_site_symmetry_2
Cu1 O1 1_555 1_555
Cu2 O7 1_555 1_555
O1 C6 1_555 1_555
O2 C6 1_555 1_555
O3 C7 1_555 1_555
O4 C7 1_555 1_555
O5 Cu1 1_555 1_555
O6 C13 1_555 1_555
O7 C14 1_555 1_555
O8 C14 1_555 1_555
O9 Cu1 1_555 1_555
O10 Cu2 1_555 1_555
O11 Cu2 1_555 1_555
O12 Cu2 1_555 1_555
N1 Cu1 1_555 1_555
N2 Cu1 1_555 1_555
C1 N1 1_555 1_555
C2 C1 1_555 1_555
C3 C2 1_555 1_555
C4 C3 1_555 1_555
C5 N1 1_555 1_555
C6 C1 1_555 1_555
C7 C3 1_555 1_555
C8 N2 1_555 1_555
C9 C8 1_555 1_555
C10 C9 1_555 1_555
C11 C10 1_555 1_555
C12 N2 1_555 1_555
C13 O5 1_555 1_555
C14 C10 1_555 1_555
H1 C2 1_555 1_555
H2 C4 1_555 1_555
H3 C5 1_555 1_555
H4 C9 1_555 1_555
H5 C11 1_555 1_555
H6 C12 1_555 1_555
Cu2C O3 1_555 1_555
O3C Cu2 1_555 1_555
C4 C5 1_555 1_555
C8 C13 1_555 1_555
C11 C12 1_555 1_555

#END
