
#######################################################################
#
#                 Cambridge Crystallographic Data Centre
#                                CCDC 
#
#######################################################################
#
# If this CIF has been generated from an entry in the Cambridge 
# Structural Database, then it will include bibliographic, chemical, 
# crystal, experimental, refinement or atomic coordinate data resulting 
# from the CCDC's data processing and validation procedures.
#
#######################################################################

data_FIKNOD
_symmetry_cell_setting           triclinic
_symmetry_space_group_name_H-M   'P -1'
_symmetry_Int_Tables_number      2
_space_group_name_Hall           '-P 1'
loop_
_symmetry_equiv_pos_site_id
_symmetry_equiv_pos_as_xyz
1 x,y,z
2 -x,-y,-z
_cell_length_a                   7.898(1)
_cell_length_b                   8.005(1)
_cell_length_c                   7.580(1)
_cell_angle_alpha                97.325(4)
_cell_angle_beta                 90.874(7)
_cell_angle_gamma                112.07(1)
_cell_volume                     439.453
loop_
_atom_site_label
_atom_site_type_symbol
_atom_site_fract_x
_atom_site_fract_y
_atom_site_fract_z
Cu1 Cu 1.0000 0.5000 0.5000
Mn1 Mn 1.0000 1.0000 1.0000
O1 O 1.0691(4) 0.7423(4) 0.6315(4)
O2 O 0.9478(4) 0.9514(4) 0.7086(4)
O3 O 0.4217(5) 0.8932(5) 0.2324(5)
O4 O 0.2007(4) 0.6149(5) 0.2203(5)
O5 O 1.0490(4) 1.2863(4) 0.9710(5)
O6 O 1.2937(4) 1.0588(5) 1.0067(5)
N1 N 0.7905(5) 0.5476(5) 0.3988(5)
C1 C 0.7945(6) 0.7105(6) 0.4712(6)
C2 C 0.6593(6) 0.7733(6) 0.4250(6)
C3 C 0.5111(6) 0.6587(6) 0.3022(6)
C4 C 0.5095(6) 0.4918(7) 0.2308(6)
C5 C 0.6525(6) 0.4399(6) 0.2801(6)
C6 C 0.9479(6) 0.8109(6) 0.6140(6)
C7 C 0.3647(6) 0.7263(7) 0.2461(6)
H1 H 0.6659 0.8910 0.4761
H2 H 0.4131 0.4117 0.1488
H3 H 0.6519 0.3259 0.2269
Mn1_2 Mn 1.0000 0.0000 0.0000
O1A O 0.9309(4) 0.2577(4) 0.3685(4)
O2A O 1.0522(4) 1.0486(4) 1.2914(4)
O2A_2 O 1.0522(4) 0.0486(4) 0.2914(4)
O3A O 1.5783(5) 0.1068(5) 0.7676(5)
O4A O 1.7993(4) 0.3851(5) 0.7797(5)
O5A O 0.9510(4) 0.7137(4) 1.0290(5)
O6A O 0.7063(4) 0.9412(5) 0.9933(5)
N1A N 1.2095(5) 0.4524(5) 0.6012(5)
C1A C 1.2055(6) 0.2895(6) 0.5288(6)
C2A C 1.3407(6) 0.2267(6) 0.5750(6)
C3A C 1.4889(6) 0.3413(6) 0.6978(6)
C4A C 1.4905(6) 0.5082(7) 0.7692(6)
C5A C 1.3475(6) 0.5601(6) 0.7199(6)
C6A C 1.0521(6) 0.1891(6) 0.3860(6)
C7A C 1.6353(6) 0.2737(7) 0.7539(6)
H1A H 1.3341 0.1090 0.5239
H2A H 1.5869 0.5883 0.8512
H3A H 1.3481 0.6741 0.7731
loop_
_geom_bond_atom_site_label_1
_geom_bond_atom_site_label_2
_geom_bond_site_symmetry_1
_geom_bond_site_symmetry_2
Cu1 O1 1_555 1_555
Mn1 O2 1_555 1_555
O1 C6 1_555 1_555
O2 C6 1_555 1_555
O3 C7 1_555 1_555
O4 C7 1_555 1_555
O5 Mn1 1_555 1_555
O6 Mn1 1_555 1_555
N1 Cu1 1_555 1_555
C1 N1 1_555 1_555
C2 C1 1_555 1_555
C3 C2 1_555 1_555
C4 C3 1_555 1_555
C5 N1 1_555 1_555
C6 C1 1_555 1_555
C7 C3 1_555 1_555
H1 C2 1_555 1_555
H2 C4 1_555 1_555
H3 C5 1_555 1_555
Mn1_2 O2A_2 1_555 1_555
O1A Cu1 1_555 1_555
O2A Mn1 1_555 1_555
O2A_2 C6A 1_555 1_555
O3A C7A 1_555 1_555
O4A C7A 1_555 1_555
O5A Mn1 1_555 1_555
O6A Mn1 1_555 1_555
N1A Cu1 1_555 1_555
C1A N1A 1_555 1_555
C2A C1A 1_555 1_555
C3A C2A 1_555 1_555
C4A C3A 1_555 1_555
C5A N1A 1_555 1_555
C6A O1A 1_555 1_555
C7A C3A 1_555 1_555
H1A C2A 1_555 1_555
H2A C4A 1_555 1_555
H3A C5A 1_555 1_555
C4 C5 1_555 1_555
C1A C6A 1_555 1_555
C4A C5A 1_555 1_555

#END
