
#######################################################################
#
#                 Cambridge Crystallographic Data Centre
#                                CCDC 
#
#######################################################################
#
# If this CIF has been generated from an entry in the Cambridge 
# Structural Database, then it will include bibliographic, chemical, 
# crystal, experimental, refinement or atomic coordinate data resulting 
# from the CCDC's data processing and validation procedures.
#
#######################################################################

data_FIKNOD01
_symmetry_cell_setting           triclinic
_symmetry_space_group_name_H-M   'P -1'
_symmetry_Int_Tables_number      2
_space_group_name_Hall           '-P 1'
loop_
_symmetry_equiv_pos_site_id
_symmetry_equiv_pos_as_xyz
1 x,y,z
2 -x,-y,-z
_cell_length_a                   7.4676(8)
_cell_length_b                   7.801(1)
_cell_length_c                   7.978(1)
_cell_angle_alpha                112.290(6)
_cell_angle_beta                 97.285(5)
_cell_angle_gamma                91.012(3)
_cell_volume                     425.46
loop_
_atom_site_label
_atom_site_type_symbol
_atom_site_fract_x
_atom_site_fract_y
_atom_site_fract_z
Cu1 Cu 0.5000 0.5000 0.5000
Mn1 Mn 0.0000 -0.5000 0.0000
O1 O 0.7798(2) 0.3021(2) 0.3874(2)
O2 O 0.7681(2) 0.0791(2) 0.1066(2)
O3 O 0.3698(2) -0.5712(2) 0.2551(2)
O4 O 0.2928(2) -0.4487(2) 0.0477(2)
O5 O 0.0081(2) -0.2053(2) 0.0623(2)
O6 O 0.0299(2) -0.5505(2) -0.2850(2)
N1 N 0.6027(2) -0.2913(2) 0.4532(2)
C1 C 0.5302(2) -0.2937(3) 0.2891(3)
C2 C 0.5757(3) -0.1593(3) 0.2265(3)
C3 C 0.6983(3) -0.0121(3) 0.3407(3)
C4 C 0.7700(3) -0.0072(3) 0.5116(3)
C5 C 0.7213(3) -0.1511(3) 0.5626(3)
C6 C 0.3877(3) -0.4503(3) 0.1866(3)
C7 C 0.7535(3) 0.1368(3) 0.2737(3)
H1 H 0.5233 -0.1668 0.1047
H2 H 0.8537 0.0966 0.5955
H3 H 0.7753 -0.1500 0.6815
H4 H 0.074(4) -0.177(4) 0.005(4)
H5 H -0.076(4) -0.160(4) 0.057(4)
H6 H 0.095(4) -0.475(5) -0.291(4)
H7 H -0.048(4) -0.575(4) -0.357(4)
Cu1_2 Cu 0.5000 -0.5000 0.5000
Cu1_3 Cu 0.5000 1.5000 0.5000
Mn1_2 Mn 1.0000 1.5000 1.0000
O1A O 0.2202(2) 0.6979(2) 0.6126(2)
O2A O 0.2319(2) 0.9209(2) 0.8934(2)
O3A O 0.6302(2) 1.5712(2) 0.7449(2)
O3_2 O 0.3698(2) 0.4288(2) 0.2551(2)
O3A_2 O 0.6302(2) 0.5712(2) 0.7449(2)
O4A O 0.7072(2) 1.4487(2) 0.9523(2)
O4A_2 O -0.2928(2) -0.5513(2) -0.0477(2)
O5A O -0.0081(2) -0.7947(2) -0.0623(2)
O6A O -0.0299(2) -0.4495(2) 0.2850(2)
N1A N 0.3973(2) 1.2913(2) 0.5468(2)
N1_2 N 0.6027(2) 0.7087(2) 0.4532(2)
N1A_2 N 0.3973(2) 0.2913(2) 0.5468(2)
C1A C 0.4698(2) 1.2937(3) 0.7109(3)
C2A C 0.4243(3) 1.1593(3) 0.7735(3)
C3A C 0.3017(3) 1.0121(3) 0.6593(3)
C4A C 0.2300(3) 1.0072(3) 0.4884(3)
C5A C 0.2787(3) 1.1511(3) 0.4374(3)
C6A C 0.6123(3) 1.4503(3) 0.8134(3)
C7A C 0.2465(3) 0.8632(3) 0.7263(3)
H1A H 0.4767 1.1668 0.8953
H2A H 0.1463 0.9034 0.4045
H3A H 0.2247 1.1500 0.3185
H4A H -0.074(4) -0.823(4) -0.005(4)
H5A H 0.076(4) -0.840(4) -0.057(4)
H6A H -0.095(4) -0.525(5) 0.291(4)
H7A H 0.048(4) -0.425(4) 0.357(4)
loop_
_geom_bond_atom_site_label_1
_geom_bond_atom_site_label_2
_geom_bond_site_symmetry_1
_geom_bond_site_symmetry_2
Cu1 O1 1_555 1_555
Mn1 O4 1_555 1_555
O1 C7 1_555 1_555
O2 C7 1_555 1_555
O3 C6 1_555 1_555
O4 C6 1_555 1_555
O5 Mn1 1_555 1_555
O6 Mn1 1_555 1_555
N1 C1 1_555 1_555
C1 C2 1_555 1_555
C2 C3 1_555 1_555
C3 C4 1_555 1_555
C4 C5 1_555 1_555
C5 N1 1_555 1_555
C6 C1 1_555 1_555
C7 C3 1_555 1_555
H1 C2 1_555 1_555
H2 C4 1_555 1_555
H3 C5 1_555 1_555
H4 O5 1_555 1_555
H5 O5 1_555 1_555
H6 O6 1_555 1_555
H7 O6 1_555 1_555
Cu1_2 O3 1_555 1_555
Cu1_3 O3A 1_555 1_555
Mn1_2 O4A 1_555 1_555
O1A Cu1 1_555 1_555
O2A C7A 1_555 1_555
O3A C6A 1_555 1_555
O3_2 Cu1 1_555 1_555
O3A_2 Cu1 1_555 1_555
O4A C6A 1_555 1_555
O4A_2 Mn1 1_555 1_555
O5A Mn1 1_555 1_555
O6A Mn1 1_555 1_555
N1A Cu1_3 1_555 1_555
N1_2 Cu1 1_555 1_555
N1A_2 Cu1 1_555 1_555
C1A N1A 1_555 1_555
C2A C1A 1_555 1_555
C3A C2A 1_555 1_555
C4A C3A 1_555 1_555
C5A N1A 1_555 1_555
C6A C1A 1_555 1_555
C7A O1A 1_555 1_555
H1A C2A 1_555 1_555
H2A C4A 1_555 1_555
H3A C5A 1_555 1_555
H4A O5A 1_555 1_555
H5A O5A 1_555 1_555
H6A O6A 1_555 1_555
H7A O6A 1_555 1_555
N1 Cu1_2 1_555 1_555
C3A C7A 1_555 1_555
C4A C5A 1_555 1_555

#END
