
#######################################################################
#
#                 Cambridge Crystallographic Data Centre
#                                CCDC 
#
#######################################################################
#
# If this CIF has been generated from an entry in the Cambridge 
# Structural Database, then it will include bibliographic, chemical, 
# crystal, experimental, refinement or atomic coordinate data resulting 
# from the CCDC's data processing and validation procedures.
#
#######################################################################

data_FIKNAP
_symmetry_cell_setting           triclinic
_symmetry_space_group_name_H-M   'P -1'
_symmetry_Int_Tables_number      2
_space_group_name_Hall           '-P 1'
loop_
_symmetry_equiv_pos_site_id
_symmetry_equiv_pos_as_xyz
1 x,y,z
2 -x,-y,-z
_cell_length_a                   8.7317(7)
_cell_length_b                   8.7642(6)
_cell_length_c                   5.1250(5)
_cell_angle_alpha                93.678(5)
_cell_angle_beta                 99.508(3)
_cell_angle_gamma                108.496(2)
_cell_volume                     363.97
loop_
_atom_site_label
_atom_site_type_symbol
_atom_site_fract_x
_atom_site_fract_y
_atom_site_fract_z
Ag1 Ag 0.04712(3) -0.38815(3) 0.81004(5)
Cu1 Cu 0.0000 0.0000 0.0000
O1 O 0.0138(3) -0.1324(3) 0.2876(4)
O2 O 0.1743(3) -0.1241(3) 0.6813(5)
O3 O -0.7316(3) -0.3163(4) -0.8683(5)
O4 O -0.8009(3) -0.4817(3) -0.5604(5)
N1 N 0.2205(3) 0.1351(3) 0.1820(5)
C1 C -0.2733(4) -0.0765(4) -0.4033(6)
C2 C -0.4264(4) -0.1476(4) -0.5589(6)
C3 C -0.5354(4) -0.2842(4) -0.4820(6)
C4 C -0.4811(4) -0.3435(4) -0.2511(6)
C5 C -0.3232(4) -0.2676(4) -0.1075(6)
C6 C 0.1445(4) -0.0722(3) 0.4632(6)
C7 C -0.7043(4) -0.3685(4) -0.6508(6)
H1 H -0.4589 -0.1047 -0.7162
H2 H -0.5524 -0.4362 -0.1931
H3 H -0.2858 -0.3097 0.0472
Ag1A Ag -0.04712(3) -0.61185(3) 1.18996(5)
Ag1A_2 Ag -0.04712(3) 0.38815(3) -0.81004(5)
Ag1_2 Ag 0.04712(3) 0.61185(3) -1.18996(5)
Ag1_3 Ag 1.04712(3) 0.61185(3) 0.81004(5)
Ag1_4 Ag -0.95288(3) -0.38815(3) -1.18996(5)
Ag1A_3 Ag -1.04712(3) -0.61185(3) -0.81004(5)
Ag1A_4 Ag 0.95288(3) 0.38815(3) 1.18996(5)
O1A O -0.0138(3) 0.1324(3) -0.2876(4)
O2A O -0.1743(3) 0.1241(3) -0.6813(5)
O3A O -0.2684(3) 0.3163(4) -1.1317(5)
O3_2 O 0.2684(3) -0.3163(4) 1.1317(5)
O3A_2 O 0.7316(3) 0.3163(4) 0.8683(5)
O4_2 O 0.1991(3) 0.5183(3) -0.5604(5)
O4A O -0.1991(3) -0.5183(3) 0.5604(5)
O4A_2 O 0.8009(3) 0.4817(3) 0.5604(5)
N1A N -0.2205(3) -0.1351(3) -0.1820(5)
C1A C 0.2733(4) 0.0765(4) 0.4033(6)
C2A C 0.4264(4) 0.1476(4) 0.5589(6)
C3A C 0.5354(4) 0.2842(4) 0.4820(6)
C4A C 0.4811(4) 0.3435(4) 0.2511(6)
C5A C 0.3232(4) 0.2676(4) 0.1075(6)
C6A C -0.1445(4) 0.0722(3) -0.4632(6)
C7A C 0.7043(4) 0.3685(4) 0.6508(6)
H1A H 0.4589 0.1047 0.7162
H2A H 0.5524 0.4362 0.1931
H3A H 0.2858 0.3097 -0.0472
loop_
_geom_bond_atom_site_label_1
_geom_bond_atom_site_label_2
_geom_bond_site_symmetry_1
_geom_bond_site_symmetry_2
Ag1 O2 1_555 1_555
Cu1 O1 1_555 1_555
O1 C6 1_555 1_555
O2 C6 1_555 1_555
O3 C7 1_555 1_555
O4 C7 1_555 1_555
N1 Cu1 1_555 1_555
C1 C2 1_555 1_555
C2 C3 1_555 1_555
C3 C4 1_555 1_555
C4 C5 1_555 1_555
C5 H3 1_555 1_555
C6 C1A 1_555 1_555
C7 C3 1_555 1_555
H1 C2 1_555 1_555
H2 C4 1_555 1_555
Ag1A Ag1 1_555 1_555
Ag1A_2 Ag1_2 1_555 1_555
Ag1_3 Ag1A_4 1_555 1_555
Ag1_4 O3 1_555 1_555
Ag1A_3 O4 1_555 1_555
Ag1A_4 O3A_2 1_555 1_555
O1A Cu1 1_555 1_555
O2A Ag1A_2 1_555 1_555
O3A Ag1A_2 1_555 1_555
O3_2 Ag1 1_555 1_555
O3A_2 C7A 1_555 1_555
O4_2 Ag1A_2 1_555 1_555
O4A Ag1 1_555 1_555
O4A_2 Ag1_3 1_555 1_555
N1A Cu1 1_555 1_555
C1A N1 1_555 1_555
C2A C1A 1_555 1_555
C3A C2A 1_555 1_555
C4A C3A 1_555 1_555
C5A N1 1_555 1_555
C6A C1 1_555 1_555
C7A O4A_2 1_555 1_555
H1A C2A 1_555 1_555
H2A C4A 1_555 1_555
H3A C5A 1_555 1_555
C1 N1A 1_555 1_555
C5 N1A 1_555 1_555
Ag1_4 Ag1A_3 1_555 1_555
O1A C6A 1_555 1_555
O2A C6A 1_555 1_555
C3A C7A 1_555 1_555
C4A C5A 1_555 1_555

#END
